
#######################################################################
#
#                 Cambridge Crystallographic Data Centre
#                                CCDC 
#
#######################################################################
#
# If this CIF has been generated from an entry in the Cambridge 
# Structural Database, then it will include bibliographic, chemical, 
# crystal, experimental, refinement or atomic coordinate data resulting 
# from the CCDC's data processing and validation procedures.
#
#######################################################################

data_DAFKAZ
_chemical_formula_moiety         'C42 H36 Mg13 N18 O24'
_symmetry_cell_setting           hexagonal
_symmetry_space_group_name_H-M   'P 63/m m c'
_symmetry_Int_Tables_number      194
_space_group_name_Hall           '-P 6c 2c'
loop_
_symmetry_equiv_pos_site_id
_symmetry_equiv_pos_as_xyz
1 x,y,z
2 x-y,x,1/2+z
3 -y,x-y,z
4 -x,-y,1/2+z
5 -x+y,-x,z
6 y,-x+y,1/2+z
7 -y,-x,1/2-z
8 x-y,-y,-z
9 x,x-y,1/2-z
10 y,x,-z
11 -x+y,y,1/2-z
12 -x,-x+y,-z
13 -x,-y,-z
14 -x+y,-x,1/2-z
15 y,-x+y,-z
16 x,y,1/2-z
17 x-y,x,-z
18 -y,x-y,1/2-z
19 y,x,1/2+z
20 -x+y,y,z
21 -x,-x+y,1/2+z
22 -y,-x,z
23 x-y,-y,1/2+z
24 x,x-y,z
_cell_length_a                   16.9970(4)
_cell_length_b                   16.9970(4)
_cell_length_c                   14.9864(9)
_cell_angle_alpha                90
_cell_angle_beta                 90
_cell_angle_gamma                120
_cell_volume                     3749.49
loop_
_atom_site_label
_atom_site_type_symbol
_atom_site_fract_x
_atom_site_fract_y
_atom_site_fract_z
Mg1 Mg 0.53237(9) 0.26618(4) 0.2500
C1 C 0.57385(11) 0.42615(11) 0.1287(2)
C2 C 0.53559(13) 0.46441(13) 0.0620(3)
C3 C 0.4556(9) 0.4061(8) 0.0141(7)
N1 N 0.4088(9) 0.3105(9) 0.0186(10)
H1 H 0.3710 0.2830 0.0613
H2 H 0.4179 0.2796 -0.0213
C4 C 0.3315(2) 0.2330(2) 0.2500
H3 H 0.3632 0.2962 0.2500
C5 C 0.2377(3) 0.1887(2) 0.2500
H4 H 0.2075 0.2216 0.2500
C6 C 0.1892(3) 0.09461(16) 0.2500
C7 C 0.0888(3) 0.04442(17) 0.2500
N2 N 0.3794(3) 0.18971(13) 0.2500
N3 N 0.04663(14) 0.0933(3) 0.2500
O1 O 0.6667 0.3333 0.2500
O2 O 0.52277(12) 0.34668(12) 0.15444(12)
C1I C 0.42615(11) 0.57385(11) -0.1287(2)
C2I C 0.46441(13) 0.53559(13) -0.0620(3)
C3I C 0.4061(8) 0.4556(9) -0.0141(7)
N1I N 0.3105(9) 0.4088(9) -0.0186(10)
H1I H 0.2830 0.3710 -0.0613
H2I H 0.2796 0.4179 0.0213
O2I O 0.34668(12) 0.52277(12) -0.15444(12)
C3L C 0.5444(9) 0.5939(8) -0.0141(7)
N1L N 0.5912(9) 0.6895(9) -0.0186(10)
H1L H 0.6290 0.7170 -0.0613
H2L H 0.5821 0.7204 0.0213
O2L O 0.47723(12) 0.65332(12) -0.15444(12)
C3U C 0.5939(8) 0.5444(9) 0.0141(7)
N1U N 0.6895(9) 0.5912(9) 0.0186(10)
H1U H 0.7170 0.6290 0.0613
H2U H 0.7204 0.5821 -0.0213
O2U O 0.65332(12) 0.47723(12) 0.15444(12)
C4B C -0.2330(2) 0.0985(3) 0.2500
H3B H -0.2962 0.0670 0.2500
C5B C -0.1887(2) 0.0490(4) 0.2500
H4B H -0.2216 -0.0141 0.2500
C6B C -0.09461(16) 0.09459(34) 0.2500
C7B C -0.04442(17) 0.04438(34) 0.2500
N2B N -0.18971(13) 0.18969(33) 0.2500
N3B N -0.0933(3) -0.04667(33) 0.2500
C4D C -0.0985(3) -0.3315(2) 0.2500
H3D H -0.0670 -0.3632 0.2500
C5D C -0.0490(4) -0.2377(3) 0.2500
H4D H 0.0141 -0.2075 0.2500
C6D C -0.09459(34) -0.1892(3) 0.2500
C7D C -0.04438(34) -0.0888(3) 0.2500
N2D N -0.18969(33) -0.3794(3) 0.2500
N3D N 0.04667(33) -0.04663(14) 0.2500
C4H C 0.3315(2) 0.0985(3) 0.2500
H3H H 0.3632 0.0670 0.2500
C5H C 0.2377(3) 0.0490(4) 0.2500
H4H H 0.2075 -0.0141 0.2500
C4J C -0.0985(3) 0.2330(2) 0.2500
H3J H -0.0670 0.2962 0.2500
C5J C -0.0490(4) 0.1887(2) 0.2500
H4J H 0.0141 0.2216 0.2500
C4F C -0.2330(2) -0.3315(2) 0.2500
H3F H -0.2962 -0.3632 0.2500
C5F C -0.1887(2) -0.2377(3) 0.2500
H4F H -0.2216 -0.2075 0.2500
Mg1B Mg -0.26618(4) 0.26619(10) 0.2500
C1B C -0.42615(11) 0.14770(16) 0.1287(2)
C2B C -0.46441(13) 0.07118(18) 0.0620(3)
C3B C -0.4061(8) 0.0495(12) 0.0141(7)
N1B N -0.3105(9) 0.0983(13) 0.0186(10)
H1B H -0.2830 0.0880 0.0613
H2B H -0.2796 0.1383 -0.0213
O2B O -0.34668(12) 0.17609(17) 0.15444(12)
C1K C -0.57385(11) -0.14770(16) -0.1287(2)
C2K C -0.53559(13) -0.07118(18) -0.0620(3)
C3K C -0.4556(9) -0.0495(12) -0.0141(7)
N1K N -0.4088(9) -0.0983(13) -0.0186(10)
H1K H -0.3710 -0.0880 -0.0613
H2K H -0.4179 -0.1383 0.0213
O2K O -0.52277(12) -0.17609(17) -0.15444(12)
C3N C -0.5939(8) -0.0495(12) -0.0141(7)
N1N N -0.6895(9) -0.0983(13) -0.0186(10)
H1N H -0.7170 -0.0880 -0.0613
H2N H -0.7204 -0.1383 0.0213
O2N O -0.65332(12) -0.17609(17) -0.15444(12)
C3W C -0.5444(9) 0.0495(12) 0.0141(7)
N1W N -0.5912(9) 0.0983(13) 0.0186(10)
H1W H -0.6290 0.0880 0.0613
H2W H -0.5821 0.1383 -0.0213
O2W O -0.47723(12) 0.17609(17) 0.15444(12)
Mg1D Mg -0.26619(10) -0.53237(9) 0.2500
C1D C -0.14770(16) -0.57385(11) 0.1287(2)
C2D C -0.07118(18) -0.53559(13) 0.0620(3)
C3D C -0.0495(12) -0.4556(9) 0.0141(7)
N1D N -0.0983(13) -0.4088(9) 0.0186(10)
H1D H -0.0880 -0.3710 0.0613
H2D H -0.1383 -0.4179 -0.0213
O2D O -0.17609(17) -0.52277(12) 0.15444(12)
C1G C 0.14770(16) -0.42615(11) -0.1287(2)
C2G C 0.07118(18) -0.46441(13) -0.0620(3)
C3G C 0.0495(12) -0.4061(8) -0.0141(7)
N1G N 0.0983(13) -0.3105(9) -0.0186(10)
H1G H 0.0880 -0.2830 -0.0613
H2G H 0.1383 -0.2796 0.0213
O2G O 0.17609(17) -0.34668(12) -0.15444(12)
C3P C 0.0495(12) -0.5444(9) -0.0141(7)
N1P N 0.0983(13) -0.5912(9) -0.0186(10)
H1P H 0.0880 -0.6290 -0.0613
H2P H 0.1383 -0.5821 0.0213
O2P O 0.17609(17) -0.47723(12) -0.15444(12)
C3S C -0.0495(12) -0.5939(8) 0.0141(7)
N1S N -0.0983(13) -0.6895(9) 0.0186(10)
H1S H -0.0880 -0.7170 0.0613
H2S H -0.1383 -0.7204 -0.0213
O2S O -0.17609(17) -0.65332(12) 0.15444(12)
Mg1_2 Mg -0.46763(9) 0.26618(4) 0.2500
Mg1A Mg 0.26619(10) -0.46763(9) -0.2500
Mg1A_2 Mg 0.26619(10) 0.53237(9) -0.2500
Mg1B_2 Mg -0.26618(4) -0.73381(10) 0.2500
Mg1B_3 Mg 0.73382(4) 0.26619(10) 0.2500
Mg1C Mg -0.53237(9) -0.26618(4) -0.2500
Mg1C_2 Mg 0.46763(9) 0.73382(4) -0.2500
Mg1D_2 Mg 0.73381(10) 0.46763(9) 0.2500
Mg1E Mg -0.73382(4) -0.26619(10) -0.2500
Mg1E_2 Mg 0.26618(4) -0.26619(10) -0.2500
O1_2 O -0.3333 -0.6667 0.2500
O1_3 O -0.3333 0.3333 0.2500
O2F O -0.34668(12) -0.52277(12) 0.34556(12)
O2H O 0.52277(12) 0.17609(17) 0.34556(12)
O2J O -0.17609(17) 0.34668(12) 0.34556(12)
O2M O -0.17609(17) -0.52277(12) 0.34556(12)
O2O O 0.52277(12) 0.34668(12) 0.34556(12)
O2Q O -0.34668(12) 0.17609(17) 0.34556(12)
O2S_2 O -0.17609(17) 0.34668(12) 0.15444(12)
O2U_2 O -0.34668(12) -0.52277(12) 0.15444(12)
O2W_2 O 0.52277(12) 0.17609(17) 0.15444(12)
loop_
_geom_bond_atom_site_label_1
_geom_bond_atom_site_label_2
_geom_bond_site_symmetry_1
_geom_bond_site_symmetry_2
Mg1 N2 1_555 1_555
C1 C2 1_555 1_555
C2 C3 1_555 1_555
C3 N1 1_555 1_555
N1 H1 1_555 1_555
H2 N1 1_555 1_555
C4 H3 1_555 1_555
C5 C4 1_555 1_555
H4 C5 1_555 1_555
C6 C5 1_555 1_555
C7 C6 1_555 1_555
N2 C4 1_555 1_555
N3 C7 1_555 1_555
O1 Mg1 1_555 1_555
O2 Mg1 1_555 1_555
C1I C2I 1_555 1_555
C2I C3I 1_555 1_555
C3I C3 1_555 1_555
N1I C3I 1_555 1_555
H1I N1I 1_555 1_555
H2I N1I 1_555 1_555
O2I C1I 1_555 1_555
C3L C2I 1_555 1_555
N1L C3L 1_555 1_555
H1L N1L 1_555 1_555
H2L N1L 1_555 1_555
O2L C1I 1_555 1_555
C3U C2 1_555 1_555
N1U C3U 1_555 1_555
H1U N1U 1_555 1_555
H2U N1U 1_555 1_555
O2U C1 1_555 1_555
C4B H3B 1_555 1_555
C5B C4B 1_555 1_555
H4B C5B 1_555 1_555
C6B C5B 1_555 1_555
C7B N3 1_555 1_555
N2B C4B 1_555 1_555
N3B C7B 1_555 1_555
C4D H3D 1_555 1_555
C5D C4D 1_555 1_555
H4D C5D 1_555 1_555
C6D C5D 1_555 1_555
C7D N3B 1_555 1_555
N2D C4D 1_555 1_555
N3D C7 1_555 1_555
C4H N2 1_555 1_555
H3H C4H 1_555 1_555
C5H C6 1_555 1_555
H4H C5H 1_555 1_555
C4J N2B 1_555 1_555
H3J C4J 1_555 1_555
C5J C6B 1_555 1_555
H4J C5J 1_555 1_555
C4F N2D 1_555 1_555
H3F C4F 1_555 1_555
C5F C6D 1_555 1_555
H4F C5F 1_555 1_555
Mg1B N2B 1_555 1_555
C1B C2B 1_555 1_555
C2B C3B 1_555 1_555
C3B N1B 1_555 1_555
N1B H1B 1_555 1_555
H2B N1B 1_555 1_555
O2B Mg1B 1_555 1_555
C1K C2K 1_555 1_555
C2K C3K 1_555 1_555
C3K C3B 1_555 1_555
N1K C3K 1_555 1_555
H1K N1K 1_555 1_555
H2K N1K 1_555 1_555
O2K C1K 1_555 1_555
C3N C2K 1_555 1_555
N1N C3N 1_555 1_555
H1N N1N 1_555 1_555
H2N N1N 1_555 1_555
O2N C1K 1_555 1_555
C3W C2B 1_555 1_555
N1W C3W 1_555 1_555
H1W N1W 1_555 1_555
H2W N1W 1_555 1_555
O2W C1B 1_555 1_555
Mg1D N2D 1_555 1_555
C1D C2D 1_555 1_555
C2D C3D 1_555 1_555
C3D N1D 1_555 1_555
N1D H1D 1_555 1_555
H2D N1D 1_555 1_555
O2D Mg1D 1_555 1_555
C1G C2G 1_555 1_555
C2G C3G 1_555 1_555
C3G C3D 1_555 1_555
N1G C3G 1_555 1_555
H1G N1G 1_555 1_555
H2G N1G 1_555 1_555
O2G C1G 1_555 1_555
C3P C2G 1_555 1_555
N1P C3P 1_555 1_555
H1P N1P 1_555 1_555
H2P N1P 1_555 1_555
O2P C1G 1_555 1_555
C3S C2D 1_555 1_555
N1S C3S 1_555 1_555
H1S N1S 1_555 1_555
H2S N1S 1_555 1_555
O2S C1D 1_555 1_555
Mg1_2 O2W 1_555 1_555
Mg1A O2P 1_555 1_555
Mg1A_2 O2I 1_555 1_555
Mg1B_2 O2S 1_555 1_555
Mg1B_3 O1 1_555 1_555
Mg1C O2K 1_555 1_555
Mg1C_2 O2L 1_555 1_555
Mg1D_2 O1 1_555 1_555
Mg1E O2N 1_555 1_555
Mg1E_2 O2G 1_555 1_555
O1_2 Mg1D 1_555 1_555
O1_3 Mg1B 1_555 1_555
O2F Mg1D 1_555 1_555
O2H Mg1 1_555 1_555
O2J Mg1B 1_555 1_555
O2M Mg1D 1_555 1_555
O2O Mg1 1_555 1_555
O2Q Mg1B 1_555 1_555
O2S_2 Mg1B 1_555 1_555
O2U_2 Mg1D 1_555 1_555
O2W_2 Mg1 1_555 1_555
C1 O2 1_555 1_555
C3L C3U 1_555 1_555
O2U Mg1D_2 1_555 1_555
C6B C7B 1_555 1_555
C6D C7D 1_555 1_555
C7D N3D 1_555 1_555
C4H C5H 1_555 1_555
C4J C5J 1_555 1_555
C4F C5F 1_555 1_555
C1B O2B 1_555 1_555
C3N C3W 1_555 1_555
C1D O2D 1_555 1_555
C3P C3S 1_555 1_555
Mg1_2 O1_3 1_555 1_555
Mg1B_2 O1_2 1_555 1_555

#END
