
#######################################################################
#
#                 Cambridge Crystallographic Data Centre
#                                CCDC 
#
#######################################################################
#
# If this CIF has been generated from an entry in the Cambridge 
# Structural Database, then it will include bibliographic, chemical, 
# crystal, experimental, refinement or atomic coordinate data resulting 
# from the CCDC's data processing and validation procedures.
#
#######################################################################

data_DAFXUG
_chemical_formula_moiety         'C90 H12 Mg13 N6 O24'
_symmetry_cell_setting           hexagonal
_symmetry_space_group_name_H-M   'P 63/m m c'
_symmetry_Int_Tables_number      194
_space_group_name_Hall           '-P 6c 2c'
loop_
_symmetry_equiv_pos_site_id
_symmetry_equiv_pos_as_xyz
1 x,y,z
2 x-y,x,1/2+z
3 -y,x-y,z
4 -x,-y,1/2+z
5 -x+y,-x,z
6 y,-x+y,1/2+z
7 -y,-x,1/2-z
8 x-y,-y,-z
9 x,x-y,1/2-z
10 y,x,-z
11 -x+y,y,1/2-z
12 -x,-x+y,-z
13 -x,-y,-z
14 -x+y,-x,1/2-z
15 y,-x+y,-z
16 x,y,1/2-z
17 x-y,x,-z
18 -y,x-y,1/2-z
19 y,x,1/2+z
20 -x+y,y,z
21 -x,-x+y,1/2+z
22 -y,-x,z
23 x-y,-y,1/2+z
24 x,x-y,z
_cell_length_a                   16.7913(2)
_cell_length_b                   16.7913(2)
_cell_length_c                   20.6558(5)
_cell_angle_alpha                90
_cell_angle_beta                 90
_cell_angle_gamma                120
_cell_volume                     5043.61
loop_
_atom_site_label
_atom_site_type_symbol
_atom_site_fract_x
_atom_site_fract_y
_atom_site_fract_z
Mg1 Mg 0.53311(9) 0.26656(5) 0.2500
O1 O 0.6667 0.3333 0.2500
O2 O 0.52369(15) 0.17870(15) 0.18089(12)
N1 N 0.3809(4) 0.19047(18) 0.2500
N2 N 0.0465(2) -0.0465(2) 0.2500
C1 C 0.3324(3) 0.2331(3) 0.2500
H1 H 0.3650 0.2984 0.2500
C2 C 0.2398(4) 0.1896(4) 0.2500
H2 H 0.2082 0.2233 0.2500
C3 C 0.1931(5) 0.0966(3) 0.2500
C4 C 0.0887(5) 0.0443(3) 0.2500
C5 C 0.57673(16) 0.1535(3) 0.1584(2)
C6 C 0.5647(7) 0.0946(6) 0.1009(4)
C7 C 0.4883(9) 0.0676(7) 0.0661(6)
C8 C 0.464(4) 0.002(6) 0.013(7)
C9 C 0.5366(14) 0.0000 0.0000
C10 C 0.6151(9) 0.0147(9) 0.0287(5)
C11 C 0.6264(8) 0.0656(9) 0.0827(6)
O2G O 0.34499(21) -0.17870(15) -0.18089(12)
C5G C 0.42323(34) -0.1535(3) -0.1584(2)
C6G C 0.4701(9) -0.0946(6) -0.1009(4)
C7G C 0.4207(11) -0.0676(7) -0.0661(6)
C8G C 0.462(7) -0.002(6) -0.013(7)
C10G C 0.6004(13) -0.0147(9) -0.0287(5)
C11G C 0.5608(12) -0.0656(9) -0.0827(6)
O2L O 0.47631(15) -0.17870(15) -0.18089(12)
C6L C 0.4353(7) -0.0946(6) -0.1009(4)
C7L C 0.5117(9) -0.0676(7) -0.0661(6)
C8L C 0.536(4) -0.002(6) -0.013(7)
C9L C 0.4634(14) 0.0000 0.0000
C10L C 0.3849(9) -0.0147(9) -0.0287(5)
C11L C 0.3736(8) -0.0656(9) -0.0827(6)
O2S O 0.65501(21) 0.17870(15) 0.18089(12)
C6S C 0.5299(9) 0.0946(6) 0.1009(4)
C7S C 0.5793(11) 0.0676(7) 0.0661(6)
C8S C 0.538(7) 0.002(6) 0.013(7)
C10S C 0.3996(13) 0.0147(9) 0.0287(5)
C11S C 0.4392(12) 0.0656(9) 0.0827(6)
N1B N -0.19047(18) 0.19043(44) 0.2500
N2B N 0.0465(2) 0.0930(3) 0.2500
C1B C -0.2331(3) 0.0993(4) 0.2500
H1B H -0.2984 0.0666 0.2500
C2B C -0.1896(4) 0.0502(6) 0.2500
H2B H -0.2233 -0.0151 0.2500
C3B C -0.0966(3) 0.0965(6) 0.2500
C4B C -0.0443(3) 0.0444(6) 0.2500
N1D N -0.19043(44) -0.3809(4) 0.2500
N2D N -0.0930(3) -0.0465(2) 0.2500
C1D C -0.0993(4) -0.3324(3) 0.2500
H1D H -0.0666 -0.3650 0.2500
C2D C -0.0502(6) -0.2398(4) 0.2500
H2D H 0.0151 -0.2082 0.2500
C3D C -0.0965(6) -0.1931(5) 0.2500
C4D C -0.0444(6) -0.0887(5) 0.2500
C1F C -0.2331(3) -0.3324(3) 0.2500
H1F H -0.2984 -0.3650 0.2500
C2F C -0.1896(4) -0.2398(4) 0.2500
H2F H -0.2233 -0.2082 0.2500
C1H C 0.3324(3) 0.0993(4) 0.2500
H1H H 0.3650 0.0666 0.2500
C2H C 0.2398(4) 0.0502(6) 0.2500
H2H H 0.2082 -0.0151 0.2500
C1J C -0.0993(4) 0.2331(3) 0.2500
H1J H -0.0666 0.2984 0.2500
C2J C -0.0502(6) 0.1896(4) 0.2500
H2J H 0.0151 0.2233 0.2500
Mg1B Mg -0.26656(5) 0.26655(10) 0.2500
O2B O -0.17870(15) 0.34499(21) 0.18089(12)
C5B C -0.1535(3) 0.42323(34) 0.1584(2)
C6B C -0.0946(6) 0.4701(9) 0.1009(4)
C7B C -0.0676(7) 0.4207(11) 0.0661(6)
C8B C -0.002(6) 0.462(7) 0.013(7)
C9B C 0.0000 0.5366(14) 0.0000
C10B C -0.0147(9) 0.6004(13) 0.0287(5)
C11B C -0.0656(9) 0.5608(12) 0.0827(6)
O2I O 0.17870(15) 0.52369(15) -0.18089(12)
C5I C 0.1535(3) 0.57673(16) -0.1584(2)
C6I C 0.0946(6) 0.5647(7) -0.1009(4)
C7I C 0.0676(7) 0.4883(9) -0.0661(6)
C8I C 0.002(6) 0.464(4) -0.013(7)
C10I C 0.0147(9) 0.6151(9) -0.0287(5)
C11I C 0.0656(9) 0.6264(8) -0.0827(6)
O2N O 0.17870(15) 0.65501(21) -0.18089(12)
C6N C 0.0946(6) 0.5299(9) -0.1009(4)
C7N C 0.0676(7) 0.5793(11) -0.0661(6)
C8N C 0.002(6) 0.538(7) -0.013(7)
C9N C -0.0000 0.4634(14) 0.0000
C10N C 0.0147(9) 0.3996(13) -0.0287(5)
C11N C 0.0656(9) 0.4392(12) -0.0827(6)
O2U O -0.17870(15) 0.47631(15) 0.18089(12)
C6U C -0.0946(6) 0.4353(7) 0.1009(4)
C7U C -0.0676(7) 0.5117(9) 0.0661(6)
C8U C -0.002(6) 0.536(4) 0.013(7)
C10U C -0.0147(9) 0.3849(9) 0.0287(5)
C11U C -0.0656(9) 0.3736(8) 0.0827(6)
Mg1D Mg -0.26655(10) -0.53311(9) 0.2500
O2D O -0.34499(21) -0.52369(15) 0.18089(12)
C5D C -0.42323(34) -0.57673(16) 0.1584(2)
C6D C -0.4701(9) -0.5647(7) 0.1009(4)
C7D C -0.4207(11) -0.4883(9) 0.0661(6)
C8D C -0.462(7) -0.464(4) 0.013(7)
C9D C -0.5366(14) -0.5366(14) 0.0000
C10D C -0.6004(13) -0.6151(9) 0.0287(5)
C11D C -0.5608(12) -0.6264(8) 0.0827(6)
O2K O -0.52369(15) -0.34499(21) -0.18089(12)
C5K C -0.57673(16) -0.42323(34) -0.1584(2)
C6K C -0.5647(7) -0.4701(9) -0.1009(4)
C7K C -0.4883(9) -0.4207(11) -0.0661(6)
C8K C -0.464(4) -0.462(7) -0.013(7)
C10K C -0.6151(9) -0.6004(13) -0.0287(5)
C11K C -0.6264(8) -0.5608(12) -0.0827(6)
O2P O -0.65501(21) -0.47631(15) -0.18089(12)
C6P C -0.5299(9) -0.4353(7) -0.1009(4)
C7P C -0.5793(11) -0.5117(9) -0.0661(6)
C8P C -0.538(7) -0.536(4) -0.013(7)
C9P C -0.4634(14) -0.4634(14) 0.0000
C10P C -0.3996(13) -0.3849(9) -0.0287(5)
C11P C -0.4392(12) -0.3736(8) -0.0827(6)
O2W O -0.47631(15) -0.65501(21) 0.18089(12)
C6W C -0.4353(7) -0.5299(9) 0.1009(4)
C7W C -0.5117(9) -0.5793(11) 0.0661(6)
C8W C -0.536(4) -0.538(7) 0.013(7)
C10W C -0.3849(9) -0.3996(13) 0.0287(5)
C11W C -0.3736(8) -0.4392(12) 0.0827(6)
Mg1_2 Mg -0.46689(9) -0.73344(5) 0.2500
Mg1A Mg -0.73345(10) -0.46689(9) -0.2500
Mg1A_2 Mg 0.26655(10) 0.53311(9) -0.2500
Mg1B_2 Mg 0.73344(5) 0.26655(10) 0.2500
Mg1C Mg -0.53311(9) -0.26656(5) -0.2500
Mg1C_2 Mg 0.46689(9) -0.26656(5) -0.2500
Mg1D_2 Mg -0.26655(10) 0.46689(9) 0.2500
Mg1D_3 Mg 0.73345(10) 0.46689(9) 0.2500
Mg1E Mg 0.26656(5) -0.26655(10) -0.2500
Mg1E_2 Mg 0.26656(5) 0.73345(10) -0.2500
O1_2 O -0.3333 -0.6667 0.2500
O1_3 O -0.3333 0.3333 0.2500
O2F O -0.17870(15) -0.52369(15) 0.31911(12)
O2H O 0.52369(15) 0.34499(21) 0.31911(12)
O2J O -0.34499(21) 0.17870(15) 0.31911(12)
O2M O -0.34499(21) -0.52369(15) 0.31911(12)
O2O O 0.52369(15) 0.17870(15) 0.31911(12)
O2Q O -0.17870(15) 0.34499(21) 0.31911(12)
O2S_2 O -0.34499(21) 0.17870(15) 0.18089(12)
O2U_2 O -0.17870(15) -0.52369(15) 0.18089(12)
O2W_2 O 0.52369(15) 0.34499(21) 0.18089(12)
loop_
_geom_bond_atom_site_label_1
_geom_bond_atom_site_label_2
_geom_bond_site_symmetry_1
_geom_bond_site_symmetry_2
Mg1 O1 1_555 1_555
O1 Mg1B_2 1_555 1_555
O2 Mg1 1_555 1_555
N1 Mg1 1_555 1_555
N2 C4 1_555 1_555
C1 N1 1_555 1_555
H1 C1 1_555 1_555
C2 C1 1_555 1_555
H2 C2 1_555 1_555
C3 C2 1_555 1_555
C4 C3 1_555 1_555
C5 O2 1_555 1_555
C6 C5 1_555 1_555
C7 C8 1_555 1_555
C8 C9 1_555 1_555
C9 C10 1_555 1_555
C10 C11 1_555 1_555
C11 C6 1_555 1_555
O2G C5G 1_555 1_555
C5G C6G 1_555 1_555
C6G C11G 1_555 1_555
C7G C8G 1_555 1_555
C8G C9 1_555 1_555
C10G C9 1_555 1_555
C11G C10G 1_555 1_555
O2L C5G 1_555 1_555
C6L C5G 1_555 1_555
C7L C9 1_555 1_555
C8L C8 1_555 1_555
C9L C7 1_555 1_555
C10L C8 1_555 1_555
C11L C7G 1_555 1_555
O2S C5 1_555 1_555
C6S C5 1_555 1_555
C7S C7 1_555 1_555
C8S C8 1_555 1_555
C10S C7 1_555 1_555
C11S C7 1_555 1_555
N1B C1B 1_555 1_555
N2B C4 1_555 1_555
C1B H1B 1_555 1_555
C2B C1B 1_555 1_555
H2B C2B 1_555 1_555
C3B C2B 1_555 1_555
C4B N2B 1_555 1_555
N1D C1D 1_555 1_555
N2D C4B 1_555 1_555
C1D H1D 1_555 1_555
C2D C1D 1_555 1_555
H2D C2D 1_555 1_555
C3D C2D 1_555 1_555
C4D N2 1_555 1_555
C1F N1D 1_555 1_555
H1F C1F 1_555 1_555
C2F C3D 1_555 1_555
H2F C2F 1_555 1_555
C1H N1 1_555 1_555
H1H C1H 1_555 1_555
C2H C3 1_555 1_555
H2H C2H 1_555 1_555
C1J N1B 1_555 1_555
H1J C1J 1_555 1_555
C2J C3B 1_555 1_555
H2J C2J 1_555 1_555
Mg1B N1B 1_555 1_555
O2B Mg1B 1_555 1_555
C5B O2B 1_555 1_555
C6B C5B 1_555 1_555
C7B C8B 1_555 1_555
C8B C9B 1_555 1_555
C9B C10B 1_555 1_555
C10B C11B 1_555 1_555
C11B C6B 1_555 1_555
O2I C5I 1_555 1_555
C5I C6I 1_555 1_555
C6I C11I 1_555 1_555
C7I C8I 1_555 1_555
C8I C9B 1_555 1_555
C10I C9B 1_555 1_555
C11I C10I 1_555 1_555
O2N C5I 1_555 1_555
C6N C5I 1_555 1_555
C7N C9B 1_555 1_555
C8N C8B 1_555 1_555
C9N C7B 1_555 1_555
C10N C8B 1_555 1_555
C11N C7I 1_555 1_555
O2U C5B 1_555 1_555
C6U C5B 1_555 1_555
C7U C7B 1_555 1_555
C8U C8B 1_555 1_555
C10U C7B 1_555 1_555
C11U C7B 1_555 1_555
Mg1D N1D 1_555 1_555
O2D Mg1D 1_555 1_555
C5D O2D 1_555 1_555
C6D C5D 1_555 1_555
C7D C8D 1_555 1_555
C8D C9D 1_555 1_555
C9D C10D 1_555 1_555
C10D C11D 1_555 1_555
C11D C6D 1_555 1_555
O2K C5K 1_555 1_555
C5K C6K 1_555 1_555
C6K C11K 1_555 1_555
C7K C8K 1_555 1_555
C8K C9D 1_555 1_555
C10K C9D 1_555 1_555
C11K C10K 1_555 1_555
O2P C5K 1_555 1_555
C6P C5K 1_555 1_555
C7P C9D 1_555 1_555
C8P C8D 1_555 1_555
C9P C7D 1_555 1_555
C10P C8D 1_555 1_555
C11P C7K 1_555 1_555
O2W C5D 1_555 1_555
C6W C5D 1_555 1_555
C7W C7D 1_555 1_555
C8W C8D 1_555 1_555
C10W C7D 1_555 1_555
C11W C7D 1_555 1_555
Mg1_2 O2W 1_555 1_555
Mg1A O2P 1_555 1_555
Mg1A_2 O2I 1_555 1_555
Mg1B_2 O2S 1_555 1_555
Mg1C O2K 1_555 1_555
Mg1C_2 O2L 1_555 1_555
Mg1D_2 O2U 1_555 1_555
Mg1D_3 O1 1_555 1_555
Mg1E O2G 1_555 1_555
Mg1E_2 O2N 1_555 1_555
O1_2 Mg1D 1_555 1_555
O1_3 Mg1B 1_555 1_555
O2F Mg1D 1_555 1_555
O2H Mg1 1_555 1_555
O2J Mg1B 1_555 1_555
O2M Mg1D 1_555 1_555
O2O Mg1 1_555 1_555
O2Q Mg1B 1_555 1_555
O2S_2 Mg1B 1_555 1_555
O2U_2 Mg1D 1_555 1_555
O2W_2 Mg1 1_555 1_555
C6 C6S 1_555 1_555
C8 C10S 1_555 1_555
C9 C9L 1_555 1_555
C9 C7S 1_555 1_555
C10 C10G 1_555 1_555
C10 C8L 1_555 1_555
C10 C7S 1_555 1_555
C10 C8S 1_555 1_555
C11 C7S 1_555 1_555
C6G C6L 1_555 1_555
C7G C7L 1_555 1_555
C7G C9L 1_555 1_555
C7G C10L 1_555 1_555
C8G C8L 1_555 1_555
C8G C10L 1_555 1_555
C8G C8S 1_555 1_555
C8G C10S 1_555 1_555
C10G C7L 1_555 1_555
C10G C8L 1_555 1_555
C10G C8S 1_555 1_555
C11G C7L 1_555 1_555
C6L C11L 1_555 1_555
C7L C8L 1_555 1_555
C8L C9L 1_555 1_555
C9L C10L 1_555 1_555
C9L C8S 1_555 1_555
C9L C10S 1_555 1_555
C10L C11L 1_555 1_555
C10L C10S 1_555 1_555
C6S C11S 1_555 1_555
C7S C8S 1_555 1_555
C10S C11S 1_555 1_555
C3B C4B 1_555 1_555
N2D C4D 1_555 1_555
C3D C4D 1_555 1_555
C1F C2F 1_555 1_555
C1H C2H 1_555 1_555
C1J C2J 1_555 1_555
C6B C6U 1_555 1_555
C8B C10U 1_555 1_555
C9B C9N 1_555 1_555
C9B C7U 1_555 1_555
C10B C10I 1_555 1_555
C10B C8N 1_555 1_555
C10B C7U 1_555 1_555
C10B C8U 1_555 1_555
C11B C7U 1_555 1_555
C6I C6N 1_555 1_555
C7I C7N 1_555 1_555
C7I C9N 1_555 1_555
C7I C10N 1_555 1_555
C8I C8N 1_555 1_555
C8I C10N 1_555 1_555
C8I C8U 1_555 1_555
C8I C10U 1_555 1_555
C10I C7N 1_555 1_555
C10I C8N 1_555 1_555
C10I C8U 1_555 1_555
C11I C7N 1_555 1_555
C6N C11N 1_555 1_555
C7N C8N 1_555 1_555
C8N C9N 1_555 1_555
C9N C10N 1_555 1_555
C9N C8U 1_555 1_555
C9N C10U 1_555 1_555
C10N C11N 1_555 1_555
C10N C10U 1_555 1_555
C6U C11U 1_555 1_555
C7U C8U 1_555 1_555
C10U C11U 1_555 1_555
C6D C6W 1_555 1_555
C8D C10W 1_555 1_555
C9D C9P 1_555 1_555
C9D C7W 1_555 1_555
C10D C10K 1_555 1_555
C10D C8P 1_555 1_555
C10D C7W 1_555 1_555
C10D C8W 1_555 1_555
C11D C7W 1_555 1_555
C6K C6P 1_555 1_555
C7K C7P 1_555 1_555
C7K C9P 1_555 1_555
C7K C10P 1_555 1_555
C8K C8P 1_555 1_555
C8K C10P 1_555 1_555
C8K C8W 1_555 1_555
C8K C10W 1_555 1_555
C10K C7P 1_555 1_555
C10K C8P 1_555 1_555
C10K C8W 1_555 1_555
C11K C7P 1_555 1_555
C6P C11P 1_555 1_555
C7P C8P 1_555 1_555
C8P C9P 1_555 1_555
C9P C10P 1_555 1_555
C9P C8W 1_555 1_555
C9P C10W 1_555 1_555
C10P C11P 1_555 1_555
C10P C10W 1_555 1_555
C6W C11W 1_555 1_555
C7W C8W 1_555 1_555
C10W C11W 1_555 1_555
Mg1_2 O1_2 1_555 1_555
Mg1D_2 O1_3 1_555 1_555

#END
