
#######################################################################
#
#                 Cambridge Crystallographic Data Centre
#                                CCDC 
#
#######################################################################
#
# If this CIF has been generated from an entry in the Cambridge 
# Structural Database, then it will include bibliographic, chemical, 
# crystal, experimental, refinement or atomic coordinate data resulting 
# from the CCDC's data processing and validation procedures.
#
#######################################################################

data_DAFYAN
_chemical_formula_moiety         'C24 H12 Mg9 O34'
_symmetry_cell_setting           hexagonal
_symmetry_space_group_name_H-M   'P 63/m m c'
_symmetry_Int_Tables_number      194
_space_group_name_Hall           '-P 6c 2c'
loop_
_symmetry_equiv_pos_site_id
_symmetry_equiv_pos_as_xyz
1 x,y,z
2 x-y,x,1/2+z
3 -y,x-y,z
4 -x,-y,1/2+z
5 -x+y,-x,z
6 y,-x+y,1/2+z
7 -y,-x,1/2-z
8 x-y,-y,-z
9 x,x-y,1/2-z
10 y,x,-z
11 -x+y,y,1/2-z
12 -x,-x+y,-z
13 -x,-y,-z
14 -x+y,-x,1/2-z
15 y,-x+y,-z
16 x,y,1/2-z
17 x-y,x,-z
18 -y,x-y,1/2-z
19 y,x,1/2+z
20 -x+y,y,z
21 -x,-x+y,1/2+z
22 -y,-x,z
23 x-y,-y,1/2+z
24 x,x-y,z
_cell_length_a                   15.9423(3)
_cell_length_b                   15.9423(3)
_cell_length_c                   16.0411(7)
_cell_angle_alpha                90
_cell_angle_beta                 90
_cell_angle_gamma                120
_cell_volume                     3530.75
loop_
_atom_site_label
_atom_site_type_symbol
_atom_site_fract_x
_atom_site_fract_y
_atom_site_fract_z
Mg1 Mg 0.26182(5) 0.52365(9) 0.2500
O1 O 0.3333 0.6667 0.2500
O2 O 0.18536(17) 0.3707(3) 0.2500
O3 O 0.16989(13) 0.51547(13) 0.34002(11)
O4 O 0.0546(4) 0.3756(3) 0.4365(3)
H1 H 0.0948 0.4007 0.3993
C1 C 0.0335(2) 0.4413(2) 0.46813(18)
C2 C 0.0692(3) 0.53462(14) 0.4355(2)
C3 C 0.1411(3) 0.57055(13) 0.3675(2)
O3K O -0.16989(13) 0.34558(18) 0.65998(11)
O4K O -0.0546(4) 0.3210(5) 0.5635(3)
H1K H -0.0948 0.3059 0.6007
C1K C -0.0335(2) 0.4078(3) 0.53187(18)
C2K C -0.0692(3) 0.46542(33) 0.5645(2)
C3K C -0.1411(3) 0.42945(33) 0.6325(2)
O3L O -0.16989(13) 0.48453(13) 0.65998(11)
O4L O -0.0546(4) 0.6244(3) 0.5635(3)
H1L H -0.0948 0.5993 0.6007
C1L C -0.0335(2) 0.5587(2) 0.53187(18)
O3W O 0.16989(13) 0.65442(18) 0.34002(11)
O4W O 0.0546(4) 0.6790(5) 0.4365(3)
H1W H 0.0948 0.6941 0.3993
C1W C 0.0335(2) 0.5922(3) 0.46813(18)
Mg1B Mg 0.47635(9) 0.73817(10) 0.2500
O2B O 0.6293(3) 0.81466(34) 0.2500
O3B O 0.48453(13) 0.65442(18) 0.34002(11)
O4B O 0.6244(3) 0.6790(5) 0.4365(3)
H1B H 0.5993 0.6941 0.3993
C1B C 0.5587(2) 0.5922(3) 0.46813(18)
C2B C 0.46538(14) 0.53458(33) 0.4355(2)
C3B C 0.42945(13) 0.57055(33) 0.3675(2)
O3G O 0.65442(18) 0.48453(13) 0.65998(11)
O4G O 0.6790(5) 0.6244(3) 0.5635(3)
H1G H 0.6941 0.5993 0.6007
C1G C 0.5922(3) 0.5587(2) 0.53187(18)
C2G C 0.53458(33) 0.46538(14) 0.5645(2)
C3G C 0.57055(33) 0.42945(13) 0.6325(2)
O3N O 0.51547(13) 0.34558(18) 0.65998(11)
O4N O 0.3756(3) 0.3210(5) 0.5635(3)
H1N H 0.4007 0.3059 0.6007
C1N C 0.4413(2) 0.4078(3) 0.53187(18)
O3S O 0.34558(18) 0.51547(13) 0.34002(11)
O4S O 0.3210(5) 0.3756(3) 0.4365(3)
H1S H 0.3059 0.4007 0.3993
C1S C 0.4078(3) 0.4413(2) 0.46813(18)
Mg1D Mg 0.26183(10) 0.73818(5) 0.2500
O2D O 0.18534(34) 0.81464(17) 0.2500
O3D O 0.34558(18) 0.83011(13) 0.34002(11)
O4D O 0.3210(5) 0.9454(4) 0.4365(3)
H1D H 0.3059 0.9052 0.3993
C1D C 0.4078(3) 0.9665(2) 0.46813(18)
C2D C 0.46542(33) 0.9308(3) 0.4355(2)
C3D C 0.42945(33) 0.8589(3) 0.3675(2)
O3I O 0.51547(13) 1.16989(13) 0.65998(11)
O4I O 0.3756(3) 1.0546(4) 0.5635(3)
H1I H 0.4007 1.0948 0.6007
C1I C 0.4413(2) 1.0335(2) 0.53187(18)
C2I C 0.53462(14) 1.0692(3) 0.5645(2)
C3I C 0.57055(13) 1.1411(3) 0.6325(2)
O3P O 0.65442(18) 1.16989(13) 0.65998(11)
O4P O 0.6790(5) 1.0546(4) 0.5635(3)
H1P H 0.6941 1.0948 0.6007
C1P C 0.5922(3) 1.0335(2) 0.53187(18)
O3U O 0.48453(13) 0.83011(13) 0.34002(11)
O4U O 0.6244(3) 0.9454(4) 0.4365(3)
H1U H 0.5993 0.9052 0.3993
C1U C 0.5587(2) 0.9665(2) 0.46813(18)
Mg1A Mg -0.26183(10) 0.26182(5) 0.7500
Mg1A_2 Mg 0.73817(10) 1.26182(5) 0.7500
Mg1C Mg -0.26182(5) 0.47635(9) 0.7500
Mg1C_2 Mg 0.73818(5) 0.47635(9) 0.7500
Mg1E Mg 0.52365(9) 0.26183(10) 0.7500
Mg1E_2 Mg 0.52365(9) 1.26183(10) 0.7500
O3F O 0.48453(13) 0.83011(13) 0.15998(11)
O3H O 0.16989(13) 0.65442(18) 0.15998(11)
O3J O 0.34558(18) 0.51547(13) 0.15998(11)
O3M O 0.34558(18) 0.83011(13) 0.15998(11)
O3O O 0.16989(13) 0.51547(13) 0.15998(11)
O3Q O 0.48453(13) 0.65442(18) 0.15998(11)
loop_
_geom_bond_atom_site_label_1
_geom_bond_atom_site_label_2
_geom_bond_site_symmetry_1
_geom_bond_site_symmetry_2
Mg1 O1 1_555 1_555
O1 Mg1B 1_555 1_555
O2 Mg1 1_555 1_555
O3 Mg1 1_555 1_555
O4 H1 1_555 1_555
C1 O4 1_555 1_555
C2 C1 1_555 1_555
C3 O3 1_555 1_555
O3K C3K 1_555 1_555
O4K H1K 1_555 1_555
C1K C1 1_555 1_555
C2K C1K 1_555 1_555
C3K C2K 1_555 1_555
O3L C3K 1_555 1_555
O4L H1L 1_555 1_555
C1L C2K 1_555 1_555
O3W C3 1_555 1_555
O4W H1W 1_555 1_555
C1W C2 1_555 1_555
Mg1B O2B 1_555 1_555
O3B Mg1B 1_555 1_555
O4B H1B 1_555 1_555
C1B O4B 1_555 1_555
C2B C1B 1_555 1_555
C3B O3B 1_555 1_555
O3G C3G 1_555 1_555
O4G H1G 1_555 1_555
C1G C1B 1_555 1_555
C2G C1G 1_555 1_555
C3G C2G 1_555 1_555
O3N C3G 1_555 1_555
O4N H1N 1_555 1_555
C1N C2G 1_555 1_555
O3S Mg1 1_555 1_555
O4S H1S 1_555 1_555
C1S C2B 1_555 1_555
Mg1D O1 1_555 1_555
O2D Mg1D 1_555 1_555
O3D Mg1D 1_555 1_555
O4D H1D 1_555 1_555
C1D O4D 1_555 1_555
C2D C1D 1_555 1_555
C3D O3D 1_555 1_555
O3I C3I 1_555 1_555
O4I H1I 1_555 1_555
C1I C1D 1_555 1_555
C2I C1I 1_555 1_555
C3I C2I 1_555 1_555
O3P C3I 1_555 1_555
O4P H1P 1_555 1_555
C1P C2I 1_555 1_555
O3U Mg1B 1_555 1_555
O4U H1U 1_555 1_555
C1U C2D 1_555 1_555
Mg1A O3K 1_555 1_555
Mg1A_2 O3P 1_555 1_555
Mg1C O3L 1_555 1_555
Mg1C_2 O3G 1_555 1_555
Mg1E O3N 1_555 1_555
Mg1E_2 O3I 1_555 1_555
O3F Mg1B 1_555 1_555
O3H Mg1D 1_555 1_555
O3J Mg1 1_555 1_555
O3M Mg1D 1_555 1_555
O3O Mg1 1_555 1_555
O3Q Mg1B 1_555 1_555
C2 C3 1_555 1_555
O4K C1K 1_555 1_555
O4L C1L 1_555 1_555
C1L C1W 1_555 1_555
O3W Mg1D 1_555 1_555
O4W C1W 1_555 1_555
C2B C3B 1_555 1_555
C3B O3S 1_555 1_555
O4G C1G 1_555 1_555
O4N C1N 1_555 1_555
C1N C1S 1_555 1_555
O4S C1S 1_555 1_555
C2D C3D 1_555 1_555
C3D O3U 1_555 1_555
O4I C1I 1_555 1_555
O4P C1P 1_555 1_555
C1P C1U 1_555 1_555
O4U C1U 1_555 1_555

#END
