
#######################################################################
#
#                 Cambridge Crystallographic Data Centre
#                                CCDC 
#
#######################################################################
#
# If this CIF has been generated from an entry in the Cambridge 
# Structural Database, then it will include bibliographic, chemical, 
# crystal, experimental, refinement or atomic coordinate data resulting 
# from the CCDC's data processing and validation procedures.
#
#######################################################################

data_DAFYUH
_chemical_formula_moiety         'C42 H24 Mg13 N6 O36'
_symmetry_cell_setting           hexagonal
_symmetry_space_group_name_H-M   'P 63/m m c'
_symmetry_Int_Tables_number      194
_space_group_name_Hall           '-P 6c 2c'
loop_
_symmetry_equiv_pos_site_id
_symmetry_equiv_pos_as_xyz
1 x,y,z
2 x-y,x,1/2+z
3 -y,x-y,z
4 -x,-y,1/2+z
5 -x+y,-x,z
6 y,-x+y,1/2+z
7 -y,-x,1/2-z
8 x-y,-y,-z
9 x,x-y,1/2-z
10 y,x,-z
11 -x+y,y,1/2-z
12 -x,-x+y,-z
13 -x,-y,-z
14 -x+y,-x,1/2-z
15 y,-x+y,-z
16 x,y,1/2-z
17 x-y,x,-z
18 -y,x-y,1/2-z
19 y,x,1/2+z
20 -x+y,y,z
21 -x,-x+y,1/2+z
22 -y,-x,z
23 x-y,-y,1/2+z
24 x,x-y,z
_cell_length_a                   16.9886(16)
_cell_length_b                   16.9886(16)
_cell_length_c                   15.108(3)
_cell_angle_alpha                90
_cell_angle_beta                 90
_cell_angle_gamma                120
_cell_volume                     3776.18
loop_
_atom_site_label
_atom_site_type_symbol
_atom_site_fract_x
_atom_site_fract_y
_atom_site_fract_z
Mg1 Mg 0.26567(4) 0.53134(8) 0.2500
C1 C 0.42690(9) 0.57310(9) 0.12922(17)
C2 C 0.46476(10) 0.53524(10) 0.06216(19)
C3 C 0.41245(16) 0.44717(16) 0.03143(18)
C4 C 0.0991(2) 0.3311(2) 0.2500
H1 H 0.0674 0.3626 0.2500
C5 C 0.0493(2) 0.2378(2) 0.2500
H2 H -0.0139 0.2078 0.2500
C6 C 0.09468(15) 0.1894(3) 0.2500
C7 C 0.04410(15) 0.0882(3) 0.2500
N1 N 0.18991(11) 0.3798(2) 0.2500
N2 N -0.04659(12) 0.04659(12) 0.2500
O1 O 0.3333 0.6667 0.2500
O2 O 0.34693(10) 0.52203(9) 0.15433(9)
O3 O 0.3240(5) 0.3963(5) 0.0481(5)
H3 H 0.3088 0.4222 0.0844
C1I C 0.57310(9) 0.42690(9) -0.12922(17)
C2I C 0.53524(10) 0.46476(10) -0.06216(19)
C3I C 0.44717(16) 0.41245(16) -0.03143(18)
O2I O 0.52203(9) 0.34693(10) -0.15433(9)
O3I O 0.3963(5) 0.3240(5) -0.0481(5)
H3I H 0.4222 0.3088 -0.0844
C3L C 0.58755(16) 0.55283(16) -0.03143(18)
O2L O 0.65307(10) 0.47797(9) -0.15433(9)
O3L O 0.6760(5) 0.6037(5) -0.0481(5)
H3L H 0.6912 0.5778 -0.0844
C3U C 0.55283(16) 0.58755(16) 0.03143(18)
O2U O 0.47797(9) 0.65307(10) 0.15433(9)
O3U O 0.6037(5) 0.6760(5) 0.0481(5)
H3U H 0.5778 0.6912 0.0844
C4B C -0.3311(2) -0.2320(3) 0.2500
H1B H -0.3626 -0.2952 0.2500
C5B C -0.2378(2) -0.1885(3) 0.2500
H2B H -0.2078 -0.2217 0.2500
C6B C -0.1894(3) -0.09472(34) 0.2500
C7B C -0.0882(3) -0.04410(34) 0.2500
N1B N -0.3798(2) -0.18989(23) 0.2500
N2B N -0.04659(12) -0.09318(17) 0.2500
C4D C 0.2320(3) -0.0991(2) 0.2500
H1D H 0.2952 -0.0674 0.2500
C5D C 0.1885(3) -0.0493(2) 0.2500
H2D H 0.2217 0.0139 0.2500
C6D C 0.09472(34) -0.09468(15) 0.2500
C7D C 0.04410(34) -0.04410(15) 0.2500
N1D N 0.18989(23) -0.18991(11) 0.2500
N2D N 0.09318(17) 0.04659(12) 0.2500
C4F C -0.3311(2) -0.0991(2) 0.2500
H1F H -0.3626 -0.0674 0.2500
C5F C -0.2378(2) -0.0493(2) 0.2500
H2F H -0.2078 0.0139 0.2500
C4H C 0.0991(2) -0.2320(3) 0.2500
H1H H 0.0674 -0.2952 0.2500
C5H C 0.0493(2) -0.1885(3) 0.2500
H2H H -0.0139 -0.2217 0.2500
C4J C 0.2320(3) 0.3311(2) 0.2500
H1J H 0.2952 0.3626 0.2500
C5J C 0.1885(3) 0.2378(2) 0.2500
H2J H 0.2217 0.2078 0.2500
Mg1B Mg -0.53134(8) -0.26567(9) 0.2500
C1B C -0.57310(9) -0.14620(13) 0.12922(17)
C2B C -0.53524(10) -0.07048(14) 0.06216(19)
C3B C -0.44717(16) -0.03472(23) 0.03143(18)
O2B O -0.52203(9) -0.17510(13) 0.15433(9)
O3B O -0.3963(5) -0.0723(7) 0.0481(5)
H3B H -0.4222 -0.1134 0.0844
C1K C -0.42690(9) 0.14620(13) -0.12922(17)
C2K C -0.46476(10) 0.07048(14) -0.06216(19)
C3K C -0.41245(16) 0.03472(23) -0.03143(18)
O2K O -0.34693(10) 0.17510(13) -0.15433(9)
O3K O -0.3240(5) 0.0723(7) -0.0481(5)
H3K H -0.3088 0.1134 -0.0844
C3N C -0.55283(16) 0.03472(23) -0.03143(18)
O2N O -0.47797(9) 0.17510(13) -0.15433(9)
O3N O -0.6037(5) 0.0723(7) -0.0481(5)
H3N H -0.5778 0.1134 -0.0844
C3W C -0.58755(16) -0.03472(23) 0.03143(18)
O2W O -0.65307(10) -0.17510(13) 0.15433(9)
O3W O -0.6760(5) -0.0723(7) 0.0481(5)
H3W H -0.6912 -0.1134 0.0844
Mg1D Mg 0.26567(9) -0.26567(4) 0.2500
C1D C 0.14620(13) -0.42690(9) 0.12922(17)
C2D C 0.07048(14) -0.46476(10) 0.06216(19)
C3D C 0.03472(23) -0.41245(16) 0.03143(18)
O2D O 0.17510(13) -0.34693(10) 0.15433(9)
O3D O 0.0723(7) -0.3240(5) 0.0481(5)
H3D H 0.1134 -0.3088 0.0844
C1G C -0.14620(13) -0.57310(9) -0.12922(17)
C2G C -0.07048(14) -0.53524(10) -0.06216(19)
C3G C -0.03472(23) -0.44717(16) -0.03143(18)
O2G O -0.17510(13) -0.52203(9) -0.15433(9)
O3G O -0.0723(7) -0.3963(5) -0.0481(5)
H3G H -0.1134 -0.4222 -0.0844
C3P C -0.03472(23) -0.58755(16) -0.03143(18)
O2P O -0.17510(13) -0.65307(10) -0.15433(9)
O3P O -0.0723(7) -0.6760(5) -0.0481(5)
H3P H -0.1134 -0.6912 -0.0844
C3S C 0.03472(23) -0.55283(16) 0.03143(18)
O2S O 0.17510(13) -0.47797(9) 0.15433(9)
O3S O 0.0723(7) -0.6037(5) 0.0481(5)
H3S H 0.1134 -0.5778 0.0844
Mg1_2 Mg 0.26567(4) -0.46866(8) 0.2500
Mg1A Mg -0.26567(9) -0.73433(4) -0.2500
Mg1A_2 Mg -0.26567(9) 0.26567(4) -0.2500
Mg1B_2 Mg 0.46866(8) 0.73433(9) 0.2500
Mg1C Mg -0.26567(4) -0.53134(8) -0.2500
Mg1C_2 Mg 0.73433(4) 0.46866(8) -0.2500
Mg1D_2 Mg -0.73433(9) -0.26567(4) 0.2500
Mg1D_3 Mg 0.26567(9) 0.73433(4) 0.2500
Mg1E Mg -0.46866(8) 0.26567(9) -0.2500
Mg1E_2 Mg 0.53134(8) 0.26567(9) -0.2500
O1_2 O -0.6667 -0.3333 0.2500
O1_3 O 0.3333 -0.3333 0.2500
O2F O -0.52203(9) -0.34693(10) 0.34567(9)
O2H O 0.34693(10) -0.17510(13) 0.34567(9)
O2J O 0.17510(13) 0.52203(9) 0.34567(9)
O2M O 0.17510(13) -0.34693(10) 0.34567(9)
O2O O 0.34693(10) 0.52203(9) 0.34567(9)
O2Q O -0.52203(9) -0.17510(13) 0.34567(9)
O2S_2 O 0.17510(13) 0.52203(9) 0.15433(9)
O2U_2 O -0.52203(9) -0.34693(10) 0.15433(9)
O2W_2 O 0.34693(10) -0.17510(13) 0.15433(9)
loop_
_geom_bond_atom_site_label_1
_geom_bond_atom_site_label_2
_geom_bond_site_symmetry_1
_geom_bond_site_symmetry_2
Mg1 N1 1_555 1_555
C1 C2 1_555 1_555
C2 C3 1_555 1_555
C3 O3 1_555 1_555
C4 H1 1_555 1_555
C5 C4 1_555 1_555
H2 C5 1_555 1_555
C6 C5 1_555 1_555
C7 C6 1_555 1_555
N1 C4 1_555 1_555
N2 C7 1_555 1_555
O1 Mg1 1_555 1_555
O2 Mg1 1_555 1_555
O3 H3 1_555 1_555
C1I C2I 1_555 1_555
C2I C3I 1_555 1_555
C3I C3 1_555 1_555
O2I C1I 1_555 1_555
O3I C3I 1_555 1_555
H3I O3I 1_555 1_555
C3L C2I 1_555 1_555
O2L C1I 1_555 1_555
O3L C3L 1_555 1_555
H3L O3L 1_555 1_555
C3U C2 1_555 1_555
O2U C1 1_555 1_555
O3U C3U 1_555 1_555
H3U O3U 1_555 1_555
C4B H1B 1_555 1_555
C5B C4B 1_555 1_555
H2B C5B 1_555 1_555
C6B C5B 1_555 1_555
C7B N2 1_555 1_555
N1B C4B 1_555 1_555
N2B C7B 1_555 1_555
C4D H1D 1_555 1_555
C5D C4D 1_555 1_555
H2D C5D 1_555 1_555
C6D C5D 1_555 1_555
C7D N2B 1_555 1_555
N1D C4D 1_555 1_555
N2D C7 1_555 1_555
C4F N1B 1_555 1_555
H1F C4F 1_555 1_555
C5F C6B 1_555 1_555
H2F C5F 1_555 1_555
C4H N1D 1_555 1_555
H1H C4H 1_555 1_555
C5H C6D 1_555 1_555
H2H C5H 1_555 1_555
C4J N1 1_555 1_555
H1J C4J 1_555 1_555
C5J C6 1_555 1_555
H2J C5J 1_555 1_555
Mg1B N1B 1_555 1_555
C1B C2B 1_555 1_555
C2B C3B 1_555 1_555
C3B O3B 1_555 1_555
O2B Mg1B 1_555 1_555
O3B H3B 1_555 1_555
C1K C2K 1_555 1_555
C2K C3K 1_555 1_555
C3K C3B 1_555 1_555
O2K C1K 1_555 1_555
O3K C3K 1_555 1_555
H3K O3K 1_555 1_555
C3N C2K 1_555 1_555
O2N C1K 1_555 1_555
O3N C3N 1_555 1_555
H3N O3N 1_555 1_555
C3W C2B 1_555 1_555
O2W C1B 1_555 1_555
O3W C3W 1_555 1_555
H3W O3W 1_555 1_555
Mg1D N1D 1_555 1_555
C1D C2D 1_555 1_555
C2D C3D 1_555 1_555
C3D O3D 1_555 1_555
O2D Mg1D 1_555 1_555
O3D H3D 1_555 1_555
C1G C2G 1_555 1_555
C2G C3G 1_555 1_555
C3G C3D 1_555 1_555
O2G C1G 1_555 1_555
O3G C3G 1_555 1_555
H3G O3G 1_555 1_555
C3P C2G 1_555 1_555
O2P C1G 1_555 1_555
O3P C3P 1_555 1_555
H3P O3P 1_555 1_555
C3S C2D 1_555 1_555
O2S C1D 1_555 1_555
O3S C3S 1_555 1_555
H3S O3S 1_555 1_555
Mg1_2 O2S 1_555 1_555
Mg1A O2P 1_555 1_555
Mg1A_2 O2K 1_555 1_555
Mg1B_2 O1 1_555 1_555
Mg1C O2G 1_555 1_555
Mg1C_2 O2L 1_555 1_555
Mg1D_2 O2W 1_555 1_555
Mg1D_3 O1 1_555 1_555
Mg1E O2N 1_555 1_555
Mg1E_2 O2I 1_555 1_555
O1_2 Mg1B 1_555 1_555
O1_3 Mg1D 1_555 1_555
O2F Mg1B 1_555 1_555
O2H Mg1D 1_555 1_555
O2J Mg1 1_555 1_555
O2M Mg1D 1_555 1_555
O2O Mg1 1_555 1_555
O2Q Mg1B 1_555 1_555
O2S_2 Mg1 1_555 1_555
O2U_2 Mg1B 1_555 1_555
O2W_2 Mg1D 1_555 1_555
C1 O2 1_555 1_555
C3L C3U 1_555 1_555
O2U Mg1B_2 1_555 1_555
C6B C7B 1_555 1_555
C6D C7D 1_555 1_555
C7D N2D 1_555 1_555
C4F C5F 1_555 1_555
C4H C5H 1_555 1_555
C4J C5J 1_555 1_555
C1B O2B 1_555 1_555
C3N C3W 1_555 1_555
C1D O2D 1_555 1_555
C3P C3S 1_555 1_555
Mg1_2 O1_3 1_555 1_555
Mg1D_2 O1_2 1_555 1_555

#END
