
#######################################################################
#
#                 Cambridge Crystallographic Data Centre
#                                CCDC 
#
#######################################################################
#
# If this CIF has been generated from an entry in the Cambridge 
# Structural Database, then it will include bibliographic, chemical, 
# crystal, experimental, refinement or atomic coordinate data resulting 
# from the CCDC's data processing and validation procedures.
#
#######################################################################

data_DAFYIV
_chemical_formula_moiety         'C42 H24 Mg12 N7 O34'
_symmetry_cell_setting           hexagonal
_symmetry_space_group_name_H-M   'P 63/m m c'
_symmetry_Int_Tables_number      194
_space_group_name_Hall           '-P 6c 2c'
loop_
_symmetry_equiv_pos_site_id
_symmetry_equiv_pos_as_xyz
1 x,y,z
2 x-y,x,1/2+z
3 -y,x-y,z
4 -x,-y,1/2+z
5 -x+y,-x,z
6 y,-x+y,1/2+z
7 -y,-x,1/2-z
8 x-y,-y,-z
9 x,x-y,1/2-z
10 y,x,-z
11 -x+y,y,1/2-z
12 -x,-x+y,-z
13 -x,-y,-z
14 -x+y,-x,1/2-z
15 y,-x+y,-z
16 x,y,1/2-z
17 x-y,x,-z
18 -y,x-y,1/2-z
19 y,x,1/2+z
20 -x+y,y,z
21 -x,-x+y,1/2+z
22 -y,-x,z
23 x-y,-y,1/2+z
24 x,x-y,z
_cell_length_a                   16.9671(5)
_cell_length_b                   16.9671(5)
_cell_length_c                   15.3079(10)
_cell_angle_alpha                90
_cell_angle_beta                 90
_cell_angle_gamma                120
_cell_volume                     3816.47
loop_
_atom_site_label
_atom_site_type_symbol
_atom_site_fract_x
_atom_site_fract_y
_atom_site_fract_z
Mg1 Mg 0.26517(3) 0.53035(6) 0.2500
O1 O 0.3333 0.6667 0.2500
O2 O 0.17399(7) 0.52122(7) 0.15454(7)
O3 O 0.0742(2) 0.39494(17) 0.04635(19)
H1 H 0.1143 0.4200 0.0832
C1 C 0.23309(17) 0.33160(16) 0.2500
H2 H 0.2964 0.3634 0.2500
C2 C 0.18916(18) 0.23792(17) 0.2500
H3 H 0.2221 0.2076 0.2500
C3 C 0.09483(11) 0.1897(2) 0.2500
C4 C 0.04438(12) 0.0888(2) 0.2500
C5 C 0.03453(12) 0.44673(11) 0.03092(12)
C6 C 0.07004(14) 0.53502(7) 0.06203(13)
C7 C 0.14519(14) 0.57259(7) 0.12858(12)
N1 N 0.18974(8) 0.37948(16) 0.2500
N2 N 0.09266(19) 0.04633(10) 0.2500
O2K O -0.17399(7) 0.34723(10) -0.15454(7)
O3K O -0.0742(2) 0.32074(26) -0.04635(19)
H1K H -0.1143 0.3057 -0.0832
C5K C -0.03453(12) 0.41220(16) -0.03092(12)
C6K C -0.07004(14) 0.46498(16) -0.06203(13)
C7K C -0.14519(14) 0.42740(16) -0.12858(12)
O2L O -0.17399(7) 0.47878(7) -0.15454(7)
O3L O -0.0742(2) 0.60506(17) -0.04635(19)
H1L H -0.1143 0.5800 -0.0832
C5L C -0.03453(12) 0.55327(11) -0.03092(12)
O2W O 0.17399(7) 0.65277(10) 0.15454(7)
O3W O 0.0742(2) 0.67926(26) 0.04635(19)
H1W H 0.1143 0.6943 0.0832
C5W C 0.03453(12) 0.58780(16) 0.03092(12)
C1B C -0.33160(16) -0.09851(23) 0.2500
H2B H -0.3634 -0.0670 0.2500
C2B C -0.23792(17) -0.04876(25) 0.2500
H3B H -0.2076 0.0145 0.2500
C3B C -0.1897(2) -0.09487(23) 0.2500
C4B C -0.0888(2) -0.04442(23) 0.2500
N1B N -0.37948(16) -0.18974(18) 0.2500
N2B N -0.04633(10) 0.04633(21) 0.2500
C1D C 0.09851(23) -0.23309(17) 0.2500
H2D H 0.0670 -0.2964 0.2500
C2D C 0.04876(25) -0.18916(18) 0.2500
H3D H -0.0145 -0.2221 0.2500
C3D C 0.09487(23) -0.09483(11) 0.2500
C4D C 0.04442(23) -0.04438(12) 0.2500
N1D N 0.18974(18) -0.18974(8) 0.2500
N2D N -0.04633(21) -0.09266(19) 0.2500
C1H C 0.23309(17) -0.09851(23) 0.2500
H2H H 0.2964 -0.0670 0.2500
C2H C 0.18916(18) -0.04876(25) 0.2500
H3H H 0.2221 0.0145 0.2500
C1J C 0.09851(23) 0.33160(16) 0.2500
H2J H 0.0670 0.3634 0.2500
C2J C 0.04876(25) 0.23792(17) 0.2500
H3J H -0.0145 0.2076 0.2500
C1F C -0.33160(16) -0.23309(17) 0.2500
H2F H -0.3634 -0.2964 0.2500
C2F C -0.23792(17) -0.18916(18) 0.2500
H3F H -0.2076 -0.2221 0.2500
Mg1B Mg -0.53035(6) -0.26518(7) 0.2500
O2B O -0.52122(7) -0.34723(10) 0.15454(7)
O3B O -0.39494(17) -0.32074(26) 0.04635(19)
H1B H -0.4200 -0.3057 0.0832
C5B C -0.44673(11) -0.41220(16) 0.03092(12)
C6B C -0.53502(7) -0.46498(16) 0.06203(13)
C7B C -0.57259(7) -0.42740(16) 0.12858(12)
O2G O -0.34723(10) -0.52122(7) -0.15454(7)
O3G O -0.32074(26) -0.39494(17) -0.04635(19)
H1G H -0.3057 -0.4200 -0.0832
C5G C -0.41220(16) -0.44673(11) -0.03092(12)
C6G C -0.46498(16) -0.53502(7) -0.06203(13)
C7G C -0.42740(16) -0.57259(7) -0.12858(12)
O2N O -0.47878(7) -0.65277(10) -0.15454(7)
O3N O -0.60506(17) -0.67926(26) -0.04635(19)
H1N H -0.5800 -0.6943 -0.0832
C5N C -0.55327(11) -0.58780(16) -0.03092(12)
O2S O -0.65277(10) -0.47878(7) 0.15454(7)
O3S O -0.67926(26) -0.60506(17) 0.04635(19)
H1S H -0.6943 -0.5800 0.0832
C5S C -0.58780(16) -0.55327(11) 0.03092(12)
Mg1D Mg -0.73482(7) -0.26517(3) 0.2500
O2D O -0.65277(10) -0.17399(7) 0.15454(7)
O3D O -0.67926(26) -0.0742(2) 0.04635(19)
H1D H -0.6943 -0.1143 0.0832
C5D C -0.58780(16) -0.03453(12) 0.03092(12)
C6D C -0.53502(16) -0.07004(14) 0.06203(13)
C7D C -0.57260(16) -0.14519(14) 0.12858(12)
O2I O -0.47878(7) 0.17399(7) -0.15454(7)
O3I O -0.60506(17) 0.0742(2) -0.04635(19)
H1I H -0.5800 0.1143 -0.0832
C5I C -0.55327(11) 0.03453(12) -0.03092(12)
C6I C -0.46498(7) 0.07004(14) -0.06203(13)
C7I C -0.42741(7) 0.14519(14) -0.12858(12)
O2P O -0.34723(10) 0.17399(7) -0.15454(7)
O3P O -0.32074(26) 0.0742(2) -0.04635(19)
H1P H -0.3057 0.1143 -0.0832
C5P C -0.41220(16) 0.03453(12) -0.03092(12)
O2U O -0.52122(7) -0.17399(7) 0.15454(7)
O3U O -0.39494(17) -0.0742(2) 0.04635(19)
H1U H -0.4200 -0.1143 0.0832
C5U C -0.44673(11) -0.03453(12) 0.03092(12)
Mg1_2 Mg -0.73483(3) -0.46965(6) 0.2500
Mg1A Mg -0.26518(7) 0.26517(3) -0.2500
Mg1B_2 Mg 0.46965(6) 0.73482(7) 0.2500
Mg1C Mg -0.26517(3) -0.53035(6) -0.2500
Mg1C_2 Mg -0.26517(3) 0.46965(6) -0.2500
Mg1D_2 Mg 0.26518(7) -0.26517(3) 0.2500
Mg1D_3 Mg 0.26518(7) 0.73483(3) 0.2500
Mg1E Mg -0.46965(6) -0.73482(7) -0.2500
Mg1E_2 Mg -0.46965(6) 0.26518(7) -0.2500
O1_2 O -0.6667 -0.3333 0.2500
O2F O -0.52122(7) -0.17399(7) 0.34546(7)
O2H O -0.82601(7) -0.34723(10) 0.34546(7)
O2J O 0.34723(10) 0.52122(7) 0.34546(7)
O2M O -0.65277(10) -0.17399(7) 0.34546(7)
O2O O 0.17399(7) 0.52122(7) 0.34546(7)
O2Q O -0.52122(7) -0.34723(10) 0.34546(7)
O2S_2 O 0.34723(10) 0.52122(7) 0.15454(7)
O2W_2 O -0.82601(7) -0.34723(10) 0.15454(7)
N1D_2 N -0.81026(18) -0.18974(8) 0.2500
loop_
_geom_bond_atom_site_label_1
_geom_bond_atom_site_label_2
_geom_bond_site_symmetry_1
_geom_bond_site_symmetry_2
Mg1 O1 1_555 1_555
O1 Mg1B_2 1_555 1_555
O2 Mg1 1_555 1_555
O3 H1 1_555 1_555
C1 H2 1_555 1_555
C2 C1 1_555 1_555
H3 C2 1_555 1_555
C3 C2 1_555 1_555
C4 C3 1_555 1_555
C5 O3 1_555 1_555
C6 C5 1_555 1_555
C7 O2 1_555 1_555
N1 Mg1 1_555 1_555
N2 C4 1_555 1_555
O2K C7K 1_555 1_555
O3K H1K 1_555 1_555
C5K C5 1_555 1_555
C6K C5K 1_555 1_555
C7K C6K 1_555 1_555
O2L C7K 1_555 1_555
O3L H1L 1_555 1_555
C5L C6K 1_555 1_555
O2W C7 1_555 1_555
O3W H1W 1_555 1_555
C5W C6 1_555 1_555
C1B H2B 1_555 1_555
C2B C1B 1_555 1_555
H3B C2B 1_555 1_555
C3B C2B 1_555 1_555
C4B C3B 1_555 1_555
N1B C1B 1_555 1_555
N2B C4 1_555 1_555
C1D H2D 1_555 1_555
C2D C1D 1_555 1_555
H3D C2D 1_555 1_555
C3D C2D 1_555 1_555
C4D N2 1_555 1_555
N1D C1D 1_555 1_555
N2D C4B 1_555 1_555
C1H N1D 1_555 1_555
H2H C1H 1_555 1_555
C2H C3D 1_555 1_555
H3H C2H 1_555 1_555
C1J N1 1_555 1_555
H2J C1J 1_555 1_555
C2J C3 1_555 1_555
H3J C2J 1_555 1_555
C1F N1B 1_555 1_555
H2F C1F 1_555 1_555
C2F C3B 1_555 1_555
H3F C2F 1_555 1_555
Mg1B N1B 1_555 1_555
O2B Mg1B 1_555 1_555
O3B H1B 1_555 1_555
C5B O3B 1_555 1_555
C6B C5B 1_555 1_555
C7B O2B 1_555 1_555
O2G C7G 1_555 1_555
O3G H1G 1_555 1_555
C5G C5B 1_555 1_555
C6G C5G 1_555 1_555
C7G C6G 1_555 1_555
O2N C7G 1_555 1_555
O3N H1N 1_555 1_555
C5N C6G 1_555 1_555
O2S C7B 1_555 1_555
O3S H1S 1_555 1_555
C5S C6B 1_555 1_555
Mg1D O2D 1_555 1_555
O2D C7D 1_555 1_555
O3D H1D 1_555 1_555
C5D O3D 1_555 1_555
C6D C5D 1_555 1_555
C7D C6D 1_555 1_555
O2I C7I 1_555 1_555
O3I H1I 1_555 1_555
C5I C5D 1_555 1_555
C6I C5I 1_555 1_555
C7I C6I 1_555 1_555
O2P C7I 1_555 1_555
O3P H1P 1_555 1_555
C5P C6I 1_555 1_555
O2U Mg1B 1_555 1_555
O3U H1U 1_555 1_555
C5U C6D 1_555 1_555
Mg1_2 O2S 1_555 1_555
Mg1A O2K 1_555 1_555
Mg1C O2G 1_555 1_555
Mg1C_2 O2L 1_555 1_555
Mg1D_2 N1D 1_555 1_555
Mg1D_3 O1 1_555 1_555
Mg1E O2N 1_555 1_555
Mg1E_2 O2I 1_555 1_555
O1_2 Mg1B 1_555 1_555
O2F Mg1B 1_555 1_555
O2H Mg1D 1_555 1_555
O2J Mg1 1_555 1_555
O2M Mg1D 1_555 1_555
O2O Mg1 1_555 1_555
O2Q Mg1B 1_555 1_555
O2S_2 Mg1 1_555 1_555
O2W_2 Mg1D 1_555 1_555
N1D_2 Mg1D 1_555 1_555
C1 N1 1_555 1_555
C6 C7 1_555 1_555
O3K C5K 1_555 1_555
O3L C5L 1_555 1_555
C5L C5W 1_555 1_555
O2W Mg1D_3 1_555 1_555
O3W C5W 1_555 1_555
C4B N2B 1_555 1_555
C3D C4D 1_555 1_555
C4D N2D 1_555 1_555
C1H C2H 1_555 1_555
C1J C2J 1_555 1_555
C1F C2F 1_555 1_555
C6B C7B 1_555 1_555
O3G C5G 1_555 1_555
O3N C5N 1_555 1_555
C5N C5S 1_555 1_555
O3S C5S 1_555 1_555
Mg1D O1_2 1_555 1_555
C7D O2U 1_555 1_555
O3I C5I 1_555 1_555
O2P Mg1A 1_555 1_555
O3P C5P 1_555 1_555
C5P C5U 1_555 1_555
O3U C5U 1_555 1_555
Mg1_2 O1_2 1_555 1_555

#END
