
#######################################################################
#
#                 Cambridge Crystallographic Data Centre
#                                CCDC 
#
#######################################################################
#
# If this CIF has been generated from an entry in the Cambridge 
# Structural Database, then it will include bibliographic, chemical, 
# crystal, experimental, refinement or atomic coordinate data resulting 
# from the CCDC's data processing and validation procedures.
#
#######################################################################

data_DAFZAO
_chemical_formula_moiety         '(C42 H25 Mn3 N6 O13)n'
_symmetry_cell_setting           hexagonal
_symmetry_space_group_name_H-M   'P 63/m m c'
_symmetry_Int_Tables_number      194
_space_group_name_Hall           '-P 6c 2c'
loop_
_symmetry_equiv_pos_site_id
_symmetry_equiv_pos_as_xyz
1 x,y,z
2 -y,x-y,z
3 -x+y,-x,z
4 -x,-y,1/2+z
5 y,-x+y,1/2+z
6 x-y,x,1/2+z
7 y,x,-z
8 x-y,-y,-z
9 -x,-x+y,-z
10 -y,-x,1/2-z
11 -x+y,y,1/2-z
12 x,x-y,1/2-z
13 -x,-y,-z
14 y,-x+y,-z
15 x-y,x,-z
16 x,y,1/2-z
17 -y,x-y,1/2-z
18 -x+y,-x,1/2-z
19 -y,-x,z
20 -x+y,y,z
21 x,x-y,z
22 y,x,1/2+z
23 x-y,-y,1/2+z
24 -x,-x+y,1/2+z
_cell_length_a                   17.4162(4)
_cell_length_b                   17.4162(4)
_cell_length_c                   14.9154(7)
_cell_angle_alpha                90
_cell_angle_beta                 90
_cell_angle_gamma                120
_cell_volume                     3918.07
loop_
_atom_site_label
_atom_site_type_symbol
_atom_site_fract_x
_atom_site_fract_y
_atom_site_fract_z
Mn1 Mn 0.52760(3) 0.26380(2) 0.2500
C1 C 0.57258(10) 0.42742(10) 0.3732(2)
C2 C 0.53463(10) 0.46537(10) 0.4384(2)
C3 C 0.44961(16) 0.41594(18) 0.4693(2)
H1 H 0.4141 0.3585 0.4482
C4 C 0.3289(2) 0.1013(2) 0.2500
H2 H 0.3592 0.0700 0.2500
C5 C 0.2368(2) 0.05269(19) 0.2500
H3 H 0.2077 -0.0089 0.2500
C6 C 0.1899(2) 0.09495(11) 0.2500
C7 C 0.0903(2) 0.04517(11) 0.2500
O1 O 0.6667 0.3333 0.2500
O2 O 0.52266(10) 0.34934(10) 0.34987(12)
N1 N 0.3761(2) 0.18804(10) 0.2500
N2 N 0.04547(11) -0.04547(11) 0.2500
C1F C 0.42742(10) 0.57258(10) 0.6268(2)
C2F C 0.46537(10) 0.53463(10) 0.5616(2)
C3F C 0.41594(18) 0.44961(16) 0.5307(2)
H1F H 0.3585 0.4141 0.5518
O2F O 0.34934(10) 0.52266(10) 0.65013(12)
C3L C 0.55039(16) 0.58406(18) 0.5307(2)
H1L H 0.5859 0.6415 0.5518
O2L O 0.47734(10) 0.65066(10) 0.65013(12)
C3R C 0.58406(18) 0.55039(16) 0.4693(2)
H1R H 0.6415 0.5859 0.4482
O2R O 0.65066(10) 0.47734(10) 0.34987(12)
C4A C -0.1013(2) 0.2276(3) 0.2500
H2A H -0.0700 0.2892 0.2500
C5A C -0.05269(19) 0.18411(28) 0.2500
H3A H 0.0089 0.2166 0.2500
C6A C -0.09495(11) 0.09495(23) 0.2500
C7A C -0.04517(11) 0.04513(23) 0.2500
N1A N -0.18804(10) 0.18806(22) 0.2500
N2A N 0.04547(11) 0.09094(16) 0.2500
C4B C -0.2276(3) -0.3289(2) 0.2500
H2B H -0.2892 -0.3592 0.2500
C5B C -0.18411(28) -0.2368(2) 0.2500
H3B H -0.2166 -0.2077 0.2500
C6B C -0.09495(23) -0.1899(2) 0.2500
C7B C -0.04513(23) -0.0903(2) 0.2500
N1B N -0.18806(22) -0.3761(2) 0.2500
N2B N -0.09094(16) -0.04547(11) 0.2500
C4I C -0.1013(2) -0.3289(2) 0.2500
H2I H -0.0700 -0.3592 0.2500
C5I C -0.05269(19) -0.2368(2) 0.2500
H3I H 0.0089 -0.2077 0.2500
C4J C -0.2276(3) 0.1013(2) 0.2500
H2J H -0.2892 0.0700 0.2500
C5J C -0.18411(28) 0.05269(19) 0.2500
H3J H -0.2166 -0.0089 0.2500
C4K C 0.3289(2) 0.2276(3) 0.2500
H2K H 0.3592 0.2892 0.2500
C5K C 0.2368(2) 0.18411(28) 0.2500
H3K H 0.2077 0.2166 0.2500
Mn1A Mn -0.26380(2) 0.26380(4) 0.2500
C1A C -0.42742(10) 0.14516(14) 0.3732(2)
C2A C -0.46537(10) 0.06926(14) 0.4384(2)
C3A C -0.41594(18) 0.03367(24) 0.4693(2)
H1A H -0.3585 0.0556 0.4482
O2A O -0.34934(10) 0.17332(14) 0.34987(12)
C1H C -0.57258(10) -0.14516(14) 0.6268(2)
C2H C -0.53463(10) -0.06926(14) 0.5616(2)
C3H C -0.44961(16) -0.03367(24) 0.5307(2)
H1H H -0.4141 -0.0556 0.5518
O2H O -0.52266(10) -0.17332(14) 0.65013(12)
C3M C -0.58406(18) -0.03367(24) 0.5307(2)
H1M H -0.6415 -0.0556 0.5518
O2M O -0.65066(10) -0.17332(14) 0.65013(12)
C3T C -0.55039(16) 0.03367(24) 0.4693(2)
H1T H -0.5859 0.0556 0.4482
O2T O -0.47734(10) 0.17332(14) 0.34987(12)
Mn1B Mn -0.26380(4) -0.52760(3) 0.2500
C1B C -0.14516(14) -0.57258(10) 0.3732(2)
C2B C -0.06926(14) -0.53463(10) 0.4384(2)
C3B C -0.03367(24) -0.44961(16) 0.4693(2)
H1B H -0.0556 -0.4141 0.4482
O2B O -0.17332(14) -0.52266(10) 0.34987(12)
C1G C 0.14516(14) -0.42742(10) 0.6268(2)
C2G C 0.06926(14) -0.46537(10) 0.5616(2)
C3G C 0.03367(24) -0.41594(18) 0.5307(2)
H1G H 0.0556 -0.3585 0.5518
O2G O 0.17332(14) -0.34934(10) 0.65013(12)
C3N C 0.03367(24) -0.55039(16) 0.5307(2)
H1N H 0.0556 -0.5859 0.5518
O2N O 0.17332(14) -0.47734(10) 0.65013(12)
C3S C -0.03367(24) -0.58406(18) 0.4693(2)
H1S H -0.0556 -0.6415 0.4482
O2S O -0.17332(14) -0.65066(10) 0.34987(12)
Mn1_2 Mn -0.47240(3) 0.26380(2) 0.2500
Mn1A_2 Mn -0.26380(2) -0.73620(4) 0.2500
Mn1A_3 Mn 0.73620(2) 0.26380(4) 0.2500
Mn1B_2 Mn 0.73620(4) 0.47240(3) 0.2500
Mn1C Mn -0.52760(3) -0.26380(2) 0.7500
Mn1C_2 Mn 0.47240(3) 0.73620(2) 0.7500
Mn1D Mn -0.73620(2) -0.26380(4) 0.7500
Mn1D_2 Mn 0.26380(2) -0.26380(4) 0.7500
Mn1E Mn 0.26380(4) -0.47240(3) 0.7500
Mn1E_2 Mn 0.26380(4) 0.52760(3) 0.7500
O1_2 O -0.3333 -0.6667 0.2500
O1_3 O -0.3333 0.3333 0.2500
O2I O -0.34934(10) -0.52266(10) 0.15013(12)
O2J O -0.17332(14) 0.34934(10) 0.15013(12)
O2K O 0.52266(10) 0.17332(14) 0.15013(12)
O2O O 0.52266(10) 0.34934(10) 0.15013(12)
O2P O -0.34934(10) 0.17332(14) 0.15013(12)
O2Q O -0.17332(14) -0.52266(10) 0.15013(12)
O2R_2 O -0.34934(10) -0.52266(10) 0.34987(12)
O2S_2 O -0.17332(14) 0.34934(10) 0.34987(12)
O2T_2 O 0.52266(10) 0.17332(14) 0.34987(12)
loop_
_geom_bond_atom_site_label_1
_geom_bond_atom_site_label_2
_geom_bond_site_symmetry_1
_geom_bond_site_symmetry_2
Mn1 O1 1_555 1_555
C1 C2 1_555 1_555
C2 C3 1_555 1_555
C3 H1 1_555 1_555
C4 H2 1_555 1_555
C5 C4 1_555 1_555
H3 C5 1_555 1_555
C6 C5 1_555 1_555
C7 C6 1_555 1_555
O1 Mn1A_3 1_555 1_555
O2 Mn1 1_555 1_555
N1 Mn1 1_555 1_555
N2 C7 1_555 1_555
C1F C2F 1_555 1_555
C2F C3F 1_555 1_555
C3F C3 1_555 1_555
H1F C3F 1_555 1_555
O2F C1F 1_555 1_555
C3L C2F 1_555 1_555
H1L C3L 1_555 1_555
O2L C1F 1_555 1_555
C3R C2 1_555 1_555
H1R C3R 1_555 1_555
O2R C1 1_555 1_555
C4A H2A 1_555 1_555
C5A C4A 1_555 1_555
H3A C5A 1_555 1_555
C6A C5A 1_555 1_555
C7A C6A 1_555 1_555
N1A C4A 1_555 1_555
N2A C7 1_555 1_555
C4B H2B 1_555 1_555
C5B C4B 1_555 1_555
H3B C5B 1_555 1_555
C6B C5B 1_555 1_555
C7B N2 1_555 1_555
N1B C4B 1_555 1_555
N2B C7A 1_555 1_555
C4I N1B 1_555 1_555
H2I C4I 1_555 1_555
C5I C6B 1_555 1_555
H3I C5I 1_555 1_555
C4J N1A 1_555 1_555
H2J C4J 1_555 1_555
C5J C6A 1_555 1_555
H3J C5J 1_555 1_555
C4K N1 1_555 1_555
H2K C4K 1_555 1_555
C5K C6 1_555 1_555
H3K C5K 1_555 1_555
Mn1A N1A 1_555 1_555
C1A C2A 1_555 1_555
C2A C3A 1_555 1_555
C3A H1A 1_555 1_555
O2A Mn1A 1_555 1_555
C1H C2H 1_555 1_555
C2H C3H 1_555 1_555
C3H C3A 1_555 1_555
H1H C3H 1_555 1_555
O2H C1H 1_555 1_555
C3M C2H 1_555 1_555
H1M C3M 1_555 1_555
O2M C1H 1_555 1_555
C3T C2A 1_555 1_555
H1T C3T 1_555 1_555
O2T C1A 1_555 1_555
Mn1B N1B 1_555 1_555
C1B C2B 1_555 1_555
C2B C3B 1_555 1_555
C3B H1B 1_555 1_555
O2B Mn1B 1_555 1_555
C1G C2G 1_555 1_555
C2G C3G 1_555 1_555
C3G C3B 1_555 1_555
H1G C3G 1_555 1_555
O2G C1G 1_555 1_555
C3N C2G 1_555 1_555
H1N C3N 1_555 1_555
O2N C1G 1_555 1_555
C3S C2B 1_555 1_555
H1S C3S 1_555 1_555
O2S C1B 1_555 1_555
Mn1_2 O2T 1_555 1_555
Mn1A_2 O2S 1_555 1_555
Mn1B_2 O1 1_555 1_555
Mn1C O2H 1_555 1_555
Mn1C_2 O2L 1_555 1_555
Mn1D O2M 1_555 1_555
Mn1D_2 O2G 1_555 1_555
Mn1E O2N 1_555 1_555
Mn1E_2 O2F 1_555 1_555
O1_2 Mn1B 1_555 1_555
O1_3 Mn1A 1_555 1_555
O2I Mn1B 1_555 1_555
O2J Mn1A 1_555 1_555
O2K Mn1 1_555 1_555
O2O Mn1 1_555 1_555
O2P Mn1A 1_555 1_555
O2Q Mn1B 1_555 1_555
O2R_2 Mn1B 1_555 1_555
O2S_2 Mn1A 1_555 1_555
O2T_2 Mn1 1_555 1_555
C1 O2 1_555 1_555
C4 N1 1_555 1_555
C3L C3R 1_555 1_555
O2R Mn1B_2 1_555 1_555
C7A N2A 1_555 1_555
C6B C7B 1_555 1_555
C7B N2B 1_555 1_555
C4I C5I 1_555 1_555
C4J C5J 1_555 1_555
C4K C5K 1_555 1_555
C1A O2A 1_555 1_555
C3M C3T 1_555 1_555
C1B O2B 1_555 1_555
C3N C3S 1_555 1_555
Mn1_2 O1_3 1_555 1_555
Mn1A_2 O1_2 1_555 1_555

#END
