
#######################################################################
#
#                 Cambridge Crystallographic Data Centre
#                                CCDC 
#
#######################################################################
#
# If this CIF has been generated from an entry in the Cambridge 
# Structural Database, then it will include bibliographic, chemical, 
# crystal, experimental, refinement or atomic coordinate data resulting 
# from the CCDC's data processing and validation procedures.
#
#######################################################################

data_LAJDUY
_chemical_formula_moiety         '(C44 H74 N12 Ni2 O8)n'
_symmetry_cell_setting           monoclinic
_symmetry_space_group_name_H-M   'C 2/c'
_symmetry_Int_Tables_number      15
_space_group_name_Hall           '-C 2yc'
loop_
_symmetry_equiv_pos_site_id
_symmetry_equiv_pos_as_xyz
1 x,y,z
2 -x,y,1/2-z
3 1/2+x,1/2+y,z
4 1/2-x,1/2+y,1/2-z
5 -x,-y,-z
6 x,-y,1/2+z
7 1/2-x,1/2-y,-z
8 1/2+x,1/2-y,1/2+z
_cell_length_a                   29.788(6)
_cell_length_b                   11.995(2)
_cell_length_c                   22.094(4)
_cell_angle_alpha                90
_cell_angle_beta                 114.76(3)
_cell_angle_gamma                90
_cell_volume                     7168.62
loop_
_atom_site_label
_atom_site_type_symbol
_atom_site_fract_x
_atom_site_fract_y
_atom_site_fract_z
_atom_site_U_iso_or_equiv
_atom_site_thermal_displace_type
Ni1 Ni -0.0000 1.0000 0.0000 0.0202 Uani
N1 N 0.06887(4) 1.06663(11) 0.02133(5) 0.0311 Uani
H1 H 0.0718 1.0787 -0.0216 0.0370 Uiso
N2 N 0.02042(5) 0.84100(10) -0.01188(6) 0.0316 Uani
H2 H 0.0197 0.8366 -0.0575 0.0380 Uiso
C1 C 0.06821(6) 1.17761(15) 0.05124(8) 0.0429 Uani
H3 H 0.0952 1.2248 0.0504 0.0520 Uiso
H4 H 0.0733 1.1685 0.0982 0.0520 Uiso
C2 C -0.01872(8) 0.76765(13) -0.01136(9) 0.0441 Uani
H5 H -0.0144 0.7550 0.0350 0.0530 Uiso
H6 H -0.0171 0.6946 -0.0313 0.0530 Uiso
N3 N 0.1113(3) 0.8918(5) 0.0370(4) 0.0297 Uani
C3 C 0.1102(2) 1.0042(4) 0.0641(3) 0.0278 Uani
H7 H 0.1091 0.9966 0.1082 0.0330 Uiso
H8 H 0.1408 1.0446 0.0707 0.0330 Uiso
C4 C 0.0744(3) 0.8134(9) 0.0390(6) 0.0337 Uani
H9 H 0.0758 0.8131 0.0846 0.0400 Uiso
H10 H 0.0830 0.7375 0.0297 0.0400 Uiso
C5 C 0.11749(13) 0.8930(3) -0.0253(2) 0.0291 Uani
H11 H 0.1443 0.9459 -0.0206 0.0350 Uiso
H12 H 0.0866 0.9208 -0.0614 0.0350 Uiso
C6 C 0.1298(2) 0.7793(3) -0.0455(2) 0.0612 Uani
H13 H 0.1015 0.7281 -0.0554 0.0730 Uiso
H14 H 0.1589 0.7475 -0.0080 0.0730 Uiso
C7 C 0.1410(3) 0.7894(5) -0.1069(3) 0.0787 Uani
H15 H 0.1154 0.8347 -0.1408 0.1180 Uiso
H16 H 0.1414 0.7149 -0.1249 0.1180 Uiso
H17 H 0.1733 0.8248 -0.0942 0.1180 Uiso
Ni2 Ni 0.2500 0.7500 0.5000 0.0282 Uani
N4 N 0.21332(4) 0.72491(14) 0.55982(6) 0.0406 Uani
H18 H 0.1778 0.7445 0.5331 0.0490 Uiso
N5 N 0.22740(5) 0.60081(13) 0.45075(7) 0.0445 Uani
H19 H 0.1927 0.6099 0.4164 0.0530 Uiso
N6 N 0.19771(6) 0.52635(16) 0.52995(11) 0.0601 Uani
C8 C 0.23406(6) 0.8071(2) 0.61367(8) 0.0561 Uani
H20 H 0.2665 0.7810 0.6472 0.0670 Uiso
H21 H 0.2116 0.8170 0.6360 0.0670 Uiso
C9 C 0.21516(6) 0.6080(2) 0.58280(10) 0.0577 Uani
H22 H 0.2497 0.5898 0.6132 0.0690 Uiso
H23 H 0.1950 0.6022 0.6087 0.0690 Uiso
C10 C 0.22830(7) 0.50775(17) 0.49512(14) 0.0599 Uani
H24 H 0.2172 0.4389 0.4682 0.0720 Uiso
H25 H 0.2628 0.4957 0.5281 0.0720 Uiso
C11 C 0.25981(7) 0.5836(2) 0.41593(10) 0.0578 Uani
H26 H 0.2450 0.5274 0.3802 0.0690 Uiso
H27 H 0.2925 0.5557 0.4477 0.0690 Uiso
C12 C 0.14478(6) 0.53156(18) 0.48498(13) 0.0609 Uani
H28 H 0.1377 0.4765 0.4487 0.0730 Uiso
H29 H 0.1372 0.6065 0.4644 0.0730 Uiso
C13 C 0.11168(8) 0.50900(18) 0.51888(17) 0.0711 Uani
H30 H 0.1155 0.5690 0.5514 0.0850 Uiso
H31 H 0.1213 0.4377 0.5435 0.0850 Uiso
C14 C 0.05800(9) 0.5028(2) 0.4683(2) 0.0936 Uani
H32 H 0.0499 0.5692 0.4398 0.1400 Uiso
H33 H 0.0364 0.4993 0.4917 0.1400 Uiso
H34 H 0.0531 0.4360 0.4407 0.1400 Uiso
O1 O 0.02153(3) 0.96254(9) 0.10276(4) 0.0278 Uani
O2 O -0.00003(4) 1.10924(10) 0.14736(5) 0.0409 Uani
O3 O 0.18700(3) 0.82530(11) 0.42499(5) 0.0392 Uani
O4 O 0.12339(3) 0.81685(10) 0.45371(5) 0.0339 Uani
C15 C 0.02031(4) 1.01755(12) 0.15082(6) 0.0256 Uani
C16 C 0.04902(4) 0.96707(12) 0.21932(6) 0.0252 Uani
C17 C 0.10019(5) 0.96119(15) 0.24079(7) 0.0363 Uani
H35 H 0.1147 0.9854 0.2121 0.0440 Uiso
C18 C 0.13012(4) 0.92034(14) 0.30369(6) 0.0346 Uani
H36 H 0.1649 0.9176 0.3180 0.0410 Uiso
C19 C 0.10934(4) 0.88355(11) 0.34573(6) 0.0242 Uani
C20 C 0.05817(4) 0.88891(10) 0.32421(5) 0.0222 Uani
H37 H 0.0438 0.8636 0.3529 0.0270 Uiso
C21 C 0.02737(4) 0.93100(10) 0.26090(5) 0.0207 Uani
C22 C 0.14204(4) 0.83806(11) 0.41404(6) 0.0255 Uani
N1D N -0.06887(4) 0.93337(11) -0.02133(5) 0.0311 Uani
H1D H -0.0718 0.9213 0.0216 0.0370 Uiso
N2D N -0.02042(5) 1.15900(10) 0.01188(6) 0.0316 Uani
H2D H -0.0197 1.1634 0.0575 0.0380 Uiso
C1D C -0.06821(6) 0.82239(15) -0.05124(8) 0.0429 Uani
H3D H -0.0952 0.7752 -0.0504 0.0520 Uiso
H4D H -0.0733 0.8315 -0.0982 0.0520 Uiso
C2D C 0.01872(8) 1.23235(13) 0.01136(9) 0.0441 Uani
H5D H 0.0144 1.2450 -0.0350 0.0530 Uiso
H6D H 0.0171 1.3054 0.0313 0.0530 Uiso
N3D N -0.1113(3) 1.1082(5) -0.0370(4) 0.0297 Uani
C3D C -0.1102(2) 0.9958(4) -0.0641(3) 0.0278 Uani
H7D H -0.1091 1.0034 -0.1082 0.0330 Uiso
H8D H -0.1408 0.9554 -0.0707 0.0330 Uiso
C4D C -0.0744(3) 1.1866(9) -0.0390(6) 0.0337 Uani
H9D H -0.0758 1.1869 -0.0846 0.0400 Uiso
H10D H -0.0830 1.2625 -0.0297 0.0400 Uiso
C5D C -0.11749(13) 1.1070(3) 0.0253(2) 0.0291 Uani
H11D H -0.1443 1.0541 0.0206 0.0350 Uiso
H12D H -0.0866 1.0792 0.0614 0.0350 Uiso
C6D C -0.1298(2) 1.2207(3) 0.0455(2) 0.0612 Uani
H13D H -0.1015 1.2719 0.0554 0.0730 Uiso
H14D H -0.1589 1.2525 0.0080 0.0730 Uiso
C7D C -0.1410(3) 1.2106(5) 0.1069(3) 0.0787 Uani
H15D H -0.1154 1.1653 0.1408 0.1180 Uiso
H16D H -0.1414 1.2851 0.1249 0.1180 Uiso
H17D H -0.1733 1.1752 0.0942 0.1180 Uiso
N4F N 0.28668(4) 0.77509(14) 0.44018(6) 0.0406 Uani
H18F H 0.3222 0.7555 0.4669 0.0490 Uiso
N5F N 0.27260(5) 0.89919(13) 0.54925(7) 0.0445 Uani
H19F H 0.3073 0.8901 0.5836 0.0530 Uiso
N6F N 0.30229(6) 0.97365(16) 0.47005(11) 0.0601 Uani
C8F C 0.26594(6) 0.6929(2) 0.38633(8) 0.0561 Uani
H20F H 0.2335 0.7190 0.3528 0.0670 Uiso
H21F H 0.2884 0.6830 0.3640 0.0670 Uiso
C9F C 0.28484(6) 0.8920(2) 0.41720(10) 0.0577 Uani
H22F H 0.2503 0.9102 0.3868 0.0690 Uiso
H23F H 0.3050 0.8978 0.3913 0.0690 Uiso
C10F C 0.27170(7) 0.99225(17) 0.50488(14) 0.0599 Uani
H24F H 0.2828 1.0611 0.5318 0.0720 Uiso
H25F H 0.2372 1.0043 0.4719 0.0720 Uiso
C11F C 0.24019(7) 0.9164(2) 0.58407(10) 0.0578 Uani
H26F H 0.2550 0.9726 0.6198 0.0690 Uiso
H27F H 0.2075 0.9443 0.5523 0.0690 Uiso
C12F C 0.35522(6) 0.96844(18) 0.51502(13) 0.0609 Uani
H28F H 0.3623 1.0235 0.5513 0.0730 Uiso
H29F H 0.3628 0.8935 0.5356 0.0730 Uiso
C13F C 0.38832(8) 0.99100(18) 0.48112(17) 0.0711 Uani
H30F H 0.3845 0.9310 0.4486 0.0850 Uiso
H31F H 0.3787 1.0623 0.4565 0.0850 Uiso
C14F C 0.44200(9) 0.9972(2) 0.5317(2) 0.0936 Uani
H32F H 0.4501 0.9308 0.5602 0.1400 Uiso
H33F H 0.4636 1.0007 0.5083 0.1400 Uiso
H34F H 0.4469 1.0640 0.5593 0.1400 Uiso
O1A O -0.02153(3) 0.96254(9) 0.39724(4) 0.0278 Uani
O2A O 0.00003(4) 1.10924(10) 0.35264(5) 0.0409 Uani
O3A O -0.18700(3) 0.82530(11) 0.07501(5) 0.0392 Uani
O4A O -0.12339(3) 0.81685(10) 0.04629(5) 0.0339 Uani
C15A C -0.02031(4) 1.01755(12) 0.34918(6) 0.0256 Uani
C16A C -0.04902(4) 0.96707(12) 0.28068(6) 0.0252 Uani
C17A C -0.10019(5) 0.96119(15) 0.25921(7) 0.0363 Uani
H35A H -0.1147 0.9854 0.2879 0.0440 Uiso
C18A C -0.13012(4) 0.92034(14) 0.19631(6) 0.0346 Uani
H36A H -0.1649 0.9176 0.1820 0.0410 Uiso
C19A C -0.10934(4) 0.88355(11) 0.15427(6) 0.0242 Uani
C20A C -0.05817(4) 0.88891(10) 0.17579(5) 0.0222 Uani
H37A H -0.0438 0.8636 0.1471 0.0270 Uiso
C21A C -0.02737(4) 0.93100(10) 0.23910(5) 0.0207 Uani
C22A C -0.14204(4) 0.83806(11) 0.08596(6) 0.0255 Uani
Ni1A Ni 0.0000 1.0000 0.5000 0.0202 Uani
Ni2A Ni -0.2500 0.7500 0.0000 0.0282 Uani
O1D O -0.02153(3) 1.03746(9) -0.10276(4) 0.0278 Uani
O3F O 0.31300(3) 0.67470(11) 0.57501(5) 0.0392 Uani
loop_
_atom_site_aniso_label
_atom_site_aniso_U_11
_atom_site_aniso_U_22
_atom_site_aniso_U_33
_atom_site_aniso_U_23
_atom_site_aniso_U_13
_atom_site_aniso_U_12
Ni1 0.01760(11) 0.03190(13) 0.01066(11) 0.00316(7) 0.00552(8) 0.00281(7)
N1 0.0247(5) 0.0538(7) 0.0169(5) -0.0020(4) 0.0108(4) -0.0056(5)
N2 0.0410(6) 0.0353(6) 0.0211(5) 0.0047(4) 0.0156(5) 0.0080(5)
C1 0.0472(8) 0.0554(9) 0.0327(7) -0.0132(6) 0.0232(7) -0.0226(7)
C2 0.0682(12) 0.0350(7) 0.0392(8) -0.0013(6) 0.0323(9) -0.0077(7)
N3 0.0193(17) 0.0456(19) 0.0250(13) 0.0090(13) 0.0102(12) 0.0046(11)
C3 0.0209(12) 0.039(2) 0.0210(12) -0.0038(17) 0.0062(9) 0.0007(16)
C4 0.026(3) 0.0459(17) 0.028(3) 0.0139(15) 0.010(2) 0.0132(18)
C5 0.0270(11) 0.0390(14) 0.0273(12) 0.0028(11) 0.0173(9) 0.0071(10)
C6 0.094(3) 0.0505(17) 0.066(2) 0.0043(15) 0.060(3) 0.0170(18)
C7 0.118(5) 0.074(2) 0.081(3) -0.007(2) 0.078(3) 0.008(3)
Ni2 0.01228(11) 0.05437(16) 0.01567(12) 0.01044(9) 0.00359(9) 0.00296(8)
N4 0.0171(5) 0.0802(9) 0.0232(6) 0.0188(6) 0.0073(4) 0.0062(5)
N5 0.0236(5) 0.0618(8) 0.0399(7) 0.0010(6) 0.0053(5) 0.0003(5)
N6 0.0296(7) 0.0690(10) 0.0766(12) 0.0329(9) 0.0172(7) 0.0013(7)
C8 0.0325(7) 0.1113(17) 0.0227(7) 0.0014(8) 0.0097(6) 0.0090(9)
C9 0.0298(7) 0.0970(15) 0.0468(10) 0.0414(10) 0.0164(7) 0.0066(8)
C10 0.0352(9) 0.0571(11) 0.0807(16) 0.0154(9) 0.0176(10) 0.0033(7)
C11 0.0386(8) 0.0871(14) 0.0434(10) -0.0157(9) 0.0129(8) 0.0043(9)
C12 0.0311(8) 0.0540(10) 0.0887(16) 0.0199(10) 0.0164(9) -0.0051(7)
C13 0.0469(11) 0.0504(11) 0.127(3) -0.0018(11) 0.0473(14) -0.0075(8)
C14 0.0400(11) 0.0654(14) 0.177(4) -0.0128(16) 0.0471(17) -0.0073(9)
O1 0.0269(4) 0.0453(5) 0.0103(4) 0.0041(3) 0.0069(3) 0.0030(4)
O2 0.0479(6) 0.0578(7) 0.0176(4) 0.0060(4) 0.0144(4) 0.0187(5)
O3 0.0136(4) 0.0778(8) 0.0227(5) 0.0198(5) 0.0043(3) 0.0103(4)
O4 0.0205(4) 0.0636(7) 0.0170(4) 0.0101(4) 0.0073(3) 0.0097(4)
C15 0.0157(5) 0.0491(7) 0.0111(5) 0.0045(4) 0.0047(4) 0.0007(4)
C16 0.0156(5) 0.0486(7) 0.0093(5) 0.0031(4) 0.0030(4) 0.0015(4)
C17 0.0166(5) 0.0768(10) 0.0166(6) 0.0113(6) 0.0079(5) 0.0019(6)
C18 0.0131(5) 0.0720(10) 0.0167(6) 0.0078(6) 0.0043(4) 0.0033(5)
C19 0.0138(5) 0.0451(7) 0.0109(5) 0.0022(4) 0.0023(4) 0.0028(4)
C20 0.0140(4) 0.0409(6) 0.0101(5) 0.0015(4) 0.0035(4) 0.0004(4)
C21 0.0117(4) 0.0395(6) 0.0088(4) -0.0011(4) 0.0021(4) 0.0002(4)
C22 0.0151(5) 0.0449(7) 0.0131(5) 0.0033(4) 0.0026(4) 0.0038(4)
N1D 0.0247 0.0538 0.0169 -0.002 0.0108 -0.0056
N2D 0.041 0.0353 0.0211 0.0047 0.0156 0.008
C1D 0.0472 0.0554 0.0327 -0.0132 0.0232 -0.0226
C2D 0.0682 0.035 0.0392 -0.0013 0.0323 -0.0077
N3D 0.0193 0.0456 0.025 0.009 0.0102 0.0046
C3D 0.0209 0.039 0.021 -0.0038 0.0062 0.0007
C4D 0.026 0.0459 0.028 0.0139 0.01 0.0132
C5D 0.027 0.039 0.0273 0.0028 0.0173 0.0071
C6D 0.094 0.0505 0.066 0.0043 0.06 0.017
C7D 0.118 0.074 0.081 -0.007 0.078 0.008
N4F 0.0171 0.0802 0.0232 0.0188 0.0073 0.0062
N5F 0.0236 0.0618 0.0399 0.001 0.0053 0.0003
N6F 0.0296 0.069 0.0766 0.0329 0.0172 0.0013
C8F 0.0325 0.1113 0.0227 0.0014 0.0097 0.009
C9F 0.0298 0.097 0.0468 0.0414 0.0164 0.0066
C10F 0.0352 0.0571 0.0807 0.0154 0.0176 0.0033
C11F 0.0386 0.0871 0.0434 -0.0157 0.0129 0.0043
C12F 0.0311 0.054 0.0887 0.0199 0.0164 -0.0051
C13F 0.0469 0.0504 0.127 -0.0018 0.0473 -0.0075
C14F 0.04 0.0654 0.177 -0.0128 0.0471 -0.0073
O1A 0.0269 0.0453 0.0103 -0.0041 0.0069 -0.003
O2A 0.0479 0.0578 0.0176 -0.006 0.0144 -0.0187
O3A 0.0136 0.0778 0.0227 -0.0198 0.0043 -0.0103
O4A 0.0205 0.0636 0.017 -0.0101 0.0073 -0.0097
C15A 0.0157 0.0491 0.0111 -0.0045 0.0047 -0.0007
C16A 0.0156 0.0486 0.0093 -0.0031 0.003 -0.0015
C17A 0.0166 0.0768 0.0166 -0.0113 0.0079 -0.0019
C18A 0.0131 0.072 0.0167 -0.0078 0.0043 -0.0033
C19A 0.0138 0.0451 0.0109 -0.0022 0.0023 -0.0028
C20A 0.014 0.0409 0.0101 -0.0015 0.0035 -0.0004
C21A 0.0117 0.0395 0.0088 0.0011 0.0021 -0.0002
C22A 0.0151 0.0449 0.0131 -0.0033 0.0026 -0.0038
Ni1A 0.0176 0.0319 0.01066 -0.00316 0.00552 -0.00281
Ni2A 0.01228 0.05437 0.01567 -0.01044 0.00359 -0.00296
O1D 0.0269 0.0453 0.0103 0.0041 0.0069 0.003
O3F 0.0136 0.0778 0.0227 0.0198 0.0043 0.0103
loop_
_geom_bond_atom_site_label_1
_geom_bond_atom_site_label_2
_geom_bond_site_symmetry_1
_geom_bond_site_symmetry_2
Ni1 N1 1_555 1_555
N1 H1 1_555 1_555
N2 Ni1 1_555 1_555
H2 N2 1_555 1_555
C1 N1 1_555 1_555
H3 C1 1_555 1_555
H4 C1 1_555 1_555
C2 N2 1_555 1_555
H5 C2 1_555 1_555
H6 C2 1_555 1_555
N3 C3 1_555 1_555
C3 N1 1_555 1_555
H7 C3 1_555 1_555
H8 C3 1_555 1_555
C4 N2 1_555 1_555
H9 C4 1_555 1_555
H10 C4 1_555 1_555
C5 N3 1_555 1_555
H11 C5 1_555 1_555
H12 C5 1_555 1_555
C6 C5 1_555 1_555
H13 C6 1_555 1_555
H14 C6 1_555 1_555
C7 C6 1_555 1_555
H15 C7 1_555 1_555
H16 C7 1_555 1_555
H17 C7 1_555 1_555
Ni2 N4 1_555 1_555
N4 H18 1_555 1_555
N5 Ni2 1_555 1_555
H19 N5 1_555 1_555
N6 C9 1_555 1_555
C8 N4 1_555 1_555
H20 C8 1_555 1_555
H21 C8 1_555 1_555
C9 N4 1_555 1_555
H22 C9 1_555 1_555
H23 C9 1_555 1_555
C10 N5 1_555 1_555
H24 C10 1_555 1_555
H25 C10 1_555 1_555
C11 N5 1_555 1_555
H26 C11 1_555 1_555
H27 C11 1_555 1_555
C12 N6 1_555 1_555
H28 C12 1_555 1_555
H29 C12 1_555 1_555
C13 C12 1_555 1_555
H30 C13 1_555 1_555
H31 C13 1_555 1_555
C14 C13 1_555 1_555
H32 C14 1_555 1_555
H33 C14 1_555 1_555
H34 C14 1_555 1_555
O1 Ni1 1_555 1_555
O2 C15 1_555 1_555
O3 Ni2 1_555 1_555
O4 C22 1_555 1_555
C15 O1 1_555 1_555
C16 C15 1_555 1_555
C17 C16 1_555 1_555
H35 C17 1_555 1_555
C18 C17 1_555 1_555
H36 C18 1_555 1_555
C19 C18 1_555 1_555
C20 C19 1_555 1_555
H37 C20 1_555 1_555
C21 C16 1_555 1_555
C22 O3 1_555 1_555
N1D Ni1 1_555 1_555
H1D N1D 1_555 1_555
N2D Ni1 1_555 1_555
H2D N2D 1_555 1_555
C1D C2 1_555 1_555
H3D C1D 1_555 1_555
H4D C1D 1_555 1_555
C2D C1 1_555 1_555
H5D C2D 1_555 1_555
H6D C2D 1_555 1_555
N3D C3D 1_555 1_555
C3D N1D 1_555 1_555
H7D C3D 1_555 1_555
H8D C3D 1_555 1_555
C4D N2D 1_555 1_555
H9D C4D 1_555 1_555
H10D C4D 1_555 1_555
C5D N3D 1_555 1_555
H11D C5D 1_555 1_555
H12D C5D 1_555 1_555
C6D C5D 1_555 1_555
H13D C6D 1_555 1_555
H14D C6D 1_555 1_555
C7D C6D 1_555 1_555
H15D C7D 1_555 1_555
H16D C7D 1_555 1_555
H17D C7D 1_555 1_555
N4F Ni2 1_555 1_555
H18F N4F 1_555 1_555
N5F Ni2 1_555 1_555
H19F N5F 1_555 1_555
N6F C9F 1_555 1_555
C8F C11 1_555 1_555
H20F C8F 1_555 1_555
H21F C8F 1_555 1_555
C9F N4F 1_555 1_555
H22F C9F 1_555 1_555
H23F C9F 1_555 1_555
C10F N5F 1_555 1_555
H24F C10F 1_555 1_555
H25F C10F 1_555 1_555
C11F C8 1_555 1_555
H26F C11F 1_555 1_555
H27F C11F 1_555 1_555
C12F N6F 1_555 1_555
H28F C12F 1_555 1_555
H29F C12F 1_555 1_555
C13F C12F 1_555 1_555
H30F C13F 1_555 1_555
H31F C13F 1_555 1_555
C14F C13F 1_555 1_555
H32F C14F 1_555 1_555
H33F C14F 1_555 1_555
H34F C14F 1_555 1_555
O1A C15A 1_555 1_555
O2A C15A 1_555 1_555
O3A C22A 1_555 1_555
O4A C22A 1_555 1_555
C15A C16A 1_555 1_555
C16A C17A 1_555 1_555
C17A H35A 1_555 1_555
C18A C17A 1_555 1_555
H36A C18A 1_555 1_555
C19A C18A 1_555 1_555
C20A C19A 1_555 1_555
H37A C20A 1_555 1_555
C21A C21 1_555 1_555
C22A C19A 1_555 1_555
Ni1A O1A 1_555 1_555
Ni2A O3A 1_555 1_555
O1D Ni1 1_555 1_555
O3F Ni2 1_555 1_555
N3 C4 1_555 1_555
N6 C10 1_555 1_555
C19 C22 1_555 1_555
C20 C21 1_555 1_555
N1D C1D 1_555 1_555
N2D C2D 1_555 1_555
N3D C4D 1_555 1_555
N4F C8F 1_555 1_555
N5F C11F 1_555 1_555
N6F C10F 1_555 1_555
C16A C21A 1_555 1_555
C20A C21A 1_555 1_555

#END
