
#######################################################################
#
#                 Cambridge Crystallographic Data Centre
#                                CCDC 
#
#######################################################################
#
# If this CIF has been generated from an entry in the Cambridge 
# Structural Database, then it will include bibliographic, chemical, 
# crystal, experimental, refinement or atomic coordinate data resulting 
# from the CCDC's data processing and validation procedures.
#
#######################################################################

data_LAJFAG
_chemical_formula_moiety         '(C50 H87 N15 Ni2 O10)n'
_symmetry_cell_setting           monoclinic
_symmetry_space_group_name_H-M   'C 2/c'
_symmetry_Int_Tables_number      15
_space_group_name_Hall           '-C 2yc'
loop_
_symmetry_equiv_pos_site_id
_symmetry_equiv_pos_as_xyz
1 x,y,z
2 -x,y,1/2-z
3 1/2+x,1/2+y,z
4 1/2-x,1/2+y,1/2-z
5 -x,-y,-z
6 x,-y,1/2+z
7 1/2-x,1/2-y,-z
8 1/2+x,1/2-y,1/2+z
_cell_length_a                   29.313(6)
_cell_length_b                   11.935(2)
_cell_length_c                   22.254(5)
_cell_angle_alpha                90
_cell_angle_beta                 114.98(3)
_cell_angle_gamma                90
_cell_volume                     7057.28
loop_
_atom_site_label
_atom_site_type_symbol
_atom_site_fract_x
_atom_site_fract_y
_atom_site_fract_z
_atom_site_U_iso_or_equiv
_atom_site_thermal_displace_type
Ni1 Ni 0.0000 0.0000 0.0000 0.0195 Uani
N1 N 0.01318(5) 0.16530(10) -0.01199(6) 0.0289 Uani
H1 H 0.0133 0.1727 -0.0567 0.0350 Uiso
N2 N 0.07291(4) -0.04886(11) 0.02323(6) 0.0289 Uani
H2 H 0.0765 -0.0591 -0.0192 0.0350 Uiso
N3 N 0.10430(5) 0.14555(15) 0.03688(7) 0.0437 Uani
C1 C -0.03131(8) 0.22728(14) -0.01416(9) 0.0406 Uani
H3 H -0.0333 0.3018 -0.0347 0.0490 Uiso
H4 H -0.0286 0.2384 0.0313 0.0490 Uiso
C2 C 0.06208(7) 0.20709(15) 0.03692(8) 0.0410 Uani
H5 H 0.0656 0.2869 0.0274 0.0490 Uiso
H6 H 0.0627 0.2028 0.0817 0.0490 Uiso
C3 C 0.11129(5) 0.03448(18) 0.06447(7) 0.0400 Uani
H7 H 0.1107 0.0386 0.1086 0.0480 Uiso
H8 H 0.1450 0.0073 0.0711 0.0480 Uiso
C4 C 0.07803(6) -0.15935(15) 0.05473(8) 0.0384 Uani
H9 H 0.0815 -0.1506 0.1007 0.0460 Uiso
H10 H 0.1084 -0.1980 0.0562 0.0460 Uiso
C5 C 0.11256(7) 0.1589(2) -0.02367(9) 0.0540 Uani
H11 H 0.0898 0.2178 -0.0518 0.0650 Uiso
H12 H 0.1040 0.0878 -0.0490 0.0650 Uiso
C6 C 0.16635(8) 0.1899(2) -0.00844(12) 0.0546 Uani
H13 H 0.1894 0.1327 0.0212 0.0660 Uiso
H14 H 0.1746 0.2628 0.0149 0.0660 Uiso
C7 C 0.17410(11) 0.1978(2) -0.07212(14) 0.0689 Uani
H15 H 0.1717 0.1229 -0.0912 0.1030 Uiso
H16 H 0.2074 0.2295 -0.0620 0.1030 Uiso
H17 H 0.1481 0.2463 -0.1040 0.1030 Uiso
Ni2 Ni 0.2500 0.2500 0.5000 0.0229 Uani
N4 N 0.20985(5) 0.27679(17) 0.55502(7) 0.0482 Uani
H18 H 0.1748 0.2492 0.5286 0.0580 Uiso
N5 N 0.2195(2) 0.3919(7) 0.4495(3) 0.0362 Uani
H19 H 0.1850 0.3737 0.4150 0.0430 Uiso
N6 N 0.18528(17) 0.4537(5) 0.5274(4) 0.0563 Uani
C8 C 0.2509(2) 0.4247(7) 0.4154(4) 0.0558 Uani
H20 H 0.2822 0.4610 0.4470 0.0670 Uiso
H21 H 0.2325 0.4784 0.3793 0.0670 Uiso
C9 C 0.2146(2) 0.4835(4) 0.4925(4) 0.0538 Uani
H22 H 0.2487 0.5054 0.5250 0.0640 Uiso
H23 H 0.1992 0.5497 0.4644 0.0640 Uiso
C10 C 0.2073(3) 0.3749(7) 0.5805(4) 0.0532 Uani
H24 H 0.2414 0.4000 0.6112 0.0640 Uiso
H25 H 0.1865 0.3690 0.6057 0.0640 Uiso
C11 C 0.2367(3) 0.1815(7) 0.6131(4) 0.0525 Uani
H26 H 0.2679 0.2127 0.6479 0.0630 Uiso
H27 H 0.2137 0.1625 0.6339 0.0630 Uiso
C12 C 0.13110(14) 0.4342(5) 0.4886(4) 0.0672 Uani
H28 H 0.1254 0.4348 0.4414 0.0810 Uiso
H29 H 0.1246 0.3566 0.4986 0.0810 Uiso
C13 C 0.09977(12) 0.4883(3) 0.4917(2) 0.0501 Uani
H30 H 0.1143 0.5630 0.5083 0.0600 Uiso
H31 H 0.0905 0.4546 0.5257 0.0600 Uiso
C14 C 0.0448(5) 0.5087(12) 0.4211(7) 0.1190 Uani
H32 H 0.0426 0.5872 0.4072 0.1790 Uiso
H33 H 0.0159 0.4904 0.4305 0.1790 Uiso
H34 H 0.0447 0.4601 0.3856 0.1790 Uiso
O1 O 0.02030(3) 0.03304(9) 0.10310(4) 0.0254 Uani
O2 O 0.00115(4) -0.12063(10) 0.14558(5) 0.0345 Uani
O3 O 0.19015(3) 0.16035(10) 0.42636(5) 0.0317 Uani
O4 O 0.12491(4) 0.16197(12) 0.45349(5) 0.0383 Uani
C15 C 0.02045(4) -0.02623(12) 0.15026(6) 0.0218 Uani
C16 C 0.04982(4) 0.02145(11) 0.21894(6) 0.0201 Uani
C17 C 0.10199(4) 0.02638(14) 0.24107(6) 0.0276 Uani
H35 H 0.1167 0.0025 0.2125 0.0330 Uiso
C18 C 0.13264(4) 0.06531(13) 0.30371(6) 0.0273 Uani
H36 H 0.1681 0.0678 0.3179 0.0330 Uiso
C19 C 0.11146(4) 0.10096(11) 0.34604(6) 0.0210 Uani
C20 C 0.05943(4) 0.09644(10) 0.32414(5) 0.0196 Uani
H37 H 0.0450 0.1213 0.3528 0.0240 Uiso
C21 C 0.02771(4) 0.05622(10) 0.26098(5) 0.0178 Uani
C22 C 0.14454(4) 0.14466(12) 0.41432(6) 0.0242 Uani
N1D N -0.01318(5) -0.16530(10) 0.01199(6) 0.0289 Uani
H1D H -0.0133 -0.1727 0.0567 0.0350 Uiso
N2D N -0.07291(4) 0.04886(11) -0.02323(6) 0.0289 Uani
H2D H -0.0765 0.0591 0.0192 0.0350 Uiso
N3D N -0.10430(5) -0.14555(15) -0.03688(7) 0.0437 Uani
C1D C 0.03131(8) -0.22728(14) 0.01416(9) 0.0406 Uani
H3D H 0.0333 -0.3018 0.0347 0.0490 Uiso
H4D H 0.0286 -0.2384 -0.0313 0.0490 Uiso
C2D C -0.06208(7) -0.20709(15) -0.03692(8) 0.0410 Uani
H5D H -0.0656 -0.2869 -0.0274 0.0490 Uiso
H6D H -0.0627 -0.2028 -0.0817 0.0490 Uiso
C3D C -0.11129(5) -0.03448(18) -0.06447(7) 0.0400 Uani
H7D H -0.1107 -0.0386 -0.1086 0.0480 Uiso
H8D H -0.1450 -0.0073 -0.0711 0.0480 Uiso
C4D C -0.07803(6) 0.15935(15) -0.05473(8) 0.0384 Uani
H9D H -0.0815 0.1506 -0.1007 0.0460 Uiso
H10D H -0.1084 0.1980 -0.0562 0.0460 Uiso
C5D C -0.11256(7) -0.1589(2) 0.02367(9) 0.0540 Uani
H11D H -0.0898 -0.2178 0.0518 0.0650 Uiso
H12D H -0.1040 -0.0878 0.0490 0.0650 Uiso
C6D C -0.16635(8) -0.1899(2) 0.00844(12) 0.0546 Uani
H13D H -0.1894 -0.1327 -0.0212 0.0660 Uiso
H14D H -0.1746 -0.2628 -0.0149 0.0660 Uiso
C7D C -0.17410(11) -0.1978(2) 0.07212(14) 0.0689 Uani
H15D H -0.1717 -0.1229 0.0912 0.1030 Uiso
H16D H -0.2074 -0.2295 0.0620 0.1030 Uiso
H17D H -0.1481 -0.2463 0.1040 0.1030 Uiso
N4F N 0.29015(5) 0.22321(17) 0.44498(7) 0.0482 Uani
H18F H 0.3252 0.2508 0.4714 0.0580 Uiso
N5F N 0.2805(2) 0.1081(7) 0.5505(3) 0.0362 Uani
H19F H 0.3150 0.1263 0.5850 0.0430 Uiso
N6F N 0.31472(17) 0.0463(5) 0.4726(4) 0.0563 Uani
C8F C 0.2491(2) 0.0753(7) 0.5846(4) 0.0558 Uani
H20F H 0.2178 0.0390 0.5530 0.0670 Uiso
H21F H 0.2675 0.0216 0.6207 0.0670 Uiso
C9F C 0.2854(2) 0.0165(4) 0.5075(4) 0.0538 Uani
H22F H 0.2513 -0.0054 0.4750 0.0640 Uiso
H23F H 0.3008 -0.0497 0.5356 0.0640 Uiso
C10F C 0.2927(3) 0.1251(7) 0.4195(4) 0.0532 Uani
H24F H 0.2586 0.1000 0.3888 0.0640 Uiso
H25F H 0.3135 0.1310 0.3943 0.0640 Uiso
C11F C 0.2633(3) 0.3185(7) 0.3869(4) 0.0525 Uani
H26F H 0.2321 0.2873 0.3521 0.0630 Uiso
H27F H 0.2863 0.3375 0.3661 0.0630 Uiso
C12F C 0.36890(14) 0.0658(5) 0.5114(4) 0.0672 Uani
H28F H 0.3746 0.0652 0.5586 0.0810 Uiso
H29F H 0.3754 0.1434 0.5014 0.0810 Uiso
C13F C 0.40023(12) 0.0117(3) 0.5083(2) 0.0501 Uani
H30F H 0.3857 -0.0630 0.4917 0.0600 Uiso
H31F H 0.4095 0.0454 0.4743 0.0600 Uiso
C14F C 0.4552(5) -0.0087(12) 0.5789(7) 0.1190 Uani
H32F H 0.4574 -0.0872 0.5928 0.1790 Uiso
H33F H 0.4841 0.0096 0.5695 0.1790 Uiso
H34F H 0.4553 0.0399 0.6144 0.1790 Uiso
O1A O -0.02030(3) 0.03304(9) 0.39690(4) 0.0254 Uani
O2A O -0.00115(4) -0.12063(10) 0.35442(5) 0.0345 Uani
O3A O -0.19015(3) 0.16035(10) 0.07364(5) 0.0317 Uani
O4A O -0.12491(4) 0.16197(12) 0.04651(5) 0.0383 Uani
C15A C -0.02045(4) -0.02623(12) 0.34974(6) 0.0218 Uani
C16A C -0.04982(4) 0.02145(11) 0.28106(6) 0.0201 Uani
C17A C -0.10199(4) 0.02638(14) 0.25893(6) 0.0276 Uani
H35A H -0.1167 0.0025 0.2875 0.0330 Uiso
C18A C -0.13264(4) 0.06531(13) 0.19629(6) 0.0273 Uani
H36A H -0.1681 0.0678 0.1821 0.0330 Uiso
C19A C -0.11146(4) 0.10096(11) 0.15396(6) 0.0210 Uani
C20A C -0.05943(4) 0.09644(10) 0.17586(5) 0.0196 Uani
H37A H -0.0450 0.1213 0.1472 0.0240 Uiso
C21A C -0.02771(4) 0.05622(10) 0.23902(5) 0.0178 Uani
C22A C -0.14454(4) 0.14466(12) 0.08568(6) 0.0242 Uani
Ni1A Ni -0.0000 0.0000 0.5000 0.0195 Uani
Ni2A Ni -0.2500 0.2500 0.0000 0.0229 Uani
O1D O -0.02030(3) -0.03304(9) -0.10310(4) 0.0254 Uani
O3F O 0.30985(3) 0.33965(10) 0.57364(5) 0.0317 Uani
N9 N 0.13275(16) 0.4029(4) 0.3070(2) 0.1485 Uani
C30 C 0.10032(12) 0.3700(3) 0.26286(15) 0.0804 Uani
C31 C 0.05712(14) 0.3308(3) 0.20628(16) 0.0864 Uani
H54 H 0.0267 0.3450 0.2130 0.1300 Uiso
H55 H 0.0604 0.2502 0.2007 0.1300 Uiso
H56 H 0.0548 0.3704 0.1665 0.1300 Uiso
N10 N 0.1018(3) 0.5656(6) 0.1437(3) 0.1768 Uani
C32 C 0.1094(2) 0.6256(5) 0.1893(3) 0.1327 Uani
C33 C 0.1142(3) 0.6946(5) 0.2424(3) 0.1683 Uani
H57 H 0.1276 0.6509 0.2835 0.2520 Uiso
H58 H 0.0812 0.7248 0.2348 0.2520 Uiso
H59 H 0.1372 0.7564 0.2460 0.2520 Uiso
N11 N 0.2789(3) 0.4315(16) 0.2462(5) 0.6034 Uani
C34 C 0.2412(3) 0.3903(11) 0.2117(4) 0.2901 Uani
C35 C 0.1939(3) 0.3339(9) 0.1721(4) 0.2344 Uani
H60 H 0.1929 0.2617 0.1925 0.3520 Uiso
H61 H 0.1912 0.3214 0.1272 0.3520 Uiso
H62 H 0.1657 0.3805 0.1699 0.3520 Uiso
O5 O -0.0000 0.7553(2) 0.2500 0.1444 Uani
H63 H -0.002(2) 0.7962(12) 0.2185(11) 0.1730 Uiso
H63A H 0.002(2) 0.7962(12) 0.2815(11) 0.1730 Uiso
O6 O -0.0000 0.5364(4) 0.2500 0.2393 Uani
H64 H -0.016(3) 0.4947(12) 0.266(4) 0.2880 Uiso
H64A H 0.016(3) 0.4947(12) 0.234(4) 0.2880 Uiso
loop_
_atom_site_aniso_label
_atom_site_aniso_U_11
_atom_site_aniso_U_22
_atom_site_aniso_U_33
_atom_site_aniso_U_23
_atom_site_aniso_U_13
_atom_site_aniso_U_12
Ni1 0.01513(11) 0.03196(13) 0.01127(12) -0.00190(7) 0.00542(8) -0.00118(7)
N1 0.0358(6) 0.0340(6) 0.0201(5) -0.0037(4) 0.0150(5) -0.0051(4)
N2 0.0203(5) 0.0513(7) 0.0167(5) 0.0022(4) 0.0095(4) 0.0052(4)
N3 0.0325(6) 0.0741(10) 0.0244(6) -0.0081(6) 0.0119(5) -0.0252(7)
C1 0.0596(11) 0.0361(7) 0.0353(8) 0.0033(6) 0.0289(8) 0.0106(7)
C2 0.0499(9) 0.0471(8) 0.0267(7) -0.0114(6) 0.0170(7) -0.0229(7)
C3 0.0174(6) 0.0796(12) 0.0200(7) -0.0028(7) 0.0050(5) -0.0043(6)
C4 0.0370(7) 0.0565(9) 0.0279(7) 0.0123(6) 0.0196(6) 0.0205(7)
C5 0.0426(9) 0.0928(15) 0.0307(9) -0.0083(9) 0.0195(7) -0.0314(10)
C6 0.0448(10) 0.0686(13) 0.0616(13) 0.0029(10) 0.0333(10) -0.0038(9)
C7 0.0878(18) 0.0673(14) 0.0826(17) -0.0025(12) 0.0662(16) -0.0117(12)
Ni2 0.01005(11) 0.04283(14) 0.01407(12) -0.00595(8) 0.00327(8) -0.00374(7)
N4 0.0177(5) 0.1027(13) 0.0261(7) -0.0303(7) 0.0110(5) -0.0199(7)
N5 0.0169(19) 0.0554(19) 0.033(3) 0.0075(19) 0.0073(14) -0.0082(15)
N6 0.0245(17) 0.058(3) 0.087(4) -0.033(3) 0.024(3) -0.007(2)
C8 0.039(3) 0.071(4) 0.046(3) 0.015(3) 0.007(2) -0.006(2)
C9 0.028(3) 0.041(2) 0.081(4) -0.007(2) 0.012(3) -0.0042(15)
C10 0.0260(17) 0.086(5) 0.053(4) -0.042(3) 0.022(2) -0.017(3)
C11 0.033(3) 0.103(7) 0.0193(17) 0.001(4) 0.009(2) -0.019(3)
C12 0.0269(16) 0.059(3) 0.103(5) -0.037(3) 0.015(2) -0.0016(16)
C13 0.0247(14) 0.062(2) 0.061(2) -0.0062(16) 0.0156(14) 0.0033(12)
C14 0.031(3) 0.175(11) 0.127(12) -0.015(8) 0.010(6) 0.019(4)
O1 0.0241(4) 0.0401(5) 0.0114(4) -0.0018(3) 0.0069(3) -0.0012(4)
O2 0.0391(5) 0.0481(6) 0.0170(5) -0.0058(4) 0.0126(4) -0.0152(5)
O3 0.0117(4) 0.0589(6) 0.0209(5) -0.0137(4) 0.0034(3) -0.0090(4)
O4 0.0203(4) 0.0775(8) 0.0182(5) -0.0158(5) 0.0091(4) -0.0187(5)
C15 0.0126(4) 0.0407(6) 0.0116(5) -0.0030(4) 0.0045(4) 0.0002(4)
C16 0.0114(4) 0.0377(6) 0.0096(5) -0.0014(4) 0.0028(4) -0.0005(4)
C17 0.0131(5) 0.0551(8) 0.0150(6) -0.0055(5) 0.0062(4) -0.0005(5)
C18 0.0097(4) 0.0542(8) 0.0161(6) -0.0046(5) 0.0036(4) -0.0023(5)
C19 0.0110(4) 0.0382(6) 0.0113(5) -0.0015(4) 0.0022(4) -0.0029(4)
C20 0.0113(4) 0.0353(6) 0.0109(5) -0.0017(4) 0.0033(4) -0.0015(4)
C21 0.0089(4) 0.0332(5) 0.0091(5) 0.0006(4) 0.0017(4) -0.0001(4)
C22 0.0134(5) 0.0422(7) 0.0138(5) -0.0036(4) 0.0025(4) -0.0061(4)
N1D 0.0358 0.034 0.0201 -0.0037 0.015 -0.0051
N2D 0.0203 0.0513 0.0167 0.0022 0.0095 0.0052
N3D 0.0325 0.0741 0.0244 -0.0081 0.0119 -0.0252
C1D 0.0596 0.0361 0.0353 0.0033 0.0289 0.0106
C2D 0.0499 0.0471 0.0267 -0.0114 0.017 -0.0229
C3D 0.0174 0.0796 0.02 -0.0028 0.005 -0.0043
C4D 0.037 0.0565 0.0279 0.0123 0.0196 0.0205
C5D 0.0426 0.0928 0.0307 -0.0083 0.0195 -0.0314
C6D 0.0448 0.0686 0.0616 0.0029 0.0333 -0.0038
C7D 0.0878 0.0673 0.0826 -0.0025 0.0662 -0.0117
N4F 0.0177 0.1027 0.0261 -0.0303 0.011 -0.0199
N5F 0.0169 0.0554 0.033 0.0075 0.0073 -0.0082
N6F 0.0245 0.058 0.087 -0.033 0.024 -0.007
C8F 0.039 0.071 0.046 0.015 0.007 -0.006
C9F 0.028 0.041 0.081 -0.007 0.012 -0.0042
C10F 0.026 0.086 0.053 -0.042 0.022 -0.017
C11F 0.033 0.103 0.0193 0.001 0.009 -0.019
C12F 0.0269 0.059 0.103 -0.037 0.015 -0.0016
C13F 0.0247 0.062 0.061 -0.0062 0.0156 0.0033
C14F 0.031 0.175 0.127 -0.015 0.01 0.019
O1A 0.0241 0.0401 0.0114 0.0018 0.0069 0.0012
O2A 0.0391 0.0481 0.017 0.0058 0.0126 0.0152
O3A 0.0117 0.0589 0.0209 0.0137 0.0034 0.009
O4A 0.0203 0.0775 0.0182 0.0158 0.0091 0.0187
C15A 0.0126 0.0407 0.0116 0.003 0.0045 -0.0002
C16A 0.0114 0.0377 0.0096 0.0014 0.0028 0.0005
C17A 0.0131 0.0551 0.015 0.0055 0.0062 0.0005
C18A 0.0097 0.0542 0.0161 0.0046 0.0036 0.0023
C19A 0.011 0.0382 0.0113 0.0015 0.0022 0.0029
C20A 0.0113 0.0353 0.0109 0.0017 0.0033 0.0015
C21A 0.0089 0.0332 0.0091 -0.0006 0.0017 0.0001
C22A 0.0134 0.0422 0.0138 0.0036 0.0025 0.0061
Ni1A 0.01513 0.03196 0.01127 0.0019 0.00542 0.00118
Ni2A 0.01005 0.04283 0.01407 0.00595 0.00327 0.00374
O1D 0.0241 0.0401 0.0114 -0.0018 0.0069 -0.0012
O3F 0.0117 0.0589 0.0209 -0.0137 0.0034 -0.009
N9 0.114(3) 0.134(3) 0.103(3) 0.028(2) -0.046(2) -0.009(2)
C30 0.0729(17) 0.0772(17) 0.0641(17) 0.0234(13) 0.0027(14) 0.0127(13)
C31 0.092(2) 0.0744(17) 0.0673(18) 0.0035(13) 0.0088(15) -0.0016(15)
N10 0.256(7) 0.179(5) 0.124(4) 0.050(4) 0.108(5) 0.043(5)
C32 0.185(5) 0.125(4) 0.118(4) 0.060(3) 0.093(4) 0.051(4)
C33 0.257(8) 0.116(4) 0.141(5) 0.007(4) 0.093(6) 0.027(5)
N11 0.149(6) 1.38(5) 0.234(11) 0.35(2) 0.035(7) -0.181(16)
C34 0.137(6) 0.59(2) 0.150(7) 0.177(10) 0.067(6) -0.001(10)
C35 0.157(7) 0.356(14) 0.157(7) -0.061(8) 0.034(6) -0.007(8)
O5 0.356(8) 0.0473(14) 0.097(3) 0.000 0.161(4) 0.000
O6 0.461(14) 0.078(3) 0.336(10) 0.000 0.321(11) 0.000
loop_
_geom_bond_atom_site_label_1
_geom_bond_atom_site_label_2
_geom_bond_site_symmetry_1
_geom_bond_site_symmetry_2
Ni1 N1 1_555 1_555
N1 H1 1_555 1_555
N2 Ni1 1_555 1_555
H2 N2 1_555 1_555
N3 C2 1_555 1_555
C1 N1 1_555 1_555
H3 C1 1_555 1_555
H4 C1 1_555 1_555
C2 N1 1_555 1_555
H5 C2 1_555 1_555
H6 C2 1_555 1_555
C3 N2 1_555 1_555
H7 C3 1_555 1_555
H8 C3 1_555 1_555
C4 N2 1_555 1_555
H9 C4 1_555 1_555
H10 C4 1_555 1_555
C5 N3 1_555 1_555
H11 C5 1_555 1_555
H12 C5 1_555 1_555
C6 C5 1_555 1_555
H13 C6 1_555 1_555
H14 C6 1_555 1_555
C7 C6 1_555 1_555
H15 C7 1_555 1_555
H16 C7 1_555 1_555
H17 C7 1_555 1_555
Ni2 N4 1_555 1_555
N4 H18 1_555 1_555
N5 Ni2 1_555 1_555
H19 N5 1_555 1_555
N6 C9 1_555 1_555
C8 N5 1_555 1_555
H20 C8 1_555 1_555
H21 C8 1_555 1_555
C9 N5 1_555 1_555
H22 C9 1_555 1_555
H23 C9 1_555 1_555
C10 N4 1_555 1_555
H24 C10 1_555 1_555
H25 C10 1_555 1_555
C11 N4 1_555 1_555
H26 C11 1_555 1_555
H27 C11 1_555 1_555
C12 N6 1_555 1_555
H28 C12 1_555 1_555
H29 C12 1_555 1_555
C13 C12 1_555 1_555
H30 C13 1_555 1_555
H31 C13 1_555 1_555
C14 C13 1_555 1_555
H32 C14 1_555 1_555
H33 C14 1_555 1_555
H34 C14 1_555 1_555
O1 Ni1 1_555 1_555
O2 C15 1_555 1_555
O3 Ni2 1_555 1_555
O4 C22 1_555 1_555
C15 O1 1_555 1_555
C16 C15 1_555 1_555
C17 C16 1_555 1_555
H35 C17 1_555 1_555
C18 C17 1_555 1_555
H36 C18 1_555 1_555
C19 C18 1_555 1_555
C20 C19 1_555 1_555
H37 C20 1_555 1_555
C21 C16 1_555 1_555
C22 O3 1_555 1_555
N9 C30 1_555 1_555
C30 C31 1_555 1_555
C31 H54 1_555 1_555
H55 C31 1_555 1_555
H56 C31 1_555 1_555
N10 C32 1_555 1_555
C32 C33 1_555 1_555
C33 H57 1_555 1_555
H58 C33 1_555 1_555
H59 C33 1_555 1_555
N11 C34 1_555 1_555
C34 C35 1_555 1_555
C35 H60 1_555 1_555
H61 C35 1_555 1_555
H62 C35 1_555 1_555
O5 H63 1_555 1_555
O6 H64 1_555 1_555
N1D Ni1 1_555 1_555
H1D N1D 1_555 1_555
N2D Ni1 1_555 1_555
H2D N2D 1_555 1_555
N3D C2D 1_555 1_555
C1D C4 1_555 1_555
H3D C1D 1_555 1_555
H4D C1D 1_555 1_555
C2D N1D 1_555 1_555
H5D C2D 1_555 1_555
H6D C2D 1_555 1_555
C3D N2D 1_555 1_555
H7D C3D 1_555 1_555
H8D C3D 1_555 1_555
C4D C1 1_555 1_555
H9D C4D 1_555 1_555
H10D C4D 1_555 1_555
C5D N3D 1_555 1_555
H11D C5D 1_555 1_555
H12D C5D 1_555 1_555
C6D C5D 1_555 1_555
H13D C6D 1_555 1_555
H14D C6D 1_555 1_555
C7D C6D 1_555 1_555
H15D C7D 1_555 1_555
H16D C7D 1_555 1_555
H17D C7D 1_555 1_555
N4F Ni2 1_555 1_555
H18F N4F 1_555 1_555
N5F Ni2 1_555 1_555
H19F N5F 1_555 1_555
N6F C9F 1_555 1_555
C8F C11 1_555 1_555
H20F C8F 1_555 1_555
H21F C8F 1_555 1_555
C9F N5F 1_555 1_555
H22F C9F 1_555 1_555
H23F C9F 1_555 1_555
C10F N4F 1_555 1_555
H24F C10F 1_555 1_555
H25F C10F 1_555 1_555
C11F C8 1_555 1_555
H26F C11F 1_555 1_555
H27F C11F 1_555 1_555
C12F N6F 1_555 1_555
H28F C12F 1_555 1_555
H29F C12F 1_555 1_555
C13F C12F 1_555 1_555
H30F C13F 1_555 1_555
H31F C13F 1_555 1_555
C14F C13F 1_555 1_555
H32F C14F 1_555 1_555
H33F C14F 1_555 1_555
H34F C14F 1_555 1_555
O1A C15A 1_555 1_555
O2A C15A 1_555 1_555
O3A C22A 1_555 1_555
O4A C22A 1_555 1_555
C15A C16A 1_555 1_555
C16A C17A 1_555 1_555
C17A H35A 1_555 1_555
C18A C17A 1_555 1_555
H36A C18A 1_555 1_555
C19A C18A 1_555 1_555
C20A C19A 1_555 1_555
H37A C20A 1_555 1_555
C21A C21 1_555 1_555
C22A C19A 1_555 1_555
Ni1A O1A 1_555 1_555
Ni2A O3A 1_555 1_555
O1D Ni1 1_555 1_555
O3F Ni2 1_555 1_555
H63A O5 1_555 1_555
H64A O6 1_555 1_555
N3 C3 1_555 1_555
N6 C10 1_555 1_555
C19 C22 1_555 1_555
C20 C21 1_555 1_555
N1D C1D 1_555 1_555
N2D C4D 1_555 1_555
N3D C3D 1_555 1_555
N4F C11F 1_555 1_555
N5F C8F 1_555 1_555
N6F C10F 1_555 1_555
C16A C21A 1_555 1_555
C20A C21A 1_555 1_555

#END
