
#######################################################################
#
#                 Cambridge Crystallographic Data Centre
#                                CCDC 
#
#######################################################################
#
# If this CIF has been generated from an entry in the Cambridge 
# Structural Database, then it will include bibliographic, chemical, 
# crystal, experimental, refinement or atomic coordinate data resulting 
# from the CCDC's data processing and validation procedures.
#
#######################################################################

data_OKANOF
_chemical_formula_moiety         '(C30 H24 Co1 N4 O6)n'
_symmetry_cell_setting           trigonal
_symmetry_space_group_name_H-M   'P 31 2 1'
_symmetry_Int_Tables_number      152
_space_group_name_Hall           'P 31 2"'
loop_
_symmetry_equiv_pos_site_id
_symmetry_equiv_pos_as_xyz
1 x,y,z
2 -y,x-y,1/3+z
3 -x+y,-x,2/3+z
4 y,x,-z
5 x-y,-y,2/3-z
6 -x,-x+y,1/3-z
_cell_length_a                   12.9013(4)
_cell_length_b                   12.9013(4)
_cell_length_c                   15.3095(9)
_cell_angle_alpha                90
_cell_angle_beta                 90
_cell_angle_gamma                120
_cell_volume                     2206.78
loop_
_atom_site_label
_atom_site_type_symbol
_atom_site_fract_x
_atom_site_fract_y
_atom_site_fract_z
_atom_site_U_iso_or_equiv
_atom_site_thermal_displace_type
Co1 Co 0.61464(4) 0.61464(4) 0.0000 0.0418 Uani
O1 O 0.0884(2) 0.4289(2) 0.54646(11) 0.0526 Uani
O2 O 0.2382(2) 0.3965(3) 0.57411(14) 0.0743 Uani
N1 N 0.4474(2) 0.5644(2) 0.05518(14) 0.0500 Uani
C1 C 0.4373(3) 0.5774(3) 0.13908(17) 0.0533 Uani
H1 H 0.5021 0.6251 0.1749 0.0640 Uiso
N2 N 0.3244(2) 0.5152(3) 0.16821(15) 0.0615 Uani
C2 C 0.3324(3) 0.4862(3) 0.02644(16) 0.0494 Uani
C3 C 0.1796(3) 0.4249(3) 0.52517(17) 0.0489 Uani
C4 C 0.2541(3) 0.4537(4) 0.09670(19) 0.0652 Uani
C5 C 0.2894(3) 0.4973(3) 0.25868(19) 0.0583 Uani
C6 C 0.2216(3) 0.4556(3) 0.43149(17) 0.0508 Uani
C7 C 0.1831(4) 0.5142(4) 0.3783(2) 0.0660 Uani
H2 H 0.1332 0.5403 0.4009 0.0790 Uiso
C8 C 0.2911(3) 0.4366(3) -0.05565(19) 0.0599 Uani
H3 H 0.3424 0.4579 -0.1034 0.0720 Uiso
C9 C 0.2167(4) 0.5359(4) 0.2910(2) 0.0691 Uani
H4 H 0.1898 0.5761 0.2555 0.0830 Uiso
C10 C 0.2956(5) 0.4195(5) 0.3979(2) 0.0984 Uani
H5 H 0.3241 0.3810 0.4336 0.1180 Uiso
C11 C 0.1704(4) 0.3543(4) -0.0632(3) 0.0846 Uani
H6 H 0.1395 0.3198 -0.1172 0.1020 Uiso
C12 C 0.1348(4) 0.3721(6) 0.0889(3) 0.1088 Uani
H7 H 0.0828 0.3511 0.1362 0.1300 Uiso
C13 C 0.3293(5) 0.4397(5) 0.3105(2) 0.1002 Uani
H8 H 0.3792 0.4137 0.2878 0.1200 Uiso
C14 C 0.0957(4) 0.3225(5) 0.0075(3) 0.1150 Uani
H9 H 0.0155 0.2653 0.0003 0.1380 Uiso
O3 O 0.6904(2) 0.7981(2) 0.04391(13) 0.0618 Uani
H10 H 0.6769 0.8325 0.0017 0.0930 Uiso
C15 C 0.8158(4) 0.8568(4) 0.0395(2) 0.0834 Uani
H11 H 0.8469 0.8405 0.0922 0.1000 Uiso
H12 H 0.8475 0.9426 0.0361 0.1000 Uiso
O3C O 0.7981(2) 0.6904(2) -0.04391(13) 0.0618 Uani
H10C H 0.8325 0.6769 -0.0017 0.0930 Uiso
C15C C 0.8568(4) 0.8158(4) -0.0395(2) 0.0834 Uani
H11C H 0.8405 0.8469 -0.0922 0.1000 Uiso
H12C H 0.9426 0.8475 -0.0361 0.1000 Uiso
O1C O 0.4289(2) 0.0884(2) -0.54646(11) 0.0526 Uani
O2C O 0.3965(3) 0.2382(2) -0.57411(14) 0.0743 Uani
N1C N 0.5644(2) 0.4474(2) -0.05518(14) 0.0500 Uani
C1C C 0.5774(3) 0.4373(3) -0.13908(17) 0.0533 Uani
H1C H 0.6251 0.5021 -0.1749 0.0640 Uiso
N2C N 0.5152(3) 0.3244(2) -0.16821(15) 0.0615 Uani
C2C C 0.4862(3) 0.3324(3) -0.02644(16) 0.0494 Uani
C3C C 0.4249(3) 0.1796(3) -0.52517(17) 0.0489 Uani
C4C C 0.4537(4) 0.2541(3) -0.09670(19) 0.0652 Uani
C5C C 0.4973(3) 0.2894(3) -0.25868(19) 0.0583 Uani
C6C C 0.4556(3) 0.2216(3) -0.43149(17) 0.0508 Uani
C7C C 0.5142(4) 0.1831(4) -0.3783(2) 0.0660 Uani
H2C H 0.5403 0.1332 -0.4009 0.0790 Uiso
C8C C 0.4366(3) 0.2911(3) 0.05565(19) 0.0599 Uani
H3C H 0.4579 0.3424 0.1034 0.0720 Uiso
C9C C 0.5359(4) 0.2167(4) -0.2910(2) 0.0691 Uani
H4C H 0.5761 0.1898 -0.2555 0.0830 Uiso
C10C C 0.4195(5) 0.2956(5) -0.3979(2) 0.0984 Uani
H5C H 0.3810 0.3241 -0.4336 0.1180 Uiso
C11C C 0.3543(4) 0.1704(4) 0.0632(3) 0.0846 Uani
H6C H 0.3198 0.1395 0.1172 0.1020 Uiso
C12C C 0.3721(6) 0.1348(4) -0.0889(3) 0.1088 Uani
H7C H 0.3511 0.0828 -0.1362 0.1300 Uiso
C13C C 0.4397(5) 0.3293(5) -0.3105(2) 0.1002 Uani
H8C H 0.4137 0.3792 -0.2878 0.1200 Uiso
C14C C 0.3225(5) 0.0957(4) -0.0075(3) 0.1150 Uani
H9C H 0.2653 0.0155 -0.0003 0.1380 Uiso
Co1A Co 0.38536(4) -0.00000(6) -0.6667 0.0418 Uani
Co1B Co -0.00000(6) 0.38536(4) 0.6667 0.0418 Uani
O1A O 0.5711(2) 0.6595(3) -0.12021(11) 0.0526 Uani
O1D O 0.6595(3) 0.5711(2) 0.12021(11) 0.0526 Uani
loop_
_atom_site_aniso_label
_atom_site_aniso_U_11
_atom_site_aniso_U_22
_atom_site_aniso_U_33
_atom_site_aniso_U_23
_atom_site_aniso_U_13
_atom_site_aniso_U_12
Co1 0.0517(2) 0.0517(2) 0.0180(2) -0.00028(10) 0.00028(10) 0.0228(3)
O1 0.0663(13) 0.0780(14) 0.0253(8) 0.0032(9) 0.0071(8) 0.0449(12)
O2 0.0795(16) 0.131(2) 0.0366(11) 0.0153(12) 0.0055(11) 0.0707(16)
N1 0.0536(14) 0.0663(15) 0.0267(10) 0.0012(10) 0.0028(10) 0.0275(12)
C1 0.0530(17) 0.073(2) 0.0289(12) -0.0005(13) 0.0039(12) 0.0277(15)
N2 0.0540(15) 0.100(2) 0.0303(11) 0.0041(12) 0.0063(10) 0.0384(14)
C2 0.0525(15) 0.0670(19) 0.0320(12) 0.0069(12) -0.0029(11) 0.0324(15)
C3 0.0546(17) 0.0641(19) 0.0290(12) -0.0013(12) 0.0004(12) 0.0304(15)
C4 0.0502(16) 0.101(3) 0.0385(14) 0.0079(16) 0.0007(12) 0.0333(18)
C5 0.0557(18) 0.090(2) 0.0301(13) 0.0070(14) 0.0099(13) 0.0372(17)
C6 0.0531(17) 0.0718(19) 0.0301(12) 0.0015(12) 0.0054(12) 0.0332(15)
C7 0.090(3) 0.093(3) 0.0408(17) 0.0125(16) 0.0180(17) 0.065(2)
C8 0.0682(19) 0.079(2) 0.0361(14) 0.0035(14) -0.0097(13) 0.0394(18)
C9 0.093(3) 0.093(3) 0.0405(16) 0.0199(17) 0.0173(17) 0.061(2)
C10 0.125(4) 0.194(5) 0.0404(17) 0.030(2) 0.022(2) 0.128(4)
C11 0.078(3) 0.108(3) 0.055(2) -0.003(2) -0.029(2) 0.037(2)
C12 0.054(2) 0.172(5) 0.065(2) 0.012(3) 0.0032(18) 0.030(3)
C13 0.123(4) 0.196(6) 0.0474(18) 0.030(3) 0.030(2) 0.129(4)
C14 0.055(2) 0.150(6) 0.089(3) 0.004(3) -0.022(2) 0.013(3)
O3 0.0825(17) 0.0614(13) 0.0320(9) -0.0055(9) -0.0059(10) 0.0288(12)
C15 0.086(3) 0.065(2) 0.065(2) -0.0160(19) -0.009(2) 0.012(2)
O3C 0.0614 0.0825 0.032 0.0059 0.0055 0.0288
C15C 0.065 0.086 0.065 0.009 0.016 0.012
O1C 0.078 0.0663 0.0253 -0.0071 -0.0032 0.0449
O2C 0.131 0.0795 0.0366 -0.0055 -0.0153 0.0707
N1C 0.0663 0.0536 0.0267 -0.0028 -0.0012 0.0275
C1C 0.073 0.053 0.0289 -0.0039 0.0005 0.0277
N2C 0.1 0.054 0.0303 -0.0063 -0.0041 0.0384
C2C 0.067 0.0525 0.032 0.0029 -0.0069 0.0324
C3C 0.0641 0.0546 0.029 -0.0004 0.0013 0.0304
C4C 0.101 0.0502 0.0385 -0.0007 -0.0079 0.0333
C5C 0.09 0.0557 0.0301 -0.0099 -0.007 0.0372
C6C 0.0718 0.0531 0.0301 -0.0054 -0.0015 0.0332
C7C 0.093 0.09 0.0408 -0.018 -0.0125 0.065
C8C 0.079 0.0682 0.0361 0.0097 -0.0035 0.0394
C9C 0.093 0.093 0.0405 -0.0173 -0.0199 0.061
C10C 0.194 0.125 0.0404 -0.022 -0.03 0.128
C11C 0.108 0.078 0.055 0.029 0.003 0.037
C12C 0.172 0.054 0.065 -0.0032 -0.012 0.03
C13C 0.196 0.123 0.0474 -0.03 -0.03 0.129
C14C 0.15 0.055 0.089 0.022 -0.004 0.013
Co1A 0.0517 0.0578 0.018 0.00056 0.00028 0.0289
Co1B 0.0578 0.0517 0.018 -0.00028 -0.00056 0.0289
O1A 0.078 0.0545 0.0253 0.0039 -0.0032 0.0331
O1D 0.0545 0.078 0.0253 0.0032 -0.0039 0.0331
loop_
_geom_bond_atom_site_label_1
_geom_bond_atom_site_label_2
_geom_bond_site_symmetry_1
_geom_bond_site_symmetry_2
Co1 N1 1_555 1_555
O1 C3 1_555 1_555
O2 C3 1_555 1_555
N1 C1 1_555 1_555
C1 H1 1_555 1_555
N2 C1 1_555 1_555
C2 N1 1_555 1_555
C3 C6 1_555 1_555
C4 N2 1_555 1_555
C5 N2 1_555 1_555
C6 C7 1_555 1_555
C7 H2 1_555 1_555
C8 C2 1_555 1_555
H3 C8 1_555 1_555
C9 C5 1_555 1_555
H4 C9 1_555 1_555
C10 C6 1_555 1_555
H5 C10 1_555 1_555
C11 C8 1_555 1_555
H6 C11 1_555 1_555
C12 C4 1_555 1_555
H7 C12 1_555 1_555
C13 C5 1_555 1_555
H8 C13 1_555 1_555
C14 C11 1_555 1_555
H9 C14 1_555 1_555
O3 Co1 1_555 1_555
H10 O3 1_555 1_555
C15 O3 1_555 1_555
H11 C15 1_555 1_555
H12 C15 1_555 1_555
O3C Co1 1_555 1_555
H10C O3C 1_555 1_555
C15C C15 1_555 1_555
H11C C15C 1_555 1_555
H12C C15C 1_555 1_555
O1C C3C 1_555 1_555
O2C C3C 1_555 1_555
N1C Co1 1_555 1_555
C1C N1C 1_555 1_555
H1C C1C 1_555 1_555
N2C C1C 1_555 1_555
C2C N1C 1_555 1_555
C3C C6C 1_555 1_555
C4C N2C 1_555 1_555
C5C N2C 1_555 1_555
C6C C7C 1_555 1_555
C7C H2C 1_555 1_555
C8C C2C 1_555 1_555
H3C C8C 1_555 1_555
C9C C5C 1_555 1_555
H4C C9C 1_555 1_555
C10C C6C 1_555 1_555
H5C C10C 1_555 1_555
C11C C8C 1_555 1_555
H6C C11C 1_555 1_555
C12C C4C 1_555 1_555
H7C C12C 1_555 1_555
C13C C5C 1_555 1_555
H8C C13C 1_555 1_555
C14C C11C 1_555 1_555
H9C C14C 1_555 1_555
Co1A O1C 1_555 1_555
Co1B O1 1_555 1_555
O1A Co1 1_555 1_555
O1D Co1 1_555 1_555
C2 C4 1_555 1_555
C7 C9 1_555 1_555
C10 C13 1_555 1_555
C12 C14 1_555 1_555
O3C C15C 1_555 1_555
C2C C4C 1_555 1_555
C7C C9C 1_555 1_555
C10C C13C 1_555 1_555
C12C C14C 1_555 1_555

#END
