
#######################################################################
#
#                 Cambridge Crystallographic Data Centre
#                                CCDC 
#
#######################################################################
#
# If this CIF has been generated from an entry in the Cambridge 
# Structural Database, then it will include bibliographic, chemical, 
# crystal, experimental, refinement or atomic coordinate data resulting 
# from the CCDC's data processing and validation procedures.
#
#######################################################################

data_HUTTIA
_chemical_formula_moiety         '(C55 H47 F12 N7 O11 Zn2)n'
_symmetry_cell_setting           orthorhombic
_symmetry_space_group_name_H-M   'P c a 21'
_symmetry_Int_Tables_number      29
_space_group_name_Hall           'P 2c -2ac'
loop_
_symmetry_equiv_pos_site_id
_symmetry_equiv_pos_as_xyz
1 x,y,z
2 -x,-y,1/2+z
3 1/2+x,-y,z
4 1/2-x,y,1/2+z
_cell_length_a                   22.670(4)
_cell_length_b                   16.086(3)
_cell_length_c                   15.833(3)
_cell_angle_alpha                90
_cell_angle_beta                 90
_cell_angle_gamma                90
_cell_volume                     5773.81
loop_
_atom_site_label
_atom_site_type_symbol
_atom_site_fract_x
_atom_site_fract_y
_atom_site_fract_z
Zn1 Zn 0.74077(3) 0.43893(4) 0.31233(4)
Zn2 Zn 0.74772(3) 0.55528(4) 0.16544(4)
O1 O 0.8090(2) 0.3959(3) 0.2371(3)
O2 O 0.8150(2) 0.4833(3) 0.1271(3)
O3 O 1.2008(2) 0.4043(3) -0.2334(3)
O4 O 1.1988(2) 0.4915(2) -0.1237(3)
O5 O 0.6774(2) 0.5983(3) 0.2335(3)
O6 O 0.6786(2) 0.5212(3) 0.3523(3)
O7 O 0.3065(2) 0.5234(2) 0.6031(3)
O8 O 0.3148(2) 0.6027(3) 0.7177(3)
N1 N 0.7312(2) 0.3329(3) 0.3815(3)
N2 N 0.7218(3) 0.0318(3) 0.4591(4)
N3 N 0.7234(3) -0.0388(3) 0.5126(4)
N4 N 0.7423(2) -0.3387(3) 0.5964(4)
F1 F 0.92890(18) 0.1219(3) -0.0145(3)
F2 F 0.94893(19) 0.2045(3) -0.1165(3)
F3 F 1.00460(18) 0.0984(2) -0.0908(3)
F4 F 1.09023(17) 0.1193(2) 0.0232(3)
F5 F 1.0134(2) 0.0943(2) 0.0982(3)
F6 F 1.06950(19) 0.1976(2) 0.1294(3)
F7 F 0.5492(2) 0.8233(3) 0.5790(3)
F8 F 0.5668(2) 0.9003(2) 0.4719(3)
F9 F 0.4907(2) 0.9255(2) 0.5495(3)
F10 F 0.4831(2) 0.9180(2) 0.3595(3)
F11 F 0.40593(19) 0.8972(2) 0.4348(3)
F12 F 0.42733(18) 0.8125(2) 0.3346(3)
C1 C 0.8303(3) 0.4203(3) 0.1662(5)
C2 C 0.8770(3) 0.3677(4) 0.1293(4)
C3 C 0.8979(3) 0.2968(4) 0.1683(5)
H1 H 0.8823 0.2814 0.2218
C4 C 0.9411(3) 0.2472(4) 0.1313(4)
H2 H 0.9543 0.1983 0.1592
C5 C 0.9648(3) 0.2692(4) 0.0537(4)
C6 C 0.9447(3) 0.3414(4) 0.0137(5)
H3 H 0.9610 0.3577 -0.0390
C7 C 0.9016(3) 0.3887(4) 0.0505(5)
H4 H 0.8879 0.4370 0.0221
C8 C 1.0099(3) 0.2136(3) 0.0057(5)
C9 C 0.9739(3) 0.1589(4) -0.0552(5)
C10 C 1.0452(3) 0.1552(4) 0.0641(5)
C11 C 1.0556(3) 0.2679(4) -0.0404(4)
C12 C 1.0822(3) 0.3330(4) 0.0033(5)
H5 H 1.0718 0.3424 0.0607
C13 C 1.1238(3) 0.3847(3) -0.0349(5)
H6 H 1.1410 0.4294 -0.0043
C14 C 1.1397(3) 0.3703(3) -0.1179(4)
C15 C 1.1145(3) 0.3056(4) -0.1632(4)
H7 H 1.1256 0.2958 -0.2202
C16 C 1.0728(3) 0.2553(4) -0.1242(4)
H8 H 1.0554 0.2112 -0.1553
C17 C 1.1837(3) 0.4262(4) -0.1620(4)
C18 C 0.6616(2) 0.5815(3) 0.3071(5)
C19 C 0.6155(3) 0.6393(4) 0.3462(4)
C20 C 0.5954(3) 0.7064(4) 0.2998(5)
H9 H 0.6106 0.7158 0.2447
C21 C 0.5530(3) 0.7604(4) 0.3329(4)
H10 H 0.5389 0.8058 0.3003
C22 C 0.5316(3) 0.7467(3) 0.4152(4)
C23 C 0.5539(3) 0.6795(3) 0.4621(4)
H11 H 0.5404 0.6706 0.5181
C24 C 0.5952(3) 0.6262(4) 0.4278(4)
H12 H 0.6096 0.5807 0.4599
C25 C 0.4864(3) 0.8044(3) 0.4584(4)
C26 C 0.5233(3) 0.8635(4) 0.5167(5)
C27 C 0.4511(3) 0.8576(4) 0.3956(5)
C28 C 0.4425(3) 0.7516(4) 0.5100(5)
C29 C 0.4160(3) 0.6845(3) 0.4681(4)
H13 H 0.4246 0.6749 0.4102
C30 C 0.3777(3) 0.6326(4) 0.5100(4)
H14 H 0.3599 0.5875 0.4808
C31 C 0.3648(3) 0.6457(3) 0.5951(5)
C32 C 0.3892(3) 0.7132(4) 0.6346(4)
H15 H 0.3796 0.7238 0.6920
C33 C 0.4275(3) 0.7664(4) 0.5934(5)
H16 H 0.4436 0.8130 0.6223
C34 C 0.3259(3) 0.5864(4) 0.6420(4)
C35 C 0.7259(4) 0.2630(4) 0.3369(5)
H17 H 0.7266 0.2665 0.2770
C36 C 0.7195(3) 0.1856(4) 0.3742(5)
H18 H 0.7136 0.1375 0.3405
C37 C 0.7218(3) 0.1797(4) 0.4616(5)
C38 C 0.7273(3) 0.2522(4) 0.5072(5)
H19 H 0.7281 0.2506 0.5672
C39 C 0.7317(3) 0.3288(4) 0.4647(4)
H20 H 0.7351 0.3785 0.4966
C40 C 0.7206(3) 0.0983(4) 0.5035(4)
H21 H 0.7191 0.0950 0.5633
C41 C 0.7264(3) -0.1074(4) 0.4705(5)
H22 H 0.7254 -0.1061 0.4105
C42 C 0.7314(3) -0.1875(4) 0.5147(5)
C43 C 0.7287(3) -0.2618(4) 0.4706(5)
H23 H 0.7234 -0.2614 0.4111
C44 C 0.7337(3) -0.3356(4) 0.5125(5)
H24 H 0.7310 -0.3860 0.4815
C45 C 0.7448(4) -0.2656(4) 0.6390(5)
H25 H 0.7506 -0.2670 0.6984
C46 C 0.7394(4) -0.1906(4) 0.6007(5)
H26 H 0.7412 -0.1408 0.6329
Zn1A Zn 0.25923(3) 0.56107(4) 0.81233(4)
Zn1A_2 Zn 1.25923(3) 0.56107(4) -0.18767(4)
Zn2A Zn 0.25228(3) 0.44472(4) 0.66544(4)
Zn2A_2 Zn 1.25228(3) 0.44472(4) -0.33456(4)
Zn2C Zn 0.75228(3) -0.44472(4) 0.66544(4)
O3A O 0.7992(2) 0.5957(3) 0.2666(3)
O4A O 0.8012(2) 0.5085(2) 0.3763(3)
O7A O 0.6935(2) 0.4766(2) 0.1031(3)
O8A O 0.6852(2) 0.3973(3) 0.2177(3)
N4C N 0.7577(2) 0.6613(3) 0.0964(4)
O9 O 0.2971(3) 0.8819(4) 0.2104(4)
N5 N 0.3509(3) 0.9970(5) 0.2395(6)
C47 C 0.3086(4) 0.9416(7) 0.2554(6)
H27 H 0.2857 0.9491 0.3051
C48 C 0.3539(13) 1.059(2) 0.309(3)
H28 H 0.3386 1.0336 0.3609
H29 H 0.3302 1.1074 0.2941
H30 H 0.3950 1.0755 0.3176
C49 C 0.3877(4) 0.9892(7) 0.1679(7)
H31 H 0.3822 0.9342 0.1425
H32 H 0.4290 0.9957 0.1849
H33 H 0.3776 1.0322 0.1266
O10 O 0.7955(3) -0.1005(5) 0.7601(4)
N6 N 0.8637(3) -0.0012(4) 0.7273(5)
C50 C 0.8414(4) -0.0598(6) 0.7750(6)
H34 H 0.8619 -0.0726 0.8256
C51 C 0.9161(5) 0.0424(7) 0.7545(7)
H35 H 0.9314 0.0164 0.8061
H36 H 0.9064 0.1007 0.7660
H37 H 0.9461 0.0396 0.7101
C52 C 0.8372(5) 0.0286(6) 0.6497(5)
H38 H 0.8071 -0.0110 0.6308
H39 H 0.8677 0.0339 0.6061
H40 H 0.8189 0.0829 0.6596
O11 O 1.0347(4) 0.3725(5) -0.3438(6)
N7 N 1.0158(3) 0.4720(5) -0.2467(6)
C53 C 1.0502(5) 0.4330(6) -0.3022(7)
H41 H 1.0892 0.4532 -0.3100
C54 C 1.0371(4) 0.5351(6) -0.1905(7)
H42 H 1.0796 0.5425 -0.1988
H43 H 1.0296 0.5183 -0.1320
H44 H 1.0167 0.5876 -0.2021
C55 C 0.9582(6) 0.4402(10) -0.2240(12)
H45 H 0.9521 0.4468 -0.1630
H46 H 0.9558 0.3812 -0.2388
H47 H 0.9277 0.4711 -0.2546
loop_
_geom_bond_atom_site_label_1
_geom_bond_atom_site_label_2
_geom_bond_site_symmetry_1
_geom_bond_site_symmetry_2
Zn1 O1 1_555 1_555
Zn2 O2 1_555 1_555
O1 C1 1_555 1_555
O2 C1 1_555 1_555
O3 C17 1_555 1_555
O4 C17 1_555 1_555
O5 Zn2 1_555 1_555
O6 Zn1 1_555 1_555
O7 C34 1_555 1_555
O8 C34 1_555 1_555
N1 Zn1 1_555 1_555
N2 N3 1_555 1_555
N3 C41 1_555 1_555
N4 C44 1_555 1_555
F1 C9 1_555 1_555
F2 C9 1_555 1_555
F3 C9 1_555 1_555
F4 C10 1_555 1_555
F5 C10 1_555 1_555
F6 C10 1_555 1_555
F7 C26 1_555 1_555
F8 C26 1_555 1_555
F9 C26 1_555 1_555
F10 C27 1_555 1_555
F11 C27 1_555 1_555
F12 C27 1_555 1_555
C1 C2 1_555 1_555
C2 C3 1_555 1_555
C3 H1 1_555 1_555
C4 C3 1_555 1_555
H2 C4 1_555 1_555
C5 C4 1_555 1_555
C6 C5 1_555 1_555
H3 C6 1_555 1_555
C7 C2 1_555 1_555
H4 C7 1_555 1_555
C8 C5 1_555 1_555
C9 C8 1_555 1_555
C10 C8 1_555 1_555
C11 C8 1_555 1_555
C12 C11 1_555 1_555
H5 C12 1_555 1_555
C13 C12 1_555 1_555
H6 C13 1_555 1_555
C14 C13 1_555 1_555
C15 C14 1_555 1_555
H7 C15 1_555 1_555
C16 C11 1_555 1_555
H8 C16 1_555 1_555
C17 C14 1_555 1_555
C18 O5 1_555 1_555
C19 C18 1_555 1_555
C20 C19 1_555 1_555
H9 C20 1_555 1_555
C21 C20 1_555 1_555
H10 C21 1_555 1_555
C22 C21 1_555 1_555
C23 C22 1_555 1_555
H11 C23 1_555 1_555
C24 C19 1_555 1_555
H12 C24 1_555 1_555
C25 C22 1_555 1_555
C26 C25 1_555 1_555
C27 C25 1_555 1_555
C28 C25 1_555 1_555
C29 C28 1_555 1_555
H13 C29 1_555 1_555
C30 C29 1_555 1_555
H14 C30 1_555 1_555
C31 C30 1_555 1_555
C32 C31 1_555 1_555
H15 C32 1_555 1_555
C33 C28 1_555 1_555
H16 C33 1_555 1_555
C34 C31 1_555 1_555
C35 N1 1_555 1_555
H17 C35 1_555 1_555
C36 C35 1_555 1_555
H18 C36 1_555 1_555
C37 C36 1_555 1_555
C38 C37 1_555 1_555
H19 C38 1_555 1_555
C39 N1 1_555 1_555
H20 C39 1_555 1_555
C40 N2 1_555 1_555
H21 C40 1_555 1_555
C41 H22 1_555 1_555
C42 C41 1_555 1_555
C43 C42 1_555 1_555
H23 C43 1_555 1_555
C44 C43 1_555 1_555
H24 C44 1_555 1_555
C45 N4 1_555 1_555
H25 C45 1_555 1_555
C46 C42 1_555 1_555
H26 C46 1_555 1_555
O9 C47 1_555 1_555
N5 C47 1_555 1_555
C47 H27 1_555 1_555
C48 N5 1_555 1_555
H28 C48 1_555 1_555
H29 C48 1_555 1_555
H30 C48 1_555 1_555
C49 N5 1_555 1_555
H31 C49 1_555 1_555
H32 C49 1_555 1_555
H33 C49 1_555 1_555
O10 C50 1_555 1_555
N6 C50 1_555 1_555
C50 H34 1_555 1_555
C51 N6 1_555 1_555
H35 C51 1_555 1_555
H36 C51 1_555 1_555
H37 C51 1_555 1_555
C52 N6 1_555 1_555
H38 C52 1_555 1_555
H39 C52 1_555 1_555
H40 C52 1_555 1_555
O11 C53 1_555 1_555
N7 C53 1_555 1_555
C53 H41 1_555 1_555
C54 N7 1_555 1_555
H42 C54 1_555 1_555
H43 C54 1_555 1_555
H44 C54 1_555 1_555
C55 N7 1_555 1_555
H45 C55 1_555 1_555
H46 C55 1_555 1_555
H47 C55 1_555 1_555
Zn1A O8 1_555 1_555
Zn1A_2 O4 1_555 1_555
Zn2A O7 1_555 1_555
Zn2A_2 O3 1_555 1_555
Zn2C N4 1_555 1_555
O3A Zn2 1_555 1_555
O4A Zn1 1_555 1_555
O7A Zn2 1_555 1_555
O8A Zn1 1_555 1_555
N4C Zn2 1_555 1_555
O6 C18 1_555 1_555
C6 C7 1_555 1_555
C15 C16 1_555 1_555
C23 C24 1_555 1_555
C32 C33 1_555 1_555
C37 C40 1_555 1_555
C38 C39 1_555 1_555
C45 C46 1_555 1_555

#END
