
#######################################################################
#
#                 Cambridge Crystallographic Data Centre
#                                CCDC 
#
#######################################################################
#
# If this CIF has been generated from an entry in the Cambridge 
# Structural Database, then it will include bibliographic, chemical, 
# crystal, experimental, refinement or atomic coordinate data resulting 
# from the CCDC's data processing and validation procedures.
#
#######################################################################

data_GEWXAJ
_chemical_formula_moiety         '(C28 H24 Cu4 N8 O15)n'
_symmetry_cell_setting           monoclinic
_symmetry_space_group_name_H-M   'C 2/c'
_symmetry_Int_Tables_number      15
_space_group_name_Hall           '-C 2yc'
loop_
_symmetry_equiv_pos_site_id
_symmetry_equiv_pos_as_xyz
1 x,y,z
2 -x,y,1/2-z
3 1/2+x,1/2+y,z
4 1/2-x,1/2+y,1/2-z
5 -x,-y,-z
6 x,-y,1/2+z
7 1/2-x,1/2-y,-z
8 1/2+x,1/2-y,1/2+z
_cell_length_a                   34.354(5)
_cell_length_b                   7.396(5)
_cell_length_c                   15.666(5)
_cell_angle_alpha                90
_cell_angle_beta                 111.398(5)
_cell_angle_gamma                90
_cell_volume                     3706.07
loop_
_atom_site_label
_atom_site_type_symbol
_atom_site_fract_x
_atom_site_fract_y
_atom_site_fract_z
_atom_site_U_iso_or_equiv
_atom_site_thermal_displace_type
Cu1 Cu 0.24739(2) 0.13777(10) -0.41503(5) 0.0201 Uani
C1 C 0.1330(2) 0.3237(11) -0.4341(5) 0.0329 Uani
H1 H 0.1064 0.3649 -0.4693 0.0390 Uiso
N1 N 0.19656(18) 0.2267(7) -0.3926(4) 0.0243 Uani
O1 O 0.34033(17) 0.2500(8) -0.2822(3) 0.0397 Uani
Cu2 Cu 0.33773(2) 0.22696(12) -0.40794(5) 0.0228 Uani
O2 O 0.27761(16) 0.1575(7) -0.2827(3) 0.0308 Uani
N2 N 0.16144(18) 0.2774(8) -0.4658(4) 0.0243 Uani
C2 C 0.1875(2) 0.2449(9) -0.3196(5) 0.0277 Uani
H2 H 0.2058 0.2211 -0.2602 0.0330 Uiso
O3 O 0.28862(18) 0.2895(6) 0.1096(3) 0.0324 Uani
N3 N 0.1478(2) 0.3030(8) -0.3419(4) 0.0307 Uani
C3 C 0.29799(19) 0.1798(9) 0.0623(4) 0.0183 Uani
O4 O 0.28907(15) 0.0108(6) 0.0579(3) 0.0279 Uani
N4 N 0.1255(3) 0.3292(12) -0.2829(5) 0.0525 Uani
H3 H 0.1373 0.3071 -0.2252 0.0630 Uiso
H4 H 0.1001 0.3671 -0.3047 0.0630 Uiso
C4 C 0.3073(2) 0.1983(9) -0.0899(4) 0.0227 Uani
H5 H 0.2820 0.1374 -0.1168 0.0270 Uiso
O5 O 0.28546(14) 0.3593(6) -0.4556(3) 0.0197 Uani
C5 C 0.3300(2) 0.2511(9) -0.1420(4) 0.0230 Uani
C6 C 0.3224(2) 0.2370(8) 0.0034(4) 0.0203 Uani
O6 O 0.38940(16) 0.0861(9) -0.3623(4) 0.0414 Uani
C7 C 0.3146(2) 0.2176(10) -0.2434(5) 0.0266 Uani
O7 O 0.4222(3) 0.3454(11) -0.3282(6) 0.0827 Uani
C8 C 0.3683(2) 0.3381(10) -0.1006(5) 0.0286 Uani
H6 H 0.3838 0.3706 -0.1359 0.0350 Uiso
C9 C 0.3834(2) 0.3769(10) -0.0082(5) 0.0322 Uani
H7 H 0.4092 0.4334 0.0190 0.0390 Uiso
C10 C 0.4218(3) 0.1790(14) -0.3299(6) 0.0482 Uani
C11 C 0.4622(2) 0.0751(12) -0.2895(6) 0.0413 Uani
C12 C 0.4629(3) -0.1115(13) -0.2894(7) 0.0513 Uani
H8 H 0.4381 -0.1756 -0.3162 0.0620 Uiso
C13 C 0.5000 0.1664(17) -0.2500 0.0467 Uani
H9 H 0.5000 0.2921 -0.2500 0.0560 Uiso
C14 C 0.5000 -0.203(2) -0.2500 0.0540 Uiso
H10 H 0.5000 -0.3292 -0.2500 0.0640 Uiso
C15 C 0.3599(2) 0.3309(9) 0.0435(5) 0.0245 Uani
H11 H 0.3690 0.3625 0.1052 0.0290 Uiso
O6A O 0.61060(16) 0.0861(9) -0.1377(4) 0.0414 Uani
O7A O 0.5778(3) 0.3454(11) -0.1718(6) 0.0827 Uani
C10A C 0.5782(3) 0.1790(14) -0.1701(6) 0.0482 Uani
C11A C 0.5378(2) 0.0751(12) -0.2105(6) 0.0413 Uani
C12A C 0.5371(3) -0.1115(13) -0.2106(7) 0.0513 Uani
H8A H 0.5619 -0.1756 -0.1838 0.0620 Uiso
Cu1A Cu 0.75261(2) 0.13777(10) -0.08497(5) 0.0201 Uani
C1A C 0.8670(2) 0.3237(11) -0.0659(5) 0.0329 Uani
H1A H 0.8936 0.3649 -0.0307 0.0390 Uiso
N1A N 0.80344(18) 0.2267(7) -0.1074(4) 0.0243 Uani
O1A O 0.65967(17) 0.2500(8) -0.2178(3) 0.0397 Uani
Cu2A Cu 0.66227(2) 0.22696(12) -0.09206(5) 0.0228 Uani
O2A O 0.72239(16) 0.1575(7) -0.2173(3) 0.0308 Uani
N2A N 0.83856(18) 0.2774(8) -0.0342(4) 0.0243 Uani
C2A C 0.8125(2) 0.2449(9) -0.1804(5) 0.0277 Uani
H2A H 0.7942 0.2211 -0.2398 0.0330 Uiso
O3A O 0.71138(18) 0.2895(6) -0.6096(3) 0.0324 Uani
N3A N 0.8522(2) 0.3030(8) -0.1581(4) 0.0307 Uani
C3A C 0.70201(19) 0.1798(9) -0.5623(4) 0.0183 Uani
O4A O 0.71093(15) 0.0108(6) -0.5579(3) 0.0279 Uani
N4A N 0.8745(3) 0.3292(12) -0.2171(5) 0.0525 Uani
H3A H 0.8627 0.3071 -0.2748 0.0630 Uiso
H4A H 0.8999 0.3671 -0.1953 0.0630 Uiso
C4A C 0.6927(2) 0.1983(9) -0.4101(4) 0.0227 Uani
H5A H 0.7180 0.1374 -0.3832 0.0270 Uiso
O5A O 0.71454(14) 0.3593(6) -0.0444(3) 0.0197 Uani
C5A C 0.6700(2) 0.2511(9) -0.3580(4) 0.0230 Uani
C6A C 0.6776(2) 0.2370(8) -0.5034(4) 0.0203 Uani
C7A C 0.6854(2) 0.2176(10) -0.2566(5) 0.0266 Uani
C8A C 0.6317(2) 0.3381(10) -0.3994(5) 0.0286 Uani
H6A H 0.6162 0.3706 -0.3641 0.0350 Uiso
C9A C 0.6166(2) 0.3769(10) -0.4918(5) 0.0322 Uani
H7A H 0.5908 0.4334 -0.5190 0.0390 Uiso
C15A C 0.6401(2) 0.3309(9) -0.5435(5) 0.0245 Uani
H11A H 0.6310 0.3625 -0.6052 0.0290 Uiso
Cu1D Cu 0.75261(2) -0.13777(10) -0.58497(5) 0.0201 Uani
Cu1E Cu 0.24739(2) -0.13777(10) 0.08497(5) 0.0201 Uani
Cu1F Cu 0.25261(2) 0.36223(10) -0.58497(5) 0.0201 Uani
Cu1G Cu 0.74739(2) 0.36223(10) 0.08497(5) 0.0201 Uani
Cu2D Cu 0.66227(2) -0.22696(12) -0.59206(5) 0.0228 Uani
Cu2E Cu 0.33773(2) -0.22696(12) 0.09206(5) 0.0228 Uani
Cu2F Cu 0.16227(2) 0.27304(12) -0.59206(5) 0.0228 Uani
Cu2G Cu 0.83773(2) 0.27304(12) 0.09206(5) 0.0228 Uani
N2F N 0.33856(18) 0.2226(8) -0.5342(4) 0.0243 Uani
N2G N 0.66144(18) 0.2226(8) 0.0342(4) 0.0243 Uani
O4D O 0.71093(15) -0.0108(6) -0.0579(3) 0.0279 Uani
O4E O 0.28907(15) -0.0108(6) -0.4421(3) 0.0279 Uani
O5F O 0.21454(14) 0.1407(6) -0.5444(3) 0.0197 Uani
O5G O 0.78546(14) 0.1407(6) 0.0444(3) 0.0197 Uani
O8 O 0.4407(7) 0.541(3) -0.1778(15) 0.1120 Uiso
loop_
_atom_site_aniso_label
_atom_site_aniso_U_11
_atom_site_aniso_U_22
_atom_site_aniso_U_33
_atom_site_aniso_U_23
_atom_site_aniso_U_13
_atom_site_aniso_U_12
Cu1 0.0191(5) 0.0254(5) 0.0163(5) -0.0003(3) 0.0070(3) 0.0018(3)
C1 0.029(4) 0.039(4) 0.030(4) 0.003(3) 0.010(3) 0.003(3)
N1 0.024(3) 0.028(3) 0.020(3) 0.003(2) 0.007(2) 0.001(2)
O1 0.029(3) 0.073(4) 0.019(3) 0.000(2) 0.011(2) -0.002(3)
Cu2 0.0170(5) 0.0348(5) 0.0170(5) 0.0016(3) 0.0065(3) 0.0009(3)
O2 0.026(3) 0.045(3) 0.021(2) 0.000(2) 0.008(2) -0.003(2)
N2 0.020(3) 0.032(3) 0.022(3) -0.001(2) 0.009(2) 0.000(2)
C2 0.026(4) 0.034(4) 0.026(4) 0.000(3) 0.013(3) 0.004(3)
O3 0.052(3) 0.025(3) 0.026(3) -0.001(2) 0.021(2) -0.001(2)
N3 0.037(4) 0.036(3) 0.027(3) -0.006(3) 0.021(3) -0.002(3)
C3 0.016(3) 0.025(3) 0.010(3) 0.001(2) 0.000(3) -0.001(3)
O4 0.029(3) 0.023(2) 0.036(3) -0.001(2) 0.017(2) -0.005(2)
N4 0.045(4) 0.089(6) 0.037(4) -0.005(4) 0.031(4) 0.006(4)
C4 0.023(4) 0.022(3) 0.022(3) 0.002(3) 0.007(3) -0.001(3)
O5 0.018(2) 0.023(2) 0.016(2) -0.0014(17) 0.0036(18) 0.0026(18)
C5 0.025(4) 0.025(3) 0.016(3) 0.003(2) 0.004(3) 0.004(3)
C6 0.026(4) 0.016(3) 0.021(3) 0.000(2) 0.011(3) 0.001(3)
O6 0.019(3) 0.070(4) 0.031(3) 0.001(3) 0.004(2) 0.010(3)
C7 0.026(4) 0.032(4) 0.022(3) 0.003(3) 0.009(3) 0.005(3)
O7 0.063(4) 0.073(4) 0.102(4) 0.022(3) 0.018(3) 0.007(3)
C8 0.027(4) 0.034(4) 0.026(4) 0.003(3) 0.011(3) 0.000(3)
C9 0.024(4) 0.039(4) 0.031(4) -0.001(3) 0.007(3) -0.008(3)
C10 0.031(5) 0.065(6) 0.049(5) 0.024(5) 0.015(4) 0.011(4)
C11 0.022(4) 0.054(5) 0.043(5) 0.004(4) 0.006(4) -0.002(4)
C12 0.023(4) 0.055(6) 0.062(6) 0.001(4) -0.001(4) -0.009(4)
C13 0.018(6) 0.040(6) 0.074(9) 0.000 0.007(6) 0.000
C15 0.023(4) 0.028(3) 0.020(3) -0.002(3) 0.005(3) 0.000(3)
O6A 0.019 0.07 0.031 -0.001 0.004 -0.01
O7A 0.063 0.073 0.102 -0.022 0.018 -0.007
C10A 0.031 0.065 0.049 -0.024 0.015 -0.011
C11A 0.022 0.054 0.043 -0.004 0.006 0.002
C12A 0.023 0.055 0.062 -0.001 -0.001 0.009
Cu1A 0.0191 0.0254 0.0163 0.0003 0.007 -0.0018
C1A 0.029 0.039 0.03 -0.003 0.01 -0.003
N1A 0.024 0.028 0.02 -0.003 0.007 -0.001
O1A 0.029 0.073 0.019 0 0.011 0.002
Cu2A 0.017 0.0348 0.017 -0.0016 0.0065 -0.0009
O2A 0.026 0.045 0.021 0 0.008 0.003
N2A 0.02 0.032 0.022 0.001 0.009 0
C2A 0.026 0.034 0.026 0 0.013 -0.004
O3A 0.052 0.025 0.026 0.001 0.021 0.001
N3A 0.037 0.036 0.027 0.006 0.021 0.002
C3A 0.016 0.025 0.01 -0.001 0 0.001
O4A 0.029 0.023 0.036 0.001 0.017 0.005
N4A 0.045 0.089 0.037 0.005 0.031 -0.006
C4A 0.023 0.022 0.022 -0.002 0.007 0.001
O5A 0.018 0.023 0.016 0.0014 0.0036 -0.0026
C5A 0.025 0.025 0.016 -0.003 0.004 -0.004
C6A 0.026 0.016 0.021 0 0.011 -0.001
C7A 0.026 0.032 0.022 -0.003 0.009 -0.005
C8A 0.027 0.034 0.026 -0.003 0.011 0
C9A 0.024 0.039 0.031 0.001 0.007 0.008
C15A 0.023 0.028 0.02 0.002 0.005 0
Cu1D 0.0191 0.0254 0.0163 -0.0003 0.007 0.0018
Cu1E 0.0191 0.0254 0.0163 0.0003 0.007 -0.0018
Cu1F 0.0191 0.0254 0.0163 -0.0003 0.007 0.0018
Cu1G 0.0191 0.0254 0.0163 0.0003 0.007 -0.0018
Cu2D 0.017 0.0348 0.017 0.0016 0.0065 0.0009
Cu2E 0.017 0.0348 0.017 -0.0016 0.0065 -0.0009
Cu2F 0.017 0.0348 0.017 0.0016 0.0065 0.0009
Cu2G 0.017 0.0348 0.017 -0.0016 0.0065 -0.0009
N2F 0.02 0.032 0.022 -0.001 0.009 0
N2G 0.02 0.032 0.022 0.001 0.009 0
O4D 0.029 0.023 0.036 -0.001 0.017 -0.005
O4E 0.029 0.023 0.036 0.001 0.017 0.005
O5F 0.018 0.023 0.016 -0.0014 0.0036 0.0026
O5G 0.018 0.023 0.016 0.0014 0.0036 -0.0026
loop_
_geom_bond_atom_site_label_1
_geom_bond_atom_site_label_2
_geom_bond_site_symmetry_1
_geom_bond_site_symmetry_2
Cu1 N1 1_555 1_555
C1 H1 1_555 1_555
N1 N2 1_555 1_555
O1 Cu2 1_555 1_555
Cu2 O5 1_555 1_555
O2 Cu1 1_555 1_555
N2 C1 1_555 1_555
C2 N1 1_555 1_555
H2 C2 1_555 1_555
O3 C3 1_555 1_555
N3 C1 1_555 1_555
C3 O4 1_555 1_555
O4 Cu1E 1_555 1_555
N4 N3 1_555 1_555
H3 N4 1_555 1_555
H4 N4 1_555 1_555
C4 H5 1_555 1_555
O5 Cu1 1_555 1_555
C5 C4 1_555 1_555
C6 C3 1_555 1_555
O6 Cu2 1_555 1_555
C7 O1 1_555 1_555
O7 C10 1_555 1_555
C8 C5 1_555 1_555
H6 C8 1_555 1_555
C9 C8 1_555 1_555
H7 C9 1_555 1_555
C10 O6 1_555 1_555
C11 C10 1_555 1_555
C12 C11 1_555 1_555
H8 C12 1_555 1_555
C13 C11 1_555 1_555
H9 C13 1_555 1_555
C14 C12 1_555 1_555
H10 C14 1_555 1_555
C15 C6 1_555 1_555
H11 C15 1_555 1_555
O6A C10A 1_555 1_555
O7A C10A 1_555 1_555
C10A C11A 1_555 1_555
C11A C13 1_555 1_555
C12A C14 1_555 1_555
H8A C12A 1_555 1_555
Cu1A N1A 1_555 1_555
C1A H1A 1_555 1_555
N1A N2A 1_555 1_555
O1A Cu2A 1_555 1_555
Cu2A O6A 1_555 1_555
O2A Cu1A 1_555 1_555
N2A C1A 1_555 1_555
C2A N1A 1_555 1_555
H2A C2A 1_555 1_555
O3A C3A 1_555 1_555
N3A C1A 1_555 1_555
C3A O4A 1_555 1_555
O4A Cu1D 1_555 1_555
N4A N3A 1_555 1_555
H3A N4A 1_555 1_555
H4A N4A 1_555 1_555
C4A H5A 1_555 1_555
O5A Cu1A 1_555 1_555
C5A C4A 1_555 1_555
C6A C3A 1_555 1_555
C7A O1A 1_555 1_555
C8A C5A 1_555 1_555
H6A C8A 1_555 1_555
C9A C8A 1_555 1_555
H7A C9A 1_555 1_555
C15A C6A 1_555 1_555
H11A C15A 1_555 1_555
Cu1F O5 1_555 1_555
Cu1G O5A 1_555 1_555
Cu2D O4A 1_555 1_555
Cu2E O4 1_555 1_555
Cu2F N2 1_555 1_555
Cu2G N2A 1_555 1_555
N2F Cu2 1_555 1_555
N2G Cu2A 1_555 1_555
O4D Cu1A 1_555 1_555
O4E Cu1 1_555 1_555
O5F Cu1 1_555 1_555
O5G Cu1A 1_555 1_555
Cu2 O4E 1_555 1_555
O2 C7 1_555 1_555
C2 N3 1_555 1_555
C4 C6 1_555 1_555
C5 C7 1_555 1_555
C9 C15 1_555 1_555
C11A C12A 1_555 1_555
Cu2A O5A 1_555 1_555
Cu2A O4D 1_555 1_555
O2A C7A 1_555 1_555
C2A N3A 1_555 1_555
C4A C6A 1_555 1_555
C5A C7A 1_555 1_555
C9A C15A 1_555 1_555
Cu1F O5F 1_555 1_555
Cu1G O5G 1_555 1_555
Cu2F O5F 1_555 1_555
Cu2G O5G 1_555 1_555

#END
