
#######################################################################
#
#                 Cambridge Crystallographic Data Centre
#                                CCDC 
#
#######################################################################
#
# If this CIF has been generated from an entry in the Cambridge 
# Structural Database, then it will include bibliographic, chemical, 
# crystal, experimental, refinement or atomic coordinate data resulting 
# from the CCDC's data processing and validation procedures.
#
#######################################################################

data_KARNID
_chemical_formula_moiety         'C51 H26 Cu18 O48'
_symmetry_cell_setting           tetragonal
_symmetry_space_group_name_H-M   'I 4/m m m'
_symmetry_Int_Tables_number      139
_space_group_name_Hall           '-I 4 2'
loop_
_symmetry_equiv_pos_site_id
_symmetry_equiv_pos_as_xyz
1 x,y,z
2 -y,x,z
3 -x,-y,z
4 y,-x,z
5 x,-y,-z
6 y,x,-z
7 -x,y,-z
8 -y,-x,-z
9 1/2+x,1/2+y,1/2+z
10 1/2-y,1/2+x,1/2+z
11 1/2-x,1/2-y,1/2+z
12 1/2+y,1/2-x,1/2+z
13 1/2+x,1/2-y,1/2-z
14 1/2+y,1/2+x,1/2-z
15 1/2-x,1/2+y,1/2-z
16 1/2-y,1/2-x,1/2-z
17 -x,-y,-z
18 y,-x,-z
19 x,y,-z
20 -y,x,-z
21 -x,y,z
22 -y,-x,z
23 x,-y,z
24 y,x,z
25 1/2-x,1/2-y,1/2-z
26 1/2+y,1/2-x,1/2-z
27 1/2+x,1/2+y,1/2-z
28 1/2-y,1/2+x,1/2-z
29 1/2-x,1/2+y,1/2+z
30 1/2-y,1/2-x,1/2+z
31 1/2+x,1/2-y,1/2+z
32 1/2+y,1/2+x,1/2+z
_cell_length_a                   30.6411(10)
_cell_length_b                   30.6411(10)
_cell_length_c                   22.9614(17)
_cell_angle_alpha                90
_cell_angle_beta                 90
_cell_angle_gamma                90
_cell_volume                     21557.9
loop_
_atom_site_label
_atom_site_type_symbol
_atom_site_fract_x
_atom_site_fract_y
_atom_site_fract_z
_atom_site_U_iso_or_equiv
_atom_site_thermal_displace_type
Cu1 Cu 0.34514(4) 0.0000 0.0000 0.0270 Uani
Cu2 Cu 0.25826(4) 0.0000 0.0000 0.0268 Uani
Cu3 Cu 0.17274(2) 0.17274(2) 0.33196(4) 0.0326 Uani
Cu4 Cu 0.12843(2) 0.12843(2) 0.25204(4) 0.0377 Uani
C1 C 0.30107(18) 0.08193(17) 0.1360(2) 0.0363 Uani
C2 C 0.34040(19) 0.08858(18) 0.1650(2) 0.0393 Uani
H1 H 0.3668 0.0769 0.1500 0.0470 Uiso
C3 C 0.34016(17) 0.11284(18) 0.2167(2) 0.0383 Uani
C4 C 0.30148(18) 0.12913(16) 0.2385(2) 0.0390 Uani
H2 H 0.3016 0.1462 0.2731 0.0470 Uiso
C5 C 0.26177(17) 0.12057(16) 0.2098(2) 0.0360 Uani
C6 C 0.26187(17) 0.09658(16) 0.1587(2) 0.0333 Uani
H3 H 0.2352 0.0902 0.1394 0.0400 Uiso
C7 C 0.30143(16) 0.05355(16) 0.08103(19) 0.0300 Uani
C8 C 0.38190(18) 0.11810(18) 0.2500 0.0450 Uani
C9 C 0.22014(16) 0.13420(16) 0.2384(2) 0.0347 Uani
C10 C 0.17961(18) 0.03933(17) 0.3743(2) 0.0397 Uani
C11 C 0.20798(19) 0.03926(17) 0.4226(2) 0.0443 Uani
H4 H 0.2177 0.0661 0.4388 0.0540 Uiso
C12 C 0.2218(3) 0.0000 0.4466(3) 0.0457 Uani
C13 C 0.1655(3) 0.0000 0.3504(4) 0.0483 Uani
H5 H 0.1464 0.0000 0.3179 0.0580 Uiso
C14 C 0.16673(19) 0.08161(17) 0.3461(3) 0.0437 Uani
C15 C 0.2524(3) 0.0000 0.5000 0.0333 Uani
O1 O 0.33794(12) 0.04398(12) 0.06069(14) 0.0407 Uani
O2 O 0.26526(12) 0.04402(12) 0.06077(15) 0.0428 Uani
O3 O 0.40993(14) 0.09007(14) 0.2500 0.0773 Uani
O4 O 0.22249(12) 0.15789(13) 0.28243(16) 0.0470 Uani
O5 O 0.18534(13) 0.12136(14) 0.21352(16) 0.0507 Uani
O6 O 0.18030(15) 0.11585(13) 0.36924(17) 0.0570 Uani
O7 O 0.14287(14) 0.07890(12) 0.30220(18) 0.0533 Uani
O8 O 0.4152(3) 0.0000 0.0000 0.0760 Uani
O9 O 0.1892(3) 0.0000 0.0000 0.0810 Uani
O10 O 0.20786(14) 0.20786(14) 0.3964(3) 0.0663 Uani
H6 H 0.2117 0.1917 0.4261 0.1000 Uiso
O11 O 0.09261(17) 0.09261(17) 0.1889(3) 0.1123 Uani
H7 H 0.0646 0.0849 0.2047 0.1680 Uiso
O12 O 0.2774(2) 0.0376(2) 0.5000 0.0183 Uani
C1O C 0.41807(17) 0.19893(18) 0.3640(2) 0.0363 Uani
C2O C 0.41142(18) 0.15960(19) 0.3350(2) 0.0393 Uani
H1O H 0.4231 0.1332 0.3500 0.0470 Uiso
C3O C 0.38716(18) 0.15984(17) 0.2833(2) 0.0383 Uani
C4O C 0.37087(16) 0.19852(18) 0.2615(2) 0.0390 Uani
H2O H 0.3538 0.1984 0.2269 0.0470 Uiso
C5O C 0.37943(16) 0.23823(17) 0.2902(2) 0.0360 Uani
C6O C 0.40342(16) 0.23813(17) 0.3413(2) 0.0333 Uani
H3O H 0.4098 0.2648 0.3606 0.0400 Uiso
C7O C 0.44645(16) 0.19857(16) 0.41897(19) 0.0300 Uani
C9O C 0.36580(16) 0.27986(16) 0.2616(2) 0.0347 Uani
O1O O 0.45602(12) 0.16206(12) 0.43931(14) 0.0407 Uani
O2O O 0.45598(12) 0.23474(12) 0.43923(15) 0.0428 Uani
O4O O 0.34211(13) 0.27751(12) 0.21757(16) 0.0470 Uani
O5O O 0.37864(14) 0.31466(13) 0.28648(16) 0.0507 Uani
C10D C 0.17961(18) -0.03933(17) 0.6257(2) 0.0397 Uani
C11D C 0.20798(19) -0.03926(17) 0.5774(2) 0.0443 Uani
H4D H 0.2177 -0.0661 0.5612 0.0540 Uiso
C12D C 0.2218(3) 0.0000 0.5534(3) 0.0457 Uani
C13D C 0.1655(3) 0.0000 0.6496(4) 0.0483 Uani
H5D H 0.1464 0.0000 0.6821 0.0580 Uiso
C14D C 0.16673(19) -0.08161(17) 0.6539(3) 0.0437 Uani
O6D O 0.18030(15) -0.11585(13) 0.63076(17) 0.0570 Uani
O7D O 0.14287(14) -0.07890(12) 0.69780(18) 0.0533 Uani
O12D O 0.2774(2) -0.0376(2) 0.5000 0.0183 Uani
C10R C 0.17961(18) 0.03933(17) 0.6257(2) 0.0397 Uani
C11R C 0.20798(19) 0.03926(17) 0.5774(2) 0.0443 Uani
H4R H 0.2177 0.0661 0.5612 0.0540 Uiso
C14R C 0.16673(19) 0.08161(17) 0.6539(3) 0.0437 Uani
O6R O 0.18030(15) 0.11585(13) 0.63076(17) 0.0570 Uani
O7R O 0.14287(14) 0.07890(12) 0.69780(18) 0.0533 Uani
C10V C 0.17961(18) -0.03933(17) 0.3743(2) 0.0397 Uani
C11V C 0.20798(19) -0.03926(17) 0.4226(2) 0.0443 Uani
H4V H 0.2177 -0.0661 0.4388 0.0540 Uiso
C14V C 0.16673(19) -0.08161(17) 0.3461(3) 0.0437 Uani
O6V O 0.18030(15) -0.11585(13) 0.36924(17) 0.0570 Uani
O7V O 0.14287(14) -0.07890(12) 0.30220(18) 0.0533 Uani
H6W H 0.1917 0.2117 0.4261 0.1000 Uiso
H7W H 0.0849 0.0646 0.2047 0.1680 Uiso
C1V C 0.30107(18) -0.08193(17) 0.1360(2) 0.0363 Uani
C2V C 0.34040(19) -0.08858(18) 0.1650(2) 0.0393 Uani
H1V H 0.3668 -0.0769 0.1500 0.0470 Uiso
C3V C 0.34016(17) -0.11284(18) 0.2167(2) 0.0383 Uani
C4V C 0.30148(18) -0.12913(16) 0.2385(2) 0.0390 Uani
H2V H 0.3016 -0.1462 0.2731 0.0470 Uiso
C5V C 0.26177(17) -0.12057(16) 0.2098(2) 0.0360 Uani
C6V C 0.26187(17) -0.09658(16) 0.1587(2) 0.0333 Uani
H3V H 0.2352 -0.0902 0.1394 0.0400 Uiso
C7V C 0.30143(16) -0.05355(16) 0.08103(19) 0.0300 Uani
C8V C 0.38190(18) -0.11810(18) 0.2500 0.0450 Uani
C9V C 0.22014(16) -0.13420(16) 0.2384(2) 0.0347 Uani
O1V O 0.33794(12) -0.04398(12) 0.06069(14) 0.0407 Uani
O2V O 0.26526(12) -0.04402(12) 0.06077(15) 0.0428 Uani
O3V O 0.40993(14) -0.09007(14) 0.2500 0.0773 Uani
O4V O 0.22249(12) -0.15789(13) 0.28243(16) 0.0470 Uani
O5V O 0.18534(13) -0.12136(14) 0.21352(16) 0.0507 Uani
C1AA C 0.41807(17) -0.19893(18) 0.3640(2) 0.0363 Uani
C2AA C 0.41142(18) -0.15960(19) 0.3350(2) 0.0393 Uani
H1AA H 0.4231 -0.1332 0.3500 0.0470 Uiso
C3AA C 0.38716(18) -0.15984(17) 0.2833(2) 0.0383 Uani
C4AA C 0.37087(16) -0.19852(18) 0.2615(2) 0.0390 Uani
H2AA H 0.3538 -0.1984 0.2269 0.0470 Uiso
C5AA C 0.37943(16) -0.23823(17) 0.2902(2) 0.0360 Uani
C6AA C 0.40342(16) -0.23813(17) 0.3413(2) 0.0333 Uani
H3AA H 0.4098 -0.2648 0.3606 0.0400 Uiso
C7AA C 0.44645(16) -0.19857(16) 0.41897(19) 0.0300 Uani
C9AA C 0.36580(16) -0.27986(16) 0.2616(2) 0.0347 Uani
O1AA O 0.45602(12) -0.16206(12) 0.43931(14) 0.0407 Uani
O2AA O 0.45598(12) -0.23474(12) 0.43923(15) 0.0428 Uani
O4AA O 0.34211(13) -0.27751(12) 0.21757(16) 0.0470 Uani
O5AA O 0.37864(14) -0.31466(13) 0.28648(16) 0.0507 Uani
Cu3O Cu 0.32726(2) 0.32726(2) 0.16804(4) 0.0326 Uani
O10O O 0.29214(14) 0.29214(14) 0.1036(3) 0.0663 Uani
H6O H 0.3083 0.2883 0.0739 0.1000 Uiso
H6X H 0.2883 0.3083 0.0739 0.1000 Uiso
Cu4O Cu 0.37157(2) 0.37157(2) 0.24796(4) 0.0377 Uani
O11O O 0.40739(17) 0.40739(17) 0.3111(3) 0.1123 Uani
H7O H 0.4151 0.4354 0.2953 0.1680 Uiso
H7X H 0.4354 0.4151 0.2953 0.1680 Uiso
Cu1I Cu 0.5000 -0.15486(4) 0.5000 0.0270 Uani
Cu1K Cu 0.5000 0.15486(4) 0.5000 0.0270 Uani
Cu2I Cu 0.5000 -0.24174(4) 0.5000 0.0268 Uani
Cu2K Cu 0.5000 0.24174(4) 0.5000 0.0268 Uani
Cu3C Cu 0.17274(2) -0.17274(2) 0.33196(4) 0.0326 Uani
Cu3D Cu 0.17274(2) -0.17274(2) 0.66804(4) 0.0326 Uani
Cu3E Cu 0.17274(2) 0.17274(2) 0.66804(4) 0.0326 Uani
Cu3N Cu 0.32726(2) -0.32726(2) 0.16804(4) 0.0326 Uani
Cu4C Cu 0.12843(2) -0.12843(2) 0.25204(4) 0.0377 Uani
Cu4D Cu 0.12843(2) -0.12843(2) 0.74796(4) 0.0377 Uani
Cu4E Cu 0.12843(2) 0.12843(2) 0.74796(4) 0.0377 Uani
Cu4N Cu 0.37157(2) -0.37157(2) 0.24796(4) 0.0377 Uani
O1D O 0.33794(12) -0.04398(12) -0.06069(14) 0.0407 Uani
O1R O 0.33794(12) 0.04398(12) -0.06069(14) 0.0407 Uani
O2D O 0.26526(12) -0.04402(12) -0.06077(15) 0.0428 Uani
O2R O 0.26526(12) 0.04402(12) -0.06077(15) 0.0428 Uani
O4W O 0.15789(13) 0.22249(12) 0.28243(16) 0.0470 Uani
O4X O 0.27751(12) 0.34211(13) 0.21757(16) 0.0470 Uani
O5W O 0.12136(14) 0.18534(13) 0.21352(16) 0.0507 Uani
O5X O 0.31466(13) 0.37864(14) 0.28648(16) 0.0507 Uani
O6O O 0.38415(13) 0.31970(15) 0.13076(17) 0.0570 Uani
O6W O 0.11585(13) 0.18030(15) 0.36924(17) 0.0570 Uani
O6X O 0.31970(15) 0.38415(13) 0.13076(17) 0.0570 Uani
O7O O 0.42110(12) 0.35713(14) 0.19780(18) 0.0533 Uani
O7W O 0.07890(12) 0.14287(14) 0.30220(18) 0.0533 Uani
O7X O 0.35713(14) 0.42110(12) 0.19780(18) 0.0533 Uani
loop_
_atom_site_aniso_label
_atom_site_aniso_U_11
_atom_site_aniso_U_22
_atom_site_aniso_U_33
_atom_site_aniso_U_23
_atom_site_aniso_U_13
_atom_site_aniso_U_12
Cu1 0.0283(6) 0.0367(7) 0.0161(5) 0.000 0.000 0.000
Cu2 0.0284(6) 0.0349(7) 0.0172(5) 0.000 0.000 0.000
Cu3 0.0357(3) 0.0357(3) 0.0263(5) -0.0031(2) -0.0031(2) 0.0005(4)
Cu4 0.0394(4) 0.0394(4) 0.0342(5) -0.0060(3) -0.0060(3) -0.0027(4)
C1 0.048(3) 0.033(3) 0.028(3) -0.005(2) 0.000(2) -0.001(2)
C2 0.047(3) 0.042(3) 0.029(3) -0.004(2) -0.010(2) 0.010(2)
C3 0.042(3) 0.044(3) 0.029(3) -0.010(2) -0.013(2) 0.010(2)
C4 0.056(4) 0.035(3) 0.026(3) -0.010(2) -0.009(2) 0.006(2)
C5 0.043(3) 0.036(3) 0.029(3) -0.006(2) -0.006(2) 0.002(2)
C6 0.039(3) 0.032(3) 0.029(3) -0.006(2) -0.010(2) 0.002(2)
C7 0.037(3) 0.041(3) 0.012(2) -0.0031(19) -0.0030(19) -0.003(2)
C8 0.053(3) 0.053(3) 0.029(4) -0.018(3) -0.018(3) 0.017(3)
C9 0.034(3) 0.030(3) 0.040(3) -0.012(2) -0.008(2) 0.004(2)
C10 0.046(3) 0.033(3) 0.040(3) -0.003(2) 0.004(2) -0.001(2)
C11 0.055(4) 0.029(3) 0.049(3) 0.000(2) 0.010(3) 0.001(3)
C12 0.049(5) 0.046(5) 0.042(4) 0.000 0.006(4) 0.000
C13 0.050(5) 0.051(5) 0.044(5) 0.000 0.005(4) 0.000
C14 0.048(3) 0.031(3) 0.052(3) -0.005(3) -0.001(3) 0.000(2)
C15 0.041(6) 0.019(4) 0.040(5) 0.000 0.000 0.000
O1 0.048(2) 0.047(2) 0.0272(18) -0.0114(16) -0.0013(16) -0.0053(17)
O2 0.042(2) 0.054(2) 0.0325(19) -0.0139(17) -0.0026(17) 0.0048(18)
O3 0.082(3) 0.082(3) 0.068(4) -0.041(3) -0.041(3) 0.047(3)
O4 0.041(2) 0.058(2) 0.042(2) -0.0289(19) 0.0030(17) -0.0011(19)
O5 0.045(2) 0.068(3) 0.039(2) -0.0202(19) 0.0029(18) 0.003(2)
O6 0.087(3) 0.038(2) 0.046(2) 0.0061(19) -0.011(2) 0.000(2)
O7 0.068(3) 0.038(2) 0.054(2) 0.0029(19) -0.016(2) -0.004(2)
O8 0.043(5) 0.134(9) 0.051(5) 0.000 0.000 0.000
O9 0.040(5) 0.140(10) 0.063(6) 0.000 0.000 0.000
O10 0.078(3) 0.078(3) 0.043(3) -0.015(2) -0.015(2) -0.019(4)
O11 0.126(5) 0.126(5) 0.085(6) -0.031(3) -0.031(3) -0.068(6)
O12 0.016(4) 0.021(4) 0.018(4) 0.000 0.000 0.005(3)
C1O 0.033 0.048 0.028 0 -0.005 -0.001
C2O 0.042 0.047 0.029 -0.01 -0.004 0.01
C3O 0.044 0.042 0.029 -0.013 -0.01 0.01
C4O 0.035 0.056 0.026 -0.009 -0.01 0.006
C5O 0.036 0.043 0.029 -0.006 -0.006 0.002
C6O 0.032 0.039 0.029 -0.01 -0.006 0.002
C7O 0.041 0.037 0.012 -0.003 -0.0031 -0.003
C9O 0.03 0.034 0.04 -0.008 -0.012 0.004
O1O 0.047 0.048 0.0272 -0.0013 -0.0114 -0.0053
O2O 0.054 0.042 0.0325 -0.0026 -0.0139 0.0048
O4O 0.058 0.041 0.042 0.003 -0.0289 -0.0011
O5O 0.068 0.045 0.039 0.0029 -0.0202 0.003
C10D 0.046 0.033 0.04 -0.003 -0.004 0.001
C11D 0.055 0.029 0.049 0 -0.01 -0.001
C12D 0.049 0.046 0.042 0 -0.006 0
C13D 0.05 0.051 0.044 0 -0.005 0
C14D 0.048 0.031 0.052 -0.005 0.001 0
O6D 0.087 0.038 0.046 0.0061 0.011 0
O7D 0.068 0.038 0.054 0.0029 0.016 0.004
O12D 0.016 0.021 0.018 0 0 -0.005
C10R 0.046 0.033 0.04 0.003 -0.004 -0.001
C11R 0.055 0.029 0.049 0 -0.01 0.001
C14R 0.048 0.031 0.052 0.005 0.001 0
O6R 0.087 0.038 0.046 -0.0061 0.011 0
O7R 0.068 0.038 0.054 -0.0029 0.016 -0.004
C10V 0.046 0.033 0.04 0.003 0.004 0.001
C11V 0.055 0.029 0.049 0 0.01 -0.001
C14V 0.048 0.031 0.052 0.005 -0.001 0
O6V 0.087 0.038 0.046 -0.0061 -0.011 0
O7V 0.068 0.038 0.054 -0.0029 -0.016 0.004
C1V 0.048 0.033 0.028 0.005 0 0.001
C2V 0.047 0.042 0.029 0.004 -0.01 -0.01
C3V 0.042 0.044 0.029 0.01 -0.013 -0.01
C4V 0.056 0.035 0.026 0.01 -0.009 -0.006
C5V 0.043 0.036 0.029 0.006 -0.006 -0.002
C6V 0.039 0.032 0.029 0.006 -0.01 -0.002
C7V 0.037 0.041 0.012 0.0031 -0.003 0.003
C8V 0.053 0.053 0.029 0.018 -0.018 -0.017
C9V 0.034 0.03 0.04 0.012 -0.008 -0.004
O1V 0.048 0.047 0.0272 0.0114 -0.0013 0.0053
O2V 0.042 0.054 0.0325 0.0139 -0.0026 -0.0048
O3V 0.082 0.082 0.068 0.041 -0.041 -0.047
O4V 0.041 0.058 0.042 0.0289 0.003 0.0011
O5V 0.045 0.068 0.039 0.0202 0.0029 -0.003
C1AA 0.033 0.048 0.028 0 -0.005 0.001
C2AA 0.042 0.047 0.029 0.01 -0.004 -0.01
C3AA 0.044 0.042 0.029 0.013 -0.01 -0.01
C4AA 0.035 0.056 0.026 0.009 -0.01 -0.006
C5AA 0.036 0.043 0.029 0.006 -0.006 -0.002
C6AA 0.032 0.039 0.029 0.01 -0.006 -0.002
C7AA 0.041 0.037 0.012 0.003 -0.0031 0.003
C9AA 0.03 0.034 0.04 0.008 -0.012 -0.004
O1AA 0.047 0.048 0.0272 0.0013 -0.0114 0.0053
O2AA 0.054 0.042 0.0325 0.0026 -0.0139 -0.0048
O4AA 0.058 0.041 0.042 -0.003 -0.0289 0.0011
O5AA 0.068 0.045 0.039 -0.0029 -0.0202 -0.003
Cu3O 0.0357 0.0357 0.0263 -0.0031 -0.0031 0.0005
O10O 0.078 0.078 0.043 -0.015 -0.015 -0.019
Cu4O 0.0394 0.0394 0.0342 -0.006 -0.006 -0.0027
O11O 0.126 0.126 0.085 -0.031 -0.031 -0.068
Cu1I 0.0367 0.0283 0.0161 0 0 0
Cu1K 0.0367 0.0283 0.0161 0 0 0
Cu2I 0.0349 0.0284 0.0172 0 0 0
Cu2K 0.0349 0.0284 0.0172 0 0 0
Cu3C 0.0357 0.0357 0.0263 0.0031 -0.0031 -0.0005
Cu3D 0.0357 0.0357 0.0263 -0.0031 0.0031 -0.0005
Cu3E 0.0357 0.0357 0.0263 0.0031 0.0031 0.0005
Cu3N 0.0357 0.0357 0.0263 0.0031 -0.0031 -0.0005
Cu4C 0.0394 0.0394 0.0342 0.006 -0.006 0.0027
Cu4D 0.0394 0.0394 0.0342 -0.006 0.006 0.0027
Cu4E 0.0394 0.0394 0.0342 0.006 0.006 -0.0027
Cu4N 0.0394 0.0394 0.0342 0.006 -0.006 0.0027
O1D 0.048 0.047 0.0272 -0.0114 0.0013 0.0053
O1R 0.048 0.047 0.0272 0.0114 0.0013 -0.0053
O2D 0.042 0.054 0.0325 -0.0139 0.0026 -0.0048
O2R 0.042 0.054 0.0325 0.0139 0.0026 0.0048
O4W 0.058 0.041 0.042 0.003 -0.0289 -0.0011
O4X 0.041 0.058 0.042 -0.0289 0.003 -0.0011
O5W 0.068 0.045 0.039 0.0029 -0.0202 0.003
O5X 0.045 0.068 0.039 -0.0202 0.0029 0.003
O6O 0.038 0.087 0.046 -0.011 0.0061 0
O6W 0.038 0.087 0.046 -0.011 0.0061 0
O6X 0.087 0.038 0.046 0.0061 -0.011 0
O7O 0.038 0.068 0.054 -0.016 0.0029 -0.004
O7W 0.038 0.068 0.054 -0.016 0.0029 -0.004
O7X 0.068 0.038 0.054 0.0029 -0.016 -0.004
loop_
_geom_bond_atom_site_label_1
_geom_bond_atom_site_label_2
_geom_bond_site_symmetry_1
_geom_bond_site_symmetry_2
Cu1 O1 1_555 1_555
Cu2 O2 1_555 1_555
Cu3 O4 1_555 1_555
Cu4 O5 1_555 1_555
C1 C2 1_555 1_555
C2 H1 1_555 1_555
C3 C2 1_555 1_555
C4 C3 1_555 1_555
H2 C4 1_555 1_555
C5 C4 1_555 1_555
C6 C1 1_555 1_555
H3 C6 1_555 1_555
C7 C1 1_555 1_555
C8 C3 1_555 1_555
C9 C5 1_555 1_555
C10 C11 1_555 1_555
C11 H4 1_555 1_555
C12 C11 1_555 1_555
C13 C10 1_555 1_555
H5 C13 1_555 1_555
C14 C10 1_555 1_555
C15 C12 1_555 1_555
O1 C7 1_555 1_555
O2 C7 1_555 1_555
O3 C8 1_555 1_555
O4 C9 1_555 1_555
O5 C9 1_555 1_555
O6 Cu3 1_555 1_555
O7 Cu4 1_555 1_555
O8 Cu1 1_555 1_555
O9 Cu2 1_555 1_555
O10 Cu3 1_555 1_555
H6 O10 1_555 1_555
O11 Cu4 1_555 1_555
H7 O11 1_555 1_555
O12 C15 1_555 1_555
C1O C2O 1_555 1_555
C2O H1O 1_555 1_555
C3O C8 1_555 1_555
C4O C3O 1_555 1_555
H2O C4O 1_555 1_555
C5O C4O 1_555 1_555
C6O C1O 1_555 1_555
H3O C6O 1_555 1_555
C7O C1O 1_555 1_555
C9O C5O 1_555 1_555
O1O C7O 1_555 1_555
O2O C7O 1_555 1_555
O4O C9O 1_555 1_555
O5O C9O 1_555 1_555
C10D C11D 1_555 1_555
C11D H4D 1_555 1_555
C12D C15 1_555 1_555
C13D C10D 1_555 1_555
H5D C13D 1_555 1_555
C14D C10D 1_555 1_555
O6D C14D 1_555 1_555
O7D C14D 1_555 1_555
O12D C15 1_555 1_555
C10R C13D 1_555 1_555
C11R C12D 1_555 1_555
H4R C11R 1_555 1_555
C14R C10R 1_555 1_555
O6R C14R 1_555 1_555
O7R C14R 1_555 1_555
C10V C13 1_555 1_555
C11V C12 1_555 1_555
H4V C11V 1_555 1_555
C14V C10V 1_555 1_555
O6V C14V 1_555 1_555
O7V C14V 1_555 1_555
H6W O10 1_555 1_555
H7W O11 1_555 1_555
C1V C2V 1_555 1_555
C2V H1V 1_555 1_555
C3V C2V 1_555 1_555
C4V C3V 1_555 1_555
H2V C4V 1_555 1_555
C5V C4V 1_555 1_555
C6V C1V 1_555 1_555
H3V C6V 1_555 1_555
C7V C1V 1_555 1_555
C8V C3V 1_555 1_555
C9V C5V 1_555 1_555
O1V Cu1 1_555 1_555
O2V Cu2 1_555 1_555
O3V C8V 1_555 1_555
O4V C9V 1_555 1_555
O5V C9V 1_555 1_555
C1AA C2AA 1_555 1_555
C2AA H1AA 1_555 1_555
C3AA C8V 1_555 1_555
C4AA C3AA 1_555 1_555
H2AA C4AA 1_555 1_555
C5AA C4AA 1_555 1_555
C6AA C1AA 1_555 1_555
H3AA C6AA 1_555 1_555
C7AA C1AA 1_555 1_555
C9AA C5AA 1_555 1_555
O1AA C7AA 1_555 1_555
O2AA C7AA 1_555 1_555
O4AA C9AA 1_555 1_555
O5AA C9AA 1_555 1_555
Cu3O O4O 1_555 1_555
O10O Cu3O 1_555 1_555
H6O O10O 1_555 1_555
H6X O10O 1_555 1_555
Cu4O O5O 1_555 1_555
O11O Cu4O 1_555 1_555
H7O O11O 1_555 1_555
H7X O11O 1_555 1_555
Cu1I O1AA 1_555 1_555
Cu1K O1O 1_555 1_555
Cu2I O2AA 1_555 1_555
Cu2K O2O 1_555 1_555
Cu3C O6V 1_555 1_555
Cu3D O6D 1_555 1_555
Cu3E O6R 1_555 1_555
Cu3N O4AA 1_555 1_555
Cu4C O7V 1_555 1_555
Cu4D O7D 1_555 1_555
Cu4E O7R 1_555 1_555
Cu4N O5AA 1_555 1_555
O1D Cu1 1_555 1_555
O1R Cu1 1_555 1_555
O2D Cu2 1_555 1_555
O2R Cu2 1_555 1_555
O4W Cu3 1_555 1_555
O4X Cu3O 1_555 1_555
O5W Cu4 1_555 1_555
O5X Cu4O 1_555 1_555
O6O Cu3O 1_555 1_555
O6W Cu3 1_555 1_555
O6X Cu3O 1_555 1_555
O7O Cu4O 1_555 1_555
O7W Cu4 1_555 1_555
O7X Cu4O 1_555 1_555
C5 C6 1_555 1_555
C14 O6 1_555 1_555
C14 O7 1_555 1_555
C2O C3O 1_555 1_555
C5O C6O 1_555 1_555
C11D C12D 1_555 1_555
C10R C11R 1_555 1_555
C10V C11V 1_555 1_555
C5V C6V 1_555 1_555
C7V O1V 1_555 1_555
C7V O2V 1_555 1_555
O4V Cu3C 1_555 1_555
O5V Cu4C 1_555 1_555
C2AA C3AA 1_555 1_555
C5AA C6AA 1_555 1_555

#END
