
#######################################################################
#
#                 Cambridge Crystallographic Data Centre
#                                CCDC 
#
#######################################################################
#
# If this CIF has been generated from an entry in the Cambridge 
# Structural Database, then it will include bibliographic, chemical, 
# crystal, experimental, refinement or atomic coordinate data resulting 
# from the CCDC's data processing and validation procedures.
#
#######################################################################

data_NAPSUV
_chemical_formula_moiety         '(C19 H11 Cu1 N1 O4)n'
_symmetry_cell_setting           rhombohedral
_symmetry_space_group_name_H-M   'R -3'
_symmetry_Int_Tables_number      148
_space_group_name_Hall           '-R 3'
loop_
_symmetry_equiv_pos_site_id
_symmetry_equiv_pos_as_xyz
1 x,y,z
2 -y,x-y,z
3 -x+y,-x,z
4 2/3+x,1/3+y,1/3+z
5 2/3-y,1/3+x-y,1/3+z
6 2/3-x+y,1/3-x,1/3+z
7 1/3+x,2/3+y,2/3+z
8 1/3-y,2/3+x-y,2/3+z
9 1/3-x+y,2/3-x,2/3+z
10 -x,-y,-z
11 y,-x+y,-z
12 x-y,x,-z
13 1/3-x,2/3-y,2/3-z
14 1/3+y,2/3-x+y,2/3-z
15 1/3+x-y,2/3+x,2/3-z
16 2/3-x,1/3-y,1/3-z
17 2/3+y,1/3-x+y,1/3-z
18 2/3+x-y,1/3+x,1/3-z
_cell_length_a                   18.9711(9)
_cell_length_b                   18.9711(9)
_cell_length_c                   44.954(2)
_cell_angle_alpha                90
_cell_angle_beta                 90
_cell_angle_gamma                120
_cell_volume                     14011.5
loop_
_atom_site_label
_atom_site_type_symbol
_atom_site_fract_x
_atom_site_fract_y
_atom_site_fract_z
Cu1 Cu 0.52224(3) 0.47781(3) 0.025067(9)
N1 N 0.5411(2) 0.4593(2) 0.07178(7)
O1 O 0.2583(2) 0.3701(3) 0.29894(6)
O2 O 0.6298(3) 0.7417(2) 0.29893(6)
O3 O 0.55345(27) 0.70491(18) 0.34002(6)
O4 O 0.29509(18) 0.44665(27) 0.34007(6)
C1 C 0.5974(3) 0.5228(3) 0.08710(9)
H1 H 0.6429 0.5620 0.0770
C2 C 0.5916(3) 0.5336(3) 0.11736(10)
H2 H 0.6324 0.5789 0.1271
C3 C 0.5241(3) 0.4757(3) 0.13285(11)
C4 C 0.4664(3) 0.4082(3) 0.11733(10)
H3 H 0.4210 0.3673 0.1270
C5 C 0.4774(3) 0.4027(3) 0.08703(9)
H4 H 0.4384 0.3572 0.0768
C6 C 0.5115(4) 0.4888(4) 0.16457(11)
C7 C 0.5701(4) 0.6930(3) 0.31408(9)
C8 C 0.5117(4) 0.6143(3) 0.29947(9)
C9 C 0.4416(4) 0.5585(3) 0.31382(9)
H5 H 0.4318 0.5682 0.3332
C10 C 0.5270(5) 0.5989(3) 0.27036(10)
H6 H 0.5749 0.6362 0.2608
C11 C 0.3067(3) 0.4296(4) 0.31410(9)
C12 C 0.3856(3) 0.4882(4) 0.29951(9)
C13 C 0.4010(3) 0.4729(5) 0.27039(10)
H7 H 0.3638 0.4250 0.2609
C14 C 0.4713(5) 0.5286(3) 0.25563(11)
C15 C 0.4863(5) 0.5137(3) 0.22431(11)
C16 C 0.5385(11) 0.5655(9) 0.1747(3)
C17 C 0.4707(9) 0.4204(7) 0.1843(2)
C18 C 0.5239(14) 0.5800(8) 0.2048(2)
C19 C 0.4595(13) 0.4357(8) 0.2137(2)
Cu1D Cu 0.18886(3) 0.37776(4) 0.358400(9)
Cu1E Cu 0.62224(4) 0.81109(3) 0.358400(9)
Cu1I Cu 0.47776(3) 0.52219(3) -0.025067(9)
Cu1P Cu 0.14448(3) 0.28890(4) 0.308266(9)
Cu1Q Cu 0.71110(4) 0.85557(3) 0.308266(9)
O1Q O 0.5549(4) 0.5916(2) 0.03439(6)
O2P O 0.4084(2) 0.4452(4) 0.03440(6)
O3G O 0.62842(18) 0.51521(32) 0.00669(6)
O4H O 0.48489(32) 0.37158(18) 0.00674(6)
loop_
_geom_bond_atom_site_label_1
_geom_bond_atom_site_label_2
_geom_bond_site_symmetry_1
_geom_bond_site_symmetry_2
Cu1 N1 1_555 1_555
N1 C1 1_555 1_555
O1 C11 1_555 1_555
O2 C7 1_555 1_555
O3 C7 1_555 1_555
O4 C11 1_555 1_555
C1 H1 1_555 1_555
C2 C1 1_555 1_555
H2 C2 1_555 1_555
C3 C2 1_555 1_555
C4 C3 1_555 1_555
H3 C4 1_555 1_555
C5 N1 1_555 1_555
H4 C5 1_555 1_555
C6 C3 1_555 1_555
C7 C8 1_555 1_555
C8 C9 1_555 1_555
C9 H5 1_555 1_555
C10 C8 1_555 1_555
H6 C10 1_555 1_555
C11 C12 1_555 1_555
C12 C9 1_555 1_555
C13 C12 1_555 1_555
H7 C13 1_555 1_555
C14 C10 1_555 1_555
C15 C14 1_555 1_555
C16 C6 1_555 1_555
C17 C6 1_555 1_555
C18 C15 1_555 1_555
C19 C15 1_555 1_555
Cu1D O4 1_555 1_555
Cu1E O3 1_555 1_555
Cu1I Cu1 1_555 1_555
Cu1P O1 1_555 1_555
Cu1Q O2 1_555 1_555
O1Q Cu1 1_555 1_555
O2P Cu1 1_555 1_555
O3G Cu1 1_555 1_555
O4H Cu1 1_555 1_555
C4 C5 1_555 1_555
C13 C14 1_555 1_555
C16 C18 1_555 1_555
C17 C19 1_555 1_555
Cu1D Cu1P 1_555 1_555
Cu1E Cu1Q 1_555 1_555

#END
