
#######################################################################
#
#                 Cambridge Crystallographic Data Centre
#                                CCDC 
#
#######################################################################
#
# If this CIF has been generated from an entry in the Cambridge 
# Structural Database, then it will include bibliographic, chemical, 
# crystal, experimental, refinement or atomic coordinate data resulting 
# from the CCDC's data processing and validation procedures.
#
#######################################################################

data_RESDUQ
_chemical_formula_moiety         '(C43 H35 Cd3 N3 O15)n'
_symmetry_cell_setting           monoclinic
_symmetry_space_group_name_H-M   'C 2/c'
_symmetry_Int_Tables_number      15
_space_group_name_Hall           '-C 2yc'
loop_
_symmetry_equiv_pos_site_id
_symmetry_equiv_pos_as_xyz
1 x,y,z
2 -x,y,1/2-z
3 1/2+x,1/2+y,z
4 1/2-x,1/2+y,1/2-z
5 -x,-y,-z
6 x,-y,1/2+z
7 1/2-x,1/2-y,-z
8 1/2+x,1/2-y,1/2+z
_cell_length_a                   35.7480(18)
_cell_length_b                   18.5200(9)
_cell_length_c                   24.4110(13)
_cell_angle_alpha                90
_cell_angle_beta                 118.6200(10)
_cell_angle_gamma                90
_cell_volume                     14186.7
loop_
_atom_site_label
_atom_site_type_symbol
_atom_site_fract_x
_atom_site_fract_y
_atom_site_fract_z
_atom_site_U_iso_or_equiv
_atom_site_thermal_displace_type
Cd1 Cd 0.209786(9) 0.62229(2) 0.810035(16) 0.0486 Uani
Cd2 Cd 0.315612(10) 0.64121(2) 0.819473(17) 0.0513 Uani
Cd3 Cd 0.322414(11) 0.56859(2) 0.955275(18) 0.0582 Uani
O1 O -0.12377(13) 0.9311(3) 0.4295(2) 0.0911 Uani
O2 O 0.37657(13) 0.6066(3) 1.0497(2) 0.0946 Uani
O3 O 0.3266(2) 0.4510(3) 0.9747(3) 0.1200 Uani
O4 O 0.28153(10) 0.6007(2) 0.99654(16) 0.0646 Uani
O5 O 0.22772(12) 0.5669(2) 0.90587(17) 0.0629 Uani
O6 O 0.21801(10) 1.05073(18) 0.65606(15) 0.0520 Uani
O7 O 0.28073(10) 1.0091(2) 0.72442(17) 0.0644 Uani
O8 O 0.25802(9) 0.7806(2) 1.12578(16) 0.0578 Uani
O9 O 0.19175(10) 0.8188(2) 1.09439(15) 0.0542 Uani
O10 O -0.11587(14) 0.8398(4) 0.3776(2) 0.1116 Uani
O11 O 0.3123(2) 0.5671(3) 0.7457(2) 0.1048 Uani
O12 O 0.29499(10) 0.7496(2) 0.7755(2) 0.0784 Uani
O13 O 0.23936(10) 0.6807(2) 0.75182(15) 0.0556 Uani
O14 O -0.1413(4) 0.6081(7) 0.7009(5) 0.0980 Uiso
C1 C 0.17763(14) 0.9245(3) 0.6621(2) 0.0569 Uani
H1 H 0.1607 0.9642 0.6417 0.0690 Uiso
C2 C 0.3022(7) 0.4509(11) 0.6718(8) 0.2618 Uani
N1 N 0.3571(9) 0.3399(10) 0.9993(11) 0.3160 Uiso
C3 C 0.3615(9) 0.4208(10) 1.0025(10) 0.1446 Uani
C4 C -0.10210(18) 0.8842(5) 0.4238(3) 0.0816 Uani
C5 C -0.01219(19) 0.6861(6) 0.8699(4) 0.1411 Uani
H2 H 0.0002 0.7217 0.9002 0.1690 Uiso
C6 C -0.05657(19) 0.6816(6) 0.8360(4) 0.1346 Uani
H3 H -0.0728 0.7137 0.8452 0.1610 Uiso
C7 C -0.0068(2) 0.5916(6) 0.8154(4) 0.1319 Uani
H4 H 0.0099 0.5600 0.8067 0.1590 Uiso
C8 C 0.22215(13) 0.9306(3) 0.6927(2) 0.0507 Uani
C9 C 0.24650(14) 0.8706(3) 0.7216(2) 0.0545 Uani
H5 H 0.2761 0.8742 0.7419 0.0650 Uiso
C10 C 0.11249(16) 0.8555(3) 0.6289(3) 0.0743 Uani
C11 C 0.07523(16) 0.8589(3) 0.5976(3) 0.0843 Uani
C12 C 0.03015(16) 0.8639(4) 0.5555(3) 0.0823 Uani
C13 C 0.0102(2) 0.8127(5) 0.5110(5) 0.1431 Uani
H6 H 0.0254 0.7734 0.5084 0.1720 Uiso
C14 C 0.0071(2) 0.9161(6) 0.5577(4) 0.1427 Uani
H7 H 0.0199 0.9509 0.5886 0.1710 Uiso
C15 C 0.21906(14) 0.7771(3) 1.0918(2) 0.0482 Uani
C16 C 0.24207(14) 1.0008(3) 0.6917(2) 0.0488 Uani
C17 C 0.24234(15) 0.5976(3) 0.9575(2) 0.0534 Uani
C18 C 0.21228(14) 0.6353(3) 0.9752(2) 0.0449 Uani
C19 C 0.22886(13) 0.6826(3) 1.0257(2) 0.0459 Uani
H8 H 0.2582 0.6888 1.0492 0.0550 Uiso
C20 C 0.20185(13) 0.7207(3) 1.0412(2) 0.0437 Uani
C21 C 0.15773(14) 0.7103(3) 1.0062(2) 0.0520 Uani
H9 H 0.1394 0.7364 1.0158 0.0620 Uiso
C22 C 0.16867(14) 0.6245(3) 0.9411(2) 0.0524 Uani
H10 H 0.1577 0.5929 0.9074 0.0630 Uiso
C23 C 0.14131(13) 0.6610(3) 0.9572(2) 0.0537 Uani
C24 C 0.09570(15) 0.6517(4) 0.9220(3) 0.0677 Uani
C25 C 0.05833(15) 0.6471(4) 0.8946(3) 0.0742 Uani
C26 C 0.01235(15) 0.6420(4) 0.8603(3) 0.0737 Uani
C27 C -0.0514(2) 0.5859(6) 0.7814(4) 0.1318 Uani
H11 H -0.0638 0.5493 0.7520 0.1590 Uiso
C28 C -0.0367(2) 0.9228(5) 0.5157(4) 0.1263 Uani
H12 H -0.0520 0.9607 0.5203 0.1520 Uiso
C29 C -0.07642(15) 0.6328(3) 0.7910(3) 0.0634 Uani
C30 C -0.12395(17) 0.6283(4) 0.7541(3) 0.0664 Uani
C31 C -0.05593(16) 0.8769(4) 0.4706(3) 0.0718 Uani
C32 C -0.0331(2) 0.8192(6) 0.4693(4) 0.1382 Uani
H13 H -0.0467 0.7830 0.4399 0.1660 Uiso
C33 C 0.25536(16) 0.7403(3) 0.7508(2) 0.0562 Uani
C34 C 0.22750(14) 0.8046(3) 0.7208(2) 0.0494 Uani
C35 C 0.18354(14) 0.7985(3) 0.6911(2) 0.0562 Uani
H14 H 0.1708 0.7545 0.6904 0.0680 Uiso
C36 C 0.15880(14) 0.8586(3) 0.6623(3) 0.0601 Uani
C37 C 0.3073(6) 0.5829(10) 0.6968(8) 0.2100 Uani
C38 C 0.3703(3) 0.6431(5) 1.0866(3) 0.1028 Uani
C39 C 0.4460(3) 0.6558(8) 1.1584(6) 0.2146 Uani
C40 C 0.3913(5) 0.7125(8) 1.1830(5) 0.2100 Uani
C41 C 0.2853(7) 0.5667(12) 0.5816(8) 0.2867 Uani
N2 N 0.2983(5) 0.5314(9) 0.6489(6) 0.2403 Uani
N3 N 0.4013(3) 0.6679(5) 1.1419(3) 0.1361 Uani
C42 C 0.3127(8) 0.3138(14) 0.9649(11) 0.3300 Uiso
C43 C 0.4005(10) 0.315(2) 1.0353(19) 0.5500 Uiso
O15 O -0.1461(2) 0.6756(5) 0.7539(3) 0.0595 Uiso
Cd1A Cd -0.209786(9) 0.62229(2) 0.689965(16) 0.0486 Uani
Cd1C Cd 0.290214(9) 1.12229(2) 0.689965(16) 0.0486 Uani
Cd1F Cd 0.290214(9) 0.87771(2) 1.189965(16) 0.0486 Uani
Cd2C Cd 0.184388(10) 1.14121(2) 0.680527(17) 0.0513 Uani
Cd2F Cd 0.184388(10) 0.85879(2) 1.180527(17) 0.0513 Uani
Cd2G Cd -0.184388(10) 0.85879(2) 0.319473(17) 0.0513 Uani
Cd3C Cd 0.177586(11) 1.06859(2) 0.544725(18) 0.0582 Uani
Cd3F Cd 0.177586(11) 0.93141(2) 1.044725(18) 0.0582 Uani
Cd3G Cd -0.177586(11) 0.93141(2) 0.455275(18) 0.0582 Uani
O1G O 0.37623(13) 0.5689(3) 0.9295(2) 0.0911 Uani
O6C O 0.28199(10) 0.55073(18) 0.84394(15) 0.0520 Uani
O7C O 0.21927(10) 0.5091(2) 0.77558(17) 0.0644 Uani
O8F O 0.24198(9) 0.7194(2) 0.87422(16) 0.0578 Uani
O9F O 0.30825(10) 0.6812(2) 0.90561(15) 0.0542 Uani
O10G O 0.38413(14) 0.6602(4) 0.8776(2) 0.1116 Uani
O14A O 0.1413(4) 0.6081(7) 0.7991(5) 0.0980 Uiso
O15A O 0.1461(2) 0.6756(5) 0.7461(3) 0.0595 Uiso
loop_
_atom_site_aniso_label
_atom_site_aniso_U_11
_atom_site_aniso_U_22
_atom_site_aniso_U_33
_atom_site_aniso_U_23
_atom_site_aniso_U_13
_atom_site_aniso_U_12
Cd1 0.02420(14) 0.0464(2) 0.0621(2) -0.00625(16) 0.01009(14) 0.00281(13)
Cd2 0.03380(17) 0.0471(2) 0.0622(2) 0.00225(16) 0.01439(15) 0.00788(14)
Cd3 0.04015(19) 0.0617(3) 0.0648(2) -0.00130(18) 0.01875(16) 0.01048(17)
O1 0.041 0.091 0.135 0.047 0.037 0.013
O2 0.049(2) 0.125(5) 0.083(3) -0.017(3) 0.010(2) 0.009(3)
O3 0.175(6) 0.079(4) 0.122(4) 0.026(3) 0.084(4) 0.053(4)
O4 0.0329(16) 0.083(3) 0.071(2) -0.009(2) 0.0193(16) 0.0090(17)
O5 0.059(2) 0.063(3) 0.068(2) -0.0108(18) 0.0314(18) 0.0078(18)
O6 0.0443 0.04 0.064 0.0106 0.0198 0.0054
O7 0.0365 0.05 0.082 0.0123 0.0086 -0.0093
O8 0.0331 0.056 0.067 -0.0155 0.0101 -0.0033
O9 0.0462 0.047 0.061 -0.0128 0.019 0.0028
O10 0.045 0.168 0.096 -0.004 0.013 -0.004
O11 0.162(5) 0.078(4) 0.092(3) -0.001(3) 0.075(4) 0.022(3)
O12 0.0309(16) 0.057(3) 0.119(3) 0.027(2) 0.0131(19) 0.0070(16)
O13 0.0475(18) 0.042(2) 0.070(2) 0.0077(16) 0.0223(16) 0.0032(15)
C1 0.028(2) 0.048(3) 0.079(3) 0.016(2) 0.013(2) 0.004(2)
C2 0.40(3) 0.205(7) 0.214(13) -0.051(8) 0.174(18) 0.015(18)
C3 0.25(3) 0.066(13) 0.177(18) 0.050(12) 0.15(2) 0.066(15)
C4 0.039 0.119 0.079 0.021 0.022 -0.004
C5 0.033(3) 0.193(10) 0.155(7) -0.109(7) 0.011(4) -0.005(4)
C6 0.037(3) 0.169(9) 0.167(8) -0.095(7) 0.024(4) -0.005(4)
C7 0.056(4) 0.178(7) 0.154(6) -0.084(6) 0.044(4) -0.008(4)
C8 0.028(2) 0.045(3) 0.064(3) 0.009(2) 0.0098(19) 0.0014(19)
C9 0.034(2) 0.045(3) 0.063(3) 0.008(2) 0.006(2) -0.002(2)
C10 0.039(3) 0.055(4) 0.100(4) 0.023(3) 0.010(3) -0.005(2)
C11 0.031(2) 0.062(4) 0.118(5) 0.028(3) 0.002(3) -0.004(2)
C12 0.027(2) 0.069(5) 0.114(5) 0.022(4) 0.004(3) -0.009(3)
C13 0.036(3) 0.127(8) 0.198(9) -0.041(7) 0.001(4) 0.013(4)
C14 0.044(4) 0.159(9) 0.150(8) -0.058(7) -0.014(4) 0.021(5)
C15 0.035 0.04 0.059 -0.006 0.014 -0.0015
C16 0.04 0.042 0.053 0.003 0.013 -0.004
C17 0.040(2) 0.050(3) 0.067(3) 0.006(2) 0.023(2) 0.006(2)
C18 0.034(2) 0.044(3) 0.052(3) -0.002(2) 0.0167(19) 0.0006(19)
C19 0.0281(19) 0.042(3) 0.056(3) 0.001(2) 0.0109(18) -0.0004(18)
C20 0.030(2) 0.036(3) 0.055(3) -0.0043(19) 0.0123(18) -0.0012(18)
C21 0.032(2) 0.050(3) 0.065(3) -0.009(2) 0.016(2) -0.001(2)
C22 0.033(2) 0.059(4) 0.056(3) -0.011(2) 0.014(2) -0.001(2)
C23 0.027(2) 0.054(4) 0.066(3) -0.010(2) 0.011(2) -0.002(2)
C24 0.034(2) 0.084(5) 0.074(3) -0.025(3) 0.017(2) -0.004(3)
C25 0.028(2) 0.101(5) 0.080(4) -0.026(3) 0.015(2) -0.009(3)
C26 0.025(2) 0.100(5) 0.077(4) -0.026(3) 0.009(2) -0.012(3)
C27 0.053(4) 0.185(8) 0.137(6) -0.083(6) 0.029(4) -0.016(4)
C28 0.044 0.13 0.164 -0.045 0.017 0.017
C29 0.032(2) 0.070(4) 0.073(3) -0.004(3) 0.013(2) -0.003(2)
C30 0.04 0.072 0.08 -0.004 0.023 -0.004
C31 0.032 0.085 0.08 0.011 0.012 0.001
C32 0.059 0.131 0.147 -0.043 -0.013 0.009
C33 0.045(3) 0.047(4) 0.065(3) 0.010(2) 0.017(2) 0.007(2)
C34 0.034(2) 0.036(3) 0.065(3) 0.010(2) 0.013(2) -0.0010(19)
C35 0.033(2) 0.038(3) 0.081(3) 0.017(2) 0.014(2) -0.0030(19)
C36 0.029(2) 0.054(4) 0.075(3) 0.014(3) 0.007(2) -0.001(2)
C37 0.225(10) 0.196(8) 0.213(7) -0.032(7) 0.108(8) 0.020(8)
C38 0.099(6) 0.105(7) 0.072(5) -0.010(4) 0.015(4) -0.006(5)
C39 0.075(6) 0.237(16) 0.203(12) -0.012(11) -0.037(7) -0.022(8)
C40 0.300(18) 0.202(15) 0.118(8) -0.076(9) 0.092(10) -0.002(12)
C41 0.348(13) 0.323(12) 0.222(6) 0.005(7) 0.163(9) -0.012(9)
N2 0.307(10) 0.223(7) 0.185(6) -0.029(5) 0.113(7) 0.015(8)
N3 0.136(7) 0.121(7) 0.095(5) -0.022(4) 0.010(4) -0.023(5)
Cd1A 0.0242 0.0464 0.0621 0.00625 0.01009 -0.00281
Cd1C 0.0242 0.0464 0.0621 0.00625 0.01009 -0.00281
Cd1F 0.0242 0.0464 0.0621 -0.00625 0.01009 0.00281
Cd2C 0.0338 0.0471 0.0622 -0.00225 0.01439 -0.00788
Cd2F 0.0338 0.0471 0.0622 0.00225 0.01439 0.00788
Cd2G 0.0338 0.0471 0.0622 -0.00225 0.01439 -0.00788
Cd3C 0.04015 0.0617 0.0648 0.0013 0.01875 -0.01048
Cd3F 0.04015 0.0617 0.0648 -0.0013 0.01875 0.01048
Cd3G 0.04015 0.0617 0.0648 0.0013 0.01875 -0.01048
O1G 0.041 0.091 0.135 -0.047 0.037 -0.013
O6C 0.0443 0.04 0.064 -0.0106 0.0198 -0.0054
O7C 0.0365 0.05 0.082 -0.0123 0.0086 0.0093
O8F 0.0331 0.056 0.067 -0.0155 0.0101 -0.0033
O9F 0.0462 0.047 0.061 -0.0128 0.019 0.0028
O10G 0.045 0.168 0.096 0.004 0.013 0.004
loop_
_geom_bond_atom_site_label_1
_geom_bond_atom_site_label_2
_geom_bond_site_symmetry_1
_geom_bond_site_symmetry_2
Cd1 O5 1_555 1_555
Cd2 O11 1_555 1_555
Cd3 O2 1_555 1_555
O1 C4 1_555 1_555
O2 C38 1_555 1_555
O3 Cd3 1_555 1_555
O4 Cd3 1_555 1_555
O5 C17 1_555 1_555
O6 C16 1_555 1_555
O7 C16 1_555 1_555
O8 C15 1_555 1_555
O9 C15 1_555 1_555
O10 C4 1_555 1_555
O11 C37 1_555 1_555
O12 Cd2 1_555 1_555
O13 Cd1 1_555 1_555
O14 C30 1_555 1_555
C1 H1 1_555 1_555
C2 N2 1_555 1_555
N1 C3 1_555 1_555
C3 O3 1_555 1_555
C4 C31 1_555 1_555
C5 H2 1_555 1_555
C6 C5 1_555 1_555
H3 C6 1_555 1_555
C7 H4 1_555 1_555
C8 C1 1_555 1_555
C9 C8 1_555 1_555
H5 C9 1_555 1_555
C10 C11 1_555 1_555
C11 C12 1_555 1_555
C12 C13 1_555 1_555
C13 H6 1_555 1_555
C14 C12 1_555 1_555
H7 C14 1_555 1_555
C15 C20 1_555 1_555
C16 C8 1_555 1_555
C17 O4 1_555 1_555
C18 C17 1_555 1_555
C19 C18 1_555 1_555
H8 C19 1_555 1_555
C20 C19 1_555 1_555
C21 C20 1_555 1_555
H9 C21 1_555 1_555
C22 C18 1_555 1_555
H10 C22 1_555 1_555
C23 C21 1_555 1_555
C24 C23 1_555 1_555
C25 C24 1_555 1_555
C26 C5 1_555 1_555
C27 C7 1_555 1_555
H11 C27 1_555 1_555
C28 C14 1_555 1_555
H12 C28 1_555 1_555
C29 C6 1_555 1_555
C30 C29 1_555 1_555
C31 C28 1_555 1_555
C32 C13 1_555 1_555
H13 C32 1_555 1_555
C33 O12 1_555 1_555
C34 C9 1_555 1_555
C35 C34 1_555 1_555
H14 C35 1_555 1_555
C36 C1 1_555 1_555
C37 N2 1_555 1_555
C38 N3 1_555 1_555
C39 N3 1_555 1_555
C40 N3 1_555 1_555
C41 N2 1_555 1_555
C42 N1 1_555 1_555
C43 N1 1_555 1_555
O15 C30 1_555 1_555
Cd1A O14 1_555 1_555
Cd1C O6 1_555 1_555
Cd1F O8 1_555 1_555
Cd2C O6 1_555 1_555
Cd2F O9 1_555 1_555
Cd2G O10 1_555 1_555
Cd3C O6 1_555 1_555
Cd3F O9 1_555 1_555
Cd3G O1 1_555 1_555
O1G Cd3 1_555 1_555
O6C Cd1 1_555 1_555
O7C Cd1 1_555 1_555
O8F Cd1 1_555 1_555
O9F Cd2 1_555 1_555
O10G Cd2 1_555 1_555
O14A Cd1 1_555 1_555
O15A Cd1 1_555 1_555
Cd2 O13 1_555 1_555
Cd2 O6C 1_555 1_555
Cd3 O6C 1_555 1_555
Cd3 O9F 1_555 1_555
O7 Cd1C 1_555 1_555
O13 C33 1_555 1_555
C7 C26 1_555 1_555
C10 C36 1_555 1_555
C22 C23 1_555 1_555
C25 C26 1_555 1_555
C27 C29 1_555 1_555
C31 C32 1_555 1_555
C33 C34 1_555 1_555
C35 C36 1_555 1_555
O15 Cd1A 1_555 1_555

#END
