
#######################################################################
#
#                 Cambridge Crystallographic Data Centre
#                                CCDC 
#
#######################################################################
#
# If this CIF has been generated from an entry in the Cambridge 
# Structural Database, then it will include bibliographic, chemical, 
# crystal, experimental, refinement or atomic coordinate data resulting 
# from the CCDC's data processing and validation procedures.
#
#######################################################################

data_WARJAC
_chemical_formula_moiety         '(C8 H18 N6 Ni3 O17)n'
_symmetry_cell_setting           trigonal
_symmetry_space_group_name_H-M   'P 31 2 1'
_symmetry_Int_Tables_number      152
_space_group_name_Hall           'P 31 2"'
loop_
_symmetry_equiv_pos_site_id
_symmetry_equiv_pos_as_xyz
1 x,y,z
2 -y,x-y,1/3+z
3 -x+y,-x,2/3+z
4 x-y,-y,2/3-z
5 -x,-x+y,1/3-z
6 y,x,-z
_cell_length_a                   11.92450(10)
_cell_length_b                   11.92450(10)
_cell_length_c                   16.3020(5)
_cell_angle_alpha                90
_cell_angle_beta                 90
_cell_angle_gamma                120
_cell_volume                     2007.48
loop_
_atom_site_label
_atom_site_type_symbol
_atom_site_fract_x
_atom_site_fract_y
_atom_site_fract_z
Ni1 Ni 0.62675(6) 0.62675(6) 0.0000
Ni2 Ni 0.54338(6) 1.04826(5) 0.14107(3)
N1 N 0.5745(3) 0.7195(3) 0.07986(19)
O1 O 0.4568(3) 0.9319(3) 0.24863(17)
O2 O 0.6984(4) 0.8094(3) -0.05657(18)
O3 O 0.4303(4) 0.7532(3) 0.3110(2)
N2 N 0.5723(4) 0.8952(4) 0.1183(2)
O4 O 0.7128(4) 1.1483(4) 0.2085(2)
O5 O 0.3730(4) 0.9487(4) 0.0746(3)
N3 N 0.5127(4) 0.6909(3) 0.1537(2)
C1 C 0.5139(4) 0.8003(4) 0.1750(2)
C2 C 0.6065(4) 0.8388(4) 0.0610(2)
C3 C 0.4616(5) 0.8265(4) 0.2519(3)
O6 O 0.6496(5) 1.1529(4) 0.0439(2)
O7 O 0.7192(6) 1.0045(4) -0.0388(3)
C4 C 0.6801(6) 0.8908(5) -0.0172(3)
H2 H 0.6961 1.1523 0.0045
H3 H 0.5732 1.1045 0.0259
H5 H 0.6992 1.1880 0.2470
H6 H 0.3999 0.9949 0.0314
H9 H 0.7532 1.1155 0.2318
H12 H 0.3103 0.9601 0.0876
Ni1A Ni 0.37325(6) 1.00000(8) 0.3333
Ni1B Ni 1.00000(8) 0.37325(6) -0.3333
Ni2E Ni 1.04826(5) 0.54338(6) -0.14107(3)
Ni2D Ni 0.45662(6) 0.50488(8) 0.19226(3)
Ni2B Ni 0.50488(8) 0.45662(6) -0.19226(3)
N1E N 0.7195(3) 0.5745(3) -0.07986(19)
O1E O 0.9319(3) 0.4568(3) -0.24863(17)
O1B O 0.4751(4) 0.5432(3) -0.08470(17)
O1D O 0.5432(3) 0.4751(4) 0.08470(17)
O2E O 0.8094(3) 0.6984(4) 0.05657(18)
O3E O 0.7532(3) 0.4303(4) -0.3110(2)
N2E N 0.8952(4) 0.5723(4) -0.1183(2)
O4E O 1.1483(4) 0.7128(4) -0.2085(2)
O5E O 0.9487(4) 0.3730(4) -0.0746(3)
N3E N 0.6909(3) 0.5127(4) -0.1537(2)
N3D N 0.4873(4) 1.1782(5) 0.1796(2)
N3B N 1.1782(5) 0.4873(4) -0.1796(2)
C1E C 0.8003(4) 0.5139(4) -0.1750(2)
C2E C 0.8388(4) 0.6065(4) -0.0610(2)
C3E C 0.8265(4) 0.4616(5) -0.2519(3)
O6E O 1.1529(4) 0.6496(5) -0.0439(2)
O7E O 1.0045(4) 0.7192(6) 0.0388(3)
C4E C 0.8908(5) 0.6801(6) 0.0172(3)
H2E H 1.1523 0.6961 -0.0045
H3E H 1.1045 0.5732 -0.0259
H5E H 1.1880 0.6992 -0.2470
H6E H 0.9949 0.3999 -0.0314
H9E H 1.1155 0.7532 -0.2318
H12E H 0.9601 0.3103 -0.0876
O8 O 0.8416(5) 0.8002(6) 0.2089(3)
H7 H 0.8977 0.7861 0.2313
H10 H 0.8125 0.7462 0.1698
O9 O 0.6347(11) 0.5464(13) 0.4276(5)
H1 H 0.6865 0.6278 0.4271
H11 H 0.6344 0.5057 0.4710
O10 O 0.1371(14) 0.1732(9) 0.0979(7)
H4 H 0.1464 0.1964 0.1479
H8 H 0.0578 0.1414 0.0854
loop_
_geom_bond_atom_site_label_1
_geom_bond_atom_site_label_2
_geom_bond_site_symmetry_1
_geom_bond_site_symmetry_2
Ni1 N1 1_555 1_555
Ni2 O1 1_555 1_555
N1 N3 1_555 1_555
O1 C3 1_555 1_555
O2 Ni1 1_555 1_555
O3 C3 1_555 1_555
N2 Ni2 1_555 1_555
O4 Ni2 1_555 1_555
O5 Ni2 1_555 1_555
N3 C1 1_555 1_555
C1 N2 1_555 1_555
C2 N1 1_555 1_555
C3 C1 1_555 1_555
O6 Ni2 1_555 1_555
O7 C4 1_555 1_555
C4 O2 1_555 1_555
O8 H7 1_555 1_555
O9 H1 1_555 1_555
O10 H4 1_555 1_555
H2 O6 1_555 1_555
H3 O6 1_555 1_555
H5 O4 1_555 1_555
H6 O5 1_555 1_555
H8 O10 1_555 1_555
H9 O4 1_555 1_555
H10 O8 1_555 1_555
H11 O9 1_555 1_555
H12 O5 1_555 1_555
Ni1A O1 1_555 1_555
Ni1B O1E 1_555 1_555
Ni2E O1E 1_555 1_555
Ni2D N3 1_555 1_555
Ni2B O1B 1_555 1_555
N1E Ni1 1_555 1_555
O1E C3E 1_555 1_555
O1B Ni1 1_555 1_555
O1D Ni1 1_555 1_555
O2E Ni1 1_555 1_555
O3E C3E 1_555 1_555
N2E Ni2E 1_555 1_555
O4E Ni2E 1_555 1_555
O5E Ni2E 1_555 1_555
N3E Ni2B 1_555 1_555
N3D Ni2 1_555 1_555
N3B Ni2E 1_555 1_555
C1E N2E 1_555 1_555
C2E N1E 1_555 1_555
C3E C1E 1_555 1_555
O6E Ni2E 1_555 1_555
O7E C4E 1_555 1_555
C4E O2E 1_555 1_555
H2E O6E 1_555 1_555
H3E O6E 1_555 1_555
H5E O4E 1_555 1_555
H6E O5E 1_555 1_555
H9E O4E 1_555 1_555
H12E O5E 1_555 1_555
N2 C2 1_555 1_555
C2 C4 1_555 1_555
Ni2D O1D 1_555 1_555
N1E N3E 1_555 1_555
N2E C2E 1_555 1_555
N3E C1E 1_555 1_555
C2E C4E 1_555 1_555

#END
