
#######################################################################
#
#                 Cambridge Crystallographic Data Centre
#                                CCDC 
#
#######################################################################
#
# If this CIF has been generated from an entry in the Cambridge 
# Structural Database, then it will include bibliographic, chemical, 
# crystal, experimental, refinement or atomic coordinate data resulting 
# from the CCDC's data processing and validation procedures.
#
#######################################################################

data_DEFKUU
_chemical_formula_moiety         '(C6 H18 Cu3 O15 P2)n'
_symmetry_cell_setting           monoclinic
_symmetry_space_group_name_H-M   'P 21/c'
_symmetry_Int_Tables_number      14
_space_group_name_Hall           '-P 2ybc'
loop_
_symmetry_equiv_pos_site_id
_symmetry_equiv_pos_as_xyz
1 x,y,z
2 -x,1/2+y,1/2-z
3 -x,-y,-z
4 x,1/2-y,1/2+z
_cell_length_a                   5.022(5)
_cell_length_b                   12.340(5)
_cell_length_c                   16.390(8)
_cell_angle_alpha                90
_cell_angle_beta                 109.7(1)
_cell_angle_gamma                90
_cell_volume                     956.263
loop_
_atom_site_label
_atom_site_type_symbol
_atom_site_fract_x
_atom_site_fract_y
_atom_site_fract_z
Cu1 Cu 0.0000 0.0000 0.0000
Cu2 Cu 0.5881(1) -0.1353(1) 0.1172(1)
P1 P 0.5791(1) 0.1077(1) 0.0799(1)
O1 O 0.2565(5) 0.1171(2) 0.0465(1)
O2 O 0.3157(5) -0.0977(2) -0.0008(1)
O3 O 0.6937(6) 0.0149(2) 0.1425(1)
C1 C 0.7204(8) 0.2300(3) 0.1359(2)
C2 C 0.6482(9) 0.2484(3) 0.2178(2)
C3 C 0.8597(7) 0.3165(3) 0.2859(2)
O4 O 1.1082(5) 0.3193(2) 0.2815(1)
O5 O 0.7947(6) 0.3626(3) 0.3441(1)
O7 O 0.5407(7) -0.2919(2) 0.0847(2)
H1 H 0.66(1) 0.294(5) 0.097(4)
H2 H 0.91(1) 0.223(5) 0.152(4)
H3 H 0.47(1) 0.282(5) 0.209(4)
H4 H 0.64(1) 0.179(5) 0.246(4)
H7 H 0.36(1) -0.310(6) 0.063(4)
H8 H 0.61(1) -0.336(6) 0.124(4)
O1B O -0.2565(5) -0.1171(2) -0.0465(1)
O2B O -0.3157(5) 0.0977(2) 0.0008(1)
O2B_2 O 0.6843(5) 0.0977(2) 0.0008(1)
Cu2A Cu 1.4119(1) 0.3647(1) 0.3828(1)
Cu2A_2 Cu 0.4119(1) 0.3647(1) 0.3828(1)
O4A O 0.8918(5) -0.1807(2) 0.2185(1)
O5A O 0.2053(6) -0.1374(3) 0.1559(1)
P1B P 0.4209(1) -0.1077(1) -0.0799(1)
O1B_2 O 0.7435(5) -0.1171(2) -0.0465(1)
O3B O 0.3063(6) -0.0149(2) -0.1425(1)
C1B C 0.2796(8) -0.2300(3) -0.1359(2)
Cu1_2 Cu 1.0000 0.0000 0.0000
Cu2B Cu 0.4119(1) 0.1353(1) -0.1172(1)
C2B C 0.3518(9) -0.2484(3) -0.2178(2)
H1B H 0.34(1) -0.294(5) -0.097(4)
H2B H 0.09(1) -0.223(5) -0.152(4)
C3B C 0.1403(7) -0.3165(3) -0.2859(2)
H3B H 0.53(1) -0.282(5) -0.209(4)
H4B H 0.36(1) -0.179(5) -0.246(4)
O4B O -0.1082(5) -0.3193(2) -0.2815(1)
O5B O 0.2053(6) -0.3626(3) -0.3441(1)
Cu2C Cu -0.4119(1) -0.3647(1) -0.3828(1)
Cu2C_2 Cu 0.5881(1) -0.3647(1) -0.3828(1)
O2A O 1.6843(5) 0.4023(2) 0.5008(1)
O3A O 1.3063(6) 0.5149(2) 0.3575(1)
O5_2 O 1.7947(6) 0.3626(3) 0.3441(1)
O7A O 1.4593(7) 0.2081(2) 0.4153(2)
H7A H 1.64(1) 0.190(6) 0.437(4)
H8A H 1.39(1) 0.164(6) 0.376(4)
O6 O -0.0131(10) 0.6694(3) 0.0012(3)
H5 H -0.08(2) 0.729(7) 0.002(5)
H6 H -0.03(2) 0.617(7) -0.001(6)
O8 O 0.1599(20) 0.4870(5) 0.1330(3)
H9 H 0.09(2) 0.46(1) 0.094(7)
H10 H -0.00(2) 0.494(8) 0.159(6)
O9 O 0.7371(10) 0.5461(3) 0.2086(3)
H11 H 0.55(2) 0.513(7) 0.182(6)
H12 H 0.79(2) 0.548(8) 0.257(6)
loop_
_geom_bond_atom_site_label_1
_geom_bond_atom_site_label_2
_geom_bond_site_symmetry_1
_geom_bond_site_symmetry_2
Cu1 O1 1_555 1_555
Cu2 O2 1_555 1_555
P1 O1 1_555 1_555
O2 Cu1 1_555 1_555
O3 Cu2 1_555 1_555
C1 P1 1_555 1_555
C2 C1 1_555 1_555
C3 C2 1_555 1_555
O4 C3 1_555 1_555
O5 C3 1_555 1_555
O6 H5 1_555 1_555
O7 Cu2 1_555 1_555
O8 H9 1_555 1_555
O9 H11 1_555 1_555
H1 C1 1_555 1_555
H2 C1 1_555 1_555
H3 C2 1_555 1_555
H4 C2 1_555 1_555
H6 O6 1_555 1_555
H7 O7 1_555 1_555
H8 O7 1_555 1_555
H10 O8 1_555 1_555
H12 O9 1_555 1_555
O1B Cu1 1_555 1_555
O2B Cu1 1_555 1_555
O2B_2 P1 1_555 1_555
Cu2A O4 1_555 1_555
Cu2A_2 O5 1_555 1_555
O4A Cu2 1_555 1_555
O5A Cu2 1_555 1_555
P1B O2 1_555 1_555
O1B_2 P1B 1_555 1_555
O3B P1B 1_555 1_555
C1B P1B 1_555 1_555
Cu1_2 O2B_2 1_555 1_555
Cu2B O2B_2 1_555 1_555
C2B C1B 1_555 1_555
H1B C1B 1_555 1_555
H2B C1B 1_555 1_555
C3B C2B 1_555 1_555
H3B C2B 1_555 1_555
H4B C2B 1_555 1_555
O4B C3B 1_555 1_555
O5B C3B 1_555 1_555
Cu2C O4B 1_555 1_555
Cu2C_2 O5B 1_555 1_555
O2A Cu2A 1_555 1_555
O3A Cu2A 1_555 1_555
O5_2 Cu2A 1_555 1_555
O7A Cu2A 1_555 1_555
H7A O7A 1_555 1_555
H8A O7A 1_555 1_555
P1 O3 1_555 1_555
O1B_2 Cu1_2 1_555 1_555
O3B Cu2B 1_555 1_555

#END
