
#######################################################################
#
#                 Cambridge Crystallographic Data Centre
#                                CCDC 
#
#######################################################################
#
# If this CIF has been generated from an entry in the Cambridge 
# Structural Database, then it will include bibliographic, chemical, 
# crystal, experimental, refinement or atomic coordinate data resulting 
# from the CCDC's data processing and validation procedures.
#
#######################################################################

data_FOFTOL
_chemical_formula_moiety         '(C64 H42 Cd3 N4 O14)n'
_symmetry_cell_setting           triclinic
_symmetry_space_group_name_H-M   'P -1'
_symmetry_Int_Tables_number      2
_space_group_name_Hall           '-P 1'
loop_
_symmetry_equiv_pos_site_id
_symmetry_equiv_pos_as_xyz
1 x,y,z
2 -x,-y,-z
_cell_length_a                   16.611(6)
_cell_length_b                   16.723(6)
_cell_length_c                   19.288(7)
_cell_angle_alpha                78.537(12)
_cell_angle_beta                 65.243(13)
_cell_angle_gamma                62.351(10)
_cell_volume                     4309.83
loop_
_atom_site_label
_atom_site_type_symbol
_atom_site_fract_x
_atom_site_fract_y
_atom_site_fract_z
Cd1 Cd -0.87702(4) 2.71219(3) 2.44014(4)
Cd2 Cd -0.79493(4) 2.84098(4) 2.25575(4)
Cd3 Cd -0.71078(4) 2.95560(3) 2.06328(4)
O1 O -0.7607(4) 2.6943(4) 2.2344(4)
O2 O -0.8589(5) 2.8198(4) 2.4886(4)
O3 O -0.7752(3) 2.7819(3) 2.3700(3)
O4 O -0.8241(3) 2.9871(3) 2.2723(3)
O5 O 0.0431(3) 2.8886(3) 2.3201(3)
O6 O 0.0282(3) 2.7620(3) 2.3717(3)
O7 O -0.6334(3) 2.7949(3) 2.1990(3)
O8 O -0.6029(4) 2.9022(3) 2.1186(3)
O9 O 0.1816(3) 2.8921(3) 2.1425(3)
O10 O 0.2617(4) 2.8518(4) 2.0222(3)
O11 O 0.2173(4) 2.0857(3) 2.1325(4)
O12 O 0.1831(4) 2.0943(3) 2.0318(3)
N1 N -1.0201(4) 2.7492(4) 2.5456(4)
N2 N -1.2743(5) 2.8168(5) 2.7443(4)
N3 N -1.3452(5) 2.8871(5) 2.7394(4)
N4 N -1.5858(4) 2.9436(4) 2.9466(4)
C1 C -1.0433(6) 2.6876(6) 2.5916(6)
H1 H -1.0016 2.6261 2.5776
C2 C -1.1249(6) 2.7062(6) 2.6595(5)
H2 H -1.1372 2.6598 2.6932
C3 C -1.1884(5) 2.7990(5) 2.6749(5)
C4 C -1.1649(6) 2.8613(5) 2.6255(5)
H3 H -1.2081 2.9236 2.6345
C5 C -1.0813(6) 2.8362(5) 2.5642(5)
H4 H -1.0645 2.8817 2.5323
C6 C -1.4259(6) 2.9059(5) 2.8119(5)
C7 C -1.4144(6) 2.8996(5) 2.8778(6)
H5 H -1.3517 2.8841 2.8779
C8 C -1.4954(6) 2.9160(6) 2.9462(6)
H6 H -1.4868 2.9076 2.9932
C9 C -1.5953(6) 2.9556(6) 2.8803(5)
H7 H -1.6593 2.9775 2.8803
C10 C -1.5181(6) 2.9382(6) 2.8115(5)
H8 H -1.5281 2.9481 2.7649
C11 C -0.7912(6) 2.8199(5) 2.4272(5)
C12 C -0.7306(5) 2.8661(5) 2.4216(4)
C13 C -0.7599(5) 2.9261(5) 2.4769(5)
H9 H -0.8195 2.9373 2.5198
C14 C -0.7042(5) 2.9702(5) 2.4713(5)
H10 H -0.7261 3.0120 2.5093
C15 C -0.6175(5) 2.9528(5) 2.4103(5)
C16 C -0.5858(5) 2.8921(5) 2.3551(5)
H11 H -0.5243 2.8784 2.3138
C17 C -0.6444(5) 2.8510(5) 2.3602(5)
H12 H -0.6244 2.8120 2.3207
C18 C -0.5613(5) 3.0045(5) 2.4027(5)
C19 C -0.6074(5) 3.0961(5) 2.4092(5)
H13 H -0.6754 3.1262 2.4185
C20 C -0.5579(5) 3.1467(4) 2.4027(5)
C21 C -0.4598(5) 3.1030(5) 2.3892(5)
H14 H -0.4263 3.1369 2.3875
C22 C -0.4072(5) 3.0090(4) 2.3779(5)
C23 C -0.4599(5) 2.9615(4) 2.3853(4)
H15 H -0.4265 2.8979 2.3785
C24 C -0.6130(5) 3.2482(5) 2.4086(5)
C25 C -0.5998(10) 3.2960(7) 2.4508(10)
H16 H -0.5544 3.2646 2.4753
C26 C -0.6511(11) 3.3875(8) 2.4575(10)
H17 H -0.6422 3.4197 2.4871
C27 C -0.7171(5) 3.4334(5) 2.4203(5)
C28 C -0.7295(11) 3.3889(8) 2.3758(10)
H18 H -0.7745 3.4201 2.3509
C29 C -0.6737(13) 3.2966(8) 2.3687(11)
H19 H -0.6772 3.2652 2.3349
C30 C -0.7707(6) 3.5347(5) 2.4245(6)
O13 O -0.8570(9) 3.5694(7) 2.4305(11)
O14 O -0.7545(11) 3.5762(8) 2.4603(11)
C31 C -0.3030(5) 2.9640(5) 2.3657(5)
C32 C -0.2422(5) 3.0094(5) 2.3287(5)
H20 H -0.2677 3.0679 2.3077
C33 C -0.1470(5) 2.9694(5) 2.3231(5)
H21 H -0.1070 3.0010 2.2995
C34 C -0.1085(5) 2.8837(4) 2.3513(4)
C35 C -0.1659(5) 2.8380(4) 2.3861(5)
H22 H -0.1398 2.7792 2.4064
C36 C -0.2604(5) 2.8773(5) 2.3912(4)
H23 H -0.2986 2.8439 2.4131
C37 C -0.0028(5) 2.8405(5) 2.3468(5)
C38 C -0.5798(5) 2.8330(5) 2.1567(4)
C39 C -0.4418(5) 2.7082(5) 2.1915(5)
H24 H -0.4837 2.6793 2.2194
C40 C -0.3461(6) 2.6669(5) 2.1864(5)
H25 H -0.3231 2.6106 2.2112
C41 C -0.2843(5) 2.7062(4) 2.1460(5)
C42 C -0.3180(5) 2.7902(5) 2.1125(5)
H26 H -0.2761 2.8197 2.0871
C43 C -0.4147(6) 2.8306(5) 2.1170(4)
H27 H -0.4376 2.8870 2.0921
C44 C -0.4784(5) 2.7903(5) 2.1571(4)
C45 C -0.1781(5) 2.6571(4) 2.1344(5)
C46 C -0.1261(5) 2.7027(5) 2.1335(5)
H28 H -0.1586 2.7660 2.1422
C47 C -0.0280(5) 2.6569(5) 2.1203(5)
C48 C 0.0196(5) 2.5649(4) 2.1122(5)
H29 H 0.0878 2.5349 2.1024
C49 C -0.0309(5) 2.5141(5) 2.1182(5)
C50 C -0.1309(5) 2.5628(4) 2.1282(5)
H30 H -0.1668 2.5310 2.1308
C51 C 0.0182(5) 2.4164(5) 2.1121(5)
C52 C 0.0827(6) 2.3678(5) 2.1464(5)
H31 H 0.0957 2.3976 2.1748
C53 C 0.1295(6) 2.2759(5) 2.1404(5)
H32 H 0.1724 2.2427 2.1669
C54 C 0.1163(5) 2.2293(5) 2.0966(4)
C55 C 0.0511(6) 2.2795(5) 2.0606(5)
H33 H 0.0421 2.2506 2.0285
C56 C -0.0005(5) 2.3709(5) 2.0713(5)
H34 H -0.0498 2.4040 2.0506
C57 C 0.1760(5) 2.1314(5) 2.0869(5)
C58 C 0.0316(5) 2.7072(4) 2.1134(5)
C59 C -0.0059(5) 2.7777(5) 2.1632(5)
H35 H -0.0694 2.7953 2.2023
C60 C 0.0497(5) 2.8204(5) 2.1547(4)
H36 H 0.0248 2.8668 2.1896
C61 C 0.1418(5) 2.7992(5) 2.0970(5)
C62 C 0.1766(6) 2.7319(5) 2.0453(5)
H37 H 0.2377 2.7183 2.0037
C63 C 0.1225(5) 2.6846(5) 2.0543(5)
H38 H 0.1477 2.6372 2.0203
C64 C 0.2004(5) 2.8482(4) 2.0860(5)
Cd1_2 Cd -0.87702(4) 3.71219(3) 2.44014(4)
Cd1_3 Cd 0.12298(4) 2.71219(3) 2.44014(4)
Cd2_2 Cd 0.20507(4) 2.84098(4) 2.25575(4)
Cd3_2 Cd -1.71078(4) 2.95560(3) 3.06328(4)
Cd3_3 Cd 0.28922(4) 1.95560(3) 2.06328(4)
Cd3_4 Cd 0.28922(4) 2.95560(3) 2.06328(4)
O5_2 O -0.9569(3) 2.8886(3) 2.3201(3)
O6_2 O -0.9718(3) 2.7620(3) 2.3717(3)
O9_2 O -0.8184(3) 2.8921(3) 2.1425(3)
O10_2 O -0.7383(4) 2.8518(4) 2.0222(3)
O11_2 O -0.7827(4) 3.0857(3) 2.1325(4)
O12_2 O -0.8169(4) 3.0943(3) 2.0318(3)
N4_2 N -0.5858(4) 2.9436(4) 1.9466(4)
O13_2 O -0.8570(9) 2.5694(7) 2.4305(11)
O14_2 O -0.7545(11) 2.5762(8) 2.4603(11)
loop_
_geom_bond_atom_site_label_1
_geom_bond_atom_site_label_2
_geom_bond_site_symmetry_1
_geom_bond_site_symmetry_2
Cd1 O2 1_555 1_555
Cd2 O1 1_555 1_555
Cd3 O8 1_555 1_555
O2 C11 1_555 1_555
O3 Cd1 1_555 1_555
O4 Cd2 1_555 1_555
O5 C37 1_555 1_555
O6 C37 1_555 1_555
O7 Cd2 1_555 1_555
O8 C38 1_555 1_555
O9 C64 1_555 1_555
O10 C64 1_555 1_555
O11 C57 1_555 1_555
O12 C57 1_555 1_555
N1 Cd1 1_555 1_555
N2 N3 1_555 1_555
N3 C6 1_555 1_555
N4 C8 1_555 1_555
C1 N1 1_555 1_555
H1 C1 1_555 1_555
C2 C1 1_555 1_555
H2 C2 1_555 1_555
C3 N2 1_555 1_555
C4 C3 1_555 1_555
H3 C4 1_555 1_555
C5 N1 1_555 1_555
H4 C5 1_555 1_555
C6 C7 1_555 1_555
C7 H5 1_555 1_555
C8 C7 1_555 1_555
H6 C8 1_555 1_555
C9 N4 1_555 1_555
H7 C9 1_555 1_555
C10 C6 1_555 1_555
H8 C10 1_555 1_555
C11 O3 1_555 1_555
C12 C11 1_555 1_555
C13 C12 1_555 1_555
H9 C13 1_555 1_555
C14 C13 1_555 1_555
H10 C14 1_555 1_555
C15 C14 1_555 1_555
C16 C15 1_555 1_555
H11 C16 1_555 1_555
C17 C12 1_555 1_555
H12 C17 1_555 1_555
C18 C15 1_555 1_555
C19 C18 1_555 1_555
H13 C19 1_555 1_555
C20 C19 1_555 1_555
C21 C20 1_555 1_555
H14 C21 1_555 1_555
C22 C21 1_555 1_555
C23 C18 1_555 1_555
H15 C23 1_555 1_555
C24 C20 1_555 1_555
C25 C24 1_555 1_555
H16 C25 1_555 1_555
C26 C25 1_555 1_555
H17 C26 1_555 1_555
C27 C26 1_555 1_555
C28 C27 1_555 1_555
H18 C28 1_555 1_555
C29 C24 1_555 1_555
H19 C29 1_555 1_555
C30 C27 1_555 1_555
O13 C30 1_555 1_555
O14 C30 1_555 1_555
C31 C22 1_555 1_555
C32 C31 1_555 1_555
H20 C32 1_555 1_555
C33 C32 1_555 1_555
H21 C33 1_555 1_555
C34 C33 1_555 1_555
C35 C34 1_555 1_555
H22 C35 1_555 1_555
C36 C31 1_555 1_555
H23 C36 1_555 1_555
C37 C34 1_555 1_555
C38 O7 1_555 1_555
C39 H24 1_555 1_555
C40 C39 1_555 1_555
H25 C40 1_555 1_555
C41 C40 1_555 1_555
C42 C41 1_555 1_555
H26 C42 1_555 1_555
C43 C42 1_555 1_555
H27 C43 1_555 1_555
C44 C38 1_555 1_555
C45 C41 1_555 1_555
C46 C45 1_555 1_555
H28 C46 1_555 1_555
C47 C46 1_555 1_555
C48 C47 1_555 1_555
H29 C48 1_555 1_555
C49 C48 1_555 1_555
C50 C45 1_555 1_555
H30 C50 1_555 1_555
C51 C49 1_555 1_555
C52 C51 1_555 1_555
H31 C52 1_555 1_555
C53 C52 1_555 1_555
H32 C53 1_555 1_555
C54 C53 1_555 1_555
C55 C54 1_555 1_555
H33 C55 1_555 1_555
C56 C51 1_555 1_555
H34 C56 1_555 1_555
C57 C54 1_555 1_555
C58 C47 1_555 1_555
C59 C58 1_555 1_555
H35 C59 1_555 1_555
C60 C59 1_555 1_555
H36 C60 1_555 1_555
C61 C60 1_555 1_555
C62 C61 1_555 1_555
H37 C62 1_555 1_555
C63 C58 1_555 1_555
H38 C63 1_555 1_555
C64 C61 1_555 1_555
Cd1_2 O13 1_555 1_555
Cd1_3 O6 1_555 1_555
Cd2_2 O5 1_555 1_555
Cd3_2 N4 1_555 1_555
Cd3_3 O11 1_555 1_555
Cd3_4 O9 1_555 1_555
O5_2 Cd2 1_555 1_555
O6_2 Cd1 1_555 1_555
O9_2 Cd2 1_555 1_555
O10_2 Cd3 1_555 1_555
O11_2 Cd3 1_555 1_555
O12_2 Cd3 1_555 1_555
N4_2 Cd3 1_555 1_555
O13_2 Cd1 1_555 1_555
O14_2 Cd1 1_555 1_555
Cd2 O3 1_555 1_555
Cd3 O9_2 1_555 1_555
O9 Cd2_2 1_555 1_555
O10 Cd3_4 1_555 1_555
O12 Cd3_3 1_555 1_555
C2 C3 1_555 1_555
C4 C5 1_555 1_555
C9 C10 1_555 1_555
C16 C17 1_555 1_555
C22 C23 1_555 1_555
C28 C29 1_555 1_555
O14 Cd1_2 1_555 1_555
C35 C36 1_555 1_555
C39 C44 1_555 1_555
C43 C44 1_555 1_555
C49 C50 1_555 1_555
C55 C56 1_555 1_555
C62 C63 1_555 1_555

#END
