
#######################################################################
#
#                 Cambridge Crystallographic Data Centre
#                                CCDC 
#
#######################################################################
#
# If this CIF has been generated from an entry in the Cambridge 
# Structural Database, then it will include bibliographic, chemical, 
# crystal, experimental, refinement or atomic coordinate data resulting 
# from the CCDC's data processing and validation procedures.
#
#######################################################################

data_IBOTIC
_chemical_formula_moiety         '(C67 H64 B1 Cl2 La1 N8 O19)n'
_symmetry_cell_setting           monoclinic
_symmetry_space_group_name_H-M   'P 21/n'
_symmetry_Int_Tables_number      14
_space_group_name_Hall           '-P 2yn'
loop_
_symmetry_equiv_pos_site_id
_symmetry_equiv_pos_as_xyz
1 x,y,z
2 1/2-x,1/2+y,1/2-z
3 -x,-y,-z
4 1/2+x,1/2-y,1/2+z
_cell_length_a                   13.2242(11)
_cell_length_b                   38.366(3)
_cell_length_c                   13.2515(11)
_cell_angle_alpha                90
_cell_angle_beta                 99.752(1)
_cell_angle_gamma                90
_cell_volume                     6626.13
loop_
_atom_site_label
_atom_site_type_symbol
_atom_site_fract_x
_atom_site_fract_y
_atom_site_fract_z
La1 La 0.24087(3) 0.374950(12) -0.27141(3)
O1 O 0.3149(3) 0.43533(11) -0.2323(3)
O2 O 0.2282(3) 0.31230(11) -0.3181(3)
O3 O -0.1906(3) 0.59557(11) -0.5591(3)
O4 O 0.5578(3) 0.13942(11) 0.1565(3)
O5 O 0.3792(3) 0.36782(11) -0.3771(3)
O6 O -0.5954(3) 0.36464(11) -0.1598(3)
O7 O 0.2193(3) 0.34339(11) -1.1137(3)
O8 O 0.1188(3) 0.41062(11) -0.1892(3)
N1 N 0.2630(4) 0.46377(14) -0.2690(5)
N2 N 0.2741(5) 0.28729(15) -0.2561(4)
N3 N -0.1076(4) 0.57953(14) -0.5112(4)
N4 N 0.5140(4) 0.16290(13) 0.0888(4)
N5 N 0.3645(4) 0.36470(14) -0.4783(4)
N6 N -0.4968(4) 0.37098(15) -0.1625(4)
N7 N 0.2465(4) 0.34782(14) -1.0129(4)
N8 N 0.0220(4) 0.40401(14) -0.1767(4)
C1 C 0.2007(5) 0.47970(17) -0.2152(5)
H1 H 0.1997 0.4726 -0.1467
C2 C 0.1380(5) 0.50622(16) -0.2566(5)
H2 H 0.0945 0.5173 -0.2162
C3 C 0.1367(5) 0.51704(17) -0.3560(5)
C4 C 0.2084(5) 0.50184(17) -0.4075(5)
H3 H 0.2136 0.5097 -0.4744
C5 C 0.2725(5) 0.47539(17) -0.3634(5)
H4 H 0.3224 0.4656 -0.3988
C6 C 0.2164(6) 0.26774(19) -0.2036(5)
H5 H 0.1444 0.2714 -0.2125
C7 C 0.2612(5) 0.24236(17) -0.1372(5)
H6 H 0.2205 0.2289 -0.0991
C8 C 0.3672(5) 0.23653(17) -0.1262(5)
C9 C 0.4223(5) 0.25686(16) -0.1824(5)
H7 H 0.4941 0.2533 -0.1768
C10 C 0.3757(5) 0.28229(17) -0.2466(5)
H8 H 0.4152 0.2963 -0.2843
C11 C -0.0422(5) 0.56407(17) -0.5643(5)
H9 H -0.0526 0.5664 -0.6367
C12 C 0.0390(5) 0.54507(16) -0.5157(5)
H10 H 0.0845 0.5346 -0.5550
C13 C 0.0566(5) 0.54075(17) -0.4101(5)
C14 C -0.0100(5) 0.55859(17) -0.3569(5)
H11 H 0.0008 0.5577 -0.2842
C15 C -0.0911(5) 0.57736(17) -0.4085(5)
H12 H -0.1363 0.5890 -0.3711
C16 C 0.5529(5) 0.16918(17) 0.0037(5)
H13 H 0.6129 0.1572 -0.0076
C17 C 0.5069(5) 0.19265(17) -0.0672(5)
H14 H 0.5350 0.1968 -0.1275
C18 C 0.4195(5) 0.21042(16) -0.0516(5)
C19 C 0.3809(5) 0.20290(17) 0.0377(5)
H15 H 0.3201 0.2140 0.0503
C20 C 0.4304(5) 0.17956(17) 0.1071(5)
H16 H 0.4050 0.1752 0.1688
C21 C 0.3299(5) 0.33443(18) -0.5211(5)
H17 H 0.3189 0.3152 -0.4790
C22 C 0.3100(6) 0.33095(18) -0.6267(5)
H18 H 0.2857 0.3093 -0.6563
C23 C 0.3251(5) 0.35858(17) -0.6896(5)
C24 C 0.3633(6) 0.38893(18) -0.6419(5)
H19 H 0.3767 0.4083 -0.6821
C25 C 0.3822(5) 0.39158(19) -0.5366(6)
H20 H 0.4081 0.4128 -0.5054
C26 C -0.4261(5) 0.34779(17) -0.1197(5)
H21 H -0.4471 0.3270 -0.0901
C27 C -0.3228(5) 0.35402(17) -0.1188(5)
H22 H -0.2734 0.3375 -0.0883
C28 C -0.2909(5) 0.38392(15) -0.1615(5)
C29 C -0.3668(5) 0.40704(17) -0.2061(5)
H23 H -0.3478 0.4279 -0.2368
C30 C -0.4682(5) 0.40017(18) -0.2064(5)
H24 H -0.5189 0.4161 -0.2378
C31 C 0.2960(5) 0.37703(19) -0.9726(5)
H25 H 0.3124 0.3949 -1.0169
C32 C 0.3224(5) 0.38092(17) -0.8690(5)
H26 H 0.3568 0.4015 -0.8419
C33 C 0.2995(5) 0.35513(17) -0.8027(5)
C34 C 0.2488(6) 0.32575(18) -0.8474(5)
H27 H 0.2317 0.3075 -0.8050
C35 C 0.2232(6) 0.32276(18) -0.9514(5)
H28 H 0.1882 0.3025 -0.9802
C36 C -0.0047(5) 0.37266(19) -0.1459(4)
H29 H 0.0459 0.3551 -0.1283
C37 C -0.1075(5) 0.36575(16) -0.1397(5)
H30 H -0.1264 0.3433 -0.1188
C38 C -0.1816(5) 0.39117(17) -0.1637(5)
C39 C -0.1476(5) 0.42343(17) -0.1909(5)
H31 H -0.1956 0.4420 -0.2050
C40 C -0.0474(5) 0.42943(17) -0.1980(5)
H32 H -0.0268 0.4518 -0.2181
O7_2 O 0.2193(3) 0.34339(11) -0.1137(3)
La1_2 La 0.24087(3) 0.374950(12) -1.27141(3)
O4C O 0.0578(3) 0.36058(11) -0.3435(3)
La1C La 0.74087(3) 0.125050(12) 0.22859(3)
O6_2 O 0.4046(3) 0.36464(11) -0.1598(3)
La1_3 La -0.75913(3) 0.374950(12) -0.27141(3)
O3B O 0.1906(3) 0.40443(11) -0.4409(3)
La1B La -0.24087(3) 0.625050(12) -0.72859(3)
Cl1 Cl 0.75024(16) 0.51640(5) -0.29939(15)
O9 O 0.6832(4) 0.49239(13) -0.2572(5)
O10 O 0.6996(4) 0.52975(13) -0.3959(4)
O11 O 0.7760(4) 0.54521(12) -0.2310(4)
O12 O 0.8424(4) 0.49777(13) -0.3118(4)
Cl2 Cl 0.18737(16) 0.22989(5) -0.77924(15)
O13 O 0.0968(4) 0.20858(13) -0.7927(4)
O14 O 0.1990(4) 0.24597(12) -0.8754(4)
O15 O 0.2759(4) 0.20812(13) -0.7442(4)
O16 O 0.1782(4) 0.25693(13) -0.7047(4)
B1 B 0.2045(6) 0.1268(2) -0.2783(6)
C41 C 0.1249(5) 0.09450(17) -0.3127(5)
C42 C 0.1034(6) 0.06869(19) -0.2460(6)
H33 H 0.1329 0.0705 -0.1756
C43 C 0.0401(7) 0.0401(2) -0.2781(7)
H34 H 0.0275 0.0232 -0.2292
C44 C -0.0045(7) 0.0360(2) -0.3801(7)
H35 H -0.0471 0.0165 -0.4022
C45 C 0.0156(7) 0.0611(2) -0.4478(6)
H36 H -0.0138 0.0592 -0.5181
C46 C 0.0781(6) 0.08933(19) -0.4149(6)
H37 H 0.0899 0.1061 -0.4643
C47 C 0.1641(6) 0.16314(17) -0.3402(5)
C48 C 0.0610(6) 0.17282(19) -0.3552(6)
H38 H 0.0127 0.1571 -0.3349
C49 C 0.0262(7) 0.2043(2) -0.3984(6)
H39 H -0.0444 0.2101 -0.4045
C50 C 0.0915(8) 0.2268(2) -0.4319(7)
H40 H 0.0671 0.2484 -0.4613
C51 C 0.1936(8) 0.2182(2) -0.4234(6)
H41 H 0.2396 0.2338 -0.4481
C52 C 0.2304(6) 0.18631(18) -0.3779(5)
H42 H 0.3009 0.1805 -0.3730
C53 C 0.3187(5) 0.11766(18) -0.3036(5)
C54 C 0.3363(6) 0.09240(19) -0.3769(5)
H43 H 0.2810 0.0781 -0.4077
C55 C 0.4331(6) 0.0880(2) -0.4053(6)
H44 H 0.4421 0.0711 -0.4554
C56 C 0.5157(6) 0.1082(2) -0.3608(6)
H45 H 0.5812 0.1052 -0.3800
C57 C 0.5016(6) 0.13251(18) -0.2882(6)
H46 H 0.5575 0.1466 -0.2573
C58 C 0.4060(6) 0.13651(18) -0.2604(6)
H47 H 0.3993 0.1531 -0.2088
C59 C 0.2095(6) 0.13337(17) -0.1538(5)
C60 C 0.1405(6) 0.15499(19) -0.1143(6)
H48 H 0.0937 0.1686 -0.1607
C61 C 0.1371(6) 0.15757(19) -0.0097(6)
H49 H 0.0895 0.1728 0.0141
C62 C 0.2039(6) 0.13765(19) 0.0584(6)
H50 H 0.2016 0.1387 0.1296
C63 C 0.2733(6) 0.1165(2) 0.0231(6)
H51 H 0.3196 0.1030 0.0701
C64 C 0.2766(6) 0.11461(16) -0.0800(6)
H52 H 0.3264 0.1000 -0.1021
O17 O 1.0126(5) 0.03839(15) 0.0936(5)
C65 C 1.0732(9) 0.0455(3) 0.0144(9)
O18 O 0.4846(6) 0.2208(2) -0.6363(6)
C66 C 0.4729(14) 0.2443(5) -0.5622(14)
O19 O -0.1748(13) 0.5149(4) -0.0275(11)
C67 C -0.2481(14) 0.4875(5) -0.0186(13)
loop_
_geom_bond_atom_site_label_1
_geom_bond_atom_site_label_2
_geom_bond_site_symmetry_1
_geom_bond_site_symmetry_2
La1 O1 1_555 1_555
O1 N1 1_555 1_555
O2 La1 1_555 1_555
O3 N3 1_555 1_555
O4 N4 1_555 1_555
O5 La1 1_555 1_555
O6 N6 1_555 1_555
O7 N7 1_555 1_555
O8 La1 1_555 1_555
N1 C1 1_555 1_555
N2 O2 1_555 1_555
N3 C11 1_555 1_555
N4 C16 1_555 1_555
N5 O5 1_555 1_555
N6 C26 1_555 1_555
N7 C31 1_555 1_555
N8 O8 1_555 1_555
C1 H1 1_555 1_555
C2 C1 1_555 1_555
H2 C2 1_555 1_555
C3 C2 1_555 1_555
C4 C3 1_555 1_555
H3 C4 1_555 1_555
C5 N1 1_555 1_555
H4 C5 1_555 1_555
C6 N2 1_555 1_555
H5 C6 1_555 1_555
C7 C6 1_555 1_555
H6 C7 1_555 1_555
C8 C7 1_555 1_555
C9 C8 1_555 1_555
H7 C9 1_555 1_555
C10 N2 1_555 1_555
H8 C10 1_555 1_555
C11 H9 1_555 1_555
C12 C11 1_555 1_555
H10 C12 1_555 1_555
C13 C3 1_555 1_555
C14 C13 1_555 1_555
H11 C14 1_555 1_555
C15 N3 1_555 1_555
H12 C15 1_555 1_555
C16 H13 1_555 1_555
C17 C16 1_555 1_555
H14 C17 1_555 1_555
C18 C8 1_555 1_555
C19 C18 1_555 1_555
H15 C19 1_555 1_555
C20 N4 1_555 1_555
H16 C20 1_555 1_555
C21 N5 1_555 1_555
H17 C21 1_555 1_555
C22 C21 1_555 1_555
H18 C22 1_555 1_555
C23 C22 1_555 1_555
C24 C23 1_555 1_555
H19 C24 1_555 1_555
C25 N5 1_555 1_555
H20 C25 1_555 1_555
C26 H21 1_555 1_555
C27 C26 1_555 1_555
H22 C27 1_555 1_555
C28 C27 1_555 1_555
C29 C28 1_555 1_555
H23 C29 1_555 1_555
C30 N6 1_555 1_555
H24 C30 1_555 1_555
C31 H25 1_555 1_555
C32 C31 1_555 1_555
H26 C32 1_555 1_555
C33 C23 1_555 1_555
C34 C33 1_555 1_555
H27 C34 1_555 1_555
C35 N7 1_555 1_555
H28 C35 1_555 1_555
C36 N8 1_555 1_555
H29 C36 1_555 1_555
C37 C36 1_555 1_555
H30 C37 1_555 1_555
C38 C28 1_555 1_555
C39 C38 1_555 1_555
H31 C39 1_555 1_555
C40 N8 1_555 1_555
H32 C40 1_555 1_555
Cl1 O9 1_555 1_555
O10 Cl1 1_555 1_555
O11 Cl1 1_555 1_555
O12 Cl1 1_555 1_555
Cl2 O13 1_555 1_555
O14 Cl2 1_555 1_555
O15 Cl2 1_555 1_555
O16 Cl2 1_555 1_555
B1 C41 1_555 1_555
C41 C42 1_555 1_555
C42 H33 1_555 1_555
C43 C42 1_555 1_555
H34 C43 1_555 1_555
C44 C43 1_555 1_555
H35 C44 1_555 1_555
C45 C44 1_555 1_555
H36 C45 1_555 1_555
C46 C41 1_555 1_555
H37 C46 1_555 1_555
C47 B1 1_555 1_555
C48 C47 1_555 1_555
H38 C48 1_555 1_555
C49 C48 1_555 1_555
H39 C49 1_555 1_555
C50 C49 1_555 1_555
H40 C50 1_555 1_555
C51 C50 1_555 1_555
H41 C51 1_555 1_555
C52 C47 1_555 1_555
H42 C52 1_555 1_555
C53 B1 1_555 1_555
C54 C53 1_555 1_555
H43 C54 1_555 1_555
C55 C54 1_555 1_555
H44 C55 1_555 1_555
C56 C55 1_555 1_555
H45 C56 1_555 1_555
C57 C56 1_555 1_555
H46 C57 1_555 1_555
C58 C53 1_555 1_555
H47 C58 1_555 1_555
C59 B1 1_555 1_555
C60 C59 1_555 1_555
H48 C60 1_555 1_555
C61 C60 1_555 1_555
H49 C61 1_555 1_555
C62 C61 1_555 1_555
H50 C62 1_555 1_555
C63 C62 1_555 1_555
H51 C63 1_555 1_555
C64 C59 1_555 1_555
H52 C64 1_555 1_555
O17 C65 1_555 1_555
O18 C66 1_555 1_555
O19 C67 1_555 1_555
O7_2 La1 1_555 1_555
La1_2 O7 1_555 1_555
O4C La1 1_555 1_555
La1C O4 1_555 1_555
O6_2 La1 1_555 1_555
La1_3 O6 1_555 1_555
O3B La1 1_555 1_555
La1B O3 1_555 1_555
C4 C5 1_555 1_555
C9 C10 1_555 1_555
C12 C13 1_555 1_555
C14 C15 1_555 1_555
C17 C18 1_555 1_555
C19 C20 1_555 1_555
C24 C25 1_555 1_555
C29 C30 1_555 1_555
C32 C33 1_555 1_555
C34 C35 1_555 1_555
C37 C38 1_555 1_555
C39 C40 1_555 1_555
C45 C46 1_555 1_555
C51 C52 1_555 1_555
C57 C58 1_555 1_555
C63 C64 1_555 1_555

#END
