
#######################################################################
#
#                 Cambridge Crystallographic Data Centre
#                                CCDC 
#
#######################################################################
#
# If this CIF has been generated from an entry in the Cambridge 
# Structural Database, then it will include bibliographic, chemical, 
# crystal, experimental, refinement or atomic coordinate data resulting 
# from the CCDC's data processing and validation procedures.
#
#######################################################################

data_IBOTEY
_chemical_formula_moiety         '(C90 H88 F12 La2 N16 O34 S4 2+)n'
_symmetry_cell_setting           tetragonal
_symmetry_space_group_name_H-M   'P -4 c 2'
_symmetry_Int_Tables_number      116
_space_group_name_Hall           'P -4 -2c'
loop_
_symmetry_equiv_pos_site_id
_symmetry_equiv_pos_as_xyz
1 x,y,z
2 -x,-y,z
3 y,-x,-z
4 -y,x,-z
5 x,-y,1/2+z
6 -x,y,1/2+z
7 y,x,1/2-z
8 -y,-x,1/2-z
_cell_length_a                   25.9970(4)
_cell_length_b                   25.9970(4)
_cell_length_c                   26.7847(6)
_cell_angle_alpha                90
_cell_angle_beta                 90
_cell_angle_gamma                90
_cell_volume                     18102.3
loop_
_atom_site_label
_atom_site_type_symbol
_atom_site_fract_x
_atom_site_fract_y
_atom_site_fract_z
La1 La -0.24137(2) 0.24137(2) 0.2500
La2 La -0.24894(4) -0.25927(3) 0.08273(4)
O1 O -0.2106(3) 0.3078(3) 0.1904(3)
O2 O -0.2820(3) 0.1687(3) 0.2027(4)
O3 O -0.1720(3) 0.2034(3) 0.1988(3)
O4 O -0.3146(4) 0.2762(4) 0.2035(4)
O5 O -0.1722(3) -0.2208(3) 0.0455(3)
O6 O -0.2206(3) -0.1935(3) 0.1406(3)
O7 O -0.3112(3) -0.2873(3) 0.0189(3)
O8 O -0.2077(3) -0.3281(3) 0.0276(3)
O9 O -0.6740(4) 0.2301(4) 0.1283(4)
O10 O -0.2791(3) -0.1856(3) 0.0356(3)
O11 O 0.1840(4) 0.2968(4) 0.1411(4)
O12 O -0.2921(3) 0.6612(3) 0.1183(3)
N1 N -0.22520(9) 0.35669(19) 0.18792(10)
C1 C -0.26165(11) 0.36752(18) 0.15478(12)
H1 H -0.2786 0.3403 0.1377
C2 C -0.27519(16) 0.41777(17) 0.14499(16)
H2 H -0.3013 0.4248 0.1211
C3 C -0.25162(18) 0.4578(2) 0.16915(18)
C4 C -0.2139(2) 0.44488(18) 0.2031(2)
H3 H -0.1963 0.4714 0.2205
C5 C -0.2011(2) 0.39429(17) 0.21233(19)
H4 H -0.1752 0.3863 0.2361
N2 N -0.2748(2) 0.1174(2) 0.1989(3)
C6 C -0.3066(3) 0.08205(18) 0.2173(4)
H5 H -0.3335 0.0919 0.2393
C7 C -0.3004(2) 0.0310(2) 0.2043(4)
H6 H -0.3254 0.0066 0.2147
C8 C -0.2587(2) 0.0148(2) 0.1768(3)
C9 C -0.2254(3) 0.05275(17) 0.1618(4)
H7 H -0.1934 0.0434 0.1472
C10 C -0.2372(3) 0.10436(19) 0.1673(3)
H8 H -0.2189 0.1299 0.1492
N3 N -0.12449(19) 0.21417(19) 0.1893(3)
C11 C -0.11307(19) 0.2548(3) 0.1610(4)
H9 H -0.1397 0.2762 0.1482
C12 C -0.06217(18) 0.2656(3) 0.1503(3)
H10 H -0.0542 0.2903 0.1253
C13 C -0.0227(2) 0.2411(2) 0.1751(3)
C14 C -0.03615(18) 0.2000(3) 0.2047(3)
H11 H -0.0102 0.1809 0.2214
C15 C -0.08722(18) 0.1863(3) 0.2101(3)
H12 H -0.0959 0.1566 0.2290
N4 N -0.3646(2) 0.2668(2) 0.1885(3)
C16 C -0.39844(18) 0.3004(3) 0.2068(4)
H13 H -0.3873 0.3281 0.2273
C17 C -0.45007(19) 0.2944(2) 0.1956(3)
H14 H -0.4746 0.3169 0.2103
C18 C -0.4665(2) 0.2566(2) 0.1635(3)
C19 C -0.43003(18) 0.2226(3) 0.1473(4)
H15 H -0.4405 0.1933 0.1287
C20 C -0.3786(2) 0.2298(3) 0.1571(4)
H16 H -0.3534 0.2087 0.1416
N5 N -0.12462(19) -0.2285(2) 0.0276(3)
C21 C -0.11061(19) -0.2678(3) -0.0012(4)
H17 H -0.1349 -0.2932 -0.0110
C22 C -0.05974(19) -0.2708(3) -0.0167(3)
H18 H -0.0510 -0.2924 -0.0440
C23 C -0.0217(2) -0.2431(3) 0.0071(3)
C24 C -0.03813(18) -0.2055(3) 0.0398(3)
H19 H -0.0136 -0.1830 0.0545
C25 C -0.08956(19) -0.1999(3) 0.0513(3)
H20 H -0.1000 -0.1759 0.0761
N6 N -0.23282(19) -0.1433(2) 0.1498(3)
C26 C -0.1988(3) -0.10921(18) 0.1328(4)
H21 H -0.1685 -0.1208 0.1163
C27 C -0.2072(2) -0.0571(2) 0.1390(4)
H22 H -0.1845 -0.0333 0.1235
C28 C -0.2476(2) -0.0390(2) 0.1672(4)
C29 C -0.2839(3) -0.07557(19) 0.1796(5)
H23 H -0.3171 -0.0649 0.1901
C30 C -0.2728(3) -0.1275(2) 0.1770(4)
H24 H -0.2935 -0.1517 0.1945
N7 N -0.36140(19) -0.27513(18) 0.0104(3)
C31 C -0.37428(18) -0.2337(3) -0.0161(3)
H25 H -0.3485 -0.2123 -0.0302
C32 C -0.42591(18) -0.2223(3) -0.0229(3)
H26 H -0.4353 -0.1949 -0.0445
C33 C -0.4638(2) -0.2498(2) 0.0009(3)
C34 C -0.44797(18) -0.2900(3) 0.0304(3)
H27 H -0.4724 -0.3077 0.0505
C35 C -0.39693(19) -0.3050(3) 0.0315(4)
H28 H -0.3873 -0.3364 0.0470
N8 N -0.2192(2) -0.3787(2) 0.0241(3)
C36 C -0.2586(2) -0.39230(18) -0.0048(3)
H29 H -0.2790 -0.3666 -0.0204
C37 C -0.2700(3) -0.44365(18) -0.0123(4)
H30 H -0.3002 -0.4528 -0.0302
C38 C -0.5180(2) -0.2381(2) -0.0058(3)
C39 C -0.5345(3) -0.19710(19) -0.0341(4)
H31 H -0.5101 -0.1723 -0.0450
C40 C -0.1910(3) -0.4144(2) 0.0469(3)
H32 H -0.1669 -0.4048 0.0719
N9 N -0.6227(2) 0.23504(19) 0.1305(3)
C41 C -0.60957(19) 0.2767(3) 0.1563(4)
H33 H -0.6349 0.3004 0.1673
C42 C -0.55819(18) 0.2846(2) 0.1665(4)
H34 H -0.5481 0.3159 0.1820
C43 C -0.5210(2) 0.2489(2) 0.1551(3)
C44 C -0.53740(19) 0.2068(3) 0.1290(4)
H35 H -0.5127 0.1834 0.1159
C45 C -0.5891(2) 0.1973(3) 0.1214(4)
H36 H -0.6006 0.1647 0.1098
N10 N -0.26899(18) -0.1356(2) 0.0271(4)
C46 C -0.2239(2) -0.12236(19) 0.0068(4)
H37 H -0.1982 -0.1475 0.0004
C47 C -0.2155(2) -0.07122(19) -0.0047(4)
H38 H -0.1852 -0.0619 -0.0224
C48 C 0.0332(2) -0.2499(2) -0.0089(4)
C49 C 0.0495(2) -0.29620(19) -0.0280(4)
H39 H 0.0249 -0.3221 -0.0355
C50 C -0.3057(3) -0.1011(2) 0.0365(4)
H40 H -0.3381 -0.1119 0.0490
N11 N 0.1333(2) 0.2816(2) 0.1487(3)
C51 C 0.12208(19) 0.2448(3) 0.1817(3)
H41 H 0.1489 0.2274 0.1988
C52 C 0.07148(18) 0.2319(3) 0.1908(3)
H42 H 0.0639 0.2056 0.2143
C53 C 0.0318(2) 0.2564(2) 0.1664(3)
C54 C 0.04527(19) 0.2950(3) 0.1337(3)
H43 H 0.0191 0.3150 0.1182
C55 C 0.0963(2) 0.3050(3) 0.1229(3)
H44 H 0.1050 0.3286 0.0971
N12 N -0.28239(19) 0.6148(2) 0.1326(3)
C56 C -0.2407(3) 0.6031(2) 0.1593(4)
H45 H -0.2153 0.6286 0.1657
C57 C -0.2343(3) 0.5540(2) 0.1776(4)
H46 H -0.2098 0.5479 0.2032
C58 C -0.2630(2) 0.5137(2) 0.1596(3)
C59 C -0.3058(3) 0.52743(19) 0.1324(3)
H47 H -0.3290 0.5015 0.1218
C60 C -0.3156(3) 0.5780(2) 0.1202(4)
H48 H -0.3463 0.5866 0.1029
O1G O -0.3078(3) 0.2106(3) 0.3096(3)
O2G O -0.1687(3) 0.2820(3) 0.2973(4)
O3G O -0.2034(3) 0.1720(3) 0.3012(3)
O4G O -0.2762(4) 0.3146(4) 0.2965(4)
C38B C -0.2381(2) -0.4820(2) 0.0058(3)
C37C C -0.55635(18) -0.2700(3) 0.0123(4)
C40C C -0.5856(2) -0.1910(3) -0.0469(3)
C39B C -0.19710(19) -0.4655(3) 0.0341(4)
C48B C -0.2499(2) -0.0332(2) 0.0089(4)
C47C C 0.07122(19) -0.2155(2) 0.0047(4)
C50C C 0.1011(2) -0.3057(3) -0.0365(4)
C49B C -0.29620(19) -0.0495(2) 0.0280(4)
C33B C -0.2498(2) -0.5362(2) -0.0009(3)
C36C C -0.60770(18) -0.2586(2) 0.0048(3)
H30C H -0.5472 -0.3002 0.0302
N8C N -0.6213(2) -0.2192(2) -0.0241(3)
H32C H -0.5952 -0.1669 -0.0719
H31B H -0.1723 -0.4899 0.0450
C23B C -0.2431(3) 0.0217(2) -0.0071(3)
C46C C 0.12236(19) -0.2239(2) -0.0068(4)
H38C H 0.0619 -0.1852 0.0224
N10C N 0.1356(2) -0.26899(18) -0.0271(4)
H40C H 0.1119 -0.3381 -0.0490
H39B H -0.3221 -0.0249 0.0355
C32B C -0.2223(3) -0.57409(18) 0.0229(3)
C34B C -0.2900(3) -0.55203(18) -0.0304(3)
H29C H -0.6334 -0.2790 0.0204
O8C O -0.6719(3) -0.2077(3) -0.0276(3)
O9A O -0.3260(4) -0.2301(4) 0.1283(4)
C22B C -0.2708(3) 0.05974(19) 0.0167(3)
C24B C -0.2055(3) 0.03813(18) -0.0398(3)
H37C H 0.1475 -0.1982 -0.0004
O10C O 0.1856(3) -0.2791(3) -0.0356(3)
O11A O -0.1840(4) -0.2968(4) 0.1411(4)
O12_2 O -0.2921(3) -0.3388(3) 0.1183(3)
C31B C -0.2337(3) -0.62572(18) 0.0161(3)
H26B H -0.1949 -0.5647 0.0445
H27B H -0.3077 -0.5276 -0.0505
C35B C -0.3050(3) -0.60307(19) -0.0315(4)
La2C La -0.74073(3) -0.24894(4) -0.08273(4)
La2A La -0.75106(4) 0.25927(3) 0.08273(4)
C21B C -0.2678(3) 0.11061(19) 0.0012(4)
H18B H -0.2924 0.0510 0.0440
H19B H -0.1830 0.0136 -0.0545
C25B C -0.1999(3) 0.08956(19) -0.0513(3)
La2C_2 La 0.25927(3) -0.24894(4) -0.08273(4)
La2A_2 La 0.24894(4) 0.25927(3) 0.08273(4)
La2_2 La -0.24894(4) 0.74073(3) 0.08273(4)
N7B N -0.27513(18) -0.63860(19) -0.0104(3)
H25B H -0.2123 -0.6515 0.0302
H28B H -0.3364 -0.6127 -0.0470
N5B N -0.2285(2) 0.12462(19) -0.0276(3)
H17B H -0.2932 0.1349 0.0110
H20B H -0.1759 0.1000 -0.0761
O7B O -0.2873(3) -0.6888(3) -0.0189(3)
O5B O -0.2208(3) 0.1722(3) -0.0455(3)
La2B La -0.25927(3) 0.24894(4) -0.08273(4)
La2B_2 La -0.25927(3) -0.75106(4) -0.08273(4)
S1 S -0.58398(15) 0.88182(17) 0.73716(18)
O13 O -0.5897(4) 0.9148(4) 0.6911(5)
O14 O -0.6266(4) 0.8478(4) 0.7499(5)
O15 O -0.5351(3) 0.8544(3) 0.7380(3)
C61 C -0.5866(8) 0.9236(6) 0.7856(6)
F1 F -0.5769(4) 0.9004(4) 0.8293(4)
F2 F -0.5409(4) 0.9510(4) 0.7843(4)
F3 F -0.6247(4) 0.9557(5) 0.7880(4)
S2 S -0.60653(16) 0.90850(15) 0.41586(19)
O16 O -0.5679(4) 0.9019(4) 0.4541(4)
O17 O -0.6390(4) 0.9516(3) 0.4261(4)
O18 O -0.6361(4) 0.8636(4) 0.4018(4)
C62 C -0.5754(6) 0.9203(7) 0.3580(5)
F4 F -0.5404(5) 0.8877(4) 0.3484(5)
F5 F -0.6089(4) 0.9301(4) 0.3263(4)
F6 F -0.5513(4) 0.9673(4) 0.3661(4)
S3 S -0.58704(13) 0.61023(13) 0.09008(14)
O19 O -0.5958(3) 0.5728(3) 0.1279(3)
O20 O -0.6296(4) 0.6424(4) 0.0792(4)
O21 O -0.5373(3) 0.6352(3) 0.0880(3)
C63 C -0.5779(4) 0.5686(4) 0.0401(4)
F7 F -0.5772(3) 0.5933(3) -0.0058(3)
F8 F -0.5375(3) 0.5401(3) 0.0421(3)
F9 F -0.6148(3) 0.5344(3) 0.0332(3)
S4 S -0.8756(2) 0.9151(2) 0.0602(2)
O22 O -0.9076(5) 0.9096(5) 0.0168(5)
O23 O -0.8407(5) 0.8741(4) 0.0672(6)
O24 O -0.8555(5) 0.9666(4) 0.0685(6)
C64 C -0.9203(4) 0.9154(5) 0.1040(5)
F10 F -0.9545(4) 0.9521(4) 0.0990(5)
F11 F -0.8970(4) 0.9187(5) 0.1469(4)
F12 F -0.9445(4) 0.8715(3) 0.1034(4)
O25 O -0.4425(6) 0.8933(4) 0.7023(6)
C65 C -0.4523(9) 0.9458(6) 0.6936(10)
O26 O -0.4384(4) 0.6004(4) 0.1202(5)
C66 C -0.4471(5) 0.5523(5) 0.1369(5)
O27 O -0.6059(3) 1.0549(4) 0.4640(4)
C67 C -0.5506(7) 1.0538(7) 0.4643(7)
O28 O -0.5590(7) 0.8927(5) 0.5507(7)
C68 C -0.5535(5) 0.9433(5) 0.5690(6)
O29 O -0.2576(10) 0.1768(5) 0.0872(11)
C69 C -0.2541(11) 0.2308(6) 0.0835(11)
O30 O -0.3658(7) 0.6125(7) 0.2351(9)
C70 C -0.3875(7) 0.6342(7) 0.2649(9)
loop_
_geom_bond_atom_site_label_1
_geom_bond_atom_site_label_2
_geom_bond_site_symmetry_1
_geom_bond_site_symmetry_2
La1 O1 1_555 1_555
La2 O5 1_555 1_555
O1 N1 1_555 1_555
O2 La1 1_555 1_555
O3 La1 1_555 1_555
O4 La1 1_555 1_555
O5 N5 1_555 1_555
O6 La2 1_555 1_555
O7 La2 1_555 1_555
O8 La2 1_555 1_555
O9 N9 1_555 1_555
O10 La2 1_555 1_555
O11 N11 1_555 1_555
O12 N12 1_555 1_555
N1 C1 1_555 1_555
C1 H1 1_555 1_555
C2 C1 1_555 1_555
H2 C2 1_555 1_555
C3 C2 1_555 1_555
C4 C3 1_555 1_555
H3 C4 1_555 1_555
C5 N1 1_555 1_555
H4 C5 1_555 1_555
N2 O2 1_555 1_555
C6 N2 1_555 1_555
H5 C6 1_555 1_555
C7 C6 1_555 1_555
H6 C7 1_555 1_555
C8 C7 1_555 1_555
C9 C8 1_555 1_555
H7 C9 1_555 1_555
C10 N2 1_555 1_555
H8 C10 1_555 1_555
N3 O3 1_555 1_555
C11 N3 1_555 1_555
H9 C11 1_555 1_555
C12 C11 1_555 1_555
H10 C12 1_555 1_555
C13 C12 1_555 1_555
C14 C13 1_555 1_555
H11 C14 1_555 1_555
C15 N3 1_555 1_555
H12 C15 1_555 1_555
N4 O4 1_555 1_555
C16 N4 1_555 1_555
H13 C16 1_555 1_555
C17 C16 1_555 1_555
H14 C17 1_555 1_555
C18 C17 1_555 1_555
C19 C18 1_555 1_555
H15 C19 1_555 1_555
C20 N4 1_555 1_555
H16 C20 1_555 1_555
N5 C21 1_555 1_555
C21 H17 1_555 1_555
C22 C21 1_555 1_555
H18 C22 1_555 1_555
C23 C22 1_555 1_555
C24 C23 1_555 1_555
H19 C24 1_555 1_555
C25 N5 1_555 1_555
H20 C25 1_555 1_555
N6 O6 1_555 1_555
C26 N6 1_555 1_555
H21 C26 1_555 1_555
C27 C26 1_555 1_555
H22 C27 1_555 1_555
C28 C8 1_555 1_555
C29 C28 1_555 1_555
H23 C29 1_555 1_555
C30 N6 1_555 1_555
H24 C30 1_555 1_555
N7 O7 1_555 1_555
C31 N7 1_555 1_555
H25 C31 1_555 1_555
C32 C31 1_555 1_555
H26 C32 1_555 1_555
C33 C32 1_555 1_555
C34 C33 1_555 1_555
H27 C34 1_555 1_555
C35 N7 1_555 1_555
H28 C35 1_555 1_555
N8 O8 1_555 1_555
C36 N8 1_555 1_555
H29 C36 1_555 1_555
C37 C36 1_555 1_555
H30 C37 1_555 1_555
C38 C33 1_555 1_555
C39 C38 1_555 1_555
H31 C39 1_555 1_555
C40 N8 1_555 1_555
H32 C40 1_555 1_555
N9 C41 1_555 1_555
C41 H33 1_555 1_555
C42 C41 1_555 1_555
H34 C42 1_555 1_555
C43 C18 1_555 1_555
C44 C43 1_555 1_555
H35 C44 1_555 1_555
C45 N9 1_555 1_555
H36 C45 1_555 1_555
N10 O10 1_555 1_555
C46 N10 1_555 1_555
H37 C46 1_555 1_555
C47 C46 1_555 1_555
H38 C47 1_555 1_555
C48 C23 1_555 1_555
C49 C48 1_555 1_555
H39 C49 1_555 1_555
C50 N10 1_555 1_555
H40 C50 1_555 1_555
N11 C51 1_555 1_555
C51 H41 1_555 1_555
C52 C51 1_555 1_555
H42 C52 1_555 1_555
C53 C13 1_555 1_555
C54 C53 1_555 1_555
H43 C54 1_555 1_555
C55 N11 1_555 1_555
H44 C55 1_555 1_555
N12 C56 1_555 1_555
C56 H45 1_555 1_555
C57 C56 1_555 1_555
H46 C57 1_555 1_555
C58 C3 1_555 1_555
C59 C58 1_555 1_555
H47 C59 1_555 1_555
C60 N12 1_555 1_555
H48 C60 1_555 1_555
S1 O13 1_555 1_555
O14 S1 1_555 1_555
O15 S1 1_555 1_555
C61 S1 1_555 1_555
F1 C61 1_555 1_555
F2 C61 1_555 1_555
F3 C61 1_555 1_555
S2 O16 1_555 1_555
O17 S2 1_555 1_555
O18 S2 1_555 1_555
C62 S2 1_555 1_555
F4 C62 1_555 1_555
F5 C62 1_555 1_555
F6 C62 1_555 1_555
S3 O19 1_555 1_555
O20 S3 1_555 1_555
O21 S3 1_555 1_555
C63 S3 1_555 1_555
F7 C63 1_555 1_555
F8 C63 1_555 1_555
F9 C63 1_555 1_555
S4 O22 1_555 1_555
O23 S4 1_555 1_555
O24 S4 1_555 1_555
C64 S4 1_555 1_555
F10 C64 1_555 1_555
F11 C64 1_555 1_555
F12 C64 1_555 1_555
O25 C65 1_555 1_555
O26 C66 1_555 1_555
O27 C67 1_555 1_555
O28 C68 1_555 1_555
O29 C69 1_555 1_555
O30 C70 1_555 1_555
O1G La1 1_555 1_555
O2G La1 1_555 1_555
O3G La1 1_555 1_555
O4G La1 1_555 1_555
C38B C37 1_555 1_555
C37C C38 1_555 1_555
C40C C39 1_555 1_555
C39B C40 1_555 1_555
C48B C47 1_555 1_555
C47C C48 1_555 1_555
C50C C49 1_555 1_555
C49B C50 1_555 1_555
C33B C38B 1_555 1_555
C36C C37C 1_555 1_555
H30C C37C 1_555 1_555
N8C C40C 1_555 1_555
H32C C40C 1_555 1_555
H31B C39B 1_555 1_555
C23B C48B 1_555 1_555
C46C C47C 1_555 1_555
H38C C47C 1_555 1_555
N10C C50C 1_555 1_555
H40C C50C 1_555 1_555
H39B C49B 1_555 1_555
C32B C33B 1_555 1_555
C34B C33B 1_555 1_555
H29C C36C 1_555 1_555
O8C N8C 1_555 1_555
O9A La2 1_555 1_555
C22B C23B 1_555 1_555
C24B C23B 1_555 1_555
H37C C46C 1_555 1_555
O10C N10C 1_555 1_555
O11A La2 1_555 1_555
O12_2 La2 1_555 1_555
C31B C32B 1_555 1_555
H26B C32B 1_555 1_555
H27B C34B 1_555 1_555
C35B C34B 1_555 1_555
La2C O8C 1_555 1_555
La2A O9 1_555 1_555
C21B C22B 1_555 1_555
H18B C22B 1_555 1_555
H19B C24B 1_555 1_555
C25B C24B 1_555 1_555
La2C_2 O10C 1_555 1_555
La2A_2 O11 1_555 1_555
La2_2 O12 1_555 1_555
N7B C31B 1_555 1_555
H25B C31B 1_555 1_555
H28B C35B 1_555 1_555
N5B C21B 1_555 1_555
H17B C21B 1_555 1_555
H20B C25B 1_555 1_555
O7B N7B 1_555 1_555
O5B N5B 1_555 1_555
La2B O5B 1_555 1_555
La2B_2 O7B 1_555 1_555
C4 C5 1_555 1_555
C9 C10 1_555 1_555
C14 C15 1_555 1_555
C19 C20 1_555 1_555
C24 C25 1_555 1_555
C27 C28 1_555 1_555
C29 C30 1_555 1_555
C34 C35 1_555 1_555
C42 C43 1_555 1_555
C44 C45 1_555 1_555
C52 C53 1_555 1_555
C54 C55 1_555 1_555
C57 C58 1_555 1_555
C59 C60 1_555 1_555
C38B C39B 1_555 1_555
C48B C49B 1_555 1_555
C36C N8C 1_555 1_555
C46C N10C 1_555 1_555
C35B N7B 1_555 1_555
C25B N5B 1_555 1_555

#END
