
#######################################################################
#
#                 Cambridge Crystallographic Data Centre
#                                CCDC 
#
#######################################################################
#
# If this CIF has been generated from an entry in the Cambridge 
# Structural Database, then it will include bibliographic, chemical, 
# crystal, experimental, refinement or atomic coordinate data resulting 
# from the CCDC's data processing and validation procedures.
#
#######################################################################

data_ESURER01
_chemical_formula_moiety         '(C17 H15 Co3 N7 O7)n'
_symmetry_cell_setting           monoclinic
_symmetry_space_group_name_H-M   'C 2/c'
_symmetry_Int_Tables_number      15
_space_group_name_Hall           '-C 2yc'
loop_
_symmetry_equiv_pos_site_id
_symmetry_equiv_pos_as_xyz
1 x,y,z
2 -x,y,1/2-z
3 1/2+x,1/2+y,z
4 1/2-x,1/2+y,1/2-z
5 -x,-y,-z
6 x,-y,1/2+z
7 1/2-x,1/2-y,-z
8 1/2+x,1/2-y,1/2+z
_cell_length_a                   17.8491(3)
_cell_length_b                   12.6534(2)
_cell_length_c                   11.1984(2)
_cell_angle_alpha                90
_cell_angle_beta                 94.865(2)
_cell_angle_gamma                90
_cell_volume                     2520.07
loop_
_atom_site_label
_atom_site_type_symbol
_atom_site_fract_x
_atom_site_fract_y
_atom_site_fract_z
Co1 Co 0.5000 0.59553(6) 0.2500
Co2 Co 0.42123(3) 0.55902(4) 0.50044(5)
N1 N 0.87397(19) 0.9348(3) 0.1621(3)
N2 N 0.91073(18) 0.9830(3) 0.2558(3)
N3 N 0.87738(18) 0.9705(3) 0.3559(3)
C1 C 0.8117(2) 0.8875(3) 0.2051(4)
C2 C 0.8149(2) 0.9104(3) 0.3279(3)
C3 C 0.7598(2) 0.8731(4) 0.4003(4)
H1 H 0.7621 0.8879 0.4828
C4 C 0.7030(2) 0.8144(4) 0.3450(4)
H2 H 0.6655 0.7880 0.3911
C5 C 0.6983(2) 0.7915(3) 0.2202(4)
C6 C 0.7528(2) 0.8270(3) 0.1492(4)
H3 H 0.7505 0.8113 0.0669
C7 C 0.6331(2) 0.7260(3) 0.1686(4)
O1 O 0.52009(15) 0.5801(2) 0.4320(2)
H4 H 0.543(2) 0.641(2) 0.465(4)
O2 O 0.63617(16) 0.6897(2) 0.0633(3)
O3 O 0.58104(16) 0.7117(2) 0.2349(3)
Co2A Co 0.57877(3) 0.55902(4) -0.00044(5)
N1A N 0.12603(19) 0.9348(3) 0.3379(3)
N2A N 0.08927(18) 0.9830(3) 0.2442(3)
N3A N 0.12262(18) 0.9705(3) 0.1441(3)
C1A C 0.1883(2) 0.8875(3) 0.2949(4)
C2A C 0.1851(2) 0.9104(3) 0.1721(3)
C3A C 0.2402(2) 0.8731(4) 0.0997(4)
H1A H 0.2379 0.8879 0.0172
C4A C 0.2970(2) 0.8144(4) 0.1550(4)
H2A H 0.3345 0.7880 0.1089
C5A C 0.3017(2) 0.7915(3) 0.2798(4)
C6A C 0.2472(2) 0.8270(3) 0.3508(4)
H3A H 0.2495 0.8113 0.4331
C7A C 0.3669(2) 0.7260(3) 0.3314(4)
O1A O 0.47991(15) 0.5801(2) 0.0680(2)
H4A H 0.457(2) 0.641(2) 0.035(4)
O2A O 0.36383(16) 0.6897(2) 0.4367(3)
O3A O 0.41896(16) 0.7117(2) 0.2651(3)
Co1B Co 0.0000 1.09553(6) 0.2500
Co1B_2 Co 1.0000 1.09553(6) 0.2500
Co2B Co 0.92123(3) 1.05902(4) 0.50044(5)
Co2C Co 0.07877(3) 1.05902(4) -0.00044(5)
Co2D Co 0.57877(3) 0.44098(4) 0.49956(5)
Co2E Co 0.42123(3) 0.44098(4) 0.00044(5)
Co2F Co 0.07877(3) 0.94098(4) 0.49956(5)
Co2G Co 0.92123(3) 0.94098(4) 0.00044(5)
N1F N 0.62603(19) 0.5652(3) -0.1621(3)
N1G N 0.37397(19) 0.5652(3) 0.6621(3)
N2B N 0.41073(18) 0.4830(3) 0.2558(3)
N2C N 0.58927(18) 0.4830(3) 0.2442(3)
N3B N 0.37738(18) 0.4705(3) 0.3559(3)
N3C N 0.62262(18) 0.4705(3) 0.1441(3)
O1D O 0.47991(15) 0.4199(2) 0.5680(2)
O1E O 0.52009(15) 0.4199(2) -0.0680(2)
O5 O 0.5453(7) 0.7663(8) 0.5665(7)
N5 N 0.6011(4) 0.8655(6) 0.7214(5)
C11 C 0.5587(6) 0.7842(7) 0.6729(7)
H12 H 0.5379 0.7377 0.7266
C12 C 0.6397(7) 0.9366(9) 0.6450(8)
H13 H 0.6670 0.9894 0.6940
H14 H 0.6746 0.8965 0.6010
H15 H 0.6031 0.9712 0.5890
C13 C 0.6142(7) 0.8797(9) 0.8500(5)
H16 H 0.6454 0.9415 0.8668
H17 H 0.5664 0.8892 0.8841
H18 H 0.6393 0.8177 0.8851
loop_
_geom_bond_atom_site_label_1
_geom_bond_atom_site_label_2
_geom_bond_site_symmetry_1
_geom_bond_site_symmetry_2
Co1 O1 1_555 1_555
Co2 O1 1_555 1_555
N1 N2 1_555 1_555
N2 N3 1_555 1_555
N3 C2 1_555 1_555
C1 N1 1_555 1_555
C2 C1 1_555 1_555
C3 C2 1_555 1_555
H1 C3 1_555 1_555
C4 C3 1_555 1_555
H2 C4 1_555 1_555
C5 C4 1_555 1_555
C6 C1 1_555 1_555
H3 C6 1_555 1_555
C7 C5 1_555 1_555
O1 H4 1_555 1_555
O2 C7 1_555 1_555
O3 Co1 1_555 1_555
O5 C11 1_555 1_555
N5 C11 1_555 1_555
C11 H12 1_555 1_555
C12 N5 1_555 1_555
H13 C12 1_555 1_555
H14 C12 1_555 1_555
H15 C12 1_555 1_555
C13 N5 1_555 1_555
H16 C13 1_555 1_555
H17 C13 1_555 1_555
H18 C13 1_555 1_555
Co2A O2 1_555 1_555
N1A N2A 1_555 1_555
N2A N3A 1_555 1_555
N3A C2A 1_555 1_555
C1A N1A 1_555 1_555
C2A C1A 1_555 1_555
C3A C2A 1_555 1_555
H1A C3A 1_555 1_555
C4A C3A 1_555 1_555
H2A C4A 1_555 1_555
C5A C4A 1_555 1_555
C6A C1A 1_555 1_555
H3A C6A 1_555 1_555
C7A C5A 1_555 1_555
O1A Co1 1_555 1_555
H4A O1A 1_555 1_555
O2A Co2 1_555 1_555
O3A Co1 1_555 1_555
Co1B N2A 1_555 1_555
Co1B_2 N2 1_555 1_555
Co2B N3 1_555 1_555
Co2C N3A 1_555 1_555
Co2D O1 1_555 1_555
Co2E O1A 1_555 1_555
Co2F N1A 1_555 1_555
Co2G N1 1_555 1_555
N1F Co2A 1_555 1_555
N1G Co2 1_555 1_555
N2B Co1 1_555 1_555
N2C Co1 1_555 1_555
N3B Co2 1_555 1_555
N3C Co2A 1_555 1_555
O1D Co2 1_555 1_555
O1E Co2A 1_555 1_555
C5 C6 1_555 1_555
C7 O3 1_555 1_555
Co2A O1A 1_555 1_555
C5A C6A 1_555 1_555
C7A O2A 1_555 1_555
C7A O3A 1_555 1_555
Co2D O1D 1_555 1_555
Co2E O1E 1_555 1_555
N2B N3B 1_555 1_555
N2C N3C 1_555 1_555

#END
