
#######################################################################
#
#                 Cambridge Crystallographic Data Centre
#                                CCDC 
#
#######################################################################
#
# If this CIF has been generated from an entry in the Cambridge 
# Structural Database, then it will include bibliographic, chemical, 
# crystal, experimental, refinement or atomic coordinate data resulting 
# from the CCDC's data processing and validation procedures.
#
#######################################################################

data_ESURER
_chemical_formula_moiety         '(C17 H15 Co3 N7 O7)n'
_symmetry_cell_setting           monoclinic
_symmetry_space_group_name_H-M   'C 2/c'
_symmetry_Int_Tables_number      15
_space_group_name_Hall           '-C 2yc'
loop_
_symmetry_equiv_pos_site_id
_symmetry_equiv_pos_as_xyz
1 x,y,z
2 -x,y,1/2-z
3 1/2+x,1/2+y,z
4 1/2-x,1/2+y,1/2-z
5 -x,-y,-z
6 x,-y,1/2+z
7 1/2-x,1/2-y,-z
8 1/2+x,1/2-y,1/2+z
_cell_length_a                   17.7835(6)
_cell_length_b                   12.7818(4)
_cell_length_c                   11.2254(3)
_cell_angle_alpha                90
_cell_angle_beta                 95.180(3)
_cell_angle_gamma                90
_cell_volume                     2541.17
loop_
_atom_site_label
_atom_site_type_symbol
_atom_site_fract_x
_atom_site_fract_y
_atom_site_fract_z
Co1 Co 0.5000 0.59464(6) 0.2500
Co2 Co 0.42086(3) 0.55816(4) 0.49986(5)
N1 N 0.8732(2) 0.9350(3) 0.1617(3)
N2 N 0.9105(2) 0.9831(3) 0.2556(3)
N3 N 0.8768(2) 0.9701(3) 0.3548(3)
C1 C 0.8120(2) 0.8870(3) 0.2046(4)
C2 C 0.8147(2) 0.9099(3) 0.3274(4)
C3 C 0.7603(3) 0.8726(4) 0.3984(4)
H1 H 0.7628 0.8873 0.4798
C4 C 0.7035(3) 0.8138(4) 0.3439(4)
H2 H 0.6663 0.7883 0.3893
C5 C 0.6991(2) 0.7902(3) 0.2195(4)
C6 C 0.7531(3) 0.8268(3) 0.1483(4)
H3 H 0.7504 0.8122 0.0669
C7 C 0.6339(2) 0.7237(3) 0.1687(4)
O1 O 0.52011(16) 0.5799(2) 0.4322(2)
H4 H 0.546(2) 0.639(2) 0.465(4)
O2 O 0.63691(18) 0.6876(2) 0.0639(3)
O3 O 0.58158(18) 0.7097(2) 0.2346(3)
Co2A Co 0.57914(3) 0.55816(4) 0.00014(5)
N1A N 0.1268(2) 0.9350(3) 0.3383(3)
N2A N 0.0895(2) 0.9831(3) 0.2444(3)
N3A N 0.1232(2) 0.9701(3) 0.1452(3)
C1A C 0.1880(2) 0.8870(3) 0.2954(4)
C2A C 0.1853(2) 0.9099(3) 0.1726(4)
C3A C 0.2397(3) 0.8726(4) 0.1016(4)
H1A H 0.2372 0.8873 0.0202
C4A C 0.2965(3) 0.8138(4) 0.1561(4)
H2A H 0.3337 0.7883 0.1107
C5A C 0.3009(2) 0.7902(3) 0.2805(4)
C6A C 0.2469(3) 0.8268(3) 0.3517(4)
H3A H 0.2496 0.8122 0.4331
C7A C 0.3661(2) 0.7237(3) 0.3313(4)
O1A O 0.47989(16) 0.5799(2) 0.0678(2)
H4A H 0.454(2) 0.639(2) 0.035(4)
O2A O 0.36309(18) 0.6876(2) 0.4361(3)
O3A O 0.41842(18) 0.7097(2) 0.2654(3)
Co1B Co 0.0000 1.09464(6) 0.2500
Co1B_2 Co 1.0000 1.09464(6) 0.2500
Co2B Co 0.92086(3) 1.05816(4) 0.49986(5)
Co2C Co 0.07914(3) 1.05816(4) 0.00014(5)
Co2D Co 0.57914(3) 0.44184(4) 0.50014(5)
Co2E Co 0.42086(3) 0.44184(4) -0.00014(5)
Co2F Co 0.07914(3) 0.94184(4) 0.50014(5)
Co2G Co 0.92086(3) 0.94184(4) -0.00014(5)
N1F N 0.6268(2) 0.5650(3) -0.1617(3)
N1G N 0.3732(2) 0.5650(3) 0.6617(3)
N2B N 0.4105(2) 0.4831(3) 0.2556(3)
N2C N 0.5895(2) 0.4831(3) 0.2444(3)
N3B N 0.3768(2) 0.4701(3) 0.3548(3)
N3C N 0.6232(2) 0.4701(3) 0.1452(3)
O1D O 0.47989(16) 0.4201(2) 0.5678(2)
O1E O 0.52011(16) 0.4201(2) -0.0678(2)
O5 O 0.5417(8) 0.7642(8) 0.5668(8)
N5 N 0.5993(5) 0.8634(6) 0.7196(6)
C11 C 0.5580(7) 0.7810(7) 0.6726(7)
H12 H 0.5407 0.7332 0.7264
C12 C 0.6295(12) 0.9407(12) 0.6418(9)
H13 H 0.6569 0.9929 0.6895
H14 H 0.6628 0.9070 0.5911
H15 H 0.5888 0.9732 0.5934
C13 C 0.6115(8) 0.8803(10) 0.8477(7)
H16 H 0.6417 0.9419 0.8632
H17 H 0.5637 0.8893 0.8800
H18 H 0.6371 0.8210 0.8846
loop_
_geom_bond_atom_site_label_1
_geom_bond_atom_site_label_2
_geom_bond_site_symmetry_1
_geom_bond_site_symmetry_2
Co1 O1 1_555 1_555
Co2 O1 1_555 1_555
N1 N2 1_555 1_555
N2 N3 1_555 1_555
N3 C2 1_555 1_555
C1 N1 1_555 1_555
C2 C1 1_555 1_555
C3 C2 1_555 1_555
H1 C3 1_555 1_555
C4 C3 1_555 1_555
H2 C4 1_555 1_555
C5 C4 1_555 1_555
C6 C1 1_555 1_555
H3 C6 1_555 1_555
C7 C5 1_555 1_555
O1 H4 1_555 1_555
O2 C7 1_555 1_555
O3 Co1 1_555 1_555
O5 C11 1_555 1_555
N5 C11 1_555 1_555
C11 H12 1_555 1_555
C12 N5 1_555 1_555
H13 C12 1_555 1_555
H14 C12 1_555 1_555
H15 C12 1_555 1_555
C13 N5 1_555 1_555
H16 C13 1_555 1_555
H17 C13 1_555 1_555
H18 C13 1_555 1_555
Co2A O2 1_555 1_555
N1A N2A 1_555 1_555
N2A N3A 1_555 1_555
N3A C2A 1_555 1_555
C1A N1A 1_555 1_555
C2A C1A 1_555 1_555
C3A C2A 1_555 1_555
H1A C3A 1_555 1_555
C4A C3A 1_555 1_555
H2A C4A 1_555 1_555
C5A C4A 1_555 1_555
C6A C1A 1_555 1_555
H3A C6A 1_555 1_555
C7A C5A 1_555 1_555
O1A Co1 1_555 1_555
H4A O1A 1_555 1_555
O2A Co2 1_555 1_555
O3A Co1 1_555 1_555
Co1B N2A 1_555 1_555
Co1B_2 N2 1_555 1_555
Co2B N3 1_555 1_555
Co2C N3A 1_555 1_555
Co2D O1 1_555 1_555
Co2E O1A 1_555 1_555
Co2F N1A 1_555 1_555
Co2G N1 1_555 1_555
N1F Co2A 1_555 1_555
N1G Co2 1_555 1_555
N2B Co1 1_555 1_555
N2C Co1 1_555 1_555
N3B Co2 1_555 1_555
N3C Co2A 1_555 1_555
O1D Co2 1_555 1_555
O1E Co2A 1_555 1_555
C5 C6 1_555 1_555
C7 O3 1_555 1_555
Co2A O1A 1_555 1_555
C5A C6A 1_555 1_555
C7A O2A 1_555 1_555
C7A O3A 1_555 1_555
Co2D O1D 1_555 1_555
Co2E O1E 1_555 1_555
N2B N3B 1_555 1_555
N2C N3C 1_555 1_555

#END
