
#######################################################################
#
#                 Cambridge Crystallographic Data Centre
#                                CCDC 
#
#######################################################################
#
# If this CIF has been generated from an entry in the Cambridge 
# Structural Database, then it will include bibliographic, chemical, 
# crystal, experimental, refinement or atomic coordinate data resulting 
# from the CCDC's data processing and validation procedures.
#
#######################################################################

data_ESUSOC02
_chemical_formula_moiety         '(C15 H12 Co3 N6 O7)n'
_symmetry_cell_setting           triclinic
_symmetry_space_group_name_H-M   'P -1'
_symmetry_Int_Tables_number      2
_space_group_name_Hall           '-P 1'
loop_
_symmetry_equiv_pos_site_id
_symmetry_equiv_pos_as_xyz
1 x,y,z
2 -x,-y,-z
_cell_length_a                   10.9638(6)
_cell_length_b                   10.9718(15)
_cell_length_c                   10.9814(11)
_cell_angle_alpha                83.227(15)
_cell_angle_beta                 85.937(7)
_cell_angle_gamma                81.093(9)
_cell_volume                     1294.08
loop_
_atom_site_label
_atom_site_type_symbol
_atom_site_fract_x
_atom_site_fract_y
_atom_site_fract_z
_atom_site_U_iso_or_equiv
_atom_site_thermal_displace_type
Co1 Co 0.0807(2) 0.9065(6) 0.2507(2) 0.0247 Uiso
Co2 Co 0.8555(2) 0.9957(6) 0.4900(2) 0.0235 Uiso
Co3 Co 0.9648(2) 0.8592(7) 0.0048(3) 0.0268 Uiso
C1 C 0.6885(11) 0.916(4) 0.2940(12) 0.0280 Uiso
C2 C 0.7097(11) 0.903(4) 0.1704(12) 0.0230 Uiso
C3 C 0.6158(12) 0.892(4) 0.0964(16) 0.0340 Uiso
H1 H 0.6320 0.8806 0.0138 0.0410 Uiso
C4 C 0.4973(13) 0.897(4) 0.1496(14) 0.0310 Uiso
H2 H 0.4322 0.8896 0.1024 0.0370 Uiso
C5 C 0.4749(13) 0.913(4) 0.2732(13) 0.0260 Uiso
C6 C 0.5684(12) 0.929(4) 0.3453(16) 0.0400 Uiso
H3 H 0.5513 0.9478 0.4257 0.0480 Uiso
C7 C 0.3434(14) 0.919(4) 0.3328(18) 0.0270 Uiso
C8 C 0.0647(15) 0.295(3) 0.2132(15) 0.0330 Uiso
C9 C 0.0931(14) 0.265(3) 0.3358(15) 0.0320 Uiso
C10 C 0.1035(15) 0.353(3) 0.4126(18) 0.0380 Uiso
H4 H 0.1240 0.3306 0.4937 0.0450 Uiso
C11 C 0.0826(16) 0.477(3) 0.3653(17) 0.0430 Uiso
H5 H 0.0867 0.5393 0.4154 0.0520 Uiso
C12 C 0.0556(15) 0.509(3) 0.2426(18) 0.0330 Uiso
C13 C 0.0418(15) 0.419(3) 0.1684(18) 0.0350 Uiso
H6 H 0.0171 0.4415 0.0886 0.0430 Uiso
C14 C 0.0504(15) 0.642(5) 0.1891(18) 0.0230 Uiso
N1 N 0.7985(10) 0.927(3) 0.3375(12) 0.0250 Uiso
N2 N 0.8810(10) 0.917(2) 0.2446(10) 0.0210 Uiso
N3 N 0.8306(10) 0.902(3) 0.1419(11) 0.0220 Uiso
N4 N 0.0618(11) 0.189(3) 0.1660(15) 0.0350 Uiso
N5 N 0.0894(9) 0.100(3) 0.2557(14) 0.0350 Uiso
N6 N 0.1112(11) 0.141(3) 0.3591(12) 0.0280 Uiso
O1 O 0.0943(9) 0.937(3) 0.0643(10) 0.0140 Uiso
H7 H 0.169(8) 0.888(14) 0.035(9) 0.0160 Uiso
O2 O 0.0400(10) 0.899(3) 0.4320(12) 0.0270 Uiso
H8 H 0.102(11) 0.841(15) 0.476(9) 0.0320 Uiso
O3 O 0.3178(10) 0.951(3) 0.4340(11) 0.0250 Uiso
O4 O 0.2724(11) 0.869(3) 0.2667(12) 0.0380 Uiso
O5 O 0.0119(11) 0.676(3) 0.0822(13) 0.0380 Uiso
O6 O 0.0819(13) 0.711(4) 0.2581(14) 0.0470 Uiso
O7 O 0.8289(16) 1.148(4) 0.3595(17) 0.0740 Uiso
H9 H 0.773(7) 1.116(14) 0.311(18) 0.0880 Uiso
C15 C 0.764(3) 1.256(4) 0.411(4) 0.1410 Uiso
H10 H 0.7537 1.3248 0.3472 0.2110 Uiso
H11 H 0.6844 1.2397 0.4444 0.2110 Uiso
H12 H 0.8106 1.2768 0.4741 0.2110 Uiso
Co1_2 Co 0.0807(2) -0.0935(6) 0.2507(2) 0.0247 Uiso
Co1_3 Co 1.0807(2) 0.9065(6) 0.2507(2) 0.0247 Uiso
Co2_2 Co -0.1445(2) 0.9957(6) 0.4900(2) 0.0235 Uiso
Co2A Co 0.1445(2) 0.0043(6) 0.5100(2) 0.0235 Uiso
Co2A_2 Co 0.1445(2) 1.0043(6) 0.5100(2) 0.0235 Uiso
Co3_2 Co -0.0352(2) 0.8592(7) 0.0048(3) 0.0268 Uiso
Co3A Co 0.0352(2) 0.1408(7) -0.0048(3) 0.0268 Uiso
Co3A_2 Co 0.0352(2) 1.1408(7) -0.0048(3) 0.0268 Uiso
N2_2 N -0.1190(10) 0.917(2) 0.2446(10) 0.0210 Uiso
N4A N 0.9382(11) 0.811(3) -0.1660(15) 0.0350 Uiso
N5_2 N 0.0894(9) 1.100(3) 0.2557(14) 0.0350 Uiso
N6A N 0.8888(11) 0.859(3) 0.6409(12) 0.0280 Uiso
O1_2 O 1.0943(9) 0.937(3) 0.0643(10) 0.0140 Uiso
O1A O 0.9057(9) 1.063(3) -0.0643(10) 0.0140 Uiso
O2_2 O 1.0400(10) 0.899(3) 0.4320(12) 0.0270 Uiso
O2A O 0.9600(10) 1.101(3) 0.5680(12) 0.0270 Uiso
O3A O 0.6822(10) 1.049(3) 0.5660(11) 0.0250 Uiso
O5_2 O 1.0119(11) 0.676(3) 0.0822(13) 0.0380 Uiso
loop_
_geom_bond_atom_site_label_1
_geom_bond_atom_site_label_2
_geom_bond_site_symmetry_1
_geom_bond_site_symmetry_2
Co1 O1 1_555 1_555
Co2 N1 1_555 1_555
Co3 N3 1_555 1_555
C1 C2 1_555 1_555
C2 C3 1_555 1_555
C3 H1 1_555 1_555
C4 C3 1_555 1_555
H2 C4 1_555 1_555
C5 C4 1_555 1_555
C6 C1 1_555 1_555
H3 C6 1_555 1_555
C7 C5 1_555 1_555
C8 C9 1_555 1_555
C9 C10 1_555 1_555
C10 H4 1_555 1_555
C11 C10 1_555 1_555
H5 C11 1_555 1_555
C12 C11 1_555 1_555
C13 C8 1_555 1_555
H6 C13 1_555 1_555
C14 C12 1_555 1_555
N1 C1 1_555 1_555
N2 N1 1_555 1_555
N3 C2 1_555 1_555
N4 C8 1_555 1_555
N5 N4 1_555 1_555
N6 C9 1_555 1_555
O1 H7 1_555 1_555
O2 Co1 1_555 1_555
H8 O2 1_555 1_555
O3 C7 1_555 1_555
O4 Co1 1_555 1_555
O5 C14 1_555 1_555
O6 Co1 1_555 1_555
O7 Co2 1_555 1_555
H9 O7 1_555 1_555
C15 O7 1_555 1_555
H10 C15 1_555 1_555
H11 C15 1_555 1_555
H12 C15 1_555 1_555
Co1_2 N5 1_555 1_555
Co1_3 N2 1_555 1_555
Co2_2 O2 1_555 1_555
Co2A N6 1_555 1_555
Co2A_2 O2 1_555 1_555
Co3_2 O1 1_555 1_555
Co3A N4 1_555 1_555
Co3A_2 O1 1_555 1_555
N2_2 Co1 1_555 1_555
N4A Co3 1_555 1_555
N5_2 Co1 1_555 1_555
N6A Co2 1_555 1_555
O1_2 Co3 1_555 1_555
O1A Co3 1_555 1_555
O2_2 Co2 1_555 1_555
O2A Co2 1_555 1_555
O3A Co2 1_555 1_555
O5_2 Co3 1_555 1_555
C5 C6 1_555 1_555
C7 O4 1_555 1_555
C12 C13 1_555 1_555
C14 O6 1_555 1_555
N2 N3 1_555 1_555
N5 N6 1_555 1_555
O3 Co2A_2 1_555 1_555
O5 Co3_2 1_555 1_555
Co1_3 O1_2 1_555 1_555
Co1_3 O2_2 1_555 1_555

#END
