
#######################################################################
#
#                 Cambridge Crystallographic Data Centre
#                                CCDC 
#
#######################################################################
#
# If this CIF has been generated from an entry in the Cambridge 
# Structural Database, then it will include bibliographic, chemical, 
# crystal, experimental, refinement or atomic coordinate data resulting 
# from the CCDC's data processing and validation procedures.
#
#######################################################################

data_ESUSOC
_chemical_formula_moiety         '(C15 H12 Co3 N6 O7)n'
_symmetry_cell_setting           triclinic
_symmetry_space_group_name_H-M   'P -1'
_symmetry_Int_Tables_number      2
_space_group_name_Hall           '-P 1'
loop_
_symmetry_equiv_pos_site_id
_symmetry_equiv_pos_as_xyz
1 x,y,z
2 -x,-y,-z
_cell_length_a                   11.0437(17)
_cell_length_b                   11.0107(5)
_cell_length_c                   11.0222(5)
_cell_angle_alpha                83.364(4)
_cell_angle_beta                 85.871(8)
_cell_angle_gamma                77.346(8)
_cell_volume                     1297.46
loop_
_atom_site_label
_atom_site_type_symbol
_atom_site_fract_x
_atom_site_fract_y
_atom_site_fract_z
Co1 Co 0.0869(5) 0.90366(15) 0.25111(14)
Co2 Co 0.9718(4) 0.85856(13) 0.00277(14)
Co3 Co 0.8537(4) 0.99996(15) 0.48949(15)
O1 O 0.0925(17) 0.9412(7) 0.0659(7)
O2 O 0.048(2) 0.9035(7) 0.4318(7)
O3 O 0.330(2) 0.9369(7) 0.4378(8)
O4 O 0.279(3) 0.8641(8) 0.2692(10)
O5 O 0.0386(18) 0.6743(7) 0.0756(7)
O6 O 0.1031(17) 0.7111(6) 0.2519(7)
N1 N 0.8425(17) 0.8951(7) 0.1428(8)
N2 N 0.890(2) 0.9152(7) 0.2444(10)
N3 N 0.8047(18) 0.9252(8) 0.3354(10)
N4 N 0.0743(17) 0.1862(7) 0.1615(7)
N5 N 0.0952(15) 0.0948(7) 0.2542(7)
N6 N 0.1157(18) 0.1363(7) 0.3567(8)
C1 C 0.6957(16) 0.9102(11) 0.2942(11)
C2 C 0.7193(18) 0.8924(10) 0.1684(10)
C3 C 0.502(2) 0.8806(12) 0.1554(12)
H1 H 0.4378 0.8721 0.1094
C4 C 0.6208(19) 0.8786(12) 0.1004(15)
H2 H 0.6348 0.8681 0.0177
C5 C 0.481(2) 0.8956(11) 0.2816(12)
C6 C 0.5777(17) 0.9122(10) 0.3493(12)
H3 H 0.5631 0.9247 0.4316
C7 C 0.357(3) 0.8990(11) 0.3321(12)
C8 C 0.079(2) 0.2957(8) 0.2090(9)
C9 C 0.103(2) 0.2643(8) 0.3314(8)
C10 C 0.113(3) 0.3539(9) 0.4102(10)
H4 H 0.1212 0.3336 0.4938
C11 C 0.108(2) 0.4732(9) 0.3549(9)
H5 H 0.1195 0.5348 0.4013
C12 C 0.086(2) 0.5035(9) 0.2344(9)
C13 C 0.070(2) 0.4192(8) 0.1574(10)
H6 H 0.0538 0.4431 0.0755
C14 C 0.074(3) 0.6416(9) 0.1831(11)
H7 H 0.181(3) 0.919(9) 0.043(8)
H8 H -0.032(5) 0.883(11) 0.448(8)
O7 O 0.809(2) 1.1800(9) 0.3571(9)
H9 H 0.784(17) 1.189(5) 0.273(6)
C15 C 0.773(5) 1.3047(19) 0.400(2)
H10 H 0.7590 1.3668 0.3308
H11 H 0.6987 1.3100 0.4511
H12 H 0.8387 1.3191 0.4456
Co1_2 Co 0.0869(5) -0.09634(15) 0.25111(14)
Co1_3 Co 1.0869(5) 0.90366(15) 0.25111(14)
Co2_2 Co -0.0282(4) 0.85856(13) 0.00277(14)
Co2A Co 0.0282(4) 0.14144(13) -0.00277(14)
Co2A_2 Co 0.0282(4) 1.14144(13) -0.00277(14)
Co3_2 Co -0.1463(4) 0.99996(15) 0.48949(15)
Co3A Co 0.1463(4) 0.00004(15) 0.51051(15)
Co3A_2 Co 0.1463(4) 1.00004(15) 0.51051(15)
O1_2 O 1.0925(17) 0.9412(7) 0.0659(7)
O1A O 0.9075(17) 1.0588(7) -0.0659(7)
O2_2 O 1.048(2) 0.9035(7) 0.4318(7)
O2A O 0.952(2) 1.0965(7) 0.5682(7)
O3A O 0.670(2) 1.0631(7) 0.5622(8)
O5_2 O 1.0386(18) 0.6743(7) 0.0756(7)
N2_2 N -0.110(2) 0.9152(7) 0.2444(10)
N4A N 0.9257(17) 0.8138(7) -0.1615(7)
N5_2 N 0.0952(15) 1.0948(7) 0.2542(7)
N6A N 0.8843(18) 0.8637(7) 0.6433(8)
loop_
_geom_bond_atom_site_label_1
_geom_bond_atom_site_label_2
_geom_bond_site_symmetry_1
_geom_bond_site_symmetry_2
Co1 O1 1_555 1_555
Co2 N1 1_555 1_555
Co3 N3 1_555 1_555
O1 H7 1_555 1_555
O2 Co1 1_555 1_555
O3 C7 1_555 1_555
O4 Co1 1_555 1_555
O5 C14 1_555 1_555
O6 Co1 1_555 1_555
N1 N2 1_555 1_555
N2 N3 1_555 1_555
N3 C1 1_555 1_555
N4 N5 1_555 1_555
N5 N6 1_555 1_555
N6 C9 1_555 1_555
C1 C2 1_555 1_555
C2 N1 1_555 1_555
C3 H1 1_555 1_555
C4 C2 1_555 1_555
H2 C4 1_555 1_555
C5 C3 1_555 1_555
C6 C1 1_555 1_555
H3 C6 1_555 1_555
C7 O4 1_555 1_555
C8 N4 1_555 1_555
C9 C8 1_555 1_555
C10 C9 1_555 1_555
H4 C10 1_555 1_555
C11 C10 1_555 1_555
H5 C11 1_555 1_555
C12 C11 1_555 1_555
C13 C8 1_555 1_555
H6 C13 1_555 1_555
C14 O6 1_555 1_555
H8 O2 1_555 1_555
O7 Co3 1_555 1_555
H9 O7 1_555 1_555
C15 O7 1_555 1_555
H10 C15 1_555 1_555
H11 C15 1_555 1_555
H12 C15 1_555 1_555
Co1_2 N5 1_555 1_555
Co1_3 N2 1_555 1_555
Co2_2 O1 1_555 1_555
Co2A N4 1_555 1_555
Co2A_2 O1 1_555 1_555
Co3_2 O2 1_555 1_555
Co3A N6 1_555 1_555
Co3A_2 O2 1_555 1_555
O1_2 Co2 1_555 1_555
O1A Co2 1_555 1_555
O2_2 Co3 1_555 1_555
O2A Co3 1_555 1_555
O3A Co3 1_555 1_555
O5_2 Co2 1_555 1_555
N2_2 Co1 1_555 1_555
N4A Co2 1_555 1_555
N5_2 Co1 1_555 1_555
N6A Co3 1_555 1_555
O3 Co3A_2 1_555 1_555
O5 Co2_2 1_555 1_555
C3 C4 1_555 1_555
C5 C6 1_555 1_555
C5 C7 1_555 1_555
C12 C13 1_555 1_555
C12 C14 1_555 1_555
Co1_3 O1_2 1_555 1_555
Co1_3 O2_2 1_555 1_555

#END
