
#######################################################################
#
#                 Cambridge Crystallographic Data Centre
#                                CCDC 
#
#######################################################################
#
# If this CIF has been generated from an entry in the Cambridge 
# Structural Database, then it will include bibliographic, chemical, 
# crystal, experimental, refinement or atomic coordinate data resulting 
# from the CCDC's data processing and validation procedures.
#
#######################################################################

data_ESUTIX
_chemical_formula_moiety         '(C44 H32 Co9 N18 O20)n'
_symmetry_cell_setting           monoclinic
_symmetry_space_group_name_H-M   'C 2/c'
_symmetry_Int_Tables_number      15
_space_group_name_Hall           '-C 2yc'
loop_
_symmetry_equiv_pos_site_id
_symmetry_equiv_pos_as_xyz
1 x,y,z
2 -x,y,1/2-z
3 1/2+x,1/2+y,z
4 1/2-x,1/2+y,1/2-z
5 -x,-y,-z
6 x,-y,1/2+z
7 1/2-x,1/2-y,-z
8 1/2+x,1/2-y,1/2+z
_cell_length_a                   16.8014(10)
_cell_length_b                   14.1730(10)
_cell_length_c                   33.1813(18)
_cell_angle_alpha                90
_cell_angle_beta                 96.641(4)
_cell_angle_gamma                90
_cell_volume                     7848.32
loop_
_atom_site_label
_atom_site_type_symbol
_atom_site_fract_x
_atom_site_fract_y
_atom_site_fract_z
Co1 Co 0.0000 -0.07056(18) 0.2500
Co2 Co 0.00688(9) 0.09479(12) 0.41734(5)
Co3 Co -0.07451(9) 0.07049(12) 0.50288(5)
Co4 Co -0.08103(9) -0.04150(12) 0.33322(5)
Co5 Co 0.09000(9) 0.06817(12) 0.33554(5)
C1 C 0.1882(7) 0.1368(10) 0.2639(4)
C2 C 0.1869(7) 0.1118(10) 0.2238(4)
C3 C 0.2372(6) 0.1512(9) 0.1963(4)
H1 H 0.2348 0.1339 0.1692
C4 C 0.2907(7) 0.2187(9) 0.2147(4)
H2 H 0.3246 0.2504 0.1990
C5 C 0.2941(6) 0.2400(9) 0.2570(4)
C6 C 0.2428(7) 0.2007(9) 0.2816(4)
H3 H 0.2450 0.2165 0.3089
C7 C 0.3599(6) 0.3090(9) 0.2739(4)
C8 C 0.3159(7) 0.3977(9) 0.4041(4)
C9 C 0.3164(6) 0.4195(9) 0.4444(4)
C10 C 0.2674(6) 0.3801(9) 0.4699(4)
H4 H 0.2705 0.3961 0.4972
C11 C 0.2124(7) 0.3141(10) 0.4522(4)
H5 H 0.1757 0.2876 0.4678
C12 C 0.2108(7) 0.2869(9) 0.4120(4)
C13 C 0.2605(6) 0.3280(9) 0.3881(4)
H6 H 0.2585 0.3104 0.3610
C14 C 0.1484(7) 0.2153(9) 0.3949(4)
C15 C 0.1966(7) -0.0832(10) 0.3914(4)
C16 C 0.1989(7) -0.1102(9) 0.4316(4)
C17 C 0.3063(7) -0.1852(10) 0.3841(4)
H7 H 0.3441 -0.2111 0.3690
C18 C 0.3081(8) -0.2080(11) 0.4268(4)
C19 C 0.2519(7) -0.1725(9) 0.4492(4)
H8 H 0.2504 -0.1911 0.4759
C20 C 0.2497(6) -0.1264(9) 0.3664(4)
H9 H 0.2454 -0.1144 0.3386
C21 C 0.3713(6) -0.2780(9) 0.4443(4)
N1 N 0.1294(6) 0.0815(8) 0.2800(3)
N2 N 0.0944(5) 0.0307(7) 0.2495(3)
N3 N 0.1254(5) 0.0478(7) 0.2154(3)
N4 N 0.3723(6) 0.4510(8) 0.3875(3)
N5 N 0.4056(5) 0.5036(7) 0.4184(3)
N6 N 0.3738(5) 0.4915(7) 0.4534(3)
N7 N 0.1374(5) -0.0215(8) 0.3812(3)
N8 N 0.1017(5) -0.0103(7) 0.4150(3)
N9 N 0.1367(5) -0.0589(7) 0.4465(3)
O1 O 0.0237(4) -0.0594(6) 0.3117(2)
O2 O -0.0146(4) 0.0863(6) 0.3556(2)
O3 O 0.0293(4) 0.0688(6) 0.4776(2)
O4 O 0.3537(4) 0.3464(6) 0.3080(2)
O5 O 0.4143(5) 0.3262(7) 0.2520(2)
O6 O 0.1532(4) 0.1830(6) 0.3603(2)
O7 O 0.0983(5) 0.1940(6) 0.4183(2)
O8 O 0.3655(5) -0.3124(7) 0.4785(3)
O9 O 0.4277(4) -0.2928(6) 0.4227(2)
H10 H 0.069(5) 0.103(7) 0.495(2)
H11 H 0.027(6) -0.123(3) 0.322(3)
H12 H -0.044(6) 0.143(4) 0.347(3)
O10 O -0.0032(6) 0.1754(8) 0.5460(3)
H13 H -0.012(6) 0.187(4) 0.5742(11)
C22 C 0.0347(10) 0.2588(11) 0.5320(5)
H14 H 0.0611 0.2924 0.5549
H15 H 0.0733 0.2408 0.5143
H16 H -0.0052 0.2987 0.5177
Co2A Co -0.00688(9) 0.09479(12) 0.08266(5)
Co3A Co 0.07451(9) 0.07049(12) -0.00288(5)
Co4A Co 0.08103(9) -0.04150(12) 0.16678(5)
Co5A Co -0.09000(9) 0.06817(12) 0.16446(5)
C1A C -0.1882(7) 0.1368(10) 0.2361(4)
C2A C -0.1869(7) 0.1118(10) 0.2762(4)
C3A C -0.2372(6) 0.1512(9) 0.3037(4)
H1A H -0.2348 0.1339 0.3308
C4A C -0.2907(7) 0.2187(9) 0.2853(4)
H2A H -0.3246 0.2504 0.3010
C5A C -0.2941(6) 0.2400(9) 0.2430(4)
C6A C -0.2428(7) 0.2007(9) 0.2184(4)
H3A H -0.2450 0.2165 0.1911
C7A C -0.3599(6) 0.3090(9) 0.2261(4)
C8A C -0.3159(7) 0.3977(9) 0.0959(4)
C9A C -0.3164(6) 0.4195(9) 0.0556(4)
C10A C -0.2674(6) 0.3801(9) 0.0301(4)
H4A H -0.2705 0.3961 0.0028
C11A C -0.2124(7) 0.3141(10) 0.0478(4)
H5A H -0.1757 0.2876 0.0322
C12A C -0.2108(7) 0.2869(9) 0.0880(4)
C13A C -0.2605(6) 0.3280(9) 0.1119(4)
H6A H -0.2585 0.3104 0.1390
C14A C -0.1484(7) 0.2153(9) 0.1051(4)
C15A C -0.1966(7) -0.0832(10) 0.1086(4)
C16A C -0.1989(7) -0.1102(9) 0.0684(4)
C17A C -0.3063(7) -0.1852(10) 0.1159(4)
H7A H -0.3441 -0.2111 0.1310
C18A C -0.3081(8) -0.2080(11) 0.0732(4)
C19A C -0.2519(7) -0.1725(9) 0.0508(4)
H8A H -0.2504 -0.1911 0.0241
C20A C -0.2497(6) -0.1264(9) 0.1336(4)
H9A H -0.2454 -0.1144 0.1614
C21A C -0.3713(6) -0.2780(9) 0.0557(4)
N1A N -0.1294(6) 0.0815(8) 0.2200(3)
N2A N -0.0944(5) 0.0307(7) 0.2505(3)
N3A N -0.1254(5) 0.0478(7) 0.2846(3)
N4A N -0.3723(6) 0.4510(8) 0.1125(3)
N5A N -0.4056(5) 0.5036(7) 0.0816(3)
N6A N -0.3738(5) 0.4915(7) 0.0466(3)
N7A N -0.1374(5) -0.0215(8) 0.1188(3)
N8A N -0.1017(5) -0.0103(7) 0.0850(3)
N9A N -0.1367(5) -0.0589(7) 0.0535(3)
O1A O -0.0237(4) -0.0594(6) 0.1883(2)
O2A O 0.0146(4) 0.0863(6) 0.1444(2)
O3A O -0.0293(4) 0.0688(6) 0.0224(2)
O4A O -0.3537(4) 0.3464(6) 0.1920(2)
O5A O -0.4143(5) 0.3262(7) 0.2480(2)
O6A O -0.1532(4) 0.1830(6) 0.1397(2)
O7A O -0.0983(5) 0.1940(6) 0.0817(2)
O8A O -0.3655(5) -0.3124(7) 0.0215(3)
O9A O -0.4277(4) -0.2928(6) 0.0773(2)
H10A H -0.069(5) 0.103(7) 0.005(2)
H11A H -0.027(6) -0.123(3) 0.178(3)
H12A H 0.044(6) 0.143(4) 0.153(3)
O10A O 0.0032(6) 0.1754(8) -0.0460(3)
H13A H 0.012(6) 0.187(4) -0.0742(11)
C22A C -0.0347(10) 0.2588(11) -0.0320(5)
H14A H -0.0611 0.2924 -0.0549
H15A H -0.0733 0.2408 -0.0143
H16A H 0.0052 0.2987 -0.0177
Co1B Co -0.5000 0.42944(18) 0.2500
Co1B_2 Co 0.5000 0.42944(18) 0.2500
Co2B Co 0.50688(9) -0.40521(12) 0.41734(5)
Co2B_2 Co 0.50688(9) 0.59479(12) 0.41734(5)
Co2C Co -0.50688(9) -0.40521(12) 0.08266(5)
Co2C_2 Co -0.50688(9) 0.59479(12) 0.08266(5)
Co3B Co 0.42549(9) -0.42951(12) 0.50288(5)
Co3B_2 Co 0.42549(9) 0.57049(12) 0.50288(5)
Co3C Co -0.42549(9) -0.42951(12) -0.00288(5)
Co3C_2 Co -0.42549(9) 0.57049(12) -0.00288(5)
Co3D Co 0.07451(9) -0.07049(12) 0.49712(5)
Co3E Co -0.07451(9) -0.07049(12) 0.00288(5)
Co4B Co 0.41897(9) 0.45850(12) 0.33322(5)
Co4C Co -0.41897(9) 0.45850(12) 0.16678(5)
N4B N -0.1277(6) -0.0490(8) 0.3875(3)
N4C N 0.1277(6) -0.0490(8) 0.1125(3)
N5B N -0.0944(5) 0.0036(7) 0.4184(3)
N5C N 0.0944(5) 0.0036(7) 0.0816(3)
N6B N -0.1262(5) -0.0085(7) 0.4534(3)
N6C N 0.1262(5) -0.0085(7) 0.0466(3)
N9D N -0.1367(5) 0.0589(7) 0.5535(3)
N9E N 0.1367(5) 0.0589(7) -0.0535(3)
O3D O -0.0293(4) -0.0688(6) 0.5224(2)
O3E O 0.0293(4) -0.0688(6) -0.0224(2)
O4B O -0.1463(4) -0.1536(6) 0.3080(2)
O4C O 0.1463(4) -0.1536(6) 0.1920(2)
O5B O -0.0857(5) -0.1738(7) 0.2520(2)
O5C O 0.0857(5) -0.1738(7) 0.2480(2)
O8B O -0.1345(5) 0.1876(7) 0.4785(3)
O8C O 0.1345(5) 0.1876(7) 0.0215(3)
O9B O -0.0723(4) 0.2072(6) 0.4227(2)
O9C O 0.0723(4) 0.2072(6) 0.0773(2)
loop_
_geom_bond_atom_site_label_1
_geom_bond_atom_site_label_2
_geom_bond_site_symmetry_1
_geom_bond_site_symmetry_2
Co1 N2 1_555 1_555
Co2 N8 1_555 1_555
Co3 O3 1_555 1_555
Co4 O1 1_555 1_555
Co5 N1 1_555 1_555
C1 C2 1_555 1_555
C2 C3 1_555 1_555
C3 H1 1_555 1_555
C4 C3 1_555 1_555
H2 C4 1_555 1_555
C5 C4 1_555 1_555
C6 C1 1_555 1_555
H3 C6 1_555 1_555
C7 C5 1_555 1_555
C8 C9 1_555 1_555
C9 C10 1_555 1_555
C10 H4 1_555 1_555
C11 C10 1_555 1_555
H5 C11 1_555 1_555
C12 C11 1_555 1_555
C13 C8 1_555 1_555
H6 C13 1_555 1_555
C14 C12 1_555 1_555
C15 C16 1_555 1_555
C16 C19 1_555 1_555
C17 H7 1_555 1_555
C18 C17 1_555 1_555
C19 C18 1_555 1_555
H8 C19 1_555 1_555
C20 C15 1_555 1_555
H9 C20 1_555 1_555
C21 C18 1_555 1_555
N1 C1 1_555 1_555
N2 N1 1_555 1_555
N3 C2 1_555 1_555
N4 C8 1_555 1_555
N5 N4 1_555 1_555
N6 C9 1_555 1_555
N7 Co5 1_555 1_555
N8 N7 1_555 1_555
N9 C16 1_555 1_555
O1 Co1 1_555 1_555
O2 Co2 1_555 1_555
O3 Co2 1_555 1_555
O4 C7 1_555 1_555
O5 C7 1_555 1_555
O6 Co5 1_555 1_555
O7 Co2 1_555 1_555
O8 C21 1_555 1_555
O9 C21 1_555 1_555
H10 O3 1_555 1_555
H11 O1 1_555 1_555
H12 O2 1_555 1_555
O10 Co3 1_555 1_555
H13 O10 1_555 1_555
C22 O10 1_555 1_555
H14 C22 1_555 1_555
H15 C22 1_555 1_555
H16 C22 1_555 1_555
Co2A N8A 1_555 1_555
Co3A O3A 1_555 1_555
Co4A N3 1_555 1_555
Co5A N1A 1_555 1_555
C1A C2A 1_555 1_555
C2A C3A 1_555 1_555
C3A H1A 1_555 1_555
C4A C3A 1_555 1_555
H2A C4A 1_555 1_555
C5A C4A 1_555 1_555
C6A C1A 1_555 1_555
H3A C6A 1_555 1_555
C7A C5A 1_555 1_555
C8A C9A 1_555 1_555
C9A C10A 1_555 1_555
C10A H4A 1_555 1_555
C11A C10A 1_555 1_555
H5A C11A 1_555 1_555
C12A C11A 1_555 1_555
C13A C8A 1_555 1_555
H6A C13A 1_555 1_555
C14A C12A 1_555 1_555
C15A C16A 1_555 1_555
C16A C19A 1_555 1_555
C17A H7A 1_555 1_555
C18A C17A 1_555 1_555
C19A C18A 1_555 1_555
H8A C19A 1_555 1_555
C20A C15A 1_555 1_555
H9A C20A 1_555 1_555
C21A C18A 1_555 1_555
N1A C1A 1_555 1_555
N2A Co1 1_555 1_555
N3A Co4 1_555 1_555
N4A C8A 1_555 1_555
N5A N4A 1_555 1_555
N6A C9A 1_555 1_555
N7A Co5A 1_555 1_555
N8A N7A 1_555 1_555
N9A C16A 1_555 1_555
O1A Co1 1_555 1_555
O2A Co2A 1_555 1_555
O3A Co2A 1_555 1_555
O4A C7A 1_555 1_555
O5A C7A 1_555 1_555
O6A Co5A 1_555 1_555
O7A Co2A 1_555 1_555
O8A C21A 1_555 1_555
O9A C21A 1_555 1_555
H10A O3A 1_555 1_555
H11A O1A 1_555 1_555
H12A O2A 1_555 1_555
O10A Co3A 1_555 1_555
H13A O10A 1_555 1_555
C22A O10A 1_555 1_555
H14A C22A 1_555 1_555
H15A C22A 1_555 1_555
H16A C22A 1_555 1_555
Co1B O5A 1_555 1_555
Co1B_2 O5 1_555 1_555
Co2B O9 1_555 1_555
Co2B_2 N5 1_555 1_555
Co2C O9A 1_555 1_555
Co2C_2 N5A 1_555 1_555
Co3B O8 1_555 1_555
Co3B_2 N6 1_555 1_555
Co3C O8A 1_555 1_555
Co3C_2 N6A 1_555 1_555
Co3D N9 1_555 1_555
Co3E N9A 1_555 1_555
Co4B N4 1_555 1_555
Co4C N4A 1_555 1_555
N4B Co4 1_555 1_555
N4C Co4A 1_555 1_555
N5B Co2 1_555 1_555
N5C Co2A 1_555 1_555
N6B Co3 1_555 1_555
N6C Co3A 1_555 1_555
N9D Co3 1_555 1_555
N9E Co3A 1_555 1_555
O3D Co3 1_555 1_555
O3E Co3A 1_555 1_555
O4B Co4 1_555 1_555
O4C Co4A 1_555 1_555
O5B Co1 1_555 1_555
O5C Co1 1_555 1_555
O8B Co3 1_555 1_555
O8C Co3A 1_555 1_555
O9B Co2 1_555 1_555
O9C Co2A 1_555 1_555
Co4 O2 1_555 1_555
Co5 O1 1_555 1_555
Co5 O2 1_555 1_555
C5 C6 1_555 1_555
C12 C13 1_555 1_555
C14 O6 1_555 1_555
C14 O7 1_555 1_555
C15 N7 1_555 1_555
C17 C20 1_555 1_555
N2 N3 1_555 1_555
N5 N6 1_555 1_555
N8 N9 1_555 1_555
O3 Co3D 1_555 1_555
O4 Co4B 1_555 1_555
Co4A O1A 1_555 1_555
Co4A O2A 1_555 1_555
Co5A O1A 1_555 1_555
Co5A O2A 1_555 1_555
C2A N3A 1_555 1_555
C5A C6A 1_555 1_555
C12A C13A 1_555 1_555
C14A O6A 1_555 1_555
C14A O7A 1_555 1_555
C15A N7A 1_555 1_555
C17A C20A 1_555 1_555
N1A N2A 1_555 1_555
N2A N3A 1_555 1_555
N5A N6A 1_555 1_555
N8A N9A 1_555 1_555
O3A Co3E 1_555 1_555
O4A Co4C 1_555 1_555
Co3D O3D 1_555 1_555
Co3E O3E 1_555 1_555
N4B N5B 1_555 1_555
N4C N5C 1_555 1_555
N5B N6B 1_555 1_555
N5C N6C 1_555 1_555

#END
