
#######################################################################
#
#                 Cambridge Crystallographic Data Centre
#                                CCDC 
#
#######################################################################
#
# If this CIF has been generated from an entry in the Cambridge 
# Structural Database, then it will include bibliographic, chemical, 
# crystal, experimental, refinement or atomic coordinate data resulting 
# from the CCDC's data processing and validation procedures.
#
#######################################################################

data_ESUVAR01
_chemical_formula_moiety         '(C20 H24 Co3 N8 O9)n'
_symmetry_cell_setting           triclinic
_symmetry_space_group_name_H-M   'P -1'
_symmetry_Int_Tables_number      2
_space_group_name_Hall           '-P 1'
loop_
_symmetry_equiv_pos_site_id
_symmetry_equiv_pos_as_xyz
1 x,y,z
2 -x,-y,-z
_cell_length_a                   10.6489(8)
_cell_length_b                   10.8857(5)
_cell_length_c                   11.0782(5)
_cell_angle_alpha                84.005(4)
_cell_angle_beta                 89.826(5)
_cell_angle_gamma                63.605(6)
_cell_volume                     1142.67
loop_
_atom_site_label
_atom_site_type_symbol
_atom_site_fract_x
_atom_site_fract_y
_atom_site_fract_z
Co1 Co 0.0972(4) 0.8879(2) 0.25445(13)
Co2 Co 0.9614(4) 0.8722(2) 0.00024(12)
Co3 Co 0.8438(5) 1.0272(2) 0.47758(13)
O1 O 0.1059(15) 0.9174(9) 0.0695(6)
H1 H 0.2071 0.8720 0.0762
O2 O 0.0511(19) 0.8955(9) 0.4293(5)
H2 H 0.0716 0.8088 0.4763
O3 O 0.355(2) 0.8876(11) 0.4586(7)
O4 O 0.320(3) 0.8000(13) 0.2953(7)
O5 O 0.0389(19) 0.6715(10) 0.0725(6)
O6 O 0.112(2) 0.6931(10) 0.2574(6)
N1 N 0.8186(16) 0.9272(9) 0.1326(7)
N2 N 0.8663(17) 0.9596(9) 0.2300(7)
N3 N 0.7912(17) 0.9578(10) 0.3258(7)
N4 N 0.0870(14) 0.1690(8) 0.1657(6)
N5 N 0.1001(12) 0.0783(8) 0.2608(6)
N6 N 0.1131(13) 0.1193(8) 0.3665(6)
C1 C 0.6894(17) 0.9237(13) 0.2906(8)
C2 C 0.7069(18) 0.9045(12) 0.1667(8)
C3 C 0.513(2) 0.8523(13) 0.1669(9)
H3 H 0.4521 0.8290 0.1260
C4 C 0.619(2) 0.8673(13) 0.1045(10)
H4 H 0.6304 0.8529 0.0231
C5 C 0.496(2) 0.8713(14) 0.2908(8)
C6 C 0.5863(19) 0.9049(13) 0.3541(9)
H5 H 0.5778 0.9145 0.4365
C7 C 0.382(3) 0.8514(16) 0.3528(10)
C8 C 0.0921(11) 0.2788(8) 0.2124(7)
C9 C 0.1083(12) 0.2463(9) 0.3387(7)
C10 C 0.1173(17) 0.3354(10) 0.4151(8)
H6 H 0.1288 0.3132 0.4990
C11 C 0.1085(17) 0.4585(10) 0.3599(7)
H7 H 0.1133 0.5214 0.4081
C12 C 0.0925(15) 0.4915(10) 0.2350(8)
C13 C 0.0838(15) 0.4029(10) 0.1581(8)
H8 H 0.0730 0.4256 0.0742
C14 C 0.084(2) 0.6289(12) 0.1826(9)
O7 O 0.792(2) 1.2319(12) 0.3673(7)
N7 N 0.756(2) 1.4244(13) 0.2450(9)
C15 C 0.781(3) 1.2920(14) 0.2638(11)
H9 H 0.7911 1.2435 0.1973
C16 C 0.737(4) 1.5104(18) 0.3400(11)
H10 H 0.7199 1.6012 0.3049
H11 H 0.6587 1.5159 0.3861
H12 H 0.8204 1.4714 0.3925
C17 C 0.739(4) 1.4970(19) 0.1235(11)
H13 H 0.7212 1.5906 0.1294
H14 H 0.8231 1.4517 0.0809
H15 H 0.6614 1.4964 0.0799
Co1_2 Co 0.0972(4) -0.1121(2) 0.25445(13)
Co1_3 Co 1.0972(4) 0.8879(2) 0.25445(13)
Co2_2 Co -0.0386(4) 0.8722(2) 0.00024(12)
Co2A Co 0.0386(4) 0.1278(2) -0.00024(12)
Co2A_2 Co 0.0386(4) 1.1278(2) -0.00024(12)
Co3_2 Co -0.1562(5) 1.0272(2) 0.47758(13)
Co3A Co 0.1562(5) -0.0272(2) 0.52242(13)
Co3A_2 Co 0.1562(5) 0.9728(2) 0.52242(13)
O1_2 O 1.1059(15) 0.9174(9) 0.0695(6)
O1A O 0.8941(15) 1.0826(9) -0.0695(6)
O2_2 O 1.0511(19) 0.8955(9) 0.4293(5)
O2A O 0.9489(19) 1.1045(9) 0.5707(5)
O3A O 0.645(2) 1.1124(11) 0.5414(7)
O5_2 O 1.0389(19) 0.6715(10) 0.0725(6)
N2_2 N -0.1337(17) 0.9596(9) 0.2300(7)
N4A N 0.9130(14) 0.8310(8) -0.1657(6)
N5_2 N 0.1001(12) 1.0783(8) 0.2608(6)
N6A N 0.8869(13) 0.8807(8) 0.6335(6)
O8 O 0.427(5) 0.469(3) 0.0994(16)
C18 C 0.425(6) 0.488(3) 0.2068(19)
H16 H 0.4153 0.5723 0.2267
N8 N 0.438(5) 0.389(3) 0.2968(18)
C19 C 0.462(8) 0.249(3) 0.281(2)
H17 H 0.4672 0.1993 0.3589
H18 H 0.3855 0.2534 0.2321
H19 H 0.5481 0.2036 0.2414
C20 C 0.440(8) 0.418(5) 0.423(2)
H20 H 0.4497 0.3394 0.4775
H21 H 0.5176 0.4381 0.4381
H22 H 0.3539 0.4965 0.4371
O10 O 0.636(3) 0.2649(14) 0.0198(11)
H30 H 0.597(8) 0.353(2) -0.029(3)
H31 H 0.580(4) 0.279(6) 0.089(3)
loop_
_geom_bond_atom_site_label_1
_geom_bond_atom_site_label_2
_geom_bond_site_symmetry_1
_geom_bond_site_symmetry_2
Co1 O1 1_555 1_555
Co2 N1 1_555 1_555
Co3 N3 1_555 1_555
O1 H1 1_555 1_555
O2 Co1 1_555 1_555
H2 O2 1_555 1_555
O3 C7 1_555 1_555
O4 Co1 1_555 1_555
O5 C14 1_555 1_555
O6 Co1 1_555 1_555
N1 N2 1_555 1_555
N2 N3 1_555 1_555
N3 C1 1_555 1_555
N4 N5 1_555 1_555
N5 N6 1_555 1_555
N6 C9 1_555 1_555
C1 C2 1_555 1_555
C2 N1 1_555 1_555
C3 H3 1_555 1_555
C4 C2 1_555 1_555
H4 C4 1_555 1_555
C5 C3 1_555 1_555
C6 C1 1_555 1_555
H5 C6 1_555 1_555
C7 O4 1_555 1_555
C8 N4 1_555 1_555
C9 C8 1_555 1_555
C10 C9 1_555 1_555
H6 C10 1_555 1_555
C11 C10 1_555 1_555
H7 C11 1_555 1_555
C12 C11 1_555 1_555
C13 C8 1_555 1_555
H8 C13 1_555 1_555
C14 O6 1_555 1_555
O7 Co3 1_555 1_555
N7 C15 1_555 1_555
C15 O7 1_555 1_555
H9 C15 1_555 1_555
C16 N7 1_555 1_555
H10 C16 1_555 1_555
H11 C16 1_555 1_555
H12 C16 1_555 1_555
C17 N7 1_555 1_555
H13 C17 1_555 1_555
H14 C17 1_555 1_555
H15 C17 1_555 1_555
O8 C18 1_555 1_555
C18 H16 1_555 1_555
N8 C18 1_555 1_555
C19 N8 1_555 1_555
H17 C19 1_555 1_555
H18 C19 1_555 1_555
H19 C19 1_555 1_555
C20 N8 1_555 1_555
H20 C20 1_555 1_555
H21 C20 1_555 1_555
H22 C20 1_555 1_555
O10 H30 1_555 1_555
H31 O10 1_555 1_555
Co1_2 N5 1_555 1_555
Co1_3 N2 1_555 1_555
Co2_2 O1 1_555 1_555
Co2A N4 1_555 1_555
Co2A_2 O1 1_555 1_555
Co3_2 O2 1_555 1_555
Co3A N6 1_555 1_555
Co3A_2 O2 1_555 1_555
O1_2 Co2 1_555 1_555
O1A Co2 1_555 1_555
O2_2 Co3 1_555 1_555
O2A Co3 1_555 1_555
O3A Co3 1_555 1_555
O5_2 Co2 1_555 1_555
N2_2 Co1 1_555 1_555
N4A Co2 1_555 1_555
N5_2 Co1 1_555 1_555
N6A Co3 1_555 1_555
O3 Co3A_2 1_555 1_555
O5 Co2_2 1_555 1_555
C3 C4 1_555 1_555
C5 C6 1_555 1_555
C5 C7 1_555 1_555
C12 C13 1_555 1_555
C12 C14 1_555 1_555
Co1_3 O1_2 1_555 1_555
Co1_3 O2_2 1_555 1_555

#END
