
#######################################################################
#
#                 Cambridge Crystallographic Data Centre
#                                CCDC 
#
#######################################################################
#
# If this CIF has been generated from an entry in the Cambridge 
# Structural Database, then it will include bibliographic, chemical, 
# crystal, experimental, refinement or atomic coordinate data resulting 
# from the CCDC's data processing and validation procedures.
#
#######################################################################

data_HAFDUQ
_chemical_formula_moiety         '(C24 H11 Cu1 N3 O15)n'
_symmetry_cell_setting           rhombohedral
_symmetry_space_group_name_H-M   'R 3 2'
_symmetry_Int_Tables_number      155
_space_group_name_Hall           'R 3 2"'
loop_
_symmetry_equiv_pos_site_id
_symmetry_equiv_pos_as_xyz
1 x,y,z
2 -x+y,-x,z
3 -y,x-y,z
4 y,x,-z
5 x-y,-y,-z
6 -x,-x+y,-z
7 2/3+x,1/3+y,1/3+z
8 2/3-x+y,1/3-x,1/3+z
9 2/3-y,1/3+x-y,1/3+z
10 2/3+y,1/3+x,1/3-z
11 2/3+x-y,1/3-y,1/3-z
12 2/3-x,1/3-x+y,1/3-z
13 1/3+x,2/3+y,2/3+z
14 1/3-x+y,2/3-x,2/3+z
15 1/3-y,2/3+x-y,2/3+z
16 1/3+y,2/3+x,2/3-z
17 1/3+x-y,2/3-y,2/3-z
18 1/3-x,2/3-x+y,2/3-z
_cell_length_a                   18.13912(15)
_cell_length_b                   18.13912(15)
_cell_length_c                   48.6861(12)
_cell_angle_alpha                90
_cell_angle_beta                 90
_cell_angle_gamma                120
_cell_volume                     13872.9
loop_
_atom_site_label
_atom_site_type_symbol
_atom_site_fract_x
_atom_site_fract_y
_atom_site_fract_z
Cu1 Cu 0.5073(7) 0.4451(8) 0.5200(3)
C1 C 0.6236(5) 0.5473(9) 0.4737(3)
O1 O 0.6065(17) 0.5124(16) 0.4977(4)
O2 O 0.5679(16) 0.559(2) 0.4610(4)
C2 C 0.7998(8) 0.6377(19) 0.4223(3)
C3 C 0.8602(11) 0.623(3) 0.4349(3)
H1 H 0.9108(14) 0.639(4) 0.4261(4)
C4 C 0.8442(16) 0.586(3) 0.4607(4)
C5 C 0.7678(12) 0.562(2) 0.4739(3)
H2 H 0.7572(17) 0.538(3) 0.4910(4)
C6 C 0.7074(5) 0.5769(6) 0.46136(19)
C7 C 0.7234(9) 0.6145(13) 0.4355(3)
H3 H 0.6834(16) 0.624(2) 0.4272(4)
C8 C 0.8970(8) 0.5573(10) 0.4769(3)
O3 O 0.8754(14) 0.531(2) 0.5018(4)
O4 O 0.9712(12) 0.576(3) 0.4678(5)
N1 N 0.8402(6) 0.6796(9) 0.3971(2)
C9 C 0.795(4) 0.696(6) 0.3793(6)
O5 O 0.719(4) 0.670(11) 0.3821(10)
H4 H 0.8933(8) 0.699(3) 0.3926(3)
C10 C 0.8325(8) 0.7291(10) 0.35065(19)
C11 C 0.7824(12) 0.7351(19) 0.3301(3)
C12 C 0.8167(17) 0.765(2) 0.3043(3)
C13 C 0.9010(17) 0.7890(16) 0.2989(3)
C14 C 0.9511(12) 0.7831(18) 0.3194(4)
C15 C 0.9169(9) 0.7532(17) 0.3453(4)
H5 H 0.7266(13) 0.719(3) 0.3337(5)
H6 H 0.784(2) 0.769(3) 0.2907(5)
H7 H 1.0069(14) 0.799(3) 0.3158(6)
H8 H 0.9500(12) 0.749(3) 0.3588(5)
C16 C 0.9368(6) 0.8203(6) 0.27185(18)
C17 C 0.8993(11) 0.7758(8) 0.2463(2)
N2 N 0.9336(18) 0.8031(10) 0.2215(2)
C18 C 1.0107(19) 0.8792(12) 0.2184(4)
N3 N 1.0508(12) 0.9258(10) 0.2420(5)
C19 C 1.0165(7) 0.8985(7) 0.2668(4)
H9 H 1.0437(9) 0.9298(8) 0.2822(5)
H10 H 1.034(2) 0.8972(15) 0.2011(5)
H11 H 0.8485(12) 0.7252(9) 0.2465(3)
Cu1A Cu 0.9378(11) 0.4927(7) 0.5200(3)
Cu1C Cu 0.4451(8) 0.5073(7) 0.4800(3)
Cu1D Cu 1.0622(11) 0.5549(8) 0.4800(3)
Cu1N Cu 0.8882(8) 0.7289(11) 0.1867(3)
O2C O 0.559(2) 0.5679(16) 0.5390(4)
O3B O 0.469(2) 0.3444(24) 0.5018(4)
O4D O 0.3952(32) 0.424(3) 0.5322(5)
N2G N 0.5362(21) 0.3997(18) 0.5548(2)
C20 C 0.000 0.000 0.8668(9)
O6 O 0.000 0.000 0.8908(9)
O7 O 0.000 0.000 0.8428(9)
C21 C 0.972(3) 0.532(4) 0.9106(10)
O8 O 1.005(4) 0.606(4) 0.9091(16)
O9 O 0.938(4) 0.458(4) 0.9121(16)
C22 C 0.361(3) 0.859(2) 0.1908(7)
O10 O 0.286(3) 0.821(3) 0.1914(16)
O11 O 0.435(3) 0.898(3) 0.1901(16)
C23 C -0.000 0.000 0.404(2)
O12 O 0.000 0.000 0.428(2)
O13 O 0.000 0.000 0.380(2)
C24 C 0.245(8) 0.192(11) 0.053(2)
O14 O 0.205(11) 0.121(11) 0.061(4)
O15 O 0.286(11) 0.262(11) 0.046(4)
loop_
_geom_bond_atom_site_label_1
_geom_bond_atom_site_label_2
_geom_bond_site_symmetry_1
_geom_bond_site_symmetry_2
Cu1 O1 1_555 1_555
C1 O1 1_555 1_555
O2 C1 1_555 1_555
C2 C3 1_555 1_555
C3 H1 1_555 1_555
C4 C3 1_555 1_555
C5 C4 1_555 1_555
H2 C5 1_555 1_555
C6 C1 1_555 1_555
C7 C2 1_555 1_555
H3 C7 1_555 1_555
C8 C4 1_555 1_555
O3 C8 1_555 1_555
O4 C8 1_555 1_555
N1 C2 1_555 1_555
C9 N1 1_555 1_555
O5 C9 1_555 1_555
H4 N1 1_555 1_555
C10 C9 1_555 1_555
C11 C10 1_555 1_555
C12 C11 1_555 1_555
C13 C12 1_555 1_555
C14 C13 1_555 1_555
C15 C10 1_555 1_555
H5 C11 1_555 1_555
H6 C12 1_555 1_555
H7 C14 1_555 1_555
H8 C15 1_555 1_555
C16 C13 1_555 1_555
C17 C16 1_555 1_555
N2 C17 1_555 1_555
C18 N2 1_555 1_555
N3 C18 1_555 1_555
C19 C16 1_555 1_555
H9 C19 1_555 1_555
H10 C18 1_555 1_555
H11 C17 1_555 1_555
C20 O6 1_555 1_555
O7 C20 1_555 1_555
C21 O8 1_555 1_555
O9 C21 1_555 1_555
C22 O10 1_555 1_555
O11 C22 1_555 1_555
C23 O12 1_555 1_555
O13 C23 1_555 1_555
C24 O14 1_555 1_555
O15 C24 1_555 1_555
Cu1A O3 1_555 1_555
Cu1C O2 1_555 1_555
Cu1D O4 1_555 1_555
Cu1N N2 1_555 1_555
O2C Cu1 1_555 1_555
O3B Cu1 1_555 1_555
O4D Cu1 1_555 1_555
N2G Cu1 1_555 1_555
C5 C6 1_555 1_555
C6 C7 1_555 1_555
C14 C15 1_555 1_555
N3 C19 1_555 1_555

#END
