
#######################################################################
#
#                 Cambridge Crystallographic Data Centre
#                                CCDC 
#
#######################################################################
#
# If this CIF has been generated from an entry in the Cambridge 
# Structural Database, then it will include bibliographic, chemical, 
# crystal, experimental, refinement or atomic coordinate data resulting 
# from the CCDC's data processing and validation procedures.
#
#######################################################################

data_HAFFAY
_chemical_formula_moiety         '(C23 H11 Cu1 N3 O13)n'
_symmetry_cell_setting           rhombohedral
_symmetry_space_group_name_H-M   'R 3 2'
_symmetry_Int_Tables_number      155
_space_group_name_Hall           'R 3 2"'
loop_
_symmetry_equiv_pos_site_id
_symmetry_equiv_pos_as_xyz
1 x,y,z
2 -x+y,-x,z
3 -y,x-y,z
4 y,x,-z
5 x-y,-y,-z
6 -x,-x+y,-z
7 2/3+x,1/3+y,1/3+z
8 2/3-x+y,1/3-x,1/3+z
9 2/3-y,1/3+x-y,1/3+z
10 2/3+y,1/3+x,1/3-z
11 2/3+x-y,1/3-y,1/3-z
12 2/3-x,1/3-x+y,1/3-z
13 1/3+x,2/3+y,2/3+z
14 1/3-x+y,2/3-x,2/3+z
15 1/3-y,2/3+x-y,2/3+z
16 1/3+y,2/3+x,2/3-z
17 1/3+x-y,2/3-y,2/3-z
18 1/3-x,2/3-x+y,2/3-z
_cell_length_a                   18.08040(15)
_cell_length_b                   18.08040(15)
_cell_length_c                   48.7231(13)
_cell_angle_alpha                90
_cell_angle_beta                 90
_cell_angle_gamma                120
_cell_volume                     13793.7
loop_
_atom_site_label
_atom_site_type_symbol
_atom_site_fract_x
_atom_site_fract_y
_atom_site_fract_z
Cu1 Cu 0.5047(8) 0.4511(9) 0.5217(3)
C1 C 0.6275(7) 0.5433(10) 0.4716(3)
O1 O 0.623(2) 0.518(2) 0.4970(4)
O2 O 0.5668(19) 0.554(3) 0.4614(5)
C2 C 0.8046(11) 0.633(3) 0.4214(3)
C3 C 0.861(2) 0.614(5) 0.4342(4)
H1 H 0.909(3) 0.622(6) 0.4250(5)
C4 C 0.846(3) 0.582(5) 0.4609(5)
C5 C 0.774(2) 0.570(3) 0.4748(4)
H2 H 0.763(3) 0.549(4) 0.4924(5)
C6 C 0.7168(5) 0.5897(6) 0.4620(2)
C7 C 0.7322(13) 0.6211(19) 0.4353(3)
H3 H 0.695(2) 0.634(4) 0.4268(5)
C8 C 0.8861(9) 0.5410(12) 0.4777(4)
O3 O 0.8753(17) 0.525(2) 0.5040(4)
O4 O 0.9613(12) 0.569(3) 0.4667(6)
N1 N 0.8398(5) 0.6803(8) 0.3970(3)
C9 C 0.794(3) 0.697(6) 0.3792(6)
O5 O 0.716(3) 0.656(10) 0.3783(9)
H4 H 0.8931(7) 0.700(3) 0.3925(4)
C10 C 0.8316(9) 0.7296(10) 0.3505(2)
C11 C 0.7811(13) 0.7354(19) 0.3300(4)
C12 C 0.8151(19) 0.765(2) 0.3041(3)
C13 C 0.8996(19) 0.7891(17) 0.2986(3)
C14 C 0.9501(14) 0.7833(19) 0.3191(5)
C15 C 0.9161(10) 0.7536(18) 0.3450(4)
H5 H 0.7251(14) 0.720(3) 0.3337(6)
H6 H 0.782(2) 0.769(3) 0.2906(5)
H7 H 1.0060(15) 0.799(3) 0.3154(7)
H8 H 0.9495(12) 0.750(3) 0.3585(6)
C16 C 0.9358(7) 0.8208(6) 0.27100(17)
C17 C 0.8954(11) 0.7738(8) 0.2460(2)
N2 N 0.9304(19) 0.8013(11) 0.22132(18)
C18 C 1.011(2) 0.8797(12) 0.2179(5)
N3 N 1.0515(13) 0.9271(10) 0.2426(5)
C19 C 1.0166(8) 0.8996(7) 0.2673(4)
H9 H 1.0437(10) 0.9308(8) 0.2828(5)
H10 H 1.034(3) 0.8973(15) 0.2007(6)
H11 H 0.8442(12) 0.7235(9) 0.2470(3)
Cu1A Cu 0.9464(12) 0.4953(8) 0.5217(3)
Cu1C Cu 0.4511(9) 0.5047(8) 0.4783(3)
Cu1D Cu 1.0536(12) 0.5489(9) 0.4783(3)
Cu1N Cu 0.8822(9) 0.7203(12) 0.1884(3)
O2C O 0.554(3) 0.5668(19) 0.5386(5)
O3B O 0.475(2) 0.3503(26) 0.5040(4)
O4D O 0.3923(32) 0.431(3) 0.5333(6)
N2G N 0.5376(22) 0.4029(19) 0.55465(18)
C20 C 0.000 0.000 0.8645(5)
O6 O 0.000 0.000 0.8885(5)
O7 O 0.000 -0.000 0.8405(5)
C21 C 0.535(2) 0.9667(14) 0.0942(11)
O8 O 0.527(7) 0.96(3) 0.0703(11)
O9 O 0.544(7) 0.97(3) 0.1180(11)
C22 C 0.000 0.000 0.3924(14)
O10 O 0.000 0.000 0.4164(14)
O11 O 0.000 0.000 0.3684(14)
C23 C 0.139(2) 0.050(2) 0.0631(5)
O12 O 0.073(3) -0.013(3) 0.0618(12)
O13 O 0.205(3) 0.113(3) 0.0643(12)
loop_
_geom_bond_atom_site_label_1
_geom_bond_atom_site_label_2
_geom_bond_site_symmetry_1
_geom_bond_site_symmetry_2
Cu1 O1 1_555 1_555
C1 O1 1_555 1_555
O2 C1 1_555 1_555
C2 C3 1_555 1_555
C3 H1 1_555 1_555
C4 C3 1_555 1_555
C5 C4 1_555 1_555
H2 C5 1_555 1_555
C6 C1 1_555 1_555
C7 C2 1_555 1_555
H3 C7 1_555 1_555
C8 C4 1_555 1_555
O3 C8 1_555 1_555
O4 C8 1_555 1_555
N1 C2 1_555 1_555
C9 N1 1_555 1_555
O5 C9 1_555 1_555
H4 N1 1_555 1_555
C10 C9 1_555 1_555
C11 C10 1_555 1_555
C12 C11 1_555 1_555
C13 C12 1_555 1_555
C14 C13 1_555 1_555
C15 C10 1_555 1_555
H5 C11 1_555 1_555
H6 C12 1_555 1_555
H7 C14 1_555 1_555
H8 C15 1_555 1_555
C16 C13 1_555 1_555
C17 C16 1_555 1_555
N2 C17 1_555 1_555
C18 N2 1_555 1_555
N3 C18 1_555 1_555
C19 C16 1_555 1_555
H9 C19 1_555 1_555
H10 C18 1_555 1_555
H11 C17 1_555 1_555
C20 O6 1_555 1_555
O7 C20 1_555 1_555
C21 O8 1_555 1_555
O9 C21 1_555 1_555
C22 O10 1_555 1_555
O11 C22 1_555 1_555
C23 O12 1_555 1_555
O13 C23 1_555 1_555
Cu1A O3 1_555 1_555
Cu1C O2 1_555 1_555
Cu1D O4 1_555 1_555
Cu1N N2 1_555 1_555
O2C Cu1 1_555 1_555
O3B Cu1 1_555 1_555
O4D Cu1 1_555 1_555
N2G Cu1 1_555 1_555
C5 C6 1_555 1_555
C6 C7 1_555 1_555
C14 C15 1_555 1_555
N3 C19 1_555 1_555

#END
