
#######################################################################
#
#                 Cambridge Crystallographic Data Centre
#                                CCDC 
#
#######################################################################
#
# If this CIF has been generated from an entry in the Cambridge 
# Structural Database, then it will include bibliographic, chemical, 
# crystal, experimental, refinement or atomic coordinate data resulting 
# from the CCDC's data processing and validation procedures.
#
#######################################################################

data_HAFFEC
_chemical_formula_moiety         '(C25 H35 Cu1 N3 O5)n'
_symmetry_cell_setting           rhombohedral
_symmetry_space_group_name_H-M   'R 3 2'
_symmetry_Int_Tables_number      155
_space_group_name_Hall           'R 3 2"'
loop_
_symmetry_equiv_pos_site_id
_symmetry_equiv_pos_as_xyz
1 x,y,z
2 -x+y,-x,z
3 -y,x-y,z
4 y,x,-z
5 x-y,-y,-z
6 -x,-x+y,-z
7 2/3+x,1/3+y,1/3+z
8 2/3-x+y,1/3-x,1/3+z
9 2/3-y,1/3+x-y,1/3+z
10 2/3+y,1/3+x,1/3-z
11 2/3+x-y,1/3-y,1/3-z
12 2/3-x,1/3-x+y,1/3-z
13 1/3+x,2/3+y,2/3+z
14 1/3-x+y,2/3-x,2/3+z
15 1/3-y,2/3+x-y,2/3+z
16 1/3+y,2/3+x,2/3-z
17 1/3+x-y,2/3-y,2/3-z
18 1/3-x,2/3-x+y,2/3-z
_cell_length_a                   18.15681(19)
_cell_length_b                   18.15681(19)
_cell_length_c                   48.6603(14)
_cell_angle_alpha                90
_cell_angle_beta                 90
_cell_angle_gamma                120
_cell_volume                     13892.6
loop_
_atom_site_label
_atom_site_type_symbol
_atom_site_fract_x
_atom_site_fract_y
_atom_site_fract_z
_atom_site_U_iso_or_equiv
_atom_site_thermal_displace_type
Cu1 Cu 0.5113(9) 0.4471(9) 0.5200(4) 0.0276 Uiso
C1 C 0.6254(6) 0.5456(9) 0.4721(4) 0.0276 Uiso
O1 O 0.609(2) 0.5138(19) 0.4962(4) 0.0276 Uiso
O2 O 0.5687(17) 0.551(3) 0.4585(5) 0.0276 Uiso
C2 C 0.8051(10) 0.639(2) 0.4226(3) 0.0276 Uiso
C3 C 0.8676(11) 0.629(4) 0.4358(4) 0.0276 Uiso
H1 H 0.9193(14) 0.647(5) 0.4274(5) 0.0331 Uiso
C4 C 0.8519(17) 0.592(4) 0.4617(5) 0.0276 Uiso
C5 C 0.7738(13) 0.564(3) 0.4744(4) 0.0276 Uiso
H2 H 0.7635(18) 0.540(3) 0.4915(5) 0.0331 Uiso
C6 C 0.7114(6) 0.5741(6) 0.4611(2) 0.0276 Uiso
C7 C 0.7271(10) 0.6112(15) 0.4352(3) 0.0276 Uiso
H3 H 0.6857(17) 0.618(3) 0.4264(5) 0.0331 Uiso
C8 C 0.9075(10) 0.5679(11) 0.4791(4) 0.0276 Uiso
O3 O 0.8766(17) 0.531(2) 0.5018(5) 0.0276 Uiso
O4 O 0.9797(14) 0.581(3) 0.4712(6) 0.0276 Uiso
N1 N 0.8404(7) 0.6804(11) 0.3968(3) 0.0276 Uiso
C9 C 0.795(4) 0.697(7) 0.3789(7) 0.0276 Uiso
O5 O 0.719(5) 0.669(12) 0.3812(11) 0.0276 Uiso
H4 H 0.8935(10) 0.699(4) 0.3924(4) 0.0331 Uiso
C10 C 0.8323(11) 0.7297(10) 0.3507(2) 0.0276 Uiso
C11 C 0.7815(15) 0.733(2) 0.3300(4) 0.0276 Uiso
C12 C 0.815(2) 0.763(3) 0.3041(4) 0.0276 Uiso
C13 C 0.900(2) 0.7895(19) 0.2989(3) 0.0276 Uiso
C14 C 0.9512(17) 0.786(2) 0.3196(6) 0.0276 Uiso
C15 C 0.9172(12) 0.756(2) 0.3455(5) 0.0276 Uiso
H5 H 0.7253(16) 0.716(3) 0.3335(7) 0.0331 Uiso
H6 H 0.782(3) 0.766(4) 0.2904(6) 0.0331 Uiso
H7 H 1.0074(18) 0.803(3) 0.3161(8) 0.0331 Uiso
H8 H 0.9509(14) 0.754(3) 0.3592(7) 0.0331 Uiso
C16 C 0.9356(9) 0.8205(7) 0.2720(3) 0.0276 Uiso
C17 C 0.8988(17) 0.7788(11) 0.2458(4) 0.0276 Uiso
N2 N 0.932(3) 0.8067(16) 0.2209(4) 0.0276 Uiso
C18 C 1.006(3) 0.8793(19) 0.2195(7) 0.0276 Uiso
N3 N 1.049(2) 0.9262(16) 0.2411(9) 0.0276 Uiso
C19 C 1.0157(12) 0.8983(11) 0.2660(8) 0.0276 Uiso
H9 H 1.0437(13) 0.9290(11) 0.2814(9) 0.0331 Uiso
H10 H 1.031(4) 0.900(2) 0.2027(9) 0.0331 Uiso
H11 H 0.8479(18) 0.7285(12) 0.2455(5) 0.0331 Uiso
Cu1A Cu 0.9358(13) 0.4887(9) 0.5200(4) 0.0276 Uiso
Cu1C Cu 0.4471(9) 0.5113(9) 0.4800(4) 0.0276 Uiso
Cu1D Cu 1.0642(13) 0.5529(9) 0.4800(4) 0.0276 Uiso
Cu1N Cu 0.8862(9) 0.7309(13) 0.1867(4) 0.0276 Uiso
O2C O 0.551(3) 0.5687(17) 0.5415(5) 0.0276 Uiso
O3B O 0.469(2) 0.3456(26) 0.5018(5) 0.0276 Uiso
O4D O 0.3987(33) 0.419(3) 0.5288(6) 0.0276 Uiso
N2G N 0.5414(34) 0.401(3) 0.5542(4) 0.0276 Uiso
C20 C 0.000 0.000 0.8649(7) 0.0317 Uiso
D1 D 0.0511(19) -0.004(3) 0.8721(7) 0.0380 Uiso
D2 D 0.000 0.000 0.8437(7) 0.0380 Uiso
D1A D -0.0551(36) -0.0511(19) 0.8721(7) 0.0380 Uiso
D1B D 0.004(3) 0.0551(36) 0.8721(7) 0.0380 Uiso
C21 C 0.2650(17) 0.8308(19) 0.1862(6) 0.0317 Uiso
D3 D 0.266(5) 0.888(3) 0.1836(12) 0.0380 Uiso
D4 D 0.228(4) 0.789(3) 0.1712(6) 0.0380 Uiso
D5 D 0.240(4) 0.806(3) 0.2053(6) 0.0380 Uiso
D6 D 0.326(3) 0.841(5) 0.1849(15) 0.0380 Uiso
C22 C 0.333333 0.666667 0.305(3) 0.0317 Uiso
D7 D 0.333333 0.666667 0.284(3) 0.0380 Uiso
D8 D 0.393(8) 0.71(2) 0.313(3) 0.0380 Uiso
D8A D 0.317(22) 0.607(8) 0.313(3) 0.0380 Uiso
D8B D 0.29(2) 0.683(22) 0.313(3) 0.0380 Uiso
C23 C 0.212(4) 0.431(2) 0.7349(8) 0.0317 Uiso
D9 D 0.263(13) 0.489(6) 0.740(4) 0.0380 Uiso
D10 D 0.206(13) 0.386(5) 0.7485(14) 0.0380 Uiso
D11 D 0.221(17) 0.416(11) 0.7154(12) 0.0380 Uiso
D12 D 0.157(10) 0.435(18) 0.735(4) 0.0380 Uiso
C24 C 0.8722(17) 0.8922(18) 0.5704(7) 0.0317 Uiso
D13 D 0.820(5) 0.839(4) 0.563(3) 0.0380 Uiso
D14 D 0.924(4) 0.883(6) 0.571(3) 0.0380 Uiso
D15 D 0.860(9) 0.904(7) 0.5901(11) 0.0380 Uiso
D16 D 0.886(8) 0.944(5) 0.5581(17) 0.0380 Uiso
C25 C 0.2947(11) 0.2096(14) 0.5847(5) 0.0317 Uiso
D17 D 0.284(3) 0.255(2) 0.5935(8) 0.0380 Uiso
D18 D 0.313(3) 0.2254(14) 0.5645(5) 0.0380 Uiso
D19 D 0.2399(18) 0.1512(17) 0.5856(7) 0.0380 Uiso
D20 D 0.342(2) 0.207(3) 0.5953(10) 0.0380 Uiso
loop_
_geom_bond_atom_site_label_1
_geom_bond_atom_site_label_2
_geom_bond_site_symmetry_1
_geom_bond_site_symmetry_2
Cu1 O1 1_555 1_555
C1 O1 1_555 1_555
O2 C1 1_555 1_555
C2 C3 1_555 1_555
C3 H1 1_555 1_555
C4 C3 1_555 1_555
C5 C4 1_555 1_555
H2 C5 1_555 1_555
C6 C1 1_555 1_555
C7 C2 1_555 1_555
H3 C7 1_555 1_555
C8 C4 1_555 1_555
O3 C8 1_555 1_555
O4 C8 1_555 1_555
N1 C2 1_555 1_555
C9 N1 1_555 1_555
O5 C9 1_555 1_555
H4 N1 1_555 1_555
C10 C9 1_555 1_555
C11 C10 1_555 1_555
C12 C11 1_555 1_555
C13 C12 1_555 1_555
C14 C13 1_555 1_555
C15 C10 1_555 1_555
H5 C11 1_555 1_555
H6 C12 1_555 1_555
H7 C14 1_555 1_555
H8 C15 1_555 1_555
C16 C13 1_555 1_555
C17 C16 1_555 1_555
N2 C17 1_555 1_555
C18 N2 1_555 1_555
N3 C18 1_555 1_555
C19 C16 1_555 1_555
H9 C19 1_555 1_555
H10 C18 1_555 1_555
H11 C17 1_555 1_555
C20 D1 1_555 1_555
D2 C20 1_555 1_555
C21 D3 1_555 1_555
D4 C21 1_555 1_555
D5 C21 1_555 1_555
D6 C21 1_555 1_555
C22 D7 1_555 1_555
D8 C22 1_555 1_555
C23 D9 1_555 1_555
D10 C23 1_555 1_555
D11 C23 1_555 1_555
D12 C23 1_555 1_555
C24 D13 1_555 1_555
D14 C24 1_555 1_555
D15 C24 1_555 1_555
D16 C24 1_555 1_555
C25 D17 1_555 1_555
D18 C25 1_555 1_555
D19 C25 1_555 1_555
D20 C25 1_555 1_555
Cu1A O3 1_555 1_555
Cu1C O2 1_555 1_555
Cu1D O4 1_555 1_555
Cu1N N2 1_555 1_555
O2C Cu1 1_555 1_555
O3B Cu1 1_555 1_555
O4D Cu1 1_555 1_555
N2G Cu1 1_555 1_555
D1A C20 1_555 1_555
D1B C20 1_555 1_555
D8A C22 1_555 1_555
D8B C22 1_555 1_555
C5 C6 1_555 1_555
C6 C7 1_555 1_555
C14 C15 1_555 1_555
N3 C19 1_555 1_555

#END
