
#######################################################################
#
#                 Cambridge Crystallographic Data Centre
#                                CCDC 
#
#######################################################################
#
# If this CIF has been generated from an entry in the Cambridge 
# Structural Database, then it will include bibliographic, chemical, 
# crystal, experimental, refinement or atomic coordinate data resulting 
# from the CCDC's data processing and validation procedures.
#
#######################################################################

data_HAFGUT
_chemical_formula_moiety         '(C19 H11 Cu1 N3 O5)n'
_symmetry_cell_setting           rhombohedral
_symmetry_space_group_name_H-M   'R 3 2'
_symmetry_Int_Tables_number      155
_space_group_name_Hall           'R 3 2"'
loop_
_symmetry_equiv_pos_site_id
_symmetry_equiv_pos_as_xyz
1 x,y,z
2 -x+y,-x,z
3 -y,x-y,z
4 y,x,-z
5 x-y,-y,-z
6 -x,-x+y,-z
7 2/3+x,1/3+y,1/3+z
8 2/3-x+y,1/3-x,1/3+z
9 2/3-y,1/3+x-y,1/3+z
10 2/3+y,1/3+x,1/3-z
11 2/3+x-y,1/3-y,1/3-z
12 2/3-x,1/3-x+y,1/3-z
13 1/3+x,2/3+y,2/3+z
14 1/3-x+y,2/3-x,2/3+z
15 1/3-y,2/3+x-y,2/3+z
16 1/3+y,2/3+x,2/3-z
17 1/3+x-y,2/3-y,2/3-z
18 1/3-x,2/3-x+y,2/3-z
_cell_length_a                   18.16557(17)
_cell_length_b                   18.16557(17)
_cell_length_c                   48.6439(14)
_cell_angle_alpha                90
_cell_angle_beta                 90
_cell_angle_gamma                120
_cell_volume                     13901.4
loop_
_atom_site_label
_atom_site_type_symbol
_atom_site_fract_x
_atom_site_fract_y
_atom_site_fract_z
_atom_site_U_iso_or_equiv
_atom_site_thermal_displace_type
Cu1 Cu 0.5128(8) 0.4619(9) 0.5203(3) 0.0528 Uiso
C1 C 0.6279(6) 0.5427(10) 0.4757(3) 0.0528 Uiso
O1 O 0.608(2) 0.4998(18) 0.4978(5) 0.0528 Uiso
O2 O 0.5746(19) 0.559(3) 0.4640(5) 0.0528 Uiso
C2 C 0.8061(10) 0.637(2) 0.4235(4) 0.0528 Uiso
C3 C 0.8666(14) 0.624(4) 0.4365(4) 0.0528 Uiso
H1 H 0.9176(18) 0.639(6) 0.4280(5) 0.0635 Uiso
C4 C 0.850(2) 0.587(5) 0.4625(5) 0.0528 Uiso
C5 C 0.7732(16) 0.563(3) 0.4754(4) 0.0528 Uiso
H2 H 0.762(2) 0.539(4) 0.4926(5) 0.0635 Uiso
C6 C 0.7126(6) 0.5760(6) 0.4623(2) 0.0528 Uiso
C7 C 0.7290(11) 0.6129(16) 0.4364(3) 0.0528 Uiso
H3 H 0.689(2) 0.622(3) 0.4277(5) 0.0635 Uiso
C8 C 0.9076(10) 0.5622(10) 0.4777(3) 0.0528 Uiso
O3 O 0.8852(17) 0.528(2) 0.5013(4) 0.0528 Uiso
O4 O 0.9721(16) 0.566(3) 0.4658(5) 0.0528 Uiso
N1 N 0.8404(6) 0.6799(9) 0.3975(3) 0.0528 Uiso
C9 C 0.794(4) 0.696(6) 0.3797(6) 0.0528 Uiso
O5 O 0.719(5) 0.672(11) 0.3829(10) 0.0528 Uiso
H4 H 0.8935(8) 0.699(3) 0.3930(4) 0.0635 Uiso
C10 C 0.8326(8) 0.7295(6) 0.35041(16) 0.0528 Uiso
C11 C 0.7788(10) 0.7157(10) 0.3283(2) 0.0528 Uiso
C12 C 0.8126(15) 0.7456(12) 0.3023(2) 0.0528 Uiso
C13 C 0.9002(16) 0.7892(10) 0.2985(2) 0.0528 Uiso
C14 C 0.9540(11) 0.8030(10) 0.3206(4) 0.0528 Uiso
C15 C 0.9202(8) 0.7731(9) 0.3466(3) 0.0528 Uiso
H5 H 0.7209(10) 0.6869(14) 0.3308(4) 0.0635 Uiso
H6 H 0.7770(19) 0.7365(17) 0.2877(3) 0.0635 Uiso
H7 H 1.0119(12) 0.8318(14) 0.3181(5) 0.0635 Uiso
H8 H 0.9557(8) 0.7822(13) 0.3612(4) 0.0635 Uiso
C16 C 0.9355(7) 0.8205(6) 0.2713(3) 0.0528 Uiso
C17 C 0.8944(13) 0.7759(9) 0.2470(3) 0.0528 Uiso
N2 N 0.926(2) 0.8030(13) 0.2219(3) 0.0528 Uiso
C18 C 1.002(3) 0.8768(15) 0.2192(6) 0.0528 Uiso
N3 N 1.0458(17) 0.9235(13) 0.2416(8) 0.0528 Uiso
C19 C 1.0137(10) 0.8964(8) 0.2667(7) 0.0528 Uiso
H9 H 1.0426(12) 0.9274(10) 0.2820(8) 0.0635 Uiso
H10 H 1.025(3) 0.896(2) 0.2021(8) 0.0635 Uiso
H11 H 0.8432(14) 0.7259(10) 0.2481(5) 0.0635 Uiso
Cu1A Cu 0.9491(12) 0.4872(8) 0.5203(3) 0.0528 Uiso
Cu1C Cu 0.4619(9) 0.5128(8) 0.4797(3) 0.0528 Uiso
Cu1D Cu 1.0509(12) 0.5381(9) 0.4797(3) 0.0528 Uiso
Cu1N Cu 0.8714(9) 0.7176(12) 0.1870(3) 0.0528 Uiso
O2C O 0.559(3) 0.5746(19) 0.5360(5) 0.0528 Uiso
O3B O 0.472(2) 0.3572(26) 0.5013(4) 0.0528 Uiso
O4D O 0.4061(34) 0.434(3) 0.5342(5) 0.0528 Uiso
N2G N 0.5437(24) 0.407(2) 0.5552(3) 0.0528 Uiso
loop_
_geom_bond_atom_site_label_1
_geom_bond_atom_site_label_2
_geom_bond_site_symmetry_1
_geom_bond_site_symmetry_2
Cu1 O1 1_555 1_555
C1 O1 1_555 1_555
O2 C1 1_555 1_555
C2 C3 1_555 1_555
C3 H1 1_555 1_555
C4 C3 1_555 1_555
C5 C4 1_555 1_555
H2 C5 1_555 1_555
C6 C1 1_555 1_555
C7 C2 1_555 1_555
H3 C7 1_555 1_555
C8 C4 1_555 1_555
O3 C8 1_555 1_555
O4 C8 1_555 1_555
N1 C2 1_555 1_555
C9 N1 1_555 1_555
O5 C9 1_555 1_555
H4 N1 1_555 1_555
C10 C9 1_555 1_555
C11 C10 1_555 1_555
C12 C11 1_555 1_555
C13 C12 1_555 1_555
C14 C13 1_555 1_555
C15 C10 1_555 1_555
H5 C11 1_555 1_555
H6 C12 1_555 1_555
H7 C14 1_555 1_555
H8 C15 1_555 1_555
C16 C13 1_555 1_555
C17 C16 1_555 1_555
N2 C17 1_555 1_555
C18 N2 1_555 1_555
N3 C18 1_555 1_555
C19 C16 1_555 1_555
H9 C19 1_555 1_555
H10 C18 1_555 1_555
H11 C17 1_555 1_555
Cu1A O3 1_555 1_555
Cu1C Cu1 1_555 1_555
Cu1D O4 1_555 1_555
Cu1N N2 1_555 1_555
O2C Cu1 1_555 1_555
O3B Cu1 1_555 1_555
O4D Cu1 1_555 1_555
N2G Cu1 1_555 1_555
O2 Cu1C 1_555 1_555
C5 C6 1_555 1_555
C6 C7 1_555 1_555
C14 C15 1_555 1_555
N3 C19 1_555 1_555
Cu1A Cu1D 1_555 1_555

#END
