
#######################################################################
#
#                 Cambridge Crystallographic Data Centre
#                                CCDC 
#
#######################################################################
#
# If this CIF has been generated from an entry in the Cambridge 
# Structural Database, then it will include bibliographic, chemical, 
# crystal, experimental, refinement or atomic coordinate data resulting 
# from the CCDC's data processing and validation procedures.
#
#######################################################################

data_HAFGON
_chemical_formula_moiety         '(C19 H11 Cu1 N3 O5)n'
_symmetry_cell_setting           rhombohedral
_symmetry_space_group_name_H-M   'R 3 2'
_symmetry_Int_Tables_number      155
_space_group_name_Hall           'R 3 2"'
loop_
_symmetry_equiv_pos_site_id
_symmetry_equiv_pos_as_xyz
1 x,y,z
2 -y,x-y,z
3 -x+y,-x,z
4 x-y,-y,-z
5 -x,-x+y,-z
6 y,x,-z
7 2/3+x,1/3+y,1/3+z
8 2/3-y,1/3+x-y,1/3+z
9 2/3-x+y,1/3-x,1/3+z
10 2/3+x-y,1/3-y,1/3-z
11 2/3-x,1/3-x+y,1/3-z
12 2/3+y,1/3+x,1/3-z
13 1/3+x,2/3+y,2/3+z
14 1/3-y,2/3+x-y,2/3+z
15 1/3-x+y,2/3-x,2/3+z
16 1/3+x-y,2/3-y,2/3-z
17 1/3-x,2/3-x+y,2/3-z
18 1/3+y,2/3+x,2/3-z
_cell_length_a                   18.3847(3)
_cell_length_b                   18.3847(3)
_cell_length_c                   48.5680(11)
_cell_angle_alpha                90
_cell_angle_beta                 90
_cell_angle_gamma                120
_cell_volume                     14216.5
loop_
_atom_site_label
_atom_site_type_symbol
_atom_site_fract_x
_atom_site_fract_y
_atom_site_fract_z
_atom_site_U_iso_or_equiv
_atom_site_thermal_displace_type
Cu1 Cu 0.51757(2) 0.46747(2) 0.52182(2) 0.0320 Uani
N1 N 0.91737(15) 0.79985(13) 0.22400(4) 0.0309 Uani
C1 C 0.9909(2) 0.87239(17) 0.22258(5) 0.0363 Uani
H1 H 1.0123 0.8917 0.2051 0.0440 Uiso
N2 N 1.03596(19) 0.91906(16) 0.24356(5) 0.0454 Uani
C2 C 1.0046(2) 0.8898(2) 0.26877(6) 0.0434 Uani
H2 H 1.0342 0.9211 0.2840 0.0520 Uiso
C3 C 0.9299(2) 0.8147(2) 0.27301(6) 0.0409 Uani
C4 C 0.8875(2) 0.77140(17) 0.24905(5) 0.0332 Uani
H3 H 0.8369 0.7212 0.2508 0.0400 Uiso
C5 C 0.8950(2) 0.7811(2) 0.30048(5) 0.0461 Uani
C6 C 0.8293(3) 0.7194(3) 0.35240(7) 0.0639 Uani
C7 C 0.9484(8) 0.7720(9) 0.3191(2) 0.0540 Uani
H4 H 1.0028 0.7852 0.3145 0.0650 Uiso
C8 C 0.9133(7) 0.7412(11) 0.3452(3) 0.0637 Uani
H5 H 0.9462 0.7347 0.3584 0.0770 Uiso
C9 C 0.7850(6) 0.7389(9) 0.33375(17) 0.0630 Uani
H6 H 0.7324 0.7309 0.3384 0.0750 Uiso
C10 C 0.8194(5) 0.7711(7) 0.30750(15) 0.0544 Uani
H7 H 0.7899 0.7853 0.2951 0.0650 Uiso
C11 C 0.7866(3) 0.6811(4) 0.37972(7) 0.0677 Uani
O1 O 0.7265(15) 0.689(2) 0.3869(4) 0.0694 Uani
N3 N 0.8312(2) 0.6626(2) 0.39708(5) 0.0599 Uani
H8 H 0.8802 0.6740 0.3915 0.0720 Uiso
C12 C 0.8072(2) 0.6260(3) 0.42385(6) 0.0492 Uani
C13 C 0.8648(2) 0.6100(3) 0.43736(6) 0.0459 Uani
H9 H 0.9150 0.6225 0.4288 0.0550 Uiso
C14 C 0.84702(19) 0.5750(2) 0.46389(5) 0.0350 Uani
C15 C 0.77118(19) 0.55611(19) 0.47646(5) 0.0332 Uani
H10 H 0.7590 0.5332 0.4941 0.0400 Uiso
C16 C 0.71400(18) 0.57151(19) 0.46274(5) 0.0337 Uani
C17 C 0.7318(2) 0.6067(2) 0.43614(6) 0.0438 Uani
H11 H 0.6934 0.6168 0.4270 0.0520 Uiso
C18 C 0.63144(18) 0.54527(19) 0.47579(5) 0.0304 Uani
O2 O 0.62174(12) 0.51523(14) 0.50012(4) 0.0322 Uani
O3 O 0.57864(12) 0.55427(14) 0.46241(4) 0.0336 Uani
C19 C 0.90664(17) 0.55475(18) 0.47775(5) 0.0300 Uani
O4 O 0.88716(12) 0.52475(14) 0.50134(4) 0.0338 Uani
O5 O 0.97160(11) 0.56861(14) 0.46450(4) 0.0348 Uani
Cu1B Cu 0.94990(3) 0.48243(2) 0.52182(2) 0.0320 Uani
Cu1C Cu 1.05010(3) 0.53253(2) 0.47818(2) 0.0320 Uani
Cu1E Cu 0.46747(2) 0.51757(2) 0.47818(2) 0.0320 Uani
Cu1M Cu 0.86586(2) 0.71677(3) 0.18849(2) 0.0320 Uani
N1H N 0.54915(20) 0.41596(15) 0.55733(4) 0.0309 Uani
O3E O 0.55427(14) 0.57864(12) 0.53759(4) 0.0336 Uani
O4A O 0.47525(14) 0.36241(18) 0.50134(4) 0.0338 Uani
O5C O 0.40299(18) 0.43139(14) 0.53550(4) 0.0348 Uani
loop_
_atom_site_aniso_label
_atom_site_aniso_U_11
_atom_site_aniso_U_22
_atom_site_aniso_U_33
_atom_site_aniso_U_23
_atom_site_aniso_U_13
_atom_site_aniso_U_12
Cu1 0.0424(2) 0.0417(2) 0.02081(16) -0.00019(12) -0.00025(12) 0.02781(16)
N1 0.0460(13) 0.0250(10) 0.0158(8) -0.0030(7) -0.0010(8) 0.0133(9)
C1 0.0496(16) 0.0299(13) 0.0227(11) 0.0012(10) 0.0038(11) 0.0148(12)
N2 0.0561(16) 0.0373(13) 0.0318(12) -0.0036(9) -0.0025(11) 0.0152(12)
C2 0.0575(18) 0.0458(16) 0.0259(13) -0.0049(11) -0.0058(12) 0.0250(14)
C3 0.0573(18) 0.0448(15) 0.0229(12) -0.0032(11) -0.0028(11) 0.0272(14)
C4 0.0409(15) 0.0359(13) 0.0188(10) 0.0015(9) 0.0008(10) 0.0161(12)
C5 0.0566(18) 0.0655(19) 0.0234(11) 0.0026(11) 0.0004(12) 0.0360(16)
C6 0.068(2) 0.112(3) 0.0277(14) 0.0191(16) 0.0054(14) 0.057(2)
C7 0.060(4) 0.072(6) 0.034(4) 0.006(4) 0.003(3) 0.036(4)
C8 0.068(4) 0.092(6) 0.035(5) 0.010(4) -0.004(3) 0.043(4)
C9 0.057(4) 0.103(5) 0.037(3) 0.029(4) 0.007(3) 0.046(4)
C10 0.055(3) 0.087(5) 0.034(3) 0.021(3) 0.003(3) 0.045(3)
C11 0.069(2) 0.125(4) 0.0339(15) 0.0263(19) 0.0108(15) 0.067(2)
O1 0.069(6) 0.121(11) 0.047(5) 0.038(6) 0.018(5) 0.069(7)
N3 0.0628(19) 0.116(3) 0.0294(11) 0.0312(14) 0.0205(13) 0.066(2)
C12 0.0479(17) 0.088(3) 0.0256(12) 0.0201(13) 0.0093(12) 0.0445(18)
C13 0.0404(16) 0.083(2) 0.0274(13) 0.0190(14) 0.0124(12) 0.0406(17)
C14 0.0340(14) 0.0580(18) 0.0207(11) 0.0081(11) 0.0044(10) 0.0287(13)
C15 0.0333(14) 0.0518(15) 0.0200(10) 0.0069(10) 0.0051(10) 0.0255(13)
C16 0.0358(13) 0.0484(16) 0.0223(12) 0.0085(11) 0.0035(10) 0.0251(12)
C17 0.0432(17) 0.073(2) 0.0247(13) 0.0140(13) 0.0063(12) 0.0362(17)
C18 0.0380(14) 0.0420(14) 0.0192(11) 0.0017(10) 0.0022(9) 0.0261(12)
O2 0.0340(9) 0.0529(12) 0.0193(7) 0.0104(8) 0.0073(6) 0.0289(9)
O3 0.0341(10) 0.0555(12) 0.0194(8) 0.0098(8) 0.0065(7) 0.0286(9)
C19 0.0268(12) 0.0392(14) 0.0230(11) -0.0009(9) 0.0012(9) 0.0158(12)
O4 0.0327(9) 0.0580(13) 0.0190(8) 0.0111(8) 0.0050(7) 0.0290(10)
O5 0.0290(9) 0.0567(12) 0.0239(8) 0.0119(8) 0.0049(7) 0.0254(9)
Cu1B 0.02848 0.0424 0.02081 0.00025 6e-05 0.01459
Cu1C 0.02848 0.0417 0.02081 -0.00019 6e-05 0.01389
Cu1E 0.0417 0.0424 0.02081 0.00025 0.00019 0.02781
Cu1M 0.0417 0.02848 0.02081 -6e-05 0.00019 0.01389
N1H 0.0444 0.046 0.0158 0.001 -0.002 0.0327
O3E 0.0555 0.0341 0.0194 -0.0065 -0.0098 0.0286
O4A 0.058 0.0327 0.019 -0.0061 -0.0111 0.029
O5C 0.0349 0.0567 0.0239 0.0119 0.007 0.0313
loop_
_geom_bond_atom_site_label_1
_geom_bond_atom_site_label_2
_geom_bond_site_symmetry_1
_geom_bond_site_symmetry_2
Cu1 O2 1_555 1_555
N1 C1 1_555 1_555
C1 H1 1_555 1_555
N2 C1 1_555 1_555
C2 N2 1_555 1_555
H2 C2 1_555 1_555
C3 C2 1_555 1_555
C4 N1 1_555 1_555
H3 C4 1_555 1_555
C5 C3 1_555 1_555
C6 C8 1_555 1_555
C7 C5 1_555 1_555
H4 C7 1_555 1_555
C8 C7 1_555 1_555
H5 C8 1_555 1_555
C9 C6 1_555 1_555
H6 C9 1_555 1_555
C10 C5 1_555 1_555
H7 C10 1_555 1_555
C11 C6 1_555 1_555
O1 C11 1_555 1_555
N3 C11 1_555 1_555
H8 N3 1_555 1_555
C12 N3 1_555 1_555
C13 C12 1_555 1_555
H9 C13 1_555 1_555
C14 C13 1_555 1_555
C15 C14 1_555 1_555
H10 C15 1_555 1_555
C16 C15 1_555 1_555
C17 C12 1_555 1_555
H11 C17 1_555 1_555
C18 C16 1_555 1_555
O2 C18 1_555 1_555
O3 C18 1_555 1_555
C19 C14 1_555 1_555
O4 C19 1_555 1_555
O5 C19 1_555 1_555
Cu1B O4 1_555 1_555
Cu1C O5 1_555 1_555
Cu1E Cu1 1_555 1_555
Cu1M N1 1_555 1_555
N1H Cu1 1_555 1_555
O3E Cu1 1_555 1_555
O4A Cu1 1_555 1_555
O5C Cu1 1_555 1_555
C3 C4 1_555 1_555
C9 C10 1_555 1_555
C16 C17 1_555 1_555
O3 Cu1E 1_555 1_555
Cu1B Cu1C 1_555 1_555

#END
