
#######################################################################
#
#                 Cambridge Crystallographic Data Centre
#                                CCDC 
#
#######################################################################
#
# If this CIF has been generated from an entry in the Cambridge 
# Structural Database, then it will include bibliographic, chemical, 
# crystal, experimental, refinement or atomic coordinate data resulting 
# from the CCDC's data processing and validation procedures.
#
#######################################################################

data_FODCOS
_chemical_formula_moiety         '(C22 H18 Cu1 N4 O4)n'
_symmetry_cell_setting           monoclinic
_symmetry_space_group_name_H-M   'I 2/a'
_symmetry_Int_Tables_number      15
_space_group_name_Hall           '-I 2ya'
loop_
_symmetry_equiv_pos_site_id
_symmetry_equiv_pos_as_xyz
1 x,y,z
2 1/2-x,y,-z
3 1/2+x,1/2+y,1/2+z
4 -x,1/2+y,1/2-z
5 -x,-y,-z
6 1/2+x,-y,z
7 1/2-x,1/2-y,1/2-z
8 x,1/2-y,1/2+z
_cell_length_a                   14.5663(6)
_cell_length_b                   13.4855(5)
_cell_length_c                   24.6581(14)
_cell_angle_alpha                90
_cell_angle_beta                 94.734(2)
_cell_angle_gamma                90
_cell_volume                     4827.16
loop_
_atom_site_label
_atom_site_type_symbol
_atom_site_fract_x
_atom_site_fract_y
_atom_site_fract_z
_atom_site_U_iso_or_equiv
_atom_site_thermal_displace_type
Cu1 Cu 0.15430(3) 0.24001(3) 0.305697(16) 0.0164 Uani
O1 O 0.28625(19) 0.13002(19) 0.18429(10) 0.0254 Uani
O2 O 0.21212(18) 0.11728(18) 0.25971(10) 0.0240 Uani
O3 O -0.04508(16) -0.34099(18) 0.17510(10) 0.0202 Uani
O4 O -0.0386(2) -0.2207(2) 0.11523(15) 0.0453 Uani
N1 N 0.57862(19) -0.2159(2) 0.73764(11) 0.0160 Uani
N2 N 0.2348(2) 0.1868(2) 0.36990(12) 0.0181 Uani
N3 N 0.3881(2) -0.0246(2) 0.52079(12) 0.0236 Uani
N4 N 0.4365(2) -0.0410(2) 0.57224(12) 0.0212 Uani
C1 C 0.2403(2) 0.0834(2) 0.21689(14) 0.0178 Uani
C2 C 0.2203(2) -0.0236(2) 0.20319(13) 0.0166 Uani
C3 C 0.2548(3) -0.0685(3) 0.15835(17) 0.0327 Uani
H1 H 0.2917 -0.0312 0.1357 0.0390 Uiso
C4 C 0.2356(3) -0.1675(3) 0.14638(18) 0.0369 Uani
H2 H 0.2588 -0.1970 0.1153 0.0440 Uiso
C5 C 0.1827(2) -0.2239(3) 0.17948(16) 0.0244 Uani
C6 C 0.1492(2) -0.1787(3) 0.22449(15) 0.0217 Uani
H3 H 0.1132 -0.2160 0.2476 0.0260 Uiso
C7 C 0.1676(2) -0.0801(3) 0.23592(15) 0.0208 Uani
H4 H 0.1438 -0.0505 0.2668 0.0250 Uiso
C8 C -0.0061(2) -0.2975(3) 0.13758(15) 0.0211 Uani
C9 C 0.0816(3) -0.3412(3) 0.12083(16) 0.0271 Uani
H5 H 0.0990 -0.3073 0.0876 0.0330 Uiso
H6 H 0.0718 -0.4122 0.1121 0.0330 Uiso
C10 C 0.1603(3) -0.3311(3) 0.16567(18) 0.0289 Uani
H7 H 0.1429 -0.3655 0.1988 0.0350 Uiso
H8 H 0.2159 -0.3639 0.1537 0.0350 Uiso
C11 C 0.5612(2) -0.1195(2) 0.72620(14) 0.0178 Uani
H9 H 0.5819 -0.0708 0.7522 0.0210 Uiso
C12 C 0.5143(2) -0.0889(3) 0.67798(14) 0.0187 Uani
H10 H 0.5029 -0.0205 0.6711 0.0220 Uiso
C13 C 0.4841(2) -0.1605(3) 0.63961(14) 0.0202 Uani
C14 C 0.4984(3) -0.2598(3) 0.65256(15) 0.0231 Uani
H11 H 0.4759 -0.3102 0.6280 0.0280 Uiso
C15 C 0.5457(2) -0.2843(2) 0.70156(14) 0.0194 Uani
H12 H 0.5554 -0.3524 0.7101 0.0230 Uiso
C16 C 0.2815(3) 0.2455(3) 0.40582(15) 0.0267 Uani
H13 H 0.2789 0.3153 0.4007 0.0320 Uiso
C17 C 0.3344(3) 0.2069(3) 0.45091(16) 0.0290 Uani
H14 H 0.3672 0.2505 0.4758 0.0350 Uiso
C18 C 0.3390(2) 0.1063(3) 0.45943(14) 0.0205 Uani
C19 C 0.2898(2) 0.0460(3) 0.42134(14) 0.0201 Uani
H15 H 0.2910 -0.0240 0.4256 0.0240 Uiso
C20 C 0.2398(2) 0.0883(3) 0.37768(14) 0.0189 Uani
H16 H 0.2073 0.0461 0.3519 0.0230 Uiso
C21 C 0.3892(2) 0.0673(3) 0.50885(14) 0.0225 Uani
H17 H 0.4234 0.1117 0.5326 0.0270 Uiso
C22 C 0.4377(3) -0.1318(3) 0.58658(14) 0.0246 Uani
H18 H 0.4090 -0.1807 0.5632 0.0290 Uiso
Cu1B Cu 0.65430(3) -0.25999(3) 0.805697(16) 0.0164 Uani
Cu1C Cu -0.15430(3) -0.25999(3) 0.194303(16) 0.0164 Uani
Cu1F Cu 0.34570(3) 0.25999(3) 0.194303(16) 0.0164 Uani
O1F O 0.21375(19) 0.36998(19) 0.31571(10) 0.0254 Uani
O3C O 0.04508(16) 0.15901(18) 0.32490(10) 0.0202 Uani
O4C O 0.0386(2) 0.2793(2) 0.38477(15) 0.0453 Uani
N1B N 0.07862(19) 0.2841(2) 0.23764(11) 0.0160 Uani
loop_
_atom_site_aniso_label
_atom_site_aniso_U_11
_atom_site_aniso_U_22
_atom_site_aniso_U_33
_atom_site_aniso_U_23
_atom_site_aniso_U_13
_atom_site_aniso_U_12
Cu1 0.0190(2) 0.0139(2) 0.0156(2) 0.00506(16) -0.00257(14) -0.00199(17)
O1 0.0359 0.0206 0.0185 0.0067 -0.0047 -0.011
O2 0.0296(14) 0.0151(12) 0.0268(14) -0.0008(10) -0.0009(11) 0.0012(11)
O3 0.0191 0.0231 0.0182 -0.0048 0.0004 0.0009
O4 0.0446 0.0217 0.067 0.016 -0.0102 -0.0019
N1 0.0178 0.0136 0.0163 0.0028 -0.0002 -0.0016
N2 0.0188(14) 0.0167(14) 0.0185(14) 0.0035(11) -0.0006(11) 0.0016(11)
N3 0.0237(16) 0.0320(17) 0.0146(14) 0.0041(12) -0.0007(12) 0.0091(13)
N4 0.0207(15) 0.0286(16) 0.0138(14) 0.0025(12) -0.0011(11) 0.0030(13)
C1 0.0179(16) 0.0166(16) 0.0176(16) 0.0041(13) -0.0064(13) -0.0017(13)
C2 0.0152(15) 0.0159(16) 0.0181(16) -0.0002(12) -0.0019(13) -0.0021(13)
C3 0.037(2) 0.035(2) 0.028(2) -0.0071(17) 0.0140(18) -0.0149(19)
C4 0.036(2) 0.040(2) 0.037(2) -0.0200(19) 0.0174(19) -0.0127(19)
C5 0.0159(16) 0.0225(18) 0.034(2) -0.0083(15) -0.0021(14) -0.0017(14)
C6 0.0205(17) 0.0188(17) 0.0258(19) 0.0012(14) 0.0025(14) -0.0048(14)
C7 0.0193(17) 0.0173(16) 0.0260(19) -0.0016(13) 0.0034(14) -0.0044(14)
C8 0.0217 0.0189 0.0218 -0.0071 -0.0034 -0.0067
C9 0.0217 0.028 0.032 -0.0112 0.0048 -0.009
C10 0.0239 0.0184 0.044 -0.0098 -0.0003 -0.0015
C11 0.0196 0.0141 0.0197 0.0015 0.001 0.0012
C12 0.0157 0.0201 0.0204 0.005 0.0016 0.0011
C13 0.0213 0.0221 0.0168 0.0018 -0.0004 0.0026
C14 0.0278 0.0193 0.0216 -0.0036 -0.0024 0.0026
C15 0.0227 0.0141 0.0216 0.0012 0.0023 0.0013
C16 0.037(2) 0.0187(17) 0.0232(18) 0.0055(14) -0.0050(15) -0.0087(16)
C17 0.034(2) 0.030(2) 0.0214(19) 0.0047(15) -0.0070(16) -0.0056(17)
C18 0.0136(15) 0.0320(19) 0.0158(16) 0.0037(14) 0.0015(13) 0.0024(14)
C19 0.0246(18) 0.0202(17) 0.0161(16) 0.0051(13) 0.0055(13) 0.0043(14)
C20 0.0212(17) 0.0172(16) 0.0185(17) 0.0035(13) 0.0024(13) -0.0002(14)
C21 0.0217(17) 0.0294(19) 0.0160(17) 0.0013(14) -0.0006(14) -0.0011(15)
C22 0.0281(19) 0.0276(19) 0.0173(18) -0.0023(14) -0.0022(15) 0.0037(16)
Cu1B 0.019 0.0139 0.0156 0.00506 -0.00257 -0.00199
Cu1C 0.019 0.0139 0.0156 -0.00506 -0.00257 0.00199
Cu1F 0.019 0.0139 0.0156 0.00506 -0.00257 -0.00199
O1F 0.0359 0.0206 0.0185 0.0067 -0.0047 -0.011
O3C 0.0191 0.0231 0.0182 0.0048 0.0004 -0.0009
O4C 0.0446 0.0217 0.067 -0.016 -0.0102 0.0019
N1B 0.0178 0.0136 0.0163 0.0028 -0.0002 -0.0016
loop_
_geom_bond_atom_site_label_1
_geom_bond_atom_site_label_2
_geom_bond_site_symmetry_1
_geom_bond_site_symmetry_2
Cu1 O2 1_555 1_555
O1 C1 1_555 1_555
O2 C1 1_555 1_555
O3 C8 1_555 1_555
O4 C8 1_555 1_555
N1 C11 1_555 1_555
N2 Cu1 1_555 1_555
N3 N4 1_555 1_555
N4 C22 1_555 1_555
C1 C2 1_555 1_555
C2 C3 1_555 1_555
C3 H1 1_555 1_555
C4 C3 1_555 1_555
H2 C4 1_555 1_555
C5 C4 1_555 1_555
C6 C5 1_555 1_555
H3 C6 1_555 1_555
C7 C2 1_555 1_555
H4 C7 1_555 1_555
C8 C9 1_555 1_555
C9 H5 1_555 1_555
H6 C9 1_555 1_555
C10 C5 1_555 1_555
H7 C10 1_555 1_555
H8 C10 1_555 1_555
C11 H9 1_555 1_555
C12 C11 1_555 1_555
H10 C12 1_555 1_555
C13 C12 1_555 1_555
C14 C13 1_555 1_555
H11 C14 1_555 1_555
C15 N1 1_555 1_555
H12 C15 1_555 1_555
C16 N2 1_555 1_555
H13 C16 1_555 1_555
C17 C16 1_555 1_555
H14 C17 1_555 1_555
C18 C17 1_555 1_555
C19 C18 1_555 1_555
H15 C19 1_555 1_555
C20 N2 1_555 1_555
H16 C20 1_555 1_555
C21 N3 1_555 1_555
H17 C21 1_555 1_555
C22 C13 1_555 1_555
H18 C22 1_555 1_555
Cu1B N1 1_555 1_555
Cu1C O3 1_555 1_555
Cu1F O1 1_555 1_555
O1F Cu1 1_555 1_555
O3C Cu1 1_555 1_555
O4C Cu1 1_555 1_555
N1B Cu1 1_555 1_555
O4 Cu1C 1_555 1_555
C6 C7 1_555 1_555
C9 C10 1_555 1_555
C14 C15 1_555 1_555
C18 C21 1_555 1_555
C19 C20 1_555 1_555

#END
