
#######################################################################
#
#                 Cambridge Crystallographic Data Centre
#                                CCDC 
#
#######################################################################
#
# If this CIF has been generated from an entry in the Cambridge 
# Structural Database, then it will include bibliographic, chemical, 
# crystal, experimental, refinement or atomic coordinate data resulting 
# from the CCDC's data processing and validation procedures.
#
#######################################################################

data_FIJYED
_chemical_formula_moiety         '(C4 H14 Al4 N2 O17 P4)n'
_symmetry_cell_setting           monoclinic
_symmetry_space_group_name_H-M   'P 21/c'
_symmetry_Int_Tables_number      14
_space_group_name_Hall           '-P 2ybc'
loop_
_symmetry_equiv_pos_site_id
_symmetry_equiv_pos_as_xyz
1 x,y,z
2 -x,1/2+y,1/2-z
3 -x,-y,-z
4 x,1/2-y,1/2+z
_cell_length_a                   19.6721(4)
_cell_length_b                   9.2201(2)
_cell_length_c                   9.7478(2)
_cell_angle_alpha                90
_cell_angle_beta                 95.60(1)
_cell_angle_gamma                90
_cell_volume                     1759.61
loop_
_atom_site_label
_atom_site_type_symbol
_atom_site_fract_x
_atom_site_fract_y
_atom_site_fract_z
P1 P 0.4205(1) 0.1168(3) 1.0771(3)
P2 P 0.4005(1) -0.1682(3) 0.7142(3)
P3 P 0.1617(1) -0.1552(3) 0.9858(3)
P4 P 0.0479(1) 0.1536(3) 1.2877(3)
Al1 Al 0.0563(2) 0.0819(3) 0.9913(3)
Al2 Al 0.5304(2) -0.1278(3) 1.2184(3)
Al3 Al -0.0804(2) 0.3391(3) 1.2651(3)
Al4 Al 0.3252(1) -0.1301(3) 0.9877(3)
O1 O 0.0783(3) 0.1839(5) 1.1497(4)
O2 O -0.0297(2) 0.1745(5) 1.2687(5)
O3 O 0.1307(3) -0.0102(5) 0.9356(5)
O4 O 0.3515(3) -0.1527(6) 0.8246(4)
O5 O 0.2382(2) -0.1439(5) 0.9744(5)
O6 O 0.3611(3) -0.2246(5) 0.5831(5)
O7 O 0.4762(2) 0.0102(5) 1.1288(5)
O8 O 0.1328(3) -0.2800(5) 0.8942(5)
O9 O 0.4334(3) 0.1818(6) 0.9361(4)
O10 O 0.4278(3) -0.0179(5) 0.6758(6)
O11 O 0.0650(3) -0.0018(5) 1.3412(5)
O12 O 0.0293(3) -0.0811(5) 1.0861(5)
O13 O 0.4126(3) 0.2405(5) 1.1807(5)
O14 O 0.1531(3) -0.1840(5) 1.1385(4)
O15 O 0.3521(2) 0.0358(5) 1.0603(5)
O16 O 0.4560(2) -0.2777(5) 0.7657(5)
O17 O 0.0817(3) 0.2589(5) 1.3936(5)
Al1B Al -0.0563(2) -0.0819(3) 1.0087(3)
Al1C Al 0.0563(2) 0.4181(3) 1.4913(3)
Al2B Al 0.4696(2) 0.1278(3) 0.7816(3)
Al2A Al 0.4696(2) 0.3722(3) 1.2816(3)
Al2C Al 0.5304(2) -0.3722(3) 0.7184(3)
Al3B Al 0.0804(2) -0.3391(3) 0.7349(3)
Al3A Al 0.0804(2) -0.1609(3) 1.2349(3)
Al4C Al 0.3252(1) -0.3699(3) 0.4877(3)
O6C O 0.3611(3) -0.2754(5) 1.0831(5)
O8B O -0.1328(3) 0.2800(5) 1.1058(5)
O9B O 0.5666(3) -0.1818(6) 1.0639(4)
O10B O 0.5722(3) 0.0179(5) 1.3242(6)
O11A O -0.0650(3) 0.4982(5) 1.1588(5)
O12B O -0.0293(3) 0.0811(5) 0.9139(5)
O12A O -0.0293(3) 0.4189(5) 1.4139(5)
O13A O 0.5874(3) -0.2595(5) 1.3193(5)
O14A O -0.1531(3) 0.3160(5) 1.3615(4)
O16C O 0.4560(2) -0.2223(5) 1.2657(5)
O17C O 0.0817(3) 0.2411(5) 0.8936(5)
N1 N 0.1287(3) 0.4653(7) 0.1138(7)
N2 N 0.3592(3) 0.4569(7) -0.0986(7)
C1 C 0.2050(3) 0.4716(7) 0.1474(7)
C2 C 0.2426(3) 0.3434(7) 0.0829(7)
C3 C 0.2412(3) 0.3492(7) -0.0779(7)
C4 C 0.2831(3) 0.4765(7) -0.1323(7)
H1 H 0.2690(6) 0.5661(9) -0.091(2)
H2 H 0.2730(6) 0.483(2) -0.2317(10)
H3 H 0.2220(6) 0.5624(9) 0.114(2)
H4 H 0.2154(6) 0.468(2) 0.2469(9)
H5 H 0.2212(8) 0.2536(9) 0.1079(13)
H6 H 0.2899(5) 0.343(2) 0.1223(12)
H7 H 0.1940(5) 0.358(2) -0.1173(12)
H8 H 0.2596(8) 0.2588(9) -0.1095(13)
loop_
_geom_bond_atom_site_label_1
_geom_bond_atom_site_label_2
_geom_bond_site_symmetry_1
_geom_bond_site_symmetry_2
P1 O7 1_555 1_555
P2 O4 1_555 1_555
P3 O3 1_555 1_555
P4 O1 1_555 1_555
Al1 O1 1_555 1_555
Al2 O7 1_555 1_555
Al3 O2 1_555 1_555
Al4 O4 1_555 1_555
O2 P4 1_555 1_555
O3 Al1 1_555 1_555
O5 P3 1_555 1_555
O6 P2 1_555 1_555
O8 P3 1_555 1_555
O9 P1 1_555 1_555
O10 P2 1_555 1_555
O11 P4 1_555 1_555
O12 Al1 1_555 1_555
O13 P1 1_555 1_555
O14 P3 1_555 1_555
O15 P1 1_555 1_555
O16 P2 1_555 1_555
O17 P4 1_555 1_555
N1 C1 1_555 1_555
N2 C4 1_555 1_555
C1 C2 1_555 1_555
C2 C3 1_555 1_555
C3 C4 1_555 1_555
C4 H1 1_555 1_555
H2 C4 1_555 1_555
H3 C1 1_555 1_555
H4 C1 1_555 1_555
H5 C2 1_555 1_555
H6 C2 1_555 1_555
H7 C3 1_555 1_555
H8 C3 1_555 1_555
Al1B O12 1_555 1_555
Al1C O17 1_555 1_555
Al2B O9 1_555 1_555
Al2A O13 1_555 1_555
Al2C O16 1_555 1_555
Al3B O8 1_555 1_555
Al3A O11 1_555 1_555
Al4C O6 1_555 1_555
O6C Al4 1_555 1_555
O8B Al3 1_555 1_555
O9B Al2 1_555 1_555
O10B Al2 1_555 1_555
O11A Al3 1_555 1_555
O12B Al1 1_555 1_555
O12A Al3 1_555 1_555
O13A Al2 1_555 1_555
O14A Al3 1_555 1_555
O16C Al2 1_555 1_555
O17C Al1 1_555 1_555
Al4 O5 1_555 1_555
Al4 O15 1_555 1_555
O10 Al2B 1_555 1_555
O12 Al3A 1_555 1_555
O14 Al3A 1_555 1_555
Al1B O12B 1_555 1_555
Al1C O12A 1_555 1_555

#END
