
#######################################################################
#
#                 Cambridge Crystallographic Data Centre
#                                CCDC 
#
#######################################################################
#
# If this CIF has been generated from an entry in the Cambridge 
# Structural Database, then it will include bibliographic, chemical, 
# crystal, experimental, refinement or atomic coordinate data resulting 
# from the CCDC's data processing and validation procedures.
#
#######################################################################

data_IVOLUC
_chemical_formula_moiety         '(C28 H16 Cd2 O12 S2)n'
_symmetry_cell_setting           monoclinic
_symmetry_space_group_name_H-M   'C 2/c'
_symmetry_Int_Tables_number      15
_space_group_name_Hall           '-C 2yc'
loop_
_symmetry_equiv_pos_site_id
_symmetry_equiv_pos_as_xyz
1 x,y,z
2 -x,y,1/2-z
3 1/2+x,1/2+y,z
4 1/2-x,1/2+y,1/2-z
5 -x,-y,-z
6 x,-y,1/2+z
7 1/2-x,1/2-y,-z
8 1/2+x,1/2-y,1/2+z
_cell_length_a                   13.376(3)
_cell_length_b                   21.481(5)
_cell_length_c                   10.1680(17)
_cell_angle_alpha                90
_cell_angle_beta                 94.756(7)
_cell_angle_gamma                90
_cell_volume                     2911.51
loop_
_atom_site_label
_atom_site_type_symbol
_atom_site_fract_x
_atom_site_fract_y
_atom_site_fract_z
Cd1 Cd 0.51515(2) 0.57314(2) 0.41907(2)
S1 S 1.0000 0.83156(2) 0.2500
O1 O 1.00412(5) 0.86620(3) 0.37208(6)
C1 C 0.89678(6) 0.78049(4) 0.24640(7)
C2 C 0.85719(17) 0.75747(11) 0.12685(17)
H1 H 0.8829 0.7703 0.0468
C3 C 0.77871(17) 0.71505(11) 0.12633(18)
H2 H 0.7510 0.6981 0.0451
C4 C 0.74004(6) 0.69704(4) 0.24467(8)
C5 C 0.78496(12) 0.71963(8) 0.36261(13)
H3 H 0.7619 0.7055 0.4433
C6 C 0.86304(12) 0.76251(8) 0.36579(13)
H4 H 0.8922 0.7789 0.4469
C7 C 0.65253(6) 0.65286(4) 0.24594(8)
O2 O 0.62063(5) 0.62982(3) 0.13711(6)
O3 O 0.61969(5) 0.64351(3) 0.35719(6)
S2 S 0.0000 0.31579(2) 0.2500
O4 O 0.00506(5) 0.28240(3) 0.12810(8)
C8 C 0.10506(6) 0.36597(4) 0.26844(8)
C9 C 0.13859(7) 0.38814(5) 0.39297(9)
H5 H 0.1039 0.3777 0.4678
C10 C 0.22346(7) 0.42570(4) 0.40644(8)
H6 H 0.2475 0.4409 0.4909
C11 C 0.27316(6) 0.44096(4) 0.29533(7)
C12 C 0.23804(7) 0.41885(5) 0.17075(8)
H7 H 0.2720 0.4296 0.0955
C13 C 0.15388(7) 0.38128(5) 0.15712(9)
H8 H 0.1296 0.3661 0.0727
C14 C 0.36317(6) 0.48295(4) 0.30651(7)
O5 O 0.40941(5) 0.49070(3) 0.42109(5)
O6 O 0.38595(5) 0.50932(3) 0.20496(6)
O1A O 0.99588(5) 0.86620(3) 0.12792(6)
C1A C 1.10322(6) 0.78049(4) 0.25360(7)
C2A C 1.14281(17) 0.75747(11) 0.37315(17)
H1A H 1.1171 0.7703 0.4532
C3A C 1.22129(17) 0.71505(11) 0.37367(18)
H2A H 1.2490 0.6981 0.4549
C4A C 1.25996(6) 0.69704(4) 0.25533(8)
C5A C 1.21504(12) 0.71963(8) 0.13739(13)
H3A H 1.2381 0.7055 0.0567
C6A C 1.13696(12) 0.76251(8) 0.13421(13)
H4A H 1.1078 0.7789 0.0531
C7A C 1.34747(6) 0.65286(4) 0.25406(8)
O2A O 1.37937(5) 0.62982(3) 0.36289(6)
O3A O 1.38031(5) 0.64351(3) 0.14281(6)
O4A O -0.00506(5) 0.28240(3) 0.37190(8)
C8A C -0.10506(6) 0.36597(4) 0.23156(8)
C9A C -0.13859(7) 0.38814(5) 0.10703(9)
H5A H -0.1039 0.3777 0.0322
C10A C -0.22346(7) 0.42570(4) 0.09356(8)
H6A H -0.2475 0.4409 0.0091
C11A C -0.27316(6) 0.44096(4) 0.20467(7)
C12A C -0.23804(7) 0.41885(5) 0.32925(8)
H7A H -0.2720 0.4296 0.4045
C13A C -0.15388(7) 0.38128(5) 0.34288(9)
H8A H -0.1296 0.3661 0.4273
C14A C -0.36317(6) 0.48295(4) 0.19349(7)
O5A O -0.40941(5) 0.49070(3) 0.07891(5)
O6A O -0.38595(5) 0.50932(3) 0.29504(6)
Cd1A Cd -0.51515(2) 0.57314(2) 0.08093(2)
Cd1_2 Cd -0.48485(2) 0.57314(2) 0.41907(2)
Cd1_3 Cd 1.51515(2) 0.57314(2) 0.41907(2)
Cd1A_2 Cd 0.48485(2) 0.57314(2) 0.08093(2)
Cd1A_3 Cd 1.48485(2) 0.57314(2) 0.08093(2)
Cd1D Cd 0.48485(2) 0.42686(2) 0.58093(2)
Cd1E Cd -0.48485(2) 0.42686(2) -0.08093(2)
Cd1F Cd 0.98485(2) 0.92686(2) 0.58093(2)
Cd1G Cd 1.01515(2) 0.92686(2) -0.08093(2)
O1F O 0.49588(5) 0.63380(3) 0.62792(6)
O1G O -0.49588(5) 0.63380(3) -0.12792(6)
O2_2 O -0.37937(5) 0.62982(3) 0.13711(6)
O2A_2 O 0.37937(5) 0.62982(3) 0.36289(6)
O3A_2 O -0.61969(5) 0.64351(3) 0.14281(6)
O5D O 0.59059(5) 0.50930(3) 0.57891(5)
O5E O -0.59059(5) 0.50930(3) -0.07891(5)
O6_2 O -0.61405(5) 0.50932(3) 0.20496(6)
O6A_2 O 0.61405(5) 0.50932(3) 0.29504(6)
loop_
_geom_bond_atom_site_label_1
_geom_bond_atom_site_label_2
_geom_bond_site_symmetry_1
_geom_bond_site_symmetry_2
Cd1 O3 1_555 1_555
S1 O1 1_555 1_555
O1 Cd1F 1_555 1_555
C1 S1 1_555 1_555
C2 C1 1_555 1_555
H1 C2 1_555 1_555
C3 C2 1_555 1_555
H2 C3 1_555 1_555
C4 C3 1_555 1_555
C5 C4 1_555 1_555
H3 C5 1_555 1_555
C6 C1 1_555 1_555
H4 C6 1_555 1_555
C7 C4 1_555 1_555
O2 C7 1_555 1_555
O3 C7 1_555 1_555
S2 O4 1_555 1_555
C8 S2 1_555 1_555
C9 C8 1_555 1_555
H5 C9 1_555 1_555
C10 C9 1_555 1_555
H6 C10 1_555 1_555
C11 C10 1_555 1_555
C12 C11 1_555 1_555
H7 C12 1_555 1_555
C13 C8 1_555 1_555
H8 C13 1_555 1_555
C14 C11 1_555 1_555
O5 Cd1 1_555 1_555
O6 C14 1_555 1_555
O1A S1 1_555 1_555
C1A S1 1_555 1_555
C2A C1A 1_555 1_555
H1A C2A 1_555 1_555
C3A C2A 1_555 1_555
H2A C3A 1_555 1_555
C4A C3A 1_555 1_555
C5A C4A 1_555 1_555
H3A C5A 1_555 1_555
C6A C1A 1_555 1_555
H4A C6A 1_555 1_555
C7A C4A 1_555 1_555
O2A C7A 1_555 1_555
O3A C7A 1_555 1_555
O4A S2 1_555 1_555
C8A S2 1_555 1_555
C9A C8A 1_555 1_555
H5A C9A 1_555 1_555
C10A C9A 1_555 1_555
H6A C10A 1_555 1_555
C11A C10A 1_555 1_555
C12A C11A 1_555 1_555
H7A C12A 1_555 1_555
C13A C8A 1_555 1_555
H8A C13A 1_555 1_555
C14A C11A 1_555 1_555
O5A C14A 1_555 1_555
O6A C14A 1_555 1_555
Cd1A O5A 1_555 1_555
Cd1_2 O6A 1_555 1_555
Cd1_3 O2A 1_555 1_555
Cd1A_2 O2 1_555 1_555
Cd1A_3 O3A 1_555 1_555
Cd1D O5 1_555 1_555
Cd1E O5A 1_555 1_555
Cd1G O1A 1_555 1_555
O1F Cd1 1_555 1_555
O1G Cd1A 1_555 1_555
O2_2 Cd1A 1_555 1_555
O2A_2 Cd1 1_555 1_555
O3A_2 Cd1A 1_555 1_555
O5D Cd1 1_555 1_555
O5E Cd1A 1_555 1_555
O6_2 Cd1A 1_555 1_555
O6A_2 Cd1 1_555 1_555
C5 C6 1_555 1_555
C12 C13 1_555 1_555
C14 O5 1_555 1_555
O6 Cd1A_2 1_555 1_555
C5A C6A 1_555 1_555
C12A C13A 1_555 1_555
Cd1D O5D 1_555 1_555
Cd1E O5E 1_555 1_555

#END
