
#######################################################################
#
#                 Cambridge Crystallographic Data Centre
#                                CCDC 
#
#######################################################################
#
# If this CIF has been generated from an entry in the Cambridge 
# Structural Database, then it will include bibliographic, chemical, 
# crystal, experimental, refinement or atomic coordinate data resulting 
# from the CCDC's data processing and validation procedures.
#
#######################################################################

data_IVOLEM
_chemical_formula_moiety         '(C28 H16 Cd2 O12 S2)n'
_symmetry_cell_setting           monoclinic
_symmetry_space_group_name_H-M   'C 2/c'
_symmetry_Int_Tables_number      15
_space_group_name_Hall           '-C 2yc'
loop_
_symmetry_equiv_pos_site_id
_symmetry_equiv_pos_as_xyz
1 x,y,z
2 -x,y,1/2-z
3 1/2+x,1/2+y,z
4 1/2-x,1/2+y,1/2-z
5 -x,-y,-z
6 x,-y,1/2+z
7 1/2-x,1/2-y,-z
8 1/2+x,1/2-y,1/2+z
_cell_length_a                   13.391(3)
_cell_length_b                   21.450(4)
_cell_length_c                   10.1758(15)
_cell_angle_alpha                90
_cell_angle_beta                 94.960(5)
_cell_angle_gamma                90
_cell_volume                     2911.92
loop_
_atom_site_label
_atom_site_type_symbol
_atom_site_fract_x
_atom_site_fract_y
_atom_site_fract_z
Cd1 Cd 0.51544(2) 0.57311(2) 0.41908(2)
S1 S 1.0000 0.83146(2) 0.2500
O1 O 1.00476(6) 0.86610(4) 0.37210(8)
C1 C 0.89708(8) 0.78022(5) 0.24692(11)
C2 C 0.8572(2) 0.75717(15) 0.1273(3)
H1 H 0.8825 0.7700 0.0472
C3 C 0.7789(2) 0.71456(15) 0.1269(3)
H2 H 0.7513 0.6973 0.0458
C4 C 0.74011(8) 0.69683(5) 0.24543(11)
C5 C 0.78589(17) 0.71939(12) 0.36329(18)
H3 H 0.7634 0.7052 0.4441
C6 C 0.86383(18) 0.76220(12) 0.36615(19)
H4 H 0.8933 0.7785 0.4472
C7 C 0.65248(8) 0.65268(5) 0.24672(11)
O2 O 0.62047(6) 0.62972(4) 0.13791(8)
O3 O 0.61998(6) 0.64349(4) 0.35806(8)
S2 S -0.0000 0.31570(2) 0.2500
O4 O 0.00460(7) 0.28230(4) 0.12821(10)
C8 C 0.10488(8) 0.36601(5) 0.26828(12)
C9 C 0.13827(9) 0.38859(6) 0.39232(12)
H5 H 0.1035 0.3785 0.4670
C10 C 0.22318(9) 0.42619(5) 0.40576(12)
H6 H 0.2471 0.4417 0.4901
C11 C 0.27311(8) 0.44101(5) 0.29481(11)
C12 C 0.23775(9) 0.41856(6) 0.17070(12)
H7 H 0.2716 0.4291 0.0955
C13 C 0.15373(9) 0.38102(6) 0.15694(12)
H8 H 0.1295 0.3656 0.0726
C14 C 0.36310(8) 0.48286(5) 0.30594(10)
O5 O 0.40953(6) 0.49073(4) 0.42053(7)
O6 O 0.38587(6) 0.50914(4) 0.20448(8)
O1A O 0.99524(6) 0.86610(4) 0.12790(8)
C1A C 1.10292(8) 0.78022(5) 0.25308(11)
C2A C 1.1428(2) 0.75717(15) 0.3727(3)
H1A H 1.1175 0.7700 0.4528
C3A C 1.2211(2) 0.71456(15) 0.3731(3)
H2A H 1.2487 0.6973 0.4542
C4A C 1.25989(8) 0.69683(5) 0.25457(11)
C5A C 1.21411(17) 0.71939(12) 0.13671(18)
H3A H 1.2366 0.7052 0.0559
C6A C 1.13617(18) 0.76220(12) 0.13385(19)
H4A H 1.1067 0.7785 0.0528
C7A C 1.34752(8) 0.65268(5) 0.25328(11)
O2A O 1.37953(6) 0.62972(4) 0.36209(8)
O3A O 1.38002(6) 0.64349(4) 0.14194(8)
O4A O -0.00460(7) 0.28230(4) 0.37179(10)
C8A C -0.10488(8) 0.36601(5) 0.23172(12)
C9A C -0.13827(9) 0.38859(6) 0.10768(12)
H5A H -0.1035 0.3785 0.0330
C10A C -0.22318(9) 0.42619(5) 0.09424(12)
H6A H -0.2471 0.4417 0.0099
C11A C -0.27311(8) 0.44101(5) 0.20519(11)
C12A C -0.23775(9) 0.41856(6) 0.32930(12)
H7A H -0.2716 0.4291 0.4045
C13A C -0.15373(9) 0.38102(6) 0.34306(12)
H8A H -0.1295 0.3656 0.4274
C14A C -0.36310(8) 0.48286(5) 0.19406(10)
O5A O -0.40953(6) 0.49073(4) 0.07947(7)
O6A O -0.38587(6) 0.50914(4) 0.29552(8)
Cd1A Cd -0.51544(2) 0.57311(2) 0.08092(2)
Cd1_2 Cd -0.48456(2) 0.57311(2) 0.41908(2)
Cd1_3 Cd 1.51544(2) 0.57311(2) 0.41908(2)
Cd1A_2 Cd 0.48456(2) 0.57311(2) 0.08092(2)
Cd1A_3 Cd 1.48456(2) 0.57311(2) 0.08092(2)
Cd1D Cd 0.48456(2) 0.42689(2) 0.58092(2)
Cd1E Cd -0.48456(2) 0.42689(2) -0.08092(2)
Cd1F Cd 0.98456(2) 0.92689(2) 0.58092(2)
Cd1G Cd 1.01544(2) 0.92689(2) -0.08092(2)
O1F O 0.49524(6) 0.63390(4) 0.62790(8)
O1G O -0.49524(6) 0.63390(4) -0.12790(8)
O2_2 O -0.37953(6) 0.62972(4) 0.13791(8)
O2A_2 O 0.37953(6) 0.62972(4) 0.36209(8)
O3A_2 O -0.61998(6) 0.64349(4) 0.14194(8)
O5D O 0.59047(6) 0.50927(4) 0.57947(7)
O5E O -0.59047(6) 0.50927(4) -0.07947(7)
O6_2 O -0.61413(6) 0.50914(4) 0.20448(8)
O6A_2 O 0.61413(6) 0.50914(4) 0.29552(8)
loop_
_geom_bond_atom_site_label_1
_geom_bond_atom_site_label_2
_geom_bond_site_symmetry_1
_geom_bond_site_symmetry_2
Cd1 O3 1_555 1_555
S1 O1 1_555 1_555
O1 Cd1F 1_555 1_555
C1 S1 1_555 1_555
C2 C1 1_555 1_555
H1 C2 1_555 1_555
C3 C2 1_555 1_555
H2 C3 1_555 1_555
C4 C3 1_555 1_555
C5 C4 1_555 1_555
H3 C5 1_555 1_555
C6 C1 1_555 1_555
H4 C6 1_555 1_555
C7 C4 1_555 1_555
O2 C7 1_555 1_555
O3 C7 1_555 1_555
S2 O4 1_555 1_555
C8 S2 1_555 1_555
C9 C8 1_555 1_555
H5 C9 1_555 1_555
C10 C9 1_555 1_555
H6 C10 1_555 1_555
C11 C10 1_555 1_555
C12 C11 1_555 1_555
H7 C12 1_555 1_555
C13 C8 1_555 1_555
H8 C13 1_555 1_555
C14 C11 1_555 1_555
O5 Cd1 1_555 1_555
O6 C14 1_555 1_555
O1A S1 1_555 1_555
C1A S1 1_555 1_555
C2A C1A 1_555 1_555
H1A C2A 1_555 1_555
C3A C2A 1_555 1_555
H2A C3A 1_555 1_555
C4A C3A 1_555 1_555
C5A C4A 1_555 1_555
H3A C5A 1_555 1_555
C6A C1A 1_555 1_555
H4A C6A 1_555 1_555
C7A C4A 1_555 1_555
O2A C7A 1_555 1_555
O3A C7A 1_555 1_555
O4A S2 1_555 1_555
C8A S2 1_555 1_555
C9A C8A 1_555 1_555
H5A C9A 1_555 1_555
C10A C9A 1_555 1_555
H6A C10A 1_555 1_555
C11A C10A 1_555 1_555
C12A C11A 1_555 1_555
H7A C12A 1_555 1_555
C13A C8A 1_555 1_555
H8A C13A 1_555 1_555
C14A C11A 1_555 1_555
O5A C14A 1_555 1_555
O6A C14A 1_555 1_555
Cd1A O5A 1_555 1_555
Cd1_2 O6A 1_555 1_555
Cd1_3 O2A 1_555 1_555
Cd1A_2 O2 1_555 1_555
Cd1A_3 O3A 1_555 1_555
Cd1D O5 1_555 1_555
Cd1E O5A 1_555 1_555
Cd1G O1A 1_555 1_555
O1F Cd1 1_555 1_555
O1G Cd1A 1_555 1_555
O2_2 Cd1A 1_555 1_555
O2A_2 Cd1 1_555 1_555
O3A_2 Cd1A 1_555 1_555
O5D Cd1 1_555 1_555
O5E Cd1A 1_555 1_555
O6_2 Cd1A 1_555 1_555
O6A_2 Cd1 1_555 1_555
C5 C6 1_555 1_555
C12 C13 1_555 1_555
C14 O5 1_555 1_555
O6 Cd1A_2 1_555 1_555
C5A C6A 1_555 1_555
C12A C13A 1_555 1_555
Cd1D O5D 1_555 1_555
Cd1E O5E 1_555 1_555

#END
