
#######################################################################
#
#                 Cambridge Crystallographic Data Centre
#                                CCDC 
#
#######################################################################
#
# If this CIF has been generated from an entry in the Cambridge 
# Structural Database, then it will include bibliographic, chemical, 
# crystal, experimental, refinement or atomic coordinate data resulting 
# from the CCDC's data processing and validation procedures.
#
#######################################################################

data_DITYEM
_chemical_formula_moiety         'C24 H16 Cu9 N19'
_symmetry_cell_setting           monoclinic
_symmetry_space_group_name_H-M   'P 2/m'
_symmetry_Int_Tables_number      10
_space_group_name_Hall           '-P 2y'
loop_
_symmetry_equiv_pos_site_id
_symmetry_equiv_pos_as_xyz
1 x,y,z
2 -x,y,-z
3 -x,-y,-z
4 x,-y,z
_cell_length_a                   5.2788(8)
_cell_length_b                   15.467(2)
_cell_length_c                   8.2950(10)
_cell_angle_alpha                90
_cell_angle_beta                 92.552(2)
_cell_angle_gamma                90
_cell_volume                     676.592
loop_
_atom_site_label
_atom_site_type_symbol
_atom_site_fract_x
_atom_site_fract_y
_atom_site_fract_z
Cu1 Cu 0.90689(8) 0.5000 0.70394(5)
Cu2 Cu 0.0000 0.16160(3) 1.0000
N1 N 0.9074(4) 0.39648(13) 0.5556(2)
N2 N 1.0000 0.25823(18) 0.5000
N3 N 0.2627(4) 0.21607(14) 0.8685(2)
N4 N 0.9734(7) 0.5000 0.9318(4)
N5 N 0.0000 0.0376(3) 1.0000
C1 C 0.8562(5) 0.31231(16) 0.5830(3)
C2 C 0.2977(5) 0.30112(17) 0.8493(3)
H1 H 0.1882 0.3388 0.8990
C3 C 0.4869(5) 0.33609(16) 0.7601(3)
H2 H 0.5011 0.3957 0.7497
C4 C 0.6563(5) 0.28187(16) 0.6857(3)
C5 C 0.6227(5) 0.19290(17) 0.7065(3)
H3 H 0.7317 0.1538 0.6601
C6 C 0.4272(5) 0.16378(17) 0.7961(3)
H4 H 0.4072 0.1044 0.8074
N1A N 1.0926(4) 0.39648(13) 0.4444(2)
N3A N 1.7373(4) 0.21607(14) 0.1315(2)
C1A C 1.1438(5) 0.31231(16) 0.4170(3)
C2A C 1.7023(5) 0.30112(17) 0.1507(3)
H1A H 1.8118 0.3388 0.1010
C3A C 1.5131(5) 0.33609(16) 0.2399(3)
H2A H 1.4989 0.3957 0.2503
C4A C 1.3437(5) 0.28187(16) 0.3143(3)
C5A C 1.3773(5) 0.19290(17) 0.2935(3)
H3A H 1.2683 0.1538 0.3399
C6A C 1.5728(5) 0.16378(17) 0.2039(3)
H4A H 1.5928 0.1044 0.1926
N4A N 1.0266(7) 0.5000 1.0682(4)
N5B N 0.0000 -0.0376(3) 1.0000
Cu2B Cu 0.0000 -0.16160(3) 1.0000
N1C N 0.9074(4) -0.39648(13) 0.5556(2)
N2B N 1.0000 -0.25823(18) 0.5000
N3C N 0.2627(4) -0.21607(14) 0.8685(2)
C1C C 0.8562(5) -0.31231(16) 0.5830(3)
C2C C 0.2977(5) -0.30112(17) 0.8493(3)
H1C H 0.1882 -0.3388 0.8990
C3C C 0.4869(5) -0.33609(16) 0.7601(3)
H2C H 0.5011 -0.3957 0.7497
C4C C 0.6563(5) -0.28187(16) 0.6857(3)
C5C C 0.6227(5) -0.19290(17) 0.7065(3)
H3C H 0.7317 -0.1538 0.6601
C6C C 0.4272(5) -0.16378(17) 0.7961(3)
H4C H 0.4072 -0.1044 0.8074
N1B N 1.0926(4) -0.39648(13) 0.4444(2)
N3B N 1.7373(4) -0.21607(14) 0.1315(2)
C1B C 1.1438(5) -0.31231(16) 0.4170(3)
C2B C 1.7023(5) -0.30112(17) 0.1507(3)
H1B H 1.8118 -0.3388 0.1010
C3B C 1.5131(5) -0.33609(16) 0.2399(3)
H2B H 1.4989 -0.3957 0.2503
C4B C 1.3437(5) -0.28187(16) 0.3143(3)
C5B C 1.3773(5) -0.19290(17) 0.2935(3)
H3B H 1.2683 -0.1538 0.3399
C6B C 1.5728(5) -0.16378(17) 0.2039(3)
H4B H 1.5928 -0.1044 0.1926
Cu1A Cu 1.09311(8) 0.5000 1.29606(5)
Cu1_2 Cu 0.90689(8) -0.5000 0.70394(5)
Cu1A_2 Cu 1.09311(8) -0.5000 0.29606(5)
Cu1A_3 Cu 1.09311(8) 0.5000 0.29606(5)
Cu2_2 Cu 2.0000 0.16160(3) 0.0000
Cu2B_2 Cu 2.0000 -0.16160(3) 0.0000
N1A_2 N 1.0926(4) 0.39648(13) 1.4444(2)
N1B_2 N 1.0926(4) 0.60352(13) 1.4444(2)
N1C_2 N 0.9074(4) 0.60352(13) 0.5556(2)
N3A_2 N -0.2627(4) 0.21607(14) 1.1315(2)
N3B_2 N -0.2627(4) -0.21607(14) 1.1315(2)
loop_
_geom_bond_atom_site_label_1
_geom_bond_atom_site_label_2
_geom_bond_site_symmetry_1
_geom_bond_site_symmetry_2
Cu1 N1 1_555 1_555
Cu2 N3 1_555 1_555
N1 C1 1_555 1_555
N2 C1 1_555 1_555
N3 C2 1_555 1_555
N4 Cu1 1_555 1_555
N5 Cu2 1_555 1_555
C1 C4 1_555 1_555
C2 H1 1_555 1_555
C3 C2 1_555 1_555
H2 C3 1_555 1_555
C4 C3 1_555 1_555
C5 C4 1_555 1_555
H3 C5 1_555 1_555
C6 N3 1_555 1_555
H4 C6 1_555 1_555
N1A N1 1_555 1_555
N3A C2A 1_555 1_555
C1A N2 1_555 1_555
C2A H1A 1_555 1_555
C3A C2A 1_555 1_555
H2A C3A 1_555 1_555
C4A C1A 1_555 1_555
C5A C4A 1_555 1_555
H3A C5A 1_555 1_555
C6A N3A 1_555 1_555
H4A C6A 1_555 1_555
N4A N4 1_555 1_555
N5B N5 1_555 1_555
Cu2B N5B 1_555 1_555
N1C C1C 1_555 1_555
N2B C1C 1_555 1_555
N3C Cu2B 1_555 1_555
C1C C4C 1_555 1_555
C2C N3C 1_555 1_555
H1C C2C 1_555 1_555
C3C C2C 1_555 1_555
H2C C3C 1_555 1_555
C4C C3C 1_555 1_555
C5C C4C 1_555 1_555
H3C C5C 1_555 1_555
C6C N3C 1_555 1_555
H4C C6C 1_555 1_555
N1B N1C 1_555 1_555
N3B C2B 1_555 1_555
C1B N2B 1_555 1_555
C2B H1B 1_555 1_555
C3B C2B 1_555 1_555
H2B C3B 1_555 1_555
C4B C1B 1_555 1_555
C5B C4B 1_555 1_555
H3B C5B 1_555 1_555
C6B N3B 1_555 1_555
H4B C6B 1_555 1_555
Cu1A N4A 1_555 1_555
Cu1_2 N1C 1_555 1_555
Cu1A_2 N1B 1_555 1_555
Cu1A_3 N1A 1_555 1_555
Cu2_2 N3A 1_555 1_555
Cu2B_2 N3B 1_555 1_555
N1A_2 Cu1A 1_555 1_555
N1B_2 Cu1A 1_555 1_555
N1C_2 Cu1 1_555 1_555
N3A_2 Cu2 1_555 1_555
N3B_2 Cu2B 1_555 1_555
C5 C6 1_555 1_555
N1A C1A 1_555 1_555
C3A C4A 1_555 1_555
C5A C6A 1_555 1_555
C5C C6C 1_555 1_555
N1B C1B 1_555 1_555
C3B C4B 1_555 1_555
C5B C6B 1_555 1_555

#END
