
#######################################################################
#
#                 Cambridge Crystallographic Data Centre
#                                CCDC 
#
#######################################################################
#
# If this CIF has been generated from an entry in the Cambridge 
# Structural Database, then it will include bibliographic, chemical, 
# crystal, experimental, refinement or atomic coordinate data resulting 
# from the CCDC's data processing and validation procedures.
#
#######################################################################

data_DINQIC
_chemical_formula_moiety         'C43 H37 N4 O14 Zn7'
_symmetry_cell_setting           monoclinic
_symmetry_space_group_name_H-M   'C 2/m'
_symmetry_Int_Tables_number      12
_space_group_name_Hall           '-C 2y'
loop_
_symmetry_equiv_pos_site_id
_symmetry_equiv_pos_as_xyz
1 x,y,z
2 -x,y,-z
3 1/2+x,1/2+y,z
4 1/2-x,1/2+y,-z
5 -x,-y,-z
6 x,-y,z
7 1/2-x,1/2-y,-z
8 1/2+x,1/2-y,z
_cell_length_a                   17.2783(14)
_cell_length_b                   19.6504(14)
_cell_length_c                   16.1383(13)
_cell_angle_alpha                90
_cell_angle_beta                 93.623(2)
_cell_angle_gamma                90
_cell_volume                     5468.41
loop_
_atom_site_label
_atom_site_type_symbol
_atom_site_fract_x
_atom_site_fract_y
_atom_site_fract_z
O5 O 0.3804(10) 0.2114(9) 0.4567(13)
C23 C 0.3691(9) 0.2291(9) 0.3841(12)
H15 H 0.3835 0.1984 0.3424
N3 N 0.3381(9) 0.2880(10) 0.3598(11)
C24 C 0.3152(17) 0.3364(10) 0.4207(15)
H16 H 0.2942 0.3772 0.3926
H17 H 0.3604 0.3488 0.4573
H18 H 0.2755 0.3160 0.4537
C25 C 0.3269(18) 0.3047(17) 0.2732(12)
H19 H 0.3030 0.3497 0.2671
H20 H 0.2930 0.2707 0.2451
H21 H 0.3771 0.3049 0.2481
O6 O 0.389(3) 0.5000 0.311(4)
H22 H 0.3782 0.5000 0.3531
H23 H 0.4210 0.5000 0.2692
Zn1 Zn 0.17920(3) 0.5000 0.87164(3)
O1 O 0.2558(2) 0.42789(17) 0.84218(19)
O2 O 0.0943(2) 0.57156(18) 0.85487(19)
N1 N 0.1844(5) 0.5000 0.9955(4)
C1 C 0.2631(2) 0.4059(2) 0.7712(2)
O3 O 0.2276(2) 0.4280(2) 0.7068(2)
C2 C 0.3178(2) 0.3481(2) 0.7609(2)
O4 O 0.0668(2) 0.57213(19) 0.7194(2)
Zn2 Zn 0.14390(3) 0.5000 0.69080(3)
C3 C 0.3576(2) 0.3207(2) 0.8286(2)
C4 C 0.3275(4) 0.3211(3) 0.6823(3)
N2 N 0.1329(7) 0.5000 0.5659(4)
H1 H 0.3516 0.3398 0.8819
C5 C 0.4076(2) 0.2646(2) 0.8209(2)
C6 C 0.3758(4) 0.2671(4) 0.6720(3)
H2 H 0.3001 0.3406 0.6352
C7 C 0.1479(6) 0.44079(15) 0.5226(5)
C8 C 0.4490(3) 0.2347(3) 0.8897(3)
C9 C 0.4166(3) 0.2370(3) 0.7412(3)
H3 H 0.3819 0.2497 0.6179
H4 H 0.1605 0.4000 0.5520
C10 C 0.1445(6) 0.4413(4) 0.4363(5)
H5 H 0.4437 0.2529 0.9436
C11 C 0.4965(3) 0.1803(2) 0.8803(3)
C12 C 0.4668(3) 0.1807(3) 0.7331(3)
H6 H 0.1550 0.4008 0.4069
C13 C 0.1261(7) 0.5001(5) 0.3933(4)
H7 H 0.5237 0.1608 0.9275
C14 C 0.5055(2) 0.1528(2) 0.8007(2)
H8 H 0.4735 0.1621 0.6797
C15 C 0.1230(12) 0.5000 0.3021(6)
C16 C 0.5600(2) 0.09401(19) 0.7908(2)
H9 H 0.0914 0.4597 0.2852
C17 C 0.1752(11) 0.5000 0.2580(6)
C18 C 0.1799(5) 0.49995(8) 0.1674(4)
H10 H 0.2064 0.4600 0.2766
C19 C 0.1120(4) 0.5088(4) 0.1177(4)
C20 C 0.2500(4) 0.4908(4) 0.1312(6)
C21 C 0.1143(4) 0.5089(4) 0.0318(4)
H11 H 0.0640 0.5147 0.1425
H12 H 0.2964 0.4845 0.1652
C22 C 0.2523(4) 0.4909(4) 0.0453(7)
H13 H 0.0679 0.5150 -0.0022
H14 H 0.3003 0.4847 0.0205
O1E O 0.2558(2) 0.57211(17) 0.84218(19)
O2E O 0.0943(2) 0.42844(18) 0.85487(19)
C1E C 0.2631(2) 0.5941(2) 0.7712(2)
O3E O 0.2276(2) 0.5720(2) 0.7068(2)
C2E C 0.3178(2) 0.6519(2) 0.7609(2)
O4E O 0.0668(2) 0.42787(19) 0.7194(2)
C3E C 0.3576(2) 0.6793(2) 0.8286(2)
C4E C 0.3275(4) 0.6789(3) 0.6823(3)
H1E H 0.3516 0.6602 0.8819
C5E C 0.4076(2) 0.7354(2) 0.8209(2)
C6E C 0.3758(4) 0.7329(4) 0.6720(3)
H2E H 0.3001 0.6594 0.6352
C7E C 0.1479(6) 0.55921(15) 0.5226(5)
C8E C 0.4490(3) 0.7653(3) 0.8897(3)
C9E C 0.4166(3) 0.7630(3) 0.7412(3)
H3E H 0.3819 0.7503 0.6179
H4E H 0.1605 0.6000 0.5520
C10E C 0.1445(6) 0.5587(4) 0.4363(5)
H5E H 0.4437 0.7471 0.9436
C11E C 0.4965(3) 0.8197(2) 0.8803(3)
C12E C 0.4668(3) 0.8193(3) 0.7331(3)
H6E H 0.1550 0.5992 0.4069
H7E H 0.5237 0.8392 0.9275
C14E C 0.5055(2) 0.8472(2) 0.8007(2)
H8E H 0.4735 0.8379 0.6797
C16E C 0.5600(2) 0.90599(19) 0.7908(2)
H9E H 0.0914 0.5403 0.2852
O2B O 0.5943(2) 0.07156(18) 0.85487(19)
O4B O 0.5668(2) 0.07213(19) 0.7194(2)
O2G O 0.5943(2) 0.92844(18) 0.85487(19)
O4G O 0.5668(2) 0.92787(19) 0.7194(2)
H10E H 0.2064 0.5400 0.2766
Zn1B Zn 0.67920(3) -0.0000 0.87164(3)
Zn2B Zn 0.64390(3) -0.0000 0.69080(3)
Zn1B_2 Zn 0.67920(3) 1.0000 0.87164(3)
Zn2B_2 Zn 0.64390(3) 1.0000 0.69080(3)
C19E C 0.1120(4) 0.4912(4) 0.1177(4)
C20E C 0.2500(4) 0.5092(4) 0.1312(6)
C21E C 0.1143(4) 0.4911(4) 0.0318(4)
H11E H 0.0640 0.4853 0.1425
H12E H 0.2964 0.5155 0.1652
C22E C 0.2523(4) 0.5091(4) 0.0453(7)
N1_2 N 0.1844(5) 0.5000 -0.0045(4)
H13E H 0.0679 0.4850 -0.0022
H14E H 0.3003 0.5153 0.0205
Zn1_2 Zn 0.17920(3) 0.5000 -0.12836(3)
loop_
_geom_bond_atom_site_label_1
_geom_bond_atom_site_label_2
_geom_bond_site_symmetry_1
_geom_bond_site_symmetry_2
Zn1 O1 1_555 1_555
O1 C1 1_555 1_555
O2 Zn1 1_555 1_555
N1 Zn1 1_555 1_555
C1 O3 1_555 1_555
O3 Zn2 1_555 1_555
C2 C1 1_555 1_555
O4 Zn2 1_555 1_555
Zn2 N2 1_555 1_555
C3 C2 1_555 1_555
C4 C2 1_555 1_555
N2 C7 1_555 1_555
H1 C3 1_555 1_555
C5 C3 1_555 1_555
C6 C4 1_555 1_555
H2 C4 1_555 1_555
C7 H4 1_555 1_555
C8 C5 1_555 1_555
C9 C5 1_555 1_555
H3 C6 1_555 1_555
C10 C7 1_555 1_555
H5 C8 1_555 1_555
C11 C8 1_555 1_555
C12 C9 1_555 1_555
H6 C10 1_555 1_555
C13 C10 1_555 1_555
H7 C11 1_555 1_555
C14 C11 1_555 1_555
H8 C12 1_555 1_555
C15 C13 1_555 1_555
C16 C14 1_555 1_555
H9 C15 1_555 1_555
C17 C15 1_555 1_555
C18 C17 1_555 1_555
H10 C17 1_555 1_555
C19 C18 1_555 1_555
C20 C18 1_555 1_555
C21 C19 1_555 1_555
H11 C19 1_555 1_555
H12 C20 1_555 1_555
C22 C20 1_555 1_555
H13 C21 1_555 1_555
H14 C22 1_555 1_555
O5 C23 1_555 1_555
C23 H15 1_555 1_555
N3 C23 1_555 1_555
C24 N3 1_555 1_555
H16 C24 1_555 1_555
H17 C24 1_555 1_555
H18 C24 1_555 1_555
C25 N3 1_555 1_555
H19 C25 1_555 1_555
H20 C25 1_555 1_555
H21 C25 1_555 1_555
O6 H22 1_555 1_555
H23 O6 1_555 1_555
O1E Zn1 1_555 1_555
O2E Zn1 1_555 1_555
C1E O1E 1_555 1_555
O3E Zn2 1_555 1_555
C2E C1E 1_555 1_555
O4E Zn2 1_555 1_555
C3E C2E 1_555 1_555
C4E C2E 1_555 1_555
H1E C3E 1_555 1_555
C5E C3E 1_555 1_555
C6E C4E 1_555 1_555
H2E C4E 1_555 1_555
C7E N2 1_555 1_555
C8E C5E 1_555 1_555
C9E C5E 1_555 1_555
H3E C6E 1_555 1_555
H4E C7E 1_555 1_555
C10E C13 1_555 1_555
H5E C8E 1_555 1_555
C11E C8E 1_555 1_555
C12E C9E 1_555 1_555
H6E C10E 1_555 1_555
H7E C11E 1_555 1_555
C14E C11E 1_555 1_555
H8E C12E 1_555 1_555
C16E C14E 1_555 1_555
H9E C15 1_555 1_555
O2B C16 1_555 1_555
O4B C16 1_555 1_555
O2G C16E 1_555 1_555
O4G C16E 1_555 1_555
H10E C17 1_555 1_555
Zn1B O2B 1_555 1_555
Zn2B O4B 1_555 1_555
Zn1B_2 O2G 1_555 1_555
Zn2B_2 O4G 1_555 1_555
C19E C18 1_555 1_555
C20E C18 1_555 1_555
C21E C19E 1_555 1_555
H11E C19E 1_555 1_555
H12E C20E 1_555 1_555
C22E C20E 1_555 1_555
N1_2 C21 1_555 1_555
H13E C21E 1_555 1_555
H14E C22E 1_555 1_555
Zn1_2 N1_2 1_555 1_555
C6 C9 1_555 1_555
C12 C14 1_555 1_555
C22 N1_2 1_555 1_555
C1E O3E 1_555 1_555
C6E C9E 1_555 1_555
C7E C10E 1_555 1_555
C12E C14E 1_555 1_555
C21E N1_2 1_555 1_555
C22E N1_2 1_555 1_555

#END
