
#######################################################################
#
#                 Cambridge Crystallographic Data Centre
#                                CCDC 
#
#######################################################################
#
# If this CIF has been generated from an entry in the Cambridge 
# Structural Database, then it will include bibliographic, chemical, 
# crystal, experimental, refinement or atomic coordinate data resulting 
# from the CCDC's data processing and validation procedures.
#
#######################################################################

data_CAYSOK
_chemical_formula_moiety         '(C40 H26 Mn1 N8 O1)n'
_symmetry_cell_setting           rhombohedral
_symmetry_space_group_name_H-M   'R -3'
_symmetry_Int_Tables_number      148
_space_group_name_Hall           '-R 3'
loop_
_symmetry_equiv_pos_site_id
_symmetry_equiv_pos_as_xyz
1 x,y,z
2 -y,x-y,z
3 -x+y,-x,z
4 2/3+x,1/3+y,1/3+z
5 2/3-y,1/3+x-y,1/3+z
6 2/3-x+y,1/3-x,1/3+z
7 1/3+x,2/3+y,2/3+z
8 1/3-y,2/3+x-y,2/3+z
9 1/3-x+y,2/3-x,2/3+z
10 -x,-y,-z
11 y,-x+y,-z
12 x-y,x,-z
13 1/3-x,2/3-y,2/3-z
14 1/3+y,2/3-x+y,2/3-z
15 1/3+x-y,2/3+x,2/3-z
16 2/3-x,1/3-y,1/3-z
17 2/3+y,1/3-x+y,1/3-z
18 2/3+x-y,1/3+x,1/3-z
_cell_length_a                   32.7624(2)
_cell_length_b                   32.7624(2)
_cell_length_c                   9.3410(1)
_cell_angle_alpha                90
_cell_angle_beta                 90
_cell_angle_gamma                120
_cell_volume                     8683.11
loop_
_atom_site_label
_atom_site_type_symbol
_atom_site_fract_x
_atom_site_fract_y
_atom_site_fract_z
Mn1 Mn 0.1667 0.3333 -0.1667
N1 N 0.1316(2) 0.33133(15) -0.3444(5)
N2 N 0.1654(2) 0.38963(15) -0.0953(5)
N3 N 0.0738(3) 0.1699(2) -0.8280(8)
N4 N 0.0446(2) 0.4705(2) -0.4051(5)
C1 C 0.1119(2) 0.3593(2) -0.3728(6)
C2 C 0.2480(2) 0.3220(2) 0.1677(7)
H1 H 0.2642(2) 0.3085(2) 0.2093(7)
C3 C 0.2456(2) 0.3594(2) 0.2188(7)
H2 H 0.2596(2) 0.3764(2) 0.3018(7)
C4 C 0.2173(2) 0.3676(2) 0.1197(6)
C5 C 0.2079(2) 0.4043(2) 0.1311(6)
C6 C 0.1829(2) 0.4140(2) 0.0297(6)
C7 C 0.1630(2) 0.2163(2) -0.3773(7)
H3 H 0.1552(2) 0.1956(2) -0.4538(7)
C8 C 0.1879(2) 0.2177(2) -0.2617(7)
H4 H 0.2000(2) 0.1980(2) -0.2413(7)
C9 C 0.1919(2) 0.2563(2) -0.1751(6)
C10 C 0.1165(2) 0.3962(2) -0.2850(6)
C11 C 0.1065(2) 0.2302(2) -0.5941(7)
C12 C 0.1232(3) 0.2454(2) -0.7300(7)
H5 H 0.1460(3) 0.2766(2) -0.7469(7)
C13 C 0.1057(3) 0.2136(3) -0.8400(8)
H6 H 0.1176(3) 0.2244(3) -0.9310(8)
C14 C 0.0573(3) 0.1554(3) -0.6983(10)
H7 H 0.0342(3) 0.1240(3) -0.6862(10)
C15 C 0.0718(3) 0.1833(3) -0.5825(9)
H8 H 0.0585(3) 0.1710(3) -0.4937(9)
C16 C 0.0911(2) 0.4217(2) -0.3277(6)
C17 C 0.0494(2) 0.4119(2) -0.2631(7)
H9 H 0.2970(2) 0.2774(2) -0.1419(7)
C18 C 0.0271(2) 0.4361(2) -0.3057(7)
H10 H -0.0016(2) 0.4283(2) -0.2634(7)
C19 C 0.0839(2) 0.4793(2) -0.4642(7)
H11 H 0.0965(2) 0.5027(2) -0.5340(7)
C20 C 0.2245(2) 0.2103(2) 0.0974(7)
H12 H 0.1964(2) 0.2023(2) 0.1439(7)
Mn1P Mn -0.0000 0.4999 -0.5000
N1L N 0.2017(2) 0.33534(15) 0.0111(5)
C1L C 0.2214(2) 0.3074(2) 0.0395(6)
N2L N 0.1679(2) 0.27704(15) -0.2380(5)
C6L C 0.1504(2) 0.2527(2) -0.3630(6)
C5L C 0.1254(2) 0.2624(2) -0.4644(6)
C4L C 0.1160(2) 0.2991(2) -0.4530(6)
C3L C 0.0877(2) 0.3073(2) -0.5521(7)
C2L C 0.0853(2) 0.3447(2) -0.5010(7)
H1L H 0.0691(2) 0.3582(2) -0.5426(7)
H2L H 0.0737(2) 0.2903(2) -0.6351(7)
C10L C 0.2168(2) 0.2705(2) -0.0483(6)
C16L C 0.2422(2) 0.2450(2) -0.0056(6)
C17L C 0.2839(2) 0.2548(2) -0.0702(7)
C18L C 0.3062(2) 0.2306(2) -0.0276(7)
N4L N 0.2887(2) 0.1962(2) 0.0718(5)
Mn1D Mn 0.3334 0.1667 0.1666
C19L C 0.2494(2) 0.1874(2) 0.1309(7)
H11L H 0.2368(2) 0.1640(2) 0.2007(7)
H10L H 0.3349(2) 0.2384(2) -0.0699(7)
N4Q N 0.2408(3) 0.3779(2) -0.2616(5)
N4E N 0.0926(3) 0.2887(2) -0.0718(5)
C9L C 0.1414(2) 0.4104(2) -0.1582(6)
C8L C 0.1454(2) 0.4490(2) -0.0716(7)
C7L C 0.1703(2) 0.4504(2) 0.0440(7)
H3L H 0.1781(2) 0.4711(2) 0.1205(7)
H4L H 0.1333(2) 0.4687(2) -0.0920(7)
C11L C 0.2268(2) 0.4365(2) 0.2608(7)
C12L C 0.2101(3) 0.4213(2) 0.3967(7)
H5L H 0.1873(3) 0.3901(2) 0.4136(7)
C13L C 0.2276(3) 0.4531(3) 0.5067(8)
N3L N 0.2595(3) 0.4968(2) 0.4947(8)
C14L C 0.2760(3) 0.5113(3) 0.3650(10)
H7L H 0.2991(3) 0.5427(3) 0.3529(10)
C15L C 0.2615(3) 0.4834(3) 0.2492(9)
H8L H 0.2748(3) 0.4957(3) 0.1604(9)
H6L H 0.2157(3) 0.4423(3) 0.5977(8)
C20L C 0.1088(2) 0.4564(2) -0.4307(7)
H12L H 0.1369(2) 0.4644(2) -0.4772(7)
H9L H 0.0363(2) 0.3893(2) -0.1914(7)
O1 O -0.2390(3) 0.3894(3) 0.3563(10)
H13 H -0.2434 0.3788 0.4823
H14 H -0.2133 0.3966 0.2648
loop_
_geom_bond_atom_site_label_1
_geom_bond_atom_site_label_2
_geom_bond_site_symmetry_1
_geom_bond_site_symmetry_2
Mn1 N1 1_555 1_555
N1 C1 1_555 1_555
N2 Mn1 1_555 1_555
N3 C13 1_555 1_555
N4 C18 1_555 1_555
C1 C10 1_555 1_555
C2 H1 1_555 1_555
C3 C2 1_555 1_555
H2 C3 1_555 1_555
C4 C3 1_555 1_555
C5 C4 1_555 1_555
C6 N2 1_555 1_555
C7 H3 1_555 1_555
C8 C7 1_555 1_555
H4 C8 1_555 1_555
C9 C8 1_555 1_555
C10 C16 1_555 1_555
C11 C12 1_555 1_555
C12 H5 1_555 1_555
C13 C12 1_555 1_555
H6 C13 1_555 1_555
C14 N3 1_555 1_555
H7 C14 1_555 1_555
C15 C11 1_555 1_555
H8 C15 1_555 1_555
C16 C17 1_555 1_555
C17 C18 1_555 1_555
H9 C17L 1_555 1_555
C18 H10 1_555 1_555
C19 N4 1_555 1_555
H11 C19 1_555 1_555
C20 H12 1_555 1_555
O1 H13 1_555 1_555
H14 O1 1_555 1_555
Mn1P N4 1_555 1_555
N1L Mn1 1_555 1_555
C1L C2 1_555 1_555
N2L Mn1 1_555 1_555
C6L C7 1_555 1_555
C5L C11 1_555 1_555
C4L N1 1_555 1_555
C3L C4L 1_555 1_555
C2L C1 1_555 1_555
H1L C2L 1_555 1_555
H2L C3L 1_555 1_555
C10L C9 1_555 1_555
C16L C20 1_555 1_555
C17L C16L 1_555 1_555
C18L C17L 1_555 1_555
N4L C18L 1_555 1_555
Mn1D N4L 1_555 1_555
C19L C20 1_555 1_555
H11L C19L 1_555 1_555
H10L C18L 1_555 1_555
N4Q Mn1 1_555 1_555
N4E Mn1 1_555 1_555
C9L N2 1_555 1_555
C8L C9L 1_555 1_555
C7L C6 1_555 1_555
H3L C7L 1_555 1_555
H4L C8L 1_555 1_555
C11L C5 1_555 1_555
C12L C11L 1_555 1_555
H5L C12L 1_555 1_555
C13L C12L 1_555 1_555
N3L C13L 1_555 1_555
C14L N3L 1_555 1_555
H7L C14L 1_555 1_555
C15L C11L 1_555 1_555
H8L C15L 1_555 1_555
H6L C13L 1_555 1_555
C20L C16 1_555 1_555
H12L C20L 1_555 1_555
H9L C17 1_555 1_555
C4 N1L 1_555 1_555
C5 C6 1_555 1_555
C9 N2L 1_555 1_555
C10 C9L 1_555 1_555
C14 C15 1_555 1_555
C19 C20L 1_555 1_555
N1L C1L 1_555 1_555
C1L C10L 1_555 1_555
N2L C6L 1_555 1_555
C6L C5L 1_555 1_555
C5L C4L 1_555 1_555
C3L C2L 1_555 1_555
C10L C16L 1_555 1_555
N4L C19L 1_555 1_555
C8L C7L 1_555 1_555
C14L C15L 1_555 1_555

#END
