
#######################################################################
#
#                 Cambridge Crystallographic Data Centre
#                                CCDC 
#
#######################################################################
#
# If this CIF has been generated from an entry in the Cambridge 
# Structural Database, then it will include bibliographic, chemical, 
# crystal, experimental, refinement or atomic coordinate data resulting 
# from the CCDC's data processing and validation procedures.
#
#######################################################################

data_CAYYEG
_chemical_formula_moiety         '(C42 H32 Mn1 N8 O2)n'
_symmetry_cell_setting           rhombohedral
_symmetry_space_group_name_H-M   'R -3'
_symmetry_Int_Tables_number      148
_space_group_name_Hall           '-R 3'
loop_
_symmetry_equiv_pos_site_id
_symmetry_equiv_pos_as_xyz
1 x,y,z
2 -y,x-y,z
3 -x+y,-x,z
4 1/3+x,2/3+y,2/3+z
5 1/3-y,2/3+x-y,2/3+z
6 1/3-x+y,2/3-x,2/3+z
7 2/3+x,1/3+y,1/3+z
8 2/3-y,1/3+x-y,1/3+z
9 2/3-x+y,1/3-x,1/3+z
10 -x,-y,-z
11 y,-x+y,-z
12 x-y,x,-z
13 2/3-x,1/3-y,1/3-z
14 2/3+y,1/3-x+y,1/3-z
15 2/3+x-y,1/3+x,1/3-z
16 1/3-x,2/3-y,2/3-z
17 1/3+y,2/3-x+y,2/3-z
18 1/3+x-y,2/3+x,2/3-z
_cell_length_a                   33.3099(2)
_cell_length_b                   33.3099(2)
_cell_length_c                   9.3306(2)
_cell_angle_alpha                90
_cell_angle_beta                 90
_cell_angle_gamma                120
_cell_volume                     8965.75
loop_
_atom_site_label
_atom_site_type_symbol
_atom_site_fract_x
_atom_site_fract_y
_atom_site_fract_z
Mn1 Mn 0.3333 0.1666 0.1667
N1 N 0.33392(10) 0.13336(10) -0.0238(3)
N2 N 0.27406(10) 0.10706(10) 0.2394(3)
N3 N 0.4959(2) 0.2357(2) -0.4981(6)
N4 N 0.19982(12) -0.08885(12) -0.0746(4)
C1 C 0.30727(13) 0.08622(14) -0.0454(4)
C2 C 0.3426(2) 0.2594(2) 0.5030(5)
H1 H 0.3548(2) 0.2890(2) 0.5415(5)
C3 C 0.3058(2) 0.2203(2) 0.5542(5)
H2 H 0.2881(2) 0.2179(2) 0.6343(5)
C4 C 0.29919(13) 0.18285(13) 0.4608(4)
C5 C 0.26241(13) 0.13633(13) 0.4691(4)
C6 C 0.25167(12) 0.10114(13) 0.3673(4)
C7 C 0.4498(2) 0.2803(2) -0.0501(5)
H3 H 0.4701(2) 0.2934(2) -0.1268(5)
C8 C 0.4473(2) 0.3029(2) 0.0680(5)
H4 H 0.4656(2) 0.3343(2) 0.0872(5)
C9 C 0.41098(13) 0.26900(13) 0.1580(4)
C10 C 0.27104(13) 0.05517(13) 0.0447(4)
C11 C 0.43608(14) 0.20975(14) -0.2629(4)
C12 C 0.4211(2) 0.2091(2) -0.4011(5)
H5 H 0.3901(2) 0.1995(2) -0.4186(5)
C13 C 0.4518(2) 0.2225(2) -0.5124(6)
H6 H 0.4408(2) 0.2223(2) -0.6041(6)
C14 C 0.5105(2) 0.2361(2) -0.3676(7)
H7 H 0.5417(2) 0.2453(2) -0.3554(7)
C15 C 0.4826(2) 0.2237(2) -0.2457(6)
H8 H 0.4949(2) 0.2248(2) -0.1553(6)
C16 C 0.24664(14) 0.00522(14) 0.0011(4)
C17 C 0.2571(2) -0.0261(2) 0.0642(5)
H9 H 0.3865(2) 0.3494(2) 0.1998(5)
C18 C 0.2333(2) -0.0723(2) 0.0241(5)
H10 H 0.4257(2) 0.4259(2) 0.2653(5)
C19 C 0.4765(2) 0.3920(2) 0.4689(5)
H11 H 0.4996(2) 0.4030(2) 0.5384(5)
C20 C 0.4544(2) 0.3453(2) 0.4355(5)
H12 H 0.4626(2) 0.3258(2) 0.4820(5)
Mn1D Mn 0.1667 -0.1666 -0.1666
N1L N 0.33275(10) 0.19997(10) 0.3571(3)
C1L C 0.35940(13) 0.24711(14) 0.3787(4)
N2L N 0.39261(10) 0.22627(10) 0.0939(3)
C6L C 0.41500(12) 0.23219(13) -0.0340(4)
C5L C 0.40426(13) 0.19700(13) -0.1358(4)
C4L C 0.36748(13) 0.15048(13) -0.1275(4)
C3L C 0.3609(2) 0.1130(2) -0.2209(5)
C2L C 0.3241(2) 0.0739(2) -0.1697(5)
H1L H 0.3119(2) 0.0443(2) -0.2082(5)
H2L H 0.3786(2) 0.1154(2) -0.3010(5)
C10L C 0.39563(13) 0.27816(13) 0.2886(4)
C16L C 0.42003(14) 0.32811(14) 0.3322(4)
C17L C 0.4096(2) 0.3594(2) 0.2691(5)
C18L C 0.4334(2) 0.4056(2) 0.3092(5)
N4L N 0.46685(12) 0.42218(12) 0.4079(4)
Mn1G Mn 0.5001 0.5000 0.5000
N4K N 0.28867(17) 0.19982(12) 0.0746(4)
N4H N 0.37800(17) 0.13351(12) 0.2587(4)
C9L C 0.25569(13) 0.06433(13) 0.1753(4)
C8L C 0.2194(2) 0.0304(2) 0.2653(5)
C7L C 0.2169(2) 0.0530(2) 0.3834(5)
H3L H 0.1966(2) 0.0399(2) 0.4601(5)
H4L H 0.2011(2) -0.0010(2) 0.2461(5)
C11L C 0.23059(14) 0.12358(14) 0.5962(4)
C12L C 0.2456(2) 0.1242(2) 0.7344(5)
H5L H 0.2766(2) 0.1338(2) 0.7519(5)
C13L C 0.2149(2) 0.1108(2) 0.8457(6)
N3L N 0.1708(2) 0.0976(2) 0.8314(6)
C14L C 0.1562(2) 0.0972(2) 0.7009(7)
H7L H 0.1250(2) 0.0880(2) 0.6887(7)
C15L C 0.1841(2) 0.1096(2) 0.5790(6)
H8L H 0.1718(2) 0.1085(2) 0.4886(6)
H6L H 0.2259(2) 0.1110(2) 0.9374(6)
C20L C 0.2123(2) -0.0120(2) -0.1022(5)
H9L H 0.2802(2) -0.0161(2) 0.1335(5)
H10L H 0.2410(2) -0.0926(2) 0.0680(5)
C19L C 0.1902(2) -0.0587(2) -0.1356(5)
H11L H 0.1671(2) -0.0697(2) -0.2051(5)
H12L H 0.2041(2) 0.0075(2) -0.1487(5)
O1 O -0.2957(3) -0.5719(3) 0.3038(8)
H13 H -0.3213 -0.5544 0.3354
H14 H -0.2681 -0.5421 0.3760
O2 O -0.3084 -0.5376 0.0532
H15 H -0.2880(93) -0.5133(5) 0.0180
C21 C -0.3036 -0.5755 0.0021
H16 H -0.2700 -0.5598 0.006(12)
H17 H -0.3132 -0.5936 0.090(12)
C22 C -0.3096 -0.6109 -0.0877
H18 H -0.2934 -0.6255 -0.050(12)
H19 H -0.2977 -0.5985 -0.181(12)
H20 H -0.3421 -0.6332 -0.095(12)
loop_
_geom_bond_atom_site_label_1
_geom_bond_atom_site_label_2
_geom_bond_site_symmetry_1
_geom_bond_site_symmetry_2
Mn1 N1 1_555 1_555
N1 C1 1_555 1_555
N2 Mn1 1_555 1_555
N3 C13 1_555 1_555
N4 C18 1_555 1_555
C1 C10 1_555 1_555
C2 H1 1_555 1_555
C3 C2 1_555 1_555
H2 C3 1_555 1_555
C4 C3 1_555 1_555
C5 C4 1_555 1_555
C6 N2 1_555 1_555
C7 H3 1_555 1_555
C8 C7 1_555 1_555
H4 C8 1_555 1_555
C9 C8 1_555 1_555
C10 C16 1_555 1_555
C11 C12 1_555 1_555
C12 H5 1_555 1_555
C13 C12 1_555 1_555
H6 C13 1_555 1_555
C14 N3 1_555 1_555
H7 C14 1_555 1_555
C15 C11 1_555 1_555
H8 C15 1_555 1_555
C16 C17 1_555 1_555
C17 C18 1_555 1_555
H9 C17L 1_555 1_555
C18 H10L 1_555 1_555
H10 C18L 1_555 1_555
C19 H11 1_555 1_555
C20 C19 1_555 1_555
H12 C20 1_555 1_555
O1 H13 1_555 1_555
H14 O1 1_555 1_555
O2 H15 1_555 1_555
C21 O2 1_555 1_555
H16 C21 1_555 1_555
H17 C21 1_555 1_555
C22 C21 1_555 1_555
H18 C22 1_555 1_555
H19 C22 1_555 1_555
H20 C22 1_555 1_555
Mn1D N4 1_555 1_555
N1L Mn1 1_555 1_555
C1L C2 1_555 1_555
N2L Mn1 1_555 1_555
C6L C7 1_555 1_555
C5L C11 1_555 1_555
C4L N1 1_555 1_555
C3L C4L 1_555 1_555
C2L C1 1_555 1_555
H1L C2L 1_555 1_555
H2L C3L 1_555 1_555
C10L C9 1_555 1_555
C16L C20 1_555 1_555
C17L C16L 1_555 1_555
C18L C17L 1_555 1_555
N4L C19 1_555 1_555
Mn1G N4L 1_555 1_555
N4K Mn1 1_555 1_555
N4H Mn1 1_555 1_555
C9L N2 1_555 1_555
C8L C9L 1_555 1_555
C7L C6 1_555 1_555
H3L C7L 1_555 1_555
H4L C8L 1_555 1_555
C11L C5 1_555 1_555
C12L C11L 1_555 1_555
H5L C12L 1_555 1_555
C13L C12L 1_555 1_555
N3L C13L 1_555 1_555
C14L N3L 1_555 1_555
H7L C14L 1_555 1_555
C15L C11L 1_555 1_555
H8L C15L 1_555 1_555
H6L C13L 1_555 1_555
C20L C16 1_555 1_555
H9L C17 1_555 1_555
C19L N4 1_555 1_555
H11L C19L 1_555 1_555
H12L C20L 1_555 1_555
C4 N1L 1_555 1_555
C5 C6 1_555 1_555
C9 N2L 1_555 1_555
C10 C9L 1_555 1_555
C14 C15 1_555 1_555
N1L C1L 1_555 1_555
C1L C10L 1_555 1_555
N2L C6L 1_555 1_555
C6L C5L 1_555 1_555
C5L C4L 1_555 1_555
C3L C2L 1_555 1_555
C10L C16L 1_555 1_555
C18L N4L 1_555 1_555
C8L C7L 1_555 1_555
C14L C15L 1_555 1_555
C20L C19L 1_555 1_555

#END
