
#######################################################################
#
#                 Cambridge Crystallographic Data Centre
#                                CCDC 
#
#######################################################################
#
# If this CIF has been generated from an entry in the Cambridge 
# Structural Database, then it will include bibliographic, chemical, 
# crystal, experimental, refinement or atomic coordinate data resulting 
# from the CCDC's data processing and validation procedures.
#
#######################################################################

data_KUTHOY
_chemical_formula_moiety         '(C42 H42 N2 O14 Pb2)n'
_symmetry_cell_setting           monoclinic
_symmetry_space_group_name_H-M   'P 21/c'
_symmetry_Int_Tables_number      14
_space_group_name_Hall           '-P 2ybc'
loop_
_symmetry_equiv_pos_site_id
_symmetry_equiv_pos_as_xyz
1 x,y,z
2 -x,1/2+y,1/2-z
3 -x,-y,-z
4 x,1/2-y,1/2+z
_cell_length_a                   10.2394(3)
_cell_length_b                   37.7863(10)
_cell_length_c                   10.0731(3)
_cell_angle_alpha                90
_cell_angle_beta                 97.1440(10)
_cell_angle_gamma                90
_cell_volume                     3867.12
loop_
_atom_site_label
_atom_site_type_symbol
_atom_site_fract_x
_atom_site_fract_y
_atom_site_fract_z
Pb1 Pb 0.751791(15) 0.530781(5) 0.994235(19)
Pb2 Pb 0.732030(16) 0.717134(4) 0.975752(17)
O1 O 0.9784(3) 0.59461(8) 1.0990(3)
O2 O 1.1936(3) 0.52076(9) 1.1176(4)
O3 O 0.9753(3) 0.52210(9) 1.1212(4)
O4 O 0.8236(3) 0.65808(8) 0.7728(3)
O5 O 0.8401(3) 0.73080(8) 0.5500(3)
O6 O 0.8375(3) 0.73138(8) 0.7720(3)
O7 O 0.5303(3) 0.58628(8) 0.8874(3)
O8 O 0.3129(3) 0.51300(9) 0.8644(4)
O9 O 0.5321(3) 0.51395(9) 0.8702(4)
O10 O 0.6721(3) 0.66390(8) 1.1886(3)
O11 O 0.5925(3) 0.73967(8) 1.3733(3)
O12 O 0.5915(3) 0.73240(8) 1.1527(3)
C1 C 0.9954(4) 0.63136(11) 1.1049(5)
C2 C 0.9617(4) 0.64882(12) 1.2185(5)
C3 C 0.9812(5) 0.68531(12) 1.2279(6)
H1 H 0.9588 0.6977 1.3040
C4 C 1.0325(5) 0.70363(13) 1.1282(6)
H2 H 1.0488 0.7283 1.1376
C5 C 1.0603(4) 0.68616(12) 1.0140(5)
H3 H 1.0918 0.6992 0.9440
C6 C 1.0426(4) 0.64969(12) 1.0005(5)
C7 C 0.8422(5) 0.62181(11) 0.7602(5)
C8 C 0.9657(5) 0.60798(12) 0.8073(5)
C9 C 0.9869(5) 0.57197(12) 0.7917(5)
H4 H 1.0703 0.5621 0.8237
C10 C 0.8900(6) 0.55046(13) 0.7310(5)
H5 H 0.9069 0.5260 0.7193
C11 C 0.7666(5) 0.56440(12) 0.6865(5)
H6 H 0.6989 0.5492 0.6467
C12 C 0.7407(5) 0.60050(12) 0.6995(5)
C13 C 0.5104(4) 0.62278(11) 0.8660(5)
C14 C 0.5407(4) 0.63689(12) 0.7460(5)
C15 C 0.5069(5) 0.67184(12) 0.7164(6)
H7 H 0.5254 0.6819 0.6343
C16 C 0.4471(5) 0.69205(13) 0.8043(6)
H8 H 0.4203 0.7156 0.7814
C17 C 0.4261(5) 0.67803(13) 0.9264(6)
H9 H 0.3884 0.6926 0.9882
C18 C 0.4582(4) 0.64338(12) 0.9618(5)
C19 C 0.6666(5) 0.62769(12) 1.2163(5)
C20 C 0.5496(5) 0.61011(13) 1.1737(5)
C21 C 0.5383(6) 0.57478(14) 1.2084(6)
H10 H 0.4585 0.5624 1.1817
C22 C 0.6415(7) 0.55760(14) 1.2807(6)
H11 H 0.6323 0.5336 1.3058
C23 C 0.7582(6) 0.57503(14) 1.3171(6)
H12 H 0.8294 0.5625 1.3653
C24 C 0.7754(5) 0.61060(12) 1.2854(5)
C25 C 1.0730(5) 0.63179(13) 0.8732(5)
H13 H 1.0911 0.6503 0.8084
H14 H 1.1543 0.6176 0.8940
C26 C 0.6054(5) 0.61417(13) 0.6485(5)
H15 H 0.5475 0.5937 0.6229
H16 H 0.6116 0.6282 0.5665
C27 C 0.4356(5) 0.62958(14) 1.0972(6)
H17 H 0.3587 0.6135 1.0854
H18 H 0.4124 0.6498 1.1522
C28 C 0.9054(5) 0.62864(14) 1.3268(5)
H19 H 0.8944 0.6452 1.4007
H20 H 0.9701 0.6105 1.3624
C29 C 1.1000(4) 0.57613(12) 1.1311(6)
H21 H 1.1378 0.5823 1.2235
H22 H 1.1628 0.5841 1.0700
C30 C 1.0844(5) 0.53626(13) 1.1202(5)
C31 C 0.8415(5) 0.67616(12) 0.6512(5)
H23 H 0.7715 0.6687 0.5801
H24 H 0.9271 0.6690 0.6234
C32 C 0.8382(4) 0.71635(12) 0.6638(5)
C33 C 0.4081(5) 0.56807(13) 0.8609(6)
H25 H 0.3655 0.5748 0.7707
H26 H 0.3495 0.5756 0.9267
C34 C 0.4233(5) 0.52854(12) 0.8674(5)
C35 C 0.6606(5) 0.68507(12) 1.3042(5)
H27 H 0.7478 0.6866 1.3587
H28 H 0.5995 0.6733 1.3591
C36 C 0.6114(4) 0.72182(12) 1.2706(5)
Pb1B Pb 0.248209(15) 0.469219(5) 1.005765(19)
Pb1B_2 Pb 1.248209(15) 0.469219(5) 1.005765(19)
Pb2C Pb 0.732030(16) 0.782866(4) 0.475752(17)
Pb2C_2 Pb 0.732030(16) 0.782866(4) 1.475752(17)
O2B O 0.8064(3) 0.47924(9) 0.8824(4)
O5C O 0.8401(3) 0.76920(8) 1.0500(3)
O8B O 0.6871(3) 0.48700(9) 1.1356(4)
O11C O 0.5925(3) 0.76033(8) 0.8733(3)
N1 N 0.2487(4) 0.70177(14) 0.4831(5)
O13 O 0.1405(5) 0.70618(15) 0.6689(6)
C37 C 0.1811(6) 0.68866(17) 0.5764(7)
H29 H 0.1621 0.6640 0.5728
C38 C 0.2852(8) 0.73876(18) 0.4836(9)
H30 H 0.2460 0.7511 0.5545
H31 H 0.2530 0.7493 0.3969
H32 H 0.3812 0.7409 0.4997
C39 C 0.2989(6) 0.67951(19) 0.3859(7)
H33 H 0.2675 0.6552 0.3953
H34 H 0.3953 0.6798 0.4001
H35 H 0.2681 0.6883 0.2958
N2 N 0.2531(7) 0.54731(19) 0.4972(6)
O15 O 0.1774(11) 0.6017(4) 0.5161(14)
C40 C 0.2714(14) 0.5827(5) 0.484(2)
H37 H 0.3480 0.5925 0.4542
C41 C 0.1473(9) 0.5257(3) 0.5328(10)
H38 H 0.1746 0.5008 0.5362
H39 H 0.0700 0.5286 0.4659
H40 H 0.1252 0.5329 0.6208
C42 C 0.3659(9) 0.5294(2) 0.4637(10)
H41 H 0.3551 0.5038 0.4759
H42 H 0.4438 0.5376 0.5219
H43 H 0.3769 0.5342 0.3702
loop_
_geom_bond_atom_site_label_1
_geom_bond_atom_site_label_2
_geom_bond_site_symmetry_1
_geom_bond_site_symmetry_2
Pb1 O3 1_555 1_555
Pb2 O6 1_555 1_555
O1 C1 1_555 1_555
O2 C30 1_555 1_555
O3 C30 1_555 1_555
O4 C7 1_555 1_555
O5 C32 1_555 1_555
O6 C32 1_555 1_555
O7 C13 1_555 1_555
O8 C34 1_555 1_555
O9 Pb1 1_555 1_555
O10 C19 1_555 1_555
O11 C36 1_555 1_555
O12 Pb2 1_555 1_555
C1 C2 1_555 1_555
C2 C3 1_555 1_555
C3 H1 1_555 1_555
C4 C3 1_555 1_555
H2 C4 1_555 1_555
C5 C4 1_555 1_555
H3 C5 1_555 1_555
C6 C1 1_555 1_555
C7 C8 1_555 1_555
C8 C9 1_555 1_555
C9 H4 1_555 1_555
C10 C9 1_555 1_555
H5 C10 1_555 1_555
C11 C10 1_555 1_555
H6 C11 1_555 1_555
C12 C7 1_555 1_555
C13 C14 1_555 1_555
C14 C15 1_555 1_555
C15 H7 1_555 1_555
C16 C15 1_555 1_555
H8 C16 1_555 1_555
C17 C16 1_555 1_555
H9 C17 1_555 1_555
C18 C13 1_555 1_555
C19 C20 1_555 1_555
C20 C21 1_555 1_555
C21 H10 1_555 1_555
C22 C21 1_555 1_555
H11 C22 1_555 1_555
C23 C22 1_555 1_555
H12 C23 1_555 1_555
C24 C19 1_555 1_555
C25 C6 1_555 1_555
H13 C25 1_555 1_555
H14 C25 1_555 1_555
C26 C12 1_555 1_555
H15 C26 1_555 1_555
H16 C26 1_555 1_555
C27 C18 1_555 1_555
H17 C27 1_555 1_555
H18 C27 1_555 1_555
C28 C2 1_555 1_555
H19 C28 1_555 1_555
H20 C28 1_555 1_555
C29 O1 1_555 1_555
H21 C29 1_555 1_555
H22 C29 1_555 1_555
C30 C29 1_555 1_555
C31 O4 1_555 1_555
H23 C31 1_555 1_555
H24 C31 1_555 1_555
C32 C31 1_555 1_555
C33 O7 1_555 1_555
H25 C33 1_555 1_555
H26 C33 1_555 1_555
C34 O9 1_555 1_555
C35 O10 1_555 1_555
H27 C35 1_555 1_555
H28 C35 1_555 1_555
C36 O12 1_555 1_555
N1 C37 1_555 1_555
O13 C37 1_555 1_555
C37 H29 1_555 1_555
C38 N1 1_555 1_555
H30 C38 1_555 1_555
H31 C38 1_555 1_555
H32 C38 1_555 1_555
C39 N1 1_555 1_555
H33 C39 1_555 1_555
H34 C39 1_555 1_555
H35 C39 1_555 1_555
N2 C40 1_555 1_555
O15 C40 1_555 1_555
C40 H37 1_555 1_555
C41 N2 1_555 1_555
H38 C41 1_555 1_555
H39 C41 1_555 1_555
H40 C41 1_555 1_555
C42 N2 1_555 1_555
H41 C42 1_555 1_555
H42 C42 1_555 1_555
H43 C42 1_555 1_555
Pb1B O8 1_555 1_555
Pb1B_2 O2 1_555 1_555
Pb2C O5 1_555 1_555
Pb2C_2 O11 1_555 1_555
O2B Pb1 1_555 1_555
O5C Pb2 1_555 1_555
O8B Pb1 1_555 1_555
O11C Pb2 1_555 1_555
C5 C6 1_555 1_555
C8 C25 1_555 1_555
C11 C12 1_555 1_555
C14 C26 1_555 1_555
C17 C18 1_555 1_555
C20 C27 1_555 1_555
C23 C24 1_555 1_555
C24 C28 1_555 1_555
C33 C34 1_555 1_555
C35 C36 1_555 1_555

#END
