
#######################################################################
#
#                 Cambridge Crystallographic Data Centre
#                                CCDC 
#
#######################################################################
#
# If this CIF has been generated from an entry in the Cambridge 
# Structural Database, then it will include bibliographic, chemical, 
# crystal, experimental, refinement or atomic coordinate data resulting 
# from the CCDC's data processing and validation procedures.
#
#######################################################################

data_TOLGOR
_chemical_formula_moiety         '(C44 H56 Cd2 N8 O15)n'
_symmetry_cell_setting           monoclinic
_symmetry_space_group_name_H-M   'P 21/c'
_symmetry_Int_Tables_number      14
_space_group_name_Hall           '-P 2ybc'
loop_
_symmetry_equiv_pos_site_id
_symmetry_equiv_pos_as_xyz
1 x,y,z
2 -x,1/2+y,1/2-z
3 -x,-y,-z
4 x,1/2-y,1/2+z
_cell_length_a                   16.893(14)
_cell_length_b                   16.155(13)
_cell_length_c                   20.514(17)
_cell_angle_alpha                90
_cell_angle_beta                 110.628(8)
_cell_angle_gamma                90
_cell_volume                     5239.47
loop_
_atom_site_label
_atom_site_type_symbol
_atom_site_fract_x
_atom_site_fract_y
_atom_site_fract_z
Cd1 Cd 0.25336(8) -0.08208(8) 0.25552(8)
Cd2 Cd 0.17751(8) -0.01491(9) 0.06599(9)
O1 O 0.0867(10) -0.2088(10) 0.1677(9)
O2 O 0.1544(10) -0.1637(10) 0.2754(9)
O3 O -0.1548(10) -0.4764(11) 0.2841(9)
O4 O -0.0922(7) -0.4368(8) 0.3931(7)
O5 O 0.2995(10) 0.0491(10) 0.1228(10)
O6 O 0.3476(9) -0.0022(10) 0.2307(9)
O7 O 0.6769(11) 0.2764(13) 0.3297(11)
O8 O 0.6527(9) 0.3119(9) 0.2168(11)
O9 O 0.0524(8) -0.0905(9) 0.0103(8)
O10 O 0.1991(7) -0.1244(8) 0.1419(7)
H1 H 0.1459 -0.1527 0.1338
H2 H 0.2379 -0.1634 0.1331
O11 O 0.2453(12) -0.1017(11) 0.0059(11)
N1 N 0.2789(9) -0.0218(10) 0.3624(9)
N2 N 0.2597(15) 0.2130(12) 0.6073(15)
N3 N 0.3389(14) 0.1860(12) 0.6461(13)
N4 N 0.1184(19) 0.1614(16) 0.6506(17)
N5 N 0.1802(15) 0.2154(14) 0.6819(16)
N6 N 0.1633(11) 0.0611(12) 0.9654(10)
N7 N 0.2856(15) -0.2131(16) -0.0364(12)
C1 C 0.2185(12) -0.0156(14) 0.3860(12)
H3 H 0.1694 -0.0460 0.3647
C2 C 0.2232(15) 0.0347(17) 0.4421(13)
H4 H 0.1772 0.0359 0.4571
C3 C 0.2907(13) 0.0817(13) 0.4757(12)
C4 C 0.3552(15) 0.0723(17) 0.4507(12)
H5 H 0.4057 0.1000 0.4732
C5 C 0.3494(12) 0.0255(15) 0.3957(12)
H6 H 0.3943 0.0247 0.3794
C6 C 0.2949(13) 0.1326(13) 0.5338(14)
C7 C 0.2318(15) 0.1840(15) 0.5405(16)
C8 C 0.1473(18) 0.207(2) 0.4886(15)
H7 H 0.1041 0.1746 0.4966
H8 H 0.1469 0.1970 0.4424
H9 H 0.1368 0.2648 0.4935
C9 C 0.3572(15) 0.1387(14) 0.6014(13)
C10 C 0.4461(15) 0.0936(19) 0.6264(18)
H10 H 0.4769 0.1077 0.6741
H11 H 0.4776 0.1110 0.5979
H12 H 0.4377 0.0348 0.6224
C11 C 0.212(2) 0.2666(16) 0.637(2)
H13 H 0.1647 0.2915 0.6002
H14 H 0.2475 0.3105 0.6640
C12 C 0.2063(15) 0.2130(14) 0.752(2)
C13 C 0.2675(19) 0.2711(18) 0.8032(19)
H15 H 0.3201 0.2714 0.7952
H16 H 0.2769 0.2529 0.8499
H17 H 0.2442 0.3260 0.7969
C14 C 0.1580(15) 0.1507(15) 0.7707(17)
C15 C 0.1044(18) 0.1216(19) 0.7005(14)
C16 C 0.032(2) 0.057(2) 0.6893(18)
H18 H -0.0133 0.0812 0.7007
H19 H 0.0536 0.0095 0.7189
H20 H 0.0111 0.0390 0.6415
C17 C 0.1605(14) 0.1234(16) 0.8351(19)
C18 C 0.2348(17) 0.1203(18) 0.8956(17)
H21 H 0.2848 0.1420 0.8934
C19 C 0.2355(16) 0.0863(17) 0.958(2)
H22 H 0.2865 0.0809 0.9948
C20 C 0.0940(14) 0.0742(18) 0.9114(15)
H23 H 0.0434 0.0668 0.9191
C21 C 0.0866(17) 0.0980(16) 0.8439(14)
H24 H 0.0351 0.0968 0.8071
C22 C 0.1013(11) -0.2076(11) 0.2313(11)
C23 C 0.0501(12) -0.2668(11) 0.2588(12)
C24 C -0.0081(13) -0.3204(13) 0.2135(11)
H25 H -0.0138 -0.3214 0.1667
C25 C -0.0574(13) -0.3719(14) 0.2368(13)
H26 H -0.0981 -0.4048 0.2050
C26 C -0.0475(11) -0.3757(12) 0.3068(11)
C27 C 0.012(2) -0.326(2) 0.3513(19)
H27 H 0.0228 -0.3300 0.3988
C28 C 0.0562(18) -0.2696(18) 0.3285(14)
H28 H 0.0913 -0.2321 0.3600
C29 C -0.0999(11) -0.4363(11) 0.3304(14)
C30 C 0.3499(13) 0.0441(12) 0.1847(16)
C31 C 0.4294(13) 0.1003(13) 0.2045(16)
C32 C 0.4809(15) 0.1103(15) 0.2710(15)
H29 H 0.4690 0.0801 0.3050
C33 C 0.5502(16) 0.1621(17) 0.2925(16)
H30 H 0.5842 0.1679 0.3390
C34 C 0.5661(12) 0.2077(12) 0.2360(15)
C35 C 0.6399(14) 0.2699(13) 0.2614(13)
C36 C 0.5166(12) 0.1988(15) 0.1713(13)
H31 H 0.5270 0.2298 0.1370
C37 C 0.4490(13) 0.1448(14) 0.1524(13)
H32 H 0.4164 0.1374 0.1056
C38 C 0.260(2) -0.168(2) 0.004(2)
H33 H 0.2513 -0.1987 0.0391
C39 C 0.299(3) -0.173(3) -0.0889(19)
H34 H 0.2935 -0.1142 -0.0832
H35 H 0.2576 -0.1901 -0.1324
H36 H 0.3545 -0.1850 -0.0886
C40 C 0.293(4) -0.297(3) -0.040(3)
H37 H 0.3470 -0.3109 -0.0420
H38 H 0.2491 -0.3175 -0.0812
H39 H 0.2865 -0.3223 0.0003
Cd1A Cd -0.25336(8) -0.58208(8) 0.24448(8)
Cd1A_2 Cd 0.74664(8) 0.41792(8) 0.24448(8)
Cd2A Cd -0.17751(8) -0.51491(9) 0.43401(9)
Cd2_2 Cd 0.17751(8) -0.01491(9) 1.06599(9)
O3A O 0.1548(10) 0.0236(11) 0.2159(9)
O4A O 0.0922(7) 0.0632(8) 0.1069(7)
O8A O 0.3473(9) -0.1881(9) 0.2832(11)
N6_2 N 0.1633(11) 0.0611(12) -0.0346(10)
N8 N 0.783(2) 0.0652(19) 0.3350(17)
O12 O 0.846(4) 0.101(4) 0.442(3)
C41 C 0.837(3) 0.121(3) 0.3873(18)
H40 H 0.8614 0.1678 0.3766
C42 C 0.744(4) -0.005(3) 0.356(3)
H41 H 0.7008 0.0140 0.3720
H42 H 0.7864 -0.0346 0.3921
H43 H 0.7199 -0.0409 0.3163
C43 C 0.763(3) 0.084(3) 0.2619(16)
H44 H 0.8144 0.0922 0.2529
H45 H 0.7289 0.1327 0.2500
H46 H 0.7323 0.0381 0.2344
O13 O 0.0567(19) 0.7390(17) 0.012(2)
O14 O 0.489(2) 0.151(6) 0.912(2)
C44 C 0.490(5) 0.118(4) 0.846(4)
O15 O 0.463(3) 0.223(4) 0.970(2)
loop_
_geom_bond_atom_site_label_1
_geom_bond_atom_site_label_2
_geom_bond_site_symmetry_1
_geom_bond_site_symmetry_2
Cd1 O2 1_555 1_555
Cd2 O5 1_555 1_555
O1 C22 1_555 1_555
O2 C22 1_555 1_555
O3 C29 1_555 1_555
O4 C29 1_555 1_555
O5 C30 1_555 1_555
O6 Cd1 1_555 1_555
O7 C35 1_555 1_555
O8 C35 1_555 1_555
O9 Cd2 1_555 1_555
O10 Cd1 1_555 1_555
H1 O10 1_555 1_555
H2 O10 1_555 1_555
O11 Cd2 1_555 1_555
N1 Cd1 1_555 1_555
N2 N3 1_555 1_555
N3 C9 1_555 1_555
N4 N5 1_555 1_555
N5 C11 1_555 1_555
N6 C19 1_555 1_555
N7 C38 1_555 1_555
N8 C41 1_555 1_555
C1 N1 1_555 1_555
H3 C1 1_555 1_555
C2 C1 1_555 1_555
H4 C2 1_555 1_555
C3 C2 1_555 1_555
C4 C3 1_555 1_555
H5 C4 1_555 1_555
C5 N1 1_555 1_555
H6 C5 1_555 1_555
C6 C3 1_555 1_555
C7 N2 1_555 1_555
C8 C7 1_555 1_555
H7 C8 1_555 1_555
H8 C8 1_555 1_555
H9 C8 1_555 1_555
C9 C6 1_555 1_555
C10 C9 1_555 1_555
H10 C10 1_555 1_555
H11 C10 1_555 1_555
H12 C10 1_555 1_555
C11 N2 1_555 1_555
H13 C11 1_555 1_555
H14 C11 1_555 1_555
C12 N5 1_555 1_555
C13 C12 1_555 1_555
H15 C13 1_555 1_555
H16 C13 1_555 1_555
H17 C13 1_555 1_555
C14 C12 1_555 1_555
C15 N4 1_555 1_555
C16 C15 1_555 1_555
H18 C16 1_555 1_555
H19 C16 1_555 1_555
H20 C16 1_555 1_555
C17 C14 1_555 1_555
C18 C17 1_555 1_555
H21 C18 1_555 1_555
C19 C18 1_555 1_555
H22 C19 1_555 1_555
C20 N6 1_555 1_555
H23 C20 1_555 1_555
C21 C17 1_555 1_555
H24 C21 1_555 1_555
C22 C23 1_555 1_555
C23 C24 1_555 1_555
C24 H25 1_555 1_555
C25 C24 1_555 1_555
H26 C25 1_555 1_555
C26 C25 1_555 1_555
C27 C26 1_555 1_555
H27 C27 1_555 1_555
C28 C23 1_555 1_555
H28 C28 1_555 1_555
C29 C26 1_555 1_555
C30 O6 1_555 1_555
C31 C30 1_555 1_555
C32 C31 1_555 1_555
H29 C32 1_555 1_555
C33 C32 1_555 1_555
H30 C33 1_555 1_555
C34 C33 1_555 1_555
C35 C34 1_555 1_555
C36 C34 1_555 1_555
H31 C36 1_555 1_555
C37 C31 1_555 1_555
H32 C37 1_555 1_555
C38 O11 1_555 1_555
H33 C38 1_555 1_555
C39 N7 1_555 1_555
H34 C39 1_555 1_555
H35 C39 1_555 1_555
H36 C39 1_555 1_555
C40 N7 1_555 1_555
H37 C40 1_555 1_555
H38 C40 1_555 1_555
H39 C40 1_555 1_555
O12 C41 1_555 1_555
C41 H40 1_555 1_555
C42 N8 1_555 1_555
H41 C42 1_555 1_555
H42 C42 1_555 1_555
H43 C42 1_555 1_555
C43 N8 1_555 1_555
H44 C43 1_555 1_555
H45 C43 1_555 1_555
H46 C43 1_555 1_555
O14 C44 1_555 1_555
Cd1A O3 1_555 1_555
Cd1A_2 O8 1_555 1_555
Cd2A O4 1_555 1_555
Cd2_2 N6 1_555 1_555
O3A Cd1 1_555 1_555
O4A Cd2 1_555 1_555
O8A Cd1 1_555 1_555
N6_2 Cd2 1_555 1_555
Cd2 O10 1_555 1_555
C4 C5 1_555 1_555
C6 C7 1_555 1_555
C14 C15 1_555 1_555
C20 C21 1_555 1_555
C27 C28 1_555 1_555
C36 C37 1_555 1_555

#END
