
#######################################################################
#
#                 Cambridge Crystallographic Data Centre
#                                CCDC 
#
#######################################################################
#
# If this CIF has been generated from an entry in the Cambridge 
# Structural Database, then it will include bibliographic, chemical, 
# crystal, experimental, refinement or atomic coordinate data resulting 
# from the CCDC's data processing and validation procedures.
#
#######################################################################

data_EJESUJ
_chemical_formula_moiety         'C54 Eu8 N12 Na3 O44'
_symmetry_cell_setting           monoclinic
_symmetry_space_group_name_H-M   'C 2/c'
_symmetry_Int_Tables_number      15
_space_group_name_Hall           '-C 2yc'
loop_
_symmetry_equiv_pos_site_id
_symmetry_equiv_pos_as_xyz
1 x,y,z
2 -x,y,1/2-z
3 1/2+x,1/2+y,z
4 1/2-x,1/2+y,1/2-z
5 -x,-y,-z
6 x,-y,1/2+z
7 1/2-x,1/2-y,-z
8 1/2+x,1/2-y,1/2+z
_cell_length_a                   24.3176(16)
_cell_length_b                   23.9869(18)
_cell_length_c                   31.166(2)
_cell_angle_alpha                90
_cell_angle_beta                 104.7100(10)
_cell_angle_gamma                90
_cell_volume                     17583.4
loop_
_atom_site_label
_atom_site_type_symbol
_atom_site_fract_x
_atom_site_fract_y
_atom_site_fract_z
C1 C 0.3776(5) -0.3897(5) 1.5264(3)
C2 C 0.3780(4) -0.3936(4) 1.4793(3)
C3 C 0.3438(5) -0.3590(5) 1.4487(3)
C4 C 0.3417(5) -0.3643(5) 1.4029(3)
C5 C 0.3766(5) -0.4050(5) 1.3888(3)
C6 C 0.4104(4) -0.4396(4) 1.4215(3)
C7 C 0.4121(4) -0.4331(4) 1.4665(3)
C8 C 0.4462(3) -0.4831(3) 1.4073(2)
C9 C 0.2962(5) -0.3212(5) 1.3294(3)
C10 C 0.2478(5) -0.2773(6) 1.2683(5)
C11 C 0.3179(7) -0.3363(7) 1.2655(4)
C12 C 0.1742(6) -0.2033(6) 1.2591(3)
C13 C 0.1373(5) -0.1717(4) 1.2223(3)
C14 C 0.0976(4) -0.1356(5) 1.2306(3)
C15 C 0.0931(4) -0.1273(4) 1.2756(3)
C16 C 0.1266(5) -0.1590(5) 1.3088(3)
C17 C 0.1673(6) -0.1971(5) 1.3028(3)
C18 C 0.1186(4) -0.1527(4) 1.3542(3)
C19 C 0.0614(4) -0.1048(4) 1.1947(3)
C20 C 0.3455(5) -0.3723(5) 1.1974(4)
C21 C 0.3747(5) -0.4165(5) 1.1856(3)
C22 C 0.3814(5) -0.4204(5) 1.1432(3)
C23 C 0.3577(6) -0.3803(7) 1.1127(4)
C24 C 0.3240(7) -0.3426(6) 1.1216(5)
C25 C 0.3183(6) -0.3360(6) 1.1669(5)
C26 C 0.3117(11) -0.2895(11) 1.0972(9)
C27 C 0.4145(4) -0.4708(4) 1.1335(3)
N1 N 0.3280(5) -0.3510(4) 1.3075(2)
N2 N 0.2784(5) -0.3007(5) 1.2432(3)
N3 N 0.2570(4) -0.2817(5) 1.3124(2)
N4 N 0.3425(6) -0.3738(6) 1.2416(3)
N5 N 0.2154(4) -0.2335(4) 1.2463(3)
N6 N 0.3051(4) -0.3255(5) 1.3745(2)
O1 O 0.3489(4) -0.3492(4) 1.5363(2)
O2 O 0.2993(13) -0.2320(13) 1.1051(10)
O3 O 0.4007(3) -0.4247(3) 1.55307(19)
O4 O 0.4735(2) -0.5167(3) 1.43496(18)
O5 O 0.4484(3) -0.4849(3) 1.3677(2)
O6 O 0.1551(3) -0.1693(3) 1.3857(3)
O7 O 0.0736(3) -0.1321(3) 1.3582(2)
O8 O 0.0263(2) -0.0696(2) 1.20071(19)
O9 O 0.0657(3) -0.1142(3) 1.1558(2)
O10 O 0.4256(3) -0.4722(3) 1.0966(2)
O11 O 0.4311(3) -0.5061(3) 1.1613(2)
O12 O 0.4975(4) -0.3589(4) 1.5711(3)
Eu1 Eu 0.480015(16) -0.438590(15) 1.617302(11)
O13 O 0.3416(19) -0.2812(19) 1.0670(15)
O14 O 0.0481(4) 0.0642(4) 1.2142(4)
Na1 Na 0.0000 -0.0046(2) 1.2500
C1A C -0.3776(5) -0.3897(5) 0.9736(3)
C2A C -0.3780(4) -0.3936(4) 1.0207(3)
C3A C -0.3438(5) -0.3590(5) 1.0513(3)
C4A C -0.3417(5) -0.3643(5) 1.0971(3)
C5A C -0.3766(5) -0.4050(5) 1.1112(3)
C6A C -0.4104(4) -0.4396(4) 1.0785(3)
C7A C -0.4121(4) -0.4331(4) 1.0335(3)
C8A C -0.4462(3) -0.4831(3) 1.0927(2)
C9A C -0.2962(5) -0.3212(5) 1.1706(3)
C10A C -0.2478(5) -0.2773(6) 1.2317(5)
C11A C -0.3179(7) -0.3363(7) 1.2345(4)
C12A C -0.1742(6) -0.2033(6) 1.2409(3)
C13A C -0.1373(5) -0.1717(4) 1.2777(3)
C14A C -0.0976(4) -0.1356(5) 1.2694(3)
C15A C -0.0931(4) -0.1273(4) 1.2244(3)
C16A C -0.1266(5) -0.1590(5) 1.1912(3)
C17A C -0.1673(6) -0.1971(5) 1.1972(3)
C18A C -0.1186(4) -0.1527(4) 1.1458(3)
C19A C -0.0614(4) -0.1048(4) 1.3053(3)
C20A C -0.3455(5) -0.3723(5) 1.3026(4)
C21A C -0.3747(5) -0.4165(5) 1.3144(3)
C22A C -0.3814(5) -0.4204(5) 1.3568(3)
C23A C -0.3577(6) -0.3803(7) 1.3873(4)
C24A C -0.3240(7) -0.3426(6) 1.3784(5)
C25A C -0.3183(6) -0.3360(6) 1.3331(5)
C26A C -0.3117(11) -0.2895(11) 1.4028(9)
C27A C -0.4145(4) -0.4708(4) 1.3665(3)
N1A N -0.3280(5) -0.3510(4) 1.1925(2)
N2A N -0.2784(5) -0.3007(5) 1.2568(3)
N3A N -0.2570(4) -0.2817(5) 1.1876(2)
N4A N -0.3425(6) -0.3738(6) 1.2584(3)
N5A N -0.2154(4) -0.2335(4) 1.2537(3)
N6A N -0.3051(4) -0.3255(5) 1.1255(2)
O1A O -0.3489(4) -0.3492(4) 0.9637(2)
O2A O -0.2993(13) -0.2320(13) 1.3949(10)
O3A O -0.4007(3) -0.4247(3) 0.94693(19)
O4A O -0.4735(2) -0.5167(3) 1.06504(18)
O5A O -0.4484(3) -0.4849(3) 1.1323(2)
O6A O -0.1551(3) -0.1693(3) 1.1143(3)
O7A O -0.0736(3) -0.1321(3) 1.1418(2)
O8A O -0.0263(2) -0.0696(2) 1.29929(19)
O9A O -0.0657(3) -0.1142(3) 1.3442(2)
O10A O -0.4256(3) -0.4722(3) 1.4034(2)
O11A O -0.4311(3) -0.5061(3) 1.3387(2)
O12A O -0.4975(4) -0.3589(4) 0.9289(3)
Eu1A Eu -0.480015(16) -0.438590(15) 0.882698(11)
O13A O -0.3416(19) -0.2812(19) 1.4330(15)
O14A O -0.0481(4) 0.0642(4) 1.2858(4)
O4D O 0.5265(2) -0.4833(3) 1.56504(18)
O4E O -0.5265(2) -0.4833(3) 0.93496(18)
O5D O 0.5516(3) -0.5151(3) 1.6323(2)
O5E O -0.5516(3) -0.5151(3) 0.8677(2)
O7F O 0.4264(3) -0.3679(3) 1.6418(2)
O7G O -0.4264(3) -0.3679(3) 0.8582(2)
O8F O -0.5263(2) -0.4304(2) 0.79929(19)
O8G O 0.5263(2) -0.4304(2) 1.70071(19)
O9F O -0.5657(3) -0.3858(3) 0.8442(2)
O9G O 0.5657(3) -0.3858(3) 1.6558(2)
O10D O -0.4256(3) -0.5278(3) 0.9034(2)
O10E O 0.4256(3) -0.5278(3) 1.5966(2)
O11B O -0.0689(3) -0.0061(3) 1.1613(2)
O11C O 0.0689(3) -0.0061(3) 1.3387(2)
O11D O -0.4311(3) -0.4939(3) 0.8387(2)
O11E O 0.4311(3) -0.4939(3) 1.6613(2)
Eu1D Eu -0.480015(16) -0.561410(15) 1.382698(11)
Eu1D_2 Eu 0.519985(16) -0.561410(15) 1.382698(11)
Eu1E Eu -0.519985(16) -0.561410(15) 1.117302(11)
Eu1E_2 Eu 0.480015(16) -0.561410(15) 1.117302(11)
Eu1F Eu 0.019985(16) -0.061410(15) 1.382698(11)
Eu1G Eu -0.019985(16) -0.061410(15) 1.117302(11)
Na1B Na -0.5000 -0.5046(2) 1.2500
Na1B_2 Na 0.5000 -0.5046(2) 1.2500
loop_
_geom_bond_atom_site_label_1
_geom_bond_atom_site_label_2
_geom_bond_site_symmetry_1
_geom_bond_site_symmetry_2
C1 C2 1_555 1_555
C2 C3 1_555 1_555
C3 C4 1_555 1_555
C4 C5 1_555 1_555
C5 C6 1_555 1_555
C6 C7 1_555 1_555
C7 C2 1_555 1_555
C8 C6 1_555 1_555
C9 N1 1_555 1_555
C10 N2 1_555 1_555
C11 N1 1_555 1_555
C12 C13 1_555 1_555
C13 C14 1_555 1_555
C14 C15 1_555 1_555
C15 C16 1_555 1_555
C16 C17 1_555 1_555
C17 C12 1_555 1_555
C18 C16 1_555 1_555
C19 C14 1_555 1_555
C20 C21 1_555 1_555
C21 C22 1_555 1_555
C22 C23 1_555 1_555
C23 C24 1_555 1_555
C24 C25 1_555 1_555
C25 C20 1_555 1_555
C26 C24 1_555 1_555
C27 C22 1_555 1_555
N2 C11 1_555 1_555
N3 C9 1_555 1_555
N4 C11 1_555 1_555
N5 C10 1_555 1_555
N6 C4 1_555 1_555
O1 C1 1_555 1_555
O2 C26 1_555 1_555
O3 C1 1_555 1_555
O4 C8 1_555 1_555
O5 C8 1_555 1_555
O6 C18 1_555 1_555
O7 C18 1_555 1_555
O8 C19 1_555 1_555
O9 C19 1_555 1_555
O10 C27 1_555 1_555
O11 C27 1_555 1_555
O12 Eu1 1_555 1_555
Eu1 O3 1_555 1_555
O13 C26 1_555 1_555
O14 Na1 1_555 1_555
Na1 O8 1_555 1_555
C1A C2A 1_555 1_555
C2A C3A 1_555 1_555
C3A C4A 1_555 1_555
C4A C5A 1_555 1_555
C5A C6A 1_555 1_555
C6A C7A 1_555 1_555
C7A C2A 1_555 1_555
C8A C6A 1_555 1_555
C9A N1A 1_555 1_555
C10A N2A 1_555 1_555
C11A N1A 1_555 1_555
C12A C13A 1_555 1_555
C13A C14A 1_555 1_555
C14A C15A 1_555 1_555
C15A C16A 1_555 1_555
C16A C17A 1_555 1_555
C17A C12A 1_555 1_555
C18A C16A 1_555 1_555
C19A C14A 1_555 1_555
C20A C21A 1_555 1_555
C21A C22A 1_555 1_555
C22A C23A 1_555 1_555
C23A C24A 1_555 1_555
C24A C25A 1_555 1_555
C25A C20A 1_555 1_555
C26A C24A 1_555 1_555
C27A C22A 1_555 1_555
N2A C11A 1_555 1_555
N3A C9A 1_555 1_555
N4A C11A 1_555 1_555
N5A C10A 1_555 1_555
N6A C4A 1_555 1_555
O1A C1A 1_555 1_555
O2A C26A 1_555 1_555
O3A C1A 1_555 1_555
O4A C8A 1_555 1_555
O5A C8A 1_555 1_555
O6A C18A 1_555 1_555
O7A C18A 1_555 1_555
O8A Na1 1_555 1_555
O9A C19A 1_555 1_555
O10A C27A 1_555 1_555
O11A C27A 1_555 1_555
O12A Eu1A 1_555 1_555
Eu1A O3A 1_555 1_555
O13A C26A 1_555 1_555
O14A Na1 1_555 1_555
O4D Eu1 1_555 1_555
O4E Eu1A 1_555 1_555
O5D Eu1 1_555 1_555
O5E Eu1A 1_555 1_555
O7F Eu1 1_555 1_555
O7G Eu1A 1_555 1_555
O8F Eu1A 1_555 1_555
O8G Eu1 1_555 1_555
O9F Eu1A 1_555 1_555
O9G Eu1 1_555 1_555
O10D Eu1A 1_555 1_555
O10E Eu1 1_555 1_555
O11B Na1 1_555 1_555
O11C Na1 1_555 1_555
O11D Eu1A 1_555 1_555
O11E Eu1 1_555 1_555
Eu1D O10A 1_555 1_555
Eu1D_2 O4 1_555 1_555
Eu1E O4A 1_555 1_555
Eu1E_2 O10 1_555 1_555
Eu1F O7 1_555 1_555
Eu1G O8 1_555 1_555
Na1B O11A 1_555 1_555
Na1B_2 O11 1_555 1_555
C9 N6 1_555 1_555
C10 N3 1_555 1_555
C12 N5 1_555 1_555
C20 N4 1_555 1_555
O5 Eu1D_2 1_555 1_555
O9 Eu1G 1_555 1_555
O11 Eu1E_2 1_555 1_555
C9A N6A 1_555 1_555
C10A N3A 1_555 1_555
C12A N5A 1_555 1_555
C19A O8A 1_555 1_555
C20A N4A 1_555 1_555
O5A Eu1E 1_555 1_555
O7A Eu1G 1_555 1_555
O8A Eu1F 1_555 1_555
O9A Eu1F 1_555 1_555
O11A Eu1D 1_555 1_555
O11B Eu1G 1_555 1_555
O11C Eu1F 1_555 1_555

#END
