
#######################################################################
#
#                 Cambridge Crystallographic Data Centre
#                                CCDC 
#
#######################################################################
#
# If this CIF has been generated from an entry in the Cambridge 
# Structural Database, then it will include bibliographic, chemical, 
# crystal, experimental, refinement or atomic coordinate data resulting 
# from the CCDC's data processing and validation procedures.
#
#######################################################################

data_EJETAQ
_chemical_formula_moiety         'C69 Eu10 N17 Na3 O43'
_symmetry_cell_setting           monoclinic
_symmetry_space_group_name_H-M   'P 21/n'
_symmetry_Int_Tables_number      14
_space_group_name_Hall           '-P 2yn'
loop_
_symmetry_equiv_pos_site_id
_symmetry_equiv_pos_as_xyz
1 x,y,z
2 1/2-x,1/2+y,1/2-z
3 -x,-y,-z
4 1/2+x,1/2-y,1/2+z
_cell_length_a                   25.723(3)
_cell_length_b                   21.974(2)
_cell_length_c                   31.243(3)
_cell_angle_alpha                90
_cell_angle_beta                 107.0240(10)
_cell_angle_gamma                90
_cell_volume                     16885.9
loop_
_atom_site_label
_atom_site_type_symbol
_atom_site_fract_x
_atom_site_fract_y
_atom_site_fract_z
C1 C 0.9604(3) -0.0369(4) 0.4086(3)
C2 C 0.9283(3) -0.0844(4) 0.4257(3)
C3 C 0.9264(3) -0.0836(4) 0.4688(3)
C4 C 0.8968(4) -0.1282(4) 0.4823(3)
C5 C 0.8678(4) -0.1735(4) 0.4531(3)
C6 C 0.8704(4) -0.1727(4) 0.4105(3)
C7 C 0.9012(4) -0.1301(4) 0.3918(3)
C8 C 0.8912(4) -0.1258(4) 0.5296(3)
C9 C 0.8314(4) -0.2323(4) 0.3374(3)
C10 C 0.8533(4) -0.2212(5) 0.2724(4)
C11 C 0.7872(4) -0.2830(4) 0.2771(3)
C12 C 0.8767(4) -0.1879(4) 0.2045(3)
C13 C 0.8565(4) -0.2359(5) 0.1732(3)
C14 C 0.8543(4) -0.2265(4) 0.1293(3)
C15 C 0.8733(4) -0.1734(4) 0.1128(3)
C16 C 0.8947(3) -0.1267(4) 0.1456(3)
C17 C 0.8963(4) -0.1339(4) 0.1907(3)
C18 C 0.9157(3) -0.0680(4) 0.1327(3)
C19 C 0.8348(4) -0.2768(5) 0.0963(3)
C20 C 0.7022(4) -0.3480(4) 0.2650(3)
C21 C 0.6973(4) -0.3527(4) 0.3081(3)
C22 C 0.6492(4) -0.3753(4) 0.3129(3)
C23 C 0.6059(4) -0.3964(4) 0.2777(3)
C24 C 0.6140(4) -0.3930(4) 0.2352(3)
C25 C 0.6602(4) -0.3718(4) 0.2275(3)
C26 C 0.5683(4) -0.4166(4) 0.1953(3)
C27 C 0.6391(4) -0.3796(4) 0.3596(3)
C28 C 1.1131(5) 0.1494(5) 0.3514(4)
C29 C 1.1155(4) 0.1567(4) 0.3046(3)
C30 C 1.0796(4) 0.1242(4) 0.2727(3)
C31 C 1.0841(3) 0.1283(4) 0.2280(3)
C32 C 1.1225(4) 0.1671(5) 0.2197(3)
C33 C 1.1582(4) 0.1994(4) 0.2531(3)
C34 C 1.1547(4) 0.1960(5) 0.2987(3)
C35 C 1.0453(3) 0.0934(4) 0.1906(3)
C36 C 1.2350(4) 0.2732(5) 0.2643(4)
C37 C 1.3039(5) 0.3362(5) 0.2612(4)
C38 C 1.2882(4) 0.3188(5) 0.3280(4)
C39 C 1.3283(4) 0.3712(5) 0.1936(3)
C40 C 1.2880(5) 0.3449(7) 0.1578(4)
C41 C 1.2861(4) 0.3597(5) 0.1127(3)
C42 C 1.3249(4) 0.3946(5) 0.1048(3)
C43 C 1.3668(4) 0.4187(5) 0.1400(3)
C44 C 1.3688(4) 0.4081(5) 0.1836(4)
C45 C 1.4087(4) 0.4623(4) 0.1325(3)
C46 C 1.2394(5) 0.3371(5) 0.0769(4)
C47 C 1.3365(4) 0.3672(4) 0.4003(3)
C48 C 1.3768(4) 0.3993(4) 0.3883(3)
C49 C 1.4127(3) 0.4345(4) 0.4198(3)
C50 C 1.4093(3) 0.4401(4) 0.4644(3)
C51 C 1.3687(4) 0.4079(4) 0.4754(3)
C52 C 1.3323(4) 0.3709(5) 0.4448(3)
C53 C 1.3649(4) 0.4115(5) 0.5226(3)
C54 C 1.4556(3) 0.4704(4) 0.4065(3)
C55 C 0.9980(5) 0.1808(6) 0.0815(4)
C56 C 0.9388(9) 0.2416(12) 0.0136(8)
C57 C 1.0268(8) 0.2844(9) 0.0722(7)
C58 C 0.9562(8) 0.1814(10) 0.4104(7)
C59 C 1.0090(9) 0.2543(10) 0.4661(7)
C60 C 0.9139(15) 0.2791(17) 0.4110(14)
C61 C 0.7592(6) -0.4444(6) 0.1069(5)
C62 C 0.7300(6) -0.5536(7) 0.1009(5)
C63 C 0.6944(7) -0.4775(8) 0.1513(6)
C64 C 0.6695(6) -0.3479(6) 0.0133(5)
C65 C 0.6186(7) -0.4324(8) 0.0185(6)
C66 C 0.5712(8) -0.3521(9) -0.0283(7)
C67 C 0.7930(7) -0.4797(9) -0.0473(7)
C68 C 0.7160(8) -0.5396(8) -0.0377(6)
C69 C 0.7436(9) -0.5357(10) -0.1150(8)
N1 N 0.7929(3) -0.2733(4) 0.3211(3)
N2 N 0.8151(3) -0.2609(4) 0.2505(3)
N3 N 0.8642(3) -0.2040(3) 0.3162(3)
N4 N 0.7477(3) -0.3238(4) 0.2531(3)
N5 N 0.8851(3) -0.1915(4) 0.2509(3)
N6 N 0.8391(3) -0.2196(4) 0.3800(3)
N7 N 1.2447(3) 0.2820(4) 0.3090(3)
N8 N 1.3199(3) 0.3442(4) 0.3053(3)
N9 N 1.2609(4) 0.3017(4) 0.2374(3)
N10 N 1.2973(3) 0.3284(4) 0.3715(3)
N11 N 1.3356(4) 0.3642(4) 0.2398(3)
N12 N 1.1939(4) 0.2364(4) 0.2402(3)
N13 N 0.9860(6) 0.2328(6) 0.0565(5)
N14 N 0.9568(8) 0.2343(9) 0.4354(6)
N15 N 0.7306(5) -0.4931(6) 0.1210(4)
N16 N 0.6235(4) -0.3773(5) 0.0033(4)
N17 N 0.7521(5) -0.5208(6) -0.0676(4)
O1 O 0.9660(2) -0.0402(3) 0.37046(18)
O2 O 0.9810(2) 0.0071(2) 0.43488(17)
O3 O 0.9103(3) -0.0810(3) 0.55279(19)
O4 O 1.0497(3) -0.0832(3) 0.2155(2)
O5 O 0.8682(3) -0.1707(3) 0.5413(2)
O6 O 0.8949(4) -0.4221(5) 0.0758(4)
O7 O 0.9283(3) -0.0257(3) 0.1603(2)
O8 O 0.8699(3) -0.3462(3) -0.0035(2)
O9 O 0.9230(3) -0.0622(3) 0.09395(19)
O10 O 0.8278(3) -0.2680(3) 0.0556(2)
O11 O 0.8242(3) -0.3284(3) 0.1090(2)
O12 O 0.5742(2) -0.4134(3) 0.1577(2)
O13 O 0.5265(2) -0.4389(3) 0.20191(19)
O14 O 0.5936(3) -0.3898(3) 0.3630(2)
O15 O 0.6820(3) -0.3710(3) 0.3936(2)
O16 O 1.0642(3) 0.1332(4) 0.3564(2)
O17 O 1.1465(3) 0.1734(3) 0.3842(2)
O18 O 1.0467(2) 0.1025(3) 0.1519(2)
O19 O 1.0122(2) 0.0577(2) 0.19889(17)
O20 O 1.4370(3) 0.4918(3) 0.1643(2)
O21 O 1.4128(2) 0.4694(3) 0.09448(19)
O22 O 1.2433(3) 0.3445(3) 0.0365(2)
O23 O 1.1986(3) 0.3147(4) 0.0832(3)
O24 O 1.3298(3) 0.3746(3) 0.5319(2)
O25 O 1.3896(2) 0.4517(3) 0.54837(19)
O26 O 1.4859(2) 0.5065(2) 0.43472(16)
O27 O 1.4605(2) 0.4657(3) 0.36914(18)
O28 O 0.9677(3) 0.1377(3) 0.0709(2)
O29 O 0.9984(4) 0.1466(4) 0.4193(3)
O30 O 0.7875(3) -0.4551(3) 0.0832(3)
O31 O 0.7148(3) -0.3639(3) 0.0355(3)
O32 O 0.8009(4) -0.4656(4) -0.0051(3)
Eu1 Eu 0.964580(16) 0.042894(18) 0.115009(13)
Eu2 Eu 1.020400(16) 0.053650(19) 0.380767(13)
Eu3 Eu 0.80727(2) -0.37477(3) 0.035381(18)
Na1 Na 0.99735(14) -0.01441(16) 0.25152(11)
O33 O 0.9692(8) -0.0992(9) 0.2942(6)
O3B O 1.0897(3) 0.0810(3) 0.44721(19)
O12A O 0.9258(2) 0.0866(3) 0.3423(2)
O13A O 0.9735(2) 0.0611(3) 0.29809(19)
O14A O 0.9064(3) 0.1102(3) 0.1370(2)
O20A O 1.0630(3) -0.0082(3) 0.3357(2)
O21A O 1.0872(2) -0.0306(3) 0.40552(19)
O22B O 0.7567(3) -0.3445(3) -0.0365(2)
O25C O 0.8896(2) 0.0483(3) 0.04837(19)
O26A O 1.0141(2) 0.0065(2) 0.06528(16)
O27A O 1.0395(2) -0.0343(3) 0.13086(18)
Eu1A Eu 0.535420(16) -0.457106(18) 0.384991(13)
Eu1A_2 Eu 1.535420(16) 0.542894(18) 0.384991(13)
Eu1C Eu 1.464580(16) 0.457106(18) 0.615009(13)
Eu2A Eu 0.479600(16) -0.446350(19) 0.119233(13)
Eu2A_2 Eu 1.479600(16) 0.553650(19) 0.119233(13)
Eu2B Eu 0.979600(16) -0.053650(19) 0.619233(13)
Eu3B Eu 1.19273(2) 0.37477(3) -0.035381(18)
Na1A Na 0.50265(14) -0.51441(16) 0.24848(11)
Na1A_2 Na 1.50265(14) 0.48559(16) 0.24848(11)
loop_
_geom_bond_atom_site_label_1
_geom_bond_atom_site_label_2
_geom_bond_site_symmetry_1
_geom_bond_site_symmetry_2
C1 C2 1_555 1_555
C2 C3 1_555 1_555
C3 C4 1_555 1_555
C4 C5 1_555 1_555
C5 C6 1_555 1_555
C6 C7 1_555 1_555
C7 C2 1_555 1_555
C8 C4 1_555 1_555
C9 N1 1_555 1_555
C10 N2 1_555 1_555
C11 N1 1_555 1_555
C12 C13 1_555 1_555
C13 C14 1_555 1_555
C14 C15 1_555 1_555
C15 C16 1_555 1_555
C16 C17 1_555 1_555
C17 C12 1_555 1_555
C18 C16 1_555 1_555
C19 C14 1_555 1_555
C20 C21 1_555 1_555
C21 C22 1_555 1_555
C22 C23 1_555 1_555
C23 C24 1_555 1_555
C24 C25 1_555 1_555
C25 C20 1_555 1_555
C26 C24 1_555 1_555
C27 C22 1_555 1_555
C28 C29 1_555 1_555
C29 C30 1_555 1_555
C30 C31 1_555 1_555
C31 C32 1_555 1_555
C32 C33 1_555 1_555
C33 C34 1_555 1_555
C34 C29 1_555 1_555
C35 C31 1_555 1_555
C36 N7 1_555 1_555
C37 N8 1_555 1_555
C38 N7 1_555 1_555
C39 C40 1_555 1_555
C40 C41 1_555 1_555
C41 C42 1_555 1_555
C42 C43 1_555 1_555
C43 C44 1_555 1_555
C44 C39 1_555 1_555
C45 C43 1_555 1_555
C46 C41 1_555 1_555
C47 C48 1_555 1_555
C48 C49 1_555 1_555
C49 C50 1_555 1_555
C50 C51 1_555 1_555
C51 C52 1_555 1_555
C52 C47 1_555 1_555
C53 C51 1_555 1_555
C54 C49 1_555 1_555
C55 N13 1_555 1_555
C56 N13 1_555 1_555
C57 N13 1_555 1_555
C58 N14 1_555 1_555
C59 N14 1_555 1_555
C60 N14 1_555 1_555
C61 N15 1_555 1_555
C62 N15 1_555 1_555
C63 N15 1_555 1_555
C64 N16 1_555 1_555
C65 N16 1_555 1_555
C66 N16 1_555 1_555
C67 N17 1_555 1_555
C68 N17 1_555 1_555
C69 N17 1_555 1_555
N2 C11 1_555 1_555
N3 C9 1_555 1_555
N4 C11 1_555 1_555
N5 C10 1_555 1_555
N6 C6 1_555 1_555
N8 C38 1_555 1_555
N9 C36 1_555 1_555
N10 C38 1_555 1_555
N11 C37 1_555 1_555
N12 C33 1_555 1_555
O1 C1 1_555 1_555
O2 C1 1_555 1_555
O3 C8 1_555 1_555
O4 Na1 1_555 1_555
O5 C8 1_555 1_555
O6 Eu3 1_555 1_555
O7 C18 1_555 1_555
O8 Eu3 1_555 1_555
O9 C18 1_555 1_555
O10 C19 1_555 1_555
O11 C19 1_555 1_555
O12 C26 1_555 1_555
O13 C26 1_555 1_555
O14 C27 1_555 1_555
O15 C27 1_555 1_555
O16 C28 1_555 1_555
O17 C28 1_555 1_555
O18 C35 1_555 1_555
O19 C35 1_555 1_555
O20 C45 1_555 1_555
O21 C45 1_555 1_555
O22 C46 1_555 1_555
O23 C46 1_555 1_555
O24 C53 1_555 1_555
O25 C53 1_555 1_555
O26 C54 1_555 1_555
O27 C54 1_555 1_555
O28 C55 1_555 1_555
O29 C58 1_555 1_555
O30 C61 1_555 1_555
O31 C64 1_555 1_555
O32 C67 1_555 1_555
Eu1 O7 1_555 1_555
Eu2 O1 1_555 1_555
Eu3 O10 1_555 1_555
Na1 O7 1_555 1_555
O33 Na1 1_555 1_555
O3B Eu2 1_555 1_555
O12A Eu2 1_555 1_555
O13A Eu2 1_555 1_555
O14A Eu1 1_555 1_555
O20A Eu2 1_555 1_555
O21A Eu2 1_555 1_555
O22B Eu3 1_555 1_555
O25C Eu1 1_555 1_555
O26A Eu1 1_555 1_555
O27A Eu1 1_555 1_555
Eu1A O14 1_555 1_555
Eu1A_2 O26 1_555 1_555
Eu1C O25 1_555 1_555
Eu2A O12 1_555 1_555
Eu2A_2 O20 1_555 1_555
Eu2B O3 1_555 1_555
Eu3B O22 1_555 1_555
Na1A O13 1_555 1_555
Na1A_2 O20 1_555 1_555
C9 N6 1_555 1_555
C10 N3 1_555 1_555
C12 N5 1_555 1_555
C20 N4 1_555 1_555
C36 N12 1_555 1_555
C37 N9 1_555 1_555
C39 N11 1_555 1_555
C47 N10 1_555 1_555
O2 Eu2 1_555 1_555
O9 Eu1 1_555 1_555
O11 Eu3 1_555 1_555
O13 Eu2A 1_555 1_555
O16 Eu2 1_555 1_555
O18 Eu1 1_555 1_555
O19 Eu1 1_555 1_555
O19 Na1 1_555 1_555
O21 Eu2A_2 1_555 1_555
O27 Eu1A_2 1_555 1_555
O28 Eu1 1_555 1_555
O29 Eu2 1_555 1_555
O30 Eu3 1_555 1_555
O31 Eu3 1_555 1_555
O32 Eu3 1_555 1_555
Na1 O13A 1_555 1_555
Na1 O20A 1_555 1_555

#END
