
#######################################################################
#
#                 Cambridge Crystallographic Data Centre
#                                CCDC 
#
#######################################################################
#
# If this CIF has been generated from an entry in the Cambridge 
# Structural Database, then it will include bibliographic, chemical, 
# crystal, experimental, refinement or atomic coordinate data resulting 
# from the CCDC's data processing and validation procedures.
#
#######################################################################

data_ILIMUN01
_chemical_formula_moiety         '(C42 H58 N16 Ni1 O6)n'
_symmetry_cell_setting           rhombohedral
_symmetry_space_group_name_H-M   'R -3 c'
_symmetry_Int_Tables_number      167
_space_group_name_Hall           '-R 3 2"c'
loop_
_symmetry_equiv_pos_site_id
_symmetry_equiv_pos_as_xyz
1 x,y,z
2 -y,x-y,z
3 -x+y,-x,z
4 y,x,1/2-z
5 x-y,-y,1/2-z
6 -x,-x+y,1/2-z
7 2/3+x,1/3+y,1/3+z
8 2/3-y,1/3+x-y,1/3+z
9 2/3-x+y,1/3-x,1/3+z
10 2/3+y,1/3+x,5/6-z
11 2/3+x-y,1/3-y,5/6-z
12 2/3-x,1/3-x+y,5/6-z
13 1/3+x,2/3+y,2/3+z
14 1/3-y,2/3+x-y,2/3+z
15 1/3-x+y,2/3-x,2/3+z
16 1/3+y,2/3+x,1/6-z
17 1/3+x-y,2/3-y,1/6-z
18 1/3-x,2/3-x+y,1/6-z
19 -x,-y,-z
20 y,-x+y,-z
21 x-y,x,-z
22 -y,-x,1/2+z
23 -x+y,y,1/2+z
24 x,x-y,1/2+z
25 1/3-x,2/3-y,2/3-z
26 1/3+y,2/3-x+y,2/3-z
27 1/3+x-y,2/3+x,2/3-z
28 1/3-y,2/3-x,1/6+z
29 1/3-x+y,2/3+y,1/6+z
30 1/3+x,2/3+x-y,1/6+z
31 2/3-x,1/3-y,1/3-z
32 2/3+y,1/3-x+y,1/3-z
33 2/3+x-y,1/3+x,1/3-z
34 2/3-y,1/3-x,5/6+z
35 2/3-x+y,1/3+y,5/6+z
36 2/3+x,1/3+x-y,5/6+z
_cell_length_a                   30.594(2)
_cell_length_b                   30.594(2)
_cell_length_c                   15.965(3)
_cell_angle_alpha                90
_cell_angle_beta                 90
_cell_angle_gamma                120
_cell_volume                     12941.1
loop_
_atom_site_label
_atom_site_type_symbol
_atom_site_fract_x
_atom_site_fract_y
_atom_site_fract_z
Ni1 Ni 0.5000 0.5000 0.5000
N1 N 0.5698(4) 0.5243(4) 0.4567(6)
N2 N 0.6046(3) 0.5577(3) 0.4054(6)
N3 N 0.6401(4) 0.5174(4) 0.4679(7)
N4 N 0.5195(4) 0.4543(3) 0.5724(6)
N5 N 0.7746(3) 0.6382(5) 0.2599(6)
C1 C 0.6440(5) 0.5530(5) 0.4115(8)
C2 C 0.5920(5) 0.5002(5) 0.4946(9)
C3 C 0.5656(5) 0.4612(5) 0.5580(8)
C4 C 0.5827(5) 0.4320(5) 0.5962(9)
H1 H 0.6148 0.4371 0.5849
C5 C 0.5512(6) 0.3952(6) 0.6510(9)
H2 H 0.5609 0.3739 0.6762
C6 C 0.5045(6) 0.3904(6) 0.6682(10)
H3 H 0.4832 0.3672 0.7078
C7 C 0.4896(5) 0.4204(5) 0.6261(9)
H4 H 0.4578 0.4163 0.6363
C8 C 0.7328(5) 0.6380(7) 0.2500(8)
H5 H 0.7308 0.6564 0.2053
C9 C 0.6907(5) 0.6129(7) 0.3001(8)
H6 H 0.6624 0.6162 0.2913
C10 C 0.6913(4) 0.5836(6) 0.3614(7)
C11 C 0.7341(5) 0.5847(7) 0.3761(9)
H7 H 0.7368 0.5670 0.4213
C12 C 0.7750(5) 0.6122(7) 0.3245(8)
H8 H 0.8047 0.6122 0.3365
N1R N 0.4302(4) 0.4757(4) 0.5433(6)
N2R N 0.3954(3) 0.4423(3) 0.5946(6)
N3R N 0.3599(4) 0.4826(4) 0.5321(7)
N4R N 0.4805(4) 0.5457(3) 0.4276(6)
N5R N 0.2254(3) 0.3618(5) 0.7401(6)
C1R C 0.3560(5) 0.4470(5) 0.5885(8)
C2R C 0.4080(5) 0.4998(5) 0.5054(9)
C3R C 0.4344(5) 0.5388(5) 0.4420(8)
C4R C 0.4173(5) 0.5680(5) 0.4038(9)
H1R H 0.3852 0.5629 0.4151
C5R C 0.4488(6) 0.6048(6) 0.3490(9)
H2R H 0.4391 0.6261 0.3238
C6R C 0.4955(6) 0.6096(6) 0.3318(10)
H3R H 0.5168 0.6328 0.2922
C7R C 0.5104(5) 0.5796(5) 0.3739(9)
H4R H 0.5422 0.5837 0.3637
C8R C 0.2672(5) 0.3620(7) 0.7500(8)
H5R H 0.2692 0.3436 0.7947
C9R C 0.3093(5) 0.3871(7) 0.6999(8)
H6R H 0.3376 0.3838 0.7087
C10R C 0.3087(4) 0.4164(6) 0.6386(7)
C11R C 0.2659(5) 0.4153(7) 0.6239(9)
H7R H 0.2632 0.4330 0.5787
C12R C 0.2250(5) 0.3878(7) 0.6755(8)
H8R H 0.1953 0.3878 0.6635
Ni1G Ni 0.1667 0.3333 0.8333
Ni1M Ni 0.8333 0.6667 0.1667
N5H N 0.5303(6) 0.5587(3) 0.5932(6)
N5Z N 0.4697(6) 0.4413(3) 0.4068(6)
N6 N 0.3894(13) 0.6249(12) 0.663(2)
O1 O 0.3337(14) 0.5582(16) 0.589(2)
C13 C 0.3786(14) 0.5906(14) 0.602(2)
H9 H 0.4043 0.5899 0.5713
C14 C 0.3459(19) 0.621(2) 0.711(3)
H10 H 0.3177 0.6124 0.6747
H11 H 0.3583 0.6539 0.7335
H12 H 0.3355 0.5967 0.7557
C15 C 0.4417(15) 0.6637(18) 0.681(4)
H13 H 0.4474 0.6965 0.6655
H14 H 0.4641 0.6565 0.6495
H15 H 0.4478 0.6631 0.7395
N6EA N 0.2916(12) 0.5688(18) 0.670(2)
O1EA O 0.2249(16) 0.5578(21) 0.744(2)
C13EA C 0.2573(14) 0.5453(20) 0.731(2)
H9EA H 0.2566 0.5189 0.7620
C14EA C 0.288(2) 0.6084(28) 0.622(3)
H10EA H 0.2791 0.6280 0.6586
H11EA H 0.3206 0.6289 0.5998
H12EA H 0.2634 0.5945 0.5776
C15EA C 0.3304(18) 0.5553(23) 0.652(4)
H13EA H 0.3632 0.5824 0.6678
H14EA H 0.3232 0.5257 0.6838
H15EA H 0.3298 0.5486 0.5938
N6FA N 0.4312(18) 0.7227(13) 0.670(2)
O1FA O 0.4422(21) 0.6670(14) 0.744(2)
C13FA C 0.4547(20) 0.7119(14) 0.731(2)
H9FA H 0.4811 0.7376 0.7620
C14FA C 0.3916(28) 0.6792(19) 0.622(3)
H10FA H 0.3720 0.6510 0.6586
H11FA H 0.3711 0.6916 0.5998
H12FA H 0.4055 0.6688 0.5776
C15FA C 0.4447(23) 0.7750(15) 0.652(4)
H13FA H 0.4176 0.7807 0.6678
H14FA H 0.4743 0.7974 0.6838
H15FA H 0.4514 0.7811 0.5938
N6A N 0.3751(12) 0.7645(18) 0.663(2)
O1A O 0.4418(16) 0.7755(21) 0.589(2)
C13A C 0.4094(14) 0.7880(20) 0.602(2)
H9A H 0.4101 0.8144 0.5713
C14A C 0.379(2) 0.7249(28) 0.711(3)
H10A H 0.3876 0.7053 0.6747
H11A H 0.3461 0.7044 0.7335
H12A H 0.4033 0.7388 0.7557
C15A C 0.3363(18) 0.7780(23) 0.681(4)
H13A H 0.3035 0.7509 0.6655
H14A H 0.3435 0.8076 0.6495
H15A H 0.3369 0.7847 0.7395
N6B N 0.2355(18) 0.6106(13) 0.663(2)
O1B O 0.2245(21) 0.6663(14) 0.589(2)
C13B C 0.2120(20) 0.6214(14) 0.602(2)
H9B H 0.1856 0.5957 0.5713
C14B C 0.2751(28) 0.6541(19) 0.711(3)
H10B H 0.2947 0.6823 0.6747
H11B H 0.2956 0.6417 0.7335
H12B H 0.2612 0.6645 0.7557
C15B C 0.2220(23) 0.5583(15) 0.681(4)
H13B H 0.2491 0.5526 0.6655
H14B H 0.1924 0.5359 0.6495
H15B H 0.2153 0.5522 0.7395
N6DA N 0.2773(13) 0.7084(12) 0.670(2)
O1DA O 0.3330(14) 0.7751(16) 0.744(2)
C13DA C 0.2881(14) 0.7427(14) 0.731(2)
H9DA H 0.2624 0.7434 0.7620
C14DA C 0.3208(19) 0.712(2) 0.622(3)
H10DA H 0.3490 0.7209 0.6586
H11DA H 0.3084 0.6794 0.5998
H12DA H 0.3312 0.7366 0.5776
C15DA C 0.2250(15) 0.6696(18) 0.652(4)
H13DA H 0.2193 0.6368 0.6678
H14DA H 0.2026 0.6768 0.6838
H15DA H 0.2189 0.6702 0.5938
loop_
_geom_bond_atom_site_label_1
_geom_bond_atom_site_label_2
_geom_bond_site_symmetry_1
_geom_bond_site_symmetry_2
Ni1 N1 1_555 1_555
N1 N2 1_555 1_555
N2 C1 1_555 1_555
N3 C1 1_555 1_555
N4 Ni1 1_555 1_555
N5 C8 1_555 1_555
C1 C10 1_555 1_555
C2 N1 1_555 1_555
C3 N4 1_555 1_555
C4 C3 1_555 1_555
H1 C4 1_555 1_555
C5 C4 1_555 1_555
H2 C5 1_555 1_555
C6 C5 1_555 1_555
H3 C6 1_555 1_555
C7 N4 1_555 1_555
H4 C7 1_555 1_555
C8 H5 1_555 1_555
C9 C8 1_555 1_555
H6 C9 1_555 1_555
C10 C9 1_555 1_555
C11 C10 1_555 1_555
H7 C11 1_555 1_555
C12 N5 1_555 1_555
H8 C12 1_555 1_555
N6 C13 1_555 1_555
O1 C13 1_555 1_555
C13 H9 1_555 1_555
C14 N6 1_555 1_555
H10 C14 1_555 1_555
H11 C14 1_555 1_555
H12 C14 1_555 1_555
C15 N6 1_555 1_555
H13 C15 1_555 1_555
H14 C15 1_555 1_555
H15 C15 1_555 1_555
N1R Ni1 1_555 1_555
N2R N1R 1_555 1_555
N3R C1R 1_555 1_555
N4R Ni1 1_555 1_555
N5R C8R 1_555 1_555
C1R N2R 1_555 1_555
C2R N1R 1_555 1_555
C3R N4R 1_555 1_555
C4R C3R 1_555 1_555
H1R C4R 1_555 1_555
C5R C4R 1_555 1_555
H2R C5R 1_555 1_555
C6R C5R 1_555 1_555
H3R C6R 1_555 1_555
C7R N4R 1_555 1_555
H4R C7R 1_555 1_555
C8R H5R 1_555 1_555
C9R C8R 1_555 1_555
H6R C9R 1_555 1_555
C10R C1R 1_555 1_555
C11R C10R 1_555 1_555
H7R C11R 1_555 1_555
C12R N5R 1_555 1_555
H8R C12R 1_555 1_555
Ni1G N5R 1_555 1_555
Ni1M N5 1_555 1_555
N5H Ni1 1_555 1_555
N5Z Ni1 1_555 1_555
N6EA C13EA 1_555 1_555
O1EA C13EA 1_555 1_555
C13EA H9EA 1_555 1_555
C14EA N6EA 1_555 1_555
H10EA C14EA 1_555 1_555
H11EA C14EA 1_555 1_555
H12EA C14EA 1_555 1_555
C15EA N6EA 1_555 1_555
H13EA C15EA 1_555 1_555
H14EA C15EA 1_555 1_555
H15EA C15EA 1_555 1_555
N6FA C13FA 1_555 1_555
O1FA C13FA 1_555 1_555
C13FA H9FA 1_555 1_555
C14FA N6FA 1_555 1_555
H10FA C14FA 1_555 1_555
H11FA C14FA 1_555 1_555
H12FA C14FA 1_555 1_555
C15FA N6FA 1_555 1_555
H13FA C15FA 1_555 1_555
H14FA C15FA 1_555 1_555
H15FA C15FA 1_555 1_555
N6A C13A 1_555 1_555
O1A C13A 1_555 1_555
C13A H9A 1_555 1_555
C14A N6A 1_555 1_555
H10A C14A 1_555 1_555
H11A C14A 1_555 1_555
H12A C14A 1_555 1_555
C15A N6A 1_555 1_555
H13A C15A 1_555 1_555
H14A C15A 1_555 1_555
H15A C15A 1_555 1_555
N6B C13B 1_555 1_555
O1B C13B 1_555 1_555
C13B H9B 1_555 1_555
C14B N6B 1_555 1_555
H10B C14B 1_555 1_555
H11B C14B 1_555 1_555
H12B C14B 1_555 1_555
C15B N6B 1_555 1_555
H13B C15B 1_555 1_555
H14B C15B 1_555 1_555
H15B C15B 1_555 1_555
N6DA C13DA 1_555 1_555
O1DA C13DA 1_555 1_555
C13DA H9DA 1_555 1_555
C14DA N6DA 1_555 1_555
H10DA C14DA 1_555 1_555
H11DA C14DA 1_555 1_555
H12DA C14DA 1_555 1_555
C15DA N6DA 1_555 1_555
H13DA C15DA 1_555 1_555
H14DA C15DA 1_555 1_555
H15DA C15DA 1_555 1_555
N3 C2 1_555 1_555
C2 C3 1_555 1_555
C6 C7 1_555 1_555
C11 C12 1_555 1_555
N3R C2R 1_555 1_555
C2R C3R 1_555 1_555
C6R C7R 1_555 1_555
C9R C10R 1_555 1_555
C11R C12R 1_555 1_555

#END
