
#######################################################################
#
#                 Cambridge Crystallographic Data Centre
#                                CCDC 
#
#######################################################################
#
# If this CIF has been generated from an entry in the Cambridge 
# Structural Database, then it will include bibliographic, chemical, 
# crystal, experimental, refinement or atomic coordinate data resulting 
# from the CCDC's data processing and validation procedures.
#
#######################################################################

data_ILIMUN
_chemical_formula_moiety         '(C78 H62 N32 Ni3 O2)n'
_symmetry_cell_setting           triclinic
_symmetry_space_group_name_H-M   'P -1'
_symmetry_Int_Tables_number      2
_space_group_name_Hall           '-P 1'
loop_
_symmetry_equiv_pos_site_id
_symmetry_equiv_pos_as_xyz
1 x,y,z
2 -x,-y,-z
_cell_length_a                   9.113(2)
_cell_length_b                   15.904(4)
_cell_length_c                   16.014(5)
_cell_angle_alpha                73.488(5)
_cell_angle_beta                 74.016(5)
_cell_angle_gamma                76.264(5)
_cell_volume                     2107.07
loop_
_atom_site_label
_atom_site_type_symbol
_atom_site_fract_x
_atom_site_fract_y
_atom_site_fract_z
Ni1 Ni 0.5000 1.0000 0.5000
Ni2 Ni -0.5000 0.5000 0.5000
Ni3 Ni 0.0000 1.0000 0.0000
N1 N 0.7894(6) 0.8298(3) 0.4879(3)
N2 N 0.7194(6) 0.9178(3) 0.4729(3)
N3 N 0.9741(6) 0.9159(4) 0.4143(4)
N4 N 0.6466(6) 1.0958(3) 0.4335(3)
N5 N 1.3078(6) 0.6114(3) 0.4757(3)
N6 N 0.1812(7) 1.0180(4) 0.1350(3)
N7 N 0.1686(7) 0.9893(4) 0.0656(3)
N8 N 0.3948(7) 0.9180(4) 0.0979(4)
N9 N 0.1910(7) 0.9141(4) -0.0660(3)
N10 N 0.4619(6) 0.9968(4) 0.3736(3)
N11 N -0.2815(6) 0.6328(3) 0.3566(3)
N12 N -0.3630(6) 0.5638(3) 0.3841(3)
N13 N -0.3258(7) 0.6054(4) 0.2359(3)
N14 N -0.5464(6) 0.4476(3) 0.4016(3)
N15 N -0.0753(7) 0.8809(4) 0.0958(3)
C1 C 0.6093(9) 1.1852(5) 0.4156(4)
H1 H 0.5062 1.2104 0.4337
C2 C 0.7123(10) 1.2404(5) 0.3730(5)
H2 H 0.6796 1.3018 0.3618
C3 C 0.8647(11) 1.2057(5) 0.3466(6)
H3 H 0.9381 1.2423 0.3167
C4 C 0.9061(10) 1.1137(5) 0.3660(5)
H4 H 1.0094 1.0876 0.3503
C5 C 0.7970(8) 1.0618(4) 0.4077(4)
C6 C 0.8321(8) 0.9643(4) 0.4300(4)
C7 C 0.9397(8) 0.8332(4) 0.4514(4)
C8 C 1.1630(9) 0.6005(5) 0.5029(5)
H5 H 1.1424 0.5432 0.5299
C9 C 1.0386(9) 0.6695(5) 0.4937(5)
H6 H 0.9379 0.6578 0.5133
C10 C 1.0643(8) 0.7544(4) 0.4559(4)
C11 C 1.2155(8) 0.7660(4) 0.4247(5)
H7 H 1.2397 0.8223 0.3962
C12 C 1.3313(8) 0.6932(5) 0.4361(5)
H8 H 1.4333 0.7025 0.4143
C13 C 0.2010(10) 0.8805(5) -0.1349(4)
H9 H 0.1159 0.8959 -0.1610
C14 C 0.3234(11) 0.8265(6) -0.1691(5)
H10 H 0.3232 0.8053 -0.2175
C15 C 0.4511(11) 0.8023(6) -0.1318(6)
H11 H 0.5389 0.7647 -0.1545
C16 C 0.4448(10) 0.8359(6) -0.0586(5)
H12 H 0.5285 0.8207 -0.0314
C17 C 0.3156(9) 0.8907(5) -0.0281(4)
C18 C 0.2973(9) 0.9312(5) 0.0452(4)
C19 C 0.3189(8) 0.9728(5) 0.1517(4)
C20 C 0.5233(8) 0.9286(5) 0.3355(4)
H13 H 0.5971 0.8845 0.3601
C21 C 0.4849(8) 0.9194(5) 0.2624(4)
H14 H 0.5325 0.8705 0.2380
C22 C 0.3741(8) 0.9837(5) 0.2251(4)
C23 C 0.3146(8) 1.0557(5) 0.2613(4)
H15 H 0.2435 1.1013 0.2361
C24 C 0.3584(8) 1.0618(5) 0.3349(4)
H16 H 0.3159 1.1116 0.3585
C25 C -0.6375(8) 0.3882(5) 0.4139(5)
H17 H -0.6845 0.3622 0.4720
C26 C -0.6641(10) 0.3641(5) 0.3449(5)
H18 H -0.7279 0.3226 0.3556
C27 C -0.5941(10) 0.4028(6) 0.2583(6)
H19 H -0.6094 0.3872 0.2099
C28 C -0.5019(10) 0.4642(5) 0.2451(5)
H20 H -0.4546 0.4911 0.1874
C29 C -0.4800(8) 0.4857(5) 0.3170(4)
C30 C -0.3866(8) 0.5504(4) 0.3101(4)
C31 C -0.2626(8) 0.6546(4) 0.2689(4)
C32 C -0.0737(8) 0.8570(5) 0.1827(4)
H21 H -0.0312 0.8916 0.2048
C33 C -0.1314(8) 0.7840(5) 0.2416(4)
H22 H -0.1287 0.7709 0.3016
C34 C -0.1928(8) 0.7311(5) 0.2106(4)
C35 C -0.1946(9) 0.7556(5) 0.1207(4)
H23 H -0.2366 0.7224 0.0968
C36 C -0.1345(10) 0.8286(5) 0.0675(5)
H24 H -0.1351 0.8426 0.0071
N11A N -0.7185(6) 0.3672(3) 0.6434(3)
N12A N -0.6370(6) 0.4362(3) 0.6159(3)
N13A N -0.6742(7) 0.3946(4) 0.7641(3)
N14A N -0.4536(6) 0.5524(3) 0.5984(3)
N15A N -0.9247(7) 0.1191(4) 0.9042(3)
C25A C -0.3625(8) 0.6118(5) 0.5861(5)
H17A H -0.3155 0.6378 0.5280
C26A C -0.3359(10) 0.6359(5) 0.6551(5)
H18A H -0.2721 0.6774 0.6444
C27A C -0.4059(10) 0.5972(6) 0.7417(6)
H19A H -0.3906 0.6128 0.7901
C28A C -0.4981(10) 0.5358(5) 0.7549(5)
H20A H -0.5454 0.5089 0.8126
C29A C -0.5200(8) 0.5143(5) 0.6830(4)
C30A C -0.6134(8) 0.4496(4) 0.6899(4)
C31A C -0.7374(8) 0.3454(4) 0.7311(4)
C32A C -0.9263(8) 0.1430(5) 0.8173(4)
H21A H -0.9688 0.1084 0.7952
C33A C -0.8686(8) 0.2160(5) 0.7584(4)
H22A H -0.8713 0.2291 0.6984
C34A C -0.8072(8) 0.2689(5) 0.7894(4)
C35A C -0.8054(9) 0.2444(5) 0.8793(4)
H23A H -0.7634 0.2776 0.9032
C36A C -0.8655(10) 0.1714(5) 0.9325(5)
H24A H -0.8649 0.1574 0.9929
N1A N 0.2106(6) 1.1702(3) 0.5121(3)
N2A N 0.2806(6) 1.0822(3) 0.5271(3)
N3A N 0.0259(6) 1.0841(4) 0.5857(4)
N4A N 0.3534(6) 0.9042(3) 0.5665(3)
N5A N -0.3078(6) 1.3886(3) 0.5243(3)
C1A C 0.3907(9) 0.8148(5) 0.5844(4)
H1A H 0.4938 0.7896 0.5663
C2A C 0.2877(10) 0.7596(5) 0.6270(5)
H2A H 0.3204 0.6982 0.6382
C3A C 0.1353(11) 0.7943(5) 0.6534(6)
H3A H 0.0619 0.7577 0.6833
C4A C 0.0939(10) 0.8863(5) 0.6340(5)
H4A H -0.0094 0.9124 0.6497
C5A C 0.2030(8) 0.9382(4) 0.5923(4)
C6A C 0.1679(8) 1.0357(4) 0.5700(4)
C7A C 0.0603(8) 1.1668(4) 0.5486(4)
C8A C -0.1630(9) 1.3995(5) 0.4971(5)
H5A H -0.1424 1.4568 0.4701
C9A C -0.0386(9) 1.3305(5) 0.5063(5)
H6A H 0.0621 1.3422 0.4867
C10A C -0.0643(8) 1.2456(4) 0.5441(4)
C11A C -0.2155(8) 1.2340(4) 0.5753(5)
H7A H -0.2397 1.1777 0.6038
C12A C -0.3313(8) 1.3068(5) 0.5639(5)
H8A H -0.4333 1.2975 0.5857
N6A N 0.8188(7) 0.9820(4) 0.8650(3)
N7A N 0.8314(7) 1.0107(4) 0.9344(3)
N8A N 0.6052(7) 1.0820(4) 0.9021(4)
N9A N 0.8090(7) 1.0859(4) 1.0660(3)
N10A N 0.5381(6) 1.0032(4) 0.6264(3)
C13A C 0.7990(10) 1.1195(5) 1.1349(4)
H9A H 0.8841 1.1041 1.1610
C14A C 0.6766(11) 1.1735(6) 1.1691(5)
H10A H 0.6768 1.1947 1.2175
C15A C 0.5489(11) 1.1977(6) 1.1318(6)
H11A H 0.4611 1.2353 1.1545
C16A C 0.5552(10) 1.1641(6) 1.0586(5)
H12A H 0.4715 1.1793 1.0314
C17A C 0.6844(9) 1.1093(5) 1.0281(4)
C18A C 0.7027(9) 1.0688(5) 0.9548(4)
C19A C 0.6811(8) 1.0272(5) 0.8483(4)
C20A C 0.4767(8) 1.0714(5) 0.6645(4)
H13A H 0.4029 1.1155 0.6399
C21A C 0.5151(8) 1.0806(5) 0.7376(4)
H14A H 0.4675 1.1295 0.7620
C22A C 0.6259(8) 1.0163(5) 0.7749(4)
C23A C 0.6854(8) 0.9443(5) 0.7387(4)
H15A H 0.7565 0.8987 0.7639
C24A C 0.6416(8) 0.9382(5) 0.6651(4)
H16A H 0.6841 0.8884 0.6415
Ni2_2 Ni -0.5000 1.5000 0.5000
Ni2_3 Ni 1.5000 0.5000 0.5000
Ni3_2 Ni -1.0000 0.0000 1.0000
Ni3_3 Ni 1.0000 1.0000 1.0000
N5_2 N -0.6922(6) 0.6114(3) 0.4757(3)
N5A_2 N -0.3078(6) 0.3886(3) 0.5243(3)
N7A_2 N -0.1686(7) 1.0107(4) -0.0656(3)
N9A_2 N -0.1910(7) 1.0859(4) 0.0660(3)
N15A_2 N 0.0753(7) 1.1191(4) -0.0958(3)
N16 N 0.301(4) 0.699(2) 0.185(2)
O1 O 0.280(6) 0.641(3) 0.084(3)
C37 C 0.220(5) 0.659(3) 0.155(3)
H25 H 0.1226 0.6466 0.1876
C38 C 0.454(5) 0.720(3) 0.137(3)
H26 H 0.4964 0.6883 0.0910
H27 H 0.5204 0.7032 0.1787
H28 H 0.4445 0.7829 0.1117
C39 C 0.239(5) 0.724(3) 0.270(3)
H29 H 0.1290 0.7271 0.2863
H30 H 0.2629 0.7816 0.2643
H31 H 0.2856 0.6811 0.3150
N17 N 0.02(2) 0.382(16) 0.128(18)
O2 O 0.186(12) 0.317(9) 0.197(6)
C40 C 0.12(3) 0.310(15) 0.14(2)
H32 H 0.1489 0.2636 0.1113
C41 C -0.085(19) 0.395(13) 0.066(10)
H33 H -0.0781 0.4516 0.0238
H34 H -0.1903 0.3946 0.0989
H35 H -0.0524 0.3484 0.0346
C42 C -0.007(12) 0.450(7) 0.177(7)
H36 H -0.1159 0.4656 0.2029
H37 H 0.0301 0.5022 0.1376
H38 H 0.0484 0.4278 0.2243
loop_
_geom_bond_atom_site_label_1
_geom_bond_atom_site_label_2
_geom_bond_site_symmetry_1
_geom_bond_site_symmetry_2
Ni1 N2 1_555 1_555
Ni2 N12 1_555 1_555
Ni3 N7 1_555 1_555
N1 N2 1_555 1_555
N2 C6 1_555 1_555
N3 C6 1_555 1_555
N4 Ni1 1_555 1_555
N5 C8 1_555 1_555
N6 N7 1_555 1_555
N7 C18 1_555 1_555
N8 C18 1_555 1_555
N9 Ni3 1_555 1_555
N10 Ni1 1_555 1_555
N11 N12 1_555 1_555
N12 C30 1_555 1_555
N13 C30 1_555 1_555
N14 Ni2 1_555 1_555
N15 Ni3 1_555 1_555
C1 N4 1_555 1_555
H1 C1 1_555 1_555
C2 C1 1_555 1_555
H2 C2 1_555 1_555
C3 C2 1_555 1_555
H3 C3 1_555 1_555
C4 C3 1_555 1_555
H4 C4 1_555 1_555
C5 N4 1_555 1_555
C6 C5 1_555 1_555
C7 N1 1_555 1_555
C8 H5 1_555 1_555
C9 C8 1_555 1_555
H6 C9 1_555 1_555
C10 C7 1_555 1_555
C11 C10 1_555 1_555
H7 C11 1_555 1_555
C12 N5 1_555 1_555
H8 C12 1_555 1_555
C13 N9 1_555 1_555
H9 C13 1_555 1_555
C14 C13 1_555 1_555
H10 C14 1_555 1_555
C15 C14 1_555 1_555
H11 C15 1_555 1_555
C16 C15 1_555 1_555
H12 C16 1_555 1_555
C17 N9 1_555 1_555
C18 C17 1_555 1_555
C19 N6 1_555 1_555
C20 N10 1_555 1_555
H13 C20 1_555 1_555
C21 C20 1_555 1_555
H14 C21 1_555 1_555
C22 C19 1_555 1_555
C23 C22 1_555 1_555
H15 C23 1_555 1_555
C24 N10 1_555 1_555
H16 C24 1_555 1_555
C25 N14 1_555 1_555
H17 C25 1_555 1_555
C26 C25 1_555 1_555
H18 C26 1_555 1_555
C27 C26 1_555 1_555
H19 C27 1_555 1_555
C28 C27 1_555 1_555
H20 C28 1_555 1_555
C29 N14 1_555 1_555
C30 C29 1_555 1_555
C31 N11 1_555 1_555
C32 N15 1_555 1_555
H21 C32 1_555 1_555
C33 C32 1_555 1_555
H22 C33 1_555 1_555
C34 C31 1_555 1_555
C35 C34 1_555 1_555
H23 C35 1_555 1_555
C36 N15 1_555 1_555
H24 C36 1_555 1_555
N16 C37 1_555 1_555
O1 C37 1_555 1_555
C37 H25 1_555 1_555
C38 N16 1_555 1_555
H26 C38 1_555 1_555
H27 C38 1_555 1_555
H28 C38 1_555 1_555
C39 N16 1_555 1_555
H29 C39 1_555 1_555
H30 C39 1_555 1_555
H31 C39 1_555 1_555
N17 C40 1_555 1_555
O2 C40 1_555 1_555
C40 H32 1_555 1_555
C41 N17 1_555 1_555
H33 C41 1_555 1_555
H34 C41 1_555 1_555
H35 C41 1_555 1_555
C42 N17 1_555 1_555
H36 C42 1_555 1_555
H37 C42 1_555 1_555
H38 C42 1_555 1_555
N11A N12A 1_555 1_555
N12A Ni2 1_555 1_555
N13A C30A 1_555 1_555
N14A Ni2 1_555 1_555
N15A C32A 1_555 1_555
C25A N14A 1_555 1_555
H17A C25A 1_555 1_555
C26A C25A 1_555 1_555
H18A C26A 1_555 1_555
C27A C26A 1_555 1_555
H19A C27A 1_555 1_555
C28A C27A 1_555 1_555
H20A C28A 1_555 1_555
C29A N14A 1_555 1_555
C30A N12A 1_555 1_555
C31A N11A 1_555 1_555
C32A H21A 1_555 1_555
C33A C32A 1_555 1_555
H22A C33A 1_555 1_555
C34A C31A 1_555 1_555
C35A C34A 1_555 1_555
H23A C35A 1_555 1_555
C36A N15A 1_555 1_555
H24A C36A 1_555 1_555
N1A N2A 1_555 1_555
N2A Ni1 1_555 1_555
N3A C6A 1_555 1_555
N4A Ni1 1_555 1_555
N5A C8A 1_555 1_555
C1A N4A 1_555 1_555
H1A C1A 1_555 1_555
C2A C1A 1_555 1_555
H2A C2A 1_555 1_555
C3A C2A 1_555 1_555
H3A C3A 1_555 1_555
C4A C3A 1_555 1_555
H4A C4A 1_555 1_555
C5A N4A 1_555 1_555
C6A N2A 1_555 1_555
C7A N1A 1_555 1_555
C8A H5A 1_555 1_555
C9A C8A 1_555 1_555
H6A C9A 1_555 1_555
C10A C7A 1_555 1_555
C11A C10A 1_555 1_555
H7A C11A 1_555 1_555
C12A N5A 1_555 1_555
H8A C12A 1_555 1_555
N6A N7A 1_555 1_555
N7A C18A 1_555 1_555
N8A C18A 1_555 1_555
N9A C13A 1_555 1_555
N10A Ni1 1_555 1_555
C13A H9A 1_555 1_555
C14A C13A 1_555 1_555
H10A C14A 1_555 1_555
C15A C14A 1_555 1_555
H11A C15A 1_555 1_555
C16A C15A 1_555 1_555
H12A C16A 1_555 1_555
C17A N9A 1_555 1_555
C18A C17A 1_555 1_555
C19A N6A 1_555 1_555
C20A N10A 1_555 1_555
H13A C20A 1_555 1_555
C21A C20A 1_555 1_555
H14A C21A 1_555 1_555
C22A C19A 1_555 1_555
C23A C22A 1_555 1_555
H15A C23A 1_555 1_555
C24A N10A 1_555 1_555
H16A C24A 1_555 1_555
Ni2_2 N5A 1_555 1_555
Ni2_3 N5 1_555 1_555
Ni3_2 N15A 1_555 1_555
Ni3_3 N7A 1_555 1_555
N5_2 Ni2 1_555 1_555
N5A_2 Ni2 1_555 1_555
N7A_2 Ni3 1_555 1_555
N9A_2 Ni3 1_555 1_555
N15A_2 Ni3 1_555 1_555
N3 C7 1_555 1_555
N8 C19 1_555 1_555
N13 C31 1_555 1_555
C4 C5 1_555 1_555
C9 C10 1_555 1_555
C11 C12 1_555 1_555
C16 C17 1_555 1_555
C21 C22 1_555 1_555
C23 C24 1_555 1_555
C28 C29 1_555 1_555
C33 C34 1_555 1_555
C35 C36 1_555 1_555
N13A C31A 1_555 1_555
C28A C29A 1_555 1_555
C29A C30A 1_555 1_555
C33A C34A 1_555 1_555
C35A C36A 1_555 1_555
N3A C7A 1_555 1_555
C4A C5A 1_555 1_555
C5A C6A 1_555 1_555
C9A C10A 1_555 1_555
C11A C12A 1_555 1_555
N8A C19A 1_555 1_555
N9A Ni3_3 1_555 1_555
C16A C17A 1_555 1_555
C21A C22A 1_555 1_555
C23A C24A 1_555 1_555

#END
