
#######################################################################
#
#                 Cambridge Crystallographic Data Centre
#                                CCDC 
#
#######################################################################
#
# If this CIF has been generated from an entry in the Cambridge 
# Structural Database, then it will include bibliographic, chemical, 
# crystal, experimental, refinement or atomic coordinate data resulting 
# from the CCDC's data processing and validation procedures.
#
#######################################################################

data_ILIMOH
_chemical_formula_moiety         '(C30 H25 N13 Ni1)n'
_symmetry_cell_setting           rhombohedral
_symmetry_space_group_name_H-M   'R -3'
_symmetry_Int_Tables_number      148
_space_group_name_Hall           '-R 3'
loop_
_symmetry_equiv_pos_site_id
_symmetry_equiv_pos_as_xyz
1 x,y,z
2 -y,x-y,z
3 -x+y,-x,z
4 2/3+x,1/3+y,1/3+z
5 2/3-y,1/3+x-y,1/3+z
6 2/3-x+y,1/3-x,1/3+z
7 1/3+x,2/3+y,2/3+z
8 1/3-y,2/3+x-y,2/3+z
9 1/3-x+y,2/3-x,2/3+z
10 -x,-y,-z
11 y,-x+y,-z
12 x-y,x,-z
13 1/3-x,2/3-y,2/3-z
14 1/3+y,2/3-x+y,2/3-z
15 1/3+x-y,2/3+x,2/3-z
16 2/3-x,1/3-y,1/3-z
17 2/3+y,1/3-x+y,1/3-z
18 2/3+x-y,1/3+x,1/3-z
_cell_length_a                   27.7371(17)
_cell_length_b                   27.7371(17)
_cell_length_c                   9.6225(12)
_cell_angle_alpha                90
_cell_angle_beta                 90
_cell_angle_gamma                120
_cell_volume                     6411.22
loop_
_atom_site_label
_atom_site_type_symbol
_atom_site_fract_x
_atom_site_fract_y
_atom_site_fract_z
Ni1 Ni 0.8333 0.6667 -0.3333
N1 N 0.7915(2) 0.7207(3) -0.1100(6)
N2 N 0.8028(3) 0.6807(3) -0.1568(7)
N3 N 0.7659(3) 0.6534(3) 0.0560(7)
N4 N 0.8189(3) 0.5966(3) -0.2051(7)
N5 N 0.7101(3) 0.7925(3) 0.2452(7)
C1 C 0.8309(4) 0.5562(4) -0.2317(11)
H1 H 0.8458 0.5555 -0.3178
C2 C 0.8218(4) 0.5158(5) -0.1356(12)
H2 H 0.8303 0.4883 -0.1575
C3 C 0.8004(4) 0.5160(4) -0.0088(12)
H3 H 0.7944 0.4889 0.0568
C4 C 0.7878(4) 0.5568(4) 0.0209(10)
H4 H 0.7732 0.5579 0.1071
C5 C 0.7971(3) 0.5959(4) -0.0784(9)
C6 C 0.7875(3) 0.6429(4) -0.0580(9)
C7 C 0.7693(3) 0.7018(3) 0.0153(8)
C8 C 0.7418(4) 0.8134(3) 0.1326(9)
H5 H 0.7508 0.8489 0.1039
C9 C 0.7616(4) 0.7859(3) 0.0578(9)
H6 H 0.7828 0.8022 -0.0215
C10 C 0.7504(3) 0.7335(3) 0.0991(8)
C11 C 0.7189(4) 0.7120(3) 0.2163(8)
H7 H 0.7110 0.6773 0.2491
C12 C 0.6990(4) 0.7419(3) 0.2856(9)
H8 H 0.6769 0.7261 0.3638
N1O N 0.8752(2) 0.6126(3) -0.5567(6)
N2O N 0.8639(3) 0.6526(3) -0.5099(7)
N3O N 0.9008(3) 0.6799(3) -0.7227(7)
N4O N 0.8478(3) 0.7367(3) -0.4616(7)
N5O N 0.9566(3) 0.5408(3) -0.9119(7)
C1O C 0.8358(4) 0.7771(4) -0.4350(11)
H1O H 0.8209 0.7778 -0.3489
C2O C 0.8449(4) 0.8175(5) -0.5311(12)
H2O H 0.8364 0.8450 -0.5092
C3O C 0.8663(4) 0.8173(4) -0.6579(12)
H3O H 0.8723 0.8444 -0.7235
C4O C 0.8789(4) 0.7765(4) -0.6876(10)
H4O H 0.8935 0.7754 -0.7738
C5O C 0.8696(3) 0.7374(4) -0.5883(9)
C6O C 0.8792(3) 0.6904(4) -0.6087(9)
C7O C 0.8974(3) 0.6315(3) -0.6820(8)
C8O C 0.9249(4) 0.5199(3) -0.7993(9)
H5O H 0.9159 0.4844 -0.7706
C9O C 0.9051(4) 0.5474(3) -0.7245(9)
H6O H 0.8839 0.5311 -0.6452
C10O C 0.9163(3) 0.5998(3) -0.7658(8)
C11O C 0.9478(4) 0.6213(3) -0.8830(8)
H7O H 0.9557 0.6560 -0.9158
C12O C 0.9677(4) 0.5914(3) -0.9523(9)
H8O H 0.9898 0.6072 -1.0305
Ni1D Ni 1.0000 0.4999 -1.0000
Ni1G Ni 0.6666 0.8333 0.3334
N5E N 0.7491(4) 0.6232(3) -0.4215(7)
N5K N 0.9176(4) 0.7101(3) -0.2452(7)
N6 N 0.802(8) 0.381(7) 0.268(19)
C13 C 0.767(12) 0.352(11) 0.17(3)
C14 C 0.733(10) 0.353(18) 0.05(3)
H9 H 0.7308 0.3866 0.0532
H10 H 0.6959 0.3214 0.0536
H11 H 0.7505 0.3521 -0.0350
N6A N 0.619(7) 0.421(11) 0.268(19)
C13A C 0.648(11) 0.415(16) 0.17(3)
C14A C 0.647(18) 0.380(21) 0.05(3)
H9A H 0.6134 0.3442 0.0532
H10A H 0.6786 0.3745 0.0536
H11A H 0.6479 0.3984 -0.0350
N6B N 0.579(11) 0.198(8) 0.268(19)
C13B C 0.585(16) 0.233(12) 0.17(3)
C14B C 0.620(21) 0.267(10) 0.05(3)
H9B H 0.6558 0.2692 0.0532
H10B H 0.6255 0.3041 0.0536
H11B H 0.6016 0.2495 -0.0350
loop_
_geom_bond_atom_site_label_1
_geom_bond_atom_site_label_2
_geom_bond_site_symmetry_1
_geom_bond_site_symmetry_2
Ni1 N2 1_555 1_555
N1 N2 1_555 1_555
N2 C6 1_555 1_555
N3 C6 1_555 1_555
N4 Ni1 1_555 1_555
N5 C8 1_555 1_555
C1 N4 1_555 1_555
H1 C1 1_555 1_555
C2 C1 1_555 1_555
H2 C2 1_555 1_555
C3 C2 1_555 1_555
H3 C3 1_555 1_555
C4 C3 1_555 1_555
H4 C4 1_555 1_555
C5 N4 1_555 1_555
C6 C5 1_555 1_555
C7 N1 1_555 1_555
C8 H5 1_555 1_555
C9 C8 1_555 1_555
H6 C9 1_555 1_555
C10 C7 1_555 1_555
C11 C10 1_555 1_555
H7 C11 1_555 1_555
C12 N5 1_555 1_555
H8 C12 1_555 1_555
N6 C13 1_555 1_555
C13 C14 1_555 1_555
C14 H9 1_555 1_555
H10 C14 1_555 1_555
H11 C14 1_555 1_555
N1O N2O 1_555 1_555
N2O Ni1 1_555 1_555
N3O C6O 1_555 1_555
N4O Ni1 1_555 1_555
N5O C8O 1_555 1_555
C1O N4O 1_555 1_555
H1O C1O 1_555 1_555
C2O C1O 1_555 1_555
H2O C2O 1_555 1_555
C3O C2O 1_555 1_555
H3O C3O 1_555 1_555
C4O C3O 1_555 1_555
H4O C4O 1_555 1_555
C5O N4O 1_555 1_555
C6O N2O 1_555 1_555
C7O N1O 1_555 1_555
C8O H5O 1_555 1_555
C9O C8O 1_555 1_555
H6O C9O 1_555 1_555
C10O C7O 1_555 1_555
C11O C10O 1_555 1_555
H7O C11O 1_555 1_555
C12O N5O 1_555 1_555
H8O C12O 1_555 1_555
Ni1D N5O 1_555 1_555
Ni1G N5 1_555 1_555
N5E Ni1 1_555 1_555
N5K Ni1 1_555 1_555
N6A C13A 1_555 1_555
C13A C14A 1_555 1_555
C14A H9A 1_555 1_555
H10A C14A 1_555 1_555
H11A C14A 1_555 1_555
N6B C13B 1_555 1_555
C13B C14B 1_555 1_555
C14B H9B 1_555 1_555
H10B C14B 1_555 1_555
H11B C14B 1_555 1_555
N3 C7 1_555 1_555
C4 C5 1_555 1_555
C9 C10 1_555 1_555
C11 C12 1_555 1_555
N3O C7O 1_555 1_555
C4O C5O 1_555 1_555
C5O C6O 1_555 1_555
C9O C10O 1_555 1_555
C11O C12O 1_555 1_555

#END
