
#######################################################################
#
#                 Cambridge Crystallographic Data Centre
#                                CCDC 
#
#######################################################################
#
# If this CIF has been generated from an entry in the Cambridge 
# Structural Database, then it will include bibliographic, chemical, 
# crystal, experimental, refinement or atomic coordinate data resulting 
# from the CCDC's data processing and validation procedures.
#
#######################################################################

data_RIXBEG
_chemical_formula_moiety         '(C48 H50 Mn2 N8 O18 S2)n'
_symmetry_cell_setting           monoclinic
_symmetry_space_group_name_H-M   'C 2/c'
_symmetry_Int_Tables_number      15
_space_group_name_Hall           '-C 2yc'
loop_
_symmetry_equiv_pos_site_id
_symmetry_equiv_pos_as_xyz
1 x,y,z
2 1/2+x,1/2+y,z
3 -x,y,1/2-z
4 1/2-x,1/2+y,1/2-z
5 -x,-y,-z
6 1/2-x,1/2-y,-z
7 x,-y,1/2+z
8 1/2+x,1/2-y,1/2+z
_cell_length_a                   25.2321(16)
_cell_length_b                   8.6715(5)
_cell_length_c                   27.4412(17)
_cell_angle_alpha                90
_cell_angle_beta                 94.0970(10)
_cell_angle_gamma                90
_cell_volume                     5988.8
loop_
_atom_site_label
_atom_site_type_symbol
_atom_site_fract_x
_atom_site_fract_y
_atom_site_fract_z
Mn1 Mn 0.72904(2) 0.60654(6) 0.797475(18)
S1 S 0.82709(5) 1.07852(15) 0.90883(4)
O1 O 0.73521(12) 0.8482(3) 0.78473(10)
O2 O 0.76089(11) 1.0917(3) 0.78104(9)
O3 O 0.85625(15) 0.9977(5) 0.87353(13)
O4 O 0.84654(17) 1.2217(5) 0.92938(13)
O5 O 0.79265(19) 1.1132(3) 1.09589(12)
O6 O 0.78375(12) 0.8746(3) 1.12405(9)
O7 O 0.71450(13) 0.3633(3) 0.80842(10)
H1 H 0.7085 0.3446 0.8371
H2 H 0.7315 0.2914 0.7967
N1 N 0.76863(15) 1.1117(4) 0.88409(12)
H11 H 0.7551 1.2023 0.8860
N2 N 0.81972(14) 0.5929(4) 0.81361(13)
N3 N 1.0993(3) 0.5343(14) 0.8638(4)
N4 N 0.63889(13) 0.6208(4) 0.77916(13)
C1 C 0.74636(13) 0.9749(4) 0.80386(12)
C2 C 0.73806(16) 0.9896(4) 0.85835(13)
H12 H 0.7006 1.0079 0.8620
H13 H 0.7472 0.8920 0.8740
C3 C 0.82044(16) 0.9476(5) 0.95776(14)
C4 C 0.82661(18) 0.7909(6) 0.95056(15)
H14 H 0.8333 0.7528 0.9199
C5 C 0.82274(18) 0.6916(5) 0.98968(15)
H15 H 0.8273 0.5861 0.9854
C6 C 0.81211(16) 0.7484(5) 1.03500(14)
H16 H 0.8096 0.6808 1.0610
C7 C 0.80513(15) 0.9063(4) 1.04209(13)
C8 C 0.80912(16) 1.0070(5) 1.00310(13)
H17 H 0.8043 1.1124 1.0072
C9 C 0.79281(16) 0.9692(4) 1.09105(13)
C10 C 0.85350(19) 0.6840(9) 0.7919(2)
H18 H 0.8396 0.7599 0.7707
C11 C 0.9080(2) 0.6716(11) 0.7994(3)
H19 H 0.9297 0.7347 0.7819
C12 C 0.9306(2) 0.5671(9) 0.8323(2)
C13 C 0.8957(2) 0.4789(7) 0.8571(3)
H20 H 0.9086 0.4087 0.8807
C14 C 0.84124(19) 0.4957(6) 0.8466(2)
H21 H 0.8186 0.4349 0.8638
C15 C 0.9891(2) 0.5555(11) 0.8423(3)
C16 C 1.0233(3) 0.6632(19) 0.8270(5)
H22 H 1.0105 0.7485 0.8093
C17 C 1.0771(4) 0.645(2) 0.8381(6)
H23 H 1.0994 0.7182 0.8259
C18 C 1.0653(3) 0.4211(15) 0.8803(5)
H24 H 1.0796 0.3378 0.8981
C19 C 1.0108(3) 0.4308(13) 0.8707(4)
H25 H 0.9886 0.3563 0.8826
C20 C 0.6186(2) 0.6454(10) 0.7356(2)
H26 H 0.6416 0.6669 0.7114
C21 C 0.5645(2) 0.6419(11) 0.7224(2)
H27 H 0.5526 0.6564 0.6899
C22 C 0.52898(16) 0.6175(5) 0.75622(16)
C23 C 0.5501(2) 0.5846(12) 0.8016(2)
H28 H 0.5282 0.5604 0.8263
C24 C 0.6048(2) 0.5872(12) 0.8109(2)
H29 H 0.6182 0.5630 0.8425
Mn1C Mn 0.77096(2) 0.10654(6) 0.702525(18)
Mn1C_2 Mn 0.77096(2) 1.10654(6) 0.702525(18)
Mn1E Mn 0.77096(2) 0.89346(6) 1.202525(18)
Mn1B Mn 0.27096(2) 0.60654(6) 0.702525(18)
Mn1F Mn 0.72904(2) 0.39346(6) 0.297475(18)
S1C S 0.67291(5) 0.57852(15) 0.59117(4)
O1C O 0.76479(12) 0.3482(3) 0.71527(10)
O2C O 0.73911(11) 0.5917(3) 0.71896(9)
O2_2 O 0.76089(11) 0.0917(3) 0.78104(9)
O3C O 0.64375(15) 0.4977(5) 0.62647(13)
O4C O 0.65346(17) 0.7217(5) 0.57062(13)
O5C O 0.70735(19) 0.6132(3) 0.40411(12)
O6C O 0.71625(12) 0.3746(3) 0.37595(9)
O6E O 0.71625(12) 0.6254(3) 0.87595(9)
O6F O 0.78375(12) 0.1254(3) 0.62405(9)
O7C O 0.78550(13) -0.1367(3) 0.69158(10)
H1C H 0.7915 -0.1554 0.6629
H2C H 0.7685 -0.2086 0.7033
N1C N 0.73137(15) 0.6117(4) 0.61591(12)
H11C H 0.7449 0.7023 0.6140
N2C N 0.68028(14) 0.0929(4) 0.68639(13)
N3C N 0.4007(3) 0.0343(14) 0.6362(4)
N4B N 0.36111(13) 0.6208(4) 0.72084(13)
N4C N 0.86111(13) 0.1208(4) 0.72084(13)
C1C C 0.75364(13) 0.4749(4) 0.69614(12)
C2C C 0.76194(16) 0.4896(4) 0.64165(13)
H12C H 0.7994 0.5079 0.6380
H13C H 0.7528 0.3920 0.6260
C3C C 0.67956(16) 0.4476(5) 0.54224(14)
C4C C 0.67339(18) 0.2909(6) 0.54944(15)
H14C H 0.6667 0.2528 0.5801
C5C C 0.67726(18) 0.1916(5) 0.51032(15)
H15C H 0.6727 0.0861 0.5146
C6C C 0.68789(16) 0.2484(5) 0.46500(14)
H16C H 0.6904 0.1808 0.4390
C7C C 0.69487(15) 0.4063(4) 0.45791(13)
C8C C 0.69088(16) 0.5070(5) 0.49690(13)
H17C H 0.6957 0.6124 0.4928
C9C C 0.70719(16) 0.4692(4) 0.40895(13)
C10C C 0.64650(19) 0.1840(9) 0.7081(2)
H18C H 0.6604 0.2599 0.7293
C11C C 0.5920(2) 0.1716(11) 0.7006(3)
H19C H 0.5703 0.2347 0.7181
C12C C 0.5694(2) 0.0671(9) 0.6677(2)
C13C C 0.6043(2) -0.0211(7) 0.6429(3)
H20C H 0.5914 -0.0913 0.6193
C14C C 0.65876(19) -0.0043(6) 0.6534(2)
H21C H 0.6814 -0.0651 0.6362
C15C C 0.5109(2) 0.0555(11) 0.6577(3)
C16C C 0.4767(3) 0.1632(19) 0.6730(5)
H22C H 0.4895 0.2485 0.6907
C17C C 0.4229(4) 0.145(2) 0.6619(6)
H23C H 0.4006 0.2182 0.6741
C18C C 0.4347(3) -0.0789(15) 0.6197(5)
H24C H 0.4204 -0.1622 0.6019
C19C C 0.4892(3) -0.0692(13) 0.6293(4)
H25C H 0.5114 -0.1437 0.6174
C20B C 0.3814(2) 0.6454(10) 0.7644(2)
H26B H 0.3584 0.6669 0.7886
C21B C 0.4355(2) 0.6419(11) 0.7776(2)
H27B H 0.4474 0.6564 0.8101
C22B C 0.47102(16) 0.6175(5) 0.74378(16)
C23B C 0.4499(2) 0.5846(12) 0.6984(2)
H28B H 0.4718 0.5604 0.6737
C24B C 0.3952(2) 0.5872(12) 0.6891(2)
H29B H 0.3818 0.5630 0.6575
O8 O 0.9572(4) 0.5038(16) 0.9880(4)
H3 H 0.9489 0.5843 0.9751
H4 H 0.9425 0.4292 0.9982
O9 O 0.0142(5) 0.7117(18) 0.9727(5)
H5 H 0.0098 0.6260 0.9870
H6 H -0.0171 0.7443 0.9653
O10 O 0.5095(9) 0.510(3) 0.9303(9)
H7 H 0.5411 0.4934 0.9272
H8 H 0.4871 0.4979 0.9069
O11 O 0.678(4) 0.933(13) 0.455(3)
H9 H 0.6558 0.8659 0.4462
H10 H 0.6910 0.9733 0.4314
loop_
_geom_bond_atom_site_label_1
_geom_bond_atom_site_label_2
_geom_bond_site_symmetry_1
_geom_bond_site_symmetry_2
Mn1 O1 1_555 1_555
S1 O3 1_555 1_555
O1 C1 1_555 1_555
O2 C1 1_555 1_555
O4 S1 1_555 1_555
O5 C9 1_555 1_555
O6 C9 1_555 1_555
O7 Mn1 1_555 1_555
H1 O7 1_555 1_555
H2 O7 1_555 1_555
O8 H3 1_555 1_555
H4 O8 1_555 1_555
O9 H5 1_555 1_555
H6 O9 1_555 1_555
O10 H7 1_555 1_555
H8 O10 1_555 1_555
O11 H9 1_555 1_555
H10 O11 1_555 1_555
N1 S1 1_555 1_555
H11 N1 1_555 1_555
N2 Mn1 1_555 1_555
N3 C17 1_555 1_555
N4 Mn1 1_555 1_555
C1 C2 1_555 1_555
C2 N1 1_555 1_555
H12 C2 1_555 1_555
H13 C2 1_555 1_555
C3 S1 1_555 1_555
C4 C3 1_555 1_555
H14 C4 1_555 1_555
C5 C4 1_555 1_555
H15 C5 1_555 1_555
C6 C5 1_555 1_555
H16 C6 1_555 1_555
C7 C6 1_555 1_555
C8 C3 1_555 1_555
H17 C8 1_555 1_555
C9 C7 1_555 1_555
C10 N2 1_555 1_555
H18 C10 1_555 1_555
C11 C10 1_555 1_555
H19 C11 1_555 1_555
C12 C11 1_555 1_555
C13 C12 1_555 1_555
H20 C13 1_555 1_555
C14 N2 1_555 1_555
H21 C14 1_555 1_555
C15 C12 1_555 1_555
C16 C15 1_555 1_555
H22 C16 1_555 1_555
C17 C16 1_555 1_555
H23 C17 1_555 1_555
C18 N3 1_555 1_555
H24 C18 1_555 1_555
C19 C15 1_555 1_555
H25 C19 1_555 1_555
C20 N4 1_555 1_555
H26 C20 1_555 1_555
C21 C20 1_555 1_555
H27 C21 1_555 1_555
C22 C21 1_555 1_555
C23 C22 1_555 1_555
H28 C23 1_555 1_555
C24 N4 1_555 1_555
H29 C24 1_555 1_555
Mn1C O1C 1_555 1_555
Mn1C_2 O2 1_555 1_555
Mn1E O6 1_555 1_555
Mn1B N4B 1_555 1_555
Mn1F O6C 1_555 1_555
S1C O3C 1_555 1_555
O1C C1C 1_555 1_555
O2C Mn1 1_555 1_555
O2_2 Mn1C 1_555 1_555
O4C S1C 1_555 1_555
O5C C9C 1_555 1_555
O6C C9C 1_555 1_555
O6E Mn1 1_555 1_555
O6F Mn1C 1_555 1_555
O7C Mn1C 1_555 1_555
H1C O7C 1_555 1_555
H2C O7C 1_555 1_555
N1C S1C 1_555 1_555
H11C N1C 1_555 1_555
N2C Mn1C 1_555 1_555
N3C C17C 1_555 1_555
N4B C20B 1_555 1_555
N4C Mn1C 1_555 1_555
C1C O2C 1_555 1_555
C2C N1C 1_555 1_555
H12C C2C 1_555 1_555
H13C C2C 1_555 1_555
C3C S1C 1_555 1_555
C4C C3C 1_555 1_555
H14C C4C 1_555 1_555
C5C C4C 1_555 1_555
H15C C5C 1_555 1_555
C6C C5C 1_555 1_555
H16C C6C 1_555 1_555
C7C C6C 1_555 1_555
C8C C3C 1_555 1_555
H17C C8C 1_555 1_555
C9C C7C 1_555 1_555
C10C N2C 1_555 1_555
H18C C10C 1_555 1_555
C11C C10C 1_555 1_555
H19C C11C 1_555 1_555
C12C C11C 1_555 1_555
C13C C12C 1_555 1_555
H20C C13C 1_555 1_555
C14C N2C 1_555 1_555
H21C C14C 1_555 1_555
C15C C12C 1_555 1_555
C16C C15C 1_555 1_555
H22C C16C 1_555 1_555
C17C C16C 1_555 1_555
H23C C17C 1_555 1_555
C18C N3C 1_555 1_555
H24C C18C 1_555 1_555
C19C C15C 1_555 1_555
H25C C19C 1_555 1_555
C20B H26B 1_555 1_555
C21B C20B 1_555 1_555
H27B C21B 1_555 1_555
C22B C22 1_555 1_555
C23B C22B 1_555 1_555
H28B C23B 1_555 1_555
C24B N4B 1_555 1_555
H29B C24B 1_555 1_555
C7 C8 1_555 1_555
C13 C14 1_555 1_555
C18 C19 1_555 1_555
C23 C24 1_555 1_555
C1C C2C 1_555 1_555
C7C C8C 1_555 1_555
C13C C14C 1_555 1_555
C18C C19C 1_555 1_555
C21B C22B 1_555 1_555
C23B C24B 1_555 1_555

#END
