
#######################################################################
#
#                 Cambridge Crystallographic Data Centre
#                                CCDC 
#
#######################################################################
#
# If this CIF has been generated from an entry in the Cambridge 
# Structural Database, then it will include bibliographic, chemical, 
# crystal, experimental, refinement or atomic coordinate data resulting 
# from the CCDC's data processing and validation procedures.
#
#######################################################################

data_RIXBIK
_chemical_formula_moiety         '(C19 H23 Mn1 N3 O10 S1)n'
_symmetry_cell_setting           monoclinic
_symmetry_space_group_name_H-M   'P 21/n'
_symmetry_Int_Tables_number      14
_space_group_name_Hall           '-P 2yn'
loop_
_symmetry_equiv_pos_site_id
_symmetry_equiv_pos_as_xyz
1 x,y,z
2 1/2-x,1/2+y,1/2-z
3 -x,-y,-z
4 1/2+x,1/2-y,1/2+z
_cell_length_a                   11.663(3)
_cell_length_b                   8.708(2)
_cell_length_c                   27.218(7)
_cell_angle_alpha                90
_cell_angle_beta                 101.485(4)
_cell_angle_gamma                90
_cell_volume                     2708.95
loop_
_atom_site_label
_atom_site_type_symbol
_atom_site_fract_x
_atom_site_fract_y
_atom_site_fract_z
Mn1 Mn 1.25385(7) 0.63387(9) 0.19667(3)
S1 S 0.94564(17) 0.1601(2) 0.11159(6)
O1 O 1.2564(3) 0.3909(4) 0.21093(14)
O2 O 1.1989(3) 0.1531(4) 0.22120(13)
O3 O 0.9223(5) 0.2310(7) 0.15590(17)
O4 O 0.8937(5) 0.0155(6) 0.09498(19)
O5 O 0.8082(6) 0.1417(5) -0.08516(17)
O6 O 0.7919(4) 0.3815(4) -0.11403(14)
O7 O 1.2648(4) 0.8785(4) 0.18322(14)
H1 H 1.2447 0.8863 0.1520
H2 H 1.2411 0.9552 0.1967
N1 N 1.0844(5) 0.1359(6) 0.11946(19)
H9 H 1.1116 0.0485 0.1125
N2 N 1.0586(4) 0.6362(5) 0.19994(17)
N3 N 0.4487(4) 0.6231(6) 0.19503(18)
C1 C 1.2089(5) 0.2675(6) 0.19468(19)
C2 C 1.1645(6) 0.2595(7) 0.1381(2)
H10 H 1.2318 0.2510 0.1223
H11 H 1.1261 0.3560 0.1273
C3 C 0.9033(6) 0.2931(7) 0.0619(2)
C4 C 0.8795(5) 0.2404(7) 0.0129(2)
H12 H 0.8874 0.1366 0.0063
C5 C 0.8438(5) 0.3427(6) -0.0261(2)
C6 C 0.8334(6) 0.4974(7) -0.0153(2)
H13 H 0.8098 0.5665 -0.0414
C7 C 0.8575(7) 0.5501(8) 0.0333(2)
H14 H 0.8505 0.6541 0.0401
C8 C 0.8927(7) 0.4456(8) 0.0728(2)
H15 H 0.9087 0.4794 0.1058
C9 C 0.8141(5) 0.2855(6) -0.0795(2)
C10 C 1.0107(5) 0.5353(8) 0.2265(2)
H16 H 1.0595 0.4634 0.2455
C11 C 0.8941(5) 0.5310(7) 0.2276(2)
H17 H 0.8654 0.4583 0.2470
C12 C 0.8191(5) 0.6354(6) 0.1995(2)
C13 C 0.8679(5) 0.7397(7) 0.1715(2)
H18 H 0.8210 0.8115 0.1516
C14 C 0.9871(5) 0.7363(7) 0.1734(2)
H19 H 1.0188 0.8089 0.1548
C15 C 0.6912(5) 0.6319(6) 0.1979(2)
C16 C 0.6445(6) 0.5762(9) 0.2377(2)
H20 H 0.6937 0.5399 0.2665
C17 C 0.5250(5) 0.5752(8) 0.2342(2)
H21 H 0.4964 0.5379 0.2614
C18 C 0.4934(6) 0.6795(10) 0.1574(3)
H22 H 0.4418 0.7166 0.1294
C19 C 0.6111(6) 0.6861(9) 0.1576(3)
H23 H 0.6369 0.7275 0.1302
Mn1A Mn 1.24615(7) 0.13387(9) 0.30333(3)
Mn1B Mn 0.74615(7) 0.36613(9) -0.19667(3)
Mn1_2 Mn 0.25385(7) 0.63387(9) 0.19667(3)
O2A O 1.3011(3) 0.6531(4) 0.27880(13)
O6B O 1.2081(4) 0.6185(4) 0.11403(14)
N3_2 N 1.4487(4) 0.6231(6) 0.19503(18)
O8 O 0.2940(16) 0.1086(19) 0.0389(6)
H3 H 0.3237 0.0299 0.0534
H4 H 0.2515 0.1539 0.0544
O9 O 0.329(2) 0.111(3) 0.9517(8)
H5 H 0.4000 0.1105 0.9494
H6 H 0.3188 0.1838 0.9706
O10 O 0.408(3) 0.834(3) 0.8642(10)
H7 H 0.4333 0.9016 0.8855
H8 H 0.4646 0.7863 0.8563
loop_
_geom_bond_atom_site_label_1
_geom_bond_atom_site_label_2
_geom_bond_site_symmetry_1
_geom_bond_site_symmetry_2
Mn1 O1 1_555 1_555
S1 O3 1_555 1_555
O1 C1 1_555 1_555
O2 C1 1_555 1_555
O4 S1 1_555 1_555
O5 C9 1_555 1_555
O6 C9 1_555 1_555
O7 Mn1 1_555 1_555
H1 O7 1_555 1_555
H2 O7 1_555 1_555
O8 H3 1_555 1_555
H4 O8 1_555 1_555
O9 H5 1_555 1_555
H6 O9 1_555 1_555
O10 H7 1_555 1_555
H8 O10 1_555 1_555
N1 S1 1_555 1_555
H9 N1 1_555 1_555
N2 Mn1 1_555 1_555
N3 C17 1_555 1_555
C1 C2 1_555 1_555
C2 N1 1_555 1_555
H10 C2 1_555 1_555
H11 C2 1_555 1_555
C3 S1 1_555 1_555
C4 C3 1_555 1_555
H12 C4 1_555 1_555
C5 C4 1_555 1_555
C6 C5 1_555 1_555
H13 C6 1_555 1_555
C7 C6 1_555 1_555
H14 C7 1_555 1_555
C8 C3 1_555 1_555
H15 C8 1_555 1_555
C9 C5 1_555 1_555
C10 N2 1_555 1_555
H16 C10 1_555 1_555
C11 C10 1_555 1_555
H17 C11 1_555 1_555
C12 C11 1_555 1_555
C13 C12 1_555 1_555
H18 C13 1_555 1_555
C14 N2 1_555 1_555
H19 C14 1_555 1_555
C15 C12 1_555 1_555
C16 C15 1_555 1_555
H20 C16 1_555 1_555
C17 C16 1_555 1_555
H21 C17 1_555 1_555
C18 N3 1_555 1_555
H22 C18 1_555 1_555
C19 C15 1_555 1_555
H23 C19 1_555 1_555
Mn1A O2 1_555 1_555
Mn1B O6 1_555 1_555
Mn1_2 N3 1_555 1_555
O2A Mn1 1_555 1_555
O6B Mn1 1_555 1_555
N3_2 Mn1 1_555 1_555
C7 C8 1_555 1_555
C13 C14 1_555 1_555
C18 C19 1_555 1_555

#END
