
#######################################################################
#
#                 Cambridge Crystallographic Data Centre
#                                CCDC 
#
#######################################################################
#
# If this CIF has been generated from an entry in the Cambridge 
# Structural Database, then it will include bibliographic, chemical, 
# crystal, experimental, refinement or atomic coordinate data resulting 
# from the CCDC's data processing and validation procedures.
#
#######################################################################

data_ORULEU
_chemical_formula_moiety         '(C29 H27 Co3 N3 O15)n'
_symmetry_cell_setting           monoclinic
_symmetry_space_group_name_H-M   'P 21/n'
_symmetry_Int_Tables_number      14
_space_group_name_Hall           '-P 2yn'
loop_
_symmetry_equiv_pos_site_id
_symmetry_equiv_pos_as_xyz
1 x,y,z
2 1/2-x,1/2+y,1/2-z
3 -x,-y,-z
4 1/2+x,1/2-y,1/2+z
_cell_length_a                   11.545(4)
_cell_length_b                   20.225(6)
_cell_length_c                   14.390(4)
_cell_angle_alpha                90
_cell_angle_beta                 90.528(4)
_cell_angle_gamma                90
_cell_volume                     3359.89
loop_
_atom_site_label
_atom_site_type_symbol
_atom_site_fract_x
_atom_site_fract_y
_atom_site_fract_z
Co1 Co 0.24613(3) 0.121783(19) 0.23127(3)
Co2 Co 0.31192(4) 0.13856(2) 0.00057(3)
Co3 Co 0.14780(4) 0.25533(2) 0.09642(3)
O1 O 0.4199(2) 0.13397(14) 0.20482(17)
O2 O 0.4663(2) 0.16478(13) 0.06128(15)
O3 O 0.6486(2) 0.20313(13) 0.47164(16)
O4 O 0.8057(2) 0.26350(12) 0.44540(16)
O5 O 0.9823(2) 0.25618(13) 0.1290(2)
O6 O 0.9551(2) 0.15608(19) 0.0667(2)
O7 O 0.6830(3) -0.04205(12) -0.04030(19)
O8 O 0.7702(2) -0.02695(11) -0.17615(17)
O9 O 0.7357(3) 0.28617(12) -0.20112(18)
O10 O 0.7259(2) 0.20078(12) -0.29938(16)
O11 O 0.19691(18) 0.16218(11) 0.10261(15)
H1 H 0.141(2) 0.1370(17) 0.088(3)
O12 O 0.0686(3) 0.11237(18) 0.2770(2)
N1 N 0.3016(2) 0.07837(14) 0.36037(18)
N2 N 0.4019(4) 0.00170(17) 0.6200(2)
H2 H 0.4295 -0.0378 0.6225
N3 N 0.3641(3) 0.10212(15) 0.87164(19)
C1 C 0.6083(3) 0.17261(14) 0.1819(2)
C2 C 0.6170(3) 0.18609(15) 0.2770(2)
H3 H 0.5523 0.1803 0.3141
C3 C 0.7200(3) 0.20805(16) 0.3173(2)
C4 C 0.8157(3) 0.21638(17) 0.2611(2)
H4 H 0.8839 0.2332 0.2865
C5 C 0.8114(3) 0.19998(16) 0.1671(2)
C6 C 0.7072(3) 0.17797(14) 0.12589(19)
C7 C 0.7256(3) 0.22620(16) 0.4184(2)
C8 C 0.9234(3) 0.20401(19) 0.1146(2)
C9 C 0.7088(2) 0.15654(15) 0.0262(2)
C10 C 0.7193(3) 0.20141(15) -0.0471(2)
H5 H 0.7196 0.2466 -0.0350
C11 C 0.7294(3) 0.17868(15) -0.1385(2)
C12 C 0.7337(3) 0.11118(15) -0.1562(2)
H6 H 0.7426 0.0960 -0.2167
C13 C 0.7247(3) 0.06641(15) -0.0835(2)
C14 C 0.7100(3) 0.08951(15) 0.0066(2)
H7 H 0.7008 0.0593 0.0547
C15 C 0.7310(3) 0.22622(16) -0.2186(2)
C16 C 0.7266(3) -0.00665(15) -0.1016(2)
C17 C 0.3568(3) 0.11553(18) 0.4245(2)
H8 H 0.3715 0.1596 0.4102
C18 C 0.3927(3) 0.09240(18) 0.5096(2)
H9 H 0.4317 0.1200 0.5510
C19 C 0.3699(3) 0.02684(18) 0.5331(2)
C20 C 0.3175(4) -0.01334(19) 0.4665(3)
H10 H 0.3049 -0.0580 0.4781
C21 C 0.2846(4) 0.01460(19) 0.3823(3)
H11 H 0.2487 -0.0124 0.3385
C22 C 0.3921(3) 0.03669(18) 0.7027(2)
C23 C 0.4524(3) 0.01634(19) 0.7810(2)
H12 H 0.5028 -0.0195 0.7783
C24 C 0.4365(3) 0.05017(19) 0.8633(2)
H13 H 0.4779 0.0364 0.9155
C25 C 0.3077(4) 0.12074(18) 0.7952(3)
H14 H 0.2588 0.1571 0.7996
C26 C 0.31596(19) 0.09052(11) 0.71087(15)
H15 H 0.2725 0.1051 0.6602
C27 C 0.48828(19) 0.15564(11) 0.14511(15)
Co1B Co 0.75387(3) -0.121783(19) -0.23127(3)
Co1C Co 0.74613(3) 0.378217(19) -0.26873(3)
Co2_2 Co 0.31192(4) 0.13856(2) 1.00057(3)
Co2B Co 0.68808(4) -0.13856(2) -0.00057(3)
Co2C Co 0.81192(4) 0.36144(2) 0.50057(3)
Co3_2 Co 1.14780(4) 0.25533(2) 0.09642(3)
Co3C Co 0.64780(4) 0.24467(2) -0.40358(3)
Co3C_2 Co 0.64780(4) 0.24467(2) 0.59642(3)
O3C O 0.1486(2) 0.29687(13) -0.02836(16)
O4C O 0.3057(2) 0.23650(12) -0.05460(16)
O5_2 O -0.0177(2) 0.25618(13) 0.1290(2)
O7B O 0.3170(3) 0.04205(12) 0.04030(19)
O8B O 0.2298(2) 0.02695(11) 0.17615(17)
O9C O 0.2357(3) 0.21383(12) 0.29888(18)
O10C O 0.2259(2) 0.29922(12) 0.20062(16)
N3_2 N 0.3641(3) 0.10212(15) -0.12836(19)
O13 O 0.1168(4) 0.1206(3) -0.0732(3)
O14 O 0.0450(9) -0.0129(5) -0.1241(11)
O15 O 0.51331(19) 0.32330(11) -0.05114(15)
C28 C 0.54512(19) 0.35106(11) 0.03639(15)
C29 C 0.4629(19) 0.3660(10) 0.1242(14)
loop_
_geom_bond_atom_site_label_1
_geom_bond_atom_site_label_2
_geom_bond_site_symmetry_1
_geom_bond_site_symmetry_2
Co1 O1 1_555 1_555
Co2 O2 1_555 1_555
Co3 O11 1_555 1_555
O1 C27 1_555 1_555
O2 C27 1_555 1_555
O3 C7 1_555 1_555
O4 C7 1_555 1_555
O5 C8 1_555 1_555
O6 C8 1_555 1_555
O7 C16 1_555 1_555
O8 C16 1_555 1_555
O9 C15 1_555 1_555
O10 C15 1_555 1_555
O11 Co1 1_555 1_555
H1 O11 1_555 1_555
O12 Co1 1_555 1_555
N1 Co1 1_555 1_555
N2 H2 1_555 1_555
N3 C24 1_555 1_555
C1 C2 1_555 1_555
C2 H3 1_555 1_555
C3 C2 1_555 1_555
C4 C3 1_555 1_555
H4 C4 1_555 1_555
C5 C4 1_555 1_555
C6 C1 1_555 1_555
C7 C3 1_555 1_555
C8 C5 1_555 1_555
C9 C6 1_555 1_555
C10 C9 1_555 1_555
H5 C10 1_555 1_555
C11 C10 1_555 1_555
C12 C11 1_555 1_555
H6 C12 1_555 1_555
C13 C12 1_555 1_555
C14 C9 1_555 1_555
H7 C14 1_555 1_555
C15 C11 1_555 1_555
C16 C13 1_555 1_555
C17 N1 1_555 1_555
H8 C17 1_555 1_555
C18 C17 1_555 1_555
H9 C18 1_555 1_555
C19 N2 1_555 1_555
C20 C19 1_555 1_555
H10 C20 1_555 1_555
C21 N1 1_555 1_555
H11 C21 1_555 1_555
C22 N2 1_555 1_555
C23 C22 1_555 1_555
H12 C23 1_555 1_555
C24 C23 1_555 1_555
H13 C24 1_555 1_555
C25 N3 1_555 1_555
H14 C25 1_555 1_555
C26 C22 1_555 1_555
H15 C26 1_555 1_555
C27 C1 1_555 1_555
O15 C28 1_555 1_555
C28 C29 1_555 1_555
Co1B O8 1_555 1_555
Co1C O9 1_555 1_555
Co2_2 N3 1_555 1_555
Co2B O7 1_555 1_555
Co2C O4 1_555 1_555
Co3_2 O5 1_555 1_555
Co3C O10 1_555 1_555
Co3C_2 O3 1_555 1_555
O3C Co3 1_555 1_555
O4C Co2 1_555 1_555
O5_2 Co3 1_555 1_555
O7B Co2 1_555 1_555
O8B Co1 1_555 1_555
O9C Co1 1_555 1_555
O10C Co3 1_555 1_555
N3_2 Co2 1_555 1_555
Co2 O11 1_555 1_555
C5 C6 1_555 1_555
C13 C14 1_555 1_555
C18 C19 1_555 1_555
C20 C21 1_555 1_555
C25 C26 1_555 1_555

#END
