
#######################################################################
#
#                 Cambridge Crystallographic Data Centre
#                                CCDC 
#
#######################################################################
#
# If this CIF has been generated from an entry in the Cambridge 
# Structural Database, then it will include bibliographic, chemical, 
# crystal, experimental, refinement or atomic coordinate data resulting 
# from the CCDC's data processing and validation procedures.
#
#######################################################################

data_HABRIN
_chemical_formula_moiety         '(C40 H36 B2 N16 O10 Zn3)n'
_symmetry_cell_setting           monoclinic
_symmetry_space_group_name_H-M   'C 2/c'
_symmetry_Int_Tables_number      15
_space_group_name_Hall           '-C 2yc'
loop_
_symmetry_equiv_pos_site_id
_symmetry_equiv_pos_as_xyz
1 x,y,z
2 -x,y,1/2-z
3 1/2+x,1/2+y,z
4 1/2-x,1/2+y,1/2-z
5 -x,-y,-z
6 x,-y,1/2+z
7 1/2-x,1/2-y,-z
8 1/2+x,1/2-y,1/2+z
_cell_length_a                   13.1669(14)
_cell_length_b                   21.227(2)
_cell_length_c                   18.254(2)
_cell_angle_alpha                90
_cell_angle_beta                 106.787(7)
_cell_angle_gamma                90
_cell_volume                     4884.46
loop_
_atom_site_label
_atom_site_type_symbol
_atom_site_fract_x
_atom_site_fract_y
_atom_site_fract_z
B1 B 0.6271(7) 0.3386(4) 0.0547(5)
Zn1 Zn 0.5000 0.26376(6) -0.2500
Zn2 Zn 0.23076(6) 0.43299(4) 0.04052(5)
O1 O 0.2618(5) 0.3948(4) -0.1088(3)
O2 O 0.1409(4) 0.3880(3) -0.0473(3)
O3 O 0.2543(5) 0.4674(3) 0.2058(3)
O4 O 0.1342(4) 0.4315(3) 0.1027(3)
N1 N 0.3815(5) 0.4072(3) 0.0810(4)
N2 N 0.5403(5) 0.3733(3) 0.0810(3)
N3 N 0.7547(5) 0.4755(3) -0.0132(3)
N4 N 0.6935(4) 0.3867(3) 0.0225(3)
N5 N 0.4891(5) 0.2664(3) -0.1318(4)
N6 N 0.5721(4) 0.2953(3) -0.0113(3)
N7 N 0.7011(5) 0.3053(3) 0.1245(3)
N8 N 0.8485(5) 0.2695(3) 0.2084(4)
C1 C 0.5504(8) 0.4086(5) 0.1459(5)
H1 H 0.609(6) 0.414(3) 0.181(4)
C2 C 0.4552(7) 0.4298(4) 0.1458(5)
H2 H 0.436(6) 0.456(4) 0.188(4)
C3 C 0.4366(6) 0.3747(4) 0.0442(5)
H3 H 0.410(5) 0.357(3) -0.005(3)
C4 C 0.8045(7) 0.4250(4) -0.0360(5)
H4 H 0.852(5) 0.436(3) -0.064(4)
C5 C 0.7655(6) 0.3715(5) -0.0158(5)
H5 H 0.785(4) 0.335(3) -0.026(3)
C6 C 0.6897(7) 0.4500(4) 0.0214(5)
H6 H 0.650(5) 0.474(3) 0.046(3)
C7 C 0.5476(7) 0.3086(4) -0.0869(5)
H7 H 0.575(6) 0.343(4) -0.103(4)
C8 C 0.4728(7) 0.2211(5) -0.0811(6)
H8 H 0.433(5) 0.189(3) -0.098(4)
C9 C 0.5216(6) 0.2387(4) -0.0092(6)
H9 H 0.523(5) 0.221(3) 0.037(4)
C10 C 0.6749(8) 0.2732(5) 0.1828(5)
H10 H 0.608(5) 0.279(3) 0.180(3)
C11 C 0.7629(7) 0.2522(4) 0.2328(5)
H11 H 0.768(6) 0.232(4) 0.278(5)
C12 C 0.8069(7) 0.3000(4) 0.1447(5)
H12 H 0.842(6) 0.314(4) 0.116(4)
C13 C 0.1695(7) 0.3866(4) -0.1089(4)
C14 C 0.1049(7) 0.3770(4) -0.2521(5)
H13 H 0.194(8) 0.387(5) -0.246(5)
C15 C 0.0824(6) 0.3782(3) -0.1813(4)
C16 C -0.0217(7) 0.3767(4) -0.1815(5)
H14 H -0.045(5) 0.375(3) -0.142(4)
C17 C 0.1618(7) 0.4495(4) 0.1715(5)
C18 C 0.0787(6) 0.4499(3) 0.2131(4)
C19 C 0.1052(7) 0.4514(4) 0.2911(5)
H15 H 0.183(6) 0.454(3) 0.324(4)
C20 C -0.0272(7) 0.4490(4) 0.1716(5)
H16 H -0.047(5) 0.450(3) 0.119(4)
O5 O 0.5000 0.3589(4) -0.2500
H17 H 0.464(6) 0.386(4) -0.233(4)
B1A B 0.3729(7) 0.3386(4) -0.5547(5)
Zn1F Zn 1.0000 0.23624(6) 0.2500
Zn1F_2 Zn 0.0000 0.23624(6) -0.7500
Zn2A Zn 0.76924(6) 0.43299(4) -0.54052(5)
Zn2D Zn 0.76924(6) 0.56701(4) -0.04052(5)
Zn2A_2 Zn -0.23076(6) 0.43299(4) -0.54052(5)
Zn2A_3 Zn -0.23076(6) 0.43299(4) 0.45948(5)
Zn2E Zn 0.23076(6) 0.56701(4) -0.45948(5)
O1A O -0.2618(5) 0.3948(4) -0.3912(3)
O2A O -0.1409(4) 0.3880(3) -0.4527(3)
O2A_2 O 0.8591(4) 0.3880(3) -0.4527(3)
O3A O -0.2543(5) 0.4674(3) 0.2942(3)
O4A O -0.1342(4) 0.4315(3) 0.3973(3)
O4A_2 O 0.8658(4) 0.4315(3) -0.6027(3)
N1A N 0.6185(5) 0.4072(3) -0.5810(4)
N2A N 0.4597(5) 0.3733(3) -0.5810(3)
N3A N 0.2453(5) 0.4755(3) -0.4868(3)
N3D N 0.2453(5) 0.5245(3) 0.0132(3)
N3E N 0.7547(5) 0.5245(3) -0.5132(3)
N4A N 0.3065(4) 0.3867(3) -0.5225(3)
N5A N 0.5109(5) 0.2664(3) -0.3682(4)
N6A N 0.4279(4) 0.2953(3) -0.4887(3)
N7A N 0.2989(5) 0.3053(3) -0.6245(3)
N8A N 0.1515(5) 0.2695(3) -0.7084(4)
N8F N 0.6515(5) 0.2305(3) -0.2084(4)
N8G N 0.3485(5) 0.2305(3) -0.2916(4)
C1A C 0.4496(8) 0.4086(5) -0.6459(5)
H1A H 0.391(6) 0.414(3) -0.681(4)
C2A C 0.5448(7) 0.4298(4) -0.6458(5)
H2A H 0.564(6) 0.456(4) -0.688(4)
C3A C 0.5634(6) 0.3747(4) -0.5442(5)
H3A H 0.590(5) 0.357(3) -0.495(3)
C4A C 0.1955(7) 0.4250(4) -0.4640(5)
H4A H 0.148(5) 0.436(3) -0.436(4)
C5A C 0.2345(6) 0.3715(5) -0.4842(5)
H5A H 0.215(4) 0.335(3) -0.474(3)
C6A C 0.3103(7) 0.4500(4) -0.5214(5)
H6A H 0.350(5) 0.474(3) -0.546(3)
C7A C 0.4524(7) 0.3086(4) -0.4131(5)
H7A H 0.425(6) 0.343(4) -0.397(4)
C8A C 0.5272(7) 0.2211(5) -0.4189(6)
H8A H 0.567(5) 0.189(3) -0.402(4)
C9A C 0.4784(6) 0.2387(4) -0.4908(6)
H9A H 0.477(5) 0.221(3) -0.537(4)
C10A C 0.3251(8) 0.2732(5) -0.6828(5)
H10A H 0.392(5) 0.279(3) -0.680(3)
C11A C 0.2371(7) 0.2522(4) -0.7328(5)
H11A H 0.232(6) 0.232(4) -0.778(5)
C12A C 0.1931(7) 0.3000(4) -0.6447(5)
H12A H 0.158(6) 0.314(4) -0.616(4)
C13A C -0.1695(7) 0.3866(4) -0.3911(4)
C14A C -0.1049(7) 0.3770(4) -0.2479(5)
H13A H -0.194(8) 0.387(5) -0.254(5)
C15A C -0.0824(6) 0.3782(3) -0.3187(4)
C16A C 0.0217(7) 0.3767(4) -0.3185(5)
H14A H 0.045(5) 0.375(3) -0.358(4)
C17A C -0.1618(7) 0.4495(4) 0.3285(5)
C18A C -0.0787(6) 0.4499(3) 0.2869(4)
C19A C -0.1052(7) 0.4514(4) 0.2089(5)
H15A H -0.183(6) 0.454(3) 0.176(4)
C20A C 0.0272(7) 0.4490(4) 0.3284(5)
H16A H 0.047(5) 0.450(3) 0.381(4)
H17A H 0.536(6) 0.386(4) -0.267(4)
O6 O 1.1315(5) 0.0662(3) 0.2063(4)
loop_
_geom_bond_atom_site_label_1
_geom_bond_atom_site_label_2
_geom_bond_site_symmetry_1
_geom_bond_site_symmetry_2
B1 N2 1_555 1_555
Zn1 N5 1_555 1_555
Zn2 O2 1_555 1_555
O1 C13 1_555 1_555
O2 C13 1_555 1_555
O3 C17 1_555 1_555
O4 Zn2 1_555 1_555
N1 Zn2 1_555 1_555
N2 C1 1_555 1_555
N3 C4 1_555 1_555
N4 B1 1_555 1_555
N5 C7 1_555 1_555
N6 B1 1_555 1_555
N7 B1 1_555 1_555
N8 C11 1_555 1_555
C1 H1 1_555 1_555
C2 N1 1_555 1_555
H2 C2 1_555 1_555
C3 N1 1_555 1_555
H3 C3 1_555 1_555
C4 H4 1_555 1_555
C5 N4 1_555 1_555
H5 C5 1_555 1_555
C6 N3 1_555 1_555
H6 C6 1_555 1_555
C7 N6 1_555 1_555
H7 C7 1_555 1_555
C8 N5 1_555 1_555
H8 C8 1_555 1_555
C9 N6 1_555 1_555
H9 C9 1_555 1_555
C10 N7 1_555 1_555
H10 C10 1_555 1_555
C11 C10 1_555 1_555
H11 C11 1_555 1_555
C12 N7 1_555 1_555
H12 C12 1_555 1_555
C13 C15 1_555 1_555
C14 H13 1_555 1_555
C15 C14 1_555 1_555
C16 C15 1_555 1_555
H14 C16 1_555 1_555
C17 O4 1_555 1_555
C18 C17 1_555 1_555
C19 C18 1_555 1_555
H15 C19 1_555 1_555
C20 C18 1_555 1_555
H16 C20 1_555 1_555
O5 Zn1 1_555 1_555
H17 O5 1_555 1_555
B1A N2A 1_555 1_555
Zn1F N8 1_555 1_555
Zn1F_2 N8A 1_555 1_555
Zn2A O2A_2 1_555 1_555
Zn2D N3 1_555 1_555
Zn2A_2 O2A 1_555 1_555
Zn2A_3 O4A 1_555 1_555
Zn2E N3A 1_555 1_555
O1A C13A 1_555 1_555
O2A C13A 1_555 1_555
O3A C17A 1_555 1_555
O4A C17A 1_555 1_555
O4A_2 Zn2A 1_555 1_555
N1A Zn2A 1_555 1_555
N2A C1A 1_555 1_555
N3A C4A 1_555 1_555
N3D Zn2 1_555 1_555
N3E Zn2A 1_555 1_555
N4A B1A 1_555 1_555
N5A Zn1 1_555 1_555
N6A B1A 1_555 1_555
N7A B1A 1_555 1_555
N8A C11A 1_555 1_555
N8F Zn1 1_555 1_555
N8G Zn1 1_555 1_555
C1A H1A 1_555 1_555
C2A N1A 1_555 1_555
H2A C2A 1_555 1_555
C3A N1A 1_555 1_555
H3A C3A 1_555 1_555
C4A H4A 1_555 1_555
C5A N4A 1_555 1_555
H5A C5A 1_555 1_555
C6A N3A 1_555 1_555
H6A C6A 1_555 1_555
C7A N5A 1_555 1_555
H7A C7A 1_555 1_555
C8A N5A 1_555 1_555
H8A C8A 1_555 1_555
C9A N6A 1_555 1_555
H9A C9A 1_555 1_555
C10A N7A 1_555 1_555
H10A C10A 1_555 1_555
C11A C10A 1_555 1_555
H11A C11A 1_555 1_555
C12A N7A 1_555 1_555
H12A C12A 1_555 1_555
C13A C15A 1_555 1_555
C14A C16 1_555 1_555
H13A C14A 1_555 1_555
C15A C14A 1_555 1_555
C16A C14 1_555 1_555
H14A C16A 1_555 1_555
C17A C18A 1_555 1_555
C18A C19A 1_555 1_555
C19A C20 1_555 1_555
H15A C19A 1_555 1_555
C20A C19 1_555 1_555
H16A C20A 1_555 1_555
H17A O5 1_555 1_555
N2 C3 1_555 1_555
N4 C6 1_555 1_555
N8 C12 1_555 1_555
C1 C2 1_555 1_555
C4 C5 1_555 1_555
C8 C9 1_555 1_555
N2A C3A 1_555 1_555
N4A C6A 1_555 1_555
N6A C7A 1_555 1_555
N8A C12A 1_555 1_555
C1A C2A 1_555 1_555
C4A C5A 1_555 1_555
C8A C9A 1_555 1_555
C15A C16A 1_555 1_555
C18A C20A 1_555 1_555

#END
