
#######################################################################
#
#                 Cambridge Crystallographic Data Centre
#                                CCDC 
#
#######################################################################
#
# If this CIF has been generated from an entry in the Cambridge 
# Structural Database, then it will include bibliographic, chemical, 
# crystal, experimental, refinement or atomic coordinate data resulting 
# from the CCDC's data processing and validation procedures.
#
#######################################################################

data_BEPMAM
_chemical_formula_moiety         '(C10 H14 N2 O5 Zn1)n'
_symmetry_cell_setting           hexagonal
_symmetry_space_group_name_H-M   'P 61'
_symmetry_Int_Tables_number      169
_space_group_name_Hall           'P 61'
loop_
_symmetry_equiv_pos_site_id
_symmetry_equiv_pos_as_xyz
1 x,y,z
2 x-y,x,1/6+z
3 -y,x-y,1/3+z
4 -x,-y,1/2+z
5 -x+y,-x,2/3+z
6 y,-x+y,5/6+z
_cell_length_a                   17.5911(7)
_cell_length_b                   17.5911(7)
_cell_length_c                   10.1716(3)
_cell_angle_alpha                90
_cell_angle_beta                 90
_cell_angle_gamma                120
_cell_volume                     2725.87
loop_
_atom_site_label
_atom_site_type_symbol
_atom_site_fract_x
_atom_site_fract_y
_atom_site_fract_z
C1 C 0.4963(8) 1.2781(6) 0.3344(7)
H1 H 0.5228 1.3017 0.4148
C2 C 0.4691(7) 1.1894(5) 0.3061(8)
H2 H 0.4771 1.1553 0.3683
C3 C 0.4304(7) 1.1529(5) 0.1862(7)
C4 C 0.4177(7) 1.2069(5) 0.1002(7)
H3 H 0.3899 1.1847 0.0201
C5 C 0.4457(6) 1.2926(5) 0.1327(7)
H4 H 0.4375 1.3276 0.0723
C6 C 0.4096(5) 1.0615(4) 0.1485(7)
H5 H 0.3662 1.0192 0.2086
H6 H 0.3852 1.0481 0.0605
C7 C 0.5563(5) 1.1117(4) 0.0552(6)
H7 H 0.5481 1.1615 0.0346
C8 C 0.5400(4) 1.0559(4) -0.0694(6)
C9 C 0.5889(7) 0.8888(6) 0.1995(9)
H8 H 0.6179 0.8567 0.2015
C10 C 0.6483(6) 1.1454(6) 0.1053(8)
H9 H 0.6508 1.1588 0.1972
H10 H 0.6882 1.1975 0.0579
H11 H 0.6647 1.1014 0.0927
N1 N 0.4902(4) 1.0550(3) 0.1533(5)
H12 H 0.5145 1.0729 0.2345
N2 N 0.4848(6) 1.3285(4) 0.2483(5)
O1 O 0.5766(4) 1.1020(3) -0.1727(4)
O2 O 0.4968(3) 0.9746(3) -0.0633(4)
O3 O 0.5189(4) 0.8586(3) 0.1272(6)
O4 O 0.6208(5) 0.9580(5) 0.2669(8)
Zn1 Zn 0.45667(5) 0.92464(4) 0.13091(9)
N2E N 0.3285(4) 0.8437(7) 0.0816(5)
O1C O 0.4234(4) 0.8980(3) 0.3273(4)
Zn1A Zn 0.53203(6) 1.45667(5) 0.29758(9)
Zn1C Zn 0.54333(5) 1.07536(4) -0.36909(9)
O5 O 0.7864(11) 1.0081(15) 0.360(2)
loop_
_geom_bond_atom_site_label_1
_geom_bond_atom_site_label_2
_geom_bond_site_symmetry_1
_geom_bond_site_symmetry_2
C1 H1 1_555 1_555
C2 C1 1_555 1_555
H2 C2 1_555 1_555
C3 C2 1_555 1_555
C4 C3 1_555 1_555
H3 C4 1_555 1_555
C5 C4 1_555 1_555
H4 C5 1_555 1_555
C6 C3 1_555 1_555
H5 C6 1_555 1_555
H6 C6 1_555 1_555
C7 H7 1_555 1_555
C8 C7 1_555 1_555
C9 H8 1_555 1_555
C10 C7 1_555 1_555
H9 C10 1_555 1_555
H10 C10 1_555 1_555
H11 C10 1_555 1_555
N1 C6 1_555 1_555
H12 N1 1_555 1_555
N2 C1 1_555 1_555
O1 C8 1_555 1_555
O2 C8 1_555 1_555
O3 C9 1_555 1_555
O4 C9 1_555 1_555
Zn1 N1 1_555 1_555
N2E Zn1 1_555 1_555
O1C Zn1 1_555 1_555
Zn1A N2 1_555 1_555
Zn1C O1 1_555 1_555
C5 N2 1_555 1_555
C7 N1 1_555 1_555
O2 Zn1 1_555 1_555
O3 Zn1 1_555 1_555

#END
