
#######################################################################
#
#                 Cambridge Crystallographic Data Centre
#                                CCDC 
#
#######################################################################
#
# If this CIF has been generated from an entry in the Cambridge 
# Structural Database, then it will include bibliographic, chemical, 
# crystal, experimental, refinement or atomic coordinate data resulting 
# from the CCDC's data processing and validation procedures.
#
#######################################################################

data_BEPMIU
_chemical_formula_moiety         '(C9 H13 Cl1 N2 O3 Zn1)n'
_symmetry_cell_setting           hexagonal
_symmetry_space_group_name_H-M   'P 61'
_symmetry_Int_Tables_number      169
_space_group_name_Hall           'P 61'
loop_
_symmetry_equiv_pos_site_id
_symmetry_equiv_pos_as_xyz
1 x,y,z
2 x-y,x,1/6+z
3 -y,x-y,1/3+z
4 -x,-y,1/2+z
5 -x+y,-x,2/3+z
6 y,-x+y,5/6+z
_cell_length_a                   17.5285(3)
_cell_length_b                   17.5285(3)
_cell_length_c                   10.26523(16)
_cell_angle_alpha                90
_cell_angle_beta                 90
_cell_angle_gamma                120
_cell_volume                     2731.42
loop_
_atom_site_label
_atom_site_type_symbol
_atom_site_fract_x
_atom_site_fract_y
_atom_site_fract_z
C1 C 0.5526(4) 0.8453(5) -0.0274(5)
H1 H 0.5731 0.8950 0.0251
C2 C 0.5778(4) 0.7851(5) 0.0009(6)
H2 H 0.6164 0.7951 0.0695
C3 C 0.5457(4) 0.7087(4) -0.0734(5)
C4 C 0.4891(5) 0.6978(6) -0.1758(6)
H3 H 0.4650 0.6469 -0.2264
C5 C 0.4691(5) 0.7623(6) -0.2014(6)
H4 H 0.4330 0.7552 -0.2722
C6 C 0.5696(4) 0.6384(3) -0.0438(5)
H5 H 0.6091 0.6396 -0.1109
H6 H 0.6009 0.6522 0.0386
C7 C 0.4315(3) 0.5405(4) 0.0659(5)
H7 H 0.4303 0.5956 0.0748
C8 C 0.4615(3) 0.5191(3) 0.1949(5)
C9 C 0.3393(4) 0.4651(5) 0.0336(6)
H8 H 0.3177 0.4799 -0.0427
H9 H 0.3006 0.4556 0.1055
H10 H 0.3418 0.4125 0.0174
Cl1 Cl 0.44435(13) 0.31489(10) 0.0030(2)
N1 N 0.4931(3) 0.5497(3) -0.0365(4)
H11 H 0.4643 0.5372 -0.1142
N2 N 0.4997(3) 0.8361(4) -0.1276(4)
O1 O 0.4301(3) 0.5340(3) 0.2960(3)
O2 O 0.5126(2) 0.4897(2) 0.1906(3)
Zn1 Zn 0.53561(3) 0.46020(3) -0.00685(6)
N2A N 0.6636(5) 0.4997(3) 0.0391(4)
O1C O 0.5699(3) 0.4660(3) -0.2040(3)
Zn1C Zn 0.46439(3) 0.53980(3) 0.49315(6)
Zn1E Zn 0.46020(3) 0.92459(4) -0.17352(6)
O3 O 0.3309(7) 0.2807(7) 0.7565(7)
loop_
_geom_bond_atom_site_label_1
_geom_bond_atom_site_label_2
_geom_bond_site_symmetry_1
_geom_bond_site_symmetry_2
C1 H1 1_555 1_555
C2 C1 1_555 1_555
H2 C2 1_555 1_555
C3 C2 1_555 1_555
C4 C3 1_555 1_555
H3 C4 1_555 1_555
C5 C4 1_555 1_555
H4 C5 1_555 1_555
C6 C3 1_555 1_555
H5 C6 1_555 1_555
H6 C6 1_555 1_555
C7 H7 1_555 1_555
C8 C7 1_555 1_555
C9 C7 1_555 1_555
H8 C9 1_555 1_555
H9 C9 1_555 1_555
H10 C9 1_555 1_555
Cl1 Zn1 1_555 1_555
N1 C6 1_555 1_555
H11 N1 1_555 1_555
N2 C1 1_555 1_555
O1 C8 1_555 1_555
O2 C8 1_555 1_555
Zn1 N1 1_555 1_555
N2A Zn1 1_555 1_555
O1C Zn1 1_555 1_555
Zn1C O1 1_555 1_555
Zn1E N2 1_555 1_555
C5 N2 1_555 1_555
C7 N1 1_555 1_555
O2 Zn1 1_555 1_555

#END
