
#######################################################################
#
#                 Cambridge Crystallographic Data Centre
#                                CCDC 
#
#######################################################################
#
# If this CIF has been generated from an entry in the Cambridge 
# Structural Database, then it will include bibliographic, chemical, 
# crystal, experimental, refinement or atomic coordinate data resulting 
# from the CCDC's data processing and validation procedures.
#
#######################################################################

data_BEPNUH
_chemical_formula_moiety         '(C9 H15 Br1 N2 O4 Zn1)n'
_symmetry_cell_setting           hexagonal
_symmetry_space_group_name_H-M   'P 61'
_symmetry_Int_Tables_number      169
_space_group_name_Hall           'P 61'
loop_
_symmetry_equiv_pos_site_id
_symmetry_equiv_pos_as_xyz
1 x,y,z
2 x-y,x,1/6+z
3 -y,x-y,1/3+z
4 -x,-y,1/2+z
5 -x+y,-x,2/3+z
6 y,-x+y,5/6+z
_cell_length_a                   17.7440(3)
_cell_length_b                   17.7440(3)
_cell_length_c                   10.17155(19)
_cell_angle_alpha                90
_cell_angle_beta                 90
_cell_angle_gamma                120
_cell_volume                     2773.45
loop_
_atom_site_label
_atom_site_type_symbol
_atom_site_fract_x
_atom_site_fract_y
_atom_site_fract_z
Zn1 Zn 0.46837(3) 0.92447(3) 0.13189(5)
Br1 Br 0.31859(5) 0.87000(6) 0.10153(9)
N1 N 0.5581(3) 1.0558(2) 0.1116(4)
H1 H 0.5505 1.0728 0.0306
O1 O 0.4831(2) 0.97267(19) 0.3318(3)
O2 O 0.5055(3) 1.0933(2) 0.4357(3)
C1 C 0.7150(3) 1.1600(4) 0.0826(5)
N2 N 0.8380(3) 1.3299(4) 0.0180(4)
C2 C 0.5077(3) 1.0523(3) 0.3359(4)
C3 C 0.6455(3) 1.0685(3) 0.1166(6)
H2 H 0.6493 1.0283 0.0559
H3 H 0.6563 1.0546 0.2044
C4 C 0.5413(4) 1.1061(3) 0.2096(4)
H4 H 0.5956 1.1600 0.2286
C5 C 0.8436(3) 1.2955(5) 0.1299(5)
H5 H 0.8895 1.3293 0.1863
C6 C 0.7112(4) 1.1955(4) -0.0328(6)
H6 H 0.6668 1.1626 -0.0920
C7 C 0.7839(4) 1.2109(6) 0.1672(6)
H7 H 0.7897 1.1887 0.2470
C8 C 0.7736(4) 1.2813(7) -0.0643(5)
H8 H 0.7699 1.3048 -0.1442
C9 C 0.4738(6) 1.1284(5) 0.1583(6)
H9 H 0.4944 1.1610 0.0781
H10 H 0.4647 1.1626 0.2227
H11 H 0.4199 1.0757 0.1420
Zn1C Zn 0.53163(3) 1.07553(3) 0.63189(5)
Zn1E Zn 0.92447(3) 1.45610(4) -0.03478(5)
O2C O 0.4945(3) 0.9067(2) -0.0643(3)
N2A N 0.5081(5) 0.8380(3) 0.1847(4)
O3 O 0.7483(18) 1.0112(15) 0.423(3)
O4 O 0.7432(14) 0.9254(16) -0.070(7)
loop_
_geom_bond_atom_site_label_1
_geom_bond_atom_site_label_2
_geom_bond_site_symmetry_1
_geom_bond_site_symmetry_2
Zn1 Br1 1_555 1_555
N1 Zn1 1_555 1_555
H1 N1 1_555 1_555
O1 Zn1 1_555 1_555
O2 C2 1_555 1_555
C1 C3 1_555 1_555
N2 C5 1_555 1_555
C2 O1 1_555 1_555
C3 N1 1_555 1_555
H2 C3 1_555 1_555
H3 C3 1_555 1_555
C4 N1 1_555 1_555
H4 C4 1_555 1_555
C5 H5 1_555 1_555
C6 C1 1_555 1_555
H6 C6 1_555 1_555
C7 C1 1_555 1_555
H7 C7 1_555 1_555
C8 N2 1_555 1_555
H8 C8 1_555 1_555
C9 C4 1_555 1_555
H9 C9 1_555 1_555
H10 C9 1_555 1_555
H11 C9 1_555 1_555
Zn1C O2 1_555 1_555
Zn1E N2 1_555 1_555
O2C Zn1 1_555 1_555
N2A Zn1 1_555 1_555
C2 C4 1_555 1_555
C5 C7 1_555 1_555
C6 C8 1_555 1_555

#END
