
#######################################################################
#
#                 Cambridge Crystallographic Data Centre
#                                CCDC 
#
#######################################################################
#
# If this CIF has been generated from an entry in the Cambridge 
# Structural Database, then it will include bibliographic, chemical, 
# crystal, experimental, refinement or atomic coordinate data resulting 
# from the CCDC's data processing and validation procedures.
#
#######################################################################

data_BEPNER
_chemical_formula_moiety         '(C44 H68 N10 O16 Zn2 2+)n'
_symmetry_cell_setting           monoclinic
_symmetry_space_group_name_H-M   'C 2'
_symmetry_Int_Tables_number      5
_space_group_name_Hall           'C 2y'
loop_
_symmetry_equiv_pos_site_id
_symmetry_equiv_pos_as_xyz
1 x,y,z
2 -x,y,-z
3 1/2+x,1/2+y,z
4 1/2-x,1/2+y,-z
_cell_length_a                   25.117(2)
_cell_length_b                   5.7802(4)
_cell_length_c                   21.993(2)
_cell_angle_alpha                90
_cell_angle_beta                 120.744(14)
_cell_angle_gamma                90
_cell_volume                     2744.23
loop_
_atom_site_label
_atom_site_type_symbol
_atom_site_fract_x
_atom_site_fract_y
_atom_site_fract_z
C1 C 0.5259(5) 0.376(2) 0.3841(6)
H1 H 0.5463 0.5165 0.3997
C2 C 0.5240(5) 0.268(2) 0.3285(6)
H2 H 0.5462 0.3290 0.3089
C3 C 0.4887(5) 0.0628(19) 0.2993(6)
C4 C 0.4609(5) -0.025(2) 0.3333(5)
H3 H 0.4384 -0.1619 0.3169
C5 C 0.4653(5) 0.082(2) 0.3910(6)
H4 H 0.4449 0.0167 0.4121
C6 C 0.4848(5) -0.044(2) 0.2347(5)
H5 H 0.4948 -0.2070 0.2429
H6 H 0.5148 0.0297 0.2256
C7 C 0.4146(4) -0.1172(19) 0.1056(5)
H7 H 0.4330 -0.2721 0.1166
C8 C 0.4485(5) 0.0336(18) 0.0789(5)
C9 C 0.3459(5) -0.135(2) 0.0479(5)
H8 H 0.3254 -0.2145 0.0698
C10 C 0.3366(5) -0.288(2) -0.0129(6)
H9 H 0.3385 -0.1953 -0.0480
H10 H 0.2969 -0.3623 -0.0336
H11 H 0.3686 -0.4036 0.0044
C11 C 0.3127(6) 0.097(2) 0.0211(7)
H12 H 0.3306 0.1801 -0.0018
H13 H 0.3171 0.1855 0.0603
H14 H 0.2695 0.0699 -0.0120
C12 C 0.1292(5) 0.850(2) 0.1095(7)
H15 H 0.1170 0.9775 0.0794
C13 C 0.1887(5) 0.851(2) 0.1687(6)
H16 H 0.2143 0.9788 0.1785
C14 C 0.2097(5) 0.660(2) 0.2128(5)
C15 C 0.1685(5) 0.481(2) 0.1950(6)
H17 H 0.1804 0.3491 0.2231
C16 C 0.1101(5) 0.493(2) 0.1365(6)
H18 H 0.0839 0.3670 0.1260
C17 C 0.2718(5) 0.663(2) 0.2772(5)
H19 H 0.2939 0.8011 0.2775
H20 H 0.2953 0.5294 0.2774
C18 C 0.3239(4) 0.7489(17) 0.4070(5)
H21 H 0.3353 0.8975 0.3953
C19 C 0.3771(5) 0.5785(19) 0.4282(5)
C20 C 0.3103(5) 0.7871(18) 0.4660(5)
H22 H 0.2707 0.8705 0.4443
C21 C 0.3576(5) 0.948(2) 0.5237(5)
H23 H 0.3392 1.0207 0.5477
H24 H 0.3704 1.0638 0.5026
H25 H 0.3930 0.8592 0.5570
C22 C 0.2999(5) 0.565(2) 0.4962(6)
H26 H 0.3360 0.4686 0.5141
H27 H 0.2647 0.4842 0.4595
H28 H 0.2926 0.6027 0.5338
N1 N 0.4974(4) 0.2778(16) 0.4186(5)
N2 N 0.4200(4) -0.0135(16) 0.1707(4)
H29 H 0.3924 -0.0809 0.1794
H30 H 0.4110 0.1383 0.1633
N3 N 0.0888(4) 0.6800(18) 0.0935(4)
N4 N 0.2663(4) 0.6595(19) 0.3422(4)
H31 H 0.2590 0.5136 0.3503
H32 H 0.2337 0.7468 0.3344
O1 O 0.4307(3) 0.6748(16) 0.4684(4)
O2 O 0.3669(3) 0.3770(14) 0.4100(4)
O3 O 0.4660(3) -0.0746(14) 0.0417(3)
O4 O 0.4571(4) 0.2441(13) 0.0936(4)
O5 O 0.5000 0.5287(16) 0.0000
H33 H 0.515(4) 0.614(4) -0.020(5)
Zn1 Zn 0.5000 0.4509(3) 0.5000
Zn2 Zn 0.5000 0.1690(3) 0.0000
H33A H 0.485(4) 0.614(4) 0.020(5)
C1A C 0.4741(5) 0.376(2) -0.3841(6)
H1A H 0.4537 0.5165 -0.3997
C2A C 0.4760(5) 0.268(2) -0.3285(6)
H2A H 0.4538 0.3290 -0.3089
C3A C 0.5113(5) 0.0628(19) -0.2993(6)
C4A C 0.5391(5) -0.025(2) -0.3333(5)
H3A H 0.5616 -0.1619 -0.3169
C5A C 0.5347(5) 0.082(2) -0.3910(6)
H4A H 0.5551 0.0167 -0.4121
C6A C 0.5152(5) -0.044(2) -0.2347(5)
H5A H 0.5052 -0.2070 -0.2429
H6A H 0.4852 0.0297 -0.2256
C7A C 0.5854(4) -0.1172(19) -0.1056(5)
H7A H 0.5670 -0.2721 -0.1166
C8A C 0.5515(5) 0.0336(18) -0.0789(5)
C9A C 0.6541(5) -0.135(2) -0.0479(5)
H8A H 0.6746 -0.2145 -0.0698
C10A C 0.6634(5) -0.288(2) 0.0129(6)
H9A H 0.6615 -0.1953 0.0480
H10A H 0.7031 -0.3623 0.0336
H11A H 0.6314 -0.4036 -0.0044
C11A C 0.6873(6) 0.097(2) -0.0211(7)
H12A H 0.6694 0.1801 0.0018
H13A H 0.6829 0.1855 -0.0603
H14A H 0.7305 0.0699 0.0120
N1A N 0.5026(4) 0.2778(16) -0.4186(5)
N2A N 0.5800(4) -0.0135(16) -0.1707(4)
H29A H 0.6076 -0.0809 -0.1794
H30A H 0.5890 0.1383 -0.1633
O3A O 0.5340(3) -0.0746(14) -0.0417(3)
O4A O 0.5429(4) 0.2441(13) -0.0936(4)
C12A C 0.8708(5) 0.850(2) 0.8905(7)
H15A H 0.8830 0.9775 0.9206
C13A C 0.8113(5) 0.851(2) 0.8313(6)
H16A H 0.7857 0.9788 0.8215
C14A C 0.7903(5) 0.660(2) 0.7872(5)
C15A C 0.8315(5) 0.481(2) 0.8050(6)
H17A H 0.8196 0.3491 0.7769
C16A C 0.8899(5) 0.493(2) 0.8635(6)
H18A H 0.9161 0.3670 0.8740
C17A C 0.7282(5) 0.663(2) 0.7228(5)
H19A H 0.7061 0.8011 0.7225
H20A H 0.7047 0.5294 0.7226
C18A C 0.6761(4) 0.7489(17) 0.5930(5)
H21A H 0.6647 0.8975 0.6047
C19A C 0.6229(5) 0.5785(19) 0.5718(5)
C20A C 0.6897(5) 0.7871(18) 0.5340(5)
H22A H 0.7293 0.8705 0.5557
C21A C 0.6424(5) 0.948(2) 0.4763(5)
H23A H 0.6608 1.0207 0.4523
H24A H 0.6296 1.0638 0.4974
H25A H 0.6070 0.8592 0.4430
C22A C 0.7001(5) 0.565(2) 0.5038(6)
H26A H 0.6640 0.4686 0.4859
H27A H 0.7353 0.4842 0.5405
H28A H 0.7074 0.6027 0.4662
N3A N 0.9112(4) 0.6800(18) 0.9065(4)
N4A N 0.7337(4) 0.6595(19) 0.6578(4)
H31A H 0.7410 0.5136 0.6497
H32A H 0.7663 0.7468 0.6656
O1A O 0.5693(3) 0.6748(16) 0.5316(4)
O2A O 0.6331(3) 0.3770(14) 0.5900(4)
N1A_2 N 0.5026(4) 0.2778(16) 0.5814(5)
N3B N 0.5888(4) 0.1800(18) 0.0935(4)
N3C N 0.4112(4) 0.1800(18) -0.0935(4)
Zn1_2 Zn 0.5000 0.4509(3) -0.5000
Zn2B Zn -0.0000 0.6690(3) 0.0000
Zn2B_2 Zn 1.0000 0.6690(3) 1.0000
N5 N 0.3554(4) 0.4867(18) 0.1920(5)
O6 O 0.3995(4) 0.4557(16) 0.1798(4)
O7 O 0.3263(5) 0.3210(18) 0.1951(6)
O8 O 0.3421(4) 0.6879(17) 0.1998(4)
N6 N 0.1784(5) 0.1380(19) 0.3278(5)
O9 O 0.2337(4) 0.1760(17) 0.3428(4)
O10 O 0.1596(4) -0.0668(17) 0.3146(4)
O11 O 0.1452(4) 0.2969(17) 0.3250(5)
O12 O 0.0468(4) 0.0632(18) 0.1831(6)
H34 H 0.0231 -0.0512 0.1762
H35 H 0.0259 0.1739 0.1559
loop_
_geom_bond_atom_site_label_1
_geom_bond_atom_site_label_2
_geom_bond_site_symmetry_1
_geom_bond_site_symmetry_2
C1 H1 1_555 1_555
C2 C1 1_555 1_555
H2 C2 1_555 1_555
C3 C2 1_555 1_555
C4 C3 1_555 1_555
H3 C4 1_555 1_555
C5 C4 1_555 1_555
H4 C5 1_555 1_555
C6 C3 1_555 1_555
H5 C6 1_555 1_555
H6 C6 1_555 1_555
C7 H7 1_555 1_555
C8 C7 1_555 1_555
C9 C7 1_555 1_555
H8 C9 1_555 1_555
C10 C9 1_555 1_555
H9 C10 1_555 1_555
H10 C10 1_555 1_555
H11 C10 1_555 1_555
C11 C9 1_555 1_555
H12 C11 1_555 1_555
H13 C11 1_555 1_555
H14 C11 1_555 1_555
C12 H15 1_555 1_555
C13 C12 1_555 1_555
H16 C13 1_555 1_555
C14 C13 1_555 1_555
C15 C14 1_555 1_555
H17 C15 1_555 1_555
C16 C15 1_555 1_555
H18 C16 1_555 1_555
C17 C14 1_555 1_555
H19 C17 1_555 1_555
H20 C17 1_555 1_555
C18 H21 1_555 1_555
C19 C18 1_555 1_555
C20 C18 1_555 1_555
H22 C20 1_555 1_555
C21 C20 1_555 1_555
H23 C21 1_555 1_555
H24 C21 1_555 1_555
H25 C21 1_555 1_555
C22 C20 1_555 1_555
H26 C22 1_555 1_555
H27 C22 1_555 1_555
H28 C22 1_555 1_555
N1 C1 1_555 1_555
N2 C6 1_555 1_555
H29 N2 1_555 1_555
H30 N2 1_555 1_555
N3 C12 1_555 1_555
N4 C17 1_555 1_555
H31 N4 1_555 1_555
H32 N4 1_555 1_555
O1 C19 1_555 1_555
O2 C19 1_555 1_555
O3 C8 1_555 1_555
O4 C8 1_555 1_555
O5 H33 1_555 1_555
Zn1 N1 1_555 1_555
Zn2 O3 1_555 1_555
N5 O6 1_555 1_555
O7 N5 1_555 1_555
O8 N5 1_555 1_555
N6 O9 1_555 1_555
O10 N6 1_555 1_555
O11 N6 1_555 1_555
O12 H34 1_555 1_555
H35 O12 1_555 1_555
H33A O5 1_555 1_555
C1A H1A 1_555 1_555
C2A C1A 1_555 1_555
H2A C2A 1_555 1_555
C3A C2A 1_555 1_555
C4A C3A 1_555 1_555
H3A C4A 1_555 1_555
C5A C4A 1_555 1_555
H4A C5A 1_555 1_555
C6A C3A 1_555 1_555
H5A C6A 1_555 1_555
H6A C6A 1_555 1_555
C7A H7A 1_555 1_555
C8A C7A 1_555 1_555
C9A C7A 1_555 1_555
H8A C9A 1_555 1_555
C10A C9A 1_555 1_555
H9A C10A 1_555 1_555
H10A C10A 1_555 1_555
H11A C10A 1_555 1_555
C11A C9A 1_555 1_555
H12A C11A 1_555 1_555
H13A C11A 1_555 1_555
H14A C11A 1_555 1_555
N1A C1A 1_555 1_555
N2A C6A 1_555 1_555
H29A N2A 1_555 1_555
H30A N2A 1_555 1_555
O3A Zn2 1_555 1_555
O4A C8A 1_555 1_555
C12A H15A 1_555 1_555
C13A C12A 1_555 1_555
H16A C13A 1_555 1_555
C14A C13A 1_555 1_555
C15A C14A 1_555 1_555
H17A C15A 1_555 1_555
C16A C15A 1_555 1_555
H18A C16A 1_555 1_555
C17A C14A 1_555 1_555
H19A C17A 1_555 1_555
H20A C17A 1_555 1_555
C18A H21A 1_555 1_555
C19A C18A 1_555 1_555
C20A C18A 1_555 1_555
H22A C20A 1_555 1_555
C21A C20A 1_555 1_555
H23A C21A 1_555 1_555
H24A C21A 1_555 1_555
H25A C21A 1_555 1_555
C22A C20A 1_555 1_555
H26A C22A 1_555 1_555
H27A C22A 1_555 1_555
H28A C22A 1_555 1_555
N3A C12A 1_555 1_555
N4A C17A 1_555 1_555
H31A N4A 1_555 1_555
H32A N4A 1_555 1_555
O1A Zn1 1_555 1_555
O2A C19A 1_555 1_555
N1A_2 Zn1 1_555 1_555
N3B Zn2 1_555 1_555
N3C Zn2 1_555 1_555
Zn1_2 N1A 1_555 1_555
Zn2B N3 1_555 1_555
Zn2B_2 N3A 1_555 1_555
C5 N1 1_555 1_555
C7 N2 1_555 1_555
C16 N3 1_555 1_555
C18 N4 1_555 1_555
O1 Zn1 1_555 1_555
O5 Zn2 1_555 1_555
C5A N1A 1_555 1_555
C7A N2A 1_555 1_555
C8A O3A 1_555 1_555
C16A N3A 1_555 1_555
C18A N4A 1_555 1_555
C19A O1A 1_555 1_555

#END
