
#######################################################################
#
#                 Cambridge Crystallographic Data Centre
#                                CCDC 
#
#######################################################################
#
# If this CIF has been generated from an entry in the Cambridge 
# Structural Database, then it will include bibliographic, chemical, 
# crystal, experimental, refinement or atomic coordinate data resulting 
# from the CCDC's data processing and validation procedures.
#
#######################################################################

data_BEPPIX
_chemical_formula_moiety         '(C13 H22 N2 O6 Zn1)n'
_symmetry_cell_setting           hexagonal
_symmetry_space_group_name_H-M   'P 61'
_symmetry_Int_Tables_number      169
_space_group_name_Hall           'P 61'
loop_
_symmetry_equiv_pos_site_id
_symmetry_equiv_pos_as_xyz
1 x,y,z
2 x-y,x,1/6+z
3 -y,x-y,1/3+z
4 -x,-y,1/2+z
5 -x+y,-x,2/3+z
6 y,-x+y,5/6+z
_cell_length_a                   17.4542(6)
_cell_length_b                   17.4542(6)
_cell_length_c                   10.3953(3)
_cell_angle_alpha                90
_cell_angle_beta                 90
_cell_angle_gamma                120
_cell_volume                     2742.63
loop_
_atom_site_label
_atom_site_type_symbol
_atom_site_fract_x
_atom_site_fract_y
_atom_site_fract_z
Zn1 Zn 0.53338(4) 0.46204(4) 0.11541(8)
O1 O 0.4661(3) 0.5654(3) -0.1927(4)
O2 O 0.5140(3) 0.4885(3) -0.0810(4)
C1 C 0.4751(4) 0.5327(4) -0.0907(6)
N1 N 0.1556(5) 0.4853(4) 0.2422(5)
O3 O 0.6603(3) 0.5413(3) 0.0993(5)
N2 N 0.4353(3) 0.4953(3) 0.1377(4)
H1 H 0.4466 0.5276 0.2110
C2 C 0.2080(4) 0.4122(4) 0.1044(7)
H2 H 0.2012 0.3805 0.0293
C3 C 0.4335(4) 0.5496(4) 0.0277(5)
H3 H 0.3714 0.5291 0.0075
C4 C 0.1489(6) 0.4413(4) 0.1342(6)
H4 H 0.1036 0.4298 0.0768
C5 C 0.2768(4) 0.4311(5) 0.1880(6)
C6 C 0.3500(4) 0.4123(5) 0.1537(7)
H5 H 0.3555 0.3769 0.2211
H6 H 0.3350 0.3785 0.0744
C7 C 0.2797(4) 0.4725(6) 0.3031(7)
H7 H 0.3222 0.4817 0.3645
C8 C 0.2193(8) 0.4999(6) 0.3264(7)
H8 H 0.2232 0.5295 0.4027
C9 C 0.5733(5) 0.6849(5) 0.0991(8)
H9 H 0.5766 0.6473 0.1637
H10 H 0.5957 0.7433 0.1335
H11 H 0.6081 0.6875 0.0260
O4 O 0.6957(4) 0.6237(4) 0.2884(10)
C10 C 0.4779(5) 0.6479(4) 0.0583(6)
H12 H 0.4793 0.6777 -0.0223
C11 C 0.4258(6) 0.6701(5) 0.1542(8)
H13 H 0.3667 0.6482 0.1226
H14 H 0.4542 0.7331 0.1648
H15 H 0.4235 0.6431 0.2355
C12 C 0.7084(6) 0.6042(8) 0.1662(11)
C13 C 0.7935(8) 0.6744(9) 0.0897(15)
H16 H 0.8217 0.7293 0.1362
H17 H 0.7763 0.6838 0.0061
H18 H 0.8339 0.6526 0.0806
Zn1A Zn 0.07134(6) 0.53338(4) 0.28208(8)
Zn1C Zn 0.46662(4) 0.53796(4) -0.38459(8)
O1C O 0.5339(3) 0.4346(3) 0.3073(4)
N1E N 0.4853(4) 0.3297(6) 0.0755(5)
O5 O 0.7854(10) 0.7706(8) 0.4118(16)
O6 O 0.791(3) 0.811(3) 0.683(4)
loop_
_geom_bond_atom_site_label_1
_geom_bond_atom_site_label_2
_geom_bond_site_symmetry_1
_geom_bond_site_symmetry_2
Zn1 O2 1_555 1_555
O1 C1 1_555 1_555
O2 C1 1_555 1_555
C1 C3 1_555 1_555
N1 C4 1_555 1_555
O3 Zn1 1_555 1_555
N2 Zn1 1_555 1_555
H1 N2 1_555 1_555
C2 H2 1_555 1_555
C3 N2 1_555 1_555
H3 C3 1_555 1_555
C4 C2 1_555 1_555
H4 C4 1_555 1_555
C5 C2 1_555 1_555
C6 N2 1_555 1_555
H5 C6 1_555 1_555
H6 C6 1_555 1_555
C7 C5 1_555 1_555
H7 C7 1_555 1_555
C8 N1 1_555 1_555
H8 C8 1_555 1_555
C9 H9 1_555 1_555
H10 C9 1_555 1_555
H11 C9 1_555 1_555
O4 C12 1_555 1_555
C10 C3 1_555 1_555
H12 C10 1_555 1_555
C11 C10 1_555 1_555
H13 C11 1_555 1_555
H14 C11 1_555 1_555
H15 C11 1_555 1_555
C12 O3 1_555 1_555
C13 C12 1_555 1_555
H16 C13 1_555 1_555
H17 C13 1_555 1_555
H18 C13 1_555 1_555
Zn1A N1 1_555 1_555
Zn1C O1 1_555 1_555
O1C Zn1 1_555 1_555
N1E Zn1 1_555 1_555
C5 C6 1_555 1_555
C7 C8 1_555 1_555
C9 C10 1_555 1_555

#END
