
#######################################################################
#
#                 Cambridge Crystallographic Data Centre
#                                CCDC 
#
#######################################################################
#
# If this CIF has been generated from an entry in the Cambridge 
# Structural Database, then it will include bibliographic, chemical, 
# crystal, experimental, refinement or atomic coordinate data resulting 
# from the CCDC's data processing and validation procedures.
#
#######################################################################

data_NAYNIK
_chemical_formula_moiety         'C51 H56 Cd21 N32 O2 2+'
_symmetry_cell_setting           monoclinic
_symmetry_space_group_name_H-M   'C 2'
_symmetry_Int_Tables_number      5
_space_group_name_Hall           'C 2y'
loop_
_symmetry_equiv_pos_site_id
_symmetry_equiv_pos_as_xyz
1 x,y,z
2 -x,y,-z
3 1/2+x,1/2+y,z
4 1/2-x,1/2+y,-z
_cell_length_a                   20.150(3)
_cell_length_b                   10.299(4)
_cell_length_c                   17.849(4)
_cell_angle_alpha                90
_cell_angle_beta                 99.88(2)
_cell_angle_gamma                90
_cell_volume                     3649.18
loop_
_atom_site_label
_atom_site_type_symbol
_atom_site_fract_x
_atom_site_fract_y
_atom_site_fract_z
Cd2 Cd 0.50000 0.60071(17) 0.50000
N5 N 0.51350(65) 0.7713(16) 0.41015(89)
C7 C 0.4557(10) 0.7759(20) 0.3499(12)
C8 C 0.39459(82) 0.7350(22) 0.3798(10)
N6 N 0.40135(52) 0.6056(13) 0.40916(62)
C9 C 0.34757(57) 0.5527(22) 0.44569(74)
C10 C 0.36648(80) 0.4271(20) 0.48386(83)
N7 N 0.42677(65) 0.4465(18) 0.54324(84)
H14 H 0.51896(65) 0.8479(16) 0.43467(89)
H15 H 0.55072(65) 0.7558(16) 0.38998(89)
H16 H 0.4627(10) 0.7236(20) 0.3078(12)
H17 H 0.4496(10) 0.8671(20) 0.3315(12)
H18 H 0.38659(82) 0.7937(22) 0.4199(10)
H19 H 0.35582(82) 0.7392(22) 0.3393(10)
H20 H 0.40705(52) 0.5514(13) 0.37047(62)
H21 H 0.30745(57) 0.5407(22) 0.40768(74)
H22 H 0.33695(57) 0.6145(22) 0.48288(74)
H23 H 0.37620(80) 0.3638(20) 0.44695(83)
H24 H 0.32946(80) 0.3945(20) 0.50678(83)
H25 H 0.44851(65) 0.3705(18) 0.55345(84)
H26 H 0.41415(65) 0.4753(18) 0.58628(84)
N5A N 0.48650(65) 0.7713(16) 0.58985(89)
C7A C 0.5443(10) 0.7759(20) 0.6501(12)
C8A C 0.60541(82) 0.7350(22) 0.6202(10)
N6A N 0.59865(52) 0.6056(13) 0.59084(62)
C9A C 0.65243(57) 0.5527(22) 0.55431(74)
C10A C 0.63352(80) 0.4271(20) 0.51614(83)
N7A N 0.57323(65) 0.4465(18) 0.45676(84)
H14A H 0.48104(65) 0.8479(16) 0.56533(89)
H15A H 0.44928(65) 0.7558(16) 0.61002(89)
H16A H 0.5373(10) 0.7236(20) 0.6922(12)
H17A H 0.5504(10) 0.8671(20) 0.6685(12)
H18A H 0.61341(82) 0.7937(22) 0.5801(10)
H19A H 0.64418(82) 0.7392(22) 0.6607(10)
H20A H 0.59295(52) 0.5514(13) 0.62953(62)
H21A H 0.69255(57) 0.5407(22) 0.59232(74)
H22A H 0.66305(57) 0.6145(22) 0.51712(74)
H23A H 0.62380(80) 0.3638(20) 0.55305(83)
H24A H 0.67054(80) 0.3945(20) 0.49322(83)
H25A H 0.55149(65) 0.3705(18) 0.44655(84)
H26A H 0.58585(65) 0.4753(18) 0.41372(84)
O1 O 0.00000 0.5168(31) 0.50000
O2 O 0.9457(15) 0.6969(22) 0.3648(15)
Cd3 Cd 0.41123(3) -0.00625(7) 0.10976(3)
Cd4 Cd 0.18192(3) -0.00887(7) -0.12748(3)
Cd5 Cd 0.64734(3) 0.01604(8) 0.33694(3)
Cd6 Cd 0.25967(4) 0.01729(8) 0.35607(4)
C11 C 0.48304(42) -0.0167(13) 0.02263(53)
N8 N 0.31663(39) -0.0095(13) 0.01420(44)
C12 C 0.27138(42) -0.0056(14) -0.03417(48)
N9 N 0.40068(64) -0.2281(11) 0.12438(74)
C13 C 0.37559(67) -0.3252(11) 0.12665(71)
N10 N 0.40206(61) 0.2178(10) 0.10985(69)
C14 C 0.37681(62) 0.3117(11) 0.11607(76)
N11 N 0.50527(36) 0.0035(12) 0.21080(43)
C15 C 0.55109(41) 0.0058(14) 0.25717(45)
N12 N 0.34475(42) 0.0058(14) 0.21058(48)
C16 C 0.31763(47) 0.0146(13) 0.26187(53)
C17 C 0.23149(50) -0.0120(13) -0.23122(56)
C18 C 0.26692(44) -0.0054(13) -0.27295(49)
C19 C 0.66538(46) 0.0114(13) 0.46186(45)
C20 C 0.68377(52) 0.0122(15) 0.52746(51)
N13 N 0.67044(71) 0.2407(12) 0.34129(76)
C21 C 0.69711(67) 0.3382(12) 0.34634(82)
N14 N 0.65373(71) -0.2314(13) 0.34792(82)
C22 C 0.68867(73) -0.3161(13) 0.35151(77)
C11A C 0.51696(42) -0.0167(13) -0.02263(53)
Cd3A Cd 0.58877(3) -0.00625(7) -0.10976(3)
Cd4C Cd 0.31808(3) -0.50887(7) 0.12748(3)
N9C N 0.09932(64) 0.2719(11) -0.12438(74)
C13C C 0.12441(67) 0.1748(11) -0.12665(71)
N10C N 0.09794(61) -0.2822(10) -0.10985(69)
C14C C 0.12319(62) -0.1883(11) -0.11607(76)
C17A C 0.76851(50) -0.0120(13) 0.23122(56)
C18A C 0.73308(44) -0.0054(13) 0.27295(49)
C19A C 0.33462(46) 0.0114(13) 0.53814(45)
C20A C 0.31623(52) 0.0122(15) 0.47254(51)
N13B N 0.17044(71) -0.2593(12) 0.34129(76)
C21B C 0.19711(67) -0.1618(12) 0.34634(82)
N14B N 0.15373(71) 0.2686(13) 0.34792(82)
C22B C 0.18867(73) 0.1839(13) 0.35151(77)
N8A N 0.68337(39) -0.0095(13) -0.01420(44)
C12A C 0.72862(42) -0.0056(14) 0.03417(48)
N11A N 0.49473(36) 0.0035(12) -0.21080(43)
C15A C 0.44891(41) 0.0058(14) -0.25717(45)
N12A N 0.65525(42) 0.0058(14) -0.21058(48)
C16A C 0.68237(47) 0.0146(13) -0.26187(53)
Cd5A Cd 0.35266(3) 0.01604(8) -0.33694(3)
Cd6A Cd 0.74033(4) 0.01729(8) -0.35607(4)
Cd4C_2 Cd 0.31808(3) 0.49113(7) 0.12748(3)
Cd6A_2 Cd 0.74033(4) 0.01729(8) 0.64393(4)
Cd6B Cd 0.75967(4) 0.51729(8) 0.35607(4)
Cd6B_2 Cd 0.75967(4) -0.48271(8) 0.35607(4)
N9A N 0.59932(64) -0.2281(11) -0.12438(74)
N10A N 0.59794(61) 0.2178(10) -0.10985(69)
C12C C 0.22862(42) -0.5056(14) 0.03417(48)
C14_2 C 0.37681(62) -0.6883(11) 0.11607(76)
C17C C 0.26851(50) -0.5120(13) 0.23122(56)
Cd3C Cd 0.08877(3) 0.49375(7) -0.10976(3)
Cd3C_2 Cd 0.08877(3) -0.50625(7) -0.10976(3)
Cd4A Cd 0.81808(3) -0.00887(7) 0.12748(3)
Cd5A_2 Cd 0.35266(3) 0.01604(8) 0.66306(3)
Cd5B Cd 0.14734(3) -0.48396(8) 0.33694(3)
Cd5B_2 Cd 0.14734(3) 0.51604(8) 0.33694(3)
C19A_2 C 0.33462(46) 0.0114(13) -0.46186(45)
N13A N 0.32956(71) 0.2407(12) -0.34129(76)
N14A N 0.34627(71) -0.2314(13) -0.34792(82)
C20_2 C 0.68377(52) 0.0122(15) -0.47254(51)
C21C C 0.80289(67) -0.1618(12) -0.34634(82)
C22C C 0.81133(73) 0.1839(13) -0.35151(77)
Cd1 Cd 0.55061(4) 0.48934(11) 0.15509(4)
C1 C 0.50452(53) 0.4991(16) 0.03160(55)
C2 C 0.50246(66) 0.4643(17) 0.25566(71)
N1 N 0.47745(79) 0.4402(20) 0.30259(81)
N2 N 0.57940(88) 0.2713(14) 0.1324(10)
C3 C 0.6462(14) 0.2614(17) 0.1269(12)
C4 C 0.67555(88) 0.3761(17) 0.09720(93)
N3 N 0.66304(45) 0.4953(14) 0.13778(55)
C5 C 0.67260(95) 0.6203(18) 0.1004(12)
C6 C 0.6468(11) 0.7317(19) 0.1385(11)
N4 N 0.57618(80) 0.7145(13) 0.14962(91)
H1 H 0.57065(88) 0.2206(14) 0.1706(10)
H2 H 0.55408(88) 0.2431(14) 0.0889(10)
H3 H 0.6517(14) 0.1882(17) 0.0944(12)
H4 H 0.6714(14) 0.2425(17) 0.1770(12)
H5 H 0.65676(88) 0.3859(17) 0.04372(93)
H6 H 0.72376(88) 0.3636(17) 0.10140(93)
H7 H 0.68989(45) 0.4944(14) 0.18431(55)
H8 H 0.72024(95) 0.6330(18) 0.1000(12)
H9 H 0.64969(95) 0.6169(18) 0.0480(12)
H10 H 0.6498(11) 0.8092(19) 0.1084(11)
H11 H 0.6752(11) 0.7447(19) 0.1876(11)
H12 H 0.54816(80) 0.7519(13) 0.11094(91)
H13 H 0.57020(80) 0.7534(13) 0.19311(91)
C1A C 0.49548(53) 0.4991(16) -0.03160(55)
Cd1A Cd 0.44939(4) 0.48934(11) -0.15509(4)
C2A C 0.49754(66) 0.4643(17) -0.25566(71)
N1A N 0.52255(79) 0.4402(20) -0.30259(81)
N2A N 0.42060(88) 0.2713(14) -0.1324(10)
C3A C 0.3538(14) 0.2614(17) -0.1269(12)
C4A C 0.32445(88) 0.3761(17) -0.09720(93)
N3A N 0.33696(45) 0.4953(14) -0.13778(55)
C5A C 0.32740(95) 0.6203(18) -0.1004(12)
C6A C 0.3532(11) 0.7317(19) -0.1385(11)
N4A N 0.42382(80) 0.7145(13) -0.14962(91)
H1A H 0.42935(88) 0.2206(14) -0.1706(10)
H2A H 0.44592(88) 0.2431(14) -0.0889(10)
H3A H 0.3483(14) 0.1882(17) -0.0944(12)
H4A H 0.3286(14) 0.2425(17) -0.1770(12)
H5A H 0.34324(88) 0.3859(17) -0.04372(93)
H6A H 0.27624(88) 0.3636(17) -0.10140(93)
H7A H 0.31011(45) 0.4944(14) -0.18431(55)
H8A H 0.27976(95) 0.6330(18) -0.1000(12)
H9A H 0.35031(95) 0.6169(18) -0.0480(12)
H10A H 0.3502(11) 0.8092(19) -0.1084(11)
H11A H 0.3248(11) 0.7447(19) -0.1876(11)
H12A H 0.45184(80) 0.7519(13) -0.11094(91)
H13A H 0.42980(80) 0.7534(13) -0.19311(91)
loop_
_geom_bond_atom_site_label_1
_geom_bond_atom_site_label_2
_geom_bond_site_symmetry_1
_geom_bond_site_symmetry_2
Cd1 C1 1_555 1_555
C1 C1A 1_555 1_555
C2 Cd1 1_555 1_555
N1 C2 1_555 1_555
N2 Cd1 1_555 1_555
C3 N2 1_555 1_555
C4 C3 1_555 1_555
N3 Cd1 1_555 1_555
C5 N3 1_555 1_555
C6 C5 1_555 1_555
N4 Cd1 1_555 1_555
H1 N2 1_555 1_555
H2 N2 1_555 1_555
H3 C3 1_555 1_555
H4 C3 1_555 1_555
H5 C4 1_555 1_555
H6 C4 1_555 1_555
H7 N3 1_555 1_555
H8 C5 1_555 1_555
H9 C5 1_555 1_555
H10 C6 1_555 1_555
H11 C6 1_555 1_555
H12 N4 1_555 1_555
H13 N4 1_555 1_555
Cd2 N5 1_555 1_555
N5 C7 1_555 1_555
C7 C8 1_555 1_555
C8 N6 1_555 1_555
N6 Cd2 1_555 1_555
C9 N6 1_555 1_555
C10 C9 1_555 1_555
N7 Cd2 1_555 1_555
H14 N5 1_555 1_555
H15 N5 1_555 1_555
H16 C7 1_555 1_555
H17 C7 1_555 1_555
H18 C8 1_555 1_555
H19 C8 1_555 1_555
H20 N6 1_555 1_555
H21 C9 1_555 1_555
H22 C9 1_555 1_555
H23 C10 1_555 1_555
H24 C10 1_555 1_555
H25 N7 1_555 1_555
H26 N7 1_555 1_555
Cd3 C11 1_555 1_555
Cd4 C12 1_555 1_555
Cd5 C15 1_555 1_555
Cd6 C16 1_555 1_555
C11 C11A 1_555 1_555
N8 Cd3 1_555 1_555
C12 N8 1_555 1_555
N9 Cd3 1_555 1_555
C13 N9 1_555 1_555
N10 Cd3 1_555 1_555
C14 N10 1_555 1_555
N11 Cd3 1_555 1_555
C15 N11 1_555 1_555
N12 Cd3 1_555 1_555
C16 N12 1_555 1_555
C17 Cd4 1_555 1_555
C18 C17 1_555 1_555
C19 Cd5 1_555 1_555
C20 C19 1_555 1_555
N13 Cd5 1_555 1_555
C21 N13 1_555 1_555
N14 Cd5 1_555 1_555
C22 N14 1_555 1_555
C1A Cd1A 1_555 1_555
Cd1A C2A 1_555 1_555
C2A N1A 1_555 1_555
N2A Cd1A 1_555 1_555
C3A N2A 1_555 1_555
C4A C3A 1_555 1_555
N3A Cd1A 1_555 1_555
C5A N3A 1_555 1_555
C6A C5A 1_555 1_555
N4A Cd1A 1_555 1_555
H1A N2A 1_555 1_555
H2A N2A 1_555 1_555
H3A C3A 1_555 1_555
H4A C3A 1_555 1_555
H5A C4A 1_555 1_555
H6A C4A 1_555 1_555
H7A N3A 1_555 1_555
H8A C5A 1_555 1_555
H9A C5A 1_555 1_555
H10A C6A 1_555 1_555
H11A C6A 1_555 1_555
H12A N4A 1_555 1_555
H13A N4A 1_555 1_555
N5A Cd2 1_555 1_555
C7A N5A 1_555 1_555
C8A C7A 1_555 1_555
N6A Cd2 1_555 1_555
C9A N6A 1_555 1_555
C10A C9A 1_555 1_555
N7A Cd2 1_555 1_555
H14A N5A 1_555 1_555
H15A N5A 1_555 1_555
H16A C7A 1_555 1_555
H17A C7A 1_555 1_555
H18A C8A 1_555 1_555
H19A C8A 1_555 1_555
H20A N6A 1_555 1_555
H21A C9A 1_555 1_555
H22A C9A 1_555 1_555
H23A C10A 1_555 1_555
H24A C10A 1_555 1_555
H25A N7A 1_555 1_555
H26A N7A 1_555 1_555
C11A Cd3A 1_555 1_555
Cd3A N8A 1_555 1_555
Cd4C C13 1_555 1_555
N9C C13C 1_555 1_555
C13C Cd4 1_555 1_555
N10C C14C 1_555 1_555
C14C Cd4 1_555 1_555
C17A C18A 1_555 1_555
C18A Cd5 1_555 1_555
C19A C20A 1_555 1_555
C20A Cd6 1_555 1_555
N13B C21B 1_555 1_555
C21B Cd6 1_555 1_555
N14B C22B 1_555 1_555
C22B Cd6 1_555 1_555
N8A C12A 1_555 1_555
C12A Cd4A 1_555 1_555
N11A Cd3A 1_555 1_555
C15A N11A 1_555 1_555
N12A Cd3A 1_555 1_555
C16A N12A 1_555 1_555
Cd5A C18 1_555 1_555
Cd6A C16A 1_555 1_555
Cd4C_2 C14 1_555 1_555
Cd6A_2 C20 1_555 1_555
Cd6B C21 1_555 1_555
Cd6B_2 C22 1_555 1_555
N9A Cd3A 1_555 1_555
N10A Cd3A 1_555 1_555
C12C Cd4C 1_555 1_555
C14_2 Cd4C 1_555 1_555
C17C Cd4C 1_555 1_555
Cd3C N9C 1_555 1_555
Cd3C_2 N10C 1_555 1_555
Cd4A C17A 1_555 1_555
Cd5A_2 C19A 1_555 1_555
Cd5B N13B 1_555 1_555
Cd5B_2 N14B 1_555 1_555
C19A_2 Cd5A 1_555 1_555
N13A Cd5A 1_555 1_555
N14A Cd5A 1_555 1_555
C20_2 Cd6A 1_555 1_555
C21C Cd6A 1_555 1_555
C22C Cd6A 1_555 1_555
C4 N3 1_555 1_555
C6 N4 1_555 1_555
C10 N7 1_555 1_555
C4A N3A 1_555 1_555
C6A N4A 1_555 1_555
C8A N6A 1_555 1_555
C10A N7A 1_555 1_555
C15A Cd5A 1_555 1_555

#END
