
#######################################################################
#
#                 Cambridge Crystallographic Data Centre
#                                CCDC 
#
#######################################################################
#
# If this CIF has been generated from an entry in the Cambridge 
# Structural Database, then it will include bibliographic, chemical, 
# crystal, experimental, refinement or atomic coordinate data resulting 
# from the CCDC's data processing and validation procedures.
#
#######################################################################

data_MOPFOO
_chemical_formula_moiety         '(C8 H6 N6 O4 Zn2)n'
_symmetry_cell_setting           tetragonal
_symmetry_space_group_name_H-M   'P 4/n c c'
_symmetry_Int_Tables_number      130
_space_group_name_Hall           '-P 4a 2ac'
loop_
_symmetry_equiv_pos_site_id
_symmetry_equiv_pos_as_xyz
1 x,y,z
2 1/2-x,1/2-y,z
3 1/2+x,-y,1/2-z
4 -x,1/2+y,1/2-z
5 -y,-x,1/2-z
6 1/2+y,1/2+x,1/2-z
7 y,1/2-x,z
8 1/2-y,x,z
9 -x,-y,-z
10 1/2+x,1/2+y,-z
11 1/2-x,y,1/2+z
12 x,1/2-y,1/2+z
13 y,x,1/2+z
14 1/2-y,1/2-x,1/2+z
15 -y,1/2+x,-z
16 1/2+y,-x,-z
_cell_length_a                   13.673(5)
_cell_length_b                   13.673(5)
_cell_length_c                   22.794(5)
_cell_angle_alpha                90
_cell_angle_beta                 90
_cell_angle_gamma                90
_cell_volume                     4261.36
loop_
_atom_site_label
_atom_site_type_symbol
_atom_site_fract_x
_atom_site_fract_y
_atom_site_fract_z
_atom_site_U_iso_or_equiv
_atom_site_thermal_displace_type
Zn1 Zn 0.90689(2) 0.01944(2) 0.559417(13) 0.0320 Uani
N1 N 0.76460(16) 0.01186(15) 0.53855(10) 0.0355 Uani
N2 N 0.60777(15) -0.02853(16) 0.53888(10) 0.0344 Uani
N3 N 0.62208(16) 0.04008(16) 0.49586(10) 0.0361 Uani
O1 O 0.9369(3) 0.0683(3) 0.63822(13) 0.0857 Uani
O2 O 0.8553(3) -0.0598(3) 0.65906(14) 0.0974 Uani
C1 C 0.9020(3) 0.0114(4) 0.6739(2) 0.0767 Uani
C2 C 0.9154(4) 0.0299(3) 0.7391(3) 0.0977 Uani
H1 H 0.8759 -0.0061 0.7643 0.1170 Uiso
C3 C 0.69498(19) -0.0430(2) 0.56282(13) 0.0395 Uani
H2 H 0.7063 -0.0869 0.5933 0.0470 Uiso
C4 C 0.71627(17) 0.06254(19) 0.49763(12) 0.0370 Uani
H3 H 0.7455 0.1084 0.4731 0.0440 Uiso
O1D O 0.9317(3) 0.0631(3) 0.86178(13) 0.0857 Uani
O2D O 1.0598(3) 0.1447(3) 0.84094(14) 0.0974 Uani
C1D C 0.9886(4) 0.0980(3) 0.8261(2) 0.0767 Uani
C2D C 0.9701(3) 0.0846(4) 0.7609(3) 0.0977 Uani
H1D H 1.0061 0.1241 0.7357 0.1170 Uiso
Zn1D Zn 0.98056(2) 0.09311(2) 0.940583(13) 0.0320 Uani
N1D N 0.98814(15) 0.23540(16) 0.96145(10) 0.0355 Uani
N2D N 1.02853(16) 0.39223(15) 0.96112(10) 0.0344 Uani
N3D N 0.95992(16) 0.37792(16) 1.00414(10) 0.0361 Uani
C3D C 1.0430(2) 0.30502(19) 0.93718(13) 0.0395 Uani
H2D H 1.0869 0.2937 0.9067 0.0470 Uiso
C4D C 0.93746(19) 0.28373(17) 1.00237(12) 0.0370 Uani
H3D H 0.8916 0.2545 1.0269 0.0440 Uiso
Zn1C Zn 1.09311(2) 0.51944(2) 0.940583(13) 0.0320 Uani
Zn1G Zn 0.48056(2) -0.09311(2) 0.559417(13) 0.0320 Uani
Zn1K Zn 0.90689(2) 0.48056(2) 1.059417(13) 0.0320 Uani
Zn1O Zn 0.51944(2) 0.09311(2) 0.440583(13) 0.0320 Uani
N2B N 1.10777(15) 0.02853(16) 0.96112(10) 0.0344 Uani
N2F N 0.97147(16) -0.10777(15) 0.53888(10) 0.0344 Uani
N3J N 0.87792(16) 0.04008(16) 0.99586(10) 0.0361 Uani
N3N N 0.95992(16) 0.12208(16) 0.50414(10) 0.0361 Uani
loop_
_atom_site_aniso_label
_atom_site_aniso_U_11
_atom_site_aniso_U_22
_atom_site_aniso_U_33
_atom_site_aniso_U_23
_atom_site_aniso_U_13
_atom_site_aniso_U_12
Zn1 0.0299(2) 0.0310(2) 0.0350(2) 0.00059(12) 0.00192(12) 0.00190(12)
N1 0.0285(11) 0.0370(12) 0.0410(12) 0.0043(10) 0.0017(10) 0.0007(9)
N2 0.0298(12) 0.0316(12) 0.0418(12) 0.0055(10) -0.0025(9) -0.0035(9)
N3 0.0302(11) 0.0357(11) 0.0423(13) 0.0074(10) -0.0047(10) -0.0035(9)
O1 0.107(2) 0.094(2) 0.0561(18) -0.0175(16) -0.0118(17) 0.0033(19)
O2 0.113(2) 0.114(2) 0.0653(19) -0.0091(18) -0.0126(18) 0.006(2)
C1 0.082(3) 0.088(3) 0.060(3) -0.007(3) -0.009(2) 0.024(2)
C2 0.104(4) 0.105(4) 0.084(4) -0.013(3) -0.013(3) 0.013(3)
C3 0.0336(15) 0.0382(16) 0.0467(17) 0.0122(12) -0.0011(12) -0.0003(12)
C4 0.0276(13) 0.0413(14) 0.0420(15) 0.0097(13) 0.0012(12) -0.0005(11)
O1D 0.094 0.107 0.0561 -0.0118 -0.0175 0.0033
O2D 0.114 0.113 0.0653 -0.0126 -0.0091 0.006
C1D 0.088 0.082 0.06 -0.009 -0.007 0.024
C2D 0.105 0.104 0.084 -0.013 -0.013 0.013
Zn1D 0.031 0.0299 0.035 0.00192 0.00059 0.0019
N1D 0.037 0.0285 0.041 0.0017 0.0043 0.0007
N2D 0.0316 0.0298 0.0418 -0.0025 0.0055 -0.0035
N3D 0.0357 0.0302 0.0423 -0.0047 0.0074 -0.0035
C3D 0.0382 0.0336 0.0467 -0.0011 0.0122 -0.0003
C4D 0.0413 0.0276 0.042 0.0012 0.0097 -0.0005
Zn1C 0.0299 0.031 0.035 -0.00059 0.00192 -0.0019
Zn1G 0.031 0.0299 0.035 0.00192 -0.00059 -0.0019
Zn1K 0.0299 0.031 0.035 -0.00059 0.00192 -0.0019
Zn1O 0.031 0.0299 0.035 0.00192 -0.00059 -0.0019
N2B 0.0298 0.0316 0.0418 0.0055 0.0025 0.0035
N2F 0.0316 0.0298 0.0418 0.0025 0.0055 0.0035
N3J 0.0302 0.0357 0.0423 0.0074 0.0047 0.0035
N3N 0.0357 0.0302 0.0423 0.0047 0.0074 0.0035
loop_
_geom_bond_atom_site_label_1
_geom_bond_atom_site_label_2
_geom_bond_site_symmetry_1
_geom_bond_site_symmetry_2
Zn1 N1 1_555 1_555
N1 C3 1_555 1_555
N2 N3 1_555 1_555
N3 C4 1_555 1_555
O1 Zn1 1_555 1_555
O2 C1 1_555 1_555
C1 O1 1_555 1_555
C2 C1 1_555 1_555
H1 C2 1_555 1_555
C3 N2 1_555 1_555
H2 C3 1_555 1_555
C4 N1 1_555 1_555
H3 C4 1_555 1_555
O1D C1D 1_555 1_555
O2D C1D 1_555 1_555
C1D C2D 1_555 1_555
C2D C2 1_555 1_555
H1D C2D 1_555 1_555
Zn1D O1D 1_555 1_555
N1D Zn1D 1_555 1_555
N2D N3D 1_555 1_555
N3D C4D 1_555 1_555
C3D N1D 1_555 1_555
H2D C3D 1_555 1_555
C4D N1D 1_555 1_555
H3D C4D 1_555 1_555
Zn1C N2D 1_555 1_555
Zn1G N2 1_555 1_555
Zn1K N3D 1_555 1_555
Zn1O N3 1_555 1_555
N2B Zn1D 1_555 1_555
N2F Zn1 1_555 1_555
N3J Zn1D 1_555 1_555
N3N Zn1 1_555 1_555
N2D C3D 1_555 1_555

#END
