
#######################################################################
#
#                 Cambridge Crystallographic Data Centre
#                                CCDC 
#
#######################################################################
#
# If this CIF has been generated from an entry in the Cambridge 
# Structural Database, then it will include bibliographic, chemical, 
# crystal, experimental, refinement or atomic coordinate data resulting 
# from the CCDC's data processing and validation procedures.
#
#######################################################################

data_MOPFUU
_chemical_formula_moiety         '(C12 H10 N8 O4 Zn2)n'
_symmetry_cell_setting           tetragonal
_symmetry_space_group_name_H-M   'P 4/n c c'
_symmetry_Int_Tables_number      130
_space_group_name_Hall           '-P 4a 2ac'
loop_
_symmetry_equiv_pos_site_id
_symmetry_equiv_pos_as_xyz
1 x,y,z
2 1/2-x,1/2-y,z
3 1/2+x,-y,1/2-z
4 -x,1/2+y,1/2-z
5 -y,-x,1/2-z
6 1/2+y,1/2+x,1/2-z
7 y,1/2-x,z
8 1/2-y,x,z
9 -x,-y,-z
10 1/2+x,1/2+y,-z
11 1/2-x,y,1/2+z
12 x,1/2-y,1/2+z
13 y,x,1/2+z
14 1/2-y,1/2-x,1/2+z
15 -y,1/2+x,-z
16 1/2+y,-x,-z
_cell_length_a                   13.530(5)
_cell_length_b                   13.530(5)
_cell_length_c                   27.172(5)
_cell_angle_alpha                90
_cell_angle_beta                 90
_cell_angle_gamma                90
_cell_volume                     4974.13
loop_
_atom_site_label
_atom_site_type_symbol
_atom_site_fract_x
_atom_site_fract_y
_atom_site_fract_z
_atom_site_U_iso_or_equiv
_atom_site_thermal_displace_type
Zn1 Zn -0.09152(4) 1.02126(4) 0.552549(19) 0.0250 Uani
C1 C -0.0883(4) 1.0152(5) 0.64663(19) 0.0433 Uani
C2 C -0.0704(5) 1.0332(5) 0.7010(2) 0.0483 Uani
C3 C -0.0003(6) 1.1020(6) 0.7143(2) 0.0643 Uani
H1 H 0.0348 1.1352 0.6900 0.0770 Uiso
C4 C 0.0192(5) 1.1232(6) 0.7642(2) 0.0643 Uani
C5 C -0.0398(4) 0.8062(4) 0.55470(17) 0.0323 Uani
H2 H -0.0811 0.7958 0.5815 0.0390 Uiso
C6 C 0.0609(3) 0.7824(3) 0.49767(17) 0.0307 Uani
H3 H 0.1051 0.7521 0.4762 0.0370 Uiso
N1 N -0.0274(3) 0.8923(3) 0.53363(15) 0.0297 Uani
N2 N 0.0385(3) 0.8773(3) 0.49597(14) 0.0265 Uani
N3 N 0.0137(3) 0.7347(3) 0.53330(15) 0.0303 Uani
O1 O -0.0496(4) 1.0742(3) 0.61679(15) 0.0557 Uani
O2 O -0.1405(3) 0.9455(4) 0.63294(13) 0.0569 Uani
N4 N 0.0879(13) 1.1908(13) 0.7723(7) 0.0730 Uiso
H4 H 0.1492 1.1740 0.7732 0.0880 Uiso
H5 H 0.0713 1.2515 0.7766 0.0880 Uiso
C1D C -0.0152(5) 1.0883(4) 0.85337(19) 0.0433 Uani
C2D C -0.0332(5) 1.0704(5) 0.7990(2) 0.0483 Uani
C3D C -0.1020(6) 1.0003(6) 0.7857(2) 0.0643 Uani
H1D H -0.1352 0.9652 0.8100 0.0770 Uiso
C4D C -0.1232(6) 0.9808(5) 0.7358(2) 0.0643 Uani
O1D O -0.0742(3) 1.0496(4) 0.88321(15) 0.0557 Uani
O2D O 0.0545(4) 1.1405(3) 0.86706(13) 0.0569 Uani
N4D N -0.1908(13) 0.9121(13) 0.7277(7) 0.0730 Uiso
H4D H -0.1740 0.8508 0.7268 0.0880 Uiso
H5D H -0.2515 0.9287 0.7234 0.0880 Uiso
Zn1D Zn -0.02126(4) 1.09152(4) 0.947451(19) 0.0250 Uani
C5D C 0.1938(4) 1.0398(4) 0.94530(17) 0.0323 Uani
H2D H 0.2042 1.0811 0.9185 0.0390 Uiso
C6D C 0.2176(3) 0.9391(3) 1.00233(17) 0.0307 Uani
H3D H 0.2479 0.8949 1.0238 0.0370 Uiso
N1D N 0.1077(3) 1.0274(3) 0.96637(15) 0.0297 Uani
N2D N 0.1227(3) 0.9615(3) 1.00403(14) 0.0265 Uani
N3D N 0.2653(3) 0.9863(3) 0.96670(15) 0.0303 Uani
Zn1B Zn 0.40848(4) 0.97874(4) 0.947451(19) 0.0250 Uani
Zn1F Zn 0.02126(4) 0.59152(4) 0.552549(19) 0.0250 Uani
Zn1H Zn 0.09152(4) 0.97874(4) 0.447451(19) 0.0250 Uani
Zn1L Zn 0.02126(4) 0.90848(4) 1.052549(19) 0.0250 Uani
N2H N -0.0385(3) 1.1227(3) 0.50403(14) 0.0265 Uani
N2L N -0.1227(3) 1.0385(3) 0.99597(14) 0.0265 Uani
N3C N -0.0137(3) 1.2347(3) 0.96670(15) 0.0303 Uani
N3G N -0.2347(3) 1.0137(3) 0.53330(15) 0.0303 Uani
loop_
_atom_site_aniso_label
_atom_site_aniso_U_11
_atom_site_aniso_U_22
_atom_site_aniso_U_33
_atom_site_aniso_U_23
_atom_site_aniso_U_13
_atom_site_aniso_U_12
Zn1 0.0249(3) 0.0274(4) 0.0228(3) 0.0010(2) 0.00070(19) 0.0011(2)
C1 0.053(3) 0.059(4) 0.018(3) -0.008(2) -0.004(2) 0.009(3)
C2 0.060(4) 0.064(4) 0.021(3) -0.008(2) -0.005(2) 0.000(3)
C3 0.082(5) 0.085(5) 0.026(3) 0.002(3) -0.005(3) -0.023(4)
C4 0.079(5) 0.077(5) 0.037(3) -0.004(3) -0.012(3) -0.021(4)
C5 0.030(3) 0.032(3) 0.035(3) 0.006(2) 0.010(2) 0.002(2)
C6 0.034(3) 0.028(2) 0.030(2) 0.004(2) 0.008(2) 0.0015(19)
N1 0.028(2) 0.029(2) 0.032(2) -0.0007(17) 0.0061(17) 0.0027(16)
N2 0.0283(19) 0.028(2) 0.0233(19) 0.0016(16) 0.0048(15) 0.0014(16)
N3 0.034(2) 0.024(2) 0.033(2) -0.0034(17) 0.0038(17) -0.0012(16)
O1 0.071(3) 0.069(3) 0.027(2) -0.007(2) 0.000(2) -0.003(2)
O2 0.065(3) 0.077(3) 0.0288(19) -0.013(2) -0.0074(19) 0.000(2)
C1D 0.059 0.053 0.018 -0.004 -0.008 0.009
C2D 0.064 0.06 0.021 -0.005 -0.008 0
C3D 0.085 0.082 0.026 -0.005 0.002 -0.023
C4D 0.077 0.079 0.037 -0.012 -0.004 -0.021
O1D 0.069 0.071 0.027 0 -0.007 -0.003
O2D 0.077 0.065 0.0288 -0.0074 -0.013 0
Zn1D 0.0274 0.0249 0.0228 0.0007 0.001 0.0011
C5D 0.032 0.03 0.035 0.01 0.006 0.002
C6D 0.028 0.034 0.03 0.008 0.004 0.0015
N1D 0.029 0.028 0.032 0.0061 -0.0007 0.0027
N2D 0.028 0.0283 0.0233 0.0048 0.0016 0.0014
N3D 0.024 0.034 0.033 0.0038 -0.0034 -0.0012
Zn1B 0.0249 0.0274 0.0228 0.001 -0.0007 -0.0011
Zn1F 0.0274 0.0249 0.0228 -0.0007 0.001 -0.0011
Zn1H 0.0249 0.0274 0.0228 0.001 0.0007 0.0011
Zn1L 0.0274 0.0249 0.0228 0.0007 0.001 0.0011
N2H 0.0283 0.028 0.0233 0.0016 0.0048 0.0014
N2L 0.028 0.0283 0.0233 0.0048 0.0016 0.0014
N3C 0.034 0.024 0.033 0.0034 0.0038 0.0012
N3G 0.024 0.034 0.033 0.0038 0.0034 0.0012
loop_
_geom_bond_atom_site_label_1
_geom_bond_atom_site_label_2
_geom_bond_site_symmetry_1
_geom_bond_site_symmetry_2
Zn1 N1 1_555 1_555
C1 C2 1_555 1_555
C2 C3 1_555 1_555
C3 H1 1_555 1_555
C4 C3 1_555 1_555
C5 H2 1_555 1_555
C6 H3 1_555 1_555
N1 C5 1_555 1_555
N2 C6 1_555 1_555
N3 C5 1_555 1_555
O1 Zn1 1_555 1_555
O2 Zn1 1_555 1_555
N4 C4 1_555 1_555
H4 N4 1_555 1_555
H5 N4 1_555 1_555
C1D C2D 1_555 1_555
C2D C4 1_555 1_555
C3D C2D 1_555 1_555
H1D C3D 1_555 1_555
C4D C2 1_555 1_555
O1D C1D 1_555 1_555
O2D C1D 1_555 1_555
N4D C4D 1_555 1_555
H4D N4D 1_555 1_555
H5D N4D 1_555 1_555
Zn1D O1D 1_555 1_555
C5D H2D 1_555 1_555
C6D H3D 1_555 1_555
N1D Zn1D 1_555 1_555
N2D C6D 1_555 1_555
N3D C5D 1_555 1_555
Zn1B N3D 1_555 1_555
Zn1F N3 1_555 1_555
Zn1H N2 1_555 1_555
Zn1L N2D 1_555 1_555
N2H Zn1 1_555 1_555
N2L Zn1D 1_555 1_555
N3C Zn1D 1_555 1_555
N3G Zn1 1_555 1_555
C1 O1 1_555 1_555
C1 O2 1_555 1_555
C6 N3 1_555 1_555
N1 N2 1_555 1_555
C3D C4D 1_555 1_555
O2D Zn1D 1_555 1_555
C5D N1D 1_555 1_555
C6D N3D 1_555 1_555
N1D N2D 1_555 1_555

#END
