
#######################################################################
#
#                 Cambridge Crystallographic Data Centre
#                                CCDC 
#
#######################################################################
#
# If this CIF has been generated from an entry in the Cambridge 
# Structural Database, then it will include bibliographic, chemical, 
# crystal, experimental, refinement or atomic coordinate data resulting 
# from the CCDC's data processing and validation procedures.
#
#######################################################################

data_MOPGIJ
_chemical_formula_moiety         '(C36 H24 N12 O10 Zn4)n'
_symmetry_cell_setting           triclinic
_symmetry_space_group_name_H-M   'P -1'
_symmetry_Int_Tables_number      2
_space_group_name_Hall           '-P 1'
loop_
_symmetry_equiv_pos_site_id
_symmetry_equiv_pos_as_xyz
1 x,y,z
2 -x,-y,-z
_cell_length_a                   13.628(5)
_cell_length_b                   13.644(5)
_cell_length_c                   19.080(5)
_cell_angle_alpha                109.41
_cell_angle_beta                 91.29
_cell_angle_gamma                90.88
_cell_volume                     3344.28
loop_
_atom_site_label
_atom_site_type_symbol
_atom_site_fract_x
_atom_site_fract_y
_atom_site_fract_z
C1 C 0.6896(3) -0.0847(3) -0.0818(2)
H1 H 0.6990 -0.1481 -0.1187
C2 C 0.7146(3) 0.0630(3) -0.0047(2)
H2 H 0.7452 0.1253 0.0238
C3 C 0.4662(3) 0.3457(3) 0.0852(2)
H3 H 0.4265 0.3519 0.1254
C4 C 0.5624(3) 0.2865(3) -0.0018(2)
H4 H 0.6046 0.2427 -0.0350
C5 C 0.9348(3) 0.2126(3) -0.0030(2)
H5 H 0.8866 0.2262 -0.0336
C6 C 1.0455(4) 0.2330(4) 0.0777(3)
H6 H 1.0923 0.2636 0.1152
C7 C 0.7828(3) 0.4402(3) 0.0041(3)
H7 H 0.7537 0.4088 0.0352
C8 C 0.8031(3) 0.5091(4) -0.0770(3)
H8 H 0.7908 0.5364 -0.1149
C9 C 0.5526(10) 0.1507(12) 0.2933(7)
C10 C 0.4985(8) 0.2038(9) 0.3523(6)
H9 H 0.4542 0.2527 0.3478
C11 C 0.5091(7) 0.1855(8) 0.4179(5)
H10 H 0.4720 0.2218 0.4582
C12 C 0.5739(7) 0.1140(9) 0.4244(6)
C13 C 0.6280(9) 0.0608(11) 0.3654(7)
H11 H 0.6723 0.0119 0.3699
C14 C 0.6174(11) 0.0792(13) 0.2999(7)
H12 H 0.6545 0.0428 0.2595
C15 C 0.5785(7) 0.1607(8) 0.5576(5)
C16 C 0.5278(9) 0.1395(11) 0.6130(6)
H13 H 0.4895 0.0789 0.6019
C17 C 0.5340(12) 0.2081(12) 0.6850(7)
H14 H 0.4999 0.1938 0.7223
C18 C 0.5909(13) 0.2981(12) 0.7016(7)
C19 C 0.6416(11) 0.3193(12) 0.6462(7)
H15 H 0.6799 0.3799 0.6574
C20 C 0.6354(8) 0.2507(9) 0.5743(6)
H16 H 0.6695 0.2650 0.5370
C21 C 0.5374(5) 0.1683(5) 0.2188(3)
C22 C 0.5976(5) 0.3681(5) 0.7793(3)
C23 C 1.0448(10) 0.1146(9) 0.2982(6)
C24 C 0.9770(9) 0.0438(8) 0.3086(6)
H17 H 0.9569 -0.0143 0.2688
C25 C 0.9394(8) 0.0600(8) 0.3786(6)
H18 H 0.8941 0.0127 0.3856
C26 C 0.9696(8) 0.1469(8) 0.4382(5)
C27 C 1.0373(8) 0.2176(8) 0.4277(5)
H19 H 1.0575 0.2757 0.4675
C28 C 1.0750(9) 0.2015(8) 0.3577(6)
H20 H 1.1203 0.2488 0.3507
C29 C 0.9541(8) 0.2405(8) 0.5713(5)
C30 C 0.9086(8) 0.3334(8) 0.5861(5)
H21 H 0.8654 0.3439 0.5510
C31 C 0.9265(9) 0.4108(8) 0.6523(6)
H22 H 0.8955 0.4740 0.6624
C32 C 0.9900(9) 0.3953(8) 0.7039(5)
C33 C 1.0355(9) 0.3024(8) 0.6891(5)
H23 H 1.0787 0.2919 0.7242
C34 C 1.0176(8) 0.2250(8) 0.6229(6)
H24 H 1.0486 0.1618 0.6128
C35 C 1.0816(6) 0.1011(6) 0.2225(4)
C36 C 0.9954(8) 0.4801(7) 0.7819(5)
N1 N 0.7614(2) -0.0131(3) -0.05297(19)
N2 N 0.6218(3) 0.0426(3) -0.00086(18)
N3 N 0.6044(2) -0.0547(3) -0.05177(19)
N4 N 0.5185(3) 0.2621(3) 0.05258(19)
N5 N 0.5397(2) 0.3783(3) -0.00311(18)
N6 N 0.4763(2) 0.4192(3) 0.05460(18)
N7 N 0.9875(3) 0.2864(3) 0.0487(2)
N8 N 0.9589(3) 0.1191(3) -0.00543(19)
N9 N 1.0305(3) 0.1307(3) 0.0481(2)
N10 N 0.7330(3) 0.4665(3) -0.0467(2)
N11 N 0.8896(3) 0.5079(3) -0.0475(2)
N12 N 0.8771(3) 0.4624(3) 0.0068(2)
O1 O 0.5838(3) 0.1133(3) 0.1644(2)
O2 O 0.4754(4) 0.2282(4) 0.2111(2)
O3 O 0.5875(12) 0.0878(17) 0.4887(9)
O4 O 0.5589(3) 0.3358(3) 0.82742(19)
O5 O 0.6366(3) 0.4571(3) 0.7974(2)
O6 O 1.0492(3) 0.0189(3) 0.17364(19)
O7 O 1.1433(3) 0.1584(3) 0.2063(2)
O8 O 0.8878(11) 0.2125(10) 0.4939(5)
O9 O 0.9332(5) 0.5523(4) 0.8027(3)
O10 O 1.0534(4) 0.4627(4) 0.8234(3)
Zn1 Zn 0.52714(4) 0.12947(4) 0.07489(3)
Zn2 Zn 0.58982(4) 0.44493(4) -0.07691(3)
Zn3 Zn 0.98185(4) 0.44116(4) 0.07657(3)
Zn4 Zn 1.09608(4) 0.01855(4) 0.07753(3)
N1A N 1.2386(2) 0.0131(3) 0.05297(19)
N3A N 0.3956(2) 0.0547(3) 0.05177(19)
N6A N 0.5237(2) 0.5808(3) -0.05460(18)
N8A N 1.0411(3) -0.1191(3) 0.00543(19)
N11A N 1.1104(3) 0.4921(3) 0.0475(2)
O4_2 O 0.5589(3) 0.3358(3) -0.17258(19)
O5_2 O 0.6366(3) 0.4571(3) -0.2026(2)
O9A O 1.0668(5) 0.4477(4) 0.1973(3)
O10A O 0.9466(4) 0.5373(4) 0.1766(3)
Zn1A Zn 0.47286(4) -0.12947(4) -0.07489(3)
Zn2_2 Zn 0.58982(4) 0.44493(4) 0.92309(3)
Zn2A Zn 0.41018(4) 0.55507(4) 0.07691(3)
Zn3A Zn 1.01815(4) 0.55884(4) -0.07657(3)
Zn3A_2 Zn 1.01815(4) 0.55884(4) 0.92343(3)
Zn4A Zn 0.90392(4) -0.01855(4) -0.07753(3)
loop_
_geom_bond_atom_site_label_1
_geom_bond_atom_site_label_2
_geom_bond_site_symmetry_1
_geom_bond_site_symmetry_2
C1 H1 1_555 1_555
C2 H2 1_555 1_555
C3 H3 1_555 1_555
C4 H4 1_555 1_555
C5 H5 1_555 1_555
C6 H6 1_555 1_555
C7 H7 1_555 1_555
C8 H8 1_555 1_555
C9 C10 1_555 1_555
C10 H9 1_555 1_555
C11 C10 1_555 1_555
H10 C11 1_555 1_555
C12 C11 1_555 1_555
C13 C12 1_555 1_555
H11 C13 1_555 1_555
C14 C9 1_555 1_555
H12 C14 1_555 1_555
C15 C16 1_555 1_555
C16 H13 1_555 1_555
C17 C16 1_555 1_555
H14 C17 1_555 1_555
C18 C17 1_555 1_555
C19 C18 1_555 1_555
H15 C19 1_555 1_555
C20 C15 1_555 1_555
H16 C20 1_555 1_555
C21 C9 1_555 1_555
C22 C18 1_555 1_555
C23 C24 1_555 1_555
C24 H17 1_555 1_555
C25 C24 1_555 1_555
H18 C25 1_555 1_555
C26 C25 1_555 1_555
C27 C26 1_555 1_555
H19 C27 1_555 1_555
C28 C23 1_555 1_555
H20 C28 1_555 1_555
C29 C30 1_555 1_555
C30 H21 1_555 1_555
C31 C30 1_555 1_555
H22 C31 1_555 1_555
C32 C31 1_555 1_555
C33 C32 1_555 1_555
H23 C33 1_555 1_555
C34 C29 1_555 1_555
H24 C34 1_555 1_555
C35 C23 1_555 1_555
C36 C32 1_555 1_555
N1 C1 1_555 1_555
N2 C2 1_555 1_555
N3 C1 1_555 1_555
N4 C3 1_555 1_555
N5 C4 1_555 1_555
N6 C3 1_555 1_555
N7 C5 1_555 1_555
N8 C5 1_555 1_555
N9 C6 1_555 1_555
N10 C7 1_555 1_555
N11 C8 1_555 1_555
N12 C7 1_555 1_555
O1 C21 1_555 1_555
O2 C21 1_555 1_555
O3 C12 1_555 1_555
O4 C22 1_555 1_555
O5 C22 1_555 1_555
O6 C35 1_555 1_555
O7 C35 1_555 1_555
O8 C26 1_555 1_555
O9 C36 1_555 1_555
O10 C36 1_555 1_555
Zn1 N2 1_555 1_555
Zn2 N5 1_555 1_555
Zn3 N7 1_555 1_555
Zn4 N9 1_555 1_555
N1A Zn4 1_555 1_555
N3A Zn1 1_555 1_555
N6A Zn2 1_555 1_555
N8A Zn4 1_555 1_555
N11A Zn3 1_555 1_555
O4_2 Zn2 1_555 1_555
O5_2 Zn2 1_555 1_555
O9A Zn3 1_555 1_555
O10A Zn3 1_555 1_555
Zn1A N3 1_555 1_555
Zn2_2 O4 1_555 1_555
Zn2A N6 1_555 1_555
Zn3A N11 1_555 1_555
Zn3A_2 O9 1_555 1_555
Zn4A N1 1_555 1_555
C2 N1 1_555 1_555
C4 N4 1_555 1_555
C6 N7 1_555 1_555
C8 N10 1_555 1_555
C13 C14 1_555 1_555
C15 O3 1_555 1_555
C19 C20 1_555 1_555
C27 C28 1_555 1_555
C29 O8 1_555 1_555
C33 C34 1_555 1_555
N2 N3 1_555 1_555
N4 Zn1 1_555 1_555
N5 N6 1_555 1_555
N8 N9 1_555 1_555
N8 Zn4A 1_555 1_555
N10 Zn2 1_555 1_555
N11 N12 1_555 1_555
N12 Zn3 1_555 1_555
O1 Zn1 1_555 1_555
O5 Zn2_2 1_555 1_555
O6 Zn4 1_555 1_555
O10 Zn3A_2 1_555 1_555

#END
