
#######################################################################
#
#                 Cambridge Crystallographic Data Centre
#                                CCDC 
#
#######################################################################
#
# If this CIF has been generated from an entry in the Cambridge 
# Structural Database, then it will include bibliographic, chemical, 
# crystal, experimental, refinement or atomic coordinate data resulting 
# from the CCDC's data processing and validation procedures.
#
#######################################################################

data_MOPGAB
_chemical_formula_moiety         '(C12 H7 Br1 N6 O4 Zn2)n'
_symmetry_cell_setting           tetragonal
_symmetry_space_group_name_H-M   'P 4/n'
_symmetry_Int_Tables_number      85
_space_group_name_Hall           '-P 4a'
loop_
_symmetry_equiv_pos_site_id
_symmetry_equiv_pos_as_xyz
1 x,y,z
2 1/2-x,1/2-y,z
3 1/2-y,x,z
4 y,1/2-x,z
5 -x,-y,-z
6 1/2+x,1/2+y,-z
7 1/2+y,-x,-z
8 -y,1/2+x,-z
_cell_length_a                   13.635(5)
_cell_length_b                   13.635(5)
_cell_length_c                   27.026(5)
_cell_angle_alpha                90
_cell_angle_beta                 90
_cell_angle_gamma                90
_cell_volume                     5024.49
loop_
_atom_site_label
_atom_site_type_symbol
_atom_site_fract_x
_atom_site_fract_y
_atom_site_fract_z
_atom_site_U_iso_or_equiv
_atom_site_thermal_displace_type
Zn1 Zn 0.98023(6) 0.09322(6) 0.94907(3) 0.0247 Uani
Zn2 Zn 0.90663(6) 0.01974(6) 0.55097(3) 0.0247 Uani
C1 C 0.9080(7) 0.0161(8) 0.6479(4) 0.0550 Uiso
C2 C 0.9883(7) 0.0937(7) 0.8537(4) 0.0510 Uiso
C3 C 0.6934(6) -0.0418(6) 0.5544(3) 0.0327 Uani
H1 H 0.7047 -0.0833 0.5811 0.0390 Uiso
C4 C 0.7152(6) 0.0623(6) 0.4984(3) 0.0357 Uani
H2 H 0.7444 0.1081 0.4776 0.0430 Uiso
C5 C 0.7855(5) 0.0617(6) 0.9979(3) 0.0310 Uani
H3 H 0.7567 0.1081 0.9773 0.0370 Uiso
C6 C 0.8068(6) -0.0415(6) 1.0539(3) 0.0363 Uani
H4 H 0.7962 -0.0831 1.0806 0.0440 Uiso
N1 N 0.6083(4) -0.0292(4) 0.5337(2) 0.0267 Uani
N2 N 0.7636(4) 0.0133(5) 0.5322(2) 0.0317 Uani
N3 N 0.6219(5) 0.0401(4) 0.4968(2) 0.0297 Uani
N4 N 0.8794(4) 0.0386(4) 0.9961(2) 0.0243 Uani
N5 N 0.8929(4) -0.0284(5) 1.0332(2) 0.0300 Uani
N6 N 0.7358(4) 0.0116(4) 1.0325(2) 0.0290 Uani
O1 O 0.9271(6) 0.0604(6) 0.8838(2) 0.0610 Uani
O2 O 1.0603(6) 0.1387(6) 0.8675(2) 0.0640 Uani
O3 O 0.8636(5) -0.0608(5) 0.6332(2) 0.0593 Uani
O4 O 0.9406(6) 0.0760(6) 0.6157(3) 0.0633 Uani
C7 C 0.9217(6) 0.0454(6) 0.7026(3) 0.0530 Uani
C8 C 0.9739(6) 0.1242(6) 0.7172(3) 0.0607 Uani
H5 H 0.9971 0.1686 0.6938 0.0730 Uiso
C9 C 0.9925(6) 0.1386(6) 0.7656(2) 0.0473 Uani
H6 H 1.0285 0.1930 0.7757 0.0570 Uiso
C10 C 0.9589(5) 0.0743(6) 0.7995(2) 0.0507 Uani
C11 C 0.9067(7) -0.0046(6) 0.7849(3) 0.0497 Uani
H7 H 0.8835 -0.0490 0.8082 0.0590 Uiso
C12 C 0.8881(7) -0.0190(6) 0.7364(3) 0.0430 Uiso
Br1 Br 0.7476(7) -0.0754(5) 0.7267(2) 0.0708 Uiso
Zn1D Zn 1.01977(6) -0.09322(6) 1.05093(3) 0.0247 Uani
Zn1F Zn 0.59322(6) 0.01977(6) 1.05093(3) 0.0247 Uani
Zn2B Zn 0.48026(6) -0.09337(6) 0.55097(3) 0.0247 Uani
Zn2F Zn 0.51974(6) 0.09337(6) 0.44903(3) 0.0247 Uani
N1C N 0.9708(4) -0.1083(4) 0.5337(2) 0.0267 Uani
N3G N 0.9599(4) 0.1219(5) 0.5032(2) 0.0297 Uani
N5D N 1.1071(4) 0.0284(5) 0.9668(2) 0.0300 Uani
N6G N 0.9884(4) 0.2358(4) 0.9675(2) 0.0290 Uani
loop_
_atom_site_aniso_label
_atom_site_aniso_U_11
_atom_site_aniso_U_22
_atom_site_aniso_U_33
_atom_site_aniso_U_23
_atom_site_aniso_U_13
_atom_site_aniso_U_12
Zn1 0.0273(5) 0.0247(5) 0.0221(6) 0.0020(3) 0.0015(3) 0.0028(3)
Zn2 0.0248(5) 0.0265(5) 0.0227(6) 0.0011(3) 0.0022(3) 0.0026(3)
C3 0.031(4) 0.037(5) 0.030(4) 0.012(3) -0.001(3) -0.010(4)
C4 0.031(4) 0.048(5) 0.028(4) 0.012(4) -0.002(3) -0.008(4)
C5 0.022(4) 0.045(5) 0.026(4) 0.012(4) 0.001(3) 0.000(3)
C6 0.032(5) 0.034(5) 0.043(5) 0.017(3) 0.000(3) -0.001(4)
N1 0.029(3) 0.027(3) 0.024(3) 0.003(3) 0.002(3) -0.003(3)
N2 0.022(3) 0.035(4) 0.038(4) 0.013(3) 0.000(3) -0.001(3)
N3 0.033(3) 0.031(3) 0.025(3) 0.009(3) -0.003(3) 0.001(3)
N4 0.023(3) 0.027(3) 0.023(3) 0.004(2) 0.000(2) -0.003(2)
N5 0.032(4) 0.031(4) 0.027(3) 0.010(3) 0.003(3) 0.001(3)
N6 0.029(3) 0.025(3) 0.033(3) 0.002(3) -0.004(3) 0.000(3)
O1 0.077(5) 0.068(5) 0.038(4) -0.002(3) -0.007(3) 0.000(4)
O2 0.073(5) 0.075(5) 0.044(4) -0.006(4) -0.011(3) 0.002(4)
O3 0.072(5) 0.066(5) 0.040(4) -0.007(3) 0.001(3) 0.002(4)
O4 0.070(5) 0.079(5) 0.041(4) -0.007(4) -0.009(3) -0.003(4)
C7 0.064(6) 0.055(6) 0.040(5) -0.004(5) 0.003(5) -0.005(5)
C8 0.050(10) 0.098(13) 0.034(5) 0.001(7) -0.005(6) -0.004(9)
C9 0.042(9) 0.064(10) 0.036(5) -0.014(6) 0.006(6) -0.003(7)
C10 0.053(6) 0.061(6) 0.038(4) 0.000(4) -0.007(4) 0.004(4)
C11 0.052(8) 0.059(9) 0.038(5) 0.020(5) -0.011(5) 0.004(7)
Zn1D 0.0273 0.0247 0.0221 0.002 0.0015 0.0028
Zn1F 0.0247 0.0273 0.0221 0.0015 -0.002 -0.0028
Zn2B 0.0265 0.0248 0.0227 0.0022 -0.0011 -0.0026
Zn2F 0.0265 0.0248 0.0227 0.0022 -0.0011 -0.0026
N1C 0.027 0.029 0.024 -0.002 0.003 0.003
N3G 0.031 0.033 0.025 0.003 0.009 -0.001
N5D 0.032 0.031 0.027 0.01 0.003 0.001
N6G 0.025 0.029 0.033 0.004 0.002 0
loop_
_geom_bond_atom_site_label_1
_geom_bond_atom_site_label_2
_geom_bond_site_symmetry_1
_geom_bond_site_symmetry_2
Zn1 N4 1_555 1_555
Zn2 N2 1_555 1_555
C1 O3 1_555 1_555
C2 O1 1_555 1_555
C3 H1 1_555 1_555
C4 H2 1_555 1_555
C5 H3 1_555 1_555
C6 H4 1_555 1_555
N1 C3 1_555 1_555
N2 C3 1_555 1_555
N3 C4 1_555 1_555
N4 C5 1_555 1_555
N5 C6 1_555 1_555
N6 C5 1_555 1_555
O1 Zn1 1_555 1_555
O2 Zn1 1_555 1_555
O3 Zn2 1_555 1_555
O4 Zn2 1_555 1_555
C7 C1 1_555 1_555
C8 C7 1_555 1_555
H5 C8 1_555 1_555
C9 C8 1_555 1_555
H6 C9 1_555 1_555
C10 C2 1_555 1_555
C11 C10 1_555 1_555
H7 C11 1_555 1_555
C12 C7 1_555 1_555
Br1 C12 1_555 1_555
Zn1D N5 1_555 1_555
Zn1F N6 1_555 1_555
Zn2B N1 1_555 1_555
Zn2F N3 1_555 1_555
N1C Zn2 1_555 1_555
N3G Zn2 1_555 1_555
N5D Zn1 1_555 1_555
N6G Zn1 1_555 1_555
C1 O4 1_555 1_555
C2 O2 1_555 1_555
C4 N2 1_555 1_555
C6 N6 1_555 1_555
N1 N3 1_555 1_555
N4 N5 1_555 1_555
C9 C10 1_555 1_555
C11 C12 1_555 1_555

#END
