
#######################################################################
#
#                 Cambridge Crystallographic Data Centre
#                                CCDC 
#
#######################################################################
#
# If this CIF has been generated from an entry in the Cambridge 
# Structural Database, then it will include bibliographic, chemical, 
# crystal, experimental, refinement or atomic coordinate data resulting 
# from the CCDC's data processing and validation procedures.
#
#######################################################################

data_MOPGEF
_chemical_formula_moiety         '(C16 H10 N6 O4 Zn2)n'
_symmetry_cell_setting           tetragonal
_symmetry_space_group_name_H-M   'I 4/m'
_symmetry_Int_Tables_number      87
_space_group_name_Hall           '-I 4'
loop_
_symmetry_equiv_pos_site_id
_symmetry_equiv_pos_as_xyz
1 x,y,z
2 -x,-y,z
3 -y,x,z
4 y,-x,z
5 1/2+x,1/2+y,1/2+z
6 1/2-x,1/2-y,1/2+z
7 1/2-y,1/2+x,1/2+z
8 1/2+y,1/2-x,1/2+z
9 -x,-y,-z
10 x,y,-z
11 y,-x,-z
12 -y,x,-z
13 1/2-x,1/2-y,1/2-z
14 1/2+x,1/2+y,1/2-z
15 1/2+y,1/2-x,1/2-z
16 1/2-y,1/2+x,1/2-z
_cell_length_a                   13.794(5)
_cell_length_b                   13.794(5)
_cell_length_c                   27.262(5)
_cell_angle_alpha                90
_cell_angle_beta                 90
_cell_angle_gamma                90
_cell_volume                     5187.26
loop_
_atom_site_label
_atom_site_type_symbol
_atom_site_fract_x
_atom_site_fract_y
_atom_site_fract_z
_atom_site_U_iso_or_equiv
_atom_site_thermal_displace_type
Zn1 Zn 0.65328(7) 0.23368(7) 0.20106(3) 0.0327 Uani
N1 N 0.7404(5) -0.0134(5) 0.2785(3) 0.0350 Uani
N2 N 0.7815(5) 0.1419(5) 0.2792(2) 0.0330 Uani
N3 N 0.7093(5) 0.1291(5) 0.2454(3) 0.0363 Uani
C1 C 0.6866(7) 0.0372(6) 0.2468(3) 0.0380 Uani
H1 H 0.6381 0.0098 0.2276 0.0460 Uiso
C2 C 0.7090(8) 0.1588(8) 0.0256(4) 0.0497 Uani
O1 O 0.6825(8) 0.1863(7) 0.1358(3) 0.0877 Uani
O2 O 0.6082(9) 0.3200(8) 0.1239(3) 0.0980 Uani
C3 C 0.8001(7) 0.0549(6) 0.2979(3) 0.0387 Uani
H2 H 0.8477 0.0424 0.3212 0.0460 Uiso
C4 C 0.6470(9) 0.2502(10) 0.1076(4) 0.0647 Uani
C5 C 0.7577(10) 0.0852(12) 0.0502(5) 0.0827 Uani
H3 H 0.7709 0.0908 0.0835 0.1000 Uiso
C6 C 0.6565(9) 0.2359(10) 0.0512(4) 0.0637 Uani
C7 C 0.6226(18) 0.3062(19) 0.0267(9) 0.0620 Uani
H4 H 0.5971 0.3592 0.0433 0.0740 Uiso
C8 C 0.786(3) 0.003(3) 0.0246(15) 0.0813 Uani
H5 H 0.8057 -0.0519 0.0415 0.0980 Uiso
C2I C 0.7090(8) 0.1588(8) -0.0256(4) 0.0497 Uani
O1I O 0.6825(8) 0.1863(7) -0.1358(3) 0.0877 Uani
O2I O 0.6082(9) 0.3200(8) -0.1239(3) 0.0980 Uani
C4I C 0.6470(9) 0.2502(10) -0.1076(4) 0.0647 Uani
C5I C 0.7577(10) 0.0852(12) -0.0502(5) 0.0827 Uani
H3I H 0.7709 0.0908 -0.0835 0.1000 Uiso
C6I C 0.6565(9) 0.2359(10) -0.0512(4) 0.0637 Uani
C7I C 0.6226(18) 0.3062(19) -0.0267(9) 0.0620 Uani
H4I H 0.5971 0.3592 -0.0433 0.0740 Uiso
C8I C 0.786(3) 0.003(3) -0.0246(15) 0.0813 Uani
H5I H 0.8057 -0.0519 -0.0415 0.0980 Uiso
Zn1I Zn 0.65328(7) 0.23368(7) -0.20106(3) 0.0327 Uani
N1I N 0.7404(5) -0.0134(5) -0.2785(3) 0.0350 Uani
N2I N 0.7815(5) 0.1419(5) -0.2792(2) 0.0330 Uani
N3I N 0.7093(5) 0.1291(5) -0.2454(3) 0.0363 Uani
C1I C 0.6866(7) 0.0372(6) -0.2468(3) 0.0380 Uani
H1I H 0.6381 0.0098 -0.2276 0.0460 Uiso
C3I C 0.8001(7) 0.0549(6) -0.2979(3) 0.0387 Uani
H2I H 0.8477 0.0424 -0.3212 0.0460 Uiso
Zn1E Zn 0.84672(7) 0.26632(7) -0.29894(3) 0.0327 Uani
Zn1G Zn 0.73368(7) -0.15328(7) -0.29894(3) 0.0327 Uani
Zn1L Zn 0.84672(7) 0.26632(7) 0.29894(3) 0.0327 Uani
Zn1N Zn 0.73368(7) -0.15328(7) 0.29894(3) 0.0327 Uani
N1F N 0.5134(5) 0.2404(5) -0.2215(3) 0.0350 Uani
N1O N 0.5134(5) 0.2404(5) 0.2215(3) 0.0350 Uani
N2E N 0.7185(5) 0.3581(5) -0.2208(2) 0.0330 Uani
N2L N 0.7185(5) 0.3581(5) 0.2208(2) 0.0330 Uani
loop_
_atom_site_aniso_label
_atom_site_aniso_U_11
_atom_site_aniso_U_22
_atom_site_aniso_U_33
_atom_site_aniso_U_23
_atom_site_aniso_U_13
_atom_site_aniso_U_12
Zn1 0.0274(6) 0.0366(7) 0.0340(6) 0.0027(5) -0.0046(4) -0.0024(5)
N1 0.033(4) 0.036(4) 0.036(4) -0.003(4) -0.011(3) 0.004(4)
N2 0.026(4) 0.044(5) 0.029(4) 0.000(3) -0.003(3) -0.001(3)
N3 0.035(4) 0.032(4) 0.042(4) 0.008(3) -0.001(4) -0.005(4)
C1 0.042(5) 0.032(5) 0.040(5) -0.004(4) -0.011(4) 0.000(4)
C2 0.058(6) 0.059(7) 0.032(5) 0.010(5) -0.008(5) -0.003(5)
O1 0.124(8) 0.107(7) 0.032(4) 0.015(5) 0.000(5) -0.014(6)
O2 0.145(9) 0.102(7) 0.047(5) -0.014(5) 0.022(6) 0.010(7)
C3 0.041(5) 0.028(5) 0.047(5) 0.005(5) -0.011(4) -0.014(4)
C4 0.072(8) 0.081(9) 0.041(6) -0.007(7) 0.006(6) 0.013(7)
C5 0.069(8) 0.124(12) 0.055(8) -0.010(8) 0.002(7) 0.003(8)
C6 0.072(8) 0.085(9) 0.034(6) 0.009(6) 0.005(5) -0.023(7)
C7 0.067(10) 0.065(10) 0.054(9) 0.001(7) 0.002(8) -0.002(8)
C8 0.081(14) 0.081(14) 0.082(14) 0.005(9) -0.003(9) 0.005(9)
C2I 0.058 0.059 0.032 -0.01 0.008 -0.003
O1I 0.124 0.107 0.032 -0.015 0 -0.014
O2I 0.145 0.102 0.047 0.014 -0.022 0.01
C4I 0.072 0.081 0.041 0.007 -0.006 0.013
C5I 0.069 0.124 0.055 0.01 -0.002 0.003
C6I 0.072 0.085 0.034 -0.009 -0.005 -0.023
C7I 0.067 0.065 0.054 -0.001 -0.002 -0.002
C8I 0.081 0.081 0.082 -0.005 0.003 0.005
Zn1I 0.0274 0.0366 0.034 -0.0027 0.0046 -0.0024
N1I 0.033 0.036 0.036 0.003 0.011 0.004
N2I 0.026 0.044 0.029 0 0.003 -0.001
N3I 0.035 0.032 0.042 -0.008 0.001 -0.005
C1I 0.042 0.032 0.04 0.004 0.011 0
C3I 0.041 0.028 0.047 -0.005 0.011 -0.014
Zn1E 0.0274 0.0366 0.034 -0.0027 0.0046 -0.0024
Zn1G 0.0366 0.0274 0.034 0.0046 0.0027 0.0024
Zn1L 0.0274 0.0366 0.034 0.0027 -0.0046 -0.0024
Zn1N 0.0366 0.0274 0.034 -0.0046 -0.0027 0.0024
N1F 0.036 0.033 0.036 -0.011 0.003 -0.004
N1O 0.036 0.033 0.036 0.011 -0.003 -0.004
N2E 0.026 0.044 0.029 0 0.003 -0.001
N2L 0.026 0.044 0.029 0 -0.003 -0.001
loop_
_geom_bond_atom_site_label_1
_geom_bond_atom_site_label_2
_geom_bond_site_symmetry_1
_geom_bond_site_symmetry_2
Zn1 N3 1_555 1_555
N1 C1 1_555 1_555
N2 N3 1_555 1_555
N3 C1 1_555 1_555
C1 H1 1_555 1_555
C2 C5 1_555 1_555
O1 Zn1 1_555 1_555
O2 Zn1 1_555 1_555
C3 N1 1_555 1_555
H2 C3 1_555 1_555
C4 O1 1_555 1_555
C5 H3 1_555 1_555
C6 C2 1_555 1_555
C7 C6 1_555 1_555
H4 C7 1_555 1_555
C8 C5 1_555 1_555
H5 C8 1_555 1_555
C2I C2 1_555 1_555
O1I C4I 1_555 1_555
O2I C4I 1_555 1_555
C4I C6I 1_555 1_555
C5I C2I 1_555 1_555
H3I C5I 1_555 1_555
C6I C2I 1_555 1_555
C7I C7 1_555 1_555
H4I C7I 1_555 1_555
C8I C8 1_555 1_555
H5I C8I 1_555 1_555
Zn1I O1I 1_555 1_555
N1I C1I 1_555 1_555
N2I N3I 1_555 1_555
N3I Zn1I 1_555 1_555
C1I N3I 1_555 1_555
H1I C1I 1_555 1_555
C3I N1I 1_555 1_555
H2I C3I 1_555 1_555
Zn1E N2I 1_555 1_555
Zn1G N1I 1_555 1_555
Zn1L N2 1_555 1_555
Zn1N N1 1_555 1_555
N1F Zn1I 1_555 1_555
N1O Zn1 1_555 1_555
N2E Zn1I 1_555 1_555
N2L Zn1 1_555 1_555
N2 C3 1_555 1_555
O2 C4 1_555 1_555
C4 C6 1_555 1_555
O2I Zn1I 1_555 1_555
C5I C8I 1_555 1_555
C6I C7I 1_555 1_555
N2I C3I 1_555 1_555

#END
