
#######################################################################
#
#                 Cambridge Crystallographic Data Centre
#                                CCDC 
#
#######################################################################
#
# If this CIF has been generated from an entry in the Cambridge 
# Structural Database, then it will include bibliographic, chemical, 
# crystal, experimental, refinement or atomic coordinate data resulting 
# from the CCDC's data processing and validation procedures.
#
#######################################################################

data_NOSTUM01
_chemical_formula_moiety         '(C13 H8 Mg1 N2 O9)n'
_symmetry_cell_setting           monoclinic
_symmetry_space_group_name_H-M   'C 2/c'
_symmetry_Int_Tables_number      15
_space_group_name_Hall           '-C 2yc'
loop_
_symmetry_equiv_pos_site_id
_symmetry_equiv_pos_as_xyz
1 x,y,z
2 -x,y,1/2-z
3 1/2+x,1/2+y,z
4 1/2-x,1/2+y,1/2-z
5 -x,-y,-z
6 x,-y,1/2+z
7 1/2-x,1/2-y,-z
8 1/2+x,1/2-y,1/2+z
_cell_length_a                   13.741(3)
_cell_length_b                   13.972(3)
_cell_length_c                   8.8045(18)
_cell_angle_alpha                90
_cell_angle_beta                 113.76(3)
_cell_angle_gamma                90
_cell_volume                     1547.1
loop_
_atom_site_label
_atom_site_type_symbol
_atom_site_fract_x
_atom_site_fract_y
_atom_site_fract_z
_atom_site_U_iso_or_equiv
_atom_site_thermal_displace_type
C5 C 0.3675(3) 0.4662(3) 0.0584(6) 0.0904 Uani
C6 C 0.5000 0.6059(4) 0.2500 0.1350 Uani
C7 C 0.4655(4) 0.4344(4) 0.2002(9) 0.0489 Uani
N1 N 0.4733(4) 0.5024(4) 0.2021(10) 0.0689 Uani
O5 O 0.5000 0.3499(2) 0.2500 0.0794 Uani
C5A C 0.6325(3) 0.4662(3) 0.4416(6) 0.0904 Uani
C7A C 0.5345(4) 0.4344(4) 0.2998(9) 0.0489 Uani
N1A N 0.5267(4) 0.5024(4) 0.2979(10) 0.0689 Uani
Mg1 Mg -0.0000 0.57780(6) 0.2500 0.0165 Uani
O1 O 0.09191(14) 0.57699(11) 0.11564(19) 0.0316 Uani
O2 O 0.10206(13) 0.52614(11) -0.11511(18) 0.0276 Uani
O3 O 0.18938(14) 0.62701(12) -0.26724(18) 0.0335 Uani
H1 H 0.1472 0.5869 -0.2621 0.0500 Uiso
O4 O 0.09520(15) 0.68447(11) 0.4033(2) 0.0362 Uani
C1 C 0.12089(15) 0.58576(14) 0.0010(2) 0.0184 Uani
C2 C 0.18695(15) 0.67077(14) -0.0015(2) 0.0179 Uani
C3 C 0.22013(17) 0.73456(15) 0.1304(2) 0.0215 Uani
H2 H 0.2002 0.7244 0.2182 0.0260 Uiso
C4 C 0.21766(16) 0.68704(14) -0.1336(2) 0.0206 Uani
H3 H 0.0707(17) 0.7403(8) 0.367(2) 0.0250 Uiso
H4 H 0.1181(18) 0.6750(13) 0.5068(8) 0.0250 Uiso
O1F O 0.40809(14) 0.92301(11) -0.11564(19) 0.0316 Uani
O2F O 0.39794(13) 0.97386(11) 0.11511(18) 0.0276 Uani
O3F O 0.31062(14) 0.87299(12) 0.26724(18) 0.0335 Uani
H1F H 0.3528 0.9131 0.2621 0.0500 Uiso
C1F C 0.37911(15) 0.91424(14) -0.0010(2) 0.0184 Uani
C2F C 0.31305(15) 0.82923(14) 0.0015(2) 0.0179 Uani
C3F C 0.27987(17) 0.76544(15) -0.1304(2) 0.0215 Uani
H2F H 0.2998 0.7756 -0.2182 0.0260 Uiso
C4F C 0.28234(16) 0.81296(14) 0.1336(2) 0.0206 Uani
O4A O -0.09520(15) 0.68447(11) 0.0967(2) 0.0362 Uani
H3A H -0.0707(17) 0.7403(8) 0.133(2) 0.0250 Uiso
H4A H -0.1181(18) 0.6750(13) -0.0068(8) 0.0250 Uiso
Mg1B Mg 0.5000 1.07780(6) 0.2500 0.0165 Uani
Mg1D Mg 0.0000 0.42220(6) -0.2500 0.0165 Uani
Mg1F Mg 0.5000 0.92220(6) -0.2500 0.0165 Uani
O1A O -0.09191(14) 0.57699(11) 0.38436(19) 0.0316 Uani
O2D O -0.10206(13) 0.47386(11) 0.11511(18) 0.0276 Uani
O2E O 0.10206(13) 0.47386(11) 0.38489(18) 0.0276 Uani
loop_
_atom_site_aniso_label
_atom_site_aniso_U_11
_atom_site_aniso_U_22
_atom_site_aniso_U_33
_atom_site_aniso_U_23
_atom_site_aniso_U_13
_atom_site_aniso_U_12
C5 0.057 0.082 0.108 0.033 0.008 0.02
C6 0.104(5) 0.024(2) 0.291(12) 0.000 0.094(7) 0.000
C7 0.034(3) 0.031(3) 0.079(5) 0.004(3) 0.020(3) 0.002(2)
N1 0.051(5) 0.031(3) 0.126(8) 0.020(3) 0.037(4) 0.008(2)
O5 0.081 0.0235 0.119 0 0.025 0
C5A 0.057 0.082 0.108 -0.033 0.008 -0.02
C7A 0.034 0.031 0.079 -0.004 0.02 -0.002
N1A 0.051 0.031 0.126 -0.02 0.037 -0.008
Mg1 0.0247(5) 0.0117(5) 0.0157(5) 0.000 0.0108(4) 0.000
O1 0.0427(10) 0.0341(9) 0.0295(9) -0.0063(6) 0.0264(8) -0.0168(7)
O2 0.0355 0.0246 0.0288 -0.0104 0.0194 -0.0146
O3 0.0534(11) 0.0330(9) 0.0226(8) -0.0141(7) 0.0243(7) -0.0247(8)
O4 0.0543(11) 0.0231(8) 0.0228(8) -0.0043(6) 0.0067(8) -0.0027(7)
C1 0.0204(10) 0.0190(10) 0.0173(10) 0.0007(7) 0.0093(8) -0.0024(7)
C2 0.0206(10) 0.0180(10) 0.0170(9) -0.0005(7) 0.0096(8) -0.0039(7)
C3 0.0293(11) 0.0234(10) 0.0169(9) -0.0022(8) 0.0146(8) -0.0068(8)
C4 0.0278(11) 0.0210(10) 0.0150(9) -0.0043(7) 0.0107(8) -0.0056(8)
O1F 0.0427 0.0341 0.0295 -0.0063 0.0264 -0.0168
O2F 0.0355 0.0246 0.0288 -0.0104 0.0194 -0.0146
O3F 0.0534 0.033 0.0226 -0.0141 0.0243 -0.0247
C1F 0.0204 0.019 0.0173 0.0007 0.0093 -0.0024
C2F 0.0206 0.018 0.017 -0.0005 0.0096 -0.0039
C3F 0.0293 0.0234 0.0169 -0.0022 0.0146 -0.0068
C4F 0.0278 0.021 0.015 -0.0043 0.0107 -0.0056
O4A 0.0543 0.0231 0.0228 0.0043 0.0067 0.0027
Mg1B 0.0247 0.0117 0.0157 0 0.0108 0
Mg1D 0.0247 0.0117 0.0157 0 0.0108 0
Mg1F 0.0247 0.0117 0.0157 0 0.0108 0
O1A 0.0427 0.0341 0.0295 0.0063 0.0264 0.0168
O2D 0.0355 0.0246 0.0288 -0.0104 0.0194 -0.0146
O2E 0.0355 0.0246 0.0288 0.0104 0.0194 0.0146
loop_
_geom_bond_atom_site_label_1
_geom_bond_atom_site_label_2
_geom_bond_site_symmetry_1
_geom_bond_site_symmetry_2
Mg1 O1 1_555 1_555
O1 C1 1_555 1_555
O2 C1 1_555 1_555
O3 H1 1_555 1_555
O4 Mg1 1_555 1_555
C1 C2 1_555 1_555
C2 C3 1_555 1_555
C3 H2 1_555 1_555
C4 O3 1_555 1_555
H3 O4 1_555 1_555
H4 O4 1_555 1_555
C5 C7 1_555 1_555
C6 N1 1_555 1_555
C7 O5 1_555 1_555
N1 C5 1_555 1_555
O5 C7A 1_555 1_555
O1F C1F 1_555 1_555
O2F C1F 1_555 1_555
O3F H1F 1_555 1_555
C1F C2F 1_555 1_555
C2F C3F 1_555 1_555
C3F C4 1_555 1_555
H2F C3F 1_555 1_555
C4F C3 1_555 1_555
O4A Mg1 1_555 1_555
H3A O4A 1_555 1_555
H4A O4A 1_555 1_555
Mg1B O2F 1_555 1_555
Mg1D O2 1_555 1_555
Mg1F O1F 1_555 1_555
O1A Mg1 1_555 1_555
O2D Mg1 1_555 1_555
O2E Mg1 1_555 1_555
C5A C7A 1_555 1_555
C7A C7 1_555 1_555
N1A C6 1_555 1_555
C2 C4 1_555 1_555
N1 N1A 1_555 1_555
O3F C4F 1_555 1_555
C2F C4F 1_555 1_555
C5A N1A 1_555 1_555

#END
