
#######################################################################
#
#                 Cambridge Crystallographic Data Centre
#                                CCDC 
#
#######################################################################
#
# If this CIF has been generated from an entry in the Cambridge 
# Structural Database, then it will include bibliographic, chemical, 
# crystal, experimental, refinement or atomic coordinate data resulting 
# from the CCDC's data processing and validation procedures.
#
#######################################################################

data_IPIHUM
_chemical_formula_moiety         '(C6 H6 Co1 N4 O2)n'
_symmetry_cell_setting           rhombohedral
_symmetry_space_group_name_H-M   'R -3'
_symmetry_Int_Tables_number      148
_space_group_name_Hall           '-R 3'
loop_
_symmetry_equiv_pos_site_id
_symmetry_equiv_pos_as_xyz
1 x,y,z
2 -y,x-y,z
3 -x+y,-x,z
4 2/3+x,1/3+y,1/3+z
5 2/3-y,1/3+x-y,1/3+z
6 2/3-x+y,1/3-x,1/3+z
7 1/3+x,2/3+y,2/3+z
8 1/3-y,2/3+x-y,2/3+z
9 1/3-x+y,2/3-x,2/3+z
10 -x,-y,-z
11 y,-x+y,-z
12 x-y,x,-z
13 1/3-x,2/3-y,2/3-z
14 1/3+y,2/3-x+y,2/3-z
15 1/3+x-y,2/3+x,2/3-z
16 2/3-x,1/3-y,1/3-z
17 2/3+y,1/3-x+y,1/3-z
18 2/3+x-y,1/3+x,1/3-z
_cell_length_a                   17.7780(13)
_cell_length_b                   17.7780(13)
_cell_length_c                   18.6529(13)
_cell_angle_alpha                90
_cell_angle_beta                 90
_cell_angle_gamma                120
_cell_volume                     5105.55
loop_
_atom_site_label
_atom_site_type_symbol
_atom_site_fract_x
_atom_site_fract_y
_atom_site_fract_z
Co1 Co 0.61806(4) -0.04069(4) 0.20922(2)
O1 O 0.7344(2) 0.0748(2) 0.20491(13)
O2 O 0.8899(3) 0.1822(2) 0.41462(13)
N1 N 0.6980(2) -0.0278(3) 0.43003(15)
N2 N 0.6638(3) -0.0345(3) 0.31390(15)
N3 N 0.8472(3) 0.1756(3) 0.26940(19)
H1 H 0.875(4) 0.189(4) 0.312(3)
H2 H 0.881(4) 0.215(4) 0.235(4)
N4 N 0.8187(3) 0.0936(4) 0.51193(16)
H3 H 0.858(3) 0.128(4) 0.536(3)
C1 C 0.6412(3) -0.0751(3) 0.37681(18)
C2 C 0.7755(4) 0.1009(4) 0.26358(19)
C3 C 0.7379(3) 0.0430(3) 0.32613(19)
C4 C 0.7599(3) 0.0474(4) 0.39800(18)
C5 C 0.8290(3) 0.1135(4) 0.4438(2)
C6 C 0.5635(3) -0.1635(3) 0.3875(2)
H4 H 0.5174 -0.1703 0.3565
H5 H 0.5448 -0.1699 0.4365
H6 H 0.5786 -0.2070 0.3762
Co1D Co 0.70736(4) -0.00792(6) 0.54255(2)
Co1N Co 0.99208(6) 0.28473(4) 0.45745(2)
O2M O 0.5155(2) -0.0410(4) 0.25205(13)
N1H N 0.6075(4) -0.0313(2) 0.09670(15)
N4H N 0.6082(5) -0.1520(3) 0.17860(16)
loop_
_geom_bond_atom_site_label_1
_geom_bond_atom_site_label_2
_geom_bond_site_symmetry_1
_geom_bond_site_symmetry_2
Co1 O1 1_555 1_555
O1 C2 1_555 1_555
O2 C5 1_555 1_555
N1 C1 1_555 1_555
N2 Co1 1_555 1_555
N3 H1 1_555 1_555
H2 N3 1_555 1_555
N4 H3 1_555 1_555
C1 N2 1_555 1_555
C2 N3 1_555 1_555
C3 N2 1_555 1_555
C4 N1 1_555 1_555
C5 N4 1_555 1_555
C6 C1 1_555 1_555
H4 C6 1_555 1_555
H5 C6 1_555 1_555
H6 C6 1_555 1_555
Co1D N1 1_555 1_555
Co1N O2 1_555 1_555
O2M Co1 1_555 1_555
N1H Co1 1_555 1_555
N4H Co1 1_555 1_555
N4 Co1D 1_555 1_555
C2 C3 1_555 1_555
C3 C4 1_555 1_555
C4 C5 1_555 1_555

#END
