
#######################################################################
#
#                 Cambridge Crystallographic Data Centre
#                                CCDC 
#
#######################################################################
#
# If this CIF has been generated from an entry in the Cambridge 
# Structural Database, then it will include bibliographic, chemical, 
# crystal, experimental, refinement or atomic coordinate data resulting 
# from the CCDC's data processing and validation procedures.
#
#######################################################################

data_LASPOM
_chemical_formula_moiety         '(C46 H26 Cu2 N4 O8)n'
_symmetry_cell_setting           monoclinic
_symmetry_space_group_name_H-M   'C 2/c'
_symmetry_Int_Tables_number      15
_space_group_name_Hall           '-C 2yc'
loop_
_symmetry_equiv_pos_site_id
_symmetry_equiv_pos_as_xyz
1 x,y,z
2 -x,y,1/2-z
3 1/2+x,1/2+y,z
4 1/2-x,1/2+y,1/2-z
5 -x,-y,-z
6 x,-y,1/2+z
7 1/2-x,1/2-y,-z
8 1/2+x,1/2-y,1/2+z
_cell_length_a                   18.101(4)
_cell_length_b                   15.391(4)
_cell_length_c                   16.678(4)
_cell_angle_alpha                90
_cell_angle_beta                 111.648(3)
_cell_angle_gamma                90
_cell_volume                     4318.65
loop_
_atom_site_label
_atom_site_type_symbol
_atom_site_fract_x
_atom_site_fract_y
_atom_site_fract_z
_atom_site_U_iso_or_equiv
_atom_site_thermal_displace_type
C1 C 0.2599(4) -0.0123(4) 0.1152(4) 0.0323 Uani
C2 C 0.2449(4) -0.0774(4) 0.1755(4) 0.0309 Uani
C3 C 0.3029(4) -0.1355(4) 0.2238(4) 0.0341 Uani
H1 H 0.3507 -0.1391 0.2152 0.0410 Uiso
C4 C 0.2897(4) -0.1886(4) 0.2850(4) 0.0305 Uani
H2 H 0.3285 -0.2278 0.3169 0.0370 Uiso
C5 C 0.2181(4) -0.1826(4) 0.2982(4) 0.0269 Uani
C6 C 0.1573(4) -0.1304(4) 0.2457(4) 0.0266 Uani
C7 C 0.1718(4) -0.0769(4) 0.1834(4) 0.0357 Uani
H3 H 0.1316 -0.0412 0.1479 0.0430 Uiso
C8 C 0.0774(4) -0.1289(4) 0.2487(4) 0.0294 Uani
C9 C 0.0381(4) -0.2070(4) 0.2493(4) 0.0290 Uani
H4 H 0.0634 -0.2595 0.2489 0.0350 Uiso
C10 C 0.0371(4) -0.0524(4) 0.2484(5) 0.0434 Uani
H5 H 0.0613 0.0003 0.2460 0.0520 Uiso
C11 C 0.2099(4) -0.2298(4) 0.3750(4) 0.0296 Uani
C12 C 0.2335(5) 0.0507(5) 0.3979(5) 0.0495 Uani
H6 H 0.1897 0.0547 0.4140 0.0600 Uiso
C13 C 0.2401(6) 0.1108(5) 0.3381(5) 0.0615 Uani
H7 H 0.2012 0.1528 0.3141 0.0740 Uiso
C14 C 0.3062(6) 0.1056(5) 0.3158(5) 0.0607 Uani
H8 H 0.3126 0.1448 0.2764 0.0730 Uiso
C15 C 0.3638(5) 0.0415(5) 0.3524(4) 0.0477 Uani
C16 C 0.3515(4) -0.0161(4) 0.4119(4) 0.0360 Uani
C17 C 0.4058(4) -0.0836(4) 0.4493(4) 0.0359 Uani
C18 C 0.4383(4) -0.2052(5) 0.5380(4) 0.0446 Uani
H9 H 0.4274 -0.2435 0.5753 0.0540 Uiso
C19 C 0.5075(5) -0.2174(6) 0.5202(5) 0.0617 Uani
H10 H 0.5408 -0.2642 0.5444 0.0740 Uiso
C20 C 0.5259(5) -0.1612(6) 0.4679(5) 0.0577 Uani
H11 H 0.5725 -0.1686 0.4573 0.0700 Uiso
C21 C 0.4754(4) -0.0928(5) 0.4302(4) 0.0467 Uani
C22 C 0.4861(5) -0.0296(6) 0.3700(5) 0.0580 Uani
H12 H 0.5320 -0.0321 0.3574 0.0700 Uiso
C23 C 0.4319(5) 0.0320(6) 0.3322(5) 0.0585 Uani
H13 H 0.4397 0.0689 0.2919 0.0700 Uiso
Cu1 Cu 0.28330(5) -0.10607(5) 0.52538(5) 0.0356 Uani
N1 N 0.3877(3) -0.1405(3) 0.5032(3) 0.0341 Uani
N2 N 0.2859(3) -0.0117(3) 0.4331(3) 0.0361 Uani
O1 O 0.2027(2) -0.1841(3) 0.4338(2) 0.0303 Uani
O2 O 0.2083(3) -0.3116(3) 0.3733(3) 0.0380 Uani
O3 O 0.2020(3) 0.0301(3) 0.0638(3) 0.0384 Uani
O4 O 0.3292(3) 0.0015(3) 0.1213(3) 0.0364 Uani
C1A C -0.2599(4) -0.0123(4) 0.3848(4) 0.0323 Uani
C2A C -0.2449(4) -0.0774(4) 0.3245(4) 0.0309 Uani
C3A C -0.3029(4) -0.1355(4) 0.2762(4) 0.0341 Uani
H1A H -0.3507 -0.1391 0.2848 0.0410 Uiso
C4A C -0.2897(4) -0.1886(4) 0.2150(4) 0.0305 Uani
H2A H -0.3285 -0.2278 0.1831 0.0370 Uiso
C5A C -0.2181(4) -0.1826(4) 0.2018(4) 0.0269 Uani
C6A C -0.1573(4) -0.1304(4) 0.2543(4) 0.0266 Uani
C7A C -0.1718(4) -0.0769(4) 0.3166(4) 0.0357 Uani
H3A H -0.1316 -0.0412 0.3521 0.0430 Uiso
C8A C -0.0774(4) -0.1289(4) 0.2513(4) 0.0294 Uani
C9A C -0.0381(4) -0.2070(4) 0.2507(4) 0.0290 Uani
H4A H -0.0634 -0.2595 0.2511 0.0350 Uiso
C10A C -0.0371(4) -0.0524(4) 0.2516(5) 0.0434 Uani
H5A H -0.0613 0.0003 0.2540 0.0520 Uiso
C11A C -0.2099(4) -0.2298(4) 0.1250(4) 0.0296 Uani
C12A C -0.2335(5) 0.0507(5) 0.1021(5) 0.0495 Uani
H6A H -0.1897 0.0547 0.0860 0.0600 Uiso
C13A C -0.2401(6) 0.1108(5) 0.1619(5) 0.0615 Uani
H7A H -0.2012 0.1528 0.1859 0.0740 Uiso
C14A C -0.3062(6) 0.1056(5) 0.1842(5) 0.0607 Uani
H8A H -0.3126 0.1448 0.2236 0.0730 Uiso
C15A C -0.3638(5) 0.0415(5) 0.1476(4) 0.0477 Uani
C16A C -0.3515(4) -0.0161(4) 0.0881(4) 0.0360 Uani
C17A C -0.4058(4) -0.0836(4) 0.0507(4) 0.0359 Uani
C18A C -0.4383(4) -0.2052(5) -0.0380(4) 0.0446 Uani
H9A H -0.4274 -0.2435 -0.0753 0.0540 Uiso
C19A C -0.5075(5) -0.2174(6) -0.0202(5) 0.0617 Uani
H10A H -0.5408 -0.2642 -0.0444 0.0740 Uiso
C20A C -0.5259(5) -0.1612(6) 0.0321(5) 0.0577 Uani
H11A H -0.5725 -0.1686 0.0427 0.0700 Uiso
C21A C -0.4754(4) -0.0928(5) 0.0698(4) 0.0467 Uani
C22A C -0.4861(5) -0.0296(6) 0.1300(5) 0.0580 Uani
H12A H -0.5320 -0.0321 0.1426 0.0700 Uiso
C23A C -0.4319(5) 0.0320(6) 0.1678(5) 0.0585 Uani
H13A H -0.4397 0.0689 0.2081 0.0700 Uiso
Cu1A Cu -0.28330(5) -0.10607(5) -0.02538(5) 0.0356 Uani
Cu1F Cu 0.21670(5) -0.39393(5) 0.47462(5) 0.0356 Uani
Cu1E Cu 0.28330(5) 0.10607(5) 0.02538(5) 0.0356 Uani
Cu1D Cu -0.28330(5) 0.10607(5) 0.47462(5) 0.0356 Uani
Cu1G Cu -0.21670(5) -0.39393(5) 0.02538(5) 0.0356 Uani
N1A N -0.3877(3) -0.1405(3) -0.0032(3) 0.0341 Uani
N2A N -0.2859(3) -0.0117(3) 0.0669(3) 0.0361 Uani
O1A O -0.2027(2) -0.1841(3) 0.0662(2) 0.0303 Uani
O2A O -0.2083(3) -0.3116(3) 0.1267(3) 0.0380 Uani
O2F O 0.2917(3) -0.1884(3) 0.6267(3) 0.0380 Uani
O2G O -0.2917(3) -0.1884(3) -0.1267(3) 0.0380 Uani
O3A O -0.2020(3) 0.0301(3) 0.4362(3) 0.0384 Uani
O3E O 0.2020(3) -0.0301(3) 0.5638(3) 0.0384 Uani
O3D O -0.2020(3) -0.0301(3) -0.0638(3) 0.0384 Uani
O4A O -0.3292(3) 0.0015(3) 0.3787(3) 0.0364 Uani
O4E O 0.3292(3) -0.0015(3) 0.6213(3) 0.0364 Uani
O4D O -0.3292(3) -0.0015(3) -0.1213(3) 0.0364 Uani
loop_
_atom_site_aniso_label
_atom_site_aniso_U_11
_atom_site_aniso_U_22
_atom_site_aniso_U_33
_atom_site_aniso_U_23
_atom_site_aniso_U_13
_atom_site_aniso_U_12
C1 0.046(4) 0.032(3) 0.024(3) 0.005(3) 0.019(3) -0.002(3)
C2 0.038(4) 0.032(3) 0.027(3) 0.000(3) 0.017(3) -0.007(3)
C3 0.040(4) 0.035(3) 0.035(4) -0.005(3) 0.023(3) -0.007(3)
C4 0.033(3) 0.031(3) 0.026(3) 0.002(3) 0.009(3) -0.001(3)
C5 0.036(4) 0.025(3) 0.024(3) -0.006(3) 0.016(3) -0.012(3)
C6 0.031(3) 0.029(3) 0.024(3) 0.004(3) 0.015(3) -0.005(3)
C7 0.040(4) 0.031(3) 0.036(4) 0.005(3) 0.014(3) -0.003(3)
C8 0.035(3) 0.031(3) 0.024(3) 0.002(3) 0.013(3) -0.003(3)
C9 0.032(3) 0.022(3) 0.033(3) -0.001(3) 0.012(3) 0.000(3)
C10 0.044(4) 0.029(4) 0.062(5) 0.008(3) 0.025(4) -0.004(3)
C11 0.034 0.032 0.024 0.001 0.012 -0.001
C12 0.052 0.047 0.049 0.006 0.018 -0.005
C13 0.091 0.044 0.054 0.025 0.032 0.019
C14 0.092 0.054 0.037 0.018 0.025 -0.009
C15 0.065 0.044 0.036 -0.006 0.021 -0.021
C16 0.054 0.034 0.024 -0.008 0.019 -0.014
C17 0.043 0.04 0.028 -0.013 0.017 -0.018
C18 0.046 0.047 0.049 0.004 0.027 0.005
C19 0.046 0.075 0.064 -0.005 0.02 0.018
C20 0.041 0.082 0.059 -0.016 0.029 0.003
C21 0.038 0.072 0.037 -0.019 0.022 -0.026
C22 0.056 0.084 0.052 -0.019 0.041 -0.037
C23 0.07 0.068 0.045 -0.006 0.03 -0.03
Cu1 0.0478 0.0323 0.0315 -0.0019 0.0204 -0.0015
N1 0.043 0.034 0.027 -0.007 0.015 -0.005
N2 0.048 0.031 0.032 -0.003 0.018 -0.001
O1 0.041 0.028 0.026 -0.003 0.017 -0.0013
O2 0.065 0.028 0.027 0 0.024 -0.001
O3 0.039(3) 0.042(3) 0.036(3) 0.014(2) 0.016(2) -0.004(2)
O4 0.033(3) 0.038(3) 0.044(3) 0.004(2) 0.021(2) -0.006(2)
C1A 0.046 0.032 0.024 -0.005 0.019 0.002
C2A 0.038 0.032 0.027 0 0.017 0.007
C3A 0.04 0.035 0.035 0.005 0.023 0.007
C4A 0.033 0.031 0.026 -0.002 0.009 0.001
C5A 0.036 0.025 0.024 0.006 0.016 0.012
C6A 0.031 0.029 0.024 -0.004 0.015 0.005
C7A 0.04 0.031 0.036 -0.005 0.014 0.003
C8A 0.035 0.031 0.024 -0.002 0.013 0.003
C9A 0.032 0.022 0.033 0.001 0.012 0
C10A 0.044 0.029 0.062 -0.008 0.025 0.004
C11A 0.034 0.032 0.024 -0.001 0.012 0.001
C12A 0.052 0.047 0.049 -0.006 0.018 0.005
C13A 0.091 0.044 0.054 -0.025 0.032 -0.019
C14A 0.092 0.054 0.037 -0.018 0.025 0.009
C15A 0.065 0.044 0.036 0.006 0.021 0.021
C16A 0.054 0.034 0.024 0.008 0.019 0.014
C17A 0.043 0.04 0.028 0.013 0.017 0.018
C18A 0.046 0.047 0.049 -0.004 0.027 -0.005
C19A 0.046 0.075 0.064 0.005 0.02 -0.018
C20A 0.041 0.082 0.059 0.016 0.029 -0.003
C21A 0.038 0.072 0.037 0.019 0.022 0.026
C22A 0.056 0.084 0.052 0.019 0.041 0.037
C23A 0.07 0.068 0.045 0.006 0.03 0.03
Cu1A 0.0478 0.0323 0.0315 0.0019 0.0204 0.0015
Cu1F 0.0478 0.0323 0.0315 -0.0019 0.0204 -0.0015
Cu1E 0.0478(6) 0.0323(5) 0.0315(5) 0.0019(4) 0.0204(4) 0.0015(4)
Cu1D 0.0478 0.0323 0.0315 -0.0019 0.0204 -0.0015
Cu1G 0.0478 0.0323 0.0315 0.0019 0.0204 0.0015
N1A 0.043 0.034 0.027 0.007 0.015 0.005
N2A 0.048 0.031 0.032 0.003 0.018 0.001
O1A 0.041 0.028 0.026 0.003 0.017 0.0013
O2A 0.065 0.028 0.027 0 0.024 0.001
O2F 0.065 0.028 0.027 0 0.024 -0.001
O2G 0.065 0.028 0.027 0 0.024 0.001
O3A 0.039 0.042 0.036 -0.014 0.016 0.004
O3E 0.039 0.042 0.036 -0.014 0.016 0.004
O3D 0.039 0.042 0.036 0.014 0.016 -0.004
O4A 0.033 0.038 0.044 -0.004 0.021 0.006
O4E 0.033 0.038 0.044 -0.004 0.021 0.006
O4D 0.033 0.038 0.044 0.004 0.021 -0.006
loop_
_geom_bond_atom_site_label_1
_geom_bond_atom_site_label_2
_geom_bond_site_symmetry_1
_geom_bond_site_symmetry_2
C1 C2 1_555 1_555
C2 C3 1_555 1_555
C3 H1 1_555 1_555
C4 C3 1_555 1_555
H2 C4 1_555 1_555
C5 C4 1_555 1_555
C6 C5 1_555 1_555
C7 C2 1_555 1_555
H3 C7 1_555 1_555
C8 C6 1_555 1_555
C9 C8 1_555 1_555
H4 C9 1_555 1_555
C10 C8 1_555 1_555
H5 C10 1_555 1_555
C11 C5 1_555 1_555
C12 H6 1_555 1_555
C13 C12 1_555 1_555
H7 C13 1_555 1_555
C14 C13 1_555 1_555
H8 C14 1_555 1_555
C15 C14 1_555 1_555
C16 C15 1_555 1_555
C17 C16 1_555 1_555
C18 H9 1_555 1_555
C19 C18 1_555 1_555
H10 C19 1_555 1_555
C20 C19 1_555 1_555
H11 C20 1_555 1_555
C21 C17 1_555 1_555
C22 C21 1_555 1_555
H12 C22 1_555 1_555
C23 C15 1_555 1_555
H13 C23 1_555 1_555
Cu1 N1 1_555 1_555
N1 C17 1_555 1_555
N2 C12 1_555 1_555
O1 C11 1_555 1_555
O2 C11 1_555 1_555
O3 C1 1_555 1_555
O4 C1 1_555 1_555
C1A C2A 1_555 1_555
C2A C3A 1_555 1_555
C3A H1A 1_555 1_555
C4A C3A 1_555 1_555
H2A C4A 1_555 1_555
C5A C4A 1_555 1_555
C6A C5A 1_555 1_555
C7A C2A 1_555 1_555
H3A C7A 1_555 1_555
C8A C6A 1_555 1_555
C9A C9 1_555 1_555
H4A C9A 1_555 1_555
C10A C10 1_555 1_555
H5A C10A 1_555 1_555
C11A C5A 1_555 1_555
C12A H6A 1_555 1_555
C13A C12A 1_555 1_555
H7A C13A 1_555 1_555
C14A C13A 1_555 1_555
H8A C14A 1_555 1_555
C15A C14A 1_555 1_555
C16A C15A 1_555 1_555
C17A C16A 1_555 1_555
C18A H9A 1_555 1_555
C19A C18A 1_555 1_555
H10A C19A 1_555 1_555
C20A C19A 1_555 1_555
H11A C20A 1_555 1_555
C21A C17A 1_555 1_555
C22A C21A 1_555 1_555
H12A C22A 1_555 1_555
C23A C15A 1_555 1_555
H13A C23A 1_555 1_555
Cu1A N1A 1_555 1_555
Cu1F O2 1_555 1_555
Cu1E O3 1_555 1_555
Cu1D O3A 1_555 1_555
Cu1G O2A 1_555 1_555
N1A C17A 1_555 1_555
N2A C12A 1_555 1_555
O1A C11A 1_555 1_555
O2A C11A 1_555 1_555
O2F Cu1 1_555 1_555
O2G Cu1A 1_555 1_555
O3A C1A 1_555 1_555
O3E Cu1 1_555 1_555
O3D Cu1A 1_555 1_555
O4A C1A 1_555 1_555
O4E Cu1 1_555 1_555
O4D Cu1A 1_555 1_555
C6 C7 1_555 1_555
C16 N2 1_555 1_555
C18 N1 1_555 1_555
C20 C21 1_555 1_555
C22 C23 1_555 1_555
Cu1 N2 1_555 1_555
Cu1 O1 1_555 1_555
O4 Cu1E 1_555 1_555
C6A C7A 1_555 1_555
C8A C9A 1_555 1_555
C8A C10A 1_555 1_555
C16A N2A 1_555 1_555
C18A N1A 1_555 1_555
C20A C21A 1_555 1_555
C22A C23A 1_555 1_555
Cu1A N2A 1_555 1_555
Cu1A O1A 1_555 1_555
Cu1D O4A 1_555 1_555

#END
