
#######################################################################
#
#                 Cambridge Crystallographic Data Centre
#                                CCDC 
#
#######################################################################
#
# If this CIF has been generated from an entry in the Cambridge 
# Structural Database, then it will include bibliographic, chemical, 
# crystal, experimental, refinement or atomic coordinate data resulting 
# from the CCDC's data processing and validation procedures.
#
#######################################################################

data_EDUVEE
_chemical_formula_moiety         'C83 H16 O30 Zn16'
_symmetry_cell_setting           rhombohedral
_symmetry_space_group_name_H-M   'R -3 m'
_symmetry_Int_Tables_number      166
_space_group_name_Hall           '-R 3 2"'
loop_
_symmetry_equiv_pos_site_id
_symmetry_equiv_pos_as_xyz
1 x,y,z
2 -y,x-y,z
3 -x+y,-x,z
4 y,x,-z
5 2/3+x,1/3+y,1/3+z
6 2/3-y,1/3+x-y,1/3+z
7 2/3-x+y,1/3-x,1/3+z
8 2/3+y,1/3+x,1/3-z
9 1/3+x,2/3+y,2/3+z
10 1/3+y,2/3+x,2/3-z
11 -x+y,y,z
12 x,x-y,z
13 2/3+y,1/3-x+y,1/3-z
14 2/3+x-y,1/3+x,1/3-z
15 2/3-x+y,1/3+y,1/3+z
16 2/3+x,1/3+x-y,1/3+z
17 1/3-x+y,2/3+y,2/3+z
18 1/3+x,2/3+x-y,2/3+z
19 -x,-y,-z
20 y,-x+y,-z
21 x-y,x,-z
22 -y,-x,z
23 1/3-x,2/3-y,2/3-z
24 1/3+y,2/3-x+y,2/3-z
25 1/3+x-y,2/3+x,2/3-z
26 1/3-y,2/3-x,2/3+z
27 2/3-x,1/3-y,1/3-z
28 2/3-y,1/3-x,1/3+z
29 x-y,-y,-z
30 -x,-x+y,-z
31 1/3-y,2/3+x-y,2/3+z
32 1/3-x+y,2/3-x,2/3+z
33 1/3+x-y,2/3-y,2/3-z
34 1/3-x,2/3-x+y,2/3-z
35 2/3+x-y,1/3-y,1/3-z
36 2/3-x,1/3-x+y,1/3-z
_cell_length_a                   24.8217(12)
_cell_length_b                   24.8217(12)
_cell_length_c                   56.734(3)
_cell_angle_alpha                90
_cell_angle_beta                 90
_cell_angle_gamma                120.00
_cell_volume                     30271.7
loop_
_atom_site_label
_atom_site_type_symbol
_atom_site_fract_x
_atom_site_fract_y
_atom_site_fract_z
Zn1 Zn 0.3333 -0.3333 -0.03830(2)
Zn2 Zn 0.41919(4) -0.29041(2) 0.007173(15)
Zn3 Zn 0.041560(18) -0.041560(18) -0.182600(13)
Zn4 Zn -0.0000 -0.0000 -0.13463(2)
O1 O 0.3333 -0.3333 -0.00441(13)
O2 O -0.0000 -0.0000 -0.17048(13)
O3 O 0.29179(12) -0.29179(12) -0.05206(10)
O4 O 0.26265(17) -0.26266(17) -0.01953(13)
O5 O 0.07524(14) -0.07524(14) -0.16021(11)
O6 O 0.0461(2) -0.0461(2) -0.1290(2)
O7 O 0.4371(3) -0.2195(3) 0.02611(12)
O8 O 0.6547(2) 0.2206(2) 0.13070(9)
C1 C 0.23864(19) -0.23864(19) -0.07999(15)
H1 H 0.2579 -0.2579 -0.0874
C2 C 0.2375(2) -0.2375(2) -0.0570(2)
C3 C 0.2093(5) -0.2093(5) -0.0462(3)
H2 H 0.2085 -0.2085 -0.0299
C4 C 0.1906(11) -0.1138(10) -0.0500(3)
C5 C 0.1278(4) -0.1278(4) -0.0604(3)
C6 C 0.0991(3) -0.0991(3) -0.1000(3)
H3 H 0.0800 -0.0800 -0.0924
C7 C 0.1008(2) -0.1008(2) -0.1242(2)
C8 C 0.1276(2) -0.1276(2) -0.13373(16)
H4 H 0.1293 -0.1293 -0.1500
C9 C 0.2164(8) -0.1514(10) -0.1294(3)
C10 C 0.2127(2) -0.2127(2) -0.12014(17)
C11 C 0.21185(18) -0.21185(18) -0.09383(15)
C12 C 0.1833(2) -0.1833(2) -0.08314(18)
C13 C 0.1811(3) -0.1811(3) -0.0591(2)
C14 C 0.1273(4) -0.1273(4) -0.0870(3)
C15 C 0.1547(2) -0.1547(2) -0.0977(2)
C16 C 0.1548(2) -0.1548(2) -0.11991(17)
C17 C 0.2659(2) -0.2659(2) -0.04170(16)
C18 C 0.0705(3) -0.0705(3) -0.1387(2)
C19 C 0.4293(3) -0.1413(6) 0.0481(3)
C20 C 0.4944(6) -0.1107(5) 0.0524(2)
H5 H 0.5181 -0.1275 0.0469
C21 C 0.5224(5) -0.0548(5) 0.0653(3)
C22 C 0.4848(3) -0.0305(6) 0.0726(3)
C23 C 0.5140(3) 0.0279(6) 0.0867(3)
C24 C 0.5778(5) 0.0570(4) 0.0919(2)
C25 C 0.6038(4) 0.1128(4) 0.10444(18)
H6 H 0.6461 0.1331 0.1080
C26 C 0.5691(2) 0.1382(5) 0.1115(2)
C27 C 0.5710(18) -0.0422(18) 0.0856(6)
C29 C 0.604(3) 0.014(3) 0.0905(13)
C31 C 0.4006(3) -0.1988(5) 0.0324(3)
C32 C 0.5988(2) 0.1977(4) 0.12616(16)
C9U C 0.1514(10) -0.2164(8) -0.1294(3)
C4U C 0.1138(10) -0.1906(11) -0.0500(3)
O7J O 0.3434(4) -0.2195(3) 0.02611(12)
C21J C 0.4228(7) -0.0548(5) 0.0653(3)
C20J C 0.3949(8) -0.1107(5) 0.0524(2)
H5J H 0.3544 -0.1275 0.0469
C27J C 0.3868(25) -0.0422(18) 0.0856(6)
C29J C 0.410(4) 0.014(3) 0.0905(13)
C24J C 0.4792(6) 0.0570(4) 0.0919(2)
C25J C 0.5090(6) 0.1128(4) 0.10444(18)
H6J H 0.4870 0.1331 0.1080
O8J O 0.5659(3) 0.2206(2) 0.13070(9)
O3A O 0.29179(12) -0.41642(17) -0.05206(10)
O4A O 0.26266(17) -0.47469(24) -0.01953(13)
O5A O 0.07524(14) -0.84952(20) -0.16021(11)
O6A O 0.0461(2) -0.9078(3) -0.1290(2)
C1A C 0.23864(19) -0.52272(27) -0.07999(15)
H1A H 0.2579 -0.4842 -0.0874
C2A C 0.2375(2) -0.5250(3) -0.0570(2)
C3A C 0.2093(5) -0.5814(7) -0.0462(3)
H2A H 0.2085 -0.5830 -0.0299
C4A C 0.1138(10) -0.6956(15) -0.0500(3)
C5A C 0.1278(4) -0.7444(6) -0.0604(3)
C6A C 0.0991(3) -0.8018(4) -0.1000(3)
H3A H 0.0800 -0.8400 -0.0924
C7A C 0.1008(2) -0.7984(3) -0.1242(2)
C8A C 0.1276(2) -0.7448(3) -0.13373(16)
H4A H 0.1293 -0.7414 -0.1500
C9A C 0.1514(10) -0.6322(13) -0.1294(3)
C10A C 0.2127(2) -0.5746(3) -0.12014(17)
C11A C 0.21185(18) -0.57630(25) -0.09383(15)
C12A C 0.1833(2) -0.6334(3) -0.08314(18)
C13A C 0.1811(3) -0.6378(4) -0.0591(2)
C14A C 0.1273(4) -0.7454(6) -0.0870(3)
C15A C 0.1547(2) -0.6906(3) -0.0977(2)
C16A C 0.1548(2) -0.6904(3) -0.11991(17)
C17A C 0.2659(2) -0.4682(3) -0.04170(16)
C18A C 0.0705(3) -0.8590(4) -0.1387(2)
C9K C 0.2164(8) -0.6322(13) -0.1294(3)
C4K C 0.1906(11) -0.6956(15) -0.0500(3)
Zn2B Zn 0.29040(4) -0.41919(4) 0.007173(15)
Zn3A Zn 0.041560(18) -0.916880(25) -0.182600(13)
Zn4A Zn -0.0000 -1.0000 -0.13463(2)
O7K O 0.4371(3) -0.3434(4) 0.02611(12)
O8K O 0.6547(2) -0.5659(3) 0.13070(9)
C19K C 0.4293(3) -0.4294(7) 0.0481(3)
C20K C 0.4944(6) -0.3949(8) 0.0524(2)
H5K H 0.5181 -0.3544 0.0469
C21K C 0.5224(5) -0.4228(7) 0.0653(3)
C22K C 0.4848(3) -0.4847(7) 0.0726(3)
C23K C 0.5140(3) -0.5139(7) 0.0867(3)
C24K C 0.5778(5) -0.4792(6) 0.0919(2)
C25K C 0.6038(4) -0.5090(6) 0.10444(18)
H6K H 0.6461 -0.4870 0.1080
C26K C 0.5691(2) -0.5691(5) 0.1115(2)
C27K C 0.5710(18) -0.3868(25) 0.0856(6)
C29K C 0.604(3) -0.410(4) 0.0905(13)
C31K C 0.4006(3) -0.4006(6) 0.0324(3)
C32K C 0.5988(2) -0.5989(4) 0.12616(16)
O7B O 0.3434(4) -0.4371(3) 0.02611(12)
C21B C 0.4228(7) -0.5224(5) 0.0653(3)
C20B C 0.3949(8) -0.4944(6) 0.0524(2)
H5B H 0.3544 -0.5181 0.0469
C27B C 0.3868(25) -0.5710(18) 0.0856(6)
C29B C 0.410(4) -0.604(3) 0.0905(13)
C24B C 0.4792(6) -0.5778(5) 0.0919(2)
C25B C 0.5090(6) -0.6038(4) 0.10444(18)
H6B H 0.4870 -0.6461 0.1080
O8B O 0.5659(3) -0.6547(2) 0.13070(9)
O2A O -0.0000 -1.0000 -0.17048(13)
O3B O 0.41642(17) -0.29179(12) -0.05206(10)
O4B O 0.47469(24) -0.26265(17) -0.01953(13)
O8H O -0.0120(2) -0.1127(2) -0.20263(9)
O8Y O 0.1127(2) 0.0120(2) -0.20263(9)
O6A_2 O 0.0461(2) 0.0922(3) -0.1290(2)
O6B O -0.0922(3) -0.0461(2) -0.1290(2)
Zn2A Zn 0.29041(2) -0.29040(4) 0.007173(15)
Zn3A_2 Zn 0.041560(18) 0.083120(25) -0.182600(13)
Zn3B Zn -0.083120(25) -0.041560(18) -0.182600(13)
Zn3D Zn 0.708227(18) 0.291773(18) 0.150733(13)
Zn3F Zn 0.583547(25) 0.291773(18) 0.150733(13)
O7U O 0.2195(3) -0.4371(3) 0.02611(12)
O8Q O -0.0120(2) -0.8992(3) -0.20263(9)
O8DA O 0.1127(2) -0.8992(3) -0.20263(9)
O6_2 O 0.0461(2) -1.0461(2) -0.1290(2)
O6B_2 O -0.0922(3) -1.0461(2) -0.1290(2)
Zn3E Zn 0.708227(18) -0.583547(25) 0.150733(13)
Zn3F_2 Zn 0.583547(25) -0.708227(18) 0.150733(13)
Zn3_2 Zn 0.041560(18) -1.041560(18) -0.182600(13)
Zn3B_2 Zn -0.083120(25) -1.041560(18) -0.182600(13)
C34 C 0.757(2) 0.3783(11) 0.2620(8)
C36 C 0.5000 0.0000 0.0000
C38 C 0.913(3) 0.366(3) 0.1727(10)
C39 C 0.546(3) -0.2270(15) 0.0729(11)
C40 C 0.881(3) 0.4407(17) 0.1807(15)
C41 C 0.904(4) 0.399(4) 0.2062(15)
C43 C 0.6667 0.3333 0.0992(6)
loop_
_geom_bond_atom_site_label_1
_geom_bond_atom_site_label_2
_geom_bond_site_symmetry_1
_geom_bond_site_symmetry_2
Zn1 O1 1_555 1_555
Zn2 O1 1_555 1_555
Zn3 O2 1_555 1_555
Zn4 O2 1_555 1_555
O1 Zn2B 1_555 1_555
O2 Zn3A_2 1_555 1_555
O3 Zn1 1_555 1_555
O4 C17 1_555 1_555
O5 Zn3 1_555 1_555
O6 Zn4 1_555 1_555
O7 Zn2 1_555 1_555
O8 C32 1_555 1_555
C1 H1 1_555 1_555
C2 C1 1_555 1_555
C3 C2 1_555 1_555
H2 C3 1_555 1_555
C4 C5 1_555 1_555
C5 C14 1_555 1_555
C6 H3 1_555 1_555
C7 C6 1_555 1_555
C8 C7 1_555 1_555
H4 C8 1_555 1_555
C9 C10 1_555 1_555
C10 C11 1_555 1_555
C11 C1 1_555 1_555
C12 C11 1_555 1_555
C13 C3 1_555 1_555
C14 C6 1_555 1_555
C15 C12 1_555 1_555
C16 C8 1_555 1_555
C17 O3 1_555 1_555
C18 O5 1_555 1_555
C19 C20 1_555 1_555
C20 H5 1_555 1_555
C21 C20 1_555 1_555
C22 C21 1_555 1_555
C23 C22 1_555 1_555
C24 C23 1_555 1_555
C25 C24 1_555 1_555
H6 C25 1_555 1_555
C26 C25 1_555 1_555
C27 C21 1_555 1_555
C29 C24 1_555 1_555
C31 O7 1_555 1_555
C32 C26 1_555 1_555
C9U C9 1_555 1_555
C4U C5 1_555 1_555
O7J C31 1_555 1_555
C21J C22 1_555 1_555
C20J C19 1_555 1_555
H5J C20J 1_555 1_555
C27J C21J 1_555 1_555
C29J C27J 1_555 1_555
C24J C23 1_555 1_555
C25J C26 1_555 1_555
H6J C25J 1_555 1_555
O8J C32 1_555 1_555
O3A Zn1 1_555 1_555
O4A C17A 1_555 1_555
O5A C18A 1_555 1_555
O6A C18A 1_555 1_555
C1A H1A 1_555 1_555
C2A C1A 1_555 1_555
C3A C2A 1_555 1_555
H2A C3A 1_555 1_555
C4A C5A 1_555 1_555
C5A C14A 1_555 1_555
C6A H3A 1_555 1_555
C7A C6A 1_555 1_555
C8A C7A 1_555 1_555
H4A C8A 1_555 1_555
C9A C10A 1_555 1_555
C10A C11A 1_555 1_555
C11A C1A 1_555 1_555
C12A C11A 1_555 1_555
C13A C3A 1_555 1_555
C14A C6A 1_555 1_555
C15A C12A 1_555 1_555
C16A C8A 1_555 1_555
C17A O3A 1_555 1_555
C18A C7A 1_555 1_555
C9K C9A 1_555 1_555
C4K C5A 1_555 1_555
Zn2B O4A 1_555 1_555
Zn3A O5A 1_555 1_555
Zn4A O6A 1_555 1_555
O7K Zn2 1_555 1_555
O8K C32K 1_555 1_555
C19K C20K 1_555 1_555
C20K H5K 1_555 1_555
C21K C20K 1_555 1_555
C22K C21K 1_555 1_555
C23K C22K 1_555 1_555
C24K C23K 1_555 1_555
C25K C24K 1_555 1_555
H6K C25K 1_555 1_555
C26K C25K 1_555 1_555
C27K C21K 1_555 1_555
C29K C24K 1_555 1_555
C31K O7K 1_555 1_555
C32K C26K 1_555 1_555
O7B Zn2B 1_555 1_555
C21B C22K 1_555 1_555
C20B C19K 1_555 1_555
H5B C20B 1_555 1_555
C27B C21B 1_555 1_555
C29B C27B 1_555 1_555
C24B C23K 1_555 1_555
C25B C26K 1_555 1_555
H6B C25B 1_555 1_555
O8B C32K 1_555 1_555
O2A Zn3A 1_555 1_555
O3B Zn1 1_555 1_555
O4B Zn2 1_555 1_555
O8H Zn3 1_555 1_555
O8Y Zn3 1_555 1_555
O6A_2 Zn4 1_555 1_555
O6B Zn4 1_555 1_555
Zn2A O1 1_555 1_555
Zn3B O2 1_555 1_555
Zn3D O8 1_555 1_555
Zn3F O8J 1_555 1_555
O7U Zn2B 1_555 1_555
O8Q Zn3A 1_555 1_555
O8DA Zn3A 1_555 1_555
O6_2 Zn4A 1_555 1_555
O6B_2 Zn4A 1_555 1_555
Zn3E O8K 1_555 1_555
Zn3F_2 O8B 1_555 1_555
Zn3_2 O2A 1_555 1_555
Zn3B_2 O2A 1_555 1_555
O4 Zn2A 1_555 1_555
O6 C18 1_555 1_555
C2 C17 1_555 1_555
C4 C13 1_555 1_555
C7 C18 1_555 1_555
C9 C16 1_555 1_555
C10 C9U 1_555 1_555
C12 C13 1_555 1_555
C13 C4U 1_555 1_555
C14 C15 1_555 1_555
C15 C16 1_555 1_555
C16 C9U 1_555 1_555
C19 C31 1_555 1_555
C27 C29 1_555 1_555
O7J Zn2A 1_555 1_555
C21J C20J 1_555 1_555
C29J C24J 1_555 1_555
C24J C25J 1_555 1_555
C2A C17A 1_555 1_555
C4A C13A 1_555 1_555
C9A C16A 1_555 1_555
C10A C9K 1_555 1_555
C12A C13A 1_555 1_555
C13A C4K 1_555 1_555
C14A C15A 1_555 1_555
C15A C16A 1_555 1_555
C16A C9K 1_555 1_555
Zn4A O2A 1_555 1_555
C19K C31K 1_555 1_555
C27K C29K 1_555 1_555
C31K O7B 1_555 1_555
C21B C20B 1_555 1_555
C29B C24B 1_555 1_555
C24B C25B 1_555 1_555

#END
