
#######################################################################
#
#                 Cambridge Crystallographic Data Centre
#                                CCDC 
#
#######################################################################
#
# If this CIF has been generated from an entry in the Cambridge 
# Structural Database, then it will include bibliographic, chemical, 
# crystal, experimental, refinement or atomic coordinate data resulting 
# from the CCDC's data processing and validation procedures.
#
#######################################################################

data_EDUWAB
_chemical_formula_moiety         'C97 H2 O38 Zn20'
_symmetry_cell_setting           cubic
_symmetry_space_group_name_H-M   'P m -3 m'
_symmetry_Int_Tables_number      221
_space_group_name_Hall           '-P 4 2 3'
loop_
_symmetry_equiv_pos_site_id
_symmetry_equiv_pos_as_xyz
1 x,y,z
2 z,x,y
3 y,z,x
4 y,x,-z
5 y,-x,z
6 -y,x,z
7 x,z,-y
8 -x,z,y
9 x,-z,y
10 z,y,-x
11 z,-y,x
12 -z,y,x
13 -x,-y,z
14 -x,y,-z
15 x,-y,-z
16 z,-x,-y
17 -z,-x,y
18 -z,x,-y
19 -y,z,-x
20 y,-z,-x
21 -y,-z,x
22 -y,-x,-z
23 -x,-z,-y
24 -z,-y,-x
25 -x,-y,-z
26 -z,-x,-y
27 -y,-z,-x
28 -y,-x,z
29 -y,x,-z
30 y,-x,-z
31 -x,-z,y
32 x,-z,-y
33 -x,z,-y
34 -z,-y,x
35 -z,y,-x
36 z,-y,-x
37 x,y,-z
38 x,-y,z
39 -x,y,z
40 -z,x,y
41 z,x,-y
42 z,-x,y
43 y,-z,x
44 -y,z,x
45 y,z,-x
46 y,x,z
47 x,z,y
48 z,y,x
_cell_length_a                   21.4903(13)
_cell_length_b                   21.4903(13)
_cell_length_c                   21.4903(13)
_cell_angle_alpha                90
_cell_angle_beta                 90
_cell_angle_gamma                90
_cell_volume                     9924.93
loop_
_atom_site_label
_atom_site_type_symbol
_atom_site_fract_x
_atom_site_fract_y
_atom_site_fract_z
C1 C 0.273(5) 0.362(4) 0.055(4)
Zn1 Zn 0.44795(12) 0.44795(12) 0.44795(12)
O2 O 0.5000 0.5000 0.5000
O3 O 0.4658(5) 0.4658(5) 0.3620(7)
C2 C 0.5000 0.5000 0.3309(13)
C3 C 0.5000 0.5000 0.2667(10)
C4 C 0.46012(16) 0.46012(16) 0.2349(8)
C5 C 0.46021(16) 0.46021(16) 0.1699(9)
C6 C 0.5000 0.5000 0.1369(10)
C7 C 0.5000 0.5000 0.0659(8)
C8 C 0.4436(2) 0.5000 0.0327(2)
O3D O 0.4658(5) 0.5342(5) 0.3620(7)
O3L O 0.5342(5) 0.5342(5) 0.3620(7)
O3E O 0.5342(5) 0.4658(5) 0.3620(7)
C4D C 0.46012(16) 0.53988(16) 0.2349(8)
C4E C 0.53988(16) 0.46012(16) 0.2349(8)
C5D C 0.46021(16) 0.53979(16) 0.1699(9)
C4L C 0.53988(16) 0.53988(16) 0.2349(8)
C5E C 0.53979(16) 0.46021(16) 0.1699(9)
C5L C 0.53979(16) 0.53979(16) 0.1699(9)
C8D C 0.5000 0.5564(2) 0.0327(2)
C8E C 0.5000 0.4436(2) 0.0327(2)
C8JA C 0.4436(2) 0.5000 -0.0327(2)
C7JA C 0.5000 0.5000 -0.0659(8)
C6JA C 0.5000 0.5000 -0.1369(10)
C5JA C 0.46021(16) 0.46021(16) -0.1699(9)
C4JA C 0.46012(16) 0.46012(16) -0.2349(8)
C3JA C 0.5000 0.5000 -0.2667(10)
C2JA C 0.5000 0.5000 -0.3309(13)
O3JA O 0.4658(5) 0.4658(5) -0.3620(7)
O3CA O 0.4658(5) 0.5342(5) -0.3620(7)
O3BA O 0.5342(5) 0.4658(5) -0.3620(7)
O3X O 0.5342(5) 0.5342(5) -0.3620(7)
C4CA C 0.46012(16) 0.53988(16) -0.2349(8)
C4X C 0.53988(16) 0.53988(16) -0.2349(8)
C5CA C 0.46021(16) 0.53979(16) -0.1699(9)
C5X C 0.53979(16) 0.53979(16) -0.1699(9)
C5BA C 0.53979(16) 0.46021(16) -0.1699(9)
C4BA C 0.53988(16) 0.46012(16) -0.2349(8)
C8CA C 0.5000 0.5564(2) -0.0327(2)
C8X C 0.5564(2) 0.5000 -0.0327(2)
C8BA C 0.5000 0.4436(2) -0.0327(2)
C8L C 0.5564(2) 0.5000 0.0327(2)
O3A O 0.3620(7) 0.4658(5) 0.4658(5)
C2A C 0.3309(13) 0.5000 0.5000
C3A C 0.2667(10) 0.5000 0.5000
C4A C 0.2349(8) 0.46012(16) 0.46012(16)
C5A C 0.1699(9) 0.46021(16) 0.46021(16)
C6A C 0.1369(10) 0.5000 0.5000
C7A C 0.0659(8) 0.5000 0.5000
C8A C 0.0327(2) 0.4436(2) 0.5000
O3I O 0.3620(7) 0.4658(5) 0.5342(5)
O3O O 0.3620(7) 0.5342(5) 0.5342(5)
O3J O 0.3620(7) 0.5342(5) 0.4658(5)
C4I C 0.2349(8) 0.46012(16) 0.53988(16)
C4J C 0.2349(8) 0.53988(16) 0.46012(16)
C5I C 0.1699(9) 0.46021(16) 0.53979(16)
C4O C 0.2349(8) 0.53988(16) 0.53988(16)
C5J C 0.1699(9) 0.53979(16) 0.46021(16)
C5O C 0.1699(9) 0.53979(16) 0.53979(16)
C8I C 0.0327(2) 0.5000 0.5564(2)
C8J C 0.0327(2) 0.5000 0.4436(2)
C8MA C -0.0327(2) 0.4436(2) 0.5000
C7MA C -0.0659(8) 0.5000 0.5000
C6MA C -0.1369(10) 0.5000 0.5000
C5MA C -0.1699(9) 0.46021(16) 0.46021(16)
C4MA C -0.2349(8) 0.46012(16) 0.46012(16)
C3MA C -0.2667(10) 0.5000 0.5000
C2MA C -0.3309(13) 0.5000 0.5000
O3MA O -0.3620(7) 0.4658(5) 0.4658(5)
O3HA O -0.3620(7) 0.4658(5) 0.5342(5)
O3GA O -0.3620(7) 0.5342(5) 0.4658(5)
O3Y O -0.3620(7) 0.5342(5) 0.5342(5)
C4HA C -0.2349(8) 0.46012(16) 0.53988(16)
C4Y C -0.2349(8) 0.53988(16) 0.53988(16)
C5HA C -0.1699(9) 0.46021(16) 0.53979(16)
C5Y C -0.1699(9) 0.53979(16) 0.53979(16)
C5GA C -0.1699(9) 0.53979(16) 0.46021(16)
C4GA C -0.2349(8) 0.53988(16) 0.46012(16)
C8HA C -0.0327(2) 0.5000 0.5564(2)
C8Y C -0.0327(2) 0.5564(2) 0.5000
C8GA C -0.0327(2) 0.5000 0.4436(2)
C8O C 0.0327(2) 0.5564(2) 0.5000
O3B O 0.4658(5) 0.3620(7) 0.4658(5)
C2B C 0.5000 0.3309(13) 0.5000
C3B C 0.5000 0.2667(10) 0.5000
C4B C 0.46012(16) 0.2349(8) 0.46012(16)
C5B C 0.46021(16) 0.1699(9) 0.46021(16)
C6B C 0.5000 0.1369(10) 0.5000
C7B C 0.5000 0.0659(8) 0.5000
C8B C 0.5000 0.0327(2) 0.4436(2)
O3G O 0.5342(5) 0.3620(7) 0.4658(5)
O3R O 0.5342(5) 0.3620(7) 0.5342(5)
O3F O 0.4658(5) 0.3620(7) 0.5342(5)
C4G C 0.53988(16) 0.2349(8) 0.46012(16)
C4F C 0.46012(16) 0.2349(8) 0.53988(16)
C5G C 0.53979(16) 0.1699(9) 0.46021(16)
C4R C 0.53988(16) 0.2349(8) 0.53988(16)
C5F C 0.46021(16) 0.1699(9) 0.53979(16)
C5R C 0.53979(16) 0.1699(9) 0.53979(16)
C8G C 0.5564(2) 0.0327(2) 0.5000
C8F C 0.4436(2) 0.0327(2) 0.5000
C8PA C 0.5000 -0.0327(2) 0.4436(2)
C7PA C 0.5000 -0.0659(8) 0.5000
C6PA C 0.5000 -0.1369(10) 0.5000
C5PA C 0.46021(16) -0.1699(9) 0.46021(16)
C4PA C 0.46012(16) -0.2349(8) 0.46012(16)
C3PA C 0.5000 -0.2667(10) 0.5000
C2PA C 0.5000 -0.3309(13) 0.5000
O3PA O 0.4658(5) -0.3620(7) 0.4658(5)
O3DA O 0.5342(5) -0.3620(7) 0.4658(5)
O3EA O 0.4658(5) -0.3620(7) 0.5342(5)
O3Z O 0.5342(5) -0.3620(7) 0.5342(5)
C4DA C 0.53988(16) -0.2349(8) 0.46012(16)
C4Z C 0.53988(16) -0.2349(8) 0.53988(16)
C5DA C 0.53979(16) -0.1699(9) 0.46021(16)
C5Z C 0.53979(16) -0.1699(9) 0.53979(16)
C5EA C 0.46021(16) -0.1699(9) 0.53979(16)
C4EA C 0.46012(16) -0.2349(8) 0.53988(16)
C8DA C 0.5564(2) -0.0327(2) 0.5000
C8Z C 0.5000 -0.0327(2) 0.5564(2)
C8EA C 0.4436(2) -0.0327(2) 0.5000
C8R C 0.5000 0.0327(2) 0.5564(2)
Zn1C Zn 0.44795(12) 0.44795(12) 0.55205(12)
Zn1E Zn 0.55205(12) 0.44795(12) 0.44795(12)
Zn1D Zn 0.44795(12) 0.55205(12) 0.44795(12)
Zn1X Zn 0.55205(12) 0.55205(12) 0.55205(12)
Zn1AA Zn 0.55205(12) 0.55205(12) 0.44795(12)
Zn1CA Zn 0.44795(12) 0.55205(12) 0.55205(12)
Zn1BA Zn 0.55205(12) 0.44795(12) 0.55205(12)
Zn1C_2 Zn 0.44795(12) 0.44795(12) -0.44795(12)
Zn1CA_2 Zn 0.44795(12) 0.55205(12) -0.44795(12)
Zn1BA_2 Zn 0.55205(12) 0.44795(12) -0.44795(12)
Zn1X_2 Zn 0.55205(12) 0.55205(12) -0.44795(12)
Zn1E_2 Zn -0.44795(12) 0.44795(12) 0.44795(12)
Zn1BA_3 Zn -0.44795(12) 0.44795(12) 0.55205(12)
Zn1AA_2 Zn -0.44795(12) 0.55205(12) 0.44795(12)
Zn1X_3 Zn -0.44795(12) 0.55205(12) 0.55205(12)
Zn1D_2 Zn 0.44795(12) -0.44795(12) 0.44795(12)
Zn1AA_3 Zn 0.55205(12) -0.44795(12) 0.44795(12)
Zn1CA_3 Zn 0.44795(12) -0.44795(12) 0.55205(12)
Zn1X_4 Zn 0.55205(12) -0.44795(12) 0.55205(12)
O3C O 0.4658(5) 0.4658(5) 0.6380(7)
O3K O 0.6380(7) 0.4658(5) 0.4658(5)
O3H O 0.4658(5) 0.6380(7) 0.4658(5)
O3X_2 O 0.5342(5) 0.5342(5) 0.6380(7)
O3Y_2 O 0.6380(7) 0.5342(5) 0.5342(5)
O3Z_2 O 0.5342(5) 0.6380(7) 0.5342(5)
O3DA_2 O 0.5342(5) 0.6380(7) 0.4658(5)
O3GA_2 O 0.6380(7) 0.5342(5) 0.4658(5)
O3CA_2 O 0.4658(5) 0.5342(5) 0.6380(7)
O3EA_2 O 0.4658(5) 0.6380(7) 0.5342(5)
O3BA_2 O 0.5342(5) 0.4658(5) 0.6380(7)
O3HA_2 O 0.6380(7) 0.4658(5) 0.5342(5)
O1 O 0.391(4) 0.391(4) 0.391(4)
loop_
_geom_bond_atom_site_label_1
_geom_bond_atom_site_label_2
_geom_bond_site_symmetry_1
_geom_bond_site_symmetry_2
Zn1 O2 1_555 1_555
O2 Zn1C 1_555 1_555
O3 Zn1 1_555 1_555
C2 O3 1_555 1_555
C3 C2 1_555 1_555
C4 C3 1_555 1_555
C5 C4 1_555 1_555
C6 C5 1_555 1_555
C7 C6 1_555 1_555
C8 C7 1_555 1_555
O3D O3 1_555 1_555
O3L C2 1_555 1_555
O3E O3 1_555 1_555
C4D C3 1_555 1_555
C4E C3 1_555 1_555
C5D C5 1_555 1_555
C4L C3 1_555 1_555
C5E C5 1_555 1_555
C5L C6 1_555 1_555
C8D C7 1_555 1_555
C8E C7 1_555 1_555
C8JA C8 1_555 1_555
C7JA C8JA 1_555 1_555
C6JA C7JA 1_555 1_555
C5JA C6JA 1_555 1_555
C4JA C5JA 1_555 1_555
C3JA C4JA 1_555 1_555
C2JA C3JA 1_555 1_555
O3JA C2JA 1_555 1_555
O3CA C2JA 1_555 1_555
O3BA C2JA 1_555 1_555
O3X C2JA 1_555 1_555
C4CA C4JA 1_555 1_555
C4X C3JA 1_555 1_555
C5CA C6JA 1_555 1_555
C5X C6JA 1_555 1_555
C5BA C6JA 1_555 1_555
C4BA C4JA 1_555 1_555
C8CA C8D 1_555 1_555
C8X C7JA 1_555 1_555
C8BA C8E 1_555 1_555
C8L C7 1_555 1_555
O3A Zn1 1_555 1_555
C2A O3A 1_555 1_555
C3A C2A 1_555 1_555
C4A C3A 1_555 1_555
C5A C4A 1_555 1_555
C6A C5A 1_555 1_555
C7A C6A 1_555 1_555
C8A C7A 1_555 1_555
O3I O3A 1_555 1_555
O3O C2A 1_555 1_555
O3J O3A 1_555 1_555
C4I C3A 1_555 1_555
C4J C3A 1_555 1_555
C5I C5A 1_555 1_555
C4O C3A 1_555 1_555
C5J C5A 1_555 1_555
C5O C6A 1_555 1_555
C8I C7A 1_555 1_555
C8J C7A 1_555 1_555
C8MA C8A 1_555 1_555
C7MA C8MA 1_555 1_555
C6MA C7MA 1_555 1_555
C5MA C6MA 1_555 1_555
C4MA C5MA 1_555 1_555
C3MA C4MA 1_555 1_555
C2MA C3MA 1_555 1_555
O3MA C2MA 1_555 1_555
O3HA C2MA 1_555 1_555
O3GA C2MA 1_555 1_555
O3Y C2MA 1_555 1_555
C4HA C4MA 1_555 1_555
C4Y C3MA 1_555 1_555
C5HA C6MA 1_555 1_555
C5Y C6MA 1_555 1_555
C5GA C6MA 1_555 1_555
C4GA C4MA 1_555 1_555
C8HA C8I 1_555 1_555
C8Y C7MA 1_555 1_555
C8GA C8J 1_555 1_555
C8O C7A 1_555 1_555
O3B Zn1 1_555 1_555
C2B O3B 1_555 1_555
C3B C2B 1_555 1_555
C4B C3B 1_555 1_555
C5B C4B 1_555 1_555
C6B C5B 1_555 1_555
C7B C6B 1_555 1_555
C8B C7B 1_555 1_555
O3G O3B 1_555 1_555
O3R C2B 1_555 1_555
O3F O3B 1_555 1_555
C4G C3B 1_555 1_555
C4F C3B 1_555 1_555
C5G C5B 1_555 1_555
C4R C3B 1_555 1_555
C5F C5B 1_555 1_555
C5R C6B 1_555 1_555
C8G C7B 1_555 1_555
C8F C7B 1_555 1_555
C8PA C8B 1_555 1_555
C7PA C8PA 1_555 1_555
C6PA C7PA 1_555 1_555
C5PA C6PA 1_555 1_555
C4PA C5PA 1_555 1_555
C3PA C4PA 1_555 1_555
C2PA C3PA 1_555 1_555
O3PA C2PA 1_555 1_555
O3DA C2PA 1_555 1_555
O3EA C2PA 1_555 1_555
O3Z C2PA 1_555 1_555
C4DA C4PA 1_555 1_555
C4Z C3PA 1_555 1_555
C5DA C6PA 1_555 1_555
C5Z C6PA 1_555 1_555
C5EA C6PA 1_555 1_555
C4EA C4PA 1_555 1_555
C8DA C8G 1_555 1_555
C8Z C7PA 1_555 1_555
C8EA C8F 1_555 1_555
C8R C7B 1_555 1_555
Zn1C O3I 1_555 1_555
Zn1E O2 1_555 1_555
Zn1D O2 1_555 1_555
Zn1X O2 1_555 1_555
Zn1AA O2 1_555 1_555
Zn1CA O2 1_555 1_555
Zn1BA O2 1_555 1_555
Zn1C_2 O3JA 1_555 1_555
Zn1CA_2 O3CA 1_555 1_555
Zn1BA_2 O3BA 1_555 1_555
Zn1X_2 O3X 1_555 1_555
Zn1E_2 O3MA 1_555 1_555
Zn1BA_3 O3HA 1_555 1_555
Zn1AA_2 O3GA 1_555 1_555
Zn1X_3 O3Y 1_555 1_555
Zn1D_2 O3PA 1_555 1_555
Zn1AA_3 O3DA 1_555 1_555
Zn1CA_3 O3EA 1_555 1_555
Zn1X_4 O3Z 1_555 1_555
O3C Zn1C 1_555 1_555
O3K Zn1E 1_555 1_555
O3H Zn1D 1_555 1_555
O3X_2 Zn1X 1_555 1_555
O3Y_2 Zn1X 1_555 1_555
O3Z_2 Zn1X 1_555 1_555
O3DA_2 Zn1AA 1_555 1_555
O3GA_2 Zn1AA 1_555 1_555
O3CA_2 Zn1CA 1_555 1_555
O3EA_2 Zn1CA 1_555 1_555
O3BA_2 Zn1BA 1_555 1_555
O3HA_2 Zn1BA 1_555 1_555
C2 O3D 1_555 1_555
C2 O3E 1_555 1_555
C4 C4D 1_555 1_555
C4 C4E 1_555 1_555
C6 C5D 1_555 1_555
C6 C5E 1_555 1_555
C8 C8D 1_555 1_555
C8 C8E 1_555 1_555
O3D O3L 1_555 1_555
O3D Zn1D 1_555 1_555
O3L O3E 1_555 1_555
O3L Zn1AA 1_555 1_555
O3E Zn1E 1_555 1_555
C4D C5D 1_555 1_555
C4D C4L 1_555 1_555
C4E C4L 1_555 1_555
C4E C5E 1_555 1_555
C5D C5L 1_555 1_555
C4L C5L 1_555 1_555
C5E C5L 1_555 1_555
C8D C8L 1_555 1_555
C8E C8L 1_555 1_555
C8JA C8CA 1_555 1_555
C8JA C8BA 1_555 1_555
C7JA C8CA 1_555 1_555
C7JA C8BA 1_555 1_555
C5JA C5CA 1_555 1_555
C5JA C5BA 1_555 1_555
C3JA C4CA 1_555 1_555
C3JA C4BA 1_555 1_555
O3JA O3CA 1_555 1_555
O3JA O3BA 1_555 1_555
O3CA O3X 1_555 1_555
O3BA O3X 1_555 1_555
C4CA C4X 1_555 1_555
C4CA C5CA 1_555 1_555
C4X C5X 1_555 1_555
C4X C4BA 1_555 1_555
C5CA C5X 1_555 1_555
C5X C5BA 1_555 1_555
C5BA C4BA 1_555 1_555
C8CA C8X 1_555 1_555
C8X C8BA 1_555 1_555
C8X C8L 1_555 1_555
C2A O3I 1_555 1_555
C2A O3J 1_555 1_555
C4A C4I 1_555 1_555
C4A C4J 1_555 1_555
C6A C5I 1_555 1_555
C6A C5J 1_555 1_555
C8A C8I 1_555 1_555
C8A C8J 1_555 1_555
O3I O3O 1_555 1_555
O3O O3J 1_555 1_555
O3O Zn1CA 1_555 1_555
O3J Zn1D 1_555 1_555
C4I C5I 1_555 1_555
C4I C4O 1_555 1_555
C4J C4O 1_555 1_555
C4J C5J 1_555 1_555
C5I C5O 1_555 1_555
C4O C5O 1_555 1_555
C5J C5O 1_555 1_555
C8I C8O 1_555 1_555
C8J C8O 1_555 1_555
C8MA C8HA 1_555 1_555
C8MA C8GA 1_555 1_555
C7MA C8HA 1_555 1_555
C7MA C8GA 1_555 1_555
C5MA C5HA 1_555 1_555
C5MA C5GA 1_555 1_555
C3MA C4HA 1_555 1_555
C3MA C4GA 1_555 1_555
O3MA O3HA 1_555 1_555
O3MA O3GA 1_555 1_555
O3HA O3Y 1_555 1_555
O3GA O3Y 1_555 1_555
C4HA C4Y 1_555 1_555
C4HA C5HA 1_555 1_555
C4Y C5Y 1_555 1_555
C4Y C4GA 1_555 1_555
C5HA C5Y 1_555 1_555
C5Y C5GA 1_555 1_555
C5GA C4GA 1_555 1_555
C8HA C8Y 1_555 1_555
C8Y C8GA 1_555 1_555
C8Y C8O 1_555 1_555
C2B O3G 1_555 1_555
C2B O3F 1_555 1_555
C4B C4G 1_555 1_555
C4B C4F 1_555 1_555
C6B C5G 1_555 1_555
C6B C5F 1_555 1_555
C8B C8G 1_555 1_555
C8B C8F 1_555 1_555
O3G O3R 1_555 1_555
O3G Zn1E 1_555 1_555
O3R O3F 1_555 1_555
O3R Zn1BA 1_555 1_555
O3F Zn1C 1_555 1_555
C4G C5G 1_555 1_555
C4G C4R 1_555 1_555
C4F C4R 1_555 1_555
C4F C5F 1_555 1_555
C5G C5R 1_555 1_555
C4R C5R 1_555 1_555
C5F C5R 1_555 1_555
C8G C8R 1_555 1_555
C8F C8R 1_555 1_555
C8PA C8DA 1_555 1_555
C8PA C8EA 1_555 1_555
C7PA C8DA 1_555 1_555
C7PA C8EA 1_555 1_555
C5PA C5DA 1_555 1_555
C5PA C5EA 1_555 1_555
C3PA C4DA 1_555 1_555
C3PA C4EA 1_555 1_555
O3PA O3DA 1_555 1_555
O3PA O3EA 1_555 1_555
O3DA O3Z 1_555 1_555
O3EA O3Z 1_555 1_555
C4DA C4Z 1_555 1_555
C4DA C5DA 1_555 1_555
C4Z C5Z 1_555 1_555
C4Z C4EA 1_555 1_555
C5DA C5Z 1_555 1_555
C5Z C5EA 1_555 1_555
C5EA C4EA 1_555 1_555
C8DA C8Z 1_555 1_555
C8Z C8EA 1_555 1_555
C8Z C8R 1_555 1_555
O3C O3CA_2 1_555 1_555
O3C O3BA_2 1_555 1_555
O3K O3GA_2 1_555 1_555
O3K O3HA_2 1_555 1_555
O3H O3DA_2 1_555 1_555
O3H O3EA_2 1_555 1_555
O3X_2 O3CA_2 1_555 1_555
O3X_2 O3BA_2 1_555 1_555
O3Y_2 O3GA_2 1_555 1_555
O3Y_2 O3HA_2 1_555 1_555
O3Z_2 O3DA_2 1_555 1_555
O3Z_2 O3EA_2 1_555 1_555

#END
