
#######################################################################
#
#                 Cambridge Crystallographic Data Centre
#                                CCDC 
#
#######################################################################
#
# If this CIF has been generated from an entry in the Cambridge 
# Structural Database, then it will include bibliographic, chemical, 
# crystal, experimental, refinement or atomic coordinate data resulting 
# from the CCDC's data processing and validation procedures.
#
#######################################################################

data_BOTCEU
_chemical_formula_moiety         '(C18 H22 Cu2 N4 O2)n'
_symmetry_cell_setting           rhombohedral
_symmetry_space_group_name_H-M   'R -3'
_symmetry_Int_Tables_number      148
_space_group_name_Hall           '-R 3'
loop_
_symmetry_equiv_pos_site_id
_symmetry_equiv_pos_as_xyz
1 x,y,z
2 -y,x-y,z
3 -x+y,-x,z
4 2/3+x,1/3+y,1/3+z
5 2/3-y,1/3+x-y,1/3+z
6 2/3-x+y,1/3-x,1/3+z
7 1/3+x,2/3+y,2/3+z
8 1/3-y,2/3+x-y,2/3+z
9 1/3-x+y,2/3-x,2/3+z
10 -x,-y,-z
11 y,-x+y,-z
12 x-y,x,-z
13 1/3-x,2/3-y,2/3-z
14 1/3+y,2/3-x+y,2/3-z
15 1/3+x-y,2/3+x,2/3-z
16 2/3-x,1/3-y,1/3-z
17 2/3+y,1/3-x+y,1/3-z
18 2/3+x-y,1/3+x,1/3-z
_cell_length_a                   26.839(3)
_cell_length_b                   26.839(3)
_cell_length_c                   15.8317(16)
_cell_angle_alpha                90
_cell_angle_beta                 90
_cell_angle_gamma                120
_cell_volume                     9876.22
loop_
_atom_site_label
_atom_site_type_symbol
_atom_site_fract_x
_atom_site_fract_y
_atom_site_fract_z
Cu1 Cu 0.52510(4) 0.60906(3) 0.11769(5)
Cu2 Cu 0.58112(4) 0.74897(3) 0.13017(5)
O1 O 0.5715(2) 0.67963(18) 0.1782(3)
O2 O 0.4469(2) 0.5473(2) 0.1035(3)
N1 N 0.5323(2) 0.6525(2) 0.0172(3)
N2 N 0.5485(2) 0.7092(2) 0.0229(3)
N3 N 0.6939(2) 0.8408(2) -0.4295(3)
N4 N 0.6880(3) 0.7953(2) -0.4759(3)
C1 C 0.5187(3) 0.6359(3) -0.0632(4)
C2 C 0.5244(3) 0.6816(3) -0.1116(4)
C3 C 0.5432(3) 0.7271(3) -0.0544(4)
C4 C 0.5020(4) 0.5760(3) -0.0910(5)
H1 H 0.5026 0.5538 -0.0423
H2 H 0.5293 0.5779 -0.1337
H3 H 0.4632 0.5574 -0.1151
C5 C 0.5538(3) 0.7868(3) -0.0711(5)
H4 H 0.5387 0.7990 -0.0239
H5 H 0.5343 0.7868 -0.1234
H6 H 0.5952 0.8134 -0.0768
C6 C 0.5173(3) 0.6828(3) -0.2041(4)
C7 C 0.4655(3) 0.6453(3) -0.2452(4)
H7 H 0.4324 0.6199 -0.2135
C8 C 0.4633(3) 0.6460(3) -0.3327(4)
H8 H 0.4285 0.6198 -0.3605
C9 C 0.6486(3) 0.8207(3) -0.3757(4)
C10 C 0.6401(3) 0.8598(3) -0.3192(4)
H9 H 0.6130 0.8696 -0.3453
H10 H 0.6246 0.8408 -0.2649
H11 H 0.6770 0.8951 -0.3100
C11 C 0.6132(3) 0.7614(3) -0.3885(4)
C12 C 0.5619(3) 0.7217(3) -0.3402(4)
C13 C 0.5645(3) 0.7204(3) -0.2523(4)
H12 H 0.5995 0.7461 -0.2247
C14 C 0.5100(3) 0.6835(3) -0.3803(4)
H13 H 0.5071 0.6836 -0.4401
C15 C 0.6405(4) 0.7480(3) -0.4526(4)
C16 C 0.6222(4) 0.6910(3) -0.4940(5)
H14 H 0.5956 0.6850 -0.5402
H15 H 0.6033 0.6602 -0.4523
H16 H 0.6563 0.6909 -0.5164
C17 C 0.5926(5) 0.6825(5) 0.2626(6)
H17 H 0.5961 0.7164 0.2914
H18 H 0.6304 0.6852 0.2602
H19 H 0.5657 0.6477 0.2938
C18 C 0.4041(5) 0.5640(5) 0.0680(7)
H20 H 0.4203 0.5875 0.0172
H21 H 0.3967 0.5860 0.1105
H22 H 0.3680 0.5291 0.0537
Cu1E Cu 0.75063(5) 0.80823(4) -0.54898(5)
Cu2P Cu 0.41564(3) 0.50118(5) 0.20316(5)
Cu2L Cu 0.75221(4) 0.91770(3) -0.46350(5)
O2Q O 0.5663(3) 0.7802(2) 0.2298(3)
N3L N 0.6394(2) 0.8259(2) 0.0962(3)
N4G N 0.5380(2) 0.5594(4) 0.1908(3)
loop_
_geom_bond_atom_site_label_1
_geom_bond_atom_site_label_2
_geom_bond_site_symmetry_1
_geom_bond_site_symmetry_2
Cu1 O1 1_555 1_555
Cu2 O1 1_555 1_555
O1 C17 1_555 1_555
O2 Cu1 1_555 1_555
N1 Cu1 1_555 1_555
N2 Cu2 1_555 1_555
N3 N4 1_555 1_555
N4 C15 1_555 1_555
C1 N1 1_555 1_555
C2 C1 1_555 1_555
C3 N2 1_555 1_555
C4 C1 1_555 1_555
H1 C4 1_555 1_555
H2 C4 1_555 1_555
H3 C4 1_555 1_555
C5 C3 1_555 1_555
H4 C5 1_555 1_555
H5 C5 1_555 1_555
H6 C5 1_555 1_555
C6 C2 1_555 1_555
C7 C6 1_555 1_555
H7 C7 1_555 1_555
C8 C7 1_555 1_555
H8 C8 1_555 1_555
C9 N3 1_555 1_555
C10 C9 1_555 1_555
H9 C10 1_555 1_555
H10 C10 1_555 1_555
H11 C10 1_555 1_555
C11 C9 1_555 1_555
C12 C11 1_555 1_555
C13 C6 1_555 1_555
H12 C13 1_555 1_555
C14 C8 1_555 1_555
H13 C14 1_555 1_555
C15 C11 1_555 1_555
C16 C15 1_555 1_555
H14 C16 1_555 1_555
H15 C16 1_555 1_555
H16 C16 1_555 1_555
C17 H17 1_555 1_555
H18 C17 1_555 1_555
H19 C17 1_555 1_555
C18 O2 1_555 1_555
H20 C18 1_555 1_555
H21 C18 1_555 1_555
H22 C18 1_555 1_555
Cu1E N4 1_555 1_555
Cu2P O2 1_555 1_555
Cu2L N3 1_555 1_555
O2Q Cu2 1_555 1_555
N3L Cu2 1_555 1_555
N4G Cu1 1_555 1_555
N1 N2 1_555 1_555
C2 C3 1_555 1_555
C12 C13 1_555 1_555
C12 C14 1_555 1_555

#END
