
#######################################################################
#
#                 Cambridge Crystallographic Data Centre
#                                CCDC 
#
#######################################################################
#
# If this CIF has been generated from an entry in the Cambridge 
# Structural Database, then it will include bibliographic, chemical, 
# crystal, experimental, refinement or atomic coordinate data resulting 
# from the CCDC's data processing and validation procedures.
#
#######################################################################

data_HIHFUB
_chemical_formula_moiety         '(C30 H26 N1 Nd1 O9 Si1)n'
_symmetry_cell_setting           monoclinic
_symmetry_space_group_name_H-M   'C 2/c'
_symmetry_Int_Tables_number      15
_space_group_name_Hall           '-C 2yc'
loop_
_symmetry_equiv_pos_site_id
_symmetry_equiv_pos_as_xyz
1 x,y,z
2 -x,y,1/2-z
3 1/2+x,1/2+y,z
4 1/2-x,1/2+y,1/2-z
5 -x,-y,-z
6 x,-y,1/2+z
7 1/2-x,1/2-y,-z
8 1/2+x,1/2-y,1/2+z
_cell_length_a                   24.3021(10)
_cell_length_b                   16.0142(6)
_cell_length_c                   22.0018(9)
_cell_angle_alpha                90
_cell_angle_beta                 100.1380(10)
_cell_angle_gamma                90
_cell_volume                     8428.94
loop_
_atom_site_label
_atom_site_type_symbol
_atom_site_fract_x
_atom_site_fract_y
_atom_site_fract_z
N1 N 0.6798(2) 0.4416(3) 0.2110(2)
H17 H 0.7164 0.4504 0.2251
H18 H 0.6773 0.4106 0.1765
C29 C 0.6591(3) 0.3930(5) 0.2552(3)
H19 H 0.6811 0.3431 0.2633
H20 H 0.6209 0.3784 0.2399
H21 H 0.6613 0.4244 0.2928
C30 C 0.6562(4) 0.5162(6) 0.1946(4)
H22 H 0.6759 0.5427 0.1657
H23 H 0.6582 0.5508 0.2305
H24 H 0.6179 0.5083 0.1758
C1 C 0.30010(13) 0.22966(19) -0.27554(14)
O1 O 0.26560(9) -0.07008(13) 0.12461(11)
C2 C 0.28916(11) 0.61908(18) 0.05794(14)
C3 C 0.29323(16) -0.0129(2) 0.15320(16)
O2 O 0.30017(16) -0.0067(2) 0.21033(15)
C4 C 0.31058(11) 0.53429(17) 0.04592(12)
C5 C 0.30152(13) 0.46747(19) 0.08196(14)
H1 H 0.2819 0.4752 0.1142
C6 C 0.34061(13) 0.52076(19) -0.00109(14)
H2 H 0.3472 0.5651 -0.0261
C7 C 0.31952(12) 0.23781(19) -0.20683(12)
C8 C 0.39327(13) 0.2321(2) -0.11854(14)
H3 H 0.4308 0.2227 -0.1024
C9 C 0.28279(13) 0.2610(2) -0.16861(14)
H4 H 0.2454 0.2709 -0.1850
Nd1 Nd 0.758191(6) 0.288431(9) 0.095452(6)
O3 O 0.28413(10) 0.63813(13) 0.11168(9)
Si1 Si 0.38008(3) 0.27093(5) 0.00599(3)
O4 O 0.66542(8) 0.21016(12) 0.06499(10)
O5 O 0.33449(9) 0.21663(14) -0.31084(9)
O6 O 0.27771(8) 0.67126(12) 0.01390(8)
O7 O 0.66113(8) 0.33432(13) 0.10627(9)
C10 C 0.37461(14) 0.2228(2) -0.18180(15)
H5 H 0.3995 0.2064 -0.2072
O8 O 0.24801(9) 0.23670(15) -0.29611(9)
C11 C 0.45784(12) 0.27223(17) 0.02777(12)
C12 C 0.35712(12) 0.25526(19) -0.07893(13)
C13 C 0.35402(11) 0.18495(18) 0.04979(13)
C14 C 0.35187(11) 0.37494(18) 0.02440(12)
C15 C 0.63695(12) 0.27131(18) 0.07935(12)
C16 C 0.57512(11) 0.27032(18) 0.06243(13)
C17 C 0.54652(13) 0.20030(18) 0.03882(15)
H6 H 0.5662 0.1517 0.0338
C18 C 0.30311(14) 0.0558(2) 0.05592(15)
H7 H 0.2814 0.0132 0.0354
C19 C 0.48913(13) 0.20073(19) 0.02236(16)
H8 H 0.4708 0.1520 0.0073
O9 O 0.84415(9) 0.32693(17) 0.05776(10)
C20 C 0.31605(13) 0.05440(19) 0.11874(14)
C21 C 0.36086(13) 0.44327(19) -0.01134(14)
H9 H 0.3812 0.4362 -0.0431
C22 C 0.36719(15) 0.1820(2) 0.11413(15)
H10 H 0.3898 0.2235 0.1350
C23 C 0.48753(13) 0.34289(19) 0.05125(15)
H11 H 0.4681 0.3920 0.0555
C24 C 0.30190(13) 0.2694(2) -0.10568(14)
H12 H 0.2767 0.2851 -0.0805
C25 C 0.32103(13) 0.38939(19) 0.07121(14)
H13 H 0.3135 0.3450 0.0957
C26 C 0.34750(15) 0.1188(2) 0.14784(14)
H14 H 0.3557 0.1202 0.1907
C27 C 0.54500(12) 0.3423(2) 0.06839(15)
H15 H 0.5636 0.3906 0.0840
C28 C 0.32192(14) 0.1201(2) 0.02171(14)
H16 H 0.3125 0.1191 -0.0211
O1B O 0.76560(9) 0.42992(13) 0.12461(11)
Nd1B Nd 0.258191(6) -0.211569(9) 0.095452(6)
Nd1B_2 Nd 0.258191(6) 0.788431(9) 0.095452(6)
Nd1D Nd 0.241809(6) 0.711569(9) -0.095452(6)
Nd1G Nd 0.258191(6) 0.211569(9) -0.404548(6)
O3B O 0.78413(10) 0.13813(13) 0.11168(9)
O5G O 0.83449(9) 0.28337(14) 0.18916(9)
O6B O 0.77771(8) 0.17126(12) 0.01390(8)
O6D O 0.72229(8) 0.32874(12) -0.01390(8)
O8G O 0.74801(9) 0.26330(15) 0.20389(9)
loop_
_geom_bond_atom_site_label_1
_geom_bond_atom_site_label_2
_geom_bond_site_symmetry_1
_geom_bond_site_symmetry_2
C1 C7 1_555 1_555
O1 C3 1_555 1_555
C2 C4 1_555 1_555
C3 O2 1_555 1_555
C4 C5 1_555 1_555
C5 H1 1_555 1_555
C6 C4 1_555 1_555
H2 C6 1_555 1_555
C7 C9 1_555 1_555
C8 H3 1_555 1_555
C9 H4 1_555 1_555
Nd1 O4 1_555 1_555
O3 C2 1_555 1_555
Si1 C11 1_555 1_555
O4 C15 1_555 1_555
O5 C1 1_555 1_555
O6 C2 1_555 1_555
O7 Nd1 1_555 1_555
C10 C7 1_555 1_555
H5 C10 1_555 1_555
O8 C1 1_555 1_555
C11 C19 1_555 1_555
C12 C8 1_555 1_555
C13 Si1 1_555 1_555
C14 Si1 1_555 1_555
C15 O7 1_555 1_555
C16 C15 1_555 1_555
C17 C16 1_555 1_555
H6 C17 1_555 1_555
C18 H7 1_555 1_555
C19 C17 1_555 1_555
H8 C19 1_555 1_555
O9 Nd1 1_555 1_555
C20 C3 1_555 1_555
C21 C6 1_555 1_555
H9 C21 1_555 1_555
C22 C13 1_555 1_555
H10 C22 1_555 1_555
C23 C11 1_555 1_555
H11 C23 1_555 1_555
C24 C9 1_555 1_555
H12 C24 1_555 1_555
C25 C5 1_555 1_555
H13 C25 1_555 1_555
C26 C20 1_555 1_555
H14 C26 1_555 1_555
C27 C16 1_555 1_555
H15 C27 1_555 1_555
C28 C13 1_555 1_555
H16 C28 1_555 1_555
N1 H17 1_555 1_555
H18 N1 1_555 1_555
C29 N1 1_555 1_555
H19 C29 1_555 1_555
H20 C29 1_555 1_555
H21 C29 1_555 1_555
C30 N1 1_555 1_555
H22 C30 1_555 1_555
H23 C30 1_555 1_555
H24 C30 1_555 1_555
O1B Nd1 1_555 1_555
Nd1B O1 1_555 1_555
Nd1B_2 O3 1_555 1_555
Nd1D O6 1_555 1_555
Nd1G O5 1_555 1_555
O3B Nd1 1_555 1_555
O5G Nd1 1_555 1_555
O6B Nd1 1_555 1_555
O6D Nd1 1_555 1_555
O8G Nd1 1_555 1_555
C8 C10 1_555 1_555
Si1 C12 1_555 1_555
O6 Nd1B_2 1_555 1_555
O8 Nd1G 1_555 1_555
C12 C24 1_555 1_555
C14 C21 1_555 1_555
C14 C25 1_555 1_555
C18 C20 1_555 1_555
C18 C28 1_555 1_555
C22 C26 1_555 1_555
C23 C27 1_555 1_555

#END
