
#######################################################################
#
#                 Cambridge Crystallographic Data Centre
#                                CCDC 
#
#######################################################################
#
# If this CIF has been generated from an entry in the Cambridge 
# Structural Database, then it will include bibliographic, chemical, 
# crystal, experimental, refinement or atomic coordinate data resulting 
# from the CCDC's data processing and validation procedures.
#
#######################################################################

data_HIHGAI
_chemical_formula_moiety         'C84 H48 Eu18 O47 Si3'
_symmetry_cell_setting           orthorhombic
_symmetry_space_group_name_H-M   'C c c m'
_symmetry_Int_Tables_number      66
_space_group_name_Hall           '-C 2 2c'
loop_
_symmetry_equiv_pos_site_id
_symmetry_equiv_pos_as_xyz
1 x,y,z
2 -x,-y,z
3 -x,y,1/2-z
4 x,-y,1/2-z
5 1/2+x,1/2+y,z
6 1/2-x,1/2-y,z
7 1/2-x,1/2+y,1/2-z
8 1/2+x,1/2-y,1/2-z
9 -x,-y,-z
10 x,y,-z
11 x,-y,1/2+z
12 -x,y,1/2+z
13 1/2-x,1/2-y,-z
14 1/2+x,1/2+y,-z
15 1/2+x,1/2-y,1/2+z
16 1/2-x,1/2+y,1/2+z
_cell_length_a                   18.735(2)
_cell_length_b                   30.214(3)
_cell_length_c                   24.837(3)
_cell_angle_alpha                90
_cell_angle_beta                 90
_cell_angle_gamma                90
_cell_volume                     14059.2
loop_
_atom_site_label
_atom_site_type_symbol
_atom_site_fract_x
_atom_site_fract_y
_atom_site_fract_z
Eu1 Eu 0.176724(14) 0.193883(8) 0.0000
Eu2 Eu 0.272415(18) 0.044121(10) 0.0000
Si1 Si -0.0000 0.0000 0.2500
Si2 Si 0.5000 -0.11619(6) -0.2500
C1 C 0.3260(2) -0.21298(14) -0.42373(15)
C2 C 0.3655(2) -0.19172(12) -0.37769(14)
C3 C 0.1609(2) 0.10923(13) 0.07964(15)
O1 O 0.21470(17) 0.09232(10) 0.05841(11)
C4 C 0.1256(2) 0.08478(12) 0.12459(15)
C5 C 0.0542(2) 0.03575(12) 0.20528(13)
C6 C 0.4425(2) -0.14987(13) -0.29530(15)
C7 C 0.0608(2) 0.09852(13) 0.14390(15)
H1 H 0.0398 0.1239 0.1299
O2 O 0.13561(18) 0.14434(9) 0.06590(12)
C8 C 0.1218(2) 0.02297(13) 0.18538(16)
H2 H 0.1438 -0.0020 0.1996
C9 C 0.4242(3) -0.21122(15) -0.35481(17)
H3 H 0.4389 -0.2389 -0.3667
C10 C 0.1559(2) 0.04663(14) 0.14547(17)
H4 H 0.1998 0.0369 0.1325
C11 C 0.4620(2) -0.19016(15) -0.31422(17)
H5 H 0.5018 -0.2041 -0.2996
C12 C 0.3839(2) -0.13164(14) -0.31836(16)
H6 H 0.3687 -0.1042 -0.3058
C13 C 0.0260(2) 0.07503(12) 0.18410(16)
H7 H -0.0171 0.0857 0.1974
C14 C 0.3455(2) -0.15108(14) -0.35925(16)
H8 H 0.3063 -0.1366 -0.3741
O3 O 0.34863(18) -0.24910(9) -0.43929(12)
O4 O 0.0427(2) 0.20036(14) 0.0000
O5 O 0.27428(16) -0.19446(10) -0.44250(12)
O6 O 0.3721(4) 0.0993(2) 0.0000
O7 O 0.1515(4) -0.0005(2) 0.0000
C15 C 0.4447(2) -0.08056(14) -0.20378(14)
C16 C 0.3292(3) -0.00367(19) -0.08621(17)
C17 C 0.3700(2) -0.03202(15) -0.12694(16)
C18 C 0.3394(5) -0.0632(3) -0.1494(3)
H9 H 0.2927 -0.0704 -0.1401
C19 C 0.3750(4) -0.0872(3) -0.1883(3)
H10 H 0.3499 -0.1097 -0.2054
C20 C 0.4704(5) -0.0385(2) -0.1834(3)
H11 H 0.5127 -0.0270 -0.1973
C21 C 0.4354(4) -0.0151(3) -0.1448(3)
H12 H 0.4540 0.0110 -0.1309
O8 O 0.3643(4) 0.0331(2) -0.0640(3)
O9 O 0.3375(5) -0.0196(3) -0.0387(3)
C3A C -0.1609(2) -0.10923(13) 0.07964(15)
O1A O -0.21470(17) -0.09232(10) 0.05841(11)
C4A C -0.1256(2) -0.08478(12) 0.12459(15)
C5A C -0.0542(2) -0.03575(12) 0.20528(13)
C7A C -0.0608(2) -0.09852(13) 0.14390(15)
H1A H -0.0398 -0.1239 0.1299
O2A O -0.13561(18) -0.14434(9) 0.06590(12)
C8A C -0.1218(2) -0.02297(13) 0.18538(16)
H2A H -0.1438 0.0020 0.1996
C10A C -0.1559(2) -0.04663(14) 0.14547(17)
H4A H -0.1998 -0.0369 0.1325
C13A C -0.0260(2) -0.07503(12) 0.18410(16)
H7A H 0.0171 -0.0857 0.1974
C3B C -0.1609(2) 0.10923(13) 0.42036(15)
O1B O -0.21470(17) 0.09232(10) 0.44159(11)
C4B C -0.1256(2) 0.08478(12) 0.37541(15)
C5B C -0.0542(2) 0.03575(12) 0.29472(13)
C7B C -0.0608(2) 0.09852(13) 0.35610(15)
H1B H -0.0398 0.1239 0.3701
O2B O -0.13561(18) 0.14434(9) 0.43410(12)
C8B C -0.1218(2) 0.02297(13) 0.31462(16)
H2B H -0.1438 -0.0020 0.3004
C10B C -0.1559(2) 0.04663(14) 0.35453(17)
H4B H -0.1998 0.0369 0.3675
C13B C -0.0260(2) 0.07503(12) 0.31590(16)
H7B H 0.0171 0.0857 0.3026
C3C C 0.1609(2) -0.10923(13) 0.42036(15)
O1C O 0.21470(17) -0.09232(10) 0.44159(11)
C4C C 0.1256(2) -0.08478(12) 0.37541(15)
C5C C 0.0542(2) -0.03575(12) 0.29472(13)
C7C C 0.0608(2) -0.09852(13) 0.35610(15)
H1C H 0.0398 -0.1239 0.3701
O2C O 0.13561(18) -0.14434(9) 0.43410(12)
C8C C 0.1218(2) -0.02297(13) 0.31462(16)
H2C H 0.1438 0.0020 0.3004
C10C C 0.1559(2) -0.04663(14) 0.35453(17)
H4C H 0.1998 -0.0369 0.3675
C13C C 0.0260(2) -0.07503(12) 0.31590(16)
H7C H -0.0171 -0.0857 0.3026
C1B C 0.6740(2) -0.21298(14) -0.07627(15)
C2B C 0.6345(2) -0.19172(12) -0.12231(14)
C6B C 0.5575(2) -0.14987(13) -0.20470(15)
C9B C 0.5758(3) -0.21122(15) -0.14519(17)
H3B H 0.5611 -0.2389 -0.1333
C11B C 0.5380(2) -0.19016(15) -0.18578(17)
H5B H 0.4982 -0.2041 -0.2004
C12B C 0.6161(2) -0.13164(14) -0.18164(16)
H6B H 0.6313 -0.1042 -0.1942
C14B C 0.6545(2) -0.15108(14) -0.14075(16)
H8B H 0.6937 -0.1366 -0.1259
O3B O 0.65137(18) -0.24910(9) -0.06071(12)
O5B O 0.72572(16) -0.19446(10) -0.05750(12)
C15B C 0.5553(2) -0.08056(14) -0.29622(14)
C16B C 0.6708(3) -0.00367(19) -0.41379(17)
C17B C 0.6300(2) -0.03202(15) -0.37306(16)
C18B C 0.6606(5) -0.0632(3) -0.3506(3)
H9B H 0.7073 -0.0704 -0.3599
C19B C 0.6250(4) -0.0872(3) -0.3117(3)
H10B H 0.6501 -0.1097 -0.2946
C20B C 0.5296(5) -0.0385(2) -0.3166(3)
H11B H 0.4873 -0.0270 -0.3027
C21B C 0.5646(4) -0.0151(3) -0.3552(3)
H12B H 0.5460 0.0110 -0.3691
O8B O 0.6357(4) 0.0331(2) -0.4360(3)
O9B O 0.6625(5) -0.0196(3) -0.4613(3)
Eu1A Eu -0.176724(14) -0.193883(8) 0.0000
Eu2A Eu -0.272415(18) -0.044121(10) 0.0000
O4A O -0.0427(2) -0.20036(14) 0.0000
O6A O -0.3721(4) -0.0993(2) 0.0000
O7A O -0.1515(4) 0.0005(2) 0.0000
Si2A Si 0.5000 0.11619(6) -0.2500
C1C C 0.3260(2) 0.21298(14) -0.07627(15)
C2C C 0.3655(2) 0.19172(12) -0.12231(14)
C6C C 0.4425(2) 0.14987(13) -0.20470(15)
C9C C 0.4242(3) 0.21122(15) -0.14519(17)
H3C H 0.4389 0.2389 -0.1333
C11C C 0.4620(2) 0.19016(15) -0.18578(17)
H5C H 0.5018 0.2041 -0.2004
C12C C 0.3839(2) 0.13164(14) -0.18164(16)
H6C H 0.3687 0.1042 -0.1942
C14C C 0.3455(2) 0.15108(14) -0.14075(16)
H8C H 0.3063 0.1366 -0.1259
O3C O 0.34863(18) 0.24910(9) -0.06071(12)
O5C O 0.27428(16) 0.19446(10) -0.05750(12)
C15C C 0.4447(2) 0.08056(14) -0.29622(14)
C16C C 0.3292(3) 0.00367(19) -0.41379(17)
C17C C 0.3700(2) 0.03202(15) -0.37306(16)
C18C C 0.3394(5) 0.0632(3) -0.3506(3)
H9C H 0.2927 0.0704 -0.3599
C19C C 0.3750(4) 0.0872(3) -0.3117(3)
H10C H 0.3499 0.1097 -0.2946
C20C C 0.4704(5) 0.0385(2) -0.3166(3)
H11C H 0.5127 0.0270 -0.3027
C21C C 0.4354(4) 0.0151(3) -0.3552(3)
H12C H 0.4540 -0.0110 -0.3691
O8C O 0.3643(4) -0.0331(2) -0.4360(3)
O9C O 0.3375(5) 0.0196(3) -0.4613(3)
C1A C 0.6740(2) 0.21298(14) -0.42373(15)
C2A C 0.6345(2) 0.19172(12) -0.37769(14)
C6A C 0.5575(2) 0.14987(13) -0.29530(15)
C9A C 0.5758(3) 0.21122(15) -0.35481(17)
H3A H 0.5611 0.2389 -0.3667
C11A C 0.5380(2) 0.19016(15) -0.31422(17)
H5A H 0.4982 0.2041 -0.2996
C12A C 0.6161(2) 0.13164(14) -0.31836(16)
H6A H 0.6313 0.1042 -0.3058
C14A C 0.6545(2) 0.15108(14) -0.35925(16)
H8A H 0.6937 0.1366 -0.3741
O3A O 0.65137(18) 0.24910(9) -0.43929(12)
O5A O 0.72572(16) 0.19446(10) -0.44250(12)
C15A C 0.5553(2) 0.08056(14) -0.20378(14)
C16A C 0.6708(3) 0.00367(19) -0.08621(17)
C17A C 0.6300(2) 0.03202(15) -0.12694(16)
C18A C 0.6606(5) 0.0632(3) -0.1494(3)
H9A H 0.7073 0.0704 -0.1401
C19A C 0.6250(4) 0.0872(3) -0.1883(3)
H10A H 0.6501 0.1097 -0.2054
C20A C 0.5296(5) 0.0385(2) -0.1834(3)
H11A H 0.4873 0.0270 -0.1973
C21A C 0.5646(4) 0.0151(3) -0.1448(3)
H12A H 0.5460 -0.0110 -0.1309
O8A O 0.6357(4) -0.0331(2) -0.0640(3)
O9A O 0.6625(5) 0.0196(3) -0.0387(3)
Eu1A_2 Eu 0.823276(14) -0.193883(8) 0.0000
Eu1B Eu -0.176724(14) 0.193883(8) 0.5000
Eu1B_2 Eu 0.823276(14) 0.193883(8) -0.5000
Eu1C Eu 0.176724(14) -0.193883(8) -0.5000
Eu1C_2 Eu 0.176724(14) -0.193883(8) 0.5000
Eu1D Eu 0.676724(14) -0.306117(8) 0.0000
Eu1E Eu 0.323276(14) 0.306117(8) 0.0000
Eu1F Eu 0.323276(14) -0.306117(8) -0.5000
Eu1G Eu 0.676724(14) 0.306117(8) -0.5000
Eu2A_2 Eu 0.727585(18) -0.044121(10) 0.0000
Eu2B Eu -0.272415(18) 0.044121(10) 0.5000
Eu2B_2 Eu 0.727585(18) 0.044121(10) -0.5000
Eu2C Eu 0.272415(18) -0.044121(10) -0.5000
Eu2C_2 Eu 0.272415(18) -0.044121(10) 0.5000
O1H O -0.21470(17) -0.09232(10) -0.05841(11)
O1I O 0.21470(17) 0.09232(10) -0.05841(11)
O2H O -0.13561(18) -0.14434(9) -0.06590(12)
O2I O 0.13561(18) 0.14434(9) -0.06590(12)
O3F O 0.15137(18) 0.25090(9) -0.06071(12)
O3G O -0.15137(18) -0.25090(9) -0.06071(12)
O3N O -0.15137(18) -0.25090(9) 0.06071(12)
O3O O 0.15137(18) 0.25090(9) 0.06071(12)
O5B_2 O -0.27428(16) -0.19446(10) -0.05750(12)
O5J O 0.27428(16) 0.19446(10) 0.05750(12)
O5K O -0.27428(16) -0.19446(10) 0.05750(12)
O8A_2 O -0.3643(4) -0.0331(2) -0.0640(3)
O8H O -0.3643(4) -0.0331(2) 0.0640(3)
O8I O 0.3643(4) 0.0331(2) 0.0640(3)
O9A_2 O -0.3375(5) 0.0196(3) -0.0387(3)
O9H O -0.3375(5) 0.0196(3) 0.0387(3)
O9I O 0.3375(5) -0.0196(3) 0.0387(3)
loop_
_geom_bond_atom_site_label_1
_geom_bond_atom_site_label_2
_geom_bond_site_symmetry_1
_geom_bond_site_symmetry_2
Eu1 O2 1_555 1_555
Eu2 O1 1_555 1_555
Si1 C5 1_555 1_555
Si2 C6 1_555 1_555
C1 C2 1_555 1_555
C2 C9 1_555 1_555
C3 O1 1_555 1_555
C4 C3 1_555 1_555
C5 C8 1_555 1_555
C6 C11 1_555 1_555
C7 C4 1_555 1_555
H1 C7 1_555 1_555
O2 C3 1_555 1_555
C8 H2 1_555 1_555
C9 H3 1_555 1_555
C10 C4 1_555 1_555
H4 C10 1_555 1_555
C11 C9 1_555 1_555
H5 C11 1_555 1_555
C12 C6 1_555 1_555
H6 C12 1_555 1_555
C13 C5 1_555 1_555
H7 C13 1_555 1_555
C14 C2 1_555 1_555
H8 C14 1_555 1_555
O3 C1 1_555 1_555
O4 Eu1 1_555 1_555
O5 C1 1_555 1_555
O6 Eu2 1_555 1_555
O7 Eu2 1_555 1_555
C15 Si2 1_555 1_555
C16 C17 1_555 1_555
C17 C18 1_555 1_555
C18 H9 1_555 1_555
C19 C15 1_555 1_555
H10 C19 1_555 1_555
C20 C15 1_555 1_555
H11 C20 1_555 1_555
C21 C17 1_555 1_555
H12 C21 1_555 1_555
O8 Eu2 1_555 1_555
O9 Eu2 1_555 1_555
C3A O1A 1_555 1_555
O1A Eu2A 1_555 1_555
C4A C3A 1_555 1_555
C5A Si1 1_555 1_555
C7A C4A 1_555 1_555
H1A C7A 1_555 1_555
O2A C3A 1_555 1_555
C8A C5A 1_555 1_555
H2A C8A 1_555 1_555
C10A C4A 1_555 1_555
H4A C10A 1_555 1_555
C13A C5A 1_555 1_555
H7A C13A 1_555 1_555
C3B O1B 1_555 1_555
O1B Eu2B 1_555 1_555
C4B C3B 1_555 1_555
C5B Si1 1_555 1_555
C7B C4B 1_555 1_555
H1B C7B 1_555 1_555
O2B C3B 1_555 1_555
C8B C5B 1_555 1_555
H2B C8B 1_555 1_555
C10B C4B 1_555 1_555
H4B C10B 1_555 1_555
C13B C5B 1_555 1_555
H7B C13B 1_555 1_555
C3C O1C 1_555 1_555
O1C Eu2C_2 1_555 1_555
C4C C3C 1_555 1_555
C5C Si1 1_555 1_555
C7C C4C 1_555 1_555
H1C C7C 1_555 1_555
O2C C3C 1_555 1_555
C8C C5C 1_555 1_555
H2C C8C 1_555 1_555
C10C C4C 1_555 1_555
H4C C10C 1_555 1_555
C13C C5C 1_555 1_555
H7C C13C 1_555 1_555
C1B C2B 1_555 1_555
C2B C9B 1_555 1_555
C6B Si2 1_555 1_555
C9B H3B 1_555 1_555
C11B C6B 1_555 1_555
H5B C11B 1_555 1_555
C12B C6B 1_555 1_555
H6B C12B 1_555 1_555
C14B C2B 1_555 1_555
H8B C14B 1_555 1_555
O3B C1B 1_555 1_555
O5B C1B 1_555 1_555
C15B Si2 1_555 1_555
C16B C17B 1_555 1_555
C17B C18B 1_555 1_555
C18B H9B 1_555 1_555
C19B C15B 1_555 1_555
H10B C19B 1_555 1_555
C20B C15B 1_555 1_555
H11B C20B 1_555 1_555
C21B C17B 1_555 1_555
H12B C21B 1_555 1_555
O8B C16B 1_555 1_555
O9B C16B 1_555 1_555
Eu1A O2A 1_555 1_555
Eu2A O6A 1_555 1_555
O4A Eu1A 1_555 1_555
O7A Eu2A 1_555 1_555
Si2A C6C 1_555 1_555
C1C C2C 1_555 1_555
C2C C9C 1_555 1_555
C6C C11C 1_555 1_555
C9C H3C 1_555 1_555
C11C C9C 1_555 1_555
H5C C11C 1_555 1_555
C12C C6C 1_555 1_555
H6C C12C 1_555 1_555
C14C C2C 1_555 1_555
H8C C14C 1_555 1_555
O3C C1C 1_555 1_555
O5C Eu1 1_555 1_555
C15C Si2A 1_555 1_555
C16C C17C 1_555 1_555
C17C C18C 1_555 1_555
C18C H9C 1_555 1_555
C19C C15C 1_555 1_555
H10C C19C 1_555 1_555
C20C C15C 1_555 1_555
H11C C20C 1_555 1_555
C21C C17C 1_555 1_555
H12C C21C 1_555 1_555
O8C C16C 1_555 1_555
O9C C16C 1_555 1_555
C1A C2A 1_555 1_555
C2A C9A 1_555 1_555
C6A Si2A 1_555 1_555
C9A H3A 1_555 1_555
C11A C6A 1_555 1_555
H5A C11A 1_555 1_555
C12A C6A 1_555 1_555
H6A C12A 1_555 1_555
C14A C2A 1_555 1_555
H8A C14A 1_555 1_555
O3A C1A 1_555 1_555
O5A C1A 1_555 1_555
C15A Si2A 1_555 1_555
C16A C17A 1_555 1_555
C17A C18A 1_555 1_555
C18A H9A 1_555 1_555
C19A C15A 1_555 1_555
H10A C19A 1_555 1_555
C20A C15A 1_555 1_555
H11A C20A 1_555 1_555
C21A C17A 1_555 1_555
H12A C21A 1_555 1_555
O8A C16A 1_555 1_555
O9A C16A 1_555 1_555
Eu1A_2 O5B 1_555 1_555
Eu1B O2B 1_555 1_555
Eu1B_2 O5A 1_555 1_555
Eu1C O5 1_555 1_555
Eu1C_2 O2C 1_555 1_555
Eu1D O3B 1_555 1_555
Eu1E O3C 1_555 1_555
Eu1F O3 1_555 1_555
Eu1G O3A 1_555 1_555
Eu2A_2 O8A 1_555 1_555
Eu2B_2 O8B 1_555 1_555
Eu2C O8C 1_555 1_555
O1H Eu2A 1_555 1_555
O1I Eu2 1_555 1_555
O2H Eu1A 1_555 1_555
O2I Eu1 1_555 1_555
O3F Eu1 1_555 1_555
O3G Eu1A 1_555 1_555
O3N Eu1A 1_555 1_555
O3O Eu1 1_555 1_555
O5B_2 Eu1A 1_555 1_555
O5J Eu1 1_555 1_555
O5K Eu1A 1_555 1_555
O8A_2 Eu2A 1_555 1_555
O8H Eu2A 1_555 1_555
O8I Eu2 1_555 1_555
O9A_2 Eu2A 1_555 1_555
O9H Eu2A 1_555 1_555
O9I Eu2 1_555 1_555
C7 C13 1_555 1_555
C8 C10 1_555 1_555
C12 C14 1_555 1_555
C16 O8 1_555 1_555
C16 O9 1_555 1_555
C18 C19 1_555 1_555
C20 C21 1_555 1_555
C7A C13A 1_555 1_555
C8A C10A 1_555 1_555
C7B C13B 1_555 1_555
C8B C10B 1_555 1_555
C7C C13C 1_555 1_555
C8C C10C 1_555 1_555
C9B C11B 1_555 1_555
C12B C14B 1_555 1_555
C18B C19B 1_555 1_555
C20B C21B 1_555 1_555
O9B Eu2B_2 1_555 1_555
C1C O5C 1_555 1_555
C12C C14C 1_555 1_555
C18C C19C 1_555 1_555
C20C C21C 1_555 1_555
O9C Eu2C 1_555 1_555
C9A C11A 1_555 1_555
C12A C14A 1_555 1_555
C18A C19A 1_555 1_555
C20A C21A 1_555 1_555
O9A Eu2A_2 1_555 1_555

#END
