
#######################################################################
#
#                 Cambridge Crystallographic Data Centre
#                                CCDC 
#
#######################################################################
#
# If this CIF has been generated from an entry in the Cambridge 
# Structural Database, then it will include bibliographic, chemical, 
# crystal, experimental, refinement or atomic coordinate data resulting 
# from the CCDC's data processing and validation procedures.
#
#######################################################################

data_LUCDIW
_chemical_formula_moiety         '(C48 H50 Ce2 N4 O18)n'
_symmetry_cell_setting           triclinic
_symmetry_space_group_name_H-M   'P -1'
_symmetry_Int_Tables_number      2
_space_group_name_Hall           '-P 1'
loop_
_symmetry_equiv_pos_site_id
_symmetry_equiv_pos_as_xyz
1 x,y,z
2 -x,-y,-z
_cell_length_a                   12.2015(14)
_cell_length_b                   12.3678(14)
_cell_length_c                   13.5203(15)
_cell_angle_alpha                102.222(2)
_cell_angle_beta                 98.704(2)
_cell_angle_gamma                106.480(2)
_cell_volume                     1862.85
loop_
_atom_site_label
_atom_site_type_symbol
_atom_site_fract_x
_atom_site_fract_y
_atom_site_fract_z
Ce1 Ce 0.67486(4) 0.51909(4) 0.54604(3)
O1 O 0.8341(5) 0.5913(5) 0.7125(4)
O2 O 0.7378(6) 0.4012(5) 0.6645(4)
O3 O 0.6981(5) 0.7339(5) 0.5857(4)
O4 O 0.5153(5) 0.6363(4) 0.5142(4)
O5 O 0.5738(5) 0.5369(5) 0.6878(4)
O6 O 0.3781(5) 0.4793(5) 0.6387(4)
O7 O 0.8624(6) 0.6209(6) 0.5006(5)
O8 O 0.7300(7) 0.3613(6) 0.4376(6)
C1 C 0.8115(8) 0.4909(9) 0.7282(6)
C2 C 1.0100(8) 0.5571(7) 0.9953(6)
C3 C 0.9484(8) 0.5694(8) 0.8994(7)
H1 H 0.9625 0.6433 0.8882
C4 C 0.8725(8) 0.4767(8) 0.8275(6)
C5 C 0.8514(9) 0.3652(9) 0.8437(7)
H2 H 0.7978 0.3001 0.7942
C6 C 1.0896(10) 0.6474(9) 1.0668(7)
H3 H 1.1059 0.7215 1.0559
C7 C 0.5978(8) 0.7301(7) 0.5473(6)
C8 C 0.4554(7) 0.9477(6) 0.4769(6)
C9 C 0.4745(8) 0.8415(7) 0.4868(6)
H4 H 0.4149 0.7705 0.4562
C10 C 0.5779(7) 0.8428(7) 0.5399(6)
C11 C 0.6674(8) 0.9483(7) 0.5853(7)
H5 H 0.7390 0.9489 0.6211
C12 C 0.3487(8) 0.9482(7) 0.4223(7)
H6 H 0.2882 0.8779 0.3909
C13 C 0.4725(9) 0.5061(8) 0.7027(6)
C14 C 0.5545(7) 0.5114(8) 0.9875(6)
C15 C 0.5612(8) 0.5168(8) 0.8844(6)
H7 H 0.6332 0.5310 0.8658
C16 C 0.4635(8) 0.5016(8) 0.8132(6)
C17 C 0.3543(8) 0.4799(9) 0.8408(6)
H8 H 0.2872 0.4689 0.7916
C18 C 0.6534(8) 0.5250(8) 1.0622(6)
H9 H 0.7259 0.5377 1.0445
C19 C 1.0462(15) 0.6927(14) 0.4094(13)
N1 N 1.0217(19) 0.7602(18) 0.5083(15)
C20 C 0.9304(19) 0.7147(16) 0.5494(17)
C21 C 1.121(3) 0.868(3) 0.580(2)
N3 N 0.7553(12) 0.2996(11) 0.2793(11)
C24 C 0.6878(16) 0.318(2) 0.3477(13)
C25 C 0.711(3) 0.247(3) 0.1604(14)
C26 C 0.873(2) 0.397(2) 0.296(3)
C2A C 0.9900(8) 0.4429(7) 1.0047(6)
C3A C 1.0516(8) 0.4306(8) 1.1006(7)
H1A H 1.0375 0.3567 1.1118
C4A C 1.1275(8) 0.5233(8) 1.1725(6)
C1A C 1.1885(8) 0.5091(9) 1.2718(6)
O1A O 1.1659(5) 0.4087(5) 1.2875(4)
O2A O 1.2622(6) 0.5988(5) 1.3355(4)
C5A C 1.1486(9) 0.6348(9) 1.1563(7)
H2A H 1.2022 0.6999 1.2058
C6A C 0.9104(10) 0.3526(9) 0.9332(7)
H3A H 0.8941 0.2785 0.9441
C8A C 0.5446(7) 1.0523(6) 0.5231(6)
C9A C 0.5255(8) 1.1585(7) 0.5132(6)
H4A H 0.5851 1.2295 0.5438
C10A C 0.4221(7) 1.1572(7) 0.4601(6)
C7A C 0.4022(8) 1.2699(7) 0.4527(6)
O3A O 0.3019(5) 1.2661(5) 0.4143(4)
O4A O 0.4847(5) 1.3637(4) 0.4858(4)
C11A C 0.3326(8) 1.0517(7) 0.4147(7)
H5A H 0.2610 1.0511 0.3789
C12A C 0.6513(8) 1.0518(7) 0.5777(7)
H6A H 0.7118 1.1221 0.6091
C14A C 0.4455(7) 0.4886(8) 1.0125(6)
C15A C 0.4388(8) 0.4832(8) 1.1156(6)
H7A H 0.3668 0.4690 1.1342
C16A C 0.5365(8) 0.4984(8) 1.1868(6)
C13A C 0.5275(9) 0.4939(8) 1.2973(6)
O5A O 0.4262(5) 0.4631(5) 1.3122(4)
O6A O 0.6219(5) 0.5207(5) 1.3613(4)
C17A C 0.6457(8) 0.5201(9) 1.1592(6)
H8A H 0.7128 0.5311 1.2084
C18A C 0.3466(8) 0.4750(8) 0.9378(6)
H9A H 0.2741 0.4623 0.9555
Ce1A Ce 1.32514(4) 0.48091(4) 1.45396(3)
O7A O 1.1376(6) 0.3791(6) 1.4994(5)
C19A C 0.9538(15) 0.3073(14) 1.5906(13)
N1A N 0.9783(19) 0.2398(18) 1.4917(15)
C20A C 1.0696(19) 0.2853(16) 1.4506(17)
C21A C 0.879(3) 0.132(3) 1.420(2)
O8A O 1.2700(7) 0.6387(6) 1.5624(6)
N3A N 1.2447(12) 0.7004(11) 1.7207(11)
C24A C 1.3122(16) 0.682(2) 1.6523(13)
C25A C 1.289(3) 0.753(3) 1.8396(14)
C26A C 1.127(2) 0.603(2) 1.704(3)
O4A_2 O 0.4847(5) 0.3637(4) 0.4858(4)
O6A_2 O 0.6219(5) 0.5207(5) 0.3613(4)
Ce1A_2 Ce 0.32514(4) 0.48091(4) 0.45396(3)
Ce1A_3 Ce 0.32514(4) 1.48091(4) 0.45396(3)
Ce1_2 Ce 0.67486(4) 1.51909(4) 0.54604(3)
Ce1A_4 Ce 0.32514(4) 0.48091(4) 1.45396(3)
Ce1_3 Ce 0.67486(4) 0.51909(4) 1.54604(3)
O3A_2 O 1.3019(5) 0.2661(5) 1.4143(4)
O4_2 O 1.5153(5) 0.6363(4) 1.5142(4)
O4A_3 O 1.4847(5) 0.3637(4) 1.4858(4)
O5A_2 O 1.4262(5) 0.4631(5) 1.3122(4)
O6_2 O 1.3781(5) 0.4793(5) 1.6387(4)
O9 O 0.537(3) 0.841(2) 0.183(2)
O10 O 0.738(3) 0.840(3) 0.863(3)
loop_
_geom_bond_atom_site_label_1
_geom_bond_atom_site_label_2
_geom_bond_site_symmetry_1
_geom_bond_site_symmetry_2
Ce1 O1 1_555 1_555
O1 C1 1_555 1_555
O2 Ce1 1_555 1_555
O3 Ce1 1_555 1_555
O4 Ce1 1_555 1_555
O5 Ce1 1_555 1_555
O6 C13 1_555 1_555
O7 Ce1 1_555 1_555
O8 Ce1 1_555 1_555
C1 O2 1_555 1_555
C2 C3 1_555 1_555
C3 H1 1_555 1_555
C4 C1 1_555 1_555
C5 C4 1_555 1_555
H2 C5 1_555 1_555
C6 C2 1_555 1_555
H3 C6 1_555 1_555
C7 O3 1_555 1_555
C8 C9 1_555 1_555
C9 H4 1_555 1_555
C10 C7 1_555 1_555
C11 C10 1_555 1_555
H5 C11 1_555 1_555
C12 C8 1_555 1_555
H6 C12 1_555 1_555
C13 O5 1_555 1_555
C14 C15 1_555 1_555
C15 H7 1_555 1_555
C16 C13 1_555 1_555
C17 C16 1_555 1_555
H8 C17 1_555 1_555
C18 C14 1_555 1_555
H9 C18 1_555 1_555
C19 N1 1_555 1_555
N1 C20 1_555 1_555
C20 O7 1_555 1_555
C21 N1 1_555 1_555
N3 C24 1_555 1_555
C24 O8 1_555 1_555
C25 N3 1_555 1_555
C26 N3 1_555 1_555
C2A C2 1_555 1_555
C3A C2A 1_555 1_555
H1A C3A 1_555 1_555
C4A C3A 1_555 1_555
C1A C4A 1_555 1_555
O1A C1A 1_555 1_555
O2A C1A 1_555 1_555
C5A C6 1_555 1_555
H2A C5A 1_555 1_555
C6A C5 1_555 1_555
H3A C6A 1_555 1_555
C8A C8 1_555 1_555
C9A C8A 1_555 1_555
H4A C9A 1_555 1_555
C10A C9A 1_555 1_555
C7A C10A 1_555 1_555
O3A C7A 1_555 1_555
O4A C7A 1_555 1_555
C11A C12 1_555 1_555
H5A C11A 1_555 1_555
C12A C11 1_555 1_555
H6A C12A 1_555 1_555
C14A C14 1_555 1_555
C15A C14A 1_555 1_555
H7A C15A 1_555 1_555
C16A C15A 1_555 1_555
C13A C16A 1_555 1_555
O5A C13A 1_555 1_555
O6A C13A 1_555 1_555
C17A C18 1_555 1_555
H8A C17A 1_555 1_555
C18A C17 1_555 1_555
H9A C18A 1_555 1_555
Ce1A O1A 1_555 1_555
O7A Ce1A 1_555 1_555
C19A N1A 1_555 1_555
N1A C20A 1_555 1_555
C20A O7A 1_555 1_555
C21A N1A 1_555 1_555
O8A Ce1A 1_555 1_555
N3A C24A 1_555 1_555
C24A O8A 1_555 1_555
C25A N3A 1_555 1_555
C26A N3A 1_555 1_555
O4A_2 Ce1 1_555 1_555
O6A_2 Ce1 1_555 1_555
Ce1A_2 O4 1_555 1_555
Ce1A_3 O3A 1_555 1_555
Ce1_2 O4A 1_555 1_555
Ce1A_4 O5A 1_555 1_555
Ce1_3 O6A 1_555 1_555
O3A_2 Ce1A 1_555 1_555
O4_2 Ce1A 1_555 1_555
O4A_3 Ce1A 1_555 1_555
O5A_2 Ce1A 1_555 1_555
O6_2 Ce1A 1_555 1_555
O4 C7 1_555 1_555
O6 Ce1A_2 1_555 1_555
C3 C4 1_555 1_555
C9 C10 1_555 1_555
C15 C16 1_555 1_555
C2A C6A 1_555 1_555
C4A C5A 1_555 1_555
O2A Ce1A 1_555 1_555
C8A C12A 1_555 1_555
C10A C11A 1_555 1_555
O4A Ce1A_3 1_555 1_555
C14A C18A 1_555 1_555
C16A C17A 1_555 1_555
O4A_2 Ce1A_2 1_555 1_555

#END
