
#######################################################################
#
#                 Cambridge Crystallographic Data Centre
#                                CCDC 
#
#######################################################################
#
# If this CIF has been generated from an entry in the Cambridge 
# Structural Database, then it will include bibliographic, chemical, 
# crystal, experimental, refinement or atomic coordinate data resulting 
# from the CCDC's data processing and validation procedures.
#
#######################################################################

data_YUBTIA
_chemical_formula_moiety         '(C27 H17 Co1 N9 O4)n'
_symmetry_cell_setting           orthorhombic
_symmetry_space_group_name_H-M   'P c m a'
_symmetry_Int_Tables_number      55
_space_group_name_Hall           '-P 2ac 2ac'
loop_
_symmetry_equiv_pos_site_id
_symmetry_equiv_pos_as_xyz
1 x,y,z
2 1/2-x,-y,1/2+z
3 1/2+x,-y,1/2-z
4 -x,y,-z
5 -x,-y,-z
6 1/2+x,y,1/2-z
7 1/2-x,y,1/2+z
8 x,-y,z
_cell_length_a                   19.4254(7)
_cell_length_b                   21.878(2)
_cell_length_c                   15.5780(8)
_cell_angle_alpha                90
_cell_angle_beta                 90
_cell_angle_gamma                90
_cell_volume                     6620.48
loop_
_atom_site_label
_atom_site_type_symbol
_atom_site_fract_x
_atom_site_fract_y
_atom_site_fract_z
Co1 Co 0.43996(3) 0.5000 0.59942(4)
O1 O 0.03646(19) 0.5000 0.8472(4)
N1 N 0.44043(12) 0.59959(17) 0.59947(17)
C1 C 0.0878(3) 0.5000 0.8982(4)
C2 C 0.4437(2) 0.7266(3) 0.5960(3)
O2 O 0.0844(3) 0.5000 0.9791(3)
O3 O 0.3969(3) 0.5000 0.7410(5)
C3 C 0.4465(4) 0.7942(3) 0.5991(4)
C4 C 0.2793(2) 0.5000 0.8559(5)
H1 H 0.3209 0.5000 0.8855
C5 C 0.2800(3) 0.5000 0.7659(4)
C6 C 0.2189(3) 0.5000 0.7282(4)
H2 H 0.2181 0.5000 0.6685
C7 C 0.3949(3) 0.6299(3) 0.5548(3)
H3 H 0.3610 0.6084 0.5254
C8 C 0.2165(3) 0.5000 0.9035(4)
H4 H 0.2167 0.5000 0.9632
N2 N 0.3999(3) 0.82994(19) 0.5625(4)
H5 H 0.3617 0.8187 0.5395
C9 C 0.1549(2) 0.5000 0.8575(3)
N3 N 0.4963(2) 0.82601(19) 0.6320(3)
C10 C 0.4873(2) 0.6313(2) 0.6419(4)
H6 H 0.5211 0.6100 0.6720
C11 C 0.3955(3) 0.6949(2) 0.5496(4)
H7 H 0.3638 0.7154 0.5154
C12 C 0.4887(3) 0.6923(2) 0.6438(4)
H8 H 0.5209 0.7120 0.6783
C13 C 0.1588(3) 0.5000 0.7686(5)
H9 H 0.1184 0.5000 0.7366
N4 N 0.4851(3) 0.8853(2) 0.6270(4)
C14 C 0.4224(6) 1.0000 0.5756(7)
H10 H 0.4656 1.0000 0.6014
C15 C 0.4245(5) 0.8883(3) 0.5687(4)
C16 C 0.3958(5) 0.9468(2) 0.5597(5)
N5 N 0.2999(7) 1.0000 0.4948(7)
C17 C 0.3289(6) 0.9478(3) 0.5233(6)
H11 H 0.3044 0.9114 0.5189
O4 O 0.3311(3) 0.5000 0.6236(4)
C18 C 0.3462(5) 0.5000 0.7134(7)
N1G N 0.44043(12) 1.40041(17) 0.59947(17)
C2G C 0.4437(2) 1.2734(3) 0.5960(3)
C3G C 0.4465(4) 1.2058(3) 0.5991(4)
C7G C 0.3949(3) 1.3701(3) 0.5548(3)
H3G H 0.3610 1.3916 0.5254
N2G N 0.3999(3) 1.17006(19) 0.5625(4)
H5G H 0.3617 1.1813 0.5395
N3G N 0.4963(2) 1.17399(19) 0.6320(3)
C10G C 0.4873(2) 1.3687(2) 0.6419(4)
H6G H 0.5211 1.3900 0.6720
C11G C 0.3955(3) 1.3051(2) 0.5496(4)
H7G H 0.3638 1.2846 0.5154
C12G C 0.4887(3) 1.3077(2) 0.6438(4)
H8G H 0.5209 1.2880 0.6783
N4G N 0.4851(3) 1.1147(2) 0.6270(4)
C15G C 0.4245(5) 1.1117(3) 0.5687(4)
C16G C 0.3958(5) 1.0532(2) 0.5597(5)
C17G C 0.3289(6) 1.0522(3) 0.5233(6)
H11G H 0.3044 1.0886 0.5189
Co1_2 Co 0.43996(3) 1.5000 0.59942(4)
Co1A Co 0.06004(3) 0.5000 1.09942(4)
Co1B Co -0.06004(3) 0.5000 0.90058(4)
O1B O 0.53646(19) 0.5000 0.6528(4)
N1G_2 N 0.44043(12) 0.40041(17) 0.59947(17)
O2A O 0.4156(3) 0.5000 0.4791(3)
loop_
_geom_bond_atom_site_label_1
_geom_bond_atom_site_label_2
_geom_bond_site_symmetry_1
_geom_bond_site_symmetry_2
Co1 N1 1_555 1_555
O1 C1 1_555 1_555
N1 C7 1_555 1_555
C1 O2 1_555 1_555
C2 C3 1_555 1_555
O2 Co1A 1_555 1_555
O3 Co1 1_555 1_555
C3 N2 1_555 1_555
C4 H1 1_555 1_555
C5 C4 1_555 1_555
C6 C5 1_555 1_555
H2 C6 1_555 1_555
C7 H3 1_555 1_555
C8 C4 1_555 1_555
H4 C8 1_555 1_555
N2 H5 1_555 1_555
C9 C1 1_555 1_555
N3 C3 1_555 1_555
C10 N1 1_555 1_555
H6 C10 1_555 1_555
C11 C2 1_555 1_555
H7 C11 1_555 1_555
C12 C2 1_555 1_555
H8 C12 1_555 1_555
C13 C6 1_555 1_555
H9 C13 1_555 1_555
N4 N3 1_555 1_555
C14 H10 1_555 1_555
C15 N2 1_555 1_555
C16 C14 1_555 1_555
N5 C17 1_555 1_555
C17 C16 1_555 1_555
H11 C17 1_555 1_555
O4 Co1 1_555 1_555
C18 O3 1_555 1_555
N1G C7G 1_555 1_555
C2G C3G 1_555 1_555
C3G N2G 1_555 1_555
C7G H3G 1_555 1_555
N2G H5G 1_555 1_555
N3G C3G 1_555 1_555
C10G N1G 1_555 1_555
H6G C10G 1_555 1_555
C11G C2G 1_555 1_555
H7G C11G 1_555 1_555
C12G C2G 1_555 1_555
H8G C12G 1_555 1_555
N4G N3G 1_555 1_555
C15G N2G 1_555 1_555
C16G C14 1_555 1_555
C17G N5 1_555 1_555
H11G C17G 1_555 1_555
Co1_2 N1G 1_555 1_555
Co1B O1 1_555 1_555
O1B Co1 1_555 1_555
N1G_2 Co1 1_555 1_555
O2A Co1 1_555 1_555
C5 C18 1_555 1_555
C7 C11 1_555 1_555
C8 C9 1_555 1_555
C9 C13 1_555 1_555
C10 C12 1_555 1_555
N4 C15 1_555 1_555
C15 C16 1_555 1_555
O4 C18 1_555 1_555
C7G C11G 1_555 1_555
C10G C12G 1_555 1_555
N4G C15G 1_555 1_555
C15G C16G 1_555 1_555
C16G C17G 1_555 1_555

#END
