
#######################################################################
#
#                 Cambridge Crystallographic Data Centre
#                                CCDC 
#
#######################################################################
#
# If this CIF has been generated from an entry in the Cambridge 
# Structural Database, then it will include bibliographic, chemical, 
# crystal, experimental, refinement or atomic coordinate data resulting 
# from the CCDC's data processing and validation procedures.
#
#######################################################################

data_OWIKAI
_chemical_formula_moiety         'C17 H16 F4 N6 Nb1 Ni4 O5'
_symmetry_cell_setting           tetragonal
_symmetry_space_group_name_H-M   'I 4/m c m'
_symmetry_Int_Tables_number      140
_space_group_name_Hall           '-I 4 2c'
loop_
_symmetry_equiv_pos_site_id
_symmetry_equiv_pos_as_xyz
1 x,y,z
2 -y,x,z
3 -x,-y,z
4 y,-x,z
5 x,-y,1/2-z
6 -x,y,1/2-z
7 y,x,1/2-z
8 -y,-x,1/2-z
9 1/2+x,1/2+y,1/2+z
10 1/2-y,1/2+x,1/2+z
11 1/2-x,1/2-y,1/2+z
12 1/2+y,1/2-x,1/2+z
13 1/2+x,1/2-y,-z
14 1/2-x,1/2+y,-z
15 1/2+y,1/2+x,-z
16 1/2-y,1/2-x,-z
17 -x,-y,-z
18 y,-x,-z
19 x,y,-z
20 -y,x,-z
21 -x,y,1/2+z
22 x,-y,1/2+z
23 -y,-x,1/2+z
24 y,x,1/2+z
25 1/2-x,1/2-y,1/2-z
26 1/2+y,1/2-x,1/2-z
27 1/2+x,1/2+y,1/2-z
28 1/2-y,1/2+x,1/2-z
29 1/2-x,1/2+y,z
30 1/2+x,1/2-y,z
31 1/2-y,1/2-x,z
32 1/2+y,1/2+x,z
_cell_length_a                   9.903(1)
_cell_length_b                   9.903(1)
_cell_length_c                   15.720(2)
_cell_angle_alpha                90
_cell_angle_beta                 90
_cell_angle_gamma                90
_cell_volume                     1541.65
loop_
_atom_site_label
_atom_site_type_symbol
_atom_site_fract_x
_atom_site_fract_y
_atom_site_fract_z
O2 O 1.0000 0.0000 0.0741(13)
C3 C 1.0000 0.0000 0.0000
O2P O 1.0000 0.0000 -0.0741(13)
Nb1 Nb 0.5000 0.0000 0.0000
Ni1 Ni 0.5000 -0.0000 0.2500
O1 O 0.5000 -0.0000 0.1228(4)
F1 F 0.6922(8) 0.0096(8) 0.0000
N1 N 0.6506(6) 0.1506(6) 0.2501(4)
C1 C 0.7409(11) 0.1612(12) 0.1875(6)
H1 H 0.7369 0.1001 0.1426
C2 C 0.6593(13) 0.2399(11) 0.3134(6)
H2 H 0.5983 0.2361 0.3583
N1G N 0.8494(6) 0.3494(6) 0.2499(4)
C1G C 0.8388(12) 0.2591(11) 0.3125(6)
H1G H 0.8999 0.2631 0.3574
C2G C 0.7601(11) 0.3407(13) 0.1866(6)
H2G H 0.7639 0.4017 0.1417
C1X C 0.7591(11) 0.3388(12) 0.3125(6)
H1X H 0.7631 0.3999 0.3574
C2X C 0.8407(13) 0.2601(11) 0.1866(6)
H2X H 0.9017 0.2639 0.1417
C1EA C 0.6612(12) 0.2409(11) 0.1875(6)
H1EA H 0.6001 0.2369 0.1426
C2EA C 0.7399(11) 0.1593(13) 0.3134(6)
H2EA H 0.7361 0.0983 0.3583
N1A N 0.8494(6) -0.3494(6) 0.2501(4)
C1A C 0.8388(12) -0.2591(11) 0.1875(6)
H1A H 0.8999 -0.2631 0.1426
C2A C 0.7601(11) -0.3407(13) 0.3134(6)
H2A H 0.7639 -0.4017 0.3583
N1D N 0.6506(6) -0.1506(6) 0.2499(4)
C1D C 0.7409(11) -0.1612(12) 0.3125(6)
H1D H 0.7369 -0.1001 0.3574
C2D C 0.6593(13) -0.2399(11) 0.1866(6)
H2D H 0.5983 -0.2361 0.1417
C1Y C 0.6612(12) -0.2409(11) 0.3125(6)
H1Y H 0.6001 -0.2369 0.3574
C2Y C 0.7399(11) -0.1593(13) 0.1866(6)
H2Y H 0.7361 -0.0983 0.1417
C1BA C 0.7591(11) -0.3388(12) 0.1875(6)
H1BA H 0.7631 -0.3999 0.1426
C2BA C 0.8407(13) -0.2601(11) 0.3134(6)
H2BA H 0.9017 -0.2639 0.3583
F1B F 0.3078(8) -0.0096(8) 0.0000
O1N O 0.5000 0.0000 -0.1228(4)
F1O F 0.4904(8) -0.1922(8) 0.0000
F1N F 0.5096(8) 0.1922(8) 0.0000
Ni1A Ni 1.0000 -0.5000 0.2500
Ni1A_2 Ni 1.0000 0.5000 0.2500
Ni1I Ni 0.5000 0.0000 -0.2500
O1D O 0.5000 -0.0000 0.3772(4)
N1B N 0.3494(6) -0.1506(6) 0.2501(4)
N1E N 0.3494(6) 0.1506(6) 0.2499(4)
loop_
_geom_bond_atom_site_label_1
_geom_bond_atom_site_label_2
_geom_bond_site_symmetry_1
_geom_bond_site_symmetry_2
Nb1 O1 1_555 1_555
Ni1 O1 1_555 1_555
F1 Nb1 1_555 1_555
N1 Ni1 1_555 1_555
C1 N1 1_555 1_555
H1 C1 1_555 1_555
C2 N1 1_555 1_555
H2 C2 1_555 1_555
O2 C3 1_555 1_555
C3 O2P 1_555 1_555
N1G C1G 1_555 1_555
C1G H1G 1_555 1_555
C2G N1G 1_555 1_555
H2G C2G 1_555 1_555
C1X C2 1_555 1_555
H1X C1X 1_555 1_555
C2X C1 1_555 1_555
H2X C2X 1_555 1_555
C1EA N1 1_555 1_555
H1EA C1EA 1_555 1_555
C2EA N1 1_555 1_555
H2EA C2EA 1_555 1_555
N1A C1A 1_555 1_555
C1A H1A 1_555 1_555
C2A N1A 1_555 1_555
H2A C2A 1_555 1_555
N1D Ni1 1_555 1_555
C1D N1D 1_555 1_555
H1D C1D 1_555 1_555
C2D N1D 1_555 1_555
H2D C2D 1_555 1_555
C1Y C2A 1_555 1_555
H1Y C1Y 1_555 1_555
C2Y C1A 1_555 1_555
H2Y C2Y 1_555 1_555
C1BA N1A 1_555 1_555
H1BA C1BA 1_555 1_555
C2BA N1A 1_555 1_555
H2BA C2BA 1_555 1_555
F1B Nb1 1_555 1_555
O1N Nb1 1_555 1_555
F1O Nb1 1_555 1_555
F1N Nb1 1_555 1_555
Ni1A N1A 1_555 1_555
Ni1A_2 N1G 1_555 1_555
Ni1I O1N 1_555 1_555
O1D Ni1 1_555 1_555
N1B Ni1 1_555 1_555
N1E Ni1 1_555 1_555
N1G C1X 1_555 1_555
N1G C2X 1_555 1_555
C1G C2EA 1_555 1_555
C2G C1EA 1_555 1_555
N1D C1Y 1_555 1_555
N1D C2Y 1_555 1_555
C1D C2BA 1_555 1_555
C2D C1BA 1_555 1_555

#END
