
#######################################################################
#
#                 Cambridge Crystallographic Data Centre
#                                CCDC 
#
#######################################################################
#
# If this CIF has been generated from an entry in the Cambridge 
# Structural Database, then it will include bibliographic, chemical, 
# crystal, experimental, refinement or atomic coordinate data resulting 
# from the CCDC's data processing and validation procedures.
#
#######################################################################

data_FASFAJ
_chemical_formula_moiety         '(C30 H20 Cd1 N6 O4)n'
_symmetry_cell_setting           monoclinic
_symmetry_space_group_name_H-M   'C 2/c'
_symmetry_Int_Tables_number      15
_space_group_name_Hall           '-C 2yc'
loop_
_symmetry_equiv_pos_site_id
_symmetry_equiv_pos_as_xyz
1 x,y,z
2 -x,y,1/2-z
3 1/2+x,1/2+y,z
4 1/2-x,1/2+y,1/2-z
5 -x,-y,-z
6 x,-y,1/2+z
7 1/2-x,1/2-y,-z
8 1/2+x,1/2-y,1/2+z
_cell_length_a                   22.042(4)
_cell_length_b                   21.420(4)
_cell_length_c                   13.269(2)
_cell_angle_alpha                90
_cell_angle_beta                 101.413(5)
_cell_angle_gamma                90
_cell_volume                     6140.94
loop_
_atom_site_label
_atom_site_type_symbol
_atom_site_fract_x
_atom_site_fract_y
_atom_site_fract_z
_atom_site_U_iso_or_equiv
_atom_site_thermal_displace_type
Cd1 Cd 0.24915(2) 0.170862(16) 0.09351(3) 0.0283 Uani
O1 O 0.26002(17) 0.25063(17) 0.2095(3) 0.0324 Uani
O2 O 0.2774(3) 0.3033(2) 0.0772(4) 0.0656 Uani
O3 O 0.2737(2) 0.56128(18) 0.4337(3) 0.0430 Uani
O4 O 0.2226(2) 0.59000(19) 0.2797(3) 0.0506 Uani
N1 N 0.0537(3) 0.1441(3) 0.1250(4) 0.0524 Uani
N2 N 0.1466(2) 0.1781(2) 0.1103(4) 0.0391 Uani
N3 N -0.0296(3) -0.0693(3) 0.1166(5) 0.0620 Uani
N4 N 0.0256(3) -0.0880(4) 0.1360(5) 0.0719 Uani
C1 C 0.2564(2) 0.3622(2) 0.2173(4) 0.0224 Uani
C2 C 0.2702(3) 0.4158(2) 0.1683(4) 0.0274 Uani
H1 H 0.2836 0.4123 0.1047 0.0330 Uiso
C3 C 0.2649(3) 0.4747(2) 0.2098(5) 0.0307 Uani
H2 H 0.2721 0.5104 0.1715 0.0370 Uiso
C4 C 0.2496(3) 0.4830(2) 0.3036(4) 0.0270 Uani
C5 C 0.2359(3) 0.4291(2) 0.3596(5) 0.0279 Uani
C6 C 0.2387(2) 0.3677(2) 0.3154(4) 0.0231 Uani
C7 C 0.2221(3) 0.3162(2) 0.3728(5) 0.0322 Uani
H3 H 0.2216 0.2753 0.3449 0.0390 Uiso
C8 C 0.2067(3) 0.3244(3) 0.4679(5) 0.0453 Uani
H4 H 0.1972 0.2891 0.5054 0.0540 Uiso
C9 C 0.2050(3) 0.3839(3) 0.5091(5) 0.0458 Uani
H5 H 0.1943 0.3890 0.5744 0.0550 Uiso
C10 C 0.2187(3) 0.4347(3) 0.4567(5) 0.0390 Uani
H6 H 0.2166 0.4750 0.4858 0.0460 Uiso
C11 C 0.2646(3) 0.3022(3) 0.1649(4) 0.0297 Uani
C12 C 0.2480(3) 0.5484(3) 0.3422(5) 0.0369 Uani
C13 C 0.1094(3) 0.1289(3) 0.1004(5) 0.0470 Uani
H7 H 0.1199 0.0886 0.0791 0.0560 Uiso
C14 C 0.1142(3) 0.2270(3) 0.1436(5) 0.0445 Uani
H8 H 0.1297 0.2681 0.1582 0.0530 Uiso
C15 C 0.0566(3) 0.2068(4) 0.1519(5) 0.0541 Uani
H9 H 0.0249 0.2310 0.1720 0.0650 Uiso
C16 C 0.0027(3) 0.1015(4) 0.1215(5) 0.0592 Uani
C17 C 0.0134(4) 0.0391(4) 0.1275(5) 0.0599 Uani
H10 H 0.0547 0.0237 0.1400 0.0720 Uiso
C18 C -0.0365(3) -0.0026(4) 0.1152(5) 0.0601 Uani
C19 C -0.0959(4) 0.0207(5) 0.0988(6) 0.0734 Uani
H11 H -0.1298 -0.0074 0.0891 0.0880 Uiso
C20 C 0.0328(2) -0.1531(2) 0.1328(4) 0.0633 Uani
C21 C -0.01614(14) -0.1952(2) 0.1144(4) 0.0535 Uani
H12 H -0.0576 -0.1805 0.1048 0.0640 Uiso
C22 C -0.00446(17) -0.2588(2) 0.1101(4) 0.0560 Uani
C23 C 0.0561(2) -0.2803(2) 0.1241(4) 0.0737 Uani
H13 H 0.0641 -0.3238 0.1211 0.0880 Uiso
C24 C 0.10506(14) -0.2382(3) 0.1425(4) 0.0960 Uani
H14 H 0.1465 -0.2529 0.1520 0.1150 Uiso
C25 C 0.09338(17) -0.1746(3) 0.1468(4) 0.0890 Uani
H15 H 0.1268 -0.1458 0.1593 0.1070 Uiso
C26 C -0.1069(4) 0.0842(5) 0.0962(7) 0.0735 Uani
H16 H -0.1480 0.0995 0.0881 0.0880 Uiso
N5 N -0.0550(2) -0.3001(3) 0.0802(6) 0.0476 Uani
C27 C -0.1139(3) -0.2856(3) 0.1022(6) 0.0469 Uani
H17 H -0.1240 -0.2493 0.1366 0.0560 Uiso
N6 N -0.1551(2) -0.3349(3) 0.0637(6) 0.0475 Uani
C28 C -0.1216(3) -0.3799(2) 0.0180(6) 0.0478 Uani
H18 H -0.1378 -0.4177 -0.0139 0.0570 Uiso
C29 C -0.0598(2) -0.3583(3) 0.0282(6) 0.0479 Uani
H19 H -0.0273 -0.3792 0.0044 0.0580 Uiso
C30 C -0.0576(3) 0.1253(4) 0.1056(6) 0.0645 Uani
H20 H -0.0645 0.1691 0.1013 0.0770 Uiso
Cd1B Cd -0.25085(2) -0.329138(16) 0.09351(3) 0.0283 Uani
Cd1C Cd 0.25085(2) 0.670862(16) 0.40649(3) 0.0283 Uani
Cd1F Cd 0.25085(2) 0.329138(16) -0.09351(3) 0.0283 Uani
O2F O 0.2226(3) 0.1967(2) -0.0772(4) 0.0656 Uani
O3C O 0.2263(2) 0.06128(18) 0.0663(3) 0.0430 Uani
O4C O 0.2774(2) 0.09000(19) 0.2203(3) 0.0506 Uani
N6B N 0.3449(2) 0.1651(3) 0.0637(6) 0.0475 Uani
loop_
_atom_site_aniso_label
_atom_site_aniso_U_11
_atom_site_aniso_U_22
_atom_site_aniso_U_33
_atom_site_aniso_U_23
_atom_site_aniso_U_13
_atom_site_aniso_U_12
Cd1 0.0429(3) 0.0099(2) 0.0332(3) -0.00562(17) 0.01020(18) -0.00977(16)
O1 0.035(2) 0.0172(19) 0.047(3) -0.0132(18) 0.0130(18) -0.0130(16)
O2 0.110(4) 0.044(3) 0.048(3) -0.007(2) 0.028(3) 0.034(3)
O3 0.080(3) 0.0140(19) 0.038(3) 0.0005(18) 0.019(2) 0.008(2)
O4 0.095(4) 0.017(2) 0.038(3) 0.0004(19) 0.009(3) 0.014(2)
N1 0.051(4) 0.072(4) 0.042(3) -0.037(3) 0.028(3) -0.046(3)
N2 0.038(3) 0.047(3) 0.035(3) -0.020(3) 0.014(2) -0.029(2)
N3 0.052(4) 0.095(5) 0.048(4) -0.048(4) 0.032(3) -0.053(4)
N4 0.060(4) 0.119(6) 0.044(4) -0.049(4) 0.028(3) -0.067(4)
C1 0.023(3) 0.018(3) 0.025(3) -0.002(2) 0.002(2) 0.002(2)
C2 0.038(3) 0.024(3) 0.023(3) -0.002(2) 0.013(2) -0.002(2)
C3 0.038(3) 0.017(3) 0.038(3) 0.008(3) 0.010(3) -0.004(2)
C4 0.039(3) 0.017(3) 0.026(3) 0.002(2) 0.009(2) -0.001(2)
C5 0.035(3) 0.014(3) 0.037(3) 0.001(2) 0.013(3) 0.002(2)
C6 0.026(3) 0.017(3) 0.029(3) -0.004(2) 0.012(2) -0.001(2)
C7 0.044(4) 0.016(3) 0.039(4) 0.006(2) 0.014(3) 0.005(2)
C8 0.074(5) 0.024(3) 0.045(4) 0.005(3) 0.029(4) -0.006(3)
C9 0.076(5) 0.031(3) 0.040(4) 0.004(3) 0.035(3) 0.007(3)
C10 0.062(4) 0.022(3) 0.040(4) 0.002(3) 0.027(3) 0.013(3)
C11 0.035(3) 0.024(3) 0.028(3) -0.005(2) 0.001(2) 0.005(2)
C12 0.062(4) 0.016(3) 0.037(4) 0.005(3) 0.020(3) 0.005(3)
C13 0.049(4) 0.060(4) 0.037(4) -0.027(3) 0.021(3) -0.038(3)
C14 0.049(4) 0.048(4) 0.039(4) -0.024(3) 0.015(3) -0.025(3)
C15 0.045(4) 0.075(5) 0.044(4) -0.035(4) 0.013(3) -0.026(4)
C16 0.056(5) 0.091(6) 0.039(4) -0.041(4) 0.030(3) -0.058(4)
C17 0.059(5) 0.091(6) 0.039(4) -0.043(4) 0.032(3) -0.053(4)
C18 0.060(5) 0.085(6) 0.047(4) -0.049(4) 0.039(4) -0.054(4)
C19 0.060(5) 0.103(7) 0.070(6) -0.055(5) 0.044(4) -0.057(5)
C20 0.040(4) 0.122(7) 0.032(4) -0.041(4) 0.017(3) -0.035(4)
C21 0.030(3) 0.083(5) 0.052(5) -0.031(4) 0.019(3) -0.021(3)
C22 0.027(4) 0.090(6) 0.052(5) -0.032(4) 0.010(3) 0.000(4)
C23 0.034(4) 0.145(9) 0.041(4) -0.032(5) 0.005(3) 0.027(5)
C24 0.027(4) 0.221(14) 0.037(5) -0.044(7) -0.001(3) 0.004(6)
C25 0.028(4) 0.195(13) 0.045(5) -0.056(6) 0.010(3) -0.037(5)
C26 0.054(5) 0.100(7) 0.076(6) -0.058(5) 0.036(4) -0.047(5)
N5 0.0410(19) 0.0361(18) 0.066(3) -0.0132(19) 0.0116(19) 0.0088(14)
C27 0.0409(19) 0.0354(18) 0.065(3) -0.0131(19) 0.0116(19) 0.0083(14)
N6 0.0414(19) 0.0354(18) 0.066(3) -0.0130(19) 0.0115(19) 0.0084(14)
C28 0.0417(19) 0.0361(18) 0.066(3) -0.0132(19) 0.0114(19) 0.0087(15)
C29 0.0415(19) 0.0364(18) 0.066(3) -0.0133(19) 0.0114(19) 0.0089(15)
C30 0.054(5) 0.095(6) 0.053(5) -0.048(4) 0.031(4) -0.046(4)
Cd1B 0.0429 0.0099 0.0332 -0.00562 0.0102 -0.00977
Cd1C 0.0429 0.0099 0.0332 0.00562 0.0102 0.00977
Cd1F 0.0429 0.0099 0.0332 -0.00562 0.0102 -0.00977
O2F 0.11 0.044 0.048 -0.007 0.028 0.034
O3C 0.08 0.014 0.038 -0.0005 0.019 -0.008
O4C 0.095 0.017 0.038 -0.0004 0.009 -0.014
N6B 0.0414 0.0354 0.066 -0.013 0.0115 0.0084
loop_
_geom_bond_atom_site_label_1
_geom_bond_atom_site_label_2
_geom_bond_site_symmetry_1
_geom_bond_site_symmetry_2
Cd1 O1 1_555 1_555
O1 C11 1_555 1_555
O2 C11 1_555 1_555
O3 C12 1_555 1_555
O4 C12 1_555 1_555
N1 C13 1_555 1_555
N2 Cd1 1_555 1_555
N3 N4 1_555 1_555
N4 C20 1_555 1_555
C1 C2 1_555 1_555
C2 H1 1_555 1_555
C3 C2 1_555 1_555
H2 C3 1_555 1_555
C4 C3 1_555 1_555
C5 C4 1_555 1_555
C6 C1 1_555 1_555
C7 C6 1_555 1_555
H3 C7 1_555 1_555
C8 C7 1_555 1_555
H4 C8 1_555 1_555
C9 C8 1_555 1_555
H5 C9 1_555 1_555
C10 C5 1_555 1_555
H6 C10 1_555 1_555
C11 C1 1_555 1_555
C12 C4 1_555 1_555
C13 N2 1_555 1_555
H7 C13 1_555 1_555
C14 N2 1_555 1_555
H8 C14 1_555 1_555
C15 N1 1_555 1_555
H9 C15 1_555 1_555
C16 N1 1_555 1_555
C17 C16 1_555 1_555
H10 C17 1_555 1_555
C18 N3 1_555 1_555
C19 C18 1_555 1_555
H11 C19 1_555 1_555
C20 C21 1_555 1_555
C21 H12 1_555 1_555
C22 C21 1_555 1_555
C23 C22 1_555 1_555
H13 C23 1_555 1_555
C24 C23 1_555 1_555
H14 C24 1_555 1_555
C25 C20 1_555 1_555
H15 C25 1_555 1_555
C26 C19 1_555 1_555
H16 C26 1_555 1_555
N5 C22 1_555 1_555
C27 N5 1_555 1_555
H17 C27 1_555 1_555
N6 C27 1_555 1_555
C28 N6 1_555 1_555
H18 C28 1_555 1_555
C29 N5 1_555 1_555
H19 C29 1_555 1_555
C30 C16 1_555 1_555
H20 C30 1_555 1_555
Cd1B N6 1_555 1_555
Cd1C O3 1_555 1_555
Cd1F O2 1_555 1_555
O2F Cd1 1_555 1_555
O3C Cd1 1_555 1_555
O4C Cd1 1_555 1_555
N6B Cd1 1_555 1_555
O4 Cd1C 1_555 1_555
C5 C6 1_555 1_555
C9 C10 1_555 1_555
C14 C15 1_555 1_555
C17 C18 1_555 1_555
C24 C25 1_555 1_555
C26 C30 1_555 1_555
C28 C29 1_555 1_555

#END
