
#######################################################################
#
#                 Cambridge Crystallographic Data Centre
#                                CCDC 
#
#######################################################################
#
# If this CIF has been generated from an entry in the Cambridge 
# Structural Database, then it will include bibliographic, chemical, 
# crystal, experimental, refinement or atomic coordinate data resulting 
# from the CCDC's data processing and validation procedures.
#
#######################################################################

data_AVIMIC
_chemical_formula_moiety         '(C30 H18 O10 Zn2)n'
_symmetry_cell_setting           monoclinic
_symmetry_space_group_name_H-M   'C 2/c'
_symmetry_Int_Tables_number      15
_space_group_name_Hall           '-C 2yc'
loop_
_symmetry_equiv_pos_site_id
_symmetry_equiv_pos_as_xyz
1 x,y,z
2 -x,y,1/2-z
3 1/2+x,1/2+y,z
4 1/2-x,1/2+y,1/2-z
5 -x,-y,-z
6 x,-y,1/2+z
7 1/2-x,1/2-y,-z
8 1/2+x,1/2-y,1/2+z
_cell_length_a                   23.482(3)
_cell_length_b                   16.7231(18)
_cell_length_c                   7.7066(8)
_cell_angle_alpha                90
_cell_angle_beta                 104.716(2)
_cell_angle_gamma                90
_cell_volume                     2927.05
loop_
_atom_site_label
_atom_site_type_symbol
_atom_site_fract_x
_atom_site_fract_y
_atom_site_fract_z
_atom_site_U_iso_or_equiv
_atom_site_thermal_displace_type
C1 C 0.70667(19) 0.0960(2) -0.7517(6) 0.0372 Uani
C2 C 0.68595(19) 0.1664(2) -0.6683(6) 0.0367 Uani
C3 C 0.69362(18) 0.2414(2) -0.7311(6) 0.0342 Uani
H1 H 0.7095 0.2478 -0.8291 0.0410 Uiso
C4 C 0.67747(19) 0.3073(2) -0.6474(6) 0.0362 Uani
C5 C 0.65269(19) 0.2986(3) -0.5034(6) 0.0383 Uani
H2 H 0.6416 0.3434 -0.4486 0.0460 Uiso
C6 C 0.6446(2) 0.2227(3) -0.4415(6) 0.0406 Uani
C7 C 0.6613(2) 0.1564(3) -0.5229(6) 0.0397 Uani
H3 H 0.6563 0.1054 -0.4811 0.0480 Uiso
C8 C 0.6891(2) 0.3890(3) -0.7100(6) 0.0423 Uani
C9 C 0.6059(2) 0.1429(3) -0.2455(6) 0.0449 Uani
H4 H 0.6416 0.1114 -0.2062 0.0540 Uiso
H5 H 0.5800 0.1158 -0.3464 0.0540 Uiso
C10 C 0.5759(2) 0.1507(3) -0.0935(6) 0.0415 Uani
C11 C 0.57026(19) 0.0821(3) -0.0004(6) 0.0408 Uani
H6 H 0.5864 0.0345 -0.0281 0.0490 Uiso
C12 C 0.54109(19) 0.0834(3) 0.1326(6) 0.0411 Uani
H7 H 0.5376 0.0363 0.1934 0.0500 Uiso
C13 C 0.51683(19) 0.1526(3) 0.1782(6) 0.0401 Uani
C14 C 0.5233(2) 0.2225(3) 0.0875(6) 0.0447 Uani
H8 H 0.5080 0.2704 0.1172 0.0540 Uiso
C15 C 0.55289(19) 0.2206(3) -0.0485(6) 0.0415 Uani
H9 H 0.5570 0.2674 -0.1092 0.0490 Uiso
O1 O 0.72702(13) 0.10744(17) -0.8845(4) 0.0398 Uani
O2 O 0.70329(14) 0.02659(17) -0.6860(4) 0.0404 Uani
O3 O 0.70146(13) 0.39430(17) -0.8583(4) 0.0406 Uani
O4 O 0.68556(14) 0.44729(17) -0.6089(4) 0.0409 Uani
O5 O 0.62001(14) 0.2197(2) -0.2988(5) 0.0462 Uani
Zn1 Zn 0.76425(2) 0.03195(3) -1.00882(8) 0.0426 Uani
C1A C 0.29333(19) 0.0960(2) 1.2517(6) 0.0372 Uani
C2A C 0.31405(19) 0.1664(2) 1.1683(6) 0.0367 Uani
C3A C 0.30638(18) 0.2414(2) 1.2311(6) 0.0342 Uani
H1A H 0.2905 0.2478 1.3291 0.0410 Uiso
C4A C 0.32253(19) 0.3073(2) 1.1474(6) 0.0362 Uani
C5A C 0.34731(19) 0.2986(3) 1.0034(6) 0.0383 Uani
H2A H 0.3584 0.3434 0.9486 0.0460 Uiso
C6A C 0.3554(2) 0.2227(3) 0.9415(6) 0.0406 Uani
C7A C 0.3387(2) 0.1564(3) 1.0229(6) 0.0397 Uani
H3A H 0.3437 0.1054 0.9811 0.0480 Uiso
C8A C 0.3109(2) 0.3890(3) 1.2100(6) 0.0423 Uani
C9A C 0.3941(2) 0.1429(3) 0.7455(6) 0.0449 Uani
H4A H 0.3584 0.1114 0.7062 0.0540 Uiso
H5A H 0.4200 0.1158 0.8464 0.0540 Uiso
C10A C 0.4241(2) 0.1507(3) 0.5935(6) 0.0415 Uani
C11A C 0.42974(19) 0.0821(3) 0.5004(6) 0.0408 Uani
H6A H 0.4136 0.0345 0.5281 0.0490 Uiso
C12A C 0.45891(19) 0.0834(3) 0.3674(6) 0.0411 Uani
H7A H 0.4624 0.0363 0.3066 0.0500 Uiso
C13A C 0.48317(19) 0.1526(3) 0.3218(6) 0.0401 Uani
C14A C 0.4767(2) 0.2225(3) 0.4125(6) 0.0447 Uani
H8A H 0.4920 0.2704 0.3828 0.0540 Uiso
C15A C 0.44711(19) 0.2206(3) 0.5485(6) 0.0415 Uani
H9A H 0.4430 0.2674 0.6092 0.0490 Uiso
O1A O 0.27298(13) 0.10744(17) 1.3845(4) 0.0398 Uani
O2A O 0.29671(14) 0.02659(17) 1.1860(4) 0.0404 Uani
O2E O 0.70329(14) -0.02659(17) -1.1860(4) 0.0404 Uani
O2D O 0.29671(14) -0.02659(17) 1.6860(4) 0.0404 Uani
O3A O 0.29854(13) 0.39430(17) 1.3583(4) 0.0406 Uani
O3F O 0.79854(13) 0.10570(17) -1.1417(4) 0.0406 Uani
O3G O 0.20146(13) 0.10570(17) 1.6417(4) 0.0406 Uani
O4A O 0.31444(14) 0.44729(17) 1.1089(4) 0.0409 Uani
O4C O 0.81444(14) -0.05271(17) -0.8911(4) 0.0409 Uani
O4B O 0.18556(14) -0.05271(17) 1.3911(4) 0.0409 Uani
O5A O 0.37999(14) 0.2197(2) 0.7988(5) 0.0462 Uani
Zn1A Zn 0.23575(2) 0.03195(3) 1.50882(8) 0.0426 Uani
Zn1E Zn 0.76425(2) -0.03195(3) -0.50882(8) 0.0426 Uani
Zn1F Zn 0.73575(2) 0.46805(3) -0.99118(8) 0.0426 Uani
Zn1C Zn 0.73575(2) 0.53195(3) -0.49118(8) 0.0426 Uani
Zn1D Zn 0.23575(2) -0.03195(3) 1.00882(8) 0.0426 Uani
Zn1G Zn 0.26425(2) 0.46805(3) 1.49118(8) 0.0426 Uani
Zn1B Zn 0.26425(2) 0.53195(3) 0.99118(8) 0.0426 Uani
loop_
_atom_site_aniso_label
_atom_site_aniso_U_11
_atom_site_aniso_U_22
_atom_site_aniso_U_33
_atom_site_aniso_U_23
_atom_site_aniso_U_13
_atom_site_aniso_U_12
C1 0.045 0.028 0.041 0 0.0152 0.0037
C2 0.042 0.031 0.038 0.0037 0.0119 0.0041
C3 0.041 0.03 0.035 0.0019 0.0159 0.0043
C4 0.047 0.027 0.038 0.0073 0.0172 0.011
C5 0.045 0.034 0.039 0.0108 0.0166 0.01
C6 0.048 0.036 0.04 0.0044 0.0155 0.006
C7 0.046 0.033 0.041 -0.0018 0.0125 0.001
C8 0.043 0.04 0.048 0.009 0.019 0.0079
C9 0.045 0.045 0.047 -0.008 0.016 -0.008
C10 0.039 0.044 0.042 0.0044 0.0114 0.0009
C11 0.041 0.044 0.041 -0.0039 0.017 -0.0046
C12 0.038 0.046 0.042 -0.003 0.0154 -0.0007
C13 0.042 0.049 0.032 -0.0013 0.0143 0.0007
C14 0.046 0.051 0.04 0.003 0.016 -0.007
C15 0.039 0.04 0.047 -0.0032 0.0135 0.0012
O1 0.0505 0.0302 0.0407 0.0023 0.0155 -0.0005
O2 0.0502 0.0339 0.0433 0.0016 0.0234 0.0104
O3 0.0504 0.0343 0.0435 0.002 0.0236 0.0115
O4 0.0509 0.0299 0.0455 0.0113 0.0189 0.0149
O5 0.0445 0.0439 0.054 0.0059 0.0194 0.0096
Zn1 0.0417 0.0402 0.0491 -0.0023 0.0173 -0.0062
C1A 0.045(2) 0.028(2) 0.041(2) 0.0000(17) 0.0152(19) -0.0037(17)
C2A 0.042(2) 0.031(2) 0.038(2) -0.0037(17) 0.0119(18) -0.0041(16)
C3A 0.041(2) 0.030(2) 0.035(2) -0.0019(16) 0.0159(18) -0.0043(16)
C4A 0.047(2) 0.027(2) 0.038(2) -0.0073(17) 0.0172(18) -0.0110(18)
C5A 0.045(2) 0.034(2) 0.039(2) -0.0108(17) 0.0166(19) -0.0100(18)
C6A 0.048(2) 0.036(2) 0.040(2) -0.0044(18) 0.0155(19) -0.0060(18)
C7A 0.046(2) 0.033(2) 0.041(2) 0.0018(18) 0.0125(19) -0.0010(17)
C8A 0.043(2) 0.040(2) 0.048(3) -0.009(2) 0.019(2) -0.0079(19)
C9A 0.045(2) 0.045(3) 0.047(3) 0.008(2) 0.016(2) 0.008(2)
C10A 0.039(2) 0.044(2) 0.042(2) -0.0044(19) 0.0114(19) -0.0009(19)
C11A 0.041(2) 0.044(2) 0.041(2) 0.0039(19) 0.0170(19) 0.0046(18)
C12A 0.038(2) 0.046(3) 0.042(2) 0.003(2) 0.0154(19) 0.0007(19)
C13A 0.042(2) 0.049(3) 0.032(2) 0.0013(19) 0.0143(19) -0.0007(19)
C14A 0.046(2) 0.051(3) 0.040(3) -0.003(2) 0.016(2) 0.007(2)
C15A 0.039(2) 0.040(2) 0.047(3) 0.0032(19) 0.0135(19) -0.0012(18)
O1A 0.0505(18) 0.0302(15) 0.0407(17) -0.0023(12) 0.0155(14) 0.0005(12)
O2A 0.0502(17) 0.0339(16) 0.0433(17) -0.0016(13) 0.0234(14) -0.0104(13)
O2E 0.0502 0.0339 0.0433 -0.0016 0.0234 -0.0104
O2D 0.0502 0.0339 0.0433 0.0016 0.0234 0.0104
O3A 0.0504(17) 0.0343(16) 0.0435(17) -0.0020(13) 0.0236(14) -0.0115(13)
O3F 0.0504 0.0343 0.0435 0.002 0.0236 0.0115
O3G 0.0504 0.0343 0.0435 -0.002 0.0236 -0.0115
O4A 0.0509(18) 0.0299(16) 0.0455(18) -0.0113(13) 0.0189(14) -0.0149(13)
O4C 0.0509 0.0299 0.0455 -0.0113 0.0189 -0.0149
O4B 0.0509 0.0299 0.0455 0.0113 0.0189 0.0149
O5A 0.0445(17) 0.0439(18) 0.054(2) -0.0059(15) 0.0194(15) -0.0096(14)
Zn1A 0.0417 0.0402 0.0491 0.0023 0.0173 0.0062
Zn1E 0.0417 0.0402 0.0491 0.0023 0.0173 0.0062
Zn1F 0.0417 0.0402 0.0491 -0.0023 0.0173 -0.0062
Zn1C 0.0417 0.0402 0.0491 0.0023 0.0173 0.0062
Zn1D 0.0417 0.0402 0.0491 -0.0023 0.0173 -0.0062
Zn1G 0.0417(3) 0.0402(3) 0.0491(4) 0.0023(2) 0.0173(2) 0.0062(2)
Zn1B 0.0417 0.0402 0.0491 -0.0023 0.0173 -0.0062
loop_
_geom_bond_atom_site_label_1
_geom_bond_atom_site_label_2
_geom_bond_site_symmetry_1
_geom_bond_site_symmetry_2
C1 C2 1_555 1_555
C2 C3 1_555 1_555
C3 H1 1_555 1_555
C4 C3 1_555 1_555
C5 C4 1_555 1_555
H2 C5 1_555 1_555
C6 C5 1_555 1_555
C7 C2 1_555 1_555
H3 C7 1_555 1_555
C8 C4 1_555 1_555
C9 H4 1_555 1_555
H5 C9 1_555 1_555
C10 C9 1_555 1_555
C11 C10 1_555 1_555
H6 C11 1_555 1_555
C12 C11 1_555 1_555
H7 C12 1_555 1_555
C13 C12 1_555 1_555
C14 C13 1_555 1_555
H8 C14 1_555 1_555
C15 C10 1_555 1_555
H9 C15 1_555 1_555
O1 C1 1_555 1_555
O2 C1 1_555 1_555
O3 C8 1_555 1_555
O4 C8 1_555 1_555
O5 C6 1_555 1_555
Zn1 O1 1_555 1_555
C1A C2A 1_555 1_555
C2A C3A 1_555 1_555
C3A H1A 1_555 1_555
C4A C3A 1_555 1_555
C5A C4A 1_555 1_555
H2A C5A 1_555 1_555
C6A C5A 1_555 1_555
C7A C2A 1_555 1_555
H3A C7A 1_555 1_555
C8A C4A 1_555 1_555
C9A H4A 1_555 1_555
H5A C9A 1_555 1_555
C10A C9A 1_555 1_555
C11A C10A 1_555 1_555
H6A C11A 1_555 1_555
C12A C11A 1_555 1_555
H7A C12A 1_555 1_555
C13A C13 1_555 1_555
C14A C13A 1_555 1_555
H8A C14A 1_555 1_555
C15A C10A 1_555 1_555
H9A C15A 1_555 1_555
O1A C1A 1_555 1_555
O2A C1A 1_555 1_555
O2E Zn1 1_555 1_555
O2D Zn1A 1_555 1_555
O3A C8A 1_555 1_555
O3F Zn1 1_555 1_555
O3G Zn1A 1_555 1_555
O4A C8A 1_555 1_555
O4C Zn1 1_555 1_555
O4B Zn1A 1_555 1_555
O5A C6A 1_555 1_555
Zn1A O1A 1_555 1_555
Zn1E O2 1_555 1_555
Zn1F O3 1_555 1_555
Zn1C O4 1_555 1_555
Zn1D O2A 1_555 1_555
Zn1G O3A 1_555 1_555
Zn1B O4A 1_555 1_555
C6 C7 1_555 1_555
C9 O5 1_555 1_555
C14 C15 1_555 1_555
C6A C7A 1_555 1_555
C9A O5A 1_555 1_555
C12A C13A 1_555 1_555
C14A C15A 1_555 1_555

#END
