
#######################################################################
#
#                 Cambridge Crystallographic Data Centre
#                                CCDC 
#
#######################################################################
#
# If this CIF has been generated from an entry in the Cambridge 
# Structural Database, then it will include bibliographic, chemical, 
# crystal, experimental, refinement or atomic coordinate data resulting 
# from the CCDC's data processing and validation procedures.
#
#######################################################################

data_HOFMAS
_chemical_formula_moiety         '(C38 H44 N12 O10 Zn2)n'
_symmetry_cell_setting           monoclinic
_symmetry_space_group_name_H-M   'C 2/c'
_symmetry_Int_Tables_number      15
_space_group_name_Hall           '-C 2yc'
loop_
_symmetry_equiv_pos_site_id
_symmetry_equiv_pos_as_xyz
1 x,y,z
2 -x,y,1/2-z
3 1/2+x,1/2+y,z
4 1/2-x,1/2+y,1/2-z
5 -x,-y,-z
6 x,-y,1/2+z
7 1/2-x,1/2-y,-z
8 1/2+x,1/2-y,1/2+z
_cell_length_a                   19.6850(18)
_cell_length_b                   14.3320(12)
_cell_length_c                   16.9300(15)
_cell_angle_alpha                90
_cell_angle_beta                 121.205(2)
_cell_angle_gamma                90
_cell_volume                     4085.33
loop_
_atom_site_label
_atom_site_type_symbol
_atom_site_fract_x
_atom_site_fract_y
_atom_site_fract_z
_atom_site_U_iso_or_equiv
_atom_site_thermal_displace_type
Zn1 Zn 0.24322(5) 0.43239(5) 0.36807(6) 0.0311 Uani
N1 N 0.2433(3) 0.4947(4) 0.2561(4) 0.0321 Uani
N2 N 0.0353(5) 0.4556(6) 0.3728(5) 0.0559 Uani
N3 N 0.1444(4) 0.4184(4) 0.3761(5) 0.0417 Uani
N4 N 0.4724(4) 0.4856(6) 0.5891(5) 0.0564 Uani
N5 N 0.3570(4) 0.4329(4) 0.4793(5) 0.0453 Uani
O1 O 0.2394(3) 0.5795(3) 0.3926(4) 0.0387 Uani
O2 O 0.2361(4) 0.7192(4) 0.3357(5) 0.0615 Uani
O3 O 0.3565(4) 0.7644(4) 0.2858(4) 0.0557 Uani
O4 O 0.2413(3) 0.7960(3) 0.1550(4) 0.0470 Uani
C1 C 0.2420(5) 0.6352(6) 0.3364(6) 0.0418 Uani
C2 C 0.2903(5) 0.7412(5) 0.2173(6) 0.0384 Uani
C3 C 0.2508(4) 0.5849(4) 0.2629(5) 0.0266 Uani
C4 C 0.2688(4) 0.6391(5) 0.2031(5) 0.0348 Uani
C5 C 0.2669(5) 0.5903(6) 0.1316(5) 0.0407 Uani
H1 H 0.2741 0.6219 0.0885 0.0490 Uiso
C6 C 0.2545(4) 0.4960(5) 0.1234(5) 0.0366 Uani
H2 H 0.2536 0.4646 0.0747 0.0440 Uiso
C7 C 0.2436(5) 0.4470(5) 0.1849(5) 0.0336 Uani
H3 H 0.2365 0.3827 0.1793 0.0400 Uiso
C8 C 0.1005(5) 0.4877(7) 0.3775(6) 0.0508 Uani
H4 H 0.1137 0.5505 0.3814 0.0610 Uiso
C9 C 0.1049(6) 0.3392(7) 0.3715(7) 0.0603 Uani
H5 H 0.1216 0.2790 0.3692 0.0720 Uiso
C10 C 0.0380(6) 0.3605(8) 0.3707(7) 0.0707 Uani
H6 H 0.0011 0.3189 0.3691 0.0850 Uiso
C11 C -0.0261(6) 0.5138(8) 0.3730(7) 0.0686 Uani
H7 H -0.0767 0.5011 0.3172 0.0820 Uiso
H8 H -0.0134 0.5789 0.3714 0.0820 Uiso
C12 C -0.0346(6) 0.4983(9) 0.4551(7) 0.0756 Uani
H9 H -0.0716 0.5445 0.4528 0.0910 Uiso
H10 H -0.0591 0.4376 0.4480 0.0910 Uiso
C13 C 0.3968(5) 0.5070(6) 0.5263(6) 0.0506 Uani
H11 H 0.3753 0.5666 0.5171 0.0600 Uiso
C14 C 0.4097(6) 0.3623(7) 0.5145(6) 0.0660 Uani
H12 H 0.3989 0.3011 0.4933 0.0790 Uiso
C15 C 0.4803(6) 0.3926(8) 0.5847(7) 0.0720 Uani
H13 H 0.5252 0.3568 0.6223 0.0860 Uiso
C16 C 0.5303(6) 0.5508(8) 0.6573(7) 0.0661 Uani
H14 H 0.5131 0.6143 0.6368 0.0790 Uiso
H15 H 0.5813 0.5418 0.6625 0.0790 Uiso
C17 C 0.5394(5) 0.5365(8) 0.7515(7) 0.0633 Uani
H16 H 0.5728 0.5857 0.7928 0.0770 Uiso
H17 H 0.5661 0.4775 0.7769 0.0770 Uiso
N2D N -0.0353(5) 0.5444(6) 0.6272(5) 0.0559 Uani
N3D N -0.1444(4) 0.5816(4) 0.6239(5) 0.0417 Uani
C8D C -0.1005(5) 0.5123(7) 0.6225(6) 0.0508 Uani
H4D H -0.1137 0.4495 0.6186 0.0610 Uiso
C9D C -0.1049(6) 0.6608(7) 0.6285(7) 0.0603 Uani
H5D H -0.1216 0.7210 0.6308 0.0720 Uiso
C10D C -0.0380(6) 0.6395(8) 0.6293(7) 0.0707 Uani
H6D H -0.0011 0.6811 0.6309 0.0850 Uiso
C11D C 0.0261(6) 0.4862(8) 0.6270(7) 0.0686 Uani
H7D H 0.0767 0.4989 0.6828 0.0820 Uiso
H8D H 0.0134 0.4211 0.6286 0.0820 Uiso
C12D C 0.0346(6) 0.5017(9) 0.5449(7) 0.0756 Uani
H9D H 0.0716 0.4555 0.5472 0.0910 Uiso
H10D H 0.0591 0.5624 0.5520 0.0910 Uiso
N4A N 0.5276(4) 0.4856(6) 0.9109(5) 0.0564 Uani
N5A N 0.6430(4) 0.4329(4) 1.0207(5) 0.0453 Uani
C13A C 0.6032(5) 0.5070(6) 0.9737(6) 0.0506 Uani
H11A H 0.6247 0.5666 0.9829 0.0600 Uiso
C14A C 0.5903(6) 0.3623(7) 0.9855(6) 0.0660 Uani
H12A H 0.6011 0.3011 1.0067 0.0790 Uiso
C15A C 0.5197(6) 0.3926(8) 0.9153(7) 0.0720 Uani
H13A H 0.4748 0.3568 0.8777 0.0860 Uiso
C16A C 0.4697(6) 0.5508(8) 0.8427(7) 0.0661 Uani
H14A H 0.4869 0.6143 0.8632 0.0790 Uiso
H15A H 0.4187 0.5418 0.8375 0.0790 Uiso
C17A C 0.4606(5) 0.5365(8) 0.7485(7) 0.0633 Uani
H16A H 0.4272 0.5857 0.7072 0.0770 Uiso
H17A H 0.4339 0.4775 0.7231 0.0770 Uiso
Zn1A Zn 0.75678(5) 0.43239(5) 1.13193(6) 0.0311 Uani
N1A N 0.7567(3) 0.4947(4) 1.2439(4) 0.0321 Uani
O1A O 0.7606(3) 0.5795(3) 1.1074(4) 0.0387 Uani
O2A O 0.7639(4) 0.7192(4) 1.1643(5) 0.0615 Uani
O3A O 0.6435(4) 0.7644(4) 1.2142(4) 0.0557 Uani
O4A O 0.7587(3) 0.7960(3) 1.3450(4) 0.0470 Uani
C1A C 0.7580(5) 0.6352(6) 1.1636(6) 0.0418 Uani
C2A C 0.7097(5) 0.7412(5) 1.2827(6) 0.0384 Uani
C3A C 0.7492(4) 0.5849(4) 1.2371(5) 0.0266 Uani
C4A C 0.7312(4) 0.6391(5) 1.2969(5) 0.0348 Uani
C5A C 0.7331(5) 0.5903(6) 1.3684(5) 0.0407 Uani
H1A H 0.7259 0.6219 1.4115 0.0490 Uiso
C6A C 0.7455(4) 0.4960(5) 1.3766(5) 0.0366 Uani
H2A H 0.7464 0.4646 1.4253 0.0440 Uiso
C7A C 0.7564(5) 0.4470(5) 1.3151(5) 0.0336 Uani
H3A H 0.7635 0.3827 1.3207 0.0400 Uiso
Zn1B Zn 0.74322(5) 0.93239(5) 1.36807(6) 0.0311 Uani
Zn1C Zn 0.25678(5) 0.93239(5) 0.13193(6) 0.0311 Uani
Zn1D Zn -0.24322(5) 0.56761(5) 0.63193(6) 0.0311 Uani
N3A N 0.8556(4) 0.4184(4) 1.1239(5) 0.0417 Uani
O4B O 0.7413(3) 0.2960(3) 1.1550(4) 0.0470 Uani
O4C O 0.2587(3) 0.2960(3) 0.3450(4) 0.0470 Uani
N6 N 0.1654(14) 0.7824(14) 0.4342(14) 0.0882 Uani
C18 C 0.1105(15) 0.7467(17) 0.3711(18) 0.0762 Uani
C19 C 0.0464(13) 0.7096(14) 0.2790(16) 0.0795 Uani
H18 H 0.0381 0.7509 0.2302 0.1190 Uiso
H19 H -0.0020 0.7037 0.2795 0.1190 Uiso
H20 H 0.0622 0.6493 0.2693 0.1190 Uiso
O5 O 0.4222(6) 0.7534(7) 0.4840(7) 0.1214 Uani
H21 H 0.3970 0.7552 0.4254 0.1460 Uiso
H22 H 0.3894 0.7422 0.5013 0.1460 Uiso
O6 O 0.0824(7) 0.7273(7) 0.1390(8) 0.1421 Uani
H23 H 0.1202 0.7495 0.1342 0.1700 Uiso
H24 H 0.0388 0.7382 0.0892 0.1700 Uiso
N6A N -0.1654(14) 0.7824(14) 0.0658(14) 0.0882 Uani
C18A C -0.1105(15) 0.7467(17) 0.1289(18) 0.0762 Uani
C19A C -0.0464(13) 0.7096(14) 0.2210(16) 0.0795 Uani
H18A H -0.0381 0.7509 0.2698 0.1190 Uiso
H19A H 0.0020 0.7037 0.2205 0.1190 Uiso
H20A H -0.0622 0.6493 0.2307 0.1190 Uiso
loop_
_atom_site_aniso_label
_atom_site_aniso_U_11
_atom_site_aniso_U_22
_atom_site_aniso_U_33
_atom_site_aniso_U_23
_atom_site_aniso_U_13
_atom_site_aniso_U_12
Zn1 0.0413(6) 0.0245(5) 0.0335(6) 0.0004(3) 0.0237(4) -0.0006(3)
N1 0.043(3) 0.025(3) 0.036(3) -0.002(2) 0.026(3) -0.001(3)
N2 0.049(5) 0.082(6) 0.052(4) -0.011(4) 0.037(4) -0.004(4)
N3 0.047(4) 0.039(4) 0.047(4) -0.008(3) 0.030(4) -0.005(3)
N4 0.042(4) 0.073(5) 0.045(4) -0.001(4) 0.016(4) -0.009(4)
N5 0.048(4) 0.044(4) 0.043(4) -0.002(3) 0.023(4) 0.001(3)
O1 0.056(4) 0.033(3) 0.040(3) 0.007(2) 0.034(3) 0.003(2)
O2 0.102(5) 0.028(3) 0.084(4) -0.004(3) 0.069(4) 0.002(3)
O3 0.052(4) 0.048(4) 0.058(4) 0.004(3) 0.022(3) -0.008(3)
O4 0.057(4) 0.029(3) 0.053(3) 0.007(3) 0.027(3) 0.002(3)
C1 0.049(5) 0.041(5) 0.050(5) 0.000(4) 0.036(4) 0.002(4)
C2 0.046(5) 0.035(4) 0.049(5) 0.002(4) 0.035(4) -0.001(3)
C3 0.031(4) 0.026(3) 0.028(3) 0.000(3) 0.019(3) 0.008(3)
C4 0.040(4) 0.033(4) 0.036(4) 0.002(3) 0.023(3) 0.003(3)
C5 0.050(5) 0.039(4) 0.044(5) 0.008(3) 0.032(4) -0.001(3)
C6 0.048(5) 0.032(4) 0.038(4) 0.003(3) 0.028(4) 0.004(3)
C7 0.040(4) 0.024(4) 0.037(4) 0.006(3) 0.020(4) 0.000(3)
C8 0.059(5) 0.060(6) 0.050(5) -0.001(4) 0.040(5) 0.001(4)
C9 0.063(6) 0.055(5) 0.084(7) -0.024(5) 0.053(6) -0.016(5)
C10 0.062(6) 0.089(8) 0.085(7) -0.027(6) 0.055(6) -0.022(6)
C11 0.058(6) 0.094(8) 0.060(6) -0.001(5) 0.035(5) 0.018(6)
C12 0.063(6) 0.114(9) 0.064(6) -0.013(7) 0.043(5) 0.017(7)
C13 0.051(5) 0.053(5) 0.041(5) 0.001(4) 0.019(4) -0.005(4)
C14 0.059(6) 0.055(6) 0.055(6) -0.009(5) 0.009(5) 0.014(5)
C15 0.056(6) 0.073(7) 0.060(6) -0.004(6) 0.011(5) 0.014(5)
C16 0.049(6) 0.080(7) 0.053(6) -0.002(5) 0.015(5) -0.014(5)
C17 0.044(5) 0.084(7) 0.046(5) 0.000(5) 0.012(5) -0.001(5)
N2D 0.049 0.082 0.052 -0.011 0.037 -0.004
N3D 0.047 0.039 0.047 -0.008 0.03 -0.005
C8D 0.059 0.06 0.05 -0.001 0.04 0.001
C9D 0.063 0.055 0.084 -0.024 0.053 -0.016
C10D 0.062 0.089 0.085 -0.027 0.055 -0.022
C11D 0.058 0.094 0.06 -0.001 0.035 0.018
C12D 0.063 0.114 0.064 -0.013 0.043 0.017
N4A 0.042 0.073 0.045 0.001 0.016 0.009
N5A 0.048 0.044 0.043 0.002 0.023 -0.001
C13A 0.051 0.053 0.041 -0.001 0.019 0.005
C14A 0.059 0.055 0.055 0.009 0.009 -0.014
C15A 0.056 0.073 0.06 0.004 0.011 -0.014
C16A 0.049 0.08 0.053 0.002 0.015 0.014
C17A 0.044 0.084 0.046 0 0.012 0.001
Zn1A 0.0413 0.0245 0.0335 -0.0004 0.0237 0.0006
N1A 0.043 0.025 0.036 0.002 0.026 0.001
O1A 0.056 0.033 0.04 -0.007 0.034 -0.003
O2A 0.102 0.028 0.084 0.004 0.069 -0.002
O3A 0.052 0.048 0.058 -0.004 0.022 0.008
O4A 0.057 0.029 0.053 -0.007 0.027 -0.002
C1A 0.049 0.041 0.05 0 0.036 -0.002
C2A 0.046 0.035 0.049 -0.002 0.035 0.001
C3A 0.031 0.026 0.028 0 0.019 -0.008
C4A 0.04 0.033 0.036 -0.002 0.023 -0.003
C5A 0.05 0.039 0.044 -0.008 0.032 0.001
C6A 0.048 0.032 0.038 -0.003 0.028 -0.004
C7A 0.04 0.024 0.037 -0.006 0.02 0
Zn1B 0.0413 0.0245 0.0335 0.0004 0.0237 -0.0006
Zn1C 0.0413 0.0245 0.0335 -0.0004 0.0237 0.0006
Zn1D 0.0413 0.0245 0.0335 0.0004 0.0237 -0.0006
N3A 0.047 0.039 0.047 0.008 0.03 0.005
O4B 0.057 0.029 0.053 0.007 0.027 0.002
O4C 0.057 0.029 0.053 -0.007 0.027 -0.002
N6 0.113(17) 0.094(15) 0.076(13) -0.013(11) 0.062(13) 0.043(13)
C18 0.077(16) 0.076(15) 0.076(17) 0.004(13) 0.040(14) 0.015(13)
C19 0.084(16) 0.071(14) 0.082(16) 0.011(12) 0.042(14) 0.011(11)
O5 0.111(8) 0.146(9) 0.087(7) -0.002(6) 0.037(6) -0.010(7)
O6 0.120(9) 0.128(9) 0.119(9) 0.013(7) 0.020(7) 0.001(7)
N6A 0.113 0.094 0.076 0.013 0.062 -0.043
C18A 0.077 0.076 0.076 -0.004 0.04 -0.015
C19A 0.084 0.071 0.082 -0.011 0.042 -0.011
loop_
_geom_bond_atom_site_label_1
_geom_bond_atom_site_label_2
_geom_bond_site_symmetry_1
_geom_bond_site_symmetry_2
Zn1 N1 1_555 1_555
N1 C3 1_555 1_555
N2 C8 1_555 1_555
N3 Zn1 1_555 1_555
N4 C13 1_555 1_555
N5 Zn1 1_555 1_555
O1 Zn1 1_555 1_555
O2 C1 1_555 1_555
O3 C2 1_555 1_555
O4 C2 1_555 1_555
C1 O1 1_555 1_555
C2 C4 1_555 1_555
C3 C1 1_555 1_555
C4 C3 1_555 1_555
C5 C4 1_555 1_555
H1 C5 1_555 1_555
C6 C5 1_555 1_555
H2 C6 1_555 1_555
C7 N1 1_555 1_555
H3 C7 1_555 1_555
C8 N3 1_555 1_555
H4 C8 1_555 1_555
C9 N3 1_555 1_555
H5 C9 1_555 1_555
C10 N2 1_555 1_555
H6 C10 1_555 1_555
C11 N2 1_555 1_555
H7 C11 1_555 1_555
H8 C11 1_555 1_555
C12 C11 1_555 1_555
H9 C12 1_555 1_555
H10 C12 1_555 1_555
C13 N5 1_555 1_555
H11 C13 1_555 1_555
C14 N5 1_555 1_555
H12 C14 1_555 1_555
C15 N4 1_555 1_555
H13 C15 1_555 1_555
C16 N4 1_555 1_555
H14 C16 1_555 1_555
H15 C16 1_555 1_555
C17 C16 1_555 1_555
H16 C17 1_555 1_555
H17 C17 1_555 1_555
N6 C18 1_555 1_555
C18 C19 1_555 1_555
C19 H18 1_555 1_555
H19 C19 1_555 1_555
H20 C19 1_555 1_555
O5 H21 1_555 1_555
H22 O5 1_555 1_555
O6 H23 1_555 1_555
H24 O6 1_555 1_555
N2D C8D 1_555 1_555
N3D C8D 1_555 1_555
C8D H4D 1_555 1_555
C9D N3D 1_555 1_555
H5D C9D 1_555 1_555
C10D N2D 1_555 1_555
H6D C10D 1_555 1_555
C11D N2D 1_555 1_555
H7D C11D 1_555 1_555
H8D C11D 1_555 1_555
C12D C12 1_555 1_555
H9D C12D 1_555 1_555
H10D C12D 1_555 1_555
N4A C13A 1_555 1_555
N5A C13A 1_555 1_555
C13A H11A 1_555 1_555
C14A N5A 1_555 1_555
H12A C14A 1_555 1_555
C15A N4A 1_555 1_555
H13A C15A 1_555 1_555
C16A N4A 1_555 1_555
H14A C16A 1_555 1_555
H15A C16A 1_555 1_555
C17A C17 1_555 1_555
H16A C17A 1_555 1_555
H17A C17A 1_555 1_555
Zn1A N5A 1_555 1_555
N1A Zn1A 1_555 1_555
O1A Zn1A 1_555 1_555
O2A C1A 1_555 1_555
O3A C2A 1_555 1_555
O4A C2A 1_555 1_555
C1A O1A 1_555 1_555
C2A C4A 1_555 1_555
C3A N1A 1_555 1_555
C4A C3A 1_555 1_555
C5A C4A 1_555 1_555
H1A C5A 1_555 1_555
C6A C5A 1_555 1_555
H2A C6A 1_555 1_555
C7A N1A 1_555 1_555
H3A C7A 1_555 1_555
Zn1B O4A 1_555 1_555
Zn1C O4 1_555 1_555
Zn1D N3D 1_555 1_555
N3A Zn1A 1_555 1_555
O4B Zn1A 1_555 1_555
O4C Zn1 1_555 1_555
N6A C18A 1_555 1_555
C18A C19A 1_555 1_555
C19A H18A 1_555 1_555
H19A C19A 1_555 1_555
H20A C19A 1_555 1_555
C6 C7 1_555 1_555
C9 C10 1_555 1_555
C14 C15 1_555 1_555
C9D C10D 1_555 1_555
C11D C12D 1_555 1_555
C14A C15A 1_555 1_555
C16A C17A 1_555 1_555
C1A C3A 1_555 1_555
C6A C7A 1_555 1_555

#END
