
#######################################################################
#
#                 Cambridge Crystallographic Data Centre
#                                CCDC 
#
#######################################################################
#
# If this CIF has been generated from an entry in the Cambridge 
# Structural Database, then it will include bibliographic, chemical, 
# crystal, experimental, refinement or atomic coordinate data resulting 
# from the CCDC's data processing and validation procedures.
#
#######################################################################

data_JETZAK
_chemical_formula_moiety         '(C54 H52 Mg3 N4 O16)n'
_symmetry_cell_setting           monoclinic
_symmetry_space_group_name_H-M   'P 21/c'
_symmetry_Int_Tables_number      14
_space_group_name_Hall           '-P 2ybc'
loop_
_symmetry_equiv_pos_site_id
_symmetry_equiv_pos_as_xyz
1 x,y,z
2 -x,1/2+y,1/2-z
3 -x,-y,-z
4 x,1/2-y,1/2+z
_cell_length_a                   11.4299(3)
_cell_length_b                   26.9980(8)
_cell_length_c                   11.3918(3)
_cell_angle_alpha                90
_cell_angle_beta                 94.283(1)
_cell_angle_gamma                90
_cell_volume                     3505.52
loop_
_atom_site_label
_atom_site_type_symbol
_atom_site_fract_x
_atom_site_fract_y
_atom_site_fract_z
Mg1 Mg 1.0000 0.5000 0.0000
Mg2 Mg 0.75003(7) 0.53828(3) 0.13974(7)
O1 O 0.60232(18) 0.57580(8) 0.16854(19)
O2 O 0.71601(19) 0.46547(8) 0.1883(2)
O3 O 0.89033(14) 0.48295(6) 0.13314(14)
O4 O 1.1581(4) 0.0974(2) 0.423(3)
O6 O 0.69096(16) 0.52413(8) -0.02665(16)
O7 O 0.7962(15) 0.5416(13) 0.3234(12)
O9 O 0.97844(16) 0.07306(6) 0.43688(15)
O10 O 0.85731(14) 0.51687(7) -0.11752(14)
C1 C 0.7485(2) 0.51902(11) -0.1158(2)
C2 C 0.6762(5) 0.5078(3) -0.2320(4)
C3 C 0.5601(6) 0.5235(3) -0.2415(6)
H1 H 0.5280 0.5395 -0.1769
C4 C 0.4910(4) 0.5160(3) -0.3456(6)
H2 H 0.4117 0.5267 -0.3521
C5 C 0.5380(4) 0.4926(4) -0.4402(4)
C6 C 0.6541(4) 0.4769(5) -0.4306(4)
H3 H 0.6862 0.4609 -0.4953
C7 C 0.7232(3) 0.4844(5) -0.3265(4)
H4 H 0.8025 0.4737 -0.3200
C14 C 0.8186(2) 0.45224(10) 0.1715(2)
C15 C 0.8547(2) 0.40031(10) 0.2006(3)
C16 C 0.7708(3) 0.36735(14) 0.2352(5)
H9 H 0.6919 0.3780 0.2385
C17 C 0.8009(3) 0.31890(14) 0.2650(5)
H10 H 0.7423 0.2967 0.2879
C18 C 0.9151(2) 0.30268(10) 0.2618(3)
C19 C 0.9988(2) 0.33606(9) 0.2268(2)
H11 H 1.0777 0.3254 0.2234
C20 C 0.9692(2) 0.38452(9) 0.1968(2)
H12 H 1.0276 0.4068 0.1737
C21 C 0.9477(2) 0.25130(9) 0.2969(2)
C22 C 0.8749(8) 0.2084(3) 0.2590(8)
H13 H 0.8079 0.2121 0.2052
C23 C 0.9075(7) 0.1621(3) 0.3050(8)
H14 H 0.8556 0.1349 0.2911
C24 C 1.0099(2) 0.15475(9) 0.3680(2)
C25 C 1.0801(8) 0.1964(3) 0.4059(8)
H15 H 1.1475 0.1922 0.4590
C26 C 1.0481(8) 0.2435(3) 0.3637(8)
H16 H 1.0986 0.2708 0.3827
C31 C 1.0506(2) 0.10370(9) 0.4061(3)
C32 C 0.5142(3) 0.58019(15) 0.1086(4)
C33 C 0.4335(9) 0.6469(6) 0.2179(15)
H21 H 0.3704 0.6392 0.2687
H22 H 0.4227 0.6806 0.1866
H23 H 0.5094 0.6447 0.2636
C34 C 0.3244(5) 0.6096(2) 0.0555(8)
H24 H 0.3383 0.5937 -0.0196
H25 H 0.2919 0.6428 0.0408
H26 H 0.2688 0.5896 0.0969
C35 C 0.7546(8) 0.5681(4) 0.3969(8)
H27 H 0.6755 0.5786 0.3822
N1 N 0.4306(4) 0.61322(19) 0.1249(5)
N2 N 0.8156(8) 0.5839(4) 0.5008(8)
C37 C 0.7550(12) 0.6147(6) 0.5794(11)
H29 H 0.7763 0.6494 0.5680
H30 H 0.7772 0.6049 0.6610
H31 H 0.6702 0.6106 0.5630
C38 C 0.9271(15) 0.5622(7) 0.5107(17)
H32 H 0.9305 0.5372 0.5731
H33 H 0.9864 0.5878 0.5301
H34 H 0.9427 0.5466 0.4358
Mg1C Mg 1.0000 0.0000 0.5000
Mg1_2 Mg 0.0000 0.5000 -1.0000
Mg1C_2 Mg 1.0000 1.0000 -0.5000
Mg2B Mg 1.24997(7) 0.46172(3) -0.13974(7)
Mg2A Mg 1.24997(7) 0.03828(3) 0.36026(7)
Mg2B_2 Mg 0.24997(7) 0.46172(3) -1.13974(7)
Mg2C Mg 0.75003(7) 0.96172(3) -0.36026(7)
O1B O 1.39768(18) 0.42420(8) -0.16854(19)
O2B O 1.28399(19) 0.53453(8) -0.1883(2)
O3B O 1.10967(14) 0.51705(6) -0.13314(14)
O4B O 0.8419(4) 0.9026(2) -0.423(3)
O4A O 0.8419(4) 0.5974(2) 0.077(3)
O4C O 1.1581(4) 0.4026(2) -0.077(3)
O6B O 0.30904(16) 0.47587(8) -0.97335(16)
O6B_2 O 1.30904(16) 0.47587(8) 0.02665(16)
O7B O 1.2038(15) 0.4584(13) -0.3234(12)
O9B O 1.02156(16) 0.92694(6) -0.43688(15)
O9C O 0.97844(16) 0.42694(6) -0.06312(15)
O9A O 1.02156(16) 0.57306(6) 0.06312(15)
O10B O 0.14269(14) 0.48313(7) -0.88248(14)
O10B_2 O 1.14269(14) 0.48313(7) 0.11752(14)
C1B C 0.2515(2) 0.48098(11) -0.8842(2)
C2B C 0.3238(5) 0.4922(3) -0.7680(4)
C3B C 0.4399(6) 0.4765(3) -0.7585(6)
H1B H 0.4720 0.4605 -0.8231
C4B C 0.5090(4) 0.4840(3) -0.6544(6)
H2B H 0.5883 0.4733 -0.6479
C5B C 0.4620(4) 0.5074(4) -0.5598(4)
C6B C 0.3459(4) 0.5231(5) -0.5694(4)
H3B H 0.3138 0.5391 -0.5047
C7B C 0.2768(3) 0.5156(5) -0.6735(4)
H4B H 0.1975 0.5263 -0.6800
C14B C 1.1814(2) 0.54776(10) -0.1715(2)
C15B C 1.1453(2) 0.59969(10) -0.2006(3)
C16B C 1.2292(3) 0.63265(14) -0.2352(5)
H9B H 1.3081 0.6220 -0.2385
C17B C 1.1991(3) 0.68110(14) -0.2650(5)
H10B H 1.2577 0.7033 -0.2879
C18B C 1.0849(2) 0.69732(10) -0.2618(3)
C19B C 1.0012(2) 0.66394(9) -0.2268(2)
H11B H 0.9223 0.6746 -0.2234
C20B C 1.0308(2) 0.61548(9) -0.1968(2)
H12B H 0.9724 0.5932 -0.1737
C21B C 1.0523(2) 0.74870(9) -0.2969(2)
C22B C 1.1251(8) 0.7916(3) -0.2590(8)
H13B H 1.1921 0.7879 -0.2052
C23B C 1.0925(7) 0.8379(3) -0.3050(8)
H14B H 1.1444 0.8651 -0.2911
C24B C 0.9901(2) 0.84525(9) -0.3680(2)
C25B C 0.9199(8) 0.8036(3) -0.4059(8)
H15B H 0.8525 0.8078 -0.4590
C26B C 0.9519(8) 0.7565(3) -0.3637(8)
H16B H 0.9014 0.7292 -0.3827
C31B C 0.9494(2) 0.89630(9) -0.4061(3)
C32B C 1.4858(3) 0.41981(15) -0.1086(4)
C33B C 1.5665(9) 0.3531(6) -0.2179(15)
H21B H 1.6296 0.3608 -0.2687
H22B H 1.5773 0.3194 -0.1866
H23B H 1.4906 0.3553 -0.2636
C34B C 1.6756(5) 0.3904(2) -0.0555(8)
H24B H 1.6617 0.4063 0.0196
H25B H 1.7081 0.3572 -0.0408
H26B H 1.7312 0.4104 -0.0969
C35B C 1.2454(8) 0.4319(4) -0.3969(8)
H27B H 1.3245 0.4214 -0.3822
N1B N 1.5694(4) 0.38678(19) -0.1249(5)
N2B N 1.1844(8) 0.4161(4) -0.5008(8)
C37B C 1.2450(12) 0.3853(6) -0.5794(11)
H29B H 1.2237 0.3506 -0.5680
H30B H 1.2228 0.3951 -0.6610
H31B H 1.3298 0.3894 -0.5630
C38B C 1.0729(15) 0.4378(7) -0.5107(17)
H32B H 1.0695 0.4628 -0.5731
H33B H 1.0136 0.4122 -0.5301
H34B H 1.0573 0.4534 -0.4358
loop_
_geom_bond_atom_site_label_1
_geom_bond_atom_site_label_2
_geom_bond_site_symmetry_1
_geom_bond_site_symmetry_2
Mg1 O3 1_555 1_555
Mg2 O1 1_555 1_555
O1 C32 1_555 1_555
O2 Mg2 1_555 1_555
O3 C14 1_555 1_555
O4 C31 1_555 1_555
O6 Mg2 1_555 1_555
O7 Mg2 1_555 1_555
O9 C31 1_555 1_555
O10 Mg1 1_555 1_555
C1 O6 1_555 1_555
C2 C1 1_555 1_555
C3 C2 1_555 1_555
H1 C3 1_555 1_555
C4 C3 1_555 1_555
H2 C4 1_555 1_555
C5 C4 1_555 1_555
C6 C5 1_555 1_555
H3 C6 1_555 1_555
C7 C2 1_555 1_555
H4 C7 1_555 1_555
C14 O2 1_555 1_555
C15 C14 1_555 1_555
C16 C15 1_555 1_555
H9 C16 1_555 1_555
C17 C16 1_555 1_555
H10 C17 1_555 1_555
C18 C17 1_555 1_555
C19 C18 1_555 1_555
H11 C19 1_555 1_555
C20 C15 1_555 1_555
H12 C20 1_555 1_555
C21 C18 1_555 1_555
C22 C21 1_555 1_555
H13 C22 1_555 1_555
C23 C22 1_555 1_555
H14 C23 1_555 1_555
C24 C23 1_555 1_555
C25 C24 1_555 1_555
H15 C25 1_555 1_555
C26 C21 1_555 1_555
H16 C26 1_555 1_555
C31 C24 1_555 1_555
C32 N1 1_555 1_555
C33 H21 1_555 1_555
H22 C33 1_555 1_555
H23 C33 1_555 1_555
C34 H24 1_555 1_555
H25 C34 1_555 1_555
H26 C34 1_555 1_555
C35 O7 1_555 1_555
H27 C35 1_555 1_555
N1 C33 1_555 1_555
N2 C35 1_555 1_555
C37 N2 1_555 1_555
H29 C37 1_555 1_555
H30 C37 1_555 1_555
H31 C37 1_555 1_555
C38 N2 1_555 1_555
H32 C38 1_555 1_555
H33 C38 1_555 1_555
H34 C38 1_555 1_555
Mg1C O9 1_555 1_555
Mg1_2 O10B 1_555 1_555
Mg1C_2 O9B 1_555 1_555
Mg2B O1B 1_555 1_555
Mg2A O4 1_555 1_555
Mg2B_2 O6B 1_555 1_555
Mg2C O4B 1_555 1_555
O1B C32B 1_555 1_555
O2B Mg2B 1_555 1_555
O3B Mg1 1_555 1_555
O4B C31B 1_555 1_555
O4A Mg2 1_555 1_555
O4C Mg2B 1_555 1_555
O6B C1B 1_555 1_555
O6B_2 Mg2B 1_555 1_555
O7B Mg2B 1_555 1_555
O9B C31B 1_555 1_555
O9C Mg1 1_555 1_555
O9A Mg1 1_555 1_555
O10B C1B 1_555 1_555
O10B_2 Mg1 1_555 1_555
C1B C2B 1_555 1_555
C2B C3B 1_555 1_555
C3B H1B 1_555 1_555
C4B C3B 1_555 1_555
H2B C4B 1_555 1_555
C5B C5 1_555 1_555
C6B C5B 1_555 1_555
H3B C6B 1_555 1_555
C7B C2B 1_555 1_555
H4B C7B 1_555 1_555
C14B O2B 1_555 1_555
C15B C14B 1_555 1_555
C16B C15B 1_555 1_555
H9B C16B 1_555 1_555
C17B C16B 1_555 1_555
H10B C17B 1_555 1_555
C18B C17B 1_555 1_555
C19B C18B 1_555 1_555
H11B C19B 1_555 1_555
C20B C15B 1_555 1_555
H12B C20B 1_555 1_555
C21B C18B 1_555 1_555
C22B C21B 1_555 1_555
H13B C22B 1_555 1_555
C23B C22B 1_555 1_555
H14B C23B 1_555 1_555
C24B C23B 1_555 1_555
C25B C24B 1_555 1_555
H15B C25B 1_555 1_555
C26B C21B 1_555 1_555
H16B C26B 1_555 1_555
C31B C24B 1_555 1_555
C32B N1B 1_555 1_555
C33B H21B 1_555 1_555
H22B C33B 1_555 1_555
H23B C33B 1_555 1_555
C34B H24B 1_555 1_555
H25B C34B 1_555 1_555
H26B C34B 1_555 1_555
C35B O7B 1_555 1_555
H27B C35B 1_555 1_555
N1B C33B 1_555 1_555
N2B C35B 1_555 1_555
C37B N2B 1_555 1_555
H29B C37B 1_555 1_555
H30B C37B 1_555 1_555
H31B C37B 1_555 1_555
C38B N2B 1_555 1_555
H32B C38B 1_555 1_555
H33B C38B 1_555 1_555
H34B C38B 1_555 1_555
O10 C1 1_555 1_555
C6 C7 1_555 1_555
C19 C20 1_555 1_555
C25 C26 1_555 1_555
C34 N1 1_555 1_555
O3B C14B 1_555 1_555
C4B C5B 1_555 1_555
C6B C7B 1_555 1_555
C19B C20B 1_555 1_555
C25B C26B 1_555 1_555
C34B N1B 1_555 1_555

#END
