
#######################################################################
#
#                 Cambridge Crystallographic Data Centre
#                                CCDC 
#
#######################################################################
#
# If this CIF has been generated from an entry in the Cambridge 
# Structural Database, then it will include bibliographic, chemical, 
# crystal, experimental, refinement or atomic coordinate data resulting 
# from the CCDC's data processing and validation procedures.
#
#######################################################################

data_RUPGAM
_chemical_formula_moiety         '(C23 H17 Cd1 N7 O4)n'
_symmetry_cell_setting           orthorhombic
_symmetry_space_group_name_H-M   'P b c n'
_symmetry_Int_Tables_number      60
_space_group_name_Hall           '-P 2n 2ab'
loop_
_symmetry_equiv_pos_site_id
_symmetry_equiv_pos_as_xyz
1 x,y,z
2 1/2+x,1/2-y,-z
3 -x,y,1/2-z
4 1/2-x,1/2-y,1/2+z
5 -x,-y,-z
6 1/2-x,1/2+y,z
7 x,-y,1/2+z
8 1/2+x,1/2+y,1/2-z
_cell_length_a                   23.614(3)
_cell_length_b                   13.7299(15)
_cell_length_c                   20.772(2)
_cell_angle_alpha                90
_cell_angle_beta                 90
_cell_angle_gamma                90
_cell_volume                     6734.65
loop_
_atom_site_label
_atom_site_type_symbol
_atom_site_fract_x
_atom_site_fract_y
_atom_site_fract_z
N1 N 1.16490(17) 0.3940(3) 0.6006(2)
C1 C 1.2140(2) 0.4436(4) 0.6150(3)
H1 H 1.2470 0.4143 0.6297
C2 C 1.1306(2) 0.4625(3) 0.5779(2)
H2 H 1.0941 0.4503 0.5629
C3 C 1.2079(2) 0.5403(4) 0.6049(3)
H3 H 1.2342 0.5890 0.6135
N2 N 1.15445(15) 0.5515(3) 0.5790(2)
C4 C 0.8058(3) 0.7888(4) 0.5164(3)
C5 C 0.7796(2) 0.7775(4) 0.5821(2)
C6 C 0.8136(3) 0.7703(5) 0.6383(3)
C7 C 0.7872(3) 0.7596(6) 0.6981(3)
H4 H 0.8090 0.7563 0.7353
C8 C 0.7023(3) 0.7407(3) 0.7683(2)
C9 C 0.7290(2) 0.7539(4) 0.7024(2)
C10 C 0.6972(3) 0.7507(5) 0.6481(3)
C11 C 0.7232(3) 0.7640(4) 0.5879(3)
H5 H 0.7009 0.7636 0.5509
C12 C 0.9711(2) 0.7696(3) 0.4469(2)
H6 H 0.9592 0.8091 0.4807
C13 C 0.9724(2) 0.6913(4) 0.3579(3)
H7 H 0.9616 0.6661 0.3182
C14 C 1.0227(3) 0.6744(5) 0.3872(3)
H8 H 1.0522 0.6361 0.3715
C15 C 1.0637(2) 0.7257(3) 0.4928(2)
C16 C 1.0888(2) 0.6398(3) 0.5113(2)
H9 H 1.0794 0.5816 0.4909
C17 C 1.1285(2) 0.6407(3) 0.5607(2)
C18 C 1.1431(2) 0.7265(3) 0.5914(3)
H10 H 1.1706 0.7272 0.6234
C19 C 1.1154(2) 0.8121(3) 0.5732(2)
C20 C 1.0766(2) 0.8140(3) 0.5233(2)
H11 H 1.0597 0.8720 0.5103
C21 C 1.1367(3) 0.9107(4) 0.6719(2)
H12 H 1.1350 0.8621 0.7029
C22 C 1.1466(2) 1.0049(4) 0.6811(2)
H13 H 1.1529 1.0334 0.7211
C23 C 1.1367(2) 0.9896(3) 0.5764(2)
H14 H 1.1352 1.0028 0.5325
Cd1 Cd 0.843474(13) 0.775170(19) 0.389257(15)
N3 N 0.94013(19) 0.7504(3) 0.39527(19)
N4 N 1.02199(17) 0.7247(2) 0.44473(19)
N5 N 1.12948(19) 0.9005(3) 0.60517(18)
N6 N 1.14633(17) 1.0546(3) 0.62403(19)
O1 O 0.7746(2) 0.7828(3) 0.46758(16)
O2 O 0.8561(2) 0.8014(5) 0.5108(2)
O3 O 0.64879(19) 0.7408(3) 0.7745(2)
O4 O 0.73411(17) 0.7322(3) 0.81582(17)
N7 N 0.8707(5) 0.7644(10) 0.6360(5)
H15 H 0.8897 0.7543 0.6707
H16 H 0.8881 0.7707 0.5998
N1D N 0.83510(17) 0.6060(3) 0.3994(2)
Cd1C Cd 0.656526(13) 0.724830(19) 0.889257(15)
Cd1D Cd 1.156526(13) 0.224830(19) 0.610743(15)
Cd1D_2 Cd 1.156526(13) 1.224830(19) 0.610743(15)
N6D N 0.85367(17) 0.9454(3) 0.37597(19)
O3C O 0.85121(19) 0.7592(3) 0.2745(2)
O4C O 0.76589(17) 0.7678(3) 0.31582(17)
loop_
_geom_bond_atom_site_label_1
_geom_bond_atom_site_label_2
_geom_bond_site_symmetry_1
_geom_bond_site_symmetry_2
N1 C1 1_555 1_555
C1 H1 1_555 1_555
C2 N1 1_555 1_555
H2 C2 1_555 1_555
C3 C1 1_555 1_555
H3 C3 1_555 1_555
N2 C2 1_555 1_555
C4 C5 1_555 1_555
C5 C6 1_555 1_555
C6 C7 1_555 1_555
C7 H4 1_555 1_555
C8 C9 1_555 1_555
C9 C7 1_555 1_555
C10 C9 1_555 1_555
C11 C5 1_555 1_555
H5 C11 1_555 1_555
C12 H6 1_555 1_555
C13 H7 1_555 1_555
C14 C13 1_555 1_555
H8 C14 1_555 1_555
C15 C16 1_555 1_555
C16 H9 1_555 1_555
C17 N2 1_555 1_555
C18 C17 1_555 1_555
H10 C18 1_555 1_555
C19 C18 1_555 1_555
C20 C15 1_555 1_555
H11 C20 1_555 1_555
C21 H12 1_555 1_555
C22 C21 1_555 1_555
H13 C22 1_555 1_555
C23 H14 1_555 1_555
Cd1 N3 1_555 1_555
N3 C12 1_555 1_555
N4 C12 1_555 1_555
N5 C19 1_555 1_555
N6 C22 1_555 1_555
O1 C4 1_555 1_555
O2 C4 1_555 1_555
O3 C8 1_555 1_555
O4 C8 1_555 1_555
N7 C6 1_555 1_555
H15 N7 1_555 1_555
H16 N7 1_555 1_555
N1D Cd1 1_555 1_555
Cd1C O3 1_555 1_555
Cd1D N1 1_555 1_555
Cd1D_2 N6 1_555 1_555
N6D Cd1 1_555 1_555
O3C Cd1 1_555 1_555
O4C Cd1 1_555 1_555
C3 N2 1_555 1_555
C10 C11 1_555 1_555
C13 N3 1_555 1_555
C14 N4 1_555 1_555
C15 N4 1_555 1_555
C16 C17 1_555 1_555
C19 C20 1_555 1_555
C21 N5 1_555 1_555
C23 N5 1_555 1_555
C23 N6 1_555 1_555
Cd1 O1 1_555 1_555
Cd1 O2 1_555 1_555
O4 Cd1C 1_555 1_555

#END
