
#######################################################################
#
#                 Cambridge Crystallographic Data Centre
#                                CCDC 
#
#######################################################################
#
# If this CIF has been generated from an entry in the Cambridge 
# Structural Database, then it will include bibliographic, chemical, 
# crystal, experimental, refinement or atomic coordinate data resulting 
# from the CCDC's data processing and validation procedures.
#
#######################################################################

data_FUWYAY
_chemical_formula_moiety         '(C1 H7 Mn2 N5 O7 S1)n'
_symmetry_cell_setting           orthorhombic
_symmetry_space_group_name_H-M   'P n m a'
_symmetry_Int_Tables_number      62
_space_group_name_Hall           '-P 2ac 2n'
loop_
_symmetry_equiv_pos_site_id
_symmetry_equiv_pos_as_xyz
1 x,y,z
2 1/2-x,-y,1/2+z
3 1/2+x,1/2-y,1/2-z
4 -x,1/2+y,-z
5 -x,-y,-z
6 1/2+x,y,1/2-z
7 1/2-x,1/2+y,1/2+z
8 x,1/2-y,z
_cell_length_a                   9.2400(18)
_cell_length_b                   6.9128(14)
_cell_length_c                   16.095(3)
_cell_angle_alpha                90
_cell_angle_beta                 90
_cell_angle_gamma                90
_cell_volume                     1028.06
loop_
_atom_site_label
_atom_site_type_symbol
_atom_site_fract_x
_atom_site_fract_y
_atom_site_fract_z
Mn1 Mn 0.80221(7) -0.7500 0.83479(4)
Mn2 Mn 0.5000 -0.5000 0.5000
S1 S 0.66319(11) -0.7500 0.64474(7)
O1 O 0.6677(3) -0.5766(4) 0.59208(16)
O2 O 0.5308(4) -0.7500 0.6954(2)
O3 O 0.7893(4) -0.7500 0.7008(2)
O4 O 0.8738(3) -0.7500 0.96502(19)
O5 O 0.5778(5) -0.7500 0.8736(3)
N1 N 0.8813(3) -0.3434(4) 0.89981(16)
N2 N 0.8012(3) -0.4110(4) 0.83702(18)
N3 N 0.6628(10) -0.2500 0.7328(5)
H1 H 0.6333 -0.1423 0.7121
H2 H 0.6352 -0.3577 0.7112
C1 C 0.7530(7) -0.2500 0.7996(4)
H3 H 0.795(7) -0.7500 0.991(4)
H4 H 0.504(3) -0.7500 0.844(3)
H5 H 0.554(5) -0.7500 0.9232(10)
Mn1B Mn 0.30221(7) -0.7500 0.66521(4)
Mn1_2 Mn 0.80221(7) 0.2500 0.83479(4)
Mn2B Mn 1.0000 -1.0000 1.0000
Mn2A Mn 1.0000 -0.5000 1.0000
Mn2C Mn 0.5000 -1.0000 0.5000
Mn2B_2 Mn 1.0000 0.0000 1.0000
O1G O 0.6677(3) -0.9234(4) 0.59208(16)
O1D O 0.3323(3) -0.4234(4) 0.40792(16)
O2B O 1.0308(4) -0.7500 0.8046(2)
O4B O 0.3738(3) -0.7500 0.53498(19)
O4A O 0.6262(3) -0.2500 0.46502(19)
N1G N 0.8813(3) -0.1566(4) 0.89981(16)
N1E N 0.3813(3) -0.3434(4) 0.60019(16)
N1A N 0.6187(3) -0.6566(4) 0.39981(16)
N2G N 0.8012(3) -0.0890(4) 0.83702(18)
N2G_2 N 0.8012(3) -1.0890(4) 0.83702(18)
H3B H 0.295(7) -0.7500 0.509(4)
H3A H 0.705(7) -0.2500 0.491(4)
O6 O 0.100(4) 0.2500 0.435(3)
H6 H 0.064(6) 0.349(7) 0.454(3)
H6G H 0.064(6) 0.151(7) 0.454(3)
loop_
_geom_bond_atom_site_label_1
_geom_bond_atom_site_label_2
_geom_bond_site_symmetry_1
_geom_bond_site_symmetry_2
Mn1 O3 1_555 1_555
Mn2 O1 1_555 1_555
S1 O1 1_555 1_555
O2 S1 1_555 1_555
O3 S1 1_555 1_555
O4 Mn1 1_555 1_555
O5 Mn1 1_555 1_555
O6 H6 1_555 1_555
N1 N2 1_555 1_555
N2 Mn1 1_555 1_555
N3 H1 1_555 1_555
H2 N3 1_555 1_555
C1 N2 1_555 1_555
H3 O4 1_555 1_555
H4 O5 1_555 1_555
H5 O5 1_555 1_555
Mn1B O2 1_555 1_555
Mn1_2 N2G 1_555 1_555
Mn2B O4 1_555 1_555
Mn2A O4 1_555 1_555
Mn2C O1G 1_555 1_555
Mn2B_2 N1G 1_555 1_555
O1G S1 1_555 1_555
O1D Mn2 1_555 1_555
O2B Mn1 1_555 1_555
O4B Mn2 1_555 1_555
O4A Mn2 1_555 1_555
N1G N1 1_555 1_555
N1E Mn2 1_555 1_555
N1A Mn2 1_555 1_555
N2G C1 1_555 1_555
N2G_2 Mn1 1_555 1_555
H3B O4B 1_555 1_555
H3A O4A 1_555 1_555
H6G O6 1_555 1_555
N1 Mn2A 1_555 1_555
N3 C1 1_555 1_555
Mn1B O4B 1_555 1_555
Mn2C O4B 1_555 1_555
N1G N2G 1_555 1_555

#END
