
#######################################################################
#
#                 Cambridge Crystallographic Data Centre
#                                CCDC 
#
#######################################################################
#
# If this CIF has been generated from an entry in the Cambridge 
# Structural Database, then it will include bibliographic, chemical, 
# crystal, experimental, refinement or atomic coordinate data resulting 
# from the CCDC's data processing and validation procedures.
#
#######################################################################

data_KUXVIJ
_chemical_formula_moiety         '(C14 H13 Ag1 Cl1 N2 O11 Tb1)n'
_symmetry_cell_setting           monoclinic
_symmetry_space_group_name_H-M   'P 21/c'
_symmetry_Int_Tables_number      14
_space_group_name_Hall           '-P 2ybc'
loop_
_symmetry_equiv_pos_site_id
_symmetry_equiv_pos_as_xyz
1 x,y,z
2 -x,1/2+y,1/2-z
3 -x,-y,-z
4 x,1/2-y,1/2+z
_cell_length_a                   16.2107(4)
_cell_length_b                   14.9781(4)
_cell_length_c                   7.9573(2)
_cell_angle_alpha                90
_cell_angle_beta                 92.0690(10)
_cell_angle_gamma                90
_cell_volume                     1930.82
loop_
_atom_site_label
_atom_site_type_symbol
_atom_site_fract_x
_atom_site_fract_y
_atom_site_fract_z
Ag1 Ag 0.027245(16) 0.26053(2) 0.39942(4)
Tb1 Tb -0.453840(7) 0.383640(8) 0.951090(14)
C1 C -0.1324(2) 0.3286(2) 0.5406(4)
H1 H -0.1059 0.3827 0.5232
C2 C -0.21015(18) 0.3292(2) 0.6066(4)
H2 H -0.2350 0.3829 0.6346
C3 C -0.25063(15) 0.24911(18) 0.6306(3)
C4 C -0.21139(16) 0.1711(2) 0.5886(4)
H3 H -0.2371 0.1163 0.6030
C5 C -0.13298(17) 0.1752(2) 0.5245(4)
H4 H -0.1066 0.1223 0.4970
C6 C -0.33574(15) 0.24908(17) 0.7001(3)
C7 C 0.2114(2) 0.2529(2) 0.2939(5)
H5 H 0.2089 0.1930 0.3244
C8 C 0.28536(18) 0.2873(2) 0.2422(4)
H6 H 0.3317 0.2509 0.2378
C9 C 0.28995(17) 0.37570(18) 0.1974(4)
C10 C 0.21958(18) 0.4270(2) 0.2041(4)
H7 H 0.2207 0.4870 0.1743
C11 C 0.1474(2) 0.3885(2) 0.2554(5)
H8 H 0.1000 0.4235 0.2581
C12 C 0.36818(17) 0.4185(2) 0.1410(4)
C13 C -0.57030(17) 0.45765(19) 0.7123(3)
C14 C -0.6365(2) 0.4930(3) 0.5949(5)
H9 H -0.6798 0.4495 0.5819
H10 H -0.6585 0.5471 0.6399
H11 H -0.6138 0.5049 0.4874
N1 N -0.09393(15) 0.25295(19) 0.5010(3)
N2 N 0.14304(15) 0.3031(2) 0.3014(4)
O1 O -0.35717(11) 0.31548(13) 0.7817(3)
O2 O -0.38065(11) 0.18103(13) 0.6720(2)
O3 O 0.42524(13) 0.36614(14) 0.0980(3)
O4 O 0.37085(13) 0.50152(14) 0.1419(3)
O5 O -0.54984(13) 0.50164(14) 0.8425(2)
O6 O -0.53502(14) 0.38449(14) 0.6869(3)
O7 O -0.49726(15) 0.23060(14) 0.9259(3)
H12 H -0.515(2) 0.1997(19) 1.000(3)
H13 H -0.478(2) 0.1971(18) 0.858(3)
Tb1C Tb -0.453840(7) 0.116360(8) 0.451090(14)
Tb1_2 Tb 0.546160(7) 0.383640(8) -0.048910(14)
Tb1B Tb 0.453840(7) 0.616360(8) 0.048910(14)
Tb1B_2 Tb -0.546160(7) 0.616360(8) 1.048910(14)
O2C O -0.38065(11) 0.31897(13) 1.1720(2)
O3_2 O -0.57476(13) 0.36614(14) 1.0980(3)
O4B O -0.37085(13) 0.49848(14) 0.8581(3)
O5B O -0.45016(13) 0.49836(14) 1.1575(2)
Cl1 Cl 0.91888(6) 0.95928(6) 0.75570(12)
O8 O 0.9601(5) 1.0430(5) 0.7695(14)
O9 O 0.9685(8) 0.8878(6) 0.8063(16)
O10 O 0.8834(8) 0.9471(6) 0.5972(9)
O11 O 0.8500(6) 0.9643(7) 0.8755(15)
loop_
_geom_bond_atom_site_label_1
_geom_bond_atom_site_label_2
_geom_bond_site_symmetry_1
_geom_bond_site_symmetry_2
Ag1 N1 1_555 1_555
Tb1 O1 1_555 1_555
C1 H1 1_555 1_555
C2 C1 1_555 1_555
H2 C2 1_555 1_555
C3 C2 1_555 1_555
C4 C3 1_555 1_555
H3 C4 1_555 1_555
C5 C4 1_555 1_555
H4 C5 1_555 1_555
C6 C3 1_555 1_555
C7 H5 1_555 1_555
C8 C7 1_555 1_555
H6 C8 1_555 1_555
C9 C8 1_555 1_555
C10 C9 1_555 1_555
H7 C10 1_555 1_555
C11 C10 1_555 1_555
H8 C11 1_555 1_555
C12 C9 1_555 1_555
C13 C14 1_555 1_555
C14 H9 1_555 1_555
H10 C14 1_555 1_555
H11 C14 1_555 1_555
N1 C1 1_555 1_555
N2 Ag1 1_555 1_555
O1 C6 1_555 1_555
O2 C6 1_555 1_555
O3 C12 1_555 1_555
O4 C12 1_555 1_555
O5 Tb1 1_555 1_555
O6 Tb1 1_555 1_555
O7 Tb1 1_555 1_555
H12 O7 1_555 1_555
H13 O7 1_555 1_555
Cl1 O8 1_555 1_555
O9 Cl1 1_555 1_555
O10 Cl1 1_555 1_555
O11 Cl1 1_555 1_555
Tb1C O2 1_555 1_555
Tb1_2 O3 1_555 1_555
Tb1B O4 1_555 1_555
Tb1B_2 O5 1_555 1_555
O2C Tb1 1_555 1_555
O3_2 Tb1 1_555 1_555
O4B Tb1 1_555 1_555
O5B Tb1 1_555 1_555
C5 N1 1_555 1_555
C7 N2 1_555 1_555
C11 N2 1_555 1_555
C13 O5 1_555 1_555
C13 O6 1_555 1_555
Tb1B_2 O5B 1_555 1_555

#END
