
#######################################################################
#
#                 Cambridge Crystallographic Data Centre
#                                CCDC 
#
#######################################################################
#
# If this CIF has been generated from an entry in the Cambridge 
# Structural Database, then it will include bibliographic, chemical, 
# crystal, experimental, refinement or atomic coordinate data resulting 
# from the CCDC's data processing and validation procedures.
#
#######################################################################

data_AZEWEH
_chemical_formula_moiety         '(C8 H32 N4 Nd4 O36 S8)n'
_symmetry_cell_setting           triclinic
_symmetry_space_group_name_H-M   'P -1'
_symmetry_Int_Tables_number      2
_space_group_name_Hall           '-P 1'
loop_
_symmetry_equiv_pos_site_id
_symmetry_equiv_pos_as_xyz
1 x,y,z
2 -x,-y,-z
_cell_length_a                   6.6210(4)
_cell_length_b                   11.7941(6)
_cell_length_c                   12.2064(7)
_cell_angle_alpha                90.8460(10)
_cell_angle_beta                 100.5770(10)
_cell_angle_gamma                102.4460(10)
_cell_volume                     913.501
loop_
_atom_site_label
_atom_site_type_symbol
_atom_site_fract_x
_atom_site_fract_y
_atom_site_fract_z
Nd1 Nd 0.34661(5) 0.42056(3) 0.12960(3)
Nd2 Nd 0.73274(5) 0.86706(3) 0.44785(3)
S1 S 0.1599(3) 0.88028(15) 0.35798(13)
S2 S 0.5331(3) 0.65708(14) 0.27418(13)
S3 S -0.2373(3) 0.35265(14) 0.07308(13)
S4 S 0.2641(3) 0.24731(15) 0.31931(13)
O1 O -0.0237(7) 0.4161(4) 0.1223(4)
O2 O -0.3557(7) 0.4353(4) 0.0114(3)
O3 O 0.3525(8) 0.3751(4) 0.3266(4)
O4 O 0.1796(10) 0.2974(5) -0.0417(4)
O5 O -0.3606(7) 0.3119(4) 0.1599(4)
O6 O 0.3091(7) 0.6012(4) 0.2349(4)
O7 O 0.6514(7) 0.5855(4) 0.2213(4)
O8 O 0.1973(7) 0.2125(4) 0.1999(4)
O9 O 0.3738(7) 0.8838(5) 0.4196(4)
O10 O 0.5862(7) 0.7805(4) 0.2469(4)
O11 O 0.0841(7) 0.9777(4) 0.4101(4)
O12 O 0.5896(7) 0.6565(4) 0.3984(3)
O13 O 0.4235(7) 0.1871(4) 0.3801(4)
O14 O 0.0099(7) 0.7760(4) 0.3816(4)
O15 O 0.6977(10) 1.0473(5) 0.3380(4)
O16 O 0.0876(7) 0.2203(4) 0.3811(4)
O17 O 0.1553(8) 0.8951(5) 0.2408(4)
O18 O -0.2300(7) 0.2563(4) -0.0017(4)
H13 H 0.632(12) 1.0797(62) 0.3634(59)
H14 H 0.780(14) 1.1010(77) 0.3223(71)
H15 H 0.193(15) 0.3229(85) -0.1145(90)
H16 H 0.062(20) 0.293(11) -0.044(11)
S3_2 S 0.7627(3) 0.35265(14) 0.07308(13)
O1_2 O 0.9763(7) 0.4161(4) 0.1223(4)
O2_2 O 0.6443(7) 0.4353(4) 0.0114(3)
O5_2 O 0.6394(7) 0.3119(4) 0.1599(4)
O18_2 O 0.7700(7) 0.2563(4) -0.0017(4)
Nd1_2 Nd 1.34661(5) 0.42056(3) 0.12960(3)
Nd2A Nd 0.26726(5) 0.13294(3) 0.55215(3)
S1_2 S 1.1599(3) 0.88028(15) 0.35798(13)
O9_2 O 1.3738(7) 0.8838(5) 0.4196(4)
O11_2 O 1.0841(7) 0.9777(4) 0.4101(4)
O14_2 O 1.0099(7) 0.7760(4) 0.3816(4)
O17_2 O 1.1553(8) 0.8951(5) 0.2408(4)
S4A S 0.7359(3) 0.75269(15) 0.68069(13)
O3A O 0.6475(8) 0.6249(4) 0.6734(4)
O8A O 0.8027(7) 0.7875(4) 0.8001(4)
O13A O 0.5765(7) 0.8129(4) 0.6199(4)
O16A O 0.9124(7) 0.7797(4) 0.6189(4)
O4_2 O 1.1796(10) 0.2974(5) -0.0417(4)
H15_2 H 1.193(15) 0.3229(85) -0.1145(90)
H16_2 H 1.062(20) 0.293(11) -0.044(11)
S2_2 S 1.5331(3) 0.65708(14) 0.27418(13)
O6_2 O 1.3091(7) 0.6012(4) 0.2349(4)
O7_2 O 1.6514(7) 0.5855(4) 0.2213(4)
O10_2 O 1.5862(7) 0.7805(4) 0.2469(4)
O12_2 O 1.5896(7) 0.6565(4) 0.3984(3)
O15A O 0.3023(10) -0.0473(5) 0.6620(4)
H13A H 0.368(12) -0.0797(62) 0.6366(59)
H14A H 0.220(14) -0.1010(77) 0.6777(71)
O2A O 0.3557(7) 0.5647(4) -0.0114(3)
O11A O 0.9159(7) 1.0223(4) 0.5899(4)
Nd1_3 Nd -0.65339(5) 0.42056(3) 0.12960(3)
Nd1A Nd -0.34661(5) 0.57944(3) -0.12960(3)
Nd2_2 Nd -0.26726(5) 0.86706(3) 0.44785(3)
Nd2A_2 Nd 0.26726(5) 1.13294(3) 0.55215(3)
Nd1A_2 Nd 0.65339(5) 0.57944(3) -0.12960(3)
O2_3 O 1.6443(7) 0.4353(4) 0.0114(3)
O2A_2 O 1.3557(7) 0.5647(4) -0.0114(3)
O3_2 O 1.3525(8) 0.3751(4) 0.3266(4)
O5_3 O 1.6394(7) 0.3119(4) 0.1599(4)
O8_2 O 1.1973(7) 0.2125(4) 0.1999(4)
O9A O 0.6262(7) 0.1162(5) 0.5804(4)
O10A O 0.4138(7) 0.2195(4) 0.7531(4)
O11_3 O 0.0841(7) -0.0223(4) 0.4101(4)
O11A_2 O -0.0841(7) 0.0223(4) 0.5899(4)
O12A O 0.4104(7) 0.3435(4) 0.6016(3)
O14A O -0.0099(7) 0.2240(4) 0.6184(4)
Nd2_3 Nd 1.73274(5) 0.86706(3) 0.44785(3)
Nd2A_3 Nd 1.26726(5) 1.13294(3) 0.55215(3)
Nd1A_3 Nd 0.65339(5) 0.57944(3) 0.87040(3)
N1 N 0.5264(9) 0.0453(5) -0.1047(4)
H1 H 0.5868(9) 0.1204(5) -0.0842(4)
H2 H 0.5130(9) 0.0363(5) -0.1792(4)
C1 C 0.6664(13) -0.0289(7) -0.0501(6)
H5 H 0.8047(13) -0.0053(7) -0.0692(6)
H6 H 0.6086(13) -0.1095(7) -0.0764(6)
C2 C 0.3147(12) 0.0173(7) -0.0756(6)
H7 H 0.2437(12) -0.0615(7) -0.1028(6)
H8 H 0.2314(12) 0.0697(7) -0.1110(6)
C2A C 0.6853(12) -0.0173(7) 0.0756(6)
N1A N 0.4736(9) -0.0453(5) 0.1047(4)
H1A H 0.4132(9) -0.1204(5) 0.0842(4)
H2A H 0.4870(9) -0.0363(5) 0.1792(4)
C1A C 0.3336(13) 0.0289(7) 0.0501(6)
H5A H 0.1953(13) 0.0053(7) 0.0692(6)
H6A H 0.3914(13) 0.1095(7) 0.0764(6)
H7A H 0.7563(12) 0.0615(7) 0.1028(6)
H8A H 0.7686(12) -0.0697(7) 0.1110(6)
N2 N 1.0321(13) 0.5286(9) 0.3927(6)
H3 H 1.0762(13) 0.5140(9) 0.3295(6)
H4 H 0.9787(13) 0.5926(9) 0.3846(6)
C3 C 1.2067(13) 0.5477(10) 0.4857(7)
H9 H 1.3156(13) 0.6129(10) 0.4730(7)
H10 H 1.2663(13) 0.4793(10) 0.4934(7)
C4 C 0.8672(17) 0.4283(7) 0.4128(8)
H11 H 0.7501(17) 0.4142(7) 0.3499(8)
H12 H 0.9244(17) 0.3591(7) 0.4203(8)
C4A C 1.1328(17) 0.5717(7) 0.5872(8)
N2A N 0.9679(13) 0.4714(9) 0.6073(6)
H3A H 0.9238(13) 0.4860(9) 0.6705(6)
H4A H 1.0213(13) 0.4074(9) 0.6154(6)
C3A C 0.7933(13) 0.4523(10) 0.5143(7)
H9A H 0.6844(13) 0.3871(10) 0.5270(7)
H10A H 0.7337(13) 0.5207(10) 0.5066(7)
H11A H 1.2499(17) 0.5858(7) 0.6501(8)
H12A H 1.0756(17) 0.6409(7) 0.5797(8)
loop_
_geom_bond_atom_site_label_1
_geom_bond_atom_site_label_2
_geom_bond_site_symmetry_1
_geom_bond_site_symmetry_2
Nd1 O1 1_555 1_555
Nd2 O9 1_555 1_555
S1 O9 1_555 1_555
S2 O6 1_555 1_555
S3 O1 1_555 1_555
S4 O3 1_555 1_555
O2 S3 1_555 1_555
O3 Nd1 1_555 1_555
O4 Nd1 1_555 1_555
O5 S3 1_555 1_555
O6 Nd1 1_555 1_555
O7 Nd1 1_555 1_555
O8 Nd1 1_555 1_555
O10 Nd2 1_555 1_555
O11 S1 1_555 1_555
O12 Nd2 1_555 1_555
O13 S4 1_555 1_555
O14 S1 1_555 1_555
O15 Nd2 1_555 1_555
O16 S4 1_555 1_555
O17 S1 1_555 1_555
O18 S3 1_555 1_555
N1 H1 1_555 1_555
H2 N1 1_555 1_555
N2 H3 1_555 1_555
H4 N2 1_555 1_555
C1 N1 1_555 1_555
H5 C1 1_555 1_555
H6 C1 1_555 1_555
C2 N1 1_555 1_555
H7 C2 1_555 1_555
H8 C2 1_555 1_555
C3 N2 1_555 1_555
H9 C3 1_555 1_555
H10 C3 1_555 1_555
C4 N2 1_555 1_555
H11 C4 1_555 1_555
H12 C4 1_555 1_555
H13 O15 1_555 1_555
H14 O15 1_555 1_555
H15 O4 1_555 1_555
H16 O4 1_555 1_555
C2A C1 1_555 1_555
N1A C2A 1_555 1_555
H1A N1A 1_555 1_555
H2A N1A 1_555 1_555
C1A C2 1_555 1_555
H5A C1A 1_555 1_555
H6A C1A 1_555 1_555
H7A C2A 1_555 1_555
H8A C2A 1_555 1_555
C4A C3 1_555 1_555
N2A C4A 1_555 1_555
H3A N2A 1_555 1_555
H4A N2A 1_555 1_555
C3A C4 1_555 1_555
H9A C3A 1_555 1_555
H10A C3A 1_555 1_555
H11A C4A 1_555 1_555
H12A C4A 1_555 1_555
S3_2 O1_2 1_555 1_555
O1_2 Nd1_2 1_555 1_555
O2_2 Nd1 1_555 1_555
O5_2 Nd1 1_555 1_555
O18_2 S3_2 1_555 1_555
Nd1_2 O4_2 1_555 1_555
Nd2A O13 1_555 1_555
S1_2 O9_2 1_555 1_555
O9_2 Nd2_3 1_555 1_555
O11_2 Nd2 1_555 1_555
O14_2 Nd2 1_555 1_555
O17_2 S1_2 1_555 1_555
S4A O3A 1_555 1_555
O3A Nd1A_3 1_555 1_555
O8A S4A 1_555 1_555
O13A Nd2 1_555 1_555
O16A Nd2 1_555 1_555
O4_2 H15_2 1_555 1_555
H16_2 O4_2 1_555 1_555
S2_2 O6_2 1_555 1_555
O6_2 Nd1_2 1_555 1_555
O7_2 Nd1_2 1_555 1_555
O10_2 S2_2 1_555 1_555
O12_2 S2_2 1_555 1_555
O15A Nd2A 1_555 1_555
H13A O15A 1_555 1_555
H14A O15A 1_555 1_555
O2A Nd1 1_555 1_555
O11A Nd2 1_555 1_555
Nd1_3 O2 1_555 1_555
Nd1A O2 1_555 1_555
Nd2_2 O11 1_555 1_555
Nd2A_2 O11 1_555 1_555
Nd1A_2 O2_2 1_555 1_555
O2_3 Nd1_2 1_555 1_555
O2A_2 Nd1_2 1_555 1_555
O3_2 Nd1_2 1_555 1_555
O5_3 Nd1_2 1_555 1_555
O8_2 Nd1_2 1_555 1_555
O9A Nd2A 1_555 1_555
O10A Nd2A 1_555 1_555
O11_3 Nd2A 1_555 1_555
O11A_2 Nd2A 1_555 1_555
O12A Nd2A 1_555 1_555
O14A Nd2A 1_555 1_555
Nd2_3 O10_2 1_555 1_555
Nd2A_3 O11_2 1_555 1_555
Nd1A_3 O8A 1_555 1_555
S2 O7 1_555 1_555
S2 O10 1_555 1_555
S2 O12 1_555 1_555
S4 O8 1_555 1_555
O5 Nd1_3 1_555 1_555
O14 Nd2_2 1_555 1_555
O16 Nd2A 1_555 1_555
N1A C1A 1_555 1_555
N2A C3A 1_555 1_555
S3_2 O2_2 1_555 1_555
S3_2 O5_2 1_555 1_555
S1_2 O11_2 1_555 1_555
S1_2 O14_2 1_555 1_555
S4A O13A 1_555 1_555
S4A O16A 1_555 1_555
S2_2 O7_2 1_555 1_555
O12_2 Nd2_3 1_555 1_555
O2A Nd1A_2 1_555 1_555
O11A Nd2A_3 1_555 1_555

#END
