
#######################################################################
#
#                 Cambridge Crystallographic Data Centre
#                                CCDC 
#
#######################################################################
#
# If this CIF has been generated from an entry in the Cambridge 
# Structural Database, then it will include bibliographic, chemical, 
# crystal, experimental, refinement or atomic coordinate data resulting 
# from the CCDC's data processing and validation procedures.
#
#######################################################################

data_IYEQUA
_chemical_formula_moiety         '(C36 H60 Cd2 N8 O12)n'
_symmetry_cell_setting           orthorhombic
_symmetry_space_group_name_H-M   'P b c n'
_symmetry_Int_Tables_number      60
_space_group_name_Hall           '-P 2n 2ab'
loop_
_symmetry_equiv_pos_site_id
_symmetry_equiv_pos_as_xyz
1 x,y,z
2 1/2-x,1/2-y,1/2+z
3 1/2+x,1/2-y,-z
4 -x,y,1/2-z
5 -x,-y,-z
6 1/2+x,1/2+y,1/2-z
7 1/2-x,1/2+y,z
8 x,-y,1/2+z
_cell_length_a                   17.6907(5)
_cell_length_b                   16.1672(4)
_cell_length_c                   16.8283(4)
_cell_angle_alpha                90
_cell_angle_beta                 90
_cell_angle_gamma                90
_cell_volume                     4813.05
loop_
_atom_site_label
_atom_site_type_symbol
_atom_site_fract_x
_atom_site_fract_y
_atom_site_fract_z
Cd1 Cd 0.25416(4) 0.17057(4) 0.27661(4)
C1 C 0.2453(6) 0.2794(7) 0.1524(6)
C2 C 0.2279(7) 0.3456(7) 0.0901(8)
H1 H 0.1990 0.3203 0.0476
H2 H 0.1962 0.3874 0.1144
C3 C 0.2956(7) 0.3878(7) 0.0541(7)
H3 H 0.3239 0.3480 0.0229
H4 H 0.3283 0.4074 0.0964
C4 C 0.2740(7) 0.4602(7) 0.0015(7)
H5 H 0.3174 0.4754 -0.0305
H6 H 0.2343 0.4425 -0.0344
C5 C 0.2472(6) 0.5352(7) 0.0458(7)
H7 H 0.2874 0.5534 0.0809
H8 H 0.2047 0.5195 0.0788
C6 C 0.2235(7) 0.6081(7) -0.0059(8)
H9 H 0.1901 0.5882 -0.0474
H10 H 0.1951 0.6469 0.0264
C7 C 0.2885(6) 0.6530(7) -0.0436(7)
H11 H 0.3196 0.6765 -0.0019
H12 H 0.3192 0.6131 -0.0721
C8 C 0.2670(7) 0.7205(7) -0.0998(6)
C9 C 0.1453(6) 0.0032(7) 0.2855(6)
H13 H 0.1783 -0.0300 0.2566
C10 C 0.0783(6) -0.0220(7) 0.3157(6)
H14 H 0.0568 -0.0743 0.3114
C11 C 0.0980(5) 0.1077(6) 0.3460(6)
H15 H 0.0914 0.1602 0.3675
C12 C -0.0230(6) 0.0487(8) 0.3972(7)
H16 H -0.0555 0.0044 0.3788
H17 H -0.0480 0.1007 0.3856
C13 C -0.0124(8) 0.0408(8) 0.4869(8)
H18 H 0.0244 0.0815 0.5041
H19 H -0.0600 0.0537 0.5128
C14 C 0.3488(6) -0.0039(7) 0.2554(6)
H20 H 0.3180 -0.0337 0.2899
C15 C 0.4058(6) -0.0359(7) 0.2126(6)
H21 H 0.4211 -0.0909 0.2119
C16 C 0.3974(6) 0.0957(7) 0.1891(6)
H22 H 0.4070 0.1480 0.1684
C17 C 0.4979(6) 0.0220(8) 0.1119(6)
H23 H 0.5333 -0.0208 0.1276
H24 H 0.5249 0.0742 0.1108
C18 C 0.4686(6) 0.0032(7) 0.0302(6)
H25 H 0.4339 0.0465 0.0141
H26 H 0.4409 -0.0485 0.0315
N1 N 0.1574(5) 0.0845(5) 0.3035(5)
N2 N 0.0488(5) 0.0455(5) 0.3538(5)
N3 N 0.3430(5) 0.0786(5) 0.2408(5)
N4 N 0.4369(5) 0.0269(6) 0.1707(5)
O1 O 0.1921(4) 0.2315(5) 0.1703(4)
O2 O 0.3069(5) 0.2746(5) 0.1869(5)
O3 O 0.3176(5) 0.7725(5) -0.1171(5)
O4 O 0.2043(5) 0.7234(5) -0.1327(5)
C9D C -0.1453(6) -0.0032(7) 0.7145(6)
H13D H -0.1783 0.0300 0.7434
C10D C -0.0783(6) 0.0220(7) 0.6843(6)
H14D H -0.0568 0.0743 0.6886
C11D C -0.0980(5) -0.1077(6) 0.6540(6)
H15D H -0.0914 -0.1602 0.6325
C12D C 0.0230(6) -0.0487(8) 0.6028(7)
H16D H 0.0555 -0.0044 0.6212
H17D H 0.0480 -0.1007 0.6144
C13D C 0.0124(8) -0.0408(8) 0.5131(8)
H18D H -0.0244 -0.0815 0.4959
H19D H 0.0600 -0.0537 0.4872
N1D N -0.1574(5) -0.0845(5) 0.6965(5)
N2D N -0.0488(5) -0.0455(5) 0.6462(5)
C14D C 0.6512(6) 0.0039(7) -0.2554(6)
H20D H 0.6820 0.0337 -0.2899
C15D C 0.5942(6) 0.0359(7) -0.2126(6)
H21D H 0.5789 0.0909 -0.2119
C16D C 0.6026(6) -0.0957(7) -0.1891(6)
H22D H 0.5930 -0.1480 -0.1684
C17D C 0.5021(6) -0.0220(8) -0.1119(6)
H23D H 0.4667 0.0208 -0.1276
H24D H 0.4751 -0.0742 -0.1108
C18D C 0.5314(6) -0.0032(7) -0.0302(6)
H25D H 0.5661 -0.0465 -0.0141
H26D H 0.5591 0.0485 -0.0315
N3D N 0.6570(5) -0.0786(5) -0.2408(5)
N4D N 0.5631(5) -0.0269(6) -0.1707(5)
Cd1D Cd -0.25416(4) -0.17057(4) 0.72339(4)
C1D C -0.2453(6) -0.2794(7) 0.8476(6)
C2D C -0.2279(7) -0.3456(7) 0.9099(8)
H1D H -0.1990 -0.3203 0.9524
H2D H -0.1962 -0.3874 0.8856
C3D C -0.2956(7) -0.3878(7) 0.9459(7)
H3D H -0.3239 -0.3480 0.9771
H4D H -0.3283 -0.4074 0.9036
C4D C -0.2740(7) -0.4602(7) 0.9985(7)
H5D H -0.3174 -0.4754 1.0305
H6D H -0.2343 -0.4425 1.0344
C5D C -0.2472(6) -0.5352(7) 0.9542(7)
H7D H -0.2874 -0.5534 0.9191
H8D H -0.2047 -0.5195 0.9212
C6D C -0.2235(7) -0.6081(7) 1.0059(8)
H9D H -0.1901 -0.5882 1.0474
H10D H -0.1951 -0.6469 0.9736
C7D C -0.2885(6) -0.6530(7) 1.0436(7)
H11D H -0.3196 -0.6765 1.0019
H12D H -0.3192 -0.6131 1.0721
C8D C -0.2670(7) -0.7205(7) 1.0998(6)
O1D O -0.1921(4) -0.2315(5) 0.8297(4)
O2D O -0.3069(5) -0.2746(5) 0.8131(5)
O3D O -0.3176(5) -0.7725(5) 1.1171(5)
O4D O -0.2043(5) -0.7234(5) 1.1327(5)
Cd1C Cd -0.25416(4) -0.82943(4) 1.22339(4)
Cd1D_2 Cd 0.74584(4) -0.17057(4) -0.27661(4)
Cd1G Cd 0.25416(4) 0.82943(4) -0.22339(4)
N3D_2 N -0.3430(5) -0.0786(5) 0.7592(5)
O3C O -0.3176(5) -0.2275(5) 0.6171(5)
O3G O 0.3176(5) 0.2275(5) 0.3829(5)
O4C O -0.2043(5) -0.2766(5) 0.6327(5)
O4G O 0.2043(5) 0.2766(5) 0.3673(5)
O5 O 0.4585(5) 0.3182(6) 0.1787(7)
H27 H 0.4593 0.2819 0.2153
H28 H 0.4732 0.2932 0.1371
O6 O 0.4689(7) 0.7740(9) -0.0646(10)
H29 H 0.4740 0.7364 -0.0298
H30 H 0.4252 0.7589 -0.0798
O7 O 0.0457(9) 0.6853(11) -0.0797(15)
H31 H 0.0513 0.7298 -0.0535
H32 H 0.0897 0.6813 -0.0998
O8 O 0.4557(9) -0.2381(12) 0.177(2)
H33 H 0.4879 -0.2239 0.1426
H34 H 0.4424 -0.3058 0.2057
loop_
_geom_bond_atom_site_label_1
_geom_bond_atom_site_label_2
_geom_bond_site_symmetry_1
_geom_bond_site_symmetry_2
Cd1 N1 1_555 1_555
C1 C2 1_555 1_555
C2 H1 1_555 1_555
H2 C2 1_555 1_555
C3 C2 1_555 1_555
H3 C3 1_555 1_555
H4 C3 1_555 1_555
C4 C3 1_555 1_555
H5 C4 1_555 1_555
H6 C4 1_555 1_555
C5 C4 1_555 1_555
H7 C5 1_555 1_555
H8 C5 1_555 1_555
C6 C5 1_555 1_555
H9 C6 1_555 1_555
H10 C6 1_555 1_555
C7 C6 1_555 1_555
H11 C7 1_555 1_555
H12 C7 1_555 1_555
C8 C7 1_555 1_555
C9 H13 1_555 1_555
C10 C9 1_555 1_555
H14 C10 1_555 1_555
C11 H15 1_555 1_555
C12 H16 1_555 1_555
H17 C12 1_555 1_555
C13 C12 1_555 1_555
H18 C13 1_555 1_555
H19 C13 1_555 1_555
C14 H20 1_555 1_555
C15 C14 1_555 1_555
H21 C15 1_555 1_555
C16 H22 1_555 1_555
C17 H23 1_555 1_555
H24 C17 1_555 1_555
C18 C17 1_555 1_555
H25 C18 1_555 1_555
H26 C18 1_555 1_555
N1 C9 1_555 1_555
N2 C10 1_555 1_555
N3 Cd1 1_555 1_555
N4 C15 1_555 1_555
O1 Cd1 1_555 1_555
O2 Cd1 1_555 1_555
O3 C8 1_555 1_555
O4 C8 1_555 1_555
O5 H27 1_555 1_555
H28 O5 1_555 1_555
O6 H29 1_555 1_555
H30 O6 1_555 1_555
O7 H31 1_555 1_555
H32 O7 1_555 1_555
O8 H33 1_555 1_555
H34 O8 1_555 1_555
C9D H13D 1_555 1_555
C10D C9D 1_555 1_555
H14D C10D 1_555 1_555
C11D H15D 1_555 1_555
C12D H16D 1_555 1_555
H17D C12D 1_555 1_555
C13D C13 1_555 1_555
H18D C13D 1_555 1_555
H19D C13D 1_555 1_555
N1D C9D 1_555 1_555
N2D C10D 1_555 1_555
C14D H20D 1_555 1_555
C15D C14D 1_555 1_555
H21D C15D 1_555 1_555
C16D H22D 1_555 1_555
C17D H23D 1_555 1_555
H24D C17D 1_555 1_555
C18D C18 1_555 1_555
H25D C18D 1_555 1_555
H26D C18D 1_555 1_555
N3D C14D 1_555 1_555
N4D C15D 1_555 1_555
Cd1D N1D 1_555 1_555
C1D C2D 1_555 1_555
C2D H1D 1_555 1_555
H2D C2D 1_555 1_555
C3D C2D 1_555 1_555
H3D C3D 1_555 1_555
H4D C3D 1_555 1_555
C4D C3D 1_555 1_555
H5D C4D 1_555 1_555
H6D C4D 1_555 1_555
C5D C4D 1_555 1_555
H7D C5D 1_555 1_555
H8D C5D 1_555 1_555
C6D C5D 1_555 1_555
H9D C6D 1_555 1_555
H10D C6D 1_555 1_555
C7D C6D 1_555 1_555
H11D C7D 1_555 1_555
H12D C7D 1_555 1_555
C8D C7D 1_555 1_555
O1D Cd1D 1_555 1_555
O2D Cd1D 1_555 1_555
O3D C8D 1_555 1_555
O4D C8D 1_555 1_555
Cd1C O3D 1_555 1_555
Cd1D_2 N3D 1_555 1_555
Cd1G O3 1_555 1_555
N3D_2 Cd1D 1_555 1_555
O3C Cd1D 1_555 1_555
O3G Cd1 1_555 1_555
O4C Cd1D 1_555 1_555
O4G Cd1 1_555 1_555
C1 O1 1_555 1_555
C1 O2 1_555 1_555
C11 N1 1_555 1_555
C11 N2 1_555 1_555
C12 N2 1_555 1_555
C14 N3 1_555 1_555
C16 N3 1_555 1_555
C16 N4 1_555 1_555
C17 N4 1_555 1_555
O4 Cd1G 1_555 1_555
C11D N1D 1_555 1_555
C11D N2D 1_555 1_555
C12D C13D 1_555 1_555
C12D N2D 1_555 1_555
C16D N3D 1_555 1_555
C16D N4D 1_555 1_555
C17D C18D 1_555 1_555
C17D N4D 1_555 1_555
C1D O1D 1_555 1_555
C1D O2D 1_555 1_555
O4D Cd1C 1_555 1_555

#END
