
#######################################################################
#
#                 Cambridge Crystallographic Data Centre
#                                CCDC 
#
#######################################################################
#
# If this CIF has been generated from an entry in the Cambridge 
# Structural Database, then it will include bibliographic, chemical, 
# crystal, experimental, refinement or atomic coordinate data resulting 
# from the CCDC's data processing and validation procedures.
#
#######################################################################

data_DUMXIU
_chemical_formula_moiety         '(C14 H11 Dy1 N4 O9)n'
_symmetry_cell_setting           monoclinic
_symmetry_space_group_name_H-M   'P 21/c'
_symmetry_Int_Tables_number      14
_space_group_name_Hall           '-P 2ybc'
loop_
_symmetry_equiv_pos_site_id
_symmetry_equiv_pos_as_xyz
1 x,y,z
2 -x,1/2+y,1/2-z
3 -x,-y,-z
4 x,1/2-y,1/2+z
_cell_length_a                   10.1298(3)
_cell_length_b                   17.0934(3)
_cell_length_c                   11.0846(3)
_cell_angle_alpha                90
_cell_angle_beta                 108.696(3)
_cell_angle_gamma                90
_cell_volume                     1818.05
loop_
_atom_site_label
_atom_site_type_symbol
_atom_site_fract_x
_atom_site_fract_y
_atom_site_fract_z
Dy1 Dy 0.008930(15) 0.004050(8) 0.683178(13)
O1 O 0.2262(2) -0.01556(13) 0.6540(2)
O2 O 0.8495(2) -0.08736(12) 0.7183(2)
O3 O 0.2042(2) 0.02421(13) 0.8909(2)
O4 O 0.3225(3) -0.07333(15) 0.9993(2)
N1 N 0.2248(3) -0.04816(17) 0.9115(3)
O5 O 0.1365(2) -0.09408(13) 0.8365(2)
O6 O 0.0658(2) 0.13986(12) 0.6710(2)
O7 O 0.2093(2) -0.04828(12) 0.4525(2)
O8 O 0.0248(2) 0.08484(12) 0.4825(2)
N2 N 0.7120(3) -0.07866(14) 0.6853(3)
C1 C 0.4279(3) -0.05836(18) 0.6132(3)
C2 C 0.4894(3) -0.09708(18) 0.5348(3)
H1 H 0.4341 -0.1163 0.4564
C3 C 0.6311(3) -0.10728(18) 0.5720(3)
H2 H 0.6715 -0.1338 0.5194
N3 N -0.0551(3) 0.36849(15) 0.3794(3)
C4 C 0.2746(3) -0.04011(18) 0.5697(3)
O9 O -0.0871(2) 0.43929(12) 0.3272(2)
C5 C 0.6557(3) -0.04254(19) 0.7647(3)
H3 H 0.7129 -0.0241 0.8429
C6 C -0.1119(4) 0.30413(19) 0.3124(3)
H4 H -0.1727 0.3092 0.2298
C7 C 0.5142(3) -0.03286(19) 0.7308(3)
H5 H 0.4757 -0.0090 0.7871
C8 C -0.0804(4) 0.23151(19) 0.3653(3)
H6 H -0.1181 0.1873 0.3179
C9 C 0.0363(3) 0.14507(19) 0.5520(3)
C10 C 0.0609(3) 0.29111(18) 0.5575(3)
H7 H 0.1176 0.2876 0.6419
C11 C 0.0301(3) 0.36298(19) 0.5006(3)
H8 H 0.0680 0.4080 0.5457
C12 C 0.0078(3) 0.22359(19) 0.4899(3)
Dy1_2 Dy 1.008930(15) 0.004050(8) 0.683178(13)
Dy1B Dy -0.008930(15) -0.004050(8) 0.316822(13)
Dy1C Dy 0.008930(15) 0.495950(8) 0.183178(13)
O2_2 O -0.1505(2) -0.08736(12) 0.7183(2)
O7B O -0.2093(2) 0.04828(12) 0.5475(2)
O8B O -0.0248(2) -0.08484(12) 0.5175(2)
O9C O -0.0871(2) 0.06071(12) 0.8272(2)
C13 C 0.3898(5) 0.1798(2) 0.9037(4)
H9 H 0.2989 0.1992 0.8977
H10 H 0.4584 0.2046 0.9739
H11 H 0.3927 0.1243 0.9169
C14 C 0.4187(5) 0.1971(3) 0.7870(5)
N4 N 0.4421(6) 0.2099(3) 0.6963(4)
loop_
_geom_bond_atom_site_label_1
_geom_bond_atom_site_label_2
_geom_bond_site_symmetry_1
_geom_bond_site_symmetry_2
Dy1 O1 1_555 1_555
O1 C4 1_555 1_555
O2 N2 1_555 1_555
O3 Dy1 1_555 1_555
O4 N1 1_555 1_555
N1 O3 1_555 1_555
O5 Dy1 1_555 1_555
O6 Dy1 1_555 1_555
O7 C4 1_555 1_555
O8 Dy1 1_555 1_555
N2 C3 1_555 1_555
C1 C2 1_555 1_555
C2 H1 1_555 1_555
C3 C2 1_555 1_555
H2 C3 1_555 1_555
N3 O9 1_555 1_555
C4 C1 1_555 1_555
O9 Dy1C 1_555 1_555
C5 N2 1_555 1_555
H3 C5 1_555 1_555
C6 N3 1_555 1_555
H4 C6 1_555 1_555
C7 C1 1_555 1_555
H5 C7 1_555 1_555
C8 C6 1_555 1_555
H6 C8 1_555 1_555
C9 O6 1_555 1_555
C10 H7 1_555 1_555
C11 N3 1_555 1_555
H8 C11 1_555 1_555
C12 C8 1_555 1_555
C13 H9 1_555 1_555
H10 C13 1_555 1_555
H11 C13 1_555 1_555
C14 C13 1_555 1_555
N4 C14 1_555 1_555
Dy1_2 O2 1_555 1_555
Dy1B O7 1_555 1_555
O2_2 Dy1 1_555 1_555
O7B Dy1 1_555 1_555
O8B Dy1 1_555 1_555
O9C Dy1 1_555 1_555
N1 O5 1_555 1_555
O8 C9 1_555 1_555
O8 Dy1B 1_555 1_555
C5 C7 1_555 1_555
C9 C12 1_555 1_555
C10 C11 1_555 1_555
C10 C12 1_555 1_555
Dy1B O8B 1_555 1_555

#END
