
#######################################################################
#
#                 Cambridge Crystallographic Data Centre
#                                CCDC 
#
#######################################################################
#
# If this CIF has been generated from an entry in the Cambridge 
# Structural Database, then it will include bibliographic, chemical, 
# crystal, experimental, refinement or atomic coordinate data resulting 
# from the CCDC's data processing and validation procedures.
#
#######################################################################

data_OVIZID
_chemical_formula_moiety         '(C44 H48 N6 Ni3 O24)n'
_symmetry_cell_setting           monoclinic
_symmetry_space_group_name_H-M   'C 2/c'
_symmetry_Int_Tables_number      15
_space_group_name_Hall           '-C 2yc'
loop_
_symmetry_equiv_pos_site_id
_symmetry_equiv_pos_as_xyz
1 x,y,z
2 -x,y,1/2-z
3 1/2+x,1/2+y,z
4 1/2-x,1/2+y,1/2-z
5 -x,-y,-z
6 x,-y,1/2+z
7 1/2-x,1/2-y,-z
8 1/2+x,1/2-y,1/2+z
_cell_length_a                   15.3745(10)
_cell_length_b                   20.4521(14)
_cell_length_c                   18.0331(13)
_cell_angle_alpha                90
_cell_angle_beta                 93.104(4)
_cell_angle_gamma                90
_cell_volume                     5662.02
loop_
_atom_site_label
_atom_site_type_symbol
_atom_site_fract_x
_atom_site_fract_y
_atom_site_fract_z
_atom_site_U_iso_or_equiv
_atom_site_thermal_displace_type
Ni1 Ni 1.24369(3) 0.48080(3) 0.28943(3) 0.0391 Uani
O1 O 1.27713(19) 0.57520(16) 0.26165(18) 0.0527 Uani
C1 C 1.1022(2) 0.50124(19) 0.3961(2) 0.0355 Uani
Ni2 Ni 1.5000 0.5000 0.5000 0.0392 Uani
O2 O 1.2214(3) 0.6748(2) 0.2510(3) 0.0888 Uani
C2 C 1.0181(2) 0.5000(2) 0.3619(2) 0.0377 Uani
H1 H 1.0045 0.5276 0.3205 0.0450 Uiso
O3 O 1.33396(18) 0.48253(14) 0.37576(17) 0.0441 Uani
C3 C 0.9545(2) 0.4589(2) 0.3878(2) 0.0413 Uani
O4 O 1.37565(17) 0.53650(15) 0.47818(16) 0.0452 Uani
C4 C 0.9730(2) 0.4184(2) 0.4483(2) 0.0412 Uani
H2 H 0.9295 0.3904 0.4662 0.0490 Uiso
O5 O 0.85782(18) 0.48500(15) 0.28675(16) 0.0443 Uani
N1 N 1.7046(2) 0.88630(16) 0.32138(19) 0.0422 Uani
C5 C 1.0564(2) 0.4197(2) 0.4822(2) 0.0400 Uani
O6 O 0.8053(2) 0.4302(3) 0.3809(2) 0.0897 Uani
C6 C 1.1204(2) 0.4605(2) 0.4561(2) 0.0396 Uani
H3 H 1.1771 0.4604 0.4797 0.0470 Uiso
O7 O 1.0173(2) 0.33968(17) 0.56865(19) 0.0628 Uani
C7 C 0.8650(3) 0.4581(2) 0.3491(2) 0.0473 Uani
O8 O 1.1470(2) 0.3864(3) 0.5856(3) 0.0954 Uani
N2 N 1.17092(19) 0.54032(16) 0.36706(17) 0.0370 Uani
C8 C 1.0784(3) 0.3787(2) 0.5490(2) 0.0506 Uani
O9 O 1.3288(2) 0.4421(2) 0.2151(2) 0.0647 Uani
N3 N 1.5514(2) 0.58878(17) 0.4667(2) 0.0453 Uani
C9 C 1.2376(2) 0.5626(2) 0.4246(2) 0.0394 Uani
H4 H 1.2126 0.5596 0.4740 0.0470 Uiso
H5 H 1.2511 0.6091 0.4156 0.0470 Uiso
O10 O 1.4907(2) 0.53548(17) 0.60949(19) 0.0566 Uani
C10 C 1.3222(2) 0.52359(17) 0.4264(2) 0.0359 Uani
C11 C 1.1440(2) 0.5962(2) 0.3191(2) 0.0427 Uani
H6 H 1.1263 0.6333 0.3502 0.0510 Uiso
H7 H 1.0935 0.5836 0.2858 0.0510 Uiso
C12 C 1.2194(3) 0.6171(2) 0.2727(3) 0.0539 Uani
C13 C 1.6220(3) 0.8655(2) 0.3092(2) 0.0462 Uani
H8 H 1.5834 0.8917 0.2790 0.0550 Uiso
C14 C 1.7584(3) 0.8466(2) 0.3613(3) 0.0507 Uani
H9 H 1.8173 0.8597 0.3703 0.0600 Uiso
C15 C 1.5905(3) 0.8090(2) 0.3377(3) 0.0493 Uani
H10 H 1.5310 0.7975 0.3288 0.0590 Uiso
C16 C 1.7323(3) 0.7879(2) 0.3899(3) 0.0557 Uani
H11 H 1.7733 0.7607 0.4164 0.0660 Uiso
C17 C 1.6461(3) 0.7684(2) 0.3800(3) 0.0473 Uani
C18 C 1.6140(3) 0.7065(2) 0.4118(3) 0.0488 Uani
C19 C 1.5372(3) 0.7041(2) 0.4494(3) 0.0584 Uani
H12 H 1.5050 0.7428 0.4571 0.0700 Uiso
C20 C 1.6585(3) 0.6478(2) 0.4034(3) 0.0545 Uani
H13 H 1.7115 0.6471 0.3785 0.0650 Uiso
C21 C 1.5087(3) 0.6450(2) 0.4751(3) 0.0579 Uani
H14 H 1.4560 0.6441 0.5002 0.0700 Uiso
C22 C 1.6260(2) 0.59185(16) 0.43082(19) 0.0531 Uani
H15 H 1.6576 0.5525 0.4245 0.0630 Uiso
H16 H 1.0402 0.3068 0.5920 0.1090 Uiso
Ni1D Ni 1.75631(3) 0.51920(3) 0.71057(3) 0.0391 Uani
Ni1A Ni 0.75631(3) 0.48080(3) 0.21057(3) 0.0391 Uani
Ni1B Ni 1.74369(3) 0.98080(3) 0.28943(3) 0.0391 Uani
Ni1E Ni 2.24369(3) 0.51920(3) 0.78943(3) 0.0391 Uani
Ni1F Ni 1.25631(3) 0.01920(3) 0.71057(3) 0.0391 Uani
O1D O 1.72287(19) 0.42480(16) 0.73835(18) 0.0527 Uani
C1D C 1.8978(2) 0.49876(19) 0.6039(2) 0.0355 Uani
O2D O 1.7786(3) 0.3252(2) 0.7490(3) 0.0888 Uani
C2D C 1.9819(2) 0.5000(2) 0.6381(2) 0.0377 Uani
H1D H 1.9955 0.4724 0.6795 0.0450 Uiso
O3D O 1.66604(18) 0.51747(14) 0.62424(17) 0.0441 Uani
C3D C 2.0455(2) 0.5411(2) 0.6122(2) 0.0413 Uani
O4D O 1.62435(17) 0.46350(15) 0.52182(16) 0.0452 Uani
C4D C 2.0270(2) 0.5816(2) 0.5517(2) 0.0412 Uani
H2D H 2.0705 0.6096 0.5338 0.0490 Uiso
O5D O 2.14218(18) 0.51500(15) 0.71325(16) 0.0443 Uani
O5A O 1.14218(18) 0.48500(15) 0.21325(16) 0.0443 Uani
O5E O 1.85782(18) 0.51500(15) 0.78675(16) 0.0443 Uani
N1D N 1.2954(2) 0.11370(16) 0.67862(19) 0.0422 Uani
N1B N 1.2046(2) 0.38630(16) 0.32138(19) 0.0422 Uani
N1F N 1.7954(2) 0.61370(16) 0.67862(19) 0.0422 Uani
C5D C 1.9436(2) 0.5803(2) 0.5178(2) 0.0400 Uani
O6D O 2.1947(2) 0.5698(3) 0.6191(2) 0.0897 Uani
C6D C 1.8796(2) 0.5395(2) 0.5439(2) 0.0396 Uani
H3D H 1.8229 0.5396 0.5203 0.0470 Uiso
O7D O 1.9827(2) 0.66032(17) 0.43135(19) 0.0628 Uani
C7D C 2.1350(3) 0.5419(2) 0.6509(2) 0.0473 Uani
O8D O 1.8530(2) 0.6136(3) 0.4144(3) 0.0954 Uani
N2D N 1.82908(19) 0.45968(16) 0.63294(17) 0.0370 Uani
C8D C 1.9216(3) 0.6213(2) 0.4510(2) 0.0506 Uani
O9D O 1.6712(2) 0.5579(2) 0.7849(2) 0.0647 Uani
N3D N 1.4486(2) 0.41122(17) 0.5333(2) 0.0453 Uani
C9D C 1.7624(2) 0.4374(2) 0.5754(2) 0.0394 Uani
H4D H 1.7874 0.4404 0.5260 0.0470 Uiso
H5D H 1.7489 0.3909 0.5844 0.0470 Uiso
O10D O 1.5093(2) 0.46452(17) 0.39051(19) 0.0566 Uani
C10D C 1.6778(2) 0.47641(17) 0.5736(2) 0.0359 Uani
C11D C 1.8560(2) 0.4038(2) 0.6809(2) 0.0427 Uani
H6D H 1.8737 0.3667 0.6498 0.0510 Uiso
H7D H 1.9065 0.4164 0.7142 0.0510 Uiso
C12D C 1.7806(3) 0.3829(2) 0.7273(3) 0.0539 Uani
C13D C 1.3780(3) 0.1345(2) 0.6908(2) 0.0462 Uani
H8D H 1.4166 0.1083 0.7210 0.0550 Uiso
C14D C 1.2416(3) 0.1534(2) 0.6387(3) 0.0507 Uani
H9D H 1.1827 0.1403 0.6297 0.0600 Uiso
C15D C 1.4095(3) 0.1910(2) 0.6623(3) 0.0493 Uani
H10D H 1.4690 0.2025 0.6712 0.0590 Uiso
C16D C 1.2677(3) 0.2121(2) 0.6101(3) 0.0557 Uani
H11D H 1.2267 0.2393 0.5836 0.0660 Uiso
C17D C 1.3539(3) 0.2316(2) 0.6200(3) 0.0473 Uani
C18D C 1.3860(3) 0.2935(2) 0.5882(3) 0.0488 Uani
C19D C 1.4628(3) 0.2959(2) 0.5506(3) 0.0584 Uani
H12D H 1.4950 0.2572 0.5429 0.0700 Uiso
C20D C 1.3415(3) 0.3522(2) 0.5966(3) 0.0545 Uani
H13D H 1.2885 0.3529 0.6215 0.0650 Uiso
C21D C 1.4913(3) 0.3550(2) 0.5249(3) 0.0579 Uani
H14D H 1.5440 0.3559 0.4998 0.0700 Uiso
C22D C 1.3740(2) 0.40815(16) 0.56918(19) 0.0531 Uani
H15D H 1.3424 0.4475 0.5755 0.0630 Uiso
H16D H 1.9598 0.6932 0.4080 0.1090 Uiso
O11 O 0.4611(14) 0.3373(10) 0.1538(12) 0.2060 Uiso
O13 O 0.5635(9) 0.6482(7) 0.2184(7) 0.1370 Uiso
O14 O 0.6803(14) 0.7746(10) 0.1054(11) 0.2430 Uiso
O15 O 0.9353(2) 0.27699(16) -0.19451(19) 0.0908 Uiso
loop_
_atom_site_aniso_label
_atom_site_aniso_U_11
_atom_site_aniso_U_22
_atom_site_aniso_U_33
_atom_site_aniso_U_23
_atom_site_aniso_U_13
_atom_site_aniso_U_12
Ni1 0.026 0.0529 0.0376 0 -0.0043 0.00159
O1 0.0368 0.062 0.0598 0.0107 0.0071 -0.0029
C1 0.0282 0.0473 0.0307 -0.0021 -0.0013 0.0003
Ni2 0.0281 0.0443 0.0442 -0.0037 -0.0082 -0.0032
O2 0.092 0.071 0.106 0.039 0.03 0.006
C2 0.028 0.056 0.0286 0.0018 -0.0039 0.0001
O3 0.0323 0.0494 0.049 -0.0059 -0.0127 0.0021
C3 0.0327 0.057 0.0342 0.0002 0.0009 -0.0024
O4 0.0296 0.0548 0.0495 -0.0008 -0.0125 -0.0007
C4 0.0363 0.052 0.0354 0.0018 0.0035 -0.0005
O5 0.0307 0.0668 0.0346 0.0027 -0.0066 -0.0053
N1 0.0369 0.0432 0.0458 -0.0021 -0.004 -0.0016
C5 0.0389 0.05 0.0309 0.0025 0.0014 0.0026
O6 0.0429 0.163 0.062 0.044 -0.0073 -0.037
C6 0.0321 0.052 0.0342 0.0028 -0.0029 0.0036
O7 0.066 0.0622 0.06 0.02 0.001 -0.0066
C7 0.0331 0.074 0.0343 0.0025 -0.0014 -0.0101
O8 0.048 0.147 0.089 0.067 -0.017 -0.005
N2 0.0289 0.0467 0.0348 0.0053 -0.0051 0.0001
C8 0.043 0.062 0.047 0.015 0.0041 0.0081
O9 0.0385 0.093 0.063 -0.0037 0.0068 0.0127
N3 0.0377 0.044 0.054 -0.0015 0.0004 -0.0018
C9 0.0299 0.047 0.0407 0.001 -0.0048 -0.002
O10 0.0449 0.07 0.0537 -0.0143 -0.0092 0.0064
C10 0.0271 0.0389 0.0406 0.0095 -0.0079 -0.0084
C11 0.0317 0.048 0.048 0.0088 -0.0028 0.0026
C12 0.051 0.057 0.054 0.015 0.005 -0.003
C13 0.0345 0.051 0.052 -0.0019 -0.0085 0.0005
C14 0.036 0.052 0.063 0.004 -0.0064 -0.0001
C15 0.036 0.051 0.06 -0.006 -0.0055 -0.0029
C16 0.04 0.055 0.071 0.008 -0.006 0.0005
C17 0.046 0.044 0.052 -0.0054 0.0032 -0.0026
C18 0.042 0.05 0.054 -0.003 -0.0008 -0.0028
C19 0.049 0.046 0.081 -0.007 0.012 0
C20 0.045 0.059 0.06 0.005 0.007 0.0025
C21 0.044 0.052 0.079 -0.009 0.016 -0.0035
C22 0.04 0.051 0.068 0.006 0.001 0.0059
Ni1D 0.026 0.0529 0.0376 0 -0.0043 0.00159
Ni1A 0.0260(3) 0.0529(3) 0.0376(3) 0.0000(2) -0.0043(2) -0.00159(18)
Ni1B 0.026 0.0529 0.0376 0 -0.0043 0.00159
Ni1E 0.026 0.0529 0.0376 0 -0.0043 -0.00159
Ni1F 0.026 0.0529 0.0376 0 -0.0043 0.00159
O1D 0.0368 0.062 0.0598 0.0107 0.0071 -0.0029
C1D 0.0282 0.0473 0.0307 -0.0021 -0.0013 0.0003
O2D 0.092 0.071 0.106 0.039 0.03 0.006
C2D 0.028 0.056 0.0286 0.0018 -0.0039 0.0001
O3D 0.0323 0.0494 0.049 -0.0059 -0.0127 0.0021
C3D 0.0327 0.057 0.0342 0.0002 0.0009 -0.0024
O4D 0.0296 0.0548 0.0495 -0.0008 -0.0125 -0.0007
C4D 0.0363 0.052 0.0354 0.0018 0.0035 -0.0005
O5D 0.0307 0.0668 0.0346 0.0027 -0.0066 -0.0053
O5A 0.0307(14) 0.0668(18) 0.0346(14) -0.0027(12) -0.0066(11) 0.0053(12)
O5E 0.0307 0.0668 0.0346 -0.0027 -0.0066 0.0053
N1D 0.0369 0.0432 0.0458 -0.0021 -0.004 -0.0016
N1B 0.0369 0.0432 0.0458 -0.0021 -0.004 -0.0016
N1F 0.0369 0.0432 0.0458 -0.0021 -0.004 -0.0016
C5D 0.0389 0.05 0.0309 0.0025 0.0014 0.0026
O6D 0.0429 0.163 0.062 0.044 -0.0073 -0.037
C6D 0.0321 0.052 0.0342 0.0028 -0.0029 0.0036
O7D 0.066 0.0622 0.06 0.02 0.001 -0.0066
C7D 0.0331 0.074 0.0343 0.0025 -0.0014 -0.0101
O8D 0.048 0.147 0.089 0.067 -0.017 -0.005
N2D 0.0289 0.0467 0.0348 0.0053 -0.0051 0.0001
C8D 0.043 0.062 0.047 0.015 0.0041 0.0081
O9D 0.0385 0.093 0.063 -0.0037 0.0068 0.0127
N3D 0.0377 0.044 0.054 -0.0015 0.0004 -0.0018
C9D 0.0299 0.047 0.0407 0.001 -0.0048 -0.002
O10D 0.0449 0.07 0.0537 -0.0143 -0.0092 0.0064
C10D 0.0271 0.0389 0.0406 0.0095 -0.0079 -0.0084
C11D 0.0317 0.048 0.048 0.0088 -0.0028 0.0026
C12D 0.051 0.057 0.054 0.015 0.005 -0.003
C13D 0.0345 0.051 0.052 -0.0019 -0.0085 0.0005
C14D 0.036 0.052 0.063 0.004 -0.0064 -0.0001
C15D 0.036 0.051 0.06 -0.006 -0.0055 -0.0029
C16D 0.04 0.055 0.071 0.008 -0.006 0.0005
C17D 0.046 0.044 0.052 -0.0054 0.0032 -0.0026
C18D 0.042 0.05 0.054 -0.003 -0.0008 -0.0028
C19D 0.049 0.046 0.081 -0.007 0.012 0
C20D 0.045 0.059 0.06 0.005 0.007 0.0025
C21D 0.044 0.052 0.079 -0.009 0.016 -0.0035
C22D 0.04 0.051 0.068 0.006 0.001 0.0059
loop_
_geom_bond_atom_site_label_1
_geom_bond_atom_site_label_2
_geom_bond_site_symmetry_1
_geom_bond_site_symmetry_2
Ni1 O1 1_555 1_555
O1 C12 1_555 1_555
C1 C2 1_555 1_555
Ni2 O4 1_555 1_555
O2 C12 1_555 1_555
C2 H1 1_555 1_555
O3 Ni1 1_555 1_555
C3 C2 1_555 1_555
O4 C10 1_555 1_555
C4 C3 1_555 1_555
H2 C4 1_555 1_555
O5 C7 1_555 1_555
N1 C13 1_555 1_555
C5 C4 1_555 1_555
O6 C7 1_555 1_555
C6 C1 1_555 1_555
H3 C6 1_555 1_555
O7 C8 1_555 1_555
C7 C3 1_555 1_555
O8 C8 1_555 1_555
N2 Ni1 1_555 1_555
C8 C5 1_555 1_555
O9 Ni1 1_555 1_555
N3 Ni2 1_555 1_555
C9 N2 1_555 1_555
H4 C9 1_555 1_555
H5 C9 1_555 1_555
O10 Ni2 1_555 1_555
C10 O3 1_555 1_555
C11 N2 1_555 1_555
H6 C11 1_555 1_555
H7 C11 1_555 1_555
C12 C11 1_555 1_555
C13 H8 1_555 1_555
C14 N1 1_555 1_555
H9 C14 1_555 1_555
C15 C13 1_555 1_555
H10 C15 1_555 1_555
C16 C14 1_555 1_555
H11 C16 1_555 1_555
C17 C15 1_555 1_555
C18 C17 1_555 1_555
C19 C18 1_555 1_555
H12 C19 1_555 1_555
C20 C18 1_555 1_555
H13 C20 1_555 1_555
C21 N3 1_555 1_555
H14 C21 1_555 1_555
C22 N3 1_555 1_555
H15 C22 1_555 1_555
H16 O7 1_555 1_555
Ni1D O1D 1_555 1_555
Ni1A O5 1_555 1_555
Ni1B N1 1_555 1_555
Ni1E O5D 1_555 1_555
Ni1F N1D 1_555 1_555
O1D C12D 1_555 1_555
C1D C2D 1_555 1_555
O2D C12D 1_555 1_555
C2D H1D 1_555 1_555
O3D Ni1D 1_555 1_555
C3D C2D 1_555 1_555
O4D Ni2 1_555 1_555
C4D C3D 1_555 1_555
H2D C4D 1_555 1_555
O5D C7D 1_555 1_555
O5A Ni1 1_555 1_555
O5E Ni1D 1_555 1_555
N1D C13D 1_555 1_555
N1B Ni1 1_555 1_555
N1F Ni1D 1_555 1_555
C5D C4D 1_555 1_555
O6D C7D 1_555 1_555
C6D C1D 1_555 1_555
H3D C6D 1_555 1_555
O7D C8D 1_555 1_555
C7D C3D 1_555 1_555
O8D C8D 1_555 1_555
N2D Ni1D 1_555 1_555
C8D C5D 1_555 1_555
O9D Ni1D 1_555 1_555
N3D Ni2 1_555 1_555
C9D N2D 1_555 1_555
H4D C9D 1_555 1_555
H5D C9D 1_555 1_555
O10D Ni2 1_555 1_555
C10D O3D 1_555 1_555
C11D N2D 1_555 1_555
H6D C11D 1_555 1_555
H7D C11D 1_555 1_555
C12D C11D 1_555 1_555
C13D H8D 1_555 1_555
C14D N1D 1_555 1_555
H9D C14D 1_555 1_555
C15D C13D 1_555 1_555
H10D C15D 1_555 1_555
C16D C14D 1_555 1_555
H11D C16D 1_555 1_555
C17D C15D 1_555 1_555
C18D C17D 1_555 1_555
C19D C18D 1_555 1_555
H12D C19D 1_555 1_555
C20D C18D 1_555 1_555
H13D C20D 1_555 1_555
C21D N3D 1_555 1_555
H14D C21D 1_555 1_555
C22D N3D 1_555 1_555
H15D C22D 1_555 1_555
H16D O7D 1_555 1_555
C1 N2 1_555 1_555
C5 C6 1_555 1_555
C9 C10 1_555 1_555
C16 C17 1_555 1_555
C19 C21 1_555 1_555
C20 C22 1_555 1_555
C1D N2D 1_555 1_555
O4D C10D 1_555 1_555
C5D C6D 1_555 1_555
C9D C10D 1_555 1_555
C16D C17D 1_555 1_555
C19D C21D 1_555 1_555
C20D C22D 1_555 1_555

#END
