
#######################################################################
#
#                 Cambridge Crystallographic Data Centre
#                                CCDC 
#
#######################################################################
#
# If this CIF has been generated from an entry in the Cambridge 
# Structural Database, then it will include bibliographic, chemical, 
# crystal, experimental, refinement or atomic coordinate data resulting 
# from the CCDC's data processing and validation procedures.
#
#######################################################################

data_IMISIH
_chemical_formula_moiety         '(C20 H20 Cu4 I4 N12)n'
_symmetry_cell_setting           cubic
_symmetry_space_group_name_H-M   'I -4 3 d'
_symmetry_Int_Tables_number      220
_space_group_name_Hall           'I -4bd 2c 3'
loop_
_symmetry_equiv_pos_site_id
_symmetry_equiv_pos_as_xyz
1 x,y,z
2 1/2-x,-y,1/2+z
3 -x,1/2+y,1/2-z
4 1/2+x,1/2-y,-z
5 z,x,y
6 1/2+z,1/2-x,-y
7 1/2-z,-x,1/2+y
8 -z,1/2+x,1/2-y
9 y,z,x
10 -y,1/2+z,1/2-x
11 1/2+y,1/2-z,-x
12 1/2-y,-z,1/2+x
13 1/4+y,1/4+x,1/4+z
14 1/4-y,3/4-x,3/4+z
15 3/4+y,1/4-x,3/4-z
16 3/4-y,3/4+x,1/4-z
17 1/4+x,1/4+z,1/4+y
18 3/4-x,3/4+z,1/4-y
19 1/4-x,3/4-z,3/4+y
20 3/4+x,1/4-z,3/4-y
21 1/4+z,1/4+y,1/4+x
22 3/4+z,1/4-y,3/4-x
23 3/4-z,3/4+y,1/4-x
24 1/4-z,3/4-y,3/4+x
25 1/2+x,1/2+y,1/2+z
26 -x,1/2-y,z
27 1/2-x,y,-z
28 x,-y,1/2-z
29 1/2+z,1/2+x,1/2+y
30 z,-x,1/2-y
31 -z,1/2-x,y
32 1/2-z,x,-y
33 1/2+y,1/2+z,1/2+x
34 1/2-y,z,-x
35 y,-z,1/2-x
36 -y,1/2-z,x
37 3/4+y,3/4+x,3/4+z
38 3/4-y,1/4-x,1/4+z
39 1/4+y,3/4-x,1/4-z
40 1/4-y,1/4+x,3/4-z
41 3/4+x,3/4+z,3/4+y
42 1/4-x,1/4+z,3/4-y
43 3/4-x,1/4-z,1/4+y
44 1/4+x,3/4-z,1/4-y
45 3/4+z,3/4+y,3/4+x
46 1/4+z,3/4-y,1/4-x
47 1/4-z,1/4+y,3/4-x
48 3/4-z,1/4-y,1/4+x
_cell_length_a                   23.1096(10)
_cell_length_b                   23.1096(10)
_cell_length_c                   23.1096(10)
_cell_angle_alpha                90
_cell_angle_beta                 90
_cell_angle_gamma                90
_cell_volume                     12341.8
loop_
_atom_site_label
_atom_site_type_symbol
_atom_site_fract_x
_atom_site_fract_y
_atom_site_fract_z
_atom_site_U_iso_or_equiv
_atom_site_thermal_displace_type
I1 I 0.92341(3) 0.68313(3) 0.18477(3) 0.0425 Uani
Cu1 Cu 0.95853(6) 0.71043(6) 0.08157(5) 0.0420 Uani
N1 N 0.8812(4) 0.7045(4) -0.0851(4) 0.0397 Uani
N2 N 0.9153(3) 0.6777(3) 0.0103(3) 0.0310 Uani
N3 N 0.8068(3) 0.6549(4) -0.1302(3) 0.0340 Uani
C1 C 0.9138(5) 0.7106(5) -0.0378(4) 0.0433 Uani
H1 H 0.9395 0.7426 -0.0381 0.0520 Uiso
C2 C 0.8450(4) 0.6614(4) -0.0810(4) 0.0333 Uani
C3 C 0.8415(4) 0.6228(4) -0.0356(3) 0.0300 Uani
H2 H 0.8162 0.5904 -0.0364 0.0360 Uiso
C4 C 0.8770(4) 0.6342(4) 0.0112(4) 0.0340 Uani
C5 C 0.8177(5) 0.6891(5) -0.1822(5) 0.0443 Uani
H3 H 0.8020 0.6688 -0.2160 0.0670 Uiso
H4 H 0.7989 0.7269 -0.1784 0.0670 Uiso
H5 H 0.8595 0.6945 -0.1871 0.0670 Uiso
I1LA I 0.93313(3) 0.82659(3) 0.06523(3) 0.0425 Uani
I1O I 1.06687(3) 0.67341(3) 0.06523(3) 0.0425 Uani
I1Y I 1.07659(3) 0.81687(3) 0.18477(3) 0.0425 Uani
Cu1LA Cu 0.96043(6) 0.79147(6) 0.16843(5) 0.0420 Uani
Cu1O Cu 1.03957(6) 0.70853(6) 0.16843(5) 0.0420 Uani
Cu1Y Cu 1.04147(6) 0.78957(6) 0.08157(5) 0.0420 Uani
Cu1UA Cu 0.66843(5) 0.53957(6) 0.20853(6) 0.0420 Uani
Cu1Z Cu 0.54147(6) 0.71043(6) -0.08157(5) 0.0420 Uani
Cu1U Cu 0.83157(5) 0.53957(6) -0.20853(6) 0.0420 Uani
N1UA N 0.8351(4) 0.5455(4) 0.1312(4) 0.0397 Uani
N1Z N 0.6188(4) 0.7045(4) 0.0851(4) 0.0397 Uani
N1U N 0.6649(4) 0.5455(4) -0.1312(4) 0.0397 Uani
N2UA N 0.7397(3) 0.5723(3) 0.1653(3) 0.0310 Uani
N2Z N 0.5847(3) 0.6777(3) -0.0103(3) 0.0310 Uani
N2U N 0.7603(3) 0.5723(3) -0.1653(3) 0.0310 Uani
N2LA N 0.9277(3) 0.8347(3) 0.2397(3) 0.0310 Uani
N2O N 1.0723(3) 0.6653(3) 0.2397(3) 0.0310 Uani
N2Y N 1.0847(3) 0.8223(3) 0.0103(3) 0.0310 Uani
N3UA N 0.8802(3) 0.5951(4) 0.0568(3) 0.0340 Uani
N3Z N 0.6932(3) 0.6549(4) 0.1302(3) 0.0340 Uani
N3U N 0.6198(3) 0.5951(4) -0.0568(3) 0.0340 Uani
C1UA C 0.7878(4) 0.5394(5) 0.1638(5) 0.0433 Uani
C1Z C 0.5862(5) 0.7106(5) 0.0378(4) 0.0433 Uani
C1U C 0.7122(4) 0.5394(5) -0.1638(5) 0.0433 Uani
H1U H 0.7119 0.5074 -0.1895 0.0520 Uiso
H1Z H 0.5605 0.7426 0.0381 0.0520 Uiso
H1UA H 0.7881 0.5074 0.1895 0.0520 Uiso
C2UA C 0.8310(4) 0.5886(4) 0.0950(4) 0.0333 Uani
C2Z C 0.6550(4) 0.6614(4) 0.0810(4) 0.0333 Uani
C2U C 0.6690(4) 0.5886(4) -0.0950(4) 0.0333 Uani
C3U C 0.7144(3) 0.6272(4) -0.0915(4) 0.0300 Uani
C3Z C 0.6585(4) 0.6228(4) 0.0356(3) 0.0300 Uani
C3UA C 0.7856(3) 0.6272(4) 0.0915(4) 0.0300 Uani
H2U H 0.7136 0.6596 -0.0662 0.0360 Uiso
H2Z H 0.6838 0.5904 0.0364 0.0360 Uiso
H2UA H 0.7864 0.6596 0.0662 0.0360 Uiso
C4UA C 0.7388(4) 0.6158(4) 0.1270(4) 0.0340 Uani
C4Z C 0.6230(4) 0.6342(4) -0.0112(4) 0.0340 Uani
C4U C 0.7612(4) 0.6158(4) -0.1270(4) 0.0340 Uani
C5U C 0.5678(5) 0.5609(5) -0.0677(5) 0.0443 Uani
C5Z C 0.6823(5) 0.6891(5) 0.1822(5) 0.0443 Uani
C5UA C 0.9322(5) 0.5609(5) 0.0677(5) 0.0443 Uani
H3U H 0.5340 0.5812 -0.0520 0.0670 Uiso
H3Z H 0.6980 0.6688 0.2160 0.0670 Uiso
H3UA H 0.9660 0.5812 0.0520 0.0670 Uiso
H4U H 0.5716 0.5231 -0.0489 0.0670 Uiso
H4Z H 0.7011 0.7269 0.1784 0.0670 Uiso
H4UA H 0.9284 0.5231 0.0489 0.0670 Uiso
H5U H 0.5629 0.5555 -0.1095 0.0670 Uiso
H5Z H 0.6405 0.6945 0.1871 0.0670 Uiso
H5UA H 0.9371 0.5555 0.1095 0.0670 Uiso
loop_
_atom_site_aniso_label
_atom_site_aniso_U_11
_atom_site_aniso_U_22
_atom_site_aniso_U_33
_atom_site_aniso_U_23
_atom_site_aniso_U_13
_atom_site_aniso_U_12
I1 0.0482(5) 0.0434(5) 0.0360(4) -0.0007(3) -0.0003(3) 0.0004(3)
Cu1 0.0444(8) 0.0502(9) 0.0315(7) -0.0013(5) -0.0032(5) -0.0125(6)
N1 0.042(5) 0.037(5) 0.040(5) -0.003(4) -0.002(4) -0.015(4)
N2 0.032(4) 0.037(4) 0.024(4) 0.014(3) -0.006(3) -0.011(3)
N3 0.031 0.047 0.024 0.007 -0.008 -0.011
C1 0.054(7) 0.037(6) 0.039(6) 0.002(4) -0.005(5) -0.030(5)
C2 0.023(4) 0.029(5) 0.048(6) -0.008(4) 0.010(4) 0.003(3)
C3 0.048(5) 0.023(4) 0.019(4) 0.010(3) -0.011(4) -0.020(3)
C4 0.036(5) 0.023(5) 0.043(6) -0.008(4) 0.012(4) -0.015(4)
C5 0.047 0.053 0.033 0.006 0.006 -0.005
I1LA 0.0434 0.0482 0.036 -0.0003 0.0007 -0.0004
I1O 0.0434 0.0482 0.036 0.0003 -0.0007 -0.0004
I1Y 0.0482 0.0434 0.036 0.0007 0.0003 0.0004
Cu1LA 0.0502 0.0444 0.0315 -0.0032 0.0013 0.0125
Cu1O 0.0502 0.0444 0.0315 0.0032 -0.0013 0.0125
Cu1Y 0.0444 0.0502 0.0315 0.0013 0.0032 -0.0125
Cu1UA 0.0315 0.0502 0.0444 0.0125 0.0032 -0.0013
Cu1Z 0.0444 0.0502 0.0315 0.0013 -0.0032 0.0125
Cu1U 0.0315 0.0502 0.0444 -0.0125 0.0032 0.0013
N1UA 0.04 0.037 0.042 0.015 0.002 -0.003
N1Z 0.042 0.037 0.04 0.003 -0.002 0.015
N1U 0.04 0.037 0.042 -0.015 0.002 0.003
N2UA 0.024 0.037 0.032 0.011 0.006 0.014
N2Z 0.032 0.037 0.024 -0.014 -0.006 0.011
N2U 0.024 0.037 0.032 -0.011 0.006 -0.014
N2LA 0.037 0.032 0.024 -0.006 -0.014 0.011
N2O 0.037 0.032 0.024 0.006 0.014 0.011
N2Y 0.032 0.037 0.024 -0.014 0.006 -0.011
N3UA 0.024(4) 0.047(5) 0.031(4) 0.011(3) 0.008(3) 0.007(3)
N3Z 0.031 0.047 0.024 -0.007 -0.008 0.011
N3U 0.024 0.047 0.031 -0.011 0.008 -0.007
C1UA 0.039 0.037 0.054 0.03 0.005 0.002
C1Z 0.054 0.037 0.039 -0.002 -0.005 0.03
C1U 0.039 0.037 0.054 -0.03 0.005 -0.002
C2UA 0.048 0.029 0.023 -0.003 -0.01 -0.008
C2Z 0.023 0.029 0.048 0.008 0.01 -0.003
C2U 0.048 0.029 0.023 0.003 -0.01 0.008
C3U 0.019 0.023 0.048 -0.02 0.011 -0.01
C3Z 0.048 0.023 0.019 -0.01 -0.011 0.02
C3UA 0.019 0.023 0.048 0.02 0.011 0.01
C4UA 0.043 0.023 0.036 0.015 -0.012 -0.008
C4Z 0.036 0.023 0.043 0.008 0.012 0.015
C4U 0.043 0.023 0.036 -0.015 -0.012 0.008
C5U 0.033 0.053 0.047 -0.005 -0.006 -0.006
C5Z 0.047 0.053 0.033 -0.006 0.006 0.005
C5UA 0.033(6) 0.053(6) 0.047(6) 0.005(5) -0.006(5) 0.006(4)
loop_
_geom_bond_atom_site_label_1
_geom_bond_atom_site_label_2
_geom_bond_site_symmetry_1
_geom_bond_site_symmetry_2
I1 Cu1 1_555 1_555
Cu1 N2 1_555 1_555
N1 C1 1_555 1_555
N2 C1 1_555 1_555
N3 C2 1_555 1_555
C1 H1 1_555 1_555
C2 N1 1_555 1_555
C3 C2 1_555 1_555
H2 C3 1_555 1_555
C4 N2 1_555 1_555
C5 N3 1_555 1_555
H3 C5 1_555 1_555
H4 C5 1_555 1_555
H5 C5 1_555 1_555
I1LA Cu1 1_555 1_555
I1O Cu1 1_555 1_555
I1Y Cu1LA 1_555 1_555
Cu1LA I1 1_555 1_555
Cu1O I1 1_555 1_555
Cu1Y Cu1 1_555 1_555
Cu1UA N2UA 1_555 1_555
Cu1Z N2Z 1_555 1_555
Cu1U N2U 1_555 1_555
N1UA C1UA 1_555 1_555
N1Z C1Z 1_555 1_555
N1U C1U 1_555 1_555
N2UA C1UA 1_555 1_555
N2Z C1Z 1_555 1_555
N2U C1U 1_555 1_555
N2LA Cu1LA 1_555 1_555
N2O Cu1O 1_555 1_555
N2Y Cu1Y 1_555 1_555
N3UA C4 1_555 1_555
N3Z C2Z 1_555 1_555
N3U C2U 1_555 1_555
C1UA H1UA 1_555 1_555
C1Z H1Z 1_555 1_555
C1U H1U 1_555 1_555
C2UA N1UA 1_555 1_555
C2Z N1Z 1_555 1_555
C2U N1U 1_555 1_555
C3U C2U 1_555 1_555
C3Z C2Z 1_555 1_555
C3UA C2UA 1_555 1_555
H2U C3U 1_555 1_555
H2Z C3Z 1_555 1_555
H2UA C3UA 1_555 1_555
C4UA N2UA 1_555 1_555
C4Z N2Z 1_555 1_555
C4U N3 1_555 1_555
C5U N3U 1_555 1_555
C5Z N3Z 1_555 1_555
C5UA N3UA 1_555 1_555
H3U C5U 1_555 1_555
H3Z C5Z 1_555 1_555
H3UA C5UA 1_555 1_555
H4U C5U 1_555 1_555
H4Z C5Z 1_555 1_555
H4UA C5UA 1_555 1_555
H5U C5U 1_555 1_555
H5Z C5Z 1_555 1_555
H5UA C5UA 1_555 1_555
Cu1 Cu1LA 1_555 1_555
Cu1 Cu1O 1_555 1_555
C3 C4 1_555 1_555
I1LA Cu1LA 1_555 1_555
I1LA Cu1Y 1_555 1_555
I1O Cu1O 1_555 1_555
I1O Cu1Y 1_555 1_555
I1Y Cu1O 1_555 1_555
I1Y Cu1Y 1_555 1_555
Cu1LA Cu1O 1_555 1_555
Cu1LA Cu1Y 1_555 1_555
Cu1O Cu1Y 1_555 1_555
N2U C4U 1_555 1_555
N3UA C2UA 1_555 1_555
N3Z C4UA 1_555 1_555
N3U C4Z 1_555 1_555
C3U C4U 1_555 1_555
C3Z C4Z 1_555 1_555
C3UA C4UA 1_555 1_555

#END
