
#######################################################################
#
#                 Cambridge Crystallographic Data Centre
#                                CCDC 
#
#######################################################################
#
# If this CIF has been generated from an entry in the Cambridge 
# Structural Database, then it will include bibliographic, chemical, 
# crystal, experimental, refinement or atomic coordinate data resulting 
# from the CCDC's data processing and validation procedures.
#
#######################################################################

data_IMISED
_chemical_formula_moiety         '(C20 H20 Br4 Cu4 N12)n'
_symmetry_cell_setting           cubic
_symmetry_space_group_name_H-M   'I -4 3 d'
_symmetry_Int_Tables_number      220
_space_group_name_Hall           'I -4bd 2c 3'
loop_
_symmetry_equiv_pos_site_id
_symmetry_equiv_pos_as_xyz
1 x,y,z
2 1/2-x,-y,1/2+z
3 -x,1/2+y,1/2-z
4 1/2+x,1/2-y,-z
5 z,x,y
6 1/2+z,1/2-x,-y
7 1/2-z,-x,1/2+y
8 -z,1/2+x,1/2-y
9 y,z,x
10 -y,1/2+z,1/2-x
11 1/2+y,1/2-z,-x
12 1/2-y,-z,1/2+x
13 1/4+y,1/4+x,1/4+z
14 1/4-y,3/4-x,3/4+z
15 3/4+y,1/4-x,3/4-z
16 3/4-y,3/4+x,1/4-z
17 1/4+x,1/4+z,1/4+y
18 3/4-x,3/4+z,1/4-y
19 1/4-x,3/4-z,3/4+y
20 3/4+x,1/4-z,3/4-y
21 1/4+z,1/4+y,1/4+x
22 3/4+z,1/4-y,3/4-x
23 3/4-z,3/4+y,1/4-x
24 1/4-z,3/4-y,3/4+x
25 1/2+x,1/2+y,1/2+z
26 -x,1/2-y,z
27 1/2-x,y,-z
28 x,-y,1/2-z
29 1/2+z,1/2+x,1/2+y
30 z,-x,1/2-y
31 -z,1/2-x,y
32 1/2-z,x,-y
33 1/2+y,1/2+z,1/2+x
34 1/2-y,z,-x
35 y,-z,1/2-x
36 -y,1/2-z,x
37 3/4+y,3/4+x,3/4+z
38 3/4-y,1/4-x,1/4+z
39 1/4+y,3/4-x,1/4-z
40 1/4-y,1/4+x,3/4-z
41 3/4+x,3/4+z,3/4+y
42 1/4-x,1/4+z,3/4-y
43 3/4-x,1/4-z,1/4+y
44 1/4+x,3/4-z,1/4-y
45 3/4+z,3/4+y,3/4+x
46 1/4+z,3/4-y,1/4-x
47 1/4-z,1/4+y,3/4-x
48 3/4-z,1/4-y,1/4+x
_cell_length_a                   23.020(3)
_cell_length_b                   23.020(3)
_cell_length_c                   23.020(3)
_cell_angle_alpha                90
_cell_angle_beta                 90
_cell_angle_gamma                90
_cell_volume                     12198.8
loop_
_atom_site_label
_atom_site_type_symbol
_atom_site_fract_x
_atom_site_fract_y
_atom_site_fract_z
_atom_site_U_iso_or_equiv
_atom_site_thermal_displace_type
Br1 Br 0.18318(4) 0.31631(3) 0.07492(4) 0.0471 Uani
Cu1 Cu 0.20923(6) 0.41868(5) 0.04069(5) 0.0459 Uani
N1 N 0.1793(3) 0.4904(3) 0.0849(3) 0.0333 Uani
N2 N 0.2047(3) 0.5841(3) 0.1185(3) 0.0390 Uani
N3 N 0.1550(3) 0.6308(3) 0.1929(3) 0.0337 Uani
C1 C 0.2122(5) 0.5367(4) 0.0868(5) 0.0467 Uani
H1 H 0.2455 0.5362 0.0625 0.0560 Uiso
C2 C 0.1617(3) 0.5813(4) 0.1539(4) 0.0327 Uani
C3 C 0.1228(4) 0.5360(4) 0.1573(4) 0.0350 Uani
H2 H 0.0906 0.5367 0.1832 0.0420 Uiso
C4 C 0.1332(4) 0.4897(3) 0.1212(3) 0.0293 Uani
C5 C 0.1907(4) 0.6823(4) 0.1814(4) 0.0437 Uani
H3 H 0.1658 0.7169 0.1803 0.0650 Uiso
H4 H 0.2197 0.6867 0.2123 0.0650 Uiso
H5 H 0.2105 0.6778 0.1440 0.0650 Uiso
Br1SA Br 0.32492(4) 0.43369(3) 0.06682(4) 0.0471 Uani
Br1W Br 0.17508(4) 0.43369(3) -0.06682(4) 0.0471 Uani
Br1Z Br 0.31682(4) 0.31631(3) -0.07492(4) 0.0471 Uani
Cu1SA Cu 0.29069(5) 0.33132(5) 0.04077(6) 0.0459 Uani
Cu1W Cu 0.20931(5) 0.33132(5) -0.04077(6) 0.0459 Uani
Cu1R Cu 0.04077(6) 0.70931(5) 0.16868(5) 0.0459 Uani
Cu1Z Cu 0.29077(6) 0.41868(5) -0.04069(5) 0.0459 Uani
Cu1AA Cu 0.20923(6) 0.58132(5) 0.45931(5) 0.0459 Uani
Cu1OA Cu 0.04077(6) 0.29069(5) 0.33132(5) 0.0459 Uani
N1R N 0.0707(3) 0.6651(3) 0.2404(3) 0.0333 Uani
N1AA N 0.1793(3) 0.5096(3) 0.4151(3) 0.0333 Uani
N1OA N 0.0707(3) 0.3349(3) 0.2596(3) 0.0333 Uani
N1SA N 0.3349(3) 0.2596(3) 0.0707(3) 0.0333 Uani
N1W N 0.1651(3) 0.2596(3) -0.0707(3) 0.0333 Uani
N1Z N 0.3207(3) 0.4904(3) -0.0849(3) 0.0333 Uani
N2R N 0.0453(3) 0.6315(3) 0.3341(3) 0.0390 Uani
N2AA N 0.2047(3) 0.4159(3) 0.3815(3) 0.0390 Uani
N2OA N 0.0453(3) 0.3685(3) 0.1659(3) 0.0390 Uani
N3R N 0.0950(3) 0.5571(3) 0.3808(3) 0.0337 Uani
N3AA N 0.1550(3) 0.3692(3) 0.3071(3) 0.0337 Uani
N3OA N 0.0950(3) 0.4429(3) 0.1192(3) 0.0337 Uani
C1R C 0.0378(5) 0.6632(5) 0.2867(4) 0.0467 Uani
C1AA C 0.2122(5) 0.4633(4) 0.4132(5) 0.0467 Uani
C1OA C 0.0378(5) 0.3368(5) 0.2133(4) 0.0467 Uani
H1OA H 0.0045 0.3125 0.2138 0.0560 Uiso
H1AA H 0.2455 0.4638 0.4375 0.0560 Uiso
H1R H 0.0045 0.6875 0.2862 0.0560 Uiso
C2R C 0.0883(3) 0.5961(4) 0.3313(4) 0.0327 Uani
C2AA C 0.1617(3) 0.4187(4) 0.3461(4) 0.0327 Uani
C2OA C 0.0883(3) 0.4039(4) 0.1687(4) 0.0327 Uani
C3OA C 0.1272(4) 0.4073(4) 0.2140(4) 0.0350 Uani
C3AA C 0.1228(4) 0.4640(4) 0.3427(4) 0.0350 Uani
C3R C 0.1272(4) 0.5927(4) 0.2860(4) 0.0350 Uani
H2OA H 0.1594 0.4332 0.2133 0.0420 Uiso
H2AA H 0.0906 0.4633 0.3168 0.0420 Uiso
H2R H 0.1594 0.5668 0.2867 0.0420 Uiso
C4R C 0.1168(4) 0.6288(3) 0.2397(3) 0.0293 Uani
C4AA C 0.1332(4) 0.5103(3) 0.3788(3) 0.0293 Uani
C4OA C 0.1168(4) 0.3712(3) 0.2603(3) 0.0293 Uani
C5R C 0.0593(4) 0.5686(4) 0.4323(4) 0.0437 Uani
C5AA C 0.1907(4) 0.3177(4) 0.3186(4) 0.0437 Uani
C5OA C 0.0593(4) 0.4314(4) 0.0677(4) 0.0437 Uani
H3R H 0.0842 0.5697 0.4669 0.0650 Uiso
H3AA H 0.1658 0.2831 0.3197 0.0650 Uiso
H3OA H 0.0842 0.4303 0.0331 0.0650 Uiso
H4R H 0.0303 0.5377 0.4367 0.0650 Uiso
H4AA H 0.2197 0.3133 0.2877 0.0650 Uiso
H4OA H 0.0303 0.4623 0.0633 0.0650 Uiso
H5R H 0.0395 0.6060 0.4278 0.0650 Uiso
H5AA H 0.2105 0.3222 0.3560 0.0650 Uiso
H5OA H 0.0395 0.3940 0.0722 0.0650 Uiso
loop_
_atom_site_aniso_label
_atom_site_aniso_U_11
_atom_site_aniso_U_22
_atom_site_aniso_U_33
_atom_site_aniso_U_23
_atom_site_aniso_U_13
_atom_site_aniso_U_12
Br1 0.0469(5) 0.0416(4) 0.0529(5) -0.0032(3) -0.0031(4) 0.0044(4)
Cu1 0.0559(8) 0.0340(6) 0.0479(7) -0.0013(5) 0.0110(6) 0.0041(5)
N1 0.036(3) 0.024(3) 0.040(4) -0.003(3) 0.018(3) -0.017(3)
N2 0.039(4) 0.045(4) 0.033(3) -0.011(3) 0.008(3) -0.002(4)
N3 0.047 0.017 0.037 -0.004 0.015 -0.004
C1 0.057(6) 0.039(5) 0.044(5) -0.015(4) 0.024(5) -0.016(4)
C2 0.029(4) 0.039(4) 0.030(4) 0.006(4) -0.003(3) 0.009(3)
C3 0.036(4) 0.034(4) 0.035(4) -0.013(4) 0.010(3) -0.008(4)
C4 0.036(4) 0.027(3) 0.025(3) -0.002(3) 0.006(3) 0.001(3)
C5 0.031 0.044 0.056 -0.004 0.007 -0.008
Br1SA 0.0529 0.0416 0.0469 0.0044 0.0031 0.0032
Br1W 0.0529 0.0416 0.0469 -0.0044 0.0031 -0.0032
Br1Z 0.0469 0.0416 0.0529 0.0032 -0.0031 -0.0044
Cu1SA 0.0479 0.034 0.0559 0.0041 -0.011 0.0013
Cu1W 0.0479 0.034 0.0559 -0.0041 -0.011 -0.0013
Cu1R 0.0559 0.0479 0.034 0.0013 -0.0041 0.011
Cu1Z 0.0559 0.034 0.0479 0.0013 0.011 -0.0041
Cu1AA 0.0559 0.034 0.0479 -0.0013 -0.011 -0.0041
Cu1OA 0.0559 0.0479 0.034 0.0013 0.0041 -0.011
N1R 0.036 0.04 0.024 0.003 0.017 0.018
N1AA 0.036 0.024 0.04 -0.003 -0.018 0.017
N1OA 0.036 0.04 0.024 0.003 -0.017 -0.018
N1SA 0.04 0.024 0.036 -0.017 -0.018 0.003
N1W 0.04 0.024 0.036 0.017 -0.018 -0.003
N1Z 0.036 0.024 0.04 0.003 0.018 0.017
N2R 0.039 0.033 0.045 0.011 0.002 0.008
N2AA 0.039 0.045 0.033 -0.011 -0.008 0.002
N2OA 0.039 0.033 0.045 0.011 -0.002 -0.008
N3R 0.047 0.037 0.017 0.004 0.004 0.015
N3AA 0.047 0.017 0.037 -0.004 -0.015 0.004
N3OA 0.047(4) 0.037(4) 0.017(3) 0.004(3) -0.004(3) -0.015(3)
C1R 0.057 0.044 0.039 0.015 0.016 0.024
C1AA 0.057 0.039 0.044 -0.015 -0.024 0.016
C1OA 0.057 0.044 0.039 0.015 -0.016 -0.024
C2R 0.029 0.03 0.039 -0.006 -0.009 -0.003
C2AA 0.029 0.039 0.03 0.006 0.003 -0.009
C2OA 0.029 0.03 0.039 -0.006 0.009 0.003
C3OA 0.036 0.035 0.034 0.013 -0.008 -0.01
C3AA 0.036 0.034 0.035 -0.013 -0.01 0.008
C3R 0.036 0.035 0.034 0.013 0.008 0.01
C4R 0.036 0.025 0.027 0.002 -0.001 0.006
C4AA 0.036 0.027 0.025 -0.002 -0.006 -0.001
C4OA 0.036 0.025 0.027 0.002 0.001 -0.006
C5R 0.031 0.056 0.044 0.004 0.008 0.007
C5AA 0.031 0.044 0.056 -0.004 -0.007 0.008
C5OA 0.031(4) 0.056(5) 0.044(5) 0.004(5) -0.008(4) -0.007(4)
loop_
_geom_bond_atom_site_label_1
_geom_bond_atom_site_label_2
_geom_bond_site_symmetry_1
_geom_bond_site_symmetry_2
Br1 Cu1 1_555 1_555
Cu1 N1 1_555 1_555
N1 C1 1_555 1_555
N2 C1 1_555 1_555
N3 C2 1_555 1_555
C1 H1 1_555 1_555
C2 N2 1_555 1_555
C3 C2 1_555 1_555
H2 C3 1_555 1_555
C4 N1 1_555 1_555
C5 N3 1_555 1_555
H3 C5 1_555 1_555
H4 C5 1_555 1_555
H5 C5 1_555 1_555
Br1SA Cu1 1_555 1_555
Br1W Cu1 1_555 1_555
Br1Z Cu1SA 1_555 1_555
Cu1SA Br1 1_555 1_555
Cu1W Br1 1_555 1_555
Cu1R N1R 1_555 1_555
Cu1Z Cu1 1_555 1_555
Cu1AA N1AA 1_555 1_555
Cu1OA N1OA 1_555 1_555
N1R C1R 1_555 1_555
N1AA C1AA 1_555 1_555
N1OA C1OA 1_555 1_555
N1SA Cu1SA 1_555 1_555
N1W Cu1W 1_555 1_555
N1Z Cu1Z 1_555 1_555
N2R C1R 1_555 1_555
N2AA C1AA 1_555 1_555
N2OA C1OA 1_555 1_555
N3R C2R 1_555 1_555
N3AA C2AA 1_555 1_555
N3OA C4 1_555 1_555
C1R H1R 1_555 1_555
C1AA H1AA 1_555 1_555
C1OA H1OA 1_555 1_555
C2R N2R 1_555 1_555
C2AA N2AA 1_555 1_555
C2OA N2OA 1_555 1_555
C3OA C2OA 1_555 1_555
C3AA C2AA 1_555 1_555
C3R C2R 1_555 1_555
H2OA C3OA 1_555 1_555
H2AA C3AA 1_555 1_555
H2R C3R 1_555 1_555
C4R N3 1_555 1_555
C4AA N1AA 1_555 1_555
C4OA N1OA 1_555 1_555
C5R N3R 1_555 1_555
C5AA N3AA 1_555 1_555
C5OA N3OA 1_555 1_555
H3R C5R 1_555 1_555
H3AA C5AA 1_555 1_555
H3OA C5OA 1_555 1_555
H4R C5R 1_555 1_555
H4AA C5AA 1_555 1_555
H4OA C5OA 1_555 1_555
H5R C5R 1_555 1_555
H5AA C5AA 1_555 1_555
H5OA C5OA 1_555 1_555
Cu1 Cu1SA 1_555 1_555
Cu1 Cu1W 1_555 1_555
C3 C4 1_555 1_555
Br1SA Cu1SA 1_555 1_555
Br1SA Cu1Z 1_555 1_555
Br1W Cu1W 1_555 1_555
Br1W Cu1Z 1_555 1_555
Br1Z Cu1W 1_555 1_555
Br1Z Cu1Z 1_555 1_555
Cu1SA Cu1W 1_555 1_555
Cu1SA Cu1Z 1_555 1_555
Cu1W Cu1Z 1_555 1_555
N1R C4R 1_555 1_555
N3R C4AA 1_555 1_555
N3AA C4OA 1_555 1_555
N3OA C2OA 1_555 1_555
C3OA C4OA 1_555 1_555
C3AA C4AA 1_555 1_555
C3R C4R 1_555 1_555

#END
