
#######################################################################
#
#                 Cambridge Crystallographic Data Centre
#                                CCDC 
#
#######################################################################
#
# If this CIF has been generated from an entry in the Cambridge 
# Structural Database, then it will include bibliographic, chemical, 
# crystal, experimental, refinement or atomic coordinate data resulting 
# from the CCDC's data processing and validation procedures.
#
#######################################################################

data_XADFEP
_chemical_formula_moiety         '(C18 H24 N4 Ni2 O16)n'
_symmetry_cell_setting           monoclinic
_symmetry_space_group_name_H-M   'C 2/c'
_symmetry_Int_Tables_number      15
_space_group_name_Hall           '-C 2yc'
loop_
_symmetry_equiv_pos_site_id
_symmetry_equiv_pos_as_xyz
1 x,y,z
2 -x,y,1/2-z
3 1/2+x,1/2+y,z
4 1/2-x,1/2+y,1/2-z
5 -x,-y,-z
6 x,-y,1/2+z
7 1/2-x,1/2-y,-z
8 1/2+x,1/2-y,1/2+z
_cell_length_a                   11.742(2)
_cell_length_b                   16.066(3)
_cell_length_c                   14.376(3)
_cell_angle_alpha                90
_cell_angle_beta                 104.25(3)
_cell_angle_gamma                90
_cell_volume                     2628.54
loop_
_atom_site_label
_atom_site_type_symbol
_atom_site_fract_x
_atom_site_fract_y
_atom_site_fract_z
Ni1 Ni 0.24878(10) 0.25114(7) -0.25466(8)
O1 O 0.1488(5) 0.1627(3) -0.3394(4)
O2 O 0.0989(6) 0.2175(4) -0.4864(4)
O3 O -0.1447(5) 0.1604(3) -0.6719(4)
O4 O -0.1720(7) 0.1914(4) -0.5296(5)
O5 O 0.2679(5) 0.3157(4) -0.3761(4)
H1 H 0.2168 0.3014 -0.4274
H2 H 0.3340 0.3317 -0.3921
O6 O 0.2160(5) 0.1811(4) -0.1466(4)
H3 H 0.2214 0.1278 -0.1500
H4 H 0.2013 0.1935 -0.0927
N1 N 0.0992(6) 0.3255(4) -0.2554(5)
N2 N -0.1016(6) 0.6764(4) -0.2528(5)
C1 C 0.0000 0.4540(7) -0.2500
C2 C 0.0975(7) 0.4081(5) -0.2577(6)
H5 H 0.1641 0.4363 -0.2646
C3 C 0.0000 0.2889(8) -0.2500
H6 H 0.0000 0.2310 -0.2500
C4 C 0.0000 0.5458(7) -0.2500
C5 C -0.1005(7) 0.5934(5) -0.2532(6)
H7 H -0.1706 0.5656 -0.2557
C6 C 0.0000 0.7143(8) -0.2500
H8 H 0.0000 0.7722 -0.2500
C7 C 0.0443(7) 0.0790(5) -0.4654(6)
C8 C -0.0578(7) 0.0727(5) -0.5416(6)
C9 C 0.0979(7) 0.0050(5) -0.4258(6)
H9 H 0.1641 0.0085 -0.3748
C10 C 0.1004(8) 0.1594(5) -0.4278(7)
C11 C -0.1292(8) 0.1482(5) -0.5823(7)
Ni1D Ni -0.24878(10) -0.25114(7) -0.74534(8)
Ni1G Ni -0.25122(10) 0.24886(7) -0.75466(8)
Ni1B Ni -0.25122(10) 0.75114(7) -0.25466(8)
Ni1C Ni 0.25122(10) -0.24886(7) -0.24534(8)
Ni1A Ni -0.24878(10) 0.25114(7) -0.24534(8)
Ni1C_2 Ni 0.25122(10) 0.75114(7) -0.24534(8)
O1D O -0.1488(5) -0.1627(3) -0.6606(4)
O2D O -0.0989(6) -0.2175(4) -0.5136(4)
O3D O 0.1447(5) -0.1604(3) -0.3281(4)
O3G O 0.3553(5) 0.3396(3) -0.1719(4)
O3C O -0.3553(5) -0.3396(3) -0.8281(4)
O4D O 0.1720(7) -0.1914(4) -0.4704(5)
O5D O -0.2679(5) -0.3157(4) -0.6239(4)
H1D H -0.2168 -0.3014 -0.5726
H2D H -0.3340 -0.3317 -0.6079
O6D O -0.2160(5) -0.1811(4) -0.8534(4)
H3D H -0.2214 -0.1278 -0.8500
H4D H -0.2013 -0.1935 -0.9073
N1A N -0.0992(6) 0.3255(4) -0.2446(5)
N1D N -0.0992(6) -0.3255(4) -0.7446(5)
N2A N 0.1016(6) 0.6764(4) -0.2472(5)
N2B N 0.3984(6) 0.1764(4) -0.2528(5)
N2F N -0.3984(6) -0.1764(4) -0.7472(5)
C2A C -0.0975(7) 0.4081(5) -0.2423(6)
H5A H -0.1641 0.4363 -0.2354
C5A C 0.1005(7) 0.5934(5) -0.2468(6)
H7A H 0.1706 0.5656 -0.2443
C7D C -0.0443(7) -0.0790(5) -0.5346(6)
C8D C 0.0578(7) -0.0727(5) -0.4584(6)
C9D C -0.0979(7) -0.0050(5) -0.5742(6)
H9D H -0.1641 -0.0085 -0.6252
C10D C -0.1004(8) -0.1594(5) -0.5722(7)
C11D C 0.1292(8) -0.1482(5) -0.4177(7)
O7 O 0.6980(7) 0.4844(4) 0.3480(5)
H10 H 0.7365 0.4995 0.4058
H11 H 0.7509 0.4749 0.3165
O8 O 0.5000 0.5652(6) 0.2500
H13 H 0.5604 0.5845 0.2329
H13A H 0.4396 0.5845 0.2671
O9 O 0.3639(9) 0.9783(6) 0.0250(8)
H14 H 0.4053 1.0242 0.0402
H15 H 0.4136 0.9402 0.0155
O10 O 0.4527(8) 0.1372(5) 0.9995(8)
H16 H 0.4659 0.0864 1.0207
H17 H 0.5061 0.1500 0.9713
loop_
_geom_bond_atom_site_label_1
_geom_bond_atom_site_label_2
_geom_bond_site_symmetry_1
_geom_bond_site_symmetry_2
Ni1 O1 1_555 1_555
O1 C10 1_555 1_555
O2 C10 1_555 1_555
O3 C11 1_555 1_555
O4 C11 1_555 1_555
O5 Ni1 1_555 1_555
H1 O5 1_555 1_555
H2 O5 1_555 1_555
O6 Ni1 1_555 1_555
H3 O6 1_555 1_555
H4 O6 1_555 1_555
N1 Ni1 1_555 1_555
N2 C5 1_555 1_555
C1 C2 1_555 1_555
C2 N1 1_555 1_555
H5 C2 1_555 1_555
C3 N1 1_555 1_555
H6 C3 1_555 1_555
C4 C1 1_555 1_555
C5 C4 1_555 1_555
H7 C5 1_555 1_555
C6 N2 1_555 1_555
H8 C6 1_555 1_555
C7 C8 1_555 1_555
C8 C11 1_555 1_555
C9 C7 1_555 1_555
H9 C9 1_555 1_555
C10 C7 1_555 1_555
O7 H10 1_555 1_555
H11 O7 1_555 1_555
O8 H13 1_555 1_555
O9 H14 1_555 1_555
H15 O9 1_555 1_555
O10 H16 1_555 1_555
H17 O10 1_555 1_555
Ni1D O1D 1_555 1_555
Ni1G O3 1_555 1_555
Ni1B N2 1_555 1_555
Ni1C O3D 1_555 1_555
Ni1A N1A 1_555 1_555
Ni1C_2 N2A 1_555 1_555
O1D C10D 1_555 1_555
O2D C10D 1_555 1_555
O3D C11D 1_555 1_555
O3G Ni1 1_555 1_555
O3C Ni1D 1_555 1_555
O4D C11D 1_555 1_555
O5D Ni1D 1_555 1_555
H1D O5D 1_555 1_555
H2D O5D 1_555 1_555
O6D Ni1D 1_555 1_555
H3D O6D 1_555 1_555
H4D O6D 1_555 1_555
N1A C3 1_555 1_555
N1D Ni1D 1_555 1_555
N2A C6 1_555 1_555
N2B Ni1 1_555 1_555
N2F Ni1D 1_555 1_555
C2A C1 1_555 1_555
H5A C2A 1_555 1_555
C5A C4 1_555 1_555
H7A C5A 1_555 1_555
C7D C8D 1_555 1_555
C8D C9 1_555 1_555
C9D C8 1_555 1_555
H9D C9D 1_555 1_555
C10D C7D 1_555 1_555
C11D C8D 1_555 1_555
H13A O8 1_555 1_555
N1A C2A 1_555 1_555
N2A C5A 1_555 1_555
C7D C9D 1_555 1_555

#END
