
#######################################################################
#
#                 Cambridge Crystallographic Data Centre
#                                CCDC 
#
#######################################################################
#
# If this CIF has been generated from an entry in the Cambridge 
# Structural Database, then it will include bibliographic, chemical, 
# crystal, experimental, refinement or atomic coordinate data resulting 
# from the CCDC's data processing and validation procedures.
#
#######################################################################

data_GADFAV
_chemical_formula_moiety         '(C24 H4 Cl12 La2 O14)n'
_symmetry_cell_setting           monoclinic
_symmetry_space_group_name_H-M   'C 2/m'
_symmetry_Int_Tables_number      12
_space_group_name_Hall           '-C 2y'
loop_
_symmetry_equiv_pos_site_id
_symmetry_equiv_pos_as_xyz
1 x,y,z
2 -x,y,-z
3 1/2+x,1/2+y,z
4 1/2-x,1/2+y,-z
5 -x,-y,-z
6 x,-y,z
7 1/2-x,1/2-y,-z
8 1/2+x,1/2-y,z
_cell_length_a                   8.8870(16)
_cell_length_b                   25.0530(19)
_cell_length_c                   10.0390(17)
_cell_angle_alpha                90
_cell_angle_beta                 101.565(3)
_cell_angle_gamma                90
_cell_volume                     2189.77
loop_
_atom_site_label
_atom_site_type_symbol
_atom_site_fract_x
_atom_site_fract_y
_atom_site_fract_z
C1 C 0.3505(5) 0.26685(16) 0.2478(5)
C2 C 0.3024(5) 0.25817(16) 0.3795(4)
C3 C 0.2601(5) 0.30109(16) 0.4527(4)
C4 C 0.2949(5) 0.20754(17) 0.4327(4)
C5 C -0.0000 0.1159(2) 0.0000
C6 C 0.0000 0.0565(2) 0.0000
C7 C 0.0241(5) 0.02670(16) 0.1279(4)
Cl1 Cl 0.26937(12) 0.36493(4) 0.38424(11)
Cl2 Cl 0.35364(12) 0.15378(4) 0.34406(10)
Cl3 Cl 0.04586(13) 0.06292(4) 0.27250(11)
La1 La -0.0000 0.23412(2) 0.0000
O1 O 0.2668(3) 0.25516(11) 0.1341(3)
O2 O 0.4887(3) 0.28225(12) 0.2482(3)
O3 O -0.1251(3) 0.14100(11) -0.0061(3)
O4 O 0.0000 0.33256(17) 0.0000
H1 H -0.1030 0.3456 0.0037
H2 H 0.0697 0.3626 0.0215
C1F C 0.1495(5) 0.23315(16) 0.7522(5)
C2F C 0.1976(5) 0.24183(16) 0.6205(4)
C3F C 0.2399(5) 0.19891(16) 0.5473(4)
C4F C 0.2051(5) 0.29246(17) 0.5673(4)
Cl1F Cl 0.23063(12) 0.13507(4) 0.61576(11)
Cl2F Cl 0.14636(12) 0.34622(4) 0.65594(10)
O1F O 0.2332(3) 0.24484(11) 0.8659(3)
O2F O 0.0113(3) 0.21775(12) 0.7518(3)
C7A C -0.0241(5) 0.02670(16) -0.1279(4)
Cl3A Cl -0.04586(13) 0.06292(4) -0.27250(11)
O3A O 0.1251(3) 0.14100(11) 0.0061(3)
C5D C 0.0000 -0.1159(2) 0.0000
C6D C 0.0000 -0.0565(2) 0.0000
C7D C -0.0241(5) -0.02670(16) -0.1279(4)
Cl3D Cl -0.04586(13) -0.06292(4) -0.27250(11)
O3D O 0.1251(3) -0.14100(11) 0.0061(3)
C7E C 0.0241(5) -0.02670(16) 0.1279(4)
Cl3E Cl 0.04586(13) -0.06292(4) 0.27250(11)
O3E O -0.1251(3) -0.14100(11) -0.0061(3)
C1A C -0.3505(5) 0.26685(16) -0.2478(5)
C2A C -0.3024(5) 0.25817(16) -0.3795(4)
C3A C -0.2601(5) 0.30109(16) -0.4527(4)
C4A C -0.2949(5) 0.20754(17) -0.4327(4)
Cl1A Cl -0.26937(12) 0.36493(4) -0.38424(11)
Cl2A Cl -0.35364(12) 0.15378(4) -0.34406(10)
O1A O -0.2668(3) 0.25516(11) -0.1341(3)
O2A O -0.4887(3) 0.28225(12) -0.2482(3)
C1G C -0.1495(5) 0.23315(16) -0.7522(5)
C2G C -0.1976(5) 0.24183(16) -0.6205(4)
C3G C -0.2399(5) 0.19891(16) -0.5473(4)
C4G C -0.2051(5) 0.29246(17) -0.5673(4)
Cl1G Cl -0.23063(12) 0.13507(4) -0.61576(11)
Cl2G Cl -0.14636(12) 0.34622(4) -0.65594(10)
O1G O -0.2332(3) 0.24484(11) -0.8659(3)
O2G O -0.0113(3) 0.21775(12) -0.7518(3)
La1D La 0.0000 -0.23412(2) 0.0000
O4D O -0.0000 -0.33256(17) 0.0000
H1D H 0.1030 -0.3456 -0.0037
H2D H -0.0697 -0.3626 -0.0215
La1_2 La 0.0000 0.23412(2) -1.0000
La1_3 La 0.0000 0.23412(2) 1.0000
La1F La -0.5000 0.26588(2) -1.0000
La1F_2 La -0.5000 0.26588(2) 0.0000
La1F_3 La 0.5000 0.26588(2) 0.0000
La1F_4 La 0.5000 0.26588(2) 1.0000
O1B O -0.2332(3) -0.24484(11) 0.1341(3)
O1C O 0.2332(3) -0.24484(11) -0.1341(3)
O1D O -0.2668(3) -0.25516(11) -0.1341(3)
O1E O 0.2668(3) -0.25516(11) 0.1341(3)
O1F_2 O 0.2332(3) 0.24484(11) -0.1341(3)
O1G_2 O -0.2332(3) 0.24484(11) 0.1341(3)
O2B O -0.0113(3) -0.21775(12) 0.2482(3)
O2C O 0.0113(3) -0.21775(12) -0.2482(3)
O2F_2 O 0.0113(3) 0.21775(12) -0.2482(3)
O2G_2 O -0.0113(3) 0.21775(12) 0.2482(3)
loop_
_geom_bond_atom_site_label_1
_geom_bond_atom_site_label_2
_geom_bond_site_symmetry_1
_geom_bond_site_symmetry_2
C1 C2 1_555 1_555
C2 C3 1_555 1_555
C3 Cl1 1_555 1_555
C4 C2 1_555 1_555
C5 C6 1_555 1_555
C6 C7 1_555 1_555
C7 Cl3 1_555 1_555
Cl2 C4 1_555 1_555
La1 O1 1_555 1_555
O1 C1 1_555 1_555
O2 C1 1_555 1_555
O3 C5 1_555 1_555
O4 La1 1_555 1_555
H1 O4 1_555 1_555
H2 O4 1_555 1_555
C1F C2F 1_555 1_555
C2F C3F 1_555 1_555
C3F C4 1_555 1_555
C4F C3 1_555 1_555
Cl1F C3F 1_555 1_555
Cl2F C4F 1_555 1_555
O1F C1F 1_555 1_555
O2F C1F 1_555 1_555
C7A C6 1_555 1_555
Cl3A C7A 1_555 1_555
O3A C5 1_555 1_555
C5D C6D 1_555 1_555
C6D C7D 1_555 1_555
C7D C7A 1_555 1_555
Cl3D C7D 1_555 1_555
O3D C5D 1_555 1_555
C7E C7 1_555 1_555
Cl3E C7E 1_555 1_555
O3E C5D 1_555 1_555
C1A C2A 1_555 1_555
C2A C3A 1_555 1_555
C3A Cl1A 1_555 1_555
C4A C2A 1_555 1_555
Cl2A C4A 1_555 1_555
O1A La1 1_555 1_555
O2A C1A 1_555 1_555
C1G C2G 1_555 1_555
C2G C3G 1_555 1_555
C3G C4A 1_555 1_555
C4G C3A 1_555 1_555
Cl1G C3G 1_555 1_555
Cl2G C4G 1_555 1_555
O1G C1G 1_555 1_555
O2G C1G 1_555 1_555
La1D O3D 1_555 1_555
O4D La1D 1_555 1_555
H1D O4D 1_555 1_555
H2D O4D 1_555 1_555
La1_2 O1G 1_555 1_555
La1_3 O1F 1_555 1_555
La1F O1G 1_555 1_555
La1F_2 O1A 1_555 1_555
La1F_3 O1 1_555 1_555
La1F_4 O1F 1_555 1_555
O1B La1D 1_555 1_555
O1C La1D 1_555 1_555
O1D La1D 1_555 1_555
O1E La1D 1_555 1_555
O1F_2 La1 1_555 1_555
O1G_2 La1 1_555 1_555
O2B La1D 1_555 1_555
O2C La1D 1_555 1_555
O2F_2 La1 1_555 1_555
O2G_2 La1 1_555 1_555
La1 O3 1_555 1_555
La1 O3A 1_555 1_555
O2 La1F_3 1_555 1_555
C2F C4F 1_555 1_555
O2F La1_3 1_555 1_555
C6D C7E 1_555 1_555
O3E La1D 1_555 1_555
C1A O1A 1_555 1_555
O2A La1F_2 1_555 1_555
C2G C4G 1_555 1_555
O2G La1_2 1_555 1_555
La1F_2 O1G_2 1_555 1_555
La1F_3 O1F_2 1_555 1_555

#END
