
#######################################################################
#
#                 Cambridge Crystallographic Data Centre
#                                CCDC 
#
#######################################################################
#
# If this CIF has been generated from an entry in the Cambridge 
# Structural Database, then it will include bibliographic, chemical, 
# crystal, experimental, refinement or atomic coordinate data resulting 
# from the CCDC's data processing and validation procedures.
#
#######################################################################

data_IJOMOJ06
_chemical_formula_moiety         '(C12 H12 Mn6 O24)n'
_symmetry_cell_setting           monoclinic
_symmetry_space_group_name_H-M   'P 21/c'
_symmetry_Int_Tables_number      14
_space_group_name_Hall           '-P 2ybc'
loop_
_symmetry_equiv_pos_site_id
_symmetry_equiv_pos_as_xyz
1 x,y,z
2 -x,1/2+y,1/2-z
3 -x,-y,-z
4 x,1/2-y,1/2+z
_cell_length_a                   11.7261(13)
_cell_length_b                   10.1761(11)
_cell_length_c                   18.724(3)
_cell_angle_alpha                90
_cell_angle_beta                 127.190(3)
_cell_angle_gamma                90
_cell_volume                     1779.89
loop_
_atom_site_label
_atom_site_type_symbol
_atom_site_fract_x
_atom_site_fract_y
_atom_site_fract_z
Mn1 Mn 0.37386(3) 0.08001(3) 0.13100(2)
Mn2 Mn 0.57382(3) -0.10573(3) 0.31365(2)
Mn3 Mn 0.5000 0.0000 0.0000
Mn4 Mn 0.0000 0.0000 0.0000
O1 O 0.44193(14) 0.20171(14) 0.24749(10)
O2 O 0.54951(16) 0.06758(15) 0.36659(11)
O3 O 0.59039(14) -0.00538(14) 0.21847(11)
O4 O 0.67831(16) 0.00495(16) 0.14126(11)
O5 O 0.45238(15) 0.25867(14) 0.10655(10)
O6 O 0.47985(16) 0.21138(16) 0.00071(11)
O7 O 0.34568(14) -0.08064(14) 0.19641(11)
O8 O 0.11031(15) -0.11057(16) 0.12359(12)
O9 O 0.33557(14) -0.02942(15) 0.02076(10)
O10 O 0.11773(15) -0.10715(16) -0.03522(12)
O11 O 0.16004(14) 0.15922(15) 0.06090(10)
O12 O 0.19999(15) 0.37428(15) 0.09299(11)
C1 C 0.4990(2) 0.1752(2) 0.32888(16)
C2 C 0.6906(2) -0.0115(2) 0.21057(17)
C3 C 0.4695(2) 0.2885(2) 0.04740(17)
C4 C 0.2367(2) -0.1330(2) 0.18513(17)
C5 C 0.2257(2) -0.1014(2) -0.03208(17)
C6 C 0.1209(2) 0.2783(2) 0.05464(16)
H1 H 0.504(2) 0.243(2) 0.3634(16)
H2 H 0.785(3) -0.035(3) 0.2650(18)
H3 H 0.474(3) 0.380(3) 0.0391(18)
H4 H 0.261(2) -0.200(2) 0.2319(17)
H5 H 0.231(2) -0.156(2) -0.0712(18)
H6 H 0.024(2) 0.297(2) 0.0174(16)
Mn1B Mn 0.62614(3) -0.08001(3) -0.13100(2)
Mn1A Mn 0.62614(3) -0.41999(3) 0.36900(2)
Mn1B_2 Mn -0.37386(3) -0.08001(3) -0.13100(2)
Mn2B Mn 0.42618(3) 0.10573(3) -0.31365(2)
Mn2A Mn 0.42618(3) 0.39427(3) 0.18635(2)
Mn2C Mn 0.57382(3) -0.39427(3) -0.18635(2)
Mn2A_2 Mn 0.42618(3) -0.60573(3) 0.18635(2)
Mn2B_2 Mn -0.57382(3) 0.10573(3) -0.31365(2)
Mn4_2 Mn 1.0000 0.0000 0.0000
Mn4A Mn 1.0000 -0.5000 0.5000
O1A O 0.55807(14) -0.29829(14) 0.25251(10)
O1B O 0.55807(14) -0.20171(14) -0.24749(10)
O1C O 0.44193(14) 0.29829(14) -0.25251(10)
O2A O 0.45049(16) -0.43242(15) 0.13341(11)
O2B O 0.45049(16) -0.06758(15) -0.36659(11)
O3B O 0.40961(14) 0.00538(14) -0.21847(11)
O4B O 0.32169(16) -0.00495(16) -0.14126(11)
O5B O 0.54762(15) -0.25867(14) -0.10655(10)
O5A O 0.54762(15) -0.24133(14) 0.39345(10)
O5C O 0.45238(15) 0.24133(14) -0.39345(10)
O6B O 0.52015(16) -0.21138(16) -0.00071(11)
O7B O -0.34568(14) 0.08064(14) -0.19641(11)
O7B_2 O 0.65432(14) 0.08064(14) -0.19641(11)
O8B O -0.11031(15) 0.11057(16) -0.12359(12)
O9B O 0.66443(14) 0.02942(15) -0.02076(10)
O10B O 0.88227(15) 0.10715(16) 0.03522(12)
O10B_2 O -0.11773(15) 0.10715(16) 0.03522(12)
O11A O 0.83996(14) -0.34078(15) 0.43910(10)
O11B O -0.16004(14) -0.15922(15) -0.06090(10)
O11B_2 O 0.83996(14) -0.15922(15) -0.06090(10)
O12A O 0.80001(15) -0.12572(15) 0.40701(11)
O12C O 0.19999(15) 0.12572(15) -0.40701(11)
C1A C 0.5010(2) -0.3248(2) 0.17112(16)
C2B C 0.3094(2) 0.0115(2) -0.21057(17)
C3B C 0.5305(2) -0.2885(2) -0.04740(17)
C4B C -0.2367(2) 0.1330(2) -0.18513(17)
C5B C 0.7743(2) 0.1014(2) 0.03208(17)
C6A C 0.8791(2) -0.2217(2) 0.44536(16)
H1A H 0.496(2) -0.257(2) 0.1366(16)
H2B H 0.215(3) 0.035(3) -0.2650(18)
H3B H 0.526(3) -0.380(3) -0.0391(18)
H4B H -0.261(2) 0.200(2) -0.2319(17)
H5B H 0.769(2) 0.156(2) 0.0712(18)
H6A H 0.976(2) -0.203(2) 0.4826(16)
loop_
_geom_bond_atom_site_label_1
_geom_bond_atom_site_label_2
_geom_bond_site_symmetry_1
_geom_bond_site_symmetry_2
Mn1 O1 1_555 1_555
Mn2 O2 1_555 1_555
Mn3 O4 1_555 1_555
Mn4 O8 1_555 1_555
O1 C1 1_555 1_555
O2 C1 1_555 1_555
O3 Mn1 1_555 1_555
O4 C2 1_555 1_555
O5 Mn1 1_555 1_555
O6 Mn3 1_555 1_555
O7 Mn1 1_555 1_555
O8 C4 1_555 1_555
O9 Mn1 1_555 1_555
O10 Mn4 1_555 1_555
O11 Mn1 1_555 1_555
O12 C6 1_555 1_555
C1 H1 1_555 1_555
C2 O3 1_555 1_555
C3 O5 1_555 1_555
C4 O7 1_555 1_555
C5 O9 1_555 1_555
C6 O11 1_555 1_555
H2 C2 1_555 1_555
H3 C3 1_555 1_555
H4 C4 1_555 1_555
H5 C5 1_555 1_555
H6 C6 1_555 1_555
Mn1B O1B 1_555 1_555
Mn1A O1A 1_555 1_555
Mn1B_2 O7B 1_555 1_555
Mn2B O1C 1_555 1_555
Mn2A O1 1_555 1_555
Mn2C O1B 1_555 1_555
Mn2A_2 O2A 1_555 1_555
Mn2B_2 O7B 1_555 1_555
Mn4_2 O10B 1_555 1_555
Mn4A O11A 1_555 1_555
O1A Mn2 1_555 1_555
O2A C1A 1_555 1_555
O2B Mn2B 1_555 1_555
O3B Mn1B 1_555 1_555
O4B Mn3 1_555 1_555
O5B Mn1B 1_555 1_555
O5A Mn2 1_555 1_555
O5C Mn2B 1_555 1_555
O6B Mn3 1_555 1_555
O7B C4B 1_555 1_555
O7B_2 Mn1B 1_555 1_555
O8B Mn4 1_555 1_555
O9B Mn3 1_555 1_555
O10B C5B 1_555 1_555
O10B_2 Mn4 1_555 1_555
O11A Mn1A 1_555 1_555
O11B Mn4 1_555 1_555
O11B_2 Mn1B 1_555 1_555
O12A Mn2 1_555 1_555
O12C Mn2B 1_555 1_555
C1A O1A 1_555 1_555
C2B O3B 1_555 1_555
C3B O5B 1_555 1_555
C4B O8B 1_555 1_555
C5B O9B 1_555 1_555
C6A O11A 1_555 1_555
H1A C1A 1_555 1_555
H2B C2B 1_555 1_555
H3B C3B 1_555 1_555
H4B C4B 1_555 1_555
H5B C5B 1_555 1_555
H6A C6A 1_555 1_555
Mn2 O3 1_555 1_555
Mn2 O7 1_555 1_555
Mn3 O9 1_555 1_555
Mn4 O11 1_555 1_555
O5 Mn2A 1_555 1_555
O6 C3 1_555 1_555
O10 C5 1_555 1_555
O12 Mn2A 1_555 1_555
Mn1B O9B 1_555 1_555
Mn1A O5A 1_555 1_555
Mn1B_2 O11B 1_555 1_555
Mn2B O3B 1_555 1_555
Mn2B O7B_2 1_555 1_555
Mn2C O5B 1_555 1_555
Mn4_2 O11B_2 1_555 1_555
O4B C2B 1_555 1_555
O6B C3B 1_555 1_555
O12A C6A 1_555 1_555

#END
