
#######################################################################
#
#                 Cambridge Crystallographic Data Centre
#                                CCDC 
#
#######################################################################
#
# If this CIF has been generated from an entry in the Cambridge 
# Structural Database, then it will include bibliographic, chemical, 
# crystal, experimental, refinement or atomic coordinate data resulting 
# from the CCDC's data processing and validation procedures.
#
#######################################################################

data_WIHVAL
_chemical_formula_moiety         '(C18 H26 Cl2 Mn6 O26)n'
_symmetry_cell_setting           monoclinic
_symmetry_space_group_name_H-M   'P 21'
_symmetry_Int_Tables_number      4
_space_group_name_Hall           'P 2yb'
loop_
_symmetry_equiv_pos_site_id
_symmetry_equiv_pos_as_xyz
1 x,y,z
2 -x,1/2+y,-z
_cell_length_a                   11.7856(2)
_cell_length_b                   10.1959(2)
_cell_length_c                   18.7133(4)
_cell_angle_alpha                90
_cell_angle_beta                 127.1550(10)
_cell_angle_gamma                90
_cell_volume                     1792.21
loop_
_atom_site_label
_atom_site_type_symbol
_atom_site_fract_x
_atom_site_fract_y
_atom_site_fract_z
Mn1 Mn 1.42710(11) 0.93307(10) 0.43727(7)
Mn2 Mn 1.37144(11) 0.62075(9) 0.38115(7)
Mn3 Mn 0.99695(13) 0.54154(18) 0.25221(9)
Mn4 Mn 0.62228(10) 0.45677(10) 0.11876(7)
Mn5 Mn 0.57701(11) 0.14347(10) 0.06444(7)
Mn6 Mn 1.49305(15) 0.54004(18) 0.24799(10)
C1 C 1.5101(8) 0.7145(9) 0.5829(5)
H1 H 1.5213 0.7827 0.6196
C2 C 1.4641(8) 0.8287(8) 0.2968(5)
H2 H 1.4706 0.9176 0.2885
C3 C 1.3143(7) 1.0204(7) 0.5417(4)
H3 H 1.2247 0.9967 0.4909
C4 C 1.1207(8) 0.8201(8) 0.3116(6)
H4 H 1.0236 0.8376 0.2771
C5 C 1.2183(7) 0.4459(8) 0.2127(5)
H5 H 1.2212 0.3911 0.1740
C6 C 1.7604(8) 0.8991(8) 0.5666(5)
H6 H 1.7423 0.8320 0.5274
C7 C 0.8787(8) 0.2699(9) 0.1915(5)
H7 H 0.9765 0.2571 0.2258
C8 C 0.7719(7) 0.6395(8) 0.2860(5)
H8 H 0.7656 0.6928 0.3239
C9 C 0.7564(8) 0.6821(8) 0.0718(5)
H9 H 0.7361 0.7492 0.0320
C10 C 0.4955(8) 0.3617(8) -0.0794(5)
H10 H 0.4900 0.2934 -0.1143
C11 C 1.5240(7) 0.2523(8) 0.2003(5)
H11 H 1.5154 0.1639 0.2087
C12 C 1.3063(7) 0.5506(9) 0.0389(5)
H12 H 1.2157 0.5673 -0.0134
O1 O 1.4459(5) 0.7424(5) 0.4997(3)
O2 O 1.5576(5) 0.6085(6) 0.6186(3)
O3 O 1.4474(5) 0.7981(5) 0.3551(3)
O4 O 1.4727(6) 0.7489(6) 0.2486(4)
O5 O 1.4152(5) 1.0320(5) 0.5349(3)
O6 O 1.3297(5) 1.0393(6) 0.6133(3)
O7 O 1.2020(5) 0.9139(5) 0.3487(3)
O8 O 1.1585(5) 0.6985(5) 0.3165(3)
O9 O 1.3275(5) 0.5147(5) 0.2680(3)
O10 O 1.1056(5) 0.4474(6) 0.2070(3)
O11 O 1.6537(5) 0.9582(6) 0.5522(3)
O12 O 1.8877(5) 0.9235(6) 0.6291(4)
O13 O 0.8374(5) 0.3832(5) 0.1877(3)
O14 O 0.8009(5) 0.1701(5) 0.1536(3)
O15 O 0.8839(5) 0.6402(6) 0.2966(3)
O16 O 0.6599(5) 0.5715(5) 0.2271(3)
O17 O 0.8818(5) 0.6643(6) 0.1338(3)
O18 O 0.6508(5) 0.6183(5) 0.0560(3)
O19 O 0.5568(5) 0.3385(5) 0.0026(3)
O20 O 0.4410(5) 0.4704(5) -0.1178(3)
O21 O 1.5475(5) 0.2786(5) 0.1430(3)
O22 O 1.5119(5) 0.3283(5) 0.2440(3)
O23 O 1.4070(4) 0.5412(6) 0.0311(3)
O24 O 1.3164(5) 0.5401(6) 0.1074(3)
Mn1A Mn 1.57290(11) 0.43307(10) 0.56273(7)
Mn2A Mn 1.62856(11) 1.12075(9) 0.61885(7)
Mn3A Mn 2.00305(13) 1.04154(18) 0.74779(9)
Mn4_2 Mn 1.62228(10) 0.45677(10) 0.11876(7)
Mn5A Mn 0.42299(11) 0.64347(10) -0.06444(7)
Mn5_2 Mn 1.57701(11) 0.14347(10) 0.06444(7)
Mn5A_2 Mn 1.42299(11) 0.64347(10) -0.06444(7)
Mn6A Mn 1.50695(15) 1.04004(18) 0.75201(10)
Mn6_2 Mn 0.49305(15) 0.54004(18) 0.24799(10)
O2A O 1.4424(5) 1.1085(6) 0.3814(3)
O5A O 1.5848(5) 0.5320(5) 0.4651(3)
O6A O 1.6703(5) 0.5393(6) 0.3867(3)
O11A O 1.3463(5) 0.4582(6) 0.4478(3)
O12A O 1.1123(5) 0.4235(6) 0.3709(4)
O16_2 O 1.6599(5) 0.5715(5) 0.2271(3)
O18A O 0.3492(5) 0.1183(5) -0.0560(3)
O20A O 0.5590(5) -0.0296(5) 0.1178(3)
O21_2 O 0.5475(5) 0.2786(5) 0.1430(3)
O23_2 O 0.4070(4) 0.5412(6) 0.0311(3)
O23A O 0.5930(4) 0.0412(6) -0.0311(3)
Cl1 Cl 1.2336(3) 0.4864(3) 0.6306(2)
C13 C 1.0408(8) 0.7014(10) 0.5967(5)
C14 C 1.0941(7) 0.6029(7) 0.5532(5)
C15 C 1.1695(8) 0.6902(7) 0.5261(5)
O25 O 1.0680(7) 0.7832(6) 0.4609(4)
Cl2 Cl 1.1094(5) 0.9661(6) 0.1480(3)
C16 C 1.2054(11) 0.9525(14) 0.0467(8)
C17 C 1.0752(11) 0.9261(11) 0.0420(6)
C18 C 1.070(3) 0.7702(17) 0.043(2)
O27 O 1.2409(18) 1.092(2) 0.0965(14)
loop_
_geom_bond_atom_site_label_1
_geom_bond_atom_site_label_2
_geom_bond_site_symmetry_1
_geom_bond_site_symmetry_2
Mn1 O1 1_555 1_555
Mn2 O1 1_555 1_555
Mn3 O8 1_555 1_555
Mn4 O13 1_555 1_555
Mn5 O14 1_555 1_555
Mn6 O4 1_555 1_555
C1 H1 1_555 1_555
C2 H2 1_555 1_555
C3 H3 1_555 1_555
C4 H4 1_555 1_555
C5 H5 1_555 1_555
C6 H6 1_555 1_555
C7 H7 1_555 1_555
C8 H8 1_555 1_555
C9 H9 1_555 1_555
C10 H10 1_555 1_555
C11 H11 1_555 1_555
C12 H12 1_555 1_555
O1 C1 1_555 1_555
O2 C1 1_555 1_555
O3 Mn1 1_555 1_555
O4 C2 1_555 1_555
O5 Mn1 1_555 1_555
O6 C3 1_555 1_555
O7 Mn1 1_555 1_555
O8 Mn2 1_555 1_555
O9 Mn2 1_555 1_555
O10 Mn3 1_555 1_555
O11 Mn1 1_555 1_555
O12 C6 1_555 1_555
O13 Mn3 1_555 1_555
O14 C7 1_555 1_555
O15 Mn3 1_555 1_555
O16 Mn4 1_555 1_555
O17 Mn3 1_555 1_555
O18 Mn4 1_555 1_555
O19 Mn4 1_555 1_555
O20 C10 1_555 1_555
O21 C11 1_555 1_555
O22 Mn6 1_555 1_555
O23 C12 1_555 1_555
O24 Mn6 1_555 1_555
Cl1 C14 1_555 1_555
C13 C14 1_555 1_555
C14 C15 1_555 1_555
C15 O25 1_555 1_555
Cl2 C17 1_555 1_555
C16 C17 1_555 1_555
C17 C18 1_555 1_555
O27 C16 1_555 1_555
Mn1A O2 1_555 1_555
Mn2A O5 1_555 1_555
Mn3A O12 1_555 1_555
Mn4_2 O21 1_555 1_555
Mn5A O18 1_555 1_555
Mn5_2 O21 1_555 1_555
Mn5A_2 O23 1_555 1_555
Mn6A O6 1_555 1_555
Mn6_2 O16 1_555 1_555
O2A Mn1 1_555 1_555
O5A Mn2 1_555 1_555
O6A Mn6 1_555 1_555
O11A Mn2 1_555 1_555
O12A Mn3 1_555 1_555
O16_2 Mn6 1_555 1_555
O18A Mn5 1_555 1_555
O20A Mn5 1_555 1_555
O21_2 Mn4 1_555 1_555
O23_2 Mn4 1_555 1_555
O23A Mn5 1_555 1_555
Mn2 O3 1_555 1_555
Mn5 O19 1_555 1_555
Mn5 O21_2 1_555 1_555
Mn6 O9 1_555 1_555
C2 O3 1_555 1_555
C3 O5 1_555 1_555
C4 O7 1_555 1_555
C4 O8 1_555 1_555
C5 O9 1_555 1_555
C5 O10 1_555 1_555
C6 O11 1_555 1_555
C7 O13 1_555 1_555
C8 O15 1_555 1_555
C8 O16 1_555 1_555
C9 O17 1_555 1_555
C9 O18 1_555 1_555
C10 O19 1_555 1_555
C11 O22 1_555 1_555
C12 O24 1_555 1_555
O11 Mn2A 1_555 1_555
O20 Mn5A 1_555 1_555
O23 Mn4_2 1_555 1_555
Mn1A O5A 1_555 1_555
Mn1A O11A 1_555 1_555
Mn4_2 O16_2 1_555 1_555
Mn5A O23_2 1_555 1_555

#END
