
#######################################################################
#
#                 Cambridge Crystallographic Data Centre
#                                CCDC 
#
#######################################################################
#
# If this CIF has been generated from an entry in the Cambridge 
# Structural Database, then it will include bibliographic, chemical, 
# crystal, experimental, refinement or atomic coordinate data resulting 
# from the CCDC's data processing and validation procedures.
#
#######################################################################

data_NOWGIR
_chemical_formula_moiety         '(C24 H18 Ag7 Mo12 N20 O41 P1)n'
_symmetry_cell_setting           monoclinic
_symmetry_space_group_name_H-M   'C c'
_symmetry_Int_Tables_number      9
_space_group_name_Hall           'C -2yc'
loop_
_symmetry_equiv_pos_site_id
_symmetry_equiv_pos_as_xyz
1 x,y,z
2 x,-y,1/2+z
3 1/2+x,1/2+y,z
4 1/2+x,1/2-y,1/2+z
_cell_length_a                   25.4360(15)
_cell_length_b                   10.1912(3)
_cell_length_c                   26.1150(17)
_cell_angle_alpha                90
_cell_angle_beta                 114.066(3)
_cell_angle_gamma                90
_cell_volume                     6181.18
loop_
_atom_site_label
_atom_site_type_symbol
_atom_site_fract_x
_atom_site_fract_y
_atom_site_fract_z
Mo1 Mo 0.33240(5) 0.28059(10) 0.40573(5)
Mo2 Mo 0.45379(5) 0.28011(11) 0.52906(4)
Mo3 Mo 0.52945(4) 0.47631(10) 0.34573(4)
Mo4 Mo 0.41088(5) 0.28201(11) 0.31277(4)
Mo5 Mo 0.35529(4) 0.53002(11) 0.50081(4)
Mo6 Mo 0.52903(5) 0.23005(10) 0.43523(5)
Mo7 Mo 0.48328(5) 0.74200(11) 0.53674(5)
Mo8 Mo 0.35485(4) 0.79793(11) 0.40377(4)
Mo9 Mo 0.31005(4) 0.55422(11) 0.30446(4)
Mo10 Mo 0.55354(5) 0.74738(10) 0.44872(4)
Mo11 Mo 0.57747(4) 0.49647(11) 0.54136(4)
Mo12 Mo 0.42369(5) 0.74963(11) 0.31690(4)
P1 P 0.44261(13) 0.5128(3) 0.42364(13)
O1 O 0.2737(4) 0.1837(9) 0.3816(4)
O2 O 0.4748(4) 0.1654(10) 0.5779(4)
O3 O 0.5709(4) 0.4968(10) 0.3103(4)
O4 O 0.3837(4) 0.1713(9) 0.2625(4)
O5 O 0.3182(4) 0.5678(10) 0.5400(4)
O6 O 0.5754(4) 0.1079(9) 0.4565(4)
O7 O 0.4892(4) 0.8577(9) 0.5844(4)
O8 O 0.3137(4) 0.9204(9) 0.4086(4)
O9 O 0.2493(4) 0.5409(11) 0.2455(4)
O10 O 0.6042(4) 0.8468(10) 0.4452(4)
O11 O 0.6372(4) 0.4566(10) 0.5976(4)
O12 O 0.4297(4) 0.8686(9) 0.2745(4)
O13 O 0.4932(3) 0.5900(7) 0.4685(3)
O14 O 0.4016(3) 0.6109(7) 0.3807(3)
O15 O 0.4102(3) 0.4351(8) 0.4516(3)
O16 O 0.4671(4) 0.4191(7) 0.3923(3)
O17 O 0.5175(4) 0.3897(9) 0.5548(4)
O18 O 0.4283(4) 0.6294(10) 0.5390(3)
O19 O 0.5614(4) 0.3319(9) 0.3887(4)
O20 O 0.5464(4) 0.6367(9) 0.5752(3)
O21 O 0.5324(4) 0.8243(8) 0.5005(4)
O22 O 0.2948(4) 0.6984(9) 0.3390(4)
O23 O 0.3350(4) 0.6562(9) 0.4469(4)
O24 O 0.4208(4) 0.8124(9) 0.4664(4)
O25 O 0.5729(4) 0.3703(9) 0.4912(4)
O26 O 0.3034(4) 0.4316(8) 0.3528(4)
O27 O 0.4056(4) 0.3845(9) 0.5484(4)
O28 O 0.3714(4) 0.2354(8) 0.3628(4)
O29 O 0.4688(4) 0.6143(9) 0.3096(3)
O30 O 0.4739(4) 0.1726(9) 0.3673(4)
O31 O 0.4903(4) 0.7911(9) 0.3893(4)
O32 O 0.3598(4) 0.4189(9) 0.2902(4)
O33 O 0.5608(4) 0.6001(9) 0.4026(4)
O34 O 0.3528(4) 0.6749(9) 0.2739(4)
O35 O 0.6041(4) 0.6302(9) 0.5110(4)
O36 O 0.3102(4) 0.3994(9) 0.4548(3)
O37 O 0.3827(4) 0.2017(9) 0.4705(4)
O38 O 0.4883(4) 0.2135(8) 0.4775(4)
O39 O 0.4674(4) 0.3615(9) 0.2944(3)
O40 O 0.3811(4) 0.8580(9) 0.3529(4)
Ag1 Ag 0.70835(7) 0.94904(17) 0.48753(7)
Ag2 Ag 0.65614(5) 0.71191(13) 0.37828(5)
Ag3 Ag 0.59763(5) 0.69411(10) 0.16284(5)
Ag4 Ag 0.45214(4) 0.58353(10) 0.17283(6)
Ag5 Ag 0.30104(5) 0.73208(10) 0.15355(6)
Ag6 Ag 0.30008(4) 1.09689(10) 0.10971(5)
Ag7 Ag 0.45651(4) 1.22233(10) 0.18563(5)
N1 N 0.6962(6) 0.1603(18) 0.4513(6)
N2 N 0.7426(5) 0.5330(13) 0.5413(5)
N3 N 0.7445(6) 0.6615(13) 0.5539(6)
N4 N 0.7203(6) 0.7257(14) 0.5040(5)
N5 N 0.7029(5) 0.6378(14) 0.4632(5)
N6 N 0.7562(4) 0.3591(10) 0.1957(4)
N7 N 0.5882(5) 0.3010(10) 0.2100(5)
N8 N 0.5336(5) 0.3401(10) 0.1961(5)
N9 N 0.5288(4) 0.4655(10) 0.1870(4)
N10 N 0.5803(4) 0.5140(9) 0.1937(4)
N11 N 0.1382(5) 0.3386(12) 0.1325(6)
N12 N 0.3144(5) 0.2989(9) 0.1439(4)
N13 N 0.3714(4) 0.3379(10) 0.1586(5)
N14 N 0.3722(5) 0.4663(10) 0.1630(5)
N15 N 0.3186(4) 0.5133(10) 0.1510(5)
N16 N 0.6172(4) 0.8150(13) 0.2996(4)
N17 N 0.4379(5) 0.7952(9) 0.1762(5)
N18 N 0.3826(4) 0.8405(10) 0.1517(4)
N19 N 0.3831(5) 0.9680(10) 0.1533(5)
N20 N 0.4394(4) 1.0093(10) 0.1783(5)
C1 C 0.7040(6) 0.3945(19) 0.4562(5)
C2 C 0.7061(7) 0.2734(17) 0.4800(7)
H1 H 0.7150 0.2695 0.5182
C3 C 0.6843(8) 0.162(3) 0.3962(8)
H2 H 0.6760 0.0840 0.3761
C4 C 0.6843(8) 0.278(2) 0.3693(9)
H3 H 0.6752 0.2761 0.3310
C5 C 0.6976(7) 0.399(2) 0.3976(6)
H4 H 0.7020 0.4761 0.3806
C6 C 0.7163(5) 0.5229(18) 0.4865(6)
C7 C 0.6773(5) 0.4220(11) 0.2186(5)
C8 C 0.7013(5) 0.3414(12) 0.1909(5)
H5 H 0.6793 0.2736 0.1684
C9 C 0.7874(5) 0.4538(12) 0.2291(5)
H6 H 0.8244 0.4689 0.2315
C10 C 0.7664(6) 0.5325(16) 0.2610(6)
H7 H 0.7904 0.5935 0.2863
C11 C 0.7112(6) 0.5186(14) 0.2546(6)
H8 H 0.6961 0.5727 0.2739
C12 C 0.6153(5) 0.4106(11) 0.2077(5)
C13 C 0.2238(5) 0.4208(12) 0.1258(5)
C14 C 0.1945(5) 0.3279(12) 0.1426(5)
H9 H 0.2145 0.2544 0.1619
C15 C 0.1092(6) 0.4488(14) 0.1041(7)
H10 H 0.0703 0.4579 0.0964
C16 C 0.1362(8) 0.5460(16) 0.0866(7)
H11 H 0.1159 0.6189 0.0671
C17 C 0.1943(5) 0.5317(14) 0.0991(6)
H12 H 0.2136 0.5979 0.0894
C18 C 0.2851(5) 0.4081(12) 0.1391(5)
C19 C 0.5326(5) 0.8976(12) 0.2227(5)
C20 C 0.5600(6) 0.8146(12) 0.2675(6)
H13 H 0.5375 0.7540 0.2761
C21 C 0.6502(5) 0.9018(13) 0.2855(6)
H14 H 0.6901 0.9000 0.3050
C22 C 0.6265(6) 0.9878(17) 0.2450(7)
H15 H 0.6496 1.0498 0.2380
C23 C 0.5670(6) 0.9875(14) 0.2121(6)
H16 H 0.5510 1.0481 0.1832
C24 C 0.4686(5) 0.9026(11) 0.1905(5)
Ag1_2 Ag 0.70835(7) -0.05096(17) 0.48753(7)
Ag3B Ag 0.09763(5) 0.19411(10) 0.16284(5)
Ag5B Ag 0.80104(5) 0.23208(10) 0.15355(6)
Ag5C Ag 0.80104(5) 0.76792(10) 0.65355(6)
Ag6_2 Ag 0.30008(4) 0.09689(10) 0.10971(5)
Ag6C Ag 0.80008(4) 0.40311(10) 0.60971(5)
Ag7_2 Ag 0.45651(4) 0.22233(10) 0.18563(5)
N1_2 N 0.6962(6) 1.1603(18) 0.4513(6)
N2C N 0.2426(5) 0.9670(13) 0.0413(5)
N3C N 0.2445(6) 0.8385(13) 0.0539(6)
N6B N 0.2562(4) 0.8591(10) 0.1957(4)
N8_2 N 0.5336(5) 1.3401(10) 0.1961(5)
N11B N 0.6382(5) 0.8386(12) 0.1325(6)
N12_2 N 0.3144(5) 1.2989(9) 0.1439(4)
N13_2 N 0.3714(4) 1.3379(10) 0.1586(5)
O41 O 0.8557(7) 0.572(2) 0.0388(6)
H17 H 0.8697 0.6094 0.0195
H18 H 0.8352 0.5114 0.0211
loop_
_geom_bond_atom_site_label_1
_geom_bond_atom_site_label_2
_geom_bond_site_symmetry_1
_geom_bond_site_symmetry_2
Mo1 O1 1_555 1_555
Mo2 O2 1_555 1_555
Mo3 O3 1_555 1_555
Mo4 O4 1_555 1_555
Mo5 O5 1_555 1_555
Mo6 O6 1_555 1_555
Mo7 O7 1_555 1_555
Mo8 O8 1_555 1_555
Mo9 O9 1_555 1_555
Mo10 O10 1_555 1_555
Mo11 O11 1_555 1_555
Mo12 O12 1_555 1_555
P1 O13 1_555 1_555
O10 Ag1 1_555 1_555
O13 Mo7 1_555 1_555
O14 Mo8 1_555 1_555
O15 Mo1 1_555 1_555
O16 Mo3 1_555 1_555
O17 Mo2 1_555 1_555
O18 Mo5 1_555 1_555
O19 Mo3 1_555 1_555
O20 Mo7 1_555 1_555
O21 Mo7 1_555 1_555
O22 Mo8 1_555 1_555
O23 Mo5 1_555 1_555
O24 Mo7 1_555 1_555
O25 Mo6 1_555 1_555
O26 Mo1 1_555 1_555
O27 Mo2 1_555 1_555
O28 Mo1 1_555 1_555
O29 Mo3 1_555 1_555
O30 Mo4 1_555 1_555
O31 Mo10 1_555 1_555
O32 Mo4 1_555 1_555
O33 Mo3 1_555 1_555
O34 Mo9 1_555 1_555
O35 Mo10 1_555 1_555
O36 Mo1 1_555 1_555
O37 Mo1 1_555 1_555
O38 Mo2 1_555 1_555
O39 Mo3 1_555 1_555
O40 Mo8 1_555 1_555
Ag1 N4 1_555 1_555
Ag2 N5 1_555 1_555
Ag3 N10 1_555 1_555
Ag4 N9 1_555 1_555
Ag5 N15 1_555 1_555
Ag6 N19 1_555 1_555
Ag7 N20 1_555 1_555
N1 C2 1_555 1_555
N2 N3 1_555 1_555
N3 N4 1_555 1_555
N4 N5 1_555 1_555
N5 C6 1_555 1_555
N6 C8 1_555 1_555
N7 N8 1_555 1_555
N8 N9 1_555 1_555
N9 N10 1_555 1_555
N10 C12 1_555 1_555
N11 C14 1_555 1_555
N12 N13 1_555 1_555
N13 N14 1_555 1_555
N14 Ag4 1_555 1_555
N15 N14 1_555 1_555
N16 Ag2 1_555 1_555
N17 Ag4 1_555 1_555
N18 Ag5 1_555 1_555
N19 N18 1_555 1_555
N20 N19 1_555 1_555
C1 C2 1_555 1_555
C2 H1 1_555 1_555
C3 N1 1_555 1_555
H2 C3 1_555 1_555
C4 C3 1_555 1_555
H3 C4 1_555 1_555
C5 C1 1_555 1_555
H4 C5 1_555 1_555
C6 N2 1_555 1_555
C7 C8 1_555 1_555
C8 H5 1_555 1_555
C9 N6 1_555 1_555
H6 C9 1_555 1_555
C10 C9 1_555 1_555
H7 C10 1_555 1_555
C11 C7 1_555 1_555
H8 C11 1_555 1_555
C12 N7 1_555 1_555
C13 C14 1_555 1_555
C14 H9 1_555 1_555
C15 N11 1_555 1_555
H10 C15 1_555 1_555
C16 C15 1_555 1_555
H11 C16 1_555 1_555
C17 C13 1_555 1_555
H12 C17 1_555 1_555
C18 N12 1_555 1_555
C19 C20 1_555 1_555
C20 N16 1_555 1_555
H13 C20 1_555 1_555
C21 N16 1_555 1_555
H14 C21 1_555 1_555
C22 C21 1_555 1_555
H15 C22 1_555 1_555
C23 C19 1_555 1_555
H16 C23 1_555 1_555
C24 N17 1_555 1_555
O41 H17 1_555 1_555
H18 O41 1_555 1_555
Ag1_2 N1 1_555 1_555
Ag3B N11 1_555 1_555
Ag5B N6 1_555 1_555
Ag5C N3 1_555 1_555
Ag6_2 N12 1_555 1_555
Ag6C N2 1_555 1_555
Ag7_2 N8 1_555 1_555
N1_2 Ag1 1_555 1_555
N2C Ag6 1_555 1_555
N3C Ag5 1_555 1_555
N6B Ag5 1_555 1_555
N8_2 Ag7 1_555 1_555
N11B Ag3 1_555 1_555
N12_2 Ag6 1_555 1_555
N13_2 Ag7 1_555 1_555
Mo2 O15 1_555 1_555
Mo2 O37 1_555 1_555
Mo4 O16 1_555 1_555
Mo4 O28 1_555 1_555
Mo4 O39 1_555 1_555
Mo5 O15 1_555 1_555
Mo5 O27 1_555 1_555
Mo5 O36 1_555 1_555
Mo6 O16 1_555 1_555
Mo6 O19 1_555 1_555
Mo6 O30 1_555 1_555
Mo6 O38 1_555 1_555
Mo7 O18 1_555 1_555
Mo8 O23 1_555 1_555
Mo8 O24 1_555 1_555
Mo9 O14 1_555 1_555
Mo9 O22 1_555 1_555
Mo9 O26 1_555 1_555
Mo9 O32 1_555 1_555
Mo10 O13 1_555 1_555
Mo10 O21 1_555 1_555
Mo10 O33 1_555 1_555
Mo11 O13 1_555 1_555
Mo11 O17 1_555 1_555
Mo11 O20 1_555 1_555
Mo11 O25 1_555 1_555
Mo11 O35 1_555 1_555
Mo12 O14 1_555 1_555
Mo12 O29 1_555 1_555
Mo12 O31 1_555 1_555
Mo12 O34 1_555 1_555
Mo12 O40 1_555 1_555
P1 O14 1_555 1_555
P1 O15 1_555 1_555
P1 O16 1_555 1_555
N13 Ag7_2 1_555 1_555
N15 C18 1_555 1_555
N17 N18 1_555 1_555
N20 C24 1_555 1_555
C1 C6 1_555 1_555
C4 C5 1_555 1_555
C7 C12 1_555 1_555
C10 C11 1_555 1_555
C13 C18 1_555 1_555
C16 C17 1_555 1_555
C19 C24 1_555 1_555
C22 C23 1_555 1_555
N2C N3C 1_555 1_555
N12_2 N13_2 1_555 1_555

#END
