
#######################################################################
#
#                 Cambridge Crystallographic Data Centre
#                                CCDC 
#
#######################################################################
#
# If this CIF has been generated from an entry in the Cambridge 
# Structural Database, then it will include bibliographic, chemical, 
# crystal, experimental, refinement or atomic coordinate data resulting 
# from the CCDC's data processing and validation procedures.
#
#######################################################################

data_DUKDOD
_chemical_formula_moiety         '(C14 H13 Ag1 Cl1 Ho1 N2 O11)n'
_symmetry_cell_setting           monoclinic
_symmetry_space_group_name_H-M   'P 21/c'
_symmetry_Int_Tables_number      14
_space_group_name_Hall           '-P 2ybc'
loop_
_symmetry_equiv_pos_site_id
_symmetry_equiv_pos_as_xyz
1 x,y,z
2 -x,1/2+y,1/2-z
3 -x,-y,-z
4 x,1/2-y,1/2+z
_cell_length_a                   16.2158(10)
_cell_length_b                   14.9024(9)
_cell_length_c                   7.9068(5)
_cell_angle_alpha                90
_cell_angle_beta                 91.8260(10)
_cell_angle_gamma                90
_cell_volume                     1909.74
loop_
_atom_site_label
_atom_site_type_symbol
_atom_site_fract_x
_atom_site_fract_y
_atom_site_fract_z
Ho1 Ho 0.454984(11) 0.383812(12) 0.04996(2)
Ag1 Ag 0.02677(3) 0.74033(4) 0.39967(7)
C1 C 0.3677(3) 0.5808(3) 0.1378(6)
C2 C 0.2892(3) 0.6236(3) 0.1959(6)
C3 C 0.2191(3) 0.5720(3) 0.2036(7)
H1 H 0.2199 0.5117 0.1732
C4 C 0.1474(3) 0.6114(4) 0.2573(8)
H2 H 0.1002 0.5762 0.2620
C5 C 0.2111(3) 0.7470(3) 0.2936(8)
H3 H 0.2086 0.8072 0.3239
C6 C 0.2852(3) 0.7128(3) 0.2412(7)
H4 H 0.3315 0.7493 0.2366
C7 C 0.1336(3) 0.1719(4) -0.0405(7)
H5 H 0.1066 0.1176 -0.0251
C8 C 0.2120(3) 0.1707(3) -0.1043(6)
H6 H 0.2372 0.1166 -0.1302
C9 C 0.2521(3) 0.2510(3) -0.1289(5)
C10 C 0.3375(2) 0.2510(3) -0.1983(5)
C11 C 0.2125(3) 0.3295(3) -0.0872(6)
H7 H 0.2382 0.3846 -0.1017
C12 C 0.1343(3) 0.3254(3) -0.0238(6)
H8 H 0.1080 0.3787 0.0034
N1 N 0.1427(2) 0.6969(3) 0.3026(6)
N2 N 0.0950(2) 0.2480(3) 0.0001(5)
O1 O 0.4242(2) 0.6332(2) 0.0928(5)
O2 O 0.3699(2) 0.4971(2) 0.1384(4)
O3 O 0.35906(18) 0.18441(19) -0.2810(4)
O4 O 0.38257(17) 0.31880(19) -0.1691(4)
O5 O 0.54736(19) 0.5035(2) 0.1583(4)
O6 O 0.5344(2) 0.3847(2) 0.3129(4)
O7 O 0.4985(2) 0.2318(2) 0.0763(4)
H9 H 0.478(3) 0.197(2) 0.143(5)
H10 H 0.516(3) 0.200(3) 0.002(4)
C13 C 0.5691(3) 0.4589(3) 0.2876(5)
C14 C 0.6450(11) 0.4886(16) 0.388(3)
H11 H 0.6545 0.4486 0.4821
H12 H 0.6368 0.5484 0.4297
H13 H 0.6918 0.4877 0.3171
Ho1B Ho 0.545016(11) 0.616188(12) -0.04996(2)
Ho1C Ho 0.454984(11) 0.116188(12) -0.45004(2)
Ag1A Ag -0.02677(3) 0.24033(4) 0.10033(7)
N2A N -0.0950(2) 0.7480(3) 0.4999(5)
O1B O 0.5758(2) 0.3668(2) -0.0928(5)
O3C O 0.35906(18) 0.31559(19) 0.2190(4)
O5B O 0.45264(19) 0.4965(2) -0.1583(4)
Cl1 Cl 0.91931(10) 0.45924(11) 0.2560(2)
O8 O 0.8512(8) 0.4643(8) 0.3717(18)
O9 O 0.8847(9) 0.4462(8) 0.0955(12)
O10 O 0.9703(9) 0.3896(8) 0.300(2)
O11 O 0.9589(10) 0.5442(8) 0.259(2)
loop_
_geom_bond_atom_site_label_1
_geom_bond_atom_site_label_2
_geom_bond_site_symmetry_1
_geom_bond_site_symmetry_2
Ho1 O2 1_555 1_555
Ag1 N1 1_555 1_555
C1 C2 1_555 1_555
C2 C3 1_555 1_555
C3 H1 1_555 1_555
C4 C3 1_555 1_555
H2 C4 1_555 1_555
C5 H3 1_555 1_555
C6 C2 1_555 1_555
H4 C6 1_555 1_555
C7 H5 1_555 1_555
C8 C7 1_555 1_555
H6 C8 1_555 1_555
C9 C8 1_555 1_555
C10 C9 1_555 1_555
C11 C9 1_555 1_555
H7 C11 1_555 1_555
C12 C11 1_555 1_555
H8 C12 1_555 1_555
N1 C4 1_555 1_555
N2 C7 1_555 1_555
O1 C1 1_555 1_555
O2 C1 1_555 1_555
O3 C10 1_555 1_555
O4 Ho1 1_555 1_555
O5 Ho1 1_555 1_555
O6 Ho1 1_555 1_555
O7 Ho1 1_555 1_555
H9 O7 1_555 1_555
H10 O7 1_555 1_555
C13 O5 1_555 1_555
C14 C13 1_555 1_555
H11 C14 1_555 1_555
H12 C14 1_555 1_555
H13 C14 1_555 1_555
Cl1 O8 1_555 1_555
O9 Cl1 1_555 1_555
O10 Cl1 1_555 1_555
O11 Cl1 1_555 1_555
Ho1B O1 1_555 1_555
Ho1C O3 1_555 1_555
Ag1A N2 1_555 1_555
N2A Ag1 1_555 1_555
O1B Ho1 1_555 1_555
O3C Ho1 1_555 1_555
O5B Ho1 1_555 1_555
C5 C6 1_555 1_555
C5 N1 1_555 1_555
C10 O4 1_555 1_555
C12 N2 1_555 1_555
O5 Ho1B 1_555 1_555
O6 C13 1_555 1_555
Ho1B O5B 1_555 1_555

#END
