
#######################################################################
#
#                 Cambridge Crystallographic Data Centre
#                                CCDC 
#
#######################################################################
#
# If this CIF has been generated from an entry in the Cambridge 
# Structural Database, then it will include bibliographic, chemical, 
# crystal, experimental, refinement or atomic coordinate data resulting 
# from the CCDC's data processing and validation procedures.
#
#######################################################################

data_OWAVIS
_chemical_formula_moiety         '(C44 H34 N6 O29 Zn7)n'
_symmetry_cell_setting           orthorhombic
_symmetry_space_group_name_H-M   'P n a 21'
_symmetry_Int_Tables_number      33
_space_group_name_Hall           'P 2c -2n'
loop_
_symmetry_equiv_pos_site_id
_symmetry_equiv_pos_as_xyz
1 x,y,z
2 -x,-y,1/2+z
3 1/2+x,1/2-y,z
4 1/2-x,1/2+y,1/2+z
_cell_length_a                   25.117(11)
_cell_length_b                   26.607(12)
_cell_length_c                   17.479(8)
_cell_angle_alpha                90
_cell_angle_beta                 90
_cell_angle_gamma                90
_cell_volume                     11681
loop_
_atom_site_label
_atom_site_type_symbol
_atom_site_fract_x
_atom_site_fract_y
_atom_site_fract_z
Zn1 Zn 0.07901(6) 0.17102(6) 0.26089(9)
Zn2 Zn -0.27965(5) 0.19958(5) -0.28033(8)
Zn3 Zn -0.21029(5) 0.16281(5) -0.43485(8)
Zn4 Zn -0.27862(6) 0.03833(5) 0.06586(8)
Zn5 Zn 0.04563(5) 0.09438(5) 0.09869(7)
Zn6 Zn -0.34888(6) 0.07463(6) 0.22080(8)
Zn7 Zn -0.60356(6) 0.14663(6) -0.31820(8)
C1 C -0.3344(5) 0.1662(6) -0.4156(7)
C2 C -0.3806(5) 0.1518(5) -0.4572(6)
C3 C -0.4323(5) 0.1519(5) -0.4277(7)
H1 H -0.4372 0.1639 -0.3782
C4 C -0.4762(5) 0.1356(5) -0.4668(7)
C5 C -0.5295(5) 0.1361(5) -0.4324(8)
C6 C -0.4683(5) 0.1184(5) -0.5402(6)
H2 H -0.4976 0.1080 -0.5686
C7 C -0.4177(5) 0.1161(5) -0.5736(6)
C8 C -0.4113(6) 0.0972(5) -0.6563(8)
C9 C -0.3746(5) 0.1314(5) -0.5339(7)
H3 H -0.3409 0.1288 -0.5557
C10 C -0.2139(5) 0.1020(5) -0.3016(7)
C11 C -0.1990(5) 0.0555(5) -0.2575(6)
C12 C -0.2180(5) 0.0506(6) -0.1830(7)
H4 H -0.2394 0.0754 -0.1614
C13 C -0.2044(5) 0.0077(5) -0.1413(7)
C14 C -0.2230(5) 0.0038(5) -0.0584(7)
C15 C -0.1730(6) -0.0300(5) -0.1734(8)
H5 H -0.1639 -0.0582 -0.1450
C16 C -0.1556(5) -0.0248(5) -0.2481(7)
C17 C -0.1192(5) -0.0650(5) -0.2824(10)
C18 C -0.1681(5) 0.0197(5) -0.2890(7)
H6 H -0.1547 0.0242 -0.3381
C19 C -0.3310(6) 0.2343(5) -0.1511(8)
C20 C -0.3502(5) 0.2315(5) -0.0699(7)
C21 C -0.3418(5) 0.1869(5) -0.0308(7)
H7 H -0.3247 0.1603 -0.0553
C22 C -0.3583(5) 0.1815(5) 0.0430(7)
C23 C -0.3500(6) 0.1333(5) 0.0861(9)
C24 C -0.3850(5) 0.2217(5) 0.0792(7)
H8 H -0.3980 0.2179 0.1286
C25 C -0.3917(5) 0.2668(5) 0.0412(8)
C26 C -0.4156(6) 0.3101(7) 0.0804(9)
C27 C -0.3747(5) 0.2698(5) -0.0348(7)
H9 H -0.3806 0.2993 -0.0619
C28 C -0.2257(5) 0.0767(5) 0.1942(7)
C29 C -0.1780(5) 0.0950(5) 0.2381(6)
C30 C -0.1266(5) 0.0970(5) 0.2071(7)
H10 H -0.1212 0.0866 0.1569
C31 C -0.0836(5) 0.1142(5) 0.2492(6)
C32 C -0.0290(5) 0.1170(5) 0.2154(8)
C33 C -0.0912(5) 0.1272(5) 0.3242(7)
H11 H -0.0623 0.1375 0.3534
C34 C -0.1416(5) 0.1251(5) 0.3574(6)
C35 C -0.1503(6) 0.1379(5) 0.4420(7)
C36 C -0.1843(5) 0.1103(5) 0.3137(7)
H12 H -0.2181 0.1104 0.3351
C37 C -0.2218(6) 0.3188(6) -0.2349(10)
H13 H -0.2566 0.3306 -0.2489
H14 H -0.1986 0.3470 -0.2274
H15 H -0.2241 0.2997 -0.1884
C38 C -0.2000(5) 0.2858(5) -0.2983(7)
C39 C -0.1521(5) 0.2604(5) -0.3929(8)
C40 C -0.1105(8) 0.2569(7) -0.4489(10)
H16 H -0.1137 0.2256 -0.4760
H17 H -0.0765 0.2583 -0.4238
H18 H -0.1134 0.2843 -0.4843
C41 C -0.4199(7) -0.0343(6) 0.2726(10)
H19 H -0.4016 -0.0275 0.3197
H20 H -0.4379 -0.0660 0.2764
H21 H -0.4453 -0.0082 0.2630
C42 C -0.3806(5) -0.0362(5) 0.2086(7)
C43 C -0.3297(5) -0.0609(5) 0.1186(6)
C44 C -0.3038(6) -0.0934(5) 0.0613(10)
H22 H -0.2906 -0.0732 0.0200
H23 H -0.3293 -0.1172 0.0419
H24 H -0.2748 -0.1111 0.0847
N1 N -0.2212(4) 0.2437(4) -0.3209(6)
N2 N -0.1904(4) 0.2268(4) -0.3823(5)
N3 N -0.1568(4) 0.2979(4) -0.3406(6)
N4 N -0.3558(4) 0.0044(4) 0.1824(6)
N5 N -0.3232(4) -0.0121(4) 0.1231(5)
N6 N -0.3644(4) -0.0774(4) 0.1720(6)
O1 O -0.3400(4) 0.1844(4) -0.3472(5)
O2 O -0.2893(3) 0.1655(5) -0.4475(6)
O3 O -0.5329(3) 0.1499(4) -0.3627(5)
O4 O -0.5694(4) 0.1244(5) -0.4689(6)
O5 O -0.3627(4) 0.0898(4) -0.6746(5)
O6 O -0.4488(5) 0.0905(5) -0.6976(6)
O7 O -0.2403(4) 0.1336(3) -0.2684(5)
O8 O -0.1960(4) 0.1041(4) -0.3701(5)
O9 O -0.2588(4) 0.0334(4) -0.0392(5)
O10 O -0.2034(5) -0.0289(5) -0.0194(6)
O11 O -0.0966(4) -0.0533(4) -0.3458(5)
O12 O -0.1179(5) -0.1058(4) -0.2508(7)
O13 O -0.3006(4) 0.2023(4) -0.1750(5)
O14 O -0.3449(5) 0.2704(5) -0.1907(7)
O15 O -0.3252(5) 0.0984(4) 0.0530(6)
O16 O -0.3676(5) 0.1290(4) 0.1518(5)
O17 O -0.4233(5) 0.3489(4) 0.0440(7)
O18 O -0.4267(6) 0.3070(5) 0.1488(6)
O19 O -0.2178(3) 0.0620(4) 0.1269(5)
O20 O -0.2695(3) 0.0820(5) 0.2264(6)
O21 O -0.0235(3) 0.1007(4) 0.1479(5)
O22 O 0.0068(5) 0.1346(6) 0.2547(7)
O23 O -0.1105(4) 0.1405(5) 0.4846(5)
O24 O -0.1966(4) 0.1493(4) 0.4607(5)
O25 O 0.0774(9) 0.1659(9) 0.3797(9)
O26 O 0.1532(7) 0.2073(7) 0.2714(14)
O27 O 0.0428(8) 0.2385(7) 0.2882(12)
O28 O 0.0261(6) 0.0484(5) 0.0124(7)
O29 O -0.5855(5) 0.1593(4) -0.2096(6)
Zn1B Zn -0.42099(6) 0.32898(6) 0.26089(9)
Zn1A Zn -0.07901(6) -0.17102(6) -0.23911(9)
Zn3_2 Zn -0.21029(5) 0.16281(5) 0.56515(8)
Zn5B Zn -0.45437(5) 0.40562(5) 0.09869(7)
Zn5A Zn -0.04563(5) -0.09438(5) -0.40131(7)
Zn6_2 Zn -0.34888(6) 0.07463(6) -0.77920(8)
Zn7B Zn -0.10356(6) 0.35337(6) -0.31820(8)
Zn7A Zn -0.39644(6) -0.14663(6) 0.18180(8)
N3B N -0.6568(4) 0.2021(4) -0.3406(6)
N6A N -0.6356(4) 0.0774(4) -0.3280(6)
O5_2 O -0.3627(4) 0.0898(4) 0.3254(5)
O11A O 0.0966(4) 0.0533(4) 0.1542(5)
O12A O 0.1179(5) 0.1058(4) 0.2492(7)
O17B O 0.0767(5) 0.1511(4) 0.0440(7)
O18B O 0.0733(6) 0.1930(5) 0.1488(6)
O24_2 O -0.1966(4) 0.1493(4) -0.5393(5)
loop_
_geom_bond_atom_site_label_1
_geom_bond_atom_site_label_2
_geom_bond_site_symmetry_1
_geom_bond_site_symmetry_2
Zn1 O22 1_555 1_555
Zn2 N1 1_555 1_555
Zn3 N2 1_555 1_555
Zn4 N5 1_555 1_555
Zn5 O21 1_555 1_555
Zn6 N4 1_555 1_555
Zn7 O3 1_555 1_555
C1 C2 1_555 1_555
C2 C3 1_555 1_555
C3 H1 1_555 1_555
C4 C3 1_555 1_555
C5 C4 1_555 1_555
C6 C4 1_555 1_555
H2 C6 1_555 1_555
C7 C6 1_555 1_555
C8 C7 1_555 1_555
C9 C2 1_555 1_555
H3 C9 1_555 1_555
C10 C11 1_555 1_555
C11 C12 1_555 1_555
C12 H4 1_555 1_555
C13 C12 1_555 1_555
C14 C13 1_555 1_555
C15 C13 1_555 1_555
H5 C15 1_555 1_555
C16 C15 1_555 1_555
C17 C16 1_555 1_555
C18 C11 1_555 1_555
H6 C18 1_555 1_555
C19 C20 1_555 1_555
C20 C21 1_555 1_555
C21 H7 1_555 1_555
C22 C21 1_555 1_555
C23 C22 1_555 1_555
C24 C22 1_555 1_555
H8 C24 1_555 1_555
C25 C24 1_555 1_555
C26 C25 1_555 1_555
C27 C20 1_555 1_555
H9 C27 1_555 1_555
C28 C29 1_555 1_555
C29 C30 1_555 1_555
C30 H10 1_555 1_555
C31 C30 1_555 1_555
C32 C31 1_555 1_555
C33 C31 1_555 1_555
H11 C33 1_555 1_555
C34 C33 1_555 1_555
C35 C34 1_555 1_555
C36 C29 1_555 1_555
H12 C36 1_555 1_555
C37 H13 1_555 1_555
H14 C37 1_555 1_555
H15 C37 1_555 1_555
C38 C37 1_555 1_555
C39 C40 1_555 1_555
C40 H16 1_555 1_555
H17 C40 1_555 1_555
H18 C40 1_555 1_555
C41 H19 1_555 1_555
H20 C41 1_555 1_555
H21 C41 1_555 1_555
C42 C41 1_555 1_555
C43 C44 1_555 1_555
C44 H22 1_555 1_555
H23 C44 1_555 1_555
H24 C44 1_555 1_555
N1 C38 1_555 1_555
N2 C39 1_555 1_555
N3 C38 1_555 1_555
N4 C42 1_555 1_555
N5 C43 1_555 1_555
N6 C42 1_555 1_555
O1 Zn2 1_555 1_555
O2 Zn3 1_555 1_555
O3 C5 1_555 1_555
O4 C5 1_555 1_555
O5 C8 1_555 1_555
O6 C8 1_555 1_555
O7 Zn2 1_555 1_555
O8 Zn3 1_555 1_555
O9 Zn4 1_555 1_555
O10 C14 1_555 1_555
O11 C17 1_555 1_555
O12 C17 1_555 1_555
O13 Zn2 1_555 1_555
O14 C19 1_555 1_555
O15 Zn4 1_555 1_555
O16 Zn6 1_555 1_555
O17 C26 1_555 1_555
O18 C26 1_555 1_555
O19 Zn4 1_555 1_555
O20 Zn6 1_555 1_555
O21 C32 1_555 1_555
O22 C32 1_555 1_555
O23 C35 1_555 1_555
O24 C35 1_555 1_555
O25 Zn1 1_555 1_555
O26 Zn1 1_555 1_555
O27 Zn1 1_555 1_555
O28 Zn5 1_555 1_555
O29 Zn7 1_555 1_555
Zn1B O18 1_555 1_555
Zn1A O12 1_555 1_555
Zn3_2 O24 1_555 1_555
Zn5B O17 1_555 1_555
Zn5A O11 1_555 1_555
Zn6_2 O5 1_555 1_555
Zn7B N3 1_555 1_555
Zn7A N6 1_555 1_555
N3B Zn7 1_555 1_555
N6A Zn7 1_555 1_555
O5_2 Zn6 1_555 1_555
O11A Zn5 1_555 1_555
O12A Zn1 1_555 1_555
O17B Zn5 1_555 1_555
O18B Zn1 1_555 1_555
O24_2 Zn3 1_555 1_555
C1 O1 1_555 1_555
C1 O2 1_555 1_555
C7 C9 1_555 1_555
C10 O7 1_555 1_555
C10 O8 1_555 1_555
C14 O9 1_555 1_555
C16 C18 1_555 1_555
C19 O13 1_555 1_555
C23 O15 1_555 1_555
C23 O16 1_555 1_555
C25 C27 1_555 1_555
C28 O19 1_555 1_555
C28 O20 1_555 1_555
C34 C36 1_555 1_555
C39 N3 1_555 1_555
C43 N6 1_555 1_555
N1 N2 1_555 1_555
N4 N5 1_555 1_555

#END
