
#######################################################################
#
#                 Cambridge Crystallographic Data Centre
#                                CCDC 
#
#######################################################################
#
# If this CIF has been generated from an entry in the Cambridge 
# Structural Database, then it will include bibliographic, chemical, 
# crystal, experimental, refinement or atomic coordinate data resulting 
# from the CCDC's data processing and validation procedures.
#
#######################################################################

data_KOHKIC
_chemical_formula_moiety         '(C85 H53 Na1 O33 Zn6)n'
_symmetry_cell_setting           tetragonal
_symmetry_space_group_name_H-M   'I 41 2 2'
_symmetry_Int_Tables_number      98
_space_group_name_Hall           'I 4bw 2bw'
loop_
_symmetry_equiv_pos_site_id
_symmetry_equiv_pos_as_xyz
1 x,y,z
2 -y,1/2+x,1/4+z
3 1/2-x,1/2-y,1/2+z
4 1/2+y,-x,3/4+z
5 x,1/2-y,1/4-z
6 1/2+y,1/2+x,1/2-z
7 1/2-x,y,3/4-z
8 -y,-x,-z
9 1/2+x,1/2+y,1/2+z
10 1/2-y,x,3/4+z
11 -x,-y,z
12 y,1/2-x,1/4+z
13 1/2+x,-y,3/4-z
14 y,x,-z
15 -x,1/2+y,1/4-z
16 1/2-y,1/2-x,1/2-z
_cell_length_a                   32.4729(7)
_cell_length_b                   32.4729(7)
_cell_length_c                   47.6641(18)
_cell_angle_alpha                90
_cell_angle_beta                 90
_cell_angle_gamma                90
_cell_volume                     50261.3
loop_
_atom_site_label
_atom_site_type_symbol
_atom_site_fract_x
_atom_site_fract_y
_atom_site_fract_z
Zn1 Zn 0.98526(2) 1.11631(3) 0.102357(15)
Zn2 Zn 1.06697(2) 1.14893(3) 0.065380(17)
Zn3 Zn 0.97204(2) 1.17051(2) 0.045350(16)
Zn4 Zn 1.0000 1.0000 0.434680(17)
Zn5 Zn 0.910343(19) 1.01707(2) 0.455127(14)
Zn6 Zn 1.0000 1.0000 0.5000
Na1 Na 1.00944(9) 1.2500 0.1250
O1 O 0.97381(16) 1.11804(14) 0.14222(9)
O2 O 1.00804(14) 1.17703(14) 0.13734(8)
O3 O 0.96391(13) 1.02703(12) 0.40448(8)
O4 O 0.90765(13) 1.05610(12) 0.42288(8)
O5 O 0.93500(15) 1.12272(14) 0.04352(9)
O6 O 0.93042(18) 1.10458(14) 0.08909(11)
O7 O 1.11009(14) 1.18843(14) 0.07286(10)
O8 O 1.05935(14) 1.22739(13) 0.08814(9)
O9 O 0.89730(13) 0.96096(13) 0.44117(9)
O10 O 0.96342(11) 0.94679(14) 0.43301(9)
O11 O 0.93258(13) 1.21555(13) 0.04729(11)
O12 O 0.95802(13) 1.27437(12) 0.15954(10)
O13 O 0.86265(12) 1.03337(14) 0.47664(10)
O14 O 0.89081(15) 1.00886(18) 0.51572(10)
H1 H 0.9102 1.0029 0.5044
O15 O 1.08510(16) 1.10501(17) 0.08969(14)
O16 O 1.02695(16) 1.07307(15) 0.10128(12)
O17 O 1.00935(11) 1.15703(10) 0.07632(7)
H2 H 1.0100 1.1791 0.0859
O18 O 1.03255(9) 0.97334(9) 0.46768(6)
H3 H 1.0279 0.9476 0.4677
O19 O 0.95257(10) 0.95257(10) 0.5000
C1 C 0.9921(2) 1.1518(3) 0.15159(12)
C2 C 0.98607(18) 1.15987(19) 0.18287(11)
C3 C 1.0018(2) 1.19373(19) 0.19501(12)
H4 H 1.0179 1.2116 0.1844
C4 C 0.9946(2) 1.20217(19) 0.22207(12)
H5 H 1.0077 1.2248 0.2301
C5 C 0.9686(2) 1.17853(19) 0.23874(13)
C6 C 0.9523(2) 1.1420(2) 0.22585(14)
H6 H 0.9360 1.1240 0.2361
C7 C 0.9609(2) 1.1343(2) 0.19892(14)
H7 H 0.9496 1.1110 0.1906
C8 C 0.95508(19) 1.1909(2) 0.26767(12)
C9 C 0.9442(2) 1.2319(2) 0.27152(13)
H8 H 0.9440 1.2501 0.2564
C10 C 0.9338(2) 1.24533(19) 0.29812(14)
C11 C 0.9329(2) 1.2160(2) 0.32033(13)
H9 H 0.9241 1.2247 0.3379
C12 C 0.9443(2) 1.1753(2) 0.31685(13)
C13 C 0.9561(2) 1.16352(19) 0.28972(13)
H10 H 0.9639 1.1364 0.2864
C14 C 0.9415(2) 1.14520(19) 0.34066(13)
C15 C 0.9088(3) 1.1445(2) 0.35838(15)
H11 H 0.8868 1.1625 0.3562
C16 C 0.9075(2) 1.1156(2) 0.37899(14)
H12 H 0.8855 1.1160 0.3914
C17 C 0.9395(2) 1.0863(2) 0.38270(13)
C18 C 0.9720(2) 1.0894(2) 0.36532(14)
H13 H 0.9929 1.0700 0.3669
C19 C 0.9751(2) 1.1189(2) 0.34519(14)
H14 H 0.9989 1.1215 0.3345
C20 C 0.9366(2) 1.0540(2) 0.40516(13)
C21 C 0.9234(2) 1.2874(2) 0.30306(12)
C22 C 0.9046(3) 1.3108(2) 0.28256(14)
H15 H 0.8987 1.2979 0.2656
C23 C 0.8950(3) 1.3525(2) 0.28557(15)
H16 H 0.8819 1.3663 0.2711
C24 C 0.9021(2) 1.3737(2) 0.31037(13)
C25 C 0.9208(2) 1.3499(2) 0.33120(14)
H17 H 0.9252 1.3627 0.3484
C26 C 0.9322(2) 1.3089(2) 0.32748(14)
H18 H 0.9458 1.2951 0.3419
C27 C 0.9162(2) 1.1086(2) 0.06476(19)
C28 C 1.0966(2) 1.2216(2) 0.08243(14)
C29 C 1.12725(12) 1.25537(12) 0.08713(9)
C30 C 1.16917(14) 1.24792(10) 0.08411(9)
H19 H 1.1783 1.2226 0.0775
C31 C 1.19751(10) 1.27836(14) 0.09102(10)
H20 H 1.2256 1.2734 0.0890
C32 C 1.18393(12) 1.31625(12) 0.10094(9)
C33 C 1.14201(13) 1.32370(10) 0.10396(8)
H21 H 1.1329 1.3491 0.1106
C34 C 1.11367(10) 1.29326(13) 0.09705(9)
H22 H 1.0856 1.2982 0.0991
C35 C 1.21401(17) 1.34693(19) 0.11344(13)
C36 C 1.2506(2) 1.35582(19) 0.10138(13)
H23 H 1.2572 1.3441 0.0841
C37 C 1.2784(2) 1.3832(2) 0.11422(14)
C38 C 1.2662(2) 1.3994(2) 0.14007(16)
H24 H 1.2842 1.4176 0.1488
C39 C 1.2296(2) 1.39098(19) 0.15321(14)
C40 C 1.2043(2) 1.36469(19) 0.13929(14)
H25 H 1.1784 1.3592 0.1468
C41 C 1.21759(18) 1.4092(2) 0.17914(13)
C42 C 1.2261(2) 1.4477(2) 0.18724(14)
H26 H 1.2424 1.4639 0.1756
C43 C 1.2127(2) 1.4643(2) 0.21186(16)
H27 H 1.2184 1.4918 0.2157
C44 C 1.1904(2) 1.4411(2) 0.23141(15)
C45 C 1.1811(2) 1.4008(2) 0.22394(17)
H28 H 1.1662 1.3840 0.2360
C46 C 1.1940(3) 1.3853(2) 0.19732(16)
H29 H 1.1878 1.3582 0.1924
C47 C 1.3191(2) 1.3939(2) 0.10157(15)
C48 C 1.3444(2) 1.3650(2) 0.09088(15)
H30 H 1.3372 1.3373 0.0920
C49 C 1.3828(2) 1.3759(2) 0.07966(14)
H31 H 1.3994 1.3554 0.0722
C50 C 1.39662(18) 1.41457(19) 0.07842(12)
C51 C 1.37017(19) 1.44402(19) 0.08924(14)
H32 H 1.3785 1.4714 0.0879
C52 C 1.3334(2) 1.4350(2) 0.10102(15)
H33 H 1.3178 1.4562 0.1087
C53 C 0.9245(2) 0.9376(2) 0.43329(12)
C54 C 0.9333(2) 1.23293(19) 0.07051(18)
C55 C 0.90477(19) 1.26992(18) 0.07363(16)
C56 C 0.90409(19) 1.29072(19) 0.09830(14)
H34 H 0.9192 1.2817 0.1137
C57 C 0.87898(19) 1.3255(2) 0.09927(14)
H35 H 0.8777 1.3398 0.1162
C58 C 0.85585(17) 1.3407(2) 0.07654(14)
C59 C 0.8565(2) 1.3176(2) 0.05307(15)
H36 H 0.8391 1.3246 0.0383
C60 C 0.8799(2) 1.2832(2) 0.05054(15)
H37 H 0.8805 1.2689 0.0337
C61 C 0.8364(2) 1.3818(2) 0.07899(13)
C62 C 0.8554(2) 1.4139(2) 0.09270(13)
H38 H 0.8798 1.4086 0.1024
C63 C 0.8394(2) 1.4522(2) 0.09303(14)
C64 C 0.8017(2) 1.4613(2) 0.08077(13)
H39 H 0.7899 1.4873 0.0825
C65 C 0.7822(2) 1.4302(2) 0.06655(15)
C66 C 0.79899(19) 1.3898(2) 0.06650(14)
H40 H 0.7846 1.3684 0.0580
C67 C 0.74186(19) 1.4381(2) 0.05089(13)
C68 C 0.70663(19) 1.4500(3) 0.06498(15)
H41 H 0.7057 1.4533 0.0843
C69 C 0.6740(2) 1.4616(3) 0.04778(13)
H42 H 0.6498 1.4690 0.0569
C70 C 0.67111(19) 1.4594(2) 0.01900(12)
C71 C 0.70635(18) 1.4443(2) 0.00666(14)
H43 H 0.7063 1.4407 -0.0127
C72 C 0.7422(2) 1.4354(3) 0.02183(13)
H44 H 0.7658 1.4268 0.0124
C73 C 0.8644(2) 1.0279(2) 0.50334(18)
C74 C 0.8643(2) 1.4847(2) 0.10695(15)
C75 C 0.9060(3) 1.4833(2) 0.10789(14)
H45 H 0.9192 1.4613 0.0992
C76 C 0.9302(2) 1.5148(3) 0.12115(17)
H46 H 0.9588 1.5133 0.1206
C77 C 0.9100(3) 1.5466(2) 0.13498(19)
C78 C 0.8686(2) 1.5482(2) 0.13689(18)
H47 H 0.8550 1.5695 0.1461
C79 C 0.8452(2) 1.5160(3) 0.12235(17)
H48 H 0.8167 1.5162 0.1238
C80 C 1.0651(3) 1.0782(3) 0.1030(2)
O20 O 1.00514(16) 1.18296(16) 0.01219(9)
O21 O 1.06533(17) 1.15632(15) 0.02450(10)
C81 C 1.1762(2) 1.4585(3) 0.25804(15)
Zn1N Zn 1.01474(2) 1.61631(3) 0.147643(15)
Zn1A Zn 0.88369(3) 1.48526(2) 0.352357(15)
Zn2K Zn 1.14893(3) 1.43303(2) 0.315380(17)
Zn2N Zn 0.93303(2) 1.64893(3) 0.184620(17)
Zn3K Zn 1.17051(2) 1.52796(2) 0.295350(16)
Zn3A Zn 0.82949(2) 1.47204(2) 0.295350(16)
Zn4E Zn 1.5000 1.5000 0.065320(17)
Zn5J Zn 1.089657(19) 0.98293(2) 0.455127(14)
Zn5B Zn 0.589657(19) 1.48293(2) -0.044873(14)
Zn5E Zn 1.51707(2) 1.410343(19) 0.044873(14)
O2D O 1.00804(14) 1.32297(14) 0.11266(8)
O3J O 1.03609(13) 0.97297(12) 0.40448(8)
O5A O 0.87728(14) 1.43500(15) 0.29352(9)
O6A O 0.89542(14) 1.43042(18) 0.33909(11)
O8D O 1.05935(14) 1.27261(13) 0.16186(9)
O9E O 1.46096(13) 1.39730(13) 0.05883(9)
O10J O 1.03658(11) 1.05321(14) 0.43301(9)
O10E O 1.44679(14) 1.46342(11) 0.06699(9)
O12D O 0.95802(13) 1.22563(12) 0.09046(10)
O13B O 0.63735(12) 1.46663(14) -0.02336(10)
O14B O 0.60919(15) 1.49114(18) 0.01572(10)
H1B H 0.5898 1.4971 0.0044
O15N O 0.91490(16) 1.60501(17) 0.16031(14)
O16N O 0.97305(16) 1.57307(15) 0.14872(12)
O18J O 0.96745(9) 1.02666(9) 0.46768(6)
O18G O 1.02666(9) 0.96745(9) 0.53232(6)
O18M O 0.97334(9) 1.03255(9) 0.53232(6)
O19G O 1.04743(10) 1.04743(10) 0.5000
C24C C 0.8737(2) 1.0979(2) 0.06037(13)
C27A C 0.8914(2) 1.4162(2) 0.31476(19)
C50E C 0.91457(19) 0.89662(18) 0.42158(12)
C53E C 1.4376(2) 1.4245(2) 0.06671(12)
C54D C 0.9333(2) 1.26707(19) 0.17949(18)
C70B C 0.82889(19) 1.0406(2) 0.51900(12)
C73B C 0.6356(2) 1.4721(2) 0.00334(18)
C77N C 1.0900(3) 1.0466(2) 0.11502(19)
C80N C 0.9349(3) 1.5782(3) 0.1470(2)
O20K O 1.18296(16) 1.49486(16) 0.26219(9)
O21K O 1.15632(15) 1.43467(17) 0.27450(10)
C81I C 1.0415(3) 1.1762(2) 0.00804(15)
loop_
_geom_bond_atom_site_label_1
_geom_bond_atom_site_label_2
_geom_bond_site_symmetry_1
_geom_bond_site_symmetry_2
Zn1 O1 1_555 1_555
Zn2 O7 1_555 1_555
Zn3 O5 1_555 1_555
Zn4 O3 1_555 1_555
Zn5 O4 1_555 1_555
Zn6 O18 1_555 1_555
Na1 O2 1_555 1_555
O1 C1 1_555 1_555
O2 C1 1_555 1_555
O3 C20 1_555 1_555
O4 C20 1_555 1_555
O5 C27 1_555 1_555
O6 Zn1 1_555 1_555
O7 C28 1_555 1_555
O8 Na1 1_555 1_555
O9 Zn5 1_555 1_555
O10 Zn4 1_555 1_555
O11 Zn3 1_555 1_555
O12 Na1 1_555 1_555
O13 Zn5 1_555 1_555
O14 H1 1_555 1_555
O15 Zn2 1_555 1_555
O16 Zn1 1_555 1_555
O17 Zn1 1_555 1_555
H2 O17 1_555 1_555
O18 Zn4 1_555 1_555
H3 O18 1_555 1_555
O19 Zn6 1_555 1_555
C1 C2 1_555 1_555
C2 C3 1_555 1_555
C3 H4 1_555 1_555
C4 C3 1_555 1_555
H5 C4 1_555 1_555
C5 C4 1_555 1_555
C6 C5 1_555 1_555
H6 C6 1_555 1_555
C7 C2 1_555 1_555
H7 C7 1_555 1_555
C8 C5 1_555 1_555
C9 C8 1_555 1_555
H8 C9 1_555 1_555
C10 C9 1_555 1_555
C11 C10 1_555 1_555
H9 C11 1_555 1_555
C12 C11 1_555 1_555
C13 C8 1_555 1_555
H10 C13 1_555 1_555
C14 C12 1_555 1_555
C15 C14 1_555 1_555
H11 C15 1_555 1_555
C16 C15 1_555 1_555
H12 C16 1_555 1_555
C17 C16 1_555 1_555
C18 C17 1_555 1_555
H13 C18 1_555 1_555
C19 C14 1_555 1_555
H14 C19 1_555 1_555
C20 C17 1_555 1_555
C21 C10 1_555 1_555
C22 C21 1_555 1_555
H15 C22 1_555 1_555
C23 C22 1_555 1_555
H16 C23 1_555 1_555
C24 C23 1_555 1_555
C25 C24 1_555 1_555
H17 C25 1_555 1_555
C26 C21 1_555 1_555
H18 C26 1_555 1_555
C27 O6 1_555 1_555
C28 O8 1_555 1_555
C29 C28 1_555 1_555
C30 C29 1_555 1_555
H19 C30 1_555 1_555
C31 C30 1_555 1_555
H20 C31 1_555 1_555
C32 C31 1_555 1_555
C33 C32 1_555 1_555
H21 C33 1_555 1_555
C34 C29 1_555 1_555
H22 C34 1_555 1_555
C35 C32 1_555 1_555
C36 C35 1_555 1_555
H23 C36 1_555 1_555
C37 C36 1_555 1_555
C38 C37 1_555 1_555
H24 C38 1_555 1_555
C39 C38 1_555 1_555
C40 C35 1_555 1_555
H25 C40 1_555 1_555
C41 C39 1_555 1_555
C42 C41 1_555 1_555
H26 C42 1_555 1_555
C43 C42 1_555 1_555
H27 C43 1_555 1_555
C44 C43 1_555 1_555
C45 C44 1_555 1_555
H28 C45 1_555 1_555
C46 C41 1_555 1_555
H29 C46 1_555 1_555
C47 C37 1_555 1_555
C48 C47 1_555 1_555
H30 C48 1_555 1_555
C49 C48 1_555 1_555
H31 C49 1_555 1_555
C50 C49 1_555 1_555
C51 C50 1_555 1_555
H32 C51 1_555 1_555
C52 C47 1_555 1_555
H33 C52 1_555 1_555
C53 O9 1_555 1_555
C54 O11 1_555 1_555
C55 C54 1_555 1_555
C56 C55 1_555 1_555
H34 C56 1_555 1_555
C57 C56 1_555 1_555
H35 C57 1_555 1_555
C58 C57 1_555 1_555
C59 C58 1_555 1_555
H36 C59 1_555 1_555
C60 C55 1_555 1_555
H37 C60 1_555 1_555
C61 C58 1_555 1_555
C62 C61 1_555 1_555
H38 C62 1_555 1_555
C63 C62 1_555 1_555
C64 C63 1_555 1_555
H39 C64 1_555 1_555
C65 C64 1_555 1_555
C66 C61 1_555 1_555
H40 C66 1_555 1_555
C67 C65 1_555 1_555
C68 C67 1_555 1_555
H41 C68 1_555 1_555
C69 C68 1_555 1_555
H42 C69 1_555 1_555
C70 C69 1_555 1_555
C71 C70 1_555 1_555
H43 C71 1_555 1_555
C72 C67 1_555 1_555
H44 C72 1_555 1_555
C73 O13 1_555 1_555
C74 C63 1_555 1_555
C75 C74 1_555 1_555
H45 C75 1_555 1_555
C76 C75 1_555 1_555
H46 C76 1_555 1_555
C77 C76 1_555 1_555
C78 C77 1_555 1_555
H47 C78 1_555 1_555
C79 C74 1_555 1_555
H48 C79 1_555 1_555
C80 O15 1_555 1_555
O20 Zn3 1_555 1_555
O21 Zn2 1_555 1_555
C81 C44 1_555 1_555
Zn1N O16N 1_555 1_555
Zn1A O6A 1_555 1_555
Zn2K O21K 1_555 1_555
Zn2N O15N 1_555 1_555
Zn3K O20K 1_555 1_555
Zn3A O5A 1_555 1_555
Zn4E O10E 1_555 1_555
Zn5J O18 1_555 1_555
Zn5B O13B 1_555 1_555
Zn5E O9E 1_555 1_555
O2D Na1 1_555 1_555
O3J Zn4 1_555 1_555
O5A C27A 1_555 1_555
O6A C27A 1_555 1_555
O8D Na1 1_555 1_555
O9E C53E 1_555 1_555
O10J Zn4 1_555 1_555
O10E C53E 1_555 1_555
O12D Na1 1_555 1_555
O13B C73B 1_555 1_555
O14B H1B 1_555 1_555
O15N C80N 1_555 1_555
O16N C80N 1_555 1_555
O18J Zn4 1_555 1_555
O18G Zn6 1_555 1_555
O18M Zn6 1_555 1_555
O19G Zn6 1_555 1_555
C24C C27 1_555 1_555
C27A C24 1_555 1_555
C50E C53 1_555 1_555
C53E C50 1_555 1_555
C54D O12 1_555 1_555
C70B C73 1_555 1_555
C73B C70 1_555 1_555
C77N C80 1_555 1_555
C80N C77 1_555 1_555
O20K C81 1_555 1_555
O21K C81 1_555 1_555
C81I O20 1_555 1_555
Zn2 O17 1_555 1_555
Zn3 O17 1_555 1_555
Zn5 O18J 1_555 1_555
Zn6 O18J 1_555 1_555
O10 C53 1_555 1_555
O14 C73 1_555 1_555
O16 C80 1_555 1_555
C6 C7 1_555 1_555
C12 C13 1_555 1_555
C18 C19 1_555 1_555
C25 C26 1_555 1_555
C33 C34 1_555 1_555
C39 C40 1_555 1_555
C45 C46 1_555 1_555
C51 C52 1_555 1_555
C54 O12D 1_555 1_555
C59 C60 1_555 1_555
C65 C66 1_555 1_555
C71 C72 1_555 1_555
C78 C79 1_555 1_555
O21 C81I 1_555 1_555
O14B C73B 1_555 1_555

#END
