
#######################################################################
#
#                 Cambridge Crystallographic Data Centre
#                                CCDC 
#
#######################################################################
#
# If this CIF has been generated from an entry in the Cambridge 
# Structural Database, then it will include bibliographic, chemical, 
# crystal, experimental, refinement or atomic coordinate data resulting 
# from the CCDC's data processing and validation procedures.
#
#######################################################################

data_IYOQAQ
_chemical_formula_moiety         '(C11 H15 N5 O7 Zn2)n'
_symmetry_cell_setting           orthorhombic
_symmetry_space_group_name_H-M   'C m c m'
_symmetry_Int_Tables_number      63
_space_group_name_Hall           '-C 2c 2'
loop_
_symmetry_equiv_pos_site_id
_symmetry_equiv_pos_as_xyz
1 x,y,z
2 -x,-y,1/2+z
3 -x,y,1/2-z
4 x,-y,-z
5 1/2+x,1/2+y,z
6 1/2-x,1/2-y,1/2+z
7 1/2-x,1/2+y,1/2-z
8 1/2+x,1/2-y,-z
9 -x,-y,-z
10 x,y,1/2-z
11 x,-y,1/2+z
12 -x,y,z
13 1/2-x,1/2-y,-z
14 1/2+x,1/2+y,1/2-z
15 1/2+x,1/2-y,1/2+z
16 1/2-x,1/2+y,z
_cell_length_a                   10.3973(19)
_cell_length_b                   23.431(5)
_cell_length_c                   6.9270(12)
_cell_angle_alpha                90
_cell_angle_beta                 90
_cell_angle_gamma                90
_cell_volume                     1687.55
loop_
_atom_site_label
_atom_site_type_symbol
_atom_site_fract_x
_atom_site_fract_y
_atom_site_fract_z
Zn1 Zn 0.5000 0.36596(4) 0.2500
Zn2 Zn 0.5000 0.5000 0.0000
O1 O 0.3426(4) 0.3197(2) 0.2500
O2 O 0.2369(6) 0.4007(2) 0.2500
O3 O 0.2953(6) 0.5000 0.0000
H1 H 0.2690 0.4819 0.0933
O4 O 0.5000 0.4517(3) 0.2500
N1 N -0.0000 0.13073(19) 0.4092(7)
N2 N -0.0000 0.0770(2) 0.3420(7)
C1 C -0.0000 0.1623(3) 0.2500
C2 C 0.0000 0.2264(3) 0.2500
C3 C 0.1160(6) 0.2559(2) 0.2500
H2 H 0.1934 0.2361 0.2500
C4 C 0.1157(6) 0.3154(3) 0.2500
C5 C 0.0000 0.3453(4) 0.2500
H3 H 0.0000 0.3850 0.2500
C6 C 0.2408(7) 0.3487(3) 0.2500
O1B O -0.3426(4) 0.3197(2) 0.2500
O2B O -0.2369(6) 0.4007(2) 0.2500
N1B N 0.0000 0.13073(19) 0.0908(7)
N2B N -0.0000 0.0770(2) 0.1580(7)
C3B C -0.1160(6) 0.2559(2) 0.2500
H2B H -0.1934 0.2361 0.2500
C4B C -0.1157(6) 0.3154(3) 0.2500
C6B C -0.2408(7) 0.3487(3) 0.2500
H1C H 0.2690 0.5181 -0.0933
O3H O 0.7047(6) 0.5000 0.0000
H1K H 0.7310 0.4819 0.0933
H1H H 0.7310 0.5181 -0.0933
Zn1_2 Zn -0.5000 0.36596(4) 0.2500
Zn1E Zn 0.0000 0.13404(4) -0.2500
Zn1E_2 Zn -0.0000 0.13404(4) 0.7500
Zn2A Zn 0.5000 0.5000 0.5000
Zn2D Zn 0.0000 0.0000 0.0000
Zn2E Zn 0.0000 0.0000 0.5000
O1B_2 O 0.6574(4) 0.3197(2) 0.2500
O4A O 0.5000 0.5483(3) -0.2500
N1E N 0.5000 0.36927(19) -0.0908(7)
N1G N 0.5000 0.36927(19) 0.5908(7)
N2E N 0.5000 0.4230(2) -0.1580(7)
N2F N 0.5000 0.5770(2) 0.1580(7)
N3 N 0.0000 0.3670(6) 0.7500
C7 C 0.1365(18) 0.3861(9) 0.7500
C7B C -0.1365(18) 0.3861(9) 0.7500
loop_
_geom_bond_atom_site_label_1
_geom_bond_atom_site_label_2
_geom_bond_site_symmetry_1
_geom_bond_site_symmetry_2
Zn1 O1 1_555 1_555
Zn2 O3 1_555 1_555
O1 C6 1_555 1_555
O2 C6 1_555 1_555
O3 H1 1_555 1_555
O4 Zn1 1_555 1_555
N1 N2 1_555 1_555
N2 N2B 1_555 1_555
C1 N1 1_555 1_555
C2 C1 1_555 1_555
C3 C2 1_555 1_555
H2 C3 1_555 1_555
C4 C3 1_555 1_555
C5 C4 1_555 1_555
H3 C5 1_555 1_555
C6 C4 1_555 1_555
N3 C7 1_555 1_555
O1B C6B 1_555 1_555
O2B C6B 1_555 1_555
N1B C1 1_555 1_555
N2B N1B 1_555 1_555
C3B C2 1_555 1_555
H2B C3B 1_555 1_555
C4B C5 1_555 1_555
C6B C4B 1_555 1_555
H1C O3 1_555 1_555
O3H Zn2 1_555 1_555
H1K O3H 1_555 1_555
H1H O3H 1_555 1_555
Zn1_2 O1B 1_555 1_555
Zn1E N1B 1_555 1_555
Zn1E_2 N1 1_555 1_555
Zn2A O4 1_555 1_555
Zn2D N2B 1_555 1_555
Zn2E N2 1_555 1_555
O1B_2 Zn1 1_555 1_555
O4A Zn2 1_555 1_555
N1E Zn1 1_555 1_555
N1G Zn1 1_555 1_555
N2E Zn2 1_555 1_555
N2F Zn2 1_555 1_555
C7B N3 1_555 1_555
Zn2 O4 1_555 1_555
C3B C4B 1_555 1_555
N1E N2E 1_555 1_555

#END
