
#######################################################################
#
#                 Cambridge Crystallographic Data Centre
#                                CCDC 
#
#######################################################################
#
# If this CIF has been generated from an entry in the Cambridge 
# Structural Database, then it will include bibliographic, chemical, 
# crystal, experimental, refinement or atomic coordinate data resulting 
# from the CCDC's data processing and validation procedures.
#
#######################################################################

data_IYOQIY
_chemical_formula_moiety         '(C11 H13 Cd1 N5 O5)n'
_symmetry_cell_setting           monoclinic
_symmetry_space_group_name_H-M   'P 21/c'
_symmetry_Int_Tables_number      14
_space_group_name_Hall           '-P 2ybc'
loop_
_symmetry_equiv_pos_site_id
_symmetry_equiv_pos_as_xyz
1 x,y,z
2 -x,1/2+y,1/2-z
3 -x,-y,-z
4 x,1/2-y,1/2+z
_cell_length_a                   10.1382(8)
_cell_length_b                   12.9139(10)
_cell_length_c                   11.7341(9)
_cell_angle_alpha                90
_cell_angle_beta                 110.0400(10)
_cell_angle_gamma                90
_cell_volume                     1443.26
loop_
_atom_site_label
_atom_site_type_symbol
_atom_site_fract_x
_atom_site_fract_y
_atom_site_fract_z
Cd1 Cd 0.78741(5) 1.14601(4) 0.22755(5)
O1 O 0.5140(6) 1.1784(5) 0.1981(6)
O2 O 0.6163(6) 1.0287(5) 0.1942(6)
O3 O 0.0386(6) 1.1510(5) 0.2526(6)
O4 O -0.0882(6) 1.0118(4) 0.1873(6)
N1 N 0.2315(7) 0.7476(5) -0.0740(5)
N2 N 0.2126(8) 0.6441(5) -0.0878(6)
N3 N 0.1872(8) 0.6067(5) 0.0054(6)
N4 N 0.1883(7) 0.6840(5) 0.0823(6)
C1 C 0.1400(7) 1.0136(6) 0.1740(6)
C2 C 0.2649(7) 1.0680(6) 0.1926(6)
H1 H 0.2757 1.1336 0.2273
C3 C 0.3723(7) 1.0264(6) 0.1604(6)
C4 C 0.3567(7) 0.9281(6) 0.1081(6)
H2 H 0.4291 0.8990 0.0872
C5 C 0.2324(7) 0.8740(5) 0.0876(6)
C6 C 0.1252(7) 0.9166(6) 0.1210(6)
H3 H 0.0426 0.8795 0.1077
C7 C 0.0255(8) 1.0611(6) 0.2076(6)
C8 C 0.5091(8) 1.0836(6) 0.1846(7)
C9 C 0.2157(7) 0.7702(6) 0.0317(7)
Cd1_2 Cd -0.21259(5) 1.14601(4) 0.22755(5)
Cd1A Cd 0.21259(5) 0.64601(4) 0.27245(5)
Cd1B Cd 0.21259(5) 0.85399(4) -0.22755(5)
O3_2 O 1.0386(6) 1.1510(5) 0.2526(6)
O4_2 O 0.9118(6) 1.0118(4) 0.1873(6)
N1B N 0.7685(7) 1.2524(5) 0.0740(5)
N4A N 0.8117(7) 1.1840(5) 0.4177(6)
O5 O 0.7572(11) 0.8157(7) 0.1427(9)
N5 N 0.3338(9) 0.3505(7) 0.1267(9)
H4 H 0.3757 0.3332 0.2012
C10 C 0.1818(11) 0.3419(9) 0.0672(11)
H5 H 0.1433 0.4089 0.0391
H6 H 0.1407 0.3157 0.1240
H7 H 0.1617 0.2954 -0.0004
C11 C 0.4084(12) 0.3905(9) 0.0510(11)
H8 H 0.3984 0.3433 -0.0147
H9 H 0.5061 0.3980 0.0983
H10 H 0.3703 0.4567 0.0189
loop_
_geom_bond_atom_site_label_1
_geom_bond_atom_site_label_2
_geom_bond_site_symmetry_1
_geom_bond_site_symmetry_2
Cd1 O1 1_555 1_555
O1 C8 1_555 1_555
O2 Cd1 1_555 1_555
O3 C7 1_555 1_555
O4 C7 1_555 1_555
N1 N2 1_555 1_555
N2 N3 1_555 1_555
N3 N4 1_555 1_555
N4 C9 1_555 1_555
C1 C2 1_555 1_555
C2 H1 1_555 1_555
C3 C2 1_555 1_555
C4 C3 1_555 1_555
H2 C4 1_555 1_555
C5 C4 1_555 1_555
C6 C1 1_555 1_555
H3 C6 1_555 1_555
C7 C1 1_555 1_555
C8 O2 1_555 1_555
C9 N1 1_555 1_555
N5 H4 1_555 1_555
C10 N5 1_555 1_555
H5 C10 1_555 1_555
H6 C10 1_555 1_555
H7 C10 1_555 1_555
C11 N5 1_555 1_555
H8 C11 1_555 1_555
H9 C11 1_555 1_555
H10 C11 1_555 1_555
Cd1_2 O3 1_555 1_555
Cd1A N4 1_555 1_555
Cd1B N1 1_555 1_555
O3_2 Cd1 1_555 1_555
O4_2 Cd1 1_555 1_555
N1B Cd1 1_555 1_555
N4A Cd1 1_555 1_555
O4 Cd1_2 1_555 1_555
C3 C8 1_555 1_555
C5 C6 1_555 1_555
C5 C9 1_555 1_555

#END
