
#######################################################################
#
#                 Cambridge Crystallographic Data Centre
#                                CCDC 
#
#######################################################################
#
# If this CIF has been generated from an entry in the Cambridge 
# Structural Database, then it will include bibliographic, chemical, 
# crystal, experimental, refinement or atomic coordinate data resulting 
# from the CCDC's data processing and validation procedures.
#
#######################################################################

data_PEWGEF
_chemical_formula_moiety         '(C12 H24 Cu3 N8 O8)n'
_symmetry_cell_setting           rhombohedral
_symmetry_space_group_name_H-M   'R 3 m'
_symmetry_Int_Tables_number      160
_space_group_name_Hall           'R 3 -2"'
loop_
_symmetry_equiv_pos_site_id
_symmetry_equiv_pos_as_xyz
1 x,y,z
2 -y,x-y,z
3 -x+y,-x,z
4 -y,-x,z
5 x,x-y,z
6 -x+y,y,z
7 2/3+x,1/3+y,1/3+z
8 2/3-y,1/3+x-y,1/3+z
9 2/3-x+y,1/3-x,1/3+z
10 2/3-y,1/3-x,1/3+z
11 2/3+x,1/3+x-y,1/3+z
12 2/3-x+y,1/3+y,1/3+z
13 1/3+x,2/3+y,2/3+z
14 1/3-y,2/3+x-y,2/3+z
15 1/3-x+y,2/3-x,2/3+z
16 1/3-y,2/3-x,2/3+z
17 1/3+x,2/3+x-y,2/3+z
18 1/3-x+y,2/3+y,2/3+z
_cell_length_a                   24.401(4)
_cell_length_b                   24.401(4)
_cell_length_c                   11.5733(18)
_cell_angle_alpha                90
_cell_angle_beta                 90
_cell_angle_gamma                120
_cell_volume                     5967.65
loop_
_atom_site_label
_atom_site_type_symbol
_atom_site_fract_x
_atom_site_fract_y
_atom_site_fract_z
_atom_site_U_iso_or_equiv
_atom_site_thermal_displace_type
N4 N 0.2793(7) 0.4957(9) 0.5558(17) 0.1978 Uani
C7 C 0.2480(7) 0.4961(13) 0.6736(15) 0.1900 Uani
C8 C 0.2219(4) 0.4439(8) 0.4858(15) 0.1453 Uani
N4E N 0.2164(11) 0.4957(9) 0.5558(17) 0.1978 Uani
Cu1 Cu 0.06354(7) 0.53177(4) 0.61591(11) 0.0470 Uani
Cu2 Cu 0.02826(4) 0.57320(4) 0.37064(5) 0.0424 Uani
O1 O 0.0757(3) 0.53785(17) 0.4486(6) 0.0393 Uani
H1 H 0.1134 0.5567 0.4238 0.0470 Uiso
O2 O 0.0116(4) 0.5058(2) 0.2647(6) 0.0454 Uani
O3 O 0.0233(6) 0.5116(3) 0.7705(9) 0.0766 Uani
O4 O -0.0691(11) 0.4654(5) 0.699(2) 0.2031 Uani
O5 O -0.0533(7) 0.4734(3) 0.4872(15) 0.1111 Uani
H2 H -0.0534 0.4488 0.4328 0.1330 Uiso
O6 O 0.1658(6) 0.5829(3) 0.6750(11) 0.0974 Uani
H3 H 0.1890 0.6221 0.6566 0.1170 Uiso
O7 O 0.1271(5) 0.6545(6) 0.2856(10) 0.1284 Uani
H4 H 0.1519 0.6388 0.2979 0.1550 Uiso
H5 H 0.1296 0.6661 0.2141 0.1550 Uiso
N1 N 0.0646(3) 0.6136(3) 0.6071(5) 0.0426 Uani
N2 N 0.0501(3) 0.6310(3) 0.5040(5) 0.0408 Uani
N3 N 0.0744(3) 0.7070(3) 0.6342(5) 0.0441 Uani
C1 C 0.0974(6) 0.6585(5) 0.8042(7) 0.0680 Uani
H6 H 0.1010 0.6208 0.8187 0.1020 Uiso
H7 H 0.0656 0.6584 0.8561 0.1020 Uiso
H8 H 0.1384 0.6966 0.8180 0.1020 Uiso
C2 C 0.0779(4) 0.6580(3) 0.6818(6) 0.0437 Uani
C3 C 0.0573(4) 0.6880(4) 0.5227(6) 0.0433 Uani
C4 C 0.0482(5) 0.7268(4) 0.4327(7) 0.0586 Uani
H9 H 0.0119 0.7317 0.4537 0.0870 Uiso
H10 H 0.0403 0.7055 0.3577 0.0870 Uiso
H11 H 0.0863 0.7686 0.4279 0.0870 Uiso
C5 C -0.0613(15) 0.4693(8) 0.900(3) 0.1673 Uani
H12 H -0.0292 0.4854 0.9587 0.2530 Uiso
H13 H -0.0869 0.4887 0.9085 0.2530 Uiso
C6 C -0.0301(12) 0.4849(6) 0.776(2) 0.1218 Uani
H13D H -0.0869 0.4244 0.9085 0.2530 Uiso
H2D H -0.0534 0.4978 0.4328 0.1330 Uiso
H3D H 0.1890 0.5669 0.6566 0.1170 Uiso
Cu2D Cu 0.02826(4) 0.45506(6) 0.37064(5) 0.0424 Uani
O7D O 0.1271(5) 0.4726(8) 0.2856(10) 0.1284 Uani
H4D H 0.1519 0.5131 0.2979 0.1550 Uiso
H5D H 0.1296 0.4635 0.2141 0.1550 Uiso
N1D N 0.0646(3) 0.4510(4) 0.6071(5) 0.0426 Uani
N2D N 0.0501(3) 0.4191(4) 0.5040(5) 0.0408 Uani
N3D N 0.0744(3) 0.3674(4) 0.6342(5) 0.0441 Uani
C1D C 0.0974(6) 0.4389(8) 0.8042(7) 0.0680 Uani
H6D H 0.1010 0.4802 0.8187 0.1020 Uiso
H7D H 0.0656 0.4072 0.8561 0.1020 Uiso
H8D H 0.1384 0.4418 0.8180 0.1020 Uiso
C2D C 0.0779(4) 0.4199(5) 0.6818(6) 0.0437 Uani
C3D C 0.0573(4) 0.3693(6) 0.5227(6) 0.0433 Uani
C4D C 0.0482(5) 0.3214(6) 0.4327(7) 0.0586 Uani
H9D H 0.0119 0.2802 0.4537 0.0870 Uiso
H10D H 0.0403 0.3348 0.3577 0.0870 Uiso
H11D H 0.0863 0.3177 0.4279 0.0870 Uiso
Cu2G Cu 0.09347(4) 0.78839(6) 0.70397(5) 0.0424 Uani
Cu2I Cu 0.09347(4) 0.30507(4) 0.70397(5) 0.0424 Uani
N3N N -0.0341(4) 0.5923(3) 0.3009(5) 0.0441 Uani
N3Q N -0.0341(4) 0.3737(3) 0.3009(5) 0.0441 Uani
loop_
_atom_site_aniso_label
_atom_site_aniso_U_11
_atom_site_aniso_U_22
_atom_site_aniso_U_33
_atom_site_aniso_U_23
_atom_site_aniso_U_13
_atom_site_aniso_U_12
N4 0.31(4) 0.16(2) 0.22(3) -0.14(2) -0.20(3) 0.19(3)
C7 0.31(4) 0.14(2) 0.066(13) 0.019(15) 0.009(7) 0.072(12)
C8 0.22(3) 0.082(12) 0.088(14) 0.038(11) 0.019(6) 0.041(6)
N4E 0.09 0.16 0.22 -0.14 0.06 -0.03
Cu1 0.0741(9) 0.0460(5) 0.0301(6) -0.0032(3) -0.0063(6) 0.0370(5)
Cu2 0.0583(5) 0.0479(5) 0.0308(4) -0.0092(3) -0.0122(4) 0.0340(4)
O1 0.049(4) 0.039(2) 0.033(3) -0.0024(14) -0.005(3) 0.0243(19)
O2 0.071(5) 0.044(2) 0.031(3) -0.0090(16) -0.018(3) 0.036(2)
O3 0.112(9) 0.075(4) 0.055(5) 0.006(3) 0.011(6) 0.056(5)
O4 0.143(17) 0.25(2) 0.18(2) -0.025(9) -0.051(17) 0.071(9)
O5 0.105(7) 0.104(6) 0.124(8) 0.005(3) 0.009(6) 0.052(3)
O6 0.093(8) 0.092(5) 0.107(8) -0.027(3) -0.053(7) 0.046(4)
O7 0.129(8) 0.144(9) 0.116(8) 0.036(7) 0.049(7) 0.071(7)
N1 0.065(4) 0.040(3) 0.029(3) 0.000(2) -0.006(3) 0.031(3)
N2 0.060(3) 0.039(3) 0.029(3) -0.001(2) -0.004(2) 0.029(3)
N3 0.058(4) 0.047(3) 0.027(3) -0.005(2) 0.002(3) 0.026(3)
C1 0.118(8) 0.066(5) 0.040(4) -0.008(4) -0.018(5) 0.061(6)
C2 0.061(4) 0.043(3) 0.027(3) 0.003(3) 0.004(3) 0.026(3)
C3 0.057(4) 0.048(4) 0.026(3) 0.001(3) 0.002(3) 0.027(3)
C4 0.088(6) 0.048(4) 0.041(4) -0.010(3) -0.013(4) 0.035(4)
C5 0.15(2) 0.22(3) 0.11(2) 0.000(9) 0.001(18) 0.076(12)
C6 0.096(16) 0.136(15) 0.120(19) -0.003(7) -0.006(15) 0.048(8)
Cu2D 0.0583 0.0382 0.0308 -0.003 -0.0122 0.0243
O7D 0.129 0.131 0.116 0.013 0.049 0.058
N1D 0.065 0.043 0.029 -0.006 -0.006 0.034
N2D 0.06 0.041 0.029 -0.003 -0.004 0.031
N3D 0.058 0.053 0.027 0.007 0.002 0.032
C1D 0.118 0.062 0.04 -0.01 -0.018 0.057
C2D 0.061 0.052 0.027 0.001 0.004 0.035
C3D 0.057 0.051 0.026 0.001 0.002 0.03
C4D 0.088 0.066 0.041 -0.003 -0.013 0.053
Cu2G 0.0479 0.0382 0.0308 -0.003 0.0092 0.0139
Cu2I 0.0479 0.0583 0.0308 0.0122 0.0092 0.034
N3N 0.053 0.058 0.027 -0.002 -0.007 0.032
N3Q 0.053 0.047 0.027 -0.005 -0.007 0.021
loop_
_geom_bond_atom_site_label_1
_geom_bond_atom_site_label_2
_geom_bond_site_symmetry_1
_geom_bond_site_symmetry_2
Cu1 O1 1_555 1_555
Cu2 O1 1_555 1_555
O1 H1 1_555 1_555
O2 Cu2 1_555 1_555
O3 Cu1 1_555 1_555
O4 C6 1_555 1_555
O5 Cu2 1_555 1_555
H2 O5 1_555 1_555
O6 Cu1 1_555 1_555
H3 O6 1_555 1_555
O7 Cu2 1_555 1_555
H4 O7 1_555 1_555
H5 O7 1_555 1_555
N1 Cu1 1_555 1_555
N2 Cu2 1_555 1_555
N3 C2 1_555 1_555
C1 H6 1_555 1_555
H7 C1 1_555 1_555
H8 C1 1_555 1_555
C2 N1 1_555 1_555
C3 N2 1_555 1_555
C4 C3 1_555 1_555
H9 C4 1_555 1_555
H10 C4 1_555 1_555
H11 C4 1_555 1_555
C5 H12 1_555 1_555
H13 C5 1_555 1_555
C6 O3 1_555 1_555
N4 C7 1_555 1_555
C7 N4E 1_555 1_555
C8 N4 1_555 1_555
H13D C5 1_555 1_555
H2D O5 1_555 1_555
H3D O6 1_555 1_555
Cu2D O1 1_555 1_555
O7D Cu2D 1_555 1_555
H4D O7D 1_555 1_555
H5D O7D 1_555 1_555
N1D Cu1 1_555 1_555
N2D Cu2D 1_555 1_555
N3D C2D 1_555 1_555
C1D H6D 1_555 1_555
H7D C1D 1_555 1_555
H8D C1D 1_555 1_555
C2D N1D 1_555 1_555
C3D N2D 1_555 1_555
C4D C3D 1_555 1_555
H9D C4D 1_555 1_555
H10D C4D 1_555 1_555
H11D C4D 1_555 1_555
Cu2G N3 1_555 1_555
Cu2I N3D 1_555 1_555
N3N Cu2 1_555 1_555
N3Q Cu2D 1_555 1_555
N4E N4 1_555 1_555
O2 Cu2D 1_555 1_555
O5 Cu2D 1_555 1_555
N1 N2 1_555 1_555
N3 C3 1_555 1_555
C1 C2 1_555 1_555
C5 C6 1_555 1_555
C8 N4E 1_555 1_555
N1D N2D 1_555 1_555
N3D C3D 1_555 1_555
C1D C2D 1_555 1_555

#END
