
#######################################################################
#
#                 Cambridge Crystallographic Data Centre
#                                CCDC 
#
#######################################################################
#
# If this CIF has been generated from an entry in the Cambridge 
# Structural Database, then it will include bibliographic, chemical, 
# crystal, experimental, refinement or atomic coordinate data resulting 
# from the CCDC's data processing and validation procedures.
#
#######################################################################

data_XOKHAH
_chemical_formula_moiety         '(C48 H28 N4 O19 Zn4)n'
_symmetry_cell_setting           orthorhombic
_symmetry_space_group_name_H-M   'P b c a'
_symmetry_Int_Tables_number      61
_space_group_name_Hall           '-P 2ac 2ab'
loop_
_symmetry_equiv_pos_site_id
_symmetry_equiv_pos_as_xyz
1 x,y,z
2 1/2-x,-y,1/2+z
3 -x,1/2+y,1/2-z
4 1/2+x,1/2-y,-z
5 -x,-y,-z
6 1/2+x,y,1/2-z
7 x,1/2-y,1/2+z
8 1/2-x,1/2+y,z
_cell_length_a                   18.777(9)
_cell_length_b                   13.657(6)
_cell_length_c                   19.983(9)
_cell_angle_alpha                90
_cell_angle_beta                 90
_cell_angle_gamma                90
_cell_volume                     5124.39
loop_
_atom_site_label
_atom_site_type_symbol
_atom_site_fract_x
_atom_site_fract_y
_atom_site_fract_z
N1 N 0.1512(3) -0.3869(4) 0.0571(3)
N2 N 0.0232(3) -0.3751(4) 0.1141(3)
O1 O 0.3666(3) -0.3898(4) -0.3272(3)
O2 O 0.2828(3) -0.3720(5) -0.4040(3)
O3 O 0.1018(2) -0.4245(4) -0.0828(2)
O4 O 0.0218(3) -0.3941(4) -0.1637(2)
O5 O 0.0337(3) -0.2601(4) -0.0087(3)
O6 O -0.0512(3) -0.2273(4) -0.0838(3)
O7 O 0.2646(4) -0.3422(5) 0.2659(3)
O8 O 0.1333(4) -0.3429(6) 0.3279(3)
O9 O 0.0537(2) -0.5591(4) 0.0235(2)
C1 C 0.2459(4) -0.3955(5) -0.2931(4)
C2 C 0.2643(4) -0.4065(6) -0.2273(4)
H1 H 0.3120 -0.4103 -0.2148
C3 C 0.2109(4) -0.4119(6) -0.1793(4)
H2 H 0.2240 -0.4189 -0.1347
C4 C 0.1406(4) -0.4073(6) -0.1944(4)
C5 C 0.1225(4) -0.3987(6) -0.2621(3)
H3 H 0.0748 -0.3976 -0.2745
C6 C 0.1744(4) -0.3921(6) -0.3104(4)
H4 H 0.1614 -0.3852 -0.3550
C7 C 0.3021(5) -0.3854(5) -0.3473(4)
C8 C 0.0840(4) -0.4094(5) -0.1416(4)
C9 C -0.0075(4) -0.2041(5) -0.0385(4)
C10 C -0.0033(4) -0.0973(5) -0.0196(4)
C11 C -0.0356(4) -0.0248(6) -0.0576(4)
H5 H -0.0607 -0.0415 -0.0961
C12 C 0.0308(4) -0.0704(6) 0.0387(4)
H6 H 0.0510 -0.1185 0.0656
C13 C 0.2129(4) -0.3901(6) 0.0257(5)
H7 H 0.2133 -0.3994 -0.0204
C14 C 0.2788(4) -0.3796(7) 0.0599(5)
H8 H 0.3218 -0.3817 0.0370
C15 C 0.2768(5) -0.3665(6) 0.1274(5)
H9 H 0.3190 -0.3602 0.1514
C16 C 0.2128(4) -0.3624(6) 0.1598(4)
C17 C 0.2122(5) -0.3510(6) 0.2323(4)
C18 C 0.1396(6) -0.3484(7) 0.2661(4)
C19 C 0.0737(5) -0.3514(6) 0.2229(4)
C20 C 0.0058(5) -0.3386(7) 0.2498(4)
H10 H 0.0002 -0.3276 0.2955
C21 C -0.0511(5) -0.3421(8) 0.2097(5)
H11 H -0.0965 -0.3321 0.2270
C22 C -0.0417(4) -0.3611(6) 0.1419(4)
H12 H -0.0817 -0.3643 0.1145
C23 C 0.0808(4) -0.3668(5) 0.1560(4)
C24 C 0.1515(3) -0.3736(5) 0.1229(3)
H13 H 0.090(5) -0.566(8) 0.005(5)
Zn1 Zn -0.06072(4) -0.36632(6) -0.10727(4)
Zn2 Zn 0.04892(4) -0.40652(6) 0.00970(4)
N1E N -0.3488(3) -0.3869(4) -0.5571(3)
N2E N -0.4768(3) -0.3751(4) -0.6141(3)
O1E O -0.1334(3) -0.3898(4) -0.1728(3)
O1_2 O -0.6334(3) -0.3898(4) -0.3272(3)
O2E O -0.2172(3) -0.3720(5) -0.0960(3)
O3E O -0.3982(2) -0.4245(4) -0.4172(2)
O4E O -0.4782(3) -0.3941(4) -0.3363(2)
O5E O -0.4663(3) -0.2601(4) -0.4913(3)
O5D O -0.0337(3) 0.2601(4) 0.0087(3)
O6E O -0.5512(3) -0.2273(4) -0.4162(3)
O6D O 0.0512(3) 0.2273(4) 0.0838(3)
O7E O -0.2354(4) -0.3422(5) -0.7659(3)
O8E O -0.3667(4) -0.3429(6) -0.8279(3)
O9A O -0.5537(2) -0.4409(4) -0.4765(2)
O9E O -0.4463(2) -0.5591(4) -0.5235(2)
O9D O -0.0537(2) -0.4409(4) -0.0235(2)
C1E C -0.2541(4) -0.3955(5) -0.2069(4)
C2E C -0.2357(4) -0.4065(6) -0.2727(4)
H1E H -0.1880 -0.4103 -0.2852
C3E C -0.2891(4) -0.4119(6) -0.3207(4)
H2E H -0.2760 -0.4189 -0.3653
C4E C -0.3594(4) -0.4073(6) -0.3056(4)
C5E C -0.3775(4) -0.3987(6) -0.2379(3)
H3E H -0.4252 -0.3976 -0.2255
C6E C -0.3256(4) -0.3921(6) -0.1896(4)
H4E H -0.3386 -0.3852 -0.1450
C7E C -0.1979(5) -0.3854(5) -0.1527(4)
C8E C -0.4160(4) -0.4094(5) -0.3584(4)
C9D C 0.0075(4) 0.2041(5) 0.0385(4)
C10D C 0.0033(4) 0.0973(5) 0.0196(4)
C11D C 0.0356(4) 0.0248(6) 0.0576(4)
H5D H 0.0607 0.0415 0.0961
C12D C -0.0308(4) 0.0704(6) -0.0387(4)
H6D H -0.0510 0.1185 -0.0656
C13E C -0.2871(4) -0.3901(6) -0.5257(5)
H7E H -0.2867 -0.3994 -0.4796
C14E C -0.2212(4) -0.3796(7) -0.5599(5)
H8E H -0.1782 -0.3817 -0.5370
C15E C -0.2232(5) -0.3665(6) -0.6274(5)
H9E H -0.1810 -0.3602 -0.6514
C16E C -0.2872(4) -0.3624(6) -0.6598(4)
C17E C -0.2878(5) -0.3510(6) -0.7323(4)
C18E C -0.3604(6) -0.3484(7) -0.7661(4)
C19E C -0.4263(5) -0.3514(6) -0.7229(4)
C20E C -0.4942(5) -0.3386(7) -0.7498(4)
H10E H -0.4998 -0.3276 -0.7955
C21E C -0.5511(5) -0.3421(8) -0.7097(5)
H11E H -0.5965 -0.3321 -0.7270
C22E C -0.5417(4) -0.3611(6) -0.6419(4)
H12E H -0.5817 -0.3643 -0.6145
C23E C -0.4192(4) -0.3668(5) -0.6560(4)
C24E C -0.3485(3) -0.3736(5) -0.6229(3)
H13A H -0.590(5) -0.434(8) -0.495(5)
H13E H -0.410(5) -0.566(8) -0.505(5)
H13D H -0.090(5) -0.434(8) -0.005(5)
Zn1D Zn 0.06072(4) -0.63368(6) 0.10727(4)
Zn1E Zn -0.56072(4) -0.36632(6) -0.39273(4)
Zn1E_2 Zn 0.43928(4) -0.36632(6) -0.39273(4)
Zn1D_2 Zn 0.06072(4) 0.36632(6) 0.10727(4)
Zn2E Zn -0.45108(4) -0.40652(6) -0.50970(4)
Zn2D Zn -0.04892(4) -0.59348(6) -0.00970(4)
Zn2D_2 Zn -0.04892(4) 0.40652(6) -0.00970(4)
O10 O 0.1740(4) -0.6581(6) 0.9700(3)
H14 H 0.2127 -0.6519 0.9467
H15 H 0.1889 -0.6371 1.0079
loop_
_geom_bond_atom_site_label_1
_geom_bond_atom_site_label_2
_geom_bond_site_symmetry_1
_geom_bond_site_symmetry_2
N1 C13 1_555 1_555
N2 C22 1_555 1_555
O1 C7 1_555 1_555
O2 C7 1_555 1_555
O3 C8 1_555 1_555
O4 C8 1_555 1_555
O5 C9 1_555 1_555
O6 C9 1_555 1_555
O7 C17 1_555 1_555
O8 C18 1_555 1_555
O9 H13 1_555 1_555
C1 C2 1_555 1_555
C2 H1 1_555 1_555
C3 C2 1_555 1_555
H2 C3 1_555 1_555
C4 C3 1_555 1_555
C5 C4 1_555 1_555
H3 C5 1_555 1_555
C6 C1 1_555 1_555
H4 C6 1_555 1_555
C7 C1 1_555 1_555
C8 C4 1_555 1_555
C9 C10 1_555 1_555
C10 C11 1_555 1_555
C11 H5 1_555 1_555
C12 C10 1_555 1_555
H6 C12 1_555 1_555
C13 H7 1_555 1_555
C14 C13 1_555 1_555
H8 C14 1_555 1_555
C15 C14 1_555 1_555
H9 C15 1_555 1_555
C16 C15 1_555 1_555
C17 C16 1_555 1_555
C18 C17 1_555 1_555
C19 C18 1_555 1_555
C20 C19 1_555 1_555
H10 C20 1_555 1_555
C21 C20 1_555 1_555
H11 C21 1_555 1_555
C22 C21 1_555 1_555
H12 C22 1_555 1_555
C23 N2 1_555 1_555
C24 N1 1_555 1_555
Zn1 O4 1_555 1_555
Zn2 N1 1_555 1_555
O10 H14 1_555 1_555
H15 O10 1_555 1_555
N1E C13E 1_555 1_555
N2E C22E 1_555 1_555
O1E Zn1 1_555 1_555
O1_2 Zn1E 1_555 1_555
O2E C7E 1_555 1_555
O3E C8E 1_555 1_555
O4E C8E 1_555 1_555
O5E Zn2E 1_555 1_555
O5D C9D 1_555 1_555
O6E Zn1E 1_555 1_555
O6D C9D 1_555 1_555
O7E C17E 1_555 1_555
O8E C18E 1_555 1_555
O9A H13A 1_555 1_555
O9E H13E 1_555 1_555
O9D Zn1 1_555 1_555
C1E C2E 1_555 1_555
C2E H1E 1_555 1_555
C3E C2E 1_555 1_555
H2E C3E 1_555 1_555
C4E C3E 1_555 1_555
C5E C4E 1_555 1_555
H3E C5E 1_555 1_555
C6E C1E 1_555 1_555
H4E C6E 1_555 1_555
C7E O1E 1_555 1_555
C8E C4E 1_555 1_555
C9D C10D 1_555 1_555
C10D C11D 1_555 1_555
C11D C12 1_555 1_555
H5D C11D 1_555 1_555
C12D C11 1_555 1_555
H6D C12D 1_555 1_555
C13E H7E 1_555 1_555
C14E C13E 1_555 1_555
H8E C14E 1_555 1_555
C15E C14E 1_555 1_555
H9E C15E 1_555 1_555
C16E C15E 1_555 1_555
C17E C16E 1_555 1_555
C18E C17E 1_555 1_555
C19E C18E 1_555 1_555
C20E C19E 1_555 1_555
H10E C20E 1_555 1_555
C21E C20E 1_555 1_555
H11E C21E 1_555 1_555
C22E C21E 1_555 1_555
H12E C22E 1_555 1_555
C23E N2E 1_555 1_555
C24E N1E 1_555 1_555
H13D O9D 1_555 1_555
Zn1D O9 1_555 1_555
Zn1E O4E 1_555 1_555
Zn1E_2 O1 1_555 1_555
Zn1D_2 O6D 1_555 1_555
Zn2E N1E 1_555 1_555
Zn2D O9 1_555 1_555
Zn2D_2 O5D 1_555 1_555
N2 Zn2 1_555 1_555
O3 Zn2 1_555 1_555
O5 Zn2 1_555 1_555
O6 Zn1 1_555 1_555
O9 Zn2 1_555 1_555
C5 C6 1_555 1_555
C16 C24 1_555 1_555
C19 C23 1_555 1_555
C23 C24 1_555 1_555
Zn2 O9D 1_555 1_555
N2E Zn2E 1_555 1_555
O3E Zn2E 1_555 1_555
O9A Zn1E 1_555 1_555
O9A Zn2E 1_555 1_555
O9E Zn2E 1_555 1_555
O9D Zn2D 1_555 1_555
C1E C7E 1_555 1_555
C5E C6E 1_555 1_555
C10D C12D 1_555 1_555
C16E C24E 1_555 1_555
C19E C23E 1_555 1_555
C23E C24E 1_555 1_555

#END
