
#######################################################################
#
#                 Cambridge Crystallographic Data Centre
#                                CCDC 
#
#######################################################################
#
# If this CIF has been generated from an entry in the Cambridge 
# Structural Database, then it will include bibliographic, chemical, 
# crystal, experimental, refinement or atomic coordinate data resulting 
# from the CCDC's data processing and validation procedures.
#
#######################################################################

data_BIYTAG
_chemical_formula_moiety         '(C27 H23 Ce2 N5 O14)n'
_symmetry_cell_setting           orthorhombic
_symmetry_space_group_name_H-M   'P n m a'
_symmetry_Int_Tables_number      62
_space_group_name_Hall           '-P 2ac 2n'
loop_
_symmetry_equiv_pos_site_id
_symmetry_equiv_pos_as_xyz
1 x,y,z
2 1/2-x,-y,1/2+z
3 -x,1/2+y,-z
4 1/2+x,1/2-y,1/2-z
5 -x,-y,-z
6 1/2+x,y,1/2-z
7 x,1/2-y,z
8 1/2-x,1/2+y,1/2+z
_cell_length_a                   8.1162(4)
_cell_length_b                   30.2842(14)
_cell_length_c                   15.6709(7)
_cell_angle_alpha                90
_cell_angle_beta                 90
_cell_angle_gamma                90
_cell_volume                     3851.79
loop_
_atom_site_label
_atom_site_type_symbol
_atom_site_fract_x
_atom_site_fract_y
_atom_site_fract_z
Ce1 Ce 0.43911(4) 0.908691(9) 0.703925(18)
O1 O 0.6625(5) 0.86861(11) 0.8162(2)
O2 O 0.3865(5) 1.03933(12) 0.3871(2)
O3 O 0.2483(5) 0.96207(12) 0.6512(3)
O4 O 0.4933(5) 0.83022(12) 0.7345(2)
O5 O 0.2343(5) 1.09476(12) 0.3383(2)
O6 O 0.0027(5) 0.97380(13) 0.7094(2)
N1 N -0.0736(6) 1.08316(15) 0.5550(3)
N2 N 0.8025(10) 0.7500 0.9406(4)
C1 C 0.6015(7) 0.83181(18) 0.7914(3)
C2 C 0.6010(10) 0.7500 0.7953(5)
H1 H 0.5295 0.7500 0.7473
C3 C 0.1568(7) 1.06026(17) 0.4710(3)
C4 C 0.0232(7) 1.08705(17) 0.4867(4)
H2 H -0.0014 1.1096 0.4466
C5 C 0.1158(7) 0.98313(17) 0.6587(3)
C6 C 0.2640(7) 1.06457(16) 0.3928(3)
C7 C -0.0404(7) 1.05007(18) 0.6091(4)
H3 H -0.1110 1.0461 0.6569
C8 C 0.6543(7) 0.78963(16) 0.8311(3)
C9 C 0.0918(7) 1.02120(17) 0.5992(3)
C10 C 0.7517(7) 0.78767(17) 0.9038(3)
H4 H 0.7846 0.8148 0.9292
C11 C 0.1934(7) 1.02692(16) 0.5298(3)
H5 H 0.2870 1.0085 0.5220
O7 O 0.4448(5) 0.88346(13) 0.5523(2)
C12 C 0.4434(7) 0.90695(19) 0.4872(4)
H6 H 0.3891 0.9347 0.4928
N3 N 0.5076(14) 0.8999(3) 0.4138(5)
C13 C 0.4891(14) 0.9308(4) 0.3431(7)
H7 H 0.4254 0.9573 0.3609
H8 H 0.4279 0.9183 0.2904
H9 H 0.5989 0.9406 0.3213
C14 C 0.5953(17) 0.8577(4) 0.3978(8)
H10 H 0.7012 0.8634 0.3756
H11 H 0.5281 0.8398 0.3529
H12 H 0.5950 0.8403 0.4512
O1F O 0.6625(5) 0.63139(11) 0.8162(2)
O4F O 0.4933(5) 0.66978(12) 0.7345(2)
C1F C 0.6015(7) 0.66819(18) 0.7914(3)
C8F C 0.6543(7) 0.71037(16) 0.8311(3)
C10F C 0.7517(7) 0.71233(17) 0.9038(3)
H4F H 0.7846 0.6852 0.9292
Ce1D Ce 0.56089(4) 1.091309(9) 0.296075(18)
O2D O 0.6135(5) 0.96067(12) 0.6129(2)
O3D O 0.7517(5) 1.03793(12) 0.3488(3)
O5D O 0.7657(5) 0.90524(12) 0.6617(2)
O6D O 0.9973(5) 1.02620(13) 0.2906(2)
N1D N 1.0736(6) 0.91684(15) 0.4450(3)
C3D C 0.8432(7) 0.93974(17) 0.5290(3)
C4D C 0.9768(7) 0.91295(17) 0.5133(4)
H2D H 1.0014 0.8904 0.5534
C5D C 0.8842(7) 1.01687(17) 0.3413(3)
C6D C 0.7360(7) 0.93543(16) 0.6072(3)
C7D C 1.0404(7) 0.94993(18) 0.3909(4)
H3D H 1.1110 0.9539 0.3431
C9D C 0.9082(7) 0.97880(17) 0.4008(3)
C11D C 0.8066(7) 0.97308(16) 0.4702(3)
H5D H 0.7130 0.9915 0.4780
O7D O 0.5552(5) 1.11654(13) 0.4477(2)
C12D C 0.5566(7) 1.09305(19) 0.5128(4)
H6D H 0.6109 1.0653 0.5072
N3D N 0.4924(14) 1.1001(3) 0.5862(5)
C13D C 0.5109(14) 1.0692(4) 0.6569(7)
H7D H 0.5746 1.0427 0.6391
H8D H 0.5721 1.0817 0.7096
H9D H 0.4011 1.0594 0.6787
C14D C 0.4047(17) 1.1423(4) 0.6022(8)
H10D H 0.2988 1.1366 0.6244
H11D H 0.4719 1.1602 0.6471
H12D H 0.4050 1.1597 0.5488
Ce1A Ce 0.06089(4) 1.091309(9) 0.203925(18)
Ce1A_2 Ce 1.06089(4) 1.091309(9) 0.203925(18)
Ce1C Ce 0.93911(4) 0.591309(9) 0.796075(18)
Ce1E Ce -0.06089(4) 0.908691(9) 0.796075(18)
Ce1E_2 Ce 0.93911(4) 0.908691(9) 0.796075(18)
Ce1F Ce 0.43911(4) 0.591309(9) 0.703925(18)
O1A O 0.8375(5) 1.13139(11) 0.3162(2)
O1D O 0.3375(5) 1.13139(11) 0.1838(2)
O1E O 0.1625(5) 0.86861(11) 0.6838(2)
O4D O 0.5067(5) 1.16978(12) 0.2655(2)
O5A O 0.2657(5) 0.90524(12) 0.8383(2)
O5E O 0.7343(5) 1.09476(12) 0.1617(2)
O6A O 0.4973(5) 1.02620(13) 0.2094(2)
O6E O 0.5027(5) 0.97380(13) 0.7906(2)
loop_
_geom_bond_atom_site_label_1
_geom_bond_atom_site_label_2
_geom_bond_site_symmetry_1
_geom_bond_site_symmetry_2
Ce1 O1 1_555 1_555
O1 C1 1_555 1_555
O2 C6 1_555 1_555
O3 Ce1 1_555 1_555
O4 Ce1 1_555 1_555
O5 C6 1_555 1_555
O6 C5 1_555 1_555
N1 C4 1_555 1_555
N2 C10 1_555 1_555
C1 O4 1_555 1_555
C2 H1 1_555 1_555
C3 C4 1_555 1_555
C4 H2 1_555 1_555
C5 O3 1_555 1_555
C6 C3 1_555 1_555
C7 N1 1_555 1_555
H3 C7 1_555 1_555
C8 C1 1_555 1_555
C9 C5 1_555 1_555
C10 C8 1_555 1_555
H4 C10 1_555 1_555
C11 C3 1_555 1_555
H5 C11 1_555 1_555
O7 Ce1 1_555 1_555
C12 O7 1_555 1_555
H6 C12 1_555 1_555
N3 C12 1_555 1_555
C13 N3 1_555 1_555
H7 C13 1_555 1_555
H8 C13 1_555 1_555
H9 C13 1_555 1_555
C14 N3 1_555 1_555
H10 C14 1_555 1_555
H11 C14 1_555 1_555
H12 C14 1_555 1_555
O1F C1F 1_555 1_555
O4F C1F 1_555 1_555
C1F C8F 1_555 1_555
C8F C2 1_555 1_555
C10F N2 1_555 1_555
H4F C10F 1_555 1_555
Ce1D O2 1_555 1_555
O2D Ce1 1_555 1_555
O3D Ce1D 1_555 1_555
O5D Ce1 1_555 1_555
O6D C5D 1_555 1_555
N1D C4D 1_555 1_555
C3D C4D 1_555 1_555
C4D H2D 1_555 1_555
C5D O3D 1_555 1_555
C6D O2D 1_555 1_555
C7D N1D 1_555 1_555
H3D C7D 1_555 1_555
C9D C5D 1_555 1_555
C11D C3D 1_555 1_555
H5D C11D 1_555 1_555
O7D Ce1D 1_555 1_555
C12D O7D 1_555 1_555
H6D C12D 1_555 1_555
N3D C12D 1_555 1_555
C13D N3D 1_555 1_555
H7D C13D 1_555 1_555
H8D C13D 1_555 1_555
H9D C13D 1_555 1_555
C14D N3D 1_555 1_555
H10D C14D 1_555 1_555
H11D C14D 1_555 1_555
H12D C14D 1_555 1_555
Ce1A O5 1_555 1_555
Ce1A_2 O6D 1_555 1_555
Ce1C O1F 1_555 1_555
Ce1E O6 1_555 1_555
Ce1E_2 O1 1_555 1_555
Ce1F O1F 1_555 1_555
O1A Ce1D 1_555 1_555
O1D Ce1D 1_555 1_555
O1E Ce1 1_555 1_555
O4D Ce1D 1_555 1_555
O5A Ce1 1_555 1_555
O5E Ce1D 1_555 1_555
O6A Ce1D 1_555 1_555
O6E Ce1 1_555 1_555
O5 Ce1D 1_555 1_555
C2 C8 1_555 1_555
C7 C9 1_555 1_555
C9 C11 1_555 1_555
O4F Ce1F 1_555 1_555
C8F C10F 1_555 1_555
O5D C6D 1_555 1_555
O5D Ce1E_2 1_555 1_555
C3D C6D 1_555 1_555
C7D C9D 1_555 1_555
C9D C11D 1_555 1_555
Ce1A O1D 1_555 1_555
Ce1A_2 O1A 1_555 1_555
Ce1A_2 O5E 1_555 1_555
Ce1E O1E 1_555 1_555
Ce1E O5A 1_555 1_555

#END
