
#######################################################################
#
#                 Cambridge Crystallographic Data Centre
#                                CCDC 
#
#######################################################################
#
# If this CIF has been generated from an entry in the Cambridge 
# Structural Database, then it will include bibliographic, chemical, 
# crystal, experimental, refinement or atomic coordinate data resulting 
# from the CCDC's data processing and validation procedures.
#
#######################################################################

data_BIYTOU
_chemical_formula_moiety         '(C31 H32 Mn3 N6 O15)n'
_symmetry_cell_setting           monoclinic
_symmetry_space_group_name_H-M   'P 21/n'
_symmetry_Int_Tables_number      14
_space_group_name_Hall           '-P 2yn'
loop_
_symmetry_equiv_pos_site_id
_symmetry_equiv_pos_as_xyz
1 x,y,z
2 1/2-x,1/2+y,1/2-z
3 -x,-y,-z
4 1/2+x,1/2-y,1/2+z
_cell_length_a                   13.2579(5)
_cell_length_b                   11.4380(3)
_cell_length_c                   28.7450(10)
_cell_angle_alpha                90
_cell_angle_beta                 99.887(2)
_cell_angle_gamma                90
_cell_volume                     4294.26
loop_
_atom_site_label
_atom_site_type_symbol
_atom_site_fract_x
_atom_site_fract_y
_atom_site_fract_z
Mn1 Mn 0.95899(5) 0.54889(6) 0.66863(2)
Mn2 Mn 1.14660(6) 0.82855(6) 0.63550(2)
Mn3 Mn 0.71472(6) 0.79780(6) 0.85688(2)
O1 O 0.9854(2) 0.8642(3) 0.62988(11)
O2 O 1.5596(3) 0.7513(3) 0.86279(12)
O3 O 1.1737(3) 0.5199(3) 0.38561(11)
O4 O 1.0507(3) 0.5241(3) 0.61572(12)
O5 O 0.8977(3) 0.7204(3) 0.65734(12)
O6 O 0.6454(3) 1.0358(3) 0.78101(12)
O7 O 1.2303(3) 0.6660(3) 0.43285(11)
O8 O 1.4840(3) 0.8763(3) 0.80785(12)
O9 O 1.0806(3) 0.6001(3) 0.72428(12)
O10 O 1.1634(3) 0.7589(3) 0.70468(12)
O11 O 1.1414(3) 0.6743(3) 0.59432(12)
O12 O 0.7101(3) 0.8544(3) 0.78721(13)
N1 N 0.7834(3) 1.1095(3) 0.66748(13)
N2 N 1.3255(3) 0.5112(3) 0.82730(14)
N3 N 1.1082(4) 0.3271(3) 0.50191(15)
C1 C 0.8511(4) 0.9146(4) 0.67017(15)
C2 C 1.3983(4) 0.7011(4) 0.81803(17)
C3 C 1.2418(4) 0.6450(4) 0.76880(17)
C4 C 1.1194(4) 0.5079(4) 0.54542(16)
C5 C 1.3188(4) 0.7264(4) 0.78194(16)
H1 H 1.3167 0.7994 0.7661
C6 C 0.9180(4) 0.8258(4) 0.65066(15)
C7 C 0.8415(4) 1.0264(4) 0.65212(16)
H2 H 0.8780 1.0459 0.6275
C8 C 1.1528(4) 0.5654(4) 0.50853(16)
H3 H 1.1702 0.6460 0.5112
C9 C 1.1022(4) 0.5750(4) 0.58903(16)
C10 C 1.3980(4) 0.5926(4) 0.84056(16)
H4 H 1.4513 0.5757 0.8663
C11 C 1.1901(4) 0.5666(4) 0.42629(16)
C12 C 0.7460(4) 0.9736(4) 0.72558(16)
C13 C 1.2493(4) 0.5385(4) 0.79207(16)
H5 H 1.1976 0.4817 0.7825
C14 C 1.1546(4) 0.6688(4) 0.72898(17)
C15 C 0.8016(4) 0.8870(4) 0.70744(16)
H6 H 0.8057 0.8104 0.7203
C16 C 0.7371(4) 1.0828(4) 0.70405(16)
H7 H 0.6967 1.1408 0.7157
C17 C 1.4870(4) 0.7832(4) 0.83109(16)
C18 C 1.1606(4) 0.5039(4) 0.46752(16)
C19 C 1.1374(4) 0.3847(4) 0.46637(17)
H8 H 1.1429 0.3423 0.4385
C20 C 0.6958(4) 0.9532(4) 0.76839(17)
C21 C 1.0985(4) 0.3895(4) 0.54062(17)
H9 H 1.0760 0.3501 0.5661
O13 O 0.8784(4) 0.7976(5) 0.8606(2)
C22 C 0.9680(6) 0.8001(7) 0.8780(3)
C23 C 0.9934(8) 0.7963(12) 0.9314(4)
H10 H 0.9299 0.7908 0.9444
H11 H 1.0303 0.8676 0.9430
H12 H 1.0364 0.7280 0.9413
N4 N 1.0426(5) 0.8115(6) 0.8521(3)
C24 C 1.0136(8) 0.8096(10) 0.8021(3)
H13 H 0.9989 0.7290 0.7915
H14 H 1.0696 0.8407 0.7875
H15 H 0.9523 0.8577 0.7928
C25 C 1.1514(6) 0.8060(10) 0.8709(4)
H16 H 1.1628 0.8241 0.9048
H17 H 1.1880 0.8630 0.8545
H18 H 1.1770 0.7273 0.8662
O14 O 1.3164(3) 0.8240(3) 0.64373(14)
C26 C 1.3972(10) 0.7916(10) 0.6671(4)
N5 N 1.4306(8) 0.6980(9) 0.6854(3)
C27 C 1.3655(7) 0.6073(8) 0.6679(3)
H19 H 1.3043 0.6393 0.6480
H20 H 1.3455 0.5639 0.6943
H21 H 1.4007 0.5547 0.6491
C28 C 1.5266(13) 0.6613(15) 0.7161(6)
H22 H 1.5119 0.5981 0.7370
H23 H 1.5561 0.7279 0.7352
H24 H 1.5754 0.6337 0.6966
O15 O 1.1361(3) 0.9243(3) 0.57027(13)
C29 C 1.1651(9) 0.9619(10) 0.5403(4)
N6 N 1.1535(9) 0.9690(10) 0.4974(4)
C30 C 1.0804(7) 0.8863(8) 0.4784(3)
H25 H 1.0282 0.9240 0.4549
H26 H 1.0482 0.8531 0.5036
H27 H 1.1137 0.8239 0.4632
C31 C 1.1909(11) 1.0570(12) 0.4659(5)
H28 H 1.1996 1.0194 0.4363
H29 H 1.2567 1.0887 0.4816
H30 H 1.1409 1.1205 0.4593
Mn1A Mn 0.54101(5) 1.04889(6) 0.83137(2)
Mn1A_2 Mn 1.54101(5) 1.04889(6) 0.83137(2)
Mn1B Mn 1.04101(5) 0.45111(6) 0.33137(2)
Mn2A Mn 1.35340(6) 0.32855(6) 0.86450(2)
Mn3_2 Mn 1.71472(6) 0.79780(6) 0.85688(2)
Mn3A Mn 0.78528(6) 1.29780(6) 0.64312(2)
Mn3C Mn 1.21472(6) 0.70220(6) 0.35688(2)
O2_2 O 0.5596(3) 0.7513(3) 0.86279(12)
O3B O 0.8263(3) 0.4801(3) 0.61439(11)
O3C O 0.6737(3) 0.9801(3) 0.88561(11)
O6A O 0.8546(3) 0.5358(3) 0.71899(12)
O7C O 0.7303(3) 0.8340(3) 0.93285(11)
O8A O 1.0160(3) 0.3763(3) 0.69215(12)
N1A N 0.7166(3) 0.6095(3) 0.83252(13)
N2A N 1.1745(3) 1.0112(3) 0.67270(14)
loop_
_geom_bond_atom_site_label_1
_geom_bond_atom_site_label_2
_geom_bond_site_symmetry_1
_geom_bond_site_symmetry_2
Mn1 O4 1_555 1_555
Mn2 O1 1_555 1_555
Mn3 O12 1_555 1_555
O1 C6 1_555 1_555
O2 C17 1_555 1_555
O3 C11 1_555 1_555
O4 C9 1_555 1_555
O5 Mn1 1_555 1_555
O6 C20 1_555 1_555
O7 C11 1_555 1_555
O8 C17 1_555 1_555
O9 Mn1 1_555 1_555
O10 Mn2 1_555 1_555
O11 Mn2 1_555 1_555
O12 C20 1_555 1_555
N1 C7 1_555 1_555
N2 C10 1_555 1_555
N3 C19 1_555 1_555
C1 C6 1_555 1_555
C2 C5 1_555 1_555
C3 C5 1_555 1_555
C4 C8 1_555 1_555
C5 H1 1_555 1_555
C6 O5 1_555 1_555
C7 C1 1_555 1_555
H2 C7 1_555 1_555
C8 H3 1_555 1_555
C9 O11 1_555 1_555
C10 C2 1_555 1_555
H4 C10 1_555 1_555
C11 C18 1_555 1_555
C12 C15 1_555 1_555
C13 N2 1_555 1_555
H5 C13 1_555 1_555
C14 O9 1_555 1_555
C15 C1 1_555 1_555
H6 C15 1_555 1_555
C16 N1 1_555 1_555
H7 C16 1_555 1_555
C17 C2 1_555 1_555
C18 C8 1_555 1_555
C19 C18 1_555 1_555
H8 C19 1_555 1_555
C20 C12 1_555 1_555
C21 N3 1_555 1_555
H9 C21 1_555 1_555
O13 Mn3 1_555 1_555
C22 O13 1_555 1_555
C23 C22 1_555 1_555
H10 C23 1_555 1_555
H11 C23 1_555 1_555
H12 C23 1_555 1_555
N4 C22 1_555 1_555
C24 N4 1_555 1_555
H13 C24 1_555 1_555
H14 C24 1_555 1_555
H15 C24 1_555 1_555
C25 N4 1_555 1_555
H16 C25 1_555 1_555
H17 C25 1_555 1_555
H18 C25 1_555 1_555
O14 Mn2 1_555 1_555
C26 O14 1_555 1_555
N5 C26 1_555 1_555
C27 N5 1_555 1_555
H19 C27 1_555 1_555
H20 C27 1_555 1_555
H21 C27 1_555 1_555
C28 N5 1_555 1_555
H22 C28 1_555 1_555
H23 C28 1_555 1_555
H24 C28 1_555 1_555
O15 Mn2 1_555 1_555
C29 O15 1_555 1_555
N6 C29 1_555 1_555
C30 N6 1_555 1_555
H25 C30 1_555 1_555
H26 C30 1_555 1_555
H27 C30 1_555 1_555
C31 N6 1_555 1_555
H28 C31 1_555 1_555
H29 C31 1_555 1_555
H30 C31 1_555 1_555
Mn1A O6 1_555 1_555
Mn1A_2 O8 1_555 1_555
Mn1B O3 1_555 1_555
Mn2A N2 1_555 1_555
Mn3_2 O2 1_555 1_555
Mn3A N1 1_555 1_555
Mn3C O3 1_555 1_555
O2_2 Mn3 1_555 1_555
O3B Mn1 1_555 1_555
O3C Mn3 1_555 1_555
O6A Mn1 1_555 1_555
O7C Mn3 1_555 1_555
O8A Mn1 1_555 1_555
N1A Mn3 1_555 1_555
N2A Mn2 1_555 1_555
O7 Mn3C 1_555 1_555
O10 C14 1_555 1_555
C3 C13 1_555 1_555
C3 C14 1_555 1_555
C4 C9 1_555 1_555
C4 C21 1_555 1_555
C12 C16 1_555 1_555
Mn1A O3C 1_555 1_555

#END
