
#######################################################################
#
#                 Cambridge Crystallographic Data Centre
#                                CCDC 
#
#######################################################################
#
# If this CIF has been generated from an entry in the Cambridge 
# Structural Database, then it will include bibliographic, chemical, 
# crystal, experimental, refinement or atomic coordinate data resulting 
# from the CCDC's data processing and validation procedures.
#
#######################################################################

data_BIYVIQ
_chemical_formula_moiety         '(C27 H23 N5 O14 Tb2)n'
_symmetry_cell_setting           orthorhombic
_symmetry_space_group_name_H-M   'P 21 21 21'
_symmetry_Int_Tables_number      19
_space_group_name_Hall           'P 2ac 2ab'
loop_
_symmetry_equiv_pos_site_id
_symmetry_equiv_pos_as_xyz
1 x,y,z
2 1/2-x,-y,1/2+z
3 -x,1/2+y,1/2-z
4 1/2+x,1/2-y,-z
_cell_length_a                   8.5085(4)
_cell_length_b                   16.0156(8)
_cell_length_c                   27.9393(14)
_cell_angle_alpha                90
_cell_angle_beta                 90
_cell_angle_gamma                90
_cell_volume                     3807.25
loop_
_atom_site_label
_atom_site_type_symbol
_atom_site_fract_x
_atom_site_fract_y
_atom_site_fract_z
Tb1 Tb 0.77034(9) 0.80614(2) 0.33229(2)
Tb2 Tb 0.73059(9) 1.20398(3) 0.16917(2)
O1 O 0.5208(13) 0.7122(5) 0.3714(3)
O2 O 0.9416(12) 1.1188(5) 0.1839(3)
O3 O 1.1465(14) 0.7628(5) 0.2648(3)
O4 O 0.6672(13) 1.0660(5) 0.1450(3)
O5 O 0.5152(11) 0.7067(5) 0.6271(3)
O6 O 1.1749(13) 1.1638(5) 0.1601(4)
O7 O 0.6842(12) 0.7887(5) 0.5897(3)
O8 O 0.3214(10) 0.8441(5) 0.3368(3)
O9 O 0.6855(11) 0.7929(5) 0.4115(3)
O10 O 0.9401(14) 0.8471(6) 0.2717(3)
O11 O 0.5605(14) 1.1668(6) 0.2292(3)
O12 O 0.5572(13) 0.8947(5) 0.3158(4)
O13 O 0.8270(13) 0.9453(5) 0.3564(3)
O14 O 0.3453(13) 1.2471(5) 0.2346(3)
N1 N 0.1287(16) 1.0799(6) 0.3248(4)
N2 N 0.4148(10) 0.5828(5) 0.4971(4)
N3 N 1.3713(15) 0.9281(6) 0.1746(4)
N4 N 0.738(2) 0.9321(6) 0.1378(4)
N5 N 0.751(3) 1.0788(6) 0.3660(4)
C1 C 0.5796(18) 0.7367(7) 0.4093(4)
C2 C 1.0880(15) 1.1103(6) 0.1761(4)
C3 C 0.431(2) 1.1817(8) 0.2442(5)
C4 C 0.3501(16) 0.9867(7) 0.3145(5)
C5 C 1.1590(16) 1.0252(7) 0.1847(4)
C6 C 0.4548(18) 0.6235(7) 0.4570(4)
H1 H 0.4275 0.5991 0.4271
C7 C 1.147(2) 0.8890(8) 0.2217(4)
C8 C 1.293(2) 0.8726(8) 0.2000(5)
H2 H 1.3378 0.8187 0.2039
C9 C 0.6995(17) 0.9929(7) 0.1614(5)
H3 H 0.6926 0.9854 0.1950
C10 C 0.3510(16) 1.1181(7) 0.2767(4)
C11 C 1.0819(17) 0.9663(7) 0.2131(4)
H4 H 0.9828 0.9798 0.2267
C12 C 0.5319(16) 0.6974(7) 0.4566(4)
C13 C 0.4263(17) 1.0468(7) 0.2865(4)
H5 H 0.5294 1.0371 0.2747
C14 C 0.5433(18) 0.6949(7) 0.5421(4)
C15 C 0.1974(18) 1.0078(7) 0.3327(5)
H6 H 0.1432 0.9675 0.3514
C16 C 1.3039(17) 1.0034(7) 0.1667(6)
H7 H 1.3592 1.0432 0.1479
C17 C 0.5821(10) 0.7339(6) 0.4983(5)
H8 H 0.6416 0.7841 0.4978
C18 C 0.5820(18) 0.7336(7) 0.5882(5)
C19 C 0.4160(19) 0.9036(7) 0.3248(5)
C20 C 0.4553(17) 0.6184(8) 0.5391(4)
H9 H 0.4244 0.5918 0.5679
C21 C 0.2014(18) 1.1335(7) 0.2960(4)
H10 H 0.1499 1.1843 0.2881
C22 C 0.7974(19) 1.0144(7) 0.3402(5)
H11 H 0.8088 1.0223 0.3067
C23 C 1.0781(17) 0.8265(8) 0.2550(4)
C24 C 0.759(3) 0.8471(8) 0.1569(7)
H12 H 0.8614 0.8253 0.1468
H13 H 0.6754 0.8109 0.1446
H14 H 0.7543 0.8487 0.1919
C25 C 0.745(4) 1.1624(8) 0.3448(5)
H15 H 0.7806 1.1598 0.3115
H16 H 0.8133 1.2001 0.3629
H17 H 0.6367 1.1833 0.3458
C26 C 0.814(4) 1.0855(19) 0.4205(10)
H18 H 0.8233 1.0294 0.4342
H19 H 0.7404 1.1186 0.4395
H20 H 0.9176 1.1126 0.4206
C27 C 0.759(4) 0.9321(16) 0.0846(9)
Tb1B Tb 0.22966(9) 1.30614(2) 0.16771(2)
Tb1B_2 Tb 1.22966(9) 1.30614(2) 0.16771(2)
Tb1C Tb 0.27034(9) 0.69386(2) 0.66771(2)
Tb2A Tb 0.76941(9) 0.79602(3) 0.66917(2)
Tb2B Tb 0.26941(9) 0.70398(3) 0.33083(2)
Tb2B_2 Tb 1.26941(9) 0.70398(3) 0.33083(2)
O1B O 0.4792(13) 1.2122(5) 0.1286(3)
O3B O 0.8535(14) 1.2628(5) 0.2352(3)
O5A O 0.9848(11) 1.2933(5) 0.1271(3)
O5C O 1.0152(11) 0.7933(5) 0.3729(3)
O6B O 0.8251(13) 0.6638(5) 0.3399(4)
O7A O 0.8158(12) 1.2113(5) 0.0897(3)
O8B O 0.6786(10) 1.3441(5) 0.1632(3)
O14B O 0.6547(13) 0.7471(5) 0.2654(3)
loop_
_geom_bond_atom_site_label_1
_geom_bond_atom_site_label_2
_geom_bond_site_symmetry_1
_geom_bond_site_symmetry_2
Tb1 O1 1_555 1_555
Tb2 O2 1_555 1_555
O1 C1 1_555 1_555
O2 C2 1_555 1_555
O3 C23 1_555 1_555
O4 Tb2 1_555 1_555
O5 C18 1_555 1_555
O6 C2 1_555 1_555
O7 C18 1_555 1_555
O8 C19 1_555 1_555
O9 Tb1 1_555 1_555
O10 Tb1 1_555 1_555
O11 Tb2 1_555 1_555
O12 Tb1 1_555 1_555
O13 Tb1 1_555 1_555
O14 C3 1_555 1_555
N1 C15 1_555 1_555
N2 C6 1_555 1_555
N3 C8 1_555 1_555
N4 C9 1_555 1_555
N5 C22 1_555 1_555
C1 O9 1_555 1_555
C2 C5 1_555 1_555
C3 O11 1_555 1_555
C4 C13 1_555 1_555
C5 C11 1_555 1_555
C6 H1 1_555 1_555
C7 C8 1_555 1_555
C8 H2 1_555 1_555
C9 O4 1_555 1_555
H3 C9 1_555 1_555
C10 C3 1_555 1_555
C11 C7 1_555 1_555
H4 C11 1_555 1_555
C12 C1 1_555 1_555
C13 C10 1_555 1_555
H5 C13 1_555 1_555
C14 C17 1_555 1_555
C15 C4 1_555 1_555
H6 C15 1_555 1_555
C16 N3 1_555 1_555
H7 C16 1_555 1_555
C17 C12 1_555 1_555
H8 C17 1_555 1_555
C18 C14 1_555 1_555
C19 O12 1_555 1_555
C20 N2 1_555 1_555
H9 C20 1_555 1_555
C21 N1 1_555 1_555
H10 C21 1_555 1_555
C22 O13 1_555 1_555
H11 C22 1_555 1_555
C23 O10 1_555 1_555
C24 N4 1_555 1_555
H12 C24 1_555 1_555
H13 C24 1_555 1_555
H14 C24 1_555 1_555
C25 N5 1_555 1_555
H15 C25 1_555 1_555
H16 C25 1_555 1_555
H17 C25 1_555 1_555
C26 N5 1_555 1_555
H18 C26 1_555 1_555
H19 C26 1_555 1_555
H20 C26 1_555 1_555
C27 N4 1_555 1_555
Tb1B O14 1_555 1_555
Tb1B_2 O6 1_555 1_555
Tb1C O5 1_555 1_555
Tb2A O5 1_555 1_555
Tb2B O1 1_555 1_555
Tb2B_2 O3 1_555 1_555
O1B Tb2 1_555 1_555
O3B Tb2 1_555 1_555
O5A Tb2 1_555 1_555
O5C Tb1 1_555 1_555
O6B Tb1 1_555 1_555
O7A Tb2 1_555 1_555
O8B Tb2 1_555 1_555
O14B Tb1 1_555 1_555
O7 Tb2A 1_555 1_555
O8 Tb2B 1_555 1_555
C4 C19 1_555 1_555
C5 C16 1_555 1_555
C6 C12 1_555 1_555
C7 C23 1_555 1_555
C10 C21 1_555 1_555
C14 C20 1_555 1_555
Tb1B O1B 1_555 1_555
Tb1B_2 O5A 1_555 1_555
Tb2B_2 O5C 1_555 1_555

#END
