
#######################################################################
#
#                 Cambridge Crystallographic Data Centre
#                                CCDC 
#
#######################################################################
#
# If this CIF has been generated from an entry in the Cambridge 
# Structural Database, then it will include bibliographic, chemical, 
# crystal, experimental, refinement or atomic coordinate data resulting 
# from the CCDC's data processing and validation procedures.
#
#######################################################################

data_BIYVEM
_chemical_formula_moiety         '(C27 H23 N5 O14 Sm2)n'
_symmetry_cell_setting           orthorhombic
_symmetry_space_group_name_H-M   'P n m a'
_symmetry_Int_Tables_number      62
_space_group_name_Hall           '-P 2ac 2n'
loop_
_symmetry_equiv_pos_site_id
_symmetry_equiv_pos_as_xyz
1 x,y,z
2 1/2-x,-y,1/2+z
3 -x,1/2+y,-z
4 1/2+x,1/2-y,1/2-z
5 -x,-y,-z
6 1/2+x,y,1/2-z
7 x,1/2-y,z
8 1/2-x,1/2+y,1/2+z
_cell_length_a                   8.02340(10)
_cell_length_b                   30.2439(5)
_cell_length_c                   15.3280(2)
_cell_angle_alpha                90
_cell_angle_beta                 90
_cell_angle_gamma                90
_cell_volume                     3719.48
loop_
_atom_site_label
_atom_site_type_symbol
_atom_site_fract_x
_atom_site_fract_y
_atom_site_fract_z
Sm1 Sm 0.43608(2) 0.907010(5) 0.704300(10)
O1 O 0.6573(3) 0.86874(7) 0.81759(15)
O2 O 0.3913(3) 1.04198(8) 0.38552(15)
O3 O 0.2543(3) 0.95998(8) 0.65063(16)
O4 O 0.4882(3) 0.83050(8) 0.73235(16)
O5 O 0.2364(3) 1.09708(8) 0.33781(15)
O6 O 0.0013(3) 0.96958(8) 0.70828(14)
N1 N -0.0746(4) 1.08242(10) 0.5601(2)
N2 N 0.7875(6) 0.7500 0.9478(3)
C1 C 0.5963(4) 0.83219(11) 0.7916(2)
C2 C 0.5986(6) 0.7500 0.7945(3)
H1 H 0.5322 0.7500 0.7432
C3 C 0.1602(4) 1.06078(10) 0.4721(2)
C4 C 0.0242(5) 1.08790(11) 0.4904(2)
H2 H 0.0002 1.1115 0.4514
C5 C 0.1191(4) 0.97985(10) 0.6584(2)
C6 C 0.2661(4) 1.06641(10) 0.3927(2)
C7 C -0.0415(4) 1.04793(11) 0.6123(2)
H3 H -0.1139 1.0427 0.6602
C8 C 0.6482(4) 0.78958(10) 0.8328(2)
C9 C 0.0925(4) 1.01942(10) 0.6003(2)
C10 C 0.7424(4) 0.78794(11) 0.9089(2)
H4 H 0.7765 0.8150 0.9347
C11 C 0.1959(4) 1.02656(10) 0.5298(2)
H5 H 0.2906 1.0083 0.5207
O7 O 0.4383(3) 0.88243(8) 0.55347(16)
C12 C 0.4401(4) 0.90602(12) 0.4868(2)
H6 H 0.3858 0.9338 0.4925
N3 N 0.5020(10) 0.8984(2) 0.4123(4)
C13 C 0.4866(10) 0.9304(3) 0.3396(5)
H7 H 0.4254 0.9573 0.3609
H8 H 0.4279 0.9183 0.2904
H9 H 0.5989 0.9406 0.3213
C14 C 0.5916(11) 0.8577(3) 0.3951(6)
H10 H 0.7012 0.8634 0.3756
H11 H 0.5281 0.8398 0.3529
H12 H 0.5950 0.8403 0.4512
O1F O 0.6573(3) 0.63126(7) 0.81759(15)
O4F O 0.4882(3) 0.66950(8) 0.73235(16)
C1F C 0.5963(4) 0.66781(11) 0.7916(2)
C8F C 0.6482(4) 0.71042(10) 0.8328(2)
C10F C 0.7424(4) 0.71206(11) 0.9089(2)
H4F H 0.7765 0.6850 0.9347
Sm1D Sm 0.56392(2) 1.092990(5) 0.295700(10)
O2D O 0.6087(3) 0.95802(8) 0.61448(15)
O3D O 0.7457(3) 1.04002(8) 0.34937(16)
O5D O 0.7636(3) 0.90292(8) 0.66219(15)
O6D O 0.9987(3) 1.03042(8) 0.29172(14)
N1D N 1.0746(4) 0.91758(10) 0.4399(2)
C3D C 0.8398(4) 0.93922(10) 0.5279(2)
C4D C 0.9758(5) 0.91210(11) 0.5096(2)
H2D H 0.9998 0.8885 0.5486
C5D C 0.8809(4) 1.02015(10) 0.3416(2)
C6D C 0.7339(4) 0.93359(10) 0.6073(2)
C7D C 1.0415(4) 0.95207(11) 0.3877(2)
H3D H 1.1139 0.9573 0.3398
C9D C 0.9075(4) 0.98058(10) 0.3997(2)
C11D C 0.8041(4) 0.97344(10) 0.4702(2)
H5D H 0.7094 0.9917 0.4793
O7D O 0.5617(3) 1.11757(8) 0.44653(16)
C12D C 0.5599(4) 1.09398(12) 0.5132(2)
H6D H 0.6142 1.0662 0.5075
N3D N 0.4980(10) 1.1016(2) 0.5877(4)
C13D C 0.5134(10) 1.0696(3) 0.6604(5)
H7D H 0.5746 1.0427 0.6391
H8D H 0.5721 1.0817 0.7096
H9D H 0.4011 1.0594 0.6787
C14D C 0.4084(11) 1.1423(3) 0.6049(6)
H10D H 0.2988 1.1366 0.6244
H11D H 0.4719 1.1602 0.6471
H12D H 0.4050 1.1597 0.5488
Sm1A Sm 0.06392(2) 1.092990(5) 0.204300(10)
Sm1A_2 Sm 1.06392(2) 1.092990(5) 0.204300(10)
Sm1C Sm 0.93608(2) 0.592990(5) 0.795700(10)
Sm1E Sm -0.06392(2) 0.907010(5) 0.795700(10)
Sm1E_2 Sm 0.93608(2) 0.907010(5) 0.795700(10)
Sm1F Sm 0.43608(2) 0.592990(5) 0.704300(10)
O1A O 0.8427(3) 1.13126(7) 0.31759(15)
O1D O 0.3427(3) 1.13126(7) 0.18241(15)
O1E O 0.1573(3) 0.86874(7) 0.68241(15)
O4D O 0.5118(3) 1.16950(8) 0.26765(16)
O5A O 0.2636(3) 0.90292(8) 0.83781(15)
O5E O 0.7364(3) 1.09708(8) 0.16219(15)
O6A O 0.4987(3) 1.03042(8) 0.20828(14)
O6E O 0.5013(3) 0.96958(8) 0.79172(14)
loop_
_geom_bond_atom_site_label_1
_geom_bond_atom_site_label_2
_geom_bond_site_symmetry_1
_geom_bond_site_symmetry_2
Sm1 O1 1_555 1_555
O1 C1 1_555 1_555
O2 C6 1_555 1_555
O3 Sm1 1_555 1_555
O4 Sm1 1_555 1_555
O5 C6 1_555 1_555
O6 C5 1_555 1_555
N1 C4 1_555 1_555
N2 C10 1_555 1_555
C1 O4 1_555 1_555
C2 H1 1_555 1_555
C3 C4 1_555 1_555
C4 H2 1_555 1_555
C5 O3 1_555 1_555
C6 C3 1_555 1_555
C7 N1 1_555 1_555
H3 C7 1_555 1_555
C8 C1 1_555 1_555
C9 C5 1_555 1_555
C10 C8 1_555 1_555
H4 C10 1_555 1_555
C11 C3 1_555 1_555
H5 C11 1_555 1_555
O7 Sm1 1_555 1_555
C12 O7 1_555 1_555
H6 C12 1_555 1_555
N3 C12 1_555 1_555
C13 N3 1_555 1_555
H7 C13 1_555 1_555
H8 C13 1_555 1_555
H9 C13 1_555 1_555
C14 N3 1_555 1_555
H10 C14 1_555 1_555
H11 C14 1_555 1_555
H12 C14 1_555 1_555
O1F C1F 1_555 1_555
O4F C1F 1_555 1_555
C1F C8F 1_555 1_555
C8F C2 1_555 1_555
C10F N2 1_555 1_555
H4F C10F 1_555 1_555
Sm1D O2 1_555 1_555
O2D Sm1 1_555 1_555
O3D Sm1D 1_555 1_555
O5D Sm1 1_555 1_555
O6D C5D 1_555 1_555
N1D C4D 1_555 1_555
C3D C4D 1_555 1_555
C4D H2D 1_555 1_555
C5D O3D 1_555 1_555
C6D O2D 1_555 1_555
C7D N1D 1_555 1_555
H3D C7D 1_555 1_555
C9D C5D 1_555 1_555
C11D C3D 1_555 1_555
H5D C11D 1_555 1_555
O7D Sm1D 1_555 1_555
C12D O7D 1_555 1_555
H6D C12D 1_555 1_555
N3D C12D 1_555 1_555
C13D N3D 1_555 1_555
H7D C13D 1_555 1_555
H8D C13D 1_555 1_555
H9D C13D 1_555 1_555
C14D N3D 1_555 1_555
H10D C14D 1_555 1_555
H11D C14D 1_555 1_555
H12D C14D 1_555 1_555
Sm1A O5 1_555 1_555
Sm1A_2 O6D 1_555 1_555
Sm1C O1F 1_555 1_555
Sm1E O6 1_555 1_555
Sm1E_2 O1 1_555 1_555
Sm1F O1F 1_555 1_555
O1A Sm1D 1_555 1_555
O1D Sm1D 1_555 1_555
O1E Sm1 1_555 1_555
O4D Sm1D 1_555 1_555
O5A Sm1 1_555 1_555
O5E Sm1D 1_555 1_555
O6A Sm1D 1_555 1_555
O6E Sm1 1_555 1_555
O5 Sm1D 1_555 1_555
C2 C8 1_555 1_555
C7 C9 1_555 1_555
C9 C11 1_555 1_555
O4F Sm1F 1_555 1_555
C8F C10F 1_555 1_555
O5D C6D 1_555 1_555
O5D Sm1E_2 1_555 1_555
C3D C6D 1_555 1_555
C7D C9D 1_555 1_555
C9D C11D 1_555 1_555
Sm1A O1D 1_555 1_555
Sm1A_2 O1A 1_555 1_555
Sm1A_2 O5E 1_555 1_555
Sm1E O1E 1_555 1_555
Sm1E O5A 1_555 1_555

#END
