
#######################################################################
#
#                 Cambridge Crystallographic Data Centre
#                                CCDC 
#
#######################################################################
#
# If this CIF has been generated from an entry in the Cambridge 
# Structural Database, then it will include bibliographic, chemical, 
# crystal, experimental, refinement or atomic coordinate data resulting 
# from the CCDC's data processing and validation procedures.
#
#######################################################################

data_BUKMUQ01
_chemical_formula_moiety         '(C15 H21 N3 O6 Zn1)n'
_symmetry_cell_setting           orthorhombic
_symmetry_space_group_name_H-M   'P 21 21 21'
_symmetry_Int_Tables_number      19
_space_group_name_Hall           'P 2ac 2ab'
loop_
_symmetry_equiv_pos_site_id
_symmetry_equiv_pos_as_xyz
1 x,y,z
2 1/2+x,1/2-y,-z
3 -x,1/2+y,1/2-z
4 1/2-x,-y,1/2+z
_cell_length_a                   10.8285(4)
_cell_length_b                   11.1933(4)
_cell_length_c                   14.7990(6)
_cell_angle_alpha                90
_cell_angle_beta                 90
_cell_angle_gamma                90
_cell_volume                     1793.74
loop_
_atom_site_label
_atom_site_type_symbol
_atom_site_fract_x
_atom_site_fract_y
_atom_site_fract_z
_atom_site_U_iso_or_equiv
_atom_site_thermal_displace_type
Zn1 Zn 0.34279(2) 0.81577(2) 0.158400(17) 0.0123 Uani
O1 O 0.26005(14) 0.24718(15) 0.56238(11) 0.0190 Uani
O2 O 0.10602(15) 0.37047(16) 0.52490(13) 0.0262 Uani
O3 O 0.40304(14) 0.70387(15) 0.24790(11) 0.0197 Uani
O4 O 0.21025(15) 0.69836(18) 0.29872(13) 0.0331 Uani
N1 N 0.49701(16) 0.39689(16) 0.37997(12) 0.0134 Uani
C1 C 0.46436(19) 0.49909(18) 0.33816(17) 0.0141 Uani
H1 H 0.5220 0.5363 0.2988 0.0170 Uiso
C2 C 0.41604(19) 0.34601(18) 0.43704(14) 0.0128 Uani
H2 H 0.4386 0.2739 0.4667 0.0150 Uiso
C3 C 0.30105(19) 0.3949(2) 0.45414(15) 0.0143 Uani
C4 C 0.26720(19) 0.4995(2) 0.40980(16) 0.0135 Uani
H3 H 0.1885 0.5345 0.4201 0.0160 Uiso
C5 C 0.3502(2) 0.55179(17) 0.35045(15) 0.0145 Uani
C6 C 0.2120(2) 0.3356(2) 0.51874(16) 0.0152 Uani
C7 C 0.3158(2) 0.6609(2) 0.29602(16) 0.0171 Uani
O5 O 0.26266(14) 0.95797(14) 0.21071(12) 0.0194 Uani
C8 C 0.1537(2) 0.97056(18) 0.23973(14) 0.0168 Uani
C9 C 0.0489(2) 0.9003(2) 0.20232(18) 0.0258 Uani
H4 H 0.0786 0.8493 0.1531 0.0390 Uiso
H5 H -0.0144 0.9549 0.1792 0.0390 Uiso
H6 H 0.0133 0.8503 0.2501 0.0390 Uiso
N2 N 0.13187(19) 1.04988(19) 0.30360(14) 0.0255 Uani
C10 C 0.0060(3) 1.0740(3) 0.3360(2) 0.0416 Uani
H7 H -0.0431 1.1086 0.2869 0.0620 Uiso
H8 H 0.0093 1.1304 0.3866 0.0620 Uiso
H9 H -0.0322 0.9992 0.3561 0.0620 Uiso
C11 C 0.2276(3) 1.1292(3) 0.3357(2) 0.0407 Uani
H10 H 0.2301 1.1270 0.4019 0.0610 Uiso
H11 H 0.2100 1.2109 0.3156 0.0610 Uiso
H12 H 0.3075 1.1036 0.3115 0.0610 Uiso
Zn1B Zn 0.65721(2) 0.31577(2) 0.341600(17) 0.0123 Uani
Zn1C Zn 0.15721(2) 0.18423(2) 0.658400(17) 0.0123 Uani
O1C O 0.23995(14) 0.75282(15) 0.06238(11) 0.0190 Uani
N1B N 0.50299(16) 0.89689(16) 0.12003(12) 0.0134 Uani
O6 O 0.1271(2) 1.2427(3) 0.13641(17) 0.0711 Uani
C12 C 0.2341(7) 1.2593(8) 0.1074(5) 0.0363 Uani
C13 C 0.3312(4) 1.3477(3) 0.1405(3) 0.0607 Uani
H13 H 0.2949 1.3999 0.1866 0.0910 Uiso
H14 H 0.3602 1.3962 0.0896 0.0910 Uiso
H15 H 0.4010 1.3039 0.1666 0.0910 Uiso
N3 N 0.2710(7) 1.1874(7) 0.0408(5) 0.0440 Uani
C14 C 0.3968(4) 1.2002(5) 0.0023(3) 0.0840 Uani
H16 H 0.4384 1.2685 0.0305 0.1260 Uiso
H17 H 0.3909 1.2134 -0.0630 0.1260 Uiso
H18 H 0.4443 1.1273 0.0140 0.1260 Uiso
C15 C 0.1812(5) 1.0981(4) 0.0074(3) 0.0807 Uani
H19 H 0.1010 1.1117 0.0363 0.1210 Uiso
H20 H 0.2106 1.0177 0.0221 0.1210 Uiso
H21 H 0.1725 1.1060 -0.0582 0.1210 Uiso
loop_
_atom_site_aniso_label
_atom_site_aniso_U_11
_atom_site_aniso_U_22
_atom_site_aniso_U_33
_atom_site_aniso_U_23
_atom_site_aniso_U_13
_atom_site_aniso_U_12
Zn1 0.01247(10) 0.01253(10) 0.01200(11) -0.00051(10) -0.00079(10) -0.00020(10)
O1 0.0197 0.0206 0.0168 0.0063 0.0038 0.0007
O2 0.0175 0.0278 0.0332 0.0105 0.0061 0.0024
O3 0.0188(8) 0.0214(9) 0.0188(8) 0.0089(7) 0.0013(6) 0.0009(6)
O4 0.0226(8) 0.0366(11) 0.0401(11) 0.0215(9) 0.0057(8) 0.0117(8)
N1 0.0145 0.014 0.0118 -0.0018 0.0003 0.0006
C1 0.0168(9) 0.0151(9) 0.0105(10) -0.0014(9) -0.0014(9) -0.0016(7)
C2 0.0180(10) 0.0122(10) 0.0083(10) -0.0006(7) -0.0024(8) -0.0022(7)
C3 0.0158(9) 0.0157(10) 0.0113(11) -0.0022(8) -0.0023(8) -0.0018(8)
C4 0.0123(10) 0.0164(9) 0.0118(10) -0.0013(8) -0.0003(8) 0.0005(8)
C5 0.0154(9) 0.0162(9) 0.0119(10) 0.0005(8) -0.0032(10) -0.0011(8)
C6 0.0179 0.016 0.0116 -0.0002 0.002 -0.0041
C7 0.0208(11) 0.0168(11) 0.0138(11) 0.0027(8) -0.0007(8) 0.0007(8)
O5 0.0165(7) 0.0174(8) 0.0244(9) -0.0064(7) 0.0018(7) 0.0003(6)
C8 0.0197(10) 0.0152(10) 0.0156(11) 0.0020(8) 0.0001(10) 0.0051(10)
C9 0.0164(11) 0.0336(14) 0.0273(14) -0.0038(12) -0.0001(10) 0.0005(10)
N2 0.0321(12) 0.0231(11) 0.0213(11) -0.0041(9) 0.0079(9) 0.0029(9)
C10 0.0447(16) 0.0387(16) 0.0413(18) -0.0056(15) 0.0223(16) 0.0114(13)
C11 0.0575(19) 0.0322(15) 0.0325(17) -0.0182(14) 0.0018(16) -0.0059(13)
Zn1B 0.01247 0.01253 0.012 0.00051 -0.00079 0.0002
Zn1C 0.01247 0.01253 0.012 0.00051 0.00079 -0.0002
O1C 0.0197 0.0206 0.0168 -0.0063 -0.0038 0.0007
N1B 0.0145 0.014 0.0118 0.0018 0.0003 -0.0006
O6 0.0388(13) 0.136(3) 0.0384(15) -0.0048(15) 0.0063(10) 0.0100(14)
C12 0.033(4) 0.049(4) 0.027(4) -0.001(3) -0.006(3) 0.011(3)
C13 0.072(2) 0.050(2) 0.060(3) 0.0080(16) -0.029(2) -0.0028(18)
N3 0.053(4) 0.051(4) 0.028(3) 0.004(3) 0.010(3) 0.015(4)
C14 0.068(2) 0.132(4) 0.052(2) 0.035(3) 0.023(2) 0.058(3)
C15 0.145(5) 0.058(2) 0.039(2) -0.0031(19) -0.020(3) 0.002(3)
loop_
_geom_bond_atom_site_label_1
_geom_bond_atom_site_label_2
_geom_bond_site_symmetry_1
_geom_bond_site_symmetry_2
Zn1 O3 1_555 1_555
O1 C6 1_555 1_555
O2 C6 1_555 1_555
O3 C7 1_555 1_555
O4 C7 1_555 1_555
N1 C1 1_555 1_555
C1 H1 1_555 1_555
C2 N1 1_555 1_555
H2 C2 1_555 1_555
C3 C2 1_555 1_555
C4 C3 1_555 1_555
H3 C4 1_555 1_555
C5 C1 1_555 1_555
C6 C3 1_555 1_555
C7 C5 1_555 1_555
O5 Zn1 1_555 1_555
C8 O5 1_555 1_555
C9 C8 1_555 1_555
H4 C9 1_555 1_555
H5 C9 1_555 1_555
H6 C9 1_555 1_555
N2 C8 1_555 1_555
C10 N2 1_555 1_555
H7 C10 1_555 1_555
H8 C10 1_555 1_555
H9 C10 1_555 1_555
C11 N2 1_555 1_555
H10 C11 1_555 1_555
H11 C11 1_555 1_555
H12 C11 1_555 1_555
O6 C12 1_555 1_555
C12 C13 1_555 1_555
C13 H13 1_555 1_555
H14 C13 1_555 1_555
H15 C13 1_555 1_555
N3 C12 1_555 1_555
C14 N3 1_555 1_555
H16 C14 1_555 1_555
H17 C14 1_555 1_555
H18 C14 1_555 1_555
C15 N3 1_555 1_555
H19 C15 1_555 1_555
H20 C15 1_555 1_555
H21 C15 1_555 1_555
Zn1B N1 1_555 1_555
Zn1C O1 1_555 1_555
O1C Zn1 1_555 1_555
N1B Zn1 1_555 1_555
C4 C5 1_555 1_555

#END
