
#######################################################################
#
#                 Cambridge Crystallographic Data Centre
#                                CCDC 
#
#######################################################################
#
# If this CIF has been generated from an entry in the Cambridge 
# Structural Database, then it will include bibliographic, chemical, 
# crystal, experimental, refinement or atomic coordinate data resulting 
# from the CCDC's data processing and validation procedures.
#
#######################################################################

data_IXOSUL
_chemical_formula_moiety         '(C39 H31 Li4 N3 O4)n'
_symmetry_cell_setting           rhombohedral
_symmetry_space_group_name_H-M   'R 3'
_symmetry_Int_Tables_number      146
_space_group_name_Hall           'R 3'
loop_
_symmetry_equiv_pos_site_id
_symmetry_equiv_pos_as_xyz
1 x,y,z
2 -y,x-y,z
3 -x+y,-x,z
4 2/3+x,1/3+y,1/3+z
5 2/3-y,1/3+x-y,1/3+z
6 2/3-x+y,1/3-x,1/3+z
7 1/3+x,2/3+y,2/3+z
8 1/3-y,2/3+x-y,2/3+z
9 1/3-x+y,2/3-x,2/3+z
_cell_length_a                   26.419(2)
_cell_length_b                   26.419(2)
_cell_length_c                   16.2344(16)
_cell_angle_alpha                90
_cell_angle_beta                 90
_cell_angle_gamma                120
_cell_volume                     9812.95
loop_
_atom_site_label
_atom_site_type_symbol
_atom_site_fract_x
_atom_site_fract_y
_atom_site_fract_z
_atom_site_U_iso_or_equiv
_atom_site_thermal_displace_type
Li1 Li 0.3583(5) 0.3847(5) 0.6645(7) 0.0266 Uani
Li2 Li 0.3584(5) 0.2882(5) 0.6799(6) 0.0244 Uani
Li3 Li 0.3315(5) 0.3279(5) 0.8131(7) 0.0216 Uani
Li4 Li 0.3760(5) 0.3031(5) 1.0175(7) 0.0287 Uani
C1 C 0.4580(3) 0.3923(3) 0.7569(4) 0.0197 Uani
C2 C 0.4984(3) 0.4461(3) 0.7237(4) 0.0297 Uani
H1 H 0.4864 0.4618 0.6820 0.0360 Uiso
C3 C 0.5552(3) 0.4768(3) 0.7504(4) 0.0334 Uani
H2 H 0.5799 0.5132 0.7272 0.0400 Uiso
C4 C 0.5773(3) 0.4559(3) 0.8104(4) 0.0317 Uani
C5 C 0.4788(3) 0.3698(3) 0.8167(4) 0.0263 Uani
H3 H 0.4532 0.3340 0.8406 0.0310 Uiso
C6 C 0.6386(4) 0.4908(4) 0.8342(5) 0.0439 Uani
H4 H 0.6608 0.5262 0.8069 0.0520 Uiso
C7 C 0.6648(4) 0.4775(4) 0.8890(6) 0.0558 Uani
H5 H 0.6431 0.4414 0.9147 0.0670 Uiso
C8 C 0.7269(3) 0.5146(4) 0.9155(5) 0.0387 Uani
C9 C 0.7665(4) 0.5686(4) 0.8837(5) 0.0427 Uani
H6 H 0.7552 0.5843 0.8413 0.0510 Uiso
C10 C 0.8229(3) 0.5996(3) 0.9140(5) 0.0353 Uani
H7 H 0.8483 0.6359 0.8912 0.0420 Uiso
C11 C 0.5377(3) 0.3999(4) 0.8424(4) 0.0361 Uani
H8 H 0.5507 0.3828 0.8808 0.0430 Uiso
C12 C 0.8041(4) 0.5282(4) 1.0029(5) 0.0472 Uani
H9 H 0.8165 0.5128 1.0448 0.0570 Uiso
C13 C 0.7456(4) 0.4933(4) 0.9767(6) 0.0579 Uani
H10 H 0.7210 0.4571 1.0006 0.0690 Uiso
C14 C 0.2756(3) 0.2115(3) 1.1098(4) 0.0196 Uani
C15 C 0.2785(3) 0.1641(3) 1.0767(4) 0.0289 Uani
H11 H 0.3016 0.1701 1.0304 0.0350 Uiso
C16 C 0.2486(3) 0.1093(3) 1.1103(4) 0.0246 Uani
H12 H 0.2526 0.0794 1.0870 0.0290 Uiso
C17 C 0.2121(3) 0.0972(3) 1.1789(4) 0.0274 Uani
C18 C 0.2069(3) 0.1435(3) 1.2095(4) 0.0290 Uani
H13 H 0.1812 0.1367 1.2528 0.0350 Uiso
C19 C 0.2383(3) 0.1986(3) 1.1780(4) 0.0251 Uani
H14 H 0.2350 0.2287 1.2024 0.0300 Uiso
C20 C 0.1798(3) 0.0405(3) 1.2163(4) 0.0307 Uani
H15 H 0.1576 0.0378 1.2623 0.0370 Uiso
C21 C 0.1781(3) -0.0084(3) 1.1931(5) 0.0377 Uani
H16 H 0.1994 -0.0057 1.1460 0.0450 Uiso
C22 C 0.1470(3) -0.0665(3) 1.2319(4) 0.0306 Uani
C23 C 0.1105(3) -0.0790(3) 1.2989(5) 0.0399 Uani
H17 H 0.1043 -0.0502 1.3215 0.0480 Uiso
C24 C 0.0829(3) -0.1353(3) 1.3328(4) 0.0303 Uani
H18 H 0.0590 -0.1423 1.3785 0.0370 Uiso
C25 C 0.1246(3) -0.1648(3) 1.2390(4) 0.0329 Uani
H19 H 0.1304 -0.1941 1.2175 0.0390 Uiso
C26 C 0.1525(3) -0.1129(3) 1.2024(4) 0.0297 Uani
H20 H 0.1760 -0.1075 1.1568 0.0350 Uiso
C27 C 0.2646(3) 0.1961(3) 0.7744(4) 0.0230 Uani
C28 C 0.2467(3) 0.1773(3) 0.8565(5) 0.0339 Uani
H21 H 0.2545 0.2047 0.8978 0.0410 Uiso
C29 C 0.2176(3) 0.1180(3) 0.8756(4) 0.0316 Uani
H22 H 0.2052 0.1068 0.9295 0.0380 Uiso
C30 C 0.2066(3) 0.0758(3) 0.8191(5) 0.0308 Uani
C31 C 0.2239(3) 0.0961(3) 0.7386(4) 0.0380 Uani
H23 H 0.2161 0.0689 0.6972 0.0450 Uiso
C32 C 0.2514(3) 0.1533(3) 0.7179(4) 0.0277 Uani
H24 H 0.2617 0.1638 0.6631 0.0330 Uiso
C33 C 0.1774(3) 0.0137(3) 0.8381(5) 0.0361 Uani
H25 H 0.1733 -0.0108 0.7944 0.0440 Uiso
C34 C 0.1559(3) -0.0123(3) 0.9090(5) 0.0391 Uani
H26 H 0.1618 0.0120 0.9539 0.0470 Uiso
C35 C 0.1237(3) -0.0753(3) 0.9251(4) 0.0291 Uani
C36 C 0.0969(4) -0.0965(3) 0.9979(5) 0.0459 Uani
H27 H 0.0991 -0.0705 1.0384 0.0550 Uiso
C37 C 0.0655(3) -0.1568(3) 1.0141(5) 0.0428 Uani
H28 H 0.0473 -0.1697 1.0649 0.0510 Uiso
C38 C 0.0886(4) -0.1742(3) 0.8887(5) 0.0379 Uani
H29 H 0.0856 -0.2006 0.8485 0.0450 Uiso
C39 C 0.1207(4) -0.1167(3) 0.8704(5) 0.0404 Uani
H30 H 0.1408 -0.1050 0.8208 0.0480 Uiso
O1 O 0.40218(18) 0.36294(18) 0.7342(3) 0.0181 Uani
O2 O 0.29285(18) 0.25320(18) 0.7550(3) 0.0166 Uani
O3 O 0.3538(2) 0.33979(18) 0.9283(3) 0.0228 Uani
H31 H 0.3546 0.3705 0.9461 0.0270 Uiso
O4 O 0.30580(18) 0.26440(18) 1.0786(3) 0.0196 Uani
N1 N 0.0613(2) -0.1958(2) 0.9590(4) 0.0299 Uani
N2 N 0.0885(2) -0.1788(2) 1.3044(3) 0.0254 Uani
N3 N 0.8427(3) 0.5793(3) 0.9753(4) 0.0298 Uani
Li1C Li 0.0250(5) -0.2820(5) 0.9978(7) 0.0266 Uani
Li1D Li 0.2820(5) 0.3069(7) 0.9978(7) 0.0266 Uani
Li2D Li 0.3785(5) 0.4035(7) 1.0132(6) 0.0244 Uani
Li2G Li 0.0451(5) -0.2631(7) 1.3466(6) 0.0244 Uani
Li3D Li 0.3388(5) 0.3369(7) 1.1464(7) 0.0216 Uani
Li4B Li 0.9271(7) 0.6240(5) 1.0175(7) 0.0287 Uani
Li4H Li 0.2604(7) 0.2907(5) 0.6842(7) 0.0287 Uani
O2D O 0.41347(18) 0.37298(25) 1.0883(3) 0.0166 Uani
O3H O 0.31932(27) 0.3129(2) 0.5950(3) 0.0228 Uani
O4H O 0.29193(25) 0.36087(18) 0.7453(3) 0.0196 Uani
N1F N 0.3946(2) 0.4709(2) 0.6257(4) 0.0299 Uani
N2E N 0.3994(3) 0.2448(2) 0.6377(3) 0.0254 Uani
N3A N 0.4207(3) 0.2634(4) 0.9753(4) 0.0298 Uani
loop_
_atom_site_aniso_label
_atom_site_aniso_U_11
_atom_site_aniso_U_22
_atom_site_aniso_U_33
_atom_site_aniso_U_23
_atom_site_aniso_U_13
_atom_site_aniso_U_12
Li1 0.014(7) 0.016(7) 0.037(7) 0.009(6) 0.000(6) -0.002(6)
Li2 0.038(8) 0.025(7) 0.016(6) 0.006(5) 0.003(5) 0.020(6)
Li3 0.019(7) 0.026(7) 0.022(6) 0.000(5) -0.009(5) 0.013(6)
Li4 0.021(7) 0.030(8) 0.030(7) 0.006(6) 0.014(6) 0.009(6)
C1 0.019(5) 0.022(4) 0.019(4) 0.002(3) 0.000(3) 0.011(4)
C2 0.031(5) 0.035(5) 0.025(4) 0.005(4) 0.002(4) 0.018(4)
C3 0.023(5) 0.030(5) 0.035(5) 0.002(4) 0.002(4) 0.004(4)
C4 0.023(5) 0.029(5) 0.039(5) -0.008(4) -0.006(4) 0.010(4)
C5 0.016(4) 0.025(5) 0.031(4) -0.003(4) -0.002(3) 0.005(4)
C6 0.045(6) 0.058(6) 0.033(5) 0.001(4) -0.002(4) 0.029(5)
C7 0.057(6) 0.061(7) 0.050(6) 0.002(5) 0.005(5) 0.030(6)
C8 0.014(5) 0.034(5) 0.044(5) -0.004(4) 0.001(4) -0.006(4)
C9 0.057(6) 0.055(6) 0.036(5) -0.014(4) -0.023(5) 0.043(6)
C10 0.033(5) 0.032(5) 0.038(5) 0.000(4) 0.002(4) 0.014(5)
C11 0.040(6) 0.056(6) 0.031(5) 0.002(4) -0.008(4) 0.038(5)
C12 0.037(6) 0.056(7) 0.043(5) 0.011(5) -0.005(4) 0.019(5)
C13 0.025(5) 0.062(7) 0.067(6) 0.005(5) -0.013(5) 0.007(5)
C14 0.021(4) 0.013(4) 0.024(4) -0.004(3) 0.001(4) 0.008(4)
C15 0.025(5) 0.027(5) 0.032(4) 0.008(4) 0.012(4) 0.011(4)
C16 0.031(5) 0.011(4) 0.035(4) -0.004(4) 0.001(4) 0.013(4)
C17 0.026(5) 0.021(5) 0.033(5) 0.003(4) 0.000(4) 0.010(4)
C18 0.038(5) 0.032(5) 0.019(4) 0.007(4) 0.011(4) 0.019(4)
C19 0.040(5) 0.012(4) 0.022(4) -0.003(3) -0.002(4) 0.012(4)
C20 0.037(5) 0.034(5) 0.028(4) 0.005(4) 0.005(4) 0.023(4)
C21 0.041(5) 0.031(5) 0.033(5) 0.003(4) 0.010(4) 0.012(4)
C22 0.033(5) 0.028(5) 0.029(5) 0.010(4) 0.001(4) 0.014(4)
C23 0.054(6) 0.026(5) 0.041(5) 0.001(4) 0.009(5) 0.021(5)
C24 0.030(5) 0.032(5) 0.027(4) 0.002(4) 0.002(4) 0.014(4)
C25 0.036(5) 0.025(5) 0.032(5) -0.002(4) 0.003(4) 0.011(4)
C26 0.040(5) 0.018(5) 0.033(4) -0.002(4) 0.007(4) 0.016(4)
C27 0.017(4) 0.039(6) 0.017(4) 0.007(4) 0.003(3) 0.017(4)
C28 0.026(5) 0.033(5) 0.035(5) -0.007(4) -0.003(4) 0.009(4)
C29 0.045(5) 0.016(5) 0.020(4) 0.011(4) 0.013(4) 0.005(4)
C30 0.028(5) 0.021(5) 0.031(5) 0.004(4) 0.002(4) 0.003(4)
C31 0.054(6) 0.040(5) 0.022(4) -0.006(4) 0.008(4) 0.025(5)
C32 0.041(5) 0.012(4) 0.019(4) 0.007(3) 0.007(4) 0.005(4)
C33 0.041(5) 0.023(5) 0.039(5) 0.001(4) -0.001(4) 0.012(4)
C34 0.051(6) 0.023(5) 0.028(5) -0.003(4) 0.000(4) 0.007(4)
C35 0.040(5) 0.022(5) 0.026(4) 0.002(4) 0.000(4) 0.016(4)
C36 0.069(6) 0.026(5) 0.031(5) -0.004(4) 0.011(5) 0.015(5)
C37 0.051(6) 0.025(5) 0.035(5) -0.003(4) 0.008(4) 0.006(5)
C38 0.056(6) 0.020(5) 0.039(5) -0.002(4) 0.014(5) 0.020(5)
C39 0.056(6) 0.035(5) 0.028(4) 0.004(4) 0.010(4) 0.021(5)
O1 0.011(3) 0.017(3) 0.025(3) -0.002(2) -0.001(2) 0.006(2)
O2 0.014(3) 0.007(3) 0.023(3) 0.004(2) 0.002(2) 0.001(2)
O3 0.039(3) 0.011(3) 0.019(3) -0.004(2) 0.001(2) 0.013(2)
O4 0.019(3) 0.013(3) 0.020(2) 0.000(2) 0.001(2) 0.003(2)
N1 0.030(4) 0.022(4) 0.039(4) 0.009(3) 0.001(3) 0.014(3)
N2 0.026(4) 0.014(4) 0.027(3) -0.003(3) 0.000(3) 0.003(3)
N3 0.022(4) 0.032(4) 0.028(4) -0.007(3) 0.000(3) 0.008(3)
Li1C 0.014 0.016 0.037 0.009 0 -0.002
Li1D 0.016 0.034 0.037 -0.009 -0.009 0.018
Li2D 0.025 0.023 0.016 -0.003 -0.006 0.005
Li2G 0.025 0.023 0.016 -0.003 -0.006 0.005
Li3D 0.026 0.019 0.022 -0.009 0 0.013
Li4B 0.033 0.021 0.03 -0.014 -0.008 0.012
Li4H 0.033 0.021 0.03 -0.014 -0.008 0.012
O2D 0.007 0.019 0.023 -0.002 -0.004 0.006
O3H 0.024 0.039 0.019 -0.001 -0.005 0.026
O4H 0.026 0.019 0.02 -0.001 -0.001 0.016
N1F 0.03 0.022 0.039 0.009 0.001 0.014
N2E 0.034 0.026 0.027 0 -0.003 0.023
N3A 0.032 0.038 0.028 0.007 0.007 0.024
loop_
_geom_bond_atom_site_label_1
_geom_bond_atom_site_label_2
_geom_bond_site_symmetry_1
_geom_bond_site_symmetry_2
Li1 O1 1_555 1_555
Li2 O1 1_555 1_555
Li3 O1 1_555 1_555
Li4 O3 1_555 1_555
C1 C2 1_555 1_555
C2 H1 1_555 1_555
C3 C2 1_555 1_555
H2 C3 1_555 1_555
C4 C3 1_555 1_555
C5 C1 1_555 1_555
H3 C5 1_555 1_555
C6 C4 1_555 1_555
H4 C6 1_555 1_555
C7 C6 1_555 1_555
H5 C7 1_555 1_555
C8 C7 1_555 1_555
C9 C8 1_555 1_555
H6 C9 1_555 1_555
C10 C9 1_555 1_555
H7 C10 1_555 1_555
C11 C4 1_555 1_555
H8 C11 1_555 1_555
C12 H9 1_555 1_555
C13 C8 1_555 1_555
H10 C13 1_555 1_555
C14 C15 1_555 1_555
C15 H11 1_555 1_555
C16 C15 1_555 1_555
H12 C16 1_555 1_555
C17 C16 1_555 1_555
C18 C17 1_555 1_555
H13 C18 1_555 1_555
C19 C14 1_555 1_555
H14 C19 1_555 1_555
C20 C17 1_555 1_555
H15 C20 1_555 1_555
C21 C20 1_555 1_555
H16 C21 1_555 1_555
C22 C21 1_555 1_555
C23 C22 1_555 1_555
H17 C23 1_555 1_555
C24 C23 1_555 1_555
H18 C24 1_555 1_555
C25 H19 1_555 1_555
C26 C22 1_555 1_555
H20 C26 1_555 1_555
C27 C28 1_555 1_555
C28 H21 1_555 1_555
C29 C28 1_555 1_555
H22 C29 1_555 1_555
C30 C29 1_555 1_555
C31 C30 1_555 1_555
H23 C31 1_555 1_555
C32 C27 1_555 1_555
H24 C32 1_555 1_555
C33 C30 1_555 1_555
H25 C33 1_555 1_555
C34 C33 1_555 1_555
H26 C34 1_555 1_555
C35 C34 1_555 1_555
C36 C35 1_555 1_555
H27 C36 1_555 1_555
C37 C36 1_555 1_555
H28 C37 1_555 1_555
C38 H29 1_555 1_555
C39 C35 1_555 1_555
H30 C39 1_555 1_555
O1 C1 1_555 1_555
O2 Li2 1_555 1_555
O3 Li3 1_555 1_555
H31 O3 1_555 1_555
O4 Li4 1_555 1_555
N1 C37 1_555 1_555
N2 C24 1_555 1_555
N3 C10 1_555 1_555
Li1C N1 1_555 1_555
Li1D O3 1_555 1_555
Li2D O3 1_555 1_555
Li2G N2 1_555 1_555
Li3D O4 1_555 1_555
Li4B N3 1_555 1_555
Li4H O2 1_555 1_555
O2D Li4 1_555 1_555
O3H Li1 1_555 1_555
O4H Li1 1_555 1_555
N1F Li1 1_555 1_555
N2E Li2 1_555 1_555
N3A Li4 1_555 1_555
Li2 O3H 1_555 1_555
Li3 O2 1_555 1_555
Li3 O4H 1_555 1_555
C5 C11 1_555 1_555
C12 C13 1_555 1_555
C12 N3 1_555 1_555
C14 O4 1_555 1_555
C18 C19 1_555 1_555
C25 C26 1_555 1_555
C25 N2 1_555 1_555
C27 O2 1_555 1_555
C31 C32 1_555 1_555
C38 C39 1_555 1_555
C38 N1 1_555 1_555
O4 Li1D 1_555 1_555
Li2D O2D 1_555 1_555
Li3D O2D 1_555 1_555
Li4H O3H 1_555 1_555
Li4H O4H 1_555 1_555

#END
