
#######################################################################
#
#                 Cambridge Crystallographic Data Centre
#                                CCDC 
#
#######################################################################
#
# If this CIF has been generated from an entry in the Cambridge 
# Structural Database, then it will include bibliographic, chemical, 
# crystal, experimental, refinement or atomic coordinate data resulting 
# from the CCDC's data processing and validation procedures.
#
#######################################################################

data_IXOTAS
_chemical_formula_moiety         '(C52 H40 Li4 N4 O4)n'
_symmetry_cell_setting           orthorhombic
_symmetry_space_group_name_H-M   'P c c 2'
_symmetry_Int_Tables_number      27
_space_group_name_Hall           'P 2 -2c'
loop_
_symmetry_equiv_pos_site_id
_symmetry_equiv_pos_as_xyz
1 x,y,z
2 -x,-y,z
3 x,-y,1/2+z
4 -x,y,1/2+z
_cell_length_a                   11.252(2)
_cell_length_b                   20.934(4)
_cell_length_c                   21.890(4)
_cell_angle_alpha                90
_cell_angle_beta                 90
_cell_angle_gamma                90
_cell_volume                     5156.18
loop_
_atom_site_label
_atom_site_type_symbol
_atom_site_fract_x
_atom_site_fract_y
_atom_site_fract_z
Li1 Li 0.6073(9) 0.5286(5) 0.8019(4)
Li2 Li 0.4522(9) 0.5576(4) 0.7155(4)
Li3 Li 0.0582(8) 0.9429(4) 0.2187(4)
Li4 Li -0.1049(8) 0.9698(4) 0.3026(4)
C1 C 0.5938(5) 0.3969(2) 0.8458(2)
C2 C 0.5751(6) 0.3319(3) 0.8367(3)
H1 H 0.5380 0.3178 0.8012
C3 C 0.6122(8) 0.2874(4) 0.8810(3)
H2 H 0.6035 0.2442 0.8724
C4 C 0.6592(5) 0.3039(3) 0.9348(2)
C5 C 0.6636(7) 0.3673(3) 0.9456(3)
H3 H 0.6891 0.3803 0.9841
C6 C 0.6340(7) 0.4136(3) 0.9049(3)
H4 H 0.6401 0.4564 0.9160
C7 C 0.6992(6) 0.2551(3) 0.9778(3)
H5 H 0.6750 0.2134 0.9699
C8 C 0.7654(6) 0.2636(4) 1.0264(3)
H6 H 0.7925 0.3050 1.0332
C9 C 0.7948(7) 0.1120(4) 1.1169(4)
H7 H 0.7623 0.0712 1.1153
C10 C 0.7572(10) 0.1556(5) 1.0774(4)
H8 H 0.6951 0.1446 1.0514
C11 C 0.8025(6) 0.2142(3) 1.0726(3)
C12 C 0.8898(8) 0.2247(4) 1.1138(4)
H9 H 0.9283 0.2640 1.1147
C13 C 0.9207(8) 0.1794(4) 1.1526(4)
H10 H 0.9825 0.1891 1.1792
C14 C 0.6986(5) 0.5450(3) 0.6715(2)
C15 C 0.6862(6) 0.5213(3) 0.6099(3)
H11 H 0.6199 0.4976 0.5985
C16 C 0.7740(7) 0.5346(3) 0.5687(3)
H12 H 0.7657 0.5195 0.5290
C17 C 0.8756(7) 0.5698(3) 0.5832(3)
C18 C 0.8851(7) 0.5882(4) 0.6417(4)
H13 H 0.9539 0.6093 0.6539
C19 C 0.7967(7) 0.5772(4) 0.6849(3)
H14 H 0.8067 0.5928 0.7244
C20 C 0.9846(9) 0.5820(4) 0.54027(8)
H15 H 1.0583 0.5903 0.5578
C21 C 0.9757(10) 0.5810(6) 0.48109(8)
H16 H 0.9012 0.5801 0.4627
C22 C 1.1579(8) 0.5661(6) 0.3463(4)
H17 H 1.1410 0.5570 0.3057
C23 C 1.0566(13) 0.5716(7) 0.3828(5)
H18 H 0.9791 0.5690 0.3682
C24 C 1.0860(8) 0.5811(5) 0.4424(5)
C25 C 1.1999(10) 0.5965(4) 0.4601(3)
C26 C 1.2902(8) 0.5902(4) 0.4126(4)
H19 H 1.3682 0.6007 0.4225
C27 C 0.1039(5) 0.8952(3) 0.3457(2)
C28 C 0.2047(5) 0.8599(3) 0.3314(3)
H20 H 0.2397 0.8637 0.2931
C29 C 0.2523(6) 0.8193(3) 0.3746(3)
H21 H 0.3223 0.7976 0.3656
C30 C 0.1975(5) 0.8096(3) 0.4327(3)
C31 C 0.1001(6) 0.8448(3) 0.4457(3)
H22 H 0.0652 0.8404 0.4839
C32 C 0.0510(6) 0.8862(3) 0.4052(3)
H23 H -0.0169 0.9089 0.4159
C33 C 0.2580(6) 0.7670(3) 0.4769(3)
H24 H 0.3253 0.7458 0.4628
C34 C 0.2277(7) 0.7559(3) 0.5332(3)
H25 H 0.1614 0.7778 0.5476
C35 C 0.4523(7) 0.6480(4) 0.6098(3)
H26 H 0.5279 0.6317 0.6025
C36 C 0.4043(7) 0.6910(4) 0.5670(3)
H27 H 0.4487 0.7044 0.5336
C37 C 0.2858(7) 0.7134(3) 0.5761(3)
C38 C 0.2367(6) 0.6992(4) 0.6322(3)
H28 H 0.1673 0.7199 0.6440
C39 C 0.2877(7) 0.6546(4) 0.6719(3)
H29 H 0.237(5) 0.636(3) 0.712(3)
C40 C -0.1942(5) 0.9500(3) 0.1746(2)
C41 C -0.1674(6) 0.9350(3) 0.1143(3)
H30 H -0.0883 0.9328 0.1022
C42 C -0.2587(6) 0.9230(3) 0.0707(3)
H31 H -0.2389 0.9130 0.0306
C43 C -0.3775(6) 0.9262(4) 0.0883(3)
C44 C -0.3976(6) 0.9381(5) 0.1470(3)
H32 H -0.4758 0.9363 0.1606
C45 C -0.3112(6) 0.9528(5) 0.1891(3)
H33 H -0.3335 0.9650 0.2283
C46 C -0.4795(7) 0.9252(3) 0.04366(10)
C47 C -0.4708(6) 0.9093(3) -0.01356(11)
H34 H -0.4020 0.8899 -0.0279
C48 C -0.6594(7) 0.9074(4) -0.1545(3)
H35 H -0.6552 0.8876 -0.1925
C49 C -0.5656(7) 0.8993(4) -0.1147(3)
H36 H -0.4976 0.8780 -0.1276
C50 C -0.5719(6) 0.9224(3) -0.0564(3)
C51 C -0.6710(6) 0.9569(3) -0.0412(3)
H37 H -0.6798 0.9741 -0.0023
C52 C -0.7595(6) 0.9656(4) -0.0861(3)
H38 H -0.8257 0.9898 -0.0758
O1 O 0.5594(3) 0.43983(17) 0.80523(17)
O2 O 0.6152(3) 0.53123(17) 0.71301(17)
O3 O 0.0566(3) 0.93753(17) 0.30648(17)
O4 O -0.1097(3) 0.96533(16) 0.21418(16)
N1 N 0.8754(5) 0.1242(2) 1.1578(2)
N2 N 1.2687(5) 0.5710(3) 0.3574(3)
N3 N 0.3945(6) 0.6288(3) 0.6616(2)
N4 N -0.7545(5) 0.9414(3) -0.1419(2)
H39 H 1.2180 0.6099 0.4995
H40 H -0.5541 0.9369 0.0581
Li1A Li 0.3927(9) 0.4714(5) 0.8019(4)
Li1C Li 1.3927(9) 0.5286(5) 0.3019(4)
Li2A Li 0.5478(9) 0.4424(4) 0.7155(4)
Li3A Li -0.0582(8) 1.0571(4) 0.2187(4)
Li3A_2 Li 0.9418(8) 0.0571(4) 1.2187(4)
Li4A Li 0.1049(8) 1.0302(4) 0.3026(4)
Li4C Li -0.8951(8) 0.9698(4) -0.1974(4)
O1A O 0.4406(3) 0.56017(17) 0.80523(17)
O2A O 0.3848(3) 0.46877(17) 0.71301(17)
O3A O -0.0566(3) 1.06247(17) 0.30648(17)
O4A O 0.1097(3) 1.03467(16) 0.21418(16)
N1A N 0.1246(5) 0.8758(2) 0.1578(2)
N2C N 0.7313(5) 0.5710(3) 0.8574(3)
N4C N -0.2455(5) 0.9414(3) 0.3581(2)
loop_
_geom_bond_atom_site_label_1
_geom_bond_atom_site_label_2
_geom_bond_site_symmetry_1
_geom_bond_site_symmetry_2
Li1 O1 1_555 1_555
Li2 O2 1_555 1_555
Li3 O3 1_555 1_555
Li4 O3 1_555 1_555
C1 C2 1_555 1_555
C2 H1 1_555 1_555
C3 C2 1_555 1_555
H2 C3 1_555 1_555
C4 C3 1_555 1_555
C5 C4 1_555 1_555
H3 C5 1_555 1_555
C6 C1 1_555 1_555
H4 C6 1_555 1_555
C7 C4 1_555 1_555
H5 C7 1_555 1_555
C8 C7 1_555 1_555
H6 C8 1_555 1_555
C9 H7 1_555 1_555
C10 C9 1_555 1_555
H8 C10 1_555 1_555
C11 C8 1_555 1_555
C12 C11 1_555 1_555
H9 C12 1_555 1_555
C13 C12 1_555 1_555
H10 C13 1_555 1_555
C14 C15 1_555 1_555
C15 H11 1_555 1_555
C16 C15 1_555 1_555
H12 C16 1_555 1_555
C17 C16 1_555 1_555
C18 C17 1_555 1_555
H13 C18 1_555 1_555
C19 C14 1_555 1_555
H14 C19 1_555 1_555
C20 C17 1_555 1_555
H15 C20 1_555 1_555
C21 C20 1_555 1_555
H16 C21 1_555 1_555
C22 H17 1_555 1_555
C23 C22 1_555 1_555
H18 C23 1_555 1_555
C24 C21 1_555 1_555
C25 C24 1_555 1_555
C26 C25 1_555 1_555
H19 C26 1_555 1_555
C27 C28 1_555 1_555
C28 H20 1_555 1_555
C29 C28 1_555 1_555
H21 C29 1_555 1_555
C30 C29 1_555 1_555
C31 C30 1_555 1_555
H22 C31 1_555 1_555
C32 C27 1_555 1_555
H23 C32 1_555 1_555
C33 C30 1_555 1_555
H24 C33 1_555 1_555
C34 C33 1_555 1_555
H25 C34 1_555 1_555
C35 H26 1_555 1_555
C36 C35 1_555 1_555
H27 C36 1_555 1_555
C37 C34 1_555 1_555
C38 C37 1_555 1_555
H28 C38 1_555 1_555
C39 C38 1_555 1_555
H29 C39 1_555 1_555
C40 C41 1_555 1_555
C41 H30 1_555 1_555
C42 C41 1_555 1_555
H31 C42 1_555 1_555
C43 C42 1_555 1_555
C44 C43 1_555 1_555
H32 C44 1_555 1_555
C45 C40 1_555 1_555
H33 C45 1_555 1_555
C46 C43 1_555 1_555
C47 C46 1_555 1_555
H34 C47 1_555 1_555
C48 H35 1_555 1_555
C49 C48 1_555 1_555
H36 C49 1_555 1_555
C50 C47 1_555 1_555
C51 C50 1_555 1_555
H37 C51 1_555 1_555
C52 C51 1_555 1_555
H38 C52 1_555 1_555
O1 C1 1_555 1_555
O2 Li1 1_555 1_555
O3 C27 1_555 1_555
O4 Li3 1_555 1_555
N1 C9 1_555 1_555
N2 C22 1_555 1_555
N3 Li2 1_555 1_555
N4 C48 1_555 1_555
H39 C25 1_555 1_555
H40 C46 1_555 1_555
Li1A O1 1_555 1_555
Li1C N2 1_555 1_555
Li2A O1 1_555 1_555
Li3A O4 1_555 1_555
Li3A_2 N1 1_555 1_555
Li4A O3 1_555 1_555
Li4C N4 1_555 1_555
O1A Li1 1_555 1_555
O2A Li2 1_555 1_555
O3A Li4 1_555 1_555
O4A Li3 1_555 1_555
N1A Li3 1_555 1_555
N2C Li1 1_555 1_555
N4C Li4 1_555 1_555
Li2 O1A 1_555 1_555
Li4 O4 1_555 1_555
C5 C6 1_555 1_555
C10 C11 1_555 1_555
C13 N1 1_555 1_555
C14 O2 1_555 1_555
C18 C19 1_555 1_555
C23 C24 1_555 1_555
C26 N2 1_555 1_555
C31 C32 1_555 1_555
C35 N3 1_555 1_555
C36 C37 1_555 1_555
C39 N3 1_555 1_555
C40 O4 1_555 1_555
C44 C45 1_555 1_555
C49 C50 1_555 1_555
C52 N4 1_555 1_555
O2 Li2A 1_555 1_555
Li1A O1A 1_555 1_555
Li1A O2A 1_555 1_555
Li2A O2A 1_555 1_555
Li3A O3A 1_555 1_555
Li3A O4A 1_555 1_555
Li4A O3A 1_555 1_555
Li4A O4A 1_555 1_555

#END
