
#######################################################################
#
#                 Cambridge Crystallographic Data Centre
#                                CCDC 
#
#######################################################################
#
# If this CIF has been generated from an entry in the Cambridge 
# Structural Database, then it will include bibliographic, chemical, 
# crystal, experimental, refinement or atomic coordinate data resulting 
# from the CCDC's data processing and validation procedures.
#
#######################################################################

data_QESLOQ
_chemical_formula_moiety         '(C4 H6 In4 O26 P4 2-)n'
_symmetry_cell_setting           orthorhombic
_symmetry_space_group_name_H-M   'P c c m'
_symmetry_Int_Tables_number      49
_space_group_name_Hall           '-P 2 2c'
loop_
_symmetry_equiv_pos_site_id
_symmetry_equiv_pos_as_xyz
1 x,y,z
2 -x,-y,z
3 x,-y,1/2-z
4 -x,y,1/2-z
5 -x,-y,-z
6 x,y,-z
7 -x,y,1/2+z
8 x,-y,1/2+z
_cell_length_a                   10.350(2)
_cell_length_b                   12.190(2)
_cell_length_c                   13.000(3)
_cell_angle_alpha                90
_cell_angle_beta                 90
_cell_angle_gamma                90
_cell_volume                     1640.16
loop_
_atom_site_label
_atom_site_type_symbol
_atom_site_fract_x
_atom_site_fract_y
_atom_site_fract_z
In1 In 0.5593(2) 0.2703(1) 0.0000
In2 In 0.2759(1) 0.0000 0.2500
P1 P 0.5000 0.2043(3) 0.2500
P2 P 0.7810(4) 0.0834(4) 0.0000
C1 C 0.5740(20) 0.5123(14) 0.0000
C2 C 0.0000 0.0667(15) 0.2500
O1 O 0.6478(15) 0.4319(10) 0.0000
O2 O 0.6071(14) 0.6111(9) 0.0000
O3 O 0.5455(11) 0.2775(7) 0.1626(6)
O4 O 0.7426(13) 0.2015(11) 0.0000
O5 O 0.4195(17) 0.1404(13) 0.0000
O6 O 0.3920(8) 0.1338(8) 0.2102(6)
O7 O 0.1057(7) 0.1119(7) 0.2405(7)
O8 O 0.7258(9) 0.0241(8) -0.0918(6)
O9 O 0.9240(15) 0.0910(20) 0.0000
In1A In 0.4407(2) 0.7297(1) 0.0000
In1C In 0.4407(2) 0.2703(1) 0.5000
In1C_2 In 0.4407(2) 0.2703(1) -0.5000
In1A_2 In 0.4407(2) -0.2703(1) 0.0000
In2A In 0.7241(1) 0.0000 0.2500
In2D In 0.7241(1) 0.0000 -0.2500
In2A_2 In -0.2759(1) 0.0000 0.2500
In2E In 0.2759(1) 0.0000 -0.2500
P1E P 0.5000 0.2043(3) -0.2500
P2A P 0.2190(4) -0.0834(4) 0.0000
C1A C 0.4260(20) 0.4877(14) 0.0000
C2A C 0.0000 -0.0667(15) 0.2500
O1A O 0.3522(15) 0.5681(10) 0.0000
O2A O 0.3929(14) 0.3889(9) 0.0000
O3C O 0.4545(11) 0.2775(7) 0.3374(6)
O3E O 0.5455(11) 0.2775(7) -0.1626(6)
O3F O 0.4545(11) 0.2775(7) -0.3374(6)
O3A O 0.4545(11) 0.7225(7) 0.1626(6)
O3D O 0.4545(11) 0.7225(7) -0.1626(6)
O4A O 0.2574(13) -0.2015(11) 0.0000
O4A_2 O 0.2574(13) 0.7985(11) 0.0000
O5A O 0.5805(17) 0.8596(13) 0.0000
O6C O 0.6080(8) 0.1338(8) 0.2898(6)
O6E O 0.3920(8) 0.1338(8) -0.2102(6)
O6F O 0.6080(8) 0.1338(8) -0.2898(6)
O6B O 0.3920(8) -0.1338(8) 0.2898(6)
O6A O 0.6080(8) -0.1338(8) 0.2102(6)
O7A O -0.1057(7) -0.1119(7) 0.2405(7)
O7B O 0.1057(7) -0.1119(7) 0.2595(7)
O7C O -0.1057(7) 0.1119(7) 0.2595(7)
O7A_2 O 0.8943(7) -0.1119(7) 0.2405(7)
O7C_2 O 0.8943(7) 0.1119(7) 0.2595(7)
O8E O 0.7258(9) 0.0241(8) 0.0918(6)
O8D O 0.2742(9) -0.0241(8) 0.0918(6)
O8A O 0.2742(9) -0.0241(8) -0.0918(6)
O8F O 0.2742(9) 0.0241(8) 0.4082(6)
O8G O 0.7258(9) -0.0241(8) 0.4082(6)
O9A O 0.0760(15) -0.0910(20) 0.0000
loop_
_geom_bond_atom_site_label_1
_geom_bond_atom_site_label_2
_geom_bond_site_symmetry_1
_geom_bond_site_symmetry_2
In1 O1 1_555 1_555
In2 O6 1_555 1_555
P1 O3 1_555 1_555
P2 O4 1_555 1_555
C1 O1 1_555 1_555
C2 O7 1_555 1_555
O2 C1 1_555 1_555
O3 In1 1_555 1_555
O4 In1 1_555 1_555
O5 In1 1_555 1_555
O6 P1 1_555 1_555
O7 In2 1_555 1_555
O8 P2 1_555 1_555
O9 P2 1_555 1_555
In1A O2 1_555 1_555
In1C O3C 1_555 1_555
In1C_2 O3F 1_555 1_555
In1A_2 O4A 1_555 1_555
In2A O6C 1_555 1_555
In2D O8 1_555 1_555
In2A_2 O7A 1_555 1_555
In2E O6E 1_555 1_555
P1E O3E 1_555 1_555
P2A O4A 1_555 1_555
C1A C1 1_555 1_555
C2A C2 1_555 1_555
O1A In1A 1_555 1_555
O2A In1 1_555 1_555
O3C P1 1_555 1_555
O3E In1 1_555 1_555
O3F P1E 1_555 1_555
O3A In1A 1_555 1_555
O3D In1A 1_555 1_555
O4A_2 In1A 1_555 1_555
O5A In1A 1_555 1_555
O6C P1 1_555 1_555
O6E P1E 1_555 1_555
O6F In2D 1_555 1_555
O6B In2 1_555 1_555
O6A In2A 1_555 1_555
O7A C2A 1_555 1_555
O7B In2 1_555 1_555
O7C C2 1_555 1_555
O7A_2 In2A 1_555 1_555
O7C_2 In2A 1_555 1_555
O8E P2 1_555 1_555
O8D In2 1_555 1_555
O8A In2E 1_555 1_555
O8F In2 1_555 1_555
O8G In2A 1_555 1_555
O9A P2A 1_555 1_555
In2A O8E 1_555 1_555
In2A_2 O7C 1_555 1_555
P1E O6F 1_555 1_555
P2A O8D 1_555 1_555
P2A O8A 1_555 1_555
C1A O1A 1_555 1_555
C1A O2A 1_555 1_555
C2A O7B 1_555 1_555

#END
