
#######################################################################
#
#                 Cambridge Crystallographic Data Centre
#                                CCDC 
#
#######################################################################
#
# If this CIF has been generated from an entry in the Cambridge 
# Structural Database, then it will include bibliographic, chemical, 
# crystal, experimental, refinement or atomic coordinate data resulting 
# from the CCDC's data processing and validation procedures.
#
#######################################################################

data_COJMOF02
_chemical_formula_moiety         '(C40 H24 N2 O8 Zn2)n'
_symmetry_cell_setting           monoclinic
_symmetry_space_group_name_H-M   'C 2/c'
_symmetry_Int_Tables_number      15
_space_group_name_Hall           '-C 2yc'
loop_
_symmetry_equiv_pos_site_id
_symmetry_equiv_pos_as_xyz
1 x,y,z
2 -x,y,1/2-z
3 1/2+x,1/2+y,z
4 1/2-x,1/2+y,1/2-z
5 -x,-y,-z
6 x,-y,1/2+z
7 1/2-x,1/2-y,-z
8 1/2+x,1/2-y,1/2+z
_cell_length_a                   32.902(3)
_cell_length_b                   23.2587(18)
_cell_length_c                   18.5665(14)
_cell_angle_alpha                90
_cell_angle_beta                 122.0580(10)
_cell_angle_gamma                90
_cell_volume                     12041.6
loop_
_atom_site_label
_atom_site_type_symbol
_atom_site_fract_x
_atom_site_fract_y
_atom_site_fract_z
Zn1 Zn 0.08875(3) 0.76344(3) 0.98914(5)
Zn2 Zn 0.19178(3) 0.73690(3) 1.08746(5)
O1 O 0.0921(2) 0.3042(3) 1.4221(4)
O2 O 0.1816(2) 1.1961(3) 0.6474(4)
O3 O 0.1740(2) 0.6819(3) 1.1503(4)
O4 O 0.1110(2) 0.8145(3) 0.9275(4)
O5 O 0.1699(2) 0.3245(3) 1.4952(4)
O6 O 0.1893(2) 0.7961(3) 1.0051(4)
O7 O 0.0966(2) 0.7048(3) 1.0764(4)
O8 O 0.1040(2) 1.1728(3) 0.5732(4)
N1 N 0.2642(2) 0.7290(3) 1.1600(4)
N2 N 0.5163(2) 0.7274(3) 1.4158(4)
C1 C 0.2915(3) 0.7614(4) 1.1429(6)
H1 H 0.2764 0.7868 1.0957
C2 C 0.4171(3) 0.7230(4) 1.3147(5)
C3 C 0.1274(3) 0.3342(3) 1.4370(5)
C4 C 0.3637(3) 0.7239(4) 1.2611(5)
C5 C 0.1534(3) 0.8239(3) 0.9491(5)
C6 C 0.0982(3) 0.9896(4) 0.7356(6)
H2 H 0.0792 0.9684 0.6813
H3 H 0.0761 1.0089 0.7488
C7 C 0.1480(3) 1.1652(3) 0.6338(5)
C8 C 0.2860(3) 0.6947(5) 1.2279(6)
H4 H 0.2670 0.6721 1.2416
C9 C 0.1808(4) 0.5051(5) 1.3347(8)
H5 H 0.2015 0.4850 1.3191
H6 H 0.2012 0.5248 1.3899
C10 C 0.1309(3) 0.6756(4) 1.1294(5)
C11 C 0.1324(3) 0.9502(4) 0.8068(6)
C12 C 0.1212(3) 0.6271(4) 1.1710(6)
C13 C 0.1237(3) 0.9027(4) 0.8412(5)
H7 H 0.0917 0.8909 0.8205
C14 C 0.1205(3) 1.0805(4) 0.6806(6)
H8 H 0.0881 1.0906 0.6408
C15 C 0.1183(3) 0.3851(4) 1.3813(6)
C16 C 0.1560(3) 0.4165(4) 1.3897(6)
H9 H 0.1881 0.4056 1.4304
C17 C 0.1479(3) 0.5469(5) 1.2668(7)
C18 C 0.1579(3) 1.1140(4) 0.6886(6)
C19 C 0.1620(3) 0.8723(4) 0.9064(6)
C20 C 0.1583(3) 0.5957(4) 1.2350(6)
H10 H 0.1906 0.6070 1.2574
C21 C 0.1803(3) 0.9663(6) 0.8355(8)
C22 C 0.1003(3) 0.5322(5) 1.2362(8)
C23 C 0.0717(3) 0.3998(5) 1.3208(8)
H11 H 0.0460 0.3768 1.3140
C24 C 0.2052(4) 1.0987(6) 0.7462(9)
H12 H 0.2304 1.1223 0.7522
C25 C 0.1468(3) 0.4644(4) 1.3381(7)
C26 C 0.3411(3) 0.7590(4) 1.1918(6)
H13 H 0.3595 0.7819 1.1769
C27 C 0.1000(3) 0.4800(5) 1.2793(8)
C28 C 0.1313(3) 1.0321(4) 0.7317(6)
C29 C 0.0737(4) 0.6126(6) 1.1416(9)
H14 H 0.0484 0.6352 1.0984
C30 C 0.1796(4) 1.0178(6) 0.7904(8)
C31 C 0.0621(4) 0.4476(6) 1.2702(10)
H15 H 0.0299 0.4582 1.2297
C32 C 0.2162(4) 1.0491(7) 0.7951(11)
H16 H 0.2486 1.0371 0.8311
C33 C 0.2093(3) 0.8865(6) 0.9325(8)
H17 H 0.2352 0.8635 0.9734
C34 C 0.0628(4) 0.5656(7) 1.1748(11)
H18 H 0.0305 0.5564 1.1558
C35 C 0.4913(7) 0.7024(9) 1.4434(12)
C36 C 0.3353(3) 0.6910(5) 1.2790(7)
H19 H 0.3497 0.6657 1.3264
C37 C 0.2183(4) 0.9343(7) 0.8982(11)
C38 C 0.4446(5) 0.7323(11) 1.2833(10)
H20 H 0.4299 0.7380 1.2238
C39 C 0.4934(5) 0.7339(12) 1.3343(10)
H21 H 0.5115 0.7401 1.3086
C40 C 0.4430(10) 0.6818(12) 1.3658(19)
H22 H 0.4332 0.6427 1.3564
Zn1E Zn 0.08875(3) 0.23656(3) 1.48914(5)
Zn1E_2 Zn 0.08875(3) 1.23656(3) 0.48914(5)
Zn1G Zn 0.58875(3) 0.73656(3) 1.48914(5)
Zn2E Zn 0.19178(3) 0.26310(3) 1.58746(5)
Zn2E_2 Zn 0.19178(3) 1.26310(3) 0.58746(5)
O1E O 0.0921(2) 0.6958(3) 0.9221(4)
O2E O 0.1816(2) 0.8039(3) 1.1474(4)
O5E O 0.1699(2) 0.6755(3) 0.9952(4)
O8E O 0.1040(2) 0.8272(3) 1.0732(4)
N2G N 0.0163(2) 0.7726(3) 0.9158(4)
loop_
_geom_bond_atom_site_label_1
_geom_bond_atom_site_label_2
_geom_bond_site_symmetry_1
_geom_bond_site_symmetry_2
Zn1 O4 1_555 1_555
Zn2 O3 1_555 1_555
O1 C3 1_555 1_555
O2 C7 1_555 1_555
O3 C10 1_555 1_555
O4 C5 1_555 1_555
O5 C3 1_555 1_555
O6 Zn2 1_555 1_555
O7 Zn1 1_555 1_555
O8 C7 1_555 1_555
N1 Zn2 1_555 1_555
N2 C35 1_555 1_555
C1 N1 1_555 1_555
H1 C1 1_555 1_555
C2 C4 1_555 1_555
C3 C15 1_555 1_555
C4 C26 1_555 1_555
C5 O6 1_555 1_555
C6 H2 1_555 1_555
H3 C6 1_555 1_555
C7 C18 1_555 1_555
C8 N1 1_555 1_555
H4 C8 1_555 1_555
C9 H5 1_555 1_555
H6 C9 1_555 1_555
C10 O7 1_555 1_555
C11 C6 1_555 1_555
C12 C10 1_555 1_555
C13 C11 1_555 1_555
H7 C13 1_555 1_555
C14 H8 1_555 1_555
C15 C16 1_555 1_555
C16 H9 1_555 1_555
C17 C9 1_555 1_555
C18 C14 1_555 1_555
C19 C5 1_555 1_555
C20 C12 1_555 1_555
H10 C20 1_555 1_555
C21 C11 1_555 1_555
C22 C17 1_555 1_555
C23 C15 1_555 1_555
H11 C23 1_555 1_555
C24 C18 1_555 1_555
H12 C24 1_555 1_555
C25 C9 1_555 1_555
C26 C1 1_555 1_555
H13 C26 1_555 1_555
C27 C22 1_555 1_555
C28 C6 1_555 1_555
C29 C12 1_555 1_555
H14 C29 1_555 1_555
C30 C21 1_555 1_555
C31 C23 1_555 1_555
H15 C31 1_555 1_555
C32 C24 1_555 1_555
H16 C32 1_555 1_555
C33 C19 1_555 1_555
H17 C33 1_555 1_555
C34 C22 1_555 1_555
H18 C34 1_555 1_555
C35 C40 1_555 1_555
C36 C4 1_555 1_555
H19 C36 1_555 1_555
C37 C21 1_555 1_555
C38 C2 1_555 1_555
H20 C38 1_555 1_555
C39 N2 1_555 1_555
H21 C39 1_555 1_555
C40 C2 1_555 1_555
H22 C40 1_555 1_555
Zn1E O1 1_555 1_555
Zn1E_2 O8 1_555 1_555
Zn1G N2 1_555 1_555
Zn2E O5 1_555 1_555
Zn2E_2 O2 1_555 1_555
O1E Zn1 1_555 1_555
O2E Zn2 1_555 1_555
O5E Zn2 1_555 1_555
O8E Zn1 1_555 1_555
N2G Zn1 1_555 1_555
C8 C36 1_555 1_555
C13 C19 1_555 1_555
C14 C28 1_555 1_555
C16 C25 1_555 1_555
C17 C20 1_555 1_555
C25 C27 1_555 1_555
C27 C31 1_555 1_555
C28 C30 1_555 1_555
C29 C34 1_555 1_555
C30 C32 1_555 1_555
C33 C37 1_555 1_555
C38 C39 1_555 1_555

#END
