
#######################################################################
#
#                 Cambridge Crystallographic Data Centre
#                                CCDC 
#
#######################################################################
#
# If this CIF has been generated from an entry in the Cambridge 
# Structural Database, then it will include bibliographic, chemical, 
# crystal, experimental, refinement or atomic coordinate data resulting 
# from the CCDC's data processing and validation procedures.
#
#######################################################################

data_COJMOF
_chemical_formula_moiety         '(C40 H24 N2 O8 Zn2)n'
_symmetry_cell_setting           monoclinic
_symmetry_space_group_name_H-M   'C 2/c'
_symmetry_Int_Tables_number      15
_space_group_name_Hall           '-C 2yc'
loop_
_symmetry_equiv_pos_site_id
_symmetry_equiv_pos_as_xyz
1 x,y,z
2 -x,y,1/2-z
3 1/2+x,1/2+y,z
4 1/2-x,1/2+y,1/2-z
5 -x,-y,-z
6 x,-y,1/2+z
7 1/2-x,1/2-y,-z
8 1/2+x,1/2-y,1/2+z
_cell_length_a                   33.559(7)
_cell_length_b                   22.171(4)
_cell_length_c                   19.706(4)
_cell_angle_alpha                90
_cell_angle_beta                 124.022(3)
_cell_angle_gamma                90
_cell_volume                     12152.2
loop_
_atom_site_label
_atom_site_type_symbol
_atom_site_fract_x
_atom_site_fract_y
_atom_site_fract_z
Zn1 Zn 0.192749(19) 0.26359(3) 0.58119(3)
Zn2 Zn 0.089941(19) 0.23606(3) 0.48199(3)
N1 N -0.23475(16) 0.2312(2) 0.1551(3)
N2 N 0.01733(16) 0.2288(2) 0.4094(3)
O1 O 0.18869(15) 0.2035(2) 0.5004(3)
O2 O 0.10459(17) -0.1694(2) 0.0616(3)
O3 O 0.09869(16) 0.2964(2) 0.5659(3)
O4 O 0.17206(15) 0.67097(19) 0.9955(3)
O5 O 0.17608(15) 0.3202(2) 0.6413(3)
O6 O 0.09428(15) 0.6924(2) 0.9207(3)
O7 O 0.18213(16) -0.1925(2) 0.1346(3)
O8 O 0.11089(15) 0.1828(2) 0.4241(3)
C1 C -0.0072(3) 0.2522(8) 0.3392(8)
H1 H 0.0095 0.2728 0.3215
C2 C 0.1294(2) 0.6612(3) 0.9371(4)
C3 C -0.1352(2) 0.2275(3) 0.2569(4)
C4 C -0.0819(2) 0.2261(3) 0.3102(4)
C5 C 0.1335(2) 0.3259(3) 0.6203(4)
C6 C 0.1477(3) -0.1617(3) 0.1200(4)
C7 C 0.1619(2) 0.1260(3) 0.4029(4)
C8 C 0.1533(2) 0.1746(3) 0.4454(3)
C9 C 0.1232(2) 0.3735(3) 0.6616(4)
C10 C 0.1238(2) 0.0959(3) 0.3381(4)
H2 H 0.0925 0.1063 0.3195
C11 C 0.1327(2) 0.0500(3) 0.3011(4)
C12 C 0.1205(2) 0.6096(3) 0.8829(4)
C13 C -0.1586(2) 0.2646(3) 0.1904(5)
H3 H -0.1411 0.2895 0.1783
C14 C 0.1503(2) 0.4525(4) 0.7605(5)
C15 C -0.2121(2) 0.1955(4) 0.2201(4)
H4 H -0.2305 0.1719 0.2317
C16 C 0.1021(2) 0.5145(3) 0.7791(5)
C17 C 0.1603(2) 0.4068(3) 0.7252(5)
H5 H 0.1920 0.3982 0.7441
C18 C 0.1315(2) -0.0307(3) 0.2231(4)
C19 C 0.1583(2) -0.1098(3) 0.1769(4)
C20 C 0.1209(2) -0.0776(3) 0.1710(4)
H6 H 0.0891 -0.0880 0.1320
C21 C 0.1490(2) 0.5327(3) 0.8369(4)
C22 C 0.1579(2) 0.5793(3) 0.8880(4)
H7 H 0.1894 0.5910 0.9267
C23 C 0.1026(2) 0.4644(4) 0.7316(5)
C24 C 0.1803(2) 0.0354(3) 0.3293(5)
C25 C 0.0659(3) 0.4311(5) 0.6692(6)
H8 H 0.0340 0.4397 0.6498
C26 C 0.2083(2) 0.1132(3) 0.4277(4)
H9 H 0.2335 0.1356 0.4698
C27 C 0.0767(3) 0.3852(4) 0.6362(6)
H10 H 0.0520 0.3614 0.5955
C28 C 0.0983(2) 0.0099(4) 0.2296(5)
H11 H 0.0779 -0.0129 0.2408
H12 H 0.0783 0.0332 0.1800
C29 C -0.1629(2) 0.1917(4) 0.2713(4)
H13 H -0.1486 0.1651 0.3152
C30 C -0.0555(3) 0.2502(8) 0.2872(8)
H14 H -0.0702 0.2659 0.2346
C31 C 0.0641(3) 0.5449(4) 0.7728(6)
H15 H 0.0326 0.5333 0.7344
C32 C 0.2161(3) -0.0449(5) 0.2846(6)
H16 H 0.2478 -0.0330 0.3209
C33 C 0.1797(3) -0.0149(4) 0.2805(5)
C34 C 0.0738(2) 0.5924(4) 0.8241(5)
H17 H 0.0484 0.6137 0.8192
C35 C 0.2180(2) 0.0681(4) 0.3916(5)
H18 H 0.2495 0.0597 0.4089
C36 C 0.2046(3) -0.0936(4) 0.2333(6)
H19 H 0.2292 -0.1161 0.2374
C37 C -0.0075(3) 0.1994(6) 0.4264(7)
H20 H 0.0083 0.1782 0.4755
C38 C -0.2076(2) 0.2653(3) 0.1415(4)
H21 H -0.2227 0.2910 0.0965
C39 C -0.0573(3) 0.1964(6) 0.3767(7)
H22 H -0.0732 0.1718 0.3924
C40 C 0.1832(3) 0.4948(4) 0.8281(5)
H23 H 0.2012 0.5194 0.8135
H24 H 0.2055 0.4731 0.8783
Zn1E Zn 0.192749(19) -0.26359(3) 0.08119(3)
Zn1E_2 Zn 0.192749(19) 0.73641(3) 1.08119(3)
Zn1G Zn -0.307251(19) 0.23641(3) 0.08119(3)
Zn2E Zn 0.089941(19) -0.23606(3) -0.01801(3)
Zn2E_2 Zn 0.089941(19) 0.76394(3) 0.98199(3)
N1G N 0.26525(16) 0.2688(2) 0.6551(3)
O2E O 0.10459(17) 0.1694(2) 0.5616(3)
O4E O 0.17206(15) 0.32903(19) 0.4955(3)
O6E O 0.09428(15) 0.3076(2) 0.4207(3)
O7E O 0.18213(16) 0.1925(2) 0.6346(3)
loop_
_geom_bond_atom_site_label_1
_geom_bond_atom_site_label_2
_geom_bond_site_symmetry_1
_geom_bond_site_symmetry_2
Zn1 O1 1_555 1_555
Zn2 N2 1_555 1_555
N1 C15 1_555 1_555
N2 C1 1_555 1_555
O1 C8 1_555 1_555
O2 C6 1_555 1_555
O3 Zn2 1_555 1_555
O4 C2 1_555 1_555
O5 Zn1 1_555 1_555
O6 C2 1_555 1_555
O7 C6 1_555 1_555
O8 Zn2 1_555 1_555
C1 H1 1_555 1_555
C2 C12 1_555 1_555
C3 C4 1_555 1_555
C4 C30 1_555 1_555
C5 O3 1_555 1_555
C6 C19 1_555 1_555
C7 C8 1_555 1_555
C8 O8 1_555 1_555
C9 C5 1_555 1_555
C10 C7 1_555 1_555
H2 C10 1_555 1_555
C11 C10 1_555 1_555
C12 C22 1_555 1_555
C13 C3 1_555 1_555
H3 C13 1_555 1_555
C14 C17 1_555 1_555
C15 H4 1_555 1_555
C16 C21 1_555 1_555
C17 C9 1_555 1_555
H5 C17 1_555 1_555
C18 C20 1_555 1_555
C19 C20 1_555 1_555
C20 H6 1_555 1_555
C21 C22 1_555 1_555
C22 H7 1_555 1_555
C23 C14 1_555 1_555
C24 C11 1_555 1_555
C25 C23 1_555 1_555
H8 C25 1_555 1_555
C26 C7 1_555 1_555
H9 C26 1_555 1_555
C27 C9 1_555 1_555
H10 C27 1_555 1_555
C28 C11 1_555 1_555
H11 C28 1_555 1_555
H12 C28 1_555 1_555
C29 C3 1_555 1_555
H13 C29 1_555 1_555
C30 C1 1_555 1_555
H14 C30 1_555 1_555
C31 C16 1_555 1_555
H15 C31 1_555 1_555
C32 H16 1_555 1_555
C33 C18 1_555 1_555
C34 C12 1_555 1_555
H17 C34 1_555 1_555
C35 C24 1_555 1_555
H18 C35 1_555 1_555
C36 C19 1_555 1_555
H19 C36 1_555 1_555
C37 N2 1_555 1_555
H20 C37 1_555 1_555
C38 N1 1_555 1_555
H21 C38 1_555 1_555
C39 C4 1_555 1_555
H22 C39 1_555 1_555
C40 C14 1_555 1_555
H23 C40 1_555 1_555
H24 C40 1_555 1_555
Zn1E O7 1_555 1_555
Zn1E_2 O4 1_555 1_555
Zn1G N1 1_555 1_555
Zn2E O2 1_555 1_555
Zn2E_2 O6 1_555 1_555
N1G Zn1 1_555 1_555
O2E Zn2 1_555 1_555
O4E Zn1 1_555 1_555
O6E Zn2 1_555 1_555
O7E Zn1 1_555 1_555
O5 C5 1_555 1_555
C13 C38 1_555 1_555
C15 C29 1_555 1_555
C16 C23 1_555 1_555
C18 C28 1_555 1_555
C21 C40 1_555 1_555
C24 C33 1_555 1_555
C25 C27 1_555 1_555
C26 C35 1_555 1_555
C31 C34 1_555 1_555
C32 C33 1_555 1_555
C32 C36 1_555 1_555
C37 C39 1_555 1_555

#END
