
#######################################################################
#
#                 Cambridge Crystallographic Data Centre
#                                CCDC 
#
#######################################################################
#
# If this CIF has been generated from an entry in the Cambridge 
# Structural Database, then it will include bibliographic, chemical, 
# crystal, experimental, refinement or atomic coordinate data resulting 
# from the CCDC's data processing and validation procedures.
#
#######################################################################

data_IQECIS
_chemical_formula_moiety         '(C71 H67 Co4 F3 N14 O17 S1)n'
_symmetry_cell_setting           cubic
_symmetry_space_group_name_H-M   'P 21 3'
_symmetry_Int_Tables_number      198
_space_group_name_Hall           'P 2ac 2ab 3'
loop_
_symmetry_equiv_pos_site_id
_symmetry_equiv_pos_as_xyz
1 x,y,z
2 1/2-x,-y,1/2+z
3 -x,1/2+y,1/2-z
4 1/2+x,1/2-y,-z
5 z,x,y
6 1/2+z,1/2-x,-y
7 1/2-z,-x,1/2+y
8 -z,1/2+x,1/2-y
9 y,z,x
10 -y,1/2+z,1/2-x
11 1/2+y,1/2-z,-x
12 1/2-y,-z,1/2+x
_cell_length_a                   23.7773(2)
_cell_length_b                   23.7773(2)
_cell_length_c                   23.7773(2)
_cell_angle_alpha                90
_cell_angle_beta                 90
_cell_angle_gamma                90
_cell_volume                     13442.7
loop_
_atom_site_label
_atom_site_type_symbol
_atom_site_fract_x
_atom_site_fract_y
_atom_site_fract_z
Co1 Co -0.988731(19) -0.488731(19) -0.011269(19)
Co2 Co -0.99340(2) -0.44014(2) -0.134125(19)
F1 F -1.00179(9) -0.41075(8) -0.05212(8)
S1 S -0.87492(4) -0.37492(4) -0.12508(4)
O1 O -0.93241(11) -0.38041(11) -0.14999(11)
O2 O -0.83969(11) -0.33969(11) -0.16031(11)
O3 O -1.06604(11) -0.51863(12) -0.03543(11)
O4 O -1.06173(11) -0.49134(12) -0.12570(11)
N1 N -0.97139(14) -0.47994(14) -0.21173(13)
N2 N -0.87096(16) -0.55337(16) -0.38209(15)
N3 N -1.05060(14) -0.37653(15) -0.15980(14)
N4 N -1.20288(16) -0.22971(16) -0.14983(16)
C1 C -1.08558(15) -0.51502(16) -0.08451(16)
C2 C -1.14209(17) -0.54109(18) -0.09673(17)
C3 C -1.1737(2) -0.5667(2) -0.05479(19)
H1 H -1.1604 -0.5671 -0.0180
C4 C -1.2253(2) -0.5919(2) -0.0671(2)
H2 H -1.2458 -0.6088 -0.0384
C5 C -1.2464(2) -0.5920(2) -0.1214(2)
C6 C -1.2141(3) -0.5655(3) -0.1638(2)
H3 H -1.2275 -0.5647 -0.2005
C7 C -1.1625(2) -0.5406(3) -0.1511(2)
H4 H -1.1416 -0.5236 -0.1795
C8 C -1.29922(19) -0.6221(2) -0.1366(2)
C9 C -1.3304(2) -0.6061(2) -0.1836(2)
H5 H -1.3194 -0.5745 -0.2040
C10 C -1.0029(3) -0.5196(3) -0.2342(3)
H6 H -1.0372 -0.5278 -0.2173
C11 C -0.9876(3) -0.5498(3) -0.2816(3)
H7 H -1.0119 -0.5763 -0.2971
C12 C -0.93635(19) -0.54008(19) -0.30532(18)
C13 C -0.9030(2) -0.4998(3) -0.2823(2)
H8 H -0.8677 -0.4920 -0.2974
C14 C -0.9227(2) -0.4707(3) -0.2356(2)
H9 H -0.8998 -0.4428 -0.2204
C15 C -0.91663(18) -0.57280(19) -0.35616(17)
C16 C -1.04221(18) -0.3403(2) -0.20226(18)
H10 H -1.0120 -0.3467 -0.2263
C17 C -1.07591(19) -0.2941(2) -0.2123(2)
H11 H -1.0680 -0.2697 -0.2419
C18 C -1.12177(17) -0.28487(19) -0.17748(18)
C19 C -1.1311(2) -0.3219(2) -0.1332(2)
H12 H -1.1611 -0.3163 -0.1087
C20 C -1.0956(2) -0.3669(2) -0.1260(2)
H13 H -1.1027 -0.3919 -0.0968
C21 C -1.16021(19) -0.23600(19) -0.18688(19)
O1G O -0.85001(11) -0.43241(11) -0.11959(11)
O1J O -0.88041(11) -0.35001(11) -0.06759(11)
O3F O -1.46457(11) -0.93396(11) -0.01863(12)
O4F O -1.37430(11) -0.93827(11) 0.00866(12)
C1F C -1.41549(16) -0.91442(15) -0.01502(16)
C2F C -1.40327(17) -0.85791(17) -0.04109(18)
C3F C -1.44521(19) -0.8263(2) -0.0667(2)
H1F H -1.4820 -0.8396 -0.0671
C4F C -1.4329(2) -0.7747(2) -0.0919(2)
H2F H -1.4616 -0.7542 -0.1088
C5F C -1.3786(2) -0.7536(2) -0.0920(2)
C6F C -1.3362(2) -0.7859(3) -0.0655(3)
H3F H -1.2995 -0.7725 -0.0647
C7F C -1.3489(2) -0.8375(2) -0.0406(3)
H4F H -1.3205 -0.8584 -0.0236
C8F C -1.3634(2) -0.70078(19) -0.1221(2)
C9F C -1.3164(2) -0.6696(2) -0.1061(2)
H5F H -1.2960 -0.6806 -0.0745
O3I O -1.48137(12) -0.53543(11) -0.43396(11)
O4I O -1.50866(12) -0.62570(11) -0.43827(11)
C1I C -1.48498(16) -0.58451(16) -0.41442(15)
C2I C -1.45891(18) -0.59673(17) -0.35791(17)
C3I C -1.4333(2) -0.55479(19) -0.3263(2)
H1I H -1.4329 -0.5180 -0.3396
C4I C -1.4081(2) -0.5671(2) -0.2747(2)
H2I H -1.3912 -0.5384 -0.2542
C5I C -1.4080(2) -0.6214(2) -0.2536(2)
C6I C -1.4345(3) -0.6638(2) -0.2859(3)
H3I H -1.4353 -0.7005 -0.2725
C7I C -1.4594(3) -0.6511(2) -0.3375(2)
H4I H -1.4764 -0.6795 -0.3584
C8I C -1.3779(2) -0.6366(2) -0.20078(19)
C9I C -1.3939(2) -0.6836(2) -0.1696(2)
H5I H -1.4255 -0.7040 -0.1806
N1E N -0.71173(13) -0.52861(14) -0.52006(14)
N2E N -0.88209(15) -0.62904(16) -0.44663(16)
C10E C -0.7342(3) -0.4971(3) -0.4804(3)
H6E H -0.7173 -0.4628 -0.4722
C11E C -0.7816(3) -0.5124(3) -0.4502(3)
H7E H -0.7971 -0.4881 -0.4237
C12E C -0.80532(18) -0.56365(19) -0.45992(19)
C13E C -0.7823(2) -0.5970(2) -0.5002(3)
H8E H -0.7974 -0.6323 -0.5080
C14E C -0.7356(2) -0.5773(2) -0.5293(3)
H9E H -0.7204 -0.6002 -0.5572
C15E C -0.85616(17) -0.58337(18) -0.42720(19)
N1K N -1.02006(14) -0.78827(13) -0.47139(14)
N2K N -0.94663(16) -0.61791(15) -0.37096(16)
C10K C -0.9804(3) -0.7658(3) -0.5029(3)
H6K H -0.9722 -0.7827 -0.5372
C11K C -0.9502(3) -0.7184(3) -0.4876(3)
H7K H -0.9237 -0.7029 -0.5119
C12K C -0.95992(19) -0.69468(18) -0.43635(19)
C13K C -1.0002(3) -0.7177(2) -0.4030(2)
H8K H -1.0080 -0.7026 -0.3677
C14K C -1.0293(3) -0.7644(2) -0.4227(2)
H9K H -1.0572 -0.7796 -0.3998
C15K C -0.92720(19) -0.64384(17) -0.41663(18)
N3D N -1.15980(14) -0.05060(14) -0.37653(15)
N4D N -1.14983(16) -0.20288(16) -0.22971(16)
C16D C -1.20226(18) -0.04221(18) -0.3403(2)
H10D H -1.2263 -0.0120 -0.3467
C17D C -1.2123(2) -0.07591(19) -0.2941(2)
H11D H -1.2419 -0.0680 -0.2697
C18D C -1.17748(18) -0.12177(17) -0.28487(19)
C19D C -1.1332(2) -0.1311(2) -0.3219(2)
H12D H -1.1087 -0.1611 -0.3163
C20D C -1.1260(2) -0.0956(2) -0.3669(2)
H13D H -1.0968 -0.1027 -0.3919
C21D C -1.18688(19) -0.16021(19) -0.23600(19)
N3H N -1.37653(15) -0.15980(14) -0.05060(14)
N4H N -1.22971(16) -0.14983(16) -0.20288(16)
C16H C -1.3403(2) -0.20226(18) -0.04221(18)
H10H H -1.3467 -0.2263 -0.0120
C17H C -1.2941(2) -0.2123(2) -0.07591(19)
H11H H -1.2697 -0.2419 -0.0680
C18H C -1.28487(19) -0.17748(18) -0.12177(17)
C19H C -1.3219(2) -0.1332(2) -0.1311(2)
H12H H -1.3163 -0.1087 -0.1611
C20H C -1.3669(2) -0.1260(2) -0.0956(2)
H13H H -1.3919 -0.0968 -0.1027
C21H C -1.23600(19) -0.18688(19) -0.16021(19)
Co2D Co -1.134125(19) 0.00660(2) -0.44014(2)
F1D F -1.05212(8) -0.00179(9) -0.41075(8)
Co2H Co -1.44014(2) -0.134125(19) 0.00660(2)
F1H F -1.41075(8) -0.05212(8) -0.00179(9)
Co1A Co -1.511269(19) -0.511269(19) -0.511269(19)
Co1B Co -1.011269(19) 0.011269(19) -0.488731(19)
Co1C Co -1.488731(19) -1.011269(19) 0.011269(19)
Co1C_2 Co -1.488731(19) -0.011269(19) 0.011269(19)
Co2B Co -1.00660(2) 0.05986(2) -0.365875(19)
Co2E Co -0.634125(19) -0.50660(2) -0.55986(2)
Co2F Co -1.365875(19) -1.00660(2) 0.05986(2)
Co2F_2 Co -1.365875(19) -0.00660(2) 0.05986(2)
Co2G Co -0.865875(19) -0.49340(2) -0.05986(2)
Co2I Co -1.55986(2) -0.634125(19) -0.50660(2)
Co2J Co -0.94014(2) -0.365875(19) -0.00660(2)
Co2K Co -1.05986(2) -0.865875(19) -0.49340(2)
F1C F -1.50179(9) -0.08925(8) 0.05212(8)
F1G F -0.94788(8) -0.50179(9) -0.08925(8)
F1J F -0.91075(8) -0.44788(8) 0.00179(9)
F1K F -1.08925(8) 0.05212(8) -0.50179(9)
O1D O -1.14999(11) 0.06759(11) -0.38041(11)
O1H O -1.38041(11) -0.14999(11) 0.06759(11)
O3G O -0.96457(11) -0.56604(11) 0.01863(12)
O3J O -1.01863(12) -0.46457(11) 0.06604(11)
O4D O -1.12570(11) -0.06173(11) -0.49134(12)
O4H O -1.49134(12) -0.12570(11) -0.06173(11)
N1D N -1.21173(13) 0.02861(14) -0.47994(14)
N1H N -1.47994(14) -0.21173(13) 0.02861(14)
N5 N -0.9798(4) -0.1847(4) -0.3917(4)
O5 O -1.0336(4) -0.2406(4) -0.3384(5)
C22 C -0.9995(8) -0.2664(7) -0.4379(6)
H14 H -1.0207 -0.3007 -0.4360
H15 H -0.9600 -0.2751 -0.4392
H16 H -1.0098 -0.2460 -0.4712
C23 C -1.0121(6) -0.2299(5) -0.3851(5)
C24 C -0.9741(7) -0.1429(6) -0.3478(6)
H17 H -0.9939 -0.1552 -0.3149
H18 H -0.9896 -0.1079 -0.3606
H19 H -0.9350 -0.1380 -0.3390
C25 C -0.9493(6) -0.1703(6) -0.4424(5)
H20 H -0.9543 -0.1995 -0.4699
H21 H -0.9100 -0.1665 -0.4339
H22 H -0.9633 -0.1354 -0.4571
O6 O -0.7329(9) -0.2613(8) -0.1001(8)
N6 N -0.7811(7) -0.1855(7) -0.1268(8)
C26 C -0.7048(13) -0.1776(18) -0.173(2)
H23 H -0.6690 -0.1934 -0.1829
H24 H -0.6990 -0.1419 -0.1546
H25 H -0.7273 -0.1726 -0.2057
C27 C -0.7353(6) -0.2180(7) -0.1314(7)
C28 C -0.8284(7) -0.1989(9) -0.0905(8)
H26 H -0.8189 -0.2304 -0.0671
H27 H -0.8605 -0.2082 -0.1132
H28 H -0.8371 -0.1670 -0.0673
C29 C -0.7881(10) -0.1388(8) -0.1639(9)
H29 H -0.7543 -0.1334 -0.1853
H30 H -0.7958 -0.1055 -0.1423
H31 H -0.8189 -0.1460 -0.1889
O7 O -1.0871(6) -0.5871(6) 0.0871(6)
O8 O -0.9782(10) -0.5218(10) -0.4782(10)
O9 O -1.2556(12) -0.5240(13) -0.3054(12)
O10 O -0.8063(19) -0.3774(19) -0.4103(19)
O11 O -1.1493(14) -0.4812(14) -0.2893(13)
loop_
_geom_bond_atom_site_label_1
_geom_bond_atom_site_label_2
_geom_bond_site_symmetry_1
_geom_bond_site_symmetry_2
Co1 F1 1_555 1_555
Co2 F1 1_555 1_555
F1 Co2J 1_555 1_555
S1 O1 1_555 1_555
O1 Co2 1_555 1_555
O2 S1 1_555 1_555
O3 Co1 1_555 1_555
O4 Co2 1_555 1_555
N1 Co2 1_555 1_555
N2 C15 1_555 1_555
N3 Co2 1_555 1_555
N4 C21 1_555 1_555
C1 O3 1_555 1_555
C2 C1 1_555 1_555
C3 C2 1_555 1_555
H1 C3 1_555 1_555
C4 C3 1_555 1_555
H2 C4 1_555 1_555
C5 C4 1_555 1_555
C6 C5 1_555 1_555
H3 C6 1_555 1_555
C7 C2 1_555 1_555
H4 C7 1_555 1_555
C8 C5 1_555 1_555
C9 C8 1_555 1_555
H5 C9 1_555 1_555
C10 N1 1_555 1_555
H6 C10 1_555 1_555
C11 C10 1_555 1_555
H7 C11 1_555 1_555
C12 C11 1_555 1_555
C13 C12 1_555 1_555
H8 C13 1_555 1_555
C14 N1 1_555 1_555
H9 C14 1_555 1_555
C15 C12 1_555 1_555
C16 N3 1_555 1_555
H10 C16 1_555 1_555
C17 C16 1_555 1_555
H11 C17 1_555 1_555
C18 C17 1_555 1_555
C19 C18 1_555 1_555
H12 C19 1_555 1_555
C20 N3 1_555 1_555
H13 C20 1_555 1_555
C21 C18 1_555 1_555
N5 C23 1_555 1_555
O5 C23 1_555 1_555
C22 H14 1_555 1_555
H15 C22 1_555 1_555
H16 C22 1_555 1_555
C23 C22 1_555 1_555
C24 N5 1_555 1_555
H17 C24 1_555 1_555
H18 C24 1_555 1_555
H19 C24 1_555 1_555
C25 N5 1_555 1_555
H20 C25 1_555 1_555
H21 C25 1_555 1_555
H22 C25 1_555 1_555
O6 C27 1_555 1_555
N6 C27 1_555 1_555
C26 H23 1_555 1_555
H24 C26 1_555 1_555
H25 C26 1_555 1_555
C27 C26 1_555 1_555
C28 N6 1_555 1_555
H26 C28 1_555 1_555
H27 C28 1_555 1_555
H28 C28 1_555 1_555
C29 N6 1_555 1_555
H29 C29 1_555 1_555
H30 C29 1_555 1_555
H31 C29 1_555 1_555
O1G S1 1_555 1_555
O1J S1 1_555 1_555
O3F C1F 1_555 1_555
O4F C1F 1_555 1_555
C1F C2F 1_555 1_555
C2F C3F 1_555 1_555
C3F H1F 1_555 1_555
C4F C3F 1_555 1_555
H2F C4F 1_555 1_555
C5F C4F 1_555 1_555
C6F C5F 1_555 1_555
H3F C6F 1_555 1_555
C7F C2F 1_555 1_555
H4F C7F 1_555 1_555
C8F C5F 1_555 1_555
C9F C8 1_555 1_555
H5F C9F 1_555 1_555
O3I C1I 1_555 1_555
O4I C1I 1_555 1_555
C1I C2I 1_555 1_555
C2I C3I 1_555 1_555
C3I H1I 1_555 1_555
C4I C3I 1_555 1_555
H2I C4I 1_555 1_555
C5I C4I 1_555 1_555
C6I C5I 1_555 1_555
H3I C6I 1_555 1_555
C7I C2I 1_555 1_555
H4I C7I 1_555 1_555
C8I C9 1_555 1_555
C9I C8F 1_555 1_555
H5I C9I 1_555 1_555
N1E C10E 1_555 1_555
N2E C15E 1_555 1_555
C10E H6E 1_555 1_555
C11E C10E 1_555 1_555
H7E C11E 1_555 1_555
C12E C11E 1_555 1_555
C13E C12E 1_555 1_555
H8E C13E 1_555 1_555
C14E N1E 1_555 1_555
H9E C14E 1_555 1_555
C15E N2 1_555 1_555
N1K C10K 1_555 1_555
N2K C15 1_555 1_555
C10K H6K 1_555 1_555
C11K C10K 1_555 1_555
H7K C11K 1_555 1_555
C12K C11K 1_555 1_555
C13K C12K 1_555 1_555
H8K C13K 1_555 1_555
C14K N1K 1_555 1_555
H9K C14K 1_555 1_555
C15K N2E 1_555 1_555
N3D C16D 1_555 1_555
N4D C21 1_555 1_555
C16D H10D 1_555 1_555
C17D C16D 1_555 1_555
H11D C17D 1_555 1_555
C18D C17D 1_555 1_555
C19D C18D 1_555 1_555
H12D C19D 1_555 1_555
C20D N3D 1_555 1_555
H13D C20D 1_555 1_555
C21D N4D 1_555 1_555
N3H C16H 1_555 1_555
N4H C21D 1_555 1_555
C16H H10H 1_555 1_555
C17H C16H 1_555 1_555
H11H C17H 1_555 1_555
C18H C17H 1_555 1_555
C19H C18H 1_555 1_555
H12H C19H 1_555 1_555
C20H N3H 1_555 1_555
H13H C20H 1_555 1_555
C21H N4 1_555 1_555
Co2D N3D 1_555 1_555
F1D Co2D 1_555 1_555
Co2H N3H 1_555 1_555
F1H Co2H 1_555 1_555
Co1A O3I 1_555 1_555
Co1B F1D 1_555 1_555
Co1C O3F 1_555 1_555
Co1C_2 F1H 1_555 1_555
Co2B F1D 1_555 1_555
Co2E N1E 1_555 1_555
Co2F O4F 1_555 1_555
Co2F_2 F1H 1_555 1_555
Co2G O1G 1_555 1_555
Co2I O4I 1_555 1_555
Co2J O1J 1_555 1_555
Co2K N1K 1_555 1_555
F1C Co2H 1_555 1_555
F1G Co1 1_555 1_555
F1J Co1 1_555 1_555
F1K Co2D 1_555 1_555
O1D Co2D 1_555 1_555
O1H Co2H 1_555 1_555
O3G Co1 1_555 1_555
O3J Co1 1_555 1_555
O4D Co2D 1_555 1_555
O4H Co2H 1_555 1_555
N1D Co2D 1_555 1_555
N1H Co2H 1_555 1_555
Co2 F1G 1_555 1_555
O4 C1 1_555 1_555
C6 C7 1_555 1_555
C13 C14 1_555 1_555
C19 C20 1_555 1_555
C6F C7F 1_555 1_555
C8F C9F 1_555 1_555
C5I C8I 1_555 1_555
C6I C7I 1_555 1_555
C8I C9I 1_555 1_555
C12E C15E 1_555 1_555
C13E C14E 1_555 1_555
N2K C15K 1_555 1_555
C12K C15K 1_555 1_555
C13K C14K 1_555 1_555
C18D C21D 1_555 1_555
C19D C20D 1_555 1_555
N4H C21H 1_555 1_555
C18H C21H 1_555 1_555
C19H C20H 1_555 1_555
Co1B F1K 1_555 1_555
Co1C_2 F1C 1_555 1_555
Co2G F1G 1_555 1_555
Co2G F1J 1_555 1_555
Co2J F1J 1_555 1_555

#END
