
#######################################################################
#
#                 Cambridge Crystallographic Data Centre
#                                CCDC 
#
#######################################################################
#
# If this CIF has been generated from an entry in the Cambridge 
# Structural Database, then it will include bibliographic, chemical, 
# crystal, experimental, refinement or atomic coordinate data resulting 
# from the CCDC's data processing and validation procedures.
#
#######################################################################

data_QUBWIU
_chemical_formula_moiety         '(C48 H96 Cl9 Cu8 N8 Na5 O108 Sm4)n'
_symmetry_cell_setting           tetragonal
_symmetry_space_group_name_H-M   'P -4 21 c'
_symmetry_Int_Tables_number      114
_space_group_name_Hall           'P -4 2n'
loop_
_symmetry_equiv_pos_site_id
_symmetry_equiv_pos_as_xyz
1 x,y,z
2 -x,-y,z
3 y,-x,-z
4 -y,x,-z
5 1/2-x,1/2+y,1/2-z
6 1/2+x,1/2-y,1/2-z
7 1/2-y,1/2-x,1/2+z
8 1/2+y,1/2+x,1/2+z
_cell_length_a                   17.0410(14)
_cell_length_b                   17.0410(14)
_cell_length_c                   25.371(2)
_cell_angle_alpha                90
_cell_angle_beta                 90
_cell_angle_gamma                90
_cell_volume                     7367.63
loop_
_atom_site_label
_atom_site_type_symbol
_atom_site_fract_x
_atom_site_fract_y
_atom_site_fract_z
Sm1 Sm 0.27553(2) 0.11819(2) -0.191920(18)
Cu1 Cu 0.12896(6) 0.37850(6) 0.16824(4)
Cu2 Cu 0.11999(6) 0.18517(5) 0.00864(3)
Na1 Na 0.2336(3) 0.1943(3) 0.11389(18)
Na2 Na 0.0000 0.0000 0.0000
Cl1 Cl 0.1458(3) 0.06846(19) 0.19492(18)
Cl2 Cl 0.3423(4) 0.2439(6) -0.0004(3)
N1 N 0.3857(4) -0.1491(4) -0.2462(3)
N2 N 0.0793(4) 0.2795(4) -0.0311(3)
O1 O 0.3226(3) -0.0237(4) -0.1972(2)
O2 O 0.2764(4) 0.0252(4) -0.2711(3)
O3 O 0.2976(4) -0.2159(4) -0.1731(2)
O4 O 0.2611(4) -0.3112(4) -0.2284(3)
O5 O 0.5937(4) -0.1198(3) -0.2305(2)
O6 O 0.4965(4) -0.1151(4) -0.1726(3)
O7 O 0.1079(4) 0.3796(4) 0.0938(2)
O8 O 0.1152(4) 0.2525(3) 0.0722(2)
O9 O -0.0007(4) 0.1450(3) -0.0011(2)
O10 O -0.1069(4) 0.1790(3) -0.0464(2)
O11 O 0.1965(4) 0.2042(4) -0.1374(2)
O12 O 0.1592(4) 0.1541(4) -0.0605(2)
O13 O 0.3654(6) 0.1151(5) -0.1167(3)
H1 H 0.4112 0.1307 -0.1249
H2 H 0.3482 0.1414 -0.0907
O14 O 0.3276(4) 0.2555(5) -0.1893(4)
H3 H 0.3704 0.2560 -0.1720
H4 H 0.3374 0.2708 -0.2205
O15 O 0.1403(5) 0.0825(4) -0.2163(3)
H5 H 0.1120 0.0827 -0.1887
H6 H 0.1224 0.1173 -0.2371
O16 O 0.2149(4) 0.0364(5) -0.1236(3)
H7 H 0.1854 0.0637 -0.1037
H8 H 0.1879 -0.0004 -0.1372
O17 O 0.1152(7) 0.1362(6) 0.1754(4)
O18 O 0.2340(9) 0.0878(8) 0.1729(6)
O19 O 0.1373(11) 0.0002(9) 0.1625(6)
O20 O 0.1663(11) 0.0529(7) 0.2447(5)
O21 O 0.2723(8) 0.2595(8) 0.0275(5)
O22 O 0.3575(12) 0.1625(14) -0.0072(8)
O23 O 0.4064(13) 0.2873(16) 0.0160(10)
O24 O 0.3244(13) 0.2733(15) -0.0539(10)
O27 O 0.3509(9) 0.1516(10) 0.1433(6)
H9 H 0.3421 0.1111 0.1620
H10 H 0.3812 0.1372 0.1186
O28 O 0.0000 -0.0000 0.0905(4)
H11 H -0.0413 0.0195 0.1040
C1 C 0.3067(5) -0.0287(5) -0.2458(3)
C2 C 0.3241(5) -0.1051(5) -0.2741(4)
H16 H 0.3411 -0.0941 -0.3098
H17 H 0.2768 -0.1365 -0.2759
C3 C 0.3050(5) -0.2563(6) -0.2159(4)
C4 C 0.3723(4) -0.2339(5) -0.2496(3)
H18 H 0.3616 -0.2484 -0.2859
H19 H 0.4189 -0.2618 -0.2382
C5 C 0.5231(6) -0.1212(4) -0.2190(4)
C6 C 0.4666(5) -0.1246(4) -0.2643(3)
H20 H 0.4636 -0.0734 -0.2808
H21 H 0.4857 -0.1617 -0.2903
C7 C 0.1043(5) 0.3242(5) 0.0608(3)
C8 C 0.0839(7) 0.3466(6) 0.0060(4)
H22 H 0.0336 0.3734 0.0063
H23 H 0.1229 0.3834 -0.0069
C9 C -0.0390(5) 0.1912(5) -0.0294(3)
C10 C -0.0011(7) 0.2652(6) -0.0483(5)
H24 H -0.0017 0.2648 -0.0865
H25 H -0.0332 0.3090 -0.0369
C11 C 0.1640(5) 0.2097(5) -0.0936(3)
C12 C 0.1318(7) 0.2869(6) -0.0779(4)
H26 H 0.1026 0.3092 -0.1071
H27 H 0.1747 0.3223 -0.0696
Sm1A Sm -0.27553(2) -0.11819(2) -0.191920(18)
Sm1B Sm 0.11819(2) -0.27553(2) 0.191920(18)
Sm1C Sm -0.11819(2) 0.27553(2) 0.191920(18)
Sm1D Sm 0.22447(2) -0.38181(2) -0.308080(18)
Sm1A_2 Sm 0.72447(2) -0.11819(2) -0.191920(18)
Sm1D_2 Sm 0.22447(2) 0.61819(2) -0.308080(18)
Sm1E Sm -0.22447(2) 0.38181(2) -0.308080(18)
Sm1E_2 Sm 0.77553(2) 0.38181(2) -0.308080(18)
Sm1F Sm 0.38181(2) 0.22447(2) 0.308080(18)
Sm1B_2 Sm 0.11819(2) 0.72447(2) 0.191920(18)
Cu1A Cu -0.12896(6) -0.37850(6) 0.16824(4)
Cu1B Cu 0.37850(6) -0.12896(6) -0.16824(4)
Cu1C Cu -0.37850(6) 0.12896(6) -0.16824(4)
Cu1F Cu 0.12150(6) 0.37104(6) -0.33176(4)
Cu1C_2 Cu 0.62150(6) 0.12896(6) -0.16824(4)
Cu2A Cu -0.11999(6) -0.18517(5) 0.00864(3)
Cu2B Cu 0.18517(5) -0.11999(6) -0.00864(3)
Cu2C Cu -0.18517(5) 0.11999(6) -0.00864(3)
Na1A Na -0.2336(3) -0.1943(3) 0.11389(18)
Na1B Na 0.1943(3) -0.2336(3) -0.11389(18)
Na1C Na -0.1943(3) 0.2336(3) -0.11389(18)
Na1F Na 0.3057(3) 0.2664(3) -0.38611(18)
Na1C_2 Na 0.8057(3) 0.2336(3) -0.11389(18)
Cl1A Cl -0.1458(3) -0.06846(19) 0.19492(18)
Cl1B Cl 0.06846(19) -0.1458(3) -0.19492(18)
Cl1C Cl -0.06846(19) 0.1458(3) -0.19492(18)
Cl2A Cl -0.3423(4) -0.2439(6) -0.0004(3)
Cl2B Cl 0.2439(6) -0.3423(4) 0.0004(3)
Cl2C Cl -0.2439(6) 0.3423(4) 0.0004(3)
N1D N 0.1143(4) 0.3509(4) -0.2538(3)
N1A N 0.6143(4) 0.1491(4) -0.2462(3)
N1C N 0.1491(4) 0.3857(4) 0.2462(3)
N1B N -0.1491(4) -0.3857(4) 0.2462(3)
N1A_2 N -0.3857(4) 0.1491(4) -0.2462(3)
N2A N -0.0793(4) -0.2795(4) -0.0311(3)
N2B N 0.2795(4) -0.0793(4) 0.0311(3)
N2C N -0.2795(4) 0.0793(4) 0.0311(3)
O1D O 0.1774(3) 0.4763(4) -0.3028(2)
O1A O 0.6774(3) 0.0237(4) -0.1972(2)
O1C O 0.0237(4) 0.3226(3) 0.1972(2)
O1A_2 O -0.3226(3) 0.0237(4) -0.1972(2)
O1B O -0.0237(4) -0.3226(3) 0.1972(2)
O2D O 0.2236(4) 0.5252(4) -0.2289(3)
O2A O 0.7236(4) -0.0252(4) -0.2711(3)
O2C O -0.0252(4) 0.2764(4) 0.2711(3)
O2A_2 O -0.2764(4) -0.0252(4) -0.2711(3)
O2B O 0.0252(4) -0.2764(4) 0.2711(3)
O3D O 0.2024(4) 0.2841(4) -0.3269(2)
O3A O 0.7024(4) 0.2159(4) -0.1731(2)
O3C O 0.2159(4) 0.2976(4) 0.1731(2)
O3B O -0.2159(4) -0.2976(4) 0.1731(2)
O3A_2 O -0.2976(4) 0.2159(4) -0.1731(2)
O4D O 0.2389(4) 0.1888(4) -0.2716(3)
O4A O 0.7389(4) 0.3112(4) -0.2284(3)
O4C O 0.3112(4) 0.2611(4) 0.2284(3)
O4E O -0.2389(4) -0.1888(4) -0.2716(3)
O4G O 0.1888(4) -0.2389(4) 0.2716(3)
O4F O -0.1888(4) 0.2389(4) 0.2716(3)
O5D O -0.0937(4) 0.3802(3) -0.2695(2)
O5A O 0.4063(4) 0.1198(3) -0.2305(2)
O5C O 0.1198(3) 0.5937(4) 0.2305(2)
O5_2 O -0.4063(4) -0.1198(3) -0.2305(2)
O5C_2 O 0.1198(3) -0.4063(4) 0.2305(2)
O5B O -0.1198(3) 0.4063(4) 0.2305(2)
O6D O 0.0035(4) 0.3849(4) -0.3274(3)
O6A O 0.5035(4) 0.1151(4) -0.1726(3)
O6C O 0.1151(4) 0.4965(4) 0.1726(3)
O6B O -0.1151(4) -0.4965(4) 0.1726(3)
O6A_2 O -0.4965(4) 0.1151(4) -0.1726(3)
O7A O -0.1079(4) -0.3796(4) 0.0938(2)
O7B O 0.3796(4) -0.1079(4) -0.0938(2)
O7C O -0.3796(4) 0.1079(4) -0.0938(2)
O8A O -0.1152(4) -0.2525(3) 0.0722(2)
O8B O 0.2525(3) -0.1152(4) -0.0722(2)
O8C O -0.2525(3) 0.1152(4) -0.0722(2)
O9A O 0.0007(4) -0.1450(3) -0.0011(2)
O9B O 0.1450(3) 0.0007(4) 0.0011(2)
O9C O -0.1450(3) -0.0007(4) 0.0011(2)
O10A O 0.1069(4) -0.1790(3) -0.0464(2)
O10B O 0.1790(3) 0.1069(4) 0.0464(2)
O10C O -0.1790(3) -0.1069(4) 0.0464(2)
O11A O -0.1965(4) -0.2042(4) -0.1374(2)
O11B O 0.2042(4) -0.1965(4) 0.1374(2)
O11C O -0.2042(4) 0.1965(4) 0.1374(2)
O12A O -0.1592(4) -0.1541(4) -0.0605(2)
O12B O 0.1541(4) -0.1592(4) 0.0605(2)
O12C O -0.1541(4) 0.1592(4) 0.0605(2)
O13A O -0.3654(6) -0.1151(5) -0.1167(3)
O13B O 0.1151(5) -0.3654(6) 0.1167(3)
O13C O -0.1151(5) 0.3654(6) 0.1167(3)
H1A H -0.4112 -0.1307 -0.1249
H1B H 0.1307 -0.4112 0.1249
H1C H -0.1307 0.4112 0.1249
H2A H -0.3482 -0.1414 -0.0907
H2B H 0.1414 -0.3482 0.0907
H2C H -0.1414 0.3482 0.0907
O14A O -0.3276(4) -0.2555(5) -0.1893(4)
O14B O 0.2555(5) -0.3276(4) 0.1893(4)
O14C O -0.2555(5) 0.3276(4) 0.1893(4)
H3A H -0.3704 -0.2560 -0.1720
H3B H 0.2560 -0.3704 0.1720
H3C H -0.2560 0.3704 0.1720
H4A H -0.3374 -0.2708 -0.2205
H4B H 0.2708 -0.3374 0.2205
H4C H -0.2708 0.3374 0.2205
O15A O -0.1403(5) -0.0825(4) -0.2163(3)
O15B O 0.0825(4) -0.1403(5) 0.2163(3)
O15C O -0.0825(4) 0.1403(5) 0.2163(3)
H5A H -0.1120 -0.0827 -0.1887
H5B H 0.0827 -0.1120 0.1887
H5C H -0.0827 0.1120 0.1887
H6A H -0.1224 -0.1173 -0.2371
H6B H 0.1173 -0.1224 0.2371
H6C H -0.1173 0.1224 0.2371
O16A O -0.2149(4) -0.0364(5) -0.1236(3)
O16B O 0.0364(5) -0.2149(4) 0.1236(3)
O16C O -0.0364(5) 0.2149(4) 0.1236(3)
H7A H -0.1854 -0.0637 -0.1037
H7B H 0.0637 -0.1854 0.1037
H7C H -0.0637 0.1854 0.1037
H8A H -0.1879 0.0004 -0.1372
H8B H -0.0004 -0.1879 0.1372
H8C H 0.0004 0.1879 0.1372
O17A O -0.1152(7) -0.1362(6) 0.1754(4)
O17B O 0.1362(6) -0.1152(7) -0.1754(4)
O17C O -0.1362(6) 0.1152(7) -0.1754(4)
O18A O -0.2340(9) -0.0878(8) 0.1729(6)
O18B O 0.0878(8) -0.2340(9) -0.1729(6)
O18C O -0.0878(8) 0.2340(9) -0.1729(6)
O19A O -0.1373(11) -0.0002(9) 0.1625(6)
O19B O 0.0002(9) -0.1373(11) -0.1625(6)
O19C O -0.0002(9) 0.1373(11) -0.1625(6)
O20A O -0.1663(11) -0.0529(7) 0.2447(5)
O20B O 0.0529(7) -0.1663(11) -0.2447(5)
O20C O -0.0529(7) 0.1663(11) -0.2447(5)
O21A O -0.2723(8) -0.2595(8) 0.0275(5)
O21B O 0.2595(8) -0.2723(8) -0.0275(5)
O21C O -0.2595(8) 0.2723(8) -0.0275(5)
O22A O -0.3575(12) -0.1625(14) -0.0072(8)
O22B O 0.1625(14) -0.3575(12) 0.0072(8)
O22C O -0.1625(14) 0.3575(12) 0.0072(8)
O23A O -0.4064(13) -0.2873(16) 0.0160(10)
O23B O 0.2873(16) -0.4064(13) -0.0160(10)
O23C O -0.2873(16) 0.4064(13) -0.0160(10)
O24A O -0.3244(13) -0.2733(15) -0.0539(10)
O24B O 0.2733(15) -0.3244(13) 0.0539(10)
O24C O -0.2733(15) 0.3244(13) 0.0539(10)
O27A O -0.3509(9) -0.1516(10) 0.1433(6)
O27B O 0.1516(10) -0.3509(9) -0.1433(6)
O27C O -0.1516(10) 0.3509(9) -0.1433(6)
H9A H -0.3421 -0.1111 0.1620
H9B H 0.1111 -0.3421 -0.1620
H9C H -0.1111 0.3421 -0.1620
H10A H -0.3812 -0.1372 0.1186
H10B H 0.1372 -0.3812 -0.1186
H10C H -0.1372 0.3812 -0.1186
O28B O 0.0000 0.0000 -0.0905(4)
H11A H 0.0413 -0.0195 0.1040
H11B H 0.0195 0.0413 -0.1040
H11C H -0.0195 -0.0413 -0.1040
C1D C 0.1933(5) 0.4713(5) -0.2542(3)
C1A C 0.6933(5) 0.0287(5) -0.2458(3)
C1C C 0.0287(5) 0.3067(5) 0.2458(3)
C2D C 0.1759(5) 0.3949(5) -0.2259(4)
C2A C 0.6759(5) 0.1051(5) -0.2741(4)
C2C C 0.1051(5) 0.3241(5) 0.2741(4)
H16D H 0.1589 0.4059 -0.1902
H16A H 0.6589 0.0941 -0.3098
H16C H 0.0941 0.3411 0.3098
H17D H 0.2232 0.3635 -0.2241
H17A H 0.7232 0.1365 -0.2759
H17C H 0.1365 0.2768 0.2759
C3D C 0.1950(5) 0.2437(6) -0.2841(4)
C3A C 0.6950(5) 0.2563(6) -0.2159(4)
C3C C 0.2563(6) 0.3050(5) 0.2159(4)
C4D C 0.1277(4) 0.2661(5) -0.2504(3)
C4A C 0.6277(4) 0.2339(5) -0.2496(3)
C4C C 0.2339(5) 0.3723(4) 0.2496(3)
H18D H 0.1384 0.2516 -0.2141
H18A H 0.6384 0.2484 -0.2859
H18C H 0.2484 0.3616 0.2859
H19D H 0.0811 0.2382 -0.2618
H19A H 0.5811 0.2618 -0.2382
H19C H 0.2618 0.4189 0.2382
C5D C -0.0231(6) 0.3788(4) -0.2810(4)
C5A C 0.4769(6) 0.1212(4) -0.2190(4)
C5C C 0.1212(4) 0.5231(6) 0.2190(4)
C6D C 0.0334(5) 0.3754(4) -0.2357(3)
C6A C 0.5334(5) 0.1246(4) -0.2643(3)
C6C C 0.1246(4) 0.4666(5) 0.2643(3)
H20D H 0.0364 0.4266 -0.2192
H20A H 0.5364 0.0734 -0.2808
H20C H 0.0734 0.4636 0.2808
H21D H 0.0143 0.3383 -0.2097
H21A H 0.5143 0.1617 -0.2903
H21C H 0.1617 0.4857 0.2903
C7A C -0.1043(5) -0.3242(5) 0.0608(3)
C7B C 0.3242(5) -0.1043(5) -0.0608(3)
C7C C -0.3242(5) 0.1043(5) -0.0608(3)
C8A C -0.0839(7) -0.3466(6) 0.0060(4)
C8B C 0.3466(6) -0.0839(7) -0.0060(4)
C8C C -0.3466(6) 0.0839(7) -0.0060(4)
H22A H -0.0336 -0.3734 0.0063
H22B H 0.3734 -0.0336 -0.0063
H22C H -0.3734 0.0336 -0.0063
H23A H -0.1229 -0.3834 -0.0069
H23B H 0.3834 -0.1229 0.0069
H23C H -0.3834 0.1229 0.0069
C9A C 0.0390(5) -0.1912(5) -0.0294(3)
C9B C 0.1912(5) 0.0390(5) 0.0294(3)
C9C C -0.1912(5) -0.0390(5) 0.0294(3)
C10A C 0.0011(7) -0.2652(6) -0.0483(5)
C10B C 0.2652(6) 0.0011(7) 0.0483(5)
C10C C -0.2652(6) -0.0011(7) 0.0483(5)
H24A H 0.0017 -0.2648 -0.0865
H24B H 0.2648 0.0017 0.0865
H24C H -0.2648 -0.0017 0.0865
H25A H 0.0332 -0.3090 -0.0369
H25B H 0.3090 0.0332 0.0369
H25C H -0.3090 -0.0332 0.0369
C11A C -0.1640(5) -0.2097(5) -0.0936(3)
C11B C 0.2097(5) -0.1640(5) 0.0936(3)
C11C C -0.2097(5) 0.1640(5) 0.0936(3)
C12A C -0.1318(7) -0.2869(6) -0.0779(4)
C12B C 0.2869(6) -0.1318(7) 0.0779(4)
C12C C -0.2869(6) 0.1318(7) 0.0779(4)
H26A H -0.1026 -0.3092 -0.1071
H26B H 0.3092 -0.1026 0.1071
H26C H -0.3092 0.1026 0.1071
H27A H -0.1747 -0.3223 -0.0696
H27B H 0.3223 -0.1747 0.0696
H27C H -0.3223 0.1747 0.0696
Cl3 Cl 0.5000 0.0000 0.10508(19)
O25 O 0.4340(12) 0.0150(14) 0.0776(10)
O26 O 0.5088(15) 0.0672(12) 0.1400(8)
O25A O 0.5660(12) -0.0150(14) 0.0776(10)
O26A O 0.4912(15) -0.0672(12) 0.1400(8)
O29 O 0.3471(8) 0.4630(8) 0.1240(5)
H12 H 0.3589 0.4284 0.1013
H13 H 0.3324 0.5042 0.1079
O30 O 0.4376(8) 0.2756(9) 0.1465(6)
H14 H 0.4068 0.2379 0.1391
H15 H 0.4576 0.2665 0.1766
loop_
_geom_bond_atom_site_label_1
_geom_bond_atom_site_label_2
_geom_bond_site_symmetry_1
_geom_bond_site_symmetry_2
Sm1 O1 1_555 1_555
Cu1 O7 1_555 1_555
Cu2 N2 1_555 1_555
Na1 O8 1_555 1_555
Na2 O9 1_555 1_555
Cl1 O17 1_555 1_555
Cl2 O21 1_555 1_555
Cl3 O25 1_555 1_555
N1 C2 1_555 1_555
N2 C8 1_555 1_555
O1 C1 1_555 1_555
O2 Sm1 1_555 1_555
O3 C3 1_555 1_555
O4 C3 1_555 1_555
O5 C5 1_555 1_555
O6 C5 1_555 1_555
O7 C7 1_555 1_555
O8 Cu2 1_555 1_555
O9 Cu2 1_555 1_555
O10 C9 1_555 1_555
O11 Sm1 1_555 1_555
O12 Cu2 1_555 1_555
O13 Sm1 1_555 1_555
H1 O13 1_555 1_555
H2 O13 1_555 1_555
O14 Sm1 1_555 1_555
H3 O14 1_555 1_555
H4 O14 1_555 1_555
O15 Sm1 1_555 1_555
H5 O15 1_555 1_555
H6 O15 1_555 1_555
O16 Sm1 1_555 1_555
H7 O16 1_555 1_555
H8 O16 1_555 1_555
O17 Na1 1_555 1_555
O18 Na1 1_555 1_555
O19 Cl1 1_555 1_555
O20 Cl1 1_555 1_555
O21 Na1 1_555 1_555
O22 Cl2 1_555 1_555
O23 Cl2 1_555 1_555
O24 Cl2 1_555 1_555
O26 Cl3 1_555 1_555
O27 Na1 1_555 1_555
H9 O27 1_555 1_555
H10 O27 1_555 1_555
O28 Na2 1_555 1_555
H11 O28 1_555 1_555
O29 H12 1_555 1_555
H13 O29 1_555 1_555
O30 H14 1_555 1_555
H15 O30 1_555 1_555
C1 O2 1_555 1_555
C2 C1 1_555 1_555
H16 C2 1_555 1_555
H17 C2 1_555 1_555
C3 C4 1_555 1_555
C4 N1 1_555 1_555
H18 C4 1_555 1_555
H19 C4 1_555 1_555
C5 C6 1_555 1_555
C6 N1 1_555 1_555
H20 C6 1_555 1_555
H21 C6 1_555 1_555
C7 O8 1_555 1_555
C8 C7 1_555 1_555
H22 C8 1_555 1_555
H23 C8 1_555 1_555
C9 O9 1_555 1_555
C10 N2 1_555 1_555
H24 C10 1_555 1_555
H25 C10 1_555 1_555
C11 O11 1_555 1_555
C12 N2 1_555 1_555
H26 C12 1_555 1_555
H27 C12 1_555 1_555
Sm1A O1A_2 1_555 1_555
Sm1B O1B 1_555 1_555
Sm1C O1C 1_555 1_555
Sm1D O4 1_555 1_555
Sm1A_2 O5 1_555 1_555
Sm1D_2 O1D 1_555 1_555
Sm1E O5D 1_555 1_555
Sm1E_2 O4A 1_555 1_555
Sm1F O4C 1_555 1_555
Sm1B_2 O5C 1_555 1_555
Cu1A N1B 1_555 1_555
Cu1B N1 1_555 1_555
Cu1C N1A_2 1_555 1_555
Cu1F N1D 1_555 1_555
Cu1C_2 N1A 1_555 1_555
Cu2A N2A 1_555 1_555
Cu2B N2B 1_555 1_555
Cu2C O10 1_555 1_555
Na1A O3B 1_555 1_555
Na1B O3 1_555 1_555
Na1C O10 1_555 1_555
Na1F O3D 1_555 1_555
Na1C_2 O3A 1_555 1_555
Cl1A O17A 1_555 1_555
Cl1B O17B 1_555 1_555
Cl1C O17C 1_555 1_555
Cl2A O21A 1_555 1_555
Cl2B O21B 1_555 1_555
Cl2C O21C 1_555 1_555
N1D C2D 1_555 1_555
N1A C2A 1_555 1_555
N1C Cu1 1_555 1_555
N2A C8A 1_555 1_555
N2B C8B 1_555 1_555
N2C Cu2C 1_555 1_555
O1D Cu1F 1_555 1_555
O1A Sm1A_2 1_555 1_555
O1C Cu1 1_555 1_555
O1A_2 Cu1C 1_555 1_555
O1B Cu1A 1_555 1_555
O2D Sm1D_2 1_555 1_555
O2A Sm1A_2 1_555 1_555
O2C Sm1C 1_555 1_555
O2A_2 Sm1A 1_555 1_555
O2B Sm1B 1_555 1_555
O3D Cu1F 1_555 1_555
O3A Cu1C_2 1_555 1_555
O3C Cu1 1_555 1_555
O3B Cu1A 1_555 1_555
O3A_2 Cu1C 1_555 1_555
O4D Sm1 1_555 1_555
O4A C3A 1_555 1_555
O4C C3C 1_555 1_555
O4E Sm1A 1_555 1_555
O4G Sm1B 1_555 1_555
O4F Sm1C 1_555 1_555
O5D C5D 1_555 1_555
O5A Sm1 1_555 1_555
O5C C5C 1_555 1_555
O5_2 Sm1A 1_555 1_555
O5C_2 Sm1B 1_555 1_555
O5B Sm1C 1_555 1_555
O6D Cu1F 1_555 1_555
O6A Cu1C_2 1_555 1_555
O6C Cu1 1_555 1_555
O6B Cu1A 1_555 1_555
O6A_2 Cu1C 1_555 1_555
O7A Cu1A 1_555 1_555
O7B Cu1B 1_555 1_555
O7C Cu1C 1_555 1_555
O8A Cu2A 1_555 1_555
O8B Cu2B 1_555 1_555
O8C Cu2C 1_555 1_555
O9A Na2 1_555 1_555
O9B Na2 1_555 1_555
O9C Na2 1_555 1_555
O10A Cu2B 1_555 1_555
O10B Cu2 1_555 1_555
O10C Cu2A 1_555 1_555
O11A Sm1A 1_555 1_555
O11B Sm1B 1_555 1_555
O11C Sm1C 1_555 1_555
O12A Cu2A 1_555 1_555
O12B Cu2B 1_555 1_555
O12C Cu2C 1_555 1_555
O13A Sm1A 1_555 1_555
O13B Sm1B 1_555 1_555
O13C Sm1C 1_555 1_555
H1A O13A 1_555 1_555
H1B O13B 1_555 1_555
H1C O13C 1_555 1_555
H2A O13A 1_555 1_555
H2B O13B 1_555 1_555
H2C O13C 1_555 1_555
O14A Sm1A 1_555 1_555
O14B Sm1B 1_555 1_555
O14C Sm1C 1_555 1_555
H3A O14A 1_555 1_555
H3B O14B 1_555 1_555
H3C O14C 1_555 1_555
H4A O14A 1_555 1_555
H4B O14B 1_555 1_555
H4C O14C 1_555 1_555
O15A Sm1A 1_555 1_555
O15B Sm1B 1_555 1_555
O15C Sm1C 1_555 1_555
H5A O15A 1_555 1_555
H5B O15B 1_555 1_555
H5C O15C 1_555 1_555
H6A O15A 1_555 1_555
H6B O15B 1_555 1_555
H6C O15C 1_555 1_555
O16A Sm1A 1_555 1_555
O16B Sm1B 1_555 1_555
O16C Sm1C 1_555 1_555
H7A O16A 1_555 1_555
H7B O16B 1_555 1_555
H7C O16C 1_555 1_555
H8A O16A 1_555 1_555
H8B O16B 1_555 1_555
H8C O16C 1_555 1_555
O17A Na1A 1_555 1_555
O17B Na1B 1_555 1_555
O17C Na1C 1_555 1_555
O18A Na1A 1_555 1_555
O18B Na1B 1_555 1_555
O18C Na1C 1_555 1_555
O19A Cl1A 1_555 1_555
O19B Cl1B 1_555 1_555
O19C Cl1C 1_555 1_555
O20A Cl1A 1_555 1_555
O20B Cl1B 1_555 1_555
O20C Cl1C 1_555 1_555
O21A Na1A 1_555 1_555
O21B Na1B 1_555 1_555
O21C Na1C 1_555 1_555
O22A Cl2A 1_555 1_555
O22B Cl2B 1_555 1_555
O22C Cl2C 1_555 1_555
O23A Cl2A 1_555 1_555
O23B Cl2B 1_555 1_555
O23C Cl2C 1_555 1_555
O24A Cl2A 1_555 1_555
O24B Cl2B 1_555 1_555
O24C Cl2C 1_555 1_555
O25A Cl3 1_555 1_555
O26A Cl3 1_555 1_555
O27A Na1A 1_555 1_555
O27B Na1B 1_555 1_555
O27C Na1C 1_555 1_555
H9A O27A 1_555 1_555
H9B O27B 1_555 1_555
H9C O27C 1_555 1_555
H10A O27A 1_555 1_555
H10B O27B 1_555 1_555
H10C O27C 1_555 1_555
O28B Na2 1_555 1_555
H11A O28 1_555 1_555
H11B O28B 1_555 1_555
H11C O28B 1_555 1_555
C1D O1D 1_555 1_555
C1A O1A 1_555 1_555
C1C O1C 1_555 1_555
C2D C1D 1_555 1_555
C2A C1A 1_555 1_555
C2C N1C 1_555 1_555
H16D C2D 1_555 1_555
H16A C2A 1_555 1_555
H16C C2C 1_555 1_555
H17D C2D 1_555 1_555
H17A C2A 1_555 1_555
H17C C2C 1_555 1_555
C3D O3D 1_555 1_555
C3A O3A 1_555 1_555
C3C O3C 1_555 1_555
C4D N1D 1_555 1_555
C4A N1A 1_555 1_555
C4C N1C 1_555 1_555
H18D C4D 1_555 1_555
H18A C4A 1_555 1_555
H18C C4C 1_555 1_555
H19D C4D 1_555 1_555
H19A C4A 1_555 1_555
H19C C4C 1_555 1_555
C5D O6D 1_555 1_555
C5A O5A 1_555 1_555
C5C O6C 1_555 1_555
C6D N1D 1_555 1_555
C6A N1A 1_555 1_555
C6C N1C 1_555 1_555
H20D C6D 1_555 1_555
H20A C6A 1_555 1_555
H20C C6C 1_555 1_555
H21D C6D 1_555 1_555
H21A C6A 1_555 1_555
H21C C6C 1_555 1_555
C7A O7A 1_555 1_555
C7B O7B 1_555 1_555
C7C O7C 1_555 1_555
C8A C7A 1_555 1_555
C8B C7B 1_555 1_555
C8C N2C 1_555 1_555
H22A C8A 1_555 1_555
H22B C8B 1_555 1_555
H22C C8C 1_555 1_555
H23A C8A 1_555 1_555
H23B C8B 1_555 1_555
H23C C8C 1_555 1_555
C9A O9A 1_555 1_555
C9B O9B 1_555 1_555
C9C O9C 1_555 1_555
C10A N2A 1_555 1_555
C10B N2B 1_555 1_555
C10C N2C 1_555 1_555
H24A C10A 1_555 1_555
H24B C10B 1_555 1_555
H24C C10C 1_555 1_555
H25A C10A 1_555 1_555
H25B C10B 1_555 1_555
H25C C10C 1_555 1_555
C11A O11A 1_555 1_555
C11B O11B 1_555 1_555
C11C O11C 1_555 1_555
C12A N2A 1_555 1_555
C12B N2B 1_555 1_555
C12C N2C 1_555 1_555
H26A C12A 1_555 1_555
H26B C12B 1_555 1_555
H26C C12C 1_555 1_555
H27A C12A 1_555 1_555
H27B C12B 1_555 1_555
H27C C12C 1_555 1_555
Na1 O3C 1_555 1_555
Na1 O10B 1_555 1_555
Cl1 O18 1_555 1_555
O1 Cu1B 1_555 1_555
O3 Cu1B 1_555 1_555
O6 Cu1B 1_555 1_555
O12 C11 1_555 1_555
C9 C10 1_555 1_555
C11 C12 1_555 1_555
Cu1C_2 O1A 1_555 1_555
Cu2A O9A 1_555 1_555
Cu2B O9B 1_555 1_555
Cu2C O9C 1_555 1_555
Na1A O8A 1_555 1_555
Na1A O10C 1_555 1_555
Na1B O8B 1_555 1_555
Na1B O10A 1_555 1_555
Na1C O3A_2 1_555 1_555
Na1C O8C 1_555 1_555
Cl1A O18A 1_555 1_555
Cl1B O18B 1_555 1_555
Cl1C O18C 1_555 1_555
O2D C1D 1_555 1_555
O2A C1A 1_555 1_555
O2C C1C 1_555 1_555
O4D C3D 1_555 1_555
O6A C5A 1_555 1_555
O8A C7A 1_555 1_555
O8B C7B 1_555 1_555
O8C C7C 1_555 1_555
O10A C9A 1_555 1_555
O10B C9B 1_555 1_555
O10C C9C 1_555 1_555
O12A C11A 1_555 1_555
O12B C11B 1_555 1_555
O12C C11C 1_555 1_555
C1C C2C 1_555 1_555
C3D C4D 1_555 1_555
C3A C4A 1_555 1_555
C3C C4C 1_555 1_555
C5D C6D 1_555 1_555
C5A C6A 1_555 1_555
C5C C6C 1_555 1_555
C7C C8C 1_555 1_555
C9A C10A 1_555 1_555
C9B C10B 1_555 1_555
C9C C10C 1_555 1_555
C11A C12A 1_555 1_555
C11B C12B 1_555 1_555
C11C C12C 1_555 1_555

#END
