
#######################################################################
#
#                 Cambridge Crystallographic Data Centre
#                                CCDC 
#
#######################################################################
#
# If this CIF has been generated from an entry in the Cambridge 
# Structural Database, then it will include bibliographic, chemical, 
# crystal, experimental, refinement or atomic coordinate data resulting 
# from the CCDC's data processing and validation procedures.
#
#######################################################################

data_RIGPII
_chemical_formula_moiety         '(C20 H16 Cu1 N5 O4)n'
_symmetry_cell_setting           monoclinic
_symmetry_space_group_name_H-M   'P 21/c'
_symmetry_Int_Tables_number      14
_space_group_name_Hall           '-P 2ybc'
loop_
_symmetry_equiv_pos_site_id
_symmetry_equiv_pos_as_xyz
1 x,y,z
2 -x,1/2+y,1/2-z
3 -x,-y,-z
4 x,1/2-y,1/2+z
_cell_length_a                   9.3990(19)
_cell_length_b                   9.848(2)
_cell_length_c                   21.834(4)
_cell_angle_alpha                90
_cell_angle_beta                 102.09(3)
_cell_angle_gamma                90
_cell_volume                     1976.16
loop_
_atom_site_label
_atom_site_type_symbol
_atom_site_fract_x
_atom_site_fract_y
_atom_site_fract_z
O1 O 0.6612(10) 0.1469(10) 0.2841(5)
H1 H 0.6268 0.0839 0.2993
H2 H 0.6205 0.1932 0.2509
N1 N 0.4725(11) 0.8634(15) 0.3573(7)
O2 O 0.5285(13) 0.8229(16) 0.3139(6)
O3 O 0.4993(17) 0.9471(17) 0.3827(13)
O4 O 0.3839(15) 0.7875(16) 0.3666(7)
Cu1 Cu 0.21073(13) 0.13988(13) 0.33778(5)
N2 N 0.3628(7) 0.2686(7) 0.3774(3)
N3 N 1.1017(8) 1.0181(7) 0.3911(3)
N4 N 1.1183(10) 0.4089(10) 0.7493(3)
N5 N 0.7824(7) 0.4833(7) 0.5350(3)
C1 C 0.4322(9) 0.2432(9) 0.4374(4)
H3 H 0.4037 0.1680 0.4576
C2 C 0.5437(9) 0.3241(8) 0.4698(4)
H4 H 0.5855 0.3042 0.5113
C3 C 0.5937(8) 0.4356(8) 0.4405(3)
C4 C 0.5218(9) 0.4606(9) 0.3785(4)
H5 H 0.5490 0.5340 0.3568
C5 C 0.4094(9) 0.3753(9) 0.3496(4)
H6 H 0.3641 0.3939 0.3083
C6 C 0.7197(8) 0.5209(8) 0.4747(3)
C7 C 0.8997(7) 0.5577(8) 0.5668(3)
C8 C 0.9540(7) 0.6664(7) 0.5406(3)
H7 H 1.0327 0.7140 0.5637
C9 C 0.8929(8) 0.7065(8) 0.4800(3)
C10 C 0.7712(8) 0.6343(8) 0.4470(4)
H8 H 0.7252 0.6617 0.4070
C11 C 0.9591(8) 0.8193(8) 0.4508(4)
C12 C 1.1058(9) 0.8523(8) 0.4719(4)
H9 H 1.1605 0.8083 0.5066
C13 C 1.1706(10) 0.9511(9) 0.4408(4)
H10 H 1.2684 0.9709 0.4561
C14 C 0.9606(10) 0.9919(10) 0.3716(4)
H11 H 0.9086 1.0416 0.3380
C15 C 0.8866(10) 0.8936(10) 0.3988(4)
H12 H 0.7886 0.8772 0.3823
C16 C 0.9734(8) 0.5082(8) 0.6308(3)
C17 C 0.9166(10) 0.4023(8) 0.6604(4)
H13 H 0.8291 0.3620 0.6413
C18 C 0.9909(12) 0.3567(9) 0.7187(4)
H14 H 0.9502 0.2861 0.7375
C19 C 1.1723(10) 0.5141(11) 0.7210(4)
H15 H 1.2597 0.5532 0.7412
C20 C 1.1033(9) 0.5656(9) 0.6637(4)
H16 H 1.1435 0.6393 0.6468
Cu1_2 Cu 1.21073(13) 1.13988(13) 0.33778(5)
Cu1C Cu 1.21073(13) 0.36012(13) 0.83778(5)
N3_2 N 0.1017(8) 0.0181(7) 0.3911(3)
N4C N 0.1183(10) 0.0911(10) 0.2493(3)
loop_
_geom_bond_atom_site_label_1
_geom_bond_atom_site_label_2
_geom_bond_site_symmetry_1
_geom_bond_site_symmetry_2
O1 H1 1_555 1_555
H2 O1 1_555 1_555
N1 O2 1_555 1_555
O3 N1 1_555 1_555
O4 N1 1_555 1_555
Cu1 N2 1_555 1_555
N2 C1 1_555 1_555
N3 C13 1_555 1_555
N4 C18 1_555 1_555
N5 C6 1_555 1_555
C1 H3 1_555 1_555
C2 C1 1_555 1_555
H4 C2 1_555 1_555
C3 C2 1_555 1_555
C4 C3 1_555 1_555
H5 C4 1_555 1_555
C5 N2 1_555 1_555
H6 C5 1_555 1_555
C6 C3 1_555 1_555
C7 N5 1_555 1_555
C8 C7 1_555 1_555
H7 C8 1_555 1_555
C9 C8 1_555 1_555
C10 C6 1_555 1_555
H8 C10 1_555 1_555
C11 C9 1_555 1_555
C12 C11 1_555 1_555
H9 C12 1_555 1_555
C13 C12 1_555 1_555
H10 C13 1_555 1_555
C14 N3 1_555 1_555
H11 C14 1_555 1_555
C15 C11 1_555 1_555
H12 C15 1_555 1_555
C16 C7 1_555 1_555
C17 C16 1_555 1_555
H13 C17 1_555 1_555
C18 C17 1_555 1_555
H14 C18 1_555 1_555
C19 N4 1_555 1_555
H15 C19 1_555 1_555
C20 C16 1_555 1_555
H16 C20 1_555 1_555
Cu1_2 N3 1_555 1_555
Cu1C N4 1_555 1_555
N3_2 Cu1 1_555 1_555
N4C Cu1 1_555 1_555
C4 C5 1_555 1_555
C9 C10 1_555 1_555
C14 C15 1_555 1_555
C19 C20 1_555 1_555

#END
