
#######################################################################
#
#                 Cambridge Crystallographic Data Centre
#                                CCDC 
#
#######################################################################
#
# If this CIF has been generated from an entry in the Cambridge 
# Structural Database, then it will include bibliographic, chemical, 
# crystal, experimental, refinement or atomic coordinate data resulting 
# from the CCDC's data processing and validation procedures.
#
#######################################################################

data_NANMEW
_chemical_formula_moiety         '(C84 H66 La4 Mg6 N12 O63)n'
_symmetry_cell_setting           hexagonal
_symmetry_space_group_name_H-M   'P 6/m c c'
_symmetry_Int_Tables_number      192
_space_group_name_Hall           '-P 6 2c'
loop_
_symmetry_equiv_pos_site_id
_symmetry_equiv_pos_as_xyz
1 x,y,z
2 -y,x-y,z
3 -x+y,-x,z
4 -x,-y,z
5 y,-x+y,z
6 x-y,x,z
7 y,x,1/2-z
8 x-y,-y,1/2-z
9 -x,-x+y,1/2-z
10 -y,-x,1/2-z
11 -x+y,y,1/2-z
12 x,x-y,1/2-z
13 -x,-y,-z
14 y,-x+y,-z
15 x-y,x,-z
16 x,y,-z
17 -y,x-y,-z
18 -x+y,-x,-z
19 -y,-x,1/2+z
20 -x+y,y,1/2+z
21 x,x-y,1/2+z
22 y,x,1/2+z
23 x-y,-y,1/2+z
24 -x,-x+y,1/2+z
_cell_length_a                   15.677(2)
_cell_length_b                   15.677(2)
_cell_length_c                   15.100(3)
_cell_angle_alpha                90
_cell_angle_beta                 90
_cell_angle_gamma                120
_cell_volume                     3213.91
loop_
_atom_site_label
_atom_site_type_symbol
_atom_site_fract_x
_atom_site_fract_y
_atom_site_fract_z
La1 La 0.6667 0.3333 0.2500
Mg1 Mg 0.5000 0.5000 0.0000
O1 O 0.61157(10) 0.55418(10) 0.09461(9)
O2 O 0.61656(10) 0.42149(9) 0.14062(9)
O3 O 0.48964(14) 0.36048(13) 0.0000
H1 H 0.5225 0.3648 0.0463
N1 N 0.76347(7) 0.52695(15) 0.2500
C1 C 0.86473(11) 0.7295(2) 0.2500
H2 H 0.8990 0.7980 0.2500
C2 C 0.78489(16) 0.67837(14) 0.19426(17)
H3 H 0.7650 0.7116 0.1560
C3 C 0.73531(13) 0.57639(13) 0.19694(12)
C4 C 0.64744(13) 0.51342(14) 0.13906(12)
La1C La 0.3333 0.6667 0.2500
La1L La 0.3333 0.6667 -0.2500
La1O La 0.6667 0.3333 -0.2500
La1E La 1.3334 0.6667 0.2500
La1N La 1.3334 0.6667 0.7500
La1Q La 0.6666 0.3333 0.7500
La1D La 0.3333 -0.3334 0.2500
La1M La 0.3333 -0.3334 -0.2500
Mg1G Mg 1.0000 0.5000 0.5000
Mg1A Mg 0.5000 0.0000 0.0000
Mg1F Mg 0.5000 0.5000 0.5000
Mg1B Mg 1.0000 0.5000 0.0000
Mg1H Mg 0.5000 0.0000 0.5000
Mg1G_2 Mg 0.0000 0.5000 0.5000
Mg1G_3 Mg 0.0000 0.5000 -0.5000
Mg1G_4 Mg 1.0000 0.5000 -0.5000
Mg1_2 Mg 1.5000 0.5000 0.0000
Mg1_3 Mg 1.5000 0.5000 1.0000
Mg1_4 Mg 0.5000 0.5000 1.0000
Mg1F_2 Mg 0.5000 -0.5000 0.5000
Mg1F_3 Mg 0.5000 -0.5000 -0.5000
Mg1F_4 Mg 0.5000 0.5000 -0.5000
O1J O 0.94261(14) 0.55418(10) 0.40539(9)
O1A O 0.44582(10) 0.05739(14) 0.09461(9)
O1I O 0.44582(10) 0.38843(10) 0.40539(9)
O1B O 0.94261(14) 0.38843(10) 0.09461(9)
O1K O 0.61157(10) 0.05739(14) 0.40539(9)
O1C O 0.38843(10) 0.44582(10) 0.09461(9)
O1G O 0.05739(14) 0.44582(10) 0.40539(9)
O1L O 0.38843(10) 0.44582(10) -0.09461(9)
O1V O 0.05739(14) 0.44582(10) -0.40539(9)
O1O O 0.61157(10) 0.55418(10) -0.09461(9)
O1S O 0.94261(14) 0.55418(10) -0.40539(9)
O1G_2 O 1.05739(14) 0.44582(10) 0.40539(9)
O1C_2 O 1.38843(10) 0.44582(10) 0.09461(9)
O1V_2 O 1.05739(14) 0.44582(10) 0.59461(9)
O1L_2 O 1.38843(10) 0.44582(10) 0.90539(9)
O1S_2 O 0.94261(14) 0.55418(10) 0.59461(9)
O1O_2 O 0.61157(10) 0.55418(10) 0.90539(9)
O1D O 0.55418(10) -0.05739(14) 0.09461(9)
O1F O 0.55418(10) -0.38843(10) 0.40539(9)
O1M O 0.55418(10) -0.05739(14) -0.09461(9)
O1U O 0.55418(10) -0.38843(10) -0.40539(9)
O1P O 0.44582(10) 0.05739(14) -0.09461(9)
O1R O 0.44582(10) 0.38843(10) -0.40539(9)
O1F_2 O 0.55418(10) 0.61157(10) 0.40539(9)
O1U_2 O 0.55418(10) 0.61157(10) 0.59461(9)
O1R_2 O 0.44582(10) 0.38843(10) 0.59461(9)
O1E O 1.05739(14) 0.61157(10) 0.09461(9)
O1N O 1.05739(14) 0.61157(10) -0.09461(9)
O1Q O 0.94261(14) 0.38843(10) -0.09461(9)
O1H O 0.38843(10) -0.05739(14) 0.40539(9)
O1W O 0.38843(10) -0.05739(14) 0.59461(9)
O1T O 0.61157(10) 0.05739(14) 0.59461(9)
O2J O 0.80493(13) 0.42149(9) 0.35938(9)
O2A O 0.57851(9) 0.19507(13) 0.14062(9)
O2I O 0.57851(9) 0.38344(10) 0.35938(9)
O2B O 0.80493(13) 0.38344(10) 0.14062(9)
O2K O 0.61656(10) 0.19507(13) 0.35938(9)
O2C O 0.38344(10) 0.57851(9) 0.14062(9)
O2G O 0.19507(13) 0.57851(9) 0.35938(9)
O2L O 0.38344(10) 0.57851(9) -0.14062(9)
O2V O 0.19507(13) 0.57851(9) -0.35938(9)
O2O O 0.61656(10) 0.42149(9) -0.14062(9)
O2S O 0.80493(13) 0.42149(9) -0.35938(9)
O2G_2 O 1.19507(13) 0.57851(9) 0.35938(9)
O2C_2 O 1.38344(10) 0.57851(9) 0.14062(9)
O2V_2 O 1.19507(13) 0.57851(9) 0.64062(9)
O2L_2 O 1.38344(10) 0.57851(9) 0.85938(9)
O2S_2 O 0.80493(13) 0.42149(9) 0.64062(9)
O2O_2 O 0.61656(10) 0.42149(9) 0.85938(9)
O2D O 0.42149(9) -0.19507(13) 0.14062(9)
O2F O 0.42149(9) -0.38344(10) 0.35938(9)
O2M O 0.42149(9) -0.19507(13) -0.14062(9)
O2U O 0.42149(9) -0.38344(10) -0.35938(9)
O2P O 0.57851(9) 0.19507(13) -0.14062(9)
O2R O 0.57851(9) 0.38344(10) -0.35938(9)
O2D_2 O 0.42149(9) 0.80493(13) 0.14062(9)
O2E O 0.19507(13) 0.61656(10) 0.14062(9)
O2F_2 O 0.42149(9) 0.61656(10) 0.35938(9)
O2H O 0.38344(10) 0.80493(13) 0.35938(9)
O2M_2 O 0.42149(9) 0.80493(13) -0.14062(9)
O2N O 0.19507(13) 0.61656(10) -0.14062(9)
O2U_2 O 0.42149(9) 0.61656(10) -0.35938(9)
O2W O 0.38344(10) 0.80493(13) -0.35938(9)
O2Q O 0.80493(13) 0.38344(10) -0.14062(9)
O2T O 0.61656(10) 0.19507(13) -0.35938(9)
O3C O 0.51036(14) 0.63952(13) 0.0000
O3J O 0.87084(19) 0.36048(13) 0.5000
O3G O 1.12916(19) 0.63952(13) 0.5000
O3A O 0.63952(13) 0.12916(19) 0.0000
O3D O 0.36048(13) -0.12916(19) 0.0000
O3I O 0.63952(13) 0.51036(14) 0.5000
O3F O 0.36048(13) 0.48964(14) 0.5000
O3B O 0.87084(19) 0.51036(14) 0.0000
O3E O 1.12916(19) 0.48964(14) 0.0000
O3K O 0.48964(14) 0.12916(19) 0.5000
O3H O 0.51036(14) -0.12916(19) 0.5000
H1O H 0.5225 0.3648 -0.0463
H1C H 0.4775 0.6352 0.0463
H1L H 0.4775 0.6352 -0.0463
H1J H 0.8423 0.3648 0.4537
H1S H 0.8423 0.3648 0.5463
H1G H 1.1577 0.6352 0.4537
H1V H 1.1577 0.6352 0.5463
H1A H 0.6352 0.1577 0.0463
H1P H 0.6352 0.1577 -0.0463
H1D H 0.3648 -0.1577 0.0463
H1M H 0.3648 -0.1577 -0.0463
H1I H 0.6352 0.4775 0.4537
H1R H 0.6352 0.4775 0.5463
H1F H 0.3648 0.5225 0.4537
H1U H 0.3648 0.5225 0.5463
H1B H 0.8423 0.4775 0.0463
H1Q H 0.8423 0.4775 -0.0463
H1E H 1.1577 0.5225 0.0463
H1N H 1.1577 0.5225 -0.0463
H1K H 0.5225 0.1577 0.4537
H1T H 0.5225 0.1577 0.5463
H1H H 0.4775 -0.1577 0.4537
H1W H 0.4775 -0.1577 0.5463
N1A N 0.47305(15) 0.23652(17) 0.2500
N1B N 0.76348(17) 0.23653(7) 0.2500
N1C N 0.23653(7) 0.47305(15) 0.2500
N1L N 0.23653(7) 0.47305(15) -0.2500
N1O N 0.76347(7) 0.52695(15) -0.2500
N1G N 1.23652(17) 0.47305(15) 0.2500
N1V N 1.23652(17) 0.47305(15) 0.7500
N1S N 0.76348(17) 0.52695(15) 0.7500
N1D N 0.52695(15) -0.23652(17) 0.2500
N1M N 0.52695(15) -0.23652(17) -0.2500
N1P N 0.47305(15) 0.23652(17) -0.2500
N1D_2 N 0.52695(15) 0.76348(17) 0.2500
N1E N 0.23652(17) 0.76347(7) 0.2500
N1M_2 N 0.52695(15) 0.76348(17) -0.2500
N1N N 0.23652(17) 0.76347(7) -0.2500
N1Q N 0.76348(17) 0.23653(7) -0.2500
C1A C 0.2705(2) 0.13523(23) 0.2500
C1B C 0.86477(23) 0.13527(11) 0.2500
C1C C 0.13527(11) 0.2705(2) 0.2500
C1L C 0.13527(11) 0.2705(2) -0.2500
C1O C 0.86473(11) 0.7295(2) -0.2500
C1G C 1.13523(23) 0.2705(2) 0.2500
C1V C 1.13523(23) 0.2705(2) 0.7500
C1S C 0.86477(23) 0.7295(2) 0.7500
C1D C 0.7295(2) -0.13523(23) 0.2500
C1M C 0.7295(2) -0.13523(23) -0.2500
C1P C 0.2705(2) 0.13523(23) -0.2500
H2A H 0.2020 0.1010 0.2500
H2B H 0.8990 0.1010 0.2500
H2C H 0.1010 0.2020 0.2500
H2L H 0.1010 0.2020 -0.2500
H2O H 0.8990 0.7980 -0.2500
H2C_2 H 1.1010 0.2020 0.2500
H2L_2 H 1.1010 0.2020 0.7500
H2O_2 H 0.8990 0.7980 0.7500
H2D H 0.7980 -0.1010 0.2500
H2M H 0.7980 -0.1010 -0.2500
H2P H 0.2020 0.1010 -0.2500
C2J C 0.89348(21) 0.67837(14) 0.30574(17)
C2A C 0.32163(14) 0.10652(21) 0.19426(17)
C2I C 0.32163(14) 0.21511(16) 0.30574(17)
C2B C 0.89348(21) 0.21511(16) 0.19426(17)
C2K C 0.78489(16) 0.10652(21) 0.30574(17)
C2C C 0.21511(16) 0.32163(14) 0.19426(17)
C2G C 0.10652(21) 0.32163(14) 0.30574(17)
C2L C 0.21511(16) 0.32163(14) -0.19426(17)
C2V C 0.10652(21) 0.32163(14) -0.30574(17)
C2O C 0.78489(16) 0.67837(14) -0.19426(17)
C2S C 0.89348(21) 0.67837(14) -0.30574(17)
C2G_2 C 1.10652(21) 0.32163(14) 0.30574(17)
C2C_2 C 1.21511(16) 0.32163(14) 0.19426(17)
C2V_2 C 1.10652(21) 0.32163(14) 0.69426(17)
C2L_2 C 1.21511(16) 0.32163(14) 0.80574(17)
C2S_2 C 0.89348(21) 0.67837(14) 0.69426(17)
C2O_2 C 0.78489(16) 0.67837(14) 0.80574(17)
C2D C 0.67837(14) -0.10652(21) 0.19426(17)
C2F C 0.67837(14) -0.21511(16) 0.30574(17)
C2M C 0.67837(14) -0.10652(21) -0.19426(17)
C2U C 0.67837(14) -0.21511(16) -0.30574(17)
C2P C 0.32163(14) 0.10652(21) -0.19426(17)
C2R C 0.32163(14) 0.21511(16) -0.30574(17)
H3J H 0.9466 0.7116 0.3440
H3A H 0.2884 0.0534 0.1560
H3I H 0.2884 0.2350 0.3440
H3B H 0.9466 0.2350 0.1560
H3K H 0.7650 0.0534 0.3440
H3C H 0.2350 0.2884 0.1560
H3G H 0.0534 0.2884 0.3440
H3L H 0.2350 0.2884 -0.1560
H3V H 0.0534 0.2884 -0.3440
H3O H 0.7650 0.7116 -0.1560
H3S H 0.9466 0.7116 -0.3440
H3G_2 H 1.0534 0.2884 0.3440
H3C_2 H 1.2350 0.2884 0.1560
H3V_2 H 1.0534 0.2884 0.6560
H3L_2 H 1.2350 0.2884 0.8440
H3S_2 H 0.9466 0.7116 0.6560
H3O_2 H 0.7650 0.7116 0.8440
H3D H 0.7116 -0.0534 0.1560
H3F H 0.7116 -0.2350 0.3440
H3M H 0.7116 -0.0534 -0.1560
H3U H 0.7116 -0.2350 -0.3440
H3P H 0.2884 0.0534 -0.1560
H3R H 0.2884 0.2350 -0.3440
C3J C 0.84108(18) 0.57639(13) 0.30306(12)
C3A C 0.42361(13) 0.15892(18) 0.19694(12)
C3I C 0.42361(13) 0.26469(13) 0.30306(12)
C3B C 0.84108(18) 0.26469(13) 0.19694(12)
C3K C 0.73531(13) 0.15892(18) 0.30306(12)
C3C C 0.26469(13) 0.42361(13) 0.19694(12)
C3G C 0.15892(18) 0.42361(13) 0.30306(12)
C3L C 0.26469(13) 0.42361(13) -0.19694(12)
C3V C 0.15892(18) 0.42361(13) -0.30306(12)
C3O C 0.73531(13) 0.57639(13) -0.19694(12)
C3S C 0.84108(18) 0.57639(13) -0.30306(12)
C3G_2 C 1.15892(18) 0.42361(13) 0.30306(12)
C3C_2 C 1.26469(13) 0.42361(13) 0.19694(12)
C3V_2 C 1.15892(18) 0.42361(13) 0.69694(12)
C3L_2 C 1.26469(13) 0.42361(13) 0.80306(12)
C3S_2 C 0.84108(18) 0.57639(13) 0.69694(12)
C3O_2 C 0.73531(13) 0.57639(13) 0.80306(12)
C3D C 0.57639(13) -0.15892(18) 0.19694(12)
C3F C 0.57639(13) -0.26469(13) 0.30306(12)
C3M C 0.57639(13) -0.15892(18) -0.19694(12)
C3U C 0.57639(13) -0.26469(13) -0.30306(12)
C3P C 0.42361(13) 0.15892(18) -0.19694(12)
C3R C 0.42361(13) 0.26469(13) -0.30306(12)
C4J C 0.86598(19) 0.51342(14) 0.36094(12)
C4A C 0.48658(14) 0.13402(19) 0.13906(12)
C4I C 0.48658(14) 0.35256(13) 0.36094(12)
C4B C 0.86598(19) 0.35256(13) 0.13906(12)
C4K C 0.64744(13) 0.13402(19) 0.36094(12)
C4C C 0.35256(13) 0.48658(14) 0.13906(12)
C4G C 0.13402(19) 0.48658(14) 0.36094(12)
C4L C 0.35256(13) 0.48658(14) -0.13906(12)
C4V C 0.13402(19) 0.48658(14) -0.36094(12)
C4O C 0.64744(13) 0.51342(14) -0.13906(12)
C4S C 0.86598(19) 0.51342(14) -0.36094(12)
C4G_2 C 1.13402(19) 0.48658(14) 0.36094(12)
C4C_2 C 1.35256(13) 0.48658(14) 0.13906(12)
C4V_2 C 1.13402(19) 0.48658(14) 0.63906(12)
C4L_2 C 1.35256(13) 0.48658(14) 0.86094(12)
C4S_2 C 0.86598(19) 0.51342(14) 0.63906(12)
C4O_2 C 0.64744(13) 0.51342(14) 0.86094(12)
C4D C 0.51342(14) -0.13402(19) 0.13906(12)
C4F C 0.51342(14) -0.35256(13) 0.36094(12)
C4M C 0.51342(14) -0.13402(19) -0.13906(12)
C4U C 0.51342(14) -0.35256(13) -0.36094(12)
C4P C 0.48658(14) 0.13402(19) -0.13906(12)
C4R C 0.48658(14) 0.35256(13) -0.36094(12)
O4 O 0.2675(7) 0.2312(7) 0.0000
O5 O -0.0000 -0.0000 0.129(3)
O6 O 0.098(2) 0.1330(18) 0.0000
loop_
_geom_bond_atom_site_label_1
_geom_bond_atom_site_label_2
_geom_bond_site_symmetry_1
_geom_bond_site_symmetry_2
La1 O2 1_555 1_555
Mg1 O1 1_555 1_555
O1 C4 1_555 1_555
O2 C4 1_555 1_555
O3 Mg1 1_555 1_555
H1 O3 1_555 1_555
N1 La1 1_555 1_555
C1 H2 1_555 1_555
C2 C1 1_555 1_555
H3 C2 1_555 1_555
C3 N1 1_555 1_555
C4 C3 1_555 1_555
La1C O2C 1_555 1_555
La1L O2L 1_555 1_555
La1O O2O 1_555 1_555
La1E O2G_2 1_555 1_555
La1N O2V_2 1_555 1_555
La1Q O2S_2 1_555 1_555
La1D O2D 1_555 1_555
La1M O2M 1_555 1_555
Mg1G O1J 1_555 1_555
Mg1A O1A 1_555 1_555
Mg1F O1I 1_555 1_555
Mg1B O1B 1_555 1_555
Mg1H O1K 1_555 1_555
Mg1G_2 O1G 1_555 1_555
Mg1G_3 O1V 1_555 1_555
Mg1G_4 O1S 1_555 1_555
Mg1_2 O1C_2 1_555 1_555
Mg1_3 O1L_2 1_555 1_555
Mg1_4 O1O_2 1_555 1_555
Mg1F_2 O1F 1_555 1_555
Mg1F_3 O1U 1_555 1_555
Mg1F_4 O1R 1_555 1_555
O1J C4J 1_555 1_555
O1A C4A 1_555 1_555
O1I C4I 1_555 1_555
O1B C4B 1_555 1_555
O1K C4K 1_555 1_555
O1C Mg1 1_555 1_555
O1G C4G 1_555 1_555
O1L Mg1 1_555 1_555
O1V C4V 1_555 1_555
O1O Mg1 1_555 1_555
O1S C4S 1_555 1_555
O1G_2 Mg1G 1_555 1_555
O1C_2 C4C_2 1_555 1_555
O1V_2 Mg1G 1_555 1_555
O1L_2 C4L_2 1_555 1_555
O1S_2 Mg1G 1_555 1_555
O1O_2 C4O_2 1_555 1_555
O1D Mg1A 1_555 1_555
O1F C4F 1_555 1_555
O1M Mg1A 1_555 1_555
O1U C4U 1_555 1_555
O1P Mg1A 1_555 1_555
O1R C4R 1_555 1_555
O1F_2 Mg1F 1_555 1_555
O1U_2 Mg1F 1_555 1_555
O1R_2 Mg1F 1_555 1_555
O1E Mg1B 1_555 1_555
O1N Mg1B 1_555 1_555
O1Q Mg1B 1_555 1_555
O1H Mg1H 1_555 1_555
O1W Mg1H 1_555 1_555
O1T Mg1H 1_555 1_555
O2J La1 1_555 1_555
O2A La1 1_555 1_555
O2I La1 1_555 1_555
O2B La1 1_555 1_555
O2K La1 1_555 1_555
O2C C4C 1_555 1_555
O2G La1C 1_555 1_555
O2L C4L 1_555 1_555
O2V La1L 1_555 1_555
O2O C4O 1_555 1_555
O2S La1O 1_555 1_555
O2G_2 C4G_2 1_555 1_555
O2C_2 La1E 1_555 1_555
O2V_2 C4V_2 1_555 1_555
O2L_2 La1N 1_555 1_555
O2S_2 C4S_2 1_555 1_555
O2O_2 La1Q 1_555 1_555
O2D C4D 1_555 1_555
O2F La1D 1_555 1_555
O2M C4M 1_555 1_555
O2U La1M 1_555 1_555
O2P La1O 1_555 1_555
O2R La1O 1_555 1_555
O2D_2 La1C 1_555 1_555
O2E La1C 1_555 1_555
O2F_2 La1C 1_555 1_555
O2H La1C 1_555 1_555
O2M_2 La1L 1_555 1_555
O2N La1L 1_555 1_555
O2U_2 La1L 1_555 1_555
O2W La1L 1_555 1_555
O2Q La1O 1_555 1_555
O2T La1O 1_555 1_555
O3C Mg1 1_555 1_555
O3J Mg1G 1_555 1_555
O3G Mg1G 1_555 1_555
O3A Mg1A 1_555 1_555
O3D Mg1A 1_555 1_555
O3I Mg1F 1_555 1_555
O3F Mg1F 1_555 1_555
O3B Mg1B 1_555 1_555
O3E Mg1B 1_555 1_555
O3K Mg1H 1_555 1_555
O3H Mg1H 1_555 1_555
H1O O3 1_555 1_555
H1C O3C 1_555 1_555
H1L O3C 1_555 1_555
H1J O3J 1_555 1_555
H1S O3J 1_555 1_555
H1G O3G 1_555 1_555
H1V O3G 1_555 1_555
H1A O3A 1_555 1_555
H1P O3A 1_555 1_555
H1D O3D 1_555 1_555
H1M O3D 1_555 1_555
H1I O3I 1_555 1_555
H1R O3I 1_555 1_555
H1F O3F 1_555 1_555
H1U O3F 1_555 1_555
H1B O3B 1_555 1_555
H1Q O3B 1_555 1_555
H1E O3E 1_555 1_555
H1N O3E 1_555 1_555
H1K O3K 1_555 1_555
H1T O3K 1_555 1_555
H1H O3H 1_555 1_555
H1W O3H 1_555 1_555
N1A La1 1_555 1_555
N1B La1 1_555 1_555
N1C La1C 1_555 1_555
N1L La1L 1_555 1_555
N1O La1O 1_555 1_555
N1G La1E 1_555 1_555
N1V La1N 1_555 1_555
N1S La1Q 1_555 1_555
N1D La1D 1_555 1_555
N1M La1M 1_555 1_555
N1P La1O 1_555 1_555
N1D_2 La1C 1_555 1_555
N1E La1C 1_555 1_555
N1M_2 La1L 1_555 1_555
N1N La1L 1_555 1_555
N1Q La1O 1_555 1_555
C1A H2A 1_555 1_555
C1B H2B 1_555 1_555
C1C H2C 1_555 1_555
C1L H2L 1_555 1_555
C1O H2O 1_555 1_555
C1G H2C_2 1_555 1_555
C1V H2L_2 1_555 1_555
C1S H2O_2 1_555 1_555
C1D H2D 1_555 1_555
C1M H2M 1_555 1_555
C1P H2P 1_555 1_555
C2J C1 1_555 1_555
C2A C1A 1_555 1_555
C2I C1A 1_555 1_555
C2B C1B 1_555 1_555
C2K C1B 1_555 1_555
C2C C1C 1_555 1_555
C2G C1C 1_555 1_555
C2L C1L 1_555 1_555
C2V C1L 1_555 1_555
C2O C1O 1_555 1_555
C2S C1O 1_555 1_555
C2G_2 C1G 1_555 1_555
C2C_2 C1G 1_555 1_555
C2V_2 C1V 1_555 1_555
C2L_2 C1V 1_555 1_555
C2S_2 C1S 1_555 1_555
C2O_2 C1S 1_555 1_555
C2D C1D 1_555 1_555
C2F C1D 1_555 1_555
C2M C1M 1_555 1_555
C2U C1M 1_555 1_555
C2P C1P 1_555 1_555
C2R C1P 1_555 1_555
H3J C2J 1_555 1_555
H3A C2A 1_555 1_555
H3I C2I 1_555 1_555
H3B C2B 1_555 1_555
H3K C2K 1_555 1_555
H3C C2C 1_555 1_555
H3G C2G 1_555 1_555
H3L C2L 1_555 1_555
H3V C2V 1_555 1_555
H3O C2O 1_555 1_555
H3S C2S 1_555 1_555
H3G_2 C2G_2 1_555 1_555
H3C_2 C2C_2 1_555 1_555
H3V_2 C2V_2 1_555 1_555
H3L_2 C2L_2 1_555 1_555
H3S_2 C2S_2 1_555 1_555
H3O_2 C2O_2 1_555 1_555
H3D C2D 1_555 1_555
H3F C2F 1_555 1_555
H3M C2M 1_555 1_555
H3U C2U 1_555 1_555
H3P C2P 1_555 1_555
H3R C2R 1_555 1_555
C3J N1 1_555 1_555
C3A N1A 1_555 1_555
C3I N1A 1_555 1_555
C3B N1B 1_555 1_555
C3K N1B 1_555 1_555
C3C N1C 1_555 1_555
C3G N1C 1_555 1_555
C3L N1L 1_555 1_555
C3V N1L 1_555 1_555
C3O N1O 1_555 1_555
C3S N1O 1_555 1_555
C3G_2 N1G 1_555 1_555
C3C_2 N1G 1_555 1_555
C3V_2 N1V 1_555 1_555
C3L_2 N1V 1_555 1_555
C3S_2 N1S 1_555 1_555
C3O_2 N1S 1_555 1_555
C3D N1D 1_555 1_555
C3F N1D 1_555 1_555
C3M N1M 1_555 1_555
C3U N1M 1_555 1_555
C3P N1P 1_555 1_555
C3R N1P 1_555 1_555
C4J O2J 1_555 1_555
C4A O2A 1_555 1_555
C4I O2I 1_555 1_555
C4B O2B 1_555 1_555
C4K O2K 1_555 1_555
C4C O1C 1_555 1_555
C4G O2G 1_555 1_555
C4L O1L 1_555 1_555
C4V O2V 1_555 1_555
C4O O1O 1_555 1_555
C4S O2S 1_555 1_555
C4G_2 O1G_2 1_555 1_555
C4C_2 O2C_2 1_555 1_555
C4V_2 O1V_2 1_555 1_555
C4L_2 O2L_2 1_555 1_555
C4S_2 O1S_2 1_555 1_555
C4O_2 O2O_2 1_555 1_555
C4D O1D 1_555 1_555
C4F O2F 1_555 1_555
C4M O1M 1_555 1_555
C4U O2U 1_555 1_555
C4P O1P 1_555 1_555
C4R O2R 1_555 1_555
C2 C3 1_555 1_555
O2P C4P 1_555 1_555
C2J C3J 1_555 1_555
C2A C3A 1_555 1_555
C2I C3I 1_555 1_555
C2B C3B 1_555 1_555
C2K C3K 1_555 1_555
C2C C3C 1_555 1_555
C2G C3G 1_555 1_555
C2L C3L 1_555 1_555
C2V C3V 1_555 1_555
C2O C3O 1_555 1_555
C2S C3S 1_555 1_555
C2G_2 C3G_2 1_555 1_555
C2C_2 C3C_2 1_555 1_555
C2V_2 C3V_2 1_555 1_555
C2L_2 C3L_2 1_555 1_555
C2S_2 C3S_2 1_555 1_555
C2O_2 C3O_2 1_555 1_555
C2D C3D 1_555 1_555
C2F C3F 1_555 1_555
C2M C3M 1_555 1_555
C2U C3U 1_555 1_555
C2P C3P 1_555 1_555
C2R C3R 1_555 1_555
C3J C4J 1_555 1_555
C3A C4A 1_555 1_555
C3I C4I 1_555 1_555
C3B C4B 1_555 1_555
C3K C4K 1_555 1_555
C3C C4C 1_555 1_555
C3G C4G 1_555 1_555
C3L C4L 1_555 1_555
C3V C4V 1_555 1_555
C3O C4O 1_555 1_555
C3S C4S 1_555 1_555
C3G_2 C4G_2 1_555 1_555
C3C_2 C4C_2 1_555 1_555
C3V_2 C4V_2 1_555 1_555
C3L_2 C4L_2 1_555 1_555
C3S_2 C4S_2 1_555 1_555
C3O_2 C4O_2 1_555 1_555
C3D C4D 1_555 1_555
C3F C4F 1_555 1_555
C3M C4M 1_555 1_555
C3U C4U 1_555 1_555
C3P C4P 1_555 1_555
C3R C4R 1_555 1_555

#END
