
#######################################################################
#
#                 Cambridge Crystallographic Data Centre
#                                CCDC 
#
#######################################################################
#
# If this CIF has been generated from an entry in the Cambridge 
# Structural Database, then it will include bibliographic, chemical, 
# crystal, experimental, refinement or atomic coordinate data resulting 
# from the CCDC's data processing and validation procedures.
#
#######################################################################

data_QAXHAA
_chemical_formula_moiety         'C14 H30 Cl10 N2 Na4 O8 Ru3 S3'
_symmetry_cell_setting           trigonal
_symmetry_space_group_name_H-M   'P 31 2 1'
_symmetry_Int_Tables_number      152
_space_group_name_Hall           'P 31 2"'
loop_
_symmetry_equiv_pos_site_id
_symmetry_equiv_pos_as_xyz
1 x,y,z
2 -y,x-y,1/3+z
3 -x+y,-x,2/3+z
4 y,x,-z
5 x-y,-y,2/3-z
6 -x,-x+y,1/3-z
_cell_length_a                   13.1432(12)
_cell_length_b                   13.1432(12)
_cell_length_c                   19.6099(18)
_cell_angle_alpha                90
_cell_angle_beta                 90
_cell_angle_gamma                120
_cell_volume                     2933.65
loop_
_atom_site_label
_atom_site_type_symbol
_atom_site_fract_x
_atom_site_fract_y
_atom_site_fract_z
Ru1 Ru -0.38856(5) -0.46643(5) -1.19275(3)
Cl1 Cl -0.33202(17) -0.58169(23) -1.25655(9)
Cl2 Cl -0.58638(17) -0.61562(17) -1.19905(9)
Cl3 Cl -0.44442(18) -0.34898(16) -1.13080(10)
Cl4 Cl -0.19116(18) -0.31626(25) -1.19169(10)
Na1 Na -0.0857(3) -0.4441(4) -1.26520(14)
S1 S -0.37208(17) -0.5407(2) -1.09020(9)
O1 O -0.4772(5) -0.5849(5) -1.0455(3)
O2 O -0.0252(9) -0.2721(9) -1.3458(7)
N1 N -0.4053(7) -0.3869(8) -1.2831(4)
C1 C -0.2491(9) -0.4372(17) -1.0416(5)
C2 C -0.3427(15) -0.6585(15) -1.0979(6)
C3 C -0.4610(6) -0.4550(9) -1.3385(4)
C4 C -0.4734(7) -0.4057(11) -1.3974(4)
C5 C -0.4293(7) -0.2868(11) -1.4004(4)
C6 C -0.3735(7) -0.2181(9) -1.3445(5)
C7 C -0.3623(7) -0.2698(10) -1.2864(4)
H1 H -0.2463 -0.4722 -0.9997
H2 H -0.2565 -0.3702 -1.0325
H3 H -0.1790 -0.4142 -1.0665
H4 H -0.3368 -0.6854 -1.0539
H5 H -0.4049 -0.7209 -1.1224
H6 H -0.2709 -0.6321 -1.1218
H7 H -0.4916 -0.5358 -1.3364
H8 H 0.0215 -0.1965 -1.3261
H9 H -0.0864 -0.2730 -1.3721
H10 H -0.5105 -0.4520 -1.4353
H11 H -0.4383 -0.2527 -1.4397
H12 H -0.3430 -0.1374 -1.3460
H13 H -0.3251 -0.2228 -1.2486
Ru1D Ru -0.92213(7) -0.53357(5) -1.14058(3)
Ru1D_2 Ru 0.07787(7) -0.53357(5) -1.14058(3)
Cl1D Cl -0.75033(29) -0.41831(23) -1.07678(9)
Cl2D Cl 0.02924(24) -0.38438(17) -1.13428(9)
Cl2D_2 Cl -0.97076(24) -0.38438(17) -1.13428(9)
Cl3D Cl -0.09544(24) -0.65102(16) -1.20253(10)
Cl3D_2 Cl -1.09544(24) -0.65102(16) -1.20253(10)
Cl4D Cl -0.87490(31) -0.68374(25) -1.14164(10)
Na1D Na -0.6416(5) -0.5559(4) -1.06813(14)
Na1A Na -0.5559(4) -0.6416(5) -0.93187(14)
Na1E Na 0.0857(3) -0.3584(5) -1.40147(14)
S1D S 0.16862(26) -0.4593(2) -1.24313(9)
S1D_2 S -0.83138(26) -0.4593(2) -1.24313(9)
O1D O 0.1077(7) -0.4151(5) -1.2878(3)
O1B O -0.1077(7) -0.5228(5) -1.3788(3)
O1C O -0.5849(5) -0.4772(5) -0.9545(3)
O2E O 0.0252(9) -0.2469(13) -1.3209(7)
O2D O -0.7531(13) -0.7279(9) -0.9875(7)
O2A O -0.7279(9) -0.7531(13) -1.0125(7)
N1D N -1.0184(11) -0.6131(8) -1.0502(4)
C1D C 0.1881(19) -0.5628(17) -1.2917(5)
C2D C 0.3158(21) -0.3415(15) -1.2354(6)
C3D C -1.0060(11) -0.5450(9) -0.9948(4)
C4D C -1.0677(13) -0.5943(11) -0.9359(4)
C5D C -1.1425(13) -0.7132(11) -0.9329(4)
C6D C -1.1554(11) -0.7819(9) -0.9888(5)
C7D C -1.0925(12) -0.7302(10) -1.0469(4)
H1D H 0.2259 -0.5278 -1.3336
H2D H 0.1137 -0.6298 -1.3008
H3D H 0.2352 -0.5858 -1.2668
H4D H 0.3486 -0.3146 -1.2794
H5D H 0.3160 -0.2791 -1.2109
H6D H 0.3612 -0.3679 -1.2115
H7D H -0.9558 -0.4642 -0.9969
H8E H -0.0215 -0.2180 -1.3406
H8D H -0.7820 -0.8035 -1.0072
H8A H -0.8035 -0.7820 -0.9928
H9E H 0.0864 -0.1866 -1.2946
H9D H -0.8134 -0.7270 -0.9612
H9A H -0.7270 -0.8134 -1.0388
H10D H -1.0585 -0.5480 -0.8980
H11D H -1.1856 -0.7473 -0.8936
H12D H -1.2056 -0.8626 -0.9873
H13D H -1.1023 -0.7772 -1.0847
loop_
_geom_bond_atom_site_label_1
_geom_bond_atom_site_label_2
_geom_bond_site_symmetry_1
_geom_bond_site_symmetry_2
Ru1 Cl1 1_555 1_555
Cl1 Na1 1_555 1_555
Cl2 Ru1 1_555 1_555
Cl3 Ru1 1_555 1_555
Cl4 Ru1 1_555 1_555
Na1 Cl4 1_555 1_555
S1 Ru1 1_555 1_555
O1 S1 1_555 1_555
O2 Na1 1_555 1_555
N1 Ru1 1_555 1_555
C1 S1 1_555 1_555
C2 S1 1_555 1_555
C3 N1 1_555 1_555
C4 C3 1_555 1_555
C5 C4 1_555 1_555
C6 C5 1_555 1_555
C7 N1 1_555 1_555
H1 C1 1_555 1_555
H2 C1 1_555 1_555
H3 C1 1_555 1_555
H4 C2 1_555 1_555
H5 C2 1_555 1_555
H6 C2 1_555 1_555
H7 C3 1_555 1_555
H8 O2 1_555 1_555
H9 O2 1_555 1_555
H10 C4 1_555 1_555
H11 C5 1_555 1_555
H12 C6 1_555 1_555
H13 C7 1_555 1_555
Ru1D Cl1D 1_555 1_555
Ru1D_2 Cl2D 1_555 1_555
Cl1D Na1D 1_555 1_555
Cl2D Na1 1_555 1_555
Cl2D_2 Ru1D 1_555 1_555
Cl3D Na1 1_555 1_555
Cl3D_2 Ru1D 1_555 1_555
Cl4D Ru1D 1_555 1_555
Na1D Cl2 1_555 1_555
Na1A O1 1_555 1_555
Na1E O2 1_555 1_555
S1D Ru1D_2 1_555 1_555
S1D_2 Ru1D 1_555 1_555
O1D Na1 1_555 1_555
O1B Na1 1_555 1_555
O1C Na1D 1_555 1_555
O2E Na1 1_555 1_555
O2D Na1D 1_555 1_555
O2A Na1D 1_555 1_555
N1D Ru1D 1_555 1_555
C1D S1D 1_555 1_555
C2D S1D 1_555 1_555
C3D N1D 1_555 1_555
C4D C3D 1_555 1_555
C5D C4D 1_555 1_555
C6D C5D 1_555 1_555
C7D N1D 1_555 1_555
H1D C1D 1_555 1_555
H2D C1D 1_555 1_555
H3D C1D 1_555 1_555
H4D C2D 1_555 1_555
H5D C2D 1_555 1_555
H6D C2D 1_555 1_555
H7D C3D 1_555 1_555
H8E O2 1_555 1_555
H8D O2D 1_555 1_555
H8A O2D 1_555 1_555
H9E O2E 1_555 1_555
H9D O2D 1_555 1_555
H9A O2A 1_555 1_555
H10D C4D 1_555 1_555
H11D C5D 1_555 1_555
H12D C6D 1_555 1_555
H13D C7D 1_555 1_555
Cl3 Na1D 1_555 1_555
O1 Na1D 1_555 1_555
O2 O2E 1_555 1_555
C6 C7 1_555 1_555
H8 O2E 1_555 1_555
Ru1D_2 Cl3D 1_555 1_555
Cl4D Na1D 1_555 1_555
Na1A O1C 1_555 1_555
Na1A O2D 1_555 1_555
Na1A O2A 1_555 1_555
Na1E O1D 1_555 1_555
Na1E O1B 1_555 1_555
Na1E O2E 1_555 1_555
S1D O1D 1_555 1_555
O2E H8E 1_555 1_555
O2D O2A 1_555 1_555
O2A H8D 1_555 1_555
O2A H8A 1_555 1_555
C6D C7D 1_555 1_555

#END
