
#######################################################################
#
#                 Cambridge Crystallographic Data Centre
#                                CCDC 
#
#######################################################################
#
# If this CIF has been generated from an entry in the Cambridge 
# Structural Database, then it will include bibliographic, chemical, 
# crystal, experimental, refinement or atomic coordinate data resulting 
# from the CCDC's data processing and validation procedures.
#
#######################################################################

data_IYUCIQ
_chemical_formula_moiety         '(C48 H36 Dy2 N12 O15)n'
_symmetry_cell_setting           monoclinic
_symmetry_space_group_name_H-M   'P 21/c'
_symmetry_Int_Tables_number      14
_space_group_name_Hall           '-P 2ybc'
loop_
_symmetry_equiv_pos_site_id
_symmetry_equiv_pos_as_xyz
1 x,y,z
2 -x,1/2+y,1/2-z
3 -x,-y,-z
4 x,1/2-y,1/2+z
_cell_length_a                   29.162(4)
_cell_length_b                   21.924(2)
_cell_length_c                   14.955(2)
_cell_angle_alpha                90
_cell_angle_beta                 103.380(7)
_cell_angle_gamma                90
_cell_volume                     9301.92
loop_
_atom_site_label
_atom_site_type_symbol
_atom_site_fract_x
_atom_site_fract_y
_atom_site_fract_z
Dy1 Dy 0.23540(2) 0.75204(2) 0.32745(3)
Dy2 Dy 0.73402(2) 0.26331(2) 0.90554(3)
O1 O -0.1978(2) 1.2667(3) -0.1583(5)
O2 O -0.1580(2) 1.2294(4) -0.2496(5)
O3 O 0.2018(3) 0.8268(3) -0.1159(4)
O4 O 0.2342(2) 0.8237(3) 0.0314(4)
O5 O 0.2104(2) 0.8040(3) 0.4502(4)
O6 O 0.2422(3) 0.8661(4) 0.5580(6)
O7 O 0.3011(2) 0.7666(3) 0.4492(5)
O8 O 0.3389(2) 0.7216(4) 0.5768(5)
O9 O 0.7239(3) 0.3239(4) 0.7132(6)
O10 O 0.6782(2) 0.3266(3) 0.8141(5)
O11 O 0.71520(17) 0.3003(3) 0.2736(4)
O12 O 0.7558(2) 0.3574(3) 0.2002(5)
N1 N -0.0161(3) 1.1655(5) 0.1354(6)
N2 N 0.0740(3) 1.0287(5) 0.0148(5)
N3 N 0.0936(4) 1.0507(5) 0.3338(6)
N4 N 0.0397(3) 1.1089(5) 0.2334(6)
N5 N 0.0852(3) 1.0354(5) 0.1753(6)
N6 N 0.0281(3) 1.0943(5) 0.0706(6)
N7 N 0.4922(3) 0.6726(5) 0.3432(6)
N8 N 0.5485(3) 0.6148(5) 0.3016(6)
N9 N 0.6068(3) 0.5560(5) 0.2640(6)
N10 N 0.5900(3) 0.5409(4) 0.4101(6)
N11 N 0.5313(3) 0.5998(5) 0.4490(6)
N12 N 0.5697(4) 0.5291(5) 0.5501(6)
C1 C -0.1609(3) 1.2432(4) -0.1700(6)
C2 C -0.1209(3) 1.2248(5) -0.0894(6)
C3 C -0.0858(3) 1.1843(5) -0.1047(7)
H1 H -0.0871 1.1702 -0.1638
C4 C -0.0511(3) 1.1658(6) -0.0357(7)
H2 H -0.0277 1.1404 -0.0478
C5 C -0.0490(3) 1.1840(5) 0.0540(7)
C6 C -0.0821(3) 1.2258(5) 0.0709(7)
H3 H -0.0796 1.2412 0.1298
C7 C -0.1194(3) 1.2447(5) -0.0021(7)
H4 H -0.1428 1.2705 0.0091
C8 C 0.0178(3) 1.1205(5) 0.1438(7)
C9 C 0.0698(4) 1.0630(6) 0.2440(7)
C10 C 0.0620(3) 1.0521(5) 0.0936(7)
C11 C 0.1067(4) 0.9846(6) 0.0111(7)
C12 C 0.1440(4) 0.9630(6) 0.0814(7)
H5 H 0.1485 0.9793 0.1401
C13 C 0.1732(3) 0.9195(5) 0.0651(7)
H6 H 0.1957 0.9044 0.1146
C14 C 0.1718(3) 0.8953(4) -0.0226(6)
C15 C 0.1380(4) 0.9175(6) -0.0916(8)
H7 H 0.1360 0.9025 -0.1505
C16 C 0.1063(4) 0.9612(6) -0.0794(7)
H8 H 0.0843 0.9759 -0.1301
C17 C 0.2056(3) 0.8477(5) -0.0329(6)
C18 C 0.1251(4) 1.0054(6) 0.3597(7)
C19 C 0.1576(5) 1.0111(7) 0.4456(8)
H9 H 0.1586 1.0471 0.4788
C20 C 0.1874(5) 0.9649(6) 0.4803(9)
H10 H 0.2111 0.9717 0.5328
C21 C 0.1833(3) 0.9063(5) 0.4383(7)
C22 C 0.1507(3) 0.8986(5) 0.3568(7)
H11 H 0.1488 0.8617 0.3254
C23 C 0.1205(4) 0.9464(6) 0.3214(7)
H12 H 0.0962 0.9391 0.2701
C24 C 0.2137(3) 0.8557(5) 0.4850(6)
C25 C 0.3369(3) 0.7390(3) 0.4985(6)
C26 C 0.3807(3) 0.7265(5) 0.4613(6)
C27 C 0.4136(3) 0.6888(6) 0.5098(7)
H13 H 0.4114 0.6759 0.5678
C28 C 0.4527(4) 0.6680(6) 0.4723(7)
H14 H 0.4745 0.6399 0.5034
C29 C 0.4559(4) 0.6920(5) 0.3882(7)
C30 C 0.4217(3) 0.7297(5) 0.3409(7)
H15 H 0.4238 0.7426 0.2827
C31 C 0.3841(4) 0.7498(5) 0.3748(7)
H16 H 0.3622 0.7774 0.3424
C32 C 0.5233(4) 0.6269(6) 0.3672(7)
C33 C 0.5625(4) 0.5567(6) 0.4676(7)
C34 C 0.5809(4) 0.5700(6) 0.3302(8)
C35 C 0.6356(4) 0.5067(6) 0.2669(8)
C36 C 0.6301(4) 0.4501(6) 0.3044(7)
H17 H 0.6052 0.4452 0.3329
C37 C 0.6588(4) 0.4006(6) 0.3024(8)
H18 H 0.6543 0.3643 0.3316
C38 C 0.6947(3) 0.4060(5) 0.2555(7)
C39 C 0.7001(4) 0.4624(5) 0.2140(8)
H19 H 0.7232 0.4665 0.1809
C40 C 0.6722(4) 0.5107(6) 0.2211(8)
H20 H 0.6776 0.5476 0.1947
C41 C 0.6007(4) 0.4868(6) 0.5937(8)
C42 C 0.6393(4) 0.4646(6) 0.5646(8)
H21 H 0.6465 0.4804 0.5118
C43 C 0.6670(4) 0.4196(6) 0.6131(8)
H22 H 0.6919 0.4042 0.5909
C44 C 0.6589(4) 0.3968(5) 0.6937(7)
C45 C 0.6215(4) 0.4192(6) 0.7224(8)
H23 H 0.6154 0.4041 0.7765
C46 C 0.5929(4) 0.4624(6) 0.6760(8)
H24 H 0.5676 0.4763 0.6986
C47 C 0.6872(4) 0.3435(5) 0.7417(8)
C48 C 0.7220(3) 0.3512(4) 0.2411(6)
Dy1A Dy 0.76460(2) 0.25204(2) 0.17255(3)
Dy1B Dy -0.23540(2) 1.24796(2) -0.32745(3)
Dy1B_2 Dy 0.76460(2) 0.24796(2) 0.67255(3)
Dy1C Dy 0.23540(2) 0.74796(2) -0.17255(3)
Dy2_2 Dy -0.26598(2) 1.26331(2) -0.09446(3)
Dy2A Dy 0.26598(2) 0.76331(2) 0.59446(3)
Dy2B Dy 0.26598(2) 0.73669(2) 0.09446(3)
Dy2C Dy 0.73402(2) 0.23669(2) 0.40554(3)
O1_2 O 0.8022(2) 0.2667(3) 0.8417(5)
O1B O 0.1978(2) 0.7333(3) 0.1583(5)
O2B O 0.1580(2) 0.7706(4) 0.2496(5)
O3C O 0.2018(3) 0.6732(3) 0.3841(4)
O4B O 0.7658(2) 0.1763(3) 0.9686(4)
O5A O 0.7896(2) 0.3040(3) 1.0498(4)
O6A O 0.7578(3) 0.3661(4) 0.9420(6)
O7A O 0.6989(2) 0.2666(3) 1.0508(5)
O8A O 0.6611(2) 0.2216(4) 0.9232(5)
O9B O 0.2761(3) 0.6761(4) 0.2868(6)
O11A O 0.28480(17) 0.8003(3) 0.2264(4)
O11C O 0.71520(17) 0.1997(3) 0.7736(4)
O12A O 0.2442(2) 0.8574(3) 0.2998(5)
O13 O 0.0184(5) 1.0698(8) -0.1796(11)
O14 O 0.0868(8) 1.1270(12) 0.4900(15)
O15 O 0.5071(5) 0.5742(9) 0.6783(12)
loop_
_geom_bond_atom_site_label_1
_geom_bond_atom_site_label_2
_geom_bond_site_symmetry_1
_geom_bond_site_symmetry_2
Dy1 O5 1_555 1_555
Dy2 O10 1_555 1_555
O1 C1 1_555 1_555
O2 C1 1_555 1_555
O3 C17 1_555 1_555
O4 C17 1_555 1_555
O5 C24 1_555 1_555
O6 C24 1_555 1_555
O7 Dy1 1_555 1_555
O8 C25 1_555 1_555
O9 C47 1_555 1_555
O10 C47 1_555 1_555
O11 C48 1_555 1_555
O12 C48 1_555 1_555
N1 C5 1_555 1_555
N2 C10 1_555 1_555
N3 C9 1_555 1_555
N4 C8 1_555 1_555
N5 C9 1_555 1_555
N6 C8 1_555 1_555
N7 C29 1_555 1_555
N8 C32 1_555 1_555
N9 C34 1_555 1_555
N10 C33 1_555 1_555
N11 C32 1_555 1_555
N12 C33 1_555 1_555
C1 C2 1_555 1_555
C2 C3 1_555 1_555
C3 H1 1_555 1_555
C4 C3 1_555 1_555
H2 C4 1_555 1_555
C5 C4 1_555 1_555
C6 C5 1_555 1_555
H3 C6 1_555 1_555
C7 C2 1_555 1_555
H4 C7 1_555 1_555
C8 N1 1_555 1_555
C9 N4 1_555 1_555
C10 N5 1_555 1_555
C11 N2 1_555 1_555
C12 C11 1_555 1_555
H5 C12 1_555 1_555
C13 C12 1_555 1_555
H6 C13 1_555 1_555
C14 C13 1_555 1_555
C15 C14 1_555 1_555
H7 C15 1_555 1_555
C16 C11 1_555 1_555
H8 C16 1_555 1_555
C17 C14 1_555 1_555
C18 N3 1_555 1_555
C19 C18 1_555 1_555
H9 C19 1_555 1_555
C20 C19 1_555 1_555
H10 C20 1_555 1_555
C21 C20 1_555 1_555
C22 C21 1_555 1_555
H11 C22 1_555 1_555
C23 C18 1_555 1_555
H12 C23 1_555 1_555
C24 C21 1_555 1_555
C25 O7 1_555 1_555
C26 C25 1_555 1_555
C27 C26 1_555 1_555
H13 C27 1_555 1_555
C28 C27 1_555 1_555
H14 C28 1_555 1_555
C29 C28 1_555 1_555
C30 C29 1_555 1_555
H15 C30 1_555 1_555
C31 C26 1_555 1_555
H16 C31 1_555 1_555
C32 N7 1_555 1_555
C33 N11 1_555 1_555
C34 N8 1_555 1_555
C35 N9 1_555 1_555
C36 C35 1_555 1_555
H17 C36 1_555 1_555
C37 C36 1_555 1_555
H18 C37 1_555 1_555
C38 C37 1_555 1_555
C39 C38 1_555 1_555
H19 C39 1_555 1_555
C40 C35 1_555 1_555
H20 C40 1_555 1_555
C41 N12 1_555 1_555
C42 C41 1_555 1_555
H21 C42 1_555 1_555
C43 C42 1_555 1_555
H22 C43 1_555 1_555
C44 C43 1_555 1_555
C45 C44 1_555 1_555
H23 C45 1_555 1_555
C46 C41 1_555 1_555
H24 C46 1_555 1_555
C47 C44 1_555 1_555
C48 C38 1_555 1_555
Dy1A O11 1_555 1_555
Dy1B O1 1_555 1_555
Dy1B_2 O9 1_555 1_555
Dy1C O3 1_555 1_555
Dy2_2 O1 1_555 1_555
Dy2A O5 1_555 1_555
Dy2B O4 1_555 1_555
Dy2C O11 1_555 1_555
O1_2 Dy2 1_555 1_555
O1B Dy1 1_555 1_555
O2B Dy1 1_555 1_555
O3C Dy1 1_555 1_555
O4B Dy2 1_555 1_555
O5A Dy2 1_555 1_555
O6A Dy2 1_555 1_555
O7A Dy2 1_555 1_555
O8A Dy2 1_555 1_555
O9B Dy1 1_555 1_555
O11A Dy1 1_555 1_555
O11C Dy2 1_555 1_555
O12A Dy1 1_555 1_555
O2 Dy1B 1_555 1_555
O6 Dy2A 1_555 1_555
O7 Dy2A 1_555 1_555
O8 Dy2A 1_555 1_555
O12 Dy1A 1_555 1_555
N6 C10 1_555 1_555
N10 C34 1_555 1_555
C6 C7 1_555 1_555
C15 C16 1_555 1_555
C22 C23 1_555 1_555
C30 C31 1_555 1_555
C39 C40 1_555 1_555
C45 C46 1_555 1_555
Dy1B_2 O1_2 1_555 1_555
Dy1B_2 O11C 1_555 1_555
Dy2B O1B 1_555 1_555
Dy2B O11A 1_555 1_555

#END
