
#######################################################################
#
#                 Cambridge Crystallographic Data Centre
#                                CCDC 
#
#######################################################################
#
# If this CIF has been generated from an entry in the Cambridge 
# Structural Database, then it will include bibliographic, chemical, 
# crystal, experimental, refinement or atomic coordinate data resulting 
# from the CCDC's data processing and validation procedures.
#
#######################################################################

data_KIJRUS
_chemical_formula_moiety         '(C40 H26 Cu2 O10)n'
_symmetry_cell_setting           tetragonal
_symmetry_space_group_name_H-M   'I -4 m 2'
_symmetry_Int_Tables_number      119
_space_group_name_Hall           'I -4 -2'
loop_
_symmetry_equiv_pos_site_id
_symmetry_equiv_pos_as_xyz
1 x,y,z
2 y,-x,-z
3 -x,-y,z
4 -y,x,-z
5 -x,y,z
6 y,x,-z
7 x,-y,z
8 -y,-x,-z
9 1/2+x,1/2+y,1/2+z
10 1/2+y,1/2-x,1/2-z
11 1/2-x,1/2-y,1/2+z
12 1/2-y,1/2+x,1/2-z
13 1/2-x,1/2+y,1/2+z
14 1/2+y,1/2+x,1/2-z
15 1/2+x,1/2-y,1/2+z
16 1/2-y,1/2-x,1/2-z
_cell_length_a                   28.1968(13)
_cell_length_b                   28.1968(13)
_cell_length_c                   18.1399(10)
_cell_angle_alpha                90
_cell_angle_beta                 90
_cell_angle_gamma                90
_cell_volume                     14422.3
loop_
_atom_site_label
_atom_site_type_symbol
_atom_site_fract_x
_atom_site_fract_y
_atom_site_fract_z
Cu1 Cu 0.27619(2) -0.0000 0.11281(4)
Cu2 Cu 0.213792(19) 0.0000 0.00492(3)
O1 O 0.18180(9) 0.04991(9) 0.06171(17)
O2 O 0.23538(10) 0.04941(9) 0.15489(16)
O3 O 0.24618(10) 0.45068(10) 0.46301(16)
O4 O 0.19209(9) 0.45169(10) 0.55381(17)
O5 O 0.15735(16) 0.0000 -0.0793(2)
O6 O 0.32805(19) 0.0000 0.2004(3)
C1 C 0.19855(13) 0.06504(12) 0.1206(3)
C2 C 0.17310(13) 0.10571(13) 0.1583(2)
C3 C 0.18736(16) 0.12113(17) 0.2269(3)
H1 H 0.2125 0.1062 0.2505
C4 C 0.16463(15) 0.15873(17) 0.2609(3)
H2 H 0.1751 0.1693 0.3067
C5 C 0.12648(14) 0.18071(14) 0.2275(3)
C6 C 0.11180(16) 0.16475(15) 0.1573(3)
H3 H 0.0866 0.1793 0.1332
C7 C 0.13539(14) 0.12715(15) 0.1247(2)
H4 H 0.1254 0.1162 0.0789
C8 C 0.10058(13) 0.22153(14) 0.2639(3)
C9 C 0.05150(14) 0.22309(14) 0.2621(3)
H5 H 0.0352 0.2000 0.2357
C10 C 0.02575(12) 0.25812(13) 0.2986(3)
C11 C 0.05328(14) 0.29232(14) 0.3377(3)
H6 H 0.0375 0.3165 0.3624
C12 C 0.10147(13) 0.29120(14) 0.3406(3)
C13 C 0.12606(14) 0.25495(14) 0.3060(3)
H7 H 0.1588 0.2527 0.3104
C14 C 0.12962(14) 0.32762(14) 0.3820(3)
C15 C 0.17293(16) 0.3420(2) 0.3568(3)
H8 H 0.1866 0.3269 0.3164
C16 C 0.19661(18) 0.3789(2) 0.3913(3)
H9 H 0.2246 0.3902 0.3706
C17 C 0.18038(13) 0.39891(14) 0.4537(2)
C18 C 0.13758(17) 0.38342(17) 0.4804(3)
H10 H 0.1252 0.3968 0.5231
C19 C 0.11288(17) 0.34820(17) 0.4446(3)
H11 H 0.0839 0.3382 0.4636
C20 C 0.20892(13) 0.43697(12) 0.4931(2)
O1D O -0.18180(9) 0.04991(9) 0.06171(17)
O2D O -0.23538(10) 0.04941(9) 0.15489(16)
O3D O -0.24618(10) 0.45068(10) 0.46301(16)
O4D O -0.19209(9) 0.45169(10) 0.55381(17)
C1D C -0.19855(13) 0.06504(12) 0.1206(3)
C2D C -0.17310(13) 0.10571(13) 0.1583(2)
C3D C -0.18736(16) 0.12113(17) 0.2269(3)
H1D H -0.2125 0.1062 0.2505
C4D C -0.16463(15) 0.15873(17) 0.2609(3)
H2D H -0.1751 0.1693 0.3067
C5D C -0.12648(14) 0.18071(14) 0.2275(3)
C6D C -0.11180(16) 0.16475(15) 0.1573(3)
H3D H -0.0866 0.1793 0.1332
C7D C -0.13539(14) 0.12715(15) 0.1247(2)
H4D H -0.1254 0.1162 0.0789
C8D C -0.10058(13) 0.22153(14) 0.2639(3)
C9D C -0.05150(14) 0.22309(14) 0.2621(3)
H5D H -0.0352 0.2000 0.2357
C10D C -0.02575(12) 0.25812(13) 0.2986(3)
C11D C -0.05328(14) 0.29232(14) 0.3377(3)
H6D H -0.0375 0.3165 0.3624
C12D C -0.10147(13) 0.29120(14) 0.3406(3)
C13D C -0.12606(14) 0.25495(14) 0.3060(3)
H7D H -0.1588 0.2527 0.3104
C14D C -0.12962(14) 0.32762(14) 0.3820(3)
C15D C -0.17293(16) 0.3420(2) 0.3568(3)
H8D H -0.1866 0.3269 0.3164
C16D C -0.19661(18) 0.3789(2) 0.3913(3)
H9D H -0.2246 0.3902 0.3706
C17D C -0.18038(13) 0.39891(14) 0.4537(2)
C18D C -0.13758(17) 0.38342(17) 0.4804(3)
H10D H -0.1252 0.3968 0.5231
C19D C -0.11288(17) 0.34820(17) 0.4446(3)
H11D H -0.0839 0.3382 0.4636
C20D C -0.20892(13) 0.43697(12) 0.4931(2)
Cu1B Cu -0.27619(2) -0.0000 0.11281(4)
Cu1H Cu -0.22381(2) 0.5000 0.61281(4)
Cu1J Cu 0.22381(2) 0.5000 0.61281(4)
Cu2B Cu -0.213792(19) 0.0000 0.00492(3)
Cu2H Cu -0.286208(19) 0.5000 0.50492(3)
Cu2J Cu 0.286208(19) 0.5000 0.50492(3)
O1F O 0.18180(9) -0.04991(9) 0.06171(17)
O2F O 0.23538(10) -0.04941(9) 0.15489(16)
O3J O 0.25382(10) 0.04932(10) -0.03699(16)
O3L O 0.25382(10) -0.04932(10) -0.03699(16)
O4J O 0.30791(9) 0.04831(10) 0.05381(17)
O4L O 0.30791(9) -0.04831(10) 0.05381(17)
loop_
_geom_bond_atom_site_label_1
_geom_bond_atom_site_label_2
_geom_bond_site_symmetry_1
_geom_bond_site_symmetry_2
Cu1 O2 1_555 1_555
Cu2 O1 1_555 1_555
O1 C1 1_555 1_555
O2 C1 1_555 1_555
O3 C20 1_555 1_555
O4 C20 1_555 1_555
O5 Cu2 1_555 1_555
O6 Cu1 1_555 1_555
C1 C2 1_555 1_555
C2 C3 1_555 1_555
C3 H1 1_555 1_555
C4 C3 1_555 1_555
H2 C4 1_555 1_555
C5 C4 1_555 1_555
C6 C5 1_555 1_555
H3 C6 1_555 1_555
C7 C2 1_555 1_555
H4 C7 1_555 1_555
C8 C5 1_555 1_555
C9 C8 1_555 1_555
H5 C9 1_555 1_555
C10 C9 1_555 1_555
C11 C10 1_555 1_555
H6 C11 1_555 1_555
C12 C11 1_555 1_555
C13 C8 1_555 1_555
H7 C13 1_555 1_555
C14 C12 1_555 1_555
C15 C14 1_555 1_555
H8 C15 1_555 1_555
C16 C15 1_555 1_555
H9 C16 1_555 1_555
C17 C16 1_555 1_555
C18 C17 1_555 1_555
H10 C18 1_555 1_555
C19 C14 1_555 1_555
H11 C19 1_555 1_555
C20 C17 1_555 1_555
O1D C1D 1_555 1_555
O2D C1D 1_555 1_555
O3D C20D 1_555 1_555
O4D C20D 1_555 1_555
C1D C2D 1_555 1_555
C2D C3D 1_555 1_555
C3D H1D 1_555 1_555
C4D C3D 1_555 1_555
H2D C4D 1_555 1_555
C5D C4D 1_555 1_555
C6D C5D 1_555 1_555
H3D C6D 1_555 1_555
C7D C2D 1_555 1_555
H4D C7D 1_555 1_555
C8D C5D 1_555 1_555
C9D C8D 1_555 1_555
H5D C9D 1_555 1_555
C10D C10 1_555 1_555
C11D C10D 1_555 1_555
H6D C11D 1_555 1_555
C12D C11D 1_555 1_555
C13D C8D 1_555 1_555
H7D C13D 1_555 1_555
C14D C12D 1_555 1_555
C15D C14D 1_555 1_555
H8D C15D 1_555 1_555
C16D C15D 1_555 1_555
H9D C16D 1_555 1_555
C17D C16D 1_555 1_555
C18D C17D 1_555 1_555
H10D C18D 1_555 1_555
C19D C14D 1_555 1_555
H11D C19D 1_555 1_555
C20D C17D 1_555 1_555
Cu1B O2D 1_555 1_555
Cu1H O4D 1_555 1_555
Cu1J O4 1_555 1_555
Cu2B O1D 1_555 1_555
Cu2H O3D 1_555 1_555
Cu2J O3 1_555 1_555
O1F Cu2 1_555 1_555
O2F Cu1 1_555 1_555
O3J Cu2 1_555 1_555
O3L Cu2 1_555 1_555
O4J Cu1 1_555 1_555
O4L Cu1 1_555 1_555
C6 C7 1_555 1_555
C12 C13 1_555 1_555
C18 C19 1_555 1_555
C6D C7D 1_555 1_555
C9D C10D 1_555 1_555
C12D C13D 1_555 1_555
C18D C19D 1_555 1_555

#END
