
#######################################################################
#
#                 Cambridge Crystallographic Data Centre
#                                CCDC 
#
#######################################################################
#
# If this CIF has been generated from an entry in the Cambridge 
# Structural Database, then it will include bibliographic, chemical, 
# crystal, experimental, refinement or atomic coordinate data resulting 
# from the CCDC's data processing and validation procedures.
#
#######################################################################

data_CUTBEA
_chemical_formula_moiety         '(C23 H22 Eu1 N5 O8)n'
_symmetry_cell_setting           monoclinic
_symmetry_space_group_name_H-M   'C 2/c'
_symmetry_Int_Tables_number      15
_space_group_name_Hall           '-C 2yc'
loop_
_symmetry_equiv_pos_site_id
_symmetry_equiv_pos_as_xyz
1 x,y,z
2 -x,y,1/2-z
3 1/2+x,1/2+y,z
4 1/2-x,1/2+y,1/2-z
5 -x,-y,-z
6 x,-y,1/2+z
7 1/2-x,1/2-y,-z
8 1/2+x,1/2-y,1/2+z
_cell_length_a                   31.810(6)
_cell_length_b                   14.993(3)
_cell_length_c                   13.220(3)
_cell_angle_alpha                90
_cell_angle_beta                 96.01(3)
_cell_angle_gamma                90
_cell_volume                     6270.32
loop_
_atom_site_label
_atom_site_type_symbol
_atom_site_fract_x
_atom_site_fract_y
_atom_site_fract_z
_atom_site_U_iso_or_equiv
_atom_site_thermal_displace_type
C1 C 0.21056(3) 0.39914(7) 0.74211(8) 0.0257 Uani
C2 C 0.23587(3) 0.46434(8) 0.79230(9) 0.0283 Uani
C3 C 0.21820(3) 0.52663(8) 0.85325(11) 0.0280 Uani
C4 C 0.17523(3) 0.52372(8) 0.86401(10) 0.0285 Uani
C5 C 0.14991(3) 0.45853(7) 0.81382(8) 0.0300 Uani
C6 C 0.16758(3) 0.39624(7) 0.75288(8) 0.0272 Uani
C7 C -0.00247(3) 0.29039(11) 0.87921(13) 0.0434 Uani
C8 C 0.00263(3) 0.38405(11) 0.87957(11) 0.0331 Uani
C9 C -0.03005(3) 0.43856(12) 0.90570(13) 0.0393 Uani
C10 C -0.06725(3) 0.39970(14) 0.93229(14) 0.0374 Uani
C11 C -0.07190(4) 0.30860(14) 0.93240(15) 0.0315 Uani
C12 C -0.04006(4) 0.25451(13) 0.90583(16) 0.0454 Uani
C13 C 0.04073(3) 0.42260(10) 0.85542(10) 0.0355 Uani
C14 C 0.08123(3) 0.38602(9) 0.84502(9) 0.0332 Uani
N1 N 0.10834(3) 0.45683(8) 0.82223(9) 0.0345 Uani
N2 N 0.08460(3) 0.53719(8) 0.81854(12) 0.0405 Uani
N3 N 0.04282(3) 0.51603(9) 0.83905(12) 0.0439 Uani
C15 C 0.22905(11) 0.3350(2) 0.6698(3) 0.0273 Uani
C16 C 0.24623(11) 0.5963(2) 0.9102(3) 0.0267 Uani
C17 C -0.11159(12) 0.2696(3) 0.9666(3) 0.0339 Uani
Eu1 Eu 0.189356(5) 0.206741(11) 0.470453(13) 0.0217 Uani
O1 O 0.22986(8) 0.66350(16) 0.9441(2) 0.0297 Uani
O2 O 0.28539(8) 0.58232(17) 0.9211(2) 0.0390 Uani
O3 O -0.12069(9) 0.1886(2) 0.9534(3) 0.0540 Uani
O4 O -0.13643(9) 0.3211(2) 1.0069(3) 0.0518 Uani
O5 O 0.20530(8) 0.27185(17) 0.6364(2) 0.0309 Uani
O6 O 0.26569(8) 0.34992(19) 0.6493(2) 0.0402 Uani
O7 O 0.15341(12) 0.0778(2) 0.3924(3) 0.0749 Uani
O8 O 0.15902(15) 0.2517(4) 0.3019(3) 0.0954 Uani
N4 N 0.1311(2) 0.3252(7) 0.1501(6) 0.3051 Uani
C18 C 0.1669(2) 0.3710(7) 0.1198(7) 0.2999 Uani
C19 C 0.1324(3) 0.2747(5) 0.2466(5) 0.1968 Uani
C20 C 0.0892(2) 0.3321(12) 0.0919(9) 0.3144 Uani
N5 N 0.1348(4) -0.0573(5) 0.3021(9) 0.6429 Uani
C21 C 0.1629(3) 0.0022(4) 0.3650(7) 0.3258 Uani
C22 C 0.1055(4) -0.0235(7) 0.2203(7) 0.6397 Uani
C23 C 0.1372(7) -0.1546(5) 0.3258(15) 0.6427 Uani
Eu1A Eu -0.189356(5) 0.206741(11) 1.029547(13) 0.0217 Uani
Eu1C Eu 0.310644(5) 0.706741(11) 1.029547(13) 0.0217 Uani
Eu1E Eu 0.189356(5) 0.793259(11) 0.970453(13) 0.0217 Uani
Eu1F Eu 0.310644(5) 0.293259(11) 0.529547(13) 0.0217 Uani
O1C O 0.27014(8) 0.16350(16) 0.5559(2) 0.0297 Uani
O1E O 0.22986(8) 0.33650(16) 0.4441(2) 0.0297 Uani
O2C O 0.21461(8) 0.08232(17) 0.5789(2) 0.0390 Uani
O3A O 0.12069(9) 0.1886(2) 0.5466(3) 0.0540 Uani
O4A O 0.13643(9) 0.3211(2) 0.4931(3) 0.0518 Uani
O6F O 0.23431(8) 0.15008(19) 0.3507(2) 0.0402 Uani
loop_
_atom_site_aniso_label
_atom_site_aniso_U_11
_atom_site_aniso_U_22
_atom_site_aniso_U_33
_atom_site_aniso_U_23
_atom_site_aniso_U_13
_atom_site_aniso_U_12
C1 0.0233(15) 0.0270(16) 0.0280(17) -0.0083(13) 0.0083(13) -0.0025(13)
C2 0.0207(15) 0.0344(17) 0.0310(18) -0.0075(14) 0.0087(14) 0.0014(14)
C3 0.0240(16) 0.0275(16) 0.0334(18) -0.0086(14) 0.0073(14) -0.0040(14)
C4 0.0191(15) 0.0322(17) 0.0360(18) -0.0101(14) 0.0114(14) -0.0007(14)
C5 0.0202(15) 0.0290(17) 0.043(2) -0.0067(15) 0.0135(14) 0.0005(14)
C6 0.0237(16) 0.0340(17) 0.0250(16) -0.0106(13) 0.0082(13) -0.0063(14)
C7 0.0249(17) 0.058(3) 0.051(2) 0.0000(19) 0.0211(16) -0.0033(18)
C8 0.0205(15) 0.046(2) 0.0350(19) -0.0032(16) 0.0132(14) -0.0063(16)
C9 0.0247(17) 0.055(2) 0.040(2) -0.0044(18) 0.0114(16) -0.0044(18)
C10 0.0244(17) 0.048(2) 0.041(2) -0.0041(17) 0.0085(16) -0.0085(17)
C11 0.0199(16) 0.046(2) 0.0297(18) -0.0017(15) 0.0071(14) -0.0079(15)
C12 0.0280(19) 0.043(2) 0.068(3) 0.003(2) 0.0183(19) -0.0026(18)
C13 0.0216(16) 0.054(2) 0.0325(19) -0.0080(17) 0.0102(15) -0.0008(17)
C14 0.0176(15) 0.047(2) 0.0367(19) 0.0003(16) 0.0103(14) -0.0157(15)
N1 0.0294(15) 0.0324(15) 0.0434(18) -0.0112(13) 0.0117(14) -0.0108(13)
N2 0.0249(15) 0.0372(17) 0.062(2) -0.0109(15) 0.0171(15) 0.0013(14)
N3 0.0225(15) 0.0471(19) 0.064(2) -0.0061(17) 0.0133(15) -0.0044(15)
C15 0.0183(15) 0.0345(17) 0.0301(17) -0.0064(14) 0.0068(13) -0.0021(14)
C16 0.0242 0.0265 0.0302 -0.003 0.0065 -0.0078
C17 0.0183 0.042 0.042 0.0012 0.006 -0.007
Eu1 0.01425(7) 0.02213(8) 0.02951(8) -0.00237(6) 0.00555(6) 0.00238(6)
O1 0.0271 0.0236 0.0404 -0.0087 0.0131 -0.0067
O2 0.0213 0.0288 0.0673 -0.0116 0.0068 -0.0027
O3 0.0302 0.036 0.101 0.0063 0.0311 0.0019
O4 0.0349 0.0578 0.0684 -0.0223 0.0319 -0.0214
O5 0.0292(12) 0.0326(12) 0.0326(13) -0.0106(10) 0.0111(10) -0.0031(11)
O6 0.0259 0.0468 0.0504 -0.0246 0.0151 -0.0027
O7 0.053(2) 0.075(2) 0.099(3) -0.0454(19) 0.019(2) -0.0224(18)
O8 0.092(3) 0.131(3) 0.056(2) -0.008(3) -0.026(2) 0.043(3)
N4 0.342(4) 0.328(4) 0.242(4) -0.107(4) 0.015(4) 0.051(4)
C18 0.340(5) 0.327(5) 0.232(5) -0.114(5) 0.026(5) 0.047(5)
C19 0.319(14) 0.144(7) 0.114(7) -0.045(6) -0.041(9) 0.090(8)
C20 0.343(5) 0.334(5) 0.263(5) -0.084(5) 0.017(5) 0.047(5)
N5 0.657(4) 0.634(4) 0.636(4) -0.009(4) 0.060(4) -0.004(4)
C21 0.355(15) 0.363(15) 0.278(13) 0.092(11) 0.121(11) -0.148(12)
C22 0.652(5) 0.630(5) 0.635(5) -0.003(5) 0.058(5) -0.001(5)
C23 0.658(5) 0.633(5) 0.636(5) -0.010(5) 0.062(5) 0.001(5)
Eu1A 0.01425 0.02213 0.02951 0.00237 0.00555 -0.00238
Eu1C 0.01425 0.02213 0.02951 0.00237 0.00555 -0.00238
Eu1E 0.01425 0.02213 0.02951 0.00237 0.00555 -0.00238
Eu1F 0.01425 0.02213 0.02951 -0.00237 0.00555 0.00238
O1C 0.0271 0.0236 0.0404 0.0087 0.0131 0.0067
O1E 0.0271 0.0236 0.0404 0.0087 0.0131 0.0067
O2C 0.0213 0.0288 0.0673 0.0116 0.0068 0.0027
O3A 0.0302 0.036 0.101 -0.0063 0.0311 -0.0019
O4A 0.0349 0.0578 0.0684 0.0223 0.0319 0.0214
O6F 0.0259 0.0468 0.0504 -0.0246 0.0151 -0.0027
loop_
_geom_bond_atom_site_label_1
_geom_bond_atom_site_label_2
_geom_bond_site_symmetry_1
_geom_bond_site_symmetry_2
C1 C2 1_555 1_555
C2 C3 1_555 1_555
C3 C4 1_555 1_555
C4 C5 1_555 1_555
C5 C6 1_555 1_555
C6 C1 1_555 1_555
C7 C8 1_555 1_555
C8 C9 1_555 1_555
C9 C10 1_555 1_555
C10 C11 1_555 1_555
C11 C12 1_555 1_555
C12 C7 1_555 1_555
C13 C8 1_555 1_555
C14 C13 1_555 1_555
N1 C5 1_555 1_555
N2 N1 1_555 1_555
N3 C13 1_555 1_555
C15 C1 1_555 1_555
C16 C3 1_555 1_555
C17 C11 1_555 1_555
Eu1 O5 1_555 1_555
O1 C16 1_555 1_555
O2 C16 1_555 1_555
O3 C17 1_555 1_555
O4 C17 1_555 1_555
O5 C15 1_555 1_555
O6 C15 1_555 1_555
O7 Eu1 1_555 1_555
O8 Eu1 1_555 1_555
N4 C18 1_555 1_555
C19 O8 1_555 1_555
C20 N4 1_555 1_555
N5 C21 1_555 1_555
C21 O7 1_555 1_555
C22 N5 1_555 1_555
C23 N5 1_555 1_555
Eu1A O3 1_555 1_555
Eu1C O1 1_555 1_555
Eu1E O1 1_555 1_555
Eu1F O6 1_555 1_555
O1C Eu1 1_555 1_555
O1E Eu1 1_555 1_555
O2C Eu1 1_555 1_555
O3A Eu1 1_555 1_555
O4A Eu1 1_555 1_555
O6F Eu1 1_555 1_555
C14 N1 1_555 1_555
N2 N3 1_555 1_555
O2 Eu1C 1_555 1_555
O4 Eu1A 1_555 1_555
N4 C19 1_555 1_555
Eu1F O1C 1_555 1_555
Eu1F O1E 1_555 1_555

#END
