
#######################################################################
#
#                 Cambridge Crystallographic Data Centre
#                                CCDC 
#
#######################################################################
#
# If this CIF has been generated from an entry in the Cambridge 
# Structural Database, then it will include bibliographic, chemical, 
# crystal, experimental, refinement or atomic coordinate data resulting 
# from the CCDC's data processing and validation procedures.
#
#######################################################################

data_CUTBOK
_chemical_formula_moiety         '(C23 H22 N5 O8 Tb1)n'
_symmetry_cell_setting           monoclinic
_symmetry_space_group_name_H-M   'C 2/c'
_symmetry_Int_Tables_number      15
_space_group_name_Hall           '-C 2yc'
loop_
_symmetry_equiv_pos_site_id
_symmetry_equiv_pos_as_xyz
1 x,y,z
2 -x,y,1/2-z
3 1/2+x,1/2+y,z
4 1/2-x,1/2+y,1/2-z
5 -x,-y,-z
6 x,-y,1/2+z
7 1/2-x,1/2-y,-z
8 1/2+x,1/2-y,1/2+z
_cell_length_a                   31.6491(17)
_cell_length_b                   14.9143(9)
_cell_length_c                   13.2656(7)
_cell_angle_alpha                90
_cell_angle_beta                 96.4660(10)
_cell_angle_gamma                90
_cell_volume                     6221.85
loop_
_atom_site_label
_atom_site_type_symbol
_atom_site_fract_x
_atom_site_fract_y
_atom_site_fract_z
_atom_site_U_iso_or_equiv
_atom_site_thermal_displace_type
Tb1 Tb 0.189481(6) 0.205447(15) 0.469361(17) 0.0266 Uani
O1 O 0.12167(14) 0.1883(3) 0.5448(4) 0.0625 Uani
O2 O 0.13583(14) 0.3171(3) 0.4858(4) 0.0696 Uani
O3 O -0.20445(11) 0.2761(2) 0.8712(3) 0.0410 Uani
O4 O 0.1539(3) 0.0731(5) 0.3986(7) 0.1608 Uani
O5 O 0.1578(4) 0.2449(8) 0.3041(6) 0.1823 Uani
O6 O -0.26518(11) 0.3549(3) 0.8569(3) 0.0415 Uani
O7 O -0.22948(11) 0.6672(2) 0.5602(3) 0.0382 Uani
O8 O -0.28492(11) 0.5854(3) 0.5830(3) 0.0434 Uani
C1 C -0.14989(4) 0.45872(9) 0.68881(9) 0.0355 Uani
C2 C -0.17525(4) 0.52474(9) 0.63894(11) 0.0343 Uani
C3 C -0.21824(4) 0.52940(10) 0.65123(12) 0.0319 Uani
C4 C -0.23586(4) 0.46803(11) 0.71339(12) 0.0357 Uani
C5 C -0.21049(4) 0.40201(11) 0.76326(11) 0.0346 Uani
C6 C -0.16751(4) 0.39735(10) 0.75097(10) 0.0407 Uani
C7 C -0.00261(4) 0.38153(12) 0.61882(13) 0.0457 Uani
C8 C 0.00246(4) 0.28895(12) 0.62054(15) 0.0552 Uani
C9 C 0.03979(5) 0.25103(14) 0.59405(17) 0.0557 Uani
C10 C 0.07204(4) 0.30570(15) 0.56584(17) 0.0431 Uani
C11 C 0.06695(4) 0.39828(15) 0.56413(16) 0.0506 Uani
C12 C 0.02964(4) 0.43619(13) 0.59061(14) 0.0522 Uani
N1 N -0.10534(4) 0.45642(9) 0.67705(9) 0.0417 Uani
N2 N -0.08259(4) 0.53331(9) 0.68134(11) 0.0597 Uani
N3 N -0.04451(4) 0.51186(10) 0.66253(12) 0.0617 Uani
C13 C -0.04206(4) 0.42264(10) 0.64489(11) 0.0458 Uani
C14 C -0.08156(4) 0.38390(9) 0.65767(10) 0.0448 Uani
C15 C -0.24561(4) 0.60020(12) 0.59490(14) 0.0336 Uani
C16 C -0.22801(4) 0.33958(13) 0.83716(14) 0.0354 Uani
C17 C 0.11212(5) 0.26660(17) 0.5309(2) 0.0466 Uani
N4 N 0.15329(9) -0.0601(2) 0.3128(3) 0.1671 Uani
C18 C 0.17127(8) -0.0016(2) 0.3792(3) 0.1645 Uani
C19 C 0.16569(10) -0.1603(2) 0.3373(4) 0.1684 Uani
C20 C 0.12346(9) -0.0281(3) 0.2197(3) 0.1684 Uani
N5 N 0.13633(8) 0.3366(3) 0.1346(2) 0.1870 Uani
C21 C 0.14504(7) 0.2780(3) 0.2183(2) 0.1850 Uani
C22 C 0.17065(8) 0.3735(3) 0.1025(2) 0.1879 Uani
C23 C 0.09380(8) 0.3392(3) 0.10573(19) 0.1878 Uani
Tb1A Tb -0.189481(6) 0.205447(15) 1.030639(17) 0.0266 Uani
Tb1B Tb -0.310519(6) 0.705447(15) 0.469361(17) 0.0266 Uani
Tb1D Tb -0.189481(6) 0.794553(15) 0.530639(17) 0.0266 Uani
Tb1G Tb -0.310519(6) 0.294553(15) 0.969361(17) 0.0266 Uani
O3A O 0.20445(11) 0.2761(2) 0.6288(3) 0.0410 Uani
O6G O 0.23482(11) 0.1451(3) 0.3569(3) 0.0415 Uani
O7B O 0.27052(11) 0.1672(2) 0.5602(3) 0.0382 Uani
O7D O 0.22948(11) 0.3328(2) 0.4398(3) 0.0382 Uani
O8B O 0.21508(11) 0.0854(3) 0.5830(3) 0.0434 Uani
loop_
_atom_site_aniso_label
_atom_site_aniso_U_11
_atom_site_aniso_U_22
_atom_site_aniso_U_33
_atom_site_aniso_U_23
_atom_site_aniso_U_13
_atom_site_aniso_U_12
Tb1 0.01892(9) 0.02859(11) 0.03335(11) -0.00240(9) 0.00723(8) 0.00273(9)
O1 0.040(2) 0.052(3) 0.100(3) -0.010(2) 0.028(2) 0.0084(19)
O2 0.047(2) 0.079(3) 0.090(3) 0.040(2) 0.039(2) 0.030(2)
O3 0.0306(17) 0.042(2) 0.054(2) 0.0178(16) 0.0201(15) 0.0044(15)
O4 0.1793(12) 0.1304(8) 0.1715(12) -0.0434(9) 0.0142(12) -0.0165(10)
O5 0.1724(12) 0.2112(11) 0.1540(9) -0.0091(9) -0.0219(11) 0.0252(12)
O6 0.0268(15) 0.048(2) 0.053(2) 0.0192(17) 0.0190(15) 0.0065(15)
O7 0.0364(17) 0.0263(17) 0.055(2) 0.0097(16) 0.0181(16) 0.0043(15)
O8 0.0291(17) 0.039(2) 0.063(2) 0.0129(17) 0.0097(17) 0.0068(15)
C1 0.0196(19) 0.042(3) 0.048(3) 0.015(2) 0.0170(19) 0.0089(19)
C2 0.0176(18) 0.041(3) 0.047(3) 0.010(2) 0.0158(18) 0.0066(19)
C3 0.0205(19) 0.034(2) 0.043(3) 0.006(2) 0.0118(19) 0.0066(18)
C4 0.030(2) 0.040(3) 0.039(2) 0.012(2) 0.012(2) 0.005(2)
C5 0.026(2) 0.035(3) 0.046(3) 0.013(2) 0.0176(19) 0.0054(19)
C6 0.032(2) 0.038(3) 0.055(3) 0.013(2) 0.018(2) 0.004(2)
C7 0.030(2) 0.070(4) 0.040(3) 0.010(3) 0.016(2) 0.016(3)
C8 0.038(3) 0.066(4) 0.065(4) -0.011(3) 0.021(3) 0.000(3)
C9 0.036(3) 0.060(4) 0.073(4) 0.004(3) 0.014(3) -0.001(3)
C10 0.029(2) 0.058(4) 0.044(3) -0.001(3) 0.012(2) 0.003(2)
C11 0.033(3) 0.066(4) 0.055(3) 0.007(3) 0.015(2) 0.013(3)
C12 0.025(2) 0.082(4) 0.052(3) 0.008(3) 0.015(2) 0.009(3)
N1 0.0252(18) 0.054(3) 0.049(2) 0.016(2) 0.0175(18) 0.0121(19)
N2 0.032(2) 0.054(3) 0.097(4) 0.017(3) 0.024(2) 0.001(2)
N3 0.033(2) 0.051(3) 0.106(4) 0.013(3) 0.029(2) 0.003(2)
C13 0.021(2) 0.069(4) 0.050(3) 0.013(3) 0.015(2) 0.010(2)
C14 0.034(2) 0.064(3) 0.039(3) 0.004(3) 0.015(2) 0.023(2)
C15 0.026(2) 0.033(2) 0.044(3) 0.004(2) 0.0131(19) 0.0096(19)
C16 0.029(2) 0.036(3) 0.043(3) 0.016(2) 0.012(2) 0.001(2)
C17 0.028(2) 0.061(4) 0.054(3) 0.002(3) 0.018(2) 0.006(2)
N4 0.1877(7) 0.1336(6) 0.1777(7) -0.0449(6) 0.0102(6) -0.0133(7)
C18 0.1840(9) 0.1327(7) 0.1751(8) -0.0437(7) 0.0127(8) -0.0146(8)
C19 0.1894(12) 0.1339(7) 0.1793(12) -0.0449(9) 0.0099(11) -0.0123(10)
C20 0.1884(12) 0.1356(11) 0.1785(10) -0.0441(10) 0.0093(9) -0.0129(11)
N5 0.1756(6) 0.2171(7) 0.1588(6) -0.0051(6) -0.0226(6) 0.0241(7)
C21 0.1747(9) 0.2142(9) 0.1569(7) -0.0071(7) -0.0223(7) 0.0249(8)
C22 0.1763(8) 0.2179(12) 0.1602(11) -0.0049(10) -0.0220(10) 0.0232(10)
C23 0.1757(7) 0.2183(12) 0.1599(12) -0.0047(11) -0.0230(10) 0.0246(11)
Tb1A 0.01892 0.02859 0.03335 0.0024 0.00723 -0.00273
Tb1B 0.01892 0.02859 0.03335 -0.0024 0.00723 0.00273
Tb1D 0.01892 0.02859 0.03335 -0.0024 0.00723 0.00273
Tb1G 0.01892 0.02859 0.03335 0.0024 0.00723 -0.00273
O3A 0.0306 0.042 0.054 -0.0178 0.0201 -0.0044
O6G 0.0268 0.048 0.053 -0.0192 0.019 -0.0065
O7B 0.0364 0.0263 0.055 0.0097 0.0181 0.0043
O7D 0.0364 0.0263 0.055 0.0097 0.0181 0.0043
O8B 0.0291 0.039 0.063 0.0129 0.0097 0.0068
loop_
_geom_bond_atom_site_label_1
_geom_bond_atom_site_label_2
_geom_bond_site_symmetry_1
_geom_bond_site_symmetry_2
Tb1 O1 1_555 1_555
O1 C17 1_555 1_555
O2 Tb1 1_555 1_555
O3 C16 1_555 1_555
O4 Tb1 1_555 1_555
O5 Tb1 1_555 1_555
O6 C16 1_555 1_555
O7 C15 1_555 1_555
O8 C15 1_555 1_555
C1 C2 1_555 1_555
C2 C3 1_555 1_555
C3 C4 1_555 1_555
C4 C5 1_555 1_555
C5 C6 1_555 1_555
C6 C1 1_555 1_555
C7 C8 1_555 1_555
C8 C9 1_555 1_555
C9 C10 1_555 1_555
C10 C11 1_555 1_555
C11 C12 1_555 1_555
C12 C7 1_555 1_555
N1 C1 1_555 1_555
N2 N1 1_555 1_555
N3 N2 1_555 1_555
C13 C7 1_555 1_555
C14 N1 1_555 1_555
C15 C3 1_555 1_555
C16 C5 1_555 1_555
C17 O2 1_555 1_555
N4 C18 1_555 1_555
C18 O4 1_555 1_555
C19 N4 1_555 1_555
C20 N4 1_555 1_555
N5 C21 1_555 1_555
C21 O5 1_555 1_555
C22 N5 1_555 1_555
C23 N5 1_555 1_555
Tb1A O3 1_555 1_555
Tb1B O7 1_555 1_555
Tb1D O7 1_555 1_555
Tb1G O6 1_555 1_555
O3A Tb1 1_555 1_555
O6G Tb1 1_555 1_555
O7B Tb1 1_555 1_555
O7D Tb1 1_555 1_555
O8B Tb1 1_555 1_555
O8 Tb1B 1_555 1_555
C10 C17 1_555 1_555
N3 C13 1_555 1_555
C13 C14 1_555 1_555

#END
