
#######################################################################
#
#                 Cambridge Crystallographic Data Centre
#                                CCDC 
#
#######################################################################
#
# If this CIF has been generated from an entry in the Cambridge 
# Structural Database, then it will include bibliographic, chemical, 
# crystal, experimental, refinement or atomic coordinate data resulting 
# from the CCDC's data processing and validation procedures.
#
#######################################################################

data_FITJAU
_chemical_formula_moiety         '(C22 H54 Gd6 N2 O56 P2)n'
_symmetry_cell_setting           monoclinic
_symmetry_space_group_name_H-M   'P 21/n'
_symmetry_Int_Tables_number      14
_space_group_name_Hall           '-P 2yn'
loop_
_symmetry_equiv_pos_site_id
_symmetry_equiv_pos_as_xyz
1 x,y,z
2 1/2-x,1/2+y,1/2-z
3 -x,-y,-z
4 1/2+x,1/2-y,1/2+z
_cell_length_a                   10.2481(2)
_cell_length_b                   22.3910(3)
_cell_length_c                   15.0697(3)
_cell_angle_alpha                90
_cell_angle_beta                 108.02
_cell_angle_gamma                90
_cell_volume                     3288.35
loop_
_atom_site_label
_atom_site_type_symbol
_atom_site_fract_x
_atom_site_fract_y
_atom_site_fract_z
Gd1 Gd -0.03392(5) 0.85847(2) 0.49887(3)
Gd2 Gd -0.42225(5) 0.84497(2) 0.74939(3)
Gd3 Gd -0.24278(5) 0.98659(2) 1.09002(3)
P1 P -0.4546(3) 0.99306(12) 0.84208(17)
N1 N -0.3706(14) 1.0305(5) 0.6921(8)
H1 H -0.3587 0.9905 0.6871
C1 C -0.2253(10) 0.8198(4) 0.6256(6)
C2 C -0.2478(10) 0.8877(4) 0.6140(6)
C3 C 0.0182(10) 0.7799(5) 0.3324(6)
C4 C 0.0416(9) 0.7357(4) 0.4156(6)
C5 C 0.2483(11) 0.8374(4) 0.6665(7)
C6 C 0.2931(11) 0.8494(5) 0.5785(7)
C7 C 0.0427(10) 0.9997(4) 0.5526(6)
C8 C 0.0067(11) 0.9653(5) 0.9984(7)
C9 C -0.3639(18) 1.0436(6) 0.7861(10)
H2 H -0.2681 1.0442 0.8235
H3 H -0.3999 1.0835 0.7875
C10 C -0.520(2) 1.0467(10) 0.6349(14)
H4 H -0.5828 1.0265 0.6606
H5 H -0.5330 1.0890 0.6373
H6 H -0.5372 1.0345 0.5712
C11 C -0.282(3) 1.0614(7) 0.6501(15)
H7 H -0.1878 1.0522 0.6836
H8 H -0.3018 1.0491 0.5863
H9 H -0.2960 1.1037 0.6525
O1 O -0.2830(7) 0.7930(3) 0.6751(5)
O2 O -0.1489(7) 0.7970(3) 0.5836(5)
O3 O -0.1929(7) 0.9138(3) 0.5614(5)
O4 O -0.3205(7) 0.9106(3) 0.6585(5)
O5 O 0.0424(8) 0.7614(3) 0.2613(5)
O6 O -0.0213(7) 0.8313(3) 0.3445(5)
O7 O 0.0774(7) 0.6838(3) 0.4021(5)
O8 O 0.0187(8) 0.7542(3) 0.4867(5)
O9 O 0.4234(7) 0.8474(3) 0.5945(5)
O10 O 0.2046(7) 0.8585(3) 0.5041(5)
O11 O 0.3395(7) 0.8336(4) 0.7440(5)
O12 O 0.1202(7) 0.8323(3) 0.6526(5)
O13 O 0.0761(8) 0.9508(3) 0.5896(5)
O14 O 0.0706(7) 1.0505(3) 0.5914(4)
O15 O -0.0721(8) 0.9354(3) 1.0324(6)
O16 O 0.0898(8) 0.9452(3) 0.9616(5)
O17 O -0.3577(11) 0.9847(5) 0.9372(6)
O18 O -0.5897(9) 1.0196(4) 0.8399(6)
O19 O -0.4719(9) 0.9365(3) 0.7853(6)
O20 O -0.3475(9) 1.0867(4) 1.0683(7)
O21 O -0.1061(11) 1.0481(4) 1.2194(6)
O22 O -0.1905(9) 0.8600(5) 0.8543(6)
O23 O -0.3187(10) 0.8821(4) 1.0654(6)
O24 O -0.1156(9) 0.9259(4) 1.2219(5)
O25 O -0.2633(8) 0.8316(4) 0.3940(5)
Gd1B Gd 0.03392(5) 1.14153(2) 0.50113(3)
Gd1C Gd -0.53392(5) 0.64153(2) 0.99887(3)
Gd1_2 Gd -1.03392(5) 0.85847(2) 0.49887(3)
Gd2C Gd 0.07775(5) 0.65503(2) 0.24939(3)
Gd2_2 Gd 0.57775(5) 0.84497(2) 0.74939(3)
Gd2B Gd 0.42225(5) 1.15503(2) 0.25061(3)
Gd3C Gd 0.25722(5) 0.51341(2) 0.59002(3)
Gd3B Gd 0.24278(5) 1.01341(2) 0.90998(3)
Gd3B_2 Gd -0.75722(5) 1.01341(2) 0.90998(3)
Gd3A Gd -0.25722(5) 0.48659(2) 0.40998(3)
P1C P 0.0454(3) 0.50694(12) 0.34208(17)
N1C N 0.1294(14) 0.4695(5) 0.1921(8)
H1C H 0.1413 0.5095 0.1871
C1B C 0.2253(10) 1.1802(4) 0.3744(6)
C2B C 0.2478(10) 1.1123(4) 0.3860(6)
C3C C -0.4818(10) 0.7201(5) 0.8324(6)
C4C C -0.4584(9) 0.7643(4) 0.9156(6)
C5_2 C -0.7517(11) 0.8374(4) 0.6665(7)
C6_2 C -0.7069(11) 0.8494(5) 0.5785(7)
C7B C -0.0427(10) 1.0003(4) 0.4474(6)
C8B C -0.0067(11) 1.0347(5) 1.0016(7)
C9C C 0.1361(18) 0.4564(6) 0.2861(10)
H2C H 0.2319 0.4558 0.3235
H3C H 0.1001 0.4165 0.2875
C10C C -0.020(2) 0.4533(10) 0.1349(14)
H4C H -0.0828 0.4735 0.1606
H5C H -0.0330 0.4110 0.1373
H6C H -0.0372 0.4655 0.0712
C11C C 0.218(3) 0.4386(7) 0.1501(15)
H7C H 0.3122 0.4478 0.1836
H8C H 0.1982 0.4509 0.0863
H9C H 0.2040 0.3963 0.1525
O1B O 0.2830(7) 1.2070(3) 0.3249(5)
O1C O 0.2170(7) 0.7070(3) 0.1751(5)
O2B O 0.1489(7) 1.2030(3) 0.4164(5)
O3B O 0.1929(7) 1.0862(3) 0.4386(5)
O4B O 0.3205(7) 1.0894(3) 0.3415(5)
O4C O 0.1795(7) 0.5894(3) 0.1585(5)
O5C O -0.4576(8) 0.7386(3) 0.7613(5)
O6C O -0.5213(7) 0.6687(3) 0.8445(5)
O6B O 0.0213(7) 1.1687(3) 0.6555(5)
O7C O -0.4226(7) 0.8162(3) 0.9021(5)
O8C O -0.4813(8) 0.7458(3) 0.9867(5)
O8B O -0.0187(8) 1.2458(3) 0.5133(5)
O9_2 O -0.5766(7) 0.8474(3) 0.5945(5)
O9C O -0.0766(7) 0.6526(3) 0.0945(5)
O10_2 O -0.7954(7) 0.8585(3) 0.5041(5)
O10B O -0.2046(7) 1.1415(3) 0.4959(5)
O11_2 O -0.6605(7) 0.8336(4) 0.7440(5)
O11C O -0.1605(7) 0.6664(4) 0.2440(5)
O12_2 O -0.8798(7) 0.8323(3) 0.6526(5)
O12B O -0.1202(7) 1.1677(3) 0.3474(5)
O13B O -0.0761(8) 1.0492(3) 0.4104(5)
O14B O -0.0706(7) 0.9495(3) 0.4086(4)
O15B O 0.0721(8) 1.0646(3) 0.9676(6)
O15C O 0.4279(8) 0.5646(3) 0.5324(6)
O16B O -0.0898(8) 1.0548(3) 1.0384(5)
O16A O 0.4102(8) 0.4452(3) 0.5384(5)
O17C O 0.1423(11) 0.5153(5) 0.4372(6)
O18C O -0.0897(9) 0.4804(4) 0.3399(6)
O18B O -0.4103(9) 0.9804(4) 1.1601(6)
O18A O 0.0897(9) 0.5196(4) 0.6601(6)
O19C O 0.0281(9) 0.5635(3) 0.2853(6)
O20C O 0.1525(9) 0.4133(4) 0.5683(7)
O21C O 0.3939(11) 0.4519(4) 0.7194(6)
O22C O 0.3095(9) 0.6400(5) 0.3543(6)
O23C O 0.1813(10) 0.6179(4) 0.5654(6)
O24C O 0.3844(9) 0.5741(4) 0.7219(5)
O25B O 0.2633(8) 1.1684(4) 0.6060(5)
O26 O -0.4644(12) 0.6817(5) 0.5815(8)
O27 O -0.1071(11) 0.3076(4) 0.3043(7)
O28 O -0.2498(11) 0.6820(4) 0.5036(7)
O29 O -0.1206(10) 0.6922(4) 0.7607(7)
O30 O 0.5525(8) 0.6695(4) 0.3207(6)
O31 O 0.5121(9) 0.7917(4) 0.4553(6)
loop_
_geom_bond_atom_site_label_1
_geom_bond_atom_site_label_2
_geom_bond_site_symmetry_1
_geom_bond_site_symmetry_2
Gd1 O2 1_555 1_555
Gd2 O1 1_555 1_555
Gd3 O15 1_555 1_555
P1 C9 1_555 1_555
N1 H1 1_555 1_555
C1 C2 1_555 1_555
C2 O3 1_555 1_555
C3 C4 1_555 1_555
C4 O7 1_555 1_555
C5 C6 1_555 1_555
C6 O9 1_555 1_555
C7 O13 1_555 1_555
C8 O15 1_555 1_555
C9 N1 1_555 1_555
H2 C9 1_555 1_555
H3 C9 1_555 1_555
C10 N1 1_555 1_555
H4 C10 1_555 1_555
H5 C10 1_555 1_555
H6 C10 1_555 1_555
C11 N1 1_555 1_555
H7 C11 1_555 1_555
H8 C11 1_555 1_555
H9 C11 1_555 1_555
O1 C1 1_555 1_555
O2 C1 1_555 1_555
O3 Gd1 1_555 1_555
O4 Gd2 1_555 1_555
O5 C3 1_555 1_555
O6 Gd1 1_555 1_555
O7 Gd2C 1_555 1_555
O8 Gd1 1_555 1_555
O9 Gd2_2 1_555 1_555
O10 Gd1 1_555 1_555
O11 C5 1_555 1_555
O12 Gd1 1_555 1_555
O13 Gd1 1_555 1_555
O14 C7 1_555 1_555
O16 C8 1_555 1_555
O17 Gd3 1_555 1_555
O18 P1 1_555 1_555
O19 Gd2 1_555 1_555
O20 Gd3 1_555 1_555
O21 Gd3 1_555 1_555
O22 Gd2 1_555 1_555
O23 Gd3 1_555 1_555
O24 Gd3 1_555 1_555
O25 Gd1 1_555 1_555
Gd1B O14 1_555 1_555
Gd1C O6C 1_555 1_555
Gd1_2 O10_2 1_555 1_555
Gd2C O5 1_555 1_555
Gd2_2 O11 1_555 1_555
Gd2B O1B 1_555 1_555
Gd3C O15C 1_555 1_555
Gd3B O16 1_555 1_555
Gd3B_2 O18 1_555 1_555
Gd3A O18C 1_555 1_555
P1C C9C 1_555 1_555
N1C H1C 1_555 1_555
C1B C2B 1_555 1_555
C2B O3B 1_555 1_555
C3C C4C 1_555 1_555
C4C O7C 1_555 1_555
C5_2 C6_2 1_555 1_555
C6_2 O9_2 1_555 1_555
C7B C7 1_555 1_555
C8B C8 1_555 1_555
C9C N1C 1_555 1_555
H2C C9C 1_555 1_555
H3C C9C 1_555 1_555
C10C N1C 1_555 1_555
H4C C10C 1_555 1_555
H5C C10C 1_555 1_555
H6C C10C 1_555 1_555
C11C N1C 1_555 1_555
H7C C11C 1_555 1_555
H8C C11C 1_555 1_555
H9C C11C 1_555 1_555
O1B C1B 1_555 1_555
O1C Gd2C 1_555 1_555
O2B Gd1B 1_555 1_555
O3B Gd1B 1_555 1_555
O4B Gd2B 1_555 1_555
O4C Gd2C 1_555 1_555
O5C Gd2 1_555 1_555
O6C C3C 1_555 1_555
O6B Gd1B 1_555 1_555
O7C Gd2 1_555 1_555
O8C Gd1C 1_555 1_555
O8B Gd1B 1_555 1_555
O9_2 Gd2 1_555 1_555
O9C Gd2C 1_555 1_555
O10_2 C6_2 1_555 1_555
O10B Gd1B 1_555 1_555
O11_2 Gd2 1_555 1_555
O11C Gd2C 1_555 1_555
O12_2 Gd1_2 1_555 1_555
O12B Gd1B 1_555 1_555
O13B Gd1B 1_555 1_555
O14B Gd1 1_555 1_555
O15B Gd3B 1_555 1_555
O16B Gd3 1_555 1_555
O16A Gd3C 1_555 1_555
O17C Gd3C 1_555 1_555
O18C P1C 1_555 1_555
O18B Gd3 1_555 1_555
O18A Gd3C 1_555 1_555
O19C Gd2C 1_555 1_555
O20C Gd3C 1_555 1_555
O21C Gd3C 1_555 1_555
O22C Gd2C 1_555 1_555
O23C Gd3C 1_555 1_555
O24C Gd3C 1_555 1_555
O25B Gd1B 1_555 1_555
P1 O17 1_555 1_555
P1 O19 1_555 1_555
C2 O4 1_555 1_555
C3 O6 1_555 1_555
C4 O8 1_555 1_555
C5 O12 1_555 1_555
C6 O10 1_555 1_555
P1C O17C 1_555 1_555
P1C O19C 1_555 1_555
C1B O2B 1_555 1_555
C2B O4B 1_555 1_555
C3C O5C 1_555 1_555
C4C O8C 1_555 1_555
C5_2 O11_2 1_555 1_555
C5_2 O12_2 1_555 1_555
C7B O13B 1_555 1_555
C7B O14B 1_555 1_555
C8B O15B 1_555 1_555
C8B O16B 1_555 1_555

#END
