
#######################################################################
#
#                 Cambridge Crystallographic Data Centre
#                                CCDC 
#
#######################################################################
#
# If this CIF has been generated from an entry in the Cambridge 
# Structural Database, then it will include bibliographic, chemical, 
# crystal, experimental, refinement or atomic coordinate data resulting 
# from the CCDC's data processing and validation procedures.
#
#######################################################################

data_CITXUZ
_chemical_formula_moiety         '(C42 H42 Cu4 N6 O22)n'
_symmetry_cell_setting           orthorhombic
_symmetry_space_group_name_H-M   'I b a m'
_symmetry_Int_Tables_number      72
_space_group_name_Hall           '-I 2 2c'
loop_
_symmetry_equiv_pos_site_id
_symmetry_equiv_pos_as_xyz
1 x,y,z
2 1/2+x,1/2+y,1/2+z
3 -x,-y,z
4 1/2-x,1/2+y,-z
5 1/2+x,1/2-y,-z
6 1/2-x,1/2-y,1/2+z
7 -x,y,1/2-z
8 x,-y,1/2-z
9 -x,-y,-z
10 1/2-x,1/2-y,1/2-z
11 x,y,-z
12 1/2+x,1/2-y,z
13 1/2-x,1/2+y,z
14 1/2+x,1/2+y,1/2-z
15 x,-y,1/2+z
16 -x,y,1/2+z
_cell_length_a                   14.669(7)
_cell_length_b                   16.833(8)
_cell_length_c                   24.743(11)
_cell_angle_alpha                90
_cell_angle_beta                 90
_cell_angle_gamma                90
_cell_volume                     6109.62
loop_
_atom_site_label
_atom_site_type_symbol
_atom_site_fract_x
_atom_site_fract_y
_atom_site_fract_z
_atom_site_U_iso_or_equiv
_atom_site_thermal_displace_type
O1 O 0.3872(3) 0.7073(3) 0.7100(2) 0.0500 Uani
C1 C 0.3514(6) 0.6611(6) 0.6773(4) 0.0600 Uani
O2 O 0.1170(4) 0.5261(3) 0.5548(2) 0.0557 Uani
Cu1 Cu 0.07280(8) 0.45242(8) 0.5000 0.0326 Uani
Cu2 Cu 0.5000 0.69400(9) 0.7500 0.0474 Uani
N1 N 0.0756(4) 0.8293(4) 0.6822(2) 0.0397 Uani
H1 H 0.1166 0.8674 0.6901 0.0470 Uiso
H2 H 0.0384 0.8485 0.6564 0.0470 Uiso
O3 O -0.0030(4) 0.6051(3) 0.5554(2) 0.0587 Uani
O4 O 0.3910(5) 0.6017(5) 0.6590(4) 0.1533 Uani
C2 C 0.1221(5) 0.6409(5) 0.6090(3) 0.0360 Uani
C3 C 0.0794(5) 0.7092(5) 0.6275(3) 0.0420 Uani
H3 H 0.0200 0.7198 0.6166 0.0500 Uiso
C4 C 0.1226(5) 0.7615(5) 0.6615(3) 0.0390 Uani
C5 C 0.2118(5) 0.7474(5) 0.6768(3) 0.0390 Uani
H4 H 0.2422 0.7838 0.6986 0.0470 Uiso
C6 C 0.2561(5) 0.6790(5) 0.6595(3) 0.0440 Uani
C7 C 0.2113(5) 0.6256(5) 0.6249(3) 0.0477 Uani
H5 H 0.2412 0.5803 0.6127 0.0570 Uiso
C8 C 0.0756(5) 0.5855(5) 0.5703(3) 0.0417 Uani
N2 N 0.1865(7) 0.3739(6) 0.5000 0.0487 Uani
C9 C 0.2716(10) 0.4019(11) 0.5000 0.1120 Uani
H6 H 0.2802 0.4566 0.5000 0.1340 Uiso
C10 C 0.3462(13) 0.3541(15) 0.5000 0.1377 Uani
H7 H 0.4048 0.3752 0.5000 0.1670 Uiso
C11 C 0.3315(14) 0.2715(16) 0.5000 0.1110 Uani
H8 H 0.3811 0.2370 0.5000 0.1350 Uiso
C12 C 0.2512(16) 0.2436(12) 0.5000 0.1147 Uani
H9 H 0.2410 0.1890 0.5000 0.1380 Uiso
C13 C 0.1777(11) 0.2977(11) 0.5000 0.0860 Uani
H10 H 0.1189 0.2770 0.5000 0.1030 Uiso
O5 O 0.5000 0.8313(6) 0.7500 0.1097 Uani
H11 H 0.4529 0.8589 0.7333 0.1320 Uiso
H12 H 0.5471 0.8589 0.7667 0.1320 Uiso
O1J O 0.3872(3) 0.7073(3) 0.2900(2) 0.0500 Uani
O1H O -0.3872(3) 0.2927(3) 0.2900(2) 0.0500 Uani
O1B O -0.3872(3) 0.2927(3) 0.7100(2) 0.0500 Uani
O1F O 0.6128(3) 0.7073(3) 0.7900(2) 0.0500 Uani
O1O O 0.6128(3) 0.7073(3) 0.2100(2) 0.0500 Uani
C1J C 0.3514(6) 0.6611(6) 0.3227(4) 0.0600 Uani
C1H C -0.3514(6) 0.3389(6) 0.3227(4) 0.0600 Uani
C1B C -0.3514(6) 0.3389(6) 0.6773(4) 0.0600 Uani
O2J O 0.1170(4) 0.5261(3) 0.4452(2) 0.0557 Uani
O2H O -0.1170(4) 0.4739(3) 0.4452(2) 0.0557 Uani
O2B O -0.1170(4) 0.4739(3) 0.5548(2) 0.0557 Uani
Cu1H Cu -0.07280(8) 0.54758(8) 0.5000 0.0326 Uani
Cu2J Cu 0.5000 0.69400(9) 0.2500 0.0474 Uani
Cu2K Cu -0.0000 0.80600(9) 0.7500 0.0474 Uani
Cu2D Cu -0.0000 0.80600(9) 0.2500 0.0474 Uani
Cu2N Cu -0.5000 0.30600(9) 0.2500 0.0474 Uani
Cu2A Cu -0.0000 0.19400(9) 0.2500 0.0474 Uani
Cu2B Cu -0.5000 0.30600(9) 0.7500 0.0474 Uani
Cu2L Cu -0.0000 0.19400(9) 0.7500 0.0474 Uani
N1J N 0.0756(4) 0.8293(4) 0.3178(2) 0.0397 Uani
N1H N -0.0756(4) 0.1707(4) 0.3178(2) 0.0397 Uani
N1B N -0.0756(4) 0.1707(4) 0.6822(2) 0.0397 Uani
N1K N 0.5756(4) 0.6707(4) 0.6822(2) 0.0397 Uani
N1I N 0.4244(4) 0.6707(4) 0.8178(2) 0.0397 Uani
N1D N 0.5756(4) 0.6707(4) 0.3178(2) 0.0397 Uani
N1E N 0.4244(4) 0.6707(4) 0.1822(2) 0.0397 Uani
H1J H 0.1166 0.8674 0.3099 0.0470 Uiso
H1H H -0.1166 0.1326 0.3099 0.0470 Uiso
H1B H -0.1166 0.1326 0.6901 0.0470 Uiso
H1K H 0.6166 0.6326 0.6901 0.0470 Uiso
H1I H 0.3834 0.6326 0.8099 0.0470 Uiso
H1D H 0.6166 0.6326 0.3099 0.0470 Uiso
H1E H 0.3834 0.6326 0.1901 0.0470 Uiso
H2J H 0.0384 0.8485 0.3436 0.0470 Uiso
H2H H -0.0384 0.1515 0.3436 0.0470 Uiso
H2B H -0.0384 0.1515 0.6564 0.0470 Uiso
H2K H 0.5384 0.6515 0.6564 0.0470 Uiso
H2I H 0.4616 0.6515 0.8436 0.0470 Uiso
H2D H 0.5384 0.6515 0.3436 0.0470 Uiso
H2E H 0.4616 0.6515 0.1564 0.0470 Uiso
O3J O -0.0030(4) 0.6051(3) 0.4446(2) 0.0587 Uani
O3H O 0.0030(4) 0.3949(3) 0.4446(2) 0.0587 Uani
O3B O 0.0030(4) 0.3949(3) 0.5554(2) 0.0587 Uani
O4J O 0.3910(5) 0.6017(5) 0.3410(4) 0.1533 Uani
O4H O -0.3910(5) 0.3983(5) 0.3410(4) 0.1533 Uani
O4B O -0.3910(5) 0.3983(5) 0.6590(4) 0.1533 Uani
C2J C 0.1221(5) 0.6409(5) 0.3910(3) 0.0360 Uani
C2H C -0.1221(5) 0.3591(5) 0.3910(3) 0.0360 Uani
C2B C -0.1221(5) 0.3591(5) 0.6090(3) 0.0360 Uani
C3J C 0.0794(5) 0.7092(5) 0.3725(3) 0.0420 Uani
C3H C -0.0794(5) 0.2908(5) 0.3725(3) 0.0420 Uani
C3B C -0.0794(5) 0.2908(5) 0.6275(3) 0.0420 Uani
H3J H 0.0200 0.7198 0.3834 0.0500 Uiso
H3H H -0.0200 0.2802 0.3834 0.0500 Uiso
H3B H -0.0200 0.2802 0.6166 0.0500 Uiso
C4J C 0.1226(5) 0.7615(5) 0.3385(3) 0.0390 Uani
C4H C -0.1226(5) 0.2385(5) 0.3385(3) 0.0390 Uani
C4B C -0.1226(5) 0.2385(5) 0.6615(3) 0.0390 Uani
C5J C 0.2118(5) 0.7474(5) 0.3232(3) 0.0390 Uani
C5H C -0.2118(5) 0.2526(5) 0.3232(3) 0.0390 Uani
C5B C -0.2118(5) 0.2526(5) 0.6768(3) 0.0390 Uani
H4J H 0.2422 0.7838 0.3014 0.0470 Uiso
H4H H -0.2422 0.2162 0.3014 0.0470 Uiso
H4B H -0.2422 0.2162 0.6986 0.0470 Uiso
C6J C 0.2561(5) 0.6790(5) 0.3405(3) 0.0440 Uani
C6H C -0.2561(5) 0.3210(5) 0.3405(3) 0.0440 Uani
C6B C -0.2561(5) 0.3210(5) 0.6595(3) 0.0440 Uani
C7J C 0.2113(5) 0.6256(5) 0.3751(3) 0.0477 Uani
C7H C -0.2113(5) 0.3744(5) 0.3751(3) 0.0477 Uani
C7B C -0.2113(5) 0.3744(5) 0.6249(3) 0.0477 Uani
H5J H 0.2412 0.5803 0.3873 0.0570 Uiso
H5H H -0.2412 0.4197 0.3873 0.0570 Uiso
H5B H -0.2412 0.4197 0.6127 0.0570 Uiso
C8J C 0.0756(5) 0.5855(5) 0.4297(3) 0.0417 Uani
C8H C -0.0756(5) 0.4145(5) 0.4297(3) 0.0417 Uani
C8B C -0.0756(5) 0.4145(5) 0.5703(3) 0.0417 Uani
N2H N -0.1865(7) 0.6261(6) 0.5000 0.0487 Uani
C9H C -0.2716(10) 0.5981(11) 0.5000 0.1120 Uani
H6H H -0.2802 0.5434 0.5000 0.1340 Uiso
C10H C -0.3462(13) 0.6459(15) 0.5000 0.1377 Uani
H7H H -0.4048 0.6248 0.5000 0.1670 Uiso
C11H C -0.3315(14) 0.7285(16) 0.5000 0.1110 Uani
H8H H -0.3811 0.7630 0.5000 0.1350 Uiso
C12H C -0.2512(16) 0.7564(12) 0.5000 0.1147 Uani
H9H H -0.2410 0.8110 0.5000 0.1380 Uiso
C13H C -0.1777(11) 0.7023(11) 0.5000 0.0860 Uani
H10H H -0.1189 0.7230 0.5000 0.1030 Uiso
O5J O 0.5000 0.8313(6) 0.2500 0.1097 Uani
H11J H 0.4529 0.8589 0.2667 0.1320 Uiso
H12J H 0.5471 0.8589 0.2333 0.1320 Uiso
O6 O 0.7928(6) 0.0374(4) 0.2998(3) 0.1140 Uani
O7 O -0.0000 -0.0000 0.2500 0.2533 Uani
O8 O 0.1104(9) 0.4239(9) 0.3314(5) 0.2663 Uani
O9 O 0.0661(9) 0.0595(10) 0.4444(5) 0.2747 Uani
loop_
_atom_site_aniso_label
_atom_site_aniso_U_11
_atom_site_aniso_U_22
_atom_site_aniso_U_33
_atom_site_aniso_U_23
_atom_site_aniso_U_13
_atom_site_aniso_U_12
O1 0.025 0.079 0.046 -0.011 -0.02 0.002
C1 0.026 0.062 0.092 -0.025 -0.018 0.014
O2 0.039 0.056 0.072 -0.027 -0.021 0.008
Cu1 0.0183(7) 0.0479(9) 0.0315(7) 0.000 0.000 -0.0044(6)
Cu2 0.0214 0.0742 0.0467 0 -0.0116 0
N1 0.026 0.048 0.045 -0.002 -0.017 0.004
O3 0.036 0.075 0.065 -0.03 -0.027 0.009
O4 0.059 0.142 0.259 -0.142 -0.086 0.049
C2 0.024 0.046 0.038 0 -0.003 -0.008
C3 0.023 0.062 0.041 0.002 -0.008 -0.007
C4 0.024 0.049 0.044 -0.003 -0.007 0
C5 0.025 0.048 0.044 -0.006 -0.007 0
C6 0.029 0.057 0.046 -0.012 -0.012 0.007
C7 0.027 0.062 0.054 -0.006 -0.007 0.004
C8 0.026 0.056 0.043 -0.002 -0.008 -0.016
N2 0.047(7) 0.042(7) 0.057(6) 0.000 0.000 0.004(6)
C9 0.022(9) 0.118(15) 0.196(19) 0.000 0.000 0.005(10)
C10 0.043(11) 0.16(2) 0.21(2) 0.000 0.000 0.036(15)
C11 0.068(14) 0.18(2) 0.085(12) 0.000 0.000 0.069(17)
C12 0.121(18) 0.115(17) 0.108(14) 0.000 0.000 0.058(16)
C13 0.065(11) 0.092(14) 0.101(12) 0.000 0.000 0.004(11)
O5 0.132 0.107 0.09 0 -0.011 0
O1J 0.025 0.079 0.046 0.011 0.02 0.002
O1H 0.025(3) 0.079(4) 0.046(3) -0.011(3) -0.020(2) 0.002(3)
O1B 0.025 0.079 0.046 0.011 0.02 0.002
O1F 0.025 0.079 0.046 0.011 -0.02 -0.002
O1O 0.025 0.079 0.046 -0.011 0.02 -0.002
C1J 0.026 0.062 0.092 0.025 0.018 0.014
C1H 0.026(5) 0.062(6) 0.092(7) -0.025(6) -0.018(5) 0.014(5)
C1B 0.026 0.062 0.092 0.025 0.018 0.014
O2J 0.039 0.056 0.072 0.027 0.021 0.008
O2H 0.039(4) 0.056(4) 0.072(4) -0.027(3) -0.021(3) 0.008(3)
O2B 0.039 0.056 0.072 0.027 0.021 0.008
Cu1H 0.0183 0.0479 0.0315 0 0 -0.0044
Cu2J 0.0214 0.0742 0.0467 0 0.0116 0
Cu2K 0.0214 0.0742 0.0467 0 -0.0116 0
Cu2D 0.0214 0.0742 0.0467 0 0.0116 0
Cu2N 0.0214 0.0742 0.0467 0 -0.0116 0
Cu2A 0.0214(7) 0.0742(12) 0.0467(9) 0.000 -0.0116(6) 0.000
Cu2B 0.0214 0.0742 0.0467 0 0.0116 0
Cu2L 0.0214 0.0742 0.0467 0 0.0116 0
N1J 0.026 0.048 0.045 0.002 0.017 0.004
N1H 0.026(3) 0.048(4) 0.045(4) -0.002(3) -0.017(3) 0.004(3)
N1B 0.026 0.048 0.045 0.002 0.017 0.004
N1K 0.026 0.048 0.045 0.002 -0.017 -0.004
N1I 0.026 0.048 0.045 -0.002 -0.017 0.004
N1D 0.026 0.048 0.045 -0.002 0.017 -0.004
N1E 0.026 0.048 0.045 0.002 0.017 0.004
O3J 0.036 0.075 0.065 0.03 0.027 0.009
O3H 0.036(3) 0.075(4) 0.065(4) -0.030(3) -0.027(3) 0.009(3)
O3B 0.036 0.075 0.065 0.03 0.027 0.009
O4J 0.059 0.142 0.259 0.142 0.086 0.049
O4H 0.059(5) 0.142(8) 0.259(11) -0.142(8) -0.086(6) 0.049(5)
O4B 0.059 0.142 0.259 0.142 0.086 0.049
C2J 0.024 0.046 0.038 0 0.003 -0.008
C2H 0.024(4) 0.046(5) 0.038(4) 0.000(4) -0.003(3) -0.008(4)
C2B 0.024 0.046 0.038 0 0.003 -0.008
C3J 0.023 0.062 0.041 -0.002 0.008 -0.007
C3H 0.023(4) 0.062(6) 0.041(4) 0.002(4) -0.008(4) -0.007(4)
C3B 0.023 0.062 0.041 -0.002 0.008 -0.007
C4J 0.024 0.049 0.044 0.003 0.007 0
C4H 0.024(5) 0.049(5) 0.044(5) -0.003(4) -0.007(3) 0.000(4)
C4B 0.024 0.049 0.044 0.003 0.007 0
C5J 0.025 0.048 0.044 0.006 0.007 0
C5H 0.025(4) 0.048(5) 0.044(5) -0.006(4) -0.007(4) 0.000(4)
C5B 0.025 0.048 0.044 0.006 0.007 0
C6J 0.029 0.057 0.046 0.012 0.012 0.007
C6H 0.029(5) 0.057(6) 0.046(5) -0.012(4) -0.012(4) 0.007(4)
C6B 0.029 0.057 0.046 0.012 0.012 0.007
C7J 0.027 0.062 0.054 0.006 0.007 0.004
C7H 0.027(5) 0.062(6) 0.054(5) -0.006(5) -0.007(4) 0.004(4)
C7B 0.027 0.062 0.054 0.006 0.007 0.004
C8J 0.026 0.056 0.043 0.002 0.008 -0.016
C8H 0.026(5) 0.056(6) 0.043(5) -0.002(4) -0.008(4) -0.016(5)
C8B 0.026 0.056 0.043 0.002 0.008 -0.016
N2H 0.047 0.042 0.057 0 0 0.004
C9H 0.022 0.118 0.196 0 0 0.005
C10H 0.043 0.16 0.21 0 0 0.036
C11H 0.068 0.18 0.085 0 0 0.069
C12H 0.121 0.115 0.108 0 0 0.058
C13H 0.065 0.092 0.101 0 0 0.004
O5J 0.132 0.107 0.09 0 0.011 0
O6 0.118(6) 0.079(5) 0.145(7) -0.001(5) 0.024(6) -0.043(5)
O7 0.17(2) 0.45(5) 0.14(2) 0.000 0.000 0.000
O8 0.265(15) 0.306(17) 0.228(13) -0.157(12) 0.149(12) -0.183(13)
O9 0.210(14) 0.43(2) 0.184(12) -0.014(14) 0.062(11) -0.125(14)
loop_
_geom_bond_atom_site_label_1
_geom_bond_atom_site_label_2
_geom_bond_site_symmetry_1
_geom_bond_site_symmetry_2
O1 C1 1_555 1_555
C1 O4 1_555 1_555
O2 Cu1 1_555 1_555
Cu1 N2 1_555 1_555
Cu2 O1 1_555 1_555
N1 H1 1_555 1_555
H2 N1 1_555 1_555
O3 C8 1_555 1_555
C2 C3 1_555 1_555
C3 H3 1_555 1_555
C4 N1 1_555 1_555
C5 C4 1_555 1_555
H4 C5 1_555 1_555
C6 C1 1_555 1_555
C7 C2 1_555 1_555
H5 C7 1_555 1_555
C8 O2 1_555 1_555
N2 C9 1_555 1_555
C9 H6 1_555 1_555
C10 C9 1_555 1_555
H7 C10 1_555 1_555
C11 C10 1_555 1_555
H8 C11 1_555 1_555
C12 C11 1_555 1_555
H9 C12 1_555 1_555
C13 N2 1_555 1_555
H10 C13 1_555 1_555
O5 Cu2 1_555 1_555
H11 O5 1_555 1_555
H12 O5 1_555 1_555
O1J C1J 1_555 1_555
O1H C1H 1_555 1_555
O1B C1B 1_555 1_555
O1F Cu2 1_555 1_555
O1O Cu2J 1_555 1_555
C1J O4J 1_555 1_555
C1H O4H 1_555 1_555
C1B O4B 1_555 1_555
O2J Cu1 1_555 1_555
O2H Cu1H 1_555 1_555
O2B Cu1H 1_555 1_555
Cu1H Cu1 1_555 1_555
Cu2J O1J 1_555 1_555
Cu2K N1 1_555 1_555
Cu2D N1J 1_555 1_555
Cu2N O1H 1_555 1_555
Cu2A N1H 1_555 1_555
Cu2B O1B 1_555 1_555
Cu2L N1B 1_555 1_555
N1J H1J 1_555 1_555
N1H H1H 1_555 1_555
N1B H1B 1_555 1_555
N1K Cu2 1_555 1_555
N1I Cu2 1_555 1_555
N1D Cu2J 1_555 1_555
N1E Cu2J 1_555 1_555
H1K N1K 1_555 1_555
H1I N1I 1_555 1_555
H1D N1D 1_555 1_555
H1E N1E 1_555 1_555
H2J N1J 1_555 1_555
H2H N1H 1_555 1_555
H2B N1B 1_555 1_555
H2K N1K 1_555 1_555
H2I N1I 1_555 1_555
H2D N1D 1_555 1_555
H2E N1E 1_555 1_555
O3J Cu1H 1_555 1_555
O3H Cu1 1_555 1_555
O3B Cu1 1_555 1_555
C2J C3J 1_555 1_555
C2H C3H 1_555 1_555
C2B C3B 1_555 1_555
C3J H3J 1_555 1_555
C3H H3H 1_555 1_555
C3B H3B 1_555 1_555
C4J N1J 1_555 1_555
C4H N1H 1_555 1_555
C4B N1B 1_555 1_555
C5J C4J 1_555 1_555
C5H C4H 1_555 1_555
C5B C4B 1_555 1_555
H4J C5J 1_555 1_555
H4H C5H 1_555 1_555
H4B C5B 1_555 1_555
C6J C1J 1_555 1_555
C6H C1H 1_555 1_555
C6B C1B 1_555 1_555
C7J C2J 1_555 1_555
C7H C2H 1_555 1_555
C7B C2B 1_555 1_555
H5J C7J 1_555 1_555
H5H C7H 1_555 1_555
H5B C7B 1_555 1_555
C8J O2J 1_555 1_555
C8H O2H 1_555 1_555
C8B O2B 1_555 1_555
N2H Cu1H 1_555 1_555
C9H N2H 1_555 1_555
H6H C9H 1_555 1_555
C10H C9H 1_555 1_555
H7H C10H 1_555 1_555
C11H C10H 1_555 1_555
H8H C11H 1_555 1_555
C12H C11H 1_555 1_555
H9H C12H 1_555 1_555
C13H N2H 1_555 1_555
H10H C13H 1_555 1_555
O5J Cu2J 1_555 1_555
H11J O5J 1_555 1_555
H12J O5J 1_555 1_555
O3 Cu1H 1_555 1_555
C2 C8 1_555 1_555
C3 C4 1_555 1_555
C5 C6 1_555 1_555
C6 C7 1_555 1_555
C12 C13 1_555 1_555
O3J C8J 1_555 1_555
O3H C8H 1_555 1_555
O3B C8B 1_555 1_555
C2J C8J 1_555 1_555
C2H C8H 1_555 1_555
C2B C8B 1_555 1_555
C3J C4J 1_555 1_555
C3H C4H 1_555 1_555
C3B C4B 1_555 1_555
C5J C6J 1_555 1_555
C5H C6H 1_555 1_555
C5B C6B 1_555 1_555
C6J C7J 1_555 1_555
C6H C7H 1_555 1_555
C6B C7B 1_555 1_555
C12H C13H 1_555 1_555

#END
