
#######################################################################
#
#                 Cambridge Crystallographic Data Centre
#                                CCDC 
#
#######################################################################
#
# If this CIF has been generated from an entry in the Cambridge 
# Structural Database, then it will include bibliographic, chemical, 
# crystal, experimental, refinement or atomic coordinate data resulting 
# from the CCDC's data processing and validation procedures.
#
#######################################################################

data_NUTYEI
_chemical_formula_moiety         '(C32 H20 Eu2 N2 O16)n'
_symmetry_cell_setting           orthorhombic
_symmetry_space_group_name_H-M   'F d d d'
_symmetry_Int_Tables_number      70
_space_group_name_Hall           '-F 2uv 2vw'
loop_
_symmetry_equiv_pos_site_id
_symmetry_equiv_pos_as_xyz
1 x,y,z
2 3/4-x,3/4-y,z
3 3/4-x,y,3/4-z
4 x,3/4-y,3/4-z
5 x,1/2+y,1/2+z
6 3/4-x,1/4-y,1/2+z
7 3/4-x,1/2+y,1/4-z
8 x,1/4-y,1/4-z
9 1/2+x,y,1/2+z
10 1/4-x,3/4-y,1/2+z
11 1/4-x,y,1/4-z
12 1/2+x,3/4-y,1/4-z
13 1/2+x,1/2+y,z
14 1/4-x,1/4-y,z
15 1/4-x,1/2+y,3/4-z
16 1/2+x,1/4-y,3/4-z
17 -x,-y,-z
18 1/4+x,1/4+y,-z
19 1/4+x,-y,1/4+z
20 -x,1/4+y,1/4+z
21 -x,1/2-y,1/2-z
22 1/4+x,3/4+y,1/2-z
23 1/4+x,1/2-y,3/4+z
24 -x,3/4+y,3/4+z
25 1/2-x,-y,1/2-z
26 3/4+x,1/4+y,1/2-z
27 3/4+x,-y,3/4+z
28 1/2-x,1/4+y,3/4+z
29 1/2-x,1/2-y,-z
30 3/4+x,3/4+y,-z
31 3/4+x,1/2-y,1/4+z
32 1/2-x,3/4+y,1/4+z
_cell_length_a                   14.5012(11)
_cell_length_b                   44.132(2)
_cell_length_c                   50.412(2)
_cell_angle_alpha                90
_cell_angle_beta                 90
_cell_angle_gamma                90
_cell_volume                     32262
loop_
_atom_site_label
_atom_site_type_symbol
_atom_site_fract_x
_atom_site_fract_y
_atom_site_fract_z
C1 C 0.4173(3) 0.60635(11) 0.91542(9)
C2 C 0.3299(3) 0.58950(10) 0.92054(9)
C3 C 0.2548(3) 0.59419(10) 0.90403(9)
H1 H 0.2588 0.6082 0.8903
C4 C 0.1742(3) 0.57823(10) 0.90784(8)
C5 C 0.1680(3) 0.55774(11) 0.92869(10)
H2 H 0.1134 0.5472 0.9314
C6 C 0.2424(3) 0.55290(11) 0.94545(9)
C7 C 0.3235(3) 0.56884(10) 0.94158(9)
H3 H 0.3734 0.5659 0.9529
C8 C 0.0968(4) 0.58332(11) 0.88936(10)
C9 C 0.1719(4) 0.51776(11) 0.97709(10)
C10 C 0.1903(3) 0.49699(11) 1.00045(10)
C11 C 0.1239(4) 0.49336(11) 1.01994(10)
H4 H 0.0683 0.5038 1.0187
C12 C 0.1396(4) 0.47412(11) 1.04150(10)
H5 H 0.0949 0.4717 1.0546
C13 C 0.2227(3) 0.45864(11) 1.04319(9)
C14 C 0.2896(4) 0.46196(11) 1.02338(9)
H6 H 0.3446 0.4512 1.0244
C15 C 0.2739(3) 0.48128(11) 1.00233(10)
H7 H 0.3189 0.4839 0.9894
C16 C 0.2384(4) 0.43711(11) 1.06606(10)
N1 N 0.2438(3) 0.53202(10) 0.96748(8)
H8 H 0.2962 0.5287 0.9749
O1 O 0.4857(2) 0.60093(8) 0.93045(6)
O2 O 0.4278(2) 0.62728(7) 0.89966(6)
O3 O 0.1314(3) 0.58651(8) 0.86746(7)
O4 O 0.0142(2) 0.58425(8) 0.89495(6)
O5 O 0.0924(3) 0.52105(7) 0.96989(7)
O6 O 0.2047(2) 0.44228(8) 1.08798(6)
O7 O 0.2877(2) 0.41634(7) 1.05803(7)
O8 O 0.6250 0.6250 0.96797(9)
H9 H 0.5729 0.6363 0.9744
O9 O 0.3750 0.72532(10) 0.8750
H10 H 0.3235 0.7325 0.8648
Eu1 Eu 0.6250 0.6250 0.919739(6)
Eu2 Eu 0.3750 0.671264(6) 0.8750
H9M H 0.6771 0.6137 0.9744
H10B H 0.4265 0.7325 0.8852
C1B C 0.3327(3) 0.60635(11) 0.83458(9)
C2B C 0.4201(3) 0.58950(10) 0.82946(9)
C3B C 0.4952(3) 0.59419(10) 0.84597(9)
H1B H 0.4912 0.6082 0.8597
C4B C 0.5758(3) 0.57823(10) 0.84216(8)
C5B C 0.5820(3) 0.55774(11) 0.82131(10)
H2B H 0.6366 0.5472 0.8186
C6B C 0.5076(3) 0.55290(11) 0.80455(9)
C7B C 0.4265(3) 0.56884(10) 0.80842(9)
H3B H 0.3766 0.5659 0.7971
C8B C 0.6532(4) 0.58332(11) 0.86064(10)
C9B C 0.5781(4) 0.51776(11) 0.77291(10)
C10B C 0.5597(3) 0.49699(11) 0.74955(10)
C11B C 0.6261(4) 0.49336(11) 0.73006(10)
H4B H 0.6817 0.5038 0.7313
C12B C 0.6104(4) 0.47412(11) 0.70850(10)
H5B H 0.6551 0.4717 0.6954
C13B C 0.5273(3) 0.45864(11) 0.70681(9)
C14B C 0.4604(4) 0.46196(11) 0.72662(9)
H6B H 0.4054 0.4512 0.7256
C15B C 0.4761(3) 0.48128(11) 0.74767(10)
H7B H 0.4311 0.4839 0.7606
C16B C 0.5116(4) 0.43711(11) 0.68394(10)
N1B N 0.5062(3) 0.53202(10) 0.78252(8)
H8B H 0.4538 0.5287 0.7751
O1B O 0.2643(2) 0.60093(8) 0.81955(6)
O2B O 0.3222(2) 0.62728(7) 0.85034(6)
O3B O 0.6186(3) 0.58651(8) 0.88254(7)
O4B O 0.7358(2) 0.58425(8) 0.85505(6)
O5B O 0.6576(3) 0.52105(7) 0.78011(7)
O6B O 0.5453(2) 0.44228(8) 0.66202(6)
O7B O 0.4623(2) 0.41634(7) 0.69197(7)
O1M O 0.7643(2) 0.64907(8) 0.93045(6)
O3O O 0.6314(3) 0.66349(8) 0.88254(7)
O4M O 0.2358(2) 0.66575(8) 0.89495(6)
O4O O 0.5142(2) 0.66575(8) 0.85505(6)
O6Q O 0.4547(2) 0.69228(8) 0.91202(6)
O6AA O 0.2953(2) 0.69228(8) 0.83798(6)
O7P O 0.7123(2) 0.58366(7) 0.94197(7)
O7Q O 0.5377(2) 0.66634(7) 0.94197(7)
Eu1B Eu 0.1250 0.6250 0.830261(6)
Eu1P Eu 0.3750 0.3750 1.080261(6)
Eu1W Eu 0.3750 0.3750 0.669739(6)
Eu2M Eu -0.1250 0.578736(6) 0.8750
Eu2M_2 Eu 0.8750 0.578736(6) 0.8750
Eu2U Eu 0.6250 0.421264(6) 0.6250
Eu2CA Eu 0.1250 0.421264(6) 1.1250
loop_
_geom_bond_atom_site_label_1
_geom_bond_atom_site_label_2
_geom_bond_site_symmetry_1
_geom_bond_site_symmetry_2
C1 C2 1_555 1_555
C2 C3 1_555 1_555
C3 H1 1_555 1_555
C4 C3 1_555 1_555
C5 C4 1_555 1_555
H2 C5 1_555 1_555
C6 C5 1_555 1_555
C7 C2 1_555 1_555
H3 C7 1_555 1_555
C8 C4 1_555 1_555
C9 C10 1_555 1_555
C10 C11 1_555 1_555
C11 H4 1_555 1_555
C12 C11 1_555 1_555
H5 C12 1_555 1_555
C13 C12 1_555 1_555
C14 C13 1_555 1_555
H6 C14 1_555 1_555
C15 C10 1_555 1_555
H7 C15 1_555 1_555
C16 C13 1_555 1_555
N1 C6 1_555 1_555
H8 N1 1_555 1_555
O1 C1 1_555 1_555
O2 C1 1_555 1_555
O3 C8 1_555 1_555
O4 C8 1_555 1_555
O5 C9 1_555 1_555
O6 C16 1_555 1_555
O7 C16 1_555 1_555
O8 H9 1_555 1_555
O9 H10 1_555 1_555
Eu1 O1 1_555 1_555
Eu2 O2 1_555 1_555
H9M O8 1_555 1_555
H10B O9 1_555 1_555
C1B C2B 1_555 1_555
C2B C3B 1_555 1_555
C3B H1B 1_555 1_555
C4B C3B 1_555 1_555
C5B C4B 1_555 1_555
H2B C5B 1_555 1_555
C6B C5B 1_555 1_555
C7B C2B 1_555 1_555
H3B C7B 1_555 1_555
C8B C4B 1_555 1_555
C9B C10B 1_555 1_555
C10B C11B 1_555 1_555
C11B H4B 1_555 1_555
C12B C11B 1_555 1_555
H5B C12B 1_555 1_555
C13B C12B 1_555 1_555
C14B C13B 1_555 1_555
H6B C14B 1_555 1_555
C15B C10B 1_555 1_555
H7B C15B 1_555 1_555
C16B C13B 1_555 1_555
N1B C6B 1_555 1_555
H8B N1B 1_555 1_555
O1B C1B 1_555 1_555
O2B Eu2 1_555 1_555
O3B Eu1 1_555 1_555
O4B C8B 1_555 1_555
O5B C9B 1_555 1_555
O6B C16B 1_555 1_555
O7B C16B 1_555 1_555
O1M Eu1 1_555 1_555
O3O Eu1 1_555 1_555
O4M Eu2 1_555 1_555
O4O Eu2 1_555 1_555
O6Q Eu2 1_555 1_555
O6AA Eu2 1_555 1_555
O7P Eu1 1_555 1_555
O7Q Eu1 1_555 1_555
Eu1B O3 1_555 1_555
Eu1P O7 1_555 1_555
Eu1W O7B 1_555 1_555
Eu2M O4 1_555 1_555
Eu2M_2 O4B 1_555 1_555
Eu2U O6B 1_555 1_555
Eu2CA O6 1_555 1_555
C6 C7 1_555 1_555
C9 N1 1_555 1_555
C14 C15 1_555 1_555
O8 Eu1 1_555 1_555
O9 Eu2 1_555 1_555
C1B O2B 1_555 1_555
C6B C7B 1_555 1_555
C8B O3B 1_555 1_555
C9B N1B 1_555 1_555
C14B C15B 1_555 1_555
O1B Eu1B 1_555 1_555

#END
