
#######################################################################
#
#                 Cambridge Crystallographic Data Centre
#                                CCDC 
#
#######################################################################
#
# If this CIF has been generated from an entry in the Cambridge 
# Structural Database, then it will include bibliographic, chemical, 
# crystal, experimental, refinement or atomic coordinate data resulting 
# from the CCDC's data processing and validation procedures.
#
#######################################################################

data_NUTYIM
_chemical_formula_moiety         '(C32 H20 N2 O16 Tb2)n'
_symmetry_cell_setting           orthorhombic
_symmetry_space_group_name_H-M   'F d d d'
_symmetry_Int_Tables_number      70
_space_group_name_Hall           '-F 2uv 2vw'
loop_
_symmetry_equiv_pos_site_id
_symmetry_equiv_pos_as_xyz
1 x,y,z
2 3/4-x,3/4-y,z
3 3/4-x,y,3/4-z
4 x,3/4-y,3/4-z
5 x,1/2+y,1/2+z
6 3/4-x,1/4-y,1/2+z
7 3/4-x,1/2+y,1/4-z
8 x,1/4-y,1/4-z
9 1/2+x,y,1/2+z
10 1/4-x,3/4-y,1/2+z
11 1/4-x,y,1/4-z
12 1/2+x,3/4-y,1/4-z
13 1/2+x,1/2+y,z
14 1/4-x,1/4-y,z
15 1/4-x,1/2+y,3/4-z
16 1/2+x,1/4-y,3/4-z
17 -x,-y,-z
18 1/4+x,1/4+y,-z
19 1/4+x,-y,1/4+z
20 -x,1/4+y,1/4+z
21 -x,1/2-y,1/2-z
22 1/4+x,3/4+y,1/2-z
23 1/4+x,1/2-y,3/4+z
24 -x,3/4+y,3/4+z
25 1/2-x,-y,1/2-z
26 3/4+x,1/4+y,1/2-z
27 3/4+x,-y,3/4+z
28 1/2-x,1/4+y,3/4+z
29 1/2-x,1/2-y,-z
30 3/4+x,3/4+y,-z
31 3/4+x,1/2-y,1/4+z
32 1/2-x,3/4+y,1/4+z
_cell_length_a                   14.4927(11)
_cell_length_b                   44.273(2)
_cell_length_c                   50.103(2)
_cell_angle_alpha                90
_cell_angle_beta                 90
_cell_angle_gamma                90
_cell_volume                     32147.9
loop_
_atom_site_label
_atom_site_type_symbol
_atom_site_fract_x
_atom_site_fract_y
_atom_site_fract_z
C1 C 0.4167(3) 0.60655(11) 0.91544(8)
C2 C 0.33005(15) 0.58954(6) 0.92059(5)
C3 C 0.25505(18) 0.59416(6) 0.90379(5)
H1 H 0.2593 0.6079 0.8898
C4 C 0.17364(15) 0.57821(6) 0.90787(5)
C5 C 0.16724(14) 0.55765(6) 0.92875(5)
H2 H 0.1128 0.5470 0.9315
C6 C 0.24224(18) 0.55303(6) 0.94555(5)
C7 C 0.32365(15) 0.56897(6) 0.94147(5)
H3 H 0.3738 0.5659 0.9527
C8 C 0.0968(3) 0.58330(10) 0.88934(8)
C9 C 0.1713(3) 0.51793(10) 0.97692(9)
C10 C 0.19079(19) 0.49695(6) 1.00035(5)
C11 C 0.12375(16) 0.49318(7) 1.01991(6)
H4 H 0.0682 0.5036 1.0187
C12 C 0.13979(17) 0.47385(7) 1.04128(5)
H5 H 0.0949 0.4713 1.0544
C13 C 0.22286(19) 0.45830(6) 1.04309(5)
C14 C 0.28990(16) 0.46206(7) 1.02353(5)
H6 H 0.3455 0.4517 1.0247
C15 C 0.27386(17) 0.48139(7) 1.00216(5)
H7 H 0.3187 0.4839 0.9891
C16 C 0.2390(3) 0.43716(10) 1.06608(9)
N1 N 0.2436(3) 0.53197(8) 0.96745(7)
H8 H 0.2984 0.5282 0.9752
O1 O 0.4850(2) 0.60119(7) 0.93052(6)
O2 O 0.4285(2) 0.62707(6) 0.89966(6)
O3 O 0.1325(2) 0.58595(7) 0.86751(6)
O4 O 0.0140(2) 0.58463(7) 0.89463(6)
O5 O 0.0927(2) 0.52094(6) 0.96991(6)
O6 O 0.2066(2) 0.44253(7) 1.08804(6)
O7 O 0.2866(2) 0.41636(7) 1.05758(7)
O8 O 0.6250 0.6250 0.96808(8)
H9 H 0.5729 0.6363 0.9745
O9 O 0.3750 0.72526(9) 0.8750
H10 H 0.3235 0.7325 0.8648
Tb1 Tb 0.6250 0.6250 0.919810(5)
Tb2 Tb 0.3750 0.671290(6) 0.8750
H9M H 0.6771 0.6137 0.9745
H10B H 0.4265 0.7325 0.8852
C1B C 0.3333(3) 0.60655(11) 0.83456(8)
C2B C 0.41995(15) 0.58954(6) 0.82941(5)
C3B C 0.49495(18) 0.59416(6) 0.84621(5)
H1B H 0.4907 0.6079 0.8602
C4B C 0.57636(15) 0.57821(6) 0.84213(5)
C5B C 0.58276(14) 0.55765(6) 0.82125(5)
H2B H 0.6372 0.5470 0.8185
C6B C 0.50776(18) 0.55303(6) 0.80445(5)
C7B C 0.42635(15) 0.56897(6) 0.80853(5)
H3B H 0.3762 0.5659 0.7973
C8B C 0.6532(3) 0.58330(10) 0.86066(8)
C9B C 0.5787(3) 0.51793(10) 0.77308(9)
C10B C 0.55921(19) 0.49695(6) 0.74965(5)
C11B C 0.62625(16) 0.49318(7) 0.73009(6)
H4B H 0.6818 0.5036 0.7313
C12B C 0.61021(17) 0.47385(7) 0.70872(5)
H5B H 0.6551 0.4713 0.6956
C13B C 0.52714(19) 0.45830(6) 0.70691(5)
C14B C 0.46010(16) 0.46206(7) 0.72647(5)
H6B H 0.4045 0.4517 0.7253
C15B C 0.47614(17) 0.48139(7) 0.74784(5)
H7B H 0.4313 0.4839 0.7609
C16B C 0.5110(3) 0.43716(10) 0.68392(9)
N1B N 0.5064(3) 0.53197(8) 0.78255(7)
H8B H 0.4516 0.5282 0.7748
O1B O 0.2650(2) 0.60119(7) 0.81948(6)
O2B O 0.3215(2) 0.62707(6) 0.85034(6)
O3B O 0.6175(2) 0.58595(7) 0.88249(6)
O4B O 0.7360(2) 0.58463(7) 0.85537(6)
O5B O 0.6573(2) 0.52094(6) 0.78009(6)
O6B O 0.5434(2) 0.44253(7) 0.66196(6)
O7B O 0.4634(2) 0.41636(7) 0.69242(7)
O1M O 0.7650(2) 0.64881(7) 0.93052(6)
O3O O 0.6325(2) 0.66405(7) 0.88249(6)
O4M O 0.2360(2) 0.66537(7) 0.89463(6)
O4O O 0.5140(2) 0.66537(7) 0.85537(6)
O6Q O 0.4566(2) 0.69253(7) 0.91196(6)
O6AA O 0.2934(2) 0.69253(7) 0.83804(6)
O7P O 0.7134(2) 0.58364(7) 0.94242(7)
O7Q O 0.5366(2) 0.66636(7) 0.94242(7)
Tb1B Tb 0.1250 0.6250 0.830190(5)
Tb1P Tb 0.3750 0.3750 1.080190(5)
Tb1W Tb 0.3750 0.3750 0.669810(5)
Tb2M Tb -0.1250 0.578710(6) 0.8750
Tb2M_2 Tb 0.8750 0.578710(6) 0.8750
Tb2U Tb 0.6250 0.421290(6) 0.6250
Tb2CA Tb 0.1250 0.421290(6) 1.1250
loop_
_geom_bond_atom_site_label_1
_geom_bond_atom_site_label_2
_geom_bond_site_symmetry_1
_geom_bond_site_symmetry_2
C1 C2 1_555 1_555
C2 C3 1_555 1_555
C3 H1 1_555 1_555
C4 C3 1_555 1_555
C5 C4 1_555 1_555
H2 C5 1_555 1_555
C6 C5 1_555 1_555
C7 C2 1_555 1_555
H3 C7 1_555 1_555
C8 C4 1_555 1_555
C9 C10 1_555 1_555
C10 C11 1_555 1_555
C11 H4 1_555 1_555
C12 C11 1_555 1_555
H5 C12 1_555 1_555
C13 C12 1_555 1_555
C14 C13 1_555 1_555
H6 C14 1_555 1_555
C15 C10 1_555 1_555
H7 C15 1_555 1_555
C16 C13 1_555 1_555
N1 C6 1_555 1_555
H8 N1 1_555 1_555
O1 C1 1_555 1_555
O2 C1 1_555 1_555
O3 C8 1_555 1_555
O4 C8 1_555 1_555
O5 C9 1_555 1_555
O6 C16 1_555 1_555
O7 C16 1_555 1_555
O8 H9 1_555 1_555
O9 H10 1_555 1_555
Tb1 O1 1_555 1_555
Tb2 O2 1_555 1_555
H9M O8 1_555 1_555
H10B O9 1_555 1_555
C1B C2B 1_555 1_555
C2B C3B 1_555 1_555
C3B H1B 1_555 1_555
C4B C3B 1_555 1_555
C5B C4B 1_555 1_555
H2B C5B 1_555 1_555
C6B C5B 1_555 1_555
C7B C2B 1_555 1_555
H3B C7B 1_555 1_555
C8B C4B 1_555 1_555
C9B C10B 1_555 1_555
C10B C11B 1_555 1_555
C11B H4B 1_555 1_555
C12B C11B 1_555 1_555
H5B C12B 1_555 1_555
C13B C12B 1_555 1_555
C14B C13B 1_555 1_555
H6B C14B 1_555 1_555
C15B C10B 1_555 1_555
H7B C15B 1_555 1_555
C16B C13B 1_555 1_555
N1B C6B 1_555 1_555
H8B N1B 1_555 1_555
O1B C1B 1_555 1_555
O2B Tb2 1_555 1_555
O3B Tb1 1_555 1_555
O4B C8B 1_555 1_555
O5B C9B 1_555 1_555
O6B C16B 1_555 1_555
O7B C16B 1_555 1_555
O1M Tb1 1_555 1_555
O3O Tb1 1_555 1_555
O4M Tb2 1_555 1_555
O4O Tb2 1_555 1_555
O6Q Tb2 1_555 1_555
O6AA Tb2 1_555 1_555
O7P Tb1 1_555 1_555
O7Q Tb1 1_555 1_555
Tb1B O3 1_555 1_555
Tb1P O7 1_555 1_555
Tb1W O7B 1_555 1_555
Tb2M O4 1_555 1_555
Tb2M_2 O4B 1_555 1_555
Tb2U O6B 1_555 1_555
Tb2CA O6 1_555 1_555
C6 C7 1_555 1_555
C9 N1 1_555 1_555
C14 C15 1_555 1_555
O8 Tb1 1_555 1_555
O9 Tb2 1_555 1_555
C1B O2B 1_555 1_555
C6B C7B 1_555 1_555
C8B O3B 1_555 1_555
C9B N1B 1_555 1_555
C14B C15B 1_555 1_555
O1B Tb1B 1_555 1_555

#END
