
#######################################################################
#
#                 Cambridge Crystallographic Data Centre
#                                CCDC 
#
#######################################################################
#
# If this CIF has been generated from an entry in the Cambridge 
# Structural Database, then it will include bibliographic, chemical, 
# crystal, experimental, refinement or atomic coordinate data resulting 
# from the CCDC's data processing and validation procedures.
#
#######################################################################

data_NUTYOS
_chemical_formula_moiety         '(C64 H40 N4 Nd4 O32)n'
_symmetry_cell_setting           triclinic
_symmetry_space_group_name_H-M   'P -1'
_symmetry_Int_Tables_number      2
_space_group_name_Hall           '-P 1'
loop_
_symmetry_equiv_pos_site_id
_symmetry_equiv_pos_as_xyz
1 x,y,z
2 -x,-y,-z
_cell_length_a                   14.331(2)
_cell_length_b                   23.7137(15)
_cell_length_c                   25.4868(14)
_cell_angle_alpha                86.039(2)
_cell_angle_beta                 74.929(3)
_cell_angle_gamma                74.441(2)
_cell_volume                     8057.06
loop_
_atom_site_label
_atom_site_type_symbol
_atom_site_fract_x
_atom_site_fract_y
_atom_site_fract_z
C1 C 0.2678(3) 0.8569(2) 0.62176(18)
C2 C 0.2811(4) 0.9023(2) 0.5773(2)
C3 C 0.2214(4) 0.9149(2) 0.5401(2)
H1 H 0.1713 0.8961 0.5423
C4 C 0.2385(3) 0.9563(2) 0.4997(2)
H2 H 0.1980 0.9662 0.4756
C5 C 0.3139(3) 0.9826(2) 0.4953(2)
C6 C 0.3746(3) 0.9696(2) 0.53167(19)
H3 H 0.4259 0.9878 0.5283
C7 C 0.3576(4) 0.9295(2) 0.5727(2)
H4 H 0.3974 0.9208 0.5973
C8 C 0.3346(3) 1.0283(2) 0.45205(19)
C9 C 0.2606(3) 1.0994(2) 0.39235(18)
C10 C 0.1687(3) 1.12821(18) 0.38172(16)
H5 H 0.1107 1.1184 0.4012
C11 C 0.1635(3) 1.17276(19) 0.34085(16)
C12 C 0.2500(3) 1.18440(18) 0.30947(16)
H6 H 0.2469 1.2115 0.2814
C13 C 0.3405(3) 1.15638(19) 0.31924(14)
C14 C 0.3464(3) 1.11335(17) 0.3613(2)
H7 H 0.4082 1.0946 0.3678
C15 C 0.4346(3) 1.1693(2) 0.28576(17)
C16 C 0.0603(3) 1.2020(2) 0.33263(17)
C17 C 0.3756(3) 0.8733(2) 0.8656(2)
C18 C 0.3172(4) 0.9173(2) 0.9081(2)
C19 C 0.2185(4) 0.9445(2) 0.9092(2)
H8 H 0.1914 0.9376 0.8816
C20 C 0.1586(4) 0.9828(2) 0.9524(2)
H9 H 0.0915 1.0002 0.9540
C21 C 0.2003(3) 0.9940(2) 0.9917(2)
C22 C 0.2996(3) 0.9680(2) 0.9909(2)
H10 H 0.3271 0.9760 1.0179
C23 C 0.3574(4) 0.9294(2) 0.9484(2)
H11 H 0.4241 0.9115 0.9474
C24 C 0.1353(4) 1.0367(2) 1.0367(2)
C25 C 0.1364(4) 1.1056(2) 1.10420(19)
C26 C 0.0390(3) 1.1120(2) 1.13533(18)
H12 H -0.0008 1.0902 1.1276
C27 C 0.0019(3) 1.15183(18) 1.17853(16)
C28 C 0.0625(3) 1.1839(2) 1.1910(2)
H13 H 0.0381 1.2097 1.2203
C29 C 0.1589(3) 1.17651(17) 1.15921(18)
C30 C 0.1981(4) 1.1377(2) 1.11521(19)
H14 H 0.2630 1.1334 1.0939
C31 C 0.2219(3) 1.21023(17) 1.17055(16)
C32 C -0.1061(3) 1.1639(2) 1.2097(2)
C33 C 0.2415(3) 0.37060(19) 1.13730(17)
C34 C 0.2245(3) 0.4149(2) 1.0930(2)
C35 C 0.3087(4) 0.4230(2) 1.0542(2)
H15 H 0.3735 0.4016 1.0540
C36 C 0.2869(4) 0.4670(2) 1.0147(2)
H16 H 0.3394 0.4791 0.9911
C37 C 0.1894(4) 0.4925(2) 1.0105(2)
C38 C 0.1117(4) 0.4825(2) 1.0475(2)
H17 H 0.0466 0.4998 1.0450
C39 C 0.1303(3) 0.4447(2) 1.0912(2)
H18 H 0.0767 0.4402 1.1194
C40 C 0.1624(4) 0.5379(2) 0.9680(2)
C41 C 0.2323(3) 0.60664(19) 0.89962(17)
C42 C 0.3027(3) 0.6381(2) 0.88950(19)
H19 H 0.3471 0.6327 0.9114
C43 C 0.3084(3) 0.6782(2) 0.8469(2)
C44 C 0.2385(3) 0.6876(2) 0.81663(17)
H20 H 0.2398 0.7152 0.7889
C45 C 0.1673(3) 0.6570(2) 0.82691(18)
C46 C 0.1622(3) 0.61572(18) 0.87154(18)
H21 H 0.1120 0.5961 0.8805
C47 C 0.0906(3) 0.6674(2) 0.79599(19)
C48 C 0.3876(4) 0.7115(2) 0.8376(2)
C49 C 0.9057(4) 0.3752(2) 0.3653(2)
C50 C 0.8387(3) 0.41864(18) 0.40739(18)
C51 C 0.7359(4) 0.4233(2) 0.4240(2)
H22 H 0.7088 0.3992 0.4086
C52 C 0.6741(3) 0.46367(19) 0.4633(2)
H23 H 0.6056 0.4672 0.4735
C53 C 0.7146(4) 0.4983(2) 0.4869(2)
C54 C 0.8184(4) 0.4929(2) 0.47246(18)
H24 H 0.8460 0.5151 0.4899
C55 C 0.8782(4) 0.4540(2) 0.4320(2)
H25 H 0.9464 0.4514 0.4209
C56 C 0.6441(3) 0.5409(2) 0.52989(19)
C57 C 0.6313(3) 0.6073(2) 0.6025(2)
C58 C 0.5280(3) 0.63420(18) 0.61236(17)
H26 H 0.4906 0.6263 0.5903
C59 C 0.4830(3) 0.6730(2) 0.65604(18)
C60 C 0.5398(3) 0.68370(19) 0.68953(16)
H27 H 0.5094 0.7096 0.7185
C61 C 0.6395(3) 0.6564(2) 0.6801(2)
C62 C 0.6863(3) 0.61849(19) 0.63658(18)
H28 H 0.7544 0.6005 0.6300
C63 C 0.6974(3) 0.6681(2) 0.71758(19)
C64 C 0.3740(4) 0.7040(2) 0.66688(19)
N1 N 0.2360(3) 0.56243(17) 0.94269(15)
H29 H 0.2889 0.5325 0.9288
N2 N 0.6790(3) 0.56867(18) 0.56060(18)
H30 H 0.7432 0.5611 0.5528
N3 N 0.2612(3) 1.05508(18) 0.43272(17)
H31 H 0.2060 1.0453 0.4455
N4 N 0.1819(3) 1.06146(17) 1.06330(17)
H32 H 0.2250 1.0764 1.0376
Nd1 Nd 0.574651(17) 0.750654(10) 0.837982(9)
Nd2 Nd 0.327504(16) 0.833635(9) 0.746725(9)
Nd3 Nd 0.152967(18) 0.747812(10) 0.670402(10)
Nd4 Nd -0.080683(17) 0.662644(10) 0.743709(9)
O1 O 0.3095(2) 0.86120(15) 0.65786(14)
O2 O 0.2318(2) 0.81747(15) 0.61013(14)
O3 O 0.4235(2) 1.03177(15) 0.43430(14)
O4 O 0.5100(2) 1.15762(13) 0.30111(13)
O5 O 0.4329(2) 1.19061(14) 0.24013(12)
O6 O 0.0293(2) 1.25555(13) 0.31273(12)
O7 O -0.0078(2) 1.17899(13) 0.34808(14)
O8 O 0.3446(2) 0.87756(14) 0.82359(14)
O9 O 0.4513(3) 0.83884(14) 0.87180(14)
O10 O 0.0490(3) 1.04580(15) 1.04642(15)
O11 O 0.3111(2) 1.19813(12) 1.14600(11)
O12 O 0.1850(2) 1.25281(12) 1.20289(11)
O13 O -0.1370(2) 1.18520(14) 1.25639(13)
O14 O -0.1670(2) 1.14963(14) 1.19014(14)
O15 O 0.3891(2) 0.75023(13) 0.80330(12)
O16 O 0.4554(2) 0.69395(14) 0.86262(13)
O17 O 0.1003(2) 0.70041(14) 0.75676(13)
O18 O 0.0193(2) 0.64588(16) 0.80924(14)
O19 O 0.0894(2) 0.54278(15) 0.95298(14)
O20 O 0.3223(2) 0.33246(13) 1.12784(12)
O21 O 0.1786(2) 0.38814(14) 1.17725(12)
O22 O 0.6537(2) 0.69166(13) 0.75975(12)
O23 O 0.7884(2) 0.65847(12) 0.70229(11)
O24 O 0.3334(2) 0.74314(13) 0.70013(12)
O25 O 0.3237(2) 0.68795(15) 0.63880(14)
O26 O 0.5541(2) 0.54581(15) 0.54088(15)
O27 O 0.9957(2) 0.37156(13) 0.34842(12)
O28 O 0.8673(3) 0.35022(15) 0.33996(14)
O29 O 0.533(3) 0.7626(16) 0.9413(18)
H33 H 0.5429 0.7990 0.9497
H34 H 0.5750 0.7308 0.9563
O30 O 0.281(4) 0.945(3) 0.744(2)
H35 H 0.3222 0.9576 0.7122
H36 H 0.2121 0.9591 0.7441
O31 O 0.155(5) 0.735(3) 0.576(3)
H37 H 0.1377 0.7729 0.5594
H38 H 0.1073 0.7140 0.5745
O32 O -0.006(2) 0.5620(14) 0.7533(10)
H39 H -0.0439 0.5474 0.7858
H40 H -0.0065 0.5410 0.7224
Nd1A Nd 0.425349(17) 0.249346(10) 1.162018(9)
Nd1A_2 Nd 0.425349(17) 1.249346(10) 0.162018(9)
Nd1A_3 Nd 0.425349(17) 1.249346(10) 1.162018(9)
Nd2A Nd -0.327504(16) 1.166365(9) 1.253275(9)
Nd2A_2 Nd 0.672496(16) 1.166365(9) 0.253275(9)
Nd3A Nd -0.152967(18) 1.252188(10) 0.329598(10)
Nd3A_2 Nd -0.152967(18) 1.252188(10) 1.329598(10)
Nd3A_3 Nd 0.847033(18) 0.252188(10) 0.329598(10)
Nd4_2 Nd 0.919317(17) 0.662644(10) 0.743709(9)
Nd4A Nd 0.080683(17) 0.337356(10) 1.256291(9)
Nd4A_2 Nd 0.080683(17) 1.337356(10) 0.256291(9)
Nd4A_3 Nd 0.080683(17) 1.337356(10) 1.256291(9)
Nd4A_4 Nd 1.080683(17) 0.337356(10) 0.256291(9)
O4A O 0.4900(2) 0.84238(13) 0.69889(13)
O5A O 0.5671(2) 0.80939(14) 0.75987(12)
O6A O -0.0293(2) 0.74445(13) 0.68727(12)
O7A O 0.0078(2) 0.82101(13) 0.65192(14)
O11A O 0.6889(2) 0.80187(12) 0.85400(11)
O12A O -0.1850(2) 0.74719(12) 0.79711(11)
O13A O 0.1370(2) 0.81480(14) 0.74361(13)
O14A O 0.1670(2) 0.85037(14) 0.80986(14)
O20A O 0.6777(2) 0.66754(13) 0.87216(12)
O21A O -0.1786(2) 0.61186(14) 0.82275(12)
O23_2 O -0.2116(2) 0.65847(12) 0.70229(11)
O27A O 0.0043(2) 0.62844(13) 0.65158(12)
O28A O 0.1327(3) 0.64978(15) 0.66004(14)
loop_
_geom_bond_atom_site_label_1
_geom_bond_atom_site_label_2
_geom_bond_site_symmetry_1
_geom_bond_site_symmetry_2
C1 C2 1_555 1_555
C2 C3 1_555 1_555
C3 H1 1_555 1_555
C4 C3 1_555 1_555
H2 C4 1_555 1_555
C5 C4 1_555 1_555
C6 C5 1_555 1_555
H3 C6 1_555 1_555
C7 C2 1_555 1_555
H4 C7 1_555 1_555
C8 C5 1_555 1_555
C9 C10 1_555 1_555
C10 H5 1_555 1_555
C11 C10 1_555 1_555
C12 C11 1_555 1_555
H6 C12 1_555 1_555
C13 C12 1_555 1_555
C14 C9 1_555 1_555
H7 C14 1_555 1_555
C15 C13 1_555 1_555
C16 C11 1_555 1_555
C17 C18 1_555 1_555
C18 C19 1_555 1_555
C19 H8 1_555 1_555
C20 C19 1_555 1_555
H9 C20 1_555 1_555
C21 C20 1_555 1_555
C22 C21 1_555 1_555
H10 C22 1_555 1_555
C23 C18 1_555 1_555
H11 C23 1_555 1_555
C24 C21 1_555 1_555
C25 C26 1_555 1_555
C26 H12 1_555 1_555
C27 C26 1_555 1_555
C28 C27 1_555 1_555
H13 C28 1_555 1_555
C29 C28 1_555 1_555
C30 C25 1_555 1_555
H14 C30 1_555 1_555
C31 C29 1_555 1_555
C32 C27 1_555 1_555
C33 C34 1_555 1_555
C34 C35 1_555 1_555
C35 H15 1_555 1_555
C36 C35 1_555 1_555
H16 C36 1_555 1_555
C37 C36 1_555 1_555
C38 C37 1_555 1_555
H17 C38 1_555 1_555
C39 C34 1_555 1_555
H18 C39 1_555 1_555
C40 C37 1_555 1_555
C41 C42 1_555 1_555
C42 H19 1_555 1_555
C43 C42 1_555 1_555
C44 C43 1_555 1_555
H20 C44 1_555 1_555
C45 C44 1_555 1_555
C46 C41 1_555 1_555
H21 C46 1_555 1_555
C47 C45 1_555 1_555
C48 C43 1_555 1_555
C49 C50 1_555 1_555
C50 C51 1_555 1_555
C51 H22 1_555 1_555
C52 C51 1_555 1_555
H23 C52 1_555 1_555
C53 C52 1_555 1_555
C54 C53 1_555 1_555
H24 C54 1_555 1_555
C55 C50 1_555 1_555
H25 C55 1_555 1_555
C56 C53 1_555 1_555
C57 C58 1_555 1_555
C58 H26 1_555 1_555
C59 C58 1_555 1_555
C60 C59 1_555 1_555
H27 C60 1_555 1_555
C61 C60 1_555 1_555
C62 C57 1_555 1_555
H28 C62 1_555 1_555
C63 C61 1_555 1_555
C64 C59 1_555 1_555
N1 C40 1_555 1_555
H29 N1 1_555 1_555
N2 C56 1_555 1_555
H30 N2 1_555 1_555
N3 C8 1_555 1_555
H31 N3 1_555 1_555
N4 C24 1_555 1_555
H32 N4 1_555 1_555
Nd1 O9 1_555 1_555
Nd2 O1 1_555 1_555
Nd3 O2 1_555 1_555
Nd4 O18 1_555 1_555
O1 C1 1_555 1_555
O2 C1 1_555 1_555
O3 C8 1_555 1_555
O4 C15 1_555 1_555
O5 C15 1_555 1_555
O6 C16 1_555 1_555
O7 C16 1_555 1_555
O8 C17 1_555 1_555
O9 C17 1_555 1_555
O10 C24 1_555 1_555
O11 C31 1_555 1_555
O12 C31 1_555 1_555
O13 C32 1_555 1_555
O14 C32 1_555 1_555
O15 C48 1_555 1_555
O16 C48 1_555 1_555
O17 C47 1_555 1_555
O18 C47 1_555 1_555
O19 C40 1_555 1_555
O20 C33 1_555 1_555
O21 C33 1_555 1_555
O22 C63 1_555 1_555
O23 C63 1_555 1_555
O24 C64 1_555 1_555
O25 C64 1_555 1_555
O26 C56 1_555 1_555
O27 C49 1_555 1_555
O28 C49 1_555 1_555
O29 Nd1 1_555 1_555
H33 O29 1_555 1_555
H34 O29 1_555 1_555
O30 Nd2 1_555 1_555
H35 O30 1_555 1_555
H36 O30 1_555 1_555
O31 Nd3 1_555 1_555
H37 O31 1_555 1_555
H38 O31 1_555 1_555
O32 Nd4 1_555 1_555
H39 O32 1_555 1_555
H40 O32 1_555 1_555
Nd1A O20 1_555 1_555
Nd1A_2 O5 1_555 1_555
Nd1A_3 O11 1_555 1_555
Nd2A O13 1_555 1_555
Nd2A_2 O4 1_555 1_555
Nd3A O6 1_555 1_555
Nd3A_2 O13 1_555 1_555
Nd3A_3 O28 1_555 1_555
Nd4_2 O23 1_555 1_555
Nd4A O21 1_555 1_555
Nd4A_2 O6 1_555 1_555
Nd4A_3 O12 1_555 1_555
Nd4A_4 O27 1_555 1_555
O4A Nd2 1_555 1_555
O5A Nd1 1_555 1_555
O6A Nd3 1_555 1_555
O7A Nd3 1_555 1_555
O11A Nd1 1_555 1_555
O12A Nd4 1_555 1_555
O13A Nd2 1_555 1_555
O14A Nd2 1_555 1_555
O20A Nd1 1_555 1_555
O21A Nd4 1_555 1_555
O23_2 Nd4 1_555 1_555
O27A Nd4 1_555 1_555
O28A Nd3 1_555 1_555
C6 C7 1_555 1_555
C9 N3 1_555 1_555
C13 C14 1_555 1_555
C22 C23 1_555 1_555
C25 N4 1_555 1_555
C29 C30 1_555 1_555
C38 C39 1_555 1_555
C41 N1 1_555 1_555
C45 C46 1_555 1_555
C54 C55 1_555 1_555
C57 N2 1_555 1_555
C61 C62 1_555 1_555
Nd1 O16 1_555 1_555
Nd1 O22 1_555 1_555
Nd2 O8 1_555 1_555
Nd2 O15 1_555 1_555
Nd2 O24 1_555 1_555
Nd3 O17 1_555 1_555
Nd3 O24 1_555 1_555
Nd3 O25 1_555 1_555
Nd3 O13A 1_555 1_555
Nd4 O6A 1_555 1_555
O7 Nd3A 1_555 1_555
O14 Nd2A 1_555 1_555

#END
