
#######################################################################
#
#                 Cambridge Crystallographic Data Centre
#                                CCDC 
#
#######################################################################
#
# If this CIF has been generated from an entry in the Cambridge 
# Structural Database, then it will include bibliographic, chemical, 
# crystal, experimental, refinement or atomic coordinate data resulting 
# from the CCDC's data processing and validation procedures.
#
#######################################################################

data_ESIPUR02
_chemical_formula_moiety         '(C51 H26 Cu2 F18 O12)n'
_symmetry_cell_setting           monoclinic
_symmetry_space_group_name_H-M   'P 2/c'
_symmetry_Int_Tables_number      13
_space_group_name_Hall           '-P 2yc'
loop_
_symmetry_equiv_pos_site_id
_symmetry_equiv_pos_as_xyz
1 x,y,z
2 -x,y,1/2-z
3 -x,-y,-z
4 x,-y,1/2+z
_cell_length_a                   18.760(4)
_cell_length_b                   7.2800(15)
_cell_length_c                   23.402(9)
_cell_angle_alpha                90
_cell_angle_beta                 123.12(2)
_cell_angle_gamma                90
_cell_volume                     2676.8
loop_
_atom_site_label
_atom_site_type_symbol
_atom_site_fract_x
_atom_site_fract_y
_atom_site_fract_z
Cu1 Cu -0.45015(3) -0.35343(6) -0.47806(2)
F1 F -0.08142(15) -1.2339(4) -0.56590(12)
F2 F -0.18220(17) -1.2954(4) -0.55113(12)
F3 F -0.09719(15) -1.0711(4) -0.49736(11)
F4 F -0.19252(17) -0.7527(3) -0.66843(14)
F5 F -0.08150(15) -0.8188(4) -0.57108(14)
F6 F -0.11284(16) -0.9764(4) -0.65904(14)
F7 F 0.07147(19) 0.6031(4) -0.25999(18)
F8 F -0.05398(19) 0.5419(4) -0.34545(18)
F9 F 0.04988(18) 0.3704(4) -0.32376(15)
O1 O -0.38488(16) -0.5142(4) -0.50339(13)
O2 O -0.47101(17) -0.7579(4) -0.54157(14)
O3 O -0.48179(16) -1.2701(4) -0.92809(12)
O4 O -0.39656(17) -1.5175(4) -0.89159(12)
O5 O -0.34837(15) -0.1437(4) -0.43603(13)
O6 O -0.2523(2) -0.3012(5) -0.44329(19)
H1 H -0.2352 -0.3829 -0.4146
C1 C -0.4066(2) -0.6741(5) -0.53013(17)
C2 C -0.3514(2) -0.7636(5) -0.55011(18)
C3 C -0.2820(3) -0.6739(6) -0.5424(2)
H2 H -0.2679 -0.5571 -0.5232
C4 C -0.2328(3) -0.7553(6) -0.5629(2)
H3 H -0.1859 -0.6932 -0.5569
C5 C -0.3706(2) -0.9393(5) -0.57735(18)
H4 H -0.4160 -1.0033 -0.5813
C6 C -0.3219(2) -1.0193(5) -0.59863(19)
H5 H -0.3357 -1.1364 -0.6176
C7 C -0.2529(2) -0.9278(5) -0.59225(18)
C8 C -0.2004(2) -1.0264(5) -0.61562(18)
C9 C -0.1395(2) -1.1568(6) -0.55716(19)
C10 C -0.1463(3) -0.8918(6) -0.6283(2)
C11 C -0.2599(2) -1.1258(5) -0.68415(17)
C12 C -0.2476(2) -1.3055(5) -0.69696(18)
H6 H -0.2032 -1.3747 -0.6624
C13 C -0.3008(2) -1.3817(5) -0.76068(18)
H7 H -0.2922 -1.5024 -0.7685
C14 C -0.3270(2) -1.0261(6) -0.73665(18)
H8 H -0.3366 -0.9063 -0.7287
C15 C -0.3796(2) -1.1028(5) -0.80068(19)
H9 H -0.4237 -1.0338 -0.8356
C16 C -0.3667(2) -1.2818(5) -0.81297(17)
C17 C -0.4196(2) -1.3632(6) -0.88323(18)
C18 C -0.2766(2) -0.1594(5) -0.42315(18)
C19 C -0.2084(2) -0.0226(5) -0.38409(19)
C20 C -0.2240(2) 0.1324(6) -0.3579(2)
H10 H -0.2787 0.1549 -0.3684
C21 C -0.1593(3) 0.2532(6) -0.3167(2)
H11 H -0.1709 0.3577 -0.3004
C22 C -0.1273(2) -0.0493(6) -0.3704(2)
H12 H -0.1165 -0.1484 -0.3897
C23 C -0.0630(2) 0.0697(5) -0.3286(2)
H13 H -0.0088 0.0496 -0.3195
C24 C -0.0771(2) 0.2202(5) -0.2994(2)
C25 C -0.0000 0.3419(7) -0.2500
C26 C 0.0176(3) 0.4657(6) -0.2946(3)
Cu1B Cu -0.54985(3) -0.64657(6) -0.52194(2)
Cu1A Cu -0.54985(3) -1.35343(6) -1.02194(2)
Cu1C Cu -0.45015(3) -1.64657(6) -0.97806(2)
Cu1A_2 Cu 0.45015(3) -0.35343(6) -0.02194(2)
Cu1C_2 Cu -0.45015(3) 0.35343(6) 0.02194(2)
Cu1A_3 Cu -0.54985(3) 0.64657(6) -0.02194(2)
F1B F -0.91858(15) 0.2339(4) -0.43410(12)
F2B F -0.81780(17) 0.2954(4) -0.44887(12)
F3B F -0.90281(15) 0.0711(4) -0.50264(11)
F4B F -0.80748(17) -0.2473(3) -0.33157(14)
F5B F -0.91850(15) -0.1812(4) -0.42892(14)
F6B F -0.88716(16) -0.0236(4) -0.34096(14)
F7A F -0.07147(19) 0.6031(4) -0.24001(18)
F8A F 0.05398(19) 0.5419(4) -0.15455(18)
F9A F -0.04988(18) 0.3704(4) -0.17624(15)
O1B O -0.61512(16) -0.4858(4) -0.49661(13)
O2B O -0.52899(17) -0.2421(4) -0.45843(14)
O3B O -0.51821(16) 0.2701(4) -0.07191(12)
O3A O -0.51821(16) -0.2701(4) -0.57191(12)
O3C O -0.48179(16) -0.7299(4) -0.42809(12)
O4B O -0.60344(17) 0.5175(4) -0.10841(12)
O4C O -0.39656(17) -0.4825(4) -0.39159(12)
O4A O -0.60344(17) -0.5175(4) -0.60841(12)
O5A O 0.34837(15) -0.1437(4) -0.06397(13)
O5B O -0.65163(15) -0.8563(4) -0.56397(13)
O6A O 0.2523(2) -0.3012(5) -0.05671(19)
H1A H 0.2352 -0.3829 -0.0854
C1B C -0.5934(2) -0.3259(5) -0.46987(17)
C2B C -0.6486(2) -0.2364(5) -0.44989(18)
C3B C -0.7180(3) -0.3261(6) -0.4576(2)
H2B H -0.7321 -0.4429 -0.4768
C4B C -0.7672(3) -0.2447(6) -0.4371(2)
H3B H -0.8141 -0.3068 -0.4431
C5B C -0.6294(2) -0.0607(5) -0.42265(18)
H4B H -0.5840 0.0033 -0.4187
C6B C -0.6781(2) 0.0193(5) -0.40137(19)
H5B H -0.6643 0.1364 -0.3824
C7B C -0.7471(2) -0.0722(5) -0.40775(18)
C8B C -0.7996(2) 0.0264(5) -0.38438(18)
C9B C -0.8605(2) 0.1568(6) -0.44284(19)
C10B C -0.8537(3) -0.1082(6) -0.3717(2)
C11B C -0.7401(2) 0.1258(5) -0.31585(17)
C12B C -0.7524(2) 0.3055(5) -0.30304(18)
H6B H -0.7968 0.3747 -0.3376
C13B C -0.6992(2) 0.3817(5) -0.23932(18)
H7B H -0.7078 0.5024 -0.2315
C14B C -0.6730(2) 0.0261(6) -0.26335(18)
H8B H -0.6634 -0.0937 -0.2713
C15B C -0.6204(2) 0.1028(5) -0.19932(19)
H9B H -0.5763 0.0338 -0.1644
C16B C -0.6333(2) 0.2818(5) -0.18703(17)
C17B C -0.5804(2) 0.3632(6) -0.11677(18)
C18A C 0.2766(2) -0.1594(5) -0.07685(18)
C19A C 0.2084(2) -0.0226(5) -0.11591(19)
C20A C 0.2240(2) 0.1324(6) -0.1421(2)
H10A H 0.2787 0.1549 -0.1316
C21A C 0.1593(3) 0.2532(6) -0.1833(2)
H11A H 0.1709 0.3577 -0.1996
C22A C 0.1273(2) -0.0493(6) -0.1296(2)
H12A H 0.1165 -0.1484 -0.1103
C23A C 0.0630(2) 0.0697(5) -0.1714(2)
H13A H 0.0088 0.0496 -0.1805
C24A C 0.0771(2) 0.2202(5) -0.2006(2)
C26A C -0.0176(3) 0.4657(6) -0.2054(3)
loop_
_geom_bond_atom_site_label_1
_geom_bond_atom_site_label_2
_geom_bond_site_symmetry_1
_geom_bond_site_symmetry_2
Cu1 O1 1_555 1_555
F1 C9 1_555 1_555
F2 C9 1_555 1_555
F3 C9 1_555 1_555
F4 C10 1_555 1_555
F5 C10 1_555 1_555
F6 C10 1_555 1_555
F7 C26 1_555 1_555
F8 C26 1_555 1_555
F9 C26 1_555 1_555
O1 C1 1_555 1_555
O2 C1 1_555 1_555
O3 C17 1_555 1_555
O4 C17 1_555 1_555
O5 Cu1 1_555 1_555
O6 H1 1_555 1_555
C1 C2 1_555 1_555
C2 C3 1_555 1_555
C3 H2 1_555 1_555
C4 C3 1_555 1_555
H3 C4 1_555 1_555
C5 C2 1_555 1_555
H4 C5 1_555 1_555
C6 C5 1_555 1_555
H5 C6 1_555 1_555
C7 C4 1_555 1_555
C8 C7 1_555 1_555
C9 C8 1_555 1_555
C10 C8 1_555 1_555
C11 C8 1_555 1_555
C12 C11 1_555 1_555
H6 C12 1_555 1_555
C13 C12 1_555 1_555
H7 C13 1_555 1_555
C14 C11 1_555 1_555
H8 C14 1_555 1_555
C15 C14 1_555 1_555
H9 C15 1_555 1_555
C16 C13 1_555 1_555
C17 C16 1_555 1_555
C18 O5 1_555 1_555
C19 C18 1_555 1_555
C20 C19 1_555 1_555
H10 C20 1_555 1_555
C21 C20 1_555 1_555
H11 C21 1_555 1_555
C22 C19 1_555 1_555
H12 C22 1_555 1_555
C23 C22 1_555 1_555
H13 C23 1_555 1_555
C24 C21 1_555 1_555
C25 C24 1_555 1_555
C26 C25 1_555 1_555
Cu1B O2 1_555 1_555
Cu1A O3 1_555 1_555
Cu1C O4 1_555 1_555
Cu1A_2 O5A 1_555 1_555
Cu1C_2 O3B 1_555 1_555
Cu1A_3 O4B 1_555 1_555
F1B C9B 1_555 1_555
F2B C9B 1_555 1_555
F3B C9B 1_555 1_555
F4B C10B 1_555 1_555
F5B C10B 1_555 1_555
F6B C10B 1_555 1_555
F7A C26A 1_555 1_555
F8A C26A 1_555 1_555
F9A C26A 1_555 1_555
O1B Cu1B 1_555 1_555
O2B Cu1 1_555 1_555
O3B C17B 1_555 1_555
O3A Cu1 1_555 1_555
O3C Cu1B 1_555 1_555
O4B C17B 1_555 1_555
O4C Cu1 1_555 1_555
O4A Cu1B 1_555 1_555
O5A C18A 1_555 1_555
O5B Cu1B 1_555 1_555
O6A H1A 1_555 1_555
C1B O1B 1_555 1_555
C2B C1B 1_555 1_555
C3B C2B 1_555 1_555
H2B C3B 1_555 1_555
C4B C3B 1_555 1_555
H3B C4B 1_555 1_555
C5B C2B 1_555 1_555
H4B C5B 1_555 1_555
C6B C5B 1_555 1_555
H5B C6B 1_555 1_555
C7B C4B 1_555 1_555
C8B C7B 1_555 1_555
C9B C8B 1_555 1_555
C10B C8B 1_555 1_555
C11B C8B 1_555 1_555
C12B C11B 1_555 1_555
H6B C12B 1_555 1_555
C13B C12B 1_555 1_555
H7B C13B 1_555 1_555
C14B C11B 1_555 1_555
H8B C14B 1_555 1_555
C15B C14B 1_555 1_555
H9B C15B 1_555 1_555
C16B C13B 1_555 1_555
C17B C16B 1_555 1_555
C18A O6A 1_555 1_555
C19A C18A 1_555 1_555
C20A C19A 1_555 1_555
H10A C20A 1_555 1_555
C21A C20A 1_555 1_555
H11A C21A 1_555 1_555
C22A C19A 1_555 1_555
H12A C22A 1_555 1_555
C23A C22A 1_555 1_555
H13A C23A 1_555 1_555
C24A C25 1_555 1_555
C26A C25 1_555 1_555
O6 C18 1_555 1_555
C6 C7 1_555 1_555
C15 C16 1_555 1_555
C23 C24 1_555 1_555
O2B C1B 1_555 1_555
C6B C7B 1_555 1_555
C15B C16B 1_555 1_555
C21A C24A 1_555 1_555
C23A C24A 1_555 1_555

#END
