
#######################################################################
#
#                 Cambridge Crystallographic Data Centre
#                                CCDC 
#
#######################################################################
#
# If this CIF has been generated from an entry in the Cambridge 
# Structural Database, then it will include bibliographic, chemical, 
# crystal, experimental, refinement or atomic coordinate data resulting 
# from the CCDC's data processing and validation procedures.
#
#######################################################################

data_TAFCIO
_chemical_formula_moiety         '(C51 H26 Co2 F18 O12)n'
_symmetry_cell_setting           monoclinic
_symmetry_space_group_name_H-M   'P 2/c'
_symmetry_Int_Tables_number      13
_space_group_name_Hall           '-P 2yc'
loop_
_symmetry_equiv_pos_site_id
_symmetry_equiv_pos_as_xyz
1 x,y,z
2 -x,y,1/2-z
3 -x,-y,-z
4 x,-y,1/2+z
_cell_length_a                   19.030(4)
_cell_length_b                   7.2300(14)
_cell_length_c                   23.644(9)
_cell_angle_alpha                90
_cell_angle_beta                 123.76(2)
_cell_angle_gamma                90
_cell_volume                     2704.54
loop_
_atom_site_label
_atom_site_type_symbol
_atom_site_fract_x
_atom_site_fract_y
_atom_site_fract_z
Co1 Co -0.449356(16) -0.33170(4) -0.475575(12)
F1 F -0.07984(9) -1.2342(3) -0.56459(7)
F2 F -0.17985(10) -1.2998(2) -0.55138(7)
F3 F -0.09578(9) -1.0744(3) -0.49622(7)
F4 F -0.19120(10) -0.7487(2) -0.66586(8)
F5 F -0.08110(9) -0.8147(2) -0.56804(8)
F6 F -0.11089(10) -0.9716(2) -0.65555(9)
F7 F 0.06948(12) 0.5879(2) -0.26071(12)
F8 F -0.05665(11) 0.5265(3) -0.34559(11)
F9 F 0.04599(11) 0.3538(3) -0.32493(9)
O1 O -0.38610(10) -0.5253(2) -0.50396(8)
O2 O -0.46858(10) -0.7742(2) -0.54361(9)
O3 O -0.48131(10) -1.2653(3) -0.92697(7)
O4 O -0.39717(11) -1.5137(3) -0.89190(8)
O5 O -0.34934(9) -0.1525(2) -0.43597(7)
O6 O -0.25728(11) -0.3162(3) -0.44428(12)
H1 H -0.2402 -0.3978 -0.4154
C1 C -0.40519(13) -0.6847(3) -0.53098(10)
C2 C -0.34982(13) -0.7702(3) -0.55043(10)
C3 C -0.28125(17) -0.6773(4) -0.54212(15)
H2 H -0.2679 -0.5600 -0.5227
C4 C -0.23200(16) -0.7557(4) -0.56226(14)
H3 H -0.1860 -0.6909 -0.5561
C5 C -0.36770(13) -0.9470(3) -0.57804(11)
H4 H -0.4125 -1.0135 -0.5827
C6 C -0.31895(13) -1.0242(3) -0.59854(11)
H5 H -0.3319 -1.1420 -0.6176
C7 C -0.25090(12) -0.9295(3) -0.59137(10)
C8 C -0.19860(12) -1.0260(3) -0.61452(10)
C9 C -0.13766(14) -1.1601(4) -0.55654(11)
C10 C -0.14488(14) -0.8887(4) -0.62554(13)
C11 C -0.25761(12) -1.1245(3) -0.68324(10)
C12 C -0.24422(13) -1.3034(3) -0.69667(10)
H6 H -0.1991 -1.3723 -0.6627
C13 C -0.29799(14) -1.3794(3) -0.76063(10)
H7 H -0.2890 -1.4998 -0.7690
C14 C -0.32568(13) -1.0243(3) -0.73530(11)
H8 H -0.3357 -0.9048 -0.7268
C15 C -0.37852(13) -1.0997(4) -0.79935(10)
H9 H -0.4231 -1.0305 -0.8338
C16 C -0.36493(13) -1.2789(3) -0.81221(10)
C17 C -0.41918(13) -1.3594(3) -0.88246(10)
C18 C -0.27841(13) -0.1728(3) -0.42372(10)
C19 C -0.20988(13) -0.0376(3) -0.38413(11)
C20 C -0.22388(14) 0.1167(3) -0.35699(13)
H10 H -0.2777 0.1397 -0.3669
C21 C -0.15860(14) 0.2368(4) -0.31531(14)
H11 H -0.1690 0.3410 -0.2980
C22 C -0.12994(13) -0.0657(3) -0.37119(12)
H12 H -0.1205 -0.1648 -0.3912
C23 C -0.06458(13) 0.0530(3) -0.32872(12)
H13 H -0.0112 0.0318 -0.3199
C24 C -0.07725(13) 0.2033(3) -0.29902(12)
C25 C -0.0000 0.3254(5) -0.2500
C26 C 0.01540(17) 0.4497(4) -0.29531(17)
Co1B Co -0.550644(16) -0.66830(4) -0.524425(12)
Co1A Co -0.550644(16) -1.33170(4) -1.024425(12)
Co1C Co -0.449356(16) -1.66830(4) -0.975575(12)
Co1A_2 Co 0.449356(16) -0.33170(4) -0.024425(12)
Co1C_2 Co -0.449356(16) 0.33170(4) 0.024425(12)
Co1A_3 Co -0.550644(16) 0.66830(4) -0.024425(12)
F1B F -0.92016(9) 0.2342(3) -0.43541(7)
F2B F -0.82015(10) 0.2998(2) -0.44862(7)
F3B F -0.90422(9) 0.0744(3) -0.50378(7)
F4B F -0.80880(10) -0.2513(2) -0.33414(8)
F5B F -0.91890(9) -0.1853(2) -0.43196(8)
F6B F -0.88911(10) -0.0284(2) -0.34445(9)
F7A F -0.06948(12) 0.5879(2) -0.23929(12)
F8A F 0.05665(11) 0.5265(3) -0.15441(11)
F9A F -0.04599(11) 0.3538(3) -0.17507(9)
O1B O -0.61390(10) -0.4747(2) -0.49604(8)
O2B O -0.53142(10) -0.2258(2) -0.45639(9)
O3B O -0.51869(10) 0.2653(3) -0.07303(7)
O3A O -0.51869(10) -0.2653(3) -0.57303(7)
O3C O -0.48131(10) -0.7347(3) -0.42697(7)
O4B O -0.60283(11) 0.5137(3) -0.10810(8)
O4C O -0.39717(11) -0.4863(3) -0.39190(8)
O4A O -0.60283(11) -0.5137(3) -0.60810(8)
O5A O 0.34934(9) -0.1525(2) -0.06403(7)
O5B O -0.65066(9) -0.8475(2) -0.56403(7)
O6A O 0.25728(11) -0.3162(3) -0.05572(12)
H1A H 0.2402 -0.3978 -0.0846
C1B C -0.59481(13) -0.3153(3) -0.46902(10)
C2B C -0.65018(13) -0.2298(3) -0.44957(10)
C3B C -0.71875(17) -0.3227(4) -0.45788(15)
H2B H -0.7321 -0.4400 -0.4773
C4B C -0.76800(16) -0.2443(4) -0.43774(14)
H3B H -0.8140 -0.3091 -0.4439
C5B C -0.63230(13) -0.0530(3) -0.42196(11)
H4B H -0.5875 0.0135 -0.4173
C6B C -0.68105(13) 0.0242(3) -0.40146(11)
H5B H -0.6681 0.1420 -0.3824
C7B C -0.74910(12) -0.0705(3) -0.40863(10)
C8B C -0.80140(12) 0.0260(3) -0.38548(10)
C9B C -0.86234(14) 0.1601(4) -0.44346(11)
C10B C -0.85512(14) -0.1113(4) -0.37446(13)
C11B C -0.74239(12) 0.1245(3) -0.31676(10)
C12B C -0.75578(13) 0.3034(3) -0.30333(10)
H6B H -0.8009 0.3723 -0.3373
C13B C -0.70201(14) 0.3794(3) -0.23937(10)
H7B H -0.7110 0.4998 -0.2310
C14B C -0.67432(13) 0.0243(3) -0.26470(11)
H8B H -0.6643 -0.0952 -0.2732
C15B C -0.62148(13) 0.0997(4) -0.20065(10)
H9B H -0.5769 0.0305 -0.1662
C16B C -0.63507(13) 0.2789(3) -0.18779(10)
C17B C -0.58082(13) 0.3594(3) -0.11754(10)
C18A C 0.27841(13) -0.1728(3) -0.07628(10)
C19A C 0.20988(13) -0.0376(3) -0.11587(11)
C20A C 0.22388(14) 0.1167(3) -0.14301(13)
H10A H 0.2777 0.1397 -0.1331
C21A C 0.15860(14) 0.2368(4) -0.18469(14)
H11A H 0.1690 0.3410 -0.2020
C22A C 0.12994(13) -0.0657(3) -0.12881(12)
H12A H 0.1205 -0.1648 -0.1088
C23A C 0.06458(13) 0.0530(3) -0.17128(12)
H13A H 0.0112 0.0318 -0.1801
C24A C 0.07725(13) 0.2033(3) -0.20098(12)
C26A C -0.01540(17) 0.4497(4) -0.20469(17)
loop_
_geom_bond_atom_site_label_1
_geom_bond_atom_site_label_2
_geom_bond_site_symmetry_1
_geom_bond_site_symmetry_2
Co1 O1 1_555 1_555
F1 C9 1_555 1_555
F2 C9 1_555 1_555
F3 C9 1_555 1_555
F4 C10 1_555 1_555
F5 C10 1_555 1_555
F6 C10 1_555 1_555
F7 C26 1_555 1_555
F8 C26 1_555 1_555
F9 C26 1_555 1_555
O1 C1 1_555 1_555
O2 C1 1_555 1_555
O3 C17 1_555 1_555
O4 C17 1_555 1_555
O5 Co1 1_555 1_555
O6 H1 1_555 1_555
C1 C2 1_555 1_555
C2 C3 1_555 1_555
C3 H2 1_555 1_555
C4 C3 1_555 1_555
H3 C4 1_555 1_555
C5 C2 1_555 1_555
H4 C5 1_555 1_555
C6 C5 1_555 1_555
H5 C6 1_555 1_555
C7 C4 1_555 1_555
C8 C7 1_555 1_555
C9 C8 1_555 1_555
C10 C8 1_555 1_555
C11 C8 1_555 1_555
C12 C11 1_555 1_555
H6 C12 1_555 1_555
C13 C12 1_555 1_555
H7 C13 1_555 1_555
C14 C11 1_555 1_555
H8 C14 1_555 1_555
C15 C14 1_555 1_555
H9 C15 1_555 1_555
C16 C13 1_555 1_555
C17 C16 1_555 1_555
C18 O5 1_555 1_555
C19 C18 1_555 1_555
C20 C19 1_555 1_555
H10 C20 1_555 1_555
C21 C20 1_555 1_555
H11 C21 1_555 1_555
C22 C19 1_555 1_555
H12 C22 1_555 1_555
C23 C22 1_555 1_555
H13 C23 1_555 1_555
C24 C21 1_555 1_555
C25 C24 1_555 1_555
C26 C25 1_555 1_555
Co1B O2 1_555 1_555
Co1A O3 1_555 1_555
Co1C O4 1_555 1_555
Co1A_2 O5A 1_555 1_555
Co1C_2 O3B 1_555 1_555
Co1A_3 O4B 1_555 1_555
F1B C9B 1_555 1_555
F2B C9B 1_555 1_555
F3B C9B 1_555 1_555
F4B C10B 1_555 1_555
F5B C10B 1_555 1_555
F6B C10B 1_555 1_555
F7A C26A 1_555 1_555
F8A C26A 1_555 1_555
F9A C26A 1_555 1_555
O1B Co1B 1_555 1_555
O2B Co1 1_555 1_555
O3B C17B 1_555 1_555
O3A Co1 1_555 1_555
O3C Co1B 1_555 1_555
O4B C17B 1_555 1_555
O4C Co1 1_555 1_555
O4A Co1B 1_555 1_555
O5A C18A 1_555 1_555
O5B Co1B 1_555 1_555
O6A H1A 1_555 1_555
C1B O1B 1_555 1_555
C2B C1B 1_555 1_555
C3B C2B 1_555 1_555
H2B C3B 1_555 1_555
C4B C3B 1_555 1_555
H3B C4B 1_555 1_555
C5B C2B 1_555 1_555
H4B C5B 1_555 1_555
C6B C5B 1_555 1_555
H5B C6B 1_555 1_555
C7B C4B 1_555 1_555
C8B C7B 1_555 1_555
C9B C8B 1_555 1_555
C10B C8B 1_555 1_555
C11B C8B 1_555 1_555
C12B C11B 1_555 1_555
H6B C12B 1_555 1_555
C13B C12B 1_555 1_555
H7B C13B 1_555 1_555
C14B C11B 1_555 1_555
H8B C14B 1_555 1_555
C15B C14B 1_555 1_555
H9B C15B 1_555 1_555
C16B C13B 1_555 1_555
C17B C16B 1_555 1_555
C18A O6A 1_555 1_555
C19A C18A 1_555 1_555
C20A C19A 1_555 1_555
H10A C20A 1_555 1_555
C21A C20A 1_555 1_555
H11A C21A 1_555 1_555
C22A C19A 1_555 1_555
H12A C22A 1_555 1_555
C23A C22A 1_555 1_555
H13A C23A 1_555 1_555
C24A C25 1_555 1_555
C26A C25 1_555 1_555
O6 C18 1_555 1_555
C6 C7 1_555 1_555
C15 C16 1_555 1_555
C23 C24 1_555 1_555
O2B C1B 1_555 1_555
C6B C7B 1_555 1_555
C15B C16B 1_555 1_555
C21A C24A 1_555 1_555
C23A C24A 1_555 1_555

#END
