
#######################################################################
#
#                 Cambridge Crystallographic Data Centre
#                                CCDC 
#
#######################################################################
#
# If this CIF has been generated from an entry in the Cambridge 
# Structural Database, then it will include bibliographic, chemical, 
# crystal, experimental, refinement or atomic coordinate data resulting 
# from the CCDC's data processing and validation procedures.
#
#######################################################################

data_FIGVUN
_chemical_formula_moiety         '(C4 H17 N2 O12 P3 Zn2)n'
_symmetry_cell_setting           monoclinic
_symmetry_space_group_name_H-M   'P 2/n'
_symmetry_Int_Tables_number      13
_space_group_name_Hall           '-P 2yac'
loop_
_symmetry_equiv_pos_site_id
_symmetry_equiv_pos_as_xyz
1 x,y,z
2 1/2-x,y,1/2-z
3 -x,-y,-z
4 1/2+x,-y,1/2+z
_cell_length_a                   11.7877(4)
_cell_length_b                   5.2093(2)
_cell_length_c                   12.2031(4)
_cell_angle_alpha                90
_cell_angle_beta                 98.1980(10)
_cell_angle_gamma                90
_cell_volume                     741.682
loop_
_atom_site_label
_atom_site_type_symbol
_atom_site_fract_x
_atom_site_fract_y
_atom_site_fract_z
Zn1 Zn 0.394168(16) 0.20143(4) 0.571722(16)
P1 P 0.66271(4) 0.28293(8) 0.56642(4)
P2 P 0.2500 0.42574(12) 0.7500
O1 O 0.76818(11) 0.2175(3) 0.65303(12)
O2 O 0.55656(12) 0.1880(3) 0.61165(12)
O3 O 0.67666(12) 0.1382(3) 0.45809(10)
O4 O 0.66306(14) 0.5699(3) 0.54478(11)
O5 O 0.34855(12) 0.2689(3) 0.71909(12)
O6 O 0.19681(12) 0.6013(3) 0.65249(13)
H1 H 0.2478 0.6833 0.6294
Zn1B Zn 0.605832(16) -0.20143(4) 0.428278(16)
Zn1B_2 Zn 0.605832(16) 0.79857(4) 0.428278(16)
Zn1A Zn 0.105832(16) 0.20143(4) 0.928278(16)
Zn1_2 Zn 0.394168(16) -0.79857(4) 0.571722(16)
P1B P 0.33729(4) -0.28293(8) 0.43358(4)
O1B O 0.23182(11) -0.2175(3) 0.34697(12)
O2B O 0.44344(12) -0.1880(3) 0.38835(12)
O3B O 0.32334(12) -0.1382(3) 0.54191(10)
O4B O 0.33694(14) -0.5699(3) 0.45522(11)
O4B_2 O 0.33694(14) 0.4301(3) 0.45522(11)
O4_2 O 0.66306(14) -0.4301(3) 0.54478(11)
O5A O 0.15145(12) 0.2689(3) 0.78091(12)
O5B O 0.65145(12) -0.2689(3) 0.28091(12)
O6A O 0.30319(12) 0.6013(3) 0.84751(13)
H1A H 0.2522 0.6833 0.8706
C1 C 0.5689(2) 0.7261(4) 0.7911(2)
H2 H 0.6399 0.6571 0.8278
H3 H 0.5784 0.7786 0.7176
H4 H 0.5103 0.5972 0.7874
C2 C 0.52346(18) 0.8877(4) 0.97084(16)
H5 H 0.5978 0.8396 1.0101
H6 H 0.4725 0.7418 0.9717
N1 N 0.53502(14) 0.9533(3) 0.85466(14)
H7 H 0.5881 1.0774 0.8544
H8 H 0.4678 1.0155 0.8207
C1B C 0.4311(2) 1.2739(4) 1.2089(2)
H2B H 0.3601 1.3429 1.1722
H3B H 0.4216 1.2214 1.2824
H4B H 0.4897 1.4028 1.2126
C2B C 0.47654(18) 1.1123(4) 1.02916(16)
H5B H 0.4022 1.1604 0.9899
H6B H 0.5275 1.2582 1.0283
N1B N 0.46498(14) 1.0467(3) 1.14534(14)
H7B H 0.4119 0.9226 1.1456
H8B H 0.5322 0.9845 1.1793
loop_
_geom_bond_atom_site_label_1
_geom_bond_atom_site_label_2
_geom_bond_site_symmetry_1
_geom_bond_site_symmetry_2
Zn1 O2 1_555 1_555
P1 O1 1_555 1_555
P2 O5 1_555 1_555
O2 P1 1_555 1_555
O3 P1 1_555 1_555
O4 P1 1_555 1_555
O5 Zn1 1_555 1_555
O6 P2 1_555 1_555
H1 O6 1_555 1_555
C1 H2 1_555 1_555
H3 C1 1_555 1_555
H4 C1 1_555 1_555
C2 H5 1_555 1_555
H6 C2 1_555 1_555
N1 C1 1_555 1_555
H7 N1 1_555 1_555
H8 N1 1_555 1_555
Zn1B O3 1_555 1_555
Zn1B_2 O4 1_555 1_555
Zn1A O5A 1_555 1_555
Zn1_2 O4B 1_555 1_555
P1B O1B 1_555 1_555
O2B Zn1B 1_555 1_555
O3B Zn1 1_555 1_555
O4B P1B 1_555 1_555
O4B_2 Zn1 1_555 1_555
O4_2 Zn1B 1_555 1_555
O5A P2 1_555 1_555
O5B Zn1B 1_555 1_555
O6A P2 1_555 1_555
H1A O6A 1_555 1_555
C1B H2B 1_555 1_555
H3B C1B 1_555 1_555
H4B C1B 1_555 1_555
C2B C2 1_555 1_555
H5B C2B 1_555 1_555
H6B C2B 1_555 1_555
N1B C1B 1_555 1_555
H7B N1B 1_555 1_555
H8B N1B 1_555 1_555
C2 N1 1_555 1_555
P1B O2B 1_555 1_555
P1B O3B 1_555 1_555
C2B N1B 1_555 1_555

#END
