
#######################################################################
#
#                 Cambridge Crystallographic Data Centre
#                                CCDC 
#
#######################################################################
#
# If this CIF has been generated from an entry in the Cambridge 
# Structural Database, then it will include bibliographic, chemical, 
# crystal, experimental, refinement or atomic coordinate data resulting 
# from the CCDC's data processing and validation procedures.
#
#######################################################################

data_XOLSUO
_chemical_formula_moiety         '(C52 H32 Co6 N8 O26)n'
_symmetry_cell_setting           orthorhombic
_symmetry_space_group_name_H-M   'C 2 2 21'
_symmetry_Int_Tables_number      20
_space_group_name_Hall           'C 2c 2'
loop_
_symmetry_equiv_pos_site_id
_symmetry_equiv_pos_as_xyz
1 x,y,z
2 -x,-y,1/2+z
3 -x,y,1/2-z
4 x,-y,-z
5 1/2+x,1/2+y,z
6 1/2-x,1/2-y,1/2+z
7 1/2-x,1/2+y,1/2-z
8 1/2+x,1/2-y,-z
_cell_length_a                   20.383(4)
_cell_length_b                   22.674(5)
_cell_length_c                   23.215(5)
_cell_angle_alpha                90
_cell_angle_beta                 90
_cell_angle_gamma                90
_cell_volume                     10729.1
loop_
_atom_site_label
_atom_site_type_symbol
_atom_site_fract_x
_atom_site_fract_y
_atom_site_fract_z
Co1 Co 0.55364(3) -0.29209(3) 0.39193(3)
Co2 Co 0.5000 -0.28889(4) 0.2500
Co3 Co 0.69949(4) -0.04378(3) 0.14611(3)
Co4 Co 0.70133(5) 0.0000 0.0000
O1 O 0.5692(2) -0.2244(2) 0.26326(19)
O2 O 0.6107(2) -0.23238(19) 0.35273(19)
O3 O 0.9004(2) 0.13551(18) 0.14251(18)
O4 O 0.9330(3) 0.1446(2) 0.2339(2)
O5 O 0.7274(2) -0.4375(2) 0.51136(18)
O6 O 0.7299(2) -0.41000(19) 0.60411(17)
O7 O 0.3751(2) -0.0945(2) 0.38992(17)
O8 O 0.3701(3) -0.0618(2) 0.48041(19)
O9 O 0.4723(2) -0.2932(3) 0.3372(2)
O10 O 0.4592(3) -0.3507(2) 0.4114(2)
O11 O 0.6961(3) 0.0266(2) 0.0869(2)
O12 O 0.6637(3) 0.1032(2) 0.1357(2)
O13 O 0.6298(3) 0.0099(4) 0.1899(3)
H1 H 0.634(3) 0.013(3) 0.2307(8)
H2 H 0.620(3) 0.0472(19) 0.1695(19)
N1 N 0.7024(3) -0.0944(2) 0.2218(2)
N2 N 0.7790(2) -0.0044(2) 0.1946(2)
N3 N 0.5966(3) -0.3049(2) 0.47220(19)
N4 N 0.5098(2) -0.2235(2) 0.44169(19)
C1 C 0.6583(3) -0.1367(2) 0.2358(2)
H3 H 0.6262 -0.1466 0.2090
C2 C 0.6586(3) -0.1658(3) 0.2879(2)
C3 C 0.7044(4) -0.1470(4) 0.3296(3)
H4 H 0.7028 -0.1623 0.3668
C4 C 0.7520(5) -0.1056(4) 0.3149(3)
H5 H 0.7863 -0.0964 0.3398
C5 C 0.7458(4) -0.0788(3) 0.2619(3)
C6 C 0.7898(4) -0.0286(3) 0.2467(3)
C7 C 0.8418(5) -0.0087(5) 0.2810(4)
H6 H 0.8518 -0.0282 0.3152
C8 C 0.8774(5) 0.0381(4) 0.2649(3)
H7 H 0.9106 0.0523 0.2886
C9 C 0.8644(3) 0.0659(3) 0.2117(3)
C10 C 0.8155(3) 0.0419(3) 0.1782(2)
H8 H 0.8074 0.0587 0.1423
C11 C 0.6081(3) -0.2113(3) 0.3020(2)
C12 C 0.9039(3) 0.1197(2) 0.1946(2)
C13 C 0.6379(3) -0.3495(3) 0.4861(2)
H9 H 0.6501 -0.3762 0.4575
C14 C 0.6623(3) -0.3568(3) 0.5406(3)
C15 C 0.6420(4) -0.3205(4) 0.5839(3)
H10 H 0.6569 -0.3257 0.6214
C16 C 0.5986(5) -0.2755(4) 0.5704(4)
H11 H 0.5833 -0.2506 0.5993
C17 C 0.5784(4) -0.2675(4) 0.5153(3)
C18 C 0.5301(4) -0.2210(3) 0.4976(3)
C19 C 0.5102(5) -0.1773(4) 0.5372(3)
H12 H 0.5261 -0.1760 0.5747
C20 C 0.4658(5) -0.1364(4) 0.5167(3)
H13 H 0.4518 -0.1064 0.5411
C21 C 0.4415(3) -0.1385(3) 0.4618(3)
C22 C 0.4662(3) -0.1817(2) 0.4255(2)
H14 H 0.4518 -0.1819 0.3875
C23 C 0.7110(3) -0.4057(2) 0.5528(2)
C24 C 0.3919(3) -0.0949(3) 0.4426(2)
C25 C 0.4385(4) -0.3302(4) 0.3643(3)
H15 H 0.3982 -0.3425 0.3498
C26 C 0.6843(5) 0.0812(4) 0.0951(4)
H16 H 0.6936 0.1062 0.0644
Co1B Co 0.44636(3) -0.29209(3) 0.10807(3)
Co3B Co 0.30051(4) -0.04378(3) 0.35389(3)
O1B O 0.4308(2) -0.2244(2) 0.23674(19)
O2B O 0.3893(2) -0.23238(19) 0.14727(19)
O3B O 0.0996(2) 0.13551(18) 0.35749(18)
O4B O 0.0670(3) 0.1446(2) 0.2661(2)
O5B O 0.2726(2) -0.4375(2) -0.01136(18)
O6B O 0.2701(2) -0.41000(19) -0.10411(17)
O7B O 0.6249(2) -0.0945(2) 0.11008(17)
O8B O 0.6299(3) -0.0618(2) 0.01959(19)
O9B O 0.5277(2) -0.2932(3) 0.1628(2)
O10B O 0.5408(3) -0.3507(2) 0.0886(2)
O11B O 0.3039(3) 0.0266(2) 0.4131(2)
O12B O 0.3363(3) 0.1032(2) 0.3643(2)
O13B O 0.3702(3) 0.0099(4) 0.3101(3)
H1B H 0.366(3) 0.013(3) 0.2693(8)
H2B H 0.380(3) 0.0472(19) 0.3305(19)
N1B N 0.2976(3) -0.0944(2) 0.2782(2)
N2B N 0.2210(2) -0.0044(2) 0.3054(2)
N3B N 0.4034(3) -0.3049(2) 0.02780(19)
N4B N 0.4902(2) -0.2235(2) 0.05831(19)
C1B C 0.3417(3) -0.1367(2) 0.2642(2)
H3B H 0.3738 -0.1466 0.2910
C2B C 0.3414(3) -0.1658(3) 0.2121(2)
C3B C 0.2956(4) -0.1470(4) 0.1704(3)
H4B H 0.2972 -0.1623 0.1332
C4B C 0.2480(5) -0.1056(4) 0.1851(3)
H5B H 0.2137 -0.0964 0.1602
C5B C 0.2542(4) -0.0788(3) 0.2381(3)
C6B C 0.2102(4) -0.0286(3) 0.2533(3)
C7B C 0.1582(5) -0.0087(5) 0.2190(4)
H6B H 0.1482 -0.0282 0.1848
C8B C 0.1226(5) 0.0381(4) 0.2351(3)
H7B H 0.0894 0.0523 0.2114
C9B C 0.1356(3) 0.0659(3) 0.2883(3)
C10B C 0.1845(3) 0.0419(3) 0.3218(2)
H8B H 0.1926 0.0587 0.3577
C11B C 0.3919(3) -0.2113(3) 0.1980(2)
C12B C 0.0961(3) 0.1197(2) 0.3054(2)
C13B C 0.3621(3) -0.3495(3) 0.0139(2)
H9B H 0.3499 -0.3762 0.0425
C14B C 0.3377(3) -0.3568(3) -0.0406(3)
C15B C 0.3580(4) -0.3205(4) -0.0839(3)
H10B H 0.3431 -0.3257 -0.1214
C16B C 0.4014(5) -0.2755(4) -0.0704(4)
H11B H 0.4167 -0.2506 -0.0993
C17B C 0.4216(4) -0.2675(4) -0.0153(3)
C18B C 0.4699(4) -0.2210(3) 0.0024(3)
C19B C 0.4898(5) -0.1773(4) -0.0372(3)
H12B H 0.4739 -0.1760 -0.0747
C20B C 0.5342(5) -0.1364(4) -0.0167(3)
H13B H 0.5482 -0.1064 -0.0411
C21B C 0.5585(3) -0.1385(3) 0.0382(3)
C22B C 0.5338(3) -0.1817(2) 0.0745(2)
H14B H 0.5482 -0.1819 0.1125
C23B C 0.2890(3) -0.4057(2) -0.0528(2)
C24B C 0.6081(3) -0.0949(3) 0.0574(2)
C25B C 0.5615(4) -0.3302(4) 0.1357(3)
H15B H 0.6018 -0.3425 0.1502
C26B C 0.3157(5) 0.0812(4) 0.4049(4)
H16B H 0.3064 0.1062 0.4356
Co1D Co 0.05364(3) 0.20791(3) 0.39193(3)
Co1F Co 0.94636(3) 0.20791(3) 0.10807(3)
Co2D Co -0.0000 0.21111(4) 0.2500
Co2D_2 Co 1.0000 0.21111(4) 0.2500
Co3E Co 0.80051(4) -0.45622(3) 0.64611(3)
Co3G Co 0.19949(4) -0.45622(3) -0.14611(3)
Co4A Co 0.29867(5) 0.0000 0.5000
Co4D Co 0.20133(5) -0.5000 0.0000
Co4E Co 0.79867(5) -0.5000 0.5000
O3D O 0.4004(2) -0.36449(18) 0.14251(18)
O3F O 0.5996(2) -0.36449(18) 0.35749(18)
O4D O 0.4330(3) -0.3554(2) 0.2339(2)
O4F O 0.5670(3) -0.3554(2) 0.2661(2)
O5E O 0.7726(2) -0.0625(2) 0.01136(18)
O5F O 0.7726(2) 0.0625(2) -0.01136(18)
O6E O 0.7701(2) -0.09000(19) 0.10411(17)
O6G O 0.2299(2) -0.09000(19) 0.39589(17)
O8A O 0.6299(3) 0.0618(2) -0.01959(19)
O11C O 0.6961(3) -0.0266(2) -0.0869(2)
loop_
_geom_bond_atom_site_label_1
_geom_bond_atom_site_label_2
_geom_bond_site_symmetry_1
_geom_bond_site_symmetry_2
Co1 O2 1_555 1_555
Co2 O1 1_555 1_555
Co3 O11 1_555 1_555
Co4 O11 1_555 1_555
O1 C11 1_555 1_555
O2 C11 1_555 1_555
O3 C12 1_555 1_555
O4 C12 1_555 1_555
O5 C23 1_555 1_555
O6 C23 1_555 1_555
O7 C24 1_555 1_555
O8 C24 1_555 1_555
O9 Co1 1_555 1_555
O10 Co1 1_555 1_555
O11 C26 1_555 1_555
O12 C26 1_555 1_555
O13 Co3 1_555 1_555
H1 O13 1_555 1_555
H2 O13 1_555 1_555
N1 Co3 1_555 1_555
N2 Co3 1_555 1_555
N3 Co1 1_555 1_555
N4 Co1 1_555 1_555
C1 N1 1_555 1_555
H3 C1 1_555 1_555
C2 C1 1_555 1_555
C3 C2 1_555 1_555
H4 C3 1_555 1_555
C4 C3 1_555 1_555
H5 C4 1_555 1_555
C5 N1 1_555 1_555
C6 N2 1_555 1_555
C7 C6 1_555 1_555
H6 C7 1_555 1_555
C8 C7 1_555 1_555
H7 C8 1_555 1_555
C9 C8 1_555 1_555
C10 N2 1_555 1_555
H8 C10 1_555 1_555
C11 C2 1_555 1_555
C12 C9 1_555 1_555
C13 N3 1_555 1_555
H9 C13 1_555 1_555
C14 C13 1_555 1_555
C15 C14 1_555 1_555
H10 C15 1_555 1_555
C16 C15 1_555 1_555
H11 C16 1_555 1_555
C17 N3 1_555 1_555
C18 N4 1_555 1_555
C19 C18 1_555 1_555
H12 C19 1_555 1_555
C20 C19 1_555 1_555
H13 C20 1_555 1_555
C21 C20 1_555 1_555
C22 N4 1_555 1_555
H14 C22 1_555 1_555
C23 C14 1_555 1_555
C24 C21 1_555 1_555
C25 O9 1_555 1_555
H15 C25 1_555 1_555
C26 H16 1_555 1_555
Co1B O2B 1_555 1_555
Co3B O7 1_555 1_555
O1B Co2 1_555 1_555
O2B C11B 1_555 1_555
O3B C12B 1_555 1_555
O4B C12B 1_555 1_555
O5B C23B 1_555 1_555
O6B C23B 1_555 1_555
O7B Co3 1_555 1_555
O8B Co4 1_555 1_555
O9B Co2 1_555 1_555
O10B Co1B 1_555 1_555
O11B Co3B 1_555 1_555
O12B C26B 1_555 1_555
O13B Co3B 1_555 1_555
H1B O13B 1_555 1_555
H2B O13B 1_555 1_555
N1B Co3B 1_555 1_555
N2B Co3B 1_555 1_555
N3B Co1B 1_555 1_555
N4B Co1B 1_555 1_555
C1B N1B 1_555 1_555
H3B C1B 1_555 1_555
C2B C1B 1_555 1_555
C3B C2B 1_555 1_555
H4B C3B 1_555 1_555
C4B C3B 1_555 1_555
H5B C4B 1_555 1_555
C5B N1B 1_555 1_555
C6B N2B 1_555 1_555
C7B C6B 1_555 1_555
H6B C7B 1_555 1_555
C8B C7B 1_555 1_555
H7B C8B 1_555 1_555
C9B C8B 1_555 1_555
C10B N2B 1_555 1_555
H8B C10B 1_555 1_555
C11B O1B 1_555 1_555
C12B C9B 1_555 1_555
C13B N3B 1_555 1_555
H9B C13B 1_555 1_555
C14B C13B 1_555 1_555
C15B C14B 1_555 1_555
H10B C15B 1_555 1_555
C16B C15B 1_555 1_555
H11B C16B 1_555 1_555
C17B N3B 1_555 1_555
C18B N4B 1_555 1_555
C19B C18B 1_555 1_555
H12B C19B 1_555 1_555
C20B C19B 1_555 1_555
H13B C20B 1_555 1_555
C21B C20B 1_555 1_555
C22B N4B 1_555 1_555
H14B C22B 1_555 1_555
C23B C14B 1_555 1_555
C24B O7B 1_555 1_555
C25B O9B 1_555 1_555
H15B C25B 1_555 1_555
C26B O11B 1_555 1_555
H16B C26B 1_555 1_555
Co1D O3B 1_555 1_555
Co1F O3 1_555 1_555
Co2D O4B 1_555 1_555
Co2D_2 O4 1_555 1_555
Co3E O6 1_555 1_555
Co3G O6B 1_555 1_555
Co4A O8 1_555 1_555
Co4D O5B 1_555 1_555
Co4E O5 1_555 1_555
O3D Co1B 1_555 1_555
O3F Co1 1_555 1_555
O4D Co2 1_555 1_555
O4F Co2 1_555 1_555
O5E Co4 1_555 1_555
O5F Co4 1_555 1_555
O6E Co3 1_555 1_555
O6G Co3B 1_555 1_555
O8A Co4 1_555 1_555
O11C Co4 1_555 1_555
Co2 O9 1_555 1_555
O10 C25 1_555 1_555
C4 C5 1_555 1_555
C5 C6 1_555 1_555
C9 C10 1_555 1_555
C16 C17 1_555 1_555
C17 C18 1_555 1_555
C21 C22 1_555 1_555
Co1B O9B 1_555 1_555
O8B C24B 1_555 1_555
O10B C25B 1_555 1_555
O11B Co4A 1_555 1_555
C2B C11B 1_555 1_555
C4B C5B 1_555 1_555
C5B C6B 1_555 1_555
C9B C10B 1_555 1_555
C16B C17B 1_555 1_555
C17B C18B 1_555 1_555
C21B C22B 1_555 1_555
C21B C24B 1_555 1_555

#END
