
#######################################################################
#
#                 Cambridge Crystallographic Data Centre
#                                CCDC 
#
#######################################################################
#
# If this CIF has been generated from an entry in the Cambridge 
# Structural Database, then it will include bibliographic, chemical, 
# crystal, experimental, refinement or atomic coordinate data resulting 
# from the CCDC's data processing and validation procedures.
#
#######################################################################

data_IVOGUX
_chemical_formula_moiety         '(C9 H9 N5 O10 Zn2)n'
_symmetry_cell_setting           orthorhombic
_symmetry_space_group_name_H-M   'C m c m'
_symmetry_Int_Tables_number      63
_space_group_name_Hall           '-C 2c 2'
loop_
_symmetry_equiv_pos_site_id
_symmetry_equiv_pos_as_xyz
1 x,y,z
2 -x,-y,1/2+z
3 -x,y,1/2-z
4 x,-y,-z
5 1/2+x,1/2+y,z
6 1/2-x,1/2-y,1/2+z
7 1/2-x,1/2+y,1/2-z
8 1/2+x,1/2-y,-z
9 -x,-y,-z
10 x,y,1/2-z
11 x,-y,1/2+z
12 -x,y,z
13 1/2-x,1/2-y,-z
14 1/2+x,1/2+y,1/2-z
15 1/2+x,1/2-y,1/2+z
16 1/2-x,1/2+y,z
_cell_length_a                   10.4210(6)
_cell_length_b                   23.3526(14)
_cell_length_c                   6.9214(4)
_cell_angle_alpha                90
_cell_angle_beta                 90
_cell_angle_gamma                90
_cell_volume                     1684.37
loop_
_atom_site_label
_atom_site_type_symbol
_atom_site_fract_x
_atom_site_fract_y
_atom_site_fract_z
Zn1 Zn 0.5000 0.36581(3) 0.2500
Zn2 Zn 0.5000 0.5000 0.0000
C1 C 0.0000 0.1629(3) 0.2500
C2 C 0.2408(6) 0.3486(3) 0.2500
C3 C 0.1160(5) 0.3163(2) 0.2500
C4 C 0.1152(5) 0.2565(2) 0.2500
H1 H 0.1923 0.2364 0.2500
C5 C 0.0000 0.3460(3) 0.2500
C6 C 0.0000 0.2269(3) 0.2500
N1 N 0.0000 0.07730(18) 0.3430(7)
N2 N 0.0000 0.13092(17) 0.4095(6)
O1 O 0.5000 0.4511(3) 0.2500
O2 O 0.3422(4) 0.31999(18) 0.2500
O3 O 0.2358(5) 0.4023(2) 0.2500
O4 O 0.2948(5) 0.5000 0.0000
H2 H 0.2686 0.4736 0.0676
C2B C -0.2408(6) 0.3486(3) 0.2500
C3B C -0.1160(5) 0.3163(2) 0.2500
C4B C -0.1152(5) 0.2565(2) 0.2500
H1B H -0.1923 0.2364 0.2500
N1B N 0.0000 0.07730(18) 0.1570(7)
N2B N 0.0000 0.13092(17) 0.0905(6)
O2B O -0.3422(4) 0.31999(18) 0.2500
O3B O -0.2358(5) 0.4023(2) 0.2500
H2C H 0.2686 0.5264 -0.0676
O4H O 0.7052(5) 0.5000 0.0000
H2K H 0.7314 0.4736 0.0676
H2H H 0.7314 0.5264 -0.0676
Zn1_2 Zn -0.5000 0.36581(3) 0.2500
Zn1E Zn 0.0000 0.13419(3) -0.2500
Zn1E_2 Zn 0.0000 0.13419(3) 0.7500
Zn2A Zn 0.5000 0.5000 0.5000
Zn2D Zn 0.0000 0.0000 0.0000
Zn2E Zn 0.0000 0.0000 0.5000
N1E N 0.5000 0.42270(18) -0.1570(7)
N1F N 0.5000 0.57730(18) 0.1570(7)
N2E N 0.5000 0.36908(17) -0.0905(6)
N2G N 0.5000 0.36908(17) 0.5905(6)
O1A O 0.5000 0.5489(3) -0.2500
O2B_2 O 0.6578(4) 0.31999(18) 0.2500
O5 O 0.359(2) 0.1024(14) 0.2500
O6 O 0.5000 0.1942(11) 0.2500
N3 N 0.5000 0.1279(7) 0.2500
O5B O 0.641(2) 0.1024(14) 0.2500
loop_
_geom_bond_atom_site_label_1
_geom_bond_atom_site_label_2
_geom_bond_site_symmetry_1
_geom_bond_site_symmetry_2
Zn1 O1 1_555 1_555
Zn2 O1 1_555 1_555
C1 C6 1_555 1_555
C2 C3 1_555 1_555
C3 C4 1_555 1_555
C4 H1 1_555 1_555
C5 C3 1_555 1_555
C6 C4 1_555 1_555
N1 N2 1_555 1_555
N2 C1 1_555 1_555
O1 Zn2A 1_555 1_555
O2 Zn1 1_555 1_555
O3 C2 1_555 1_555
O4 Zn2 1_555 1_555
H2 O4 1_555 1_555
O5 N3 1_555 1_555
O6 N3 1_555 1_555
N3 O5B 1_555 1_555
C2B C3B 1_555 1_555
C3B C5 1_555 1_555
C4B C6 1_555 1_555
H1B C4B 1_555 1_555
N1B N1 1_555 1_555
N2B C1 1_555 1_555
O2B C2B 1_555 1_555
O3B C2B 1_555 1_555
H2C O4 1_555 1_555
O4H Zn2 1_555 1_555
H2K O4H 1_555 1_555
H2H O4H 1_555 1_555
Zn1_2 O2B 1_555 1_555
Zn1E N2B 1_555 1_555
Zn1E_2 N2 1_555 1_555
Zn2D N1B 1_555 1_555
Zn2E N1 1_555 1_555
N1E Zn2 1_555 1_555
N1F Zn2 1_555 1_555
N2E Zn1 1_555 1_555
N2G Zn1 1_555 1_555
O1A Zn2 1_555 1_555
O2B_2 Zn1 1_555 1_555
C2 O2 1_555 1_555
C3B C4B 1_555 1_555
N1B N2B 1_555 1_555
N1E N2E 1_555 1_555

#END
