
#######################################################################
#
#                 Cambridge Crystallographic Data Centre
#                                CCDC 
#
#######################################################################
#
# If this CIF has been generated from an entry in the Cambridge 
# Structural Database, then it will include bibliographic, chemical, 
# crystal, experimental, refinement or atomic coordinate data resulting 
# from the CCDC's data processing and validation procedures.
#
#######################################################################

data_ICICAB
_chemical_formula_moiety         '(C54 H34 F8 Fe1 N10)n'
_symmetry_cell_setting           tetragonal
_symmetry_space_group_name_H-M   'I 41/a'
_symmetry_Int_Tables_number      88
_space_group_name_Hall           '-I 4ad'
loop_
_symmetry_equiv_pos_site_id
_symmetry_equiv_pos_as_xyz
1 x,y,z
2 1/2-x,-y,1/2+z
3 3/4-y,1/4+x,1/4+z
4 3/4+y,3/4-x,3/4+z
5 1/2+x,1/2+y,1/2+z
6 -x,1/2-y,z
7 1/4-y,3/4+x,3/4+z
8 1/4+y,1/4-x,1/4+z
9 -x,-y,-z
10 1/2+x,y,1/2-z
11 1/4+y,3/4-x,3/4-z
12 1/4-y,1/4+x,1/4-z
13 1/2-x,1/2-y,1/2-z
14 x,1/2+y,-z
15 3/4+y,1/4-x,1/4-z
16 3/4-y,3/4+x,3/4-z
_cell_length_a                   26.541(4)
_cell_length_b                   26.541(4)
_cell_length_c                   34.867(5)
_cell_angle_alpha                90
_cell_angle_beta                 90
_cell_angle_gamma                90
_cell_volume                     24561.2
loop_
_atom_site_label
_atom_site_type_symbol
_atom_site_fract_x
_atom_site_fract_y
_atom_site_fract_z
_atom_site_U_iso_or_equiv
_atom_site_thermal_displace_type
Fe1 Fe 0.0000 0.5000 0.0000 0.0635 Uani
F1 F -0.0323(3) 0.3328(2) -0.09425(17) 0.2873 Uani
F2 F -0.0739(3) 0.2443(3) -0.1109(2) 0.3620 Uani
F3 F -0.1503(3) 0.2421(2) 0.0112(2) 0.3230 Uani
F4 F -0.1124(2) 0.33046(17) 0.02476(14) 0.2360 Uani
C1 C -0.00589(17) 0.38536(18) -0.00146(13) 0.0690 Uani
C2 C 0.0183(2) 0.34200(18) 0.01402(15) 0.0903 Uani
H1 H 0.0090 0.3086 0.0099 0.1090 Uiso
C3 C 0.05655(19) 0.3581(2) 0.03555(14) 0.0867 Uani
H2 H 0.0794 0.3379 0.0487 0.1040 Uiso
C4 C 0.05615(18) 0.41190(19) 0.03473(13) 0.0687 Uani
C5 C 0.08899(17) 0.4414(2) 0.05489(13) 0.0733 Uani
C6 C 0.08897(18) 0.4939(2) 0.05287(14) 0.0860 Uani
C7 C 0.1254(2) 0.5249(2) 0.07259(16) 0.1167 Uani
H3 H 0.1511 0.5135 0.0885 0.1400 Uiso
C8 C 0.11555(19) 0.5728(2) 0.06398(16) 0.1177 Uani
H4 H 0.1327 0.6012 0.0724 0.1410 Uiso
C9 C 0.07183(18) 0.5708(2) 0.03827(14) 0.0880 Uani
C10 C -0.04764(18) 0.38542(19) -0.02444(13) 0.0780 Uani
C11 C -0.07100(17) 0.33330(16) -0.03323(18) 0.0987 Uani
C12 C -0.0596(2) 0.3106(3) -0.06809(17) 0.1707 Uani
C13 C -0.0800(3) 0.2638(3) -0.07710(19) 0.2247 Uani
C14 C -0.1118(2) 0.23979(17) -0.0513(3) 0.2390 Uani
C15 C -0.12324(19) 0.2625(2) -0.0164(2) 0.2130 Uani
C16 C -0.1028(2) 0.3093(2) -0.00739(16) 0.1380 Uani
C17 C 0.1260(2) 0.41631(17) 0.08131(16) 0.0840 Uani
C18 C 0.1741(2) 0.4087(2) 0.07170(17) 0.1427 Uani
H5 H 0.1861 0.4204 0.0482 0.1710 Uiso
C19 C 0.2067(2) 0.3834(3) 0.09659(18) 0.1557 Uani
H6 H 0.2398 0.3779 0.0888 0.1870 Uiso
C20 C 0.1927(2) 0.36726(19) 0.13033(17) 0.0883 Uani
C21 C 0.1449(3) 0.3757(2) 0.14090(17) 0.1393 Uani
H7 H 0.1338 0.3655 0.1650 0.1680 Uiso
C22 C 0.1115(2) 0.3997(2) 0.11584(18) 0.1400 Uani
H8 H 0.0783 0.4044 0.1234 0.1680 Uiso
C23 C 0.21232(17) 0.31344(16) 0.18672(13) 0.0723 Uani
H9 H 0.1792 0.3086 0.1947 0.0870 Uiso
C24 C 0.2743(2) 0.3379(2) 0.15343(19) 0.1557 Uani
H10 H 0.2946 0.3528 0.1349 0.1870 Uiso
C25 C 0.2906(2) 0.3084(3) 0.18326(18) 0.1477 Uani
H11 H 0.3239 0.2998 0.1883 0.1780 Uiso
C26 C -0.1124(4) 0.1534(4) -0.0769(4) 0.3437 Uani
H12 H -0.0857 0.1646 -0.0934 0.5160 Uiso
H13 H -0.1377 0.1366 -0.0920 0.5160 Uiso
H14 H -0.0992 0.1304 -0.0582 0.5160 Uiso
C27 C -0.1775(5) 0.1765(5) -0.0412(4) 0.3850 Uani
H15 H -0.1854 0.1436 -0.0511 0.5770 Uiso
H16 H -0.2048 0.1991 -0.0466 0.5770 Uiso
H17 H -0.1725 0.1745 -0.0140 0.5770 Uiso
N1 N 0.01753(12) 0.42820(13) 0.01160(9) 0.0610 Uani
N2 N 0.05723(12) 0.52324(14) 0.03201(9) 0.0653 Uani
N3 N 0.24998(16) 0.29400(14) 0.20423(11) 0.0873 Uani
N4 N 0.22438(15) 0.34155(16) 0.15575(13) 0.1017 Uani
N5 N -0.1336(4) 0.1942(3) -0.0586(3) 0.2797 Uani
F1H F 0.0323(3) 0.6672(2) 0.09425(17) 0.2873 Uani
F2H F 0.0739(3) 0.7557(3) 0.1109(2) 0.3620 Uani
F3H F 0.1503(3) 0.7579(2) -0.0112(2) 0.3230 Uani
F4H F 0.1124(2) 0.66954(17) -0.02476(14) 0.2360 Uani
C1H C 0.00589(17) 0.61464(18) 0.00146(13) 0.0690 Uani
C2H C -0.0183(2) 0.65800(18) -0.01402(15) 0.0903 Uani
H1H H -0.0090 0.6914 -0.0099 0.1090 Uiso
C3H C -0.05655(19) 0.6419(2) -0.03555(14) 0.0867 Uani
H2H H -0.0794 0.6621 -0.0487 0.1040 Uiso
C4H C -0.05615(18) 0.58810(19) -0.03473(13) 0.0687 Uani
C5H C -0.08899(17) 0.5586(2) -0.05489(13) 0.0733 Uani
C6H C -0.08897(18) 0.5061(2) -0.05287(14) 0.0860 Uani
C7H C -0.1254(2) 0.4751(2) -0.07259(16) 0.1167 Uani
H3H H -0.1511 0.4865 -0.0885 0.1400 Uiso
C8H C -0.11555(19) 0.4272(2) -0.06398(16) 0.1177 Uani
H4H H -0.1327 0.3988 -0.0724 0.1410 Uiso
C9H C -0.07183(18) 0.4292(2) -0.03827(14) 0.0880 Uani
C10H C 0.04764(18) 0.61458(19) 0.02444(13) 0.0780 Uani
C11H C 0.07100(17) 0.66670(16) 0.03323(18) 0.0987 Uani
C12H C 0.0596(2) 0.6894(3) 0.06809(17) 0.1707 Uani
C13H C 0.0800(3) 0.7362(3) 0.07710(19) 0.2247 Uani
C14H C 0.1118(2) 0.76021(17) 0.0513(3) 0.2390 Uani
C15H C 0.12324(19) 0.7375(2) 0.0164(2) 0.2130 Uani
C16H C 0.1028(2) 0.6907(2) 0.00739(16) 0.1380 Uani
C17H C -0.1260(2) 0.58369(17) -0.08131(16) 0.0840 Uani
C18H C -0.1741(2) 0.5913(2) -0.07170(17) 0.1427 Uani
H5H H -0.1861 0.5796 -0.0482 0.1710 Uiso
C19H C -0.2067(2) 0.6166(3) -0.09659(18) 0.1557 Uani
H6H H -0.2398 0.6221 -0.0888 0.1870 Uiso
C20H C -0.1927(2) 0.63274(19) -0.13033(17) 0.0883 Uani
C21H C -0.1449(3) 0.6243(2) -0.14090(17) 0.1393 Uani
H7H H -0.1338 0.6345 -0.1650 0.1680 Uiso
C22H C -0.1115(2) 0.6003(2) -0.11584(18) 0.1400 Uani
H8H H -0.0783 0.5956 -0.1234 0.1680 Uiso
C23H C -0.21232(17) 0.68656(16) -0.18672(13) 0.0723 Uani
H9H H -0.1792 0.6914 -0.1947 0.0870 Uiso
C24H C -0.2743(2) 0.6621(2) -0.15343(19) 0.1557 Uani
H10H H -0.2946 0.6472 -0.1349 0.1870 Uiso
C25H C -0.2906(2) 0.6916(3) -0.18326(18) 0.1477 Uani
H11H H -0.3239 0.7002 -0.1883 0.1780 Uiso
C26H C 0.1124(4) 0.8466(4) 0.0769(4) 0.3437 Uani
H12H H 0.0857 0.8354 0.0934 0.5160 Uiso
H13H H 0.1377 0.8634 0.0920 0.5160 Uiso
H14H H 0.0992 0.8696 0.0582 0.5160 Uiso
C27H C 0.1775(5) 0.8235(5) 0.0412(4) 0.3850 Uani
H15H H 0.1854 0.8564 0.0511 0.5770 Uiso
H16H H 0.2048 0.8009 0.0466 0.5770 Uiso
H17H H 0.1725 0.8255 0.0140 0.5770 Uiso
N1H N -0.01753(12) 0.57180(13) -0.01160(9) 0.0610 Uani
N2H N -0.05723(12) 0.47676(14) -0.03201(9) 0.0653 Uani
N3H N -0.24998(16) 0.70600(14) -0.20423(11) 0.0873 Uani
N4H N -0.22438(15) 0.65845(16) -0.15575(13) 0.1017 Uani
N5H N 0.1336(4) 0.8058(3) 0.0586(3) 0.2797 Uani
Fe1B Fe 0.2500 0.2500 0.2500 0.0635 Uani
Fe1F Fe -0.2500 0.7500 -0.2500 0.0635 Uani
N3C N 0.04400(14) 0.50002(16) -0.04577(11) 0.0873 Uani
N3K N -0.04400(14) 0.49998(16) 0.04577(11) 0.0873 Uani
loop_
_atom_site_aniso_label
_atom_site_aniso_U_11
_atom_site_aniso_U_22
_atom_site_aniso_U_33
_atom_site_aniso_U_23
_atom_site_aniso_U_13
_atom_site_aniso_U_12
Fe1 0.0498(6) 0.0744(7) 0.0662(6) 0.0447(5) -0.0012(5) -0.0035(5)
F1 0.336(8) 0.285(7) 0.241(6) -0.107(5) 0.113(5) -0.084(6)
F2 0.449(10) 0.295(7) 0.342(9) -0.180(7) -0.010(8) -0.066(7)
F3 0.331(8) 0.182(5) 0.456(9) 0.021(5) 0.051(6) -0.150(5)
F4 0.308(6) 0.177(4) 0.223(5) -0.021(3) 0.113(4) -0.134(4)
C1 0.060(3) 0.073(3) 0.074(3) 0.040(3) -0.007(3) -0.014(3)
C2 0.098(4) 0.065(3) 0.108(4) 0.039(3) -0.024(3) 0.007(3)
C3 0.073(4) 0.086(4) 0.101(4) 0.038(3) -0.009(3) 0.010(3)
C4 0.069(3) 0.071(4) 0.066(3) 0.038(3) 0.002(3) 0.002(3)
C5 0.063(3) 0.077(4) 0.080(3) 0.044(3) -0.014(3) 0.004(3)
C6 0.073(3) 0.092(4) 0.093(4) 0.043(3) -0.031(3) -0.011(3)
C7 0.105(4) 0.094(4) 0.151(5) 0.057(4) -0.062(4) -0.004(4)
C8 0.105(4) 0.096(4) 0.152(5) 0.028(4) -0.076(4) -0.026(4)
C9 0.072(4) 0.086(4) 0.106(4) 0.042(3) -0.031(3) -0.008(3)
C10 0.069(3) 0.082(4) 0.083(3) 0.035(3) -0.011(3) -0.001(3)
C11 0.092(4) 0.081(4) 0.123(5) 0.011(4) -0.043(4) 0.005(3)
C12 0.149(8) 0.155(8) 0.208(10) -0.082(8) -0.012(7) -0.012(6)
C13 0.164(9) 0.169(10) 0.341(12) -0.077(9) -0.066(8) -0.028(7)
C14 0.182(8) 0.112(7) 0.423(11) -0.036(7) -0.120(7) -0.024(6)
C15 0.146(7) 0.108(6) 0.385(12) 0.057(7) -0.009(7) -0.046(5)
C16 0.135(6) 0.085(5) 0.194(8) 0.021(5) 0.036(5) -0.027(4)
C17 0.065(4) 0.085(4) 0.102(4) 0.050(3) -0.019(3) 0.008(3)
C18 0.083(4) 0.219(7) 0.126(5) 0.107(5) -0.014(4) 0.030(4)
C19 0.077(4) 0.261(8) 0.129(5) 0.130(6) 0.000(4) 0.027(4)
C20 0.061(4) 0.108(4) 0.096(4) 0.046(3) -0.039(3) -0.003(3)
C21 0.113(5) 0.201(7) 0.104(5) 0.096(4) -0.013(4) 0.040(5)
C22 0.088(4) 0.217(7) 0.115(5) 0.102(5) 0.010(4) 0.071(4)
C23 0.067(3) 0.078(3) 0.072(3) 0.026(3) -0.042(3) -0.003(3)
C24 0.093(3) 0.211(5) 0.163(4) 0.114(4) -0.035(4) -0.006(4)
C25 0.089(4) 0.208(5) 0.146(4) 0.102(4) -0.050(3) 0.003(4)
C26 0.308(12) 0.213(10) 0.510(15) -0.130(10) -0.082(11) 0.004(9)
C27 0.341(14) 0.256(11) 0.558(16) -0.065(11) -0.092(14) -0.104(11)
N1 0.053(2) 0.065(2) 0.065(2) 0.051(2) 0.0004(19) 0.000(2)
N2 0.062(2) 0.063(3) 0.071(3) 0.038(2) -0.0184(19) -0.009(2)
N3 0.071(3) 0.105(3) 0.086(3) 0.046(2) -0.044(2) -0.005(2)
N4 0.059(3) 0.129(3) 0.117(3) 0.061(3) -0.043(3) -0.007(3)
N5 0.207(7) 0.168(7) 0.464(10) -0.046(7) -0.095(7) -0.032(6)
F1H 0.336 0.285 0.241 -0.107 0.113 -0.084
F2H 0.449 0.295 0.342 -0.18 -0.01 -0.066
F3H 0.331 0.182 0.456 0.021 0.051 -0.15
F4H 0.308 0.177 0.223 -0.021 0.113 -0.134
C1H 0.06 0.073 0.074 0.04 -0.007 -0.014
C2H 0.098 0.065 0.108 0.039 -0.024 0.007
C3H 0.073 0.086 0.101 0.038 -0.009 0.01
C4H 0.069 0.071 0.066 0.038 0.002 0.002
C5H 0.063 0.077 0.08 0.044 -0.014 0.004
C6H 0.073 0.092 0.093 0.043 -0.031 -0.011
C7H 0.105 0.094 0.151 0.057 -0.062 -0.004
C8H 0.105 0.096 0.152 0.028 -0.076 -0.026
C9H 0.072 0.086 0.106 0.042 -0.031 -0.008
C10H 0.069 0.082 0.083 0.035 -0.011 -0.001
C11H 0.092 0.081 0.123 0.011 -0.043 0.005
C12H 0.149 0.155 0.208 -0.082 -0.012 -0.012
C13H 0.164 0.169 0.341 -0.077 -0.066 -0.028
C14H 0.182 0.112 0.423 -0.036 -0.12 -0.024
C15H 0.146 0.108 0.385 0.057 -0.009 -0.046
C16H 0.135 0.085 0.194 0.021 0.036 -0.027
C17H 0.065 0.085 0.102 0.05 -0.019 0.008
C18H 0.083 0.219 0.126 0.107 -0.014 0.03
C19H 0.077 0.261 0.129 0.13 0 0.027
C20H 0.061 0.108 0.096 0.046 -0.039 -0.003
C21H 0.113 0.201 0.104 0.096 -0.013 0.04
C22H 0.088 0.217 0.115 0.102 0.01 0.071
C23H 0.067 0.078 0.072 0.026 -0.042 -0.003
C24H 0.093 0.211 0.163 0.114 -0.035 -0.006
C25H 0.089 0.208 0.146 0.102 -0.05 0.003
C26H 0.308 0.213 0.51 -0.13 -0.082 0.004
C27H 0.341 0.256 0.558 -0.065 -0.092 -0.104
N1H 0.053 0.065 0.065 0.051 0.0004 0
N2H 0.062 0.063 0.071 0.038 -0.0184 -0.009
N3H 0.071 0.105 0.086 0.046 -0.044 -0.005
N4H 0.059 0.129 0.117 0.061 -0.043 -0.007
N5H 0.207 0.168 0.464 -0.046 -0.095 -0.032
Fe1B 0.0744 0.0498 0.0662 -0.0012 -0.0447 0.0035
Fe1F 0.0744 0.0498 0.0662 -0.0012 -0.0447 0.0035
N3C 0.105 0.071 0.086 0.044 0.046 0.005
N3K 0.105 0.071 0.086 0.044 0.046 0.005
loop_
_geom_bond_atom_site_label_1
_geom_bond_atom_site_label_2
_geom_bond_site_symmetry_1
_geom_bond_site_symmetry_2
Fe1 N1 1_555 1_555
F1 C12 1_555 1_555
F2 C13 1_555 1_555
F3 C15 1_555 1_555
F4 C16 1_555 1_555
C1 C2 1_555 1_555
C2 H1 1_555 1_555
C3 C2 1_555 1_555
H2 C3 1_555 1_555
C4 C3 1_555 1_555
C5 C4 1_555 1_555
C6 C5 1_555 1_555
C7 C6 1_555 1_555
H3 C7 1_555 1_555
C8 C7 1_555 1_555
H4 C8 1_555 1_555
C9 C8 1_555 1_555
C10 C1 1_555 1_555
C11 C10 1_555 1_555
C12 C11 1_555 1_555
C13 C12 1_555 1_555
C14 C13 1_555 1_555
C15 C14 1_555 1_555
C16 C11 1_555 1_555
C17 C5 1_555 1_555
C18 C17 1_555 1_555
H5 C18 1_555 1_555
C19 C18 1_555 1_555
H6 C19 1_555 1_555
C20 C19 1_555 1_555
C21 C20 1_555 1_555
H7 C21 1_555 1_555
C22 C17 1_555 1_555
H8 C22 1_555 1_555
C23 H9 1_555 1_555
C24 H10 1_555 1_555
C25 C24 1_555 1_555
H11 C25 1_555 1_555
C26 H12 1_555 1_555
H13 C26 1_555 1_555
H14 C26 1_555 1_555
C27 H15 1_555 1_555
H16 C27 1_555 1_555
H17 C27 1_555 1_555
N1 C1 1_555 1_555
N2 Fe1 1_555 1_555
N3 C23 1_555 1_555
N4 C20 1_555 1_555
N5 C14 1_555 1_555
F1H C12H 1_555 1_555
F2H C13H 1_555 1_555
F3H C15H 1_555 1_555
F4H C16H 1_555 1_555
C1H C2H 1_555 1_555
C2H H1H 1_555 1_555
C3H C2H 1_555 1_555
H2H C3H 1_555 1_555
C4H C3H 1_555 1_555
C5H C4H 1_555 1_555
C6H C5H 1_555 1_555
C7H C6H 1_555 1_555
H3H C7H 1_555 1_555
C8H C7H 1_555 1_555
H4H C8H 1_555 1_555
C9H C10 1_555 1_555
C10H C9 1_555 1_555
C11H C10H 1_555 1_555
C12H C11H 1_555 1_555
C13H C12H 1_555 1_555
C14H C13H 1_555 1_555
C15H C14H 1_555 1_555
C16H C11H 1_555 1_555
C17H C5H 1_555 1_555
C18H C17H 1_555 1_555
H5H C18H 1_555 1_555
C19H C18H 1_555 1_555
H6H C19H 1_555 1_555
C20H C19H 1_555 1_555
C21H C20H 1_555 1_555
H7H C21H 1_555 1_555
C22H C17H 1_555 1_555
H8H C22H 1_555 1_555
C23H H9H 1_555 1_555
C24H H10H 1_555 1_555
C25H C24H 1_555 1_555
H11H C25H 1_555 1_555
C26H H12H 1_555 1_555
H13H C26H 1_555 1_555
H14H C26H 1_555 1_555
C27H H15H 1_555 1_555
H16H C27H 1_555 1_555
H17H C27H 1_555 1_555
N1H Fe1 1_555 1_555
N2H Fe1 1_555 1_555
N3H C23H 1_555 1_555
N4H C20H 1_555 1_555
N5H C14H 1_555 1_555
Fe1B N3 1_555 1_555
Fe1F N3H 1_555 1_555
N3C Fe1 1_555 1_555
N3K Fe1 1_555 1_555
C4 N1 1_555 1_555
C6 N2 1_555 1_555
C9 N2 1_555 1_555
C15 C16 1_555 1_555
C21 C22 1_555 1_555
C23 N4 1_555 1_555
C24 N4 1_555 1_555
C25 N3 1_555 1_555
C26 N5 1_555 1_555
C27 N5 1_555 1_555
C1H C10H 1_555 1_555
C1H N1H 1_555 1_555
C4H N1H 1_555 1_555
C6H N2H 1_555 1_555
C8H C9H 1_555 1_555
C9H N2H 1_555 1_555
C15H C16H 1_555 1_555
C21H C22H 1_555 1_555
C23H N4H 1_555 1_555
C24H N4H 1_555 1_555
C25H N3H 1_555 1_555
C26H N5H 1_555 1_555
C27H N5H 1_555 1_555

#END
