
#######################################################################
#
#                 Cambridge Crystallographic Data Centre
#                                CCDC 
#
#######################################################################
#
# If this CIF has been generated from an entry in the Cambridge 
# Structural Database, then it will include bibliographic, chemical, 
# crystal, experimental, refinement or atomic coordinate data resulting 
# from the CCDC's data processing and validation procedures.
#
#######################################################################

data_ECAFOG
_chemical_formula_moiety         '(C61 H40 Br2 Cu2 N6 O13 S2)n'
_symmetry_cell_setting           monoclinic
_symmetry_space_group_name_H-M   'P 21/c'
_symmetry_Int_Tables_number      14
_space_group_name_Hall           '-P 2ybc'
loop_
_symmetry_equiv_pos_site_id
_symmetry_equiv_pos_as_xyz
1 x,y,z
2 -x,1/2+y,1/2-z
3 -x,-y,-z
4 x,1/2-y,1/2+z
_cell_length_a                   32.249(6)
_cell_length_b                   7.770(2)
_cell_length_c                   30.641(6)
_cell_angle_alpha                90
_cell_angle_beta                 116.03(3)
_cell_angle_gamma                90
_cell_volume                     6899.05
loop_
_atom_site_label
_atom_site_type_symbol
_atom_site_fract_x
_atom_site_fract_y
_atom_site_fract_z
Cu1 Cu 0.24276(2) 0.27341(6) 0.37707(2)
Br1 Br 0.26295(2) -0.03138(5) 0.38720(2)
N1 N 0.27374(10) 0.3854(4) 0.44299(11)
C1 C 0.29371(14) 0.2965(5) 0.48455(13)
H1 H 0.291885 0.174441 0.483050
C2 C 0.31695(13) 0.3739(5) 0.52970(14)
H2 H 0.330196 0.306218 0.558405
C3 C 0.32047(13) 0.5522(5) 0.53210(13)
C4 C 0.30067(16) 0.6449(5) 0.48929(14)
H3 H 0.303040 0.766840 0.489670
C5 C 0.27750(16) 0.5583(5) 0.44617(14)
H4 H 0.263395 0.623649 0.417097
C6 C 0.34395(14) 0.6511(5) 0.57838(13)
O1 O 0.36293(9) 0.5469(3) 0.61749(9)
O2 O 0.34583(14) 0.8045(4) 0.58055(11)
C7 C 0.38540(13) 0.6292(5) 0.66291(13)
C8 C 0.35927(13) 0.7040(5) 0.68357(13)
H5 H 0.326515 0.706017 0.667270
C9 C 0.38356(14) 0.7763(5) 0.72959(13)
C10 C 0.43111(13) 0.7717(5) 0.75425(13)
H6 H 0.446933 0.820708 0.785702
C11 C 0.45495(13) 0.6931(5) 0.73149(13)
C12 C 0.43305(13) 0.6208(5) 0.68564(13)
H7 H 0.449959 0.567983 0.670517
O3 O 0.36005(9) 0.8692(3) 0.75133(9)
C13 C 0.33299(13) 0.7798(5) 0.76699(13)
O4 O 0.32695(12) 0.6277(4) 0.76244(12)
C14 C 0.31127(13) 0.8968(5) 0.78981(13)
C15 C 0.27944(13) 0.8259(5) 0.80392(13)
H8 H 0.271780 0.707167 0.799104
C16 C 0.25919(13) 0.9332(5) 0.82521(13)
H9 H 0.237109 0.884831 0.834364
N2 N 0.26891(11) 1.1013(4) 0.83365(11)
C17 C 0.29947(14) 1.1681(5) 0.81961(14)
H10 H 0.306576 1.287160 0.824983
C18 C 0.32127(14) 1.0712(5) 0.79753(14)
H11 H 0.342607 1.123341 0.787919
O5 O 0.50296(9) 0.6821(4) 0.75847(9)
C19 C 0.52973(13) 0.7531(5) 0.73937(15)
O6 O 0.51531(10) 0.8253(5) 0.70141(12)
C20 C 0.57977(13) 0.7308(5) 0.77347(14)
C21 C 0.59466(13) 0.6382(5) 0.81633(14)
H12 H 0.573177 0.581666 0.824921
C22 C 0.64182(13) 0.6299(5) 0.84653(13)
H13 H 0.652089 0.564608 0.875625
N3 N 0.67360(11) 0.7105(4) 0.83629(11)
C23 C 0.65845(13) 0.8003(5) 0.79464(13)
H14 H 0.680546 0.857838 0.787188
C24 C 0.61223(13) 0.8133(5) 0.76199(13)
H15 H 0.602899 0.876485 0.732651
Cu2 Cu 0.74214(2) 0.72015(6) 0.88170(2)
Br2 Br 0.76259(2) 1.02415(5) 0.89332(2)
N4 N 0.76526(11) 0.6078(4) 0.94804(11)
C25 C 0.76102(15) 0.4369(5) 0.95153(14)
H16 H 0.742198 0.374733 0.922928
C26 C 0.78253(15) 0.3475(5) 0.99434(14)
H17 H 0.779249 0.226166 0.994928
C27 C 0.80908(13) 0.4366(5) 1.03669(13)
C28 C 0.81330(14) 0.6135(5) 1.03390(14)
H18 H 0.831181 0.678637 1.062213
C29 C 0.79098(14) 0.6936(5) 0.98904(14)
H19 H 0.794065 0.814704 0.987334
C30 C 0.83144(14) 0.3357(5) 1.08239(13)
O7 O 0.86066(9) 0.4344(3) 1.12015(9)
O8 O 0.82546(11) 0.1847(4) 1.08543(10)
C31 C 0.88393(13) 0.3529(5) 1.16510(13)
C32 C 0.85934(13) 0.2789(5) 1.18788(13)
H20 H 0.826560 0.277241 1.173037
C33 C 0.88522(13) 0.2072(5) 1.23363(13)
C34 C 0.93299(13) 0.2109(5) 1.25660(13)
H21 H 0.949834 0.162557 1.287990
C35 C 0.95521(13) 0.2879(5) 1.23194(14)
C36 C 0.93181(13) 0.3604(5) 1.18593(13)
H22 H 0.947776 0.412242 1.169635
O9 O 0.86276(9) 0.1170(3) 1.25698(9)
C37 C 0.84046(14) 0.2106(5) 1.27727(14)
O10 O 0.83845(13) 0.3645(4) 1.27604(13)
C38 C 0.81876(13) 0.0980(5) 1.30119(13)
C39 C 0.79154(18) 0.1773(6) 1.31998(18)
H23 H 0.787519 0.298631 1.318226
C40 C 0.77039(18) 0.0750(6) 1.34136(18)
H24 H 0.751501 0.129689 1.353846
N5 N 0.77493(11) -0.0959(4) 1.34547(11)
C41 C 0.80065(15) -0.1709(5) 1.32666(15)
H25 H 0.803774 -0.292599 1.328615
C42 C 0.82324(15) -0.0788(5) 1.30419(15)
H26 H 0.841310 -0.136765 1.291252
O11 O 1.00331(9) 0.3015(4) 1.25708(9)
C43 C 1.02953(14) 0.2266(5) 1.23770(14)
O12 O 1.01465(10) 0.1510(4) 1.20024(11)
C44 C 1.07972(12) 0.2510(5) 1.27130(13)
C45 C 1.11206(13) 0.1728(5) 1.25911(13)
H27 H 1.102613 0.110655 1.229586
C46 C 1.15849(13) 0.1879(5) 1.29119(13)
H28 H 1.180588 0.133008 1.283214
N6 N 1.17364(11) 0.2770(4) 1.33313(11)
C47 C 1.14181(12) 0.3532(5) 1.34401(13)
H29 H 1.152091 0.417795 1.373221
C48 C 1.09472(13) 0.3418(5) 1.31454(14)
H30 H 1.073238 0.394953 1.323770
Cu1_2 Cu 1.24276(2) 0.27341(6) 1.37707(2)
Cu1C Cu 0.24276(2) 1.22659(6) 0.87707(2)
N2C N 0.26891(11) 0.3987(4) 0.33365(11)
Cu2C Cu 0.74214(2) -0.22015(6) 1.38170(2)
N5C N 0.77493(11) 0.5959(4) 0.84547(11)
N6_2 N 0.17364(11) 0.2770(4) 0.33313(11)
S1 S 0.5569(3) 0.2548(13) 0.4292(4)
C49 C 0.5795(8) 0.089(3) 0.4551(9)
S2 S 0.5910(3) -0.0767(17) 0.4730(4)
O13 O -0.00442(18) 0.9564(7) 0.63841(16)
C50 C 0.0325(5) 1.112(2) 0.6013(5)
H31 H 0.019321 1.225700 0.589437
H32 H 0.046437 1.066748 0.580857
H33 H 0.056256 1.121265 0.634895
C51 C -0.0066(3) 0.9864(12) 0.5990(3)
C52 C -0.04654(16) 0.9056(6) 0.55378(15)
C53 C -0.06522(19) 1.0160(6) 0.51414(19)
H34 H -0.053126 1.128844 0.516382
C54 C -0.10159(19) 0.9612(7) 0.47122(17)
H35 H -0.114357 1.036702 0.444132
C55 C -0.11928(15) 0.7961(8) 0.46795(12)
H36 H -0.144139 0.758677 0.438615
C56 C -0.10060(11) 0.6857(6) 0.50759(11)
C57 C -0.06423(11) 0.7404(6) 0.55051(11)
C58 C -0.04554(13) 0.6300(6) 0.59015(11)
H37 H -0.020685 0.667398 0.619481
C59 C -0.06323(14) 0.4648(6) 0.58687(14)
H38 H -0.050466 0.389370 0.613966
C60 C -0.09961(15) 0.4101(6) 0.54396(16)
H39 H -0.111697 0.297222 0.541717
C61 C -0.11829(13) 0.5205(7) 0.50431(14)
H40 H -0.143148 0.483098 0.474982
loop_
_geom_bond_atom_site_label_1
_geom_bond_atom_site_label_2
_geom_bond_site_symmetry_1
_geom_bond_site_symmetry_2
Cu1 Br1 1_555 1_555
N1 Cu1 1_555 1_555
C1 N1 1_555 1_555
H1 C1 1_555 1_555
C2 C1 1_555 1_555
H2 C2 1_555 1_555
C3 C2 1_555 1_555
C4 C3 1_555 1_555
H3 C4 1_555 1_555
C5 N1 1_555 1_555
H4 C5 1_555 1_555
C6 C3 1_555 1_555
O1 C6 1_555 1_555
O2 C6 1_555 1_555
C7 O1 1_555 1_555
C8 C7 1_555 1_555
H5 C8 1_555 1_555
C9 C8 1_555 1_555
C10 C9 1_555 1_555
H6 C10 1_555 1_555
C11 C10 1_555 1_555
C12 C7 1_555 1_555
H7 C12 1_555 1_555
O3 C9 1_555 1_555
C13 O3 1_555 1_555
O4 C13 1_555 1_555
C14 C13 1_555 1_555
C15 C14 1_555 1_555
H8 C15 1_555 1_555
C16 C15 1_555 1_555
H9 C16 1_555 1_555
N2 C16 1_555 1_555
C17 N2 1_555 1_555
H10 C17 1_555 1_555
C18 C14 1_555 1_555
H11 C18 1_555 1_555
O5 C11 1_555 1_555
C19 O5 1_555 1_555
O6 C19 1_555 1_555
C20 C19 1_555 1_555
C21 C20 1_555 1_555
H12 C21 1_555 1_555
C22 C21 1_555 1_555
H13 C22 1_555 1_555
N3 C22 1_555 1_555
C23 N3 1_555 1_555
H14 C23 1_555 1_555
C24 C20 1_555 1_555
H15 C24 1_555 1_555
Cu2 N3 1_555 1_555
Br2 Cu2 1_555 1_555
N4 Cu2 1_555 1_555
C25 N4 1_555 1_555
H16 C25 1_555 1_555
C26 C25 1_555 1_555
H17 C26 1_555 1_555
C27 C26 1_555 1_555
C28 C27 1_555 1_555
H18 C28 1_555 1_555
C29 N4 1_555 1_555
H19 C29 1_555 1_555
C30 C27 1_555 1_555
O7 C30 1_555 1_555
O8 C30 1_555 1_555
C31 O7 1_555 1_555
C32 C31 1_555 1_555
H20 C32 1_555 1_555
C33 C32 1_555 1_555
C34 C33 1_555 1_555
H21 C34 1_555 1_555
C35 C34 1_555 1_555
C36 C31 1_555 1_555
H22 C36 1_555 1_555
O9 C33 1_555 1_555
C37 O9 1_555 1_555
O10 C37 1_555 1_555
C38 C37 1_555 1_555
C39 C38 1_555 1_555
H23 C39 1_555 1_555
C40 C39 1_555 1_555
H24 C40 1_555 1_555
N5 C40 1_555 1_555
C41 N5 1_555 1_555
H25 C41 1_555 1_555
C42 C38 1_555 1_555
H26 C42 1_555 1_555
O11 C35 1_555 1_555
C43 O11 1_555 1_555
O12 C43 1_555 1_555
C44 C43 1_555 1_555
C45 C44 1_555 1_555
H27 C45 1_555 1_555
C46 C45 1_555 1_555
H28 C46 1_555 1_555
N6 C46 1_555 1_555
C47 N6 1_555 1_555
H29 C47 1_555 1_555
C48 C44 1_555 1_555
H30 C48 1_555 1_555
S1 C49 1_555 1_555
C49 S2 1_555 1_555
O13 C51 1_555 1_555
C50 H31 1_555 1_555
H32 C50 1_555 1_555
H33 C50 1_555 1_555
C51 C50 1_555 1_555
C52 C51 1_555 1_555
C53 C52 1_555 1_555
H34 C53 1_555 1_555
C54 C53 1_555 1_555
H35 C54 1_555 1_555
C55 C54 1_555 1_555
H36 C55 1_555 1_555
C56 C55 1_555 1_555
C57 C52 1_555 1_555
C58 C57 1_555 1_555
H37 C58 1_555 1_555
C59 C58 1_555 1_555
H38 C59 1_555 1_555
C60 C59 1_555 1_555
H39 C60 1_555 1_555
C61 C56 1_555 1_555
H40 C61 1_555 1_555
Cu1_2 N6 1_555 1_555
Cu1C N2 1_555 1_555
N2C Cu1 1_555 1_555
Cu2C N5 1_555 1_555
N5C Cu2 1_555 1_555
N6_2 Cu1 1_555 1_555
C4 C5 1_555 1_555
C11 C12 1_555 1_555
C17 C18 1_555 1_555
C23 C24 1_555 1_555
C28 C29 1_555 1_555
C35 C36 1_555 1_555
C41 C42 1_555 1_555
C47 C48 1_555 1_555
C56 C57 1_555 1_555
C60 C61 1_555 1_555

#END
