
#######################################################################
#
#                 Cambridge Crystallographic Data Centre
#                                CCDC 
#
#######################################################################
#
# If this CIF has been generated from an entry in the Cambridge 
# Structural Database, then it will include bibliographic, chemical, 
# crystal, experimental, refinement or atomic coordinate data resulting 
# from the CCDC's data processing and validation procedures.
#
#######################################################################

data_LUXDEO
_chemical_formula_moiety         '(C38 H46 Ag2 N10 O2 2+)n'
_symmetry_cell_setting           tetragonal
_symmetry_space_group_name_H-M   'P 43 21 2'
_symmetry_Int_Tables_number      96
_space_group_name_Hall           'P 4nw 2abw'
loop_
_symmetry_equiv_pos_site_id
_symmetry_equiv_pos_as_xyz
1 x,y,z
2 -x,-y,1/2+z
3 1/2-y,1/2+x,3/4+z
4 1/2+y,1/2-x,1/4+z
5 1/2-x,1/2+y,3/4-z
6 1/2+x,1/2-y,1/4-z
7 y,x,-z
8 -y,-x,1/2-z
_cell_length_a                   12.3808(4)
_cell_length_b                   12.3808(4)
_cell_length_c                   32.558(2)
_cell_angle_alpha                90
_cell_angle_beta                 90
_cell_angle_gamma                90
_cell_volume                     4990.63
loop_
_atom_site_label
_atom_site_type_symbol
_atom_site_fract_x
_atom_site_fract_y
_atom_site_fract_z
_atom_site_U_iso_or_equiv
_atom_site_thermal_displace_type
Ag1 Ag 0.50714(3) 0.77499(3) 0.395571(12) 0.0685 Uani
C1 C 0.2676(5) 0.7686(5) 0.59304(17) 0.0640 Uani
C2 C 0.3674(5) 0.9218(5) 0.56386(19) 0.0820 Uani
H1 H 0.3483 0.9918 0.5511 0.0990 Uiso
H2 H 0.4242 0.8874 0.5469 0.0990 Uiso
C3 C 0.4455(5) 0.8334(5) 0.6203(2) 0.0757 Uani
H3 H 0.4772 0.8394 0.6481 0.0910 Uiso
H4 H 0.5007 0.8036 0.6014 0.0910 Uiso
C4 C 0.6650(5) 0.3605(4) 0.35444(18) 0.0687 Uani
H5 H 0.6381 0.2881 0.3466 0.0820 Uiso
H6 H 0.6821 0.4005 0.3289 0.0820 Uiso
C5 C 0.5782(5) 0.4197(5) 0.37767(19) 0.0670 Uani
C6 C 0.5701(5) 0.5311(4) 0.37514(15) 0.0573 Uani
H7 H 0.6163 0.5667 0.3562 0.0690 Uiso
C7 C 0.4372(5) 0.5442(5) 0.42368(15) 0.0607 Uani
C8 C 0.4385(5) 0.4328(5) 0.42912(19) 0.0713 Uani
H8 H 0.3928 0.3995 0.4489 0.0850 Uiso
C9 C 0.5094(5) 0.3695(5) 0.40457(19) 0.0767 Uani
H9 H 0.5091 0.2930 0.4068 0.0920 Uiso
C10 C 0.3706(5) 0.6159(5) 0.44974(15) 0.0633 Uani
C11 C 0.3288(6) 0.7900(5) 0.46882(18) 0.0763 Uani
H10 H 0.3387 0.8653 0.4647 0.0920 Uiso
C12 C 0.2580(5) 0.7583(5) 0.49917(16) 0.0743 Uani
C13 C 0.2427(5) 0.6482(5) 0.50309(19) 0.0800 Uani
H11 H 0.1937 0.6216 0.5231 0.0960 Uiso
C14 C 0.2960(5) 0.5781(5) 0.47899(16) 0.0710 Uani
H12 H 0.2833 0.5027 0.4817 0.0850 Uiso
C15 C 0.2100(5) 0.8424(5) 0.52834(17) 0.0710 Uani
H13 H 0.2078 0.9134 0.5144 0.0850 Uiso
H14 H 0.1349 0.8217 0.5352 0.0850 Uiso
C16 C 0.5007(5) 1.0250(6) 0.6075(2) 0.0947 Uani
C17 C 0.5909(7) 1.0019(6) 0.5753(4) 0.1593 Uani
H15 H 0.6252 0.9325 0.5815 0.2390 Uiso
H16 H 0.6452 1.0595 0.5764 0.2390 Uiso
H17 H 0.5591 0.9993 0.5477 0.2390 Uiso
C18 C 0.4460(6) 1.1346(6) 0.5983(3) 0.1067 Uani
H18 H 0.4989 1.1929 0.6014 0.1600 Uiso
H19 H 0.3863 1.1460 0.6176 0.1600 Uiso
H20 H 0.4180 1.1345 0.5702 0.1600 Uiso
C19 C 0.5446(6) 1.0274(6) 0.6517(2) 0.1093 Uani
H21 H 0.5870 0.9619 0.6569 0.1640 Uiso
H22 H 0.4841 1.0307 0.6711 0.1640 Uiso
H23 H 0.5906 1.0911 0.6553 0.1640 Uiso
N1 N 0.2717(4) 0.8518(4) 0.56546(13) 0.0657 Uani
N2 N 0.4083(4) 0.9401(4) 0.60572(16) 0.0693 Uani
N3 N 0.3486(4) 0.7633(4) 0.62099(14) 0.0640 Uani
N4 N 0.5031(4) 0.5926(4) 0.39702(12) 0.0613 Uani
N5 N 0.3843(4) 0.7231(4) 0.44491(14) 0.0687 Uani
O1 O 0.1929(3) 0.7047(3) 0.59330(12) 0.0713 Uani
Ag1F Ag 0.77499(3) 0.50714(3) 0.604429(12) 0.0685 Uani
Ag1C Ag 0.27499(3) 0.99286(3) 0.645571(12) 0.0685 Uani
Ag1D Ag 0.99286(3) 0.27499(3) 0.354429(12) 0.0685 Uani
C1F C 0.7686(5) 0.2676(5) 0.40696(17) 0.0640 Uani
C2F C 0.9218(5) 0.3674(5) 0.43614(19) 0.0820 Uani
H1F H 0.9918 0.3483 0.4489 0.0990 Uiso
H2F H 0.8874 0.4242 0.4531 0.0990 Uiso
C3F C 0.8334(5) 0.4455(5) 0.3797(2) 0.0757 Uani
H3F H 0.8394 0.4772 0.3519 0.0910 Uiso
H4F H 0.8036 0.5007 0.3986 0.0910 Uiso
C4F C 0.3605(4) 0.6650(5) 0.64556(18) 0.0687 Uani
H5F H 0.2881 0.6381 0.6534 0.0820 Uiso
H6F H 0.4005 0.6821 0.6711 0.0820 Uiso
C5F C 0.4197(5) 0.5782(5) 0.62233(19) 0.0670 Uani
C6F C 0.5311(4) 0.5701(5) 0.62486(15) 0.0573 Uani
H7F H 0.5667 0.6163 0.6438 0.0690 Uiso
C7F C 0.5442(5) 0.4372(5) 0.57632(15) 0.0607 Uani
C8F C 0.4328(5) 0.4385(5) 0.57088(19) 0.0713 Uani
H8F H 0.3995 0.3928 0.5511 0.0850 Uiso
C9F C 0.3695(5) 0.5094(5) 0.59543(19) 0.0767 Uani
H9F H 0.2930 0.5091 0.5932 0.0920 Uiso
C10F C 0.6159(5) 0.3706(5) 0.55026(15) 0.0633 Uani
C11F C 0.7900(5) 0.3288(6) 0.53118(18) 0.0763 Uani
H10F H 0.8653 0.3387 0.5353 0.0920 Uiso
C12F C 0.7583(5) 0.2580(5) 0.50083(16) 0.0743 Uani
C13F C 0.6482(5) 0.2427(5) 0.49691(19) 0.0800 Uani
H11F H 0.6216 0.1937 0.4769 0.0960 Uiso
C14F C 0.5781(5) 0.2960(5) 0.52101(16) 0.0710 Uani
H12F H 0.5027 0.2833 0.5183 0.0850 Uiso
C15F C 0.8424(5) 0.2100(5) 0.47166(17) 0.0710 Uani
H13F H 0.9134 0.2078 0.4856 0.0850 Uiso
H14F H 0.8217 0.1349 0.4648 0.0850 Uiso
C16F C 1.0250(6) 0.5007(5) 0.3925(2) 0.0947 Uani
C17F C 1.0019(6) 0.5909(7) 0.4247(4) 0.1593 Uani
H15F H 0.9325 0.6252 0.4185 0.2390 Uiso
H16F H 1.0595 0.6452 0.4236 0.2390 Uiso
H17F H 0.9993 0.5591 0.4523 0.2390 Uiso
C18F C 1.1346(6) 0.4460(6) 0.4017(3) 0.1067 Uani
H18F H 1.1929 0.4989 0.3986 0.1600 Uiso
H19F H 1.1460 0.3863 0.3824 0.1600 Uiso
H20F H 1.1345 0.4180 0.4298 0.1600 Uiso
C19F C 1.0274(6) 0.5446(6) 0.3483(2) 0.1093 Uani
H21F H 0.9619 0.5870 0.3431 0.1640 Uiso
H22F H 1.0307 0.4841 0.3289 0.1640 Uiso
H23F H 1.0911 0.5906 0.3447 0.1640 Uiso
N1F N 0.8518(4) 0.2717(4) 0.43454(13) 0.0657 Uani
N2F N 0.9401(4) 0.4083(4) 0.39428(16) 0.0693 Uani
N2B N 0.5599(4) 0.9083(4) 0.35572(16) 0.0693 Uani
N2E N 0.9083(4) 0.5599(4) 0.64428(16) 0.0693 Uani
N3F N 0.7633(4) 0.3486(4) 0.37901(14) 0.0640 Uani
N4F N 0.5926(4) 0.5031(4) 0.60298(12) 0.0613 Uani
N5F N 0.7231(4) 0.3843(4) 0.55509(14) 0.0687 Uani
O1F O 0.7047(3) 0.1929(3) 0.40670(12) 0.0713 Uani
loop_
_atom_site_aniso_label
_atom_site_aniso_U_11
_atom_site_aniso_U_22
_atom_site_aniso_U_33
_atom_site_aniso_U_23
_atom_site_aniso_U_13
_atom_site_aniso_U_12
Ag1 0.0740(3) 0.0539(3) 0.0776(3) 0.00509(19) 0.0138(2) 0.0031(2)
C1 0.052 0.062 0.078 -0.012 0.018 0.011
C2 0.069 0.086 0.091 0 0.04 -0.012
C3 0.057 0.059 0.111 0 0.009 -0.001
C4 0.073(4) 0.049(3) 0.084(4) -0.013(3) -0.008(3) 0.000(3)
C5 0.066(4) 0.049(3) 0.086(4) -0.013(3) -0.007(3) -0.001(3)
C6 0.067(3) 0.055(3) 0.050(3) 0.001(2) -0.002(2) -0.006(3)
C7 0.061(3) 0.061(4) 0.060(3) -0.007(3) 0.002(3) -0.014(3)
C8 0.071(4) 0.056(4) 0.087(4) 0.008(3) 0.015(3) -0.009(3)
C9 0.066(4) 0.053(3) 0.111(4) 0.001(3) 0.012(4) -0.011(3)
C10 0.074(4) 0.059(4) 0.057(3) 0.001(2) -0.008(3) 0.005(3)
C11 0.094(5) 0.058(4) 0.077(4) 0.001(3) 0.014(3) 0.014(3)
C12 0.082(4) 0.087(4) 0.054(3) -0.001(3) 0.003(3) 0.004(3)
C13 0.075(4) 0.088(5) 0.077(4) -0.012(3) 0.004(3) -0.028(4)
C14 0.072(4) 0.075(4) 0.066(3) -0.012(3) 0.006(3) -0.021(3)
C15 0.071(4) 0.075(4) 0.067(3) 0.001(3) 0.016(3) 0.010(3)
C16 0.066 0.065 0.153 0.01 0.009 -0.009
C17 0.064 0.099 0.315 0.027 0.069 -0.006
C18 0.069 0.083 0.168 0.012 0.009 -0.01
C19 0.087 0.081 0.16 0.012 -0.048 -0.007
N1 0.058 0.081 0.058 -0.005 0.018 0.005
N2 0.056 0.063 0.089 -0.009 0.012 0.004
N3 0.049 0.067 0.076 -0.002 0.007 -0.006
N4 0.067(3) 0.050(2) 0.067(2) -0.002(2) -0.003(3) -0.001(2)
N5 0.077(3) 0.055(3) 0.074(3) 0.003(2) 0.016(2) 0.007(2)
O1 0.05 0.076 0.088 -0.008 0.0107 -0.009
Ag1F 0.0539 0.074 0.0776 -0.0138 -0.00509 0.0031
Ag1C 0.0539 0.074 0.0776 -0.0138 0.00509 -0.0031
Ag1D 0.074 0.0539 0.0776 -0.00509 0.0138 -0.0031
C1F 0.062(3) 0.052(3) 0.078(4) -0.018(3) 0.012(3) 0.011(3)
C2F 0.086(5) 0.069(4) 0.091(4) -0.040(4) 0.000(4) -0.012(3)
C3F 0.059(4) 0.057(4) 0.111(4) -0.009(3) 0.000(3) -0.001(3)
C4F 0.049 0.073 0.084 0.008 0.013 0
C5F 0.049 0.066 0.086 0.007 0.013 -0.001
C6F 0.055 0.067 0.05 0.002 -0.001 -0.006
C7F 0.061 0.061 0.06 -0.002 0.007 -0.014
C8F 0.056 0.071 0.087 -0.015 -0.008 -0.009
C9F 0.053 0.066 0.111 -0.012 -0.001 -0.011
C10F 0.059 0.074 0.057 0.008 -0.001 0.005
C11F 0.058 0.094 0.077 -0.014 -0.001 0.014
C12F 0.087 0.082 0.054 -0.003 0.001 0.004
C13F 0.088 0.075 0.077 -0.004 0.012 -0.028
C14F 0.075 0.072 0.066 -0.006 0.012 -0.021
C15F 0.075 0.071 0.067 -0.016 -0.001 0.01
C16F 0.065(4) 0.066(4) 0.153(6) -0.009(4) -0.010(4) -0.009(3)
C17F 0.099(7) 0.064(5) 0.315(15) -0.069(7) -0.027(8) -0.006(5)
C18F 0.083(5) 0.069(5) 0.168(7) -0.009(5) -0.012(5) -0.010(4)
C19F 0.081(5) 0.087(5) 0.160(7) 0.048(5) -0.012(5) -0.007(4)
N1F 0.081(3) 0.058(3) 0.058(2) -0.018(2) 0.005(2) 0.005(3)
N2F 0.063(3) 0.056(3) 0.089(3) -0.012(3) 0.009(3) 0.004(2)
N2B 0.063 0.056 0.089 0.012 0.009 -0.004
N2E 0.056 0.063 0.089 -0.009 -0.012 -0.004
N3F 0.067(3) 0.049(2) 0.076(3) -0.007(2) 0.002(2) -0.006(2)
N4F 0.05 0.067 0.067 0.003 0.002 -0.001
N5F 0.055 0.077 0.074 -0.016 -0.003 0.007
O1F 0.076(3) 0.050(2) 0.088(3) -0.0107(19) 0.008(2) -0.009(2)
loop_
_geom_bond_atom_site_label_1
_geom_bond_atom_site_label_2
_geom_bond_site_symmetry_1
_geom_bond_site_symmetry_2
Ag1 N4 1_555 1_555
C1 N1 1_555 1_555
C2 H1 1_555 1_555
H2 C2 1_555 1_555
C3 H3 1_555 1_555
H4 C3 1_555 1_555
C4 H5 1_555 1_555
H6 C4 1_555 1_555
C5 C4 1_555 1_555
C6 C5 1_555 1_555
H7 C6 1_555 1_555
C7 C8 1_555 1_555
C8 H8 1_555 1_555
C9 C5 1_555 1_555
H9 C9 1_555 1_555
C10 C7 1_555 1_555
C11 H10 1_555 1_555
C12 C11 1_555 1_555
C13 C12 1_555 1_555
H11 C13 1_555 1_555
C14 C10 1_555 1_555
H12 C14 1_555 1_555
C15 C12 1_555 1_555
H13 C15 1_555 1_555
H14 C15 1_555 1_555
C16 C17 1_555 1_555
C17 H15 1_555 1_555
H16 C17 1_555 1_555
H17 C17 1_555 1_555
C18 C16 1_555 1_555
H18 C18 1_555 1_555
H19 C18 1_555 1_555
H20 C18 1_555 1_555
C19 C16 1_555 1_555
H21 C19 1_555 1_555
H22 C19 1_555 1_555
H23 C19 1_555 1_555
N1 C2 1_555 1_555
N2 C2 1_555 1_555
N3 C1 1_555 1_555
N4 C6 1_555 1_555
N5 Ag1 1_555 1_555
O1 C1 1_555 1_555
Ag1F N2E 1_555 1_555
Ag1C N2 1_555 1_555
Ag1D N2F 1_555 1_555
C1F N1F 1_555 1_555
C2F H1F 1_555 1_555
H2F C2F 1_555 1_555
C3F H3F 1_555 1_555
H4F C3F 1_555 1_555
C4F N3 1_555 1_555
H5F C4F 1_555 1_555
H6F C4F 1_555 1_555
C5F C4F 1_555 1_555
C6F C5F 1_555 1_555
H7F C6F 1_555 1_555
C7F C8F 1_555 1_555
C8F H8F 1_555 1_555
C9F C5F 1_555 1_555
H9F C9F 1_555 1_555
C10F C7F 1_555 1_555
C11F H10F 1_555 1_555
C12F C11F 1_555 1_555
C13F C12F 1_555 1_555
H11F C13F 1_555 1_555
C14F C10F 1_555 1_555
H12F C14F 1_555 1_555
C15F C12F 1_555 1_555
H13F C15F 1_555 1_555
H14F C15F 1_555 1_555
C16F C17F 1_555 1_555
C17F H15F 1_555 1_555
H16F C17F 1_555 1_555
H17F C17F 1_555 1_555
C18F C16F 1_555 1_555
H18F C18F 1_555 1_555
H19F C18F 1_555 1_555
H20F C18F 1_555 1_555
C19F C16F 1_555 1_555
H21F C19F 1_555 1_555
H22F C19F 1_555 1_555
H23F C19F 1_555 1_555
N1F C2F 1_555 1_555
N2F C2F 1_555 1_555
N2B Ag1 1_555 1_555
N3F C4 1_555 1_555
N4F Ag1F 1_555 1_555
N5F Ag1F 1_555 1_555
O1F C1F 1_555 1_555
C3 N2 1_555 1_555
C3 N3 1_555 1_555
C7 N4 1_555 1_555
C8 C9 1_555 1_555
C10 N5 1_555 1_555
C11 N5 1_555 1_555
C13 C14 1_555 1_555
C15 N1 1_555 1_555
C16 N2 1_555 1_555
C1F N3F 1_555 1_555
C3F N2F 1_555 1_555
C3F N3F 1_555 1_555
C6F N4F 1_555 1_555
C7F N4F 1_555 1_555
C8F C9F 1_555 1_555
C10F N5F 1_555 1_555
C11F N5F 1_555 1_555
C13F C14F 1_555 1_555
C15F N1F 1_555 1_555
C16F N2F 1_555 1_555

#END
