
#######################################################################
#
#                 Cambridge Crystallographic Data Centre
#                                CCDC 
#
#######################################################################
#
# If this CIF has been generated from an entry in the Cambridge 
# Structural Database, then it will include bibliographic, chemical, 
# crystal, experimental, refinement or atomic coordinate data resulting 
# from the CCDC's data processing and validation procedures.
#
#######################################################################

data_ANUGIA
_chemical_formula_moiety         '(C28 H18 Cu2 O10)n'
_symmetry_cell_setting           rhombohedral
_symmetry_space_group_name_H-M   'R 3 m'
_symmetry_Int_Tables_number      160
_space_group_name_Hall           'R 3 -2"'
loop_
_symmetry_equiv_pos_site_id
_symmetry_equiv_pos_as_xyz
1 x,y,z
2 -y,x-y,z
3 -x+y,-x,z
4 -x+y,y,z
5 x,x-y,z
6 -y,-x,z
7 2/3+x,1/3+y,1/3+z
8 2/3-y,1/3+x-y,1/3+z
9 2/3-x+y,1/3-x,1/3+z
10 2/3-x+y,1/3+y,1/3+z
11 2/3+x,1/3+x-y,1/3+z
12 2/3-y,1/3-x,1/3+z
13 1/3+x,2/3+y,2/3+z
14 1/3-y,2/3+x-y,2/3+z
15 1/3-x+y,2/3-x,2/3+z
16 1/3-x+y,2/3+y,2/3+z
17 1/3+x,2/3+x-y,2/3+z
18 1/3-y,2/3-x,2/3+z
_cell_length_a                   26.3043(11)
_cell_length_b                   26.3043(11)
_cell_length_c                   26.5885(19)
_cell_angle_alpha                90
_cell_angle_beta                 90
_cell_angle_gamma                120
_cell_volume                     15932.3
loop_
_atom_site_label
_atom_site_type_symbol
_atom_site_fract_x
_atom_site_fract_y
_atom_site_fract_z
Cu1 Cu 0.39833(5) 0.19917(2) 0.29450(5)
Cu2 Cu 0.43713(5) 0.56287(3) 0.71109(5)
O1 O 0.3514(2) 0.2265(2) 0.3253(2)
O2 O 0.4094(4) 0.59063(18) 0.7772(3)
O3 O 0.3469(4) 0.1734(2) 0.2215(4)
O4 O 0.3622(2) 0.5351(2) 0.6780(2)
O5 O 0.38737(19) 0.50707(18) 0.60635(17)
O6 O 0.40383(19) 0.25390(18) 0.39748(18)
C1 C 0.3241(3) 0.2715(3) 0.3886(4)
C2 C 0.2946(4) 0.3111(4) 0.4540(4)
H1 H 0.3001 0.3252 0.4868
C3 C 0.3299(4) 0.2906(4) 0.4378(4)
H2 H 0.3572 0.2894 0.4592
C4 C 0.2505(4) 0.3131(3) 0.4257(4)
C5 C 0.2447(4) 0.2902(4) 0.3805(5)
H3 H 0.2146 0.2871 0.3600
C6 C 0.2819(4) 0.2701(4) 0.3612(4)
H4 H 0.2762 0.2557 0.3285
C7 C 0.3616(3) 0.2481(3) 0.3674(4)
C8 C 0.3518(3) 0.5143(3) 0.6340(3)
C9 C 0.1571(2) 0.3141(2) 0.4287(4)
H5 H 0.1433 0.2865 0.4029
C10 C 0.2111(3) 0.3326(3) 0.4459(3)
C11 C 0.2324(3) 0.3757(3) 0.4828(3)
H6 H 0.2708 0.3904 0.4939
C12 C 0.1992(2) 0.3983(2) 0.5043(5)
C13 C 0.2200(2) 0.4399(2) 0.5477(4)
C14 C 0.25631(18) 0.51261(18) 0.6332(4)
H7 H 0.2679 0.5357 0.6620
C15 C 0.2932(3) 0.4932(3) 0.6090(3)
C16 C 0.2737(3) 0.4573(3) 0.5692(3)
H8 H 0.2973 0.4437 0.5556
Cu1G Cu 0.46750(2) 0.53249(5) 0.62783(5)
Cu1C Cu -0.19916(5) 0.19917(2) 0.29450(5)
Cu1J Cu 0.06500(5) 0.53249(5) 0.62783(5)
Cu2N Cu 0.45907(6) 0.22954(5) 0.37776(5)
Cu2L Cu -0.22954(5) 0.22954(3) 0.37776(5)
Cu2B Cu 0.12574(6) 0.56287(5) 0.71109(5)
O1C O -0.1249(3) 0.2265(2) 0.3253(2)
O1D O 0.3514(2) 0.1249(3) 0.3253(2)
O4C O 0.1729(3) 0.5351(2) 0.6780(2)
O4E O 0.4649(2) 0.6378(2) 0.6780(2)
O5C O 0.11970(26) 0.50707(18) 0.60635(17)
O5N O 0.45303(26) 0.27930(19) 0.27302(17)
O5O O 0.45303(26) 0.17374(18) 0.27302(17)
O6C O -0.14993(26) 0.25390(18) 0.39748(18)
O6G O 0.41277(18) 0.48326(26) 0.73081(18)
O6I O 0.51674(26) 0.58723(18) 0.73081(18)
C1C C -0.0526(4) 0.2715(3) 0.3886(4)
C2C C 0.0165(6) 0.3111(4) 0.4540(4)
H1C H 0.0251 0.3252 0.4868
C3C C -0.0393(6) 0.2906(4) 0.4378(4)
H2C H -0.0678 0.2894 0.4592
C4C C 0.0626(5) 0.3131(3) 0.4257(4)
C5C C 0.0455(6) 0.2902(4) 0.3805(5)
H3C H 0.0725 0.2871 0.3600
C6C C -0.0118(6) 0.2701(4) 0.3612(4)
H4C H -0.0205 0.2557 0.3285
C7C C -0.1135(4) 0.2481(3) 0.3674(4)
C8C C 0.1625(4) 0.5143(3) 0.6340(3)
C10C C 0.1215(4) 0.3326(3) 0.4459(3)
C11C C 0.1433(4) 0.3757(3) 0.4828(3)
H6C H 0.1196 0.3904 0.4939
C15C C 0.2000(4) 0.4932(3) 0.6090(3)
C16C C 0.1836(4) 0.4573(3) 0.5692(3)
H8C H 0.1464 0.4437 0.5556
loop_
_geom_bond_atom_site_label_1
_geom_bond_atom_site_label_2
_geom_bond_site_symmetry_1
_geom_bond_site_symmetry_2
Cu1 O1 1_555 1_555
Cu2 O2 1_555 1_555
O1 C7 1_555 1_555
O3 Cu1 1_555 1_555
O4 Cu2 1_555 1_555
O5 C8 1_555 1_555
O6 C7 1_555 1_555
C1 C3 1_555 1_555
C2 H1 1_555 1_555
C3 C2 1_555 1_555
H2 C3 1_555 1_555
C4 C2 1_555 1_555
C5 C4 1_555 1_555
H3 C5 1_555 1_555
C6 C1 1_555 1_555
H4 C6 1_555 1_555
C7 C1 1_555 1_555
C8 O4 1_555 1_555
C9 H5 1_555 1_555
C10 C4 1_555 1_555
C11 C10 1_555 1_555
H6 C11 1_555 1_555
C12 C11 1_555 1_555
C13 C12 1_555 1_555
C14 H7 1_555 1_555
C15 C8 1_555 1_555
C16 C13 1_555 1_555
H8 C16 1_555 1_555
Cu1G O5 1_555 1_555
Cu1C O1C 1_555 1_555
Cu1J O5C 1_555 1_555
Cu2N O6 1_555 1_555
Cu2L O6C 1_555 1_555
Cu2B O4C 1_555 1_555
O1C C7C 1_555 1_555
O1D Cu1 1_555 1_555
O4C C8C 1_555 1_555
O4E Cu2 1_555 1_555
O5C C8C 1_555 1_555
O5N Cu1 1_555 1_555
O5O Cu1 1_555 1_555
O6C C7C 1_555 1_555
O6G Cu2 1_555 1_555
O6I Cu2 1_555 1_555
C1C C3C 1_555 1_555
C2C H1C 1_555 1_555
C3C C2C 1_555 1_555
H2C C3C 1_555 1_555
C4C C2C 1_555 1_555
C5C C4C 1_555 1_555
H3C C5C 1_555 1_555
C6C C1C 1_555 1_555
H4C C6C 1_555 1_555
C7C C1C 1_555 1_555
C8C C15C 1_555 1_555
C10C C9 1_555 1_555
C11C C12 1_555 1_555
H6C C11C 1_555 1_555
C15C C14 1_555 1_555
C16C C13 1_555 1_555
H8C C16C 1_555 1_555
C5 C6 1_555 1_555
C9 C10 1_555 1_555
C14 C15 1_555 1_555
C15 C16 1_555 1_555
C4C C10C 1_555 1_555
C5C C6C 1_555 1_555
C10C C11C 1_555 1_555
C15C C16C 1_555 1_555

#END
