
#######################################################################
#
#                 Cambridge Crystallographic Data Centre
#                                CCDC 
#
#######################################################################
#
# If this CIF has been generated from an entry in the Cambridge 
# Structural Database, then it will include bibliographic, chemical, 
# crystal, experimental, refinement or atomic coordinate data resulting 
# from the CCDC's data processing and validation procedures.
#
#######################################################################

data_ANUGOG
_chemical_formula_moiety         '(C28 H18 Cu2 O10)n'
_symmetry_cell_setting           orthorhombic
_symmetry_space_group_name_H-M   'F d d d'
_symmetry_Int_Tables_number      70
_space_group_name_Hall           '-F 2uv 2vw'
loop_
_symmetry_equiv_pos_site_id
_symmetry_equiv_pos_as_xyz
1 x,y,z
2 1/4-x,3/4-y,1/2+z
3 x,1/2+y,1/2+z
4 1/4-x,1/4-y,z
5 1/2+x,y,1/2+z
6 3/4-x,3/4-y,z
7 1/2+x,1/2+y,z
8 3/4-x,1/4-y,1/2+z
9 x,3/4-y,3/4-z
10 3/4-x,y,3/4-z
11 x,1/4-y,1/4-z
12 3/4-x,1/2+y,1/4-z
13 1/2+x,3/4-y,1/4-z
14 1/4-x,y,1/4-z
15 1/2+x,1/4-y,3/4-z
16 1/4-x,1/2+y,3/4-z
17 -x,-y,-z
18 3/4+x,1/4+y,1/2-z
19 -x,1/2-y,1/2-z
20 3/4+x,3/4+y,-z
21 1/2-x,-y,1/2-z
22 1/4+x,1/4+y,-z
23 1/2-x,1/2-y,-z
24 1/4+x,3/4+y,1/2-z
25 -x,1/4+y,1/4+z
26 1/4+x,-y,1/4+z
27 -x,3/4+y,3/4+z
28 1/4+x,1/2-y,3/4+z
29 1/2-x,1/4+y,3/4+z
30 3/4+x,-y,3/4+z
31 1/2-x,3/4+y,1/4+z
32 3/4+x,1/2-y,1/4+z
_cell_length_a                   21.7064(7)
_cell_length_b                   29.0072(11)
_cell_length_c                   43.700(3)
_cell_angle_alpha                90
_cell_angle_beta                 90
_cell_angle_gamma                90
_cell_volume                     27515.4
loop_
_atom_site_label
_atom_site_type_symbol
_atom_site_fract_x
_atom_site_fract_y
_atom_site_fract_z
_atom_site_U_iso_or_equiv
_atom_site_thermal_displace_type
Cu1 Cu 0.75087(3) 0.22130(3) 0.023090(17) 0.0462 Uani
O1 O 0.07769(16) 0.50064(15) 0.03318(9) 0.0633 Uani
O2 O 0.29364(16) 0.47961(15) 0.20416(8) 0.0590 Uani
O3 O 0.08015(15) 0.45079(14) -0.00685(9) 0.0630 Uani
O4 O 0.74881(17) 0.17038(16) 0.06285(9) 0.0943 Uani
O5 O 0.29236(16) 0.43228(12) 0.24405(9) 0.0550 Uani
C1 C 0.1636(2) 0.4499(2) 0.02905(14) 0.0547 Uani
C2 C 0.1912(3) 0.4126(2) 0.01495(13) 0.0667 Uani
H1 H 0.1740 0.3997 -0.0026 0.0800 Uiso
C3 C 0.2440(3) 0.4530(3) 0.06526(16) 0.0817 Uani
H2 H 0.2629 0.4675 0.0818 0.0980 Uiso
C4 C 0.2699(3) 0.4141(2) 0.05297(15) 0.0637 Uani
C5 C 0.2444(3) 0.3947(3) 0.02723(13) 0.0693 Uani
H3 H 0.2633 0.3694 0.0181 0.0830 Uiso
C6 C 0.1895(3) 0.4712(2) 0.05319(14) 0.0613 Uani
H4 H 0.1715 0.4974 0.0617 0.0740 Uiso
C7 C 0.3261(2) 0.3940(2) 0.06987(14) 0.0627 Uani
C8 C 0.3750 0.3750 0.05415(19) 0.0730 Uani
H5 H 0.3750 0.3750 0.0329 0.0870 Uiso
C9 C 0.3252(2) 0.3943(2) 0.10103(13) 0.0607 Uani
H6 H 0.2921 0.4071 0.1114 0.0730 Uiso
C10 C 0.3750 0.3750 0.11750(18) 0.0620 Uani
C11 C 0.3750 0.3750 0.1501(2) 0.0593 Uani
C12 C 0.3443(2) 0.4083(2) 0.16820(14) 0.0537 Uani
H7 H 0.3241 0.4322 0.1582 0.0640 Uiso
C13 C 0.3750 0.3750 0.21646(19) 0.0547 Uani
H8 H 0.3750 0.3750 0.2377 0.0660 Uiso
C14 C 0.3424(2) 0.4073(2) 0.19966(14) 0.0480 Uani
C15 C 0.1006(3) 0.4696(2) 0.01763(17) 0.0553 Uani
C16 C 0.3064(3) 0.4421(3) 0.21685(17) 0.0567 Uani
Cu1E Cu -0.00087(3) 0.52870(3) 0.023090(17) 0.0462 Uani
Cu1L Cu 0.25087(3) 0.52870(3) 0.226910(17) 0.0462 Uani
Cu1U Cu 0.00087(3) 0.47130(3) -0.023090(17) 0.0462 Uani
Cu1X Cu 0.24913(3) 0.47130(3) 0.273090(17) 0.0462 Uani
Cu1V Cu 0.74913(3) 0.27870(3) -0.023090(17) 0.0462 Uani
Cu1M Cu 0.49913(3) 0.22130(3) 0.226910(17) 0.0462 Uani
Cu1EA Cu 0.50087(3) 0.27870(3) 0.273090(17) 0.0462 Uani
O1E O 0.67231(16) 0.24936(15) 0.03318(9) 0.0633 Uani
O1M O 0.17231(16) 0.50064(15) 0.21682(9) 0.0633 Uani
O2E O 0.45636(16) 0.27039(15) 0.20416(8) 0.0590 Uani
O2L O 0.79364(16) 0.27039(15) 0.04584(8) 0.0590 Uani
O3E O 0.66985(15) 0.29921(14) -0.00685(9) 0.0630 Uani
O3S O 0.83015(15) 0.20079(14) 0.00685(9) 0.0630 Uani
O3Y O 0.33015(15) 0.54921(14) 0.24315(9) 0.0630 Uani
O4L O 0.24881(17) 0.57962(16) 0.18715(9) 0.0943 Uani
O5E O 0.45764(16) 0.31772(12) 0.24405(9) 0.0550 Uani
O5Z O 0.70764(16) 0.18228(12) -0.00595(9) 0.0550 Uani
O5T O 0.20764(16) 0.56772(12) 0.25595(9) 0.0550 Uani
C1E C 0.5864(2) 0.3001(2) 0.02905(14) 0.0547 Uani
C2E C 0.5588(3) 0.3374(2) 0.01495(13) 0.0667 Uani
H1E H 0.5760 0.3503 -0.0026 0.0800 Uiso
C3E C 0.5060(3) 0.2970(3) 0.06526(16) 0.0817 Uani
H2E H 0.4871 0.2825 0.0818 0.0980 Uiso
C4E C 0.4801(3) 0.3359(2) 0.05297(15) 0.0637 Uani
C5E C 0.5056(3) 0.3553(3) 0.02723(13) 0.0693 Uani
H3E H 0.4867 0.3806 0.0181 0.0830 Uiso
C6E C 0.5605(3) 0.2788(2) 0.05319(14) 0.0613 Uani
H4E H 0.5785 0.2526 0.0617 0.0740 Uiso
C7E C 0.4239(2) 0.3560(2) 0.06987(14) 0.0627 Uani
C9E C 0.4248(2) 0.3557(2) 0.10103(13) 0.0607 Uani
H6E H 0.4579 0.3429 0.1114 0.0730 Uiso
C12E C 0.4057(2) 0.3417(2) 0.16820(14) 0.0537 Uani
H7E H 0.4259 0.3178 0.1582 0.0640 Uiso
C14E C 0.4076(2) 0.3427(2) 0.19966(14) 0.0480 Uani
C15E C 0.6494(3) 0.2804(2) 0.01763(17) 0.0553 Uani
C16E C 0.4436(3) 0.3079(3) 0.21685(17) 0.0567 Uani
loop_
_atom_site_aniso_label
_atom_site_aniso_U_11
_atom_site_aniso_U_22
_atom_site_aniso_U_33
_atom_site_aniso_U_23
_atom_site_aniso_U_13
_atom_site_aniso_U_12
Cu1 0.0327 0.0588 0.047 -0.0016 0.0028 0.0031
O1 0.038(2) 0.089(3) 0.063(3) -0.013(3) -0.012(2) 0.025(2)
O2 0.059 0.071 0.047 -0.007 0.005 0.018
O3 0.034(2) 0.091(3) 0.064(3) -0.004(3) -0.020(2) 0.017(2)
O4 0.071 0.132 0.08 -0.001 0.003 0.003
O5 0.059 0.056 0.05 0.005 0.009 0.01
C1 0.039(4) 0.089(5) 0.036(4) 0.008(4) -0.018(3) 0.010(4)
C2 0.050(4) 0.093(5) 0.057(4) -0.005(4) 0.012(4) 0.029(4)
C3 0.070(5) 0.095(6) 0.080(6) -0.005(5) -0.016(4) 0.026(4)
C4 0.050(4) 0.087(5) 0.054(5) 0.021(4) -0.001(4) 0.035(4)
C5 0.040(4) 0.140(7) 0.028(4) -0.013(4) -0.005(3) 0.035(4)
C6 0.053(4) 0.075(5) 0.056(5) -0.002(4) -0.014(4) 0.027(4)
C7 0.040(4) 0.105(6) 0.043(4) 0.011(4) -0.007(3) 0.030(4)
C8 0.049(6) 0.117(8) 0.053(6) 0.000 0.000 0.043(6)
C9 0.047(4) 0.102(5) 0.033(4) -0.002(4) -0.006(3) 0.021(3)
C10 0.066(7) 0.114(8) 0.006(5) 0.000 0.000 0.006(6)
C11 0.018(5) 0.083(7) 0.077(8) 0.000 0.000 0.027(5)
C12 0.028(3) 0.077(5) 0.056(5) 0.019(4) 0.001(3) 0.016(3)
C13 0.045(5) 0.064(6) 0.055(6) 0.000 0.000 0.003(5)
C14 0.039(4) 0.062(5) 0.043(4) -0.013(4) 0.012(3) 0.012(3)
C15 0.040(4) 0.068(5) 0.058(5) 0.027(4) 0.002(4) 0.001(4)
C16 0.045 0.064 0.061 0.028 -0.019 -0.022
Cu1E 0.0327(6) 0.0588(8) 0.0470(7) 0.0016(5) -0.0028(4) 0.0031(4)
Cu1L 0.0327 0.0588 0.047 -0.0016 -0.0028 -0.0031
Cu1U 0.0327 0.0588 0.047 0.0016 -0.0028 0.0031
Cu1X 0.0327 0.0588 0.047 -0.0016 -0.0028 -0.0031
Cu1V 0.0327 0.0588 0.047 -0.0016 0.0028 0.0031
Cu1M 0.0327 0.0588 0.047 0.0016 0.0028 -0.0031
Cu1EA 0.0327 0.0588 0.047 0.0016 0.0028 -0.0031
O1E 0.038 0.089 0.063 0.013 0.012 0.025
O1M 0.038 0.089 0.063 0.013 -0.012 -0.025
O2E 0.059 0.071 0.047 0.007 -0.005 0.018
O2L 0.059 0.071 0.047 -0.007 -0.005 -0.018
O3E 0.034 0.091 0.064 0.004 0.02 0.017
O3S 0.034 0.091 0.064 0.004 0.02 0.017
O3Y 0.034 0.091 0.064 0.004 -0.02 -0.017
O4L 0.071 0.132 0.08 -0.001 -0.003 -0.003
O5E 0.059 0.056 0.05 -0.005 -0.009 0.01
O5Z 0.059 0.056 0.05 0.005 -0.009 -0.01
O5T 0.059 0.056 0.05 0.005 0.009 0.01
C1E 0.039 0.089 0.036 -0.008 0.018 0.01
C2E 0.05 0.093 0.057 0.005 -0.012 0.029
C3E 0.07 0.095 0.08 0.005 0.016 0.026
C4E 0.05 0.087 0.054 -0.021 0.001 0.035
C5E 0.04 0.14 0.028 0.013 0.005 0.035
C6E 0.053 0.075 0.056 0.002 0.014 0.027
C7E 0.04 0.105 0.043 -0.011 0.007 0.03
C9E 0.047 0.102 0.033 0.002 0.006 0.021
C12E 0.028 0.077 0.056 -0.019 -0.001 0.016
C14E 0.039 0.062 0.043 0.013 -0.012 0.012
C15E 0.04 0.068 0.058 -0.027 -0.002 0.001
C16E 0.045 0.064 0.061 -0.028 0.019 -0.022
loop_
_geom_bond_atom_site_label_1
_geom_bond_atom_site_label_2
_geom_bond_site_symmetry_1
_geom_bond_site_symmetry_2
Cu1 O4 1_555 1_555
O1 C15 1_555 1_555
O2 C16 1_555 1_555
O3 C15 1_555 1_555
O5 C16 1_555 1_555
C1 C2 1_555 1_555
C2 H1 1_555 1_555
C3 H2 1_555 1_555
C4 C3 1_555 1_555
C5 C2 1_555 1_555
H3 C5 1_555 1_555
C6 C1 1_555 1_555
H4 C6 1_555 1_555
C7 C4 1_555 1_555
C8 C7 1_555 1_555
H5 C8 1_555 1_555
C9 C7 1_555 1_555
H6 C9 1_555 1_555
C10 C9 1_555 1_555
C11 C10 1_555 1_555
C12 C11 1_555 1_555
H7 C12 1_555 1_555
C13 H8 1_555 1_555
C14 C12 1_555 1_555
C15 C1 1_555 1_555
C16 C14 1_555 1_555
Cu1E O1 1_555 1_555
Cu1L O2 1_555 1_555
Cu1U O3 1_555 1_555
Cu1X O5 1_555 1_555
Cu1V O3E 1_555 1_555
Cu1M O2E 1_555 1_555
Cu1EA O5E 1_555 1_555
O1E Cu1 1_555 1_555
O1M Cu1L 1_555 1_555
O2E C16E 1_555 1_555
O2L Cu1 1_555 1_555
O3E C15E 1_555 1_555
O3S Cu1 1_555 1_555
O3Y Cu1L 1_555 1_555
O4L Cu1L 1_555 1_555
O5E C16E 1_555 1_555
O5Z Cu1 1_555 1_555
O5T Cu1L 1_555 1_555
C1E C2E 1_555 1_555
C2E H1E 1_555 1_555
C3E H2E 1_555 1_555
C4E C3E 1_555 1_555
C5E C2E 1_555 1_555
H3E C5E 1_555 1_555
C6E C1E 1_555 1_555
H4E C6E 1_555 1_555
C7E C8 1_555 1_555
C9E C10 1_555 1_555
H6E C9E 1_555 1_555
C12E C11 1_555 1_555
H7E C12E 1_555 1_555
C14E C13 1_555 1_555
C15E O1E 1_555 1_555
C16E C14E 1_555 1_555
C3 C6 1_555 1_555
C4 C5 1_555 1_555
C13 C14 1_555 1_555
C1E C15E 1_555 1_555
C3E C6E 1_555 1_555
C4E C5E 1_555 1_555
C4E C7E 1_555 1_555
C7E C9E 1_555 1_555
C12E C14E 1_555 1_555

#END
