
#######################################################################
#
#                 Cambridge Crystallographic Data Centre
#                                CCDC 
#
#######################################################################
#
# If this CIF has been generated from an entry in the Cambridge 
# Structural Database, then it will include bibliographic, chemical, 
# crystal, experimental, refinement or atomic coordinate data resulting 
# from the CCDC's data processing and validation procedures.
#
#######################################################################

data_ANUGEW
_chemical_formula_moiety         '(C84 H56 Cu6 O30)n'
_symmetry_cell_setting           orthorhombic
_symmetry_space_group_name_H-M   'I m m m'
_symmetry_Int_Tables_number      71
_space_group_name_Hall           '-I 2 2'
loop_
_symmetry_equiv_pos_site_id
_symmetry_equiv_pos_as_xyz
1 x,y,z
2 -x,-y,z
3 1/2+x,1/2+y,1/2+z
4 1/2-x,1/2-y,1/2+z
5 x,-y,-z
6 -x,y,-z
7 1/2+x,1/2-y,1/2-z
8 1/2-x,1/2+y,1/2-z
9 -x,-y,-z
10 x,y,-z
11 1/2-x,1/2-y,1/2-z
12 1/2+x,1/2+y,1/2-z
13 -x,y,z
14 x,-y,z
15 1/2-x,1/2+y,1/2+z
16 1/2+x,1/2-y,1/2+z
_cell_length_a                   24.6055(17)
_cell_length_b                   33.271(2)
_cell_length_c                   33.271(2)
_cell_angle_alpha                90
_cell_angle_beta                 90
_cell_angle_gamma                90
_cell_volume                     27237.3
loop_
_atom_site_label
_atom_site_type_symbol
_atom_site_fract_x
_atom_site_fract_y
_atom_site_fract_z
Cu1 Cu 0.5000 0.5000 0.03981(5)
Cu2 Cu 0.19980(4) 0.26204(3) 0.24545(3)
Cu3 Cu -0.0000 0.03987(4) 0.0000
O1 O 0.5000 0.5000 0.1034(3)
O2 O 0.44423(19) 0.45765(11) 0.03392(12)
O3 O 0.2230(3) 0.28655(14) 0.19604(12)
O4 O 0.1144(2) 0.28468(18) 0.24004(18)
O5 O 0.1887(2) 0.21057(15) 0.21822(17)
O6 O 0.3109(3) 0.26737(17) 0.20378(17)
O7 O 0.2733(3) 0.19060(12) 0.22443(14)
O8 O -0.0000 0.1037(2) 0.0000
O9 O 0.05450(17) 0.03408(11) 0.04225(11)
C1 C 0.4290(4) 0.4453(2) 0.0000
C2 C 0.3911(4) 0.4109(2) 0.0000
C3 C 0.3755(3) 0.39472(18) 0.03508(19)
H1 H 0.3907 0.4043 0.0592
C4 C 0.3352(3) 0.36239(17) 0.03638(19)
C5 C 0.3163(4) 0.3453(3) 0.0000
H2 H 0.2920 0.3235 0.0000
C6 C 0.3165(3) 0.3437(2) 0.0749(2)
C7 C 0.2664(4) 0.3337(2) 0.0835(2)
H3 H 0.2393 0.3389 0.0643
C8 C 0.2514(4) 0.3161(2) 0.1187(2)
H4 H 0.2145 0.3110 0.1241
C9 C 0.2899(4) 0.3058(2) 0.1460(2)
C10 C 0.3423(4) 0.3143(2) 0.1390(2)
H5 H 0.3687 0.3081 0.1585
C11 C 0.3582(4) 0.3324(2) 0.1021(3)
H6 H 0.3950 0.3367 0.0959
C12 C 0.2704(5) 0.28672(19) 0.1857(2)
C13 C 0.2245(4) 0.1865(3) 0.2117(2)
C14 C 0.2111(4) 0.1471(2) 0.1910(2)
C15 C 0.1601(3) 0.1418(2) 0.1761(2)
H7 H 0.1348 0.1629 0.1779
C16 C 0.1451(3) 0.1063(2) 0.1586(2)
H8 H 0.1095 0.1028 0.1490
C17 C 0.1827(3) 0.07545(18) 0.1552(2)
C18 C 0.2359(4) 0.08075(18) 0.1695(2)
H9 H 0.2619 0.0603 0.1666
C19 C 0.2493(3) 0.1165(2) 0.1878(2)
H10 H 0.2845 0.1202 0.1981
C20 C 0.1833(4) 0.0000 0.1531(3)
H11 H 0.2064 0.0000 0.1755
C21 C 0.1650(3) 0.03731(18) 0.1354(2)
C22 C 0.1304(2) 0.03514(17) 0.10351(19)
H12 H 0.1186 0.0593 0.0916
C23 C 0.1121(4) 0.0000 0.0881(3)
C24 C 0.0741(3) 0.0000 0.0526(2)
Cu1D Cu 0.5000 0.5000 -0.03981(5)
Cu2I Cu 0.19980(4) 0.26204(3) -0.24545(3)
Cu2A Cu 0.80020(4) 0.73796(3) 0.24545(3)
Cu2H Cu 0.80020(4) 0.73796(3) -0.24545(3)
Cu2J Cu 0.30020(4) 0.23796(3) 0.25455(3)
Cu2C Cu 0.30020(4) 0.23796(3) -0.25455(3)
Cu2M Cu 0.19980(4) -0.26204(3) 0.24545(3)
Cu2G Cu 0.30020(4) -0.23796(3) 0.25455(3)
Cu2K Cu 0.69980(4) 0.76204(3) 0.25455(3)
Cu2B Cu 0.69980(4) 0.76204(3) -0.25455(3)
Cu2G_2 Cu 0.30020(4) 0.76204(3) 0.25455(3)
Cu2M_2 Cu 0.19980(4) 0.73796(3) 0.24545(3)
Cu3A Cu 0.0000 -0.03987(4) 0.0000
Cu3C Cu 0.5000 0.46013(4) 0.5000
Cu3B Cu 0.5000 0.53987(4) 0.5000
O2I O 0.44423(19) 0.45765(11) -0.03392(12)
O2A O 0.55577(19) 0.54235(11) 0.03392(12)
O2H O 0.55577(19) 0.54235(11) -0.03392(12)
O2L O 0.55577(19) 0.45765(11) 0.03392(12)
O2M O 0.44423(19) 0.54235(11) 0.03392(12)
O3I O 0.2230(3) 0.28655(14) -0.19604(12)
O3A O 0.7770(3) 0.71345(14) 0.19604(12)
O3H O 0.7770(3) 0.71345(14) -0.19604(12)
O4I O 0.1144(2) 0.28468(18) -0.24004(18)
O4A O 0.8856(2) 0.71532(18) 0.24004(18)
O4H O 0.8856(2) 0.71532(18) -0.24004(18)
O5M O 0.1887(2) -0.21057(15) 0.21822(17)
O5J O 0.3113(2) 0.28943(15) 0.28178(17)
O5G O 0.3113(2) 0.71057(15) 0.28178(17)
O5I O 0.1887(2) 0.21057(15) -0.21822(17)
O5A O 0.8113(2) 0.78943(15) 0.21822(17)
O5H O 0.8113(2) 0.78943(15) -0.21822(17)
O6I O 0.3109(3) 0.26737(17) -0.20378(17)
O6A O 0.6891(3) 0.73263(17) 0.20378(17)
O6H O 0.6891(3) 0.73263(17) -0.20378(17)
O6J O 0.1891(3) 0.23263(17) 0.29622(17)
O6C O 0.1891(3) 0.23263(17) -0.29622(17)
O6K O 0.8109(3) 0.76737(17) 0.29622(17)
O6B O 0.8109(3) 0.76737(17) -0.29622(17)
O7M O 0.2733(3) -0.19060(12) 0.22443(14)
O7J O 0.2267(3) 0.30940(12) 0.27557(14)
O7G O 0.2267(3) 0.69060(12) 0.27557(14)
O7C O 0.2267(3) 0.30940(12) -0.27557(14)
O7K O 0.7733(3) 0.69060(12) 0.27557(14)
O7B O 0.7733(3) 0.69060(12) -0.27557(14)
O9M O 0.05450(17) -0.03408(11) 0.04225(11)
O9J O 0.44550(17) 0.46592(11) 0.45775(11)
O9G O 0.44550(17) 0.53408(11) 0.45775(11)
O9E O -0.05450(17) 0.03408(11) -0.04225(11)
O9I O 0.05450(17) 0.03408(11) -0.04225(11)
O9L O -0.05450(17) 0.03408(11) 0.04225(11)
C1A C 0.5710(4) 0.5547(2) 0.0000
C2A C 0.6089(4) 0.5891(2) 0.0000
C3I C 0.3755(3) 0.39472(18) -0.03508(19)
C3A C 0.6245(3) 0.60528(18) 0.03508(19)
C3H C 0.6245(3) 0.60528(18) -0.03508(19)
H1I H 0.3907 0.4043 -0.0592
H1A H 0.6093 0.5957 0.0592
H1H H 0.6093 0.5957 -0.0592
C4I C 0.3352(3) 0.36239(17) -0.03638(19)
C4A C 0.6648(3) 0.63761(17) 0.03638(19)
C4H C 0.6648(3) 0.63761(17) -0.03638(19)
C5A C 0.6837(4) 0.6547(3) 0.0000
H2A H 0.7080 0.6765 0.0000
C6I C 0.3165(3) 0.3437(2) -0.0749(2)
C6A C 0.6835(3) 0.6563(2) 0.0749(2)
C6H C 0.6835(3) 0.6563(2) -0.0749(2)
C7I C 0.2664(4) 0.3337(2) -0.0835(2)
C7A C 0.7336(4) 0.6663(2) 0.0835(2)
C7H C 0.7336(4) 0.6663(2) -0.0835(2)
H3I H 0.2393 0.3389 -0.0643
H3A H 0.7607 0.6611 0.0643
H3H H 0.7607 0.6611 -0.0643
C8I C 0.2514(4) 0.3161(2) -0.1187(2)
C8A C 0.7486(4) 0.6839(2) 0.1187(2)
C8H C 0.7486(4) 0.6839(2) -0.1187(2)
H4I H 0.2145 0.3110 -0.1241
H4A H 0.7855 0.6890 0.1241
H4H H 0.7855 0.6890 -0.1241
C9I C 0.2899(4) 0.3058(2) -0.1460(2)
C9A C 0.7101(4) 0.6942(2) 0.1460(2)
C9H C 0.7101(4) 0.6942(2) -0.1460(2)
C10I C 0.3423(4) 0.3143(2) -0.1390(2)
C10A C 0.6577(4) 0.6857(2) 0.1390(2)
C10H C 0.6577(4) 0.6857(2) -0.1390(2)
H5I H 0.3687 0.3081 -0.1585
H5A H 0.6313 0.6919 0.1585
H5H H 0.6313 0.6919 -0.1585
C11I C 0.3582(4) 0.3324(2) -0.1021(3)
C11A C 0.6418(4) 0.6676(2) 0.1021(3)
C11H C 0.6418(4) 0.6676(2) -0.1021(3)
H6I H 0.3950 0.3367 -0.0959
H6A H 0.6050 0.6633 0.0959
H6H H 0.6050 0.6633 -0.0959
C12I C 0.2704(5) 0.28672(19) -0.1857(2)
C12A C 0.7296(5) 0.71328(19) 0.1857(2)
C12H C 0.7296(5) 0.71328(19) -0.1857(2)
C13M C 0.2245(4) -0.1865(3) 0.2117(2)
C13J C 0.2755(4) 0.3135(3) 0.2883(2)
C13G C 0.2755(4) 0.6865(3) 0.2883(2)
C14M C 0.2111(4) -0.1471(2) 0.1910(2)
C14J C 0.2889(4) 0.3529(2) 0.3090(2)
C14G C 0.2889(4) 0.6471(2) 0.3090(2)
C15M C 0.1601(3) -0.1418(2) 0.1761(2)
C15J C 0.3399(3) 0.3582(2) 0.3239(2)
C15G C 0.3399(3) 0.6418(2) 0.3239(2)
H7M H 0.1348 -0.1629 0.1779
H7J H 0.3652 0.3371 0.3221
H7G H 0.3652 0.6629 0.3221
C16M C 0.1451(3) -0.1063(2) 0.1586(2)
C16J C 0.3549(3) 0.3937(2) 0.3414(2)
C16G C 0.3549(3) 0.6063(2) 0.3414(2)
H8M H 0.1095 -0.1028 0.1490
H8J H 0.3905 0.3972 0.3510
H8G H 0.3905 0.6028 0.3510
C17M C 0.1827(3) -0.07545(18) 0.1552(2)
C17J C 0.3173(3) 0.42455(18) 0.3448(2)
C17G C 0.3173(3) 0.57545(18) 0.3448(2)
C18M C 0.2359(4) -0.08075(18) 0.1695(2)
C18J C 0.2641(4) 0.41925(18) 0.3305(2)
C18G C 0.2641(4) 0.58075(18) 0.3305(2)
H9M H 0.2619 -0.0603 0.1666
H9J H 0.2381 0.4397 0.3334
H9G H 0.2381 0.5603 0.3334
C19M C 0.2493(3) -0.1165(2) 0.1878(2)
C19J C 0.2507(3) 0.3835(2) 0.3122(2)
C19G C 0.2507(3) 0.6165(2) 0.3122(2)
H10M H 0.2845 -0.1202 0.1981
H10J H 0.2155 0.3798 0.3019
H10G H 0.2155 0.6202 0.3019
C20G C 0.3167(4) 0.5000 0.3469(3)
H11G H 0.2936 0.5000 0.3245
C21M C 0.1650(3) -0.03731(18) 0.1354(2)
C21J C 0.3350(3) 0.46269(18) 0.3646(2)
C21G C 0.3350(3) 0.53731(18) 0.3646(2)
C22M C 0.1304(2) -0.03514(17) 0.10351(19)
C22J C 0.3696(2) 0.46486(17) 0.39649(19)
C22G C 0.3696(2) 0.53514(17) 0.39649(19)
H12M H 0.1186 -0.0593 0.0916
H12J H 0.3814 0.4407 0.4084
H12G H 0.3814 0.5593 0.4084
C23G C 0.3879(4) 0.5000 0.4119(3)
C24G C 0.4259(3) 0.5000 0.4474(2)
loop_
_geom_bond_atom_site_label_1
_geom_bond_atom_site_label_2
_geom_bond_site_symmetry_1
_geom_bond_site_symmetry_2
Cu1 O1 1_555 1_555
Cu2 O3 1_555 1_555
Cu3 O8 1_555 1_555
O2 Cu1 1_555 1_555
O3 C12 1_555 1_555
O4 Cu2 1_555 1_555
O5 Cu2 1_555 1_555
O6 C12 1_555 1_555
O7 C13 1_555 1_555
O9 Cu3 1_555 1_555
C1 O2 1_555 1_555
C2 C1 1_555 1_555
C3 C2 1_555 1_555
H1 C3 1_555 1_555
C4 C3 1_555 1_555
C5 C4 1_555 1_555
H2 C5 1_555 1_555
C6 C4 1_555 1_555
C7 C6 1_555 1_555
H3 C7 1_555 1_555
C8 C7 1_555 1_555
H4 C8 1_555 1_555
C9 C8 1_555 1_555
C10 C9 1_555 1_555
H5 C10 1_555 1_555
C11 C6 1_555 1_555
H6 C11 1_555 1_555
C12 C9 1_555 1_555
C13 O5 1_555 1_555
C14 C13 1_555 1_555
C15 C14 1_555 1_555
H7 C15 1_555 1_555
C16 C15 1_555 1_555
H8 C16 1_555 1_555
C17 C16 1_555 1_555
C18 C17 1_555 1_555
H9 C18 1_555 1_555
C19 C14 1_555 1_555
H10 C19 1_555 1_555
C20 H11 1_555 1_555
C21 C17 1_555 1_555
C22 C21 1_555 1_555
H12 C22 1_555 1_555
C23 C22 1_555 1_555
C24 O9 1_555 1_555
Cu1D O2I 1_555 1_555
Cu2I O3I 1_555 1_555
Cu2A O3A 1_555 1_555
Cu2H O3H 1_555 1_555
Cu2J O6 1_555 1_555
Cu2C O6I 1_555 1_555
Cu2M O5M 1_555 1_555
Cu2G O7M 1_555 1_555
Cu2K O6A 1_555 1_555
Cu2B O6H 1_555 1_555
Cu2G_2 O5G 1_555 1_555
Cu2M_2 O7G 1_555 1_555
Cu3A O9M 1_555 1_555
Cu3C O9J 1_555 1_555
Cu3B O9G 1_555 1_555
O2I C1 1_555 1_555
O2A Cu1 1_555 1_555
O2H Cu1D 1_555 1_555
O2L Cu1 1_555 1_555
O2M Cu1 1_555 1_555
O3I C12I 1_555 1_555
O3A C12A 1_555 1_555
O3H C12H 1_555 1_555
O4I Cu2I 1_555 1_555
O4A Cu2A 1_555 1_555
O4H Cu2H 1_555 1_555
O5M C13M 1_555 1_555
O5J Cu2J 1_555 1_555
O5G C13G 1_555 1_555
O5I Cu2I 1_555 1_555
O5A Cu2A 1_555 1_555
O5H Cu2H 1_555 1_555
O6I C12I 1_555 1_555
O6A C12A 1_555 1_555
O6H C12H 1_555 1_555
O6J Cu2 1_555 1_555
O6C Cu2I 1_555 1_555
O6K Cu2A 1_555 1_555
O6B Cu2H 1_555 1_555
O7M C13M 1_555 1_555
O7J Cu2 1_555 1_555
O7G C13G 1_555 1_555
O7C Cu2I 1_555 1_555
O7K Cu2A 1_555 1_555
O7B Cu2H 1_555 1_555
O9M C24 1_555 1_555
O9J C24G 1_555 1_555
O9G C24G 1_555 1_555
O9E Cu3 1_555 1_555
O9I Cu3 1_555 1_555
O9L Cu3 1_555 1_555
C1A O2A 1_555 1_555
C2A C1A 1_555 1_555
C3I C2 1_555 1_555
C3A C2A 1_555 1_555
C3H C2A 1_555 1_555
H1I C3I 1_555 1_555
H1A C3A 1_555 1_555
H1H C3H 1_555 1_555
C4I C5 1_555 1_555
C4A C3A 1_555 1_555
C4H C3H 1_555 1_555
C5A C4A 1_555 1_555
H2A C5A 1_555 1_555
C6I C4I 1_555 1_555
C6A C4A 1_555 1_555
C6H C4H 1_555 1_555
C7I C6I 1_555 1_555
C7A C6A 1_555 1_555
C7H C6H 1_555 1_555
H3I C7I 1_555 1_555
H3A C7A 1_555 1_555
H3H C7H 1_555 1_555
C8I C7I 1_555 1_555
C8A C7A 1_555 1_555
C8H C7H 1_555 1_555
H4I C8I 1_555 1_555
H4A C8A 1_555 1_555
H4H C8H 1_555 1_555
C9I C8I 1_555 1_555
C9A C8A 1_555 1_555
C9H C8H 1_555 1_555
C10I C9I 1_555 1_555
C10A C9A 1_555 1_555
C10H C9H 1_555 1_555
H5I C10I 1_555 1_555
H5A C10A 1_555 1_555
H5H C10H 1_555 1_555
C11I C6I 1_555 1_555
C11A C6A 1_555 1_555
C11H C6H 1_555 1_555
H6I C11I 1_555 1_555
H6A C11A 1_555 1_555
H6H C11H 1_555 1_555
C12I C9I 1_555 1_555
C12A C9A 1_555 1_555
C12H C9H 1_555 1_555
C13M C14M 1_555 1_555
C13J O5J 1_555 1_555
C13G C14G 1_555 1_555
C14M C15M 1_555 1_555
C14J C13J 1_555 1_555
C14G C15G 1_555 1_555
C15M H7M 1_555 1_555
C15J C14J 1_555 1_555
C15G H7G 1_555 1_555
H7J C15J 1_555 1_555
C16M C15M 1_555 1_555
C16J C15J 1_555 1_555
C16G C15G 1_555 1_555
H8M C16M 1_555 1_555
H8J C16J 1_555 1_555
H8G C16G 1_555 1_555
C17M C16M 1_555 1_555
C17J C16J 1_555 1_555
C17G C16G 1_555 1_555
C18M C17M 1_555 1_555
C18J C17J 1_555 1_555
C18G C17G 1_555 1_555
H9M C18M 1_555 1_555
H9J C18J 1_555 1_555
H9G C18G 1_555 1_555
C19M C14M 1_555 1_555
C19J C14J 1_555 1_555
C19G C14G 1_555 1_555
H10M C19M 1_555 1_555
H10J C19J 1_555 1_555
H10G C19G 1_555 1_555
C20G H11G 1_555 1_555
C21M C20 1_555 1_555
C21J C17J 1_555 1_555
C21G C17G 1_555 1_555
C22M C23 1_555 1_555
C22J C21J 1_555 1_555
C22G C21G 1_555 1_555
H12M C22M 1_555 1_555
H12J C22J 1_555 1_555
H12G C22G 1_555 1_555
C23G C22J 1_555 1_555
C24G C23G 1_555 1_555
O7 Cu2J 1_555 1_555
C10 C11 1_555 1_555
C18 C19 1_555 1_555
C20 C21 1_555 1_555
C23 C24 1_555 1_555
O2H C1A 1_555 1_555
O7J C13J 1_555 1_555
C3I C4I 1_555 1_555
C4H C5A 1_555 1_555
C10I C11I 1_555 1_555
C10A C11A 1_555 1_555
C10H C11H 1_555 1_555
C17M C21M 1_555 1_555
C18M C19M 1_555 1_555
C18J C19J 1_555 1_555
C18G C19G 1_555 1_555
C20G C21J 1_555 1_555
C20G C21G 1_555 1_555
C21M C22M 1_555 1_555
C22G C23G 1_555 1_555

#END
