
#######################################################################
#
#                 Cambridge Crystallographic Data Centre
#                                CCDC 
#
#######################################################################
#
# If this CIF has been generated from an entry in the Cambridge 
# Structural Database, then it will include bibliographic, chemical, 
# crystal, experimental, refinement or atomic coordinate data resulting 
# from the CCDC's data processing and validation procedures.
#
#######################################################################

data_ANUGUM
_chemical_formula_moiety         '(C29 H13 O10 Zn2)n'
_symmetry_cell_setting           monoclinic
_symmetry_space_group_name_H-M   'C 2/c'
_symmetry_Int_Tables_number      15
_space_group_name_Hall           '-C 2yc'
loop_
_symmetry_equiv_pos_site_id
_symmetry_equiv_pos_as_xyz
1 x,y,z
2 -x,y,1/2-z
3 1/2+x,1/2+y,z
4 1/2-x,1/2+y,1/2-z
5 -x,-y,-z
6 x,-y,1/2+z
7 1/2-x,1/2-y,-z
8 1/2+x,1/2-y,1/2+z
_cell_length_a                   11.8586(2)
_cell_length_b                   30.7710(6)
_cell_length_c                   17.4516(12)
_cell_angle_alpha                90
_cell_angle_beta                 90.983(6)
_cell_angle_gamma                90
_cell_volume                     6367.17
loop_
_atom_site_label
_atom_site_type_symbol
_atom_site_fract_x
_atom_site_fract_y
_atom_site_fract_z
Zn1 Zn 0.08227(4) 1.065020(13) 0.67142(3)
O1 O 0.1367(2) 0.94487(8) 1.07048(15)
O2 O 0.4501(3) 0.62373(8) 0.80359(18)
O3 O 0.0630(3) 1.03563(8) 0.84565(16)
O4 O 0.1584(3) 1.02471(8) 0.74028(15)
O5 O 0.2587(3) 0.89194(12) 1.06850(19)
C1 C 0.4239(3) 0.89879(9) 0.7951(2)
C2 C 0.2036(3) 0.98115(9) 0.84700(19)
C3 C 0.2823(3) 0.95817(9) 0.8059(2)
H1 H 0.2974 0.9661 0.7557
C4 C 0.1795(3) 0.96925(11) 0.9233(2)
H2 H 0.1259 0.9847 0.9504
C5 C 0.5000 0.92010(14) 0.7500
H3 H 0.5000 0.9503 0.7500
C6 C 0.3393(3) 0.92313(10) 0.8392(2)
C7 C 0.4240(3) 0.85280(10) 0.7940(2)
H4 H 0.3725 0.8375 0.8232
C8 C 0.3142(3) 0.91135(11) 0.9140(2)
H5 H 0.3500 0.8874 0.9360
C9 C 0.1359(3) 1.01711(10) 0.8083(2)
C10 C 0.5000 0.78160(14) 0.7500
C11 C 0.2108(3) 0.92268(14) 1.0383(2)
C12 C 0.2349(3) 0.93504(9) 0.9574(2)
C13 C 0.5000 0.83050(14) 0.7500
C14 C 0.5492(4) 0.75806(13) 0.6916(3)
H6 H 0.5859 0.7728 0.6528
C15 C 0.5000 0.64190(15) 0.7500
C16 C 0.5000 0.69010(16) 0.7500
C17 C 0.5451(5) 0.71394(12) 0.6898(2)
H7 H 0.5730 0.6993 0.6475
Zn1A Zn -0.08227(4) 1.065020(13) 0.82858(3)
Zn1_2 Zn 1.08227(4) 1.065020(13) 0.67142(3)
Zn1A_2 Zn 0.91773(4) 1.065020(13) 0.82858(3)
Zn1B Zn 0.58227(4) 0.565020(13) 0.67142(3)
Zn1C Zn 0.41773(4) 0.565020(13) 0.82858(3)
Zn1D Zn 0.91773(4) 0.934980(13) 0.32858(3)
Zn1E Zn 0.08227(4) 0.934980(13) 1.17142(3)
O1A O 0.8633(2) 0.94487(8) 0.42952(15)
O1D O -0.1367(2) 1.05513(8) 0.92952(15)
O1E O 0.1367(2) 1.05513(8) 0.57048(15)
O2A O 0.5499(3) 0.62373(8) 0.69641(18)
O2B O -0.0499(3) 1.12373(8) 0.80359(18)
O2C O 0.0499(3) 1.12373(8) 0.69641(18)
O3A O 0.9370(3) 1.03563(8) 0.65435(16)
O3A_2 O -0.0630(3) 1.03563(8) 0.65435(16)
O4A O 0.8416(3) 1.02471(8) 0.75972(15)
O4A_2 O -0.1584(3) 1.02471(8) 0.75972(15)
O5A O 0.7413(3) 0.89194(12) 0.43150(19)
C1A C 0.5761(3) 0.89879(9) 0.7049(2)
C2A C 0.7964(3) 0.98115(9) 0.65300(19)
C3A C 0.7177(3) 0.95817(9) 0.6941(2)
H1A H 0.7026 0.9661 0.7443
C4A C 0.8205(3) 0.96925(11) 0.5767(2)
H2A H 0.8741 0.9847 0.5496
C6A C 0.6607(3) 0.92313(10) 0.6608(2)
C7A C 0.5760(3) 0.85280(10) 0.7060(2)
H4A H 0.6275 0.8375 0.6768
C8A C 0.6858(3) 0.91135(11) 0.5860(2)
H5A H 0.6500 0.8874 0.5640
C9A C 0.8641(3) 1.01711(10) 0.6917(2)
C11A C 0.7892(3) 0.92268(14) 0.4617(2)
C12A C 0.7651(3) 0.93504(9) 0.5426(2)
C14A C 0.4508(4) 0.75806(13) 0.8084(3)
H6A H 0.4141 0.7728 0.8472
C17A C 0.4549(5) 0.71394(12) 0.8102(2)
H7A H 0.4270 0.6993 0.8525
loop_
_geom_bond_atom_site_label_1
_geom_bond_atom_site_label_2
_geom_bond_site_symmetry_1
_geom_bond_site_symmetry_2
Zn1 O4 1_555 1_555
O1 C11 1_555 1_555
O2 C15 1_555 1_555
O3 C9 1_555 1_555
O4 C9 1_555 1_555
O5 C11 1_555 1_555
C1 C5 1_555 1_555
C2 C3 1_555 1_555
C3 H1 1_555 1_555
C4 C2 1_555 1_555
H2 C4 1_555 1_555
C5 H3 1_555 1_555
C6 C1 1_555 1_555
C7 C1 1_555 1_555
H4 C7 1_555 1_555
C8 C6 1_555 1_555
H5 C8 1_555 1_555
C9 C2 1_555 1_555
C10 C13 1_555 1_555
C11 C12 1_555 1_555
C12 C4 1_555 1_555
C13 C7 1_555 1_555
C14 C10 1_555 1_555
H6 C14 1_555 1_555
C15 C16 1_555 1_555
C16 C17 1_555 1_555
C17 C14 1_555 1_555
H7 C17 1_555 1_555
Zn1A O3 1_555 1_555
Zn1_2 O3A 1_555 1_555
Zn1A_2 O4A 1_555 1_555
Zn1B O2A 1_555 1_555
Zn1C O2 1_555 1_555
Zn1D O1A 1_555 1_555
Zn1E O1 1_555 1_555
O1A C11A 1_555 1_555
O1D Zn1A 1_555 1_555
O1E Zn1 1_555 1_555
O2A C15 1_555 1_555
O2B Zn1A 1_555 1_555
O2C Zn1 1_555 1_555
O3A C9A 1_555 1_555
O3A_2 Zn1 1_555 1_555
O4A C9A 1_555 1_555
O4A_2 Zn1A 1_555 1_555
O5A C11A 1_555 1_555
C1A C5 1_555 1_555
C2A C3A 1_555 1_555
C3A H1A 1_555 1_555
C4A C2A 1_555 1_555
H2A C4A 1_555 1_555
C6A C1A 1_555 1_555
C7A C13 1_555 1_555
H4A C7A 1_555 1_555
C8A C6A 1_555 1_555
H5A C8A 1_555 1_555
C9A C2A 1_555 1_555
C11A C12A 1_555 1_555
C12A C4A 1_555 1_555
C14A C10 1_555 1_555
H6A C14A 1_555 1_555
C17A C16 1_555 1_555
H7A C17A 1_555 1_555
C3 C6 1_555 1_555
C8 C12 1_555 1_555
C1A C7A 1_555 1_555
C3A C6A 1_555 1_555
C8A C12A 1_555 1_555
C14A C17A 1_555 1_555

#END
