
#######################################################################
#
#                 Cambridge Crystallographic Data Centre
#                                CCDC 
#
#######################################################################
#
# If this CIF has been generated from an entry in the Cambridge 
# Structural Database, then it will include bibliographic, chemical, 
# crystal, experimental, refinement or atomic coordinate data resulting 
# from the CCDC's data processing and validation procedures.
#
#######################################################################

data_NIWPIU
_chemical_formula_moiety         '(C3 H7 Mg1 N1 O6)n'
_symmetry_cell_setting           hexagonal
_symmetry_space_group_name_H-M   'P 63 2 2'
_symmetry_Int_Tables_number      182
_space_group_name_Hall           'P 6c 2c'
loop_
_symmetry_equiv_pos_site_id
_symmetry_equiv_pos_as_xyz
1 x,y,z
2 x,x-y,1/2-z
3 -x+y,y,1/2-z
4 -y,-x,1/2-z
5 x-y,x,1/2+z
6 y,-x+y,1/2+z
7 -x,-y,1/2+z
8 -x,-x+y,-z
9 x-y,-y,-z
10 y,x,-z
11 -x+y,-x,z
12 -y,x-y,z
_cell_length_a                   7.2830(10)
_cell_length_b                   7.2830(10)
_cell_length_c                   8.2240(16)
_cell_angle_alpha                90
_cell_angle_beta                 90
_cell_angle_gamma                120
_cell_volume                     377.776
loop_
_atom_site_label
_atom_site_type_symbol
_atom_site_fract_x
_atom_site_fract_y
_atom_site_fract_z
Mg1 Mg 0.6667 0.3333 0.7500
O1 O 0.89048(8) 0.31001(9) 0.89430(6)
C1 C 1.0000 0.43983(18) 1.0000
H1 H 1.0000 0.587(3) 1.0000
O1G O 1.10952(8) 0.41953(12) 1.10570(6)
O1A O 0.89048(8) 0.58047(12) 0.60570(6)
C1A C 1.0000 0.56017(18) 0.5000
H1A H 1.0000 0.4130(30) 0.5000
O1F O 1.10952(8) 0.68999(9) 0.39430(6)
O1B O 0.41953(12) 0.31001(9) 0.60570(6)
C1B C 0.43983(18) 0.43983(18) 0.5000
H1B H 0.5870(30) 0.587(3) 0.5000
O1E O 0.31001(9) 0.41953(12) 0.39430(6)
Mg1D Mg 0.3334 0.6667 0.2500
Mg1D_2 Mg 1.3334 0.6667 0.2500
Mg1D_3 Mg 1.3334 0.6667 1.2500
O1C O 0.68999(9) 0.10952(8) 0.60570(6)
O1J O 0.41953(12) 0.10952(8) 0.89430(6)
O1K O 0.68999(9) 0.58047(12) 0.89430(6)
N1 N 1.0000 0.0000 0.7500
loop_
_geom_bond_atom_site_label_1
_geom_bond_atom_site_label_2
_geom_bond_site_symmetry_1
_geom_bond_site_symmetry_2
Mg1 O1 1_555 1_555
O1 C1 1_555 1_555
C1 H1 1_555 1_555
O1G C1 1_555 1_555
O1A Mg1 1_555 1_555
C1A O1A 1_555 1_555
H1A C1A 1_555 1_555
O1F C1A 1_555 1_555
O1B Mg1 1_555 1_555
C1B O1B 1_555 1_555
H1B C1B 1_555 1_555
O1E C1B 1_555 1_555
Mg1D O1E 1_555 1_555
Mg1D_2 O1F 1_555 1_555
Mg1D_3 O1G 1_555 1_555
O1C Mg1 1_555 1_555
O1J Mg1 1_555 1_555
O1K Mg1 1_555 1_555

#END
