
#######################################################################
#
#                 Cambridge Crystallographic Data Centre
#                                CCDC 
#
#######################################################################
#
# If this CIF has been generated from an entry in the Cambridge 
# Structural Database, then it will include bibliographic, chemical, 
# crystal, experimental, refinement or atomic coordinate data resulting 
# from the CCDC's data processing and validation procedures.
#
#######################################################################

data_DIGFAC
_chemical_formula_moiety         '(C27 H40 N4 O9 Zn2)n'
_symmetry_cell_setting           monoclinic
_symmetry_space_group_name_H-M   'P 21'
_symmetry_Int_Tables_number      4
_space_group_name_Hall           'P 2yb'
loop_
_symmetry_equiv_pos_site_id
_symmetry_equiv_pos_as_xyz
1 x,y,z
2 -x,1/2+y,-z
_cell_length_a                   9.6870(9)
_cell_length_b                   13.3514(10)
_cell_length_c                   13.4083(13)
_cell_angle_alpha                90
_cell_angle_beta                 93.07
_cell_angle_gamma                90
_cell_volume                     1731.67
loop_
_atom_site_label
_atom_site_type_symbol
_atom_site_fract_x
_atom_site_fract_y
_atom_site_fract_z
Zn1 Zn 1.14037(6) -1.45160(6) 0.25616(5)
Zn2 Zn 0.84712(5) -1.45331(5) 0.24391(5)
O1 O 0.8950(5) -1.1004(4) -0.2299(4)
O2 O 1.1229(5) -1.0987(3) -0.1947(4)
O3 O 1.0969(5) -1.4264(3) 0.1091(4)
O4 O 0.8692(5) -1.4044(4) 0.1043(4)
O5 O 1.1045(6) -1.3062(4) 0.2824(4)
O6 O 0.8774(5) -1.3110(4) 0.2930(4)
O7 O 0.8842(6) -0.9790(4) 0.5976(4)
O8 O 1.1083(6) -1.0028(3) 0.6151(4)
N1 N 0.6360(3) -1.4524(7) 0.2444(3)
N2 N 0.3501(3) -1.4493(8) 0.2542(4)
N3 N 0.3565(19) -1.2680(14) 0.2319(14)
H1 H 0.2770 -1.2626 0.2604
H2 H 0.3982 -1.2140 0.2108
C1 C 0.9840(7) -1.4059(4) 0.0645(5)
C2 C 0.9847(10) -1.3775(5) -0.0451(5)
C3 C 0.9955(9) -1.0031(4) 0.5648(5)
C4 C 0.9955(11) -1.0315(5) 0.4542(5)
C5 C 0.9905(9) -1.1577(5) 0.3282(5)
C6 C 1.006(2) -1.2030(7) 0.5083(7)
C7 C 0.9927(8) -1.2674(4) 0.2988(5)
C8 C 1.0456(18) -1.2666(8) -0.0594(9)
C9 C 1.0039(9) -1.2518(5) -0.1716(5)
C10 C 1.0074(7) -1.1401(5) -0.2018(5)
C11 C 0.8901(19) -1.3058(11) -0.1945(11)
H3 H 0.8926 -1.3335 -0.2629
H4 H 0.8061 -1.2641 -0.1905
C12 C 0.8912(18) -1.3977(14) -0.1102(13)
H5 H 0.8006 -1.4018 -0.0797
H6 H 0.9100 -1.4628 -0.1422
C13 C 1.1862(19) -1.2390(12) -0.0082(17)
H7 H 1.2008 -1.1665 -0.0133
H8 H 1.2600 -1.2744 -0.0410
H9 H 1.1876 -1.2584 0.0623
C14 C 0.9423(19) -1.1948(9) -0.0039(10)
H10 H 0.9670 -1.1247 -0.0156
H11 H 0.9492 -1.2087 0.0680
H12 H 0.8473 -1.2069 -0.0300
C15 C 1.133(2) -1.3028(10) -0.2239(11)
H13 H 1.1134 -1.3052 -0.2963
H14 H 1.1467 -1.3709 -0.1981
H15 H 1.2164 -1.2631 -0.2089
C16 C 1.1240(16) -1.1077(8) 0.3305(9)
H16 H 1.1422 -1.0840 0.2625
H17 H 1.1973 -1.1562 0.3513
C17 C 1.1300(18) -1.0169(13) 0.4037(13)
H18 H 1.2108 -1.0210 0.4520
H19 H 1.1318 -0.9523 0.3676
C18 C 0.9444(14) -1.1400(8) 0.4353(9)
C19 C 0.793(2) -1.1657(16) 0.4548(16)
H20 H 0.7804 -1.1646 0.5268
H21 H 0.7707 -1.2325 0.4283
H22 H 0.7316 -1.1162 0.4216
C20 C 0.878(2) -1.1045(11) 0.2539(10)
H23 H 0.7851 -1.1239 0.2718
H24 H 0.8924 -1.1253 0.1852
H25 H 0.8882 -1.0316 0.2594
C21 C 0.5592(7) -1.5376(5) 0.2483(5)
C22 C 0.4257(7) -1.5376(5) 0.2518(5)
C23 C 0.4086(13) -1.3658(9) 0.2506(8)
C24 C 0.5695(14) -1.3668(8) 0.2499(8)
Zn1_2 Zn 0.14037(6) -1.45160(6) 0.25616(5)
Zn1A Zn 0.85963(6) -0.95160(6) -0.25616(5)
Zn1A_2 Zn 0.85963(6) -0.95160(6) 0.74384(5)
Zn2A Zn 1.15288(5) -0.95331(5) -0.24391(5)
Zn2A_2 Zn 1.15288(5) -0.95331(5) 0.75609(5)
O1A O 1.1050(5) -1.6004(4) 0.2299(4)
O2A O 0.8771(5) -1.5987(3) 0.1947(4)
O7A O 1.1158(6) -1.4790(4) 0.4024(4)
O8A O 0.8917(6) -1.5028(3) 0.3849(4)
N2_2 N 1.3501(3) -1.4493(8) 0.2542(4)
O9 O 1.4914(14) -1.1066(13) 0.2199(12)
N4 N 1.5079(17) -1.0314(14) 0.0673(13)
C25 C 1.518(2) -1.0252(13) 0.1526(15)
C26 C 1.519(2) -0.950(2) 0.0128(15)
C27 C 1.425(2) -1.1112(16) 0.0091(14)
loop_
_geom_bond_atom_site_label_1
_geom_bond_atom_site_label_2
_geom_bond_site_symmetry_1
_geom_bond_site_symmetry_2
Zn1 O3 1_555 1_555
Zn2 O4 1_555 1_555
O1 C10 1_555 1_555
O2 C10 1_555 1_555
O3 C1 1_555 1_555
O4 C1 1_555 1_555
O5 Zn1 1_555 1_555
O6 Zn2 1_555 1_555
O7 C3 1_555 1_555
O8 C3 1_555 1_555
N1 Zn2 1_555 1_555
N2 C22 1_555 1_555
N3 H1 1_555 1_555
H2 N3 1_555 1_555
C1 C2 1_555 1_555
C2 C8 1_555 1_555
C3 C4 1_555 1_555
C4 C17 1_555 1_555
C5 C7 1_555 1_555
C6 C18 1_555 1_555
C7 O5 1_555 1_555
C8 C9 1_555 1_555
C9 C10 1_555 1_555
C11 C9 1_555 1_555
H3 C11 1_555 1_555
H4 C11 1_555 1_555
C12 C2 1_555 1_555
H5 C12 1_555 1_555
H6 C12 1_555 1_555
C13 C8 1_555 1_555
H7 C13 1_555 1_555
H8 C13 1_555 1_555
H9 C13 1_555 1_555
C14 C8 1_555 1_555
H10 C14 1_555 1_555
H11 C14 1_555 1_555
H12 C14 1_555 1_555
C15 C9 1_555 1_555
H13 C15 1_555 1_555
H14 C15 1_555 1_555
H15 C15 1_555 1_555
C16 C5 1_555 1_555
H16 C16 1_555 1_555
H17 C16 1_555 1_555
C17 C16 1_555 1_555
H18 C17 1_555 1_555
H19 C17 1_555 1_555
C18 C4 1_555 1_555
C19 C18 1_555 1_555
H20 C19 1_555 1_555
H21 C19 1_555 1_555
H22 C19 1_555 1_555
C20 C5 1_555 1_555
H23 C20 1_555 1_555
H24 C20 1_555 1_555
H25 C20 1_555 1_555
C21 N1 1_555 1_555
C22 C21 1_555 1_555
C23 N2 1_555 1_555
C24 N1 1_555 1_555
O9 C25 1_555 1_555
N4 C25 1_555 1_555
C26 N4 1_555 1_555
C27 N4 1_555 1_555
Zn1_2 N2 1_555 1_555
Zn1A O1 1_555 1_555
Zn1A_2 O7 1_555 1_555
Zn2A O2 1_555 1_555
Zn2A_2 O8 1_555 1_555
O1A Zn1 1_555 1_555
O2A Zn2 1_555 1_555
O7A Zn1 1_555 1_555
O8A Zn2 1_555 1_555
N2_2 Zn1 1_555 1_555
O6 C7 1_555 1_555
N3 C23 1_555 1_555
C5 C18 1_555 1_555
C11 C12 1_555 1_555
C23 C24 1_555 1_555

#END
