
#######################################################################
#
#                 Cambridge Crystallographic Data Centre
#                                CCDC 
#
#######################################################################
#
# If this CIF has been generated from an entry in the Cambridge 
# Structural Database, then it will include bibliographic, chemical, 
# crystal, experimental, refinement or atomic coordinate data resulting 
# from the CCDC's data processing and validation procedures.
#
#######################################################################

data_ARAJEK
_chemical_formula_moiety         '(C20 H12 Cu1 N2 O4)n'
_symmetry_cell_setting           tetragonal
_symmetry_space_group_name_H-M   'P 42 21 2'
_symmetry_Int_Tables_number      94
_space_group_name_Hall           'P 4n 2n'
loop_
_symmetry_equiv_pos_site_id
_symmetry_equiv_pos_as_xyz
1 x,y,z
2 -x,-y,z
3 1/2-y,1/2+x,1/2+z
4 1/2+y,1/2-x,1/2+z
5 1/2-x,1/2+y,1/2-z
6 1/2+x,1/2-y,1/2-z
7 y,x,-z
8 -y,-x,-z
_cell_length_a                   16.7580(8)
_cell_length_b                   16.7580(8)
_cell_length_c                   8.2223(6)
_cell_angle_alpha                90
_cell_angle_beta                 90
_cell_angle_gamma                90
_cell_volume                     2309.07
loop_
_atom_site_label
_atom_site_type_symbol
_atom_site_fract_x
_atom_site_fract_y
_atom_site_fract_z
_atom_site_U_iso_or_equiv
_atom_site_thermal_displace_type
Cu1 Cu 0.22207(3) 0.22207(3) 0.0000 0.0528 Uani
C1 C -0.0502(3) 0.2709(4) 0.3398(6) 0.0613 Uani
C2 C -0.1392(3) 0.2781(3) 0.3708(6) 0.0563 Uani
C3 C 0.0001(3) 0.2884(5) 0.4668(7) 0.0793 Uani
H1 H -0.0212 0.3043 0.5661 0.0950 Uiso
C4 C 0.0667(3) 0.2436(3) 0.1717(6) 0.0573 Uani
C5 C -0.0625(4) 0.2297(4) 0.0424(8) 0.0753 Uani
H2 H -0.1179 0.2318 0.0455 0.0900 Uiso
C6 C 0.0567(4) 0.2055(4) -0.0984(8) 0.0797 Uani
H3 H 0.0813 0.1907 -0.1952 0.0950 Uiso
C7 C -0.0257(4) 0.2090(5) -0.0947(8) 0.0907 Uani
H4 H -0.0552 0.1969 -0.1873 0.1090 Uiso
C8 C -0.0171(3) 0.2488(3) 0.1863(6) 0.0553 Uani
C9 C 0.1167(3) 0.2614(4) 0.3057(6) 0.0700 Uani
H5 H 0.1719 0.2585 0.2948 0.0840 Uiso
C10 C 0.0841(4) 0.2827(5) 0.4489(8) 0.0870 Uani
H6 H 0.1170 0.2937 0.5371 0.1050 Uiso
N1 N 0.1022(3) 0.2220(2) 0.0269(5) 0.0570 Uani
O1 O -0.1610(2) 0.2765(2) 0.5139(4) 0.0599 Uani
O2 O -0.1877(2) 0.2861(3) 0.2538(4) 0.0747 Uani
C1F C 0.2709(4) -0.0502(3) -0.3398(6) 0.0613 Uani
C2F C 0.2781(3) -0.1392(3) -0.3708(6) 0.0563 Uani
C3F C 0.2884(5) 0.0001(3) -0.4668(7) 0.0793 Uani
H1F H 0.3043 -0.0212 -0.5661 0.0950 Uiso
C4F C 0.2436(3) 0.0667(3) -0.1717(6) 0.0573 Uani
C5F C 0.2297(4) -0.0625(4) -0.0424(8) 0.0753 Uani
H2F H 0.2318 -0.1179 -0.0455 0.0900 Uiso
C6F C 0.2055(4) 0.0567(4) 0.0984(8) 0.0797 Uani
H3F H 0.1907 0.0813 0.1952 0.0950 Uiso
C7F C 0.2090(5) -0.0257(4) 0.0947(8) 0.0907 Uani
H4F H 0.1969 -0.0552 0.1873 0.1090 Uiso
C8F C 0.2488(3) -0.0171(3) -0.1863(6) 0.0553 Uani
C9F C 0.2614(4) 0.1167(3) -0.3057(6) 0.0700 Uani
H5F H 0.2585 0.1719 -0.2948 0.0840 Uiso
C10F C 0.2827(5) 0.0841(4) -0.4489(8) 0.0870 Uani
H6F H 0.2937 0.1170 -0.5371 0.1050 Uiso
N1F N 0.2220(2) 0.1022(3) -0.0269(5) 0.0570 Uani
O1F O 0.2765(2) -0.1610(2) -0.5139(4) 0.0599 Uani
O2F O 0.2861(3) -0.1877(2) -0.2538(4) 0.0747 Uani
Cu1B Cu 0.27793(3) -0.27793(3) -0.5000 0.0528 Uani
Cu1C Cu -0.27793(3) 0.27793(3) 0.5000 0.0528 Uani
O1B O 0.2235(2) 0.3390(2) 0.0139(4) 0.0599 Uani
O1E O 0.3390(2) 0.2235(2) -0.0139(4) 0.0599 Uani
O2B O 0.2139(3) 0.3123(2) -0.2462(4) 0.0747 Uani
O2E O 0.3123(2) 0.2139(3) 0.2462(4) 0.0747 Uani
loop_
_atom_site_aniso_label
_atom_site_aniso_U_11
_atom_site_aniso_U_22
_atom_site_aniso_U_33
_atom_site_aniso_U_23
_atom_site_aniso_U_13
_atom_site_aniso_U_12
Cu1 0.0478(4) 0.0478(4) 0.0629(6) -0.0016(4) 0.0016(4) -0.0021(3)
C1 0.045(3) 0.082(4) 0.057(3) 0.006(3) -0.009(2) -0.001(3)
C2 0.044(3) 0.060(3) 0.065(3) 0.005(2) 0.007(2) 0.002(2)
C3 0.041(3) 0.130(6) 0.067(3) -0.008(4) 0.002(3) -0.010(3)
C4 0.047(3) 0.056(3) 0.069(3) -0.001(2) -0.004(2) -0.008(2)
C5 0.046(3) 0.098(5) 0.082(4) -0.012(3) -0.009(3) -0.005(3)
C6 0.056(3) 0.112(5) 0.071(3) -0.031(4) -0.001(3) -0.002(3)
C7 0.069(4) 0.126(6) 0.077(4) -0.033(4) -0.003(3) -0.007(4)
C8 0.045(3) 0.059(3) 0.062(3) -0.003(2) -0.010(2) -0.003(2)
C9 0.048(3) 0.100(4) 0.062(3) -0.004(3) 0.002(2) 0.002(3)
C10 0.068(4) 0.131(6) 0.062(3) -0.006(3) -0.006(3) -0.002(4)
N1 0.044(2) 0.060(2) 0.067(2) -0.012(2) 0.0083(19) -0.0025(17)
O1 0.0478(18) 0.069(2) 0.063(2) 0.007(3) 0.0006(16) 0.0015(14)
O2 0.053(2) 0.104(3) 0.067(2) 0.018(2) -0.0086(18) 0.0107(19)
C1F 0.082 0.045 0.057 0.009 -0.006 -0.001
C2F 0.06 0.044 0.065 -0.007 -0.005 0.002
C3F 0.13 0.041 0.067 -0.002 0.008 -0.01
C4F 0.056 0.047 0.069 0.004 0.001 -0.008
C5F 0.098 0.046 0.082 0.009 0.012 -0.005
C6F 0.112 0.056 0.071 0.001 0.031 -0.002
C7F 0.126 0.069 0.077 0.003 0.033 -0.007
C8F 0.059 0.045 0.062 0.01 0.003 -0.003
C9F 0.1 0.048 0.062 -0.002 0.004 0.002
C10F 0.131 0.068 0.062 0.006 0.006 -0.002
N1F 0.06 0.044 0.067 -0.0083 0.012 -0.0025
O1F 0.069 0.0478 0.063 -0.0006 -0.007 0.0015
O2F 0.104 0.053 0.067 0.0086 -0.018 0.0107
Cu1B 0.0478 0.0478 0.0629 0.0016 0.0016 0.0021
Cu1C 0.0478 0.0478 0.0629 -0.0016 -0.0016 0.0021
O1B 0.069 0.0478 0.063 0.0006 -0.007 -0.0015
O1E 0.0478 0.069 0.063 0.007 -0.0006 -0.0015
O2B 0.104 0.053 0.067 -0.0086 -0.018 -0.0107
O2E 0.053 0.104 0.067 0.018 0.0086 -0.0107
loop_
_geom_bond_atom_site_label_1
_geom_bond_atom_site_label_2
_geom_bond_site_symmetry_1
_geom_bond_site_symmetry_2
Cu1 N1 1_555 1_555
C1 C2 1_555 1_555
C2 O1 1_555 1_555
C3 C1 1_555 1_555
H1 C3 1_555 1_555
C4 C8 1_555 1_555
C5 H2 1_555 1_555
C6 H3 1_555 1_555
C7 C5 1_555 1_555
H4 C7 1_555 1_555
C8 C1 1_555 1_555
C9 C4 1_555 1_555
H5 C9 1_555 1_555
C10 C3 1_555 1_555
H6 C10 1_555 1_555
N1 C4 1_555 1_555
O1 Cu1C 1_555 1_555
O2 C2 1_555 1_555
C1F C2F 1_555 1_555
C2F O1F 1_555 1_555
C3F C1F 1_555 1_555
H1F C3F 1_555 1_555
C4F C8F 1_555 1_555
C5F H2F 1_555 1_555
C6F H3F 1_555 1_555
C7F C5F 1_555 1_555
H4F C7F 1_555 1_555
C8F C1F 1_555 1_555
C9F C4F 1_555 1_555
H5F C9F 1_555 1_555
C10F C3F 1_555 1_555
H6F C10F 1_555 1_555
N1F Cu1 1_555 1_555
O1F Cu1B 1_555 1_555
O2F C2F 1_555 1_555
Cu1B O2F 1_555 1_555
Cu1C O2 1_555 1_555
O1B Cu1 1_555 1_555
O1E Cu1 1_555 1_555
O2B Cu1 1_555 1_555
O2E Cu1 1_555 1_555
C5 C8 1_555 1_555
C6 C7 1_555 1_555
C6 N1 1_555 1_555
C9 C10 1_555 1_555
C4F N1F 1_555 1_555
C5F C8F 1_555 1_555
C6F C7F 1_555 1_555
C6F N1F 1_555 1_555
C9F C10F 1_555 1_555

#END
