
#######################################################################
#
#                 Cambridge Crystallographic Data Centre
#                                CCDC 
#
#######################################################################
#
# If this CIF has been generated from an entry in the Cambridge 
# Structural Database, then it will include bibliographic, chemical, 
# crystal, experimental, refinement or atomic coordinate data resulting 
# from the CCDC's data processing and validation procedures.
#
#######################################################################

data_ARAJOU
_chemical_formula_moiety         '(C20 H12 N2 Ni1 O4)n'
_symmetry_cell_setting           tetragonal
_symmetry_space_group_name_H-M   'P 43 21 2'
_symmetry_Int_Tables_number      96
_space_group_name_Hall           'P 4nw 2abw'
loop_
_symmetry_equiv_pos_site_id
_symmetry_equiv_pos_as_xyz
1 x,y,z
2 -x,-y,1/2+z
3 1/2-y,1/2+x,3/4+z
4 1/2+y,1/2-x,1/4+z
5 1/2-x,1/2+y,3/4-z
6 1/2+x,1/2-y,1/4-z
7 y,x,-z
8 -y,-x,1/2-z
_cell_length_a                   16.9661(4)
_cell_length_b                   16.9661(4)
_cell_length_c                   15.5065(5)
_cell_angle_alpha                90
_cell_angle_beta                 90
_cell_angle_gamma                90
_cell_volume                     4463.52
loop_
_atom_site_label
_atom_site_type_symbol
_atom_site_fract_x
_atom_site_fract_y
_atom_site_fract_z
_atom_site_U_iso_or_equiv
_atom_site_thermal_displace_type
Ni1 Ni 0.73216(2) 0.26704(2) 0.01828(2) 0.0191 Uani
N1 N 0.74836(17) 0.64690(16) 0.2482(2) 0.0250 Uani
O1 O 0.74391(15) 0.35382(14) 0.11536(15) 0.0244 Uani
O2 O 0.73822(17) 0.38543(14) -0.02211(16) 0.0289 Uani
C1 C 0.7441(2) 0.52630(19) 0.1594(2) 0.0222 Uani
C2 C 0.7448(2) 0.4060(2) 0.0560(2) 0.0231 Uani
O3 O 0.60359(14) 0.27599(16) 0.00698(17) 0.0290 Uani
N2 N 0.33055(16) 0.21821(18) -0.15450(19) 0.0234 Uani
C3 C 0.7852(3) 0.6539(2) 0.0987(2) 0.0321 Uani
H1 H 0.7963 0.7083 0.1059 0.0380 Uiso
C4 C 0.4077(2) 0.2380(2) -0.1731(2) 0.0245 Uani
C5 C 0.7168(2) 0.4846(2) 0.2326(2) 0.0290 Uani
H2 H 0.7050 0.4300 0.2283 0.0350 Uiso
O4 O 0.68069(14) 0.22623(16) -0.09452(15) 0.0255 Uani
C6 C 0.4686(2) 0.2294(2) -0.1111(2) 0.0239 Uani
C7 C 0.5028(2) 0.2860(3) -0.2773(3) 0.0353 Uani
H3 H 0.5155 0.3052 -0.3332 0.0430 Uiso
C8 C 0.6130(2) 0.2504(2) -0.0686(2) 0.0235 Uani
C9 C 0.4265(2) 0.2678(2) -0.2572(2) 0.0311 Uani
H4 H 0.3860 0.2748 -0.2988 0.0370 Uiso
C10 C 0.4481(2) 0.1946(2) -0.0287(2) 0.0274 Uani
H5 H 0.4874 0.1868 0.0141 0.0330 Uiso
C11 C 0.5469(2) 0.2520(2) -0.1335(2) 0.0248 Uani
C12 C 0.3731(2) 0.1735(2) -0.0135(2) 0.0307 Uani
H6 H 0.3589 0.1495 0.0397 0.0370 Uiso
C13 C 0.7557(2) 0.4924(2) 0.0761(2) 0.0259 Uani
C14 C 0.5631(2) 0.2765(3) -0.2147(2) 0.0321 Uani
H7 H 0.6162 0.2875 -0.2302 0.0380 Uiso
C15 C 0.7802(3) 0.5389(2) 0.0083(3) 0.0341 Uani
H8 H 0.7874 0.5159 -0.0470 0.0410 Uiso
C16 C 0.7591(2) 0.6089(2) 0.1702(2) 0.0250 Uani
C17 C 0.7072(3) 0.5235(2) 0.3104(2) 0.0323 Uani
H9 H 0.6899 0.4959 0.3602 0.0390 Uiso
C18 C 0.7945(3) 0.6199(2) 0.0198(3) 0.0357 Uani
H10 H 0.8107 0.6511 -0.0279 0.0430 Uiso
C19 C 0.3149(2) 0.1875(2) -0.0783(3) 0.0279 Uani
H11 H 0.2618 0.1739 -0.0657 0.0340 Uiso
C20 C 0.7233(2) 0.6038(2) 0.3142(2) 0.0295 Uani
H12 H 0.7158 0.6298 0.3679 0.0360 Uiso
Ni1B Ni 0.23296(2) 0.23216(2) -0.23172(2) 0.0191 Uani
Ni1C Ni 0.76704(2) 0.76784(2) 0.26828(2) 0.0191 Uani
N1B N 0.85310(16) 0.24836(17) -0.0018(2) 0.0250 Uani
N2C N 0.71821(18) 0.16945(16) 0.09550(19) 0.0234 Uani
loop_
_atom_site_aniso_label
_atom_site_aniso_U_11
_atom_site_aniso_U_22
_atom_site_aniso_U_33
_atom_site_aniso_U_23
_atom_site_aniso_U_13
_atom_site_aniso_U_12
Ni1 0.0195(2) 0.0191(2) 0.0188(2) -0.00102(17) -0.00020(17) 0.00008(16)
N1 0.0325(16) 0.0190(13) 0.0234(14) 0.0018(12) -0.0002(13) 0.0009(11)
O1 0.0313(14) 0.0211(12) 0.0209(11) 0.0010(10) -0.0022(10) 0.0031(10)
O2 0.0420(15) 0.0231(12) 0.0215(12) -0.0019(10) -0.0025(13) -0.0032(11)
C1 0.0256(19) 0.0201(16) 0.0209(15) 0.0032(13) -0.0033(14) 0.0017(13)
C2 0.0236(19) 0.0248(17) 0.0208(16) -0.0019(14) -0.0022(14) -0.0015(13)
O3 0.0219(12) 0.0391(15) 0.0259(13) -0.0074(13) 0.0025(10) 0.0013(10)
N2 0.0178(14) 0.0273(16) 0.0251(14) 0.0026(12) 0.0000(12) -0.0011(12)
C3 0.049(2) 0.0194(17) 0.0278(19) 0.0036(14) 0.0043(17) -0.0038(16)
C4 0.0181(16) 0.0299(18) 0.0256(17) -0.0016(16) 0.0020(13) -0.0027(14)
C5 0.037(2) 0.0198(16) 0.0303(19) 0.0031(15) 0.0005(17) -0.0041(14)
O4 0.0207(12) 0.0294(13) 0.0263(12) -0.0089(11) 0.0010(10) 0.0003(11)
C6 0.0261(17) 0.0249(17) 0.0208(16) 0.0004(16) 0.0035(13) 0.0000(15)
C7 0.031(2) 0.051(3) 0.0239(18) 0.0104(18) 0.0025(16) -0.0083(18)
C8 0.0215(17) 0.024(2) 0.0250(18) -0.0010(14) -0.0027(14) -0.0042(13)
C9 0.0234(17) 0.043(2) 0.0268(18) 0.006(2) -0.0035(15) -0.0078(16)
C10 0.0283(19) 0.037(2) 0.0170(16) 0.0025(15) -0.0013(14) 0.0016(16)
C11 0.0204(16) 0.033(2) 0.0210(16) -0.0016(15) -0.0021(13) -0.0024(14)
C12 0.0300(19) 0.037(2) 0.0251(18) 0.0095(17) 0.0034(16) -0.0006(15)
C13 0.032(2) 0.0184(16) 0.0272(18) 0.0020(14) 0.0000(15) -0.0033(14)
C14 0.0252(18) 0.046(2) 0.0251(18) 0.0017(18) 0.0054(15) -0.0069(18)
C15 0.052(3) 0.0292(18) 0.0211(17) -0.0017(16) 0.0062(19) -0.0065(17)
C16 0.0257(18) 0.0215(17) 0.0277(18) 0.0025(14) -0.0017(15) -0.0020(14)
C17 0.051(3) 0.0265(19) 0.0195(17) 0.0050(15) 0.0057(17) -0.0051(17)
C18 0.054(3) 0.0287(19) 0.0243(19) 0.0057(16) 0.0085(18) -0.0050(17)
C19 0.0197(17) 0.031(2) 0.033(2) 0.0050(16) 0.0024(15) -0.0049(15)
C20 0.036(2) 0.0295(19) 0.0229(18) -0.0020(15) 0.0030(17) 0.0017(17)
Ni1B 0.0191 0.0195 0.0188 -0.0002 0.00102 -8e-05
Ni1C 0.0191 0.0195 0.0188 0.0002 -0.00102 -8e-05
N1B 0.019 0.0325 0.0234 -0.0002 -0.0018 -0.0009
N2C 0.0273 0.0178 0.0251 0 0.0026 0.0011
loop_
_geom_bond_atom_site_label_1
_geom_bond_atom_site_label_2
_geom_bond_site_symmetry_1
_geom_bond_site_symmetry_2
Ni1 O1 1_555 1_555
N1 C16 1_555 1_555
O1 C2 1_555 1_555
O2 Ni1 1_555 1_555
C1 C5 1_555 1_555
C2 O2 1_555 1_555
O3 Ni1 1_555 1_555
N2 C4 1_555 1_555
C3 H1 1_555 1_555
C4 C6 1_555 1_555
C5 H2 1_555 1_555
O4 Ni1 1_555 1_555
C6 C10 1_555 1_555
C7 H3 1_555 1_555
C8 O3 1_555 1_555
C9 C4 1_555 1_555
H4 C9 1_555 1_555
C10 H5 1_555 1_555
C11 C6 1_555 1_555
C12 C10 1_555 1_555
H6 C12 1_555 1_555
C13 C1 1_555 1_555
C14 C7 1_555 1_555
H7 C14 1_555 1_555
C15 C13 1_555 1_555
H8 C15 1_555 1_555
C16 C1 1_555 1_555
C17 C5 1_555 1_555
H9 C17 1_555 1_555
C18 C3 1_555 1_555
H10 C18 1_555 1_555
C19 N2 1_555 1_555
H11 C19 1_555 1_555
C20 N1 1_555 1_555
H12 C20 1_555 1_555
Ni1B N2 1_555 1_555
Ni1C N1 1_555 1_555
N1B Ni1 1_555 1_555
N2C Ni1 1_555 1_555
C2 C13 1_555 1_555
C3 C16 1_555 1_555
O4 C8 1_555 1_555
C7 C9 1_555 1_555
C8 C11 1_555 1_555
C11 C14 1_555 1_555
C12 C19 1_555 1_555
C15 C18 1_555 1_555
C17 C20 1_555 1_555

#END
