
#######################################################################
#
#                 Cambridge Crystallographic Data Centre
#                                CCDC 
#
#######################################################################
#
# If this CIF has been generated from an entry in the Cambridge 
# Structural Database, then it will include bibliographic, chemical, 
# crystal, experimental, refinement or atomic coordinate data resulting 
# from the CCDC's data processing and validation procedures.
#
#######################################################################

data_ARAKAH
_chemical_formula_moiety         '(C20 H12 N2 O4 Zn1)n'
_symmetry_cell_setting           tetragonal
_symmetry_space_group_name_H-M   'P 41 21 2'
_symmetry_Int_Tables_number      92
_space_group_name_Hall           'P 4abw 2nw'
loop_
_symmetry_equiv_pos_site_id
_symmetry_equiv_pos_as_xyz
1 x,y,z
2 1/2-y,1/2+x,1/4+z
3 -x,-y,1/2+z
4 1/2+y,1/2-x,3/4+z
5 1/2+x,1/2-y,3/4-z
6 1/2-x,1/2+y,1/4-z
7 y,x,-z
8 -y,-x,1/2-z
_cell_length_a                   17.2452(7)
_cell_length_b                   17.2452(7)
_cell_length_c                   15.4338(10)
_cell_angle_alpha                90
_cell_angle_beta                 90
_cell_angle_gamma                90
_cell_volume                     4589.96
loop_
_atom_site_label
_atom_site_type_symbol
_atom_site_fract_x
_atom_site_fract_y
_atom_site_fract_z
Zn1 Zn -0.24961(2) -0.74759(2) -0.01565(2)
O1 O 0.12451(14) -0.74631(18) 0.28102(18)
C1 C 0.10508(19) -0.7461(2) 0.2025(3)
O2 O -0.39286(13) -0.73268(15) -0.01257(18)
C2 C -0.58342(18) -0.7552(2) 0.1691(2)
O3 O 0.15625(12) -0.74807(15) 0.14326(16)
C3 C -0.44479(18) -0.7520(2) 0.1292(2)
N1 N -0.13122(15) -0.76704(16) 0.0087(2)
C4 C -0.09516(18) -0.7522(2) 0.0866(2)
O4 O -0.31360(13) -0.77692(14) 0.08950(17)
C5 C -0.6221(2) -0.8172(2) 0.0088(3)
H1 H -0.6374 -0.8400 -0.0431
C6 C -0.38069(18) -0.7548(2) 0.0623(2)
C7 C -0.5626(2) -0.7289(2) 0.2532(3)
H2 H -0.6011 -0.7204 0.2943
C8 C -0.0068(2) -0.7983(2) -0.0524(3)
H3 H 0.0212 -0.8141 -0.1008
C9 C -0.01239(18) -0.7589(2) 0.0983(2)
N2 N -0.66028(15) -0.76944(16) 0.1499(2)
C10 C 0.0315(2) -0.7839(2) 0.0249(3)
H4 H 0.0849 -0.7903 0.0290
C11 C -0.1422(2) -0.7285(2) 0.1571(3)
H5 H -0.1954 -0.7236 0.1496
C12 C -0.1097(2) -0.7128(3) 0.2365(3)
H6 H -0.1410 -0.6981 0.2827
C13 C -0.4864(2) -0.7159(2) 0.2747(3)
H7 H -0.4735 -0.6998 0.3303
C14 C -0.5461(2) -0.8005(2) 0.0241(3)
H8 H -0.5090 -0.8099 -0.0183
C15 C -0.4274(2) -0.7272(2) 0.2117(3)
H9 H -0.3760 -0.7176 0.2265
C16 C -0.52376(19) -0.7686(2) 0.1056(3)
C17 C -0.6778(2) -0.7989(2) 0.0741(3)
H10 H -0.7297 -0.8085 0.0621
C18 C -0.0869(2) -0.7894(2) -0.0579(3)
H11 H -0.1108 -0.7995 -0.1107
C19 C -0.0291(2) -0.7188(3) 0.2478(3)
H12 H -0.0079 -0.7069 0.3015
C20 C 0.01999(18) -0.7422(2) 0.1809(2)
Zn1A Zn -0.75241(2) -0.74961(2) 0.23435(2)
Zn1A_2 Zn 0.24759(2) -0.74961(2) 0.23435(2)
O1C O -0.24631(18) -0.62451(14) 0.03102(18)
O3C O -0.24807(15) -0.65625(12) -0.10674(16)
N2C N -0.26944(16) -0.83972(15) -0.1001(2)
loop_
_geom_bond_atom_site_label_1
_geom_bond_atom_site_label_2
_geom_bond_site_symmetry_1
_geom_bond_site_symmetry_2
Zn1 O2 1_555 1_555
O1 C1 1_555 1_555
C1 O3 1_555 1_555
O2 C6 1_555 1_555
C2 C7 1_555 1_555
O3 Zn1A_2 1_555 1_555
C3 C6 1_555 1_555
N1 Zn1 1_555 1_555
C4 N1 1_555 1_555
O4 Zn1 1_555 1_555
C5 H1 1_555 1_555
C6 O4 1_555 1_555
C7 H2 1_555 1_555
C8 H3 1_555 1_555
C9 C4 1_555 1_555
N2 C2 1_555 1_555
C10 C8 1_555 1_555
H4 C10 1_555 1_555
C11 C4 1_555 1_555
H5 C11 1_555 1_555
C12 C11 1_555 1_555
H6 C12 1_555 1_555
C13 C7 1_555 1_555
H7 C13 1_555 1_555
C14 C5 1_555 1_555
H8 C14 1_555 1_555
C15 C3 1_555 1_555
H9 C15 1_555 1_555
C16 C2 1_555 1_555
C17 C5 1_555 1_555
H10 C17 1_555 1_555
C18 N1 1_555 1_555
H11 C18 1_555 1_555
C19 C12 1_555 1_555
H12 C19 1_555 1_555
C20 C1 1_555 1_555
Zn1A N2 1_555 1_555
Zn1A_2 O1 1_555 1_555
O1C Zn1 1_555 1_555
O3C Zn1 1_555 1_555
N2C Zn1 1_555 1_555
C3 C16 1_555 1_555
C8 C18 1_555 1_555
C9 C10 1_555 1_555
C9 C20 1_555 1_555
N2 C17 1_555 1_555
C13 C15 1_555 1_555
C14 C16 1_555 1_555
C19 C20 1_555 1_555

#END
