
#######################################################################
#
#                 Cambridge Crystallographic Data Centre
#                                CCDC 
#
#######################################################################
#
# If this CIF has been generated from an entry in the Cambridge 
# Structural Database, then it will include bibliographic, chemical, 
# crystal, experimental, refinement or atomic coordinate data resulting 
# from the CCDC's data processing and validation procedures.
#
#######################################################################

data_QOSJOZ
_chemical_formula_moiety         '(C42 H98 Cu3 Gd2 N6 O64)n'
_symmetry_cell_setting           monoclinic
_symmetry_space_group_name_H-M   'P 21/n'
_symmetry_Int_Tables_number      14
_space_group_name_Hall           '-P 2yn'
loop_
_symmetry_equiv_pos_site_id
_symmetry_equiv_pos_as_xyz
1 x,y,z
2 1/2-x,1/2+y,1/2-z
3 -x,-y,-z
4 1/2+x,1/2-y,1/2+z
_cell_length_a                   13.958(3)
_cell_length_b                   30.682(6)
_cell_length_c                   20.529(4)
_cell_angle_alpha                90
_cell_angle_beta                 98.82(3)
_cell_angle_gamma                90
_cell_volume                     8687.77
loop_
_atom_site_label
_atom_site_type_symbol
_atom_site_fract_x
_atom_site_fract_y
_atom_site_fract_z
Gd1 Gd -0.02419(2) 0.449145(10) 0.625073(16)
Gd2 Gd 0.46130(2) 0.310332(11) 1.104373(16)
Cu1 Cu 0.50830(5) 0.47799(2) 0.77960(4)
Cu2 Cu 0.02668(5) 0.31523(2) 0.88862(4)
Cu3 Cu 0.49544(5) 0.15767(2) 0.75737(4)
O1 O 0.4008(4) 0.52755(16) 0.8727(2)
O2 O 0.4186(3) 0.52825(14) 0.7669(2)
O3 O 0.4615(3) 0.61977(15) 0.8461(2)
O4 O 0.3766(3) 0.68051(14) 0.8332(2)
O5 O 0.0674(3) 0.44881(14) 0.7400(2)
O6 O 0.1417(3) 0.42100(17) 0.6620(2)
O7 O 0.0996(3) 0.35348(15) 0.7824(2)
O8 O 0.1245(3) 0.36364(14) 0.8913(2)
O9 O -0.2881(4) 0.3453(2) 1.0134(3)
O10 O -0.4039(3) 0.35597(19) 0.9272(3)
O11 O -0.3987(3) 0.42945(15) 0.7983(3)
O12 O -0.3684(4) 0.4538(2) 0.9006(3)
O13 O 0.4144(3) 0.20335(14) 0.7910(3)
O14 O 0.3920(4) 0.16312(19) 0.8780(3)
O15 O 0.4693(3) 0.2505(2) 0.9379(3)
O16 O 0.3799(3) 0.27053(17) 1.0149(2)
O17 O 0.5833(3) 0.10797(14) 0.7457(2)
O18 O 0.6604(3) 0.10931(16) 0.8494(3)
O19 O 0.5791(3) 0.01730(15) 0.8211(3)
O20 O 0.6688(3) -0.04165(15) 0.8251(3)
O21 O 0.3094(3) 0.28166(17) 1.1393(2)
O22 O 0.4182(3) 0.30863(14) 1.2189(2)
O23 O 0.4084(3) 0.21601(14) 1.2698(2)
O24 O 0.4280(3) 0.23350(14) 1.3768(2)
O25 O 0.0466(4) 0.31343(17) 0.9984(2)
H1 H 0.069(6) 0.3383(11) 1.011(3)
H2 H 0.047(6) 0.2939(15) 1.028(2)
O26 O 0.0561(4) 0.4270(2) 0.5332(3)
H3 H 0.011(3) 0.4088(18) 0.520(2)
H4 H 0.113(2) 0.417(2) 0.545(5)
O27 O -0.0373(4) 0.37764(16) 0.6718(3)
H5 H -0.089(3) 0.363(2) 0.674(4)
H6 H 0.009(4) 0.374(3) 0.704(3)
O28 O -0.1425(6) 0.4057(3) 0.5558(4)
H7 H -0.189(6) 0.417(3) 0.573(6)
H8 H -0.149(8) 0.3791(13) 0.544(6)
O29 O -0.1066(4) 0.49330(17) 0.5363(3)
H9 H -0.1679(9) 0.493(2) 0.528(4)
H10 H -0.078(4) 0.5135(19) 0.519(4)
O30 O 0.0872(4) 0.50816(17) 0.6167(3)
H11 H 0.066(4) 0.5342(9) 0.616(5)
H12 H 0.1477(15) 0.505(2) 0.616(5)
O31 O 0.4771(5) 0.4565(2) 0.6715(3)
H13 H 0.438(7) 0.449(3) 0.681(5)
H14 H 0.507(7) 0.467(3) 0.643(5)
O32 O 0.4726(4) 0.35761(18) 1.0128(3)
H15 H 0.512(5) 0.350(2) 0.987(3)
H16 H 0.466(6) 0.3847(7) 1.020(4)
O33 O 0.3394(3) 0.36789(18) 1.0997(3)
H17 H 0.366(4) 0.3907(15) 1.087(4)
H18 H 0.2782(12) 0.366(2) 1.089(4)
O34 O 0.4966(4) 0.23735(16) 1.1490(3)
H19 H 0.516(6) 0.2178(16) 1.125(3)
H20 H 0.483(6) 0.230(2) 1.186(2)
O35 O 0.5863(4) 0.28054(19) 1.0455(3)
H21 H 0.635(4) 0.286(2) 1.027(4)
H22 H 0.575(5) 0.2542(8) 1.053(4)
O36 O 0.4800(5) 0.1716(3) 0.6484(4)
N1 N 0.1205(3) 0.61873(17) 0.7643(3)
N2 N 0.3978(4) 0.44138(17) 0.8019(3)
N3 N -0.0855(4) 0.35603(17) 0.8830(3)
N4 N 0.1330(4) 0.27399(16) 0.8778(3)
N5 N 0.1128(4) 0.30462(17) 1.2775(3)
N6 N 0.8829(4) 0.01704(18) 0.7398(3)
C1 C 0.3776(4) 0.5402(2) 0.8159(3)
C2 C 0.2898(4) 0.5689(2) 0.7980(3)
C3 C 0.2009(5) 0.5496(2) 0.7744(4)
H23 H 0.1965 0.5188 0.7702
C4 C 0.1189(4) 0.5749(2) 0.7569(3)
H24 H 0.0598 0.5611 0.7391
C5 C 0.2055(4) 0.6373(2) 0.7891(3)
H25 H 0.2067 0.6680 0.7956
C6 C 0.2922(4) 0.6144(2) 0.8060(3)
C7 C 0.3829(4) 0.6396(2) 0.8300(3)
C8 C 0.1400(4) 0.4310(2) 0.7209(3)
C9 C 0.2303(4) 0.4237(2) 0.7706(3)
C10 C 0.3142(4) 0.4442(2) 0.7593(3)
H26 H 0.3131 0.4608 0.7202
C11 C 0.3988(5) 0.4175(2) 0.8566(3)
H27 H 0.4575 0.4156 0.8868
C12 C 0.3181(4) 0.3956(2) 0.8711(4)
H28 H 0.3215 0.3793 0.9107
C13 C 0.2313(4) 0.3977(2) 0.8266(3)
C14 C 0.1443(4) 0.37008(19) 0.8341(3)
C15 C -0.3179(5) 0.3569(2) 0.9549(3)
C16 C -0.2420(4) 0.3705(2) 0.9133(3)
C17 C -0.1552(4) 0.3482(2) 0.9205(3)
H29 H -0.1439 0.3263 0.9534
C18 C -0.1011(5) 0.3875(2) 0.8381(4)
H30 H -0.0519 0.3941 0.8125
C19 C -0.1860(5) 0.4109(3) 0.8275(4)
H31 H -0.1953 0.4325 0.7940
C20 C -0.2584(5) 0.4031(2) 0.8657(4)
C21 C -0.3488(5) 0.4307(2) 0.8561(4)
C22 C 0.3753(5) 0.1955(2) 0.8412(4)
C23 C 0.2934(4) 0.2252(2) 0.8541(3)
C24 C 0.2063(4) 0.2235(2) 0.8109(3)
H32 H 0.2003 0.2057 0.7727
C25 C 0.1282(5) 0.2482(2) 0.8242(3)
H33 H 0.0691 0.2468 0.7945
C26 C 0.2171(4) 0.2757(2) 0.9194(3)
H34 H 0.2211 0.2939 0.9571
C27 C 0.2986(4) 0.2519(2) 0.9095(3)
C28 C 0.3907(4) 0.2575(2) 0.9582(3)
C29 C 0.6501(5) 0.0966(2) 0.7909(4)
C30 C 0.7281(5) 0.0672(2) 0.7709(4)
C31 C 0.8023(5) 0.0855(2) 0.7417(4)
H35 H 0.8014 0.1158 0.7319
C32 C 0.8775(5) 0.0598(2) 0.7268(4)
H36 H 0.9270 0.0729 0.7065
C33 C 0.8117(5) -0.0005(2) 0.7692(4)
H37 H 0.8161 -0.0305 0.7806
C34 C 0.7332(4) 0.0227(2) 0.7836(3)
C35 C 0.6548(4) -0.0017(2) 0.8118(3)
C36 C 0.3369(5) 0.2916(2) 1.1993(3)
C37 C 0.2672(4) 0.2854(2) 1.2474(3)
C38 C 0.1767(4) 0.3058(2) 1.2350(3)
H38 H 0.1597 0.3212 1.1947
C39 C 0.1366(5) 0.2824(2) 1.3342(4)
H39 H 0.0918 0.2817 1.3647
C40 C 0.2236(5) 0.2605(2) 1.3499(4)
H40 H 0.2376 0.2447 1.3900
C41 C 0.2904(4) 0.2620(2) 1.3064(3)
C42 C 0.3831(4) 0.2353(2) 1.3179(3)
Gd1A Gd 0.52419(2) -0.050855(10) 0.874927(16)
Gd2B Gd 0.53870(2) 0.689668(11) 0.895627(16)
Cu1_2 Cu -0.49170(5) 0.47799(2) 0.77960(4)
Cu1A Cu 0.99170(5) -0.02201(2) 0.72040(4)
Cu2C Cu 0.52668(5) 0.18477(2) 1.38862(4)
Cu3A Cu 0.00456(5) 0.65767(2) 0.74263(4)
Cu3C Cu -0.00456(5) 0.34233(2) 1.25737(4)
O3B O 0.5385(3) 0.38023(15) 1.1539(2)
O4B O 0.6234(3) 0.31949(14) 1.1668(2)
O11_2 O 0.6013(3) 0.42945(15) 0.7983(3)
O19A O -0.0791(3) 0.51730(15) 0.6789(3)
O20A O -0.1688(3) 0.45835(15) 0.6749(3)
O24C O -0.0720(3) 0.26650(14) 0.8768(2)
N1A N 0.3795(3) 0.11873(17) 0.7357(3)
N5C N 0.6128(4) 0.19538(17) 0.7775(3)
N6A N 0.6171(4) 0.51704(18) 0.7602(3)
O37 O 0.9941(4) 0.41074(16) 0.4042(2)
H41 H 0.9567 0.3888 0.3949
H42 H 1.0451 0.4109 0.3858
O38 O 0.9268(4) 0.06087(17) 0.5500(3)
H43 H 0.8988 0.0402 0.5270
H44 H 0.9686 0.0538 0.5829
O39 O 0.8214(5) 0.9945(2) 0.4821(3)
H45 H 0.7730 1.0113 0.4718
H46 H 0.8215 0.9786 0.5159
O40 O 0.5172(5) 0.0215(2) 0.3608(3)
H47 H 0.5079 0.0342 0.4021
H48 H 0.4764 -0.0037 0.3522
O41 O 0.2989(5) 0.1662(2) 0.1765(4)
H49 H 0.2844 0.1863 0.2095
H50 H 0.2438 0.1478 0.1631
O42 O 0.6534(6) 0.0354(3) 0.4747(4)
O43 O 0.9955(7) 0.1926(3) 0.3259(5)
H51 H 1.0147 0.2062 0.3679
H52 H 0.9381 0.2064 0.3035
O44 O 0.5883(7) 0.9543(3) 0.5269(4)
O45 O 0.0034(7) 0.1482(3) 0.8349(5)
H53 H 0.0337 0.1570 0.8781
H54 H -0.0313 0.1724 0.8130
O46 O 0.1327(7) 0.1291(3) 0.1953(5)
H55 H 0.1359 0.1473 0.1578
H56 H 0.0859 0.1064 0.1835
O47 O 0.9002(8) 0.9322(4) 0.1435(5)
H57 H 0.9176 0.9470 0.1848
H58 H 0.8368 0.9414 0.1234
O48 O 0.7593(7) 0.9932(4) 0.0687(6)
H59 H 0.7635 0.9625 0.0778
O49 O 0.8790(9) 0.1269(4) 0.1445(6)
H60 H 0.8955 0.1544 0.1654
H61 H 0.8145 0.1283 0.1204
O50 O 0.2526(10) 0.1107(4) 0.9348(7)
O51 O 0.6719(9) 0.1906(4) 0.1783(7)
H62 H 0.6988 0.1650 0.2011
O52 O 0.3260(10) 0.3819(5) 0.4350(7)
H63 H 0.3417 0.3932 0.4790
H64 H 0.2580 0.3754 0.4260
O53 O 0.6312(10) 0.2541(4) 0.5783(7)
H65 H 0.6605 0.2569 0.6235
H66 H 0.6464 0.2793 0.5541
O54 O 0.1173(11) 0.1723(5) 0.9718(8)
O55 O 0.1573(10) 0.0915(5) 0.0732(8)
H67 H 0.1255 0.1104 0.1003
H68 H 0.1693 0.1070 0.0346
O56 O 0.4359(15) 0.3105(6) 0.4459(11)
H69 H 0.4512 0.3323 0.4156
O57 O 0.0445(15) 0.2080(6) 0.1968(10)
H70 H 0.0326 0.2256 0.2334
H71 H 0.0506 0.2264 0.1599
O58 O 0.795(2) 0.3128(8) 0.5548(14)
H72 H 0.8192 0.3144 0.6011
H73 H 0.7272 0.3198 0.5473
O59 O 0.8184(15) 0.1780(6) 0.2368(10)
H74 H 0.8308 0.1995 0.2710
O60 O 0.0394(14) 0.0231(7) 0.0539(10)
H75 H 0.0422 0.0402 0.0151
H76 H 0.0119 -0.0050 0.0413
O61 O 0.4127(14) 0.1692(6) 0.0181(9)
O62 O 0.4358(17) 0.4566(8) 0.4320(12)
O63 O 0.2378(19) 0.2815(9) 0.5131(14)
H77 H 0.2557 0.2916 0.5576
H78 H 0.2376 0.3057 0.4834
O64 O 0.8075(19) 0.9831(9) 0.9696(14)
H79 H 0.8305 0.9829 1.0161
H80 H 0.8475 1.0020 0.9480
loop_
_geom_bond_atom_site_label_1
_geom_bond_atom_site_label_2
_geom_bond_site_symmetry_1
_geom_bond_site_symmetry_2
Gd1 O5 1_555 1_555
Gd2 O16 1_555 1_555
Cu1 O2 1_555 1_555
Cu2 O7 1_555 1_555
Cu3 O13 1_555 1_555
O1 C1 1_555 1_555
O2 C1 1_555 1_555
O3 C7 1_555 1_555
O4 C7 1_555 1_555
O5 C8 1_555 1_555
O6 Gd1 1_555 1_555
O7 C14 1_555 1_555
O8 Cu2 1_555 1_555
O9 C15 1_555 1_555
O10 C15 1_555 1_555
O11 C21 1_555 1_555
O12 C21 1_555 1_555
O13 C22 1_555 1_555
O14 C22 1_555 1_555
O15 C28 1_555 1_555
O16 C28 1_555 1_555
O17 Cu3 1_555 1_555
O18 C29 1_555 1_555
O19 C35 1_555 1_555
O20 C35 1_555 1_555
O21 Gd2 1_555 1_555
O22 Gd2 1_555 1_555
O23 C42 1_555 1_555
O24 C42 1_555 1_555
O25 Cu2 1_555 1_555
H1 O25 1_555 1_555
H2 O25 1_555 1_555
O26 Gd1 1_555 1_555
H3 O26 1_555 1_555
H4 O26 1_555 1_555
O27 Gd1 1_555 1_555
H5 O27 1_555 1_555
H6 O27 1_555 1_555
O28 Gd1 1_555 1_555
H7 O28 1_555 1_555
H8 O28 1_555 1_555
O29 Gd1 1_555 1_555
H9 O29 1_555 1_555
H10 O29 1_555 1_555
O30 Gd1 1_555 1_555
H11 O30 1_555 1_555
H12 O30 1_555 1_555
O31 Cu1 1_555 1_555
H13 O31 1_555 1_555
H14 O31 1_555 1_555
O32 Gd2 1_555 1_555
H15 O32 1_555 1_555
H16 O32 1_555 1_555
O33 Gd2 1_555 1_555
H17 O33 1_555 1_555
H18 O33 1_555 1_555
O34 Gd2 1_555 1_555
H19 O34 1_555 1_555
H20 O34 1_555 1_555
O35 Gd2 1_555 1_555
H21 O35 1_555 1_555
H22 O35 1_555 1_555
O36 Cu3 1_555 1_555
N1 C4 1_555 1_555
N2 Cu1 1_555 1_555
N3 Cu2 1_555 1_555
N4 Cu2 1_555 1_555
N5 C38 1_555 1_555
N6 C32 1_555 1_555
C1 C2 1_555 1_555
C2 C3 1_555 1_555
C3 H23 1_555 1_555
C4 C3 1_555 1_555
H24 C4 1_555 1_555
C5 N1 1_555 1_555
H25 C5 1_555 1_555
C6 C2 1_555 1_555
C7 C6 1_555 1_555
C8 O6 1_555 1_555
C9 C8 1_555 1_555
C10 N2 1_555 1_555
H26 C10 1_555 1_555
C11 N2 1_555 1_555
H27 C11 1_555 1_555
C12 C11 1_555 1_555
H28 C12 1_555 1_555
C13 C9 1_555 1_555
C14 O8 1_555 1_555
C15 C16 1_555 1_555
C16 C17 1_555 1_555
C17 N3 1_555 1_555
H29 C17 1_555 1_555
C18 N3 1_555 1_555
H30 C18 1_555 1_555
C19 C18 1_555 1_555
H31 C19 1_555 1_555
C20 C16 1_555 1_555
C21 C20 1_555 1_555
C22 C23 1_555 1_555
C23 C24 1_555 1_555
C24 H32 1_555 1_555
C25 N4 1_555 1_555
H33 C25 1_555 1_555
C26 N4 1_555 1_555
H34 C26 1_555 1_555
C27 C23 1_555 1_555
C28 C27 1_555 1_555
C29 O17 1_555 1_555
C30 C29 1_555 1_555
C31 C30 1_555 1_555
H35 C31 1_555 1_555
C32 C31 1_555 1_555
H36 C32 1_555 1_555
C33 N6 1_555 1_555
H37 C33 1_555 1_555
C34 C30 1_555 1_555
C35 C34 1_555 1_555
C36 O21 1_555 1_555
C37 C36 1_555 1_555
C38 C37 1_555 1_555
H38 C38 1_555 1_555
C39 N5 1_555 1_555
H39 C39 1_555 1_555
C40 C39 1_555 1_555
H40 C40 1_555 1_555
C41 C37 1_555 1_555
C42 C41 1_555 1_555
O37 H41 1_555 1_555
H42 O37 1_555 1_555
O38 H43 1_555 1_555
H44 O38 1_555 1_555
O39 H45 1_555 1_555
H46 O39 1_555 1_555
O40 H47 1_555 1_555
H48 O40 1_555 1_555
O41 H49 1_555 1_555
H50 O41 1_555 1_555
O43 H51 1_555 1_555
H52 O43 1_555 1_555
O45 H53 1_555 1_555
H54 O45 1_555 1_555
O46 H55 1_555 1_555
H56 O46 1_555 1_555
O47 H57 1_555 1_555
H58 O47 1_555 1_555
O48 H59 1_555 1_555
O49 H60 1_555 1_555
H61 O49 1_555 1_555
O51 H62 1_555 1_555
O52 H63 1_555 1_555
H64 O52 1_555 1_555
O53 H65 1_555 1_555
H66 O53 1_555 1_555
O55 H67 1_555 1_555
H68 O55 1_555 1_555
O56 H69 1_555 1_555
O57 H70 1_555 1_555
H71 O57 1_555 1_555
O58 H72 1_555 1_555
H73 O58 1_555 1_555
O59 H74 1_555 1_555
O60 H75 1_555 1_555
H76 O60 1_555 1_555
O63 H77 1_555 1_555
H78 O63 1_555 1_555
O64 H79 1_555 1_555
H80 O64 1_555 1_555
Gd1A O19 1_555 1_555
Gd2B O3 1_555 1_555
Cu1_2 O11 1_555 1_555
Cu1A N6 1_555 1_555
Cu2C O24 1_555 1_555
Cu3A N1 1_555 1_555
Cu3C N5 1_555 1_555
O3B Gd2 1_555 1_555
O4B Gd2 1_555 1_555
O11_2 Cu1 1_555 1_555
O19A Gd1 1_555 1_555
O20A Gd1 1_555 1_555
O24C Cu2 1_555 1_555
N1A Cu3 1_555 1_555
N5C Cu3 1_555 1_555
N6A Cu1 1_555 1_555
O4 Gd2B 1_555 1_555
O20 Gd1A 1_555 1_555
O22 C36 1_555 1_555
C5 C6 1_555 1_555
C9 C10 1_555 1_555
C12 C13 1_555 1_555
C13 C14 1_555 1_555
C19 C20 1_555 1_555
C24 C25 1_555 1_555
C26 C27 1_555 1_555
C33 C34 1_555 1_555
C40 C41 1_555 1_555

#END
