
#######################################################################
#
#                 Cambridge Crystallographic Data Centre
#                                CCDC 
#
#######################################################################
#
# If this CIF has been generated from an entry in the Cambridge 
# Structural Database, then it will include bibliographic, chemical, 
# crystal, experimental, refinement or atomic coordinate data resulting 
# from the CCDC's data processing and validation procedures.
#
#######################################################################

data_QOSJIT
_chemical_formula_moiety         '(C42 H50 Cu3 Eu2 N6 O40)n'
_symmetry_cell_setting           monoclinic
_symmetry_space_group_name_H-M   'P 21/n'
_symmetry_Int_Tables_number      14
_space_group_name_Hall           '-P 2yn'
loop_
_symmetry_equiv_pos_site_id
_symmetry_equiv_pos_as_xyz
1 x,y,z
2 1/2-x,1/2+y,1/2-z
3 -x,-y,-z
4 1/2+x,1/2-y,1/2+z
_cell_length_a                   13.945(3)
_cell_length_b                   30.633(6)
_cell_length_c                   20.585(4)
_cell_angle_alpha                90
_cell_angle_beta                 98.79(3)
_cell_angle_gamma                90
_cell_volume                     8690.16
loop_
_atom_site_label
_atom_site_type_symbol
_atom_site_fract_x
_atom_site_fract_y
_atom_site_fract_z
Eu1 Eu 0.476100(11) 0.051250(5) 0.125140(8)
O1 O 0.56805(15) 0.05088(6) 0.24089(11)
O2 O 0.64185(16) 0.07952(8) 0.16359(12)
O3 O 0.55908(17) 0.07230(8) 0.03435(13)
O4 O 0.46027(17) 0.12271(7) 0.17480(12)
O5 O 0.3627(2) 0.09762(10) 0.05627(15)
O6 O 0.39101(18) 0.00859(8) 0.03579(12)
O7 O 0.58642(17) -0.00845(7) 0.11481(12)
O8 O 0.41931(15) -0.01696(7) 0.17836(12)
O9 O 0.32849(16) 0.04210(7) 0.17351(14)
C1 C 0.6403(2) 0.06904(9) 0.22290(16)
H1 H 0.5245(6) 0.0916(3) 0.0124(5)
H2 H 0.6192(5) 0.0778(7) 0.0450(13)
H3 H 0.4025 0.1240 0.1948
H4 H 0.5073(5) 0.1277(9) 0.2051(7)
H5 H 0.3161 0.0797 0.0292
H6 H 0.3976 0.1150 0.0289
H7 H 0.3828 -0.0207 0.0508
H8 H 0.382(3) -0.0041(6) -0.0009(6)
H9 H 0.6384 -0.0073 0.1512
H10 H 0.5687(10) -0.0346(3) 0.1106(9)
C2 C 0.7300(2) 0.07657(10) 0.27174(16)
C3 C 0.8144(2) 0.05620(10) 0.26073(16)
C4 C 0.7316(2) 0.10163(9) 0.32813(16)
N1 N 0.89757(18) 0.05854(8) 0.30309(14)
H11 H 0.8135 0.0398 0.2215
C5 C 0.8173(2) 0.10367(9) 0.37180(17)
C6 C 0.6436(2) 0.12957(9) 0.33534(17)
Cu1 Cu 1.00815(3) 0.022150(12) 0.28061(2)
C7 C 0.8993(2) 0.08198(9) 0.35828(16)
H12 H 0.8201 0.1200 0.4113
O10 O 0.59964(16) 0.14607(7) 0.28410(12)
O11 O 0.62456(15) 0.13610(6) 0.39274(11)
O12 O 0.91865(14) -0.02833(6) 0.26806(11)
O13 O 0.97674(19) 0.04379(9) 0.17279(13)
O14 O 1.10157(15) 0.07107(7) 0.29958(12)
N2 N 1.11719(19) -0.01675(8) 0.26055(15)
H13 H 0.9577 0.0838 0.3887
Cu2 Cu 0.52689(3) 0.184600(11) 0.38903(2)
Cu3 Cu 0.50428(2) -0.157440(11) 0.24137(2)
C8 C 0.8777(2) -0.04039(9) 0.31692(16)
H14 H 1.0225 0.0301 0.1489
H15 H 0.9122 0.0350 0.1545
O15 O 0.54670(18) 0.18632(7) 0.49891(12)
N3 N 0.41416(18) 0.14372(8) 0.38343(13)
N4 N 0.63337(18) 0.22567(8) 0.37777(13)
O16 O 0.42754(15) 0.23335(6) 0.37697(12)
N5 N 0.62053(17) -0.11850(8) 0.26359(13)
C9 C 0.1508(2) 0.06923(10) 0.35699(18)
O17 O 0.90071(17) -0.02806(7) 0.37388(12)
C10 C 0.7892(2) -0.06902(10) 0.29886(16)
H16 H 0.5047 0.2089 0.5131
H17 H 0.6146 0.1930 0.5160
C11 C 0.3457(2) 0.15142(10) 0.42091(16)
C12 C 0.3984(2) 0.11247(10) 0.33823(18)
C13 C 0.6285(2) 0.25160(10) 0.32428(16)
C14 C 0.7176(2) 0.22452(9) 0.41963(16)
C15 C 0.6186(2) -0.07487(9) 0.25775(16)
C16 C 0.7052(2) -0.13701(10) 0.28820(15)
C17 C 0.2414(2) 0.09667(11) 0.36702(17)
O18 O 0.13196(18) 0.04548(8) 0.40188(13)
C18 C 0.7005(2) -0.04969(10) 0.27499(18)
C19 C 0.7921(2) -0.11463(10) 0.30520(16)
C20 C 0.2580(2) 0.12908(10) 0.41416(16)
H18 H 0.3576 0.1733 0.4539
H19 H 0.4470 0.1066 0.3117
C21 C 0.3147(2) 0.08851(11) 0.32852(19)
C22 C 0.7071(2) 0.27595(10) 0.31157(17)
H20 H 0.5693 0.2532 0.2945
H21 H 0.7215 0.2065 0.4575
C23 C 0.7983(2) 0.24813(9) 0.41012(16)
H22 H 0.5590 -0.0609 0.2412
H23 H 0.7060 -0.1677 0.2945
H24 H 0.6963 -0.0189 0.2705
C24 C 0.8824(2) -0.13966(10) 0.32945(15)
C25 C 0.1834(2) 0.14278(11) 0.45615(17)
H25 H 0.3060 0.0664 0.2958
C26 C 0.7933(2) 0.27460(10) 0.35451(16)
H26 H 0.7018 0.2936 0.2732
C27 C 0.8901(2) 0.24298(10) 0.45895(16)
O19 O 0.96175(15) -0.12011(7) 0.34556(11)
O20 O 0.87651(15) -0.18091(6) 0.33262(11)
O21 O 0.21370(17) 0.15328(9) 0.51476(13)
O22 O 0.09711(16) 0.14359(8) 0.42877(12)
C28 C 0.8735(2) 0.30512(10) 0.34222(17)
O23 O 0.96890(15) 0.25030(8) 0.43953(11)
O24 O 0.87956(16) 0.23061(7) 0.51549(11)
Eu2 Eu 1.038940(11) -0.190230(6) 0.394920(9)
O25 O 0.91595(15) 0.29697(7) 0.29326(12)
O26 O 0.88860(17) 0.33748(7) 0.37902(12)
O27 O 0.80764(16) 0.21834(8) 0.64039(12)
O28 O 0.91684(15) 0.19140(7) 0.71897(12)
O29 O 0.97270(17) 0.14316(8) 0.51305(12)
O30 O 0.83872(16) 0.13196(8) 0.59976(12)
O31 O 0.99523(17) 0.26347(7) 0.65091(12)
O32 O 1.08586(17) 0.22078(9) 0.54738(13)
O33 O 1.08352(15) 0.39204(7) 0.24604(11)
O34 O 0.9791(3) 0.32876(11) 0.15027(19)
N6 N 1.11282(18) 0.30490(8) 0.27895(14)
C29 C 0.8349(2) 0.20854(10) 0.69951(18)
H27 H 1.0159(7) 0.1446(5) 0.4881(6)
H28 H 0.9609(14) 0.1179(3) 0.5273(11)
H29 H 0.7897 0.1369 0.5624
H30 H 0.8570(10) 0.1055(3) 0.5961(9)
H31 H 0.9598 0.2845 0.6220
H32 H 0.9862(16) 0.2696(6) 0.6893(3)
H33 H 1.1284(8) 0.2109(4) 0.5257(8)
H34 H 1.0826(8) 0.2481(2) 0.5515(8)
C30 C 1.1510(2) 0.40393(10) 0.29126(18)
C31 C 0.7667(2) 0.21479(9) 0.74827(17)
O35 O 1.16142(16) 0.39093(7) 0.34920(12)
C32 C 1.2285(2) 0.43355(10) 0.27047(19)
C33 C 0.6761(2) 0.19465(10) 0.73578(18)
C34 C 0.7906(2) 0.23826(10) 0.80672(16)
C35 C 1.3016(2) 0.41489(10) 0.24069(19)
C36 C 1.2336(2) 0.47763(10) 0.28388(18)
H35 H 0.6584 0.1800 0.6951
C37 C 0.7244(2) 0.23978(10) 0.85073(17)
C38 C 0.8833(2) 0.26495(9) 0.81803(17)
H36 H 1.2997 0.3846 0.2307
C39 C 1.3764(2) 0.44024(10) 0.22573(18)
C40 C 1.3126(2) 0.50109(10) 0.26906(17)
C41 C 1.1566(2) 0.50190(11) 0.31273(18)
C42 C 0.6375(2) 0.21759(10) 0.83544(18)
H37 H 0.7386 0.2558 0.8906
O36 O 0.90866(15) 0.28405(7) 0.77031(12)
H38 H 1.4254 0.4270 0.2050
H39 H 1.3174 0.5312 0.2804
H40 H 0.5931 0.2182 0.8661
Cu1_2 Cu 0.00815(3) 0.022150(12) 0.28061(2)
O14_2 O 0.10157(15) 0.07107(7) 0.29958(12)
Eu2B Eu 0.961060(11) 0.190230(6) 0.605080(9)
Cu3A Cu 0.99572(2) 0.342560(11) 0.25863(2)
O19B O 1.03825(15) 0.12011(7) 0.65444(11)
O20B O 1.12349(15) 0.18091(6) 0.66738(11)
N5A N 0.87947(17) 0.38150(8) 0.23641(13)
N6C N 0.61282(18) 0.19510(8) 0.77895(14)
Cu3B Cu 0.49572(2) 0.157440(11) 0.75863(2)
O16C O 0.92754(15) 0.26665(6) 0.87697(12)
N2A N 1.38281(19) 0.48325(8) 0.23945(15)
O8A O 1.08069(15) 0.48304(7) 0.32164(12)
O9A O 1.17151(16) 0.54210(7) 0.32649(14)
Cu2C Cu 1.02689(3) 0.315400(11) 0.88903(2)
Cu1A Cu 1.49185(3) 0.522150(12) 0.21939(2)
Eu1A Eu 1.023900(11) 0.551250(5) 0.374860(8)
O37 O 0.99675(16) 0.41063(7) 0.40566(12)
H41 H 0.9463(5) 0.3944(5) 0.3994(16)
H42 H 1.0473(6) 0.4001(7) 0.3925(11)
O38 O 0.92686(18) 0.06114(8) 0.54978(13)
H43 H 0.8868 0.0356 0.5436
H44 H 0.9792 0.0563 0.5851
O39 O 0.8195(2) 0.99553(10) 0.48260(15)
H45 H 0.7570 0.9872 0.4925
H46 H 0.829(2) 0.9838(8) 0.4469(7)
O40 O 0.5171(2) 0.01988(11) 0.36159(15)
H47 H 0.4968(13) -0.0064(3) 0.3625(9)
H48 H 0.5287(16) 0.0286(6) 0.3243(6)
loop_
_geom_bond_atom_site_label_1
_geom_bond_atom_site_label_2
_geom_bond_site_symmetry_1
_geom_bond_site_symmetry_2
Eu1 O1 1_555 1_555
O1 C1 1_555 1_555
O2 Eu1 1_555 1_555
O3 Eu1 1_555 1_555
O4 Eu1 1_555 1_555
O5 Eu1 1_555 1_555
O6 Eu1 1_555 1_555
O7 Eu1 1_555 1_555
O8 Eu1 1_555 1_555
O9 Eu1 1_555 1_555
C1 O2 1_555 1_555
H1 O3 1_555 1_555
H2 O3 1_555 1_555
H3 O4 1_555 1_555
H4 O4 1_555 1_555
H5 O5 1_555 1_555
H6 O5 1_555 1_555
H7 O6 1_555 1_555
H8 O6 1_555 1_555
H9 O7 1_555 1_555
H10 O7 1_555 1_555
C2 C1 1_555 1_555
C3 C2 1_555 1_555
C4 C2 1_555 1_555
N1 C3 1_555 1_555
H11 C3 1_555 1_555
C5 C4 1_555 1_555
C6 C4 1_555 1_555
Cu1 N1 1_555 1_555
C7 N1 1_555 1_555
H12 C5 1_555 1_555
O10 C6 1_555 1_555
O11 C6 1_555 1_555
O12 Cu1 1_555 1_555
O13 Cu1 1_555 1_555
O14 Cu1 1_555 1_555
N2 Cu1 1_555 1_555
H13 C7 1_555 1_555
Cu2 O10 1_555 1_555
Cu3 N5 1_555 1_555
C8 O12 1_555 1_555
H14 O13 1_555 1_555
H15 O13 1_555 1_555
O15 Cu2 1_555 1_555
N3 Cu2 1_555 1_555
N4 Cu2 1_555 1_555
O16 Cu2 1_555 1_555
N5 C15 1_555 1_555
C9 C17 1_555 1_555
O17 C8 1_555 1_555
C10 C8 1_555 1_555
H16 O15 1_555 1_555
H17 O15 1_555 1_555
C11 N3 1_555 1_555
C12 N3 1_555 1_555
C13 N4 1_555 1_555
C14 N4 1_555 1_555
C15 C18 1_555 1_555
C16 N5 1_555 1_555
C17 C20 1_555 1_555
O18 C9 1_555 1_555
C18 C10 1_555 1_555
C19 C10 1_555 1_555
C20 C11 1_555 1_555
H18 C11 1_555 1_555
H19 C12 1_555 1_555
C21 C12 1_555 1_555
C22 C13 1_555 1_555
H20 C13 1_555 1_555
H21 C14 1_555 1_555
C23 C14 1_555 1_555
H22 C15 1_555 1_555
H23 C16 1_555 1_555
H24 C18 1_555 1_555
C24 C19 1_555 1_555
C25 C20 1_555 1_555
H25 C21 1_555 1_555
C26 C22 1_555 1_555
H26 C22 1_555 1_555
C27 C23 1_555 1_555
O19 C24 1_555 1_555
O20 C24 1_555 1_555
O21 C25 1_555 1_555
O22 C25 1_555 1_555
C28 C26 1_555 1_555
O23 C27 1_555 1_555
O24 C27 1_555 1_555
Eu2 O19 1_555 1_555
O25 C28 1_555 1_555
O26 C28 1_555 1_555
O27 C29 1_555 1_555
O28 C29 1_555 1_555
O29 H27 1_555 1_555
O30 H29 1_555 1_555
O31 H31 1_555 1_555
O32 H33 1_555 1_555
O33 C30 1_555 1_555
O34 Cu3A 1_555 1_555
N6 Cu3A 1_555 1_555
C29 C31 1_555 1_555
H28 O29 1_555 1_555
H30 O30 1_555 1_555
H32 O31 1_555 1_555
H34 O32 1_555 1_555
C30 O35 1_555 1_555
C31 C33 1_555 1_555
C32 C30 1_555 1_555
C33 H35 1_555 1_555
C34 C31 1_555 1_555
C35 C32 1_555 1_555
C36 C32 1_555 1_555
C37 C34 1_555 1_555
C38 C34 1_555 1_555
H36 C35 1_555 1_555
C39 C35 1_555 1_555
C40 C36 1_555 1_555
C41 C36 1_555 1_555
C42 C37 1_555 1_555
H37 C37 1_555 1_555
O36 C38 1_555 1_555
H38 C39 1_555 1_555
H39 C40 1_555 1_555
H40 C42 1_555 1_555
O37 H41 1_555 1_555
H42 O37 1_555 1_555
O38 H43 1_555 1_555
H44 O38 1_555 1_555
O39 H45 1_555 1_555
H46 O39 1_555 1_555
O40 H47 1_555 1_555
H48 O40 1_555 1_555
Cu1_2 O14_2 1_555 1_555
O14_2 C9 1_555 1_555
Eu2B O24 1_555 1_555
Cu3A O25 1_555 1_555
O19B Eu2B 1_555 1_555
O20B Eu2B 1_555 1_555
N5A Cu3A 1_555 1_555
N6C C33 1_555 1_555
Cu3B N6C 1_555 1_555
O16C C38 1_555 1_555
N2A C39 1_555 1_555
O8A C41 1_555 1_555
O9A C41 1_555 1_555
Cu2C O16C 1_555 1_555
Cu1A N2A 1_555 1_555
Eu1A O8A 1_555 1_555
C5 C7 1_555 1_555
O11 Cu2 1_555 1_555
C16 C19 1_555 1_555
C17 C21 1_555 1_555
C23 C26 1_555 1_555
O20 Eu2 1_555 1_555
O27 Eu2B 1_555 1_555
O28 Eu2B 1_555 1_555
O29 Eu2B 1_555 1_555
O30 Eu2B 1_555 1_555
O31 Eu2B 1_555 1_555
O32 Eu2B 1_555 1_555
O33 Cu3A 1_555 1_555
C40 N2A 1_555 1_555
C42 N6C 1_555 1_555
O9A Eu1A 1_555 1_555

#END
