
#######################################################################
#
#                 Cambridge Crystallographic Data Centre
#                                CCDC 
#
#######################################################################
#
# If this CIF has been generated from an entry in the Cambridge 
# Structural Database, then it will include bibliographic, chemical, 
# crystal, experimental, refinement or atomic coordinate data resulting 
# from the CCDC's data processing and validation procedures.
#
#######################################################################

data_QOSKAM
_chemical_formula_moiety         '(C49 H108 Cu3 N6 O62 Tb2)n'
_symmetry_cell_setting           monoclinic
_symmetry_space_group_name_H-M   'P 21/n'
_symmetry_Int_Tables_number      14
_space_group_name_Hall           '-P 2yn'
loop_
_symmetry_equiv_pos_site_id
_symmetry_equiv_pos_as_xyz
1 x,y,z
2 1/2-x,1/2+y,1/2-z
3 -x,-y,-z
4 1/2+x,1/2-y,1/2+z
_cell_length_a                   13.934(3)
_cell_length_b                   30.722(6)
_cell_length_c                   20.494(4)
_cell_angle_alpha                90
_cell_angle_beta                 98.71(3)
_cell_angle_gamma                90
_cell_volume                     8671.9
loop_
_atom_site_label
_atom_site_type_symbol
_atom_site_fract_x
_atom_site_fract_y
_atom_site_fract_z
Tb1 Tb 0.03898(2) 0.310330(12) 0.895550(16)
O1 O -0.1220(4) 0.31916(16) 0.8329(2)
O2 O -0.0377(3) 0.38001(17) 0.8457(3)
O3 O 0.0820(4) 0.30887(16) 0.7822(2)
O4 O 0.1916(4) 0.2825(2) 0.8610(3)
O5 O 0.0260(4) 0.3572(2) 0.9865(3)
O6 O 0.1599(4) 0.3678(2) 0.9010(3)
O7 O 0.0061(4) 0.23746(19) 0.8508(3)
O8 O -0.0854(4) 0.2797(2) 0.9523(3)
O9 O 0.1207(4) 0.2713(2) 0.9847(3)
C1 C -0.1161(5) 0.3601(2) 0.8296(3)
C2 C 0.1641(5) 0.2919(2) 0.8016(4)
H1 H -0.015(5) 0.351(2) 1.011(4)
H2 H 0.033(6) 0.3840(8) 0.978(5)
H3 H 0.138(5) 0.3924(15) 0.911(4)
H4 H 0.219(2) 0.362(2) 0.917(4)
H5 H -0.030(6) 0.219(2) 0.867(4)
H6 H 0.020(7) 0.230(3) 0.812(4)
C3 C -0.2067(5) 0.3855(2) 0.8057(3)
C4 C 0.2329(5) 0.2858(2) 0.7523(4)
C5 C -0.2096(5) 0.4308(2) 0.7985(3)
C6 C -0.2938(5) 0.3621(2) 0.7886(3)
C7 C 0.3230(5) 0.3059(2) 0.7651(4)
C8 C 0.2093(5) 0.2618(2) 0.6944(4)
C9 C -0.2981(5) 0.4501(2) 0.7746(4)
C10 C -0.1221(5) 0.4595(2) 0.8159(4)
N1 N -0.3789(4) 0.38112(19) 0.7637(3)
H7 H -0.2926 0.3315 0.7950
N2 N 0.3871(4) 0.30488(19) 0.7219(3)
H8 H 0.3401 0.3210 0.8056
C11 C 0.2759(5) 0.2603(2) 0.6502(4)
C12 C 0.1170(5) 0.2353(2) 0.6829(4)
H9 H -0.3022 0.4809 0.7700
C13 C -0.3805(5) 0.4248(2) 0.7573(4)
O10 O -0.0813(3) 0.47132(15) 0.7677(3)
O11 O -0.0986(4) 0.47205(18) 0.8732(3)
Cu1 Cu -0.49527(6) 0.34232(3) 0.74205(4)
C14 C 0.3634(5) 0.2824(2) 0.6656(4)
H10 H 0.2618 0.2443 0.6102
O12 O 0.0914(4) 0.21636(16) 0.7311(3)
O13 O 0.0723(3) 0.23319(16) 0.6240(3)
H11 H -0.4399 0.4387 0.7404
Cu2 Cu 0.00838(6) 0.52191(3) 0.77997(4)
O14 O -0.4155(3) 0.29664(16) 0.7074(3)
O15 O 0.5238(6) 0.3241(3) 0.8479(4)
O16 O 0.4173(3) 0.39221(17) 0.7541(3)
H12 H 0.4083 0.2815 0.6351
Cu3 Cu -0.02659(6) 0.18444(3) 0.61174(4)
C15 C -0.3750(5) 0.3045(2) 0.6580(4)
H13 H 0.5204 0.2979 0.8322
H14 H 0.5794 0.3312 0.8677
O17 O -0.1242(3) 0.13593(15) 0.6083(2)
O18 O -0.1000(4) 0.14582(17) 0.7174(3)
O19 O -0.0466(5) 0.1866(2) 0.5018(3)
N3 N 0.0857(4) 0.14374(19) 0.6174(3)
N4 N -0.1334(4) 0.22541(19) 0.6224(3)
O20 O -0.3899(4) 0.3367(2) 0.6208(3)
C16 C -0.2938(5) 0.2743(2) 0.6456(3)
C17 C -0.1439(5) 0.1295(2) 0.6655(3)
H15 H -0.062(7) 0.1613(10) 0.486(3)
H16 H -0.058(7) 0.2077(15) 0.475(3)
C18 C 0.1015(5) 0.1125(3) 0.6625(4)
C19 C 0.1550(5) 0.1519(2) 0.5801(4)
C20 C -0.1292(5) 0.2513(2) 0.6758(4)
C21 C -0.2169(5) 0.2238(2) 0.5804(3)
C22 C -0.2067(5) 0.2761(2) 0.6892(4)
C23 C -0.2986(5) 0.2476(2) 0.5903(3)
C24 C -0.2306(5) 0.1016(2) 0.6722(4)
H17 H 0.0525 0.1063 0.6888
C25 C 0.1867(6) 0.0887(3) 0.6726(5)
C26 C 0.2419(5) 0.1293(2) 0.5868(3)
H18 H 0.1439 0.1741 0.5477
H19 H -0.0701 0.2527 0.7056
H20 H -0.2206 0.2058 0.5425
H21 H -0.2007 0.2940 0.7274
C27 C -0.3902(5) 0.2417(2) 0.5414(3)
C28 C -0.3175(5) 0.1040(2) 0.6284(4)
C29 C -0.2294(5) 0.0758(2) 0.7288(3)
H22 H 0.1957 0.0667 0.7055
C30 C 0.2591(5) 0.0969(3) 0.6346(4)
C31 C 0.3166(5) 0.1429(3) 0.5443(4)
O21 O -0.4695(4) 0.2499(2) 0.5604(3)
H23 H -0.3208 0.1206 0.5891
C32 C -0.3991(5) 0.0821(2) 0.6424(4)
C33 C -0.3146(5) 0.0555(2) 0.7400(4)
C34 C -0.1396(5) 0.0685(2) 0.7782(4)
C35 C 0.3494(5) 0.0692(3) 0.6440(4)
O22 O 0.2870(4) 0.1537(2) 0.4859(3)
O23 O 0.4032(4) 0.1437(2) 0.5718(3)
N5 N -0.3977(4) 0.05806(19) 0.6977(3)
H24 H -0.4577 0.0840 0.6121
H25 H -0.3139 0.0391 0.7794
O24 O -0.0673(3) 0.05032(16) 0.7598(2)
O25 O -0.1410(4) 0.0784(2) 0.8375(3)
O26 O 0.3990(3) 0.07074(17) 0.7013(3)
O27 O 0.3688(4) 0.0459(2) 0.5991(3)
Tb2 Tb 0.02372(2) 0.050700(11) 0.874760(16)
O28 O -0.4755(5) 0.0427(2) 0.8282(3)
N6 N -0.6178(4) -0.0167(2) 0.7401(3)
O29 O 0.1682(4) 0.04152(17) 0.8258(3)
O30 O 0.0789(4) -0.01734(17) 0.8219(3)
O31 O 0.0382(4) 0.12167(18) 0.8275(3)
O32 O -0.0564(5) 0.0727(2) 0.9655(3)
O33 O -0.0865(4) -0.00799(18) 0.8848(3)
O34 O 0.1061(4) 0.0073(2) 0.9634(3)
O35 O 0.1390(6) 0.0951(3) 0.9435(4)
H26 H -0.516(5) 0.063(2) 0.826(5)
H27 H -0.488(6) 0.0198(18) 0.849(5)
C36 C 0.1549(5) 0.0017(2) 0.8126(4)
H28 H -0.006(5) 0.131(3) 0.798(4)
H29 H -0.012(4) 0.091(2) 0.964(5)
H30 H -0.114(2) 0.081(3) 0.953(5)
H31 H -0.072(5) -0.0347(9) 0.892(5)
H32 H -0.146(2) -0.001(2) 0.884(5)
H33 H 0.1674(11) 0.009(3) 0.971(4)
H34 H 0.080(5) -0.011(2) 0.986(4)
H35 H 0.190(5) 0.084(3) 0.932(7)
H36 H 0.142(7) 0.1209(16) 0.958(6)
C37 C 0.3115(5) 0.0008(2) 0.7691(4)
C38 C 0.3760(5) -0.0596(3) 0.7260(4)
C39 C 0.2325(5) -0.0226(2) 0.7841(4)
H37 H 0.3157 0.0309 0.7801
H38 H 0.4253 -0.0727 0.7053
C40 C 0.3007(6) -0.0850(2) 0.7406(4)
C41 C 0.2274(5) -0.0669(2) 0.7705(4)
H39 H 0.2990 -0.1152 0.7300
C42 C 0.1498(5) -0.0961(2) 0.7911(4)
O36 O 0.1605(4) -0.10910(18) 0.8491(3)
Cu1_2 Cu 0.50473(6) 0.34232(3) 0.74205(4)
O14_2 O 0.5845(3) 0.29664(16) 0.7074(3)
N1_2 N 0.6211(4) 0.38112(19) 0.7637(3)
O9C O -0.3793(4) 0.2287(2) 0.4847(3)
Tb1C Tb -0.46102(2) 0.189670(12) 0.395550(16)
Cu2A Cu -0.50838(6) 0.02191(3) 0.72003(4)
Cu2A_2 Cu 0.49162(6) 0.02191(3) 0.72003(4)
O10A O -0.4187(3) -0.02868(15) 0.7323(3)
O26_2 O -0.6010(3) 0.07074(17) 0.7013(3)
N6_2 N 0.3822(4) -0.0167(2) 0.7401(3)
O16A O 0.0827(3) -0.10779(17) 0.7459(3)
Cu1A Cu -0.00473(6) -0.15768(3) 0.75795(4)
O37 O 0.5056(4) 0.41077(17) 0.5954(3)
H40 H 0.5087 0.3964 0.6372
H41 H 0.4402 0.4100 0.5726
O38 O 0.0734(4) 0.4391(2) 0.9503(3)
H42 H 0.0155 0.4502 0.9242
H43 H 0.0813 0.4520 0.9934
O39 O 0.8209(6) 0.4944(3) 0.9821(3)
H44 H 0.8356 0.4908 1.0291
H45 H 0.7879 0.5216 0.9722
O40 O 0.9835(5) 0.0206(3) 0.6391(4)
H46 H 0.9411 0.0044 0.6066
H47 H 1.0364 0.0322 0.6195
O41 O 0.5084(7) 0.1935(3) 0.6726(4)
H48 H 0.4751 0.1667 0.6603
H49 H 0.5334 0.2053 0.6351
O42 O 0.8530(7) 0.0391(3) 0.5280(4)
H50 H 0.8763 0.0514 0.4903
O43 O 0.2017(7) 0.1651(3) 0.8250(5)
H51 H 0.1633 0.1830 0.7926
H52 H 0.2265 0.1407 0.8036
O44 O 0.3510(6) 0.3903(3) 0.9499(4)
O45 O 0.0384(7) 0.9394(3) 0.6340(4)
H53 H 0.0990 0.9539 0.6485
C43 C 0.0205(16) 0.9307(7) 0.5652(6)
O46 O 0.6199(8) 0.3930(3) 0.9328(5)
H54 H 0.6884 0.3975 0.9346
H55 H 0.5825 0.4174 0.9439
O47 O 0.9960(9) 0.3512(4) 0.6671(6)
H56 H 1.0535 0.3454 0.6981
H57 H 0.9923 0.3309 0.6311
O48 O 0.0886(8) 0.0460(3) 0.5265(5)
O49 O 0.3672(8) 0.1296(4) 0.8047(6)
O50 O 0.6206(9) 0.1256(4) 0.8571(6)
C44 C 0.5624(19) 0.1634(7) 0.8590(16)
O51 O 0.2477(10) 0.1104(4) 0.0668(6)
O52 O 0.3385(11) 0.0947(5) 0.9210(8)
H58 H 0.3031 0.1215 0.9140
H59 H 0.3670 0.0878 0.8825
O53 O 0.3675(9) 0.2453(4) 0.9181(7)
H60 H 0.3972 0.2406 0.8793
C45 C 0.2888(12) 0.2141(5) 0.9247(10)
O54 O 0.8797(11) 0.3275(5) 0.5341(9)
H61 H 0.8510 0.3091 0.4986
H62 H 0.8837 0.3568 0.5181
O55 O 0.1199(11) 0.2777(5) 0.5105(7)
C46 C 0.0651(17) 0.3053(7) 0.5493(11)
O56 O 0.4576(13) 0.2103(6) 0.8013(9)
H63 H 0.4597 0.1930 0.8406
H64 H 0.5028 0.1988 0.7747
O57 O 0.0639(16) 0.1710(6) 0.9717(9)
O58 O 0.8937(11) 0.4302(6) 0.6467(8)
H65 H 0.9385 0.4300 0.6872
H66 H 0.9230 0.4163 0.6127
O59 O 0.6827(14) 0.1769(6) 0.7633(8)
H67 H 0.7027 0.1580 0.8002
H68 H 0.6353 0.1622 0.7320
O60 O 0.7435(11) 0.9972(6) 0.9334(8)
H69 H 0.6944 1.0138 0.9502
C47 C 0.7214(14) 0.9824(7) 0.8668(8)
O61 O 0.3276(12) 0.8832(6) 0.9335(9)
H70 H 0.2680 0.8928 0.9469
C48 C 0.3996(17) 0.9160(7) 0.9208(13)
O62 O 0.7262(13) 0.2568(6) 0.8541(8)
C49 C 0.6555(13) 0.2319(6) 0.8123(9)
loop_
_geom_bond_atom_site_label_1
_geom_bond_atom_site_label_2
_geom_bond_site_symmetry_1
_geom_bond_site_symmetry_2
Tb1 O1 1_555 1_555
O1 C1 1_555 1_555
O2 Tb1 1_555 1_555
O3 Tb1 1_555 1_555
O4 Tb1 1_555 1_555
O5 Tb1 1_555 1_555
O6 Tb1 1_555 1_555
O7 Tb1 1_555 1_555
O8 Tb1 1_555 1_555
O9 Tb1 1_555 1_555
C1 O2 1_555 1_555
C2 O3 1_555 1_555
H1 O5 1_555 1_555
H2 O5 1_555 1_555
H3 O6 1_555 1_555
H4 O6 1_555 1_555
H5 O7 1_555 1_555
H6 O7 1_555 1_555
C3 C1 1_555 1_555
C4 C2 1_555 1_555
C5 C3 1_555 1_555
C6 C3 1_555 1_555
C7 C4 1_555 1_555
C8 C4 1_555 1_555
C9 C5 1_555 1_555
C10 C5 1_555 1_555
N1 C6 1_555 1_555
H7 C6 1_555 1_555
N2 C7 1_555 1_555
H8 C7 1_555 1_555
C11 C8 1_555 1_555
C12 C8 1_555 1_555
H9 C9 1_555 1_555
C13 C9 1_555 1_555
O10 C10 1_555 1_555
O11 C10 1_555 1_555
Cu1 N1 1_555 1_555
C14 N2 1_555 1_555
H10 C11 1_555 1_555
O12 C12 1_555 1_555
O13 C12 1_555 1_555
H11 C13 1_555 1_555
Cu2 O10 1_555 1_555
O14 Cu1 1_555 1_555
O15 H13 1_555 1_555
O16 Cu1_2 1_555 1_555
H12 C14 1_555 1_555
Cu3 O13 1_555 1_555
C15 O14 1_555 1_555
H14 O15 1_555 1_555
O17 Cu3 1_555 1_555
O18 Cu3 1_555 1_555
O19 Cu3 1_555 1_555
N3 Cu3 1_555 1_555
N4 Cu3 1_555 1_555
O20 C15 1_555 1_555
C16 C15 1_555 1_555
C17 O17 1_555 1_555
H15 O19 1_555 1_555
H16 O19 1_555 1_555
C18 N3 1_555 1_555
C19 N3 1_555 1_555
C20 N4 1_555 1_555
C21 N4 1_555 1_555
C22 C16 1_555 1_555
C23 C16 1_555 1_555
C24 C17 1_555 1_555
H17 C18 1_555 1_555
C25 C18 1_555 1_555
C26 C19 1_555 1_555
H18 C19 1_555 1_555
H19 C20 1_555 1_555
H20 C21 1_555 1_555
H21 C22 1_555 1_555
C27 C23 1_555 1_555
C28 C24 1_555 1_555
C29 C24 1_555 1_555
H22 C25 1_555 1_555
C30 C25 1_555 1_555
C31 C26 1_555 1_555
O21 C27 1_555 1_555
H23 C28 1_555 1_555
C32 C28 1_555 1_555
C33 C29 1_555 1_555
C34 C29 1_555 1_555
C35 C30 1_555 1_555
O22 C31 1_555 1_555
O23 C31 1_555 1_555
N5 C32 1_555 1_555
H24 C32 1_555 1_555
H25 C33 1_555 1_555
O24 C34 1_555 1_555
O25 C34 1_555 1_555
O26 C35 1_555 1_555
O27 C35 1_555 1_555
Tb2 O24 1_555 1_555
O28 H26 1_555 1_555
N6 Cu2A 1_555 1_555
O29 Tb2 1_555 1_555
O30 Tb2 1_555 1_555
O31 Tb2 1_555 1_555
O32 Tb2 1_555 1_555
O33 Tb2 1_555 1_555
O34 Tb2 1_555 1_555
O35 Tb2 1_555 1_555
H27 O28 1_555 1_555
C36 O29 1_555 1_555
H28 O31 1_555 1_555
H29 O32 1_555 1_555
H30 O32 1_555 1_555
H31 O33 1_555 1_555
H32 O33 1_555 1_555
H33 O34 1_555 1_555
H34 O34 1_555 1_555
H35 O35 1_555 1_555
H36 O35 1_555 1_555
C37 C39 1_555 1_555
C38 H38 1_555 1_555
C39 C36 1_555 1_555
H37 C37 1_555 1_555
C40 C38 1_555 1_555
C41 C39 1_555 1_555
H39 C40 1_555 1_555
C42 C41 1_555 1_555
O36 C42 1_555 1_555
O37 H40 1_555 1_555
H41 O37 1_555 1_555
O38 H42 1_555 1_555
H43 O38 1_555 1_555
O39 H44 1_555 1_555
H45 O39 1_555 1_555
O40 H46 1_555 1_555
H47 O40 1_555 1_555
O41 H48 1_555 1_555
H49 O41 1_555 1_555
O42 H50 1_555 1_555
O43 H51 1_555 1_555
H52 O43 1_555 1_555
O45 H53 1_555 1_555
C43 O45 1_555 1_555
O46 H54 1_555 1_555
H55 O46 1_555 1_555
O47 H56 1_555 1_555
H57 O47 1_555 1_555
O50 C44 1_555 1_555
O52 H58 1_555 1_555
H59 O52 1_555 1_555
O53 H60 1_555 1_555
C45 O53 1_555 1_555
O54 H61 1_555 1_555
H62 O54 1_555 1_555
O55 C46 1_555 1_555
O56 H63 1_555 1_555
H64 O56 1_555 1_555
O58 H65 1_555 1_555
H66 O58 1_555 1_555
O59 H67 1_555 1_555
H68 O59 1_555 1_555
O60 H69 1_555 1_555
C47 O60 1_555 1_555
O61 H70 1_555 1_555
C48 O61 1_555 1_555
O62 C49 1_555 1_555
Cu1_2 N2 1_555 1_555
O14_2 Cu1_2 1_555 1_555
N1_2 Cu1_2 1_555 1_555
O9C C27 1_555 1_555
Tb1C O9C 1_555 1_555
Cu2A N5 1_555 1_555
Cu2A_2 O26 1_555 1_555
O10A Cu2A 1_555 1_555
O26_2 Cu2A 1_555 1_555
N6_2 C37 1_555 1_555
O16A C42 1_555 1_555
Cu1A O16A 1_555 1_555
O4 C2 1_555 1_555
N1 C13 1_555 1_555
C11 C14 1_555 1_555
O15 Cu1_2 1_555 1_555
O18 C17 1_555 1_555
C20 C22 1_555 1_555
C21 C23 1_555 1_555
C26 C30 1_555 1_555
C33 N5 1_555 1_555
O25 Tb2 1_555 1_555
O28 Cu2A 1_555 1_555
O30 C36 1_555 1_555
C38 N6_2 1_555 1_555
C40 C41 1_555 1_555
Cu2A_2 N6_2 1_555 1_555

#END
