
#######################################################################
#
#                 Cambridge Crystallographic Data Centre
#                                CCDC 
#
#######################################################################
#
# If this CIF has been generated from an entry in the Cambridge 
# Structural Database, then it will include bibliographic, chemical, 
# crystal, experimental, refinement or atomic coordinate data resulting 
# from the CCDC's data processing and validation procedures.
#
#######################################################################

data_OKECIQ01
_chemical_formula_moiety         'C9 H6 Al7 N4 O113 P24 Zn20'
_symmetry_cell_setting           cubic
_symmetry_space_group_name_H-M   'I -4 3 m'
_symmetry_Int_Tables_number      217
_space_group_name_Hall           'I -4 2 3'
loop_
_symmetry_equiv_pos_site_id
_symmetry_equiv_pos_as_xyz
1 x,y,z
2 -x,-y,z
3 -x,y,-z
4 x,-y,-z
5 z,x,y
6 z,-x,-y
7 -z,-x,y
8 -z,x,-y
9 y,z,x
10 -y,z,-x
11 y,-z,-x
12 -y,-z,x
13 y,x,z
14 -y,-x,z
15 y,-x,-z
16 -y,x,-z
17 x,z,y
18 -x,z,-y
19 -x,-z,y
20 x,-z,-y
21 z,y,x
22 z,-y,-x
23 -z,y,-x
24 -z,-y,x
25 1/2+x,1/2+y,1/2+z
26 1/2-x,1/2-y,1/2+z
27 1/2-x,1/2+y,1/2-z
28 1/2+x,1/2-y,1/2-z
29 1/2+z,1/2+x,1/2+y
30 1/2+z,1/2-x,1/2-y
31 1/2-z,1/2-x,1/2+y
32 1/2-z,1/2+x,1/2-y
33 1/2+y,1/2+z,1/2+x
34 1/2-y,1/2+z,1/2-x
35 1/2+y,1/2-z,1/2-x
36 1/2-y,1/2-z,1/2+x
37 1/2+y,1/2+x,1/2+z
38 1/2-y,1/2-x,1/2+z
39 1/2+y,1/2-x,1/2-z
40 1/2-y,1/2+x,1/2-z
41 1/2+x,1/2+z,1/2+y
42 1/2-x,1/2+z,1/2-y
43 1/2-x,1/2-z,1/2+y
44 1/2+x,1/2-z,1/2-y
45 1/2+z,1/2+y,1/2+x
46 1/2+z,1/2-y,1/2-x
47 1/2-z,1/2+y,1/2-x
48 1/2-z,1/2-y,1/2+x
_cell_length_a                   16.79420(10)
_cell_length_b                   16.79420(10)
_cell_length_c                   16.79420(10)
_cell_angle_alpha                90
_cell_angle_beta                 90
_cell_angle_gamma                90
_cell_volume                     4736.72
loop_
_atom_site_label
_atom_site_type_symbol
_atom_site_fract_x
_atom_site_fract_y
_atom_site_fract_z
N1 N 0.19775(17) 0.80225(17) 0.19775(17)
C1 C 0.1758(3) 0.8747(3) 0.2425(3)
C2 C 0.1416(2) 0.85837(16) 0.32510(16)
N2 N 0.19449(13) 0.80551(17) 0.37239(13)
C1M C 0.1253(3) 0.8242(3) 0.2425(3)
C1E C 0.2425(3) 0.8242(3) 0.1253(3)
C1T C 0.2425(3) 0.8747(3) 0.1758(3)
C1K C 0.1253(3) 0.7575(3) 0.1758(3)
C1S C 0.1758(3) 0.7575(3) 0.1253(3)
C2E C 0.32510(16) 0.8584(2) 0.14163(16)
C2K C 0.14163(16) 0.67490(16) 0.1416(2)
N2K N 0.19449(17) 0.62761(13) 0.19449(13)
N2E N 0.37239(13) 0.80551(13) 0.19449(17)
O4 O 0.0000 1.0000 0.0000
O5 O -0.0944(4) 0.9056(4) 0.0944(4)
O6 O 0.2591(4) 0.5544(5) 0.4456(5)
Al1 Al 0.0000 0.5000 0.5000
Zn1 Zn 0.0000 0.5000 0.2500
P1 P 0.06445(4) 0.62254(3) 0.37746(3)
O1 O 0.14866(14) 0.64454(11) 0.35546(11)
O2 O 0.01649(11) 0.59188(11) 0.30536(9)
O3 O 0.06471(14) 0.55784(9) 0.44216(9)
O2S O 0.01649(11) 0.69464(9) 0.40812(11)
P1A P -0.06445(4) 0.37746(3) 0.37746(3)
O1A O -0.14866(14) 0.35546(11) 0.35546(11)
O2A O -0.01649(11) 0.40812(11) 0.30536(9)
O3A O -0.06471(14) 0.44216(9) 0.44216(9)
O2Q O -0.01649(11) 0.30536(9) 0.40812(11)
P1B P -0.06445(4) 0.62254(3) 0.62254(3)
O1B O -0.14866(14) 0.64454(11) 0.64454(11)
O2B O -0.01649(11) 0.59188(11) 0.69464(9)
O3B O -0.06471(14) 0.55784(9) 0.55784(9)
O2R O -0.01649(11) 0.69464(9) 0.59188(11)
P1C P 0.06445(4) 0.37746(3) 0.62254(3)
O1C O 0.14866(14) 0.35546(11) 0.64454(11)
O2C O 0.01649(11) 0.40812(11) 0.69464(9)
O3C O 0.06471(14) 0.44216(9) 0.55784(9)
O2P O 0.01649(11) 0.30536(9) 0.59188(11)
Zn1S Zn 0.0000 0.7500 0.5000
Zn1Q Zn 0.0000 0.2500 0.5000
Zn1B Zn 0.0000 0.5000 0.7500
P1LA P 0.12254(3) 0.43555(4) 0.12254(3)
O1LA O 0.14454(11) 0.35134(14) 0.14454(11)
O2LA O 0.09188(11) 0.48351(11) 0.19464(9)
O3LA O 0.05784(9) 0.43529(14) 0.05784(9)
O2DA O 0.19464(9) 0.48351(11) 0.09188(11)
P1MA P -0.12254(3) 0.56445(4) 0.12254(3)
O1MA O -0.14454(11) 0.64866(14) 0.14454(11)
O2MA O -0.09188(11) 0.51649(11) 0.19464(9)
O3MA O -0.05784(9) 0.56471(14) 0.05784(9)
O2BA O -0.19464(9) 0.51649(11) 0.09188(11)
P1FA P 0.12254(3) 0.87746(3) 0.56445(4)
O1FA O 0.14454(11) 0.85546(11) 0.64866(14)
O2FA O 0.09188(11) 0.80536(9) 0.51649(11)
O3FA O 0.05784(9) 0.94216(9) 0.56471(14)
O2UA O 0.19464(9) 0.90812(11) 0.51649(11)
P1GA P -0.12254(3) 0.87746(3) 0.43555(4)
O1GA O -0.14454(11) 0.85546(11) 0.35134(14)
O2GA O -0.09188(11) 0.80536(9) 0.48351(11)
O3GA O -0.05784(9) 0.94216(9) 0.43529(14)
O2SA O -0.19464(9) 0.90812(11) 0.48351(11)
P1IA P -0.12254(3) 0.12254(3) 0.56445(4)
O1IA O -0.14454(11) 0.14454(11) 0.64866(14)
O2IA O -0.09188(11) 0.19464(9) 0.51649(11)
O3IA O -0.05784(9) 0.05784(9) 0.56471(14)
O2RA O -0.19464(9) 0.09188(11) 0.51649(11)
P1HA P 0.12254(3) 0.12254(3) 0.43555(4)
O1HA O 0.14454(11) 0.14454(11) 0.35134(14)
O2HA O 0.09188(11) 0.19464(9) 0.48351(11)
O3HA O 0.05784(9) 0.05784(9) 0.43529(14)
O2TA O 0.19464(9) 0.09188(11) 0.48351(11)
P1KA P -0.12254(3) 0.43555(4) 0.87746(3)
O1KA O -0.14454(11) 0.35134(14) 0.85546(11)
O2KA O -0.09188(11) 0.48351(11) 0.80536(9)
O3KA O -0.05784(9) 0.43529(14) 0.94216(9)
O2CA O -0.19464(9) 0.48351(11) 0.90812(11)
P1JA P 0.12254(3) 0.56445(4) 0.87746(3)
O1JA O 0.14454(11) 0.64866(14) 0.85546(11)
O2JA O 0.09188(11) 0.51649(11) 0.80536(9)
O3JA O 0.05784(9) 0.56471(14) 0.94216(9)
O2EA O 0.19464(9) 0.51649(11) 0.90812(11)
Al1LA Al 0.0000 0.5000 0.0000
Al1FA Al 0.0000 1.0000 0.5000
Al1IA Al 0.0000 0.0000 0.5000
Al1KA Al 0.0000 0.5000 1.0000
Zn1DA Zn 0.2500 0.5000 0.0000
Zn1BA Zn -0.2500 0.5000 0.0000
Zn1UA Zn 0.2500 1.0000 0.5000
Zn1SA Zn -0.2500 1.0000 0.5000
Zn1RA Zn -0.2500 0.0000 0.5000
Zn1TA Zn 0.2500 0.0000 0.5000
Zn1CA Zn -0.2500 0.5000 1.0000
Zn1EA Zn 0.2500 0.5000 1.0000
P1JA_2 P 0.12254(3) 0.56445(4) -0.12254(3)
O1JA_2 O 0.14454(11) 0.64866(14) -0.14454(11)
O2JA_2 O 0.09188(11) 0.51649(11) -0.19464(9)
O3JA_2 O 0.05784(9) 0.56471(14) -0.05784(9)
O2EA_2 O 0.19464(9) 0.51649(11) -0.09188(11)
P1KA_2 P -0.12254(3) 0.43555(4) -0.12254(3)
O1KA_2 O -0.14454(11) 0.35134(14) -0.14454(11)
O2KA_2 O -0.09188(11) 0.48351(11) -0.19464(9)
O3KA_2 O -0.05784(9) 0.43529(14) -0.05784(9)
O2CA_2 O -0.19464(9) 0.48351(11) -0.09188(11)
P1HA_2 P 0.12254(3) 1.12254(3) 0.43555(4)
O1HA_2 O 0.14454(11) 1.14454(11) 0.35134(14)
O2HA_2 O 0.09188(11) 1.19464(9) 0.48351(11)
O3HA_2 O 0.05784(9) 1.05784(9) 0.43529(14)
O2TA_2 O 0.19464(9) 1.09188(11) 0.48351(11)
P1IA_2 P -0.12254(3) 1.12254(3) 0.56445(4)
O1IA_2 O -0.14454(11) 1.14454(11) 0.64866(14)
O2IA_2 O -0.09188(11) 1.19464(9) 0.51649(11)
O3IA_2 O -0.05784(9) 1.05784(9) 0.56471(14)
O2RA_2 O -0.19464(9) 1.09188(11) 0.51649(11)
P1GA_2 P -0.12254(3) -0.12254(3) 0.43555(4)
O1GA_2 O -0.14454(11) -0.14454(11) 0.35134(14)
O2GA_2 O -0.09188(11) -0.19464(9) 0.48351(11)
O3GA_2 O -0.05784(9) -0.05784(9) 0.43529(14)
O2SA_2 O -0.19464(9) -0.09188(11) 0.48351(11)
P1FA_2 P 0.12254(3) -0.12254(3) 0.56445(4)
O1FA_2 O 0.14454(11) -0.14454(11) 0.64866(14)
O2FA_2 O 0.09188(11) -0.19464(9) 0.51649(11)
O3FA_2 O 0.05784(9) -0.05784(9) 0.56471(14)
O2UA_2 O 0.19464(9) -0.09188(11) 0.51649(11)
P1MA_2 P -0.12254(3) 0.56445(4) 1.12254(3)
O1MA_2 O -0.14454(11) 0.64866(14) 1.14454(11)
O2MA_2 O -0.09188(11) 0.51649(11) 1.19464(9)
O3MA_2 O -0.05784(9) 0.56471(14) 1.05784(9)
O2BA_2 O -0.19464(9) 0.51649(11) 1.09188(11)
P1LA_2 P 0.12254(3) 0.43555(4) 1.12254(3)
O1LA_2 O 0.14454(11) 0.35134(14) 1.14454(11)
O2LA_2 O 0.09188(11) 0.48351(11) 1.19464(9)
O3LA_2 O 0.05784(9) 0.43529(14) 1.05784(9)
O2DA_2 O 0.19464(9) 0.48351(11) 1.09188(11)
P1U P 0.37746(3) 0.37746(3) -0.06445(4)
O1U O 0.35546(11) 0.35546(11) -0.14866(14)
O2U O 0.30536(9) 0.40812(11) -0.01649(11)
O3U O 0.44216(9) 0.44216(9) -0.06471(14)
O2I O 0.40812(11) 0.30536(9) -0.01649(11)
P1T P 0.37746(3) 0.62254(3) 0.06445(4)
O1T O 0.35546(11) 0.64454(11) 0.14866(14)
O2T O 0.30536(9) 0.59188(11) 0.01649(11)
O3T O 0.44216(9) 0.55784(9) 0.06471(14)
O2K O 0.40812(11) 0.69464(9) 0.01649(11)
P1V P -0.37746(3) 0.62254(3) -0.06445(4)
O1V O -0.35546(11) 0.64454(11) -0.14866(14)
O2V O -0.30536(9) 0.59188(11) -0.01649(11)
O3V O -0.44216(9) 0.55784(9) -0.06471(14)
O2J O -0.40812(11) 0.69464(9) -0.01649(11)
P1W P -0.37746(3) 0.37746(3) 0.06445(4)
O1W O -0.35546(11) 0.35546(11) 0.14866(14)
O2W O -0.30536(9) 0.40812(11) 0.01649(11)
O3W O -0.44216(9) 0.44216(9) 0.06471(14)
O2H O -0.40812(11) 0.30536(9) 0.01649(11)
Al1U Al 0.5000 0.5000 0.0000
O2D O 0.30536(9) 1.01649(11) 0.59188(11)
O2E O 0.30536(9) 0.98351(11) 0.40812(11)
O2F O -0.30536(9) 0.98351(11) 0.59188(11)
O2G O -0.30536(9) 1.01649(11) 0.40812(11)
O2F_2 O -0.30536(9) -0.01649(11) 0.59188(11)
O2G_2 O -0.30536(9) 0.01649(11) 0.40812(11)
O2D_2 O 0.30536(9) 0.01649(11) 0.59188(11)
O2E_2 O 0.30536(9) -0.01649(11) 0.40812(11)
O2V_2 O -0.30536(9) 0.59188(11) 0.98351(11)
O2W_2 O -0.30536(9) 0.40812(11) 1.01649(11)
O2T_2 O 0.30536(9) 0.59188(11) 1.01649(11)
O2U_2 O 0.30536(9) 0.40812(11) 0.98351(11)
Zn1B_2 Zn 0.0000 0.5000 -0.2500
Zn1P Zn 0.0000 1.2500 0.5000
Zn1R Zn -0.0000 -0.2500 0.5000
Zn1_2 Zn 0.0000 0.5000 1.2500
Zn1H Zn 0.5000 0.2500 0.0000
Zn1J Zn 0.5000 0.7500 0.0000
Al1H Al -0.5000 0.5000 0.0000
Zn1J_2 Zn -0.5000 0.7500 0.0000
Zn1H_2 Zn -0.5000 0.2500 0.0000
O3H O 0.55784(9) 0.44216(9) 0.06471(14)
O3J O 0.55784(9) 0.55784(9) -0.06471(14)
loop_
_geom_bond_atom_site_label_1
_geom_bond_atom_site_label_2
_geom_bond_site_symmetry_1
_geom_bond_site_symmetry_2
Al1 O3 1_555 1_555
Zn1 O2 1_555 1_555
P1 O1 1_555 1_555
O2 P1 1_555 1_555
O3 P1 1_555 1_555
N1 C1 1_555 1_555
C1 C2 1_555 1_555
C2 N2 1_555 1_555
O2S P1 1_555 1_555
C1M N1 1_555 1_555
C1E N1 1_555 1_555
C1T N1 1_555 1_555
C1K N1 1_555 1_555
C1S N1 1_555 1_555
C2E C1E 1_555 1_555
C2K C1K 1_555 1_555
N2K C2K 1_555 1_555
N2E C2E 1_555 1_555
P1A O1A 1_555 1_555
O2A Zn1 1_555 1_555
O3A Al1 1_555 1_555
O2Q P1A 1_555 1_555
P1B O1B 1_555 1_555
O2B P1B 1_555 1_555
O3B Al1 1_555 1_555
O2R P1B 1_555 1_555
P1C O1C 1_555 1_555
O2C P1C 1_555 1_555
O3C Al1 1_555 1_555
O2P P1C 1_555 1_555
Zn1S O2S 1_555 1_555
Zn1Q O2Q 1_555 1_555
Zn1B O2B 1_555 1_555
P1LA O1LA 1_555 1_555
O2LA Zn1 1_555 1_555
O3LA P1LA 1_555 1_555
O2DA P1LA 1_555 1_555
P1MA O1MA 1_555 1_555
O2MA Zn1 1_555 1_555
O3MA P1MA 1_555 1_555
O2BA P1MA 1_555 1_555
P1FA O1FA 1_555 1_555
O2FA Zn1S 1_555 1_555
O3FA P1FA 1_555 1_555
O2UA P1FA 1_555 1_555
P1GA O1GA 1_555 1_555
O2GA Zn1S 1_555 1_555
O3GA P1GA 1_555 1_555
O2SA P1GA 1_555 1_555
P1IA O1IA 1_555 1_555
O2IA Zn1Q 1_555 1_555
O3IA P1IA 1_555 1_555
O2RA P1IA 1_555 1_555
P1HA O1HA 1_555 1_555
O2HA Zn1Q 1_555 1_555
O3HA P1HA 1_555 1_555
O2TA P1HA 1_555 1_555
P1KA O1KA 1_555 1_555
O2KA Zn1B 1_555 1_555
O3KA P1KA 1_555 1_555
O2CA P1KA 1_555 1_555
P1JA O1JA 1_555 1_555
O2JA Zn1B 1_555 1_555
O3JA P1JA 1_555 1_555
O2EA P1JA 1_555 1_555
Al1LA O3LA 1_555 1_555
Al1FA O3FA 1_555 1_555
Al1IA O3IA 1_555 1_555
Al1KA O3KA 1_555 1_555
Zn1DA O2DA 1_555 1_555
Zn1BA O2BA 1_555 1_555
Zn1UA O2UA 1_555 1_555
Zn1SA O2SA 1_555 1_555
Zn1RA O2RA 1_555 1_555
Zn1TA O2TA 1_555 1_555
Zn1CA O2CA 1_555 1_555
Zn1EA O2EA 1_555 1_555
P1JA_2 O1JA_2 1_555 1_555
O2JA_2 P1JA_2 1_555 1_555
O3JA_2 Al1LA 1_555 1_555
O2EA_2 Zn1DA 1_555 1_555
P1KA_2 O1KA_2 1_555 1_555
O2KA_2 P1KA_2 1_555 1_555
O3KA_2 Al1LA 1_555 1_555
O2CA_2 Zn1BA 1_555 1_555
P1HA_2 O1HA_2 1_555 1_555
O2HA_2 P1HA_2 1_555 1_555
O3HA_2 Al1FA 1_555 1_555
O2TA_2 Zn1UA 1_555 1_555
P1IA_2 O1IA_2 1_555 1_555
O2IA_2 P1IA_2 1_555 1_555
O3IA_2 Al1FA 1_555 1_555
O2RA_2 Zn1SA 1_555 1_555
P1GA_2 O1GA_2 1_555 1_555
O2GA_2 P1GA_2 1_555 1_555
O3GA_2 Al1IA 1_555 1_555
O2SA_2 Zn1RA 1_555 1_555
P1FA_2 O1FA_2 1_555 1_555
O2FA_2 P1FA_2 1_555 1_555
O3FA_2 Al1IA 1_555 1_555
O2UA_2 Zn1TA 1_555 1_555
P1MA_2 O1MA_2 1_555 1_555
O2MA_2 P1MA_2 1_555 1_555
O3MA_2 Al1KA 1_555 1_555
O2BA_2 Zn1CA 1_555 1_555
P1LA_2 O1LA_2 1_555 1_555
O2LA_2 P1LA_2 1_555 1_555
O3LA_2 Al1KA 1_555 1_555
O2DA_2 Zn1EA 1_555 1_555
P1U O1U 1_555 1_555
O2U Zn1DA 1_555 1_555
O3U P1U 1_555 1_555
O2I P1U 1_555 1_555
P1T O1T 1_555 1_555
O2T Zn1DA 1_555 1_555
O3T P1T 1_555 1_555
O2K P1T 1_555 1_555
P1V O1V 1_555 1_555
O2V Zn1BA 1_555 1_555
O3V P1V 1_555 1_555
O2J P1V 1_555 1_555
P1W O1W 1_555 1_555
O2W Zn1BA 1_555 1_555
O3W P1W 1_555 1_555
O2H P1W 1_555 1_555
Al1U O3U 1_555 1_555
O2D Zn1UA 1_555 1_555
O2E Zn1UA 1_555 1_555
O2F Zn1SA 1_555 1_555
O2G Zn1SA 1_555 1_555
O2F_2 Zn1RA 1_555 1_555
O2G_2 Zn1RA 1_555 1_555
O2D_2 Zn1TA 1_555 1_555
O2E_2 Zn1TA 1_555 1_555
O2V_2 Zn1CA 1_555 1_555
O2W_2 Zn1CA 1_555 1_555
O2T_2 Zn1EA 1_555 1_555
O2U_2 Zn1EA 1_555 1_555
Zn1B_2 O2JA_2 1_555 1_555
Zn1P O2HA_2 1_555 1_555
Zn1R O2GA_2 1_555 1_555
Zn1_2 O2MA_2 1_555 1_555
Zn1H O2I 1_555 1_555
Zn1J O2K 1_555 1_555
Al1H O3V 1_555 1_555
Zn1J_2 O2J 1_555 1_555
Zn1H_2 O2H 1_555 1_555
O3H Al1U 1_555 1_555
O3J Al1U 1_555 1_555
C1 C1M 1_555 1_555
C1 C1T 1_555 1_555
C2 C1M 1_555 1_555
C1M C1K 1_555 1_555
C1E C1T 1_555 1_555
C1E C1S 1_555 1_555
C1T C2E 1_555 1_555
C1K C1S 1_555 1_555
C1S C2K 1_555 1_555
P1A O2A 1_555 1_555
P1A O3A 1_555 1_555
P1B O3B 1_555 1_555
O2R Zn1S 1_555 1_555
P1C O3C 1_555 1_555
O2C Zn1B 1_555 1_555
O2P Zn1Q 1_555 1_555
P1LA O2LA 1_555 1_555
P1MA O2MA 1_555 1_555
O3MA Al1LA 1_555 1_555
P1FA O2FA 1_555 1_555
P1GA O2GA 1_555 1_555
O3GA Al1FA 1_555 1_555
P1IA O2IA 1_555 1_555
P1HA O2HA 1_555 1_555
O3HA Al1IA 1_555 1_555
P1KA O2KA 1_555 1_555
P1JA O2JA 1_555 1_555
O3JA Al1KA 1_555 1_555
P1JA_2 O3JA_2 1_555 1_555
P1JA_2 O2EA_2 1_555 1_555
P1KA_2 O3KA_2 1_555 1_555
P1KA_2 O2CA_2 1_555 1_555
O2KA_2 Zn1B_2 1_555 1_555
P1HA_2 O3HA_2 1_555 1_555
P1HA_2 O2TA_2 1_555 1_555
P1IA_2 O3IA_2 1_555 1_555
P1IA_2 O2RA_2 1_555 1_555
O2IA_2 Zn1P 1_555 1_555
P1GA_2 O3GA_2 1_555 1_555
P1GA_2 O2SA_2 1_555 1_555
P1FA_2 O3FA_2 1_555 1_555
P1FA_2 O2UA_2 1_555 1_555
O2FA_2 Zn1R 1_555 1_555
P1MA_2 O3MA_2 1_555 1_555
P1MA_2 O2BA_2 1_555 1_555
P1LA_2 O3LA_2 1_555 1_555
P1LA_2 O2DA_2 1_555 1_555
O2LA_2 Zn1_2 1_555 1_555
P1U O2U 1_555 1_555
P1T O2T 1_555 1_555
O3T Al1U 1_555 1_555
P1V O2V 1_555 1_555
P1W O2W 1_555 1_555
O3W Al1H 1_555 1_555

#END
