
#######################################################################
#
#                 Cambridge Crystallographic Data Centre
#                                CCDC 
#
#######################################################################
#
# If this CIF has been generated from an entry in the Cambridge 
# Structural Database, then it will include bibliographic, chemical, 
# crystal, experimental, refinement or atomic coordinate data resulting 
# from the CCDC's data processing and validation procedures.
#
#######################################################################

data_IVEKEA
_chemical_formula_moiety         'C54 Cu11 N7 O24'
_symmetry_cell_setting           cubic
_symmetry_space_group_name_H-M   'F m -3 m'
_symmetry_Int_Tables_number      225
_space_group_name_Hall           '-F 4 2 3'
loop_
_symmetry_equiv_pos_site_id
_symmetry_equiv_pos_as_xyz
1 x,y,z
2 z,x,y
3 y,z,x
4 y,x,-z
5 y,-x,z
6 -y,x,z
7 x,z,-y
8 -x,z,y
9 x,-z,y
10 z,y,-x
11 z,-y,x
12 -z,y,x
13 x,1/2+y,1/2+z
14 z,1/2+x,1/2+y
15 y,1/2+z,1/2+x
16 y,1/2+x,1/2-z
17 y,1/2-x,1/2+z
18 -y,1/2+x,1/2+z
19 x,1/2+z,1/2-y
20 -x,1/2+z,1/2+y
21 x,1/2-z,1/2+y
22 z,1/2+y,1/2-x
23 z,1/2-y,1/2+x
24 -z,1/2+y,1/2+x
25 1/2+x,y,1/2+z
26 1/2+z,x,1/2+y
27 1/2+y,z,1/2+x
28 1/2+y,x,1/2-z
29 1/2+y,-x,1/2+z
30 1/2-y,x,1/2+z
31 1/2+x,z,1/2-y
32 1/2-x,z,1/2+y
33 1/2+x,-z,1/2+y
34 1/2+z,y,1/2-x
35 1/2+z,-y,1/2+x
36 1/2-z,y,1/2+x
37 1/2+x,1/2+y,z
38 1/2+z,1/2+x,y
39 1/2+y,1/2+z,x
40 1/2+y,1/2+x,-z
41 1/2+y,1/2-x,z
42 1/2-y,1/2+x,z
43 1/2+x,1/2+z,-y
44 1/2-x,1/2+z,y
45 1/2+x,1/2-z,y
46 1/2+z,1/2+y,-x
47 1/2+z,1/2-y,x
48 1/2-z,1/2+y,x
49 -x,-y,z
50 -x,y,-z
51 x,-y,-z
52 z,-x,-y
53 -z,-x,y
54 -z,x,-y
55 -y,z,-x
56 y,-z,-x
57 -y,-z,x
58 -y,-x,-z
59 -x,-z,-y
60 -z,-y,-x
61 -x,1/2-y,1/2+z
62 -x,1/2+y,1/2-z
63 x,1/2-y,1/2-z
64 z,1/2-x,1/2-y
65 -z,1/2-x,1/2+y
66 -z,1/2+x,1/2-y
67 -y,1/2+z,1/2-x
68 y,1/2-z,1/2-x
69 -y,1/2-z,1/2+x
70 -y,1/2-x,1/2-z
71 -x,1/2-z,1/2-y
72 -z,1/2-y,1/2-x
73 1/2-x,-y,1/2+z
74 1/2-x,y,1/2-z
75 1/2+x,-y,1/2-z
76 1/2+z,-x,1/2-y
77 1/2-z,-x,1/2+y
78 1/2-z,x,1/2-y
79 1/2-y,z,1/2-x
80 1/2+y,-z,1/2-x
81 1/2-y,-z,1/2+x
82 1/2-y,-x,1/2-z
83 1/2-x,-z,1/2-y
84 1/2-z,-y,1/2-x
85 1/2-x,1/2-y,z
86 1/2-x,1/2+y,-z
87 1/2+x,1/2-y,-z
88 1/2+z,1/2-x,-y
89 1/2-z,1/2-x,y
90 1/2-z,1/2+x,-y
91 1/2-y,1/2+z,-x
92 1/2+y,1/2-z,-x
93 1/2-y,1/2-z,x
94 1/2-y,1/2-x,-z
95 1/2-x,1/2-z,-y
96 1/2-z,1/2-y,-x
97 -x,-y,-z
98 -z,-x,-y
99 -y,-z,-x
100 -y,-x,z
101 -y,x,-z
102 y,-x,-z
103 -x,-z,y
104 x,-z,-y
105 -x,z,-y
106 -z,-y,x
107 -z,y,-x
108 z,-y,-x
109 -x,1/2-y,1/2-z
110 -z,1/2-x,1/2-y
111 -y,1/2-z,1/2-x
112 -y,1/2-x,1/2+z
113 -y,1/2+x,1/2-z
114 y,1/2-x,1/2-z
115 -x,1/2-z,1/2+y
116 x,1/2-z,1/2-y
117 -x,1/2+z,1/2-y
118 -z,1/2-y,1/2+x
119 -z,1/2+y,1/2-x
120 z,1/2-y,1/2-x
121 1/2-x,-y,1/2-z
122 1/2-z,-x,1/2-y
123 1/2-y,-z,1/2-x
124 1/2-y,-x,1/2+z
125 1/2-y,x,1/2-z
126 1/2+y,-x,1/2-z
127 1/2-x,-z,1/2+y
128 1/2+x,-z,1/2-y
129 1/2-x,z,1/2-y
130 1/2-z,-y,1/2+x
131 1/2-z,y,1/2-x
132 1/2+z,-y,1/2-x
133 1/2-x,1/2-y,-z
134 1/2-z,1/2-x,-y
135 1/2-y,1/2-z,-x
136 1/2-y,1/2-x,z
137 1/2-y,1/2+x,-z
138 1/2+y,1/2-x,-z
139 1/2-x,1/2-z,y
140 1/2+x,1/2-z,-y
141 1/2-x,1/2+z,-y
142 1/2-z,1/2-y,x
143 1/2-z,1/2+y,-x
144 1/2+z,1/2-y,-x
145 x,y,-z
146 x,-y,z
147 -x,y,z
148 -z,x,y
149 z,x,-y
150 z,-x,y
151 y,-z,x
152 -y,z,x
153 y,z,-x
154 y,x,z
155 x,z,y
156 z,y,x
157 x,1/2+y,1/2-z
158 x,1/2-y,1/2+z
159 -x,1/2+y,1/2+z
160 -z,1/2+x,1/2+y
161 z,1/2+x,1/2-y
162 z,1/2-x,1/2+y
163 y,1/2-z,1/2+x
164 -y,1/2+z,1/2+x
165 y,1/2+z,1/2-x
166 y,1/2+x,1/2+z
167 x,1/2+z,1/2+y
168 z,1/2+y,1/2+x
169 1/2+x,y,1/2-z
170 1/2+x,-y,1/2+z
171 1/2-x,y,1/2+z
172 1/2-z,x,1/2+y
173 1/2+z,x,1/2-y
174 1/2+z,-x,1/2+y
175 1/2+y,-z,1/2+x
176 1/2-y,z,1/2+x
177 1/2+y,z,1/2-x
178 1/2+y,x,1/2+z
179 1/2+x,z,1/2+y
180 1/2+z,y,1/2+x
181 1/2+x,1/2+y,-z
182 1/2+x,1/2-y,z
183 1/2-x,1/2+y,z
184 1/2-z,1/2+x,y
185 1/2+z,1/2+x,-y
186 1/2+z,1/2-x,y
187 1/2+y,1/2-z,x
188 1/2-y,1/2+z,x
189 1/2+y,1/2+z,-x
190 1/2+y,1/2+x,z
191 1/2+x,1/2+z,y
192 1/2+z,1/2+y,x
_cell_length_a                   46.150(4)
_cell_length_b                   46.150(4)
_cell_length_c                   46.150(4)
_cell_angle_alpha                90
_cell_angle_beta                 90
_cell_angle_gamma                90
_cell_volume                     98291.3
loop_
_atom_site_label
_atom_site_type_symbol
_atom_site_fract_x
_atom_site_fract_y
_atom_site_fract_z
_atom_site_U_iso_or_equiv
_atom_site_thermal_displace_type
Cu1 Cu 0.0000 0.122551(17) 0.122551(17) 0.0755 Uani
Cu2 Cu 0.0000 0.162991(18) 0.162991(18) 0.1001 Uani
O1 O -0.02992(8) 0.10459(8) 0.14617(8) 0.0861 Uiso
C1 C -0.04078(16) 0.11553(16) 0.16932(16) 0.1070 Uiso
N1 N 0.0000 0.19628(15) 0.19628(15) 0.0910 Uiso
C2 C -0.06277(16) 0.10069(16) 0.18362(16) 0.1130 Uiso
C3 C -0.07698(15) 0.07698(15) 0.1707(2) 0.1080 Uiso
O2 O 0.0000 0.08757(16) 0.08757(16) 0.1380 Uiso
C4 C -0.0736(2) 0.1106(2) 0.2118(2) 0.1660 Uiso
C5 C 0.0000 0.23798(19) 0.23798(19) 0.1060 Uiso
C6 C 0.0259(4) 0.2279(3) 0.2279(3) 0.0940 Uiso
C7 C 0.0139(3) 0.2434(3) 0.2136(3) 0.0440 Uiso
C8 C 0.0231(3) 0.2133(3) 0.2001(3) 0.0450 Uiso
O3 O -0.03026(10) 0.13868(10) 0.18039(10) 0.1133 Uiso
C9 C -0.1046(3) 0.1046(3) 0.2178(5) 0.1330 Uiso
N2 N -0.1187(5) 0.1187(5) 0.2414(7) 0.3200 Uiso
Cu1E Cu -0.122551(17) 0.0000 0.122551(17) 0.0755 Uani
Cu1B Cu 0.122551(17) 0.122551(17) 0.0000 0.0755 Uani
Cu1A Cu 0.122551(17) 0.0000 0.122551(17) 0.0755 Uani
Cu1K Cu -0.122551(17) 0.122551(17) 0.0000 0.0755 Uani
Cu2E Cu -0.162991(18) 0.0000 0.162991(18) 0.1001 Uani
Cu2DD Cu 0.0000 0.337009(18) 0.337009(18) 0.1001 Uani
Cu2B Cu 0.162991(18) 0.162991(18) 0.0000 0.1001 Uani
Cu2A Cu 0.162991(18) 0.0000 0.162991(18) 0.1001 Uani
Cu2K Cu -0.162991(18) 0.162991(18) 0.0000 0.1001 Uani
O1UC O -0.10459(8) 0.02992(8) 0.14617(8) 0.0861 Uiso
O1G O 0.02992(8) 0.14617(8) 0.10459(8) 0.0861 Uiso
O1VE O 0.10459(8) 0.14617(8) 0.02992(8) 0.0861 Uiso
O1PE O 0.02992(8) 0.10459(8) 0.14617(8) 0.0861 Uiso
O1D O 0.10459(8) 0.02992(8) 0.14617(8) 0.0861 Uiso
O1XE O -0.02992(8) 0.14617(8) 0.10459(8) 0.0861 Uiso
O1BB O -0.10459(8) 0.14617(8) 0.02992(8) 0.0861 Uiso
O1QE O -0.14617(8) -0.02992(8) 0.10459(8) 0.0861 Uiso
O1E O -0.10459(8) -0.02992(8) 0.14617(8) 0.0861 Uiso
O1ZA O -0.14617(8) 0.02992(8) 0.10459(8) 0.0861 Uiso
C1UC C -0.11553(16) 0.04078(16) 0.16932(16) 0.1070 Uiso
C1G C 0.04078(16) 0.16932(16) 0.11553(16) 0.1070 Uiso
C1VE C 0.11553(16) 0.16932(16) 0.04078(16) 0.1070 Uiso
C1PE C 0.04078(16) 0.11553(16) 0.16932(16) 0.1070 Uiso
C1D C 0.11553(16) 0.04078(16) 0.16932(16) 0.1070 Uiso
C1XE C -0.04078(16) 0.16932(16) 0.11553(16) 0.1070 Uiso
C1BB C -0.11553(16) 0.16932(16) 0.04078(16) 0.1070 Uiso
N1DD N 0.0000 0.30372(15) 0.30372(15) 0.0910 Uiso
N1E N -0.19628(15) 0.0000 0.19628(15) 0.0910 Uiso
C2UC C -0.10069(16) 0.06277(16) 0.18362(16) 0.1130 Uiso
C2G C 0.06277(16) 0.18362(16) 0.10069(16) 0.1130 Uiso
C2VE C 0.10069(16) 0.18362(16) 0.06277(16) 0.1130 Uiso
C2PE C 0.06277(16) 0.10069(16) 0.18362(16) 0.1130 Uiso
C2D C 0.10069(16) 0.06277(16) 0.18362(16) 0.1130 Uiso
C2XE C -0.06277(16) 0.18362(16) 0.10069(16) 0.1130 Uiso
C2BB C -0.10069(16) 0.18362(16) 0.06277(16) 0.1130 Uiso
C3G C 0.07698(15) 0.1707(2) 0.07698(15) 0.1080 Uiso
C3D C 0.07698(15) 0.07698(15) 0.1707(2) 0.1080 Uiso
C3XE C -0.07698(15) 0.1707(2) 0.07698(15) 0.1080 Uiso
O2E O -0.08757(16) 0.0000 0.08757(16) 0.1380 Uiso
C4UC C -0.1106(2) 0.0736(2) 0.2118(2) 0.1660 Uiso
C4G C 0.0736(2) 0.2118(2) 0.1106(2) 0.1660 Uiso
C4VE C 0.1106(2) 0.2118(2) 0.0736(2) 0.1660 Uiso
C4PE C 0.0736(2) 0.1106(2) 0.2118(2) 0.1660 Uiso
C4D C 0.1106(2) 0.0736(2) 0.2118(2) 0.1660 Uiso
C4XE C -0.0736(2) 0.2118(2) 0.1106(2) 0.1660 Uiso
C4BB C -0.1106(2) 0.2118(2) 0.0736(2) 0.1660 Uiso
C5DD C 0.0000 0.26202(19) 0.26202(19) 0.1060 Uiso
C6DD C -0.0259(4) 0.2721(3) 0.2721(3) 0.0940 Uiso
C6KD C 0.0259(4) 0.2721(3) 0.2721(3) 0.0940 Uiso
C6G C -0.0259(4) 0.2279(3) 0.2279(3) 0.0940 Uiso
C7DD C -0.0139(3) 0.2566(3) 0.2864(3) 0.0440 Uiso
C7RB C -0.0139(3) 0.2864(3) 0.2566(3) 0.0440 Uiso
C7JB C 0.0139(3) 0.2566(3) 0.2864(3) 0.0440 Uiso
C7KD C 0.0139(3) 0.2864(3) 0.2566(3) 0.0440 Uiso
C7XE C 0.0139(3) 0.2136(3) 0.2434(3) 0.0440 Uiso
C7PE C -0.0139(3) 0.2434(3) 0.2136(3) 0.0440 Uiso
C7G C -0.0139(3) 0.2136(3) 0.2434(3) 0.0440 Uiso
C8DD C -0.0231(3) 0.2867(3) 0.2999(3) 0.0450 Uiso
C8KD C 0.0231(3) 0.2999(3) 0.2867(3) 0.0450 Uiso
C8RB C -0.0231(3) 0.2999(3) 0.2867(3) 0.0450 Uiso
C8JB C 0.0231(3) 0.2867(3) 0.2999(3) 0.0450 Uiso
C8G C -0.0231(3) 0.2001(3) 0.2133(3) 0.0450 Uiso
C8PE C -0.0231(3) 0.2133(3) 0.2001(3) 0.0450 Uiso
C8XE C 0.0231(3) 0.2001(3) 0.2133(3) 0.0450 Uiso
O3UC O -0.13868(10) 0.03026(10) 0.18039(10) 0.1133 Uiso
O3G O 0.03026(10) 0.18039(10) 0.13868(10) 0.1133 Uiso
O3VE O 0.13868(10) 0.18039(10) 0.03026(10) 0.1133 Uiso
O3PE O 0.03026(10) 0.13868(10) 0.18039(10) 0.1133 Uiso
O3D O 0.13868(10) 0.03026(10) 0.18039(10) 0.1133 Uiso
O3XE O -0.03026(10) 0.18039(10) 0.13868(10) 0.1133 Uiso
O3BB O -0.13868(10) 0.18039(10) 0.03026(10) 0.1133 Uiso
O3QE O -0.18039(10) -0.03026(10) 0.13868(10) 0.1133 Uiso
O3E O -0.13868(10) -0.03026(10) 0.18039(10) 0.1133 Uiso
O3ZA O -0.18039(10) 0.03026(10) 0.13868(10) 0.1133 Uiso
C9G C 0.1046(3) 0.2178(5) 0.1046(3) 0.1330 Uiso
C9D C 0.1046(3) 0.1046(3) 0.2178(5) 0.1330 Uiso
C9XE C -0.1046(3) 0.2178(5) 0.1046(3) 0.1330 Uiso
N2G N 0.1187(5) 0.2414(7) 0.1187(5) 0.3200 Uiso
N2D N 0.1187(5) 0.1187(5) 0.2414(7) 0.3200 Uiso
N2XE N -0.1187(5) 0.2414(7) 0.1187(5) 0.3200 Uiso
loop_
_atom_site_aniso_label
_atom_site_aniso_U_11
_atom_site_aniso_U_22
_atom_site_aniso_U_33
_atom_site_aniso_U_23
_atom_site_aniso_U_13
_atom_site_aniso_U_12
Cu1 0.0850(10) 0.0708(7) 0.0708(7) -0.0407(7) 0.000 0.000
Cu2 0.1203(13) 0.0900(8) 0.0900(8) -0.0652(9) 0.000 0.000
Cu1E 0.0708 0.085 0.0708 0 0.0407 0
Cu1B 0.0708 0.0708 0.085 0 0 -0.0407
Cu1A 0.0708 0.085 0.0708 0 -0.0407 0
Cu1K 0.0708 0.0708 0.085 0 0 0.0407
Cu2E 0.09 0.1203 0.09 0 0.0652 0
Cu2DD 0.1203 0.09 0.09 -0.0652 0 0
Cu2B 0.09 0.09 0.1203 0 0 -0.0652
Cu2A 0.09 0.1203 0.09 0 -0.0652 0
Cu2K 0.09 0.09 0.1203 0 0 0.0652
loop_
_geom_bond_atom_site_label_1
_geom_bond_atom_site_label_2
_geom_bond_site_symmetry_1
_geom_bond_site_symmetry_2
Cu1 Cu2 1_555 1_555
Cu2 N1 1_555 1_555
O1 Cu1 1_555 1_555
C1 O1 1_555 1_555
N1 C8 1_555 1_555
C2 C1 1_555 1_555
C3 C2 1_555 1_555
O2 Cu1 1_555 1_555
C4 C2 1_555 1_555
C5 C6 1_555 1_555
C6 C7 1_555 1_555
C7 C5 1_555 1_555
C8 C6 1_555 1_555
O3 Cu2 1_555 1_555
C9 C4 1_555 1_555
N2 C9 1_555 1_555
Cu1E Cu2E 1_555 1_555
Cu1B Cu2B 1_555 1_555
Cu1A Cu2A 1_555 1_555
Cu1K Cu2K 1_555 1_555
Cu2E N1E 1_555 1_555
Cu2DD N1DD 1_555 1_555
Cu2B O3VE 1_555 1_555
Cu2A O3D 1_555 1_555
Cu2K O3BB 1_555 1_555
O1UC Cu1E 1_555 1_555
O1G Cu1 1_555 1_555
O1VE Cu1B 1_555 1_555
O1PE Cu1 1_555 1_555
O1D Cu1A 1_555 1_555
O1XE Cu1 1_555 1_555
O1BB Cu1K 1_555 1_555
O1QE Cu1E 1_555 1_555
O1E Cu1E 1_555 1_555
O1ZA Cu1E 1_555 1_555
C1UC O1UC 1_555 1_555
C1G O1G 1_555 1_555
C1VE O1VE 1_555 1_555
C1PE O1PE 1_555 1_555
C1D O1D 1_555 1_555
C1XE O1XE 1_555 1_555
C1BB O1BB 1_555 1_555
N1DD C8DD 1_555 1_555
C2UC C3 1_555 1_555
C2G C1G 1_555 1_555
C2VE C1VE 1_555 1_555
C2PE C1PE 1_555 1_555
C2D C1D 1_555 1_555
C2XE C1XE 1_555 1_555
C2BB C1BB 1_555 1_555
C3G C2G 1_555 1_555
C3D C2PE 1_555 1_555
C3XE C2XE 1_555 1_555
O2E Cu1E 1_555 1_555
C4UC C9 1_555 1_555
C4G C2G 1_555 1_555
C4VE C2VE 1_555 1_555
C4PE C2PE 1_555 1_555
C4D C2D 1_555 1_555
C4XE C2XE 1_555 1_555
C4BB C2BB 1_555 1_555
C5DD C5 1_555 1_555
C6DD C5DD 1_555 1_555
C6KD C5DD 1_555 1_555
C6G C5 1_555 1_555
C7DD C5DD 1_555 1_555
C7RB C5DD 1_555 1_555
C7JB C5DD 1_555 1_555
C7KD C5DD 1_555 1_555
C7XE C5 1_555 1_555
C7PE C5 1_555 1_555
C7G C5 1_555 1_555
C8DD C6DD 1_555 1_555
C8KD N1DD 1_555 1_555
C8RB N1DD 1_555 1_555
C8JB N1DD 1_555 1_555
C8G N1 1_555 1_555
C8PE N1 1_555 1_555
C8XE N1 1_555 1_555
O3UC Cu2E 1_555 1_555
O3G Cu2 1_555 1_555
O3VE C1VE 1_555 1_555
O3PE Cu2 1_555 1_555
O3D C1D 1_555 1_555
O3XE Cu2 1_555 1_555
O3BB C1BB 1_555 1_555
O3QE Cu2E 1_555 1_555
O3E Cu2E 1_555 1_555
O3ZA Cu2E 1_555 1_555
C9G C4G 1_555 1_555
C9D C4PE 1_555 1_555
C9XE C4XE 1_555 1_555
N2G C9G 1_555 1_555
N2D C9D 1_555 1_555
N2XE C9XE 1_555 1_555
C1 O3 1_555 1_555
C6 C7XE 1_555 1_555
C6 C8XE 1_555 1_555
C7 C8 1_555 1_555
C7 C7PE 1_555 1_555
C8 C8XE 1_555 1_555
C1UC C2UC 1_555 1_555
C1UC O3UC 1_555 1_555
C1G O3G 1_555 1_555
C1PE O3PE 1_555 1_555
C1XE O3XE 1_555 1_555
C2UC C4UC 1_555 1_555
C2VE C3G 1_555 1_555
C2D C3D 1_555 1_555
C2BB C3XE 1_555 1_555
C4VE C9G 1_555 1_555
C4D C9D 1_555 1_555
C4BB C9XE 1_555 1_555
C6DD C7DD 1_555 1_555
C6DD C7RB 1_555 1_555
C6DD C8RB 1_555 1_555
C6KD C7JB 1_555 1_555
C6KD C7KD 1_555 1_555
C6KD C8KD 1_555 1_555
C6KD C8JB 1_555 1_555
C6G C7PE 1_555 1_555
C6G C7G 1_555 1_555
C6G C8G 1_555 1_555
C6G C8PE 1_555 1_555
C7DD C7JB 1_555 1_555
C7DD C8DD 1_555 1_555
C7RB C7KD 1_555 1_555
C7RB C8RB 1_555 1_555
C7JB C8JB 1_555 1_555
C7KD C8KD 1_555 1_555
C7XE C7G 1_555 1_555
C7XE C8XE 1_555 1_555
C7PE C8PE 1_555 1_555
C7G C8G 1_555 1_555
C8DD C8RB 1_555 1_555
C8KD C8JB 1_555 1_555
C8G C8PE 1_555 1_555

#END
