
#######################################################################
#
#                 Cambridge Crystallographic Data Centre
#                                CCDC 
#
#######################################################################
#
# If this CIF has been generated from an entry in the Cambridge 
# Structural Database, then it will include bibliographic, chemical, 
# crystal, experimental, refinement or atomic coordinate data resulting 
# from the CCDC's data processing and validation procedures.
#
#######################################################################

data_BEFLUV
_chemical_formula_moiety         '(Al1 O4 P1 1-)n'
_symmetry_cell_setting           tetragonal
_symmetry_space_group_name_H-M   'P 4/n n c'
_symmetry_Int_Tables_number      126
_space_group_name_Hall           '-P 4a 2bc'
loop_
_symmetry_equiv_pos_site_id
_symmetry_equiv_pos_as_xyz
1 x,y,z
2 1/2-y,x,z
3 x,1/2-y,1/2-z
4 1/2-x,1/2-y,z
5 y,x,1/2-z
6 y,1/2-x,z
7 1/2-x,y,1/2-z
8 1/2-y,1/2-x,1/2-z
9 -x,-y,-z
10 1/2+y,-x,-z
11 -x,1/2+y,1/2+z
12 1/2+x,1/2+y,-z
13 -y,-x,1/2+z
14 -y,1/2+x,-z
15 1/2+x,-y,1/2+z
16 1/2+y,1/2+x,1/2+z
_cell_length_a                   14.66150(10)
_cell_length_b                   14.66150(10)
_cell_length_c                   9.6146(2)
_cell_angle_alpha                90
_cell_angle_beta                 90
_cell_angle_gamma                90
_cell_volume                     2066.75
loop_
_atom_site_label
_atom_site_type_symbol
_atom_site_fract_x
_atom_site_fract_y
_atom_site_fract_z
Al1 Al 0.5076(1) 0.1360(1) 0.3999(2)
P1 P 0.5112(2) 0.1478(1) 0.0642(2)
O1 O 0.5452(7) 0.1359(5) 0.2097(8)
O2 O 0.4261(5) 0.0949(5) 0.0347(9)
O3 O 0.4987(6) 0.2471(5) 0.0238(9)
O4 O 0.5859(7) 0.1156(7) -0.0304(12)
Al1G Al 0.3640(1) -0.0076(1) 0.1001(2)
Al1B Al 0.5076(1) 0.3640(1) 0.1001(2)
Al1O Al 0.6360(1) 0.0076(1) -0.1001(2)
O2G O 0.4051(5) 0.0739(5) 0.4653(9)
O3B O 0.4987(6) 0.2529(5) 0.4762(9)
O4O O 0.6156(7) 0.0859(7) 0.4696(12)
loop_
_geom_bond_atom_site_label_1
_geom_bond_atom_site_label_2
_geom_bond_site_symmetry_1
_geom_bond_site_symmetry_2
Al1 O1 1_555 1_555
P1 O1 1_555 1_555
O2 P1 1_555 1_555
O3 P1 1_555 1_555
O4 P1 1_555 1_555
Al1G O2 1_555 1_555
Al1B O3 1_555 1_555
Al1O O4 1_555 1_555
O2G Al1 1_555 1_555
O3B Al1 1_555 1_555
O4O Al1 1_555 1_555

#END
