
#######################################################################
#
#                 Cambridge Crystallographic Data Centre
#                                CCDC 
#
#######################################################################
#
# If this CIF has been generated from an entry in the Cambridge 
# Structural Database, then it will include bibliographic, chemical, 
# crystal, experimental, refinement or atomic coordinate data resulting 
# from the CCDC's data processing and validation procedures.
#
#######################################################################

data_BEFMUW
_chemical_formula_moiety         'C3 H12 Co11 N2 O28 P5 2+'
_symmetry_cell_setting           monoclinic
_symmetry_space_group_name_H-M   'C 2/c'
_symmetry_Int_Tables_number      15
_space_group_name_Hall           '-C 2yc'
loop_
_symmetry_equiv_pos_site_id
_symmetry_equiv_pos_as_xyz
1 x,y,z
2 -x,y,1/2-z
3 1/2+x,1/2+y,z
4 1/2-x,1/2+y,1/2-z
5 -x,-y,-z
6 x,-y,1/2+z
7 1/2-x,1/2-y,-z
8 1/2+x,1/2-y,1/2+z
_cell_length_a                   13.8201(3)
_cell_length_b                   13.187
_cell_length_c                   13.8527(3)
_cell_angle_alpha                90
_cell_angle_beta                 90.8040(10)
_cell_angle_gamma                90
_cell_volume                     2524.35
loop_
_atom_site_label
_atom_site_type_symbol
_atom_site_fract_x
_atom_site_fract_y
_atom_site_fract_z
_atom_site_U_iso_or_equiv
_atom_site_thermal_displace_type
Co1 Co 0.1239(1) 1.1410(1) -0.2746(1) 0.0260 Uiso
Co2 Co 0.0250(1) 1.2594(1) 0.1236(1) 0.0280 Uiso
Co3 Co 0.0000 1.4422(1) -0.2500 0.0320 Uiso
P1 P 0.0292(1) 1.2607(2) -0.1054(1) 0.0250 Uiso
P2 P 0.1447(1) 1.6251(2) -0.2194(1) 0.0250 Uiso
P3 P -0.0000 0.9406(2) -0.2500 0.0290 Uiso
O1 O 0.0689(4) 1.2603(5) -0.0017(4) 0.0440 Uiso
O2 O -0.0089(5) 1.3659(5) -0.1304(4) 0.0520 Uiso
O3 O 0.1204(4) 1.5179(5) -0.2520(6) 0.0600 Uiso
O4 O 0.0800(4) 1.6546(6) -0.1365(5) 0.0540 Uiso
O5 O 0.0896(4) 1.0048(5) -0.2429(6) 0.0570 Uiso
O6 O 0.1332(4) 1.7003(5) -0.3016(5) 0.0510 Uiso
O7 O 0.0016(6) 0.8757(5) -0.3413(5) 0.0610 Uiso
O8 O 0.1132(4) 1.2350(5) -0.1716(4) 0.0480 Uiso
O9 O 0.2479(4) 1.6272(5) -0.1811(5) 0.0440 Uiso
O10 O -0.0514(4) 1.1831(5) -0.1150(5) 0.0490 Uiso
Co1A Co -0.1239(1) 1.1410(1) -0.2254(1) 0.0260 Uiso
Co1C Co 0.3761(1) 1.6410(1) -0.2254(1) 0.0260 Uiso
Co1B Co -0.3761(1) 1.6410(1) -0.2746(1) 0.0260 Uiso
Co2A Co -0.0250(1) 1.2594(1) -0.6236(1) 0.0280 Uiso
Co2D Co -0.0250(1) 1.7406(1) -0.1236(1) 0.0280 Uiso
Co2E Co 0.0250(1) 1.7406(1) -0.3764(1) 0.0280 Uiso
Co2E_2 Co 0.0250(1) 0.7406(1) -0.3764(1) 0.0280 Uiso
Co2D_2 Co -0.0250(1) 0.7406(1) -0.1236(1) 0.0280 Uiso
P1A P -0.0292(1) 1.2607(2) -0.3946(1) 0.0250 Uiso
P2A P -0.1447(1) 1.6251(2) -0.2806(1) 0.0250 Uiso
O1A O -0.0689(4) 1.2603(5) -0.4983(4) 0.0440 Uiso
O2A O 0.0089(5) 1.3659(5) -0.3696(4) 0.0520 Uiso
O3A O -0.1204(4) 1.5179(5) -0.2480(6) 0.0600 Uiso
O4A O -0.0800(4) 1.6546(6) -0.3635(5) 0.0540 Uiso
O4D O -0.0800(4) 1.3454(6) 0.1365(5) 0.0540 Uiso
O4E O 0.0800(4) 1.3454(6) -0.6365(5) 0.0540 Uiso
O5A O -0.0896(4) 1.0048(5) -0.2571(6) 0.0570 Uiso
O6A O -0.1332(4) 1.7003(5) -0.1984(5) 0.0510 Uiso
O6E O 0.1332(4) 1.2997(5) 0.1984(5) 0.0510 Uiso
O6D O -0.1332(4) 1.2997(5) -0.6984(5) 0.0510 Uiso
O7A O -0.0016(6) 0.8757(5) -0.1587(5) 0.0610 Uiso
O7E O 0.0016(6) 1.1243(5) 0.1587(5) 0.0610 Uiso
O7D O -0.0016(6) 1.1243(5) -0.6587(5) 0.0610 Uiso
O8A O -0.1132(4) 1.2350(5) -0.3284(4) 0.0480 Uiso
O9A O -0.2479(4) 1.6272(5) -0.3189(5) 0.0440 Uiso
O9C O 0.2521(4) 1.1272(5) -0.3189(5) 0.0440 Uiso
O9B O -0.2521(4) 1.1272(5) -0.1811(5) 0.0440 Uiso
O10A O 0.0514(4) 1.1831(5) -0.3850(5) 0.0490 Uiso
N1 N 0.2580(8) 0.6047(10) 0.3678(9) 0.0930 Uiso
C1 C 0.2751(13) 0.5750(14) 0.4727(14) 0.1160 Uiso
C2 C 0.1953(19) 0.5332(22) 0.5198(20) 0.1740 Uiso
N2 N 0.1925(14) 0.4243(16) 0.5327(15) 0.1600 Uiso
C3 C 0.2608(12) 0.3640(13) 0.5823(13) 0.1090 Uiso
loop_
_geom_bond_atom_site_label_1
_geom_bond_atom_site_label_2
_geom_bond_site_symmetry_1
_geom_bond_site_symmetry_2
N1 C1 1_555 1_555
C1 C2 1_555 1_555
C2 N2 1_555 1_555
N2 C3 1_555 1_555
Co1 O5 1_555 1_555
Co2 O1 1_555 1_555
Co3 O2 1_555 1_555
P1 O1 1_555 1_555
P2 O3 1_555 1_555
P3 O5 1_555 1_555
O2 P1 1_555 1_555
O3 Co3 1_555 1_555
O4 P2 1_555 1_555
O6 P2 1_555 1_555
O7 P3 1_555 1_555
O8 Co1 1_555 1_555
O9 P2 1_555 1_555
O10 P1 1_555 1_555
Co1A O10 1_555 1_555
Co1C O9 1_555 1_555
Co1B O9A 1_555 1_555
Co2A O1A 1_555 1_555
Co2D O4 1_555 1_555
Co2E O6 1_555 1_555
Co2E_2 O7 1_555 1_555
Co2D_2 O7A 1_555 1_555
P1A O1A 1_555 1_555
P2A O3A 1_555 1_555
O2A Co3 1_555 1_555
O3A Co3 1_555 1_555
O4A Co2E 1_555 1_555
O4D Co2 1_555 1_555
O4E Co2A 1_555 1_555
O5A P3 1_555 1_555
O6A Co2D 1_555 1_555
O6E Co2 1_555 1_555
O6D Co2A 1_555 1_555
O7A P3 1_555 1_555
O7E Co2 1_555 1_555
O7D Co2A 1_555 1_555
O8A Co1A 1_555 1_555
O9A P2A 1_555 1_555
O9C Co1 1_555 1_555
O9B Co1A 1_555 1_555
O10A Co1 1_555 1_555
P1 O8 1_555 1_555
Co1A O5A 1_555 1_555
P1A O2A 1_555 1_555
P1A O8A 1_555 1_555
P1A O10A 1_555 1_555
P2A O4A 1_555 1_555
P2A O6A 1_555 1_555

#END
