
#######################################################################
#
#                 Cambridge Crystallographic Data Centre
#                                CCDC 
#
#######################################################################
#
# If this CIF has been generated from an entry in the Cambridge 
# Structural Database, then it will include bibliographic, chemical, 
# crystal, experimental, refinement or atomic coordinate data resulting 
# from the CCDC's data processing and validation procedures.
#
#######################################################################

data_BEFMAC
_chemical_formula_moiety         '(Al2 O8 P2 2-)n'
_symmetry_cell_setting           monoclinic
_symmetry_space_group_name_H-M   'C 2/c'
_symmetry_Int_Tables_number      15
_space_group_name_Hall           '-C 2yc'
loop_
_symmetry_equiv_pos_site_id
_symmetry_equiv_pos_as_xyz
1 x,y,z
2 -x,y,1/2-z
3 1/2+x,1/2+y,z
4 1/2-x,1/2+y,1/2-z
5 -x,-y,-z
6 x,-y,1/2+z
7 1/2-x,1/2-y,-z
8 1/2+x,1/2-y,1/2+z
_cell_length_a                   10.2233(4)
_cell_length_b                   14.6052(5)
_cell_length_c                   14.3041(6)
_cell_angle_alpha                90
_cell_angle_beta                 90.1620(10)
_cell_angle_gamma                90
_cell_volume                     2135.78
loop_
_atom_site_label
_atom_site_type_symbol
_atom_site_fract_x
_atom_site_fract_y
_atom_site_fract_z
_atom_site_U_iso_or_equiv
_atom_site_thermal_displace_type
Al1 Al 0.3582(1) 0.3861(1) 0.0163(1) 0.0290 Uiso
Al2 Al 0.6338(1) 0.2307(1) -0.1289(1) 0.0290 Uiso
P1 P 0.3326(2) 0.2352(1) -0.1426(1) 0.0270 Uiso
P2 P 0.6695(2) 0.3977(1) 0.0130(1) 0.0300 Uiso
O1 O 0.5334(6) 0.3912(5) 0.0521(4) 0.0580 Uiso
O2 O 0.6780(6) 0.3452(4) -0.0781(4) 0.0510 Uiso
O3 O 0.4621(5) 0.1914(4) -0.1136(4) 0.0500 Uiso
O4 O 0.3259(7) 0.2518(6) -0.2462(4) 0.0670 Uiso
O5 O 0.3169(6) 0.3286(4) -0.0961(4) 0.0500 Uiso
O6 O 0.7086(8) 0.4963(4) -0.0079(7) 0.0870 Uiso
O7 O 0.2215(6) 0.1727(5) -0.1170(5) 0.0620 Uiso
O8 O 0.7653(8) 0.3617(6) 0.0838(6) 0.0890 Uiso
Al1D Al 0.6418(1) 0.6139(1) -0.0163(1) 0.0290 Uiso
Al1F Al 0.1418(1) 0.1139(1) -0.0163(1) 0.0290 Uiso
Al2A Al 0.3662(1) 0.2307(1) -0.3711(1) 0.0290 Uiso
Al2F Al 0.8662(1) 0.2693(1) 0.1289(1) 0.0290 Uiso
O4A O 0.6741(7) 0.2518(6) -0.2538(4) 0.0670 Uiso
O6D O 0.2914(8) 0.5037(4) 0.0079(7) 0.0870 Uiso
O7F O 0.2785(6) 0.3273(5) 0.1170(5) 0.0620 Uiso
O8F O 0.7347(8) 0.1383(6) -0.0838(6) 0.0890 Uiso
loop_
_geom_bond_atom_site_label_1
_geom_bond_atom_site_label_2
_geom_bond_site_symmetry_1
_geom_bond_site_symmetry_2
Al1 O1 1_555 1_555
Al2 O2 1_555 1_555
P1 O3 1_555 1_555
P2 O1 1_555 1_555
O2 P2 1_555 1_555
O3 Al2 1_555 1_555
O4 P1 1_555 1_555
O5 Al1 1_555 1_555
O6 P2 1_555 1_555
O7 P1 1_555 1_555
O8 P2 1_555 1_555
Al1D O6 1_555 1_555
Al1F O7 1_555 1_555
Al2A O4 1_555 1_555
Al2F O8 1_555 1_555
O4A Al2 1_555 1_555
O6D Al1 1_555 1_555
O7F Al1 1_555 1_555
O8F Al2 1_555 1_555
P1 O5 1_555 1_555

#END
