
#######################################################################
#
#                 Cambridge Crystallographic Data Centre
#                                CCDC 
#
#######################################################################
#
# If this CIF has been generated from an entry in the Cambridge 
# Structural Database, then it will include bibliographic, chemical, 
# crystal, experimental, refinement or atomic coordinate data resulting 
# from the CCDC's data processing and validation procedures.
#
#######################################################################

data_BEFMOQ
_chemical_formula_moiety         'Co11 O28 P5'
_symmetry_cell_setting           monoclinic
_symmetry_space_group_name_H-M   'C 2/c'
_symmetry_Int_Tables_number      15
_space_group_name_Hall           '-C 2yc'
loop_
_symmetry_equiv_pos_site_id
_symmetry_equiv_pos_as_xyz
1 x,y,z
2 -x,y,1/2-z
3 1/2+x,1/2+y,z
4 1/2-x,1/2+y,1/2-z
5 -x,-y,-z
6 x,-y,1/2+z
7 1/2-x,1/2-y,-z
8 1/2+x,1/2-y,1/2+z
_cell_length_a                   14.130(2)
_cell_length_b                   13.178(2)
_cell_length_c                   14.018(2)
_cell_angle_alpha                90
_cell_angle_beta                 90.561(3)
_cell_angle_gamma                90
_cell_volume                     2610.1
loop_
_atom_site_label
_atom_site_type_symbol
_atom_site_fract_x
_atom_site_fract_y
_atom_site_fract_z
_atom_site_U_iso_or_equiv
_atom_site_thermal_displace_type
Co1 Co 0.1239(3) 1.1419(3) -0.2743(3) 0.0250 Uiso
Co2 Co 0.0192(3) 1.2575(3) 0.1229(3) 0.0250 Uiso
Co3 Co -0.0000 1.4468(4) -0.2500 0.0330 Uiso
P1 P 0.0254(5) 1.2625(6) -0.1067(5) 0.0300 Uiso
P2 P 0.1443(4) 1.6291(6) -0.2250(5) 0.0260 Uiso
P3 P -0.0000 0.9406(7) -0.2500 0.0250 Uiso
O1 O 0.0597(12) 1.2634(15) -0.0021(12) 0.0440 Uiso
O2 O -0.0066(16) 1.3691(13) -0.1319(14) 0.0570 Uiso
O3 O 0.1185(14) 1.5220(14) -0.2588(16) 0.0570 Uiso
O4 O 0.0832(12) 1.6550(15) -0.1410(13) 0.0470 Uiso
O5 O 0.0892(13) 1.0027(14) -0.2524(15) 0.0510 Uiso
O6 O 0.1262(13) 1.7036(14) -0.3036(13) 0.0460 Uiso
O7 O -0.0091(15) 0.8785(14) -0.3387(13) 0.0540 Uiso
O8 O 0.1060(14) 1.2311(17) -0.1698(13) 0.0600 Uiso
O9 O 0.2451(12) 1.6344(17) -0.1927(15) 0.0580 Uiso
O10 O -0.0564(13) 1.1879(15) -0.1162(14) 0.0570 Uiso
Co1A Co -0.1239(3) 1.1419(3) -0.2257(3) 0.0250 Uiso
Co1C Co 0.3761(3) 1.6419(3) -0.2257(3) 0.0250 Uiso
Co1B Co -0.3761(3) 1.6419(3) -0.2743(3) 0.0250 Uiso
Co2A Co -0.0192(3) 1.2575(3) -0.6229(3) 0.0250 Uiso
Co2D Co -0.0192(3) 1.7425(3) -0.1229(3) 0.0250 Uiso
Co2E Co 0.0192(3) 1.7425(3) -0.3771(3) 0.0250 Uiso
Co2E_2 Co 0.0192(3) 0.7425(3) -0.3771(3) 0.0250 Uiso
Co2D_2 Co -0.0192(3) 0.7425(3) -0.1229(3) 0.0250 Uiso
P1A P -0.0254(5) 1.2625(6) -0.3933(5) 0.0300 Uiso
P2A P -0.1443(4) 1.6291(6) -0.2750(5) 0.0260 Uiso
O1A O -0.0597(12) 1.2634(15) -0.4979(12) 0.0440 Uiso
O2A O 0.0066(16) 1.3691(13) -0.3681(14) 0.0570 Uiso
O3A O -0.1185(14) 1.5220(14) -0.2412(16) 0.0570 Uiso
O4A O -0.0832(12) 1.6550(15) -0.3590(13) 0.0470 Uiso
O4D O -0.0832(12) 1.3450(15) 0.1410(13) 0.0470 Uiso
O4E O 0.0832(12) 1.3450(15) -0.6410(13) 0.0470 Uiso
O5A O -0.0892(13) 1.0027(14) -0.2476(15) 0.0510 Uiso
O6A O -0.1262(13) 1.7036(14) -0.1964(13) 0.0460 Uiso
O6E O 0.1262(13) 1.2964(14) 0.1964(13) 0.0460 Uiso
O6D O -0.1262(13) 1.2964(14) -0.6964(13) 0.0460 Uiso
O7A O 0.0091(15) 0.8785(14) -0.1613(13) 0.0540 Uiso
O7E O -0.0091(15) 1.1215(14) 0.1613(13) 0.0540 Uiso
O7D O 0.0091(15) 1.1215(14) -0.6613(13) 0.0540 Uiso
O8A O -0.1060(14) 1.2311(17) -0.3302(13) 0.0600 Uiso
O9A O -0.2451(12) 1.6344(17) -0.3073(15) 0.0580 Uiso
O9C O 0.2549(12) 1.1344(17) -0.3073(15) 0.0580 Uiso
O9B O -0.2549(12) 1.1344(17) -0.1927(15) 0.0580 Uiso
O10A O 0.0564(13) 1.1879(15) -0.3838(14) 0.0570 Uiso
loop_
_geom_bond_atom_site_label_1
_geom_bond_atom_site_label_2
_geom_bond_site_symmetry_1
_geom_bond_site_symmetry_2
Co1 O5 1_555 1_555
Co2 O1 1_555 1_555
Co3 O2 1_555 1_555
P1 O1 1_555 1_555
P2 O3 1_555 1_555
P3 O5 1_555 1_555
O2 P1 1_555 1_555
O3 Co3 1_555 1_555
O4 P2 1_555 1_555
O6 P2 1_555 1_555
O7 P3 1_555 1_555
O8 Co1 1_555 1_555
O9 P2 1_555 1_555
O10 P1 1_555 1_555
Co1A O10 1_555 1_555
Co1C O9 1_555 1_555
Co1B O9A 1_555 1_555
Co2A O1A 1_555 1_555
Co2D O4 1_555 1_555
Co2E O6 1_555 1_555
Co2E_2 O7 1_555 1_555
Co2D_2 O7A 1_555 1_555
P1A O1A 1_555 1_555
P2A O3A 1_555 1_555
O2A Co3 1_555 1_555
O3A Co3 1_555 1_555
O4A Co2E 1_555 1_555
O4D Co2 1_555 1_555
O4E Co2A 1_555 1_555
O5A P3 1_555 1_555
O6A Co2D 1_555 1_555
O6E Co2 1_555 1_555
O6D Co2A 1_555 1_555
O7A P3 1_555 1_555
O7E Co2 1_555 1_555
O7D Co2A 1_555 1_555
O8A Co1A 1_555 1_555
O9A P2A 1_555 1_555
O9C Co1 1_555 1_555
O9B Co1A 1_555 1_555
O10A Co1 1_555 1_555
P1 O8 1_555 1_555
Co1A O5A 1_555 1_555
P1A O2A 1_555 1_555
P1A O8A 1_555 1_555
P1A O10A 1_555 1_555
P2A O4A 1_555 1_555
P2A O6A 1_555 1_555

#END
