
#######################################################################
#
#                 Cambridge Crystallographic Data Centre
#                                CCDC 
#
#######################################################################
#
# If this CIF has been generated from an entry in the Cambridge 
# Structural Database, then it will include bibliographic, chemical, 
# crystal, experimental, refinement or atomic coordinate data resulting 
# from the CCDC's data processing and validation procedures.
#
#######################################################################

data_BEFNIL
_chemical_formula_moiety         '(H4 Al4 O18 P4 2-)n'
_symmetry_cell_setting           tetragonal
_symmetry_space_group_name_H-M   'I -4 2 m'
_symmetry_Int_Tables_number      121
_space_group_name_Hall           'I -4 2'
loop_
_symmetry_equiv_pos_site_id
_symmetry_equiv_pos_as_xyz
1 x,y,z
2 y,-x,-z
3 x,-y,-z
4 -x,-y,z
5 -y,-x,z
6 -y,x,-z
7 -x,y,-z
8 y,x,z
9 1/2+x,1/2+y,1/2+z
10 1/2+y,1/2-x,1/2-z
11 1/2+x,1/2-y,1/2-z
12 1/2-x,1/2-y,1/2+z
13 1/2-y,1/2-x,1/2+z
14 1/2-y,1/2+x,1/2-z
15 1/2-x,1/2+y,1/2-z
16 1/2+y,1/2+x,1/2+z
_cell_length_a                   10.2400(3)
_cell_length_b                   10.2400(3)
_cell_length_c                   9.6523(5)
_cell_angle_alpha                90
_cell_angle_beta                 90
_cell_angle_gamma                90
_cell_volume                     1012.12
loop_
_atom_site_label
_atom_site_type_symbol
_atom_site_fract_x
_atom_site_fract_y
_atom_site_fract_z
_atom_site_U_iso_or_equiv
_atom_site_thermal_displace_type
O2 O 0.5000 0.5000 0.5000 0.1030 Uiso
Al1 Al 0.6332(2) 0.3668(2) 0.1316(3) 0.0480 Uiso
P1 P 0.6647(3) 0.3353(3) -0.1909(5) 0.0540 Uiso
O3 O 0.6999(10) 0.3001(10) -0.0445(13) 0.0690 Uiso
O4 O 0.6965(11) 0.4818(10) -0.2181(9) 0.0760 Uiso
O5 O 0.7413(22) 0.2587(22) -0.2954(22) 0.1400 Uiso
Al1A Al 0.3668(2) 0.3668(2) -0.1316(3) 0.0480 Uiso
Al1K Al 0.8668(2) 0.1332(2) 0.6316(3) 0.0480 Uiso
Al1B Al 0.6332(2) 0.6332(2) -0.1316(3) 0.0480 Uiso
Al1K_2 Al 0.8668(2) 0.1332(2) -0.3684(3) 0.0480 Uiso
Al1J Al 0.1332(2) 0.1332(2) 0.3684(3) 0.0480 Uiso
Al1C Al 0.3668(2) 0.6332(2) 0.1316(3) 0.0480 Uiso
Al1I Al 0.8668(2) -0.1332(2) 0.3684(3) 0.0480 Uiso
Al1J_2 Al 1.1332(2) 0.1332(2) 0.3684(3) 0.0480 Uiso
Al1I_2 Al 0.8668(2) 0.8668(2) 0.3684(3) 0.0480 Uiso
P1A P 0.3353(3) 0.3353(3) 0.1909(5) 0.0540 Uiso
P1K P 0.8353(3) 0.1647(3) 0.3091(5) 0.0540 Uiso
P1B P 0.6647(3) 0.6647(3) 0.1909(5) 0.0540 Uiso
O3A O 0.3001(10) 0.3001(10) 0.0445(13) 0.0690 Uiso
O3K O 0.8001(10) 0.1999(10) 0.4555(13) 0.0690 Uiso
O3B O 0.6999(10) 0.6999(10) 0.0445(13) 0.0690 Uiso
O4D O 0.5182(10) 0.3035(11) -0.2181(9) 0.0760 Uiso
O4A O 0.4818(10) 0.3035(11) 0.2181(9) 0.0760 Uiso
O4F O 0.3035(11) 0.4818(10) 0.2181(9) 0.0760 Uiso
O4K O 0.8035(11) 0.0182(10) 0.2819(9) 0.0760 Uiso
O4O O 0.9818(10) 0.1965(11) 0.2819(9) 0.0760 Uiso
O4B O 0.6965(11) 0.5182(10) 0.2181(9) 0.0760 Uiso
O4E O 0.5182(10) 0.6965(11) 0.2181(9) 0.0760 Uiso
O4C O 0.3035(11) 0.5182(10) -0.2181(9) 0.0760 Uiso
O4M O 1.0182(10) 0.1965(11) 0.7181(9) 0.0760 Uiso
O4N O 0.8035(11) -0.0182(10) 0.7181(9) 0.0760 Uiso
O4G O 0.4818(10) 0.6965(11) -0.2181(9) 0.0760 Uiso
O5A O 0.2587(22) 0.2587(22) 0.2954(22) 0.1400 Uiso
O5K O 0.7587(22) 0.2413(22) 0.2046(22) 0.1400 Uiso
O5B O 0.7413(22) 0.7413(22) 0.2954(22) 0.1400 Uiso
O5J O 0.2413(22) 0.2413(22) -0.2046(22) 0.1400 Uiso
O5_2 O 0.7413(22) 0.2587(22) 0.7046(22) 0.1400 Uiso
O5I O 0.7587(22) 0.7587(22) -0.2046(22) 0.1400 Uiso
O1 O 0.5000 0.5000 0.0000 0.0620 Uiso
loop_
_geom_bond_atom_site_label_1
_geom_bond_atom_site_label_2
_geom_bond_site_symmetry_1
_geom_bond_site_symmetry_2
Al1 O3 1_555 1_555
P1 O3 1_555 1_555
O4 P1 1_555 1_555
O5 P1 1_555 1_555
Al1A O3A 1_555 1_555
Al1K O3K 1_555 1_555
Al1B O4 1_555 1_555
Al1K_2 O5 1_555 1_555
Al1J O5A 1_555 1_555
Al1C O4F 1_555 1_555
Al1I O4K 1_555 1_555
Al1J_2 O4O 1_555 1_555
Al1I_2 O5B 1_555 1_555
P1A O3A 1_555 1_555
P1K O3K 1_555 1_555
P1B O3B 1_555 1_555
O3B Al1B 1_555 1_555
O4D P1 1_555 1_555
O4A Al1 1_555 1_555
O4F P1A 1_555 1_555
O4K P1K 1_555 1_555
O4O P1K 1_555 1_555
O4B Al1 1_555 1_555
O4E Al1C 1_555 1_555
O4C Al1A 1_555 1_555
O4M Al1K 1_555 1_555
O4N Al1K 1_555 1_555
O4G Al1B 1_555 1_555
O5A P1A 1_555 1_555
O5K Al1 1_555 1_555
O5B P1B 1_555 1_555
O5J Al1A 1_555 1_555
O5_2 Al1K 1_555 1_555
O5I Al1B 1_555 1_555
Al1A O4D 1_555 1_555
P1A O4A 1_555 1_555
P1K O5K 1_555 1_555
P1B O4B 1_555 1_555
P1B O4E 1_555 1_555

#END
