
#######################################################################
#
#                 Cambridge Crystallographic Data Centre
#                                CCDC 
#
#######################################################################
#
# If this CIF has been generated from an entry in the Cambridge 
# Structural Database, then it will include bibliographic, chemical, 
# crystal, experimental, refinement or atomic coordinate data resulting 
# from the CCDC's data processing and validation procedures.
#
#######################################################################

data_BEFNOR
_chemical_formula_moiety         'H4 Al12 N1 O27 P4 1+'
_symmetry_cell_setting           orthorhombic
_symmetry_space_group_name_H-M   'P b c m'
_symmetry_Int_Tables_number      57
_space_group_name_Hall           '-P 2c 2b'
loop_
_symmetry_equiv_pos_site_id
_symmetry_equiv_pos_as_xyz
1 x,y,z
2 -x,-y,1/2+z
3 x,1/2-y,-z
4 -x,1/2+y,1/2-z
5 -x,-y,-z
6 x,y,1/2-z
7 -x,1/2+y,z
8 x,1/2-y,1/2+z
_cell_length_a                   8.910(2)
_cell_length_b                   14.974(3)
_cell_length_c                   14.712(2)
_cell_angle_alpha                90
_cell_angle_beta                 90
_cell_angle_gamma                90
_cell_volume                     1962.85
loop_
_atom_site_label
_atom_site_type_symbol
_atom_site_fract_x
_atom_site_fract_y
_atom_site_fract_z
_atom_site_U_iso_or_equiv
_atom_site_thermal_displace_type
Al1 Al 0.6723(7) 0.0076(4) 0.2500 0.0280 Uiso
Al2 Al 0.8432(6) 0.3453(3) 0.1169(3) 0.0310 Uiso
Al3 Al 0.9138(12) -0.3676(6) 0.2500 0.0410 Uiso
P1 P 0.3162(13) -0.0251(7) 0.2500 0.0170 Uiso
P2 P 0.8705(14) -0.1655(7) 0.2500 0.0270 Uiso
P3 P 0.8304(10) 0.1347(5) 0.1027(5) 0.0310 Uiso
O1 O 0.7651(23) 0.2260(14) 0.1211(14) 0.0440 Uiso
O2 O 0.8133(33) -0.2614(19) 0.2500 0.0410 Uiso
O3 O 0.9575(22) -0.1469(13) 0.3355(13) 0.0400 Uiso
O4 O 0.7263(43) -0.1119(25) 0.2500 0.0770 Uiso
O5 O 0.7280(25) 0.0655(14) 0.1362(14) 0.0520 Uiso
O6 O 0.8572(29) 0.1167(18) 0.0057(17) 0.0770 Uiso
O7 O 0.4616(41) 0.0270(24) 0.2500 0.0700 Uiso
O8 O 0.2996(41) -0.0797(25) 0.3262(26) 0.1420 Uiso
O9 O 0.9780(30) 0.1270(17) 0.1495(18) 0.0750 Uiso
O10 O 0.2040(41) 0.0414(24) 0.2161(21) 0.0340 Uiso
Al2E Al 0.8432(6) 0.3453(3) 0.3831(3) 0.0310 Uiso
Al2C Al 1.1568(6) -0.1547(3) 0.3831(3) 0.0310 Uiso
Al2B Al 0.8432(6) 0.1547(3) -0.1169(3) 0.0310 Uiso
Al2C_2 Al 0.1568(6) -0.1547(3) 0.3831(3) 0.0310 Uiso
Al2F Al 0.1568(6) -0.1547(3) 0.1169(3) 0.0310 Uiso
Al2F_2 Al 1.1568(6) -0.1547(3) 0.1169(3) 0.0310 Uiso
Al2G Al 0.8432(6) 0.1547(3) 0.6169(3) 0.0310 Uiso
Al3C Al 1.0862(12) 0.1324(6) 0.2500 0.0410 Uiso
Al3C_2 Al 0.0862(12) 0.1324(6) 0.2500 0.0410 Uiso
P3E P 0.8304(10) 0.1347(5) 0.3973(5) 0.0310 Uiso
O1E O 0.7651(23) 0.2260(14) 0.3789(14) 0.0440 Uiso
O3E O 0.9575(22) -0.1469(13) 0.1645(13) 0.0400 Uiso
O3C O 1.0425(22) 0.3531(13) 0.1645(13) 0.0400 Uiso
O3F O 1.0425(22) 0.3531(13) 0.3355(13) 0.0400 Uiso
O5E O 0.7280(25) 0.0655(14) 0.3638(14) 0.0520 Uiso
O6E O 0.8572(29) 0.1167(18) 0.4943(17) 0.0770 Uiso
O6B O 0.8572(29) 0.3833(18) -0.0057(17) 0.0770 Uiso
O6G O 0.8572(29) 0.3833(18) 0.5057(17) 0.0770 Uiso
O8E O 0.2996(41) -0.0797(25) 0.1738(26) 0.1420 Uiso
O8C O 0.7004(41) 0.4203(25) 0.1738(26) 0.1420 Uiso
O8F O 0.7004(41) 0.4203(25) 0.3262(26) 0.1420 Uiso
O9E O 0.9780(30) 0.1270(17) 0.3505(18) 0.0750 Uiso
O9C O 1.0220(30) -0.3730(17) 0.3505(18) 0.0750 Uiso
O9F O 1.0220(30) -0.3730(17) 0.1495(18) 0.0750 Uiso
O10E O 0.2040(41) 0.0414(24) 0.2839(21) 0.0340 Uiso
O10C O 0.7960(41) -0.4586(24) 0.2839(21) 0.0340 Uiso
O10F O 0.7960(41) -0.4586(24) 0.2161(21) 0.0340 Uiso
N1 N 1.2108(28) -0.5767(17) 0.5010(16) 0.0390 Uiso
loop_
_geom_bond_atom_site_label_1
_geom_bond_atom_site_label_2
_geom_bond_site_symmetry_1
_geom_bond_site_symmetry_2
Al1 O4 1_555 1_555
Al2 O1 1_555 1_555
Al3 O2 1_555 1_555
P1 O7 1_555 1_555
P2 O2 1_555 1_555
P3 O1 1_555 1_555
O3 P2 1_555 1_555
O4 P2 1_555 1_555
O5 Al1 1_555 1_555
O6 P3 1_555 1_555
O7 Al1 1_555 1_555
O8 P1 1_555 1_555
O9 P3 1_555 1_555
O10 P1 1_555 1_555
Al2E O1E 1_555 1_555
Al2C O3 1_555 1_555
Al2B O6 1_555 1_555
Al2C_2 O8 1_555 1_555
Al2F O8E 1_555 1_555
Al2F_2 O3E 1_555 1_555
Al2G O6E 1_555 1_555
Al3C O9 1_555 1_555
Al3C_2 O10 1_555 1_555
P3E O1E 1_555 1_555
O3E P2 1_555 1_555
O3C Al2 1_555 1_555
O3F Al2E 1_555 1_555
O5E Al1 1_555 1_555
O6E P3E 1_555 1_555
O6B Al2 1_555 1_555
O6G Al2E 1_555 1_555
O8E P1 1_555 1_555
O8C Al2 1_555 1_555
O8F Al2E 1_555 1_555
O9E Al3C 1_555 1_555
O9C Al3 1_555 1_555
O9F Al3 1_555 1_555
O10E P1 1_555 1_555
O10C Al3 1_555 1_555
O10F Al3 1_555 1_555
P3 O5 1_555 1_555
O10 O10E 1_555 1_555
Al3C_2 O10E 1_555 1_555
P3E O5E 1_555 1_555
P3E O9E 1_555 1_555
O10C O10F 1_555 1_555

#END
