
#######################################################################
#
#                 Cambridge Crystallographic Data Centre
#                                CCDC 
#
#######################################################################
#
# If this CIF has been generated from an entry in the Cambridge 
# Structural Database, then it will include bibliographic, chemical, 
# crystal, experimental, refinement or atomic coordinate data resulting 
# from the CCDC's data processing and validation procedures.
#
#######################################################################

data_BEFNEH
_chemical_formula_moiety         '(C3 H14 Co4 Ga1 N2 O21 P5 2-)n'
_symmetry_cell_setting           monoclinic
_symmetry_space_group_name_H-M   'P 21/n'
_symmetry_Int_Tables_number      14
_space_group_name_Hall           '-P 2yn'
loop_
_symmetry_equiv_pos_site_id
_symmetry_equiv_pos_as_xyz
1 x,y,z
2 1/2-x,1/2+y,1/2-z
3 -x,-y,-z
4 1/2+x,1/2-y,1/2+z
_cell_length_a                   12.9228(3)
_cell_length_b                   14.2262(3)
_cell_length_c                   14.1978(2)
_cell_angle_alpha                90
_cell_angle_beta                 92.7950(10)
_cell_angle_gamma                90
_cell_volume                     2607.05
loop_
_atom_site_label
_atom_site_type_symbol
_atom_site_fract_x
_atom_site_fract_y
_atom_site_fract_z
_atom_site_U_iso_or_equiv
_atom_site_thermal_displace_type
Ga1 Ga 0.1089(27) 0.2665(18) 0.6033(21) 0.0180 Uiso
Co1 Co 0.0925(1) 0.2376(1) 0.8717(1) 0.0220 Uiso
Co2 Co 0.0052(1) 0.1263(1) 0.2715(1) 0.0220 Uiso
Co3 Co 0.5131(1) 0.1256(1) 0.7576(1) 0.0270 Uiso
Co4 Co -0.1934(4) 0.2591(5) 0.7256(4) 0.0420 Uiso
P1 P 0.0983(1) 0.2347(1) 1.1035(1) 0.0230 Uiso
P2 P -0.0125(1) 0.1067(1) 0.7136(1) 0.0220 Uiso
P3 P -0.0099(1) 0.3936(1) 0.7446(1) 0.0250 Uiso
P4 P 0.1533(1) 0.2528(1) 0.3922(1) 0.0260 Uiso
P5 P 0.3061(1) 0.2462(1) 0.7753(1) 0.0280 Uiso
O1 O 0.0802(4) 0.1456(4) 1.1606(3) 0.0410 Uiso
O2 O 0.0627(4) 0.1268(3) 0.7977(3) 0.0340 Uiso
O3 O 0.0606(4) 0.1870(4) 0.3825(3) 0.0360 Uiso
O4 O -0.1121(4) 0.3674(4) 0.6917(3) 0.0380 Uiso
O5 O 0.2363(4) 0.2593(4) 0.8587(3) 0.0420 Uiso
O6 O 0.0812(4) 0.3701(4) 0.6855(4) 0.0420 Uiso
O7 O -0.0017(4) 0.3370(4) 0.8369(3) 0.0390 Uiso
O8 O 0.0215(4) 0.1560(4) 0.6247(3) 0.0350 Uiso
O9 O 0.2121(4) 0.2604(5) 1.1161(4) 0.0530 Uiso
O10 O 0.3835(4) 0.1688(4) 0.8045(4) 0.0450 Uiso
O11 O -0.1219(4) 0.1383(4) 0.7332(4) 0.0430 Uiso
O12 O 0.1254(4) 0.3480(4) 0.3471(4) 0.0480 Uiso
O13 O 0.2459(4) 0.2114(5) 0.3429(4) 0.0510 Uiso
O14 O 0.0675(4) 0.2155(4) 1.0009(3) 0.0400 Uiso
O15 O 0.3617(4) 0.3395(4) 0.7621(4) 0.0450 Uiso
O16 O 0.2455(4) 0.2183(5) 0.6860(4) 0.0510 Uiso
O17 O 0.0298(4) 0.3135(4) 1.1380(4) 0.0460 Uiso
O18 O 0.1865(4) 0.2649(4) 0.4956(3) 0.0420 Uiso
O19 O -0.0157(6) 0.0023(4) 0.6939(5) 0.0610 Uiso
O20 O -0.0087(6) 0.4959(4) 0.7709(4) 0.0670 Uiso
Co2_2 Co 0.0052(1) 0.1263(1) 1.2715(1) 0.0220 Uiso
Co2C Co 0.5052(1) 0.3737(1) 0.7715(1) 0.0220 Uiso
Co2B Co -0.0052(1) -0.1263(1) 0.7285(1) 0.0220 Uiso
Co3C Co 0.0131(1) 0.3744(1) 0.2576(1) 0.0270 Uiso
Co3C_2 Co 0.0131(1) 0.3744(1) 1.2576(1) 0.0270 Uiso
Co3A Co -0.0131(1) 0.6256(1) 0.7424(1) 0.0270 Uiso
Co4C Co 0.3066(4) 0.2409(5) 1.2256(4) 0.0420 Uiso
Co4C_2 Co 0.3066(4) 0.2409(5) 0.2256(4) 0.0420 Uiso
O1_2 O 0.0802(4) 0.1456(4) 0.1606(3) 0.0410 Uiso
O9C O -0.2879(4) 0.2396(5) 0.6161(4) 0.0530 Uiso
O12C O 0.6254(4) 0.1520(4) 0.8471(4) 0.0480 Uiso
O13C O -0.2541(4) 0.2886(5) 0.8429(4) 0.0510 Uiso
O15C O -0.1383(4) 0.1605(4) 0.2621(4) 0.0450 Uiso
O17C O 0.5298(4) 0.1865(4) 0.6380(4) 0.0460 Uiso
O19B O 0.0157(6) -0.0023(4) 0.3061(5) 0.0610 Uiso
O20A O 0.5087(6) -0.0041(4) 0.7291(4) 0.0670 Uiso
N1 N 0.3710(5) 0.1400(5) 0.5020(5) 0.0520 Uiso
C1 C 0.3588(12) 0.0348(11) 0.5024(11) 0.1100 Uiso
C2 C 0.2700(12) 0.0067(11) 0.5624(11) 0.1070 Uiso
C3 C 0.1675(13) -0.0251(12) 0.5175(11) 0.1130 Uiso
N2 N 0.1590(9) -0.1271(8) 0.5003(7) 0.0970 Uiso
O21 O -0.0369(9) 0.3195(8) 0.5158(6) 0.1290 Uiso
loop_
_geom_bond_atom_site_label_1
_geom_bond_atom_site_label_2
_geom_bond_site_symmetry_1
_geom_bond_site_symmetry_2
Ga1 O6 1_555 1_555
Co1 O2 1_555 1_555
Co2 O3 1_555 1_555
Co3 O10 1_555 1_555
Co4 O4 1_555 1_555
P1 O1 1_555 1_555
P2 O2 1_555 1_555
P3 O4 1_555 1_555
P4 O3 1_555 1_555
P5 O5 1_555 1_555
O1 Co2_2 1_555 1_555
O5 Co1 1_555 1_555
O6 P3 1_555 1_555
O7 Co1 1_555 1_555
O8 Ga1 1_555 1_555
O9 P1 1_555 1_555
O10 P5 1_555 1_555
O11 Co4 1_555 1_555
O12 P4 1_555 1_555
O13 P4 1_555 1_555
O14 Co1 1_555 1_555
O15 P5 1_555 1_555
O16 Ga1 1_555 1_555
O17 P1 1_555 1_555
O18 Ga1 1_555 1_555
O19 P2 1_555 1_555
O20 P3 1_555 1_555
N1 C1 1_555 1_555
C1 C2 1_555 1_555
C2 C3 1_555 1_555
C3 N2 1_555 1_555
Co2C O15 1_555 1_555
Co2B O19 1_555 1_555
Co3C O12 1_555 1_555
Co3C_2 O17 1_555 1_555
Co3A O20 1_555 1_555
Co4C O9 1_555 1_555
Co4C_2 O13 1_555 1_555
O1_2 Co2 1_555 1_555
O9C Co4 1_555 1_555
O12C Co3 1_555 1_555
O13C Co4 1_555 1_555
O15C Co2 1_555 1_555
O17C Co3 1_555 1_555
O19B Co2 1_555 1_555
O20A Co3 1_555 1_555
P1 O14 1_555 1_555
P2 O8 1_555 1_555
P2 O11 1_555 1_555
P3 O7 1_555 1_555
P4 O18 1_555 1_555
P5 O16 1_555 1_555

#END
