
#######################################################################
#
#                 Cambridge Crystallographic Data Centre
#                                CCDC 
#
#######################################################################
#
# If this CIF has been generated from an entry in the Cambridge 
# Structural Database, then it will include bibliographic, chemical, 
# crystal, experimental, refinement or atomic coordinate data resulting 
# from the CCDC's data processing and validation procedures.
#
#######################################################################

data_FIHFAF
_chemical_formula_moiety         '(C36 H40 Co5 N26 O14)n'
_symmetry_cell_setting           triclinic
_symmetry_space_group_name_H-M   'P -1'
_symmetry_Int_Tables_number      2
_space_group_name_Hall           '-P 1'
loop_
_symmetry_equiv_pos_site_id
_symmetry_equiv_pos_as_xyz
1 x,y,z
2 -x,-y,-z
_cell_length_a                   9.275(5)
_cell_length_b                   12.922(7)
_cell_length_c                   14.564(8)
_cell_angle_alpha                105.060(9)
_cell_angle_beta                 97.194(10)
_cell_angle_gamma                96.254(10)
_cell_volume                     1653.96
loop_
_atom_site_label
_atom_site_type_symbol
_atom_site_fract_x
_atom_site_fract_y
_atom_site_fract_z
C1 C 1.1824(8) 0.4784(5) 0.2227(5)
C2 C 1.2590(7) 0.5907(5) 0.2803(4)
C3 C 1.3092(7) 0.6636(5) 0.2332(5)
H1 H 1.2993 0.6438 0.1663
C4 C 1.3754(8) 0.7680(5) 0.2870(5)
C5 C 1.3904(8) 0.7943(5) 0.3840(5)
H2 H 1.4333 0.8639 0.4197
C6 C 1.3429(8) 0.7193(5) 0.4320(5)
C7 C 1.2781(8) 0.6176(5) 0.3800(5)
H3 H 1.2470 0.5668 0.4111
C8 C 1.3655(8) 0.7509(6) 0.5395(5)
C9 C 1.4326(8) 0.8495(5) 0.2363(5)
C10 C 1.0342(8) 0.2889(5) -0.0885(5)
C11 C 0.9783(9) 0.1198(6) -0.1619(5)
H4 H 0.9556 0.0550 -0.2107
C12 C 1.3279(7) 0.2144(5) 0.2182(5)
C13 C 1.2929(8) 0.0530(5) 0.1323(5)
H5 H 1.3062 -0.0187 0.1076
C14 C 0.7620(8) 0.0278(5) 0.1352(5)
C15 C 0.8079(7) 0.1932(5) 0.2163(5)
H6 H 0.8067 0.2587 0.2614
C16 C 0.7438(9) 0.3518(6) 0.0720(5)
H7 H 0.7358 0.2897 0.0210
C17 C 0.6264(14) 0.4827(10) 0.1738(9)
H8 H 0.7090 0.4850 0.2215
H9 H 0.5374 0.4759 0.2004
H10 H 0.6361 0.5482 0.1542
C18 C 0.4787(11) 0.3429(12) 0.0335(10)
H11 H 0.4407 0.3940 0.0029
H12 H 0.4121 0.3243 0.0741
H13 H 0.4891 0.2788 -0.0148
Co1 Co 1.0000 0.0000 0.0000
Co2 Co 0.55472(9) 0.08115(6) 0.28209(6)
Co3 Co 1.04706(10) 0.29721(6) 0.12683(6)
N1 N 0.8942(6) 0.1805(4) 0.1508(4)
N2 N 0.8645(6) 0.0732(4) 0.0971(4)
N3 N 0.7208(6) 0.1001(4) 0.2107(4)
N4 N 0.6995(9) -0.0800(5) 0.1023(6)
H14 H 0.7271 -0.1222 0.0537
H15 H 0.6329 -0.1047 0.1304
N5 N 0.9876(6) 0.1270(4) -0.0711(4)
N6 N 1.0227(6) 0.2357(4) -0.0218(4)
N7 N 1.0059(7) 0.2181(5) -0.1766(4)
N8 N 1.0691(9) 0.3950(5) -0.0699(5)
H16 H 1.0862 0.4350 -0.0113
H17 H 1.0746 0.4241 -0.1165
N9 N 1.1876(6) 0.0937(4) 0.0971(4)
N10 N 1.2064(6) 0.2024(4) 0.1511(4)
N11 N 1.3841(6) 0.1221(4) 0.2087(4)
N12 N 1.3821(8) 0.3098(5) 0.2850(5)
H18 H 1.4594 0.3143 0.3260
H19 H 1.3392 0.3658 0.2863
N13 N 0.6217(8) 0.3911(6) 0.0916(5)
O1 O 1.1803(5) 0.4472(4) 0.1333(3)
O2 O 1.1213(5) 0.4174(3) 0.2657(3)
O3 O 1.5024(6) 0.9374(4) 0.2936(4)
O4 O 1.4107(7) 0.8278(4) 0.1487(4)
O5 O 1.4045(6) 0.8520(4) 0.5807(3)
O6 O 1.3468(7) 0.6816(4) 0.5829(4)
O7 O 0.8668(6) 0.3920(4) 0.1168(4)
C1A C 0.8176(8) -0.4784(5) -0.2227(5)
C2A C 0.7410(7) -0.5907(5) -0.2803(4)
C3A C 0.6908(7) -0.6636(5) -0.2332(5)
H1A H 0.7007 -0.6438 -0.1663
C4A C 0.6246(8) -0.7680(5) -0.2870(5)
C5A C 0.6096(8) -0.7943(5) -0.3840(5)
H2A H 0.5667 -0.8639 -0.4197
C6A C 0.6571(8) -0.7193(5) -0.4320(5)
C7A C 0.7219(8) -0.6176(5) -0.3800(5)
H3A H 0.7530 -0.5668 -0.4111
C8A C 0.6345(8) -0.7509(6) -0.5395(5)
C9A C 0.5674(8) -0.8495(5) -0.2363(5)
C10A C 0.9658(8) -0.2889(5) 0.0885(5)
C11A C 1.0217(9) -0.1198(6) 0.1619(5)
H4A H 1.0444 -0.0550 0.2107
C12A C 0.6721(7) -0.2144(5) -0.2182(5)
C13A C 0.7071(8) -0.0530(5) -0.1323(5)
H5A H 0.6938 0.0187 -0.1076
C14A C 1.2380(8) -0.0278(5) -0.1352(5)
C15A C 1.1921(7) -0.1932(5) -0.2163(5)
H6A H 1.1933 -0.2587 -0.2614
C16A C 1.2562(9) -0.3518(6) -0.0720(5)
H7A H 1.2642 -0.2897 -0.0210
C17A C 1.3736(14) -0.4827(10) -0.1738(9)
H8A H 1.2910 -0.4850 -0.2215
H9A H 1.4626 -0.4759 -0.2004
H10A H 1.3639 -0.5482 -0.1542
C18A C 1.5213(11) -0.3429(12) -0.0335(10)
H11A H 1.5593 -0.3940 -0.0029
H12A H 1.5879 -0.3243 -0.0741
H13A H 1.5109 -0.2788 0.0148
Co2A Co 1.44528(9) -0.08115(6) -0.28209(6)
Co3A Co 0.95294(10) -0.29721(6) -0.12683(6)
N1A N 1.1058(6) -0.1805(4) -0.1508(4)
N2A N 1.1355(6) -0.0732(4) -0.0971(4)
N3A N 1.2792(6) -0.1001(4) -0.2107(4)
N4A N 1.3005(9) 0.0800(5) -0.1023(6)
H14A H 1.2729 0.1222 -0.0537
H15A H 1.3671 0.1047 -0.1304
N5A N 1.0124(6) -0.1270(4) 0.0711(4)
N6A N 0.9773(6) -0.2357(4) 0.0218(4)
N7A N 0.9941(7) -0.2181(5) 0.1766(4)
N8A N 0.9309(9) -0.3950(5) 0.0699(5)
H16A H 0.9138 -0.4350 0.0113
H17A H 0.9254 -0.4241 0.1165
N9A N 0.8124(6) -0.0937(4) -0.0971(4)
N10A N 0.7936(6) -0.2024(4) -0.1511(4)
N11A N 0.6159(6) -0.1221(4) -0.2087(4)
N12A N 0.6179(8) -0.3098(5) -0.2850(5)
H18A H 0.5406 -0.3143 -0.3260
H19A H 0.6608 -0.3658 -0.2863
N13A N 1.3783(8) -0.3911(6) -0.0916(5)
O1A O 0.8197(5) -0.4472(4) -0.1333(3)
O2A O 0.8787(5) -0.4174(3) -0.2657(3)
O3A O 0.4976(6) -0.9374(4) -0.2936(4)
O4A O 0.5893(7) -0.8278(4) -0.1487(4)
O5A O 0.5955(6) -0.8520(4) -0.5807(3)
O6A O 0.6532(7) -0.6816(4) -0.5829(4)
O7A O 1.1332(6) -0.3920(4) -0.1168(4)
Co2_2 Co 0.55472(9) -0.91885(6) -0.71791(6)
Co2_3 Co 1.55472(9) 0.08115(6) 0.28209(6)
Co2_4 Co 1.55472(9) 1.08115(6) 0.28209(6)
Co2A_2 Co 0.44528(9) -1.08115(6) -0.28209(6)
Co2A_3 Co 0.44528(9) -0.08115(6) -0.28209(6)
Co2A_4 Co 1.44528(9) 0.91885(6) 0.71791(6)
N11_2 N 0.3841(6) 0.1221(4) 0.2087(4)
N11A_2 N 1.6159(6) -0.1221(4) -0.2087(4)
O3_2 O 0.5024(6) -0.0626(4) 0.2936(4)
O3A_2 O 1.4976(6) 0.0626(4) -0.2936(4)
O5_2 O 1.4045(6) -0.1480(4) -0.4193(3)
O5A_2 O 0.5955(6) 0.1480(4) 0.4193(3)
loop_
_geom_bond_atom_site_label_1
_geom_bond_atom_site_label_2
_geom_bond_site_symmetry_1
_geom_bond_site_symmetry_2
C1 C2 1_555 1_555
C2 C3 1_555 1_555
C3 H1 1_555 1_555
C4 C3 1_555 1_555
C5 C4 1_555 1_555
H2 C5 1_555 1_555
C6 C5 1_555 1_555
C7 C2 1_555 1_555
H3 C7 1_555 1_555
C8 C6 1_555 1_555
C9 C4 1_555 1_555
C10 N6 1_555 1_555
C11 H4 1_555 1_555
C12 N10 1_555 1_555
C13 H5 1_555 1_555
C14 N2 1_555 1_555
C15 H6 1_555 1_555
C16 H7 1_555 1_555
C17 H8 1_555 1_555
H9 C17 1_555 1_555
H10 C17 1_555 1_555
C18 H11 1_555 1_555
H12 C18 1_555 1_555
H13 C18 1_555 1_555
Co1 N2 1_555 1_555
Co2 N3 1_555 1_555
Co3 N1 1_555 1_555
N1 C15 1_555 1_555
N2 N1 1_555 1_555
N3 C14 1_555 1_555
N4 C14 1_555 1_555
H14 N4 1_555 1_555
H15 N4 1_555 1_555
N5 C11 1_555 1_555
N6 Co3 1_555 1_555
N7 C10 1_555 1_555
N8 C10 1_555 1_555
H16 N8 1_555 1_555
H17 N8 1_555 1_555
N9 C13 1_555 1_555
N10 Co3 1_555 1_555
N11 C12 1_555 1_555
N12 C12 1_555 1_555
H18 N12 1_555 1_555
H19 N12 1_555 1_555
N13 C16 1_555 1_555
O1 C1 1_555 1_555
O2 C1 1_555 1_555
O3 C9 1_555 1_555
O4 C9 1_555 1_555
O5 C8 1_555 1_555
O6 C8 1_555 1_555
O7 C16 1_555 1_555
C1A C2A 1_555 1_555
C2A C3A 1_555 1_555
C3A H1A 1_555 1_555
C4A C3A 1_555 1_555
C5A C4A 1_555 1_555
H2A C5A 1_555 1_555
C6A C5A 1_555 1_555
C7A C2A 1_555 1_555
H3A C7A 1_555 1_555
C8A C6A 1_555 1_555
C9A C4A 1_555 1_555
C10A N6A 1_555 1_555
C11A H4A 1_555 1_555
C12A N10A 1_555 1_555
C13A H5A 1_555 1_555
C14A N2A 1_555 1_555
C15A H6A 1_555 1_555
C16A H7A 1_555 1_555
C17A H8A 1_555 1_555
H9A C17A 1_555 1_555
H10A C17A 1_555 1_555
C18A H11A 1_555 1_555
H12A C18A 1_555 1_555
H13A C18A 1_555 1_555
Co2A N3A 1_555 1_555
Co3A N1A 1_555 1_555
N1A C15A 1_555 1_555
N2A Co1 1_555 1_555
N3A C14A 1_555 1_555
N4A C14A 1_555 1_555
H14A N4A 1_555 1_555
H15A N4A 1_555 1_555
N5A Co1 1_555 1_555
N6A Co3A 1_555 1_555
N7A C10A 1_555 1_555
N8A C10A 1_555 1_555
H16A N8A 1_555 1_555
H17A N8A 1_555 1_555
N9A Co1 1_555 1_555
N10A Co3A 1_555 1_555
N11A C12A 1_555 1_555
N12A C12A 1_555 1_555
H18A N12A 1_555 1_555
H19A N12A 1_555 1_555
N13A C16A 1_555 1_555
O1A C1A 1_555 1_555
O2A C1A 1_555 1_555
O3A C9A 1_555 1_555
O4A C9A 1_555 1_555
O5A C8A 1_555 1_555
O6A C8A 1_555 1_555
O7A C16A 1_555 1_555
Co2_2 O5A 1_555 1_555
Co2_3 N11 1_555 1_555
Co2_4 O3 1_555 1_555
Co2A_2 O3A 1_555 1_555
Co2A_3 N11A 1_555 1_555
Co2A_4 O5 1_555 1_555
N11_2 Co2 1_555 1_555
N11A_2 Co2A 1_555 1_555
O3_2 Co2 1_555 1_555
O3A_2 Co2A 1_555 1_555
O5_2 Co2A 1_555 1_555
O5A_2 Co2 1_555 1_555
C6 C7 1_555 1_555
C11 N7 1_555 1_555
C13 N11 1_555 1_555
C15 N3 1_555 1_555
C17 N13 1_555 1_555
C18 N13 1_555 1_555
Co1 N5 1_555 1_555
Co1 N9 1_555 1_555
Co3 O1 1_555 1_555
Co3 O2 1_555 1_555
Co3 O7 1_555 1_555
N5 N6 1_555 1_555
N9 N10 1_555 1_555
C6A C7A 1_555 1_555
C11A N5A 1_555 1_555
C11A N7A 1_555 1_555
C13A N9A 1_555 1_555
C13A N11A 1_555 1_555
C15A N3A 1_555 1_555
C17A N13A 1_555 1_555
C18A N13A 1_555 1_555
Co3A O1A 1_555 1_555
Co3A O2A 1_555 1_555
Co3A O7A 1_555 1_555
N1A N2A 1_555 1_555
N5A N6A 1_555 1_555
N9A N10A 1_555 1_555

#END
