
#######################################################################
#
#                 Cambridge Crystallographic Data Centre
#                                CCDC 
#
#######################################################################
#
# If this CIF has been generated from an entry in the Cambridge 
# Structural Database, then it will include bibliographic, chemical, 
# crystal, experimental, refinement or atomic coordinate data resulting 
# from the CCDC's data processing and validation procedures.
#
#######################################################################

data_SOSSEA
_chemical_formula_moiety         '(C120 H84 Cd4 N18 O6)n'
_symmetry_cell_setting           rhombohedral
_symmetry_space_group_name_H-M   'R -3'
_symmetry_Int_Tables_number      148
_space_group_name_Hall           '-R 3'
loop_
_symmetry_equiv_pos_site_id
_symmetry_equiv_pos_as_xyz
1 x,y,z
2 -y,x-y,z
3 -x+y,-x,z
4 2/3+x,1/3+y,1/3+z
5 2/3-y,1/3+x-y,1/3+z
6 2/3-x+y,1/3-x,1/3+z
7 1/3+x,2/3+y,2/3+z
8 1/3-y,2/3+x-y,2/3+z
9 1/3-x+y,2/3-x,2/3+z
10 -x,-y,-z
11 y,-x+y,-z
12 x-y,x,-z
13 1/3-x,2/3-y,2/3-z
14 1/3+y,2/3-x+y,2/3-z
15 1/3+x-y,2/3+x,2/3-z
16 2/3-x,1/3-y,1/3-z
17 2/3+y,1/3-x+y,1/3-z
18 2/3+x-y,1/3+x,1/3-z
_cell_length_a                   30.7574(16)
_cell_length_b                   30.7574(16)
_cell_length_c                   12.1006(12)
_cell_angle_alpha                90
_cell_angle_beta                 90
_cell_angle_gamma                120
_cell_volume                     9913.72
loop_
_atom_site_label
_atom_site_type_symbol
_atom_site_fract_x
_atom_site_fract_y
_atom_site_fract_z
Cd1 Cd -0.1667 0.1667 0.1667
O1 O -0.16329(5) 0.09675(5) 0.16107(12)
N1 N -0.23138(6) 0.10724(6) 0.28348(16)
C1 C -0.27171(13) 0.15673(13) 0.3151(3)
H1 H -0.2493 0.1762 0.2567
H2 H -0.2641 0.1770 0.3803
H3 H -0.3057 0.1455 0.2929
Cd2 Cd 0.0000 0.0000 0.0000
N2 N -0.05645(6) 0.01495(6) 0.10547(14)
C2 C -0.26567(10) 0.11221(10) 0.3390(2)
N3 N -0.30362(8) -0.11170(8) 0.67838(17)
C3 C -0.29515(13) 0.07732(12) 0.4201(3)
H4 H -0.3196 0.0810 0.4572
C4 C -0.28810(12) 0.03831(12) 0.4446(3)
H5 H -0.3074 0.0157 0.4995
C5 C -0.25178(8) 0.03171(8) 0.3876(2)
C6 C -0.22456(7) 0.06759(7) 0.30480(17)
C7 C -0.18620(7) 0.06480(7) 0.23878(16)
C8 C -0.17525(7) 0.02678(7) 0.26643(17)
C9 C -0.20229(8) -0.00715(8) 0.35160(18)
H6 H -0.1942 -0.0318 0.3684
C10 C -0.23969(9) -0.00647(8) 0.4116(2)
C11 C -0.13442(7) 0.02338(7) 0.20984(17)
C12 C -0.12026(8) 0.03849(7) 0.10065(17)
H7 H -0.1366 0.0518 0.0601
C13 C -0.08218(8) 0.03374(8) 0.05287(18)
H8 H -0.0737 0.0441 -0.0200
C14 C -0.07029(8) 0.00037(9) 0.2090(2)
H9 H -0.0536 -0.0131 0.2473
C15 C -0.10777(9) 0.00388(9) 0.2637(2)
H10 H -0.1153 -0.0068 0.3367
C16 C -0.26355(9) -0.04299(9) 0.5027(2)
C17 C -0.23155(12) -0.04956(13) 0.5787(3)
H11 H -0.1968 -0.0309 0.5712
C18 C -0.25286(13) -0.08384(13) 0.6626(3)
H12 H -0.2319 -0.0883 0.7108
C19 C -0.33148(13) -0.10397(14) 0.6119(3)
H13 H -0.3660 -0.1218 0.6235
C20 C -0.31343(13) -0.07065(14) 0.5237(3)
H14 H -0.3360 -0.0673 0.4783
Cd1A Cd -0.1667 -0.3334 0.1667
O1A O -0.09675(5) -0.26004(7) 0.16107(12)
N1A N -0.10724(6) -0.33862(8) 0.28348(16)
C1A C -0.15673(13) -0.42844(18) 0.3151(3)
H1A H -0.1762 -0.4255 0.2567
H2A H -0.1770 -0.4411 0.3803
H3A H -0.1455 -0.4512 0.2929
N2A N -0.01495(6) -0.07140(8) 0.10547(14)
C2A C -0.11221(10) -0.37788(14) 0.3390(2)
N3A N 0.11170(8) -0.19192(11) 0.67838(17)
C3A C -0.07732(12) -0.37247(18) 0.4201(3)
H4A H -0.0810 -0.4006 0.4572
C4A C -0.03831(12) -0.32641(17) 0.4446(3)
H5A H -0.0157 -0.3231 0.4995
C5A C -0.03171(8) -0.28349(11) 0.3876(2)
C6A C -0.06759(7) -0.29215(10) 0.30480(17)
C7A C -0.06480(7) -0.25100(10) 0.23878(16)
C8A C -0.02678(7) -0.20203(10) 0.26643(17)
C9A C 0.00715(8) -0.19514(11) 0.35160(18)
H6A H 0.0318 -0.1624 0.3684
C10A C 0.00647(8) -0.23322(12) 0.4116(2)
C11A C -0.02338(7) -0.15780(10) 0.20984(17)
C12A C -0.03849(7) -0.15875(11) 0.10065(17)
H7A H -0.0518 -0.1884 0.0601
C13A C -0.03374(8) -0.11592(11) 0.05287(18)
H8A H -0.0441 -0.1178 -0.0200
C14A C -0.00037(9) -0.07066(12) 0.2090(2)
H9A H 0.0131 -0.0405 0.2473
C15A C -0.00388(9) -0.11165(13) 0.2637(2)
H10A H 0.0068 -0.1085 0.3367
C16A C 0.04299(9) -0.22056(13) 0.5027(2)
C17A C 0.04956(13) -0.18199(18) 0.5787(3)
H11A H 0.0309 -0.1659 0.5712
C18A C 0.08384(13) -0.16902(18) 0.6626(3)
H12A H 0.0883 -0.1436 0.7108
C19A C 0.10397(14) -0.22751(19) 0.6119(3)
H13A H 0.1218 -0.2442 0.6235
C20A C 0.07065(14) -0.24278(19) 0.5237(3)
H14A H 0.0673 -0.2687 0.4783
Cd1B Cd 0.3334 0.1667 0.1667
O1B O 0.26004(7) 0.16329(5) 0.16107(12)
N1B N 0.33862(8) 0.23138(6) 0.28348(16)
C1B C 0.42844(18) 0.27171(13) 0.3151(3)
H1B H 0.4255 0.2493 0.2567
H2B H 0.4411 0.2641 0.3803
H3B H 0.4512 0.3057 0.2929
N2B N 0.07140(8) 0.05645(6) 0.10547(14)
C2B C 0.37788(14) 0.26567(10) 0.3390(2)
N3B N 0.19192(11) 0.30362(8) 0.67838(17)
C3B C 0.37247(18) 0.29515(13) 0.4201(3)
H4B H 0.4006 0.3196 0.4572
C4B C 0.32641(17) 0.28810(12) 0.4446(3)
H5B H 0.3231 0.3074 0.4995
C5B C 0.28349(11) 0.25178(8) 0.3876(2)
C6B C 0.29215(10) 0.22456(7) 0.30480(17)
C7B C 0.25100(10) 0.18620(7) 0.23878(16)
C8B C 0.20203(10) 0.17525(7) 0.26643(17)
C9B C 0.19514(11) 0.20229(8) 0.35160(18)
H6B H 0.1624 0.1942 0.3684
C10B C 0.23322(12) 0.23969(9) 0.4116(2)
C11B C 0.15780(10) 0.13442(7) 0.20984(17)
C12B C 0.15875(11) 0.12026(8) 0.10065(17)
H7B H 0.1884 0.1366 0.0601
C13B C 0.11592(11) 0.08218(8) 0.05287(18)
H8B H 0.1178 0.0737 -0.0200
C14B C 0.07066(12) 0.07029(8) 0.2090(2)
H9B H 0.0405 0.0536 0.2473
C15B C 0.11165(13) 0.10777(9) 0.2637(2)
H10B H 0.1085 0.1153 0.3367
C16B C 0.22056(13) 0.26355(9) 0.5027(2)
C17B C 0.18199(18) 0.23155(12) 0.5787(3)
H11B H 0.1659 0.1968 0.5712
C18B C 0.16902(18) 0.25286(13) 0.6626(3)
H12B H 0.1436 0.2319 0.7108
C19B C 0.22751(19) 0.33148(13) 0.6119(3)
H13B H 0.2442 0.3660 0.6235
C20B C 0.24278(19) 0.31343(13) 0.5237(3)
H14B H 0.2687 0.3360 0.4783
O1I O 0.16329(5) -0.09675(5) -0.16107(12)
N1I N 0.23138(6) -0.10724(6) -0.28348(16)
C1I C 0.27171(13) -0.15673(13) -0.3151(3)
H1I H 0.2493 -0.1762 -0.2567
H2I H 0.2641 -0.1770 -0.3803
H3I H 0.3057 -0.1455 -0.2929
N2I N 0.05645(6) -0.01495(6) -0.10547(14)
C2I C 0.26567(10) -0.11221(10) -0.3390(2)
N3I N 0.30362(8) 0.11170(8) -0.67838(17)
C3I C 0.29515(13) -0.07732(12) -0.4201(3)
H4I H 0.3196 -0.0810 -0.4572
C4I C 0.28810(12) -0.03831(12) -0.4446(3)
H5I H 0.3074 -0.0157 -0.4995
C5I C 0.25178(8) -0.03171(8) -0.3876(2)
C6I C 0.22456(7) -0.06759(7) -0.30480(17)
C7I C 0.18620(7) -0.06480(7) -0.23878(16)
C8I C 0.17525(7) -0.02678(7) -0.26643(17)
C9I C 0.20229(8) 0.00715(8) -0.35160(18)
H6I H 0.1942 0.0318 -0.3684
C10I C 0.23969(9) 0.00647(8) -0.4116(2)
C11I C 0.13442(7) -0.02338(7) -0.20984(17)
C12I C 0.12026(8) -0.03849(7) -0.10065(17)
H7I H 0.1366 -0.0518 -0.0601
C13I C 0.08218(8) -0.03374(8) -0.05287(18)
H8I H 0.0737 -0.0441 0.0200
C14I C 0.07029(8) -0.00037(9) -0.2090(2)
H9I H 0.0536 0.0131 -0.2473
C15I C 0.10777(9) -0.00388(9) -0.2637(2)
H10I H 0.1153 0.0068 -0.3367
C16I C 0.26355(9) 0.04299(9) -0.5027(2)
C17I C 0.23155(12) 0.04956(13) -0.5787(3)
H11I H 0.1968 0.0309 -0.5712
C18I C 0.25286(13) 0.08384(13) -0.6626(3)
H12I H 0.2319 0.0883 -0.7108
C19I C 0.33148(13) 0.10397(14) -0.6119(3)
H13I H 0.3660 0.1218 -0.6235
C20I C 0.31343(13) 0.07065(14) -0.5237(3)
H14I H 0.3360 0.0673 -0.4783
O1J O 0.09675(5) 0.26004(7) -0.16107(12)
N1J N 0.10724(6) 0.33862(8) -0.28348(16)
C1J C 0.15673(13) 0.42844(18) -0.3151(3)
H1J H 0.1762 0.4255 -0.2567
H2J H 0.1770 0.4411 -0.3803
H3J H 0.1455 0.4512 -0.2929
N2J N 0.01495(6) 0.07140(8) -0.10547(14)
C2J C 0.11221(10) 0.37788(14) -0.3390(2)
N3J N -0.11170(8) 0.19192(11) -0.67838(17)
C3J C 0.07732(12) 0.37247(18) -0.4201(3)
H4J H 0.0810 0.4006 -0.4572
C4J C 0.03831(12) 0.32641(17) -0.4446(3)
H5J H 0.0157 0.3231 -0.4995
C5J C 0.03171(8) 0.28349(11) -0.3876(2)
C6J C 0.06759(7) 0.29215(10) -0.30480(17)
C7J C 0.06480(7) 0.25100(10) -0.23878(16)
C8J C 0.02678(7) 0.20203(10) -0.26643(17)
C9J C -0.00715(8) 0.19514(11) -0.35160(18)
H6J H -0.0318 0.1624 -0.3684
C10J C -0.00647(8) 0.23322(12) -0.4116(2)
C11J C 0.02338(7) 0.15780(10) -0.20984(17)
C12J C 0.03849(7) 0.15875(11) -0.10065(17)
H7J H 0.0518 0.1884 -0.0601
C13J C 0.03374(8) 0.11592(11) -0.05287(18)
H8J H 0.0441 0.1178 0.0200
C14J C 0.00037(9) 0.07066(12) -0.2090(2)
H9J H -0.0131 0.0405 -0.2473
C15J C 0.00388(9) 0.11165(13) -0.2637(2)
H10J H -0.0068 0.1085 -0.3367
C16J C -0.04299(9) 0.22056(13) -0.5027(2)
C17J C -0.04956(13) 0.18199(18) -0.5787(3)
H11J H -0.0309 0.1659 -0.5712
C18J C -0.08384(13) 0.16902(18) -0.6626(3)
H12J H -0.0883 0.1436 -0.7108
C19J C -0.10397(14) 0.22751(19) -0.6119(3)
H13J H -0.1218 0.2442 -0.6235
C20J C -0.07065(14) 0.24278(19) -0.5237(3)
H14J H -0.0673 0.2687 -0.4783
O1K O -0.26004(7) -0.16329(5) -0.16107(12)
N1K N -0.33862(8) -0.23138(6) -0.28348(16)
C1K C -0.42844(18) -0.27171(13) -0.3151(3)
H1K H -0.4255 -0.2493 -0.2567
H2K H -0.4411 -0.2641 -0.3803
H3K H -0.4512 -0.3057 -0.2929
N2K N -0.07140(8) -0.05645(6) -0.10547(14)
C2K C -0.37788(14) -0.26567(10) -0.3390(2)
N3K N -0.19192(11) -0.30362(8) -0.67838(17)
C3K C -0.37247(18) -0.29515(13) -0.4201(3)
H4K H -0.4006 -0.3196 -0.4572
C4K C -0.32641(17) -0.28810(12) -0.4446(3)
H5K H -0.3231 -0.3074 -0.4995
C5K C -0.28349(11) -0.25178(8) -0.3876(2)
C6K C -0.29215(10) -0.22456(7) -0.30480(17)
C7K C -0.25100(10) -0.18620(7) -0.23878(16)
C8K C -0.20203(10) -0.17525(7) -0.26643(17)
C9K C -0.19514(11) -0.20229(8) -0.35160(18)
H6K H -0.1624 -0.1942 -0.3684
C10K C -0.23322(12) -0.23969(9) -0.4116(2)
C11K C -0.15780(10) -0.13442(7) -0.20984(17)
C12K C -0.15875(11) -0.12026(8) -0.10065(17)
H7K H -0.1884 -0.1366 -0.0601
C13K C -0.11592(11) -0.08218(8) -0.05287(18)
H8K H -0.1178 -0.0737 0.0200
C14K C -0.07066(12) -0.07029(8) -0.2090(2)
H9K H -0.0405 -0.0536 -0.2473
C15K C -0.11165(13) -0.10777(9) -0.2637(2)
H10K H -0.1085 -0.1153 -0.3367
C16K C -0.22056(13) -0.26355(9) -0.5027(2)
C17K C -0.18199(18) -0.23155(12) -0.5787(3)
H11K H -0.1659 -0.1968 -0.5712
C18K C -0.16902(18) -0.25286(13) -0.6626(3)
H12K H -0.1436 -0.2319 -0.7108
C19K C -0.22751(19) -0.33148(13) -0.6119(3)
H13K H -0.2442 -0.3660 -0.6235
C20K C -0.24278(19) -0.31343(13) -0.5237(3)
H14K H -0.2687 -0.3360 -0.4783
Cd1_2 Cd -0.1667 0.1667 -0.8333
Cd1A_2 Cd -0.1667 -0.3334 -0.8333
Cd1B_2 Cd 0.3334 0.1667 -0.8333
Cd1F Cd 0.1666 -0.1666 -0.1666
Cd1F_2 Cd 0.1666 -0.1666 0.8334
Cd1G Cd 0.1666 0.3333 -0.1666
Cd1G_2 Cd 0.1666 0.3333 0.8334
Cd1H Cd -0.3333 -0.1666 -0.1666
Cd1H_2 Cd -0.3333 -0.1666 0.8334
O1O O -0.17004(5) 0.23658(5) 0.17226(12)
O1P O -0.23658(5) -0.40663(7) 0.17226(12)
O1Q O 0.40663(7) 0.17004(5) 0.17226(12)
N1O N -0.10195(6) 0.22609(6) 0.04985(16)
N1P N -0.22609(6) -0.32805(8) 0.04985(16)
N1Q N 0.32805(8) 0.10195(6) 0.04985(16)
N3C N 0.36305(8) 0.22163(8) 0.01171(17)
N3D N -0.22163(8) 0.14141(11) 0.01171(17)
N3E N -0.14141(11) -0.36305(8) 0.01171(17)
N3I_2 N 0.30362(8) 0.11170(8) 0.32162(17)
N3J_2 N -0.11170(8) 0.19192(11) 0.32162(17)
N3K_2 N -0.19192(11) -0.30362(8) 0.32162(17)
loop_
_geom_bond_atom_site_label_1
_geom_bond_atom_site_label_2
_geom_bond_site_symmetry_1
_geom_bond_site_symmetry_2
Cd1 O1 1_555 1_555
O1 C7 1_555 1_555
N1 Cd1 1_555 1_555
C1 H1 1_555 1_555
H2 C1 1_555 1_555
H3 C1 1_555 1_555
Cd2 N2 1_555 1_555
N2 C13 1_555 1_555
C2 N1 1_555 1_555
N3 C18 1_555 1_555
C3 C2 1_555 1_555
H4 C3 1_555 1_555
C4 C3 1_555 1_555
H5 C4 1_555 1_555
C5 C4 1_555 1_555
C6 N1 1_555 1_555
C7 C6 1_555 1_555
C8 C7 1_555 1_555
C9 C8 1_555 1_555
H6 C9 1_555 1_555
C10 C5 1_555 1_555
C11 C8 1_555 1_555
C12 C11 1_555 1_555
H7 C12 1_555 1_555
C13 C12 1_555 1_555
H8 C13 1_555 1_555
C14 N2 1_555 1_555
H9 C14 1_555 1_555
C15 C11 1_555 1_555
H10 C15 1_555 1_555
C16 C10 1_555 1_555
C17 C16 1_555 1_555
H11 C17 1_555 1_555
C18 C17 1_555 1_555
H12 C18 1_555 1_555
C19 N3 1_555 1_555
H13 C19 1_555 1_555
C20 C16 1_555 1_555
H14 C20 1_555 1_555
Cd1A O1A 1_555 1_555
O1A C7A 1_555 1_555
N1A Cd1A 1_555 1_555
C1A H1A 1_555 1_555
H2A C1A 1_555 1_555
H3A C1A 1_555 1_555
N2A Cd2 1_555 1_555
C2A N1A 1_555 1_555
N3A C18A 1_555 1_555
C3A C2A 1_555 1_555
H4A C3A 1_555 1_555
C4A C3A 1_555 1_555
H5A C4A 1_555 1_555
C5A C4A 1_555 1_555
C6A N1A 1_555 1_555
C7A C6A 1_555 1_555
C8A C7A 1_555 1_555
C9A C8A 1_555 1_555
H6A C9A 1_555 1_555
C10A C5A 1_555 1_555
C11A C8A 1_555 1_555
C12A C11A 1_555 1_555
H7A C12A 1_555 1_555
C13A N2A 1_555 1_555
H8A C13A 1_555 1_555
C14A N2A 1_555 1_555
H9A C14A 1_555 1_555
C15A C11A 1_555 1_555
H10A C15A 1_555 1_555
C16A C10A 1_555 1_555
C17A C16A 1_555 1_555
H11A C17A 1_555 1_555
C18A C17A 1_555 1_555
H12A C18A 1_555 1_555
C19A N3A 1_555 1_555
H13A C19A 1_555 1_555
C20A C16A 1_555 1_555
H14A C20A 1_555 1_555
Cd1B O1B 1_555 1_555
O1B C7B 1_555 1_555
N1B Cd1B 1_555 1_555
C1B H1B 1_555 1_555
H2B C1B 1_555 1_555
H3B C1B 1_555 1_555
N2B Cd2 1_555 1_555
C2B N1B 1_555 1_555
N3B C18B 1_555 1_555
C3B C2B 1_555 1_555
H4B C3B 1_555 1_555
C4B C3B 1_555 1_555
H5B C4B 1_555 1_555
C5B C4B 1_555 1_555
C6B N1B 1_555 1_555
C7B C6B 1_555 1_555
C8B C7B 1_555 1_555
C9B C8B 1_555 1_555
H6B C9B 1_555 1_555
C10B C5B 1_555 1_555
C11B C8B 1_555 1_555
C12B C11B 1_555 1_555
H7B C12B 1_555 1_555
C13B N2B 1_555 1_555
H8B C13B 1_555 1_555
C14B N2B 1_555 1_555
H9B C14B 1_555 1_555
C15B C11B 1_555 1_555
H10B C15B 1_555 1_555
C16B C10B 1_555 1_555
C17B C16B 1_555 1_555
H11B C17B 1_555 1_555
C18B C17B 1_555 1_555
H12B C18B 1_555 1_555
C19B N3B 1_555 1_555
H13B C19B 1_555 1_555
C20B C16B 1_555 1_555
H14B C20B 1_555 1_555
O1I C7I 1_555 1_555
N1I C2I 1_555 1_555
C1I H1I 1_555 1_555
H2I C1I 1_555 1_555
H3I C1I 1_555 1_555
N2I Cd2 1_555 1_555
C2I C1I 1_555 1_555
N3I C18I 1_555 1_555
C3I C2I 1_555 1_555
H4I C3I 1_555 1_555
C4I C3I 1_555 1_555
H5I C4I 1_555 1_555
C5I C4I 1_555 1_555
C6I N1I 1_555 1_555
C7I C6I 1_555 1_555
C8I C7I 1_555 1_555
C9I C8I 1_555 1_555
H6I C9I 1_555 1_555
C10I C5I 1_555 1_555
C11I C8I 1_555 1_555
C12I C11I 1_555 1_555
H7I C12I 1_555 1_555
C13I N2I 1_555 1_555
H8I C13I 1_555 1_555
C14I N2I 1_555 1_555
H9I C14I 1_555 1_555
C15I C11I 1_555 1_555
H10I C15I 1_555 1_555
C16I C10I 1_555 1_555
C17I C16I 1_555 1_555
H11I C17I 1_555 1_555
C18I C17I 1_555 1_555
H12I C18I 1_555 1_555
C19I N3I 1_555 1_555
H13I C19I 1_555 1_555
C20I C16I 1_555 1_555
H14I C20I 1_555 1_555
O1J C7J 1_555 1_555
N1J C2J 1_555 1_555
C1J H1J 1_555 1_555
H2J C1J 1_555 1_555
H3J C1J 1_555 1_555
N2J Cd2 1_555 1_555
C2J C1J 1_555 1_555
N3J C18J 1_555 1_555
C3J C2J 1_555 1_555
H4J C3J 1_555 1_555
C4J C3J 1_555 1_555
H5J C4J 1_555 1_555
C5J C4J 1_555 1_555
C6J N1J 1_555 1_555
C7J C6J 1_555 1_555
C8J C7J 1_555 1_555
C9J C8J 1_555 1_555
H6J C9J 1_555 1_555
C10J C5J 1_555 1_555
C11J C8J 1_555 1_555
C12J C11J 1_555 1_555
H7J C12J 1_555 1_555
C13J N2J 1_555 1_555
H8J C13J 1_555 1_555
C14J N2J 1_555 1_555
H9J C14J 1_555 1_555
C15J C11J 1_555 1_555
H10J C15J 1_555 1_555
C16J C10J 1_555 1_555
C17J C16J 1_555 1_555
H11J C17J 1_555 1_555
C18J C17J 1_555 1_555
H12J C18J 1_555 1_555
C19J N3J 1_555 1_555
H13J C19J 1_555 1_555
C20J C16J 1_555 1_555
H14J C20J 1_555 1_555
O1K C7K 1_555 1_555
N1K C2K 1_555 1_555
C1K H1K 1_555 1_555
H2K C1K 1_555 1_555
H3K C1K 1_555 1_555
N2K Cd2 1_555 1_555
C2K C1K 1_555 1_555
N3K C18K 1_555 1_555
C3K C2K 1_555 1_555
H4K C3K 1_555 1_555
C4K C3K 1_555 1_555
H5K C4K 1_555 1_555
C5K C4K 1_555 1_555
C6K N1K 1_555 1_555
C7K C6K 1_555 1_555
C8K C7K 1_555 1_555
C9K C8K 1_555 1_555
H6K C9K 1_555 1_555
C10K C5K 1_555 1_555
C11K C8K 1_555 1_555
C12K C11K 1_555 1_555
H7K C12K 1_555 1_555
C13K N2K 1_555 1_555
H8K C13K 1_555 1_555
C14K N2K 1_555 1_555
H9K C14K 1_555 1_555
C15K C11K 1_555 1_555
H10K C15K 1_555 1_555
C16K C10K 1_555 1_555
C17K C16K 1_555 1_555
H11K C17K 1_555 1_555
C18K C17K 1_555 1_555
H12K C18K 1_555 1_555
C19K N3K 1_555 1_555
H13K C19K 1_555 1_555
C20K C16K 1_555 1_555
H14K C20K 1_555 1_555
Cd1_2 N3J 1_555 1_555
Cd1A_2 N3K 1_555 1_555
Cd1B_2 N3I 1_555 1_555
Cd1F O1I 1_555 1_555
Cd1F_2 N3A 1_555 1_555
Cd1G O1J 1_555 1_555
Cd1G_2 N3B 1_555 1_555
Cd1H O1K 1_555 1_555
Cd1H_2 N3 1_555 1_555
O1O Cd1 1_555 1_555
O1P Cd1A 1_555 1_555
O1Q Cd1B 1_555 1_555
N1O Cd1 1_555 1_555
N1P Cd1A 1_555 1_555
N1Q Cd1B 1_555 1_555
N3C Cd1B 1_555 1_555
N3D Cd1 1_555 1_555
N3E Cd1A 1_555 1_555
N3I_2 Cd1B 1_555 1_555
N3J_2 Cd1 1_555 1_555
N3K_2 Cd1A 1_555 1_555
C1 C2 1_555 1_555
C5 C6 1_555 1_555
C9 C10 1_555 1_555
C14 C15 1_555 1_555
C19 C20 1_555 1_555
C1A C2A 1_555 1_555
C5A C6A 1_555 1_555
C9A C10A 1_555 1_555
C12A C13A 1_555 1_555
C14A C15A 1_555 1_555
C19A C20A 1_555 1_555
C1B C2B 1_555 1_555
C5B C6B 1_555 1_555
C9B C10B 1_555 1_555
C12B C13B 1_555 1_555
C14B C15B 1_555 1_555
C19B C20B 1_555 1_555
N1I Cd1F 1_555 1_555
C5I C6I 1_555 1_555
C9I C10I 1_555 1_555
C12I C13I 1_555 1_555
C14I C15I 1_555 1_555
C19I C20I 1_555 1_555
N1J Cd1G 1_555 1_555
C5J C6J 1_555 1_555
C9J C10J 1_555 1_555
C12J C13J 1_555 1_555
C14J C15J 1_555 1_555
C19J C20J 1_555 1_555
N1K Cd1H 1_555 1_555
C5K C6K 1_555 1_555
C9K C10K 1_555 1_555
C12K C13K 1_555 1_555
C14K C15K 1_555 1_555
C19K C20K 1_555 1_555

#END
