
#######################################################################
#
#                 Cambridge Crystallographic Data Centre
#                                CCDC 
#
#######################################################################
#
# If this CIF has been generated from an entry in the Cambridge 
# Structural Database, then it will include bibliographic, chemical, 
# crystal, experimental, refinement or atomic coordinate data resulting 
# from the CCDC's data processing and validation procedures.
#
#######################################################################

data_EWETOR
_chemical_formula_moiety         'C78 Cl6 N6 O37 Re3 Zr11'
_symmetry_cell_setting           cubic
_symmetry_space_group_name_H-M   'F 2 3'
_symmetry_Int_Tables_number      196
_space_group_name_Hall           'F 2 2 3'
loop_
_symmetry_equiv_pos_site_id
_symmetry_equiv_pos_as_xyz
1 x,y,z
2 -x,-y,z
3 -x,y,-z
4 x,-y,-z
5 z,x,y
6 z,-x,-y
7 -z,-x,y
8 -z,x,-y
9 y,z,x
10 -y,z,-x
11 y,-z,-x
12 -y,-z,x
13 x,1/2+y,1/2+z
14 -x,1/2-y,1/2+z
15 -x,1/2+y,1/2-z
16 x,1/2-y,1/2-z
17 z,1/2+x,1/2+y
18 z,1/2-x,1/2-y
19 -z,1/2-x,1/2+y
20 -z,1/2+x,1/2-y
21 y,1/2+z,1/2+x
22 -y,1/2+z,1/2-x
23 y,1/2-z,1/2-x
24 -y,1/2-z,1/2+x
25 1/2+x,y,1/2+z
26 1/2-x,-y,1/2+z
27 1/2-x,y,1/2-z
28 1/2+x,-y,1/2-z
29 1/2+z,x,1/2+y
30 1/2+z,-x,1/2-y
31 1/2-z,-x,1/2+y
32 1/2-z,x,1/2-y
33 1/2+y,z,1/2+x
34 1/2-y,z,1/2-x
35 1/2+y,-z,1/2-x
36 1/2-y,-z,1/2+x
37 1/2+x,1/2+y,z
38 1/2-x,1/2-y,z
39 1/2-x,1/2+y,-z
40 1/2+x,1/2-y,-z
41 1/2+z,1/2+x,y
42 1/2+z,1/2-x,-y
43 1/2-z,1/2-x,y
44 1/2-z,1/2+x,-y
45 1/2+y,1/2+z,x
46 1/2-y,1/2+z,-x
47 1/2+y,1/2-z,-x
48 1/2-y,1/2-z,x
_cell_length_a                   38.7410(2)
_cell_length_b                   38.7410(2)
_cell_length_c                   38.7410(2)
_cell_angle_alpha                90
_cell_angle_beta                 90
_cell_angle_gamma                90
_cell_volume                     58145
loop_
_atom_site_label
_atom_site_type_symbol
_atom_site_fract_x
_atom_site_fract_y
_atom_site_fract_z
Re1 Re 0.7500 -0.05620(13) 0.2500
Cl1 Cl 0.7105(11) -0.0797(13) 0.2916(11)
N1 N 0.7257(7) -0.0115(6) 0.2277(7)
C1 C 0.7260(7) -0.0904(8) 0.2243(6)
C2 C 0.7353(5) 0.0213(9) 0.2387(5)
C3 C 0.7004(7) -0.0153(6) 0.2027(7)
O1 O 0.7131(7) -0.1139(6) 0.2103(7)
C4 C 0.7195(8) 0.0503(5) 0.2247(8)
C5 C 0.6846(5) 0.0137(10) 0.1886(5)
C6 C 0.6941(7) 0.0465(7) 0.1996(7)
C7 C 0.6575(3) 0.0130(4) 0.1607(3)
C8 C 0.6674(3) 0.0118(4) 0.1263(4)
C9 C 0.6226(4) 0.0133(4) 0.1694(3)
C10 C 0.6425(3) 0.0111(4) 0.1004(3)
C11 C 0.5977(3) 0.0125(4) 0.1435(3)
C12 C 0.6077(3) 0.0114(3) 0.1091(3)
C13 C 0.5809(3) 0.0050(4) 0.0807(3)
O2 O 0.5935(2) 0.0036(3) 0.0476(3)
O3 O 0.5483(2) 0.0025(3) 0.0937(2)
Zr1 Zr 0.56421(4) 0.0000 0.0000
O4 O 0.5276(3) 0.0276(3) 0.0276(3)
O5 O 0.5379(2) -0.0379(2) 0.0379(2)
N1Z N 0.7743(7) -0.0115(6) 0.2723(7)
C2Z C 0.7647(5) 0.0213(9) 0.2613(5)
C3Z C 0.7996(7) -0.0153(6) 0.2973(7)
C4Z C 0.7805(8) 0.0503(5) 0.2753(8)
C5Z C 0.8154(5) 0.0137(10) 0.3114(5)
C6Z C 0.8059(7) 0.0465(7) 0.3004(7)
C7Z C 0.8425(3) 0.0130(4) 0.3393(3)
C8Z C 0.8326(3) 0.0118(4) 0.3737(4)
C9Z C 0.8774(4) 0.0133(4) 0.3306(3)
C10Z C 0.8575(3) 0.0111(4) 0.3996(3)
C11Z C 0.9023(3) 0.0125(4) 0.3565(3)
C12Z C 0.8923(3) 0.0114(3) 0.3909(3)
C13Z C 0.9191(3) 0.0050(4) 0.4193(3)
O2Z O 0.9065(2) 0.0036(3) 0.4524(3)
O3Z O 0.9517(2) 0.0025(3) 0.4063(2)
O4C O 0.5276(3) -0.0276(3) -0.0276(3)
O5C O 0.5379(2) 0.0379(2) -0.0379(2)
Re1F Re 0.7500 0.2500 -0.05620(13)
Cl1F Cl 0.7084(11) 0.2895(11) -0.0797(13)
N1F N 0.7723(7) 0.2743(7) -0.0115(6)
C1F C 0.7757(6) 0.2740(7) -0.0904(8)
C2F C 0.7613(5) 0.2647(5) 0.0213(9)
C3F C 0.7973(7) 0.2996(7) -0.0153(6)
O1F O 0.7897(7) 0.2869(7) -0.1139(6)
C4F C 0.7753(8) 0.2805(8) 0.0503(5)
C5F C 0.8114(5) 0.3154(5) 0.0137(10)
C6F C 0.8004(7) 0.3059(7) 0.0465(7)
C7F C 0.8393(3) 0.3425(3) 0.0130(4)
C8F C 0.8737(4) 0.3326(3) 0.0118(4)
C9F C 0.8306(3) 0.3774(4) 0.0133(4)
C10F C 0.8996(3) 0.3575(3) 0.0111(4)
C11F C 0.8565(3) 0.4023(3) 0.0125(4)
C12F C 0.8909(3) 0.3923(3) 0.0114(3)
C13F C 0.9193(3) 0.4191(3) 0.0050(4)
O2F O 0.9524(3) 0.4065(2) 0.0036(3)
O3F O 0.9063(2) 0.4517(2) 0.0025(3)
Zr1E Zr 1.0000 0.43579(4) 0.0000
N1NA N 0.7277(7) 0.2257(7) -0.0115(6)
C2NA C 0.7387(5) 0.2353(5) 0.0213(9)
C3NA C 0.7027(7) 0.2004(7) -0.0153(6)
C4NA C 0.7247(8) 0.2195(8) 0.0503(5)
C5NA C 0.6886(5) 0.1846(5) 0.0137(10)
C6NA C 0.6996(7) 0.1941(7) 0.0465(7)
C7NA C 0.6607(3) 0.1575(3) 0.0130(4)
C8NA C 0.6263(4) 0.1674(3) 0.0118(4)
C9NA C 0.6694(3) 0.1226(4) 0.0133(4)
C10NA C 0.6004(3) 0.1425(3) 0.0111(4)
C11NA C 0.6435(3) 0.0977(3) 0.0125(4)
C12NA C 0.6091(3) 0.1077(3) 0.0114(3)
C13NA C 0.5807(3) 0.0809(3) 0.0050(4)
O2NA O 0.5476(3) 0.0935(2) 0.0036(3)
O3NA O 0.5937(2) 0.0483(2) 0.0025(3)
Re1G Re 0.7500 -0.2500 0.05620(13)
Cl1G Cl 0.7084(11) -0.2895(11) 0.0797(13)
N1G N 0.7723(7) -0.2743(7) 0.0115(6)
C1G C 0.7757(6) -0.2740(7) 0.0904(8)
C2G C 0.7613(5) -0.2647(5) -0.0213(9)
C3G C 0.7973(7) -0.2996(7) 0.0153(6)
O1G O 0.7897(7) -0.2869(7) 0.1139(6)
C4G C 0.7753(8) -0.2805(8) -0.0503(5)
C5G C 0.8114(5) -0.3154(5) -0.0137(10)
C6G C 0.8004(7) -0.3059(7) -0.0465(7)
C7G C 0.8393(3) -0.3425(3) -0.0130(4)
C8G C 0.8737(4) -0.3326(3) -0.0118(4)
C9G C 0.8306(3) -0.3774(4) -0.0133(4)
C10G C 0.8996(3) -0.3575(3) -0.0111(4)
C11G C 0.8565(3) -0.4023(3) -0.0125(4)
C12G C 0.8909(3) -0.3923(3) -0.0114(3)
C13G C 0.9193(3) -0.4191(3) -0.0050(4)
O2G O 0.9524(3) -0.4065(2) -0.0036(3)
O3G O 0.9063(2) -0.4517(2) -0.0025(3)
Zr1D Zr 1.0000 -0.43579(4) 0.0000
N1OA N 0.7277(7) -0.2257(7) 0.0115(6)
C2OA C 0.7387(5) -0.2353(5) -0.0213(9)
C3OA C 0.7027(7) -0.2004(7) 0.0153(6)
C4OA C 0.7247(8) -0.2195(8) -0.0503(5)
C5OA C 0.6886(5) -0.1846(5) -0.0137(10)
C6OA C 0.6996(7) -0.1941(7) -0.0465(7)
C7OA C 0.6607(3) -0.1575(3) -0.0130(4)
C8OA C 0.6263(4) -0.1674(3) -0.0118(4)
C9OA C 0.6694(3) -0.1226(4) -0.0133(4)
C10OA C 0.6004(3) -0.1425(3) -0.0111(4)
C11OA C 0.6435(3) -0.0977(3) -0.0125(4)
C12OA C 0.6091(3) -0.1077(3) -0.0114(3)
C13OA C 0.5807(3) -0.0809(3) -0.0050(4)
O2OA O 0.5476(3) -0.0935(2) -0.0036(3)
O3OA O 0.5937(2) -0.0483(2) -0.0025(3)
C1Z C 0.7740(7) -0.0904(8) 0.2757(6)
O1Z O 0.7869(7) -0.1139(6) 0.2897(7)
C1NA C 0.7243(6) 0.2260(7) -0.0904(8)
O1NA O 0.7103(7) 0.2131(7) -0.1139(6)
C1OA C 0.7243(6) -0.2260(7) 0.0904(8)
O1OA O 0.7103(7) -0.2131(7) 0.1139(6)
Cl1Z Cl 0.7895(11) -0.0797(13) 0.2084(11)
Cl1NA Cl 0.7916(11) 0.2105(11) -0.0797(13)
Cl1OA Cl 0.7916(11) -0.2105(11) 0.0797(13)
O2C O 0.5935(2) -0.0036(3) -0.0476(3)
O2D O 1.0476(3) -0.4065(2) 0.0036(3)
O2E O 1.0476(3) 0.4065(2) -0.0036(3)
O3T O 1.0025(3) -0.4063(2) 0.0483(2)
O3U O 0.9975(3) -0.4063(2) -0.0483(2)
O3V O 1.0025(3) 0.4063(2) -0.0483(2)
O3W O 0.9975(3) 0.4063(2) 0.0483(2)
Zr1I Zr 1.0000 0.0000 0.43579(4)
Zr1Y Zr 0.93579(4) 0.0000 0.5000
Zr1FA Zr 0.5000 -0.0000 0.06421(4)
Zr1GA Zr 0.5000 0.0000 -0.06421(4)
Zr1KA Zr 0.93579(4) -0.5000 0.0000
Zr1KA_2 Zr 0.93579(4) 0.5000 0.0000
Zr1NA Zr 0.5000 0.06421(4) 0.0000
Zr1OA Zr 0.5000 -0.06421(4) 0.0000
O4D O 1.0276(3) -0.4724(3) 0.0276(3)
O4E O 1.0276(3) 0.4724(3) -0.0276(3)
O4F O 0.9724(3) 0.4724(3) 0.0276(3)
O4G O 0.9724(3) -0.4724(3) -0.0276(3)
O5D O 1.0379(2) -0.4621(2) -0.0379(2)
O5E O 1.0379(2) 0.4621(2) 0.0379(2)
O5F O 0.9621(2) 0.4621(2) -0.0379(2)
O5G O 0.9621(2) -0.4621(2) 0.0379(2)
loop_
_geom_bond_atom_site_label_1
_geom_bond_atom_site_label_2
_geom_bond_site_symmetry_1
_geom_bond_site_symmetry_2
Re1 Cl1 1_555 1_555
N1 Re1 1_555 1_555
C1 Re1 1_555 1_555
C2 N1 1_555 1_555
C3 N1 1_555 1_555
O1 C1 1_555 1_555
C4 C2 1_555 1_555
C5 C3 1_555 1_555
C6 C4 1_555 1_555
C7 C5 1_555 1_555
C8 C7 1_555 1_555
C9 C7 1_555 1_555
C10 C8 1_555 1_555
C11 C9 1_555 1_555
C12 C10 1_555 1_555
C13 C12 1_555 1_555
O2 C13 1_555 1_555
O3 C13 1_555 1_555
Zr1 O2 1_555 1_555
O4 Zr1 1_555 1_555
O5 Zr1 1_555 1_555
N1Z Re1 1_555 1_555
C2Z C2 1_555 1_555
C3Z N1Z 1_555 1_555
C4Z C2Z 1_555 1_555
C5Z C3Z 1_555 1_555
C6Z C4Z 1_555 1_555
C7Z C5Z 1_555 1_555
C8Z C7Z 1_555 1_555
C9Z C7Z 1_555 1_555
C10Z C8Z 1_555 1_555
C11Z C9Z 1_555 1_555
C12Z C10Z 1_555 1_555
C13Z C12Z 1_555 1_555
O2Z C13Z 1_555 1_555
O3Z C13Z 1_555 1_555
O4C Zr1 1_555 1_555
O5C Zr1 1_555 1_555
Re1F Cl1F 1_555 1_555
N1F Re1F 1_555 1_555
C1F Re1F 1_555 1_555
C2F N1F 1_555 1_555
C3F N1F 1_555 1_555
O1F C1F 1_555 1_555
C4F C2F 1_555 1_555
C5F C3F 1_555 1_555
C6F C4F 1_555 1_555
C7F C5F 1_555 1_555
C8F C7F 1_555 1_555
C9F C7F 1_555 1_555
C10F C8F 1_555 1_555
C11F C9F 1_555 1_555
C12F C10F 1_555 1_555
C13F C12F 1_555 1_555
O2F C13F 1_555 1_555
O3F C13F 1_555 1_555
Zr1E O2F 1_555 1_555
N1NA Re1F 1_555 1_555
C2NA C2F 1_555 1_555
C3NA N1NA 1_555 1_555
C4NA C2NA 1_555 1_555
C5NA C3NA 1_555 1_555
C6NA C4NA 1_555 1_555
C7NA C5NA 1_555 1_555
C8NA C7NA 1_555 1_555
C9NA C7NA 1_555 1_555
C10NA C8NA 1_555 1_555
C11NA C9NA 1_555 1_555
C12NA C10NA 1_555 1_555
C13NA C12NA 1_555 1_555
O2NA C13NA 1_555 1_555
O3NA Zr1 1_555 1_555
Re1G Cl1G 1_555 1_555
N1G Re1G 1_555 1_555
C1G Re1G 1_555 1_555
C2G N1G 1_555 1_555
C3G N1G 1_555 1_555
O1G C1G 1_555 1_555
C4G C2G 1_555 1_555
C5G C3G 1_555 1_555
C6G C4G 1_555 1_555
C7G C5G 1_555 1_555
C8G C7G 1_555 1_555
C9G C7G 1_555 1_555
C10G C8G 1_555 1_555
C11G C9G 1_555 1_555
C12G C10G 1_555 1_555
C13G C12G 1_555 1_555
O2G C13G 1_555 1_555
O3G C13G 1_555 1_555
Zr1D O2G 1_555 1_555
N1OA Re1G 1_555 1_555
C2OA C2G 1_555 1_555
C3OA N1OA 1_555 1_555
C4OA C2OA 1_555 1_555
C5OA C3OA 1_555 1_555
C6OA C4OA 1_555 1_555
C7OA C5OA 1_555 1_555
C8OA C7OA 1_555 1_555
C9OA C7OA 1_555 1_555
C10OA C8OA 1_555 1_555
C11OA C9OA 1_555 1_555
C12OA C10OA 1_555 1_555
C13OA C12OA 1_555 1_555
O2OA C13OA 1_555 1_555
O3OA Zr1 1_555 1_555
C1Z Re1 1_555 1_555
O1Z C1Z 1_555 1_555
C1NA Re1F 1_555 1_555
O1NA C1NA 1_555 1_555
C1OA Re1G 1_555 1_555
O1OA C1OA 1_555 1_555
Cl1Z Re1 1_555 1_555
Cl1NA Re1F 1_555 1_555
Cl1OA Re1G 1_555 1_555
O2C Zr1 1_555 1_555
O2D Zr1D 1_555 1_555
O2E Zr1E 1_555 1_555
O3T Zr1D 1_555 1_555
O3U Zr1D 1_555 1_555
O3V Zr1E 1_555 1_555
O3W Zr1E 1_555 1_555
Zr1I O3Z 1_555 1_555
Zr1Y O2Z 1_555 1_555
Zr1FA O3 1_555 1_555
Zr1GA O4C 1_555 1_555
Zr1KA O3G 1_555 1_555
Zr1KA_2 O3F 1_555 1_555
Zr1NA O4 1_555 1_555
Zr1OA O5 1_555 1_555
O4D Zr1D 1_555 1_555
O4E Zr1E 1_555 1_555
O4F Zr1E 1_555 1_555
O4G Zr1D 1_555 1_555
O5D Zr1D 1_555 1_555
O5E Zr1E 1_555 1_555
O5F Zr1E 1_555 1_555
O5G Zr1D 1_555 1_555
C5 C6 1_555 1_555
C11 C12 1_555 1_555
O4 Zr1FA 1_555 1_555
O5 Zr1FA 1_555 1_555
N1Z C2Z 1_555 1_555
C5Z C6Z 1_555 1_555
C11Z C12Z 1_555 1_555
O4C Zr1OA 1_555 1_555
O5C Zr1GA 1_555 1_555
O5C Zr1NA 1_555 1_555
C5F C6F 1_555 1_555
C11F C12F 1_555 1_555
N1NA C2NA 1_555 1_555
C5NA C6NA 1_555 1_555
C11NA C12NA 1_555 1_555
C13NA O3NA 1_555 1_555
O2NA Zr1NA 1_555 1_555
C5G C6G 1_555 1_555
C11G C12G 1_555 1_555
N1OA C2OA 1_555 1_555
C5OA C6OA 1_555 1_555
C11OA C12OA 1_555 1_555
C13OA O3OA 1_555 1_555
O2OA Zr1OA 1_555 1_555
Zr1KA O4G 1_555 1_555
Zr1KA O5G 1_555 1_555
Zr1KA_2 O4F 1_555 1_555
Zr1KA_2 O5F 1_555 1_555

#END
