
#######################################################################
#
#                 Cambridge Crystallographic Data Centre
#                                CCDC 
#
#######################################################################
#
# If this CIF has been generated from an entry in the Cambridge 
# Structural Database, then it will include bibliographic, chemical, 
# crystal, experimental, refinement or atomic coordinate data resulting 
# from the CCDC's data processing and validation procedures.
#
#######################################################################

data_SATNOR01
_chemical_formula_moiety         '(C8 H2 Co2 O6)n'
_symmetry_cell_setting           rhombohedral
_symmetry_space_group_name_H-M   'R -3'
_symmetry_Int_Tables_number      148
_space_group_name_Hall           '-R 3'
loop_
_symmetry_equiv_pos_site_id
_symmetry_equiv_pos_as_xyz
1 x,y,z
2 -y,x-y,z
3 -x+y,-x,z
4 2/3+x,1/3+y,1/3+z
5 2/3-y,1/3+x-y,1/3+z
6 2/3-x+y,1/3-x,1/3+z
7 1/3+x,2/3+y,2/3+z
8 1/3-y,2/3+x-y,2/3+z
9 1/3-x+y,2/3-x,2/3+z
10 -x,-y,-z
11 y,-x+y,-z
12 x-y,x,-z
13 1/3-x,2/3-y,2/3-z
14 1/3+y,2/3-x+y,2/3-z
15 1/3+x-y,2/3+x,2/3-z
16 2/3-x,1/3-y,1/3-z
17 2/3+y,1/3-x+y,1/3-z
18 2/3+x-y,1/3+x,1/3-z
_cell_length_a                   25.906(7)
_cell_length_b                   25.906(7)
_cell_length_c                   6.817(4)
_cell_angle_alpha                90
_cell_angle_beta                 90
_cell_angle_gamma                120
_cell_volume                     3962.09
loop_
_atom_site_label
_atom_site_type_symbol
_atom_site_fract_x
_atom_site_fract_y
_atom_site_fract_z
C1 C 0.9273(4) 0.6809(4) 0.4268(12)
C2 C 0.8793(4) 0.6726(4) 0.2884(12)
C3 C 0.8781(4) 0.6555(4) 0.0899(11)
C4 C 0.8346(4) 0.6834(4) 0.3583(12)
H1 H 0.8363 0.6948 0.4886
Co1 Co 0.98025(5) 0.69540(5) 0.80849(16)
O1 O 0.9274(3) 0.6986(3) 0.5995(8)
O2 O 0.9668(3) 0.6702(3) 0.3667(9)
O3 O 0.9192(3) 0.6447(3) 0.0069(7)
C1O C 0.7394(4) 0.6524(4) -0.0935(12)
C2O C 0.7874(4) 0.6607(4) 0.0449(12)
C3O C 0.7886(4) 0.6778(4) 0.2434(11)
C4O C 0.8321(4) 0.6499(4) -0.0250(12)
H1O H 0.8304 0.6385 -0.1553
Co1O Co 0.68642(5) 0.63793(5) -0.47516(16)
Co1D Co 0.97127(5) 0.61818(7) 0.14182(16)
Co1H Co 1.04848(7) 0.68642(5) 0.47516(16)
Co1_2 Co 0.98025(5) 0.69540(5) -0.19151(16)
Co1J Co 0.69540(5) 0.71515(7) 0.19151(16)
Co1N Co 0.61818(7) 0.64692(5) -0.14182(16)
Co1O_2 Co 0.68642(5) 0.63793(5) 0.52484(16)
O1O O 0.7393(3) 0.6347(3) -0.2662(8)
O2O O 0.6999(3) 0.6631(3) -0.0334(9)
O2H O 1.0367(4) 0.6999(3) 1.0334(9)
O2D O 0.9965(3) 0.6299(4) 0.7000(9)
O2N O 0.6299(4) 0.6335(3) -0.7000(9)
O2J O 0.6702(3) 0.7034(4) -0.3667(9)
O3O O 0.7475(3) 0.6886(3) 0.3264(7)
O3H O 1.0588(4) 0.7475(3) 0.6736(7)
O3_2 O 0.9192(3) 0.6447(3) 1.0069(7)
O3N O 0.6078(4) 0.5859(3) -0.3402(7)
O3O_2 O 0.7475(3) 0.6886(3) -0.6736(7)
loop_
_geom_bond_atom_site_label_1
_geom_bond_atom_site_label_2
_geom_bond_site_symmetry_1
_geom_bond_site_symmetry_2
C1 C2 1_555 1_555
C2 C3 1_555 1_555
C3 O3 1_555 1_555
C4 C2 1_555 1_555
H1 C4 1_555 1_555
Co1 O1 1_555 1_555
O1 C1 1_555 1_555
O2 C1 1_555 1_555
O3 Co1D 1_555 1_555
C1O C2O 1_555 1_555
C2O C3O 1_555 1_555
C3O C4 1_555 1_555
C4O C3 1_555 1_555
H1O C4O 1_555 1_555
Co1O O1O 1_555 1_555
Co1D O2 1_555 1_555
Co1H O2 1_555 1_555
Co1_2 O3 1_555 1_555
Co1J O2O 1_555 1_555
Co1N O2O 1_555 1_555
Co1O_2 O3O 1_555 1_555
O1O C1O 1_555 1_555
O2O C1O 1_555 1_555
O2H Co1 1_555 1_555
O2D Co1 1_555 1_555
O2N Co1O 1_555 1_555
O2J Co1O 1_555 1_555
O3O C3O 1_555 1_555
O3H Co1 1_555 1_555
O3_2 Co1 1_555 1_555
O3N Co1O 1_555 1_555
O3O_2 Co1O 1_555 1_555
C2O C4O 1_555 1_555
Co1H O2D 1_555 1_555
Co1H O3H 1_555 1_555
Co1J O3O 1_555 1_555
Co1N O2J 1_555 1_555
Co1N O3N 1_555 1_555

#END
