
#######################################################################
#
#                 Cambridge Crystallographic Data Centre
#                                CCDC 
#
#######################################################################
#
# If this CIF has been generated from an entry in the Cambridge 
# Structural Database, then it will include bibliographic, chemical, 
# crystal, experimental, refinement or atomic coordinate data resulting 
# from the CCDC's data processing and validation procedures.
#
#######################################################################

data_ESEDAJ
_chemical_formula_moiety         '(C34 H18 O8 Zn2)n'
_symmetry_cell_setting           orthorhombic
_symmetry_space_group_name_H-M   'P b c a'
_symmetry_Int_Tables_number      61
_space_group_name_Hall           '-P 2ac 2ab'
loop_
_symmetry_equiv_pos_site_id
_symmetry_equiv_pos_as_xyz
1 x,y,z
2 1/2-x,-y,1/2+z
3 -x,1/2+y,1/2-z
4 1/2+x,1/2-y,-z
5 -x,-y,-z
6 1/2+x,y,1/2-z
7 x,1/2-y,1/2+z
8 1/2-x,1/2+y,z
_cell_length_a                   6.6210(7)
_cell_length_b                   20.678(2)
_cell_length_c                   26.840(3)
_cell_angle_alpha                90
_cell_angle_beta                 90
_cell_angle_gamma                90
_cell_volume                     3674.64
loop_
_atom_site_label
_atom_site_type_symbol
_atom_site_fract_x
_atom_site_fract_y
_atom_site_fract_z
_atom_site_U_iso_or_equiv
_atom_site_thermal_displace_type
C1 C 0.6619(5) 1.11828(15) 0.81129(11) 0.0390 Uani
C2 C 0.5369(5) 1.08622(17) 0.84973(13) 0.0434 Uani
C3 C 0.3446(5) 1.06390(15) 0.83738(12) 0.0410 Uani
H1 H 0.3008 1.0651 0.8045 0.0490 Uiso
C4 C 0.2202(5) 1.04015(17) 0.87403(12) 0.0452 Uani
H2 H 0.0907 1.0263 0.8660 0.0540 Uiso
C5 C 0.2864(5) 1.03679(15) 0.92258(11) 0.0390 Uani
C6 C 0.4798(5) 1.05708(16) 0.93456(12) 0.0400 Uani
H3 H 0.5244 1.0550 0.9674 0.0480 Uiso
C7 C 0.6052(5) 1.08021(16) 0.89825(12) 0.0420 Uani
H4 H 0.7370 1.0920 0.9062 0.0500 Uiso
C8 C 0.1423(5) 1.01460(16) 0.96334(11) 0.0410 Uani
C9 C 0.0323(5) 0.95675(15) 0.96011(13) 0.0407 Uani
C10 C -0.1079(5) 0.94400(14) 0.99727(12) 0.0377 Uani
H5 H -0.1819 0.9058 0.9955 0.0450 Uiso
C11 C 0.0722(5) 0.90758(15) 0.92129(12) 0.0411 Uani
C12 C -0.0851(5) 0.88225(16) 0.89193(13) 0.0458 Uani
H6 H -0.2163 0.8970 0.8968 0.0550 Uiso
C13 C -0.0493(5) 0.83703(17) 0.85685(13) 0.0426 Uani
H7 H -0.1546 0.8221 0.8370 0.0510 Uiso
C14 C 0.1427(6) 0.81275(15) 0.85025(12) 0.0440 Uani
C15 C 0.2990(5) 0.83586(16) 0.87889(12) 0.0437 Uani
H8 H 0.4291 0.8199 0.8745 0.0520 Uiso
C16 C 0.2622(5) 0.88243(16) 0.91390(13) 0.0446 Uani
H9 H 0.3686 0.8975 0.9333 0.0530 Uiso
C17 C 0.1832(5) 0.76136(15) 0.81143(11) 0.0395 Uani
O1 O 0.5996(4) 1.11732(12) 0.76588(8) 0.0435 Uani
O2 O 0.8188(4) 1.14595(11) 0.82414(8) 0.0440 Uani
O3 O 0.3483(4) 0.73208(11) 0.81676(9) 0.0479 Uani
O4 O 0.0593(4) 0.75130(12) 0.77739(9) 0.0453 Uani
Zn1 Zn 0.47721(6) 1.18559(2) 0.728078(15) 0.0440 Uani
C1D C -0.6619(5) 0.88172(15) 1.18871(11) 0.0390 Uani
C2D C -0.5369(5) 0.91378(17) 1.15027(13) 0.0434 Uani
C3D C -0.3446(5) 0.93610(15) 1.16262(12) 0.0410 Uani
H1D H -0.3008 0.9349 1.1955 0.0490 Uiso
C4D C -0.2202(5) 0.95985(17) 1.12597(12) 0.0452 Uani
H2D H -0.0907 0.9737 1.1340 0.0540 Uiso
C5D C -0.2864(5) 0.96321(15) 1.07742(11) 0.0390 Uani
C6D C -0.4798(5) 0.94292(16) 1.06544(12) 0.0400 Uani
H3D H -0.5244 0.9450 1.0326 0.0480 Uiso
C7D C -0.6052(5) 0.91979(16) 1.10175(12) 0.0420 Uani
H4D H -0.7370 0.9080 1.0938 0.0500 Uiso
C8D C -0.1423(5) 0.98540(16) 1.03666(11) 0.0410 Uani
C9D C -0.0323(5) 1.04325(15) 1.03989(13) 0.0407 Uani
C10D C 0.1079(5) 1.05600(14) 1.00273(12) 0.0377 Uani
H5D H 0.1819 1.0942 1.0045 0.0450 Uiso
C11D C -0.0722(5) 1.09242(15) 1.07871(12) 0.0411 Uani
C12D C 0.0851(5) 1.11775(16) 1.10807(13) 0.0458 Uani
H6D H 0.2163 1.1030 1.1032 0.0550 Uiso
C13D C 0.0493(5) 1.16297(17) 1.14315(13) 0.0426 Uani
H7D H 0.1546 1.1779 1.1630 0.0510 Uiso
C14D C -0.1427(6) 1.18725(15) 1.14975(12) 0.0440 Uani
C15D C -0.2990(5) 1.16414(16) 1.12111(12) 0.0437 Uani
H8D H -0.4291 1.1801 1.1255 0.0520 Uiso
C16D C -0.2622(5) 1.11757(16) 1.08610(13) 0.0446 Uani
H9D H -0.3686 1.1025 1.0667 0.0530 Uiso
C17D C -0.1832(5) 1.23864(15) 1.18857(11) 0.0395 Uani
O1D O -0.5996(4) 0.88268(12) 1.23412(8) 0.0435 Uani
O2D O -0.8188(4) 0.85405(11) 1.17586(8) 0.0440 Uani
O3D O -0.3483(4) 1.26792(11) 1.18324(9) 0.0479 Uani
O4D O -0.0593(4) 1.24870(12) 1.22261(9) 0.0453 Uani
Zn1D Zn -0.47721(6) 0.81441(2) 1.271922(15) 0.0440 Uani
O2A O -0.3188(4) 0.85405(11) 1.32414(8) 0.0440 Uani
O2E O 0.3188(4) 1.14595(11) 0.67586(8) 0.0440 Uani
O3B O 0.6517(4) 1.23208(11) 0.68324(9) 0.0479 Uani
O3F O -0.6517(4) 0.76792(11) 1.31676(9) 0.0479 Uani
O4C O -0.4407(4) 0.74870(12) 1.22261(9) 0.0453 Uani
O4G O 0.4407(4) 1.25130(12) 0.77739(9) 0.0453 Uani
Zn1A Zn -0.97721(6) 0.81441(2) 1.228078(15) 0.0440 Uani
Zn1B Zn 0.52279(6) 0.68559(2) 0.771922(15) 0.0440 Uani
Zn1C Zn -0.02279(6) 1.31441(2) 1.271922(15) 0.0440 Uani
Zn1E Zn 0.97721(6) 1.18559(2) 0.771922(15) 0.0440 Uani
Zn1F Zn -0.52279(6) 1.31441(2) 1.228078(15) 0.0440 Uani
Zn1G Zn 0.02279(6) 0.68559(2) 0.728078(15) 0.0440 Uani
loop_
_atom_site_aniso_label
_atom_site_aniso_U_11
_atom_site_aniso_U_22
_atom_site_aniso_U_33
_atom_site_aniso_U_23
_atom_site_aniso_U_13
_atom_site_aniso_U_12
C1 0.0409(16) 0.0453(17) 0.0307(14) -0.0012(12) -0.0030(12) -0.0075(13)
C2 0.0416(17) 0.0482(18) 0.0403(17) 0.0044(14) 0.0124(13) -0.0017(14)
C3 0.0465(17) 0.0424(16) 0.0340(15) 0.0063(13) 0.0025(13) -0.0072(13)
C4 0.0487(18) 0.0484(18) 0.0385(17) 0.0036(13) 0.0123(14) -0.0041(15)
C5 0.0462(17) 0.0384(16) 0.0323(15) -0.0036(11) 0.0186(13) -0.0031(13)
C6 0.0467(18) 0.0433(17) 0.0300(15) 0.0033(13) 0.0076(12) -0.0087(13)
C7 0.0405(17) 0.0450(16) 0.0405(16) 0.0021(13) 0.0064(14) -0.0142(13)
C8 0.0458(17) 0.0431(16) 0.0341(15) -0.0003(12) 0.0176(13) -0.0078(14)
C9 0.0419(16) 0.0366(15) 0.0437(17) -0.0046(13) 0.0132(13) -0.0006(12)
C10 0.0419(16) 0.0270(13) 0.0442(16) -0.0045(12) 0.0134(14) -0.0070(11)
C11 0.0403(16) 0.0394(16) 0.0437(17) -0.0062(13) 0.0134(14) -0.0038(13)
C12 0.0455(17) 0.0420(17) 0.0500(19) -0.0169(14) 0.0153(15) -0.0082(14)
C13 0.0415(16) 0.0430(16) 0.0434(17) -0.0138(14) 0.0121(14) -0.0075(14)
C14 0.0476(18) 0.0418(16) 0.0425(17) -0.0102(13) 0.0154(15) 0.0031(13)
C15 0.0419(17) 0.0430(16) 0.0462(17) -0.0165(14) 0.0139(14) 0.0140(14)
C16 0.0453(17) 0.0420(17) 0.0464(18) -0.0111(14) 0.0111(14) 0.0063(13)
C17 0.0425(17) 0.0390(15) 0.0371(15) -0.0027(12) 0.0104(13) 0.0018(13)
O1 0.0431(13) 0.0529(13) 0.0344(11) -0.0043(9) -0.0057(9) -0.0161(10)
O2 0.0473(12) 0.0397(11) 0.0450(12) 0.0057(9) 0.0125(10) -0.0173(10)
O3 0.0532 0.0455 0.045 -0.0111 -0.0049 0.0148
O4 0.0425 0.0472 0.0462 -0.0131 0.0151 0.0066
Zn1 0.0455(3) 0.0454(3) 0.0411(3) -0.00452(15) -0.00590(15) -0.01595(16)
C1D 0.0409 0.0453 0.0307 -0.0012 -0.003 -0.0075
C2D 0.0416 0.0482 0.0403 0.0044 0.0124 -0.0017
C3D 0.0465 0.0424 0.034 0.0063 0.0025 -0.0072
C4D 0.0487 0.0484 0.0385 0.0036 0.0123 -0.0041
C5D 0.0462 0.0384 0.0323 -0.0036 0.0186 -0.0031
C6D 0.0467 0.0433 0.03 0.0033 0.0076 -0.0087
C7D 0.0405 0.045 0.0405 0.0021 0.0064 -0.0142
C8D 0.0458 0.0431 0.0341 -0.0003 0.0176 -0.0078
C9D 0.0419 0.0366 0.0437 -0.0046 0.0132 -0.0006
C10D 0.0419 0.027 0.0442 -0.0045 0.0134 -0.007
C11D 0.0403 0.0394 0.0437 -0.0062 0.0134 -0.0038
C12D 0.0455 0.042 0.05 -0.0169 0.0153 -0.0082
C13D 0.0415 0.043 0.0434 -0.0138 0.0121 -0.0075
C14D 0.0476 0.0418 0.0425 -0.0102 0.0154 0.0031
C15D 0.0419 0.043 0.0462 -0.0165 0.0139 0.014
C16D 0.0453 0.042 0.0464 -0.0111 0.0111 0.0063
C17D 0.0425 0.039 0.0371 -0.0027 0.0104 0.0018
O1D 0.0431 0.0529 0.0344 -0.0043 -0.0057 -0.0161
O2D 0.0473 0.0397 0.045 0.0057 0.0125 -0.0173
O3D 0.0532 0.0455 0.045 -0.0111 -0.0049 0.0148
O4D 0.0425 0.0472 0.0462 -0.0131 0.0151 0.0066
Zn1D 0.0455 0.0454 0.0411 -0.00452 -0.0059 -0.01595
O2A 0.0473 0.0397 0.045 -0.0057 -0.0125 -0.0173
O2E 0.0473 0.0397 0.045 -0.0057 -0.0125 -0.0173
O3B 0.0532 0.0455 0.045 0.0111 -0.0049 -0.0148
O3F 0.0532 0.0455 0.045 0.0111 -0.0049 -0.0148
O4C 0.0425 0.0472 0.0462 -0.0131 -0.0151 -0.0066
O4G 0.0425 0.0472 0.0462 -0.0131 -0.0151 -0.0066
Zn1A 0.0455 0.0454 0.0411 0.00452 0.0059 -0.01595
Zn1B 0.0455 0.0454 0.0411 0.00452 -0.0059 0.01595
Zn1C 0.0455 0.0454 0.0411 -0.00452 0.0059 0.01595
Zn1E 0.0455 0.0454 0.0411 0.00452 0.0059 -0.01595
Zn1F 0.0455 0.0454 0.0411 0.00452 -0.0059 0.01595
Zn1G 0.0455 0.0454 0.0411 -0.00452 0.0059 0.01595
loop_
_geom_bond_atom_site_label_1
_geom_bond_atom_site_label_2
_geom_bond_site_symmetry_1
_geom_bond_site_symmetry_2
C1 C2 1_555 1_555
C2 C3 1_555 1_555
C3 H1 1_555 1_555
C4 C3 1_555 1_555
H2 C4 1_555 1_555
C5 C4 1_555 1_555
C6 C5 1_555 1_555
H3 C6 1_555 1_555
C7 C2 1_555 1_555
H4 C7 1_555 1_555
C8 C5 1_555 1_555
C9 C8 1_555 1_555
C10 C9 1_555 1_555
H5 C10 1_555 1_555
C11 C9 1_555 1_555
C12 C11 1_555 1_555
H6 C12 1_555 1_555
C13 C12 1_555 1_555
H7 C13 1_555 1_555
C14 C13 1_555 1_555
C15 C14 1_555 1_555
H8 C15 1_555 1_555
C16 C11 1_555 1_555
H9 C16 1_555 1_555
C17 C14 1_555 1_555
O1 C1 1_555 1_555
O2 C1 1_555 1_555
O3 C17 1_555 1_555
O4 C17 1_555 1_555
Zn1 O1 1_555 1_555
C1D C2D 1_555 1_555
C2D C3D 1_555 1_555
C3D H1D 1_555 1_555
C4D C3D 1_555 1_555
H2D C4D 1_555 1_555
C5D C4D 1_555 1_555
C6D C5D 1_555 1_555
H3D C6D 1_555 1_555
C7D C2D 1_555 1_555
H4D C7D 1_555 1_555
C8D C10 1_555 1_555
C9D C8D 1_555 1_555
C10D C8 1_555 1_555
H5D C10D 1_555 1_555
C11D C9D 1_555 1_555
C12D C11D 1_555 1_555
H6D C12D 1_555 1_555
C13D C12D 1_555 1_555
H7D C13D 1_555 1_555
C14D C13D 1_555 1_555
C15D C14D 1_555 1_555
H8D C15D 1_555 1_555
C16D C11D 1_555 1_555
H9D C16D 1_555 1_555
C17D C14D 1_555 1_555
O1D C1D 1_555 1_555
O2D C1D 1_555 1_555
O3D C17D 1_555 1_555
O4D C17D 1_555 1_555
Zn1D O1D 1_555 1_555
O2A Zn1D 1_555 1_555
O2E Zn1 1_555 1_555
O3B Zn1 1_555 1_555
O3F Zn1D 1_555 1_555
O4C Zn1D 1_555 1_555
O4G Zn1 1_555 1_555
Zn1A O2D 1_555 1_555
Zn1B O3 1_555 1_555
Zn1C O4D 1_555 1_555
Zn1E O2 1_555 1_555
Zn1F O3D 1_555 1_555
Zn1G O4 1_555 1_555
C6 C7 1_555 1_555
C15 C16 1_555 1_555
C5D C8D 1_555 1_555
C6D C7D 1_555 1_555
C9D C10D 1_555 1_555
C15D C16D 1_555 1_555

#END
