
#######################################################################
#
#                 Cambridge Crystallographic Data Centre
#                                CCDC 
#
#######################################################################
#
# If this CIF has been generated from an entry in the Cambridge 
# Structural Database, then it will include bibliographic, chemical, 
# crystal, experimental, refinement or atomic coordinate data resulting 
# from the CCDC's data processing and validation procedures.
#
#######################################################################

data_WIVQOJ
_chemical_formula_moiety         '(H11 B10 Ga3 O25)n'
_symmetry_cell_setting           rhombohedral
_symmetry_space_group_name_H-M   'R 3'
_symmetry_Int_Tables_number      146
_space_group_name_Hall           'R 3'
loop_
_symmetry_equiv_pos_site_id
_symmetry_equiv_pos_as_xyz
1 x,y,z
2 -y,x-y,z
3 -x+y,-x,z
4 2/3+x,1/3+y,1/3+z
5 2/3-y,1/3+x-y,1/3+z
6 2/3-x+y,1/3-x,1/3+z
7 1/3+x,2/3+y,2/3+z
8 1/3-y,2/3+x-y,2/3+z
9 1/3-x+y,2/3-x,2/3+z
_cell_length_a                   22.6662(16)
_cell_length_b                   22.6662(16)
_cell_length_c                   7.2085(5)
_cell_angle_alpha                90
_cell_angle_beta                 90
_cell_angle_gamma                120
_cell_volume                     3207.25
loop_
_atom_site_label
_atom_site_type_symbol
_atom_site_fract_x
_atom_site_fract_y
_atom_site_fract_z
Ga1 Ga 0.94955(9) 0.29995(9) 0.05843(18)
Ga2 Ga 0.71943(9) 0.03267(9) 0.24625(19)
Ga3 Ga 0.84487(8) 0.15797(9) 0.1251(2)
O1 O 0.9208(6) 0.2277(6) 0.2464(14)
O2 O 0.8174(6) 0.0903(6) 0.3195(14)
O3 O 0.9042(6) 0.4402(6) 0.3016(14)
O4 O 0.8543(6) 0.2346(6) -0.0256(14)
O5 O 0.7539(6) 0.1017(6) 0.0503(14)
O6 O 0.8345(10) -0.0248(11) 0.127(3)
H1 H 0.8441 0.0119 0.1739
O7 O 0.9352(6) 0.3550(6) 0.2350(15)
O8 O 0.9763(6) 0.2911(6) 0.5119(15)
O9 O 0.7289(6) -0.0272(6) 0.0711(15)
O10 O 0.6894(6) 0.0408(8) -0.2068(15)
O11 O 0.7628(6) 0.1603(6) -0.2262(15)
O12 O 0.8996(5) 0.1724(6) 0.5405(14)
O13 O 0.8235(6) 0.0592(5) 0.6315(14)
H2 H 0.8550 0.0633 0.6969
O14 O 0.8265(5) 0.2784(5) -0.2856(14)
H3 H 0.79707 0.25993 -0.36826
O15 O 0.7471(6) -0.1171(6) -0.0151(14)
H4 H 0.7790 -0.1219 -0.0489
O16 O 0.8223(5) 0.3277(5) 0.2074(14)
H5 H 0.7960 0.3326 0.2757
B1 B 0.8486(10) 0.1069(10) 0.494(3)
B2 B 0.7356(10) 0.1014(10) -0.127(3)
B3 B 0.8149(10) 0.2235(10) -0.177(3)
B4 B 0.9338(11) 0.2312(10) 0.435(3)
B5 B 0.8881(10) 0.3769(10) 0.247(3)
B6 B 0.7712(10) -0.0534(10) 0.050(3)
Ga1E Ga 1.01707(13) 0.38378(9) 0.39176(18)
Ga1G Ga 1.03338(9) 0.31627(13) 0.72510(18)
Ga2D Ga 0.63400(9) 0.02009(13) -0.42042(19)
Ga2H Ga 0.64657(13) -0.05276(9) -0.08708(19)
Ga3E Ga 0.97977(12) 0.48846(8) 0.4584(2)
O3G O 0.8931(6) 0.1307(8) -0.0317(14)
O7G O 0.9783(6) 0.2469(8) -0.0983(15)
O8E O 0.9815(8) 0.3570(6) -0.1548(15)
O8G O 1.0422(6) 0.3519(8) 0.1786(15)
O9D O 0.6939(6) 0.0894(8) 0.4044(15)
O10D O 0.6259(8) -0.0181(10) 0.1265(15)
O10H O 0.6847(10) -0.0227(6) 0.4599(15)
O18 O 0.6946(11) 0.2903(11) -0.247(3)
O19 O 0.5821(12) 0.1966(10) -0.261(5)
H6 H 0.5491 0.1895 -0.3247
B7 B 0.6253(9) 0.2657(9) -0.245(3)
O18A O 0.7097(11) 0.4043(16) -0.247(3)
O19A O 0.8034(10) 0.3855(16) -0.261(5)
H6A H 0.8105 0.3596 -0.3247
B7A B 0.7343(9) 0.3596(13) -0.245(3)
O18B O 0.5957(16) 0.3054(11) -0.247(3)
O19B O 0.6145(16) 0.4179(12) -0.261(5)
H6B H 0.6404 0.4509 -0.3247
B7B B 0.6404(13) 0.3747(9) -0.245(3)
O20 O 0.7342(11) 0.3698(13) 0.319(4)
H7 H 0.7480 0.4095 0.2892
B8 B 0.6667 0.3333 0.293(14)
O20A O 0.6302(13) 0.3644(17) 0.319(4)
H7A H 0.5905 0.3385 0.2892
O20B O 0.6356(17) 0.2658(11) 0.319(4)
H7B H 0.6615 0.2520 0.2892
loop_
_geom_bond_atom_site_label_1
_geom_bond_atom_site_label_2
_geom_bond_site_symmetry_1
_geom_bond_site_symmetry_2
Ga1 O1 1_555 1_555
Ga2 O2 1_555 1_555
Ga3 O1 1_555 1_555
O1 B4 1_555 1_555
O2 Ga3 1_555 1_555
O3 B5 1_555 1_555
O4 Ga1 1_555 1_555
O5 Ga2 1_555 1_555
O6 H1 1_555 1_555
O7 Ga1 1_555 1_555
O8 B4 1_555 1_555
O9 Ga2 1_555 1_555
O10 B2 1_555 1_555
O11 B2 1_555 1_555
O12 B1 1_555 1_555
O13 H2 1_555 1_555
O14 H3 1_555 1_555
O15 H4 1_555 1_555
O16 H5 1_555 1_555
B1 O2 1_555 1_555
B2 O5 1_555 1_555
B3 O4 1_555 1_555
B4 O12 1_555 1_555
B5 O7 1_555 1_555
B6 O6 1_555 1_555
O18 B7 1_555 1_555
O19 H6 1_555 1_555
B7 O19 1_555 1_555
O20 H7 1_555 1_555
B8 O20 1_555 1_555
Ga1E O7 1_555 1_555
Ga1G O8 1_555 1_555
Ga2D O10 1_555 1_555
Ga2H O9 1_555 1_555
Ga3E O3 1_555 1_555
O3G Ga3 1_555 1_555
O7G Ga1 1_555 1_555
O8E Ga1 1_555 1_555
O8G Ga1 1_555 1_555
O9D Ga2 1_555 1_555
O10D Ga2 1_555 1_555
O10H Ga2 1_555 1_555
O18A B7A 1_555 1_555
O19A H6A 1_555 1_555
B7A O18 1_555 1_555
O18B B7 1_555 1_555
O19B H6B 1_555 1_555
B7B O18A 1_555 1_555
O20A B8 1_555 1_555
H7A O20A 1_555 1_555
O20B B8 1_555 1_555
H7B O20B 1_555 1_555
Ga3 O4 1_555 1_555
Ga3 O5 1_555 1_555
O8 Ga1E 1_555 1_555
O9 B6 1_555 1_555
O10 Ga2H 1_555 1_555
O11 B3 1_555 1_555
O13 B1 1_555 1_555
O14 B3 1_555 1_555
O15 B6 1_555 1_555
O16 B5 1_555 1_555
Ga1E O8G 1_555 1_555
Ga2H O10D 1_555 1_555
O19A B7A 1_555 1_555
O18B B7B 1_555 1_555
O19B B7B 1_555 1_555

#END
