
#######################################################################
#
#                 Cambridge Crystallographic Data Centre
#                                CCDC 
#
#######################################################################
#
# If this CIF has been generated from an entry in the Cambridge 
# Structural Database, then it will include bibliographic, chemical, 
# crystal, experimental, refinement or atomic coordinate data resulting 
# from the CCDC's data processing and validation procedures.
#
#######################################################################

data_BEKYOG
_chemical_formula_moiety         '(C12 H12 Ag6 Cr2 O30)n'
_symmetry_cell_setting           monoclinic
_symmetry_space_group_name_H-M   'C 2/c'
_symmetry_Int_Tables_number      15
_space_group_name_Hall           '-C 2yc'
loop_
_symmetry_equiv_pos_site_id
_symmetry_equiv_pos_as_xyz
1 x,y,z
2 1/2+x,1/2+y,z
3 -x,y,1/2-z
4 1/2-x,1/2+y,1/2-z
5 -x,-y,-z
6 1/2-x,1/2-y,-z
7 x,-y,1/2+z
8 1/2+x,1/2-y,1/2+z
_cell_length_a                   18.382(3)
_cell_length_b                   14.599(1)
_cell_length_c                   12.313(2)
_cell_angle_alpha                90
_cell_angle_beta                 113.12(1)
_cell_angle_gamma                90
_cell_volume                     3038.92
loop_
_atom_site_label
_atom_site_type_symbol
_atom_site_fract_x
_atom_site_fract_y
_atom_site_fract_z
Ag1 Ag 0.50000 0.45677(9) 0.75000
Ag2 Ag 0.24732(6) 0.19659(6) 0.74508(7)
Ag3 Ag 0.42185(6) 0.31015(7) 1.12837(10)
Cr1 Cr 0.29081(8) 0.49538(9) 0.47546(12)
O1 O 0.3526(4) 0.4211(4) 0.6138(6)
O2 O 0.2074(4) 0.4081(5) 0.4625(6)
O3 O 0.3397(5) 0.2991(5) 0.7160(8)
O4 O 0.1820(4) 0.2873(5) 0.5523(7)
C1 C 0.3131(6) 0.3553(6) 0.6330(8)
C2 C 0.2259(6) 0.3481(6) 0.5439(8)
O5 O 0.2795(4) 0.0684(5) 1.1586(6)
O6 O 0.2425(4) 0.0848(4) 0.9339(6)
O7 O 0.3522(5) 0.1975(5) 1.1978(7)
O8 O 0.3156(4) 0.2098(5) 0.9564(7)
C3 C 0.3103(5) 0.1377(7) 1.1290(8)
C4 C 0.2890(5) 0.1467(6) 0.9976(8)
O9 O 0.3833(4) 0.4291(4) 0.9907(5)
O10 O 0.3281(4) 0.5765(4) 0.8712(6)
O11 O 0.4749(4) 0.4119(5) 0.9171(6)
O12 O 0.4223(4) 0.5809(5) 0.8004(6)
C5 C 0.4197(5) 0.4543(6) 0.9250(8)
C6 C 0.3887(5) 0.5450(6) 0.8584(8)
Ag4 Ag 0.0755(4) 0.3459(6) 0.3027(7)
O13 O 0.5138(10) 0.1923(10) 1.1070(11)
O14 O 0.1055(11) 0.4648(16) 0.1559(18)
O15 O 0.0570(10) 0.5213(14) 0.3965(24)
O1B O 0.6474(4) 0.4211(4) 0.8862(6)
O2B O 0.7926(4) 0.4081(5) 1.0375(6)
O3B O 0.6603(5) 0.2991(5) 0.7840(8)
O4B O 0.8180(4) 0.2873(5) 0.9477(7)
C1B C 0.6869(6) 0.3553(6) 0.8670(8)
C2B C 0.7741(6) 0.3481(6) 0.9561(8)
O9B O 0.6167(4) 0.4291(4) 0.5093(5)
O10B O 0.6719(4) 0.5765(4) 0.6288(6)
O11B O 0.5251(4) 0.4119(5) 0.5829(6)
O12B O 0.5777(4) 0.5809(5) 0.6996(6)
C5B C 0.5803(5) 0.4543(6) 0.5750(8)
C6B C 0.6113(5) 0.5450(6) 0.6416(8)
Ag2B Ag 0.75268(6) 0.19659(6) 0.75492(7)
Ag3B Ag 0.57815(6) 0.31015(7) 0.37163(10)
Cr1B Cr 0.70919(8) 0.49538(9) 1.02454(12)
Ag4B Ag 0.9245(4) 0.3459(6) 1.1973(7)
O5E O 0.2205(4) 0.4316(5) 0.8414(6)
O6E O 0.2575(4) 0.4152(4) 1.0661(6)
O7E O 0.1478(5) 0.3025(5) 0.8022(7)
O8E O 0.1844(4) 0.2902(5) 1.0436(7)
C3E C 0.1897(5) 0.3623(7) 0.8710(8)
C4E C 0.2110(5) 0.3533(6) 1.0024(8)
O13B O 0.4862(10) 0.1923(10) 0.3930(11)
O14B O 0.8945(11) 0.4648(16) 1.3441(18)
O15B O 0.9430(10) 0.5213(14) 1.1035(24)
Ag3F Ag 0.42185(6) 0.68985(7) 0.62837(10)
Ag3D Ag 0.57815(6) 0.68985(7) 0.87163(10)
Ag3E Ag 0.07815(6) 0.18985(7) 0.87163(10)
O10C O 0.1719(4) 0.0765(4) 0.6288(6)
Ag4E Ag 0.4245(4) 0.1541(6) 0.6973(7)
Ag1F Ag 0.50000 0.54323(9) 1.25000
Ag2E Ag 0.25268(6) 0.30341(6) 1.25492(7)
O12F O 0.4223(4) 0.4191(5) 1.3004(6)
O5C O 0.2205(4) 0.5684(5) 0.3414(6)
O6C O 0.2575(4) 0.5848(4) 0.5661(6)
O9F O 0.3833(4) 0.5709(4) 0.4907(5)
O10F O 0.3281(4) 0.4235(4) 0.3712(6)
Cr1C Cr 0.20919(8) -0.00462(9) 1.02454(12)
Cr1F Cr 0.29081(8) 0.50462(9) 0.97546(12)
Ag2C Ag 0.25268(6) 0.69659(6) 0.75492(7)
Ag2E_2 Ag 0.25268(6) 0.30341(6) 0.25492(7)
O3E O 0.1603(5) 0.2009(5) 0.2840(8)
Ag4G Ag 0.5755(4) 0.1541(6) 0.8027(7)
Cr1D Cr 0.70919(8) 0.50462(9) 0.52454(12)
Ag2A Ag 0.74732(6) 0.69659(6) 0.74508(7)
O8B O 0.6844(4) 0.2098(5) 0.5436(7)
Ag1F_2 Ag 0.50000 0.54323(9) 0.25000
Ag2G Ag 0.74732(6) 0.30341(6) 0.24508(7)
O7B O 0.6478(5) 0.1975(5) 0.3022(7)
O12D O 0.5777(4) 0.4191(5) 0.1996(6)
O5A O 0.7795(4) 0.5684(5) 1.1586(6)
O6A O 0.7425(4) 0.5848(4) 0.9339(6)
O9D O 0.6167(4) 0.5709(4) 1.0093(5)
O10D O 0.6719(4) 0.4235(4) 1.1288(6)
Ag2G_2 Ag 0.74732(6) 0.30341(6) 1.24508(7)
O3G O 0.8397(5) 0.2009(5) 1.2160(8)
loop_
_geom_bond_atom_site_label_1
_geom_bond_atom_site_label_2
_geom_bond_site_symmetry_1
_geom_bond_site_symmetry_2
Ag1 O1 1_555 1_555
Ag2 O3 1_555 1_555
Ag3 O7 1_555 1_555
Cr1 O1 1_555 1_555
O1 C1 1_555 1_555
O2 Cr1 1_555 1_555
O3 C1 1_555 1_555
O4 Ag2 1_555 1_555
C1 C2 1_555 1_555
C2 O2 1_555 1_555
O5 C3 1_555 1_555
O6 Ag2 1_555 1_555
O7 C3 1_555 1_555
O8 Ag2 1_555 1_555
C3 C4 1_555 1_555
C4 O6 1_555 1_555
O9 Ag3 1_555 1_555
O10 C6 1_555 1_555
O11 Ag1 1_555 1_555
O12 Ag1 1_555 1_555
C5 O9 1_555 1_555
C6 O12 1_555 1_555
Ag4 O2 1_555 1_555
O13 Ag3 1_555 1_555
O14 Ag4 1_555 1_555
O15 Ag4 1_555 1_555
O1B Ag1 1_555 1_555
O2B C2B 1_555 1_555
O3B C1B 1_555 1_555
O4B C2B 1_555 1_555
C1B O1B 1_555 1_555
C2B C1B 1_555 1_555
O9B C5B 1_555 1_555
O10B C6B 1_555 1_555
O11B Ag1 1_555 1_555
O12B Ag1 1_555 1_555
C5B O11B 1_555 1_555
C6B O12B 1_555 1_555
Ag2B O3B 1_555 1_555
Ag3B O9B 1_555 1_555
Cr1B O1B 1_555 1_555
Ag4B O2B 1_555 1_555
O5E C3E 1_555 1_555
O6E C4E 1_555 1_555
O7E Ag2 1_555 1_555
O8E C4E 1_555 1_555
C3E O7E 1_555 1_555
C4E C3E 1_555 1_555
O13B Ag3B 1_555 1_555
O14B Ag4B 1_555 1_555
O15B Ag4B 1_555 1_555
Ag3F O12 1_555 1_555
Ag3D O12B 1_555 1_555
Ag3E O7E 1_555 1_555
O10C Ag2 1_555 1_555
Ag4E O3 1_555 1_555
Ag1F O12F 1_555 1_555
Ag2E O7 1_555 1_555
O12F Ag3 1_555 1_555
O5C Cr1 1_555 1_555
O6C Cr1 1_555 1_555
O9F Cr1 1_555 1_555
O10F Cr1 1_555 1_555
Cr1C O5 1_555 1_555
Cr1F O9 1_555 1_555
Ag2C O10 1_555 1_555
Ag2E_2 O10F 1_555 1_555
O3E Ag4 1_555 1_555
Ag4G O3B 1_555 1_555
Cr1D O9B 1_555 1_555
Ag2A O10B 1_555 1_555
O8B Ag2B 1_555 1_555
Ag1F_2 O12D 1_555 1_555
Ag2G O7B 1_555 1_555
O7B Ag3B 1_555 1_555
O12D Ag3B 1_555 1_555
O5A Cr1B 1_555 1_555
O6A Cr1B 1_555 1_555
O9D Cr1B 1_555 1_555
O10D Cr1B 1_555 1_555
Ag2G_2 O10D 1_555 1_555
O3G Ag4B 1_555 1_555
Ag3 O8 1_555 1_555
O4 C2 1_555 1_555
O6 Cr1C 1_555 1_555
O8 C4 1_555 1_555
O10 Cr1F 1_555 1_555
O11 C5 1_555 1_555
C5 C6 1_555 1_555
O2B Cr1B 1_555 1_555
O4B Ag2B 1_555 1_555
O10B Cr1D 1_555 1_555
C5B C6B 1_555 1_555
Ag3B O8B 1_555 1_555
O5E Cr1F 1_555 1_555
O6E Ag2E 1_555 1_555
O6E Cr1F 1_555 1_555
O8E Ag3E 1_555 1_555
O8E Ag2E 1_555 1_555
Ag3F O9F 1_555 1_555
Ag3D O9D 1_555 1_555
O6C Ag2C 1_555 1_555
Ag2E_2 O3E 1_555 1_555
Ag2A O6A 1_555 1_555
Ag2G_2 O3G 1_555 1_555

#END
