
#######################################################################
#
#                 Cambridge Crystallographic Data Centre
#                                CCDC 
#
#######################################################################
#
# If this CIF has been generated from an entry in the Cambridge 
# Structural Database, then it will include bibliographic, chemical, 
# crystal, experimental, refinement or atomic coordinate data resulting 
# from the CCDC's data processing and validation procedures.
#
#######################################################################

data_MAXHOJ01
_chemical_formula_moiety         'C8 H19 Ag13 Cl4 N23 O2 1-'
_symmetry_cell_setting           tetragonal
_symmetry_space_group_name_H-M   'I 41/a m d'
_symmetry_Int_Tables_number      141
_space_group_name_Hall           '-I 4bd 2'
loop_
_symmetry_equiv_pos_site_id
_symmetry_equiv_pos_as_xyz
1 x,y,z
2 1/4-y,3/4+x,1/4+z
3 1/4+y,1/4-x,3/4+z
4 1/4+y,3/4+x,1/4-z
5 1/2+x,1/2+y,1/2+z
6 3/4-y,1/4+x,3/4+z
7 3/4+y,3/4-x,1/4+z
8 3/4+y,1/4+x,3/4-z
9 1/2-x,-y,1/2+z
10 1/2-x,y,1/2-z
11 x,-y,-z
12 1/4-y,1/4-x,3/4-z
13 -x,1/2-y,z
14 -x,1/2+y,-z
15 1/2+x,1/2-y,1/2-z
16 3/4-y,3/4-x,1/4-z
17 -x,-y,-z
18 3/4+y,1/4-x,3/4-z
19 3/4-y,3/4+x,1/4-z
20 3/4-y,1/4-x,3/4+z
21 1/2-x,1/2-y,1/2-z
22 1/4+y,3/4-x,1/4-z
23 1/4-y,1/4+x,3/4-z
24 1/4-y,3/4-x,1/4+z
25 1/2+x,y,1/2-z
26 1/2+x,-y,1/2+z
27 -x,y,z
28 3/4+y,3/4+x,1/4+z
29 x,1/2+y,-z
30 x,1/2-y,z
31 1/2-x,1/2+y,1/2+z
32 1/4+y,1/4+x,3/4+z
_cell_length_a                   29.601(3)
_cell_length_b                   29.601(3)
_cell_length_c                   3.4496(3)
_cell_angle_alpha                90
_cell_angle_beta                 90
_cell_angle_gamma                90
_cell_volume                     3022.61
loop_
_atom_site_label
_atom_site_type_symbol
_atom_site_fract_x
_atom_site_fract_y
_atom_site_fract_z
O2 O 0.3274(16) 0.4226(16) 0.1250
H1 H 0.3450 0.4296 0.3683
H1O H 0.3204 0.4050 -0.1183
Ag1 Ag 0.439613(19) 0.310387(19) 0.1250
Ag2 Ag 0.2500 0.2500 0.7500
Cl1 Cl 0.5000 0.2500 -0.3750
C1 C 0.34266(19) 0.2854(2) 0.4527(18)
N1 N 0.3165(2) 0.2500 0.534(2)
N2 N 0.38334(14) 0.27323(17) 0.3267(14)
N3 N 0.3306(5) 0.3339(5) 0.491(5)
H2 H 0.3500 0.3544 0.4323
H3 H 0.3042 0.3414 0.5732
Ag1CA Ag 0.439613(19) 0.189613(19) 0.1250
Ag1AA Ag 0.060387(19) 0.189613(19) 1.3750
Ag1F Ag 0.060387(19) 0.310387(19) 1.3750
Ag1_2 Ag 0.439613(19) 0.310387(19) -0.8750
Ag1C Ag 0.560387(19) 0.189613(19) -0.8750
Ag1C_2 Ag 0.560387(19) 0.189613(19) 0.1250
Ag1Z Ag 0.560387(19) 0.310387(19) -0.8750
Ag1Z_2 Ag 0.560387(19) 0.310387(19) 0.1250
Ag1CA_2 Ag 0.439613(19) 0.189613(19) -0.8750
Ag2E Ag 0.5000 0.5000 -0.5000
Ag2B Ag 0.5000 0.0000 -0.5000
Cl1_2 Cl 0.5000 0.2500 0.6250
Cl1A Cl -0.0000 0.2500 0.8750
Cl1A_2 Cl -0.0000 0.2500 1.8750
C1CA C 0.34266(19) 0.2146(2) 0.4527(18)
C1T C 0.15734(19) 0.2146(2) 1.0473(18)
C1I C 0.15734(19) 0.2854(2) 1.0473(18)
C1O C 0.4646(2) 0.40734(19) -0.2027(18)
C1U C 0.5354(2) 0.40734(19) -0.2027(18)
C1R C 0.4646(2) 0.09266(19) -0.2027(18)
C1C C 0.5354(2) 0.09266(19) -0.2027(18)
N1T N 0.1835(2) 0.2500 0.966(2)
N1U N 0.5000 0.4335(2) -0.284(2)
N1C N 0.5000 0.0665(2) -0.284(2)
N1E N 0.5000 0.5665(2) -0.716(2)
N2CA N 0.38334(14) 0.22677(17) 0.3267(14)
N2T N 0.11666(14) 0.22677(17) 1.1733(14)
N2I N 0.11666(14) 0.27323(17) 1.1733(14)
N2O N 0.47677(17) 0.36666(14) -0.0767(14)
N2U N 0.52323(17) 0.36666(14) -0.0767(14)
N2R N 0.47677(17) 0.13334(14) -0.0767(14)
N2C N 0.52323(17) 0.13334(14) -0.0767(14)
N2AA N 0.02323(17) 0.13334(14) 1.5767(14)
N2F N 0.02323(17) 0.36666(14) 1.5767(14)
N3CA N 0.3306(5) 0.1661(5) 0.491(5)
N3T N 0.1694(5) 0.1661(5) 1.009(5)
N3I N 0.1694(5) 0.3339(5) 1.009(5)
N3O N 0.4161(5) 0.4194(5) -0.241(5)
N3U N 0.5839(5) 0.4194(5) -0.241(5)
N3R N 0.4161(5) 0.0806(5) -0.241(5)
N3C N 0.5839(5) 0.0806(5) -0.241(5)
H2CA H 0.3500 0.1456 0.4323
H2T H 0.1500 0.1456 1.0677
H2I H 0.1500 0.3544 1.0677
H2O H 0.3956 0.4000 -0.1823
H2U H 0.6044 0.4000 -0.1823
H2R H 0.3956 0.1000 -0.1823
H2C H 0.6044 0.1000 -0.1823
H3CA H 0.3042 0.1586 0.5732
H3T H 0.1958 0.1586 0.9268
H3I H 0.1958 0.3414 0.9268
H3O H 0.4086 0.4458 -0.3232
H3U H 0.5914 0.4458 -0.3232
H3R H 0.4086 0.0542 -0.3232
H3C H 0.5914 0.0542 -0.3232
O1 O 0.2500 0.3526(13) 0.2500
loop_
_geom_bond_atom_site_label_1
_geom_bond_atom_site_label_2
_geom_bond_site_symmetry_1
_geom_bond_site_symmetry_2
O2 H1 1_555 1_555
Ag1 Cl1 1_555 1_555
Ag2 N1 1_555 1_555
Cl1 Ag1CA 1_555 1_555
C1 N1 1_555 1_555
N1 C1CA 1_555 1_555
N2 Ag1 1_555 1_555
N3 C1 1_555 1_555
H2 N3 1_555 1_555
H3 N3 1_555 1_555
H1O O2 1_555 1_555
Ag1CA Cl1_2 1_555 1_555
Ag1AA Cl1A 1_555 1_555
Ag1F Cl1A 1_555 1_555
Ag1_2 Cl1 1_555 1_555
Ag1C Cl1 1_555 1_555
Ag1C_2 Cl1 1_555 1_555
Ag1Z Cl1 1_555 1_555
Ag1Z_2 Cl1 1_555 1_555
Ag1CA_2 Cl1 1_555 1_555
Ag2E N1U 1_555 1_555
Ag2B N1C 1_555 1_555
Cl1_2 Ag1 1_555 1_555
Cl1A_2 Ag1AA 1_555 1_555
C1CA N2CA 1_555 1_555
C1T N1T 1_555 1_555
C1I N1T 1_555 1_555
C1O N1U 1_555 1_555
C1U N1U 1_555 1_555
C1R N1C 1_555 1_555
C1C N1C 1_555 1_555
N1T Ag2 1_555 1_555
N1E Ag2E 1_555 1_555
N2CA N2 1_555 1_555
N2T Ag1AA 1_555 1_555
N2I Ag1F 1_555 1_555
N2O Ag1 1_555 1_555
N2U Ag1Z_2 1_555 1_555
N2R Ag1CA 1_555 1_555
N2C Ag1C_2 1_555 1_555
N2AA Ag1AA 1_555 1_555
N2F Ag1F 1_555 1_555
N3CA C1CA 1_555 1_555
N3T C1T 1_555 1_555
N3I C1I 1_555 1_555
N3O C1O 1_555 1_555
N3U C1U 1_555 1_555
N3R C1R 1_555 1_555
N3C C1C 1_555 1_555
H2CA N3CA 1_555 1_555
H2T N3T 1_555 1_555
H2I N3I 1_555 1_555
H2O N3O 1_555 1_555
H2U N3U 1_555 1_555
H2R N3R 1_555 1_555
H2C N3C 1_555 1_555
H3CA N3CA 1_555 1_555
H3T N3T 1_555 1_555
H3I N3I 1_555 1_555
H3O N3O 1_555 1_555
H3U N3U 1_555 1_555
H3R N3R 1_555 1_555
H3C N3C 1_555 1_555
C1 N2 1_555 1_555
Ag1CA N2CA 1_555 1_555
Ag1F Cl1A_2 1_555 1_555
Ag1C_2 Cl1_2 1_555 1_555
Ag1Z_2 Cl1_2 1_555 1_555
C1T N2T 1_555 1_555
C1I N2I 1_555 1_555
C1O N2O 1_555 1_555
C1U N2U 1_555 1_555
C1R N2R 1_555 1_555
C1C N2C 1_555 1_555
N2T N2I 1_555 1_555
N2O N2U 1_555 1_555
N2R N2C 1_555 1_555

#END
