
#######################################################################
#
#                 Cambridge Crystallographic Data Centre
#                                CCDC 
#
#######################################################################
#
# If this CIF has been generated from an entry in the Cambridge 
# Structural Database, then it will include bibliographic, chemical, 
# crystal, experimental, refinement or atomic coordinate data resulting 
# from the CCDC's data processing and validation procedures.
#
#######################################################################

data_CIFGUV
_chemical_formula_moiety         'C8 H2 Co4 N4 O16'
_symmetry_cell_setting           orthorhombic
_symmetry_space_group_name_H-M   'I m m a'
_symmetry_Int_Tables_number      74
_space_group_name_Hall           '-I 2b 2'
loop_
_symmetry_equiv_pos_site_id
_symmetry_equiv_pos_as_xyz
1 x,y,z
2 -x,1/2-y,z
3 -x,1/2+y,-z
4 x,-y,-z
5 1/2+x,1/2+y,1/2+z
6 1/2-x,-y,1/2+z
7 1/2-x,y,1/2-z
8 1/2+x,1/2-y,1/2-z
9 -x,-y,-z
10 x,1/2+y,-z
11 x,1/2-y,z
12 -x,y,z
13 1/2-x,1/2-y,1/2-z
14 1/2+x,y,1/2-z
15 1/2+x,-y,1/2+z
16 1/2-x,1/2+y,1/2+z
_cell_length_a                   17.9930(6)
_cell_length_b                   7.2497(3)
_cell_length_c                   11.5979(4)
_cell_angle_alpha                90
_cell_angle_beta                 90
_cell_angle_gamma                90
_cell_volume                     1512.87
loop_
_atom_site_label
_atom_site_type_symbol
_atom_site_fract_x
_atom_site_fract_y
_atom_site_fract_z
O4 O 0.662(2) 0.2500 -0.051(5)
Co1 Co 0.5000 0.0000 0.5000
O1 O 0.58268(10) 0.0958(3) 0.39725(19)
C1 C 0.6096(2) 0.2500 0.3737(3)
C2 C 0.6819(2) 0.2500 0.3091(4)
C3 C 0.71653(17) 0.0870(4) 0.2791(3)
N1 N 0.6901(7) -0.0839(16) 0.3231(14)
O2 O 0.6461(6) -0.1584(15) 0.2558(12)
O3 O 0.7150(7) -0.1493(17) 0.4127(12)
O1F O 0.91732(10) 0.0958(3) 0.10275(19)
C1F C 0.8904(2) 0.2500 0.1263(3)
C2F C 0.8181(2) 0.2500 0.1909(4)
C3F C 0.78347(17) 0.0870(4) 0.2209(3)
N1F N 0.8099(7) -0.0839(16) 0.1769(14)
O2F O 0.8539(6) -0.1584(15) 0.2442(12)
O3F O 0.7850(7) -0.1493(17) 0.0873(12)
O1J O 0.58268(10) 0.4042(3) 0.39725(19)
C3J C 0.71653(17) 0.4130(4) 0.2791(3)
N1J N 0.6901(7) 0.5839(16) 0.3231(14)
O2J O 0.6461(6) 0.6584(15) 0.2558(12)
O3J O 0.7150(7) 0.6493(17) 0.4127(12)
O1L O 0.91732(10) 0.4042(3) 0.10275(19)
C3L C 0.78347(17) 0.4130(4) 0.2209(3)
N1L N 0.8099(7) 0.5839(16) 0.1769(14)
O2L O 0.8539(6) 0.6584(15) 0.2442(12)
O3L O 0.7850(7) 0.6493(17) 0.0873(12)
Co1A Co 0.5000 0.5000 0.5000
Co1D Co 1.0000 0.5000 0.0000
Co1E Co 1.0000 0.0000 0.0000
O1C O 0.58268(10) -0.0958(3) 0.60275(19)
O1H O 0.41732(10) -0.0958(3) 0.60275(19)
O1K O 0.41732(10) 0.0958(3) 0.39725(19)
loop_
_geom_bond_atom_site_label_1
_geom_bond_atom_site_label_2
_geom_bond_site_symmetry_1
_geom_bond_site_symmetry_2
Co1 O1 1_555 1_555
O1 C1 1_555 1_555
C1 C2 1_555 1_555
C2 C3 1_555 1_555
C3 N1 1_555 1_555
N1 O2 1_555 1_555
O3 N1 1_555 1_555
O1F C1F 1_555 1_555
C1F C2F 1_555 1_555
C2F C3F 1_555 1_555
C3F C3 1_555 1_555
N1F C3F 1_555 1_555
O2F N1F 1_555 1_555
O3F N1F 1_555 1_555
O1J C1 1_555 1_555
C3J C2 1_555 1_555
N1J C3J 1_555 1_555
O2J N1J 1_555 1_555
O3J N1J 1_555 1_555
O1L C1F 1_555 1_555
C3L C2F 1_555 1_555
N1L C3L 1_555 1_555
O2L N1L 1_555 1_555
O3L N1L 1_555 1_555
Co1A O1J 1_555 1_555
Co1D O1L 1_555 1_555
Co1E O1F 1_555 1_555
O1C Co1 1_555 1_555
O1H Co1 1_555 1_555
O1K Co1 1_555 1_555
C3J C3L 1_555 1_555

#END
