
#######################################################################
#
#                 Cambridge Crystallographic Data Centre
#                                CCDC 
#
#######################################################################
#
# If this CIF has been generated from an entry in the Cambridge 
# Structural Database, then it will include bibliographic, chemical, 
# crystal, experimental, refinement or atomic coordinate data resulting 
# from the CCDC's data processing and validation procedures.
#
#######################################################################

data_LAGVEX
_chemical_formula_moiety         '(C63 H49 N13 O15 Zn3)n'
_symmetry_cell_setting           triclinic
_symmetry_space_group_name_H-M   'P -1'
_symmetry_Int_Tables_number      2
_space_group_name_Hall           '-P 1'
loop_
_symmetry_equiv_pos_site_id
_symmetry_equiv_pos_as_xyz
1 x,y,z
2 -x,-y,-z
_cell_length_a                   14.366(2)
_cell_length_b                   15.189(2)
_cell_length_c                   18.833(3)
_cell_angle_alpha                67.910(3)
_cell_angle_beta                 82.666(3)
_cell_angle_gamma                81.065(3)
_cell_volume                     3750.81
loop_
_atom_site_label
_atom_site_type_symbol
_atom_site_fract_x
_atom_site_fract_y
_atom_site_fract_z
C61 C 0.1215(4) -0.0088(7) 0.8709(5)
H43 H 0.1599 -0.0298 0.9137
H44 H 0.1482 0.0422 0.8292
H45 H 0.1191 -0.0612 0.8547
C62 C 0.0036(5) 0.1241(5) 0.8808(4)
H46 H 0.0146 0.1610 0.8271
H47 H 0.0416 0.1427 0.9100
H48 H -0.0620 0.1354 0.8966
C63 C -0.0372(4) -0.0357(5) 0.9221(3)
H49 H -0.0187 -0.0993 0.9278
N13 N 0.0273(3) 0.0233(4) 0.8937(3)
O16 O -0.1198(3) -0.0146(3) 0.9419(2)
C1 C 0.6080(4) 0.0371(4) 0.2284(3)
H1 H 0.6241 0.0655 0.1761
C2 C 0.6526(4) 0.0436(4) 0.2832(2)
H2 H 0.7052 0.0753 0.2768
C3 C 0.5352(3) -0.0413(3) 0.3336(2)
H3 H 0.4922 -0.0781 0.3693
C4 C 0.6307(3) -0.0250(3) 0.4273(2)
C5 C 0.5816(3) -0.0861(3) 0.4893(2)
H4 H 0.5308 -0.1124 0.4823
C6 C 0.6097(3) -0.1076(3) 0.5627(2)
C7 C 0.6853(3) -0.0701(3) 0.5741(2)
H5 H 0.7040 -0.0854 0.6232
C8 C 0.7329(3) -0.0088(3) 0.5103(2)
C9 C 0.7059(3) 0.0145(3) 0.4375(2)
H6 H 0.7379 0.0565 0.3955
C10 C 0.4956(3) -0.2272(4) 0.6232(3)
H7 H 0.4770 -0.2311 0.5791
C11 C 0.4660(3) -0.2762(4) 0.6964(3)
H8 H 0.4228 -0.3208 0.7114
C12 C 0.5639(3) -0.1875(3) 0.7020(2)
H9 H 0.6020 -0.1577 0.7203
C13 C 0.8331(3) 0.0358(4) 0.5856(3)
H10 H 0.7988 0.0119 0.6328
C14 C 0.9385(3) 0.1031(4) 0.4978(2)
H11 H 0.9911 0.1342 0.4733
C15 C 0.8782(3) 0.0742(4) 0.4639(2)
H12 H 0.8812 0.0822 0.4122
C16 C 0.5326(3) 0.0541(3) 0.0541(2)
H13 H 0.4837 0.1022 0.0536
C17 C 0.6205(3) -0.0807(4) 0.0851(2)
H14 H 0.6432 -0.1441 0.1114
C18 C 0.6643(3) -0.0210(3) 0.0231(2)
H15 H 0.7213 -0.0353 -0.0021
C19 C 0.6251(3) 0.1528(3) -0.0592(2)
C20 C 0.5652(3) 0.2350(3) -0.0655(2)
H16 H 0.5137 0.2345 -0.0301
C21 C 0.5835(3) 0.3179(3) -0.1257(2)
C22 C 0.6579(3) 0.3220(3) -0.1789(2)
H17 H 0.6683 0.3792 -0.2190
C23 C 0.7170(3) 0.2397(3) -0.1720(2)
C24 C 0.7020(3) 0.1548(3) -0.1117(2)
H18 H 0.7433 0.0996 -0.1066
C25 C 0.8391(4) 0.3173(4) -0.2752(3)
H19 H 0.8274 0.3795 -0.2756
C26 C 0.9034(4) 0.2852(4) -0.3197(3)
H20 H 0.9461 0.3217 -0.3561
C27 C 0.8292(3) 0.1665(4) -0.2490(3)
H21 H 0.8088 0.1061 -0.2275
C28 C 0.5463(3) 0.4857(4) -0.1369(3)
H22 H 0.6088 0.4972 -0.1402
C29 C 0.4242(3) 0.4142(4) -0.1294(3)
H23 H 0.3858 0.3685 -0.1257
C30 C 0.3968(3) 0.5033(4) -0.1336(3)
H24 H 0.3344 0.5313 -0.1341
C31 C 1.3060(3) 0.7097(4) -0.1036(3)
C32 C 1.2146(3) 0.6966(3) -0.0553(3)
C33 C 1.2063(3) 0.6808(4) 0.0211(3)
H25 H 1.2595 0.6801 0.0448
C34 C 1.1209(3) 0.6660(5) 0.0648(3)
H26 H 1.1171 0.6541 0.1172
C35 C 1.0423(3) 0.6690(4) 0.0293(3)
C36 C 1.0465(3) 0.6877(4) -0.0490(3)
H27 H 0.9927 0.6908 -0.0729
C37 C 1.1332(3) 0.7016(4) -0.0904(3)
H28 H 1.1373 0.7146 -0.1430
C38 C 0.8782(3) 0.6638(4) 0.0381(3)
C39 C 0.8535(4) 0.5872(4) 0.0262(3)
H29 H 0.8905 0.5283 0.0433
C40 C 0.7735(3) 0.5972(4) -0.0114(3)
H30 H 0.7560 0.5451 -0.0189
C41 C 0.7193(3) 0.6858(3) -0.0379(2)
C42 C 0.7437(3) 0.7612(4) -0.0229(2)
H31 H 0.7059 0.8197 -0.0384
C43 C 0.8233(3) 0.7510(4) 0.0148(3)
H32 H 0.8396 0.8022 0.0243
C44 C 0.6330(4) 0.6996(4) -0.0796(3)
C45 C 0.4654(6) -0.2489(5) 0.2808(3)
C46 C 0.4534(5) -0.3475(4) 0.3336(3)
C47 C 0.5253(5) -0.4206(5) 0.3323(3)
H33 H 0.5772 -0.4058 0.2968
C48 C 0.5216(4) -0.5140(4) 0.3822(4)
H34 H 0.5701 -0.5617 0.3807
C49 C 0.4450(4) -0.5345(4) 0.4335(3)
C50 C 0.3736(4) -0.4643(4) 0.4361(3)
H35 H 0.3220 -0.4797 0.4718
C51 C 0.3774(4) -0.3711(4) 0.3861(3)
H36 H 0.3284 -0.3241 0.3881
C52 C 0.3659(3) -0.6708(4) 0.5111(3)
C53 C 0.3022(4) -0.6630(5) 0.4595(3)
H37 H 0.3128 -0.6271 0.4075
C54 C 0.2226(4) -0.7096(5) 0.4865(4)
H38 H 0.1778 -0.7032 0.4529
C55 C 0.2090(4) -0.7662(4) 0.5640(4)
C56 C 0.2780(5) -0.7737(4) 0.6130(4)
H39 H 0.2709 -0.8122 0.6647
C57 C 0.3549(4) -0.7256(4) 0.5860(3)
H40 H 0.3998 -0.7305 0.6192
C58 C 0.1213(6) -0.8175(7) 0.5936(8)
N1 N 0.5348(3) -0.0171(3) 0.25932(19)
N2 N 0.6052(2) -0.0066(3) 0.35203(18)
N3 N 0.5584(2) -0.1709(3) 0.62695(19)
N4 N 0.5089(3) -0.2506(3) 0.74555(19)
N5 N 0.8115(3) 0.0306(3) 0.52017(19)
N6 N 0.9096(3) 0.0793(3) 0.5739(2)
N7 N 0.5358(2) -0.0339(3) 0.10447(18)
N8 N 0.6086(2) 0.0661(3) 0.00359(18)
N9 N 0.7930(3) 0.2401(3) -0.2282(2)
N10 N 0.8976(3) 0.1899(3) -0.3039(2)
N11 N 0.4738(3) 0.5484(3) -0.1371(2)
N12 N 0.5206(3) 0.4034(3) -0.1314(2)
C59 C 0.2861(3) 0.0565(3) 0.2015(2)
H41 H 0.2796 0.1217 0.1664
C60 C 0.9970(5) -0.0938(5) 0.7520(3)
O1 O 0.9589(2) 0.6541(3) 0.07542(19)
O2 O 0.4483(3) -0.6274(3) 0.4859(3)
O3 O 1.3793(2) 0.7032(3) -0.0695(2)
O4 O 1.3096(2) 0.7203(3) -0.17183(19)
O5 O 0.5788(2) 0.7732(3) -0.09412(19)
O6 O 0.6158(3) 0.6311(3) -0.0964(2)
O7 O 0.5334(3) -0.2315(3) 0.2301(2)
O8 O 0.4054(4) -0.1832(4) 0.2880(3)
O9 O 0.0555(5) -0.7906(8) 0.5516(5)
O10 O 0.1249(9) -0.8643(10) 0.6810(8)
O11 O 0.3024(3) 0.0604(3) 0.26131(19)
O12 O 0.3363(2) 0.0102(2) 0.16353(16)
O13 O 0.9514(3) -0.0174(3) 0.74608(19)
O14 O 1.0629(5) -0.1096(4) 0.7102(3)
Zn1 Zn 0.45302(4) -0.06572(4) 0.20537(3)
Zn2 Zn 0.97802(4) 0.09642(4) 0.65379(3)
Zn3 Zn 0.48812(3) 0.68308(4) -0.13964(3)
H42 H 0.979(5) -0.149(5) 0.798(4)
N4_2 N 0.5089(3) 0.7494(3) -0.25445(19)
N10_2 N 0.8976(3) 0.1899(3) 0.6961(2)
O3_2 O 0.3793(2) 0.7032(3) -0.0695(2)
O9_2 O 1.0555(5) 0.2094(8) 0.5516(5)
O10_2 O 1.1249(9) 0.1357(10) 0.6810(8)
Zn2_2 Zn -0.02198(4) -0.90358(4) 0.65379(3)
Zn2_3 Zn 0.97802(4) 0.09642(4) -0.34621(3)
Zn3_2 Zn 0.48812(3) -0.31692(4) 0.86036(3)
Zn3_3 Zn 1.48812(3) 0.68308(4) -0.13964(3)
loop_
_geom_bond_atom_site_label_1
_geom_bond_atom_site_label_2
_geom_bond_site_symmetry_1
_geom_bond_site_symmetry_2
C1 H1 1_555 1_555
C2 C1 1_555 1_555
H2 C2 1_555 1_555
C3 H3 1_555 1_555
C4 C5 1_555 1_555
C5 H4 1_555 1_555
C6 C5 1_555 1_555
C7 C6 1_555 1_555
H5 C7 1_555 1_555
C8 C7 1_555 1_555
C9 C4 1_555 1_555
H6 C9 1_555 1_555
C10 H7 1_555 1_555
C11 C10 1_555 1_555
H8 C11 1_555 1_555
C12 H9 1_555 1_555
C13 H10 1_555 1_555
C14 H11 1_555 1_555
C15 C14 1_555 1_555
H12 C15 1_555 1_555
C16 H13 1_555 1_555
C17 H14 1_555 1_555
C18 C17 1_555 1_555
H15 C18 1_555 1_555
C19 C20 1_555 1_555
C20 H16 1_555 1_555
C21 C20 1_555 1_555
C22 C21 1_555 1_555
H17 C22 1_555 1_555
C23 C22 1_555 1_555
C24 C19 1_555 1_555
H18 C24 1_555 1_555
C25 H19 1_555 1_555
C26 C25 1_555 1_555
H20 C26 1_555 1_555
C27 H21 1_555 1_555
C28 H22 1_555 1_555
C29 H23 1_555 1_555
C30 C29 1_555 1_555
H24 C30 1_555 1_555
C31 C32 1_555 1_555
C32 C33 1_555 1_555
C33 H25 1_555 1_555
C34 C33 1_555 1_555
H26 C34 1_555 1_555
C35 C34 1_555 1_555
C36 C35 1_555 1_555
H27 C36 1_555 1_555
C37 C32 1_555 1_555
H28 C37 1_555 1_555
C38 C39 1_555 1_555
C39 H29 1_555 1_555
C40 C39 1_555 1_555
H30 C40 1_555 1_555
C41 C40 1_555 1_555
C42 C41 1_555 1_555
H31 C42 1_555 1_555
C43 C38 1_555 1_555
H32 C43 1_555 1_555
C44 C41 1_555 1_555
C45 C46 1_555 1_555
C46 C47 1_555 1_555
C47 H33 1_555 1_555
C48 C47 1_555 1_555
H34 C48 1_555 1_555
C49 C48 1_555 1_555
C50 C49 1_555 1_555
H35 C50 1_555 1_555
C51 C46 1_555 1_555
H36 C51 1_555 1_555
C52 C53 1_555 1_555
C53 H37 1_555 1_555
C54 C53 1_555 1_555
H38 C54 1_555 1_555
C55 C54 1_555 1_555
C56 C55 1_555 1_555
H39 C56 1_555 1_555
C57 C52 1_555 1_555
H40 C57 1_555 1_555
C58 C55 1_555 1_555
N1 C1 1_555 1_555
N2 C2 1_555 1_555
N3 C6 1_555 1_555
N4 C11 1_555 1_555
N5 C8 1_555 1_555
N6 C13 1_555 1_555
N7 C16 1_555 1_555
N8 C16 1_555 1_555
N9 C23 1_555 1_555
N10 C26 1_555 1_555
N11 C28 1_555 1_555
N12 C21 1_555 1_555
C59 H41 1_555 1_555
C60 O13 1_555 1_555
O1 C35 1_555 1_555
O2 C49 1_555 1_555
O3 C31 1_555 1_555
O4 C31 1_555 1_555
O5 C44 1_555 1_555
O6 C44 1_555 1_555
O7 C45 1_555 1_555
O8 C45 1_555 1_555
O9 C58 1_555 1_555
O10 C58 1_555 1_555
O11 C59 1_555 1_555
O12 C59 1_555 1_555
O13 Zn2 1_555 1_555
O14 C60 1_555 1_555
Zn1 N1 1_555 1_555
Zn2 N6 1_555 1_555
Zn3 N11 1_555 1_555
H42 C60 1_555 1_555
C61 H43 1_555 1_555
H44 C61 1_555 1_555
H45 C61 1_555 1_555
C62 H46 1_555 1_555
H47 C62 1_555 1_555
H48 C62 1_555 1_555
C63 H49 1_555 1_555
N13 C61 1_555 1_555
O16 C63 1_555 1_555
N4_2 Zn3 1_555 1_555
N10_2 Zn2 1_555 1_555
O3_2 Zn3 1_555 1_555
O9_2 Zn2 1_555 1_555
O10_2 Zn2 1_555 1_555
Zn2_2 O9 1_555 1_555
Zn2_3 N10 1_555 1_555
Zn3_2 N4 1_555 1_555
Zn3_3 O3 1_555 1_555
C3 N1 1_555 1_555
C3 N2 1_555 1_555
C4 N2 1_555 1_555
C8 C9 1_555 1_555
C10 N3 1_555 1_555
C12 N3 1_555 1_555
C12 N4 1_555 1_555
C13 N5 1_555 1_555
C14 N6 1_555 1_555
C15 N5 1_555 1_555
C17 N7 1_555 1_555
C18 N8 1_555 1_555
C19 N8 1_555 1_555
C23 C24 1_555 1_555
C25 N9 1_555 1_555
C27 N9 1_555 1_555
C27 N10 1_555 1_555
C28 N12 1_555 1_555
C29 N12 1_555 1_555
C30 N11 1_555 1_555
C36 C37 1_555 1_555
C38 O1 1_555 1_555
C42 C43 1_555 1_555
C50 C51 1_555 1_555
C52 O2 1_555 1_555
C56 C57 1_555 1_555
N7 Zn1 1_555 1_555
O5 Zn3 1_555 1_555
O6 Zn3 1_555 1_555
O7 Zn1 1_555 1_555
O8 Zn1 1_555 1_555
O10 Zn2_2 1_555 1_555
O12 Zn1 1_555 1_555
C62 N13 1_555 1_555
C63 N13 1_555 1_555

#END
