
#######################################################################
#
#                 Cambridge Crystallographic Data Centre
#                                CCDC 
#
#######################################################################
#
# If this CIF has been generated from an entry in the Cambridge 
# Structural Database, then it will include bibliographic, chemical, 
# crystal, experimental, refinement or atomic coordinate data resulting 
# from the CCDC's data processing and validation procedures.
#
#######################################################################

data_HOVQUG
_chemical_formula_moiety         '(C40 H24 Cu5 N13 O16 2-)n'
_symmetry_cell_setting           orthorhombic
_symmetry_space_group_name_H-M   'F d d d'
_symmetry_Int_Tables_number      70
_space_group_name_Hall           '-F 2uv 2vw'
loop_
_symmetry_equiv_pos_site_id
_symmetry_equiv_pos_as_xyz
1 x,y,z
2 3/4-x,3/4-y,z
3 3/4-x,y,3/4-z
4 x,3/4-y,3/4-z
5 x,1/2+y,1/2+z
6 3/4-x,1/4-y,1/2+z
7 3/4-x,1/2+y,1/4-z
8 x,1/4-y,1/4-z
9 1/2+x,y,1/2+z
10 1/4-x,3/4-y,1/2+z
11 1/4-x,y,1/4-z
12 1/2+x,3/4-y,1/4-z
13 1/2+x,1/2+y,z
14 1/4-x,1/4-y,z
15 1/4-x,1/2+y,3/4-z
16 1/2+x,1/4-y,3/4-z
17 -x,-y,-z
18 1/4+x,1/4+y,-z
19 1/4+x,-y,1/4+z
20 -x,1/4+y,1/4+z
21 -x,1/2-y,1/2-z
22 1/4+x,3/4+y,1/2-z
23 1/4+x,1/2-y,3/4+z
24 -x,3/4+y,3/4+z
25 1/2-x,-y,1/2-z
26 3/4+x,1/4+y,1/2-z
27 3/4+x,-y,3/4+z
28 1/2-x,1/4+y,3/4+z
29 1/2-x,1/2-y,-z
30 3/4+x,3/4+y,-z
31 3/4+x,1/2-y,1/4+z
32 1/2-x,3/4+y,1/4+z
_cell_length_a                   16.366(3)
_cell_length_b                   38.437(8)
_cell_length_c                   17.626(4)
_cell_angle_alpha                90
_cell_angle_beta                 90
_cell_angle_gamma                90
_cell_volume                     11087.8
loop_
_atom_site_label
_atom_site_type_symbol
_atom_site_fract_x
_atom_site_fract_y
_atom_site_fract_z
_atom_site_U_iso_or_equiv
_atom_site_thermal_displace_type
Cu1 Cu 0.00915(3) 0.003151(12) 0.19181(3) 0.0423 Uani
Cu2 Cu 0.1250 0.1250 0.1250 0.0451 Uani
O1 O -0.0544(10) -0.0498(8) 0.2477(17) 0.0757 Uani
O2 O 0.1967(2) -0.05859(8) 0.4774(2) 0.0620 Uani
O3 O 0.0938(2) -0.08993(9) 0.4349(2) 0.0693 Uani
N1 N 0.0850(2) -0.00654(8) 0.27172(19) 0.0400 Uani
N2 N 0.17995(18) -0.01005(7) 0.36323(17) 0.0352 Uani
N3 N 0.1862(2) 0.09216(8) 0.19770(19) 0.0433 Uani
C1 C 0.1513(2) 0.00851(9) 0.30314(19) 0.0332 Uani
C2 C 0.0708(2) -0.03582(9) 0.3130(2) 0.0443 Uani
C3 C 0.1290(2) -0.03801(9) 0.3691(2) 0.0401 Uani
C4 C 0.1541(2) 0.06202(9) 0.2229(2) 0.0387 Uani
H1 H 0.1048 0.0548 0.2020 0.0800 Uiso
C5 C 0.1894(2) 0.04108(9) 0.2776(2) 0.0332 Uani
C6 C 0.2638(3) 0.05215(12) 0.3066(3) 0.0513 Uani
H2 H 0.2908 0.0389 0.3429 0.0800 Uiso
C7 C 0.2975(3) 0.08285(13) 0.2815(3) 0.0623 Uani
H3 H 0.3474 0.0903 0.3006 0.0800 Uiso
C8 C 0.2570(3) 0.10241(11) 0.2281(3) 0.0537 Uani
H4 H 0.2796 0.1234 0.2127 0.0800 Uiso
C9 C 0.0029(3) -0.05938(13) 0.2929(4) 0.0740 Uani
C10 C 0.1420(3) -0.06342(11) 0.4313(2) 0.0490 Uani
H5 H -0.029(4) -0.0731(17) 0.393(4) 0.0800 Uiso
O4 O -0.0160(12) -0.0831(5) 0.3469(10) 0.0687 Uani
Cu1G Cu 0.00915(3) 0.246849(12) 0.05819(3) 0.0423 Uani
O1G O -0.0544(10) 0.2998(8) 0.0023(17) 0.0757 Uani
O2G O 0.1967(2) 0.30859(8) -0.2274(2) 0.0620 Uani
O3G O 0.0938(2) 0.33993(9) -0.1849(2) 0.0693 Uani
N1G N 0.0850(2) 0.25654(8) -0.02172(19) 0.0400 Uani
N2G N 0.17995(18) 0.26005(7) -0.11323(17) 0.0352 Uani
N3G N 0.1862(2) 0.15784(8) 0.05230(19) 0.0433 Uani
C1G C 0.1513(2) 0.24149(9) -0.05314(19) 0.0332 Uani
C2G C 0.0708(2) 0.28582(9) -0.0630(2) 0.0443 Uani
C3G C 0.1290(2) 0.28801(9) -0.1191(2) 0.0401 Uani
C4G C 0.1541(2) 0.18798(9) 0.0271(2) 0.0387 Uani
H1G H 0.1048 0.1952 0.0480 0.0800 Uiso
C5G C 0.1894(2) 0.20892(9) -0.0276(2) 0.0332 Uani
C6G C 0.2638(3) 0.19785(12) -0.0566(3) 0.0513 Uani
H2G H 0.2908 0.2111 -0.0929 0.0800 Uiso
C7G C 0.2975(3) 0.16715(13) -0.0315(3) 0.0623 Uani
H3G H 0.3474 0.1597 -0.0506 0.0800 Uiso
C8G C 0.2570(3) 0.14759(11) 0.0219(3) 0.0537 Uani
H4G H 0.2796 0.1266 0.0373 0.0800 Uiso
C9G C 0.0029(3) 0.30938(13) -0.0429(4) 0.0740 Uani
C10G C 0.1420(3) 0.31342(11) -0.1813(2) 0.0490 Uani
H5G H -0.029(4) 0.3231(17) -0.143(4) 0.0800 Uiso
O4G O -0.0160(12) 0.3331(5) -0.0969(10) 0.0687 Uani
Cu1J Cu 0.24085(3) 0.003151(12) 0.05819(3) 0.0423 Uani
O1J O 0.3044(10) -0.0498(8) 0.0023(17) 0.0757 Uani
O2J O 0.0533(2) -0.05859(8) -0.2274(2) 0.0620 Uani
O3J O 0.1562(2) -0.08993(9) -0.1849(2) 0.0693 Uani
N1J N 0.1650(2) -0.00654(8) -0.02172(19) 0.0400 Uani
N2J N 0.07005(18) -0.01005(7) -0.11323(17) 0.0352 Uani
N3J N 0.0638(2) 0.09216(8) 0.05230(19) 0.0433 Uani
C1J C 0.0987(2) 0.00851(9) -0.05314(19) 0.0332 Uani
C2J C 0.1792(2) -0.03582(9) -0.0630(2) 0.0443 Uani
C3J C 0.1210(2) -0.03801(9) -0.1191(2) 0.0401 Uani
C4J C 0.0959(2) 0.06202(9) 0.0271(2) 0.0387 Uani
H1J H 0.1452 0.0548 0.0480 0.0800 Uiso
C5J C 0.0606(2) 0.04108(9) -0.0276(2) 0.0332 Uani
C6J C -0.0138(3) 0.05215(12) -0.0566(3) 0.0513 Uani
H2J H -0.0408 0.0389 -0.0929 0.0800 Uiso
C7J C -0.0475(3) 0.08285(13) -0.0315(3) 0.0623 Uani
H3J H -0.0974 0.0903 -0.0506 0.0800 Uiso
C8J C -0.0070(3) 0.10241(11) 0.0219(3) 0.0537 Uani
H4J H -0.0296 0.1234 0.0373 0.0800 Uiso
C9J C 0.2471(3) -0.05938(13) -0.0429(4) 0.0740 Uani
C10J C 0.1080(3) -0.06342(11) -0.1813(2) 0.0490 Uani
H5J H 0.279(4) -0.0731(17) -0.143(4) 0.0800 Uiso
O4J O 0.2660(12) -0.0831(5) -0.0969(10) 0.0687 Uani
Cu1M Cu 0.24085(3) 0.246849(12) 0.19181(3) 0.0423 Uani
O1M O 0.3044(10) 0.2998(8) 0.2477(17) 0.0757 Uani
O2M O 0.0533(2) 0.30859(8) 0.4774(2) 0.0620 Uani
O3M O 0.1562(2) 0.33993(9) 0.4349(2) 0.0693 Uani
N1M N 0.1650(2) 0.25654(8) 0.27172(19) 0.0400 Uani
N2M N 0.07005(18) 0.26005(7) 0.36323(17) 0.0352 Uani
N3M N 0.0638(2) 0.15784(8) 0.19770(19) 0.0433 Uani
C1M C 0.0987(2) 0.24149(9) 0.30314(19) 0.0332 Uani
C2M C 0.1792(2) 0.28582(9) 0.3130(2) 0.0443 Uani
C3M C 0.1210(2) 0.28801(9) 0.3691(2) 0.0401 Uani
C4M C 0.0959(2) 0.18798(9) 0.2229(2) 0.0387 Uani
H1M H 0.1452 0.1952 0.2020 0.0800 Uiso
C5M C 0.0606(2) 0.20892(9) 0.2776(2) 0.0332 Uani
C6M C -0.0138(3) 0.19785(12) 0.3066(3) 0.0513 Uani
H2M H -0.0408 0.2111 0.3429 0.0800 Uiso
C7M C -0.0475(3) 0.16715(13) 0.2815(3) 0.0623 Uani
H3M H -0.0974 0.1597 0.3006 0.0800 Uiso
C8M C -0.0070(3) 0.14759(11) 0.2281(3) 0.0537 Uani
H4M H -0.0296 0.1266 0.2127 0.0800 Uiso
C9M C 0.2471(3) 0.30938(13) 0.2929(4) 0.0740 Uani
C10M C 0.1080(3) 0.31342(11) 0.4313(2) 0.0490 Uani
H5M H 0.279(4) 0.3231(17) 0.393(4) 0.0800 Uiso
O4M O 0.2660(12) 0.3331(5) 0.3469(10) 0.0687 Uani
Cu1P Cu -0.00915(3) -0.003151(12) -0.19181(3) 0.0423 Uani
Cu1Q Cu 0.25915(3) 0.253151(12) -0.19181(3) 0.0423 Uani
Cu1R Cu 0.25915(3) -0.003151(12) 0.44181(3) 0.0423 Uani
Cu1S Cu -0.00915(3) 0.253151(12) 0.44181(3) 0.0423 Uani
O2X O 0.3033(2) 0.05859(8) 0.0226(2) 0.0620 Uani
O2Y O -0.0533(2) 0.19141(8) 0.0226(2) 0.0620 Uani
O2Z O -0.0533(2) 0.05859(8) 0.2274(2) 0.0620 Uani
O2AA O 0.3033(2) 0.19141(8) 0.2274(2) 0.0620 Uani
N2X N 0.32005(18) 0.01005(7) 0.13677(17) 0.0352 Uani
N2Y N -0.07005(18) 0.23995(7) 0.13677(17) 0.0352 Uani
N2Z N -0.07005(18) 0.01005(7) 0.11323(17) 0.0352 Uani
N2AA N 0.32005(18) 0.23995(7) 0.11323(17) 0.0352 Uani
N4 N -0.1250 -0.1250 0.2433(18) 0.1333 Uani
loop_
_atom_site_aniso_label
_atom_site_aniso_U_11
_atom_site_aniso_U_22
_atom_site_aniso_U_33
_atom_site_aniso_U_23
_atom_site_aniso_U_13
_atom_site_aniso_U_12
Cu1 0.0440(3) 0.0408(3) 0.0420(3) 0.00181(19) -0.0220(2) -0.00043(19)
Cu2 0.0607(6) 0.0264(4) 0.0481(5) 0.000 0.000 0.000
O1 0.046(8) 0.077(9) 0.104(14) 0.038(8) -0.042(8) -0.022(7)
O2 0.068(2) 0.0568(18) 0.0612(18) 0.0190(15) -0.0289(17) -0.0044(16)
O3 0.070(2) 0.0488(17) 0.089(3) 0.0317(17) -0.0253(18) -0.0157(15)
N1 0.0426(17) 0.0328(15) 0.0446(17) 0.0050(13) -0.0167(14) -0.0017(12)
N2 0.0376(16) 0.0292(14) 0.0387(16) 0.0035(12) -0.0125(12) 0.0003(12)
N3 0.0458(18) 0.0356(16) 0.0486(18) 0.0046(13) -0.0015(15) -0.0029(14)
C1 0.0350(18) 0.0316(16) 0.0331(17) -0.0006(13) -0.0115(14) 0.0008(13)
C2 0.046(2) 0.0339(18) 0.053(2) 0.0088(16) -0.0232(18) -0.0052(15)
C3 0.0418(19) 0.0305(16) 0.048(2) 0.0048(15) -0.0136(17) -0.0020(15)
C4 0.0382(18) 0.0309(16) 0.047(2) 0.0049(15) -0.0082(16) -0.0028(14)
C5 0.0340(17) 0.0324(16) 0.0333(16) -0.0001(13) -0.0056(14) 0.0004(13)
C6 0.042(2) 0.057(2) 0.055(2) 0.014(2) -0.0159(19) -0.0099(18)
C7 0.050(2) 0.070(3) 0.067(3) 0.015(2) -0.018(2) -0.026(2)
C8 0.053(3) 0.046(2) 0.062(3) 0.009(2) -0.004(2) -0.0163(19)
C9 0.068(3) 0.051(3) 0.103(4) 0.029(3) -0.049(3) -0.025(2)
C10 0.052(2) 0.041(2) 0.054(2) 0.0133(17) -0.0151(19) 0.0011(17)
O4 0.073(7) 0.057(8) 0.076(8) 0.007(5) -0.016(6) -0.021(6)
Cu1G 0.044 0.0408 0.042 0.00181 0.022 0.00043
O1G 0.046 0.077 0.104 0.038 0.042 0.022
O2G 0.068 0.0568 0.0612 0.019 0.0289 0.0044
O3G 0.07 0.0488 0.089 0.0317 0.0253 0.0157
N1G 0.0426 0.0328 0.0446 0.005 0.0167 0.0017
N2G 0.0376 0.0292 0.0387 0.0035 0.0125 -0.0003
N3G 0.0458 0.0356 0.0486 0.0046 0.0015 0.0029
C1G 0.035 0.0316 0.0331 -0.0006 0.0115 -0.0008
C2G 0.046 0.0339 0.053 0.0088 0.0232 0.0052
C3G 0.0418 0.0305 0.048 0.0048 0.0136 0.002
C4G 0.0382 0.0309 0.047 0.0049 0.0082 0.0028
C5G 0.034 0.0324 0.0333 -0.0001 0.0056 -0.0004
C6G 0.042 0.057 0.055 0.014 0.0159 0.0099
C7G 0.05 0.07 0.067 0.015 0.018 0.026
C8G 0.053 0.046 0.062 0.009 0.004 0.0163
C9G 0.068 0.051 0.103 0.029 0.049 0.025
C10G 0.052 0.041 0.054 0.0133 0.0151 -0.0011
O4G 0.073 0.057 0.076 0.007 0.016 0.021
Cu1J 0.044 0.0408 0.042 -0.00181 -0.022 0.00043
O1J 0.046 0.077 0.104 -0.038 -0.042 0.022
O2J 0.068 0.0568 0.0612 -0.019 -0.0289 0.0044
O3J 0.07 0.0488 0.089 -0.0317 -0.0253 0.0157
N1J 0.0426 0.0328 0.0446 -0.005 -0.0167 0.0017
N2J 0.0376 0.0292 0.0387 -0.0035 -0.0125 -0.0003
N3J 0.0458 0.0356 0.0486 -0.0046 -0.0015 0.0029
C1J 0.035 0.0316 0.0331 0.0006 -0.0115 -0.0008
C2J 0.046 0.0339 0.053 -0.0088 -0.0232 0.0052
C3J 0.0418 0.0305 0.048 -0.0048 -0.0136 0.002
C4J 0.0382 0.0309 0.047 -0.0049 -0.0082 0.0028
C5J 0.034 0.0324 0.0333 0.0001 -0.0056 -0.0004
C6J 0.042 0.057 0.055 -0.014 -0.0159 0.0099
C7J 0.05 0.07 0.067 -0.015 -0.018 0.026
C8J 0.053 0.046 0.062 -0.009 -0.004 0.0163
C9J 0.068 0.051 0.103 -0.029 -0.049 0.025
C10J 0.052 0.041 0.054 -0.0133 -0.0151 -0.0011
O4J 0.073 0.057 0.076 -0.007 -0.016 0.021
Cu1M 0.044 0.0408 0.042 -0.00181 0.022 -0.00043
O1M 0.046 0.077 0.104 -0.038 0.042 -0.022
O2M 0.068 0.0568 0.0612 -0.019 0.0289 -0.0044
O3M 0.07 0.0488 0.089 -0.0317 0.0253 -0.0157
N1M 0.0426 0.0328 0.0446 -0.005 0.0167 -0.0017
N2M 0.0376 0.0292 0.0387 -0.0035 0.0125 0.0003
N3M 0.0458 0.0356 0.0486 -0.0046 0.0015 -0.0029
C1M 0.035 0.0316 0.0331 0.0006 0.0115 0.0008
C2M 0.046 0.0339 0.053 -0.0088 0.0232 -0.0052
C3M 0.0418 0.0305 0.048 -0.0048 0.0136 -0.002
C4M 0.0382 0.0309 0.047 -0.0049 0.0082 -0.0028
C5M 0.034 0.0324 0.0333 0.0001 0.0056 0.0004
C6M 0.042 0.057 0.055 -0.014 0.0159 -0.0099
C7M 0.05 0.07 0.067 -0.015 0.018 -0.026
C8M 0.053 0.046 0.062 -0.009 0.004 -0.0163
C9M 0.068 0.051 0.103 -0.029 0.049 -0.025
C10M 0.052 0.041 0.054 -0.0133 0.0151 0.0011
O4M 0.073 0.057 0.076 -0.007 0.016 -0.021
Cu1P 0.044 0.0408 0.042 0.00181 -0.022 -0.00043
Cu1Q 0.044 0.0408 0.042 -0.00181 0.022 -0.00043
Cu1R 0.044 0.0408 0.042 -0.00181 -0.022 0.00043
Cu1S 0.044 0.0408 0.042 0.00181 0.022 0.00043
O2X 0.068 0.0568 0.0612 0.019 -0.0289 -0.0044
O2Y 0.068 0.0568 0.0612 -0.019 0.0289 -0.0044
O2Z 0.068 0.0568 0.0612 -0.019 -0.0289 0.0044
O2AA 0.068 0.0568 0.0612 0.019 0.0289 0.0044
N2X 0.0376 0.0292 0.0387 0.0035 -0.0125 0.0003
N2Y 0.0376 0.0292 0.0387 -0.0035 0.0125 0.0003
N2Z 0.0376 0.0292 0.0387 -0.0035 -0.0125 -0.0003
N2AA 0.0376 0.0292 0.0387 0.0035 0.0125 -0.0003
N4 0.19(4) 0.09(2) 0.12(2) 0.000 0.000 -0.12(3)
loop_
_geom_bond_atom_site_label_1
_geom_bond_atom_site_label_2
_geom_bond_site_symmetry_1
_geom_bond_site_symmetry_2
Cu1 O1 1_555 1_555
Cu2 N3 1_555 1_555
O1 C9 1_555 1_555
O2 C10 1_555 1_555
O3 C10 1_555 1_555
N1 Cu1 1_555 1_555
N2 C1 1_555 1_555
N3 C4 1_555 1_555
C1 N1 1_555 1_555
C2 N1 1_555 1_555
C3 N2 1_555 1_555
C4 H1 1_555 1_555
C5 C1 1_555 1_555
C6 C5 1_555 1_555
H2 C6 1_555 1_555
C7 C6 1_555 1_555
H3 C7 1_555 1_555
C8 N3 1_555 1_555
H4 C8 1_555 1_555
C9 C2 1_555 1_555
C10 C3 1_555 1_555
H5 O4 1_555 1_555
O4 C9 1_555 1_555
Cu1G O1G 1_555 1_555
O1G C9G 1_555 1_555
O2G C10G 1_555 1_555
O3G C10G 1_555 1_555
N1G Cu1G 1_555 1_555
N2G C1G 1_555 1_555
N3G Cu2 1_555 1_555
C1G N1G 1_555 1_555
C2G N1G 1_555 1_555
C3G N2G 1_555 1_555
C4G N3G 1_555 1_555
H1G C4G 1_555 1_555
C5G C1G 1_555 1_555
C6G C5G 1_555 1_555
H2G C6G 1_555 1_555
C7G C6G 1_555 1_555
H3G C7G 1_555 1_555
C8G N3G 1_555 1_555
H4G C8G 1_555 1_555
C9G C2G 1_555 1_555
C10G C3G 1_555 1_555
H5G O4G 1_555 1_555
O4G C9G 1_555 1_555
Cu1J O1J 1_555 1_555
O1J C9J 1_555 1_555
O2J C10J 1_555 1_555
O3J C10J 1_555 1_555
N1J Cu1J 1_555 1_555
N2J C1J 1_555 1_555
N3J Cu2 1_555 1_555
C1J N1J 1_555 1_555
C2J N1J 1_555 1_555
C3J N2J 1_555 1_555
C4J N3J 1_555 1_555
H1J C4J 1_555 1_555
C5J C1J 1_555 1_555
C6J C5J 1_555 1_555
H2J C6J 1_555 1_555
C7J C6J 1_555 1_555
H3J C7J 1_555 1_555
C8J N3J 1_555 1_555
H4J C8J 1_555 1_555
C9J C2J 1_555 1_555
C10J C3J 1_555 1_555
H5J O4J 1_555 1_555
O4J C9J 1_555 1_555
Cu1M O1M 1_555 1_555
O1M C9M 1_555 1_555
O2M C10M 1_555 1_555
O3M C10M 1_555 1_555
N1M Cu1M 1_555 1_555
N2M C1M 1_555 1_555
N3M Cu2 1_555 1_555
C1M N1M 1_555 1_555
C2M N1M 1_555 1_555
C3M N2M 1_555 1_555
C4M N3M 1_555 1_555
H1M C4M 1_555 1_555
C5M C1M 1_555 1_555
C6M C5M 1_555 1_555
H2M C6M 1_555 1_555
C7M C6M 1_555 1_555
H3M C7M 1_555 1_555
C8M N3M 1_555 1_555
H4M C8M 1_555 1_555
C9M C2M 1_555 1_555
C10M C3M 1_555 1_555
H5M O4M 1_555 1_555
O4M C9M 1_555 1_555
Cu1P O2J 1_555 1_555
Cu1Q O2G 1_555 1_555
Cu1R O2 1_555 1_555
Cu1S O2M 1_555 1_555
O2X Cu1J 1_555 1_555
O2Y Cu1G 1_555 1_555
O2Z Cu1 1_555 1_555
O2AA Cu1M 1_555 1_555
N2X Cu1J 1_555 1_555
N2Y Cu1G 1_555 1_555
N2Z Cu1 1_555 1_555
N2AA Cu1M 1_555 1_555
N2 Cu1R 1_555 1_555
C2 C3 1_555 1_555
C4 C5 1_555 1_555
C7 C8 1_555 1_555
N2G Cu1Q 1_555 1_555
C2G C3G 1_555 1_555
C4G C5G 1_555 1_555
C7G C8G 1_555 1_555
N2J Cu1P 1_555 1_555
C2J C3J 1_555 1_555
C4J C5J 1_555 1_555
C7J C8J 1_555 1_555
N2M Cu1S 1_555 1_555
C2M C3M 1_555 1_555
C4M C5M 1_555 1_555
C7M C8M 1_555 1_555

#END
