
#######################################################################
#
#                 Cambridge Crystallographic Data Centre
#                                CCDC 
#
#######################################################################
#
# If this CIF has been generated from an entry in the Cambridge 
# Structural Database, then it will include bibliographic, chemical, 
# crystal, experimental, refinement or atomic coordinate data resulting 
# from the CCDC's data processing and validation procedures.
#
#######################################################################

data_COTVUE
_chemical_formula_moiety         '(C62 H60 Dy4 O37)n'
_symmetry_cell_setting           monoclinic
_symmetry_space_group_name_H-M   'P 21/n'
_symmetry_Int_Tables_number      14
_space_group_name_Hall           '-P 2yn'
loop_
_symmetry_equiv_pos_site_id
_symmetry_equiv_pos_as_xyz
1 x,y,z
2 1/2-x,1/2+y,1/2-z
3 -x,-y,-z
4 1/2+x,1/2-y,1/2+z
_cell_length_a                   14.4821(18)
_cell_length_b                   16.7137(19)
_cell_length_c                   19.2130(12)
_cell_angle_alpha                90
_cell_angle_beta                 108.039(3)
_cell_angle_gamma                90
_cell_volume                     4421.91
loop_
_atom_site_label
_atom_site_type_symbol
_atom_site_fract_x
_atom_site_fract_y
_atom_site_fract_z
Dy1 Dy 0.676410(17) 0.343700(17) 0.668810(14)
Dy2 Dy 1.077390(18) 0.363800(17) 0.771040(14)
C1 C 0.8654(3) 0.3258(3) 0.8862(3)
C2 C 0.9472(3) 0.2982(3) 0.9426(3)
H1 H 1.0087 0.3055 0.9380
C3 C 0.9388(4) 0.2603(3) 1.0047(3)
C4 C 0.8464(4) 0.2480(3) 1.0100(3)
H2 H 0.8392 0.2210 1.0503
C5 C 0.7648(3) 0.2753(3) 0.9561(3)
C6 C 0.7728(3) 0.3136(3) 0.8938(3)
H3 H 0.7175 0.3309 0.8575
C7 C 0.8729(3) 0.3725(3) 0.8238(3)
C8 C 1.0219(5) 0.2243(4) 1.0599(3)
C9 C 0.6684(4) 0.2614(3) 0.9633(3)
C10 C 0.5914(3) 0.2522(3) 0.9694(3)
C11 C 0.4957(4) 0.2507(4) 0.9772(3)
C12 C 0.4839(3) 0.2176(3) 1.0418(3)
H4 H 0.5367 0.1945 1.0767
C13 C 0.3943(3) 0.2194(4) 1.0532(3)
C14 C 0.3137(3) 0.2539(3) 1.0058(3)
H5 H 0.2545 0.2549 1.0152
C15 C 0.3251(3) 0.2884(3) 0.9408(3)
C16 C 0.4153(3) 0.2854(4) 0.9295(3)
H6 H 0.4214 0.3083 0.8870
C17 C 0.3821(4) 0.1871(4) 1.1213(3)
C18 C 0.2441(4) 0.3230(4) 0.8856(3)
C19 C 0.5438(4) 0.4929(3) 0.7888(3)
C20 C 0.5369(4) 0.4730(3) 0.8582(3)
H7 H 0.5571 0.4227 0.8776
C21 C 0.5008(3) 0.5265(3) 0.8983(3)
C22 C 0.4679(4) 0.6006(3) 0.8681(3)
H8 H 0.4415 0.6361 0.8940
C23 C 0.4736(4) 0.6227(3) 0.7991(3)
C24 C 0.5104(4) 0.5689(3) 0.7607(3)
H9 H 0.5133 0.5832 0.7147
C25 C 0.5823(3) 0.4378(4) 0.7428(3)
C26 C 0.4471(4) 0.7026(4) 0.7663(4)
C27 C 0.5000(4) 0.5085(3) 0.9707(3)
C28 C 0.7032(4) 0.4431(3) 0.5075(3)
H10 H 0.7694 0.4602 0.5186
H11 H 0.6609 0.4839 0.4798
H12 H 0.6940 0.3946 0.4794
C29 C 0.7432(3) 0.1453(3) 0.7385(3)
H13 H 0.7473 0.1242 0.6931
H14 H 0.7151 0.1059 0.7623
H15 H 0.8070 0.1588 0.7696
C30 C 1.1279(3) 0.5539(3) 0.8817(3)
H16 H 1.0886 0.5375 0.9113
H17 H 1.1067 0.6054 0.8606
H18 H 1.1946 0.5571 0.9115
C31 C 1.1345(5) 0.4986(4) 0.6312(3)
H19 H 1.0674 0.5090 0.6056
H20 H 1.1671 0.4826 0.5969
H21 H 1.1642 0.5462 0.6562
O1 O 0.7994(2) 0.3855(2) 0.77307(18)
O2 O 0.9565(2) 0.3888(2) 0.8208(2)
O3 O 1.1062(2) 0.2423(2) 1.0614(2)
O4 O 1.0064(2) 0.1809(2) 1.1061(2)
O5 O 0.4495(3) 0.1390(2) 1.1625(2)
O6 O 0.3075(2) 0.2055(2) 1.1408(2)
O7 O 0.1670(2) 0.3256(2) 0.8977(2)
O8 O 0.2452(3) 0.3483(2) 0.8270(2)
O9 O 0.5915(2) 0.3648(2) 0.76145(19)
O10 O 0.6154(3) 0.4666(2) 0.6958(2)
O11 O 0.4767(3) 0.7295(2) 0.7207(2)
O12 O 0.3846(3) 0.7452(2) 0.7899(2)
O13 O 0.6814(3) 0.4290(2) 0.5735(2)
O14 O 0.6820(2) 0.2173(2) 0.7241(2)
H22 H 0.6807 0.2294 0.7668
O15 O 1.1180(2) 0.4925(2) 0.8202(2)
H23 H 1.1349 0.5039 0.7827
O16 O 1.1421(3) 0.4313(2) 0.6872(2)
H24 H 1.1997 0.4391 0.7149
C19B C 0.4562(4) 0.5071(3) 1.2112(3)
C20B C 0.4631(4) 0.5270(3) 1.1418(3)
H7B H 0.4429 0.5773 1.1224
C21B C 0.4992(3) 0.4735(3) 1.1017(3)
C22B C 0.5321(4) 0.3994(3) 1.1319(3)
H8B H 0.5585 0.3639 1.1060
C23B C 0.5264(4) 0.3773(3) 1.2009(3)
C24B C 0.4896(4) 0.4311(3) 1.2393(3)
H9B H 0.4867 0.4168 1.2853
C25B C 0.4177(3) 0.5622(4) 1.2572(3)
C26B C 0.5529(4) 0.2974(4) 1.2337(4)
C27B C 0.5000(4) 0.4915(3) 1.0293(3)
O9B O 0.4085(2) 0.6352(2) 1.23855(19)
O10B O 0.3846(3) 0.5334(2) 1.3042(2)
O11B O 0.5233(3) 0.2705(2) 1.2793(2)
O12B O 0.6154(3) 0.2548(2) 1.2101(2)
Dy1B Dy 0.323590(17) 0.656300(17) 1.331190(14)
Dy2B Dy -0.077390(18) 0.636200(17) 1.228960(14)
C1B C 0.1346(3) 0.6742(3) 1.1138(3)
C2B C 0.0528(3) 0.7018(3) 1.0574(3)
H1B H -0.0087 0.6945 1.0620
C3B C 0.0612(4) 0.7397(3) 0.9953(3)
C4B C 0.1536(4) 0.7520(3) 0.9900(3)
H2B H 0.1608 0.7790 0.9497
C5B C 0.2352(3) 0.7247(3) 1.0439(3)
C6B C 0.2272(3) 0.6864(3) 1.1062(3)
H3B H 0.2825 0.6691 1.1425
C7B C 0.1271(3) 0.6275(3) 1.1762(3)
C8B C -0.0219(5) 0.7757(4) 0.9401(3)
C9B C 0.3316(4) 0.7386(3) 1.0367(3)
C10B C 0.4086(3) 0.7478(3) 1.0306(3)
C11B C 0.5043(4) 0.7493(4) 1.0228(3)
C12B C 0.5161(3) 0.7824(3) 0.9582(3)
H4B H 0.4633 0.8055 0.9233
C13B C 0.6057(3) 0.7806(4) 0.9468(3)
C14B C 0.6863(3) 0.7461(3) 0.9942(3)
H5B H 0.7455 0.7451 0.9848
C15B C 0.6749(3) 0.7116(3) 1.0592(3)
C16B C 0.5847(3) 0.7146(4) 1.0705(3)
H6B H 0.5786 0.6917 1.1130
C17B C 0.6179(4) 0.8129(4) 0.8787(3)
C18B C 0.7559(4) 0.6770(4) 1.1144(3)
C28B C 0.2968(4) 0.5569(3) 1.4925(3)
H10B H 0.2306 0.5398 1.4814
H11B H 0.3391 0.5161 1.5202
H12B H 0.3060 0.6054 1.5206
C29B C 0.2568(3) 0.8547(3) 1.2615(3)
H13B H 0.2527 0.8758 1.3069
H14B H 0.2849 0.8941 1.2377
H15B H 0.1930 0.8412 1.2304
C30B C -0.1279(3) 0.4461(3) 1.1183(3)
H16B H -0.0886 0.4625 1.0887
H17B H -0.1067 0.3946 1.1394
H18B H -0.1946 0.4429 1.0885
C31B C -0.1345(5) 0.5014(4) 1.3688(3)
H19B H -0.0674 0.4910 1.3944
H20B H -0.1671 0.5174 1.4031
H21B H -0.1642 0.4538 1.3438
O1B O 0.2006(2) 0.6145(2) 1.22693(18)
O2B O 0.0435(2) 0.6112(2) 1.1792(2)
O3B O -0.1062(2) 0.7577(2) 0.9386(2)
O4B O -0.0064(2) 0.8191(2) 0.8939(2)
O5B O 0.5505(3) 0.8610(2) 0.8375(2)
O6B O 0.6925(2) 0.7945(2) 0.8592(2)
O7B O 0.8330(2) 0.6744(2) 1.1023(2)
O8B O 0.7548(3) 0.6517(2) 1.1730(2)
O13B O 0.3186(3) 0.5710(2) 1.4265(2)
O14B O 0.3180(2) 0.7827(2) 1.2759(2)
H22B H 0.3193 0.7706 1.2332
O15B O -0.1180(2) 0.5075(2) 1.1798(2)
H23B H -0.1349 0.4961 1.2173
O16B O -0.1421(3) 0.5687(2) 1.3128(2)
H24B H -0.1997 0.5609 1.2851
Dy1A Dy -0.176410(17) 0.843700(17) 0.831190(14)
Dy1A_2 Dy 0.823590(17) 0.843700(17) 0.831190(14)
Dy1C Dy 0.176410(17) 0.156300(17) 1.168810(14)
Dy1C_2 Dy 1.176410(17) 0.156300(17) 1.168810(14)
Dy2_2 Dy 0.077390(18) 0.363800(17) 0.771040(14)
Dy2A Dy 0.422610(18) 0.863800(17) 0.728960(14)
Dy2B_2 Dy 0.922610(18) 0.636200(17) 1.228960(14)
Dy2C Dy 0.577390(18) 0.136200(17) 1.271040(14)
O3A O 0.3938(2) 0.7423(2) 1.4386(2)
O3C O 0.6062(2) 0.2577(2) 0.5614(2)
O4A O 0.4936(2) 0.6809(2) 1.3939(2)
O4C O 0.5064(2) 0.3191(2) 0.6061(2)
O5A O 0.0505(3) 0.6390(2) 1.3375(2)
O5C O 0.9495(3) 0.3610(2) 0.6625(2)
O6A O 0.1925(2) 0.7055(2) 1.3592(2)
O6C O 0.8075(2) 0.2945(2) 0.6408(2)
O7_2 O 1.1670(2) 0.3256(2) 0.8977(2)
O7B_2 O -0.1670(2) 0.6744(2) 1.1023(2)
O8_2 O 1.2452(3) 0.3483(2) 0.8270(2)
O8B_2 O -0.2452(3) 0.6517(2) 1.1730(2)
O11A O 1.0233(3) 0.2295(2) 0.7793(2)
O11C O -0.0233(3) 0.7705(2) 1.2207(2)
O12A O 1.1154(3) 0.2452(2) 0.7101(2)
O12C O -0.1154(3) 0.7548(2) 1.2899(2)
O17 O 0.7070(11) 0.0717(9) 0.8910(8)
H25 H 0.6663 0.0336 0.8784
H26 H 0.7067 0.0901 0.9322
O18 O 0.3376(6) 0.4277(6) 0.7307(6)
H27 H 0.3767 0.3896 0.7480
H28 H 0.3691 0.4713 0.7347
O19 O 0.3781(8) 0.1601(8) 0.7836(8)
H29 H 0.3698 0.2095 0.7731
H30 H 0.4128 0.1391 0.7600
O20 O 0.0770(12) 0.4209(10) 0.1287(9)
H31 H 0.0664 0.3818 0.0989
H32 H 0.1196 0.4514 0.1209
O21 O 0.2451(7) 0.4517(7) 0.0603(6)
H33 H 0.2841 0.4863 0.0859
H34 H 0.2755 0.4084 0.0596
loop_
_geom_bond_atom_site_label_1
_geom_bond_atom_site_label_2
_geom_bond_site_symmetry_1
_geom_bond_site_symmetry_2
Dy1 O1 1_555 1_555
Dy2 O2 1_555 1_555
C1 C2 1_555 1_555
C2 H1 1_555 1_555
C3 C2 1_555 1_555
C4 C3 1_555 1_555
H2 C4 1_555 1_555
C5 C4 1_555 1_555
C6 C1 1_555 1_555
H3 C6 1_555 1_555
C7 C1 1_555 1_555
C8 C3 1_555 1_555
C9 C5 1_555 1_555
C10 C9 1_555 1_555
C11 C10 1_555 1_555
C12 C11 1_555 1_555
H4 C12 1_555 1_555
C13 C12 1_555 1_555
C14 C13 1_555 1_555
H5 C14 1_555 1_555
C15 C14 1_555 1_555
C16 C11 1_555 1_555
H6 C16 1_555 1_555
C17 C13 1_555 1_555
C18 C15 1_555 1_555
C19 C20 1_555 1_555
C20 H7 1_555 1_555
C21 C20 1_555 1_555
C22 C21 1_555 1_555
H8 C22 1_555 1_555
C23 C22 1_555 1_555
C24 C19 1_555 1_555
H9 C24 1_555 1_555
C25 C19 1_555 1_555
C26 C23 1_555 1_555
C27 C21 1_555 1_555
C28 H10 1_555 1_555
H11 C28 1_555 1_555
H12 C28 1_555 1_555
C29 H13 1_555 1_555
H14 C29 1_555 1_555
H15 C29 1_555 1_555
C30 H16 1_555 1_555
H17 C30 1_555 1_555
H18 C30 1_555 1_555
C31 H19 1_555 1_555
H20 C31 1_555 1_555
H21 C31 1_555 1_555
O1 C7 1_555 1_555
O2 C7 1_555 1_555
O3 C8 1_555 1_555
O4 C8 1_555 1_555
O5 C17 1_555 1_555
O6 C17 1_555 1_555
O7 C18 1_555 1_555
O8 C18 1_555 1_555
O9 Dy1 1_555 1_555
O10 Dy1 1_555 1_555
O11 C26 1_555 1_555
O12 C26 1_555 1_555
O13 Dy1 1_555 1_555
O14 Dy1 1_555 1_555
H22 O14 1_555 1_555
O15 Dy2 1_555 1_555
H23 O15 1_555 1_555
O16 Dy2 1_555 1_555
H24 O16 1_555 1_555
O17 H25 1_555 1_555
H26 O17 1_555 1_555
O18 H27 1_555 1_555
H28 O18 1_555 1_555
O19 H29 1_555 1_555
H30 O19 1_555 1_555
O20 H31 1_555 1_555
H32 O20 1_555 1_555
O21 H33 1_555 1_555
H34 O21 1_555 1_555
C19B C20B 1_555 1_555
C20B H7B 1_555 1_555
C21B C20B 1_555 1_555
C22B C21B 1_555 1_555
H8B C22B 1_555 1_555
C23B C22B 1_555 1_555
C24B C19B 1_555 1_555
H9B C24B 1_555 1_555
C25B C19B 1_555 1_555
C26B C23B 1_555 1_555
C27B C27 1_555 1_555
O9B C25B 1_555 1_555
O10B C25B 1_555 1_555
O11B C26B 1_555 1_555
O12B C26B 1_555 1_555
Dy1B O9B 1_555 1_555
Dy2B O2B 1_555 1_555
C1B C2B 1_555 1_555
C2B H1B 1_555 1_555
C3B C2B 1_555 1_555
C4B C3B 1_555 1_555
H2B C4B 1_555 1_555
C5B C4B 1_555 1_555
C6B C1B 1_555 1_555
H3B C6B 1_555 1_555
C7B C1B 1_555 1_555
C8B C3B 1_555 1_555
C9B C5B 1_555 1_555
C10B C9B 1_555 1_555
C11B C10B 1_555 1_555
C12B C11B 1_555 1_555
H4B C12B 1_555 1_555
C13B C12B 1_555 1_555
C14B C13B 1_555 1_555
H5B C14B 1_555 1_555
C15B C14B 1_555 1_555
C16B C11B 1_555 1_555
H6B C16B 1_555 1_555
C17B C13B 1_555 1_555
C18B C15B 1_555 1_555
C28B H10B 1_555 1_555
H11B C28B 1_555 1_555
H12B C28B 1_555 1_555
C29B H13B 1_555 1_555
H14B C29B 1_555 1_555
H15B C29B 1_555 1_555
C30B H16B 1_555 1_555
H17B C30B 1_555 1_555
H18B C30B 1_555 1_555
C31B H19B 1_555 1_555
H20B C31B 1_555 1_555
H21B C31B 1_555 1_555
O1B Dy1B 1_555 1_555
O2B C7B 1_555 1_555
O3B C8B 1_555 1_555
O4B C8B 1_555 1_555
O5B C17B 1_555 1_555
O6B C17B 1_555 1_555
O7B C18B 1_555 1_555
O8B C18B 1_555 1_555
O13B Dy1B 1_555 1_555
O14B Dy1B 1_555 1_555
H22B O14B 1_555 1_555
O15B Dy2B 1_555 1_555
H23B O15B 1_555 1_555
O16B Dy2B 1_555 1_555
H24B O16B 1_555 1_555
Dy1A O3B 1_555 1_555
Dy1A_2 O6B 1_555 1_555
Dy1C O6 1_555 1_555
Dy1C_2 O3 1_555 1_555
Dy2_2 O7 1_555 1_555
Dy2A O11 1_555 1_555
Dy2B_2 O7B 1_555 1_555
Dy2C O5 1_555 1_555
O3A Dy1B 1_555 1_555
O3C Dy1 1_555 1_555
O4A Dy1B 1_555 1_555
O4C Dy1 1_555 1_555
O5A Dy2B 1_555 1_555
O5C Dy2 1_555 1_555
O6A Dy1B 1_555 1_555
O6C Dy1 1_555 1_555
O7_2 Dy2 1_555 1_555
O7B_2 Dy2B 1_555 1_555
O8_2 Dy2 1_555 1_555
O8B_2 Dy2B 1_555 1_555
O11A Dy2 1_555 1_555
O11C Dy2B 1_555 1_555
O12A Dy2 1_555 1_555
O12C Dy2B 1_555 1_555
C5 C6 1_555 1_555
C15 C16 1_555 1_555
C23 C24 1_555 1_555
C25 O9 1_555 1_555
C25 O10 1_555 1_555
C28 O13 1_555 1_555
C29 O14 1_555 1_555
C30 O15 1_555 1_555
C31 O16 1_555 1_555
O4 Dy1C_2 1_555 1_555
O8 Dy2_2 1_555 1_555
O12 Dy2A 1_555 1_555
C21B C27B 1_555 1_555
C23B C24B 1_555 1_555
O10B Dy1B 1_555 1_555
O11B Dy2C 1_555 1_555
O12B Dy2C 1_555 1_555
C5B C6B 1_555 1_555
C7B O1B 1_555 1_555
C15B C16B 1_555 1_555
C28B O13B 1_555 1_555
C29B O14B 1_555 1_555
C30B O15B 1_555 1_555
C31B O16B 1_555 1_555
O4B Dy1A 1_555 1_555
O5B Dy2A 1_555 1_555
O8B Dy2B_2 1_555 1_555

#END
