
#######################################################################
#
#                 Cambridge Crystallographic Data Centre
#                                CCDC 
#
#######################################################################
#
# If this CIF has been generated from an entry in the Cambridge 
# Structural Database, then it will include bibliographic, chemical, 
# crystal, experimental, refinement or atomic coordinate data resulting 
# from the CCDC's data processing and validation procedures.
#
#######################################################################

data_AHETAK
_chemical_formula_moiety         '(C48 H33 Co8 N32 O17)n'
_symmetry_cell_setting           tetragonal
_symmetry_space_group_name_H-M   'I -4 m 2'
_symmetry_Int_Tables_number      119
_space_group_name_Hall           'I -4 -2'
loop_
_symmetry_equiv_pos_site_id
_symmetry_equiv_pos_as_xyz
1 x,y,z
2 y,-x,-z
3 -x,-y,z
4 -y,x,-z
5 -x,y,z
6 y,x,-z
7 x,-y,z
8 -y,-x,-z
9 1/2+x,1/2+y,1/2+z
10 1/2+y,1/2-x,1/2-z
11 1/2-x,1/2-y,1/2+z
12 1/2-y,1/2+x,1/2-z
13 1/2-x,1/2+y,1/2+z
14 1/2+y,1/2+x,1/2-z
15 1/2+x,1/2-y,1/2+z
16 1/2-y,1/2-x,1/2-z
_cell_length_a                   17.4654(18)
_cell_length_b                   17.4654(18)
_cell_length_c                   19.854(3)
_cell_angle_alpha                90
_cell_angle_beta                 90
_cell_angle_gamma                90
_cell_volume                     6056.27
loop_
_atom_site_label
_atom_site_type_symbol
_atom_site_fract_x
_atom_site_fract_y
_atom_site_fract_z
Co1 Co 0.58923(6) 0.58923(6) 1.5000
Co2 Co 0.5000 0.59498(9) 1.05146(10)
O1 O 0.5654(4) 0.6102(4) 1.3999(3)
O2 O 0.9063(4) 0.8373(4) 1.5378(4)
O3 O 0.5000 0.5000 1.5000
N1 N 0.5000 0.6132(7) 1.1566(5)
N2 N 0.6749(4) 0.6749(4) 1.5000
N3 N 0.5000 0.6639(7) 1.5311(6)
N4 N 0.5000 0.6948(15) 1.5869(13)
N5 N 0.5000 0.7278(17) 1.6371(11)
C1 C 0.5646(6) 0.6146(7) 1.1910(5)
H1 H 0.6108 0.6160 1.1677
C2 C 0.5656(6) 0.6140(9) 1.2595(5)
H2 H 0.6126 0.6136 1.2816
C3 C 0.5000 0.6139(8) 1.2971(6)
C4 C 0.5000 0.6127(8) 1.3701(6)
C5 C 0.7323(10) 0.6744(10) 1.5420(9)
H3 H 0.7330 0.6355 1.5740
C6 C 0.7922(9) 0.7260(9) 1.5437(8)
H4 H 0.8335 0.7198 1.5728
C7 C 0.7873(5) 0.7873(5) 1.5000
C8 C 0.8486(5) 0.8486(5) 1.5000
N6 N 0.5000 0.5806(5) 0.9441(5)
N7 N 0.5000 0.7004(9) 0.8823(9)
N8 N 0.5000 0.6389(10) 0.9110(11)
O1D O 0.4346(4) 0.6102(4) 1.3999(3)
C1D C 0.4354(6) 0.6146(7) 1.1910(5)
H1D H 0.3892 0.6160 1.1677
C2D C 0.4344(6) 0.6140(9) 1.2595(5)
H2D H 0.3874 0.6136 1.2816
O2E O 0.8373(4) 0.9063(4) 1.4622(4)
C5E C 0.6744(10) 0.7323(10) 1.4580(9)
H3E H 0.6355 0.7330 1.4260
C6E C 0.7260(9) 0.7922(9) 1.4563(8)
H4E H 0.7198 0.8335 1.4272
Co2A Co 0.59498(9) 0.5000 0.94854(10)
O1A O 0.6102(4) 0.4346(4) 0.6001(3)
N1A N 0.6132(7) 0.5000 0.8434(5)
C1A C 0.6146(7) 0.4354(6) 0.8090(5)
H1A H 0.6160 0.3892 0.8323
C2A C 0.6140(9) 0.4344(6) 0.7405(5)
H2A H 0.6136 0.3874 0.7184
C3A C 0.6139(8) 0.5000 0.7029(6)
C4A C 0.6127(8) 0.5000 0.6299(6)
N6A N 0.5806(5) 0.5000 1.0559(5)
N7A N 0.7004(9) 0.5000 1.1177(9)
N8A N 0.6389(10) 0.5000 1.0890(11)
O1E O 0.6102(4) 0.5654(4) 0.6001(3)
C1E C 0.6146(7) 0.5646(6) 0.8090(5)
H1E H 0.6160 0.6108 0.8323
C2E C 0.6140(9) 0.5656(6) 0.7405(5)
H2E H 0.6136 0.6126 0.7184
Co1B Co 0.41077(6) 0.41077(6) 1.5000
Co2B Co 0.5000 0.40502(9) 1.05146(10)
O1B O 0.4346(4) 0.3898(4) 1.3999(3)
O2B O 0.0937(4) 0.1627(4) 1.5378(4)
N1B N 0.5000 0.3868(7) 1.1566(5)
N2B N 0.3251(4) 0.3251(4) 1.5000
N3B N 0.5000 0.3361(7) 1.5311(6)
N4B N 0.5000 0.3052(15) 1.5869(13)
N5B N 0.5000 0.2722(17) 1.6371(11)
C1B C 0.4354(6) 0.3854(7) 1.1910(5)
H1B H 0.3892 0.3840 1.1677
C2B C 0.4344(6) 0.3860(9) 1.2595(5)
H2B H 0.3874 0.3864 1.2816
C3B C 0.5000 0.3861(8) 1.2971(6)
C4B C 0.5000 0.3873(8) 1.3701(6)
C5B C 0.2677(10) 0.3256(10) 1.5420(9)
H3B H 0.2670 0.3645 1.5740
C6B C 0.2078(9) 0.2740(9) 1.5437(8)
H4B H 0.1665 0.2802 1.5728
C7B C 0.2127(5) 0.2127(5) 1.5000
C8B C 0.1514(5) 0.1514(5) 1.5000
N6B N 0.5000 0.4194(5) 0.9441(5)
N7B N 0.5000 0.2996(9) 0.8823(9)
N8B N 0.5000 0.3611(10) 0.9110(11)
O1F O 0.5654(4) 0.3898(4) 1.3999(3)
C1F C 0.5646(6) 0.3854(7) 1.1910(5)
H1F H 0.6108 0.3840 1.1677
C2F C 0.5656(6) 0.3860(9) 1.2595(5)
H2F H 0.6126 0.3864 1.2816
O2G O 0.1627(4) 0.0937(4) 1.4622(4)
C5G C 0.3256(10) 0.2677(10) 1.4580(9)
H3G H 0.3645 0.2670 1.4260
C6G C 0.2740(9) 0.2078(9) 1.4563(8)
H4G H 0.2802 0.1665 1.4272
Co2C Co 0.40502(9) 0.5000 0.94854(10)
O1C O 0.3898(4) 0.5654(4) 0.6001(3)
N1C N 0.3868(7) 0.5000 0.8434(5)
C1C C 0.3854(7) 0.5646(6) 0.8090(5)
H1C H 0.3840 0.6108 0.8323
C2C C 0.3860(9) 0.5656(6) 0.7405(5)
H2C H 0.3864 0.6126 0.7184
C3C C 0.3861(8) 0.5000 0.7029(6)
C4C C 0.3873(8) 0.5000 0.6299(6)
N6C N 0.4194(5) 0.5000 1.0559(5)
N7C N 0.2996(9) 0.5000 1.1177(9)
N8C N 0.3611(10) 0.5000 1.0890(11)
O1G O 0.3898(4) 0.4346(4) 0.6001(3)
C1G C 0.3854(7) 0.4354(6) 0.8090(5)
H1G H 0.3840 0.3892 0.8323
C2G C 0.3860(9) 0.4344(6) 0.7405(5)
H2G H 0.3864 0.3874 0.7184
Co1C Co 0.41077(6) 0.58923(6) 1.5000
O2D O 0.0937(4) 0.8373(4) 1.5378(4)
N2C N 0.3251(4) 0.6749(4) 1.5000
C5D C 0.2677(10) 0.6744(10) 1.5420(9)
H3D H 0.2670 0.6355 1.5740
C6D C 0.2078(9) 0.7260(9) 1.5437(8)
H4D H 0.1665 0.7198 1.5728
C7C C 0.2127(5) 0.7873(5) 1.5000
C8C C 0.1514(5) 0.8486(5) 1.5000
O2C O 0.1627(4) 0.9063(4) 1.4622(4)
C5C C 0.3256(10) 0.7323(10) 1.4580(9)
H3C H 0.3645 0.7330 1.4260
C6C C 0.2740(9) 0.7922(9) 1.4563(8)
H4C H 0.2802 0.8335 1.4272
Co1A Co 0.58923(6) 0.41077(6) 1.5000
O2F O 0.9063(4) 0.1627(4) 1.5378(4)
N2A N 0.6749(4) 0.3251(4) 1.5000
C5F C 0.7323(10) 0.3256(10) 1.5420(9)
H3F H 0.7330 0.3645 1.5740
C6F C 0.7922(9) 0.2740(9) 1.5437(8)
H4F H 0.8335 0.2802 1.5728
C7A C 0.7873(5) 0.2127(5) 1.5000
C8A C 0.8486(5) 0.1514(5) 1.5000
O2A O 0.8373(4) 0.0937(4) 1.4622(4)
C5A C 0.6744(10) 0.2677(10) 1.4580(9)
H3A H 0.6355 0.2670 1.4260
C6A C 0.7260(9) 0.2078(9) 1.4563(8)
H4A H 0.7198 0.1665 1.4272
N3A N 0.6639(7) 0.5000 1.4689(6)
N4A N 0.6948(15) 0.5000 1.4131(13)
N5A N 0.7278(17) 0.5000 1.3629(11)
N3C N 0.3361(7) 0.5000 1.4689(6)
N4C N 0.3052(15) 0.5000 1.4131(13)
N5C N 0.2722(17) 0.5000 1.3629(11)
Co1_2 Co 0.58923(6) 0.58923(6) 0.5000
Co1A_2 Co 0.58923(6) 0.41077(6) 0.5000
Co1B_2 Co 0.41077(6) 0.41077(6) 0.5000
Co1C_2 Co 0.41077(6) 0.58923(6) 0.5000
Co2H Co -0.0000 0.09498(9) 1.55146(10)
Co2H_2 Co 1.0000 0.09498(9) 1.55146(10)
Co2I Co 0.09498(9) 0.0000 1.44854(10)
Co2I_2 Co 0.09498(9) 1.0000 1.44854(10)
Co2J Co 0.0000 0.90502(9) 1.55146(10)
Co2J_2 Co 1.0000 0.90502(9) 1.55146(10)
Co2K Co 0.90502(9) 0.0000 1.44854(10)
Co2K_2 Co 0.90502(9) 1.0000 1.44854(10)
O1A_2 O 0.6102(4) 0.4346(4) 1.6001(3)
O1C_2 O 0.3898(4) 0.5654(4) 1.6001(3)
O1E_2 O 0.6102(4) 0.5654(4) 1.6001(3)
O1G_2 O 0.3898(4) 0.4346(4) 1.6001(3)
O2H O 0.4063(4) 0.3373(4) 1.0378(4)
O2I O 0.3373(4) 0.5937(4) 0.9622(4)
O2J O 0.5937(4) 0.6627(4) 1.0378(4)
O2K O 0.6627(4) 0.4063(4) 0.9622(4)
O2L O 0.5937(4) 0.3373(4) 1.0378(4)
O2M O 0.3373(4) 0.4063(4) 0.9622(4)
O2N O 0.4063(4) 0.6627(4) 1.0378(4)
O2O O 0.6627(4) 0.5937(4) 0.9622(4)
loop_
_geom_bond_atom_site_label_1
_geom_bond_atom_site_label_2
_geom_bond_site_symmetry_1
_geom_bond_site_symmetry_2
Co1 O1 1_555 1_555
Co2 N1 1_555 1_555
O1 C4 1_555 1_555
O2 C8 1_555 1_555
O3 Co1 1_555 1_555
N1 C1 1_555 1_555
N2 Co1 1_555 1_555
N3 Co1 1_555 1_555
N4 N3 1_555 1_555
N5 N4 1_555 1_555
C1 H1 1_555 1_555
C2 C1 1_555 1_555
H2 C2 1_555 1_555
C3 C2 1_555 1_555
C4 C3 1_555 1_555
C5 N2 1_555 1_555
H3 C5 1_555 1_555
C6 C5 1_555 1_555
H4 C6 1_555 1_555
C7 C6 1_555 1_555
C8 C7 1_555 1_555
N6 Co2 1_555 1_555
N7 N8 1_555 1_555
N8 N6 1_555 1_555
O1D C4 1_555 1_555
C1D N1 1_555 1_555
H1D C1D 1_555 1_555
C2D C3 1_555 1_555
H2D C2D 1_555 1_555
O2E C8 1_555 1_555
C5E N2 1_555 1_555
H3E C5E 1_555 1_555
C6E C7 1_555 1_555
H4E C6E 1_555 1_555
Co2A N6 1_555 1_555
O1A C4A 1_555 1_555
N1A Co2A 1_555 1_555
C1A N1A 1_555 1_555
H1A C1A 1_555 1_555
C2A C1A 1_555 1_555
H2A C2A 1_555 1_555
C3A C2A 1_555 1_555
C4A C3A 1_555 1_555
N6A Co2 1_555 1_555
N7A N8A 1_555 1_555
N8A N6A 1_555 1_555
O1E C4A 1_555 1_555
C1E N1A 1_555 1_555
H1E C1E 1_555 1_555
C2E C3A 1_555 1_555
H2E C2E 1_555 1_555
Co1B O3 1_555 1_555
Co2B N6A 1_555 1_555
O1B Co1B 1_555 1_555
O2B C8B 1_555 1_555
N1B Co2B 1_555 1_555
N2B Co1B 1_555 1_555
N3B Co1B 1_555 1_555
N4B N3B 1_555 1_555
N5B N4B 1_555 1_555
C1B N1B 1_555 1_555
H1B C1B 1_555 1_555
C2B C1B 1_555 1_555
H2B C2B 1_555 1_555
C3B C2B 1_555 1_555
C4B O1B 1_555 1_555
C5B N2B 1_555 1_555
H3B C5B 1_555 1_555
C6B C5B 1_555 1_555
H4B C6B 1_555 1_555
C7B C6B 1_555 1_555
C8B C7B 1_555 1_555
N6B Co2A 1_555 1_555
N7B N8B 1_555 1_555
N8B N6B 1_555 1_555
O1F C4B 1_555 1_555
C1F N1B 1_555 1_555
H1F C1F 1_555 1_555
C2F C3B 1_555 1_555
H2F C2F 1_555 1_555
O2G C8B 1_555 1_555
C5G N2B 1_555 1_555
H3G C5G 1_555 1_555
C6G C7B 1_555 1_555
H4G C6G 1_555 1_555
Co2C N6 1_555 1_555
O1C C4C 1_555 1_555
N1C Co2C 1_555 1_555
C1C N1C 1_555 1_555
H1C C1C 1_555 1_555
C2C C1C 1_555 1_555
H2C C2C 1_555 1_555
C3C C2C 1_555 1_555
C4C C3C 1_555 1_555
N6C Co2 1_555 1_555
N7C N8C 1_555 1_555
N8C N6C 1_555 1_555
O1G C4C 1_555 1_555
C1G N1C 1_555 1_555
H1G C1G 1_555 1_555
C2G C3C 1_555 1_555
H2G C2G 1_555 1_555
Co1C O3 1_555 1_555
O2D C8C 1_555 1_555
N2C Co1C 1_555 1_555
C5D N2C 1_555 1_555
H3D C5D 1_555 1_555
C6D C5D 1_555 1_555
H4D C6D 1_555 1_555
C7C C6D 1_555 1_555
C8C C7C 1_555 1_555
O2C C8C 1_555 1_555
C5C N2C 1_555 1_555
H3C C5C 1_555 1_555
C6C C7C 1_555 1_555
H4C C6C 1_555 1_555
Co1A O3 1_555 1_555
O2F C8A 1_555 1_555
N2A Co1A 1_555 1_555
C5F N2A 1_555 1_555
H3F C5F 1_555 1_555
C6F C5F 1_555 1_555
H4F C6F 1_555 1_555
C7A C6F 1_555 1_555
C8A C7A 1_555 1_555
O2A C8A 1_555 1_555
C5A N2A 1_555 1_555
H3A C5A 1_555 1_555
C6A C7A 1_555 1_555
H4A C6A 1_555 1_555
N3A Co1 1_555 1_555
N4A N3A 1_555 1_555
N5A N4A 1_555 1_555
N3C Co1B 1_555 1_555
N4C N3C 1_555 1_555
N5C N4C 1_555 1_555
Co1_2 O1E 1_555 1_555
Co1A_2 O1A 1_555 1_555
Co1B_2 O1G 1_555 1_555
Co1C_2 O1C 1_555 1_555
Co2H O2B 1_555 1_555
Co2H_2 O2F 1_555 1_555
Co2I O2G 1_555 1_555
Co2I_2 O2C 1_555 1_555
Co2J O2D 1_555 1_555
Co2J_2 O2 1_555 1_555
Co2K O2A 1_555 1_555
Co2K_2 O2E 1_555 1_555
O1A_2 Co1A 1_555 1_555
O1C_2 Co1C 1_555 1_555
O1E_2 Co1 1_555 1_555
O1G_2 Co1B 1_555 1_555
O2H Co2B 1_555 1_555
O2I Co2C 1_555 1_555
O2J Co2 1_555 1_555
O2K Co2A 1_555 1_555
O2L Co2B 1_555 1_555
O2M Co2C 1_555 1_555
O2N Co2 1_555 1_555
O2O Co2A 1_555 1_555
N3 Co1C 1_555 1_555
O1D Co1C 1_555 1_555
C1D C2D 1_555 1_555
C5E C6E 1_555 1_555
Co2A N6A 1_555 1_555
C1E C2E 1_555 1_555
Co2B N6B 1_555 1_555
Co2B N6C 1_555 1_555
N3B Co1A 1_555 1_555
C3B C4B 1_555 1_555
N6B Co2C 1_555 1_555
O1F Co1A 1_555 1_555
C1F C2F 1_555 1_555
C5G C6G 1_555 1_555
Co2C N6C 1_555 1_555
C1G C2G 1_555 1_555
Co1C N3C 1_555 1_555
C5C C6C 1_555 1_555
Co1A N3A 1_555 1_555
C5A C6A 1_555 1_555

#END
