
#######################################################################
#
#                 Cambridge Crystallographic Data Centre
#                                CCDC 
#
#######################################################################
#
# If this CIF has been generated from an entry in the Cambridge 
# Structural Database, then it will include bibliographic, chemical, 
# crystal, experimental, refinement or atomic coordinate data resulting 
# from the CCDC's data processing and validation procedures.
#
#######################################################################

data_CUQXUI
_chemical_formula_moiety         'C40 H56 Cu7 N20 O46 Si1 W12'
_symmetry_cell_setting           monoclinic
_symmetry_space_group_name_H-M   'P 21/n'
_symmetry_Int_Tables_number      14
_space_group_name_Hall           '-P 2yn'
loop_
_symmetry_equiv_pos_site_id
_symmetry_equiv_pos_as_xyz
1 x,y,z
2 1/2-x,1/2+y,1/2-z
3 -x,-y,-z
4 1/2+x,1/2-y,1/2+z
_cell_length_a                   11.403(5)
_cell_length_b                   14.682(5)
_cell_length_c                   22.264(5)
_cell_angle_alpha                90
_cell_angle_beta                 91.000(5)
_cell_angle_gamma                90
_cell_volume                     3726.85
loop_
_atom_site_label
_atom_site_type_symbol
_atom_site_fract_x
_atom_site_fract_y
_atom_site_fract_z
W1 W 0.19756(7) 0.66535(5) 0.44594(4)
W2 W -0.10114(7) 0.71953(5) 0.46374(3)
W3 W 0.01620(7) 0.43091(6) 0.65173(4)
W4 W 0.29682(7) 0.44148(6) 0.47732(4)
W5 W 0.21917(8) 0.58801(6) 0.59524(5)
W6 W -0.07611(8) 0.65357(6) 0.61589(5)
Cu1 Cu 0.3893(2) 0.76883(16) 0.69824(11)
Si1 Si 0.0000 0.5000 0.5000
N1 N 0.5067(16) 0.7944(14) 0.6364(8)
N2 N 0.4996(14) 0.6764(14) 0.7353(8)
N3 N 0.2365(16) 0.2457(13) 0.7444(8)
N4 N 0.2829(15) 0.8653(12) 0.6599(8)
N5 N 0.1453(18) 0.9403(14) 0.6129(9)
N6 N 0.5655(19) 0.8416(15) 0.5483(10)
N7 N 0.6139(14) 0.5592(12) 0.7388(7)
N8 N 0.3803(16) 0.2780(13) 0.6818(8)
C1 C 0.598(3) 0.585(2) 0.7951(11)
H1 H 0.6324 0.5579 0.8287
C2 C 0.524(2) 0.6602(17) 0.7964(9)
H2 H 0.4962 0.6917 0.8296
C3 C 0.6567(19) 0.8535(18) 0.5883(14)
H3 H 0.7298 0.8778 0.5797
C4 C 0.477(2) 0.814(2) 0.5769(12)
H4 H 0.4022 0.8072 0.5602
C5 C 0.2873(18) 0.3075(17) 0.7109(10)
H5 H 0.2602 0.3671 0.7079
C6 C 0.680(2) 0.4796(14) 0.7167(12)
H6 H 0.7131 0.4938 0.6779
H7 H 0.7444 0.4661 0.7444
C7 C 0.5051(19) 0.4127(18) 0.6621(11)
H8 H 0.5405 0.4454 0.6291
H9 H 0.4446 0.4513 0.6785
C8 C 0.450(2) 0.328(2) 0.6381(11)
H10 H 0.5106 0.2878 0.6236
H11 H 0.3992 0.3435 0.6041
C9 C 0.545(4) 0.978(3) 0.4836(13)
H12 H 0.5323 0.9935 0.4416
H13 H 0.6188 1.0052 0.4960
C10 C 0.380(3) 0.1846(18) 0.6958(15)
H14 H 0.4304 0.1412 0.6804
C11 C 0.5557(17) 0.6174(14) 0.7032(9)
H15 H 0.5553 0.6159 0.6615
C12 C 0.296(3) 0.1681(17) 0.7343(11)
H16 H 0.2797 0.1119 0.7516
C13 C 0.040(2) 0.959(2) 0.5807(12)
H17 H -0.0116 0.9067 0.5836
H18 H 0.0011 1.0102 0.5994
C14 C 0.059(2) 0.981(2) 0.5133(12)
H19 H 0.1208 1.0262 0.5094
H20 H 0.0822 0.9265 0.4919
C15 C 0.188(2) 0.8571(17) 0.6292(12)
H21 H 0.1523 0.8019 0.6193
C16 C 0.221(3) 0.9991(18) 0.6317(12)
H22 H 0.2150 1.0615 0.6253
C17 C 0.599(3) 0.3951(14) 0.7107(12)
H23 H 0.5616 0.3832 0.7488
H24 H 0.6448 0.3420 0.7002
C18 C 0.623(2) 0.825(2) 0.6405(11)
H25 H 0.6693 0.8242 0.6753
C19 C 0.558(2) 0.8790(18) 0.4873(11)
H26 H 0.6288 0.8620 0.4663
H27 H 0.4924 0.8508 0.4664
C20 C 0.3131(19) 0.9581(14) 0.6624(9)
H28 H 0.3787 0.9852 0.6803
O1 O -0.2416(19) 0.6622(17) 0.4772(7)
O2 O -0.0611(16) 0.5423(13) 0.6599(17)
O3 O 0.3220(12) 0.6350(9) 0.6401(6)
O4 O 0.2278(17) 0.3910(15) 0.4076(7)
O5 O 0.0664(14) 0.7356(17) 0.4580(8)
O6 O 0.235(3) 0.6682(14) 0.5280(8)
O7 O 0.030(2) 0.5298(16) 0.5746(9)
O8 O 0.289(2) 0.5565(12) 0.4420(8)
O9 O 0.1320(19) 0.5391(17) 0.4994(11)
O10 O 0.1622(17) 0.4944(13) 0.6466(16)
O11 O -0.0955(14) 0.6685(16) 0.3872(7)
O12 O 0.0896(16) 0.6604(12) 0.6180(16)
O13 O -0.1120(14) 0.7270(11) 0.6697(7)
O14 O -0.0788(16) 0.7330(16) 0.5493(8)
O15 O -0.0868(19) 0.5816(15) 0.5150(9)
O16 O 0.305(2) 0.5004(12) 0.5537(7)
O17 O 0.0300(16) 0.3947(13) 0.7232(7)
O18 O 0.1225(16) 0.6229(13) 0.3734(8)
O19 O 0.0178(19) 0.5846(18) 0.4580(12)
O20 O 0.4351(13) 0.4125(14) 0.4665(9)
O21 O 0.2909(17) 0.7417(13) 0.4204(11)
O22 O -0.1458(16) 0.8238(11) 0.4446(9)
W1B W -0.19756(7) 0.33465(5) 0.55406(4)
W2B W 0.10114(7) 0.28047(5) 0.53626(3)
W3B W -0.01620(7) 0.56909(6) 0.34827(4)
W4B W -0.29682(7) 0.55852(6) 0.52268(4)
W5B W -0.21917(8) 0.41199(6) 0.40476(5)
W6B W 0.07611(8) 0.34643(6) 0.38411(5)
Cu1B Cu -0.3893(2) 0.23117(16) 0.30176(11)
Cu1A Cu 0.1107(2) 0.26883(16) 0.80176(11)
Cu1B_2 Cu 0.6107(2) 1.23117(16) 0.30176(11)
Cu1B_3 Cu -0.3893(2) 1.23117(16) 0.30176(11)
Cu1C Cu -0.1107(2) 0.73117(16) 0.19824(11)
Cu1A_2 Cu 0.1107(2) 1.26883(16) 0.80176(11)
N1B N 0.4933(16) 1.2056(14) 0.3636(8)
N1B_2 N -0.5067(16) 0.2056(14) 0.3636(8)
N2A N 0.0004(14) 1.1764(14) 0.7647(8)
N2B N -0.4996(14) 0.3236(14) 0.2647(8)
N3A N 0.2635(16) 0.7457(13) 0.7556(8)
N3C N -0.2635(16) 0.2543(13) 0.2444(8)
N4B N -0.2829(15) 1.1347(12) 0.3401(8)
N4B_2 N -0.2829(15) 0.1347(12) 0.3401(8)
N5B N -0.1453(18) 1.0597(14) 0.3871(9)
N6B N 0.4345(19) 1.1584(15) 0.4517(10)
N7A N -0.1139(14) 1.0592(12) 0.7612(7)
N8A N 0.1197(16) 0.7780(13) 0.8182(8)
C1A C -0.098(3) 1.085(2) 0.7049(11)
H1A H -0.1324 1.0579 0.6713
C2A C -0.024(2) 1.1602(17) 0.7036(9)
H2A H 0.0038 1.1917 0.6704
C3B C 0.3433(19) 1.1465(18) 0.4117(14)
H3B H 0.2702 1.1222 0.4203
C4B C 0.523(2) 1.186(2) 0.4231(12)
H4B H 0.5978 1.1928 0.4398
C5A C 0.2127(18) 0.8075(17) 0.7891(10)
H5A H 0.2398 0.8671 0.7921
C6A C -0.180(2) 0.9796(14) 0.7833(12)
H6A H -0.2131 0.9938 0.8221
H7A H -0.2444 0.9661 0.7556
C7A C -0.0051(19) 0.9127(18) 0.8379(11)
H8A H -0.0405 0.9454 0.8709
H9A H 0.0554 0.9513 0.8215
C8A C 0.050(2) 0.828(2) 0.8619(11)
H10A H -0.0106 0.7878 0.8764
H11A H 0.1008 0.8435 0.8959
C9B C 0.455(4) 1.022(3) 0.5164(13)
H12B H 0.4677 1.0065 0.5584
H13B H 0.3812 0.9948 0.5040
C10A C 0.120(3) 0.6846(18) 0.8042(15)
H14A H 0.0696 0.6412 0.8196
C11A C -0.0557(17) 1.1174(14) 0.7968(9)
H15A H -0.0553 1.1159 0.8385
C12A C 0.204(3) 0.6681(17) 0.7657(11)
H16A H 0.2203 0.6119 0.7484
C13B C -0.040(2) 1.041(2) 0.4193(12)
H17B H 0.0116 1.0933 0.4164
H18B H -0.0011 0.9898 0.4006
C14B C -0.059(2) 1.019(2) 0.4867(12)
H19B H -0.1208 0.9738 0.4906
H20B H -0.0822 1.0735 0.5081
C15B C -0.188(2) 1.1429(17) 0.3708(12)
H21B H -0.1523 1.1981 0.3807
C16B C -0.221(3) 1.0009(18) 0.3683(12)
H22B H -0.2150 0.9385 0.3747
C17A C -0.099(3) 0.8951(14) 0.7893(12)
H23A H -0.0616 0.8832 0.7512
H24A H -0.1448 0.8420 0.7998
C18B C 0.377(2) 1.175(2) 0.3595(11)
H25B H 0.3307 1.1758 0.3247
C19B C 0.442(2) 1.1210(18) 0.5127(11)
H26B H 0.3712 1.1380 0.5337
H27B H 0.5076 1.1492 0.5336
C20B C -0.3131(19) 1.0419(14) 0.3376(9)
H28B H -0.3787 1.0148 0.3197
O1B O 0.2416(19) 0.3378(17) 0.5228(7)
O2B O 0.0611(16) 0.4577(13) 0.3401(17)
O3B O -0.3220(12) 0.3650(9) 0.3599(6)
O4B O -0.2278(17) 0.6090(15) 0.5924(7)
O5B O -0.0664(14) 0.2644(17) 0.5420(8)
O6B O -0.235(3) 0.3318(14) 0.4720(8)
O7B O -0.030(2) 0.4702(16) 0.4254(9)
O8B O -0.289(2) 0.4435(12) 0.5580(8)
O9B O -0.1320(19) 0.4609(17) 0.5006(11)
O10B O -0.1622(17) 0.5056(13) 0.3534(16)
O11B O 0.0955(14) 0.3315(16) 0.6128(7)
O12B O -0.0896(16) 0.3396(12) 0.3820(16)
O13B O 0.1120(14) 0.2730(11) 0.3303(7)
O14B O 0.0788(16) 0.2670(16) 0.4507(8)
O15B O 0.0868(19) 0.4184(15) 0.4850(9)
O16B O -0.305(2) 0.4996(12) 0.4463(7)
O17B O -0.0300(16) 0.6053(13) 0.2768(7)
O17A O 0.4700(16) 0.8947(13) 0.7768(7)
O17C O -0.4700(16) 0.1053(13) 0.2232(7)
O18B O -0.1225(16) 0.3771(13) 0.6266(8)
O19B O -0.0178(19) 0.4154(18) 0.5420(12)
O20B O -0.4351(13) 0.5875(14) 0.5335(9)
O21B O -0.2909(17) 0.2583(13) 0.5796(11)
O22B O 0.1458(16) 0.1762(11) 0.5554(9)
loop_
_geom_bond_atom_site_label_1
_geom_bond_atom_site_label_2
_geom_bond_site_symmetry_1
_geom_bond_site_symmetry_2
W1 O5 1_555 1_555
W2 O1 1_555 1_555
W3 O2 1_555 1_555
W4 O4 1_555 1_555
W5 O3 1_555 1_555
W6 O2 1_555 1_555
Cu1 N1 1_555 1_555
Si1 O7 1_555 1_555
N1 C4 1_555 1_555
N2 Cu1 1_555 1_555
N3 C5 1_555 1_555
N4 Cu1 1_555 1_555
N5 C13 1_555 1_555
N6 C3 1_555 1_555
N7 C1 1_555 1_555
N8 C5 1_555 1_555
C1 H1 1_555 1_555
C2 N2 1_555 1_555
H2 C2 1_555 1_555
C3 H3 1_555 1_555
C4 N6 1_555 1_555
H4 C4 1_555 1_555
C5 H5 1_555 1_555
C6 N7 1_555 1_555
H6 C6 1_555 1_555
H7 C6 1_555 1_555
C7 H8 1_555 1_555
H9 C7 1_555 1_555
C8 N8 1_555 1_555
H10 C8 1_555 1_555
H11 C8 1_555 1_555
C9 H12 1_555 1_555
H13 C9 1_555 1_555
C10 N8 1_555 1_555
H14 C10 1_555 1_555
C11 N2 1_555 1_555
H15 C11 1_555 1_555
C12 N3 1_555 1_555
H16 C12 1_555 1_555
C13 H17 1_555 1_555
H18 C13 1_555 1_555
C14 C13 1_555 1_555
H19 C14 1_555 1_555
H20 C14 1_555 1_555
C15 N4 1_555 1_555
H21 C15 1_555 1_555
C16 N5 1_555 1_555
H22 C16 1_555 1_555
C17 C6 1_555 1_555
H23 C17 1_555 1_555
H24 C17 1_555 1_555
C18 N1 1_555 1_555
H25 C18 1_555 1_555
C19 N6 1_555 1_555
H26 C19 1_555 1_555
H27 C19 1_555 1_555
C20 N4 1_555 1_555
H28 C20 1_555 1_555
O1 W4B 1_555 1_555
O3 Cu1 1_555 1_555
O4 W6B 1_555 1_555
O5 W2 1_555 1_555
O6 W1 1_555 1_555
O7 W3 1_555 1_555
O8 W1 1_555 1_555
O9 W1 1_555 1_555
O10 W3 1_555 1_555
O11 W2 1_555 1_555
O12 W5 1_555 1_555
O13 W6 1_555 1_555
O14 W2 1_555 1_555
O15 W2 1_555 1_555
O16 W4 1_555 1_555
O17 W3 1_555 1_555
O18 W1 1_555 1_555
O19 W1 1_555 1_555
O20 W4 1_555 1_555
O21 W1 1_555 1_555
O22 W2 1_555 1_555
W1B O5B 1_555 1_555
W2B O1B 1_555 1_555
W3B O11 1_555 1_555
W4B O15 1_555 1_555
W5B O3B 1_555 1_555
W6B O2B 1_555 1_555
Cu1B N1B_2 1_555 1_555
Cu1A N3 1_555 1_555
Cu1B_2 N1B 1_555 1_555
Cu1B_3 N4B 1_555 1_555
Cu1C O17B 1_555 1_555
Cu1A_2 N2A 1_555 1_555
N1B C4B 1_555 1_555
N2A C2A 1_555 1_555
N2B Cu1B 1_555 1_555
N3A Cu1 1_555 1_555
N3C Cu1B 1_555 1_555
N4B C15B 1_555 1_555
N4B_2 Cu1B 1_555 1_555
N5B C13B 1_555 1_555
N6B C3B 1_555 1_555
N7A C1A 1_555 1_555
N8A C5A 1_555 1_555
C1A H1A 1_555 1_555
C2A C1A 1_555 1_555
H2A C2A 1_555 1_555
C3B H3B 1_555 1_555
C4B N6B 1_555 1_555
H4B C4B 1_555 1_555
C5A N3A 1_555 1_555
H5A C5A 1_555 1_555
C6A N7A 1_555 1_555
H6A C6A 1_555 1_555
H7A C6A 1_555 1_555
C7A H8A 1_555 1_555
H9A C7A 1_555 1_555
C8A N8A 1_555 1_555
H10A C8A 1_555 1_555
H11A C8A 1_555 1_555
C9B C9 1_555 1_555
H12B C9B 1_555 1_555
H13B C9B 1_555 1_555
C10A N8A 1_555 1_555
H14A C10A 1_555 1_555
C11A N2A 1_555 1_555
H15A C11A 1_555 1_555
C12A N3A 1_555 1_555
H16A C12A 1_555 1_555
C13B H17B 1_555 1_555
H18B C13B 1_555 1_555
C14B C14 1_555 1_555
H19B C14B 1_555 1_555
H20B C14B 1_555 1_555
C15B N5B 1_555 1_555
H21B C15B 1_555 1_555
C16B N5B 1_555 1_555
H22B C16B 1_555 1_555
C17A C6A 1_555 1_555
H23A C17A 1_555 1_555
H24A C17A 1_555 1_555
C18B N1B 1_555 1_555
H25B C18B 1_555 1_555
C19B N6B 1_555 1_555
H26B C19B 1_555 1_555
H27B C19B 1_555 1_555
C20B N4B 1_555 1_555
H28B C20B 1_555 1_555
O1B W4 1_555 1_555
O2B W3B 1_555 1_555
O3B Cu1B 1_555 1_555
O4B W6 1_555 1_555
O5B W2B 1_555 1_555
O6B W1B 1_555 1_555
O7B Si1 1_555 1_555
O8B W1B 1_555 1_555
O9B Si1 1_555 1_555
O10B W3B 1_555 1_555
O11B W3 1_555 1_555
O12B W5B 1_555 1_555
O13B W6B 1_555 1_555
O14B W2B 1_555 1_555
O15B W4 1_555 1_555
O16B W4B 1_555 1_555
O17B W3B 1_555 1_555
O17A Cu1 1_555 1_555
O17C Cu1B 1_555 1_555
O18B W3 1_555 1_555
O19B Si1 1_555 1_555
O20B W4B 1_555 1_555
O21B W1B 1_555 1_555
O22B W2B 1_555 1_555
W2 O19 1_555 1_555
W4 O8 1_555 1_555
W4 O9 1_555 1_555
W5 O6 1_555 1_555
W5 O7 1_555 1_555
W5 O10 1_555 1_555
W5 O16 1_555 1_555
W6 O7 1_555 1_555
W6 O12 1_555 1_555
W6 O14 1_555 1_555
Si1 O9 1_555 1_555
Si1 O15 1_555 1_555
Si1 O19 1_555 1_555
Si1 O15B 1_555 1_555
N5 C15 1_555 1_555
N7 C11 1_555 1_555
C1 C2 1_555 1_555
C3 C18 1_555 1_555
C7 C8 1_555 1_555
C7 C17 1_555 1_555
C9 C19 1_555 1_555
C10 C12 1_555 1_555
C16 C20 1_555 1_555
O9 O19 1_555 1_555
O15 O19 1_555 1_555
O17 Cu1A 1_555 1_555
O18 W3B 1_555 1_555
W1B O9B 1_555 1_555
W1B O18B 1_555 1_555
W1B O19B 1_555 1_555
W2B O11B 1_555 1_555
W2B O15B 1_555 1_555
W2B O19B 1_555 1_555
W3B O7B 1_555 1_555
W4B O4B 1_555 1_555
W4B O8B 1_555 1_555
W4B O9B 1_555 1_555
W5B O6B 1_555 1_555
W5B O7B 1_555 1_555
W5B O10B 1_555 1_555
W5B O16B 1_555 1_555
W6B O7B 1_555 1_555
W6B O12B 1_555 1_555
W6B O14B 1_555 1_555
N7A C11A 1_555 1_555
C3B C18B 1_555 1_555
C7A C8A 1_555 1_555
C7A C17A 1_555 1_555
C9B C19B 1_555 1_555
C10A C12A 1_555 1_555
C13B C14B 1_555 1_555
C16B C20B 1_555 1_555
O9B O19B 1_555 1_555
O15B O19B 1_555 1_555

#END
