
#######################################################################
#
#                 Cambridge Crystallographic Data Centre
#                                CCDC 
#
#######################################################################
#
# If this CIF has been generated from an entry in the Cambridge 
# Structural Database, then it will include bibliographic, chemical, 
# crystal, experimental, refinement or atomic coordinate data resulting 
# from the CCDC's data processing and validation procedures.
#
#######################################################################

data_RAFNIV
_chemical_formula_moiety         'C32 H16 Ag1 F6 N4 Sb1 1-'
_symmetry_cell_setting           triclinic
_symmetry_space_group_name_H-M   'I -1'
_symmetry_Int_Tables_number      2
_space_group_name_Hall           '-I 1'
loop_
_symmetry_equiv_pos_site_id
_symmetry_equiv_pos_as_xyz
1 x,y,z
2 1/2+x,1/2+y,1/2+z
3 -x,-y,-z
4 1/2-x,1/2-y,1/2-z
_cell_length_a                   5.7018(2)
_cell_length_b                   21.6612(4)
_cell_length_c                   21.5687(4)
_cell_angle_alpha                89.9760(10)
_cell_angle_beta                 89.992(2)
_cell_angle_gamma                89.989(2)
_cell_volume                     2663.9
loop_
_atom_site_label
_atom_site_type_symbol
_atom_site_fract_x
_atom_site_fract_y
_atom_site_fract_z
_atom_site_U_iso_or_equiv
_atom_site_thermal_displace_type
Ag1 Ag 0.86944(13) 0.00060(6) 0.24984(7) 0.0459 Uani
N1 N 0.5952(26) -0.0784(6) 0.2496(6) 0.0430 Uani
N2 N 0.6084(23) 0.0766(6) 0.2500(6) 0.0427 Uani
N3 N 1.1411(20) 0.0027(7) 0.1719(6) 0.0490 Uani
N4 N 1.1400(23) 0.0029(7) 0.3298(6) 0.0457 Uani
C1 C 0.2306(13) -0.1484(3) 0.2493(3) 0.0373 Uani
C2 C 0.1319(19) -0.1678(5) 0.1937(3) 0.0677 Uani
H1 H 0.1941(27) -0.1535(7) 0.1554(3) 0.0810 Uiso
C3 C -0.0578(19) -0.2081(5) 0.1941(3) 0.0830 Uani
H2 H -0.1253(28) -0.2213(7) 0.1561(4) 0.1000 Uiso
C4 C -0.1488(14) -0.2290(4) 0.2500(4) 0.0340 Uani
C5 C -0.0502(18) -0.2096(5) 0.3057(3) 0.0807 Uani
H3 H -0.1124(26) -0.2239(7) 0.3439(4) 0.0970 Uiso
C6 C 0.1396(18) -0.1693(5) 0.3053(3) 0.0643 Uani
H4 H 0.2070(26) -0.1561(7) 0.3433(3) 0.0770 Uiso
C7 C 0.4317(32) -0.1096(7) 0.2498(7) 0.0480 Uani
C8 C 0.2368(15) 0.1476(3) 0.2501(4) 0.0430 Uani
C9 C 0.1414(18) 0.1677(5) 0.1943(3) 0.0807 Uani
H5 H 0.2072(25) 0.1542(7) 0.1561(4) 0.0970 Uiso
C10 C -0.0501(18) 0.2074(5) 0.1943(4) 0.0827 Uani
H6 H -0.1153(25) 0.2211(7) 0.1562(4) 0.0990 Uiso
C11 C -0.1463(14) 0.2270(4) 0.2502(5) 0.0433 Uani
C12 C -0.0510(18) 0.2069(5) 0.3059(4) 0.0760 Uani
H7 H -0.1167(25) 0.2203(7) 0.3441(4) 0.0910 Uiso
C13 C 0.1406(18) 0.1672(5) 0.3059(3) 0.0847 Uani
H8 H 0.2057(25) 0.1535(7) 0.3440(4) 0.1020 Uiso
C14 C 0.4490(28) 0.1070(6) 0.2505(7) 0.0390 Uani
C15 C 1.5145(14) 0.0019(4) 0.1027(4) 0.0393 Uani
C16 C 1.6094(16) 0.0571(3) 0.0813(5) 0.0654 Uani
H9 H 1.5434(23) 0.0953(4) 0.0940(7) 0.0780 Uiso
C17 C 1.8008(16) 0.0562(3) 0.0414(5) 0.0647 Uani
H10 H 1.8656(23) 0.0939(4) 0.0268(7) 0.0770 Uiso
C18 C 1.8973(14) 0.0003(4) 0.0229(3) 0.0340 Uani
C19 C 1.8025(19) -0.0549(3) 0.0443(4) 0.0710 Uani
H11 H 1.8684(27) -0.0931(4) 0.0317(6) 0.0850 Uiso
C20 C 1.6110(19) -0.0541(3) 0.0842(4) 0.0653 Uani
H12 H 1.5462(26) -0.0917(4) 0.0989(7) 0.0780 Uiso
C21 C 1.3131(26) 0.0016(6) 0.1409(6) 0.0357 Uani
C22 C 1.5167(14) 0.0021(4) 0.3970(4) 0.0397 Uani
C23 C 1.6119(18) -0.0538(3) 0.4162(5) 0.0627 Uani
H13 H 1.5467(26) -0.0915(4) 0.4018(7) 0.0750 Uiso
C24 C 1.8025(19) -0.0545(3) 0.4563(4) 0.0620 Uani
H14 H 1.8675(27) -0.0927(4) 0.4694(7) 0.0740 Uiso
C25 C 1.8979(14) 0.0007(4) 0.4774(3) 0.0347 Uani
C26 C 1.8027(17) 0.0566(3) 0.4582(5) 0.0650 Uani
H15 H 1.8679(24) 0.0943(4) 0.4726(7) 0.0780 Uiso
C27 C 1.6121(17) 0.0573(3) 0.4180(5) 0.0700 Uani
H16 H 1.5471(25) 0.0956(4) 0.4049(7) 0.0840 Uiso
C28 C 1.3087(29) 0.0009(6) 0.3599(6) 0.0397 Uani
C4C C -0.3512(14) -0.2710(4) 0.2500(4) 0.0340 Uani
C11C C -0.3537(14) 0.2730(4) 0.2498(5) 0.0433 Uani
C18B C 2.1027(14) -0.0003(4) -0.0229(3) 0.0340 Uani
C25B C 2.1021(14) -0.0007(4) 0.5226(3) 0.0347 Uani
Sb1 Sb 0.7496(5) -0.25001(7) -0.00247(4) 0.0770 Uani
F1 F 0.5997(14) -0.2037(3) 0.0580(3) 0.0913 Uani
F2 F 0.8994(16) -0.2968(4) -0.0629(3) 0.1640 Uani
F3 F 0.5019(13) -0.3056(3) -0.0026(5) 0.1460 Uani
F4 F 0.9969(13) -0.1945(3) -0.0029(5) 0.1853 Uani
F5 F 0.6013(17) -0.2040(4) -0.0638(3) 0.1750 Uani
F6 F 0.8983(14) -0.2960(3) 0.0584(3) 0.0933 Uani
loop_
_atom_site_aniso_label
_atom_site_aniso_U_11
_atom_site_aniso_U_22
_atom_site_aniso_U_33
_atom_site_aniso_U_23
_atom_site_aniso_U_13
_atom_site_aniso_U_12
Ag1 0.0216(2) 0.0523(8) 0.0639(10) -0.0011(9) 0.0033(12) -0.0029(11)
N1 0.042(7) 0.038(6) 0.049(7) 0.006(5) 0.007(6) -0.011(5)
N2 0.033(6) 0.039(6) 0.056(7) 0.004(6) 0.010(5) -0.006(4)
N3 0.016(6) 0.080(9) 0.051(6) 0.001(7) -0.003(4) -0.007(5)
N4 0.033(7) 0.058(8) 0.046(6) 0.002(6) 0.007(5) -0.009(5)
C1 0.029(7) 0.029(5) 0.054(5) 0.001(4) 0.015(6) 0.000(6)
C2 0.095(14) 0.074(11) 0.034(5) -0.002(7) 0.023(6) -0.043(9)
C3 0.089(14) 0.128(17) 0.032(6) 0.000(8) -0.005(8) -0.061(12)
C4 0.034(9) 0.023(6) 0.045(6) 0.002(5) 0.002(5) -0.009(5)
C5 0.073(12) 0.132(16) 0.037(6) -0.013(8) 0.018(8) -0.067(11)
C6 0.069(12) 0.090(12) 0.034(5) 0.010(7) -0.023(6) -0.043(8)
C7 0.041(8) 0.040(9) 0.063(8) -0.009(7) 0.013(8) -0.005(6)
C8 0.025(7) 0.037(6) 0.067(6) -0.008(5) 0.001(7) -0.006(6)
C9 0.087(15) 0.080(12) 0.075(8) 0.034(9) 0.029(8) 0.047(10)
C10 0.075(12) 0.091(13) 0.082(8) 0.060(9) 0.050(9) 0.046(10)
C11 0.025(9) 0.035(7) 0.070(8) 0.006(6) 0.005(6) -0.009(5)
C12 0.066(11) 0.082(12) 0.080(8) -0.058(8) -0.039(9) 0.051(9)
C13 0.064(13) 0.113(15) 0.077(8) -0.036(10) -0.020(8) 0.061(10)
C14 0.019(6) 0.026(7) 0.072(8) -0.001(6) 0.010(7) -0.015(4)
C15 0.029(8) 0.057(7) 0.032(7) 0.006(6) 0.003(5) -0.007(5)
C16 0.041(10) 0.060(7) 0.095(13) 0.040(8) 0.036(8) 0.026(7)
C17 0.026(9) 0.061(6) 0.107(11) 0.024(7) 0.035(8) 0.017(7)
C18 0.034(9) 0.043(7) 0.025(7) -0.004(5) -0.002(6) -0.004(5)
C19 0.108(16) 0.053(6) 0.052(8) -0.020(6) 0.057(10) -0.029(9)
C20 0.073(12) 0.053(7) 0.070(11) -0.016(8) 0.039(9) -0.023(7)
C21 0.033(9) 0.040(6) 0.034(6) -0.003(5) 0.002(6) -0.012(6)
C22 0.026(8) 0.055(7) 0.038(7) -0.011(6) 0.003(5) 0.000(5)
C23 0.066(12) 0.048(6) 0.074(11) 0.014(7) -0.030(8) -0.023(7)
C24 0.090(15) 0.041(5) 0.055(8) 0.020(6) -0.042(9) -0.013(8)
C25 0.027(8) 0.052(7) 0.025(7) 0.007(5) 0.008(6) -0.012(5)
C26 0.038(10) 0.050(6) 0.107(12) -0.030(7) -0.024(8) 0.010(7)
C27 0.050(11) 0.050(7) 0.110(15) -0.037(9) -0.030(9) 0.031(7)
C28 0.036(9) 0.053(7) 0.030(6) -0.001(5) 0.008(5) -0.010(6)
C4C 0.034 0.023 0.045 0.002 0.002 -0.009
C11C 0.025 0.035 0.07 0.006 0.005 -0.009
C18B 0.034 0.043 0.025 -0.004 -0.002 -0.004
C25B 0.027 0.052 0.025 0.007 0.008 -0.012
Sb1 0.1635(10) 0.0331(4) 0.0344(4) -0.0002(4) -0.0022(13) -0.0068(12)
F1 0.129(6) 0.083(5) 0.062(4) -0.012(4) -0.004(5) -0.004(5)
F2 0.328(14) 0.111(8) 0.053(5) -0.014(6) -0.004(8) 0.110(9)
F3 0.184(7) 0.044(5) 0.210(10) -0.021(5) -0.090(6) -0.015(5)
F4 0.198(9) 0.028(7) 0.330(19) 0.005(7) 0.138(9) -0.026(6)
F5 0.396(14) 0.083(6) 0.046(5) 0.013(5) 0.016(7) 0.113(8)
F6 0.136(6) 0.091(6) 0.053(4) 0.013(4) -0.008(5) -0.005(5)
loop_
_geom_bond_atom_site_label_1
_geom_bond_atom_site_label_2
_geom_bond_site_symmetry_1
_geom_bond_site_symmetry_2
Sb1 F1 1_555 1_555
F2 Sb1 1_555 1_555
F3 Sb1 1_555 1_555
F4 Sb1 1_555 1_555
F5 Sb1 1_555 1_555
F6 Sb1 1_555 1_555
Ag1 N1 1_555 1_555
N1 C7 1_555 1_555
N2 Ag1 1_555 1_555
N3 Ag1 1_555 1_555
N4 Ag1 1_555 1_555
C1 C2 1_555 1_555
C2 H1 1_555 1_555
C3 C2 1_555 1_555
H2 C3 1_555 1_555
C4 C3 1_555 1_555
C5 C4 1_555 1_555
H3 C5 1_555 1_555
C6 C1 1_555 1_555
H4 C6 1_555 1_555
C7 C1 1_555 1_555
C8 C9 1_555 1_555
C9 H5 1_555 1_555
C10 C9 1_555 1_555
H6 C10 1_555 1_555
C11 C10 1_555 1_555
C12 C11 1_555 1_555
H7 C12 1_555 1_555
C13 C8 1_555 1_555
H8 C13 1_555 1_555
C14 N2 1_555 1_555
C15 C16 1_555 1_555
C16 H9 1_555 1_555
C17 C16 1_555 1_555
H10 C17 1_555 1_555
C18 C17 1_555 1_555
C19 C18 1_555 1_555
H11 C19 1_555 1_555
C20 C15 1_555 1_555
H12 C20 1_555 1_555
C21 N3 1_555 1_555
C22 C23 1_555 1_555
C23 H13 1_555 1_555
C24 C23 1_555 1_555
H14 C24 1_555 1_555
C25 C24 1_555 1_555
C26 C25 1_555 1_555
H15 C26 1_555 1_555
C27 C22 1_555 1_555
H16 C27 1_555 1_555
C28 N4 1_555 1_555
C4C C4 1_555 1_555
C11C C11 1_555 1_555
C18B C18 1_555 1_555
C25B C25 1_555 1_555
C5 C6 1_555 1_555
C8 C14 1_555 1_555
C12 C13 1_555 1_555
C15 C21 1_555 1_555
C19 C20 1_555 1_555
C22 C28 1_555 1_555
C26 C27 1_555 1_555

#END
