
#######################################################################
#
#                 Cambridge Crystallographic Data Centre
#                                CCDC 
#
#######################################################################
#
# If this CIF has been generated from an entry in the Cambridge 
# Structural Database, then it will include bibliographic, chemical, 
# crystal, experimental, refinement or atomic coordinate data resulting 
# from the CCDC's data processing and validation procedures.
#
#######################################################################

data_IYITOB
_chemical_formula_moiety         '(C48 H40 Br6 N12 O3 Zn3)n'
_symmetry_cell_setting           monoclinic
_symmetry_space_group_name_H-M   'C 2/c'
_symmetry_Int_Tables_number      15
_space_group_name_Hall           '-C 2yc'
loop_
_symmetry_equiv_pos_site_id
_symmetry_equiv_pos_as_xyz
1 x,y,z
2 -x,y,1/2-z
3 1/2+x,1/2+y,z
4 1/2-x,1/2+y,1/2-z
5 -x,-y,-z
6 x,-y,1/2+z
7 1/2-x,1/2-y,-z
8 1/2+x,1/2-y,1/2+z
_cell_length_a                   34.6633(18)
_cell_length_b                   15.3199(8)
_cell_length_c                   32.2057(16)
_cell_angle_alpha                90
_cell_angle_beta                 103.8366(15)
_cell_angle_gamma                90
_cell_volume                     16606.2
loop_
_atom_site_label
_atom_site_type_symbol
_atom_site_fract_x
_atom_site_fract_y
_atom_site_fract_z
_atom_site_U_iso_or_equiv
_atom_site_thermal_displace_type
Br1 Br 1.14602(4) 0.42695(10) 0.99541(5) 0.0716 Uani
Br2 Br 1.10968(4) 0.26500(8) 1.09292(6) 0.0842 Uani
Br3 Br 0.99064(4) 1.10640(8) 0.87131(4) 0.0564 Uani
Br4 Br 0.89435(4) 1.22530(6) 0.92411(4) 0.0564 Uani
C1 C 1.0614(4) 0.5417(8) 1.0278(5) 0.0708 Uani
H1 H 1.0734 0.5412 1.0049 0.0850 Uiso
C2 C 1.0288(5) 0.5977(9) 1.0258(5) 0.0740 Uani
H2 H 1.0192 0.6317 1.0016 0.0890 Uiso
C3 C 1.0113(4) 0.6020(9) 1.0597(4) 0.0675 Uani
C4 C 1.0272(6) 0.5483(14) 1.0957(7) 0.1283 Uani
H3 H 1.0171 0.5504 1.1199 0.1540 Uiso
C5 C 1.0569(7) 0.4950(15) 1.0938(7) 0.1471 Uani
H4 H 1.0658 0.4575 1.1168 0.1760 Uiso
C6 C 0.9795(4) 0.6639(8) 1.0594(4) 0.0572 Uani
C7 C 0.9465(4) 0.7866(8) 1.0323(4) 0.0553 Uani
C8 C 0.9276(4) 0.7107(8) 1.0842(4) 0.0621 Uani
C9 C 0.9433(4) 0.8637(8) 1.0033(4) 0.0559 Uani
C10 C 0.9730(4) 0.8823(9) 0.9832(4) 0.0662 Uani
H5 H 0.9960 0.8486 0.9890 0.0790 Uiso
C11 C 0.9694(4) 0.9485(8) 0.9552(5) 0.0673 Uani
H6 H 0.9894 0.9582 0.9410 0.0810 Uiso
C12 C 0.9088(5) 0.9870(9) 0.9690(5) 0.0758 Uani
H7 H 0.8874 1.0251 0.9653 0.0910 Uiso
C13 C 0.9105(5) 0.9187(9) 0.9962(5) 0.0816 Uani
H8 H 0.8901 0.9088 1.0098 0.0980 Uiso
C14 C 0.8364(5) 0.7157(12) 1.1296(6) 0.0970 Uani
H9 H 0.8118 0.7434 1.1240 0.1160 Uiso
C15 C 0.8621(5) 0.7342(12) 1.1021(6) 0.0944 Uani
H10 H 0.8542 0.7707 1.0785 0.1140 Uiso
C16 C 0.8992(4) 0.6955(9) 1.1119(4) 0.0666 Uani
C17 C 0.9097(5) 0.6407(11) 1.1469(5) 0.0901 Uani
H11 H 0.9348 0.6152 1.1546 0.1080 Uiso
C18 C 0.8818(5) 0.6254(11) 1.1696(6) 0.0954 Uani
H12 H 0.8884 0.5862 1.1922 0.1150 Uiso
C19 C 0.8070(4) 0.8899(8) 0.7552(4) 0.0574 Uani
C20 C 0.7876(4) 0.7628(8) 0.7212(4) 0.0594 Uani
C21 C 0.7545(4) 0.8860(8) 0.6998(4) 0.0577 Uani
C22 C 0.8577(5) 1.0697(8) 0.8251(4) 0.0788 Uani
H13 H 0.8548 1.1297 0.8273 0.0950 Uiso
C23 C 0.8319(5) 1.0264(8) 0.7931(4) 0.0739 Uani
H14 H 0.8120 1.0568 0.7741 0.0890 Uiso
C24 C 0.8353(4) 0.9402(7) 0.7893(4) 0.0587 Uani
C25 C 0.8652(5) 0.8970(9) 0.8174(5) 0.0911 Uani
H15 H 0.8684 0.8371 0.8154 0.1090 Uiso
C26 C 0.8900(5) 0.9448(9) 0.8483(6) 0.0936 Uani
H16 H 0.9104 0.9153 0.8671 0.1120 Uiso
C27 C 0.8258(6) 0.5323(10) 0.7384(6) 0.0933 Uani
H17 H 0.8458 0.5022 0.7574 0.1120 Uiso
C28 C 0.8233(5) 0.6238(10) 0.7435(5) 0.0852 Uani
H18 H 0.8421 0.6534 0.7641 0.1020 Uiso
C29 C 0.7934(4) 0.6658(8) 0.7180(4) 0.0648 Uani
C30 C 0.7652(5) 0.6169(9) 0.6865(6) 0.0875 Uani
H19 H 0.7438 0.6443 0.6683 0.1050 Uiso
C31 C 0.7709(5) 0.5311(9) 0.6843(6) 0.0900 Uani
H20 H 0.7521 0.4993 0.6647 0.1080 Uiso
C32 C 0.7219(4) 0.9355(8) 0.6689(4) 0.0626 Uani
C33 C 0.6954(4) 0.8901(9) 0.6363(5) 0.0727 Uani
H21 H 0.6972 0.8300 0.6335 0.0880 Uiso
C34 C 0.6671(4) 0.9375(8) 0.6089(5) 0.0724 Uani
H22 H 0.6489 0.9070 0.5879 0.0870 Uiso
C35 C 0.6888(4) 1.0661(9) 0.6422(5) 0.0750 Uani
H23 H 0.6862 1.1261 0.6449 0.0900 Uiso
C36 C 0.7185(4) 1.0226(9) 0.6712(5) 0.0736 Uani
H24 H 0.7362 1.0537 0.6923 0.0880 Uiso
N1 N 1.0757(4) 0.4905(8) 1.0602(4) 0.0799 Uani
N2 N 0.8454(4) 0.6621(8) 1.1621(4) 0.0859 Uani
N3 N 0.9368(4) 1.0021(7) 0.9470(3) 0.0675 Uani
N4 N 0.9206(3) 0.7786(7) 1.0571(3) 0.0636 Uani
N5 N 0.9572(3) 0.6530(7) 1.0871(4) 0.0686 Uani
N6 N 0.9754(3) 0.7308(7) 1.0313(3) 0.0673 Uani
N7 N 0.8873(3) 1.0297(6) 0.8537(3) 0.0620 Uani
N8 N 0.8015(4) 0.4875(7) 0.7082(4) 0.0768 Uani
N9 N 0.6633(3) 1.0234(7) 0.6097(4) 0.0743 Uani
N10 N 0.7774(3) 0.9329(6) 0.7306(3) 0.0604 Uani
N11 N 0.8143(3) 0.8032(6) 0.7525(3) 0.0644 Uani
N12 N 0.7580(3) 0.7999(6) 0.6938(4) 0.0649 Uani
Zn1 Zn 1.12339(5) 0.41110(11) 1.06401(6) 0.0799 Uani
Zn2 Zn 0.92840(5) 1.09592(9) 0.90011(5) 0.0647 Uani
Zn3 Zn 0.80890(8) 0.35373(11) 0.70261(9) 0.1177 Uani
Br5 Br 0.73576(9) 0.3019(2) 0.65284(13) 0.0686 Uani
Br6 Br 0.86138(14) 0.3175(2) 0.78314(14) 0.0804 Uani
N2E N 0.8454(4) 0.3379(8) 0.6621(4) 0.0859 Uani
N9G N 1.1633(3) 0.4766(7) 1.1097(4) 0.0743 Uani
Zn1G Zn 0.62339(5) 1.08890(11) 0.56401(6) 0.0799 Uani
Zn3E Zn 0.80890(8) 0.64627(11) 1.20261(9) 0.1177 Uani
C37 C 0.7207(5) 0.5844(13) 0.5275(5) 0.4410 Uani
C38 C 0.6919(5) 0.6380(13) 0.5026(6) 0.4407 Uani
C39 C 0.6612(5) 0.6018(14) 0.4715(6) 0.4393 Uani
H25 H 0.6419 0.6377 0.4549 0.5270 Uiso
C40 C 0.6592(6) 0.5120(15) 0.4654(6) 0.4386 Uani
C41 C 0.6881(6) 0.4583(13) 0.4902(6) 0.4388 Uani
C42 C 0.7188(5) 0.4945(13) 0.5213(6) 0.4395 Uani
H26 H 0.7381 0.4586 0.5379 0.5270 Uiso
C43 C 0.6558(11) 0.783(2) 0.4752(13) 0.4395 Uani
H27 H 0.6313 0.7599 0.4796 0.6590 Uiso
H28 H 0.6564 0.7752 0.4457 0.6590 Uiso
H29 H 0.6578 0.8435 0.4823 0.6590 Uiso
C44 C 0.5962(8) 0.548(3) 0.4070(9) 0.4362 Uani
H30 H 0.5873 0.5755 0.4298 0.6540 Uiso
H31 H 0.5748 0.5144 0.3897 0.6540 Uiso
H32 H 0.6046 0.5915 0.3897 0.6540 Uiso
C45 C 0.7170(10) 0.3042(18) 0.5104(16) 0.4380 Uani
H33 H 0.7417 0.3352 0.5143 0.6570 Uiso
H34 H 0.7173 0.2544 0.4924 0.6570 Uiso
H35 H 0.7135 0.2853 0.5377 0.6570 Uiso
C46 C 0.7495(5) 0.6402(13) 0.5578(6) 0.4440 Uani
H36 H 0.7431 0.6992 0.5547 0.5330 Uiso
C47 C 0.7865(6) 0.6236(16) 0.5920(7) 0.4469 Uani
H37 H 0.7962 0.6769 0.6038 0.5360 Uiso
C48 C 0.8117(6) 0.5576(17) 0.6128(8) 0.4482 Uani
H38 H 0.8094 0.5075 0.5944 0.6720 Uiso
H39 H 0.8044 0.5418 0.6387 0.6720 Uiso
H40 H 0.8387 0.5782 0.6194 0.6720 Uiso
O1 O 0.6300(10) 0.489(2) 0.4252(9) 0.4358 Uani
O2 O 0.6897(10) 0.7348(14) 0.5029(13) 0.4395 Uani
O3 O 0.6836(9) 0.3629(15) 0.4900(13) 0.4378 Uani
loop_
_atom_site_aniso_label
_atom_site_aniso_U_11
_atom_site_aniso_U_22
_atom_site_aniso_U_33
_atom_site_aniso_U_23
_atom_site_aniso_U_13
_atom_site_aniso_U_12
Br1 0.0613(8) 0.0798(9) 0.0758(9) -0.0278(7) 0.0208(7) 0.0036(7)
Br2 0.0701(9) 0.0398(7) 0.1215(13) 0.0160(7) -0.0190(8) -0.0124(6)
Br3 0.0625(7) 0.0562(7) 0.0531(7) 0.0070(5) 0.0188(5) -0.0132(6)
Br4 0.0885(9) 0.0249(5) 0.0526(6) -0.0057(4) 0.0103(6) 0.0117(5)
C1 0.074(9) 0.053(7) 0.084(10) 0.014(7) 0.016(7) 0.015(7)
C2 0.098(11) 0.057(8) 0.069(9) 0.011(7) 0.024(8) 0.007(8)
C3 0.062(8) 0.069(9) 0.070(8) 0.020(7) 0.013(7) 0.004(7)
C4 0.111(14) 0.152(18) 0.144(17) 0.087(15) 0.074(13) 0.065(14)
C5 0.148(19) 0.17(2) 0.146(19) 0.091(17) 0.080(16) 0.103(17)
C6 0.056(7) 0.061(7) 0.055(7) 0.020(6) 0.014(6) 0.010(6)
C7 0.059(7) 0.058(7) 0.050(7) 0.007(6) 0.015(6) 0.001(6)
C8 0.066(8) 0.058(7) 0.064(8) 0.022(6) 0.019(6) 0.013(6)
C9 0.063(7) 0.046(6) 0.057(7) 0.001(5) 0.011(6) 0.005(6)
C10 0.066(8) 0.062(8) 0.068(8) 0.018(7) 0.011(7) -0.004(6)
C11 0.067(8) 0.052(7) 0.083(9) 0.011(7) 0.018(7) 0.007(6)
C12 0.096(11) 0.059(8) 0.082(10) 0.021(7) 0.040(9) 0.015(8)
C13 0.107(12) 0.062(9) 0.084(10) 0.018(8) 0.039(9) 0.021(8)
C14 0.082(11) 0.109(14) 0.111(13) 0.030(11) 0.045(10) 0.022(10)
C15 0.098(12) 0.100(12) 0.103(12) 0.019(10) 0.059(10) 0.025(10)
C16 0.075(9) 0.063(8) 0.066(8) 0.010(6) 0.025(7) 0.005(7)
C17 0.111(13) 0.099(12) 0.070(9) 0.035(9) 0.041(9) 0.014(10)
C18 0.113(14) 0.092(12) 0.095(12) 0.033(10) 0.052(11) 0.023(10)
C19 0.069(8) 0.044(6) 0.058(7) 0.002(5) 0.013(6) 0.001(6)
C20 0.076(9) 0.038(6) 0.063(8) 0.001(6) 0.014(7) -0.008(6)
C21 0.067(8) 0.044(6) 0.061(7) -0.005(6) 0.013(6) -0.004(6)
C22 0.109(12) 0.041(7) 0.072(9) -0.005(6) -0.007(8) 0.009(7)
C23 0.098(11) 0.049(7) 0.063(8) -0.004(6) -0.004(7) 0.010(7)
C24 0.076(8) 0.040(6) 0.057(7) 0.001(5) 0.010(6) 0.002(6)
C25 0.097(11) 0.051(8) 0.104(12) -0.023(8) -0.018(9) 0.007(8)
C26 0.089(11) 0.040(7) 0.130(14) -0.019(8) -0.017(10) 0.016(7)
C27 0.123(14) 0.053(9) 0.100(12) -0.002(8) 0.019(11) 0.012(9)
C28 0.103(12) 0.061(9) 0.081(10) 0.001(8) 0.001(9) 0.022(8)
C29 0.079(9) 0.047(7) 0.070(8) -0.001(6) 0.021(7) 0.002(6)
C30 0.085(11) 0.055(8) 0.122(13) -0.029(9) 0.024(10) -0.014(8)
C31 0.086(11) 0.047(8) 0.139(15) -0.008(9) 0.031(11) 0.004(8)
C32 0.068(8) 0.042(6) 0.077(9) -0.006(6) 0.016(7) -0.009(6)
C33 0.076(9) 0.046(7) 0.090(10) 0.000(7) 0.008(8) -0.005(7)
C34 0.076 0.047 0.086 -0.003 0.003 -0.019
C35 0.061 0.049 0.104 -0.007 -0.002 -0.009
C36 0.071 0.057 0.09 -0.01 0.014 0
N1 0.066(7) 0.079(8) 0.095(9) 0.011(7) 0.020(7) 0.015(6)
N2 0.100(10) 0.073(8) 0.102(10) 0.014(7) 0.058(8) 0.002(7)
N3 0.087(8) 0.048(6) 0.062(7) 0.011(5) 0.007(6) -0.003(6)
N4 0.071(7) 0.063(7) 0.060(6) 0.007(5) 0.022(5) 0.002(5)
N5 0.069(7) 0.069(7) 0.071(7) 0.018(6) 0.023(6) 0.005(6)
N6 0.072(7) 0.064(7) 0.067(7) 0.015(5) 0.019(6) 0.013(6)
N7 0.076(7) 0.041(5) 0.066(7) -0.004(5) 0.011(5) 0.000(5)
N8 0.101(10) 0.040(6) 0.100(9) -0.010(6) 0.045(8) -0.010(6)
N9 0.068 0.046 0.106 -0.005 0.015 -0.013
N10 0.069(7) 0.049(6) 0.059(6) -0.002(5) 0.007(5) -0.011(5)
N11 0.091(8) 0.041(5) 0.065(7) -0.003(5) 0.026(6) -0.011(5)
N12 0.073(7) 0.043(6) 0.079(7) 0.002(5) 0.019(6) -0.004(5)
Zn1 0.0592(10) 0.0640(10) 0.1080(14) -0.0061(9) 0.0030(9) 0.0060(8)
Zn2 0.0896(11) 0.0468(8) 0.0550(8) 0.0032(6) 0.0119(8) -0.0038(7)
Zn3 0.181(2) 0.0450(9) 0.174(2) 0.0051(11) 0.135(2) 0.0093(12)
Br5 0.0546(17) 0.0442(17) 0.122(3) -0.0435(18) 0.0509(18) -0.0261(13)
Br6 0.132(3) 0.0423(18) 0.091(3) 0.0263(16) 0.074(3) 0.0303(19)
N2E 0.1 0.073 0.102 -0.014 0.058 -0.002
N9G 0.068 0.046 0.106 0.005 0.015 0.013
Zn1G 0.0592 0.064 0.108 0.0061 0.003 -0.006
Zn3E 0.181 0.045 0.174 -0.0051 0.135 -0.0093
C37 0.440(10) 0.444(10) 0.441(10) 0.003(4) 0.109(5) -0.002(4)
C38 0.440(10) 0.444(10) 0.441(10) 0.002(4) 0.111(5) -0.001(4)
C39 0.439(10) 0.443(10) 0.439(10) 0.002(5) 0.111(5) -0.002(5)
C40 0.438(10) 0.442(10) 0.439(10) 0.002(4) 0.111(5) -0.002(4)
C41 0.438(10) 0.442(10) 0.439(10) 0.002(4) 0.110(5) -0.002(4)
C42 0.439(10) 0.442(10) 0.440(10) 0.001(5) 0.110(5) -0.001(5)
C43 0.440(12) 0.443(12) 0.440(11) 0.006(8) 0.114(8) 0.001(8)
C44 0.436(12) 0.442(12) 0.435(12) 0.005(8) 0.113(8) -0.003(8)
C45 0.437(12) 0.439(12) 0.439(11) 0.002(8) 0.107(8) -0.004(8)
C46 0.443(10) 0.446(10) 0.444(10) 0.003(5) 0.108(5) -0.001(5)
C47 0.446(11) 0.449(11) 0.445(11) 0.005(6) 0.105(6) -0.001(6)
C48 0.446(12) 0.450(12) 0.448(12) 0.004(8) 0.106(8) 0.000(8)
O1 0.435(10) 0.442(10) 0.435(10) 0.003(5) 0.113(6) -0.004(5)
O2 0.440(10) 0.443(10) 0.440(10) 0.004(5) 0.114(5) -0.001(5)
O3 0.437(10) 0.439(10) 0.440(10) 0.001(5) 0.110(6) -0.002(5)
loop_
_geom_bond_atom_site_label_1
_geom_bond_atom_site_label_2
_geom_bond_site_symmetry_1
_geom_bond_site_symmetry_2
Br1 Zn1 1_555 1_555
Br2 Zn1 1_555 1_555
Br3 Zn2 1_555 1_555
Br4 Zn2 1_555 1_555
C1 H1 1_555 1_555
C2 C1 1_555 1_555
H2 C2 1_555 1_555
C3 C2 1_555 1_555
C4 C3 1_555 1_555
H3 C4 1_555 1_555
C5 C4 1_555 1_555
H4 C5 1_555 1_555
C6 C3 1_555 1_555
C7 C9 1_555 1_555
C8 C16 1_555 1_555
C9 C10 1_555 1_555
C10 H5 1_555 1_555
C11 C10 1_555 1_555
H6 C11 1_555 1_555
C12 H7 1_555 1_555
C13 C9 1_555 1_555
H8 C13 1_555 1_555
C14 H9 1_555 1_555
C15 C14 1_555 1_555
H10 C15 1_555 1_555
C16 C15 1_555 1_555
C17 C16 1_555 1_555
H11 C17 1_555 1_555
C18 C17 1_555 1_555
H12 C18 1_555 1_555
C19 C24 1_555 1_555
C20 C29 1_555 1_555
C21 C32 1_555 1_555
C22 H13 1_555 1_555
C23 C22 1_555 1_555
H14 C23 1_555 1_555
C24 C23 1_555 1_555
C25 C24 1_555 1_555
H15 C25 1_555 1_555
C26 C25 1_555 1_555
H16 C26 1_555 1_555
C27 H17 1_555 1_555
C28 C27 1_555 1_555
H18 C28 1_555 1_555
C29 C28 1_555 1_555
C30 C29 1_555 1_555
H19 C30 1_555 1_555
C31 C30 1_555 1_555
H20 C31 1_555 1_555
C32 C33 1_555 1_555
C33 H21 1_555 1_555
C34 C33 1_555 1_555
H22 C34 1_555 1_555
C35 H23 1_555 1_555
C36 C32 1_555 1_555
H24 C36 1_555 1_555
N1 C1 1_555 1_555
N2 C14 1_555 1_555
N3 C11 1_555 1_555
N4 C7 1_555 1_555
N5 C6 1_555 1_555
N6 C6 1_555 1_555
N7 C22 1_555 1_555
N8 C27 1_555 1_555
N9 C34 1_555 1_555
N10 C19 1_555 1_555
N11 C19 1_555 1_555
N12 C20 1_555 1_555
Zn1 N1 1_555 1_555
Zn2 N3 1_555 1_555
Zn3 N8 1_555 1_555
Br5 Zn3 1_555 1_555
Br6 Zn3 1_555 1_555
C37 C38 1_555 1_555
C38 C39 1_555 1_555
C39 H25 1_555 1_555
C40 C39 1_555 1_555
C41 C40 1_555 1_555
C42 C37 1_555 1_555
H26 C42 1_555 1_555
C43 H27 1_555 1_555
H28 C43 1_555 1_555
H29 C43 1_555 1_555
C44 H30 1_555 1_555
H31 C44 1_555 1_555
H32 C44 1_555 1_555
C45 H33 1_555 1_555
H34 C45 1_555 1_555
H35 C45 1_555 1_555
C46 C37 1_555 1_555
H36 C46 1_555 1_555
C47 C46 1_555 1_555
H37 C47 1_555 1_555
C48 C47 1_555 1_555
H38 C48 1_555 1_555
H39 C48 1_555 1_555
H40 C48 1_555 1_555
O1 C40 1_555 1_555
O2 C38 1_555 1_555
O3 C41 1_555 1_555
N2E Zn3 1_555 1_555
N9G Zn1 1_555 1_555
Zn1G N9 1_555 1_555
Zn3E N2 1_555 1_555
C5 N1 1_555 1_555
C7 N6 1_555 1_555
C8 N4 1_555 1_555
C8 N5 1_555 1_555
C12 C13 1_555 1_555
C12 N3 1_555 1_555
C18 N2 1_555 1_555
C20 N11 1_555 1_555
C21 N10 1_555 1_555
C21 N12 1_555 1_555
C26 N7 1_555 1_555
C31 N8 1_555 1_555
C35 C36 1_555 1_555
C35 N9 1_555 1_555
N7 Zn2 1_555 1_555
C41 C42 1_555 1_555
C43 O2 1_555 1_555
C44 O1 1_555 1_555
C45 O3 1_555 1_555

#END
