
#######################################################################
#
#                 Cambridge Crystallographic Data Centre
#                                CCDC 
#
#######################################################################
#
# If this CIF has been generated from an entry in the Cambridge 
# Structural Database, then it will include bibliographic, chemical, 
# crystal, experimental, refinement or atomic coordinate data resulting 
# from the CCDC's data processing and validation procedures.
#
#######################################################################

data_IYOCOQ
_chemical_formula_moiety         '(C48 H40 I6 N12 O3 Zn3)n'
_symmetry_cell_setting           monoclinic
_symmetry_space_group_name_H-M   'C 2/c'
_symmetry_Int_Tables_number      15
_space_group_name_Hall           '-C 2yc'
loop_
_symmetry_equiv_pos_site_id
_symmetry_equiv_pos_as_xyz
1 x,y,z
2 -x,y,1/2-z
3 1/2+x,1/2+y,z
4 1/2-x,1/2+y,1/2-z
5 -x,-y,-z
6 x,-y,1/2+z
7 1/2-x,1/2-y,-z
8 1/2+x,1/2-y,1/2+z
_cell_length_a                   34.841(2)
_cell_length_b                   14.7428(9)
_cell_length_c                   31.0430(18)
_cell_angle_alpha                90
_cell_angle_beta                 101.299(3)
_cell_angle_gamma                90
_cell_volume                     15636.3
loop_
_atom_site_label
_atom_site_type_symbol
_atom_site_fract_x
_atom_site_fract_y
_atom_site_fract_z
_atom_site_U_iso_or_equiv
_atom_site_thermal_displace_type
I1 I 1.12041(3) 0.25365(5) 0.55554(3) 0.0496 Uani
Zn1 Zn 1.08369(4) 0.36833(9) 0.59243(4) 0.0310 Uani
I2 I 1.02644(3) 0.34491(6) 0.63106(2) 0.0460 Uani
N1 N 1.5691(3) 1.0270(6) 1.0477(3) 0.0276 Uani
N2 N 1.1243(3) 0.4364(6) 0.6388(3) 0.0314 Uani
C1 C 1.1523(3) 0.3941(7) 0.6676(3) 0.0258 Uani
C2 C 1.1191(4) 0.5257(9) 0.6447(4) 0.0517 Uani
C3 C 1.1745(3) 0.4374(7) 0.7028(3) 0.0240 Uani
H1 H 1.1568 0.3328 0.6634 0.0310 Uiso
C4 C 1.1403(4) 0.5743(8) 0.6785(4) 0.0467 Uani
H2 H 1.1001 0.5558 0.6246 0.0620 Uiso
H3 H 1.1931 0.4054 0.7226 0.0280 Uiso
C5 C 1.1690(3) 0.5303(7) 0.7089(3) 0.0267 Uani
H4 H 1.1356 0.6359 0.6812 0.0560 Uiso
C6 C 1.1922(3) 0.5823(6) 0.7457(3) 0.0207 Uani
N3 N 1.1824(2) 0.6694(6) 0.7489(3) 0.0270 Uani
N4 N 1.2217(2) 0.5410(6) 0.7719(3) 0.0214 Uani
C7 C 1.2048(3) 0.7156(7) 0.7816(3) 0.0214 Uani
C8 C 1.2409(3) 0.5924(7) 0.8048(3) 0.0210 Uani
C9 C 1.1964(3) 0.8130(7) 0.7821(3) 0.0245 Uani
N5 N 1.2334(2) 0.6805(6) 0.8109(3) 0.0234 Uani
C10 C 1.2728(3) 0.5480(7) 0.8363(3) 0.0209 Uani
C11 C 1.1630(4) 0.8486(8) 0.7549(4) 0.0417 Uani
C12 C 1.2223(3) 0.8748(7) 0.8059(4) 0.0313 Uani
C13 C 1.2920(3) 0.5922(8) 0.8730(3) 0.0322 Uani
C14 C 1.2832(3) 0.4593(7) 0.8291(3) 0.0292 Uani
C15 C 1.1567(4) 0.9408(8) 0.7535(4) 0.0401 Uani
H5 H 1.1451 0.8100 0.7379 0.0500 Uiso
C16 C 1.2149(3) 0.9666(8) 0.8011(3) 0.0305 Uani
H6 H 1.2445 0.8544 0.8251 0.0380 Uiso
C17 C 1.3211(3) 0.5461(7) 0.9015(3) 0.0287 Uani
H7 H 1.2856 0.6516 0.8788 0.0390 Uiso
C18 C 1.3126(3) 0.4192(7) 0.8589(3) 0.0305 Uani
H8 H 1.2705 0.4276 0.8046 0.0350 Uiso
N6 N 1.1823(3) 0.9984(6) 0.7757(3) 0.0258 Uani
H9 H 1.1337 0.9634 0.7364 0.0480 Uiso
H10 H 1.2332 1.0074 0.8159 0.0370 Uiso
N7 N 1.3313(2) 0.4611(6) 0.8951(3) 0.0259 Uani
H11 H 1.3342 0.5763 0.9263 0.0340 Uiso
H12 H 1.3198 0.3601 0.8536 0.0370 Uiso
Zn2 Zn 1.16882(4) 1.13595(9) 0.76885(4) 0.0268 Uani
Zn3 Zn 1.37417(4) 0.40016(9) 0.94090(4) 0.0269 Uani
N8 N 1.6375(3) 0.6560(6) 0.8183(3) 0.0295 Uani
I3 I 1.12275(3) 1.15165(5) 0.69512(2) 0.0446 Uani
I4 I 1.22975(2) 1.23323(5) 0.79116(2) 0.0371 Uani
I5 I 1.39696(3) 0.26219(6) 0.90304(3) 0.0537 Uani
I6 I 1.35106(2) 0.40344(8) 1.01316(3) 0.0531 Uani
N9 N 1.4193(2) 0.4916(6) 0.9446(3) 0.0250 Uani
C19 C 1.4344(4) 0.5061(9) 0.9086(3) 0.0383 Uani
C20 C 1.4364(3) 0.5345(7) 0.9812(3) 0.0241 Uani
C21 C 1.4661(4) 0.5589(9) 0.9082(3) 0.0405 Uani
H13 H 1.4225 0.4783 0.8825 0.0460 Uiso
H14 H 1.4263 0.5253 1.0065 0.0290 Uiso
C22 C 1.4680(3) 0.5917(7) 0.9837(3) 0.0230 Uani
C23 C 1.4835(3) 0.6037(7) 0.9459(3) 0.0239 Uani
H15 H 1.4761 0.5649 0.8827 0.0490 Uiso
H16 H 1.4786 0.6213 1.0098 0.0280 Uiso
C24 C 1.5173(3) 0.6641(6) 0.9453(3) 0.0203 Uani
N10 N 1.5391(2) 0.6449(6) 0.9151(3) 0.0259 Uani
N11 N 1.5226(2) 0.7336(6) 0.9728(2) 0.0215 Uani
C25 C 1.5673(3) 0.7055(7) 0.9131(3) 0.0260 Uani
C26 C 1.5511(3) 0.7910(7) 0.9663(3) 0.0197 Uani
C27 C 1.5920(3) 0.6879(7) 0.8808(3) 0.0247 Uani
N12 N 1.5734(2) 0.7811(6) 0.9373(3) 0.0235 Uani
C28 C 1.5563(3) 0.8739(7) 0.9941(3) 0.0232 Uani
C29 C 1.5932(5) 0.6024(10) 0.8625(5) 0.0535 Uani
C30 C 1.6151(5) 0.7541(10) 0.8687(6) 0.0677 Uani
C31 C 1.5314(3) 0.8960(7) 1.0215(3) 0.0259 Uani
C32 C 1.5880(4) 0.9316(10) 0.9932(4) 0.0488 Uani
C33 C 1.6166(4) 0.5897(9) 0.8313(4) 0.0480 Uani
H17 H 1.5787 0.5547 0.8707 0.0640 Uiso
C34 C 1.6380(6) 0.7321(10) 0.8387(6) 0.0732 Uani
H18 H 1.6154 0.8123 0.8803 0.0810 Uiso
C35 C 1.5383(3) 0.9732(7) 1.0481(3) 0.0276 Uani
H19 H 1.5098 0.8596 1.0225 0.0310 Uiso
C36 C 1.5937(4) 1.0057(9) 1.0205(4) 0.0498 Uani
H20 H 1.6051 0.9199 0.9743 0.0590 Uiso
H21 H 1.6177 0.5323 0.8191 0.0580 Uiso
H22 H 1.6553 0.7761 0.8326 0.0880 Uiso
H23 H 1.5211 0.9873 1.0665 0.0330 Uiso
H24 H 1.6152 1.0427 1.0203 0.0600 Uiso
Zn1G Zn 1.58369(4) 1.13167(9) 1.09243(4) 0.0310 Uani
N1G N 1.0691(3) 0.4730(6) 0.5477(3) 0.0276 Uani
Zn2B Zn 1.66882(4) 0.63595(9) 0.76885(4) 0.0268 Uani
N8B N 1.1375(3) 1.1560(6) 0.8183(3) 0.0295 Uani
C37 C 0.0946 0.4046 0.2766 0.1580 Uani
H25 H 0.0762 0.4220 0.2520 0.1900 Uiso
C38 C 0.1205 0.4681 0.2990 0.1090 Uani
C39 C 0.1480 0.4421 0.3357 0.1054 Uani
C40 C 0.1495 0.3525 0.3499 0.1555 Uani
H26 H 0.1679 0.3351 0.3744 0.1870 Uiso
C41 C 0.1236 0.2890 0.3274 0.2125 Uani
C42 C 0.0961 0.3150 0.2908 0.2125 Uani
C43 C 0.0430(15) 0.233(4) 0.2179(14) 0.3130 Uani
H27 H 0.0178 0.2574 0.2195 0.4690 Uiso
H28 H 0.0401 0.1725 0.2066 0.4690 Uiso
H29 H 0.0550 0.2703 0.1989 0.4690 Uiso
C44 C 0.1618(15) 0.151(4) 0.3892(9) 0.2527 Uani
H30 H 0.1641 0.1922 0.4134 0.3800 Uiso
H31 H 0.1863 0.1477 0.3795 0.3800 Uiso
H32 H 0.1550 0.0917 0.3983 0.3800 Uiso
C45 C 0.1758(7) 0.516(2) 0.3601(8) 0.1068 Uani
H33 H 0.1809 0.5678 0.3451 0.1300 Uiso
C46 C 0.1904(8) 0.508(3) 0.3971(8) 0.1710 Uani
H34 H 0.1849 0.4587 0.4138 0.2050 Uiso
C47 C 0.2216(11) 0.589(3) 0.4178(11) 0.1639 Uani
H35 H 0.2427 0.5630 0.4388 0.2460 Uiso
H36 H 0.2083 0.6334 0.4320 0.2460 Uiso
H37 H 0.2319 0.6169 0.3946 0.2460 Uiso
C48 C 0.0831(8) 0.586(3) 0.2502(8) 0.1691 Uani
H38 H 0.0826 0.5497 0.2243 0.2570 Uiso
H39 H 0.0843 0.6487 0.2431 0.2570 Uiso
H40 H 0.0598 0.5742 0.2615 0.2570 Uiso
O1 O 0.0725(10) 0.232(2) 0.2706(11) 0.2134 Uani
O2 O 0.1255(11) 0.189(2) 0.3464(10) 0.2177 Uani
O3 O 0.1173(6) 0.5614(8) 0.2834(6) 0.1494 Uani
loop_
_atom_site_aniso_label
_atom_site_aniso_U_11
_atom_site_aniso_U_22
_atom_site_aniso_U_33
_atom_site_aniso_U_23
_atom_site_aniso_U_13
_atom_site_aniso_U_12
I1 0.0650(6) 0.0308(4) 0.0472(5) -0.0028(3) -0.0030(4) 0.0104(4)
Zn1 0.0419(8) 0.0227(7) 0.0205(7) 0.0037(5) -0.0136(6) -0.0032(6)
I2 0.0507(5) 0.0526(5) 0.0294(4) 0.0077(3) -0.0055(3) -0.0177(4)
N1 0.031 0.027 0.021 -0.01 -0.004 -0.004
N2 0.033 0.02 0.032 0.007 -0.016 -0.001
C1 0.030(5) 0.021(5) 0.020(5) -0.004(4) -0.011(4) -0.002(4)
C2 0.062(8) 0.029(6) 0.046(7) 0.001(5) -0.034(6) -0.013(6)
C3 0.025(5) 0.022(5) 0.021(5) -0.002(4) -0.005(4) -0.004(4)
C4 0.061(8) 0.018(5) 0.044(7) -0.006(5) -0.032(6) -0.003(5)
C5 0.033(5) 0.021(5) 0.022(5) -0.001(4) -0.005(4) 0.000(4)
C6 0.019(4) 0.018(5) 0.021(4) -0.002(4) -0.006(4) 0.003(4)
N3 0.027(4) 0.021(4) 0.029(4) -0.003(3) -0.004(4) 0.003(3)
N4 0.018(4) 0.020(4) 0.023(4) -0.004(3) -0.004(3) 0.002(3)
C7 0.020(5) 0.020(5) 0.022(5) -0.003(4) -0.001(4) -0.002(4)
C8 0.019(4) 0.025(5) 0.019(4) -0.003(4) 0.004(4) 0.003(4)
C9 0.023(5) 0.026(5) 0.023(5) 0.001(4) 0.001(4) -0.002(4)
N5 0.026(4) 0.021(4) 0.022(4) -0.001(3) 0.002(3) 0.003(3)
C10 0.017(4) 0.029(5) 0.015(4) -0.003(4) -0.001(3) 0.002(4)
C11 0.045(7) 0.023(6) 0.047(7) 0.007(5) -0.016(6) -0.004(5)
C12 0.032(6) 0.022(5) 0.036(6) 0.001(4) -0.003(5) -0.004(4)
C13 0.044(6) 0.030(6) 0.017(5) 0.001(4) -0.008(4) 0.001(5)
C14 0.029(5) 0.027(5) 0.025(5) 0.005(4) -0.011(4) 0.000(4)
C15 0.043(7) 0.023(6) 0.049(7) 0.001(5) -0.004(5) -0.004(5)
C16 0.035(6) 0.032(6) 0.023(5) 0.006(4) 0.002(4) 0.000(5)
C17 0.044(6) 0.017(5) 0.019(5) -0.001(4) -0.009(4) 0.000(4)
C18 0.035(6) 0.020(5) 0.029(5) 0.003(4) -0.012(4) 0.000(4)
N6 0.035(5) 0.018(4) 0.025(4) 0.001(3) 0.007(4) -0.002(4)
N7 0.023(4) 0.029(5) 0.021(4) -0.004(3) -0.007(3) 0.001(4)
Zn2 0.0369(8) 0.0218(7) 0.0238(7) 0.0013(5) 0.0111(6) -0.0016(6)
Zn3 0.0251(7) 0.0282(7) 0.0222(6) -0.0070(5) -0.0083(5) 0.0053(5)
N8 0.038 0.029 0.023 0.008 0.01 0.002
I3 0.0660(5) 0.0362(4) 0.0279(4) -0.0075(3) -0.0001(3) -0.0026(4)
I4 0.0444(4) 0.0292(4) 0.0421(4) 0.0056(3) 0.0194(3) 0.0073(3)
I5 0.0594(5) 0.0301(4) 0.0580(5) 0.0079(4) -0.0219(4) -0.0104(4)
I6 0.0416(4) 0.0874(7) 0.0289(4) -0.0207(4) 0.0034(3) 0.0095(4)
N9 0.021(4) 0.027(4) 0.024(4) -0.002(3) -0.003(3) 0.002(3)
C19 0.044(7) 0.052(8) 0.017(5) 0.011(5) 0.001(4) 0.020(6)
C20 0.024(5) 0.035(6) 0.012(4) -0.002(4) 0.000(4) -0.002(4)
C21 0.044(7) 0.061(8) 0.019(5) 0.012(5) 0.012(5) 0.029(6)
C22 0.022(5) 0.023(5) 0.021(5) 0.004(4) -0.003(4) 0.001(4)
C23 0.021(5) 0.029(5) 0.019(5) 0.000(4) -0.003(4) -0.003(4)
C24 0.022(5) 0.020(5) 0.018(4) -0.002(4) 0.002(4) 0.001(4)
N10 0.023(4) 0.030(5) 0.023(4) 0.006(3) 0.000(3) 0.005(4)
N11 0.026(4) 0.027(4) 0.009(3) 0.005(3) -0.003(3) 0.005(3)
C25 0.025(5) 0.027(5) 0.024(5) 0.001(4) 0.000(4) 0.002(4)
C26 0.019(4) 0.027(5) 0.010(4) 0.000(4) -0.005(3) 0.000(4)
C27 0.021(5) 0.032(5) 0.019(4) 0.002(4) -0.001(4) 0.001(4)
N12 0.020(4) 0.028(4) 0.019(4) -0.001(3) -0.005(3) -0.002(3)
C28 0.028(5) 0.024(5) 0.015(4) 0.001(4) -0.002(4) 0.006(4)
C29 0.066(9) 0.043(8) 0.062(9) 0.012(6) 0.038(7) 0.021(7)
C30 0.091(12) 0.043(8) 0.092(12) 0.033(8) 0.074(10) 0.036(8)
C31 0.027(5) 0.027(5) 0.019(5) 0.004(4) -0.007(4) 0.006(4)
C32 0.051(8) 0.055(8) 0.049(7) 0.028(6) 0.031(6) 0.024(7)
C33 0.065(9) 0.045(7) 0.046(7) 0.022(6) 0.040(7) 0.013(6)
C34 0.100(13) 0.043(8) 0.100(13) 0.037(8) 0.077(11) 0.036(8)
C35 0.028(5) 0.033(6) 0.019(5) 0.006(4) -0.002(4) -0.004(4)
C36 0.061(8) 0.043(7) 0.050(7) 0.021(6) 0.022(6) 0.029(6)
Zn1G 0.0419 0.0227 0.0205 -0.0037 -0.0136 0.0032
N1G 0.031 0.027 0.021 0.01 -0.004 0.004
Zn2B 0.0369 0.0218 0.0238 0.0013 0.0111 -0.0016
N8B 0.038 0.029 0.023 0.008 0.01 0.002
C37 0.158 0.162 0.155 -0.001 0.033 -0.001
C38 0.099 0.145 0.087 0.022 0.028 0.028
C39 0.095 0.115 0.107 0.002 0.022 0.003
C40 0.152 0.162 0.156 0.003 0.039 0.004
C41 0.212 0.212 0.212 -0.001 0.038 0.001
C42 0.212 0.212 0.212 -0.001 0.038 0.001
C43 0.31(4) 0.32(4) 0.31(4) 0.001(10) 0.063(12) 0.002(10)
C44 0.29(6) 0.43(8) 0.049(15) -0.04(3) 0.06(2) -0.13(6)
C45 0.106(17) 0.14(2) 0.086(15) 0.009(15) 0.047(13) 0.028(16)
C46 0.090 0.351 0.069 -0.016 0.008 0.073
C47 0.155 0.198 0.125 -0.067 -0.006 0.035
C48 0.15(3) 0.29(5) 0.063(14) 0.02(2) 0.010(16) 0.09(3)
O1 0.208(15) 0.221(15) 0.217(15) -0.006(9) 0.056(10) -0.013(9)
O2 0.29(4) 0.23(3) 0.16(2) -0.04(2) 0.11(3) -0.07(3)
O3 0.144(17) 0.21(2) 0.096(13) 0.019(14) 0.028(12) 0.010(17)
loop_
_geom_bond_atom_site_label_1
_geom_bond_atom_site_label_2
_geom_bond_site_symmetry_1
_geom_bond_site_symmetry_2
I1 Zn1 1_555 1_555
Zn1 I2 1_555 1_555
N1 C35 1_555 1_555
N2 Zn1 1_555 1_555
C1 N2 1_555 1_555
C2 N2 1_555 1_555
C3 C1 1_555 1_555
H1 C1 1_555 1_555
C4 C2 1_555 1_555
H2 C2 1_555 1_555
H3 C3 1_555 1_555
C5 C3 1_555 1_555
H4 C4 1_555 1_555
C6 C5 1_555 1_555
N3 C6 1_555 1_555
N4 C6 1_555 1_555
C7 N3 1_555 1_555
C8 N4 1_555 1_555
C9 C7 1_555 1_555
N5 C7 1_555 1_555
C10 C8 1_555 1_555
C11 C9 1_555 1_555
C12 C9 1_555 1_555
C13 C10 1_555 1_555
C14 C10 1_555 1_555
C15 C11 1_555 1_555
H5 C11 1_555 1_555
C16 C12 1_555 1_555
H6 C12 1_555 1_555
C17 C13 1_555 1_555
H7 C13 1_555 1_555
C18 C14 1_555 1_555
H8 C14 1_555 1_555
N6 C15 1_555 1_555
H9 C15 1_555 1_555
H10 C16 1_555 1_555
N7 C17 1_555 1_555
H11 C17 1_555 1_555
H12 C18 1_555 1_555
Zn2 N6 1_555 1_555
Zn3 N7 1_555 1_555
N8 C33 1_555 1_555
I3 Zn2 1_555 1_555
I4 Zn2 1_555 1_555
I5 Zn3 1_555 1_555
I6 Zn3 1_555 1_555
N9 Zn3 1_555 1_555
C19 N9 1_555 1_555
C20 N9 1_555 1_555
C21 C19 1_555 1_555
H13 C19 1_555 1_555
H14 C20 1_555 1_555
C22 C20 1_555 1_555
C23 C21 1_555 1_555
H15 C21 1_555 1_555
H16 C22 1_555 1_555
C24 C23 1_555 1_555
N10 C24 1_555 1_555
N11 C24 1_555 1_555
C25 N10 1_555 1_555
C26 N11 1_555 1_555
C27 C25 1_555 1_555
N12 C25 1_555 1_555
C28 C26 1_555 1_555
C29 C27 1_555 1_555
C30 C27 1_555 1_555
C31 C28 1_555 1_555
C32 C28 1_555 1_555
C33 C29 1_555 1_555
H17 C29 1_555 1_555
C34 N8 1_555 1_555
H18 C30 1_555 1_555
C35 C31 1_555 1_555
H19 C31 1_555 1_555
C36 N1 1_555 1_555
H20 C32 1_555 1_555
H21 C33 1_555 1_555
H22 C34 1_555 1_555
H23 C35 1_555 1_555
H24 C36 1_555 1_555
C37 H25 1_555 1_555
C38 C37 1_555 1_555
C39 C38 1_555 1_555
C40 C39 1_555 1_555
H26 C40 1_555 1_555
C41 C40 1_555 1_555
C42 C37 1_555 1_555
C43 H27 1_555 1_555
H28 C43 1_555 1_555
H29 C43 1_555 1_555
C44 H30 1_555 1_555
H31 C44 1_555 1_555
H32 C44 1_555 1_555
C45 C39 1_555 1_555
H33 C45 1_555 1_555
C46 C45 1_555 1_555
H34 C46 1_555 1_555
C47 C46 1_555 1_555
H35 C47 1_555 1_555
H36 C47 1_555 1_555
H37 C47 1_555 1_555
C48 H38 1_555 1_555
H39 C48 1_555 1_555
H40 C48 1_555 1_555
O1 C42 1_555 1_555
O2 C41 1_555 1_555
O3 C38 1_555 1_555
Zn1G N1 1_555 1_555
N1G Zn1 1_555 1_555
Zn2B N8 1_555 1_555
N8B Zn2 1_555 1_555
C4 C5 1_555 1_555
C8 N5 1_555 1_555
C16 N6 1_555 1_555
C18 N7 1_555 1_555
C22 C23 1_555 1_555
C26 N12 1_555 1_555
C30 C34 1_555 1_555
C32 C36 1_555 1_555
C41 C42 1_555 1_555
C43 O1 1_555 1_555
C44 O2 1_555 1_555
C48 O3 1_555 1_555

#END
