
#######################################################################
#
#                 Cambridge Crystallographic Data Centre
#                                CCDC 
#
#######################################################################
#
# If this CIF has been generated from an entry in the Cambridge 
# Structural Database, then it will include bibliographic, chemical, 
# crystal, experimental, refinement or atomic coordinate data resulting 
# from the CCDC's data processing and validation procedures.
#
#######################################################################

data_IYOCIK
_chemical_formula_moiety         '(C48 H40 I6 N12 O3 Zn3)n'
_symmetry_cell_setting           monoclinic
_symmetry_space_group_name_H-M   'C 2/c'
_symmetry_Int_Tables_number      15
_space_group_name_Hall           '-C 2yc'
loop_
_symmetry_equiv_pos_site_id
_symmetry_equiv_pos_as_xyz
1 x,y,z
2 -x,y,1/2-z
3 1/2+x,1/2+y,z
4 1/2-x,1/2+y,1/2-z
5 -x,-y,-z
6 x,-y,1/2+z
7 1/2-x,1/2-y,-z
8 1/2+x,1/2-y,1/2+z
_cell_length_a                   34.895(2)
_cell_length_b                   14.6553(9)
_cell_length_c                   31.3930(18)
_cell_angle_alpha                90
_cell_angle_beta                 101.491(3)
_cell_angle_gamma                90
_cell_volume                     15732.5
loop_
_atom_site_label
_atom_site_type_symbol
_atom_site_fract_x
_atom_site_fract_y
_atom_site_fract_z
_atom_site_U_iso_or_equiv
_atom_site_thermal_displace_type
C1 C 0.2418(3) 0.5900(7) 0.3026(3) 0.0191 Uani
C2 C 0.1941(3) 0.5799(7) 0.2437(3) 0.0187 Uani
C3 C 0.2053(3) 0.7133(7) 0.2791(3) 0.0199 Uani
C4 C 0.1968(3) 0.8123(7) 0.2800(3) 0.0200 Uani
C5 C 0.1623(3) 0.8463(7) 0.2546(4) 0.0289 Uani
H1 H 0.1439 0.8068 0.2389 0.0350 Uiso
C6 C 0.1559(3) 0.9384(7) 0.2530(4) 0.0294 Uani
H2 H 0.1330 0.9602 0.2356 0.0350 Uiso
C7 C 0.2141(3) 0.9666(7) 0.3002(3) 0.0221 Uani
H3 H 0.2320 1.0079 0.3154 0.0260 Uiso
C8 C 0.2222(3) 0.8744(7) 0.3036(3) 0.0233 Uani
H4 H 0.2449 0.8541 0.3219 0.0280 Uiso
C9 C 0.2735(3) 0.5461(7) 0.3345(3) 0.0180 Uani
C10 C 0.2845(3) 0.4565(7) 0.3276(4) 0.0277 Uani
H5 H 0.2725 0.4246 0.3030 0.0330 Uiso
C11 C 0.3133(3) 0.4167(7) 0.3578(4) 0.0268 Uani
H6 H 0.3205 0.3569 0.3532 0.0320 Uiso
C12 C 0.3211(3) 0.5456(7) 0.4002(4) 0.0302 Uani
H7 H 0.3337 0.5757 0.4251 0.0360 Uiso
C13 C 0.2924(3) 0.5911(7) 0.3713(3) 0.0259 Uani
H8 H 0.2860 0.6511 0.3766 0.0310 Uiso
C14 C 0.1711(3) 0.5286(7) 0.2068(4) 0.0249 Uani
C15 C 0.1426(4) 0.5736(8) 0.1761(4) 0.0410 Uani
H9 H 0.1385 0.6360 0.1782 0.0490 Uiso
C16 C 0.1212(4) 0.5241(8) 0.1434(4) 0.0407 Uani
H10 H 0.1023 0.5546 0.1234 0.0490 Uiso
C17 C 0.1526(3) 0.3919(7) 0.1660(3) 0.0231 Uani
H11 H 0.1565 0.3299 0.1621 0.0280 Uiso
C18 C 0.1755(3) 0.4359(7) 0.2011(3) 0.0236 Uani
H12 H 0.1938 0.4031 0.2208 0.0280 Uiso
C19 C 0.5179(3) 0.6634(6) 0.4443(3) 0.0165 Uani
C20 C 0.5521(3) 0.7911(7) 0.4665(3) 0.0189 Uani
C21 C 0.5679(3) 0.7057(7) 0.4129(3) 0.0205 Uani
C22 C 0.4842(3) 0.6027(6) 0.4449(3) 0.0192 Uani
C23 C 0.4694(3) 0.5911(7) 0.4820(3) 0.0236 Uani
H13 H 0.4807 0.6200 0.5079 0.0280 Uiso
C24 C 0.4367(3) 0.5338(7) 0.4793(3) 0.0217 Uani
H14 H 0.4263 0.5258 0.5041 0.0260 Uiso
C25 C 0.4340(3) 0.5056(8) 0.4075(4) 0.0302 Uani
H15 H 0.4217 0.4779 0.3817 0.0360 Uiso
C26 C 0.4658(3) 0.5596(8) 0.4070(4) 0.0304 Uani
H16 H 0.4751 0.5675 0.3815 0.0360 Uiso
C27 C 0.5923(3) 0.6876(7) 0.3804(3) 0.0205 Uani
C28 C 0.6123(3) 0.7578(8) 0.3643(4) 0.0345 Uani
H17 H 0.6112 0.8171 0.3745 0.0410 Uiso
C29 C 0.6332(4) 0.7388(8) 0.3340(4) 0.0338 Uani
H18 H 0.6463 0.7864 0.3235 0.0410 Uiso
C30 C 0.6179(3) 0.5875(8) 0.3338(4) 0.0305 Uani
H19 H 0.6203 0.5286 0.3237 0.0360 Uiso
C31 C 0.5957(3) 0.6011(8) 0.3644(4) 0.0304 Uani
H20 H 0.5830 0.5522 0.3744 0.0370 Uiso
C32 C 0.5577(3) 0.8744(7) 0.4933(3) 0.0190 Uani
C33 C 0.5319(3) 0.8960(7) 0.5204(3) 0.0211 Uani
H21 H 0.5101 0.8596 0.5208 0.0260 Uiso
C34 C 0.5391(3) 0.9725(7) 0.5469(3) 0.0248 Uani
H22 H 0.5219 0.9864 0.5651 0.0300 Uiso
C35 C 0.5936(4) 1.0072(9) 0.5199(4) 0.0380 Uani
H23 H 0.6144 1.0464 0.5190 0.0460 Uiso
C36 C 0.5888(3) 0.9320(8) 0.4931(4) 0.0348 Uani
H24 H 0.6064 0.9204 0.4750 0.0420 Uiso
I1 I 0.12022(2) 1.15173(5) 0.19573(2) 0.0371 Uani
I2 I 0.22737(2) 1.23555(5) 0.29022(2) 0.0299 Uani
I3 I 0.02628(3) 0.34748(6) 0.12988(3) 0.0418 Uani
I4 I 0.11951(3) 0.25063(5) 0.05567(3) 0.0460 Uani
I5 I 0.35190(2) 0.40435(7) 0.51126(3) 0.0481 Uani
I6 I 0.39850(3) 0.26130(5) 0.40293(3) 0.0451 Uani
N1 N 0.2231(2) 0.5395(6) 0.2698(3) 0.0200 Uani
N2 N 0.1834(2) 0.6673(6) 0.2469(3) 0.0208 Uani
N3 N 0.2339(2) 0.6789(5) 0.3087(3) 0.0183 Uani
N4 N 0.3315(2) 0.4593(6) 0.3935(3) 0.0201 Uani
N5 N 0.1253(3) 0.4349(6) 0.1379(3) 0.0278 Uani
N6 N 0.1807(2) 0.9982(6) 0.2751(3) 0.0216 Uani
N7 N 0.5397(2) 0.6445(6) 0.4149(3) 0.0216 Uani
N8 N 0.5742(2) 0.7818(6) 0.4368(3) 0.0191 Uani
N9 N 0.5239(2) 0.7332(6) 0.4722(3) 0.0196 Uani
N10 N 0.4197(2) 0.4907(6) 0.4434(3) 0.0204 Uani
N11 N 0.6363(3) 0.6546(6) 0.3179(3) 0.0245 Uani
N12 N 0.5699(3) 1.0267(6) 0.5473(3) 0.0260 Uani
Zn1 Zn 0.16684(4) 1.13635(9) 0.26845(4) 0.0228 Uani
Zn2 Zn 0.08379(5) 0.36752(9) 0.09200(5) 0.0298 Uani
Zn3 Zn 0.37456(4) 0.39960(9) 0.43974(5) 0.0238 Uani
N11B N 0.1363(3) 1.1546(6) 0.3179(3) 0.0245 Uani
N12G N 0.0699(3) 0.4733(6) 0.0473(3) 0.0260 Uani
Zn1B Zn 0.66684(4) 0.63635(9) 0.26845(4) 0.0228 Uani
Zn2G Zn 0.58379(5) 1.13248(9) 0.59200(5) 0.0298 Uani
C37 C 0.6314(5) 0.2081(13) 0.3330(6) 0.0664 Uani
C38 C 0.6539(5) 0.1357(12) 0.3501(5) 0.0620 Uani
H25 H 0.6730 0.1464 0.3748 0.0740 Uiso
C39 C 0.6507(5) 0.0453(13) 0.3334(6) 0.0646 Uani
C40 C 0.6202(6) 0.0310(14) 0.2954(6) 0.0728 Uani
C41 C 0.5976(5) 0.0999(13) 0.2761(6) 0.0695 Uani
H26 H 0.5793 0.0894 0.2507 0.0840 Uiso
C42 C 0.6016(5) 0.1865(14) 0.2942(6) 0.0670 Uani
C43 C 0.5534(9) 0.260(2) 0.2361(10) 0.1490 Uani
H27 H 0.5674 0.2421 0.2140 0.2230 Uiso
H28 H 0.5407 0.3175 0.2284 0.2230 Uiso
H29 H 0.5342 0.2145 0.2386 0.2230 Uiso
C44 C 0.6624(7) 0.3157(17) 0.3866(7) 0.0989 Uani
H30 H 0.6593 0.2714 0.4082 0.1480 Uiso
H31 H 0.6577 0.3756 0.3968 0.1480 Uiso
H32 H 0.6884 0.3124 0.3812 0.1480 Uiso
C45 C 0.5858(7) -0.0793(16) 0.2476(8) 0.1023 Uani
H33 H 0.5623 -0.0736 0.2589 0.1530 Uiso
H34 H 0.5882 -0.1407 0.2378 0.1530 Uiso
H35 H 0.5848 -0.0380 0.2236 0.1530 Uiso
C46 C 0.6771(5) -0.0276(13) 0.3516(6) 0.0689 Uani
H36 H 0.6860 -0.0627 0.3310 0.0830 Uiso
C47 C 0.6902(7) -0.0523(16) 0.3905(7) 0.0920 Uani
H37 H 0.7098 -0.0963 0.3962 0.1110 Uiso
C48 C 0.6729(10) -0.007(3) 0.4314(11) 0.1687 Uani
H38 H 0.6584 0.0473 0.4217 0.2530 Uiso
H39 H 0.6942 0.0079 0.4547 0.2530 Uiso
H40 H 0.6560 -0.0502 0.4415 0.2530 Uiso
O1 O 0.6179(4) -0.0585(10) 0.2800(4) 0.0869 Uani
O2 O 0.5812(4) 0.2690(11) 0.2783(5) 0.0981 Uani
O3 O 0.6342(4) 0.2966(10) 0.3462(4) 0.0794 Uani
loop_
_atom_site_aniso_label
_atom_site_aniso_U_11
_atom_site_aniso_U_22
_atom_site_aniso_U_33
_atom_site_aniso_U_23
_atom_site_aniso_U_13
_atom_site_aniso_U_12
C1 0.022(5) 0.020(5) 0.019(4) 0.004(4) 0.013(4) 0.000(4)
C2 0.017(4) 0.016(4) 0.026(5) 0.003(4) 0.011(4) -0.003(4)
C3 0.019(4) 0.019(5) 0.025(5) 0.001(4) 0.012(4) 0.000(4)
C4 0.025(5) 0.018(5) 0.020(4) 0.002(4) 0.012(4) -0.002(4)
C5 0.029(5) 0.021(5) 0.035(5) 0.001(4) 0.002(4) -0.006(4)
C6 0.027(5) 0.022(5) 0.039(5) 0.001(4) 0.006(4) 0.002(4)
C7 0.027(5) 0.015(4) 0.027(5) -0.002(4) 0.012(4) -0.001(4)
C8 0.025(5) 0.019(5) 0.026(5) 0.000(4) 0.005(4) 0.006(4)
C9 0.019(4) 0.015(4) 0.022(4) 0.003(4) 0.009(4) 0.000(4)
C10 0.026(5) 0.023(5) 0.034(5) -0.006(4) 0.006(4) -0.003(4)
C11 0.031(5) 0.018(5) 0.031(5) -0.001(4) 0.005(4) 0.002(4)
C12 0.038(5) 0.020(5) 0.031(5) -0.001(4) 0.003(4) 0.002(4)
C13 0.035(5) 0.013(4) 0.029(5) -0.001(4) 0.005(4) 0.002(4)
C14 0.025(5) 0.020(5) 0.031(5) 0.003(4) 0.009(4) -0.008(4)
C15 0.052(6) 0.022(5) 0.043(6) 0.001(5) -0.005(5) 0.004(5)
C16 0.048(6) 0.024(5) 0.041(6) 0.001(5) -0.013(5) 0.003(5)
C17 0.026(5) 0.016(4) 0.028(5) 0.003(4) 0.007(4) -0.001(4)
C18 0.024(5) 0.018(5) 0.030(5) 0.001(4) 0.008(4) 0.003(4)
C19 0.018(4) 0.015(4) 0.017(4) 0.002(4) 0.005(3) 0.001(4)
C20 0.019(4) 0.022(5) 0.017(4) 0.003(4) 0.007(4) 0.003(4)
C21 0.019(4) 0.021(5) 0.023(5) 0.004(4) 0.008(4) 0.004(4)
C22 0.021(4) 0.014(4) 0.024(5) -0.002(4) 0.008(4) 0.002(4)
C23 0.025(5) 0.023(5) 0.025(5) -0.004(4) 0.010(4) 0.004(4)
C24 0.022(5) 0.020(5) 0.027(5) -0.003(4) 0.014(4) -0.004(4)
C25 0.034(5) 0.034(5) 0.026(5) -0.003(4) 0.014(4) -0.012(4)
C26 0.033(5) 0.035(5) 0.028(5) -0.004(4) 0.018(4) -0.010(4)
C27 0.018(4) 0.022(5) 0.022(4) 0.000(4) 0.005(4) 0.000(4)
C28 0.036(6) 0.030(5) 0.045(6) -0.006(5) 0.026(5) -0.001(5)
C29 0.041(6) 0.026(5) 0.041(6) -0.008(5) 0.024(5) -0.012(5)
C30 0.034(5) 0.028(5) 0.033(5) -0.003(4) 0.015(4) -0.001(4)
C31 0.036(5) 0.024(5) 0.036(5) 0.002(4) 0.019(5) -0.008(4)
C32 0.021(4) 0.018(4) 0.018(4) 0.003(4) 0.004(4) 0.002(4)
C33 0.024(5) 0.018(5) 0.024(5) -0.002(4) 0.011(4) 0.000(4)
C34 0.030(5) 0.022(5) 0.025(5) -0.001(4) 0.012(4) 0.002(4)
C35 0.035(6) 0.039(6) 0.043(6) -0.006(5) 0.015(5) -0.017(5)
C36 0.034(5) 0.037(6) 0.040(6) -0.012(5) 0.023(5) -0.008(5)
I1 0.0514(5) 0.0272(4) 0.0330(4) 0.0067(3) 0.0090(3) 0.0000(3)
I2 0.0347(4) 0.0217(3) 0.0401(4) -0.0031(3) 0.0241(3) -0.0043(3)
I3 0.0493(5) 0.0393(4) 0.0360(4) 0.0066(3) 0.0063(3) -0.0144(4)
I4 0.0580(5) 0.0217(4) 0.0565(5) -0.0041(4) 0.0072(4) 0.0078(4)
I5 0.0386(4) 0.0751(6) 0.0340(4) 0.0186(4) 0.0157(3) -0.0082(4)
I6 0.0481(5) 0.0209(4) 0.0606(5) -0.0067(4) -0.0029(4) 0.0075(3)
N1 0.022(4) 0.017(4) 0.023(4) 0.000(3) 0.009(3) -0.003(3)
N2 0.024(4) 0.016(4) 0.023(4) 0.005(3) 0.006(3) -0.002(3)
N3 0.019(4) 0.014(4) 0.025(4) 0.000(3) 0.012(3) -0.003(3)
N4 0.020(4) 0.016(4) 0.024(4) 0.004(3) 0.004(3) -0.007(3)
N5 0.031(4) 0.020(4) 0.029(4) 0.000(4) -0.002(4) -0.006(4)
N6 0.027(4) 0.015(4) 0.024(4) 0.001(3) 0.008(3) 0.002(3)
N7 0.019(4) 0.023(4) 0.026(4) -0.001(3) 0.012(3) -0.004(3)
N8 0.013(4) 0.023(4) 0.024(4) 0.001(3) 0.010(3) 0.001(3)
N9 0.020(4) 0.017(4) 0.025(4) 0.002(3) 0.012(3) -0.002(3)
N10 0.021(4) 0.017(4) 0.025(4) 0.002(3) 0.009(3) -0.004(3)
N11 0.027(4) 0.024(4) 0.026(4) -0.005(3) 0.014(4) -0.003(4)
N12 0.032(4) 0.020(4) 0.024(4) -0.003(3) 0.001(4) -0.002(4)
Zn1 0.0328(8) 0.0149(7) 0.0263(7) -0.0003(5) 0.0191(6) 0.0018(6)
Zn2 0.0397(9) 0.0153(7) 0.0311(8) 0.0022(6) -0.0007(6) -0.0027(6)
Zn3 0.0235(7) 0.0186(7) 0.0297(7) 0.0069(6) 0.0064(6) -0.0030(5)
N11B 0.027 0.024 0.026 -0.005 0.014 -0.003
N12G 0.032 0.02 0.024 0.003 0.001 0.002
Zn1B 0.0328 0.0149 0.0263 -0.0003 0.0191 0.0018
Zn2G 0.0397 0.0153 0.0311 -0.0022 -0.0007 0.0027
C37 0.070(8) 0.074(8) 0.063(8) 0.001(7) 0.032(7) 0.000(7)
C38 0.061(7) 0.073(8) 0.057(7) 0.011(6) 0.024(6) -0.005(6)
C39 0.062(7) 0.072(8) 0.065(8) 0.005(7) 0.025(6) -0.015(7)
C40 0.075(8) 0.078(9) 0.071(8) 0.008(7) 0.028(7) -0.008(7)
C41 0.065(8) 0.082(9) 0.064(8) 0.002(7) 0.019(7) 0.006(7)
C42 0.052(7) 0.084(9) 0.072(8) 0.011(7) 0.029(6) 0.011(7)
C43 0.142(14) 0.158(14) 0.146(14) -0.001(9) 0.026(9) 0.004(9)
C44 0.099(10) 0.105(10) 0.093(10) 0.005(8) 0.020(8) -0.005(8)
C45 0.099(10) 0.099(10) 0.101(10) -0.008(8) 0.001(8) -0.011(8)
C46 0.074(8) 0.067(8) 0.068(8) 0.012(7) 0.020(7) -0.013(7)
C47 0.089 0.099 0.093 0.007 0.030 -0.012
C48 0.170 0.175 0.163 0.003 0.038 -0.008
O1 0.094(7) 0.090(7) 0.079(7) -0.004(6) 0.023(6) -0.014(6)
O2 0.092(7) 0.120(8) 0.090(7) 0.008(7) 0.037(6) 0.018(7)
O3 0.081(7) 0.094(7) 0.071(6) 0.012(6) 0.034(6) 0.008(6)
loop_
_geom_bond_atom_site_label_1
_geom_bond_atom_site_label_2
_geom_bond_site_symmetry_1
_geom_bond_site_symmetry_2
C1 C9 1_555 1_555
C2 C14 1_555 1_555
C3 C4 1_555 1_555
C4 C5 1_555 1_555
C5 H1 1_555 1_555
C6 C5 1_555 1_555
H2 C6 1_555 1_555
C7 H3 1_555 1_555
C8 C4 1_555 1_555
H4 C8 1_555 1_555
C9 C10 1_555 1_555
C10 H5 1_555 1_555
C11 C10 1_555 1_555
H6 C11 1_555 1_555
C12 H7 1_555 1_555
C13 C9 1_555 1_555
H8 C13 1_555 1_555
C14 C15 1_555 1_555
C15 H9 1_555 1_555
C16 C15 1_555 1_555
H10 C16 1_555 1_555
C17 H11 1_555 1_555
C18 C14 1_555 1_555
H12 C18 1_555 1_555
C19 C22 1_555 1_555
C20 C32 1_555 1_555
C21 C27 1_555 1_555
C22 C23 1_555 1_555
C23 H13 1_555 1_555
C24 C23 1_555 1_555
H14 C24 1_555 1_555
C25 H15 1_555 1_555
C26 C22 1_555 1_555
H16 C26 1_555 1_555
C27 C28 1_555 1_555
C28 H17 1_555 1_555
C29 C28 1_555 1_555
H18 C29 1_555 1_555
C30 H19 1_555 1_555
C31 C27 1_555 1_555
H20 C31 1_555 1_555
C32 C33 1_555 1_555
C33 H21 1_555 1_555
C34 C33 1_555 1_555
H22 C34 1_555 1_555
C35 H23 1_555 1_555
C36 C32 1_555 1_555
H24 C36 1_555 1_555
I1 Zn1 1_555 1_555
I2 Zn1 1_555 1_555
I3 Zn2 1_555 1_555
I4 Zn2 1_555 1_555
I5 Zn3 1_555 1_555
I6 Zn3 1_555 1_555
N1 C1 1_555 1_555
N2 C2 1_555 1_555
N3 C1 1_555 1_555
N4 C11 1_555 1_555
N5 C16 1_555 1_555
N6 C6 1_555 1_555
N7 C19 1_555 1_555
N8 C20 1_555 1_555
N9 C19 1_555 1_555
N10 C24 1_555 1_555
N11 C29 1_555 1_555
N12 C34 1_555 1_555
Zn1 N6 1_555 1_555
Zn2 N5 1_555 1_555
Zn3 N4 1_555 1_555
C37 C38 1_555 1_555
C38 H25 1_555 1_555
C39 C38 1_555 1_555
C40 C39 1_555 1_555
C41 C40 1_555 1_555
H26 C41 1_555 1_555
C42 C37 1_555 1_555
C43 H27 1_555 1_555
H28 C43 1_555 1_555
H29 C43 1_555 1_555
C44 H30 1_555 1_555
H31 C44 1_555 1_555
H32 C44 1_555 1_555
C45 H33 1_555 1_555
H34 C45 1_555 1_555
H35 C45 1_555 1_555
C46 C39 1_555 1_555
H36 C46 1_555 1_555
C47 C46 1_555 1_555
H37 C47 1_555 1_555
C48 C47 1_555 1_555
H38 C48 1_555 1_555
H39 C48 1_555 1_555
H40 C48 1_555 1_555
O1 C40 1_555 1_555
O2 C42 1_555 1_555
O3 C37 1_555 1_555
N11B Zn1 1_555 1_555
N12G Zn2 1_555 1_555
Zn1B N11 1_555 1_555
Zn2G N12 1_555 1_555
C2 N1 1_555 1_555
C3 N2 1_555 1_555
C3 N3 1_555 1_555
C7 C8 1_555 1_555
C7 N6 1_555 1_555
C12 C13 1_555 1_555
C12 N4 1_555 1_555
C17 C18 1_555 1_555
C17 N5 1_555 1_555
C20 N9 1_555 1_555
C21 N7 1_555 1_555
C21 N8 1_555 1_555
C25 C26 1_555 1_555
C25 N10 1_555 1_555
C30 C31 1_555 1_555
C30 N11 1_555 1_555
C35 C36 1_555 1_555
C35 N12 1_555 1_555
N10 Zn3 1_555 1_555
C41 C42 1_555 1_555
C43 O2 1_555 1_555
C44 O3 1_555 1_555
C45 O1 1_555 1_555

#END
