
#######################################################################
#
#                 Cambridge Crystallographic Data Centre
#                                CCDC 
#
#######################################################################
#
# If this CIF has been generated from an entry in the Cambridge 
# Structural Database, then it will include bibliographic, chemical, 
# crystal, experimental, refinement or atomic coordinate data resulting 
# from the CCDC's data processing and validation procedures.
#
#######################################################################

data_IYOCUW
_chemical_formula_moiety         '(C122 H118 Br12 N24 O5 Zn6)n'
_symmetry_cell_setting           monoclinic
_symmetry_space_group_name_H-M   'P 21/c'
_symmetry_Int_Tables_number      14
_space_group_name_Hall           '-P 2ybc'
loop_
_symmetry_equiv_pos_site_id
_symmetry_equiv_pos_as_xyz
1 x,y,z
2 -x,1/2+y,1/2-z
3 -x,-y,-z
4 x,1/2-y,1/2+z
_cell_length_a                   34.720(4)
_cell_length_b                   14.7122(19)
_cell_length_c                   31.412(4)
_cell_angle_alpha                90
_cell_angle_beta                 103.293(4)
_cell_angle_gamma                90
_cell_volume                     15615.6
loop_
_atom_site_label
_atom_site_type_symbol
_atom_site_fract_x
_atom_site_fract_y
_atom_site_fract_z
Br1 Br -0.14146(8) -0.46824(14) 0.07102(8)
Br2 Br -0.23126(6) -0.36170(15) 0.12363(7)
Br3 Br 0.11920(7) -0.31664(17) 0.50840(7)
Br4 Br 0.28500(6) 0.43590(14) 0.60522(7)
Br5 Br 0.38906(8) 0.49165(15) 0.56969(7)
Br6 Br 0.40757(10) -0.4116(2) 0.71016(10)
Br7 Br 0.61808(6) 0.36005(13) 1.00844(6)
Br8 Br 0.64334(6) 0.51505(12) 0.90694(6)
Br9 Br 0.97952(7) -0.01622(15) 0.79331(9)
Br10 Br 0.14017(7) -0.46374(15) 0.40222(9)
Br11 Br 0.50237(17) -0.4575(5) 0.8110(2)
Br12 Br 0.87828(8) 0.06197(16) 0.70157(8)
C1 C -0.1370(6) -0.1956(13) 0.1517(6)
H1 H -0.1581 -0.1665 0.1331
C2 C -0.1118(6) -0.1424(14) 0.1828(6)
H2 H -0.1149 -0.0798 0.1839
C3 C -0.0818(5) -0.1871(11) 0.2122(5)
C4 C -0.0773(6) -0.2824(14) 0.2080(7)
H3 H -0.0576 -0.3149 0.2269
C5 C -0.1039(6) -0.3239(14) 0.1743(7)
H4 H -0.1007 -0.3860 0.1709
C6 C -0.0566(5) -0.1335(12) 0.2470(6)
C7 C -0.0385(5) 0.0010(11) 0.2784(5)
C8 C -0.0061(6) -0.1255(14) 0.3085(7)
C9 C -0.0431(5) 0.1008(12) 0.2761(6)
C10 C -0.0657(5) 0.1417(13) 0.2402(6)
H5 H -0.0766 0.1064 0.2159
C11 C -0.0728(5) 0.2318(13) 0.2389(6)
H6 H -0.0890 0.2561 0.2136
C12 C -0.0331(6) 0.2506(14) 0.3080(7)
H7 H -0.0217 0.2897 0.3306
C13 C -0.0244(6) 0.1589(15) 0.3125(7)
H8 H -0.0074 0.1356 0.3375
C14 C 0.0255(6) -0.1702(14) 0.3408(6)
C15 C 0.0550(6) -0.1235(14) 0.3676(6)
H9 H 0.0549 -0.0603 0.3675
C16 C 0.0853(7) -0.1708(15) 0.3952(7)
H10 H 0.1059 -0.1384 0.4129
C17 C 0.0561(6) -0.3102(14) 0.3715(7)
H11 H 0.0562 -0.3732 0.3736
C18 C 0.0261(5) -0.2675(13) 0.3422(6)
H12 H 0.0065 -0.3012 0.3237
C19 C 0.1977(7) -0.2489(17) 0.4048(8)
H13 H 0.1896 -0.2925 0.3832
C20 C 0.2273(6) -0.1926(14) 0.4015(7)
H14 H 0.2395 -0.1985 0.3782
C21 C 0.2395(6) -0.1266(14) 0.4324(7)
C22 C 0.2230(6) -0.1240(14) 0.4705(7)
H15 H 0.2326 -0.0846 0.4937
C23 C 0.1921(6) -0.1836(13) 0.4706(6)
H16 H 0.1795 -0.1819 0.4938
C24 C 0.2741(5) -0.0631(12) 0.4333(6)
C25 C 0.3111(5) 0.0591(12) 0.4599(5)
C26 C 0.3250(5) -0.0243(11) 0.4049(5)
C27 C 0.3513(5) -0.0393(12) 0.3743(6)
C28 C 0.3922(5) -0.0322(13) 0.3903(6)
H17 H 0.4027 -0.0134 0.4189
C29 C 0.4171(6) -0.0537(13) 0.3624(6)
H18 H 0.4444 -0.0510 0.3729
C30 C 0.3634(5) -0.0845(13) 0.3048(6)
H19 H 0.3538 -0.1015 0.2758
C31 C 0.3377(7) -0.0657(15) 0.3314(7)
H20 H 0.3106 -0.0710 0.3201
C32 C 0.3176(5) 0.1377(11) 0.4880(5)
C33 C 0.2898(5) 0.1669(12) 0.5097(6)
H21 H 0.2660 0.1357 0.5066
C34 C 0.2974(5) 0.2444(12) 0.5368(6)
H22 H 0.2779 0.2647 0.5504
C35 C 0.3604(5) 0.2599(12) 0.5244(6)
H23 H 0.3847 0.2896 0.5305
C36 C 0.3540(5) 0.1828(13) 0.4948(6)
H24 H 0.3735 0.1640 0.4807
C37 C 0.3701(6) 0.2281(14) 0.6479(7)
H25 H 0.3500 0.1987 0.6279
C38 C 0.3924(6) 0.1778(14) 0.6823(6)
H26 H 0.3883 0.1156 0.6842
C39 C 0.4213(5) 0.2219(12) 0.7141(6)
C40 C 0.4273(5) 0.3144(12) 0.7084(6)
H27 H 0.4465 0.3461 0.7285
C41 C 0.4047(5) 0.3578(12) 0.6729(6)
H28 H 0.4092 0.4195 0.6697
C42 C 0.4454(5) 0.1731(12) 0.7503(6)
C43 C 0.4613(5) 0.0408(11) 0.7872(5)
C44 C 0.4981(5) 0.1674(12) 0.8093(6)
C45 C 0.4556(5) -0.0568(11) 0.7911(5)
C46 C 0.4231(5) -0.0977(12) 0.7641(6)
H29 H 0.4041 -0.0624 0.7456
C47 C 0.4190(6) -0.1924(14) 0.7646(6)
H30 H 0.3961 -0.2185 0.7479
C48 C 0.4784(5) -0.2059(13) 0.8149(6)
H31 H 0.4974 -0.2427 0.8324
C49 C 0.4833(6) -0.1142(13) 0.8169(6)
H32 H 0.5055 -0.0896 0.8358
C50 C 0.5379(5) 0.3052(12) 0.8297(6)
H33 H 0.5239 0.3350 0.8048
C51 C 0.5288(5) 0.2151(12) 0.8392(6)
C52 C 0.5508(6) 0.1754(14) 0.8769(7)
H34 H 0.5458 0.1155 0.8833
C53 C 0.5800(6) 0.2230(13) 0.9050(6)
H35 H 0.5930 0.1954 0.9310
C54 C 0.5685(5) 0.3472(12) 0.8590(5)
H36 H 0.5748 0.4067 0.8533
C55 C 0.6880(6) 0.2248(14) 0.9697(7)
H37 H 0.6696 0.2133 0.9864
C56 C 0.7194(5) 0.1635(12) 0.9726(6)
H38 H 0.7235 0.1154 0.9923
C57 C 0.7446(4) 0.1796(10) 0.9434(5)
C58 C 0.7415(6) 0.2558(13) 0.9189(6)
H39 H 0.7597 0.2676 0.9021
C59 C 0.7096(5) 0.3191(13) 0.9189(6)
H40 H 0.7069 0.3718 0.9021
C60 C 0.7768(5) 0.1116(12) 0.9441(6)
C61 C 0.8091(5) -0.0146(12) 0.9697(6)
C62 C 0.8239(5) 0.0552(12) 0.9126(5)
C63 C 0.8132(5) -0.0977(12) 0.9973(5)
C64 C 0.7870(5) -0.1103(11) 1.0280(5)
H41 H 0.7695 -0.0654 1.0324
C65 C 0.7900(6) -0.1885(14) 1.0484(7)
H42 H 0.7698 -0.2025 1.0622
C66 C 0.8443(6) -0.2351(15) 1.0264(7)
H43 H 0.8648 -0.2766 1.0280
C67 C 0.8415(7) -0.1626(17) 0.9989(8)
H44 H 0.8592 -0.1573 0.9809
C68 C 0.8474(6) 0.0640(15) 0.8792(7)
C69 C 0.8855(6) 0.0301(14) 0.8871(7)
H45 H 0.8971 0.0050 0.9142
C70 C 0.9060(7) 0.0337(16) 0.8549(7)
H46 H 0.9309 0.0069 0.8604
C71 C 0.8562(6) 0.1119(15) 0.8072(7)
H47 H 0.8467 0.1419 0.7808
C72 C 0.8335(7) 0.1049(16) 0.8391(7)
H48 H 0.8081 0.1290 0.8327
N1 N -0.1334(5) -0.2852(11) 0.1464(5)
N2 N -0.0582(5) 0.2866(11) 0.2712(5)
N3 N 0.0858(5) -0.2612(11) 0.3973(5)
N4 N -0.0270(5) -0.1778(11) 0.2749(5)
N5 N -0.0618(4) -0.0433(9) 0.2474(5)
N6 N -0.0092(5) -0.0359(12) 0.3100(6)
N7 N 0.1795(4) -0.2452(10) 0.4372(5)
N8 N 0.4023(5) -0.0776(11) 0.3217(5)
N9 N 0.3310(4) 0.2889(10) 0.5434(5)
N10 N 0.2941(5) -0.0793(12) 0.4020(5)
N11 N 0.2816(4) 0.0018(9) 0.4630(4)
N12 N 0.3350(4) 0.0451(10) 0.4312(5)
N13 N 0.3760(4) 0.3173(9) 0.6419(5)
N14 N 0.4461(5) -0.2460(11) 0.7878(5)
N15 N 0.5903(4) 0.3051(10) 0.8968(5)
N16 N 0.4752(4) 0.2158(10) 0.7756(4)
N17 N 0.4346(4) 0.0856(10) 0.7548(5)
N18 N 0.4909(4) 0.0788(10) 0.8147(5)
N19 N 0.6832(4) 0.2989(10) 0.9444(5)
N20 N 0.8176(5) -0.2480(11) 1.0517(5)
N21 N 0.8930(5) 0.0724(12) 0.8170(6)
N22 N 0.7960(4) 0.1210(10) 0.9106(5)
N23 N 0.7839(4) 0.0487(11) 0.9738(5)
N24 N 0.8311(4) -0.0117(10) 0.9382(5)
Zn1 Zn -0.17281(7) -0.34821(14) 0.09841(7)
Zn2 Zn 0.13169(6) -0.32805(14) 0.43818(7)
Zn3 Zn 0.34471(6) 0.38874(13) 0.58919(6)
Zn4 Zn 0.44027(7) -0.38616(14) 0.78234(8)
Zn5 Zn 0.63368(6) 0.37606(13) 0.93989(6)
Zn6 Zn 0.92442(7) 0.07718(14) 0.76881(8)
N2C N 0.9418(5) 0.2134(11) 0.7712(5)
N8C N 0.4023(5) -0.4224(11) 0.8217(5)
N20_2 N -0.1824(5) -0.2480(11) 0.0517(5)
Zn1_2 Zn 0.82719(7) -0.34821(14) 1.09841(7)
Zn4C Zn 0.44027(7) -0.11384(14) 0.28234(8)
Zn6C Zn -0.07558(7) 0.42282(14) 0.26881(8)
C73 C 0.4639(7) 0.0108(17) 0.5686(8)
H49 H 0.4573 0.0085 0.5966
H50 H 0.4849 -0.0314 0.5681
H51 H 0.4411 -0.0051 0.5462
C74 C 0.4781(7) 0.1126(18) 0.5599(8)
C75 C 0.5092(7) 0.1246(17) 0.5380(8)
H52 H 0.5225 0.0752 0.5297
C76 C 0.5186(6) 0.2096(15) 0.5299(7)
H53 H 0.5388 0.2170 0.5152
C77 C 0.5018(6) 0.2857(14) 0.5408(7)
C78 C 0.4707(6) 0.2719(15) 0.5632(7)
H54 H 0.4583 0.3215 0.5726
C79 C 0.4592(6) 0.1847(14) 0.5710(7)
C80 C 0.5092(8) 0.3837(18) 0.5308(9)
H55 H 0.4845 0.4068 0.5123
C81 C 0.5406(10) 0.384(2) 0.5021(11)
H56 H 0.5660 0.3674 0.5198
H57 H 0.5422 0.4440 0.4904
H58 H 0.5329 0.3416 0.4786
C82 C 0.5194(9) 0.445(2) 0.5702(10)
H59 H 0.4972 0.4491 0.5836
H60 H 0.5257 0.5047 0.5613
H61 H 0.5418 0.4209 0.5909
O1 O 0.4305(7) 0.1772(18) 0.5949(9)
H62 H 0.4313 0.1262 0.6057
C83 C 0.7826(10) 0.591(2) 0.7057(12)
H63 H 0.7589 0.5927 0.6828
H64 H 0.8010 0.6353 0.6998
H65 H 0.7762 0.6049 0.7331
C84 C 0.7740(14) 0.435(3) 0.6766(15)
H66 H 0.7571 0.4029 0.6918
H67 H 0.7902 0.3920 0.6655
H68 H 0.7581 0.4684 0.6527
C85 C 0.8004(8) 0.4999(18) 0.7078(9)
H69 H 0.8247 0.5063 0.6974
C86 C 0.8122(7) 0.4563(16) 0.7531(8)
C87 C 0.7839(7) 0.4393(16) 0.7776(7)
H70 H 0.7575 0.4536 0.7657
C88 C 0.7942(6) 0.4026(13) 0.8182(6)
C89 C 0.8339(9) 0.378(2) 0.8391(10)
C90 C 0.8618(8) 0.3955(18) 0.8131(8)
H71 H 0.8885 0.3833 0.8245
C91 C 0.8492(8) 0.431(2) 0.7699(9)
H72 H 0.8677 0.4377 0.7529
C92 C 0.8439(9) 0.333(2) 0.8813(9)
H73 H 0.8305 0.3621 0.9011
H74 H 0.8719 0.3356 0.8929
H75 H 0.8357 0.2703 0.8777
O2 O 0.7656(6) 0.3828(12) 0.8419(6)
H76 H 0.7568 0.4303 0.8495
C93 C 0.5801(8) 0.7506(18) 0.6535(8)
H77 H 0.5740 0.6871 0.6493
H78 H 0.5574 0.7824 0.6584
H79 H 0.6019 0.7583 0.6783
C94 C 0.5915(6) 0.7895(15) 0.6118(7)
H80 H 0.6088 0.8418 0.6212
C95 C 0.5558(10) 0.824(2) 0.5783(12)
H81 H 0.5638 0.8428 0.5523
H82 H 0.5446 0.8755 0.5902
H83 H 0.5363 0.7771 0.5712
C96 C 0.6155(6) 0.7204(13) 0.5931(6)
C97 C 0.5975(7) 0.6500(15) 0.5663(7)
H84 H 0.5700 0.6468 0.5582
C98 C 0.6197(6) 0.5854(15) 0.5519(7)
H85 H 0.6068 0.5384 0.5345
C99 C 0.6606(6) 0.5870(13) 0.5619(6)
C100 C 0.6794(6) 0.6608(15) 0.5911(7)
C101 C 0.6562(5) 0.7236(13) 0.6049(6)
H86 H 0.6682 0.7705 0.6230
C102 C 0.6852(6) 0.5216(15) 0.5433(7)
H87 H 0.6718 0.4642 0.5381
H88 H 0.7103 0.5136 0.5636
H89 H 0.6894 0.5451 0.5162
O3 O 0.7193(4) 0.6656(11) 0.5999(5)
H90 H 0.7266 0.7156 0.6103
C103 C 0.7310(6) 1.1018(15) 0.7719(7)
C104 C 0.7183(6) 1.0159(14) 0.7796(6)
H91 H 0.7010 1.0083 0.7979
C105 C 0.7310(7) 0.9418(15) 0.7603(7)
C106 C 0.7555(6) 0.9534(15) 0.7315(7)
H92 H 0.7630 0.9036 0.7171
C107 C 0.7683(7) 1.0365(17) 0.7246(8)
H93 H 0.7861 1.0424 0.7068
C108 C 0.7557(6) 1.1175(14) 0.7433(6)
C109 C 0.7150(7) 0.8467(16) 0.7659(8)
H94 H 0.7204 0.8366 0.7976
C110 C 0.7320(9) 0.7693(19) 0.7486(9)
H95 H 0.7367 0.7846 0.7205
H96 H 0.7140 0.7189 0.7455
H97 H 0.7566 0.7531 0.7682
C111 C 0.6685(8) 0.844(2) 0.7499(10)
H98 H 0.6614 0.8303 0.7192
H99 H 0.6578 0.9026 0.7548
H100 H 0.6579 0.7987 0.7658
C112 C 0.7708(7) 1.2094(16) 0.7364(8)
H101 H 0.7493 1.2465 0.7210
H102 H 0.7905 1.2046 0.7196
H103 H 0.7823 1.2366 0.7642
O4 O 0.7178(5) 1.1777(9) 0.7912(4)
H104 H 0.7118 1.1625 0.8139
C113 C 0.6739(5) 0.4942(12) 0.7488(6)
C114 C 0.6781(6) 0.3999(13) 0.7453(6)
C115 C 0.6697(6) 0.3559(14) 0.7055(6)
H105 H 0.6750 0.2942 0.7039
C116 C 0.6539(6) 0.4027(13) 0.6695(6)
C117 C 0.6489(6) 0.4964(15) 0.6710(7)
H106 H 0.6391 0.5296 0.6456
C118 C 0.6591(6) 0.5388(16) 0.7117(7)
H107 H 0.6554 0.6012 0.7131
C119 C 0.6850(7) 0.5390(17) 0.7934(8)
H108 H 0.7132 0.5369 0.8041
H109 H 0.6725 0.5074 0.8132
H110 H 0.6764 0.6012 0.7910
C120 C 0.6438(6) 0.3542(13) 0.6243(6)
H111 H 0.6343 0.4012 0.6023
C121 C 0.6093(6) 0.2860(15) 0.6214(7)
H112 H 0.5960 0.2773 0.5914
H113 H 0.5910 0.3094 0.6373
H114 H 0.6196 0.2289 0.6339
C122 C 0.6778(7) 0.3079(17) 0.6113(8)
H115 H 0.6773 0.2442 0.6178
H116 H 0.7022 0.3338 0.6273
H117 H 0.6756 0.3159 0.5805
O5 O 0.6946(4) 0.3517(9) 0.7827(4)
H118 H 0.7144 0.3783 0.7963
loop_
_geom_bond_atom_site_label_1
_geom_bond_atom_site_label_2
_geom_bond_site_symmetry_1
_geom_bond_site_symmetry_2
Br1 Zn1 1_555 1_555
Br2 Zn1 1_555 1_555
Br3 Zn2 1_555 1_555
Br4 Zn3 1_555 1_555
Br5 Zn3 1_555 1_555
Br6 Zn4 1_555 1_555
Br7 Zn5 1_555 1_555
Br8 Zn5 1_555 1_555
Br9 Zn6 1_555 1_555
Br10 Zn2 1_555 1_555
Br11 Zn4 1_555 1_555
Br12 Zn6 1_555 1_555
C1 H1 1_555 1_555
C2 C1 1_555 1_555
H2 C2 1_555 1_555
C3 C2 1_555 1_555
C4 C3 1_555 1_555
H3 C4 1_555 1_555
C5 C4 1_555 1_555
H4 C5 1_555 1_555
C6 C3 1_555 1_555
C7 C9 1_555 1_555
C8 C14 1_555 1_555
C9 C10 1_555 1_555
C10 H5 1_555 1_555
C11 C10 1_555 1_555
H6 C11 1_555 1_555
C12 H7 1_555 1_555
C13 C9 1_555 1_555
H8 C13 1_555 1_555
C14 C15 1_555 1_555
C15 H9 1_555 1_555
C16 C15 1_555 1_555
H10 C16 1_555 1_555
C17 H11 1_555 1_555
C18 C14 1_555 1_555
H12 C18 1_555 1_555
C19 H13 1_555 1_555
C20 C19 1_555 1_555
H14 C20 1_555 1_555
C21 C20 1_555 1_555
C22 C21 1_555 1_555
H15 C22 1_555 1_555
C23 C22 1_555 1_555
H16 C23 1_555 1_555
C24 C21 1_555 1_555
C25 C32 1_555 1_555
C26 C27 1_555 1_555
C27 C28 1_555 1_555
C28 H17 1_555 1_555
C29 C28 1_555 1_555
H18 C29 1_555 1_555
C30 H19 1_555 1_555
C31 C27 1_555 1_555
H20 C31 1_555 1_555
C32 C33 1_555 1_555
C33 H21 1_555 1_555
C34 C33 1_555 1_555
H22 C34 1_555 1_555
C35 H23 1_555 1_555
C36 C32 1_555 1_555
H24 C36 1_555 1_555
C37 H25 1_555 1_555
C38 C37 1_555 1_555
H26 C38 1_555 1_555
C39 C38 1_555 1_555
C40 C39 1_555 1_555
H27 C40 1_555 1_555
C41 C40 1_555 1_555
H28 C41 1_555 1_555
C42 C39 1_555 1_555
C43 C45 1_555 1_555
C44 C51 1_555 1_555
C45 C46 1_555 1_555
C46 H29 1_555 1_555
C47 C46 1_555 1_555
H30 C47 1_555 1_555
C48 H31 1_555 1_555
C49 C45 1_555 1_555
H32 C49 1_555 1_555
C50 H33 1_555 1_555
C51 C50 1_555 1_555
C52 C51 1_555 1_555
H34 C52 1_555 1_555
C53 C52 1_555 1_555
H35 C53 1_555 1_555
C54 C50 1_555 1_555
H36 C54 1_555 1_555
C55 H37 1_555 1_555
C56 C55 1_555 1_555
H38 C56 1_555 1_555
C57 C56 1_555 1_555
C58 C57 1_555 1_555
H39 C58 1_555 1_555
C59 C58 1_555 1_555
H40 C59 1_555 1_555
C60 C57 1_555 1_555
C61 C63 1_555 1_555
C62 C68 1_555 1_555
C63 C64 1_555 1_555
C64 H41 1_555 1_555
C65 C64 1_555 1_555
H42 C65 1_555 1_555
C66 H43 1_555 1_555
C67 C63 1_555 1_555
H44 C67 1_555 1_555
C68 C69 1_555 1_555
C69 H45 1_555 1_555
C70 C69 1_555 1_555
H46 C70 1_555 1_555
C71 H47 1_555 1_555
C72 C68 1_555 1_555
H48 C72 1_555 1_555
N1 C1 1_555 1_555
N2 C11 1_555 1_555
N3 C16 1_555 1_555
N4 C6 1_555 1_555
N5 C6 1_555 1_555
N6 C7 1_555 1_555
N7 C19 1_555 1_555
N8 C29 1_555 1_555
N9 C34 1_555 1_555
N10 C24 1_555 1_555
N11 C24 1_555 1_555
N12 C25 1_555 1_555
N13 C37 1_555 1_555
N14 C47 1_555 1_555
N15 C53 1_555 1_555
N16 C42 1_555 1_555
N17 C42 1_555 1_555
N18 C43 1_555 1_555
N19 C55 1_555 1_555
N20 C65 1_555 1_555
N21 C70 1_555 1_555
N22 C60 1_555 1_555
N23 C60 1_555 1_555
N24 C61 1_555 1_555
Zn1 N1 1_555 1_555
Zn2 N3 1_555 1_555
Zn3 N9 1_555 1_555
Zn4 N14 1_555 1_555
Zn5 N15 1_555 1_555
Zn6 N21 1_555 1_555
C73 H49 1_555 1_555
H50 C73 1_555 1_555
H51 C73 1_555 1_555
C74 C73 1_555 1_555
C75 C74 1_555 1_555
H52 C75 1_555 1_555
C76 C75 1_555 1_555
H53 C76 1_555 1_555
C77 C76 1_555 1_555
C78 C77 1_555 1_555
H54 C78 1_555 1_555
C79 C74 1_555 1_555
C80 C77 1_555 1_555
H55 C80 1_555 1_555
C81 C80 1_555 1_555
H56 C81 1_555 1_555
H57 C81 1_555 1_555
H58 C81 1_555 1_555
C82 C80 1_555 1_555
H59 C82 1_555 1_555
H60 C82 1_555 1_555
H61 C82 1_555 1_555
O1 C79 1_555 1_555
H62 O1 1_555 1_555
C83 H63 1_555 1_555
H64 C83 1_555 1_555
H65 C83 1_555 1_555
C84 H66 1_555 1_555
H67 C84 1_555 1_555
H68 C84 1_555 1_555
C85 C83 1_555 1_555
H69 C85 1_555 1_555
C86 C85 1_555 1_555
C87 C86 1_555 1_555
H70 C87 1_555 1_555
C88 C87 1_555 1_555
C89 C88 1_555 1_555
C90 C89 1_555 1_555
H71 C90 1_555 1_555
C91 C86 1_555 1_555
H72 C91 1_555 1_555
C92 C89 1_555 1_555
H73 C92 1_555 1_555
H74 C92 1_555 1_555
H75 C92 1_555 1_555
O2 C88 1_555 1_555
H76 O2 1_555 1_555
C93 H77 1_555 1_555
H78 C93 1_555 1_555
H79 C93 1_555 1_555
C94 C93 1_555 1_555
H80 C94 1_555 1_555
C95 C94 1_555 1_555
H81 C95 1_555 1_555
H82 C95 1_555 1_555
H83 C95 1_555 1_555
C96 C94 1_555 1_555
C97 C96 1_555 1_555
H84 C97 1_555 1_555
C98 C97 1_555 1_555
H85 C98 1_555 1_555
C99 C98 1_555 1_555
C100 C99 1_555 1_555
C101 C96 1_555 1_555
H86 C101 1_555 1_555
C102 C99 1_555 1_555
H87 C102 1_555 1_555
H88 C102 1_555 1_555
H89 C102 1_555 1_555
O3 C100 1_555 1_555
H90 O3 1_555 1_555
C103 C104 1_555 1_555
C104 H91 1_555 1_555
C105 C104 1_555 1_555
C106 C105 1_555 1_555
H92 C106 1_555 1_555
C107 C106 1_555 1_555
H93 C107 1_555 1_555
C108 C103 1_555 1_555
C109 C105 1_555 1_555
H94 C109 1_555 1_555
C110 C109 1_555 1_555
H95 C110 1_555 1_555
H96 C110 1_555 1_555
H97 C110 1_555 1_555
C111 C109 1_555 1_555
H98 C111 1_555 1_555
H99 C111 1_555 1_555
H100 C111 1_555 1_555
C112 C108 1_555 1_555
H101 C112 1_555 1_555
H102 C112 1_555 1_555
H103 C112 1_555 1_555
O4 C103 1_555 1_555
H104 O4 1_555 1_555
C113 C114 1_555 1_555
C114 C115 1_555 1_555
C115 H105 1_555 1_555
C116 C115 1_555 1_555
C117 C116 1_555 1_555
H106 C117 1_555 1_555
C118 C113 1_555 1_555
H107 C118 1_555 1_555
C119 C113 1_555 1_555
H108 C119 1_555 1_555
H109 C119 1_555 1_555
H110 C119 1_555 1_555
C120 C116 1_555 1_555
H111 C120 1_555 1_555
C121 C120 1_555 1_555
H112 C121 1_555 1_555
H113 C121 1_555 1_555
H114 C121 1_555 1_555
C122 C120 1_555 1_555
H115 C122 1_555 1_555
H116 C122 1_555 1_555
H117 C122 1_555 1_555
O5 C114 1_555 1_555
H118 O5 1_555 1_555
N2C Zn6 1_555 1_555
N8C Zn4 1_555 1_555
N20_2 Zn1 1_555 1_555
Zn1_2 N20 1_555 1_555
Zn4C N8 1_555 1_555
Zn6C N2 1_555 1_555
C5 N1 1_555 1_555
C7 N5 1_555 1_555
C8 N4 1_555 1_555
C8 N6 1_555 1_555
C12 C13 1_555 1_555
C12 N2 1_555 1_555
C17 C18 1_555 1_555
C17 N3 1_555 1_555
C23 N7 1_555 1_555
C25 N11 1_555 1_555
C26 N10 1_555 1_555
C26 N12 1_555 1_555
C30 C31 1_555 1_555
C30 N8 1_555 1_555
C35 C36 1_555 1_555
C35 N9 1_555 1_555
C41 N13 1_555 1_555
C43 N17 1_555 1_555
C44 N16 1_555 1_555
C44 N18 1_555 1_555
C48 C49 1_555 1_555
C48 N14 1_555 1_555
C54 N15 1_555 1_555
C59 N19 1_555 1_555
C61 N23 1_555 1_555
C62 N22 1_555 1_555
C62 N24 1_555 1_555
C66 C67 1_555 1_555
C66 N20 1_555 1_555
C71 C72 1_555 1_555
C71 N21 1_555 1_555
N7 Zn2 1_555 1_555
N13 Zn3 1_555 1_555
N19 Zn5 1_555 1_555
C78 C79 1_555 1_555
C84 C85 1_555 1_555
C90 C91 1_555 1_555
C100 C101 1_555 1_555
C107 C108 1_555 1_555
C117 C118 1_555 1_555

#END
