
#######################################################################
#
#                 Cambridge Crystallographic Data Centre
#                                CCDC 
#
#######################################################################
#
# If this CIF has been generated from an entry in the Cambridge 
# Structural Database, then it will include bibliographic, chemical, 
# crystal, experimental, refinement or atomic coordinate data resulting 
# from the CCDC's data processing and validation procedures.
#
#######################################################################

data_IYODAD
_chemical_formula_moiety         '(C46 H38 Br6 N12 O1 Zn3)n'
_symmetry_cell_setting           monoclinic
_symmetry_space_group_name_H-M   'C 2/c'
_symmetry_Int_Tables_number      15
_space_group_name_Hall           '-C 2yc'
loop_
_symmetry_equiv_pos_site_id
_symmetry_equiv_pos_as_xyz
1 x,y,z
2 -x,y,1/2-z
3 1/2+x,1/2+y,z
4 1/2-x,1/2+y,1/2-z
5 -x,-y,-z
6 x,-y,1/2+z
7 1/2-x,1/2-y,-z
8 1/2+x,1/2-y,1/2+z
_cell_length_a                   35.577(5)
_cell_length_b                   14.634(2)
_cell_length_c                   30.500(5)
_cell_angle_alpha                90
_cell_angle_beta                 102.333(4)
_cell_angle_gamma                90
_cell_volume                     15512.9
loop_
_atom_site_label
_atom_site_type_symbol
_atom_site_fract_x
_atom_site_fract_y
_atom_site_fract_z
_atom_site_U_iso_or_equiv
_atom_site_thermal_displace_type
Br1 Br 0.27234(2) 0.23568(5) 0.70941(3) 0.0587 Uani
Br2 Br 0.36894(3) 0.15165(5) 0.80065(3) 0.0590 Uani
Br3 Br 0.38231(3) 0.74434(5) 0.43678(3) 0.0648 Uani
Br4 Br 0.46949(2) 0.66778(6) 0.37220(3) 0.0682 Uani
Br5 Br 0.10445(2) 0.73824(5) 0.09392(3) 0.0614 Uani
Br6 Br 0.13455(3) 0.59958(6) -0.01183(3) 0.0692 Uani
C1 C 0.17230(18) 0.4530(4) 0.0973(2) 0.0422 Uani
H1 H 0.1583 0.4222 0.0725 0.0500 Uiso
C2 C 0.20170(17) 0.4061(4) 0.1260(2) 0.0379 Uani
H2 H 0.2070 0.3454 0.1206 0.0460 Uiso
C3 C 0.22265(15) 0.4516(4) 0.16254(18) 0.0275 Uani
C4 C 0.21363(17) 0.5428(4) 0.1690(2) 0.0404 Uani
H3 H 0.2277 0.5756 0.1931 0.0480 Uiso
C5 C 0.18412(18) 0.5831(4) 0.1396(2) 0.0443 Uani
H4 H 0.1780 0.6435 0.1446 0.0530 Uiso
C6 C 0.25424(16) 0.4069(4) 0.19412(18) 0.0279 Uani
C7 C 0.28923(16) 0.2818(4) 0.2180(2) 0.0323 Uani
C8 C 0.30400(16) 0.4152(4) 0.25394(19) 0.0312 Uani
C9 C 0.29796(17) 0.1808(4) 0.2165(2) 0.0355 Uani
C10 C 0.27279(18) 0.1202(4) 0.1912(2) 0.0377 Uani
H5 H 0.2502 0.1409 0.1725 0.0450 Uiso
C11 C 0.28163(19) 0.0265(4) 0.1939(2) 0.0415 Uani
H6 H 0.2648 -0.0145 0.1765 0.0500 Uiso
C12 C 0.3382(2) 0.0540(4) 0.2433(3) 0.0530 Uani
H7 H 0.3612 0.0319 0.2602 0.0630 Uiso
C13 C 0.3319(2) 0.1453(4) 0.2432(3) 0.0567 Uani
H8 H 0.3499 0.1840 0.2605 0.0680 Uiso
C14 C 0.3805(2) 0.4739(4) 0.3539(2) 0.0492 Uani
H9 H 0.3993 0.4435 0.3747 0.0590 Uiso
C15 C 0.3572(2) 0.4242(4) 0.3213(2) 0.0496 Uani
H10 H 0.3602 0.3613 0.3196 0.0590 Uiso
C16 C 0.32889(16) 0.4688(4) 0.29058(19) 0.0317 Uani
C17 C 0.32502(17) 0.5636(4) 0.2948(2) 0.0369 Uani
H11 H 0.3061 0.5954 0.2749 0.0440 Uiso
C18 C 0.34951(18) 0.6088(4) 0.3286(2) 0.0382 Uani
H12 H 0.3466 0.6715 0.3316 0.0450 Uiso
C19 C 0.46114(17) 0.4749(4) 0.45071(19) 0.0340 Uani
H13 H 0.4782 0.4884 0.4324 0.0410 Uiso
C20 C 0.46737(17) 0.3970(4) 0.4766(2) 0.0342 Uani
H14 H 0.4874 0.3576 0.4745 0.0410 Uiso
C21 C 0.44315(17) 0.3783(4) 0.50582(19) 0.0321 Uani
C22 C 0.4134(2) 0.4397(5) 0.5067(2) 0.0503 Uani
H15 H 0.3967 0.4299 0.5258 0.0600 Uiso
C23 C 0.4091(2) 0.5138(5) 0.4795(2) 0.0542 Uani
H16 H 0.3892 0.5544 0.4807 0.0650 Uiso
C24 C 0.44860(16) 0.2945(4) 0.53482(18) 0.0287 Uani
C25 C 0.48125(16) 0.1670(4) 0.55879(19) 0.0280 Uani
C26 C 0.43335(16) 0.2136(4) 0.59074(19) 0.0318 Uani
C27 C 0.40848(17) 0.1978(4) 0.6231(2) 0.0333 Uani
C28 C 0.4192(2) 0.1440(7) 0.6599(3) 0.0798 Uani
H17 H 0.4434 0.1168 0.6658 0.0960 Uiso
C29 C 0.3952(3) 0.1292(7) 0.6882(3) 0.0954 Uani
H18 H 0.4038 0.0921 0.7130 0.1150 Uiso
C30 C 0.3490(2) 0.2164(5) 0.6459(3) 0.0530 Uani
H19 H 0.3245 0.2418 0.6404 0.0630 Uiso
C31 C 0.3721(2) 0.2341(5) 0.6159(2) 0.0524 Uani
H20 H 0.3631 0.2706 0.5909 0.0630 Uiso
C32 C 0.51339(16) 0.1027(4) 0.55758(19) 0.0308 Uani
C33 C 0.53000(17) 0.0977(4) 0.5208(2) 0.0355 Uani
H21 H 0.5211 0.1341 0.4958 0.0430 Uiso
C34 C 0.56021(17) 0.0376(4) 0.5218(2) 0.0386 Uani
H22 H 0.5710 0.0331 0.4966 0.0470 Uiso
C35 C 0.5584(2) -0.0083(5) 0.5931(2) 0.0608 Uani
H23 H 0.5680 -0.0447 0.6179 0.0730 Uiso
C36 C 0.5283(2) 0.0492(5) 0.5946(2) 0.0551 Uani
H24 H 0.5180 0.0522 0.6202 0.0660 Uiso
N1 N 0.16315(13) 0.5389(3) 0.10339(16) 0.0311 Uani
N2 N 0.31354(15) -0.0055(3) 0.22087(18) 0.0388 Uani
N3 N 0.37749(14) 0.5654(3) 0.35743(16) 0.0367 Uani
N4 N 0.26038(14) 0.3159(3) 0.18814(15) 0.0308 Uani
N5 N 0.31256(14) 0.3271(3) 0.25111(16) 0.0330 Uani
N6 N 0.27463(13) 0.4588(3) 0.22698(15) 0.0298 Uani
N7 N 0.43209(15) 0.5315(3) 0.45067(16) 0.0371 Uani
N8 N 0.57448(14) -0.0144(3) 0.55767(16) 0.0337 Uani
N9 N 0.36000(16) 0.1647(3) 0.68245(18) 0.0409 Uani
N10 N 0.42594(13) 0.2876(3) 0.56454(16) 0.0311 Uani
N11 N 0.47570(13) 0.2360(3) 0.52913(15) 0.0293 Uani
N12 N 0.46108(13) 0.1528(3) 0.59036(16) 0.0309 Uani
Zn1 Zn 0.32728(2) 0.14378(4) 0.72863(3) 0.0428 Uani
Zn2 Zn 0.41729(2) 0.63624(4) 0.40476(2) 0.0405 Uani
Zn3 Zn 0.11959(2) 0.60315(5) 0.05905(2) 0.0390 Uani
N2E N 0.31354(15) 0.0055(3) 0.72087(18) 0.0388 Uani
N8G N 0.07448(14) 0.5144(3) 0.05767(16) 0.0337 Uani
Zn1E Zn 0.32728(2) -0.14378(4) 0.22863(3) 0.0428 Uani
Zn3G Zn 0.61959(2) -0.10315(5) 0.55905(2) 0.0390 Uani
C37 C 0.2935(3) 0.5194(8) 0.4155(3) 0.0877 Uani
H25 H 0.3186 0.5260 0.4118 0.1050 Uiso
C38 C 0.2764(3) 0.4313(9) 0.4121(4) 0.0969 Uani
C39 C 0.2411(3) 0.4230(8) 0.4199(4) 0.1042 Uani
H26 H 0.2296 0.3657 0.4194 0.1250 Uiso
C40 C 0.2213(3) 0.5017(11) 0.4290(5) 0.1211 Uani
H27 H 0.1964 0.4950 0.4334 0.1450 Uiso
C41 C 0.2368(4) 0.5878(9) 0.4316(4) 0.1071 Uani
C42 C 0.2738(3) 0.5931(8) 0.4240(3) 0.0818 Uani
C43 C 0.3000(4) 0.3472(8) 0.4023(5) 0.1364 Uani
H28 H 0.2890 0.2925 0.4117 0.2040 Uiso
H29 H 0.3262 0.3531 0.4185 0.2040 Uiso
H30 H 0.2994 0.3440 0.3707 0.2040 Uiso
C44 C 0.2180(5) 0.6718(14) 0.4449(6) 0.1964 Uani
H31 H 0.2393 0.7116 0.4589 0.2360 Uiso
C45 C 0.1980(5) 0.7223(15) 0.4042(6) 0.2141 Uani
H32 H 0.1899 0.7809 0.4129 0.3210 Uiso
H33 H 0.1759 0.6880 0.3893 0.3210 Uiso
H34 H 0.2153 0.7305 0.3843 0.3210 Uiso
C46 C 0.1956(4) 0.6533(11) 0.4823(5) 0.1657 Uani
H35 H 0.1790 0.7041 0.4844 0.2480 Uiso
H36 H 0.2135 0.6454 0.5104 0.2480 Uiso
H37 H 0.1805 0.5989 0.4752 0.2480 Uiso
O1 O 0.2884(2) 0.6813(6) 0.4248(3) 0.1177 Uani
H38 H 0.3119 0.6793 0.4294 0.1770 Uiso
loop_
_atom_site_aniso_label
_atom_site_aniso_U_11
_atom_site_aniso_U_22
_atom_site_aniso_U_33
_atom_site_aniso_U_23
_atom_site_aniso_U_13
_atom_site_aniso_U_12
Br1 0.0691(5) 0.0259(4) 0.0911(6) 0.0125(3) 0.0397(4) 0.0124(3)
Br2 0.0861(6) 0.0381(4) 0.0565(4) -0.0137(3) 0.0238(4) -0.0163(4)
Br3 0.0864(6) 0.0231(4) 0.0715(5) -0.0072(3) -0.0130(4) 0.0167(3)
Br4 0.0698(5) 0.0617(5) 0.0655(5) 0.0092(4) -0.0027(4) -0.0373(4)
Br5 0.0529(4) 0.0238(4) 0.0948(6) -0.0057(3) -0.0124(4) -0.0022(3)
Br6 0.0717(5) 0.0780(6) 0.0582(5) 0.0290(4) 0.0144(4) 0.0085(4)
C1 0.049(4) 0.028(3) 0.040(3) 0.000(3) -0.012(3) -0.013(3)
C2 0.044(4) 0.018(3) 0.044(3) 0.001(3) -0.008(3) -0.003(3)
C3 0.028(3) 0.016(3) 0.038(3) 0.004(2) 0.006(3) -0.002(2)
C4 0.036(3) 0.022(3) 0.053(4) -0.004(3) -0.013(3) -0.004(3)
C5 0.043(4) 0.016(3) 0.063(4) -0.006(3) -0.013(3) 0.002(3)
C6 0.030(3) 0.018(3) 0.034(3) 0.001(2) 0.003(2) -0.006(2)
C7 0.032(3) 0.013(3) 0.048(3) 0.000(2) 0.000(3) -0.002(2)
C8 0.030(3) 0.018(3) 0.041(3) -0.001(2) -0.003(3) -0.006(2)
C9 0.043(3) 0.014(3) 0.046(3) 0.002(2) 0.002(3) -0.001(2)
C10 0.042(4) 0.022(3) 0.044(3) 0.003(3) -0.002(3) 0.001(3)
C11 0.050(4) 0.022(3) 0.053(4) -0.009(3) 0.012(3) -0.004(3)
C12 0.049(4) 0.024(3) 0.076(5) 0.002(3) -0.009(4) 0.010(3)
C13 0.053(4) 0.018(3) 0.085(5) -0.008(3) -0.017(4) -0.001(3)
C14 0.054(4) 0.020(3) 0.060(4) 0.001(3) -0.018(3) 0.001(3)
C15 0.064(4) 0.010(3) 0.059(4) -0.004(3) -0.022(4) 0.001(3)
C16 0.035(3) 0.014(3) 0.041(3) 0.006(2) -0.003(3) -0.001(2)
C17 0.040(3) 0.017(3) 0.046(4) 0.005(3) -0.008(3) -0.002(2)
C18 0.050(4) 0.011(3) 0.045(3) 0.005(2) -0.009(3) 0.009(3)
C19 0.038(3) 0.021(3) 0.039(3) 0.007(2) -0.001(3) -0.001(3)
C20 0.031(3) 0.020(3) 0.047(3) 0.003(3) -0.002(3) -0.001(2)
C21 0.038(3) 0.019(3) 0.035(3) 0.000(2) -0.002(3) 0.007(2)
C22 0.059(4) 0.041(4) 0.057(4) 0.019(3) 0.026(4) 0.026(3)
C23 0.059(4) 0.045(4) 0.063(4) 0.016(4) 0.023(4) 0.031(4)
C24 0.029(3) 0.017(3) 0.036(3) -0.002(2) -0.002(3) 0.005(2)
C25 0.029(3) 0.015(3) 0.038(3) 0.000(2) 0.003(3) 0.005(2)
C26 0.030(3) 0.022(3) 0.043(3) 0.001(3) 0.007(3) -0.001(2)
C27 0.034(3) 0.022(3) 0.045(3) -0.001(3) 0.011(3) 0.003(2)
C28 0.063(5) 0.107(8) 0.083(6) 0.060(6) 0.046(5) 0.046(5)
C29 0.099(7) 0.109(8) 0.089(7) 0.064(6) 0.044(6) 0.055(6)
C30 0.050(4) 0.039(4) 0.079(5) 0.018(4) 0.034(4) 0.022(3)
C31 0.062(5) 0.042(4) 0.059(4) 0.020(3) 0.026(4) 0.022(3)
C32 0.032(3) 0.017(3) 0.040(3) -0.003(2) 0.000(3) 0.001(2)
C33 0.039(3) 0.029(3) 0.038(3) 0.007(3) 0.007(3) 0.002(3)
C34 0.035(3) 0.030(3) 0.050(4) -0.001(3) 0.007(3) 0.003(3)
C35 0.077(5) 0.057(5) 0.046(4) 0.020(4) 0.008(4) 0.034(4)
C36 0.069(5) 0.056(5) 0.044(4) 0.018(3) 0.020(4) 0.033(4)
N1 0.030(3) 0.015(2) 0.044(3) 0.004(2) -0.002(2) -0.0011(19)
N2 0.045(3) 0.014(2) 0.057(3) -0.002(2) 0.010(3) 0.002(2)
N3 0.045(3) 0.016(2) 0.041(3) 0.000(2) -0.009(2) -0.002(2)
N4 0.041(3) 0.013(2) 0.037(3) 0.0000(19) 0.005(2) 0.001(2)
N5 0.040(3) 0.010(2) 0.044(3) -0.001(2) -0.002(2) 0.003(2)
N6 0.031(3) 0.017(2) 0.039(3) 0.004(2) 0.002(2) -0.001(2)
N7 0.044(3) 0.023(3) 0.038(3) 0.003(2) -0.005(2) 0.004(2)
N8 0.037(3) 0.024(3) 0.035(3) -0.002(2) -0.004(2) 0.008(2)
N9 0.052(3) 0.025(3) 0.052(3) 0.008(2) 0.025(3) 0.009(2)
N10 0.030(3) 0.025(3) 0.039(3) -0.001(2) 0.009(2) 0.003(2)
N11 0.032(3) 0.020(2) 0.035(2) 0.001(2) 0.005(2) 0.006(2)
N12 0.029(3) 0.023(3) 0.041(3) 0.004(2) 0.008(2) 0.006(2)
Zn1 0.0606(5) 0.0135(3) 0.0621(5) 0.0008(3) 0.0307(4) -0.0033(3)
Zn2 0.0544(5) 0.0156(3) 0.0407(4) 0.0034(3) -0.0137(3) -0.0045(3)
Zn3 0.0344(4) 0.0257(4) 0.0503(4) 0.0111(3) -0.0055(3) -0.0075(3)
N2E 0.045 0.014 0.057 0.002 0.01 -0.002
N8G 0.037 0.024 0.035 0.002 -0.004 -0.008
Zn1E 0.0606 0.0135 0.0621 -0.0008 0.0307 0.0033
Zn3G 0.0344 0.0257 0.0503 -0.0111 -0.0055 0.0075
C37 0.053(5) 0.102(8) 0.108(8) 0.026(7) 0.017(5) 0.022(6)
C38 0.073(7) 0.105(9) 0.117(9) 0.010(7) 0.030(6) 0.012(6)
C39 0.074(7) 0.095(9) 0.149(11) 0.018(7) 0.036(7) 0.007(6)
C40 0.080(8) 0.157(14) 0.143(11) 0.019(10) 0.061(8) 0.017(9)
C41 0.113(10) 0.108(10) 0.117(9) 0.016(8) 0.062(8) 0.023(8)
C42 0.089(7) 0.087(8) 0.080(6) 0.017(5) 0.042(6) 0.003(6)
C43 0.138(11) 0.083(9) 0.201(15) -0.005(9) 0.065(11) 0.032(8)
C44 0.165 0.221 0.251 0.043 0.151 0.053
C45 0.198(8) 0.233(9) 0.249(8) 0.024(8) 0.132(7) 0.080(8)
C46 0.157(13) 0.186(16) 0.183(15) -0.067(12) 0.101(12) -0.039(12)
O1 0.127(7) 0.100(6) 0.132(7) 0.016(5) 0.041(6) 0.019(5)
loop_
_geom_bond_atom_site_label_1
_geom_bond_atom_site_label_2
_geom_bond_site_symmetry_1
_geom_bond_site_symmetry_2
Br1 Zn1 1_555 1_555
Br2 Zn1 1_555 1_555
Br3 Zn2 1_555 1_555
Br4 Zn2 1_555 1_555
Br5 Zn3 1_555 1_555
Br6 Zn3 1_555 1_555
C1 H1 1_555 1_555
C2 C1 1_555 1_555
H2 C2 1_555 1_555
C3 C2 1_555 1_555
C4 C3 1_555 1_555
H3 C4 1_555 1_555
C5 C4 1_555 1_555
H4 C5 1_555 1_555
C6 C3 1_555 1_555
C7 C9 1_555 1_555
C8 C16 1_555 1_555
C9 C10 1_555 1_555
C10 H5 1_555 1_555
C11 C10 1_555 1_555
H6 C11 1_555 1_555
C12 H7 1_555 1_555
C13 C9 1_555 1_555
H8 C13 1_555 1_555
C14 H9 1_555 1_555
C15 C14 1_555 1_555
H10 C15 1_555 1_555
C16 C15 1_555 1_555
C17 C16 1_555 1_555
H11 C17 1_555 1_555
C18 C17 1_555 1_555
H12 C18 1_555 1_555
C19 H13 1_555 1_555
C20 C19 1_555 1_555
H14 C20 1_555 1_555
C21 C20 1_555 1_555
C22 C21 1_555 1_555
H15 C22 1_555 1_555
C23 C22 1_555 1_555
H16 C23 1_555 1_555
C24 C21 1_555 1_555
C25 C32 1_555 1_555
C26 C27 1_555 1_555
C27 C28 1_555 1_555
C28 H17 1_555 1_555
C29 C28 1_555 1_555
H18 C29 1_555 1_555
C30 H19 1_555 1_555
C31 C27 1_555 1_555
H20 C31 1_555 1_555
C32 C33 1_555 1_555
C33 H21 1_555 1_555
C34 C33 1_555 1_555
H22 C34 1_555 1_555
C35 H23 1_555 1_555
C36 C32 1_555 1_555
H24 C36 1_555 1_555
N1 C1 1_555 1_555
N2 C11 1_555 1_555
N3 C14 1_555 1_555
N4 C6 1_555 1_555
N5 C7 1_555 1_555
N6 C6 1_555 1_555
N7 C19 1_555 1_555
N8 C34 1_555 1_555
N9 C29 1_555 1_555
N10 C24 1_555 1_555
N11 C24 1_555 1_555
N12 C25 1_555 1_555
Zn1 N9 1_555 1_555
Zn2 N3 1_555 1_555
Zn3 N1 1_555 1_555
C37 H25 1_555 1_555
C38 C37 1_555 1_555
C39 C38 1_555 1_555
H26 C39 1_555 1_555
C40 C39 1_555 1_555
H27 C40 1_555 1_555
C41 C40 1_555 1_555
C42 C37 1_555 1_555
C43 C38 1_555 1_555
H28 C43 1_555 1_555
H29 C43 1_555 1_555
H30 C43 1_555 1_555
C44 C41 1_555 1_555
H31 C44 1_555 1_555
C45 C44 1_555 1_555
H32 C45 1_555 1_555
H33 C45 1_555 1_555
H34 C45 1_555 1_555
C46 C44 1_555 1_555
H35 C46 1_555 1_555
H36 C46 1_555 1_555
H37 C46 1_555 1_555
O1 C42 1_555 1_555
H38 O1 1_555 1_555
N2E Zn1 1_555 1_555
N8G Zn3 1_555 1_555
Zn1E N2 1_555 1_555
Zn3G N8 1_555 1_555
C5 N1 1_555 1_555
C7 N4 1_555 1_555
C8 N5 1_555 1_555
C8 N6 1_555 1_555
C12 C13 1_555 1_555
C12 N2 1_555 1_555
C18 N3 1_555 1_555
C23 N7 1_555 1_555
C25 N11 1_555 1_555
C26 N10 1_555 1_555
C26 N12 1_555 1_555
C30 C31 1_555 1_555
C30 N9 1_555 1_555
C35 C36 1_555 1_555
C35 N8 1_555 1_555
N7 Zn2 1_555 1_555
C41 C42 1_555 1_555

#END
