
#######################################################################
#
#                 Cambridge Crystallographic Data Centre
#                                CCDC 
#
#######################################################################
#
# If this CIF has been generated from an entry in the Cambridge 
# Structural Database, then it will include bibliographic, chemical, 
# crystal, experimental, refinement or atomic coordinate data resulting 
# from the CCDC's data processing and validation procedures.
#
#######################################################################

data_BERQAS
_chemical_formula_moiety         'C16 H4 Cd3 N4 O20'
_symmetry_cell_setting           hexagonal
_symmetry_space_group_name_H-M   'P 62 2 2'
_symmetry_Int_Tables_number      180
_space_group_name_Hall           'P 62 2 (0 0 4)'
loop_
_symmetry_equiv_pos_site_id
_symmetry_equiv_pos_as_xyz
1 x,y,z
2 x-y,x,1/3+z
3 -y,x-y,2/3+z
4 -x,-y,z
5 -x+y,-x,1/3+z
6 y,-x+y,2/3+z
7 -y,-x,2/3-z
8 x-y,-y,-z
9 x,x-y,1/3-z
10 y,x,2/3-z
11 -x+y,y,-z
12 -x,-x+y,1/3-z
_cell_length_a                   14.6756(7)
_cell_length_b                   14.6756(7)
_cell_length_c                   12.8469(11)
_cell_angle_alpha                90
_cell_angle_beta                 90
_cell_angle_gamma                120
_cell_volume                     2396.19
loop_
_atom_site_label
_atom_site_type_symbol
_atom_site_fract_x
_atom_site_fract_y
_atom_site_fract_z
Cd1 Cd 0.5000 0.5000 -0.1667
O1 O 0.4148(7) 0.3483(6) -0.0547(6)
O2 O 0.5829(9) 0.4427(8) -0.0443(5)
C1 C 0.4976(10) 0.3029(8) 0.0789(6)
C2 C 0.4130(10) 0.2274(11) 0.1218(9)
C3 C 0.5971(9) 0.3275(8) 0.1234(6)
H1 H 0.6826 0.3685 0.0841
C4 C 0.5106(10) 0.3750(9) -0.0165(6)
O3 O 0.209(2) 0.149(2) 0.110(3)
O4 O 0.281(2) 0.116(2) 0.013(3)
N1 N 0.296(2) 0.170(4) 0.091(4)
O1H O 0.4148(7) 0.0665(9) 0.3880(6)
O2H O 0.5829(9) 0.1402(12) 0.3776(5)
C1H C 0.4976(10) 0.1947(13) 0.2544(6)
C2H C 0.4130(10) 0.1856(15) 0.2115(9)
C3H C 0.5971(9) 0.2696(12) 0.2099(6)
H1H H 0.6826 0.3141 0.2492
C4H C 0.5106(10) 0.1356(13) 0.3498(6)
O3H O 0.209(2) 0.060(3) 0.223(3)
O4H O 0.281(2) 0.165(3) 0.320(3)
N1H N 0.296(2) 0.126(4) 0.242(4)
O1C O 0.5852(7) 0.6517(6) -0.0547(6)
O2C O 0.4171(9) 0.5573(8) -0.0443(5)
C1C C 0.5024(10) 0.6971(8) 0.0789(6)
C2C C 0.5870(10) 0.7726(11) 0.1218(9)
C3C C 0.4029(9) 0.6725(8) 0.1234(6)
H1C H 0.3174 0.6315 0.0841
C4C C 0.4894(10) 0.6250(9) -0.0165(6)
O3C O 0.791(2) 0.851(2) 0.110(3)
O4C O 0.719(2) 0.884(2) 0.013(3)
N1C N 0.704(2) 0.830(4) 0.091(4)
O1K O 0.5852(7) 0.9335(9) 0.3880(6)
O2K O 0.4171(9) 0.8598(12) 0.3776(5)
C1K C 0.5024(10) 0.8053(13) 0.2544(6)
C2K C 0.5870(10) 0.8144(15) 0.2115(9)
C3K C 0.4029(9) 0.7304(12) 0.2099(6)
H1K H 0.3174 0.6859 0.2492
C4K C 0.4894(10) 0.8644(13) 0.3498(6)
O3K O 0.791(2) 0.940(3) 0.223(3)
O4K O 0.719(2) 0.835(3) 0.320(3)
N1K N 0.704(2) 0.874(4) 0.242(4)
Cd1B Cd 0.5000 0.0000 0.5000
Cd1B_2 Cd 0.5000 1.0000 0.5000
O1F O 0.6517(6) 0.5852(7) -0.2786(6)
O1I O 0.3483(6) 0.4148(7) -0.2786(6)
O2F O 0.5573(8) 0.4171(9) -0.2890(5)
O2I O 0.4427(8) 0.5829(9) -0.2890(5)
loop_
_geom_bond_atom_site_label_1
_geom_bond_atom_site_label_2
_geom_bond_site_symmetry_1
_geom_bond_site_symmetry_2
Cd1 O1 1_555 1_555
O1 C4 1_555 1_555
O2 Cd1 1_555 1_555
C1 C2 1_555 1_555
C2 N1 1_555 1_555
C3 C1 1_555 1_555
H1 C3 1_555 1_555
C4 O2 1_555 1_555
O3 N1 1_555 1_555
O4 N1 1_555 1_555
O1H C4H 1_555 1_555
O2H C4H 1_555 1_555
C1H C2H 1_555 1_555
C2H C2 1_555 1_555
C3H C3 1_555 1_555
H1H C3H 1_555 1_555
C4H C1H 1_555 1_555
O3H N1H 1_555 1_555
O4H N1H 1_555 1_555
N1H C2H 1_555 1_555
O1C Cd1 1_555 1_555
O2C Cd1 1_555 1_555
C1C C2C 1_555 1_555
C2C N1C 1_555 1_555
C3C C1C 1_555 1_555
H1C C3C 1_555 1_555
C4C O1C 1_555 1_555
O3C N1C 1_555 1_555
O4C N1C 1_555 1_555
O1K C4K 1_555 1_555
O2K C4K 1_555 1_555
C1K C2K 1_555 1_555
C2K C2C 1_555 1_555
C3K C3C 1_555 1_555
H1K C3K 1_555 1_555
C4K C1K 1_555 1_555
O3K N1K 1_555 1_555
O4K N1K 1_555 1_555
N1K C2K 1_555 1_555
Cd1B O1H 1_555 1_555
Cd1B_2 O1K 1_555 1_555
O1F Cd1 1_555 1_555
O1I Cd1 1_555 1_555
O2F Cd1 1_555 1_555
O2I Cd1 1_555 1_555
C1 C4 1_555 1_555
O2H Cd1B 1_555 1_555
C1H C3H 1_555 1_555
O2C C4C 1_555 1_555
C1C C4C 1_555 1_555
O2K Cd1B_2 1_555 1_555
C1K C3K 1_555 1_555

#END
