
#######################################################################
#
#                 Cambridge Crystallographic Data Centre
#                                CCDC 
#
#######################################################################
#
# If this CIF has been generated from an entry in the Cambridge 
# Structural Database, then it will include bibliographic, chemical, 
# crystal, experimental, refinement or atomic coordinate data resulting 
# from the CCDC's data processing and validation procedures.
#
#######################################################################

data_BERQEW
_chemical_formula_moiety         'C16 H4 Br4 Cd3 O12'
_symmetry_cell_setting           hexagonal
_symmetry_space_group_name_H-M   'P 62 2 2'
_symmetry_Int_Tables_number      180
_space_group_name_Hall           'P 62 2 (0 0 4)'
loop_
_symmetry_equiv_pos_site_id
_symmetry_equiv_pos_as_xyz
1 x,y,z
2 x-y,x,1/3+z
3 -y,x-y,2/3+z
4 -x,-y,z
5 -x+y,-x,1/3+z
6 y,-x+y,2/3+z
7 -y,-x,2/3-z
8 x-y,-y,-z
9 x,x-y,1/3-z
10 y,x,2/3-z
11 -x+y,y,-z
12 -x,-x+y,1/3-z
_cell_length_a                   15.1245(9)
_cell_length_b                   15.1245(9)
_cell_length_c                   12.6105(14)
_cell_angle_alpha                90
_cell_angle_beta                 90
_cell_angle_gamma                120
_cell_volume                     2498.19
loop_
_atom_site_label
_atom_site_type_symbol
_atom_site_fract_x
_atom_site_fract_y
_atom_site_fract_z
Cd1 Cd 0.5000 0.5000 -0.1667
O1 O 0.4264(7) 0.3577(7) -0.0526(7)
O2 O 0.5908(7) 0.4499(7) -0.0393(7)
C1 C 0.5047(9) 0.3074(7) 0.0796(7)
C2 C 0.4212(12) 0.2308(10) 0.1163(10)
C3 C 0.5938(10) 0.3268(8) 0.1267(6)
H1 H 0.6554 0.3821 0.1046
C4 C 0.5078(10) 0.3752(10) -0.0122(7)
Br1 Br 0.2904(13) 0.195(2) 0.057(2)
O1H O 0.4264(7) 0.0687(10) 0.3859(7)
O2H O 0.5908(7) 0.1409(10) 0.3726(7)
C1H C 0.5047(9) 0.1973(11) 0.2537(7)
C2H C 0.4212(12) 0.1904(16) 0.2170(10)
C3H C 0.5938(10) 0.2670(13) 0.2066(6)
H1H H 0.6554 0.2733 0.2287
C4H C 0.5078(10) 0.1326(14) 0.3455(7)
Br1H Br 0.2904(13) 0.0954(24) 0.276(2)
O1C O 0.5736(7) 0.6423(7) -0.0526(7)
O2C O 0.4092(7) 0.5501(7) -0.0393(7)
C1C C 0.4953(9) 0.6926(7) 0.0796(7)
C2C C 0.5788(12) 0.7692(10) 0.1163(10)
C3C C 0.4062(10) 0.6732(8) 0.1267(6)
H1C H 0.3446 0.6179 0.1046
C4C C 0.4922(10) 0.6248(10) -0.0122(7)
Br1C Br 0.7096(13) 0.805(2) 0.057(2)
O1K O 0.5736(7) 0.9313(10) 0.3859(7)
O2K O 0.4092(7) 0.8591(10) 0.3726(7)
C1K C 0.4953(9) 0.8027(11) 0.2537(7)
C2K C 0.5788(12) 0.8096(16) 0.2170(10)
C3K C 0.4062(10) 0.7330(13) 0.2066(6)
H1K H 0.3446 0.7267 0.2287
C4K C 0.4922(10) 0.8674(14) 0.3455(7)
Br1K Br 0.7096(13) 0.9046(24) 0.276(2)
Cd1B Cd 0.5000 -0.0000 0.5000
Cd1B_2 Cd 0.5000 1.0000 0.5000
O1F O 0.6423(7) 0.5736(7) -0.2807(7)
O1I O 0.3577(7) 0.4264(7) -0.2807(7)
O2F O 0.5501(7) 0.4092(7) -0.2940(7)
O2I O 0.4499(7) 0.5908(7) -0.2940(7)
loop_
_geom_bond_atom_site_label_1
_geom_bond_atom_site_label_2
_geom_bond_site_symmetry_1
_geom_bond_site_symmetry_2
Cd1 O1 1_555 1_555
O1 C4 1_555 1_555
O2 Cd1 1_555 1_555
C1 C2 1_555 1_555
C2 Br1 1_555 1_555
C3 C1 1_555 1_555
H1 C3 1_555 1_555
C4 O2 1_555 1_555
O1H C4H 1_555 1_555
O2H C4H 1_555 1_555
C1H C2H 1_555 1_555
C2H C2 1_555 1_555
C3H C3 1_555 1_555
H1H C3H 1_555 1_555
C4H C1H 1_555 1_555
Br1H C2H 1_555 1_555
O1C Cd1 1_555 1_555
O2C Cd1 1_555 1_555
C1C C2C 1_555 1_555
C2C Br1C 1_555 1_555
C3C C1C 1_555 1_555
H1C C3C 1_555 1_555
C4C O1C 1_555 1_555
O1K C4K 1_555 1_555
O2K C4K 1_555 1_555
C1K C2K 1_555 1_555
C2K C2C 1_555 1_555
C3K C3C 1_555 1_555
H1K C3K 1_555 1_555
C4K C1K 1_555 1_555
Br1K C2K 1_555 1_555
Cd1B O1H 1_555 1_555
Cd1B_2 O1K 1_555 1_555
O1F Cd1 1_555 1_555
O1I Cd1 1_555 1_555
O2F Cd1 1_555 1_555
O2I Cd1 1_555 1_555
C1 C4 1_555 1_555
O2H Cd1B 1_555 1_555
C1H C3H 1_555 1_555
O2C C4C 1_555 1_555
C1C C4C 1_555 1_555
O2K Cd1B_2 1_555 1_555
C1K C3K 1_555 1_555

#END
