
#######################################################################
#
#                 Cambridge Crystallographic Data Centre
#                                CCDC 
#
#######################################################################
#
# If this CIF has been generated from an entry in the Cambridge 
# Structural Database, then it will include bibliographic, chemical, 
# crystal, experimental, refinement or atomic coordinate data resulting 
# from the CCDC's data processing and validation procedures.
#
#######################################################################

data_AKOBAF
_chemical_formula_moiety         '(C40 H42 Cd1 Cl1 N8 O11 1+)n'
_symmetry_cell_setting           monoclinic
_symmetry_space_group_name_H-M   'C 2/c'
_symmetry_Int_Tables_number      15
_space_group_name_Hall           '-C 2yc'
loop_
_symmetry_equiv_pos_site_id
_symmetry_equiv_pos_as_xyz
1 x,y,z
2 -x,y,1/2-z
3 1/2+x,1/2+y,z
4 1/2-x,1/2+y,1/2-z
5 -x,-y,-z
6 x,-y,1/2+z
7 1/2-x,1/2-y,-z
8 1/2+x,1/2-y,1/2+z
_cell_length_a                   23.404(4)
_cell_length_b                   11.0971(17)
_cell_length_c                   20.766(5)
_cell_angle_alpha                90
_cell_angle_beta                 120.476(3)
_cell_angle_gamma                90
_cell_volume                     4648.15
loop_
_atom_site_label
_atom_site_type_symbol
_atom_site_fract_x
_atom_site_fract_y
_atom_site_fract_z
_atom_site_U_iso_or_equiv
_atom_site_thermal_displace_type
Cd1 Cd 0.5000 0.71802(2) 1.2500 0.0334 Uani
O1 O 0.50613(14) 1.3424(3) 1.3316(2) 0.0858 Uani
N1 N 0.47268(12) 0.8835(2) 1.30229(14) 0.0362 Uani
N2 N 0.55943(12) 1.1676(2) 1.37505(15) 0.0376 Uani
H1 H 0.5976 1.1360 1.4044 0.0450 Uiso
C1 C 0.50573(14) 1.0894(3) 1.33938(15) 0.0299 Uani
C2 C 0.51898(14) 0.9673(3) 1.33707(15) 0.0324 Uani
H2 H 0.5631 0.9430 1.3615 0.0390 Uiso
C3 C 0.40875(15) 0.9189(3) 1.26822(17) 0.0399 Uani
H3 H 0.3756 0.8614 1.2440 0.0480 Uiso
C4 C 0.39091(14) 1.0360(3) 1.26802(17) 0.0421 Uani
H4 H 0.3463 1.0569 1.2440 0.0500 Uiso
C5 C 0.43911(14) 1.1242(3) 1.30357(18) 0.0389 Uani
H5 H 0.4274 1.2043 1.3035 0.0470 Uiso
O2 O 0.46661(14) 0.5765(3) 1.3057(2) 0.0704 Uani
C6 C 0.6211(2) 1.3567(4) 1.4004(4) 0.1147 Uani
H6 H 0.6170 1.4247 1.4272 0.1370 Uiso
H7 H 0.6235 1.3898 1.3586 0.1370 Uiso
C7 C 0.6873(2) 1.2991(3) 1.4518(3) 0.0587 Uani
C8 C 0.7224(3) 1.2445(5) 1.4248(3) 0.0675 Uani
H8 H 0.7043 1.2389 1.3734 0.0810 Uiso
C9 C 0.7157(2) 1.3030(4) 1.5286(3) 0.0658 Uani
H9 H 0.6926 1.3384 1.5491 0.0790 Uiso
C10 C 0.5570(2) 1.2878(3) 1.3678(3) 0.0538 Uani
N3 N 0.60377(13) 0.6928(2) 1.35706(16) 0.0381 Uani
N4 N 0.76173(12) 0.5625(3) 1.40165(14) 0.0431 Uani
H10 H 0.7535 0.5698 1.3565 0.0520 Uiso
C11 C 0.71314(13) 0.6077(3) 1.41575(16) 0.0331 Uani
C12 C 0.65544(14) 0.6482(3) 1.35372(16) 0.0365 Uani
H11 H 0.6524 0.6443 1.3073 0.0440 Uiso
C13 C 0.60948(17) 0.7003(3) 1.4245(2) 0.0391 Uani
H12 H 0.5745 0.7325 1.4281 0.0470 Uiso
C14 C 0.66534(15) 0.6621(3) 1.48871(17) 0.0385 Uani
H13 H 0.6675 0.6681 1.5346 0.0460 Uiso
C15 C 0.71838(14) 0.6145(3) 1.48482(16) 0.0363 Uani
H14 H 0.7564 0.5879 1.5276 0.0440 Uiso
O3 O 0.83991(10) 0.4988(2) 1.51704(12) 0.0444 Uani
C16 C 0.85746(16) 0.4591(4) 1.4142(2) 0.0545 Uani
H15 H 0.8492 0.3732 1.4065 0.0660 Uiso
H16 H 0.8403 0.4964 1.3656 0.0660 Uiso
C17 C 0.93122(14) 0.4800(3) 1.45949(17) 0.0406 Uani
C18 C 0.97471(16) 0.3841(3) 1.48197(19) 0.0438 Uani
H17 H 0.9584 0.3059 1.4698 0.0530 Uiso
C19 C 1.04292(15) 0.4035(3) 1.52268(19) 0.0444 Uani
H18 H 1.0716 0.3380 1.5382 0.0530 Uiso
C20 C 0.82030(13) 0.5085(3) 1.45037(17) 0.0373 Uani
O1F O 0.99387(14) 1.1576(3) 1.6684(2) 0.0858 Uani
N1F N 1.02732(12) 1.6165(2) 1.69771(14) 0.0362 Uani
N2F N 0.94057(12) 1.3324(2) 1.62495(15) 0.0376 Uani
H1F H 0.9024 1.3640 1.5956 0.0450 Uiso
C1F C 0.99427(14) 1.4106(3) 1.66062(15) 0.0299 Uani
C2F C 0.98102(14) 1.5327(3) 1.66293(15) 0.0324 Uani
H2F H 0.9369 1.5570 1.6385 0.0390 Uiso
C3F C 1.09125(15) 1.5811(3) 1.73178(17) 0.0399 Uani
H3F H 1.1244 1.6386 1.7560 0.0480 Uiso
C4F C 1.10909(14) 1.4640(3) 1.73198(17) 0.0421 Uani
H4F H 1.1537 1.4431 1.7560 0.0500 Uiso
C5F C 1.06089(14) 1.3758(3) 1.69643(18) 0.0389 Uani
H5F H 1.0726 1.2957 1.6965 0.0470 Uiso
C6F C 0.8789(2) 1.1433(4) 1.5996(4) 0.1147 Uani
H6F H 0.8830 1.0753 1.5728 0.1370 Uiso
H7F H 0.8765 1.1102 1.6414 0.1370 Uiso
C7F C 0.8127(2) 1.2009(3) 1.5482(3) 0.0587 Uani
C8F C 0.7776(3) 1.2555(5) 1.5752(3) 0.0675 Uani
H8F H 0.7957 1.2611 1.6266 0.0810 Uiso
C9F C 0.7843(2) 1.1970(4) 1.4714(3) 0.0658 Uani
H9F H 0.8074 1.1616 1.4509 0.0790 Uiso
C10F C 0.9430(2) 1.2122(3) 1.6322(3) 0.0538 Uani
N3D N 1.39623(13) 0.3072(2) 1.64294(16) 0.0381 Uani
N4D N 1.23827(12) 0.4375(3) 1.59835(14) 0.0431 Uani
H10D H 1.2465 0.4302 1.6435 0.0520 Uiso
C11D C 1.28686(13) 0.3923(3) 1.58425(16) 0.0331 Uani
C12D C 1.34456(14) 0.3518(3) 1.64628(16) 0.0365 Uani
H11D H 1.3476 0.3557 1.6927 0.0440 Uiso
C13D C 1.39052(17) 0.2997(3) 1.5755(2) 0.0391 Uani
H12D H 1.4255 0.2675 1.5719 0.0470 Uiso
C14D C 1.33466(15) 0.3379(3) 1.51129(17) 0.0385 Uani
H13D H 1.3325 0.3319 1.4654 0.0460 Uiso
C15D C 1.28162(14) 0.3855(3) 1.51518(16) 0.0363 Uani
H14D H 1.2436 0.4121 1.4724 0.0440 Uiso
O3D O 1.16009(10) 0.5012(2) 1.48296(12) 0.0444 Uani
C16D C 1.14254(16) 0.5409(4) 1.5858(2) 0.0545 Uani
H15D H 1.1508 0.6268 1.5935 0.0660 Uiso
H16D H 1.1597 0.5036 1.6344 0.0660 Uiso
C17D C 1.06878(14) 0.5200(3) 1.54051(17) 0.0406 Uani
C18D C 1.02529(16) 0.6159(3) 1.51803(19) 0.0438 Uani
H17D H 1.0416 0.6941 1.5302 0.0530 Uiso
C19D C 0.95708(15) 0.5965(3) 1.47732(19) 0.0444 Uani
H18D H 0.9284 0.6620 1.4618 0.0530 Uiso
C20D C 1.17970(13) 0.4915(3) 1.54963(17) 0.0373 Uani
O2A O 0.53339(14) 0.5765(3) 1.1943(2) 0.0704 Uani
Cd1D Cd 1.5000 0.28198(2) 1.7500 0.0334 Uani
Cd1F Cd 1.0000 1.78198(2) 1.7500 0.0334 Uani
N1A N 0.52732(12) 0.8835(2) 1.19771(14) 0.0362 Uani
N3A N 0.39623(13) 0.6928(2) 1.14294(16) 0.0381 Uani
Cl1 Cl 0.78559(6) 0.83573(15) 1.28981(6) 0.0794 Uani
O4 O 0.8441(3) 0.7927(8) 1.3485(3) 0.1894 Uani
O5 O 0.7546(4) 0.8974(10) 1.3191(4) 0.2196 Uani
O6 O 0.7933(4) 0.8879(10) 1.2402(3) 0.2430 Uani
O7 O 0.7408(12) 0.7434(12) 1.2573(12) 0.3667 Uani
O8 O 0.3838(6) 0.6249(9) 1.3591(6) 0.2425 Uani
loop_
_atom_site_aniso_label
_atom_site_aniso_U_11
_atom_site_aniso_U_22
_atom_site_aniso_U_33
_atom_site_aniso_U_23
_atom_site_aniso_U_13
_atom_site_aniso_U_12
Cd1 0.0212(2) 0.0249(2) 0.0400(2) 0.000 0.00522(16) 0.000
O1 0.0409(15) 0.0323(14) 0.141(3) 0.0186(17) 0.0144(17) 0.0002(12)
N1 0.0302(12) 0.0313(13) 0.0408(13) -0.0040(11) 0.0135(10) -0.0019(10)
N2 0.0229(11) 0.0296(13) 0.0437(14) -0.0009(11) 0.0047(10) 0.0005(10)
C1 0.0261(13) 0.0291(14) 0.0286(12) -0.0013(11) 0.0095(11) -0.0025(11)
C2 0.0266(13) 0.0306(14) 0.0318(14) 0.0007(11) 0.0087(11) 0.0015(11)
C3 0.0300(14) 0.0411(17) 0.0438(16) -0.0103(13) 0.0151(13) -0.0088(12)
C4 0.0242(14) 0.0484(19) 0.0474(18) -0.0037(15) 0.0136(13) 0.0014(13)
C5 0.0281(14) 0.0334(15) 0.0500(17) -0.0031(13) 0.0160(13) 0.0030(12)
O2 0.0497(15) 0.0464(16) 0.098(2) 0.0289(15) 0.0250(15) -0.0014(12)
C6 0.041(2) 0.037(2) 0.179(6) 0.007(3) -0.008(3) -0.0096(19)
C7 0.0339(18) 0.0359(18) 0.078(3) -0.0024(18) 0.0076(19) -0.0125(14)
C8 0.068(3) 0.060(2) 0.053(2) -0.004(2) 0.015(2) -0.027(2)
C9 0.059(3) 0.057(2) 0.090(3) -0.018(2) 0.044(3) -0.017(2)
C10 0.036(2) 0.0293(18) 0.072(3) 0.0033(15) 0.0098(19) -0.0064(12)
N3 0.0263(13) 0.0389(13) 0.0408(14) 0.0068(11) 0.0109(11) 0.0059(11)
N4 0.0244(12) 0.0707(19) 0.0300(12) 0.0093(12) 0.0108(10) 0.0090(12)
C11 0.0198(12) 0.0357(15) 0.0365(14) 0.0046(12) 0.0090(11) -0.0020(10)
C12 0.0264(13) 0.0452(17) 0.0319(14) 0.0069(12) 0.0104(11) 0.0039(12)
C13 0.0347(16) 0.0375(15) 0.0442(17) 0.0016(13) 0.0193(14) 0.0052(12)
C14 0.0352(15) 0.0411(17) 0.0362(15) -0.0010(13) 0.0158(12) -0.0011(13)
C15 0.0261(13) 0.0385(16) 0.0344(14) 0.0027(12) 0.0081(11) -0.0003(12)
O3 0.0253(10) 0.0591(15) 0.0379(11) 0.0050(10) 0.0080(9) 0.0092(10)
C16 0.0250(14) 0.084(3) 0.0451(18) -0.0167(18) 0.0109(13) 0.0011(16)
C17 0.0223(12) 0.059(2) 0.0357(14) -0.0044(14) 0.0112(11) 0.0036(13)
C18 0.0347(15) 0.0453(18) 0.0511(18) -0.0038(15) 0.0215(14) 0.0023(13)
C19 0.0313(15) 0.0478(18) 0.0504(17) 0.0051(15) 0.0181(14) 0.0114(13)
C20 0.0166(11) 0.0466(17) 0.0394(15) -0.0023(13) 0.0074(11) -0.0019(11)
O1F 0.0409 0.0323 0.141 0.0186 0.0144 0.0002
N1F 0.0302 0.0313 0.0408 -0.004 0.0135 -0.0019
N2F 0.0229 0.0296 0.0437 -0.0009 0.0047 0.0005
C1F 0.0261 0.0291 0.0286 -0.0013 0.0095 -0.0025
C2F 0.0266 0.0306 0.0318 0.0007 0.0087 0.0015
C3F 0.03 0.0411 0.0438 -0.0103 0.0151 -0.0088
C4F 0.0242 0.0484 0.0474 -0.0037 0.0136 0.0014
C5F 0.0281 0.0334 0.05 -0.0031 0.016 0.003
C6F 0.041 0.037 0.179 0.007 -0.008 -0.0096
C7F 0.0339 0.0359 0.078 -0.0024 0.0076 -0.0125
C8F 0.068 0.06 0.053 -0.004 0.015 -0.027
C9F 0.059 0.057 0.09 -0.018 0.044 -0.017
C10F 0.036 0.0293 0.072 0.0033 0.0098 -0.0064
N3D 0.0263 0.0389 0.0408 0.0068 0.0109 0.0059
N4D 0.0244 0.0707 0.03 0.0093 0.0108 0.009
C11D 0.0198 0.0357 0.0365 0.0046 0.009 -0.002
C12D 0.0264 0.0452 0.0319 0.0069 0.0104 0.0039
C13D 0.0347 0.0375 0.0442 0.0016 0.0193 0.0052
C14D 0.0352 0.0411 0.0362 -0.001 0.0158 -0.0011
C15D 0.0261 0.0385 0.0344 0.0027 0.0081 -0.0003
O3D 0.0253 0.0591 0.0379 0.005 0.008 0.0092
C16D 0.025 0.084 0.0451 -0.0167 0.0109 0.0011
C17D 0.0223 0.059 0.0357 -0.0044 0.0112 0.0036
C18D 0.0347 0.0453 0.0511 -0.0038 0.0215 0.0023
C19D 0.0313 0.0478 0.0504 0.0051 0.0181 0.0114
C20D 0.0166 0.0466 0.0394 -0.0023 0.0074 -0.0019
O2A 0.0497 0.0464 0.098 -0.0289 0.025 0.0014
Cd1D 0.0212 0.0249 0.04 0 0.00522 0
Cd1F 0.0212 0.0249 0.04 0 0.00522 0
N1A 0.0302 0.0313 0.0408 0.004 0.0135 0.0019
N3A 0.0263 0.0389 0.0408 -0.0068 0.0109 -0.0059
Cl1 0.0674(7) 0.1077(10) 0.0569(6) 0.0230(6) 0.0269(5) 0.0387(7)
O4 0.132(5) 0.342(11) 0.098(4) 0.090(5) 0.061(4) 0.159(6)
O5 0.137(5) 0.333(11) 0.169(6) -0.011(7) 0.063(5) 0.121(7)
O6 0.205(7) 0.357(12) 0.116(4) 0.118(7) 0.044(5) -0.069(8)
O7 0.46(3) 0.283(13) 0.37(2) -0.131(14) 0.22(2) -0.195(18)
O8 0.340(12) 0.174(8) 0.351(11) -0.105(8) 0.276(10) -0.110(8)
loop_
_geom_bond_atom_site_label_1
_geom_bond_atom_site_label_2
_geom_bond_site_symmetry_1
_geom_bond_site_symmetry_2
Cd1 N1 1_555 1_555
O1 C10 1_555 1_555
N1 C2 1_555 1_555
N2 H1 1_555 1_555
C1 N2 1_555 1_555
C2 C1 1_555 1_555
H2 C2 1_555 1_555
C3 N1 1_555 1_555
H3 C3 1_555 1_555
C4 C3 1_555 1_555
H4 C4 1_555 1_555
C5 C1 1_555 1_555
H5 C5 1_555 1_555
O2 Cd1 1_555 1_555
C6 H6 1_555 1_555
H7 C6 1_555 1_555
C7 C6 1_555 1_555
C8 C7 1_555 1_555
H8 C8 1_555 1_555
C9 C7 1_555 1_555
H9 C9 1_555 1_555
C10 N2 1_555 1_555
N3 Cd1 1_555 1_555
N4 H10 1_555 1_555
C11 N4 1_555 1_555
C12 N3 1_555 1_555
H11 C12 1_555 1_555
C13 N3 1_555 1_555
H12 C13 1_555 1_555
C14 C13 1_555 1_555
H13 C14 1_555 1_555
C15 C11 1_555 1_555
H14 C15 1_555 1_555
O3 C20 1_555 1_555
C16 H15 1_555 1_555
H16 C16 1_555 1_555
C17 C16 1_555 1_555
C18 C17 1_555 1_555
H17 C18 1_555 1_555
C19 C18 1_555 1_555
H18 C19 1_555 1_555
C20 N4 1_555 1_555
Cl1 O4 1_555 1_555
O5 Cl1 1_555 1_555
O6 Cl1 1_555 1_555
O7 Cl1 1_555 1_555
O1F C10F 1_555 1_555
N1F C2F 1_555 1_555
N2F H1F 1_555 1_555
C1F N2F 1_555 1_555
C2F C1F 1_555 1_555
H2F C2F 1_555 1_555
C3F N1F 1_555 1_555
H3F C3F 1_555 1_555
C4F C3F 1_555 1_555
H4F C4F 1_555 1_555
C5F C1F 1_555 1_555
H5F C5F 1_555 1_555
C6F H6F 1_555 1_555
H7F C6F 1_555 1_555
C7F C6F 1_555 1_555
C8F C9 1_555 1_555
H8F C8F 1_555 1_555
C9F C8 1_555 1_555
H9F C9F 1_555 1_555
C10F N2F 1_555 1_555
N3D C12D 1_555 1_555
N4D H10D 1_555 1_555
C11D N4D 1_555 1_555
C12D C11D 1_555 1_555
H11D C12D 1_555 1_555
C13D N3D 1_555 1_555
H12D C13D 1_555 1_555
C14D C13D 1_555 1_555
H13D C14D 1_555 1_555
C15D C11D 1_555 1_555
H14D C15D 1_555 1_555
O3D C20D 1_555 1_555
C16D H15D 1_555 1_555
H16D C16D 1_555 1_555
C17D C19 1_555 1_555
C18D C17D 1_555 1_555
H17D C18D 1_555 1_555
C19D C17 1_555 1_555
H18D C19D 1_555 1_555
C20D N4D 1_555 1_555
O2A Cd1 1_555 1_555
Cd1D N3D 1_555 1_555
Cd1F N1F 1_555 1_555
N1A Cd1 1_555 1_555
N3A Cd1 1_555 1_555
C4 C5 1_555 1_555
C6 C10 1_555 1_555
C11 C12 1_555 1_555
C14 C15 1_555 1_555
C16 C20 1_555 1_555
C4F C5F 1_555 1_555
C6F C10F 1_555 1_555
C7F C8F 1_555 1_555
C7F C9F 1_555 1_555
C14D C15D 1_555 1_555
C16D C17D 1_555 1_555
C16D C20D 1_555 1_555
C18D C19D 1_555 1_555

#END
