
#######################################################################
#
#                 Cambridge Crystallographic Data Centre
#                                CCDC 
#
#######################################################################
#
# If this CIF has been generated from an entry in the Cambridge 
# Structural Database, then it will include bibliographic, chemical, 
# crystal, experimental, refinement or atomic coordinate data resulting 
# from the CCDC's data processing and validation procedures.
#
#######################################################################

data_ELIYUU
_chemical_formula_moiety         '(C7 H21 Cl1 N3 O9 P3 Zn2)n'
_symmetry_cell_setting           monoclinic
_symmetry_space_group_name_H-M   'P 21/n'
_symmetry_Int_Tables_number      14
_space_group_name_Hall           '-P 2yn'
loop_
_symmetry_equiv_pos_site_id
_symmetry_equiv_pos_as_xyz
1 x,y,z
2 1/2-x,1/2+y,1/2-z
3 -x,-y,-z
4 1/2+x,1/2-y,1/2+z
_cell_length_a                   8.130(3)
_cell_length_b                   22.358(7)
_cell_length_c                   10.538(3)
_cell_angle_alpha                90
_cell_angle_beta                 112.357(3)
_cell_angle_gamma                90
_cell_volume                     1771.51
loop_
_atom_site_label
_atom_site_type_symbol
_atom_site_fract_x
_atom_site_fract_y
_atom_site_fract_z
Zn1 Zn -0.15777(7) 0.19393(3) 0.41381(6)
Zn2 Zn 0.28353(7) 0.03194(3) 0.33221(6)
Cl1 Cl 0.30358(16) -0.02465(5) 0.15615(12)
P1 P 0.00350(16) 0.14788(6) 0.20862(13)
P2 P -0.30313(16) 0.07216(6) 0.46679(13)
P3 P -0.51244(17) 0.22974(6) 0.19198(14)
O1 O 0.1003(6) 0.0899(2) 0.2496(5)
O2 O 0.0482(5) 0.1812(2) 0.0989(4)
O3 O 0.0295(5) 0.18758(19) 0.3327(4)
O4 O -0.2128(5) 0.01704(18) 0.5467(4)
O5 O -0.2091(5) 0.13018(17) 0.5314(4)
O6 O -0.5007(5) 0.07634(17) 0.4441(4)
O7 O -0.6899(6) 0.2458(2) 0.2045(5)
H1 H -0.7651 0.2206 0.1641
O8 O -0.3646(5) 0.24919(17) 0.3254(4)
O9 O -0.4984(5) 0.25526(18) 0.0655(4)
N1 N -0.3097(5) 0.12899(18) 0.2386(4)
C1 C -0.2354(6) 0.1341(2) 0.1311(5)
H8 H -0.2933 0.1667 0.0695
H9 H -0.2579 0.0975 0.0779
C2 C -0.2818(6) 0.0687(2) 0.3013(5)
H10 H -0.1644 0.0542 0.3132
H11 H -0.3691 0.0411 0.2414
C3 C -0.4994(7) 0.1484(2) 0.1865(5)
H12 H -0.5601 0.1346 0.0930
H13 H -0.5580 0.1309 0.2425
Zn1C Zn -0.65777(7) 0.30607(3) -0.08619(6)
Zn2B Zn -0.28353(7) -0.03194(3) 0.66779(6)
Zn2_2 Zn -0.71647(7) 0.03194(3) 0.33221(6)
O4B O 0.2128(5) -0.01704(18) 0.4533(4)
O6_2 O 0.4993(5) 0.07634(17) 0.4441(4)
O9C O 0.0016(5) 0.24474(18) 0.5655(4)
N2 N -0.0109(7) 0.1211(3) 0.8154(5)
H2 H -0.1009 0.1006 0.8226
H3 H -0.0455 0.1376 0.7325
H4 H 0.0228 0.1497 0.8790
N3 N 0.3891(7) 0.1877(2) 0.5269(6)
H5 H 0.4716 0.2145 0.5301
H6 H 0.2816 0.2032 0.4824
H7 H 0.4025 0.1551 0.4833
C4 C 0.1415(9) 0.0798(3) 0.8360(7)
H14 H 0.1026 0.0474 0.7700
H15 H 0.1808 0.0626 0.9272
C5 C 0.2958(8) 0.1123(3) 0.8190(6)
H16 H 0.4025 0.0886 0.8620
H17 H 0.3137 0.1500 0.8683
C6 C 0.2746(8) 0.1254(3) 0.6715(6)
H18 H 0.2915 0.0889 0.6283
H19 H 0.1553 0.1400 0.6201
C7 C 0.4088(9) 0.1716(3) 0.6687(6)
H20 H 0.3949 0.2074 0.7159
H21 H 0.5278 0.1562 0.7178
loop_
_geom_bond_atom_site_label_1
_geom_bond_atom_site_label_2
_geom_bond_site_symmetry_1
_geom_bond_site_symmetry_2
Zn1 O3 1_555 1_555
Zn2 Cl1 1_555 1_555
P1 O1 1_555 1_555
P2 O4 1_555 1_555
P3 O7 1_555 1_555
O1 Zn2 1_555 1_555
O2 P1 1_555 1_555
O3 P1 1_555 1_555
O4 Zn2B 1_555 1_555
O5 Zn1 1_555 1_555
O6 P2 1_555 1_555
O7 H1 1_555 1_555
O8 Zn1 1_555 1_555
O9 P3 1_555 1_555
N1 Zn1 1_555 1_555
N2 H2 1_555 1_555
H3 N2 1_555 1_555
H4 N2 1_555 1_555
N3 H5 1_555 1_555
H6 N3 1_555 1_555
H7 N3 1_555 1_555
C1 P1 1_555 1_555
H8 C1 1_555 1_555
H9 C1 1_555 1_555
C2 P2 1_555 1_555
H10 C2 1_555 1_555
H11 C2 1_555 1_555
C3 P3 1_555 1_555
H12 C3 1_555 1_555
H13 C3 1_555 1_555
C4 N2 1_555 1_555
H14 C4 1_555 1_555
H15 C4 1_555 1_555
C5 C4 1_555 1_555
H16 C5 1_555 1_555
H17 C5 1_555 1_555
C6 C5 1_555 1_555
H18 C6 1_555 1_555
H19 C6 1_555 1_555
C7 N3 1_555 1_555
H20 C7 1_555 1_555
H21 C7 1_555 1_555
Zn1C O9 1_555 1_555
Zn2_2 O6 1_555 1_555
O4B Zn2 1_555 1_555
O6_2 Zn2 1_555 1_555
O9C Zn1 1_555 1_555
P2 O5 1_555 1_555
P3 O8 1_555 1_555
N1 C1 1_555 1_555
N1 C2 1_555 1_555
N1 C3 1_555 1_555
C6 C7 1_555 1_555

#END
