
#######################################################################
#
#                 Cambridge Crystallographic Data Centre
#                                CCDC 
#
#######################################################################
#
# If this CIF has been generated from an entry in the Cambridge 
# Structural Database, then it will include bibliographic, chemical, 
# crystal, experimental, refinement or atomic coordinate data resulting 
# from the CCDC's data processing and validation procedures.
#
#######################################################################

data_VURMOL
_chemical_formula_moiety         '(C24 H15 N3 O13 Zn4)n'
_symmetry_cell_setting           cubic
_symmetry_space_group_name_H-M   'P a -3'
_symmetry_Int_Tables_number      205
_space_group_name_Hall           '-P 2ac 2ab 3'
loop_
_symmetry_equiv_pos_site_id
_symmetry_equiv_pos_as_xyz
1 x,y,z
2 1/2-x,-y,1/2+z
3 -x,1/2+y,1/2-z
4 1/2+x,1/2-y,-z
5 z,x,y
6 1/2+z,1/2-x,-y
7 1/2-z,-x,1/2+y
8 -z,1/2+x,1/2-y
9 y,z,x
10 -y,1/2+z,1/2-x
11 1/2+y,1/2-z,-x
12 1/2-y,-z,1/2+x
13 -x,-y,-z
14 1/2+x,y,1/2-z
15 x,1/2-y,1/2+z
16 1/2-x,1/2+y,z
17 -z,-x,-y
18 1/2-z,1/2+x,y
19 1/2+z,x,1/2-y
20 z,1/2-x,1/2+y
21 -y,-z,-x
22 y,1/2-z,1/2+x
23 1/2-y,1/2+z,x
24 1/2+y,z,1/2-x
_cell_length_a                   25.0872(10)
_cell_length_b                   25.0872(10)
_cell_length_c                   25.0872(10)
_cell_angle_alpha                90
_cell_angle_beta                 90
_cell_angle_gamma                90
_cell_volume                     15789.1
loop_
_atom_site_label
_atom_site_type_symbol
_atom_site_fract_x
_atom_site_fract_y
_atom_site_fract_z
_atom_site_U_iso_or_equiv
_atom_site_thermal_displace_type
Zn1 Zn 0.16206(5) 1.16206(5) 0.16206(5) 0.0629 Uani
Zn2 Zn 0.16450(5) 1.26431(6) 0.23622(6) 0.0756 Uani
O1 O 0.2072(3) 1.2072(3) 0.2072(3) 0.0570 Uani
O2 O -0.1865(5) 1.1691(4) 0.2319(5) 0.1573 Uani
O3 O -0.1678(8) 1.2247(5) 0.3011(6) 0.2953 Uani
O4 O 0.0881(4) 1.1674(3) 0.1797(3) 0.0867 Uani
O5 O 0.0933(6) 1.2448(4) 0.2239(5) 0.1720 Uani
N1 N -0.1094(3) 1.1201(10) 0.1911(8) 0.6100 Uani
H1 H -0.1438 1.1193 0.1981 0.7310 Uiso
H2 H -0.0949 1.0946 0.1718 0.7310 Uiso
C1 C -0.1002(4) 1.2024(5) 0.2412(5) 0.1277 Uani
C2 C -0.0779(3) 1.1618(3) 0.2106(5) 0.1963 Uani
C3 C -0.0233(5) 1.1635(3) 0.1998(4) 0.1177 Uani
H3 H -0.0079 1.1359 0.1790 0.1410 Uiso
C4 C 0.0093(5) 1.2043(4) 0.2185(4) 0.1393 Uani
C5 C -0.0134(5) 1.2448(5) 0.2490(6) 0.2330 Uani
H4 H 0.0080 1.2730 0.2622 0.2810 Uiso
C6 C -0.0677(6) 1.2434(4) 0.2600(6) 0.2733 Uani
H5 H -0.0831 1.2711 0.2809 0.3280 Uiso
C7 C -0.1566(5) 1.1984(5) 0.2598(3) 0.1667 Uani
C8 C 0.0674(3) 1.2050(4) 0.2063(3) 0.1330 Uani
Zn2R Zn -0.26378(6) 1.16450(5) 0.23569(6) 0.0756 Uani
Zn2V Zn 0.23569(6) 0.73622(6) 0.16450(5) 0.0756 Uani
Zn2D Zn 0.23622(6) 1.16450(5) 0.26431(6) 0.0756 Uani
Zn2H Zn 0.26431(6) 1.23622(6) 0.16450(5) 0.0756 Uani
Zn2W Zn -0.23569(6) 1.23622(6) 0.33550(5) 0.0756 Uani
Zn2O Zn 0.33550(5) 0.76431(6) 0.23622(6) 0.0756 Uani
Zn2N Zn 0.16450(5) 1.23569(6) -0.26378(6) 0.0756 Uani
Zn2S Zn 0.23622(6) 1.33550(5) -0.23569(6) 0.0756 Uani
O2D O 0.2319(5) 0.8135(5) 0.1691(4) 0.1573 Uani
O2H O 0.1691(4) 1.2319(5) -0.1865(5) 0.1573 Uani
O2U O 0.1691(4) 1.2681(5) 0.3135(5) 0.1573 Uani
O2M O 0.3135(5) 1.1691(4) 0.2681(5) 0.1573 Uani
O2Q O 0.2681(5) 1.3135(5) 0.1691(4) 0.1573 Uani
O3D O 0.3011(6) 0.8322(8) 0.2247(5) 0.2953 Uani
O3H O 0.2247(5) 1.3011(6) -0.1678(8) 0.2953 Uani
O3Q O 0.1989(6) 1.3322(8) 0.2247(5) 0.2953 Uani
O3U O 0.2247(5) 1.1989(6) 0.3322(8) 0.2953 Uani
O3M O 0.3322(8) 1.2247(5) 0.1989(6) 0.2953 Uani
O4D O 0.1797(3) 1.0881(4) 0.1674(3) 0.0867 Uani
O4H O 0.1674(3) 1.1797(3) 0.0881(4) 0.0867 Uani
O5D O 0.2239(5) 1.0933(6) 0.2448(4) 0.1720 Uani
O5H O 0.2448(4) 1.2239(5) 0.0933(6) 0.1720 Uani
N1D N 0.1911(8) 0.8906(3) 0.1201(10) 0.6100 Uani
N1H N 0.1201(10) 1.1911(8) -0.1094(3) 0.6100 Uani
H1D H 0.1981 0.8562 0.1193 0.7310 Uiso
H1H H 0.1193 1.1981 -0.1438 0.7310 Uiso
H2D H 0.1718 0.9051 0.0946 0.7310 Uiso
H2H H 0.0946 1.1718 -0.0949 0.7310 Uiso
C1D C 0.2412(5) 0.8998(4) 0.2024(5) 0.1277 Uani
C1H C 0.2024(5) 1.2412(5) -0.1002(4) 0.1277 Uani
C2D C 0.2106(5) 0.9221(3) 0.1618(3) 0.1963 Uani
C2H C 0.1618(3) 1.2106(5) -0.0779(3) 0.1963 Uani
C3D C 0.1998(4) 0.9767(5) 0.1635(3) 0.1177 Uani
C3H C 0.1635(3) 1.1998(4) -0.0233(5) 0.1177 Uani
H3D H 0.1790 0.9921 0.1359 0.1410 Uiso
H3H H 0.1359 1.1790 -0.0079 0.1410 Uiso
C4D C 0.2185(4) 1.0093(5) 0.2043(4) 0.1393 Uani
C4H C 0.2043(4) 1.2185(4) 0.0093(5) 0.1393 Uani
C5D C 0.2490(6) 0.9866(5) 0.2448(5) 0.2330 Uani
C5H C 0.2448(5) 1.2490(6) -0.0134(5) 0.2330 Uani
H4D H 0.2622 1.0080 0.2730 0.2810 Uiso
H4H H 0.2730 1.2622 0.0080 0.2810 Uiso
C6D C 0.2600(6) 0.9323(6) 0.2434(4) 0.2733 Uani
C6H C 0.2434(4) 1.2600(6) -0.0677(6) 0.2733 Uani
H5D H 0.2809 0.9169 0.2711 0.3280 Uiso
H5H H 0.2711 1.2809 -0.0831 0.3280 Uiso
C7D C 0.2598(3) 0.8434(5) 0.1984(5) 0.1667 Uani
C7H C 0.1984(5) 1.2598(3) -0.1566(5) 0.1667 Uani
C8D C 0.2063(3) 1.0674(3) 0.2050(4) 0.1330 Uani
C8H C 0.2050(4) 1.2063(3) 0.0674(3) 0.1330 Uani
loop_
_atom_site_aniso_label
_atom_site_aniso_U_11
_atom_site_aniso_U_22
_atom_site_aniso_U_33
_atom_site_aniso_U_23
_atom_site_aniso_U_13
_atom_site_aniso_U_12
Zn1 0.0629(8) 0.0629(8) 0.0629(8) -0.0003(6) -0.0003(6) -0.0003(6)
Zn2 0.0755(11) 0.0814(11) 0.0700(11) -0.0062(7) 0.0048(7) 0.0062(7)
O1 0.057(3) 0.057(3) 0.057(3) 0.009(3) 0.009(3) 0.009(3)
O2 0.093 0.169 0.21 0.013 0.084 0.047
O3 0.081 0.235 0.57 -0.28 0.056 -0.031
O4 0.053 0.09 0.117 0.003 -0.001 -0.013
O5 0.069 0.226 0.221 -0.156 0.01 -0.012
N1 0.3 0.72 0.81 -0.24 0.25 -0.03
C1 0.065 0.134 0.184 -0.075 0.028 -0.02
C2 0.18 0.069 0.34 0.055 -0.21 -0.066
C3 0.031 0.102 0.22 -0.009 0.01 0.006
C4 0.088 0.155 0.175 -0.025 0.052 0.039
C5 0.091 0.44 0.168 -0.17 0.022 -0.01
C6 0.23 0.34 0.25 -0.2 0.01 -0.02
C7 0.16 0.14 0.2 -0.025 -0.014 -0.031
C8 0.082 0.25 0.067 -0.001 -0.017 0.017
Zn2R 0.07 0.0755 0.0814 -0.0062 0.0062 0.0048
Zn2V 0.0814 0.07 0.0755 0.0048 -0.0062 0.0062
Zn2D 0.07 0.0755 0.0814 0.0062 -0.0062 0.0048
Zn2H 0.0814 0.07 0.0755 0.0048 0.0062 -0.0062
Zn2W 0.0814 0.07 0.0755 -0.0048 -0.0062 -0.0062
Zn2O 0.0755 0.0814 0.07 -0.0062 -0.0048 -0.0062
Zn2N 0.0755 0.0814 0.07 0.0062 0.0048 -0.0062
Zn2S 0.07 0.0755 0.0814 -0.0062 -0.0062 -0.0048
O2D 0.210(14) 0.093(8) 0.169(12) 0.047(8) 0.013(9) 0.084(9)
O2H 0.169 0.21 0.093 0.084 0.047 0.013
O2U 0.169 0.21 0.093 -0.084 0.047 -0.013
O2M 0.093 0.169 0.21 -0.013 -0.084 0.047
O2Q 0.21 0.093 0.169 0.047 -0.013 -0.084
O3D 0.57(4) 0.081(8) 0.235(19) -0.031(9) -0.28(2) 0.056(14)
O3H 0.235 0.57 0.081 0.056 -0.031 -0.28
O3Q 0.57 0.081 0.235 -0.031 0.28 -0.056
O3U 0.235 0.57 0.081 -0.056 -0.031 0.28
O3M 0.081 0.235 0.57 0.28 -0.056 -0.031
O4D 0.117(7) 0.053(5) 0.090(6) -0.013(4) 0.003(5) -0.001(5)
O4H 0.09 0.117 0.053 -0.001 -0.013 0.003
O5D 0.221(15) 0.069(7) 0.226(13) -0.012(8) -0.156(11) 0.010(7)
O5H 0.226 0.221 0.069 0.01 -0.012 -0.156
N1D 0.81(8) 0.30(4) 0.72(7) -0.03(5) -0.24(7) 0.25(5)
N1H 0.72 0.81 0.3 0.25 -0.03 -0.24
C1D 0.184(17) 0.065(10) 0.134(14) -0.020(9) -0.075(13) 0.028(10)
C1H 0.134 0.184 0.065 0.028 -0.02 -0.075
C2D 0.34(3) 0.18(2) 0.069(10) -0.066(12) 0.055(14) -0.21(2)
C2H 0.069 0.34 0.18 -0.21 -0.066 0.055
C3D 0.220(18) 0.031(7) 0.102(11) 0.006(7) -0.009(11) 0.010(9)
C3H 0.102 0.22 0.031 0.01 0.006 -0.009
C4D 0.175(17) 0.088(12) 0.155(16) 0.039(11) -0.025(13) 0.052(11)
C4H 0.155 0.175 0.088 0.052 0.039 -0.025
C5D 0.168(18) 0.091(13) 0.44(4) -0.01(2) -0.17(2) 0.022(13)
C5H 0.44 0.168 0.091 0.022 -0.01 -0.17
C6D 0.25(3) 0.23(3) 0.34(4) -0.02(3) -0.20(3) 0.01(3)
C6H 0.34 0.25 0.23 0.01 -0.02 -0.2
C7D 0.20(2) 0.16(2) 0.14(2) -0.031(16) -0.025(17) -0.014(18)
C7H 0.14 0.2 0.16 -0.014 -0.031 -0.025
C8D 0.067(10) 0.082(12) 0.25(2) 0.017(14) -0.001(13) -0.017(8)
C8H 0.25 0.067 0.082 -0.017 0.017 -0.001
loop_
_geom_bond_atom_site_label_1
_geom_bond_atom_site_label_2
_geom_bond_site_symmetry_1
_geom_bond_site_symmetry_2
Zn1 O1 1_555 1_555
Zn2 O1 1_555 1_555
O1 Zn2D 1_555 1_555
O2 C7 1_555 1_555
O3 C7 1_555 1_555
O4 Zn1 1_555 1_555
O5 Zn2 1_555 1_555
N1 H1 1_555 1_555
H2 N1 1_555 1_555
C1 C2 1_555 1_555
C2 N1 1_555 1_555
C3 C2 1_555 1_555
H3 C3 1_555 1_555
C4 C3 1_555 1_555
C5 C4 1_555 1_555
H4 C5 1_555 1_555
C6 C1 1_555 1_555
H5 C6 1_555 1_555
C7 C1 1_555 1_555
C8 O4 1_555 1_555
Zn2R O2 1_555 1_555
Zn2V O2D 1_555 1_555
Zn2D O2M 1_555 1_555
Zn2H O1 1_555 1_555
Zn2W O3 1_555 1_555
Zn2O O3D 1_555 1_555
Zn2N O2H 1_555 1_555
Zn2S O3H 1_555 1_555
O2D C7D 1_555 1_555
O2H C7H 1_555 1_555
O2U Zn2 1_555 1_555
O2Q Zn2H 1_555 1_555
O3D C7D 1_555 1_555
O3H C7H 1_555 1_555
O3Q Zn2 1_555 1_555
O3U Zn2D 1_555 1_555
O3M Zn2H 1_555 1_555
O4D Zn1 1_555 1_555
O4H Zn1 1_555 1_555
O5D Zn2D 1_555 1_555
O5H Zn2H 1_555 1_555
N1D H1D 1_555 1_555
N1H H1H 1_555 1_555
H2D N1D 1_555 1_555
H2H N1H 1_555 1_555
C1D C2D 1_555 1_555
C1H C2H 1_555 1_555
C2D N1D 1_555 1_555
C2H N1H 1_555 1_555
C3D C2D 1_555 1_555
C3H C2H 1_555 1_555
H3D C3D 1_555 1_555
H3H C3H 1_555 1_555
C4D C3D 1_555 1_555
C4H C3H 1_555 1_555
C5D C4D 1_555 1_555
C5H C4H 1_555 1_555
H4D C5D 1_555 1_555
H4H C5H 1_555 1_555
C6D C1D 1_555 1_555
C6H C1H 1_555 1_555
H5D C6D 1_555 1_555
H5H C6H 1_555 1_555
C7D C1D 1_555 1_555
C7H C1H 1_555 1_555
C8D O4D 1_555 1_555
C8H O4H 1_555 1_555
O5 C8 1_555 1_555
C4 C8 1_555 1_555
C5 C6 1_555 1_555
O5D C8D 1_555 1_555
O5H C8H 1_555 1_555
C4D C8D 1_555 1_555
C4H C8H 1_555 1_555
C5D C6D 1_555 1_555
C5H C6H 1_555 1_555

#END
