
#######################################################################
#
#                 Cambridge Crystallographic Data Centre
#                                CCDC 
#
#######################################################################
#
# If this CIF has been generated from an entry in the Cambridge 
# Structural Database, then it will include bibliographic, chemical, 
# crystal, experimental, refinement or atomic coordinate data resulting 
# from the CCDC's data processing and validation procedures.
#
#######################################################################

data_HUHWEO
_chemical_formula_moiety         'C26 H53 F1 N1 O28 Y5 10+'
_symmetry_cell_setting           hexagonal
_symmetry_space_group_name_H-M   'P 63/m c m'
_symmetry_Int_Tables_number      193
_space_group_name_Hall           '-P 6c 2'
loop_
_symmetry_equiv_pos_site_id
_symmetry_equiv_pos_as_xyz
1 x,y,z
2 x-y,x,1/2+z
3 -y,x-y,z
4 -x,-y,1/2+z
5 -x+y,-x,z
6 y,-x+y,1/2+z
7 x-y,-y,1/2-z
8 -x,-x+y,1/2-z
9 y,x,1/2-z
10 -y,-x,-z
11 -x+y,y,-z
12 x,x-y,-z
13 -x,-y,-z
14 -x+y,-x,1/2-z
15 y,-x+y,-z
16 x,y,1/2-z
17 x-y,x,-z
18 -y,x-y,1/2-z
19 -x+y,y,1/2+z
20 x,x-y,1/2+z
21 -y,-x,1/2+z
22 y,x,z
23 x-y,-y,z
24 -x,-x+y,z
_cell_length_a                   25.9989(15)
_cell_length_b                   25.9989(15)
_cell_length_c                   42.656(3)
_cell_angle_alpha                90
_cell_angle_beta                 90
_cell_angle_gamma                120
_cell_volume                     24970.1
loop_
_atom_site_label
_atom_site_type_symbol
_atom_site_fract_x
_atom_site_fract_y
_atom_site_fract_z
Y2 Y 0.43904(2) 0.56096(2) 0.5000
Y3 Y 0.55487(3) 0.55487(3) 0.55526(2)
O1 O 0.6444(3) 0.6444(3) 0.5507(2)
O2 O 0.6212(11) 0.6212(11) 0.6010(5)
C1 C 0.6557(13) 0.6557(13) 0.5793(5)
H1 H 0.6911 0.6911 0.5849
O3 O 0.53883(15) 0.59408(15) 0.51002(8)
O4 O 0.48829(15) 0.54355(15) 0.45886(8)
O5 O 0.4834(2) 0.83298(19) 0.52746(10)
O6 O 0.46239(19) 0.62828(18) 0.54001(10)
O7 O 0.5261(2) 0.62100(19) 0.57254(11)
O8 O 0.5708(2) 0.9067(2) 0.54524(12)
C2 C 0.5288(3) 0.7126(3) 0.56932(15)
C3 C 0.5418(3) 0.8094(3) 0.56095(16)
C4 C 0.5695(3) 0.7347(3) 0.59370(17)
H2 H 0.5789 0.7087 0.6047
C5 C 0.5141(3) 0.7504(3) 0.55324(14)
H3 H 0.4850 0.7353 0.5371
C6 C 0.5833(3) 0.8319(3) 0.58539(18)
H4 H 0.6023 0.8729 0.5905
C7 C 0.5037(3) 0.6490(3) 0.55984(14)
C8 C 0.5310(3) 0.8533(3) 0.54304(16)
C9 C 0.5971(3) 0.7945(3) 0.60231(18)
C10 C 0.6427(4) 0.8185(3) 0.62716(19)
C11 C 0.7313(4) 0.8667(4) 0.6726(2)
C12 C 0.7802(5) 0.8934(5) 0.6966(3)
O9 O 0.8236(17) 0.9429(14) 0.6899(13)
O10 O 0.785(3) 0.8542(19) 0.7120(13)
C13 C 0.6832(12) 0.8081(10) 0.6757(9)
H5 H 0.6811 0.7849 0.6934
C14 C 0.7334(16) 0.8996(15) 0.6465(6)
H6 H 0.7655 0.9390 0.6442
C15 C 0.6391(18) 0.7842(17) 0.6530(6)
H7 H 0.6068 0.7447 0.6550
C16 C 0.6894(11) 0.8761(10) 0.6237(9)
H8 H 0.6914 0.8991 0.6059
O11 O 0.5039(6) 0.5039(6) 0.6010(3)
C17 C 0.4555(7) 0.4555(7) 0.6064(5)
C18 C 0.43966(16) 0.43966(16) 0.6416(6)
C19 C 0.3886(3) 0.3886(3) 0.6513(7)
C20 C 0.3769(12) 0.3769(12) 0.6831(7)
H9 H 0.3420 0.3420 0.6897
C21 C 0.4162(18) 0.4162(18) 0.7051(6)
H10 H 0.4082 0.4082 0.7269
C22 C 0.4673(15) 0.4672(15) 0.6954(7)
H11 H 0.4941 0.4941 0.7105
C23 C 0.4790(6) 0.4790(6) 0.6636(8)
H12 H 0.5139 0.5138 0.6570
O12 O 0.4183(10) 0.4183(10) 0.5875(9)
F1 F 0.3492(14) 0.3492(14) 0.6315(8)
O13 O 0.8815(3) 0.9371(3) 0.7500
Y4 Y 0.8467(3) 0.8467(3) 0.7500
O14 O 0.749(2) 0.749(2) 0.7500
O15 O 1.0000 1.0000 0.7188(2)
Y5 Y 0.9070(6) 1.0000 0.7080(2)
O16 O 0.674(2) 0.674(2) 0.4319(11)
O17 O 0.9411(15) 0.9684(26) 0.6500(8)
O18 O 0.9259(14) 0.9259(24) 0.6570(8)
C24 C 0.5979(11) 0.3614(14) 0.6011(6)
H13 H 0.5931 0.3216 0.6022
H14 H 0.6372 0.3907 0.6090
H15 H 0.5939 0.3706 0.5792
O19 O 0.4801(9) 0.3857(11) 0.6215(5)
C25 C 0.5267(9) 0.3921(9) 0.6099(5)
H16 H 0.5442 0.4191 0.5929
N1 N 0.5529(7) 0.3632(8) 0.6199(4)
C26 C 0.5301(16) 0.3239(15) 0.6463(6)
H17 H 0.5632 0.3266 0.6586
H18 H 0.5050 0.2830 0.6390
H19 H 0.5065 0.3353 0.6595
O20 O 0.7475(8) 1.0000 0.7500
O21 O 0.635(2) 0.905(2) 0.7500
O22 O 0.632(4) 0.850(4) 0.7500
O23 O 1.0000 1.0000 0.5000
O24 O 0.778(7) 1.0000 0.592(4)
O25 O 0.745(5) 1.0000 0.598(3)
O26 O 0.805(5) 1.0000 0.611(3)
O27 O 0.852(6) 1.0000 0.623(3)
O28 O 0.619(4) 0.521(4) 0.658(2)
Y1 Y 0.58886(3) 0.58886(3) 0.46682(2)
loop_
_geom_bond_atom_site_label_1
_geom_bond_atom_site_label_2
_geom_bond_site_symmetry_1
_geom_bond_site_symmetry_2
O1 C1 1_555 1_555
O2 C1 1_555 1_555
C1 H1 1_555 1_555
O5 C8 1_555 1_555
O6 C7 1_555 1_555
O7 C7 1_555 1_555
O8 C8 1_555 1_555
C2 C4 1_555 1_555
C3 C5 1_555 1_555
C4 H2 1_555 1_555
C5 C2 1_555 1_555
H3 C5 1_555 1_555
C6 C3 1_555 1_555
H4 C6 1_555 1_555
C7 C2 1_555 1_555
C8 C3 1_555 1_555
C9 C4 1_555 1_555
C10 C9 1_555 1_555
C11 C12 1_555 1_555
C12 O9 1_555 1_555
O10 C12 1_555 1_555
C13 C11 1_555 1_555
H5 C13 1_555 1_555
C14 C11 1_555 1_555
H6 C14 1_555 1_555
C15 C10 1_555 1_555
H7 C15 1_555 1_555
C16 C10 1_555 1_555
H8 C16 1_555 1_555
O11 C17 1_555 1_555
C17 C18 1_555 1_555
C18 C19 1_555 1_555
C19 C20 1_555 1_555
C20 H9 1_555 1_555
C21 C20 1_555 1_555
H10 C21 1_555 1_555
C22 C21 1_555 1_555
H11 C22 1_555 1_555
C23 C18 1_555 1_555
H12 C23 1_555 1_555
O12 C17 1_555 1_555
F1 C19 1_555 1_555
C24 H13 1_555 1_555
H14 C24 1_555 1_555
H15 C24 1_555 1_555
O19 C25 1_555 1_555
C25 H16 1_555 1_555
N1 C24 1_555 1_555
C26 N1 1_555 1_555
H17 C26 1_555 1_555
H18 C26 1_555 1_555
H19 C26 1_555 1_555
C6 C9 1_555 1_555
C13 C15 1_555 1_555
C14 C16 1_555 1_555
C22 C23 1_555 1_555
C25 N1 1_555 1_555

#END
