
#######################################################################
#
#                 Cambridge Crystallographic Data Centre
#                                CCDC 
#
#######################################################################
#
# If this CIF has been generated from an entry in the Cambridge 
# Structural Database, then it will include bibliographic, chemical, 
# crystal, experimental, refinement or atomic coordinate data resulting 
# from the CCDC's data processing and validation procedures.
#
#######################################################################

data_HUHWAK
_chemical_formula_moiety         'C26 H59 F1 O30 Tb3 8+'
_symmetry_cell_setting           hexagonal
_symmetry_space_group_name_H-M   'P 6/m m m'
_symmetry_Int_Tables_number      191
_space_group_name_Hall           '-P 6 2'
loop_
_symmetry_equiv_pos_site_id
_symmetry_equiv_pos_as_xyz
1 x,y,z
2 x-y,x,z
3 -y,x-y,z
4 -x,-y,z
5 -x+y,-x,z
6 y,-x+y,z
7 x-y,-y,-z
8 -x,-x+y,-z
9 y,x,-z
10 -y,-x,-z
11 -x+y,y,-z
12 x,x-y,-z
13 -x,-y,-z
14 -x+y,-x,-z
15 y,-x+y,-z
16 x,y,-z
17 x-y,x,-z
18 -y,x-y,-z
19 -x+y,y,z
20 x,x-y,z
21 -y,-x,z
22 y,x,z
23 x-y,-y,z
24 -x,-x+y,z
_cell_length_a                   26.445(2)
_cell_length_b                   26.445(2)
_cell_length_c                   21.080(2)
_cell_angle_alpha                90
_cell_angle_beta                 90
_cell_angle_gamma                120
_cell_volume                     12767
loop_
_atom_site_label
_atom_site_type_symbol
_atom_site_fract_x
_atom_site_fract_y
_atom_site_fract_z
Tb2 Tb 0.41599(5) 0.41599(5) 0.92041(8)
O1 O 0.47287(11) 0.52713(11) 0.9157(3)
O2 O 0.4032(3) 0.4578(2) 1.0000
O3 O 0.5281(2) 0.3605(2) 0.9316(3)
O4 O 0.4418(4) 0.3466(4) 0.8960(5)
C1 C 0.4887(4) 0.24437(18) 0.8912(4)
H1 H 0.5171(16) 0.2586(8) 0.9207(18)
C2 C 0.4044(5) 0.2022(2) 0.7949(5)
C3 C 0.3576(5) 0.1788(3) 0.7461(5)
C4 C 0.4765(6) 0.3290(6) 0.9069(6)
C5 C 0.4195(6) 0.2542(5) 0.8260(7)
H2 H 0.4007 0.2755 0.8149
C6 C 0.4619(6) 0.2752(6) 0.8729(7)
C7 C 0.2184(6) 0.1092(3) 0.6110(7)
C8 C 0.2676(5) 0.1338(3) 0.6566(6)
O5 O 0.2178(6) 0.0694(5) 0.5723(7)
C9 C 0.3566(8) 0.2163(7) 0.6983(7)
H3 H 0.3868 0.2559 0.6965
C10 C 0.3117(8) 0.1949(7) 0.6543(8)
H4 H 0.3098 0.2200 0.6233
C11 C 0.2689(8) 0.1005(7) 0.7009(11)
H5 H 0.2384 0.0610 0.7037
C12 C 0.3146(10) 0.1221(7) 0.7447(10)
H6 H 0.3156 0.0959 0.7748
O3S O 0.5281(2) 0.1676(3) 0.9316(3)
O4S O 0.4418(4) 0.0952(6) 0.8960(5)
C4S C 0.4765(6) 0.1475(8) 0.9069(6)
C5S C 0.4195(6) 0.1653(8) 0.8260(7)
H2S H 0.4007 0.1252 0.8149
C6S C 0.4619(6) 0.1867(8) 0.8729(7)
O5S O 0.2178(6) 0.1484(8) 0.5723(7)
C9S C 0.3566(8) 0.1403(11) 0.6983(7)
H3S H 0.3868 0.1309 0.6965
C10S C 0.3117(8) 0.1168(11) 0.6543(8)
H4S H 0.3098 0.0898 0.6233
C11S C 0.2689(8) 0.1684(11) 0.7009(11)
H5S H 0.2384 0.1774 0.7037
C12S C 0.3146(10) 0.1925(12) 0.7447(10)
H6S H 0.3156 0.2197 0.7748
O6 O 0.4342(7) 0.4342(7) 0.8067(8)
C13 C 0.37965(13) 0.37965(13) 0.7162(8)
C14 C 0.32989(19) 0.3299(2) 0.6950(10)
H7 H 0.3029 0.3029 0.7247
C15 C 0.3197(7) 0.3197(7) 0.6303(11)
H8 H 0.2856 0.2856 0.6158
C16 C 0.3592(11) 0.3592(11) 0.5868(9)
H9 H 0.3522 0.3522 0.5426
C17 C 0.4090(9) 0.4090(9) 0.6081(9)
H10 H 0.4360 0.4360 0.5784
C18 C 0.4192(4) 0.4192(4) 0.6728(9)
C19 C 0.3896(6) 0.3896(6) 0.7858(9)
O7 O 0.3512(8) 0.3512(8) 0.8233(10)
F1 F 0.4666(7) 0.4666(7) 0.6918(17)
O8 O 0.3329(5) 0.3329(5) 0.9640(10)
O9 O 0.6198(18) 0.3802(18) 1.0000
Tb3 Tb 0.15314(6) 0.0000 0.5000
O10 O 0.2474(11) 0.0000 0.5000
O11 O 0.1194(4) 0.0657(7) 0.5000
O12 O 0.4768(8) 0.4768(8) 0.7907(8)
O13 O -0.0000 0.0000 0.5648(6)
O14 O 0.0627(13) 0.0627(13) 0.6969(15)
O15 O 0.337(4) 0.1684(19) 1.0000
O16 O 0.361(2) 0.223(2) 1.0000
O17 O 0.6667 0.3333 0.858(10)
O18 O 0.6326(13) 0.3674(13) 0.902(3)
O19 O 0.5733(18) 0.4267(18) 0.767(4)
O20 O 0.635(2) 0.365(2) 0.843(5)
O21 O 0.575(4) 0.373(4) 0.744(4)
O22 O 0.6208(16) 0.3792(16) 0.790(3)
O23 O 0.6667 0.3333 0.917(8)
O24 O 0.365(4) 0.266(4) 0.5000
O25 O 0.344(6) 0.198(5) 0.5000
O26 O 0.390(8) 0.195(4) 0.5000
O27 O 0.6667 0.3333 0.580(16)
Tb1 Tb 0.55950(2) 0.44050(2) 1.0000
loop_
_geom_bond_atom_site_label_1
_geom_bond_atom_site_label_2
_geom_bond_site_symmetry_1
_geom_bond_site_symmetry_2
O3 C4 1_555 1_555
O4 C4 1_555 1_555
C1 H1 1_555 1_555
C2 C3 1_555 1_555
C3 C9 1_555 1_555
C4 C6 1_555 1_555
C5 C2 1_555 1_555
H2 C5 1_555 1_555
C6 C1 1_555 1_555
C7 C8 1_555 1_555
C8 C10 1_555 1_555
O5 C7 1_555 1_555
C9 H3 1_555 1_555
C10 C9 1_555 1_555
H4 C10 1_555 1_555
C11 C8 1_555 1_555
H5 C11 1_555 1_555
C12 C3 1_555 1_555
H6 C12 1_555 1_555
O6 C19 1_555 1_555
C13 C14 1_555 1_555
C14 H7 1_555 1_555
C15 C14 1_555 1_555
H8 C15 1_555 1_555
C16 C15 1_555 1_555
H9 C16 1_555 1_555
C17 C16 1_555 1_555
H10 C17 1_555 1_555
C18 C13 1_555 1_555
C19 C13 1_555 1_555
O7 C19 1_555 1_555
F1 C18 1_555 1_555
O3S C4S 1_555 1_555
O4S C4S 1_555 1_555
C4S C6S 1_555 1_555
C5S C2 1_555 1_555
H2S C5S 1_555 1_555
C6S C1 1_555 1_555
O5S C7 1_555 1_555
C9S C3 1_555 1_555
H3S C9S 1_555 1_555
C10S C8 1_555 1_555
H4S C10S 1_555 1_555
C11S C8 1_555 1_555
H5S C11S 1_555 1_555
C12S C3 1_555 1_555
H6S C12S 1_555 1_555
C5 C6 1_555 1_555
C9 C12S 1_555 1_555
C10 C11S 1_555 1_555
C11 C12 1_555 1_555
C11 C10S 1_555 1_555
C11 C11S 1_555 1_555
C12 C9S 1_555 1_555
C17 C18 1_555 1_555
C5S C6S 1_555 1_555
C9S C10S 1_555 1_555
C11S C12S 1_555 1_555

#END
