
#######################################################################
#
#                 Cambridge Crystallographic Data Centre
#                                CCDC 
#
#######################################################################
#
# If this CIF has been generated from an entry in the Cambridge 
# Structural Database, then it will include bibliographic, chemical, 
# crystal, experimental, refinement or atomic coordinate data resulting 
# from the CCDC's data processing and validation procedures.
#
#######################################################################

data_HUJCUM
_chemical_formula_moiety         'C45 H84 F2 N4 O37 Y4 10+'
_symmetry_cell_setting           hexagonal
_symmetry_space_group_name_H-M   'P 6/m m m'
_symmetry_Int_Tables_number      191
_space_group_name_Hall           '-P 6 2'
loop_
_symmetry_equiv_pos_site_id
_symmetry_equiv_pos_as_xyz
1 x,y,z
2 -y,x-y,z
3 -x+y,-x,z
4 -x,-y,z
5 y,-x+y,z
6 x-y,x,z
7 y,x,-z
8 x-y,-y,-z
9 -x,-x+y,-z
10 -y,-x,-z
11 -x+y,y,-z
12 x,x-y,-z
13 -x,-y,-z
14 y,-x+y,-z
15 x-y,x,-z
16 x,y,-z
17 -y,x-y,-z
18 -x+y,-x,-z
19 -y,-x,z
20 -x+y,y,z
21 x,x-y,z
22 y,x,z
23 x-y,-y,z
24 -x,-x+y,z
_cell_length_a                   26.1763(9)
_cell_length_b                   26.1763(9)
_cell_length_c                   26.3956(11)
_cell_angle_alpha                90
_cell_angle_beta                 90
_cell_angle_gamma                120
_cell_volume                     15663.1
loop_
_atom_site_label
_atom_site_type_symbol
_atom_site_fract_x
_atom_site_fract_y
_atom_site_fract_z
Y2 Y 0.42620(3) 0.42620(3) 0.57359(3)
O1 O 0.4574(3) 0.4574(3) 0.6615(4)
C1 C 0.5000 0.5000 0.6831(10)
C2 C 0.5000 0.5000 0.7403(9)
H1 H 0.5000 0.5000 0.8817
C3 C 0.5000 0.5000 0.8457(11)
C4 C 0.4543(4) 0.4543(4) 0.8186(12)
H2 H 0.4228 0.4228 0.8363
C5 C 0.4537(4) 0.4537(4) 0.7654(11)
F1 F 0.4070(10) 0.4070(10) 0.7432(15)
O1C O 0.5426(3) 0.5426(3) 0.6615(4)
C4C C 0.5457(4) 0.5457(4) 0.8186(12)
H2C H 0.5772 0.5772 0.8363
C5C C 0.5463(4) 0.5463(4) 0.7654(11)
F1C F 0.5930(10) 0.5930(10) 0.7432(15)
O2 O 0.3697(8) 0.3697(8) 0.6561(8)
C6 C 0.4117(7) 0.4117(7) 0.6789(14)
O3 O 0.4341(10) 0.4341(10) 0.6538(12)
O2C O 0.6303(8) 0.6303(8) 0.6561(8)
C6C C 0.5883(7) 0.5883(7) 0.6789(14)
O3C O 0.5659(10) 0.5659(10) 0.6538(12)
O4 O 0.45787(16) 0.40335(17) 0.5000
O5 O 0.52726(8) 0.47274(8) 0.56743(14)
O6 O 0.63906(14) 0.47360(15) 0.55426(13)
O7 O 0.6424(2) 0.5488(2) 0.5979(2)
C7 C 0.7188(2) 0.5289(2) 0.61036(18)
C8 C 0.75527(14) 0.5105(3) 0.5892(2)
H3 H 0.7427 0.4855 0.5604
C9 C 0.6622(2) 0.5160(3) 0.5855(2)
O8 O 0.8060(2) 0.6121(5) 0.7196(3)
C10 C 0.7352(3) 0.5626(3) 0.6539(2)
H4 H 0.7098 0.5748 0.6685
C11 C 0.7892(3) 0.5785(5) 0.6762(4)
O9 O 0.9341(5) 0.7839(4) 0.9441(3)
O10 O 0.9395(7) 0.8202(5) 0.9061(4)
C12 C 0.9017(10) 0.7860(7) 0.9094(5)
C13 C 0.8693(6) 0.6695(7) 0.7839(4)
C14 C 0.8423(6) 0.7036(7) 0.7858(4)
H5 H 0.8171 0.7016 0.7591
C15 C 0.8521(6) 0.7406(6) 0.8269(4)
H6 H 0.8337 0.7639 0.8283
C16 C 0.8890(5) 0.7435(5) 0.8661(3)
C17 C 0.9160(6) 0.7094(6) 0.8641(4)
H7 H 0.9412 0.7114 0.8909
C18 C 0.9062(6) 0.6724(7) 0.8231(5)
H8 H 0.9246 0.6490 0.8217
C19 C 0.8632(8) 0.6304(11) 0.7402(8)
H9 H 0.8943 0.6523 0.7147
H10 H 0.8660 0.5960 0.7518
O6S O 0.83454(21) 0.47360(15) 0.55426(13)
O7S O 0.9064(3) 0.5488(2) 0.5979(2)
C7S C 0.8101(3) 0.5289(2) 0.61036(18)
C9S C 0.8538(4) 0.5160(3) 0.5855(2)
C10S C 0.8274(4) 0.5626(3) 0.6539(2)
H4S H 0.8650 0.5748 0.6685
O9S O 0.8498(6) 0.7839(4) 0.9441(3)
O10S O 0.8807(9) 0.8202(5) 0.9061(4)
C12S C 0.8843(12) 0.7860(7) 0.9094(5)
C13S C 0.8002(9) 0.6695(7) 0.7839(4)
C14S C 0.8613(9) 0.7036(7) 0.7858(4)
H5S H 0.8845 0.7016 0.7591
C15S C 0.8885(8) 0.7406(6) 0.8269(4)
H6S H 0.9302 0.7639 0.8283
C16S C 0.8545(7) 0.7435(5) 0.8661(3)
C17S C 0.7934(8) 0.7094(6) 0.8641(4)
H7S H 0.7702 0.7114 0.8909
C18S C 0.7662(9) 0.6724(7) 0.8231(5)
H8S H 0.7244 0.6490 0.8217
C19S C 0.7672(14) 0.6304(11) 0.7402(8)
H9S H 0.7580 0.6523 0.7147
H10S H 0.7300 0.5960 0.7518
O11 O 0.3418(5) 0.3418(5) 0.5639(5)
Y3 Y 0.91513(5) 0.91513(5) 0.92646(4)
Y4 Y 0.84942(9) 0.84942(9) 1.0000
O12 O 1.0000 1.0000 0.9487(3)
O13 O 1.0000 0.7524(14) 1.0000
O14 O 0.9410(9) 0.9410(9) 0.8424(8)
O15 O 0.5712(8) 0.4288(8) 0.6832(12)
O16 O 0.6142(18) 0.4215(17) 0.7015(14)
O16R O 0.5785(17) 0.3858(18) 0.7015(14)
O17 O 0.6184(10) 0.3816(10) 0.6659(16)
O18 O -0.020(4) 0.020(4) 0.475(5)
O18D O 0.020(4) 0.040(6) 0.475(5)
O18E O -0.040(6) -0.020(4) 0.475(5)
O18A O -0.020(4) -0.040(6) 0.475(5)
O18B O 0.040(6) 0.020(4) 0.475(5)
O18C O 0.020(4) -0.020(4) 0.475(5)
O19 O -0.0000 -0.0000 0.334(8)
O20 O 0.595(6) 0.405(6) 1.0000
C20 C 0.780(2) 0.644(2) 0.5239(13)
H11 H 0.8029 0.6531 0.5555
H12 H 0.7454 0.6048 0.5260
H13 H 0.7680 0.6735 0.5185
C21 C 0.8190(15) 0.6743(14) 0.4394(10)
H14 H 0.8475 0.6794 0.4146
O21 O 0.7840(18) 0.6915(19) 0.4289(14)
C22 C 0.8569(13) 0.6240(12) 0.4912(14)
H15 H 0.8397 0.5932 0.5172
H16 H 0.8954 0.6556 0.5027
H17 H 0.8617 0.6072 0.4597
N1S N 0.8298(16) 0.6494(9) 0.4826(9)
N1 N 0.8196(13) 0.6494(9) 0.4826(9)
C20S C 0.864(3) 0.644(2) 0.5239(13)
H11S H 0.8502 0.6531 0.5555
H12S H 0.8594 0.6048 0.5260
H13S H 0.9055 0.6735 0.5185
C21S C 0.8553(21) 0.6743(14) 0.4394(10)
H14S H 0.8319 0.6794 0.4146
O21S O 0.9075(26) 0.6915(19) 0.4289(14)
C22S C 0.7671(18) 0.6240(12) 0.4912(14)
H15S H 0.7535 0.5932 0.5172
H16S H 0.7602 0.6556 0.5027
H17S H 0.7455 0.6072 0.4597
C20J C 0.864(3) 0.644(2) 0.4761(13)
H11J H 0.8502 0.6531 0.4445
H12J H 0.8594 0.6048 0.4740
H13J H 0.9055 0.6735 0.4815
C21J C 0.8553(21) 0.6743(14) 0.5606(10)
H14J H 0.8319 0.6794 0.5854
O21J O 0.9075(26) 0.6915(19) 0.5711(14)
C22J C 0.7671(18) 0.6240(12) 0.5088(14)
H15J H 0.7535 0.5932 0.4828
H16J H 0.7602 0.6556 0.4973
H17J H 0.7455 0.6072 0.5403
N1O N 0.8196(13) 0.6494(9) 0.5174(9)
N1J N 0.8298(16) 0.6494(9) 0.5174(9)
C20O C 0.780(2) 0.644(2) 0.4761(13)
H11O H 0.8029 0.6531 0.4445
H12O H 0.7454 0.6048 0.4740
H13O H 0.7680 0.6735 0.4815
C21O C 0.8190(15) 0.6743(14) 0.5606(10)
H14O H 0.8475 0.6794 0.5854
O21O O 0.7840(18) 0.6915(19) 0.5711(14)
C22O C 0.8569(13) 0.6240(12) 0.5088(14)
H15O H 0.8397 0.5932 0.4828
H16O H 0.8954 0.6556 0.4973
H17O H 0.8617 0.6072 0.5403
Y1 Y 0.55966(2) 0.44034(2) 0.5000
loop_
_geom_bond_atom_site_label_1
_geom_bond_atom_site_label_2
_geom_bond_site_symmetry_1
_geom_bond_site_symmetry_2
O1 C1 1_555 1_555
C1 C2 1_555 1_555
C2 C5 1_555 1_555
H1 C3 1_555 1_555
C3 C4 1_555 1_555
C4 H2 1_555 1_555
C5 C4 1_555 1_555
F1 C5 1_555 1_555
O2 C6 1_555 1_555
C6 O3 1_555 1_555
O6 C9 1_555 1_555
O7 C9 1_555 1_555
C7 C8 1_555 1_555
C8 H3 1_555 1_555
C9 C7 1_555 1_555
O8 C11 1_555 1_555
C10 C7 1_555 1_555
H4 C10 1_555 1_555
C11 C10 1_555 1_555
O9 C12 1_555 1_555
O10 C12S 1_555 1_555
C12 C16 1_555 1_555
C13 C14 1_555 1_555
C14 H5 1_555 1_555
C15 C14 1_555 1_555
H6 C15 1_555 1_555
C16 C15 1_555 1_555
C17 C16 1_555 1_555
H7 C17 1_555 1_555
C18 C13 1_555 1_555
H8 C18 1_555 1_555
C19 O8 1_555 1_555
H9 C19 1_555 1_555
H10 C19 1_555 1_555
C20 H11 1_555 1_555
H12 C20 1_555 1_555
H13 C20 1_555 1_555
C21 H14 1_555 1_555
O21 C21 1_555 1_555
C22 H15 1_555 1_555
H16 C22 1_555 1_555
H17 C22 1_555 1_555
N1 C20S 1_555 1_555
O1C C1 1_555 1_555
C4C C3 1_555 1_555
H2C C4C 1_555 1_555
C5C C2 1_555 1_555
F1C C5C 1_555 1_555
O2C C6C 1_555 1_555
C6C O3C 1_555 1_555
O6S C9S 1_555 1_555
O7S C9S 1_555 1_555
C7S C8 1_555 1_555
C9S C7S 1_555 1_555
C10S C11 1_555 1_555
H4S C10S 1_555 1_555
O9S C12S 1_555 1_555
O10S C12 1_555 1_555
C12S C16S 1_555 1_555
C13S C14S 1_555 1_555
C14S H5S 1_555 1_555
C15S C14S 1_555 1_555
H6S C15S 1_555 1_555
C16S C15S 1_555 1_555
C17S C16S 1_555 1_555
H7S C17S 1_555 1_555
C18S C13S 1_555 1_555
H8S C18S 1_555 1_555
C19S O8 1_555 1_555
H9S C19S 1_555 1_555
H10S C19S 1_555 1_555
N1S C20 1_555 1_555
C20S H11S 1_555 1_555
H12S C20S 1_555 1_555
H13S C20S 1_555 1_555
C21S N1 1_555 1_555
H14S C21S 1_555 1_555
O21S C21S 1_555 1_555
C22S N1 1_555 1_555
H15S C22S 1_555 1_555
H16S C22S 1_555 1_555
H17S C22S 1_555 1_555
C20J H11J 1_555 1_555
H12J C20J 1_555 1_555
H13J C20J 1_555 1_555
C21J H14J 1_555 1_555
O21J C21J 1_555 1_555
C22J H15J 1_555 1_555
H16J C22J 1_555 1_555
H17J C22J 1_555 1_555
N1O C20J 1_555 1_555
N1J C20O 1_555 1_555
C20O H11O 1_555 1_555
H12O C20O 1_555 1_555
H13O C20O 1_555 1_555
C21O N1J 1_555 1_555
H14O C21O 1_555 1_555
O21O C21O 1_555 1_555
C22O N1J 1_555 1_555
H15O C22O 1_555 1_555
H16O C22O 1_555 1_555
H17O C22O 1_555 1_555
C13 C19 1_555 1_555
C17 C18 1_555 1_555
C21 N1S 1_555 1_555
C22 N1S 1_555 1_555
C4C C5C 1_555 1_555
C7S C10S 1_555 1_555
C13S C19S 1_555 1_555
C17S C18S 1_555 1_555
C21J N1O 1_555 1_555
C22J N1O 1_555 1_555

#END
