
#######################################################################
#
#                 Cambridge Crystallographic Data Centre
#                                CCDC 
#
#######################################################################
#
# If this CIF has been generated from an entry in the Cambridge 
# Structural Database, then it will include bibliographic, chemical, 
# crystal, experimental, refinement or atomic coordinate data resulting 
# from the CCDC's data processing and validation procedures.
#
#######################################################################

data_KEYFUR
_chemical_formula_moiety         '(C9 H7 Cu1 N1 O3)n'
_symmetry_cell_setting           rhombohedral
_symmetry_space_group_name_H-M   'R -3'
_symmetry_Int_Tables_number      148
_space_group_name_Hall           '-R 3'
loop_
_symmetry_equiv_pos_site_id
_symmetry_equiv_pos_as_xyz
1 x,y,z
2 -y,x-y,z
3 -x+y,-x,z
4 2/3+x,1/3+y,1/3+z
5 2/3-y,1/3+x-y,1/3+z
6 2/3-x+y,1/3-x,1/3+z
7 1/3+x,2/3+y,2/3+z
8 1/3-y,2/3+x-y,2/3+z
9 1/3-x+y,2/3-x,2/3+z
10 -x,-y,-z
11 y,-x+y,-z
12 x-y,x,-z
13 1/3-x,2/3-y,2/3-z
14 1/3+y,2/3-x+y,2/3-z
15 1/3+x-y,2/3+x,2/3-z
16 2/3-x,1/3-y,1/3-z
17 2/3+y,1/3-x+y,1/3-z
18 2/3+x-y,1/3+x,1/3-z
_cell_length_a                   26.956(6)
_cell_length_b                   26.956(6)
_cell_length_c                   6.9650(17)
_cell_angle_alpha                90
_cell_angle_beta                 90
_cell_angle_gamma                120
_cell_volume                     4382.91
loop_
_atom_site_label
_atom_site_type_symbol
_atom_site_fract_x
_atom_site_fract_y
_atom_site_fract_z
_atom_site_U_iso_or_equiv
_atom_site_thermal_displace_type
Cu1 Cu 0.79043(3) 0.67912(3) 1.07219(10) 0.0314 Uani
O1 O 0.82151(16) 0.62811(17) 1.0426(6) 0.0324 Uani
O2 O 0.7630(2) 0.7331(2) 1.0807(6) 0.0459 Uani
O3 O 0.7205(2) 0.7706(2) 0.9147(6) 0.0486 Uani
N1 N 0.7596(2) 0.6647(2) 0.8166(7) 0.0320 Uani
C1 C 0.7793(2) 0.5896(3) 0.7343(9) 0.0348 Uani
C2 C 0.8067(2) 0.5882(3) 0.9066(9) 0.0323 Uani
C3 C 0.8189(3) 0.5438(3) 0.9277(12) 0.0516 Uani
H1 H 0.8353 0.5410 1.0415 0.0620 Uiso
C4 C 0.8072(3) 0.5044(3) 0.7848(13) 0.0638 Uani
H2 H 0.8157 0.4753 0.8035 0.0760 Uiso
C5 C 0.7830(3) 0.5074(3) 0.6142(12) 0.0647 Uani
H3 H 0.7767 0.4814 0.5161 0.0770 Uiso
C6 C 0.7686(3) 0.5487(3) 0.5903(10) 0.0448 Uani
H4 H 0.7513 0.5500 0.4764 0.0540 Uiso
C7 C 0.7590(2) 0.6286(3) 0.6969(9) 0.0338 Uani
H5 H 0.7442 0.6275 0.5755 0.0400 Uiso
C8 C 0.7362(3) 0.7012(3) 0.7614(8) 0.0399 Uani
H6 H 0.6965 0.6777 0.7225 0.0480 Uiso
H7 H 0.7576 0.7252 0.6537 0.0480 Uiso
C9 C 0.7402(3) 0.7381(3) 0.9298(9) 0.0377 Uani
Cu1G Cu 0.65421(3) 0.77798(4) 0.73886(10) 0.0314 Uani
Cu1O Cu 0.87624(3) 0.65421(3) 1.26114(10) 0.0314 Uani
O1O O 0.84516(16) 0.70522(17) 1.2907(6) 0.0324 Uani
O3E O 0.7168(3) 0.6128(2) 1.2480(6) 0.0486 Uani
loop_
_atom_site_aniso_label
_atom_site_aniso_U_11
_atom_site_aniso_U_22
_atom_site_aniso_U_33
_atom_site_aniso_U_23
_atom_site_aniso_U_13
_atom_site_aniso_U_12
Cu1 0.0330(5) 0.0452(5) 0.0265(4) 0.0028(3) 0.0003(3) 0.0275(4)
O1 0.029(2) 0.042(2) 0.033(2) -0.0005(18) -0.0029(17) 0.0229(19)
O2 0.064(3) 0.070(3) 0.031(2) -0.008(2) -0.009(2) 0.054(3)
O3 0.075(4) 0.064(3) 0.035(3) -0.004(2) -0.014(2) 0.056(3)
N1 0.036(3) 0.044(3) 0.024(2) 0.007(2) 0.003(2) 0.026(3)
C1 0.025(3) 0.035(3) 0.043(4) -0.003(3) 0.000(3) 0.014(3)
C2 0.022(3) 0.032(3) 0.041(3) -0.001(3) 0.000(2) 0.012(3)
C3 0.047(4) 0.046(4) 0.068(5) -0.009(4) -0.018(4) 0.028(4)
C4 0.058(5) 0.049(5) 0.098(7) -0.024(4) -0.030(5) 0.037(4)
C5 0.062(5) 0.056(5) 0.082(6) -0.037(4) -0.029(4) 0.034(4)
C6 0.046(4) 0.047(4) 0.045(4) -0.013(3) -0.014(3) 0.026(3)
C7 0.029(3) 0.041(4) 0.028(3) 0.001(3) -0.002(2) 0.015(3)
C8 0.057(4) 0.051(4) 0.025(3) 0.002(3) -0.005(3) 0.037(4)
C9 0.042(4) 0.047(4) 0.033(3) 0.001(3) -0.002(3) 0.029(3)
Cu1G 0.0452 0.0232 0.0265 -0.0025 -0.0028 0.0177
Cu1O 0.033 0.0452 0.0265 0.0028 0.0003 0.0275
O1O 0.029 0.042 0.033 -0.0005 -0.0029 0.0229
O3E 0.027 0.075 0.035 0.014 0.01 0.019
loop_
_geom_bond_atom_site_label_1
_geom_bond_atom_site_label_2
_geom_bond_site_symmetry_1
_geom_bond_site_symmetry_2
Cu1 O1 1_555 1_555
O1 C2 1_555 1_555
O2 Cu1 1_555 1_555
O3 C9 1_555 1_555
N1 Cu1 1_555 1_555
C1 C2 1_555 1_555
C2 C3 1_555 1_555
C3 H1 1_555 1_555
C4 C3 1_555 1_555
H2 C4 1_555 1_555
C5 C4 1_555 1_555
H3 C5 1_555 1_555
C6 C1 1_555 1_555
H4 C6 1_555 1_555
C7 N1 1_555 1_555
H5 C7 1_555 1_555
C8 N1 1_555 1_555
H6 C8 1_555 1_555
H7 C8 1_555 1_555
C9 O2 1_555 1_555
Cu1G O3 1_555 1_555
Cu1O O1 1_555 1_555
O1O Cu1 1_555 1_555
O3E Cu1 1_555 1_555
C1 C7 1_555 1_555
C5 C6 1_555 1_555
C8 C9 1_555 1_555
Cu1O O1O 1_555 1_555

#END
