
#######################################################################
#
#                 Cambridge Crystallographic Data Centre
#                                CCDC 
#
#######################################################################
#
# If this CIF has been generated from an entry in the Cambridge 
# Structural Database, then it will include bibliographic, chemical, 
# crystal, experimental, refinement or atomic coordinate data resulting 
# from the CCDC's data processing and validation procedures.
#
#######################################################################

data_XAMDUM05
_chemical_formula_moiety         '(C36 H24 Cu6 O30)n'
_symmetry_cell_setting           cubic
_symmetry_space_group_name_H-M   'F m -3 m'
_symmetry_Int_Tables_number      225
_space_group_name_Hall           '-F 4 2 3'
loop_
_symmetry_equiv_pos_site_id
_symmetry_equiv_pos_as_xyz
1 x,y,z
2 x,1/2+y,1/2+z
3 1/2+x,y,1/2+z
4 1/2+x,1/2+y,z
5 y,z,x
6 y,1/2+z,1/2+x
7 1/2+y,z,1/2+x
8 1/2+y,1/2+z,x
9 z,x,y
10 z,1/2+x,1/2+y
11 1/2+z,x,1/2+y
12 1/2+z,1/2+x,y
13 -x,-y,z
14 -x,1/2-y,1/2+z
15 1/2-x,-y,1/2+z
16 1/2-x,1/2-y,z
17 -y,-z,x
18 -y,1/2-z,1/2+x
19 1/2-y,-z,1/2+x
20 1/2-y,1/2-z,x
21 -z,-x,y
22 -z,1/2-x,1/2+y
23 1/2-z,-x,1/2+y
24 1/2-z,1/2-x,y
25 y,-z,-x
26 y,1/2-z,1/2-x
27 1/2+y,-z,1/2-x
28 1/2+y,1/2-z,-x
29 z,-x,-y
30 z,1/2-x,1/2-y
31 1/2+z,-x,1/2-y
32 1/2+z,1/2-x,-y
33 -z,x,-y
34 -z,1/2+x,1/2-y
35 1/2-z,x,1/2-y
36 1/2-z,1/2+x,-y
37 -x,y,-z
38 -x,1/2+y,1/2-z
39 1/2-x,y,1/2-z
40 1/2-x,1/2+y,-z
41 -y,z,-x
42 -y,1/2+z,1/2-x
43 1/2-y,z,1/2-x
44 1/2-y,1/2+z,-x
45 x,-y,-z
46 x,1/2-y,1/2-z
47 1/2+x,-y,1/2-z
48 1/2+x,1/2-y,-z
49 -y,-x,-z
50 -y,1/2-x,1/2-z
51 1/2-y,-x,1/2-z
52 1/2-y,1/2-x,-z
53 -z,-y,-x
54 -z,1/2-y,1/2-x
55 1/2-z,-y,1/2-x
56 1/2-z,1/2-y,-x
57 -x,-z,-y
58 -x,1/2-z,1/2-y
59 1/2-x,-z,1/2-y
60 1/2-x,1/2-z,-y
61 y,x,-z
62 y,1/2+x,1/2-z
63 1/2+y,x,1/2-z
64 1/2+y,1/2+x,-z
65 z,y,-x
66 z,1/2+y,1/2-x
67 1/2+z,y,1/2-x
68 1/2+z,1/2+y,-x
69 x,z,-y
70 x,1/2+z,1/2-y
71 1/2+x,z,1/2-y
72 1/2+x,1/2+z,-y
73 z,-y,x
74 z,1/2-y,1/2+x
75 1/2+z,-y,1/2+x
76 1/2+z,1/2-y,x
77 x,-z,y
78 x,1/2-z,1/2+y
79 1/2+x,-z,1/2+y
80 1/2+x,1/2-z,y
81 -x,z,y
82 -x,1/2+z,1/2+y
83 1/2-x,z,1/2+y
84 1/2-x,1/2+z,y
85 -y,x,z
86 -y,1/2+x,1/2+z
87 1/2-y,x,1/2+z
88 1/2-y,1/2+x,z
89 -z,y,x
90 -z,1/2+y,1/2+x
91 1/2-z,y,1/2+x
92 1/2-z,1/2+y,x
93 y,-x,z
94 y,1/2-x,1/2+z
95 1/2+y,-x,1/2+z
96 1/2+y,1/2-x,z
97 -x,-y,-z
98 -x,1/2-y,1/2-z
99 1/2-x,-y,1/2-z
100 1/2-x,1/2-y,-z
101 -y,-z,-x
102 -y,1/2-z,1/2-x
103 1/2-y,-z,1/2-x
104 1/2-y,1/2-z,-x
105 -z,-x,-y
106 -z,1/2-x,1/2-y
107 1/2-z,-x,1/2-y
108 1/2-z,1/2-x,-y
109 x,y,-z
110 x,1/2+y,1/2-z
111 1/2+x,y,1/2-z
112 1/2+x,1/2+y,-z
113 y,z,-x
114 y,1/2+z,1/2-x
115 1/2+y,z,1/2-x
116 1/2+y,1/2+z,-x
117 z,x,-y
118 z,1/2+x,1/2-y
119 1/2+z,x,1/2-y
120 1/2+z,1/2+x,-y
121 -y,z,x
122 -y,1/2+z,1/2+x
123 1/2-y,z,1/2+x
124 1/2-y,1/2+z,x
125 -z,x,y
126 -z,1/2+x,1/2+y
127 1/2-z,x,1/2+y
128 1/2-z,1/2+x,y
129 z,-x,y
130 z,1/2-x,1/2+y
131 1/2+z,-x,1/2+y
132 1/2+z,1/2-x,y
133 x,-y,z
134 x,1/2-y,1/2+z
135 1/2+x,-y,1/2+z
136 1/2+x,1/2-y,z
137 y,-z,x
138 y,1/2-z,1/2+x
139 1/2+y,-z,1/2+x
140 1/2+y,1/2-z,x
141 -x,y,z
142 -x,1/2+y,1/2+z
143 1/2-x,y,1/2+z
144 1/2-x,1/2+y,z
145 y,x,z
146 y,1/2+x,1/2+z
147 1/2+y,x,1/2+z
148 1/2+y,1/2+x,z
149 z,y,x
150 z,1/2+y,1/2+x
151 1/2+z,y,1/2+x
152 1/2+z,1/2+y,x
153 x,z,y
154 x,1/2+z,1/2+y
155 1/2+x,z,1/2+y
156 1/2+x,1/2+z,y
157 -y,-x,z
158 -y,1/2-x,1/2+z
159 1/2-y,-x,1/2+z
160 1/2-y,1/2-x,z
161 -z,-y,x
162 -z,1/2-y,1/2+x
163 1/2-z,-y,1/2+x
164 1/2-z,1/2-y,x
165 -x,-z,y
166 -x,1/2-z,1/2+y
167 1/2-x,-z,1/2+y
168 1/2-x,1/2-z,y
169 -z,y,-x
170 -z,1/2+y,1/2-x
171 1/2-z,y,1/2-x
172 1/2-z,1/2+y,-x
173 -x,z,-y
174 -x,1/2+z,1/2-y
175 1/2-x,z,1/2-y
176 1/2-x,1/2+z,-y
177 x,-z,-y
178 x,1/2-z,1/2-y
179 1/2+x,-z,1/2-y
180 1/2+x,1/2-z,-y
181 y,-x,-z
182 y,1/2-x,1/2-z
183 1/2+y,-x,1/2-z
184 1/2+y,1/2-x,-z
185 z,-y,-x
186 z,1/2-y,1/2-x
187 1/2+z,-y,1/2-x
188 1/2+z,1/2-y,-x
189 -y,x,-z
190 -y,1/2+x,1/2-z
191 1/2-y,x,1/2-z
192 1/2-y,1/2+x,-z
_cell_length_a                   26.1823(18)
_cell_length_b                   26.1823(18)
_cell_length_c                   26.1823(18)
_cell_angle_alpha                90
_cell_angle_beta                 90
_cell_angle_gamma                90
_cell_volume                     17948.3
loop_
_atom_site_label
_atom_site_type_symbol
_atom_site_fract_x
_atom_site_fract_y
_atom_site_fract_z
_atom_site_U_iso_or_equiv
_atom_site_thermal_displace_type
Cu1 Cu 0.5000 0.21496(6) 0.28504(6) 0.0408 Uani
O1 O 0.4473(3) 0.2567(2) 0.3169(2) 0.0550 Uani
O2 O 0.5000 0.1581(4) 0.3419(4) 0.1170 Uani
C1 C 0.3652(4) 0.3020(6) 0.3652(4) 0.0610 Uani
C2 C 0.3890(4) 0.3229(3) 0.3229(3) 0.0353 Uani
C3 C 0.4305(5) 0.2962(3) 0.2962(3) 0.0487 Uani
H1 H 0.3791 0.2715 0.3791 0.0718 Uiso
Cu1SA Cu 0.5000 0.28504(6) 0.21496(6) 0.0408 Uani
Cu1H Cu 0.28504(6) 0.5000 0.21496(6) 0.0408 Uani
Cu1HA Cu 0.21496(6) 0.5000 0.28504(6) 0.0408 Uani
Cu1D Cu 0.21496(6) 0.28504(6) 0.5000 0.0408 Uani
Cu1S Cu 0.28504(6) 0.21496(6) 0.5000 0.0408 Uani
Cu1F Cu 0.71496(6) 0.28504(6) 0.0000 0.0408 Uani
Cu1Q Cu 0.78504(6) 0.21496(6) 0.0000 0.0408 Uani
Cu1K Cu 0.78504(6) 0.0000 0.21496(6) 0.0408 Uani
Cu1GA Cu 0.71496(6) 0.0000 0.28504(6) 0.0408 Uani
Cu1T Cu 0.71496(6) 0.5000 0.21496(6) 0.0408 Uani
Cu1DA Cu 0.78504(6) 0.5000 0.28504(6) 0.0408 Uani
Cu1NA Cu 0.78504(6) 0.28504(6) 0.5000 0.0408 Uani
Cu1AA Cu 0.71496(6) 0.21496(6) 0.5000 0.0408 Uani
Cu1PA Cu 0.28504(6) 0.28504(6) 0.0000 0.0408 Uani
Cu1Y Cu 0.21496(6) 0.21496(6) 0.0000 0.0408 Uani
Cu1W Cu 0.21496(6) 0.0000 0.21496(6) 0.0408 Uani
Cu1CA Cu 0.28504(6) 0.0000 0.28504(6) 0.0408 Uani
O1VE O 0.4473(3) 0.3169(2) 0.2567(2) 0.0550 Uani
O1H O 0.3169(2) 0.4473(3) 0.2567(2) 0.0550 Uani
O1NE O 0.2567(2) 0.4473(3) 0.3169(2) 0.0550 Uani
O1D O 0.2567(2) 0.3169(2) 0.4473(3) 0.0550 Uani
O1RE O 0.3169(2) 0.2567(2) 0.4473(3) 0.0550 Uani
O1EB O 0.5527(3) 0.1831(2) 0.2433(2) 0.0550 Uani
O1SC O 0.5527(3) 0.2433(2) 0.1831(2) 0.0550 Uani
O1AB O 0.6831(2) 0.2433(2) 0.0527(3) 0.0550 Uani
O1WC O 0.7433(2) 0.1831(2) 0.0527(3) 0.0550 Uani
O1WA O 0.7433(2) 0.0527(3) 0.1831(2) 0.0550 Uani
O1AD O 0.6831(2) 0.0527(3) 0.2433(2) 0.0550 Uani
O1JE O 0.5527(3) 0.2567(2) 0.3169(2) 0.0550 Uani
O1BC O 0.5527(3) 0.3169(2) 0.2567(2) 0.0550 Uani
O1TD O 0.6831(2) 0.4473(3) 0.2567(2) 0.0550 Uani
O1FC O 0.7433(2) 0.4473(3) 0.3169(2) 0.0550 Uani
O1PD O 0.7433(2) 0.3169(2) 0.4473(3) 0.0550 Uani
O1JC O 0.6831(2) 0.2567(2) 0.4473(3) 0.0550 Uani
O1UF O 0.4473(3) 0.1831(2) 0.2433(2) 0.0550 Uani
O1SA O 0.4473(3) 0.2433(2) 0.1831(2) 0.0550 Uani
O1CG O 0.3169(2) 0.2433(2) 0.0527(3) 0.0550 Uani
O1Y O 0.2567(2) 0.1831(2) 0.0527(3) 0.0550 Uani
O1YF O 0.2567(2) 0.0527(3) 0.1831(2) 0.0550 Uani
O1CA O 0.3169(2) 0.0527(3) 0.2433(2) 0.0550 Uani
O1XA O 0.2433(2) 0.5527(3) 0.1831(2) 0.0550 Uani
O1XD O 0.3169(2) 0.5527(3) 0.2567(2) 0.0550 Uani
O1HG O 0.2433(2) 0.4473(3) 0.1831(2) 0.0550 Uani
O1BD O 0.1831(2) 0.5527(3) 0.2433(2) 0.0550 Uani
O1NC O 0.2567(2) 0.5527(3) 0.3169(2) 0.0550 Uani
O1HA O 0.1831(2) 0.4473(3) 0.2433(2) 0.0550 Uani
O1CB O 0.1831(2) 0.2433(2) 0.5527(3) 0.0550 Uani
O1HD O 0.2567(2) 0.3169(2) 0.5527(3) 0.0550 Uani
O1GF O 0.1831(2) 0.2433(2) 0.4473(3) 0.0550 Uani
O1YC O 0.2433(2) 0.1831(2) 0.5527(3) 0.0550 Uani
O1LB O 0.3169(2) 0.2567(2) 0.5527(3) 0.0550 Uani
O1S O 0.2433(2) 0.1831(2) 0.4473(3) 0.0550 Uani
O2SA O 0.5000 0.3419(4) 0.1581(4) 0.1170 Uani
O2H O 0.3419(4) 0.5000 0.1581(4) 0.1170 Uani
O2HA O 0.1581(4) 0.5000 0.3419(4) 0.1170 Uani
O2D O 0.1581(4) 0.3419(4) 0.5000 0.1170 Uani
O2S O 0.3419(4) 0.1581(4) 0.5000 0.1170 Uani
C1D C 0.3020(6) 0.3652(4) 0.3652(4) 0.0610 Uani
C1H C 0.3652(4) 0.3652(4) 0.3020(6) 0.0610 Uani
C1EB C 0.6348(4) 0.1348(4) 0.1980(6) 0.0610 Uani
C1WA C 0.6980(6) 0.1348(4) 0.1348(4) 0.0610 Uani
C1AB C 0.6348(4) 0.1980(6) 0.1348(4) 0.0610 Uani
C1JC C 0.6348(4) 0.3020(6) 0.3652(4) 0.0610 Uani
C1FC C 0.6980(6) 0.3652(4) 0.3652(4) 0.0610 Uani
C1BC C 0.6348(4) 0.3652(4) 0.3020(6) 0.0610 Uani
C1CA C 0.3652(4) 0.1348(4) 0.1980(6) 0.0610 Uani
C1Y C 0.3020(6) 0.1348(4) 0.1348(4) 0.0610 Uani
C1SA C 0.3652(4) 0.1980(6) 0.1348(4) 0.0610 Uani
C2D C 0.3229(3) 0.3229(3) 0.3890(4) 0.0353 Uani
C2H C 0.3229(3) 0.3890(4) 0.3229(3) 0.0353 Uani
C2EB C 0.6110(4) 0.1771(3) 0.1771(3) 0.0353 Uani
C2WA C 0.6771(3) 0.1110(4) 0.1771(3) 0.0353 Uani
C2AB C 0.6771(3) 0.1771(3) 0.1110(4) 0.0353 Uani
C2BC C 0.6110(4) 0.3229(3) 0.3229(3) 0.0353 Uani
C2JC C 0.6771(3) 0.3229(3) 0.3890(4) 0.0353 Uani
C2FC C 0.6771(3) 0.3890(4) 0.3229(3) 0.0353 Uani
C2SA C 0.3890(4) 0.1771(3) 0.1771(3) 0.0353 Uani
C2CA C 0.3229(3) 0.1110(4) 0.1771(3) 0.0353 Uani
C2Y C 0.3229(3) 0.1771(3) 0.1110(4) 0.0353 Uani
C3H C 0.2962(3) 0.4305(5) 0.2962(3) 0.0487 Uani
C3D C 0.2962(3) 0.2962(3) 0.4305(5) 0.0487 Uani
C3EB C 0.5695(5) 0.2038(3) 0.2038(3) 0.0487 Uani
C3AB C 0.7038(3) 0.2038(3) 0.0695(5) 0.0487 Uani
C3WA C 0.7038(3) 0.0695(5) 0.2038(3) 0.0487 Uani
C3BC C 0.5695(5) 0.2962(3) 0.2962(3) 0.0487 Uani
C3FC C 0.7038(3) 0.4305(5) 0.2962(3) 0.0487 Uani
C3JC C 0.7038(3) 0.2962(3) 0.4305(5) 0.0487 Uani
C3SA C 0.4305(5) 0.2038(3) 0.2038(3) 0.0487 Uani
C3Y C 0.2962(3) 0.2038(3) 0.0695(5) 0.0487 Uani
C3CA C 0.2962(3) 0.0695(5) 0.2038(3) 0.0487 Uani
H1H H 0.3791 0.3791 0.2715 0.0718 Uiso
H1D H 0.2715 0.3791 0.3791 0.0718 Uiso
H1EB H 0.6209 0.1209 0.2285 0.0718 Uiso
H1AB H 0.6209 0.2285 0.1209 0.0718 Uiso
H1WA H 0.7285 0.1209 0.1209 0.0718 Uiso
H1JC H 0.6209 0.2715 0.3791 0.0718 Uiso
H1BC H 0.6209 0.3791 0.2715 0.0718 Uiso
H1FC H 0.7285 0.3791 0.3791 0.0718 Uiso
H1CA H 0.3791 0.1209 0.2285 0.0718 Uiso
H1SA H 0.3791 0.2285 0.1209 0.0718 Uiso
H1Y H 0.2715 0.1209 0.1209 0.0718 Uiso
loop_
_atom_site_aniso_label
_atom_site_aniso_U_11
_atom_site_aniso_U_22
_atom_site_aniso_U_33
_atom_site_aniso_U_23
_atom_site_aniso_U_13
_atom_site_aniso_U_12
Cu1 0.0361(15) 0.0432(11) 0.0432(11) 0.0062(10) 0.0000 0.0000
O1 0.059(4) 0.052(4) 0.054(5) 0.006(3) 0.011(3) 0.011(3)
O2 0.137(15) 0.107(8) 0.107(8) 0.054(12) 0.0000 0.0000
C1 0.060(6) 0.063(10) 0.060(6) 0.006(5) -0.004(7) 0.006(5)
C2 0.046(8) 0.030(5) 0.030(5) 0.008(6) 0.007(4) 0.007(4)
C3 0.038(8) 0.054(5) 0.054(5) 0.002(7) 0.005(5) 0.005(5)
Cu1SA 0.0361 0.0432 0.0432 0.0062 0 0
Cu1H 0.0432 0.0361 0.0432 0 0.0062 0
Cu1HA 0.0432 0.0361 0.0432 0 0.0062 0
Cu1D 0.0432 0.0432 0.0361 0 0 0.0062
Cu1S 0.0432 0.0432 0.0361 0 0 0.0062
Cu1F 0.0432 0.0432 0.0361 0 0 0.0062
Cu1Q 0.0432 0.0432 0.0361 0 0 0.0062
Cu1K 0.0432 0.0361 0.0432 0 0.0062 0
Cu1GA 0.0432 0.0361 0.0432 0 0.0062 0
Cu1T 0.0432 0.0361 0.0432 0 -0.0062 0
Cu1DA 0.0432 0.0361 0.0432 0 -0.0062 0
Cu1NA 0.0432 0.0432 0.0361 0 0 -0.0062
Cu1AA 0.0432 0.0432 0.0361 0 0 -0.0062
Cu1PA 0.0432 0.0432 0.0361 0 0 -0.0062
Cu1Y 0.0432 0.0432 0.0361 0 0 -0.0062
Cu1W 0.0432 0.0361 0.0432 0 -0.0062 0
Cu1CA 0.0432 0.0361 0.0432 0 -0.0062 0
O1VE 0.059 0.054 0.052 0.006 0.011 0.011
O1H 0.054 0.059 0.052 0.011 0.006 0.011
O1NE 0.052 0.059 0.054 0.011 0.006 0.011
O1D 0.052 0.054 0.059 0.011 0.011 0.006
O1RE 0.054 0.052 0.059 0.011 0.011 0.006
O1EB 0.059 0.054 0.052 0.006 0.011 0.011
O1SC 0.059 0.052 0.054 0.006 0.011 0.011
O1AB 0.054 0.052 0.059 0.011 0.011 0.006
O1WC 0.052 0.054 0.059 0.011 0.011 0.006
O1WA 0.052 0.059 0.054 0.011 0.006 0.011
O1AD 0.054 0.059 0.052 0.011 0.006 0.011
O1JE 0.059 0.052 0.054 0.006 -0.011 -0.011
O1BC 0.059 0.054 0.052 0.006 -0.011 -0.011
O1TD 0.054 0.059 0.052 0.011 -0.006 -0.011
O1FC 0.052 0.059 0.054 0.011 -0.006 -0.011
O1PD 0.052 0.054 0.059 0.011 -0.011 -0.006
O1JC 0.054 0.052 0.059 0.011 -0.011 -0.006
O1UF 0.059 0.054 0.052 0.006 -0.011 -0.011
O1SA 0.059 0.052 0.054 0.006 -0.011 -0.011
O1CG 0.054 0.052 0.059 0.011 -0.011 -0.006
O1Y 0.052 0.054 0.059 0.011 -0.011 -0.006
O1YF 0.052 0.059 0.054 0.011 -0.006 -0.011
O1CA 0.054 0.059 0.052 0.011 -0.006 -0.011
O1XA 0.052 0.059 0.054 0.011 0.006 0.011
O1XD 0.054 0.059 0.052 -0.011 0.006 -0.011
O1HG 0.052 0.059 0.054 -0.011 0.006 -0.011
O1BD 0.054 0.059 0.052 0.011 0.006 0.011
O1NC 0.052 0.059 0.054 -0.011 0.006 -0.011
O1HA 0.054 0.059 0.052 -0.011 0.006 -0.011
O1CB 0.054 0.052 0.059 0.011 0.011 0.006
O1HD 0.052 0.054 0.059 -0.011 -0.011 0.006
O1GF 0.054 0.052 0.059 -0.011 -0.011 0.006
O1YC 0.052 0.054 0.059 0.011 0.011 0.006
O1LB 0.054 0.052 0.059 -0.011 -0.011 0.006
O1S 0.052 0.054 0.059 -0.011 -0.011 0.006
O2SA 0.137 0.107 0.107 0.054 0 0
O2H 0.107 0.137 0.107 0 0.054 0
O2HA 0.107 0.137 0.107 0 0.054 0
O2D 0.107 0.107 0.137 0 0 0.054
O2S 0.107 0.107 0.137 0 0 0.054
C1D 0.063 0.06 0.06 -0.004 0.006 0.006
C1H 0.06 0.06 0.063 0.006 0.006 -0.004
C1EB 0.06 0.06 0.063 0.006 0.006 -0.004
C1WA 0.063 0.06 0.06 -0.004 0.006 0.006
C1AB 0.06 0.063 0.06 0.006 -0.004 0.006
C1JC 0.06 0.063 0.06 0.006 0.004 -0.006
C1FC 0.063 0.06 0.06 -0.004 -0.006 -0.006
C1BC 0.06 0.06 0.063 0.006 -0.006 0.004
C1CA 0.06 0.06 0.063 0.006 -0.006 0.004
C1Y 0.063 0.06 0.06 -0.004 -0.006 -0.006
C1SA 0.06 0.063 0.06 0.006 0.004 -0.006
C2D 0.03 0.03 0.046 0.007 0.007 0.008
C2H 0.03 0.046 0.03 0.007 0.008 0.007
C2EB 0.046 0.03 0.03 0.008 0.007 0.007
C2WA 0.03 0.046 0.03 0.007 0.008 0.007
C2AB 0.03 0.03 0.046 0.007 0.007 0.008
C2BC 0.046 0.03 0.03 0.008 -0.007 -0.007
C2JC 0.03 0.03 0.046 0.007 -0.007 -0.008
C2FC 0.03 0.046 0.03 0.007 -0.008 -0.007
C2SA 0.046 0.03 0.03 0.008 -0.007 -0.007
C2CA 0.03 0.046 0.03 0.007 -0.008 -0.007
C2Y 0.03 0.03 0.046 0.007 -0.007 -0.008
C3H 0.054 0.038 0.054 0.005 0.002 0.005
C3D 0.054 0.054 0.038 0.005 0.005 0.002
C3EB 0.038 0.054 0.054 0.002 0.005 0.005
C3AB 0.054 0.054 0.038 0.005 0.005 0.002
C3WA 0.054 0.038 0.054 0.005 0.002 0.005
C3BC 0.038 0.054 0.054 0.002 -0.005 -0.005
C3FC 0.054 0.038 0.054 0.005 -0.002 -0.005
C3JC 0.054 0.054 0.038 0.005 -0.005 -0.002
C3SA 0.038 0.054 0.054 0.002 -0.005 -0.005
C3Y 0.054 0.054 0.038 0.005 -0.005 -0.002
C3CA 0.054 0.038 0.054 0.005 -0.002 -0.005
loop_
_geom_bond_atom_site_label_1
_geom_bond_atom_site_label_2
_geom_bond_site_symmetry_1
_geom_bond_site_symmetry_2
Cu1 O1 1_555 1_555
O1 C3 1_555 1_555
O2 Cu1 1_555 1_555
C1 C2 1_555 1_555
C2 C3 1_555 1_555
C3 O1VE 1_555 1_555
H1 C1 1_555 1_555
Cu1SA O1VE 1_555 1_555
Cu1H O1H 1_555 1_555
Cu1HA O1NE 1_555 1_555
Cu1D O1D 1_555 1_555
Cu1S O1RE 1_555 1_555
Cu1F O1AB 1_555 1_555
Cu1Q O1WC 1_555 1_555
Cu1K O1WA 1_555 1_555
Cu1GA O1AD 1_555 1_555
Cu1T O1TD 1_555 1_555
Cu1DA O1FC 1_555 1_555
Cu1NA O1PD 1_555 1_555
Cu1AA O1JC 1_555 1_555
Cu1PA O1CG 1_555 1_555
Cu1Y O1Y 1_555 1_555
Cu1W O1YF 1_555 1_555
Cu1CA O1CA 1_555 1_555
O1H C3H 1_555 1_555
O1NE C3H 1_555 1_555
O1D C3D 1_555 1_555
O1RE C3D 1_555 1_555
O1EB Cu1 1_555 1_555
O1SC Cu1SA 1_555 1_555
O1AB C3AB 1_555 1_555
O1WC C3AB 1_555 1_555
O1WA C3WA 1_555 1_555
O1AD C3WA 1_555 1_555
O1JE Cu1 1_555 1_555
O1BC Cu1SA 1_555 1_555
O1TD C3FC 1_555 1_555
O1FC C3FC 1_555 1_555
O1PD C3JC 1_555 1_555
O1JC C3JC 1_555 1_555
O1UF Cu1 1_555 1_555
O1SA Cu1SA 1_555 1_555
O1CG C3Y 1_555 1_555
O1Y C3Y 1_555 1_555
O1YF C3CA 1_555 1_555
O1CA C3CA 1_555 1_555
O1XA Cu1H 1_555 1_555
O1XD Cu1H 1_555 1_555
O1HG Cu1H 1_555 1_555
O1BD Cu1HA 1_555 1_555
O1NC Cu1HA 1_555 1_555
O1HA Cu1HA 1_555 1_555
O1CB Cu1D 1_555 1_555
O1HD Cu1D 1_555 1_555
O1GF Cu1D 1_555 1_555
O1YC Cu1S 1_555 1_555
O1LB Cu1S 1_555 1_555
O1S Cu1S 1_555 1_555
O2SA Cu1SA 1_555 1_555
O2H Cu1H 1_555 1_555
O2HA Cu1HA 1_555 1_555
O2D Cu1D 1_555 1_555
O2S Cu1S 1_555 1_555
C1D C2D 1_555 1_555
C1H C2 1_555 1_555
C1EB C2EB 1_555 1_555
C1WA C2WA 1_555 1_555
C1AB C2EB 1_555 1_555
C1JC C2BC 1_555 1_555
C1FC C2JC 1_555 1_555
C1BC C2BC 1_555 1_555
C1CA C2SA 1_555 1_555
C1Y C2CA 1_555 1_555
C1SA C2SA 1_555 1_555
C2D C1 1_555 1_555
C2H C1D 1_555 1_555
C2EB C3EB 1_555 1_555
C2WA C1EB 1_555 1_555
C2AB C1WA 1_555 1_555
C2BC C3BC 1_555 1_555
C2JC C1JC 1_555 1_555
C2FC C1FC 1_555 1_555
C2SA C3SA 1_555 1_555
C2CA C1CA 1_555 1_555
C2Y C1Y 1_555 1_555
C3H C2H 1_555 1_555
C3D C2D 1_555 1_555
C3EB O1EB 1_555 1_555
C3AB C2AB 1_555 1_555
C3WA C2WA 1_555 1_555
C3BC O1JE 1_555 1_555
C3FC C2FC 1_555 1_555
C3JC C2JC 1_555 1_555
C3SA O1UF 1_555 1_555
C3Y C2Y 1_555 1_555
C3CA C2CA 1_555 1_555
H1H C1H 1_555 1_555
H1D C1D 1_555 1_555
H1EB C1EB 1_555 1_555
H1AB C1AB 1_555 1_555
H1WA C1WA 1_555 1_555
H1JC C1JC 1_555 1_555
H1BC C1BC 1_555 1_555
H1FC C1FC 1_555 1_555
H1CA C1CA 1_555 1_555
H1SA C1SA 1_555 1_555
H1Y C1Y 1_555 1_555
O1SC C3EB 1_555 1_555
O1BC C3BC 1_555 1_555
O1SA C3SA 1_555 1_555
C1H C2H 1_555 1_555
C1AB C2AB 1_555 1_555
C1BC C2FC 1_555 1_555
C1SA C2Y 1_555 1_555

#END
