
#######################################################################
#
#                 Cambridge Crystallographic Data Centre
#                                CCDC 
#
#######################################################################
#
# If this CIF has been generated from an entry in the Cambridge 
# Structural Database, then it will include bibliographic, chemical, 
# crystal, experimental, refinement or atomic coordinate data resulting 
# from the CCDC's data processing and validation procedures.
#
#######################################################################

data_XAMDUM07
_chemical_formula_moiety         '(C36 H24 Cu6 O30)n'
_symmetry_cell_setting           cubic
_symmetry_space_group_name_H-M   'F m -3 m'
_symmetry_Int_Tables_number      225
_space_group_name_Hall           '-F 4 2 3'
loop_
_symmetry_equiv_pos_site_id
_symmetry_equiv_pos_as_xyz
1 x,y,z
2 x,1/2+y,1/2+z
3 1/2+x,y,1/2+z
4 1/2+x,1/2+y,z
5 y,z,x
6 y,1/2+z,1/2+x
7 1/2+y,z,1/2+x
8 1/2+y,1/2+z,x
9 z,x,y
10 z,1/2+x,1/2+y
11 1/2+z,x,1/2+y
12 1/2+z,1/2+x,y
13 -x,-y,z
14 -x,1/2-y,1/2+z
15 1/2-x,-y,1/2+z
16 1/2-x,1/2-y,z
17 -y,-z,x
18 -y,1/2-z,1/2+x
19 1/2-y,-z,1/2+x
20 1/2-y,1/2-z,x
21 -z,-x,y
22 -z,1/2-x,1/2+y
23 1/2-z,-x,1/2+y
24 1/2-z,1/2-x,y
25 y,-z,-x
26 y,1/2-z,1/2-x
27 1/2+y,-z,1/2-x
28 1/2+y,1/2-z,-x
29 z,-x,-y
30 z,1/2-x,1/2-y
31 1/2+z,-x,1/2-y
32 1/2+z,1/2-x,-y
33 -z,x,-y
34 -z,1/2+x,1/2-y
35 1/2-z,x,1/2-y
36 1/2-z,1/2+x,-y
37 -x,y,-z
38 -x,1/2+y,1/2-z
39 1/2-x,y,1/2-z
40 1/2-x,1/2+y,-z
41 -y,z,-x
42 -y,1/2+z,1/2-x
43 1/2-y,z,1/2-x
44 1/2-y,1/2+z,-x
45 x,-y,-z
46 x,1/2-y,1/2-z
47 1/2+x,-y,1/2-z
48 1/2+x,1/2-y,-z
49 -y,-x,-z
50 -y,1/2-x,1/2-z
51 1/2-y,-x,1/2-z
52 1/2-y,1/2-x,-z
53 -z,-y,-x
54 -z,1/2-y,1/2-x
55 1/2-z,-y,1/2-x
56 1/2-z,1/2-y,-x
57 -x,-z,-y
58 -x,1/2-z,1/2-y
59 1/2-x,-z,1/2-y
60 1/2-x,1/2-z,-y
61 y,x,-z
62 y,1/2+x,1/2-z
63 1/2+y,x,1/2-z
64 1/2+y,1/2+x,-z
65 z,y,-x
66 z,1/2+y,1/2-x
67 1/2+z,y,1/2-x
68 1/2+z,1/2+y,-x
69 x,z,-y
70 x,1/2+z,1/2-y
71 1/2+x,z,1/2-y
72 1/2+x,1/2+z,-y
73 z,-y,x
74 z,1/2-y,1/2+x
75 1/2+z,-y,1/2+x
76 1/2+z,1/2-y,x
77 x,-z,y
78 x,1/2-z,1/2+y
79 1/2+x,-z,1/2+y
80 1/2+x,1/2-z,y
81 -x,z,y
82 -x,1/2+z,1/2+y
83 1/2-x,z,1/2+y
84 1/2-x,1/2+z,y
85 -y,x,z
86 -y,1/2+x,1/2+z
87 1/2-y,x,1/2+z
88 1/2-y,1/2+x,z
89 -z,y,x
90 -z,1/2+y,1/2+x
91 1/2-z,y,1/2+x
92 1/2-z,1/2+y,x
93 y,-x,z
94 y,1/2-x,1/2+z
95 1/2+y,-x,1/2+z
96 1/2+y,1/2-x,z
97 -x,-y,-z
98 -x,1/2-y,1/2-z
99 1/2-x,-y,1/2-z
100 1/2-x,1/2-y,-z
101 -y,-z,-x
102 -y,1/2-z,1/2-x
103 1/2-y,-z,1/2-x
104 1/2-y,1/2-z,-x
105 -z,-x,-y
106 -z,1/2-x,1/2-y
107 1/2-z,-x,1/2-y
108 1/2-z,1/2-x,-y
109 x,y,-z
110 x,1/2+y,1/2-z
111 1/2+x,y,1/2-z
112 1/2+x,1/2+y,-z
113 y,z,-x
114 y,1/2+z,1/2-x
115 1/2+y,z,1/2-x
116 1/2+y,1/2+z,-x
117 z,x,-y
118 z,1/2+x,1/2-y
119 1/2+z,x,1/2-y
120 1/2+z,1/2+x,-y
121 -y,z,x
122 -y,1/2+z,1/2+x
123 1/2-y,z,1/2+x
124 1/2-y,1/2+z,x
125 -z,x,y
126 -z,1/2+x,1/2+y
127 1/2-z,x,1/2+y
128 1/2-z,1/2+x,y
129 z,-x,y
130 z,1/2-x,1/2+y
131 1/2+z,-x,1/2+y
132 1/2+z,1/2-x,y
133 x,-y,z
134 x,1/2-y,1/2+z
135 1/2+x,-y,1/2+z
136 1/2+x,1/2-y,z
137 y,-z,x
138 y,1/2-z,1/2+x
139 1/2+y,-z,1/2+x
140 1/2+y,1/2-z,x
141 -x,y,z
142 -x,1/2+y,1/2+z
143 1/2-x,y,1/2+z
144 1/2-x,1/2+y,z
145 y,x,z
146 y,1/2+x,1/2+z
147 1/2+y,x,1/2+z
148 1/2+y,1/2+x,z
149 z,y,x
150 z,1/2+y,1/2+x
151 1/2+z,y,1/2+x
152 1/2+z,1/2+y,x
153 x,z,y
154 x,1/2+z,1/2+y
155 1/2+x,z,1/2+y
156 1/2+x,1/2+z,y
157 -y,-x,z
158 -y,1/2-x,1/2+z
159 1/2-y,-x,1/2+z
160 1/2-y,1/2-x,z
161 -z,-y,x
162 -z,1/2-y,1/2+x
163 1/2-z,-y,1/2+x
164 1/2-z,1/2-y,x
165 -x,-z,y
166 -x,1/2-z,1/2+y
167 1/2-x,-z,1/2+y
168 1/2-x,1/2-z,y
169 -z,y,-x
170 -z,1/2+y,1/2-x
171 1/2-z,y,1/2-x
172 1/2-z,1/2+y,-x
173 -x,z,-y
174 -x,1/2+z,1/2-y
175 1/2-x,z,1/2-y
176 1/2-x,1/2+z,-y
177 x,-z,-y
178 x,1/2-z,1/2-y
179 1/2+x,-z,1/2-y
180 1/2+x,1/2-z,-y
181 y,-x,-z
182 y,1/2-x,1/2-z
183 1/2+y,-x,1/2-z
184 1/2+y,1/2-x,-z
185 z,-y,-x
186 z,1/2-y,1/2-x
187 1/2+z,-y,1/2-x
188 1/2+z,1/2-y,-x
189 -y,x,-z
190 -y,1/2+x,1/2-z
191 1/2-y,x,1/2-z
192 1/2-y,1/2+x,-z
_cell_length_a                   26.3867(12)
_cell_length_b                   26.3867(12)
_cell_length_c                   26.3867(12)
_cell_angle_alpha                90
_cell_angle_beta                 90
_cell_angle_gamma                90
_cell_volume                     18371.9
loop_
_atom_site_label
_atom_site_type_symbol
_atom_site_fract_x
_atom_site_fract_y
_atom_site_fract_z
_atom_site_U_iso_or_equiv
_atom_site_thermal_displace_type
Cu1 Cu 0.71494(3) 0.21494(3) 0.5000 0.0378 Uani
O1 O 0.6562(2) 0.1562(2) 0.5000 0.1120 Uani
O2 O 0.68366(12) 0.25640(13) 0.55268(12) 0.0507 Uani
C1 C 0.7004(3) 0.36463(18) 0.63537(18) 0.0503 Uani
C2 C 0.67835(17) 0.32165(17) 0.6146(2) 0.0367 Uani
C3 C 0.70421(18) 0.29579(18) 0.5696(2) 0.0443 Uani
H1 H 0.7297 0.3794 0.6206 0.0608 Uiso
Cu1O Cu 0.78506(3) 0.28506(3) 0.5000 0.0378 Uani
Cu1BA Cu 0.5000 0.28506(3) 0.78506(3) 0.0378 Uani
Cu1I Cu 0.5000 0.21494(3) 0.71494(3) 0.0378 Uani
Cu1P Cu 0.78506(3) 0.5000 0.71494(3) 0.0378 Uani
Cu1Z Cu 0.71494(3) 0.5000 0.78506(3) 0.0378 Uani
Cu1Q Cu 0.78506(3) 0.0000 0.21494(3) 0.0378 Uani
Cu1AA Cu 0.71494(3) 0.0000 0.28506(3) 0.0378 Uani
Cu1DA Cu 1.0000 0.28506(3) 0.28506(3) 0.0378 Uani
Cu1K Cu 1.0000 0.21494(3) 0.21494(3) 0.0378 Uani
Cu1T Cu 0.5000 0.28506(3) 0.21494(3) 0.0378 Uani
Cu1GA Cu 0.5000 0.21494(3) 0.28506(3) 0.0378 Uani
Cu1NA Cu 0.78506(3) 0.5000 0.28506(3) 0.0378 Uani
Cu1F Cu 0.71494(3) 0.5000 0.21494(3) 0.0378 Uani
Cu1OA Cu 0.78506(3) 0.0000 0.78506(3) 0.0378 Uani
Cu1G Cu 0.71494(3) 0.0000 0.71494(3) 0.0378 Uani
Cu1V Cu 1.0000 0.28506(3) 0.71494(3) 0.0378 Uani
Cu1IA Cu 1.0000 0.21494(3) 0.78506(3) 0.0378 Uani
O1O O 0.8438(2) 0.3438(2) 0.5000 0.1120 Uani
O1BA O 0.5000 0.3438(2) 0.8438(2) 0.1120 Uani
O1I O 0.5000 0.1562(2) 0.6562(2) 0.1120 Uani
O1P O 0.8438(2) 0.5000 0.6562(2) 0.1120 Uani
O1Z O 0.6562(2) 0.5000 0.8438(2) 0.1120 Uani
O2ZE O 0.74360(13) 0.31634(12) 0.55268(12) 0.0507 Uani
O2BA O 0.55268(12) 0.31634(12) 0.74360(13) 0.0507 Uani
O2RE O 0.55268(12) 0.25640(13) 0.68366(12) 0.0507 Uani
O2P O 0.74360(13) 0.44732(12) 0.68366(12) 0.0507 Uani
O2TF O 0.68366(12) 0.44732(12) 0.74360(13) 0.0507 Uani
O2KB O 0.75640(13) 0.18366(12) 0.44732(12) 0.0507 Uani
O2UC O 0.81634(12) 0.24360(13) 0.44732(12) 0.0507 Uani
O2EC O 0.81634(12) 0.05268(12) 0.25640(13) 0.0507 Uani
O2KD O 0.75640(13) 0.05268(12) 0.31634(12) 0.0507 Uani
O2CB O 0.94732(12) 0.24360(13) 0.31634(12) 0.0507 Uani
O2WD O 0.94732(12) 0.18366(12) 0.25640(13) 0.0507 Uani
O2DD O 0.68366(12) 0.25640(13) 0.44732(12) 0.0507 Uani
O2VA O 0.74360(13) 0.31634(12) 0.44732(12) 0.0507 Uani
O2XD O 0.55268(12) 0.31634(12) 0.25640(13) 0.0507 Uani
O2LB O 0.55268(12) 0.25640(13) 0.31634(12) 0.0507 Uani
O2VC O 0.74360(13) 0.44732(12) 0.31634(12) 0.0507 Uani
O2XB O 0.68366(12) 0.44732(12) 0.25640(13) 0.0507 Uani
O2QE O 0.75640(13) 0.18366(12) 0.55268(12) 0.0507 Uani
O2O O 0.81634(12) 0.24360(13) 0.55268(12) 0.0507 Uani
O2SF O 0.81634(12) 0.05268(12) 0.74360(13) 0.0507 Uani
O2G O 0.75640(13) 0.05268(12) 0.68366(12) 0.0507 Uani
O2GF O 0.94732(12) 0.24360(13) 0.68366(12) 0.0507 Uani
O2IA O 0.94732(12) 0.18366(12) 0.74360(13) 0.0507 Uani
O2AB O 0.44732(12) 0.24360(13) 0.81634(12) 0.0507 Uani
O2ZC O 0.44732(12) 0.31634(12) 0.74360(13) 0.0507 Uani
O2CG O 0.55268(12) 0.24360(13) 0.81634(12) 0.0507 Uani
O2UD O 0.44732(12) 0.18366(12) 0.75640(13) 0.0507 Uani
O2JC O 0.44732(12) 0.25640(13) 0.68366(12) 0.0507 Uani
O2I O 0.55268(12) 0.18366(12) 0.75640(13) 0.0507 Uani
O2DC O 0.81634(12) 0.55268(12) 0.75640(13) 0.0507 Uani
O2PD O 0.74360(13) 0.55268(12) 0.68366(12) 0.0507 Uani
O2JF O 0.81634(12) 0.44732(12) 0.75640(13) 0.0507 Uani
O2JD O 0.75640(13) 0.55268(12) 0.81634(12) 0.0507 Uani
O2PB O 0.68366(12) 0.55268(12) 0.74360(13) 0.0507 Uani
O2Z O 0.75640(13) 0.44732(12) 0.81634(12) 0.0507 Uani
C1P C 0.63537(18) 0.36463(18) 0.7004(3) 0.0503 Uani
C1BA C 0.63537(18) 0.2996(3) 0.63537(18) 0.0503 Uani
C1KB C 0.86463(18) 0.2004(3) 0.36463(18) 0.0503 Uani
C1CB C 0.86463(18) 0.13537(18) 0.2996(3) 0.0503 Uani
C1EC C 0.7996(3) 0.13537(18) 0.36463(18) 0.0503 Uani
C1XB C 0.7004(3) 0.36463(18) 0.36463(18) 0.0503 Uani
C1LB C 0.63537(18) 0.36463(18) 0.2996(3) 0.0503 Uani
C1VA C 0.63537(18) 0.2996(3) 0.36463(18) 0.0503 Uani
C1IA C 0.86463(18) 0.2004(3) 0.63537(18) 0.0503 Uani
C1G C 0.86463(18) 0.13537(18) 0.7004(3) 0.0503 Uani
C1O C 0.7996(3) 0.13537(18) 0.63537(18) 0.0503 Uani
C2P C 0.67835(17) 0.3854(2) 0.67835(17) 0.0367 Uani
C2BA C 0.6146(2) 0.32165(17) 0.67835(17) 0.0367 Uani
C2KB C 0.82165(17) 0.17835(17) 0.3854(2) 0.0367 Uani
C2CB C 0.8854(2) 0.17835(17) 0.32165(17) 0.0367 Uani
C2EC C 0.82165(17) 0.1146(2) 0.32165(17) 0.0367 Uani
C2VA C 0.67835(17) 0.32165(17) 0.3854(2) 0.0367 Uani
C2XB C 0.67835(17) 0.3854(2) 0.32165(17) 0.0367 Uani
C2LB C 0.6146(2) 0.32165(17) 0.32165(17) 0.0367 Uani
C2O C 0.82165(17) 0.17835(17) 0.6146(2) 0.0367 Uani
C2IA C 0.8854(2) 0.17835(17) 0.67835(17) 0.0367 Uani
C2G C 0.82165(17) 0.1146(2) 0.67835(17) 0.0367 Uani
C3BA C 0.5696(2) 0.29579(18) 0.70421(18) 0.0443 Uani
C3P C 0.70421(18) 0.4304(2) 0.70421(18) 0.0443 Uani
C3KB C 0.79579(18) 0.20421(18) 0.4304(2) 0.0443 Uani
C3EC C 0.79579(18) 0.0696(2) 0.29579(18) 0.0443 Uani
C3CB C 0.9304(2) 0.20421(18) 0.29579(18) 0.0443 Uani
C3VA C 0.70421(18) 0.29579(18) 0.4304(2) 0.0443 Uani
C3LB C 0.5696(2) 0.29579(18) 0.29579(18) 0.0443 Uani
C3XB C 0.70421(18) 0.4304(2) 0.29579(18) 0.0443 Uani
C3O C 0.79579(18) 0.20421(18) 0.5696(2) 0.0443 Uani
C3G C 0.79579(18) 0.0696(2) 0.70421(18) 0.0443 Uani
C3IA C 0.9304(2) 0.20421(18) 0.70421(18) 0.0443 Uani
H1BA H 0.6206 0.2703 0.6206 0.0608 Uiso
H1P H 0.6206 0.3794 0.7297 0.0608 Uiso
H1KB H 0.8794 0.2297 0.3794 0.0608 Uiso
H1EC H 0.7703 0.1206 0.3794 0.0608 Uiso
H1CB H 0.8794 0.1206 0.2703 0.0608 Uiso
H1XB H 0.7297 0.3794 0.3794 0.0608 Uiso
H1VA H 0.6206 0.2703 0.3794 0.0608 Uiso
H1LB H 0.6206 0.3794 0.2703 0.0608 Uiso
H1IA H 0.8794 0.2297 0.6206 0.0608 Uiso
H1O H 0.7703 0.1206 0.6206 0.0608 Uiso
H1G H 0.8794 0.1206 0.7297 0.0608 Uiso
loop_
_atom_site_aniso_label
_atom_site_aniso_U_11
_atom_site_aniso_U_22
_atom_site_aniso_U_33
_atom_site_aniso_U_23
_atom_site_aniso_U_13
_atom_site_aniso_U_12
Cu1 0.0394(6) 0.0394(6) 0.0345(8) 0.0000 0.0000 -0.0072(6)
O1 0.104(5) 0.104(5) 0.128(9) 0.0000 0.0000 -0.060(6)
O2 0.053(2) 0.053(2) 0.046(2) -0.0125(19) 0.0077(16) -0.0125(18)
C1 0.063(5) 0.044(3) 0.044(3) 0.000(4) 0.009(2) -0.009(2)
C2 0.038(3) 0.038(3) 0.034(4) -0.001(2) 0.001(2) -0.001(3)
C3 0.045(3) 0.045(3) 0.043(5) 0.002(2) -0.002(2) -0.003(4)
Cu1O 0.0394 0.0394 0.0345 0 0 -0.0072
Cu1BA 0.0345 0.0394 0.0394 -0.0072 0 0
Cu1I 0.0345 0.0394 0.0394 -0.0072 0 0
Cu1P 0.0394 0.0345 0.0394 0 0.0072 0
Cu1Z 0.0394 0.0345 0.0394 0 0.0072 0
Cu1Q 0.0394 0.0345 0.0394 0 0.0072 0
Cu1AA 0.0394 0.0345 0.0394 0 0.0072 0
Cu1DA 0.0345 0.0394 0.0394 -0.0072 0 0
Cu1K 0.0345 0.0394 0.0394 -0.0072 0 0
Cu1T 0.0345 0.0394 0.0394 0.0072 0 0
Cu1GA 0.0345 0.0394 0.0394 0.0072 0 0
Cu1NA 0.0394 0.0345 0.0394 0 -0.0072 0
Cu1F 0.0394 0.0345 0.0394 0 -0.0072 0
Cu1OA 0.0394 0.0345 0.0394 0 -0.0072 0
Cu1G 0.0394 0.0345 0.0394 0 -0.0072 0
Cu1V 0.0345 0.0394 0.0394 0.0072 0 0
Cu1IA 0.0345 0.0394 0.0394 0.0072 0 0
O1O 0.104 0.104 0.128 0 0 -0.06
O1BA 0.128 0.104 0.104 -0.06 0 0
O1I 0.128 0.104 0.104 -0.06 0 0
O1P 0.104 0.128 0.104 0 0.06 0
O1Z 0.104 0.128 0.104 0 0.06 0
O2ZE 0.053 0.053 0.046 -0.0077 0.0125 -0.0125
O2BA 0.046 0.053 0.053 -0.0125 0.0125 -0.0077
O2RE 0.046 0.053 0.053 -0.0125 0.0077 -0.0125
O2P 0.053 0.046 0.053 -0.0077 0.0125 -0.0125
O2TF 0.053 0.046 0.053 -0.0125 0.0125 -0.0077
O2KB 0.053 0.053 0.046 -0.0077 0.0125 -0.0125
O2UC 0.053 0.053 0.046 -0.0125 0.0077 -0.0125
O2EC 0.053 0.046 0.053 -0.0125 0.0125 -0.0077
O2KD 0.053 0.046 0.053 -0.0077 0.0125 -0.0125
O2CB 0.046 0.053 0.053 -0.0125 0.0077 -0.0125
O2WD 0.046 0.053 0.053 -0.0125 0.0125 -0.0077
O2DD 0.053 0.053 0.046 0.0125 -0.0077 -0.0125
O2VA 0.053 0.053 0.046 0.0077 -0.0125 -0.0125
O2XD 0.046 0.053 0.053 0.0125 -0.0125 -0.0077
O2LB 0.046 0.053 0.053 0.0125 -0.0077 -0.0125
O2VC 0.053 0.046 0.053 0.0077 -0.0125 -0.0125
O2XB 0.053 0.046 0.053 0.0125 -0.0125 -0.0077
O2QE 0.053 0.053 0.046 0.0077 -0.0125 -0.0125
O2O 0.053 0.053 0.046 0.0125 -0.0077 -0.0125
O2SF 0.053 0.046 0.053 0.0125 -0.0125 -0.0077
O2G 0.053 0.046 0.053 0.0077 -0.0125 -0.0125
O2GF 0.046 0.053 0.053 0.0125 -0.0077 -0.0125
O2IA 0.046 0.053 0.053 0.0125 -0.0125 -0.0077
O2AB 0.046 0.053 0.053 -0.0125 0.0077 -0.0125
O2ZC 0.046 0.053 0.053 -0.0125 -0.0125 0.0077
O2CG 0.046 0.053 0.053 -0.0125 -0.0077 0.0125
O2UD 0.046 0.053 0.053 -0.0125 0.0125 -0.0077
O2JC 0.046 0.053 0.053 -0.0125 -0.0077 0.0125
O2I 0.046 0.053 0.053 -0.0125 -0.0125 0.0077
O2DC 0.053 0.046 0.053 -0.0125 0.0125 -0.0077
O2PD 0.053 0.046 0.053 0.0077 0.0125 0.0125
O2JF 0.053 0.046 0.053 0.0125 0.0125 0.0077
O2JD 0.053 0.046 0.053 -0.0077 0.0125 -0.0125
O2PB 0.053 0.046 0.053 0.0125 0.0125 0.0077
O2Z 0.053 0.046 0.053 0.0077 0.0125 0.0125
C1P 0.044 0.044 0.063 -0.009 0.009 0
C1BA 0.044 0.063 0.044 -0.009 0 -0.009
C1KB 0.044 0.063 0.044 -0.009 0 -0.009
C1CB 0.044 0.044 0.063 -0.009 0.009 0
C1EC 0.063 0.044 0.044 0 0.009 -0.009
C1XB 0.063 0.044 0.044 0 -0.009 -0.009
C1LB 0.044 0.044 0.063 0.009 -0.009 0
C1VA 0.044 0.063 0.044 0.009 0 -0.009
C1IA 0.044 0.063 0.044 0.009 0 -0.009
C1G 0.044 0.044 0.063 0.009 -0.009 0
C1O 0.063 0.044 0.044 0 -0.009 -0.009
C2P 0.038 0.034 0.038 -0.001 0.001 -0.001
C2BA 0.034 0.038 0.038 -0.001 0.001 -0.001
C2KB 0.038 0.038 0.034 -0.001 0.001 -0.001
C2CB 0.034 0.038 0.038 -0.001 0.001 -0.001
C2EC 0.038 0.034 0.038 -0.001 0.001 -0.001
C2VA 0.038 0.038 0.034 0.001 -0.001 -0.001
C2XB 0.038 0.034 0.038 0.001 -0.001 -0.001
C2LB 0.034 0.038 0.038 0.001 -0.001 -0.001
C2O 0.038 0.038 0.034 0.001 -0.001 -0.001
C2IA 0.034 0.038 0.038 0.001 -0.001 -0.001
C2G 0.038 0.034 0.038 0.001 -0.001 -0.001
C3BA 0.043 0.045 0.045 -0.003 -0.002 0.002
C3P 0.045 0.043 0.045 0.002 0.003 0.002
C3KB 0.045 0.045 0.043 0.002 -0.002 -0.003
C3EC 0.045 0.043 0.045 0.002 0.003 0.002
C3CB 0.043 0.045 0.045 -0.003 -0.002 0.002
C3VA 0.045 0.045 0.043 -0.002 0.002 -0.003
C3LB 0.043 0.045 0.045 0.003 0.002 0.002
C3XB 0.045 0.043 0.045 -0.002 -0.003 0.002
C3O 0.045 0.045 0.043 -0.002 0.002 -0.003
C3G 0.045 0.043 0.045 -0.002 -0.003 0.002
C3IA 0.043 0.045 0.045 0.003 0.002 0.002
loop_
_geom_bond_atom_site_label_1
_geom_bond_atom_site_label_2
_geom_bond_site_symmetry_1
_geom_bond_site_symmetry_2
Cu1 O1 1_555 1_555
O2 Cu1 1_555 1_555
C1 C2 1_555 1_555
C2 C3 1_555 1_555
C3 O2 1_555 1_555
H1 C1 1_555 1_555
Cu1O O1O 1_555 1_555
Cu1BA O1BA 1_555 1_555
Cu1I O1I 1_555 1_555
Cu1P O1P 1_555 1_555
Cu1Z O1Z 1_555 1_555
Cu1Q O2EC 1_555 1_555
Cu1AA O2KD 1_555 1_555
Cu1DA O2CB 1_555 1_555
Cu1K O2WD 1_555 1_555
Cu1T O2XD 1_555 1_555
Cu1GA O2LB 1_555 1_555
Cu1NA O2VC 1_555 1_555
Cu1F O2XB 1_555 1_555
Cu1OA O2SF 1_555 1_555
Cu1G O2G 1_555 1_555
Cu1V O2GF 1_555 1_555
Cu1IA O2IA 1_555 1_555
O2ZE C3 1_555 1_555
O2BA Cu1BA 1_555 1_555
O2RE Cu1I 1_555 1_555
O2P Cu1P 1_555 1_555
O2TF Cu1Z 1_555 1_555
O2KB Cu1 1_555 1_555
O2UC Cu1O 1_555 1_555
O2EC C3EC 1_555 1_555
O2KD C3EC 1_555 1_555
O2CB C3CB 1_555 1_555
O2WD C3CB 1_555 1_555
O2DD Cu1 1_555 1_555
O2VA Cu1O 1_555 1_555
O2XD C3LB 1_555 1_555
O2LB C3LB 1_555 1_555
O2VC C3XB 1_555 1_555
O2XB C3XB 1_555 1_555
O2QE Cu1 1_555 1_555
O2O Cu1O 1_555 1_555
O2SF C3G 1_555 1_555
O2G C3G 1_555 1_555
O2GF C3IA 1_555 1_555
O2IA C3IA 1_555 1_555
O2AB Cu1BA 1_555 1_555
O2ZC Cu1BA 1_555 1_555
O2CG Cu1BA 1_555 1_555
O2UD Cu1I 1_555 1_555
O2JC Cu1I 1_555 1_555
O2I Cu1I 1_555 1_555
O2DC Cu1P 1_555 1_555
O2PD Cu1P 1_555 1_555
O2JF Cu1P 1_555 1_555
O2JD Cu1Z 1_555 1_555
O2PB Cu1Z 1_555 1_555
O2Z Cu1Z 1_555 1_555
C1P C2P 1_555 1_555
C1BA C2 1_555 1_555
C1KB C2KB 1_555 1_555
C1CB C2CB 1_555 1_555
C1EC C2KB 1_555 1_555
C1XB C2VA 1_555 1_555
C1LB C2XB 1_555 1_555
C1VA C2VA 1_555 1_555
C1IA C2O 1_555 1_555
C1G C2IA 1_555 1_555
C1O C2O 1_555 1_555
C2P C1 1_555 1_555
C2BA C1P 1_555 1_555
C2KB C3KB 1_555 1_555
C2CB C1KB 1_555 1_555
C2EC C1CB 1_555 1_555
C2VA C3VA 1_555 1_555
C2XB C1XB 1_555 1_555
C2LB C1LB 1_555 1_555
C2O C3O 1_555 1_555
C2IA C1IA 1_555 1_555
C2G C1G 1_555 1_555
C3BA O2BA 1_555 1_555
C3P O2P 1_555 1_555
C3KB O2KB 1_555 1_555
C3EC C2EC 1_555 1_555
C3CB C2CB 1_555 1_555
C3VA O2DD 1_555 1_555
C3LB C2LB 1_555 1_555
C3XB C2XB 1_555 1_555
C3O O2QE 1_555 1_555
C3G C2G 1_555 1_555
C3IA C2IA 1_555 1_555
H1BA C1BA 1_555 1_555
H1P C1P 1_555 1_555
H1KB C1KB 1_555 1_555
H1EC C1EC 1_555 1_555
H1CB C1CB 1_555 1_555
H1XB C1XB 1_555 1_555
H1VA C1VA 1_555 1_555
H1LB C1LB 1_555 1_555
H1IA C1IA 1_555 1_555
H1O C1O 1_555 1_555
H1G C1G 1_555 1_555
Cu1O O2ZE 1_555 1_555
O2RE C3BA 1_555 1_555
O2TF C3P 1_555 1_555
O2UC C3KB 1_555 1_555
O2VA C3VA 1_555 1_555
O2O C3O 1_555 1_555
C1BA C2BA 1_555 1_555
C1EC C2EC 1_555 1_555
C1VA C2LB 1_555 1_555
C1O C2G 1_555 1_555
C2P C3P 1_555 1_555
C2BA C3BA 1_555 1_555

#END
