
#######################################################################
#
#                 Cambridge Crystallographic Data Centre
#                                CCDC 
#
#######################################################################
#
# If this CIF has been generated from an entry in the Cambridge 
# Structural Database, then it will include bibliographic, chemical, 
# crystal, experimental, refinement or atomic coordinate data resulting 
# from the CCDC's data processing and validation procedures.
#
#######################################################################

data_XAMDUM06
_chemical_formula_moiety         '(C36 H24 Cu6 O30)n'
_symmetry_cell_setting           cubic
_symmetry_space_group_name_H-M   'F m -3 m'
_symmetry_Int_Tables_number      225
_space_group_name_Hall           '-F 4 2 3'
loop_
_symmetry_equiv_pos_site_id
_symmetry_equiv_pos_as_xyz
1 x,y,z
2 x,1/2+y,1/2+z
3 1/2+x,y,1/2+z
4 1/2+x,1/2+y,z
5 y,z,x
6 y,1/2+z,1/2+x
7 1/2+y,z,1/2+x
8 1/2+y,1/2+z,x
9 z,x,y
10 z,1/2+x,1/2+y
11 1/2+z,x,1/2+y
12 1/2+z,1/2+x,y
13 -x,-y,z
14 -x,1/2-y,1/2+z
15 1/2-x,-y,1/2+z
16 1/2-x,1/2-y,z
17 -y,-z,x
18 -y,1/2-z,1/2+x
19 1/2-y,-z,1/2+x
20 1/2-y,1/2-z,x
21 -z,-x,y
22 -z,1/2-x,1/2+y
23 1/2-z,-x,1/2+y
24 1/2-z,1/2-x,y
25 y,-z,-x
26 y,1/2-z,1/2-x
27 1/2+y,-z,1/2-x
28 1/2+y,1/2-z,-x
29 z,-x,-y
30 z,1/2-x,1/2-y
31 1/2+z,-x,1/2-y
32 1/2+z,1/2-x,-y
33 -z,x,-y
34 -z,1/2+x,1/2-y
35 1/2-z,x,1/2-y
36 1/2-z,1/2+x,-y
37 -x,y,-z
38 -x,1/2+y,1/2-z
39 1/2-x,y,1/2-z
40 1/2-x,1/2+y,-z
41 -y,z,-x
42 -y,1/2+z,1/2-x
43 1/2-y,z,1/2-x
44 1/2-y,1/2+z,-x
45 x,-y,-z
46 x,1/2-y,1/2-z
47 1/2+x,-y,1/2-z
48 1/2+x,1/2-y,-z
49 -y,-x,-z
50 -y,1/2-x,1/2-z
51 1/2-y,-x,1/2-z
52 1/2-y,1/2-x,-z
53 -z,-y,-x
54 -z,1/2-y,1/2-x
55 1/2-z,-y,1/2-x
56 1/2-z,1/2-y,-x
57 -x,-z,-y
58 -x,1/2-z,1/2-y
59 1/2-x,-z,1/2-y
60 1/2-x,1/2-z,-y
61 y,x,-z
62 y,1/2+x,1/2-z
63 1/2+y,x,1/2-z
64 1/2+y,1/2+x,-z
65 z,y,-x
66 z,1/2+y,1/2-x
67 1/2+z,y,1/2-x
68 1/2+z,1/2+y,-x
69 x,z,-y
70 x,1/2+z,1/2-y
71 1/2+x,z,1/2-y
72 1/2+x,1/2+z,-y
73 z,-y,x
74 z,1/2-y,1/2+x
75 1/2+z,-y,1/2+x
76 1/2+z,1/2-y,x
77 x,-z,y
78 x,1/2-z,1/2+y
79 1/2+x,-z,1/2+y
80 1/2+x,1/2-z,y
81 -x,z,y
82 -x,1/2+z,1/2+y
83 1/2-x,z,1/2+y
84 1/2-x,1/2+z,y
85 -y,x,z
86 -y,1/2+x,1/2+z
87 1/2-y,x,1/2+z
88 1/2-y,1/2+x,z
89 -z,y,x
90 -z,1/2+y,1/2+x
91 1/2-z,y,1/2+x
92 1/2-z,1/2+y,x
93 y,-x,z
94 y,1/2-x,1/2+z
95 1/2+y,-x,1/2+z
96 1/2+y,1/2-x,z
97 -x,-y,-z
98 -x,1/2-y,1/2-z
99 1/2-x,-y,1/2-z
100 1/2-x,1/2-y,-z
101 -y,-z,-x
102 -y,1/2-z,1/2-x
103 1/2-y,-z,1/2-x
104 1/2-y,1/2-z,-x
105 -z,-x,-y
106 -z,1/2-x,1/2-y
107 1/2-z,-x,1/2-y
108 1/2-z,1/2-x,-y
109 x,y,-z
110 x,1/2+y,1/2-z
111 1/2+x,y,1/2-z
112 1/2+x,1/2+y,-z
113 y,z,-x
114 y,1/2+z,1/2-x
115 1/2+y,z,1/2-x
116 1/2+y,1/2+z,-x
117 z,x,-y
118 z,1/2+x,1/2-y
119 1/2+z,x,1/2-y
120 1/2+z,1/2+x,-y
121 -y,z,x
122 -y,1/2+z,1/2+x
123 1/2-y,z,1/2+x
124 1/2-y,1/2+z,x
125 -z,x,y
126 -z,1/2+x,1/2+y
127 1/2-z,x,1/2+y
128 1/2-z,1/2+x,y
129 z,-x,y
130 z,1/2-x,1/2+y
131 1/2+z,-x,1/2+y
132 1/2+z,1/2-x,y
133 x,-y,z
134 x,1/2-y,1/2+z
135 1/2+x,-y,1/2+z
136 1/2+x,1/2-y,z
137 y,-z,x
138 y,1/2-z,1/2+x
139 1/2+y,-z,1/2+x
140 1/2+y,1/2-z,x
141 -x,y,z
142 -x,1/2+y,1/2+z
143 1/2-x,y,1/2+z
144 1/2-x,1/2+y,z
145 y,x,z
146 y,1/2+x,1/2+z
147 1/2+y,x,1/2+z
148 1/2+y,1/2+x,z
149 z,y,x
150 z,1/2+y,1/2+x
151 1/2+z,y,1/2+x
152 1/2+z,1/2+y,x
153 x,z,y
154 x,1/2+z,1/2+y
155 1/2+x,z,1/2+y
156 1/2+x,1/2+z,y
157 -y,-x,z
158 -y,1/2-x,1/2+z
159 1/2-y,-x,1/2+z
160 1/2-y,1/2-x,z
161 -z,-y,x
162 -z,1/2-y,1/2+x
163 1/2-z,-y,1/2+x
164 1/2-z,1/2-y,x
165 -x,-z,y
166 -x,1/2-z,1/2+y
167 1/2-x,-z,1/2+y
168 1/2-x,1/2-z,y
169 -z,y,-x
170 -z,1/2+y,1/2-x
171 1/2-z,y,1/2-x
172 1/2-z,1/2+y,-x
173 -x,z,-y
174 -x,1/2+z,1/2-y
175 1/2-x,z,1/2-y
176 1/2-x,1/2+z,-y
177 x,-z,-y
178 x,1/2-z,1/2-y
179 1/2+x,-z,1/2-y
180 1/2+x,1/2-z,-y
181 y,-x,-z
182 y,1/2-x,1/2-z
183 1/2+y,-x,1/2-z
184 1/2+y,1/2-x,-z
185 z,-y,-x
186 z,1/2-y,1/2-x
187 1/2+z,-y,1/2-x
188 1/2+z,1/2-y,-x
189 -y,x,-z
190 -y,1/2+x,1/2-z
191 1/2-y,x,1/2-z
192 1/2-y,1/2+x,-z
_cell_length_a                   26.3015(4)
_cell_length_b                   26.3015(4)
_cell_length_c                   26.3015(4)
_cell_angle_alpha                90
_cell_angle_beta                 90
_cell_angle_gamma                90
_cell_volume                     18194.6
loop_
_atom_site_label
_atom_site_type_symbol
_atom_site_fract_x
_atom_site_fract_y
_atom_site_fract_z
_atom_site_U_iso_or_equiv
_atom_site_thermal_displace_type
Cu1 Cu 0.714740(11) 0.214740(11) 0.5000 0.0351 Uani
O1 O 0.65623(9) 0.15623(9) 0.5000 0.0984 Uani
O2 O 0.68313(5) 0.25687(5) 0.55241(5) 0.0544 Uani
C1 C 0.69942(10) 0.36543(7) 0.63457(7) 0.0447 Uani
C2 C 0.67787(7) 0.32213(7) 0.61313(10) 0.0423 Uani
C3 C 0.70349(8) 0.29651(8) 0.56901(10) 0.0444 Uani
H1 H 0.7288 0.3803 0.6197 0.0544 Uiso
Cu1O Cu 0.785260(11) 0.285260(11) 0.5000 0.0351 Uani
Cu1BA Cu 0.5000 0.285260(11) 0.785260(11) 0.0351 Uani
Cu1I Cu 0.5000 0.214740(11) 0.714740(11) 0.0351 Uani
Cu1P Cu 0.785260(11) 0.5000 0.714740(11) 0.0351 Uani
Cu1Z Cu 0.714740(11) 0.5000 0.785260(11) 0.0351 Uani
Cu1Q Cu 0.785260(11) -0.0000 0.214740(11) 0.0351 Uani
Cu1AA Cu 0.714740(11) 0.0000 0.285260(11) 0.0351 Uani
Cu1DA Cu 1.0000 0.285260(11) 0.285260(11) 0.0351 Uani
Cu1K Cu 1.0000 0.214740(11) 0.214740(11) 0.0351 Uani
Cu1T Cu 0.5000 0.285260(11) 0.214740(11) 0.0351 Uani
Cu1GA Cu 0.5000 0.214740(11) 0.285260(11) 0.0351 Uani
Cu1NA Cu 0.785260(11) 0.5000 0.285260(11) 0.0351 Uani
Cu1F Cu 0.714740(11) 0.5000 0.214740(11) 0.0351 Uani
Cu1OA Cu 0.785260(11) 0.0000 0.785260(11) 0.0351 Uani
Cu1G Cu 0.714740(11) 0.0000 0.714740(11) 0.0351 Uani
Cu1V Cu 1.0000 0.285260(11) 0.714740(11) 0.0351 Uani
Cu1IA Cu 1.0000 0.214740(11) 0.785260(11) 0.0351 Uani
O1O O 0.84377(9) 0.34377(9) 0.5000 0.0984 Uani
O1BA O 0.5000 0.34377(9) 0.84377(9) 0.0984 Uani
O1I O 0.5000 0.15623(9) 0.65623(9) 0.0984 Uani
O1P O 0.84377(9) 0.5000 0.65623(9) 0.0984 Uani
O1Z O 0.65623(9) 0.5000 0.84377(9) 0.0984 Uani
O2ZE O 0.74313(5) 0.31687(5) 0.55241(5) 0.0544 Uani
O2BA O 0.55241(5) 0.31687(5) 0.74313(5) 0.0544 Uani
O2RE O 0.55241(5) 0.25687(5) 0.68313(5) 0.0544 Uani
O2P O 0.74313(5) 0.44759(5) 0.68313(5) 0.0544 Uani
O2TF O 0.68313(5) 0.44759(5) 0.74313(5) 0.0544 Uani
O2KB O 0.75687(5) 0.18313(5) 0.44759(5) 0.0544 Uani
O2UC O 0.81687(5) 0.24313(5) 0.44759(5) 0.0544 Uani
O2EC O 0.81687(5) 0.05241(5) 0.25687(5) 0.0544 Uani
O2KD O 0.75687(5) 0.05241(5) 0.31687(5) 0.0544 Uani
O2CB O 0.94759(5) 0.24313(5) 0.31687(5) 0.0544 Uani
O2WD O 0.94759(5) 0.18313(5) 0.25687(5) 0.0544 Uani
O2DD O 0.68313(5) 0.25687(5) 0.44759(5) 0.0544 Uani
O2VA O 0.74313(5) 0.31687(5) 0.44759(5) 0.0544 Uani
O2XD O 0.55241(5) 0.31687(5) 0.25687(5) 0.0544 Uani
O2LB O 0.55241(5) 0.25687(5) 0.31687(5) 0.0544 Uani
O2VC O 0.74313(5) 0.44759(5) 0.31687(5) 0.0544 Uani
O2XB O 0.68313(5) 0.44759(5) 0.25687(5) 0.0544 Uani
O2QE O 0.75687(5) 0.18313(5) 0.55241(5) 0.0544 Uani
O2O O 0.81687(5) 0.24313(5) 0.55241(5) 0.0544 Uani
O2SF O 0.81687(5) 0.05241(5) 0.74313(5) 0.0544 Uani
O2G O 0.75687(5) 0.05241(5) 0.68313(5) 0.0544 Uani
O2GF O 0.94759(5) 0.24313(5) 0.68313(5) 0.0544 Uani
O2IA O 0.94759(5) 0.18313(5) 0.74313(5) 0.0544 Uani
O2AB O 0.44759(5) 0.24313(5) 0.81687(5) 0.0544 Uani
O2ZC O 0.44759(5) 0.31687(5) 0.74313(5) 0.0544 Uani
O2CG O 0.55241(5) 0.24313(5) 0.81687(5) 0.0544 Uani
O2UD O 0.44759(5) 0.18313(5) 0.75687(5) 0.0544 Uani
O2JC O 0.44759(5) 0.25687(5) 0.68313(5) 0.0544 Uani
O2I O 0.55241(5) 0.18313(5) 0.75687(5) 0.0544 Uani
O2DC O 0.81687(5) 0.55241(5) 0.75687(5) 0.0544 Uani
O2PD O 0.74313(5) 0.55241(5) 0.68313(5) 0.0544 Uani
O2JF O 0.81687(5) 0.44759(5) 0.75687(5) 0.0544 Uani
O2JD O 0.75687(5) 0.55241(5) 0.81687(5) 0.0544 Uani
O2PB O 0.68313(5) 0.55241(5) 0.74313(5) 0.0544 Uani
O2Z O 0.75687(5) 0.44759(5) 0.81687(5) 0.0544 Uani
C1P C 0.63457(7) 0.36543(7) 0.69942(10) 0.0447 Uani
C1BA C 0.63457(7) 0.30058(10) 0.63457(7) 0.0447 Uani
C1KB C 0.86543(7) 0.19942(10) 0.36543(7) 0.0447 Uani
C1CB C 0.86543(7) 0.13457(7) 0.30058(10) 0.0447 Uani
C1EC C 0.80058(10) 0.13457(7) 0.36543(7) 0.0447 Uani
C1XB C 0.69942(10) 0.36543(7) 0.36543(7) 0.0447 Uani
C1LB C 0.63457(7) 0.36543(7) 0.30058(10) 0.0447 Uani
C1VA C 0.63457(7) 0.30058(10) 0.36543(7) 0.0447 Uani
C1IA C 0.86543(7) 0.19942(10) 0.63457(7) 0.0447 Uani
C1G C 0.86543(7) 0.13457(7) 0.69942(10) 0.0447 Uani
C1O C 0.80058(10) 0.13457(7) 0.63457(7) 0.0447 Uani
C2P C 0.67787(7) 0.38687(10) 0.67787(7) 0.0423 Uani
C2BA C 0.61313(10) 0.32213(7) 0.67787(7) 0.0423 Uani
C2KB C 0.82213(7) 0.17787(7) 0.38687(10) 0.0423 Uani
C2CB C 0.88687(10) 0.17787(7) 0.32213(7) 0.0423 Uani
C2EC C 0.82213(7) 0.11313(10) 0.32213(7) 0.0423 Uani
C2VA C 0.67787(7) 0.32213(7) 0.38687(10) 0.0423 Uani
C2XB C 0.67787(7) 0.38687(10) 0.32213(7) 0.0423 Uani
C2LB C 0.61313(10) 0.32213(7) 0.32213(7) 0.0423 Uani
C2O C 0.82213(7) 0.17787(7) 0.61313(10) 0.0423 Uani
C2IA C 0.88687(10) 0.17787(7) 0.67787(7) 0.0423 Uani
C2G C 0.82213(7) 0.11313(10) 0.67787(7) 0.0423 Uani
C3BA C 0.56901(10) 0.29651(8) 0.70349(8) 0.0444 Uani
C3P C 0.70349(8) 0.43099(10) 0.70349(8) 0.0444 Uani
C3KB C 0.79651(8) 0.20349(8) 0.43099(10) 0.0444 Uani
C3EC C 0.79651(8) 0.06901(10) 0.29651(8) 0.0444 Uani
C3CB C 0.93099(10) 0.20349(8) 0.29651(8) 0.0444 Uani
C3VA C 0.70349(8) 0.29651(8) 0.43099(10) 0.0444 Uani
C3LB C 0.56901(10) 0.29651(8) 0.29651(8) 0.0444 Uani
C3XB C 0.70349(8) 0.43099(10) 0.29651(8) 0.0444 Uani
C3O C 0.79651(8) 0.20349(8) 0.56901(10) 0.0444 Uani
C3G C 0.79651(8) 0.06901(10) 0.70349(8) 0.0444 Uani
C3IA C 0.93099(10) 0.20349(8) 0.70349(8) 0.0444 Uani
H1P H 0.6197 0.3803 0.7288 0.0544 Uiso
H1BA H 0.6197 0.2712 0.6197 0.0544 Uiso
H1KB H 0.8803 0.2288 0.3803 0.0544 Uiso
H1CB H 0.8803 0.1197 0.2712 0.0544 Uiso
H1EC H 0.7712 0.1197 0.3803 0.0544 Uiso
H1XB H 0.7288 0.3803 0.3803 0.0544 Uiso
H1LB H 0.6197 0.3803 0.2712 0.0544 Uiso
H1VA H 0.6197 0.2712 0.3803 0.0544 Uiso
H1IA H 0.8803 0.2288 0.6197 0.0544 Uiso
H1G H 0.8803 0.1197 0.7288 0.0544 Uiso
H1O H 0.7712 0.1197 0.6197 0.0544 Uiso
loop_
_atom_site_aniso_label
_atom_site_aniso_U_11
_atom_site_aniso_U_22
_atom_site_aniso_U_33
_atom_site_aniso_U_23
_atom_site_aniso_U_13
_atom_site_aniso_U_12
Cu1 0.0372(2) 0.0372(2) 0.0309(2) 0.0000 0.0000 -0.01013(18)
O1 0.0866(18) 0.0866(18) 0.122(3) 0.0000 0.0000 -0.050(2)
O2 0.0560(9) 0.0545(9) 0.0527(8) -0.0134(7) 0.0148(7) -0.0132(7)
C1 0.0422(14) 0.0459(9) 0.0459(9) -0.0012(12) 0.0060(8) -0.0060(8)
C2 0.0428(9) 0.0428(9) 0.0413(13) -0.0044(8) 0.0044(8) -0.0052(11)
C3 0.0488(10) 0.0488(10) 0.0356(13) -0.0026(8) 0.0026(8) -0.0043(12)
Cu1O 0.0372 0.0372 0.0309 0 0 -0.01013
Cu1BA 0.0309 0.0372 0.0372 -0.01013 0 0
Cu1I 0.0309 0.0372 0.0372 -0.01013 0 0
Cu1P 0.0372 0.0309 0.0372 0 0.01013 0
Cu1Z 0.0372 0.0309 0.0372 0 0.01013 0
Cu1Q 0.0372 0.0309 0.0372 0 0.01013 0
Cu1AA 0.0372 0.0309 0.0372 0 0.01013 0
Cu1DA 0.0309 0.0372 0.0372 -0.01013 0 0
Cu1K 0.0309 0.0372 0.0372 -0.01013 0 0
Cu1T 0.0309 0.0372 0.0372 0.01013 0 0
Cu1GA 0.0309 0.0372 0.0372 0.01013 0 0
Cu1NA 0.0372 0.0309 0.0372 0 -0.01013 0
Cu1F 0.0372 0.0309 0.0372 0 -0.01013 0
Cu1OA 0.0372 0.0309 0.0372 0 -0.01013 0
Cu1G 0.0372 0.0309 0.0372 0 -0.01013 0
Cu1V 0.0309 0.0372 0.0372 0.01013 0 0
Cu1IA 0.0309 0.0372 0.0372 0.01013 0 0
O1O 0.0866 0.0866 0.122 0 0 -0.05
O1BA 0.122 0.0866 0.0866 -0.05 0 0
O1I 0.122 0.0866 0.0866 -0.05 0 0
O1P 0.0866 0.122 0.0866 0 0.05 0
O1Z 0.0866 0.122 0.0866 0 0.05 0
O2ZE 0.0545 0.056 0.0527 -0.0148 0.0134 -0.0132
O2BA 0.0527 0.056 0.0545 -0.0132 0.0134 -0.0148
O2RE 0.0527 0.0545 0.056 -0.0132 0.0148 -0.0134
O2P 0.0545 0.0527 0.056 -0.0148 0.0132 -0.0134
O2TF 0.056 0.0527 0.0545 -0.0134 0.0132 -0.0148
O2KB 0.0545 0.056 0.0527 -0.0148 0.0134 -0.0132
O2UC 0.056 0.0545 0.0527 -0.0134 0.0148 -0.0132
O2EC 0.056 0.0527 0.0545 -0.0134 0.0132 -0.0148
O2KD 0.0545 0.0527 0.056 -0.0148 0.0132 -0.0134
O2CB 0.0527 0.0545 0.056 -0.0132 0.0148 -0.0134
O2WD 0.0527 0.056 0.0545 -0.0132 0.0134 -0.0148
O2DD 0.056 0.0545 0.0527 0.0134 -0.0148 -0.0132
O2VA 0.0545 0.056 0.0527 0.0148 -0.0134 -0.0132
O2XD 0.0527 0.056 0.0545 0.0132 -0.0134 -0.0148
O2LB 0.0527 0.0545 0.056 0.0132 -0.0148 -0.0134
O2VC 0.0545 0.0527 0.056 0.0148 -0.0132 -0.0134
O2XB 0.056 0.0527 0.0545 0.0134 -0.0132 -0.0148
O2QE 0.0545 0.056 0.0527 0.0148 -0.0134 -0.0132
O2O 0.056 0.0545 0.0527 0.0134 -0.0148 -0.0132
O2SF 0.056 0.0527 0.0545 0.0134 -0.0132 -0.0148
O2G 0.0545 0.0527 0.056 0.0148 -0.0132 -0.0134
O2GF 0.0527 0.0545 0.056 0.0132 -0.0148 -0.0134
O2IA 0.0527 0.056 0.0545 0.0132 -0.0134 -0.0148
O2AB 0.0527 0.0545 0.056 -0.0132 0.0148 -0.0134
O2ZC 0.0527 0.056 0.0545 -0.0132 -0.0134 0.0148
O2CG 0.0527 0.0545 0.056 -0.0132 -0.0148 0.0134
O2UD 0.0527 0.056 0.0545 -0.0132 0.0134 -0.0148
O2JC 0.0527 0.0545 0.056 -0.0132 -0.0148 0.0134
O2I 0.0527 0.056 0.0545 -0.0132 -0.0134 0.0148
O2DC 0.056 0.0527 0.0545 -0.0134 0.0132 -0.0148
O2PD 0.0545 0.0527 0.056 0.0148 0.0132 0.0134
O2JF 0.056 0.0527 0.0545 0.0134 0.0132 0.0148
O2JD 0.0545 0.0527 0.056 -0.0148 0.0132 -0.0134
O2PB 0.056 0.0527 0.0545 0.0134 0.0132 0.0148
O2Z 0.0545 0.0527 0.056 0.0148 0.0132 0.0134
C1P 0.0459 0.0459 0.0422 -0.006 0.006 -0.0012
C1BA 0.0459 0.0422 0.0459 -0.006 0.0012 -0.006
C1KB 0.0459 0.0422 0.0459 -0.006 0.0012 -0.006
C1CB 0.0459 0.0459 0.0422 -0.006 0.006 -0.0012
C1EC 0.0422 0.0459 0.0459 -0.0012 0.006 -0.006
C1XB 0.0422 0.0459 0.0459 0.0012 -0.006 -0.006
C1LB 0.0459 0.0459 0.0422 0.006 -0.006 -0.0012
C1VA 0.0459 0.0422 0.0459 0.006 -0.0012 -0.006
C1IA 0.0459 0.0422 0.0459 0.006 -0.0012 -0.006
C1G 0.0459 0.0459 0.0422 0.006 -0.006 -0.0012
C1O 0.0422 0.0459 0.0459 0.0012 -0.006 -0.006
C2P 0.0428 0.0413 0.0428 -0.0044 0.0052 -0.0044
C2BA 0.0413 0.0428 0.0428 -0.0052 0.0044 -0.0044
C2KB 0.0428 0.0428 0.0413 -0.0044 0.0044 -0.0052
C2CB 0.0413 0.0428 0.0428 -0.0052 0.0044 -0.0044
C2EC 0.0428 0.0413 0.0428 -0.0044 0.0052 -0.0044
C2VA 0.0428 0.0428 0.0413 0.0044 -0.0044 -0.0052
C2XB 0.0428 0.0413 0.0428 0.0044 -0.0052 -0.0044
C2LB 0.0413 0.0428 0.0428 0.0052 -0.0044 -0.0044
C2O 0.0428 0.0428 0.0413 0.0044 -0.0044 -0.0052
C2IA 0.0413 0.0428 0.0428 0.0052 -0.0044 -0.0044
C2G 0.0428 0.0413 0.0428 0.0044 -0.0052 -0.0044
C3BA 0.0356 0.0488 0.0488 -0.0043 0.0026 -0.0026
C3P 0.0488 0.0356 0.0488 -0.0026 0.0043 -0.0026
C3KB 0.0488 0.0488 0.0356 -0.0026 0.0026 -0.0043
C3EC 0.0488 0.0356 0.0488 -0.0026 0.0043 -0.0026
C3CB 0.0356 0.0488 0.0488 -0.0043 0.0026 -0.0026
C3VA 0.0488 0.0488 0.0356 0.0026 -0.0026 -0.0043
C3LB 0.0356 0.0488 0.0488 0.0043 -0.0026 -0.0026
C3XB 0.0488 0.0356 0.0488 0.0026 -0.0043 -0.0026
C3O 0.0488 0.0488 0.0356 0.0026 -0.0026 -0.0043
C3G 0.0488 0.0356 0.0488 0.0026 -0.0043 -0.0026
C3IA 0.0356 0.0488 0.0488 0.0043 -0.0026 -0.0026
loop_
_geom_bond_atom_site_label_1
_geom_bond_atom_site_label_2
_geom_bond_site_symmetry_1
_geom_bond_site_symmetry_2
Cu1 O1 1_555 1_555
O2 Cu1 1_555 1_555
C1 C2 1_555 1_555
C2 C3 1_555 1_555
C3 O2 1_555 1_555
H1 C1 1_555 1_555
Cu1O O1O 1_555 1_555
Cu1BA O1BA 1_555 1_555
Cu1I O1I 1_555 1_555
Cu1P O1P 1_555 1_555
Cu1Z O1Z 1_555 1_555
Cu1Q O2EC 1_555 1_555
Cu1AA O2KD 1_555 1_555
Cu1DA O2CB 1_555 1_555
Cu1K O2WD 1_555 1_555
Cu1T O2XD 1_555 1_555
Cu1GA O2LB 1_555 1_555
Cu1NA O2VC 1_555 1_555
Cu1F O2XB 1_555 1_555
Cu1OA O2SF 1_555 1_555
Cu1G O2G 1_555 1_555
Cu1V O2GF 1_555 1_555
Cu1IA O2IA 1_555 1_555
O2ZE C3 1_555 1_555
O2BA Cu1BA 1_555 1_555
O2RE Cu1I 1_555 1_555
O2P Cu1P 1_555 1_555
O2TF Cu1Z 1_555 1_555
O2KB Cu1 1_555 1_555
O2UC Cu1O 1_555 1_555
O2EC C3EC 1_555 1_555
O2KD C3EC 1_555 1_555
O2CB C3CB 1_555 1_555
O2WD C3CB 1_555 1_555
O2DD Cu1 1_555 1_555
O2VA Cu1O 1_555 1_555
O2XD C3LB 1_555 1_555
O2LB C3LB 1_555 1_555
O2VC C3XB 1_555 1_555
O2XB C3XB 1_555 1_555
O2QE Cu1 1_555 1_555
O2O Cu1O 1_555 1_555
O2SF C3G 1_555 1_555
O2G C3G 1_555 1_555
O2GF C3IA 1_555 1_555
O2IA C3IA 1_555 1_555
O2AB Cu1BA 1_555 1_555
O2ZC Cu1BA 1_555 1_555
O2CG Cu1BA 1_555 1_555
O2UD Cu1I 1_555 1_555
O2JC Cu1I 1_555 1_555
O2I Cu1I 1_555 1_555
O2DC Cu1P 1_555 1_555
O2PD Cu1P 1_555 1_555
O2JF Cu1P 1_555 1_555
O2JD Cu1Z 1_555 1_555
O2PB Cu1Z 1_555 1_555
O2Z Cu1Z 1_555 1_555
C1P C2P 1_555 1_555
C1BA C2 1_555 1_555
C1KB C2KB 1_555 1_555
C1CB C2CB 1_555 1_555
C1EC C2KB 1_555 1_555
C1XB C2VA 1_555 1_555
C1LB C2XB 1_555 1_555
C1VA C2VA 1_555 1_555
C1IA C2O 1_555 1_555
C1G C2IA 1_555 1_555
C1O C2O 1_555 1_555
C2P C1 1_555 1_555
C2BA C1P 1_555 1_555
C2KB C3KB 1_555 1_555
C2CB C1KB 1_555 1_555
C2EC C1CB 1_555 1_555
C2VA C3VA 1_555 1_555
C2XB C1XB 1_555 1_555
C2LB C1LB 1_555 1_555
C2O C3O 1_555 1_555
C2IA C1IA 1_555 1_555
C2G C1G 1_555 1_555
C3BA O2BA 1_555 1_555
C3P O2P 1_555 1_555
C3KB O2KB 1_555 1_555
C3EC C2EC 1_555 1_555
C3CB C2CB 1_555 1_555
C3VA O2DD 1_555 1_555
C3LB C2LB 1_555 1_555
C3XB C2XB 1_555 1_555
C3O O2QE 1_555 1_555
C3G C2G 1_555 1_555
C3IA C2IA 1_555 1_555
H1P C1P 1_555 1_555
H1BA C1BA 1_555 1_555
H1KB C1KB 1_555 1_555
H1CB C1CB 1_555 1_555
H1EC C1EC 1_555 1_555
H1XB C1XB 1_555 1_555
H1LB C1LB 1_555 1_555
H1VA C1VA 1_555 1_555
H1IA C1IA 1_555 1_555
H1G C1G 1_555 1_555
H1O C1O 1_555 1_555
Cu1O O2ZE 1_555 1_555
O2RE C3BA 1_555 1_555
O2TF C3P 1_555 1_555
O2UC C3KB 1_555 1_555
O2VA C3VA 1_555 1_555
O2O C3O 1_555 1_555
C1BA C2BA 1_555 1_555
C1EC C2EC 1_555 1_555
C1VA C2LB 1_555 1_555
C1O C2G 1_555 1_555
C2P C3P 1_555 1_555
C2BA C3BA 1_555 1_555

#END
