
#######################################################################
#
#                 Cambridge Crystallographic Data Centre
#                                CCDC 
#
#######################################################################
#
# If this CIF has been generated from an entry in the Cambridge 
# Structural Database, then it will include bibliographic, chemical, 
# crystal, experimental, refinement or atomic coordinate data resulting 
# from the CCDC's data processing and validation procedures.
#
#######################################################################

data_OGUPIQ
_chemical_formula_moiety         '(C32 H42 Co5 N4 O28)n'
_symmetry_cell_setting           monoclinic
_symmetry_space_group_name_H-M   'C 2/c'
_symmetry_Int_Tables_number      15
_space_group_name_Hall           '-C 2yc'
loop_
_symmetry_equiv_pos_site_id
_symmetry_equiv_pos_as_xyz
1 x,y,z
2 -x,y,1/2-z
3 1/2+x,1/2+y,z
4 1/2-x,1/2+y,1/2-z
5 -x,-y,-z
6 x,-y,1/2+z
7 1/2-x,1/2-y,-z
8 1/2+x,1/2-y,1/2+z
_cell_length_a                   35.432(2)
_cell_length_b                   11.1832(7)
_cell_length_c                   21.4750(14)
_cell_angle_alpha                90
_cell_angle_beta                 94.8360(10)
_cell_angle_gamma                90
_cell_volume                     8479.03
loop_
_atom_site_label
_atom_site_type_symbol
_atom_site_fract_x
_atom_site_fract_y
_atom_site_fract_z
Co1 Co 0.67402(2) 0.91933(8) 0.76004(4)
Co2 Co 0.59773(2) 0.77741(8) 0.81984(4)
Co3 Co 0.37128(2) 1.05198(8) 0.62658(5)
Co4 Co 0.63948(2) 1.38569(8) 0.43624(5)
Co5 Co 0.57030(2) 1.25543(8) 0.49540(4)
O1 O 0.62321(12) 0.9726(5) 0.7105(3)
O2 O 0.58345(13) 0.8231(4) 0.7265(2)
O3 O 0.44575(12) 0.8923(4) 0.6613(2)
O4 O 0.42653(12) 1.0819(4) 0.6603(2)
O5 O 0.67817(14) 0.7334(4) 0.7549(2)
O6 O 0.63359(12) 0.6376(4) 0.8023(2)
O7 O 0.64730(15) 0.1960(4) 0.8320(3)
O8 O 0.68389(13) 0.0995(4) 0.7689(3)
O9 O 0.43866(13) 0.9265(4) 0.5023(2)
O10 O 0.38905(12) 1.0060(4) 0.5429(2)
O11 O 0.38999(13) 1.4624(4) 0.5629(2)
O12 O 0.42834(14) 1.5586(4) 0.5037(2)
O13 O 0.61949(12) 1.2243(5) 0.5524(2)
O14 O 0.66173(12) 1.3573(4) 0.5251(2)
O15 O 0.80196(13) 1.2629(5) 0.5846(3)
O16 O 0.81169(13) 1.0673(5) 0.5906(2)
O17 O 0.64376(11) 0.8985(4) 0.8374(2)
H1 H 0.6615 0.8598 0.8701
O18 O 0.60442(11) 0.7479(4) 0.9178(2)
H2 H 0.6215 0.8162 0.9307
N1 N 0.54573(14) 1.2821(5) 0.5852(3)
H3 H 0.5620 1.3309 0.6093
H4 H 0.5235 1.3240 0.5770
N2 N 0.76740(14) 0.4166(5) 0.6860(3)
H5 H 0.7664 0.4816 0.6596
H6 H 0.7667 0.3497 0.6609
N3 N 0.51922(14) 1.2616(5) 0.4325(3)
H7 H 0.5191 1.3328 0.4109
H8 H 0.5205 1.2011 0.4037
N4 N 0.69323(16) 0.8974(5) 0.6676(3)
H9 H 0.6747 0.8565 0.6437
H10 H 0.7143 0.8490 0.6713
C1 C 0.55873(9) 1.0020(3) 0.6776(2)
C2 C 0.52132(10) 0.9678(3) 0.6819(2)
H11 H 0.5158 0.8950 0.7020
C3 C 0.49198(8) 1.0402(4) 0.6569(2)
C4 C 0.50004(9) 1.1468(3) 0.6275(2)
H12 H 0.4800 1.1963 0.6103
C5 C 0.53745(10) 1.1810(3) 0.6231(2)
C6 C 0.56679(8) 1.1086(4) 0.6482(2)
H13 H 0.5924 1.1320 0.6452
C7 C 0.59102(18) 0.9270(7) 0.7071(3)
C8 C 0.45202(17) 1.0031(6) 0.6601(3)
C9 C 0.68271(11) 0.5241(3) 0.7615(2)
C10 C 0.66851(10) 0.4168(3) 0.7824(2)
H14 H 0.6466 0.4167 0.8051
C11 C 0.68637(11) 0.3097(3) 0.7702(2)
C12 C 0.71843(11) 0.3098(3) 0.7371(2)
H15 H 0.7306 0.2366 0.7288
C13 C 0.73263(10) 0.4171(3) 0.7162(2)
C14 C 0.71478(11) 0.5242(3) 0.7284(2)
H16 H 0.7245 0.5975 0.7141
C15 C 0.66295(18) 0.6407(6) 0.7740(3)
C16 C 0.67143(19) 0.1915(6) 0.7914(3)
C17 C 0.43492(11) 1.1353(3) 0.5023(2)
C18 C 0.41779(9) 1.2399(3) 0.5206(2)
H17 H 0.3952 1.2361 0.5414
C19 C 0.43375(10) 1.3502(3) 0.5086(2)
C20 C 0.46683(10) 1.3558(3) 0.4782(2)
H18 H 0.4777 1.4312 0.4700
C21 C 0.48396(9) 1.2512(3) 0.4599(2)
C22 C 0.46801(10) 1.1409(3) 0.4720(2)
H19 H 0.4797 1.0694 0.4595
C23 C 0.41963(18) 1.0135(6) 0.5170(3)
C24 C 0.41601(17) 1.4662(6) 0.5261(3)
C25 C 0.68373(9) 1.1849(3) 0.5811(2)
C26 C 0.72151(11) 1.2123(3) 0.5751(2)
H20 H 0.7280 1.2844 0.5552
C27 C 0.74982(8) 1.1340(4) 0.5981(2)
C28 C 0.74034(10) 1.0284(4) 0.6271(2)
H21 H 0.7597 0.9749 0.6428
C29 C 0.70256(11) 1.0010(3) 0.6332(2)
C30 C 0.67425(8) 1.0793(4) 0.6102(2)
H22 H 0.6484 1.0606 0.6143
C31 C 0.65279(18) 1.2621(6) 0.5514(3)
C32 C 0.79027(18) 1.1582(7) 0.5899(3)
O19 O 0.55469(19) 0.6453(6) 0.8073(4)
H23 H 0.5635(11) 0.5765(18) 0.815(4)
H24 H 0.5426(17) 0.651(5) 0.773(2)
O20 O 0.31493(19) 1.0468(7) 0.5710(3)
H25 H 0.3144(13) 0.987(5) 0.546(3)
H26 H 0.3120(14) 1.111(4) 0.549(3)
Co1_2 Co 0.67402(2) -0.08067(8) 0.76004(4)
Co1C Co 0.82598(2) 0.41933(8) 0.73996(4)
Co2A Co 0.40227(2) 0.77741(8) 0.68016(4)
Co3A Co 0.62872(2) 0.05198(8) 0.87342(5)
Co3A_2 Co 0.62872(2) 1.05198(8) 0.87342(5)
Co4D Co 0.36052(2) 1.61431(8) 0.56376(5)
Co4F Co 0.86052(2) 1.11431(8) 0.56376(5)
Co4E Co 0.63948(2) 0.61431(8) 0.93624(5)
Co5D Co 0.42970(2) 0.74457(8) 0.50460(4)
Co5D_2 Co 0.42970(2) 1.74457(8) 0.50460(4)
Co5E Co 0.57030(2) 0.74457(8) 0.99540(4)
O3A O 0.55425(12) 0.8923(4) 0.8387(2)
O7A O 0.35270(15) 1.1960(4) 0.6680(3)
O8_2 O 0.68389(13) 1.0995(4) 0.7689(3)
O9D O 0.56134(13) 1.0735(4) 0.4977(2)
O11D O 0.61001(13) 1.5376(4) 0.4371(2)
O12D O 0.57166(14) 1.4414(4) 0.4963(2)
O16F O 0.68831(13) 1.4327(5) 0.4094(2)
O17A O 0.35624(11) 0.8985(4) 0.6626(2)
H1A H 0.3385 0.8598 0.6299
O18E O 0.60442(11) 1.2521(4) 0.4178(2)
H2E H 0.6215 1.1838 0.4307
N2C N 0.73260(14) 0.9166(5) 0.8140(3)
H5C H 0.7336 0.9816 0.8404
H6C H 0.7333 0.8497 0.8391
O21 O 0.5705(2) 0.3378(7) 0.8170(5)
O22 O 0.5091(3) 0.4717(9) 0.8639(5)
O23 O 0.7483(3) 0.3135(10) 0.1092(6)
O24 O 0.6786(4) 0.4065(11) 0.0695(6)
O25 O 0.8027(3) 0.1808(10) 0.0515(6)
O26 O 0.5708(5) 0.4592(14) 0.6997(8)
O27 O 0.6150(4) 0.6777(14) 0.6361(6)
O28 O 0.5267(8) 0.658(2) 0.6888(15)
loop_
_geom_bond_atom_site_label_1
_geom_bond_atom_site_label_2
_geom_bond_site_symmetry_1
_geom_bond_site_symmetry_2
Co1 O1 1_555 1_555
Co2 O2 1_555 1_555
Co3 O4 1_555 1_555
Co4 O14 1_555 1_555
Co5 O13 1_555 1_555
O1 C7 1_555 1_555
O2 C7 1_555 1_555
O3 C8 1_555 1_555
O4 C8 1_555 1_555
O5 Co1 1_555 1_555
O6 Co2 1_555 1_555
O7 C16 1_555 1_555
O8 C16 1_555 1_555
O9 C23 1_555 1_555
O10 Co3 1_555 1_555
O11 C24 1_555 1_555
O12 C24 1_555 1_555
O13 C31 1_555 1_555
O14 C31 1_555 1_555
O15 C32 1_555 1_555
O16 C32 1_555 1_555
O17 Co1 1_555 1_555
H1 O17 1_555 1_555
O18 Co2 1_555 1_555
H2 O18 1_555 1_555
N1 Co5 1_555 1_555
H3 N1 1_555 1_555
H4 N1 1_555 1_555
N2 H5 1_555 1_555
H6 N2 1_555 1_555
N3 Co5 1_555 1_555
H7 N3 1_555 1_555
H8 N3 1_555 1_555
N4 Co1 1_555 1_555
H9 N4 1_555 1_555
H10 N4 1_555 1_555
C1 C2 1_555 1_555
C2 H11 1_555 1_555
C3 C2 1_555 1_555
C4 C3 1_555 1_555
H12 C4 1_555 1_555
C5 N1 1_555 1_555
C6 C1 1_555 1_555
H13 C6 1_555 1_555
C7 C1 1_555 1_555
C8 C3 1_555 1_555
C9 C10 1_555 1_555
C10 H14 1_555 1_555
C11 C10 1_555 1_555
C12 C11 1_555 1_555
H15 C12 1_555 1_555
C13 N2 1_555 1_555
C14 C9 1_555 1_555
H16 C14 1_555 1_555
C15 O5 1_555 1_555
C16 C11 1_555 1_555
C17 C18 1_555 1_555
C18 H17 1_555 1_555
C19 C18 1_555 1_555
C20 C19 1_555 1_555
H18 C20 1_555 1_555
C21 N3 1_555 1_555
C22 C17 1_555 1_555
H19 C22 1_555 1_555
C23 O10 1_555 1_555
C24 C19 1_555 1_555
C25 C26 1_555 1_555
C26 H20 1_555 1_555
C27 C26 1_555 1_555
C28 C27 1_555 1_555
H21 C28 1_555 1_555
C29 N4 1_555 1_555
C30 C25 1_555 1_555
H22 C30 1_555 1_555
C31 C25 1_555 1_555
C32 C27 1_555 1_555
O19 Co2 1_555 1_555
H23 O19 1_555 1_555
H24 O19 1_555 1_555
O20 Co3 1_555 1_555
H25 O20 1_555 1_555
H26 O20 1_555 1_555
Co1_2 O8 1_555 1_555
Co1C N2 1_555 1_555
Co2A O3 1_555 1_555
Co3A O7 1_555 1_555
Co3A_2 O17 1_555 1_555
Co4D O11 1_555 1_555
Co4F O16 1_555 1_555
Co4E O18 1_555 1_555
Co5D O9 1_555 1_555
Co5D_2 O12 1_555 1_555
Co5E O18 1_555 1_555
O3A Co2 1_555 1_555
O7A Co3 1_555 1_555
O8_2 Co1 1_555 1_555
O9D Co5 1_555 1_555
O11D Co4 1_555 1_555
O12D Co5 1_555 1_555
O16F Co4 1_555 1_555
O17A Co3 1_555 1_555
H1A O17A 1_555 1_555
O18E Co4 1_555 1_555
H2E O18E 1_555 1_555
N2C Co1 1_555 1_555
H5C N2C 1_555 1_555
H6C N2C 1_555 1_555
Co2 O17 1_555 1_555
Co5 O18E 1_555 1_555
O6 C15 1_555 1_555
C4 C5 1_555 1_555
C5 C6 1_555 1_555
C9 C15 1_555 1_555
C12 C13 1_555 1_555
C13 C14 1_555 1_555
C17 C23 1_555 1_555
C20 C21 1_555 1_555
C21 C22 1_555 1_555
C28 C29 1_555 1_555
C29 C30 1_555 1_555
Co2A O17A 1_555 1_555

#END
