
#######################################################################
#
#                 Cambridge Crystallographic Data Centre
#                                CCDC 
#
#######################################################################
#
# If this CIF has been generated from an entry in the Cambridge 
# Structural Database, then it will include bibliographic, chemical, 
# crystal, experimental, refinement or atomic coordinate data resulting 
# from the CCDC's data processing and validation procedures.
#
#######################################################################

data_ELUJAY
_chemical_formula_moiety         '(C32 H22 N4 O21 Sm2 Zn1)n'
_symmetry_cell_setting           orthorhombic
_symmetry_space_group_name_H-M   'I b a 2'
_symmetry_Int_Tables_number      45
_space_group_name_Hall           'I 2 -2c'
loop_
_symmetry_equiv_pos_site_id
_symmetry_equiv_pos_as_xyz
1 x,y,z
2 -x,-y,z
3 -x,y,1/2+z
4 x,-y,1/2+z
5 1/2+x,1/2+y,1/2+z
6 1/2-x,1/2-y,1/2+z
7 1/2-x,1/2+y,z
8 1/2+x,1/2-y,z
_cell_length_a                   13.390(3)
_cell_length_b                   24.074(5)
_cell_length_c                   13.179(3)
_cell_angle_alpha                90
_cell_angle_beta                 90
_cell_angle_gamma                90
_cell_volume                     4248.26
loop_
_atom_site_label
_atom_site_type_symbol
_atom_site_fract_x
_atom_site_fract_y
_atom_site_fract_z
O1 O 0.2986(9) 1.1124(5) 0.2086(10)
O2 O 0.4325(8) 1.0612(6) 0.2118(11)
C1 C 0.3413(12) 1.0699(8) 0.2315(12)
Sm1 Sm 0.44108(4) 0.84298(2) 0.61653(10)
Zn1 Zn 0.0000 0.5000 0.6179(3)
O3 O 0.5130(8) 0.7388(4) 0.6259(12)
O4 O 0.3536(8) 0.7574(4) 0.6103(14)
C2 C 0.3355(11) 0.5523(6) 0.5845(12)
H1 H 0.3159 0.5158 0.5729
C3 C 0.3971(10) 0.6615(5) 0.6098(19)
C4 C 0.2631(10) 0.5933(6) 0.5966(14)
C5 C 0.2986(12) 0.6476(6) 0.6043(13)
H2 H 0.2519 0.6762 0.6058
O5 O 0.1313(7) 0.5323(4) 0.5880(8)
C6 C 0.1565(10) 0.5816(5) 0.5998(13)
C7 C 0.4690(11) 0.6192(5) 0.6031(15)
H3 H 0.5366 0.6277 0.6077
O6 O 0.4722(12) 0.8197(5) 0.7873(10)
H4 H 0.4199 0.8255 0.8222
H5 H 0.4883 0.7856 0.7912
O7 O 0.4943(12) 0.8090(6) 0.4518(10)
H6 H 0.4974 0.7737 0.4532
H7 H 0.4526 0.8192 0.4069
C8 C 0.4392(8) 0.5656(7) 0.5897(12)
C9 C 0.4268(11) 0.7230(6) 0.6215(18)
C10 C 0.3406(11) 0.9095(8) 0.4673(12)
C11 C 0.3381(9) 0.9889(7) 0.3485(10)
H8 H 0.4073 0.9910 0.3533
O8 O 0.0992(7) 0.6221(3) 0.6150(12)
N1 N 0.5152(9) 0.5239(5) 0.5850(9)
C12 C 0.2834(11) 1.0273(6) 0.2890(12)
C13 C 0.2843(10) 0.9476(6) 0.4002(13)
O9 O 0.3026(8) 0.8636(5) 0.4961(10)
O10 O 0.4289(9) 0.9255(5) 0.5005(10)
C14 C 0.1792(10) 0.9434(7) 0.3904(13)
H9 H 0.1451 0.9138 0.4198
C15 C 0.1793(10) 1.0268(6) 0.2887(12)
H10 H 0.1437 1.0550 0.2567
C16 C 0.1287(9) 0.9828(6) 0.3377(11)
N2 N 0.0241(10) 0.9769(5) 0.3363(11)
O1A O -0.2986(9) 0.8876(5) 0.2086(10)
O2A O -0.4325(8) 0.9388(6) 0.2118(11)
C1A C -0.3413(12) 0.9301(8) 0.2315(12)
C10A C -0.3406(11) 1.0905(8) 0.4673(12)
C11A C -0.3381(9) 1.0111(7) 0.3485(10)
H8A H -0.4073 1.0090 0.3533
C12A C -0.2834(11) 0.9727(6) 0.2890(12)
C13A C -0.2843(10) 1.0524(6) 0.4002(13)
O9A O -0.3026(8) 1.1364(5) 0.4961(10)
O10A O -0.4289(9) 1.0745(5) 0.5005(10)
C14A C -0.1792(10) 1.0566(7) 0.3904(13)
H9A H -0.1451 1.0862 0.4198
C15A C -0.1793(10) 0.9732(6) 0.2887(12)
H10A H -0.1437 0.9450 0.2567
C16A C -0.1287(9) 1.0172(6) 0.3377(11)
N2A N -0.0241(10) 1.0231(5) 0.3363(11)
O3A O 0.4870(8) 0.2612(4) 0.6259(12)
O4A O 0.6464(8) 0.2426(4) 0.6103(14)
C2A C 0.6645(11) 0.4477(6) 0.5845(12)
H1A H 0.6841 0.4842 0.5729
C3A C 0.6029(10) 0.3385(5) 0.6098(19)
C4A C 0.7369(10) 0.4067(6) 0.5966(14)
C5A C 0.7014(12) 0.3524(6) 0.6043(13)
H2A H 0.7481 0.3238 0.6058
O5A O 0.8687(7) 0.4677(4) 0.5880(8)
C6A C 0.8435(10) 0.4184(5) 0.5998(13)
C7A C 0.5310(11) 0.3808(5) 0.6031(15)
H3A H 0.4634 0.3723 0.6077
C8A C 0.5608(8) 0.4344(7) 0.5897(12)
C9A C 0.5732(11) 0.2770(6) 0.6215(18)
O8A O 0.9008(7) 0.3779(3) 0.6150(12)
N1A N 0.4848(9) 0.4761(5) 0.5850(9)
Sm1C Sm 0.44108(4) 1.15702(2) 0.11653(10)
O6C O 0.4722(12) 1.1803(5) 0.2873(10)
H4C H 0.4199 1.1745 0.3222
H5C H 0.4883 1.2144 0.2912
O7C O 0.4943(12) 1.1910(6) -0.0482(10)
H6C H 0.4974 1.2263 -0.0468
H7C H 0.4526 1.1808 -0.0931
O1C O 0.2986(9) 0.8876(5) 0.7086(10)
O2C O 0.4325(8) 0.9388(6) 0.7118(11)
O2D O -0.0675(8) 0.5612(6) 0.7118(11)
O2E O 0.0675(8) 0.4388(6) 0.7118(11)
Sm1A Sm -0.44108(4) 1.15702(2) 0.61653(10)
Sm1A_2 Sm 0.55892(4) 0.15702(2) 0.61653(10)
Sm1B Sm -0.44108(4) 0.84298(2) 0.11653(10)
Sm1F Sm 1.05892(4) 0.34298(2) 0.61653(10)
Sm1G Sm -0.05892(4) 0.65702(2) 0.61653(10)
Zn1_2 Zn 1.0000 0.5000 0.6179(3)
Zn1D Zn -0.5000 1.0000 0.1179(3)
Zn1D_2 Zn 0.5000 1.0000 0.1179(3)
Zn1F Zn -0.5000 1.0000 0.6179(3)
Zn1F_2 Zn 0.5000 1.0000 0.6179(3)
O3C O 0.5130(8) 1.2612(4) 0.1259(12)
O4C O 0.3536(8) 1.2426(4) 0.1103(14)
O5A_2 O -0.1313(7) 0.4677(4) 0.5880(8)
O8D O 0.5992(7) 1.1221(3) 0.1150(12)
O8G O 0.5992(7) 0.8779(3) 0.6150(12)
O9C O 0.3026(8) 1.1364(5) -0.0039(10)
O10C O 0.4289(9) 1.0745(5) 0.0005(10)
O10F O 0.0711(9) 0.4255(5) 0.5005(10)
O10G O -0.0711(9) 0.5745(5) 0.5005(10)
O11 O 0.1252(9) 0.8024(6) 0.4487(11)
H11 H 0.1287 0.7703 0.4753
H12 H 0.0747 0.8195 0.4721
loop_
_geom_bond_atom_site_label_1
_geom_bond_atom_site_label_2
_geom_bond_site_symmetry_1
_geom_bond_site_symmetry_2
O1 C1 1_555 1_555
O2 C1 1_555 1_555
C1 C12 1_555 1_555
Sm1 O3 1_555 1_555
Zn1 O5 1_555 1_555
O3 C9 1_555 1_555
O4 Sm1 1_555 1_555
C2 H1 1_555 1_555
C3 C5 1_555 1_555
C4 C2 1_555 1_555
C5 C4 1_555 1_555
H2 C5 1_555 1_555
O5 C6 1_555 1_555
C6 C4 1_555 1_555
C7 C3 1_555 1_555
H3 C7 1_555 1_555
O6 Sm1 1_555 1_555
H4 O6 1_555 1_555
H5 O6 1_555 1_555
O7 Sm1 1_555 1_555
H6 O7 1_555 1_555
H7 O7 1_555 1_555
C8 C2 1_555 1_555
C9 O4 1_555 1_555
C10 C13 1_555 1_555
C11 H8 1_555 1_555
O8 C6 1_555 1_555
N1 C8 1_555 1_555
C12 C11 1_555 1_555
C13 C11 1_555 1_555
O9 Sm1 1_555 1_555
O10 Sm1 1_555 1_555
C14 C13 1_555 1_555
H9 C14 1_555 1_555
C15 C12 1_555 1_555
H10 C15 1_555 1_555
C16 C14 1_555 1_555
N2 C16 1_555 1_555
O11 H11 1_555 1_555
H12 O11 1_555 1_555
O1A C1A 1_555 1_555
O2A C1A 1_555 1_555
C1A C12A 1_555 1_555
C10A C13A 1_555 1_555
C11A H8A 1_555 1_555
C12A C11A 1_555 1_555
C13A C11A 1_555 1_555
O9A C10A 1_555 1_555
O10A C10A 1_555 1_555
C14A C13A 1_555 1_555
H9A C14A 1_555 1_555
C15A C12A 1_555 1_555
H10A C15A 1_555 1_555
C16A C14A 1_555 1_555
N2A N2 1_555 1_555
O3A C9A 1_555 1_555
O4A C9A 1_555 1_555
C2A H1A 1_555 1_555
C3A C5A 1_555 1_555
C4A C2A 1_555 1_555
C5A C4A 1_555 1_555
H2A C5A 1_555 1_555
O5A C6A 1_555 1_555
C6A C4A 1_555 1_555
C7A C3A 1_555 1_555
H3A C7A 1_555 1_555
C8A C2A 1_555 1_555
C9A C3A 1_555 1_555
O8A C6A 1_555 1_555
N1A N1 1_555 1_555
Sm1C O1 1_555 1_555
O6C Sm1C 1_555 1_555
H4C O6C 1_555 1_555
H5C O6C 1_555 1_555
O7C Sm1C 1_555 1_555
H6C O7C 1_555 1_555
H7C O7C 1_555 1_555
O1C Sm1 1_555 1_555
O2C Sm1 1_555 1_555
O2D Zn1 1_555 1_555
O2E Zn1 1_555 1_555
Sm1A O9A 1_555 1_555
Sm1A_2 O3A 1_555 1_555
Sm1B O1A 1_555 1_555
Sm1F O8A 1_555 1_555
Sm1G O8 1_555 1_555
Zn1_2 O5A 1_555 1_555
Zn1D O2A 1_555 1_555
Zn1D_2 O2 1_555 1_555
Zn1F O10A 1_555 1_555
Zn1F_2 O10 1_555 1_555
O3C Sm1C 1_555 1_555
O4C Sm1C 1_555 1_555
O5A_2 Zn1 1_555 1_555
O8D Sm1C 1_555 1_555
O8G Sm1 1_555 1_555
O9C Sm1C 1_555 1_555
O10C Sm1C 1_555 1_555
O10F Zn1 1_555 1_555
O10G Zn1 1_555 1_555
O2 Sm1C 1_555 1_555
C3 C9 1_555 1_555
C7 C8 1_555 1_555
C10 O9 1_555 1_555
C10 O10 1_555 1_555
C15 C16 1_555 1_555
O2A Sm1B 1_555 1_555
O10A Sm1A 1_555 1_555
C15A C16A 1_555 1_555
C16A N2A 1_555 1_555
O4A Sm1A_2 1_555 1_555
C7A C8A 1_555 1_555
C8A N1A 1_555 1_555
O2C Zn1F_2 1_555 1_555
O2D Sm1G 1_555 1_555
Sm1G O10G 1_555 1_555
Zn1D_2 O10C 1_555 1_555

#END
