
#######################################################################
#
#                 Cambridge Crystallographic Data Centre
#                                CCDC 
#
#######################################################################
#
# If this CIF has been generated from an entry in the Cambridge 
# Structural Database, then it will include bibliographic, chemical, 
# crystal, experimental, refinement or atomic coordinate data resulting 
# from the CCDC's data processing and validation procedures.
#
#######################################################################

data_KIYQIU
_chemical_formula_moiety         '(C17 H17 N3 O11 Zn2)n'
_symmetry_cell_setting           monoclinic
_symmetry_space_group_name_H-M   'P 21/n'
_symmetry_Int_Tables_number      14
_space_group_name_Hall           '-P 2yn'
loop_
_symmetry_equiv_pos_site_id
_symmetry_equiv_pos_as_xyz
1 x,y,z
2 1/2-x,1/2+y,1/2-z
3 -x,-y,-z
4 1/2+x,1/2-y,1/2+z
_cell_length_a                   14.2107(15)
_cell_length_b                   12.1800(16)
_cell_length_c                   14.2834(12)
_cell_angle_alpha                90
_cell_angle_beta                 105.093(11)
_cell_angle_gamma                90
_cell_volume                     2386.98
loop_
_atom_site_label
_atom_site_type_symbol
_atom_site_fract_x
_atom_site_fract_y
_atom_site_fract_z
_atom_site_U_iso_or_equiv
_atom_site_thermal_displace_type
Zn1 Zn 0.34589(18) 0.98450(19) 0.65791(16) 0.0330 Uiso
O1 O 0.2369(8) 1.0963(8) 0.6722(7) 0.0450 Uiso
O2 O 0.1565(8) 1.2464(9) 0.6163(8) 0.0510 Uiso
O3 O 0.4651(7) 1.2331(8) 0.2943(7) 0.0480 Uiso
O4 O 0.5362(7) 1.1025(9) 0.3938(7) 0.0510 Uiso
N1 N 0.3569(9) 1.1132(10) 0.5652(10) 0.0510 Uiso
C1 C 0.2851(11) 1.1899(16) 0.5502(11) 0.0550 Uiso
C2 C 0.2708(11) 1.2647(14) 0.4765(11) 0.0510 Uiso
H1 H 0.2206 1.3159 0.4666 0.0610 Uiso
C3 C 0.3339(11) 1.2617(13) 0.4170(11) 0.0590 Uiso
H2 H 0.3270 1.3130 0.3674 0.0710 Uiso
C4 C 0.4057(13) 1.1851(15) 0.4301(11) 0.0550 Uiso
C5 C 0.4143(12) 1.1140(12) 0.5087(11) 0.0520 Uiso
H3 H 0.4652 1.0636 0.5212 0.0620 Uiso
C6 C 0.4727(11) 1.1765(15) 0.3666(11) 0.0540 Uiso
C7 C 0.2204(11) 1.1796(15) 0.6169(12) 0.0510 Uiso
Zn2 Zn 0.43801(15) 0.75810(19) 0.79909(15) 0.0370 Uiso
O5 O 0.4183(7) 0.9295(10) 0.8006(7) 0.0530 Uiso
O6 O 0.5020(8) 1.0852(9) 0.8230(7) 0.0570 Uiso
O7 O 0.8353(8) 0.7777(9) 1.1862(8) 0.0510 Uiso
O8 O 0.7544(8) 0.6294(8) 1.1184(8) 0.0460 Uiso
N2 N 0.5587(9) 0.8117(12) 0.9129(9) 0.0570 Uiso
C8 C 0.5659(12) 0.9222(14) 0.9203(12) 0.0510 Uiso
C9 C 0.6331(12) 0.9696(14) 0.9925(12) 0.0540 Uiso
H4 H 0.6342 1.0458 0.9966 0.0650 Uiso
C10 C 0.6983(11) 0.9128(15) 1.0588(11) 0.0580 Uiso
H5 H 0.7447 0.9484 1.1074 0.0700 Uiso
C11 C 0.6949(11) 0.7990(17) 1.0532(10) 0.0560 Uiso
C12 C 0.6239(12) 0.7500(14) 0.9810(12) 0.0590 Uiso
H6 H 0.6198 0.6739 0.9782 0.0710 Uiso
C13 C 0.7682(11) 0.7335(13) 1.1243(11) 0.0580 Uiso
C14 C 0.4910(12) 0.9867(14) 0.8431(11) 0.0540 Uiso
O9 O 0.4916(7) 0.5933(9) 0.8309(7) 0.0530 Uiso
N3 N 0.4759(8) 0.4153(11) 0.8043(8) 0.0530 Uiso
C15 C 0.4354(12) 0.3199(15) 0.7453(12) 0.0530 Uiso
H7 H 0.4621 0.2540 0.7787 0.0790 Uiso
H8 H 0.4517 0.3238 0.6843 0.0790 Uiso
H9 H 0.3659 0.3195 0.7343 0.0790 Uiso
C16 C 0.4526(11) 0.5161(13) 0.7772(11) 0.0530 Uiso
H10 H 0.4074 0.5304 0.7185 0.0630 Uiso
C17 C 0.5441(11) 0.3941(13) 0.8975(12) 0.0530 Uiso
H11 H 0.5534 0.3163 0.9064 0.0790 Uiso
H12 H 0.5186 0.4234 0.9483 0.0790 Uiso
H13 H 0.6054 0.4284 0.8995 0.0790 Uiso
Zn1B Zn 0.65411(18) 1.01550(19) 0.34209(16) 0.0330 Uiso
Zn1C Zn 0.84589(18) 0.51550(19) 1.15791(16) 0.0330 Uiso
O2A O 0.3435(8) 0.7464(9) 0.8837(8) 0.0510 Uiso
O3B O 0.5349(7) 0.7669(8) 0.7057(7) 0.0480 Uiso
O4B O 0.4638(7) 0.8975(9) 0.6062(7) 0.0510 Uiso
Zn2A Zn 0.06199(15) 1.25810(19) 0.70091(15) 0.0370 Uiso
Zn2B Zn 0.56199(15) 1.24190(19) 0.20091(15) 0.0370 Uiso
Zn2C Zn 0.93801(15) 0.74190(19) 1.29909(15) 0.0370 Uiso
O7C O 0.3353(8) 0.7223(9) 0.6862(8) 0.0510 Uiso
O8C O 0.2544(8) 0.8706(8) 0.6184(8) 0.0460 Uiso
O10 O 0.696(4) 0.469(5) 0.783(4) 0.1000 Uiso
O11 O 0.572(4) 0.326(4) 0.609(4) 0.1000 Uiso
loop_
_geom_bond_atom_site_label_1
_geom_bond_atom_site_label_2
_geom_bond_site_symmetry_1
_geom_bond_site_symmetry_2
Zn1 O1 1_555 1_555
O1 C7 1_555 1_555
O2 C7 1_555 1_555
O3 C6 1_555 1_555
O4 C6 1_555 1_555
N1 Zn1 1_555 1_555
C1 N1 1_555 1_555
C2 C1 1_555 1_555
H1 C2 1_555 1_555
C3 C2 1_555 1_555
H2 C3 1_555 1_555
C4 C3 1_555 1_555
C5 N1 1_555 1_555
H3 C5 1_555 1_555
C6 C4 1_555 1_555
C7 C1 1_555 1_555
Zn2 O5 1_555 1_555
O5 Zn1 1_555 1_555
O6 C14 1_555 1_555
O7 C13 1_555 1_555
O8 C13 1_555 1_555
N2 Zn2 1_555 1_555
C8 N2 1_555 1_555
C9 C8 1_555 1_555
H4 C9 1_555 1_555
C10 C9 1_555 1_555
H5 C10 1_555 1_555
C11 C10 1_555 1_555
C12 N2 1_555 1_555
H6 C12 1_555 1_555
C13 C11 1_555 1_555
C14 O5 1_555 1_555
O9 Zn2 1_555 1_555
N3 C15 1_555 1_555
C15 H7 1_555 1_555
H8 C15 1_555 1_555
H9 C15 1_555 1_555
C16 O9 1_555 1_555
H10 C16 1_555 1_555
C17 N3 1_555 1_555
H11 C17 1_555 1_555
H12 C17 1_555 1_555
H13 C17 1_555 1_555
Zn1B O4 1_555 1_555
Zn1C O8 1_555 1_555
O2A Zn2 1_555 1_555
O3B Zn2 1_555 1_555
O4B Zn1 1_555 1_555
Zn2A O2 1_555 1_555
Zn2B O3 1_555 1_555
Zn2C O7 1_555 1_555
O7C Zn2 1_555 1_555
O8C Zn1 1_555 1_555
C4 C5 1_555 1_555
C8 C14 1_555 1_555
C11 C12 1_555 1_555
N3 C16 1_555 1_555

#END
