
#######################################################################
#
#                 Cambridge Crystallographic Data Centre
#                                CCDC 
#
#######################################################################
#
# If this CIF has been generated from an entry in the Cambridge 
# Structural Database, then it will include bibliographic, chemical, 
# crystal, experimental, refinement or atomic coordinate data resulting 
# from the CCDC's data processing and validation procedures.
#
#######################################################################

data_KABXAO
_chemical_formula_moiety         'C10 H20 Cu8 N5 O66 W12'
_symmetry_cell_setting           triclinic
_symmetry_space_group_name_H-M   'P -1'
_symmetry_Int_Tables_number      2
_space_group_name_Hall           '-P 1'
loop_
_symmetry_equiv_pos_site_id
_symmetry_equiv_pos_as_xyz
1 x,y,z
2 -x,-y,-z
_cell_length_a                   12.7137(12)
_cell_length_b                   13.3301(6)
_cell_length_c                   13.4034(15)
_cell_angle_alpha                64.676(7)
_cell_angle_beta                 61.810(10)
_cell_angle_gamma                84.079(6)
_cell_volume                     1795.71
loop_
_atom_site_label
_atom_site_type_symbol
_atom_site_fract_x
_atom_site_fract_y
_atom_site_fract_z
O24 O -1.1177(9) 0.5346(7) 0.1155(8)
O26 O -1.5000 0.0000 0.0000
O27 O -0.9720(14) 0.6883(12) 0.0417(14)
O28 O -1.2845(16) 0.6415(13) 0.0937(14)
O30 O -1.2027(16) 0.5301(13) 0.3247(16)
O32 O -1.403(2) 0.0491(18) 0.605(2)
O33 O -1.614(2) 0.8025(17) 0.092(2)
W1 W -1.14831(5) 0.26308(4) 0.54495(5)
W2 W -1.02551(5) -0.25734(4) 0.76313(5)
W3 W -1.17405(5) -0.03474(4) 0.75227(5)
W4 W -0.99618(5) 0.20566(4) 0.70131(5)
W5 W -1.14920(5) 0.01618(4) 0.29184(5)
W6 W -1.17209(5) -0.17827(4) 0.59619(5)
Cu1 Cu -1.0000 0.5000 0.5000
Cu2 Cu -1.5000 0.5000 1.0000
O1 O -1.0920(8) 0.4077(6) 0.4831(8)
O2 O -1.1735(8) 0.0881(6) 0.6203(7)
O3 O -1.1361(8) -0.3006(6) 0.7318(7)
O4 O -1.1648(8) -0.0415(6) 0.4725(7)
O5 O -1.2607(8) -0.1282(6) 0.7289(7)
O6 O -1.1371(8) -0.1856(6) 0.8565(7)
O7 O -0.9640(8) 0.2197(6) 0.5154(7)
O8 O -0.9001(8) -0.1580(6) 0.7356(8)
O9 O -1.2927(9) -0.0248(8) 0.8829(9)
O10 O -1.1534(8) -0.1449(6) 0.3409(8)
O11 O -1.0393(8) 0.0263(6) 0.7427(8)
O12 O -1.3018(8) 0.0215(7) 0.3480(9)
O13 O -1.2917(9) -0.2565(7) 0.6246(9)
O14 O -1.0394(8) -0.0983(6) 0.6160(7)
O15 O -1.1479(8) 0.2252(6) 0.7035(7)
O16 O -1.1043(8) 0.2644(6) 0.3883(7)
O17 O -1.0210(9) -0.3800(7) 0.8782(9)
O18 O -1.1008(9) 0.0449(7) 0.1312(8)
O19 O -1.0466(10) 0.1630(7) 0.8618(8)
O20 O -0.9392(9) 0.3469(7) 0.6314(9)
N1 N -1.1444(11) 0.4901(9) 0.6584(10)
O21 O -1.3019(8) 0.2702(7) 0.5972(9)
C1 C -1.1395(14) 0.4701(11) 0.7609(13)
H1 H -1.0668 0.4565 0.7622
O22 O -1.5494(11) 0.5377(10) 0.8736(11)
N2 N -1.3456(12) 0.4897(10) 0.8676(11)
C2 C -1.2532(13) 0.5065(11) 0.6606(12)
H2 H -1.2607 0.5175 0.5910
O23 O -1.4855(11) 0.5500(11) 0.6809(11)
C3 C -1.3527(14) 0.5066(11) 0.7672(13)
C4 C -1.2404(14) 0.4690(12) 0.8677(14)
H3 H -1.2345 0.4537 0.9392
C5 C -1.4694(17) 0.5293(13) 0.7737(16)
Cu3 Cu -1.011(3) -0.003(4) 0.009(3)
O25 O -1.1412(11) -0.0900(9) 0.0377(10)
O29 O -1.4489(14) 0.7021(11) 0.9374(14)
W1A W -0.85169(5) -0.26308(4) 0.45505(5)
W2A W -0.97449(5) 0.25734(4) 0.23687(5)
W3A W -0.82595(5) 0.03474(4) 0.24773(5)
W4A W -1.00382(5) -0.20566(4) 0.29869(5)
W5A W -0.85080(5) -0.01618(4) 0.70816(5)
W6A W -0.82791(5) 0.17827(4) 0.40381(5)
Cu1_2 Cu -1.0000 -0.5000 0.5000
Cu2_2 Cu -0.5000 0.5000 0.0000
O1A O -0.9080(8) -0.4077(6) 0.5169(8)
O1A_2 O -0.9080(8) 0.5923(6) 0.5169(8)
O2A O -0.8265(8) -0.0881(6) 0.3797(7)
O3A O -0.8639(8) 0.3006(6) 0.2682(7)
O4A O -0.8352(8) 0.0415(6) 0.5275(7)
O5A O -0.7393(8) 0.1282(6) 0.2711(7)
O6A O -0.8629(8) 0.1856(6) 0.1435(7)
O7A O -1.0360(8) -0.2197(6) 0.4846(7)
O8A O -1.0999(8) 0.1580(6) 0.2644(8)
O9A O -0.7073(9) 0.0248(8) 0.1171(9)
O10A O -0.8466(8) 0.1449(6) 0.6591(8)
O11A O -0.9607(8) -0.0263(6) 0.2573(8)
O12A O -0.6982(8) -0.0215(7) 0.6520(9)
O13A O -0.7083(9) 0.2565(7) 0.3754(9)
O14A O -0.9606(8) 0.0983(6) 0.3840(7)
O15A O -0.8521(8) -0.2252(6) 0.2965(7)
O16A O -0.8957(8) -0.2644(6) 0.6117(7)
O17A O -0.9790(9) 0.3800(7) 0.1218(9)
O18A O -0.8992(9) -0.0449(7) 0.8688(8)
O18A_2 O -0.8992(9) -0.0449(7) -0.1312(8)
O18_2 O -1.1008(9) 0.0449(7) 1.1312(8)
O19A O -0.9534(10) -0.1630(7) 0.1382(8)
O19_2 O -1.0466(10) 0.1630(7) -0.1382(8)
O19A_2 O -0.9534(10) -0.1630(7) 1.1382(8)
O20A O -1.0608(9) -0.3469(7) 0.3686(9)
O20A_2 O -1.0608(9) 0.6531(7) 0.3686(9)
N1A N -0.8556(11) 0.5099(9) 0.3416(10)
O21A O -0.6981(8) -0.2702(7) 0.4028(9)
C1A C -0.8605(14) 0.5299(11) 0.2391(13)
H1A H -0.9332 0.5435 0.2378
O22A O -0.4506(11) 0.4623(10) 0.1264(11)
O22A_2 O -1.4506(11) 0.4623(10) 1.1264(11)
N2A N -0.6544(12) 0.5103(10) 0.1324(11)
N2A_2 N -1.6544(12) 0.5103(10) 1.1324(11)
C2A C -0.7468(13) 0.4935(11) 0.3394(12)
H2A H -0.7393 0.4825 0.4090
O23A O -0.5145(11) 0.4500(11) 0.3191(11)
C3A C -0.6473(14) 0.4934(11) 0.2328(13)
C4A C -0.7596(14) 0.5310(12) 0.1323(14)
H3A H -0.7655 0.5463 0.0608
C5A C -0.5306(17) 0.4707(13) 0.2263(16)
Cu3A Cu -0.989(3) 0.003(4) 0.991(3)
Cu3A_2 Cu -0.989(3) 0.003(4) -0.009(3)
Cu3_2 Cu -1.011(3) -0.003(4) 1.009(3)
O25A O -0.8588(11) 0.0900(9) -0.0377(10)
O25A_2 O -0.8588(11) 0.0900(9) 0.9623(10)
O25_2 O -1.1412(11) -0.0900(9) 1.0377(10)
O29A O -1.5511(14) 0.2979(11) 1.0626(14)
loop_
_geom_bond_atom_site_label_1
_geom_bond_atom_site_label_2
_geom_bond_site_symmetry_1
_geom_bond_site_symmetry_2
W1 O1 1_555 1_555
W2 O3 1_555 1_555
W3 O2 1_555 1_555
W4 O7 1_555 1_555
W5 O4 1_555 1_555
W6 O3 1_555 1_555
Cu1 O1 1_555 1_555
Cu2 O22 1_555 1_555
O2 W1 1_555 1_555
O4 W6 1_555 1_555
O5 W3 1_555 1_555
O6 W2 1_555 1_555
O7 W1 1_555 1_555
O8 W2 1_555 1_555
O9 W3 1_555 1_555
O10 W5 1_555 1_555
O11 W3 1_555 1_555
O12 W5 1_555 1_555
O13 W6 1_555 1_555
O14 W2 1_555 1_555
O15 W1 1_555 1_555
O16 W1 1_555 1_555
O17 W2 1_555 1_555
O18 W5 1_555 1_555
O19 W4 1_555 1_555
O20 W4 1_555 1_555
N1 Cu1 1_555 1_555
O21 W1 1_555 1_555
C1 N1 1_555 1_555
H1 C1 1_555 1_555
O22 C5 1_555 1_555
N2 Cu2 1_555 1_555
C2 N1 1_555 1_555
H2 C2 1_555 1_555
O23 C5 1_555 1_555
C3 N2 1_555 1_555
C4 C1 1_555 1_555
H3 C4 1_555 1_555
C5 C3 1_555 1_555
Cu3 O18 1_555 1_555
O25 Cu3 1_555 1_555
O29 Cu2 1_555 1_555
W1A O1A 1_555 1_555
W2A O16 1_555 1_555
W3A O2A 1_555 1_555
W4A O10 1_555 1_555
W5A O8 1_555 1_555
W6A O7 1_555 1_555
Cu1_2 O1A 1_555 1_555
Cu2_2 O22A 1_555 1_555
O1A_2 Cu1 1_555 1_555
O2A W1A 1_555 1_555
O3A W2A 1_555 1_555
O4A W5A 1_555 1_555
O5A W3A 1_555 1_555
O6A W2A 1_555 1_555
O7A W6 1_555 1_555
O8A W5 1_555 1_555
O9A W3A 1_555 1_555
O10A W4 1_555 1_555
O11A W5 1_555 1_555
O12A W5A 1_555 1_555
O13A W6A 1_555 1_555
O14A W2A 1_555 1_555
O15A W1A 1_555 1_555
O16A W2 1_555 1_555
O17A W2A 1_555 1_555
O18A W5A 1_555 1_555
O18A_2 Cu3 1_555 1_555
O18_2 Cu3A 1_555 1_555
O19A Cu3 1_555 1_555
O19_2 Cu3 1_555 1_555
O19A_2 Cu3A 1_555 1_555
O20A W4A 1_555 1_555
O20A_2 Cu1 1_555 1_555
N1A Cu1 1_555 1_555
O21A W1A 1_555 1_555
C1A N1A 1_555 1_555
H1A C1A 1_555 1_555
O22A C5A 1_555 1_555
O22A_2 Cu2 1_555 1_555
N2A Cu2_2 1_555 1_555
N2A_2 Cu2 1_555 1_555
C2A N1A 1_555 1_555
H2A C2A 1_555 1_555
O23A C5A 1_555 1_555
C3A N2A 1_555 1_555
C4A C1A 1_555 1_555
H3A C4A 1_555 1_555
C5A C3A 1_555 1_555
Cu3A O19 1_555 1_555
Cu3A_2 O18 1_555 1_555
Cu3_2 O19 1_555 1_555
O25A Cu3 1_555 1_555
O25A_2 Cu3A 1_555 1_555
O25_2 Cu3A 1_555 1_555
O29A Cu2 1_555 1_555
W3 O6 1_555 1_555
W3 O14 1_555 1_555
W4 O11 1_555 1_555
W4 O15 1_555 1_555
W6 O5 1_555 1_555
W6 O14 1_555 1_555
Cu1 O20 1_555 1_555
O11 W5A 1_555 1_555
N2 C4 1_555 1_555
C2 C3 1_555 1_555
Cu3 Cu3A_2 1_555 1_555
O25 Cu3A_2 1_555 1_555
W1A O7A 1_555 1_555
W1A O16A 1_555 1_555
W2A O8A 1_555 1_555
W3A O6A 1_555 1_555
W3A O11A 1_555 1_555
W3A O14A 1_555 1_555
W4A O7A 1_555 1_555
W4A O11A 1_555 1_555
W4A O15A 1_555 1_555
W4A O19A 1_555 1_555
W5A O10A 1_555 1_555
W6A O3A 1_555 1_555
W6A O4A 1_555 1_555
W6A O5A 1_555 1_555
W6A O14A 1_555 1_555
Cu1_2 O20A 1_555 1_555
O18A Cu3A 1_555 1_555
O18A Cu3_2 1_555 1_555
O18A_2 Cu3A_2 1_555 1_555
O18_2 Cu3_2 1_555 1_555
O19A Cu3A_2 1_555 1_555
O19_2 Cu3A_2 1_555 1_555
O19A_2 Cu3_2 1_555 1_555
N2A C4A 1_555 1_555
C2A C3A 1_555 1_555
Cu3A Cu3_2 1_555 1_555
Cu3A_2 O25A 1_555 1_555
Cu3_2 O25A_2 1_555 1_555
Cu3_2 O25_2 1_555 1_555

#END
