
#######################################################################
#
#                 Cambridge Crystallographic Data Centre
#                                CCDC 
#
#######################################################################
#
# If this CIF has been generated from an entry in the Cambridge 
# Structural Database, then it will include bibliographic, chemical, 
# crystal, experimental, refinement or atomic coordinate data resulting 
# from the CCDC's data processing and validation procedures.
#
#######################################################################

data_DIMQIB
_chemical_formula_moiety         '(C56 H45 Co3 N7 O18)n'
_symmetry_cell_setting           monoclinic
_symmetry_space_group_name_H-M   'C 2/c'
_symmetry_Int_Tables_number      15
_space_group_name_Hall           '-C 2yc'
loop_
_symmetry_equiv_pos_site_id
_symmetry_equiv_pos_as_xyz
1 x,y,z
2 -x,y,1/2-z
3 1/2+x,1/2+y,z
4 1/2-x,1/2+y,1/2-z
5 -x,-y,-z
6 x,-y,1/2+z
7 1/2-x,1/2-y,-z
8 1/2+x,1/2-y,1/2+z
_cell_length_a                   47.400(4)
_cell_length_b                   9.6110(7)
_cell_length_c                   17.8051(13)
_cell_angle_alpha                90
_cell_angle_beta                 92.2100(10)
_cell_angle_gamma                90
_cell_volume                     8105.28
loop_
_atom_site_label
_atom_site_type_symbol
_atom_site_fract_x
_atom_site_fract_y
_atom_site_fract_z
Co1 Co 0.67717(2) 0.67715(11) 0.49146(5)
Co2 Co 0.7500 0.7500 0.5000
N1 N 0.63574(14) 0.6794(9) 0.5258(3)
N2 N 0.56086(17) 0.6619(12) 0.6443(5)
N3 N 0.6712(2) 0.5065(11) 0.2749(5)
O1 O 0.71883(9) 0.5966(5) 0.4734(2)
O2 O 0.68905(11) 0.4727(5) 0.5364(3)
O3 O 0.68634(10) 0.7856(5) 0.5872(2)
O4 O 0.73356(10) 0.7882(5) 0.6029(2)
O5 O 0.67854(10) 1.1621(6) 0.9184(2)
O6 O 0.72392(10) 1.1082(5) 0.9452(3)
O7 O 0.5873(6) 0.726(6) 0.7464(14)
O8 O 0.5348(4) 0.607(5) 0.5379(16)
O9 O 0.66243(11) 0.5574(6) 0.3956(3)
C1 C 0.71248(17) 0.4836(9) 0.5060(4)
C2 C 0.73211(15) 0.3636(8) 0.5024(4)
C3 C 0.72847(15) 0.2520(9) 0.5502(4)
H1 H 0.7140 0.2528 0.5841
C4 C 0.75332(15) 0.3619(8) 0.4530(4)
H2 H 0.7557 0.4372 0.4210
C5 C 0.70188(18) 1.1065(8) 0.9061(4)
C6 C 0.70912(18) 0.8133(8) 0.6215(4)
C7 C 0.70751(16) 0.8881(8) 0.6960(4)
C8 C 0.68235(17) 0.9475(9) 0.7157(4)
H3 H 0.6665 0.9401 0.6834
C9 C 0.68035(17) 1.0202(9) 0.7852(4)
H4 H 0.6635 1.0625 0.7977
C10 C 0.70315(16) 1.0265(8) 0.8325(4)
C11 C 0.72814(18) 0.9702(9) 0.8113(4)
H5 H 0.7442 0.9785 0.8428
C12 C 0.72976(18) 0.9006(9) 0.7432(4)
H6 H 0.7469 0.8617 0.7303
C13 C 0.62174(18) 0.5638(11) 0.5339(5)
H7 H 0.6289 0.4822 0.5141
C14 C 0.5959(2) 0.5575(13) 0.5719(6)
H8 H 0.5861 0.4740 0.5752
C15 C 0.5860(2) 0.6714(16) 0.6024(5)
C16 C 0.5998(2) 0.7894(13) 0.5928(6)
H9 H 0.5927 0.8723 0.6111
C17 C 0.62433(19) 0.7896(11) 0.5564(5)
H10 H 0.6338 0.8738 0.5528
C18 C 0.5643(16) 0.702(6) 0.720(4)
C19 C 0.5392(15) 0.695(7) 0.763(5)
C20 C 0.5125(2) 0.6575(15) 0.7302(7)
C21 C 0.5101(18) 0.616(7) 0.646(5)
C22 C 0.5361(16) 0.618(7) 0.604(6)
C23 C 0.5405(6) 0.711(6) 0.8383(18)
H11 H 0.5581 0.7238 0.8620
C24 C 0.4844(7) 0.597(6) 0.6147(18)
H12 H 0.4823 0.5854 0.5629
C25 C 0.6754(2) 0.5638(11) 0.3389(6)
H13 H 0.6912 0.6206 0.3424
C26 C 0.6419(14) 0.476(15) 0.252(3)
H14 H 0.6392 0.3766 0.2506
H15 H 0.6378 0.5136 0.2029
H16 H 0.6295 0.5160 0.2872
C27 C 0.6894(3) 0.5191(14) 0.2110(6)
H17 H 0.6957 0.6135 0.2070
H18 H 0.6790 0.4932 0.1658
H19 H 0.7054 0.4587 0.2183
N1A N 0.36426(14) 0.6794(9) 0.9742(3)
N2A N 0.43914(17) 0.6619(12) 0.8557(5)
O7A O 0.4127(6) 0.726(6) 0.7536(14)
O8A O 0.4652(4) 0.607(5) 0.9621(16)
C13A C 0.37826(18) 0.5638(11) 0.9661(5)
H7A H 0.3711 0.4822 0.9859
C14A C 0.4041(2) 0.5575(13) 0.9281(6)
H8A H 0.4139 0.4740 0.9248
C15A C 0.4140(2) 0.6714(16) 0.8976(5)
C16A C 0.4002(2) 0.7894(13) 0.9072(6)
H9A H 0.4073 0.8723 0.8889
C17A C 0.37567(19) 0.7896(11) 0.9436(5)
H10A H 0.3662 0.8738 0.9472
C18A C 0.4357(16) 0.702(6) 0.780(4)
C19A C 0.4608(15) 0.695(7) 0.737(5)
C20A C 0.4875(2) 0.6575(15) 0.7698(7)
C21A C 0.4899(18) 0.616(7) 0.854(5)
C22A C 0.4639(16) 0.618(7) 0.896(6)
C23A C 0.4595(6) 0.711(6) 0.6617(18)
H11A H 0.4419 0.7238 0.6380
C24A C 0.5156(7) 0.597(6) 0.8853(18)
H12A H 0.5177 0.5854 0.9371
O1F O 0.78117(9) -0.0966(5) 0.5266(2)
O2F O 0.81095(11) 0.0273(5) 0.4636(3)
C1F C 0.78752(17) 0.0164(9) 0.4940(4)
C2F C 0.76789(15) 0.1364(8) 0.4976(4)
C3F C 0.77153(15) 0.2480(9) 0.4498(4)
H1F H 0.7860 0.2472 0.4159
C4F C 0.74668(15) 0.1381(8) 0.5470(4)
H2F H 0.7443 0.0628 0.5790
Co1A Co 0.32283(2) 0.67715(11) 1.00854(5)
N3A N 0.3288(2) 0.5065(11) 1.2251(5)
O3A O 0.31366(10) 0.7856(5) 0.9128(2)
O4A O 0.26644(10) 0.7882(5) 0.8971(2)
O5A O 0.32146(10) 1.1621(6) 0.5816(2)
O6A O 0.27608(10) 1.1082(5) 0.5548(3)
O9A O 0.33757(11) 0.5574(6) 1.1044(3)
C5A C 0.29812(18) 1.1065(8) 0.5939(4)
C6A C 0.29088(18) 0.8133(8) 0.8785(4)
C7A C 0.29249(16) 0.8881(8) 0.8040(4)
C8A C 0.31765(17) 0.9475(9) 0.7843(4)
H3A H 0.3335 0.9401 0.8166
C9A C 0.31965(17) 1.0202(9) 0.7148(4)
H4A H 0.3365 1.0625 0.7023
C10A C 0.29685(16) 1.0265(8) 0.6675(4)
C11A C 0.27186(18) 0.9702(9) 0.6887(4)
H5A H 0.2558 0.9785 0.6572
C12A C 0.27024(18) 0.9006(9) 0.7568(4)
H6A H 0.2531 0.8617 0.7697
C25A C 0.3246(2) 0.5638(11) 1.1611(6)
H13A H 0.3088 0.6206 1.1576
C26A C 0.3581(14) 0.476(15) 1.248(3)
H14A H 0.3608 0.3766 1.2494
H15A H 0.3622 0.5136 1.2971
H16A H 0.3705 0.5160 1.2128
C27A C 0.3106(3) 0.5191(14) 1.2890(6)
H17A H 0.3043 0.6135 1.2930
H18A H 0.3210 0.4932 1.3342
H19A H 0.2946 0.4587 1.2817
Co1D Co 0.32283(2) 1.32285(11) 0.50854(5)
Co1E Co 0.67717(2) 1.32285(11) 0.99146(5)
Co1F Co 0.82283(2) -0.17715(11) 0.50854(5)
Co2_2 Co 0.7500 -0.2500 0.5000
Co2A Co 0.2500 0.7500 1.0000
Co2B Co 0.2500 1.2500 0.5000
Co2C Co 0.7500 1.2500 1.0000
O1A O 0.28117(9) 0.5966(5) 1.0266(2)
O1F_2 O 0.78117(9) 0.9034(5) 0.5266(2)
O2A O 0.31095(11) 0.4727(5) 0.9636(3)
O4F O 0.76644(10) 0.7118(5) 0.3971(2)
O5D O 0.32146(10) 0.8379(6) 1.0816(2)
O5E O 0.67854(10) 0.8379(6) 0.4184(2)
O6C O 0.77608(10) 0.6082(5) 0.5548(3)
O6E O 0.72392(10) 0.8918(5) 0.4452(3)
N4 N 0.6492(18) 0.174(3) 0.548(4)
C35 C 0.6278(17) 0.177(6) 0.513(9)
C36 C 0.5960(12) 0.182(4) 0.510(4)
H25 H 0.5893 0.1874 0.5601
H26 H 0.5887 0.1003 0.4856
H27 H 0.5899 0.2632 0.4822
loop_
_geom_bond_atom_site_label_1
_geom_bond_atom_site_label_2
_geom_bond_site_symmetry_1
_geom_bond_site_symmetry_2
Co1 N1 1_555 1_555
Co2 O1 1_555 1_555
N1 C13 1_555 1_555
N2 C15 1_555 1_555
N3 C25 1_555 1_555
O1 Co1 1_555 1_555
O2 Co1 1_555 1_555
O3 Co1 1_555 1_555
O4 Co2 1_555 1_555
O5 C5 1_555 1_555
O6 C5 1_555 1_555
O7 C18 1_555 1_555
O8 C22 1_555 1_555
O9 Co1 1_555 1_555
C1 O1 1_555 1_555
C2 C1 1_555 1_555
C3 C2 1_555 1_555
H1 C3 1_555 1_555
C4 C2 1_555 1_555
H2 C4 1_555 1_555
C5 C10 1_555 1_555
C6 O3 1_555 1_555
C7 C6 1_555 1_555
C8 C7 1_555 1_555
H3 C8 1_555 1_555
C9 C8 1_555 1_555
H4 C9 1_555 1_555
C10 C9 1_555 1_555
C11 C10 1_555 1_555
H5 C11 1_555 1_555
C12 C7 1_555 1_555
H6 C12 1_555 1_555
C13 H7 1_555 1_555
C14 C13 1_555 1_555
H8 C14 1_555 1_555
C15 C14 1_555 1_555
C16 C15 1_555 1_555
H9 C16 1_555 1_555
C17 N1 1_555 1_555
H10 C17 1_555 1_555
C18 N2 1_555 1_555
C19 C18 1_555 1_555
C20 C19 1_555 1_555
C21 C20 1_555 1_555
C22 N2 1_555 1_555
C23 C19 1_555 1_555
H11 C23 1_555 1_555
C24 C21 1_555 1_555
H12 C24 1_555 1_555
C25 O9 1_555 1_555
H13 C25 1_555 1_555
C26 N3 1_555 1_555
H14 C26 1_555 1_555
H15 C26 1_555 1_555
H16 C26 1_555 1_555
C27 N3 1_555 1_555
H17 C27 1_555 1_555
H18 C27 1_555 1_555
H19 C27 1_555 1_555
N4 C35 1_555 1_555
C35 C36 1_555 1_555
C36 H25 1_555 1_555
H26 C36 1_555 1_555
H27 C36 1_555 1_555
N1A C13A 1_555 1_555
N2A C15A 1_555 1_555
O7A C18A 1_555 1_555
O8A C22A 1_555 1_555
C13A H7A 1_555 1_555
C14A C13A 1_555 1_555
H8A C14A 1_555 1_555
C15A C14A 1_555 1_555
C16A C15A 1_555 1_555
H9A C16A 1_555 1_555
C17A N1A 1_555 1_555
H10A C17A 1_555 1_555
C18A N2A 1_555 1_555
C19A C18A 1_555 1_555
C20A C20 1_555 1_555
C21A C20A 1_555 1_555
C22A N2A 1_555 1_555
C23A C19A 1_555 1_555
H11A C23A 1_555 1_555
C24A C21A 1_555 1_555
H12A C24A 1_555 1_555
O1F C1F 1_555 1_555
O2F C1F 1_555 1_555
C1F C2F 1_555 1_555
C2F C3F 1_555 1_555
C3F C4 1_555 1_555
H1F C3F 1_555 1_555
C4F C3 1_555 1_555
H2F C4F 1_555 1_555
Co1A N1A 1_555 1_555
N3A C25A 1_555 1_555
O3A Co1A 1_555 1_555
O4A C6A 1_555 1_555
O5A C5A 1_555 1_555
O6A C5A 1_555 1_555
O9A Co1A 1_555 1_555
C5A C10A 1_555 1_555
C6A O3A 1_555 1_555
C7A C6A 1_555 1_555
C8A C7A 1_555 1_555
H3A C8A 1_555 1_555
C9A C8A 1_555 1_555
H4A C9A 1_555 1_555
C10A C9A 1_555 1_555
C11A C10A 1_555 1_555
H5A C11A 1_555 1_555
C12A C7A 1_555 1_555
H6A C12A 1_555 1_555
C25A O9A 1_555 1_555
H13A C25A 1_555 1_555
C26A N3A 1_555 1_555
H14A C26A 1_555 1_555
H15A C26A 1_555 1_555
H16A C26A 1_555 1_555
C27A N3A 1_555 1_555
H17A C27A 1_555 1_555
H18A C27A 1_555 1_555
H19A C27A 1_555 1_555
Co1D O5A 1_555 1_555
Co1E O5 1_555 1_555
Co1F O1F 1_555 1_555
Co2_2 O1F 1_555 1_555
Co2A O4A 1_555 1_555
Co2B O6A 1_555 1_555
Co2C O6 1_555 1_555
O1A Co1A 1_555 1_555
O1F_2 Co2 1_555 1_555
O2A Co1A 1_555 1_555
O4F Co2 1_555 1_555
O5D Co1A 1_555 1_555
O5E Co1 1_555 1_555
O6C Co2 1_555 1_555
O6E Co2 1_555 1_555
O2 C1 1_555 1_555
O4 C6 1_555 1_555
C11 C12 1_555 1_555
C16 C17 1_555 1_555
C21 C22 1_555 1_555
C16A C17A 1_555 1_555
C19A C20A 1_555 1_555
C21A C22A 1_555 1_555
O2F Co1F 1_555 1_555
C2F C4F 1_555 1_555
C11A C12A 1_555 1_555
Co2A O1A 1_555 1_555

#END
