
#######################################################################
#
#                 Cambridge Crystallographic Data Centre
#                                CCDC 
#
#######################################################################
#
# If this CIF has been generated from an entry in the Cambridge 
# Structural Database, then it will include bibliographic, chemical, 
# crystal, experimental, refinement or atomic coordinate data resulting 
# from the CCDC's data processing and validation procedures.
#
#######################################################################

data_NATZOA
_chemical_formula_moiety         '(C68 H44 Cd4 N12 O16 S4)n'
_symmetry_cell_setting           triclinic
_symmetry_space_group_name_H-M   'P -1'
_symmetry_Int_Tables_number      2
_space_group_name_Hall           '-P 1'
loop_
_symmetry_equiv_pos_site_id
_symmetry_equiv_pos_as_xyz
1 x,y,z
2 -x,-y,-z
_cell_length_a                   6.3428(2)
_cell_length_b                   14.8267(6)
_cell_length_c                   18.4843(5)
_cell_angle_alpha                82.200(3)
_cell_angle_beta                 80.525(2)
_cell_angle_gamma                82.732(3)
_cell_volume                     1689.06
loop_
_atom_site_label
_atom_site_type_symbol
_atom_site_fract_x
_atom_site_fract_y
_atom_site_fract_z
Cd1 Cd 0.07692(5) 0.16338(2) 0.266015(18)
Cd2 Cd 0.40606(5) -0.08553(2) 0.250658(18)
S1 S 0.87918(18) -0.17001(9) 0.43903(7)
S2 S 0.69773(19) 0.25157(10) 0.08564(7)
C1 C 0.0293(7) 0.0130(3) 0.0711(2)
O1 O -0.2185(5) 0.1186(2) 0.33646(17)
C2 C -0.4047(7) 0.0714(3) 0.4535(2)
O2 O -0.7411(5) 0.0247(2) 0.32738(17)
O3 O -0.2429(5) 0.2102(2) 0.42582(19)
O4 O 0.0567(5) 0.1072(2) 0.16089(17)
O5 O -0.3493(5) -0.0116(2) 0.17527(17)
O6 O -0.3711(5) -0.1410(3) 0.13035(19)
N1 N 0.3798(6) 0.2268(3) 0.1876(2)
O7 O 0.1260(5) -0.0449(2) 0.18812(17)
C3 C 0.4012(7) -0.2597(3) 0.3631(3)
O8 O -0.7118(5) 0.1601(2) 0.35796(17)
N2 N 0.0204(6) 0.4353(3) 0.1411(2)
N3 N 0.3183(6) -0.2228(3) 0.3030(2)
C4 C 0.0745(7) 0.0262(3) 0.1471(2)
C5 C -0.2809(7) 0.1416(4) 0.4017(3)
C6 C -0.3549(7) 0.5191(3) 0.1738(3)
H1 H -0.3393 0.5702 0.1389
N4 N 0.6344(6) -0.1396(3) 0.3407(2)
C7 C -0.1363(7) -0.0348(3) 0.0608(3)
C8 C 0.1631(7) -0.3511(3) 0.3518(3)
C9 C -0.3331(7) 0.0378(3) 0.5196(2)
H2 H -0.2208 0.0631 0.5334
C10 C 0.1078(7) 0.3512(3) 0.1678(2)
N5 N -0.0254(6) 0.3094(3) 0.2206(2)
N6 N 0.3108(6) -0.3358(3) 0.3957(2)
C11 C 0.0306(7) -0.4202(4) 0.3578(3)
H3 H 0.0314 -0.4691 0.3951
C12 C -0.5742(7) 0.0333(3) 0.4339(2)
C13 C -0.2952(7) -0.0668(4) 0.1272(3)
C14 C 0.5739(7) -0.2183(3) 0.3852(2)
C15 C 0.7914(7) -0.1081(3) 0.3630(3)
H4 H 0.8514 -0.0559 0.3393
C16 C 0.4980(7) -0.4728(3) 0.4620(3)
H5 H 0.4603 -0.5110 0.4284
H6 H 0.6394 -0.4541 0.4425
C17 C -0.6769(7) 0.0747(4) 0.3681(3)
C18 C -0.2138(7) 0.3690(3) 0.2299(3)
C19 C 0.1248(7) 0.5051(3) 0.0885(3)
H7 H 0.2742 0.5017 0.0951
H8 H 0.0563 0.5651 0.0990
C20 C -0.5410(7) 0.5102(3) 0.2219(3)
H9 H -0.6532 0.5571 0.2211
C21 C -0.1046(7) -0.3385(4) 0.2483(3)
H10 H -0.1987 -0.3349 0.2141
C22 C -0.1886(7) 0.4480(3) 0.1792(3)
C23 C 0.3336(7) -0.3883(3) 0.4676(2)
H11 H 0.1951 -0.4074 0.4907
H12 H 0.3771 -0.3489 0.4991
C24 C -0.4049(7) 0.3599(4) 0.2774(3)
H13 H -0.4234 0.3077 0.3109
C25 C 0.1646(7) 0.0482(3) 0.0087(3)
H14 H 0.2751 0.0810 0.0146
C26 C -0.5657(7) 0.4305(3) 0.2732(3)
H15 H -0.6950 0.4261 0.3049
C27 C 0.1145(7) 0.4944(4) 0.0085(3)
H16 H 0.1825 0.4343 -0.0021
H17 H 0.1949 0.5396 -0.0236
C28 C 0.3234(7) 0.3068(3) 0.1440(3)
C29 C 0.5730(7) 0.1916(4) 0.1637(3)
H18 H 0.6384 0.1383 0.1870
C30 C 0.1673(7) -0.2789(3) 0.2947(3)
C31 C 0.6939(7) -0.2447(3) 0.4408(3)
H19 H 0.6770 -0.2963 0.4751
C32 C 0.4744(7) 0.3299(4) 0.0861(3)
H20 H 0.4594 0.3810 0.0514
C33 C 0.0309(7) -0.2718(4) 0.2427(3)
H21 H 0.0308 -0.2234 0.2050
C34 C -0.1031(7) -0.4115(4) 0.3045(3)
H22 H -0.1955 -0.4559 0.3063
S1A S 0.12082(18) -0.82999(9) 0.56097(7)
C3A C 0.5988(7) -0.7403(3) 0.6369(3)
N3A N 0.6817(6) -0.7772(3) 0.6970(2)
N4A N 0.3656(6) -0.8604(3) 0.6593(2)
C8A C 0.8369(7) -0.6489(3) 0.6482(3)
N6A N 0.6892(6) -0.6642(3) 0.6043(2)
C11A C 0.9694(7) -0.5798(4) 0.6422(3)
H3A H 0.9686 -0.5309 0.6049
C14A C 0.4261(7) -0.7817(3) 0.6148(2)
C15A C 0.2086(7) -0.8919(3) 0.6370(3)
H4A H 0.1486 -0.9441 0.6607
C16A C 0.5020(7) -0.5272(3) 0.5380(3)
H5A H 0.5397 -0.4890 0.5716
H6A H 0.3606 -0.5459 0.5575
C21A C 1.1046(7) -0.6615(4) 0.7517(3)
H10A H 1.1987 -0.6651 0.7859
C23A C 0.6664(7) -0.6117(3) 0.5324(2)
H11A H 0.8049 -0.5926 0.5093
H12A H 0.6229 -0.6511 0.5009
C30A C 0.8327(7) -0.7211(3) 0.7053(3)
C31A C 0.3061(7) -0.7553(3) 0.5592(3)
H19A H 0.3230 -0.7037 0.5249
C33A C 0.9691(7) -0.7282(4) 0.7573(3)
H21A H 0.9692 -0.7766 0.7950
C34A C 1.1031(7) -0.5885(4) 0.6955(3)
H22A H 1.1955 -0.5441 0.6937
S2A S -0.69773(19) 0.74843(10) -0.08564(7)
N1A N -0.3798(6) 0.7732(3) -0.1876(2)
N2A N -0.0204(6) 0.5647(3) -0.1411(2)
C6A C 0.3549(7) 0.4809(3) -0.1738(3)
H1A H 0.3393 0.4298 -0.1389
C10A C -0.1078(7) 0.6488(3) -0.1678(2)
N5A N 0.0254(6) 0.6906(3) -0.2206(2)
C18A C 0.2138(7) 0.6310(3) -0.2299(3)
C19A C -0.1248(7) 0.4949(3) -0.0885(3)
H7A H -0.2742 0.4983 -0.0951
H8A H -0.0563 0.4349 -0.0990
C20A C 0.5410(7) 0.4898(3) -0.2219(3)
H9A H 0.6532 0.4429 -0.2211
C22A C 0.1886(7) 0.5520(3) -0.1792(3)
C24A C 0.4049(7) 0.6401(4) -0.2774(3)
H13A H 0.4234 0.6923 -0.3109
C26A C 0.5657(7) 0.5695(3) -0.2732(3)
H15A H 0.6950 0.5739 -0.3049
C27A C -0.1145(7) 0.5056(4) -0.0085(3)
H16A H -0.1825 0.5657 0.0021
H17A H -0.1949 0.4604 0.0236
C28A C -0.3234(7) 0.6932(3) -0.1440(3)
C29A C -0.5730(7) 0.8084(4) -0.1637(3)
H18A H -0.6384 0.8617 -0.1870
C32A C -0.4744(7) 0.6701(4) -0.0861(3)
H20A H -0.4594 0.6190 -0.0514
C1A C -0.0293(7) -0.0130(3) -0.0711(2)
O4A O -0.0567(5) -0.1072(2) -0.16089(17)
O7A O -0.1260(5) 0.0449(2) -0.18812(17)
C4A C -0.0745(7) -0.0262(3) -0.1471(2)
C7A C 0.1363(7) 0.0348(3) -0.0608(3)
C25A C -0.1646(7) -0.0482(3) -0.0087(3)
H14A H -0.2751 -0.0810 -0.0146
O5A O 0.3493(5) 0.0116(2) -0.17527(17)
O6A O 0.3711(5) 0.1410(3) -0.13035(19)
C13A C 0.2952(7) 0.0668(4) -0.1272(3)
O1A O -0.7815(5) -0.1186(2) 0.66354(17)
C2A C -0.5953(7) -0.0714(3) 0.5465(2)
O3A O -0.7571(5) -0.2102(2) 0.57418(19)
C5A C -0.7191(7) -0.1416(4) 0.5983(3)
C9A C -0.6669(7) -0.0378(3) 0.4804(2)
H2A H -0.7792 -0.0631 0.4666
C12A C -0.4258(7) -0.0333(3) 0.5661(2)
O2A O -0.2589(5) -0.0247(2) 0.67262(17)
O8A O -0.2882(5) -0.1601(2) 0.64204(17)
C17A C -0.3231(7) -0.0747(4) 0.6319(3)
Cd1A Cd -1.07692(5) -0.16338(2) 0.733985(18)
Cd2_2 Cd -0.59394(5) -0.08553(2) 0.250658(18)
Cd1_2 Cd -0.92308(5) 0.16338(2) 0.266015(18)
Cd1A_2 Cd -0.07692(5) -0.16338(2) -0.266015(18)
Cd1A_3 Cd -0.07692(5) -0.16338(2) 0.733985(18)
Cd1A_4 Cd -0.07692(5) 0.83662(2) -0.266015(18)
Cd2A Cd -0.40606(5) 0.08553(2) -0.250658(18)
Cd2A_2 Cd -0.40606(5) 0.08553(2) 0.749342(18)
Cd2A_3 Cd 0.59394(5) -0.91447(2) 0.749342(18)
Cd2A_4 Cd 0.59394(5) 0.08553(2) -0.250658(18)
O2_2 O 0.2589(5) 0.0247(2) 0.32738(17)
O2A_2 O -1.2589(5) -0.0247(2) 0.67262(17)
O4A_2 O -1.0567(5) -0.1072(2) 0.83911(17)
O5_2 O 0.6507(5) -0.0116(2) 0.17527(17)
O6_2 O 0.6289(5) -0.1410(3) 0.13035(19)
N1A_2 N -1.3798(6) -0.2268(3) 0.8124(2)
O7_2 O -0.8740(5) -0.0449(2) 0.18812(17)
O8_2 O 0.2882(5) 0.1601(2) 0.35796(17)
O8A_2 O -1.2882(5) -0.1601(2) 0.64204(17)
N3_2 N -0.6817(6) -0.2228(3) 0.3030(2)
N4_2 N -0.3656(6) -0.1396(3) 0.3407(2)
N5A_2 N -0.9746(6) -0.3094(3) 0.7794(2)
loop_
_geom_bond_atom_site_label_1
_geom_bond_atom_site_label_2
_geom_bond_site_symmetry_1
_geom_bond_site_symmetry_2
Cd1 O1 1_555 1_555
Cd2 O7 1_555 1_555
S1 C15 1_555 1_555
S2 C29 1_555 1_555
C1 C4 1_555 1_555
O1 C5 1_555 1_555
C2 C5 1_555 1_555
O2 C17 1_555 1_555
O3 C5 1_555 1_555
O4 Cd1 1_555 1_555
O5 C13 1_555 1_555
O6 C13 1_555 1_555
N1 Cd1 1_555 1_555
O7 C4 1_555 1_555
C3 N3 1_555 1_555
O8 C17 1_555 1_555
N2 C10 1_555 1_555
N3 Cd2 1_555 1_555
C4 O4 1_555 1_555
C6 H1 1_555 1_555
N4 Cd2 1_555 1_555
C7 C1 1_555 1_555
C8 N6 1_555 1_555
C9 C2 1_555 1_555
H2 C9 1_555 1_555
C10 N5 1_555 1_555
N5 Cd1 1_555 1_555
N6 C3 1_555 1_555
C11 C8 1_555 1_555
H3 C11 1_555 1_555
C12 C2 1_555 1_555
C13 C7 1_555 1_555
C14 C3 1_555 1_555
C15 N4 1_555 1_555
H4 C15 1_555 1_555
C16 H5 1_555 1_555
H6 C16 1_555 1_555
C17 C12 1_555 1_555
C18 N5 1_555 1_555
C19 N2 1_555 1_555
H7 C19 1_555 1_555
H8 C19 1_555 1_555
C20 C6 1_555 1_555
H9 C20 1_555 1_555
C21 H10 1_555 1_555
C22 N2 1_555 1_555
C23 N6 1_555 1_555
H11 C23 1_555 1_555
H12 C23 1_555 1_555
C24 C18 1_555 1_555
H13 C24 1_555 1_555
C25 C1 1_555 1_555
H14 C25 1_555 1_555
C26 C20 1_555 1_555
H15 C26 1_555 1_555
C27 C19 1_555 1_555
H16 C27 1_555 1_555
H17 C27 1_555 1_555
C28 N1 1_555 1_555
C29 N1 1_555 1_555
H18 C29 1_555 1_555
C30 N3 1_555 1_555
C31 S1 1_555 1_555
H19 C31 1_555 1_555
C32 S2 1_555 1_555
H20 C32 1_555 1_555
C33 C21 1_555 1_555
H21 C33 1_555 1_555
C34 C11 1_555 1_555
H22 C34 1_555 1_555
S1A C15A 1_555 1_555
C3A N3A 1_555 1_555
N3A C30A 1_555 1_555
N4A C14A 1_555 1_555
C8A N6A 1_555 1_555
N6A C3A 1_555 1_555
C11A C8A 1_555 1_555
H3A C11A 1_555 1_555
C14A C3A 1_555 1_555
C15A N4A 1_555 1_555
H4A C15A 1_555 1_555
C16A C16 1_555 1_555
H5A C16A 1_555 1_555
H6A C16A 1_555 1_555
C21A H10A 1_555 1_555
C23A N6A 1_555 1_555
H11A C23A 1_555 1_555
H12A C23A 1_555 1_555
C30A C8A 1_555 1_555
C31A S1A 1_555 1_555
H19A C31A 1_555 1_555
C33A C21A 1_555 1_555
H21A C33A 1_555 1_555
C34A C11A 1_555 1_555
H22A C34A 1_555 1_555
S2A C29A 1_555 1_555
N1A C28A 1_555 1_555
N2A C10A 1_555 1_555
C6A H1A 1_555 1_555
C10A N5A 1_555 1_555
N5A C18A 1_555 1_555
C18A C22A 1_555 1_555
C19A N2A 1_555 1_555
H7A C19A 1_555 1_555
H8A C19A 1_555 1_555
C20A C6A 1_555 1_555
H9A C20A 1_555 1_555
C22A N2A 1_555 1_555
C24A C18A 1_555 1_555
H13A C24A 1_555 1_555
C26A C20A 1_555 1_555
H15A C26A 1_555 1_555
C27A C27 1_555 1_555
H16A C27A 1_555 1_555
H17A C27A 1_555 1_555
C28A C10A 1_555 1_555
C29A N1A 1_555 1_555
H18A C29A 1_555 1_555
C32A S2A 1_555 1_555
H20A C32A 1_555 1_555
C1A C4A 1_555 1_555
O4A C4A 1_555 1_555
O7A C4A 1_555 1_555
C7A C25 1_555 1_555
C25A C7 1_555 1_555
H14A C25A 1_555 1_555
O5A C13A 1_555 1_555
O6A C13A 1_555 1_555
C13A C7A 1_555 1_555
O1A C5A 1_555 1_555
C2A C5A 1_555 1_555
O3A C5A 1_555 1_555
C9A C12 1_555 1_555
H2A C9A 1_555 1_555
C12A C9 1_555 1_555
O2A C17A 1_555 1_555
O8A C17A 1_555 1_555
C17A C12A 1_555 1_555
Cd1A O1A 1_555 1_555
Cd2_2 O2 1_555 1_555
Cd1_2 O2 1_555 1_555
Cd1A_2 O4A 1_555 1_555
Cd1A_3 O2A 1_555 1_555
Cd1A_4 N1A 1_555 1_555
Cd2A O7A 1_555 1_555
Cd2A_2 O2A 1_555 1_555
Cd2A_3 N3A 1_555 1_555
Cd2A_4 O5A 1_555 1_555
O2_2 Cd1 1_555 1_555
O2A_2 Cd1A 1_555 1_555
O4A_2 Cd1A 1_555 1_555
O5_2 Cd2 1_555 1_555
O6_2 Cd2 1_555 1_555
N1A_2 Cd1A 1_555 1_555
O7_2 Cd2_2 1_555 1_555
O8_2 Cd1 1_555 1_555
O8A_2 Cd1A 1_555 1_555
N3_2 Cd2_2 1_555 1_555
N4_2 Cd2_2 1_555 1_555
N5A_2 Cd1A 1_555 1_555
Cd2 O2_2 1_555 1_555
O5 Cd2_2 1_555 1_555
O6 Cd2_2 1_555 1_555
O8 Cd1_2 1_555 1_555
C6 C22 1_555 1_555
N4 C14 1_555 1_555
C8 C30 1_555 1_555
C10 C28 1_555 1_555
C14 C31 1_555 1_555
C16 C23 1_555 1_555
C18 C22 1_555 1_555
C21 C34 1_555 1_555
C24 C26 1_555 1_555
C28 C32 1_555 1_555
C30 C33 1_555 1_555
N4A Cd2A_3 1_555 1_555
C14A C31A 1_555 1_555
C16A C23A 1_555 1_555
C21A C34A 1_555 1_555
C30A C33A 1_555 1_555
C6A C22A 1_555 1_555
N5A Cd1A_4 1_555 1_555
C19A C27A 1_555 1_555
C24A C26A 1_555 1_555
C28A C32A 1_555 1_555
C1A C7A 1_555 1_555
C1A C25A 1_555 1_555
O6A Cd2A_4 1_555 1_555
C2A C9A 1_555 1_555
C2A C12A 1_555 1_555
O8A Cd1A_3 1_555 1_555

#END
