
#######################################################################
#
#                 Cambridge Crystallographic Data Centre
#                                CCDC 
#
#######################################################################
#
# If this CIF has been generated from an entry in the Cambridge 
# Structural Database, then it will include bibliographic, chemical, 
# crystal, experimental, refinement or atomic coordinate data resulting 
# from the CCDC's data processing and validation procedures.
#
#######################################################################

data_NAHHOW
_chemical_formula_moiety         'C18 H10 Cu8 N4 O16'
_symmetry_cell_setting           rhombohedral
_symmetry_space_group_name_H-M   'R -3 m'
_symmetry_Int_Tables_number      166
_space_group_name_Hall           '-R 3 2"'
loop_
_symmetry_equiv_pos_site_id
_symmetry_equiv_pos_as_xyz
1 x,y,z
2 -y,x-y,z
3 -x+y,-x,z
4 y,x,-z
5 x-y,-y,-z
6 -x,-x+y,-z
7 2/3+x,1/3+y,1/3+z
8 2/3-y,1/3+x-y,1/3+z
9 2/3-x+y,1/3-x,1/3+z
10 2/3+y,1/3+x,1/3-z
11 2/3+x-y,1/3-y,1/3-z
12 2/3-x,1/3-x+y,1/3-z
13 1/3+x,2/3+y,2/3+z
14 1/3-y,2/3+x-y,2/3+z
15 1/3-x+y,2/3-x,2/3+z
16 1/3+y,2/3+x,2/3-z
17 1/3+x-y,2/3-y,2/3-z
18 1/3-x,2/3-x+y,2/3-z
19 -x,-y,-z
20 y,-x+y,-z
21 x-y,x,-z
22 -y,-x,z
23 -x+y,y,z
24 x,x-y,z
25 1/3-x,2/3-y,2/3-z
26 1/3+y,2/3-x+y,2/3-z
27 1/3+x-y,2/3+x,2/3-z
28 1/3-y,2/3-x,2/3+z
29 1/3-x+y,2/3+y,2/3+z
30 1/3+x,2/3+x-y,2/3+z
31 2/3-x,1/3-y,1/3-z
32 2/3+y,1/3-x+y,1/3-z
33 2/3+x-y,1/3+x,1/3-z
34 2/3-y,1/3-x,1/3+z
35 2/3-x+y,1/3+y,1/3+z
36 2/3+x,1/3+x-y,1/3+z
_cell_length_a                   18.65700(10)
_cell_length_b                   18.65700(10)
_cell_length_c                   38.0533(6)
_cell_angle_alpha                90
_cell_angle_beta                 90
_cell_angle_gamma                120
_cell_volume                     11471.1
loop_
_atom_site_label
_atom_site_type_symbol
_atom_site_fract_x
_atom_site_fract_y
_atom_site_fract_z
_atom_site_U_iso_or_equiv
_atom_site_thermal_displace_type
Cu1 Cu 0.856825(7) 0.143175(7) 0.138009(6) 0.0253 Uani
O1 O 0.81561(8) 0.03828(7) 0.16283(3) 0.0396 Uani
O2 O 0.77533(9) 0.07770(8) 0.21103(3) 0.0448 Uani
O3 O 0.88995(7) 0.11005(7) 0.08941(6) 0.0797 Uani
H1 H 0.9094 0.1518 0.0756 0.1200 Uiso
C1 C 0.78684(10) 0.02722(10) 0.19355(4) 0.0339 Uani
C2 C 0.76538(10) -0.05300(10) 0.21086(4) 0.0370 Uani
C3 C 0.73576(12) -0.06803(11) 0.24542(4) 0.0448 Uani
H2 H 0.7258 -0.0298 0.2569 0.0450 Uiso
C4 C 0.77964(14) -0.11018(7) 0.19391(6) 0.0345 Uani
H3 H 0.7990 -0.1005 0.1709 0.0330 Uiso
C5 C 0.72122(18) -0.13939(9) 0.26270(7) 0.0469 Uani
C6 C 0.6921(2) -0.15394(11) 0.29970(7) 0.0535 Uani
N1 N 0.6480(4) -0.2323(3) 0.31192(11) 0.0657 Uani
O1Q O 0.51772(8) -0.11066(11) 0.50384(3) 0.0396 Uani
O2Q O 0.55800(9) -0.03096(12) 0.45564(3) 0.0448 Uani
C1Q C 0.54649(10) -0.09295(14) 0.47312(4) 0.0339 Uani
C2Q C 0.56795(10) -0.15171(14) 0.45581(4) 0.0370 Uani
C3Q C 0.59757(12) -0.13712(16) 0.42125(4) 0.0448 Uani
H2Q H 0.6075 -0.0889 0.4098 0.0450 Uiso
C4Q C 0.55369(14) -0.22315(16) 0.47276(6) 0.0345 Uani
H3Q H 0.5343 -0.2328 0.4958 0.0330 Uiso
C5Q C 0.61211(18) -0.19394(20) 0.40397(7) 0.0469 Uani
C6Q C 0.6412(2) -0.17937(23) 0.36697(7) 0.0535 Uani
N1Q N 0.6853(4) -0.2136(5) 0.35475(11) 0.0657 Uani
O1W O 0.81561(8) -0.22267(11) 0.16283(3) 0.0396 Uani
O2W O 0.77533(9) -0.30237(12) 0.21103(3) 0.0448 Uani
C1W C 0.78684(10) -0.24038(14) 0.19355(4) 0.0339 Uani
C2W C 0.76538(10) -0.18162(14) 0.21086(4) 0.0370 Uani
C3W C 0.73576(12) -0.19621(16) 0.24542(4) 0.0448 Uani
H2W H 0.7258 -0.2444 0.2569 0.0450 Uiso
N1W N 0.6480(4) -0.1197(5) 0.31192(11) 0.0657 Uani
O1X O 0.51772(8) -0.37161(7) 0.50384(3) 0.0396 Uani
O2X O 0.55800(9) -0.41103(8) 0.45564(3) 0.0448 Uani
C1X C 0.54649(10) -0.36055(10) 0.47312(4) 0.0339 Uani
C2X C 0.56795(10) -0.28033(10) 0.45581(4) 0.0370 Uani
C3X C 0.59757(12) -0.26530(11) 0.42125(4) 0.0448 Uani
H2X H 0.6075 -0.3035 0.4098 0.0450 Uiso
N1X N 0.6853(4) -0.1010(3) 0.35475(11) 0.0657 Uani
H1U H 0.8482 0.0906 0.0756 0.1200 Uiso
Cu1A Cu 0.856825(7) -0.286350(10) 0.138009(6) 0.0253 Uani
O3A O 0.88995(7) -0.22010(10) 0.08941(6) 0.0797 Uani
H1A H 0.8482 -0.2424 0.0756 0.1200 Uiso
H1W H 0.9094 -0.2424 0.0756 0.1200 Uiso
Cu1F Cu 0.523492(7) -0.523492(7) 0.471342(6) 0.0253 Uani
Cu1G Cu 0.523492(7) 0.046983(10) 0.471342(6) 0.0253 Uani
Cu1I Cu 0.809842(7) 0.190158(7) 0.195324(6) 0.0253 Uani
Cu1K Cu 0.809842(7) -0.380317(10) 0.195324(6) 0.0253 Uani
Cu1O Cu 0.476508(7) -0.476508(7) 0.528658(6) 0.0253 Uani
Cu1Q Cu 0.476508(7) -0.046983(10) 0.528658(6) 0.0253 Uani
O1A O 0.96172(7) -0.22267(11) 0.16283(3) 0.0396 Uani
O1U O 0.96172(7) 0.18439(8) 0.16283(3) 0.0396 Uani
O2I O 0.74437(8) 0.10866(9) 0.12230(3) 0.0448 Uani
O2K O 0.89134(9) -0.36430(12) 0.12230(3) 0.0448 Uani
O2DA O 0.89134(9) 0.25563(8) 0.12230(3) 0.0448 Uani
O2EA O 0.74437(8) -0.36430(12) 0.12230(3) 0.0448 Uani
loop_
_atom_site_aniso_label
_atom_site_aniso_U_11
_atom_site_aniso_U_22
_atom_site_aniso_U_33
_atom_site_aniso_U_23
_atom_site_aniso_U_13
_atom_site_aniso_U_12
Cu1 0.03497(14) 0.03497(14) 0.01849(15) -0.00076(4) 0.00076(4) 0.02680(13)
O1 0.0581(7) 0.0374(6) 0.0324(6) 0.0055(5) 0.0084(5) 0.0306(6)
O2 0.0736(9) 0.0428(7) 0.0350(6) 0.0090(5) 0.0127(6) 0.0418(7)
O3 0.0895(12) 0.0895(12) 0.0613(13) -0.0245(6) 0.0245(6) 0.0457(14)
C1 0.0435(9) 0.0368(9) 0.0311(8) 0.0019(7) -0.0003(7) 0.0274(8)
C2 0.0487(10) 0.0367(9) 0.0337(8) 0.0045(7) 0.0035(7) 0.0275(8)
C3 0.0684(12) 0.0408(10) 0.0387(9) 0.0053(7) 0.0122(8) 0.0375(9)
C4 0.0417(13) 0.0345(8) 0.0298(11) 0.0010(5) 0.0020(9) 0.0209(6)
C5 0.0717(19) 0.0408(9) 0.0386(14) 0.0084(6) 0.0168(12) 0.0359(9)
C6 0.091(2) 0.0436(9) 0.0417(14) 0.0109(7) 0.0217(15) 0.0456(11)
N1 0.118(4) 0.037(2) 0.045(2) 0.0077(16) 0.030(3) 0.041(3)
O1Q 0.0581 0.0343 0.0324 0.0029 0.0084 0.0275
O2Q 0.0736 0.0328 0.035 0.0037 0.0127 0.0318
C1Q 0.0435 0.0255 0.0311 -0.0022 -0.0003 0.0161
C2Q 0.0487 0.0304 0.0337 -0.001 0.0035 0.0212
C3Q 0.0684 0.0342 0.0387 0.0069 0.0122 0.0309
C4Q 0.0417 0.0344 0.0298 0.001 0.002 0.0208
C5Q 0.0717 0.0407 0.0386 0.0084 0.0168 0.0358
C6Q 0.091 0.0434 0.0417 0.0108 0.0217 0.0454
N1Q 0.118 0.073 0.045 0.0223 0.03 0.077
O1W 0.0581 0.0343 0.0324 0.0029 0.0084 0.0275
O2W 0.0736 0.0328 0.035 0.0037 0.0127 0.0318
C1W 0.0435 0.0255 0.0311 -0.0022 -0.0003 0.0161
C2W 0.0487 0.0304 0.0337 -0.001 0.0035 0.0212
C3W 0.0684 0.0342 0.0387 0.0069 0.0122 0.0309
N1W 0.118 0.073 0.045 0.0223 0.03 0.077
O1X 0.0581 0.0374 0.0324 0.0055 0.0084 0.0306
O2X 0.0736 0.0428 0.035 0.009 0.0127 0.0418
C1X 0.0435 0.0368 0.0311 0.0019 -0.0003 0.0274
C2X 0.0487 0.0367 0.0337 0.0045 0.0035 0.0275
C3X 0.0684 0.0408 0.0387 0.0053 0.0122 0.0375
N1X 0.118 0.037 0.045 0.0077 0.03 0.041
Cu1A 0.03497 0.01634 0.01849 0.00152 0.00076 0.00817
O3A 0.0895 0.0876 0.0613 0.049 0.0245 0.0438
Cu1F 0.03497 0.03497 0.01849 -0.00076 0.00076 0.0268
Cu1G 0.03497 0.01634 0.01849 0.00152 0.00076 0.00817
Cu1I 0.03497 0.03497 0.01849 -0.00076 0.00076 0.0268
Cu1K 0.03497 0.01634 0.01849 0.00152 0.00076 0.00817
Cu1O 0.03497 0.03497 0.01849 -0.00076 0.00076 0.0268
Cu1Q 0.03497 0.01634 0.01849 0.00152 0.00076 0.00817
O1A 0.0374 0.0343 0.0324 0.0029 -0.0055 0.0068
O1U 0.0374 0.0581 0.0324 -0.0084 -0.0055 0.0306
O2I 0.0428 0.0736 0.035 -0.0127 -0.009 0.0418
O2K 0.0736 0.0328 0.035 0.0037 0.0127 0.0318
O2DA 0.0736 0.0428 0.035 0.009 0.0127 0.0418
O2EA 0.0428 0.0328 0.035 0.0037 -0.009 0.001
loop_
_geom_bond_atom_site_label_1
_geom_bond_atom_site_label_2
_geom_bond_site_symmetry_1
_geom_bond_site_symmetry_2
Cu1 O1 1_555 1_555
O1 C1 1_555 1_555
O2 C1 1_555 1_555
O3 Cu1 1_555 1_555
H1 O3 1_555 1_555
C1 C2 1_555 1_555
C2 C3 1_555 1_555
C3 H2 1_555 1_555
C4 C2 1_555 1_555
H3 C4 1_555 1_555
C5 C3 1_555 1_555
C6 C5 1_555 1_555
N1 C6 1_555 1_555
O1Q C1Q 1_555 1_555
O2Q C1Q 1_555 1_555
C1Q C2Q 1_555 1_555
C2Q C3Q 1_555 1_555
C3Q H2Q 1_555 1_555
C4Q C2Q 1_555 1_555
H3Q C4Q 1_555 1_555
C5Q C3Q 1_555 1_555
C6Q C5Q 1_555 1_555
N1Q N1 1_555 1_555
O1W C1W 1_555 1_555
O2W C1W 1_555 1_555
C1W C2W 1_555 1_555
C2W C4 1_555 1_555
C3W C5 1_555 1_555
H2W C3W 1_555 1_555
N1W C6 1_555 1_555
O1X C1X 1_555 1_555
O2X C1X 1_555 1_555
C1X C2X 1_555 1_555
C2X C4Q 1_555 1_555
C3X C5Q 1_555 1_555
H2X C3X 1_555 1_555
N1X C6Q 1_555 1_555
H1U O3 1_555 1_555
Cu1A O1W 1_555 1_555
O3A Cu1A 1_555 1_555
H1A O3A 1_555 1_555
H1W O3A 1_555 1_555
Cu1F O2X 1_555 1_555
Cu1G O2Q 1_555 1_555
Cu1I O2 1_555 1_555
Cu1K O2W 1_555 1_555
Cu1O O1X 1_555 1_555
Cu1Q O1Q 1_555 1_555
O1A Cu1A 1_555 1_555
O1U Cu1 1_555 1_555
O2I Cu1 1_555 1_555
O2K Cu1A 1_555 1_555
O2DA Cu1 1_555 1_555
O2EA Cu1A 1_555 1_555
C6Q N1Q 1_555 1_555
C2W C3W 1_555 1_555
N1W N1X 1_555 1_555
C2X C3X 1_555 1_555

#END
