
#######################################################################
#
#                 Cambridge Crystallographic Data Centre
#                                CCDC 
#
#######################################################################
#
# If this CIF has been generated from an entry in the Cambridge 
# Structural Database, then it will include bibliographic, chemical, 
# crystal, experimental, refinement or atomic coordinate data resulting 
# from the CCDC's data processing and validation procedures.
#
#######################################################################

data_NAHHIQ
_chemical_formula_moiety         'C22 H14 Cu8 N4 O16'
_symmetry_cell_setting           rhombohedral
_symmetry_space_group_name_H-M   'R -3 m'
_symmetry_Int_Tables_number      166
_space_group_name_Hall           '-R 3 2"'
loop_
_symmetry_equiv_pos_site_id
_symmetry_equiv_pos_as_xyz
1 x,y,z
2 -y,x-y,z
3 -x+y,-x,z
4 y,x,-z
5 -x,-x+y,-z
6 x-y,-y,-z
7 2/3+x,1/3+y,1/3+z
8 2/3-y,1/3+x-y,1/3+z
9 2/3-x+y,1/3-x,1/3+z
10 2/3+y,1/3+x,1/3-z
11 2/3-x,1/3-x+y,1/3-z
12 2/3+x-y,1/3-y,1/3-z
13 1/3+x,2/3+y,2/3+z
14 1/3-y,2/3+x-y,2/3+z
15 1/3-x+y,2/3-x,2/3+z
16 1/3+y,2/3+x,2/3-z
17 1/3-x,2/3-x+y,2/3-z
18 1/3+x-y,2/3-y,2/3-z
19 -x,-y,-z
20 y,-x+y,-z
21 x-y,x,-z
22 -y,-x,z
23 x,x-y,z
24 -x+y,y,z
25 1/3-x,2/3-y,2/3-z
26 1/3+y,2/3-x+y,2/3-z
27 1/3+x-y,2/3+x,2/3-z
28 1/3-y,2/3-x,2/3+z
29 1/3+x,2/3+x-y,2/3+z
30 1/3-x+y,2/3+y,2/3+z
31 2/3-x,1/3-y,1/3-z
32 2/3+y,1/3-x+y,1/3-z
33 2/3+x-y,1/3+x,1/3-z
34 2/3-y,1/3-x,1/3+z
35 2/3+x,1/3+x-y,1/3+z
36 2/3-x+y,1/3+y,1/3+z
_cell_length_a                   18.8059(3)
_cell_length_b                   18.8059(3)
_cell_length_c                   37.6262(15)
_cell_angle_alpha                90
_cell_angle_beta                 90
_cell_angle_gamma                120
_cell_volume                     11524.2
loop_
_atom_site_label
_atom_site_type_symbol
_atom_site_fract_x
_atom_site_fract_y
_atom_site_fract_z
_atom_site_U_iso_or_equiv
_atom_site_thermal_displace_type
Cu1 Cu 0.37881(4) 0.189403(18) 0.195858(15) 0.0318 Uani
O1 O 0.44419(19) 0.1492(2) 0.17148(8) 0.0508 Uani
O2 O 0.36669(18) 0.1103(2) 0.12259(8) 0.0520 Uani
O3 O 0.4409(4) 0.2204(2) 0.24548(16) 0.0917 Uani
H1 H 0.4182 0.2388 0.2592 0.1380 Uiso
C1 C 0.4271(2) 0.1210(3) 0.14070(11) 0.0414 Uani
C2 C 0.4862(3) 0.1000(3) 0.12331(12) 0.0464 Uani
C3 C 0.55738(19) 0.1148(4) 0.14041(16) 0.0422 Uani
H2 H 0.5674 0.1348 0.1636 0.0500 Uiso
C4 C 0.4722(3) 0.0706(4) 0.08789(13) 0.0613 Uani
H3 H 0.4245 0.0609 0.0762 0.0730 Uiso
C5 C 0.5282(3) 0.0564(6) 0.0705(2) 0.0710 Uani
C6 C 0.5126(4) 0.0253(7) 0.0343(2) 0.0802 Uani
C7 C 0.5747(8) 0.0433(10) 0.0128(3) 0.0847 Uani
H4 H 0.6303 0.0765 0.0207 0.1020 Uiso
N1 N 0.4389(9) -0.0191(10) 0.0224(4) 0.0997 Uani
O1E O 0.29499(28) -0.1492(2) -0.17148(8) 0.0508 Uani
O2E O 0.25639(27) -0.1103(2) -0.12259(8) 0.0520 Uani
C1E C 0.3061(4) -0.1210(3) -0.14070(11) 0.0414 Uani
C2E C 0.3862(4) -0.1000(3) -0.12331(12) 0.0464 Uani
C3E C 0.44258(44) -0.1148(4) -0.14041(16) 0.0422 Uani
H2E H 0.4326 -0.1348 -0.1636 0.0500 Uiso
C4E C 0.4016(5) -0.0706(4) -0.08789(13) 0.0613 Uani
H3E H 0.3636 -0.0609 -0.0762 0.0730 Uiso
C5E C 0.4718(7) -0.0564(6) -0.0705(2) 0.0710 Uani
C6E C 0.4873(8) -0.0253(7) -0.0343(2) 0.0802 Uani
C7E C 0.5314(13) -0.0433(10) -0.0128(3) 0.0847 Uani
H4E H 0.5538 -0.0765 -0.0207 0.1020 Uiso
N1E N 0.4580(13) 0.0191(10) -0.0224(4) 0.0997 Uani
O1R O 0.55581(19) -0.1492(2) -0.17148(8) 0.0508 Uani
O2R O 0.63331(18) -0.1103(2) -0.12259(8) 0.0520 Uani
C1R C 0.5729(2) -0.1210(3) -0.14070(11) 0.0414 Uani
C2R C 0.5138(3) -0.1000(3) -0.12331(12) 0.0464 Uani
C4R C 0.5278(3) -0.0706(4) -0.08789(13) 0.0613 Uani
H3R H 0.5755 -0.0609 -0.0762 0.0730 Uiso
C7R C 0.4253(8) -0.0433(10) -0.0128(3) 0.0847 Uani
H4R H 0.3697 -0.0765 -0.0207 0.1020 Uiso
N1R N 0.5611(9) 0.0191(10) -0.0224(4) 0.0997 Uani
O1W O 0.70501(28) 0.1492(2) 0.17148(8) 0.0508 Uani
O2W O 0.74361(27) 0.1103(2) 0.12259(8) 0.0520 Uani
C1W C 0.6939(4) 0.1210(3) 0.14070(11) 0.0414 Uani
C2W C 0.6138(4) 0.1000(3) 0.12331(12) 0.0464 Uani
C4W C 0.5984(5) 0.0706(4) 0.08789(13) 0.0613 Uani
H3W H 0.6364 0.0609 0.0762 0.0730 Uiso
C7W C 0.4686(13) 0.0433(10) 0.0128(3) 0.0847 Uani
H4W H 0.4462 0.0765 0.0207 0.1020 Uiso
N1W N 0.5420(13) -0.0191(10) 0.0224(4) 0.0997 Uani
H1V H 0.4182 0.1794 0.2592 0.1380 Uiso
Cu1A Cu 0.810597(18) 0.189407(44) 0.195858(15) 0.0318 Uani
O3A O 0.7796(2) 0.2205(4) 0.24548(16) 0.0917 Uani
H1A H 0.7612 0.1794 0.2592 0.1380 Uiso
H1W H 0.8206 0.2388 0.2592 0.1380 Uiso
Cu1D Cu 0.62119(4) -0.189407(44) -0.195858(15) 0.0318 Uani
Cu1E Cu 0.189407(44) -0.189403(18) -0.195858(15) 0.0318 Uani
Cu1J Cu 0.28786(4) 0.143926(44) 0.137475(15) 0.0318 Uani
Cu1K Cu 0.856074(44) 0.143930(18) 0.137475(15) 0.0318 Uani
Cu1L Cu 0.71214(4) -0.143930(18) -0.137475(15) 0.0318 Uani
Cu1M Cu 0.143930(18) -0.143926(44) -0.137475(15) 0.0318 Uani
O1A O 0.8508(2) 0.29499(28) 0.17148(8) 0.0508 Uani
O1V O 0.44419(19) 0.29499(28) 0.17148(8) 0.0508 Uani
O2J O 0.29998(18) 0.07694(27) 0.21074(8) 0.0520 Uani
O2K O 0.92306(27) 0.2230(2) 0.21074(8) 0.0520 Uani
O2DA O 0.29998(18) 0.2230(2) 0.21074(8) 0.0520 Uani
O2EA O 0.7770(2) 0.07694(27) 0.21074(8) 0.0520 Uani
loop_
_atom_site_aniso_label
_atom_site_aniso_U_11
_atom_site_aniso_U_22
_atom_site_aniso_U_33
_atom_site_aniso_U_23
_atom_site_aniso_U_13
_atom_site_aniso_U_12
Cu1 0.0245(4) 0.0391(4) 0.0269(4) -0.00080(11) -0.0016(2) 0.0123(2)
O1 0.0461(17) 0.074(2) 0.0434(17) -0.0095(15) -0.0022(13) 0.0384(17)
O2 0.0396(16) 0.079(2) 0.0462(17) -0.0134(16) -0.0038(13) 0.0362(16)
O3 0.091(4) 0.114(4) 0.063(3) -0.0219(17) -0.044(3) 0.046(2)
C1 0.033(2) 0.050(2) 0.040(2) -0.0015(18) 0.0043(16) 0.0198(19)
C2 0.041(2) 0.062(3) 0.042(2) -0.007(2) -0.0017(18) 0.030(2)
C3 0.041(2) 0.051(3) 0.038(3) -0.005(3) -0.0027(13) 0.0255(17)
C4 0.049(3) 0.097(4) 0.052(3) -0.025(3) -0.016(2) 0.047(3)
C5 0.061(3) 0.117(7) 0.053(4) -0.036(4) -0.018(2) 0.058(4)
C6 0.068(3) 0.127(6) 0.066(5) -0.036(5) -0.018(2) 0.064(3)
C7 0.080(7) 0.123(8) 0.066(7) -0.033(6) -0.017(5) 0.062(6)
N1 0.101(7) 0.135(8) 0.079(6) -0.038(6) -0.020(5) 0.071(6)
O1E 0.0433 0.074 0.0434 -0.0095 -0.0073 0.0356
O2E 0.0462 0.079 0.0462 -0.0134 -0.0096 0.0428
C1E 0.0434 0.05 0.04 -0.0015 -0.0058 0.0302
C2E 0.043 0.062 0.042 -0.007 -0.0053 0.032
C3E 0.041 0.051 0.038 -0.005 -0.0023 0.0255
C4E 0.052 0.097 0.052 -0.025 -0.009 0.05
C5E 0.062 0.117 0.053 -0.036 -0.018 0.059
C6E 0.067 0.127 0.066 -0.036 -0.018 0.063
C7E 0.079 0.123 0.066 -0.033 -0.016 0.061
N1E 0.094 0.135 0.079 -0.038 -0.018 0.064
O1R 0.0461 0.074 0.0434 -0.0095 -0.0022 0.0384
O2R 0.0396 0.079 0.0462 -0.0134 -0.0038 0.0362
C1R 0.033 0.05 0.04 -0.0015 0.0043 0.0198
C2R 0.041 0.062 0.042 -0.007 -0.0017 0.03
C4R 0.049 0.097 0.052 -0.025 -0.016 0.047
C7R 0.08 0.123 0.066 -0.033 -0.017 0.062
N1R 0.101 0.135 0.079 -0.038 -0.02 0.071
O1W 0.0433 0.074 0.0434 -0.0095 -0.0073 0.0356
O2W 0.0462 0.079 0.0462 -0.0134 -0.0096 0.0428
C1W 0.0434 0.05 0.04 -0.0015 -0.0058 0.0302
C2W 0.043 0.062 0.042 -0.007 -0.0053 0.032
C4W 0.052 0.097 0.052 -0.025 -0.009 0.05
C7W 0.079 0.123 0.066 -0.033 -0.016 0.061
N1W 0.094 0.135 0.079 -0.038 -0.018 0.064
Cu1A 0.0391 0.039 0.0269 -0.0008 0.0008 0.0268
O3A 0.114 0.113 0.063 -0.0221 0.0219 0.068
Cu1D 0.0245 0.039 0.0269 -0.0008 -0.0016 0.0122
Cu1E 0.039 0.0391 0.0269 -0.0008 0.0008 0.0268
Cu1J 0.0245 0.039 0.0269 -0.0008 -0.0016 0.0122
Cu1K 0.039 0.0391 0.0269 -0.0008 0.0008 0.0268
Cu1L 0.0245 0.0391 0.0269 -0.0008 -0.0016 0.0123
Cu1M 0.0391 0.039 0.0269 -0.0008 0.0008 0.0268
O1A 0.074 0.0433 0.0434 0.0073 0.0095 0.0356
O1V 0.0461 0.0433 0.0434 0.0073 -0.0022 0.0077
O2J 0.0396 0.0462 0.0462 0.0096 -0.0038 0.0034
O2K 0.0462 0.079 0.0462 -0.0134 -0.0096 0.0428
O2DA 0.0396 0.079 0.0462 -0.0134 -0.0038 0.0362
O2EA 0.079 0.0462 0.0462 0.0096 0.0134 0.0428
loop_
_geom_bond_atom_site_label_1
_geom_bond_atom_site_label_2
_geom_bond_site_symmetry_1
_geom_bond_site_symmetry_2
Cu1 O1 1_555 1_555
O1 C1 1_555 1_555
O2 C1 1_555 1_555
O3 Cu1 1_555 1_555
H1 O3 1_555 1_555
C1 C2 1_555 1_555
C2 C3 1_555 1_555
C3 H2 1_555 1_555
C4 C2 1_555 1_555
H3 C4 1_555 1_555
C5 C4 1_555 1_555
C6 C5 1_555 1_555
C7 C6 1_555 1_555
H4 C7 1_555 1_555
N1 C6 1_555 1_555
O1E C1E 1_555 1_555
O2E C1E 1_555 1_555
C1E C2E 1_555 1_555
C2E C3E 1_555 1_555
C3E H2E 1_555 1_555
C4E C2E 1_555 1_555
H3E C4E 1_555 1_555
C5E C4E 1_555 1_555
C6E C5E 1_555 1_555
C7E C6E 1_555 1_555
H4E C7E 1_555 1_555
N1E C6E 1_555 1_555
O1R C1R 1_555 1_555
O2R C1R 1_555 1_555
C1R C2R 1_555 1_555
C2R C3E 1_555 1_555
C4R C5E 1_555 1_555
H3R C4R 1_555 1_555
C7R N1 1_555 1_555
H4R C7R 1_555 1_555
N1R C7 1_555 1_555
O1W C1W 1_555 1_555
O2W C1W 1_555 1_555
C1W C2W 1_555 1_555
C2W C3 1_555 1_555
C4W C5 1_555 1_555
H3W C4W 1_555 1_555
C7W C6 1_555 1_555
H4W C7W 1_555 1_555
N1W C6 1_555 1_555
H1V O3 1_555 1_555
Cu1A O1W 1_555 1_555
O3A Cu1A 1_555 1_555
H1A O3A 1_555 1_555
H1W O3A 1_555 1_555
Cu1D O1R 1_555 1_555
Cu1E O1E 1_555 1_555
Cu1J Cu1 1_555 1_555
Cu1K O2W 1_555 1_555
Cu1L O2R 1_555 1_555
Cu1M O2E 1_555 1_555
O1A Cu1A 1_555 1_555
O1V Cu1 1_555 1_555
O2J Cu1 1_555 1_555
O2K Cu1A 1_555 1_555
O2DA Cu1 1_555 1_555
O2EA Cu1A 1_555 1_555
O2 Cu1J 1_555 1_555
C7 N1W 1_555 1_555
N1 C7W 1_555 1_555
C6E C7R 1_555 1_555
C6E N1R 1_555 1_555
C7E N1R 1_555 1_555
C7E N1W 1_555 1_555
N1E C7R 1_555 1_555
N1E C7W 1_555 1_555
C2R C4R 1_555 1_555
C2W C4W 1_555 1_555
Cu1A Cu1K 1_555 1_555
Cu1D Cu1L 1_555 1_555
Cu1E Cu1M 1_555 1_555

#END
