
#######################################################################
#
#                 Cambridge Crystallographic Data Centre
#                                CCDC 
#
#######################################################################
#
# If this CIF has been generated from an entry in the Cambridge 
# Structural Database, then it will include bibliographic, chemical, 
# crystal, experimental, refinement or atomic coordinate data resulting 
# from the CCDC's data processing and validation procedures.
#
#######################################################################

data_ICAVOZ
_chemical_formula_moiety         '(C36 H26 O18 Sm2 Zn2)n'
_symmetry_cell_setting           orthorhombic
_symmetry_space_group_name_H-M   'P n m a'
_symmetry_Int_Tables_number      62
_space_group_name_Hall           '-P 2ac 2n'
loop_
_symmetry_equiv_pos_site_id
_symmetry_equiv_pos_as_xyz
1 x,y,z
2 1/2-x,-y,1/2+z
3 1/2+x,1/2-y,1/2-z
4 -x,1/2+y,-z
5 -x,-y,-z
6 1/2+x,y,1/2-z
7 1/2-x,1/2+y,1/2+z
8 x,1/2-y,z
_cell_length_a                   7.2480(3)
_cell_length_b                   24.9022(15)
_cell_length_c                   20.3892(12)
_cell_angle_alpha                90
_cell_angle_beta                 90
_cell_angle_gamma                90
_cell_volume                     3680.07
loop_
_atom_site_label
_atom_site_type_symbol
_atom_site_fract_x
_atom_site_fract_y
_atom_site_fract_z
Sm1 Sm 1.26421(4) 0.962201(11) 0.485710(14)
Zn1 Zn 1.71823(9) 0.90099(3) 0.42337(3)
O1 O 1.6075(5) 0.94914(16) 0.48938(19)
H1 H 1.6194 0.9317 0.5250
O2 O 1.2846(6) 0.88796(18) 0.4134(2)
O3 O 0.8407(6) 0.94251(16) 0.3552(2)
O4 O 1.5498(6) 0.85101(18) 0.3828(3)
C1 C 1.0128(11) 0.7500 0.3343(4)
C2 C 1.3775(8) 0.8499(2) 0.3906(3)
C3 C 1.3745(11) 0.7500 0.3836(4)
H2 H 1.4964 0.7500 0.3978
C4 C 1.2826(8) 0.7987(2) 0.3728(3)
C5 C 1.1038(8) 0.7978(2) 0.3487(3)
H3 H 1.0426 0.8301 0.3420
O5 O 0.8470(6) 0.84617(18) 0.4734(3)
C6 C 0.9980(12) 0.7500 0.5104(4)
H4 H 0.8869 0.7500 0.4875
C7 C 0.9951(9) 0.8497(2) 0.5066(3)
C8 C 0.9374(7) 0.9830(2) 0.3710(3)
C9 C 1.2457(9) 0.7984(3) 0.5605(4)
H5 H 1.3013 0.8308 0.5717
C10 C 0.9929(7) 1.0205(2) 0.3180(3)
C11 C 0.8235(13) 0.7500 0.3036(5)
C12 C 1.0796(8) 0.7982(2) 0.5271(3)
C13 C 1.3297(17) 0.7500 0.5775(7)
C14 C 1.489(4) 0.7500 0.6277(15)
O6 O 1.0667(6) 0.89380(17) 0.5220(2)
O7 O 0.9823(5) 0.99309(15) 0.43067(18)
C15 C 0.9739(7) 1.0062(2) 0.2527(3)
H12 H 0.9263 0.9728 0.2414
C16 C 1.0579(8) 1.0713(2) 0.3341(3)
H13 H 1.0717 1.0805 0.3780
C17 C 1.0266(8) 1.0422(2) 0.2040(3)
C18 C 1.1030(8) 1.1088(2) 0.2860(3)
C19 C 1.0134(8) 1.0285(2) 0.1327(3)
C20 C 1.0923(8) 1.0930(2) 0.2212(3)
H14 H 1.1296 1.1166 0.1884
C21 C 1.1642(12) 1.1650(3) 0.3039(4)
H15 H 1.0586 1.1860 0.3160
H16 H 1.2487 1.1634 0.3401
H17 H 1.2241 1.1813 0.2669
O8 O 1.1263(6) 1.05098(17) 0.09417(19)
O9 O 0.8899(5) 0.99594(17) 0.1148(2)
Sm1D Sm 1.73579(4) 1.037799(11) 0.514290(14)
Sm1D_2 Sm 0.73579(4) 1.037799(11) 0.514290(14)
Sm1A Sm 1.23579(4) 1.037799(11) -0.014290(14)
Sm1E Sm 0.76421(4) 0.962201(11) 0.014290(14)
Sm1G Sm 1.26421(4) 0.537799(11) 0.485710(14)
Sm1E_2 Sm 0.76421(4) 0.962201(11) 1.014290(14)
Sm1A_2 Sm 1.23579(4) 1.037799(11) 0.985710(14)
Zn1D Zn 1.28177(9) 1.09901(3) 0.57663(3)
Zn1_2 Zn 0.71823(9) 0.90099(3) 0.42337(3)
Zn1G Zn 1.71823(9) 0.59901(3) 0.42337(3)
Zn1G_2 Zn 0.71823(9) 0.59901(3) 0.42337(3)
O1D O 1.3925(5) 1.05086(16) 0.51062(19)
H1D H 1.3806 1.0683 0.4750
O2G O 1.2846(6) 0.61204(18) 0.4134(2)
O2D O 1.7154(6) 1.11204(18) 0.5866(2)
O3D O 1.1593(6) 1.05749(16) 0.6448(2)
O3_2 O 1.8407(6) 0.94251(16) 0.3552(2)
O4G O 1.5498(6) 0.64899(18) 0.3828(3)
O4D O 1.4502(6) 1.14899(18) 0.6172(3)
C2G C 1.3775(8) 0.6501(2) 0.3906(3)
C4G C 1.2826(8) 0.7013(2) 0.3728(3)
C5G C 1.1038(8) 0.7022(2) 0.3487(3)
H3G H 1.0426 0.6699 0.3420
O5G O 0.8470(6) 0.65383(18) 0.4734(3)
O5_2 O 1.8470(6) 0.84617(18) 0.4734(3)
O5D O 1.1530(6) 1.15383(18) 0.5266(3)
C7G C 0.9951(9) 0.6503(2) 0.5066(3)
C8D C 1.0626(7) 1.0170(2) 0.6290(3)
C9G C 1.2457(9) 0.7016(3) 0.5605(4)
H5G H 1.3013 0.6692 0.5717
C10D C 1.0071(7) 0.9795(2) 0.6820(3)
C12G C 1.0796(8) 0.7018(2) 0.5271(3)
O6G O 1.0667(6) 0.60620(17) 0.5220(2)
O6D O 1.9333(6) 1.10620(17) 0.4780(2)
O7D O 1.0177(5) 1.00691(15) 0.56933(18)
O7D_2 O 2.0177(5) 1.00691(15) 0.56933(18)
O7_2 O 1.9823(5) 0.99309(15) 0.43067(18)
C15D C 1.0261(7) 0.9938(2) 0.7473(3)
H12D H 1.0737 1.0272 0.7586
C16D C 0.9421(8) 0.9287(2) 0.6659(3)
H13D H 0.9283 0.9195 0.6220
C17D C 0.9734(8) 0.9578(2) 0.7960(3)
C18D C 0.8970(8) 0.8912(2) 0.7140(3)
C19D C 0.9866(8) 0.9715(2) 0.8673(3)
C20D C 0.9077(8) 0.9070(2) 0.7788(3)
H14D H 0.8704 0.8834 0.8116
C21D C 0.8358(12) 0.8350(3) 0.6961(4)
H15D H 0.9414 0.8140 0.6840
H16D H 0.7513 0.8366 0.6599
H17D H 0.7759 0.8187 0.7331
O8D O 0.8737(6) 0.94902(17) 0.90583(19)
O8A O 1.3737(6) 0.94902(17) 0.59417(19)
O8E O 1.6263(6) 1.05098(17) 0.40583(19)
O9D O 1.1101(5) 1.00406(17) 0.8852(2)
O9E O 1.3899(5) 0.99594(17) 0.3852(2)
O9A O 1.6101(5) 1.00406(17) 0.6148(2)
loop_
_geom_bond_atom_site_label_1
_geom_bond_atom_site_label_2
_geom_bond_site_symmetry_1
_geom_bond_site_symmetry_2
Sm1 O1 1_555 1_555
Zn1 O1 1_555 1_555
O1 H1 1_555 1_555
O2 Sm1 1_555 1_555
O3 C8 1_555 1_555
O4 Zn1 1_555 1_555
C1 C5 1_555 1_555
C2 O2 1_555 1_555
C3 H2 1_555 1_555
C4 C2 1_555 1_555
C5 C4 1_555 1_555
H3 C5 1_555 1_555
O5 C7 1_555 1_555
C6 H4 1_555 1_555
C7 C12 1_555 1_555
C8 C10 1_555 1_555
C9 H5 1_555 1_555
C10 C15 1_555 1_555
C11 C1 1_555 1_555
C12 C6 1_555 1_555
C13 C9 1_555 1_555
C14 C13 1_555 1_555
O6 Sm1 1_555 1_555
O7 Sm1 1_555 1_555
C15 H12 1_555 1_555
C16 C10 1_555 1_555
H13 C16 1_555 1_555
C17 C15 1_555 1_555
C18 C16 1_555 1_555
C19 C17 1_555 1_555
C20 C17 1_555 1_555
H14 C20 1_555 1_555
C21 C18 1_555 1_555
H15 C21 1_555 1_555
H16 C21 1_555 1_555
H17 C21 1_555 1_555
O8 C19 1_555 1_555
O9 C19 1_555 1_555
Sm1D O1 1_555 1_555
Sm1D_2 O7 1_555 1_555
Sm1A O8 1_555 1_555
Sm1E O9 1_555 1_555
Sm1G O2G 1_555 1_555
Sm1E_2 O8D 1_555 1_555
Sm1A_2 O9D 1_555 1_555
Zn1D O1D 1_555 1_555
Zn1_2 O3 1_555 1_555
Zn1G O4G 1_555 1_555
Zn1G_2 O5G 1_555 1_555
O1D Sm1 1_555 1_555
H1D O1D 1_555 1_555
O2G C2G 1_555 1_555
O2D Sm1D 1_555 1_555
O3D Zn1D 1_555 1_555
O3_2 Zn1 1_555 1_555
O4G C2G 1_555 1_555
O4D Zn1D 1_555 1_555
C2G C4G 1_555 1_555
C4G C3 1_555 1_555
C5G C1 1_555 1_555
H3G C5G 1_555 1_555
O5G C7G 1_555 1_555
O5_2 Zn1 1_555 1_555
O5D Zn1D 1_555 1_555
C7G C12G 1_555 1_555
C8D O3D 1_555 1_555
C9G C13 1_555 1_555
H5G C9G 1_555 1_555
C10D C8D 1_555 1_555
C12G C6 1_555 1_555
O6G Sm1G 1_555 1_555
O6D Sm1D 1_555 1_555
O7D Sm1 1_555 1_555
O7D_2 Sm1D 1_555 1_555
O7_2 Sm1D 1_555 1_555
C15D C10D 1_555 1_555
H12D C15D 1_555 1_555
C16D C10D 1_555 1_555
H13D C16D 1_555 1_555
C17D C15D 1_555 1_555
C18D C16D 1_555 1_555
C19D C17D 1_555 1_555
C20D C17D 1_555 1_555
H14D C20D 1_555 1_555
C21D C18D 1_555 1_555
H15D C21D 1_555 1_555
H16D C21D 1_555 1_555
H17D C21D 1_555 1_555
O8D C19D 1_555 1_555
O8A Sm1 1_555 1_555
O8E Sm1D 1_555 1_555
O9D C19D 1_555 1_555
O9E Sm1 1_555 1_555
O9A Sm1D 1_555 1_555
O4 C2 1_555 1_555
C3 C4 1_555 1_555
O5 Zn1_2 1_555 1_555
C7 O6 1_555 1_555
C8 O7 1_555 1_555
C9 C12 1_555 1_555
C18 C20 1_555 1_555
Sm1D O1D 1_555 1_555
Sm1D_2 O7D 1_555 1_555
C4G C5G 1_555 1_555
C7G O6G 1_555 1_555
C8D O7D 1_555 1_555
C9G C12G 1_555 1_555
C18D C20D 1_555 1_555

#END
