
#######################################################################
#
#                 Cambridge Crystallographic Data Centre
#                                CCDC 
#
#######################################################################
#
# If this CIF has been generated from an entry in the Cambridge 
# Structural Database, then it will include bibliographic, chemical, 
# crystal, experimental, refinement or atomic coordinate data resulting 
# from the CCDC's data processing and validation procedures.
#
#######################################################################

data_ESARIB
_chemical_formula_moiety         'C51 H6 N12 O12 Zn2'
_symmetry_cell_setting           orthorhombic
_symmetry_space_group_name_H-M   'P n m a'
_symmetry_Int_Tables_number      62
_space_group_name_Hall           '-P 2ac 2n'
loop_
_symmetry_equiv_pos_site_id
_symmetry_equiv_pos_as_xyz
1 x,y,z
2 1/2-x,-y,1/2+z
3 1/2+x,1/2-y,1/2-z
4 -x,1/2+y,-z
5 -x,-y,-z
6 1/2+x,y,1/2-z
7 1/2-x,1/2+y,1/2+z
8 x,1/2-y,z
_cell_length_a                   24.0626(5)
_cell_length_b                   15.1916(4)
_cell_length_c                   10.4865(3)
_cell_angle_alpha                90
_cell_angle_beta                 90
_cell_angle_gamma                90
_cell_volume                     3833.33
loop_
_atom_site_label
_atom_site_type_symbol
_atom_site_fract_x
_atom_site_fract_y
_atom_site_fract_z
_atom_site_U_iso_or_equiv
_atom_site_thermal_displace_type
Zn1 Zn 0.71013(3) 0.7500 0.10479(7) 0.0242 Uani
Zn2 Zn 0.29751(3) 0.7500 0.17666(7) 0.0250 Uani
O1 O 0.73200(18) 1.1551(3) 0.5647(4) 0.0443 Uani
O2 O 0.66468(16) 1.1576(3) 0.7118(5) 0.0460 Uani
C1 C 0.6870(2) 1.1290(3) 0.6149(5) 0.0317 Uani
C2 C 0.6932(2) 0.8680(3) 0.3186(5) 0.0337 Uani
O3 O 0.73836(18) 0.8450(3) 0.3657(5) 0.0480 Uani
O4 O 0.67174(18) 0.8414(3) 0.2173(5) 0.0527 Uani
C3 C 0.6881(2) 0.9971(3) 0.4679(5) 0.0340 Uani
H1 H 0.7268 0.9992 0.4678 0.0410 Uiso
N1 N 0.5145(3) 0.9841(7) 0.4531(9) 0.0880 Uani
C4 C 0.6029(2) 0.9332(4) 0.3899(6) 0.0440 Uani
H2 H 0.5846 0.8945 0.3355 0.0530 Uiso
C5 C 0.6577(2) 1.0571(3) 0.5414(5) 0.0330 Uani
C6 C 0.6605(2) 0.9345(3) 0.3953(5) 0.0340 Uani
C7 C 0.6004(2) 1.0525(4) 0.5446(6) 0.0403 Uani
H3 H 0.5802 1.0899 0.5974 0.0480 Uiso
C8 C 0.5728(3) 0.9908(4) 0.4674(6) 0.0467 Uani
O5 O 0.4987(2) 0.9870(6) 0.3238(7) 0.0880 Uani
C2D C 0.3068(2) 1.1320(3) 0.6814(5) 0.0337 Uani
O3D O 0.26164(18) 1.1550(3) 0.6343(5) 0.0480 Uani
O4D O 0.32826(18) 1.1586(3) 0.7827(5) 0.0527 Uani
C3D C 0.3119(2) 1.0029(3) 0.5321(5) 0.0340 Uani
H1D H 0.2732 1.0008 0.5322 0.0410 Uiso
N1D N 0.4855(3) 1.0159(7) 0.5469(9) 0.0880 Uani
C4D C 0.3971(2) 1.0668(4) 0.6101(6) 0.0440 Uani
H2D H 0.4154 1.1055 0.6645 0.0530 Uiso
C5D C 0.3423(2) 0.9429(3) 0.4586(5) 0.0330 Uani
C6D C 0.3395(2) 1.0655(3) 0.6047(5) 0.0340 Uani
C7D C 0.3996(2) 0.9475(4) 0.4554(6) 0.0403 Uani
H3D H 0.4198 0.9101 0.4026 0.0480 Uiso
C8D C 0.4272(3) 1.0092(4) 0.5326(6) 0.0467 Uani
O5D O 0.5013(2) 1.0130(6) 0.6762(7) 0.0880 Uani
O1D O 0.26800(18) 0.8449(3) 0.4353(4) 0.0443 Uani
O2D O 0.33532(16) 0.8424(3) 0.2882(5) 0.0460 Uani
C1D C 0.3130(2) 0.8710(3) 0.3851(5) 0.0317 Uani
C9 C 0.3808(17) 0.8641(15) -0.121(2) 0.2043 Uani
N2 N 0.3752(6) 0.7818(11) -0.1813(15) 0.0880 Uani
N3 N 0.3430(5) 0.7676(13) 0.0181(13) 0.0880 Uani
C10 C 0.3510(13) 0.7220(13) -0.0946(19) 0.2043 Uani
C11 C 0.3630(16) 0.8549(16) 0.005(2) 0.2043 Uani
C12 C 0.5995 0.7505 -0.3669 0.2043 Uani
N4 N 0.6219(6) 0.7834(12) -0.2436(14) 0.0880 Uani
C13 C 0.6211(16) 0.8678(15) -0.191(3) 0.2043 Uani
C14 C 0.6441(15) 0.8592(13) -0.069(3) 0.2043 Uani
N5 N 0.6659(4) 0.7747(6) -0.0591(9) 0.0380 Uani
C15 C 0.6702(7) 0.8824(12) -0.1493(11) 0.2043 Uani
C16 C 0.3252(7) 0.8754(14) -0.0914(16) 0.2043 Uani
C17 C 0.6860 0.9065 -0.0070 0.2043 Uani
C18 C 0.6429 0.7157 -0.1523 0.2043 Uani
C19 C 0.4424(6) 0.742(4) -0.3513(15) 0.2043 Uani
C20 C 0.5421(6) 0.745(4) -0.3719(16) 0.2043 Uani
C21 C 0.3837(6) 0.740(4) -0.3071(15) 0.2043 Uani
C22 C 0.4936(5) 0.7763(18) -0.3137(12) 0.1283 Uani
C23 C 0.2905(8) 0.934(2) 0.0042(16) 0.2043 Uani
C24 C 0.2746 0.8538 -0.1875 0.2043 Uani
C9G C 0.3808(17) 0.6359(15) -0.121(2) 0.2043 Uani
N2G N 0.3752(6) 0.7182(11) -0.1813(15) 0.0880 Uani
N3G N 0.3430(5) 0.7324(13) 0.0181(13) 0.0880 Uani
C10G C 0.3510(13) 0.7780(13) -0.0946(19) 0.2043 Uani
C11G C 0.3630(16) 0.6451(16) 0.005(2) 0.2043 Uani
N4G N 0.6219(6) 0.7166(12) -0.2436(14) 0.0880 Uani
C13G C 0.6211(16) 0.6322(15) -0.191(3) 0.2043 Uani
C14G C 0.6441(15) 0.6408(13) -0.069(3) 0.2043 Uani
N5G N 0.6659(4) 0.7253(6) -0.0591(9) 0.0380 Uani
C15G C 0.6702(7) 0.6176(12) -0.1493(11) 0.2043 Uani
C16G C 0.3252(7) 0.6246(14) -0.0914(16) 0.2043 Uani
C17G C 0.6860 0.5935 -0.0070 0.2043 Uani
C18G C 0.6429 0.7843 -0.1523 0.2043 Uani
C19G C 0.4424(6) 0.758(4) -0.3513(15) 0.2043 Uani
C20G C 0.5421(6) 0.755(4) -0.3719(16) 0.2043 Uani
C21G C 0.3837(6) 0.760(4) -0.3071(15) 0.2043 Uani
C22G C 0.4936(5) 0.7237(18) -0.3137(12) 0.1283 Uani
C23G C 0.2905(8) 0.566(2) 0.0042(16) 0.2043 Uani
C24G C 0.2746 0.6462 -0.1875 0.2043 Uani
N6 N 0.4975 0.7970 0.1513 0.0890 Uani
C25 C 0.4713 0.7500 0.2495 0.2043 Uani
O6 O 0.4943 0.7013 0.3324 0.1513 Uani
C26 C 0.5463 0.7500 0.1223 0.2043 Uani
C27 C 0.4770 0.8740 0.0825 0.2043 Uani
N6G N 0.4975 0.7030 0.1513 0.0890 Uani
O6G O 0.4943 0.7987 0.3324 0.1513 Uani
C27G C 0.4770 0.6260 0.0825 0.2043 Uani
loop_
_atom_site_aniso_label
_atom_site_aniso_U_11
_atom_site_aniso_U_22
_atom_site_aniso_U_33
_atom_site_aniso_U_23
_atom_site_aniso_U_13
_atom_site_aniso_U_12
Zn1 0.0203(4) 0.0260(4) 0.0264(4) 0.000 0.0000(3) 0.000
Zn2 0.0213(4) 0.0279(4) 0.0258(4) 0.000 0.0003(3) 0.000
O1 0.039 0.045 0.049 -0.0143 0.0014 -0.019
O2 0.0331 0.047 0.058 -0.0289 -0.0026 -0.0048
C1 0.025 0.032 0.038 -0.008 -0.0082 0.0039
C2 0.029 0.033 0.039 -0.007 0.009 0.0014
O3 0.039 0.048 0.057 -0.017 0.0009 0.0186
O4 0.041 0.055 0.062 -0.032 0.002 0.0075
C3 0.023 0.035 0.044 -0.009 0.0009 0.0017
N1 0.049 0.125 0.09 -0.027 0.0024 0
C4 0.025 0.046 0.061 -0.027 0 -0.003
C5 0.023 0.032 0.044 -0.009 -0.0002 -0.0002
C6 0.026 0.035 0.041 -0.01 0.0059 -0.0024
C7 0.024 0.043 0.054 -0.022 0.001 -0.001
C8 0.033 0.046 0.061 -0.029 -0.007 -0.003
O5 0.049 0.125 0.09 -0.027 0.0024 0
C2D 0.029 0.033 0.039 -0.007 0.009 0.0014
O3D 0.039 0.048 0.057 -0.017 0.0009 0.0186
O4D 0.041 0.055 0.062 -0.032 0.002 0.0075
C3D 0.023 0.035 0.044 -0.009 0.0009 0.0017
N1D 0.049 0.125 0.09 -0.027 0.0024 0
C4D 0.025 0.046 0.061 -0.027 0 -0.003
C5D 0.023 0.032 0.044 -0.009 -0.0002 -0.0002
C6D 0.026 0.035 0.041 -0.01 0.0059 -0.0024
C7D 0.024 0.043 0.054 -0.022 0.001 -0.001
C8D 0.033 0.046 0.061 -0.029 -0.007 -0.003
O5D 0.049 0.125 0.09 -0.027 0.0024 0
O1D 0.039 0.045 0.049 -0.0143 0.0014 -0.019
O2D 0.0331 0.047 0.058 -0.0289 -0.0026 -0.0048
C1D 0.025 0.032 0.038 -0.008 -0.0082 0.0039
C9 0.122(4) 0.377(14) 0.114(3) -0.065(7) 0.002(3) 0.003(6)
N2 0.049(2) 0.125(5) 0.090(3) -0.027(3) -0.0024(19) 0.000(2)
N3 0.049(2) 0.125(5) 0.090(3) -0.027(3) -0.0024(19) 0.000(2)
C10 0.122(4) 0.377(14) 0.114(3) -0.065(7) 0.002(3) 0.003(6)
C11 0.122(4) 0.377(14) 0.114(3) -0.065(7) 0.002(3) 0.003(6)
C12 0.122(4) 0.377(14) 0.114(3) -0.065(7) 0.002(3) 0.003(6)
N4 0.049(2) 0.125(5) 0.090(3) -0.027(3) -0.0024(19) 0.000(2)
C13 0.122(4) 0.377(14) 0.114(3) -0.065(7) 0.002(3) 0.003(6)
C14 0.122(4) 0.377(14) 0.114(3) -0.065(7) 0.002(3) 0.003(6)
N5 0.038(4) 0.042(6) 0.034(4) 0.004(3) -0.001(3) 0.001(3)
C15 0.122 0.377 0.114 0.065 0.002 -0.003
C16 0.122 0.377 0.114 0.065 0.002 -0.003
C17 0.122 0.377 0.114 0.065 0.002 -0.003
C18 0.122(4) 0.377(14) 0.114(3) -0.065(7) 0.002(3) 0.003(6)
C19 0.122(4) 0.377(14) 0.114(3) -0.065(7) 0.002(3) 0.003(6)
C20 0.122(4) 0.377(14) 0.114(3) -0.065(7) 0.002(3) 0.003(6)
C21 0.122(4) 0.377(14) 0.114(3) -0.065(7) 0.002(3) 0.003(6)
C22 0.095(8) 0.20(4) 0.090(6) 0.022(10) -0.002(6) -0.010(9)
C23 0.122 0.377 0.114 0.065 0.002 -0.003
C24 0.122 0.377 0.114 0.065 0.002 -0.003
C9G 0.122 0.377 0.114 0.065 0.002 -0.003
N2G 0.049 0.125 0.09 0.027 -0.0024 0
N3G 0.049 0.125 0.09 0.027 -0.0024 0
C10G 0.122 0.377 0.114 0.065 0.002 -0.003
C11G 0.122 0.377 0.114 0.065 0.002 -0.003
N4G 0.049 0.125 0.09 0.027 -0.0024 0
C13G 0.122 0.377 0.114 0.065 0.002 -0.003
C14G 0.122 0.377 0.114 0.065 0.002 -0.003
N5G 0.038 0.042 0.034 -0.004 -0.001 -0.001
C15G 0.122 0.377 0.114 -0.065 0.002 0.003
C16G 0.122 0.377 0.114 -0.065 0.002 0.003
C17G 0.122 0.377 0.114 -0.065 0.002 0.003
C18G 0.122 0.377 0.114 0.065 0.002 -0.003
C19G 0.122 0.377 0.114 0.065 0.002 -0.003
C20G 0.122 0.377 0.114 0.065 0.002 -0.003
C21G 0.122 0.377 0.114 0.065 0.002 -0.003
C22G 0.095 0.2 0.09 -0.022 -0.002 0.01
C23G 0.122 0.377 0.114 -0.065 0.002 0.003
C24G 0.122 0.377 0.114 -0.065 0.002 0.003
N6 0.064(9) 0.127(15) 0.076(9) -0.029(8) 0.004(8) 0.004(8)
C25 0.122(4) 0.377(14) 0.114(3) -0.065(7) 0.002(3) 0.003(6)
O6 0.17(2) 0.18(2) 0.104(11) 0.057(13) 0.002(13) -0.009(13)
C26 0.122(4) 0.377(14) 0.114(3) -0.065(7) 0.002(3) 0.003(6)
C27 0.122(4) 0.377(14) 0.114(3) -0.065(7) 0.002(3) 0.003(6)
N6G 0.064 0.127 0.076 0.029 0.004 -0.004
O6G 0.17 0.18 0.104 -0.057 0.002 0.009
C27G 0.122 0.377 0.114 0.065 0.002 -0.003
loop_
_geom_bond_atom_site_label_1
_geom_bond_atom_site_label_2
_geom_bond_site_symmetry_1
_geom_bond_site_symmetry_2
O1 C1 1_555 1_555
O2 C1 1_555 1_555
C1 C5 1_555 1_555
C2 O3 1_555 1_555
O4 C2 1_555 1_555
C3 H1 1_555 1_555
N1 C8 1_555 1_555
C4 H2 1_555 1_555
C5 C3 1_555 1_555
C6 C2 1_555 1_555
C7 C5 1_555 1_555
H3 C7 1_555 1_555
C8 C4 1_555 1_555
O5 N1 1_555 1_555
C9 N2 1_555 1_555
N2 C21 1_555 1_555
N3 C10 1_555 1_555
C10 C9G 1_555 1_555
C11 C9 1_555 1_555
C12 N4 1_555 1_555
N4 C13 1_555 1_555
C13 C14 1_555 1_555
C14 N5 1_555 1_555
N5 N5G 1_555 1_555
C15 C13 1_555 1_555
C16 C9 1_555 1_555
C17 C14 1_555 1_555
C18 C13G 1_555 1_555
C19 C21 1_555 1_555
C20 C12 1_555 1_555
C21 N2G 1_555 1_555
C22 C19 1_555 1_555
C23 C16 1_555 1_555
C24 C16 1_555 1_555
N6 C25 1_555 1_555
C25 O6 1_555 1_555
O6 O6G 1_555 1_555
C26 N6 1_555 1_555
C27 N6 1_555 1_555
C2D O3D 1_555 1_555
O4D C2D 1_555 1_555
C3D H1D 1_555 1_555
N1D N1 1_555 1_555
C4D H2D 1_555 1_555
C5D C3D 1_555 1_555
C6D C2D 1_555 1_555
C7D C5D 1_555 1_555
H3D C7D 1_555 1_555
C8D N1D 1_555 1_555
O5D N1D 1_555 1_555
O1D C1D 1_555 1_555
O2D C1D 1_555 1_555
C1D C5D 1_555 1_555
C9G N2G 1_555 1_555
N2G N2 1_555 1_555
N3G C10 1_555 1_555
C10G C9 1_555 1_555
C11G C10 1_555 1_555
N4G C12 1_555 1_555
C13G N4G 1_555 1_555
C14G C18 1_555 1_555
N5G C14G 1_555 1_555
C15G C18 1_555 1_555
C16G C10 1_555 1_555
C17G C14G 1_555 1_555
C18G C13 1_555 1_555
C19G C21 1_555 1_555
C20G C12 1_555 1_555
C21G N2 1_555 1_555
C22G C19 1_555 1_555
C23G C16G 1_555 1_555
C24G C16G 1_555 1_555
N6G N6 1_555 1_555
O6G C25 1_555 1_555
C27G N6G 1_555 1_555
C3 C6 1_555 1_555
C4 C6 1_555 1_555
C7 C8 1_555 1_555
N3 C11 1_555 1_555
N3 C10G 1_555 1_555
C10 C10G 1_555 1_555
C11 C16 1_555 1_555
C11 C10G 1_555 1_555
N4 N4G 1_555 1_555
C14 C15 1_555 1_555
C14 C18G 1_555 1_555
C15 C17 1_555 1_555
C15 C18G 1_555 1_555
C16 C10G 1_555 1_555
C18 C18G 1_555 1_555
C19 C21G 1_555 1_555
C20 C22 1_555 1_555
C20 C22G 1_555 1_555
C22 C19G 1_555 1_555
C22 C20G 1_555 1_555
C22 C22G 1_555 1_555
C25 N6G 1_555 1_555
C26 N6G 1_555 1_555
C3D C6D 1_555 1_555
C4D C6D 1_555 1_555
C4D C8D 1_555 1_555
C7D C8D 1_555 1_555
C9G C11G 1_555 1_555
C9G C16G 1_555 1_555
N2G C21G 1_555 1_555
N3G C10G 1_555 1_555
N3G C11G 1_555 1_555
C11G C16G 1_555 1_555
C13G C14G 1_555 1_555
C13G C15G 1_555 1_555
C14G C15G 1_555 1_555
C15G C17G 1_555 1_555
C19G C21G 1_555 1_555
C19G C22G 1_555 1_555
C20G C22G 1_555 1_555

#END
