
#######################################################################
#
#                 Cambridge Crystallographic Data Centre
#                                CCDC 
#
#######################################################################
#
# If this CIF has been generated from an entry in the Cambridge 
# Structural Database, then it will include bibliographic, chemical, 
# crystal, experimental, refinement or atomic coordinate data resulting 
# from the CCDC's data processing and validation procedures.
#
#######################################################################

data_ESARAT
_chemical_formula_moiety         '(C33 H35 N7 O11 Zn2)n'
_symmetry_cell_setting           monoclinic
_symmetry_space_group_name_H-M   'C 2/c'
_symmetry_Int_Tables_number      15
_space_group_name_Hall           '-C 2yc'
loop_
_symmetry_equiv_pos_site_id
_symmetry_equiv_pos_as_xyz
1 x,y,z
2 -x,y,1/2-z
3 1/2+x,1/2+y,z
4 1/2-x,1/2+y,1/2-z
5 -x,-y,-z
6 x,-y,1/2+z
7 1/2-x,1/2-y,-z
8 1/2+x,1/2-y,1/2+z
_cell_length_a                   28.9470(14)
_cell_length_b                   8.3321(5)
_cell_length_c                   18.3283(10)
_cell_angle_alpha                90
_cell_angle_beta                 114.792(4)
_cell_angle_gamma                90
_cell_volume                     4013.17
loop_
_atom_site_label
_atom_site_type_symbol
_atom_site_fract_x
_atom_site_fract_y
_atom_site_fract_z
Zn1 Zn 0.30639(2) 0.22207(9) 0.11587(4)
N1 N 0.3841(3) -0.2046(8) 0.1347(4)
O1 O 0.3756(5) 0.3035(10) 0.2308(6)
N2 N 0.3338(2) -0.0008(7) 0.1200(3)
N3 N 0.4846(4) 0.526(2) 0.5119(7)
O2 O 0.3017(4) 0.3661(12) 0.2062(4)
C1 C 0.3098(2) 0.6384(7) 0.4676(3)
C2 C 0.4314(2) 0.5156(8) 0.4562(4)
C3 C 0.3279(2) 0.5105(8) 0.3586(3)
H1 H 0.2933 0.5109 0.3250
C4 C 0.3453(2) 0.5746(7) 0.4352(3)
C5 C 0.4305(6) -0.2990(12) 0.1513(7)
H2 H 0.4553 -0.2307 0.1438
H3 H 0.4223 -0.3857 0.1126
C6 C 0.4248(3) 0.0688(10) 0.1538(5)
H4 H 0.4444 0.0775 0.2108
H5 H 0.4119 0.1726 0.1320
H6 H 0.4460 0.0286 0.1293
C7 C 0.3625(3) 0.4454(8) 0.3325(4)
C8 C 0.3815(3) -0.0434(8) 0.1372(4)
C9 C 0.5000 -0.4668(19) 0.2500
H7 H 0.4933 -0.5354 0.2039
C10 C 0.3976(2) 0.5790(8) 0.4840(3)
H8 H 0.4096 0.6243 0.5350
C11 C 0.4136(3) 0.4477(9) 0.3803(4)
H9 H 0.4364 0.4040 0.3620
C12 C 0.3371(5) -0.2659(10) 0.1166(6)
H10 H 0.3281 -0.3738 0.1118
C13 C 0.3060(4) -0.1392(11) 0.1070(5)
H11 H 0.2713 -0.1450 0.0937
C14 C 0.4541(5) -0.3689(14) 0.2349(7)
H12 H 0.4633 -0.2821 0.2737
H13 H 0.4291 -0.4352 0.2429
C15 C 0.3460(6) 0.3659(11) 0.2516(6)
O3 O 0.4952(3) 0.6197(17) 0.5858(5)
O4 O 0.32652(18) 0.6595(7) 0.5424(3)
O5 O 0.2658(2) 0.6636(10) 0.4189(4)
H7A H 0.5067 -0.5354 0.2961
N1A N 0.6159(3) -0.2046(8) 0.3653(4)
N2A N 0.6662(2) -0.0008(7) 0.3800(3)
C5A C 0.5695(6) -0.2990(12) 0.3487(7)
H2A H 0.5447 -0.2307 0.3562
H3A H 0.5777 -0.3857 0.3874
C6A C 0.5752(3) 0.0688(10) 0.3462(5)
H4A H 0.5556 0.0775 0.2892
H5A H 0.5881 0.1726 0.3680
H6A H 0.5540 0.0286 0.3707
C8A C 0.6185(3) -0.0434(8) 0.3628(4)
C12A C 0.6629(5) -0.2659(10) 0.3834(6)
H10A H 0.6719 -0.3738 0.3882
C13A C 0.6940(4) -0.1392(11) 0.3930(5)
H11A H 0.7287 -0.1450 0.4063
C14A C 0.5459(5) -0.3689(14) 0.2651(7)
H12A H 0.5367 -0.2821 0.2263
H13A H 0.5709 -0.4352 0.2571
O1D O 0.6244(5) 0.6965(10) 0.7692(6)
N3D N 0.5154(4) 0.474(2) 0.4881(7)
O2D O 0.6983(4) 0.6339(12) 0.7938(4)
C1D C 0.6902(2) 0.3616(7) 0.5324(3)
C2D C 0.5686(2) 0.4844(8) 0.5438(4)
C3D C 0.6721(2) 0.4895(8) 0.6414(3)
H1D H 0.7067 0.4891 0.6750
C4D C 0.6547(2) 0.4254(7) 0.5648(3)
C7D C 0.6375(3) 0.5546(8) 0.6675(4)
C10D C 0.6024(2) 0.4210(8) 0.5160(3)
H8D H 0.5904 0.3757 0.4650
C11D C 0.5864(3) 0.5523(9) 0.6197(4)
H9D H 0.5636 0.5960 0.6380
C15D C 0.6540(6) 0.6341(11) 0.7484(6)
O3D O 0.5048(3) 0.3803(17) 0.4142(5)
O4D O 0.67348(18) 0.3405(7) 0.4576(3)
O5D O 0.7342(2) 0.3364(10) 0.5811(4)
Zn1A Zn 0.69361(2) 0.22207(9) 0.38413(4)
Zn1C Zn 0.19361(2) 0.72207(9) 0.38413(4)
Zn1D Zn 0.69361(2) 0.77793(9) 0.88413(4)
Zn1E Zn 0.30639(2) 0.77793(9) 0.61587(4)
Zn1G Zn 0.80639(2) 0.27793(9) 0.61587(4)
O1A O 0.6244(5) 0.3035(10) 0.2692(6)
O2A O 0.6983(4) 0.3661(12) 0.2938(4)
O4E O 0.32652(18) 0.3405(7) 0.0424(3)
O5B O 0.7658(2) 0.1636(10) 0.4189(4)
O5C O 0.2342(2) 0.1636(10) 0.0811(4)
N4 N 0.3546(6) 0.0226(12) 0.3855(6)
O6 O 0.4220(4) 0.1073(13) 0.4917(5)
C16 C 0.4042(7) 0.0358(16) 0.4261(9)
C17 C 0.3312(7) -0.0589(16) 0.3068(7)
H15 H 0.3573 -0.1073 0.2948
H16 H 0.3128 0.0179 0.2659
H17 H 0.3082 -0.1404 0.3086
C18 C 0.4357(7) -0.031(2) 0.3873(10)
H18 H 0.4252 -0.1397 0.3706
H19 H 0.4708 -0.0306 0.4249
H20 H 0.4314 0.0324 0.3413
C19 C 0.3198(6) 0.0925(15) 0.4178(7)
H21 H 0.3118 0.0128 0.4485
H22 H 0.2891 0.1277 0.3741
H23 H 0.3361 0.1823 0.4517
loop_
_geom_bond_atom_site_label_1
_geom_bond_atom_site_label_2
_geom_bond_site_symmetry_1
_geom_bond_site_symmetry_2
Zn1 O1 1_555 1_555
N1 C5 1_555 1_555
O1 C15 1_555 1_555
N2 Zn1 1_555 1_555
N3 C2 1_555 1_555
O2 Zn1 1_555 1_555
C1 C4 1_555 1_555
C2 C10 1_555 1_555
C3 H1 1_555 1_555
C4 C3 1_555 1_555
C5 H2 1_555 1_555
H3 C5 1_555 1_555
C6 H4 1_555 1_555
H5 C6 1_555 1_555
H6 C6 1_555 1_555
C7 C3 1_555 1_555
C8 N1 1_555 1_555
C9 H7 1_555 1_555
C10 C4 1_555 1_555
H8 C10 1_555 1_555
C11 C2 1_555 1_555
H9 C11 1_555 1_555
C12 N1 1_555 1_555
H10 C12 1_555 1_555
C13 N2 1_555 1_555
H11 C13 1_555 1_555
C14 C5 1_555 1_555
H12 C14 1_555 1_555
H13 C14 1_555 1_555
C15 O2 1_555 1_555
O3 N3 1_555 1_555
O4 C1 1_555 1_555
O5 C1 1_555 1_555
N4 C16 1_555 1_555
O6 C16 1_555 1_555
C16 C18 1_555 1_555
C17 N4 1_555 1_555
H15 C17 1_555 1_555
H16 C17 1_555 1_555
H17 C17 1_555 1_555
C18 H18 1_555 1_555
H19 C18 1_555 1_555
H20 C18 1_555 1_555
C19 N4 1_555 1_555
H21 C19 1_555 1_555
H22 C19 1_555 1_555
H23 C19 1_555 1_555
H7A C9 1_555 1_555
N1A C5A 1_555 1_555
N2A C8A 1_555 1_555
C5A H2A 1_555 1_555
H3A C5A 1_555 1_555
C6A H4A 1_555 1_555
H5A C6A 1_555 1_555
H6A C6A 1_555 1_555
C8A N1A 1_555 1_555
C12A N1A 1_555 1_555
H10A C12A 1_555 1_555
C13A N2A 1_555 1_555
H11A C13A 1_555 1_555
C14A C9 1_555 1_555
H12A C14A 1_555 1_555
H13A C14A 1_555 1_555
O1D C15D 1_555 1_555
N3D N3 1_555 1_555
O2D C15D 1_555 1_555
C1D C4D 1_555 1_555
C2D N3D 1_555 1_555
C3D H1D 1_555 1_555
C4D C3D 1_555 1_555
C7D C3D 1_555 1_555
C10D C2D 1_555 1_555
H8D C10D 1_555 1_555
C11D C2D 1_555 1_555
H9D C11D 1_555 1_555
C15D C7D 1_555 1_555
O3D N3D 1_555 1_555
O4D C1D 1_555 1_555
O5D C1D 1_555 1_555
Zn1A N2A 1_555 1_555
Zn1C O5 1_555 1_555
Zn1D O1D 1_555 1_555
Zn1E O4 1_555 1_555
Zn1G O5D 1_555 1_555
O1A Zn1A 1_555 1_555
O2A Zn1A 1_555 1_555
O4E Zn1 1_555 1_555
O5B Zn1A 1_555 1_555
O5C Zn1 1_555 1_555
N2 C8 1_555 1_555
C6 C8 1_555 1_555
C7 C11 1_555 1_555
C7 C15 1_555 1_555
C9 C14 1_555 1_555
C12 C13 1_555 1_555
C5A C14A 1_555 1_555
C6A C8A 1_555 1_555
C12A C13A 1_555 1_555
O2D Zn1D 1_555 1_555
C4D C10D 1_555 1_555
C7D C11D 1_555 1_555
O4D Zn1A 1_555 1_555

#END
