
#######################################################################
#
#                 Cambridge Crystallographic Data Centre
#                                CCDC 
#
#######################################################################
#
# If this CIF has been generated from an entry in the Cambridge 
# Structural Database, then it will include bibliographic, chemical, 
# crystal, experimental, refinement or atomic coordinate data resulting 
# from the CCDC's data processing and validation procedures.
#
#######################################################################

data_ESASAU
_chemical_formula_moiety         '(C32 H32 N6 O10 Zn2)n'
_symmetry_cell_setting           monoclinic
_symmetry_space_group_name_H-M   'C 2/c'
_symmetry_Int_Tables_number      15
_space_group_name_Hall           '-C 2yc'
loop_
_symmetry_equiv_pos_site_id
_symmetry_equiv_pos_as_xyz
1 x,y,z
2 -x,y,1/2-z
3 1/2+x,1/2+y,z
4 1/2-x,1/2+y,1/2-z
5 -x,-y,-z
6 x,-y,1/2+z
7 1/2-x,1/2-y,-z
8 1/2+x,1/2-y,1/2+z
_cell_length_a                   27.6213(7)
_cell_length_b                   10.5121(3)
_cell_length_c                   14.7614(4)
_cell_angle_alpha                90
_cell_angle_beta                 117.0480(10)
_cell_angle_gamma                90
_cell_volume                     3817.3
loop_
_atom_site_label
_atom_site_type_symbol
_atom_site_fract_x
_atom_site_fract_y
_atom_site_fract_z
_atom_site_U_iso_or_equiv
_atom_site_thermal_displace_type
Zn1 Zn -0.20908(2) 0.64000(5) 0.53548(4) 0.0182 Uani
O1 O -0.16591(17) 0.7365(4) 0.6680(3) 0.0394 Uani
O2 O -0.16911(16) 1.2505(4) 0.9750(3) 0.0385 Uani
O3 O -0.23361(17) 1.1016(4) 0.9153(4) 0.0353 Uani
O4 O -0.2303(3) 0.8874(6) 0.6116(5) 0.0689 Uani
N1 N -0.17275(18) 0.4721(4) 0.5432(4) 0.0281 Uani
C1 C -0.15615(19) 1.0706(5) 0.8916(4) 0.0221 Uani
C2 C -0.18385(18) 0.9979(5) 0.8048(3) 0.0221 Uani
H1 H -0.2215 1.0032 0.7688 0.0270 Uiso
N2 N -0.1418(2) 0.2771(5) 0.5738(5) 0.0410 Uani
C3 C -0.15529(18) 0.9168(5) 0.7715(4) 0.0213 Uani
C4 C -0.1889(2) 1.1488(5) 0.9308(4) 0.0243 Uani
C5 C -0.18632(19) 0.8401(5) 0.6753(4) 0.0218 Uani
N3 N -0.0140(3) 0.9668(12) 0.9636(10) 0.1179 Uani
C6 C -0.0997(2) 1.0676(5) 0.9449(4) 0.0267 Uani
H2 H -0.0813 1.1200 1.0010 0.0320 Uiso
C7 C -0.0989(2) 0.9066(5) 0.8275(4) 0.0255 Uani
H3 H -0.0799 0.8485 0.8083 0.0310 Uiso
C8 C -0.1641(2) 0.3717(5) 0.6026(5) 0.0340 Uani
C9 C -0.0711(2) 0.9842(5) 0.9126(4) 0.0294 Uani
C10 C -0.1235(3) 0.1525(6) 0.6231(8) 0.0587 Uani
H4 H -0.1411 0.0853 0.5739 0.0710 Uiso
H5 H -0.1337 0.1432 0.6775 0.0710 Uiso
C11 C -0.1553(3) 0.4393(7) 0.4723(6) 0.0470 Uani
H6 H -0.1566 0.4917 0.4205 0.0560 Uiso
C12 C -0.1782(3) 0.3627(6) 0.6890(6) 0.0449 Uani
H7 H -0.1829 0.4477 0.7093 0.0540 Uiso
H8 H -0.1484 0.3228 0.7466 0.0540 Uiso
C13 C -0.1361(3) 0.3186(7) 0.4903(6) 0.0525 Uani
H9 H -0.1220 0.2729 0.4538 0.0630 Uiso
C14 C -0.2303(4) 0.2857(8) 0.6601(8) 0.0628 Uani
H10 H -0.2599 0.3250 0.6030 0.0940 Uiso
H11 H -0.2384 0.2834 0.7167 0.0940 Uiso
H12 H -0.2252 0.2006 0.6424 0.0940 Uiso
C15 C -0.0622(3) 0.1402(8) 0.6661(9) 0.0693 Uani
H13 H -0.0507 0.0607 0.7033 0.0830 Uiso
H14 H -0.0529 0.1367 0.6102 0.0830 Uiso
C16 C -0.0312(4) 0.2482(11) 0.7361(13) 0.1081 Uani
H15 H -0.0349 0.2421 0.7982 0.1300 Uiso
H16 H -0.0472 0.3283 0.7036 0.1300 Uiso
O5 O 0.0019(3) 0.8765(9) 0.9213(8) 0.1179 Uani
O1D O 0.16591(17) 1.2635(4) 1.3320(3) 0.0394 Uani
O2D O 0.16911(16) 0.7495(4) 1.0250(3) 0.0385 Uani
O3D O 0.23361(17) 0.8984(4) 1.0847(4) 0.0353 Uani
O4D O 0.2303(3) 1.1126(6) 1.3884(5) 0.0689 Uani
C1D C 0.15615(19) 0.9294(5) 1.1084(4) 0.0221 Uani
C2D C 0.18385(18) 1.0021(5) 1.1952(3) 0.0221 Uani
H1D H 0.2215 0.9968 1.2312 0.0270 Uiso
C3D C 0.15529(18) 1.0832(5) 1.2285(4) 0.0213 Uani
C4D C 0.1889(2) 0.8512(5) 1.0692(4) 0.0243 Uani
C5D C 0.18632(19) 1.1599(5) 1.3247(4) 0.0218 Uani
N3D N 0.0140(3) 1.0332(12) 1.0364(10) 0.1179 Uani
C6D C 0.0997(2) 0.9324(5) 1.0551(4) 0.0267 Uani
H2D H 0.0813 0.8800 0.9990 0.0320 Uiso
C7D C 0.0989(2) 1.0934(5) 1.1725(4) 0.0255 Uani
H3D H 0.0799 1.1515 1.1917 0.0310 Uiso
C9D C 0.0711(2) 1.0158(5) 1.0874(4) 0.0294 Uani
O5D O -0.0019(3) 1.1235(9) 1.0787(8) 0.1179 Uani
N1A N 0.17275(18) 0.4721(4) 0.9568(4) 0.0281 Uani
N2A N 0.1418(2) 0.2771(5) 0.9262(5) 0.0410 Uani
C8A C 0.1641(2) 0.3717(5) 0.8974(5) 0.0340 Uani
C10A C 0.1235(3) 0.1525(6) 0.8769(8) 0.0587 Uani
H4A H 0.1411 0.0853 0.9261 0.0710 Uiso
H5A H 0.1337 0.1432 0.8225 0.0710 Uiso
C11A C 0.1553(3) 0.4393(7) 1.0277(6) 0.0470 Uani
H6A H 0.1566 0.4917 1.0795 0.0560 Uiso
C12A C 0.1782(3) 0.3627(6) 0.8110(6) 0.0449 Uani
H7A H 0.1829 0.4477 0.7907 0.0540 Uiso
H8A H 0.1484 0.3228 0.7534 0.0540 Uiso
C13A C 0.1361(3) 0.3186(7) 1.0097(6) 0.0525 Uani
H9A H 0.1220 0.2729 1.0462 0.0630 Uiso
C14A C 0.2303(4) 0.2857(8) 0.8399(8) 0.0628 Uani
H10A H 0.2599 0.3250 0.8970 0.0940 Uiso
H11A H 0.2384 0.2834 0.7833 0.0940 Uiso
H12A H 0.2252 0.2006 0.8576 0.0940 Uiso
C15A C 0.0622(3) 0.1402(8) 0.8339(9) 0.0693 Uani
H13A H 0.0507 0.0607 0.7967 0.0830 Uiso
H14A H 0.0529 0.1367 0.8898 0.0830 Uiso
C16A C 0.0312(4) 0.2482(11) 0.7639(13) 0.1081 Uani
H15A H 0.0349 0.2421 0.7018 0.1300 Uiso
H16A H 0.0472 0.3283 0.7964 0.1300 Uiso
Zn1A Zn 0.20908(2) 0.64000(5) 0.96452(4) 0.0182 Uani
Zn1B Zn 0.29092(2) 1.14000(5) 1.53548(4) 0.0182 Uani
Zn1C Zn -0.29092(2) 1.14000(5) 0.96452(4) 0.0182 Uani
Zn1D Zn 0.20908(2) 1.36000(5) 1.46452(4) 0.0182 Uani
Zn1E Zn -0.20908(2) 1.36000(5) 1.03548(4) 0.0182 Uani
Zn1F Zn -0.29092(2) 0.86000(5) 0.46452(4) 0.0182 Uani
Zn1G Zn 0.29092(2) 0.86000(5) 1.03548(4) 0.0182 Uani
O1A O 0.16591(17) 0.7365(4) 0.8320(3) 0.0394 Uani
O2E O -0.16911(16) 0.7495(4) 0.4750(3) 0.0385 Uani
O3B O 0.26639(17) 0.6016(4) 0.9153(4) 0.0353 Uani
O3C O -0.26639(17) 0.6016(4) 0.5847(4) 0.0353 Uani
O4F O -0.2697(3) 0.6126(6) 0.3884(5) 0.0689 Uani
O4G O 0.2697(3) 0.6126(6) 1.1116(5) 0.0689 Uani
loop_
_atom_site_aniso_label
_atom_site_aniso_U_11
_atom_site_aniso_U_22
_atom_site_aniso_U_33
_atom_site_aniso_U_23
_atom_site_aniso_U_13
_atom_site_aniso_U_12
Zn1 0.0168(3) 0.0173(3) 0.0191(3) -0.00070(18) 0.0070(2) -0.00070(18)
O1 0.0310(19) 0.043(2) 0.037(2) -0.0225(18) 0.0092(17) -0.0033(17)
O2 0.0274(19) 0.041(2) 0.047(2) -0.0180(19) 0.0167(18) 0.0023(17)
O3 0.032(2) 0.034(2) 0.053(2) -0.0058(18) 0.0307(19) 0.0017(16)
O4 0.058(3) 0.071(3) 0.056(2) -0.011(2) 0.007(2) -0.006(2)
N1 0.027(2) 0.024(2) 0.033(2) 0.0002(17) 0.0134(19) 0.0041(17)
C1 0.019(2) 0.028(2) 0.020(2) -0.0007(18) 0.0094(18) 0.0047(18)
C2 0.015(2) 0.028(2) 0.019(2) -0.0013(18) 0.0040(17) 0.0020(17)
N2 0.039(3) 0.026(2) 0.057(3) 0.000(2) 0.021(3) 0.008(2)
C3 0.017(2) 0.026(2) 0.020(2) -0.0050(18) 0.0075(18) -0.0021(17)
C4 0.023(2) 0.029(2) 0.022(2) -0.0043(18) 0.0111(19) 0.0038(18)
C5 0.015(2) 0.031(2) 0.016(2) -0.0034(18) 0.0041(17) -0.0037(18)
N3 0.047(3) 0.130(6) 0.136(6) -0.081(5) 0.006(3) 0.007(3)
C6 0.017(2) 0.033(3) 0.025(2) -0.011(2) 0.0051(19) -0.0019(19)
C7 0.018(2) 0.031(3) 0.026(2) -0.006(2) 0.0087(19) 0.0045(19)
C8 0.025(3) 0.026(3) 0.047(3) 0.000(2) 0.013(2) 0.003(2)
C9 0.022(2) 0.033(3) 0.029(2) -0.007(2) 0.008(2) 0.003(2)
C10 0.051(4) 0.026(3) 0.098(7) 0.003(3) 0.033(4) 0.011(3)
C11 0.060(4) 0.045(4) 0.048(4) 0.005(3) 0.035(3) 0.016(3)
C12 0.047(4) 0.044(4) 0.045(4) 0.010(3) 0.022(3) 0.014(3)
C13 0.061(4) 0.042(4) 0.066(5) -0.008(3) 0.039(4) 0.013(3)
C14 0.066(5) 0.047(4) 0.098(6) 0.023(4) 0.057(5) 0.011(4)
C15 0.045(4) 0.048(5) 0.099(7) 0.015(4) 0.019(5) 0.019(3)
C16 0.053(5) 0.074(7) 0.150(12) -0.027(7) 0.005(7) 0.017(5)
O5 0.047(3) 0.130(6) 0.136(6) -0.081(5) 0.006(3) 0.007(3)
O1D 0.031 0.043 0.037 -0.0225 0.0092 -0.0033
O2D 0.0274 0.041 0.047 -0.018 0.0167 0.0023
O3D 0.032 0.034 0.053 -0.0058 0.0307 0.0017
O4D 0.058 0.071 0.056 -0.011 0.007 -0.006
C1D 0.019 0.028 0.02 -0.0007 0.0094 0.0047
C2D 0.015 0.028 0.019 -0.0013 0.004 0.002
C3D 0.017 0.026 0.02 -0.005 0.0075 -0.0021
C4D 0.023 0.029 0.022 -0.0043 0.0111 0.0038
C5D 0.015 0.031 0.016 -0.0034 0.0041 -0.0037
N3D 0.047 0.13 0.136 -0.081 0.006 0.007
C6D 0.017 0.033 0.025 -0.011 0.0051 -0.0019
C7D 0.018 0.031 0.026 -0.006 0.0087 0.0045
C9D 0.022 0.033 0.029 -0.007 0.008 0.003
O5D 0.047 0.13 0.136 -0.081 0.006 0.007
N1A 0.027 0.024 0.033 -0.0002 0.0134 -0.0041
N2A 0.039 0.026 0.057 0 0.021 -0.008
C8A 0.025 0.026 0.047 0 0.013 -0.003
C10A 0.051 0.026 0.098 -0.003 0.033 -0.011
C11A 0.06 0.045 0.048 -0.005 0.035 -0.016
C12A 0.047 0.044 0.045 -0.01 0.022 -0.014
C13A 0.061 0.042 0.066 0.008 0.039 -0.013
C14A 0.066 0.047 0.098 -0.023 0.057 -0.011
C15A 0.045 0.048 0.099 -0.015 0.019 -0.019
C16A 0.053 0.074 0.15 0.027 0.005 -0.017
Zn1A 0.0168 0.0173 0.0191 0.0007 0.007 0.0007
Zn1B 0.0168 0.0173 0.0191 -0.0007 0.007 -0.0007
Zn1C 0.0168 0.0173 0.0191 0.0007 0.007 0.0007
Zn1D 0.0168 0.0173 0.0191 -0.0007 0.007 -0.0007
Zn1E 0.0168 0.0173 0.0191 0.0007 0.007 0.0007
Zn1F 0.0168 0.0173 0.0191 -0.0007 0.007 -0.0007
Zn1G 0.0168 0.0173 0.0191 0.0007 0.007 0.0007
O1A 0.031 0.043 0.037 0.0225 0.0092 0.0033
O2E 0.0274 0.041 0.047 0.018 0.0167 -0.0023
O3B 0.032 0.034 0.053 -0.0058 0.0307 0.0017
O3C 0.032 0.034 0.053 0.0058 0.0307 -0.0017
O4F 0.058 0.071 0.056 -0.011 0.007 -0.006
O4G 0.058 0.071 0.056 0.011 0.007 0.006
loop_
_geom_bond_atom_site_label_1
_geom_bond_atom_site_label_2
_geom_bond_site_symmetry_1
_geom_bond_site_symmetry_2
Zn1 O1 1_555 1_555
O1 C5 1_555 1_555
O2 C4 1_555 1_555
O3 C4 1_555 1_555
O4 C5 1_555 1_555
N1 Zn1 1_555 1_555
C1 C2 1_555 1_555
C2 H1 1_555 1_555
N2 C8 1_555 1_555
C3 C2 1_555 1_555
C4 C1 1_555 1_555
C5 C3 1_555 1_555
N3 C9 1_555 1_555
C6 C1 1_555 1_555
H2 C6 1_555 1_555
C7 C3 1_555 1_555
H3 C7 1_555 1_555
C8 N1 1_555 1_555
C9 C6 1_555 1_555
C10 N2 1_555 1_555
H4 C10 1_555 1_555
H5 C10 1_555 1_555
C11 N1 1_555 1_555
H6 C11 1_555 1_555
C12 C8 1_555 1_555
H7 C12 1_555 1_555
H8 C12 1_555 1_555
C13 N2 1_555 1_555
H9 C13 1_555 1_555
C14 C12 1_555 1_555
H10 C14 1_555 1_555
H11 C14 1_555 1_555
H12 C14 1_555 1_555
C15 C10 1_555 1_555
H13 C15 1_555 1_555
H14 C15 1_555 1_555
C16 C15 1_555 1_555
H15 C16 1_555 1_555
H16 C16 1_555 1_555
O5 N3 1_555 1_555
O1D C5D 1_555 1_555
O2D C4D 1_555 1_555
O3D C4D 1_555 1_555
O4D C5D 1_555 1_555
C1D C2D 1_555 1_555
C2D H1D 1_555 1_555
C3D C2D 1_555 1_555
C4D C1D 1_555 1_555
C5D C3D 1_555 1_555
N3D N3 1_555 1_555
C6D C1D 1_555 1_555
H2D C6D 1_555 1_555
C7D C3D 1_555 1_555
H3D C7D 1_555 1_555
C9D N3D 1_555 1_555
O5D N3D 1_555 1_555
N1A C8A 1_555 1_555
N2A C8A 1_555 1_555
C8A C12A 1_555 1_555
C10A N2A 1_555 1_555
H4A C10A 1_555 1_555
H5A C10A 1_555 1_555
C11A N1A 1_555 1_555
H6A C11A 1_555 1_555
C12A H7A 1_555 1_555
H8A C12A 1_555 1_555
C13A N2A 1_555 1_555
H9A C13A 1_555 1_555
C14A C12A 1_555 1_555
H10A C14A 1_555 1_555
H11A C14A 1_555 1_555
H12A C14A 1_555 1_555
C15A C10A 1_555 1_555
H13A C15A 1_555 1_555
H14A C15A 1_555 1_555
C16A C16 1_555 1_555
H15A C16A 1_555 1_555
H16A C16A 1_555 1_555
Zn1A O2D 1_555 1_555
Zn1B O4D 1_555 1_555
Zn1C O3 1_555 1_555
Zn1D O1D 1_555 1_555
Zn1E O2 1_555 1_555
Zn1F O4 1_555 1_555
Zn1G O3D 1_555 1_555
O1A Zn1A 1_555 1_555
O2E Zn1 1_555 1_555
O3B Zn1A 1_555 1_555
O3C Zn1 1_555 1_555
O4F Zn1 1_555 1_555
O4G Zn1A 1_555 1_555
C7 C9 1_555 1_555
C11 C13 1_555 1_555
C6D C9D 1_555 1_555
C7D C9D 1_555 1_555
N1A Zn1A 1_555 1_555
C11A C13A 1_555 1_555
C15A C16A 1_555 1_555

#END
