
#######################################################################
#
#                 Cambridge Crystallographic Data Centre
#                                CCDC 
#
#######################################################################
#
# If this CIF has been generated from an entry in the Cambridge 
# Structural Database, then it will include bibliographic, chemical, 
# crystal, experimental, refinement or atomic coordinate data resulting 
# from the CCDC's data processing and validation procedures.
#
#######################################################################

data_GESNOI
_chemical_formula_moiety         'C36 H76 N8 Nd10 O64 P10 S4'
_symmetry_cell_setting           monoclinic
_symmetry_space_group_name_H-M   'I 2/m'
_symmetry_Int_Tables_number      12
_space_group_name_Hall           '-I 2y'
loop_
_symmetry_equiv_pos_site_id
_symmetry_equiv_pos_as_xyz
1 x,y,z
2 1/2+x,1/2+y,1/2+z
3 -x,y,-z
4 1/2-x,1/2+y,1/2-z
5 -x,-y,-z
6 1/2-x,1/2-y,1/2-z
7 x,-y,z
8 1/2+x,1/2-y,1/2+z
_cell_length_a                   14.303(2)
_cell_length_b                   18.7159(11)
_cell_length_c                   17.0511(11)
_cell_angle_alpha                90.00
_cell_angle_beta                 102.118(2)
_cell_angle_gamma                90.00
_cell_volume                     4462.76
loop_
_atom_site_label
_atom_site_type_symbol
_atom_site_fract_x
_atom_site_fract_y
_atom_site_fract_z
O15 O -0.0711(11) 0.1269(11) -0.4336(6)
O17 O 0.0000 -0.0000 -0.5000
O18 O 0.0225(18) 0.320(2) -0.3954(19)
O20 O -0.381(3) 0.938(2) -0.535(2)
O21 O 0.0000 0.574(3) -0.5000
O22 O -0.511(3) 0.872(3) -0.574(2)
Nd1 Nd -0.5000 0.65277(3) -0.5000
Nd2 Nd -0.35684(3) 0.5000 -0.60977(2)
P1 P -0.49002(10) 0.66327(9) -0.69026(8)
P2 P -0.27698(11) 0.75539(10) -0.49856(9)
P3 P -0.38047(13) 0.5000 -0.42425(11)
S1 S 0.0073(4) 0.5303(4) -0.2964(6)
C1 C -0.2911(4) 0.8136(3) -0.7252(4)
H1 H -0.3015 0.8459 -0.6834
H2 H -0.3238 0.8330 -0.7764
C2 C -0.3152(4) 0.6913(4) -0.7765(4)
H3 H -0.3488 0.7078 -0.8288
H4 H -0.3397 0.6444 -0.7672
C3 C -0.4361(4) 0.7487(3) -0.7107(4)
H5 H -0.4707 0.7671 -0.7617
H6 H -0.4430 0.7828 -0.6695
C4 C -0.2010(4) 0.6865(4) -0.2629(3)
H7 H -0.1350 0.7024 -0.2505
H8 H -0.2014 0.6363 -0.2773
C5 C -0.2565(5) 0.8052(4) -0.3108(4)
H9 H -0.2944 0.8318 -0.3551
H10 H -0.1920 0.8241 -0.3001
C6 C -0.2123(5) 0.7153(4) -0.4053(3)
H11 H -0.2088 0.6641 -0.4134
H12 H -0.1475 0.7336 -0.3941
C7 C -0.1144(8) 0.5000 -0.2805(11)
C8 C -0.1307(10) 0.5000 -0.2039(9)
H13 H -0.0799 0.5000 -0.1597
C9 C -0.2248(11) 0.5000 -0.1937(7)
H14 H -0.2375 0.5000 -0.1424
C10 C -0.3000(8) 0.5000 -0.2608(6)
H15 H -0.3627 0.5000 -0.2537
C11 C -0.2829(6) 0.5000 -0.3389(5)
C12 C -0.1883(7) 0.5000 -0.3481(7)
H16 H -0.1748 0.5000 -0.3991
N1 N -0.3321(3) 0.7422(3) -0.7131(3)
H17 H -0.3007 0.7251 -0.6647
N2 N -0.2549(3) 0.7282(3) -0.3327(3)
H18 H -0.3163 0.7120 -0.3441
O1 O -0.5323(3) 0.6299(3) -0.7697(2)
O2 O -0.5636(3) 0.6850(3) -0.6406(2)
O3 O -0.4118(3) 0.6207(2) -0.6365(2)
O4 O -0.2584(4) 0.8356(3) -0.4939(3)
O5 O -0.2335(3) 0.7194(3) -0.5621(2)
O6 O -0.3822(3) 0.7395(3) -0.5037(2)
O7 O -0.4735(4) 0.5000 -0.3976(4)
O8 O -0.3708(3) 0.5655(2) -0.4750(2)
O9 O -0.006(2) 0.6022(15) -0.3296(17)
O10 O 0.061(2) 0.5454(16) -0.2227(16)
O11 O 0.016(3) 0.5000 -0.373(2)
O12 O -0.2553(6) 0.5000 -0.7157(5)
O13 O -0.2106(3) 0.5770(3) -0.5637(4)
O14 O -0.4470(5) 0.5000 -0.7540(4)
Nd1G Nd 0.0000 0.84723(3) -1.0000
Nd1G_2 Nd 0.0000 0.84723(3) 0.0000
Nd1F Nd -0.5000 0.34723(3) -0.5000
Nd1G_3 Nd -1.0000 0.84723(3) 0.0000
Nd1G_4 Nd -1.0000 0.84723(3) -1.0000
Nd2E Nd -0.14316(3) 1.0000 -0.89023(2)
Nd2D Nd -0.64316(3) 0.5000 -0.39023(2)
Nd2A Nd -0.85684(3) 1.0000 -0.10977(2)
P1E P -0.00998(10) 0.83673(9) -0.80974(8)
P1B P -0.50998(10) 0.66327(9) -0.30974(8)
P1G P -0.99002(10) 0.83673(9) -0.19026(8)
P2E P -0.22302(11) 0.74461(10) -0.00144(9)
P2B P -0.72302(11) 0.75539(10) -0.50144(9)
P2G P -0.77698(11) 0.74461(10) -0.99856(9)
P3D P -0.61953(13) 0.5000 -0.57575(11)
S1F S 0.0073(4) 0.4697(4) -0.2964(6)
S1B S -1.0073(4) 0.5303(4) -0.7036(6)
S1D S -1.0073(4) 0.4697(4) -0.7036(6)
C1E C -0.2089(4) 0.6864(3) -0.7748(4)
C1B C -0.7089(4) 0.8136(3) -0.2748(4)
C1G C -0.7911(4) 0.6864(3) -0.2252(4)
H1E H -0.1985 0.6541 -0.8166
H1B H -0.6985 0.8459 -0.3166
H1G H -0.8015 0.6541 -0.1834
H2E H -0.1762 0.6670 -0.7236
H2B H -0.6762 0.8330 -0.2236
H2G H -0.8238 0.6670 -0.2764
C2E C -0.1848(4) 0.8087(4) -0.7235(4)
C2B C -0.6848(4) 0.6913(4) -0.2235(4)
C2G C -0.8152(4) 0.8087(4) -0.2765(4)
H3E H -0.1512 0.7922 -0.6712
H3B H -0.6512 0.7078 -0.1712
H3G H -0.8488 0.7922 -0.3288
H4E H -0.1603 0.8556 -0.7328
H4B H -0.6603 0.6444 -0.2328
H4G H -0.8397 0.8556 -0.2672
C3E C -0.0639(4) 0.7513(3) -0.7893(4)
C3B C -0.5639(4) 0.7487(3) -0.2893(4)
C3G C -0.9361(4) 0.7513(3) -0.2107(4)
H5E H -0.0293 0.7329 -0.7383
H5B H -0.5293 0.7671 -0.2383
H5G H -0.9707 0.7329 -0.2617
H6E H -0.0570 0.7172 -0.8305
H6B H -0.5570 0.7828 -0.3305
H6G H -0.9430 0.7172 -0.1695
C4E C -0.2990(4) 0.8135(4) -0.2371(3)
C4B C -0.7990(4) 0.6865(4) -0.7371(3)
C4G C -0.7010(4) 0.8135(4) -0.7629(3)
H7E H -0.3650 0.7976 -0.2495
H7B H -0.8650 0.7024 -0.7495
H7G H -0.6350 0.7976 -0.7505
H8E H -0.2986 0.8637 -0.2227
H8B H -0.7986 0.6363 -0.7227
H8G H -0.7014 0.8637 -0.7773
C5E C -0.2435(5) 0.6948(4) -0.1892(4)
C5B C -0.7435(5) 0.8052(4) -0.6892(4)
C5G C -0.7565(5) 0.6948(4) -0.8108(4)
H9E H -0.2056 0.6682 -0.1449
H9B H -0.7056 0.8318 -0.6449
H9G H -0.7944 0.6682 -0.8551
H10E H -0.3080 0.6759 -0.1999
H10B H -0.8080 0.8241 -0.6999
H10G H -0.6920 0.6759 -0.8001
C6E C -0.2877(5) 0.7847(4) -0.0947(3)
C6B C -0.7877(5) 0.7153(4) -0.5947(3)
C6G C -0.7123(5) 0.7847(4) -0.9053(3)
H11E H -0.2912 0.8359 -0.0866
H11B H -0.7912 0.6641 -0.5866
H11G H -0.7088 0.8359 -0.9134
H12E H -0.3525 0.7664 -0.1059
H12B H -0.8525 0.7336 -0.6059
H12G H -0.6475 0.7664 -0.8941
C7D C -0.8856(8) 0.5000 -0.7195(11)
C8D C -0.8693(10) 0.5000 -0.7961(9)
H13D H -0.9201 0.5000 -0.8403
C9D C -0.7752(11) 0.5000 -0.8063(7)
H14D H -0.7625 0.5000 -0.8576
C10D C -0.7000(8) 0.5000 -0.7392(6)
H15D H -0.6373 0.5000 -0.7463
C11D C -0.7171(6) 0.5000 -0.6611(5)
C12D C -0.8117(7) 0.5000 -0.6519(7)
H16D H -0.8252 0.5000 -0.6009
N1E N -0.1679(3) 0.7578(3) -0.7869(3)
N1B N -0.6679(3) 0.7422(3) -0.2869(3)
N1G N -0.8321(3) 0.7578(3) -0.2131(3)
H17E H -0.1993 0.7749 -0.8353
H17B H -0.6993 0.7251 -0.3353
H17G H -0.8007 0.7749 -0.1647
N2E N -0.2451(3) 0.7718(3) -0.1673(3)
N2B N -0.7451(3) 0.7282(3) -0.6673(3)
N2G N -0.7549(3) 0.7718(3) -0.8327(3)
H18E H -0.1837 0.7880 -0.1559
H18B H -0.6837 0.7120 -0.6559
H18G H -0.8163 0.7880 -0.8441
O1E O 0.0323(3) 0.8701(3) -0.7303(2)
O1B O -0.4677(3) 0.6299(3) -0.2303(2)
O1G O -1.0323(3) 0.8701(3) -0.2697(2)
O2E O 0.0636(3) 0.8150(3) -0.8594(2)
O2B O -0.4364(3) 0.6850(3) -0.3594(2)
O2G O -1.0636(3) 0.8150(3) -0.1406(2)
O2G_2 O -0.0636(3) 0.8150(3) -1.1406(2)
O3E O -0.0882(3) 0.8793(2) -0.8635(2)
O3B O -0.5882(3) 0.6207(2) -0.3635(2)
O3G O -0.9118(3) 0.8793(2) -0.1365(2)
O3F O -0.4118(3) 0.3793(2) -0.6365(2)
O3G_2 O 0.0882(3) 0.8793(2) -1.1365(2)
O3C O -0.0882(3) 1.1207(2) -0.8635(2)
O4E O -0.2416(4) 0.6644(3) -0.0061(3)
O4B O -0.7416(4) 0.8356(3) -0.5061(3)
O4G O -0.7584(4) 0.6644(3) -0.9939(3)
O5E O -0.2665(3) 0.7806(3) 0.0621(2)
O5B O -0.7665(3) 0.7194(3) -0.4379(2)
O5G O -0.7335(3) 0.7806(3) -1.0621(2)
O6E O -0.1178(3) 0.7605(3) 0.0037(2)
O6B O -0.6178(3) 0.7395(3) -0.4963(2)
O6G O -0.8822(3) 0.7605(3) -1.0037(2)
O6G_2 O 0.1178(3) 0.7605(3) -1.0037(2)
O6E_2 O -0.1178(3) 0.7605(3) -0.9963(2)
O7D O -0.5265(4) 0.5000 -0.6024(4)
O7A O 0.0265(4) 1.0000 -0.8976(4)
O8F O -0.3708(3) 0.4345(2) -0.4750(2)
O8B O -0.6292(3) 0.5655(2) -0.5250(2)
O8D O -0.6292(3) 0.4345(2) -0.5250(2)
O8G O 0.1292(3) 0.9345(2) -0.9750(2)
O8E O -0.1292(3) 0.9345(2) -1.0250(2)
O8C O -0.1292(3) 1.0655(2) -1.0250(2)
O9F O -0.006(2) 0.3978(15) -0.3296(17)
O9B O -0.994(2) 0.6022(15) -0.6704(17)
O9D O -0.994(2) 0.3978(15) -0.6704(17)
O10F O 0.061(2) 0.4546(16) -0.2227(16)
O10B O -1.061(2) 0.5454(16) -0.7773(16)
O10D O -1.061(2) 0.4546(16) -0.7773(16)
O11D O -1.016(3) 0.5000 -0.627(2)
O12E O -0.2447(6) 1.0000 -0.7843(5)
O13F O -0.2106(3) 0.4230(3) -0.5637(4)
O13E O -0.2894(3) 0.9230(3) -0.9363(4)
O13C O -0.2894(3) 1.0770(3) -0.9363(4)
O14E O -0.0530(5) 1.0000 -0.7460(4)
loop_
_geom_bond_atom_site_label_1
_geom_bond_atom_site_label_2
_geom_bond_site_symmetry_1
_geom_bond_site_symmetry_2
Nd1 O2 1_555 1_555
Nd2 O3 1_555 1_555
P1 C3 1_555 1_555
P2 C6 1_555 1_555
P3 C11 1_555 1_555
S1 C7 1_555 1_555
C1 H1 1_555 1_555
H2 C1 1_555 1_555
C2 H3 1_555 1_555
H4 C2 1_555 1_555
C3 H5 1_555 1_555
H6 C3 1_555 1_555
C4 H7 1_555 1_555
H8 C4 1_555 1_555
C5 H9 1_555 1_555
H10 C5 1_555 1_555
C6 H11 1_555 1_555
H12 C6 1_555 1_555
C7 C8 1_555 1_555
C8 H13 1_555 1_555
C9 C8 1_555 1_555
H14 C9 1_555 1_555
C10 C9 1_555 1_555
H15 C10 1_555 1_555
C11 C10 1_555 1_555
C12 C7 1_555 1_555
H16 C12 1_555 1_555
N1 C1 1_555 1_555
H17 N1 1_555 1_555
N2 C4 1_555 1_555
H18 N2 1_555 1_555
O1 P1 1_555 1_555
O2 P1 1_555 1_555
O3 Nd1 1_555 1_555
O4 P2 1_555 1_555
O5 P2 1_555 1_555
O6 Nd1 1_555 1_555
O7 P3 1_555 1_555
O8 Nd1 1_555 1_555
O9 S1 1_555 1_555
O10 S1 1_555 1_555
O11 S1 1_555 1_555
O12 Nd2 1_555 1_555
O13 Nd2 1_555 1_555
O14 Nd2 1_555 1_555
Nd1G O2E 1_555 1_555
Nd1G_2 O6E 1_555 1_555
Nd1F O3F 1_555 1_555
Nd1G_3 O2G 1_555 1_555
Nd1G_4 O6G 1_555 1_555
Nd2E O3E 1_555 1_555
Nd2D O7 1_555 1_555
Nd2A O3G 1_555 1_555
P1E C3E 1_555 1_555
P1B C3B 1_555 1_555
P1G C3G 1_555 1_555
P2E C6E 1_555 1_555
P2B C6B 1_555 1_555
P2G C6G 1_555 1_555
P3D C11D 1_555 1_555
S1F S1 1_555 1_555
S1B S1D 1_555 1_555
S1D C7D 1_555 1_555
C1E C2 1_555 1_555
C1B H1B 1_555 1_555
C1G H1G 1_555 1_555
H1E C1E 1_555 1_555
H2E C1E 1_555 1_555
H2B C1B 1_555 1_555
H2G C1G 1_555 1_555
C2E C1 1_555 1_555
C2B C1G 1_555 1_555
C2G C1B 1_555 1_555
H3E C2E 1_555 1_555
H3B C2B 1_555 1_555
H3G C2G 1_555 1_555
H4E C2E 1_555 1_555
H4B C2B 1_555 1_555
H4G C2G 1_555 1_555
C3E H5E 1_555 1_555
C3B H5B 1_555 1_555
C3G H5G 1_555 1_555
H6E C3E 1_555 1_555
H6B C3B 1_555 1_555
H6G C3G 1_555 1_555
C4E C5 1_555 1_555
C4B H7B 1_555 1_555
C4G H7G 1_555 1_555
H7E C4E 1_555 1_555
H8E C4E 1_555 1_555
H8B C4B 1_555 1_555
H8G C4G 1_555 1_555
C5E C4 1_555 1_555
C5B C4G 1_555 1_555
C5G C4B 1_555 1_555
H9E C5E 1_555 1_555
H9B C5B 1_555 1_555
H9G C5G 1_555 1_555
H10E C5E 1_555 1_555
H10B C5B 1_555 1_555
H10G C5G 1_555 1_555
C6E H11E 1_555 1_555
C6B H11B 1_555 1_555
C6G H11G 1_555 1_555
H12E C6E 1_555 1_555
H12B C6B 1_555 1_555
H12G C6G 1_555 1_555
C7D S1B 1_555 1_555
C8D C7D 1_555 1_555
H13D C8D 1_555 1_555
C9D C8D 1_555 1_555
H14D C9D 1_555 1_555
C10D C9D 1_555 1_555
H15D C10D 1_555 1_555
C11D C10D 1_555 1_555
C12D C7D 1_555 1_555
H16D C12D 1_555 1_555
N1E C1E 1_555 1_555
N1B C1B 1_555 1_555
N1G C1G 1_555 1_555
H17E N1E 1_555 1_555
H17B N1B 1_555 1_555
H17G N1G 1_555 1_555
N2E C4E 1_555 1_555
N2B C4B 1_555 1_555
N2G C4G 1_555 1_555
H18E N2E 1_555 1_555
H18B N2B 1_555 1_555
H18G N2G 1_555 1_555
O1E P1E 1_555 1_555
O1B P1B 1_555 1_555
O1G P1G 1_555 1_555
O2E P1E 1_555 1_555
O2B Nd1 1_555 1_555
O2G P1G 1_555 1_555
O2G_2 Nd1G 1_555 1_555
O3E Nd1G 1_555 1_555
O3B Nd1 1_555 1_555
O3G Nd1G_3 1_555 1_555
O3F Nd2 1_555 1_555
O3G_2 Nd1G 1_555 1_555
O3C Nd2E 1_555 1_555
O4E P2E 1_555 1_555
O4B P2B 1_555 1_555
O4G P2G 1_555 1_555
O5E P2E 1_555 1_555
O5B P2B 1_555 1_555
O5G P2G 1_555 1_555
O6E P2E 1_555 1_555
O6B Nd1 1_555 1_555
O6G P2G 1_555 1_555
O6G_2 Nd1G 1_555 1_555
O6E_2 Nd1G 1_555 1_555
O7D Nd2 1_555 1_555
O7A Nd2E 1_555 1_555
O8F Nd2 1_555 1_555
O8B Nd1 1_555 1_555
O8D Nd1F 1_555 1_555
O8G Nd1G 1_555 1_555
O8E Nd1G 1_555 1_555
O8C Nd2E 1_555 1_555
O9F S1F 1_555 1_555
O9B S1B 1_555 1_555
O9D S1D 1_555 1_555
O10F S1 1_555 1_555
O10B S1B 1_555 1_555
O10D S1B 1_555 1_555
O11D S1B 1_555 1_555
O12E Nd2E 1_555 1_555
O13F Nd2 1_555 1_555
O13E Nd2E 1_555 1_555
O13C Nd2E 1_555 1_555
O14E Nd2E 1_555 1_555
Nd2 O8 1_555 1_555
P1 O3 1_555 1_555
P2 O6 1_555 1_555
P3 O8 1_555 1_555
P3 O8F 1_555 1_555
C2 N1 1_555 1_555
C3 N1 1_555 1_555
C5 N2 1_555 1_555
C6 N2 1_555 1_555
C7 S1F 1_555 1_555
C11 C12 1_555 1_555
O10 S1F 1_555 1_555
O10 O10F 1_555 1_555
O11 S1F 1_555 1_555
Nd1F O8F 1_555 1_555
Nd2E O8E 1_555 1_555
Nd2D O3B 1_555 1_555
Nd2D O8B 1_555 1_555
Nd2D O8D 1_555 1_555
P1E O3E 1_555 1_555
P1B O2B 1_555 1_555
P1B O3B 1_555 1_555
P1G O3G 1_555 1_555
P2B O6B 1_555 1_555
P3D O7D 1_555 1_555
P3D O8B 1_555 1_555
P3D O8D 1_555 1_555
S1F O10F 1_555 1_555
S1D O10B 1_555 1_555
S1D O10D 1_555 1_555
S1D O11D 1_555 1_555
C2E N1E 1_555 1_555
C2B N1B 1_555 1_555
C2G N1G 1_555 1_555
C3E N1E 1_555 1_555
C3B N1B 1_555 1_555
C3G N1G 1_555 1_555
C5E N2E 1_555 1_555
C5B N2B 1_555 1_555
C5G N2G 1_555 1_555
C6E N2E 1_555 1_555
C6B N2B 1_555 1_555
C6G N2G 1_555 1_555
C11D C12D 1_555 1_555
O10B O10D 1_555 1_555

#END
