
#######################################################################
#
#                 Cambridge Crystallographic Data Centre
#                                CCDC 
#
#######################################################################
#
# If this CIF has been generated from an entry in the Cambridge 
# Structural Database, then it will include bibliographic, chemical, 
# crystal, experimental, refinement or atomic coordinate data resulting 
# from the CCDC's data processing and validation procedures.
#
#######################################################################

data_GESNIC
_chemical_formula_moiety         'C36 H74 La10 N8 O69 P10 S4'
_symmetry_cell_setting           monoclinic
_symmetry_space_group_name_H-M   'I 2/m'
_symmetry_Int_Tables_number      12
_space_group_name_Hall           '-I 2y'
loop_
_symmetry_equiv_pos_site_id
_symmetry_equiv_pos_as_xyz
1 x,y,z
2 1/2+x,1/2+y,1/2+z
3 -x,y,-z
4 1/2-x,1/2+y,1/2-z
5 -x,-y,-z
6 1/2-x,1/2-y,1/2-z
7 x,-y,z
8 1/2+x,1/2-y,1/2+z
_cell_length_a                   14.40850(10)
_cell_length_b                   18.9382(3)
_cell_length_c                   17.05220(10)
_cell_angle_alpha                90
_cell_angle_beta                 101.6960(10)
_cell_angle_gamma                90
_cell_volume                     4556.44
loop_
_atom_site_label
_atom_site_type_symbol
_atom_site_fract_x
_atom_site_fract_y
_atom_site_fract_z
O15 O -0.0675(12) 0.6282(13) -0.4355(8)
O17 O 0.0000 0.5000 -0.5000
O20 O 0.117(2) 0.9341(15) -0.027(2)
O21 O 0.5000 0.436(3) 0.0000
O22 O -0.475(4) 1.368(3) -0.425(3)
La1 La -0.5000 1.15240(4) -0.5000
La2 La -0.35388(5) 1.0000 -0.61091(4)
P1 P -0.49068(14) 1.16390(13) -0.69224(13)
P2 P -0.27542(17) 1.25597(14) -0.49859(14)
P3 P -0.3786(2) 1.0000 -0.42405(18)
S1 S 0.0038(5) 1.0332(6) -0.2919(8)
C1 C -0.2915(6) 1.3124(5) -0.7257(6)
H1 H -0.3026 1.3444 -0.6841
H2 H -0.3233 1.3314 -0.7770
C2 C -0.3135(6) 1.1921(5) -0.7764(5)
H3 H -0.3461 1.2086 -0.8286
H4 H -0.3378 1.1457 -0.7675
C3 C -0.4360(5) 1.2481(5) -0.7112(5)
H5 H -0.4695 1.2670 -0.7619
H6 H -0.4431 1.2815 -0.6696
C4 C -0.2031(6) 1.1857(5) -0.2639(5)
H7 H -0.1370 1.1999 -0.2515
H8 H -0.2056 1.1361 -0.2786
C5 C -0.2542(7) 1.3046(5) -0.3099(5)
H9 H -0.2904 1.3317 -0.3540
H10 H -0.1897 1.3223 -0.2990
C6 C -0.2118(6) 1.2147(6) -0.4056(5)
H11 H -0.2097 1.1641 -0.4140
H12 H -0.1471 1.2318 -0.3944
C7 C -0.1167(11) 1.0000 -0.2804(12)
C8 C -0.1340(14) 1.0000 -0.2039(12)
H13 H -0.0840 1.0000 -0.1598
C9 C -0.2270(13) 1.0000 -0.1938(10)
H14 H -0.2399 1.0000 -0.1426
C10 C -0.3012(11) 1.0000 -0.2605(9)
H15 H -0.3635 1.0000 -0.2534
C11 C -0.2833(9) 1.0000 -0.3370(7)
C12 C -0.1888(9) 1.0000 -0.3472(10)
H16 H -0.1752 1.0000 -0.3983
N1 N -0.3319(5) 1.2417(4) -0.7135(4)
H17 H -0.3012 1.2249 -0.6651
N2 N -0.2545(5) 1.2281(4) -0.3330(4)
H18 H -0.3158 1.2132 -0.3445
O1 O -0.5297(4) 1.1298(4) -0.7715(3)
O2 O -0.5652(4) 1.1854(4) -0.6439(3)
O3 O -0.4134(4) 1.1220(3) -0.6365(3)
O4 O -0.2537(5) 1.3349(4) -0.4936(4)
O5 O -0.2333(4) 1.2197(4) -0.5625(3)
O6 O -0.3797(4) 1.2414(3) -0.5026(4)
O7 O -0.4730(6) 1.0000 -0.3988(5)
O8 O -0.3667(4) 1.0650(3) -0.4744(3)
O9 O 0.058(2) 1.0463(18) -0.2255(15)
O10 O 0.025(3) 0.989(2) -0.346(2)
O11 O -0.004(3) 1.1021(16) -0.3364(19)
O12 O -0.4470(6) 1.0000 -0.7575(5)
O13 O -0.2056(5) 1.0791(4) -0.5669(5)
O14 O -0.2541(8) 1.0000 -0.7228(7)
O19 O 0.022(2) 1.178(3) -0.391(2)
La1G La 0.0000 1.34760(4) -1.0000
La1G_2 La 0.0000 1.34760(4) 0.0000
La1F La -0.5000 0.84760(4) -0.5000
La1G_3 La -1.0000 1.34760(4) 0.0000
La1G_4 La -1.0000 1.34760(4) -1.0000
La2E La -0.14612(5) 1.5000 -0.88909(4)
La2D La -0.64612(5) 1.0000 -0.38909(4)
La2A La -0.85388(5) 1.5000 -0.11091(4)
P1E P -0.00932(14) 1.33610(13) -0.80776(13)
P1B P -0.50932(14) 1.16390(13) -0.30776(13)
P1G P -0.99068(14) 1.33610(13) -0.19224(13)
P2E P -0.22458(17) 1.24403(14) -0.00141(14)
P2B P -0.72458(17) 1.25597(14) -0.50141(14)
P2G P -0.77542(17) 1.24403(14) -0.99859(14)
P3D P -0.6214(2) 1.0000 -0.57595(18)
S1F S 0.0038(5) 0.9668(6) -0.2919(8)
S1B S -1.0038(5) 1.0332(6) -0.7081(8)
S1D S -1.0038(5) 0.9668(6) -0.7081(8)
C1E C -0.2085(6) 1.1876(5) -0.7743(6)
C1B C -0.7085(6) 1.3124(5) -0.2743(6)
C1G C -0.7915(6) 1.1876(5) -0.2257(6)
H1E H -0.1974 1.1556 -0.8159
H1B H -0.6974 1.3444 -0.3159
H1G H -0.8026 1.1556 -0.1841
H2E H -0.1767 1.1686 -0.7230
H2B H -0.6767 1.3314 -0.2230
H2G H -0.8233 1.1686 -0.2770
C2E C -0.1865(6) 1.3079(5) -0.7236(5)
C2B C -0.6865(6) 1.1921(5) -0.2236(5)
C2G C -0.8135(6) 1.3079(5) -0.2764(5)
H3E H -0.1539 1.2914 -0.6714
H3B H -0.6539 1.2086 -0.1714
H3G H -0.8461 1.2914 -0.3286
H4E H -0.1622 1.3543 -0.7325
H4B H -0.6622 1.1457 -0.2325
H4G H -0.8378 1.3543 -0.2675
C3E C -0.0640(5) 1.2519(5) -0.7888(5)
C3B C -0.5640(5) 1.2481(5) -0.2888(5)
C3G C -0.9360(5) 1.2519(5) -0.2112(5)
H5E H -0.0305 1.2330 -0.7381
H5B H -0.5305 1.2670 -0.2381
H5G H -0.9695 1.2330 -0.2619
H6E H -0.0569 1.2185 -0.8304
H6B H -0.5569 1.2815 -0.3304
H6G H -0.9431 1.2185 -0.1696
C4E C -0.2969(6) 1.3143(5) -0.2361(5)
C4B C -0.7969(6) 1.1857(5) -0.7361(5)
C4G C -0.7031(6) 1.3143(5) -0.7639(5)
H7E H -0.3630 1.3001 -0.2485
H7B H -0.8630 1.1999 -0.7485
H7G H -0.6370 1.3001 -0.7515
H8E H -0.2944 1.3639 -0.2214
H8B H -0.7944 1.1361 -0.7214
H8G H -0.7056 1.3639 -0.7786
C5E C -0.2458(7) 1.1954(5) -0.1901(5)
C5B C -0.7458(7) 1.3046(5) -0.6901(5)
C5G C -0.7542(7) 1.1954(5) -0.8099(5)
H9E H -0.2096 1.1683 -0.1460
H9B H -0.7096 1.3317 -0.6460
H9G H -0.7904 1.1683 -0.8540
H10E H -0.3103 1.1777 -0.2010
H10B H -0.8103 1.3223 -0.7010
H10G H -0.6897 1.1777 -0.7990
C6E C -0.2882(6) 1.2853(6) -0.0944(5)
C6B C -0.7882(6) 1.2147(6) -0.5944(5)
C6G C -0.7118(6) 1.2853(6) -0.9056(5)
H11E H -0.2903 1.3359 -0.0860
H11B H -0.7903 1.1641 -0.5860
H11G H -0.7097 1.3359 -0.9140
H12E H -0.3529 1.2682 -0.1056
H12B H -0.8529 1.2318 -0.6056
H12G H -0.6471 1.2682 -0.8944
C7D C -0.8833(11) 1.0000 -0.7196(12)
C8D C -0.8660(14) 1.0000 -0.7961(12)
H13D H -0.9160 1.0000 -0.8402
C9D C -0.7730(13) 1.0000 -0.8062(10)
H14D H -0.7601 1.0000 -0.8574
C10D C -0.6988(11) 1.0000 -0.7395(9)
H15D H -0.6365 1.0000 -0.7466
C11D C -0.7167(9) 1.0000 -0.6630(7)
C12D C -0.8112(9) 1.0000 -0.6528(10)
H16D H -0.8248 1.0000 -0.6017
N1E N -0.1681(5) 1.2583(4) -0.7865(4)
N1B N -0.6681(5) 1.2417(4) -0.2865(4)
N1G N -0.8319(5) 1.2583(4) -0.2135(4)
H17E H -0.1988 1.2751 -0.8349
H17B H -0.6988 1.2249 -0.3349
H17G H -0.8012 1.2751 -0.1651
N2E N -0.2455(5) 1.2719(4) -0.1670(4)
N2B N -0.7455(5) 1.2281(4) -0.6670(4)
N2G N -0.7545(5) 1.2719(4) -0.8330(4)
H18E H -0.1842 1.2868 -0.1555
H18B H -0.6842 1.2132 -0.6555
H18G H -0.8158 1.2868 -0.8445
O1E O 0.0297(4) 1.3702(4) -0.7285(3)
O1B O -0.4703(4) 1.1298(4) -0.2285(3)
O1G O -1.0297(4) 1.3702(4) -0.2715(3)
O2E O 0.0652(4) 1.3146(4) -0.8561(3)
O2B O -0.4348(4) 1.1854(4) -0.3561(3)
O2G O -1.0652(4) 1.3146(4) -0.1439(3)
O2G_2 O -0.0652(4) 1.3146(4) -1.1439(3)
O3E O -0.0866(4) 1.3780(3) -0.8635(3)
O3B O -0.5866(4) 1.1220(3) -0.3635(3)
O3G O -0.9134(4) 1.3780(3) -0.1365(3)
O3F O -0.4134(4) 0.8780(3) -0.6365(3)
O3G_2 O 0.0866(4) 1.3780(3) -1.1365(3)
O3C O -0.0866(4) 1.6220(3) -0.8635(3)
O4E O -0.2463(5) 1.1651(4) -0.0064(4)
O4B O -0.7463(5) 1.3349(4) -0.5064(4)
O4G O -0.7537(5) 1.1651(4) -0.9936(4)
O5E O -0.2667(4) 1.2803(4) 0.0625(3)
O5B O -0.7667(4) 1.2197(4) -0.4375(3)
O5G O -0.7333(4) 1.2803(4) -1.0625(3)
O6E O -0.1203(4) 1.2586(3) 0.0026(4)
O6B O -0.6203(4) 1.2414(3) -0.4974(4)
O6G O -0.8797(4) 1.2586(3) -1.0026(4)
O6G_2 O 0.1203(4) 1.2586(3) -1.0026(4)
O6E_2 O -0.1203(4) 1.2586(3) -0.9974(4)
O7D O -0.5270(6) 1.0000 -0.6012(5)
O7A O 0.0270(6) 1.5000 -0.8988(5)
O8F O -0.3667(4) 0.9350(3) -0.4744(3)
O8B O -0.6333(4) 1.0650(3) -0.5256(3)
O8D O -0.6333(4) 0.9350(3) -0.5256(3)
O8G O 0.1333(4) 1.4350(3) -0.9744(3)
O8E O -0.1333(4) 1.4350(3) -1.0256(3)
O8C O -0.1333(4) 1.5650(3) -1.0256(3)
O9F O 0.058(2) 0.9537(18) -0.2255(15)
O9B O -1.058(2) 1.0463(18) -0.7745(15)
O9D O -1.058(2) 0.9537(18) -0.7745(15)
O10F O 0.025(3) 1.011(2) -0.346(2)
O10B O -1.025(3) 0.989(2) -0.654(2)
O10D O -1.025(3) 1.011(2) -0.654(2)
O11F O -0.004(3) 0.8979(16) -0.3364(19)
O11B O -0.996(3) 1.1021(16) -0.6636(19)
O11D O -0.996(3) 0.8979(16) -0.6636(19)
O12E O -0.0530(6) 1.5000 -0.7425(5)
O13F O -0.2056(5) 0.9209(4) -0.5669(5)
O13E O -0.2944(5) 1.4209(4) -0.9331(5)
O13C O -0.2944(5) 1.5791(4) -0.9331(5)
O14E O -0.2459(8) 1.5000 -0.7772(7)
O19F O 0.022(2) 0.822(3) -0.391(2)
O19B O -1.022(2) 1.178(3) -0.609(2)
O19D O -1.022(2) 0.822(3) -0.609(2)
loop_
_geom_bond_atom_site_label_1
_geom_bond_atom_site_label_2
_geom_bond_site_symmetry_1
_geom_bond_site_symmetry_2
La1 O2 1_555 1_555
La2 O3 1_555 1_555
P1 C3 1_555 1_555
P2 C6 1_555 1_555
P3 C11 1_555 1_555
S1 C7 1_555 1_555
C1 H1 1_555 1_555
H2 C1 1_555 1_555
C2 H3 1_555 1_555
H4 C2 1_555 1_555
C3 H5 1_555 1_555
H6 C3 1_555 1_555
C4 H7 1_555 1_555
H8 C4 1_555 1_555
C5 H9 1_555 1_555
H10 C5 1_555 1_555
C6 H11 1_555 1_555
H12 C6 1_555 1_555
C7 C8 1_555 1_555
C8 H13 1_555 1_555
C9 C8 1_555 1_555
H14 C9 1_555 1_555
C10 C9 1_555 1_555
H15 C10 1_555 1_555
C11 C10 1_555 1_555
C12 C7 1_555 1_555
H16 C12 1_555 1_555
N1 C1 1_555 1_555
H17 N1 1_555 1_555
N2 C4 1_555 1_555
H18 N2 1_555 1_555
O1 P1 1_555 1_555
O2 P1 1_555 1_555
O3 La1 1_555 1_555
O4 P2 1_555 1_555
O5 P2 1_555 1_555
O6 La1 1_555 1_555
O7 P3 1_555 1_555
O8 La1 1_555 1_555
O9 S1 1_555 1_555
O10 S1 1_555 1_555
O11 S1 1_555 1_555
O12 La2 1_555 1_555
O13 La2 1_555 1_555
O14 La2 1_555 1_555
O19 O11 1_555 1_555
La1G O2E 1_555 1_555
La1G_2 O6E 1_555 1_555
La1F O3F 1_555 1_555
La1G_3 O2G 1_555 1_555
La1G_4 O6G 1_555 1_555
La2E O3E 1_555 1_555
La2D O7 1_555 1_555
La2A O3G 1_555 1_555
P1E C3E 1_555 1_555
P1B C3B 1_555 1_555
P1G C3G 1_555 1_555
P2E C6E 1_555 1_555
P2B C6B 1_555 1_555
P2G C6G 1_555 1_555
P3D C11D 1_555 1_555
S1F S1 1_555 1_555
S1B S1D 1_555 1_555
S1D C7D 1_555 1_555
C1E C2 1_555 1_555
C1B H1B 1_555 1_555
C1G H1G 1_555 1_555
H1E C1E 1_555 1_555
H2E C1E 1_555 1_555
H2B C1B 1_555 1_555
H2G C1G 1_555 1_555
C2E C1 1_555 1_555
C2B C1G 1_555 1_555
C2G C1B 1_555 1_555
H3E C2E 1_555 1_555
H3B C2B 1_555 1_555
H3G C2G 1_555 1_555
H4E C2E 1_555 1_555
H4B C2B 1_555 1_555
H4G C2G 1_555 1_555
C3E H5E 1_555 1_555
C3B H5B 1_555 1_555
C3G H5G 1_555 1_555
H6E C3E 1_555 1_555
H6B C3B 1_555 1_555
H6G C3G 1_555 1_555
C4E C5 1_555 1_555
C4B H7B 1_555 1_555
C4G H7G 1_555 1_555
H7E C4E 1_555 1_555
H8E C4E 1_555 1_555
H8B C4B 1_555 1_555
H8G C4G 1_555 1_555
C5E C4 1_555 1_555
C5B C4G 1_555 1_555
C5G C4B 1_555 1_555
H9E C5E 1_555 1_555
H9B C5B 1_555 1_555
H9G C5G 1_555 1_555
H10E C5E 1_555 1_555
H10B C5B 1_555 1_555
H10G C5G 1_555 1_555
C6E H11E 1_555 1_555
C6B H11B 1_555 1_555
C6G H11G 1_555 1_555
H12E C6E 1_555 1_555
H12B C6B 1_555 1_555
H12G C6G 1_555 1_555
C7D S1B 1_555 1_555
C8D C7D 1_555 1_555
H13D C8D 1_555 1_555
C9D C8D 1_555 1_555
H14D C9D 1_555 1_555
C10D C9D 1_555 1_555
H15D C10D 1_555 1_555
C11D C10D 1_555 1_555
C12D C7D 1_555 1_555
H16D C12D 1_555 1_555
N1E C1E 1_555 1_555
N1B C1B 1_555 1_555
N1G C1G 1_555 1_555
H17E N1E 1_555 1_555
H17B N1B 1_555 1_555
H17G N1G 1_555 1_555
N2E C4E 1_555 1_555
N2B C4B 1_555 1_555
N2G C4G 1_555 1_555
H18E N2E 1_555 1_555
H18B N2B 1_555 1_555
H18G N2G 1_555 1_555
O1E P1E 1_555 1_555
O1B P1B 1_555 1_555
O1G P1G 1_555 1_555
O2E P1E 1_555 1_555
O2B La1 1_555 1_555
O2G P1G 1_555 1_555
O2G_2 La1G 1_555 1_555
O3E La1G 1_555 1_555
O3B La1 1_555 1_555
O3G La1G_3 1_555 1_555
O3F La2 1_555 1_555
O3G_2 La1G 1_555 1_555
O3C La2E 1_555 1_555
O4E P2E 1_555 1_555
O4B P2B 1_555 1_555
O4G P2G 1_555 1_555
O5E P2E 1_555 1_555
O5B P2B 1_555 1_555
O5G P2G 1_555 1_555
O6E P2E 1_555 1_555
O6B La1 1_555 1_555
O6G P2G 1_555 1_555
O6G_2 La1G 1_555 1_555
O6E_2 La1G 1_555 1_555
O7D La2 1_555 1_555
O7A La2E 1_555 1_555
O8F La2 1_555 1_555
O8B La1 1_555 1_555
O8D La1F 1_555 1_555
O8G La1G 1_555 1_555
O8E La1G 1_555 1_555
O8C La2E 1_555 1_555
O9F S1 1_555 1_555
O9B S1B 1_555 1_555
O9D S1B 1_555 1_555
O10F S1 1_555 1_555
O10B S1B 1_555 1_555
O10D S1B 1_555 1_555
O11F O10 1_555 1_555
O11B S1B 1_555 1_555
O11D S1D 1_555 1_555
O12E La2E 1_555 1_555
O13F La2 1_555 1_555
O13E La2E 1_555 1_555
O13C La2E 1_555 1_555
O14E La2E 1_555 1_555
O19F O11F 1_555 1_555
O19B O11B 1_555 1_555
O19D O11D 1_555 1_555
La2 O8 1_555 1_555
P1 O3 1_555 1_555
P2 O6 1_555 1_555
P3 O8 1_555 1_555
P3 O8F 1_555 1_555
C2 N1 1_555 1_555
C3 N1 1_555 1_555
C5 N2 1_555 1_555
C6 N2 1_555 1_555
C7 S1F 1_555 1_555
C11 C12 1_555 1_555
O9 S1F 1_555 1_555
O9 O9F 1_555 1_555
O10 S1F 1_555 1_555
O10 O10F 1_555 1_555
O11 O10F 1_555 1_555
La1F O8F 1_555 1_555
La2E O8E 1_555 1_555
La2D O3B 1_555 1_555
La2D O8B 1_555 1_555
La2D O8D 1_555 1_555
P1E O3E 1_555 1_555
P1B O2B 1_555 1_555
P1B O3B 1_555 1_555
P1G O3G 1_555 1_555
P2B O6B 1_555 1_555
P3D O7D 1_555 1_555
P3D O8B 1_555 1_555
P3D O8D 1_555 1_555
S1F O9F 1_555 1_555
S1F O10F 1_555 1_555
S1F O11F 1_555 1_555
S1D O9B 1_555 1_555
S1D O9D 1_555 1_555
S1D O10B 1_555 1_555
S1D O10D 1_555 1_555
C2E N1E 1_555 1_555
C2B N1B 1_555 1_555
C2G N1G 1_555 1_555
C3E N1E 1_555 1_555
C3B N1B 1_555 1_555
C3G N1G 1_555 1_555
C5E N2E 1_555 1_555
C5B N2B 1_555 1_555
C5G N2G 1_555 1_555
C6E N2E 1_555 1_555
C6B N2B 1_555 1_555
C6G N2G 1_555 1_555
C11D C12D 1_555 1_555
O9B O9D 1_555 1_555
O10B O10D 1_555 1_555
O10B O11D 1_555 1_555
O10D O11B 1_555 1_555

#END
