
#######################################################################
#
#                 Cambridge Crystallographic Data Centre
#                                CCDC 
#
#######################################################################
#
# If this CIF has been generated from an entry in the Cambridge 
# Structural Database, then it will include bibliographic, chemical, 
# crystal, experimental, refinement or atomic coordinate data resulting 
# from the CCDC's data processing and validation procedures.
#
#######################################################################

data_DAWBUA
_chemical_formula_moiety         '(C20 H18 Co2 N2 O11)n'
_symmetry_cell_setting           orthorhombic
_symmetry_space_group_name_H-M   'P 21 21 2'
_symmetry_Int_Tables_number      18
_space_group_name_Hall           'P 2 2ab'
loop_
_symmetry_equiv_pos_site_id
_symmetry_equiv_pos_as_xyz
1 x,y,z
2 -x,-y,z
3 1/2+x,1/2-y,-z
4 1/2-x,1/2+y,-z
_cell_length_a                   27.1331(9)
_cell_length_b                   6.7002(2)
_cell_length_c                   7.6817(3)
_cell_angle_alpha                90
_cell_angle_beta                 90
_cell_angle_gamma                90
_cell_volume                     1396.51
loop_
_atom_site_label
_atom_site_type_symbol
_atom_site_fract_x
_atom_site_fract_y
_atom_site_fract_z
Co1 Co 0.28258(3) 0.00413(15) -0.24966(12)
O1 O 0.1870(2) -0.2777(9) 0.0781(7)
O2 O 0.20800(19) 0.1242(8) -0.2184(7)
O3 O 0.2564(2) -0.1435(9) -0.0245(7)
O4 O 0.2479(2) -0.2103(9) -0.3998(7)
O5 O 0.1861(2) -0.3416(9) -0.5511(7)
N1 N 0.3481(2) -0.1695(9) -0.2317(9)
C1 C 0.3894(3) -0.4840(13) -0.2747(10)
H1 H 0.3874 -0.6163 -0.3105
C2 C 0.1805(3) -0.0422(12) -0.1503(9)
H2 H 0.1513 0.0104 -0.0904
C3 C 0.2028(3) -0.2468(13) -0.4251(11)
C4 C 0.4330(3) -0.4061(13) -0.2146(14)
C5 C 0.4334(4) -0.2059(15) -0.1572(19)
H3 H 0.4624 -0.1479 -0.1166
C6 C 0.1629(3) -0.1703(13) -0.3024(10)
H4 H 0.1454 -0.2844 -0.2557
H5 H 0.1395 -0.0929 -0.3701
C7 C 0.3481(3) -0.3593(12) -0.2807(10)
H6 H 0.3187 -0.4130 -0.3217
C8 C 0.2099(3) -0.1666(12) -0.0204(10)
C9 C 0.3896(3) -0.0966(16) -0.1627(15)
H7 H 0.3893 0.0318 -0.1167
C10 C 0.4771(3) -0.5316(16) -0.2155(13)
H8 H 0.4722 -0.6690 -0.2162
Co1C Co 0.21742(3) -0.49587(15) 0.24966(12)
Co1A Co 0.71742(3) -1.00413(15) -0.24966(12)
Co1C_2 Co 0.21742(3) -0.49587(15) -0.75034(12)
Co1B Co 0.78258(3) -0.50413(15) 0.24966(12)
Co1B_2 Co 0.78258(3) -0.50413(15) -0.75034(12)
O1C O 0.3130(2) 0.2223(9) -0.0781(7)
O1B O 0.6870(2) -1.2223(9) -0.0781(7)
O1A O 0.8130(2) -0.7223(9) 0.0781(7)
O2A O 0.79200(19) -1.1242(8) -0.2184(7)
O3A O 0.7436(2) -0.8565(9) -0.0245(7)
O4A O 0.7521(2) -0.7897(9) -0.3998(7)
O5C O 0.3139(2) 0.1584(9) -0.4489(7)
O5B O 0.6861(2) -1.1584(9) -0.4489(7)
O5A O 0.8139(2) -0.6584(9) -0.5511(7)
N1A N 0.6519(2) -0.8305(9) -0.2317(9)
C1A C 0.6106(3) -0.5160(13) -0.2747(10)
H1A H 0.6126 -0.3837 -0.3105
C2A C 0.8195(3) -0.9578(12) -0.1503(9)
H2A H 0.8487 -1.0104 -0.0904
C3A C 0.7972(3) -0.7532(13) -0.4251(11)
C4A C 0.5670(3) -0.5939(13) -0.2146(14)
C5A C 0.5666(4) -0.7941(15) -0.1572(19)
H3A H 0.5376 -0.8521 -0.1166
C6A C 0.8371(3) -0.8297(13) -0.3024(10)
H4A H 0.8546 -0.7156 -0.2557
H5A H 0.8605 -0.9071 -0.3701
C7A C 0.6519(3) -0.6407(12) -0.2807(10)
H6A H 0.6813 -0.5870 -0.3217
C8A C 0.7901(3) -0.8334(12) -0.0204(10)
C9A C 0.6104(3) -0.9034(16) -0.1627(15)
H7A H 0.6107 -1.0318 -0.1167
C10A C 0.5229(3) -0.4684(16) -0.2155(13)
H8A H 0.5278 -0.3310 -0.2162
O6 O 0.5000 0.0000 0.46(2)
loop_
_geom_bond_atom_site_label_1
_geom_bond_atom_site_label_2
_geom_bond_site_symmetry_1
_geom_bond_site_symmetry_2
Co1 O2 1_555 1_555
O1 C8 1_555 1_555
O2 C2 1_555 1_555
O3 Co1 1_555 1_555
O4 Co1 1_555 1_555
O5 C3 1_555 1_555
N1 Co1 1_555 1_555
C1 H1 1_555 1_555
C2 H2 1_555 1_555
C3 O4 1_555 1_555
C4 C1 1_555 1_555
C5 C4 1_555 1_555
H3 C5 1_555 1_555
C6 C2 1_555 1_555
H4 C6 1_555 1_555
H5 C6 1_555 1_555
C7 N1 1_555 1_555
H6 C7 1_555 1_555
C8 O3 1_555 1_555
C9 N1 1_555 1_555
H7 C9 1_555 1_555
C10 C4 1_555 1_555
H8 C10 1_555 1_555
Co1C O1 1_555 1_555
Co1A O1B 1_555 1_555
Co1C_2 O5 1_555 1_555
Co1B O1A 1_555 1_555
Co1B_2 O5A 1_555 1_555
O1C Co1 1_555 1_555
O1A C8A 1_555 1_555
O2A Co1A 1_555 1_555
O3A Co1A 1_555 1_555
O4A Co1A 1_555 1_555
O5C Co1 1_555 1_555
O5B Co1A 1_555 1_555
O5A C3A 1_555 1_555
N1A Co1A 1_555 1_555
C1A H1A 1_555 1_555
C2A O2A 1_555 1_555
H2A C2A 1_555 1_555
C3A O4A 1_555 1_555
C4A C1A 1_555 1_555
C5A C4A 1_555 1_555
H3A C5A 1_555 1_555
C6A C2A 1_555 1_555
H4A C6A 1_555 1_555
H5A C6A 1_555 1_555
C7A N1A 1_555 1_555
H6A C7A 1_555 1_555
C8A O3A 1_555 1_555
C9A N1A 1_555 1_555
H7A C9A 1_555 1_555
C10A C10 1_555 1_555
H8A C10A 1_555 1_555
C1 C7 1_555 1_555
C2 C8 1_555 1_555
C3 C6 1_555 1_555
C5 C9 1_555 1_555
C1A C7A 1_555 1_555
C2A C8A 1_555 1_555
C3A C6A 1_555 1_555
C4A C10A 1_555 1_555
C5A C9A 1_555 1_555

#END
