
#######################################################################
#
#                 Cambridge Crystallographic Data Centre
#                                CCDC 
#
#######################################################################
#
# If this CIF has been generated from an entry in the Cambridge 
# Structural Database, then it will include bibliographic, chemical, 
# crystal, experimental, refinement or atomic coordinate data resulting 
# from the CCDC's data processing and validation procedures.
#
#######################################################################

data_DAWBOU
_chemical_formula_moiety         '(C18 H18 N4 Ni2 O12)n'
_symmetry_cell_setting           orthorhombic
_symmetry_space_group_name_H-M   'P 21 21 2'
_symmetry_Int_Tables_number      18
_space_group_name_Hall           'P 2 2ab'
loop_
_symmetry_equiv_pos_site_id
_symmetry_equiv_pos_as_xyz
1 x,y,z
2 -x,-y,z
3 1/2+x,1/2-y,-z
4 1/2-x,1/2+y,-z
_cell_length_a                   26.1792(15)
_cell_length_b                   6.6400(4)
_cell_length_c                   7.6702(5)
_cell_angle_alpha                90
_cell_angle_beta                 90
_cell_angle_gamma                90
_cell_volume                     1333.31
loop_
_atom_site_label
_atom_site_type_symbol
_atom_site_fract_x
_atom_site_fract_y
_atom_site_fract_z
Ni1 Ni 0.28323(2) -0.00194(11) 0.24640(9)
O1 O 0.18583(15) 0.2831(6) -0.0780(5)
O2 O 0.24867(15) 0.2066(7) 0.4047(5)
O3 O 0.18504(14) 0.3460(7) 0.5543(5)
O4 O 0.25776(15) 0.1500(7) 0.0277(5)
N1 N 0.34983(16) 0.1698(7) 0.2345(7)
C1 C 0.3911(2) 0.4853(10) 0.2766(7)
H1 H 0.3889 0.6192 0.3112
O5 O 0.20781(14) -0.1206(6) 0.2184(5)
C2 C 0.1789(2) 0.0430(9) 0.1510(7)
H2 H 0.1487 -0.0108 0.0913
C3 C 0.1614(2) 0.1705(10) 0.3024(7)
H3 H 0.1368 0.0930 0.3691
H4 H 0.1435 0.2867 0.2558
C4 C 0.2095(2) 0.1699(9) 0.0218(7)
N2 N 0.47900(19) 0.5437(8) 0.2188(8)
C5 C 0.2022(2) 0.2460(9) 0.4274(7)
C6 C 0.3489(2) 0.3623(9) 0.2826(8)
H5 H 0.3182 0.4162 0.3222
C7 C 0.4358(2) 0.4090(9) 0.2200(9)
C8 C 0.3935(2) 0.0957(12) 0.1728(11)
H6 H 0.3944 -0.0371 0.1343
C9 C 0.4381(2) 0.2108(11) 0.1640(14)
H7 H 0.4684 0.1561 0.1219
Ni1A Ni 0.71677(2) 1.00194(11) 0.24640(9)
Ni1B Ni 0.78323(2) 0.50194(11) -0.24640(9)
Ni1B_2 Ni 0.78323(2) 0.50194(11) 0.75360(9)
Ni1C Ni 0.21677(2) 0.49806(11) -0.24640(9)
Ni1C_2 Ni 0.21677(2) 0.49806(11) 0.75360(9)
O1A O 0.81417(15) 0.7169(6) -0.0780(5)
O1B O 0.68583(15) 1.2169(6) 0.0780(5)
O1C O 0.31417(15) -0.2169(6) 0.0780(5)
O2A O 0.75133(15) 0.7934(7) 0.4047(5)
O3A O 0.81496(14) 0.6540(7) 0.5543(5)
O3B O 0.68504(14) 1.1540(7) 0.4457(5)
O3C O 0.31496(14) -0.1540(7) 0.4457(5)
O4A O 0.74224(15) 0.8500(7) 0.0277(5)
N1A N 0.65017(16) 0.8302(7) 0.2345(7)
C1A C 0.6089(2) 0.5147(10) 0.2766(7)
H1A H 0.6111 0.3808 0.3112
O5A O 0.79219(14) 1.1206(6) 0.2184(5)
C2A C 0.8211(2) 0.9570(9) 0.1510(7)
H2A H 0.8513 1.0108 0.0913
C3A C 0.8386(2) 0.8295(10) 0.3024(7)
H3A H 0.8632 0.9070 0.3691
H4A H 0.8565 0.7133 0.2558
C4A C 0.7905(2) 0.8301(9) 0.0218(7)
N2A N 0.52100(19) 0.4563(8) 0.2188(8)
C5A C 0.7978(2) 0.7540(9) 0.4274(7)
C6A C 0.6511(2) 0.6377(9) 0.2826(8)
H5A H 0.6818 0.5838 0.3222
C7A C 0.5642(2) 0.5910(9) 0.2200(9)
C8A C 0.6065(2) 0.9043(12) 0.1728(11)
H6A H 0.6056 1.0371 0.1343
C9A C 0.5619(2) 0.7892(11) 0.1640(14)
H7A H 0.5316 0.8439 0.1219
O6 O 0.1247(13) 0.639(6) 0.367(4)
O7 O 0.0024(15) 0.338(4) 0.324(3)
loop_
_geom_bond_atom_site_label_1
_geom_bond_atom_site_label_2
_geom_bond_site_symmetry_1
_geom_bond_site_symmetry_2
Ni1 O2 1_555 1_555
O1 C4 1_555 1_555
O2 C5 1_555 1_555
O3 C5 1_555 1_555
O4 Ni1 1_555 1_555
N1 Ni1 1_555 1_555
C1 H1 1_555 1_555
O5 Ni1 1_555 1_555
C2 O5 1_555 1_555
H2 C2 1_555 1_555
C3 C2 1_555 1_555
H3 C3 1_555 1_555
H4 C3 1_555 1_555
C4 O4 1_555 1_555
N2 C7 1_555 1_555
C5 C3 1_555 1_555
C6 N1 1_555 1_555
H5 C6 1_555 1_555
C7 C1 1_555 1_555
C8 N1 1_555 1_555
H6 C8 1_555 1_555
C9 C7 1_555 1_555
H7 C9 1_555 1_555
Ni1A O1B 1_555 1_555
Ni1B O1A 1_555 1_555
Ni1B_2 O3A 1_555 1_555
Ni1C O1 1_555 1_555
Ni1C_2 O3 1_555 1_555
O1A C4A 1_555 1_555
O1C Ni1 1_555 1_555
O2A Ni1A 1_555 1_555
O3A C5A 1_555 1_555
O3B Ni1A 1_555 1_555
O3C Ni1 1_555 1_555
O4A Ni1A 1_555 1_555
N1A Ni1A 1_555 1_555
C1A H1A 1_555 1_555
O5A Ni1A 1_555 1_555
C2A O5A 1_555 1_555
H2A C2A 1_555 1_555
C3A C2A 1_555 1_555
H3A C3A 1_555 1_555
H4A C3A 1_555 1_555
C4A O4A 1_555 1_555
N2A N2 1_555 1_555
C5A O2A 1_555 1_555
C6A N1A 1_555 1_555
H5A C6A 1_555 1_555
C7A C1A 1_555 1_555
C8A N1A 1_555 1_555
H6A C8A 1_555 1_555
C9A C7A 1_555 1_555
H7A C9A 1_555 1_555
C1 C6 1_555 1_555
C2 C4 1_555 1_555
C8 C9 1_555 1_555
C1A C6A 1_555 1_555
C2A C4A 1_555 1_555
C3A C5A 1_555 1_555
N2A C7A 1_555 1_555
C8A C9A 1_555 1_555

#END
