
#######################################################################
#
#                 Cambridge Crystallographic Data Centre
#                                CCDC 
#
#######################################################################
#
# If this CIF has been generated from an entry in the Cambridge 
# Structural Database, then it will include bibliographic, chemical, 
# crystal, experimental, refinement or atomic coordinate data resulting 
# from the CCDC's data processing and validation procedures.
#
#######################################################################

data_NUHZAS
_chemical_formula_moiety         '(C36 H30 N4 O14 S1 Zn2)n'
_symmetry_cell_setting           monoclinic
_symmetry_space_group_name_H-M   'C 2/c'
_symmetry_Int_Tables_number      15
_space_group_name_Hall           '-C 2yc'
loop_
_symmetry_equiv_pos_site_id
_symmetry_equiv_pos_as_xyz
1 x,y,z
2 -x,y,1/2-z
3 1/2+x,1/2+y,z
4 1/2-x,1/2+y,1/2-z
5 -x,-y,-z
6 x,-y,1/2+z
7 1/2-x,1/2-y,-z
8 1/2+x,1/2-y,1/2+z
_cell_length_a                   19.6190(12)
_cell_length_b                   15.5116(10)
_cell_length_c                   13.2862(8)
_cell_angle_alpha                90
_cell_angle_beta                 94.343(1)
_cell_angle_gamma                90
_cell_volume                     4031.67
loop_
_atom_site_label
_atom_site_type_symbol
_atom_site_fract_x
_atom_site_fract_y
_atom_site_fract_z
Zn1 Zn 0.26816(4) 1.04166(6) 0.66058(6)
O1 O 0.3306(4) 0.9517(5) 0.7071(5)
O2 O 0.2490(3) 0.9036(4) 0.7980(6)
O3 O 0.3252(4) 0.9823(4) 0.9764(5)
O4 O 0.3116(3) 0.8726(4) 1.0775(4)
O5 O 0.5465(3) 0.6255(4) 0.8191(5)
N1 N 0.1721(3) 1.0184(4) 0.5995(5)
N2 N 0.2583(4) 1.1190(5) 0.7854(5)
C1 C 0.3094(4) 0.9043(6) 0.7758(6)
C2 C 0.3621(4) 0.8487(5) 0.8291(6)
C3 C 0.4023(4) 0.7942(5) 0.7743(6)
H1 H 0.3957 0.7929 0.7043
C4 C 0.4516(4) 0.7425(5) 0.8227(6)
C5 C 0.4627(4) 0.7432(5) 0.9246(6)
H2 H 0.4968 0.7091 0.9565
C6 C 0.4227(4) 0.7952(5) 0.9805(6)
H3 H 0.4299 0.7951 1.0505
C7 C 0.3724(4) 0.8471(5) 0.9353(6)
C8 C 0.3330(4) 0.9065(5) 0.9986(5)
C9 C 0.1269(4) 0.9726(5) 0.6455(6)
H4 H 0.1413 0.9449 0.7054
C10 C 0.0592(4) 0.9635(6) 0.6093(6)
H5 H 0.0290 0.9312 0.6448
C11 C 0.0375(3) 1.0028(5) 0.5208(5)
C12 C 0.0841(4) 1.0500(6) 0.4721(6)
H6 H 0.0712 1.0766 0.4109
C13 C 0.1497(4) 1.0578(6) 0.5138(7)
H7 H 0.1801 1.0920 0.4811
C14 C 0.2086(4) 1.1156(6) 0.8427(7)
H8 H 0.1731 1.0776 0.8245
C15 C 0.2033(4) 1.1629(5) 0.9274(5)
H9 H 0.1664 1.1548 0.9662
C16 C 0.2519(5) 1.2219(6) 0.9555(6)
C17 C 0.2851(9) 1.2556(12) 0.8704(13)
C18 C 0.2885(11) 1.1982(15) 0.7884(15)
S1 S 0.5000 0.67290(17) 0.7500
Zn1A Zn 0.73184(4) 1.04166(6) 0.83942(6)
Zn1E Zn 0.26816(4) 0.95834(6) 1.16058(6)
Zn1D Zn 0.73184(4) 0.95834(6) 0.33942(6)
Zn1D_2 Zn -0.26816(4) 0.95834(6) 0.33942(6)
Zn1F Zn 0.23184(4) 1.45834(6) 1.33942(6)
O1A O 0.6694(4) 0.9517(5) 0.7929(5)
O2A O 0.7510(3) 0.9036(4) 0.7020(6)
O3A O 0.6748(4) 0.9823(4) 0.5236(5)
O4A O 0.6884(3) 0.8726(4) 0.4225(4)
O4E O 0.3116(3) 1.1274(4) 0.5775(4)
O4D O 0.6884(3) 1.1274(4) 0.9225(4)
O5A O 0.4535(3) 0.6255(4) 0.6809(5)
N1D N -0.1721(3) 0.9816(4) 0.4005(5)
N1A N 0.8279(3) 1.0184(4) 0.9005(5)
N2F N 0.2417(4) 1.3810(5) 1.2146(5)
N2A N 0.7417(4) 1.1190(5) 0.7146(5)
C1A C 0.6906(4) 0.9043(6) 0.7242(6)
C2A C 0.6379(4) 0.8487(5) 0.6709(6)
C3A C 0.5977(4) 0.7942(5) 0.7257(6)
H1A H 0.6043 0.7929 0.7957
C4A C 0.5484(4) 0.7425(5) 0.6773(6)
C5A C 0.5373(4) 0.7432(5) 0.5754(6)
H2A H 0.5032 0.7091 0.5435
C6A C 0.5773(4) 0.7952(5) 0.5195(6)
H3A H 0.5701 0.7951 0.4495
C7A C 0.6276(4) 0.8471(5) 0.5647(6)
C8A C 0.6670(4) 0.9065(5) 0.5014(5)
C9D C -0.1269(4) 1.0274(5) 0.3545(6)
H4D H -0.1413 1.0551 0.2946
C10D C -0.0592(4) 1.0365(6) 0.3907(6)
H5D H -0.0290 1.0688 0.3552
C11D C -0.0375(3) 0.9972(5) 0.4792(5)
C12D C -0.0841(4) 0.9500(6) 0.5279(6)
H6D H -0.0712 0.9234 0.5891
C13D C -0.1497(4) 0.9422(6) 0.4862(7)
H7D H -0.1801 0.9080 0.5189
C14F C 0.2914(4) 1.3844(6) 1.1573(7)
H8F H 0.3269 1.4224 1.1755
C15F C 0.2967(4) 1.3371(5) 1.0726(5)
H9F H 0.3336 1.3452 1.0338
C16F C 0.2481(5) 1.2781(6) 1.0445(6)
C17F C 0.2149(9) 1.2444(12) 1.1296(13)
C18F C 0.2115(11) 1.3018(15) 1.2116(15)
O6 O 0.3420(9) 0.2920(11) 0.6621(14)
O7 O 0.4636(7) 0.9694(15) 0.6610(19)
O8 O 0.0245(11) 0.8080(11) 0.756(3)
O9 O 0.4142(16) 0.123(2) 0.996(3)
loop_
_geom_bond_atom_site_label_1
_geom_bond_atom_site_label_2
_geom_bond_site_symmetry_1
_geom_bond_site_symmetry_2
Zn1 O1 1_555 1_555
O1 C1 1_555 1_555
O2 C1 1_555 1_555
O3 C8 1_555 1_555
O4 C8 1_555 1_555
O5 S1 1_555 1_555
N1 Zn1 1_555 1_555
N2 Zn1 1_555 1_555
C1 C2 1_555 1_555
C2 C3 1_555 1_555
C3 H1 1_555 1_555
C4 C3 1_555 1_555
C5 C4 1_555 1_555
H2 C5 1_555 1_555
C6 C5 1_555 1_555
H3 C6 1_555 1_555
C7 C2 1_555 1_555
C8 C7 1_555 1_555
C9 N1 1_555 1_555
H4 C9 1_555 1_555
C10 C9 1_555 1_555
H5 C10 1_555 1_555
C11 C10 1_555 1_555
C12 C11 1_555 1_555
H6 C12 1_555 1_555
C13 N1 1_555 1_555
H7 C13 1_555 1_555
C14 N2 1_555 1_555
H8 C14 1_555 1_555
C15 C14 1_555 1_555
H9 C15 1_555 1_555
C16 C15 1_555 1_555
C17 C16 1_555 1_555
C18 N2 1_555 1_555
S1 C4 1_555 1_555
Zn1A O1A 1_555 1_555
Zn1E O4 1_555 1_555
Zn1D O4A 1_555 1_555
Zn1D_2 N1D 1_555 1_555
Zn1F N2F 1_555 1_555
O1A C1A 1_555 1_555
O2A C1A 1_555 1_555
O3A C8A 1_555 1_555
O4A C8A 1_555 1_555
O4E Zn1 1_555 1_555
O4D Zn1A 1_555 1_555
O5A S1 1_555 1_555
N1D C9D 1_555 1_555
N1A Zn1A 1_555 1_555
N2F C14F 1_555 1_555
N2A Zn1A 1_555 1_555
C1A C2A 1_555 1_555
C2A C3A 1_555 1_555
C3A H1A 1_555 1_555
C4A S1 1_555 1_555
C5A C4A 1_555 1_555
H2A C5A 1_555 1_555
C6A C5A 1_555 1_555
H3A C6A 1_555 1_555
C7A C2A 1_555 1_555
C8A C7A 1_555 1_555
C9D H4D 1_555 1_555
C10D C9D 1_555 1_555
H5D C10D 1_555 1_555
C11D C11 1_555 1_555
C12D C11D 1_555 1_555
H6D C12D 1_555 1_555
C13D N1D 1_555 1_555
H7D C13D 1_555 1_555
C14F H8F 1_555 1_555
C15F C14F 1_555 1_555
H9F C15F 1_555 1_555
C16F C16 1_555 1_555
C17F C16F 1_555 1_555
C18F N2F 1_555 1_555
C6 C7 1_555 1_555
C12 C13 1_555 1_555
C17 C18 1_555 1_555
C3A C4A 1_555 1_555
C6A C7A 1_555 1_555
C10D C11D 1_555 1_555
C12D C13D 1_555 1_555
C15F C16F 1_555 1_555
C17F C18F 1_555 1_555

#END
