
#######################################################################
#
#                 Cambridge Crystallographic Data Centre
#                                CCDC 
#
#######################################################################
#
# If this CIF has been generated from an entry in the Cambridge 
# Structural Database, then it will include bibliographic, chemical, 
# crystal, experimental, refinement or atomic coordinate data resulting 
# from the CCDC's data processing and validation procedures.
#
#######################################################################

data_BOZFIH
_chemical_formula_moiety         '(C42 H25 N5 O13 Zn3)n'
_symmetry_cell_setting           monoclinic
_symmetry_space_group_name_H-M   'P 21/n'
_symmetry_Int_Tables_number      14
_space_group_name_Hall           '-P 2yn'
loop_
_symmetry_equiv_pos_site_id
_symmetry_equiv_pos_as_xyz
1 x,y,z
2 1/2-x,1/2+y,1/2-z
3 -x,-y,-z
4 1/2+x,1/2-y,1/2+z
_cell_length_a                   10.0627(5)
_cell_length_b                   23.0608(14)
_cell_length_c                   26.8432(14)
_cell_angle_alpha                90
_cell_angle_beta                 95.116(2)
_cell_angle_gamma                90
_cell_volume                     6204.25
loop_
_atom_site_label
_atom_site_type_symbol
_atom_site_fract_x
_atom_site_fract_y
_atom_site_fract_z
Zn1 Zn 0.34896(13) 0.19271(7) 0.27196(5)
Zn2 Zn 0.03815(14) 0.24475(7) 0.18301(5)
Zn3 Zn 0.35673(13) 0.50827(7) 0.00810(5)
N1 N 0.5236(11) -0.0700(5) -0.1693(4)
N2 N 0.6194(10) -0.1195(5) -0.2272(4)
N3 N 0.1484(11) -0.0358(5) 0.0994(4)
N4 N 0.0608(10) 0.1696(5) 0.1424(4)
N5 N 0.1727(10) -0.2323(5) 0.1809(4)
O1 O 0.3045(7) 0.2387(4) 0.2073(3)
O2 O 0.1791(7) 0.2969(3) 0.1588(3)
O3 O 0.3944(8) 0.4400(4) 0.0549(3)
O4 O 0.6121(7) 0.4281(4) 0.0435(3)
O5 O 0.8889(7) 0.2943(4) 0.1577(3)
O6 O 0.7834(7) 0.2156(4) 0.1779(3)
O7 O 0.1733(7) 0.1622(3) 0.2914(3)
O8 O 0.0322(6) 0.2279(3) 0.2530(3)
O9 O -0.4428(6) 0.2060(3) 0.2784(3)
O10 O -0.5115(6) 0.1488(3) 0.3376(3)
O11 O 0.0449(7) 0.0593(3) 0.4392(3)
O12 O -0.1671(7) 0.0490(4) 0.4507(3)
O13 O 0.1681(6) 0.5254(3) 0.0188(3)
H1 H 0.1175 0.5057 -0.0018
H2 H 0.1539 0.5160 0.0485
C1 C 0.2921(11) 0.2797(6) 0.1757(4)
C2 C 0.5083(11) 0.4168(6) 0.0630(4)
C3 C 0.7813(11) 0.2667(6) 0.1618(4)
C4 C 0.4113(9) 0.3035(5) 0.1551(4)
C5 C 0.4036(9) 0.3468(5) 0.1211(4)
H3 H 0.3215 0.3638 0.1114
C6 C 0.5182(10) 0.3662(5) 0.1003(4)
C7 C 0.6436(10) 0.3434(5) 0.1126(4)
H4 H 0.7187 0.3573 0.0987
C8 C 0.6511(10) 0.2976(5) 0.1477(4)
C9 C 0.5367(10) 0.2786(5) 0.1685(4)
H5 H 0.5437 0.2488 0.1919
C10 C 0.0593(9) 0.1857(5) 0.2829(4)
C11 C -0.4210(11) 0.1719(6) 0.3159(4)
C12 C -0.0742(13) 0.0662(6) 0.4287(4)
C13 C -0.0458(10) 0.1639(5) 0.3155(4)
C14 C -0.1782(9) 0.1787(5) 0.3013(3)
H6 H -0.2008 0.2023 0.2737
C15 C -0.2761(10) 0.1565(5) 0.3304(4)
C16 C -0.2425(9) 0.1239(5) 0.3718(4)
H7 H -0.3085 0.1133 0.3922
C17 C -0.1135(10) 0.1063(5) 0.3842(4)
C18 C -0.0087(10) 0.1260(5) 0.3567(4)
H8 H 0.0794 0.1149 0.3649
C19 C 0.5342(12) -0.1214(6) -0.1921(5)
H9 H 0.4874 -0.1544 -0.1843
C20 C 0.6647(14) -0.0646(7) -0.2272(5)
H10 H 0.7254 -0.0503 -0.2483
C21 C 0.6062(14) -0.0324(6) -0.1905(5)
H11 H 0.6208 0.0065 -0.1824
C22 C 0.4432(14) -0.0620(6) -0.1275(5)
C23 C 0.3559(13) -0.1055(6) -0.1164(5)
H12 H 0.3400 -0.1383 -0.1361
C24 C 0.2921(13) -0.0948(6) -0.0716(5)
H13 H 0.2341 -0.1229 -0.0613
C25 C 0.3113(14) -0.0458(6) -0.0430(5)
C26 C 0.3950(13) -0.0030(6) -0.0574(5)
H14 H 0.4059 0.0306 -0.0382
C27 C 0.4649(13) -0.0087(6) -0.1006(5)
H15 H 0.5210 0.0201 -0.1109
C28 C 0.1602(14) 0.0125(7) 0.0725(5)
C29 C 0.2026(12) 0.0124(6) 0.0231(5)
H16 H 0.2032 0.0458 0.0038
C30 C 0.2435(14) -0.0421(7) 0.0055(5)
C31 C 0.2332(13) -0.0942(6) 0.0332(5)
H17 H 0.2550 -0.1299 0.0201
C32 C 0.1870(14) -0.0892(7) 0.0830(5)
C33 C 0.1340(13) 0.1696(6) 0.1042(4)
H18 H 0.1674 0.2045 0.0933
C34 C 0.1639(14) 0.1168(6) 0.0790(5)
H19 H 0.2134 0.1180 0.0514
C35 C 0.1213(15) 0.0668(6) 0.0948(5)
C36 C 0.0514(14) 0.0656(6) 0.1344(5)
H20 H 0.0195 0.0306 0.1459
C37 C 0.0258(13) 0.1184(6) 0.1591(5)
H21 H -0.0175 0.1169 0.1882
C38 C 0.1517(14) -0.1765(7) 0.1949(5)
H22 H 0.1316 -0.1696 0.2275
C39 C 0.1588(14) -0.1287(7) 0.1627(5)
H23 H 0.1491 -0.0911 0.1744
C40 C 0.1798(14) -0.1386(7) 0.1146(5)
C41 C 0.2016(14) -0.1928(6) 0.0986(5)
H24 H 0.2201 -0.2000 0.0659
C42 C 0.1953(13) -0.2376(6) 0.1332(5)
H25 H 0.2082 -0.2751 0.1216
Zn1_2 Zn -0.65104(13) 0.19271(7) 0.27196(5)
Zn1A Zn 0.15104(13) -0.30729(7) 0.22804(5)
Zn1B Zn 0.65104(13) -0.19271(7) -0.27196(5)
Zn2_2 Zn 1.03815(14) 0.24475(7) 0.18301(5)
Zn3A Zn 0.14327(13) 0.00827(7) 0.49190(5)
Zn3B Zn 0.64327(13) 0.49173(7) -0.00810(5)
Zn3C Zn -0.14327(13) -0.00827(7) 0.50810(5)
N2B N 0.3806(10) 0.1195(5) 0.2272(4)
N5A N 0.3273(10) 0.2677(5) 0.3191(4)
O4B O 0.3879(7) 0.5719(4) -0.0435(3)
O5_2 O -0.1111(7) 0.2943(4) 0.1577(3)
O9_2 O 0.5572(6) 0.2060(3) 0.2784(3)
O10_2 O 0.4885(6) 0.1488(3) 0.3376(3)
O11A O 0.4551(7) 0.5593(3) 0.0608(3)
O12C O 0.3329(7) 0.4510(4) -0.0493(3)
loop_
_geom_bond_atom_site_label_1
_geom_bond_atom_site_label_2
_geom_bond_site_symmetry_1
_geom_bond_site_symmetry_2
Zn1 O1 1_555 1_555
Zn2 N4 1_555 1_555
Zn3 O3 1_555 1_555
N1 C19 1_555 1_555
N2 C19 1_555 1_555
N3 C28 1_555 1_555
N4 C33 1_555 1_555
N5 C38 1_555 1_555
O1 C1 1_555 1_555
O2 Zn2 1_555 1_555
O3 C2 1_555 1_555
O4 C2 1_555 1_555
O5 C3 1_555 1_555
O6 C3 1_555 1_555
O7 Zn1 1_555 1_555
O8 Zn2 1_555 1_555
O9 C11 1_555 1_555
O10 C11 1_555 1_555
O11 C12 1_555 1_555
O12 C12 1_555 1_555
O13 Zn3 1_555 1_555
H1 O13 1_555 1_555
H2 O13 1_555 1_555
C1 O2 1_555 1_555
C2 C6 1_555 1_555
C3 C8 1_555 1_555
C4 C1 1_555 1_555
C5 C4 1_555 1_555
H3 C5 1_555 1_555
C6 C5 1_555 1_555
C7 C6 1_555 1_555
H4 C7 1_555 1_555
C8 C7 1_555 1_555
C9 C4 1_555 1_555
H5 C9 1_555 1_555
C10 O7 1_555 1_555
C11 C15 1_555 1_555
C12 C17 1_555 1_555
C13 C10 1_555 1_555
C14 C13 1_555 1_555
H6 C14 1_555 1_555
C15 C14 1_555 1_555
C16 C15 1_555 1_555
H7 C16 1_555 1_555
C17 C16 1_555 1_555
C18 C13 1_555 1_555
H8 C18 1_555 1_555
C19 H9 1_555 1_555
C20 N2 1_555 1_555
H10 C20 1_555 1_555
C21 N1 1_555 1_555
H11 C21 1_555 1_555
C22 N1 1_555 1_555
C23 C22 1_555 1_555
H12 C23 1_555 1_555
C24 C23 1_555 1_555
H13 C24 1_555 1_555
C25 C24 1_555 1_555
C26 C25 1_555 1_555
H14 C26 1_555 1_555
C27 C22 1_555 1_555
H15 C27 1_555 1_555
C28 C29 1_555 1_555
C29 H16 1_555 1_555
C30 C25 1_555 1_555
C31 C30 1_555 1_555
H17 C31 1_555 1_555
C32 N3 1_555 1_555
C33 H18 1_555 1_555
C34 C33 1_555 1_555
H19 C34 1_555 1_555
C35 C28 1_555 1_555
C36 C35 1_555 1_555
H20 C36 1_555 1_555
C37 N4 1_555 1_555
H21 C37 1_555 1_555
C38 H22 1_555 1_555
C39 C38 1_555 1_555
H23 C39 1_555 1_555
C40 C32 1_555 1_555
C41 C40 1_555 1_555
H24 C41 1_555 1_555
C42 N5 1_555 1_555
H25 C42 1_555 1_555
Zn1_2 O9 1_555 1_555
Zn1A N5 1_555 1_555
Zn1B N2 1_555 1_555
Zn2_2 O5 1_555 1_555
Zn3A O11 1_555 1_555
Zn3B O4 1_555 1_555
Zn3C O12 1_555 1_555
N2B Zn1 1_555 1_555
N5A Zn1 1_555 1_555
O4B Zn3 1_555 1_555
O5_2 Zn2 1_555 1_555
O9_2 Zn1 1_555 1_555
O10_2 Zn1 1_555 1_555
O11A Zn3 1_555 1_555
O12C Zn3 1_555 1_555
O8 C10 1_555 1_555
O10 Zn1_2 1_555 1_555
C8 C9 1_555 1_555
C17 C18 1_555 1_555
C20 C21 1_555 1_555
C26 C27 1_555 1_555
C29 C30 1_555 1_555
C31 C32 1_555 1_555
C34 C35 1_555 1_555
C36 C37 1_555 1_555
C39 C40 1_555 1_555
C41 C42 1_555 1_555

#END
