
#######################################################################
#
#                 Cambridge Crystallographic Data Centre
#                                CCDC 
#
#######################################################################
#
# If this CIF has been generated from an entry in the Cambridge 
# Structural Database, then it will include bibliographic, chemical, 
# crystal, experimental, refinement or atomic coordinate data resulting 
# from the CCDC's data processing and validation procedures.
#
#######################################################################

data_JUFZER
_chemical_formula_moiety         '(C34 H30 Cd4 O29)n'
_symmetry_cell_setting           monoclinic
_symmetry_space_group_name_H-M   'C 2/c'
_symmetry_Int_Tables_number      15
_space_group_name_Hall           '-C 2yc'
loop_
_symmetry_equiv_pos_site_id
_symmetry_equiv_pos_as_xyz
1 x,y,z
2 -x,y,1/2-z
3 1/2+x,1/2+y,z
4 1/2-x,1/2+y,1/2-z
5 -x,-y,-z
6 x,-y,1/2+z
7 1/2-x,1/2-y,-z
8 1/2+x,1/2-y,1/2+z
_cell_length_a                   14.1129(6)
_cell_length_b                   14.7903(5)
_cell_length_c                   21.1602(12)
_cell_angle_alpha                90
_cell_angle_beta                 107.645(5)
_cell_angle_gamma                90
_cell_volume                     4209.05
loop_
_atom_site_label
_atom_site_type_symbol
_atom_site_fract_x
_atom_site_fract_y
_atom_site_fract_z
Cd1 Cd -0.07805(6) 0.56246(6) 0.31704(4)
Cd2 Cd 0.28544(6) 1.06477(6) 0.55116(4)
O1 O -0.0427(7) 0.5782(8) 0.4306(5)
H1 H 0.0231 0.5752 0.4524
H2 H -0.0653 0.5487 0.4571
O2 O 0.1772(7) 1.1801(6) 0.5343(5)
O3 O 0.1545(6) 1.3242(6) 0.5027(4)
O4 O 0.4198(6) 0.9102(5) 0.2983(4)
O5 O 0.5646(6) 0.9445(5) 0.3692(4)
O6 O 0.7591(6) 0.5573(6) 0.3189(5)
O7 O 0.2228(7) 1.0192(6) 0.6318(5)
H3 H 0.2035 1.0469 0.6628
H4 H 0.2648 0.9809 0.6491
C1 C 0.5035(8) 0.8868(7) 0.3373(6)
C2 C 0.3700(8) 0.8181(7) 0.4158(6)
H5 H 0.4265 0.8521 0.4360
C3 C 0.4693(8) 0.7223(7) 0.3594(6)
C4 C 0.1965(7) 0.7862(7) 0.3995(5)
H6 H 0.1377 0.7984 0.4092
C5 C 0.2806(8) 0.8383(7) 0.4279(5)
C6 C 0.3755(8) 0.7481(7) 0.3741(6)
C7 C 0.5301(7) 0.7879(7) 0.3423(5)
C8 C 0.6199(7) 0.7610(7) 0.3327(5)
H7 H 0.6619 0.8045 0.3239
C9 C 0.2893(7) 0.6982(7) 0.3444(6)
H8 H 0.2915 0.6516 0.3155
C10 C 0.2001(8) 0.7169(7) 0.3573(5)
C11 C 0.1113(8) 0.6579(7) 0.3259(6)
C12 C 0.6473(8) 0.6701(8) 0.3360(5)
C13 C 0.2741(8) 0.9173(7) 0.4716(6)
C14 C 0.4994(9) 0.6315(8) 0.3634(7)
H9 H 0.4596 0.5875 0.3738
C15 C 0.5859(9) 0.6067(8) 0.3522(6)
H10 H 0.6041 0.5460 0.3555
O8 O 0.1919(7) 0.9468(6) 0.4749(5)
O9 O 0.1223(6) 0.5890(5) 0.2955(4)
O10 O 0.0296(6) 0.6807(6) 0.3350(5)
O11 O 0.3539(6) 0.9578(6) 0.5009(5)
C16 C 0.2008(8) 1.2512(7) 0.5106(6)
O12 O 0.8063(6) 0.7023(6) 0.3231(5)
C17 C 0.7439(8) 0.6423(9) 0.3256(6)
O2F O 0.3228(7) 1.3199(6) 0.4657(5)
O3F O 0.3455(6) 1.1758(6) 0.4973(4)
C16F C 0.2992(8) 1.2488(7) 0.4894(6)
Cd1A Cd 0.07805(6) 0.56246(6) 0.18296(4)
Cd2A Cd -0.28544(6) 1.06477(6) -0.05116(4)
O1A O 0.0427(7) 0.5782(8) 0.0694(5)
H1A H -0.0231 0.5752 0.0476
H2A H 0.0653 0.5487 0.0429
O4A O -0.4198(6) 0.9102(5) 0.2017(4)
O5A O -0.5646(6) 0.9445(5) 0.1308(4)
O6A O -0.7591(6) 0.5573(6) 0.1811(5)
O7A O -0.2228(7) 1.0192(6) -0.1318(5)
H3A H -0.2035 1.0469 -0.1628
H4A H -0.2648 0.9809 -0.1491
C1A C -0.5035(8) 0.8868(7) 0.1627(6)
C2A C -0.3700(8) 0.8181(7) 0.0842(6)
H5A H -0.4265 0.8521 0.0640
C3A C -0.4693(8) 0.7223(7) 0.1406(6)
C4A C -0.1965(7) 0.7862(7) 0.1005(5)
H6A H -0.1377 0.7984 0.0908
C5A C -0.2806(8) 0.8383(7) 0.0721(5)
C6A C -0.3755(8) 0.7481(7) 0.1259(6)
C7A C -0.5301(7) 0.7879(7) 0.1577(5)
C8A C -0.6199(7) 0.7610(7) 0.1673(5)
H7A H -0.6619 0.8045 0.1761
C9A C -0.2893(7) 0.6982(7) 0.1556(6)
H8A H -0.2915 0.6516 0.1845
C10A C -0.2001(8) 0.7169(7) 0.1427(5)
C11A C -0.1113(8) 0.6579(7) 0.1741(6)
C12A C -0.6473(8) 0.6701(8) 0.1640(5)
C13A C -0.2741(8) 0.9173(7) 0.0284(6)
C14A C -0.4994(9) 0.6315(8) 0.1366(7)
H9A H -0.4596 0.5875 0.1262
C15A C -0.5859(9) 0.6067(8) 0.1478(6)
H10A H -0.6041 0.5460 0.1445
O8A O -0.1919(7) 0.9468(6) 0.0251(5)
O9A O -0.1223(6) 0.5890(5) 0.2045(4)
O10A O -0.0296(6) 0.6807(6) 0.1650(5)
O11A O -0.3539(6) 0.9578(6) -0.0009(5)
O12A O -0.8063(6) 0.7023(6) 0.1769(5)
C17A C -0.7439(8) 0.6423(9) 0.1744(6)
Cd1_2 Cd 0.92195(6) 0.56246(6) 0.31704(4)
Cd1A_2 Cd -0.92195(6) 0.56246(6) 0.18296(4)
Cd1B Cd 0.42195(6) 1.06246(6) 0.31704(4)
Cd1C Cd -0.42195(6) 1.06246(6) 0.18296(4)
Cd2D Cd 0.71456(6) 0.93523(6) 0.44884(4)
Cd2E Cd -0.71456(6) 0.93523(6) 0.05116(4)
Cd2F Cd 0.21456(6) 1.43523(6) 0.44884(4)
O2A O -0.1772(7) 1.1801(6) -0.0343(5)
O3G O -0.3455(6) 1.1758(6) 0.0027(4)
O4B O -0.0802(6) 0.4102(5) 0.2983(4)
O4C O 0.0802(6) 0.4102(5) 0.2017(4)
O5B O 0.0646(6) 0.4445(5) 0.3692(4)
O5C O -0.0646(6) 0.4445(5) 0.1308(4)
O5D O 0.4354(6) 1.0555(5) 0.6308(4)
O5E O -0.4354(6) 1.0555(5) -0.1308(4)
O6_2 O -0.2409(6) 0.5573(6) 0.3189(5)
O6A_2 O 0.2409(6) 0.5573(6) 0.1811(5)
O12_2 O -0.1937(6) 0.7023(6) 0.3231(5)
O12A_2 O 0.1937(6) 0.7023(6) 0.1769(5)
O13 O -0.0612(7) 0.7398(7) 0.4193(6)
H11 H -0.0282 0.6937 0.4381
H12 H -0.0768 0.7310 0.3753
O14 O -0.0708(8) 0.8089(7) 0.3136(6)
H13 H -0.1321 0.8209 0.2964
H14 H -0.0360 0.8509 0.3044
O15 O -0.0066(11) 0.8811(9) 0.4333(12)
H15 H 0.0369 0.9185 0.4293
H16 H 0.0143 0.8280 0.4384
O16 O -0.2044(8) 0.8891(9) 0.2587(6)
H17 H -0.2675 0.8871 0.2429
H18 H -0.1943 0.9319 0.2307
O17 O 0.0000 0.888(2) 0.2500
H19 H 0.0566 0.9155 0.2793
H19A H -0.0566 0.9155 0.2207
loop_
_geom_bond_atom_site_label_1
_geom_bond_atom_site_label_2
_geom_bond_site_symmetry_1
_geom_bond_site_symmetry_2
Cd1 O1 1_555 1_555
Cd2 O2 1_555 1_555
O1 H1 1_555 1_555
H2 O1 1_555 1_555
O2 C16 1_555 1_555
O3 C16 1_555 1_555
O4 C1 1_555 1_555
O5 C1 1_555 1_555
O6 C17 1_555 1_555
O7 Cd2 1_555 1_555
H3 O7 1_555 1_555
H4 O7 1_555 1_555
C1 C7 1_555 1_555
C2 H5 1_555 1_555
C3 C6 1_555 1_555
C4 H6 1_555 1_555
C5 C2 1_555 1_555
C6 C2 1_555 1_555
C7 C3 1_555 1_555
C8 C7 1_555 1_555
H7 C8 1_555 1_555
C9 C6 1_555 1_555
H8 C9 1_555 1_555
C10 C4 1_555 1_555
C11 C10 1_555 1_555
C12 C8 1_555 1_555
C13 C5 1_555 1_555
C14 C3 1_555 1_555
H9 C14 1_555 1_555
C15 C12 1_555 1_555
H10 C15 1_555 1_555
O8 Cd2 1_555 1_555
O9 C11 1_555 1_555
O10 Cd1 1_555 1_555
O11 Cd2 1_555 1_555
C16 C16F 1_555 1_555
O12 C17 1_555 1_555
C17 C12 1_555 1_555
O13 H11 1_555 1_555
H12 O13 1_555 1_555
O14 H13 1_555 1_555
H14 O14 1_555 1_555
O15 H15 1_555 1_555
H16 O15 1_555 1_555
O16 H17 1_555 1_555
H18 O16 1_555 1_555
O17 H19 1_555 1_555
O2F C16F 1_555 1_555
O3F Cd2 1_555 1_555
C16F O3F 1_555 1_555
Cd1A O9 1_555 1_555
Cd2A O7A 1_555 1_555
O1A Cd1A 1_555 1_555
H1A O1A 1_555 1_555
H2A O1A 1_555 1_555
O4A C1A 1_555 1_555
O5A C1A 1_555 1_555
O6A C17A 1_555 1_555
O7A H3A 1_555 1_555
H4A O7A 1_555 1_555
C1A C7A 1_555 1_555
C2A H5A 1_555 1_555
C3A C6A 1_555 1_555
C4A H6A 1_555 1_555
C5A C2A 1_555 1_555
C6A C2A 1_555 1_555
C7A C3A 1_555 1_555
C8A C7A 1_555 1_555
H7A C8A 1_555 1_555
C9A C6A 1_555 1_555
H8A C9A 1_555 1_555
C10A C4A 1_555 1_555
C11A C10A 1_555 1_555
C12A C8A 1_555 1_555
C13A C5A 1_555 1_555
C14A C3A 1_555 1_555
H9A C14A 1_555 1_555
C15A C12A 1_555 1_555
H10A C15A 1_555 1_555
O8A Cd2A 1_555 1_555
O9A Cd1 1_555 1_555
O10A Cd1A 1_555 1_555
O11A Cd2A 1_555 1_555
O12A C17A 1_555 1_555
C17A C12A 1_555 1_555
Cd1_2 O6 1_555 1_555
Cd1A_2 O6A 1_555 1_555
Cd1B O4 1_555 1_555
Cd1C O4A 1_555 1_555
Cd2D O5 1_555 1_555
Cd2E O5A 1_555 1_555
Cd2F O3 1_555 1_555
O2A Cd2A 1_555 1_555
O3G Cd2A 1_555 1_555
O4B Cd1 1_555 1_555
O4C Cd1A 1_555 1_555
O5B Cd1 1_555 1_555
O5C Cd1A 1_555 1_555
O5D Cd2 1_555 1_555
O5E Cd2A 1_555 1_555
O6_2 Cd1 1_555 1_555
O6A_2 Cd1A 1_555 1_555
O12_2 Cd1 1_555 1_555
O12A_2 Cd1A 1_555 1_555
H19A O17 1_555 1_555
O5 Cd1B 1_555 1_555
C4 C5 1_555 1_555
C9 C10 1_555 1_555
C11 O10 1_555 1_555
C13 O8 1_555 1_555
C13 O11 1_555 1_555
C14 C15 1_555 1_555
O12 Cd1_2 1_555 1_555
O2F Cd2F 1_555 1_555
O5A Cd1C 1_555 1_555
C4A C5A 1_555 1_555
C9A C10A 1_555 1_555
C11A O9A 1_555 1_555
C11A O10A 1_555 1_555
C13A O8A 1_555 1_555
C13A O11A 1_555 1_555
C14A C15A 1_555 1_555
O12A Cd1A_2 1_555 1_555

#END
