
#######################################################################
#
#                 Cambridge Crystallographic Data Centre
#                                CCDC 
#
#######################################################################
#
# If this CIF has been generated from an entry in the Cambridge 
# Structural Database, then it will include bibliographic, chemical, 
# crystal, experimental, refinement or atomic coordinate data resulting 
# from the CCDC's data processing and validation procedures.
#
#######################################################################

data_ALUKUO
_chemical_formula_moiety         '(C56 H88 Eu2 N6 O30 S7)n'
_symmetry_cell_setting           monoclinic
_symmetry_space_group_name_H-M   'C 2/c'
_symmetry_Int_Tables_number      15
_space_group_name_Hall           '-C 2yc'
loop_
_symmetry_equiv_pos_site_id
_symmetry_equiv_pos_as_xyz
1 x,y,z
2 -x,y,1/2-z
3 1/2+x,1/2+y,z
4 1/2-x,1/2+y,1/2-z
5 -x,-y,-z
6 x,-y,1/2+z
7 1/2-x,1/2-y,-z
8 1/2+x,1/2-y,1/2+z
_cell_length_a                   27.441(4)
_cell_length_b                   16.864(3)
_cell_length_c                   27.919(4)
_cell_angle_alpha                90
_cell_angle_beta                 101.880(3)
_cell_angle_gamma                90
_cell_volume                     12643.2
loop_
_atom_site_label
_atom_site_type_symbol
_atom_site_fract_x
_atom_site_fract_y
_atom_site_fract_z
C1 C 0.13929(14) 0.7846(2) 0.11000(13)
C2 C 0.10135(13) 0.80648(18) 0.13885(13)
C3 C 0.11749(14) 0.7955(2) 0.18987(13)
H1 H 0.1506 0.7838 0.2033
C4 C 0.08265(12) 0.80255(19) 0.21970(12)
H2 H 0.0930 0.8004 0.2536
C5 C 0.03275(14) 0.8127(2) 0.19899(14)
C6 C 0.01558(13) 0.81582(19) 0.14748(13)
H3 H -0.0178 0.8240 0.1335
C7 C 0.05050(12) 0.80618(19) 0.11917(13)
H4 H 0.0398 0.7992 0.0856
C8 C 0.17271(13) 0.75113(16) -0.07683(12)
C9 C 0.13442(13) 0.75253(19) -0.12299(13)
C10 C 0.08468(13) 0.75200(19) -0.12042(12)
H5 H 0.0762 0.7513 -0.0898
C11 C 0.04748(15) 0.7525(2) -0.16130(14)
H6 H 0.0142 0.7527 -0.1587
C12 C 0.05977(14) 0.7526(2) -0.20466(14)
C13 C 0.10914(14) 0.75069(19) -0.21146(13)
H7 H 0.1162 0.7491 -0.2426
C14 C 0.14801(13) 0.75128(17) -0.16848(12)
H8 H 0.1813 0.7508 -0.1708
Eu1 Eu 0.201046(6) 0.732384(9) 0.046089(5)
C15 C 0.26745(11) 0.60304(18) -0.01905(11)
C16 C 0.25878(12) 0.51822(19) -0.01255(13)
C17 C 0.28552(12) 0.4647(2) -0.03588(12)
H9 H 0.3067 0.4826 -0.0556
C18 C 0.27945(15) 0.3847(2) -0.02855(14)
H10 H 0.2974 0.3483 -0.0431
C19 C 0.24597(12) 0.35604(18) 0.00114(12)
C20 C 0.22019(13) 0.4090(2) 0.02126(14)
H11 H 0.1978 0.3906 0.0396
C21 C 0.22512(11) 0.4896(2) 0.01608(12)
H12 H 0.2068 0.5247 0.0310
C22 C 0.20091(13) 0.49669(18) 0.13329(13)
H13 H 0.1731 0.4794 0.1088
H14 H 0.2006 0.4698 0.1635
H15 H 0.2313 0.4848 0.1229
C23 C 0.23637(13) 0.6282(2) 0.19895(13)
H16 H 0.2551 0.5830 0.2133
H17 H 0.2164 0.6477 0.2208
H18 H 0.2588 0.6690 0.1931
C24 C 0.05288(12) 0.59487(19) 0.04714(13)
H19 H 0.0487 0.5384 0.0442
H20 H 0.0208 0.6199 0.0416
H21 H 0.0710 0.6076 0.0794
C25 C 0.08616(13) 0.54616(17) -0.04039(12)
H22 H 0.0907 0.5649 -0.0717
H23 H 0.0546 0.5196 -0.0442
H24 H 0.1124 0.5098 -0.0272
N1 N -0.00545(12) 0.81451(18) 0.22532(12)
N2 N 0.02519(12) 0.74891(18) -0.24907(12)
N3 N 0.23573(10) 0.28009(15) 0.00520(10)
O1 O 0.18374(8) 0.77450(13) 0.12591(8)
O2 O 0.11988(9) 0.77635(14) 0.06337(9)
O3 O 0.16151(8) 0.75384(12) -0.03516(8)
O4 O 0.21629(8) 0.74731(11) -0.08611(8)
O5 O 0.24664(8) 0.64958(13) 0.00293(8)
O6 O 0.29782(7) 0.62270(13) -0.04618(7)
O7 O 0.22318(8) 0.62734(12) 0.10243(7)
O8 O 0.14030(8) 0.62749(13) 0.02646(8)
S1 S 0.19671(3) 0.59974(4) 0.14196(3)
S2 S 0.08763(3) 0.63057(5) 0.00149(3)
C1A C -0.13929(14) 0.7846(2) 0.39000(13)
C2A C -0.10135(13) 0.80648(18) 0.36115(13)
C3A C -0.11749(14) 0.7955(2) 0.31013(13)
H1A H -0.1506 0.7838 0.2967
C4A C -0.08265(12) 0.80255(19) 0.28030(12)
H2A H -0.0930 0.8004 0.2464
C5A C -0.03275(14) 0.8127(2) 0.30101(14)
C6A C -0.01558(13) 0.81582(19) 0.35252(13)
H3A H 0.0178 0.8240 0.3665
C7A C -0.05050(12) 0.80618(19) 0.38083(13)
H4A H -0.0398 0.7992 0.4144
C8A C -0.17271(13) 0.75113(16) -0.42317(12)
C9A C -0.13442(13) 0.75253(19) -0.37701(13)
C10A C -0.08468(13) 0.75200(19) -0.37958(12)
H5A H -0.0762 0.7513 -0.4102
C11A C -0.04748(15) 0.7525(2) -0.33870(14)
H6A H -0.0142 0.7527 -0.3413
C12A C -0.05977(14) 0.7526(2) -0.29534(14)
C13A C -0.10914(14) 0.75069(19) -0.28854(13)
H7A H -0.1162 0.7491 -0.2574
C14A C -0.14801(13) 0.75128(17) -0.33152(12)
H8A H -0.1813 0.7508 -0.3292
Eu1A Eu -0.201046(6) 0.732384(9) 0.453911(5)
Eu1F Eu 0.298954(6) 0.767616(9) -0.046089(5)
Eu1A_2 Eu -0.201046(6) 0.732384(9) -0.546089(5)
Eu1G Eu -0.298954(6) 0.767616(9) -0.453911(5)
Eu1F_2 Eu 0.298954(6) -0.232384(9) -0.046089(5)
Eu1_2 Eu 0.201046(6) -0.267616(9) 0.046089(5)
C15F C 0.23255(11) -0.10304(18) 0.01905(11)
C16F C 0.24122(12) -0.01822(19) 0.01255(13)
C17F C 0.21448(12) 0.0353(2) 0.03588(12)
H9F H 0.1933 0.0174 0.0556
C18F C 0.22055(15) 0.1153(2) 0.02855(14)
H10F H 0.2026 0.1517 0.0431
C19F C 0.25403(12) 0.14396(18) -0.00114(12)
C20F C 0.27981(13) 0.0910(2) -0.02126(14)
H11F H 0.3022 0.1094 -0.0396
C21F C 0.27488(11) 0.0104(2) -0.01608(12)
H12F H 0.2932 -0.0247 -0.0310
C22A C -0.20091(13) 0.49669(18) 0.36671(13)
H13A H -0.1731 0.4794 0.3912
H14A H -0.2006 0.4698 0.3365
H15A H -0.2313 0.4848 0.3771
C23A C -0.23637(13) 0.6282(2) 0.30105(13)
H16A H -0.2551 0.5830 0.2867
H17A H -0.2164 0.6477 0.2792
H18A H -0.2588 0.6690 0.3069
C24A C -0.05288(12) 0.59487(19) 0.45286(13)
H19A H -0.0487 0.5384 0.4558
H20A H -0.0208 0.6199 0.4584
H21A H -0.0710 0.6076 0.4206
C25A C -0.08616(13) 0.54616(17) 0.54039(12)
H22A H -0.0907 0.5649 0.5717
H23A H -0.0546 0.5196 0.5442
H24A H -0.1124 0.5098 0.5272
N1A N 0.00545(12) 0.81451(18) 0.27468(12)
N2A N -0.02519(12) 0.74891(18) -0.25093(12)
N3F N 0.26427(10) 0.21991(15) -0.00520(10)
O1A O -0.18374(8) 0.77450(13) 0.37409(8)
O2A O -0.11988(9) 0.77635(14) 0.43663(9)
O3A O -0.16151(8) 0.75384(12) -0.46484(8)
O3A_2 O -0.16151(8) 0.75384(12) 0.53516(8)
O4A O -0.21629(8) 0.74731(11) -0.41389(8)
O4F O 0.28371(8) 0.75269(11) 0.08611(8)
O4G O -0.28371(8) 0.75269(11) 0.41389(8)
O5F O 0.25336(8) -0.14958(13) -0.00293(8)
O5A O -0.24664(8) 0.64958(13) 0.49707(8)
O6F O 0.20218(7) -0.12270(13) 0.04618(7)
O6F_2 O 0.20218(7) 0.87730(13) 0.04618(7)
O6G O -0.20218(7) 0.87730(13) 0.45382(7)
O7A O -0.22318(8) 0.62734(12) 0.39757(7)
O8A O -0.14030(8) 0.62749(13) 0.47354(8)
S1A S -0.19671(3) 0.59974(4) 0.35804(3)
S2A S -0.08763(3) 0.63057(5) 0.49851(3)
C26 C 0.30777(14) 0.4109(2) 0.22438(15)
H25 H 0.3236 0.4545 0.2437
H26 H 0.3049 0.4227 0.1903
H27 H 0.3274 0.3638 0.2325
C27 C 0.23242(14) 0.2961(2) 0.24756(14)
H28 H 0.2297 0.2689 0.2169
H29 H 0.2032 0.2861 0.2605
H30 H 0.2613 0.2775 0.2703
O9 O 0.23331(9) 0.42949(15) 0.28809(9)
S3 S 0.23767(3) 0.39316(6) 0.23880(3)
C28 C 0.60989(15) 0.0895(2) 0.66929(14)
H31 H 0.6182 0.0434 0.6525
H32 H 0.6399 0.1150 0.6860
H33 H 0.5911 0.1256 0.6460
C29 C 0.50016(15) 0.0656(3) 0.69120(16)
H34 H 0.4861 0.1025 0.7107
H35 H 0.4855 0.0143 0.6930
H36 H 0.4936 0.0832 0.6578
O10 O 0.57871(8) -0.02604(14) 0.72120(8)
S4 S 0.57126(4) 0.05902(5) 0.71547(3)
C30 C 0.38553(14) 0.5867(2) 0.37520(14)
H37 H 0.3505 0.5753 0.3671
H38 H 0.3907 0.6427 0.3723
H39 H 0.3988 0.5702 0.4082
C31 C 0.49339(14) 0.5602(3) 0.33638(15)
H40 H 0.5078 0.5236 0.3169
H41 H 0.5109 0.5570 0.3698
H42 H 0.4959 0.6131 0.3244
O11 O 0.38558(9) 0.56417(15) 0.28512(9)
S5 S 0.41817(3) 0.53146(5) 0.33198(3)
O12 O 0.3986(2) 0.1177(3) 0.1630(2)
H43 H 0.3819 0.1606 0.1595
H44 H 0.3938 0.0933 0.1883
O13 O 0.4359(3) 0.1404(4) 0.1144(2)
H45 H 0.4273 0.1612 0.0862
H46 H 0.4488 0.1757 0.1349
O14 O 0.1410(3) 0.7490(4) 0.4292(2)
H47 H 0.1501 0.7881 0.4139
H48 H 0.1104 0.7388 0.4175
O15 O 0.1758(2) 0.5674(3) 0.8958(3)
H49 H 0.1684 0.5491 0.9218
H50 H 0.1501 0.5671 0.8728
O16 O 0.4879(2) 0.3886(4) 0.4885(2)
H51 H 0.5156 0.3692 0.4848
H52 H 0.4920 0.4114 0.5162
O17 O 0.6364(3) 0.5522(3) 0.8588(2)
H53 H 0.6446 0.5106 0.8758
H54 H 0.6143 0.5775 0.8700
O18 O 0.2274(2) 0.3643(4) 0.8162(2)
H55 H 0.2188 0.3679 0.8437
H56 H 0.2089 0.3944 0.7956
O19 O 0.2451(3) 0.2426(5) 0.8622(3)
H57 H 0.2176 0.2197 0.8626
H58 H 0.2606 0.2514 0.8914
O20 O 0.0721(3) 0.0286(5) 0.4740(3)
H59 H 0.0706 -0.0218 0.4736
H60 H 0.0428 0.0476 0.4654
O21 O 0.4088(3) 0.8193(5) 0.4488(3)
H61 H 0.3874 0.8165 0.4220
H62 H 0.3945 0.8346 0.4715
O22 O 0.4526(3) 0.7198(5) 0.4500(3)
H63 H 0.4746 0.7202 0.4764
H64 H 0.4344 0.6787 0.4494
loop_
_geom_bond_atom_site_label_1
_geom_bond_atom_site_label_2
_geom_bond_site_symmetry_1
_geom_bond_site_symmetry_2
C1 C2 1_555 1_555
C2 C3 1_555 1_555
C3 H1 1_555 1_555
C4 C3 1_555 1_555
H2 C4 1_555 1_555
C5 C4 1_555 1_555
C6 C5 1_555 1_555
H3 C6 1_555 1_555
C7 C2 1_555 1_555
H4 C7 1_555 1_555
C8 C9 1_555 1_555
C9 C10 1_555 1_555
C10 H5 1_555 1_555
C11 C10 1_555 1_555
H6 C11 1_555 1_555
C12 C11 1_555 1_555
C13 C12 1_555 1_555
H7 C13 1_555 1_555
C14 C9 1_555 1_555
H8 C14 1_555 1_555
Eu1 O1 1_555 1_555
C15 C16 1_555 1_555
C16 C17 1_555 1_555
C17 H9 1_555 1_555
C18 C17 1_555 1_555
H10 C18 1_555 1_555
C19 C18 1_555 1_555
C20 C19 1_555 1_555
H11 C20 1_555 1_555
C21 C16 1_555 1_555
H12 C21 1_555 1_555
C22 H13 1_555 1_555
H14 C22 1_555 1_555
H15 C22 1_555 1_555
C23 H16 1_555 1_555
H17 C23 1_555 1_555
H18 C23 1_555 1_555
C24 H19 1_555 1_555
H20 C24 1_555 1_555
H21 C24 1_555 1_555
C25 H22 1_555 1_555
H23 C25 1_555 1_555
H24 C25 1_555 1_555
C26 H25 1_555 1_555
H26 C26 1_555 1_555
H27 C26 1_555 1_555
C27 H28 1_555 1_555
H29 C27 1_555 1_555
H30 C27 1_555 1_555
C28 H31 1_555 1_555
H32 C28 1_555 1_555
H33 C28 1_555 1_555
C29 H34 1_555 1_555
H35 C29 1_555 1_555
H36 C29 1_555 1_555
C30 H37 1_555 1_555
H38 C30 1_555 1_555
H39 C30 1_555 1_555
C31 H40 1_555 1_555
H41 C31 1_555 1_555
H42 C31 1_555 1_555
N1 C5 1_555 1_555
N2 C12 1_555 1_555
N3 C19 1_555 1_555
O1 C1 1_555 1_555
O2 C1 1_555 1_555
O3 C8 1_555 1_555
O4 C8 1_555 1_555
O5 Eu1 1_555 1_555
O6 C15 1_555 1_555
O7 Eu1 1_555 1_555
O8 Eu1 1_555 1_555
O9 S3 1_555 1_555
O10 S4 1_555 1_555
O11 S5 1_555 1_555
O12 H43 1_555 1_555
H44 O12 1_555 1_555
O13 H45 1_555 1_555
H46 O13 1_555 1_555
O14 H47 1_555 1_555
H48 O14 1_555 1_555
O15 H49 1_555 1_555
H50 O15 1_555 1_555
O16 H51 1_555 1_555
H52 O16 1_555 1_555
O17 H53 1_555 1_555
H54 O17 1_555 1_555
O18 H55 1_555 1_555
H56 O18 1_555 1_555
O19 H57 1_555 1_555
H58 O19 1_555 1_555
O20 H59 1_555 1_555
H60 O20 1_555 1_555
O21 H61 1_555 1_555
H62 O21 1_555 1_555
O22 H63 1_555 1_555
H64 O22 1_555 1_555
S1 C22 1_555 1_555
S2 C24 1_555 1_555
S3 C26 1_555 1_555
S4 C28 1_555 1_555
S5 C30 1_555 1_555
C1A C2A 1_555 1_555
C2A C3A 1_555 1_555
C3A H1A 1_555 1_555
C4A C3A 1_555 1_555
H2A C4A 1_555 1_555
C5A C4A 1_555 1_555
C6A C5A 1_555 1_555
H3A C6A 1_555 1_555
C7A C2A 1_555 1_555
H4A C7A 1_555 1_555
C8A C9A 1_555 1_555
C9A C10A 1_555 1_555
C10A H5A 1_555 1_555
C11A C10A 1_555 1_555
H6A C11A 1_555 1_555
C12A C11A 1_555 1_555
C13A C12A 1_555 1_555
H7A C13A 1_555 1_555
C14A C9A 1_555 1_555
H8A C14A 1_555 1_555
Eu1A O1A 1_555 1_555
Eu1F O4 1_555 1_555
Eu1A_2 O3A 1_555 1_555
Eu1G O4A 1_555 1_555
Eu1F_2 O5F 1_555 1_555
Eu1_2 O6F 1_555 1_555
C15F C16F 1_555 1_555
C16F C17F 1_555 1_555
C17F H9F 1_555 1_555
C18F C17F 1_555 1_555
H10F C18F 1_555 1_555
C19F C18F 1_555 1_555
C20F C19F 1_555 1_555
H11F C20F 1_555 1_555
C21F C16F 1_555 1_555
H12F C21F 1_555 1_555
C22A H13A 1_555 1_555
H14A C22A 1_555 1_555
H15A C22A 1_555 1_555
C23A H16A 1_555 1_555
H17A C23A 1_555 1_555
H18A C23A 1_555 1_555
C24A H19A 1_555 1_555
H20A C24A 1_555 1_555
H21A C24A 1_555 1_555
C25A H22A 1_555 1_555
H23A C25A 1_555 1_555
H24A C25A 1_555 1_555
N1A N1 1_555 1_555
N2A N2 1_555 1_555
N3F N3 1_555 1_555
O1A C1A 1_555 1_555
O2A C1A 1_555 1_555
O3A C8A 1_555 1_555
O3A_2 Eu1A 1_555 1_555
O4A C8A 1_555 1_555
O4F Eu1 1_555 1_555
O4G Eu1A 1_555 1_555
O5F C15F 1_555 1_555
O5A Eu1A 1_555 1_555
O6F C15F 1_555 1_555
O6F_2 Eu1 1_555 1_555
O6G Eu1A 1_555 1_555
O7A Eu1A 1_555 1_555
O8A Eu1A 1_555 1_555
S1A C22A 1_555 1_555
S2A C24A 1_555 1_555
C6 C7 1_555 1_555
C13 C14 1_555 1_555
Eu1 O2 1_555 1_555
Eu1 O3 1_555 1_555
C15 O5 1_555 1_555
C20 C21 1_555 1_555
C23 S1 1_555 1_555
C25 S2 1_555 1_555
C27 S3 1_555 1_555
C29 S4 1_555 1_555
C31 S5 1_555 1_555
O6 Eu1F 1_555 1_555
O7 S1 1_555 1_555
O8 S2 1_555 1_555
C5A N1A 1_555 1_555
C6A C7A 1_555 1_555
C12A N2A 1_555 1_555
C13A C14A 1_555 1_555
Eu1A O2A 1_555 1_555
C19F N3F 1_555 1_555
C20F C21F 1_555 1_555
C23A S1A 1_555 1_555
C25A S2A 1_555 1_555
O7A S1A 1_555 1_555
O8A S2A 1_555 1_555

#END
