
#######################################################################
#
#                 Cambridge Crystallographic Data Centre
#                                CCDC 
#
#######################################################################
#
# If this CIF has been generated from an entry in the Cambridge 
# Structural Database, then it will include bibliographic, chemical, 
# crystal, experimental, refinement or atomic coordinate data resulting 
# from the CCDC's data processing and validation procedures.
#
#######################################################################

data_ALUKIC
_chemical_formula_moiety         '(C56 H88 Ce2 N6 O30 S7)n'
_symmetry_cell_setting           monoclinic
_symmetry_space_group_name_H-M   'C 2/c'
_symmetry_Int_Tables_number      15
_space_group_name_Hall           '-C 2yc'
loop_
_symmetry_equiv_pos_site_id
_symmetry_equiv_pos_as_xyz
1 x,y,z
2 -x,y,1/2-z
3 1/2+x,1/2+y,z
4 1/2-x,1/2+y,1/2-z
5 -x,-y,-z
6 x,-y,1/2+z
7 1/2-x,1/2-y,-z
8 1/2+x,1/2-y,1/2+z
_cell_length_a                   27.4350(16)
_cell_length_b                   16.8706(11)
_cell_length_c                   28.128(2)
_cell_angle_alpha                90
_cell_angle_beta                 102.482(14)
_cell_angle_gamma                90
_cell_volume                     12711.2
loop_
_atom_site_label
_atom_site_type_symbol
_atom_site_fract_x
_atom_site_fract_y
_atom_site_fract_z
C1 C 0.13903(16) 0.7844(2) 0.10996(13)
C2 C 0.10120(15) 0.8059(2) 0.13889(13)
C3 C 0.11761(16) 0.7958(2) 0.18993(13)
H1 H 0.1509 0.7847 0.2034
C4 C 0.08293(16) 0.8027(2) 0.21978(12)
H2 H 0.0937 0.8006 0.2535
C5 C 0.03270(17) 0.8127(2) 0.19905(14)
C6 C 0.01552(16) 0.8159(2) 0.14755(14)
H3 H -0.0180 0.8242 0.1335
C7 C 0.05034(15) 0.8062(2) 0.11917(14)
H4 H 0.0393 0.7996 0.0857
C8 C 0.32755(14) 0.74860(18) 0.07698(13)
C9 C 0.36590(15) 0.7473(2) 0.12306(14)
C10 C 0.41529(15) 0.7481(2) 0.12041(13)
H5 H 0.4235 0.7488 0.0900
C11 C 0.45268(17) 0.7480(2) 0.16129(14)
H6 H 0.4860 0.7483 0.1591
C12 C 0.43984(17) 0.7474(2) 0.20473(15)
C13 C 0.39094(16) 0.7490(2) 0.21131(13)
H7 H 0.3839 0.7501 0.2422
C14 C 0.35247(15) 0.7487(2) 0.16853(13)
H8 H 0.3191 0.7495 0.1705
C15 C 0.23220(15) 0.8971(2) 0.01912(13)
C16 C 0.24088(14) 0.9818(2) 0.01256(13)
C17 C 0.21458(15) 1.0357(2) 0.03603(13)
H9 H 0.1939 1.0178 0.0560
C18 C 0.22031(17) 1.1151(2) 0.02854(15)
H10 H 0.2022 1.1514 0.0426
C19 C 0.25412(14) 1.1437(2) -0.00089(13)
C20 C 0.27972(16) 1.0910(2) -0.02099(14)
H11 H 0.3020 1.1095 -0.0391
C21 C 0.27468(13) 1.0103(2) -0.01621(12)
H12 H 0.2927 0.9751 -0.0312
C22 C 0.20127(16) 0.4964(2) 0.13314(14)
H13 H 0.1728 0.4787 0.1093
H14 H 0.2022 0.4694 0.1633
H15 H 0.2312 0.4851 0.1220
C23 C 0.23639(15) 0.6276(2) 0.19902(14)
H16 H 0.2558 0.5827 0.2130
H17 H 0.2163 0.6456 0.2209
H18 H 0.2583 0.6695 0.1937
C24 C 0.05280(14) 0.5948(2) 0.04719(13)
H19 H 0.0480 0.5385 0.0438
H20 H 0.0209 0.6207 0.0420
H21 H 0.0715 0.6066 0.0794
C25 C 0.08606(15) 0.54640(19) -0.04022(12)
H22 H 0.0883 0.5656 -0.0718
H23 H 0.0553 0.5178 -0.0427
H24 H 0.1137 0.5118 -0.0280
Ce1 Ce 0.201083(8) 0.732300(11) 0.046104(6)
N1 N -0.00523(14) 0.8148(2) 0.22509(12)
N2 N 0.47504(13) 0.7510(2) 0.24918(13)
N3 N 0.26453(12) 1.22011(16) -0.00526(11)
O1 O 0.18378(10) 0.77446(14) 0.12603(9)
O2 O 0.11996(10) 0.77642(15) 0.06344(9)
O3 O 0.33855(10) 0.74610(14) 0.03519(8)
O4 O 0.28360(10) 0.75288(12) 0.08620(9)
O5 O 0.25322(9) 0.85028(14) -0.00286(9)
O6 O 0.20220(9) 0.87716(13) 0.04606(7)
O7 O 0.22312(9) 0.62727(13) 0.10245(8)
O8 O 0.14023(9) 0.62724(14) 0.02634(9)
S1 S 0.19673(4) 0.59967(5) 0.14198(3)
S2 S 0.08762(3) 0.63056(5) 0.00148(3)
C1A C -0.13903(16) 0.7844(2) 0.39004(13)
C2A C -0.10120(15) 0.8059(2) 0.36111(13)
C3A C -0.11761(16) 0.7958(2) 0.31007(13)
H1A H -0.1509 0.7847 0.2966
C4A C -0.08293(16) 0.8027(2) 0.28022(12)
H2A H -0.0937 0.8006 0.2465
C5A C -0.03270(17) 0.8127(2) 0.30095(14)
C6A C -0.01552(16) 0.8159(2) 0.35245(14)
H3A H 0.0180 0.8242 0.3665
C7A C -0.05034(15) 0.8062(2) 0.38083(14)
H4A H -0.0393 0.7996 0.4143
C8A C 0.67245(14) 0.74860(18) 0.42302(13)
C9A C 0.63410(15) 0.7473(2) 0.37694(14)
C10A C 0.58471(15) 0.7481(2) 0.37959(13)
H5A H 0.5765 0.7488 0.4100
C11A C 0.54732(17) 0.7480(2) 0.33871(14)
H6A H 0.5140 0.7483 0.3409
C12A C 0.56016(17) 0.7474(2) 0.29527(15)
C13A C 0.60906(16) 0.7490(2) 0.28869(13)
H7A H 0.6161 0.7501 0.2578
C14A C 0.64753(15) 0.7487(2) 0.33147(13)
H8A H 0.6809 0.7495 0.3295
C15F C 0.26780(15) 1.6029(2) -0.01912(13)
C16F C 0.25912(14) 1.5182(2) -0.01256(13)
C17F C 0.28542(15) 1.4643(2) -0.03603(13)
H9F H 0.3061 1.4822 -0.0560
C18F C 0.27969(17) 1.3849(2) -0.02854(15)
H10F H 0.2978 1.3486 -0.0426
C19F C 0.24588(14) 1.3563(2) 0.00089(13)
C20F C 0.22028(16) 1.4090(2) 0.02099(14)
H11F H 0.1980 1.3905 0.0391
C21F C 0.22532(13) 1.4897(2) 0.01621(12)
H12F H 0.2073 1.5249 0.0312
C22A C -0.20127(16) 0.4964(2) 0.36686(14)
H13A H -0.1728 0.4787 0.3907
H14A H -0.2022 0.4694 0.3367
H15A H -0.2312 0.4851 0.3780
C23A C -0.23639(15) 0.6276(2) 0.30098(14)
H16A H -0.2558 0.5827 0.2870
H17A H -0.2163 0.6456 0.2791
H18A H -0.2583 0.6695 0.3063
C24A C -0.05280(14) 0.5948(2) 0.45281(13)
H19A H -0.0480 0.5385 0.4562
H20A H -0.0209 0.6207 0.4580
H21A H -0.0715 0.6066 0.4206
C25A C -0.08606(15) 0.54640(19) 0.54022(12)
H22A H -0.0883 0.5656 0.5718
H23A H -0.0553 0.5178 0.5427
H24A H -0.1137 0.5118 0.5280
Ce1A Ce -0.201083(8) 0.732300(11) 0.453896(6)
Ce1F Ce 0.298917(8) 0.767700(11) -0.046104(6)
Ce1G Ce 0.701083(8) 0.767700(11) 0.546104(6)
Ce1A_2 Ce 0.798917(8) 0.732300(11) 0.453896(6)
Ce1_2 Ce 0.201083(8) 1.732300(11) 0.046104(6)
Ce1F_2 Ce 0.298917(8) 1.767700(11) -0.046104(6)
N1A N 0.00523(14) 0.8148(2) 0.27491(12)
N2A N 0.52496(13) 0.7510(2) 0.25082(13)
N3F N 0.23547(12) 1.27989(16) 0.00526(11)
O1A O -0.18378(10) 0.77446(14) 0.37397(9)
O2A O -0.11996(10) 0.77642(15) 0.43656(9)
O3A O 0.66145(10) 0.74610(14) 0.46481(8)
O3F O 0.16145(10) 0.75390(14) -0.03519(8)
O3G O -0.16145(10) 0.75390(14) 0.53519(8)
O4A O 0.71640(10) 0.75288(12) 0.41380(9)
O4A_2 O -0.28360(10) 0.75288(12) 0.41380(9)
O5F O 0.24678(9) 1.64972(14) 0.00286(9)
O5F_2 O 0.24678(9) 0.64972(14) 0.00286(9)
O5G O -0.24678(9) 0.64972(14) 0.49714(9)
O6F O 0.29780(9) 1.62284(13) -0.04606(7)
O6A O -0.20220(9) 0.87716(13) 0.45394(7)
O7A O -0.22312(9) 0.62727(13) 0.39755(8)
O8A O -0.14023(9) 0.62724(14) 0.47366(9)
S1A S -0.19673(4) 0.59967(5) 0.35802(3)
S2A S -0.08762(3) 0.63056(5) 0.49852(3)
C26 C 0.30769(17) 0.4108(3) 0.22445(16)
H25 H 0.3234 0.4552 0.2429
H26 H 0.3045 0.4211 0.1903
H27 H 0.3277 0.3642 0.2334
C27 C 0.23255(17) 0.2954(3) 0.24733(14)
H28 H 0.2288 0.2684 0.2167
H29 H 0.2039 0.2852 0.2608
H30 H 0.2620 0.2765 0.2693
O9 O 0.23338(11) 0.42973(16) 0.28823(10)
S3 S 0.23765(4) 0.39321(6) 0.23883(4)
C28 C 0.60978(17) 0.0895(3) 0.66939(14)
H31 H 0.6177 0.0434 0.6525
H32 H 0.6401 0.1144 0.6861
H33 H 0.5909 0.1260 0.6464
C29 C 0.50030(17) 0.0656(3) 0.69086(16)
H34 H 0.4862 0.1019 0.7105
H35 H 0.4857 0.0141 0.6920
H36 H 0.4937 0.0840 0.6578
O10 O 0.57869(10) -0.02585(15) 0.72111(8)
S4 S 0.57123(4) 0.05899(6) 0.71547(4)
C30 C 0.38562(17) 0.5870(3) 0.37536(15)
H37 H 0.3504 0.5766 0.3668
H38 H 0.3913 0.6429 0.3731
H39 H 0.3987 0.5695 0.4081
C31 C 0.49302(16) 0.5602(3) 0.33626(15)
H40 H 0.5074 0.5231 0.3174
H41 H 0.5108 0.5580 0.3696
H42 H 0.4953 0.6127 0.3238
O11 O 0.38568(11) 0.56396(16) 0.28527(9)
S5 S 0.41817(4) 0.53140(5) 0.33191(3)
O12 O 0.3988(3) 0.1177(4) 0.1627(3)
H43 H 0.3821 0.1607 0.1592
H44 H 0.3940 0.0933 0.1880
O13 O 0.4356(3) 0.1400(4) 0.1145(2)
H45 H 0.4270 0.1608 0.0863
H46 H 0.4485 0.1753 0.1350
O14 O 0.1409(3) 0.7485(4) 0.4291(3)
H47 H 0.1501 0.7877 0.4138
H48 H 0.1104 0.7383 0.4175
O15 O 0.1756(3) 0.5677(4) 0.8953(3)
H49 H 0.1681 0.5493 0.9212
H50 H 0.1499 0.5673 0.8723
O16 O 0.4884(3) 0.3889(4) 0.4886(2)
H51 H 0.5160 0.3694 0.4849
H52 H 0.4924 0.4117 0.5163
O17 O 0.6366(3) 0.5522(4) 0.8583(3)
H53 H 0.6449 0.5106 0.8753
H54 H 0.6146 0.5775 0.8696
O18 O 0.2274(3) 0.3645(4) 0.8164(2)
H55 H 0.2188 0.3681 0.8440
H56 H 0.2089 0.3946 0.7959
O19 O 0.2448(4) 0.2422(6) 0.8622(3)
H57 H 0.2172 0.2193 0.8626
H58 H 0.2603 0.2510 0.8914
O20 O 0.0722(3) 0.0288(5) 0.4743(3)
H59 H 0.0707 -0.0216 0.4739
H60 H 0.0429 0.0478 0.4657
O21 O 0.4085(3) 0.8198(5) 0.4491(3)
H61 H 0.3871 0.8169 0.4223
H62 H 0.3942 0.8350 0.4718
O22 O 0.4531(4) 0.7200(5) 0.4504(4)
H63 H 0.4752 0.7204 0.4768
H64 H 0.4350 0.6789 0.4497
loop_
_geom_bond_atom_site_label_1
_geom_bond_atom_site_label_2
_geom_bond_site_symmetry_1
_geom_bond_site_symmetry_2
C1 C2 1_555 1_555
C2 C3 1_555 1_555
C3 H1 1_555 1_555
C4 C3 1_555 1_555
H2 C4 1_555 1_555
C5 C4 1_555 1_555
C6 C5 1_555 1_555
H3 C6 1_555 1_555
C7 C2 1_555 1_555
H4 C7 1_555 1_555
C8 C9 1_555 1_555
C9 C10 1_555 1_555
C10 H5 1_555 1_555
C11 C10 1_555 1_555
H6 C11 1_555 1_555
C12 C11 1_555 1_555
C13 C12 1_555 1_555
H7 C13 1_555 1_555
C14 C9 1_555 1_555
H8 C14 1_555 1_555
C15 C16 1_555 1_555
C16 C17 1_555 1_555
C17 H9 1_555 1_555
C18 C17 1_555 1_555
H10 C18 1_555 1_555
C19 C18 1_555 1_555
C20 C19 1_555 1_555
H11 C20 1_555 1_555
C21 C16 1_555 1_555
H12 C21 1_555 1_555
C22 H13 1_555 1_555
H14 C22 1_555 1_555
H15 C22 1_555 1_555
C23 H16 1_555 1_555
H17 C23 1_555 1_555
H18 C23 1_555 1_555
C24 H19 1_555 1_555
H20 C24 1_555 1_555
H21 C24 1_555 1_555
C25 H22 1_555 1_555
H23 C25 1_555 1_555
H24 C25 1_555 1_555
C26 H25 1_555 1_555
H26 C26 1_555 1_555
H27 C26 1_555 1_555
C27 H28 1_555 1_555
H29 C27 1_555 1_555
H30 C27 1_555 1_555
C28 H31 1_555 1_555
H32 C28 1_555 1_555
H33 C28 1_555 1_555
C29 H34 1_555 1_555
H35 C29 1_555 1_555
H36 C29 1_555 1_555
C30 H37 1_555 1_555
H38 C30 1_555 1_555
H39 C30 1_555 1_555
C31 H40 1_555 1_555
H41 C31 1_555 1_555
H42 C31 1_555 1_555
Ce1 O1 1_555 1_555
N1 C5 1_555 1_555
N2 C12 1_555 1_555
N3 C19 1_555 1_555
O1 C1 1_555 1_555
O2 C1 1_555 1_555
O3 C8 1_555 1_555
O4 C8 1_555 1_555
O5 C15 1_555 1_555
O6 C15 1_555 1_555
O7 Ce1 1_555 1_555
O8 Ce1 1_555 1_555
O9 S3 1_555 1_555
O10 S4 1_555 1_555
O11 S5 1_555 1_555
O12 H43 1_555 1_555
H44 O12 1_555 1_555
O13 H45 1_555 1_555
H46 O13 1_555 1_555
O14 H47 1_555 1_555
H48 O14 1_555 1_555
O15 H49 1_555 1_555
H50 O15 1_555 1_555
O16 H51 1_555 1_555
H52 O16 1_555 1_555
O17 H53 1_555 1_555
H54 O17 1_555 1_555
O18 H55 1_555 1_555
H56 O18 1_555 1_555
O19 H57 1_555 1_555
H58 O19 1_555 1_555
O20 H59 1_555 1_555
H60 O20 1_555 1_555
O21 H61 1_555 1_555
H62 O21 1_555 1_555
O22 H63 1_555 1_555
H64 O22 1_555 1_555
S1 C22 1_555 1_555
S2 C24 1_555 1_555
S3 C26 1_555 1_555
S4 C28 1_555 1_555
S5 C30 1_555 1_555
C1A C2A 1_555 1_555
C2A C3A 1_555 1_555
C3A H1A 1_555 1_555
C4A C3A 1_555 1_555
H2A C4A 1_555 1_555
C5A C4A 1_555 1_555
C6A C5A 1_555 1_555
H3A C6A 1_555 1_555
C7A C2A 1_555 1_555
H4A C7A 1_555 1_555
C8A C9A 1_555 1_555
C9A C10A 1_555 1_555
C10A H5A 1_555 1_555
C11A C10A 1_555 1_555
H6A C11A 1_555 1_555
C12A C11A 1_555 1_555
C13A C12A 1_555 1_555
H7A C13A 1_555 1_555
C14A C9A 1_555 1_555
H8A C14A 1_555 1_555
C15F C16F 1_555 1_555
C16F C17F 1_555 1_555
C17F H9F 1_555 1_555
C18F C17F 1_555 1_555
H10F C18F 1_555 1_555
C19F C18F 1_555 1_555
C20F C19F 1_555 1_555
H11F C20F 1_555 1_555
C21F C16F 1_555 1_555
H12F C21F 1_555 1_555
C22A H13A 1_555 1_555
H14A C22A 1_555 1_555
H15A C22A 1_555 1_555
C23A H16A 1_555 1_555
H17A C23A 1_555 1_555
H18A C23A 1_555 1_555
C24A H19A 1_555 1_555
H20A C24A 1_555 1_555
H21A C24A 1_555 1_555
C25A H22A 1_555 1_555
H23A C25A 1_555 1_555
H24A C25A 1_555 1_555
Ce1A O1A 1_555 1_555
Ce1F O3 1_555 1_555
Ce1G O3A 1_555 1_555
Ce1A_2 O4A 1_555 1_555
Ce1_2 O5F 1_555 1_555
Ce1F_2 O6F 1_555 1_555
N1A N1 1_555 1_555
N2A N2 1_555 1_555
N3F N3 1_555 1_555
O1A C1A 1_555 1_555
O2A C1A 1_555 1_555
O3A C8A 1_555 1_555
O3F Ce1 1_555 1_555
O3G Ce1A 1_555 1_555
O4A C8A 1_555 1_555
O4A_2 Ce1A 1_555 1_555
O5F C15F 1_555 1_555
O5F_2 Ce1 1_555 1_555
O5G Ce1A 1_555 1_555
O6F C15F 1_555 1_555
O6A Ce1A 1_555 1_555
O7A Ce1A 1_555 1_555
O8A Ce1A 1_555 1_555
S1A C22A 1_555 1_555
S2A C24A 1_555 1_555
C6 C7 1_555 1_555
C13 C14 1_555 1_555
C20 C21 1_555 1_555
C23 S1 1_555 1_555
C25 S2 1_555 1_555
C27 S3 1_555 1_555
C29 S4 1_555 1_555
C31 S5 1_555 1_555
Ce1 O2 1_555 1_555
Ce1 O4 1_555 1_555
Ce1 O6 1_555 1_555
O5 Ce1F 1_555 1_555
O7 S1 1_555 1_555
O8 S2 1_555 1_555
C5A N1A 1_555 1_555
C6A C7A 1_555 1_555
C12A N2A 1_555 1_555
C13A C14A 1_555 1_555
C19F N3F 1_555 1_555
C20F C21F 1_555 1_555
C23A S1A 1_555 1_555
C25A S2A 1_555 1_555
Ce1A O2A 1_555 1_555
O7A S1A 1_555 1_555
O8A S2A 1_555 1_555

#END
