
#######################################################################
#
#                 Cambridge Crystallographic Data Centre
#                                CCDC 
#
#######################################################################
#
# If this CIF has been generated from an entry in the Cambridge 
# Structural Database, then it will include bibliographic, chemical, 
# crystal, experimental, refinement or atomic coordinate data resulting 
# from the CCDC's data processing and validation procedures.
#
#######################################################################

data_ALULAV
_chemical_formula_moiety         '(C56 H88 Gd2 N6 O30 S7)n'
_symmetry_cell_setting           monoclinic
_symmetry_space_group_name_H-M   'C 2/c'
_symmetry_Int_Tables_number      15
_space_group_name_Hall           '-C 2yc'
loop_
_symmetry_equiv_pos_site_id
_symmetry_equiv_pos_as_xyz
1 x,y,z
2 -x,y,1/2-z
3 1/2+x,1/2+y,z
4 1/2-x,1/2+y,1/2-z
5 -x,-y,-z
6 x,-y,1/2+z
7 1/2-x,1/2-y,-z
8 1/2+x,1/2-y,1/2+z
_cell_length_a                   27.367(3)
_cell_length_b                   16.8285(15)
_cell_length_c                   27.915(3)
_cell_angle_alpha                90
_cell_angle_beta                 101.892(2)
_cell_angle_gamma                90
_cell_volume                     12580.2
loop_
_atom_site_label
_atom_site_type_symbol
_atom_site_fract_x
_atom_site_fract_y
_atom_site_fract_z
C1 C 0.1393(2) 0.7842(3) 0.10989(19)
C2 C 0.1015(2) 0.8057(3) 0.13883(19)
C3 C 0.1174(2) 0.7956(3) 0.18990(18)
H1 H 0.1507 0.7844 0.2035
C4 C 0.0826(2) 0.8027(3) 0.21964(17)
H2 H 0.0929 0.8006 0.2535
C5 C 0.0327(2) 0.8128(3) 0.1988(2)
C6 C 0.0155(2) 0.8155(3) 0.14743(19)
H3 H -0.0180 0.8232 0.1335
C7 C 0.0506(2) 0.8063(3) 0.11911(18)
H4 H 0.0399 0.8002 0.0855
C8 C 0.1727(2) 0.7514(2) -0.07695(18)
C9 C 0.1345(2) 0.7525(3) -0.12284(19)
C10 C 0.0847(2) 0.7521(3) -0.12051(18)
H5 H 0.0762 0.7514 -0.0899
C11 C 0.0473(2) 0.7525(3) -0.1612(2)
H6 H 0.0140 0.7526 -0.1586
C12 C 0.0599(2) 0.7528(3) -0.2046(2)
C13 C 0.1094(2) 0.7509(3) -0.21140(19)
H7 H 0.1166 0.7494 -0.2425
C14 C 0.1480(2) 0.7513(3) -0.16835(18)
H8 H 0.1815 0.7507 -0.1706
C15 C 0.2675(2) 0.6028(3) -0.01904(19)
C16 C 0.25874(19) 0.5182(3) -0.01249(18)
C17 C 0.2855(2) 0.4646(3) -0.03582(18)
H9 H 0.3065 0.4827 -0.0557
C18 C 0.2797(2) 0.3846(3) -0.0285(2)
H10 H 0.2979 0.3483 -0.0429
C19 C 0.24597(19) 0.3563(3) 0.00101(18)
C20 C 0.2200(2) 0.4092(3) 0.02116(19)
H11 H 0.1974 0.3907 0.0393
C21 C 0.22526(18) 0.4900(3) 0.01614(17)
H12 H 0.2072 0.5253 0.0313
C22 C 0.2012(2) 0.4967(3) 0.13322(19)
H13 H 0.1732 0.4791 0.1089
H14 H 0.2013 0.4696 0.1635
H15 H 0.2316 0.4851 0.1225
C23 C 0.2366(2) 0.6278(3) 0.19914(19)
H16 H 0.2556 0.5825 0.2132
H17 H 0.2165 0.6467 0.2212
H18 H 0.2589 0.6691 0.1935
C24 C 0.05287(19) 0.5947(3) 0.04709(19)
H19 H 0.0474 0.5386 0.0431
H20 H 0.0213 0.6216 0.0425
H21 H 0.0718 0.6053 0.0794
C25 C 0.0861(2) 0.5462(3) -0.04024(17)
H22 H 0.0900 0.5650 -0.0717
H23 H 0.0547 0.5191 -0.0436
H24 H 0.1128 0.5102 -0.0273
Gd1 Gd 0.201080(9) 0.732346(14) 0.046113(8)
N1 N -0.00546(19) 0.8147(3) 0.22522(17)
N2 N 0.02516(18) 0.7489(3) -0.24905(18)
N3 N 0.23573(16) 0.2800(2) 0.00515(15)
O1 O 0.18386(13) 0.77429(19) 0.12606(12)
O2 O 0.11995(14) 0.7765(2) 0.06349(13)
O3 O 0.16152(14) 0.75385(19) -0.03506(12)
O4 O 0.21639(13) 0.74730(17) -0.08599(12)
O5 O 0.24668(13) 0.6496(2) 0.00289(12)
O6 O 0.29794(12) 0.62266(19) -0.04616(11)
O7 O 0.22327(13) 0.62736(18) 0.10235(11)
O8 O 0.14020(12) 0.6275(2) 0.02639(12)
S1 S 0.19677(5) 0.59975(7) 0.14195(5)
S2 S 0.08768(5) 0.63060(7) 0.00151(5)
C1A C -0.1393(2) 0.7842(3) 0.39011(19)
C2A C -0.1015(2) 0.8057(3) 0.36117(19)
C3A C -0.1174(2) 0.7956(3) 0.31010(18)
H1A H -0.1507 0.7844 0.2965
C4A C -0.0826(2) 0.8027(3) 0.28036(17)
H2A H -0.0929 0.8006 0.2465
C5A C -0.0327(2) 0.8128(3) 0.3012(2)
C6A C -0.0155(2) 0.8155(3) 0.35257(19)
H3A H 0.0180 0.8232 0.3665
C7A C -0.0506(2) 0.8063(3) 0.38089(18)
H4A H -0.0399 0.8002 0.4145
C8A C -0.1727(2) 0.7514(2) -0.42305(18)
C9A C -0.1345(2) 0.7525(3) -0.37716(19)
C10A C -0.0847(2) 0.7521(3) -0.37949(18)
H5A H -0.0762 0.7514 -0.4101
C11A C -0.0473(2) 0.7525(3) -0.3388(2)
H6A H -0.0140 0.7526 -0.3414
C12A C -0.0599(2) 0.7528(3) -0.2954(2)
C13A C -0.1094(2) 0.7509(3) -0.28860(19)
H7A H -0.1166 0.7494 -0.2575
C14A C -0.1480(2) 0.7513(3) -0.33165(18)
H8A H -0.1815 0.7507 -0.3294
C15F C 0.2325(2) -0.1028(3) 0.01904(19)
C16F C 0.24126(19) -0.0182(3) 0.01249(18)
C17F C 0.2145(2) 0.0354(3) 0.03582(18)
H9F H 0.1935 0.0173 0.0557
C18F C 0.2203(2) 0.1154(3) 0.0285(2)
H10F H 0.2021 0.1517 0.0429
C19F C 0.25403(19) 0.1437(3) -0.00101(18)
C20F C 0.2800(2) 0.0908(3) -0.02116(19)
H11F H 0.3026 0.1093 -0.0393
C21F C 0.27474(18) 0.0100(3) -0.01614(17)
H12F H 0.2928 -0.0253 -0.0313
C22A C -0.2012(2) 0.4967(3) 0.36678(19)
H13A H -0.1732 0.4791 0.3911
H14A H -0.2013 0.4696 0.3365
H15A H -0.2316 0.4851 0.3775
C23A C -0.2366(2) 0.6278(3) 0.30086(19)
H16A H -0.2556 0.5825 0.2868
H17A H -0.2165 0.6467 0.2788
H18A H -0.2589 0.6691 0.3065
C24A C -0.05287(19) 0.5947(3) 0.45291(19)
H19A H -0.0474 0.5386 0.4569
H20A H -0.0213 0.6216 0.4575
H21A H -0.0718 0.6053 0.4206
C25A C -0.0861(2) 0.5462(3) 0.54024(17)
H22A H -0.0900 0.5650 0.5717
H23A H -0.0547 0.5191 0.5436
H24A H -0.1128 0.5102 0.5273
Gd1A Gd -0.201080(9) 0.732346(14) 0.453887(8)
Gd1F Gd 0.298920(9) 0.767654(14) -0.046113(8)
Gd1A_2 Gd -0.201080(9) 0.732346(14) -0.546113(8)
Gd1G Gd -0.298920(9) 0.767654(14) -0.453887(8)
Gd1F_2 Gd 0.298920(9) -0.232346(14) -0.046113(8)
Gd1_2 Gd 0.201080(9) -0.267654(14) 0.046113(8)
N1A N 0.00546(19) 0.8147(3) 0.27478(17)
N2A N -0.02516(18) 0.7489(3) -0.25095(18)
N3F N 0.26427(16) 0.2200(2) -0.00515(15)
O1A O -0.18386(13) 0.77429(19) 0.37394(12)
O2A O -0.11995(14) 0.7765(2) 0.43651(13)
O3A O -0.16152(14) 0.75385(19) -0.46494(12)
O3A_2 O -0.16152(14) 0.75385(19) 0.53506(12)
O4A O -0.21639(13) 0.74730(17) -0.41401(12)
O4F O 0.28361(13) 0.75270(17) 0.08599(12)
O4G O -0.28361(13) 0.75270(17) 0.41401(12)
O5F O 0.25332(13) -0.1496(2) -0.00289(12)
O5A O -0.24668(13) 0.6496(2) 0.49711(12)
O6F O 0.20206(12) -0.12266(19) 0.04616(11)
O6F_2 O 0.20206(12) 0.87734(19) 0.04616(11)
O6G O -0.20206(12) 0.87734(19) 0.45384(11)
O7A O -0.22327(13) 0.62736(18) 0.39765(11)
O8A O -0.14020(12) 0.6275(2) 0.47361(12)
S1A S -0.19677(5) 0.59975(7) 0.35805(5)
S2A S -0.08768(5) 0.63060(7) 0.49849(5)
C26 C 0.3077(2) 0.4108(4) 0.2244(2)
H25 H 0.3236 0.4546 0.2435
H26 H 0.3048 0.4224 0.1902
H27 H 0.3274 0.3637 0.2326
C27 C 0.2326(2) 0.2956(3) 0.2477(2)
H28 H 0.2291 0.2683 0.2170
H29 H 0.2039 0.2855 0.2615
H30 H 0.2621 0.2769 0.2698
O9 O 0.23348(14) 0.4295(2) 0.28801(13)
S3 S 0.23766(6) 0.39316(9) 0.23881(5)
C28 C 0.6098(2) 0.0895(4) 0.6693(2)
H31 H 0.6178 0.0434 0.6522
H32 H 0.6401 0.1144 0.6860
H33 H 0.5911 0.1263 0.6463
C29 C 0.5002(2) 0.0655(4) 0.6910(2)
H34 H 0.4859 0.1019 0.7108
H35 H 0.4856 0.0139 0.6923
H36 H 0.4937 0.0839 0.6578
O10 O 0.57872(13) -0.0262(2) 0.72116(11)
S4 S 0.57126(6) 0.05901(8) 0.71547(5)
C30 C 0.3855(2) 0.5868(3) 0.3753(2)
H37 H 0.3504 0.5749 0.3675
H38 H 0.3903 0.6429 0.3722
H39 H 0.3991 0.5705 0.4084
C31 C 0.4933(2) 0.5604(4) 0.3363(2)
H40 H 0.5081 0.5227 0.3177
H41 H 0.5107 0.5589 0.3699
H42 H 0.4957 0.6128 0.3234
O11 O 0.38569(14) 0.5641(2) 0.28524(13)
S5 S 0.41815(5) 0.53143(8) 0.33195(4)
O12 O 0.3987(3) 0.1179(5) 0.1629(3)
H43 H 0.3820 0.1608 0.1595
H44 H 0.3939 0.0935 0.1882
O13 O 0.4360(4) 0.1398(6) 0.1144(3)
H45 H 0.4274 0.1606 0.0862
H46 H 0.4489 0.1751 0.1349
O14 O 0.1412(4) 0.7488(6) 0.4291(4)
H47 H 0.1504 0.7879 0.4138
H48 H 0.1107 0.7385 0.4175
O15 O 0.1754(4) 0.5673(5) 0.8960(4)
H49 H 0.1679 0.5490 0.9220
H50 H 0.1496 0.5670 0.8730
O16 O 0.4880(4) 0.3887(6) 0.4884(3)
H51 H 0.5157 0.3693 0.4847
H52 H 0.4921 0.4115 0.5161
O17 O 0.6365(4) 0.5522(5) 0.8589(4)
H53 H 0.6447 0.5106 0.8759
H54 H 0.6144 0.5775 0.8702
O18 O 0.2275(4) 0.3640(6) 0.8165(3)
H55 H 0.2189 0.3676 0.8440
H56 H 0.2090 0.3941 0.7959
O19 O 0.2449(5) 0.2430(8) 0.8620(5)
H57 H 0.2173 0.2201 0.8624
H58 H 0.2603 0.2518 0.8912
O20 O 0.0718(4) 0.0290(7) 0.4738(4)
H59 H 0.0703 -0.0215 0.4734
H60 H 0.0425 0.0480 0.4652
O21 O 0.4086(4) 0.8199(7) 0.4483(4)
H61 H 0.3872 0.8170 0.4215
H62 H 0.3943 0.8351 0.4710
O22 O 0.4528(5) 0.7207(7) 0.4503(5)
H63 H 0.4748 0.7211 0.4767
H64 H 0.4346 0.6796 0.4496
loop_
_geom_bond_atom_site_label_1
_geom_bond_atom_site_label_2
_geom_bond_site_symmetry_1
_geom_bond_site_symmetry_2
C1 C2 1_555 1_555
C2 C3 1_555 1_555
C3 H1 1_555 1_555
C4 C3 1_555 1_555
H2 C4 1_555 1_555
C5 C4 1_555 1_555
C6 C5 1_555 1_555
H3 C6 1_555 1_555
C7 C2 1_555 1_555
H4 C7 1_555 1_555
C8 C9 1_555 1_555
C9 C10 1_555 1_555
C10 H5 1_555 1_555
C11 C10 1_555 1_555
H6 C11 1_555 1_555
C12 C11 1_555 1_555
C13 C12 1_555 1_555
H7 C13 1_555 1_555
C14 C9 1_555 1_555
H8 C14 1_555 1_555
C15 C16 1_555 1_555
C16 C17 1_555 1_555
C17 H9 1_555 1_555
C18 C17 1_555 1_555
H10 C18 1_555 1_555
C19 C18 1_555 1_555
C20 C19 1_555 1_555
H11 C20 1_555 1_555
C21 C16 1_555 1_555
H12 C21 1_555 1_555
C22 H13 1_555 1_555
H14 C22 1_555 1_555
H15 C22 1_555 1_555
C23 H16 1_555 1_555
H17 C23 1_555 1_555
H18 C23 1_555 1_555
C24 H19 1_555 1_555
H20 C24 1_555 1_555
H21 C24 1_555 1_555
C25 H22 1_555 1_555
H23 C25 1_555 1_555
H24 C25 1_555 1_555
C26 H25 1_555 1_555
H26 C26 1_555 1_555
H27 C26 1_555 1_555
C27 H28 1_555 1_555
H29 C27 1_555 1_555
H30 C27 1_555 1_555
C28 H31 1_555 1_555
H32 C28 1_555 1_555
H33 C28 1_555 1_555
C29 H34 1_555 1_555
H35 C29 1_555 1_555
H36 C29 1_555 1_555
C30 H37 1_555 1_555
H38 C30 1_555 1_555
H39 C30 1_555 1_555
C31 H40 1_555 1_555
H41 C31 1_555 1_555
H42 C31 1_555 1_555
Gd1 O1 1_555 1_555
N1 C5 1_555 1_555
N2 C12 1_555 1_555
N3 C19 1_555 1_555
O1 C1 1_555 1_555
O2 C1 1_555 1_555
O3 C8 1_555 1_555
O4 C8 1_555 1_555
O5 C15 1_555 1_555
O6 C15 1_555 1_555
O7 Gd1 1_555 1_555
O8 Gd1 1_555 1_555
O9 S3 1_555 1_555
O10 S4 1_555 1_555
O11 S5 1_555 1_555
O12 H43 1_555 1_555
H44 O12 1_555 1_555
O13 H45 1_555 1_555
H46 O13 1_555 1_555
O14 H47 1_555 1_555
H48 O14 1_555 1_555
O15 H49 1_555 1_555
H50 O15 1_555 1_555
O16 H51 1_555 1_555
H52 O16 1_555 1_555
O17 H53 1_555 1_555
H54 O17 1_555 1_555
O18 H55 1_555 1_555
H56 O18 1_555 1_555
O19 H57 1_555 1_555
H58 O19 1_555 1_555
O20 H59 1_555 1_555
H60 O20 1_555 1_555
O21 H61 1_555 1_555
H62 O21 1_555 1_555
O22 H63 1_555 1_555
H64 O22 1_555 1_555
S1 C22 1_555 1_555
S2 C24 1_555 1_555
S3 C26 1_555 1_555
S4 C28 1_555 1_555
S5 C30 1_555 1_555
C1A C2A 1_555 1_555
C2A C3A 1_555 1_555
C3A H1A 1_555 1_555
C4A C3A 1_555 1_555
H2A C4A 1_555 1_555
C5A C4A 1_555 1_555
C6A C5A 1_555 1_555
H3A C6A 1_555 1_555
C7A C2A 1_555 1_555
H4A C7A 1_555 1_555
C8A C9A 1_555 1_555
C9A C10A 1_555 1_555
C10A H5A 1_555 1_555
C11A C10A 1_555 1_555
H6A C11A 1_555 1_555
C12A C11A 1_555 1_555
C13A C12A 1_555 1_555
H7A C13A 1_555 1_555
C14A C9A 1_555 1_555
H8A C14A 1_555 1_555
C15F C16F 1_555 1_555
C16F C17F 1_555 1_555
C17F H9F 1_555 1_555
C18F C17F 1_555 1_555
H10F C18F 1_555 1_555
C19F C18F 1_555 1_555
C20F C19F 1_555 1_555
H11F C20F 1_555 1_555
C21F C16F 1_555 1_555
H12F C21F 1_555 1_555
C22A H13A 1_555 1_555
H14A C22A 1_555 1_555
H15A C22A 1_555 1_555
C23A H16A 1_555 1_555
H17A C23A 1_555 1_555
H18A C23A 1_555 1_555
C24A H19A 1_555 1_555
H20A C24A 1_555 1_555
H21A C24A 1_555 1_555
C25A H22A 1_555 1_555
H23A C25A 1_555 1_555
H24A C25A 1_555 1_555
Gd1A O1A 1_555 1_555
Gd1F O4 1_555 1_555
Gd1A_2 O3A 1_555 1_555
Gd1G O4A 1_555 1_555
Gd1F_2 O5F 1_555 1_555
Gd1_2 O6F 1_555 1_555
N1A N1 1_555 1_555
N2A N2 1_555 1_555
N3F N3 1_555 1_555
O1A C1A 1_555 1_555
O2A C1A 1_555 1_555
O3A C8A 1_555 1_555
O3A_2 Gd1A 1_555 1_555
O4A C8A 1_555 1_555
O4F Gd1 1_555 1_555
O4G Gd1A 1_555 1_555
O5F C15F 1_555 1_555
O5A Gd1A 1_555 1_555
O6F C15F 1_555 1_555
O6F_2 Gd1 1_555 1_555
O6G Gd1A 1_555 1_555
O7A Gd1A 1_555 1_555
O8A Gd1A 1_555 1_555
S1A C22A 1_555 1_555
S2A C24A 1_555 1_555
C6 C7 1_555 1_555
C13 C14 1_555 1_555
C20 C21 1_555 1_555
C23 S1 1_555 1_555
C25 S2 1_555 1_555
C27 S3 1_555 1_555
C29 S4 1_555 1_555
C31 S5 1_555 1_555
Gd1 O2 1_555 1_555
Gd1 O3 1_555 1_555
Gd1 O5 1_555 1_555
O6 Gd1F 1_555 1_555
O7 S1 1_555 1_555
O8 S2 1_555 1_555
C5A N1A 1_555 1_555
C6A C7A 1_555 1_555
C12A N2A 1_555 1_555
C13A C14A 1_555 1_555
C19F N3F 1_555 1_555
C20F C21F 1_555 1_555
C23A S1A 1_555 1_555
C25A S2A 1_555 1_555
Gd1A O2A 1_555 1_555
O7A S1A 1_555 1_555
O8A S2A 1_555 1_555

#END
