
#######################################################################
#
#                 Cambridge Crystallographic Data Centre
#                                CCDC 
#
#######################################################################
#
# If this CIF has been generated from an entry in the Cambridge 
# Structural Database, then it will include bibliographic, chemical, 
# crystal, experimental, refinement or atomic coordinate data resulting 
# from the CCDC's data processing and validation procedures.
#
#######################################################################

data_PIWSEV
_chemical_formula_moiety         '(C112 H105 N4 O28 Zn6)n'
_symmetry_cell_setting           monoclinic
_symmetry_space_group_name_H-M   'P 21/m'
_symmetry_Int_Tables_number      11
_space_group_name_Hall           '-P 2yb'
loop_
_symmetry_equiv_pos_site_id
_symmetry_equiv_pos_as_xyz
1 x,y,z
2 -x,1/2+y,-z
3 -x,-y,-z
4 x,1/2-y,z
_cell_length_a                   16.304(2)
_cell_length_b                   27.649(3)
_cell_length_c                   16.4078(19)
_cell_angle_alpha                90
_cell_angle_beta                 117.320(2)
_cell_angle_gamma                90
_cell_volume                     6571.44
loop_
_atom_site_label
_atom_site_type_symbol
_atom_site_fract_x
_atom_site_fract_y
_atom_site_fract_z
Zn1 Zn 1.05511(5) 0.52822(4) 0.81119(5)
O1 O 0.9323(3) 0.6157(2) 0.7557(4)
O2 O 0.9275(4) 0.5361(2) 0.7351(4)
O3 O 0.1084(4) 0.5472(2) -0.0627(3)
O4 O 0.0989(5) 0.6271(2) -0.0619(4)
O5 O 0.1346(4) 0.5301(3) 0.7537(4)
O6 O 0.1268(8) 0.6076(3) 0.7552(7)
N1 N 1.0613(4) 0.4549(2) 0.8313(4)
C1 C 0.2304(5) 0.5336(3) 0.6508(5)
H1 H 0.2162 0.5026 0.6658
C2 C 0.2976(4) 0.5820(3) 0.5738(4)
C3 C 0.4443(4) 0.5828(3) 0.5622(4)
C4 C 0.2999(5) 0.5875(2) 0.4221(4)
C5 C 0.4438(5) 0.5813(2) 0.4137(5)
C6 C 0.4977(5) 0.5798(3) 0.6662(5)
H2 H 0.5113 0.6125 0.6920
H3 H 0.5557 0.5623 0.6836
H4 H 0.4606 0.5626 0.6900
C7 C 0.3481(5) 0.5840(2) 0.5181(4)
C8 C 0.2703(5) 0.5453(3) 0.2195(5)
H5 H 0.2905 0.5155 0.2513
C9 C 1.0722(5) 0.3021(3) 0.8629(5)
C10 C 0.4926(4) 0.5824(3) 0.5093(4)
C11 C 0.6432(5) 0.5404(3) 0.5654(5)
H6 H 0.6109 0.5117 0.5363
C12 C 0.4954(5) 0.5773(3) 0.3563(5)
H7 H 0.5586 0.5892 0.3920
H8 H 0.4637 0.5968 0.3005
H9 H 0.4970 0.5434 0.3396
C13 C 0.7397(5) 0.6218(3) 0.6536(5)
H10 H 0.7720 0.6504 0.6834
C14 C 0.5941(5) 0.5813(3) 0.5571(5)
C15 C 0.1956(4) 0.5927(3) 0.3756(4)
H11 H 0.1716 0.5818 0.4174
H12 H 0.1688 0.5729 0.3198
H13 H 0.1790 0.6267 0.3595
C16 C 0.7873(5) 0.5796(3) 0.6622(5)
C17 C 0.2942(4) 0.5877(3) 0.2687(4)
C18 C 0.3482(4) 0.5848(2) 0.3703(4)
C19 C 0.2042(5) 0.5746(3) 0.6800(5)
C20 C 0.8901(5) 0.5770(4) 0.7235(5)
C21 C 0.2778(5) 0.5378(3) 0.5993(5)
H14 H 0.2972 0.5092 0.5810
C22 C 0.1872(5) 0.5891(3) 0.0785(5)
C23 C 1.0690(5) 0.3533(3) 0.8541(5)
C24 C 0.6432(5) 0.6227(3) 0.6009(5)
H15 H 0.6109 0.6522 0.5949
C25 C 0.2699(6) 0.6215(3) 0.6014(5)
H16 H 0.2833 0.6525 0.5856
C26 C 0.2166(5) 0.5447(3) 0.1230(5)
H17 H 0.2012 0.5152 0.0897
C27 C 0.2656(5) 0.6302(3) 0.2211(5)
H18 H 0.2832 0.6599 0.2536
C28 C 1.1126(6) 0.4268(4) 0.8046(6)
H19 H 1.1473 0.4420 0.7785
C29 C 0.9966(4) 0.2751(3) 0.8574(5)
H20 H 0.9439 0.2918 0.8535
C30 C 0.2120(5) 0.6312(3) 0.1273(5)
H21 H 0.1923 0.6613 0.0965
C31 C 0.1517(6) 0.5706(4) 0.7339(5)
C32 C 0.7403(5) 0.5387(3) 0.6155(5)
H22 H 0.7729 0.5099 0.6172
C33 C 1.0154(5) 0.4311(3) 0.8712(5)
H23 H 0.9792 0.4497 0.8915
C34 C 0.2216(6) 0.6179(3) 0.6531(6)
H24 H 0.2006 0.6466 0.6696
C35 C 0.1277(5) 0.5881(3) -0.0239(5)
C36 C 1.0187(5) 0.3822(3) 0.8835(5)
H25 H 0.9860 0.3679 0.9126
C37 C 1.1485(5) 0.2753(3) 0.8725(5)
H26 H 1.2022 0.2920 0.8792
C38 C 1.1169(6) 0.3773(4) 0.8135(6)
H27 H 1.1527 0.3592 0.7920
Zn2 Zn 0.97827(11) 0.67473(7) 0.84629(12)
N2 N 0.7581(6) 0.6432(4) 0.8998(5)
C39 C 0.8106(9) 0.6793(6) 0.8822(9)
H28 H 0.7996 0.7128 0.8689
C40 C 0.6803(8) 0.6660(5) 0.9040(9)
H29 H 0.6765 0.6548 0.9588
H30 H 0.6233 0.6573 0.8492
H31 H 0.6882 0.7012 0.9067
O7 O 0.8843(7) 0.6490(4) 0.8909(6)
C41 C 0.7695(10) 0.5902(4) 0.9026(8)
O8 O 1.0295(5) 0.7274(2) 0.9358(5)
O9 O 1.0626(8) 0.6906(4) 0.7877(8)
O10 O 0.8763(8) 0.7232(3) 0.7571(8)
N1C N 1.0613(4) 0.0451(2) 0.8313(4)
C9C C 1.0722(5) 0.1979(3) 0.8629(5)
C23C C 1.0690(5) 0.1467(3) 0.8541(5)
C28C C 1.1126(6) 0.0732(4) 0.8046(6)
H19C H 1.1473 0.0580 0.7785
C29C C 0.9966(4) 0.2249(3) 0.8574(5)
H20C H 0.9439 0.2082 0.8535
C33C C 1.0154(5) 0.0689(3) 0.8712(5)
H23C H 0.9792 0.0503 0.8915
C36C C 1.0187(5) 0.1178(3) 0.8835(5)
H25C H 0.9860 0.1321 0.9126
C37C C 1.1485(5) 0.2247(3) 0.8725(5)
H26C H 1.2022 0.2080 0.8792
C38C C 1.1169(6) 0.1227(4) 0.8135(6)
H27C H 1.1527 0.1408 0.7920
Zn1C Zn 1.05511(5) -0.02822(4) 0.81119(5)
O1C O 0.9323(3) -0.1157(2) 0.7557(4)
O2C O 0.9275(4) -0.0361(2) 0.7351(4)
O3C O 0.1084(4) -0.0472(2) -0.0627(3)
O4C O 0.0989(5) -0.1271(2) -0.0619(4)
O5C O 0.1346(4) -0.0301(3) 0.7537(4)
O6C O 0.1268(8) -0.1076(3) 0.7552(7)
C1C C 0.2304(5) -0.0336(3) 0.6508(5)
H1C H 0.2162 -0.0026 0.6658
C2C C 0.2976(4) -0.0820(3) 0.5738(4)
C3C C 0.4443(4) -0.0828(3) 0.5622(4)
C4C C 0.2999(5) -0.0875(2) 0.4221(4)
C5C C 0.4438(5) -0.0813(2) 0.4137(5)
C6C C 0.4977(5) -0.0798(3) 0.6662(5)
H2C H 0.5113 -0.1125 0.6920
H3C H 0.5557 -0.0623 0.6836
H4C H 0.4606 -0.0626 0.6900
C7C C 0.3481(5) -0.0840(2) 0.5181(4)
C8C C 0.2703(5) -0.0453(3) 0.2195(5)
H5C H 0.2905 -0.0155 0.2513
C10C C 0.4926(4) -0.0824(3) 0.5093(4)
C11C C 0.6432(5) -0.0404(3) 0.5654(5)
H6C H 0.6109 -0.0117 0.5363
C12C C 0.4954(5) -0.0773(3) 0.3563(5)
H7C H 0.5586 -0.0892 0.3920
H8C H 0.4637 -0.0968 0.3005
H9C H 0.4970 -0.0434 0.3396
C13C C 0.7397(5) -0.1218(3) 0.6536(5)
H10C H 0.7720 -0.1504 0.6834
C14C C 0.5941(5) -0.0813(3) 0.5571(5)
C15C C 0.1956(4) -0.0927(3) 0.3756(4)
H11C H 0.1716 -0.0818 0.4174
H12C H 0.1688 -0.0729 0.3198
H13C H 0.1790 -0.1267 0.3595
C16C C 0.7873(5) -0.0796(3) 0.6622(5)
C17C C 0.2942(4) -0.0877(3) 0.2687(4)
C18C C 0.3482(4) -0.0848(2) 0.3703(4)
C19C C 0.2042(5) -0.0746(3) 0.6800(5)
C20C C 0.8901(5) -0.0770(4) 0.7235(5)
C21C C 0.2778(5) -0.0378(3) 0.5993(5)
H14C H 0.2972 -0.0092 0.5810
C22C C 0.1872(5) -0.0891(3) 0.0785(5)
C24C C 0.6432(5) -0.1227(3) 0.6009(5)
H15C H 0.6109 -0.1522 0.5949
C25C C 0.2699(6) -0.1215(3) 0.6014(5)
H16C H 0.2833 -0.1525 0.5856
C26C C 0.2166(5) -0.0447(3) 0.1230(5)
H17C H 0.2012 -0.0152 0.0897
C27C C 0.2656(5) -0.1302(3) 0.2211(5)
H18C H 0.2832 -0.1599 0.2536
C30C C 0.2120(5) -0.1312(3) 0.1273(5)
H21C H 0.1923 -0.1613 0.0965
C31C C 0.1517(6) -0.0706(4) 0.7339(5)
C32C C 0.7403(5) -0.0387(3) 0.6155(5)
H22C H 0.7729 -0.0099 0.6172
C34C C 0.2216(6) -0.1179(3) 0.6531(6)
H24C H 0.2006 -0.1466 0.6696
C35C C 0.1277(5) -0.0881(3) -0.0239(5)
Zn2C Zn 0.97827(11) -0.17473(7) 0.84629(12)
N2C N 0.7581(6) -0.1432(4) 0.8998(5)
C39C C 0.8106(9) -0.1793(6) 0.8822(9)
H28C H 0.7996 -0.2128 0.8689
C40C C 0.6803(8) -0.1660(5) 0.9040(9)
H29C H 0.6765 -0.1548 0.9588
H30C H 0.6233 -0.1573 0.8492
H31C H 0.6882 -0.2012 0.9067
O7C O 0.8843(7) -0.1490(4) 0.8909(6)
C41C C 0.7695(10) -0.0902(4) 0.9026(8)
O8C O 1.0295(5) -0.2274(2) 0.9358(5)
O9C O 1.0626(8) -0.1906(4) 0.7877(8)
O10C O 0.8763(8) -0.2232(3) 0.7571(8)
Zn1_2 Zn 0.05511(5) 0.52822(4) -0.18881(5)
Zn1_3 Zn 0.05511(5) 0.52822(4) 0.81119(5)
Zn1C_2 Zn 0.05511(5) -0.02822(4) -0.18881(5)
Zn1C_3 Zn 0.05511(5) -0.02822(4) 0.81119(5)
O3_2 O 1.1084(4) 0.5472(2) 0.9373(3)
O3C_2 O 1.1084(4) -0.0472(2) 0.9373(3)
O4_2 O 1.0989(5) 0.6271(2) 0.9381(4)
O4C_2 O 1.0989(5) -0.1271(2) 0.9381(4)
O5_2 O 1.1346(4) 0.5301(3) 0.7537(4)
O5C_2 O 1.1346(4) -0.0301(3) 0.7537(4)
Zn2_2 Zn -0.02173(11) 0.67473(7) -0.15371(12)
Zn2C_2 Zn -0.02173(11) -0.17473(7) -0.15371(12)
Zn3 Zn 0.35414(5) 0.31205(3) -0.22745(5)
O11 O 0.4126(4) 0.2900(2) -0.1028(3)
O12 O 0.4188(4) 0.2096(2) 0.7045(4)
O13 O 1.2263(3) 0.20922(19) 0.7097(3)
O14 O 0.3462(6) 0.3891(3) -0.2289(6)
H32 H 0.3485 0.4098 -0.1787
H33 H 0.3392 0.4113 -0.2793
C42 C 0.5899(6) 0.2500 0.5292(6)
C43 C 0.5976(6) 0.2500 0.3798(6)
C44 C 0.5991(6) 0.2500 0.2289(6)
C45 C 0.7397(6) 0.2500 0.5229(6)
C46 C 0.6439(6) 0.2500 0.4758(6)
C47 C 0.6501(6) 0.2500 0.3315(6)
C48 C 0.7460(6) 0.2500 0.3784(6)
C49 C 0.7910(6) 0.2500 0.4752(6)
C50 C 0.8937(6) 0.2500 0.5259(6)
C51 C 1.0848(6) 0.2500 0.6322(6)
C52 C 0.9431(5) 0.2072(3) 0.5518(5)
H34 H 0.9117 0.1771 0.5325
C53 C 0.5637(5) 0.2936(3) 0.5544(5)
H35 H 0.5784 0.3235 0.5356
C54 C 1.1872(7) 0.2500 0.6880(6)
C55 C 0.4936(6) 0.2500 0.0400(6)
C56 C 0.4376(7) 0.2500 -0.0625(7)
C57 C 1.0370(5) 0.2077(3) 0.6052(5)
H36 H 1.0694 0.1779 0.6237
C58 C 0.7889(7) 0.2500 0.6267(6)
C59 C 0.5193(5) 0.2065(3) 0.0860(5)
H37 H 0.5011 0.1768 0.0535
C60 C 0.7990(6) 0.2500 0.3233(6)
C61 C 0.5722(5) 0.2069(3) 0.1807(5)
H38 H 0.5903 0.1771 0.2130
C62 C 0.5165(5) 0.2935(3) 0.6066(5)
H39 H 0.5012 0.3232 0.6254
C63 C 0.4946(6) 0.2500 0.3308(7)
C64 C 0.4921(6) 0.2500 0.6309(6)
C65 C 0.4389(7) 0.2500 0.6841(7)
O11C O 0.4126(4) 0.2100(2) -0.1028(3)
O12C O 0.4188(4) 0.2904(2) 0.7045(4)
O13C O 1.2263(3) 0.29078(19) 0.7097(3)
C52C C 0.9431(5) 0.2928(3) 0.5518(5)
H34C H 0.9117 0.3229 0.5325
C53C C 0.5637(5) 0.2064(3) 0.5544(5)
H35C H 0.5784 0.1765 0.5356
C57C C 1.0370(5) 0.2923(3) 0.6052(5)
H36C H 1.0694 0.3221 0.6237
C59C C 0.5193(5) 0.2935(3) 0.0860(5)
H37C H 0.5011 0.3232 0.0535
C61C C 0.5722(5) 0.2931(3) 0.1807(5)
H38C H 0.5903 0.3229 0.2130
C62C C 0.5165(5) 0.2065(3) 0.6066(5)
H39C H 0.5012 0.1768 0.6254
Zn3C Zn 0.35414(5) 0.18795(3) -0.22745(5)
O14C O 0.3462(6) 0.1109(3) -0.2289(6)
H32C H 0.3485 0.0902 -0.1787
H33C H 0.3392 0.0887 -0.2793
Zn3_2 Zn 0.35414(5) 0.31205(3) 0.77255(5)
Zn3_3 Zn 1.35414(5) 0.31205(3) 0.77255(5)
Zn3C_2 Zn 0.35414(5) 0.18795(3) 0.77255(5)
Zn3C_3 Zn 1.35414(5) 0.18795(3) 0.77255(5)
O12_2 O 0.4188(4) 0.2096(2) -0.2955(4)
O12C_2 O 0.4188(4) 0.2904(2) -0.2955(4)
O13_2 O 0.2263(3) 0.20922(19) -0.2903(3)
O13C_2 O 0.2263(3) 0.29078(19) -0.2903(3)
loop_
_geom_bond_atom_site_label_1
_geom_bond_atom_site_label_2
_geom_bond_site_symmetry_1
_geom_bond_site_symmetry_2
Zn1 O2 1_555 1_555
O1 C20 1_555 1_555
O2 C20 1_555 1_555
O3 C35 1_555 1_555
O4 C35 1_555 1_555
O5 C31 1_555 1_555
O6 C31 1_555 1_555
N1 Zn1 1_555 1_555
C1 H1 1_555 1_555
C2 C7 1_555 1_555
C3 C6 1_555 1_555
C4 C7 1_555 1_555
C5 C10 1_555 1_555
C6 H2 1_555 1_555
H3 C6 1_555 1_555
H4 C6 1_555 1_555
C7 C3 1_555 1_555
C8 H5 1_555 1_555
C9 C23 1_555 1_555
C10 C3 1_555 1_555
C11 H6 1_555 1_555
C12 C5 1_555 1_555
H7 C12 1_555 1_555
H8 C12 1_555 1_555
H9 C12 1_555 1_555
C13 H10 1_555 1_555
C14 C10 1_555 1_555
C15 C4 1_555 1_555
H11 C15 1_555 1_555
H12 C15 1_555 1_555
H13 C15 1_555 1_555
C16 C13 1_555 1_555
C17 C8 1_555 1_555
C18 C4 1_555 1_555
C19 C1 1_555 1_555
C20 C16 1_555 1_555
C21 C1 1_555 1_555
H14 C21 1_555 1_555
C22 C26 1_555 1_555
C23 C36 1_555 1_555
C24 C13 1_555 1_555
H15 C24 1_555 1_555
C25 C2 1_555 1_555
H16 C25 1_555 1_555
C26 C8 1_555 1_555
H17 C26 1_555 1_555
C27 C17 1_555 1_555
H18 C27 1_555 1_555
C28 N1 1_555 1_555
H19 C28 1_555 1_555
C29 C9 1_555 1_555
H20 C29 1_555 1_555
C30 C22 1_555 1_555
H21 C30 1_555 1_555
C31 C19 1_555 1_555
C32 C11 1_555 1_555
H22 C32 1_555 1_555
C33 N1 1_555 1_555
H23 C33 1_555 1_555
C34 C19 1_555 1_555
H24 C34 1_555 1_555
C35 C22 1_555 1_555
C36 C33 1_555 1_555
H25 C36 1_555 1_555
C37 C9 1_555 1_555
H26 C37 1_555 1_555
C38 C23 1_555 1_555
H27 C38 1_555 1_555
Zn2 O1 1_555 1_555
N2 C39 1_555 1_555
C39 H28 1_555 1_555
C40 N2 1_555 1_555
H29 C40 1_555 1_555
H30 C40 1_555 1_555
H31 C40 1_555 1_555
O7 Zn2 1_555 1_555
C41 N2 1_555 1_555
O8 Zn2 1_555 1_555
O9 Zn2 1_555 1_555
O10 Zn2 1_555 1_555
Zn3 O11 1_555 1_555
O11 C56 1_555 1_555
O12 C65 1_555 1_555
O13 C54 1_555 1_555
O14 Zn3 1_555 1_555
H32 O14 1_555 1_555
H33 O14 1_555 1_555
C42 C46 1_555 1_555
C43 C46 1_555 1_555
C44 C47 1_555 1_555
C45 C46 1_555 1_555
C47 C43 1_555 1_555
C48 C47 1_555 1_555
C49 C45 1_555 1_555
C50 C49 1_555 1_555
C51 C54 1_555 1_555
C52 C50 1_555 1_555
H34 C52 1_555 1_555
C53 C42 1_555 1_555
H35 C53 1_555 1_555
C54 O13C 1_555 1_555
C55 C56 1_555 1_555
C56 O11C 1_555 1_555
C57 C51 1_555 1_555
H36 C57 1_555 1_555
C58 C45 1_555 1_555
C59 C55 1_555 1_555
H37 C59 1_555 1_555
C60 C48 1_555 1_555
C61 C44 1_555 1_555
H38 C61 1_555 1_555
C62 C53 1_555 1_555
H39 C62 1_555 1_555
C63 C43 1_555 1_555
C64 C62 1_555 1_555
C65 C64 1_555 1_555
N1C C28C 1_555 1_555
C9C C23C 1_555 1_555
C23C C36C 1_555 1_555
C28C H19C 1_555 1_555
C29C C29 1_555 1_555
H20C C29C 1_555 1_555
C33C N1C 1_555 1_555
H23C C33C 1_555 1_555
C36C C33C 1_555 1_555
H25C C36C 1_555 1_555
C37C C37 1_555 1_555
H26C C37C 1_555 1_555
C38C C23C 1_555 1_555
H27C C38C 1_555 1_555
Zn1C N1C 1_555 1_555
O1C C20C 1_555 1_555
O2C Zn1C 1_555 1_555
O3C C35C 1_555 1_555
O4C C35C 1_555 1_555
O5C C31C 1_555 1_555
O6C C31C 1_555 1_555
C1C H1C 1_555 1_555
C2C C7C 1_555 1_555
C3C C6C 1_555 1_555
C4C C7C 1_555 1_555
C5C C10C 1_555 1_555
C6C H2C 1_555 1_555
H3C C6C 1_555 1_555
H4C C6C 1_555 1_555
C7C C3C 1_555 1_555
C8C H5C 1_555 1_555
C10C C3C 1_555 1_555
C11C H6C 1_555 1_555
C12C C5C 1_555 1_555
H7C C12C 1_555 1_555
H8C C12C 1_555 1_555
H9C C12C 1_555 1_555
C13C H10C 1_555 1_555
C14C C10C 1_555 1_555
C15C C4C 1_555 1_555
H11C C15C 1_555 1_555
H12C C15C 1_555 1_555
H13C C15C 1_555 1_555
C16C C13C 1_555 1_555
C17C C8C 1_555 1_555
C18C C4C 1_555 1_555
C19C C1C 1_555 1_555
C20C O2C 1_555 1_555
C21C C1C 1_555 1_555
H14C C21C 1_555 1_555
C22C C26C 1_555 1_555
C24C C13C 1_555 1_555
H15C C24C 1_555 1_555
C25C C2C 1_555 1_555
H16C C25C 1_555 1_555
C26C C8C 1_555 1_555
H17C C26C 1_555 1_555
C27C C17C 1_555 1_555
H18C C27C 1_555 1_555
C30C C22C 1_555 1_555
H21C C30C 1_555 1_555
C31C C19C 1_555 1_555
C32C C11C 1_555 1_555
H22C C32C 1_555 1_555
C34C C19C 1_555 1_555
H24C C34C 1_555 1_555
C35C C22C 1_555 1_555
Zn2C O1C 1_555 1_555
N2C C39C 1_555 1_555
C39C H28C 1_555 1_555
C40C N2C 1_555 1_555
H29C C40C 1_555 1_555
H30C C40C 1_555 1_555
H31C C40C 1_555 1_555
O7C Zn2C 1_555 1_555
C41C N2C 1_555 1_555
O8C Zn2C 1_555 1_555
O9C Zn2C 1_555 1_555
O10C Zn2C 1_555 1_555
Zn1_2 O3 1_555 1_555
Zn1_3 O5 1_555 1_555
Zn1C_2 O3C 1_555 1_555
Zn1C_3 O5C 1_555 1_555
O3_2 Zn1 1_555 1_555
O3C_2 Zn1C 1_555 1_555
O4_2 Zn2 1_555 1_555
O4C_2 Zn2C 1_555 1_555
O5_2 Zn1 1_555 1_555
O5C_2 Zn1C 1_555 1_555
Zn2_2 O4 1_555 1_555
Zn2C_2 O4C 1_555 1_555
O11C Zn3C 1_555 1_555
O12C C65 1_555 1_555
O13C Zn3_3 1_555 1_555
C52C C50 1_555 1_555
H34C C52C 1_555 1_555
C53C C42 1_555 1_555
H35C C53C 1_555 1_555
C57C C51 1_555 1_555
H36C C57C 1_555 1_555
C59C C55 1_555 1_555
H37C C59C 1_555 1_555
C61C C44 1_555 1_555
H38C C61C 1_555 1_555
C62C C64 1_555 1_555
H39C C62C 1_555 1_555
Zn3C O14C 1_555 1_555
O14C H32C 1_555 1_555
H33C O14C 1_555 1_555
Zn3_2 O12C 1_555 1_555
Zn3C_2 O12 1_555 1_555
Zn3C_3 O13 1_555 1_555
O12_2 Zn3C 1_555 1_555
O12C_2 Zn3 1_555 1_555
O13_2 Zn3C 1_555 1_555
O13C_2 Zn3 1_555 1_555
C2 C21 1_555 1_555
C5 C18 1_555 1_555
C11 C14 1_555 1_555
C14 C24 1_555 1_555
C16 C32 1_555 1_555
C17 C18 1_555 1_555
C25 C34 1_555 1_555
C27 C30 1_555 1_555
C28 C38 1_555 1_555
C39 O7 1_555 1_555
C48 C49 1_555 1_555
C52 C57 1_555 1_555
C59 C61 1_555 1_555
C9C C29C 1_555 1_555
C9C C37C 1_555 1_555
C28C C38C 1_555 1_555
C2C C21C 1_555 1_555
C5C C18C 1_555 1_555
C11C C14C 1_555 1_555
C14C C24C 1_555 1_555
C16C C20C 1_555 1_555
C16C C32C 1_555 1_555
C17C C18C 1_555 1_555
C25C C34C 1_555 1_555
C27C C30C 1_555 1_555
C39C O7C 1_555 1_555
C52C C57C 1_555 1_555
C53C C62C 1_555 1_555
C59C C61C 1_555 1_555

#END
