
#######################################################################
#
#                 Cambridge Crystallographic Data Centre
#                                CCDC 
#
#######################################################################
#
# If this CIF has been generated from an entry in the Cambridge 
# Structural Database, then it will include bibliographic, chemical, 
# crystal, experimental, refinement or atomic coordinate data resulting 
# from the CCDC's data processing and validation procedures.
#
#######################################################################

data_IYEPUZ
_chemical_formula_moiety         '(C84 H66 Mn5 N6 O28)n'
_symmetry_cell_setting           monoclinic
_symmetry_space_group_name_H-M   'P 21/c'
_symmetry_Int_Tables_number      14
_space_group_name_Hall           '-P 2ybc'
loop_
_symmetry_equiv_pos_site_id
_symmetry_equiv_pos_as_xyz
1 x,y,z
2 -x,1/2+y,1/2-z
3 -x,-y,-z
4 x,1/2-y,1/2+z
_cell_length_a                   10.3144(7)
_cell_length_b                   16.810(3)
_cell_length_c                   44.985(4)
_cell_angle_alpha                90
_cell_angle_beta                 101.869(7)
_cell_angle_gamma                90
_cell_volume                     7632.97
loop_
_atom_site_label
_atom_site_type_symbol
_atom_site_fract_x
_atom_site_fract_y
_atom_site_fract_z
Mn1 Mn 0.0000 0.0000 0.0000
Mn2 Mn 1.10432(6) 0.00427(6) -0.188348(17)
Mn3 Mn 0.29609(9) 0.09160(7) -0.24241(2)
C1 C -0.2519(5) 0.0945(4) 0.00149(12)
C2 C -0.3389(6) 0.1512(4) -0.01539(14)
H1 H -0.4128 0.1735 -0.0097
C3 C -0.2963(6) 0.1669(4) -0.04070(13)
H2 H -0.3348 0.2017 -0.0561
C4 C -0.1772(5) 0.1189(4) -0.03979(12)
C5 C -0.1087(5) 0.1151(4) -0.06319(12)
C6 C -0.0001(5) 0.0665(4) -0.06257(11)
C7 C 0.0681(6) 0.0576(4) -0.08753(12)
H3 H 0.0448 0.0813 -0.1066
C8 C 0.1700(6) 0.0093(5) -0.07811(12)
H4 H 0.2333 -0.0049 -0.0892
C9 C 0.1661(5) -0.0172(4) -0.04826(11)
C10 C 0.2567(5) -0.0648(4) -0.03081(13)
C11 C 0.3777(5) -0.0898(5) -0.04372(12)
C12 C 0.4716(5) -0.0329(4) -0.04473(12)
H5 H 0.4649 0.0156 -0.0352
C13 C 0.5772(5) -0.0443(5) -0.05949(14)
H6 H 0.6406 -0.0051 -0.0599
C14 C 0.5815(5) -0.1171(5) -0.07339(14)
C15 C 0.4944(6) -0.1763(5) -0.07171(15)
H7 H 0.5030 -0.2260 -0.0802
C16 C 0.3885(6) -0.1597(5) -0.05643(17)
H8 H 0.3260 -0.1990 -0.0554
C17 C 0.6646(5) -0.0858(4) -0.11728(13)
C18 C 0.5446(5) -0.0604(4) -0.13312(13)
H9 H 0.4691 -0.0704 -0.1254
C19 C 0.5328(5) -0.0209(4) -0.15991(12)
C20 C 0.6482(4) -0.0057(4) -0.17107(12)
H10 H 0.6432 0.0231 -0.1889
C21 C 0.7698(5) -0.0339(4) -0.15533(12)
C22 C 0.7765(5) -0.0724(4) -0.12870(12)
H11 H 0.8581 -0.0900 -0.1179
C23 C 0.8924(5) -0.0162(5) -0.16882(14)
C24 C 0.4009(5) 0.0090(4) -0.17730(13)
C25 C -0.1480(7) 0.1697(5) -0.09002(16)
C26 C -0.2488(8) 0.1498(5) -0.11383(18)
H12 H -0.2969 0.1035 -0.1127
C27 C -0.2798(11) 0.1955(6) -0.1388(2)
H13 H -0.3495 0.1804 -0.1544
C28 C -0.2117(12) 0.2634(8) -0.1419(2)
C29 C -0.1128(12) 0.2863(7) -0.1183(3)
H14 H -0.0669 0.3333 -0.1198
C30 C -0.0785(9) 0.2390(6) -0.0912(2)
H15 H -0.0118 0.2547 -0.0751
C31 C -0.1558(8) 0.3064(6) -0.18786(18)
C32 C -0.1705(7) 0.3677(5) -0.20905(17)
H16 H -0.2262 0.4103 -0.2074
C33 C -0.1039(6) 0.3656(4) -0.23217(16)
C34 C -0.0185(7) 0.3034(4) -0.23357(14)
H17 H 0.0276 0.3009 -0.2493
C35 C -0.0014(6) 0.2449(4) -0.21163(15)
C36 C -0.0683(7) 0.2459(5) -0.18850(17)
H18 H -0.0548 0.2066 -0.1736
C37 C 0.0883(6) 0.1717(5) -0.21328(18)
C38 C -0.1201(8) 0.4300(6) -0.2564(2)
C39 C -0.1362(11) -0.1721(6) -0.0228(3)
C40 C -0.1975(16) -0.3025(9) -0.0227(4)
H19 H -0.2502 -0.3306 -0.0108
H20 H -0.1105 -0.3255 -0.0193
H21 H -0.2383 -0.3064 -0.0438
C41 C -0.0407(9) -0.2040(7) -0.0472(2)
H22 H 0.0019 -0.1592 -0.0543
H23 H -0.0955 -0.2304 -0.0641
H24 H 0.0252 -0.2403 -0.0368
C42 C -0.2756(11) -0.1849(9) 0.0086(3)
H25 H -0.3181 -0.2297 0.0158
H26 H -0.3417 -0.1492 -0.0021
H27 H -0.2221 -0.1577 0.0255
N1 N -0.1517(4) 0.0767(3) -0.01345(10)
N2 N 0.0602(4) 0.0174(3) -0.03922(9)
N3 N -0.1870(13) -0.2141(7) -0.0130(4)
O1 O 1.0023(3) -0.0378(3) -0.15375(8)
O2 O 0.8795(3) 0.0138(3) -0.19358(11)
O3 O 0.4338(8) 0.2008(5) -0.2399(2)
O4 O 0.3990(4) 0.0517(3) -0.19962(10)
O5 O 0.2465(11) 0.1080(6) -0.2929(2)
O6 O 0.3027(3) -0.0138(2) -0.16755(8)
O7 O 0.4458(9) 0.0350(6) -0.2651(2)
O8 O 0.1470(5) 0.1701(3) -0.23546(12)
O9 O 0.1063(4) 0.1260(3) -0.19149(12)
O10 O -0.0773(5) 0.4143(4) -0.27946(13)
O11 O -0.1785(8) 0.4908(4) -0.25120(18)
O12 O 0.6795(3) -0.1301(3) -0.09049(9)
O13 O -0.2312(7) 0.3182(5) -0.16564(14)
O14 O -0.1244(4) -0.1016(4) -0.01994(10)
C1B C 0.2519(5) -0.0945(4) -0.00149(12)
C2B C 0.3389(6) -0.1512(4) 0.01539(14)
H1B H 0.4128 -0.1735 0.0097
C3B C 0.2963(6) -0.1669(4) 0.04070(13)
H2B H 0.3348 -0.2017 0.0561
C4B C 0.1772(5) -0.1189(4) 0.03979(12)
C5B C 0.1087(5) -0.1151(4) 0.06319(12)
C6B C 0.0001(5) -0.0665(4) 0.06257(11)
C7B C -0.0681(6) -0.0576(4) 0.08753(12)
H3B H -0.0448 -0.0813 0.1066
C8B C -0.1700(6) -0.0093(5) 0.07811(12)
H4B H -0.2333 0.0049 0.0892
C9B C -0.1661(5) 0.0172(4) 0.04826(11)
C10B C -0.2567(5) 0.0648(4) 0.03081(13)
C11B C -0.3777(5) 0.0898(5) 0.04372(12)
C12B C -0.4716(5) 0.0329(4) 0.04473(12)
H5B H -0.4649 -0.0156 0.0352
C13B C -0.5772(5) 0.0443(5) 0.05949(14)
H6B H -0.6406 0.0051 0.0599
C14B C -0.5815(5) 0.1171(5) 0.07339(14)
C15B C -0.4944(6) 0.1763(5) 0.07171(15)
H7B H -0.5030 0.2260 0.0802
C16B C -0.3885(6) 0.1597(5) 0.05643(17)
H8B H -0.3260 0.1990 0.0554
C17B C -0.6646(5) 0.0858(4) 0.11728(13)
C18B C -0.5446(5) 0.0604(4) 0.13312(13)
H9B H -0.4691 0.0704 0.1254
C19B C -0.5328(5) 0.0209(4) 0.15991(12)
C20B C -0.6482(4) 0.0057(4) 0.17107(12)
H10B H -0.6432 -0.0231 0.1889
C21B C -0.7698(5) 0.0339(4) 0.15533(12)
C22B C -0.7765(5) 0.0724(4) 0.12870(12)
H11B H -0.8581 0.0900 0.1179
C23B C -0.8924(5) 0.0162(5) 0.16882(14)
C24B C -0.4009(5) -0.0090(4) 0.17730(13)
C25B C 0.1480(7) -0.1697(5) 0.09002(16)
C26B C 0.2488(8) -0.1498(5) 0.11383(18)
H12B H 0.2969 -0.1035 0.1127
C27B C 0.2798(11) -0.1955(6) 0.1388(2)
H13B H 0.3495 -0.1804 0.1544
C28B C 0.2117(12) -0.2634(8) 0.1419(2)
C29B C 0.1128(12) -0.2863(7) 0.1183(3)
H14B H 0.0669 -0.3333 0.1198
C30B C 0.0785(9) -0.2390(6) 0.0912(2)
H15B H 0.0118 -0.2547 0.0751
C31B C 0.1558(8) -0.3064(6) 0.18786(18)
C32B C 0.1705(7) -0.3677(5) 0.20905(17)
H16B H 0.2262 -0.4103 0.2074
C33B C 0.1039(6) -0.3656(4) 0.23217(16)
C34B C 0.0185(7) -0.3034(4) 0.23357(14)
H17B H -0.0276 -0.3009 0.2493
C35B C 0.0014(6) -0.2449(4) 0.21163(15)
C36B C 0.0683(7) -0.2459(5) 0.18850(17)
H18B H 0.0548 -0.2066 0.1736
C37B C -0.0883(6) -0.1717(5) 0.21328(18)
C38B C 0.1201(8) -0.4300(6) 0.2564(2)
N1B N 0.1517(4) -0.0767(3) 0.01345(10)
N2B N -0.0602(4) -0.0174(3) 0.03922(9)
O1B O -1.0023(3) 0.0378(3) 0.15375(8)
O2B O -0.8795(3) -0.0138(3) 0.19358(11)
O4B O -0.3990(4) -0.0517(3) 0.19962(10)
O6B O -0.3027(3) 0.0138(2) 0.16755(8)
O8B O -0.1470(5) -0.1701(3) 0.23546(12)
O9B O -0.1063(4) -0.1260(3) 0.19149(12)
O10B O 0.0773(5) -0.4143(4) 0.27946(13)
O11B O 0.1785(8) -0.4908(4) 0.25120(18)
O12B O -0.6795(3) 0.1301(3) 0.09049(9)
O13B O 0.2312(7) -0.3182(5) 0.16564(14)
Mn2B Mn -1.10432(6) -0.00427(6) 0.188348(17)
Mn3B Mn -0.29609(9) -0.09160(7) 0.24241(2)
C39B C 0.1362(11) 0.1721(6) 0.0228(3)
C40B C 0.1975(16) 0.3025(9) 0.0227(4)
H19B H 0.2502 0.3306 0.0108
H20B H 0.1105 0.3255 0.0193
H21B H 0.2383 0.3064 0.0438
C41B C 0.0407(9) 0.2040(7) 0.0472(2)
H22B H -0.0019 0.1592 0.0543
H23B H 0.0955 0.2304 0.0641
H24B H -0.0252 0.2403 0.0368
C42B C 0.2756(11) 0.1849(9) -0.0086(3)
H25B H 0.3181 0.2297 -0.0158
H26B H 0.3417 0.1492 0.0021
H27B H 0.2221 0.1577 -0.0255
N3B N 0.1870(13) 0.2141(7) 0.0130(4)
O3B O -0.4338(8) -0.2008(5) 0.2399(2)
O5B O -0.2465(11) -0.1080(6) 0.2929(2)
O7B O -0.4458(9) -0.0350(6) 0.2651(2)
O14B O 0.1244(4) 0.1016(4) 0.01994(10)
Mn2_2 Mn 0.10432(6) 0.00427(6) -0.188348(17)
Mn2A Mn -0.10432(6) 0.50427(6) -0.311652(17)
Mn2B_2 Mn -0.10432(6) -0.00427(6) 0.188348(17)
Mn2C Mn 0.10432(6) -0.50427(6) 0.311652(17)
Mn3A Mn -0.29609(9) 0.59160(7) -0.25759(2)
Mn3C Mn 0.29609(9) -0.59160(7) 0.25759(2)
O6_2 O 1.3027(3) -0.0138(2) -0.16755(8)
O6B_2 O -1.3027(3) 0.0138(2) 0.16755(8)
O9_2 O 1.1063(4) 0.1260(3) -0.19149(12)
O9B_2 O -1.1063(4) -0.1260(3) 0.19149(12)
O10A O 1.0773(5) -0.0857(4) -0.22054(13)
O10C O -1.0773(5) 0.0857(4) 0.22054(13)
O11A O 0.1785(8) -0.0092(4) -0.24880(18)
O11C O -0.1785(8) 0.0092(4) 0.24880(18)
loop_
_geom_bond_atom_site_label_1
_geom_bond_atom_site_label_2
_geom_bond_site_symmetry_1
_geom_bond_site_symmetry_2
Mn1 N1 1_555 1_555
Mn2 O1 1_555 1_555
Mn3 O3 1_555 1_555
C1 C2 1_555 1_555
C2 H1 1_555 1_555
C3 C2 1_555 1_555
H2 C3 1_555 1_555
C4 C3 1_555 1_555
C5 C4 1_555 1_555
C6 C5 1_555 1_555
C7 C6 1_555 1_555
H3 C7 1_555 1_555
C8 C7 1_555 1_555
H4 C8 1_555 1_555
C9 C8 1_555 1_555
C10 C9 1_555 1_555
C11 C10 1_555 1_555
C12 C11 1_555 1_555
H5 C12 1_555 1_555
C13 C12 1_555 1_555
H6 C13 1_555 1_555
C14 C13 1_555 1_555
C15 C14 1_555 1_555
H7 C15 1_555 1_555
C16 C11 1_555 1_555
H8 C16 1_555 1_555
C17 C18 1_555 1_555
C18 H9 1_555 1_555
C19 C18 1_555 1_555
C20 C19 1_555 1_555
H10 C20 1_555 1_555
C21 C20 1_555 1_555
C22 C17 1_555 1_555
H11 C22 1_555 1_555
C23 C21 1_555 1_555
C24 C19 1_555 1_555
C25 C5 1_555 1_555
C26 C25 1_555 1_555
H12 C26 1_555 1_555
C27 C26 1_555 1_555
H13 C27 1_555 1_555
C28 C27 1_555 1_555
C29 C28 1_555 1_555
H14 C29 1_555 1_555
C30 C25 1_555 1_555
H15 C30 1_555 1_555
C31 C32 1_555 1_555
C32 H16 1_555 1_555
C33 C32 1_555 1_555
C34 C33 1_555 1_555
H17 C34 1_555 1_555
C35 C34 1_555 1_555
C36 C31 1_555 1_555
H18 C36 1_555 1_555
C37 C35 1_555 1_555
C38 C33 1_555 1_555
C39 C41 1_555 1_555
C40 H19 1_555 1_555
H20 C40 1_555 1_555
H21 C40 1_555 1_555
C41 H22 1_555 1_555
H23 C41 1_555 1_555
H24 C41 1_555 1_555
C42 H25 1_555 1_555
H26 C42 1_555 1_555
H27 C42 1_555 1_555
N1 C1 1_555 1_555
N2 Mn1 1_555 1_555
N3 C39 1_555 1_555
O1 C23 1_555 1_555
O2 Mn2 1_555 1_555
O4 Mn3 1_555 1_555
O5 Mn3 1_555 1_555
O6 C24 1_555 1_555
O7 Mn3 1_555 1_555
O8 Mn3 1_555 1_555
O9 C37 1_555 1_555
O10 C38 1_555 1_555
O11 C38 1_555 1_555
O12 C14 1_555 1_555
O13 C28 1_555 1_555
O14 Mn1 1_555 1_555
C1B C10 1_555 1_555
C2B C1B 1_555 1_555
H1B C2B 1_555 1_555
C3B C2B 1_555 1_555
H2B C3B 1_555 1_555
C4B C3B 1_555 1_555
C5B C4B 1_555 1_555
C6B C5B 1_555 1_555
C7B C6B 1_555 1_555
H3B C7B 1_555 1_555
C8B C7B 1_555 1_555
H4B C8B 1_555 1_555
C9B C8B 1_555 1_555
C10B C1 1_555 1_555
C11B C10B 1_555 1_555
C12B C11B 1_555 1_555
H5B C12B 1_555 1_555
C13B C12B 1_555 1_555
H6B C13B 1_555 1_555
C14B C13B 1_555 1_555
C15B C14B 1_555 1_555
H7B C15B 1_555 1_555
C16B C11B 1_555 1_555
H8B C16B 1_555 1_555
C17B C18B 1_555 1_555
C18B H9B 1_555 1_555
C19B C18B 1_555 1_555
C20B C19B 1_555 1_555
H10B C20B 1_555 1_555
C21B C20B 1_555 1_555
C22B C17B 1_555 1_555
H11B C22B 1_555 1_555
C23B C21B 1_555 1_555
C24B C19B 1_555 1_555
C25B C5B 1_555 1_555
C26B C25B 1_555 1_555
H12B C26B 1_555 1_555
C27B C26B 1_555 1_555
H13B C27B 1_555 1_555
C28B C27B 1_555 1_555
C29B C28B 1_555 1_555
H14B C29B 1_555 1_555
C30B C25B 1_555 1_555
H15B C30B 1_555 1_555
C31B C32B 1_555 1_555
C32B H16B 1_555 1_555
C33B C32B 1_555 1_555
C34B C33B 1_555 1_555
H17B C34B 1_555 1_555
C35B C34B 1_555 1_555
C36B C31B 1_555 1_555
H18B C36B 1_555 1_555
C37B C35B 1_555 1_555
C38B C33B 1_555 1_555
N1B Mn1 1_555 1_555
N2B Mn1 1_555 1_555
O1B C23B 1_555 1_555
O2B C23B 1_555 1_555
O4B C24B 1_555 1_555
O6B C24B 1_555 1_555
O8B C37B 1_555 1_555
O9B C37B 1_555 1_555
O10B C38B 1_555 1_555
O11B C38B 1_555 1_555
O12B C14B 1_555 1_555
O13B C28B 1_555 1_555
Mn2B O1B 1_555 1_555
Mn3B O4B 1_555 1_555
C39B C41B 1_555 1_555
C40B H19B 1_555 1_555
H20B C40B 1_555 1_555
H21B C40B 1_555 1_555
C41B H22B 1_555 1_555
H23B C41B 1_555 1_555
H24B C41B 1_555 1_555
C42B H25B 1_555 1_555
H26B C42B 1_555 1_555
H27B C42B 1_555 1_555
N3B C39B 1_555 1_555
O3B Mn3B 1_555 1_555
O5B Mn3B 1_555 1_555
O7B Mn3B 1_555 1_555
O14B Mn1 1_555 1_555
Mn2_2 O6 1_555 1_555
Mn2A O10 1_555 1_555
Mn2B_2 O6B 1_555 1_555
Mn2C O10B 1_555 1_555
Mn3A O11 1_555 1_555
Mn3C O11B 1_555 1_555
O6_2 Mn2 1_555 1_555
O6B_2 Mn2B 1_555 1_555
O9_2 Mn2 1_555 1_555
O9B_2 Mn2B 1_555 1_555
O10A Mn2 1_555 1_555
O10C Mn2B 1_555 1_555
O11A Mn3 1_555 1_555
O11C Mn3B 1_555 1_555
C4 N1 1_555 1_555
C6 N2 1_555 1_555
C9 N2 1_555 1_555
C15 C16 1_555 1_555
C17 O12 1_555 1_555
C21 C22 1_555 1_555
C23 O2 1_555 1_555
C24 O4 1_555 1_555
C29 C30 1_555 1_555
C31 O13 1_555 1_555
C35 C36 1_555 1_555
C37 O8 1_555 1_555
C39 O14 1_555 1_555
C40 N3 1_555 1_555
C42 N3 1_555 1_555
O9 Mn2_2 1_555 1_555
C1B N1B 1_555 1_555
C4B N1B 1_555 1_555
C6B N2B 1_555 1_555
C9B C10B 1_555 1_555
C9B N2B 1_555 1_555
C15B C16B 1_555 1_555
C17B O12B 1_555 1_555
C21B C22B 1_555 1_555
C29B C30B 1_555 1_555
C31B O13B 1_555 1_555
C35B C36B 1_555 1_555
O2B Mn2B 1_555 1_555
O8B Mn3B 1_555 1_555
O9B Mn2B_2 1_555 1_555
C39B O14B 1_555 1_555
C40B N3B 1_555 1_555
C42B N3B 1_555 1_555

#END
