
#######################################################################
#
#                 Cambridge Crystallographic Data Centre
#                                CCDC 
#
#######################################################################
#
# If this CIF has been generated from an entry in the Cambridge 
# Structural Database, then it will include bibliographic, chemical, 
# crystal, experimental, refinement or atomic coordinate data resulting 
# from the CCDC's data processing and validation procedures.
#
#######################################################################

data_MURCIL
_chemical_formula_moiety         '(C24 H40 Cu3 Dy2 O38)n'
_symmetry_cell_setting           hexagonal
_symmetry_space_group_name_H-M   'P 6/m c c'
_symmetry_Int_Tables_number      192
_space_group_name_Hall           '-P 6 2c'
loop_
_symmetry_equiv_pos_site_id
_symmetry_equiv_pos_as_xyz
1 x,y,z
2 -y,x-y,z
3 -x+y,-x,z
4 y,-x+y,z
5 x-y,x,z
6 y,x,1/2-z
7 x-y,-y,1/2-z
8 -x,-x+y,1/2-z
9 -y,-x,1/2-z
10 -x+y,y,1/2-z
11 x,x-y,1/2-z
12 -x,-y,z
13 -x,-y,-z
14 y,-x+y,-z
15 x-y,x,-z
16 -y,x-y,-z
17 -x+y,-x,-z
18 -y,-x,1/2+z
19 -x+y,y,1/2+z
20 x,x-y,1/2+z
21 y,x,1/2+z
22 x-y,-y,1/2+z
23 -x,-x+y,1/2+z
24 x,y,-z
_cell_length_a                   14.6242(6)
_cell_length_b                   14.6242(6)
_cell_length_c                   15.1870(9)
_cell_angle_alpha                90
_cell_angle_beta                 90
_cell_angle_gamma                120
_cell_volume                     2812.85
loop_
_atom_site_label
_atom_site_type_symbol
_atom_site_fract_x
_atom_site_fract_y
_atom_site_fract_z
O1 O 0.2593(19) 0.184(2) 0.0000
O2 O 1.018(2) 0.861(3) 0.335(3)
Dy1 Dy 0.6667 0.3333 0.2500
Cu1 Cu 1.0000 0.5000 0.5000
O3 O 0.8045(3) 0.4170(3) 0.3556(2)
O4 O 0.9471(3) 0.5574(3) 0.4106(2)
O5 O 0.76387(19) 0.5277(4) 0.2500
C1 C 0.8694(4) 0.5144(4) 0.3609(3)
C2 C 0.8506(4) 0.5873(4) 0.3038(3)
H1 H 0.8377 0.6340 0.3404
H2 H 0.9125 0.6301 0.2680
O6 O 0.8392(4) 0.3211(4) 0.5000
O3I O 0.6125(4) 0.4170(3) 0.1444(2)
O4I O 0.6103(4) 0.5574(3) 0.0894(2)
C1I C 0.6450(6) 0.5144(4) 0.1391(3)
C2I C 0.7367(6) 0.5873(4) 0.1962(3)
H1I H 0.7963 0.6340 0.1596
H2I H 0.7176 0.6301 0.2320
Cu1A Cu 0.5000 0.5000 0.5000
O3A O 0.5830(3) 0.3875(4) 0.3556(2)
O4A O 0.4426(3) 0.3897(4) 0.4106(2)
O5A O 0.4723(4) 0.23617(44) 0.2500
C1A C 0.4856(4) 0.3550(6) 0.3609(3)
C2A C 0.4127(4) 0.2633(6) 0.3038(3)
H1A H 0.3660 0.2037 0.3404
H2A H 0.3699 0.2824 0.2680
O6A O 0.6789(4) 0.5181(6) 0.5000
O3H O 0.5830(3) 0.1955(3) 0.1444(2)
O4H O 0.4426(3) 0.0529(3) 0.0894(2)
C1H C 0.4856(4) 0.1306(4) 0.1391(3)
C2H C 0.4127(4) 0.1494(4) 0.1962(3)
H1H H 0.3660 0.1623 0.1596
H2H H 0.3699 0.0875 0.2320
Cu1B Cu 0.5000 0.0000 0.5000
O3B O 0.6125(4) 0.1955(3) 0.3556(2)
O4B O 0.6103(4) 0.0529(3) 0.4106(2)
O5B O 0.76383(44) 0.23613(19) 0.2500
C1B C 0.6450(6) 0.1306(4) 0.3609(3)
C2B C 0.7367(6) 0.1494(4) 0.3038(3)
H1B H 0.7963 0.1623 0.3404
H2B H 0.7176 0.0875 0.2680
O6B O 0.4819(6) 0.1608(4) 0.5000
O3J O 0.8045(3) 0.3875(4) 0.1444(2)
O4J O 0.9471(3) 0.3897(4) 0.0894(2)
C1J C 0.8694(4) 0.3550(6) 0.1391(3)
C2J C 0.8506(4) 0.2633(6) 0.1962(3)
H1J H 0.8377 0.2037 0.1596
H2J H 0.9125 0.2824 0.2320
Dy1C Dy 0.3333 0.6666 0.2500
O3C O 0.4170(3) 0.6125(4) 0.3556(2)
O4C O 0.5574(3) 0.6103(4) 0.4106(2)
O5C O 0.5277(4) 0.76383(44) 0.2500
C1C C 0.5144(4) 0.6450(6) 0.3609(3)
C2C C 0.5873(4) 0.7367(6) 0.3038(3)
H1C H 0.6340 0.7963 0.3404
H2C H 0.6301 0.7176 0.2680
O6C O 0.3211(4) 0.4819(6) 0.5000
O3E O 0.4170(3) 0.8045(3) 0.1444(2)
O4E O 0.5574(3) 0.9471(3) 0.0894(2)
C1E C 0.5144(4) 0.8694(4) 0.1391(3)
C2E C 0.5873(4) 0.8506(4) 0.1962(3)
H1E H 0.6340 0.8377 0.1596
H2E H 0.6301 0.9125 0.2320
O3D O 0.3875(4) 0.8045(3) 0.3556(2)
O4D O 0.3897(4) 0.9471(3) 0.4106(2)
O5D O 0.23617(44) 0.76387(19) 0.2500
C1D C 0.3550(6) 0.8694(4) 0.3609(3)
C2D C 0.2633(6) 0.8506(4) 0.3038(3)
H1D H 0.2037 0.8377 0.3404
H2D H 0.2824 0.9125 0.2680
O3G O 0.1955(3) 0.6125(4) 0.1444(2)
O4G O 0.0529(3) 0.6103(4) 0.0894(2)
C1G C 0.1306(4) 0.6450(6) 0.1391(3)
C2G C 0.1494(4) 0.7367(6) 0.1962(3)
H1G H 0.1623 0.7963 0.1596
H2G H 0.0875 0.7176 0.2320
O3W O 0.8045(3) 0.4170(3) 0.6444(2)
O4W O 0.9471(3) 0.5574(3) 0.5894(2)
O5R O 0.76383(44) 0.5277(4) 0.7500
C1W C 0.8694(4) 0.5144(4) 0.6391(3)
C2W C 0.8506(4) 0.5873(4) 0.6962(3)
H1W H 0.8377 0.6340 0.6596
H2W H 0.9125 0.6301 0.7320
O3R O 0.6125(4) 0.4170(3) 0.8556(2)
O4R O 0.6103(4) 0.5574(3) 0.9106(2)
C1R C 0.6450(6) 0.5144(4) 0.8609(3)
C2R C 0.7367(6) 0.5873(4) 0.8038(3)
H1R H 0.7963 0.6340 0.8404
H2R H 0.7176 0.6301 0.7680
O6L O 1.1608(4) 0.6789(4) 0.5000
O6D O 0.5181(6) -0.1608(4) 0.5000
Dy1R Dy 0.6666 0.3333 0.7500
Cu1B_2 Cu 0.5000 1.0000 0.5000
Cu1R Cu 0.5000 0.5000 0.0000
Cu1R_2 Cu 0.5000 0.5000 1.0000
Cu1S Cu 0.0000 0.5000 0.0000
Cu1S_2 Cu 1.0000 0.5000 0.0000
Cu1T Cu 0.5000 0.0000 0.0000
Cu1T_2 Cu 0.5000 1.0000 0.0000
O3F O 0.3875(4) 0.5830(3) 0.1444(2)
O3K O 0.1955(3) 0.5830(3) 0.3556(2)
O4D_2 O 0.3897(4) -0.0529(3) 0.4106(2)
O4L O 1.0529(3) 0.4426(3) 0.5894(2)
O4M O 0.5574(3) 0.6103(4) 0.5894(2)
O4N O 0.3897(4) -0.0529(3) 0.5894(2)
O4O O 0.4426(3) 0.3897(4) 0.5894(2)
O4P O 0.6103(4) 0.0529(3) 0.5894(2)
O4K O 1.0529(3) 0.4426(3) 0.4106(2)
O5F O 0.23617(44) 0.4723(4) 0.2500
loop_
_geom_bond_atom_site_label_1
_geom_bond_atom_site_label_2
_geom_bond_site_symmetry_1
_geom_bond_site_symmetry_2
Dy1 O3 1_555 1_555
Cu1 O4 1_555 1_555
O3 C1 1_555 1_555
O4 C1 1_555 1_555
O5 Dy1 1_555 1_555
C1 C2 1_555 1_555
C2 O5 1_555 1_555
H1 C2 1_555 1_555
H2 C2 1_555 1_555
O6 Cu1 1_555 1_555
O3I Dy1 1_555 1_555
O4I C1I 1_555 1_555
C1I O3I 1_555 1_555
C2I O5 1_555 1_555
H1I C2I 1_555 1_555
H2I C2I 1_555 1_555
Cu1A O4A 1_555 1_555
O3A Dy1 1_555 1_555
O4A C1A 1_555 1_555
O5A Dy1 1_555 1_555
C1A O3A 1_555 1_555
C2A O5A 1_555 1_555
H1A C2A 1_555 1_555
H2A C2A 1_555 1_555
O6A Cu1A 1_555 1_555
O3H Dy1 1_555 1_555
O4H C1H 1_555 1_555
C1H O3H 1_555 1_555
C2H O5A 1_555 1_555
H1H C2H 1_555 1_555
H2H C2H 1_555 1_555
Cu1B O4B 1_555 1_555
O3B Dy1 1_555 1_555
O4B C1B 1_555 1_555
O5B Dy1 1_555 1_555
C1B O3B 1_555 1_555
C2B O5B 1_555 1_555
H1B C2B 1_555 1_555
H2B C2B 1_555 1_555
O6B Cu1B 1_555 1_555
O3J Dy1 1_555 1_555
O4J C1J 1_555 1_555
C1J O3J 1_555 1_555
C2J O5B 1_555 1_555
H1J C2J 1_555 1_555
H2J C2J 1_555 1_555
Dy1C O3C 1_555 1_555
O3C C1C 1_555 1_555
O4C Cu1A 1_555 1_555
O5C Dy1C 1_555 1_555
C1C O4C 1_555 1_555
C2C O5C 1_555 1_555
H1C C2C 1_555 1_555
H2C C2C 1_555 1_555
O6C Cu1A 1_555 1_555
O3E Dy1C 1_555 1_555
O4E C1E 1_555 1_555
C1E O3E 1_555 1_555
C2E O5C 1_555 1_555
H1E C2E 1_555 1_555
H2E C2E 1_555 1_555
O3D Dy1C 1_555 1_555
O4D C1D 1_555 1_555
O5D Dy1C 1_555 1_555
C1D O3D 1_555 1_555
C2D O5D 1_555 1_555
H1D C2D 1_555 1_555
H2D C2D 1_555 1_555
O3G Dy1C 1_555 1_555
O4G C1G 1_555 1_555
C1G O3G 1_555 1_555
C2G O5D 1_555 1_555
H1G C2G 1_555 1_555
H2G C2G 1_555 1_555
O3W C1W 1_555 1_555
O4W Cu1 1_555 1_555
O5R C2W 1_555 1_555
C1W O4W 1_555 1_555
C2W C1W 1_555 1_555
H1W C2W 1_555 1_555
H2W C2W 1_555 1_555
O3R C1R 1_555 1_555
O4R C1R 1_555 1_555
C1R C2R 1_555 1_555
C2R O5R 1_555 1_555
H1R C2R 1_555 1_555
H2R C2R 1_555 1_555
O6L Cu1 1_555 1_555
O6D Cu1B 1_555 1_555
Dy1R O3W 1_555 1_555
Cu1B_2 O4D 1_555 1_555
Cu1R O4I 1_555 1_555
Cu1R_2 O4R 1_555 1_555
Cu1S O4G 1_555 1_555
Cu1S_2 O4J 1_555 1_555
Cu1T O4H 1_555 1_555
Cu1T_2 O4E 1_555 1_555
O3F Dy1C 1_555 1_555
O3K Dy1C 1_555 1_555
O4D_2 Cu1B 1_555 1_555
O4L Cu1 1_555 1_555
O4M Cu1A 1_555 1_555
O4N Cu1B 1_555 1_555
O4O Cu1A 1_555 1_555
O4P Cu1B 1_555 1_555
O4K Cu1 1_555 1_555
O5F Dy1C 1_555 1_555
C1I C2I 1_555 1_555
C1A C2A 1_555 1_555
C1H C2H 1_555 1_555
C1B C2B 1_555 1_555
C1J C2J 1_555 1_555
C1C C2C 1_555 1_555
C1E C2E 1_555 1_555
C1D C2D 1_555 1_555
C1G C2G 1_555 1_555
O5R Dy1R 1_555 1_555
O3R Dy1R 1_555 1_555

#END
