
#######################################################################
#
#                 Cambridge Crystallographic Data Centre
#                                CCDC 
#
#######################################################################
#
# If this CIF has been generated from an entry in the Cambridge 
# Structural Database, then it will include bibliographic, chemical, 
# crystal, experimental, refinement or atomic coordinate data resulting 
# from the CCDC's data processing and validation procedures.
#
#######################################################################

data_OWIFAD
_chemical_formula_moiety         'C30 H18 O21 Zn16'
_symmetry_cell_setting           cubic
_symmetry_space_group_name_H-M   'P a -3'
_symmetry_Int_Tables_number      205
_space_group_name_Hall           '-P 2ac 2ab 3'
loop_
_symmetry_equiv_pos_site_id
_symmetry_equiv_pos_as_xyz
1 x,y,z
2 1/2-x,-y,1/2+z
3 -x,1/2+y,1/2-z
4 1/2+x,1/2-y,-z
5 z,x,y
6 1/2+z,1/2-x,-y
7 1/2-z,-x,1/2+y
8 -z,1/2+x,1/2-y
9 y,z,x
10 -y,1/2+z,1/2-x
11 1/2+y,1/2-z,-x
12 1/2-y,-z,1/2+x
13 -x,-y,-z
14 1/2+x,y,1/2-z
15 x,1/2-y,1/2+z
16 1/2-x,1/2+y,z
17 -z,-x,-y
18 1/2-z,1/2+x,y
19 1/2+z,x,1/2-y
20 z,1/2-x,1/2+y
21 -y,-z,-x
22 y,1/2-z,1/2+x
23 1/2-y,1/2+z,x
24 1/2+y,z,1/2-x
_cell_length_a                   21.2832(4)
_cell_length_b                   21.2832(4)
_cell_length_c                   21.2832(4)
_cell_angle_alpha                90
_cell_angle_beta                 90
_cell_angle_gamma                90
_cell_volume                     9640.75
loop_
_atom_site_label
_atom_site_type_symbol
_atom_site_fract_x
_atom_site_fract_y
_atom_site_fract_z
_atom_site_U_iso_or_equiv
_atom_site_thermal_displace_type
Zn1 Zn 0.44414(6) 0.55586(6) 0.05586(6) 0.0888 Uani
O1 O 0.5000 0.5000 0.0000 0.0780 Uani
O2 O 0.4888(4) 0.6227(4) 0.0946(4) 0.1223 Uani
O3 O 0.5882(5) 0.6141(6) 0.0517(7) 0.1530 Uani
C1 C 0.5503(5) 0.6355(4) 0.0837(4) 0.1573 Uani
C2 C 0.5711(4) 0.6907(4) 0.1215(4) 0.1767 Uani
H1 H 0.5498 0.7006 0.1594 0.2120 Uiso
C3 C 0.6158(4) 0.7240(4) 0.1044(4) 0.1667 Uani
H2 H 0.6366 0.7117 0.0669 0.2000 Uiso
C4 C 0.6406(3) 0.7822(3) 0.1371(3) 0.1440 Uani
C5 C 0.6133(3) 0.8072(3) 0.1902(3) 0.1550 Uani
H3 H 0.5773 0.7875 0.2077 0.1860 Uiso
Zn2 Zn 0.53505(6) 0.49751(7) 0.08183(6) 0.0984 Uani
O2E O 0.5946(4) 1.0112(4) 0.3773(4) 0.1223 Uani
O3E O 0.5517(7) 0.9118(5) 0.3859(6) 0.1530 Uani
C1E C 0.5837(4) 0.9497(5) 0.3645(4) 0.1573 Uani
C2E C 0.6215(4) 0.9289(4) 0.3093(4) 0.1767 Uani
H1E H 0.6594 0.9502 0.2994 0.2120 Uiso
C3E C 0.6044(4) 0.8842(4) 0.2760(4) 0.1667 Uani
H2E H 0.5669 0.8634 0.2883 0.2000 Uiso
C4E C 0.6371(3) 0.8594(3) 0.2178(3) 0.1440 Uani
C5E C 0.6902(3) 0.8867(3) 0.1928(3) 0.1550 Uani
H3E H 0.7077 0.9227 0.2125 0.1860 Uiso
O2K O 0.8773(4) 0.9054(4) -0.0112(4) 0.1223 Uani
O3K O 0.8859(6) 0.9483(7) 0.0882(5) 0.1530 Uani
C1K C 0.8645(4) 0.9163(4) 0.0503(5) 0.1573 Uani
C2K C 0.8093(4) 0.8785(4) 0.0711(4) 0.1767 Uani
H1K H 0.7994 0.8406 0.0498 0.2120 Uiso
C3K C 0.7760(4) 0.8956(4) 0.1158(4) 0.1667 Uani
H2K H 0.7883 0.9331 0.1366 0.2000 Uiso
C4K C 0.7178(3) 0.8629(3) 0.1406(3) 0.1440 Uani
C5K C 0.6928(3) 0.8098(3) 0.1133(3) 0.1550 Uani
H3K H 0.7125 0.7923 0.0773 0.1860 Uiso
Zn1L Zn 0.55586(6) 0.44414(6) -0.05586(6) 0.0888 Uani
O2L O 0.5112(4) 0.3773(4) -0.0946(4) 0.1223 Uani
O3L O 0.4118(5) 0.3859(6) -0.0517(7) 0.1530 Uani
C1L C 0.4497(5) 0.3645(4) -0.0837(4) 0.1573 Uani
C2L C 0.4289(4) 0.3093(4) -0.1215(4) 0.1767 Uani
H1L H 0.4502 0.2994 -0.1594 0.2120 Uiso
C3L C 0.3842(4) 0.2760(4) -0.1044(4) 0.1667 Uani
H2L H 0.3634 0.2883 -0.0669 0.2000 Uiso
C4L C 0.3594(3) 0.2178(3) -0.1371(3) 0.1440 Uani
C5L C 0.3867(3) 0.1928(3) -0.1902(3) 0.1550 Uani
H3L H 0.4227 0.2125 -0.2077 0.1860 Uiso
Zn2L Zn 0.46495(6) 0.50249(7) -0.08183(6) 0.0984 Uani
O2Q O 0.4054(4) -0.0112(4) -0.3773(4) 0.1223 Uani
O3Q O 0.4483(7) 0.0882(5) -0.3859(6) 0.1530 Uani
C1Q C 0.4163(4) 0.0503(5) -0.3645(4) 0.1573 Uani
C2Q C 0.3785(4) 0.0711(4) -0.3093(4) 0.1767 Uani
H1Q H 0.3406 0.0498 -0.2994 0.2120 Uiso
C3Q C 0.3956(4) 0.1158(4) -0.2760(4) 0.1667 Uani
H2Q H 0.4331 0.1366 -0.2883 0.2000 Uiso
C4Q C 0.3629(3) 0.1406(3) -0.2178(3) 0.1440 Uani
C5Q C 0.3098(3) 0.1133(3) -0.1928(3) 0.1550 Uani
H3Q H 0.2923 0.0773 -0.2125 0.1860 Uiso
O2W O 0.1227(4) 0.0946(4) 0.0112(4) 0.1223 Uani
O3W O 0.1141(6) 0.0517(7) -0.0882(5) 0.1530 Uani
C1W C 0.1355(4) 0.0837(4) -0.0503(5) 0.1573 Uani
C2W C 0.1907(4) 0.1215(4) -0.0711(4) 0.1767 Uani
H1W H 0.2006 0.1594 -0.0498 0.2120 Uiso
C3W C 0.2240(4) 0.1044(4) -0.1158(4) 0.1667 Uani
H2W H 0.2117 0.0669 -0.1366 0.2000 Uiso
C4W C 0.2822(3) 0.1371(3) -0.1406(3) 0.1440 Uani
C5W C 0.3072(3) 0.1902(3) -0.1133(3) 0.1550 Uani
H3W H 0.2875 0.2077 -0.0773 0.1860 Uiso
Zn2F Zn 0.41817(6) 0.46495(6) -0.00249(7) 0.0984 Uani
Zn2I Zn 0.50249(7) 0.58183(6) -0.03505(6) 0.0984 Uani
Zn2R Zn 0.58183(6) 0.53505(6) 0.00249(7) 0.0984 Uani
Zn2U Zn 0.49751(7) 0.41817(6) 0.03505(6) 0.0984 Uani
Zn1B Zn 0.55586(6) 1.05586(6) 0.44414(6) 0.0888 Uani
Zn1C Zn 0.94414(6) 0.94414(6) -0.05586(6) 0.0888 Uani
Zn1N Zn 0.44414(6) -0.05586(6) -0.44414(6) 0.0888 Uani
Zn1O Zn 0.05586(6) 0.05586(6) 0.05586(6) 0.0888 Uani
O2F O 0.4054(4) 0.5112(4) 0.1227(4) 0.1223 Uani
O2I O 0.3773(4) 0.5946(4) 0.0112(4) 0.1223 Uani
O2R O 0.5946(4) 0.4888(4) -0.1227(4) 0.1223 Uani
O2U O 0.6227(4) 0.4054(4) -0.0112(4) 0.1223 Uani
O3F O 0.4483(7) 0.4118(5) 0.1141(6) 0.1530 Uani
O3I O 0.3859(6) 0.5517(7) -0.0882(5) 0.1530 Uani
O3R O 0.5517(7) 0.5882(5) -0.1141(6) 0.1530 Uani
O3U O 0.6141(6) 0.4483(7) 0.0882(5) 0.1530 Uani
Zn2C Zn 0.03505(6) 0.00249(7) -0.08183(6) 0.0984 Uani
Zn2H Zn 0.49751(7) 0.08183(6) -0.46495(6) 0.0984 Uani
Zn2O Zn 0.96495(6) 0.99751(7) 0.08183(6) 0.0984 Uani
Zn2T Zn 0.50249(7) 0.91817(6) 0.46495(6) 0.0984 Uani
loop_
_atom_site_aniso_label
_atom_site_aniso_U_11
_atom_site_aniso_U_22
_atom_site_aniso_U_33
_atom_site_aniso_U_23
_atom_site_aniso_U_13
_atom_site_aniso_U_12
Zn1 0.0888(8) 0.0888(8) 0.0888(8) 0.0042(7) -0.0042(7) -0.0042(7)
O1 0.078(2) 0.078(2) 0.078(2) 0.019(2) -0.019(2) -0.019(2)
O2 0.122(6) 0.105(6) 0.140(7) -0.030(5) -0.006(5) -0.033(5)
O3 0.118(8) 0.219(13) 0.122(9) -0.094(9) 0.014(7) -0.059(7)
C1 0.196(9) 0.143(7) 0.133(7) -0.033(5) 0.019(7) -0.082(6)
C2 0.181(7) 0.188(7) 0.161(6) -0.069(5) 0.050(5) -0.079(6)
C3 0.152(6) 0.174(6) 0.174(6) -0.069(5) 0.065(5) -0.077(5)
C4 0.139(5) 0.148(5) 0.145(5) -0.066(4) 0.054(4) -0.061(4)
C5 0.156(6) 0.155(6) 0.154(6) -0.072(5) 0.070(5) -0.074(5)
Zn2 0.1086(12) 0.1005(11) 0.0862(11) -0.0011(7) -0.0074(7) -0.0024(8)
O2E 0.14 0.122 0.105 -0.033 0.03 0.006
O3E 0.122 0.118 0.219 -0.059 0.094 -0.014
C1E 0.133 0.196 0.143 -0.082 0.033 -0.019
C2E 0.161 0.181 0.188 -0.079 0.069 -0.05
C3E 0.174 0.152 0.174 -0.077 0.069 -0.065
C4E 0.145 0.139 0.148 -0.061 0.066 -0.054
C5E 0.154 0.156 0.155 -0.074 0.072 -0.07
O2K 0.105 0.14 0.122 0.006 0.033 -0.03
O3K 0.219 0.122 0.118 -0.014 0.059 -0.094
C1K 0.143 0.133 0.196 -0.019 0.082 -0.033
C2K 0.188 0.161 0.181 -0.05 0.079 -0.069
C3K 0.174 0.174 0.152 -0.065 0.077 -0.069
C4K 0.148 0.145 0.139 -0.054 0.061 -0.066
C5K 0.155 0.154 0.156 -0.07 0.074 -0.072
Zn1L 0.0888 0.0888 0.0888 0.0042 -0.0042 -0.0042
O2L 0.122 0.105 0.14 -0.03 -0.006 -0.033
O3L 0.118 0.219 0.122 -0.094 0.014 -0.059
C1L 0.196 0.143 0.133 -0.033 0.019 -0.082
C2L 0.181 0.188 0.161 -0.069 0.05 -0.079
C3L 0.152 0.174 0.174 -0.069 0.065 -0.077
C4L 0.139 0.148 0.145 -0.066 0.054 -0.061
C5L 0.156 0.155 0.154 -0.072 0.07 -0.074
Zn2L 0.1086 0.1005 0.0862 -0.0011 -0.0074 -0.0024
O2Q 0.14 0.122 0.105 -0.033 0.03 0.006
O3Q 0.122 0.118 0.219 -0.059 0.094 -0.014
C1Q 0.133 0.196 0.143 -0.082 0.033 -0.019
C2Q 0.161 0.181 0.188 -0.079 0.069 -0.05
C3Q 0.174 0.152 0.174 -0.077 0.069 -0.065
C4Q 0.145 0.139 0.148 -0.061 0.066 -0.054
C5Q 0.154 0.156 0.155 -0.074 0.072 -0.07
O2W 0.105 0.14 0.122 0.006 0.033 -0.03
O3W 0.219 0.122 0.118 -0.014 0.059 -0.094
C1W 0.143 0.133 0.196 -0.019 0.082 -0.033
C2W 0.188 0.161 0.181 -0.05 0.079 -0.069
C3W 0.174 0.174 0.152 -0.065 0.077 -0.069
C4W 0.148 0.145 0.139 -0.054 0.061 -0.066
C5W 0.155 0.154 0.156 -0.07 0.074 -0.072
Zn2F 0.0862 0.1086 0.1005 0.0024 0.0011 -0.0074
Zn2I 0.1005 0.0862 0.1086 0.0074 -0.0024 0.0011
Zn2R 0.0862 0.1086 0.1005 0.0024 0.0011 -0.0074
Zn2U 0.1005 0.0862 0.1086 0.0074 -0.0024 0.0011
Zn1B 0.0888 0.0888 0.0888 -0.0042 -0.0042 0.0042
Zn1C 0.0888 0.0888 0.0888 0.0042 0.0042 0.0042
Zn1N 0.0888 0.0888 0.0888 -0.0042 -0.0042 0.0042
Zn1O 0.0888 0.0888 0.0888 0.0042 0.0042 0.0042
O2F 0.14 0.122 0.105 0.033 0.03 -0.006
O2I 0.105 0.14 0.122 0.006 -0.033 0.03
O2R 0.14 0.122 0.105 0.033 0.03 -0.006
O2U 0.105 0.14 0.122 0.006 -0.033 0.03
O3F 0.122 0.118 0.219 0.059 0.094 0.014
O3I 0.219 0.122 0.118 -0.014 -0.059 0.094
O3R 0.122 0.118 0.219 0.059 0.094 0.014
O3U 0.219 0.122 0.118 -0.014 -0.059 0.094
Zn2C 0.1086 0.1005 0.0862 -0.0011 0.0074 0.0024
Zn2H 0.1005 0.0862 0.1086 -0.0074 -0.0024 -0.0011
Zn2O 0.1086 0.1005 0.0862 -0.0011 0.0074 0.0024
Zn2T 0.1005 0.0862 0.1086 -0.0074 -0.0024 -0.0011
loop_
_geom_bond_atom_site_label_1
_geom_bond_atom_site_label_2
_geom_bond_site_symmetry_1
_geom_bond_site_symmetry_2
Zn1 O1 1_555 1_555
O1 Zn2 1_555 1_555
O2 Zn1 1_555 1_555
O3 C1 1_555 1_555
C1 O2 1_555 1_555
C2 C1 1_555 1_555
H1 C2 1_555 1_555
C3 C2 1_555 1_555
H2 C3 1_555 1_555
C4 C3 1_555 1_555
C5 C4 1_555 1_555
H3 C5 1_555 1_555
Zn2 O3U 1_555 1_555
O2E C1E 1_555 1_555
O3E C1E 1_555 1_555
C1E C2E 1_555 1_555
C2E H1E 1_555 1_555
C3E C2E 1_555 1_555
H2E C3E 1_555 1_555
C4E C5 1_555 1_555
C5E C4E 1_555 1_555
H3E C5E 1_555 1_555
O2K C1K 1_555 1_555
O3K C1K 1_555 1_555
C1K C2K 1_555 1_555
C2K H1K 1_555 1_555
C3K C2K 1_555 1_555
H2K C3K 1_555 1_555
C4K C5E 1_555 1_555
C5K C4 1_555 1_555
H3K C5K 1_555 1_555
Zn1L O1 1_555 1_555
O2L Zn1L 1_555 1_555
O3L C1L 1_555 1_555
C1L O2L 1_555 1_555
C2L C1L 1_555 1_555
H1L C2L 1_555 1_555
C3L C2L 1_555 1_555
H2L C3L 1_555 1_555
C4L C3L 1_555 1_555
C5L C4L 1_555 1_555
H3L C5L 1_555 1_555
Zn2L O1 1_555 1_555
O2Q C1Q 1_555 1_555
O3Q C1Q 1_555 1_555
C1Q C2Q 1_555 1_555
C2Q H1Q 1_555 1_555
C3Q C2Q 1_555 1_555
H2Q C3Q 1_555 1_555
C4Q C5L 1_555 1_555
C5Q C4Q 1_555 1_555
H3Q C5Q 1_555 1_555
O2W C1W 1_555 1_555
O3W C1W 1_555 1_555
C1W C2W 1_555 1_555
C2W H1W 1_555 1_555
C3W C2W 1_555 1_555
H2W C3W 1_555 1_555
C4W C5Q 1_555 1_555
C5W C4L 1_555 1_555
H3W C5W 1_555 1_555
Zn2F O1 1_555 1_555
Zn2I O1 1_555 1_555
Zn2R O1 1_555 1_555
Zn2U O1 1_555 1_555
Zn1B O2E 1_555 1_555
Zn1C O2K 1_555 1_555
Zn1N O2Q 1_555 1_555
Zn1O O2W 1_555 1_555
O2F Zn1 1_555 1_555
O2I Zn1 1_555 1_555
O2R Zn1L 1_555 1_555
O2U Zn1L 1_555 1_555
O3F Zn2U 1_555 1_555
O3I Zn2L 1_555 1_555
O3R Zn2I 1_555 1_555
Zn2C O3W 1_555 1_555
Zn2H O3Q 1_555 1_555
Zn2O O3K 1_555 1_555
Zn2T O3E 1_555 1_555
O3 Zn2R 1_555 1_555
C3E C4E 1_555 1_555
C3K C4K 1_555 1_555
C4K C5K 1_555 1_555
O3L Zn2F 1_555 1_555
C3Q C4Q 1_555 1_555
C3W C4W 1_555 1_555
C4W C5W 1_555 1_555

#END
