
#######################################################################
#
#                 Cambridge Crystallographic Data Centre
#                                CCDC 
#
#######################################################################
#
# If this CIF has been generated from an entry in the Cambridge 
# Structural Database, then it will include bibliographic, chemical, 
# crystal, experimental, refinement or atomic coordinate data resulting 
# from the CCDC's data processing and validation procedures.
#
#######################################################################

data_RAMPIH
_chemical_formula_moiety         '(C38 H28 Mn1 O8 2-)n'
_symmetry_cell_setting           orthorhombic
_symmetry_space_group_name_H-M   'I m m a'
_symmetry_Int_Tables_number      74
_space_group_name_Hall           '-I 2b 2'
loop_
_symmetry_equiv_pos_site_id
_symmetry_equiv_pos_as_xyz
1 x,y,z
2 -x,1/2-y,z
3 x,-y,-z
4 -x,1/2+y,-z
5 1/2+x,1/2+y,1/2+z
6 1/2-x,-y,1/2+z
7 1/2+x,1/2-y,1/2-z
8 1/2-x,y,1/2-z
9 -x,-y,-z
10 x,1/2+y,-z
11 -x,y,z
12 x,1/2-y,z
13 1/2-x,1/2-y,1/2-z
14 1/2+x,y,1/2-z
15 1/2-x,1/2+y,1/2+z
16 1/2+x,-y,1/2+z
_cell_length_a                   17.335(3)
_cell_length_b                   17.748(2)
_cell_length_c                   19.551(3)
_cell_angle_alpha                90
_cell_angle_beta                 90
_cell_angle_gamma                90
_cell_volume                     6015.09
loop_
_atom_site_label
_atom_site_type_symbol
_atom_site_fract_x
_atom_site_fract_y
_atom_site_fract_z
C1 C 0.5000 -0.1790(3) -0.0966(3)
C2 C 0.5724(2) -0.18070(18) -0.04969(18)
H1 H 0.6184 -0.1796 -0.0779
H2 H 0.5727 -0.1359 -0.0213
C3 C 0.5749(3) -0.2500 -0.0040(3)
C4 C 0.5000 -0.2500 -0.1381(3)
H3 H 0.5451 -0.2500 -0.1674
C5 C 0.5000 -0.2500 0.0425(4)
H4 H 0.5000 -0.2943 0.0716
C6 C 0.5000 -0.1064(2) -0.1386(2)
C7 C 0.5000 -0.0368(3) -0.1066(3)
H5 H 0.5000 -0.0362 -0.0590
C8 C 0.5000 0.0282(3) -0.1382(4)
H6 H 0.5000 0.0733 -0.1139
C9 C 0.5000 0.0276(3) -0.2145(3)
C10 C 0.5000 -0.0383(3) -0.2460(4)
H7 H 0.5000 -0.0402 -0.2935
C11 C 0.5000 -0.1055(3) -0.2081(3)
H8 H 0.5000 -0.1512 -0.2314
C12 C 0.5000 0.0985(4) -0.2466(7)
C13 C 0.6478(3) -0.2500 0.0362(3)
C14 C 0.6498(4) -0.2500 0.1045(3)
H9 H 0.6023 -0.2500 0.1265
C15 C 0.7152(7) -0.2500 0.1472(6)
H10 H 0.7120 -0.2500 0.1947
C16 C 0.7791(7) -0.2500 0.1149(5)
C17 C 0.7842(5) -0.2500 0.0365(5)
H11 H 0.8313 -0.2500 0.0137
C18 C 0.7161(3) -0.2500 0.0024(4)
H12 H 0.7163 -0.2500 -0.0452
C19 C 0.8548(10) -0.2500 0.1552(9)
O1 O 0.5000 0.1608(3) -0.2158(3)
O2 O 0.5000 0.0990(3) -0.3123(4)
O3 O 0.9065(4) -0.2500 0.1309(5)
O4 O 0.8599(6) -0.2500 0.2193(5)
Mn1 Mn 0.5000 0.2500 -0.28567(5)
H3A H 0.4549 -0.2500 -0.1674
H4A H 0.5000 -0.2057 0.0716
C1A C 0.5000 -0.3210(3) -0.0966(3)
C2A C 0.4276(2) -0.31930(18) -0.04969(18)
H1A H 0.3816 -0.3204 -0.0779
H2A H 0.4273 -0.3641 -0.0213
C3A C 0.4251(3) -0.2500 -0.0040(3)
C6A C 0.5000 -0.3936(2) -0.1386(2)
C7A C 0.5000 -0.4632(3) -0.1066(3)
H5A H 0.5000 -0.4638 -0.0590
C8A C 0.5000 -0.5282(3) -0.1382(4)
H6A H 0.5000 -0.5733 -0.1139
C9A C 0.5000 -0.5276(3) -0.2145(3)
C10A C 0.5000 -0.4617(3) -0.2460(4)
H7A H 0.5000 -0.4598 -0.2935
C11A C 0.5000 -0.3945(3) -0.2081(3)
H8A H 0.5000 -0.3488 -0.2314
C12A C 0.5000 -0.5985(4) -0.2466(7)
C13A C 0.3522(3) -0.2500 0.0362(3)
C14A C 0.3502(4) -0.2500 0.1045(3)
H9A H 0.3977 -0.2500 0.1265
C15A C 0.2848(7) -0.2500 0.1472(6)
H10A H 0.2880 -0.2500 0.1947
C16A C 0.2209(7) -0.2500 0.1149(5)
C17A C 0.2158(5) -0.2500 0.0365(5)
H11A H 0.1687 -0.2500 0.0137
C18A C 0.2839(3) -0.2500 0.0024(4)
H12A H 0.2837 -0.2500 -0.0452
O1A O 0.5000 -0.6608(3) -0.2158(3)
O2A O 0.5000 -0.5990(3) -0.3123(4)
C19A C 0.1452(10) -0.2500 0.1552(9)
O3A O 0.0935(4) -0.2500 0.1309(5)
O4A O 0.1401(6) -0.2500 0.2193(5)
C2J C 0.4276(2) -0.18070(18) -0.04969(18)
H1J H 0.3816 -0.1796 -0.0779
H2J H 0.4273 -0.1359 -0.0213
C2K C 0.5724(2) -0.31930(18) -0.04969(18)
H1K H 0.6184 -0.3204 -0.0779
H2K H 0.5727 -0.3641 -0.0213
O1A_2 O 0.5000 0.3392(3) -0.2158(3)
O3D O 0.4065(4) 0.2500 -0.3691(5)
O3E O 0.5935(4) 0.2500 -0.3691(5)
O4D O 0.3599(6) 0.2500 -0.2807(5)
O4E O 0.6401(6) 0.2500 -0.2807(5)
Mn1_2 Mn 0.5000 -0.7500 -0.28567(5)
Mn1D Mn 0.0000 -0.2500 0.21433(5)
Mn1D_2 Mn 1.0000 -0.2500 0.21433(5)
loop_
_geom_bond_atom_site_label_1
_geom_bond_atom_site_label_2
_geom_bond_site_symmetry_1
_geom_bond_site_symmetry_2
C1 C2 1_555 1_555
C2 H1 1_555 1_555
H2 C2 1_555 1_555
C3 C2 1_555 1_555
C4 C1 1_555 1_555
H3 C4 1_555 1_555
C5 C3 1_555 1_555
H4 C5 1_555 1_555
C6 C1 1_555 1_555
C7 C6 1_555 1_555
H5 C7 1_555 1_555
C8 C7 1_555 1_555
H6 C8 1_555 1_555
C9 C8 1_555 1_555
C10 C9 1_555 1_555
H7 C10 1_555 1_555
C11 C6 1_555 1_555
H8 C11 1_555 1_555
C12 C9 1_555 1_555
C13 C3 1_555 1_555
C14 C13 1_555 1_555
H9 C14 1_555 1_555
C15 C14 1_555 1_555
H10 C15 1_555 1_555
C16 C15 1_555 1_555
C17 C16 1_555 1_555
H11 C17 1_555 1_555
C18 C13 1_555 1_555
H12 C18 1_555 1_555
C19 C16 1_555 1_555
O1 C12 1_555 1_555
O2 C12 1_555 1_555
O3 C19 1_555 1_555
O4 C19 1_555 1_555
Mn1 O1 1_555 1_555
H3A C4 1_555 1_555
H4A C5 1_555 1_555
C1A C4 1_555 1_555
C2A C1A 1_555 1_555
H1A C2A 1_555 1_555
H2A C2A 1_555 1_555
C3A C5 1_555 1_555
C6A C1A 1_555 1_555
C7A C6A 1_555 1_555
H5A C7A 1_555 1_555
C8A C7A 1_555 1_555
H6A C8A 1_555 1_555
C9A C8A 1_555 1_555
C10A C9A 1_555 1_555
H7A C10A 1_555 1_555
C11A C6A 1_555 1_555
H8A C11A 1_555 1_555
C12A C9A 1_555 1_555
C13A C3A 1_555 1_555
C14A C13A 1_555 1_555
H9A C14A 1_555 1_555
C15A C14A 1_555 1_555
H10A C15A 1_555 1_555
C16A C15A 1_555 1_555
C17A C16A 1_555 1_555
H11A C17A 1_555 1_555
C18A C13A 1_555 1_555
H12A C18A 1_555 1_555
O1A C12A 1_555 1_555
O2A C12A 1_555 1_555
C19A C16A 1_555 1_555
O3A C19A 1_555 1_555
O4A C19A 1_555 1_555
C2J C1 1_555 1_555
H1J C2J 1_555 1_555
H2J C2J 1_555 1_555
C2K C3 1_555 1_555
H1K C2K 1_555 1_555
H2K C2K 1_555 1_555
O1A_2 Mn1 1_555 1_555
O3D Mn1 1_555 1_555
O3E Mn1 1_555 1_555
O4D Mn1 1_555 1_555
O4E Mn1 1_555 1_555
Mn1_2 O1A 1_555 1_555
Mn1D O3A 1_555 1_555
Mn1D_2 O3 1_555 1_555
C10 C11 1_555 1_555
C17 C18 1_555 1_555
O4 Mn1D_2 1_555 1_555
C1A C2K 1_555 1_555
C2A C3A 1_555 1_555
C3A C2J 1_555 1_555
C10A C11A 1_555 1_555
C17A C18A 1_555 1_555
O4A Mn1D 1_555 1_555

#END
