
#######################################################################
#
#                 Cambridge Crystallographic Data Centre
#                                CCDC 
#
#######################################################################
#
# If this CIF has been generated from an entry in the Cambridge 
# Structural Database, then it will include bibliographic, chemical, 
# crystal, experimental, refinement or atomic coordinate data resulting 
# from the CCDC's data processing and validation procedures.
#
#######################################################################

data_DESJOB
_chemical_formula_moiety         '(C34 H42 Co2 N4 O8)n'
_symmetry_cell_setting           monoclinic
_symmetry_space_group_name_H-M   'P 21'
_symmetry_Int_Tables_number      4
_space_group_name_Hall           'P 2yb'
loop_
_symmetry_equiv_pos_site_id
_symmetry_equiv_pos_as_xyz
1 x,y,z
2 -x,1/2+y,-z
_cell_length_a                   10.2333(7)
_cell_length_b                   12.9228(9)
_cell_length_c                   13.6080(9)
_cell_angle_alpha                90
_cell_angle_beta                 90.9240(10)
_cell_angle_gamma                90
_cell_volume                     1799.33
loop_
_atom_site_label
_atom_site_type_symbol
_atom_site_fract_x
_atom_site_fract_y
_atom_site_fract_z
Co1 Co 0.14029(7) -0.48088(5) -0.23712(5)
Co2 Co -0.13281(6) -0.49072(5) -0.26411(5)
O1 O 0.1384(4) -0.5190(4) -0.3807(3)
O2 O -0.0781(4) -0.5294(4) -0.4020(3)
O3 O 0.1973(4) -0.8471(4) -0.6980(3)
O4 O -0.0139(4) -0.8505(4) -0.7165(4)
O5 O 0.2090(4) -0.6250(4) -0.1905(3)
O6 O -0.0034(4) -0.6211(5) -0.2201(4)
O7 O 0.1288(4) -0.9590(4) 0.1193(3)
O8 O -0.0878(4) -0.9378(4) 0.1004(3)
N1 N 0.3007(5) -0.3892(6) -0.2455(4)
N2 N 0.4498(10) -0.2720(8) -0.2121(8)
N3 N 0.5742(7) 0.2927(6) -0.3157(7)
N4 N 0.7076(5) 0.4150(6) -0.2673(5)
C1 C 0.0368(6) -0.5323(5) -0.4340(5)
C2 C 0.0579(7) -0.5577(5) -0.5415(5)
C3 C -0.0623(9) -0.5600(7) -0.6046(6)
H1 H -0.0815 -0.4910 -0.6288
H2 H -0.1359 -0.5833 -0.5663
C4 C -0.0414(10) -0.6347(8) -0.6925(7)
H3 H -0.1136 -0.6830 -0.6992
H4 H -0.0332 -0.5965 -0.7535
C5 C 0.0837(6) -0.6905(6) -0.6668(4)
H5 H 0.1539 -0.6548 -0.7015
C6 C 0.1106(7) -0.6744(7) -0.5541(5)
C7 C 0.0887(6) -0.8007(6) -0.6969(4)
C8 C 0.1586(8) -0.4856(7) -0.5840(5)
H6 H 0.1297 -0.4153 -0.5771
H7 H 0.1697 -0.5011 -0.6523
H8 H 0.2404 -0.4945 -0.5494
C9 C 0.0316(10) -0.7490(7) -0.4958(7)
H9 H 0.0648 -0.8178 -0.5050
H10 H -0.0580 -0.7462 -0.5177
H11 H 0.0373 -0.7311 -0.4274
C10 C 0.2521(9) -0.6897(9) -0.5268(7)
H12 H 0.2755 -0.7608 -0.5365
H13 H 0.2661 -0.6714 -0.4591
H14 H 0.3051 -0.6465 -0.5675
C11 C 0.0965(6) -0.6673(6) -0.1921(4)
C12 C 0.0857(7) -0.7834(6) -0.1633(5)
C13 C -0.0510(8) -0.8286(7) -0.1824(6)
H15 H -0.0567 -0.8581 -0.2478
H16 H -0.1167 -0.7749 -0.1772
C14 C -0.0740(8) -0.9142(9) -0.1035(5)
H17 H -0.1519 -0.9001 -0.0662
H18 H -0.0821 -0.9819 -0.1338
C15 C 0.0491(7) -0.9077(6) -0.0382(4)
H19 H 0.1118 -0.9578 -0.0639
C16 C 0.1080(8) -0.8011(7) -0.0512(5)
C17 C 0.0264(6) -0.9360(6) 0.0701(5)
C18 C 0.1852(8) -0.8435(6) -0.2232(6)
H20 H 0.1687 -0.8319 -0.2920
H21 H 0.1776 -0.9160 -0.2091
H22 H 0.2718 -0.8203 -0.2062
C19 C 0.2568(9) -0.8000(10) -0.0190(7)
H23 H 0.2642 -0.8108 0.0507
H24 H 0.2946 -0.7344 -0.0355
H25 H 0.3022 -0.8542 -0.0526
C20 C 0.0440(12) -0.7218(8) 0.0082(6)
H26 H 0.0611 -0.7351 0.0766
H27 H -0.0486 -0.7236 -0.0044
H28 H 0.0775 -0.6549 -0.0087
C21 C 0.3964(8) -0.3974(8) -0.3149(8)
H29 H 0.3979 -0.4450 -0.3662
C22 C 0.4868(9) -0.3253(10) -0.2962(13)
H30 H 0.5612 -0.3128 -0.3327
C23 C 0.3327(9) -0.3121(8) -0.1850(7)
H31 H 0.2831 -0.2892 -0.1326
C24 C 0.5130(12) -0.1889(10) -0.1661(9)
H32 H 0.6042 -0.2075 -0.1569
H33 H 0.4763 -0.1811 -0.1012
C25 C 0.5080(11) -0.0845(10) -0.2159(10)
C26 C 0.4343(10) -0.0683(9) -0.3015(9)
H34 H 0.3829 -0.1209 -0.3281
C27 C 0.4395(8) 0.0267(9) -0.3453(8)
H35 H 0.3871 0.0379 -0.4007
C28 C 0.5165(7) 0.1059(7) -0.3131(8)
C29 C 0.5878(9) 0.0881(7) -0.2284(8)
H36 H 0.6369 0.1419 -0.2016
C30 C 0.5892(9) -0.0050(10) -0.1825(8)
H37 H 0.6445 -0.0158 -0.1286
C31 C 0.5256(11) 0.2014(8) -0.3743(8)
H38 H 0.4400 0.2173 -0.4021
H39 H 0.5843 0.1888 -0.4283
C32 C 0.6873(7) 0.3411(7) -0.3264(6)
H40 H 0.7472 0.3221 -0.3737
C33 C 0.5970(9) 0.4176(9) -0.2128(10)
H41 H 0.5793 0.4645 -0.1629
C34 C 0.5178(11) 0.3404(12) -0.2440(12)
H42 H 0.4366 0.3241 -0.2184
Co1A Co -0.14029(7) -0.98088(5) -0.76288(5)
Co1A_2 Co -0.14029(7) -0.98088(5) 0.23712(5)
Co2_2 Co 0.86719(6) 0.50928(5) -0.26411(5)
Co2A Co 0.13281(6) -0.99072(5) -0.73589(5)
Co2A_2 Co 0.13281(6) -0.99072(5) 0.26411(5)
O3A O -0.1973(4) -0.3471(4) -0.3020(3)
O4A O 0.0139(4) -0.3505(4) -0.2835(4)
O7A O -0.1288(4) -0.4590(4) -0.1193(3)
O8A O 0.0878(4) -0.4378(4) -0.1004(3)
N4_2 N -0.2924(5) -0.5850(6) -0.2673(5)
loop_
_geom_bond_atom_site_label_1
_geom_bond_atom_site_label_2
_geom_bond_site_symmetry_1
_geom_bond_site_symmetry_2
Co1 O1 1_555 1_555
Co2 O2 1_555 1_555
O1 C1 1_555 1_555
O2 C1 1_555 1_555
O3 C7 1_555 1_555
O4 C7 1_555 1_555
O5 Co1 1_555 1_555
O6 Co1 1_555 1_555
O7 C17 1_555 1_555
O8 C17 1_555 1_555
N1 Co1 1_555 1_555
N2 C22 1_555 1_555
N3 C31 1_555 1_555
N4 C32 1_555 1_555
C1 C2 1_555 1_555
C2 C3 1_555 1_555
C3 H1 1_555 1_555
H2 C3 1_555 1_555
C4 C3 1_555 1_555
H3 C4 1_555 1_555
H4 C4 1_555 1_555
C5 C4 1_555 1_555
H5 C5 1_555 1_555
C6 C2 1_555 1_555
C7 C5 1_555 1_555
C8 C2 1_555 1_555
H6 C8 1_555 1_555
H7 C8 1_555 1_555
H8 C8 1_555 1_555
C9 C6 1_555 1_555
H9 C9 1_555 1_555
H10 C9 1_555 1_555
H11 C9 1_555 1_555
C10 C6 1_555 1_555
H12 C10 1_555 1_555
H13 C10 1_555 1_555
H14 C10 1_555 1_555
C11 O5 1_555 1_555
C12 C11 1_555 1_555
C13 C12 1_555 1_555
H15 C13 1_555 1_555
H16 C13 1_555 1_555
C14 C13 1_555 1_555
H17 C14 1_555 1_555
H18 C14 1_555 1_555
C15 C14 1_555 1_555
H19 C15 1_555 1_555
C16 C12 1_555 1_555
C17 C15 1_555 1_555
C18 C12 1_555 1_555
H20 C18 1_555 1_555
H21 C18 1_555 1_555
H22 C18 1_555 1_555
C19 C16 1_555 1_555
H23 C19 1_555 1_555
H24 C19 1_555 1_555
H25 C19 1_555 1_555
C20 C16 1_555 1_555
H26 C20 1_555 1_555
H27 C20 1_555 1_555
H28 C20 1_555 1_555
C21 N1 1_555 1_555
H29 C21 1_555 1_555
C22 C21 1_555 1_555
H30 C22 1_555 1_555
C23 N1 1_555 1_555
H31 C23 1_555 1_555
C24 N2 1_555 1_555
H32 C24 1_555 1_555
H33 C24 1_555 1_555
C25 C24 1_555 1_555
C26 C25 1_555 1_555
H34 C26 1_555 1_555
C27 C26 1_555 1_555
H35 C27 1_555 1_555
C28 C27 1_555 1_555
C29 C28 1_555 1_555
H36 C29 1_555 1_555
C30 C25 1_555 1_555
H37 C30 1_555 1_555
C31 C28 1_555 1_555
H38 C31 1_555 1_555
H39 C31 1_555 1_555
C32 N3 1_555 1_555
H40 C32 1_555 1_555
C33 N4 1_555 1_555
H41 C33 1_555 1_555
C34 N3 1_555 1_555
H42 C34 1_555 1_555
Co1A O4 1_555 1_555
Co1A_2 O8 1_555 1_555
Co2_2 N4 1_555 1_555
Co2A O3 1_555 1_555
Co2A_2 O7 1_555 1_555
O3A Co2 1_555 1_555
O4A Co1 1_555 1_555
O7A Co2 1_555 1_555
O8A Co1 1_555 1_555
N4_2 Co2 1_555 1_555
Co2 O6 1_555 1_555
Co2 O4A 1_555 1_555
O4 Co2A 1_555 1_555
O6 C11 1_555 1_555
N2 C23 1_555 1_555
C5 C6 1_555 1_555
C15 C16 1_555 1_555
C29 C30 1_555 1_555
C33 C34 1_555 1_555

#END
