
#######################################################################
#
#                 Cambridge Crystallographic Data Centre
#                                CCDC 
#
#######################################################################
#
# If this CIF has been generated from an entry in the Cambridge 
# Structural Database, then it will include bibliographic, chemical, 
# crystal, experimental, refinement or atomic coordinate data resulting 
# from the CCDC's data processing and validation procedures.
#
#######################################################################

data_FUTPUG
_chemical_formula_moiety         'C18 H12 Cu7 N19 O2'
_symmetry_cell_setting           cubic
_symmetry_space_group_name_H-M   'F d -3 c'
_symmetry_Int_Tables_number      228
_space_group_name_Hall           '-F 4ud 2vw 3'
loop_
_symmetry_equiv_pos_site_id
_symmetry_equiv_pos_as_xyz
1 x,y,z
2 z,x,y
3 y,z,x
4 3/4+y,1/4+x,-z
5 1/4+y,-x,3/4+z
6 -y,3/4+x,1/4+z
7 3/4+x,1/4+z,-y
8 -x,3/4+z,1/4+y
9 1/4+x,-z,3/4+y
10 3/4+z,1/4+y,-x
11 1/4+z,-y,3/4+x
12 -z,3/4+y,1/4+x
13 x,1/2+y,1/2+z
14 1/4-x,1/4-y,z
15 z,1/2+x,1/2+y
16 1/4-z,1/4-x,y
17 y,1/2+z,1/2+x
18 1/4-y,1/4-z,x
19 1/4+y,1/2-x,1/4+z
20 -y,1/4+x,3/4+z
21 -x,1/4+z,3/4+y
22 1/4+x,1/2-z,1/4+y
23 1/4+z,1/2-y,1/4+x
24 -z,1/4+y,3/4+x
25 1/2+x,y,1/2+z
26 x,1/4-y,1/4-z
27 1/2+z,x,1/2+y
28 z,1/4-x,1/4-y
29 1/2+y,z,1/2+x
30 y,1/4-z,1/4-x
31 1/4+y,1/4+x,1/2-z
32 3/4+y,-x,1/4+z
33 1/4+x,1/4+z,1/2-y
34 3/4+x,-z,1/4+y
35 1/4+z,1/4+y,1/2-x
36 3/4+z,-y,1/4+x
37 1/2+x,1/2+y,z
38 1/4-x,y,1/4-z
39 1/2+z,1/2+x,y
40 1/4-z,x,1/4-y
41 1/2+y,1/2+z,x
42 1/4-y,z,1/4-x
43 1/4+y,3/4+x,-z
44 1/2-y,1/4+x,1/4+z
45 1/4+x,3/4+z,-y
46 1/2-x,1/4+z,1/4+y
47 1/4+z,3/4+y,-x
48 1/2-z,1/4+y,1/4+x
49 1/4-x,3/4-y,1/2+z
50 3/4-x,1/2+y,1/4-z
51 1/2+x,1/4-y,3/4-z
52 1/2+z,1/4-x,3/4-y
53 1/4-z,3/4-x,1/2+y
54 3/4-z,1/2+x,1/4-y
55 3/4-y,1/2+z,1/4-x
56 1/2+y,1/4-z,3/4-x
57 1/4-y,3/4-z,1/2+x
58 1/2-y,1/2-x,1/2-z
59 1/2-x,1/2-z,1/2-y
60 1/2-z,1/2-y,1/2-x
61 3/4-x,y,3/4-z
62 1/2+x,3/4-y,1/4-z
63 1/2+z,3/4-x,1/4-y
64 3/4-z,x,3/4-y
65 3/4-y,z,3/4-x
66 1/2+y,3/4-z,1/4-x
67 3/4+y,3/4+x,1/2-z
68 1/2-y,-x,-z
69 3/4+x,3/4+z,1/2-y
70 1/2-x,-z,-y
71 3/4+z,3/4+y,1/2-x
72 1/2-z,-y,-x
73 3/4-x,3/4-y,z
74 1/4-x,1/2+y,3/4-z
75 3/4-z,3/4-x,y
76 1/4-z,1/2+x,3/4-y
77 1/4-y,1/2+z,3/4-x
78 3/4-y,3/4-z,x
79 -y,1/2-x,-z
80 1/2-y,3/4+x,3/4+z
81 1/2-x,3/4+z,3/4+y
82 -x,1/2-z,-y
83 1/2-z,3/4+y,3/4+x
84 -z,1/2-y,-x
85 3/4-x,1/4-y,1/2+z
86 x,3/4-y,3/4-z
87 z,3/4-x,3/4-y
88 3/4-z,1/4-x,1/2+y
89 y,3/4-z,3/4-x
90 3/4-y,1/4-z,1/2+x
91 -y,-x,1/2-z
92 3/4+y,1/2-x,3/4+z
93 -x,-z,1/2-y
94 3/4+x,1/2-z,3/4+y
95 3/4+z,1/2-y,3/4+x
96 -z,-y,1/2-x
97 -x,-y,-z
98 -z,-x,-y
99 -y,-z,-x
100 1/4-y,3/4-x,z
101 3/4-y,x,1/4-z
102 y,1/4-x,3/4-z
103 1/4-x,3/4-z,y
104 x,1/4-z,3/4-y
105 3/4-x,z,1/4-y
106 1/4-z,3/4-y,x
107 3/4-z,y,1/4-x
108 z,1/4-y,3/4-x
109 -x,1/2-y,1/2-z
110 3/4+x,3/4+y,-z
111 -z,1/2-x,1/2-y
112 3/4+z,3/4+x,-y
113 -y,1/2-z,1/2-x
114 3/4+y,3/4+z,-x
115 3/4-y,1/2+x,3/4-z
116 y,3/4-x,1/4-z
117 x,3/4-z,1/4-y
118 3/4-x,1/2+z,3/4-y
119 3/4-z,1/2+y,3/4-x
120 z,3/4-y,1/4-x
121 1/2-x,-y,1/2-z
122 -x,3/4+y,3/4+z
123 1/2-z,-x,1/2-y
124 -z,3/4+x,3/4+y
125 1/2-y,-z,1/2-x
126 -y,3/4+z,3/4+x
127 3/4-y,3/4-x,1/2+z
128 1/4-y,x,3/4-z
129 3/4-x,3/4-z,1/2+y
130 1/4-x,z,3/4-y
131 3/4-z,3/4-y,1/2+x
132 1/4-z,y,3/4-x
133 1/2-x,1/2-y,-z
134 3/4+x,-y,3/4+z
135 1/2-z,1/2-x,-y
136 3/4+z,-x,3/4+y
137 1/2-y,1/2-z,-x
138 3/4+y,-z,3/4+x
139 3/4-y,1/4-x,z
140 1/2+y,3/4-x,3/4-z
141 3/4-x,1/4-z,y
142 1/2+x,3/4-z,3/4-y
143 3/4-z,1/4-y,x
144 1/2+z,3/4-y,3/4-x
145 3/4+x,1/4+y,1/2-z
146 1/4+x,1/2-y,3/4+z
147 1/2-x,3/4+y,1/4+z
148 1/2-z,3/4+x,1/4+y
149 3/4+z,1/4+x,1/2-y
150 1/4+z,1/2-x,3/4+y
151 1/4+y,1/2-z,3/4+x
152 1/2-y,3/4+z,1/4+x
153 3/4+y,1/4+z,1/2-x
154 1/2+y,1/2+x,1/2+z
155 1/2+x,1/2+z,1/2+y
156 1/2+z,1/2+y,1/2+x
157 1/4+x,-y,1/4+z
158 1/2-x,1/4+y,3/4+z
159 1/2-z,1/4+x,3/4+y
160 1/4+z,-x,1/4+y
161 1/4+y,-z,1/4+x
162 1/2-y,1/4+z,3/4+x
163 1/4-y,1/4-x,1/2+z
164 1/2+y,x,z
165 1/4-x,1/4-z,1/2+y
166 1/2+x,z,y
167 1/4-z,1/4-y,1/2+x
168 1/2+z,y,x
169 1/4+x,1/4+y,-z
170 3/4+x,1/2-y,1/4+z
171 1/4+z,1/4+x,-y
172 3/4+z,1/2-x,1/4+y
173 3/4+y,1/2-z,1/4+x
174 1/4+y,1/4+z,-x
175 y,1/2+x,z
176 1/2+y,1/4-x,1/4-z
177 1/2+x,1/4-z,1/4-y
178 x,1/2+z,y
179 1/2+z,1/4-y,1/4-x
180 z,1/2+y,x
181 1/4+x,3/4+y,1/2-z
182 -x,1/4+y,1/4+z
183 -z,1/4+x,1/4+y
184 1/4+z,3/4+x,1/2-y
185 -y,1/4+z,1/4+x
186 1/4+y,3/4+z,1/2-x
187 y,x,1/2+z
188 1/4-y,1/2+x,1/4-z
189 x,z,1/2+y
190 1/4-x,1/2+z,1/4-y
191 1/4-z,1/2+y,1/4-x
192 z,y,1/2+x
_cell_length_a                   36.0387(6)
_cell_length_b                   36.0387(6)
_cell_length_c                   36.0387(6)
_cell_angle_alpha                90
_cell_angle_beta                 90
_cell_angle_gamma                90
_cell_volume                     46806.6
loop_
_atom_site_label
_atom_site_type_symbol
_atom_site_fract_x
_atom_site_fract_y
_atom_site_fract_z
N1 N 0.5366(3) 0.3183(3) 0.0068(3)
N2 N 0.5559(3) 0.3465(3) 0.0196(3)
N3 N 0.6734 0.42335(10) 0.00000(10)
C1 C 0.66981(17) 0.40018(16) -0.02784(18)
H1 H 0.6860 0.4029 -0.0485
C2 C 0.64414(14) 0.37241(14) -0.02878(17)
H2 H 0.6433 0.3554 -0.0489
C3 C 0.6196 0.36958(11) 0.00000(11)
C4 C 0.5913 0.34128(15) 0.00000(15)
Cu1 Cu 0.5000 0.28758(5) 0.03758(5)
O1 O 0.5000 0.2500 0.0000
N1PA N 0.5683(3) 0.2866(3) -0.0068(3)
N1RD N 0.4932(3) 0.4634(3) 0.1817(3)
N1ME N 0.5068(3) 0.4317(3) 0.2134(3)
N1T N 0.4634(3) 0.2568(3) 0.0683(3)
N1KC N 0.4317(3) 0.2432(3) 0.0366(3)
N1JB N 0.5068(3) 0.2134(3) -0.0683(3)
N1VC N 0.4317(3) 0.5366(3) 0.2432(3)
N2PA N 0.5965(3) 0.3059(3) -0.0196(3)
N2RD N 0.4804(3) 0.4441(3) 0.1535(3)
N2ME N 0.5196(3) 0.4035(3) 0.1941(3)
N2T N 0.4441(3) 0.2696(3) 0.0965(3)
N2KC N 0.4035(3) 0.2304(3) 0.0559(3)
N3RD N 0.50000(10) 0.3266 0.07665(10)
N3T N 0.3266 0.25000(10) 0.17335(10)
N3HF N 0.5766 0.25000(10) -0.07665(10)
N3P N 0.42335(10) 0.50000(10) 0.1734
C1PA C 0.65018(16) 0.41981(17) 0.02784(18)
C1RD C 0.52784(18) 0.33019(17) 0.09982(16)
C1ME C 0.47216(18) 0.34982(16) 0.08019(17)
C1T C 0.33019(17) 0.22216(18) 0.15018(16)
C1KC C 0.34982(16) 0.27784(18) 0.16981(17)
H1PA H 0.6529 0.4360 0.0485
H1RD H 0.5485 0.3140 0.0971
H1ME H 0.4515 0.3471 0.0640
H1T H 0.3140 0.2015 0.1529
H1KC H 0.3471 0.2985 0.1860
C2PA C 0.62241(14) 0.39414(14) 0.02878(17)
C2RD C 0.52878(17) 0.35586(14) 0.12759(14)
C2ME C 0.47122(17) 0.37759(14) 0.10586(14)
C2T C 0.35586(14) 0.22122(17) 0.12241(14)
C2KC C 0.37759(14) 0.27878(17) 0.14414(14)
H2PA H 0.6054 0.3933 0.0489
H2RD H 0.5489 0.3567 0.1446
H2ME H 0.4511 0.3946 0.1067
H2T H 0.3567 0.2011 0.1054
H2KC H 0.3946 0.2989 0.1433
C3RD C 0.50000(11) 0.3804 0.13042(11)
C3T C 0.3804 0.25000(11) 0.11958(11)
C4RD C 0.50000(15) 0.4087 0.15872(15)
C4T C 0.4087 0.25000(15) 0.09128(15)
Cu1PA Cu 0.53758(5) 0.2500 -0.03758(5)
Cu1VC Cu 0.46242(5) 0.5000 0.21242(5)
Cu1HD Cu 0.71242(5) 0.46242(5) 0.0000
Cu1GB Cu 0.46242(5) 0.21242(5) 0.0000
Cu1TE Cu 0.53758(5) 0.46242(5) 0.2500
Cu1AG Cu 0.28758(5) 0.2500 0.21242(5)
O1TE O 0.5000 0.5000 0.2500
loop_
_geom_bond_atom_site_label_1
_geom_bond_atom_site_label_2
_geom_bond_site_symmetry_1
_geom_bond_site_symmetry_2
N1 N2 1_555 1_555
N2 C4 1_555 1_555
N3 C1 1_555 1_555
C1 H1 1_555 1_555
C2 C1 1_555 1_555
H2 C2 1_555 1_555
C3 C2 1_555 1_555
C4 C3 1_555 1_555
Cu1 N1 1_555 1_555
O1 Cu1 1_555 1_555
N1PA N1 1_555 1_555
N1RD N1ME 1_555 1_555
N1ME N2ME 1_555 1_555
N1T Cu1 1_555 1_555
N1KC N1T 1_555 1_555
N1JB Cu1PA 1_555 1_555
N1VC Cu1VC 1_555 1_555
N2PA C4 1_555 1_555
N2RD N1RD 1_555 1_555
N2ME C4RD 1_555 1_555
N2T N1T 1_555 1_555
N2KC N1KC 1_555 1_555
N3RD Cu1 1_555 1_555
N3T C1T 1_555 1_555
N3HF Cu1PA 1_555 1_555
N3P Cu1VC 1_555 1_555
C1PA N3 1_555 1_555
C1RD N3RD 1_555 1_555
C1ME N3RD 1_555 1_555
C1T H1T 1_555 1_555
C1KC N3T 1_555 1_555
H1PA C1PA 1_555 1_555
H1RD C1RD 1_555 1_555
H1ME C1ME 1_555 1_555
H1KC C1KC 1_555 1_555
C2PA C3 1_555 1_555
C2RD C1RD 1_555 1_555
C2ME C1ME 1_555 1_555
C2T C1T 1_555 1_555
C2KC C1KC 1_555 1_555
H2PA C2PA 1_555 1_555
H2RD C2RD 1_555 1_555
H2ME C2ME 1_555 1_555
H2T C2T 1_555 1_555
H2KC C2KC 1_555 1_555
C3RD C2RD 1_555 1_555
C3T C2T 1_555 1_555
C4RD N2RD 1_555 1_555
C4T N2T 1_555 1_555
Cu1PA O1 1_555 1_555
Cu1VC N1RD 1_555 1_555
Cu1HD N3 1_555 1_555
Cu1GB O1 1_555 1_555
Cu1TE N1ME 1_555 1_555
Cu1AG N3T 1_555 1_555
O1TE Cu1VC 1_555 1_555
N1PA N2PA 1_555 1_555
N1PA Cu1PA 1_555 1_555
N1KC Cu1GB 1_555 1_555
N2KC C4T 1_555 1_555
C1PA C2PA 1_555 1_555
C2ME C3RD 1_555 1_555
C2KC C3T 1_555 1_555
C3RD C4RD 1_555 1_555
C3T C4T 1_555 1_555
Cu1TE O1TE 1_555 1_555

#END
