
#######################################################################
#
#                 Cambridge Crystallographic Data Centre
#                                CCDC 
#
#######################################################################
#
# If this CIF has been generated from an entry in the Cambridge 
# Structural Database, then it will include bibliographic, chemical, 
# crystal, experimental, refinement or atomic coordinate data resulting 
# from the CCDC's data processing and validation procedures.
#
#######################################################################

data_MAYYAN
_chemical_formula_moiety         '(C12 H24 O22 Pr2)n'
_symmetry_cell_setting           orthorhombic
_symmetry_space_group_name_H-M   'P 21 21 2'
_symmetry_Int_Tables_number      18
_space_group_name_Hall           'P 2 2ab'
loop_
_symmetry_equiv_pos_site_id
_symmetry_equiv_pos_as_xyz
1 x,y,z
2 -x,-y,z
3 1/2-x,1/2+y,-z
4 1/2+x,1/2-y,-z
_cell_length_a                   7.5802(6)
_cell_length_b                   28.044(2)
_cell_length_c                   6.1008(5)
_cell_angle_alpha                90
_cell_angle_beta                 90
_cell_angle_gamma                90
_cell_volume                     1296.9
loop_
_atom_site_label
_atom_site_type_symbol
_atom_site_fract_x
_atom_site_fract_y
_atom_site_fract_z
Pr1 Pr 0.09815(6) 0.331113(14) 0.43178(6)
O1 O -0.1108(9) 0.3564(2) 0.1315(9)
H1 H -0.0972 0.3376 0.0233
H2 H -0.0817 0.3842 0.0892
O2 O 0.1460(7) 0.3284(2) 0.8276(8)
C1 C 0.2894(11) 0.3248(3) 0.9283(14)
O3 O 0.3047(8) 0.3191(2) 1.1326(8)
O4 O 0.4124(8) 0.33889(18) 0.5732(9)
H3 H 0.4618 0.3643 0.5284
C2 C 0.4600(10) 0.3280(3) 0.7950(12)
H4 H 0.5330 0.3548 0.8541
O5 O 0.4630(7) 0.24028(19) 0.7875(9)
H5 H 0.3728 0.2489 0.7149
C3 C 0.5675(10) 0.2819(3) 0.8091(13)
H6 H 0.6290 0.2810 0.9541
C4 C 0.7068(11) 0.2832(3) 0.6272(12)
O6 O 0.8140(7) 0.31716(19) 0.6255(9)
O7 O 0.7060(8) 0.2494(2) 0.4910(9)
O8 O 0.2042(11) 0.4138(2) 0.3213(15)
O9 O -0.0225(9) 0.4134(2) 0.5470(13)
C5 C 0.0900(15) 0.4354(3) 0.4318(17)
C6 C 0.0919(18) 0.4892(4) 0.429(2)
H7 H 0.1559 0.5001 0.2967
H8 H 0.1570 0.5008 0.5588
Pr1_2 Pr 0.09815(6) 0.331113(14) -0.56822(6)
Pr1_3 Pr 0.09815(6) 0.331113(14) 1.43178(6)
Pr1C Pr 0.59815(6) 0.168887(14) 0.56822(6)
Pr1_4 Pr 1.09815(6) 0.331113(14) 0.43178(6)
Pr1A Pr -0.09815(6) 0.668887(14) 0.43178(6)
Pr1C_2 Pr 0.59815(6) 0.168887(14) -0.43178(6)
Pr1_5 Pr 1.09815(6) 0.331113(14) -0.56822(6)
O1_2 O -0.1108(9) 0.3564(2) -0.8685(9)
H1_2 H -0.0972 0.3376 -0.9767
H2_2 H -0.0817 0.3842 -0.9108
O2_2 O 0.1460(7) 0.3284(2) -0.1724(8)
C1_2 C 0.2894(11) 0.3248(3) -0.0717(14)
O3_2 O 0.3047(8) 0.3191(2) 0.1326(8)
O3_3 O 0.3047(8) 0.3191(2) -0.8674(8)
O4_2 O 0.4124(8) 0.33889(18) -0.4268(9)
H3_2 H 0.4618 0.3643 -0.4716
C2_2 C 0.4600(10) 0.3280(3) -0.2050(12)
H4_2 H 0.5330 0.3548 -0.1459
O5_2 O 0.4630(7) 0.24028(19) -0.2125(9)
O5C O -0.0370(7) 0.25972(19) 0.2125(9)
O5C_2 O -0.0370(7) 0.25972(19) -0.7875(9)
H5_2 H 0.3728 0.2489 -0.2851
H5C H -0.1272 0.2511 0.2851
H5C_2 H -0.1272 0.2511 -0.7149
C3_2 C 0.5675(10) 0.2819(3) -0.1909(13)
H6_2 H 0.6290 0.2810 -0.0459
C4_2 C 0.7068(11) 0.2832(3) -0.3728(12)
O6_2 O 0.8140(7) 0.31716(19) -0.3745(9)
O6_3 O -0.1860(7) 0.31716(19) 0.6255(9)
O6_4 O -0.1860(7) 0.31716(19) -0.3745(9)
O7_2 O 0.7060(8) 0.2494(2) -0.5090(9)
O7C O 0.2060(8) 0.2506(2) 0.5090(9)
O7C_2 O 0.2060(8) 0.2506(2) -0.4910(9)
O8A O -0.2042(11) 0.5862(2) 0.3213(15)
O8_2 O 0.2042(11) 0.4138(2) -0.6787(15)
O9A O 0.0225(9) 0.5866(2) 0.5470(13)
O9_2 O -0.0225(9) 0.4134(2) -0.4530(13)
C5A C -0.0900(15) 0.5646(3) 0.4318(17)
C6A C -0.0919(18) 0.5108(4) 0.429(2)
H7A H -0.1559 0.4999 0.2967
H8A H -0.1570 0.4992 0.5588
O10 O 0.609(2) 0.4121(5) 0.433(3)
O11 O 0.474(2) 0.4505(6) 0.054(3)
O12 O -0.182(3) 0.4402(6) -0.036(3)
O13 O 0.174(5) 0.4515(13) -0.065(7)
loop_
_geom_bond_atom_site_label_1
_geom_bond_atom_site_label_2
_geom_bond_site_symmetry_1
_geom_bond_site_symmetry_2
Pr1 O1 1_555 1_555
O1 H1 1_555 1_555
H2 O1 1_555 1_555
O2 Pr1 1_555 1_555
C1 O2 1_555 1_555
O3 C1 1_555 1_555
O4 Pr1 1_555 1_555
H3 O4 1_555 1_555
C2 C1 1_555 1_555
H4 C2 1_555 1_555
O5 H5 1_555 1_555
C3 C2 1_555 1_555
H6 C3 1_555 1_555
C4 C3 1_555 1_555
O6 C4 1_555 1_555
O7 C4 1_555 1_555
O8 Pr1 1_555 1_555
O9 Pr1 1_555 1_555
C5 O8 1_555 1_555
C6 C5 1_555 1_555
H7 C6 1_555 1_555
H8 C6 1_555 1_555
Pr1_2 O1_2 1_555 1_555
Pr1_3 O3 1_555 1_555
Pr1C O5 1_555 1_555
Pr1_4 O6 1_555 1_555
Pr1A O8A 1_555 1_555
Pr1C_2 O5_2 1_555 1_555
Pr1_5 O6_2 1_555 1_555
O1_2 H1_2 1_555 1_555
H2_2 O1_2 1_555 1_555
O2_2 Pr1_2 1_555 1_555
C1_2 O2_2 1_555 1_555
O3_2 Pr1 1_555 1_555
O3_3 Pr1_2 1_555 1_555
O4_2 Pr1_2 1_555 1_555
H3_2 O4_2 1_555 1_555
C2_2 C1_2 1_555 1_555
H4_2 C2_2 1_555 1_555
O5_2 H5_2 1_555 1_555
O5C Pr1 1_555 1_555
O5C_2 Pr1_2 1_555 1_555
H5C O5C 1_555 1_555
H5C_2 O5C_2 1_555 1_555
C3_2 C2_2 1_555 1_555
H6_2 C3_2 1_555 1_555
C4_2 C3_2 1_555 1_555
O6_2 C4_2 1_555 1_555
O6_3 Pr1 1_555 1_555
O6_4 Pr1_2 1_555 1_555
O7_2 Pr1C_2 1_555 1_555
O7C Pr1 1_555 1_555
O7C_2 Pr1_2 1_555 1_555
O8A C5A 1_555 1_555
O8_2 Pr1_2 1_555 1_555
O9A Pr1A 1_555 1_555
O9_2 Pr1_2 1_555 1_555
C5A O9A 1_555 1_555
C6A C6 1_555 1_555
H7A C6A 1_555 1_555
H8A C6A 1_555 1_555
O4 C2 1_555 1_555
O5 C3 1_555 1_555
O7 Pr1C 1_555 1_555
O9 C5 1_555 1_555
C1_2 O3_2 1_555 1_555
O4_2 C2_2 1_555 1_555
O5_2 C3_2 1_555 1_555
C4_2 O7_2 1_555 1_555
C5A C6A 1_555 1_555

#END
