
#######################################################################
#
#                 Cambridge Crystallographic Data Centre
#                                CCDC 
#
#######################################################################
#
# If this CIF has been generated from an entry in the Cambridge 
# Structural Database, then it will include bibliographic, chemical, 
# crystal, experimental, refinement or atomic coordinate data resulting 
# from the CCDC's data processing and validation procedures.
#
#######################################################################

data_FUYCUZ
_chemical_formula_moiety         '(C48 H24 O26 Zn8)n'
_symmetry_cell_setting           cubic
_symmetry_space_group_name_H-M   'P 21 3'
_symmetry_Int_Tables_number      198
_space_group_name_Hall           'P 2ac 2ab 3'
loop_
_symmetry_equiv_pos_site_id
_symmetry_equiv_pos_as_xyz
1 x,y,z
2 z,x,y
3 y,z,x
4 1/2-y,-z,1/2+x
5 1/2+z,1/2-x,-y
6 -y,1/2+z,1/2-x
7 1/2-z,-x,1/2+y
8 -z,1/2+x,1/2-y
9 1/2+y,1/2-z,-x
10 1/2-x,-y,1/2+z
11 1/2+x,1/2-y,-z
12 -x,1/2+y,1/2-z
_cell_length_a                   25.3688(7)
_cell_length_b                   25.3688(7)
_cell_length_c                   25.3688(7)
_cell_angle_alpha                90
_cell_angle_beta                 90
_cell_angle_gamma                90
_cell_volume                     16326.8
loop_
_atom_site_label
_atom_site_type_symbol
_atom_site_fract_x
_atom_site_fract_y
_atom_site_fract_z
C1 C 0.3115(10) 0.5358(11) 0.9231(10)
H1 H 0.3301 0.5444 0.8917
C2 C 0.2574(10) 0.5429(13) 0.9253(11)
H2 H 0.2392 0.5585 0.8966
C3 C 0.3973(6) 0.5108(6) 0.9634(6)
C4 C 0.3386(6) 0.5162(9) 0.9666(8)
C5 C 0.3091(9) 0.4995(12) 1.0100(11)
H3 H 0.3275 0.4840 1.0387
C6 C 0.2541(7) 0.5042(7) 1.0139(7)
H4 H 0.2348 0.4928 1.0439
C7 C 0.2302(6) 0.5270(5) 0.9699(7)
C8 C 0.1711(6) 0.5338(6) 0.9713(6)
C9 C 0.5480(5) 0.4289(5) 0.7406(4)
H5 H 0.5737 0.4062 0.7557
C10 C 0.5395(5) 0.4267(5) 0.6858(4)
H6 H 0.5612 0.4062 0.6632
C11 C 0.5301(6) 0.4692(5) 0.8329(6)
C12 C 0.5185(11) 0.4652(10) 0.7760(8)
C13 C 0.4788(10) 0.4931(9) 0.7516(9)
H7 H 0.4582 0.5159 0.7730
C14 C 0.4665(8) 0.4907(8) 0.6989(8)
H8 H 0.4386 0.5113 0.6847
C15 C 0.4968(7) 0.4567(7) 0.6664(7)
C16 C 0.4878(6) 0.4503(6) 0.6082(7)
O1 O 0.5311(4) 0.4689(4) 0.9689(4)
O2 O 0.1494(4) 0.5627(4) 0.9320(4)
O3 O 0.4222(7) 0.5368(8) 0.9304(8)
O4 O 0.4175(6) 0.4809(6) 1.0008(6)
O5 O 0.1483(7) 0.5110(7) 1.0100(7)
O6 O 0.4693(3) 0.4693(3) 0.4693(3)
O7 O 0.5584(6) 0.4343(5) 0.8516(4)
O8 O 0.5118(7) 0.5097(5) 0.8549(4)
O9 O 0.5167(6) 0.4222(7) 0.5793(6)
O10 O 0.4478(7) 0.4755(8) 0.5901(7)
Zn1 Zn 0.57460(8) 0.42540(8) 0.92540(8)
Zn2 Zn 0.47656(8) 0.42563(8) 1.00148(9)
Zn3 Zn 0.07443(7) 0.57443(7) 0.92557(7)
Zn4 Zn 0.52292(8) 0.42609(9) 0.50280(8)
C9A C 0.7406(4) 0.5480(5) 0.4289(5)
H5A H 0.7557 0.5737 0.4062
C10A C 0.6858(4) 0.5395(5) 0.4267(5)
H6A H 0.6632 0.5612 0.4062
C11A C 0.8329(6) 0.5301(6) 0.4692(5)
C12A C 0.7760(8) 0.5185(11) 0.4652(10)
C13A C 0.7516(9) 0.4788(10) 0.4931(9)
H7A H 0.7730 0.4582 0.5159
C14A C 0.6989(8) 0.4665(8) 0.4907(8)
H8A H 0.6847 0.4386 0.5113
C15A C 0.6664(7) 0.4968(7) 0.4567(7)
C16A C 0.6082(7) 0.4878(6) 0.4503(6)
O7A O 0.8516(4) 0.5584(6) 0.4343(5)
O8A O 0.8549(4) 0.5118(7) 0.5097(5)
O9A O 0.5793(6) 0.5167(6) 0.4222(7)
O10A O 0.5901(7) 0.4478(7) 0.4755(8)
Zn4A Zn 0.50280(8) 0.52292(8) 0.42609(9)
C9B C 0.4289(5) 0.7406(4) 0.5480(5)
H5B H 0.4062 0.7557 0.5737
C10B C 0.4267(5) 0.6858(4) 0.5395(5)
H6B H 0.4062 0.6632 0.5612
C11B C 0.4692(5) 0.8329(6) 0.5301(6)
C12B C 0.4652(10) 0.7760(8) 0.5185(11)
C13B C 0.4931(9) 0.7516(9) 0.4788(10)
H7B H 0.5159 0.7730 0.4582
C14B C 0.4907(8) 0.6989(8) 0.4665(8)
H8B H 0.5113 0.6847 0.4386
C15B C 0.4567(7) 0.6664(7) 0.4968(7)
C16B C 0.4503(6) 0.6082(7) 0.4878(6)
O7B O 0.4343(5) 0.8516(4) 0.5584(6)
O8B O 0.5097(5) 0.8549(4) 0.5118(7)
O9B O 0.4222(7) 0.5793(6) 0.5167(6)
O10B O 0.4755(8) 0.5901(7) 0.4478(7)
Zn4B Zn 0.42609(9) 0.50280(8) 0.52292(8)
C1E C 0.4642(11) 0.4231(10) 1.1885(10)
H1E H 0.4556 0.3917 1.1699
C2E C 0.4571(13) 0.4253(11) 1.2426(10)
H2E H 0.4415 0.3966 1.2608
C3E C 0.4892(6) 0.4634(6) 1.1027(6)
C4E C 0.4838(9) 0.4666(8) 1.1614(6)
C5E C 0.5005(12) 0.5100(11) 1.1909(9)
H3E H 0.5160 0.5387 1.1725
C6E C 0.4958(7) 0.5139(7) 1.2459(7)
H4E H 0.5072 0.5439 1.2652
C7E C 0.4730(5) 0.4699(7) 1.2698(6)
C8E C 0.4662(6) 0.4713(6) 1.3289(6)
O2E O 0.4373(4) 0.4320(4) 1.3506(4)
O3E O 0.4632(8) 0.4304(8) 1.0778(7)
O4E O 0.5191(6) 0.5008(6) 1.0825(6)
O5E O 0.4890(7) 0.5100(7) 1.3517(7)
Zn2E Zn 0.57437(8) 0.50148(9) 1.02344(8)
C1F C 0.5769(10) 0.6885(10) 1.0358(11)
H1F H 0.6083 0.6699 1.0444
C2F C 0.5747(11) 0.7426(10) 1.0429(13)
H2F H 0.6034 0.7608 1.0585
C3F C 0.5366(6) 0.6027(6) 1.0108(6)
C4F C 0.5334(8) 0.6614(6) 1.0162(9)
C5F C 0.4900(11) 0.6909(9) 0.9995(12)
H3F H 0.4613 0.6725 0.9840
C6F C 0.4861(7) 0.7459(7) 1.0042(7)
H4F H 0.4561 0.7652 0.9928
C7F C 0.5301(7) 0.7698(6) 1.0270(5)
C8F C 0.5287(6) 0.8289(6) 1.0338(6)
O2F O 0.5680(4) 0.8506(4) 1.0627(4)
O3F O 0.5696(8) 0.5778(7) 1.0368(8)
O4F O 0.4992(6) 0.5825(6) 0.9809(6)
O5F O 0.4900(7) 0.8517(7) 1.0110(7)
Zn2F Zn 0.49852(9) 0.52344(8) 0.92563(8)
O2G O 0.0680(4) 0.6494(4) 0.9373(4)
O2H O 0.0627(4) 0.5680(4) 0.8506(4)
O5D O 0.5100(7) 0.3517(7) 0.4890(7)
O5E_2 O 0.4890(7) 0.5100(7) 0.3517(7)
O5I O 0.3517(7) 0.4890(7) 0.5100(7)
O6C O 0.0307(3) 0.5307(3) 0.9693(3)
O7E O 0.5657(5) 0.3516(4) 0.9416(6)
O7F O 0.6484(4) 0.4416(6) 0.9343(5)
O8E O 0.4903(5) 0.3549(4) 0.9882(7)
O8F O 0.6451(4) 0.4882(7) 1.0097(5)
Zn1A Zn 0.92540(8) 0.57460(8) 0.42540(8)
Zn1B Zn 0.42540(8) 0.92540(8) 0.57460(8)
Zn2H Zn 0.92563(8) 0.49852(9) 0.52344(8)
Zn2K Zn 0.52344(8) 0.92563(8) 0.49852(9)
Zn3B Zn 0.57443(7) 0.92557(7) 1.07443(7)
Zn3D Zn 0.42557(7) 0.42557(7) 0.42557(7)
Zn3D_2 Zn 0.42557(7) 0.42557(7) 1.42557(7)
Zn4A_2 Zn 0.50280(8) 0.52292(8) 1.42609(9)
Zn4C Zn 0.07391(9) 0.49720(8) 1.02292(8)
Zn4K Zn 0.47708(8) 0.92609(9) 0.99720(8)
loop_
_geom_bond_atom_site_label_1
_geom_bond_atom_site_label_2
_geom_bond_site_symmetry_1
_geom_bond_site_symmetry_2
C1 H1 1_555 1_555
C2 C1 1_555 1_555
H2 C2 1_555 1_555
C3 C4 1_555 1_555
C4 C1 1_555 1_555
C5 C4 1_555 1_555
H3 C5 1_555 1_555
C6 C5 1_555 1_555
H4 C6 1_555 1_555
C7 C2 1_555 1_555
C8 C7 1_555 1_555
C9 H5 1_555 1_555
C10 C9 1_555 1_555
H6 C10 1_555 1_555
C11 C12 1_555 1_555
C12 C9 1_555 1_555
C13 C12 1_555 1_555
H7 C13 1_555 1_555
C14 C13 1_555 1_555
H8 C14 1_555 1_555
C15 C10 1_555 1_555
C16 C15 1_555 1_555
O1 Zn1 1_555 1_555
O2 C8 1_555 1_555
O3 C3 1_555 1_555
O4 C3 1_555 1_555
O5 C8 1_555 1_555
O6 Zn4 1_555 1_555
O7 C11 1_555 1_555
O8 C11 1_555 1_555
O9 C16 1_555 1_555
O10 C16 1_555 1_555
Zn1 O7 1_555 1_555
Zn2 O1 1_555 1_555
Zn3 O2 1_555 1_555
Zn4 O9 1_555 1_555
C9A H5A 1_555 1_555
C10A C9A 1_555 1_555
H6A C10A 1_555 1_555
C11A C12A 1_555 1_555
C12A C9A 1_555 1_555
C13A C12A 1_555 1_555
H7A C13A 1_555 1_555
C14A C13A 1_555 1_555
H8A C14A 1_555 1_555
C15A C10A 1_555 1_555
C16A C15A 1_555 1_555
O7A C11A 1_555 1_555
O8A C11A 1_555 1_555
O9A C16A 1_555 1_555
O10A Zn4 1_555 1_555
Zn4A O6 1_555 1_555
C9B H5B 1_555 1_555
C10B C9B 1_555 1_555
H6B C10B 1_555 1_555
C11B C12B 1_555 1_555
C12B C9B 1_555 1_555
C13B C12B 1_555 1_555
H7B C13B 1_555 1_555
C14B C13B 1_555 1_555
H8B C14B 1_555 1_555
C15B C10B 1_555 1_555
C16B C15B 1_555 1_555
O7B C11B 1_555 1_555
O8B C11B 1_555 1_555
O9B C16B 1_555 1_555
O10B Zn4A 1_555 1_555
Zn4B O6 1_555 1_555
C1E H1E 1_555 1_555
C2E C1E 1_555 1_555
H2E C2E 1_555 1_555
C3E C4E 1_555 1_555
C4E C1E 1_555 1_555
C5E C4E 1_555 1_555
H3E C5E 1_555 1_555
C6E C5E 1_555 1_555
H4E C6E 1_555 1_555
C7E C2E 1_555 1_555
C8E C7E 1_555 1_555
O2E C8E 1_555 1_555
O3E Zn2 1_555 1_555
O4E C3E 1_555 1_555
O5E C8E 1_555 1_555
Zn2E O1 1_555 1_555
C1F H1F 1_555 1_555
C2F C1F 1_555 1_555
H2F C2F 1_555 1_555
C3F C4F 1_555 1_555
C4F C1F 1_555 1_555
C5F C4F 1_555 1_555
H3F C5F 1_555 1_555
C6F C5F 1_555 1_555
H4F C6F 1_555 1_555
C7F C2F 1_555 1_555
C8F C7F 1_555 1_555
O2F C8F 1_555 1_555
O3F Zn2E 1_555 1_555
O4F C3F 1_555 1_555
O5F C8F 1_555 1_555
Zn2F O1 1_555 1_555
O2G Zn3 1_555 1_555
O2H Zn3 1_555 1_555
O5D Zn4 1_555 1_555
O5E_2 Zn4A 1_555 1_555
O5I Zn4B 1_555 1_555
O6C Zn3 1_555 1_555
O7E Zn1 1_555 1_555
O7F Zn1 1_555 1_555
O8E Zn2 1_555 1_555
O8F Zn2E 1_555 1_555
Zn1A O7A 1_555 1_555
Zn1B O7B 1_555 1_555
Zn2H O8A 1_555 1_555
Zn2K O8B 1_555 1_555
Zn3B O2F 1_555 1_555
Zn3D O6 1_555 1_555
Zn3D_2 O2E 1_555 1_555
Zn4A_2 O5E 1_555 1_555
Zn4C O5 1_555 1_555
Zn4K O5F 1_555 1_555
C6 C7 1_555 1_555
C14 C15 1_555 1_555
O3 Zn2F 1_555 1_555
O4 Zn2 1_555 1_555
O8 Zn2F 1_555 1_555
O10 Zn4B 1_555 1_555
C14A C15A 1_555 1_555
C16A O10A 1_555 1_555
O9A Zn4A 1_555 1_555
C14B C15B 1_555 1_555
C16B O10B 1_555 1_555
O9B Zn4B 1_555 1_555
C3E O3E 1_555 1_555
C6E C7E 1_555 1_555
O4E Zn2E 1_555 1_555
C3F O3F 1_555 1_555
C6F C7F 1_555 1_555
O4F Zn2F 1_555 1_555
O6C Zn4C 1_555 1_555

#END
