
#######################################################################
#
#                 Cambridge Crystallographic Data Centre
#                                CCDC 
#
#######################################################################
#
# If this CIF has been generated from an entry in the Cambridge 
# Structural Database, then it will include bibliographic, chemical, 
# crystal, experimental, refinement or atomic coordinate data resulting 
# from the CCDC's data processing and validation procedures.
#
#######################################################################

data_FUYCOT
_chemical_formula_moiety         '(C48 H24 O26 Zn8)n'
_symmetry_cell_setting           cubic
_symmetry_space_group_name_H-M   'P 21 3'
_symmetry_Int_Tables_number      198
_space_group_name_Hall           'P 2ac 2ab 3'
loop_
_symmetry_equiv_pos_site_id
_symmetry_equiv_pos_as_xyz
1 x,y,z
2 z,x,y
3 y,z,x
4 1/2-y,-z,1/2+x
5 1/2+z,1/2-x,-y
6 -y,1/2+z,1/2-x
7 1/2-z,-x,1/2+y
8 -z,1/2+x,1/2-y
9 1/2+y,1/2-z,-x
10 1/2-x,-y,1/2+z
11 1/2+x,1/2-y,-z
12 -x,1/2+y,1/2-z
_cell_length_a                   25.3504(6)
_cell_length_b                   25.3504(6)
_cell_length_c                   25.3504(6)
_cell_angle_alpha                90
_cell_angle_beta                 90
_cell_angle_gamma                90
_cell_volume                     16291.3
loop_
_atom_site_label
_atom_site_type_symbol
_atom_site_fract_x
_atom_site_fract_y
_atom_site_fract_z
C1 C 0.6087(4) 0.4871(5) 0.4588(5)
C2 C 0.6656(5) 0.5003(5) 0.4602(5)
C3 C 0.6879(3) 0.5359(3) 0.4256(4)
H1 H 0.6667 0.5532 0.3999
C4 C 0.7412(3) 0.5463(4) 0.4286(4)
H2 H 0.7568 0.5686 0.4028
C5 C 0.7716(5) 0.5264(6) 0.4660(6)
C6 C 0.7480(5) 0.4906(6) 0.5048(5)
H3 H 0.7686 0.4765 0.5328
C7 C 0.6975(6) 0.4783(7) 0.5001(7)
H4 H 0.6823 0.4539 0.5242
C8 C 0.8315(4) 0.5339(4) 0.4731(5)
C9 C 0.4940(9) 0.4659(8) 0.1081(6)
C10 C 0.4819(8) 0.4646(8) 0.2749(5)
C11 C 0.5265(7) 0.4860(8) 0.2511(6)
H5 H 0.5540 0.5001 0.2723
C12 C 0.5307(7) 0.4867(7) 0.1965(7)
H6 H 0.5612 0.5013 0.1803
C13 C 0.4905(8) 0.4661(6) 0.1655(5)
C14 C 0.4459(7) 0.4447(7) 0.1893(7)
H7 H 0.4184 0.4306 0.1681
C15 C 0.4416(7) 0.4439(8) 0.2439(7)
H8 H 0.4112 0.4293 0.2601
C16 C 0.4717(7) 0.4636(8) 0.3313(7)
O1 O 0.5813(3) 0.5214(4) 0.4314(4)
O2 O 0.5923(3) 0.4452(3) 0.4834(3)
O3 O 0.8515(3) 0.5635(3) 0.4391(3)
O4 O 0.8550(3) 0.5112(3) 0.5122(3)
O5 O 0.4731(8) 0.4360(9) 0.0810(9)
O6 O 0.5201(8) 0.5025(7) 0.0929(7)
O7 O 0.4967(11) 0.5046(11) 0.3445(12)
O8 O 0.4446(3) 0.4278(3) 0.3521(3)
O9 O 0.4732(3) 0.4732(3) 0.4732(3)
O10 O 0.9675(3) 0.5325(3) 0.4675(3)
Zn1 Zn 0.42690(7) 0.42690(7) 0.42690(7)
Zn2 Zn 0.52422(6) 0.42720(6) 0.50263(6)
Zn3 Zn 0.92595(5) 0.57405(5) 0.42595(5)
Zn4 Zn 0.92655(6) 0.49579(6) 0.52309(6)
C1A C 0.4588(5) 0.6087(4) 0.4871(5)
C2A C 0.4602(5) 0.6656(5) 0.5003(5)
C3A C 0.4256(4) 0.6879(3) 0.5359(3)
H1A H 0.3999 0.6667 0.5532
C4A C 0.4286(4) 0.7412(3) 0.5463(4)
H2A H 0.4028 0.7568 0.5686
C5A C 0.4660(6) 0.7716(5) 0.5264(6)
C6A C 0.5048(5) 0.7480(5) 0.4906(6)
H3A H 0.5328 0.7686 0.4765
C7A C 0.5001(7) 0.6975(6) 0.4783(7)
H4A H 0.5242 0.6823 0.4539
C8A C 0.4731(5) 0.8315(4) 0.5339(4)
C9A C 0.1081(6) 0.4940(9) 0.4659(8)
C10A C 0.2749(5) 0.4819(8) 0.4646(8)
C11A C 0.2511(6) 0.5265(7) 0.4860(8)
H5A H 0.2723 0.5540 0.5001
C12A C 0.1965(7) 0.5307(7) 0.4867(7)
H6A H 0.1803 0.5612 0.5013
C13A C 0.1655(5) 0.4905(8) 0.4661(6)
C14A C 0.1893(7) 0.4459(7) 0.4447(7)
H7A H 0.1681 0.4184 0.4306
C15A C 0.2439(7) 0.4416(7) 0.4439(8)
H8A H 0.2601 0.4112 0.4293
C16A C 0.3313(7) 0.4717(7) 0.4636(8)
O1A O 0.4314(4) 0.5813(3) 0.5214(4)
O2A O 0.4834(3) 0.5923(3) 0.4452(3)
O3A O 0.4391(3) 0.8515(3) 0.5635(3)
O4A O 0.5122(3) 0.8550(3) 0.5112(3)
O5A O 0.0810(9) 0.4731(8) 0.4360(9)
O6A O 0.0929(7) 0.5201(8) 0.5025(7)
O7A O 0.3445(12) 0.4967(11) 0.5046(11)
O8A O 0.3521(3) 0.4446(3) 0.4278(3)
Zn2A Zn 0.50263(6) 0.52422(6) 0.42720(6)
Zn4A Zn 0.52309(6) 0.92655(6) 0.49579(6)
C1B C 0.4871(5) 0.4588(5) 0.6087(4)
C2B C 0.5003(5) 0.4602(5) 0.6656(5)
C3B C 0.5359(3) 0.4256(4) 0.6879(3)
H1B H 0.5532 0.3999 0.6667
C4B C 0.5463(4) 0.4286(4) 0.7412(3)
H2B H 0.5686 0.4028 0.7568
C5B C 0.5264(6) 0.4660(6) 0.7716(5)
C6B C 0.4906(6) 0.5048(5) 0.7480(5)
H3B H 0.4765 0.5328 0.7686
C7B C 0.4783(7) 0.5001(7) 0.6975(6)
H4B H 0.4539 0.5242 0.6823
C8B C 0.5339(4) 0.4731(5) 0.8315(4)
C9B C 0.4659(8) 0.1081(6) 0.4940(9)
C10B C 0.4646(8) 0.2749(5) 0.4819(8)
C11B C 0.4860(8) 0.2511(6) 0.5265(7)
H5B H 0.5001 0.2723 0.5540
C12B C 0.4867(7) 0.1965(7) 0.5307(7)
H6B H 0.5013 0.1803 0.5612
C13B C 0.4661(6) 0.1655(5) 0.4905(8)
C14B C 0.4447(7) 0.1893(7) 0.4459(7)
H7B H 0.4306 0.1681 0.4184
C15B C 0.4439(8) 0.2439(7) 0.4416(7)
H8B H 0.4293 0.2601 0.4112
C16B C 0.4636(8) 0.3313(7) 0.4717(7)
O1B O 0.5214(4) 0.4314(4) 0.5813(3)
O2B O 0.4452(3) 0.4834(3) 0.5923(3)
O3B O 0.5635(3) 0.4391(3) 0.8515(3)
O4B O 0.5112(3) 0.5122(3) 0.8550(3)
O5B O 0.4360(9) 0.0810(9) 0.4731(8)
O6B O 0.5025(7) 0.0929(7) 0.5201(8)
O7B O 0.5046(11) 0.3445(12) 0.4967(11)
O8B O 0.4278(3) 0.3521(3) 0.4446(3)
Zn2B Zn 0.42720(6) 0.50263(6) 0.52422(6)
Zn4B Zn 0.49579(6) 0.52309(6) 0.92655(6)
O3C O 0.9365(3) 0.5609(3) 0.3515(3)
O3D O 0.9391(3) 0.6485(3) 0.4365(3)
O5F O 0.4190(9) 0.5269(8) 0.9360(9)
O5H O 0.9360(9) 0.4190(9) 0.5269(8)
O5K O 0.5269(8) 0.9360(9) 0.4190(9)
O6D O 0.5929(7) 0.9799(8) 0.4975(7)
O6E O 0.4975(7) 0.5929(7) 0.9799(8)
O6I O 0.9799(8) 0.4975(7) 0.5929(7)
O10A O 0.4675(3) 0.9675(3) 0.5325(3)
O10B O 0.5325(3) 0.4675(3) 0.9675(3)
Zn3A Zn 0.42595(5) 0.92595(5) 0.57405(5)
Zn3B Zn 0.57405(5) 0.42595(5) 0.92595(5)
Zn4C Zn 0.00421(6) 0.47691(6) 0.42655(6)
Zn4C_2 Zn 1.00421(6) 0.47691(6) 0.42655(6)
Zn4D Zn 0.02309(6) 0.57345(6) 0.50421(6)
Zn4D_2 Zn 1.02309(6) 0.57345(6) 0.50421(6)
Zn4E Zn 0.50421(6) 0.02309(6) 0.57345(6)
Zn4G Zn 0.47691(6) 0.42655(6) 0.00421(6)
Zn4I Zn 0.57345(6) 0.50421(6) 0.02309(6)
Zn4J Zn 0.42655(6) 0.00421(6) 0.47691(6)
loop_
_geom_bond_atom_site_label_1
_geom_bond_atom_site_label_2
_geom_bond_site_symmetry_1
_geom_bond_site_symmetry_2
C1 C2 1_555 1_555
C2 C3 1_555 1_555
C3 H1 1_555 1_555
C4 C3 1_555 1_555
H2 C4 1_555 1_555
C5 C4 1_555 1_555
C6 C5 1_555 1_555
H3 C6 1_555 1_555
C7 C2 1_555 1_555
H4 C7 1_555 1_555
C8 C5 1_555 1_555
C9 C13 1_555 1_555
C10 C11 1_555 1_555
C11 H5 1_555 1_555
C12 C11 1_555 1_555
H6 C12 1_555 1_555
C13 C12 1_555 1_555
C14 C13 1_555 1_555
H7 C14 1_555 1_555
C15 C10 1_555 1_555
H8 C15 1_555 1_555
C16 C10 1_555 1_555
O1 C1 1_555 1_555
O2 C1 1_555 1_555
O3 C8 1_555 1_555
O4 C8 1_555 1_555
O5 C9 1_555 1_555
O6 C9 1_555 1_555
O7 C16 1_555 1_555
O8 C16 1_555 1_555
O9 Zn1 1_555 1_555
O10 Zn3 1_555 1_555
Zn1 O8 1_555 1_555
Zn2 O2 1_555 1_555
Zn3 O3 1_555 1_555
Zn4 O4 1_555 1_555
C1A C2A 1_555 1_555
C2A C3A 1_555 1_555
C3A H1A 1_555 1_555
C4A C3A 1_555 1_555
H2A C4A 1_555 1_555
C5A C4A 1_555 1_555
C6A C5A 1_555 1_555
H3A C6A 1_555 1_555
C7A C2A 1_555 1_555
H4A C7A 1_555 1_555
C8A C5A 1_555 1_555
C9A C13A 1_555 1_555
C10A C11A 1_555 1_555
C11A H5A 1_555 1_555
C12A C11A 1_555 1_555
H6A C12A 1_555 1_555
C13A C12A 1_555 1_555
C14A C13A 1_555 1_555
H7A C14A 1_555 1_555
C15A C10A 1_555 1_555
H8A C15A 1_555 1_555
C16A C10A 1_555 1_555
O1A C1A 1_555 1_555
O2A C1A 1_555 1_555
O3A C8A 1_555 1_555
O4A C8A 1_555 1_555
O5A C9A 1_555 1_555
O6A C9A 1_555 1_555
O7A C16A 1_555 1_555
O8A Zn1 1_555 1_555
Zn2A O1 1_555 1_555
Zn4A O4A 1_555 1_555
C1B C2B 1_555 1_555
C2B C3B 1_555 1_555
C3B H1B 1_555 1_555
C4B C3B 1_555 1_555
H2B C4B 1_555 1_555
C5B C4B 1_555 1_555
C6B C5B 1_555 1_555
H3B C6B 1_555 1_555
C7B C2B 1_555 1_555
H4B C7B 1_555 1_555
C8B C5B 1_555 1_555
C9B C13B 1_555 1_555
C10B C11B 1_555 1_555
C11B H5B 1_555 1_555
C12B C11B 1_555 1_555
H6B C12B 1_555 1_555
C13B C12B 1_555 1_555
C14B C13B 1_555 1_555
H7B C14B 1_555 1_555
C15B C10B 1_555 1_555
H8B C15B 1_555 1_555
C16B C10B 1_555 1_555
O1B Zn2 1_555 1_555
O2B C1B 1_555 1_555
O3B C8B 1_555 1_555
O4B C8B 1_555 1_555
O5B C9B 1_555 1_555
O6B C9B 1_555 1_555
O7B Zn2 1_555 1_555
O8B Zn1 1_555 1_555
Zn2B O9 1_555 1_555
Zn4B O4B 1_555 1_555
O3C Zn3 1_555 1_555
O3D Zn3 1_555 1_555
O5F Zn4B 1_555 1_555
O5H Zn4 1_555 1_555
O5K Zn4A 1_555 1_555
O6D Zn4A 1_555 1_555
O6E Zn4B 1_555 1_555
O6I Zn4 1_555 1_555
O10A Zn4A 1_555 1_555
O10B Zn4B 1_555 1_555
Zn3A O3A 1_555 1_555
Zn3B O3B 1_555 1_555
Zn4C O5A 1_555 1_555
Zn4C_2 O10 1_555 1_555
Zn4D O6A 1_555 1_555
Zn4D_2 O10 1_555 1_555
Zn4E O6B 1_555 1_555
Zn4G O5 1_555 1_555
Zn4I O6 1_555 1_555
Zn4J O5B 1_555 1_555
C6 C7 1_555 1_555
C14 C15 1_555 1_555
O7 Zn2A 1_555 1_555
O9 Zn2 1_555 1_555
O9 Zn2A 1_555 1_555
O10 Zn4 1_555 1_555
C6A C7A 1_555 1_555
C14A C15A 1_555 1_555
C16A O8A 1_555 1_555
O1A Zn2B 1_555 1_555
O2A Zn2A 1_555 1_555
O7A Zn2B 1_555 1_555
C1B O1B 1_555 1_555
C6B C7B 1_555 1_555
C14B C15B 1_555 1_555
C16B O7B 1_555 1_555
C16B O8B 1_555 1_555
O2B Zn2B 1_555 1_555
O10A Zn3A 1_555 1_555
O10B Zn3B 1_555 1_555

#END
