
#######################################################################
#
#                 Cambridge Crystallographic Data Centre
#                                CCDC 
#
#######################################################################
#
# If this CIF has been generated from an entry in the Cambridge 
# Structural Database, then it will include bibliographic, chemical, 
# crystal, experimental, refinement or atomic coordinate data resulting 
# from the CCDC's data processing and validation procedures.
#
#######################################################################

data_OKUSOE
_chemical_formula_moiety         '(C40 H20 Cu1 N2 O8)n'
_symmetry_cell_setting           cubic
_symmetry_space_group_name_H-M   'F 2 3'
_symmetry_Int_Tables_number      196
_space_group_name_Hall           'F 2 2 3'
loop_
_symmetry_equiv_pos_site_id
_symmetry_equiv_pos_as_xyz
1 x,y,z
2 -x,-y,z
3 x,-y,-z
4 -x,y,-z
5 z,x,y
6 -z,-x,y
7 z,-x,-y
8 -z,x,-y
9 y,z,x
10 y,-z,-x
11 -y,z,-x
12 -y,-z,x
13 x,1/2+y,1/2+z
14 -x,1/2-y,1/2+z
15 x,1/2-y,1/2-z
16 -x,1/2+y,1/2-z
17 z,1/2+x,1/2+y
18 -z,1/2-x,1/2+y
19 z,1/2-x,1/2-y
20 -z,1/2+x,1/2-y
21 y,1/2+z,1/2+x
22 y,1/2-z,1/2-x
23 -y,1/2+z,1/2-x
24 -y,1/2-z,1/2+x
25 1/2+x,y,1/2+z
26 1/2-x,-y,1/2+z
27 1/2+x,-y,1/2-z
28 1/2-x,y,1/2-z
29 1/2+z,x,1/2+y
30 1/2-z,-x,1/2+y
31 1/2+z,-x,1/2-y
32 1/2-z,x,1/2-y
33 1/2+y,z,1/2+x
34 1/2+y,-z,1/2-x
35 1/2-y,z,1/2-x
36 1/2-y,-z,1/2+x
37 1/2+x,1/2+y,z
38 1/2-x,1/2-y,z
39 1/2+x,1/2-y,-z
40 1/2-x,1/2+y,-z
41 1/2+z,1/2+x,y
42 1/2-z,1/2-x,y
43 1/2+z,1/2-x,-y
44 1/2-z,1/2+x,-y
45 1/2+y,1/2+z,x
46 1/2+y,1/2-z,-x
47 1/2-y,1/2+z,-x
48 1/2-y,1/2-z,x
_cell_length_a                   46.42740
_cell_length_b                   46.42740
_cell_length_c                   46.42740
_cell_angle_alpha                90
_cell_angle_beta                 90
_cell_angle_gamma                90
_cell_volume                     100074
loop_
_atom_site_label
_atom_site_type_symbol
_atom_site_fract_x
_atom_site_fract_y
_atom_site_fract_z
O1 O 0.49965 0.46023 0.14758
O2 O 0.50035 0.35161 0.03896
N1 N 0.50341 0.32711 0.17215
C1 C 0.52883 0.26649 0.22082
C2 C 0.52851 0.28752 0.19925
C3 C 0.50089 0.40126 0.20107
C4 C 0.50190 0.37103 0.20207
C5 C 0.50191 0.35600 0.17605
C6 C 0.50109 0.37029 0.14996
C7 C 0.50003 0.40028 0.14823
C8 C 0.50001 0.41617 0.17430
C9 C 0.49925 0.44675 0.17199
C10 C 0.50076 0.32720 0.05244
C11 C 0.50176 0.32491 0.08305
C12 C 0.50115 0.35097 0.09892
C13 C 0.50194 0.34927 0.12892
C14 C 0.50346 0.32323 0.14323
C15 C 0.50411 0.29720 0.12821
C16 C 0.50330 0.29818 0.09797
C17 C 0.50387 0.30444 0.19492
C18 C 0.48027 0.30012 0.21218
C19 C 0.48040 0.27882 0.23348
C20 C 0.50432 0.26188 0.23803
H1 H 0.54805 0.25358 0.22383
H2 H 0.54747 0.29079 0.18603
H3 H 0.50096 0.41302 0.22124
H4 H 0.50285 0.35989 0.22255
H5 H 0.49952 0.41088 0.12744
H6 H 0.49985 0.37173 0.08831
H7 H 0.50500 0.27673 0.13938
H8 H 0.50372 0.27800 0.08623
H9 H 0.46114 0.31310 0.20893
H10 H 0.46135 0.27577 0.24664
Cu1 Cu 0.50000 0.50000 0.14412
O3 O 0.50093 0.30388 0.03872
O4 O 0.49906 0.46047 0.19531
O1N O 0.49965 0.03977 0.35242
O2N O 0.50035 0.14839 0.46104
N1N N 0.50341 0.17289 0.32785
C1N C 0.52883 0.23351 0.27918
C2N C 0.52851 0.21248 0.30075
C3N C 0.50089 0.09874 0.29893
C4N C 0.50190 0.12897 0.29793
C5N C 0.50191 0.14400 0.32395
C6N C 0.50109 0.12971 0.35004
C7N C 0.50003 0.09972 0.35177
C8N C 0.50001 0.08383 0.32570
C9N C 0.49925 0.05325 0.32801
C10N C 0.50076 0.17280 0.44756
C11N C 0.50176 0.17509 0.41695
C12N C 0.50115 0.14903 0.40108
C13N C 0.50194 0.15073 0.37108
C14N C 0.50346 0.17677 0.35677
C15N C 0.50411 0.20280 0.37179
C16N C 0.50330 0.20182 0.40203
C17N C 0.50387 0.19556 0.30508
C18N C 0.48027 0.19988 0.28782
C19N C 0.48040 0.22118 0.26652
C20N C 0.50432 0.23812 0.26197
H1N H 0.54805 0.24642 0.27617
H2N H 0.54747 0.20921 0.31397
H3N H 0.50096 0.08698 0.27876
H4N H 0.50285 0.14011 0.27745
H5N H 0.49952 0.08912 0.37256
H6N H 0.49985 0.12827 0.41169
H7N H 0.50500 0.22327 0.36062
H8N H 0.50372 0.22200 0.41377
H9N H 0.46114 0.18690 0.29107
H10N H 0.46135 0.22423 0.25336
O3N O 0.50093 0.19612 0.46128
O4N O 0.49906 0.03953 0.30469
O1A O 0.50035 0.53977 0.14758
O2DA O 0.53896 0.49965 0.14839
O2EA O 0.46104 0.50035 0.14839
Cu1H Cu 0.50000 0.14412 0.50000
Cu1N Cu 0.50000 0.00000 0.35588
Cu1U Cu 0.50000 0.35588 0.00000
loop_
_geom_bond_atom_site_label_1
_geom_bond_atom_site_label_2
_geom_bond_site_symmetry_1
_geom_bond_site_symmetry_2
O1 C9 1_555 1_555
O2 C10 1_555 1_555
N1 C5 1_555 1_555
C1 C2 1_555 1_555
C2 C17 1_555 1_555
C3 C4 1_555 1_555
C4 C5 1_555 1_555
C5 C6 1_555 1_555
C6 C7 1_555 1_555
C7 C8 1_555 1_555
C8 C3 1_555 1_555
C9 C8 1_555 1_555
C10 C11 1_555 1_555
C11 C12 1_555 1_555
C12 C13 1_555 1_555
C13 C6 1_555 1_555
C14 N1 1_555 1_555
C15 C14 1_555 1_555
C16 C11 1_555 1_555
C17 N1 1_555 1_555
C18 C17 1_555 1_555
C19 C18 1_555 1_555
C20 C1 1_555 1_555
H1 C1 1_555 1_555
H2 C2 1_555 1_555
H3 C3 1_555 1_555
H4 C4 1_555 1_555
H5 C7 1_555 1_555
H6 C12 1_555 1_555
H7 C15 1_555 1_555
H8 C16 1_555 1_555
H9 C18 1_555 1_555
H10 C19 1_555 1_555
Cu1 O1 1_555 1_555
O3 C10 1_555 1_555
O4 C9 1_555 1_555
O1N C9N 1_555 1_555
O2N C10N 1_555 1_555
N1N C5N 1_555 1_555
C1N C2N 1_555 1_555
C2N C17N 1_555 1_555
C3N C4N 1_555 1_555
C4N C5N 1_555 1_555
C5N C6N 1_555 1_555
C6N C7N 1_555 1_555
C7N C8N 1_555 1_555
C8N C3N 1_555 1_555
C9N C8N 1_555 1_555
C10N C11N 1_555 1_555
C11N C12N 1_555 1_555
C12N C13N 1_555 1_555
C13N C6N 1_555 1_555
C14N N1N 1_555 1_555
C15N C14N 1_555 1_555
C16N C11N 1_555 1_555
C17N N1N 1_555 1_555
C18N C17N 1_555 1_555
C19N C18N 1_555 1_555
C20N C20 1_555 1_555
H1N C1N 1_555 1_555
H2N C2N 1_555 1_555
H3N C3N 1_555 1_555
H4N C4N 1_555 1_555
H5N C7N 1_555 1_555
H6N C12N 1_555 1_555
H7N C15N 1_555 1_555
H8N C16N 1_555 1_555
H9N C18N 1_555 1_555
H10N C19N 1_555 1_555
O3N C10N 1_555 1_555
O4N C9N 1_555 1_555
O1A Cu1 1_555 1_555
O2DA Cu1 1_555 1_555
O2EA Cu1 1_555 1_555
Cu1H O2N 1_555 1_555
Cu1N O1N 1_555 1_555
Cu1U O2 1_555 1_555
C13 C14 1_555 1_555
C15 C16 1_555 1_555
C19 C20 1_555 1_555
C1N C20N 1_555 1_555
C13N C14N 1_555 1_555
C15N C16N 1_555 1_555
C19N C20N 1_555 1_555

#END
