
#######################################################################
#
#                 Cambridge Crystallographic Data Centre
#                                CCDC 
#
#######################################################################
#
# If this CIF has been generated from an entry in the Cambridge 
# Structural Database, then it will include bibliographic, chemical, 
# crystal, experimental, refinement or atomic coordinate data resulting 
# from the CCDC's data processing and validation procedures.
#
#######################################################################

data_OKUTAR
_chemical_formula_moiety         '(C58 H92 Cu2 N2 O8)n'
_symmetry_cell_setting           cubic
_symmetry_space_group_name_H-M   'P a -3'
_symmetry_Int_Tables_number      205
_space_group_name_Hall           '-P 2ac 2ab 3'
loop_
_symmetry_equiv_pos_site_id
_symmetry_equiv_pos_as_xyz
1 x,y,z
2 1/2-x,-y,1/2+z
3 1/2+x,1/2-y,-z
4 -x,1/2+y,1/2-z
5 z,x,y
6 1/2-z,-x,1/2+y
7 1/2+z,1/2-x,-y
8 -z,1/2+x,1/2-y
9 y,z,x
10 1/2+y,1/2-z,-x
11 -y,1/2+z,1/2-x
12 1/2-y,-z,1/2+x
13 -x,-y,-z
14 1/2+x,y,1/2-z
15 1/2-x,1/2+y,z
16 x,1/2-y,1/2+z
17 -z,-x,-y
18 1/2+z,x,1/2-y
19 1/2-z,1/2+x,y
20 z,1/2-x,1/2+y
21 -y,-z,-x
22 1/2-y,1/2+z,x
23 y,1/2-z,1/2+x
24 1/2+y,z,1/2-x
_cell_length_a                   36.16010
_cell_length_b                   36.16010
_cell_length_c                   36.16010
_cell_angle_alpha                90
_cell_angle_beta                 90
_cell_angle_gamma                90
_cell_volume                     47281.2
loop_
_atom_site_label
_atom_site_type_symbol
_atom_site_fract_x
_atom_site_fract_y
_atom_site_fract_z
_atom_site_U_iso_or_equiv
_atom_site_thermal_displace_type
Cu1 Cu 0.08624 0.67345 0.32873 0.0150 Uiso
Cu2 Cu 0.06146 0.62778 0.37436 0.0150 Uiso
O1 O 0.11019 0.63401 0.30952 0.0150 Uiso
O2 O 0.09280 0.59429 0.35235 0.0150 Uiso
O3 O -0.05512 0.20613 0.14711 0.0150 Uiso
O4 O -0.03046 0.16510 0.10944 0.0150 Uiso
O5 O 0.18058 0.36218 0.37908 0.0150 Uiso
O6 O 0.14399 0.40512 0.40230 0.0150 Uiso
O7 O 0.15956 0.19914 -0.04529 0.0150 Uiso
O8 O 0.11543 0.16086 -0.02779 0.0150 Uiso
N1 N 0.17605 0.48127 0.25006 0.0150 Uiso
N2 N 0.08879 0.28896 0.08779 0.0150 Uiso
C1 C 0.11083 0.60153 0.32302 0.0150 Uiso
C2 C -0.03132 0.19765 0.12265 0.0150 Uiso
C3 C 0.16630 0.39433 0.37745 0.0150 Uiso
C4 C 0.13325 0.19088 -0.02353 0.0150 Uiso
C5 C 0.13144 0.57193 0.30368 0.0150 Uiso
C6 C 0.14195 0.53936 0.32262 0.0150 Uiso
C7 C 0.15847 0.51102 0.30225 0.0150 Uiso
C8 C 0.16329 0.51349 0.26443 0.0150 Uiso
C9 C 0.15319 0.54527 0.24509 0.0150 Uiso
C10 C 0.13779 0.57480 0.26505 0.0150 Uiso
C11 C 0.17409 0.41798 0.34519 0.0150 Uiso
C12 C 0.16515 0.45610 0.34518 0.0150 Uiso
C13 C 0.16889 0.47564 0.31202 0.0150 Uiso
C14 C 0.17989 0.45856 0.27969 0.0150 Uiso
C15 C 0.18914 0.42106 0.27924 0.0150 Uiso
C16 C 0.18690 0.40110 0.31227 0.0150 Uiso
C17 C 0.12328 0.21652 0.00648 0.0150 Uiso
C18 C 0.08951 0.21228 0.02558 0.0150 Uiso
C19 C 0.08042 0.23850 0.05221 0.0150 Uiso
C20 C 0.10339 0.26773 0.06063 0.0150 Uiso
C21 C 0.13736 0.27209 0.04291 0.0150 Uiso
C22 C 0.14728 0.24611 0.01585 0.0150 Uiso
C23 C -0.00323 0.22507 0.11127 0.0150 Uiso
C24 C 0.02115 0.21723 0.08177 0.0150 Uiso
C25 C 0.05054 0.24127 0.07555 0.0150 Uiso
C26 C 0.05639 0.27234 0.09689 0.0150 Uiso
C27 C 0.03232 0.28135 0.12568 0.0150 Uiso
C28 C 0.00226 0.25761 0.13265 0.0150 Uiso
C29 C 0.10544 0.32066 0.10465 0.0150 Uiso
C30 C 0.11602 0.31950 0.14184 0.0150 Uiso
C31 C 0.13170 0.35047 0.15862 0.0150 Uiso
C32 C 0.13743 0.38325 0.13839 0.0150 Uiso
C33 C 0.12825 0.38361 0.10052 0.0150 Uiso
C34 C 0.11208 0.35264 0.08390 0.0150 Uiso
C35 C 0.16921 0.46766 0.21334 0.0150 Uiso
C36 C 0.13246 0.46509 0.20134 0.0150 Uiso
C37 C 0.12258 0.43973 0.17403 0.0150 Uiso
C38 C 0.14942 0.41667 0.15785 0.0150 Uiso
C39 C 0.18685 0.42245 0.16700 0.0150 Uiso
C40 C 0.19655 0.44738 0.19489 0.0150 Uiso
H1 H 0.13683 0.53607 0.35192 0.0180 Uiso
H2 H 0.15680 0.54719 0.21544 0.0180 Uiso
H3 H 0.12938 0.59935 0.25010 0.0180 Uiso
H4 H 0.15434 0.46955 0.36963 0.0180 Uiso
H5 H 0.19715 0.40705 0.25411 0.0180 Uiso
H6 H 0.19330 0.37186 0.31163 0.0180 Uiso
H7 H 0.07063 0.18992 0.01930 0.0180 Uiso
H8 H 0.15567 0.29481 0.04955 0.0180 Uiso
H9 H 0.17365 0.24905 0.00219 0.0180 Uiso
H10 H 0.01844 0.19228 0.06545 0.0180 Uiso
H11 H 0.03705 0.30529 0.14297 0.0180 Uiso
H12 H -0.01587 0.26391 0.15560 0.0180 Uiso
H13 H 0.11089 0.29495 0.15817 0.0180 Uiso
H14 H 0.13753 0.34917 0.18793 0.0180 Uiso
H15 H 0.13278 0.40807 0.08391 0.0180 Uiso
H16 H 0.11088 0.48006 0.21570 0.0180 Uiso
H17 H 0.09350 0.43601 0.16814 0.0180 Uiso
H18 H 0.20842 0.40593 0.15444 0.0180 Uiso
H19 H 0.22490 0.44849 0.20432 0.0180 Uiso
H20 H 0.10428 0.35341 0.05336 0.0180 Uiso
Cu1C Cu -0.08624 0.17345 0.17127 0.0150 Uiso
Cu1I Cu 0.17345 0.17127 -0.08624 0.0150 Uiso
Cu1W Cu 0.17345 0.32873 0.41376 0.0150 Uiso
Cu2C Cu -0.06146 0.12778 0.12564 0.0150 Uiso
Cu2I Cu 0.12778 0.12564 -0.06146 0.0150 Uiso
Cu2W Cu 0.12778 0.37436 0.43854 0.0150 Uiso
O3C O 0.05512 0.70613 0.35289 0.0150 Uiso
O4C O 0.03046 0.66510 0.39056 0.0150 Uiso
O5R O 0.12092 0.68058 0.36218 0.0150 Uiso
O6R O 0.09770 0.64399 0.40512 0.0150 Uiso
O7G O 0.04529 0.65956 0.30086 0.0150 Uiso
O8G O 0.02779 0.61543 0.33914 0.0150 Uiso
C41 C 0.07310 0.43063 0.34597 0.0500 Uiso
H21 H 0.07366 0.42286 0.37562 0.0600 Uiso
H22 H 0.08037 0.46025 0.34301 0.0600 Uiso
H23 H 0.09329 0.41350 0.33051 0.0600 Uiso
H24 H 0.04501 0.42595 0.33471 0.0600 Uiso
C42 C 0.29971 0.23508 0.03131 0.0500 Uiso
H25 H 0.30050 0.25268 0.00623 0.0600 Uiso
H26 H 0.30224 0.25265 0.05631 0.0600 Uiso
H27 H 0.27318 0.21976 0.03233 0.0600 Uiso
H28 H 0.32289 0.21508 0.03048 0.0600 Uiso
C43 C 0.14049 0.04394 0.49523 0.0500 Uiso
H29 H 0.16834 0.04822 0.50734 0.0600 Uiso
H30 H 0.12567 0.07078 0.49388 0.0600 Uiso
H31 H 0.12486 0.02418 0.51262 0.0600 Uiso
H32 H 0.14337 0.03223 0.46705 0.0600 Uiso
C44 C 0.12762 0.05605 0.13465 0.0500 Uiso
H33 H 0.13089 0.04182 0.10765 0.0600 Uiso
H34 H 0.14247 0.04029 0.15638 0.0600 Uiso
H35 H 0.13930 0.08435 0.13288 0.0600 Uiso
H36 H 0.09781 0.05766 0.14179 0.0600 Uiso
C45 C 0.41355 0.00093 0.42895 0.0500 Uiso
H37 H 0.41542 0.02160 0.40636 0.0600 Uiso
H38 H 0.38420 -0.00290 0.43691 0.0600 Uiso
H39 H 0.42520 -0.02578 0.41934 0.0600 Uiso
H40 H 0.42946 0.01094 0.45319 0.0600 Uiso
C46 C 0.09859 0.38902 0.25059 0.0500 Uiso
H41 H 0.09312 0.36945 0.27355 0.0600 Uiso
H42 H 0.08110 0.38177 0.22651 0.0600 Uiso
H43 H 0.09213 0.41759 0.25967 0.0600 Uiso
H44 H 0.12810 0.38712 0.24271 0.0600 Uiso
C47 C 0.42369 0.39577 0.25813 0.0500 Uiso
H45 H 0.43972 0.40566 0.23395 0.0600 Uiso
H46 H 0.43945 0.40085 0.28396 0.0600 Uiso
H47 H 0.39699 0.41074 0.25931 0.0600 Uiso
H48 H 0.41849 0.36569 0.25529 0.0600 Uiso
C48 C 0.45952 0.48342 0.30675 0.0500 Uiso
H49 H 0.43731 0.47555 0.28713 0.0600 Uiso
H50 H 0.45366 0.47145 0.33435 0.0600 Uiso
H51 H 0.46085 0.51398 0.30899 0.0600 Uiso
H52 H 0.48635 0.47268 0.29655 0.0600 Uiso
C49 C 0.06374 0.43710 0.49388 0.0500 Uiso
H53 H 0.08775 0.45606 0.49597 0.0600 Uiso
H54 H 0.06683 0.41948 0.46898 0.0600 Uiso
H55 H 0.06258 0.41936 0.51888 0.0600 Uiso
H56 H 0.03788 0.45348 0.49174 0.0600 Uiso
C50 C 0.24620 0.31690 0.33937 0.0500 Uiso
H57 H 0.27164 0.30021 0.34314 0.0600 Uiso
H58 H 0.22379 0.30541 0.35683 0.0600 Uiso
H59 H 0.25179 0.34580 0.34778 0.0600 Uiso
H60 H 0.23770 0.31625 0.30989 0.0600 Uiso
C51 C 0.38237 0.11146 0.02287 0.0500 Uiso
H61 H 0.40224 0.10845 0.04605 0.0600 Uiso
H62 H 0.39590 0.10313 -0.00328 0.0600 Uiso
H63 H 0.37345 0.14069 0.02082 0.0600 Uiso
H64 H 0.35799 0.09358 0.02789 0.0600 Uiso
C52 C 0.15340 0.30250 0.29174 0.0500 Uiso
H65 H 0.16310 0.30929 0.32004 0.0600 Uiso
H66 H 0.17170 0.28110 0.27955 0.0600 Uiso
H67 H 0.12465 0.29181 0.29313 0.0600 Uiso
H68 H 0.15409 0.32778 0.27435 0.0600 Uiso
C53 C 0.26345 0.28289 0.42901 0.0500 Uiso
H69 H 0.25218 0.26672 0.40554 0.0600 Uiso
H70 H 0.24346 0.28256 0.45222 0.0600 Uiso
H71 H 0.26836 0.31176 0.41999 0.0600 Uiso
H72 H 0.28990 0.27047 0.43822 0.0600 Uiso
C54 C 0.04050 0.26409 0.45315 0.0500 Uiso
H73 H 0.02071 0.26185 0.42989 0.0600 Uiso
H74 H 0.02512 0.26568 0.47965 0.0600 Uiso
H75 H 0.05713 0.28945 0.44930 0.0600 Uiso
H76 H 0.05916 0.23971 0.45341 0.0600 Uiso
C55 C 0.26282 0.11300 0.20150 0.0500 Uiso
H77 H 0.25302 0.08640 0.21320 0.0600 Uiso
H78 H 0.29332 0.11209 0.19821 0.0600 Uiso
H79 H 0.24973 0.11761 0.17417 0.0600 Uiso
H80 H 0.25527 0.13587 0.22049 0.0600 Uiso
C56 C 0.35628 0.48524 0.01594 0.0500 Uiso
H81 H 0.35239 0.46585 0.03929 0.0600 Uiso
H82 H 0.33211 0.48355 -0.00280 0.0600 Uiso
H83 H 0.35857 0.51374 0.02691 0.0600 Uiso
H84 H 0.38182 0.47776 0.00072 0.0600 Uiso
C57 C 0.37236 0.43344 0.34014 0.0500 Uiso
H85 H 0.34869 0.44136 0.35793 0.0600 Uiso
H86 H 0.39652 0.42641 0.35772 0.0600 Uiso
H87 H 0.37955 0.45686 0.32170 0.0600 Uiso
H88 H 0.36463 0.40910 0.32321 0.0600 Uiso
C58 C 0.22798 0.31814 0.22829 0.0500 Uiso
H89 H 0.24333 0.32910 0.20413 0.0600 Uiso
H90 H 0.24401 0.29531 0.24106 0.0600 Uiso
H91 H 0.22392 0.34056 0.24881 0.0600 Uiso
H92 H 0.20067 0.30762 0.21909 0.0600 Uiso
loop_
_geom_bond_atom_site_label_1
_geom_bond_atom_site_label_2
_geom_bond_site_symmetry_1
_geom_bond_site_symmetry_2
Cu1 O1 1_555 1_555
Cu2 O2 1_555 1_555
O1 C1 1_555 1_555
O2 C1 1_555 1_555
O3 C2 1_555 1_555
O4 C2 1_555 1_555
O5 C3 1_555 1_555
O6 C3 1_555 1_555
O7 C4 1_555 1_555
O8 C4 1_555 1_555
N1 C8 1_555 1_555
N2 C20 1_555 1_555
C1 C5 1_555 1_555
C2 C23 1_555 1_555
C3 C11 1_555 1_555
C4 C17 1_555 1_555
C5 C6 1_555 1_555
C6 C7 1_555 1_555
C7 C8 1_555 1_555
C8 C9 1_555 1_555
C9 C10 1_555 1_555
C10 C5 1_555 1_555
C11 C12 1_555 1_555
C12 C13 1_555 1_555
C13 C7 1_555 1_555
C14 N1 1_555 1_555
C15 C14 1_555 1_555
C16 C11 1_555 1_555
C17 C18 1_555 1_555
C18 C19 1_555 1_555
C19 C20 1_555 1_555
C20 C21 1_555 1_555
C21 C22 1_555 1_555
C22 C17 1_555 1_555
C23 C24 1_555 1_555
C24 C25 1_555 1_555
C25 C19 1_555 1_555
C26 N2 1_555 1_555
C27 C26 1_555 1_555
C28 C23 1_555 1_555
C29 N2 1_555 1_555
C30 C29 1_555 1_555
C31 C30 1_555 1_555
C32 C31 1_555 1_555
C33 C32 1_555 1_555
C34 C29 1_555 1_555
C35 N1 1_555 1_555
C36 C35 1_555 1_555
C37 C36 1_555 1_555
C38 C32 1_555 1_555
C39 C38 1_555 1_555
C40 C35 1_555 1_555
H1 C6 1_555 1_555
H2 C9 1_555 1_555
H3 C10 1_555 1_555
H4 C12 1_555 1_555
H5 C15 1_555 1_555
H6 C16 1_555 1_555
H7 C18 1_555 1_555
H8 C21 1_555 1_555
H9 C22 1_555 1_555
H10 C24 1_555 1_555
H11 C27 1_555 1_555
H12 C28 1_555 1_555
H13 C30 1_555 1_555
H14 C31 1_555 1_555
H15 C33 1_555 1_555
H16 C36 1_555 1_555
H17 C37 1_555 1_555
H18 C39 1_555 1_555
H19 C40 1_555 1_555
H20 C34 1_555 1_555
C41 H21 1_555 1_555
H22 C41 1_555 1_555
H23 C41 1_555 1_555
H24 C41 1_555 1_555
C42 H25 1_555 1_555
H26 C42 1_555 1_555
H27 C42 1_555 1_555
H28 C42 1_555 1_555
C43 H29 1_555 1_555
H30 C43 1_555 1_555
H31 C43 1_555 1_555
H32 C43 1_555 1_555
C44 H33 1_555 1_555
H34 C44 1_555 1_555
H35 C44 1_555 1_555
H36 C44 1_555 1_555
C45 H37 1_555 1_555
H38 C45 1_555 1_555
H39 C45 1_555 1_555
H40 C45 1_555 1_555
C46 H41 1_555 1_555
H42 C46 1_555 1_555
H43 C46 1_555 1_555
H44 C46 1_555 1_555
C47 H45 1_555 1_555
H46 C47 1_555 1_555
H47 C47 1_555 1_555
H48 C47 1_555 1_555
C48 H49 1_555 1_555
H50 C48 1_555 1_555
H51 C48 1_555 1_555
H52 C48 1_555 1_555
C49 H53 1_555 1_555
H54 C49 1_555 1_555
H55 C49 1_555 1_555
H56 C49 1_555 1_555
C50 H57 1_555 1_555
H58 C50 1_555 1_555
H59 C50 1_555 1_555
H60 C50 1_555 1_555
C51 H61 1_555 1_555
H62 C51 1_555 1_555
H63 C51 1_555 1_555
H64 C51 1_555 1_555
C52 H65 1_555 1_555
H66 C52 1_555 1_555
H67 C52 1_555 1_555
H68 C52 1_555 1_555
C53 H69 1_555 1_555
H70 C53 1_555 1_555
H71 C53 1_555 1_555
H72 C53 1_555 1_555
C54 H73 1_555 1_555
H74 C54 1_555 1_555
H75 C54 1_555 1_555
H76 C54 1_555 1_555
C55 H77 1_555 1_555
H78 C55 1_555 1_555
H79 C55 1_555 1_555
H80 C55 1_555 1_555
C56 H81 1_555 1_555
H82 C56 1_555 1_555
H83 C56 1_555 1_555
H84 C56 1_555 1_555
C57 H85 1_555 1_555
H86 C57 1_555 1_555
H87 C57 1_555 1_555
H88 C57 1_555 1_555
C58 H89 1_555 1_555
H90 C58 1_555 1_555
H91 C58 1_555 1_555
H92 C58 1_555 1_555
Cu1C O3 1_555 1_555
Cu1I O7 1_555 1_555
Cu1W O5 1_555 1_555
Cu2C O4 1_555 1_555
Cu2I O8 1_555 1_555
Cu2W O6 1_555 1_555
O3C Cu1 1_555 1_555
O4C Cu2 1_555 1_555
O5R Cu1 1_555 1_555
O6R Cu2 1_555 1_555
O7G Cu1 1_555 1_555
O8G Cu2 1_555 1_555
C13 C14 1_555 1_555
C15 C16 1_555 1_555
C25 C26 1_555 1_555
C27 C28 1_555 1_555
C33 C34 1_555 1_555
C37 C38 1_555 1_555
C39 C40 1_555 1_555

#END
