
#######################################################################
#
#                 Cambridge Crystallographic Data Centre
#                                CCDC 
#
#######################################################################
#
# If this CIF has been generated from an entry in the Cambridge 
# Structural Database, then it will include bibliographic, chemical, 
# crystal, experimental, refinement or atomic coordinate data resulting 
# from the CCDC's data processing and validation procedures.
#
#######################################################################

data_OKUTEV
_chemical_formula_moiety         '(C89 H216 Cu2 N2 O8)n'
_symmetry_cell_setting           cubic
_symmetry_space_group_name_H-M   'P a -3'
_symmetry_Int_Tables_number      205
_space_group_name_Hall           '-P 2ac 2ab 3'
loop_
_symmetry_equiv_pos_site_id
_symmetry_equiv_pos_as_xyz
1 x,y,z
2 1/2-x,-y,1/2+z
3 -x,1/2+y,1/2-z
4 1/2+x,1/2-y,-z
5 z,x,y
6 1/2+z,1/2-x,-y
7 1/2-z,-x,1/2+y
8 -z,1/2+x,1/2-y
9 y,z,x
10 -y,1/2+z,1/2-x
11 1/2+y,1/2-z,-x
12 1/2-y,-z,1/2+x
13 -x,-y,-z
14 1/2+x,y,1/2-z
15 x,1/2-y,1/2+z
16 1/2-x,1/2+y,z
17 -z,-x,-y
18 1/2-z,1/2+x,y
19 1/2+z,x,1/2-y
20 z,1/2-x,1/2+y
21 -y,-z,-x
22 y,1/2-z,1/2+x
23 1/2-y,1/2+z,x
24 1/2+y,z,1/2-x
_cell_length_a                   45.5419
_cell_length_b                   45.5419
_cell_length_c                   45.5419
_cell_angle_alpha                90
_cell_angle_beta                 90
_cell_angle_gamma                90
_cell_volume                     94456.8
loop_
_atom_site_label
_atom_site_type_symbol
_atom_site_fract_x
_atom_site_fract_y
_atom_site_fract_z
_atom_site_U_iso_or_equiv
_atom_site_thermal_displace_type
O1 O 0.79585 0.01584 0.02295 0.0500 Uiso
O2 O 0.69470 -0.01831 0.44439 0.0500 Uiso
O3 O 0.84413 0.01392 0.02906 0.0500 Uiso
O4 O 0.64637 -0.01542 0.44960 0.0500 Uiso
O5 O 0.94472 0.00970 0.14893 0.0500 Uiso
O6 O 0.52464 0.01111 0.34708 0.0500 Uiso
O7 O 0.94310 0.01446 0.19737 0.0500 Uiso
O8 O 0.52197 0.01798 0.29892 0.0500 Uiso
N1 N 0.81064 0.03302 0.16020 0.0500 Uiso
N2 N 0.65874 0.00397 0.31312 0.0500 Uiso
C1 C 0.69571 0.00208 0.24050 0.0500 Uiso
C2 C 0.67520 -0.00289 0.26276 0.0500 Uiso
H1 H 0.65629 -0.01659 0.25837 0.0500 Uiso
C3 C 0.78642 0.02394 0.08348 0.0500 Uiso
H2 H 0.76703 0.02523 0.06982 0.0500 Uiso
C4 C 0.69238 -0.01575 0.38428 0.0500 Uiso
H3 H 0.71345 -0.02032 0.39424 0.0500 Uiso
C5 C 0.78356 0.02999 0.11353 0.0500 Uiso
H4 H 0.76250 0.03592 0.12273 0.0500 Uiso
C6 C 0.69148 -0.00979 0.35409 0.0500 Uiso
H5 H 0.71142 -0.01024 0.34126 0.0500 Uiso
C7 C 0.80858 0.02823 0.13099 0.0500 Uiso
C8 C 0.66439 -0.00321 0.34144 0.0500 Uiso
C9 C 0.83548 0.02075 0.11925 0.0500 Uiso
C10 C 0.63900 -0.00368 0.35789 0.0500 Uiso
C11 C 0.83897 0.01428 0.08955 0.0500 Uiso
H6 H 0.86028 0.00817 0.08102 0.0500 Uiso
C12 C 0.63915 -0.00942 0.38793 0.0500 Uiso
H7 H 0.61892 -0.00887 0.40036 0.0500 Uiso
C13 C 0.81397 0.01598 0.07121 0.0500 Uiso
C14 C 0.66644 -0.01521 0.40154 0.0500 Uiso
C15 C 0.81782 0.01412 0.03964 0.0500 Uiso
C16 C 0.66944 -0.01634 0.43321 0.0500 Uiso
C17 C 0.93006 0.01146 0.17310 0.0500 Uiso
C18 C 0.53706 0.01474 0.32186 0.0500 Uiso
C19 C 0.89850 0.01382 0.17172 0.0500 Uiso
C20 C 0.56878 0.01459 0.31938 0.0500 Uiso
C21 C 0.88473 0.01324 0.14388 0.0500 Uiso
H8 H 0.89655 0.00684 0.12429 0.0500 Uiso
C22 C 0.58647 0.00650 0.34354 0.0500 Uiso
H9 H 0.57717 0.00276 0.36508 0.0500 Uiso
C23 C 0.85508 0.02065 0.14234 0.0500 Uiso
C24 C 0.61651 0.00327 0.33893 0.0500 Uiso
C25 C 0.83917 0.02830 0.16693 0.0500 Uiso
C26 C 0.62927 0.00782 0.31184 0.0500 Uiso
C27 C 0.85212 0.02907 0.19461 0.0500 Uiso
H10 H 0.83960 0.03469 0.21398 0.0500 Uiso
C28 C 0.61246 0.01645 0.28776 0.0500 Uiso
H11 H 0.62230 0.02080 0.26662 0.0500 Uiso
C29 C 0.88198 0.02197 0.19686 0.0500 Uiso
H12 H 0.89205 0.02238 0.21838 0.0500 Uiso
C30 C 0.58205 0.01958 0.29163 0.0500 Uiso
H13 H 0.56892 0.02612 0.27295 0.0500 Uiso
C31 C 0.78700 0.03122 0.18015 0.0500 Uiso
C32 C 0.67936 0.00927 0.29068 0.0500 Uiso
C33 C 0.78261 0.05267 0.20164 0.0500 Uiso
H14 H 0.79654 0.07190 0.20230 0.0500 Uiso
C34 C 0.70402 0.02685 0.29595 0.0500 Uiso
H15 H 0.70738 0.03666 0.31732 0.0500 Uiso
C35 C 0.76066 0.04910 0.22272 0.0500 Uiso
H16 H 0.75773 0.06607 0.23906 0.0500 Uiso
C36 C 0.72472 0.03152 0.27391 0.0500 Uiso
H17 H 0.74406 0.04427 0.27911 0.0500 Uiso
C37 C 0.74308 0.02367 0.22293 0.0500 Uiso
C38 C 0.72094 0.01907 0.24591 0.0500 Uiso
C39 C 0.76887 0.00645 0.17943 0.0500 Uiso
C40 C 0.74719 0.00259 0.20073 0.0500 Uiso
H18 H 0.73266 -0.01776 0.20023 0.0000 Uiso
H19 H 0.77185 -0.01060 0.16138 0.0000 Uiso
H20 H 0.69207 -0.00765 0.21774 0.0000 Uiso
Cu1 Cu 0.85130 0.01498 -0.01036 0.0500 Uiso
Cu2 Cu 0.79715 0.01699 -0.01759 0.0500 Uiso
O2A O 0.80530 0.01831 -0.05561 0.0500 Uiso
O4A O 0.85363 0.01542 -0.05040 0.0500 Uiso
O5P O 0.85107 0.05528 -0.00970 0.0500 Uiso
O6E O 0.84708 -0.02464 -0.01111 0.0500 Uiso
O7P O 0.80263 0.05690 -0.01446 0.0500 Uiso
O8E O 0.79892 -0.02197 -0.01798 0.0500 Uiso
Cu1A Cu 0.64870 -0.01498 0.48964 0.0500 Uiso
Cu1K Cu 0.48502 0.01036 0.35130 0.0500 Uiso
Cu1T Cu 0.98502 0.01036 0.14870 0.0500 Uiso
Cu2A Cu 0.70285 -0.01699 0.48241 0.0500 Uiso
Cu2K Cu 0.48301 0.01759 0.29715 0.0500 Uiso
Cu2T Cu 0.98301 0.01759 0.20285 0.0500 Uiso
C41 C -0.40782 -0.09463 -0.30567 0.0000 Uiso
H21 H -0.42132 -0.11405 -0.29997 0.0000 Uiso
H22 H -0.39655 -0.09856 -0.32689 0.0000 Uiso
H23 H -0.42216 -0.07506 -0.30761 0.0000 Uiso
H24 H -0.39128 -0.09089 -0.28820 0.0000 Uiso
C42 C 0.59282 0.05868 -0.28780 0.0000 Uiso
H25 H 0.57845 0.04344 -0.27533 0.0000 Uiso
H26 H 0.61185 0.04668 -0.29666 0.0000 Uiso
H27 H 0.58050 0.06846 -0.30640 0.0000 Uiso
H28 H 0.60111 0.07614 -0.27310 0.0000 Uiso
C43 C 0.35392 0.08627 0.36179 0.0000 Uiso
H29 H 0.36458 0.07174 0.36636 0.0000 Uiso
H30 H 0.34186 0.08254 0.34061 0.0000 Uiso
H31 H 0.33601 0.09159 0.37775 0.0000 Uiso
H32 H 0.36492 0.10797 0.35813 0.0000 Uiso
C44 C 0.14321 0.11229 0.44531 0.0000 Uiso
H33 H 0.15024 0.09026 0.45267 0.0000 Uiso
H34 H 0.15543 0.11844 0.42517 0.0000 Uiso
H35 H 0.11930 0.11189 0.44081 0.0000 Uiso
H36 H 0.14768 0.12851 0.46285 0.0000 Uiso
C45 C 0.15655 0.01643 0.42109 0.0000 Uiso
H37 H 0.15898 -0.00320 0.40692 0.0000 Uiso
H38 H 0.14414 0.03362 0.40913 0.0000 Uiso
H39 H 0.14422 0.01037 0.44122 0.0000 Uiso
H40 H 0.17853 0.02485 0.42720 0.0000 Uiso
C46 C -0.82547 -0.16915 0.26801 0.0000 Uiso
H41 H -0.81850 -0.19234 0.27036 0.0000 Uiso
H42 H -0.81741 -0.16045 0.24674 0.0000 Uiso
H43 H -0.84976 -0.16790 0.26864 0.0000 Uiso
H44 H -0.81618 -0.15595 0.28624 0.0000 Uiso
C47 C -0.86458 -0.12834 -0.08090 0.0000 Uiso
H45 H -0.88086 -0.12968 -0.06283 0.0000 Uiso
H46 H -0.87613 -0.12328 -0.10182 0.0000 Uiso
H47 H -0.84846 -0.11072 -0.07608 0.0000 Uiso
H48 H -0.85278 -0.14957 -0.08283 0.0000 Uiso
C48 C -0.51286 -0.07236 0.43163 0.0000 Uiso
H49 H -0.51547 -0.09315 0.44388 0.0000 Uiso
H50 H -0.51226 -0.07673 0.40785 0.0000 Uiso
H51 H -0.53183 -0.05790 0.43618 0.0000 Uiso
H52 H -0.49205 -0.06163 0.43819 0.0000 Uiso
C49 C -0.22363 -0.11820 0.12415 0.0000 Uiso
H53 H -0.24745 -0.11362 0.12215 0.0000 Uiso
H54 H -0.21559 -0.12889 0.10380 0.0000 Uiso
H55 H -0.21175 -0.09722 0.12740 0.0000 Uiso
H56 H -0.21970 -0.13286 0.14320 0.0000 Uiso
C50 C 0.04922 -0.03096 0.09406 0.0000 Uiso
H57 H 0.07063 -0.03633 0.10438 0.0000 Uiso
H58 H 0.03178 -0.04457 0.10412 0.0000 Uiso
H59 H 0.04426 -0.00741 0.09771 0.0000 Uiso
H60 H 0.05020 -0.03537 0.07015 0.0000 Uiso
C51 C 0.15381 0.08364 -0.28792 0.0000 Uiso
H61 H 0.16435 0.07060 -0.30546 0.0000 Uiso
H62 H 0.13596 0.07052 -0.27807 0.0000 Uiso
H63 H 0.17036 0.08918 -0.27100 0.0000 Uiso
H64 H 0.14439 0.10408 -0.29715 0.0000 Uiso
C52 C -0.29827 -0.23085 -0.25978 0.0000 Uiso
H65 H -0.27993 -0.22985 -0.24379 0.0000 Uiso
H66 H -0.30683 -0.25355 -0.26087 0.0000 Uiso
H67 H -0.31605 -0.21576 -0.25253 0.0000 Uiso
H68 H -0.29034 -0.22397 -0.28171 0.0000 Uiso
C53 C 0.16622 -0.06069 -0.27897 0.0000 Uiso
H69 H 0.14669 -0.05827 -0.26473 0.0000 Uiso
H70 H 0.16353 -0.08066 -0.29259 0.0000 Uiso
H71 H 0.16797 -0.04105 -0.29321 0.0000 Uiso
H72 H 0.18627 -0.06279 -0.26528 0.0000 Uiso
C54 C 0.08478 0.02144 0.05976 0.0000 Uiso
H73 H 0.06095 0.02347 0.05535 0.0000 Uiso
H74 H 0.09724 0.03530 0.04418 0.0000 Uiso
H75 H 0.08955 0.02868 0.08246 0.0000 Uiso
H76 H 0.09145 -0.00179 0.05698 0.0000 Uiso
C55 C 0.15051 0.08487 0.16145 0.0000 Uiso
H77 H 0.16532 0.09317 0.17890 0.0000 Uiso
H78 H 0.13831 0.10352 0.15161 0.0000 Uiso
H79 H 0.13471 0.06904 0.17109 0.0000 Uiso
H80 H 0.16373 0.07381 0.14421 0.0000 Uiso
C56 C 0.19939 0.15426 0.26721 0.0000 Uiso
H81 H 0.18945 0.14036 0.28457 0.0000 Uiso
H82 H 0.18606 0.17440 0.26431 0.0000 Uiso
H83 H 0.22206 0.16026 0.27366 0.0000 Uiso
H84 H 0.19993 0.14195 0.24625 0.0000 Uiso
C57 C -0.37212 -0.12748 -0.15031 0.0000 Uiso
H85 H -0.37692 -0.15113 -0.14700 0.0000 Uiso
H86 H -0.37102 -0.12262 -0.17412 0.0000 Uiso
H87 H -0.38961 -0.11395 -0.14016 0.0000 Uiso
H88 H -0.35084 -0.12203 -0.13995 0.0000 Uiso
C58 C -0.33855 -0.15328 -0.34926 0.0000 Uiso
H89 H -0.34102 -0.14306 -0.32730 0.0000 Uiso
H90 H -0.36033 -0.16011 -0.35761 0.0000 Uiso
H91 H -0.32858 -0.13719 -0.36454 0.0000 Uiso
H92 H -0.32404 -0.17276 -0.34756 0.0000 Uiso
C59 C 0.02350 -0.05753 -0.49020 0.0000 Uiso
H93 H 0.00099 -0.06659 -0.48859 0.0000 Uiso
H94 H 0.03240 -0.06177 -0.51244 0.0000 Uiso
H95 H 0.02268 -0.03368 -0.48569 0.0000 Uiso
H96 H 0.03794 -0.06830 -0.47392 0.0000 Uiso
C60 C 0.08720 -0.04756 -0.35855 0.0000 Uiso
H97 H 0.07256 -0.06180 -0.37181 0.0000 Uiso
H98 H 0.09252 -0.02756 -0.37139 0.0000 Uiso
H99 H 0.07596 -0.04098 -0.33796 0.0000 Uiso
H100 H 0.10768 -0.05970 -0.35331 0.0000 Uiso
C61 C 0.41058 0.06923 -0.33595 0.0000 Uiso
H101 H 0.43052 0.05927 -0.34568 0.0000 Uiso
H102 H 0.39388 0.07251 -0.35337 0.0000 Uiso
H103 H 0.40163 0.05446 -0.31878 0.0000 Uiso
H104 H 0.41627 0.09072 -0.32600 0.0000 Uiso
C62 C 0.41561 0.00935 -0.10286 0.0000 Uiso
H105 H 0.40007 -0.00098 -0.11851 0.0000 Uiso
H106 H 0.42139 0.03169 -0.11062 0.0000 Uiso
H107 H 0.40525 0.01117 -0.08101 0.0000 Uiso
H108 H 0.43568 -0.00437 -0.10117 0.0000 Uiso
C63 C 0.44022 0.11590 0.18521 0.0000 Uiso
H109 H 0.42601 0.10661 0.20262 0.0000 Uiso
H110 H 0.43892 0.10186 0.16544 0.0000 Uiso
H111 H 0.43261 0.13826 0.17944 0.0000 Uiso
H112 H 0.46326 0.11682 0.19311 0.0000 Uiso
C64 C 0.38821 0.06557 0.45195 0.0000 Uiso
H113 H 0.39215 0.04564 0.46533 0.0000 Uiso
H114 H 0.38362 0.05906 0.42903 0.0000 Uiso
H115 H 0.36898 0.07750 0.46077 0.0000 Uiso
H116 H 0.40798 0.07982 0.45258 0.0000 Uiso
C65 C -0.22355 0.02550 0.61862 0.0000 Uiso
H117 H -0.21524 0.00276 0.61666 0.0000 Uiso
H118 H -0.24695 0.02646 0.61214 0.0000 Uiso
H119 H -0.22142 0.03304 0.64162 0.0000 Uiso
H120 H -0.21045 0.03981 0.60404 0.0000 Uiso
C66 C -0.19751 -0.01593 0.31365 0.0000 Uiso
H121 H -0.21052 -0.03518 0.32084 0.0000 Uiso
H122 H -0.19170 -0.01842 0.29017 0.0000 Uiso
H123 H -0.21052 0.00437 0.31684 0.0000 Uiso
H124 H -0.17712 -0.01433 0.32672 0.0000 Uiso
C67 C -0.29887 -0.11270 0.30880 0.0000 Uiso
H125 H -0.30898 -0.10029 0.32715 0.0000 Uiso
H126 H -0.31639 -0.12186 0.29451 0.0000 Uiso
H127 H -0.28471 -0.09787 0.29567 0.0000 Uiso
H128 H -0.28549 -0.13086 0.31792 0.0000 Uiso
C68 C -0.40874 -0.05602 0.25287 0.0000 Uiso
H129 H -0.42293 -0.06962 0.26717 0.0000 Uiso
H130 H -0.41944 -0.03467 0.24848 0.0000 Uiso
H131 H -0.38731 -0.05222 0.26373 0.0000 Uiso
H132 H -0.40552 -0.06755 0.23178 0.0000 Uiso
C69 C -0.59209 -0.11698 -0.21237 0.0000 Uiso
H133 H -0.59928 -0.13985 -0.21639 0.0000 Uiso
H134 H -0.59619 -0.10371 -0.23223 0.0000 Uiso
H135 H -0.60467 -0.10772 -0.19360 0.0000 Uiso
H136 H -0.56843 -0.11680 -0.20704 0.0000 Uiso
C70 C -0.30958 -0.13061 -0.26606 0.0000 Uiso
H137 H -0.30591 -0.15187 -0.27737 0.0000 Uiso
H138 H -0.32520 -0.11712 -0.27897 0.0000 Uiso
H139 H -0.31877 -0.13469 -0.24387 0.0000 Uiso
H140 H -0.28841 -0.11875 -0.26397 0.0000 Uiso
C71 C -0.25503 -0.13259 -0.33792 0.0000 Uiso
H141 H -0.26514 -0.14393 -0.31893 0.0000 Uiso
H142 H -0.24983 -0.14888 -0.35527 0.0000 Uiso
H143 H -0.27051 -0.11602 -0.34676 0.0000 Uiso
H144 H -0.23459 -0.12158 -0.33068 0.0000 Uiso
C72 C -0.10328 -0.07315 -0.37699 0.0000 Uiso
H145 H -0.12183 -0.08408 -0.38827 0.0000 Uiso
H146 H -0.09129 -0.05882 -0.39257 0.0000 Uiso
H147 H -0.11178 -0.05949 -0.35888 0.0000 Uiso
H148 H -0.08839 -0.09005 -0.36783 0.0000 Uiso
C73 C 0.10915 0.00637 -0.28815 0.0000 Uiso
H149 H 0.09520 0.02242 -0.27643 0.0000 Uiso
H150 H 0.10219 0.00474 -0.31142 0.0000 Uiso
H151 H 0.13221 0.01394 -0.28728 0.0000 Uiso
H152 H 0.10731 -0.01543 -0.27742 0.0000 Uiso
C74 C 0.28792 -0.05968 -0.40659 0.0000 Uiso
H153 H 0.29117 -0.08205 -0.41553 0.0000 Uiso
H154 H 0.30425 -0.04454 -0.41640 0.0000 Uiso
H155 H 0.26550 -0.05199 -0.41189 0.0000 Uiso
H156 H 0.29052 -0.06043 -0.38248 0.0000 Uiso
C75 C 0.40790 -0.02111 -0.20594 0.0000 Uiso
H157 H 0.39517 -0.04130 -0.20997 0.0000 Uiso
H158 H 0.42817 -0.02169 -0.21905 0.0000 Uiso
H159 H 0.39473 -0.00189 -0.21280 0.0000 Uiso
H160 H 0.41374 -0.01968 -0.18237 0.0000 Uiso
C76 C 0.53661 0.15617 0.00187 0.0000 Uiso
H161 H 0.53960 0.17450 0.01764 0.0000 Uiso
H162 H 0.54675 0.16204 -0.01940 0.0000 Uiso
H163 H 0.51290 0.15175 -0.00148 0.0000 Uiso
H164 H 0.54748 0.13624 0.01050 0.0000 Uiso
C77 C 0.62584 0.14560 0.28649 0.0000 Uiso
H165 H 0.62101 0.12275 0.29346 0.0000 Uiso
H166 H 0.63883 0.14523 0.26595 0.0000 Uiso
H167 H 0.60497 0.15755 0.28265 0.0000 Uiso
H168 H 0.63868 0.15690 0.30381 0.0000 Uiso
C78 C 0.56893 0.08093 0.36484 0.0000 Uiso
H169 H 0.55018 0.06744 0.35724 0.0000 Uiso
H170 H 0.56120 0.10345 0.36985 0.0000 Uiso
H171 H 0.57849 0.07124 0.38499 0.0000 Uiso
H172 H 0.58590 0.08174 0.34739 0.0000 Uiso
C79 C 0.42848 0.07547 0.38727 0.0000 Uiso
H173 H 0.41266 0.05725 0.38449 0.0000 Uiso
H174 H 0.43207 0.08635 0.36580 0.0000 Uiso
H175 H 0.41966 0.09156 0.40324 0.0000 Uiso
H176 H 0.44946 0.06656 0.39569 0.0000 Uiso
C80 C 0.16423 0.01818 0.33507 0.0000 Uiso
H177 H 0.14277 0.00726 0.33305 0.0000 Uiso
H178 H 0.16807 0.03253 0.31591 0.0000 Uiso
H179 H 0.16485 0.03205 0.35500 0.0000 Uiso
H180 H 0.18127 0.00091 0.33637 0.0000 Uiso
C81 C 0.16017 0.07987 0.24535 0.0000 Uiso
H181 H 0.16657 0.06121 0.25930 0.0000 Uiso
H182 H 0.14235 0.07284 0.23042 0.0000 Uiso
H183 H 0.15238 0.09781 0.25975 0.0000 Uiso
H184 H 0.17936 0.08731 0.23242 0.0000 Uiso
C82 C 0.01735 -0.03989 0.27654 0.0000 Uiso
H185 H 0.02634 -0.04929 0.29700 0.0000 Uiso
H186 H -0.00688 -0.03944 0.27863 0.0000 Uiso
H187 H 0.02570 -0.01722 0.27325 0.0000 Uiso
H188 H 0.02427 -0.05377 0.25775 0.0000 Uiso
C83 C -0.21770 -0.11900 0.31541 0.0000 Uiso
H189 H -0.22835 -0.12344 0.33688 0.0000 Uiso
H190 H -0.22994 -0.13050 0.29779 0.0000 Uiso
H191 H -0.21773 -0.09497 0.31119 0.0000 Uiso
H192 H -0.19471 -0.12713 0.31603 0.0000 Uiso
C84 C -0.25486 -0.12493 0.23184 0.0000 Uiso
H193 H -0.26459 -0.13208 0.25293 0.0000 Uiso
H194 H -0.27238 -0.12098 0.21551 0.0000 Uiso
H195 H -0.24257 -0.10425 0.23539 0.0000 Uiso
H196 H -0.24002 -0.14239 0.22365 0.0000 Uiso
C85 C -0.32494 -0.07967 0.23963 0.0000 Uiso
H197 H -0.32123 -0.10370 0.24060 0.0000 Uiso
H198 H -0.34434 -0.07502 0.22567 0.0000 Uiso
H199 H -0.32879 -0.07091 0.26196 0.0000 Uiso
H200 H -0.30530 -0.06871 0.23037 0.0000 Uiso
C86 C -0.05722 0.00413 0.00028 0.0000 Uiso
H201 H -0.04996 -0.01900 -0.00074 0.0000 Uiso
H202 H -0.05625 0.01361 -0.02216 0.0000 Uiso
H203 H -0.08014 0.00520 0.00804 0.0000 Uiso
H204 H -0.04288 0.01658 0.01548 0.0000 Uiso
C87 C -0.17024 -0.09751 -0.32086 0.0000 Uiso
H205 H -0.17843 -0.11414 -0.33707 0.0000 Uiso
H206 H -0.15507 -0.08477 -0.33533 0.0000 Uiso
H207 H -0.18553 -0.08419 -0.30889 0.0000 Uiso
H208 H -0.15431 -0.11126 -0.30786 0.0000 Uiso
C88 C -0.20873 -0.07552 -0.38945 0.0000 Uiso
H209 H -0.22947 -0.08804 -0.38944 0.0000 Uiso
H210 H -0.19495 -0.08289 -0.40806 0.0000 Uiso
H211 H -0.21360 -0.05186 -0.39205 0.0000 Uiso
H212 H -0.19730 -0.07912 -0.36829 0.0000 Uiso
C89 C -0.23918 -0.04944 -0.54527 0.0000 Uiso
H213 H -0.24141 -0.04708 -0.52112 0.0000 Uiso
H214 H -0.21671 -0.05712 -0.55055 0.0000 Uiso
H215 H -0.24330 -0.02797 -0.55593 0.0000 Uiso
H216 H -0.25523 -0.06579 -0.55346 0.0000 Uiso
loop_
_geom_bond_atom_site_label_1
_geom_bond_atom_site_label_2
_geom_bond_site_symmetry_1
_geom_bond_site_symmetry_2
O1 C15 1_555 1_555
O2 C16 1_555 1_555
O3 C15 1_555 1_555
O4 C16 1_555 1_555
O5 C17 1_555 1_555
O6 C18 1_555 1_555
O7 C17 1_555 1_555
O8 C18 1_555 1_555
N1 C7 1_555 1_555
N2 C8 1_555 1_555
C1 C2 1_555 1_555
C2 H1 1_555 1_555
C3 H2 1_555 1_555
C4 H3 1_555 1_555
C5 C3 1_555 1_555
H4 C5 1_555 1_555
C6 C4 1_555 1_555
H5 C6 1_555 1_555
C7 C5 1_555 1_555
C8 C6 1_555 1_555
C9 C7 1_555 1_555
C10 C8 1_555 1_555
C11 C9 1_555 1_555
H6 C11 1_555 1_555
C12 C10 1_555 1_555
H7 C12 1_555 1_555
C13 C3 1_555 1_555
C14 C4 1_555 1_555
C15 C13 1_555 1_555
C16 C14 1_555 1_555
C17 C19 1_555 1_555
C18 C20 1_555 1_555
C19 C21 1_555 1_555
C20 C22 1_555 1_555
C21 H8 1_555 1_555
C22 H9 1_555 1_555
C23 C9 1_555 1_555
C24 C10 1_555 1_555
C25 N1 1_555 1_555
C26 N2 1_555 1_555
C27 C25 1_555 1_555
H10 C27 1_555 1_555
C28 C26 1_555 1_555
H11 C28 1_555 1_555
C29 C19 1_555 1_555
H12 C29 1_555 1_555
C30 C20 1_555 1_555
H13 C30 1_555 1_555
C31 N1 1_555 1_555
C32 N2 1_555 1_555
C33 C31 1_555 1_555
H14 C33 1_555 1_555
C34 C32 1_555 1_555
H15 C34 1_555 1_555
C35 C33 1_555 1_555
H16 C35 1_555 1_555
C36 C34 1_555 1_555
H17 C36 1_555 1_555
C37 C35 1_555 1_555
C38 C1 1_555 1_555
C39 C31 1_555 1_555
C40 C37 1_555 1_555
H18 C40 1_555 1_555
H19 C39 1_555 1_555
H20 C1 1_555 1_555
Cu1 O3 1_555 1_555
Cu2 O1 1_555 1_555
C41 H21 1_555 1_555
H22 C41 1_555 1_555
H23 C41 1_555 1_555
H24 C41 1_555 1_555
C42 H25 1_555 1_555
H26 C42 1_555 1_555
H27 C42 1_555 1_555
H28 C42 1_555 1_555
C43 H29 1_555 1_555
H30 C43 1_555 1_555
H31 C43 1_555 1_555
H32 C43 1_555 1_555
C44 H33 1_555 1_555
H34 C44 1_555 1_555
H35 C44 1_555 1_555
H36 C44 1_555 1_555
C45 H37 1_555 1_555
H38 C45 1_555 1_555
H39 C45 1_555 1_555
H40 C45 1_555 1_555
C46 H41 1_555 1_555
H42 C46 1_555 1_555
H43 C46 1_555 1_555
H44 C46 1_555 1_555
C47 H45 1_555 1_555
H46 C47 1_555 1_555
H47 C47 1_555 1_555
H48 C47 1_555 1_555
C48 H49 1_555 1_555
H50 C48 1_555 1_555
H51 C48 1_555 1_555
H52 C48 1_555 1_555
C49 H53 1_555 1_555
H54 C49 1_555 1_555
H55 C49 1_555 1_555
H56 C49 1_555 1_555
C50 H57 1_555 1_555
H58 C50 1_555 1_555
H59 C50 1_555 1_555
H60 C50 1_555 1_555
C51 H61 1_555 1_555
H62 C51 1_555 1_555
H63 C51 1_555 1_555
H64 C51 1_555 1_555
C52 H65 1_555 1_555
H66 C52 1_555 1_555
H67 C52 1_555 1_555
H68 C52 1_555 1_555
C53 H69 1_555 1_555
H70 C53 1_555 1_555
H71 C53 1_555 1_555
H72 C53 1_555 1_555
C54 H73 1_555 1_555
H74 C54 1_555 1_555
H75 C54 1_555 1_555
H76 C54 1_555 1_555
C55 H77 1_555 1_555
H78 C55 1_555 1_555
H79 C55 1_555 1_555
H80 C55 1_555 1_555
C56 H81 1_555 1_555
H82 C56 1_555 1_555
H83 C56 1_555 1_555
H84 C56 1_555 1_555
C57 H85 1_555 1_555
H86 C57 1_555 1_555
H87 C57 1_555 1_555
H88 C57 1_555 1_555
C58 H89 1_555 1_555
H90 C58 1_555 1_555
H91 C58 1_555 1_555
H92 C58 1_555 1_555
C59 H93 1_555 1_555
H94 C59 1_555 1_555
H95 C59 1_555 1_555
H96 C59 1_555 1_555
C60 H97 1_555 1_555
H98 C60 1_555 1_555
H99 C60 1_555 1_555
H100 C60 1_555 1_555
C61 H101 1_555 1_555
H102 C61 1_555 1_555
H103 C61 1_555 1_555
H104 C61 1_555 1_555
C62 H105 1_555 1_555
H106 C62 1_555 1_555
H107 C62 1_555 1_555
H108 C62 1_555 1_555
C63 H109 1_555 1_555
H110 C63 1_555 1_555
H111 C63 1_555 1_555
H112 C63 1_555 1_555
C64 H113 1_555 1_555
H114 C64 1_555 1_555
H115 C64 1_555 1_555
H116 C64 1_555 1_555
C65 H117 1_555 1_555
H118 C65 1_555 1_555
H119 C65 1_555 1_555
H120 C65 1_555 1_555
C66 H121 1_555 1_555
H122 C66 1_555 1_555
H123 C66 1_555 1_555
H124 C66 1_555 1_555
C67 H125 1_555 1_555
H126 C67 1_555 1_555
H127 C67 1_555 1_555
H128 C67 1_555 1_555
C68 H129 1_555 1_555
H130 C68 1_555 1_555
H131 C68 1_555 1_555
H132 C68 1_555 1_555
C69 H133 1_555 1_555
H134 C69 1_555 1_555
H135 C69 1_555 1_555
H136 C69 1_555 1_555
C70 H137 1_555 1_555
H138 C70 1_555 1_555
H139 C70 1_555 1_555
H140 C70 1_555 1_555
C71 H141 1_555 1_555
H142 C71 1_555 1_555
H143 C71 1_555 1_555
H144 C71 1_555 1_555
C72 H145 1_555 1_555
H146 C72 1_555 1_555
H147 C72 1_555 1_555
H148 C72 1_555 1_555
C73 H149 1_555 1_555
H150 C73 1_555 1_555
H151 C73 1_555 1_555
H152 C73 1_555 1_555
C74 H153 1_555 1_555
H154 C74 1_555 1_555
H155 C74 1_555 1_555
H156 C74 1_555 1_555
C75 H157 1_555 1_555
H158 C75 1_555 1_555
H159 C75 1_555 1_555
H160 C75 1_555 1_555
C76 H161 1_555 1_555
H162 C76 1_555 1_555
H163 C76 1_555 1_555
H164 C76 1_555 1_555
C77 H165 1_555 1_555
H166 C77 1_555 1_555
H167 C77 1_555 1_555
H168 C77 1_555 1_555
C78 H169 1_555 1_555
H170 C78 1_555 1_555
H171 C78 1_555 1_555
H172 C78 1_555 1_555
C79 H173 1_555 1_555
H174 C79 1_555 1_555
H175 C79 1_555 1_555
H176 C79 1_555 1_555
C80 H177 1_555 1_555
H178 C80 1_555 1_555
H179 C80 1_555 1_555
H180 C80 1_555 1_555
C81 H181 1_555 1_555
H182 C81 1_555 1_555
H183 C81 1_555 1_555
H184 C81 1_555 1_555
C82 H185 1_555 1_555
H186 C82 1_555 1_555
H187 C82 1_555 1_555
H188 C82 1_555 1_555
C83 H189 1_555 1_555
H190 C83 1_555 1_555
H191 C83 1_555 1_555
H192 C83 1_555 1_555
C84 H193 1_555 1_555
H194 C84 1_555 1_555
H195 C84 1_555 1_555
H196 C84 1_555 1_555
C85 H197 1_555 1_555
H198 C85 1_555 1_555
H199 C85 1_555 1_555
H200 C85 1_555 1_555
C86 H201 1_555 1_555
H202 C86 1_555 1_555
H203 C86 1_555 1_555
H204 C86 1_555 1_555
C87 H205 1_555 1_555
H206 C87 1_555 1_555
H207 C87 1_555 1_555
H208 C87 1_555 1_555
C88 H209 1_555 1_555
H210 C88 1_555 1_555
H211 C88 1_555 1_555
H212 C88 1_555 1_555
C89 H213 1_555 1_555
H214 C89 1_555 1_555
H215 C89 1_555 1_555
H216 C89 1_555 1_555
O2A Cu2 1_555 1_555
O4A Cu1 1_555 1_555
O5P Cu1 1_555 1_555
O6E Cu1 1_555 1_555
O7P Cu2 1_555 1_555
O8E Cu2 1_555 1_555
Cu1A O4 1_555 1_555
Cu1K O6 1_555 1_555
Cu1T O5 1_555 1_555
Cu2A O2 1_555 1_555
Cu2K O8 1_555 1_555
Cu2T O7 1_555 1_555
C2 C32 1_555 1_555
C11 C13 1_555 1_555
C12 C14 1_555 1_555
C21 C23 1_555 1_555
C22 C24 1_555 1_555
C23 C25 1_555 1_555
C24 C26 1_555 1_555
C27 C29 1_555 1_555
C28 C30 1_555 1_555
C36 C38 1_555 1_555
C37 C38 1_555 1_555
C39 C40 1_555 1_555

#END
