
#######################################################################
#
#                 Cambridge Crystallographic Data Centre
#                                CCDC 
#
#######################################################################
#
# If this CIF has been generated from an entry in the Cambridge 
# Structural Database, then it will include bibliographic, chemical, 
# crystal, experimental, refinement or atomic coordinate data resulting 
# from the CCDC's data processing and validation procedures.
#
#######################################################################

data_SUGVUM
_chemical_formula_moiety         '(C20 H18 Cu1 N4 O6)n'
_symmetry_cell_setting           tetragonal
_symmetry_space_group_name_H-M   'I 41/a'
_symmetry_Int_Tables_number      88
_space_group_name_Hall           '-I 4ad'
loop_
_symmetry_equiv_pos_site_id
_symmetry_equiv_pos_as_xyz
1 x,y,z
2 1/2-x,-y,1/2+z
3 3/4-y,1/4+x,1/4+z
4 3/4+y,3/4-x,3/4+z
5 1/2+x,1/2+y,1/2+z
6 -x,1/2-y,z
7 1/4-y,3/4+x,3/4+z
8 1/4+y,1/4-x,1/4+z
9 -x,-y,-z
10 1/2+x,y,1/2-z
11 1/4+y,3/4-x,3/4-z
12 1/4-y,1/4+x,1/4-z
13 1/2-x,1/2-y,1/2-z
14 x,1/2+y,-z
15 3/4+y,1/4-x,1/4-z
16 3/4-y,3/4+x,3/4-z
_cell_length_a                   20.375(4)
_cell_length_b                   20.375(4)
_cell_length_c                   12.665(2)
_cell_angle_alpha                90
_cell_angle_beta                 90
_cell_angle_gamma                90
_cell_volume                     5257.76
loop_
_atom_site_label
_atom_site_type_symbol
_atom_site_fract_x
_atom_site_fract_y
_atom_site_fract_z
_atom_site_U_iso_or_equiv
_atom_site_thermal_displace_type
Cu1 Cu 0.5000 0.0000 0.0000 0.0541 Uani
O1 O 0.5544(3) -0.0458(2) -0.1035(3) 0.0623 Uani
O2 O 0.5647(3) 0.0545(3) -0.1728(5) 0.0930 Uani
N1 N 0.7474(2) -0.1761(3) -0.6509(4) 0.0507 Uani
N2 N 0.7176(2) -0.1131(3) -0.5185(4) 0.0500 Uani
C1 C 0.7003(3) -0.1649(3) -0.5792(4) 0.0527 Uani
H1 H 0.6617 -0.1890 -0.5723 0.0630 Uiso
C2 C 0.7945(3) -0.1295(3) -0.6345(5) 0.0533 Uani
H2 H 0.8331 -0.1256 -0.6733 0.0640 Uiso
C3 C 0.7771(3) -0.0900(3) -0.5540(5) 0.0563 Uani
H3 H 0.8005 -0.0544 -0.5277 0.0680 Uiso
C4 C 0.6787(3) -0.0871(3) -0.4335(4) 0.0490 Uani
C5 C 0.6767(3) -0.0202(3) -0.4209(5) 0.0523 Uani
H4 H 0.6986 0.0073 -0.4676 0.0630 Uiso
C6 C 0.6410(3) 0.0056(3) -0.3365(5) 0.0543 Uani
H5 H 0.6390 0.0508 -0.3272 0.0650 Uiso
C7 C 0.6092(3) -0.0344(3) -0.2677(5) 0.0497 Uani
C8 C 0.6127(3) -0.1023(3) -0.2827(5) 0.0580 Uani
H6 H 0.5915 -0.1302 -0.2358 0.0700 Uiso
C9 C 0.6473(3) -0.1282(3) -0.3660(5) 0.0610 Uani
H7 H 0.6492 -0.1734 -0.3760 0.0730 Uiso
C10 C 0.5731(4) -0.0071(3) -0.1730(6) 0.0610 Uani
Cu1B Cu 0.7500 -0.2500 -0.7500 0.0541 Uani
Cu1F Cu 0.2500 0.2500 0.7500 0.0541 Uani
O1H O 0.4456(3) 0.0458(2) 0.1035(3) 0.0623 Uani
O2H O 0.4353(3) -0.0545(3) 0.1728(5) 0.0930 Uani
N1H N 0.2526(2) 0.1761(3) 0.6509(4) 0.0507 Uani
N1C N 0.5739(3) 0.0026(2) 0.0991(4) 0.0507 Uani
N1K N 0.4261(3) -0.0026(2) -0.0991(4) 0.0507 Uani
N2H N 0.2824(2) 0.1131(3) 0.5185(4) 0.0500 Uani
C1H C 0.2997(3) 0.1649(3) 0.5792(4) 0.0527 Uani
H1H H 0.3383 0.1890 0.5723 0.0630 Uiso
C2H C 0.2055(3) 0.1295(3) 0.6345(5) 0.0533 Uani
H2H H 0.1669 0.1256 0.6733 0.0640 Uiso
C3H C 0.2229(3) 0.0900(3) 0.5540(5) 0.0563 Uani
H3H H 0.1995 0.0544 0.5277 0.0680 Uiso
C4H C 0.3213(3) 0.0871(3) 0.4335(4) 0.0490 Uani
C5H C 0.3233(3) 0.0202(3) 0.4209(5) 0.0523 Uani
H4H H 0.3014 -0.0073 0.4676 0.0630 Uiso
C6H C 0.3590(3) -0.0056(3) 0.3365(5) 0.0543 Uani
H5H H 0.3610 -0.0508 0.3272 0.0650 Uiso
C7H C 0.3908(3) 0.0344(3) 0.2677(5) 0.0497 Uani
C8H C 0.3873(3) 0.1023(3) 0.2827(5) 0.0580 Uani
H6H H 0.4085 0.1302 0.2358 0.0700 Uiso
C9H C 0.3527(3) 0.1282(3) 0.3660(5) 0.0610 Uani
H7H H 0.3508 0.1734 0.3760 0.0730 Uiso
C10H C 0.4269(4) 0.0071(3) 0.1730(6) 0.0610 Uani
O3 O 0.9053(7) 0.2239(6) 0.7079(12) 0.1653 Uani
H8 H 0.8700 0.2216 0.6724 0.2480 Uiso
H9 H 0.9006 0.2589 0.7438 0.2480 Uiso
H10 H 0.9005 0.2547 0.4807 0.3420 Uiso
H11 H 0.9215 0.2002 0.5180 0.3420 Uiso
O4 O 0.9138(11) 0.2176(16) 0.458(3) 0.2273 Uani
loop_
_atom_site_aniso_label
_atom_site_aniso_U_11
_atom_site_aniso_U_22
_atom_site_aniso_U_33
_atom_site_aniso_U_23
_atom_site_aniso_U_13
_atom_site_aniso_U_12
Cu1 0.0356(6) 0.0948(10) 0.0318(6) -0.0295(5) 0.0001(4) 0.0009(5)
O1 0.051 0.102 0.034 -0.017 0.003 0.01
O2 0.084 0.085 0.11 -0.048 0.032 -0.001
N1 0.075 0.04 0.037 -0.002 0.03 0
N2 0.068 0.049 0.033 -0.012 0.017 -0.003
C1 0.078 0.041 0.039 -0.005 0.02 -0.008
C2 0.058 0.055 0.047 -0.003 0.023 0
C3 0.058 0.061 0.05 -0.01 0.015 -0.012
C4 0.058 0.052 0.037 -0.015 0.014 0.002
C5 0.067 0.048 0.042 -0.005 0.009 0.001
C6 0.061 0.052 0.05 -0.019 0.001 0.01
C7 0.042 0.065 0.042 -0.018 0.003 0
C8 0.059 0.068 0.047 -0.014 0.022 -0.011
C9 0.08 0.05 0.053 -0.017 0.028 -0.008
C10 0.038 0.082 0.063 -0.034 -0.004 0.005
Cu1B 0.0948 0.0356 0.0318 0.0001 0.0295 -0.0009
Cu1F 0.0948 0.0356 0.0318 0.0001 0.0295 -0.0009
O1H 0.051 0.102 0.034 -0.017 0.003 0.01
O2H 0.084 0.085 0.11 -0.048 0.032 -0.001
N1H 0.075 0.04 0.037 -0.002 0.03 0
N1C 0.040(3) 0.075(3) 0.037(3) -0.030(3) -0.002(2) 0.000(2)
N1K 0.04 0.075 0.037 -0.03 -0.002 0
N2H 0.068 0.049 0.033 -0.012 0.017 -0.003
C1H 0.078 0.041 0.039 -0.005 0.02 -0.008
C2H 0.058 0.055 0.047 -0.003 0.023 0
C3H 0.058 0.061 0.05 -0.01 0.015 -0.012
C4H 0.058 0.052 0.037 -0.015 0.014 0.002
C5H 0.067 0.048 0.042 -0.005 0.009 0.001
C6H 0.061 0.052 0.05 -0.019 0.001 0.01
C7H 0.042 0.065 0.042 -0.018 0.003 0
C8H 0.059 0.068 0.047 -0.014 0.022 -0.011
C9H 0.08 0.05 0.053 -0.017 0.028 -0.008
C10H 0.038 0.082 0.063 -0.034 -0.004 0.005
O3 0.146(12) 0.125(10) 0.225(15) -0.039(11) -0.091(11) -0.033(9)
O4 0.102(16) 0.27(3) 0.31(3) 0.11(3) 0.03(2) 0.038(18)
loop_
_geom_bond_atom_site_label_1
_geom_bond_atom_site_label_2
_geom_bond_site_symmetry_1
_geom_bond_site_symmetry_2
Cu1 O1 1_555 1_555
O1 C10 1_555 1_555
O2 C10 1_555 1_555
N1 C1 1_555 1_555
N2 C1 1_555 1_555
C1 H1 1_555 1_555
C2 N1 1_555 1_555
H2 C2 1_555 1_555
C3 N2 1_555 1_555
H3 C3 1_555 1_555
C4 N2 1_555 1_555
C5 C4 1_555 1_555
H4 C5 1_555 1_555
C6 C5 1_555 1_555
H5 C6 1_555 1_555
C7 C6 1_555 1_555
C8 C7 1_555 1_555
H6 C8 1_555 1_555
C9 C4 1_555 1_555
H7 C9 1_555 1_555
C10 C7 1_555 1_555
O3 H8 1_555 1_555
H9 O3 1_555 1_555
H10 O4 1_555 1_555
H11 O4 1_555 1_555
Cu1B N1 1_555 1_555
Cu1F N1H 1_555 1_555
O1H Cu1 1_555 1_555
O2H C10H 1_555 1_555
N1H C1H 1_555 1_555
N1C Cu1 1_555 1_555
N1K Cu1 1_555 1_555
N2H C1H 1_555 1_555
C1H H1H 1_555 1_555
C2H N1H 1_555 1_555
H2H C2H 1_555 1_555
C3H N2H 1_555 1_555
H3H C3H 1_555 1_555
C4H N2H 1_555 1_555
C5H C4H 1_555 1_555
H4H C5H 1_555 1_555
C6H C5H 1_555 1_555
H5H C6H 1_555 1_555
C7H C6H 1_555 1_555
C8H C7H 1_555 1_555
H6H C8H 1_555 1_555
C9H C4H 1_555 1_555
H7H C9H 1_555 1_555
C10H O1H 1_555 1_555
C2 C3 1_555 1_555
C8 C9 1_555 1_555
C2H C3H 1_555 1_555
C7H C10H 1_555 1_555
C8H C9H 1_555 1_555

#END
