
#######################################################################
#
#                 Cambridge Crystallographic Data Centre
#                                CCDC 
#
#######################################################################
#
# If this CIF has been generated from an entry in the Cambridge 
# Structural Database, then it will include bibliographic, chemical, 
# crystal, experimental, refinement or atomic coordinate data resulting 
# from the CCDC's data processing and validation procedures.
#
#######################################################################

data_SUGWEX03
_chemical_formula_moiety         '(C20 H14 Cu1 N4 O4)n'
_symmetry_cell_setting           tetragonal
_symmetry_space_group_name_H-M   'I 41/a'
_symmetry_Int_Tables_number      88
_space_group_name_Hall           '-I 4ad'
loop_
_symmetry_equiv_pos_site_id
_symmetry_equiv_pos_as_xyz
1 x,y,z
2 3/4-y,1/4+x,1/4+z
3 1/2-x,-y,1/2+z
4 3/4+y,3/4-x,3/4+z
5 1/2+x,1/2+y,1/2+z
6 1/4-y,3/4+x,3/4+z
7 -x,1/2-y,z
8 1/4+y,1/4-x,1/4+z
9 -x,-y,-z
10 1/4+y,3/4-x,3/4-z
11 1/2+x,y,1/2-z
12 1/4-y,1/4+x,1/4-z
13 1/2-x,1/2-y,1/2-z
14 3/4+y,1/4-x,1/4-z
15 x,1/2+y,-z
16 3/4-y,3/4+x,3/4-z
_cell_length_a                   20.643(15)
_cell_length_b                   20.643(15)
_cell_length_c                   12.520(10)
_cell_angle_alpha                90
_cell_angle_beta                 90
_cell_angle_gamma                90
_cell_volume                     5335.19
loop_
_atom_site_label
_atom_site_type_symbol
_atom_site_fract_x
_atom_site_fract_y
_atom_site_fract_z
_atom_site_U_iso_or_equiv
_atom_site_thermal_displace_type
Cu1 Cu -0.0000 -0.0000 1.0000 0.0711 Uani
O1 O 0.0708(5) -0.0482(6) 0.8438(7) 0.1103 Uani
O2 O 0.0511(4) 0.0560(5) 0.9015(5) 0.0797 Uani
N1 N 0.2476(5) 0.1784(5) 0.3510(7) 0.0723 Uani
N2 N 0.2217(5) 0.1158(5) 0.4870(6) 0.0683 Uani
C1 C 0.0763(6) 0.0128(10) 0.8372(9) 0.0837 Uani
C2 C 0.1129(6) 0.0412(7) 0.7422(8) 0.0697 Uani
C3 C 0.1433(6) 0.0009(7) 0.6702(9) 0.0750 Uani
H1 H 0.1402 -0.0437 0.6788 0.0900 Uiso
C4 C 0.1775(6) 0.0254(7) 0.5868(9) 0.0717 Uani
H2 H 0.1985 -0.0027 0.5402 0.0860 Uiso
C5 C 0.1816(6) 0.0894(7) 0.5708(8) 0.0710 Uani
C6 C 0.1510(7) 0.1338(7) 0.6442(9) 0.0853 Uani
H3 H 0.1535 0.1784 0.6344 0.1020 Uiso
C7 C 0.1180(6) 0.1076(8) 0.7292(9) 0.0823 Uani
H4 H 0.0986 0.1350 0.7789 0.0990 Uiso
C8 C 0.2057(6) 0.1689(6) 0.4268(9) 0.0743 Uani
H5 H 0.1695 0.1948 0.4387 0.0890 Uiso
C9 C 0.2781(6) 0.0930(6) 0.4501(9) 0.0650 Uani
H6 H 0.3015 0.0579 0.4765 0.0780 Uiso
C10 C 0.2945(7) 0.1322(7) 0.3649(9) 0.0770 Uani
H7 H 0.3316 0.1279 0.3234 0.0930 Uiso
Cu1G Cu 0.2500 0.2500 0.2500 0.0711 Uani
Cu1C Cu -0.2500 -0.2500 1.7500 0.0711 Uani
O1H O -0.0708(5) 0.0482(6) 1.1562(7) 0.1103 Uani
O2H O -0.0511(4) -0.0560(5) 1.0985(5) 0.0797 Uani
N1E N 0.0716(5) -0.0024(5) 1.1010(7) 0.0723 Uani
N1H N -0.2476(5) -0.1784(5) 1.6490(7) 0.0723 Uani
N1M N -0.0716(5) 0.0024(5) 0.8990(7) 0.0723 Uani
N2H N -0.2217(5) -0.1158(5) 1.5130(6) 0.0683 Uani
C1H C -0.0763(6) -0.0128(10) 1.1628(9) 0.0837 Uani
C2H C -0.1129(6) -0.0412(7) 1.2578(8) 0.0697 Uani
C3H C -0.1433(6) -0.0009(7) 1.3298(9) 0.0750 Uani
H1H H -0.1402 0.0437 1.3212 0.0900 Uiso
C4H C -0.1775(6) -0.0254(7) 1.4132(9) 0.0717 Uani
H2H H -0.1985 0.0027 1.4598 0.0860 Uiso
C5H C -0.1816(6) -0.0894(7) 1.4292(8) 0.0710 Uani
C6H C -0.1510(7) -0.1338(7) 1.3558(9) 0.0853 Uani
H3H H -0.1535 -0.1784 1.3656 0.1020 Uiso
C7H C -0.1180(6) -0.1076(8) 1.2708(9) 0.0823 Uani
H4H H -0.0986 -0.1350 1.2211 0.0990 Uiso
C8H C -0.2057(6) -0.1689(6) 1.5732(9) 0.0743 Uani
H5H H -0.1695 -0.1948 1.5613 0.0890 Uiso
C9H C -0.2781(6) -0.0930(6) 1.5499(9) 0.0650 Uani
H6H H -0.3015 -0.0579 1.5235 0.0780 Uiso
C10H C -0.2945(7) -0.1322(7) 1.6351(9) 0.0770 Uani
H7H H -0.3316 -0.1279 1.6766 0.0930 Uiso
loop_
_atom_site_aniso_label
_atom_site_aniso_U_11
_atom_site_aniso_U_22
_atom_site_aniso_U_33
_atom_site_aniso_U_23
_atom_site_aniso_U_13
_atom_site_aniso_U_12
Cu1 0.0681(16) 0.120(2) 0.0253(11) 0.0368(10) 0.0006(9) -0.0036(12)
O1 0.136(9) 0.129(9) 0.066(7) 0.054(6) 0.033(6) -0.017(7)
O2 0.100(7) 0.126(7) 0.013(4) 0.024(4) 0.012(4) 0.008(5)
N1 0.103(8) 0.080(7) 0.034(5) 0.003(5) 0.030(5) 0.009(6)
N2 0.101(8) 0.077(7) 0.027(5) 0.012(4) 0.020(5) 0.018(6)
C1 0.055(8) 0.167(16) 0.029(7) 0.037(8) -0.002(5) -0.011(9)
C2 0.087(9) 0.101(10) 0.021(6) 0.028(6) 0.005(5) -0.012(7)
C3 0.100(10) 0.091(9) 0.034(7) 0.019(6) 0.001(6) -0.022(8)
C4 0.091(9) 0.088(10) 0.036(6) 0.011(6) 0.018(6) 0.007(7)
C5 0.096(10) 0.093(10) 0.024(6) 0.021(6) 0.021(6) 0.003(7)
C6 0.119(11) 0.094(10) 0.043(7) 0.022(7) 0.029(7) -0.016(8)
C7 0.097(10) 0.111(12) 0.039(7) 0.009(7) 0.030(6) 0.018(8)
C8 0.106(10) 0.076(8) 0.041(7) 0.007(6) 0.041(7) 0.011(7)
C9 0.083(9) 0.073(8) 0.039(6) 0.006(6) 0.016(6) 0.019(7)
C10 0.104(10) 0.081(9) 0.046(8) -0.003(6) 0.040(7) -0.011(8)
Cu1G 0.12 0.0681 0.0253 -0.0006 0.0368 0.0036
Cu1C 0.12 0.0681 0.0253 -0.0006 0.0368 0.0036
O1H 0.136 0.129 0.066 0.054 0.033 -0.017
O2H 0.1 0.126 0.013 0.024 0.012 0.008
N1E 0.08 0.103 0.034 0.03 -0.003 -0.009
N1H 0.103 0.08 0.034 0.003 0.03 0.009
N1M 0.08 0.103 0.034 0.03 -0.003 -0.009
N2H 0.101 0.077 0.027 0.012 0.02 0.018
C1H 0.055 0.167 0.029 0.037 -0.002 -0.011
C2H 0.087 0.101 0.021 0.028 0.005 -0.012
C3H 0.1 0.091 0.034 0.019 0.001 -0.022
C4H 0.091 0.088 0.036 0.011 0.018 0.007
C5H 0.096 0.093 0.024 0.021 0.021 0.003
C6H 0.119 0.094 0.043 0.022 0.029 -0.016
C7H 0.097 0.111 0.039 0.009 0.03 0.018
C8H 0.106 0.076 0.041 0.007 0.041 0.011
C9H 0.083 0.073 0.039 0.006 0.016 0.019
C10H 0.104 0.081 0.046 -0.003 0.04 -0.011
loop_
_geom_bond_atom_site_label_1
_geom_bond_atom_site_label_2
_geom_bond_site_symmetry_1
_geom_bond_site_symmetry_2
Cu1 O2 1_555 1_555
O1 C1 1_555 1_555
O2 C1 1_555 1_555
N1 C8 1_555 1_555
N2 C5 1_555 1_555
C1 C2 1_555 1_555
C2 C3 1_555 1_555
C3 H1 1_555 1_555
C4 C3 1_555 1_555
H2 C4 1_555 1_555
C5 C4 1_555 1_555
C6 C5 1_555 1_555
H3 C6 1_555 1_555
C7 C2 1_555 1_555
H4 C7 1_555 1_555
C8 N2 1_555 1_555
H5 C8 1_555 1_555
C9 N2 1_555 1_555
H6 C9 1_555 1_555
C10 N1 1_555 1_555
H7 C10 1_555 1_555
Cu1G N1 1_555 1_555
Cu1C N1H 1_555 1_555
O1H C1H 1_555 1_555
O2H Cu1 1_555 1_555
N1E Cu1 1_555 1_555
N1H C8H 1_555 1_555
N1M Cu1 1_555 1_555
N2H C5H 1_555 1_555
C1H O2H 1_555 1_555
C2H C1H 1_555 1_555
C3H C2H 1_555 1_555
H1H C3H 1_555 1_555
C4H C3H 1_555 1_555
H2H C4H 1_555 1_555
C5H C4H 1_555 1_555
C6H C5H 1_555 1_555
H3H C6H 1_555 1_555
C7H C2H 1_555 1_555
H4H C7H 1_555 1_555
C8H N2H 1_555 1_555
H5H C8H 1_555 1_555
C9H N2H 1_555 1_555
H6H C9H 1_555 1_555
C10H N1H 1_555 1_555
H7H C10H 1_555 1_555
C6 C7 1_555 1_555
C9 C10 1_555 1_555
C6H C7H 1_555 1_555
C9H C10H 1_555 1_555

#END
