
#######################################################################
#
#                 Cambridge Crystallographic Data Centre
#                                CCDC 
#
#######################################################################
#
# If this CIF has been generated from an entry in the Cambridge 
# Structural Database, then it will include bibliographic, chemical, 
# crystal, experimental, refinement or atomic coordinate data resulting 
# from the CCDC's data processing and validation procedures.
#
#######################################################################

data_APEBOO
_chemical_formula_moiety         'C32 H6 N2 O20 Zn8'
_symmetry_cell_setting           rhombohedral
_symmetry_space_group_name_H-M   'R -3 m'
_symmetry_Int_Tables_number      166
_space_group_name_Hall           '-R 3 2"'
loop_
_symmetry_equiv_pos_site_id
_symmetry_equiv_pos_as_xyz
1 x,y,z
2 -y,x-y,z
3 -x+y,-x,z
4 x-y,-y,-z
5 -x,-x+y,-z
6 y,x,-z
7 2/3+x,1/3+y,1/3+z
8 2/3-y,1/3+x-y,1/3+z
9 2/3-x+y,1/3-x,1/3+z
10 2/3+x-y,1/3-y,1/3-z
11 2/3-x,1/3-x+y,1/3-z
12 2/3+y,1/3+x,1/3-z
13 1/3+x,2/3+y,2/3+z
14 1/3-y,2/3+x-y,2/3+z
15 1/3-x+y,2/3-x,2/3+z
16 1/3+x-y,2/3-y,2/3-z
17 1/3-x,2/3-x+y,2/3-z
18 1/3+y,2/3+x,2/3-z
19 -x,-y,-z
20 y,-x+y,-z
21 x-y,x,-z
22 -x+y,y,z
23 x,x-y,z
24 -y,-x,z
25 1/3-x,2/3-y,2/3-z
26 1/3+y,2/3-x+y,2/3-z
27 1/3+x-y,2/3+x,2/3-z
28 1/3-x+y,2/3+y,2/3+z
29 1/3+x,2/3+x-y,2/3+z
30 1/3-y,2/3-x,2/3+z
31 2/3-x,1/3-y,1/3-z
32 2/3+y,1/3-x+y,1/3-z
33 2/3+x-y,1/3+x,1/3-z
34 2/3-x+y,1/3+y,1/3+z
35 2/3+x,1/3+x-y,1/3+z
36 2/3-y,1/3-x,1/3+z
_cell_length_a                   18.816(2)
_cell_length_b                   18.816(2)
_cell_length_c                   38.416(5)
_cell_angle_alpha                90
_cell_angle_beta                 90
_cell_angle_gamma                120
_cell_volume                     11778.7
loop_
_atom_site_label
_atom_site_type_symbol
_atom_site_fract_x
_atom_site_fract_y
_atom_site_fract_z
_atom_site_U_iso_or_equiv
_atom_site_thermal_displace_type
Zn1 Zn 0.61482(3) 0.80741(2) 0.30121(2) 0.0481 Uani
O1 O 0.55448(19) 0.70325(19) 0.32945(8) 0.0788 Uani
C1 C 0.5718(2) 0.6935(3) 0.35993(12) 0.0657 Uani
O2 O 0.6331(2) 0.7419(2) 0.37685(9) 0.0912 Uani
O3 O 0.5580(4) 0.77901(19) 0.25573(14) 0.1161 Uani
C2 C 0.5091(7) 0.6224(7) 0.3776(3) 0.0590 Uiso
C3 C 0.5262(7) 0.6085(7) 0.4116(3) 0.0690 Uiso
H1 H 0.5757 0.6442 0.4224 0.0830 Uiso
C4 C 0.4636(4) 0.5364(4) 0.4291(3) 0.0620 Uiso
N1 N 0.4775(3) 0.5225(3) 0.4642(3) 0.0680 Uiso
C5 C 0.4528(8) 0.4405(7) 0.4801(4) 0.0640 Uiso
C6 C 0.4353(7) 0.5647(7) 0.3587(11) 0.0556 Uani
H2 H 0.4257 0.5743 0.3359 0.0670 Uiso
C7 C 0.4269(8) 0.4611(7) 0.4845(4) 0.0780 Uiso
C8 C 0.3749(8) 0.3605(10) 0.4767(4) 0.0970 Uiso
O4 O 0.3178(10) 0.3124(10) 0.4578(5) 0.1330 Uiso
C9 C 0.3841(9) 0.3461(9) 0.5141(4) 0.1100 Uiso
O1E O 0.70325(19) 0.55448(19) 0.67055(8) 0.0788 Uani
C1E C 0.6935(3) 0.5718(2) 0.64007(12) 0.0657 Uani
O2E O 0.7419(2) 0.6331(2) 0.62315(9) 0.0912 Uani
C2E C 0.6224(7) 0.5091(7) 0.6224(3) 0.0590 Uiso
C3E C 0.6085(7) 0.5262(7) 0.5884(3) 0.0690 Uiso
H1E H 0.6442 0.5757 0.5776 0.0830 Uiso
C4E C 0.5364(4) 0.4636(4) 0.5709(3) 0.0620 Uiso
N1E N 0.5225(3) 0.4775(3) 0.5358(3) 0.0680 Uiso
C5E C 0.4405(7) 0.4528(8) 0.5199(4) 0.0640 Uiso
C6E C 0.5647(7) 0.4353(7) 0.6413(11) 0.0556 Uani
H2E H 0.5743 0.4257 0.6641 0.0670 Uiso
C7E C 0.4611(7) 0.4269(8) 0.5155(4) 0.0780 Uiso
C8E C 0.3605(10) 0.3749(8) 0.5233(4) 0.0970 Uiso
O4E O 0.3124(10) 0.3178(10) 0.5422(5) 0.1330 Uiso
C9E C 0.3461(9) 0.3841(9) 0.4859(4) 0.1100 Uiso
O1R O 0.44552(19) 0.29675(19) 0.67055(8) 0.0788 Uani
C1R C 0.4282(2) 0.3065(3) 0.64007(12) 0.0657 Uani
O2R O 0.3669(2) 0.2581(2) 0.62315(9) 0.0912 Uani
C2R C 0.4909(7) 0.3776(7) 0.6224(3) 0.0590 Uiso
C3R C 0.4738(7) 0.3915(7) 0.5884(3) 0.0690 Uiso
H1R H 0.4243 0.3558 0.5776 0.0830 Uiso
C5R C 0.5472(8) 0.5595(7) 0.5199(4) 0.0640 Uiso
C7R C 0.5731(8) 0.5389(7) 0.5155(4) 0.0780 Uiso
C8R C 0.6251(8) 0.6395(10) 0.5233(4) 0.0970 Uiso
O4R O 0.6822(10) 0.6876(10) 0.5422(5) 0.1330 Uiso
C9R C 0.6159(9) 0.6539(9) 0.4859(4) 0.1100 Uiso
O1W O 0.29675(19) 0.44552(19) 0.32945(8) 0.0788 Uani
C1W C 0.3065(3) 0.4282(2) 0.35993(12) 0.0657 Uani
O2W O 0.2581(2) 0.3669(2) 0.37685(9) 0.0912 Uani
C2W C 0.3776(7) 0.4909(7) 0.3776(3) 0.0590 Uiso
C3W C 0.3915(7) 0.4738(7) 0.4116(3) 0.0690 Uiso
H1W H 0.3558 0.4243 0.4224 0.0830 Uiso
C5W C 0.5595(7) 0.5472(8) 0.4801(4) 0.0640 Uiso
C7W C 0.5389(7) 0.5731(8) 0.4845(4) 0.0780 Uiso
C8W C 0.6395(10) 0.6251(8) 0.4767(4) 0.0970 Uiso
O4W O 0.6876(10) 0.6822(10) 0.4578(5) 0.1330 Uiso
C9W C 0.6539(9) 0.6159(9) 0.5141(4) 0.1100 Uiso
Zn1P Zn 0.71851(3) 0.85926(4) 0.36546(2) 0.0481 Uani
O3P O 0.7753(4) 0.88768(44) 0.41094(14) 0.1161 Uani
Zn1B Zn 0.19259(4) 0.38518(3) 0.30121(2) 0.0481 Uani
Zn1D Zn 0.38518(3) 0.19259(4) 0.69879(2) 0.0481 Uani
Zn1E Zn 0.80741(2) 0.61482(3) 0.69879(2) 0.0481 Uani
Zn1F Zn 0.28149(3) 0.14074(2) 0.63454(2) 0.0481 Uani
Zn1H Zn 0.85926(4) 0.71851(3) 0.63454(2) 0.0481 Uani
Zn1Q Zn 0.14074(2) 0.28149(3) 0.36546(2) 0.0481 Uani
O1P O 0.77885(19) 0.81544(27) 0.33722(8) 0.0788 Uani
O1V O 0.55448(19) 0.85123(27) 0.32945(8) 0.0788 Uani
O1X O 0.77885(19) 0.96342(19) 0.33722(8) 0.0788 Uani
O2P O 0.7002(2) 0.7755(3) 0.28982(9) 0.0912 Uani
O2V O 0.6331(2) 0.8912(3) 0.37685(9) 0.0912 Uani
O2X O 0.7002(2) 0.9248(2) 0.28982(9) 0.0912 Uani
loop_
_atom_site_aniso_label
_atom_site_aniso_U_11
_atom_site_aniso_U_22
_atom_site_aniso_U_33
_atom_site_aniso_U_23
_atom_site_aniso_U_13
_atom_site_aniso_U_12
Zn1 0.0329(4) 0.0675(4) 0.0324(3) -0.00212(11) -0.0042(2) 0.01644(18)
O1 0.080(2) 0.075(2) 0.0623(18) 0.0121(16) 0.0074(15) 0.0244(17)
C1 0.042(2) 0.061(3) 0.069(3) 0.009(2) 0.012(2) 0.007(2)
O2 0.064(2) 0.091(2) 0.076(2) 0.0049(19) 0.0045(17) 0.0068(19)
O3 0.134(5) 0.126(3) 0.091(4) -0.0268(18) -0.054(4) 0.067(2)
C6 0.056(5) 0.056(5) 0.052(7) 0.003(7) -0.003(7) 0.026(7)
O1E 0.075 0.08 0.0623 -0.0074 -0.0121 0.0244
C1E 0.061 0.042 0.069 -0.012 -0.009 0.007
O2E 0.091 0.064 0.076 -0.0045 -0.0049 0.0068
C6E 0.056 0.056 0.052 0.003 -0.003 0.026
O1R 0.08 0.075 0.0623 0.0121 0.0074 0.0244
C1R 0.042 0.061 0.069 0.009 0.012 0.007
O2R 0.064 0.091 0.076 0.0049 0.0045 0.0068
O1W 0.075 0.08 0.0623 -0.0074 -0.0121 0.0244
C1W 0.061 0.042 0.069 -0.012 -0.009 0.007
O2W 0.091 0.064 0.076 -0.0045 -0.0049 0.0068
Zn1P 0.0329 0.06752 0.0324 -0.00208 -0.0042 0.01646
O3P 0.134 0.126 0.091 -0.0272 -0.054 0.067
Zn1B 0.06752 0.0329 0.0324 0.0042 0.00208 0.01646
Zn1D 0.0329 0.06752 0.0324 -0.00208 -0.0042 0.01646
Zn1E 0.0675 0.0329 0.0324 0.0042 0.00212 0.01644
Zn1F 0.0329 0.0675 0.0324 -0.00212 -0.0042 0.01644
Zn1H 0.06752 0.0329 0.0324 0.0042 0.00208 0.01646
Zn1Q 0.0675 0.0329 0.0324 0.0042 0.00212 0.01644
O1P 0.08 0.1062 0.0623 -0.0047 0.0074 0.0556
O1V 0.08 0.1062 0.0623 -0.0047 0.0074 0.0556
O1X 0.08 0.075 0.0623 0.0121 0.0074 0.0244
O2P 0.064 0.1414 0.076 -0.0004 0.0045 0.0572
O2V 0.064 0.1414 0.076 -0.0004 0.0045 0.0572
O2X 0.064 0.091 0.076 0.0049 0.0045 0.0068
loop_
_geom_bond_atom_site_label_1
_geom_bond_atom_site_label_2
_geom_bond_site_symmetry_1
_geom_bond_site_symmetry_2
Zn1 O1 1_555 1_555
O1 C1 1_555 1_555
C1 O2 1_555 1_555
O2 Zn1P 1_555 1_555
O3 Zn1 1_555 1_555
C2 C1 1_555 1_555
C3 C2 1_555 1_555
H1 C3 1_555 1_555
C4 C3 1_555 1_555
N1 C4 1_555 1_555
C5 N1 1_555 1_555
C6 C2 1_555 1_555
H2 C6 1_555 1_555
C7 N1 1_555 1_555
C8 C5 1_555 1_555
O4 C8 1_555 1_555
C9 C8 1_555 1_555
O1E C1E 1_555 1_555
C1E O2E 1_555 1_555
O2E Zn1H 1_555 1_555
C2E C1E 1_555 1_555
C3E C2E 1_555 1_555
H1E C3E 1_555 1_555
C4E C3E 1_555 1_555
N1E C4E 1_555 1_555
C5E C7 1_555 1_555
C6E C2E 1_555 1_555
H2E C6E 1_555 1_555
C7E C5 1_555 1_555
C8E C9 1_555 1_555
O4E C9 1_555 1_555
C9E C7 1_555 1_555
O1R C1R 1_555 1_555
C1R O2R 1_555 1_555
O2R Zn1F 1_555 1_555
C2R C6E 1_555 1_555
C3R C4E 1_555 1_555
H1R C3R 1_555 1_555
C5R N1E 1_555 1_555
C7R N1E 1_555 1_555
C8R C5R 1_555 1_555
O4R C8R 1_555 1_555
C9R C8R 1_555 1_555
O1W C1W 1_555 1_555
C1W O2W 1_555 1_555
O2W Zn1Q 1_555 1_555
C2W C6 1_555 1_555
C3W C4 1_555 1_555
H1W C3W 1_555 1_555
C5W N1 1_555 1_555
C7W N1 1_555 1_555
C8W C9R 1_555 1_555
O4W C9R 1_555 1_555
C9W C7R 1_555 1_555
Zn1P O3P 1_555 1_555
Zn1B O1W 1_555 1_555
Zn1D O1R 1_555 1_555
Zn1E O1E 1_555 1_555
O1P Zn1P 1_555 1_555
O1V Zn1 1_555 1_555
O1X Zn1P 1_555 1_555
O2P Zn1 1_555 1_555
O2V Zn1P 1_555 1_555
O2X Zn1 1_555 1_555
C5 C7 1_555 1_555
C8 C9E 1_555 1_555
O4 C9E 1_555 1_555
C9 C7E 1_555 1_555
N1E C5E 1_555 1_555
N1E C7E 1_555 1_555
C5E C7E 1_555 1_555
C5E C8E 1_555 1_555
C8E O4E 1_555 1_555
C8E C9E 1_555 1_555
C1R C2R 1_555 1_555
C2R C3R 1_555 1_555
C5R C7R 1_555 1_555
C5R C7W 1_555 1_555
C7R C5W 1_555 1_555
C8R C9W 1_555 1_555
O4R C9W 1_555 1_555
C9R C7W 1_555 1_555
C1W C2W 1_555 1_555
C2W C3W 1_555 1_555
C5W C7W 1_555 1_555
C5W C8W 1_555 1_555
C8W O4W 1_555 1_555
C8W C9W 1_555 1_555

#END
