
#######################################################################
#
#                 Cambridge Crystallographic Data Centre
#                                CCDC 
#
#######################################################################
#
# If this CIF has been generated from an entry in the Cambridge 
# Structural Database, then it will include bibliographic, chemical, 
# crystal, experimental, refinement or atomic coordinate data resulting 
# from the CCDC's data processing and validation procedures.
#
#######################################################################

data_APEBII
_chemical_formula_moiety         'C34 H6 Cu8 N2 O24'
_symmetry_cell_setting           rhombohedral
_symmetry_space_group_name_H-M   'R -3 m'
_symmetry_Int_Tables_number      166
_space_group_name_Hall           '-R 3 2"'
loop_
_symmetry_equiv_pos_site_id
_symmetry_equiv_pos_as_xyz
1 x,y,z
2 -y,x-y,z
3 -x+y,-x,z
4 x-y,-y,-z
5 -x,-x+y,-z
6 y,x,-z
7 2/3+x,1/3+y,1/3+z
8 2/3-y,1/3+x-y,1/3+z
9 2/3-x+y,1/3-x,1/3+z
10 2/3+x-y,1/3-y,1/3-z
11 2/3-x,1/3-x+y,1/3-z
12 2/3+y,1/3+x,1/3-z
13 1/3+x,2/3+y,2/3+z
14 1/3-y,2/3+x-y,2/3+z
15 1/3-x+y,2/3-x,2/3+z
16 1/3+x-y,2/3-y,2/3-z
17 1/3-x,2/3-x+y,2/3-z
18 1/3+y,2/3+x,2/3-z
19 -x,-y,-z
20 y,-x+y,-z
21 x-y,x,-z
22 -x+y,y,z
23 x,x-y,z
24 -y,-x,z
25 1/3-x,2/3-y,2/3-z
26 1/3+y,2/3-x+y,2/3-z
27 1/3+x-y,2/3+x,2/3-z
28 1/3-x+y,2/3+y,2/3+z
29 1/3+x,2/3+x-y,2/3+z
30 1/3-y,2/3-x,2/3+z
31 2/3-x,1/3-y,1/3-z
32 2/3+y,1/3-x+y,1/3-z
33 2/3+x-y,1/3+x,1/3-z
34 2/3-x+y,1/3+y,1/3+z
35 2/3+x,1/3+x-y,1/3+z
36 2/3-y,1/3-x,1/3+z
_cell_length_a                   18.2623(6)
_cell_length_b                   18.2623(6)
_cell_length_c                   39.6543(13)
_cell_angle_alpha                90
_cell_angle_beta                 90
_cell_angle_gamma                120
_cell_volume                     11453.3
loop_
_atom_site_label
_atom_site_type_symbol
_atom_site_fract_x
_atom_site_fract_y
_atom_site_fract_z
_atom_site_U_iso_or_equiv
_atom_site_thermal_displace_type
Cu1 Cu 0.47491(2) 0.52509(2) 0.52642(2) 0.0270 Uani
O1 O 0.37097(16) 0.47962(17) 0.50031(6) 0.0426 Uani
O2 O 0.41319(16) 0.43776(18) 0.45490(6) 0.0418 Uani
O3 O 0.42819(12) 0.57181(12) 0.56666(10) 0.0609 Uani
C1 C 0.3609(2) 0.4498(2) 0.47115(8) 0.0358 Uani
C2 C 0.22153(16) 0.4431(3) 0.47041(12) 0.0361 Uani
H1 H 0.2310 0.4621 0.4926 0.0440 Uiso
C3 C 0.2801(2) 0.4289(2) 0.45386(9) 0.0420 Uani
N1 N 0.1892(5) 0.3785(10) 0.3668(4) 0.0690 Uani
C4 C 0.1985(5) 0.3970(11) 0.4019(4) 0.0449 Uani
C5 C 0.2706(11) 0.4115(10) 0.4194(4) 0.0410 Uani
H2 H 0.3137 0.4096 0.4077 0.0490 Uiso
C6 C 0.4376(12) 0.5624(12) 0.5991(10) 0.1040 Uiso
C7 C 0.1374(11) 0.3861(12) 0.3454(5) 0.0690 Uiso
C8 C 0.0987(10) 0.3093(12) 0.3570(5) 0.0760 Uiso
C9 C 0.0077(10) 0.2818(13) 0.3586(6) 0.0950 Uiso
O4 O 0.0902(15) 0.4933(14) 0.3567(7) 0.1830 Uiso
C10 C 0.0906(14) 0.4326(14) 0.3395(6) 0.0990 Uiso
O5 O -0.0390(10) 0.2673(11) 0.3834(5) 0.1170 Uiso
O1O O 0.22468(23) 0.18705(17) 0.16636(6) 0.0426 Uani
O2O O 0.30876(24) 0.22891(18) 0.21177(6) 0.0418 Uani
C1O C 0.2444(3) 0.2169(2) 0.19552(8) 0.0358 Uani
C2O C 0.11176(34) 0.2236(3) 0.19626(12) 0.0361 Uani
H1O H 0.1022 0.2046 0.1741 0.0440 Uiso
C3O C 0.1845(3) 0.2378(2) 0.21281(9) 0.0420 Uani
N1O N 0.1440(11) 0.2882(10) 0.2999(4) 0.0690 Uani
C4O C 0.1348(12) 0.2697(11) 0.2648(4) 0.0449 Uani
C5O C 0.1924(15) 0.2552(10) 0.2473(4) 0.0410 Uani
H2O H 0.2374 0.2571 0.2590 0.0490 Uiso
C7O C 0.0846(16) 0.2806(12) 0.3213(5) 0.0690 Uiso
C8O C 0.1227(16) 0.3574(12) 0.3097(5) 0.0760 Uiso
C9O C 0.0592(16) 0.3849(13) 0.3081(6) 0.0950 Uiso
O4O O -0.0698(21) 0.1734(14) 0.3100(7) 0.1830 Uiso
C10O C -0.0087(20) 0.2341(14) 0.3272(6) 0.0990 Uiso
O5O O 0.0270(15) 0.3994(11) 0.2833(5) 0.1170 Uiso
O1U O 0.10865(23) 0.47962(17) 0.50031(6) 0.0426 Uani
O2U O 0.02457(24) 0.43776(18) 0.45490(6) 0.0418 Uani
C1U C 0.0889(3) 0.4498(2) 0.47115(8) 0.0358 Uani
C3U C 0.1488(3) 0.4289(2) 0.45386(9) 0.0420 Uani
C5U C 0.1409(15) 0.4115(10) 0.4194(4) 0.0410 Uani
H2U H 0.0959 0.4096 0.4077 0.0490 Uiso
C7U C 0.2487(16) 0.3861(12) 0.3454(5) 0.0690 Uiso
C8U C 0.2106(16) 0.3093(12) 0.3570(5) 0.0760 Uiso
C9U C 0.2741(16) 0.2818(13) 0.3586(6) 0.0950 Uiso
O4U O 0.4031(21) 0.4933(14) 0.3567(7) 0.1830 Uiso
C10U C 0.3420(20) 0.4326(14) 0.3395(6) 0.0990 Uiso
O5U O 0.3063(15) 0.2673(11) 0.3834(5) 0.1170 Uiso
O1X O -0.03764(16) 0.18705(17) 0.16636(6) 0.0426 Uani
O2X O -0.07986(16) 0.22891(18) 0.21177(6) 0.0418 Uani
C1X C -0.0276(2) 0.2169(2) 0.19552(8) 0.0358 Uani
C3X C 0.0532(2) 0.2378(2) 0.21281(9) 0.0420 Uani
C5X C 0.0627(11) 0.2552(10) 0.2473(4) 0.0410 Uani
H2X H 0.0196 0.2571 0.2590 0.0490 Uiso
C7X C 0.1959(11) 0.2806(12) 0.3213(5) 0.0690 Uiso
C8X C 0.2346(10) 0.3574(12) 0.3097(5) 0.0760 Uiso
C9X C 0.3256(10) 0.3849(13) 0.3081(6) 0.0950 Uiso
O4X O 0.2431(15) 0.1734(14) 0.3100(7) 0.1830 Uiso
C10X C 0.2427(14) 0.2341(14) 0.3272(6) 0.0990 Uiso
O5X O 0.3723(10) 0.3994(11) 0.2833(5) 0.1170 Uiso
Cu1E Cu 0.52509(2) 0.47491(2) 0.47358(2) 0.0270 Uani
O3E O 0.57181(12) 0.42819(12) 0.43334(10) 0.0609 Uani
C6E C 0.5624(12) 0.4376(12) 0.4009(10) 0.1040 Uiso
Cu1B Cu 0.05018(3) 0.52509(2) 0.52642(2) 0.0270 Uani
Cu1C Cu -0.05018(3) 0.47491(2) 0.47358(2) 0.0270 Uani
Cu1L Cu -0.19176(2) 0.19176(2) 0.19309(2) 0.0270 Uani
Cu1N Cu 0.38351(3) 0.19176(2) 0.19309(2) 0.0270 Uani
Cu1O Cu 0.28315(3) 0.14158(2) 0.14025(2) 0.0270 Uani
Cu1Q Cu -0.14158(2) 0.14158(2) 0.14025(2) 0.0270 Uani
O1E O 0.47962(17) 0.37097(16) 0.49969(6) 0.0426 Uani
O1R O 0.62903(16) 0.52038(17) 0.49969(6) 0.0426 Uani
O1W O 0.52038(17) 0.62903(16) 0.50031(6) 0.0426 Uani
O2E O 0.43776(18) 0.41319(16) 0.54510(6) 0.0418 Uani
O2R O 0.58681(16) 0.56224(18) 0.54510(6) 0.0418 Uani
O2W O 0.56224(18) 0.58681(16) 0.45490(6) 0.0418 Uani
loop_
_atom_site_aniso_label
_atom_site_aniso_U_11
_atom_site_aniso_U_22
_atom_site_aniso_U_33
_atom_site_aniso_U_23
_atom_site_aniso_U_13
_atom_site_aniso_U_12
Cu1 0.0370(3) 0.0370(3) 0.0217(4) -0.00140(9) 0.00140(9) 0.0295(3)
O1 0.0410(13) 0.0710(18) 0.0317(13) -0.0121(12) -0.0060(11) 0.0399(13)
O2 0.0441 0.0633 0.0336 -0.0103 -0.0043 0.0386
O3 0.084(2) 0.084(2) 0.044(2) -0.0107(9) 0.0107(9) 0.064(3)
C1 0.0401(18) 0.0447(18) 0.0342(18) -0.0025(14) -0.0009(14) 0.0298(16)
C2 0.0336(16) 0.046(3) 0.033(2) -0.007(2) -0.0037(10) 0.0231(13)
C3 0.044(2) 0.061(2) 0.0345(18) -0.0142(16) -0.0103(15) 0.0363(18)
N1 0.055(5) 0.119(13) 0.055(9) -0.041(9) -0.020(4) 0.060(7)
C4 0.046(5) 0.062(10) 0.032(7) -0.012(6) -0.006(3) 0.031(5)
C5 0.048(6) 0.055(9) 0.039(5) -0.010(5) -0.002(4) 0.040(6)
O1O 0.0322 0.071 0.0317 -0.0121 -0.0061 0.0311
O2O 0.0302 0.0633 0.0336 -0.0103 -0.006 0.0247
C1O 0.0252 0.0447 0.0342 -0.0025 -0.0016 0.0149
C2O 0.0334 0.046 0.033 -0.007 -0.0033 0.0229
C3O 0.0324 0.061 0.0345 -0.0142 -0.0039 0.0247
N1O 0.054 0.119 0.055 -0.041 -0.021 0.059
C4O 0.046 0.062 0.032 -0.012 -0.006 0.031
C5O 0.023 0.055 0.039 -0.01 -0.008 0.015
O1U 0.0322 0.071 0.0317 -0.0121 -0.0061 0.0311
O2U 0.0302 0.0633 0.0336 -0.0103 -0.006 0.0247
C1U 0.0252 0.0447 0.0342 -0.0025 -0.0016 0.0149
C3U 0.0324 0.061 0.0345 -0.0142 -0.0039 0.0247
C5U 0.023 0.055 0.039 -0.01 -0.008 0.015
O1X 0.041 0.071 0.0317 -0.0121 -0.006 0.0399
O2X 0.0441 0.0633 0.0336 -0.0103 -0.0043 0.0386
C1X 0.0401 0.0447 0.0342 -0.0025 -0.0009 0.0298
C3X 0.044 0.061 0.0345 -0.0142 -0.0103 0.0363
C5X 0.048 0.055 0.039 -0.01 -0.002 0.04
Cu1E 0.037 0.037 0.0217 -0.0014 0.0014 0.0295
O3E 0.084 0.084 0.044 -0.0107 0.0107 0.064
Cu1B 0.015 0.037 0.0217 -0.0014 -0.0028 0.0075
Cu1C 0.015 0.037 0.0217 -0.0014 -0.0028 0.0075
Cu1L 0.037 0.037 0.0217 -0.0014 0.0014 0.0295
Cu1N 0.015 0.037 0.0217 -0.0014 -0.0028 0.0075
Cu1O 0.015 0.037 0.0217 -0.0014 -0.0028 0.0075
Cu1Q 0.037 0.037 0.0217 -0.0014 0.0014 0.0295
O1E 0.071 0.041 0.0317 0.006 0.0121 0.0399
O1R 0.041 0.071 0.0317 -0.0121 -0.006 0.0399
O1W 0.071 0.041 0.0317 0.006 0.0121 0.0399
O2E 0.0633 0.0441 0.0336 0.0043 0.0103 0.0386
O2R 0.0441 0.0633 0.0336 -0.0103 -0.0043 0.0386
O2W 0.0633 0.0441 0.0336 0.0043 0.0103 0.0386
loop_
_geom_bond_atom_site_label_1
_geom_bond_atom_site_label_2
_geom_bond_site_symmetry_1
_geom_bond_site_symmetry_2
Cu1 O1 1_555 1_555
O1 C1 1_555 1_555
O2 C1 1_555 1_555
O3 Cu1 1_555 1_555
C1 C3 1_555 1_555
C2 H1 1_555 1_555
C3 C2 1_555 1_555
N1 C4 1_555 1_555
C4 C5 1_555 1_555
C5 C3 1_555 1_555
H2 C5 1_555 1_555
C6 O3 1_555 1_555
C7 N1 1_555 1_555
C8 N1 1_555 1_555
C9 C8 1_555 1_555
O4 C10 1_555 1_555
C10 C7 1_555 1_555
O5 C9 1_555 1_555
O1O C1O 1_555 1_555
O2O C1O 1_555 1_555
C1O C3O 1_555 1_555
C2O H1O 1_555 1_555
C3O C2O 1_555 1_555
N1O C4O 1_555 1_555
C4O C5O 1_555 1_555
C5O C3O 1_555 1_555
H2O C5O 1_555 1_555
C7O C8 1_555 1_555
C8O C7 1_555 1_555
C9O C10 1_555 1_555
O4O C10O 1_555 1_555
C10O C9 1_555 1_555
O5O C9O 1_555 1_555
O1U C1U 1_555 1_555
O2U C1U 1_555 1_555
C1U C3U 1_555 1_555
C3U C2 1_555 1_555
C5U C4 1_555 1_555
H2U C5U 1_555 1_555
C7U N1 1_555 1_555
C8U N1 1_555 1_555
C9U C8U 1_555 1_555
O4U C10U 1_555 1_555
C10U C7U 1_555 1_555
O5U C9U 1_555 1_555
O1X C1X 1_555 1_555
O2X C1X 1_555 1_555
C1X C3X 1_555 1_555
C3X C2O 1_555 1_555
C5X C4O 1_555 1_555
H2X C5X 1_555 1_555
C7X N1O 1_555 1_555
C8X N1O 1_555 1_555
C9X C10U 1_555 1_555
O4X C10X 1_555 1_555
C10X C9U 1_555 1_555
O5X C9X 1_555 1_555
Cu1E O2 1_555 1_555
O3E Cu1E 1_555 1_555
C6E O3E 1_555 1_555
Cu1B O1U 1_555 1_555
Cu1C O2U 1_555 1_555
Cu1L O2X 1_555 1_555
Cu1N O2O 1_555 1_555
Cu1O O1O 1_555 1_555
Cu1Q O1X 1_555 1_555
O1E Cu1E 1_555 1_555
O1R Cu1E 1_555 1_555
O1W Cu1 1_555 1_555
O2E Cu1 1_555 1_555
O2R Cu1 1_555 1_555
O2W Cu1E 1_555 1_555
C7 C8 1_555 1_555
N1O C7O 1_555 1_555
N1O C8O 1_555 1_555
C7O C8O 1_555 1_555
C7O C10O 1_555 1_555
C8O C9O 1_555 1_555
C3U C5U 1_555 1_555
C7U C8U 1_555 1_555
C7U C8X 1_555 1_555
C8U C7X 1_555 1_555
C3X C5X 1_555 1_555
C7X C8X 1_555 1_555
C7X C10X 1_555 1_555
C8X C9X 1_555 1_555

#END
