
#######################################################################
#
#                 Cambridge Crystallographic Data Centre
#                                CCDC 
#
#######################################################################
#
# If this CIF has been generated from an entry in the Cambridge 
# Structural Database, then it will include bibliographic, chemical, 
# crystal, experimental, refinement or atomic coordinate data resulting 
# from the CCDC's data processing and validation procedures.
#
#######################################################################

data_TIPZOJ
_chemical_formula_moiety         '(C22 H10 Ag7 F9 N4 O10)n'
_symmetry_cell_setting           monoclinic
_symmetry_space_group_name_H-M   'P 21/c'
_symmetry_Int_Tables_number      14
_space_group_name_Hall           '-P 2ybc'
loop_
_symmetry_equiv_pos_site_id
_symmetry_equiv_pos_as_xyz
1 x,y,z
2 -x,1/2+y,1/2-z
3 -x,-y,-z
4 x,1/2-y,1/2+z
_cell_length_a                   22.691(10)
_cell_length_b                   11.791(5)
_cell_length_c                   11.922(5)
_cell_angle_alpha                90
_cell_angle_beta                 102.046(7)
_cell_angle_gamma                90
_cell_volume                     3119.49
loop_
_atom_site_label
_atom_site_type_symbol
_atom_site_fract_x
_atom_site_fract_y
_atom_site_fract_z
Ag1 Ag 0.27963(3) 0.81958(5) 0.30976(5)
Ag2 Ag 0.09908(2) 0.83135(4) 0.35117(4)
Ag3 Ag 0.38938(2) 0.73969(5) 0.27466(5)
Ag4 Ag 0.29921(3) 0.76045(5) 0.06326(5)
Ag5 Ag 0.34244(3) 0.53586(5) 0.37943(5)
Ag6 Ag 0.20212(3) 0.65110(5) 0.34161(5)
Ag7 Ag 0.15927(3) 0.67597(5) 0.54659(6)
C1 C 0.4406(3) 0.8014(5) 0.0608(5)
C2 C 0.0656(3) 0.6760(5) 0.1227(6)
C3 C 0.2060(3) 0.8057(5) 0.4372(5)
C4 C 0.1980(3) 0.8965(6) 0.4765(5)
C5 C 0.2958(3) 0.8470(5) 0.7342(5)
C6 C 0.2752(3) 0.9379(5) 0.6942(6)
C7 C 0.3779(4) 0.9764(6) 0.4129(8)
C8 C 0.1943(4) 1.0056(6) 0.5358(7)
H1 H 0.1601 1.0030 0.5729
H2 H 0.1869 1.0658 0.4791
C9 C 0.2500(4) 1.0342(6) 0.6244(6)
H3 H 0.2402 1.0932 0.6742
H4 H 0.2803 1.0642 0.5858
C10 C 0.0278(3) 0.6274(5) 0.1996(5)
C11 C -0.0133(3) 0.5414(6) 0.1615(6)
H5 H -0.0159 0.5134 0.0876
C12 C 0.4896(3) 0.8419(5) 0.0034(5)
C13 C 0.5439(3) 0.8792(5) 0.0678(5)
H6 H 0.5508 0.8724 0.1472
N1 N 0.4796(2) 0.8441(5) -0.1110(4)
C14 C 0.5763(3) 0.9243(6) -0.0943(6)
H7 H 0.6056 0.9519 -0.1311
N2 N 0.5867(2) 0.9245(5) 0.0205(4)
C15 C 0.5234(3) 0.8843(6) -0.1586(6)
H8 H 0.5178 0.8854 -0.2381
C16 C -0.0042(3) 0.6286(6) 0.3672(6)
H9 H -0.0024 0.6573 0.4404
C17 C -0.0444(3) 0.5433(6) 0.3287(6)
H10 H -0.0693 0.5167 0.3758
C18 C 0.4108(5) 1.0681(9) 0.4948(11)
C19 C 0.1070(5) 0.3320(8) 0.3497(10)
C20 C 0.1335(3) 0.4492(6) 0.3790(7)
N3 N -0.0484(3) 0.4976(5) 0.2244(5)
C21 C 0.2579(3) 1.0082(6) 0.1187(7)
C22 C 0.2592(5) 1.1372(9) 0.1332(12)
F1 F 0.4597(4) 1.1049(6) 0.4656(9)
F2 F 0.4272(6) 1.0292(10) 0.6009(8)
F3 F 0.3766(4) 1.1553(6) 0.5008(11)
F4 F 0.0636(6) 0.3126(9) 0.3943(11)
F5 F 0.0798(6) 0.3236(8) 0.2427(10)
F6 F 0.1428(5) 0.2552(6) 0.3578(13)
F7 F 0.2114(4) 1.1812(6) 0.1446(12)
F8 F 0.2636(8) 1.1863(7) 0.0343(13)
F9 F 0.3039(5) 1.1731(7) 0.2010(11)
N4 N 0.0324(3) 0.6721(4) 0.3048(4)
O1 O 0.3882(2) 0.8004(4) 0.0025(4)
O2 O 0.4571(2) 0.7779(5) 0.1630(4)
O3 O 0.0555(3) 0.6405(5) 0.0234(4)
O4 O 0.1043(3) 0.7491(4) 0.1646(4)
O5 O 0.4045(3) 0.9379(6) 0.3418(7)
O6 O 0.3290(3) 0.9507(6) 0.4335(6)
O7 O 0.1634(3) 0.4841(5) 0.3074(5)
O8 O 0.1248(3) 0.4953(5) 0.4639(5)
O9 O 0.2268(3) 0.9595(5) 0.1775(5)
O10 O 0.2897(3) 0.9685(5) 0.0573(6)
Ag1C Ag 0.27963(3) 0.68042(5) -0.19024(5)
Ag1C_2 Ag 0.27963(3) 0.68042(5) 0.80976(5)
Ag2A Ag -0.09908(2) 0.33135(4) 0.14883(4)
Ag2C Ag 0.09908(2) 0.66865(4) -0.14883(4)
Ag3C Ag 0.38938(2) 0.76031(5) -0.22534(5)
Ag3C_2 Ag 0.38938(2) 0.76031(5) 0.77466(5)
Ag4C Ag 0.29921(3) 0.73955(5) 0.56326(5)
Ag5A Ag 0.65756(3) 1.03586(5) 0.12057(5)
Ag5C Ag 0.34244(3) 0.96414(5) -0.12057(5)
Ag5C_2 Ag 0.34244(3) 0.96414(5) 0.87943(5)
Ag6C Ag 0.20212(3) 0.84890(5) 0.84161(5)
Ag7C Ag 0.15927(3) 0.82403(5) 0.04659(6)
C3C C 0.2060(3) 0.6943(5) -0.0628(5)
C5C C 0.2958(3) 0.6530(5) 0.2342(5)
C6C C 0.2752(3) 0.5621(5) 0.1942(6)
N1C N 0.4796(2) 0.6559(5) 0.3890(4)
N2A N 0.4133(2) 0.4245(5) 0.4795(4)
N3A N 0.0484(3) 0.9976(5) 0.2756(5)
O1C O 0.3882(2) 0.6996(4) 0.5025(4)
O3C O 0.0555(3) 0.8595(5) 0.5234(4)
O4C O 0.1043(3) 0.7509(4) 0.6646(4)
O9C O 0.2268(3) 0.5405(5) 0.6775(5)
O10C O 0.2897(3) 0.5315(5) 0.5573(6)
loop_
_geom_bond_atom_site_label_1
_geom_bond_atom_site_label_2
_geom_bond_site_symmetry_1
_geom_bond_site_symmetry_2
Ag1 Ag3 1_555 1_555
Ag2 Ag6 1_555 1_555
Ag3 Ag4 1_555 1_555
Ag4 Ag1 1_555 1_555
Ag5 Ag3 1_555 1_555
Ag6 Ag1 1_555 1_555
Ag7 Ag2 1_555 1_555
C1 C12 1_555 1_555
C2 C10 1_555 1_555
C3 Ag1 1_555 1_555
C4 Ag2 1_555 1_555
C5 C6 1_555 1_555
C6 C9 1_555 1_555
C7 C18 1_555 1_555
C8 C4 1_555 1_555
H1 C8 1_555 1_555
H2 C8 1_555 1_555
C9 C8 1_555 1_555
H3 C9 1_555 1_555
H4 C9 1_555 1_555
C10 C11 1_555 1_555
C11 H5 1_555 1_555
C12 C13 1_555 1_555
C13 H6 1_555 1_555
N1 C12 1_555 1_555
C14 H7 1_555 1_555
N2 C13 1_555 1_555
C15 N1 1_555 1_555
H8 C15 1_555 1_555
C16 H9 1_555 1_555
C17 C16 1_555 1_555
H10 C17 1_555 1_555
C18 F1 1_555 1_555
C19 C20 1_555 1_555
C20 O7 1_555 1_555
N3 C11 1_555 1_555
C21 C22 1_555 1_555
C22 F7 1_555 1_555
F2 C18 1_555 1_555
F3 C18 1_555 1_555
F4 C19 1_555 1_555
F5 C19 1_555 1_555
F6 C19 1_555 1_555
F8 C22 1_555 1_555
F9 C22 1_555 1_555
N4 Ag2 1_555 1_555
O1 Ag4 1_555 1_555
O2 Ag3 1_555 1_555
O3 C2 1_555 1_555
O4 Ag2 1_555 1_555
O5 Ag3 1_555 1_555
O6 Ag1 1_555 1_555
O7 Ag6 1_555 1_555
O8 Ag7 1_555 1_555
O9 Ag1 1_555 1_555
O10 Ag4 1_555 1_555
Ag1C Ag4 1_555 1_555
Ag1C_2 C5 1_555 1_555
Ag2A N3 1_555 1_555
Ag2C O3 1_555 1_555
Ag3C N1 1_555 1_555
Ag3C_2 C5 1_555 1_555
Ag4C Ag1 1_555 1_555
Ag5A N2 1_555 1_555
Ag5C O1 1_555 1_555
Ag5C_2 C5 1_555 1_555
Ag6C C5 1_555 1_555
Ag7C Ag4 1_555 1_555
C3C Ag4 1_555 1_555
C5C Ag1 1_555 1_555
C6C Ag5 1_555 1_555
N1C Ag3 1_555 1_555
N2A Ag5 1_555 1_555
N3A Ag2 1_555 1_555
O1C Ag5 1_555 1_555
O3C Ag2 1_555 1_555
O4C Ag7 1_555 1_555
O9C Ag7 1_555 1_555
O10C Ag5 1_555 1_555
Ag2 C3 1_555 1_555
Ag3 C5C 1_555 1_555
Ag4 C5C 1_555 1_555
Ag5 C5C 1_555 1_555
Ag6 Ag7 1_555 1_555
Ag6 C3 1_555 1_555
Ag6 C5C 1_555 1_555
Ag7 C3 1_555 1_555
Ag7 Ag4C 1_555 1_555
C1 O1 1_555 1_555
C1 O2 1_555 1_555
C2 O4 1_555 1_555
C3 C4 1_555 1_555
C3 Ag4C 1_555 1_555
C5 Ag4C 1_555 1_555
C6 Ag5C_2 1_555 1_555
C7 O5 1_555 1_555
C7 O6 1_555 1_555
C10 N4 1_555 1_555
C14 N2 1_555 1_555
C14 C15 1_555 1_555
C16 N4 1_555 1_555
C17 N3 1_555 1_555
C20 O8 1_555 1_555
C21 O9 1_555 1_555
C21 O10 1_555 1_555
O4 Ag7C 1_555 1_555
O9 Ag7C 1_555 1_555
O10 Ag5C 1_555 1_555
Ag1C Ag3C 1_555 1_555
Ag1C C3C 1_555 1_555
Ag1C_2 Ag3C_2 1_555 1_555
Ag1C_2 Ag4C 1_555 1_555
Ag1C_2 Ag6C 1_555 1_555
Ag1C_2 O9C 1_555 1_555
Ag2C Ag7C 1_555 1_555
Ag2C C3C 1_555 1_555
Ag3C Ag5C 1_555 1_555
Ag3C_2 Ag4C 1_555 1_555
Ag3C_2 Ag5C_2 1_555 1_555
Ag4C O1C 1_555 1_555
Ag4C O10C 1_555 1_555
Ag7C C3C 1_555 1_555
C5C C6C 1_555 1_555

#END
