
#######################################################################
#
#                 Cambridge Crystallographic Data Centre
#                                CCDC 
#
#######################################################################
#
# If this CIF has been generated from an entry in the Cambridge 
# Structural Database, then it will include bibliographic, chemical, 
# crystal, experimental, refinement or atomic coordinate data resulting 
# from the CCDC's data processing and validation procedures.
#
#######################################################################

data_DIXJIF
_chemical_formula_moiety         '(C30 H20 N2 O8 Zn2)n'
_symmetry_cell_setting           monoclinic
_symmetry_space_group_name_H-M   'C 2/c'
_symmetry_Int_Tables_number      15
_space_group_name_Hall           '-C 2yc'
loop_
_symmetry_equiv_pos_site_id
_symmetry_equiv_pos_as_xyz
1 x,y,z
2 -x,y,1/2-z
3 1/2+x,1/2+y,z
4 1/2-x,1/2+y,1/2-z
5 -x,-y,-z
6 x,-y,1/2+z
7 1/2-x,1/2-y,-z
8 1/2+x,1/2-y,1/2+z
_cell_length_a                   16.752(5)
_cell_length_b                   20.392(6)
_cell_length_c                   10.355(3)
_cell_angle_alpha                90
_cell_angle_beta                 115.486(4)
_cell_angle_gamma                90
_cell_volume                     3193.12
loop_
_atom_site_label
_atom_site_type_symbol
_atom_site_fract_x
_atom_site_fract_y
_atom_site_fract_z
Zn1 Zn 0.44551(2) 0.275546(17) 1.09208(4)
O1 O 0.52931(18) 0.34786(14) 1.0922(3)
C1 C 0.5889(2) 0.37038(18) 1.2069(4)
C2 C 0.6365(3) 0.4305(2) 1.1940(5)
C3 C 0.7109(4) 0.4523(3) 1.3054(6)
H1 H 0.7319 0.4285 1.3903
C4 C 0.7586(4) 0.5091(4) 1.3007(6)
H2 H 0.8114 0.5198 1.3784
C5 C 0.6027(5) 0.4718(4) 1.0822(9)
H3 H 0.5485 0.4623 1.0062
N1 N 0.3729(2) 0.26821(15) 0.8746(4)
C6 C 0.2520(4) 0.2233(2) 0.6738(5)
H4 H 0.2019 0.1970 0.6407
C7 C 0.3017(4) 0.2314(2) 0.8182(5)
H5 H 0.2839 0.2094 0.8801
C8 C 0.3935(4) 0.3010(4) 0.7828(5)
H6 H 0.4414 0.3296 0.8188
C9 C 0.3480(4) 0.2949(4) 0.6384(6)
H7 H 0.3660 0.3190 0.5793
C10 C 0.6480(5) 0.5287(4) 1.0790(8)
H8 H 0.6214 0.5557 0.9993
C11 C 0.2764(3) 0.2541(2) 0.5781(4)
C12 C 0.7266(3) 0.5481(3) 1.1811(5)
C13 C 0.7757(3) 0.6060(2) 1.1745(5)
C14 C 0.8471(3) 0.6280(2) 1.2840(4)
C15 C 0.8988(3) 0.68527(19) 1.2689(4)
O2 O 0.8778(2) 0.70682(16) 1.1462(3)
O3 O 0.9598(2) 0.70668(16) 1.3816(3)
O4 O 0.6118(2) 0.34623(14) 1.3303(3)
H9 H 0.862(3) 0.605(2) 1.375(3)
H10 H 0.748(3) 0.635(2) 1.095(4)
N1F N 0.1271(2) 0.23179(15) 0.1254(4)
C6F C 0.2480(4) 0.2767(2) 0.3262(5)
H4F H 0.2981 0.3030 0.3593
C7F C 0.1983(4) 0.2686(2) 0.1818(5)
H5F H 0.2161 0.2906 0.1199
C8F C 0.1065(4) 0.1990(4) 0.2172(5)
H6F H 0.0586 0.1704 0.1812
C9F C 0.1520(4) 0.2051(4) 0.3616(6)
H7F H 0.1340 0.1810 0.4207
C11F C 0.2236(3) 0.2459(2) 0.4219(4)
Zn1A Zn 0.55449(2) 0.275546(17) 1.40792(4)
O1A O 0.47069(18) 0.34786(14) 1.4078(3)
C1A C 0.4111(2) 0.37038(18) 1.2931(4)
C2A C 0.3635(3) 0.4305(2) 1.3060(5)
C3A C 0.2891(4) 0.4523(3) 1.1946(6)
H1A H 0.2681 0.4285 1.1097
C4A C 0.2414(4) 0.5091(4) 1.1993(6)
H2A H 0.1886 0.5198 1.1216
C5A C 0.3973(5) 0.4718(4) 1.4178(9)
H3A H 0.4515 0.4623 1.4938
C10A C 0.3520(5) 0.5287(4) 1.4210(8)
H8A H 0.3786 0.5557 1.5007
C12A C 0.2734(3) 0.5481(3) 1.3189(5)
C13A C 0.2243(3) 0.6060(2) 1.3255(5)
C14A C 0.1529(3) 0.6280(2) 1.2160(4)
C15A C 0.1012(3) 0.68527(19) 1.2311(4)
O2A O 0.1222(2) 0.70682(16) 1.3538(3)
O3A O 0.0402(2) 0.70668(16) 1.1184(3)
O4A O 0.3882(2) 0.34623(14) 1.1697(3)
H9A H 0.138(3) 0.605(2) 1.125(3)
H10A H 0.252(3) 0.635(2) 1.405(4)
Zn1B Zn -0.05449(2) 0.775546(17) 1.09208(4)
Zn1B_2 Zn 0.94551(2) 0.775546(17) 1.09208(4)
Zn1C Zn 0.05449(2) 0.775546(17) 1.40792(4)
Zn1C_2 Zn 1.05449(2) 0.775546(17) 1.40792(4)
Zn1F Zn 0.05449(2) 0.224454(17) -0.09208(4)
N1A N 0.6271(2) 0.26821(15) 1.6254(4)
O2B O 0.3778(2) 0.20682(16) 1.1462(3)
O2C O 0.6222(2) 0.20682(16) 1.3538(3)
O3B O 0.4598(2) 0.20668(16) 1.3816(3)
O3C O 0.5402(2) 0.20668(16) 1.1184(3)
loop_
_geom_bond_atom_site_label_1
_geom_bond_atom_site_label_2
_geom_bond_site_symmetry_1
_geom_bond_site_symmetry_2
Zn1 O1 1_555 1_555
O1 C1 1_555 1_555
C1 C2 1_555 1_555
C2 C3 1_555 1_555
C3 H1 1_555 1_555
C4 C3 1_555 1_555
H2 C4 1_555 1_555
C5 C2 1_555 1_555
H3 C5 1_555 1_555
N1 Zn1 1_555 1_555
C6 H4 1_555 1_555
C7 N1 1_555 1_555
H5 C7 1_555 1_555
C8 N1 1_555 1_555
H6 C8 1_555 1_555
C9 C8 1_555 1_555
H7 C9 1_555 1_555
C10 C5 1_555 1_555
H8 C10 1_555 1_555
C11 C6 1_555 1_555
C12 C4 1_555 1_555
C13 C12 1_555 1_555
C14 C13 1_555 1_555
C15 C14 1_555 1_555
O2 C15 1_555 1_555
O3 C15 1_555 1_555
O4 C1 1_555 1_555
H9 C14 1_555 1_555
H10 C13 1_555 1_555
N1F C7F 1_555 1_555
C6F H4F 1_555 1_555
C7F C6F 1_555 1_555
H5F C7F 1_555 1_555
C8F N1F 1_555 1_555
H6F C8F 1_555 1_555
C9F C8F 1_555 1_555
H7F C9F 1_555 1_555
C11F C11 1_555 1_555
Zn1A O4 1_555 1_555
O1A Zn1A 1_555 1_555
C1A O1A 1_555 1_555
C2A C1A 1_555 1_555
C3A C2A 1_555 1_555
H1A C3A 1_555 1_555
C4A C3A 1_555 1_555
H2A C4A 1_555 1_555
C5A C2A 1_555 1_555
H3A C5A 1_555 1_555
C10A C5A 1_555 1_555
H8A C10A 1_555 1_555
C12A C4A 1_555 1_555
C13A C12A 1_555 1_555
C14A C13A 1_555 1_555
C15A C14A 1_555 1_555
O2A C15A 1_555 1_555
O3A C15A 1_555 1_555
O4A Zn1 1_555 1_555
H9A C14A 1_555 1_555
H10A C13A 1_555 1_555
Zn1B O3A 1_555 1_555
Zn1B_2 O2 1_555 1_555
Zn1C O2A 1_555 1_555
Zn1C_2 O3 1_555 1_555
Zn1F N1F 1_555 1_555
N1A Zn1A 1_555 1_555
O2B Zn1 1_555 1_555
O2C Zn1A 1_555 1_555
O3B Zn1A 1_555 1_555
O3C Zn1 1_555 1_555
C6 C7 1_555 1_555
C9 C11 1_555 1_555
C10 C12 1_555 1_555
C6F C11F 1_555 1_555
C9F C11F 1_555 1_555
C1A O4A 1_555 1_555
C10A C12A 1_555 1_555

#END
