
#######################################################################
#
#                 Cambridge Crystallographic Data Centre
#                                CCDC 
#
#######################################################################
#
# If this CIF has been generated from an entry in the Cambridge 
# Structural Database, then it will include bibliographic, chemical, 
# crystal, experimental, refinement or atomic coordinate data resulting 
# from the CCDC's data processing and validation procedures.
#
#######################################################################

data_WIFBAQ
_chemical_formula_moiety         '(C18 H26 Cd1 N4 O8)n'
_symmetry_cell_setting           monoclinic
_symmetry_space_group_name_H-M   'C 2/c'
_symmetry_Int_Tables_number      15
_space_group_name_Hall           '-C 2yc'
loop_
_symmetry_equiv_pos_site_id
_symmetry_equiv_pos_as_xyz
1 x,y,z
2 -x,y,1/2-z
3 1/2+x,1/2+y,z
4 1/2-x,1/2+y,1/2-z
5 -x,-y,-z
6 x,-y,1/2+z
7 1/2-x,1/2-y,-z
8 1/2+x,1/2-y,1/2+z
_cell_length_a                   29.200(2)
_cell_length_b                   11.9144(9)
_cell_length_c                   14.0146(10)
_cell_angle_alpha                90
_cell_angle_beta                 92.054(7)
_cell_angle_gamma                90
_cell_volume                     4872.55
loop_
_atom_site_label
_atom_site_type_symbol
_atom_site_fract_x
_atom_site_fract_y
_atom_site_fract_z
_atom_site_U_iso_or_equiv
_atom_site_thermal_displace_type
C1 C 0.88008(19) 0.2678(5) 0.5970(5) 0.0656 Uani
H1 H 0.8795 0.1901 0.5901 0.0790 Uiso
C2 C 0.92184(17) 0.3207(5) 0.5986(5) 0.0670 Uani
H2 H 0.9487 0.2798 0.5925 0.0800 Uiso
C3 C 0.92319(15) 0.4358(5) 0.6094(4) 0.0533 Uani
C4 C 0.88186(16) 0.4927(5) 0.6131(4) 0.0557 Uani
H3 H 0.8813 0.5706 0.6169 0.0670 Uiso
C5 C 0.84160(16) 0.4325(5) 0.6110(4) 0.0556 Uani
H4 H 0.8141 0.4715 0.6141 0.0670 Uiso
C6 C 0.96850(16) 0.4960(5) 0.6171(4) 0.0568 Uani
C7 C 0.96889(19) 0.6218(5) 0.6234(5) 0.0739 Uani
H5 H 1.0000 0.6480 0.6276 0.1110 Uiso
H6 H 0.9533 0.6451 0.6792 0.1110 Uiso
H7 H 0.9537 0.6528 0.5676 0.1110 Uiso
C8 C 1.0813(2) 0.3065(6) 0.6344(6) 0.0907 Uani
H8 H 1.0504 0.2786 0.6303 0.1360 Uiso
H9 H 1.0960 0.2809 0.6927 0.1360 Uiso
H10 H 1.0978 0.2793 0.5811 0.1360 Uiso
C9 C 1.08062(16) 0.4300(5) 0.6331(4) 0.0518 Uani
C10 C 1.12511(14) 0.4928(4) 0.6389(3) 0.0451 Uani
C11 C 1.16742(17) 0.4406(5) 0.6347(4) 0.0565 Uani
H11 H 1.1695 0.3630 0.6297 0.0680 Uiso
C12 C 1.20619(16) 0.5056(5) 0.6379(4) 0.0564 Uani
H12 H 1.2344 0.4696 0.6347 0.0680 Uiso
C13 C 1.16531(16) 0.6654(5) 0.6521(4) 0.0601 Uani
H13 H 1.1645 0.7429 0.6600 0.0720 Uiso
C14 C 1.12482(16) 0.6081(5) 0.6481(4) 0.0601 Uani
H14 H 1.0972 0.6465 0.6515 0.0720 Uiso
C15 C 0.81874(16) 0.0931(5) 0.7625(4) 0.0554 Uani
C16 C 0.84584(18) 0.0288(6) 0.8409(5) 0.0698 Uani
H15 H 0.8578 -0.0397 0.8139 0.0840 Uiso
H16 H 0.8717 0.0742 0.8627 0.0840 Uiso
C17 C 0.8174(2) -0.0012(5) 0.9266(4) 0.0668 Uani
H17 H 0.8378 -0.0263 0.9784 0.0800 Uiso
H18 H 0.8018 0.0656 0.9478 0.0800 Uiso
C18 C 0.78268(15) -0.0911(4) 0.9050(4) 0.0443 Uani
N1 N 0.84015(12) 0.3217(4) 0.6049(3) 0.0509 Uani
N2 N 1.00375(14) 0.4315(4) 0.6201(4) 0.0631 Uani
N3 N 1.04544(13) 0.4909(4) 0.6285(4) 0.0614 Uani
N4 N 1.20599(12) 0.6159(4) 0.6454(3) 0.0479 Uani
O1 O 0.79482(13) 0.1742(4) 0.7869(3) 0.0625 Uani
O2 O 0.82261(13) 0.0666(4) 0.6771(3) 0.0662 Uani
O3 O 0.76909(12) -0.1108(3) 0.8218(3) 0.0563 Uani
O4 O 0.76862(12) -0.1484(3) 0.9731(3) 0.0599 Uani
Cd1 Cd 0.772739(10) 0.22070(3) 0.62754(2) 0.0423 Uani
N4B N 0.70599(12) 0.1159(4) 0.6454(3) 0.0479 Uani
O3C O 0.73091(12) 0.3892(3) 0.6782(3) 0.0563 Uani
O4C O 0.73138(12) 0.3516(3) 0.5269(3) 0.0599 Uani
O4E O 0.76862(12) 0.1484(3) 0.4731(3) 0.0599 Uani
Cd1B Cd 1.272739(10) 0.72070(3) 0.62754(2) 0.0423 Uani
Cd1C Cd 0.727261(10) -0.27930(3) 0.87246(2) 0.0423 Uani
Cd1E Cd 0.772739(10) -0.22070(3) 1.12754(2) 0.0423 Uani
O5 O 0.7253(4) 0.2119(9) 0.9197(7) 0.2107 Uani
O6 O 0.8539(4) -0.1562(9) 0.6345(7) 0.2329 Uani
O7 O 0.9606(11) 0.893(3) 0.775(4) 0.5569 Uani
O8 O 0.9410(12) -0.042(2) 0.541(3) 0.4183 Uani
loop_
_atom_site_aniso_label
_atom_site_aniso_U_11
_atom_site_aniso_U_22
_atom_site_aniso_U_33
_atom_site_aniso_U_23
_atom_site_aniso_U_13
_atom_site_aniso_U_12
C1 0.038(3) 0.056(4) 0.103(5) -0.003(3) 0.005(3) -0.011(3)
C2 0.033(2) 0.060(4) 0.108(5) 0.002(4) 0.004(3) -0.011(3)
C3 0.031(2) 0.074(4) 0.055(3) 0.006(3) 0.001(2) -0.019(2)
C4 0.041(3) 0.064(4) 0.062(3) 0.002(3) 0.001(2) -0.009(2)
C5 0.032(2) 0.066(4) 0.069(3) 0.003(3) 0.004(2) -0.009(2)
C6 0.032(2) 0.076(4) 0.062(3) 0.009(3) -0.002(2) -0.022(3)
C7 0.045(3) 0.068(4) 0.108(5) 0.009(4) -0.009(3) -0.018(3)
C8 0.058(4) 0.062(4) 0.150(7) 0.012(4) -0.026(4) -0.013(3)
C9 0.034(2) 0.061(3) 0.060(3) 0.012(3) -0.002(2) -0.012(2)
C10 0.027(2) 0.057(3) 0.051(3) 0.008(2) -0.0011(18) -0.011(2)
C11 0.039(2) 0.049(3) 0.081(4) 0.000(3) -0.004(2) 0.001(2)
C12 0.030(2) 0.058(4) 0.081(4) 0.005(3) 0.001(2) -0.001(2)
C13 0.035(2) 0.051(3) 0.095(4) 0.003(3) 0.014(3) -0.010(2)
C14 0.029(2) 0.058(3) 0.094(4) 0.007(3) 0.011(2) -0.003(2)
C15 0.033(2) 0.059(4) 0.074(4) 0.018(3) -0.002(2) -0.014(2)
C16 0.037(3) 0.078(4) 0.093(4) 0.033(4) -0.019(3) -0.016(3)
C17 0.075(4) 0.063(4) 0.061(3) 0.011(3) -0.018(3) -0.021(3)
C18 0.037(2) 0.043(3) 0.053(3) 0.006(2) 0.003(2) 0.008(2)
N1 0.0268(18) 0.066(3) 0.060(3) 0.004(2) 0.0022(17) -0.0106(19)
N2 0.031(2) 0.071(3) 0.087(3) 0.010(3) -0.001(2) -0.022(2)
N3 0.030(2) 0.067(3) 0.087(3) 0.009(3) 0.000(2) -0.019(2)
N4 0.0268(17) 0.057(3) 0.060(2) 0.004(2) 0.0036(17) -0.0056(18)
O1 0.059(2) 0.061(2) 0.067(2) 0.009(2) -0.0064(18) -0.005(2)
O2 0.054(2) 0.079(3) 0.066(3) 0.016(2) 0.0069(19) 0.001(2)
O3 0.0474(19) 0.064(2) 0.057(2) 0.0032(18) -0.0057(16) -0.0103(17)
O4 0.053(2) 0.069(3) 0.058(2) 0.015(2) 0.0043(17) -0.0058(19)
Cd1 0.02442(17) 0.0527(3) 0.0499(2) 0.00187(17) 0.00107(12) -0.00616(14)
N4B 0.0268 0.057 0.06 0.004 0.0036 -0.0056
O3C 0.0474 0.064 0.057 -0.0032 -0.0057 0.0103
O4C 0.053 0.069 0.058 -0.015 0.0043 0.0058
O4E 0.053 0.069 0.058 -0.015 0.0043 0.0058
Cd1B 0.02442 0.0527 0.0499 0.00187 0.00107 -0.00616
Cd1C 0.02442 0.0527 0.0499 -0.00187 0.00107 0.00616
Cd1E 0.02442 0.0527 0.0499 -0.00187 0.00107 0.00616
O5 0.222(11) 0.238(11) 0.178(8) -0.015(8) 0.089(8) 0.039(8)
O6 0.319(14) 0.203(10) 0.173(8) 0.018(8) -0.044(8) 0.091(10)
O7 0.27(3) 0.48(6) 0.92(10) -0.18(6) 0.01(5) 0.27(4)
O8 0.36(4) 0.21(3) 0.66(6) -0.07(3) -0.33(4) 0.03(3)
loop_
_geom_bond_atom_site_label_1
_geom_bond_atom_site_label_2
_geom_bond_site_symmetry_1
_geom_bond_site_symmetry_2
C1 H1 1_555 1_555
C2 C1 1_555 1_555
H2 C2 1_555 1_555
C3 C2 1_555 1_555
C4 C3 1_555 1_555
H3 C4 1_555 1_555
C5 C4 1_555 1_555
H4 C5 1_555 1_555
C6 C3 1_555 1_555
C7 C6 1_555 1_555
H5 C7 1_555 1_555
H6 C7 1_555 1_555
H7 C7 1_555 1_555
C8 H8 1_555 1_555
H9 C8 1_555 1_555
H10 C8 1_555 1_555
C9 C8 1_555 1_555
C10 C9 1_555 1_555
C11 C10 1_555 1_555
H11 C11 1_555 1_555
C12 C11 1_555 1_555
H12 C12 1_555 1_555
C13 H13 1_555 1_555
C14 C10 1_555 1_555
H14 C14 1_555 1_555
C15 C16 1_555 1_555
C16 H15 1_555 1_555
H16 C16 1_555 1_555
C17 C16 1_555 1_555
H17 C17 1_555 1_555
H18 C17 1_555 1_555
C18 C17 1_555 1_555
N1 C1 1_555 1_555
N2 C6 1_555 1_555
N3 C9 1_555 1_555
N4 C12 1_555 1_555
O1 C15 1_555 1_555
O2 C15 1_555 1_555
O3 C18 1_555 1_555
O4 C18 1_555 1_555
Cd1 N1 1_555 1_555
N4B Cd1 1_555 1_555
O3C Cd1 1_555 1_555
O4C Cd1 1_555 1_555
O4E Cd1 1_555 1_555
Cd1B N4 1_555 1_555
Cd1C O3 1_555 1_555
Cd1E O4 1_555 1_555
C5 N1 1_555 1_555
C13 C14 1_555 1_555
C13 N4 1_555 1_555
N2 N3 1_555 1_555
O1 Cd1 1_555 1_555
O2 Cd1 1_555 1_555
O4 Cd1C 1_555 1_555

#END
