
#######################################################################
#
#                 Cambridge Crystallographic Data Centre
#                                CCDC 
#
#######################################################################
#
# If this CIF has been generated from an entry in the Cambridge 
# Structural Database, then it will include bibliographic, chemical, 
# crystal, experimental, refinement or atomic coordinate data resulting 
# from the CCDC's data processing and validation procedures.
#
#######################################################################

data_NAXVOY01
_chemical_formula_moiety         '(C12 H12 Mg6 O24)n'
_symmetry_cell_setting           monoclinic
_symmetry_space_group_name_H-M   'P 21/n'
_symmetry_Int_Tables_number      14
_space_group_name_Hall           '-P 2yn'
loop_
_symmetry_equiv_pos_site_id
_symmetry_equiv_pos_as_xyz
1 x,y,z
2 1/2-x,1/2+y,1/2-z
3 -x,-y,-z
4 1/2+x,1/2-y,1/2+z
_cell_length_a                   11.324(2)
_cell_length_b                   9.847(2)
_cell_length_c                   14.623(3)
_cell_angle_alpha                90
_cell_angle_beta                 91.15(3)
_cell_angle_gamma                90
_cell_volume                     1630.24
loop_
_atom_site_label
_atom_site_type_symbol
_atom_site_fract_x
_atom_site_fract_y
_atom_site_fract_z
Mg1 Mg 0.25629(3) 0.42168(3) 0.63470(2)
Mg2 Mg 0.0000 0.5000 0.5000
Mg3 Mg 0.23962(3) 0.61201(3) 0.80976(2)
Mg4 Mg 0.5000 0.5000 0.5000
O1 O 0.13108(6) 0.50693(7) 0.72005(4)
O2 O -0.03721(6) 0.50005(8) 0.63761(5)
O3 O 0.15662(6) 0.24476(7) 0.61127(4)
O4 O 0.01999(6) 0.29304(8) 0.50271(5)
O5 O 0.39842(6) 0.34834(7) 0.56271(4)
O6 O 0.38844(6) 0.12672(7) 0.59657(5)
O7 O 0.30752(6) 0.30016(7) 0.74665(4)
O8 O 0.31479(6) 0.44322(7) 0.86612(4)
O9 O 0.18298(6) 0.52620(7) 0.52509(4)
O10 O 0.35042(6) 0.60605(8) 0.46735(5)
O11 O 0.34936(6) 0.58208(7) 0.69627(4)
O12 O 0.51750(6) 0.60711(8) 0.62075(5)
C1 C 0.01949(8) 0.51633(11) 0.71015(6)
H1 H -0.0233 0.5373 0.7619
C2 C 0.07854(8) 0.21305(11) 0.55022(6)
H2 H 0.0647 0.1210 0.5408
C3 C 0.43054(8) 0.22466(10) 0.55533(6)
H3 H 0.4912 0.2064 0.5152
C4 C 0.33021(8) 0.33066(10) 0.83047(6)
H4 H 0.3610 0.2622 0.8678
C5 C 0.24207(8) 0.60081(10) 0.47069(6)
H5 H 0.1993 0.6557 0.4302
C6 C 0.45158(8) 0.63213(11) 0.68454(6)
H6 H 0.4791 0.6935 0.7284
Mg1B Mg -0.25629(3) 0.57832(3) 0.36530(2)
Mg1A Mg 0.24371(3) 0.92168(3) 0.86530(2)
Mg1B_2 Mg 0.74371(3) 0.57832(3) 0.36530(2)
Mg3B Mg -0.23962(3) 0.38799(3) 0.19024(2)
Mg3A Mg 0.26038(3) 0.11201(3) 0.69024(2)
Mg3C Mg -0.26038(3) 0.88799(3) 0.30976(2)
Mg3A_2 Mg 0.26038(3) 1.11201(3) 0.69024(2)
Mg3B_2 Mg 0.76038(3) 0.38799(3) 0.19024(2)
Mg4_2 Mg -0.5000 0.5000 0.5000
Mg4C Mg 0.0000 1.0000 1.0000
O1B O -0.13108(6) 0.49307(7) 0.27995(4)
O2B O 0.03721(6) 0.49995(8) 0.36239(5)
O3B O -0.15662(6) 0.75524(7) 0.38873(4)
O3A O 0.34338(6) 0.74476(7) 0.88873(4)
O3C O -0.34338(6) 0.25524(7) 0.11127(4)
O4B O -0.01999(6) 0.70696(8) 0.49729(5)
O5A O 0.10158(6) 0.84834(7) 0.93729(4)
O5B O 0.60158(6) 0.65166(7) 0.43729(4)
O5B_2 O -0.39842(6) 0.65166(7) 0.43729(4)
O6A O 0.11156(6) 0.62672(7) 0.90343(5)
O6C O -0.11156(6) 0.37328(7) 0.09657(5)
O7A O 0.19248(6) 0.80016(7) 0.75335(4)
O7B O -0.30752(6) 0.69984(7) 0.25335(4)
O7C O -0.19248(6) 0.19984(7) 0.24665(4)
O8A O 0.18521(6) 0.94322(7) 0.63388(4)
O8B O -0.31479(6) 0.55678(7) 0.13388(4)
O9B O -0.18298(6) 0.47380(7) 0.47491(4)
O10B O -0.35042(6) 0.39395(8) 0.53265(5)
O10B_2 O 0.64958(6) 0.39395(8) 0.53265(5)
O11B O 0.65064(6) 0.41792(7) 0.30373(4)
O11B_2 O -0.34936(6) 0.41792(7) 0.30373(4)
O12B O 0.48250(6) 0.39289(8) 0.37925(5)
C1B C -0.01949(8) 0.48367(11) 0.28985(6)
H1B H 0.0233 0.4627 0.2381
C2B C -0.07854(8) 0.78695(11) 0.44978(6)
H2B H -0.0647 0.8790 0.4592
C3A C 0.06946(8) 0.72466(10) 0.94467(6)
H3A H 0.0088 0.7064 0.9848
C4A C 0.16979(8) 0.83066(10) 0.66953(6)
H4A H 0.1390 0.7622 0.6322
C5B C -0.24207(8) 0.39919(10) 0.52931(6)
H5B H -0.1993 0.3443 0.5698
C6B C 0.54842(8) 0.36787(11) 0.31546(6)
H6B H 0.5209 0.3065 0.2716
loop_
_geom_bond_atom_site_label_1
_geom_bond_atom_site_label_2
_geom_bond_site_symmetry_1
_geom_bond_site_symmetry_2
Mg1 O1 1_555 1_555
Mg2 O2 1_555 1_555
Mg3 O1 1_555 1_555
Mg4 O5 1_555 1_555
O1 C1 1_555 1_555
O2 C1 1_555 1_555
O3 Mg1 1_555 1_555
O4 Mg2 1_555 1_555
O5 Mg1 1_555 1_555
O6 C3 1_555 1_555
O7 Mg1 1_555 1_555
O8 Mg3 1_555 1_555
O9 Mg1 1_555 1_555
O10 Mg4 1_555 1_555
O11 Mg1 1_555 1_555
O12 Mg4 1_555 1_555
C1 H1 1_555 1_555
C2 O3 1_555 1_555
H2 C2 1_555 1_555
C3 O5 1_555 1_555
H3 C3 1_555 1_555
C4 O7 1_555 1_555
H4 C4 1_555 1_555
C5 O9 1_555 1_555
H5 C5 1_555 1_555
C6 O11 1_555 1_555
H6 C6 1_555 1_555
Mg1B O1B 1_555 1_555
Mg1A O3A 1_555 1_555
Mg1B_2 O5B 1_555 1_555
Mg3B O1B 1_555 1_555
Mg3A O3 1_555 1_555
Mg3C O3B 1_555 1_555
Mg3A_2 O8A 1_555 1_555
Mg3B_2 O11B 1_555 1_555
Mg4_2 O5B_2 1_555 1_555
Mg4C O5A 1_555 1_555
O1B C1B 1_555 1_555
O2B Mg2 1_555 1_555
O3B Mg1B 1_555 1_555
O3A Mg3 1_555 1_555
O3C Mg3B 1_555 1_555
O4B Mg2 1_555 1_555
O5A Mg1A 1_555 1_555
O5B Mg4 1_555 1_555
O5B_2 Mg1B 1_555 1_555
O6A Mg3 1_555 1_555
O6C Mg3B 1_555 1_555
O7A Mg3 1_555 1_555
O7B Mg1B 1_555 1_555
O7C Mg3B 1_555 1_555
O8A C4A 1_555 1_555
O8B Mg3B 1_555 1_555
O9B Mg2 1_555 1_555
O10B Mg4_2 1_555 1_555
O10B_2 Mg4 1_555 1_555
O11B Mg1B_2 1_555 1_555
O11B_2 Mg1B 1_555 1_555
O12B Mg4 1_555 1_555
C1B O2B 1_555 1_555
H1B C1B 1_555 1_555
C2B O3B 1_555 1_555
H2B C2B 1_555 1_555
C3A O5A 1_555 1_555
H3A C3A 1_555 1_555
C4A O7A 1_555 1_555
H4A C4A 1_555 1_555
C5B O9B 1_555 1_555
H5B C5B 1_555 1_555
C6B O11B 1_555 1_555
H6B C6B 1_555 1_555
Mg2 O9 1_555 1_555
Mg3 O11 1_555 1_555
O4 C2 1_555 1_555
O6 Mg3A 1_555 1_555
O7 Mg3A 1_555 1_555
O8 C4 1_555 1_555
O10 C5 1_555 1_555
O12 C6 1_555 1_555
Mg1B O9B 1_555 1_555
Mg1A O7A 1_555 1_555
Mg3B O11B_2 1_555 1_555
Mg3C O7B 1_555 1_555
O4B C2B 1_555 1_555
O6A C3A 1_555 1_555
O10B C5B 1_555 1_555
O12B C6B 1_555 1_555

#END
