
#######################################################################
#
#                 Cambridge Crystallographic Data Centre
#                                CCDC 
#
#######################################################################
#
# If this CIF has been generated from an entry in the Cambridge 
# Structural Database, then it will include bibliographic, chemical, 
# crystal, experimental, refinement or atomic coordinate data resulting 
# from the CCDC's data processing and validation procedures.
#
#######################################################################

data_XEHSEJ
_chemical_formula_moiety         '(C18 H18 Mg6 O24)n'
_symmetry_cell_setting           monoclinic
_symmetry_space_group_name_H-M   'P 21/n'
_symmetry_Int_Tables_number      14
_space_group_name_Hall           '-P 2yn'
loop_
_symmetry_equiv_pos_site_id
_symmetry_equiv_pos_as_xyz
1 x,y,z
2 1/2-x,1/2+y,1/2-z
3 -x,-y,-z
4 1/2+x,1/2-y,1/2+z
_cell_length_a                   11.3762(10)
_cell_length_b                   9.9831(9)
_cell_length_c                   15.0358(13)
_cell_angle_alpha                90
_cell_angle_beta                 91.203(5)
_cell_angle_gamma                90
_cell_volume                     1707.24
loop_
_atom_site_label
_atom_site_type_symbol
_atom_site_fract_x
_atom_site_fract_y
_atom_site_fract_z
Mg1 Mg 0.25497(4) 0.42938(5) 0.63552(3)
Mg2 Mg 0.0000 0.5000 0.5000
Mg3 Mg 0.23998(5) 0.62626(5) 0.80176(3)
Mg4 Mg 0.5000 0.5000 0.5000
O1 O 0.13103(9) 0.52049(11) 0.71483(7)
O2 O -0.03450(10) 0.52671(12) 0.63245(7)
O3 O 0.15424(9) 0.25391(11) 0.62116(7)
O4 O 0.01033(10) 0.29799(11) 0.52170(8)
O5 O 0.40095(9) 0.35641(11) 0.57005(7)
O6 O 0.39157(10) 0.13998(11) 0.60937(7)
O7 O 0.30741(9) 0.31410(11) 0.74807(7)
O8 O 0.31165(10) 0.46187(11) 0.85972(7)
O9 O 0.18427(9) 0.51961(11) 0.52280(7)
O10 O 0.34897(10) 0.58976(12) 0.45777(7)
O11 O 0.34620(9) 0.59392(11) 0.69000(7)
O12 O 0.50416(10) 0.62833(12) 0.60670(7)
C1 C 0.02035(14) 0.53762(16) 0.70356(11)
H1 H -0.0234 0.5608 0.7545
C2 C 0.06565(14) 0.22210(16) 0.57170(11)
H2 H 0.0402 0.1315 0.5738
C3 C 0.43549(13) 0.23460(16) 0.56837(10)
H3 H 0.5009 0.2148 0.5324
C4 C 0.32746(14) 0.34841(16) 0.82851(10)
H4 H 0.3570 0.2815 0.8680
C5 C 0.24094(14) 0.58370(16) 0.46363(11)
H5 H 0.1956 0.6311 0.4201
C6 C 0.44010(14) 0.65545(16) 0.66946(11)
H6 H 0.4629 0.7291 0.7059
Mg1B Mg -0.25497(4) 0.57062(5) 0.36448(3)
Mg1A Mg 0.24503(4) 0.92938(5) 0.86448(3)
Mg1B_2 Mg 0.74503(4) 0.57062(5) 0.36448(3)
Mg3B Mg -0.23998(5) 0.37374(5) 0.19824(3)
Mg3A Mg 0.26002(5) 0.12626(5) 0.69824(3)
Mg3C Mg -0.26002(5) 0.87374(5) 0.30176(3)
Mg3A_2 Mg 0.26002(5) 1.12626(5) 0.69824(3)
Mg3B_2 Mg 0.76002(5) 0.37374(5) 0.19824(3)
Mg4_2 Mg -0.5000 0.5000 0.5000
Mg4C Mg 0.0000 1.0000 1.0000
O1B O -0.13103(9) 0.47951(11) 0.28517(7)
O2B O 0.03450(10) 0.47329(12) 0.36755(7)
O3B O -0.15424(9) 0.74609(11) 0.37884(7)
O3A O 0.34576(9) 0.75391(11) 0.87884(7)
O3C O -0.34576(9) 0.24609(11) 0.12116(7)
O4B O -0.01033(10) 0.70201(11) 0.47830(8)
O5A O 0.09905(9) 0.85641(11) 0.92995(7)
O5B O 0.59905(9) 0.64359(11) 0.42995(7)
O5B_2 O -0.40095(9) 0.64359(11) 0.42995(7)
O6A O 0.10843(10) 0.63998(11) 0.89063(7)
O6C O -0.10843(10) 0.36002(11) 0.10937(7)
O7A O 0.19259(9) 0.81410(11) 0.75193(7)
O7B O -0.30741(9) 0.68590(11) 0.25193(7)
O7C O -0.19259(9) 0.18590(11) 0.24807(7)
O8A O 0.18835(10) 0.96187(11) 0.64028(7)
O8B O -0.31165(10) 0.53813(11) 0.14028(7)
O9B O -0.18427(9) 0.48039(11) 0.47720(7)
O10B O -0.34897(10) 0.41024(12) 0.54223(7)
O10B_2 O 0.65103(10) 0.41024(12) 0.54223(7)
O11B O 0.65380(9) 0.40608(11) 0.31000(7)
O11B_2 O -0.34620(9) 0.40608(11) 0.31000(7)
O12B O 0.49584(10) 0.37167(12) 0.39330(7)
C1B C -0.02035(14) 0.46238(16) 0.29644(11)
H1B H 0.0234 0.4392 0.2455
C2B C -0.06565(14) 0.77790(16) 0.42830(11)
H2B H -0.0402 0.8685 0.4262
C3A C 0.06451(13) 0.73460(16) 0.93163(10)
H3A H -0.0009 0.7148 0.9676
C4A C 0.17254(14) 0.84841(16) 0.67149(10)
H4A H 0.1430 0.7815 0.6320
C5B C -0.24094(14) 0.41630(16) 0.53637(11)
H5B H -0.1956 0.3689 0.5799
C6B C 0.55990(14) 0.34455(16) 0.33054(11)
H6B H 0.5371 0.2709 0.2941
C7 C -0.15995(17) 0.8605(2) 0.66093(13)
H7 H -0.1218 0.7758 0.6625
C8 C -0.14259(17) 0.9504(2) 0.72962(13)
H8 H -0.0921 0.9277 0.7785
C9 C -0.19860(16) 1.0738(2) 0.72754(13)
H9 H -0.1876 1.1349 0.7754
C10 C -0.27036(16) 1.1078(2) 0.65595(13)
H10 H -0.3077 1.1929 0.6539
C11 C -0.28773(19) 1.0174(3) 0.58695(14)
H11 H -0.3373 1.0404 0.5377
C12 C -0.23315(19) 0.8942(3) 0.58976(15)
H12 H -0.2458 0.8322 0.5426
loop_
_geom_bond_atom_site_label_1
_geom_bond_atom_site_label_2
_geom_bond_site_symmetry_1
_geom_bond_site_symmetry_2
Mg1 O1 1_555 1_555
Mg2 O2 1_555 1_555
Mg3 O1 1_555 1_555
Mg4 O5 1_555 1_555
O1 C1 1_555 1_555
O2 C1 1_555 1_555
O3 Mg1 1_555 1_555
O4 Mg2 1_555 1_555
O5 Mg1 1_555 1_555
O6 C3 1_555 1_555
O7 Mg1 1_555 1_555
O8 Mg3 1_555 1_555
O9 Mg1 1_555 1_555
O10 Mg4 1_555 1_555
O11 Mg1 1_555 1_555
O12 Mg4 1_555 1_555
C1 H1 1_555 1_555
C2 O3 1_555 1_555
H2 C2 1_555 1_555
C3 O5 1_555 1_555
H3 C3 1_555 1_555
C4 O7 1_555 1_555
H4 C4 1_555 1_555
C5 O9 1_555 1_555
H5 C5 1_555 1_555
C6 O11 1_555 1_555
H6 C6 1_555 1_555
C7 H7 1_555 1_555
C8 C7 1_555 1_555
H8 C8 1_555 1_555
C9 C8 1_555 1_555
H9 C9 1_555 1_555
C10 C9 1_555 1_555
H10 C10 1_555 1_555
C11 C10 1_555 1_555
H11 C11 1_555 1_555
C12 C7 1_555 1_555
H12 C12 1_555 1_555
Mg1B O1B 1_555 1_555
Mg1A O3A 1_555 1_555
Mg1B_2 O5B 1_555 1_555
Mg3B O1B 1_555 1_555
Mg3A O3 1_555 1_555
Mg3C O3B 1_555 1_555
Mg3A_2 O8A 1_555 1_555
Mg3B_2 O11B 1_555 1_555
Mg4_2 O5B_2 1_555 1_555
Mg4C O5A 1_555 1_555
O1B C1B 1_555 1_555
O2B Mg2 1_555 1_555
O3B Mg1B 1_555 1_555
O3A Mg3 1_555 1_555
O3C Mg3B 1_555 1_555
O4B Mg2 1_555 1_555
O5A Mg1A 1_555 1_555
O5B Mg4 1_555 1_555
O5B_2 Mg1B 1_555 1_555
O6A Mg3 1_555 1_555
O6C Mg3B 1_555 1_555
O7A Mg3 1_555 1_555
O7B Mg1B 1_555 1_555
O7C Mg3B 1_555 1_555
O8A C4A 1_555 1_555
O8B Mg3B 1_555 1_555
O9B Mg2 1_555 1_555
O10B Mg4_2 1_555 1_555
O10B_2 Mg4 1_555 1_555
O11B Mg1B_2 1_555 1_555
O11B_2 Mg1B 1_555 1_555
O12B Mg4 1_555 1_555
C1B O2B 1_555 1_555
H1B C1B 1_555 1_555
C2B O3B 1_555 1_555
H2B C2B 1_555 1_555
C3A O5A 1_555 1_555
H3A C3A 1_555 1_555
C4A O7A 1_555 1_555
H4A C4A 1_555 1_555
C5B O9B 1_555 1_555
H5B C5B 1_555 1_555
C6B O11B 1_555 1_555
H6B C6B 1_555 1_555
Mg2 O9 1_555 1_555
Mg3 O11 1_555 1_555
O4 C2 1_555 1_555
O6 Mg3A 1_555 1_555
O7 Mg3A 1_555 1_555
O8 C4 1_555 1_555
O10 C5 1_555 1_555
O12 C6 1_555 1_555
C11 C12 1_555 1_555
Mg1B O9B 1_555 1_555
Mg1A O7A 1_555 1_555
Mg3B O11B_2 1_555 1_555
Mg3C O7B 1_555 1_555
O4B C2B 1_555 1_555
O6A C3A 1_555 1_555
O10B C5B 1_555 1_555
O12B C6B 1_555 1_555

#END
