
#######################################################################
#
#                 Cambridge Crystallographic Data Centre
#                                CCDC 
#
#######################################################################
#
# If this CIF has been generated from an entry in the Cambridge 
# Structural Database, then it will include bibliographic, chemical, 
# crystal, experimental, refinement or atomic coordinate data resulting 
# from the CCDC's data processing and validation procedures.
#
#######################################################################

data_XEHSUZ
_chemical_formula_moiety         '(C15 H19 Mg6 N1 O25)n'
_symmetry_cell_setting           monoclinic
_symmetry_space_group_name_H-M   'P 21/n'
_symmetry_Int_Tables_number      14
_space_group_name_Hall           '-P 2yn'
loop_
_symmetry_equiv_pos_site_id
_symmetry_equiv_pos_as_xyz
1 x,y,z
2 1/2-x,1/2+y,1/2-z
3 -x,-y,-z
4 1/2+x,1/2-y,1/2+z
_cell_length_a                   11.4007(6)
_cell_length_b                   9.9047(4)
_cell_length_c                   14.5357(6)
_cell_angle_alpha                90
_cell_angle_beta                 91.317(2)
_cell_angle_gamma                90
_cell_volume                     1640.95
loop_
_atom_site_label
_atom_site_type_symbol
_atom_site_fract_x
_atom_site_fract_y
_atom_site_fract_z
Mg1 Mg 0.25528(3) 0.42080(3) 0.63491(2)
Mg2 Mg 0.0000 0.5000 0.5000
Mg3 Mg 0.23873(3) 0.61237(3) 0.80959(2)
Mg4 Mg 0.5000 0.5000 0.5000
O1 O 0.13021(6) 0.50675(7) 0.71916(5)
O2 O -0.03790(6) 0.50310(8) 0.63741(5)
O3 O 0.15984(6) 0.24348(7) 0.61001(4)
O4 O 0.02347(6) 0.29487(7) 0.50230(5)
O5 O 0.40216(6) 0.35019(7) 0.56729(5)
O6 O 0.39568(6) 0.12971(7) 0.60196(5)
O7 O 0.30400(6) 0.30028(7) 0.74879(5)
O8 O 0.30352(6) 0.44186(7) 0.86899(5)
O9 O 0.18369(6) 0.52476(7) 0.52450(5)
O10 O 0.34834(6) 0.59558(7) 0.45953(5)
O11 O 0.34733(6) 0.57975(7) 0.69720(5)
O12 O 0.50670(6) 0.61924(7) 0.61479(5)
C1 C 0.01926(9) 0.51712(10) 0.70989(7)
H1 H -0.0224 0.5370 0.7624
C2 C 0.07957(9) 0.21351(10) 0.55002(7)
H2 H 0.0623 0.1225 0.5419
C3 C 0.43924(9) 0.22874(10) 0.56348(7)
H3 H 0.5052 0.2131 0.5285
C4 C 0.31934(9) 0.32943(10) 0.83383(7)
H4 H 0.3446 0.2603 0.8728
C5 C 0.24080(9) 0.59590(10) 0.46695(7)
H5 H 0.1977 0.6522 0.4277
C6 C 0.44285(9) 0.64104(10) 0.68046(7)
H6 H 0.4665 0.7083 0.7215
Mg1B Mg -0.25528(3) 0.57920(3) 0.36509(2)
Mg1A Mg 0.24472(3) 0.92080(3) 0.86509(2)
Mg1B_2 Mg 0.74472(3) 0.57920(3) 0.36509(2)
Mg3B Mg -0.23873(3) 0.38763(3) 0.19041(2)
Mg3A Mg 0.26127(3) 0.11237(3) 0.69041(2)
Mg3C Mg -0.26127(3) 0.88763(3) 0.30959(2)
Mg3A_2 Mg 0.26127(3) 1.11237(3) 0.69041(2)
Mg3B_2 Mg 0.76127(3) 0.38763(3) 0.19041(2)
Mg4_2 Mg -0.5000 0.5000 0.5000
Mg4C Mg 0.0000 1.0000 1.0000
O1B O -0.13021(6) 0.49325(7) 0.28084(5)
O2B O 0.03790(6) 0.49690(8) 0.36259(5)
O3B O -0.15984(6) 0.75652(7) 0.38999(4)
O3A O 0.34016(6) 0.74348(7) 0.88999(4)
O3C O -0.34016(6) 0.25652(7) 0.11001(4)
O4B O -0.02347(6) 0.70513(7) 0.49770(5)
O5A O 0.09784(6) 0.85019(7) 0.93271(5)
O5B O 0.59784(6) 0.64981(7) 0.43271(5)
O5B_2 O -0.40216(6) 0.64981(7) 0.43271(5)
O6A O 0.10432(6) 0.62971(7) 0.89804(5)
O6C O -0.10432(6) 0.37029(7) 0.10196(5)
O7A O 0.19600(6) 0.80028(7) 0.75121(5)
O7B O -0.30400(6) 0.69972(7) 0.25121(5)
O7C O -0.19600(6) 0.19972(7) 0.24879(5)
O8A O 0.19648(6) 0.94186(7) 0.63101(5)
O8B O -0.30352(6) 0.55814(7) 0.13101(5)
O9B O -0.18369(6) 0.47524(7) 0.47550(5)
O10B O -0.34834(6) 0.40442(7) 0.54047(5)
O10B_2 O 0.65166(6) 0.40442(7) 0.54047(5)
O11B O 0.65267(6) 0.42025(7) 0.30280(5)
O11B_2 O -0.34733(6) 0.42025(7) 0.30280(5)
O12B O 0.49330(6) 0.38076(7) 0.38521(5)
C1B C -0.01926(9) 0.48288(10) 0.29011(7)
H1B H 0.0224 0.4630 0.2376
C2B C -0.07957(9) 0.78649(10) 0.44998(7)
H2B H -0.0623 0.8775 0.4581
C3A C 0.06076(9) 0.72874(10) 0.93652(7)
H3A H -0.0052 0.7131 0.9715
C4A C 0.18066(9) 0.82943(10) 0.66617(7)
H4A H 0.1554 0.7603 0.6272
C5B C -0.24080(9) 0.40410(10) 0.53305(7)
H5B H -0.1977 0.3478 0.5723
C6B C 0.55715(9) 0.35896(10) 0.31954(7)
H6B H 0.5335 0.2917 0.2785
N1 N 0.70378(9) 0.42463(11) 0.83737(7)
C7 C 0.79851(13) 0.33121(15) 0.85731(10)
H7 H 0.8612 0.3777 0.8891
H8 H 0.8267 0.2946 0.8008
H9 H 0.7705 0.2593 0.8952
C8 C 0.60395(12) 0.37148(14) 0.78578(10)
H10 H 0.5421 0.4373 0.7842
H11 H 0.5768 0.2906 0.8148
H12 H 0.6267 0.3513 0.7241
C9 C 0.70773(12) 0.55384(14) 0.86220(9)
H13 H 0.7735 0.5821 0.8960
O13 O 0.63241(9) 0.63922(10) 0.84447(7)
loop_
_geom_bond_atom_site_label_1
_geom_bond_atom_site_label_2
_geom_bond_site_symmetry_1
_geom_bond_site_symmetry_2
Mg1 O1 1_555 1_555
Mg2 O2 1_555 1_555
Mg3 O1 1_555 1_555
Mg4 O5 1_555 1_555
O1 C1 1_555 1_555
O2 C1 1_555 1_555
O3 Mg1 1_555 1_555
O4 Mg2 1_555 1_555
O5 Mg1 1_555 1_555
O6 C3 1_555 1_555
O7 Mg1 1_555 1_555
O8 Mg3 1_555 1_555
O9 Mg1 1_555 1_555
O10 Mg4 1_555 1_555
O11 Mg1 1_555 1_555
O12 Mg4 1_555 1_555
C1 H1 1_555 1_555
C2 O3 1_555 1_555
H2 C2 1_555 1_555
C3 O5 1_555 1_555
H3 C3 1_555 1_555
C4 O7 1_555 1_555
H4 C4 1_555 1_555
C5 O9 1_555 1_555
H5 C5 1_555 1_555
C6 O11 1_555 1_555
H6 C6 1_555 1_555
N1 C7 1_555 1_555
C7 H7 1_555 1_555
H8 C7 1_555 1_555
H9 C7 1_555 1_555
C8 N1 1_555 1_555
H10 C8 1_555 1_555
H11 C8 1_555 1_555
H12 C8 1_555 1_555
C9 N1 1_555 1_555
H13 C9 1_555 1_555
O13 C9 1_555 1_555
Mg1B O1B 1_555 1_555
Mg1A O3A 1_555 1_555
Mg1B_2 O5B 1_555 1_555
Mg3B O1B 1_555 1_555
Mg3A O3 1_555 1_555
Mg3C O3B 1_555 1_555
Mg3A_2 O8A 1_555 1_555
Mg3B_2 O11B 1_555 1_555
Mg4_2 O5B_2 1_555 1_555
Mg4C O5A 1_555 1_555
O1B C1B 1_555 1_555
O2B Mg2 1_555 1_555
O3B Mg1B 1_555 1_555
O3A Mg3 1_555 1_555
O3C Mg3B 1_555 1_555
O4B Mg2 1_555 1_555
O5A Mg1A 1_555 1_555
O5B Mg4 1_555 1_555
O5B_2 Mg1B 1_555 1_555
O6A Mg3 1_555 1_555
O6C Mg3B 1_555 1_555
O7A Mg3 1_555 1_555
O7B Mg1B 1_555 1_555
O7C Mg3B 1_555 1_555
O8A C4A 1_555 1_555
O8B Mg3B 1_555 1_555
O9B Mg2 1_555 1_555
O10B Mg4_2 1_555 1_555
O10B_2 Mg4 1_555 1_555
O11B Mg1B_2 1_555 1_555
O11B_2 Mg1B 1_555 1_555
O12B Mg4 1_555 1_555
C1B O2B 1_555 1_555
H1B C1B 1_555 1_555
C2B O3B 1_555 1_555
H2B C2B 1_555 1_555
C3A O5A 1_555 1_555
H3A C3A 1_555 1_555
C4A O7A 1_555 1_555
H4A C4A 1_555 1_555
C5B O9B 1_555 1_555
H5B C5B 1_555 1_555
C6B O11B 1_555 1_555
H6B C6B 1_555 1_555
Mg2 O9 1_555 1_555
Mg3 O11 1_555 1_555
O4 C2 1_555 1_555
O6 Mg3A 1_555 1_555
O7 Mg3A 1_555 1_555
O8 C4 1_555 1_555
O10 C5 1_555 1_555
O12 C6 1_555 1_555
Mg1B O9B 1_555 1_555
Mg1A O7A 1_555 1_555
Mg3B O11B_2 1_555 1_555
Mg3C O7B 1_555 1_555
O4B C2B 1_555 1_555
O6A C3A 1_555 1_555
O10B C5B 1_555 1_555
O12B C6B 1_555 1_555

#END
