
#######################################################################
#
#                 Cambridge Crystallographic Data Centre
#                                CCDC 
#
#######################################################################
#
# If this CIF has been generated from an entry in the Cambridge 
# Structural Database, then it will include bibliographic, chemical, 
# crystal, experimental, refinement or atomic coordinate data resulting 
# from the CCDC's data processing and validation procedures.
#
#######################################################################

data_FAMGAD
_chemical_formula_moiety         '(C59 H40 Cd2 F12 N4 O12)n'
_symmetry_cell_setting           monoclinic
_symmetry_space_group_name_H-M   'P 21/c'
_symmetry_Int_Tables_number      14
_space_group_name_Hall           '-P 2ybc'
loop_
_symmetry_equiv_pos_site_id
_symmetry_equiv_pos_as_xyz
1 x,y,z
2 -x,1/2+y,1/2-z
3 -x,-y,-z
4 x,1/2-y,1/2+z
_cell_length_a                   16.472(3)
_cell_length_b                   14.387(3)
_cell_length_c                   29.279(6)
_cell_angle_alpha                90
_cell_angle_beta                 93.820(4)
_cell_angle_gamma                90
_cell_volume                     6923.2
loop_
_atom_site_label
_atom_site_type_symbol
_atom_site_fract_x
_atom_site_fract_y
_atom_site_fract_z
C1 C 0.9508(4) 0.2834(5) 0.6548(2)
C2 C 0.9391(4) 0.2883(4) 0.60377(19)
C3 C 0.9074(4) 0.3652(5) 0.5820(2)
H1 H 0.8939 0.4167 0.5992
C4 C 0.9595(4) 0.2144(5) 0.5777(2)
H2 H 0.9813 0.1614 0.5920
C5 C 0.9485(4) 0.2166(5) 0.5311(2)
H3 H 0.9640 0.1658 0.5140
C6 C 0.8952(4) 0.3677(5) 0.5354(2)
H4 H 0.8733 0.4208 0.5213
C7 C 0.9147(4) 0.2934(5) 0.50920(19)
C8 C 0.9013(4) 0.3024(5) 0.45656(19)
C9 C 0.8141(4) 0.3386(4) 0.44273(18)
C10 C 0.7965(4) 0.3946(5) 0.40581(19)
H5 H 0.8385 0.4142 0.3884
C11 C 0.7184(4) 0.4227(4) 0.39374(19)
H6 H 0.7078 0.4596 0.3680
C12 C 0.6558(4) 0.3964(4) 0.41974(18)
C13 C 0.6732(4) 0.3413(4) 0.45666(19)
H7 H 0.6314 0.3231 0.4746
C14 C 0.7513(4) 0.3117(5) 0.4682(2)
H8 H 0.7616 0.2732 0.4934
C15 C 0.0984(4) 1.2044(5) 0.3006(2)
C16 C 0.1589(4) 1.1750(4) 0.3363(2)
C17 C 0.2164(5) 1.1088(5) 0.3283(2)
H9 H 0.2208 1.0862 0.2988
C18 C 0.5708(4) 0.4302(4) 0.4083(2)
C19 C 0.2067(5) 1.1760(5) 0.4152(3)
H10 H 0.2031 1.1998 0.4446
C20 C 0.1573(5) 1.2110(5) 0.3798(2)
H11 H 0.1223 1.2598 0.3852
C21 C 0.2617(5) 1.1061(5) 0.4080(3)
C22 C 0.3211(6) 1.0663(5) 0.4454(3)
C23 C 0.3350(6) 0.9616(5) 0.4373(3)
C24 C 0.2705(5) 0.9044(5) 0.4261(3)
H12 H 0.2182 0.9289 0.4231
C25 C 0.2822(5) 0.8111(5) 0.4192(2)
H13 H 0.2377 0.7741 0.4100
C26 C 0.4110(6) 0.9225(6) 0.4456(3)
H14 H 0.4552 0.9594 0.4553
C27 C 0.4209(5) 0.8266(5) 0.4394(3)
H15 H 0.4722 0.8003 0.4449
C28 C 0.3569(5) 0.7713(4) 0.4255(2)
C29 C 0.3709(5) 0.6694(4) 0.4181(2)
C30 C 0.3975(9) 1.1174(10) 0.4481(6)
C31 C 0.2824(9) 1.0710(12) 0.4903(6)
C32 C 0.9670(5) 0.3682(7) 0.4410(2)
C33 C 0.9084(6) 0.2089(7) 0.4321(3)
C34 C 0.3953(4) 0.3994(4) 0.5066(2)
H16 H 0.4514 0.3995 0.5047
C35 C 0.3636(4) 0.3632(4) 0.5457(2)
H17 H 0.3979 0.3397 0.5694
C36 C 0.2690(4) 0.4322(4) 0.4762(2)
H18 H 0.2358 0.4570 0.4523
C37 C 0.2321(4) 0.3978(4) 0.51221(19)
H19 H 0.1758 0.3976 0.5128
C38 C 0.2819(4) 0.3625(4) 0.5487(2)
C39 C 0.0659(4) 0.5774(4) 0.7116(2)
H20 H 0.0100 0.5858 0.7066
C40 C 0.1879(4) 0.6299(5) 0.7417(2)
H21 H 0.2184 0.6742 0.7584
C41 C 0.2270(4) 0.5542(4) 0.7263(2)
H22 H 0.2831 0.5483 0.7317
C42 C 0.0988(4) 0.4987(4) 0.69555(19)
H23 H 0.0665 0.4541 0.6802
C43 C 0.1831(4) 0.4863(4) 0.70276(19)
C44 C 0.2796(4) 0.1542(4) 0.76980(19)
C45 C 0.3594(4) 0.1659(5) 0.7816(2)
H24 H 0.3922 0.2007 0.7634
C46 C 0.2344(4) 0.1015(5) 0.7976(2)
H25 H 0.1792 0.0920 0.7905
C47 C 0.2719(4) 0.0635(4) 0.8359(2)
H26 H 0.2407 0.0272 0.8544
C48 C 0.3908(4) 0.1251(5) 0.8213(2)
H27 H 0.4458 0.1341 0.8294
C49 C 0.1784(4) 0.0261(4) 0.6693(2)
C50 C 0.0945(5) 0.0239(5) 0.6755(3)
H28 H 0.0602 0.0703 0.6633
C51 C 0.2218(5) -0.0476(5) 0.6846(3)
H29 H 0.2771 -0.0516 0.6801
C52 C 0.0658(5) -0.0443(5) 0.6987(3)
H30 H 0.0109 -0.0417 0.7041
C53 C 0.1830(5) -0.1176(5) 0.7072(3)
H31 H 0.2138 -0.1687 0.7173
C54 C 0.1772(4) 0.3364(4) 0.66964(19)
H32 H 0.1444 0.3557 0.6425
H33 H 0.1410 0.3142 0.6921
C55 C 0.2924(4) 0.2920(4) 0.62218(17)
H34 H 0.3289 0.3394 0.6351
H35 H 0.3246 0.2403 0.6122
C56 C 0.2894(4) 0.2312(4) 0.69904(19)
H36 H 0.3298 0.1868 0.6902
H37 H 0.3174 0.2851 0.7123
C57 C 0.1814(4) 0.1820(4) 0.6395(2)
H38 H 0.1309 0.1833 0.6548
H39 H 0.1683 0.1915 0.6071
C58 C 0.2350(4) 0.2597(4) 0.65756(18)
C59 C 0.2683(5) 1.0753(5) 0.3641(3)
H40 H 0.3078 1.0316 0.3582
Cd1 Cd 0.41048(3) 0.48914(3) 0.410806(13)
Cd2 Cd 0.03883(3) 0.77231(3) 0.753169(14)
F1 F 0.9534(3) 0.4551(4) 0.45287(15)
F2 F 0.9749(3) 0.3671(4) 0.39643(13)
F3 F 1.0398(3) 0.3461(4) 0.46064(15)
F4 F 0.8874(3) 0.2165(4) 0.38794(13)
F5 F 0.8597(3) 0.1451(3) 0.44886(16)
F6 F 0.9831(3) 0.1739(4) 0.43534(15)
F7 F 0.3788(5) 1.2143(4) 0.4482(3)
F8 F 0.4362(4) 1.1104(4) 0.4104(3)
F9 F 0.4486(6) 1.1086(5) 0.4813(3)
F10 F 0.2821(6) 1.1591(4) 0.5096(2)
F11 F 0.3314(7) 1.0241(5) 0.5239(2)
F12 F 0.2110(6) 1.0427(4) 0.49242(17)
N1 N 0.3487(3) 0.4338(3) 0.47191(14)
N2 N 0.1090(3) 0.6443(3) 0.73422(16)
N3 N 0.3492(3) 0.0747(3) 0.84859(15)
N4 N 0.1065(4) -0.1164(4) 0.71512(17)
O1 O 0.5188(3) 0.4109(3) 0.43569(16)
O2 O 0.5543(3) 0.4770(4) 0.37394(16)
O3 O 0.9232(3) 0.3480(4) 0.67757(14)
O4 O 0.9864(3) 0.2174(3) 0.67394(14)
O5 O 0.4394(3) 0.6371(3) 0.42620(17)
O6 O 0.3123(3) 0.6206(3) 0.40439(15)
O7 O 0.0560(3) 1.2749(3) 0.30670(15)
O8 O 0.0862(3) 1.1549(3) 0.26578(14)
O9 O 0.2428(2) 0.3290(3) 0.58432(12)
O10 O 0.2240(2) 0.4132(3) 0.68790(13)
O11 O 0.2186(3) 0.0931(3) 0.64626(16)
O12 O 0.2394(2) 0.1904(3) 0.73152(13)
Cd1C Cd 0.41048(3) 0.01086(3) 0.910806(13)
Cd2_2 Cd 0.03883(3) -0.22769(3) 0.753169(14)
Cd2A Cd 0.96117(3) 0.27231(3) 0.746831(14)
Cd2B Cd -0.03883(3) 1.22769(3) 0.246831(14)
N3C N 0.3492(3) 0.4253(3) 0.34859(15)
N4_2 N 0.1065(4) 0.8836(4) 0.71512(17)
O3A O 0.0768(3) 0.8480(4) 0.82243(14)
O4A O 0.0136(3) 0.7174(3) 0.82606(14)
O7B O -0.0560(3) 0.7251(3) 0.69330(15)
O8B O -0.0862(3) 0.8451(3) 0.73422(14)
loop_
_geom_bond_atom_site_label_1
_geom_bond_atom_site_label_2
_geom_bond_site_symmetry_1
_geom_bond_site_symmetry_2
C1 C2 1_555 1_555
C2 C3 1_555 1_555
C3 H1 1_555 1_555
C4 C2 1_555 1_555
H2 C4 1_555 1_555
C5 C4 1_555 1_555
H3 C5 1_555 1_555
C6 C3 1_555 1_555
H4 C6 1_555 1_555
C7 C5 1_555 1_555
C8 C7 1_555 1_555
C9 C8 1_555 1_555
C10 C9 1_555 1_555
H5 C10 1_555 1_555
C11 C10 1_555 1_555
H6 C11 1_555 1_555
C12 C11 1_555 1_555
C13 C12 1_555 1_555
H7 C13 1_555 1_555
C14 C9 1_555 1_555
H8 C14 1_555 1_555
C15 C16 1_555 1_555
C16 C17 1_555 1_555
C17 H9 1_555 1_555
C18 C12 1_555 1_555
C19 H10 1_555 1_555
C20 C16 1_555 1_555
H11 C20 1_555 1_555
C21 C19 1_555 1_555
C22 C21 1_555 1_555
C23 C22 1_555 1_555
C24 C23 1_555 1_555
H12 C24 1_555 1_555
C25 C24 1_555 1_555
H13 C25 1_555 1_555
C26 C23 1_555 1_555
H14 C26 1_555 1_555
C27 C26 1_555 1_555
H15 C27 1_555 1_555
C28 C25 1_555 1_555
C29 C28 1_555 1_555
C30 C22 1_555 1_555
C31 C22 1_555 1_555
C32 C8 1_555 1_555
C33 C8 1_555 1_555
C34 H16 1_555 1_555
C35 C34 1_555 1_555
H17 C35 1_555 1_555
C36 H18 1_555 1_555
C37 C36 1_555 1_555
H19 C37 1_555 1_555
C38 C35 1_555 1_555
C39 H20 1_555 1_555
C40 H21 1_555 1_555
C41 C40 1_555 1_555
H22 C41 1_555 1_555
C42 C39 1_555 1_555
H23 C42 1_555 1_555
C43 C41 1_555 1_555
C44 C45 1_555 1_555
C45 H24 1_555 1_555
C46 C44 1_555 1_555
H25 C46 1_555 1_555
C47 C46 1_555 1_555
H26 C47 1_555 1_555
C48 C45 1_555 1_555
H27 C48 1_555 1_555
C49 C50 1_555 1_555
C50 H28 1_555 1_555
C51 C49 1_555 1_555
H29 C51 1_555 1_555
C52 C50 1_555 1_555
H30 C52 1_555 1_555
C53 C51 1_555 1_555
H31 C53 1_555 1_555
C54 H32 1_555 1_555
H33 C54 1_555 1_555
C55 H34 1_555 1_555
H35 C55 1_555 1_555
C56 H36 1_555 1_555
H37 C56 1_555 1_555
C57 H38 1_555 1_555
H39 C57 1_555 1_555
C58 C54 1_555 1_555
C59 C17 1_555 1_555
H40 C59 1_555 1_555
Cd1 N1 1_555 1_555
Cd2 N2 1_555 1_555
F1 C32 1_555 1_555
F2 C32 1_555 1_555
F3 C32 1_555 1_555
F4 C33 1_555 1_555
F5 C33 1_555 1_555
F6 C33 1_555 1_555
F7 C30 1_555 1_555
F8 C30 1_555 1_555
F9 C30 1_555 1_555
F10 C31 1_555 1_555
F11 C31 1_555 1_555
F12 C31 1_555 1_555
N1 C34 1_555 1_555
N2 C39 1_555 1_555
N3 C47 1_555 1_555
N4 C52 1_555 1_555
O1 C18 1_555 1_555
O2 C18 1_555 1_555
O3 C1 1_555 1_555
O4 C1 1_555 1_555
O5 C29 1_555 1_555
O6 C29 1_555 1_555
O7 C15 1_555 1_555
O8 C15 1_555 1_555
O9 C38 1_555 1_555
O10 C43 1_555 1_555
O11 C49 1_555 1_555
O12 C44 1_555 1_555
Cd1C N3 1_555 1_555
Cd2_2 N4 1_555 1_555
Cd2A O3 1_555 1_555
Cd2B O7 1_555 1_555
N3C Cd1 1_555 1_555
N4_2 Cd2 1_555 1_555
O3A Cd2 1_555 1_555
O4A Cd2 1_555 1_555
O7B Cd2 1_555 1_555
O8B Cd2 1_555 1_555
C6 C7 1_555 1_555
C13 C14 1_555 1_555
C19 C20 1_555 1_555
C21 C59 1_555 1_555
C27 C28 1_555 1_555
C36 N1 1_555 1_555
C37 C38 1_555 1_555
C40 N2 1_555 1_555
C42 C43 1_555 1_555
C48 N3 1_555 1_555
C53 N4 1_555 1_555
C54 O10 1_555 1_555
C55 C58 1_555 1_555
C55 O9 1_555 1_555
C56 C58 1_555 1_555
C56 O12 1_555 1_555
C57 C58 1_555 1_555
C57 O11 1_555 1_555
Cd1 O1 1_555 1_555
Cd1 O2 1_555 1_555
Cd1 O5 1_555 1_555
Cd1 O6 1_555 1_555
O4 Cd2A 1_555 1_555
O8 Cd2B 1_555 1_555

#END
