
#######################################################################
#
#                 Cambridge Crystallographic Data Centre
#                                CCDC 
#
#######################################################################
#
# If this CIF has been generated from an entry in the Cambridge 
# Structural Database, then it will include bibliographic, chemical, 
# crystal, experimental, refinement or atomic coordinate data resulting 
# from the CCDC's data processing and validation procedures.
#
#######################################################################

data_EYOJOT
_chemical_formula_moiety         '(C51 H39 N3 O16 S3 Zn4)n'
_symmetry_cell_setting           monoclinic
_symmetry_space_group_name_H-M   'C 2/m'
_symmetry_Int_Tables_number      12
_space_group_name_Hall           '-C 2y'
loop_
_symmetry_equiv_pos_site_id
_symmetry_equiv_pos_as_xyz
1 x,y,z
2 -x,y,-z
3 1/2+x,1/2+y,z
4 1/2-x,1/2+y,-z
5 -x,-y,-z
6 x,-y,z
7 1/2-x,1/2-y,-z
8 1/2+x,1/2-y,z
_cell_length_a                   24.670(5)
_cell_length_b                   23.940(4)
_cell_length_c                   17.201(5)
_cell_angle_alpha                90
_cell_angle_beta                 91.221(15)
_cell_angle_gamma                90
_cell_volume                     10156.6
loop_
_atom_site_label
_atom_site_type_symbol
_atom_site_fract_x
_atom_site_fract_y
_atom_site_fract_z
Zn1 Zn 0.57929(4) 1.0 0.68726(6)
Zn2 Zn 0.14456(3) 0.56619(3) 0.81694(5)
Zn3 Zn 0.20787(5) 0.500 0.68519(8)
O1 O 0.6441(2) 1.0 0.7531(4)
O2 O 0.5329(3) 0.9360(3) 0.7073(5)
O3 O 0.1434(4) 0.4537(3) -0.0726(4)
O4 O 0.0900(5) 0.500 0.5765(5)
O5 O 0.5799(4) 0.8894(4) 0.7996(6)
O6 O 0.2041(4) 0.6152(5) 0.8038(7)
C1 C 0.1445(6) 0.500 -0.0391(7)
C2 C 0.1431(6) 0.500 0.0471(6)
C3 C 0.1403(7) 0.500 0.2960(7)
C4 C 0.1419(7) 0.500 0.2106(7)
C5 C 0.5382(4) 0.8971(4) 0.7560(6)
O7 O 0.2502(5) 0.5647(4) 0.7092(9)
C6 C 0.0927(6) 0.500 0.3333(9)
H1 H 0.0606(6) 0.500 0.3040(9)
C7 C 0.0901(7) 0.500 0.4128(9)
H2 H 0.0561(7) 0.500 0.4352(9)
C8 C 0.1356(8) 0.500 0.5470(7)
O8 O 0.1796(7) 0.500 0.5827(7)
C9 C 0.2892(4) 0.6488(5) 0.7594(8)
C10 C 0.3315(5) 0.6460(5) 0.7073(8)
H3 H 0.3327(5) 0.6171(5) 0.6713(8)
C11 C 0.3719(5) 0.6865(6) 0.7089(8)
C12 C 0.3701(4) 0.7297(5) 0.7627(8)
C13 C 0.3279(5) 0.7325(5) 0.8148(8)
H4 H 0.3267(5) 0.7615(5) 0.8508(8)
C14 C 0.2874(4) 0.6921(5) 0.8132(8)
H5 H 0.2592(4) 0.6939(5) 0.8480(8)
C15 C 0.2451(6) 0.6040(6) 0.7591(10)
C16 C 0.1350(7) 0.500 0.4609(7)
C17 C 0.1863(8) 0.500 0.3446(10)
C18 C 0.1842(9) 0.500 0.4233(11)
H6 H 0.2163(9) 0.500 0.4526(11)
C19 C 0.1430(9) 0.4517(8) 0.0888(6)
H7 H 0.1428(9) 0.4180(8) 0.0620(6)
C20 C 0.1432(8) 0.4504(8) 0.1712(7)
H8 H 0.1442(8) 0.4166(8) 0.1978(7)
C21 C 0.4562(6) 0.7726(5) 0.8160(8)
H9 H 0.4576(6) 0.7448(5) 0.8539(8)
C22 C 0.4964(5) 0.8132(5) 0.8141(7)
H10 H 0.5247(5) 0.8126(5) 0.8506(7)
C23 C 0.4942(3) 0.8547(4) 0.7575(6)
C24 C 0.4518(4) 0.8556(4) 0.7030(6)
H11 H 0.4503(4) 0.8833(4) 0.6652(6)
C25 C 0.4116(4) 0.8149(5) 0.7050(7)
H12 H 0.3832(4) 0.8155(5) 0.6685(7)
C26 C 0.4138(4) 0.7734(4) 0.7615(7)
C27 C 0.472000 0.657000 0.681000
S1 S 0.481000 0.621000 0.755000
N1 N 0.518000 0.665000 0.635000
C28 C 0.569000 0.640000 0.659000
H13 H 0.564000 0.595000 0.664000
H14 H 0.601000 0.650000 0.617000
H15 H 0.581000 0.656000 0.717000
C29 C 0.516000 0.698000 0.565000
H16 H 0.534000 0.675000 0.518000
H17 H 0.473000 0.709000 0.551000
H18 H 0.540000 0.736000 0.575000
O9 O 0.420000 0.684000 0.657000
O10 O 0.239000 0.500000 0.301000
C30 C 0.293000 0.500000 0.343000
S2 S 0.302000 0.500000 0.432000
N2 N 0.341000 0.500000 0.301000
C31 C 0.392000 0.500000 0.344000
H19 H 0.394240 0.532740 0.376130
H20 H 0.421380 0.500000 0.308290
C32 C 0.341000 0.500000 0.220000
H21 H 0.322650 0.467260 0.200840
H22 H 0.377700 0.500000 0.202520
O3E O 0.1434(4) 0.5463(3) -0.0726(4)
C19E C 0.1430(9) 0.5483(8) 0.0888(6)
H7E H 0.1428(9) 0.5820(8) 0.0620(6)
C20E C 0.1432(8) 0.5496(8) 0.1712(7)
H8E H 0.1442(8) 0.5834(8) 0.1978(7)
H19E H 0.394240 0.467260 0.376130
H21E H 0.322650 0.532740 0.200840
Zn2E Zn 0.14456(3) 0.43381(3) 0.81694(5)
O2E O 0.5329(3) 0.0640(3) 0.7073(5)
O5E O 0.5799(4) 0.1106(4) 0.7996(6)
O6E O 0.2041(4) 0.3848(5) 0.8038(7)
C5E C 0.5382(4) 0.1029(4) 0.7560(6)
O7E O 0.2502(5) 0.4353(4) 0.7092(9)
C9E C 0.2892(4) 0.3512(5) 0.7594(8)
C10E C 0.3315(5) 0.3540(5) 0.7073(8)
H3E H 0.3327(5) 0.3829(5) 0.6713(8)
C11E C 0.3719(5) 0.3135(6) 0.7089(8)
C12E C 0.3701(4) 0.2703(5) 0.7627(8)
C13E C 0.3279(5) 0.2675(5) 0.8148(8)
H4E H 0.3267(5) 0.2385(5) 0.8508(8)
C14E C 0.2874(4) 0.3079(5) 0.8132(8)
H5E H 0.2592(4) 0.3061(5) 0.8480(8)
C15E C 0.2451(6) 0.3960(6) 0.7591(10)
C21E C 0.4562(6) 0.2274(5) 0.8160(8)
H9E H 0.4576(6) 0.2552(5) 0.8539(8)
C22E C 0.4964(5) 0.1868(5) 0.8141(7)
H10E H 0.5247(5) 0.1874(5) 0.8506(7)
C23E C 0.4942(3) 0.1453(4) 0.7575(6)
C24E C 0.4518(4) 0.1444(4) 0.7030(6)
H11E H 0.4503(4) 0.1167(4) 0.6652(6)
C25E C 0.4116(4) 0.1851(5) 0.7050(7)
H12E H 0.3832(4) 0.1845(5) 0.6685(7)
C26E C 0.4138(4) 0.2266(4) 0.7615(7)
C27E C 0.472000 0.343000 0.681000
S1E S 0.481000 0.379000 0.755000
N1E N 0.518000 0.335000 0.635000
C28E C 0.569000 0.360000 0.659000
H13E H 0.564000 0.405000 0.664000
H14E H 0.601000 0.350000 0.617000
H15E H 0.581000 0.344000 0.717000
C29E C 0.516000 0.302000 0.565000
H16E H 0.534000 0.325000 0.518000
H17E H 0.473000 0.291000 0.551000
H18E H 0.540000 0.264000 0.575000
O9E O 0.420000 0.316000 0.657000
Zn1_2 Zn 0.57929(4) 0.0 0.68726(6)
Zn1B Zn 0.07929(4) 0.5 0.68726(6)
Zn2_2 Zn 0.14456(3) 0.56619(3) -0.18306(5)
Zn2E_2 Zn 0.14456(3) 0.43381(3) -0.18306(5)
Zn2B Zn 0.64456(3) 0.06619(3) 0.81694(5)
Zn2B_2 Zn 0.64456(3) 1.06619(3) 0.81694(5)
Zn2G Zn 0.64456(3) 0.93381(3) 0.81694(5)
Zn3B Zn 0.70787(5) 1.000 0.68519(8)
O1B O 0.1441(2) 0.5 0.7531(4)
O2E_2 O 0.5329(3) 1.0640(3) 0.7073(5)
O3_2 O 0.1434(4) 0.4537(3) 0.9274(4)
O3E_2 O 0.1434(4) 0.5463(3) 0.9274(4)
O4B O 0.5900(5) 1.000 0.5765(5)
O5B O 0.0799(4) 0.3894(4) 0.7996(6)
O5G O 0.0799(4) 0.6106(4) 0.7996(6)
loop_
_geom_bond_atom_site_label_1
_geom_bond_atom_site_label_2
_geom_bond_site_symmetry_1
_geom_bond_site_symmetry_2
Zn1 O1 1_555 1_555
Zn2 O6 1_555 1_555
Zn3 O7 1_555 1_555
O1 Zn2B_2 1_555 1_555
O2 Zn1 1_555 1_555
O3 C1 1_555 1_555
O4 C8 1_555 1_555
O5 C5 1_555 1_555
O6 C15 1_555 1_555
C1 C2 1_555 1_555
C2 C19 1_555 1_555
C3 C4 1_555 1_555
C4 C20 1_555 1_555
C5 O2 1_555 1_555
O7 C15 1_555 1_555
C6 C3 1_555 1_555
H1 C6 1_555 1_555
C7 C6 1_555 1_555
H2 C7 1_555 1_555
C8 O8 1_555 1_555
O8 Zn3 1_555 1_555
C9 C10 1_555 1_555
C10 H3 1_555 1_555
C11 C10 1_555 1_555
C12 C11 1_555 1_555
C13 C12 1_555 1_555
H4 C13 1_555 1_555
C14 C9 1_555 1_555
H5 C14 1_555 1_555
C15 C9 1_555 1_555
C16 C7 1_555 1_555
C17 C3 1_555 1_555
C18 C16 1_555 1_555
H6 C18 1_555 1_555
C19 H7 1_555 1_555
C20 C19 1_555 1_555
H8 C20 1_555 1_555
C21 H9 1_555 1_555
C22 C21 1_555 1_555
H10 C22 1_555 1_555
C23 C5 1_555 1_555
C24 C23 1_555 1_555
H11 C24 1_555 1_555
C25 C24 1_555 1_555
H12 C25 1_555 1_555
C26 C12 1_555 1_555
C27 S1 1_555 1_555
N1 C27 1_555 1_555
C28 N1 1_555 1_555
H13 C28 1_555 1_555
H14 C28 1_555 1_555
H15 C28 1_555 1_555
C29 N1 1_555 1_555
H16 C29 1_555 1_555
H17 C29 1_555 1_555
H18 C29 1_555 1_555
O9 C11 1_555 1_555
O10 C17 1_555 1_555
C30 O10 1_555 1_555
S2 C30 1_555 1_555
N2 C30 1_555 1_555
C31 N2 1_555 1_555
H19 C31 1_555 1_555
H20 C31 1_555 1_555
C32 N2 1_555 1_555
H21 C32 1_555 1_555
H22 C32 1_555 1_555
O3E C1 1_555 1_555
C19E C2 1_555 1_555
H7E C19E 1_555 1_555
C20E C4 1_555 1_555
H8E C20E 1_555 1_555
H19E C31 1_555 1_555
H21E C32 1_555 1_555
Zn2E O6E 1_555 1_555
O2E C5E 1_555 1_555
O5E C5E 1_555 1_555
O6E C15E 1_555 1_555
C5E C23E 1_555 1_555
O7E Zn3 1_555 1_555
C9E C10E 1_555 1_555
C10E H3E 1_555 1_555
C11E C10E 1_555 1_555
C12E C11E 1_555 1_555
C13E C12E 1_555 1_555
H4E C13E 1_555 1_555
C14E C9E 1_555 1_555
H5E C14E 1_555 1_555
C15E O7E 1_555 1_555
C21E H9E 1_555 1_555
C22E C21E 1_555 1_555
H10E C22E 1_555 1_555
C23E C22E 1_555 1_555
C24E C23E 1_555 1_555
H11E C24E 1_555 1_555
C25E C24E 1_555 1_555
H12E C25E 1_555 1_555
C26E C12E 1_555 1_555
C27E S1E 1_555 1_555
N1E C27E 1_555 1_555
C28E N1E 1_555 1_555
H13E C28E 1_555 1_555
H14E C28E 1_555 1_555
H15E C28E 1_555 1_555
C29E N1E 1_555 1_555
H16E C29E 1_555 1_555
H17E C29E 1_555 1_555
H18E C29E 1_555 1_555
O9E C11E 1_555 1_555
Zn1_2 O2E 1_555 1_555
Zn1B O4 1_555 1_555
Zn2_2 O3E 1_555 1_555
Zn2E_2 O3 1_555 1_555
Zn2B O5E 1_555 1_555
Zn2G O1 1_555 1_555
Zn3B O1 1_555 1_555
O1B Zn2 1_555 1_555
O2E_2 Zn1 1_555 1_555
O3_2 Zn2E 1_555 1_555
O3E_2 Zn2 1_555 1_555
O4B Zn1 1_555 1_555
O5B Zn2E 1_555 1_555
O5G Zn2 1_555 1_555
Zn3 O1B 1_555 1_555
O5 Zn2G 1_555 1_555
C8 C16 1_555 1_555
C13 C14 1_555 1_555
C17 C18 1_555 1_555
C21 C26 1_555 1_555
C22 C23 1_555 1_555
C25 C26 1_555 1_555
C27 O9 1_555 1_555
C19E C20E 1_555 1_555
Zn2E O1B 1_555 1_555
C9E C15E 1_555 1_555
C13E C14E 1_555 1_555
C21E C26E 1_555 1_555
C25E C26E 1_555 1_555
C27E O9E 1_555 1_555
Zn1B O1B 1_555 1_555

#END
