
#######################################################################
#
#                 Cambridge Crystallographic Data Centre
#                                CCDC 
#
#######################################################################
#
# If this CIF has been generated from an entry in the Cambridge 
# Structural Database, then it will include bibliographic, chemical, 
# crystal, experimental, refinement or atomic coordinate data resulting 
# from the CCDC's data processing and validation procedures.
#
#######################################################################

data_NEVGIE
_chemical_formula_moiety         '(C18 H15 Cs3 O3)n'
_symmetry_cell_setting           orthorhombic
_symmetry_space_group_name_H-M   'P n a 21'
_symmetry_Int_Tables_number      33
_space_group_name_Hall           'P 2c -2n'
loop_
_symmetry_equiv_pos_site_id
_symmetry_equiv_pos_as_xyz
1 x,y,z
2 -x,-y,1/2+z
3 1/2-x,1/2+y,1/2+z
4 1/2+x,1/2-y,z
_cell_length_a                   14.8448(2)
_cell_length_b                   18.5070(2)
_cell_length_c                   7.6306(1)
_cell_angle_alpha                90
_cell_angle_beta                 90
_cell_angle_gamma                90
_cell_volume                     2096.38
loop_
_atom_site_label
_atom_site_type_symbol
_atom_site_fract_x
_atom_site_fract_y
_atom_site_fract_z
O1 O 0.6322(6) 0.443(5) 0.06(2)
O2 O 0.3825(6) 0.401(6) -0.02(1)
O3 O 0.5068(6) 0.627(6) -0.02(1)
C1 C 0.717(5) 0.424(3) 0.11(1)
C2 C 0.7325(6) 0.407(5) 0.29(1)
C3 C 0.818(6) 0.388(6) 0.34(2)
C4 C 0.888(5) 0.387(5) 0.22(2)
C5 C 0.872(6) 0.404(6) 0.05(2)
C6 C 0.786(6) 0.423(6) -0.01(2)
C7 C 0.308(5) 0.384(4) 0.07(1)
C8 C 0.245(6) 0.436(4) 0.11(2)
C9 C 0.170(6) 0.419(6) 0.21(2)
C10 C 0.157(6) 0.350(6) 0.27(1)
C11 C 0.220(6) 0.297(5) 0.23(2)
C12 C 0.295(6) 0.314(4) 0.13(1)
C13 C 0.473(5) 0.686(5) 0.07(1)
C14 C 0.524(5) 0.748(5) 0.08(1)
C15 C 0.490(6) 0.807(5) 0.17(1)
C16 C 0.405(6) 0.805(6) 0.24(1)
C17 C 0.354(5) 0.743(6) 0.22(2)
C18 C 0.388(5) 0.684(6) 0.14(1)
Cs1 Cs 0.470(1) 0.507(1) 0.250
Cs2 Cs 0.536(1) 0.307(1) 0.103(3)
Cs3 Cs 0.697(1) 0.604(1) 0.104(4)
H1 H 0.68(1) 0.408(6) 0.38(2)
H2 H 0.83(1) 0.37(1) 0.47(2)
H3 H 0.953(6) 0.372(6) 0.26(3)
H4 H 0.926(6) 0.40(1) -0.04(3)
H5 H 0.77(1) 0.44(1) -0.14(2)
H6 H 0.26(1) 0.490(4) 0.07(2)
H7 H 0.122(6) 0.46(1) 0.24(2)
H8 H 0.100(6) 0.34(1) 0.34(2)
H9 H 0.21(1) 0.243(6) 0.27(2)
H10 H 0.34(1) 0.27(5) 0.10(2)
H11 H 0.590(6) 0.750(6) 0.03(2)
H12 H 0.53(1) 0.855(5) 0.18(2)
H13 H 0.38(1) 0.850(6) 0.31(2)
H14 H 0.288(6) 0.74(1) 0.28(2)
H15 H 0.348(6) 0.64(6) 0.12(2)
O1A O 0.3678(6) 0.557(5) 0.56(2)
O2A O 0.6175(6) 0.599(6) 0.48(1)
O3A O 0.4932(6) 0.373(6) 0.48(1)
Cs1A Cs 0.530(1) 0.493(1) -0.250
Cs3A Cs 0.303(1) 0.396(1) -0.396(4)
Cs2A Cs 0.464(1) 0.693(1) -0.397(3)
loop_
_geom_bond_atom_site_label_1
_geom_bond_atom_site_label_2
_geom_bond_site_symmetry_1
_geom_bond_site_symmetry_2
O1 C1 1_555 1_555
O2 C7 1_555 1_555
O3 C13 1_555 1_555
C1 C2 1_555 1_555
C2 C3 1_555 1_555
C3 C4 1_555 1_555
C4 C5 1_555 1_555
C5 C6 1_555 1_555
C6 C1 1_555 1_555
C7 C8 1_555 1_555
C8 C9 1_555 1_555
C9 C10 1_555 1_555
C10 C11 1_555 1_555
C11 C12 1_555 1_555
C12 C7 1_555 1_555
C13 C14 1_555 1_555
C14 C15 1_555 1_555
C15 C16 1_555 1_555
C16 C17 1_555 1_555
C17 C18 1_555 1_555
C18 C13 1_555 1_555
Cs1 O1 1_555 1_555
Cs2 O1 1_555 1_555
Cs3 O1 1_555 1_555
H1 C2 1_555 1_555
H2 C3 1_555 1_555
H3 C4 1_555 1_555
H4 C5 1_555 1_555
H5 C6 1_555 1_555
H6 C8 1_555 1_555
H7 C9 1_555 1_555
H8 C10 1_555 1_555
H9 C11 1_555 1_555
H10 C12 1_555 1_555
H11 C14 1_555 1_555
H12 C15 1_555 1_555
H13 C16 1_555 1_555
H14 C17 1_555 1_555
H15 C18 1_555 1_555
O1A Cs1 1_555 1_555
O2A Cs1 1_555 1_555
O3A Cs1 1_555 1_555
Cs1A O1 1_555 1_555
Cs3A O2 1_555 1_555
Cs2A O3 1_555 1_555
O2 Cs1 1_555 1_555
O2 Cs1A 1_555 1_555
O2 Cs2 1_555 1_555
O3 Cs1 1_555 1_555
O3 Cs1A 1_555 1_555
O3 Cs3 1_555 1_555
Cs2 O3A 1_555 1_555
Cs3 O2A 1_555 1_555

#END
