
#######################################################################
#
#                 Cambridge Crystallographic Data Centre
#                                CCDC 
#
#######################################################################
#
# If this CIF has been generated from an entry in the Cambridge 
# Structural Database, then it will include bibliographic, chemical, 
# crystal, experimental, refinement or atomic coordinate data resulting 
# from the CCDC's data processing and validation procedures.
#
#######################################################################

data_JIVHIG
_chemical_formula_moiety         'C74 H106 K9 O21'
_symmetry_cell_setting           monoclinic
_symmetry_space_group_name_H-M   'P 21/c'
_symmetry_Int_Tables_number      14
_space_group_name_Hall           '-P 2ybc'
loop_
_symmetry_equiv_pos_site_id
_symmetry_equiv_pos_as_xyz
1 x,y,z
2 -x,1/2+y,1/2-z
3 -x,-y,-z
4 x,1/2-y,1/2+z
_cell_length_a                   13.8683(4)
_cell_length_b                   16.2281(5)
_cell_length_c                   20.4910(6)
_cell_angle_alpha                90
_cell_angle_beta                 104.715(2)
_cell_angle_gamma                90
_cell_volume                     4460.37
loop_
_atom_site_label
_atom_site_type_symbol
_atom_site_fract_x
_atom_site_fract_y
_atom_site_fract_z
K1 K -0.01002(7) 0.60217(5) 1.11483(4)
K2 K -0.06504(10) 0.62882(6) 0.88985(6)
K3 K -0.21901(8) 0.51849(7) 0.97177(5)
O1 O -0.1203(2) 0.66219(16) 0.99813(12)
O2 O 0.15957(19) 0.51693(17) 1.13378(14)
O3 O -0.1075(2) 0.46501(16) 1.09772(13)
O4 O 0.03221(18) 0.73023(15) 1.20010(12)
O5 O -0.05819(19) 0.74344(19) 1.30830(13)
O6 O -0.40540(19) 0.51717(18) 0.98893(15)
O7 O 0.0135(8) 0.5195(5) 1.0011(6)
C1 C -0.1706(3) 0.7191(2) 1.02159(17)
C2 C -0.1552(3) 0.8049(2) 1.01255(18)
C3 C -0.2111(3) 0.8614(3) 1.03780(19)
H1 H -0.2015 0.9184 1.0310
C4 C -0.2805(3) 0.8384(3) 1.0727(2)
H2 H -0.3177 0.8788 1.0894
C5 C -0.2944(3) 0.7560(3) 1.0826(2)
H3 H -0.3413 0.7391 1.1066
C6 C -0.2406(3) 0.6976(3) 1.05781(18)
H4 H -0.2511 0.6410 1.0655
C7 C -0.0749(3) 0.8308(3) 0.9789(2)
H5 H -0.0746 0.7895 0.9427
C8 C 0.0276(4) 0.8271(3) 1.0291(3)
H6 H 0.0309 0.8681 1.0647
H7 H 0.0794 0.8390 1.0055
H8 H 0.0383 0.7720 1.0491
C9 C -0.0900(4) 0.9147(3) 0.9455(2)
H9 H -0.1550 0.9164 0.9126
H10 H -0.0372 0.9248 0.9225
H11 H -0.0875 0.9573 0.9798
C10 C 0.1911(3) 0.5295(2) 1.1996(2)
C11 C 0.2802(3) 0.5738(2) 1.2278(2)
C12 C 0.3118(3) 0.5823(3) 1.2971(2)
H12 H 0.3722 0.6108 1.3159
C13 C 0.2586(4) 0.5506(3) 1.3402(2)
H13 H 0.2826 0.5568 1.3877
C14 C 0.1697(4) 0.5098(3) 1.3127(2)
H14 H 0.1318 0.4883 1.3415
C15 C 0.1358(3) 0.5002(2) 1.2432(2)
H15 H 0.0740 0.4733 1.2250
C16 C 0.3358(3) 0.6115(3) 1.1810(2)
H16 H 0.3366 0.5697 1.1453
C17 C 0.4434(4) 0.6350(3) 1.2130(3)
H17 H 0.4744 0.6551 1.1781
H18 H 0.4799 0.5866 1.2352
H19 H 0.4454 0.6785 1.2465
C18 C 0.2788(4) 0.6868(4) 1.1457(3)
H20 H 0.2779 0.7297 1.1792
H21 H 0.2102 0.6708 1.1233
H22 H 0.3117 0.7079 1.1122
C19 C -0.1727(3) 0.4085(2) 1.10236(19)
C20 C -0.2321(3) 0.4158(3) 1.1488(2)
C21 C -0.3003(3) 0.3540(3) 1.1514(2)
H23 H -0.3404 0.3589 1.1825
C22 C -0.3114(3) 0.2849(3) 1.1095(3)
H24 H -0.3583 0.2433 1.1125
C23 C -0.2548(3) 0.2773(3) 1.0643(2)
H25 H -0.2620 0.2306 1.0356
C24 C -0.1871(3) 0.3379(2) 1.0608(2)
H26 H -0.1483 0.3321 1.0289
C25 C -0.2190(3) 0.4914(3) 1.1941(2)
H27 H -0.1766 0.5307 1.1759
C26 C -0.3125(4) 0.5361(3) 1.1929(2)
H28 H -0.2971 0.5858 1.2207
H29 H -0.3456 0.5516 1.1464
H30 H -0.3567 0.5004 1.2108
C27 C -0.1615(5) 0.4716(4) 1.2649(3)
H31 H -0.0963 0.4489 1.2643
H32 H -0.1522 0.5220 1.2922
H33 H -0.1985 0.4311 1.2845
C28 C 0.0893(3) 0.7211(2) 1.26896(18)
H34 H 0.1179 0.7750 1.2866
H35 H 0.1449 0.6822 1.2710
C29 C -0.0485(3) 0.7852(2) 1.19724(18)
H36 H -0.0878 0.7914 1.1499
H37 H -0.0223 0.8402 1.2140
C30 C -0.1139(3) 0.7532(3) 1.23935(19)
H38 H -0.1424 0.6995 1.2213
H39 H -0.1697 0.7920 1.2371
C31 C 0.0241(3) 0.6894(2) 1.31169(19)
H40 H 0.0636 0.6845 1.3591
H41 H -0.0010 0.6339 1.2958
C32 C -0.3121(3) 0.7589(3) 0.8365(3)
H42 H -0.3454 0.7916 0.7963
H43 H -0.2587 0.7928 0.8655
C33 C -0.3844(3) 0.7327(3) 0.8739(2)
H44 H -0.3531 0.6919 0.9088
H45 H -0.4055 0.7807 0.8966
C34 C -0.4267(4) 0.6198(3) 0.8028(3)
H46 H -0.3943 0.5845 0.8416
H47 H -0.4809 0.5878 0.7728
C35 C -0.3529(3) 0.6448(3) 0.7656(2)
H48 H -0.3276 0.5963 0.7459
H49 H -0.3828 0.6839 0.7290
C36 C -0.4847(3) 0.5765(3) 0.9739(2)
H50 H -0.4564 0.6328 0.9804
H51 H -0.5224 0.5709 0.9261
C37 C -0.4466(3) 0.4360(3) 0.9815(2)
H52 H -0.4836 0.4271 0.9339
H53 H -0.3920 0.3950 0.9929
O8 O -0.2719(3) 0.6847(3) 0.8169(2)
O9 O -0.4692(3) 0.6966(3) 0.8277(2)
K1B K 0.01002(7) 0.39783(5) 0.88517(4)
K1C K -0.01002(7) 0.89783(5) 0.61483(4)
K2B K 0.06504(10) 0.37118(6) 1.11015(6)
K2C K -0.06504(10) 0.87118(6) 1.38985(6)
K3B K 0.21901(8) 0.48151(7) 1.02823(5)
K3B_2 K -0.78099(8) 0.48151(7) 1.02823(5)
O1B O 0.1203(2) 0.33781(16) 1.00187(12)
O2B O -0.15957(19) 0.48307(17) 0.86622(14)
O3B O 0.1075(2) 0.53499(16) 0.90228(13)
O4C O 0.03221(18) 0.76977(15) 0.70010(12)
O4B O -0.03221(18) 0.26977(15) 0.79990(12)
O5C O -0.05819(19) 0.75656(19) 0.80830(13)
O5A O 0.05819(19) 0.24344(19) 1.19170(13)
O6B O -0.59460(19) 0.48283(18) 1.01107(15)
O6B_2 O 0.40540(19) 0.48283(18) 1.01107(15)
O7B O -0.0135(8) 0.4805(5) 0.9989(6)
C1B C 0.1706(3) 0.2809(2) 0.97841(17)
C2B C 0.1552(3) 0.1951(2) 0.98745(18)
C3B C 0.2111(3) 0.1386(3) 0.96220(19)
H1B H 0.2015 0.0816 0.9690
C4B C 0.2805(3) 0.1616(3) 0.9273(2)
H2B H 0.3177 0.1212 0.9106
C5B C 0.2944(3) 0.2440(3) 0.9174(2)
H3B H 0.3413 0.2609 0.8934
C6B C 0.2406(3) 0.3024(3) 0.94219(18)
H4B H 0.2511 0.3590 0.9345
C7B C 0.0749(3) 0.1692(3) 1.0211(2)
H5B H 0.0746 0.2105 1.0573
C8B C -0.0276(4) 0.1729(3) 0.9709(3)
H6B H -0.0309 0.1319 0.9353
H7B H -0.0794 0.1610 0.9945
H8B H -0.0383 0.2280 0.9509
C9B C 0.0900(4) 0.0853(3) 1.0545(2)
H9B H 0.1550 0.0836 1.0874
H10B H 0.0372 0.0752 1.0775
H11B H 0.0875 0.0427 1.0202
C10B C -0.1911(3) 0.4705(2) 0.8004(2)
C11B C -0.2802(3) 0.4262(2) 0.7722(2)
C12B C -0.3118(3) 0.4177(3) 0.7029(2)
H12B H -0.3722 0.3892 0.6841
C13B C -0.2586(4) 0.4494(3) 0.6598(2)
H13B H -0.2826 0.4432 0.6123
C14B C -0.1697(4) 0.4902(3) 0.6873(2)
H14B H -0.1318 0.5117 0.6585
C15B C -0.1358(3) 0.4998(2) 0.7568(2)
H15B H -0.0740 0.5267 0.7750
C16B C -0.3358(3) 0.3885(3) 0.8190(2)
H16B H -0.3366 0.4303 0.8547
C17B C -0.4434(4) 0.3650(3) 0.7870(3)
H17B H -0.4744 0.3449 0.8219
H18B H -0.4799 0.4134 0.7648
H19B H -0.4454 0.3215 0.7535
C18B C -0.2788(4) 0.3132(4) 0.8543(3)
H20B H -0.2779 0.2703 0.8208
H21B H -0.2102 0.3292 0.8767
H22B H -0.3117 0.2921 0.8878
C19B C 0.1727(3) 0.5915(2) 0.89764(19)
C20B C 0.2321(3) 0.5842(3) 0.8512(2)
C21B C 0.3003(3) 0.6460(3) 0.8486(2)
H23B H 0.3404 0.6411 0.8175
C22B C 0.3114(3) 0.7151(3) 0.8905(3)
H24B H 0.3583 0.7567 0.8875
C23B C 0.2548(3) 0.7227(3) 0.9357(2)
H25B H 0.2620 0.7694 0.9644
C24B C 0.1871(3) 0.6621(2) 0.9392(2)
H26B H 0.1483 0.6679 0.9711
C25B C 0.2190(3) 0.5086(3) 0.8059(2)
H27B H 0.1766 0.4693 0.8241
C26B C 0.3125(4) 0.4639(3) 0.8071(2)
H28B H 0.2971 0.4142 0.7793
H29B H 0.3456 0.4484 0.8536
H30B H 0.3567 0.4996 0.7892
C27B C 0.1615(5) 0.5284(4) 0.7351(3)
H31B H 0.0963 0.5511 0.7357
H32B H 0.1522 0.4780 0.7078
H33B H 0.1985 0.5689 0.7155
C28C C 0.0893(3) 0.7789(2) 0.76896(18)
H34C H 0.1179 0.7250 0.7866
H35C H 0.1449 0.8178 0.7710
C29C C -0.0485(3) 0.7148(2) 0.69724(18)
H36C H -0.0878 0.7086 0.6499
H37C H -0.0223 0.6598 0.7140
C30C C -0.1139(3) 0.7468(3) 0.73935(19)
H38C H -0.1424 0.8005 0.7213
H39C H -0.1697 0.7080 0.7371
C31C C 0.0241(3) 0.8106(2) 0.81169(19)
H40C H 0.0636 0.8155 0.8591
H41C H -0.0010 0.8661 0.7958
C32B C 0.3121(3) 0.2411(3) 1.1635(3)
H42B H 0.3454 0.2084 1.2037
H43B H 0.2587 0.2072 1.1345
C33B C 0.3844(3) 0.2673(3) 1.1261(2)
H44B H 0.3531 0.3081 1.0912
H45B H 0.4055 0.2193 1.1034
C34B C 0.4267(4) 0.3802(3) 1.1972(3)
H46B H 0.3943 0.4155 1.1584
H47B H 0.4809 0.4122 1.2272
C35B C 0.3529(3) 0.3552(3) 1.2344(2)
H48B H 0.3276 0.4037 1.2541
H49B H 0.3828 0.3161 1.2710
C36B C -0.5153(3) 0.4235(3) 1.0261(2)
H50B H -0.5436 0.3672 1.0196
H51B H -0.4776 0.4291 1.0739
C37B C -0.5534(3) 0.5640(3) 1.0185(2)
H52B H -0.5164 0.5729 1.0661
H53B H -0.6080 0.6050 1.0071
O8B O 0.2719(3) 0.3153(3) 1.1831(2)
O9B O 0.4692(3) 0.3034(3) 1.1723(2)
loop_
_geom_bond_atom_site_label_1
_geom_bond_atom_site_label_2
_geom_bond_site_symmetry_1
_geom_bond_site_symmetry_2
K1 O1 1_555 1_555
K2 O1 1_555 1_555
K3 O1 1_555 1_555
O1 C1 1_555 1_555
O2 K1 1_555 1_555
O3 K1 1_555 1_555
O4 K1 1_555 1_555
O5 C30 1_555 1_555
O6 K3 1_555 1_555
O7 K1 1_555 1_555
C1 C2 1_555 1_555
C2 C3 1_555 1_555
C3 H1 1_555 1_555
C4 C3 1_555 1_555
H2 C4 1_555 1_555
C5 C4 1_555 1_555
H3 C5 1_555 1_555
C6 C1 1_555 1_555
H4 C6 1_555 1_555
C7 C2 1_555 1_555
H5 C7 1_555 1_555
C8 C7 1_555 1_555
H6 C8 1_555 1_555
H7 C8 1_555 1_555
H8 C8 1_555 1_555
C9 C7 1_555 1_555
H9 C9 1_555 1_555
H10 C9 1_555 1_555
H11 C9 1_555 1_555
C10 O2 1_555 1_555
C11 C10 1_555 1_555
C12 C11 1_555 1_555
H12 C12 1_555 1_555
C13 C12 1_555 1_555
H13 C13 1_555 1_555
C14 C13 1_555 1_555
H14 C14 1_555 1_555
C15 C10 1_555 1_555
H15 C15 1_555 1_555
C16 C11 1_555 1_555
H16 C16 1_555 1_555
C17 C16 1_555 1_555
H17 C17 1_555 1_555
H18 C17 1_555 1_555
H19 C17 1_555 1_555
C18 C16 1_555 1_555
H20 C18 1_555 1_555
H21 C18 1_555 1_555
H22 C18 1_555 1_555
C19 O3 1_555 1_555
C20 C19 1_555 1_555
C21 C20 1_555 1_555
H23 C21 1_555 1_555
C22 C21 1_555 1_555
H24 C22 1_555 1_555
C23 C22 1_555 1_555
H25 C23 1_555 1_555
C24 C19 1_555 1_555
H26 C24 1_555 1_555
C25 C20 1_555 1_555
H27 C25 1_555 1_555
C26 C25 1_555 1_555
H28 C26 1_555 1_555
H29 C26 1_555 1_555
H30 C26 1_555 1_555
C27 C25 1_555 1_555
H31 C27 1_555 1_555
H32 C27 1_555 1_555
H33 C27 1_555 1_555
C28 O4 1_555 1_555
H34 C28 1_555 1_555
H35 C28 1_555 1_555
C29 O4 1_555 1_555
H36 C29 1_555 1_555
H37 C29 1_555 1_555
C30 C29 1_555 1_555
H38 C30 1_555 1_555
H39 C30 1_555 1_555
C31 O5 1_555 1_555
H40 C31 1_555 1_555
H41 C31 1_555 1_555
C32 H42 1_555 1_555
H43 C32 1_555 1_555
C33 C32 1_555 1_555
H44 C33 1_555 1_555
H45 C33 1_555 1_555
C34 H46 1_555 1_555
H47 C34 1_555 1_555
C35 C34 1_555 1_555
H48 C35 1_555 1_555
H49 C35 1_555 1_555
C36 O6 1_555 1_555
H50 C36 1_555 1_555
H51 C36 1_555 1_555
C37 O6 1_555 1_555
H52 C37 1_555 1_555
H53 C37 1_555 1_555
O8 K2 1_555 1_555
O9 C33 1_555 1_555
K1B O1B 1_555 1_555
K1C O4C 1_555 1_555
K2B O2 1_555 1_555
K2C O5 1_555 1_555
K3B O2 1_555 1_555
K3B_2 O6B 1_555 1_555
O1B K2B 1_555 1_555
O2B K2 1_555 1_555
O3B K2 1_555 1_555
O4C C28C 1_555 1_555
O4B K1B 1_555 1_555
O5C K2 1_555 1_555
O5A K2B 1_555 1_555
O6B C36B 1_555 1_555
O6B_2 K3B 1_555 1_555
O7B K3 1_555 1_555
C1B O1B 1_555 1_555
C2B C1B 1_555 1_555
C3B C2B 1_555 1_555
H1B C3B 1_555 1_555
C4B C3B 1_555 1_555
H2B C4B 1_555 1_555
C5B C4B 1_555 1_555
H3B C5B 1_555 1_555
C6B C1B 1_555 1_555
H4B C6B 1_555 1_555
C7B C2B 1_555 1_555
H5B C7B 1_555 1_555
C8B C7B 1_555 1_555
H6B C8B 1_555 1_555
H7B C8B 1_555 1_555
H8B C8B 1_555 1_555
C9B C7B 1_555 1_555
H9B C9B 1_555 1_555
H10B C9B 1_555 1_555
H11B C9B 1_555 1_555
C10B O2B 1_555 1_555
C11B C10B 1_555 1_555
C12B C11B 1_555 1_555
H12B C12B 1_555 1_555
C13B C12B 1_555 1_555
H13B C13B 1_555 1_555
C14B C13B 1_555 1_555
H14B C14B 1_555 1_555
C15B C10B 1_555 1_555
H15B C15B 1_555 1_555
C16B C11B 1_555 1_555
H16B C16B 1_555 1_555
C17B C16B 1_555 1_555
H17B C17B 1_555 1_555
H18B C17B 1_555 1_555
H19B C17B 1_555 1_555
C18B C16B 1_555 1_555
H20B C18B 1_555 1_555
H21B C18B 1_555 1_555
H22B C18B 1_555 1_555
C19B O3B 1_555 1_555
C20B C19B 1_555 1_555
C21B C20B 1_555 1_555
H23B C21B 1_555 1_555
C22B C21B 1_555 1_555
H24B C22B 1_555 1_555
C23B C22B 1_555 1_555
H25B C23B 1_555 1_555
C24B C19B 1_555 1_555
H26B C24B 1_555 1_555
C25B C20B 1_555 1_555
H27B C25B 1_555 1_555
C26B C25B 1_555 1_555
H28B C26B 1_555 1_555
H29B C26B 1_555 1_555
H30B C26B 1_555 1_555
C27B C25B 1_555 1_555
H31B C27B 1_555 1_555
H32B C27B 1_555 1_555
H33B C27B 1_555 1_555
C28C H34C 1_555 1_555
H35C C28C 1_555 1_555
C29C O4C 1_555 1_555
H36C C29C 1_555 1_555
H37C C29C 1_555 1_555
C30C O5C 1_555 1_555
H38C C30C 1_555 1_555
H39C C30C 1_555 1_555
C31C O5C 1_555 1_555
H40C C31C 1_555 1_555
H41C C31C 1_555 1_555
C32B H42B 1_555 1_555
H43B C32B 1_555 1_555
C33B C32B 1_555 1_555
H44B C33B 1_555 1_555
H45B C33B 1_555 1_555
C34B H46B 1_555 1_555
H47B C34B 1_555 1_555
C35B C34B 1_555 1_555
H48B C35B 1_555 1_555
H49B C35B 1_555 1_555
C36B C37 1_555 1_555
H50B C36B 1_555 1_555
H51B C36B 1_555 1_555
C37B C36 1_555 1_555
H52B C37B 1_555 1_555
H53B C37B 1_555 1_555
O8B K2B 1_555 1_555
O9B C33B 1_555 1_555
K2 O7 1_555 1_555
K3 O3 1_555 1_555
K3 O2B 1_555 1_555
O3 K2B 1_555 1_555
O7 K3B 1_555 1_555
O7 O7B 1_555 1_555
C5 C6 1_555 1_555
C14 C15 1_555 1_555
C23 C24 1_555 1_555
C28 C31 1_555 1_555
C32 O8 1_555 1_555
C34 O9 1_555 1_555
C35 O8 1_555 1_555
K1B O2B 1_555 1_555
K1B O3B 1_555 1_555
K1B O7B 1_555 1_555
K2B O7B 1_555 1_555
K3B O1B 1_555 1_555
K3B O3B 1_555 1_555
O6B C37B 1_555 1_555
C5B C6B 1_555 1_555
C14B C15B 1_555 1_555
C23B C24B 1_555 1_555
C28C C31C 1_555 1_555
C29C C30C 1_555 1_555
C32B O8B 1_555 1_555
C34B O9B 1_555 1_555
C35B O8B 1_555 1_555

#END
