
#######################################################################
#
#                 Cambridge Crystallographic Data Centre
#                                CCDC 
#
#######################################################################
#
# If this CIF has been generated from an entry in the Cambridge 
# Structural Database, then it will include bibliographic, chemical, 
# crystal, experimental, refinement or atomic coordinate data resulting 
# from the CCDC's data processing and validation procedures.
#
#######################################################################

data_IXAMIE
_chemical_formula_moiety         '(C4 H2 F1 Fe4 N2 O17 P4)n'
_symmetry_cell_setting           tetragonal
_symmetry_space_group_name_H-M   'I -4 2 m'
_symmetry_Int_Tables_number      121
_space_group_name_Hall           'I -4 2'
loop_
_symmetry_equiv_pos_site_id
_symmetry_equiv_pos_as_xyz
1 x,y,z
2 y,-x,-z
3 -x,-y,z
4 -y,x,-z
5 x,-y,-z
6 -y,-x,z
7 -x,y,-z
8 y,x,z
9 1/2+x,1/2+y,1/2+z
10 1/2+y,1/2-x,1/2-z
11 1/2-x,1/2-y,1/2+z
12 1/2-y,1/2+x,1/2-z
13 1/2+x,1/2-y,1/2-z
14 1/2-y,1/2-x,1/2+z
15 1/2-x,1/2+y,1/2-z
16 1/2+y,1/2+x,1/2+z
_cell_length_a                   10.2660(11)
_cell_length_b                   10.2660(11)
_cell_length_c                   9.6311(10)
_cell_angle_alpha                90
_cell_angle_beta                 90
_cell_angle_gamma                90
_cell_volume                     1015.03
loop_
_atom_site_label
_atom_site_type_symbol
_atom_site_fract_x
_atom_site_fract_y
_atom_site_fract_z
_atom_site_U_iso_or_equiv
_atom_site_thermal_displace_type
N1 N -0.1848(7) -0.5000 -0.5000 0.0683 Uani
C1 C -0.0446(9) -0.4961(9) -0.4366(8) 0.0447 Uani
N1B N 0.1848(7) -0.5000 -0.5000 0.0683 Uani
C1D C -0.0446(9) -0.5039(9) -0.5634(8) 0.0447 Uani
C1B C 0.0446(9) -0.5039(9) -0.4366(8) 0.0447 Uani
C1F C 0.0446(9) -0.4961(9) -0.5634(8) 0.0447 Uani
O5 O 0.0000 0.0000 -1.0000 0.1070 Uani
Fe1 Fe 0.36725(7) -0.63275(7) -0.86879(11) 0.0441 Uani
P1 P 0.33584(11) -0.66416(11) -1.1937(2) 0.0504 Uani
F1 F 0.5000 -0.5000 -1.0000 0.0817 Uani
O2 O 0.3004(4) -0.6996(4) -1.0452(8) 0.0800 Uani
O3 O 0.3044(4) -0.5221(4) -1.2212(5) 0.0793 Uani
O4 O 0.2564(6) -0.7436(6) -1.2926(10) 0.1390 Uani
Fe1A Fe 0.36725(7) -0.36725(7) -1.13121(11) 0.0441 Uani
Fe1C Fe 0.63275(7) -0.63275(7) -1.13121(11) 0.0441 Uani
Fe1B Fe 0.63275(7) -0.36725(7) -0.86879(11) 0.0441 Uani
Fe1J Fe 0.13275(7) -0.86725(7) -1.36879(11) 0.0441 Uani
Fe1I Fe 0.86725(7) -0.86725(7) -0.63121(11) 0.0441 Uani
Fe1K Fe 0.13275(7) -0.13275(7) -0.63121(11) 0.0441 Uani
Fe1H Fe 0.86725(7) -0.13275(7) -1.36879(11) 0.0441 Uani
P1C P 0.66416(11) -0.66416(11) -0.8063(2) 0.0504 Uani
P1A P 0.33584(11) -0.33584(11) -0.8063(2) 0.0504 Uani
P1B P 0.66416(11) -0.33584(11) -1.1937(2) 0.0504 Uani
O2C O 0.6996(4) -0.6996(4) -0.9548(8) 0.0800 Uani
O2A O 0.3004(4) -0.3004(4) -0.9548(8) 0.0800 Uani
O2B O 0.6996(4) -0.3004(4) -1.0452(8) 0.0800 Uani
O3G O 0.4779(4) -0.6956(4) -1.2212(5) 0.0793 Uani
O3C O 0.5221(4) -0.6956(4) -0.7788(5) 0.0793 Uani
O3F O 0.6956(4) -0.5221(4) -0.7788(5) 0.0793 Uani
O3D O 0.3044(4) -0.4779(4) -0.7788(5) 0.0793 Uani
O3A O 0.4779(4) -0.3044(4) -0.7788(5) 0.0793 Uani
O3E O 0.5221(4) -0.3044(4) -1.2212(5) 0.0793 Uani
O3B O 0.6956(4) -0.4779(4) -1.2212(5) 0.0793 Uani
O4C O 0.7436(6) -0.7436(6) -0.7074(10) 0.1390 Uani
O4J O 0.2436(6) -0.7564(6) -0.7926(10) 0.1390 Uani
O4A O 0.2564(6) -0.2564(6) -0.7074(10) 0.1390 Uani
O4K O 0.2436(6) -0.2436(6) -1.2074(10) 0.1390 Uani
O4I O 0.7564(6) -0.7564(6) -1.2074(10) 0.1390 Uani
O4H O 0.7564(6) -0.2436(6) -0.7926(10) 0.1390 Uani
O4B O 0.7436(6) -0.2564(6) -1.2926(10) 0.1390 Uani
loop_
_atom_site_aniso_label
_atom_site_aniso_U_11
_atom_site_aniso_U_22
_atom_site_aniso_U_33
_atom_site_aniso_U_23
_atom_site_aniso_U_13
_atom_site_aniso_U_12
N1 0.043 0.067 0.095 0.006 0 0
C1 0.044 0.042 0.048 0.001 0.014 0
N1B 0.043(4) 0.067(5) 0.095(7) -0.006(4) 0.000 0.000
C1D 0.044 0.042 0.048 0.001 -0.014 0
C1B 0.044 0.042 0.048 -0.001 -0.014 0
C1F 0.044(4) 0.042(4) 0.048(4) -0.001(4) 0.014(4) 0.000(4)
O5 0.134(10) 0.134(10) 0.053(8) 0.000 0.000 0.000
Fe1 0.0399 0.0399 0.0526 0.0067 0.0067 -0.0065
P1 0.0488 0.0488 0.0536 -0.0092 -0.0092 -0.0181
F1 0.082(5) 0.082(5) 0.081(7) 0.000 0.000 0.000
O2 0.078 0.078 0.084 0.006 0.006 -0.028
O3 0.071 0.067 0.1 0.007 -0.045 0.002
O4 0.147 0.147 0.123 -0.031 -0.031 -0.09
Fe1A 0.0399(4) 0.0399(4) 0.0526(5) 0.0067(3) -0.0067(3) 0.0065(4)
Fe1C 0.0399 0.0399 0.0526 -0.0067 0.0067 0.0065
Fe1B 0.0399 0.0399 0.0526 -0.0067 -0.0067 -0.0065
Fe1J 0.0399 0.0399 0.0526 -0.0067 -0.0067 -0.0065
Fe1I 0.0399 0.0399 0.0526 0.0067 -0.0067 0.0065
Fe1K 0.0399 0.0399 0.0526 -0.0067 0.0067 0.0065
Fe1H 0.0399 0.0399 0.0526 0.0067 0.0067 -0.0065
P1C 0.0488 0.0488 0.0536 0.0092 -0.0092 0.0181
P1A 0.0488(6) 0.0488(6) 0.0536(8) -0.0092(5) 0.0092(5) 0.0181(7)
P1B 0.0488 0.0488 0.0536 0.0092 0.0092 -0.0181
O2C 0.078 0.078 0.084 -0.006 0.006 0.028
O2A 0.078(3) 0.078(3) 0.084(5) 0.006(2) -0.006(2) 0.028(4)
O2B 0.078 0.078 0.084 -0.006 -0.006 -0.028
O3G 0.067 0.071 0.1 -0.045 0.007 0.002
O3C 0.067 0.071 0.1 0.045 0.007 -0.002
O3F 0.071 0.067 0.1 -0.007 -0.045 -0.002
O3D 0.071(3) 0.067(3) 0.100(3) 0.007(3) 0.045(3) -0.002(2)
O3A 0.067 0.071 0.1 -0.045 -0.007 -0.002
O3E 0.067 0.071 0.1 0.045 -0.007 0.002
O3B 0.071 0.067 0.1 -0.007 0.045 0.002
O4C 0.147 0.147 0.123 0.031 -0.031 0.09
O4J 0.147 0.147 0.123 0.031 0.031 -0.09
O4A 0.147(6) 0.147(6) 0.123(8) -0.031(4) 0.031(4) 0.090(7)
O4K 0.147 0.147 0.123 0.031 -0.031 0.09
O4I 0.147 0.147 0.123 -0.031 0.031 0.09
O4H 0.147 0.147 0.123 -0.031 -0.031 -0.09
O4B 0.147 0.147 0.123 0.031 0.031 -0.09
loop_
_geom_bond_atom_site_label_1
_geom_bond_atom_site_label_2
_geom_bond_site_symmetry_1
_geom_bond_site_symmetry_2
Fe1 F1 1_555 1_555
P1 O2 1_555 1_555
F1 Fe1A 1_555 1_555
O2 Fe1 1_555 1_555
O3 P1 1_555 1_555
O4 P1 1_555 1_555
N1 C1 1_555 1_555
C1 C1D 1_555 1_555
Fe1A O3 1_555 1_555
Fe1C F1 1_555 1_555
Fe1B F1 1_555 1_555
Fe1J O4 1_555 1_555
Fe1I O4C 1_555 1_555
Fe1K O4A 1_555 1_555
Fe1H O4B 1_555 1_555
P1C O2C 1_555 1_555
P1A O2A 1_555 1_555
P1B O2B 1_555 1_555
O2C Fe1C 1_555 1_555
O2A Fe1A 1_555 1_555
O2B Fe1B 1_555 1_555
O3G P1 1_555 1_555
O3C Fe1 1_555 1_555
O3F Fe1B 1_555 1_555
O3D Fe1 1_555 1_555
O3A Fe1B 1_555 1_555
O3E Fe1A 1_555 1_555
O3B Fe1C 1_555 1_555
O4C P1C 1_555 1_555
O4J Fe1 1_555 1_555
O4A P1A 1_555 1_555
O4K Fe1A 1_555 1_555
O4I Fe1C 1_555 1_555
O4H Fe1B 1_555 1_555
O4B P1B 1_555 1_555
N1B C1B 1_555 1_555
C1D N1 1_555 1_555
C1B C1 1_555 1_555
C1F C1 1_555 1_555
Fe1C O3G 1_555 1_555
P1C O3C 1_555 1_555
P1C O3F 1_555 1_555
P1A O3D 1_555 1_555
P1A O3A 1_555 1_555
P1B O3E 1_555 1_555
P1B O3B 1_555 1_555
N1B C1F 1_555 1_555
C1D C1B 1_555 1_555
C1D C1F 1_555 1_555
C1B C1F 1_555 1_555

#END
