
#######################################################################
#
#                 Cambridge Crystallographic Data Centre
#                                CCDC 
#
#######################################################################
#
# If this CIF has been generated from an entry in the Cambridge 
# Structural Database, then it will include bibliographic, chemical, 
# crystal, experimental, refinement or atomic coordinate data resulting 
# from the CCDC's data processing and validation procedures.
#
#######################################################################

data_VONBIK
_chemical_formula_moiety         '(C48 H52 N6 O18 Zn2)n'
_symmetry_cell_setting           monoclinic
_symmetry_space_group_name_H-M   'P 21/n'
_symmetry_Int_Tables_number      14
_space_group_name_Hall           '-P 2yn'
loop_
_symmetry_equiv_pos_site_id
_symmetry_equiv_pos_as_xyz
1 x,y,z
2 1/2-x,1/2+y,1/2-z
3 -x,-y,-z
4 1/2+x,1/2-y,1/2+z
_cell_length_a                   17.309(3)
_cell_length_b                   16.441(2)
_cell_length_c                   18.128(3)
_cell_angle_alpha                90
_cell_angle_beta                 92.439(3)
_cell_angle_gamma                90
_cell_volume                     5154.14
loop_
_atom_site_label
_atom_site_type_symbol
_atom_site_fract_x
_atom_site_fract_y
_atom_site_fract_z
_atom_site_U_iso_or_equiv
_atom_site_thermal_displace_type
Zn1 Zn 0.27597(3) 0.50093(3) 0.77244(3) 0.0421 Uani
Zn2 Zn 0.29169(3) -0.00625(3) 0.20914(2) 0.0397 Uani
O1 O -0.18637(17) -0.51630(18) 0.59543(16) 0.0520 Uani
N1 N 0.25581(17) 0.20018(18) 0.32783(16) 0.0348 Uani
O2 O -0.00044(19) -0.36644(19) 0.33179(15) 0.0595 Uani
N2 N 0.25233(18) 0.28462(19) 0.66326(16) 0.0371 Uani
O3 O -0.13614(18) -0.40861(18) 0.65063(16) 0.0536 Uani
O4 O 0.18965(18) -0.07397(17) 0.20646(16) 0.0521 Uani
N3 N 0.38405(18) 0.03364(19) 0.27827(17) 0.0376 Uani
O5 O 0.49025(19) 0.61755(19) 1.16962(16) 0.0605 Uani
C1 C 0.2843(2) 0.3551(2) 0.68756(19) 0.0333 Uani
O6 O 0.26470(19) -0.0991(2) 0.30263(19) 0.0641 Uani
O7 O 0.2819(2) 0.4728(2) 0.90109(19) 0.0732 Uani
C2 C -0.1439(2) -0.4530(2) 0.5944(2) 0.0427 Uani
C3 C 0.2641(3) 0.2100(2) 0.4649(2) 0.0446 Uani
H1 H 0.3064 0.1725 0.4753 0.0540 Uiso
H2 H 0.2165 0.1788 0.4614 0.0540 Uiso
C4 C 0.2759(2) 0.2523(2) 0.39199(19) 0.0381 Uani
H3 H 0.2443 0.3011 0.3893 0.0460 Uiso
H4 H 0.3296 0.2688 0.3900 0.0460 Uiso
N4 N 0.36715(19) 0.4663(2) 0.70513(19) 0.0443 Uani
O8 O 0.34829(19) 0.5650(2) 0.84456(17) 0.0636 Uani
N5 N 0.24076(18) 0.3883(2) 0.73853(16) 0.0385 Uani
C5 C 0.2922(2) 0.1345(2) 0.30074(18) 0.0319 Uani
C6 C 0.1860(2) 0.2724(3) 0.7008(2) 0.0445 Uani
H5 H 0.1523 0.2285 0.6958 0.0530 Uiso
N6 N 0.24824(18) 0.10131(19) 0.24682(17) 0.0372 Uani
C7 C 0.2743(2) 0.2311(2) 0.60221(18) 0.0366 Uani
H6 H 0.2448 0.1810 0.6039 0.0440 Uiso
H7 H 0.3287 0.2173 0.6086 0.0440 Uiso
C8 C 0.3692(2) 0.1008(2) 0.31898(19) 0.0351 Uani
C9 C 0.2042(2) -0.1125(2) 0.2657(2) 0.0442 Uani
C10 C 0.1487(2) -0.1759(2) 0.2895(2) 0.0393 Uani
C11 C 0.6369(2) 0.8150(2) 1.2048(2) 0.0447 Uani
C12 C 0.4551(2) 0.5973(3) 1.1020(2) 0.0467 Uani
C13 C 0.3326(3) 0.5264(3) 0.9027(3) 0.0516 Uani
C14 C 0.0488(2) -0.3000(2) 0.3242(2) 0.0457 Uani
C15 C -0.0306(2) -0.3859(2) 0.3988(2) 0.0449 Uani
C16 C 0.4242(2) 0.1311(3) 0.3690(2) 0.0452 Uani
H8 H 0.4135 0.1764 0.3975 0.0550 Uiso
C17 C 0.0265(2) -0.2448(3) 0.2700(2) 0.0497 Uani
H9 H -0.0218 -0.2487 0.2458 0.0590 Uiso
C18 C -0.1134(3) -0.4760(3) 0.4617(2) 0.0523 Uani
H10 H -0.1450 -0.5219 0.4611 0.0630 Uiso
C19 C 0.2600(2) 0.2709(2) 0.52759(19) 0.0420 Uani
H11 H 0.2983 0.3132 0.5212 0.0510 Uiso
H12 H 0.2094 0.2963 0.5258 0.0510 Uiso
C20 C 0.5389(2) 0.6848(3) 1.1766(2) 0.0468 Uani
C21 C 0.3570(2) 0.3950(2) 0.66881(19) 0.0365 Uani
C22 C 0.1823(2) 0.1468(3) 0.2391(2) 0.0499 Uani
H13 H 0.1413 0.1369 0.2055 0.0600 Uiso
C23 C 0.3759(2) 0.5493(2) 0.9727(2) 0.0425 Uani
C24 C 0.0769(2) -0.1839(3) 0.2525(2) 0.0478 Uani
H14 H 0.0628 -0.1474 0.2151 0.0580 Uiso
C25 C -0.0773(3) -0.4537(3) 0.3979(3) 0.0580 Uani
H15 H -0.0845 -0.4843 0.3550 0.0700 Uiso
C26 C 0.5705(2) 0.8054(3) 1.2435(2) 0.0492 Uani
H16 H 0.5590 0.8432 1.2796 0.0590 Uiso
C27 C 0.5208(2) 0.7413(3) 1.2298(2) 0.0515 Uani
H17 H 0.4759 0.7360 1.2559 0.0620 Uiso
C28 C 0.4657(3) 0.6382(3) 1.0378(2) 0.0568 Uani
H18 H 0.4989 0.6826 1.0373 0.0680 Uiso
C29 C -0.0191(3) -0.3415(3) 0.4626(2) 0.0540 Uani
H19 H 0.0131 -0.2962 0.4635 0.0650 Uiso
C30 C 0.5106(3) 0.0274(3) 0.3339(3) 0.0556 Uani
H20 H 0.5585 0.0017 0.3380 0.0660 Uiso
C31 C 0.4125(2) 0.3655(3) 0.6239(2) 0.0495 Uani
H21 H 0.4050 0.3164 0.5991 0.0590 Uiso
C32 C -0.1034(2) -0.4314(2) 0.5261(2) 0.0404 Uani
C33 C 0.1686(2) -0.2311(3) 0.3451(2) 0.0482 Uani
H22 H 0.2159 -0.2259 0.3710 0.0580 Uiso
C34 C 0.6535(2) 0.7577(3) 1.1514(2) 0.0529 Uani
H23 H 0.6977 0.7638 1.1244 0.0630 Uiso
C35 C 0.4532(2) -0.0009(3) 0.2848(3) 0.0488 Uani
H24 H 0.4636 -0.0456 0.2554 0.0580 Uiso
C36 C 0.1865(2) 0.2090(3) 0.2886(2) 0.0454 Uani
H25 H 0.1498 0.2494 0.2947 0.0540 Uiso
C37 C 0.1189(3) -0.2938(3) 0.3625(2) 0.0514 Uani
H26 H 0.1327 -0.3310 0.3993 0.0620 Uiso
C38 C 0.4797(3) 0.4096(3) 0.6160(3) 0.0615 Uani
H27 H 0.5175 0.3910 0.5852 0.0740 Uiso
C39 C 0.6055(3) 0.6916(3) 1.1377(3) 0.0535 Uani
H28 H 0.6178 0.6525 1.1030 0.0640 Uiso
C40 C 0.4040(3) 0.5328(3) 1.1029(3) 0.0613 Uani
H29 H 0.3960 0.5055 1.1469 0.0740 Uiso
C41 C -0.0560(3) -0.3649(3) 0.5257(2) 0.0507 Uani
H30 H -0.0484 -0.3347 0.5688 0.0610 Uiso
C42 C 0.4954(3) 0.0935(3) 0.3761(2) 0.0549 Uani
H31 H 0.5330 0.1133 0.4097 0.0660 Uiso
C43 C 0.1793(2) 0.3376(3) 0.7469(2) 0.0480 Uani
H32 H 0.1394 0.3460 0.7788 0.0580 Uiso
C44 C 0.4269(3) 0.6133(3) 0.9729(2) 0.0570 Uani
H33 H 0.4356 0.6404 0.9290 0.0680 Uiso
C45 C 0.4325(3) 0.5068(3) 0.6984(3) 0.0630 Uani
H34 H 0.4398 0.5548 0.7250 0.0760 Uiso
C46 C 0.4897(3) 0.4812(3) 0.6542(3) 0.0706 Uani
H35 H 0.5346 0.5117 0.6500 0.0850 Uiso
C47 C 0.3651(3) 0.5091(3) 1.0388(3) 0.0604 Uani
H36 H 0.3310 0.4654 1.0398 0.0720 Uiso
C48 C 0.6913(3) 0.8838(3) 1.2229(3) 0.0527 Uani
O9 O 0.67600(18) 0.93173(18) 1.2741(2) 0.0624 Uani
O11 O 0.7510(2) 0.8930(2) 1.1879(2) 0.0754 Uani
Zn1C Zn 0.77597(3) 0.99907(3) 1.27244(3) 0.0421 Uani
Zn2C Zn -0.20831(3) -0.49375(3) 0.70914(2) 0.0397 Uani
O1C O 0.31363(17) 0.01630(18) 0.09543(16) 0.0520 Uani
O3C O 0.36386(18) -0.09139(18) 0.15063(16) 0.0536 Uani
O9C O 0.17600(18) 0.56827(18) 0.7741(2) 0.0624 Uani
O11C O 0.2510(2) 0.6070(2) 0.6879(2) 0.0754 Uani
O10 O 0.1219(2) -0.0836(2) 0.0604(2) 0.0711 Uani
H38 H 0.154(6) -0.084(7) 0.093(5) 0.2810 Uiso
H39 H 0.112(6) -0.041(4) 0.040(6) 0.2810 Uiso
O12 O 0.4894(2) 0.2949(2) 0.4588(2) 0.0802 Uani
H37 H 0.528(4) 0.305(7) 0.437(6) 0.2810 Uiso
H50 H 0.453(4) 0.325(6) 0.454(7) 0.2810 Uiso
O13 O 0.6421(3) 0.3137(3) 0.4040(4) 0.1216 Uani
H51 H 0.658(4) 0.268(3) 0.412(7) 0.2810 Uiso
H52 H 0.665(6) 0.341(5) 0.375(6) 0.2810 Uiso
O14 O 0.3664(3) -0.0988(3) 0.4297(2) 0.0943 Uani
H41 H 0.394(6) -0.137(5) 0.421(7) 0.2810 Uiso
H42 H 0.327(4) -0.094(7) 0.406(6) 0.2810 Uiso
O15 O 0.1331(3) 0.5397(3) 0.9716(3) 0.0918 Uani
H45 H 0.125(8) 0.506(6) 1.003(6) 0.2810 Uiso
H46 H 0.165(6) 0.530(8) 0.942(6) 0.2810 Uiso
O16 O 0.5190(3) 0.8350(3) 1.4351(2) 0.0868 Uani
H44 H 0.549(6) 0.870(5) 1.448(7) 0.2810 Uiso
H47 H 0.514(7) 0.797(5) 1.462(6) 0.2810 Uiso
O17 O 0.2016(4) 0.3319(3) 0.9499(3) 0.1263 Uani
H48 H 0.227(7) 0.367(5) 0.932(6) 0.2810 Uiso
H49 H 0.182(7) 0.341(7) 0.988(4) 0.2810 Uiso
O18 O 0.1689(3) 0.0732(5) 0.0289(5) 0.1870 Uani
H40 H 0.181(7) 0.068(6) -0.013(2) 0.2810 Uiso
H43 H 0.204(5) 0.078(9) 0.060(4) 0.2810 Uiso
loop_
_atom_site_aniso_label
_atom_site_aniso_U_11
_atom_site_aniso_U_22
_atom_site_aniso_U_33
_atom_site_aniso_U_23
_atom_site_aniso_U_13
_atom_site_aniso_U_12
Zn1 0.0420(3) 0.0390(3) 0.0452(3) -0.01022(19) 0.00062(19) 0.0035(2)
Zn2 0.0439(3) 0.0384(3) 0.0374(2) -0.00985(18) 0.01040(19) -0.0073(2)
O1 0.0555(18) 0.0526(18) 0.0491(18) 0.0142(13) 0.0155(14) -0.0048(14)
N1 0.0368(17) 0.0356(17) 0.0322(16) -0.0078(12) 0.0022(13) 0.0019(13)
O2 0.081(2) 0.0576(19) 0.0421(16) -0.0054(14) 0.0281(15) -0.0302(16)
N2 0.0438(18) 0.0383(17) 0.0297(16) -0.0049(13) 0.0068(13) -0.0034(14)
O3 0.066(2) 0.0533(18) 0.0429(17) 0.0075(14) 0.0178(14) 0.0038(15)
O4 0.068(2) 0.0449(17) 0.0445(17) 0.0046(13) 0.0146(14) -0.0152(14)
N3 0.0384(18) 0.0361(17) 0.0389(18) 0.0001(13) 0.0080(13) -0.0012(14)
O5 0.072(2) 0.060(2) 0.0479(17) 0.0097(14) -0.0153(15) -0.0294(16)
C1 0.0330(19) 0.036(2) 0.0309(18) -0.0042(15) 0.0005(14) 0.0010(15)
O6 0.053(2) 0.065(2) 0.074(2) 0.0090(17) -0.0011(16) -0.0192(16)
O7 0.092(3) 0.051(2) 0.074(2) -0.0160(17) -0.0270(19) -0.0119(19)
C2 0.041(2) 0.042(2) 0.046(2) 0.0153(18) 0.0116(17) 0.0103(18)
C3 0.062(3) 0.039(2) 0.033(2) -0.0068(16) 0.0055(18) -0.0032(19)
C4 0.050(2) 0.0319(19) 0.0324(19) -0.0063(15) 0.0030(16) -0.0025(17)
N4 0.0387(19) 0.0397(18) 0.055(2) -0.0057(16) 0.0080(15) -0.0047(15)
O8 0.061(2) 0.084(2) 0.0452(18) -0.0097(17) -0.0051(15) 0.0101(17)
N5 0.0359(17) 0.0467(19) 0.0330(17) -0.0116(14) 0.0038(13) -0.0014(14)
C5 0.037(2) 0.0321(19) 0.0269(17) -0.0031(14) 0.0043(14) -0.0020(15)
C6 0.040(2) 0.050(2) 0.044(2) -0.0041(18) 0.0094(17) -0.0109(18)
N6 0.0364(17) 0.0399(18) 0.0354(17) -0.0084(13) 0.0034(13) -0.0023(14)
C7 0.049(2) 0.0312(19) 0.0298(18) -0.0027(14) 0.0056(16) -0.0005(16)
C8 0.038(2) 0.037(2) 0.0308(18) -0.0010(15) 0.0057(15) -0.0047(16)
C9 0.043(2) 0.036(2) 0.055(3) -0.0091(19) 0.0185(19) -0.0023(18)
C10 0.039(2) 0.039(2) 0.041(2) -0.0003(16) 0.0142(16) -0.0015(17)
C11 0.036(2) 0.040(2) 0.057(3) 0.0029(18) -0.0109(18) -0.0021(17)
C12 0.048(2) 0.048(2) 0.043(2) 0.0018(18) -0.0108(18) -0.0080(19)
C13 0.058(3) 0.045(2) 0.051(3) -0.015(2) -0.008(2) 0.020(2)
C14 0.052(3) 0.043(2) 0.044(2) -0.0074(18) 0.0239(19) -0.0093(19)
C15 0.050(2) 0.046(2) 0.040(2) 0.0008(17) 0.0169(18) -0.0052(19)
C16 0.043(2) 0.050(2) 0.042(2) -0.0096(18) -0.0035(17) 0.0012(19)
C17 0.040(2) 0.058(3) 0.052(2) 0.003(2) 0.0130(18) -0.008(2)
C18 0.064(3) 0.045(2) 0.049(3) 0.0036(19) 0.015(2) -0.018(2)
C19 0.055(2) 0.038(2) 0.033(2) -0.0030(16) 0.0028(17) 0.0053(18)
C20 0.041(2) 0.048(2) 0.050(2) 0.0100(19) -0.0145(19) -0.0087(19)
C21 0.037(2) 0.039(2) 0.0337(19) 0.0000(15) 0.0025(15) -0.0019(16)
C22 0.040(2) 0.064(3) 0.045(2) -0.012(2) -0.0055(18) 0.005(2)
C23 0.045(2) 0.039(2) 0.043(2) -0.0086(17) -0.0042(17) 0.0063(18)
C24 0.045(2) 0.045(2) 0.054(3) 0.0065(19) 0.0093(19) 0.0017(19)
C25 0.071(3) 0.054(3) 0.050(3) -0.004(2) 0.016(2) -0.026(2)
C26 0.041(2) 0.050(3) 0.056(3) -0.008(2) -0.0044(19) 0.0019(19)
C27 0.040(2) 0.065(3) 0.049(3) 0.003(2) -0.0054(19) -0.007(2)
C28 0.060(3) 0.060(3) 0.049(3) 0.011(2) -0.013(2) -0.020(2)
C29 0.070(3) 0.043(2) 0.051(3) -0.007(2) 0.025(2) -0.018(2)
C30 0.043(2) 0.065(3) 0.059(3) 0.001(2) 0.004(2) 0.011(2)
C31 0.042(2) 0.060(3) 0.047(2) -0.015(2) 0.0094(18) -0.009(2)
C32 0.044(2) 0.037(2) 0.041(2) 0.0088(16) 0.0116(17) 0.0061(17)
C33 0.043(2) 0.056(3) 0.046(2) 0.0019(19) 0.0078(18) -0.0057(19)
C34 0.036(2) 0.058(3) 0.065(3) -0.008(2) 0.0052(19) -0.0060(19)
C35 0.050(2) 0.046(2) 0.051(2) 0.0024(18) 0.0091(19) 0.014(2)
C36 0.043(2) 0.051(2) 0.042(2) -0.0073(18) -0.0020(17) 0.0106(19)
C37 0.063(3) 0.051(3) 0.041(2) 0.0107(19) 0.012(2) 0.001(2)
C38 0.046(3) 0.081(4) 0.059(3) -0.017(3) 0.019(2) -0.012(2)
C39 0.048(3) 0.047(3) 0.065(3) -0.010(2) -0.004(2) 0.000(2)
C40 0.080(3) 0.055(3) 0.048(3) 0.007(2) -0.008(2) -0.025(3)
C41 0.063(3) 0.049(3) 0.041(2) -0.0016(19) 0.013(2) -0.005(2)
C42 0.043(2) 0.074(3) 0.047(2) -0.006(2) -0.0058(19) 0.003(2)
C43 0.040(2) 0.061(3) 0.044(2) -0.011(2) 0.0130(18) -0.0071(19)
C44 0.063(3) 0.065(3) 0.042(2) 0.007(2) -0.009(2) -0.012(2)
C45 0.063(3) 0.050(3) 0.077(3) -0.016(2) 0.015(2) -0.019(2)
C46 0.061(3) 0.071(3) 0.082(4) -0.011(3) 0.028(3) -0.029(3)
C47 0.076(3) 0.045(3) 0.059(3) 0.000(2) -0.012(2) -0.020(2)
C48 0.050(3) 0.040(2) 0.067(3) 0.009(2) -0.012(2) -0.002(2)
O9 0.055(2) 0.0404(18) 0.091(3) -0.0127(17) -0.0063(17) -0.0033(14)
O11 0.060(2) 0.072(2) 0.095(3) -0.008(2) 0.011(2) -0.0230(18)
Zn1C 0.042 0.039 0.0452 0.01022 0.00062 -0.0035
Zn2C 0.0439 0.0384 0.0374 0.00985 0.0104 0.0073
O1C 0.0555 0.0526 0.0491 -0.0142 0.0155 0.0048
O3C 0.066 0.0533 0.0429 -0.0075 0.0178 -0.0038
O9C 0.055 0.0404 0.091 0.0127 -0.0063 0.0033
O11C 0.06 0.072 0.095 0.008 0.011 0.023
O10 0.066(2) 0.072(2) 0.075(2) -0.0145(18) -0.0002(18) 0.0066(18)
O12 0.081(3) 0.074(3) 0.085(3) -0.011(2) -0.003(2) 0.002(2)
O13 0.112(4) 0.107(4) 0.151(5) 0.042(3) 0.065(3) 0.039(3)
O14 0.081(3) 0.127(4) 0.075(3) 0.033(2) 0.003(2) 0.002(3)
O15 0.077(3) 0.090(3) 0.108(4) -0.033(3) -0.001(2) 0.001(2)
O16 0.087(3) 0.098(3) 0.076(3) -0.005(2) 0.012(2) 0.001(2)
O17 0.149(5) 0.095(4) 0.141(5) -0.040(3) 0.076(4) -0.041(3)
O18 0.112(5) 0.187(7) 0.257(8) 0.129(7) -0.051(5) -0.035(5)
loop_
_geom_bond_atom_site_label_1
_geom_bond_atom_site_label_2
_geom_bond_site_symmetry_1
_geom_bond_site_symmetry_2
Zn1 O7 1_555 1_555
Zn2 O4 1_555 1_555
O1 C2 1_555 1_555
N1 C4 1_555 1_555
O2 C14 1_555 1_555
N2 C1 1_555 1_555
O3 C2 1_555 1_555
O4 C9 1_555 1_555
N3 Zn2 1_555 1_555
O5 C12 1_555 1_555
C1 N5 1_555 1_555
O6 Zn2 1_555 1_555
O7 C13 1_555 1_555
C2 C32 1_555 1_555
C3 H1 1_555 1_555
H2 C3 1_555 1_555
C4 C3 1_555 1_555
H3 C4 1_555 1_555
H4 C4 1_555 1_555
N4 Zn1 1_555 1_555
O8 Zn1 1_555 1_555
N5 Zn1 1_555 1_555
C5 N1 1_555 1_555
C6 N2 1_555 1_555
H5 C6 1_555 1_555
N6 Zn2 1_555 1_555
C7 N2 1_555 1_555
H6 C7 1_555 1_555
H7 C7 1_555 1_555
C8 N3 1_555 1_555
C9 O6 1_555 1_555
C10 C9 1_555 1_555
C11 C26 1_555 1_555
C12 C28 1_555 1_555
C13 O8 1_555 1_555
C14 C17 1_555 1_555
C15 O2 1_555 1_555
C16 C8 1_555 1_555
H8 C16 1_555 1_555
C17 H9 1_555 1_555
C18 H10 1_555 1_555
C19 C3 1_555 1_555
H11 C19 1_555 1_555
H12 C19 1_555 1_555
C20 O5 1_555 1_555
C21 C1 1_555 1_555
C22 N6 1_555 1_555
H13 C22 1_555 1_555
C23 C13 1_555 1_555
C24 C10 1_555 1_555
H14 C24 1_555 1_555
C25 C15 1_555 1_555
H15 C25 1_555 1_555
C26 H16 1_555 1_555
C27 C20 1_555 1_555
H17 C27 1_555 1_555
C28 H18 1_555 1_555
C29 C15 1_555 1_555
H19 C29 1_555 1_555
C30 H20 1_555 1_555
C31 C21 1_555 1_555
H21 C31 1_555 1_555
C32 C18 1_555 1_555
C33 C10 1_555 1_555
H22 C33 1_555 1_555
C34 C11 1_555 1_555
H23 C34 1_555 1_555
C35 N3 1_555 1_555
H24 C35 1_555 1_555
C36 N1 1_555 1_555
H25 C36 1_555 1_555
C37 C14 1_555 1_555
H26 C37 1_555 1_555
C38 C31 1_555 1_555
H27 C38 1_555 1_555
C39 C20 1_555 1_555
H28 C39 1_555 1_555
C40 C12 1_555 1_555
H29 C40 1_555 1_555
C41 C29 1_555 1_555
H30 C41 1_555 1_555
C42 C16 1_555 1_555
H31 C42 1_555 1_555
C43 N5 1_555 1_555
H32 C43 1_555 1_555
C44 C23 1_555 1_555
H33 C44 1_555 1_555
C45 N4 1_555 1_555
H34 C45 1_555 1_555
C46 C38 1_555 1_555
H35 C46 1_555 1_555
C47 C23 1_555 1_555
H36 C47 1_555 1_555
C48 C11 1_555 1_555
O9 C48 1_555 1_555
O10 H38 1_555 1_555
O11 C48 1_555 1_555
O12 H37 1_555 1_555
O13 H51 1_555 1_555
O14 H41 1_555 1_555
O15 H45 1_555 1_555
O16 H44 1_555 1_555
O17 H48 1_555 1_555
O18 H40 1_555 1_555
H39 O10 1_555 1_555
H42 O14 1_555 1_555
H43 O18 1_555 1_555
H46 O15 1_555 1_555
H47 O16 1_555 1_555
H49 O17 1_555 1_555
H50 O12 1_555 1_555
H52 O13 1_555 1_555
Zn1C O9 1_555 1_555
Zn2C O1 1_555 1_555
O1C Zn2 1_555 1_555
O3C Zn2 1_555 1_555
O9C Zn1 1_555 1_555
O11C Zn1 1_555 1_555
O3 Zn2C 1_555 1_555
N4 C21 1_555 1_555
C5 N6 1_555 1_555
C5 C8 1_555 1_555
C6 C43 1_555 1_555
C7 C19 1_555 1_555
C17 C24 1_555 1_555
C18 C25 1_555 1_555
C22 C36 1_555 1_555
C26 C27 1_555 1_555
C28 C44 1_555 1_555
C30 C35 1_555 1_555
C30 C42 1_555 1_555
C32 C41 1_555 1_555
C33 C37 1_555 1_555
C34 C39 1_555 1_555
C40 C47 1_555 1_555
C45 C46 1_555 1_555
O11 Zn1C 1_555 1_555

#END
