
#######################################################################
#
#                 Cambridge Crystallographic Data Centre
#                                CCDC 
#
#######################################################################
#
# If this CIF has been generated from an entry in the Cambridge 
# Structural Database, then it will include bibliographic, chemical, 
# crystal, experimental, refinement or atomic coordinate data resulting 
# from the CCDC's data processing and validation procedures.
#
#######################################################################

data_ASOYOY
_chemical_formula_moiety         '(C58 H40 Cd2 N12 O8)n'
_symmetry_cell_setting           tetragonal
_symmetry_space_group_name_H-M   'I 41'
_symmetry_Int_Tables_number      80
_space_group_name_Hall           'I 4bw'
loop_
_symmetry_equiv_pos_site_id
_symmetry_equiv_pos_as_xyz
1 x,y,z
2 -y,1/2+x,1/4+z
3 1/2-x,1/2-y,1/2+z
4 1/2+y,-x,3/4+z
5 1/2+x,1/2+y,1/2+z
6 1/2-y,x,3/4+z
7 -x,-y,z
8 y,1/2-x,1/4+z
_cell_length_a                   22.261(3)
_cell_length_b                   22.261(3)
_cell_length_c                   32.920(7)
_cell_angle_alpha                90
_cell_angle_beta                 90
_cell_angle_gamma                90
_cell_volume                     16313.6
loop_
_atom_site_label
_atom_site_type_symbol
_atom_site_fract_x
_atom_site_fract_y
_atom_site_fract_z
Cd1 Cd 0.835899(16) 0.385535(18) 0.252449(12)
Cd2 Cd 0.336913(18) 0.36036(2) 0.104864(13)
O1 O 0.8749(2) 0.4173(2) 0.19016(13)
O2 O 0.8856(2) 0.3190(2) 0.18769(13)
O3 O 0.97486(19) 0.20676(18) 0.03006(13)
O4 O 0.89703(18) 0.20737(19) 0.07266(14)
O5 O 0.2954(2) 0.3836(2) 0.03860(15)
O6 O 0.3240(2) 0.4610(2) 0.07435(16)
N1 N 0.4248(2) 0.3457(3) 0.07339(18)
N2 N 0.5236(2) 0.3328(4) 0.06757(18)
N3 N 0.7465(2) 0.3828(2) 0.21344(13)
N4 N 0.6901(2) 0.3645(2) 0.15955(15)
N5 N 1.2566(2) 0.3873(2) 0.14521(17)
N6 N 1.1994(2) 0.3906(2) 0.20053(16)
N7 N 1.0256(2) 0.3920(3) 0.28872(18)
N8 N 1.1994(2) 0.2692(3) 0.32176(18)
N9 N 1.2685(2) 0.2075(3) 0.34555(17)
N10 N 0.9281(2) 0.4006(3) 0.28020(17)
C1 C 0.2237(3) 0.4755(3) -0.00877(18)
C2 C 0.3005(3) 0.4390(3) 0.0431(2)
C3 C 0.2788(3) 0.4811(3) 0.0099(2)
C4 C 0.2099(3) 0.5169(3) -0.0386(2)
H1 H 0.1740 0.5132 -0.0528
C5 C 0.3161(4) 0.5297(4) -0.0001(3)
H2 H 0.3531 0.5336 0.0128
C6 C 0.2990(5) 0.5727(4) -0.0290(3)
H3 H 0.3228 0.6060 -0.0344
C7 C 0.2487(5) 0.5642(4) -0.0480(3)
H4 H 0.2380 0.5906 -0.0686
C8 C 0.6990(2) 0.2939(3) 0.1029(2)
H5 H 0.7380 0.2845 0.1108
C9 C 0.7114(3) 0.4317(3) 0.2051(2)
H6 H 0.7116 0.4673 0.2199
C10 C 0.6737(3) 0.2661(4) 0.0692(2)
N11 N 0.7095(2) 0.2234(3) 0.04703(17)
C11 C 0.6664(2) 0.3352(3) 0.12476(19)
C12 C 0.6765(3) 0.4208(3) 0.1723(2)
H7 H 0.6486 0.4469 0.1608
C13 C 0.7316(2) 0.3428(3) 0.1852(2)
H8 H 0.7481 0.3045 0.1833
C14 C 0.6075(3) 0.3499(4) 0.1120(2)
H9 H 0.5854 0.3791 0.1256
C15 C 0.5838(3) 0.3206(4) 0.0793(2)
C16 C 0.6171(3) 0.2772(5) 0.0583(3)
H10 H 0.5998 0.2563 0.0368
C17 C 0.4781(3) 0.3425(4) 0.0915(2)
H11 H 0.4826 0.3469 0.1195
C18 C 0.9518(3) 0.2208(2) 0.0638(2)
C19 C 1.1983(3) 0.3325(3) 0.26126(19)
H12 H 1.2365 0.3185 0.2549
C20 C 1.0859(3) 0.3731(4) 0.28142(19)
C21 C 1.1139(3) 0.3321(3) 0.3059(2)
H13 H 1.0948 0.3175 0.3290
C22 C 0.9793(3) 0.3866(3) 0.26426(19)
H14 H 0.9830 0.3737 0.2375
C23 C 1.1134(3) 0.3943(3) 0.2462(2)
H15 H 1.0942 0.4224 0.2297
C24 C 1.1702(2) 0.3725(3) 0.23605(18)
C25 C 1.1700(3) 0.3129(4) 0.2962(2)
C26 C 0.1773(2) 0.4317(3) 0.00490(19)
C27 C 0.1656(3) 0.4289(3) 0.0463(2)
H16 H 0.1876 0.4539 0.0634
C28 C 0.8269(3) 0.4031(3) 0.1092(2)
H17 H 0.8027 0.4241 0.1273
C29 C 0.8769(3) 0.3716(2) 0.12466(17)
C30 C 0.8810(3) 0.3674(3) 0.17100(19)
C31 C 0.8127(3) 0.4044(3) 0.0700(2)
H18 H 0.7785 0.4241 0.0607
C32 C 0.9892(2) 0.2538(2) 0.09370(16)
C33 C 0.9151(2) 0.3414(2) 0.09814(18)
C34 C 0.9021(3) 0.3447(3) 0.05653(18)
H19 H 0.9279 0.3265 0.0380
C35 C 0.9716(2) 0.3086(2) 0.11095(17)
C36 C 0.8526(4) 0.3737(3) 0.0427(2)
H20 H 0.8444 0.3738 0.0150
C37 C 1.0438(3) 0.2292(3) 0.1048(2)
H21 H 1.0557 0.1928 0.0936
C38 C 1.2325(3) 0.4454(3) 0.1502(2)
H22 H 1.2401 0.4777 0.1331
C39 C 1.2337(3) 0.3563(3) 0.1756(2)
H23 H 1.2404 0.3155 0.1795
C40 C 0.1237(4) 0.3918(5) 0.0635(3)
H24 H 0.1177 0.3908 0.0915
C41 C 1.2564(3) 0.2510(3) 0.3208(2)
H25 H 1.2850 0.2681 0.3038
C42 C 0.0902(4) 0.3554(4) 0.0371(3)
H26 H 0.0616 0.3291 0.0475
C43 C 1.1981(3) 0.4475(3) 0.1823(2)
H27 H 1.1767 0.4807 0.1914
C44 C 1.0633(3) 0.3109(4) 0.1489(2)
H28 H 1.0885 0.3301 0.1673
C45 C 1.0804(3) 0.2571(4) 0.1317(3)
H29 H 1.1171 0.2399 0.1386
C46 C 1.0106(3) 0.3355(3) 0.13925(19)
H30 H 0.9994 0.3714 0.1515
C47 C 1.0014(4) 0.4060(6) 0.3255(3)
H31 H 1.0221 0.4126 0.3496
C48 C 0.5011(4) 0.3286(8) 0.0289(3)
H32 H 0.5214 0.3201 0.0049
C49 C 0.4379(4) 0.3405(7) 0.0349(3)
H33 H 0.4101 0.3440 0.0139
C50 C 0.9416(4) 0.4084(5) 0.3200(3)
H34 H 0.9136 0.4145 0.3406
C51 C 1.2155(5) 0.1940(5) 0.3625(3)
H35 H 1.2095 0.1636 0.3814
C52 C 1.1724(5) 0.2306(6) 0.3484(4)
H36 H 1.1319 0.2298 0.3554
N12 N 0.7872(2) 0.1786(3) 0.01968(15)
C53 C 0.1432(3) 0.3961(3) -0.0211(2)
C54 C 0.1529(4) 0.3916(3) -0.0664(2)
C55 C 0.7702(3) 0.2227(3) 0.0430(2)
H37 H 0.7961 0.2501 0.0552
C56 C 0.0997(3) 0.3583(3) -0.0053(3)
H38 H 0.0766 0.3347 -0.0226
C57 C 0.7385(3) 0.1471(4) 0.0096(3)
H39 H 0.7381 0.1113 -0.0050
C58 C 0.6895(3) 0.1760(5) 0.0243(3)
H40 H 0.6496 0.1656 0.0197
O7 O 0.2019(2) 0.3806(2) -0.08046(15)
O8 O 0.1068(3) 0.3927(2) -0.08829(16)
Cd1C Cd 0.885535(18) 0.164101(16) 0.002449(12)
Cd2_2 Cd 1.336913(18) 0.36036(2) 0.104864(13)
Cd2E Cd 0.13964(2) 0.336913(18) -0.145136(13)
Cd2G Cd 1.36036(2) 0.163087(18) 0.354864(13)
O3A O 0.79324(18) 0.47486(19) 0.28006(13)
O4A O 0.79263(19) 0.39703(18) 0.32266(14)
N5_2 N 0.2566(2) 0.3873(2) 0.14521(17)
N9E N 0.2925(3) 0.2685(2) 0.09555(17)
N12A N 0.8214(3) 0.2872(2) 0.26968(15)
O7G O 0.3806(2) 0.2981(2) 0.16954(15)
O8G O 0.3927(2) 0.3932(3) 0.16171(16)
loop_
_geom_bond_atom_site_label_1
_geom_bond_atom_site_label_2
_geom_bond_site_symmetry_1
_geom_bond_site_symmetry_2
Cd1 O1 1_555 1_555
Cd2 O5 1_555 1_555
O1 C30 1_555 1_555
O2 C30 1_555 1_555
O3 C18 1_555 1_555
O4 C18 1_555 1_555
O5 C2 1_555 1_555
O6 Cd2 1_555 1_555
N1 Cd2 1_555 1_555
N2 C15 1_555 1_555
N3 Cd1 1_555 1_555
N4 C11 1_555 1_555
N5 C38 1_555 1_555
N6 C24 1_555 1_555
N7 C20 1_555 1_555
N8 C25 1_555 1_555
N9 C41 1_555 1_555
N10 Cd1 1_555 1_555
C1 C3 1_555 1_555
C2 O6 1_555 1_555
C3 C2 1_555 1_555
C4 C1 1_555 1_555
H1 C4 1_555 1_555
C5 C3 1_555 1_555
H2 C5 1_555 1_555
C6 C5 1_555 1_555
H3 C6 1_555 1_555
C7 C4 1_555 1_555
H4 C7 1_555 1_555
C8 H5 1_555 1_555
C9 N3 1_555 1_555
H6 C9 1_555 1_555
C10 C8 1_555 1_555
N11 C10 1_555 1_555
C11 C8 1_555 1_555
C12 N4 1_555 1_555
H7 C12 1_555 1_555
C13 N3 1_555 1_555
H8 C13 1_555 1_555
C14 C11 1_555 1_555
H9 C14 1_555 1_555
C15 C14 1_555 1_555
C16 C10 1_555 1_555
H10 C16 1_555 1_555
C17 N1 1_555 1_555
H11 C17 1_555 1_555
C18 C32 1_555 1_555
C19 H12 1_555 1_555
C20 C21 1_555 1_555
C21 H13 1_555 1_555
C22 N7 1_555 1_555
H14 C22 1_555 1_555
C23 C20 1_555 1_555
H15 C23 1_555 1_555
C24 C19 1_555 1_555
C25 C19 1_555 1_555
C26 C1 1_555 1_555
C27 C26 1_555 1_555
H16 C27 1_555 1_555
C28 H17 1_555 1_555
C29 C28 1_555 1_555
C30 C29 1_555 1_555
C31 C28 1_555 1_555
H18 C31 1_555 1_555
C32 C35 1_555 1_555
C33 C29 1_555 1_555
C34 C33 1_555 1_555
H19 C34 1_555 1_555
C35 C33 1_555 1_555
C36 C31 1_555 1_555
H20 C36 1_555 1_555
C37 C32 1_555 1_555
H21 C37 1_555 1_555
C38 H22 1_555 1_555
C39 N5 1_555 1_555
H23 C39 1_555 1_555
C40 C27 1_555 1_555
H24 C40 1_555 1_555
C41 N8 1_555 1_555
H25 C41 1_555 1_555
C42 C40 1_555 1_555
H26 C42 1_555 1_555
C43 N6 1_555 1_555
H27 C43 1_555 1_555
C44 H28 1_555 1_555
C45 C37 1_555 1_555
H29 C45 1_555 1_555
C46 C35 1_555 1_555
H30 C46 1_555 1_555
C47 N7 1_555 1_555
H31 C47 1_555 1_555
C48 N2 1_555 1_555
H32 C48 1_555 1_555
C49 N1 1_555 1_555
H33 C49 1_555 1_555
C50 N10 1_555 1_555
H34 C50 1_555 1_555
C51 N9 1_555 1_555
H35 C51 1_555 1_555
C52 N8 1_555 1_555
H36 C52 1_555 1_555
N12 C55 1_555 1_555
C53 C26 1_555 1_555
C54 C53 1_555 1_555
C55 N11 1_555 1_555
H37 C55 1_555 1_555
C56 C42 1_555 1_555
H38 C56 1_555 1_555
C57 N12 1_555 1_555
H39 C57 1_555 1_555
C58 N11 1_555 1_555
H40 C58 1_555 1_555
O7 C54 1_555 1_555
O8 C54 1_555 1_555
Cd1C O3 1_555 1_555
Cd2_2 N5 1_555 1_555
Cd2E O7 1_555 1_555
Cd2G N9 1_555 1_555
O3A Cd1 1_555 1_555
O4A Cd1 1_555 1_555
N5_2 Cd2 1_555 1_555
N9E Cd2 1_555 1_555
N12A Cd1 1_555 1_555
O7G Cd2 1_555 1_555
O8G Cd2 1_555 1_555
O4 Cd1C 1_555 1_555
N2 C17 1_555 1_555
N4 C13 1_555 1_555
N6 C39 1_555 1_555
N10 C22 1_555 1_555
C6 C7 1_555 1_555
C9 C12 1_555 1_555
C15 C16 1_555 1_555
C21 C25 1_555 1_555
C23 C24 1_555 1_555
C34 C36 1_555 1_555
C38 C43 1_555 1_555
C44 C45 1_555 1_555
C44 C46 1_555 1_555
C47 C50 1_555 1_555
C48 C49 1_555 1_555
C51 C52 1_555 1_555
N12 Cd1C 1_555 1_555
C53 C56 1_555 1_555
C57 C58 1_555 1_555
O8 Cd2E 1_555 1_555

#END
