
#######################################################################
#
#                 Cambridge Crystallographic Data Centre
#                                CCDC 
#
#######################################################################
#
# If this CIF has been generated from an entry in the Cambridge 
# Structural Database, then it will include bibliographic, chemical, 
# crystal, experimental, refinement or atomic coordinate data resulting 
# from the CCDC's data processing and validation procedures.
#
#######################################################################

data_WIWHUG
_chemical_formula_moiety         '(C20 H20 Cu2 N4 O8)n'
_symmetry_cell_setting           monoclinic
_symmetry_space_group_name_H-M   'P 21'
_symmetry_Int_Tables_number      4
_space_group_name_Hall           'P 2yb'
loop_
_symmetry_equiv_pos_site_id
_symmetry_equiv_pos_as_xyz
1 x,y,z
2 -x,1/2+y,-z
_cell_length_a                   6.6444(9)
_cell_length_b                   24.942(3)
_cell_length_c                   7.9004(11)
_cell_angle_alpha                90
_cell_angle_beta                 91.713(2)
_cell_angle_gamma                90
_cell_volume                     1308.71
loop_
_atom_site_label
_atom_site_type_symbol
_atom_site_fract_x
_atom_site_fract_y
_atom_site_fract_z
Cu1 Cu 0.37176(10) 0.31133(2) 0.75362(8)
O1 O 0.5890(7) 0.34228(17) 0.5503(5)
N1 N 0.1963(7) 0.3763(2) 0.7160(5)
C1 C 0.2582(9) 0.4197(2) 0.6337(7)
H1 H 0.3886 0.4196 0.5876
Cu2 Cu 0.87093(10) 0.23275(2) 0.28449(8)
O2 O 0.7090(6) 0.26299(17) 0.4665(5)
N2 N -0.7042(8) 0.6660(2) 0.7343(6)
C2 C 0.1385(11) 0.4650(3) 0.6133(7)
H2 H 0.1857 0.4950 0.5518
O3 O 0.5122(6) 0.34934(17) -0.0548(5)
N3 N 0.9960(7) 0.3056(2) 0.2835(6)
C3 C -0.0492(10) 0.4662(2) 0.6827(7)
O4 O 0.6244(7) 0.27870(18) 0.0972(6)
N4 N 0.5038(8) 0.2402(2) 0.7761(6)
C4 C -0.1153(10) 0.4191(3) 0.7646(8)
H3 H -0.2454 0.4178 0.8111
O5 O 0.2056(6) 0.27210(18) 0.5824(5)
C5 C 0.0083(10) 0.3758(3) 0.7763(8)
H4 H -0.0391 0.3442 0.8287
O6 O 0.0756(7) 0.19193(17) 0.5368(5)
C6 C -0.1710(9) 0.5156(2) 0.6732(7)
H5 H -0.1240 0.5438 0.6039
O7 O 0.1327(6) 0.26898(17) 0.9555(5)
C7 C -0.3402(10) 0.5240(2) 0.7531(7)
H6 H -0.3889 0.4953 0.8193
O8 O 0.0585(6) 0.20123(17) 1.1287(5)
C8 C -0.4599(9) 0.5735(3) 0.7492(8)
C9 C -0.6566(10) 0.5745(2) 0.8103(8)
H7 H -0.7095 0.5433 0.8616
C10 C -0.7725(9) 0.6194(3) 0.7972(8)
H8 H -0.9072 0.6178 0.8340
C11 C -0.5167(9) 0.6665(2) 0.6791(7)
H9 H -0.4665 0.6989 0.6339
C12 C -0.3877(8) 0.6211(3) 0.6839(7)
H10 H -0.2549 0.6234 0.6432
C13 C 0.6996(8) 0.3142(3) 0.4630(7)
C14 C 0.8382(8) 0.3437(2) 0.3356(7)
H11 H 0.9059 0.3741 0.3971
C15 C 0.7143(9) 0.3667(2) 0.1894(7)
H12 H 0.8033 0.3896 0.1217
H13 H 0.6096 0.3902 0.2363
C16 C 0.6107(9) 0.3262(3) 0.0699(8)
C17 C 0.1936(9) 0.2216(2) 0.6096(7)
C18 C 0.3485(9) 0.1993(3) 0.7351(8)
H14 H 0.4158 0.1680 0.6815
C19 C 0.2513(9) 0.1798(2) 0.8991(7)
H15 H 0.1562 0.1505 0.8691
H16 H 0.3584 0.1643 0.9739
C20 C 0.1400(8) 0.2213(2) 0.9983(6)
H17 H 1.099(5) 0.297(2) 0.370(4)
H18 H 0.602(6) 0.229(3) 0.692(5)
H19 H 1.059(6) 0.303(2) 0.174(2)
H20 H 0.575(7) 0.239(3) 0.887(3)
Cu1_2 Cu 0.37176(10) 0.31133(2) -0.24638(8)
Cu2A Cu -0.87093(10) 0.73275(2) 0.71551(8)
Cu2_2 Cu -0.12907(10) 0.23275(2) 0.28449(8)
Cu2_3 Cu -0.12907(10) 0.23275(2) 1.28449(8)
N2A N 0.7042(8) 0.1660(2) 0.2657(6)
O3_2 O 0.5122(6) 0.34934(17) 0.9452(5)
O6_2 O 1.0756(7) 0.19193(17) 0.5368(5)
O8_2 O 1.0585(6) 0.20123(17) 0.1287(5)
loop_
_geom_bond_atom_site_label_1
_geom_bond_atom_site_label_2
_geom_bond_site_symmetry_1
_geom_bond_site_symmetry_2
Cu1 O1 1_555 1_555
O1 C13 1_555 1_555
N1 Cu1 1_555 1_555
C1 N1 1_555 1_555
H1 C1 1_555 1_555
Cu2 O2 1_555 1_555
O2 C13 1_555 1_555
N2 C10 1_555 1_555
C2 C1 1_555 1_555
H2 C2 1_555 1_555
O3 C16 1_555 1_555
N3 Cu2 1_555 1_555
C3 C2 1_555 1_555
O4 Cu2 1_555 1_555
N4 Cu1 1_555 1_555
C4 C3 1_555 1_555
H3 C4 1_555 1_555
O5 Cu1 1_555 1_555
C5 N1 1_555 1_555
H4 C5 1_555 1_555
O6 C17 1_555 1_555
C6 C3 1_555 1_555
H5 C6 1_555 1_555
O7 Cu1 1_555 1_555
C7 C6 1_555 1_555
H6 C7 1_555 1_555
O8 C20 1_555 1_555
C8 C7 1_555 1_555
C9 C8 1_555 1_555
H7 C9 1_555 1_555
C10 C9 1_555 1_555
H8 C10 1_555 1_555
C11 N2 1_555 1_555
H9 C11 1_555 1_555
C12 C8 1_555 1_555
H10 C12 1_555 1_555
C13 C14 1_555 1_555
C14 N3 1_555 1_555
H11 C14 1_555 1_555
C15 C14 1_555 1_555
H12 C15 1_555 1_555
H13 C15 1_555 1_555
C16 O4 1_555 1_555
C17 O5 1_555 1_555
C18 N4 1_555 1_555
H14 C18 1_555 1_555
C19 C18 1_555 1_555
H15 C19 1_555 1_555
H16 C19 1_555 1_555
C20 O7 1_555 1_555
H17 N3 1_555 1_555
H18 N4 1_555 1_555
H19 N3 1_555 1_555
H20 N4 1_555 1_555
Cu1_2 O3 1_555 1_555
Cu2A N2 1_555 1_555
Cu2_2 O6 1_555 1_555
Cu2_3 O8 1_555 1_555
N2A Cu2 1_555 1_555
O3_2 Cu1 1_555 1_555
O6_2 Cu2 1_555 1_555
O8_2 Cu2 1_555 1_555
C4 C5 1_555 1_555
C11 C12 1_555 1_555
C15 C16 1_555 1_555
C17 C18 1_555 1_555
C19 C20 1_555 1_555

#END
