
#######################################################################
#
#                 Cambridge Crystallographic Data Centre
#                                CCDC 
#
#######################################################################
#
# If this CIF has been generated from an entry in the Cambridge 
# Structural Database, then it will include bibliographic, chemical, 
# crystal, experimental, refinement or atomic coordinate data resulting 
# from the CCDC's data processing and validation procedures.
#
#######################################################################

data_FASHOX
_chemical_formula_moiety         '(C4 H18 N2 O29 P4 U5)n'
_symmetry_cell_setting           monoclinic
_symmetry_space_group_name_H-M   'P n'
_symmetry_Int_Tables_number      7
_space_group_name_Hall           'P -2yac'
loop_
_symmetry_equiv_pos_site_id
_symmetry_equiv_pos_as_xyz
1 x,y,z
2 1/2+x,-y,1/2+z
_cell_length_a                   9.3278(4)
_cell_length_b                   15.5529(7)
_cell_length_c                   9.6474(5)
_cell_angle_alpha                90
_cell_angle_beta                 93.266(1)
_cell_angle_gamma                90
_cell_volume                     1397.32
loop_
_atom_site_label
_atom_site_type_symbol
_atom_site_fract_x
_atom_site_fract_y
_atom_site_fract_z
U1 U 0.1420(1) 0.0170(1) 0.0290(1)
U2 U 0.2385(1) 0.0228(1) -0.3651(1)
U3 U 0.1337(1) 0.4892(1) 0.0013(1)
U4 U 0.2285(1) 0.4707(1) -0.3945(1)
U5 U -0.2834(1) 0.2512(1) -0.1888(1)
P1 P -0.5200(3) 0.4369(2) -0.1617(2)
P2 P -0.1214(3) 0.4739(2) -0.2250(3)
P3 P 0.4888(3) 0.0638(2) -0.1378(3)
P4 P -0.1136(3) 0.0300(2) -0.2008(2)
O1 O 0.3242(8) 0.0563(6) -0.1220(8)
O2 O 0.0497(8) 0.0425(6) -0.2165(8)
O3 O 0.0401(9) 0.4606(6) -0.2448(9)
O4 O -0.6860(8) 0.4445(6) -0.1463(8)
O5 O 0.1799(8) 0.5948(6) -0.0417(8)
O6 O 0.1823(8) -0.0896(5) -0.0125(9)
O7 O -0.5114(8) 0.4606(5) -0.3185(8)
O8 O -0.4421(8) 0.5047(5) -0.0720(8)
O9 O -0.1849(8) 0.5393(5) -0.3350(8)
O10 O -0.1190(7) 0.5175(5) -0.0798(7)
O11 O -0.1760(9) -0.0397(6) -0.3014(9)
O12 O 0.2372(8) 0.5806(6) -0.3603(9)
O13 O 0.2452(9) -0.0880(6) -0.3302(9)
O14 O 0.0817(7) 0.3828(6) 0.0349(8)
O15 O 0.5673(8) 0.0008(6) -0.0431(8)
O16 O 0.2160(8) 0.3600(5) -0.4240(8)
O17 O 0.0974(8) 0.1237(6) 0.0663(8)
O18 O -0.2030(8) 0.3914(6) -0.2311(8)
O19 O -0.1110(8) -0.0070(6) -0.0507(7)
O20 O -0.1934(8) 0.1126(5) -0.2171(8)
O21 O 0.4985(8) 0.0327(5) -0.2895(7)
O22 O 0.2329(9) 0.1328(5) -0.3961(8)
O23 O -0.4707(7) 0.3474(5) -0.1319(7)
O24 O 0.5374(7) 0.1538(5) -0.1165(7)
O25 O -0.2150(8) 0.2545(6) -0.0146(9)
O26 O -0.3525(8) 0.2482(6) -0.3612(8)
O27 O -0.0272(11) 0.2516(7) -0.2683(14)
U1A U -0.3580(1) -0.0170(1) -0.4710(1)
U1A_2 U 0.6420(1) -0.0170(1) -0.4710(1)
U2A U 0.7385(1) -0.0228(1) 0.1349(1)
U2A_2 U -0.2615(1) -0.0228(1) 0.1349(1)
U3_2 U -0.8663(1) 0.4892(1) 0.0013(1)
U3A U -0.3663(1) 0.5108(1) -0.4987(1)
U4_2 U -0.7715(1) 0.4707(1) -0.3945(1)
U4A U -0.2715(1) 0.5293(1) 0.1055(1)
U5_2 U 0.7166(1) 0.2512(1) -0.1888(1)
O4_2 O 0.3140(8) 0.4445(6) -0.1463(8)
O7A O -0.0114(8) 0.5394(5) 0.1815(8)
O7_2 O 0.4886(8) 0.4606(5) -0.3185(8)
O8A O 0.0579(8) 0.4953(5) -0.5720(8)
O9A O 0.3151(8) 0.4607(5) 0.1650(8)
O10A O 0.3810(7) 0.4825(5) -0.5798(7)
O11A O 0.3240(9) 0.0397(6) 0.1986(9)
O15A O 0.0673(8) -0.0008(6) -0.5431(8)
O19A O 0.3890(8) 0.0070(6) -0.5507(7)
O21A O -0.0015(8) -0.0327(5) 0.2105(7)
O24_2 O -0.4626(7) 0.1538(5) -0.1165(7)
N1 N 0.0417(18) 0.7718(12) -0.1950(17)
N2 N -0.2473(15) 0.7282(9) -0.2809(14)
C1 C -0.0705(16) 0.7591(11) -0.0958(15)
C2 C -0.1469(18) 0.7428(14) -0.3900(20)
C3 C -0.2116(16) 0.7850(11) -0.1592(15)
C4 C 0.0041(17) 0.7250(14) -0.3199(18)
O28 O 0.4280(40) 0.7310(30) 0.7750(40)
O29 O -0.0180(30) 0.1920(20) -0.5450(30)
loop_
_geom_bond_atom_site_label_1
_geom_bond_atom_site_label_2
_geom_bond_site_symmetry_1
_geom_bond_site_symmetry_2
U1 O1 1_555 1_555
U2 O1 1_555 1_555
U3 O3 1_555 1_555
U4 O3 1_555 1_555
U5 O18 1_555 1_555
P1 O4 1_555 1_555
P2 O3 1_555 1_555
P3 O1 1_555 1_555
P4 O2 1_555 1_555
O2 U1 1_555 1_555
O4 U3_2 1_555 1_555
O5 U3 1_555 1_555
O6 U1 1_555 1_555
O7 P1 1_555 1_555
O8 P1 1_555 1_555
O9 P2 1_555 1_555
O10 U3 1_555 1_555
O11 P4 1_555 1_555
O12 U4 1_555 1_555
O13 U2 1_555 1_555
O14 U3 1_555 1_555
O15 P3 1_555 1_555
O16 U4 1_555 1_555
O17 U1 1_555 1_555
O18 P2 1_555 1_555
O19 U1 1_555 1_555
O20 U5 1_555 1_555
O21 U2 1_555 1_555
O22 U2 1_555 1_555
O23 U5 1_555 1_555
O24 P3 1_555 1_555
O25 U5 1_555 1_555
O26 U5 1_555 1_555
O27 U5 1_555 1_555
N1 C1 1_555 1_555
N2 C2 1_555 1_555
C1 C3 1_555 1_555
C2 C4 1_555 1_555
C3 N2 1_555 1_555
C4 N1 1_555 1_555
U1A O11 1_555 1_555
U1A_2 O21 1_555 1_555
U2A O15 1_555 1_555
U2A_2 O19 1_555 1_555
U3A O7 1_555 1_555
U4_2 O4 1_555 1_555
U4A O8 1_555 1_555
U5_2 O24 1_555 1_555
O4_2 U3 1_555 1_555
O7A U3 1_555 1_555
O7_2 U4 1_555 1_555
O8A U4 1_555 1_555
O9A U3 1_555 1_555
O10A U4 1_555 1_555
O11A U1 1_555 1_555
O15A U2 1_555 1_555
O19A U2 1_555 1_555
O21A U1 1_555 1_555
O24_2 U5 1_555 1_555
U2 O2 1_555 1_555
U4 O4_2 1_555 1_555
P1 O23 1_555 1_555
P2 O10 1_555 1_555
P3 O21 1_555 1_555
P4 O19 1_555 1_555
P4 O20 1_555 1_555
O7 U4_2 1_555 1_555
O9 U3A 1_555 1_555
O10 U4A 1_555 1_555
U1A_2 O19A 1_555 1_555
U2A_2 O21A 1_555 1_555
U4A O7A 1_555 1_555

#END
