
#######################################################################
#
#                 Cambridge Crystallographic Data Centre
#                                CCDC 
#
#######################################################################
#
# If this CIF has been generated from an entry in the Cambridge 
# Structural Database, then it will include bibliographic, chemical, 
# crystal, experimental, refinement or atomic coordinate data resulting 
# from the CCDC's data processing and validation procedures.
#
#######################################################################

data_DOMGAO
_chemical_formula_moiety         'C72 O35 Zn18'
_symmetry_cell_setting           cubic
_symmetry_space_group_name_H-M   'F m -3 m'
_symmetry_Int_Tables_number      225
_space_group_name_Hall           '-F 4 2 3'
loop_
_symmetry_equiv_pos_site_id
_symmetry_equiv_pos_as_xyz
1 x,y,z
2 z,x,y
3 y,z,x
4 y,x,-z
5 y,-x,z
6 -y,x,z
7 x,z,-y
8 -x,z,y
9 x,-z,y
10 z,y,-x
11 z,-y,x
12 -z,y,x
13 x,1/2+y,1/2+z
14 z,1/2+x,1/2+y
15 y,1/2+z,1/2+x
16 y,1/2+x,1/2-z
17 y,1/2-x,1/2+z
18 -y,1/2+x,1/2+z
19 x,1/2+z,1/2-y
20 -x,1/2+z,1/2+y
21 x,1/2-z,1/2+y
22 z,1/2+y,1/2-x
23 z,1/2-y,1/2+x
24 -z,1/2+y,1/2+x
25 1/2+x,y,1/2+z
26 1/2+z,x,1/2+y
27 1/2+y,z,1/2+x
28 1/2+y,x,1/2-z
29 1/2+y,-x,1/2+z
30 1/2-y,x,1/2+z
31 1/2+x,z,1/2-y
32 1/2-x,z,1/2+y
33 1/2+x,-z,1/2+y
34 1/2+z,y,1/2-x
35 1/2+z,-y,1/2+x
36 1/2-z,y,1/2+x
37 1/2+x,1/2+y,z
38 1/2+z,1/2+x,y
39 1/2+y,1/2+z,x
40 1/2+y,1/2+x,-z
41 1/2+y,1/2-x,z
42 1/2-y,1/2+x,z
43 1/2+x,1/2+z,-y
44 1/2-x,1/2+z,y
45 1/2+x,1/2-z,y
46 1/2+z,1/2+y,-x
47 1/2+z,1/2-y,x
48 1/2-z,1/2+y,x
49 -x,-y,z
50 -x,y,-z
51 x,-y,-z
52 z,-x,-y
53 -z,-x,y
54 -z,x,-y
55 -y,z,-x
56 y,-z,-x
57 -y,-z,x
58 -y,-x,-z
59 -x,-z,-y
60 -z,-y,-x
61 -x,1/2-y,1/2+z
62 -x,1/2+y,1/2-z
63 x,1/2-y,1/2-z
64 z,1/2-x,1/2-y
65 -z,1/2-x,1/2+y
66 -z,1/2+x,1/2-y
67 -y,1/2+z,1/2-x
68 y,1/2-z,1/2-x
69 -y,1/2-z,1/2+x
70 -y,1/2-x,1/2-z
71 -x,1/2-z,1/2-y
72 -z,1/2-y,1/2-x
73 1/2-x,-y,1/2+z
74 1/2-x,y,1/2-z
75 1/2+x,-y,1/2-z
76 1/2+z,-x,1/2-y
77 1/2-z,-x,1/2+y
78 1/2-z,x,1/2-y
79 1/2-y,z,1/2-x
80 1/2+y,-z,1/2-x
81 1/2-y,-z,1/2+x
82 1/2-y,-x,1/2-z
83 1/2-x,-z,1/2-y
84 1/2-z,-y,1/2-x
85 1/2-x,1/2-y,z
86 1/2-x,1/2+y,-z
87 1/2+x,1/2-y,-z
88 1/2+z,1/2-x,-y
89 1/2-z,1/2-x,y
90 1/2-z,1/2+x,-y
91 1/2-y,1/2+z,-x
92 1/2+y,1/2-z,-x
93 1/2-y,1/2-z,x
94 1/2-y,1/2-x,-z
95 1/2-x,1/2-z,-y
96 1/2-z,1/2-y,-x
97 -x,-y,-z
98 -z,-x,-y
99 -y,-z,-x
100 -y,-x,z
101 -y,x,-z
102 y,-x,-z
103 -x,-z,y
104 x,-z,-y
105 -x,z,-y
106 -z,-y,x
107 -z,y,-x
108 z,-y,-x
109 -x,1/2-y,1/2-z
110 -z,1/2-x,1/2-y
111 -y,1/2-z,1/2-x
112 -y,1/2-x,1/2+z
113 -y,1/2+x,1/2-z
114 y,1/2-x,1/2-z
115 -x,1/2-z,1/2+y
116 x,1/2-z,1/2-y
117 -x,1/2+z,1/2-y
118 -z,1/2-y,1/2+x
119 -z,1/2+y,1/2-x
120 z,1/2-y,1/2-x
121 1/2-x,-y,1/2-z
122 1/2-z,-x,1/2-y
123 1/2-y,-z,1/2-x
124 1/2-y,-x,1/2+z
125 1/2-y,x,1/2-z
126 1/2+y,-x,1/2-z
127 1/2-x,-z,1/2+y
128 1/2+x,-z,1/2-y
129 1/2-x,z,1/2-y
130 1/2-z,-y,1/2+x
131 1/2-z,y,1/2-x
132 1/2+z,-y,1/2-x
133 1/2-x,1/2-y,-z
134 1/2-z,1/2-x,-y
135 1/2-y,1/2-z,-x
136 1/2-y,1/2-x,z
137 1/2-y,1/2+x,-z
138 1/2+y,1/2-x,-z
139 1/2-x,1/2-z,y
140 1/2+x,1/2-z,-y
141 1/2-x,1/2+z,-y
142 1/2-z,1/2-y,x
143 1/2-z,1/2+y,-x
144 1/2+z,1/2-y,-x
145 x,y,-z
146 x,-y,z
147 -x,y,z
148 -z,x,y
149 z,x,-y
150 z,-x,y
151 y,-z,x
152 -y,z,x
153 y,z,-x
154 y,x,z
155 x,z,y
156 z,y,x
157 x,1/2+y,1/2-z
158 x,1/2-y,1/2+z
159 -x,1/2+y,1/2+z
160 -z,1/2+x,1/2+y
161 z,1/2+x,1/2-y
162 z,1/2-x,1/2+y
163 y,1/2-z,1/2+x
164 -y,1/2+z,1/2+x
165 y,1/2+z,1/2-x
166 y,1/2+x,1/2+z
167 x,1/2+z,1/2+y
168 z,1/2+y,1/2+x
169 1/2+x,y,1/2-z
170 1/2+x,-y,1/2+z
171 1/2-x,y,1/2+z
172 1/2-z,x,1/2+y
173 1/2+z,x,1/2-y
174 1/2+z,-x,1/2+y
175 1/2+y,-z,1/2+x
176 1/2-y,z,1/2+x
177 1/2+y,z,1/2-x
178 1/2+y,x,1/2+z
179 1/2+x,z,1/2+y
180 1/2+z,y,1/2+x
181 1/2+x,1/2+y,-z
182 1/2+x,1/2-y,z
183 1/2-x,1/2+y,z
184 1/2-z,1/2+x,y
185 1/2+z,1/2+x,-y
186 1/2+z,1/2-x,y
187 1/2+y,1/2-z,x
188 1/2-y,1/2+z,x
189 1/2+y,1/2+z,-x
190 1/2+y,1/2+x,z
191 1/2+x,1/2+z,y
192 1/2+z,1/2+y,x
_cell_length_a                   25.7262(10)
_cell_length_b                   25.7262(10)
_cell_length_c                   25.7262(10)
_cell_angle_alpha                90
_cell_angle_beta                 90
_cell_angle_gamma                90
_cell_volume                     17026.6
loop_
_atom_site_label
_atom_site_type_symbol
_atom_site_fract_x
_atom_site_fract_y
_atom_site_fract_z
Zn1 Zn 0.293410(16) 0.206590(16) 0.206590(16)
C1 C 0.2500 0.2500 0.1113(2)
C2 C 0.2500 0.2500 0.0539(2)
C3 C 0.2898(5) 0.2267(5) 0.0266(2)
O1 O 0.2500 0.2500 0.2500
O2 O 0.28086(10) 0.21914(10) 0.13378(12)
Zn1B Zn 0.206590(16) 0.206590(16) 0.293410(16)
Zn1A Zn 0.206590(16) 0.293410(16) 0.206590(16)
Zn1KD Zn 0.293410(16) 0.293410(16) 0.293410(16)
Zn1F Zn 0.293410(16) 0.206590(16) -0.206590(16)
Zn1C Zn 0.206590(16) 0.293410(16) -0.206590(16)
Zn1H Zn 0.293410(16) -0.206590(16) 0.206590(16)
Zn1J Zn 0.206590(16) -0.206590(16) 0.293410(16)
Zn1G Zn 0.706590(16) 0.206590(16) 0.206590(16)
Zn1AA Zn 0.706590(16) 0.293410(16) 0.293410(16)
Zn1K Zn -0.206590(16) 0.206590(16) 0.293410(16)
Zn1E Zn -0.206590(16) 0.293410(16) 0.206590(16)
Zn1I Zn 0.206590(16) 0.206590(16) 0.706590(16)
Zn1T Zn 0.293410(16) 0.293410(16) 0.706590(16)
Zn1D Zn 0.206590(16) 0.706590(16) 0.206590(16)
Zn1R Zn 0.293410(16) 0.706590(16) 0.293410(16)
Zn1I_2 Zn 0.206590(16) 0.206590(16) -0.293410(16)
Zn1T_2 Zn 0.293410(16) 0.293410(16) -0.293410(16)
C1C C 0.2500 0.2500 -0.1113(2)
C1B C 0.2500 0.1113(2) 0.2500
C1H C 0.2500 -0.1113(2) 0.2500
C1ZD C 0.3887(2) 0.2500 0.2500
C1GA C 0.6113(2) 0.2500 0.2500
C1A C 0.1113(2) 0.2500 0.2500
C1K C -0.1113(2) 0.2500 0.2500
C1ID C 0.2500 0.2500 0.3887(2)
C1P C 0.2500 0.2500 0.6113(2)
C1KD C 0.2500 0.3887(2) 0.2500
C1R C 0.2500 0.6113(2) 0.2500
C2C C 0.2500 0.2500 -0.0539(2)
C2B C 0.2500 0.0539(2) 0.2500
C2H C 0.2500 -0.0539(2) 0.2500
C2ZD C 0.4461(2) 0.2500 0.2500
C2GA C 0.5539(2) 0.2500 0.2500
C2A C 0.0539(2) 0.2500 0.2500
C2K C -0.0539(2) 0.2500 0.2500
C2ID C 0.2500 0.2500 0.4461(2)
C2P C 0.2500 0.2500 0.5539(2)
C2KD C 0.2500 0.4461(2) 0.2500
C2R C 0.2500 0.5539(2) 0.2500
C3NE C 0.2898(5) 0.2267(5) -0.0266(2)
C3C C 0.2267(5) 0.2898(5) -0.0266(2)
C3WE C 0.2267(5) 0.2898(5) 0.0266(2)
C3EE C 0.2733(5) 0.2102(5) 0.0266(2)
C3OC C 0.2733(5) 0.2102(5) -0.0266(2)
C3BE C 0.2102(5) 0.2733(5) -0.0266(2)
C3FC C 0.2102(5) 0.2733(5) 0.0266(2)
C3XE C 0.2898(5) 0.0266(2) 0.2267(5)
C3H C 0.2898(5) -0.0266(2) 0.2267(5)
C3TE C 0.2267(5) -0.0266(2) 0.2898(5)
C3B C 0.2267(5) 0.0266(2) 0.2898(5)
C3ZB C 0.2733(5) 0.0266(2) 0.2102(5)
C3RD C 0.2733(5) -0.0266(2) 0.2102(5)
C3DC C 0.2102(5) -0.0266(2) 0.2733(5)
C3XD C 0.2102(5) 0.0266(2) 0.2733(5)
C3ZD C 0.4734(2) 0.2267(5) 0.2102(5)
C3GA C 0.5266(2) 0.2267(5) 0.2102(5)
C3PF C 0.5266(2) 0.2898(5) 0.2733(5)
C3YB C 0.4734(2) 0.2898(5) 0.2733(5)
C3JC C 0.4734(2) 0.2102(5) 0.2267(5)
C3CG C 0.5266(2) 0.2102(5) 0.2267(5)
C3TA C 0.5266(2) 0.2733(5) 0.2898(5)
C3KE C 0.4734(2) 0.2733(5) 0.2898(5)
C3YE C 0.0266(2) 0.2267(5) 0.2898(5)
C3K C -0.0266(2) 0.2267(5) 0.2898(5)
C3QE C -0.0266(2) 0.2898(5) 0.2267(5)
C3A C 0.0266(2) 0.2898(5) 0.2267(5)
C3KB C 0.0266(2) 0.2102(5) 0.2733(5)
C3ED C -0.0266(2) 0.2102(5) 0.2733(5)
C3SB C -0.0266(2) 0.2733(5) 0.2102(5)
C3OD C 0.0266(2) 0.2733(5) 0.2102(5)
C3ID C 0.2267(5) 0.2102(5) 0.4734(2)
C3P C 0.2267(5) 0.2102(5) 0.5266(2)
C3AF C 0.2898(5) 0.2733(5) 0.5266(2)
C3JB C 0.2898(5) 0.2733(5) 0.4734(2)
C3UB C 0.2102(5) 0.2267(5) 0.4734(2)
C3NF C 0.2102(5) 0.2267(5) 0.5266(2)
C3CA C 0.2733(5) 0.2898(5) 0.5266(2)
C3TD C 0.2733(5) 0.2898(5) 0.4734(2)
C3HE C 0.2102(5) 0.4734(2) 0.2267(5)
C3QA C 0.2102(5) 0.5266(2) 0.2267(5)
C3EG C 0.2733(5) 0.5266(2) 0.2898(5)
C3NC C 0.2733(5) 0.4734(2) 0.2898(5)
C3OB C 0.2267(5) 0.4734(2) 0.2102(5)
C3HF C 0.2267(5) 0.5266(2) 0.2102(5)
C3R C 0.2898(5) 0.5266(2) 0.2733(5)
C3KD C 0.2898(5) 0.4734(2) 0.2733(5)
O1C O 0.2500 0.2500 -0.2500
O1D O 0.2500 -0.2500 0.2500
O2NE O 0.28086(10) 0.21914(10) -0.13378(12)
O2C O 0.21914(10) 0.28086(10) -0.13378(12)
O2WE O 0.21914(10) 0.28086(10) 0.13378(12)
O2XE O 0.28086(10) 0.13378(12) 0.21914(10)
O2H O 0.28086(10) -0.13378(12) 0.21914(10)
O2TE O 0.21914(10) -0.13378(12) 0.28086(10)
O2B O 0.21914(10) 0.13378(12) 0.28086(10)
O2ZD O 0.36622(12) 0.21914(10) 0.21914(10)
O2GA O 0.63378(12) 0.21914(10) 0.21914(10)
O2TA O 0.63378(12) 0.28086(10) 0.28086(10)
O2KE O 0.36622(12) 0.28086(10) 0.28086(10)
O2YE O 0.13378(12) 0.21914(10) 0.28086(10)
O2K O -0.13378(12) 0.21914(10) 0.28086(10)
O2QE O -0.13378(12) 0.28086(10) 0.21914(10)
O2A O 0.13378(12) 0.28086(10) 0.21914(10)
O2ID O 0.21914(10) 0.21914(10) 0.36622(12)
O2P O 0.21914(10) 0.21914(10) 0.63378(12)
O2CA O 0.28086(10) 0.28086(10) 0.63378(12)
O2TD O 0.28086(10) 0.28086(10) 0.36622(12)
O2HE O 0.21914(10) 0.36622(12) 0.21914(10)
O2QA O 0.21914(10) 0.63378(12) 0.21914(10)
O2R O 0.28086(10) 0.63378(12) 0.28086(10)
O2KD O 0.28086(10) 0.36622(12) 0.28086(10)
O2F O 0.28086(10) 0.13378(12) -0.21914(10)
O2IA O 0.36622(12) 0.21914(10) -0.21914(10)
O2V O 0.13378(12) 0.28086(10) -0.21914(10)
O2FF O 0.21914(10) 0.36622(12) -0.21914(10)
O2OA O 0.28086(10) -0.21914(10) 0.13378(12)
O2AG O 0.36622(12) -0.21914(10) 0.21914(10)
O2J O 0.13378(12) -0.21914(10) 0.28086(10)
O2O O 0.21914(10) -0.21914(10) 0.36622(12)
loop_
_geom_bond_atom_site_label_1
_geom_bond_atom_site_label_2
_geom_bond_site_symmetry_1
_geom_bond_site_symmetry_2
Zn1 O1 1_555 1_555
C1 C2 1_555 1_555
C2 C3 1_555 1_555
C3 C3NE 1_555 1_555
O1 Zn1B 1_555 1_555
O2 Zn1 1_555 1_555
Zn1B O2B 1_555 1_555
Zn1A O1 1_555 1_555
Zn1KD O1 1_555 1_555
Zn1F O1C 1_555 1_555
Zn1C O1C 1_555 1_555
Zn1H O1D 1_555 1_555
Zn1J O1D 1_555 1_555
Zn1G O2GA 1_555 1_555
Zn1AA O2TA 1_555 1_555
Zn1K O2K 1_555 1_555
Zn1E O2QE 1_555 1_555
Zn1I O2P 1_555 1_555
Zn1T O2CA 1_555 1_555
Zn1D O2QA 1_555 1_555
Zn1R O2R 1_555 1_555
Zn1I_2 O1C 1_555 1_555
Zn1T_2 O1C 1_555 1_555
C1C C2C 1_555 1_555
C1B C2B 1_555 1_555
C1H C2H 1_555 1_555
C1ZD C2ZD 1_555 1_555
C1GA C2GA 1_555 1_555
C1A C2A 1_555 1_555
C1K C2K 1_555 1_555
C1ID C2ID 1_555 1_555
C1P C2P 1_555 1_555
C1KD C2KD 1_555 1_555
C1R C2R 1_555 1_555
C2C C3NE 1_555 1_555
C2B C3XE 1_555 1_555
C2H C3H 1_555 1_555
C2ZD C3ZD 1_555 1_555
C2GA C3GA 1_555 1_555
C2A C3YE 1_555 1_555
C2K C3K 1_555 1_555
C2ID C3ID 1_555 1_555
C2P C3P 1_555 1_555
C2KD C3HE 1_555 1_555
C2R C3QA 1_555 1_555
C3NE C3EE 1_555 1_555
C3C C2C 1_555 1_555
C3WE C2 1_555 1_555
C3EE C2 1_555 1_555
C3OC C3 1_555 1_555
C3BE C2C 1_555 1_555
C3FC C2 1_555 1_555
C3XE C3H 1_555 1_555
C3H C3ZB 1_555 1_555
C3TE C2H 1_555 1_555
C3B C2B 1_555 1_555
C3ZB C2B 1_555 1_555
C3RD C2H 1_555 1_555
C3DC C2H 1_555 1_555
C3XD C2B 1_555 1_555
C3ZD C3GA 1_555 1_555
C3GA C3JC 1_555 1_555
C3PF C2GA 1_555 1_555
C3YB C2ZD 1_555 1_555
C3JC C2ZD 1_555 1_555
C3CG C2GA 1_555 1_555
C3TA C2GA 1_555 1_555
C3KE C2ZD 1_555 1_555
C3YE C3K 1_555 1_555
C3K C3KB 1_555 1_555
C3QE C2K 1_555 1_555
C3A C2A 1_555 1_555
C3KB C2A 1_555 1_555
C3ED C2K 1_555 1_555
C3SB C2K 1_555 1_555
C3OD C2A 1_555 1_555
C3ID C3P 1_555 1_555
C3P C3UB 1_555 1_555
C3AF C2P 1_555 1_555
C3JB C2ID 1_555 1_555
C3UB C2ID 1_555 1_555
C3NF C2P 1_555 1_555
C3CA C2P 1_555 1_555
C3TD C2ID 1_555 1_555
C3HE C3QA 1_555 1_555
C3QA C3OB 1_555 1_555
C3EG C2R 1_555 1_555
C3NC C2KD 1_555 1_555
C3OB C2KD 1_555 1_555
C3HF C2R 1_555 1_555
C3R C2R 1_555 1_555
C3KD C2KD 1_555 1_555
O2NE Zn1F 1_555 1_555
O2C Zn1C 1_555 1_555
O2WE C1 1_555 1_555
O2XE Zn1 1_555 1_555
O2H Zn1H 1_555 1_555
O2TE Zn1J 1_555 1_555
O2B C1B 1_555 1_555
O2ZD Zn1 1_555 1_555
O2GA C1GA 1_555 1_555
O2TA C1GA 1_555 1_555
O2KE Zn1KD 1_555 1_555
O2YE Zn1B 1_555 1_555
O2K C1K 1_555 1_555
O2QE C1K 1_555 1_555
O2A Zn1A 1_555 1_555
O2ID Zn1B 1_555 1_555
O2P C1P 1_555 1_555
O2CA C1P 1_555 1_555
O2TD Zn1KD 1_555 1_555
O2HE Zn1A 1_555 1_555
O2QA C1R 1_555 1_555
O2R C1R 1_555 1_555
O2KD Zn1KD 1_555 1_555
O2F Zn1F 1_555 1_555
O2IA Zn1F 1_555 1_555
O2V Zn1C 1_555 1_555
O2FF Zn1C 1_555 1_555
O2OA Zn1H 1_555 1_555
O2AG Zn1H 1_555 1_555
O2J Zn1J 1_555 1_555
O2O Zn1J 1_555 1_555
C1 O2 1_555 1_555
C3 C3EE 1_555 1_555
Zn1A O2WE 1_555 1_555
C1C O2NE 1_555 1_555
C1C O2C 1_555 1_555
C1B O2XE 1_555 1_555
C1H O2H 1_555 1_555
C1H O2TE 1_555 1_555
C1ZD O2ZD 1_555 1_555
C1ZD O2KE 1_555 1_555
C1A O2YE 1_555 1_555
C1A O2A 1_555 1_555
C1ID O2ID 1_555 1_555
C1ID O2TD 1_555 1_555
C1KD O2HE 1_555 1_555
C1KD O2KD 1_555 1_555
C2C C3OC 1_555 1_555
C3NE C3OC 1_555 1_555
C3C C3WE 1_555 1_555
C3C C3BE 1_555 1_555
C3C C3FC 1_555 1_555
C3WE C3BE 1_555 1_555
C3WE C3FC 1_555 1_555
C3EE C3OC 1_555 1_555
C3BE C3FC 1_555 1_555
C3XE C3ZB 1_555 1_555
C3XE C3RD 1_555 1_555
C3H C3RD 1_555 1_555
C3TE C3B 1_555 1_555
C3TE C3DC 1_555 1_555
C3TE C3XD 1_555 1_555
C3B C3DC 1_555 1_555
C3B C3XD 1_555 1_555
C3ZB C3RD 1_555 1_555
C3DC C3XD 1_555 1_555
C3ZD C3JC 1_555 1_555
C3ZD C3CG 1_555 1_555
C3GA C3CG 1_555 1_555
C3PF C3YB 1_555 1_555
C3PF C3TA 1_555 1_555
C3PF C3KE 1_555 1_555
C3YB C3TA 1_555 1_555
C3YB C3KE 1_555 1_555
C3JC C3CG 1_555 1_555
C3TA C3KE 1_555 1_555
C3YE C3KB 1_555 1_555
C3YE C3ED 1_555 1_555
C3K C3ED 1_555 1_555
C3QE C3A 1_555 1_555
C3QE C3SB 1_555 1_555
C3QE C3OD 1_555 1_555
C3A C3SB 1_555 1_555
C3A C3OD 1_555 1_555
C3KB C3ED 1_555 1_555
C3SB C3OD 1_555 1_555
C3ID C3UB 1_555 1_555
C3ID C3NF 1_555 1_555
C3P C3NF 1_555 1_555
C3AF C3JB 1_555 1_555
C3AF C3CA 1_555 1_555
C3AF C3TD 1_555 1_555
C3JB C3CA 1_555 1_555
C3JB C3TD 1_555 1_555
C3UB C3NF 1_555 1_555
C3CA C3TD 1_555 1_555
C3HE C3OB 1_555 1_555
C3HE C3HF 1_555 1_555
C3QA C3HF 1_555 1_555
C3EG C3NC 1_555 1_555
C3EG C3R 1_555 1_555
C3EG C3KD 1_555 1_555
C3NC C3R 1_555 1_555
C3NC C3KD 1_555 1_555
C3OB C3HF 1_555 1_555
C3R C3KD 1_555 1_555

#END
