
#######################################################################
#
#                 Cambridge Crystallographic Data Centre
#                                CCDC 
#
#######################################################################
#
# If this CIF has been generated from an entry in the Cambridge 
# Structural Database, then it will include bibliographic, chemical, 
# crystal, experimental, refinement or atomic coordinate data resulting 
# from the CCDC's data processing and validation procedures.
#
#######################################################################

data_PECLEP
_chemical_formula_moiety         '(C42 H50 Co3 N26 O8)n'
_symmetry_cell_setting           monoclinic
_symmetry_space_group_name_H-M   'P 21/c'
_symmetry_Int_Tables_number      14
_space_group_name_Hall           '-P 2ybc'
loop_
_symmetry_equiv_pos_site_id
_symmetry_equiv_pos_as_xyz
1 x,y,z
2 -x,1/2+y,1/2-z
3 -x,-y,-z
4 x,1/2-y,1/2+z
_cell_length_a                   13.5054(2)
_cell_length_b                   19.8150(3)
_cell_length_c                   11.6353(2)
_cell_angle_alpha                90
_cell_angle_beta                 96.5779(7)
_cell_angle_gamma                90
_cell_volume                     3093.22
loop_
_atom_site_label
_atom_site_type_symbol
_atom_site_fract_x
_atom_site_fract_y
_atom_site_fract_z
Co1 Co 0.42731(3) 0.214970(18) 0.31493(3)
Co2 Co 0.5000 0.0000 0.0000
O1 O 0.9176(3) 0.1368(3) 0.3330(5)
H1 H 0.8833 0.1256 0.3836
O4 O 0.9307(3) 0.3148(3) 0.3033(5)
H4 H 0.9697 0.3281 0.2592
O5 O 1.0219(3) 0.0085(2) 0.1538(4)
H5 H 1.0829 0.0068 0.1578
N1 N 0.45955(19) 0.21140(14) 0.4979(2)
N2 N 0.42569(16) 0.24501(12) 0.5666(2)
N3 N 0.39075(18) 0.27853(13) 0.6340(2)
N4 N 0.43682(19) 0.10801(13) 0.3002(2)
N5 N 0.47547(16) 0.07325(12) 0.2364(2)
N6 N 0.51464(19) 0.03659(14) 0.1771(2)
N7 N 0.51624(18) 0.09990(12) -0.0555(3)
N8 N 0.46578(17) 0.13732(12) -0.1155(2)
N9 N 0.41738(18) 0.17572(13) -0.1733(2)
N10 N 0.58410(16) 0.22635(11) 0.29800(19)
N11 N 1.27045(16) 0.20847(12) 0.33134(19)
N12 N 0.65920(16) -0.01044(11) 0.0195(2)
C1 C 0.6445(2) 0.26195(16) 0.3762(3)
C2 C 0.6264(2) 0.20013(15) 0.2102(3)
C3 C 0.7445(2) 0.27113(17) 0.3688(3)
C4 C 0.7260(2) 0.20666(17) 0.1985(3)
C5 C 0.7883(2) 0.24190(15) 0.2783(3)
C6 C 0.8990(2) 0.24746(18) 0.2720(3)
C7 C 1.2139(2) 0.16004(18) 0.2804(3)
C8 C 1.2236(2) 0.25229(19) 0.3943(3)
C9 C 1.1133(3) 0.1545(2) 0.2855(4)
C10 C 1.1235(2) 0.2488(2) 0.4059(3)
C11 C 1.0653(2) 0.19969(17) 0.3475(3)
C12 C 0.9542(2) 0.1962(2) 0.3556(3)
C13 C 0.7074(2) -0.06364(14) -0.0159(3)
C14 C 0.7163(3) 0.03956(19) 0.0651(4)
C15 C 0.8190(3) 0.0381(2) 0.0792(5)
C16 C 0.8100(2) -0.06868(15) -0.0069(3)
C17 C 0.8684(2) -0.01637(15) 0.0404(3)
C18 C 0.9813(2) -0.01848(18) 0.0507(4)
H13 H 0.5808(18) 0.1759(12) 0.155(2)
H14 H 0.780(2) 0.2943(15) 0.424(3)
H15 H 0.850(2) -0.1132(17) -0.043(3)
H16 H 0.669(2) -0.0957(14) -0.046(2)
H17 H 0.753(2) 0.1910(15) 0.147(3)
H18 H 0.609(2) 0.2811(15) 0.447(3)
H19 H 0.857(3) 0.072(2) 0.113(3)
H20 H 1.246(2) 0.1254(17) 0.243(3)
H21 H 0.682(3) 0.0719(18) 0.101(3)
H22 H 1.265(3) 0.295(2) 0.426(3)
H23 H 1.085(3) 0.117(2) 0.257(4)
H30 H 1.080(3) 0.2822(19) 0.439(3)
Co1B Co 0.57269(3) -0.214970(18) -0.31493(3)
Co1C Co 0.42731(3) 0.285030(18) 0.81493(3)
Co1C_2 Co 0.42731(3) 0.285030(18) -0.18507(3)
Co1_2 Co 1.42731(3) 0.214970(18) 0.31493(3)
Co1A Co 0.57269(3) -0.285030(18) 0.18507(3)
Co1_3 Co -0.57269(3) 0.214970(18) 0.31493(3)
Co2_2 Co 1.5000 0.0000 0.0000
O1_2 O -0.0824(3) 0.1368(3) 0.3330(5)
H1_2 H -0.1167 0.1256 0.3836
O4_2 O -0.0693(3) 0.3148(3) 0.3033(5)
H4_2 H -0.0303 0.3281 0.2592
O5B O 0.9781(3) -0.0085(2) -0.1538(4)
H5B H 0.9171 -0.0068 -0.1578
N1C N 0.45955(19) 0.28860(14) -0.0021(2)
N1B N 0.54045(19) -0.21140(14) -0.4979(2)
N2C N 0.42569(16) 0.25499(12) 0.0666(2)
N3C N 0.39075(18) 0.22147(13) 0.1340(2)
N3A N 0.60925(18) -0.22147(13) -0.1340(2)
N4B N 0.56318(19) -0.10801(13) -0.3002(2)
N5B N 0.52453(16) -0.07325(12) -0.2364(2)
N6B N 0.48536(19) -0.03659(14) -0.1771(2)
N7B N 0.48376(18) -0.09990(12) 0.0555(3)
N8B N 0.53422(17) -0.13732(12) 0.1155(2)
N9B N 0.58262(18) -0.17572(13) 0.1733(2)
N9C N 0.41738(18) 0.32428(13) 0.3267(2)
N9A N 0.58262(18) -0.32428(13) -0.3267(2)
N10_2 N -0.41590(16) 0.22635(11) 0.29800(19)
N10B N 0.41590(16) -0.22635(11) -0.29800(19)
N11_2 N 0.27045(16) 0.20847(12) 0.33134(19)
N11B N 0.72955(16) -0.20847(12) -0.33134(19)
N12B N 1.34080(16) 0.01044(11) -0.0195(2)
N12B_2 N 0.34080(16) 0.01044(11) -0.0195(2)
C1_2 C -0.3555(2) 0.26195(16) 0.3762(3)
C2_2 C -0.3736(2) 0.20013(15) 0.2102(3)
C3_2 C -0.2555(2) 0.27113(17) 0.3688(3)
C4_2 C -0.2740(2) 0.20666(17) 0.1985(3)
C5_2 C -0.2117(2) 0.24190(15) 0.2783(3)
C6_2 C -0.1010(2) 0.24746(18) 0.2720(3)
C7_2 C 0.2139(2) 0.16004(18) 0.2804(3)
C8_2 C 0.2236(2) 0.25229(19) 0.3943(3)
C9_2 C 0.1133(3) 0.1545(2) 0.2855(4)
C10_2 C 0.1235(2) 0.2488(2) 0.4059(3)
C11_2 C 0.0653(2) 0.19969(17) 0.3475(3)
C12_2 C -0.0458(2) 0.1962(2) 0.3556(3)
C13B C 1.2926(2) 0.06364(14) 0.0159(3)
C14B C 1.2837(3) -0.03956(19) -0.0651(4)
C15B C 1.1810(3) -0.0381(2) -0.0792(5)
C16B C 1.1900(2) 0.06868(15) 0.0069(3)
C17B C 1.1316(2) 0.01637(15) -0.0404(3)
C18B C 1.0187(2) 0.01848(18) -0.0507(4)
H13_2 H -0.4192(18) 0.1759(12) 0.155(2)
H14_2 H -0.220(2) 0.2943(15) 0.424(3)
H15B H 1.150(2) 0.1132(17) 0.043(3)
H16B H 1.331(2) 0.0957(14) 0.046(2)
H17_2 H -0.247(2) 0.1910(15) 0.147(3)
H18_2 H -0.391(2) 0.2811(15) 0.447(3)
H19B H 1.143(3) -0.072(2) -0.113(3)
H20_2 H 0.246(2) 0.1254(17) 0.243(3)
H21B H 1.318(3) -0.0719(18) -0.101(3)
H22_2 H 0.265(3) 0.295(2) 0.426(3)
H23_2 H 0.085(3) 0.117(2) 0.257(4)
H30_2 H 0.080(3) 0.2822(19) 0.439(3)
O7 O 0.8019(6) 0.1223(4) 0.5430(8)
N13 N 0.6870(4) 0.08156(19) 0.6258(4)
C19 C 0.5817(6) 0.0750(4) 0.6183(7)
H7 H 0.5515 0.0998 0.5526
H8 H 0.5587 0.0924 0.6874
H9 H 0.5638 0.0282 0.6097
C20 C 0.7435(7) 0.0517(3) 0.7224(6)
H10 H 0.8130 0.0602 0.7189
H11 H 0.7318 0.0039 0.7218
H12 H 0.7239 0.0707 0.7923
C21 C 0.7143(7) 0.1159(4) 0.5426(8)
N14 N 0.1816(5) 0.0819(3) 0.6195(4)
C22 C 0.1140(7) 0.0305(5) 0.5869(11)
H24 H 0.0503 0.0418 0.6107
H25 H 0.1375 -0.0109 0.6232
H26 H 0.1077 0.0252 0.5044
O8 O 0.0528(10) 0.1297(10) 0.6815(12)
C23 C 0.2850(6) 0.0766(5) 0.6015(6)
H27 H 0.3220 0.1122 0.6426
H28 H 0.2912 0.0804 0.5204
H29 H 0.3106 0.0338 0.6295
C24 C 0.1582(11) 0.1391(7) 0.6620(11)
loop_
_geom_bond_atom_site_label_1
_geom_bond_atom_site_label_2
_geom_bond_site_symmetry_1
_geom_bond_site_symmetry_2
Co1 N1 1_555 1_555
Co2 N6 1_555 1_555
O1 H1 1_555 1_555
O4 H4 1_555 1_555
O5 H5 1_555 1_555
O7 C21 1_555 1_555
N1 N2 1_555 1_555
N2 N3 1_555 1_555
N3 Co1C 1_555 1_555
N4 Co1 1_555 1_555
N5 N4 1_555 1_555
N6 N5 1_555 1_555
N7 Co2 1_555 1_555
N8 N7 1_555 1_555
N9 N8 1_555 1_555
N10 Co1 1_555 1_555
N11 C7 1_555 1_555
N12 Co2 1_555 1_555
N13 C19 1_555 1_555
C1 N10 1_555 1_555
C2 N10 1_555 1_555
C3 C1 1_555 1_555
C4 C2 1_555 1_555
C5 C3 1_555 1_555
C6 O4 1_555 1_555
C7 C9 1_555 1_555
C8 N11 1_555 1_555
C9 C11 1_555 1_555
C10 C8 1_555 1_555
C11 C10 1_555 1_555
C12 O1 1_555 1_555
C13 N12 1_555 1_555
C14 N12 1_555 1_555
C15 C14 1_555 1_555
C16 C13 1_555 1_555
C17 C15 1_555 1_555
C18 O5 1_555 1_555
C19 H7 1_555 1_555
H8 C19 1_555 1_555
H9 C19 1_555 1_555
C20 N13 1_555 1_555
H10 C20 1_555 1_555
H11 C20 1_555 1_555
H12 C20 1_555 1_555
C21 N13 1_555 1_555
H13 C2 1_555 1_555
H14 C3 1_555 1_555
H15 C16 1_555 1_555
H16 C13 1_555 1_555
H17 C4 1_555 1_555
H18 C1 1_555 1_555
H19 C15 1_555 1_555
H20 C7 1_555 1_555
H21 C14 1_555 1_555
H22 C8 1_555 1_555
H23 C9 1_555 1_555
N14 C22 1_555 1_555
C22 H24 1_555 1_555
H25 C22 1_555 1_555
H26 C22 1_555 1_555
O8 C24 1_555 1_555
C23 N14 1_555 1_555
H27 C23 1_555 1_555
H28 C23 1_555 1_555
H29 C23 1_555 1_555
C24 N14 1_555 1_555
H30 C10 1_555 1_555
Co1B N1B 1_555 1_555
Co1C_2 N9 1_555 1_555
Co1_2 N11 1_555 1_555
Co1A N9B 1_555 1_555
Co1_3 N10_2 1_555 1_555
Co2_2 N12B 1_555 1_555
O1_2 H1_2 1_555 1_555
O4_2 H4_2 1_555 1_555
O5B H5B 1_555 1_555
N1C Co1C_2 1_555 1_555
N2C N1C 1_555 1_555
N3C Co1 1_555 1_555
N3A Co1B 1_555 1_555
N4B Co1B 1_555 1_555
N5B N4B 1_555 1_555
N6B Co2 1_555 1_555
N7B Co2 1_555 1_555
N8B N7B 1_555 1_555
N9B N8B 1_555 1_555
N9C Co1 1_555 1_555
N9A Co1B 1_555 1_555
N10_2 C1_2 1_555 1_555
N10B Co1B 1_555 1_555
N11_2 Co1 1_555 1_555
N11B Co1B 1_555 1_555
N12B C13B 1_555 1_555
N12B_2 Co2 1_555 1_555
C1_2 C3_2 1_555 1_555
C2_2 N10_2 1_555 1_555
C3_2 C5_2 1_555 1_555
C4_2 C2_2 1_555 1_555
C5_2 C4_2 1_555 1_555
C6_2 O4_2 1_555 1_555
C7_2 N11_2 1_555 1_555
C8_2 N11_2 1_555 1_555
C9_2 C7_2 1_555 1_555
C10_2 C8_2 1_555 1_555
C11_2 C9_2 1_555 1_555
C12_2 O1_2 1_555 1_555
C13B C16B 1_555 1_555
C14B N12B 1_555 1_555
C15B C14B 1_555 1_555
C16B C17B 1_555 1_555
C17B C15B 1_555 1_555
C18B C18 1_555 1_555
H13_2 C2_2 1_555 1_555
H14_2 C3_2 1_555 1_555
H15B C16B 1_555 1_555
H16B C13B 1_555 1_555
H17_2 C4_2 1_555 1_555
H18_2 C1_2 1_555 1_555
H19B C15B 1_555 1_555
H20_2 C7_2 1_555 1_555
H21B C14B 1_555 1_555
H22_2 C8_2 1_555 1_555
H23_2 C9_2 1_555 1_555
H30_2 C10_2 1_555 1_555
C4 C5 1_555 1_555
C5 C6 1_555 1_555
C6 C12 1_555 1_555
C11 C12 1_555 1_555
C16 C17 1_555 1_555
C17 C18 1_555 1_555
O5B C18B 1_555 1_555
N2C N3C 1_555 1_555
N5B N6B 1_555 1_555
C5_2 C6_2 1_555 1_555
C6_2 C12_2 1_555 1_555
C10_2 C11_2 1_555 1_555
C11_2 C12_2 1_555 1_555
C17B C18B 1_555 1_555

#END
