
#######################################################################
#
#                 Cambridge Crystallographic Data Centre
#                                CCDC 
#
#######################################################################
#
# If this CIF has been generated from an entry in the Cambridge 
# Structural Database, then it will include bibliographic, chemical, 
# crystal, experimental, refinement or atomic coordinate data resulting 
# from the CCDC's data processing and validation procedures.
#
#######################################################################

data_BURQIQ
_chemical_formula_moiety         '(C114 H118 Cd5 N14 Na2 O34)n'
_symmetry_cell_setting           monoclinic
_symmetry_space_group_name_H-M   'P 2/c'
_symmetry_Int_Tables_number      13
_space_group_name_Hall           '-P 2yc'
loop_
_symmetry_equiv_pos_site_id
_symmetry_equiv_pos_as_xyz
1 x,y,z
2 -x,y,1/2-z
3 -x,-y,-z
4 x,-y,1/2+z
_cell_length_a                   25.450(5)
_cell_length_b                   11.928(5)
_cell_length_c                   25.835(5)
_cell_angle_alpha                90
_cell_angle_beta                 116.777(5)
_cell_angle_gamma                90
_cell_volume                     7001.67
loop_
_atom_site_label
_atom_site_type_symbol
_atom_site_fract_x
_atom_site_fract_y
_atom_site_fract_z
Cd1 Cd 0.5000 0.23410(10) 0.2500
Cd2 Cd 0.47750(3) 0.17535(7) 0.09091(3)
Cd3 Cd 0.07013(3) -0.25272(7) -0.48905(3)
Na1 Na -0.02061(17) 0.5125(4) -0.07304(17)
C1 C 0.3981(4) 0.0174(9) 0.0285(4)
C2 C 0.3518(4) -0.0646(9) -0.0118(4)
C3 C 0.3535(5) -0.0989(9) -0.0632(4)
H1 H 0.3827 -0.0723 -0.0724
C4 C 0.3110(5) -0.1729(11) -0.0997(4)
H2 H 0.3130 -0.2001 -0.1325
C5 C 0.2665(5) -0.2061(11) -0.0878(4)
C6 C 0.2664(4) -0.1751(10) -0.0371(4)
H3 H 0.2377 -0.2037 -0.0277
C7 C 0.3074(4) -0.1032(9) 0.0000(4)
H4 H 0.3055 -0.0799 0.0335
C8 C 0.1999(4) -0.2745(9) -0.1881(4)
C9 C 0.1781(5) -0.3693(11) -0.2211(4)
H5 H 0.1818 -0.4376 -0.2024
C10 C 0.1517(5) -0.3669(10) -0.2787(4)
H6 H 0.1356 -0.4323 -0.2995
C11 C 0.1479(4) -0.2670(10) -0.3085(4)
C12 C 0.1700(5) -0.1729(10) -0.2746(4)
H7 H 0.1678 -0.1044 -0.2927
C13 C 0.1950(5) -0.1762(10) -0.2158(4)
H8 H 0.2087 -0.1105 -0.1946
C14 C 0.1195(4) -0.2629(9) -0.3725(4)
C15 C 0.1200(4) -0.5982(9) -0.0326(4)
C16 C 0.1474(4) -0.5157(9) -0.0581(4)
C17 C 0.1106(5) -0.4460(11) -0.1026(5)
H9 H 0.0700 -0.4540 -0.1186
C18 C 0.1346(5) -0.3663(11) -0.1225(5)
H10 H 0.1102 -0.3142 -0.1494
C19 C 0.1956(5) -0.3606(10) -0.1033(4)
C20 C 0.2315(5) -0.4349(11) -0.0608(4)
H11 H 0.2720 -0.4335 -0.0480
C21 C 0.2072(5) -0.5111(10) -0.0373(4)
H12 H 0.2313 -0.5588 -0.0076
C22 C 0.4451(4) 0.3811(9) 0.1346(4)
C23 C 0.4086(4) 0.4752(9) 0.1391(4)
C24 C 0.4182(4) 0.5236(10) 0.1899(4)
H13 H 0.4484 0.4964 0.2241
C25 C 0.3850(4) 0.6109(10) 0.1925(4)
H14 H 0.3940 0.6443 0.2280
C26 C 0.3377(4) 0.6508(9) 0.1426(4)
C27 C 0.3281(4) 0.6044(9) 0.0916(4)
H15 H 0.2984 0.6335 0.0576
C28 C 0.3609(4) 0.5148(10) 0.0880(4)
H16 H 0.3516 0.4812 0.0524
C29 C 0.3336(4) 0.8313(9) 0.1860(4)
C30 C 0.3822(4) 0.8753(9) 0.1846(4)
H17 H 0.3928 0.8492 0.1567
C31 C 0.4161(4) 0.9561(8) 0.2224(4)
H18 H 0.4479 0.9871 0.2188
C32 C 0.4024(4) 0.9912(9) 0.2660(4)
C33 C 0.3520(4) 0.9494(10) 0.2656(5)
H19 H 0.3401 0.9763 0.2924
C34 C 0.3184(4) 0.8684(10) 0.2264(4)
H20 H 0.2853 0.8396 0.2281
C35 C 0.2404(4) 0.7350(9) 0.1185(4)
C36 C 0.2079(4) 0.8362(9) 0.1008(5)
H21 H 0.2264 0.9057 0.1093
C37 C 0.1487(4) 0.8270(10) 0.0711(4)
H22 H 0.1266 0.8925 0.0589
C38 C 0.1196(4) 0.7276(9) 0.0581(4)
C39 C 0.1520(4) 0.6313(9) 0.0730(4)
H23 H 0.1328 0.5627 0.0620
C40 C 0.2133(4) 0.6330(9) 0.1041(5)
H24 H 0.2349 0.5669 0.1147
C41 C 0.0526(4) 0.7176(10) 0.0271(4)
C42 C 0.4437(4) 1.0655(8) 0.3116(4)
N1 N 0.2218(4) -0.2810(8) -0.1251(3)
N2 N 0.3044(3) 0.7406(8) 0.1461(4)
O1 O 0.4895(3) 1.1044(6) 0.3103(2)
O2 O 0.4326(3) 1.0902(7) 0.3539(3)
O3 O 0.4381(3) 0.0492(7) 0.0156(3)
O4 O 0.3945(3) 0.0563(8) 0.0718(3)
O5 O 0.4274(3) 0.3278(6) 0.0886(3)
O6 O 0.4926(3) 0.3581(6) 0.1803(3)
O7 O 0.0231(3) 0.8097(7) 0.0216(3)
O8 O 0.0286(3) 0.6250(7) 0.0095(3)
O9 O 0.1525(3) -0.6643(7) 0.0051(3)
O10 O 0.0653(3) -0.6004(7) -0.0523(3)
O11 O 0.1205(3) -0.1737(6) -0.3980(3)
O12 O 0.0940(3) -0.3489(7) -0.4006(3)
C43 C 0.2812(6) 0.3160(8) 0.1471(7)
H25 H 0.2391 0.3137 0.1256
H26 H 0.2922 0.3230 0.1877
H27 H 0.2960 0.3791 0.1346
C44 C 0.2657(5) 0.1605(9) 0.0889(4)
H28 H 0.2263 0.1859 0.0779
H29 H 0.2754 0.1735 0.0575
H30 H 0.2684 0.0818 0.0974
C45 C 0.3622(3) 0.2013(9) 0.1624(4)
H31 H 0.3759 0.1491 0.1446
N3 N 0.3046(2) 0.2188(5) 0.1375(3)
O13 O 0.3988(3) 0.2457(6) 0.2056(3)
C46 C 0.5035(4) 0.2180(9) -0.0121(2)
H32 H 0.4902 0.1443 -0.0183
C47 C 0.5079(6) 0.2152(11) -0.1025(3)
H33 H 0.5183 0.2668 -0.1248
H34 H 0.5332 0.1508 -0.0929
H35 H 0.4677 0.1921 -0.1247
C48 C 0.5474(5) 0.3615(8) -0.0377(7)
H36 H 0.5522 0.3883 -0.0703
H37 H 0.5280 0.4177 -0.0259
H38 H 0.5853 0.3456 -0.0062
N4 N 0.5143(3) 0.2661(6) -0.0528(2)
O14 O 0.5096(3) 0.2624(7) 0.0322(2)
C49 C 0.0205(5) 0.1434(8) -0.6112(7)
H39 H 0.0334 0.1907 -0.6333
H40 H -0.0181 0.1149 -0.6359
H41 H 0.0192 0.1861 -0.5803
C50 C 0.1172(4) 0.082(2) -0.5682(12)
H42 H 0.1214 0.1390 -0.5923
H43 H 0.1325 0.1092 -0.5291
H44 H 0.1387 0.0164 -0.5690
C51 C 0.0519(4) -0.0233(6) -0.5557(4)
H45 H 0.0206 -0.0159 -0.5467
N5 N 0.0590(2) 0.0556(6) -0.5884(3)
O15 O 0.0835(3) -0.1036(7) -0.5370(4)
C52 C -0.1648(4) 0.2832(12) -0.2247(6)
H46 H -0.1908 0.2240 -0.2467
H47 H -0.1784 0.3150 -0.1988
H48 H -0.1640 0.3402 -0.2506
C53 C -0.1014(7) 0.1274(6) -0.1907(7)
H49 H -0.1370 0.0916 -0.2177
H50 H -0.0700 0.1091 -0.2002
H51 H -0.0915 0.1017 -0.1522
C54 C -0.0656(4) 0.3066(6) -0.1596(5)
H52 H -0.0301 0.2718 -0.1361
N6 N -0.1094(3) 0.2412(5) -0.1934(5)
O16 O -0.0672(4) 0.4069(5) -0.1561(4)
Cd2A Cd 0.52250(3) 0.17535(7) 0.40909(3)
Cd3A Cd 0.92987(3) -0.25272(7) 0.98905(3)
Na1A Na 1.02061(17) 0.5125(4) 0.57304(17)
C1A C 0.6019(4) 0.0174(9) 0.4715(4)
C2A C 0.6482(4) -0.0646(9) 0.5118(4)
C3A C 0.6465(5) -0.0989(9) 0.5632(4)
H1A H 0.6173 -0.0723 0.5724
C4A C 0.6890(5) -0.1729(11) 0.5997(4)
H2A H 0.6870 -0.2001 0.6325
C5A C 0.7335(5) -0.2061(11) 0.5878(4)
C6A C 0.7336(4) -0.1751(10) 0.5371(4)
H3A H 0.7623 -0.2037 0.5277
C7A C 0.6926(4) -0.1032(9) 0.5000(4)
H4A H 0.6945 -0.0799 0.4665
C8A C 0.8001(4) -0.2745(9) 0.6881(4)
C9A C 0.8219(5) -0.3693(11) 0.7211(4)
H5A H 0.8182 -0.4376 0.7024
C10A C 0.8483(5) -0.3669(10) 0.7787(4)
H6A H 0.8644 -0.4323 0.7995
C11A C 0.8521(4) -0.2670(10) 0.8085(4)
C12A C 0.8300(5) -0.1729(10) 0.7746(4)
H7A H 0.8322 -0.1044 0.7927
C13A C 0.8050(5) -0.1762(10) 0.7158(4)
H8A H 0.7913 -0.1105 0.6946
C14A C 0.8805(4) -0.2629(9) 0.8725(4)
C15A C 0.8800(4) -0.5982(9) 0.5326(4)
C16A C 0.8526(4) -0.5157(9) 0.5581(4)
C17A C 0.8894(5) -0.4460(11) 0.6026(5)
H9A H 0.9300 -0.4540 0.6186
C18A C 0.8654(5) -0.3663(11) 0.6225(5)
H10A H 0.8898 -0.3142 0.6494
C19A C 0.8044(5) -0.3606(10) 0.6033(4)
C20A C 0.7685(5) -0.4349(11) 0.5608(4)
H11A H 0.7280 -0.4335 0.5480
C21A C 0.7928(5) -0.5111(10) 0.5373(4)
H12A H 0.7687 -0.5588 0.5076
C22A C 0.5549(4) 0.3811(9) 0.3654(4)
C23A C 0.5914(4) 0.4752(9) 0.3609(4)
C24A C 0.5818(4) 0.5236(10) 0.3101(4)
H13A H 0.5516 0.4964 0.2759
C25A C 0.6150(4) 0.6109(10) 0.3075(4)
H14A H 0.6060 0.6443 0.2720
C26A C 0.6623(4) 0.6508(9) 0.3574(4)
C27A C 0.6719(4) 0.6044(9) 0.4084(4)
H15A H 0.7016 0.6335 0.4424
C28A C 0.6391(4) 0.5148(10) 0.4120(4)
H16A H 0.6484 0.4812 0.4476
C29A C 0.6664(4) 0.8313(9) 0.3140(4)
C30A C 0.6178(4) 0.8753(9) 0.3154(4)
H17A H 0.6072 0.8492 0.3433
C31A C 0.5839(4) 0.9561(8) 0.2776(4)
H18A H 0.5521 0.9871 0.2812
C32A C 0.5976(4) 0.9912(9) 0.2340(4)
C33A C 0.6480(4) 0.9494(10) 0.2344(5)
H19A H 0.6599 0.9763 0.2076
C34A C 0.6816(4) 0.8684(10) 0.2736(4)
H20A H 0.7147 0.8396 0.2719
C35A C 0.7596(4) 0.7350(9) 0.3815(4)
C36A C 0.7921(4) 0.8362(9) 0.3992(5)
H21A H 0.7736 0.9057 0.3907
C37A C 0.8513(4) 0.8270(10) 0.4289(4)
H22A H 0.8734 0.8925 0.4411
C38A C 0.8804(4) 0.7276(9) 0.4419(4)
C39A C 0.8480(4) 0.6313(9) 0.4270(4)
H23A H 0.8672 0.5627 0.4380
C40A C 0.7867(4) 0.6330(9) 0.3959(5)
H24A H 0.7651 0.5669 0.3853
C41A C 0.9474(4) 0.7176(10) 0.4729(4)
C42A C 0.5563(4) 1.0655(8) 0.1884(4)
N1A N 0.7782(4) -0.2810(8) 0.6251(3)
N2A N 0.6956(3) 0.7406(8) 0.3539(4)
O1A O 0.5105(3) 1.1044(6) 0.1897(2)
O2A O 0.5674(3) 1.0902(7) 0.1461(3)
O3A O 0.5619(3) 0.0492(7) 0.4844(3)
O4A O 0.6055(3) 0.0563(8) 0.4282(3)
O5A O 0.5726(3) 0.3278(6) 0.4114(3)
O6A O 0.5074(3) 0.3581(6) 0.3197(3)
O7A O 0.9769(3) 0.8097(7) 0.4784(3)
O8A O 0.9714(3) 0.6250(7) 0.4905(3)
O9A O 0.8475(3) -0.6643(7) 0.4949(3)
O10A O 0.9347(3) -0.6004(7) 0.5523(3)
O11A O 0.8795(3) -0.1737(6) 0.8980(3)
O12A O 0.9060(3) -0.3489(7) 0.9006(3)
C43A C 0.7188(6) 0.3160(8) 0.3529(7)
H25A H 0.7609 0.3137 0.3744
H26A H 0.7078 0.3230 0.3123
H27A H 0.7040 0.3791 0.3654
C44A C 0.7343(5) 0.1605(9) 0.4111(4)
H28A H 0.7737 0.1859 0.4221
H29A H 0.7246 0.1735 0.4425
H30A H 0.7316 0.0818 0.4026
C45A C 0.6378(3) 0.2013(9) 0.3376(4)
H31A H 0.6241 0.1491 0.3554
N3A N 0.6954(2) 0.2188(5) 0.3625(3)
O13A O 0.6012(3) 0.2457(6) 0.2944(3)
C46A C 0.4965(4) 0.2180(9) 0.5121(2)
H32A H 0.5098 0.1443 0.5183
C47A C 0.4921(6) 0.2152(11) 0.6025(3)
H33A H 0.4817 0.2668 0.6248
H34A H 0.4668 0.1508 0.5929
H35A H 0.5323 0.1921 0.6247
C48A C 0.4526(5) 0.3615(8) 0.5377(7)
H36A H 0.4478 0.3883 0.5703
H37A H 0.4720 0.4177 0.5259
H38A H 0.4147 0.3456 0.5062
N4A N 0.4857(3) 0.2661(6) 0.5528(2)
O14A O 0.4904(3) 0.2624(7) 0.4678(2)
C49A C 0.9795(5) 0.1434(8) 1.1112(7)
H39A H 0.9666 0.1907 1.1333
H40A H 1.0181 0.1149 1.1359
H41A H 0.9808 0.1861 1.0803
C50A C 0.8828(4) 0.082(2) 1.0682(12)
H42A H 0.8786 0.1390 1.0923
H43A H 0.8675 0.1092 1.0291
H44A H 0.8613 0.0164 1.0690
C51A C 0.9481(4) -0.0233(6) 1.0557(4)
H45A H 0.9794 -0.0159 1.0467
N5A N 0.9410(2) 0.0556(6) 1.0884(3)
O15A O 0.9165(3) -0.1036(7) 1.0370(4)
C52A C 1.1648(4) 0.2832(12) 0.7247(6)
H46A H 1.1908 0.2240 0.7467
H47A H 1.1784 0.3150 0.6988
H48A H 1.1640 0.3402 0.7506
C53A C 1.1014(7) 0.1274(6) 0.6907(7)
H49A H 1.1370 0.0916 0.7177
H50A H 1.0700 0.1091 0.7002
H51A H 1.0915 0.1017 0.6522
C54A C 1.0656(4) 0.3066(6) 0.6596(5)
H52A H 1.0301 0.2718 0.6361
N6A N 1.1094(3) 0.2412(5) 0.6934(5)
O16A O 1.0672(4) 0.4069(5) 0.6561(4)
Cd1_2 Cd 0.5000 1.23410(10) 0.2500
Cd2_2 Cd 0.47750(3) 1.17535(7) 0.09091(3)
Cd2A_2 Cd 0.52250(3) 1.17535(7) 0.40909(3)
Cd3_2 Cd 1.07013(3) 0.74728(7) 0.51095(3)
Cd3A_2 Cd -0.07013(3) 0.74728(7) -0.01095(3)
Cd3B Cd 0.92987(3) -0.74728(7) 0.48905(3)
Cd3C Cd 0.07013(3) -0.74728(7) 0.01095(3)
Na1_2 Na -0.02061(17) -0.4875(4) -0.07304(17)
Na1_3 Na 0.97939(17) -0.4875(4) 0.92696(17)
Na1A_2 Na 0.02061(17) -0.4875(4) -0.42696(17)
Na1A_3 Na 1.02061(17) -0.4875(4) 0.57304(17)
Na1B Na 0.02061(17) 0.4875(4) 0.07304(17)
Na1C Na 0.97939(17) 0.4875(4) 0.42696(17)
O1_2 O 0.4895(3) 0.1044(6) 0.3103(2)
O1A_2 O 0.5105(3) 0.1044(6) 0.1897(2)
O2_2 O 0.4326(3) 0.0902(7) 0.3539(3)
O2A_2 O 0.5674(3) 0.0902(7) 0.1461(3)
O7_2 O 1.0231(3) -0.1903(7) 1.0216(3)
O7A_2 O -0.0231(3) -0.1903(7) -0.5216(3)
O8_2 O 1.0286(3) -0.3750(7) 1.0095(3)
O8A_2 O -0.0286(3) -0.3750(7) -0.5095(3)
O8B O -0.0286(3) 0.3750(7) -0.0095(3)
O8C O 1.0286(3) 0.3750(7) 0.5095(3)
O9B O 0.8475(3) -0.3357(7) 0.9949(3)
O9C O 0.1525(3) -0.3357(7) -0.4949(3)
O10_2 O 0.0653(3) 0.3996(7) -0.0523(3)
O10A_2 O 0.9347(3) 0.3996(7) 0.5523(3)
O10B O 0.9347(3) -0.3996(7) 1.0523(3)
O10C O 0.0653(3) -0.3996(7) -0.5523(3)
O12_2 O 1.0940(3) 0.6511(7) 0.5994(3)
O12A_2 O -0.0940(3) 0.6511(7) -0.0994(3)
C55 C 0.2242(3) 0.8288(18) 0.4080(7)
H53 H 0.2209 0.7970 0.4405
H54 H 0.2218 0.9090 0.4092
H55 H 0.1928 0.8013 0.3727
C56 C 0.3133(8) 0.7341(11) 0.4551(5)
H56 H 0.2952 0.7180 0.4798
H57 H 0.3207 0.6652 0.4403
H58 H 0.3498 0.7728 0.4768
C57 C 0.2855(5) 0.8390(10) 0.3672(3)
H59 H 0.3196 0.8189 0.3647
N7 N 0.2768(3) 0.7993(9) 0.4102(3)
O17 O 0.2506(6) 0.9009(10) 0.3308(5)
C58 C 0.3732(5) -0.3819(8) -0.1879(4)
H60 H 0.3624 -0.3956 -0.2280
H61 H 0.3543 -0.3147 -0.1843
H62 H 0.4152 -0.3732 -0.1669
C59 C 0.3126(6) -0.5400(10) -0.2024(6)
H63 H 0.3096 -0.5339 -0.2407
H64 H 0.3220 -0.6159 -0.1890
H65 H 0.2758 -0.5193 -0.2032
C60 C 0.3673(4) -0.4660(15) -0.1101(2)
H66 H 0.4017 -0.4272 -0.0871
N8 N 0.3559(4) -0.4701(7) -0.1657(3)
O18 O 0.3427(4) -0.5015(17) -0.0831(4)
loop_
_geom_bond_atom_site_label_1
_geom_bond_atom_site_label_2
_geom_bond_site_symmetry_1
_geom_bond_site_symmetry_2
Cd1 O6 1_555 1_555
Cd2 O3 1_555 1_555
Cd3 O11 1_555 1_555
Na1 O8 1_555 1_555
C1 C2 1_555 1_555
C2 C3 1_555 1_555
C3 H1 1_555 1_555
C4 C3 1_555 1_555
H2 C4 1_555 1_555
C5 C4 1_555 1_555
C6 C5 1_555 1_555
H3 C6 1_555 1_555
C7 C2 1_555 1_555
H4 C7 1_555 1_555
C8 C9 1_555 1_555
C9 H5 1_555 1_555
C10 C9 1_555 1_555
H6 C10 1_555 1_555
C11 C10 1_555 1_555
C12 C11 1_555 1_555
H7 C12 1_555 1_555
C13 C8 1_555 1_555
H8 C13 1_555 1_555
C14 C11 1_555 1_555
C15 C16 1_555 1_555
C16 C17 1_555 1_555
C17 H9 1_555 1_555
C18 C17 1_555 1_555
H10 C18 1_555 1_555
C19 C18 1_555 1_555
C20 C19 1_555 1_555
H11 C20 1_555 1_555
C21 C16 1_555 1_555
H12 C21 1_555 1_555
C22 C23 1_555 1_555
C23 C24 1_555 1_555
C24 H13 1_555 1_555
C25 C24 1_555 1_555
H14 C25 1_555 1_555
C26 C25 1_555 1_555
C27 C26 1_555 1_555
H15 C27 1_555 1_555
C28 C23 1_555 1_555
H16 C28 1_555 1_555
C29 C30 1_555 1_555
C30 H17 1_555 1_555
C31 C30 1_555 1_555
H18 C31 1_555 1_555
C32 C31 1_555 1_555
C33 C32 1_555 1_555
H19 C33 1_555 1_555
C34 C29 1_555 1_555
H20 C34 1_555 1_555
C35 C36 1_555 1_555
C36 H21 1_555 1_555
C37 C36 1_555 1_555
H22 C37 1_555 1_555
C38 C37 1_555 1_555
C39 C38 1_555 1_555
H23 C39 1_555 1_555
C40 C35 1_555 1_555
H24 C40 1_555 1_555
C41 C38 1_555 1_555
C42 C32 1_555 1_555
N1 C5 1_555 1_555
N2 C26 1_555 1_555
O1 C42 1_555 1_555
O2 C42 1_555 1_555
O3 C1 1_555 1_555
O4 Cd2 1_555 1_555
O5 Cd2 1_555 1_555
O6 C22 1_555 1_555
O7 C41 1_555 1_555
O8 C41 1_555 1_555
O9 C15 1_555 1_555
O10 C15 1_555 1_555
O11 C14 1_555 1_555
O12 Cd3 1_555 1_555
C43 H25 1_555 1_555
H26 C43 1_555 1_555
H27 C43 1_555 1_555
C44 H28 1_555 1_555
H29 C44 1_555 1_555
H30 C44 1_555 1_555
C45 H31 1_555 1_555
N3 C43 1_555 1_555
O13 Cd1 1_555 1_555
C46 H32 1_555 1_555
C47 H33 1_555 1_555
H34 C47 1_555 1_555
H35 C47 1_555 1_555
C48 H36 1_555 1_555
H37 C48 1_555 1_555
H38 C48 1_555 1_555
N4 C46 1_555 1_555
O14 Cd2 1_555 1_555
C49 H39 1_555 1_555
H40 C49 1_555 1_555
H41 C49 1_555 1_555
C50 H42 1_555 1_555
H43 C50 1_555 1_555
H44 C50 1_555 1_555
C51 H45 1_555 1_555
N5 C49 1_555 1_555
O15 Cd3 1_555 1_555
C52 H46 1_555 1_555
H47 C52 1_555 1_555
H48 C52 1_555 1_555
C53 H49 1_555 1_555
H50 C53 1_555 1_555
H51 C53 1_555 1_555
C54 H52 1_555 1_555
N6 C52 1_555 1_555
O16 Na1 1_555 1_555
C55 H53 1_555 1_555
H54 C55 1_555 1_555
H55 C55 1_555 1_555
C56 H56 1_555 1_555
H57 C56 1_555 1_555
H58 C56 1_555 1_555
C57 H59 1_555 1_555
N7 C55 1_555 1_555
O17 C57 1_555 1_555
C58 H60 1_555 1_555
H61 C58 1_555 1_555
H62 C58 1_555 1_555
C59 H63 1_555 1_555
H64 C59 1_555 1_555
H65 C59 1_555 1_555
C60 H66 1_555 1_555
N8 C58 1_555 1_555
O18 C60 1_555 1_555
Cd2A O3A 1_555 1_555
Cd3A O11A 1_555 1_555
Na1A O8A 1_555 1_555
C1A C2A 1_555 1_555
C2A C3A 1_555 1_555
C3A H1A 1_555 1_555
C4A C3A 1_555 1_555
H2A C4A 1_555 1_555
C5A C4A 1_555 1_555
C6A C5A 1_555 1_555
H3A C6A 1_555 1_555
C7A C2A 1_555 1_555
H4A C7A 1_555 1_555
C8A C9A 1_555 1_555
C9A H5A 1_555 1_555
C10A C9A 1_555 1_555
H6A C10A 1_555 1_555
C11A C10A 1_555 1_555
C12A C11A 1_555 1_555
H7A C12A 1_555 1_555
C13A C8A 1_555 1_555
H8A C13A 1_555 1_555
C14A C11A 1_555 1_555
C15A C16A 1_555 1_555
C16A C17A 1_555 1_555
C17A H9A 1_555 1_555
C18A C17A 1_555 1_555
H10A C18A 1_555 1_555
C19A C18A 1_555 1_555
C20A C19A 1_555 1_555
H11A C20A 1_555 1_555
C21A C16A 1_555 1_555
H12A C21A 1_555 1_555
C22A C23A 1_555 1_555
C23A C24A 1_555 1_555
C24A H13A 1_555 1_555
C25A C24A 1_555 1_555
H14A C25A 1_555 1_555
C26A C25A 1_555 1_555
C27A C26A 1_555 1_555
H15A C27A 1_555 1_555
C28A C23A 1_555 1_555
H16A C28A 1_555 1_555
C29A C30A 1_555 1_555
C30A H17A 1_555 1_555
C31A C30A 1_555 1_555
H18A C31A 1_555 1_555
C32A C31A 1_555 1_555
C33A C32A 1_555 1_555
H19A C33A 1_555 1_555
C34A C29A 1_555 1_555
H20A C34A 1_555 1_555
C35A C36A 1_555 1_555
C36A H21A 1_555 1_555
C37A C36A 1_555 1_555
H22A C37A 1_555 1_555
C38A C37A 1_555 1_555
C39A C38A 1_555 1_555
H23A C39A 1_555 1_555
C40A C35A 1_555 1_555
H24A C40A 1_555 1_555
C41A C38A 1_555 1_555
C42A C32A 1_555 1_555
N1A C5A 1_555 1_555
N2A C26A 1_555 1_555
O1A C42A 1_555 1_555
O2A C42A 1_555 1_555
O3A C1A 1_555 1_555
O4A Cd2A 1_555 1_555
O5A Cd2A 1_555 1_555
O6A Cd1 1_555 1_555
O7A C41A 1_555 1_555
O8A C41A 1_555 1_555
O9A C15A 1_555 1_555
O10A C15A 1_555 1_555
O11A C14A 1_555 1_555
O12A Cd3A 1_555 1_555
C43A H25A 1_555 1_555
H26A C43A 1_555 1_555
H27A C43A 1_555 1_555
C44A H28A 1_555 1_555
H29A C44A 1_555 1_555
H30A C44A 1_555 1_555
C45A H31A 1_555 1_555
N3A C43A 1_555 1_555
O13A Cd1 1_555 1_555
C46A H32A 1_555 1_555
C47A H33A 1_555 1_555
H34A C47A 1_555 1_555
H35A C47A 1_555 1_555
C48A H36A 1_555 1_555
H37A C48A 1_555 1_555
H38A C48A 1_555 1_555
N4A C46A 1_555 1_555
O14A Cd2A 1_555 1_555
C49A H39A 1_555 1_555
H40A C49A 1_555 1_555
H41A C49A 1_555 1_555
C50A H42A 1_555 1_555
H43A C50A 1_555 1_555
H44A C50A 1_555 1_555
C51A H45A 1_555 1_555
N5A C49A 1_555 1_555
O15A Cd3A 1_555 1_555
C52A H46A 1_555 1_555
H47A C52A 1_555 1_555
H48A C52A 1_555 1_555
C53A H49A 1_555 1_555
H50A C53A 1_555 1_555
H51A C53A 1_555 1_555
C54A H52A 1_555 1_555
N6A C52A 1_555 1_555
O16A Na1A 1_555 1_555
Cd1_2 O1 1_555 1_555
Cd2_2 O1A 1_555 1_555
Cd2A_2 O1 1_555 1_555
Cd3_2 O7A 1_555 1_555
Cd3A_2 O7 1_555 1_555
Cd3B O9A 1_555 1_555
Cd3C O9 1_555 1_555
Na1_2 O10 1_555 1_555
Na1_3 O12A 1_555 1_555
Na1A_2 O12 1_555 1_555
Na1A_3 O10A 1_555 1_555
Na1B O8 1_555 1_555
Na1C O8A 1_555 1_555
O1_2 Cd1 1_555 1_555
O1A_2 Cd1 1_555 1_555
O2_2 Cd2A 1_555 1_555
O2A_2 Cd2 1_555 1_555
O7_2 Cd3A 1_555 1_555
O7A_2 Cd3 1_555 1_555
O8_2 Cd3A 1_555 1_555
O8A_2 Cd3 1_555 1_555
O8B Na1 1_555 1_555
O8C Na1A 1_555 1_555
O9B Cd3A 1_555 1_555
O9C Cd3 1_555 1_555
O10_2 Na1 1_555 1_555
O10A_2 Na1A 1_555 1_555
O10B Cd3A 1_555 1_555
O10C Cd3 1_555 1_555
O12_2 Na1A 1_555 1_555
O12A_2 Na1 1_555 1_555
Cd2 O1A_2 1_555 1_555
C1 O4 1_555 1_555
C6 C7 1_555 1_555
C8 N1 1_555 1_555
C12 C13 1_555 1_555
C14 O12 1_555 1_555
C19 N1 1_555 1_555
C20 C21 1_555 1_555
C22 O5 1_555 1_555
C27 C28 1_555 1_555
C29 N2 1_555 1_555
C33 C34 1_555 1_555
C35 N2 1_555 1_555
C39 C40 1_555 1_555
O2 Cd2A_2 1_555 1_555
O8 Cd3A_2 1_555 1_555
O10 Cd3C 1_555 1_555
C44 N3 1_555 1_555
C45 N3 1_555 1_555
C45 O13 1_555 1_555
C46 O14 1_555 1_555
C47 N4 1_555 1_555
C48 N4 1_555 1_555
C50 N5 1_555 1_555
C51 N5 1_555 1_555
C51 O15 1_555 1_555
C53 N6 1_555 1_555
C54 N6 1_555 1_555
C54 O16 1_555 1_555
C56 N7 1_555 1_555
C57 N7 1_555 1_555
C59 N8 1_555 1_555
C60 N8 1_555 1_555
Cd2A O1_2 1_555 1_555
C1A O4A 1_555 1_555
C6A C7A 1_555 1_555
C8A N1A 1_555 1_555
C12A C13A 1_555 1_555
C14A O12A 1_555 1_555
C19A N1A 1_555 1_555
C20A C21A 1_555 1_555
C22A O5A 1_555 1_555
C22A O6A 1_555 1_555
C27A C28A 1_555 1_555
C29A N2A 1_555 1_555
C33A C34A 1_555 1_555
C35A N2A 1_555 1_555
C39A C40A 1_555 1_555
O1A Cd1_2 1_555 1_555
O2A Cd2_2 1_555 1_555
O8A Cd3_2 1_555 1_555
O10A Cd3B 1_555 1_555
C44A N3A 1_555 1_555
C45A N3A 1_555 1_555
C45A O13A 1_555 1_555
C46A O14A 1_555 1_555
C47A N4A 1_555 1_555
C48A N4A 1_555 1_555
C50A N5A 1_555 1_555
C51A N5A 1_555 1_555
C51A O15A 1_555 1_555
C53A N6A 1_555 1_555
C54A N6A 1_555 1_555
C54A O16A 1_555 1_555
Cd3_2 O12_2 1_555 1_555
Cd3A_2 O12A_2 1_555 1_555
Na1_3 O8_2 1_555 1_555
Na1A_2 O8A_2 1_555 1_555
Na1B O8B 1_555 1_555
Na1C O8C 1_555 1_555

#END
