
#######################################################################
#
#                 Cambridge Crystallographic Data Centre
#                                CCDC 
#
#######################################################################
#
# If this CIF has been generated from an entry in the Cambridge 
# Structural Database, then it will include bibliographic, chemical, 
# crystal, experimental, refinement or atomic coordinate data resulting 
# from the CCDC's data processing and validation procedures.
#
#######################################################################

data_QOJTUE
_chemical_formula_moiety         '(C26 H19 Cu2 I2 N5 O2)n'
_symmetry_cell_setting           monoclinic
_symmetry_space_group_name_H-M   'C 2/c'
_symmetry_Int_Tables_number      15
_space_group_name_Hall           '-C 2yc'
loop_
_symmetry_equiv_pos_site_id
_symmetry_equiv_pos_as_xyz
1 x,y,z
2 1/2+x,1/2+y,z
3 x,-y,1/2+z
4 1/2+x,1/2-y,1/2+z
5 -x,-y,-z
6 1/2-x,1/2-y,-z
7 -x,y,1/2-z
8 1/2-x,1/2+y,1/2-z
_cell_length_a                   14.081(3)
_cell_length_b                   14.413(3)
_cell_length_c                   16.420(3)
_cell_angle_alpha                90
_cell_angle_beta                 97.814(4)
_cell_angle_gamma                90
_cell_volume                     3301.49
loop_
_atom_site_label
_atom_site_type_symbol
_atom_site_fract_x
_atom_site_fract_y
_atom_site_fract_z
_atom_site_U_iso_or_equiv
_atom_site_thermal_displace_type
I1 I 0.10363(2) 0.23849(3) 0.54864(2) 0.0265 Uani
Cu1 Cu 0.24771(5) 0.16115(5) 0.48069(3) 0.0231 Uani
N1 N 0.1885(3) 0.1209(3) 0.3651(2) 0.0244 Uani
C1 C 0.2447(4) 0.0974(4) 0.3096(3) 0.0267 Uani
H1 H 0.3119 0.0958 0.3266 0.0320 Uiso
C2 C 0.2117(4) 0.0751(4) 0.2285(3) 0.0254 Uani
C3 C 0.1122(4) 0.0783(4) 0.2041(3) 0.0279 Uani
H2 H 0.0858 0.0649 0.1490 0.0340 Uiso
C4 C 0.0536(4) 0.1014(4) 0.2616(3) 0.0228 Uani
C5 C 0.0943(4) 0.1238(4) 0.3403(3) 0.0252 Uani
H3 H 0.0532 0.1421 0.3788 0.0300 Uiso
N2 N 0.3034(3) -0.0599(3) 0.0595(2) 0.0249 Uani
C6 C 0.2476(4) -0.0238(4) 0.1130(3) 0.0235 Uani
H4 H 0.1840 -0.0463 0.1110 0.0280 Uiso
C7 C 0.2789(4) 0.0444(4) 0.1704(3) 0.0259 Uani
C8 C 0.3705(4) 0.0779(4) 0.1726(3) 0.0338 Uani
H5 H 0.3942 0.1247 0.2107 0.0400 Uiso
C9 C 0.4274(4) 0.0419(5) 0.1183(3) 0.0349 Uani
H6 H 0.4909 0.0641 0.1182 0.0420 Uiso
C10 C 0.3914(4) -0.0264(4) 0.0642(3) 0.0350 Uani
H7 H 0.4323 -0.0511 0.0280 0.0420 Uiso
C4F C -0.0536(4) 0.1014(4) 0.2384(3) 0.0228 Uani
C3F C -0.1122(4) 0.0783(4) 0.2959(3) 0.0279 Uani
C2F C -0.2117(4) 0.0751(4) 0.2715(3) 0.0254 Uani
C1F C -0.2447(4) 0.0974(4) 0.1904(3) 0.0267 Uani
N1F N -0.1885(3) 0.1209(3) 0.1349(2) 0.0244 Uani
C5F C -0.0943(4) 0.1238(4) 0.1597(3) 0.0252 Uani
H3F H -0.0532 0.1421 0.1212 0.0300 Uiso
H1F H -0.3119 0.0958 0.1734 0.0320 Uiso
C7F C -0.2789(4) 0.0444(4) 0.3296(3) 0.0259 Uani
C6F C -0.2476(4) -0.0238(4) 0.3870(3) 0.0235 Uani
N2F N -0.3034(3) -0.0599(3) 0.4405(2) 0.0249 Uani
C10F C -0.3914(4) -0.0264(4) 0.4358(3) 0.0350 Uani
C9F C -0.4274(4) 0.0419(5) 0.3817(3) 0.0349 Uani
C8F C -0.3705(4) 0.0779(4) 0.3274(3) 0.0338 Uani
H5F H -0.3942 0.1247 0.2893 0.0400 Uiso
H6F H -0.4909 0.0641 0.3818 0.0420 Uiso
H7F H -0.4323 -0.0511 0.4720 0.0420 Uiso
H4F H -0.1840 -0.0463 0.3890 0.0280 Uiso
H2F H -0.0858 0.0649 0.3510 0.0340 Uiso
I1E I 0.39637(2) 0.26151(3) 0.45136(2) 0.0265 Uani
Cu1E Cu 0.25229(5) 0.33885(5) 0.51931(3) 0.0231 Uani
N2B N 0.3034(3) 0.0599(3) 0.5595(2) 0.0249 Uani
Cu1B Cu 0.24771(5) -0.16115(5) -0.01931(3) 0.0231 Uani
Cu1F Cu -0.24771(5) 0.16115(5) 0.01931(3) 0.0231 Uani
Cu1D Cu -0.24771(5) -0.16115(5) 0.51931(3) 0.0231 Uani
N1E N 0.3115(3) 0.3791(3) 0.6349(2) 0.0244 Uani
N2G N 0.1966(3) 0.4401(3) 0.4405(2) 0.0249 Uani
C11 C 0.8247(7) -0.1399(6) 0.1105(6) 0.0745 Uani
C12 C 0.7431(6) -0.1466(5) 0.0566(4) 0.0584 Uani
H8 H 0.7439 -0.1380 -0.0007 0.0700 Uiso
C13 C 0.6588(5) -0.1664(5) 0.0871(4) 0.0608 Uani
H9 H 0.5999 -0.1722 0.0517 0.0720 Uiso
C14 C 0.6632(9) -0.1774(6) 0.1715(6) 0.0769 Uani
C15 C 0.7475(12) -0.1751(8) 0.2256(7) 0.1225 Uani
H10 H 0.7494 -0.1895 0.2822 0.1470 Uiso
C16 C 0.8231(10) -0.1520(7) 0.1943(7) 0.1224 Uani
H11 H 0.8810 -0.1428 0.2304 0.1470 Uiso
N3 N 0.8981(9) -0.0996(10) 0.0936(10) 0.0536 Uani
O1 O 0.9041(8) -0.0768(9) 0.0238(9) 0.0914 Uani
O2 O 0.9685(7) -0.0872(8) 0.1474(8) 0.0905 Uani
loop_
_atom_site_aniso_label
_atom_site_aniso_U_11
_atom_site_aniso_U_22
_atom_site_aniso_U_33
_atom_site_aniso_U_23
_atom_site_aniso_U_13
_atom_site_aniso_U_12
I1 0.01545(16) 0.0455(3) 0.01948(17) 0.0013(2) 0.00540(12) 0.0016(2)
Cu1 0.0251(4) 0.0300(5) 0.0133(3) 0.0005(3) -0.0007(3) -0.0004(4)
N1 0.036(3) 0.020(3) 0.016(2) -0.003(2) -0.001(2) 0.009(3)
C1 0.040(4) 0.020(4) 0.017(3) -0.002(3) -0.007(3) -0.006(3)
C2 0.039(4) 0.017(4) 0.019(3) -0.006(3) 0.000(3) -0.006(3)
C3 0.049(4) 0.021(4) 0.011(3) 0.002(3) -0.006(3) -0.001(3)
C4 0.029(4) 0.019(4) 0.018(3) -0.003(3) -0.006(3) 0.006(3)
C5 0.034(4) 0.016(4) 0.023(3) 0.000(3) -0.005(3) 0.015(3)
N2 0.033(3) 0.022(3) 0.019(3) 0.000(2) 0.001(2) -0.008(3)
C6 0.026(3) 0.028(4) 0.016(3) 0.005(3) 0.001(2) -0.009(3)
C7 0.040(4) 0.015(4) 0.021(3) 0.000(3) -0.002(3) -0.006(3)
C8 0.048(5) 0.022(4) 0.029(4) -0.005(3) -0.003(3) -0.018(4)
C9 0.029(4) 0.044(5) 0.032(4) -0.006(3) 0.005(3) -0.024(4)
C10 0.048(4) 0.038(5) 0.019(3) -0.005(3) 0.005(3) -0.021(4)
C4F 0.029 0.019 0.018 0.003 -0.006 -0.006
C3F 0.049 0.021 0.011 -0.002 -0.006 0.001
C2F 0.039 0.017 0.019 0.006 0 0.006
C1F 0.04 0.02 0.017 0.002 -0.007 0.006
N1F 0.036 0.02 0.016 0.003 -0.001 -0.009
C5F 0.034 0.016 0.023 0 -0.005 -0.015
C7F 0.04 0.015 0.021 0 -0.002 0.006
C6F 0.026 0.028 0.016 -0.005 0.001 0.009
N2F 0.033 0.022 0.019 0 0.001 0.008
C10F 0.048 0.038 0.019 0.005 0.005 0.021
C9F 0.029 0.044 0.032 0.006 0.005 0.024
C8F 0.048 0.022 0.029 0.005 -0.003 0.018
I1E 0.01545 0.0455 0.01948 0.0013 0.0054 0.0016
Cu1E 0.0251 0.03 0.0133 0.0005 -0.0007 -0.0004
N2B 0.033 0.022 0.019 0 0.001 0.008
Cu1B 0.0251 0.03 0.0133 -0.0005 -0.0007 0.0004
Cu1F 0.0251 0.03 0.0133 -0.0005 -0.0007 0.0004
Cu1D 0.0251 0.03 0.0133 0.0005 -0.0007 -0.0004
N1E 0.036 0.02 0.016 -0.003 -0.001 0.009
N2G 0.033 0.022 0.019 0 0.001 0.008
C11 0.081(7) 0.046(6) 0.088(7) 0.009(5) -0.019(6) -0.032(6)
C12 0.082(6) 0.044(6) 0.048(5) 0.007(4) 0.004(5) -0.010(5)
C13 0.060(6) 0.057(6) 0.064(5) 0.020(5) 0.003(4) 0.018(5)
C14 0.127(9) 0.037(6) 0.080(7) 0.025(5) 0.062(7) 0.032(6)
C15 0.28(2) 0.028(8) 0.059(7) 0.001(6) 0.021(10) 0.033(10)
C16 0.223(17) 0.036(7) 0.081(9) 0.001(7) -0.078(9) -0.024(9)
N3 0.026(8) 0.023(9) 0.108(12) -0.024(9) -0.005(9) 0.011(7)
O1 0.056(8) 0.108(12) 0.118(10) 0.033(9) 0.040(8) 0.021(7)
O2 0.031(7) 0.078(10) 0.162(11) -0.080(9) 0.011(7) -0.007(6)
loop_
_geom_bond_atom_site_label_1
_geom_bond_atom_site_label_2
_geom_bond_site_symmetry_1
_geom_bond_site_symmetry_2
I1 Cu1 1_555 1_555
Cu1 N1 1_555 1_555
N1 C1 1_555 1_555
C1 H1 1_555 1_555
C2 C1 1_555 1_555
C3 C2 1_555 1_555
H2 C3 1_555 1_555
C4 C3 1_555 1_555
C5 N1 1_555 1_555
H3 C5 1_555 1_555
N2 C6 1_555 1_555
C6 H4 1_555 1_555
C7 C2 1_555 1_555
C8 C7 1_555 1_555
H5 C8 1_555 1_555
C9 C8 1_555 1_555
H6 C9 1_555 1_555
C10 N2 1_555 1_555
H7 C10 1_555 1_555
C11 C12 1_555 1_555
C12 H8 1_555 1_555
C13 C12 1_555 1_555
H9 C13 1_555 1_555
C14 C13 1_555 1_555
C15 C14 1_555 1_555
H10 C15 1_555 1_555
C16 C11 1_555 1_555
H11 C16 1_555 1_555
N3 C11 1_555 1_555
O1 N3 1_555 1_555
O2 N3 1_555 1_555
C4F C4 1_555 1_555
C3F C4F 1_555 1_555
C2F C3F 1_555 1_555
C1F C2F 1_555 1_555
N1F C1F 1_555 1_555
C5F C4F 1_555 1_555
H3F C5F 1_555 1_555
H1F C1F 1_555 1_555
C7F C2F 1_555 1_555
C6F C7F 1_555 1_555
N2F C6F 1_555 1_555
C10F N2F 1_555 1_555
C9F C10F 1_555 1_555
C8F C7F 1_555 1_555
H5F C8F 1_555 1_555
H6F C9F 1_555 1_555
H7F C10F 1_555 1_555
H4F C6F 1_555 1_555
H2F C3F 1_555 1_555
I1E Cu1 1_555 1_555
Cu1E I1 1_555 1_555
N2B Cu1 1_555 1_555
Cu1B N2 1_555 1_555
Cu1F N1F 1_555 1_555
Cu1D N2F 1_555 1_555
N1E Cu1E 1_555 1_555
N2G Cu1E 1_555 1_555
Cu1 Cu1E 1_555 1_555
C4 C5 1_555 1_555
C6 C7 1_555 1_555
C9 C10 1_555 1_555
C15 C16 1_555 1_555
N1F C5F 1_555 1_555
C9F C8F 1_555 1_555
I1E Cu1E 1_555 1_555

#END
