
#######################################################################
#
#                 Cambridge Crystallographic Data Centre
#                                CCDC 
#
#######################################################################
#
# If this CIF has been generated from an entry in the Cambridge 
# Structural Database, then it will include bibliographic, chemical, 
# crystal, experimental, refinement or atomic coordinate data resulting 
# from the CCDC's data processing and validation procedures.
#
#######################################################################

data_MIRLUU
_chemical_formula_moiety         '(C20 H14 Eu2 O20)n'
_symmetry_cell_setting           monoclinic
_symmetry_space_group_name_H-M   'P 21/n'
_symmetry_Int_Tables_number      14
_space_group_name_Hall           '-P 2yn'
loop_
_symmetry_equiv_pos_site_id
_symmetry_equiv_pos_as_xyz
1 x,y,z
2 1/2+x,1/2-y,1/2+z
3 -x,-y,-z
4 1/2-x,1/2+y,1/2-z
_cell_length_a                   10.7562(2)
_cell_length_b                   7.2075(2)
_cell_length_c                   17.2180(5)
_cell_angle_alpha                90
_cell_angle_beta                 97.072(2)
_cell_angle_gamma                90
_cell_volume                     1324.68
loop_
_atom_site_label
_atom_site_type_symbol
_atom_site_fract_x
_atom_site_fract_y
_atom_site_fract_z
Eu1 Eu 0.67438(3) -0.48036(3) 0.246952(15)
O1 O 0.4881(5) -0.6166(6) 0.2829(3)
H1 H 0.4424 -0.5350 0.2968
H2 H 0.4620 -0.7330 0.2819
O2 O 0.5822(4) -0.5803(5) 0.1135(2)
O3 O 0.3464(5) -0.3155(6) 0.3508(3)
O4 O 0.3517(6) -0.4516(6) 0.4670(3)
H3 H 0.3284 -0.5424 0.4404
O5 O 0.7026(4) -1.1924(5) 0.1698(2)
O6 O 0.6438(4) -0.8112(5) 0.1920(2)
O7 O 0.5063(4) -1.2519(5) 0.1845(2)
O8 O 0.6115(4) -0.3216(5) 0.3576(2)
O9 O 0.6556(4) -0.0323(5) 0.3242(2)
C1 C 0.5840(6) -1.1718(7) 0.1481(3)
C2 C 0.5946(6) -0.7495(7) 0.1254(3)
C3 C 0.5481(5) -0.8825(7) 0.0619(3)
C4 C 0.5424(5) -1.0746(7) 0.0729(3)
C5 C 0.5048(5) -0.8114(8) -0.0114(3)
H8 H 0.5075 -0.6839 -0.0195
C6 C 0.6079(5) -0.1485(8) 0.3662(3)
C7 C 0.5473(6) -0.0709(8) 0.4333(3)
C8 C 0.3775(6) -0.3182(8) 0.4219(3)
C9 C 0.4474(6) -0.1579(8) 0.4633(3)
C10 C 0.4008(6) -0.0878(8) 0.5298(3)
H9 H 0.3348 -0.1477 0.5495
C5B C 0.4952(5) -1.1886(8) 0.0114(3)
C3B C 0.4519(5) -1.1175(7) -0.0619(3)
C2B C 0.4054(6) -1.2505(7) -0.1254(3)
O2B O 0.4178(4) -1.4197(5) -0.1135(2)
O6B O 0.3562(4) -1.1888(5) -0.1920(2)
C4B C 0.4576(5) -0.9254(7) -0.0729(3)
C1B C 0.4160(6) -0.8282(7) -0.1481(3)
O5B O 0.2974(4) -0.8076(5) -0.1698(2)
O7B O 0.4937(4) -0.7481(5) -0.1845(2)
H8B H 0.4925 -1.3161 0.0195
C10B C 0.5992(6) 0.0878(8) 0.4702(3)
C9B C 0.5526(6) 0.1579(8) 0.5367(3)
C7B C 0.4527(6) 0.0709(8) 0.5667(3)
C6B C 0.3921(5) 0.1485(8) 0.6338(3)
O8B O 0.3885(4) 0.3216(5) 0.6424(2)
O9B O 0.3444(4) 0.0323(5) 0.6758(2)
C8B C 0.6225(6) 0.3182(8) 0.5781(3)
O3B O 0.6536(5) 0.3155(6) 0.6492(3)
O4B O 0.6483(6) 0.4516(6) 0.5330(3)
H3B H 0.6716 0.5424 0.5596
H9B H 0.6652 0.1477 0.4505
Eu1B Eu 0.32562(3) -1.51964(3) -0.246952(15)
O1B O 0.5119(5) -1.3834(6) -0.2829(3)
H1B H 0.5576 -1.4650 -0.2968
H2B H 0.5380 -1.2670 -0.2819
Eu1C Eu 0.82562(3) -0.98036(3) 0.253048(15)
Eu1C_2 Eu 0.82562(3) 0.01964(3) 0.253048(15)
O5_2 O 0.7026(4) -0.1924(5) 0.1698(2)
O5C O 0.7974(4) -0.6924(5) 0.3302(2)
O6C O 0.8562(4) -0.3112(5) 0.3080(2)
O7_2 O 0.5063(4) -0.2519(5) 0.1845(2)
O9C O 0.8444(4) -0.5323(5) 0.1758(2)
Eu1_2 Eu 0.67438(3) -1.48036(3) 0.246952(15)
Eu1A Eu 0.17438(3) -1.01964(3) -0.253048(15)
Eu1B_2 Eu 0.32562(3) -0.51964(3) -0.246952(15)
Eu1B_3 Eu 0.32562(3) 0.48036(3) 0.753048(15)
Eu1A_2 Eu 0.17438(3) -0.01964(3) 0.746952(15)
Eu1A_3 Eu 0.17438(3) -2.01964(3) -0.253048(15)
O5A O 0.2026(4) -1.3076(5) -0.3302(2)
O5B_2 O 0.2974(4) -1.8076(5) -0.1698(2)
O6A O 0.1438(4) -1.6888(5) -0.3080(2)
O7B_2 O 0.4937(4) -1.7481(5) -0.1845(2)
O8B_2 O 0.3885(4) -1.6784(5) -0.3576(2)
O9A O 0.1556(4) -1.4677(5) -0.1758(2)
O10 O 0.3492(5) 0.0628(7) 0.2679(3)
H4 H 0.3637 -0.0542 0.2737
H5 H 0.3161 0.0570 0.2197
O11 O 0.2477(5) -0.7365(8) 0.3865(4)
H6 H 0.1696 -0.7423 0.3663
H7 H 0.2751 -0.8203 0.3566
loop_
_geom_bond_atom_site_label_1
_geom_bond_atom_site_label_2
_geom_bond_site_symmetry_1
_geom_bond_site_symmetry_2
Eu1 O1 1_555 1_555
O1 H1 1_555 1_555
H2 O1 1_555 1_555
O2 Eu1 1_555 1_555
O3 C8 1_555 1_555
O4 H3 1_555 1_555
O5 C1 1_555 1_555
O6 Eu1 1_555 1_555
O7 C1 1_555 1_555
O8 Eu1 1_555 1_555
O9 C6 1_555 1_555
O10 H4 1_555 1_555
H5 O10 1_555 1_555
O11 H6 1_555 1_555
H7 O11 1_555 1_555
C1 C4 1_555 1_555
C2 O2 1_555 1_555
C3 C2 1_555 1_555
C4 C3 1_555 1_555
C5 C3 1_555 1_555
H8 C5 1_555 1_555
C6 O8 1_555 1_555
C7 C6 1_555 1_555
C8 O4 1_555 1_555
C9 C7 1_555 1_555
C10 C9 1_555 1_555
H9 C10 1_555 1_555
C5B C4 1_555 1_555
C3B C5B 1_555 1_555
C2B C3B 1_555 1_555
O2B C2B 1_555 1_555
O6B C2B 1_555 1_555
C4B C5 1_555 1_555
C1B C4B 1_555 1_555
O5B C1B 1_555 1_555
O7B C1B 1_555 1_555
H8B C5B 1_555 1_555
C10B C7 1_555 1_555
C9B C10B 1_555 1_555
C7B C10 1_555 1_555
C6B C7B 1_555 1_555
O8B C6B 1_555 1_555
O9B C6B 1_555 1_555
C8B C9B 1_555 1_555
O3B C8B 1_555 1_555
O4B C8B 1_555 1_555
H3B O4B 1_555 1_555
H9B C10B 1_555 1_555
Eu1B O2B 1_555 1_555
O1B Eu1B 1_555 1_555
H1B O1B 1_555 1_555
H2B O1B 1_555 1_555
Eu1C Eu1 1_555 1_555
Eu1C_2 Eu1 1_555 1_555
O5_2 Eu1 1_555 1_555
O5C Eu1 1_555 1_555
O6C Eu1 1_555 1_555
O7_2 Eu1 1_555 1_555
O9C Eu1 1_555 1_555
Eu1_2 O5 1_555 1_555
Eu1A O6B 1_555 1_555
Eu1B_2 O5B 1_555 1_555
Eu1B_3 O8B 1_555 1_555
Eu1A_2 O9B 1_555 1_555
Eu1A_3 Eu1B 1_555 1_555
O5A Eu1B 1_555 1_555
O5B_2 Eu1B 1_555 1_555
O6A Eu1B 1_555 1_555
O7B_2 Eu1B 1_555 1_555
O8B_2 Eu1B 1_555 1_555
O9A Eu1B 1_555 1_555
O5 Eu1C 1_555 1_555
O6 C2 1_555 1_555
O6 Eu1C 1_555 1_555
O7 Eu1_2 1_555 1_555
O9 Eu1C_2 1_555 1_555
C8 C9 1_555 1_555
C3B C4B 1_555 1_555
O6B Eu1B 1_555 1_555
O5B Eu1A 1_555 1_555
O7B Eu1B_2 1_555 1_555
C9B C7B 1_555 1_555
Eu1B Eu1A 1_555 1_555
Eu1C Eu1_2 1_555 1_555
Eu1C O5C 1_555 1_555
Eu1C_2 O5_2 1_555 1_555
Eu1C_2 O6C 1_555 1_555
Eu1A Eu1B_2 1_555 1_555
Eu1A O5A 1_555 1_555
Eu1B_3 Eu1A_2 1_555 1_555
Eu1A_3 O5B_2 1_555 1_555
Eu1A_3 O6A 1_555 1_555

#END
