
#######################################################################
#
#                 Cambridge Crystallographic Data Centre
#                                CCDC 
#
#######################################################################
#
# If this CIF has been generated from an entry in the Cambridge 
# Structural Database, then it will include bibliographic, chemical, 
# crystal, experimental, refinement or atomic coordinate data resulting 
# from the CCDC's data processing and validation procedures.
#
#######################################################################

data_LUMDIG
_chemical_formula_moiety         '(C12 H10 Cd1 N4 O4)n'
_symmetry_cell_setting           tetragonal
_symmetry_space_group_name_H-M   'I 41/a'
_symmetry_Int_Tables_number      88
_space_group_name_Hall           '-I 4ad'
loop_
_symmetry_equiv_pos_site_id
_symmetry_equiv_pos_as_xyz
1 x,y,z
2 3/4-y,1/4+x,1/4+z
3 1/2+x,1/2+y,1/2+z
4 1/4-y,3/4+x,3/4+z
5 1/4+y,1/4-x,1/4+z
6 1/2+x,y,1/2-z
7 1/4-y,1/4+x,1/4-z
8 x,1/2+y,-z
9 -x,-y,-z
10 1/4+y,3/4-x,3/4-z
11 1/2-x,1/2-y,1/2-z
12 3/4+y,1/4-x,1/4-z
13 3/4-y,3/4+x,3/4-z
14 1/2-x,-y,1/2+z
15 3/4+y,3/4-x,3/4+z
16 -x,1/2-y,z
_cell_length_a                   18.569(3)
_cell_length_b                   18.569(3)
_cell_length_c                   23.015(1)
_cell_angle_alpha                90
_cell_angle_beta                 90
_cell_angle_gamma                90
_cell_volume                     7935.75
loop_
_atom_site_label
_atom_site_type_symbol
_atom_site_fract_x
_atom_site_fract_y
_atom_site_fract_z
Cd1 Cd 0.71571(3) 0.82877(4) 0.87897(3)
N1 N 0.5770(4) 0.8589(4) 0.7329(3)
H1 H 0.5735 0.8678 0.6964
N2 N 0.6266(4) 0.8437(4) 0.8171(3)
N3 N 0.7264(4) 0.5939(4) 0.8907(3)
H2 H 0.7325 0.5527 0.8743
N4 N 0.7110(4) 0.7107(4) 0.8993(3)
O1 O 0.7059(4) 0.3654(4) 1.0260(3)
O2 O 0.7252(4) 0.4544(4) 1.0876(3)
O3 O 0.3365(4) 0.8315(4) 0.6257(3)
O4 O 0.2979(4) 0.8325(5) 0.7160(3)
C1 C 0.5207(5) 0.8444(5) 0.7696(4)
C2 C 0.5533(5) 0.8341(6) 0.8218(4)
H3 H 0.5294 0.8223 0.8559
C3 C 0.6378(5) 0.8571(5) 0.7630(4)
H4 H 0.6832 0.8647 0.747
C4 C 0.4462(5) 0.8381(5) 0.7520(4)
H5 H 0.412 0.8315 0.7809
C5 C 0.4236(5) 0.8410(5) 0.6983(4)
H6 H 0.4577 0.8478 0.6692
C6 C 0.3478(5) 0.8342(5) 0.6810(4)
C7 C 0.7214(5) 0.6064(5) 0.9492(4)
C8 C 0.7119(6) 0.6793(5) 0.9529(4)
H7 H 0.7066 0.7043 0.9876
C9 C 0.7202(6) 0.6569(6) 0.8640(4)
H8 H 0.7222 0.6621 0.8239
C10 C 0.7223(5) 0.5527(5) 0.9935(4)
H9 H 0.7233 0.5693 1.0316
C11 C 0.7218(5) 0.4823(5) 0.9867(5)
H10 H 0.7247 0.4639 0.9492
C12 C 0.7171(5) 0.4309(6) 1.0359(5)
O1G O 0.7059(4) 0.8654(4) 0.9740(3)
O2G O 0.7252(4) 0.9544(4) 0.9124(3)
O3E O 0.8365(4) 0.8315(4) 0.8743(3)
O4E O 0.7979(4) 0.8325(5) 0.7840(3)
Cd1G Cd 0.71571(3) 0.32877(4) 1.12103(3)
Cd1E Cd 0.21571(3) 0.82877(4) 0.62103(3)
loop_
_geom_bond_atom_site_label_1
_geom_bond_atom_site_label_2
_geom_bond_site_symmetry_1
_geom_bond_site_symmetry_2
Cd1 N2 1_555 1_555
N1 H1 1_555 1_555
N2 C2 1_555 1_555
N3 H2 1_555 1_555
N4 Cd1 1_555 1_555
O1 C12 1_555 1_555
O2 C12 1_555 1_555
O3 C6 1_555 1_555
O4 C6 1_555 1_555
C1 N1 1_555 1_555
C2 C1 1_555 1_555
H3 C2 1_555 1_555
C3 N1 1_555 1_555
H4 C3 1_555 1_555
C4 C1 1_555 1_555
H5 C4 1_555 1_555
C5 C4 1_555 1_555
H6 C5 1_555 1_555
C6 C5 1_555 1_555
C7 N3 1_555 1_555
C8 N4 1_555 1_555
H7 C8 1_555 1_555
C9 N3 1_555 1_555
H8 C9 1_555 1_555
C10 C7 1_555 1_555
H9 C10 1_555 1_555
C11 C10 1_555 1_555
H10 C11 1_555 1_555
C12 C11 1_555 1_555
O1G Cd1 1_555 1_555
O2G Cd1 1_555 1_555
O3E Cd1 1_555 1_555
O4E Cd1 1_555 1_555
Cd1G O1 1_555 1_555
Cd1E O3 1_555 1_555
N2 C3 1_555 1_555
N4 C9 1_555 1_555
O2 Cd1G 1_555 1_555
O4 Cd1E 1_555 1_555
C7 C8 1_555 1_555

#END
