
#######################################################################
#
#                 Cambridge Crystallographic Data Centre
#                                CCDC 
#
#######################################################################
#
# If this CIF has been generated from an entry in the Cambridge 
# Structural Database, then it will include bibliographic, chemical, 
# crystal, experimental, refinement or atomic coordinate data resulting 
# from the CCDC's data processing and validation procedures.
#
#######################################################################

data_ECIWUJ01
_chemical_formula_moiety         '(C26 H16 N2 O8 Zn2)n'
_symmetry_cell_setting           triclinic
_symmetry_space_group_name_H-M   'P -1'
_symmetry_Int_Tables_number      2
_space_group_name_Hall           '-P 1'
loop_
_symmetry_equiv_pos_site_id
_symmetry_equiv_pos_as_xyz
1 x,y,z
2 -x,-y,-z
_cell_length_a                   10.887(5)
_cell_length_b                   10.896(4)
_cell_length_c                   14.070(6)
_cell_angle_alpha                91.252(4)
_cell_angle_beta                 92.588(5)
_cell_angle_gamma                104.430(5)
_cell_volume                     1613.8
loop_
_atom_site_label
_atom_site_type_symbol
_atom_site_fract_x
_atom_site_fract_y
_atom_site_fract_z
Zn1 Zn 0.32379(8) 0.24884(8) 0.18137(5)
O1 O 0.3446(6) 0.4357(5) 0.2105(4)
N1 N 0.3249(6) 0.2497(6) 0.0355(4)
C1 C 0.3471(8) 0.4929(7) 0.2897(5)
Zn2 Zn 0.34049(8) 0.25969(8) 0.39126(5)
O2 O 0.3557(5) 0.4448(5) 0.3687(4)
N2 N 0.3382(6) 0.2599(6) -0.4645(4)
C2 C 0.3371(7) 0.6264(7) 0.2873(5)
O3 O 0.3060(6) 1.0628(5) 0.2046(4)
C3 C 0.3225(8) 0.6870(8) 0.2037(6)
H1 H 0.3189 0.6420 0.1462
O4 O 0.3274(6) 1.0733(5) 0.3645(4)
C4 C 0.3132(9) 0.8098(8) 0.2015(6)
H2 H 0.3012 0.8464 0.1438
O5 O 0.1348(6) 0.2254(6) 0.1971(5)
C5 C 0.3219(8) 0.8793(7) 0.2870(6)
O6 O 0.1507(5) 0.2310(6) 0.3559(4)
C6 C 0.3400(8) 0.8233(8) 0.3726(5)
H3 H 0.3490 0.8704 0.4296
O7 O -0.4860(6) 0.2745(6) 0.2118(5)
C7 C 0.3447(8) 0.6994(7) 0.3733(6)
H4 H 0.3531 0.6619 0.4312
O8 O -0.4688(5) 0.2863(6) 0.3687(4)
C8 C 0.3193(8) 1.0162(8) 0.2858(6)
C9 C 0.0908(8) 0.2274(8) 0.2767(6)
C10 C -0.0442(8) 0.2347(8) 0.2812(6)
C11 C -0.1221(8) 0.2264(10) 0.1942(7)
H5 H -0.0924 0.2114 0.1352
C12 C -0.2387(9) 0.2416(9) 0.2032(7)
H6 H -0.2885 0.2396 0.1475
C13 C -0.2920(8) 0.2598(8) 0.2870(6)
C14 C -0.2166(10) 0.2617(10) 0.3647(7)
H7 H -0.2487 0.2742 0.4233
C15 C -0.1007(10) 0.2471(10) 0.3647(6)
H8 H -0.0561 0.2452 0.4223
C16 C -0.4237(8) 0.2732(7) 0.2888(7)
C17 C 0.3292(7) 0.2541(8) -0.1624(6)
C18 C 0.3293(7) 0.2550(7) -0.2665(5)
C19 C 0.3263(17) 0.3666(14) -0.3172(10)
H9 H 0.3128 0.4382 -0.2865
C20 C 0.3441(7) 0.3636(8) -0.4124(5)
H10 H 0.3617 0.4404 -0.4429
C21 C 0.3360(16) 0.1522(11) -0.4173(8)
H11 H 0.3348 0.0789 -0.4527
C22 C 0.3355(18) 0.1459(12) -0.3211(8)
H12 H 0.3391 0.0713 -0.2915
C23 C 0.3768(17) 0.3524(16) -0.0105(11)
H13 H 0.4175 0.4253 0.0251
C24 C 0.3742(15) 0.3578(14) -0.1056(10)
H14 H 0.4045 0.4357 -0.1331
C25 C 0.279(2) 0.1459(18) -0.1166(13)
H15 H 0.2484 0.0708 -0.1523
C26 C 0.2706(17) 0.1436(16) -0.0210(12)
H16 H 0.2281 0.0694 0.0068
Zn1_2 Zn -0.67621(8) 0.24884(8) 0.18137(5)
Zn1_3 Zn 0.32379(8) 1.24884(8) 0.18137(5)
Zn2_2 Zn -0.65951(8) 0.25969(8) 0.39126(5)
Zn2_3 Zn 0.34049(8) 0.25969(8) -0.60874(5)
Zn2_4 Zn 0.34049(8) 1.25969(8) 0.39126(5)
N2_2 N 0.3382(6) 0.2599(6) 0.5355(4)
O3_2 O 0.3060(6) 0.0628(5) 0.2046(4)
O4_2 O 0.3274(6) 0.0733(5) 0.3645(4)
O7_2 O 0.5140(6) 0.2745(6) 0.2118(5)
O8_2 O 0.5312(5) 0.2863(6) 0.3687(4)
loop_
_geom_bond_atom_site_label_1
_geom_bond_atom_site_label_2
_geom_bond_site_symmetry_1
_geom_bond_site_symmetry_2
Zn1 O1 1_555 1_555
O1 C1 1_555 1_555
N1 Zn1 1_555 1_555
C1 O2 1_555 1_555
Zn2 O2 1_555 1_555
N2 C20 1_555 1_555
C2 C1 1_555 1_555
O3 C8 1_555 1_555
C3 C2 1_555 1_555
H1 C3 1_555 1_555
O4 C8 1_555 1_555
C4 C3 1_555 1_555
H2 C4 1_555 1_555
O5 Zn1 1_555 1_555
C5 C4 1_555 1_555
O6 Zn2 1_555 1_555
C6 C5 1_555 1_555
H3 C6 1_555 1_555
O7 C16 1_555 1_555
C7 C2 1_555 1_555
H4 C7 1_555 1_555
O8 C16 1_555 1_555
C8 C5 1_555 1_555
C9 O5 1_555 1_555
C10 C9 1_555 1_555
C11 C10 1_555 1_555
H5 C11 1_555 1_555
C12 C11 1_555 1_555
H6 C12 1_555 1_555
C13 C12 1_555 1_555
C14 C13 1_555 1_555
H7 C14 1_555 1_555
C15 C10 1_555 1_555
H8 C15 1_555 1_555
C16 C13 1_555 1_555
C17 C18 1_555 1_555
C18 C19 1_555 1_555
C19 H9 1_555 1_555
C20 C19 1_555 1_555
H10 C20 1_555 1_555
C21 N2 1_555 1_555
H11 C21 1_555 1_555
C22 C18 1_555 1_555
H12 C22 1_555 1_555
C23 N1 1_555 1_555
H13 C23 1_555 1_555
C24 C17 1_555 1_555
H14 C24 1_555 1_555
C25 C17 1_555 1_555
H15 C25 1_555 1_555
C26 N1 1_555 1_555
H16 C26 1_555 1_555
Zn1_2 O7 1_555 1_555
Zn1_3 O3 1_555 1_555
Zn2_2 O8 1_555 1_555
Zn2_3 N2 1_555 1_555
Zn2_4 O4 1_555 1_555
N2_2 Zn2 1_555 1_555
O3_2 Zn1 1_555 1_555
O4_2 Zn2 1_555 1_555
O7_2 Zn1 1_555 1_555
O8_2 Zn2 1_555 1_555
O6 C9 1_555 1_555
C6 C7 1_555 1_555
C14 C15 1_555 1_555
C21 C22 1_555 1_555
C23 C24 1_555 1_555
C25 C26 1_555 1_555

#END
