
#######################################################################
#
#                 Cambridge Crystallographic Data Centre
#                                CCDC 
#
#######################################################################
#
# If this CIF has been generated from an entry in the Cambridge 
# Structural Database, then it will include bibliographic, chemical, 
# crystal, experimental, refinement or atomic coordinate data resulting 
# from the CCDC's data processing and validation procedures.
#
#######################################################################

data_ECIWUJ04
_chemical_formula_moiety         '(C26 H16 N2 O8 Zn2)n'
_symmetry_cell_setting           monoclinic
_symmetry_space_group_name_H-M   'P 21/c'
_symmetry_Int_Tables_number      14
_space_group_name_Hall           '-P 2ybc'
loop_
_symmetry_equiv_pos_site_id
_symmetry_equiv_pos_as_xyz
1 x,y,z
2 -x,1/2+y,1/2-z
3 -x,-y,-z
4 x,1/2-y,1/2+z
_cell_length_a                   14.065(8)
_cell_length_b                   10.949(6)
_cell_length_c                   21.771(13)
_cell_angle_alpha                90
_cell_angle_beta                 94.319(9)
_cell_angle_gamma                90
_cell_volume                     3343.16
loop_
_atom_site_label
_atom_site_type_symbol
_atom_site_fract_x
_atom_site_fract_y
_atom_site_fract_z
Zn1 Zn 0.32000(3) 0.29499(4) 0.08762(2)
O1 O 0.2909(3) 0.2961(3) -0.00610(16)
N1 N 0.4657(3) 0.2949(3) 0.08897(18)
C1 C 0.2129(4) 0.2835(4) -0.0367(2)
Zn2 Zn 0.11059(3) 0.29462(4) 0.07689(2)
O2 O 0.1326(3) 0.2867(3) -0.01533(16)
N2 N 0.9657(3) 0.2954(3) 0.08057(19)
C2 C 0.2168(4) 0.2642(5) -0.1049(2)
O3 O 0.3083(3) 0.2103(4) -0.32051(17)
C3 C 0.3028(5) 0.2674(7) -0.1315(3)
H1 H 0.3590 0.2816 -0.1072
O4 O 0.1492(3) 0.2032(3) -0.33057(16)
C4 C 0.3055(4) 0.2497(7) -0.1942(3)
H2 H 0.3639 0.2520 -0.2115
O5 O 0.2904(3) 0.1119(3) 0.08457(18)
C5 C 0.2239(4) 0.2287(4) -0.2317(2)
O6 O 0.1340(2) 0.1115(3) 0.07894(18)
C6 C 0.1392(4) 0.2255(6) -0.2044(3)
H3 H 0.0830 0.2121 -0.2288
O7 O 0.2940(2) -0.5222(3) 0.08532(16)
C7 C 0.1350(4) 0.2418(6) -0.1415(3)
H4 H 0.0766 0.2376 -0.1241
O8 O 0.1342(2) -0.5235(3) 0.07513(16)
C8 C 0.2274(4) 0.2121(4) -0.2997(2)
C9 C 0.2116(4) 0.0596(4) 0.0814(2)
C10 C 0.2133(3) -0.0774(4) 0.0816(2)
C11 C 0.2985(3) -0.1415(4) 0.0878(3)
H5 H 0.3562 -0.0995 0.0915
C12 C 0.2980(4) -0.2680(4) 0.0887(3)
H6 H 0.3553 -0.3104 0.0947
C13 C 0.2121(3) -0.3325(4) 0.0807(2)
C14 C 0.1281(4) -0.2688(4) 0.0740(2)
H7 H 0.0707 -0.3111 0.0690
C15 C 0.1272(4) -0.1438(4) 0.0745(2)
H8 H 0.0694 -0.1023 0.0702
C16 C 0.2126(4) -0.4697(4) 0.0811(2)
C17 C 0.5184(7) 0.2242(9) 0.1279(6)
H9 H 0.4874 0.1721 0.1537
C18 C 0.6185(7) 0.2246(9) 0.1320(5)
H10 H 0.6539 0.1808 0.1623
C19 C 0.6632(4) 0.2954(5) 0.0875(2)
C20 C 0.6071(6) 0.3661(9) 0.0471(5)
H11 H 0.6352 0.4153 0.0186
C21 C 0.5104(6) 0.3643(9) 0.0487(5)
H12 H 0.4737 0.4128 0.0210
C22 C 0.9176(7) 0.1897(10) 0.0767(8)
H13 H 0.9517 0.1187 0.0704
C23 C 0.8182(8) 0.1793(11) 0.0817(8)
H14 H 0.7874 0.1042 0.0825
C24 C 0.7685(4) 0.2928(4) 0.0855(2)
C25 C 0.8208(8) 0.4042(11) 0.0895(9)
H15 H 0.7897 0.4780 0.0945
C26 C 0.9169(8) 0.4013(10) 0.0860(8)
H16 H 0.9503 0.4746 0.0873
Zn1_2 Zn 0.32000(3) -0.70501(4) 0.08762(2)
Zn1C Zn 0.32000(3) 0.20501(4) -0.41238(2)
Zn2_2 Zn 0.11059(3) -0.70538(4) 0.07689(2)
Zn2_3 Zn 1.11059(3) 0.29462(4) 0.07689(2)
Zn2C Zn 0.11059(3) 0.20538(4) -0.42311(2)
N2_2 N -0.0343(3) 0.2954(3) 0.08057(19)
O3C O 0.3083(3) 0.2897(4) 0.17949(17)
O4C O 0.1492(3) 0.2968(3) 0.16943(16)
O7_2 O 0.2940(2) 0.4778(3) 0.08532(16)
O8_2 O 0.1342(2) 0.4765(3) 0.07513(16)
loop_
_geom_bond_atom_site_label_1
_geom_bond_atom_site_label_2
_geom_bond_site_symmetry_1
_geom_bond_site_symmetry_2
Zn1 O1 1_555 1_555
O1 C1 1_555 1_555
N1 Zn1 1_555 1_555
C1 O2 1_555 1_555
Zn2 O2 1_555 1_555
N2 C22 1_555 1_555
C2 C1 1_555 1_555
O3 C8 1_555 1_555
C3 C2 1_555 1_555
H1 C3 1_555 1_555
O4 C8 1_555 1_555
C4 C3 1_555 1_555
H2 C4 1_555 1_555
O5 Zn1 1_555 1_555
C5 C4 1_555 1_555
O6 Zn2 1_555 1_555
C6 C5 1_555 1_555
H3 C6 1_555 1_555
O7 C16 1_555 1_555
C7 C2 1_555 1_555
H4 C7 1_555 1_555
O8 C16 1_555 1_555
C8 C5 1_555 1_555
C9 O5 1_555 1_555
C10 C9 1_555 1_555
C11 C10 1_555 1_555
H5 C11 1_555 1_555
C12 C11 1_555 1_555
H6 C12 1_555 1_555
C13 C12 1_555 1_555
C14 C13 1_555 1_555
H7 C14 1_555 1_555
C15 C10 1_555 1_555
H8 C15 1_555 1_555
C16 C13 1_555 1_555
C17 N1 1_555 1_555
H9 C17 1_555 1_555
C18 C17 1_555 1_555
H10 C18 1_555 1_555
C19 C18 1_555 1_555
C20 C19 1_555 1_555
H11 C20 1_555 1_555
C21 N1 1_555 1_555
H12 C21 1_555 1_555
C22 H13 1_555 1_555
C23 C22 1_555 1_555
H14 C23 1_555 1_555
C24 C19 1_555 1_555
C25 C24 1_555 1_555
H15 C25 1_555 1_555
C26 N2 1_555 1_555
H16 C26 1_555 1_555
Zn1_2 O7 1_555 1_555
Zn1C O3 1_555 1_555
Zn2_2 O8 1_555 1_555
Zn2_3 N2 1_555 1_555
Zn2C O4 1_555 1_555
N2_2 Zn2 1_555 1_555
O3C Zn1 1_555 1_555
O4C Zn2 1_555 1_555
O7_2 Zn1 1_555 1_555
O8_2 Zn2 1_555 1_555
O6 C9 1_555 1_555
C6 C7 1_555 1_555
C14 C15 1_555 1_555
C20 C21 1_555 1_555
C23 C24 1_555 1_555
C25 C26 1_555 1_555

#END
