
#######################################################################
#
#                 Cambridge Crystallographic Data Centre
#                                CCDC 
#
#######################################################################
#
# If this CIF has been generated from an entry in the Cambridge 
# Structural Database, then it will include bibliographic, chemical, 
# crystal, experimental, refinement or atomic coordinate data resulting 
# from the CCDC's data processing and validation procedures.
#
#######################################################################

data_CAXTAY
_chemical_formula_moiety         '(C24 H32 Al4 O16)n'
_symmetry_cell_setting           rhombohedral
_symmetry_space_group_name_H-M   'R -3 m'
_symmetry_Int_Tables_number      166
_space_group_name_Hall           '-R 3 2"'
loop_
_symmetry_equiv_pos_site_id
_symmetry_equiv_pos_as_xyz
1 x,y,z
2 -y,x-y,z
3 y,x,-z
4 -x+y,-x,z
5 -x,-x+y,-z
6 x-y,-y,-z
7 1/3+x,2/3+y,2/3+z
8 1/3-y,2/3+x-y,2/3+z
9 1/3+y,2/3+x,2/3-z
10 1/3-x+y,2/3-x,2/3+z
11 1/3-x,2/3-x+y,2/3-z
12 1/3+x-y,2/3-y,2/3-z
13 2/3+x,1/3+y,1/3+z
14 2/3-y,1/3+x-y,1/3+z
15 2/3+y,1/3+x,1/3-z
16 2/3-x+y,1/3-x,1/3+z
17 2/3-x,1/3-x+y,1/3-z
18 2/3+x-y,1/3-y,1/3-z
19 -x,-y,-z
20 y,-x+y,-z
21 -y,-x,z
22 x-y,x,-z
23 x,x-y,z
24 -x+y,y,z
25 2/3-x,1/3-y,1/3-z
26 2/3+y,1/3-x+y,1/3-z
27 2/3-y,1/3-x,1/3+z
28 2/3+x-y,1/3+x,1/3-z
29 2/3+x,1/3+x-y,1/3+z
30 2/3-x+y,1/3+y,1/3+z
31 1/3-x,2/3-y,2/3-z
32 1/3+y,2/3-x+y,2/3-z
33 1/3-y,2/3-x,2/3+z
34 1/3+x-y,2/3+x,2/3-z
35 1/3+x,2/3+x-y,2/3+z
36 1/3-x+y,2/3+y,2/3+z
_cell_length_a                   21.10506(54)
_cell_length_b                   21.10506(54)
_cell_length_c                   34.8884(11)
_cell_angle_alpha                90
_cell_angle_beta                 90
_cell_angle_gamma                120
_cell_volume                     13458.1
loop_
_atom_site_label
_atom_site_type_symbol
_atom_site_fract_x
_atom_site_fract_y
_atom_site_fract_z
_atom_site_U_iso_or_equiv
_atom_site_thermal_displace_type
Al1 Al 0.28272(53) 0.07419(50) 0.51538(28) 0.0377 Uiso
O1 O 0.31486(79) 0.10464(67) 0.56846(31) 0.0214 Uiso
C1 C 0.3158(16) 0.15792(79) 0.58317(33) 0.0375 Uiso
C2 C 0.32542(78) 0.16271(39) 0.62703(30) 0.0375 Uiso
C3 C 0.32761(57) 0.10613(37) 0.64679(19) 0.0375 Uiso
O2 O 0.36792(83) 0.05859(64) 0.51170(42) 0.0214 Uiso
C4 C 0.36092(56) 0.00000 0.50000 0.0375 Uiso
C5 C 0.43397(53) 0.00000 0.50000 0.0375 Uiso
C6 C 0.43749(37) -0.05909(33) 0.48589(34) 0.0375 Uiso
O3 O 0.3437(13) 0.17184(63) 0.49654(54) 0.0214 Uiso
C7 C 0.4211(20) 0.2106(10) 0.48467(96) 0.0923 Uiso
O4 O 0.24815(83) 0.0210(10) 0.46882(41) 0.0214 Uiso
C8 C 0.2702(14) 0.0601(13) 0.43210(70) 0.0923 Uiso
O5 O 0.2149(12) 0.10746(61) 0.52161(62) 0.0214 Uiso
C9 C 0.1400(16) 0.07000(79) 0.54032(92) 0.0923 Uiso
Al1V Al 0.28272(53) 0.20853(73) 0.51538(28) 0.0377 Uiso
Al1P Al 0.38395(53) 0.12480(73) 0.81795(28) 0.0377 Uiso
Al1X Al 0.38395(53) 0.25914(50) 0.81795(28) 0.0377 Uiso
Al1E Al 0.20853(73) -0.07419(50) 0.48462(28) 0.0377 Uiso
Al1W Al 0.79147(73) 0.07419(50) 0.51538(28) 0.0377 Uiso
Al1R Al 0.71728(53) -0.07419(50) 0.48462(28) 0.0377 Uiso
Al1U Al 0.20853(73) 0.28272(53) 0.48462(28) 0.0377 Uiso
O1V O 0.31486(79) 0.2102(10) 0.56846(31) 0.0214 Uiso
O1P O 0.35181(79) 0.1231(10) 0.76487(31) 0.0214 Uiso
O1X O 0.35181(79) 0.22869(67) 0.76487(31) 0.0214 Uiso
C1P C 0.3509(16) 0.1755(18) 0.75016(33) 0.0375 Uiso
C2P C 0.34125(78) 0.17062(87) 0.70630(30) 0.0375 Uiso
C3P C 0.33906(57) 0.11185(68) 0.68654(19) 0.0375 Uiso
C3X C 0.33906(57) 0.22720(37) 0.68654(19) 0.0375 Uiso
C3V C 0.32761(57) 0.22148(68) 0.64679(19) 0.0375 Uiso
O2E O 0.3093(11) -0.05859(64) 0.48830(42) 0.0214 Uiso
O2W O 0.6907(11) 0.05859(64) 0.51170(42) 0.0214 Uiso
O2R O 0.63208(83) -0.05859(64) 0.48830(42) 0.0214 Uiso
O2V O 0.36792(83) 0.3093(11) 0.51170(42) 0.0214 Uiso
O2P O 0.29875(83) 0.0240(11) 0.82163(42) 0.0214 Uiso
O2X O 0.29875(83) 0.27474(64) 0.82163(42) 0.0214 Uiso
C4R C 0.63908(56) 0.00000 0.50000 0.0375 Uiso
C5R C 0.56603(53) 0.00000 0.50000 0.0375 Uiso
C6W C 0.50342(50) -0.05909(33) 0.48589(34) 0.0375 Uiso
C6R C 0.56251(37) 0.05909(33) 0.51411(34) 0.0375 Uiso
C6E C 0.49658(50) 0.05909(33) 0.51411(34) 0.0375 Uiso
O3P O 0.3230(13) 0.1615(14) 0.83679(54) 0.0214 Uiso
C7P C 0.2456(20) 0.1228(22) 0.84866(96) 0.0923 Uiso
O4E O 0.2271(13) -0.0210(10) 0.53118(41) 0.0214 Uiso
O4V O 0.24815(83) 0.2272(13) 0.46882(41) 0.0214 Uiso
O4U O 0.2272(13) 0.24815(83) 0.53118(41) 0.0214 Uiso
O4P O 0.41852(83) 0.1062(13) 0.86451(41) 0.0214 Uiso
O4O O 0.4395(13) 0.08518(83) 0.80215(41) 0.0214 Uiso
O4X O 0.41852(83) 0.3123(10) 0.86451(41) 0.0214 Uiso
O4CA O 0.4395(13) 0.3543(10) 0.80215(41) 0.0214 Uiso
C8E C 0.2101(19) -0.0601(13) 0.56790(70) 0.0923 Uiso
C8V C 0.2702(14) 0.2101(19) 0.43210(70) 0.0923 Uiso
C8U C 0.2101(19) 0.2702(14) 0.56790(70) 0.0923 Uiso
O5P O 0.4518(12) 0.2259(14) 0.81172(62) 0.0214 Uiso
C9P C 0.5267(16) 0.2633(18) 0.79301(92) 0.0923 Uiso
loop_
_geom_bond_atom_site_label_1
_geom_bond_atom_site_label_2
_geom_bond_site_symmetry_1
_geom_bond_site_symmetry_2
Al1 O1 1_555 1_555
O1 C1 1_555 1_555
C1 C2 1_555 1_555
C2 C3 1_555 1_555
C3 C3P 1_555 1_555
O2 Al1 1_555 1_555
C4 O2 1_555 1_555
C5 C4 1_555 1_555
C6 C5 1_555 1_555
O3 Al1 1_555 1_555
C7 O3 1_555 1_555
O4 Al1 1_555 1_555
C8 O4 1_555 1_555
O5 Al1 1_555 1_555
C9 O5 1_555 1_555
Al1V O3 1_555 1_555
Al1P O1P 1_555 1_555
Al1X O1X 1_555 1_555
Al1E O4 1_555 1_555
Al1W O2W 1_555 1_555
Al1R O2R 1_555 1_555
Al1U O4V 1_555 1_555
O1V C1 1_555 1_555
O1P C1P 1_555 1_555
O1X C1P 1_555 1_555
C1P C2P 1_555 1_555
C2P C3P 1_555 1_555
C3X C2P 1_555 1_555
C3V C2 1_555 1_555
O2E C4 1_555 1_555
O2W C4R 1_555 1_555
O2R C4R 1_555 1_555
O2V Al1V 1_555 1_555
O2P Al1P 1_555 1_555
O2X Al1X 1_555 1_555
C4R C5R 1_555 1_555
C5R C6W 1_555 1_555
C6W C6 1_555 1_555
C6R C5R 1_555 1_555
C6E C5 1_555 1_555
O3P Al1P 1_555 1_555
C7P O3P 1_555 1_555
O4E Al1 1_555 1_555
O4V Al1V 1_555 1_555
O4U Al1V 1_555 1_555
O4P Al1P 1_555 1_555
O4O Al1P 1_555 1_555
O4X Al1X 1_555 1_555
O4CA Al1X 1_555 1_555
C8E O4E 1_555 1_555
C8V O4V 1_555 1_555
C8U O4U 1_555 1_555
O5P Al1P 1_555 1_555
C9P O5P 1_555 1_555
O5 Al1V 1_555 1_555
Al1V O1V 1_555 1_555
Al1X O3P 1_555 1_555
Al1X O5P 1_555 1_555
Al1E O2E 1_555 1_555
Al1E O4E 1_555 1_555
Al1U O4U 1_555 1_555
C3X C3V 1_555 1_555
C6R C6E 1_555 1_555

#END
