
#######################################################################
#
#                 Cambridge Crystallographic Data Centre
#                                CCDC 
#
#######################################################################
#
# If this CIF has been generated from an entry in the Cambridge 
# Structural Database, then it will include bibliographic, chemical, 
# crystal, experimental, refinement or atomic coordinate data resulting 
# from the CCDC's data processing and validation procedures.
#
#######################################################################

data_LIPQOR
_chemical_formula_moiety         '(C28 H32 Cl5 Cu3 N16 O12 1+)n'
_symmetry_cell_setting           rhombohedral
_symmetry_space_group_name_H-M   'R -3'
_symmetry_Int_Tables_number      148
_space_group_name_Hall           '-R 3'
loop_
_symmetry_equiv_pos_site_id
_symmetry_equiv_pos_as_xyz
1 x,y,z
2 -y,x-y,z
3 -x+y,-x,z
4 2/3+x,1/3+y,1/3+z
5 2/3-y,1/3+x-y,1/3+z
6 2/3-x+y,1/3-x,1/3+z
7 1/3+x,2/3+y,2/3+z
8 1/3-y,2/3+x-y,2/3+z
9 1/3-x+y,2/3-x,2/3+z
10 -x,-y,-z
11 y,-x+y,-z
12 x-y,x,-z
13 1/3-x,2/3-y,2/3-z
14 1/3+y,2/3-x+y,2/3-z
15 1/3+x-y,2/3+x,2/3-z
16 2/3-x,1/3-y,1/3-z
17 2/3+y,1/3-x+y,1/3-z
18 2/3+x-y,1/3+x,1/3-z
_cell_length_a                   24.777(5)
_cell_length_b                   24.777(5)
_cell_length_c                   26.489(9)
_cell_angle_alpha                90
_cell_angle_beta                 90
_cell_angle_gamma                120.00
_cell_volume                     14082.9
loop_
_atom_site_label
_atom_site_type_symbol
_atom_site_fract_x
_atom_site_fract_y
_atom_site_fract_z
Cu1 Cu 0.13271(4) -0.35339(4) 0.02762(3)
Cu2 Cu -0.0000 -0.5000 0.0000
N1 N 0.0328(2) -0.4734(2) 0.07058(19)
N2 N 0.0845(2) -0.4172(2) 0.08360(19)
N3 N 0.0496(2) -0.4772(2) 0.15060(19)
N4 N 0.0835(3) -0.5300(2) 0.2686(2)
N5 N 0.1385(2) -0.4227(2) -0.00731(18)
N6 N 0.0868(2) -0.4783(2) -0.02198(19)
N7 N 0.1688(2) -0.4835(2) -0.0408(2)
N8 N 0.2936(3) -0.5203(2) -0.0286(2)
C1 C 0.0126(3) -0.5080(3) 0.1106(3)
H1 H -0.0219 -0.5478 0.1118
C2 C 0.0946(3) -0.4210(3) 0.1320(3)
H2 H 0.1274 -0.3902 0.1506
C3 C 0.0425(3) -0.5022(3) 0.2003(2)
C4 C -0.0134(5) -0.5227(4) 0.2240(3)
H3 H -0.0447 -0.5176 0.2095
C5 C -0.0217(5) -0.5517(4) 0.2714(3)
H4 H -0.0596 -0.5688 0.2881
C6 C 0.0900(3) -0.5042(3) 0.2232(2)
H5 H 0.1283 -0.4871 0.2069
C7 C 0.0281(4) -0.5539(3) 0.2922(3)
H6 H 0.0232 -0.5725 0.3236
C8 C 0.1868(3) -0.4271(3) -0.0191(2)
H7 H 0.2279 -0.3963 -0.0136
C9 C 0.1062(3) -0.5135(3) -0.0414(2)
H8 H 0.0806 -0.5536 -0.0539
C10 C 0.2093(3) -0.5061(3) -0.0545(3)
C11 C 0.2523(3) -0.5015(3) -0.0195(3)
H9 H 0.2528 -0.4846 0.0120
C12 C 0.2903(4) -0.5457(4) -0.0738(3)
H10 H 0.3189 -0.5584 -0.0815
C13 C 0.2464(4) -0.5539(4) -0.1093(3)
H11 H 0.2452 -0.5729 -0.1398
C14 C 0.2046(4) -0.5345(4) -0.1004(3)
H12 H 0.1745 -0.5401 -0.1241
Cl1 Cl 0.02836(8) -0.38522(8) -0.01743(6)
O11 O 0.2304(2) -0.33727(19) 0.07732(15)
Cu1I Cu -0.13271(4) -0.64661(4) -0.02762(3)
Cu1Q Cu 0.15277(6) -0.53396(4) 0.30571(3)
Cu1A Cu 0.35339(4) -0.51390(6) 0.02762(3)
Cu1H Cu -0.15277(6) -0.46604(4) -0.30571(3)
Cu1J Cu -0.35339(4) -0.48610(6) -0.02762(3)
N1I N -0.0328(2) -0.5266(2) -0.07058(19)
N2I N -0.0845(2) -0.5828(2) -0.08360(19)
N3I N -0.0496(2) -0.5228(2) -0.15060(19)
N4G N -0.1367(2) -0.7198(4) -0.0647(2)
N4P N 0.1367(2) -0.2802(4) 0.0647(2)
N4I N -0.0835(3) -0.4700(2) -0.2686(2)
N5I N -0.1385(2) -0.5773(2) 0.00731(18)
N6I N -0.0868(2) -0.5217(2) 0.02198(19)
N7I N -0.1688(2) -0.5165(2) 0.0408(2)
N8K N -0.1861(4) -0.7064(3) 0.0286(2)
N8B N 0.1861(4) -0.2936(3) -0.0286(2)
N8I N -0.2936(3) -0.4797(2) 0.0286(2)
C1I C -0.0126(3) -0.4920(3) -0.1106(3)
H1I H 0.0219 -0.4522 -0.1118
C2I C -0.0946(3) -0.5790(3) -0.1320(3)
H2I H -0.1274 -0.6098 -0.1506
C3I C -0.0425(3) -0.4978(3) -0.2003(2)
C4I C 0.0134(5) -0.4773(4) -0.2240(3)
H3I H 0.0447 -0.4824 -0.2095
C5I C 0.0217(5) -0.4483(4) -0.2714(3)
H4I H 0.0596 -0.4312 -0.2881
C6I C -0.0900(3) -0.4958(3) -0.2232(2)
H5I H -0.1283 -0.5129 -0.2069
C7I C -0.0281(4) -0.4461(3) -0.2922(3)
H6I H -0.0232 -0.4275 -0.3236
C8I C -0.1868(3) -0.5729(3) 0.0191(2)
H7I H -0.2279 -0.6037 0.0136
C9I C -0.1062(3) -0.4865(3) 0.0414(2)
H8I H -0.0806 -0.4464 0.0539
C10I C -0.2093(3) -0.4939(3) 0.0545(3)
C11I C -0.2523(3) -0.4985(3) 0.0195(3)
H9I H -0.2528 -0.5154 -0.0120
C12I C -0.2903(4) -0.4543(4) 0.0738(3)
H10I H -0.3189 -0.4416 0.0815
C13I C -0.2464(4) -0.4461(4) 0.1093(3)
H11I H -0.2452 -0.4271 0.1398
C14I C -0.2046(4) -0.4655(4) 0.1004(3)
H12I H -0.1745 -0.4599 0.1241
Cl1I Cl -0.02836(8) -0.61478(8) 0.01743(6)
O11I O -0.2304(2) -0.66273(19) -0.07732(15)
Cl2 Cl 0.3333 -0.3333 0.90529(19)
O1 O 0.3333 -0.3333 0.9595(4)
O2 O 0.3540(7) -0.3719(6) 0.8887(3)
O2A O 0.3719(6) -0.2741(9) 0.8887(3)
O2B O 0.2741(9) -0.3540(7) 0.8887(3)
Cl3 Cl 0.3528(2) -0.6685(2) 0.16065(16)
O3 O 0.4180(5) -0.6280(8) 0.1633(7)
O4 O 0.3398(11) -0.6782(11) 0.1070(4)
O5 O 0.3385(9) -0.7264(6) 0.1801(7)
O6 O 0.3193(9) -0.6427(10) 0.1808(7)
Cl4 Cl 0.32964(14) -0.20148(16) 0.10826(13)
O13 O 0.4237(9) -0.4291(9) 0.8479(6)
O14 O 0.3016(6) -0.1148(6) 0.0543(5)
loop_
_geom_bond_atom_site_label_1
_geom_bond_atom_site_label_2
_geom_bond_site_symmetry_1
_geom_bond_site_symmetry_2
Cu1 N2 1_555 1_555
Cu2 N1 1_555 1_555
N1 N2 1_555 1_555
N2 C2 1_555 1_555
N3 C1 1_555 1_555
N4 C6 1_555 1_555
N5 Cu1 1_555 1_555
N6 Cu2 1_555 1_555
N7 C8 1_555 1_555
N8 C11 1_555 1_555
C1 N1 1_555 1_555
H1 C1 1_555 1_555
C2 N3 1_555 1_555
H2 C2 1_555 1_555
C3 N3 1_555 1_555
C4 C3 1_555 1_555
H3 C4 1_555 1_555
C5 C4 1_555 1_555
H4 C5 1_555 1_555
C6 C3 1_555 1_555
H5 C6 1_555 1_555
C7 N4 1_555 1_555
H6 C7 1_555 1_555
C8 N5 1_555 1_555
H7 C8 1_555 1_555
C9 N6 1_555 1_555
H8 C9 1_555 1_555
C10 N7 1_555 1_555
C11 C10 1_555 1_555
H9 C11 1_555 1_555
C12 N8 1_555 1_555
H10 C12 1_555 1_555
C13 C12 1_555 1_555
H11 C13 1_555 1_555
C14 C10 1_555 1_555
H12 C14 1_555 1_555
Cl1 Cu1 1_555 1_555
Cl2 O1 1_555 1_555
O2 Cl2 1_555 1_555
Cl3 O3 1_555 1_555
O4 Cl3 1_555 1_555
O5 Cl3 1_555 1_555
O6 Cl3 1_555 1_555
O11 Cu1 1_555 1_555
Cu1I N2I 1_555 1_555
Cu1Q N4 1_555 1_555
Cu1A N8 1_555 1_555
Cu1H N4I 1_555 1_555
Cu1J N8I 1_555 1_555
N1I Cu2 1_555 1_555
N2I N1I 1_555 1_555
N3I C1I 1_555 1_555
N4G Cu1I 1_555 1_555
N4P Cu1 1_555 1_555
N4I C6I 1_555 1_555
N5I Cu1I 1_555 1_555
N6I Cu2 1_555 1_555
N7I C8I 1_555 1_555
N8K Cu1I 1_555 1_555
N8B Cu1 1_555 1_555
N8I C11I 1_555 1_555
C1I N1I 1_555 1_555
H1I C1I 1_555 1_555
C2I N2I 1_555 1_555
H2I C2I 1_555 1_555
C3I N3I 1_555 1_555
C4I C3I 1_555 1_555
H3I C4I 1_555 1_555
C5I C4I 1_555 1_555
H4I C5I 1_555 1_555
C6I C3I 1_555 1_555
H5I C6I 1_555 1_555
C7I N4I 1_555 1_555
H6I C7I 1_555 1_555
C8I N5I 1_555 1_555
H7I C8I 1_555 1_555
C9I N6I 1_555 1_555
H8I C9I 1_555 1_555
C10I N7I 1_555 1_555
C11I C10I 1_555 1_555
H9I C11I 1_555 1_555
C12I N8I 1_555 1_555
H10I C12I 1_555 1_555
C13I C12I 1_555 1_555
H11I C13I 1_555 1_555
C14I C10I 1_555 1_555
H12I C14I 1_555 1_555
Cl1I Cu2 1_555 1_555
O2A Cl2 1_555 1_555
O2B Cl2 1_555 1_555
O11I Cu1I 1_555 1_555
Cu2 Cl1 1_555 1_555
N5 N6 1_555 1_555
N7 C9 1_555 1_555
C5 C7 1_555 1_555
C13 C14 1_555 1_555
Cu1I Cl1I 1_555 1_555
N3I C2I 1_555 1_555
N5I N6I 1_555 1_555
N7I C9I 1_555 1_555
C5I C7I 1_555 1_555
C13I C14I 1_555 1_555

#END
