
#######################################################################
#
#                 Cambridge Crystallographic Data Centre
#                                CCDC 
#
#######################################################################
#
# If this CIF has been generated from an entry in the Cambridge 
# Structural Database, then it will include bibliographic, chemical, 
# crystal, experimental, refinement or atomic coordinate data resulting 
# from the CCDC's data processing and validation procedures.
#
#######################################################################

data_HAMJUC
_chemical_formula_moiety         'C23 H17 N2 O15 Zn5'
_symmetry_cell_setting           rhombohedral
_symmetry_space_group_name_H-M   'R -3 m'
_symmetry_Int_Tables_number      166
_space_group_name_Hall           '-R 3 2"'
loop_
_symmetry_equiv_pos_site_id
_symmetry_equiv_pos_as_xyz
1 x,y,z
2 -y,x-y,z
3 -x+y,-x,z
4 2/3+x,1/3+y,1/3+z
5 2/3-y,1/3+x-y,1/3+z
6 2/3-x+y,1/3-x,1/3+z
7 1/3+x,2/3+y,2/3+z
8 1/3-y,2/3+x-y,2/3+z
9 1/3-x+y,2/3-x,2/3+z
10 x-y,-y,-z
11 -x,-x+y,-z
12 y,x,-z
13 2/3+x-y,1/3-y,1/3-z
14 2/3-x,1/3-x+y,1/3-z
15 2/3+y,1/3+x,1/3-z
16 1/3+x-y,2/3-y,2/3-z
17 1/3-x,2/3-x+y,2/3-z
18 1/3+y,2/3+x,2/3-z
19 -x,-y,-z
20 y,-x+y,-z
21 x-y,x,-z
22 1/3-x,2/3-y,2/3-z
23 1/3+y,2/3-x+y,2/3-z
24 1/3+x-y,2/3+x,2/3-z
25 2/3-x,1/3-y,1/3-z
26 2/3+y,1/3-x+y,1/3-z
27 2/3+x-y,1/3+x,1/3-z
28 -x+y,y,z
29 x,x-y,z
30 -y,-x,z
31 1/3-x+y,2/3+y,2/3+z
32 1/3+x,2/3+x-y,2/3+z
33 1/3-y,2/3-x,2/3+z
34 2/3-x+y,1/3+y,1/3+z
35 2/3+x,1/3+x-y,1/3+z
36 2/3-y,1/3-x,1/3+z
_cell_length_a                   19.504(3)
_cell_length_b                   19.504(3)
_cell_length_c                   37.930(5)
_cell_angle_alpha                90
_cell_angle_beta                 90
_cell_angle_gamma                120
_cell_volume                     12495.7
loop_
_atom_site_label
_atom_site_type_symbol
_atom_site_fract_x
_atom_site_fract_y
_atom_site_fract_z
O2 O 0.3333 0.6667 0.2406(19)
O3 O 0.2695(9) 0.7305(9) 0.2274(8)
O4 O 0.3333 0.6667 0.3487(19)
Zn1 Zn 0.044152(20) 0.522076(14) -0.034006(11)
O5 O 0.0047(11) 0.6108(10) -0.2038(4)
O6 O 0.0719(15) 0.6626(12) -0.2110(5)
O7 O 0.11551(16) 0.48472(16) -0.01388(7)
O8 O -0.04348(17) 0.40516(17) -0.03555(6)
N1 N -0.0093(2) 0.4954(2) -0.21703(12)
N2 N 0.05771(13) 0.52886(13) -0.08751(10)
C1 C -0.0435(2) 0.4783(2) -0.25114(14)
C2 C -0.0627(3) 0.4076(2) -0.26741(9)
H1 H -0.0504 0.3716 -0.2562
C3 C -0.0998(2) 0.3887(2) -0.30016(9)
C4 C -0.11699(17) 0.44151(17) -0.31666(12)
H2 H -0.1409 0.4296 -0.3394
C5 C 0.0111(7) 0.5544(8) -0.1959(3)
C6 C 0.0399(8) 0.4747(8) -0.1086(3)
H3 H 0.0386 0.4283 -0.1000
C7 C 0.0217(9) 0.4758(11) -0.1440(3)
H4 H 0.0024 0.4296 -0.1581
C8 C 0.0324(8) 0.5465(8) -0.1580(3)
C9 C 0.0490(6) 0.4420(7) -0.1362(3)
H5 H 0.0502 0.3969 -0.1447
C10 C 0.0642(7) 0.6012(9) -0.1012(3)
H6 H 0.0791 0.6450 -0.0859
C11 C 0.1004(2) 0.4572(2) 0.01691(9)
Zn1Q Zn -0.144591(14) 0.710819(20) -0.299327(11)
Zn1H Zn -0.188743(24) 0.622515(20) -0.367339(11)
Zn1G Zn -0.188743(14) 0.188743(24) -0.367339(11)
Zn1O Zn -0.144591(24) 0.144591(14) -0.299327(11)
O7BA O 0.11551(16) 0.63079(23) -0.01388(7)
O7FA O -0.15139(16) 0.55116(16) -0.34721(7)
O7G O -0.15139(16) 0.29746(23) -0.34721(7)
O8BA O -0.04348(17) 0.55136(24) -0.03555(6)
O8J O 0.04348(17) 0.44864(24) 0.03555(6)
O8W O -0.11531(24) 0.62319(17) -0.29778(6)
O8O O -0.11531(24) 0.26151(17) -0.29778(6)
C2BA C -0.0627(3) 0.5297(4) -0.26741(9)
H1BA H -0.0504 0.5780 -0.2562
C3BA C -0.0998(2) 0.5115(3) -0.30016(9)
C3E C 0.1552(3) 0.4331(2) 0.03317(9)
C5BA C 0.0111(7) 0.4567(11) -0.1959(3)
C6BA C 0.0399(8) 0.5652(11) -0.1086(3)
H3BA H 0.0386 0.6103 -0.1000
C7BA C 0.0217(9) 0.5459(14) -0.1440(3)
H4BA H 0.0024 0.5728 -0.1581
C8BA C 0.0324(8) 0.4859(11) -0.1580(3)
C9BA C 0.0490(6) 0.6070(9) -0.1362(3)
C10BA C 0.0642(7) 0.4630(11) -0.1012(3)
C11J C -0.1004(2) 0.3568(3) -0.01691(9)
C11G C -0.1239(2) 0.3099(3) -0.31642(9)
C11FA C -0.1239(2) 0.5663(2) -0.31642(9)
O1 O 0.3333 0.6667 0.425(2)
loop_
_geom_bond_atom_site_label_1
_geom_bond_atom_site_label_2
_geom_bond_site_symmetry_1
_geom_bond_site_symmetry_2
Zn1 O7 1_555 1_555
O5 O6 1_555 1_555
O7 C11 1_555 1_555
O8 Zn1 1_555 1_555
N1 C1 1_555 1_555
N2 Zn1 1_555 1_555
C1 C2 1_555 1_555
C2 H1 1_555 1_555
C3 C2 1_555 1_555
C4 C3 1_555 1_555
H2 C4 1_555 1_555
C5 O5 1_555 1_555
C6 N2 1_555 1_555
H3 C6 1_555 1_555
C7 C6 1_555 1_555
H4 C7 1_555 1_555
C8 C5 1_555 1_555
C9 C6 1_555 1_555
H5 C9 1_555 1_555
C10 N2 1_555 1_555
H6 C10 1_555 1_555
C11 O8J 1_555 1_555
Zn1Q O8W 1_555 1_555
Zn1H O7FA 1_555 1_555
Zn1G O7G 1_555 1_555
Zn1O O8O 1_555 1_555
O7BA Zn1 1_555 1_555
O7FA C11FA 1_555 1_555
O7G C11G 1_555 1_555
O8BA Zn1 1_555 1_555
O8W C11FA 1_555 1_555
O8O C11G 1_555 1_555
C2BA C1 1_555 1_555
H1BA C2BA 1_555 1_555
C3BA C4 1_555 1_555
C3E C11 1_555 1_555
C5BA N1 1_555 1_555
C6BA N2 1_555 1_555
H3BA C10 1_555 1_555
C7BA C7 1_555 1_555
H4BA C8 1_555 1_555
C8BA C7 1_555 1_555
C9BA C8 1_555 1_555
C10BA N2 1_555 1_555
C11J O8 1_555 1_555
C11G C3 1_555 1_555
C11FA C3BA 1_555 1_555
N1 C5 1_555 1_555
C6 C10BA 1_555 1_555
H3 C10BA 1_555 1_555
C7 C8 1_555 1_555
C7 C9 1_555 1_555
H4 C9 1_555 1_555
H4 C8BA 1_555 1_555
C8 C7BA 1_555 1_555
C8 C8BA 1_555 1_555
C9 C8BA 1_555 1_555
C9 C10BA 1_555 1_555
C10 C6BA 1_555 1_555
C10 C9BA 1_555 1_555
C2BA C3BA 1_555 1_555
C5BA C8BA 1_555 1_555
C6BA H3BA 1_555 1_555
C6BA C7BA 1_555 1_555
C6BA C9BA 1_555 1_555
C7BA H4BA 1_555 1_555
C7BA C8BA 1_555 1_555
C7BA C9BA 1_555 1_555
H4BA C9BA 1_555 1_555

#END
