
#######################################################################
#
#                 Cambridge Crystallographic Data Centre
#                                CCDC 
#
#######################################################################
#
# If this CIF has been generated from an entry in the Cambridge 
# Structural Database, then it will include bibliographic, chemical, 
# crystal, experimental, refinement or atomic coordinate data resulting 
# from the CCDC's data processing and validation procedures.
#
#######################################################################

data_BAKLIK
_chemical_formula_moiety         '(C30 H38 Mn1 N6 O7)n'
_symmetry_cell_setting           rhombohedral
_symmetry_space_group_name_H-M   'R -3'
_symmetry_Int_Tables_number      148
_space_group_name_Hall           '-R 3'
loop_
_symmetry_equiv_pos_site_id
_symmetry_equiv_pos_as_xyz
1 x,y,z
2 -y,x-y,z
3 -x+y,-x,z
4 2/3+x,1/3+y,1/3+z
5 2/3-y,1/3+x-y,1/3+z
6 2/3-x+y,1/3-x,1/3+z
7 1/3+x,2/3+y,2/3+z
8 1/3-y,2/3+x-y,2/3+z
9 1/3-x+y,2/3-x,2/3+z
10 -x,-y,-z
11 y,-x+y,-z
12 x-y,x,-z
13 1/3-x,2/3-y,2/3-z
14 1/3+y,2/3-x+y,2/3-z
15 1/3+x-y,2/3+x,2/3-z
16 2/3-x,1/3-y,1/3-z
17 2/3+y,1/3-x+y,1/3-z
18 2/3+x-y,1/3+x,1/3-z
_cell_length_a                   27.461(2)
_cell_length_b                   27.461(2)
_cell_length_c                   11.9940(9)
_cell_angle_alpha                90
_cell_angle_beta                 90
_cell_angle_gamma                120
_cell_volume                     7832.99
loop_
_atom_site_label
_atom_site_type_symbol
_atom_site_fract_x
_atom_site_fract_y
_atom_site_fract_z
_atom_site_U_iso_or_equiv
_atom_site_thermal_displace_type
Mn1 Mn 0.5000 0.0000 1.0000 0.0393 Uani
N1 N 0.58540(17) 0.07186(19) 0.9417(4) 0.0436 Uani
N2 N 0.52522(18) -0.0285(2) 0.8509(4) 0.0427 Uani
N3 N 0.5955(2) -0.0173(2) 0.7421(5) 0.0691 Uani
H1 H 0.6268 0.0008 0.7064 0.0830 Uiso
O1 O 0.76004(16) 0.13234(16) 0.7696(3) 0.0564 Uani
O2 O 0.69386(17) 0.05648(18) 0.6903(4) 0.0726 Uani
O3 O 0.45720(17) -0.11600(17) 0.7909(4) 0.0834 Uani
C1 C 0.7110(3) 0.0954(3) 0.7596(6) 0.0474 Uani
C2 C 0.6142(2) 0.0607(3) 0.8656(5) 0.0412 Uani
C3 C 0.6696(2) 0.1002(2) 0.8376(5) 0.0421 Uani
C4 C 0.6920(2) 0.1517(2) 0.8906(5) 0.0587 Uani
H4 H 0.7288 0.1789 0.8743 0.0700 Uiso
C5 C 0.6627(3) 0.1651(3) 0.9662(6) 0.0638 Uani
C6 C 0.6091(3) 0.1219(3) 0.9899(5) 0.0562 Uani
H5 H 0.5884 0.1284 1.0432 0.0670 Uiso
C7 C 0.679(2) 0.221(3) 1.021(6) 0.0838 Uani
H6 H 0.6564 0.2363 0.9896 0.0950 Uiso
H7 H 0.6708 0.2158 1.1005 0.0950 Uiso
C8 C 0.7409(13) 0.2630(8) 1.0033(17) 0.1384 Uani
H8 H 0.7630 0.2490 1.0379 0.2080 Uiso
H9 H 0.7501 0.2985 1.0358 0.2080 Uiso
H10 H 0.7488 0.2678 0.9248 0.2080 Uiso
C9 C 0.5788(2) 0.0042(2) 0.8182(6) 0.0444 Uani
C10 C 0.5536(10) -0.0774(11) 0.725(2) 0.0471 Uani
C11 C 0.5051(3) -0.0763(3) 0.7860(6) 0.0621 Uani
C12 C 0.5709(17) -0.1198(16) 0.764(3) 0.0640 Uani
H11 H 0.6043 -0.1132 0.7256 0.0990 Uiso
H12 H 0.5411 -0.1574 0.7492 0.0990 Uiso
H13 H 0.5782 -0.1155 0.8431 0.0990 Uiso
C13 C 0.5418(6) -0.0842(8) 0.5997(18) 0.0609 Uani
H14 H 0.5104 -0.1223 0.5867 0.0730 Uiso
C14 C 0.523(2) -0.042(2) 0.561(6) 0.0787 Uani
H15 H 0.5546 -0.0048 0.5663 0.1230 Uiso
H16 H 0.4933 -0.0461 0.6076 0.1230 Uiso
H17 H 0.5108 -0.0504 0.4851 0.1230 Uiso
C15 C 0.5910(6) -0.0761(7) 0.5273(16) 0.0958 Uani
H18 H 0.5818 -0.0758 0.4502 0.1440 Uiso
H19 H 0.5983 -0.1063 0.5404 0.1440 Uiso
H20 H 0.6238 -0.0410 0.5459 0.1440 Uiso
Mn1H Mn 0.8333 0.1667 0.6667 0.0393 Uani
Mn1E Mn 0.1667 -0.1667 1.3333 0.0393 Uani
N1I N 0.41460(17) -0.07186(19) 1.0583(4) 0.0436 Uani
N2I N 0.47478(18) 0.0285(2) 1.1491(4) 0.0427 Uani
N3I N 0.4045(2) 0.0173(2) 1.2579(5) 0.0691 Uani
H1I H 0.3732 -0.0008 1.2936 0.0830 Uiso
O1I O 0.23996(16) -0.13234(16) 1.2304(3) 0.0564 Uani
O1D O 0.53433(16) -0.03897(23) 1.1029(3) 0.0564 Uani
O1M O 0.46567(16) 0.03897(23) 0.8971(3) 0.0564 Uani
O2I O 0.30614(17) -0.05648(18) 1.3097(4) 0.0726 Uani
O3I O 0.54280(17) 0.11600(17) 1.2091(4) 0.0834 Uani
C1I C 0.2890(3) -0.0954(3) 1.2404(6) 0.0474 Uani
C2I C 0.3858(2) -0.0607(3) 1.1344(5) 0.0412 Uani
C3I C 0.3304(2) -0.1002(2) 1.1624(5) 0.0421 Uani
C4I C 0.3080(2) -0.1517(2) 1.1094(5) 0.0587 Uani
H4I H 0.2712 -0.1789 1.1257 0.0700 Uiso
C5I C 0.3373(3) -0.1651(3) 1.0338(6) 0.0638 Uani
C6I C 0.3909(3) -0.1219(3) 1.0101(5) 0.0562 Uani
H5I H 0.4116 -0.1284 0.9568 0.0670 Uiso
C7I C 0.321(2) -0.221(3) 0.979(6) 0.0838 Uani
H6I H 0.3436 -0.2363 1.0104 0.0950 Uiso
H7I H 0.3292 -0.2158 0.8995 0.0950 Uiso
C8I C 0.2591(13) -0.2630(8) 0.9967(17) 0.1384 Uani
H8I H 0.2370 -0.2490 0.9621 0.2080 Uiso
H9I H 0.2499 -0.2985 0.9642 0.2080 Uiso
H10I H 0.2512 -0.2678 1.0752 0.2080 Uiso
C9I C 0.4212(2) -0.0042(2) 1.1818(6) 0.0444 Uani
C10I C 0.4464(10) 0.0774(11) 1.275(2) 0.0471 Uani
C11I C 0.4949(3) 0.0763(3) 1.2140(6) 0.0621 Uani
C12I C 0.4291(17) 0.1198(16) 1.236(3) 0.0640 Uani
H11I H 0.3957 0.1132 1.2744 0.0990 Uiso
H12I H 0.4589 0.1574 1.2508 0.0990 Uiso
H13I H 0.4218 0.1155 1.1569 0.0990 Uiso
C13I C 0.4582(6) 0.0842(8) 1.4003(18) 0.0609 Uani
H14I H 0.4896 0.1223 1.4133 0.0730 Uiso
C14I C 0.477(2) 0.042(2) 1.439(6) 0.0787 Uani
H15I H 0.4454 0.0048 1.4337 0.1230 Uiso
H16I H 0.5067 0.0461 1.3924 0.1230 Uiso
H17I H 0.4892 0.0504 1.5149 0.1230 Uiso
C15I C 0.4090(6) 0.0761(7) 1.4727(16) 0.0958 Uani
H18I H 0.4182 0.0758 1.5498 0.1440 Uiso
H19I H 0.4017 0.1063 1.4596 0.1440 Uiso
H20I H 0.3762 0.0410 1.4541 0.1440 Uiso
O4 O 0.3990(4) -0.2184(3) 0.6699(5) 0.1424 Uani
H2 H 0.4183 -0.1884 0.7069 0.3200 Uiso
H3 H 0.4162 -0.2370 0.6700 0.3000 Uiso
loop_
_atom_site_aniso_label
_atom_site_aniso_U_11
_atom_site_aniso_U_22
_atom_site_aniso_U_33
_atom_site_aniso_U_23
_atom_site_aniso_U_13
_atom_site_aniso_U_12
Mn1 0.0309(8) 0.0400(9) 0.0512(9) 0.0104(8) 0.0072(8) 0.0208(7)
N1 0.036(3) 0.040(3) 0.056(4) 0.007(3) 0.012(3) 0.020(3)
N2 0.031(3) 0.041(3) 0.052(4) 0.000(3) 0.003(3) 0.015(3)
N3 0.042(4) 0.057(4) 0.078(5) -0.015(3) 0.024(3) 0.002(3)
O1 0.033 0.051 0.064 -0.009 0.005 0.005
O2 0.039 0.067 0.083 -0.027 0.026 0.005
O3 0.044(3) 0.067(3) 0.097(4) -0.028(3) 0.024(3) -0.004(3)
C1 0.038 0.045 0.053 0.004 0.004 0.016
C2 0.032(4) 0.045(4) 0.053(5) 0.001(4) 0.004(3) 0.024(4)
C3 0.031(4) 0.041(4) 0.049(5) 0.001(4) 0.007(3) 0.014(4)
C4 0.042(4) 0.049(5) 0.072(6) -0.007(4) 0.018(4) 0.013(4)
C5 0.050(5) 0.037(4) 0.086(6) -0.013(4) 0.019(4) 0.008(4)
C6 0.051(5) 0.042(4) 0.070(6) -0.008(4) 0.015(4) 0.019(4)
C7 0.07(3) 0.046(19) 0.11(2) -0.003(15) 0.01(2) 0.01(2)
C8 0.11(2) 0.071(14) 0.17(2) -0.045(14) -0.010(16) -0.003(14)
C9 0.034(4) 0.044(4) 0.052(5) -0.002(4) 0.009(4) 0.017(4)
C10 0.034(11) 0.044(15) 0.06(2) -0.008(12) 0.007(10) 0.017(9)
C11 0.039(5) 0.062(5) 0.069(6) -0.009(4) 0.019(4) 0.013(4)
C12 0.059(18) 0.056(17) 0.08(4) 0.01(2) 0.015(17) 0.031(14)
C13 0.041(10) 0.057(12) 0.064(16) -0.006(11) 0.010(10) 0.009(8)
C14 0.07(2) 0.07(3) 0.060(18) 0.014(18) 0.008(16) 0.008(16)
C15 0.085(12) 0.091(12) 0.074(14) -0.027(12) 0.028(11) 0.016(10)
Mn1H 0.0293 0.0309 0.0512 -0.0072 0.0032 0.0101
Mn1E 0.0293 0.0309 0.0512 -0.0072 0.0032 0.0101
N1I 0.036 0.04 0.056 0.007 0.012 0.02
N2I 0.031 0.041 0.052 0 0.003 0.015
N3I 0.042 0.057 0.078 -0.015 0.024 0.002
O1I 0.033 0.051 0.064 -0.009 0.005 0.005
O1D 0.051 0.074 0.064 0.014 0.009 0.046
O1M 0.051 0.074 0.064 0.014 0.009 0.046
O2I 0.039 0.067 0.083 -0.027 0.026 0.005
O3I 0.044 0.067 0.097 -0.028 0.024 -0.004
C1I 0.038 0.045 0.053 0.004 0.004 0.016
C2I 0.032 0.045 0.053 0.001 0.004 0.024
C3I 0.031 0.041 0.049 0.001 0.007 0.014
C4I 0.042 0.049 0.072 -0.007 0.018 0.013
C5I 0.05 0.037 0.086 -0.013 0.019 0.008
C6I 0.051 0.042 0.07 -0.008 0.015 0.019
C7I 0.07 0.046 0.11 -0.003 0.01 0.01
C8I 0.11 0.071 0.17 -0.045 -0.01 -0.003
C9I 0.034 0.044 0.052 -0.002 0.009 0.017
C10I 0.034 0.044 0.06 -0.008 0.007 0.017
C11I 0.039 0.062 0.069 -0.009 0.019 0.013
C12I 0.059 0.056 0.08 0.01 0.015 0.031
C13I 0.041 0.057 0.064 -0.006 0.01 0.009
C14I 0.07 0.07 0.06 0.014 0.008 0.008
C15I 0.085 0.091 0.074 -0.027 0.028 0.016
O4 0.104(4) 0.110(5) 0.218(8) -0.052(5) -0.022(5) 0.057(5)
loop_
_geom_bond_atom_site_label_1
_geom_bond_atom_site_label_2
_geom_bond_site_symmetry_1
_geom_bond_site_symmetry_2
Mn1 N1 1_555 1_555
N1 C2 1_555 1_555
N2 Mn1 1_555 1_555
N3 H1 1_555 1_555
O1 C1 1_555 1_555
O2 C1 1_555 1_555
O3 C11 1_555 1_555
O4 H2 1_555 1_555
H3 O4 1_555 1_555
C1 C3 1_555 1_555
C2 C3 1_555 1_555
C3 C4 1_555 1_555
C4 H4 1_555 1_555
C5 C4 1_555 1_555
C6 N1 1_555 1_555
H5 C6 1_555 1_555
C7 C5 1_555 1_555
H6 C7 1_555 1_555
H7 C7 1_555 1_555
C8 C7 1_555 1_555
H8 C8 1_555 1_555
H9 C8 1_555 1_555
H10 C8 1_555 1_555
C9 N2 1_555 1_555
C10 N3 1_555 1_555
C11 N2 1_555 1_555
C12 C10 1_555 1_555
H11 C12 1_555 1_555
H12 C12 1_555 1_555
H13 C12 1_555 1_555
C13 C10 1_555 1_555
H14 C13 1_555 1_555
C14 C13 1_555 1_555
H15 C14 1_555 1_555
H16 C14 1_555 1_555
H17 C14 1_555 1_555
C15 C13 1_555 1_555
H18 C15 1_555 1_555
H19 C15 1_555 1_555
H20 C15 1_555 1_555
Mn1H O1 1_555 1_555
Mn1E O1I 1_555 1_555
N1I Mn1 1_555 1_555
N2I Mn1 1_555 1_555
N3I H1I 1_555 1_555
O1I C1I 1_555 1_555
O1D Mn1 1_555 1_555
O1M Mn1 1_555 1_555
O2I C1I 1_555 1_555
O3I C11I 1_555 1_555
C1I C3I 1_555 1_555
C2I N1I 1_555 1_555
C3I C2I 1_555 1_555
C4I C3I 1_555 1_555
H4I C4I 1_555 1_555
C5I C4I 1_555 1_555
C6I N1I 1_555 1_555
H5I C6I 1_555 1_555
C7I C5I 1_555 1_555
H6I C7I 1_555 1_555
H7I C7I 1_555 1_555
C8I C7I 1_555 1_555
H8I C8I 1_555 1_555
H9I C8I 1_555 1_555
H10I C8I 1_555 1_555
C9I N2I 1_555 1_555
C10I N3I 1_555 1_555
C11I N2I 1_555 1_555
C12I C10I 1_555 1_555
H11I C12I 1_555 1_555
H12I C12I 1_555 1_555
H13I C12I 1_555 1_555
C13I C10I 1_555 1_555
H14I C13I 1_555 1_555
C14I C13I 1_555 1_555
H15I C14I 1_555 1_555
H16I C14I 1_555 1_555
H17I C14I 1_555 1_555
C15I C13I 1_555 1_555
H18I C15I 1_555 1_555
H19I C15I 1_555 1_555
H20I C15I 1_555 1_555
N3 C9 1_555 1_555
C2 C9 1_555 1_555
C5 C6 1_555 1_555
C10 C11 1_555 1_555
N3I C9I 1_555 1_555
C2I C9I 1_555 1_555
C5I C6I 1_555 1_555
C10I C11I 1_555 1_555

#END
