
#######################################################################
#
#                 Cambridge Crystallographic Data Centre
#                                CCDC 
#
#######################################################################
#
# If this CIF has been generated from an entry in the Cambridge 
# Structural Database, then it will include bibliographic, chemical, 
# crystal, experimental, refinement or atomic coordinate data resulting 
# from the CCDC's data processing and validation procedures.
#
#######################################################################

data_ULUVUT
_chemical_formula_moiety         '(C5 H11 N11 O1 Zn1)n'
_symmetry_cell_setting           monoclinic
_symmetry_space_group_name_H-M   'C c'
_symmetry_Int_Tables_number      9
_space_group_name_Hall           'C -2yc'
loop_
_symmetry_equiv_pos_site_id
_symmetry_equiv_pos_as_xyz
1 x,y,z
2 x,-y,1/2+z
3 1/2+x,1/2+y,z
4 1/2+x,1/2-y,1/2+z
_cell_length_a                   13.330(3)
_cell_length_b                   15.327(3)
_cell_length_c                   8.7796(17)
_cell_angle_alpha                90
_cell_angle_beta                 131.20(2)
_cell_angle_gamma                90
_cell_volume                     1349.64
loop_
_atom_site_label
_atom_site_type_symbol
_atom_site_fract_x
_atom_site_fract_y
_atom_site_fract_z
_atom_site_U_iso_or_equiv
_atom_site_thermal_displace_type
Zn1 Zn -0.02543(5) 0.86229(2) 0.13267(6) 0.0228 Uani
N1 N 0.1166(4) 0.7736(3) 0.2790(6) 0.0279 Uani
N2 N 0.0892(4) 0.6936(3) 0.1921(7) 0.0397 Uani
N3 N 0.3142(5) 0.8363(4) 0.5804(9) 0.0485 Uani
H1 H 0.2704 0.8770 0.5444 0.0730 Uiso
H2 H 0.4017 0.8296 0.6968 0.0730 Uiso
N4 N 0.2978(4) 0.6947(3) 0.4600(7) 0.0278 Uani
N5 N 0.1938(5) 0.6472(3) 0.2972(9) 0.0403 Uani
N6 N 0.1224(5) 0.9468(3) 0.0400(8) 0.0429 Uani
N7 N 0.1248(4) 1.0128(3) -0.0452(8) 0.0432 Uani
N8 N -0.0057(4) 0.9344(3) -0.0355(7) 0.0283 Uani
N9 N -0.0003(4) 1.0475(3) -0.1812(7) 0.0301 Uani
N10 N -0.2087(5) 1.0089(4) -0.2802(11) 0.0603 Uani
H3 H -0.2449 1.0610 -0.3085 0.0900 Uiso
H4 H -0.2475 0.9719 -0.2631 0.0900 Uiso
C1 C 0.2471(4) 0.7720(3) 0.4455(7) 0.0264 Uani
C2 C -0.0774(5) 0.9981(3) -0.1715(7) 0.0287 Uani
Zn1A Zn -0.02543(5) 1.13771(2) -0.36733(6) 0.0228 Uani
Zn1C Zn 0.47457(5) 0.63771(2) 0.63267(6) 0.0228 Uani
N4C N -0.2022(4) 0.8053(3) -0.0400(7) 0.0278 Uani
N9A N -0.0003(4) 0.9525(3) 0.3188(7) 0.0301 Uani
O1 O 0.5781(8) 0.8583(4) 0.0392(14) 0.0464 Uani
N11 N 0.4621(11) 0.7963(5) 0.1099(16) 0.0761 Uani
C3 C 0.5059(11) 0.8653(6) 0.0846(15) 0.0853 Uani
C4 C 0.3687(11) 0.7968(10) 0.1477(18) 0.1050 Uani
H5 H 0.4035 0.7605 0.2623 0.1580 Uiso
H6 H 0.2835 0.7748 0.0307 0.1580 Uiso
H7 H 0.3585 0.8553 0.1746 0.1580 Uiso
C5 C 0.4987(13) 0.7080(6) 0.079(2) 0.1075 Uani
H8 H 0.4194 0.6794 -0.0362 0.1610 Uiso
H9 H 0.5405 0.6726 0.1972 0.1610 Uiso
H10 H 0.5592 0.7162 0.0557 0.1610 Uiso
loop_
_atom_site_aniso_label
_atom_site_aniso_U_11
_atom_site_aniso_U_22
_atom_site_aniso_U_33
_atom_site_aniso_U_23
_atom_site_aniso_U_13
_atom_site_aniso_U_12
Zn1 0.0154(2) 0.0185(2) 0.0276(2) 0.0004(3) 0.01119(18) 0.0003(3)
N1 0.019(2) 0.022(2) 0.031(2) 0.0015(16) 0.0114(18) 0.0003(16)
N2 0.023(2) 0.028(2) 0.046(2) -0.0087(19) 0.0132(19) 0.0026(18)
N3 0.023(2) 0.034(2) 0.052(3) -0.017(2) 0.009(2) 0.006(2)
N4 0.0165(18) 0.024(2) 0.034(2) -0.0050(18) 0.0128(16) -0.0010(16)
N5 0.021(2) 0.028(2) 0.050(3) -0.0118(19) 0.014(2) -0.0008(16)
N6 0.026(2) 0.042(3) 0.056(3) 0.020(2) 0.025(2) 0.006(2)
N7 0.021(2) 0.039(3) 0.058(3) 0.019(2) 0.021(2) 0.0047(19)
N8 0.0196(19) 0.027(2) 0.036(2) 0.0071(17) 0.0173(18) 0.0055(17)
N9 0.0192 0.026 0.043 0.0054 0.0196 0.0042
N10 0.025(2) 0.050(3) 0.086(4) 0.043(3) 0.028(3) 0.013(2)
C1 0.0149(19) 0.026(2) 0.029(2) 0.0019(16) 0.0105(18) 0.0034(16)
C2 0.0234(19) 0.022(2) 0.035(2) 0.0011(19) 0.0168(18) 0.0001(17)
Zn1A 0.0154 0.0185 0.0276 -0.0004 0.01119 -0.0003
Zn1C 0.0154 0.0185 0.0276 -0.0004 0.01119 -0.0003
N4C 0.0165 0.024 0.034 0.005 0.0128 0.001
N9A 0.0192 0.026 0.043 -0.0054 0.0196 -0.0042
O1 0.046(4) 0.050(5) 0.069(5) -0.031(4) 0.049(4) -0.029(3)
N11 0.082(5) 0.090(5) 0.070(5) -0.010(5) 0.056(5) -0.001(6)
C3 0.066(6) 0.076(6) 0.057(5) -0.025(4) 0.016(4) -0.030(4)
C4 0.088(7) 0.161(13) 0.094(7) 0.010(8) 0.072(6) 0.002(8)
C5 0.177(13) 0.054(5) 0.137(10) 0.002(6) 0.123(11) 0.017(7)
loop_
_geom_bond_atom_site_label_1
_geom_bond_atom_site_label_2
_geom_bond_site_symmetry_1
_geom_bond_site_symmetry_2
Zn1 N1 1_555 1_555
N1 N2 1_555 1_555
N2 N5 1_555 1_555
N3 H1 1_555 1_555
H2 N3 1_555 1_555
N4 N5 1_555 1_555
N6 N7 1_555 1_555
N7 N9 1_555 1_555
N8 Zn1 1_555 1_555
N9 C2 1_555 1_555
N10 H3 1_555 1_555
H4 N10 1_555 1_555
C1 N1 1_555 1_555
C2 N8 1_555 1_555
O1 C3 1_555 1_555
N11 C3 1_555 1_555
C4 N11 1_555 1_555
H5 C4 1_555 1_555
H6 C4 1_555 1_555
H7 C4 1_555 1_555
C5 N11 1_555 1_555
H8 C5 1_555 1_555
H9 C5 1_555 1_555
H10 C5 1_555 1_555
Zn1A N9 1_555 1_555
Zn1C N4 1_555 1_555
N4C Zn1 1_555 1_555
N9A Zn1 1_555 1_555
N3 C1 1_555 1_555
N4 C1 1_555 1_555
N6 N8 1_555 1_555
N10 C2 1_555 1_555

#END
