
#######################################################################
#
#                 Cambridge Crystallographic Data Centre
#                                CCDC 
#
#######################################################################
#
# If this CIF has been generated from an entry in the Cambridge 
# Structural Database, then it will include bibliographic, chemical, 
# crystal, experimental, refinement or atomic coordinate data resulting 
# from the CCDC's data processing and validation procedures.
#
#######################################################################

data_PARSEJ
_chemical_formula_moiety         'C40 H24 Cl2 In9 O44 Sr8'
_symmetry_cell_setting           tetragonal
_symmetry_space_group_name_H-M   'P 42/n c m'
_symmetry_Int_Tables_number      138
_space_group_name_Hall           '-P 4ac 2ac'
loop_
_symmetry_equiv_pos_site_id
_symmetry_equiv_pos_as_xyz
1 x,y,z
2 1/2-x,1/2-y,z
3 1/2-y,x,1/2+z
4 y,1/2-x,1/2+z
5 -x,1/2+y,1/2-z
6 1/2+x,-y,1/2-z
7 1/2+y,1/2+x,-z
8 -y,-x,-z
9 -x,-y,-z
10 1/2+x,1/2+y,-z
11 1/2+y,-x,1/2-z
12 -y,1/2+x,1/2-z
13 x,1/2-y,1/2+z
14 1/2-x,y,1/2+z
15 1/2-y,1/2-x,z
16 y,x,z
_cell_length_a                   19.5615(10)
_cell_length_b                   19.5615(10)
_cell_length_c                   24.304(2)
_cell_angle_alpha                90
_cell_angle_beta                 90
_cell_angle_gamma                90
_cell_volume                     9299.98
loop_
_atom_site_label
_atom_site_type_symbol
_atom_site_fract_x
_atom_site_fract_y
_atom_site_fract_z
_atom_site_U_iso_or_equiv
_atom_site_thermal_displace_type
In1 In 0.00029(3) 1.49971(3) 0.19268(3) 0.0174 Uani
In2 In 0.2500 1.7500 0.5000 0.0189 Uani
Sr1 Sr 0.08500(5) 1.41500(5) 0.31997(5) 0.0245 Uani
O1 O 0.0624(5) 1.5390(4) 0.2880(4) 0.0650 Uani
O2 O 0.0053(5) 1.6007(4) 0.2296(4) 0.0650 Uani
O3 O 0.1586(5) 1.7780(5) 0.4520(3) 0.0627 Uani
O4 O 0.1915(5) 1.6725(6) 0.4357(3) 0.0727 Uani
O5 O 0.0067(4) 1.8958(4) 0.3301(3) 0.0420 Uani
O6 O -0.0501(4) 1.8421(4) 0.2618(3) 0.0470 Uani
O7 O 0.1575(9) 1.3042(9) 0.3125(11) 0.0810 Uani
Cl1 Cl -0.0405(2) 1.5405(2) 0.1060(2) 0.0907 Uani
C1 C 0.0370(7) 1.5956(5) 0.2740(5) 0.0443 Uani
C2 C 0.1542(6) 1.7224(8) 0.4264(4) 0.0483 Uani
C3 C -0.0121(6) 1.8410(5) 0.3022(5) 0.0333 Uani
C4 C 0.0469(5) 1.6585(5) 0.3069(3) 0.0270 Uani
C5 C 0.0135(5) 1.7175(5) 0.2910(4) 0.0227 Uani
H1 H -0.0148 1.7178 0.2603 0.0270 Uiso
C6 C 0.0234(5) 1.7771(5) 0.3221(4) 0.0223 Uani
C7 C 0.0674(5) 1.7778(5) 0.3643(4) 0.0287 Uani
H2 H 0.0749 1.8181 0.3838 0.0350 Uiso
C8 C 0.1021(5) 1.7180(5) 0.3792(4) 0.0270 Uani
C9 C 0.0915(5) 1.6587(6) 0.3516(4) 0.0337 Uani
H3 H 0.1138 1.6188 0.3622 0.0400 Uiso
C10 C 0.162(2) 1.2765(13) 0.2666(13) 0.1533 Uani
H4 H 0.1656 1.3059 0.2351 0.1870 Uiso
O8 O 0.0314(10) 1.3145(10) 0.3711(6) 0.0627 Uani
H5 H -0.0054 1.3023 0.3552 0.0750 Uiso
H6 H 0.0458 1.2925 0.3991 0.0750 Uiso
O7N O 0.1958(9) 1.3425(9) 0.3125(11) 0.0810 Uani
C10N C 0.2235(13) 1.338(2) 0.2666(13) 0.1533 Uani
H4N H 0.1941 1.3344 0.2351 0.1870 Uiso
O1A O 0.4376(5) 1.9610(4) 0.2880(4) 0.0650 Uani
O2A O 0.4947(5) 1.8993(4) 0.2296(4) 0.0650 Uani
O3A O 0.3414(5) 1.7220(5) 0.4520(3) 0.0627 Uani
O4A O 0.3085(5) 1.8275(6) 0.4357(3) 0.0727 Uani
O5A O 0.4933(4) 1.6042(4) 0.3301(3) 0.0420 Uani
O6A O 0.5501(4) 1.6579(4) 0.2618(3) 0.0470 Uani
C1A C 0.4630(7) 1.9044(5) 0.2740(5) 0.0443 Uani
C2A C 0.3458(6) 1.7776(8) 0.4264(4) 0.0483 Uani
C3A C 0.5121(6) 1.6590(5) 0.3022(5) 0.0333 Uani
C4A C 0.4531(5) 1.8415(5) 0.3069(3) 0.0270 Uani
C5A C 0.4865(5) 1.7825(5) 0.2910(4) 0.0227 Uani
H1A H 0.5148 1.7822 0.2603 0.0270 Uiso
C6A C 0.4766(5) 1.7229(5) 0.3221(4) 0.0223 Uani
C7A C 0.4326(5) 1.7222(5) 0.3643(4) 0.0287 Uani
H2A H 0.4251 1.6819 0.3838 0.0350 Uiso
C8A C 0.3979(5) 1.7820(5) 0.3792(4) 0.0270 Uani
C9A C 0.4085(5) 1.8413(6) 0.3516(4) 0.0337 Uani
H3A H 0.3862 1.8812 0.3622 0.0400 Uiso
In1F In -0.00029(3) 1.50029(3) 0.80732(3) 0.0174 Uani
Sr1F Sr -0.08500(5) 1.58500(5) 0.68003(5) 0.0245 Uani
O1F O 0.0390(4) 1.5624(5) 0.7120(4) 0.0650 Uani
O2F O 0.1007(4) 1.5053(5) 0.7704(4) 0.0650 Uani
O3F O 0.2780(5) 1.6586(5) 0.5480(3) 0.0627 Uani
O4F O 0.1725(6) 1.6915(5) 0.5643(3) 0.0727 Uani
O5F O 0.3958(4) 1.5067(4) 0.6699(3) 0.0420 Uani
O6F O 0.3421(4) 1.4499(4) 0.7382(3) 0.0470 Uani
O7F O -0.1958(9) 1.6575(9) 0.6875(11) 0.0810 Uani
Cl1F Cl 0.0405(2) 1.4595(2) 0.8940(2) 0.0907 Uani
C1F C 0.0956(5) 1.5370(7) 0.7260(5) 0.0443 Uani
C2F C 0.2224(8) 1.6542(6) 0.5736(4) 0.0483 Uani
C3F C 0.3410(5) 1.4879(6) 0.6978(5) 0.0333 Uani
C4F C 0.1585(5) 1.5469(5) 0.6931(3) 0.0270 Uani
C5F C 0.2175(5) 1.5135(5) 0.7090(4) 0.0227 Uani
H1F H 0.2178 1.4852 0.7397 0.0270 Uiso
C6F C 0.2771(5) 1.5234(5) 0.6779(4) 0.0223 Uani
C7F C 0.2778(5) 1.5674(5) 0.6357(4) 0.0287 Uani
H2F H 0.3181 1.5749 0.6162 0.0350 Uiso
C8F C 0.2180(5) 1.6021(5) 0.6208(4) 0.0270 Uani
C9F C 0.1587(6) 1.5915(5) 0.6484(4) 0.0337 Uani
H3F H 0.1188 1.6138 0.6378 0.0400 Uiso
C10F C -0.2235(13) 1.662(2) 0.7334(13) 0.1533 Uani
H4F H -0.1941 1.6656 0.7649 0.1870 Uiso
O8F O -0.1855(10) 1.5314(10) 0.6289(6) 0.0627 Uani
H5F H -0.1977 1.4946 0.6448 0.0750 Uiso
H6F H -0.2075 1.5458 0.6009 0.0750 Uiso
O7H O -0.1575(9) 1.6958(9) 0.6875(11) 0.0810 Uani
C10H C -0.162(2) 1.7235(13) 0.7334(13) 0.1533 Uani
H4H H -0.1656 1.6941 0.7649 0.1870 Uiso
O1G O 0.4610(4) 1.9376(5) 0.7120(4) 0.0650 Uani
O2G O 0.3993(4) 1.9947(5) 0.7704(4) 0.0650 Uani
O3G O 0.2220(5) 1.8414(5) 0.5480(3) 0.0627 Uani
O4G O 0.3275(6) 1.8085(5) 0.5643(3) 0.0727 Uani
O5G O 0.1042(4) 1.9933(4) 0.6699(3) 0.0420 Uani
O6G O 0.1579(4) 2.0501(4) 0.7382(3) 0.0470 Uani
C1G C 0.4044(5) 1.9630(7) 0.7260(5) 0.0443 Uani
C2G C 0.2776(8) 1.8458(6) 0.5736(4) 0.0483 Uani
C3G C 0.1590(5) 2.0121(6) 0.6978(5) 0.0333 Uani
C4G C 0.3415(5) 1.9531(5) 0.6931(3) 0.0270 Uani
C5G C 0.2825(5) 1.9865(5) 0.7090(4) 0.0227 Uani
H1G H 0.2822 2.0148 0.7397 0.0270 Uiso
C6G C 0.2229(5) 1.9766(5) 0.6779(4) 0.0223 Uani
C7G C 0.2222(5) 1.9326(5) 0.6357(4) 0.0287 Uani
H2G H 0.1819 1.9251 0.6162 0.0350 Uiso
C8G C 0.2820(5) 1.8979(5) 0.6208(4) 0.0270 Uani
C9G C 0.3413(6) 1.9085(5) 0.6484(4) 0.0337 Uani
H3G H 0.3812 1.8862 0.6378 0.0400 Uiso
O8N O 0.1855(10) 1.4686(10) 0.3711(6) 0.0627 Uani
H5N H 0.1977 1.5054 0.3552 0.0750 Uiso
H6N H 0.2075 1.4542 0.3991 0.0750 Uiso
O8H O -0.0314(10) 1.6855(10) 0.6289(6) 0.0627 Uani
H5H H 0.0054 1.6977 0.6448 0.0750 Uiso
H6H H -0.0458 1.7075 0.6009 0.0750 Uiso
In1A In 0.49971(3) 2.00029(3) 0.19268(3) 0.0174 Uani
In1B In 0.00029(3) 2.00029(3) 0.69268(3) 0.0174 Uani
In1C In 0.49971(3) 1.49971(3) 0.69268(3) 0.0174 Uani
In1D In -0.00029(3) 1.99971(3) 0.30732(3) 0.0174 Uani
In1E In 0.50029(3) 1.50029(3) 0.30732(3) 0.0174 Uani
In1G In 0.50029(3) 1.99971(3) 0.80732(3) 0.0174 Uani
Sr1A Sr 0.41500(5) 2.08500(5) 0.31997(5) 0.0245 Uani
Sr1B Sr 0.08500(5) 2.08500(5) 0.81997(5) 0.0245 Uani
Sr1C Sr 0.41500(5) 1.41500(5) 0.81997(5) 0.0245 Uani
Sr1D Sr -0.08500(5) 1.91500(5) 0.18003(5) 0.0245 Uani
Sr1E Sr 0.58500(5) 1.58500(5) 0.18003(5) 0.0245 Uani
Sr1G Sr 0.58500(5) 1.91500(5) 0.68003(5) 0.0245 Uani
O1H O -0.0624(5) 1.4610(4) 0.7120(4) 0.0650 Uani
O1N O -0.0390(4) 1.4376(5) 0.2880(4) 0.0650 Uani
O2H O -0.0053(5) 1.3993(4) 0.7704(4) 0.0650 Uani
O2N O -0.1007(4) 1.4947(5) 0.2296(4) 0.0650 Uani
O5C O -0.1042(4) 1.4933(4) 0.8301(3) 0.0420 Uani
O5D O -0.0067(4) 1.3958(4) 0.1699(3) 0.0420 Uani
O5K O 0.1042(4) 1.5067(4) 0.1699(3) 0.0420 Uani
O5L O 0.0067(4) 1.6042(4) 0.8301(3) 0.0420 Uani
O6C O -0.1579(4) 1.5501(4) 0.7618(3) 0.0470 Uani
O6D O 0.0501(4) 1.3421(4) 0.2382(3) 0.0470 Uani
O6K O 0.1579(4) 1.4499(4) 0.2382(3) 0.0470 Uani
O6L O -0.0501(4) 1.6579(4) 0.7618(3) 0.0470 Uani
loop_
_atom_site_aniso_label
_atom_site_aniso_U_11
_atom_site_aniso_U_22
_atom_site_aniso_U_33
_atom_site_aniso_U_23
_atom_site_aniso_U_13
_atom_site_aniso_U_12
In1 0.0168(4) 0.0168(4) 0.0187(5) 0.0005(3) -0.0005(3) -0.0020(3)
In2 0.0229(4) 0.0229(4) 0.0110(6) 0.000 0.000 0.0060(5)
Sr1 0.0280(5) 0.0280(5) 0.0176(6) 0.0031(4) -0.0031(4) 0.0036(6)
O1 0.091(5) 0.033(4) 0.071(5) -0.016(3) 0.052(4) -0.006(3)
O2 0.091(5) 0.033(4) 0.071(5) -0.016(3) 0.052(4) -0.006(3)
O3 0.074(5) 0.077(5) 0.037(4) 0.028(4) -0.012(4) -0.027(4)
O4 0.055(6) 0.135(10) 0.028(4) -0.009(5) -0.013(4) 0.058(6)
O5 0.077(6) 0.025(4) 0.024(4) -0.002(3) 0.019(4) 0.006(4)
O6 0.046(5) 0.061(6) 0.034(4) 0.021(4) -0.008(4) 0.024(4)
O7 0.030(9) 0.033(9) 0.18(2) 0.047(12) -0.005(11) -0.001(7)
Cl1 0.118(4) 0.118(4) 0.036(3) 0.0073(16) -0.0073(16) 0.069(4)
C1 0.067(8) 0.012(5) 0.054(8) 0.003(5) 0.039(7) -0.007(5)
C2 0.037(7) 0.101(11) 0.007(4) 0.014(6) -0.002(5) 0.004(7)
C3 0.042(6) 0.013(5) 0.045(6) -0.005(5) 0.016(5) 0.007(4)
C4 0.042(6) 0.022(5) 0.017(4) 0.001(4) 0.002(4) 0.006(4)
C5 0.025(5) 0.027(5) 0.016(4) 0.000(4) -0.008(4) 0.000(4)
C6 0.031(5) 0.020(5) 0.016(4) -0.002(4) -0.008(4) -0.003(4)
C7 0.038(6) 0.029(5) 0.019(5) -0.004(4) -0.001(4) 0.000(4)
C8 0.022(5) 0.041(6) 0.018(4) 0.006(4) -0.008(4) 0.001(4)
C9 0.040(6) 0.042(6) 0.019(5) 0.014(5) 0.006(4) 0.018(5)
C10 0.10(2) 0.060(17) 0.30(4) -0.02(2) 0.11(3) 0.026(11)
O8 0.074(5) 0.077(5) 0.037(4) 0.028(4) -0.012(4) -0.027(4)
O7N 0.033 0.03 0.18 0.005 -0.047 -0.001
C10N 0.06 0.1 0.3 -0.11 0.02 0.026
O1A 0.091 0.033 0.071 0.016 -0.052 -0.006
O2A 0.091 0.033 0.071 0.016 -0.052 -0.006
O3A 0.074 0.077 0.037 -0.028 0.012 -0.027
O4A 0.055 0.135 0.028 0.009 0.013 0.058
O5A 0.077 0.025 0.024 0.002 -0.019 0.006
O6A 0.046 0.061 0.034 -0.021 0.008 0.024
C1A 0.067 0.012 0.054 -0.003 -0.039 -0.007
C2A 0.037 0.101 0.007 -0.014 0.002 0.004
C3A 0.042 0.013 0.045 0.005 -0.016 0.007
C4A 0.042 0.022 0.017 -0.001 -0.002 0.006
C5A 0.025 0.027 0.016 0 0.008 0
C6A 0.031 0.02 0.016 0.002 0.008 -0.003
C7A 0.038 0.029 0.019 0.004 0.001 0
C8A 0.022 0.041 0.018 -0.006 0.008 0.001
C9A 0.04 0.042 0.019 -0.014 -0.006 0.018
In1F 0.0168 0.0168 0.0187 0.0005 -0.0005 -0.002
Sr1F 0.028 0.028 0.0176 0.0031 -0.0031 0.0036
O1F 0.033 0.091 0.071 -0.052 0.016 -0.006
O2F 0.033 0.091 0.071 -0.052 0.016 -0.006
O3F 0.077 0.074 0.037 0.012 -0.028 -0.027
O4F 0.135 0.055 0.028 0.013 0.009 0.058
O5F 0.025 0.077 0.024 -0.019 0.002 0.006
O6F 0.061 0.046 0.034 0.008 -0.021 0.024
O7F 0.033 0.03 0.18 0.005 -0.047 -0.001
Cl1F 0.118 0.118 0.036 0.0073 -0.0073 0.069
C1F 0.012 0.067 0.054 -0.039 -0.003 -0.007
C2F 0.101 0.037 0.007 0.002 -0.014 0.004
C3F 0.013 0.042 0.045 -0.016 0.005 0.007
C4F 0.022 0.042 0.017 -0.002 -0.001 0.006
C5F 0.027 0.025 0.016 0.008 0 0
C6F 0.02 0.031 0.016 0.008 0.002 -0.003
C7F 0.029 0.038 0.019 0.001 0.004 0
C8F 0.041 0.022 0.018 0.008 -0.006 0.001
C9F 0.042 0.04 0.019 -0.006 -0.014 0.018
C10F 0.06 0.1 0.3 -0.11 0.02 0.026
O8F 0.077 0.074 0.037 0.012 -0.028 -0.027
O7H 0.03 0.033 0.18 0.047 -0.005 -0.001
C10H 0.1 0.06 0.3 -0.02 0.11 0.026
O1G 0.033 0.091 0.071 0.052 -0.016 -0.006
O2G 0.033 0.091 0.071 0.052 -0.016 -0.006
O3G 0.077 0.074 0.037 -0.012 0.028 -0.027
O4G 0.135 0.055 0.028 -0.013 -0.009 0.058
O5G 0.025 0.077 0.024 0.019 -0.002 0.006
O6G 0.061 0.046 0.034 -0.008 0.021 0.024
C1G 0.012 0.067 0.054 0.039 0.003 -0.007
C2G 0.101 0.037 0.007 -0.002 0.014 0.004
C3G 0.013 0.042 0.045 0.016 -0.005 0.007
C4G 0.022 0.042 0.017 0.002 0.001 0.006
C5G 0.027 0.025 0.016 -0.008 0 0
C6G 0.02 0.031 0.016 -0.008 -0.002 -0.003
C7G 0.029 0.038 0.019 -0.001 -0.004 0
C8G 0.041 0.022 0.018 -0.008 0.006 0.001
C9G 0.042 0.04 0.019 0.006 0.014 0.018
O8N 0.077 0.074 0.037 0.012 -0.028 -0.027
O8H 0.074 0.077 0.037 0.028 -0.012 -0.027
In1A 0.0168 0.0168 0.0187 -0.0005 0.0005 -0.002
In1B 0.0168 0.0168 0.0187 -0.0005 -0.0005 0.002
In1C 0.0168 0.0168 0.0187 0.0005 0.0005 0.002
In1D 0.0168 0.0168 0.0187 -0.0005 -0.0005 0.002
In1E 0.0168 0.0168 0.0187 0.0005 0.0005 0.002
In1G 0.0168 0.0168 0.0187 -0.0005 0.0005 -0.002
Sr1A 0.028 0.028 0.0176 -0.0031 0.0031 0.0036
Sr1B 0.028 0.028 0.0176 -0.0031 -0.0031 -0.0036
Sr1C 0.028 0.028 0.0176 0.0031 0.0031 -0.0036
Sr1D 0.028 0.028 0.0176 -0.0031 -0.0031 -0.0036
Sr1E 0.028 0.028 0.0176 0.0031 0.0031 -0.0036
Sr1G 0.028 0.028 0.0176 -0.0031 0.0031 0.0036
O1H 0.091 0.033 0.071 -0.016 0.052 -0.006
O1N 0.033 0.091 0.071 -0.052 0.016 -0.006
O2H 0.091 0.033 0.071 -0.016 0.052 -0.006
O2N 0.033 0.091 0.071 -0.052 0.016 -0.006
O5C 0.025 0.077 0.024 -0.019 -0.002 -0.006
O5D 0.077 0.025 0.024 0.002 0.019 -0.006
O5K 0.025 0.077 0.024 -0.019 -0.002 -0.006
O5L 0.077 0.025 0.024 0.002 0.019 -0.006
O6C 0.061 0.046 0.034 0.008 0.021 -0.024
O6D 0.046 0.061 0.034 -0.021 -0.008 -0.024
O6K 0.061 0.046 0.034 0.008 0.021 -0.024
O6L 0.046 0.061 0.034 -0.021 -0.008 -0.024
loop_
_geom_bond_atom_site_label_1
_geom_bond_atom_site_label_2
_geom_bond_site_symmetry_1
_geom_bond_site_symmetry_2
In1 O2 1_555 1_555
In2 O3 1_555 1_555
Sr1 O1 1_555 1_555
O1 C1 1_555 1_555
O2 C1 1_555 1_555
O3 C2 1_555 1_555
O4 In2 1_555 1_555
O5 C3 1_555 1_555
O6 C3 1_555 1_555
O7 Sr1 1_555 1_555
Cl1 In1 1_555 1_555
C1 C4 1_555 1_555
C2 O4 1_555 1_555
C3 C6 1_555 1_555
C4 C5 1_555 1_555
C5 H1 1_555 1_555
C6 C5 1_555 1_555
C7 C6 1_555 1_555
H2 C7 1_555 1_555
C8 C2 1_555 1_555
C9 C4 1_555 1_555
H3 C9 1_555 1_555
C10 O7 1_555 1_555
H4 C10 1_555 1_555
O8 Sr1 1_555 1_555
H5 O8 1_555 1_555
H6 O8 1_555 1_555
O7N Sr1 1_555 1_555
C10N C10 1_555 1_555
H4N C10N 1_555 1_555
O1A C1A 1_555 1_555
O2A C1A 1_555 1_555
O3A In2 1_555 1_555
O4A In2 1_555 1_555
O5A C3A 1_555 1_555
O6A C3A 1_555 1_555
C1A C4A 1_555 1_555
C2A O3A 1_555 1_555
C3A C6A 1_555 1_555
C4A C5A 1_555 1_555
C5A H1A 1_555 1_555
C6A C5A 1_555 1_555
C7A C6A 1_555 1_555
H2A C7A 1_555 1_555
C8A C2A 1_555 1_555
C9A C4A 1_555 1_555
H3A C9A 1_555 1_555
In1F O2F 1_555 1_555
Sr1F O1F 1_555 1_555
O1F C1F 1_555 1_555
O2F C1F 1_555 1_555
O3F In2 1_555 1_555
O4F In2 1_555 1_555
O5F C3F 1_555 1_555
O6F C3F 1_555 1_555
O7F Sr1F 1_555 1_555
Cl1F In1F 1_555 1_555
C1F C4F 1_555 1_555
C2F O3F 1_555 1_555
C3F C6F 1_555 1_555
C4F C5F 1_555 1_555
C5F H1F 1_555 1_555
C6F C5F 1_555 1_555
C7F C6F 1_555 1_555
H2F C7F 1_555 1_555
C8F C2F 1_555 1_555
C9F C4F 1_555 1_555
H3F C9F 1_555 1_555
C10F O7F 1_555 1_555
H4F C10F 1_555 1_555
O8F Sr1F 1_555 1_555
H5F O8F 1_555 1_555
H6F O8F 1_555 1_555
O7H Sr1F 1_555 1_555
C10H C10F 1_555 1_555
H4H C10H 1_555 1_555
O1G C1G 1_555 1_555
O2G C1G 1_555 1_555
O3G In2 1_555 1_555
O4G In2 1_555 1_555
O5G C3G 1_555 1_555
O6G C3G 1_555 1_555
C1G C4G 1_555 1_555
C2G O3G 1_555 1_555
C3G C6G 1_555 1_555
C4G C5G 1_555 1_555
C5G H1G 1_555 1_555
C6G C5G 1_555 1_555
C7G C6G 1_555 1_555
H2G C7G 1_555 1_555
C8G C2G 1_555 1_555
C9G C4G 1_555 1_555
H3G C9G 1_555 1_555
O8N Sr1 1_555 1_555
H5N O8N 1_555 1_555
H6N O8N 1_555 1_555
O8H Sr1F 1_555 1_555
H5H O8H 1_555 1_555
H6H O8H 1_555 1_555
In1A O2A 1_555 1_555
In1B O5G 1_555 1_555
In1C O5F 1_555 1_555
In1D O5 1_555 1_555
In1E O5A 1_555 1_555
In1G O2G 1_555 1_555
Sr1A O1A 1_555 1_555
Sr1B O6G 1_555 1_555
Sr1C O6F 1_555 1_555
Sr1D O6 1_555 1_555
Sr1E O6A 1_555 1_555
Sr1G O1G 1_555 1_555
O1H Sr1F 1_555 1_555
O1N Sr1 1_555 1_555
O2H In1F 1_555 1_555
O2N In1 1_555 1_555
O5C In1F 1_555 1_555
O5D In1 1_555 1_555
O5K In1 1_555 1_555
O5L In1F 1_555 1_555
O6C Sr1F 1_555 1_555
O6D Sr1 1_555 1_555
O6K Sr1 1_555 1_555
O6L Sr1F 1_555 1_555
O7 O7N 1_555 1_555
C7 C8 1_555 1_555
C8 C9 1_555 1_555
O7N C10N 1_555 1_555
O4A C2A 1_555 1_555
C7A C8A 1_555 1_555
C8A C9A 1_555 1_555
O4F C2F 1_555 1_555
O7F O7H 1_555 1_555
C7F C8F 1_555 1_555
C8F C9F 1_555 1_555
O7H C10H 1_555 1_555
O4G C2G 1_555 1_555
C7G C8G 1_555 1_555
C8G C9G 1_555 1_555

#END
