
#######################################################################
#
#                 Cambridge Crystallographic Data Centre
#                                CCDC 
#
#######################################################################
#
# If this CIF has been generated from an entry in the Cambridge 
# Structural Database, then it will include bibliographic, chemical, 
# crystal, experimental, refinement or atomic coordinate data resulting 
# from the CCDC's data processing and validation procedures.
#
#######################################################################

data_PARSAF
_chemical_formula_moiety         'C40 H24 Ca8 Cl2 In9 O44'
_symmetry_cell_setting           tetragonal
_symmetry_space_group_name_H-M   'P 42/n c m'
_symmetry_Int_Tables_number      138
_space_group_name_Hall           '-P 4ac 2ac'
loop_
_symmetry_equiv_pos_site_id
_symmetry_equiv_pos_as_xyz
1 x,y,z
2 1/2-x,1/2-y,z
3 1/2-y,x,1/2+z
4 y,1/2-x,1/2+z
5 -x,1/2+y,1/2-z
6 1/2+x,-y,1/2-z
7 1/2+y,1/2+x,-z
8 -y,-x,-z
9 -x,-y,-z
10 1/2+x,1/2+y,-z
11 1/2+y,-x,1/2-z
12 -y,1/2+x,1/2-z
13 x,1/2-y,1/2+z
14 1/2-x,y,1/2+z
15 1/2-y,1/2-x,z
16 y,x,z
_cell_length_a                   19.5189(12)
_cell_length_b                   19.5189(12)
_cell_length_c                   24.2530(14)
_cell_angle_alpha                90
_cell_angle_beta                 90
_cell_angle_gamma                90
_cell_volume                     9240.09
loop_
_atom_site_label
_atom_site_type_symbol
_atom_site_fract_x
_atom_site_fract_y
_atom_site_fract_z
_atom_site_U_iso_or_equiv
_atom_site_thermal_displace_type
In1 In -0.00394(2) 1.50394(2) 0.18996(3) 0.0165 Uani
In2 In 0.2500 1.7500 0.5000 0.0215 Uani
Ca1 Ca 0.07921(8) 1.42079(8) 0.31218(9) 0.0221 Uani
O1 O 0.0562(4) 1.5410(4) 0.2877(4) 0.0690 Uani
O2 O 0.0023(4) 1.6023(4) 0.2290(4) 0.0690 Uani
O3 O 0.1609(4) 1.7781(4) 0.4511(3) 0.0620 Uani
O4 O 0.1914(4) 1.6738(5) 0.4356(3) 0.0737 Uani
O5 O 0.0090(4) 1.8989(3) 0.3299(3) 0.0487 Uani
O6 O -0.0475(3) 1.8458(3) 0.2617(3) 0.0407 Uani
O7 O 0.1415(6) 1.3181(6) 0.3249(6) 0.0493 Uani
Cl1 Cl -0.04251(15) 1.54251(15) 0.10279(15) 0.0844 Uani
C1 C 0.0344(6) 1.5966(4) 0.2749(5) 0.0480 Uani
C2 C 0.1534(5) 1.7239(7) 0.4256(4) 0.0477 Uani
C3 C -0.0099(5) 1.8460(4) 0.3013(4) 0.0297 Uani
C4 C 0.0442(4) 1.6600(4) 0.3059(3) 0.0297 Uani
C5 C 0.0130(4) 1.7205(4) 0.2911(3) 0.0223 Uani
H1 H -0.0162 1.7212 0.2608 0.0270 Uiso
C6 C 0.0241(4) 1.7799(4) 0.3204(3) 0.0223 Uani
C7 C 0.0686(4) 1.7797(4) 0.3654(3) 0.0273 Uani
H2 H 0.0760 1.8197 0.3854 0.0330 Uiso
C8 C 0.1020(4) 1.7191(5) 0.3804(3) 0.0327 Uani
C9 C 0.0891(4) 1.6594(4) 0.3505(3) 0.0303 Uani
H3 H 0.1107 1.6188 0.3604 0.0360 Uiso
C10 C 0.1541(11) 1.2794(9) 0.2856(8) 0.0613 Uani
H4 H 0.1535 1.2946 0.2480 0.0740 Uiso
O8 O 0.0376(11) 1.3292(11) 0.3704(8) 0.0897 Uani
H5 H -0.0013 1.3113 0.3643 0.1080 Uiso
H6 H 0.0620 1.3150 0.3970 0.1080 Uiso
O7N O 0.1819(6) 1.3585(6) 0.3249(6) 0.0493 Uani
C10N C 0.2206(9) 1.3459(11) 0.2856(8) 0.0613 Uani
H4N H 0.2054 1.3465 0.2480 0.0740 Uiso
O1A O 0.4438(4) 1.9590(4) 0.2877(4) 0.0690 Uani
O2A O 0.4977(4) 1.8977(4) 0.2290(4) 0.0690 Uani
O3A O 0.3391(4) 1.7219(4) 0.4511(3) 0.0620 Uani
O4A O 0.3086(4) 1.8262(5) 0.4356(3) 0.0737 Uani
O5A O 0.4910(4) 1.6011(3) 0.3299(3) 0.0487 Uani
O6A O 0.5475(3) 1.6542(3) 0.2617(3) 0.0407 Uani
C1A C 0.4656(6) 1.9034(4) 0.2749(5) 0.0480 Uani
C2A C 0.3466(5) 1.7761(7) 0.4256(4) 0.0477 Uani
C3A C 0.5099(5) 1.6540(4) 0.3013(4) 0.0297 Uani
C4A C 0.4558(4) 1.8400(4) 0.3059(3) 0.0297 Uani
C5A C 0.4870(4) 1.7795(4) 0.2911(3) 0.0223 Uani
H1A H 0.5162 1.7788 0.2608 0.0270 Uiso
C6A C 0.4759(4) 1.7201(4) 0.3204(3) 0.0223 Uani
C7A C 0.4314(4) 1.7203(4) 0.3654(3) 0.0273 Uani
H2A H 0.4240 1.6803 0.3854 0.0330 Uiso
C8A C 0.3980(4) 1.7809(5) 0.3804(3) 0.0327 Uani
C9A C 0.4109(4) 1.8406(4) 0.3505(3) 0.0303 Uani
H3A H 0.3893 1.8812 0.3604 0.0360 Uiso
In1F In 0.00394(2) 1.49606(2) 0.81004(3) 0.0165 Uani
Ca1F Ca -0.07921(8) 1.57921(8) 0.68782(9) 0.0221 Uani
O1F O 0.0410(4) 1.5562(4) 0.7123(4) 0.0690 Uani
O2F O 0.1023(4) 1.5023(4) 0.7710(4) 0.0690 Uani
O3F O 0.2781(4) 1.6609(4) 0.5489(3) 0.0620 Uani
O4F O 0.1738(5) 1.6914(4) 0.5644(3) 0.0737 Uani
O5F O 0.3989(3) 1.5090(4) 0.6701(3) 0.0487 Uani
O6F O 0.3458(3) 1.4525(3) 0.7383(3) 0.0407 Uani
O7F O -0.1819(6) 1.6415(6) 0.6751(6) 0.0493 Uani
Cl1F Cl 0.04251(15) 1.45749(15) 0.89721(15) 0.0844 Uani
C1F C 0.0966(4) 1.5344(6) 0.7251(5) 0.0480 Uani
C2F C 0.2239(7) 1.6534(5) 0.5744(4) 0.0477 Uani
C3F C 0.3460(4) 1.4901(5) 0.6987(4) 0.0297 Uani
C4F C 0.1600(4) 1.5442(4) 0.6941(3) 0.0297 Uani
C5F C 0.2205(4) 1.5130(4) 0.7089(3) 0.0223 Uani
H1F H 0.2212 1.4838 0.7392 0.0270 Uiso
C6F C 0.2799(4) 1.5241(4) 0.6796(3) 0.0223 Uani
C7F C 0.2797(4) 1.5686(4) 0.6346(3) 0.0273 Uani
H2F H 0.3197 1.5760 0.6146 0.0330 Uiso
C8F C 0.2191(5) 1.6020(4) 0.6196(3) 0.0327 Uani
C9F C 0.1594(4) 1.5891(4) 0.6495(3) 0.0303 Uani
H3F H 0.1188 1.6107 0.6396 0.0360 Uiso
C10F C -0.2206(9) 1.6541(11) 0.7144(8) 0.0613 Uani
H4F H -0.2054 1.6535 0.7520 0.0740 Uiso
O8F O -0.1708(11) 1.5376(11) 0.6296(8) 0.0897 Uani
H5F H -0.1887 1.4987 0.6357 0.1080 Uiso
H6F H -0.1850 1.5620 0.6030 0.1080 Uiso
O7H O -0.1415(6) 1.6819(6) 0.6751(6) 0.0493 Uani
C10H C -0.1541(11) 1.7206(9) 0.7144(8) 0.0613 Uani
H4H H -0.1535 1.7054 0.7520 0.0740 Uiso
O1G O 0.4590(4) 1.9438(4) 0.7123(4) 0.0690 Uani
O2G O 0.3977(4) 1.9977(4) 0.7710(4) 0.0690 Uani
O3G O 0.2219(4) 1.8391(4) 0.5489(3) 0.0620 Uani
O4G O 0.3262(5) 1.8086(4) 0.5644(3) 0.0737 Uani
O5G O 0.1011(3) 1.9910(4) 0.6701(3) 0.0487 Uani
O6G O 0.1542(3) 2.0475(3) 0.7383(3) 0.0407 Uani
C1G C 0.4034(4) 1.9656(6) 0.7251(5) 0.0480 Uani
C2G C 0.2761(7) 1.8466(5) 0.5744(4) 0.0477 Uani
C3G C 0.1540(4) 2.0099(5) 0.6987(4) 0.0297 Uani
C4G C 0.3400(4) 1.9558(4) 0.6941(3) 0.0297 Uani
C5G C 0.2795(4) 1.9870(4) 0.7089(3) 0.0223 Uani
H1G H 0.2788 2.0162 0.7392 0.0270 Uiso
C6G C 0.2201(4) 1.9759(4) 0.6796(3) 0.0223 Uani
C7G C 0.2203(4) 1.9314(4) 0.6346(3) 0.0273 Uani
H2G H 0.1803 1.9240 0.6146 0.0330 Uiso
C8G C 0.2809(5) 1.8980(4) 0.6196(3) 0.0327 Uani
C9G C 0.3406(4) 1.9109(4) 0.6495(3) 0.0303 Uani
H3G H 0.3812 1.8893 0.6396 0.0360 Uiso
O8N O 0.1708(11) 1.4624(11) 0.3704(8) 0.0897 Uani
H5N H 0.1887 1.5013 0.3643 0.1080 Uiso
H6N H 0.1850 1.4380 0.3970 0.1080 Uiso
O8H O -0.0376(11) 1.6708(11) 0.6296(8) 0.0897 Uani
H5H H 0.0013 1.6887 0.6357 0.1080 Uiso
H6H H -0.0620 1.6850 0.6030 0.1080 Uiso
In1A In 0.50394(2) 1.99606(2) 0.18996(3) 0.0165 Uani
In1B In -0.00394(2) 1.99606(2) 0.68996(3) 0.0165 Uani
In1C In 0.50394(2) 1.50394(2) 0.68996(3) 0.0165 Uani
In1D In 0.00394(2) 2.00394(2) 0.31004(3) 0.0165 Uani
In1E In 0.49606(2) 1.49606(2) 0.31004(3) 0.0165 Uani
In1G In 0.49606(2) 2.00394(2) 0.81004(3) 0.0165 Uani
Ca1A Ca 0.42079(8) 2.07921(8) 0.31218(9) 0.0221 Uani
Ca1B Ca 0.07921(8) 2.07921(8) 0.81218(9) 0.0221 Uani
Ca1C Ca 0.42079(8) 1.42079(8) 0.81218(9) 0.0221 Uani
Ca1D Ca -0.07921(8) 1.92079(8) 0.18782(9) 0.0221 Uani
Ca1E Ca 0.57921(8) 1.57921(8) 0.18782(9) 0.0221 Uani
Ca1G Ca 0.57921(8) 1.92079(8) 0.68782(9) 0.0221 Uani
O1H O -0.0562(4) 1.4590(4) 0.7123(4) 0.0690 Uani
O1N O -0.0410(4) 1.4438(4) 0.2877(4) 0.0690 Uani
O2H O -0.0023(4) 1.3977(4) 0.7710(4) 0.0690 Uani
O2N O -0.1023(4) 1.4977(4) 0.2290(4) 0.0690 Uani
O5C O -0.1011(3) 1.4910(4) 0.8299(3) 0.0487 Uani
O5D O -0.0090(4) 1.3989(3) 0.1701(3) 0.0487 Uani
O5K O 0.1011(3) 1.5090(4) 0.1701(3) 0.0487 Uani
O5L O 0.0090(4) 1.6011(3) 0.8299(3) 0.0487 Uani
O6C O -0.1542(3) 1.5475(3) 0.7617(3) 0.0407 Uani
O6D O 0.0475(3) 1.3458(3) 0.2383(3) 0.0407 Uani
O6K O 0.1542(3) 1.4525(3) 0.2383(3) 0.0407 Uani
O6L O -0.0475(3) 1.6542(3) 0.7617(3) 0.0407 Uani
loop_
_atom_site_aniso_label
_atom_site_aniso_U_11
_atom_site_aniso_U_22
_atom_site_aniso_U_33
_atom_site_aniso_U_23
_atom_site_aniso_U_13
_atom_site_aniso_U_12
In1 0.0132(3) 0.0132(3) 0.0232(4) 0.0020(2) -0.0020(2) -0.0006(3)
In2 0.0246(4) 0.0246(4) 0.0153(5) 0.000 0.000 0.0115(5)
Ca1 0.0212(7) 0.0212(7) 0.0240(11) 0.0028(7) -0.0028(7) 0.0023(9)
O1 0.076(4) 0.027(3) 0.104(5) -0.020(3) 0.057(4) -0.014(3)
O2 0.076(4) 0.027(3) 0.104(5) -0.020(3) 0.057(4) -0.014(3)
O3 0.069(5) 0.070(5) 0.047(4) 0.032(4) -0.041(4) -0.040(4)
O4 0.055(5) 0.127(8) 0.039(4) -0.003(5) -0.018(4) 0.052(5)
O5 0.087(6) 0.008(3) 0.051(4) 0.001(3) 0.026(4) 0.010(3)
O6 0.028(3) 0.045(4) 0.049(4) 0.019(3) -0.002(3) 0.014(3)
O7 0.036(7) 0.031(7) 0.081(10) -0.006(6) -0.013(7) 0.016(5)
Cl1 0.113(3) 0.113(3) 0.0271(18) 0.0101(11) -0.0101(11) 0.076(3)
C1 0.067(6) 0.013(4) 0.064(6) -0.013(4) 0.027(5) -0.008(4)
C2 0.022(5) 0.093(9) 0.028(5) 0.024(6) -0.006(4) -0.003(5)
C3 0.036(3) 0.016(3) 0.037(3) 0.006(2) 0.011(3) 0.013(2)
C4 0.036(3) 0.016(3) 0.037(3) 0.006(2) 0.011(3) 0.013(2)
C5 0.027(4) 0.014(4) 0.026(4) -0.007(3) -0.007(3) -0.003(3)
C6 0.023(4) 0.016(4) 0.028(4) 0.001(3) -0.015(3) 0.008(3)
C7 0.033(5) 0.023(4) 0.026(4) -0.002(3) -0.014(4) -0.002(3)
C8 0.015(4) 0.051(5) 0.032(4) 0.007(4) -0.007(3) 0.003(4)
C9 0.031(5) 0.023(4) 0.037(5) 0.011(4) -0.001(4) 0.016(4)
C10 0.046(9) 0.070(10) 0.068(9) -0.023(8) -0.005(8) -0.001(8)
O8 0.085(5) 0.097(6) 0.087(5) 0.003(4) 0.003(4) 0.002(4)
O7N 0.031 0.036 0.081 0.013 0.006 0.016
C10N 0.07 0.046 0.068 0.005 0.023 -0.001
O1A 0.076 0.027 0.104 0.02 -0.057 -0.014
O2A 0.076 0.027 0.104 0.02 -0.057 -0.014
O3A 0.069 0.07 0.047 -0.032 0.041 -0.04
O4A 0.055 0.127 0.039 0.003 0.018 0.052
O5A 0.087 0.008 0.051 -0.001 -0.026 0.01
O6A 0.028 0.045 0.049 -0.019 0.002 0.014
C1A 0.067 0.013 0.064 0.013 -0.027 -0.008
C2A 0.022 0.093 0.028 -0.024 0.006 -0.003
C3A 0.036 0.016 0.037 -0.006 -0.011 0.013
C4A 0.036 0.016 0.037 -0.006 -0.011 0.013
C5A 0.027 0.014 0.026 0.007 0.007 -0.003
C6A 0.023 0.016 0.028 -0.001 0.015 0.008
C7A 0.033 0.023 0.026 0.002 0.014 -0.002
C8A 0.015 0.051 0.032 -0.007 0.007 0.003
C9A 0.031 0.023 0.037 -0.011 0.001 0.016
In1F 0.0132 0.0132 0.0232 0.002 -0.002 -0.0006
Ca1F 0.0212 0.0212 0.024 0.0028 -0.0028 0.0023
O1F 0.027 0.076 0.104 -0.057 0.02 -0.014
O2F 0.027 0.076 0.104 -0.057 0.02 -0.014
O3F 0.07 0.069 0.047 0.041 -0.032 -0.04
O4F 0.127 0.055 0.039 0.018 0.003 0.052
O5F 0.008 0.087 0.051 -0.026 -0.001 0.01
O6F 0.045 0.028 0.049 0.002 -0.019 0.014
O7F 0.031 0.036 0.081 0.013 0.006 0.016
Cl1F 0.113 0.113 0.0271 0.0101 -0.0101 0.076
C1F 0.013 0.067 0.064 -0.027 0.013 -0.008
C2F 0.093 0.022 0.028 0.006 -0.024 -0.003
C3F 0.016 0.036 0.037 -0.011 -0.006 0.013
C4F 0.016 0.036 0.037 -0.011 -0.006 0.013
C5F 0.014 0.027 0.026 0.007 0.007 -0.003
C6F 0.016 0.023 0.028 0.015 -0.001 0.008
C7F 0.023 0.033 0.026 0.014 0.002 -0.002
C8F 0.051 0.015 0.032 0.007 -0.007 0.003
C9F 0.023 0.031 0.037 0.001 -0.011 0.016
C10F 0.07 0.046 0.068 0.005 0.023 -0.001
O8F 0.097 0.085 0.087 -0.003 -0.003 0.002
O7H 0.036 0.031 0.081 -0.006 -0.013 0.016
C10H 0.046 0.07 0.068 -0.023 -0.005 -0.001
O1G 0.027 0.076 0.104 0.057 -0.02 -0.014
O2G 0.027 0.076 0.104 0.057 -0.02 -0.014
O3G 0.07 0.069 0.047 -0.041 0.032 -0.04
O4G 0.127 0.055 0.039 -0.018 -0.003 0.052
O5G 0.008 0.087 0.051 0.026 0.001 0.01
O6G 0.045 0.028 0.049 -0.002 0.019 0.014
C1G 0.013 0.067 0.064 0.027 -0.013 -0.008
C2G 0.093 0.022 0.028 -0.006 0.024 -0.003
C3G 0.016 0.036 0.037 0.011 0.006 0.013
C4G 0.016 0.036 0.037 0.011 0.006 0.013
C5G 0.014 0.027 0.026 -0.007 -0.007 -0.003
C6G 0.016 0.023 0.028 -0.015 0.001 0.008
C7G 0.023 0.033 0.026 -0.014 -0.002 -0.002
C8G 0.051 0.015 0.032 -0.007 0.007 0.003
C9G 0.023 0.031 0.037 -0.001 0.011 0.016
O8N 0.097 0.085 0.087 -0.003 -0.003 0.002
O8H 0.085 0.097 0.087 0.003 0.003 0.002
In1A 0.0132 0.0132 0.0232 -0.002 0.002 -0.0006
In1B 0.0132 0.0132 0.0232 -0.002 -0.002 0.0006
In1C 0.0132 0.0132 0.0232 0.002 0.002 0.0006
In1D 0.0132 0.0132 0.0232 -0.002 -0.002 0.0006
In1E 0.0132 0.0132 0.0232 0.002 0.002 0.0006
In1G 0.0132 0.0132 0.0232 -0.002 0.002 -0.0006
Ca1A 0.0212 0.0212 0.024 -0.0028 0.0028 0.0023
Ca1B 0.0212 0.0212 0.024 -0.0028 -0.0028 -0.0023
Ca1C 0.0212 0.0212 0.024 0.0028 0.0028 -0.0023
Ca1D 0.0212 0.0212 0.024 -0.0028 -0.0028 -0.0023
Ca1E 0.0212 0.0212 0.024 0.0028 0.0028 -0.0023
Ca1G 0.0212 0.0212 0.024 -0.0028 0.0028 0.0023
O1H 0.076 0.027 0.104 -0.02 0.057 -0.014
O1N 0.027 0.076 0.104 -0.057 0.02 -0.014
O2H 0.076 0.027 0.104 -0.02 0.057 -0.014
O2N 0.027 0.076 0.104 -0.057 0.02 -0.014
O5C 0.008 0.087 0.051 -0.026 0.001 -0.01
O5D 0.087 0.008 0.051 -0.001 0.026 -0.01
O5K 0.008 0.087 0.051 -0.026 0.001 -0.01
O5L 0.087 0.008 0.051 -0.001 0.026 -0.01
O6C 0.045 0.028 0.049 0.002 0.019 -0.014
O6D 0.028 0.045 0.049 -0.019 -0.002 -0.014
O6K 0.045 0.028 0.049 0.002 0.019 -0.014
O6L 0.028 0.045 0.049 -0.019 -0.002 -0.014
loop_
_geom_bond_atom_site_label_1
_geom_bond_atom_site_label_2
_geom_bond_site_symmetry_1
_geom_bond_site_symmetry_2
In1 O2 1_555 1_555
In2 O3 1_555 1_555
Ca1 O1 1_555 1_555
O1 C1 1_555 1_555
O2 C1 1_555 1_555
O3 C2 1_555 1_555
O4 In2 1_555 1_555
O5 C3 1_555 1_555
O6 C3 1_555 1_555
O7 Ca1 1_555 1_555
Cl1 In1 1_555 1_555
C1 C4 1_555 1_555
C2 O4 1_555 1_555
C3 C6 1_555 1_555
C4 C5 1_555 1_555
C5 H1 1_555 1_555
C6 C5 1_555 1_555
C7 C6 1_555 1_555
H2 C7 1_555 1_555
C8 C2 1_555 1_555
C9 C4 1_555 1_555
H3 C9 1_555 1_555
C10 O7 1_555 1_555
H4 C10 1_555 1_555
O8 Ca1 1_555 1_555
H5 O8 1_555 1_555
H6 O8 1_555 1_555
O7N Ca1 1_555 1_555
C10N O7N 1_555 1_555
H4N C10N 1_555 1_555
O1A C1A 1_555 1_555
O2A C1A 1_555 1_555
O3A In2 1_555 1_555
O4A In2 1_555 1_555
O5A C3A 1_555 1_555
O6A C3A 1_555 1_555
C1A C4A 1_555 1_555
C2A O3A 1_555 1_555
C3A C6A 1_555 1_555
C4A C5A 1_555 1_555
C5A H1A 1_555 1_555
C6A C5A 1_555 1_555
C7A C6A 1_555 1_555
H2A C7A 1_555 1_555
C8A C2A 1_555 1_555
C9A C4A 1_555 1_555
H3A C9A 1_555 1_555
In1F O2F 1_555 1_555
Ca1F O1F 1_555 1_555
O1F C1F 1_555 1_555
O2F C1F 1_555 1_555
O3F In2 1_555 1_555
O4F In2 1_555 1_555
O5F C3F 1_555 1_555
O6F C3F 1_555 1_555
O7F Ca1F 1_555 1_555
Cl1F In1F 1_555 1_555
C1F C4F 1_555 1_555
C2F O3F 1_555 1_555
C3F C6F 1_555 1_555
C4F C5F 1_555 1_555
C5F H1F 1_555 1_555
C6F C5F 1_555 1_555
C7F C6F 1_555 1_555
H2F C7F 1_555 1_555
C8F C2F 1_555 1_555
C9F C4F 1_555 1_555
H3F C9F 1_555 1_555
C10F O7F 1_555 1_555
H4F C10F 1_555 1_555
O8F Ca1F 1_555 1_555
H5F O8F 1_555 1_555
H6F O8F 1_555 1_555
O7H Ca1F 1_555 1_555
C10H O7H 1_555 1_555
H4H C10H 1_555 1_555
O1G C1G 1_555 1_555
O2G C1G 1_555 1_555
O3G In2 1_555 1_555
O4G In2 1_555 1_555
O5G C3G 1_555 1_555
O6G C3G 1_555 1_555
C1G C4G 1_555 1_555
C2G O3G 1_555 1_555
C3G C6G 1_555 1_555
C4G C5G 1_555 1_555
C5G H1G 1_555 1_555
C6G C5G 1_555 1_555
C7G C6G 1_555 1_555
H2G C7G 1_555 1_555
C8G C2G 1_555 1_555
C9G C4G 1_555 1_555
H3G C9G 1_555 1_555
O8N Ca1 1_555 1_555
H5N O8N 1_555 1_555
H6N O8N 1_555 1_555
O8H Ca1F 1_555 1_555
H5H O8H 1_555 1_555
H6H O8H 1_555 1_555
In1A O2A 1_555 1_555
In1B O5G 1_555 1_555
In1C O5F 1_555 1_555
In1D O5 1_555 1_555
In1E O5A 1_555 1_555
In1G O2G 1_555 1_555
Ca1A O1A 1_555 1_555
Ca1B O6G 1_555 1_555
Ca1C O6F 1_555 1_555
Ca1D O6 1_555 1_555
Ca1E O6A 1_555 1_555
Ca1G O1G 1_555 1_555
O1H Ca1F 1_555 1_555
O1N Ca1 1_555 1_555
O2H In1F 1_555 1_555
O2N In1 1_555 1_555
O5C In1F 1_555 1_555
O5D In1 1_555 1_555
O5K In1 1_555 1_555
O5L In1F 1_555 1_555
O6C Ca1F 1_555 1_555
O6D Ca1 1_555 1_555
O6K Ca1 1_555 1_555
O6L Ca1F 1_555 1_555
O7 O7N 1_555 1_555
C7 C8 1_555 1_555
C8 C9 1_555 1_555
O4A C2A 1_555 1_555
C7A C8A 1_555 1_555
C8A C9A 1_555 1_555
O4F C2F 1_555 1_555
O7F O7H 1_555 1_555
C7F C8F 1_555 1_555
C8F C9F 1_555 1_555
O4G C2G 1_555 1_555
C7G C8G 1_555 1_555
C8G C9G 1_555 1_555

#END
