
#######################################################################
#
#                 Cambridge Crystallographic Data Centre
#                                CCDC 
#
#######################################################################
#
# If this CIF has been generated from an entry in the Cambridge 
# Structural Database, then it will include bibliographic, chemical, 
# crystal, experimental, refinement or atomic coordinate data resulting 
# from the CCDC's data processing and validation procedures.
#
#######################################################################

data_OFOCUI
_chemical_formula_moiety         '(C32 H20 Cu4 N4 O20)n'
_symmetry_cell_setting           rhombohedral
_symmetry_space_group_name_H-M   'R -3'
_symmetry_Int_Tables_number      148
_space_group_name_Hall           '-R 3'
loop_
_symmetry_equiv_pos_site_id
_symmetry_equiv_pos_as_xyz
1 x,y,z
2 -y,x-y,z
3 -x+y,-x,z
4 2/3+x,1/3+y,1/3+z
5 2/3-y,1/3+x-y,1/3+z
6 2/3-x+y,1/3-x,1/3+z
7 1/3+x,2/3+y,2/3+z
8 1/3-y,2/3+x-y,2/3+z
9 1/3-x+y,2/3-x,2/3+z
10 -x,-y,-z
11 y,-x+y,-z
12 x-y,x,-z
13 1/3-x,2/3-y,2/3-z
14 1/3+y,2/3-x+y,2/3-z
15 1/3+x-y,2/3+x,2/3-z
16 2/3-x,1/3-y,1/3-z
17 2/3+y,1/3-x+y,1/3-z
18 2/3+x-y,1/3+x,1/3-z
_cell_length_a                   45.571(6)
_cell_length_b                   45.571(6)
_cell_length_c                   20.270(4)
_cell_angle_alpha                90
_cell_angle_beta                 90
_cell_angle_gamma                120
_cell_volume                     36455.4
loop_
_atom_site_label
_atom_site_type_symbol
_atom_site_fract_x
_atom_site_fract_y
_atom_site_fract_z
_atom_site_U_iso_or_equiv
_atom_site_thermal_displace_type
Cu1 Cu 0.43176(3) 0.06966(3) 0.32792(6) 0.0527 Uani
Cu2 Cu 0.39694(3) 0.10103(3) 0.30228(6) 0.0581 Uani
Cu3 Cu 0.53333(3) 0.27780(3) -0.01182(6) 0.0520 Uani
Cu4 Cu 0.46675(3) 0.24626(3) 0.01250(6) 0.0480 Uani
N1 N 0.5769(2) 0.1767(3) 0.1483(5) 0.1043 Uani
N2 N 0.5785(2) 0.1552(3) 0.1864(5) 0.1047 Uani
N3 N 0.3371(3) -0.0755(2) 0.1367(5) 0.1039 Uani
N4 N 0.3552(2) -0.0800(2) 0.1754(5) 0.0842 Uani
O1 O 0.46222(15) 0.10190(19) 0.2612(3) 0.0696 Uani
O2 O 0.43435(16) 0.13045(17) 0.2412(3) 0.0749 Uani
O3 O 0.53161(16) 0.24715(16) 0.0479(4) 0.0793 Uani
O4 O 0.4777(2) 0.22034(14) 0.0684(4) 0.0930 Uani
O5 O 0.69165(16) 0.22437(18) 0.0582(3) 0.0664 Uani
O6 O 0.72051(17) 0.19778(19) 0.0802(3) 0.0784 Uani
O7 O 0.6840(2) 0.12346(17) 0.2771(4) 0.1017 Uani
O8 O 0.62679(19) 0.09137(19) 0.2953(4) 0.0904 Uani
O9 O 0.40248(16) 0.03749(16) 0.2572(3) 0.0658 Uani
O10 O 0.37469(15) 0.06526(16) 0.2327(3) 0.0650 Uani
O11 O 0.29157(15) 0.0186(2) 0.0589(3) 0.0878 Uani
O12 O 0.26535(14) -0.03293(13) 0.0228(4) 0.0697 Uani
O13 O 0.28156(16) -0.19012(14) 0.0556(3) 0.0609 Uani
O14 O 0.30511(16) -0.22289(15) 0.0774(3) 0.0619 Uani
O15 O 0.38790(15) -0.1866(2) 0.2643(4) 0.0794 Uani
O16 O 0.41886(14) -0.12915(15) 0.2777(3) 0.0644 Uani
O17 O 0.4632(2) 0.0466(2) 0.3412(4) 0.1421 Uani
O18 O 0.3631(2) 0.1209(3) 0.2816(4) 0.1590 Uani
O19 O 0.41310(14) 0.22404(18) 0.0318(4) 0.1091 Uani
O20 O 0.58580(18) 0.3031(2) -0.0320(4) 0.1217 Uani
C1 C 0.4587(3) 0.1240(3) 0.2329(5) 0.0689 Uani
C2 C 0.4867(2) 0.1503(2) 0.1908(5) 0.0552 Uani
C3 C 0.4851(3) 0.1749(3) 0.1562(5) 0.0716 Uani
H1 H 0.4653 0.1758 0.1590 0.0870 Uiso
C4 C 0.5101(2) 0.1979(3) 0.1181(5) 0.0580 Uani
C5 C 0.5077(3) 0.2249(3) 0.0809(5) 0.0533 Uani
C6 C 0.5408(2) 0.1982(3) 0.1185(5) 0.0820 Uani
H2 H 0.5592 0.2142 0.0942 0.0990 Uiso
C7 C 0.5431(2) 0.1743(3) 0.1558(6) 0.0738 Uani
C8 C 0.5165(3) 0.1503(3) 0.1977(6) 0.1097 Uani
H3 H 0.5192 0.1360 0.2268 0.1320 Uiso
C9 C 0.6098(3) 0.1581(3) 0.1750(5) 0.0679 Uani
C10 C 0.6371(3) 0.1802(3) 0.1367(5) 0.0814 Uani
H4 H 0.6333 0.1942 0.1088 0.0980 Uiso
C11 C 0.6713(4) 0.1845(4) 0.1343(6) 0.1020 Uani
C12 C 0.6967(3) 0.2017(3) 0.0857(6) 0.0640 Uani
C13 C 0.6732(2) 0.1590(2) 0.1750(5) 0.0609 Uani
H5 H 0.6921 0.1564 0.1706 0.0730 Uiso
C14 C 0.6474(3) 0.1376(3) 0.2216(5) 0.0844 Uani
C15 C 0.6496(4) 0.1126(3) 0.2677(6) 0.0770 Uani
C16 C 0.6163(3) 0.1383(3) 0.2249(6) 0.0999 Uani
H6 H 0.6004 0.1264 0.2577 0.1200 Uiso
C17 C 0.3820(3) 0.0404(3) 0.2240(5) 0.0756 Uani
C18 C 0.3592(3) 0.0122(3) 0.1811(5) 0.0644 Uani
C19 C 0.3362(3) 0.0174(2) 0.1416(5) 0.0818 Uani
H7 H 0.3352 0.0373 0.1439 0.0980 Uiso
C20 C 0.3160(3) -0.0081(2) 0.1009(5) 0.0719 Uani
C21 C 0.2849(3) -0.0135(3) 0.0594(6) 0.0724 Uani
C22 C 0.3140(3) -0.0387(3) 0.1038(5) 0.0903 Uani
H8 H 0.2982 -0.0568 0.0788 0.1080 Uiso
C23 C 0.3361(3) -0.0420(3) 0.1448(6) 0.0929 Uani
C24 C 0.3595(3) -0.0164(3) 0.1791(6) 0.0881 Uani
H9 H 0.3761 -0.0186 0.2016 0.1060 Uiso
C25 C 0.3552(3) -0.1097(3) 0.1645(7) 0.0989 Uani
C26 C 0.3303(3) -0.1372(3) 0.1274(6) 0.0921 Uani
H10 H 0.3147 -0.1338 0.1041 0.1110 Uiso
C27 C 0.3276(3) -0.1684(2) 0.1233(4) 0.0671 Uani
C28 C 0.3021(2) -0.1969(3) 0.0783(6) 0.0724 Uani
C29 C 0.3491(2) -0.1734(2) 0.1624(5) 0.0616 Uani
H11 H 0.3477 -0.1945 0.1620 0.0740 Uiso
C30 C 0.3753(3) -0.1456(2) 0.2067(5) 0.0797 Uani
C31 C 0.3975(3) -0.1558(4) 0.2482(6) 0.0799 Uani
C32 C 0.3757(3) -0.1166(3) 0.2028(5) 0.0717 Uani
H12 H 0.3916 -0.0990 0.2288 0.0870 Uiso
Cu1N Cu 0.69543(4) 0.09843(3) 0.33875(6) 0.0527 Uani
Cu1G Cu 0.26367(3) 0.02877(4) -0.00541(6) 0.0527 Uani
Cu2N Cu 0.62924(4) 0.06361(3) 0.36439(6) 0.0581 Uani
Cu2G Cu 0.23230(3) -0.03742(4) -0.03105(6) 0.0581 Uani
Cu3A Cu 0.72220(3) 0.25553(4) -0.01182(6) 0.0520 Uani
Cu3J Cu 0.27780(3) -0.25553(4) 0.01182(6) 0.0520 Uani
Cu3E Cu 0.41114(4) -0.20000(3) 0.32151(6) 0.0520 Uani
Cu4A Cu 0.75374(3) 0.22049(4) 0.01250(6) 0.0480 Uani
Cu4J Cu 0.24626(3) -0.22049(4) -0.01250(6) 0.0480 Uani
Cu4E Cu 0.44618(4) -0.13342(3) 0.34583(6) 0.0480 Uani
O5B O 0.53272(24) 0.30835(16) 0.0582(3) 0.0664 Uani
O6B O 0.47727(25) 0.27949(17) 0.0802(3) 0.0784 Uani
O7M O 0.45679(17) 0.10613(26) 0.3896(4) 0.1017 Uani
O8M O 0.42470(19) 0.13125(27) 0.3714(4) 0.0904 Uani
O11E O 0.39370(25) 0.04176(15) 0.3922(3) 0.0878 Uani
O12E O 0.36839(19) 0.06798(14) 0.3561(4) 0.0697 Uani
O13K O 0.47168(21) 0.28156(16) -0.0556(3) 0.0609 Uani
O14K O 0.52800(22) 0.30511(16) -0.0774(3) 0.0619 Uani
O15G O 0.5199(2) 0.24117(25) -0.0690(4) 0.0794 Uani
O16G O 0.46248(15) 0.21468(21) -0.0556(3) 0.0644 Uani
loop_
_atom_site_aniso_label
_atom_site_aniso_U_11
_atom_site_aniso_U_22
_atom_site_aniso_U_33
_atom_site_aniso_U_23
_atom_site_aniso_U_13
_atom_site_aniso_U_12
Cu1 0.0519(8) 0.0560(8) 0.0525(8) 0.0033(7) -0.0096(7) 0.0286(7)
Cu2 0.0675(9) 0.0588(8) 0.0544(8) 0.0091(7) -0.0118(7) 0.0364(7)
Cu3 0.0450(7) 0.0515(8) 0.0593(9) 0.0063(7) 0.0120(6) 0.0239(6)
Cu4 0.0417(7) 0.0467(7) 0.0567(8) 0.0058(7) 0.0116(6) 0.0230(6)
N1 0.091(7) 0.124(7) 0.121(7) 0.051(6) 0.024(6) 0.071(6)
N2 0.035(5) 0.148(10) 0.130(9) 0.050(8) 0.042(6) 0.045(6)
N3 0.112(8) 0.075(7) 0.129(9) -0.007(6) -0.068(7) 0.050(6)
N4 0.098(8) 0.091(8) 0.094(8) -0.044(6) -0.046(6) 0.070(7)
O1 0.062(5) 0.115(6) 0.042(5) 0.015(4) 0.023(4) 0.052(5)
O2 0.040(4) 0.100(6) 0.098(6) 0.059(5) 0.029(4) 0.045(4)
O3 0.031(4) 0.042(4) 0.150(8) -0.060(5) -0.024(5) 0.007(3)
O4 0.129(7) 0.014(4) 0.127(7) -0.003(4) 0.032(6) 0.029(4)
O5 0.105(6) 0.113(6) 0.010(3) 0.013(4) 0.005(3) 0.076(5)
O6 0.068(5) 0.152(7) 0.058(5) 0.022(5) -0.004(4) 0.087(5)
O7 0.137(6) 0.058(4) 0.109(6) 0.048(4) 0.068(5) 0.048(5)
O8 0.090(5) 0.085(5) 0.082(5) 0.059(4) 0.068(4) 0.033(4)
O9 0.062(5) 0.085(5) 0.048(4) -0.045(4) -0.023(4) 0.035(4)
O10 0.060(4) 0.048(4) 0.091(5) -0.013(4) -0.047(4) 0.030(4)
O11 0.031(4) 0.164(8) 0.058(5) -0.033(5) -0.026(4) 0.041(5)
O12 0.031(3) 0.028(3) 0.117(5) -0.045(4) 0.009(4) -0.010(3)
O13 0.058(5) 0.040(4) 0.076(5) -0.012(4) -0.028(4) 0.018(4)
O14 0.075(5) 0.037(4) 0.079(5) -0.006(4) 0.009(4) 0.032(4)
O15 0.017(3) 0.098(5) 0.105(6) -0.044(5) 0.003(4) 0.015(4)
O16 0.023(4) 0.049(4) 0.096(6) -0.017(4) -0.036(4) -0.001(3)
O17 0.195(9) 0.209(9) 0.125(7) 0.046(7) -0.008(7) 0.178(9)
O18 0.170(9) 0.281(12) 0.141(8) 0.035(8) 0.049(7) 0.199(9)
O19 0.032(4) 0.100(6) 0.146(7) -0.010(5) 0.036(4) -0.004(4)
O20 0.076(5) 0.188(7) 0.105(6) 0.034(5) -0.004(4) 0.069(5)
C1 0.044(7) 0.060(8) 0.040(7) 0.025(6) -0.032(6) -0.021(6)
C2 0.027(6) 0.047(6) 0.083(8) 0.044(6) -0.013(5) 0.012(5)
C3 0.068(8) 0.135(11) 0.016(6) -0.006(6) 0.004(6) 0.054(8)
C4 0.050(7) 0.084(8) 0.066(8) 0.019(7) 0.022(6) 0.053(6)
C5 0.040(7) 0.091(10) 0.036(7) -0.010(6) -0.016(6) 0.038(7)
C6 0.033(6) 0.124(10) 0.102(9) 0.059(8) 0.033(6) 0.049(7)
C7 0.040(7) 0.114(10) 0.092(9) 0.039(8) 0.012(6) 0.057(7)
C8 0.046(7) 0.178(14) 0.105(11) 0.023(10) 0.021(8) 0.056(9)
C9 0.047(7) 0.106(9) 0.085(9) 0.014(7) -0.009(6) 0.064(7)
C10 0.098(9) 0.084(8) 0.091(9) 0.043(7) 0.045(8) 0.067(8)
C11 0.155(13) 0.154(13) 0.074(9) -0.017(9) -0.052(10) 0.135(12)
C12 0.044(5) 0.066(5) 0.052(5) 0.014(4) -0.003(4) 0.005(4)
C13 0.013(5) 0.063(7) 0.108(9) 0.041(6) 0.015(5) 0.020(5)
C14 0.064(7) 0.097(9) 0.060(8) 0.028(7) 0.011(7) 0.016(7)
C15 0.106(11) 0.091(10) 0.051(8) -0.012(7) -0.050(8) 0.062(9)
C16 0.095(9) 0.131(10) 0.109(9) 0.045(8) 0.022(8) 0.083(8)
C17 0.047(7) 0.037(7) 0.084(9) 0.022(7) -0.051(6) -0.023(6)
C18 0.082(8) 0.064(8) 0.084(9) -0.024(7) -0.028(7) 0.064(7)
C19 0.132(10) 0.023(6) 0.068(8) 0.000(6) -0.047(7) 0.022(6)
C20 0.113(7) 0.036(5) 0.085(7) -0.034(5) -0.051(6) 0.051(5)
C21 0.082(5) 0.078(5) 0.056(5) 0.018(4) -0.012(4) 0.039(4)
C22 0.104(7) 0.057(6) 0.087(7) -0.010(6) -0.055(6) 0.023(6)
C23 0.114(9) 0.060(7) 0.108(9) -0.022(7) -0.079(8) 0.046(7)
C24 0.068(8) 0.087(9) 0.103(10) 0.006(8) -0.040(7) 0.034(8)
C25 0.059(8) 0.083(10) 0.154(14) -0.010(10) -0.030(8) 0.035(7)
C26 0.073(7) 0.107(8) 0.115(8) -0.040(7) -0.026(6) 0.059(6)
C27 0.130(10) 0.020(5) 0.036(6) -0.008(5) -0.052(7) 0.026(6)
C28 0.011(5) 0.074(9) 0.088(10) 0.003(8) -0.006(6) -0.012(6)
C29 0.070(7) 0.067(7) 0.050(7) -0.016(6) 0.007(6) 0.036(6)
C30 0.111(10) 0.030(6) 0.067(8) -0.014(6) -0.066(7) 0.012(6)
C31 0.027(6) 0.148(11) 0.057(8) -0.011(9) -0.006(6) 0.038(8)
C32 0.073(8) 0.071(8) 0.083(8) 0.021(7) -0.039(7) 0.045(7)
Cu1N 0.0507 0.0519 0.0525 0.0096 0.0129 0.0233
Cu1G 0.056 0.0507 0.0525 -0.0129 -0.0033 0.0274
Cu2N 0.0535 0.0675 0.0544 0.0118 0.0209 0.0311
Cu2G 0.0588 0.0535 0.0544 -0.0209 -0.0091 0.0224
Cu3A 0.0515 0.0487 0.0593 0.0057 -0.0063 0.0276
Cu3J 0.0515 0.0487 0.0593 0.0057 -0.0063 0.0276
Cu3E 0.0487 0.045 0.0593 -0.012 -0.0057 0.0211
Cu4A 0.0467 0.0424 0.0567 0.0058 -0.0058 0.0237
Cu4J 0.0467 0.0424 0.0567 0.0058 -0.0058 0.0237
Cu4E 0.0424 0.0417 0.0567 -0.0116 -0.0058 0.0187
O5B 0.066 0.105 0.01 -0.005 0.008 0.029
O6B 0.046 0.068 0.058 0.004 0.026 -0.019
O7M 0.058 0.099 0.109 0.02 -0.048 0.01
O8M 0.085 0.109 0.082 0.009 -0.059 0.052
O11E 0.113 0.031 0.058 0.026 -0.007 -0.01
O12E 0.079 0.031 0.117 -0.009 -0.054 0.041
O13K 0.062 0.058 0.076 0.028 0.016 0.04
O14K 0.048 0.075 0.079 -0.009 -0.015 0.043
O15G 0.098 0.085 0.105 0.047 0.044 0.083
O16G 0.049 0.074 0.096 -0.019 0.017 0.05
loop_
_geom_bond_atom_site_label_1
_geom_bond_atom_site_label_2
_geom_bond_site_symmetry_1
_geom_bond_site_symmetry_2
Cu1 O1 1_555 1_555
Cu2 O2 1_555 1_555
Cu3 O3 1_555 1_555
Cu4 O4 1_555 1_555
N1 N2 1_555 1_555
N2 C9 1_555 1_555
N3 N4 1_555 1_555
N4 C25 1_555 1_555
O1 C1 1_555 1_555
O2 C1 1_555 1_555
O3 C5 1_555 1_555
O4 C5 1_555 1_555
O5 C12 1_555 1_555
O6 C12 1_555 1_555
O7 C15 1_555 1_555
O8 C15 1_555 1_555
O9 Cu1 1_555 1_555
O10 Cu2 1_555 1_555
O11 C21 1_555 1_555
O12 C21 1_555 1_555
O13 C28 1_555 1_555
O14 C28 1_555 1_555
O15 C31 1_555 1_555
O16 C31 1_555 1_555
O17 Cu1 1_555 1_555
O18 Cu2 1_555 1_555
O19 Cu4 1_555 1_555
O20 Cu3 1_555 1_555
C1 C2 1_555 1_555
C2 C3 1_555 1_555
C3 H1 1_555 1_555
C4 C3 1_555 1_555
C5 C4 1_555 1_555
C6 C4 1_555 1_555
H2 C6 1_555 1_555
C7 N1 1_555 1_555
C8 C2 1_555 1_555
H3 C8 1_555 1_555
C9 C10 1_555 1_555
C10 H4 1_555 1_555
C11 C10 1_555 1_555
C12 C11 1_555 1_555
C13 C11 1_555 1_555
H5 C13 1_555 1_555
C14 C13 1_555 1_555
C15 C14 1_555 1_555
C16 C9 1_555 1_555
H6 C16 1_555 1_555
C17 O9 1_555 1_555
C18 C17 1_555 1_555
C19 C18 1_555 1_555
H7 C19 1_555 1_555
C20 C19 1_555 1_555
C21 C20 1_555 1_555
C22 C20 1_555 1_555
H8 C22 1_555 1_555
C23 N3 1_555 1_555
C24 C18 1_555 1_555
H9 C24 1_555 1_555
C25 C26 1_555 1_555
C26 H10 1_555 1_555
C27 C26 1_555 1_555
C28 C27 1_555 1_555
C29 C27 1_555 1_555
H11 C29 1_555 1_555
C30 C29 1_555 1_555
C31 C30 1_555 1_555
C32 C25 1_555 1_555
H12 C32 1_555 1_555
Cu1N O7 1_555 1_555
Cu1G O11 1_555 1_555
Cu2N O8 1_555 1_555
Cu2G O12 1_555 1_555
Cu3A O5 1_555 1_555
Cu3J O14 1_555 1_555
Cu3E O15 1_555 1_555
Cu4A O6 1_555 1_555
Cu4J O13 1_555 1_555
Cu4E O16 1_555 1_555
O5B Cu3 1_555 1_555
O6B Cu4 1_555 1_555
O7M Cu1 1_555 1_555
O8M Cu2 1_555 1_555
O11E Cu1 1_555 1_555
O12E Cu2 1_555 1_555
O13K Cu4 1_555 1_555
O14K Cu3 1_555 1_555
O15G Cu3 1_555 1_555
O16G Cu4 1_555 1_555
O10 C17 1_555 1_555
C6 C7 1_555 1_555
C7 C8 1_555 1_555
C14 C16 1_555 1_555
C22 C23 1_555 1_555
C23 C24 1_555 1_555
C30 C32 1_555 1_555

#END
