
#######################################################################
#
#                 Cambridge Crystallographic Data Centre
#                                CCDC 
#
#######################################################################
#
# If this CIF has been generated from an entry in the Cambridge 
# Structural Database, then it will include bibliographic, chemical, 
# crystal, experimental, refinement or atomic coordinate data resulting 
# from the CCDC's data processing and validation procedures.
#
#######################################################################

data_DIVQAB
_chemical_formula_moiety         '(C8 H6 Ag1 F6 N4 P1)n'
_symmetry_cell_setting           orthorhombic
_symmetry_space_group_name_H-M   'F d d 2'
_symmetry_Int_Tables_number      43
_space_group_name_Hall           'F 2 -2d'
loop_
_symmetry_equiv_pos_site_id
_symmetry_equiv_pos_as_xyz
1 x,y,z
2 -x,-y,z
3 1/4-x,1/4+y,1/4+z
4 1/4+x,1/4-y,1/4+z
5 x,1/2+y,1/2+z
6 -x,1/2-y,1/2+z
7 1/4-x,3/4+y,3/4+z
8 1/4+x,3/4-y,3/4+z
9 1/2+x,y,1/2+z
10 1/2-x,-y,1/2+z
11 3/4-x,1/4+y,3/4+z
12 3/4+x,1/4-y,3/4+z
13 1/2+x,1/2+y,z
14 1/2-x,1/2-y,z
15 3/4-x,3/4+y,1/4+z
16 3/4+x,3/4-y,1/4+z
_cell_length_a                   17.2360(17)
_cell_length_b                   9.1835(9)
_cell_length_c                   15.4780(16)
_cell_angle_alpha                90
_cell_angle_beta                 90
_cell_angle_gamma                90
_cell_volume                     2449.96
loop_
_atom_site_label
_atom_site_type_symbol
_atom_site_fract_x
_atom_site_fract_y
_atom_site_fract_z
Ag1 Ag 0.75000 1.2500 0.750084(18)
N1 N 0.8692(2) 1.2837(4) 0.8149(2)
N2 N 0.97416(19) 1.1810(4) 0.8927(2)
C1 C 0.9057(2) 1.1732(4) 0.8545(2)
H1 H 0.8807 1.0834 0.8551
C2 C 0.9067(2) 1.4106(4) 0.8140(3)
H2 H 0.8822 1.4906 0.7892
C3 C 0.9791(2) 1.4289(4) 0.8478(3)
C4 C 1.0112(2) 1.3074(6) 0.8891(3)
H3 H 1.0599 1.3155 0.9146
Ag1C Ag 1.00000 1.0000 1.000084(18)
Ag1A Ag 1.25000 1.7500 0.750084(18)
Ag1C_2 Ag 1.00000 2.0000 1.000084(18)
N1A N 1.1308(2) 1.7163(4) 0.8149(2)
N1M N 0.6308(2) 1.2163(4) 0.8149(2)
N2A N 1.02584(19) 1.8190(4) 0.8927(2)
N2J N 0.77584(19) 1.4310(4) 0.6427(2)
N2K N 0.72416(19) 1.0690(4) 0.6427(2)
C1A C 1.0943(2) 1.8268(4) 0.8545(2)
H1A H 1.1193 1.9166 0.8551
C2A C 1.0933(2) 1.5894(4) 0.8140(3)
H2A H 1.1178 1.5094 0.7892
C3A C 1.0209(2) 1.5711(4) 0.8478(3)
C4A C 0.9888(2) 1.6926(6) 0.8891(3)
H3A H 0.9401 1.6845 0.9146
P1 P 1.00000 1.5000 0.12709(13)
F1 F 0.9359(3) 1.4813(5) 0.0539(3)
F2 F 1.0080(4) 1.3326(12) 0.1197(10)
F3 F 1.0624(4) 1.5139(9) 0.1969(4)
F1A F 1.0641(3) 1.5187(5) 0.0539(3)
F2A F 0.9920(4) 1.6674(12) 0.1197(10)
F3A F 0.9376(4) 1.4861(9) 0.1969(4)
loop_
_geom_bond_atom_site_label_1
_geom_bond_atom_site_label_2
_geom_bond_site_symmetry_1
_geom_bond_site_symmetry_2
Ag1 N1 1_555 1_555
P1 F1 1_555 1_555
F2 P1 1_555 1_555
F3 P1 1_555 1_555
N1 C1 1_555 1_555
N2 C1 1_555 1_555
C1 H1 1_555 1_555
C2 N1 1_555 1_555
H2 C2 1_555 1_555
C3 C2 1_555 1_555
C4 N2 1_555 1_555
H3 C4 1_555 1_555
Ag1C N2 1_555 1_555
Ag1A N1A 1_555 1_555
Ag1C_2 N2A 1_555 1_555
F1A P1 1_555 1_555
F2A P1 1_555 1_555
F3A P1 1_555 1_555
N1A C1A 1_555 1_555
N1M Ag1 1_555 1_555
N2A C1A 1_555 1_555
N2J Ag1 1_555 1_555
N2K Ag1 1_555 1_555
C1A H1A 1_555 1_555
C2A N1A 1_555 1_555
H2A C2A 1_555 1_555
C3A C3 1_555 1_555
C4A N2A 1_555 1_555
H3A C4A 1_555 1_555
C3 C4 1_555 1_555
C2A C3A 1_555 1_555
C3A C4A 1_555 1_555

#END
