
#######################################################################
#
#                 Cambridge Crystallographic Data Centre
#                                CCDC 
#
#######################################################################
#
# If this CIF has been generated from an entry in the Cambridge 
# Structural Database, then it will include bibliographic, chemical, 
# crystal, experimental, refinement or atomic coordinate data resulting 
# from the CCDC's data processing and validation procedures.
#
#######################################################################

data_NASREH
_chemical_formula_moiety         'C36 H18 Co8 N2 O16'
_symmetry_cell_setting           orthorhombic
_symmetry_space_group_name_H-M   'I m c m'
_symmetry_Int_Tables_number      74
_space_group_name_Hall           '-I 2 2a'
loop_
_symmetry_equiv_pos_site_id
_symmetry_equiv_pos_as_xyz
1 x,y,z
2 -x,-y,z
3 1/2+x,-y,-z
4 1/2-x,y,-z
5 1/2+x,1/2+y,1/2+z
6 1/2-x,1/2-y,1/2+z
7 x,1/2-y,1/2-z
8 -x,1/2+y,1/2-z
9 -x,-y,-z
10 x,y,-z
11 1/2-x,y,z
12 1/2+x,-y,z
13 1/2-x,1/2-y,1/2-z
14 1/2+x,1/2+y,1/2-z
15 -x,1/2+y,1/2+z
16 x,1/2-y,1/2+z
_cell_length_a                   14.7488(5)
_cell_length_b                   10.7434(3)
_cell_length_c                   28.8774(7)
_cell_angle_alpha                90
_cell_angle_beta                 90
_cell_angle_gamma                90
_cell_volume                     4575.69
loop_
_atom_site_label
_atom_site_type_symbol
_atom_site_fract_x
_atom_site_fract_y
_atom_site_fract_z
_atom_site_U_iso_or_equiv
_atom_site_thermal_displace_type
Co1 Co 0.7500 0.15388(8) 0.28526(3) 0.0538 Uani
O1 O 0.6559(3) 0.2518(4) 0.31899(13) 0.0790 Uani
O2 O 0.6547(3) 0.3938(4) 0.26314(13) 0.0723 Uani
C1 C 0.5000 0.5000 0.3037(2) 0.0517 Uani
H1 H 0.5000 0.5000 0.2715 0.0620 Uiso
C2 C 0.5606(3) 0.4262(5) 0.32743(14) 0.0527 Uani
C3 C 0.6295(3) 0.3515(5) 0.30069(19) 0.0633 Uani
C4 C 0.5594(3) 0.4244(5) 0.37539(15) 0.0610 Uani
H2 H 0.5987 0.3719 0.3913 0.0730 Uiso
C5 C 0.5000 0.5000 0.4000(2) 0.0613 Uani
C6 C 0.5000 0.5000 0.4519(2) 0.0637 Uani
C7 C 0.4488(6) 0.4148(9) 0.47561(19) 0.1103 Uani
C8 C 0.4013(13) 0.3048(17) 0.4487(3) 0.3037 Uani
H3 H 0.3373 0.3206 0.4467 0.4540 Uiso
H4 H 0.4114 0.2281 0.4649 0.4540 Uiso
H5 H 0.4262 0.2989 0.4181 0.4540 Uiso
O3 O 0.7500 -0.0083(5) 0.3185(2) 0.0910 Uani
N1 N 0.7500 -0.2137(7) 0.3176(3) 0.1220 Uani
C9 C 0.7205(8) -0.1109(11) 0.3188(3) 0.0653 Uani
C10 C 0.7500 -0.3359(12) 0.3207(7) 0.3330 Uani
C11 C 0.6258(10) -0.163(2) 0.3171(6) 0.2903 Uani
O1A O 0.3441(3) 0.7482(4) 0.31899(13) 0.0790 Uani
O2A O 0.3453(3) 0.6062(4) 0.26314(13) 0.0723 Uani
C2A C 0.4394(3) 0.5738(5) 0.32743(14) 0.0527 Uani
C3A C 0.3705(3) 0.6485(5) 0.30069(19) 0.0633 Uani
C4A C 0.4406(3) 0.5756(5) 0.37539(15) 0.0610 Uani
H2A H 0.4013 0.6281 0.3913 0.0730 Uiso
C7A C 0.5512(6) 0.5852(9) 0.47561(19) 0.1103 Uani
C8A C 0.5987(13) 0.6952(17) 0.4487(3) 0.3037 Uani
H3A H 0.6627 0.6794 0.4467 0.4540 Uiso
H4A H 0.5886 0.7719 0.4649 0.4540 Uiso
H5A H 0.5738 0.7011 0.4181 0.4540 Uiso
O1H O 0.3441(3) 0.7482(4) 0.68101(13) 0.0790 Uani
O2H O 0.3453(3) 0.6062(4) 0.73686(13) 0.0723 Uani
C1H C 0.5000 0.5000 0.6963(2) 0.0517 Uani
H1H H 0.5000 0.5000 0.7285 0.0620 Uiso
C2H C 0.4394(3) 0.5738(5) 0.67257(14) 0.0527 Uani
C3H C 0.3705(3) 0.6485(5) 0.69931(19) 0.0633 Uani
C4H C 0.4406(3) 0.5756(5) 0.62461(15) 0.0610 Uani
H2H H 0.4013 0.6281 0.6087 0.0730 Uiso
C5H C 0.5000 0.5000 0.6000(2) 0.0613 Uani
C6H C 0.5000 0.5000 0.5481(2) 0.0637 Uani
C7H C 0.5512(6) 0.5852(9) 0.52439(19) 0.1103 Uani
C8H C 0.5987(13) 0.6952(17) 0.5513(3) 0.3037 Uani
H3H H 0.6627 0.6794 0.5533 0.4540 Uiso
H4H H 0.5886 0.7719 0.5351 0.4540 Uiso
H5H H 0.5738 0.7011 0.5819 0.4540 Uiso
O1I O 0.6559(3) 0.2518(4) 0.68101(13) 0.0790 Uani
O2I O 0.6547(3) 0.3938(4) 0.73686(13) 0.0723 Uani
C2I C 0.5606(3) 0.4262(5) 0.67257(14) 0.0527 Uani
C3I C 0.6295(3) 0.3515(5) 0.69931(19) 0.0633 Uani
C4I C 0.5594(3) 0.4244(5) 0.62461(15) 0.0610 Uani
H2I H 0.5987 0.3719 0.6087 0.0730 Uiso
C7I C 0.4488(6) 0.4148(9) 0.52439(19) 0.1103 Uani
C8I C 0.4013(13) 0.3048(17) 0.5513(3) 0.3037 Uani
H3I H 0.3373 0.3206 0.5533 0.4540 Uiso
H4I H 0.4114 0.2281 0.5351 0.4540 Uiso
H5I H 0.4262 0.2989 0.5819 0.4540 Uiso
C9J C 0.7795(8) -0.1109(11) 0.3188(3) 0.0653 Uani
C11J C 0.8742(10) -0.163(2) 0.3171(6) 0.2903 Uani
Co1C Co 0.7500 0.15388(8) 0.71474(3) 0.0538 Uani
O3C O 0.7500 -0.0083(5) 0.6815(2) 0.0910 Uani
N1C N 0.7500 -0.2137(7) 0.6824(3) 0.1220 Uani
C9I C 0.7205(8) -0.1109(11) 0.6812(3) 0.0653 Uani
C10C C 0.7500 -0.3359(12) 0.6793(7) 0.3330 Uani
C11I C 0.6258(10) -0.163(2) 0.6829(6) 0.2903 Uani
C9C C 0.7795(8) -0.1109(11) 0.6812(3) 0.0653 Uani
C11C C 0.8742(10) -0.163(2) 0.6829(6) 0.2903 Uani
Co1A Co 0.2500 0.84612(8) 0.28526(3) 0.0538 Uani
Co1B Co 0.2500 0.84612(8) 0.71474(3) 0.0538 Uani
Co1D Co 0.2500 0.65388(8) 0.78526(3) 0.0538 Uani
Co1E Co 0.7500 0.34612(8) 0.78526(3) 0.0538 Uani
Co1F Co 0.7500 0.34612(8) 0.21474(3) 0.0538 Uani
Co1G Co 0.2500 0.65388(8) 0.21474(3) 0.0538 Uani
O1C O 0.8441(3) 0.2518(4) 0.68101(13) 0.0790 Uani
O1J O 0.8441(3) 0.2518(4) 0.31899(13) 0.0790 Uani
O2E O 0.8453(3) 0.1062(4) 0.76314(13) 0.0723 Uani
O2F O 0.6547(3) 0.1062(4) 0.23686(13) 0.0723 Uani
O2L O 0.8453(3) 0.1062(4) 0.23686(13) 0.0723 Uani
O2O O 0.6547(3) 0.1062(4) 0.76314(13) 0.0723 Uani
loop_
_atom_site_aniso_label
_atom_site_aniso_U_11
_atom_site_aniso_U_22
_atom_site_aniso_U_33
_atom_site_aniso_U_23
_atom_site_aniso_U_13
_atom_site_aniso_U_12
Co1 0.0730(7) 0.0470(6) 0.0415(6) -0.0003(3) 0.000 0.000
O1 0.092(3) 0.083(3) 0.062(2) -0.0207(19) -0.0068(18) 0.038(2)
O2 0.072(2) 0.087(3) 0.058(2) -0.0161(19) 0.0144(17) 0.0098(19)
C1 0.053(3) 0.066(4) 0.036(3) 0.000 0.000 0.003(3)
C2 0.057(2) 0.062(3) 0.039(2) -0.0081(18) 0.0006(18) 0.013(2)
C3 0.056(3) 0.079(3) 0.055(3) -0.026(3) -0.007(2) 0.013(2)
C4 0.071(3) 0.072(3) 0.040(2) 0.001(2) -0.005(2) 0.024(2)
C5 0.078(4) 0.075(4) 0.031(3) 0.000 0.000 0.022(4)
C6 0.079(4) 0.077(4) 0.035(3) 0.000 0.000 0.026(4)
C7 0.140(7) 0.150(7) 0.041(3) -0.010(4) 0.000(3) -0.034(6)
C8 0.44(2) 0.41(2) 0.061(5) 0.009(9) -0.014(10) -0.31(2)
O3 0.150(6) 0.046(3) 0.077(4) 0.016(3) 0.000 0.000
N1 0.237(13) 0.049(5) 0.080(5) 0.009(4) 0.000 0.000
C9 0.094(11) 0.059(9) 0.043(5) 0.013(4) 0.001(5) 0.002(5)
C10 0.83(8) 0.045(6) 0.124(14) 0.013(7) 0.000 0.000
C11 0.142(10) 0.57(4) 0.159(13) 0.145(17) -0.032(9) -0.136(17)
O1A 0.092 0.083 0.062 0.0207 0.0068 0.038
O2A 0.072 0.087 0.058 0.0161 -0.0144 0.0098
C2A 0.057 0.062 0.039 0.0081 -0.0006 0.013
C3A 0.056 0.079 0.055 0.026 0.007 0.013
C4A 0.071 0.072 0.04 -0.001 0.005 0.024
C7A 0.14 0.15 0.041 0.01 0 -0.034
C8A 0.44 0.41 0.061 -0.009 0.014 -0.31
O1H 0.092 0.083 0.062 -0.0207 -0.0068 0.038
O2H 0.072 0.087 0.058 -0.0161 0.0144 0.0098
C1H 0.053 0.066 0.036 0 0 0.003
C2H 0.057 0.062 0.039 -0.0081 0.0006 0.013
C3H 0.056 0.079 0.055 -0.026 -0.007 0.013
C4H 0.071 0.072 0.04 0.001 -0.005 0.024
C5H 0.078 0.075 0.031 0 0 0.022
C6H 0.079 0.077 0.035 0 0 0.026
C7H 0.14 0.15 0.041 -0.01 0 -0.034
C8H 0.44 0.41 0.061 0.009 -0.014 -0.31
O1I 0.092 0.083 0.062 0.0207 0.0068 0.038
O2I 0.072 0.087 0.058 0.0161 -0.0144 0.0098
C2I 0.057 0.062 0.039 0.0081 -0.0006 0.013
C3I 0.056 0.079 0.055 0.026 0.007 0.013
C4I 0.071 0.072 0.04 -0.001 0.005 0.024
C7I 0.14 0.15 0.041 0.01 0 -0.034
C8I 0.44 0.41 0.061 -0.009 0.014 -0.31
C9J 0.094 0.059 0.043 0.013 -0.001 -0.002
C11J 0.142 0.57 0.159 0.145 0.032 0.136
Co1C 0.073 0.047 0.0415 0.0003 0 0
O3C 0.15 0.046 0.077 -0.016 0 0
N1C 0.237 0.049 0.08 -0.009 0 0
C9I 0.094 0.059 0.043 -0.013 -0.001 0.002
C10C 0.83 0.045 0.124 -0.013 0 0
C11I 0.142 0.57 0.159 -0.145 0.032 -0.136
C9C 0.094 0.059 0.043 -0.013 0.001 -0.002
C11C 0.142 0.57 0.159 -0.145 -0.032 0.136
Co1A 0.073 0.047 0.0415 0.0003 0 0
Co1B 0.073 0.047 0.0415 -0.0003 0 0
Co1D 0.073 0.047 0.0415 -0.0003 0 0
Co1E 0.073 0.047 0.0415 0.0003 0 0
Co1F 0.073 0.047 0.0415 -0.0003 0 0
Co1G 0.073 0.047 0.0415 0.0003 0 0
O1C 0.092 0.083 0.062 0.0207 -0.0068 -0.038
O1J 0.092 0.083 0.062 -0.0207 0.0068 -0.038
O2E 0.072 0.087 0.058 0.0161 -0.0144 0.0098
O2F 0.072 0.087 0.058 -0.0161 -0.0144 -0.0098
O2L 0.072 0.087 0.058 -0.0161 0.0144 0.0098
O2O 0.072 0.087 0.058 0.0161 0.0144 -0.0098
loop_
_geom_bond_atom_site_label_1
_geom_bond_atom_site_label_2
_geom_bond_site_symmetry_1
_geom_bond_site_symmetry_2
Co1 O1 1_555 1_555
O1 C3 1_555 1_555
O2 C3 1_555 1_555
C1 H1 1_555 1_555
C2 C1 1_555 1_555
C3 C2 1_555 1_555
C4 C2 1_555 1_555
H2 C4 1_555 1_555
C5 C4 1_555 1_555
C6 C5 1_555 1_555
C7 C6 1_555 1_555
C8 C7 1_555 1_555
H3 C8 1_555 1_555
H4 C8 1_555 1_555
H5 C8 1_555 1_555
O3 Co1 1_555 1_555
N1 C9 1_555 1_555
C9 O3 1_555 1_555
C10 N1 1_555 1_555
C11 C9 1_555 1_555
O1A C3A 1_555 1_555
O2A C3A 1_555 1_555
C2A C1 1_555 1_555
C3A C2A 1_555 1_555
C4A C5 1_555 1_555
H2A C4A 1_555 1_555
C7A C6 1_555 1_555
C8A C7A 1_555 1_555
H3A C8A 1_555 1_555
H4A C8A 1_555 1_555
H5A C8A 1_555 1_555
O1H C3H 1_555 1_555
O2H C3H 1_555 1_555
C1H H1H 1_555 1_555
C2H C1H 1_555 1_555
C3H C2H 1_555 1_555
C4H C2H 1_555 1_555
H2H C4H 1_555 1_555
C5H C4H 1_555 1_555
C6H C5H 1_555 1_555
C7H C7A 1_555 1_555
C8H C7H 1_555 1_555
H3H C8H 1_555 1_555
H4H C8H 1_555 1_555
H5H C8H 1_555 1_555
O1I C3I 1_555 1_555
O2I C3I 1_555 1_555
C2I C1H 1_555 1_555
C3I C2I 1_555 1_555
C4I C5H 1_555 1_555
H2I C4I 1_555 1_555
C7I C7 1_555 1_555
C8I C7I 1_555 1_555
H3I C8I 1_555 1_555
H4I C8I 1_555 1_555
H5I C8I 1_555 1_555
C9J O3 1_555 1_555
C11J C9J 1_555 1_555
Co1C O1I 1_555 1_555
O3C Co1C 1_555 1_555
N1C C9I 1_555 1_555
C9I O3C 1_555 1_555
C10C N1C 1_555 1_555
C11I C9I 1_555 1_555
C9C O3C 1_555 1_555
C11C C9C 1_555 1_555
Co1A O1A 1_555 1_555
Co1B O1H 1_555 1_555
Co1D O2H 1_555 1_555
Co1E O2I 1_555 1_555
Co1F Co1 1_555 1_555
Co1G O2A 1_555 1_555
O1C Co1C 1_555 1_555
O1J Co1 1_555 1_555
O2E Co1C 1_555 1_555
O2F Co1 1_555 1_555
O2L Co1 1_555 1_555
O2O Co1C 1_555 1_555
O2 Co1F 1_555 1_555
N1 C9J 1_555 1_555
C9 C9J 1_555 1_555
C2A C4A 1_555 1_555
C6H C7H 1_555 1_555
C6H C7I 1_555 1_555
C2I C4I 1_555 1_555
Co1C Co1E 1_555 1_555
N1C C9C 1_555 1_555
C9I C9C 1_555 1_555
Co1A Co1G 1_555 1_555
Co1B Co1D 1_555 1_555

#END
