
#######################################################################
#
#                 Cambridge Crystallographic Data Centre
#                                CCDC 
#
#######################################################################
#
# If this CIF has been generated from an entry in the Cambridge 
# Structural Database, then it will include bibliographic, chemical, 
# crystal, experimental, refinement or atomic coordinate data resulting 
# from the CCDC's data processing and validation procedures.
#
#######################################################################

data_NASROR
_chemical_formula_moiety         '(C26 H22 O10 Zn2)n'
_symmetry_cell_setting           tetragonal
_symmetry_space_group_name_H-M   'P 42/n n m'
_symmetry_Int_Tables_number      134
_space_group_name_Hall           '-P 4ac 2bc'
loop_
_symmetry_equiv_pos_site_id
_symmetry_equiv_pos_as_xyz
1 x,y,z
2 1/2-y,x,1/2+z
3 1/2-x,1/2-y,z
4 y,1/2-x,1/2+z
5 x,1/2-y,1/2-z
6 1/2-x,y,1/2-z
7 y,x,-z
8 1/2-y,1/2-x,-z
9 -x,-y,-z
10 1/2+y,-x,1/2-z
11 1/2+x,1/2+y,-z
12 -y,1/2+x,1/2-z
13 -x,1/2+y,1/2+z
14 1/2+x,-y,1/2+z
15 -y,-x,z
16 1/2+y,1/2+x,z
_cell_length_a                   19.4032(10)
_cell_length_b                   19.4032(10)
_cell_length_c                   26.787(3)
_cell_angle_alpha                90
_cell_angle_beta                 90
_cell_angle_gamma                90
_cell_volume                     10084.9
loop_
_atom_site_label
_atom_site_type_symbol
_atom_site_fract_x
_atom_site_fract_y
_atom_site_fract_z
Zn1 Zn 0.54185(5) 0.45815(5) 0.46478(5)
Zn2 Zn 0.32637(9) 0.2500 0.2500
O1 O 0.4485(4) 0.4473(4) 0.4320(3)
O2 O 0.3136(4) 0.3105(4) 0.3089(3)
O3 O 0.3870(4) 0.5112(4) 0.4839(3)
O4 O 0.4280(6) 0.2500 0.2500
H1 H 0.4644 0.2774 0.2750
O5 O 0.2029(4) 0.3348(3) 0.2957(3)
O6 O 0.5998(4) 0.4002(4) 0.4208(4)
C1 C 0.2128(5) 0.4515(5) 0.3563(4)
H2 H 0.1721 0.4452 0.3385
C2 C 0.1651(5) 0.6167(5) 0.3539(3)
C3 C 0.2186(5) 0.5081(5) 0.3875(4)
C4 C 0.1635(5) 0.5636(5) 0.3882(4)
C5 C 0.2759(6) 0.5151(5) 0.4175(4)
H3 H 0.2787 0.5511 0.4404
C6 C 0.2649(5) 0.4046(5) 0.3506(4)
C7 C 0.1092(6) 0.5592(6) 0.4237(4)
C8 C 0.3313(5) 0.4663(5) 0.4132(4)
C9 C 0.3266(5) 0.4131(5) 0.3804(4)
H4 H 0.3630 0.3823 0.3771
C10 C 0.2586(6) 0.3447(6) 0.3160(4)
C11 C 0.2255(9) 0.6183(9) 0.3168(5)
H5 H 0.2111 0.5990 0.2856
H6 H 0.2632 0.5919 0.3300
H7 H 0.2400 0.6651 0.3118
C12 C 0.1083(8) 0.5007(8) 0.4604(7)
H8 H 0.1143 0.5185 0.4936
H9 H 0.1451 0.4693 0.4528
H10 H 0.0650 0.4770 0.4583
C13 C 0.3935(6) 0.4756(5) 0.4463(4)
H1D H 0.4644 0.2226 0.2250
O1O O -0.0527(4) 0.9485(4) 0.4320(3)
O2O O -0.1895(4) 0.8136(4) 0.3089(3)
O5O O -0.1652(3) 0.7029(4) 0.2957(3)
C1O C -0.0485(5) 0.7128(5) 0.3563(4)
H2O H -0.0548 0.6721 0.3385
C2O C 0.1167(5) 0.6651(5) 0.3539(3)
C3O C 0.0081(5) 0.7186(5) 0.3875(4)
C4O C 0.0636(5) 0.6635(5) 0.3882(4)
C5O C 0.0151(5) 0.7759(6) 0.4175(4)
H3O H 0.0511 0.7787 0.4404
C6O C -0.0954(5) 0.7649(5) 0.3506(4)
C7O C 0.0592(6) 0.6092(6) 0.4237(4)
C8O C -0.0337(5) 0.8313(5) 0.4132(4)
C9O C -0.0869(5) 0.8266(5) 0.3804(4)
H4O H -0.1177 0.8630 0.3771
C10O C -0.1553(6) 0.7586(6) 0.3160(4)
C11O C 0.1183(9) 0.7255(9) 0.3168(5)
H5O H 0.0990 0.7111 0.2856
H6O H 0.0919 0.7632 0.3300
H7O H 0.1651 0.7400 0.3118
C12O C 0.0007(8) 0.6083(8) 0.4604(7)
H8O H 0.0185 0.6143 0.4936
H9O H -0.0307 0.6451 0.4528
H10O H -0.0230 0.5650 0.4583
C13O C -0.0244(5) 0.8935(6) 0.4463(4)
O3O O 0.0112(4) 0.8870(4) 0.4839(3)
Zn1B Zn -0.04185(5) 1.04185(5) 0.46478(5)
Zn1F Zn 0.45815(5) 0.54185(5) 0.53522(5)
Zn1G Zn 0.04185(5) 0.95815(5) 0.53522(5)
Zn2B Zn 0.17363(9) 0.2500 0.2500
Zn2I Zn -0.2500 0.67363(9) 0.2500
Zn2K Zn -0.2500 0.82637(9) 0.2500
O1N O 0.5527(4) 0.5515(4) 0.4320(3)
O2D O 0.3136(4) 0.1895(4) 0.1911(3)
O3F O 0.5112(4) 0.3870(4) 0.5161(3)
O3H O 0.6130(4) 0.4888(4) 0.5161(3)
O5B O 0.2971(4) 0.1652(3) 0.2957(3)
O5E O 0.2971(4) 0.3348(3) 0.2043(3)
loop_
_geom_bond_atom_site_label_1
_geom_bond_atom_site_label_2
_geom_bond_site_symmetry_1
_geom_bond_site_symmetry_2
Zn1 O1 1_555 1_555
Zn2 O2 1_555 1_555
O1 C13 1_555 1_555
O2 C10 1_555 1_555
O3 C13 1_555 1_555
O4 Zn2 1_555 1_555
H1 O4 1_555 1_555
O5 C10 1_555 1_555
O6 Zn1 1_555 1_555
C1 H2 1_555 1_555
C2 C4 1_555 1_555
C3 C1 1_555 1_555
C4 C3 1_555 1_555
C5 C3 1_555 1_555
H3 C5 1_555 1_555
C6 C1 1_555 1_555
C7 C4 1_555 1_555
C8 C5 1_555 1_555
C9 C6 1_555 1_555
H4 C9 1_555 1_555
C10 C6 1_555 1_555
C11 C2 1_555 1_555
H5 C11 1_555 1_555
H6 C11 1_555 1_555
H7 C11 1_555 1_555
C12 C7 1_555 1_555
H8 C12 1_555 1_555
H9 C12 1_555 1_555
H10 C12 1_555 1_555
C13 C8 1_555 1_555
H1D O4 1_555 1_555
O1O C13O 1_555 1_555
O2O C10O 1_555 1_555
O5O C10O 1_555 1_555
C1O H2O 1_555 1_555
C2O C2 1_555 1_555
C3O C1O 1_555 1_555
C4O C2O 1_555 1_555
C5O C3O 1_555 1_555
H3O C5O 1_555 1_555
C6O C1O 1_555 1_555
C7O C7 1_555 1_555
C8O C5O 1_555 1_555
C9O C6O 1_555 1_555
H4O C9O 1_555 1_555
C10O C6O 1_555 1_555
C11O C2O 1_555 1_555
H5O C11O 1_555 1_555
H6O C11O 1_555 1_555
H7O C11O 1_555 1_555
C12O C7O 1_555 1_555
H8O C12O 1_555 1_555
H9O C12O 1_555 1_555
H10O C12O 1_555 1_555
C13O C8O 1_555 1_555
O3O C13O 1_555 1_555
Zn1B O1O 1_555 1_555
Zn1F O3 1_555 1_555
Zn1G O3O 1_555 1_555
Zn2B O5 1_555 1_555
Zn2I O5O 1_555 1_555
Zn2K O2O 1_555 1_555
O1N Zn1 1_555 1_555
O2D Zn2 1_555 1_555
O3F Zn1 1_555 1_555
O3H Zn1 1_555 1_555
O5B Zn2 1_555 1_555
O5E Zn2 1_555 1_555
C8 C9 1_555 1_555
C3O C4O 1_555 1_555
C4O C7O 1_555 1_555
C8O C9O 1_555 1_555

#END
