
#######################################################################
#
#                 Cambridge Crystallographic Data Centre
#                                CCDC 
#
#######################################################################
#
# If this CIF has been generated from an entry in the Cambridge 
# Structural Database, then it will include bibliographic, chemical, 
# crystal, experimental, refinement or atomic coordinate data resulting 
# from the CCDC's data processing and validation procedures.
#
#######################################################################

data_OYEROB
_chemical_formula_moiety         'C46 H62 Cd6 Cr3 N15 O40 1-'
_symmetry_cell_setting           tetragonal
_symmetry_space_group_name_H-M   'P -4 21 c'
_symmetry_Int_Tables_number      114
_space_group_name_Hall           'P -4 2n'
loop_
_symmetry_equiv_pos_site_id
_symmetry_equiv_pos_as_xyz
1 x,y,z
2 -x,-y,z
3 1/2+x,1/2-y,1/2-z
4 1/2-x,1/2+y,1/2-z
5 1/2+y,1/2+x,1/2+z
6 1/2-y,1/2-x,1/2+z
7 -y,x,-z
8 y,-x,-z
_cell_length_a                   20.608(2)
_cell_length_b                   20.608(2)
_cell_length_c                   22.350(2)
_cell_angle_alpha                90
_cell_angle_beta                 90
_cell_angle_gamma                90
_cell_volume                     9491.81
loop_
_atom_site_label
_atom_site_type_symbol
_atom_site_fract_x
_atom_site_fract_y
_atom_site_fract_z
N6 N 0.4910(9) 1.1207(9) 0.6281(9)
O17 O 0.4472(10) 1.0864(13) 0.6435(11)
O18 O 0.5300(8) 1.1055(9) 0.5873(7)
O19 O 0.4987(9) 1.1756(8) 0.6574(9)
O20 O 0.6752(5) 0.8448(6) 0.2221(5)
C22 C 0.7131(13) 0.8490(13) 0.1652(8)
H21 H 0.6975 0.8159 0.1372
H22 H 0.7592 0.8417 0.1737
H23 H 0.7074 0.8921 0.1475
O21 O 0.0885(6) 0.7873(9) 0.5298(9)
C23 C 0.0470(11) 0.7362(12) 0.5239(15)
H24 H 0.0028 0.7525 0.5154
H25 H 0.0455 0.7115 0.5618
C24 C 0.068(2) 0.6930(19) 0.4747(18)
H26 H 0.0745 0.7159 0.4367
H27 H 0.1102 0.6767 0.4890
H28 H 0.0385 0.6565 0.4688
O22 O 0.4391(12) 0.7861(10) 0.3585(10)
C25 C 0.3890(19) 0.7596(17) 0.3266(18)
H29 H 0.3971 0.7638 0.2836
H30 H 0.3847 0.7136 0.3370
H31 H 0.3489 0.7825 0.3370
O23 O 0.031(2) 0.866(2) 0.449(2)
O24 O 0.600(3) 0.580(3) 0.579(3)
O25 O 0.938(3) 1.168(3) 0.199(3)
O26 O 0.890(5) 1.006(5) 0.121(5)
Cd1 Cd 0.71886(4) 1.20871(3) 0.11437(3)
O1 O 0.6966(4) 1.3241(3) 0.1185(5)
N1 N 0.6134(4) 1.1986(4) 0.1497(4)
O2 O 0.7697(6) 1.2460(5) 0.2056(4)
O3 O 0.7470(6) 1.1484(6) 0.2127(6)
O4 O 0.7900(13) 1.1003(9) 0.0948(14)
O5 O 0.6979(11) 1.0877(9) 0.1010(7)
N2 N 0.8153(4) 1.2399(4) 0.0713(4)
N3 N 0.6763(5) 1.2187(4) 0.0166(4)
C1 C 0.6790(17) 1.3566(15) 0.1715(13)
C2 C 0.5979(4) 1.1508(4) 0.1862(4)
C3 C 0.5669(5) 1.2416(5) 0.1324(6)
N4 N 0.7745(6) 1.1936(6) 0.2354(5)
N5 N 0.7462(10) 1.0604(8) 0.1000(7)
H1 H 0.6645 1.3998 0.1591
H2 H 0.6450 1.3358 0.1955
H3 H 0.7186 1.3605 0.1955
H4 H 0.6304 1.1207 0.1980
C4 C 0.5346(4) 1.1434(4) 0.2077(4)
C5 C 0.5051(6) 1.2379(6) 0.1518(7)
H5 H 0.5784 1.2755 0.1057
O6 O 0.8020(7) 1.1876(7) 0.2831(4)
O7 O 0.7531(9) 1.0079(6) 0.1009(6)
C6 C 0.5203(4) 1.0881(3) 0.2480(3)
C7 C 0.4880(5) 1.1871(4) 0.1913(5)
H6 H 0.4737 1.2688 0.1391
O8 O 0.4632(2) 1.0874(2) 0.2703(2)
O9 O 0.5632(2) 1.0481(2) 0.2573(3)
H7 H 0.4449 1.1835 0.2061
Cr1 Cr 0.42236(5) 1.01945(5) 0.31920(5)
O10 O 0.5000 1.0000 0.3615(3)
O11 O 0.3704(2) 0.9545(2) 0.3617(2)
O12 O 0.3958(2) 1.0896(2) 0.3742(2)
O13 O 0.3401(2) 1.0424(3) 0.2735(3)
Cr2 Cr 0.5000 1.0000 0.44649(7)
C8 C 0.3731(3) 0.9390(4) 0.4162(4)
C9 C 0.4204(4) 1.1136(4) 0.4210(4)
C10 C 0.2905(9) 0.9978(9) 0.2565(10)
O14 O 0.5363(2) 0.9121(2) 0.4530(2)
O15 O 0.4137(2) 0.9588(2) 0.4540(2)
O16 O 0.5000 1.0000 0.5364(4)
C11 C 0.3220(4) 0.8922(4) 0.4373(4)
C12 C 0.3954(4) 1.1772(4) 0.4410(4)
H8 H 0.2840 0.9665 0.2895
H9 H 0.3054 0.9732 0.2211
C13 C 0.2283(15) 1.028(3) 0.242(3)
C14 C 0.3250(4) 0.8671(5) 0.4944(4)
C15 C 0.2725(4) 0.8732(5) 0.3998(4)
C16 C 0.3429(4) 1.2047(4) 0.4111(4)
C17 C 0.4229(6) 1.2103(5) 0.4900(5)
H10 H 0.2115 1.0462 0.2798
H11 H 0.2263 1.0606 0.2108
H12 H 0.2019 0.9902 0.2310
H13 H 0.3596 0.8807 0.5196
C18 C 0.2259(6) 0.8307(7) 0.4226(5)
H14 H 0.2702 0.8885 0.3598
H15 H 0.3261 1.1832 0.3768
C19 C 0.3933(6) 1.2680(5) 0.5071(5)
H16 H 0.4600 1.1940 0.5103
C20 C 0.2338(5) 0.8063(6) 0.4803(5)
H17 H 0.1894 0.8185 0.3992
C21 C 0.3427(7) 1.2916(6) 0.4758(5)
H18 H 0.4089 1.2908 0.5411
H19 H 0.2032 0.7753 0.4943
H20 H 0.3252 1.3324 0.4873
Cr1A Cr 0.57764(5) 0.98055(5) 0.31920(5)
O9A O 0.4368(2) 0.9519(2) 0.2573(3)
O12A O 0.6042(2) 0.9104(2) 0.3742(2)
O13A O 0.6599(2) 0.9576(3) 0.2735(3)
O11A O 0.6296(2) 1.0455(2) 0.3617(2)
O8A O 0.5368(2) 0.9126(2) 0.2703(2)
C6A C 0.4797(4) 0.9119(3) 0.2480(3)
C9A C 0.5796(4) 0.8864(4) 0.4210(4)
C10A C 0.7095(9) 1.0022(9) 0.2565(10)
C8A C 0.6269(3) 1.0610(4) 0.4162(4)
O14A O 0.4637(2) 1.0879(2) 0.4530(2)
O15A O 0.5863(2) 1.0412(2) 0.4540(2)
C4A C 0.4654(4) 0.8566(4) 0.2077(4)
C12A C 0.6046(4) 0.8228(4) 0.4410(4)
H8A H 0.7160 1.0335 0.2895
H9A H 0.6946 1.0268 0.2211
C13A C 0.7717(15) 0.972(3) 0.242(3)
C11A C 0.6780(4) 1.1078(4) 0.4373(4)
C2A C 0.4021(4) 0.8492(4) 0.1862(4)
C7A C 0.5120(5) 0.8129(4) 0.1913(5)
C16A C 0.6571(4) 0.7953(4) 0.4111(4)
C17A C 0.5771(6) 0.7897(5) 0.4900(5)
H10A H 0.7885 0.9538 0.2798
H11A H 0.7737 0.9394 0.2108
H12A H 0.7981 1.0098 0.2310
C14A C 0.6750(4) 1.1329(5) 0.4944(4)
C15A C 0.7275(4) 1.1268(5) 0.3998(4)
N3E N 0.2813(4) 0.8237(5) 0.5166(4)
N2B N 0.3153(4) 1.2601(4) 0.4287(4)
N1A N 0.3866(4) 0.8014(4) 0.1497(4)
H4A H 0.3696 0.8793 0.1980
H7A H 0.5551 0.8165 0.2061
C5A C 0.4949(6) 0.7621(6) 0.1518(7)
N2C N 0.6847(4) 0.7399(4) 0.4287(4)
H15A H 0.6739 0.8168 0.3768
C19A C 0.6067(6) 0.7320(5) 0.5071(5)
H16A H 0.5400 0.8060 0.5103
N3D N 0.7187(4) 1.1763(5) 0.5166(4)
H13A H 0.6404 1.1193 0.5196
C18A C 0.7741(6) 1.1693(7) 0.4226(5)
H14A H 0.7298 1.1115 0.3598
N3A N 0.3237(5) 0.7813(4) 0.0166(4)
Cd1E Cd 0.29129(3) 0.78114(4) 0.61437(3)
Cd1B Cd 0.21886(4) 1.29129(3) 0.38563(3)
Cd1A Cd 0.28114(4) 0.79129(3) 0.11437(3)
C3A C 0.4331(5) 0.7584(5) 0.1324(6)
H6A H 0.5263 0.7312 0.1391
C21A C 0.6573(7) 0.7084(6) 0.4758(5)
Cd1C Cd 0.78114(4) 0.70871(3) 0.38563(3)
H18A H 0.5911 0.7092 0.5411
C20A C 0.7662(5) 1.1937(6) 0.4803(5)
Cd1D Cd 0.70871(3) 1.21886(4) 0.61437(3)
H17A H 0.8106 1.1815 0.3992
O1A O 0.3034(4) 0.6759(3) 0.1185(5)
O2A O 0.2303(6) 0.7540(5) 0.2056(4)
O3A O 0.2530(6) 0.8516(6) 0.2127(6)
O4A O 0.2100(13) 0.8997(9) 0.0948(14)
O5A O 0.3021(11) 0.9123(9) 0.1010(7)
N2A N 0.1847(4) 0.7601(4) 0.0713(4)
H5A H 0.4216 0.7245 0.1057
H20A H 0.6748 0.6676 0.4873
H19A H 0.7968 1.2247 0.4943
C1A C 0.3210(17) 0.6434(15) 0.1715(13)
N4A N 0.2255(6) 0.8064(6) 0.2354(5)
N5A N 0.2538(10) 0.9396(8) 0.1000(7)
H1A H 0.3355 0.6002 0.1591
H2A H 0.3550 0.6642 0.1955
H3A H 0.2814 0.6395 0.1955
O6A O 0.1980(7) 0.8124(7) 0.2831(4)
O7A O 0.2469(9) 0.9921(6) 0.1009(6)
loop_
_geom_bond_atom_site_label_1
_geom_bond_atom_site_label_2
_geom_bond_site_symmetry_1
_geom_bond_site_symmetry_2
Cd1 O1 1_555 1_555
O1 C1 1_555 1_555
N1 Cd1 1_555 1_555
O2 Cd1 1_555 1_555
O3 Cd1 1_555 1_555
O4 Cd1 1_555 1_555
O5 Cd1 1_555 1_555
N2 Cd1 1_555 1_555
N3 Cd1 1_555 1_555
C1 H1 1_555 1_555
C2 N1 1_555 1_555
C3 N1 1_555 1_555
N4 O2 1_555 1_555
N5 O4 1_555 1_555
H2 C1 1_555 1_555
H3 C1 1_555 1_555
H4 C2 1_555 1_555
C4 C2 1_555 1_555
C5 C3 1_555 1_555
H5 C3 1_555 1_555
O6 N4 1_555 1_555
O7 N5 1_555 1_555
C6 C4 1_555 1_555
C7 C4 1_555 1_555
H6 C5 1_555 1_555
O8 C6 1_555 1_555
O9 C6 1_555 1_555
H7 C7 1_555 1_555
Cr1 O8 1_555 1_555
O10 Cr1 1_555 1_555
O11 Cr1 1_555 1_555
O12 Cr1 1_555 1_555
O13 Cr1 1_555 1_555
Cr2 O10 1_555 1_555
C8 O11 1_555 1_555
C9 O12 1_555 1_555
C10 O13 1_555 1_555
O14 Cr2 1_555 1_555
O15 Cr2 1_555 1_555
O16 Cr2 1_555 1_555
C11 C8 1_555 1_555
C12 C9 1_555 1_555
H8 C10 1_555 1_555
H9 C10 1_555 1_555
C13 C10 1_555 1_555
C14 C11 1_555 1_555
C15 C11 1_555 1_555
C16 C12 1_555 1_555
C17 C12 1_555 1_555
H10 C13 1_555 1_555
H11 C13 1_555 1_555
H12 C13 1_555 1_555
H13 C14 1_555 1_555
C18 C15 1_555 1_555
H14 C15 1_555 1_555
H15 C16 1_555 1_555
C19 C17 1_555 1_555
H16 C17 1_555 1_555
C20 C18 1_555 1_555
H17 C18 1_555 1_555
C21 C19 1_555 1_555
H18 C19 1_555 1_555
H19 C20 1_555 1_555
H20 C21 1_555 1_555
N6 O17 1_555 1_555
O18 N6 1_555 1_555
O19 N6 1_555 1_555
O20 C22 1_555 1_555
C22 H21 1_555 1_555
H22 C22 1_555 1_555
H23 C22 1_555 1_555
O21 C23 1_555 1_555
C23 H24 1_555 1_555
H25 C23 1_555 1_555
C24 C23 1_555 1_555
H26 C24 1_555 1_555
H27 C24 1_555 1_555
H28 C24 1_555 1_555
O22 C25 1_555 1_555
C25 H29 1_555 1_555
H30 C25 1_555 1_555
H31 C25 1_555 1_555
Cr1A O9 1_555 1_555
O9A Cr1 1_555 1_555
O12A Cr1A 1_555 1_555
O13A Cr1A 1_555 1_555
O11A Cr1A 1_555 1_555
O8A Cr1A 1_555 1_555
C6A O9A 1_555 1_555
C9A O14 1_555 1_555
C10A O13A 1_555 1_555
C8A O11A 1_555 1_555
O14A Cr2 1_555 1_555
O15A Cr2 1_555 1_555
C4A C6A 1_555 1_555
C12A C9A 1_555 1_555
H8A C10A 1_555 1_555
H9A C10A 1_555 1_555
C13A C10A 1_555 1_555
C11A C8A 1_555 1_555
C2A C4A 1_555 1_555
C7A C4A 1_555 1_555
C16A C12A 1_555 1_555
C17A C12A 1_555 1_555
H10A C13A 1_555 1_555
H11A C13A 1_555 1_555
H12A C13A 1_555 1_555
C14A C11A 1_555 1_555
C15A C11A 1_555 1_555
N3E C14 1_555 1_555
N2B C16 1_555 1_555
N1A C2A 1_555 1_555
H4A C2A 1_555 1_555
H7A C7A 1_555 1_555
C5A C7A 1_555 1_555
N2C C16A 1_555 1_555
H15A C16A 1_555 1_555
C19A C17A 1_555 1_555
H16A C17A 1_555 1_555
N3D C14A 1_555 1_555
H13A C14A 1_555 1_555
C18A C15A 1_555 1_555
H14A C15A 1_555 1_555
N3A Cd1A 1_555 1_555
Cd1E N3E 1_555 1_555
Cd1B N2B 1_555 1_555
Cd1A N1A 1_555 1_555
C3A N1A 1_555 1_555
H6A C5A 1_555 1_555
C21A N2C 1_555 1_555
Cd1C N2C 1_555 1_555
H18A C19A 1_555 1_555
C20A N3D 1_555 1_555
Cd1D N3D 1_555 1_555
H17A C18A 1_555 1_555
O1A Cd1A 1_555 1_555
O2A Cd1A 1_555 1_555
O3A Cd1A 1_555 1_555
O4A Cd1A 1_555 1_555
O5A Cd1A 1_555 1_555
N2A Cd1A 1_555 1_555
H5A C3A 1_555 1_555
H20A C21A 1_555 1_555
H19A C20A 1_555 1_555
C1A O1A 1_555 1_555
N4A O2A 1_555 1_555
N5A O4A 1_555 1_555
H1A C1A 1_555 1_555
H2A C1A 1_555 1_555
H3A C1A 1_555 1_555
O6A N4A 1_555 1_555
O7A N5A 1_555 1_555
O3 N4 1_555 1_555
O5 N5 1_555 1_555
C5 C7 1_555 1_555
O10 Cr1A 1_555 1_555
C8 O15 1_555 1_555
C9 O14A 1_555 1_555
C20 N3E 1_555 1_555
C21 N2B 1_555 1_555
O12A C9A 1_555 1_555
O8A C6A 1_555 1_555
C8A O15A 1_555 1_555
C5A C3A 1_555 1_555
C19A C21A 1_555 1_555
C18A C20A 1_555 1_555
O3A N4A 1_555 1_555
O5A N5A 1_555 1_555

#END
