
#######################################################################
#
#                 Cambridge Crystallographic Data Centre
#                                CCDC 
#
#######################################################################
#
# If this CIF has been generated from an entry in the Cambridge 
# Structural Database, then it will include bibliographic, chemical, 
# crystal, experimental, refinement or atomic coordinate data resulting 
# from the CCDC's data processing and validation procedures.
#
#######################################################################

data_OYERUH
_chemical_formula_moiety         'C42 H38 Cd6 Cl8 Cr3 N12 O16'
_symmetry_cell_setting           orthorhombic
_symmetry_space_group_name_H-M   'C c c a'
_symmetry_Int_Tables_number      68
_space_group_name_Hall           '-C 2a 2ac'
loop_
_symmetry_equiv_pos_site_id
_symmetry_equiv_pos_as_xyz
1 x,y,z
2 -x,1/2-y,z
3 x,1/2-y,1/2-z
4 -x,y,1/2-z
5 1/2+x,1/2+y,z
6 1/2-x,-y,z
7 1/2+x,-y,1/2-z
8 1/2-x,1/2+y,1/2-z
9 -x,-y,-z
10 x,1/2+y,-z
11 -x,1/2+y,1/2+z
12 x,-y,1/2+z
13 1/2-x,1/2-y,-z
14 1/2+x,y,-z
15 1/2-x,y,1/2+z
16 1/2+x,1/2-y,1/2+z
_cell_length_a                   23.751(3)
_cell_length_b                   30.607(4)
_cell_length_c                   23.764(3)
_cell_angle_alpha                90
_cell_angle_beta                 90
_cell_angle_gamma                90
_cell_volume                     17275.2
loop_
_atom_site_label
_atom_site_type_symbol
_atom_site_fract_x
_atom_site_fract_y
_atom_site_fract_z
Cd1 Cd 0.6305(3) 0.2500 0.7500
N1 N 0.6295(11) 0.3093(6) 0.6931(12)
Cl1 Cl 0.7314(14) 0.2345(11) 0.7137(16)
Cl2 Cl 0.5543(16) 0.2174(11) 0.6991(17)
C1 C 0.5959(11) 0.3135(7) 0.6455(13)
C2 C 0.6686(9) 0.3415(8) 0.7063(8)
C3 C 0.6015(10) 0.3500(8) 0.6111(10)
H1 H 0.5692 0.2915 0.6365
C4 C 0.6741(7) 0.3780(6) 0.6719(9)
H2 H 0.6915 0.3386 0.7388
C5 C 0.6406(9) 0.3822(6) 0.6243(8)
H3 H 0.5785 0.3529 0.5785
C6 C 0.7144(9) 0.4106(8) 0.6884(10)
H4 H 0.6443 0.4071 0.6007
O1 O 0.7178(6) 0.4433(5) 0.6559(5)
O2 O 0.7410(5) 0.4081(5) 0.7350(6)
Cr1 Cr 0.7500 0.5000 0.66102(14)
Cr2 Cr 0.78246(11) 0.45221(11) 0.78013(10)
O3 O 0.7500 0.5000 0.7426(5)
O4 O 0.6750(5) 0.5235(5) 0.6531(4)
O5 O 0.7500 0.5000 0.5769(5)
O6 O 0.7191(5) 0.4474(4) 0.8338(5)
C7 C 0.6392(7) 0.5423(7) 0.6841(7)
C8 C 0.7339(11) 0.4675(6) 0.5497(7)
C9 C 0.6785(8) 0.4728(8) 0.8431(6)
O7 O 0.6719(5) 0.5111(5) 0.8314(4)
O8 O 0.6495(4) 0.5539(4) 0.7335(4)
C10 C 0.5850(6) 0.5534(7) 0.6590(6)
N2 N 0.7411(9) 0.4646(8) 0.4945(7)
H5 H 0.7161 0.4442 0.5691
C11 C 0.6335(8) 0.4501(8) 0.8787(8)
C12 C 0.5502(8) 0.5837(8) 0.6830(7)
C13 C 0.5713(7) 0.5337(7) 0.6087(7)
C14 C 0.7242(17) 0.4267(11) 0.4631(11)
C15 C 0.767(2) 0.5006(11) 0.4643(10)
H6 H 0.7222 0.4764 0.4909
C16 C 0.6284(11) 0.4019(9) 0.8795(11)
C17 C 0.5989(7) 0.4771(7) 0.9124(7)
H7 H 0.5605 0.5974 0.7174
C18 C 0.4990(8) 0.5945(8) 0.6567(8)
N3 N 0.5234(6) 0.5426(6) 0.5827(6)
H8 H 0.5967 0.5134 0.5924
H9 H 0.6959 0.4362 0.4357
H10 H 0.7561 0.4135 0.4432
H11 H 0.7075 0.4051 0.4886
H12 H 0.8002 0.4898 0.4445
H13 H 0.7399 0.5126 0.4370
H14 H 0.6526 0.3841 0.8575
C19 C 0.5877(14) 0.3838(10) 0.9131(15)
N4 N 0.5584(7) 0.4570(6) 0.9450(6)
H15 H 0.6035 0.5079 0.9127
H16 H 0.4735 0.6154 0.6718
C20 C 0.4886(8) 0.5725(9) 0.6074(8)
Cd2 Cd 0.5000 0.5000 0.5000
H17 H 0.5812 0.3532 0.9145
C21 C 0.5574(11) 0.4125(9) 0.9441(11)
H18 H 0.4541 0.5786 0.5888
H19 H 0.5312 0.3996 0.9694
Cl3 Cl 0.6246(15) 0.2060(9) 0.6674(15)
O9 O 0.8153(5) 0.3979(5) 0.8233(5)
Cl4 Cl 0.58392(19) 0.4494(2) 0.51642(18)
N1E N 0.8705(11) 0.6907(6) 0.6931(12)
C1E C 0.9041(11) 0.6865(7) 0.6455(13)
C2E C 0.8314(9) 0.6585(8) 0.7063(8)
C3E C 0.8985(10) 0.6500(8) 0.6111(10)
H1E H 0.9308 0.7085 0.6365
C4E C 0.8259(7) 0.6220(6) 0.6719(9)
H2E H 0.8085 0.6614 0.7388
C5E C 0.8594(9) 0.6178(6) 0.6243(8)
H3E H 0.9215 0.6471 0.5785
C6E C 0.7856(9) 0.5894(8) 0.6884(10)
H4E H 0.8557 0.5929 0.6007
O1E O 0.7822(6) 0.5567(5) 0.6559(5)
O2E O 0.7590(5) 0.5919(5) 0.7350(6)
Cr2E Cr 0.71754(11) 0.54779(11) 0.78013(10)
O4E O 0.8250(5) 0.4765(5) 0.6531(4)
O6E O 0.7809(5) 0.5526(4) 0.8338(5)
C7E C 0.8608(7) 0.4577(7) 0.6841(7)
C8E C 0.7661(11) 0.5325(6) 0.5497(7)
C9E C 0.8215(8) 0.5272(8) 0.8431(6)
O7E O 0.8281(5) 0.4889(5) 0.8314(4)
O8E O 0.8505(4) 0.4461(4) 0.7335(4)
C10E C 0.9150(6) 0.4466(7) 0.6590(6)
N2E N 0.7589(9) 0.5354(8) 0.4945(7)
H5E H 0.7839 0.5558 0.5691
C11E C 0.8665(8) 0.5499(8) 0.8787(8)
C12E C 0.9498(8) 0.4163(8) 0.6830(7)
C13E C 0.9287(7) 0.4663(7) 0.6087(7)
C14E C 0.7758(17) 0.5733(11) 0.4631(11)
C15E C 0.733(2) 0.4994(11) 0.4643(10)
H6E H 0.7778 0.5236 0.4909
C16E C 0.8716(11) 0.5981(9) 0.8795(11)
C17E C 0.9011(7) 0.5229(7) 0.9124(7)
H7E H 0.9395 0.4026 0.7174
C18E C 1.0010(8) 0.4055(8) 0.6567(8)
N3E N 0.9766(6) 0.4574(6) 0.5827(6)
H8E H 0.9033 0.4866 0.5924
H9E H 0.8041 0.5638 0.4357
H10E H 0.7439 0.5865 0.4432
H11E H 0.7925 0.5949 0.4886
H12E H 0.6998 0.5102 0.4445
H13E H 0.7601 0.4874 0.4370
H14E H 0.8474 0.6159 0.8575
C19E C 0.9123(14) 0.6162(10) 0.9131(15)
N4E N 0.9416(7) 0.5430(6) 0.9450(6)
H15E H 0.8965 0.4921 0.9127
H16E H 1.0265 0.3846 0.6718
C20E C 1.0114(8) 0.4275(9) 0.6074(8)
H17E H 0.9188 0.6468 0.9145
C21E C 0.9426(11) 0.5875(9) 0.9441(11)
H18E H 1.0459 0.4214 0.5888
H19E H 0.9688 0.6004 0.9694
O9E O 0.6847(5) 0.6021(5) 0.8233(5)
Cl1B Cl 0.7314(14) 0.2655(11) 0.7863(16)
Cl2B Cl 0.5543(16) 0.2826(11) 0.8009(17)
Cl3B Cl 0.6246(15) 0.2940(9) 0.8326(15)
Cl4H Cl 0.41608(19) 0.5506(2) 0.48358(18)
Cd1E Cd 0.8695(3) 0.7500 0.7500
N1B N 0.6295(11) 0.1907(6) 0.8069(12)
N3H N 0.4766(6) 0.4574(6) 0.4173(6)
N4C N 0.4416(7) 0.4570(6) 0.5550(6)
N4K N 0.5584(7) 0.5430(6) 0.4450(6)
Cd2C Cd 0.5000 0.5000 1.0000
Cd2E Cd 1.0000 0.5000 0.5000
Cd2F Cd 1.0000 0.5000 1.0000
loop_
_geom_bond_atom_site_label_1
_geom_bond_atom_site_label_2
_geom_bond_site_symmetry_1
_geom_bond_site_symmetry_2
Cd1 N1 1_555 1_555
N1 C1 1_555 1_555
Cl1 Cd1 1_555 1_555
Cl2 Cd1 1_555 1_555
C1 C3 1_555 1_555
C2 N1 1_555 1_555
C3 C5 1_555 1_555
H1 C1 1_555 1_555
C4 C2 1_555 1_555
H2 C2 1_555 1_555
C5 C4 1_555 1_555
H3 C3 1_555 1_555
C6 C4 1_555 1_555
H4 C5 1_555 1_555
O1 C6 1_555 1_555
O2 C6 1_555 1_555
Cr1 O1 1_555 1_555
Cr2 O2 1_555 1_555
O3 Cr1 1_555 1_555
O4 Cr1 1_555 1_555
O5 Cr1 1_555 1_555
O6 Cr2 1_555 1_555
C7 O4 1_555 1_555
C8 O5 1_555 1_555
C9 O6 1_555 1_555
O7 C9 1_555 1_555
O8 C7 1_555 1_555
C10 C7 1_555 1_555
N2 C8 1_555 1_555
H5 C8 1_555 1_555
C11 C9 1_555 1_555
C12 C10 1_555 1_555
C13 C10 1_555 1_555
C14 N2 1_555 1_555
C15 N2 1_555 1_555
H6 N2 1_555 1_555
C16 C11 1_555 1_555
C17 C11 1_555 1_555
H7 C12 1_555 1_555
C18 C12 1_555 1_555
N3 C13 1_555 1_555
H8 C13 1_555 1_555
H9 C14 1_555 1_555
H10 C14 1_555 1_555
H11 C14 1_555 1_555
H12 C15 1_555 1_555
H13 C15 1_555 1_555
H14 C16 1_555 1_555
C19 C16 1_555 1_555
N4 C17 1_555 1_555
H15 C17 1_555 1_555
H16 C18 1_555 1_555
C20 C18 1_555 1_555
Cd2 N3 1_555 1_555
H17 C19 1_555 1_555
C21 C19 1_555 1_555
H18 C20 1_555 1_555
H19 C21 1_555 1_555
Cl3 Cd1 1_555 1_555
O9 Cr2 1_555 1_555
Cl4 Cd2 1_555 1_555
N1E C1E 1_555 1_555
C1E C3E 1_555 1_555
C2E N1E 1_555 1_555
C3E C5E 1_555 1_555
H1E C1E 1_555 1_555
C4E C2E 1_555 1_555
H2E C2E 1_555 1_555
C5E C4E 1_555 1_555
H3E C3E 1_555 1_555
C6E C4E 1_555 1_555
H4E C5E 1_555 1_555
O1E Cr1 1_555 1_555
O2E C6E 1_555 1_555
Cr2E O3 1_555 1_555
O4E Cr1 1_555 1_555
O6E Cr2E 1_555 1_555
C7E O4E 1_555 1_555
C8E O5 1_555 1_555
C9E O6E 1_555 1_555
O7E Cr2 1_555 1_555
O8E Cr2 1_555 1_555
C10E C7E 1_555 1_555
N2E C15 1_555 1_555
H5E C8E 1_555 1_555
C11E C9E 1_555 1_555
C12E C10E 1_555 1_555
C13E C10E 1_555 1_555
C14E N2E 1_555 1_555
C15E N2 1_555 1_555
H6E C15 1_555 1_555
C16E C11E 1_555 1_555
C17E C11E 1_555 1_555
H7E C12E 1_555 1_555
C18E C12E 1_555 1_555
N3E C13E 1_555 1_555
H8E C13E 1_555 1_555
H9E C14E 1_555 1_555
H10E C14E 1_555 1_555
H11E C14E 1_555 1_555
H12E C15E 1_555 1_555
H13E C15 1_555 1_555
H14E C16E 1_555 1_555
C19E C16E 1_555 1_555
N4E C17E 1_555 1_555
H15E C17E 1_555 1_555
H16E C18E 1_555 1_555
C20E C18E 1_555 1_555
H17E C19E 1_555 1_555
C21E C19E 1_555 1_555
H18E C20E 1_555 1_555
H19E C21E 1_555 1_555
O9E Cr2E 1_555 1_555
Cl1B Cd1 1_555 1_555
Cl2B Cd1 1_555 1_555
Cl3B Cd1 1_555 1_555
Cl4H Cd2 1_555 1_555
Cd1E N1E 1_555 1_555
N1B Cd1 1_555 1_555
N3H Cd2 1_555 1_555
N4C Cd2 1_555 1_555
N4K Cd2 1_555 1_555
Cd2C N4 1_555 1_555
Cd2E N3E 1_555 1_555
Cd2F N4E 1_555 1_555
Cl1 Cl1B 1_555 1_555
Cl2 Cl3 1_555 1_555
Cr2 O3 1_555 1_555
O7 Cr2E 1_555 1_555
O8 Cr2E 1_555 1_555
C15 C15E 1_555 1_555
H6 C15E 1_555 1_555
N3 C20 1_555 1_555
H13 C15E 1_555 1_555
N4 C21 1_555 1_555
C6E O1E 1_555 1_555
O2E Cr2E 1_555 1_555
C7E O8E 1_555 1_555
C8E N2E 1_555 1_555
C9E O7E 1_555 1_555
N2E C15E 1_555 1_555
N2E H6E 1_555 1_555
C15E H13E 1_555 1_555
N3E C20E 1_555 1_555
N4E C21E 1_555 1_555
Cl2B Cl3B 1_555 1_555

#END
