
#######################################################################
#
#                 Cambridge Crystallographic Data Centre
#                                CCDC 
#
#######################################################################
#
# If this CIF has been generated from an entry in the Cambridge 
# Structural Database, then it will include bibliographic, chemical, 
# crystal, experimental, refinement or atomic coordinate data resulting 
# from the CCDC's data processing and validation procedures.
#
#######################################################################

data_OYERER
_chemical_formula_moiety         '(C36 H54 Cr3 Cu3 N6 O28 7+)n'
_symmetry_cell_setting           hexagonal
_symmetry_space_group_name_H-M   'P 63/m'
_symmetry_Int_Tables_number      176
_space_group_name_Hall           '-P 6c'
loop_
_symmetry_equiv_pos_site_id
_symmetry_equiv_pos_as_xyz
1 x,y,z
2 -x,-y,1/2+z
3 -y,x-y,z
4 -x+y,-x,z
5 x-y,x,1/2+z
6 y,-x+y,1/2+z
7 -x,-y,-z
8 x,y,1/2-z
9 y,-x+y,-z
10 x-y,x,-z
11 -x+y,-x,1/2-z
12 -y,x-y,1/2-z
_cell_length_a                   20.772(9)
_cell_length_b                   20.772(9)
_cell_length_c                   21.0530(10)
_cell_angle_alpha                90
_cell_angle_beta                 90
_cell_angle_gamma                120
_cell_volume                     7866.86
loop_
_atom_site_label
_atom_site_type_symbol
_atom_site_fract_x
_atom_site_fract_y
_atom_site_fract_z
Cr1 Cr 0.75976(12) 0.42354(12) 0.2500
O1 O 0.6667 0.3333 0.2500
Cu1 Cu 0.5000 0.5000 0.5000
O2 O 0.8609(6) 0.5209(6) 0.2500
O3 O 0.4729(7) 0.5140(7) 0.4043(6)
O4 O 0.7318(5) 0.4696(4) 0.3181(3)
O5 O 0.6077(5) 0.4109(5) 0.3164(3)
C1 C 0.6688(6) 0.4553(6) 0.3384(5)
C2 C 0.6731(8) 0.5015(7) 0.3939(5)
C3 C 0.6058(7) 0.4872(7) 0.4219(6)
H1 H 0.5608 0.4496 0.4036
N1 N 0.6012(8) 0.5235(8) 0.4729(6)
C4 C 0.6665(12) 0.5748(11) 0.4993(8)
H2 H 0.6642 0.6025 0.5342
C5 C 0.7365(12) 0.5899(12) 0.4795(10)
H3 H 0.7802 0.6228 0.5023
C6 C 0.7394(8) 0.5542(9) 0.4241(8)
H4 H 0.7861 0.5655 0.4068
O6 O 0.5485(7) 0.6298(7) 0.5174(6)
Cr1B Cr 0.57646(12) 0.33622(17) 0.2500
Cu1B Cu 0.5000 0.0000 0.5000
O2B O 0.4791(6) 0.3400(8) 0.2500
O3B O 0.4860(7) -0.0411(10) 0.4043(6)
O4B O 0.5304(4) 0.2622(6) 0.3181(3)
O5B O 0.5891(5) 0.1968(7) 0.3164(3)
C1B C 0.5447(6) 0.2135(8) 0.3384(5)
C2B C 0.4985(7) 0.1716(11) 0.3939(5)
C3B C 0.5128(7) 0.1186(10) 0.4219(6)
H1B H 0.5504 0.1112 0.4036
N1B N 0.4765(8) 0.0777(11) 0.4729(6)
C4B C 0.4252(11) 0.0917(16) 0.4993(8)
H2B H 0.3975 0.0617 0.5342
C5B C 0.4101(12) 0.1466(17) 0.4795(10)
H3B H 0.3772 0.1574 0.5023
C6B C 0.4458(9) 0.1852(12) 0.4241(8)
H4B H 0.4345 0.2206 0.4068
O6B O 0.3702(7) -0.0813(10) 0.5174(6)
Cr1C Cr 0.66378(17) 0.24024(12) 0.2500
Cu1C Cu 1.0000 0.5000 0.5000
O2C O 0.6600(8) 0.1391(6) 0.2500
O3C O 1.0411(10) 0.5271(7) 0.4043(6)
O4C O 0.7378(6) 0.2682(5) 0.3181(3)
O5C O 0.8032(7) 0.3923(5) 0.3164(3)
C1C C 0.7865(8) 0.3312(6) 0.3384(5)
C2C C 0.8284(11) 0.3269(8) 0.3939(5)
C3C C 0.8814(10) 0.3942(7) 0.4219(6)
H1C H 0.8888 0.4392 0.4036
N1C N 0.9223(11) 0.3988(8) 0.4729(6)
C4C C 0.9083(16) 0.3335(12) 0.4993(8)
H2C H 0.9383 0.3358 0.5342
C5C C 0.8534(17) 0.2635(12) 0.4795(10)
H3C H 0.8426 0.2198 0.5023
C6C C 0.8148(12) 0.2606(8) 0.4241(8)
H4C H 0.7794 0.2139 0.4068
O6C O 1.0813(10) 0.4515(7) 0.5174(6)
O3F O 0.5271(7) 0.4860(7) 0.5957(6)
O4F O 0.2682(5) 0.5304(4) 0.6819(3)
O5F O 0.3923(5) 0.5891(5) 0.6836(3)
C1F C 0.3312(6) 0.5447(6) 0.6616(5)
C2F C 0.3269(8) 0.4985(7) 0.6061(5)
C3F C 0.3942(7) 0.5128(7) 0.5781(6)
H1F H 0.4392 0.5504 0.5964
N1F N 0.3988(8) 0.4765(8) 0.5271(6)
C4F C 0.3335(12) 0.4252(11) 0.5007(8)
H2F H 0.3358 0.3975 0.4658
C5F C 0.2635(12) 0.4101(12) 0.5205(10)
H3F H 0.2198 0.3772 0.4977
C6F C 0.2606(8) 0.4458(9) 0.5759(8)
H4F H 0.2139 0.4345 0.5932
O6F O 0.4515(7) 0.3702(7) 0.4826(6)
O3I O 0.9589(10) 0.4729(7) 0.5957(6)
O4I O 1.2622(6) 0.7318(5) 0.6819(3)
O5I O 1.1968(7) 0.6077(5) 0.6836(3)
C1I C 1.2135(8) 0.6688(6) 0.6616(5)
C2I C 1.1716(11) 0.6731(8) 0.6061(5)
C3I C 1.1186(10) 0.6058(7) 0.5781(6)
H1I H 1.1112 0.5608 0.5964
N1I N 1.0777(11) 0.6012(8) 0.5271(6)
C4I C 1.0917(16) 0.6665(12) 0.5007(8)
H2I H 1.0617 0.6642 0.4658
C5I C 1.1466(17) 0.7365(12) 0.5205(10)
H3I H 1.1574 0.7802 0.4977
C6I C 1.1852(12) 0.7394(8) 0.5759(8)
H4I H 1.2206 0.7861 0.5932
O6I O 0.9187(10) 0.5485(7) 0.4826(6)
O4G O 0.7318(5) 0.4696(4) 0.1819(3)
O5G O 0.6077(5) 0.4109(5) 0.1836(3)
C1G C 0.6688(6) 0.4553(6) 0.1616(5)
C2G C 0.6731(8) 0.5015(7) 0.1061(5)
C3G C 0.6058(7) 0.4872(7) 0.0781(6)
H1G H 0.5608 0.4496 0.0964
N1G N 0.6012(8) 0.5235(8) 0.0271(6)
C4G C 0.6665(12) 0.5748(11) 0.0007(8)
H2G H 0.6642 0.6025 -0.0342
C5G C 0.7365(12) 0.5899(12) 0.0205(10)
H3G H 0.7802 0.6228 -0.0023
C6G C 0.7394(8) 0.5542(9) 0.0759(8)
H4G H 0.7861 0.5655 0.0932
O3H O 0.5140(7) 0.0411(10) 0.5957(6)
O6H O 0.6298(7) 0.0813(10) 0.4826(6)
Cr1A Cr 0.24024(12) 0.57646(12) 0.7500
Cr1A_2 Cr 1.24024(12) 0.57646(12) 0.7500
Cr1D Cr 1.33622(17) 0.75976(12) 0.7500
Cr1E Cr 0.42354(12) 0.66378(17) 0.7500
Cu1A Cu 0.5000 0.5000 0.0000
O4J O 0.7378(6) 0.2682(5) 0.1819(3)
O4K O 0.5304(4) 0.2622(6) 0.1819(3)
O5J O 0.8032(7) 0.3923(5) 0.1836(3)
O5K O 0.5891(5) 0.1968(7) 0.1836(3)
N1H N 0.5235(8) -0.0777(11) 0.5271(6)
loop_
_geom_bond_atom_site_label_1
_geom_bond_atom_site_label_2
_geom_bond_site_symmetry_1
_geom_bond_site_symmetry_2
Cr1 O1 1_555 1_555
O1 Cr1B 1_555 1_555
Cu1 O3 1_555 1_555
O2 Cr1 1_555 1_555
O4 Cr1 1_555 1_555
O5 C1 1_555 1_555
C1 O4 1_555 1_555
C2 C1 1_555 1_555
C3 C2 1_555 1_555
H1 C3 1_555 1_555
N1 Cu1 1_555 1_555
C4 N1 1_555 1_555
H2 C4 1_555 1_555
C5 C4 1_555 1_555
H3 C5 1_555 1_555
C6 C2 1_555 1_555
H4 C6 1_555 1_555
O6 Cu1 1_555 1_555
Cr1B O5 1_555 1_555
Cu1B O3B 1_555 1_555
O2B Cr1B 1_555 1_555
O4B Cr1B 1_555 1_555
O5B C1B 1_555 1_555
C1B O4B 1_555 1_555
C2B C1B 1_555 1_555
C3B C2B 1_555 1_555
H1B C3B 1_555 1_555
N1B Cu1B 1_555 1_555
C4B N1B 1_555 1_555
H2B C4B 1_555 1_555
C5B C4B 1_555 1_555
H3B C5B 1_555 1_555
C6B C2B 1_555 1_555
H4B C6B 1_555 1_555
O6B Cu1B 1_555 1_555
Cr1C O1 1_555 1_555
Cu1C O3C 1_555 1_555
O2C Cr1C 1_555 1_555
O4C Cr1C 1_555 1_555
O5C Cr1 1_555 1_555
C1C O4C 1_555 1_555
C2C C1C 1_555 1_555
C3C C2C 1_555 1_555
H1C C3C 1_555 1_555
N1C Cu1C 1_555 1_555
C4C N1C 1_555 1_555
H2C C4C 1_555 1_555
C5C C4C 1_555 1_555
H3C C5C 1_555 1_555
C6C C2C 1_555 1_555
H4C C6C 1_555 1_555
O6C Cu1C 1_555 1_555
O3F Cu1 1_555 1_555
O4F C1F 1_555 1_555
O5F C1F 1_555 1_555
C1F C2F 1_555 1_555
C2F C3F 1_555 1_555
C3F H1F 1_555 1_555
N1F Cu1 1_555 1_555
C4F N1F 1_555 1_555
H2F C4F 1_555 1_555
C5F C4F 1_555 1_555
H3F C5F 1_555 1_555
C6F C2F 1_555 1_555
H4F C6F 1_555 1_555
O6F Cu1 1_555 1_555
O3I Cu1C 1_555 1_555
O4I C1I 1_555 1_555
O5I C1I 1_555 1_555
C1I C2I 1_555 1_555
C2I C3I 1_555 1_555
C3I H1I 1_555 1_555
N1I Cu1C 1_555 1_555
C4I N1I 1_555 1_555
H2I C4I 1_555 1_555
C5I C4I 1_555 1_555
H3I C5I 1_555 1_555
C6I C2I 1_555 1_555
H4I C6I 1_555 1_555
O6I Cu1C 1_555 1_555
O4G Cr1 1_555 1_555
O5G Cr1B 1_555 1_555
C1G O4G 1_555 1_555
C2G C1G 1_555 1_555
C3G C2G 1_555 1_555
H1G C3G 1_555 1_555
N1G C3G 1_555 1_555
C4G N1G 1_555 1_555
H2G C4G 1_555 1_555
C5G C4G 1_555 1_555
H3G C5G 1_555 1_555
C6G C2G 1_555 1_555
H4G C6G 1_555 1_555
O3H Cu1B 1_555 1_555
O6H Cu1B 1_555 1_555
Cr1A O4F 1_555 1_555
Cr1A_2 O5I 1_555 1_555
Cr1D O4I 1_555 1_555
Cr1E O5F 1_555 1_555
Cu1A N1G 1_555 1_555
O4J Cr1C 1_555 1_555
O4K Cr1B 1_555 1_555
O5J Cr1 1_555 1_555
O5K Cr1C 1_555 1_555
N1H Cu1B 1_555 1_555
C3 N1 1_555 1_555
C5 C6 1_555 1_555
O5B Cr1C 1_555 1_555
C3B N1B 1_555 1_555
C5B C6B 1_555 1_555
O5C C1C 1_555 1_555
C3C N1C 1_555 1_555
C5C C6C 1_555 1_555
C3F N1F 1_555 1_555
C5F C6F 1_555 1_555
C3I N1I 1_555 1_555
C5I C6I 1_555 1_555
O5G C1G 1_555 1_555
C5G C6G 1_555 1_555

#END
