
#######################################################################
#
#                 Cambridge Crystallographic Data Centre
#                                CCDC 
#
#######################################################################
#
# If this CIF has been generated from an entry in the Cambridge 
# Structural Database, then it will include bibliographic, chemical, 
# crystal, experimental, refinement or atomic coordinate data resulting 
# from the CCDC's data processing and validation procedures.
#
#######################################################################

data_MAFFUW
_chemical_formula_moiety         'C69 H30 Cu18 N2 O49'
_symmetry_cell_setting           orthorhombic
_symmetry_space_group_name_H-M   'P n m a'
_symmetry_Int_Tables_number      62
_space_group_name_Hall           '-P 2ac 2n'
loop_
_symmetry_equiv_pos_site_id
_symmetry_equiv_pos_as_xyz
1 x,y,z
2 1/2-x,-y,1/2+z
3 1/2+x,1/2-y,1/2-z
4 -x,1/2+y,-z
5 -x,-y,-z
6 1/2+x,y,1/2-z
7 1/2-x,1/2+y,1/2+z
8 x,1/2-y,z
_cell_length_a                   34.3624(13)
_cell_length_b                   18.6807(7)
_cell_length_c                   25.8757(9)
_cell_angle_alpha                90
_cell_angle_beta                 90
_cell_angle_gamma                90
_cell_volume                     16610
loop_
_atom_site_label
_atom_site_type_symbol
_atom_site_fract_x
_atom_site_fract_y
_atom_site_fract_z
Cu1 Cu 0.15003(4) 0.7500 0.95891(7)
Cu2 Cu 0.07238(5) 0.7500 0.96060(7)
Cu3 Cu 0.22642(4) 1.03468(9) 0.66759(5)
Cu4 Cu 0.26451(4) 0.96321(9) 0.74258(6)
C1 C 0.1107(3) 0.8387(4) 0.8916(3)
O1 O 0.18276(19) 1.0117(4) 0.7127(3)
C2 C 0.1114(2) 0.8905(3) 0.8455(3)
O2 O 0.2139(2) 0.9546(4) 0.7758(2)
O3 O 0.14405(16) 0.8250(3) 0.9064(2)
C3 C 0.1464(2) 0.9607(4) 0.7800(3)
O4 O 0.07866(16) 0.8226(4) 0.9070(3)
C4 C 0.1849(3) 0.9805(4) 0.7558(4)
C5 C 0.1469(4) 0.9120(5) 0.8224(4)
H1 H 0.1709 0.8941 0.8352
C6 C 0.1110(3) 0.9860(6) 0.7606(5)
H2 H 0.1108 1.0185 0.7324
O5 O 0.0430(4) 0.9787(8) 0.7572(5)
C7 C 0.0093(4) 0.9871(8) 0.7877(8)
H3 H 0.0168 0.9947 0.8242
H4 H -0.0054 1.0297 0.7759
C8 C -0.0156(4) 0.9234(11) 0.7838(7)
H5 H -0.0173 0.9079 0.7473
H6 H -0.0042 0.8838 0.8043
C9 C -0.0558(5) 0.9407(12) 0.8040(9)
H7 H -0.0704 0.8961 0.8108
H8 H -0.0703 0.9694 0.7783
O6 O -0.0509(5) 0.9818(11) 0.8523(7)
C10 C -0.0868(5) 1.0131(9) 0.8744(6)
C11 C -0.0836(4) 1.0657(7) 0.9109(5)
H9 H -0.0588 1.0741 0.9259
C12 C -0.1500(3) 1.0928(6) 0.9037(4)
H10 H -0.1721 1.1203 0.9134
C13 C -0.1227(4) 0.9988(8) 0.8515(6)
H11 H -0.1254 0.9621 0.8263
C14 C 0.0763(4) 0.9624(7) 0.7847(5)
C15 C 0.0757(4) 0.9150(7) 0.8272(6)
H12 H 0.0519 0.9005 0.8426
O7 O -0.07942(17) 1.1775(4) 0.9863(3)
O8 O -0.14485(17) 1.1777(3) 0.9880(2)
O9 O -0.2228(2) 1.0433(4) 0.8644(3)
O10 O -0.19152(18) 0.9827(4) 0.8031(3)
C16 C -0.1148(2) 1.1078(4) 0.9274(3)
C17 C -0.1546(3) 1.0397(4) 0.8666(3)
C18 C -0.1941(3) 1.0244(6) 0.8416(4)
C19 C -0.1138(3) 1.1649(5) 0.9700(2)
C20 C 0.2314(3) 0.8864(6) 0.6574(4)
O11 O 0.2209(2) 0.9415(4) 0.6355(3)
C21 C 0.2237(3) 0.8168(5) 0.6322(4)
O12 O 0.25250(19) 0.8779(3) 0.6994(3)
C22 C 0.2349(3) 0.7500 0.6515(5)
H13 H 0.2518 0.7500 0.6806
C23 C 0.2041(4) 0.8158(5) 0.5857(4)
H14 H 0.1959 0.8591 0.5699
C24 C 0.1966(5) 0.7500 0.5622(7)
O13 O 0.2297(2) 0.9395(4) 0.2720(3)
O14 O 0.2636(2) 0.8786(4) 0.2100(3)
C25 C 0.2011(5) 0.7500 0.3432(5)
C26 C 0.2134(4) 0.8118(6) 0.3182(5)
H15 H 0.2069 0.8562 0.3338
C27 C 0.2343(3) 0.81453(13) 0.2728(3)
O15 O 0.1860(3) 1.0865(5) 0.6087(4)
C28 C 0.2470(3) 0.7500 0.2517(4)
H16 H 0.2642 0.7500 0.2230
O16 O 0.3056(3) 0.9159(6) 0.8007(3)
C29 C 0.24403(18) 0.8852(3) 0.2476(3)
C30 C -0.00961(18) 0.7704(3) 0.9225(3)
N1 N 0.00936(18) 0.7296(3) 0.9608(3)
C31 C -0.01069(18) 0.7296(3) 1.0067(3)
C32 C -0.05104(18) 0.7296(3) 1.0019(3)
C33 C -0.07249(18) 0.7704(3) 0.9633(3)
C34 C -0.04897(18) 0.7704(3) 0.9154(3)
O17 O 0.2144(3) 0.7500 0.9634(4)
C35 C 0.1317(4) 0.7500 0.4452(6)
O18 O 0.1736(5) 0.7737(10) 0.5174(7)
O19 O 0.1798(4) 0.7236(7) 0.3871(6)
C36 C 0.1502(7) 0.7178(11) 0.4909(7)
C37 C 0.1569(5) 0.7841(8) 0.4053(6)
Cu1C Cu -0.15003(4) 1.2500 1.04109(7)
Cu1C_2 Cu -0.15003(4) 0.2500 1.04109(7)
Cu2C Cu -0.07238(5) 1.2500 1.03940(7)
Cu2C_2 Cu -0.07238(5) 0.2500 1.03940(7)
Cu3G Cu 0.22642(4) 0.46532(9) 0.66759(5)
Cu3E Cu -0.27358(4) 1.03468(9) 0.83241(5)
Cu3A Cu 0.27358(4) 0.96532(9) 0.16759(5)
Cu3F Cu 0.27358(4) 0.53468(9) 0.16759(5)
Cu3B Cu -0.27358(4) 0.46532(9) 0.83241(5)
Cu4G Cu 0.26451(4) 0.53679(9) 0.74258(6)
Cu4E Cu -0.23549(4) 0.96321(9) 0.75742(6)
Cu4A Cu 0.23549(4) 1.03679(9) 0.24258(6)
Cu4F Cu 0.23549(4) 0.46321(9) 0.24258(6)
Cu4B Cu -0.23549(4) 0.53679(9) 0.75742(6)
C1G C 0.1107(3) 0.6613(4) 0.8916(3)
O1G O 0.18276(19) 0.4883(4) 0.7127(3)
C2G C 0.1114(2) 0.6095(3) 0.8455(3)
O2G O 0.2139(2) 0.5454(4) 0.7758(2)
O3G O 0.14405(16) 0.6750(3) 0.9064(2)
C3G C 0.1464(2) 0.5393(4) 0.7800(3)
O4G O 0.07866(16) 0.6774(4) 0.9070(3)
C4G C 0.1849(3) 0.5195(4) 0.7558(4)
C5G C 0.1469(4) 0.5880(5) 0.8224(4)
H1G H 0.1709 0.6059 0.8352
C6G C 0.1110(3) 0.5140(6) 0.7606(5)
H2G H 0.1108 0.4815 0.7324
O5G O 0.0430(4) 0.5213(8) 0.7572(5)
C7G C 0.0093(4) 0.5129(8) 0.7877(8)
H3G H 0.0168 0.5053 0.8242
H4G H -0.0054 0.4703 0.7759
C8G C -0.0156(4) 0.5766(11) 0.7838(7)
H5G H -0.0173 0.5921 0.7473
H6G H -0.0042 0.6162 0.8043
C9G C -0.0558(5) 0.5593(12) 0.8040(9)
H7G H -0.0704 0.6039 0.8108
H8G H -0.0703 0.5306 0.7783
O6G O -0.0509(5) 0.5182(11) 0.8523(7)
C10G C -0.0868(5) 0.4869(9) 0.8744(6)
C11G C -0.0836(4) 0.4343(7) 0.9109(5)
H9G H -0.0588 0.4259 0.9259
C12G C -0.1500(3) 0.4072(6) 0.9037(4)
H10G H -0.1721 0.3797 0.9134
C13G C -0.1227(4) 0.5012(8) 0.8515(6)
H11G H -0.1254 0.5379 0.8263
C14G C 0.0763(4) 0.5376(7) 0.7847(5)
C15G C 0.0757(4) 0.5850(7) 0.8272(6)
H12G H 0.0519 0.5995 0.8426
O7G O -0.07942(17) 0.3225(4) 0.9863(3)
O7C O 0.07942(17) 0.6775(4) 1.0137(3)
O7D O 0.07942(17) 0.8225(4) 1.0137(3)
O8G O -0.14485(17) 0.3223(3) 0.9880(2)
O8C O 0.14485(17) 0.6777(3) 1.0120(2)
O8D O 0.14485(17) 0.8223(3) 1.0120(2)
O9G O -0.2228(2) 0.4567(4) 0.8644(3)
O9E O 0.2772(2) 1.0433(4) 0.6356(3)
O9B O 0.2772(2) 0.4567(4) 0.6356(3)
O10G O -0.19152(18) 0.5173(4) 0.8031(3)
O10E O 0.30848(18) 0.9827(4) 0.6969(3)
O10B O 0.30848(18) 0.5173(4) 0.6969(3)
C16G C -0.1148(2) 0.3922(4) 0.9274(3)
C17G C -0.1546(3) 0.4603(4) 0.8666(3)
C18G C -0.1941(3) 0.4756(6) 0.8416(4)
C19G C -0.1138(3) 0.3351(5) 0.9700(2)
C20G C 0.2314(3) 0.6136(6) 0.6574(4)
O11G O 0.2209(2) 0.5585(4) 0.6355(3)
C21G C 0.2237(3) 0.6832(5) 0.6322(4)
O12G O 0.25250(19) 0.6221(3) 0.6994(3)
C23G C 0.2041(4) 0.6842(5) 0.5857(4)
H14G H 0.1959 0.6409 0.5699
O13G O 0.2297(2) 0.5605(4) 0.2720(3)
O13A O 0.2703(2) 1.0605(4) 0.7720(3)
O13F O 0.2703(2) 0.4395(4) 0.7720(3)
O14G O 0.2636(2) 0.6214(4) 0.2100(3)
O14A O 0.2364(2) 1.1214(4) 0.7100(3)
O14F O 0.2364(2) 0.3786(4) 0.7100(3)
C26G C 0.2134(4) 0.6882(6) 0.3182(5)
H15G H 0.2069 0.6438 0.3338
C27G C 0.2343(3) 0.68547(13) 0.2728(3)
O15G O 0.1860(3) 0.4135(5) 0.6087(4)
O16G O 0.3056(3) 0.5841(6) 0.8007(3)
C29G C 0.24403(18) 0.6148(3) 0.2476(3)
C30G C -0.00961(18) 0.7296(3) 0.9225(3)
N1G N 0.00936(18) 0.7704(3) 0.9608(3)
C31G C -0.01069(18) 0.7704(3) 1.0067(3)
C32G C -0.05104(18) 0.7704(3) 1.0019(3)
C33G C -0.07249(18) 0.7296(3) 0.9633(3)
C34G C -0.04897(18) 0.7296(3) 0.9154(3)
O18G O 0.1736(5) 0.7263(10) 0.5174(7)
O19G O 0.1798(4) 0.7764(7) 0.3871(6)
C36G C 0.1502(7) 0.7822(11) 0.4909(7)
C37G C 0.1569(5) 0.7159(8) 0.4053(6)
loop_
_geom_bond_atom_site_label_1
_geom_bond_atom_site_label_2
_geom_bond_site_symmetry_1
_geom_bond_site_symmetry_2
Cu1 Cu2 1_555 1_555
Cu2 O4 1_555 1_555
Cu3 Cu4 1_555 1_555
Cu4 O2 1_555 1_555
C1 C2 1_555 1_555
O1 Cu3 1_555 1_555
C2 C5 1_555 1_555
O2 C4 1_555 1_555
O3 Cu1 1_555 1_555
C3 C4 1_555 1_555
O4 C1 1_555 1_555
C4 O1 1_555 1_555
C5 C3 1_555 1_555
H1 C5 1_555 1_555
C6 C3 1_555 1_555
H2 C6 1_555 1_555
O5 C7 1_555 1_555
C7 H3 1_555 1_555
H4 C7 1_555 1_555
C8 C7 1_555 1_555
H5 C8 1_555 1_555
H6 C8 1_555 1_555
C9 C8 1_555 1_555
H7 C9 1_555 1_555
H8 C9 1_555 1_555
O6 C9 1_555 1_555
C10 O6 1_555 1_555
C11 C10 1_555 1_555
H9 C11 1_555 1_555
C12 H10 1_555 1_555
C13 C10 1_555 1_555
H11 C13 1_555 1_555
C14 C6 1_555 1_555
C15 C2 1_555 1_555
H12 C15 1_555 1_555
O7 C19 1_555 1_555
O8 C19 1_555 1_555
O9 C18 1_555 1_555
O10 C18 1_555 1_555
C16 C11 1_555 1_555
C17 C12 1_555 1_555
C18 C17 1_555 1_555
C19 C16 1_555 1_555
C20 O11 1_555 1_555
O11 Cu3 1_555 1_555
C21 C20 1_555 1_555
O12 Cu4 1_555 1_555
C22 C21 1_555 1_555
H13 C22 1_555 1_555
C23 C21 1_555 1_555
H14 C23 1_555 1_555
C24 C23 1_555 1_555
O13 C29 1_555 1_555
O14 C29 1_555 1_555
C25 C26 1_555 1_555
C26 H15 1_555 1_555
C27 C26 1_555 1_555
O15 Cu3 1_555 1_555
C28 C27 1_555 1_555
H16 C28 1_555 1_555
O16 Cu4 1_555 1_555
C29 C27 1_555 1_555
C30 N1 1_555 1_555
N1 Cu2 1_555 1_555
C31 N1 1_555 1_555
C32 C31 1_555 1_555
C33 C32 1_555 1_555
C34 C30 1_555 1_555
O17 Cu1 1_555 1_555
C35 C36 1_555 1_555
O18 C24 1_555 1_555
O19 C25 1_555 1_555
C36 O18 1_555 1_555
C37 C35 1_555 1_555
Cu1C O8 1_555 1_555
Cu1C_2 Cu2C_2 1_555 1_555
Cu2C O7 1_555 1_555
Cu2C_2 O7G 1_555 1_555
Cu3G Cu4G 1_555 1_555
Cu3E O9 1_555 1_555
Cu3A O14 1_555 1_555
Cu3F Cu4F 1_555 1_555
Cu3B Cu4B 1_555 1_555
Cu4G O2G 1_555 1_555
Cu4E O10 1_555 1_555
Cu4A O13 1_555 1_555
Cu4F O13G 1_555 1_555
Cu4B O10G 1_555 1_555
C1G C2G 1_555 1_555
O1G Cu3G 1_555 1_555
C2G C5G 1_555 1_555
O2G C4G 1_555 1_555
O3G Cu1 1_555 1_555
C3G C4G 1_555 1_555
O4G Cu2 1_555 1_555
C4G O1G 1_555 1_555
C5G C3G 1_555 1_555
H1G C5G 1_555 1_555
C6G C3G 1_555 1_555
H2G C6G 1_555 1_555
O5G C7G 1_555 1_555
C7G H3G 1_555 1_555
H4G C7G 1_555 1_555
C8G C7G 1_555 1_555
H5G C8G 1_555 1_555
H6G C8G 1_555 1_555
C9G C8G 1_555 1_555
H7G C9G 1_555 1_555
H8G C9G 1_555 1_555
O6G C9G 1_555 1_555
C10G O6G 1_555 1_555
C11G C10G 1_555 1_555
H9G C11G 1_555 1_555
C12G H10G 1_555 1_555
C13G C10G 1_555 1_555
H11G C13G 1_555 1_555
C14G C6G 1_555 1_555
C15G C2G 1_555 1_555
H12G C15G 1_555 1_555
O7G C19G 1_555 1_555
O7C Cu2 1_555 1_555
O7D Cu2 1_555 1_555
O8G Cu1C_2 1_555 1_555
O8C Cu1 1_555 1_555
O8D Cu1 1_555 1_555
O9G Cu3B 1_555 1_555
O9E Cu3 1_555 1_555
O9B Cu3G 1_555 1_555
O10G C18G 1_555 1_555
O10E Cu4 1_555 1_555
O10B Cu4G 1_555 1_555
C16G C11G 1_555 1_555
C17G C12G 1_555 1_555
C18G O9G 1_555 1_555
C19G O8G 1_555 1_555
C20G O11G 1_555 1_555
O11G Cu3G 1_555 1_555
C21G C22 1_555 1_555
O12G Cu4G 1_555 1_555
C23G C24 1_555 1_555
H14G C23G 1_555 1_555
O13G C29G 1_555 1_555
O13A Cu4 1_555 1_555
O13F Cu4G 1_555 1_555
O14G Cu3F 1_555 1_555
O14A Cu3 1_555 1_555
O14F Cu3G 1_555 1_555
C26G C25 1_555 1_555
H15G C26G 1_555 1_555
C27G C28 1_555 1_555
O15G Cu3G 1_555 1_555
O16G Cu4G 1_555 1_555
C29G O14G 1_555 1_555
C30G C30 1_555 1_555
N1G Cu2 1_555 1_555
C31G N1 1_555 1_555
C32G C31 1_555 1_555
C33G C32 1_555 1_555
C34G C30 1_555 1_555
O18G C24 1_555 1_555
O19G C25 1_555 1_555
C36G C35 1_555 1_555
C37G C35 1_555 1_555
C1 O3 1_555 1_555
O5 C14 1_555 1_555
C12 C16 1_555 1_555
C13 C17 1_555 1_555
C14 C15 1_555 1_555
C20 O12 1_555 1_555
C30 N1G 1_555 1_555
N1 C30G 1_555 1_555
N1 N1G 1_555 1_555
C31 N1G 1_555 1_555
C31 C31G 1_555 1_555
C32 C31G 1_555 1_555
C32 C32G 1_555 1_555
C33 C34 1_555 1_555
C33 C32G 1_555 1_555
C33 C33G 1_555 1_555
C33 C34G 1_555 1_555
C34 C30G 1_555 1_555
C34 C33G 1_555 1_555
C34 C34G 1_555 1_555
O18 O18G 1_555 1_555
O18 C36G 1_555 1_555
O19 C37 1_555 1_555
O19 O19G 1_555 1_555
O19 C37G 1_555 1_555
C36 O18G 1_555 1_555
C36 C36G 1_555 1_555
C37 O19G 1_555 1_555
C37 C37G 1_555 1_555
Cu1C Cu2C 1_555 1_555
Cu3E Cu4E 1_555 1_555
Cu3A Cu4A 1_555 1_555
C1G O3G 1_555 1_555
C1G O4G 1_555 1_555
O5G C14G 1_555 1_555
C12G C16G 1_555 1_555
C13G C17G 1_555 1_555
C14G C15G 1_555 1_555
C16G C19G 1_555 1_555
C17G C18G 1_555 1_555
C20G C21G 1_555 1_555
C20G O12G 1_555 1_555
C21G C23G 1_555 1_555
C26G C27G 1_555 1_555
C27G C29G 1_555 1_555
C30G N1G 1_555 1_555
C30G C34G 1_555 1_555
N1G C31G 1_555 1_555
C31G C32G 1_555 1_555
C32G C33G 1_555 1_555
C33G C34G 1_555 1_555
O18G C36G 1_555 1_555
O19G C37G 1_555 1_555

#END
