
#######################################################################
#
#                 Cambridge Crystallographic Data Centre
#                                CCDC 
#
#######################################################################
#
# If this CIF has been generated from an entry in the Cambridge 
# Structural Database, then it will include bibliographic, chemical, 
# crystal, experimental, refinement or atomic coordinate data resulting 
# from the CCDC's data processing and validation procedures.
#
#######################################################################

data_REJLAU
_chemical_formula_moiety         '(C33 H32 Cu17 N30)n'
_symmetry_cell_setting           monoclinic
_symmetry_space_group_name_H-M   'C 2/c'
_symmetry_Int_Tables_number      15
_space_group_name_Hall           '-C 2yc'
loop_
_symmetry_equiv_pos_site_id
_symmetry_equiv_pos_as_xyz
1 x,y,z
2 1/2+x,1/2+y,z
3 -x,y,1/2-z
4 1/2-x,1/2+y,1/2-z
5 -x,-y,-z
6 1/2-x,1/2-y,-z
7 x,-y,1/2+z
8 1/2+x,1/2-y,1/2+z
_cell_length_a                   42.347(15)
_cell_length_b                   8.569(3)
_cell_length_c                   14.490(5)
_cell_angle_alpha                90
_cell_angle_beta                 108.758(6)
_cell_angle_gamma                90
_cell_volume                     4978.73
loop_
_atom_site_label
_atom_site_type_symbol
_atom_site_fract_x
_atom_site_fract_y
_atom_site_fract_z
C6 C 0.19526(9) 0.2433(4) 0.5973(2)
C7 C 0.16319(9) 0.1614(5) 0.5703(3)
H7 H 0.1610 0.0960 0.5148
H8 H 0.1454 0.2363 0.5544
H9 H 0.1621 0.0983 0.6240
C8 C 0.23636(9) 0.3962(4) 0.6760(3)
C9 C 0.25673(11) 0.5061(5) 0.7504(3)
H10 H 0.2447 0.5350 0.7938
H11 H 0.2773 0.4568 0.7868
H12 H 0.2613 0.5978 0.7189
N2 N 0.16031(8) -0.1109(4) 0.3355(3)
N3 N 0.07231(9) -0.4665(5) 0.1690(3)
C12 C -0.01124(10) -0.8063(5) -0.0367(3)
N5 N -0.10138(10) -1.1362(5) -0.2194(3)
N6 N -0.17819(10) -1.2725(5) -0.1106(3)
C15 C -0.15965(9) -1.4029(5) -0.3665(3)
N13 N 0.20590(7) 0.3445(3) 0.6730(2)
N14 N 0.21826(7) 0.2331(3) 0.5550(2)
N15 N 0.18768(8) 0.3844(4) 0.7348(2)
H15 H 0.1958 0.4494 0.7817
H16 H 0.1683 0.3440 0.7259
N16 N 0.24460(7) 0.3314(3) 0.6052(2)
C17 C 0.17998(9) -0.0171(4) 0.3692(3)
C18 C 0.09435(10) -0.3876(5) 0.2085(3)
N19 N 0.00692(10) -0.7249(5) 0.0180(3)
C20 C -0.07756(10) -1.0638(5) -0.1849(3)
C21 C -0.16754(9) -1.2470(4) -0.1724(3)
N22 N -0.17071(8) -1.5063(4) -0.4163(2)
C23 C -0.23718(10) -1.2718(5) 0.0001(3)
Cu3 Cu 0.214575(11) 0.12283(5) 0.43099(3)
Cu4 Cu 0.130445(15) -0.26362(7) 0.27190(5)
Cu5 Cu 0.038065(14) -0.59654(8) 0.10173(4)
Cu6 Cu -0.041503(16) -0.93852(8) -0.12083(5)
Cu7 Cu -0.143311(14) -1.24484(6) -0.26915(4)
Cu8 Cu -0.194788(12) -1.33236(6) -0.00854(4)
C6E C 0.30474(9) 0.2567(4) 0.4027(2)
C7E C 0.33681(9) 0.3386(5) 0.4297(3)
H7E H 0.3390 0.4040 0.4852
H8E H 0.3546 0.2637 0.4456
H9E H 0.3379 0.4017 0.3760
C8E C 0.26364(9) 0.1038(4) 0.3240(3)
C9E C 0.24327(11) -0.0061(5) 0.2496(3)
H10E H 0.2553 -0.0350 0.2062
H11E H 0.2227 0.0432 0.2132
H12E H 0.2387 -0.0978 0.2811
N2E N 0.33969(8) 0.6109(4) 0.6645(3)
N3E N 0.42769(9) 0.9665(5) 0.8310(3)
C12E C 0.51124(10) 1.3063(5) 1.0367(3)
N5E N 0.60138(10) 1.6362(5) 1.2194(3)
N6E N 0.67819(10) 1.7725(5) 1.1106(3)
N6F N -0.17819(10) -1.7275(5) -0.6106(3)
C15F C -0.15965(9) -1.5971(5) 0.1335(3)
C15E C 0.65965(9) 1.9029(5) 1.3665(3)
N13E N 0.29410(7) 0.1555(3) 0.3270(2)
N14E N 0.28174(7) 0.2669(3) 0.4450(2)
N15E N 0.31232(8) 0.1156(4) 0.2652(2)
H15E H 0.3042 0.0506 0.2183
H16E H 0.3317 0.1560 0.2741
N16E N 0.25540(7) 0.1686(3) 0.3948(2)
C17E C 0.32002(9) 0.5171(4) 0.6308(3)
C18E C 0.40565(10) 0.8876(5) 0.7915(3)
N19E N 0.49308(10) 1.2249(5) 0.9820(3)
C20E C 0.57756(10) 1.5638(5) 1.1849(3)
C21E C 0.66754(9) 1.7470(4) 1.1724(3)
N22F N -0.17071(8) -1.4937(4) 0.0837(2)
C23E C -0.26282(10) -1.2282(5) -0.0001(3)
C23F C -0.23718(10) -1.7282(5) -0.4999(3)
Cu3E Cu 0.285425(11) 0.37717(5) 0.56901(3)
Cu4E Cu 0.369555(15) 0.76362(7) 0.72810(5)
Cu5E Cu 0.461935(14) 1.09654(8) 0.89827(4)
Cu6E Cu 0.541503(16) 1.43852(8) 1.12083(5)
Cu7E Cu 0.643311(14) 1.74484(6) 1.26915(4)
Cu7F Cu -0.143311(14) -1.75516(6) 0.23085(4)
Cu8F Cu -0.194788(12) -1.66764(6) -0.50854(4)
Cu8E Cu -0.305212(12) -1.16764(6) 0.00854(4)
Cu8E_2 Cu 0.694788(12) 1.83236(6) 1.00854(4)
C1 C -0.06354(9) -0.4318(4) -0.3993(3)
C2 C -0.06518(9) -0.6868(4) -0.3974(3)
C3 C -0.07382(10) -0.2693(5) -0.4247(3)
H1 H -0.0567 -0.2002 -0.3870
H2 H -0.0941 -0.2490 -0.4108
H3 H -0.0774 -0.2527 -0.4928
C4 C -0.07739(12) -0.8495(5) -0.4206(4)
H4 H -0.0611 -0.9210 -0.3815
H5 H -0.0809 -0.8701 -0.4883
H6 H -0.0980 -0.8623 -0.4071
C5 C -0.0000 -1.1303(5) -0.2500
N8 N -0.03682(8) -0.6439(3) -0.3330(2)
N9 N -0.03602(7) -0.4806(3) -0.3349(2)
N10 N -0.08202(7) -0.5583(4) -0.4400(2)
N11 N -0.11301(8) -0.5467(5) -0.5137(3)
H13 H -0.1239 -0.6298 -0.5378
H14 H -0.1211 -0.4565 -0.5346
N12 N 0.0000 -0.9968(6) -0.2500
Cu1 Cu -0.0000 -0.77652(8) -0.2500
Cu2 Cu 0.0000 -1.35037(7) -0.2500
C1B C 0.06354(9) -0.4318(4) -0.1007(3)
C2B C 0.06518(9) -0.6868(4) -0.1026(3)
C3B C 0.07382(10) -0.2693(5) -0.0753(3)
H1B H 0.0567 -0.2002 -0.1130
H2B H 0.0941 -0.2490 -0.0892
H3B H 0.0774 -0.2527 -0.0072
C4B C 0.07739(12) -0.8495(5) -0.0794(4)
H4B H 0.0611 -0.9210 -0.1185
H5B H 0.0809 -0.8701 -0.0117
H6B H 0.0980 -0.8623 -0.0929
N8B N 0.03682(8) -0.6439(3) -0.1670(2)
N9B N 0.03602(7) -0.4806(3) -0.1651(2)
N9_2 N -0.03602(7) -1.4806(3) -0.3349(2)
N9B_2 N 0.03602(7) -1.4806(3) -0.1651(2)
N10B N 0.08202(7) -0.5583(4) -0.0600(2)
N11B N 0.11301(8) -0.5467(5) 0.0137(3)
H13B H 0.1239 -0.6298 0.0378
H14B H 0.1211 -0.4565 0.0346
Cu2_2 Cu -0.0000 -0.35037(7) -0.2500
loop_
_geom_bond_atom_site_label_1
_geom_bond_atom_site_label_2
_geom_bond_site_symmetry_1
_geom_bond_site_symmetry_2
C1 C3 1_555 1_555
C2 C4 1_555 1_555
C3 H1 1_555 1_555
H2 C3 1_555 1_555
H3 C3 1_555 1_555
C4 H4 1_555 1_555
H5 C4 1_555 1_555
H6 C4 1_555 1_555
C5 N12 1_555 1_555
C6 C7 1_555 1_555
C7 H7 1_555 1_555
H8 C7 1_555 1_555
H9 C7 1_555 1_555
C8 C9 1_555 1_555
C9 H10 1_555 1_555
H11 C9 1_555 1_555
H12 C9 1_555 1_555
N2 C17 1_555 1_555
N3 C18 1_555 1_555
C12 N19 1_555 1_555
N5 C20 1_555 1_555
N6 C21 1_555 1_555
C15 N22 1_555 1_555
N8 C2 1_555 1_555
N9 C1 1_555 1_555
N10 C1 1_555 1_555
N11 N10 1_555 1_555
H13 N11 1_555 1_555
H14 N11 1_555 1_555
N12 Cu1 1_555 1_555
N13 C6 1_555 1_555
N14 C6 1_555 1_555
N15 N13 1_555 1_555
H15 N15 1_555 1_555
H16 N15 1_555 1_555
N16 C8 1_555 1_555
C17 Cu3 1_555 1_555
C18 Cu4 1_555 1_555
N19 Cu5 1_555 1_555
C20 Cu6 1_555 1_555
C21 Cu7 1_555 1_555
N22 Cu8F 1_555 1_555
C23 Cu8 1_555 1_555
Cu1 N8 1_555 1_555
Cu2 C5 1_555 1_555
Cu3 N14 1_555 1_555
Cu4 N2 1_555 1_555
Cu5 N3 1_555 1_555
Cu6 C12 1_555 1_555
Cu7 N5 1_555 1_555
Cu8 N6 1_555 1_555
C1B C3B 1_555 1_555
C2B C4B 1_555 1_555
C3B H1B 1_555 1_555
H2B C3B 1_555 1_555
H3B C3B 1_555 1_555
C4B H4B 1_555 1_555
H5B C4B 1_555 1_555
H6B C4B 1_555 1_555
C6E C7E 1_555 1_555
C7E H7E 1_555 1_555
H8E C7E 1_555 1_555
H9E C7E 1_555 1_555
C8E C9E 1_555 1_555
C9E H10E 1_555 1_555
H11E C9E 1_555 1_555
H12E C9E 1_555 1_555
N2E C17E 1_555 1_555
N3E C18E 1_555 1_555
C12E N19E 1_555 1_555
N5E C20E 1_555 1_555
N6E C21E 1_555 1_555
N6F Cu8F 1_555 1_555
C15F N22F 1_555 1_555
C15E Cu7E 1_555 1_555
N8B Cu1 1_555 1_555
N9B C1B 1_555 1_555
N9_2 Cu2 1_555 1_555
N9B_2 Cu2 1_555 1_555
N10B C1B 1_555 1_555
N11B N10B 1_555 1_555
H13B N11B 1_555 1_555
H14B N11B 1_555 1_555
N13E C6E 1_555 1_555
N14E C6E 1_555 1_555
N15E N13E 1_555 1_555
H15E N15E 1_555 1_555
H16E N15E 1_555 1_555
N16E Cu3 1_555 1_555
C17E Cu3E 1_555 1_555
C18E Cu4E 1_555 1_555
N19E Cu5E 1_555 1_555
C20E Cu6E 1_555 1_555
C21E Cu7E 1_555 1_555
N22F Cu8 1_555 1_555
C23E C23 1_555 1_555
C23F Cu8F 1_555 1_555
Cu2_2 N9 1_555 1_555
Cu3E N16 1_555 1_555
Cu4E N2E 1_555 1_555
Cu5E N3E 1_555 1_555
Cu6E C12E 1_555 1_555
Cu7E N5E 1_555 1_555
Cu7F C15F 1_555 1_555
Cu8E C23E 1_555 1_555
Cu8E_2 N6E 1_555 1_555
C2 N10 1_555 1_555
C8 N13 1_555 1_555
C15 Cu7 1_555 1_555
N8 N9 1_555 1_555
N14 N16 1_555 1_555
C2B N8B 1_555 1_555
C2B N10B 1_555 1_555
C8E N13E 1_555 1_555
C8E N16E 1_555 1_555
N8B N9B 1_555 1_555
N9B Cu2_2 1_555 1_555
N14E N16E 1_555 1_555
N14E Cu3E 1_555 1_555

#END
