
#######################################################################
#
#                 Cambridge Crystallographic Data Centre
#                                CCDC 
#
#######################################################################
#
# If this CIF has been generated from an entry in the Cambridge 
# Structural Database, then it will include bibliographic, chemical, 
# crystal, experimental, refinement or atomic coordinate data resulting 
# from the CCDC's data processing and validation procedures.
#
#######################################################################

data_KOHSOR
_chemical_formula_moiety         '(C110 H194 N20 Ni4 O21)n'
_symmetry_cell_setting           triclinic
_symmetry_space_group_name_H-M   'P -1'
_symmetry_Int_Tables_number      2
_space_group_name_Hall           '-P 1'
loop_
_symmetry_equiv_pos_site_id
_symmetry_equiv_pos_as_xyz
1 x,y,z
2 -x,-y,-z
_cell_length_a                   13.6170(6)
_cell_length_b                   14.3185(5)
_cell_length_c                   18.6289(7)
_cell_angle_alpha                88.841(3)
_cell_angle_beta                 69.413(4)
_cell_angle_gamma                79.690(3)
_cell_volume                     3341.72
loop_
_atom_site_label
_atom_site_type_symbol
_atom_site_fract_x
_atom_site_fract_y
_atom_site_fract_z
Ni1 Ni -1.0000 1.0000 2.0000
Ni2 Ni -0.5000 0.5000 2.0000
Ni3 Ni 0.20117(8) 0.19360(8) 1.47930(6)
C1 C -0.6974(6) 0.9015(6) 1.8008(4)
C2 C -0.5956(6) 0.9183(5) 1.7628(4)
H1 H -0.5744 0.9697 1.7792
C3 C -0.5242(6) 0.8610(6) 1.7010(4)
C4 C -0.5602(7) 0.7891(6) 1.6745(5)
H2 H -0.5132 0.7514 1.6320
C5 C -0.6642(7) 0.7699(7) 1.7087(5)
C6 C -0.7305(7) 0.8284(6) 1.7724(5)
H3 H -0.7998 0.8182 1.7970
C7 C -0.7728(7) 0.9657(6) 1.8674(5)
C8 C -0.4142(7) 0.8761(7) 1.6610(5)
C9 C -0.7126(7) 0.7071(7) 1.6699(6)
H4 H -0.7732 0.6866 1.7082
H5 H -0.7379 0.7435 1.6333
C10 C -0.6272(9) 0.5575(8) 1.6865(7)
H6 H -0.6983 0.5446 1.7133
H7 H -0.6055 0.5872 1.7234
C11 C -0.5527(8) 0.4656(7) 1.6569(5)
H8 H -0.5828 0.4321 1.6274
H9 H -0.5528 0.4282 1.7009
C12 C -0.4366(7) 0.4656(6) 1.6076(5)
H10 H -0.4347 0.5134 1.5697
H11 H -0.4003 0.4840 1.6400
C13 C -0.3960(10) 0.3563(9) 1.5015(7)
C14 C -0.3332(9) 0.4121(7) 1.4317(5)
C15 C -0.3719(8) 0.3011(6) 1.6221(5)
H12 H -0.3488 0.2404 1.5935
H13 H -0.4426 0.3015 1.6595
C16 C -0.0001(7) 0.2574(8) 1.6255(5)
C17 C -0.3078(7) 0.4063(7) 1.8543(5)
C18 C -0.2663(6) 0.3593(6) 1.7767(4)
C19 C -0.3362(6) 0.3490(6) 1.7374(5)
H14 H -0.4092 0.3699 1.7615
C20 C -0.2976(6) 0.3086(6) 1.6642(5)
C21 C -0.1895(7) 0.2771(5) 1.6284(5)
H15 H -0.1631 0.2485 1.5793
C22 C -0.1187(7) 0.2885(6) 1.6665(4)
C23 C -0.1589(6) 0.3296(6) 1.7379(4)
H16 H -0.1117 0.3382 1.7620
C24 C -1.2104(12) 1.1219(12) 1.8690(10)
H17 H -1.1888 1.1807 1.8503
H18 H -1.2684 1.1339 1.9174
H19 H -1.2331 1.0934 1.8328
C25 C -1.0226(12) 1.0317(9) 1.8059(7)
H20 H -0.9969 1.0893 1.7880
H21 H -1.0457 1.0061 1.7686
H22 H -0.9662 0.9864 1.8133
C26 C -1.1136(11) 1.0526(10) 1.8799(7)
C27 C -1.1548(10) 0.9588(11) 1.9070(6)
H23 H -1.2146 0.9749 1.9548
H24 H -1.1838 0.9406 1.8698
C28 C -1.0863(10) 0.8717(9) 1.9199(7)
C29 C -1.161(2) 0.8019(17) 1.9202(17)
C30 C -0.9945(11) 0.8017(8) 2.0072(8)
H25 H -1.0303 0.7475 2.0162
H26 H -0.9292 0.7855 1.9630
C31 C -0.9681(10) 0.8217(8) 2.0750(7)
H27 H -0.9179 0.7688 2.0826
H28 H -1.0319 0.8320 2.1206
C32 C -0.5080(12) 0.7993(9) 1.9248(9)
H29 H -0.4383 0.8100 1.9197
H30 H -0.5576 0.8216 1.9749
H31 H -0.5305 0.8329 1.8865
C33 C -0.4261(9) 0.6496(10) 1.8341(6)
H32 H -0.3558 0.6587 1.8290
H33 H -0.4477 0.6836 1.7956
H34 H -0.4256 0.5831 1.8278
C34 C -0.5040(11) 0.6867(9) 1.9133(7)
C35 C -0.6176(9) 0.6761(8) 1.9226(6)
H35 H -0.6630 0.6963 1.9750
H36 H -0.6412 0.7205 1.8894
C36 C -0.6371(7) 0.5837(8) 1.9070(5)
H37 H -0.5825 0.5574 1.8582
C37 C -0.7497(8) 0.5948(8) 1.8984(6)
H38 H -0.7621 0.5335 1.8879
H39 H -0.7513 0.6352 1.8570
H40 H -0.8041 0.6225 1.9452
C38 C -0.6465(8) 0.4183(7) 1.9554(6)
H41 H -0.5940 0.3906 1.9070
H42 H -0.7171 0.4205 1.9534
C39 C -0.6337(8) 0.3584(8) 2.0221(6)
H43 H -0.6893 0.3835 2.0700
H44 H -0.6390 0.2931 2.0136
C40 C 0.153(2) 0.4902(19) 1.3886(16)
C41 C 0.1403(10) 0.3727(9) 1.4028(8)
C42 C 0.1365(10) 0.3065(11) 1.3419(6)
H45 H 0.1030 0.3451 1.3104
H46 H 0.2097 0.2827 1.3093
C43 C 0.0857(10) 0.2276(9) 1.3615(7)
C44 C -0.0229(13) 0.2576(11) 1.4074(9)
H47 H -0.0567 0.2032 1.4211
H48 H -0.0580 0.2991 1.3791
H49 H -0.0279 0.2909 1.4531
C45 C 0.083(2) 0.1867(16) 1.2880(10)
H50 H 0.0444 0.1350 1.2996
H51 H 0.1545 0.1639 1.2537
H52 H 0.0481 0.2351 1.2641
C46 C 0.1045(10) 0.0638(10) 1.4242(7)
H53 H 0.0333 0.0799 1.4624
H54 H 0.1004 0.0283 1.3819
C47 C 0.1732(9) 0.0072(8) 1.4570(7)
H55 H 0.1424 -0.0475 1.4789
H56 H 0.2412 -0.0159 1.4168
C48 C 0.2337(17) -0.0802(12) 1.5938(14)
C49 C 0.2694(11) 0.0098(7) 1.5524(8)
C50 C 0.2739(10) 0.0738(10) 1.6126(9)
C51 C 0.3285(8) 0.1601(9) 1.5880(7)
C52 C 0.4394(14) 0.1384(14) 1.5480(11)
C53 C 0.2939(7) 0.3186(7) 1.5379(6)
H57 H 0.3640 0.3058 1.4981
H58 H 0.2996 0.3507 1.5813
C54 C 0.2174(10) 0.3817(8) 1.5083(7)
H59 H 0.2430 0.4403 1.4912
H60 H 0.1478 0.3974 1.5484
N1 N -0.6314(7) 0.6217(5) 1.6293(5)
N2 N -0.3791(6) 0.3766(5) 1.5686(4)
O1 O -0.8633(5) 0.9416(4) 1.9015(3)
O2 O -0.7437(5) 1.0330(5) 1.8860(4)
O3 O -0.3752(6) 0.9307(7) 1.6935(5)
O4 O -0.3610(4) 0.8346(4) 1.5993(3)
O5 O -0.4043(4) 0.4347(4) 1.8877(3)
O6 O -0.2395(7) 0.4112(5) 1.8855(5)
O7 O 0.0372(4) 0.2299(4) 1.5585(3)
O8 O 0.0533(7) 0.2632(6) 1.6674(5)
N3 N -1.0642(7) 0.8844(6) 1.9902(5)
H61 H -1.105(6) 0.900(5) 2.025(7)
N4 N -0.9196(7) 0.9094(7) 2.0595(5)
H62 H -0.8494(10) 0.8794(12) 2.0423(15)
N5 N -0.6312(5) 0.5139(6) 1.9689(4)
H63 H -0.694(4) 0.532(3) 2.007(4)
N6 N -0.5244(6) 0.3628(6) 2.0253(5)
H64 H -0.4907(13) 0.326(6) 1.982(3)
N7 N 0.2102(7) 0.3282(6) 1.4422(5)
H65 H 0.2719(13) 0.324(7) 1.402(2)
N8 N 0.1452(6) 0.1523(7) 1.3961(5)
H66 H 0.2142(11) 0.124(2) 1.378(6)
N9 N 0.1915(6) 0.0581(6) 1.5161(5)
H67 H 0.1246(15) 0.0667(10) 1.5504(9)
N10 N 0.2591(5) 0.2325(5) 1.5607(4)
H68 H 0.191(2) 0.2550(15) 1.590(4)
C55 C 0.334(3) 0.197(4) 1.6778(13)
C1A C -0.3026(6) 0.0985(6) 1.1992(4)
C2A C -0.4044(6) 0.0817(5) 1.2372(4)
H1A H -0.4256 0.0303 1.2208
C3A C -0.4758(6) 0.1390(6) 1.2990(4)
C4A C -0.4398(7) 0.2109(6) 1.3255(5)
H2A H -0.4868 0.2486 1.3680
C5A C -0.3358(7) 0.2301(7) 1.2913(5)
C6A C -0.2695(7) 0.1716(6) 1.2276(5)
H3A H -0.2002 0.1818 1.2030
C7A C -0.2272(7) 0.0343(6) 1.1326(5)
C8A C -0.5858(7) 0.1239(7) 1.3390(5)
C9A C -0.2874(7) 0.2929(7) 1.3301(6)
H4A H -0.2268 0.3134 1.2918
H5A H -0.2621 0.2565 1.3667
C10A C -0.3728(9) 0.4425(8) 1.3135(7)
H6A H -0.3017 0.4554 1.2867
H7A H -0.3945 0.4128 1.2766
C11A C -0.4473(8) 0.5344(7) 1.3431(5)
H8A H -0.4172 0.5679 1.3726
H9A H -0.4472 0.5718 1.2991
C12A C -0.5634(7) 0.5344(6) 1.3924(5)
H10A H -0.5653 0.4866 1.4303
H11A H -0.5997 0.5160 1.3600
C13A C -0.6040(10) 0.6437(9) 1.4985(7)
C14A C -0.6668(9) 0.5879(7) 1.5683(5)
C15A C -0.6281(8) 0.6989(6) 1.3779(5)
H12A H -0.6512 0.7596 1.4065
H13A H -0.5574 0.6985 1.3405
C16A C -0.9999(7) 0.7426(8) 1.3745(5)
C17A C -0.6922(7) 0.5937(7) 1.1457(5)
C18A C -0.7337(6) 0.6407(6) 1.2233(4)
C19A C -0.6638(6) 0.6510(6) 1.2626(5)
H14A H -0.5908 0.6301 1.2385
C20A C -0.7024(6) 0.6914(6) 1.3358(5)
C21A C -0.8105(7) 0.7229(5) 1.3716(5)
H15A H -0.8369 0.7515 1.4207
C22A C -0.8813(7) 0.7115(6) 1.3335(4)
C23A C -0.8411(6) 0.6704(6) 1.2621(4)
H16A H -0.8883 0.6618 1.2380
N1A N -0.3686(7) 0.3783(5) 1.3707(5)
N2A N -0.6209(6) 0.6234(5) 1.4314(4)
O1A O -0.1367(5) 0.0584(4) 1.0985(3)
O2A O -0.2563(5) -0.0330(5) 1.1140(4)
O3A O -0.6248(6) 0.0693(7) 1.3065(5)
O4A O -0.6390(4) 0.1654(4) 1.4007(3)
O5A O -0.5957(4) 0.5653(4) 1.1123(3)
O6A O -0.7605(7) 0.5888(5) 1.1145(5)
O7A O -1.0372(4) 0.7701(4) 1.4415(3)
O8A O -1.0533(7) 0.7368(6) 1.3326(5)
C24A C -0.7896(12) 0.8781(12) 2.1310(10)
H17A H -0.8112 0.8193 2.1497
H18A H -0.7316 0.8661 2.0826
H19A H -0.7669 0.9066 2.1672
C25A C -0.9774(12) 0.9683(9) 2.1941(7)
H20A H -1.0031 0.9107 2.2120
H21A H -0.9543 0.9939 2.2314
H22A H -1.0338 1.0136 2.1867
C26A C -0.8864(11) 0.9474(10) 2.1201(7)
C27A C -0.8452(10) 1.0412(11) 2.0930(6)
H23A H -0.7854 1.0251 2.0452
H24A H -0.8162 1.0594 2.1302
C28A C -0.9137(10) 1.1283(9) 2.0801(7)
C29A C -0.839(2) 1.1981(17) 2.0798(17)
C30A C -1.0055(11) 1.1983(8) 1.9928(8)
H25A H -0.9697 1.2525 1.9838
H26A H -1.0708 1.2145 2.0370
C31A C -1.0319(10) 1.1783(8) 1.9250(7)
H27A H -1.0821 1.2312 1.9174
H28A H -0.9681 1.1680 1.8794
N3A N -0.9358(7) 1.1156(6) 2.0098(5)
H61A H -0.895(6) 1.100(5) 1.975(7)
N4A N -1.0804(7) 1.0906(7) 1.9405(5)
H62A H -1.1506(10) 1.1206(12) 1.9577(15)
C32A C -0.4920(12) 0.2007(9) 2.0752(9)
H29A H -0.5617 0.1900 2.0803
H30A H -0.4424 0.1784 2.0251
H31A H -0.4695 0.1671 2.1135
C33A C -0.5739(9) 0.3504(10) 2.1659(6)
H32A H -0.6442 0.3413 2.1710
H33A H -0.5523 0.3164 2.2044
H34A H -0.5744 0.4169 2.1722
C34A C -0.4960(11) 0.3133(9) 2.0867(7)
C35A C -0.3824(9) 0.3239(8) 2.0774(6)
H35A H -0.3370 0.3037 2.0250
H36A H -0.3588 0.2795 2.1106
C36A C -0.3629(7) 0.4163(8) 2.0930(5)
H37A H -0.4175 0.4426 2.1418
C37A C -0.2503(8) 0.4052(8) 2.1016(6)
H38A H -0.2379 0.4665 2.1121
H39A H -0.2487 0.3648 2.1430
H40A H -0.1959 0.3775 2.0548
C38A C -0.3535(8) 0.5817(7) 2.0446(6)
H41A H -0.4060 0.6094 2.0930
H42A H -0.2829 0.5795 2.0466
C39A C -0.3663(8) 0.6416(8) 1.9779(6)
H43A H -0.3107 0.6165 1.9300
H44A H -0.3610 0.7069 1.9864
N5A N -0.3688(5) 0.4861(6) 2.0311(4)
H63A H -0.306(4) 0.468(3) 1.993(4)
N6A N -0.4756(6) 0.6372(6) 1.9747(5)
H64A H -0.5093(13) 0.674(6) 2.018(3)
Ni3A Ni -0.20117(8) 0.80640(8) 1.52070(6)
C40A C -0.153(2) 0.5098(19) 1.6114(16)
C41A C -0.1403(10) 0.6273(9) 1.5972(8)
C42A C -0.1365(10) 0.6935(11) 1.6581(6)
H45A H -0.1030 0.6549 1.6896
H46A H -0.2097 0.7173 1.6907
C43A C -0.0857(10) 0.7724(9) 1.6385(7)
C44A C 0.0229(13) 0.7424(11) 1.5926(9)
H47A H 0.0567 0.7968 1.5789
H48A H 0.0580 0.7009 1.6209
H49A H 0.0279 0.7091 1.5469
C45A C -0.083(2) 0.8133(16) 1.7120(10)
H50A H -0.0444 0.8650 1.7004
H51A H -0.1545 0.8361 1.7463
H52A H -0.0481 0.7649 1.7359
C46A C -0.1045(10) 0.9362(10) 1.5758(7)
H53A H -0.0333 0.9201 1.5376
H54A H -0.1004 0.9717 1.6181
C47A C -0.1732(9) 0.9928(8) 1.5430(7)
H55A H -0.1424 1.0475 1.5211
H56A H -0.2412 1.0159 1.5832
C48A C -0.2337(17) 1.0802(12) 1.4062(14)
C49A C -0.2694(11) 0.9902(7) 1.4476(8)
C50A C -0.2739(10) 0.9262(10) 1.3874(9)
C51A C -0.3285(8) 0.8399(9) 1.4120(7)
C52A C -0.4394(14) 0.8616(14) 1.4520(11)
C53A C -0.2939(7) 0.6814(7) 1.4621(6)
H57A H -0.3640 0.6942 1.5019
H58A H -0.2996 0.6493 1.4187
C54A C -0.2174(10) 0.6183(8) 1.4917(7)
H59A H -0.2430 0.5597 1.5088
H60A H -0.1478 0.6026 1.4516
N7A N -0.2102(7) 0.6718(6) 1.5578(5)
H65A H -0.2719(13) 0.676(7) 1.598(2)
N8A N -0.1452(6) 0.8477(7) 1.6039(5)
H66A H -0.2142(11) 0.876(2) 1.622(6)
N9A N -0.1915(6) 0.9419(6) 1.4839(5)
H67A H -0.1246(15) 0.9333(10) 1.4496(9)
N10A N -0.2591(5) 0.7675(5) 1.4393(4)
H68A H -0.191(2) 0.7450(15) 1.410(4)
C55A C -0.334(3) 0.803(4) 1.3222(13)
Ni1_2 Ni 0.0000 -0.0000 1.0000
Ni2_2 Ni -0.5000 0.5000 1.0000
Ni3_2 Ni -0.79883(8) 0.19360(8) 1.47930(6)
Ni3A_2 Ni -1.20117(8) 0.80640(8) 1.52070(6)
O1A_2 O -1.1367(5) 1.0584(4) 2.0985(3)
O4A_2 O 0.3610(4) 0.1654(4) 1.4007(3)
O5A_2 O -0.5957(4) 0.5653(4) 2.1123(3)
O7A_2 O -0.0372(4) 0.7701(4) 1.4415(3)
O9 O -0.427(2) 1.1080(17) 1.7577(14)
O10 O 0.202(2) 0.3580(16) 1.8452(14)
O11 O -0.6563(16) 1.1980(14) 1.8566(11)
O12 O 0.1056(19) 0.4135(16) 1.7348(13)
O13 O -0.069(2) 0.5053(17) 1.8683(14)
loop_
_geom_bond_atom_site_label_1
_geom_bond_atom_site_label_2
_geom_bond_site_symmetry_1
_geom_bond_site_symmetry_2
Ni1 O1 1_555 1_555
Ni2 O5 1_555 1_555
Ni3 O7 1_555 1_555
C1 C2 1_555 1_555
C2 H1 1_555 1_555
C3 C2 1_555 1_555
C4 C3 1_555 1_555
H2 C4 1_555 1_555
C5 C4 1_555 1_555
C6 C1 1_555 1_555
H3 C6 1_555 1_555
C7 C1 1_555 1_555
C8 C3 1_555 1_555
C9 C5 1_555 1_555
H4 C9 1_555 1_555
H5 C9 1_555 1_555
C10 H6 1_555 1_555
H7 C10 1_555 1_555
C11 C10 1_555 1_555
H8 C11 1_555 1_555
H9 C11 1_555 1_555
C12 C11 1_555 1_555
H10 C12 1_555 1_555
H11 C12 1_555 1_555
C13 C14 1_555 1_555
C14 N1A 1_555 1_555
C15 H12 1_555 1_555
H13 C15 1_555 1_555
C16 C22 1_555 1_555
C17 C18 1_555 1_555
C18 C19 1_555 1_555
C19 H14 1_555 1_555
C20 C15 1_555 1_555
C21 C20 1_555 1_555
H15 C21 1_555 1_555
C22 C21 1_555 1_555
C23 C18 1_555 1_555
H16 C23 1_555 1_555
C24 H17 1_555 1_555
H18 C24 1_555 1_555
H19 C24 1_555 1_555
C25 H20 1_555 1_555
H21 C25 1_555 1_555
H22 C25 1_555 1_555
C26 C24 1_555 1_555
C27 C26 1_555 1_555
H23 C27 1_555 1_555
H24 C27 1_555 1_555
C28 C27 1_555 1_555
C29 C28 1_555 1_555
C30 H25 1_555 1_555
H26 C30 1_555 1_555
C31 C30 1_555 1_555
H27 C31 1_555 1_555
H28 C31 1_555 1_555
C32 H29 1_555 1_555
H30 C32 1_555 1_555
H31 C32 1_555 1_555
C33 H32 1_555 1_555
H33 C33 1_555 1_555
H34 C33 1_555 1_555
C34 C32 1_555 1_555
C35 C34 1_555 1_555
H35 C35 1_555 1_555
H36 C35 1_555 1_555
C36 C35 1_555 1_555
H37 C36 1_555 1_555
C37 C36 1_555 1_555
H38 C37 1_555 1_555
H39 C37 1_555 1_555
H40 C37 1_555 1_555
C38 H41 1_555 1_555
H42 C38 1_555 1_555
C39 C38 1_555 1_555
H43 C39 1_555 1_555
H44 C39 1_555 1_555
C40 C41 1_555 1_555
C41 C42 1_555 1_555
C42 H45 1_555 1_555
H46 C42 1_555 1_555
C43 C42 1_555 1_555
C44 C43 1_555 1_555
H47 C44 1_555 1_555
H48 C44 1_555 1_555
H49 C44 1_555 1_555
C45 C43 1_555 1_555
H50 C45 1_555 1_555
H51 C45 1_555 1_555
H52 C45 1_555 1_555
C46 H53 1_555 1_555
H54 C46 1_555 1_555
C47 C46 1_555 1_555
H55 C47 1_555 1_555
H56 C47 1_555 1_555
C48 C49 1_555 1_555
C49 C50 1_555 1_555
C50 C51 1_555 1_555
C51 C52 1_555 1_555
C53 H57 1_555 1_555
H58 C53 1_555 1_555
C54 C53 1_555 1_555
H59 C54 1_555 1_555
H60 C54 1_555 1_555
N1 C9 1_555 1_555
N2 C12 1_555 1_555
O1 C7 1_555 1_555
O2 C7 1_555 1_555
O3 C8 1_555 1_555
O4 C8 1_555 1_555
O5 C17 1_555 1_555
O6 C17 1_555 1_555
O7 C16 1_555 1_555
O8 C16 1_555 1_555
N3 Ni1 1_555 1_555
H61 N3 1_555 1_555
N4 Ni1 1_555 1_555
H62 N4 1_555 1_555
N5 Ni2 1_555 1_555
H63 N5 1_555 1_555
N6 Ni2 1_555 1_555
H64 N6 1_555 1_555
N7 Ni3 1_555 1_555
H65 N7 1_555 1_555
N8 Ni3 1_555 1_555
H66 N8 1_555 1_555
N9 Ni3 1_555 1_555
H67 N9 1_555 1_555
N10 Ni3 1_555 1_555
H68 N10 1_555 1_555
C55 C51 1_555 1_555
C1A C2A 1_555 1_555
C2A H1A 1_555 1_555
C3A C2A 1_555 1_555
C4A C3A 1_555 1_555
H2A C4A 1_555 1_555
C5A C4A 1_555 1_555
C6A C1A 1_555 1_555
H3A C6A 1_555 1_555
C7A C1A 1_555 1_555
C8A C3A 1_555 1_555
C9A C5A 1_555 1_555
H4A C9A 1_555 1_555
H5A C9A 1_555 1_555
C10A H6A 1_555 1_555
H7A C10A 1_555 1_555
C11A C10A 1_555 1_555
H8A C11A 1_555 1_555
H9A C11A 1_555 1_555
C12A C11A 1_555 1_555
H10A C12A 1_555 1_555
H11A C12A 1_555 1_555
C13A C14A 1_555 1_555
C14A N1 1_555 1_555
C15A H12A 1_555 1_555
H13A C15A 1_555 1_555
C16A C22A 1_555 1_555
C17A C18A 1_555 1_555
C18A C19A 1_555 1_555
C19A H14A 1_555 1_555
C20A C15A 1_555 1_555
C21A C20A 1_555 1_555
H15A C21A 1_555 1_555
C22A C21A 1_555 1_555
C23A C18A 1_555 1_555
H16A C23A 1_555 1_555
N1A C9A 1_555 1_555
N2A C12A 1_555 1_555
O1A C7A 1_555 1_555
O2A C7A 1_555 1_555
O3A C8A 1_555 1_555
O4A C8A 1_555 1_555
O5A C17A 1_555 1_555
O6A C17A 1_555 1_555
O7A C16A 1_555 1_555
O8A C16A 1_555 1_555
C24A H17A 1_555 1_555
H18A C24A 1_555 1_555
H19A C24A 1_555 1_555
C25A H20A 1_555 1_555
H21A C25A 1_555 1_555
H22A C25A 1_555 1_555
C26A N4 1_555 1_555
C27A C26A 1_555 1_555
H23A C27A 1_555 1_555
H24A C27A 1_555 1_555
C28A C27A 1_555 1_555
C29A C28A 1_555 1_555
C30A H25A 1_555 1_555
H26A C30A 1_555 1_555
C31A C30A 1_555 1_555
H27A C31A 1_555 1_555
H28A C31A 1_555 1_555
N3A Ni1 1_555 1_555
H61A N3A 1_555 1_555
N4A Ni1 1_555 1_555
H62A N4A 1_555 1_555
C32A H29A 1_555 1_555
H30A C32A 1_555 1_555
H31A C32A 1_555 1_555
C33A H32A 1_555 1_555
H33A C33A 1_555 1_555
H34A C33A 1_555 1_555
C34A N6 1_555 1_555
C35A C34A 1_555 1_555
H35A C35A 1_555 1_555
H36A C35A 1_555 1_555
C36A C35A 1_555 1_555
H37A C36A 1_555 1_555
C37A C36A 1_555 1_555
H38A C37A 1_555 1_555
H39A C37A 1_555 1_555
H40A C37A 1_555 1_555
C38A H41A 1_555 1_555
H42A C38A 1_555 1_555
C39A C38A 1_555 1_555
H43A C39A 1_555 1_555
H44A C39A 1_555 1_555
N5A Ni2 1_555 1_555
H63A N5A 1_555 1_555
N6A Ni2 1_555 1_555
H64A N6A 1_555 1_555
Ni3A O4 1_555 1_555
C40A C41A 1_555 1_555
C41A C42A 1_555 1_555
C42A H45A 1_555 1_555
H46A C42A 1_555 1_555
C43A C42A 1_555 1_555
C44A C43A 1_555 1_555
H47A C44A 1_555 1_555
H48A C44A 1_555 1_555
H49A C44A 1_555 1_555
C45A C43A 1_555 1_555
H50A C45A 1_555 1_555
H51A C45A 1_555 1_555
H52A C45A 1_555 1_555
C46A H53A 1_555 1_555
H54A C46A 1_555 1_555
C47A C46A 1_555 1_555
H55A C47A 1_555 1_555
H56A C47A 1_555 1_555
C48A C49A 1_555 1_555
C49A C50A 1_555 1_555
C50A C51A 1_555 1_555
C51A C52A 1_555 1_555
C53A H57A 1_555 1_555
H58A C53A 1_555 1_555
C54A C53A 1_555 1_555
H59A C54A 1_555 1_555
H60A C54A 1_555 1_555
N7A Ni3A 1_555 1_555
H65A N7A 1_555 1_555
N8A Ni3A 1_555 1_555
H66A N8A 1_555 1_555
N9A Ni3A 1_555 1_555
H67A N9A 1_555 1_555
N10A Ni3A 1_555 1_555
H68A N10A 1_555 1_555
C55A C51A 1_555 1_555
Ni1_2 O1A 1_555 1_555
Ni2_2 O5A 1_555 1_555
Ni3_2 O4A 1_555 1_555
Ni3A_2 O7A 1_555 1_555
O1A_2 Ni1 1_555 1_555
O4A_2 Ni3 1_555 1_555
O5A_2 Ni2 1_555 1_555
O7A_2 Ni3A 1_555 1_555
C5 C6 1_555 1_555
C10 N1 1_555 1_555
C13 N2 1_555 1_555
C15 N2 1_555 1_555
C19 C20 1_555 1_555
C22 C23 1_555 1_555
C25 C26 1_555 1_555
C26 N4A 1_555 1_555
C28 N3 1_555 1_555
C30 N3 1_555 1_555
C31 N4 1_555 1_555
C33 C34 1_555 1_555
C34 N6A 1_555 1_555
C36 N5 1_555 1_555
C38 N5 1_555 1_555
C39 N6 1_555 1_555
C41 N7 1_555 1_555
C43 N8 1_555 1_555
C46 N8 1_555 1_555
C47 N9 1_555 1_555
C49 N9 1_555 1_555
C51 N10 1_555 1_555
C53 N10 1_555 1_555
C54 N7 1_555 1_555
C5A C6A 1_555 1_555
C10A N1A 1_555 1_555
C13A N2A 1_555 1_555
C15A N2A 1_555 1_555
C19A C20A 1_555 1_555
C22A C23A 1_555 1_555
C24A C26A 1_555 1_555
C25A C26A 1_555 1_555
C28A N3A 1_555 1_555
C30A N3A 1_555 1_555
C31A N4A 1_555 1_555
C32A C34A 1_555 1_555
C33A C34A 1_555 1_555
C36A N5A 1_555 1_555
C38A N5A 1_555 1_555
C39A N6A 1_555 1_555
C41A N7A 1_555 1_555
C43A N8A 1_555 1_555
C46A N8A 1_555 1_555
C47A N9A 1_555 1_555
C49A N9A 1_555 1_555
C51A N10A 1_555 1_555
C53A N10A 1_555 1_555
C54A N7A 1_555 1_555

#END
