
#######################################################################
#
#                 Cambridge Crystallographic Data Centre
#                                CCDC 
#
#######################################################################
#
# If this CIF has been generated from an entry in the Cambridge 
# Structural Database, then it will include bibliographic, chemical, 
# crystal, experimental, refinement or atomic coordinate data resulting 
# from the CCDC's data processing and validation procedures.
#
#######################################################################

data_BAFVAH
_chemical_formula_moiety         'C45 H27 Cu2 O23'
_symmetry_cell_setting           tetragonal
_symmetry_space_group_name_H-M   'I 4/m m m'
_symmetry_Int_Tables_number      139
_space_group_name_Hall           '-I 4 2'
loop_
_symmetry_equiv_pos_site_id
_symmetry_equiv_pos_as_xyz
1 x,y,z
2 -y,x,z
3 x,-y,-z
4 -x,-y,z
5 y,x,-z
6 y,-x,z
7 -x,y,-z
8 -y,-x,-z
9 1/2+x,1/2+y,1/2+z
10 1/2-y,1/2+x,1/2+z
11 1/2+x,1/2-y,1/2-z
12 1/2-x,1/2-y,1/2+z
13 1/2+y,1/2+x,1/2-z
14 1/2+y,1/2-x,1/2+z
15 1/2-x,1/2+y,1/2-z
16 1/2-y,1/2-x,1/2-z
17 -x,-y,-z
18 y,-x,-z
19 -x,y,z
20 x,y,-z
21 -y,-x,z
22 -y,x,-z
23 x,-y,z
24 y,x,z
25 1/2-x,1/2-y,1/2-z
26 1/2+y,1/2-x,1/2-z
27 1/2-x,1/2+y,1/2+z
28 1/2+x,1/2+y,1/2-z
29 1/2-y,1/2-x,1/2+z
30 1/2-y,1/2+x,1/2-z
31 1/2+x,1/2-y,1/2+z
32 1/2+y,1/2+x,1/2+z
_cell_length_a                   18.508(5)
_cell_length_b                   18.508(5)
_cell_length_c                   31.112(9)
_cell_angle_alpha                90
_cell_angle_beta                 90
_cell_angle_gamma                90
_cell_volume                     10657.3
loop_
_atom_site_label
_atom_site_type_symbol
_atom_site_fract_x
_atom_site_fract_y
_atom_site_fract_z
_atom_site_U_iso_or_equiv
_atom_site_thermal_displace_type
Cu1 Cu 0.78583(5) 0.21417(5) 0.78021(4) 0.0834 Uani
C1 C 0.5000 0.1471(7) 0.8670(3) 0.1033 Uani
C2 C 0.5640(5) 0.1673(5) 0.84881(19) 0.0987 Uani
H1 H 0.6084 0.1530 0.8616 0.1180 Uiso
O1 O 0.5000 0.1123(6) 0.9048(2) 0.1523 Uani
O2 O 0.6913(3) 0.2029(3) 0.80727(15) 0.1067 Uani
O3 O 0.6308(3) 0.2638(3) 0.75541(14) 0.0957 Uani
C3 C 0.6350(4) 0.2259(4) 0.7894(2) 0.0870 Uani
C4 C 0.5642(4) 0.2092(4) 0.81110(19) 0.0873 Uani
C5 C 0.5000 0.2281(6) 0.7926(3) 0.0860 Uani
H2 H 0.5000 0.2548 0.7665 0.1030 Uiso
O4 O 0.8608(15) 0.1707(15) 0.8275(3) 0.1607 Uani
C6 C 0.5459(5) 0.0656(6) 0.9211(4) 0.1057 Uani
H3 H 0.5951 0.0857 0.9248 0.1270 Uiso
H4 H 0.5484 0.0247 0.9006 0.1270 Uiso
C7 C 0.4645(5) 0.0654(7) 1.0000 0.0927 Uani
C8 C 0.5171(3) 0.0328(4) 0.9619(2) 0.0800 Uani
C9 C 0.4293(9) 0.1378(7) 1.0000 0.1277 Uani
H5 H 0.4558 0.1698 1.0200 0.1520 Uiso
H6 H 0.4333 0.1589 0.9709 0.1520 Uiso
O5 O 0.3547(9) 0.1365(10) 1.0122(5) 0.1283 Uani
C10 C 0.3275(14) 0.1937(12) 1.0350(5) 0.1820 Uiso
C11 C 0.2563(12) 0.1834(13) 1.0490(6) 0.1830 Uiso
H7 H 0.2317 0.1397 1.0424 0.2190 Uiso
C12 C 0.2215(12) 0.2369(14) 1.0725(7) 0.2600 Uiso
C13 C 0.2573(12) 0.2994(14) 1.0830(8) 0.2700 Uiso
H8 H 0.2334 0.3351 1.0997 0.3190 Uiso
C14 C 0.3272(14) 0.3112(13) 1.0698(8) 0.3700 Uiso
C15 C 0.3623(13) 0.2593(11) 1.0462(7) 0.3500 Uiso
H9 H 0.4107 0.2675 1.0372 0.4230 Uiso
C16 C 0.3598(17) 0.3809(14) 1.0829(12) 0.4000 Uiso
O6 O 0.380(4) 0.4107(17) 1.0503(14) 0.4500 Uiso
O7 O 0.359(3) 0.391(3) 1.1218(13) 0.4200 Uiso
C17 C 0.2266(12) 0.1454(16) 1.0877(6) 0.3800 Uiso
O8 O 0.2825(13) 0.1074(15) 1.0913(10) 0.1740 Uiso
O9 O 0.1627(16) 0.1270(17) 1.0955(8) 0.3700 Uiso
Cu1L Cu 0.71417(5) 0.28583(5) 0.71979(4) 0.0834 Uani
C2R C 0.4360(5) 0.1673(5) 0.84881(19) 0.0987 Uani
H1R H 0.3916 0.1530 0.8616 0.1180 Uiso
O2T O 0.7971(3) 0.3087(3) 0.80727(15) 0.1067 Uani
O2X O 0.8087(3) 0.2971(3) 0.69273(15) 0.1067 Uani
O2L O 0.7029(3) 0.1913(3) 0.69273(15) 0.1067 Uani
O3X O 0.8692(3) 0.2362(3) 0.74459(14) 0.0957 Uani
O3L O 0.7638(3) 0.1308(3) 0.74459(14) 0.0957 Uani
O3T O 0.7362(3) 0.3692(3) 0.75541(14) 0.0957 Uani
C3R C 0.3650(4) 0.2259(4) 0.7894(2) 0.0870 Uani
C4R C 0.4358(4) 0.2092(4) 0.81110(19) 0.0873 Uani
O4T O 0.8293(15) 0.1392(15) 0.8275(3) 0.1607 Uani
O4X O 0.6392(15) 0.3293(15) 0.6725(3) 0.1607 Uani
O4L O 0.6707(15) 0.3608(15) 0.6725(3) 0.1607 Uani
C6R C 0.4541(5) 0.0656(6) 0.9211(4) 0.1057 Uani
C6F C 0.4541(5) 0.0656(6) 1.0789(4) 0.1057 Uani
C6S C 0.5459(5) 0.0656(6) 1.0789(4) 0.1057 Uani
C6C C 0.4541(5) -0.0656(6) 0.9211(4) 0.1057 Uani
C6V C 0.5459(5) -0.0656(6) 0.9211(4) 0.1057 Uani
H3R H 0.4049 0.0857 0.9248 0.1270 Uiso
H3F H 0.4049 0.0857 1.0752 0.1270 Uiso
H3S H 0.5951 0.0857 1.0752 0.1270 Uiso
H3C H 0.4049 -0.0857 0.9248 0.1270 Uiso
H3V H 0.5951 -0.0857 0.9248 0.1270 Uiso
H4R H 0.4516 0.0247 0.9006 0.1270 Uiso
H4F H 0.4516 0.0247 1.0994 0.1270 Uiso
H4S H 0.5484 0.0247 1.0994 0.1270 Uiso
H4C H 0.4516 -0.0247 0.9006 0.1270 Uiso
H4V H 0.5484 -0.0247 0.9006 0.1270 Uiso
C7F C 0.5355(5) 0.0654(7) 1.0000 0.0927 Uani
C7B C 0.4645(5) -0.0654(7) 1.0000 0.0927 Uani
C7C C 0.5355(5) -0.0654(7) 1.0000 0.0927 Uani
C8F C 0.4829(3) 0.0328(4) 1.0381(2) 0.0800 Uani
C8S C 0.5171(3) 0.0328(4) 1.0381(2) 0.0800 Uani
C8R C 0.4829(3) 0.0328(4) 0.9619(2) 0.0800 Uani
C8C C 0.4829(3) -0.0328(4) 0.9619(2) 0.0800 Uani
C8V C 0.5171(3) -0.0328(4) 0.9619(2) 0.0800 Uani
C8B C 0.5171(3) -0.0328(4) 1.0381(2) 0.0800 Uani
C8P C 0.4829(3) -0.0328(4) 1.0381(2) 0.0800 Uani
C9F C 0.5707(9) 0.1378(7) 1.0000 0.1277 Uani
H5S H 0.4558 0.1698 0.9800 0.1520 Uiso
H6S H 0.4333 0.1589 1.0291 0.1520 Uiso
H6F H 0.5667 0.1589 1.0291 0.1520 Uiso
H6R H 0.5667 0.1589 0.9709 0.1520 Uiso
O5S O 0.3547(9) 0.1365(10) 0.9878(5) 0.1283 Uani
C10S C 0.3275(14) 0.1937(12) 0.9650(5) 0.1820 Uiso
C10W C 0.1937(12) 0.3275(14) 1.0350(5) 0.1820 Uiso
C11W C 0.1834(13) 0.2563(12) 1.0490(6) 0.1830 Uiso
H7W H 0.1397 0.2317 1.0424 0.2190 Uiso
C12W C 0.2369(14) 0.2215(12) 1.0725(7) 0.2600 Uiso
C13W C 0.2994(14) 0.2573(12) 1.0830(8) 0.2700 Uiso
H8W H 0.3351 0.2334 1.0997 0.3190 Uiso
C14W C 0.3112(13) 0.3272(14) 1.0698(8) 0.3700 Uiso
C15W C 0.2593(11) 0.3623(13) 1.0462(7) 0.3500 Uiso
H9W H 0.2675 0.4107 1.0372 0.4230 Uiso
C16W C 0.3809(14) 0.3598(17) 1.0829(12) 0.4000 Uiso
O6W O 0.4107(17) 0.380(4) 1.0503(14) 0.4500 Uiso
O7W O 0.391(3) 0.359(3) 1.1218(13) 0.4200 Uiso
C17W C 0.1454(16) 0.2266(12) 1.0877(6) 0.3800 Uiso
O8W O 0.1074(15) 0.2825(13) 1.0913(10) 0.1740 Uiso
O9W O 0.1270(17) 0.1627(16) 1.0955(8) 0.3700 Uiso
loop_
_atom_site_aniso_label
_atom_site_aniso_U_11
_atom_site_aniso_U_22
_atom_site_aniso_U_33
_atom_site_aniso_U_23
_atom_site_aniso_U_13
_atom_site_aniso_U_12
Cu1 0.0978(8) 0.0978(8) 0.0547(8) 0.0136(5) -0.0136(5) 0.0105(8)
C1 0.145 0.124 0.041 0.008 0 0
C2 0.111 0.134 0.051 0.005 -0.006 0.013
O1 0.249 0.156 0.052 0.023 0 0
O2 0.106 0.15 0.064 0.023 -0.008 0.015
O3 0.103 0.118 0.066 0.023 -0.008 0
C3 0.096 0.099 0.066 0.005 -0.008 -0.005
C4 0.102 0.108 0.052 0.004 -0.001 0.001
C5 0.107 0.095 0.056 0.006 0 0
O4 0.21(3) 0.18(2) 0.092(6) 0.035(9) -0.028(9) 0.09(3)
C6 0.104 0.143 0.07 0 0.027 -0.036
C7 0.097(14) 0.126(18) 0.055(10) 0.000 0.000 0.047(12)
C8 0.078 0.116 0.046 0.006 0.001 -0.008
C9 0.170(18) 0.14(2) 0.073(13) 0.000 0.000 0.016(19)
O5 0.162(17) 0.160(17) 0.063(15) -0.016(10) 0.001(10) 0.090(14)
Cu1L 0.0978 0.0978 0.0547 0.0136 -0.0136 0.0105
C2R 0.111 0.134 0.051 0.005 0.006 -0.013
O2T 0.15 0.106 0.064 0.008 -0.023 0.015
O2X 0.106 0.15 0.064 0.023 -0.008 0.015
O2L 0.15 0.106 0.064 0.008 -0.023 0.015
O3X 0.103 0.118 0.066 0.023 -0.008 0
O3L 0.118 0.103 0.066 0.008 -0.023 0
O3T 0.118 0.103 0.066 0.008 -0.023 0
C3R 0.096 0.099 0.066 0.005 0.008 0.005
C4R 0.102 0.108 0.052 0.004 0.001 -0.001
O4T 0.18 0.21 0.092 0.028 -0.035 0.09
O4X 0.21 0.18 0.092 0.035 -0.028 0.09
O4L 0.18 0.21 0.092 0.028 -0.035 0.09
C6R 0.104 0.143 0.07 0 -0.027 0.036
C6F 0.104 0.143 0.07 0 0.027 0.036
C6S 0.104 0.143 0.07 0 -0.027 -0.036
C6C 0.104 0.143 0.07 0 -0.027 -0.036
C6V 0.104 0.143 0.07 0 0.027 0.036
C7F 0.097 0.126 0.055 0 0 -0.047
C7B 0.097 0.126 0.055 0 0 -0.047
C7C 0.097 0.126 0.055 0 0 0.047
C8F 0.078(14) 0.116(10) 0.046(5) -0.006(5) 0.001(5) 0.008(6)
C8S 0.078 0.116 0.046 -0.006 -0.001 -0.008
C8R 0.078 0.116 0.046 0.006 -0.001 0.008
C8C 0.078 0.116 0.046 -0.006 -0.001 -0.008
C8V 0.078 0.116 0.046 -0.006 0.001 0.008
C8B 0.078 0.116 0.046 0.006 -0.001 0.008
C8P 0.078 0.116 0.046 0.006 0.001 -0.008
C9F 0.17 0.14 0.073 0 0 -0.016
O5S 0.162 0.16 0.063 0.016 -0.001 0.09
loop_
_geom_bond_atom_site_label_1
_geom_bond_atom_site_label_2
_geom_bond_site_symmetry_1
_geom_bond_site_symmetry_2
Cu1 O2 1_555 1_555
C1 C2 1_555 1_555
C2 H1 1_555 1_555
O1 C1 1_555 1_555
O2 C3 1_555 1_555
O3 C3 1_555 1_555
C3 C4 1_555 1_555
C4 C2 1_555 1_555
C5 C4 1_555 1_555
H2 C5 1_555 1_555
O4 Cu1 1_555 1_555
C6 O1 1_555 1_555
H3 C6 1_555 1_555
H4 C6 1_555 1_555
C7 C8 1_555 1_555
C8 C6 1_555 1_555
C9 C7 1_555 1_555
H5 C9 1_555 1_555
H6 C9 1_555 1_555
O5 C9 1_555 1_555
C10 O5 1_555 1_555
C11 C10 1_555 1_555
H7 C11 1_555 1_555
C12 C11 1_555 1_555
C13 C12 1_555 1_555
H8 C13 1_555 1_555
C14 C13 1_555 1_555
C15 C10 1_555 1_555
H9 C15 1_555 1_555
C16 C14 1_555 1_555
O6 C16 1_555 1_555
O7 C16 1_555 1_555
C17 C11 1_555 1_555
O8 C17 1_555 1_555
O9 C17 1_555 1_555
Cu1L Cu1 1_555 1_555
C2R C1 1_555 1_555
H1R C2R 1_555 1_555
O2T Cu1 1_555 1_555
O2X Cu1L 1_555 1_555
O2L Cu1L 1_555 1_555
O3X Cu1 1_555 1_555
O3L Cu1 1_555 1_555
O3T Cu1L 1_555 1_555
C3R C4R 1_555 1_555
C4R C5 1_555 1_555
O4T Cu1 1_555 1_555
O4X Cu1L 1_555 1_555
O4L Cu1L 1_555 1_555
C6R O1 1_555 1_555
C6F C6S 1_555 1_555
C6S H3S 1_555 1_555
C6C C6V 1_555 1_555
C6V H3V 1_555 1_555
H3R C6R 1_555 1_555
H3F C6F 1_555 1_555
H3C C6C 1_555 1_555
H4R C6R 1_555 1_555
H4F C6F 1_555 1_555
H4S C6S 1_555 1_555
H4C C6C 1_555 1_555
H4V C6V 1_555 1_555
C7F C7 1_555 1_555
C7B C7C 1_555 1_555
C7C C8C 1_555 1_555
C8F C7 1_555 1_555
C8S C7 1_555 1_555
C8R C7 1_555 1_555
C8C C8 1_555 1_555
C8V C8 1_555 1_555
C8B C7B 1_555 1_555
C8P C7B 1_555 1_555
C9F C7F 1_555 1_555
H5S C9 1_555 1_555
H6S C9 1_555 1_555
H6F C9F 1_555 1_555
H6R C9F 1_555 1_555
O5S C9 1_555 1_555
C10S O5S 1_555 1_555
C10W C11W 1_555 1_555
C11W C12 1_555 1_555
H7W C11W 1_555 1_555
C12W C11 1_555 1_555
C13W C12 1_555 1_555
H8W C13W 1_555 1_555
C14W C13 1_555 1_555
C15W C13 1_555 1_555
H9W C15W 1_555 1_555
C16W C14 1_555 1_555
O6W C16 1_555 1_555
O7W C16 1_555 1_555
C17W C12 1_555 1_555
O8W C17W 1_555 1_555
O9W O9 1_555 1_555
O3 Cu1L 1_555 1_555
O4 O4T 1_555 1_555
C6 C6R 1_555 1_555
C8 C7F 1_555 1_555
C8 C8R 1_555 1_555
H5 H6S 1_555 1_555
H6 H5S 1_555 1_555
O5 O5S 1_555 1_555
C12 C12W 1_555 1_555
C13 C12W 1_555 1_555
C13 C13W 1_555 1_555
C14 C15 1_555 1_555
C14 C13W 1_555 1_555
C14 C14W 1_555 1_555
C14 C15W 1_555 1_555
C15 C13W 1_555 1_555
C15 C14W 1_555 1_555
C16 C14W 1_555 1_555
C16 C16W 1_555 1_555
O6 C16W 1_555 1_555
O6 O6W 1_555 1_555
O7 C16W 1_555 1_555
O7 O7W 1_555 1_555
C17 C12W 1_555 1_555
C2R C4R 1_555 1_555
O4X O4L 1_555 1_555
C6R C8R 1_555 1_555
C6F C8F 1_555 1_555
C6S C8S 1_555 1_555
C6C C8C 1_555 1_555
C6V C8V 1_555 1_555
C7F C8F 1_555 1_555
C7F C8S 1_555 1_555
C7F C8R 1_555 1_555
C7B C8C 1_555 1_555
C7B C8V 1_555 1_555
C7C C8V 1_555 1_555
C7C C8B 1_555 1_555
C7C C8P 1_555 1_555
C8F C8S 1_555 1_555
C8F C8B 1_555 1_555
C8F C8P 1_555 1_555
C8S C8B 1_555 1_555
C8S C8P 1_555 1_555
C8R C8C 1_555 1_555
C8R C8V 1_555 1_555
C8C C8V 1_555 1_555
C8B C8P 1_555 1_555
C10W C15W 1_555 1_555
C11W C12W 1_555 1_555
C11W C17W 1_555 1_555
C12W C13W 1_555 1_555
C13W C14W 1_555 1_555
C14W C15W 1_555 1_555
C14W C16W 1_555 1_555
C16W O6W 1_555 1_555
C16W O7W 1_555 1_555
C17W O9W 1_555 1_555

#END
