
#######################################################################
#
#                 Cambridge Crystallographic Data Centre
#                                CCDC 
#
#######################################################################
#
# If this CIF has been generated from an entry in the Cambridge 
# Structural Database, then it will include bibliographic, chemical, 
# crystal, experimental, refinement or atomic coordinate data resulting 
# from the CCDC's data processing and validation procedures.
#
#######################################################################

data_CAJQIP
_chemical_formula_moiety         'C23 H17 Cu3 N3 O13'
_symmetry_cell_setting           orthorhombic
_symmetry_space_group_name_H-M   'F m m m'
_symmetry_Int_Tables_number      69
_space_group_name_Hall           '-F 2 2'
loop_
_symmetry_equiv_pos_site_id
_symmetry_equiv_pos_as_xyz
1 x,y,z
2 -x,-y,z
3 -x,y,-z
4 x,-y,-z
5 x,1/2+y,1/2+z
6 -x,1/2-y,1/2+z
7 -x,1/2+y,1/2-z
8 x,1/2-y,1/2-z
9 1/2+x,y,1/2+z
10 1/2-x,-y,1/2+z
11 1/2-x,y,1/2-z
12 1/2+x,-y,1/2-z
13 1/2+x,1/2+y,z
14 1/2-x,1/2-y,z
15 1/2-x,1/2+y,-z
16 1/2+x,1/2-y,-z
17 -x,-y,-z
18 x,y,-z
19 x,-y,z
20 -x,y,z
21 -x,1/2-y,1/2-z
22 x,1/2+y,1/2-z
23 x,1/2-y,1/2+z
24 -x,1/2+y,1/2+z
25 1/2-x,-y,1/2-z
26 1/2+x,y,1/2-z
27 1/2+x,-y,1/2+z
28 1/2-x,y,1/2+z
29 1/2-x,1/2-y,-z
30 1/2+x,1/2+y,-z
31 1/2+x,1/2-y,z
32 1/2-x,1/2+y,z
_cell_length_a                   22.751(8)
_cell_length_b                   28.318(10)
_cell_length_c                   57.36(2)
_cell_angle_alpha                90
_cell_angle_beta                 90
_cell_angle_gamma                90
_cell_volume                     36954.9
loop_
_atom_site_label
_atom_site_type_symbol
_atom_site_fract_x
_atom_site_fract_y
_atom_site_fract_z
_atom_site_U_iso_or_equiv
_atom_site_thermal_displace_type
Cu1 Cu 0.5000 0.21842(4) 0.23303(3) 0.0641 Uani
Cu2 Cu 0.29397(6) 0.5000 0.26528(3) 0.0821 Uani
O1 O 0.3695(3) 0.5000 0.28739(18) 0.0990 Uani
O2 O 0.4413(2) 0.25797(16) 0.21794(11) 0.0767 Uani
O3 O 0.4401(3) 0.18925(18) 0.25256(15) 0.0937 Uani
O4 O 0.3218(2) 0.44987(17) 0.24434(13) 0.0870 Uani
O5 O 0.2466(2) 0.45223(18) 0.21790(12) 0.0893 Uani
C1 C 0.4227(4) 0.2962(3) 0.2288(2) 0.0750 Uani
C2 C 0.2939(4) 0.4366(3) 0.2263(2) 0.0850 Uani
C3 C 0.3592(3) 0.3663(2) 0.22492(14) 0.0613 Uani
H1 H 0.3730 0.3746 0.2400 0.0740 Uiso
C4 C 0.3820(3) 0.3262(2) 0.21540(17) 0.0790 Uani
C5 C 0.3686(4) 0.3153(3) 0.19276(18) 0.0980 Uani
H2 H 0.3861 0.2886 0.1855 0.1170 Uiso
C6 C 0.3284(5) 0.3440(3) 0.1803(2) 0.1253 Uani
C7 C 0.3044(4) 0.3840(3) 0.19232(19) 0.1067 Uani
H3 H 0.2772 0.4038 0.1844 0.1280 Uiso
C8 C 0.3199(3) 0.3950(3) 0.21536(18) 0.0863 Uani
N1 N 0.3080(5) 0.3381(4) 0.1564(2) 0.1537 Uani
N2 N 0.3392(6) 0.3067(5) 0.1479(3) 0.2270 Uani
C9 C 0.3309(8) 0.2975(7) 0.1232(3) 0.2843 Uani
C10 C 0.3614(8) 0.2605(6) 0.1132(4) 0.3043 Uani
H4 H 0.3883 0.2416 0.1217 0.3670 Uiso
C11 C 0.3498(8) 0.2529(6) 0.0894(4) 0.3500 Uani
H5 H 0.3690 0.2271 0.0820 0.4160 Uiso
C12 C 0.3128(8) 0.2802(7) 0.0761(3) 0.3733 Uani
C13 C 0.2852(9) 0.3179(7) 0.0880(4) 0.3663 Uani
H6 H 0.2599 0.3381 0.0793 0.4380 Uiso
C14 C 0.2933(9) 0.3270(6) 0.1120(4) 0.3327 Uani
H7 H 0.2738 0.3522 0.1198 0.3990 Uiso
O6 O 0.3058(9) 0.2684(7) 0.0532(3) 0.4133 Uani
C15 C 0.2636(14) 0.3008(9) 0.0425(3) 0.4433 Uani
H8 H 0.2806 0.3324 0.0396 0.5320 Uiso
H9 H 0.2270 0.3038 0.0517 0.5320 Uiso
C16 C 0.2551(8) 0.2735(3) 0.02093(15) 0.4367 Uani
C17 C 0.2605(15) 0.2983(4) 0.0000 0.4333 Uani
H10 H 0.2676 0.3314 0.0000 0.5240 Uiso
O7 O 0.5000 0.1663(2) 0.20467(18) 0.1053 Uani
N3 N 0.5000 0.0979(6) 0.1837(4) 0.1030 Uiso
C18 C 0.5000 0.1268(6) 0.2040(4) 0.1310 Uiso
H11 H 0.5000 0.1108 0.2185 0.1570 Uiso
C19 C 0.5000 0.1251(7) 0.1629(3) 0.0860 Uiso
H12 H 0.5000 0.1588 0.1668 0.1290 Uiso
H13 H 0.4647 0.1178 0.1538 0.1290 Uiso
C20 C 0.5000 0.0500(6) 0.1870(5) 0.0950 Uiso
H14 H 0.5350 0.0408 0.1958 0.1420 Uiso
H15 H 0.5000 0.0341 0.1718 0.1420 Uiso
Cu2J Cu 0.20603(6) 0.5000 0.23472(3) 0.0821 Uani
O2S O 0.5587(2) 0.25797(16) 0.21794(11) 0.0767 Uani
O3S O 0.5599(3) 0.18925(18) 0.25256(15) 0.0937 Uani
O3G O 0.4401(3) 0.31075(18) 0.24744(15) 0.0937 Uani
O4R O 0.3218(2) 0.55013(17) 0.24434(13) 0.0870 Uani
O5J O 0.2534(2) 0.45223(18) 0.28210(12) 0.0893 Uani
O5X O 0.2534(2) 0.54777(18) 0.28210(12) 0.0893 Uani
C1G C 0.4227(4) 0.2038(3) 0.2712(2) 0.0750 Uani
C16M C 0.2449(8) 0.2265(3) 0.02093(15) 0.4367 Uani
C16Q C 0.2551(8) 0.2735(3) -0.02093(15) 0.4367 Uani
H13S H 0.5353 0.1178 0.1538 0.1290 Uiso
H14S H 0.4650 0.0408 0.1958 0.1420 Uiso
loop_
_atom_site_aniso_label
_atom_site_aniso_U_11
_atom_site_aniso_U_22
_atom_site_aniso_U_33
_atom_site_aniso_U_23
_atom_site_aniso_U_13
_atom_site_aniso_U_12
Cu1 0.0605(8) 0.0299(7) 0.1018(15) -0.0152(8) 0.000 0.000
Cu2 0.0639 0.0337 0.1486 0 -0.0327 0
O1 0.073 0.088 0.136 0 -0.038 0
O2 0.084(3) 0.050(3) 0.096(5) -0.012(3) 0.003(3) 0.005(3)
O3 0.107 0.058 0.116 -0.012 -0.008 -0.018
O4 0.074(4) 0.054(3) 0.133(6) 0.005(3) -0.012(3) 0.017(3)
O5 0.072(3) 0.072(3) 0.124(6) 0.007(3) -0.025(4) 0.017(3)
C1 0.071(4) 0.041(4) 0.113(6) -0.008(4) 0.012(4) 0.013(4)
C2 0.070(5) 0.051(4) 0.134(6) -0.006(4) -0.015(4) 0.006(4)
C3 0.062(5) 0.045(5) 0.077(8) 0.003(4) -0.007(5) 0.003(4)
C4 0.071(5) 0.041(4) 0.125(7) -0.021(4) 0.007(5) 0.005(3)
C5 0.088(5) 0.074(5) 0.132(7) -0.027(5) 0.000(5) 0.016(4)
C6 0.126(6) 0.105(5) 0.145(7) -0.010(5) -0.007(5) 0.020(5)
C7 0.103(5) 0.073(5) 0.144(7) 0.006(5) -0.007(6) 0.011(4)
C8 0.061(4) 0.047(4) 0.151(7) 0.001(4) -0.024(5) 0.001(4)
N1 0.159(7) 0.152(7) 0.150(8) -0.020(6) -0.006(6) 0.001(6)
N2 0.266(9) 0.217(9) 0.198(9) -0.024(7) 0.008(8) 0.028(7)
C9 0.38(2) 0.282(19) 0.191(13) -0.059(13) -0.014(15) 0.024(14)
C10 0.43(2) 0.276(19) 0.207(17) -0.068(15) 0.040(17) 0.007(15)
C11 0.49(3) 0.34(2) 0.220(19) -0.090(18) 0.00(2) 0.001(16)
C12 0.46(2) 0.40(2) 0.26(2) -0.031(18) -0.02(2) -0.034(17)
C13 0.45(3) 0.39(2) 0.259(19) -0.021(18) -0.09(2) 0.001(17)
C14 0.40(2) 0.34(2) 0.258(18) -0.018(17) -0.09(2) 0.022(15)
O6 0.51(2) 0.48(2) 0.25(2) -0.018(18) -0.020(17) -0.036(19)
C15 0.55(3) 0.52(3) 0.26(3) -0.01(2) -0.05(3) -0.03(2)
C16 0.51(3) 0.57(4) 0.23(3) -0.006(15) -0.01(2) -0.11(3)
C17 0.48(3) 0.57(4) 0.25(3) 0.000 0.000 -0.15(4)
O7 0.072(5) 0.037(4) 0.207(12) -0.052(5) 0.000 0.000
Cu2J 0.0639(9) 0.0337(8) 0.1486(19) 0.000 -0.0327(10) 0.000
O2S 0.084 0.05 0.096 -0.012 -0.003 -0.005
O3S 0.107 0.058 0.116 -0.012 0.008 0.018
O3G 0.107(4) 0.058(3) 0.116(6) -0.012(4) 0.008(4) 0.018(3)
O4R 0.074 0.054 0.133 -0.005 -0.012 -0.017
O5J 0.072 0.072 0.124 -0.007 -0.025 -0.017
O5X 0.072 0.072 0.124 0.007 -0.025 0.017
C1G 0.071 0.041 0.113 -0.008 -0.012 -0.013
C16M 0.51 0.57 0.23 0.006 0.01 -0.11
C16Q 0.51 0.57 0.23 0.006 0.01 -0.11
loop_
_geom_bond_atom_site_label_1
_geom_bond_atom_site_label_2
_geom_bond_site_symmetry_1
_geom_bond_site_symmetry_2
Cu1 O2 1_555 1_555
Cu2 O1 1_555 1_555
O2 C1 1_555 1_555
O3 Cu1 1_555 1_555
O4 Cu2 1_555 1_555
O5 C2 1_555 1_555
C1 C4 1_555 1_555
C2 O4 1_555 1_555
C3 H1 1_555 1_555
C4 C3 1_555 1_555
C5 C4 1_555 1_555
H2 C5 1_555 1_555
C6 C5 1_555 1_555
C7 C6 1_555 1_555
H3 C7 1_555 1_555
C8 C2 1_555 1_555
N1 C6 1_555 1_555
N2 N1 1_555 1_555
C9 N2 1_555 1_555
C10 C9 1_555 1_555
H4 C10 1_555 1_555
C11 C10 1_555 1_555
H5 C11 1_555 1_555
C12 C11 1_555 1_555
C13 C12 1_555 1_555
H6 C13 1_555 1_555
C14 C9 1_555 1_555
H7 C14 1_555 1_555
O6 C12 1_555 1_555
C15 O6 1_555 1_555
H8 C15 1_555 1_555
H9 C15 1_555 1_555
C16 C15 1_555 1_555
C17 C16 1_555 1_555
H10 C17 1_555 1_555
O7 Cu1 1_555 1_555
N3 C18 1_555 1_555
C18 O7 1_555 1_555
H11 C18 1_555 1_555
C19 N3 1_555 1_555
H12 C19 1_555 1_555
H13 C19 1_555 1_555
C20 N3 1_555 1_555
H14 C20 1_555 1_555
H15 C20 1_555 1_555
Cu2J O5 1_555 1_555
O2S Cu1 1_555 1_555
O3S Cu1 1_555 1_555
O3G C1 1_555 1_555
O4R Cu2 1_555 1_555
O5J Cu2 1_555 1_555
O5X Cu2 1_555 1_555
C1G O3 1_555 1_555
C16M C16 1_555 1_555
C16Q C17 1_555 1_555
H13S C19 1_555 1_555
H14S C20 1_555 1_555
C3 C8 1_555 1_555
C7 C8 1_555 1_555
C13 C14 1_555 1_555

#END
