
#######################################################################
#
#                 Cambridge Crystallographic Data Centre
#                                CCDC 
#
#######################################################################
#
# If this CIF has been generated from an entry in the Cambridge 
# Structural Database, then it will include bibliographic, chemical, 
# crystal, experimental, refinement or atomic coordinate data resulting 
# from the CCDC's data processing and validation procedures.
#
#######################################################################

data_CAJQEL
_chemical_formula_moiety         '(C42 H30 Cu4 O24)n'
_symmetry_cell_setting           orthorhombic
_symmetry_space_group_name_H-M   'F m m m'
_symmetry_Int_Tables_number      69
_space_group_name_Hall           '-F 2 2'
loop_
_symmetry_equiv_pos_site_id
_symmetry_equiv_pos_as_xyz
1 x,y,z
2 -x,-y,z
3 x,-y,-z
4 -x,y,-z
5 x,1/2+y,1/2+z
6 -x,1/2-y,1/2+z
7 x,1/2-y,1/2-z
8 -x,1/2+y,1/2-z
9 1/2+x,y,1/2+z
10 1/2-x,-y,1/2+z
11 1/2+x,-y,1/2-z
12 1/2-x,y,1/2-z
13 1/2+x,1/2+y,z
14 1/2-x,1/2-y,z
15 1/2+x,1/2-y,-z
16 1/2-x,1/2+y,-z
17 -x,-y,-z
18 x,y,-z
19 -x,y,z
20 x,-y,z
21 -x,1/2-y,1/2-z
22 x,1/2+y,1/2-z
23 -x,1/2+y,1/2+z
24 x,1/2-y,1/2+z
25 1/2-x,-y,1/2-z
26 1/2+x,y,1/2-z
27 1/2-x,y,1/2+z
28 1/2+x,-y,1/2+z
29 1/2-x,1/2-y,-z
30 1/2+x,1/2+y,-z
31 1/2-x,1/2+y,z
32 1/2+x,1/2-y,z
_cell_length_a                   25.042(4)
_cell_length_b                   26.826(4)
_cell_length_c                   30.848(5)
_cell_angle_alpha                90
_cell_angle_beta                 90
_cell_angle_gamma                90
_cell_volume                     20723
loop_
_atom_site_label
_atom_site_type_symbol
_atom_site_fract_x
_atom_site_fract_y
_atom_site_fract_z
_atom_site_U_iso_or_equiv
_atom_site_thermal_displace_type
Cu1 Cu 0.5000 0.78413(4) 0.28111(3) 0.0881 Uani
Cu2 Cu 0.71135(4) 0.5000 0.22028(3) 0.0942 Uani
C1 C 0.7061(2) 0.5672(2) 0.2902(2) 0.0897 Uani
C2 C 0.6797(2) 0.6115(2) 0.31098(18) 0.1017 Uani
O1 O 0.6482(2) 0.5000 0.1724(2) 0.1707 Uani
C3 C 0.7020(3) 0.6321(2) 0.35070(19) 0.1120 Uani
H1 H 0.7311 0.6161 0.3648 0.1340 Uiso
O2 O 0.68125(16) 0.55029(15) 0.25686(13) 0.1133 Uani
C4 C 0.6806(3) 0.6743(3) 0.36724(17) 0.1003 Uani
O3 O 0.55430(15) 0.74274(16) 0.30709(13) 0.1097 Uani
C5 C 0.6403(2) 0.6964(2) 0.34881(18) 0.1017 Uani
H2 H 0.6264 0.7259 0.3615 0.1220 Uiso
O4 O 0.74654(18) 0.55002(17) 0.30776(14) 0.1260 Uani
C6 C 0.6166(2) 0.6778(2) 0.31048(18) 0.1037 Uani
O5 O 0.5000 0.8410(3) 0.3307(2) 0.2047 Uani
C7 C 0.6371(2) 0.6358(2) 0.29195(19) 0.0920 Uani
H3 H 0.6220 0.6232 0.2659 0.1100 Uiso
O6 O 0.55480(14) 0.68501(15) 0.25462(12) 0.1103 Uani
O7 O 0.70545(19) 0.68997(19) 0.40504(14) 0.1323 Uani
C8 C 0.6914(3) 0.7362(3) 0.4203(2) 0.1240 Uani
H4 H 0.6527 0.7377 0.4266 0.1490 Uiso
H5 H 0.7004 0.7624 0.3990 0.1490 Uiso
C9 C 0.7232(2) 0.7427(2) 0.46098(17) 0.1080 Uani
C10 C 0.6977(3) 0.7355(4) 0.5000 0.1207 Uani
H6 H 0.6614 0.7252 0.5000 0.1450 Uiso
C11 C 0.5715(2) 0.7049(2) 0.28920(19) 0.0907 Uani
Cu1M Cu 1.0000 0.71587(4) 0.28111(3) 0.0881 Uani
Cu1F Cu 0.5000 0.71587(4) 0.21889(3) 0.0881 Uani
Cu1K Cu 1.0000 0.78413(4) 0.21889(3) 0.0881 Uani
Cu1N Cu 1.0000 0.71587(4) 0.71889(3) 0.0881 Uani
Cu1H Cu 1.0000 0.78413(4) 0.78111(3) 0.0881 Uani
Cu1C Cu 0.5000 0.78413(4) 0.71889(3) 0.0881 Uani
Cu1E Cu 0.5000 0.71587(4) 0.78111(3) 0.0881 Uani
Cu2M Cu 0.78865(4) 1.0000 0.22028(3) 0.0942 Uani
Cu2K Cu 0.78865(4) 0.5000 0.27972(3) 0.0942 Uani
Cu2F Cu 0.71135(4) 1.0000 0.27972(3) 0.0942 Uani
Cu2O Cu 0.78865(4) 1.0000 0.77972(3) 0.0942 Uani
Cu2D Cu 0.71135(4) 1.0000 0.72028(3) 0.0942 Uani
Cu2B Cu 0.71135(4) 0.5000 0.77972(3) 0.0942 Uani
Cu2I Cu 0.78865(4) 0.5000 0.72028(3) 0.0942 Uani
C1M C 0.7939(2) 0.9328(2) 0.2902(2) 0.0897 Uani
C1BA C 0.7939(2) 0.9328(2) 0.7098(2) 0.0897 Uani
C1Q C 0.7061(2) 0.5672(2) 0.7098(2) 0.0897 Uani
C2M C 0.8203(2) 0.8885(2) 0.31098(18) 0.1017 Uani
C2BA C 0.8203(2) 0.8885(2) 0.68902(18) 0.1017 Uani
C2Q C 0.6797(2) 0.6115(2) 0.68902(18) 0.1017 Uani
O1M O 0.8518(2) 1.0000 0.1724(2) 0.1707 Uani
C3M C 0.7980(3) 0.8679(2) 0.35070(19) 0.1120 Uani
C3BA C 0.7980(3) 0.8679(2) 0.64930(19) 0.1120 Uani
C3Q C 0.7020(3) 0.6321(2) 0.64930(19) 0.1120 Uani
H1M H 0.7689 0.8839 0.3648 0.1340 Uiso
H1BA H 0.7689 0.8839 0.6352 0.1340 Uiso
H1Q H 0.7311 0.6161 0.6352 0.1340 Uiso
O2M O 0.81875(16) 0.94971(15) 0.25686(13) 0.1133 Uani
O2BA O 0.81875(16) 0.94971(15) 0.74314(13) 0.1133 Uani
O2Q O 0.68125(16) 0.55029(15) 0.74314(13) 0.1133 Uani
O2S O 0.68125(16) 0.44971(15) 0.25686(13) 0.1133 Uani
O2DA O 0.81875(16) 1.05029(15) 0.25686(13) 0.1133 Uani
C4M C 0.8194(3) 0.8257(3) 0.36724(17) 0.1003 Uani
C4BA C 0.8194(3) 0.8257(3) 0.63276(17) 0.1003 Uani
C4Q C 0.6806(3) 0.6743(3) 0.63276(17) 0.1003 Uani
O3M O 0.94570(15) 0.75726(16) 0.30709(13) 0.1097 Uani
O3BA O 0.94570(15) 0.75726(16) 0.69291(13) 0.1097 Uani
O3Q O 0.55430(15) 0.74274(16) 0.69291(13) 0.1097 Uani
O3R O 0.44570(15) 0.74274(16) 0.30709(13) 0.1097 Uani
O3EA O 1.05430(15) 0.75726(16) 0.30709(13) 0.1097 Uani
C5M C 0.8597(2) 0.8036(2) 0.34881(18) 0.1017 Uani
C5BA C 0.8597(2) 0.8036(2) 0.65119(18) 0.1017 Uani
C5Q C 0.6403(2) 0.6964(2) 0.65119(18) 0.1017 Uani
H2M H 0.8736 0.7741 0.3615 0.1220 Uiso
H2BA H 0.8736 0.7741 0.6385 0.1220 Uiso
H2Q H 0.6264 0.7259 0.6385 0.1220 Uiso
O4M O 0.75346(18) 0.94998(17) 0.30776(14) 0.1260 Uani
O4BA O 0.75346(18) 0.94998(17) 0.69224(14) 0.1260 Uani
O4Q O 0.74654(18) 0.55002(17) 0.69224(14) 0.1260 Uani
O4K O 0.75346(18) 0.55002(17) 0.19224(14) 0.1260 Uani
O4X O 0.75346(18) 0.44998(17) 0.19224(14) 0.1260 Uani
O4F O 0.74654(18) 0.94998(17) 0.19224(14) 0.1260 Uani
O4U O 0.74654(18) 1.05002(17) 0.19224(14) 0.1260 Uani
C6M C 0.8834(2) 0.8222(2) 0.31048(18) 0.1037 Uani
C6BA C 0.8834(2) 0.8222(2) 0.68952(18) 0.1037 Uani
C6Q C 0.6166(2) 0.6778(2) 0.68952(18) 0.1037 Uani
O5M O 1.0000 0.6590(3) 0.3307(2) 0.2047 Uani
C7M C 0.8629(2) 0.8642(2) 0.29195(19) 0.0920 Uani
C7BA C 0.8629(2) 0.8642(2) 0.70805(19) 0.0920 Uani
C7Q C 0.6371(2) 0.6358(2) 0.70805(19) 0.0920 Uani
H3M H 0.8780 0.8768 0.2659 0.1100 Uiso
H3BA H 0.8780 0.8768 0.7341 0.1100 Uiso
H3Q H 0.6220 0.6232 0.7341 0.1100 Uiso
O6M O 0.94520(14) 0.81499(15) 0.25462(12) 0.1103 Uani
O6BA O 0.94520(14) 0.81499(15) 0.74538(12) 0.1103 Uani
O6Q O 0.55480(14) 0.68501(15) 0.74538(12) 0.1103 Uani
O6F O 0.55480(14) 0.81499(15) 0.24538(12) 0.1103 Uani
O6T O 0.44520(14) 0.81499(15) 0.24538(12) 0.1103 Uani
O6K O 0.94520(14) 0.68501(15) 0.24538(12) 0.1103 Uani
O6Y O 1.05480(14) 0.68501(15) 0.24538(12) 0.1103 Uani
O7M O 0.79455(19) 0.81003(19) 0.40504(14) 0.1323 Uani
O7BA O 0.79455(19) 0.81003(19) 0.59496(14) 0.1323 Uani
O7Q O 0.70545(19) 0.68997(19) 0.59496(14) 0.1323 Uani
C8M C 0.8086(3) 0.7638(3) 0.4203(2) 0.1240 Uani
C8BA C 0.8086(3) 0.7638(3) 0.5797(2) 0.1240 Uani
C8Q C 0.6914(3) 0.7362(3) 0.5797(2) 0.1240 Uani
H4M H 0.8473 0.7623 0.4266 0.1490 Uiso
H4BA H 0.8473 0.7623 0.5734 0.1490 Uiso
H4Q H 0.6527 0.7377 0.5734 0.1490 Uiso
H5M H 0.7996 0.7376 0.3990 0.1490 Uiso
H5BA H 0.7996 0.7376 0.6010 0.1490 Uiso
H5Q H 0.7004 0.7624 0.6010 0.1490 Uiso
C9M C 0.7768(2) 0.7573(2) 0.46098(17) 0.1080 Uani
C9BA C 0.7768(2) 0.7573(2) 0.53902(17) 0.1080 Uani
C9Q C 0.7232(2) 0.7427(2) 0.53902(17) 0.1080 Uani
C10M C 0.8023(3) 0.7645(4) 0.5000 0.1207 Uani
H6M H 0.8386 0.7748 0.5000 0.1450 Uiso
C11M C 0.9285(2) 0.7951(2) 0.28920(19) 0.0907 Uani
C11BA C 0.9285(2) 0.7951(2) 0.71080(19) 0.0907 Uani
C11Q C 0.5715(2) 0.7049(2) 0.71080(19) 0.0907 Uani
loop_
_atom_site_aniso_label
_atom_site_aniso_U_11
_atom_site_aniso_U_22
_atom_site_aniso_U_33
_atom_site_aniso_U_23
_atom_site_aniso_U_13
_atom_site_aniso_U_12
Cu1 0.0777(8) 0.1276(10) 0.0589(7) -0.0303(5) 0.000 0.000
Cu2 0.0968 0.1135 0.0724 0 -0.0303 0
C1 0.097(4) 0.086(4) 0.086(4) 0.006(3) -0.010(4) 0.009(3)
C2 0.105(4) 0.116(5) 0.084(4) -0.005(4) -0.006(3) 0.007(4)
O1 0.118 0.285 0.109 0 -0.059 0
C3 0.126(5) 0.133(5) 0.077(4) -0.002(4) -0.021(4) 0.010(4)
O2 0.118(3) 0.131(3) 0.091(3) -0.008(2) -0.035(2) 0.010(2)
C4 0.101(4) 0.133(5) 0.067(4) -0.018(3) -0.023(3) 0.019(4)
O3 0.115(3) 0.135(3) 0.079(3) -0.034(2) -0.018(2) 0.011(2)
C5 0.093(4) 0.142(5) 0.070(4) -0.024(3) -0.010(3) 0.007(4)
O4 0.123(3) 0.166(4) 0.089(3) -0.006(3) -0.046(2) 0.015(3)
C6 0.100(4) 0.140(5) 0.071(4) -0.019(4) -0.004(3) 0.011(4)
O5 0.382(13) 0.159(6) 0.073(4) -0.046(4) 0.000 0.000
C7 0.085(4) 0.115(5) 0.076(3) -0.013(3) -0.018(3) 0.011(3)
O6 0.097(3) 0.153(4) 0.081(3) -0.030(2) -0.009(2) 0.019(2)
O7 0.150(4) 0.169(4) 0.078(3) -0.023(3) -0.023(3) 0.022(3)
C8 0.117(5) 0.169(6) 0.086(4) -0.011(4) -0.015(4) 0.026(5)
C9 0.123(5) 0.154(5) 0.047(3) -0.009(3) -0.008(3) 0.012(5)
C10 0.093(6) 0.197(9) 0.072(6) 0.000 0.000 -0.028(6)
C11 0.076(4) 0.121(4) 0.075(4) -0.032(3) -0.017(3) 0.012(3)
Cu1M 0.0777 0.1276 0.0589 0.0303 0 0
Cu1F 0.0777 0.1276 0.0589 -0.0303 0 0
Cu1K 0.0777 0.1276 0.0589 0.0303 0 0
Cu1N 0.0777 0.1276 0.0589 -0.0303 0 0
Cu1H 0.0777 0.1276 0.0589 -0.0303 0 0
Cu1C 0.0777 0.1276 0.0589 0.0303 0 0
Cu1E 0.0777 0.1276 0.0589 0.0303 0 0
Cu2M 0.0968 0.1135 0.0724 0 0.0303 0
Cu2K 0.0968(9) 0.1135(9) 0.0724(8) 0.000 -0.0303(5) 0.000
Cu2F 0.0968 0.1135 0.0724 0 0.0303 0
Cu2O 0.0968 0.1135 0.0724 0 -0.0303 0
Cu2D 0.0968 0.1135 0.0724 0 -0.0303 0
Cu2B 0.0968 0.1135 0.0724 0 0.0303 0
Cu2I 0.0968 0.1135 0.0724 0 0.0303 0
C1M 0.097 0.086 0.086 -0.006 0.01 0.009
C1BA 0.097 0.086 0.086 0.006 -0.01 0.009
C1Q 0.097 0.086 0.086 -0.006 0.01 0.009
C2M 0.105 0.116 0.084 0.005 0.006 0.007
C2BA 0.105 0.116 0.084 -0.005 -0.006 0.007
C2Q 0.105 0.116 0.084 0.005 0.006 0.007
O1M 0.118 0.285 0.109 0 0.059 0
C3M 0.126 0.133 0.077 0.002 0.021 0.01
C3BA 0.126 0.133 0.077 -0.002 -0.021 0.01
C3Q 0.126 0.133 0.077 0.002 0.021 0.01
O2M 0.118 0.131 0.091 0.008 0.035 0.01
O2BA 0.118 0.131 0.091 -0.008 -0.035 0.01
O2Q 0.118 0.131 0.091 0.008 0.035 0.01
O2S 0.118 0.131 0.091 0.008 -0.035 -0.01
O2DA 0.118 0.131 0.091 -0.008 0.035 -0.01
C4M 0.101 0.133 0.067 0.018 0.023 0.019
C4BA 0.101 0.133 0.067 -0.018 -0.023 0.019
C4Q 0.101 0.133 0.067 0.018 0.023 0.019
O3M 0.115 0.135 0.079 0.034 0.018 0.011
O3BA 0.115 0.135 0.079 -0.034 -0.018 0.011
O3Q 0.115 0.135 0.079 0.034 0.018 0.011
O3R 0.115 0.135 0.079 -0.034 0.018 -0.011
O3EA 0.115 0.135 0.079 0.034 -0.018 -0.011
C5M 0.093 0.142 0.07 0.024 0.01 0.007
C5BA 0.093 0.142 0.07 -0.024 -0.01 0.007
C5Q 0.093 0.142 0.07 0.024 0.01 0.007
O4M 0.123 0.166 0.089 0.006 0.046 0.015
O4BA 0.123 0.166 0.089 -0.006 -0.046 0.015
O4Q 0.123 0.166 0.089 0.006 0.046 0.015
O4K 0.123 0.166 0.089 0.006 -0.046 -0.015
O4X 0.123 0.166 0.089 -0.006 -0.046 0.015
O4F 0.123 0.166 0.089 -0.006 0.046 -0.015
O4U 0.123 0.166 0.089 0.006 0.046 0.015
C6M 0.1 0.14 0.071 0.019 0.004 0.011
C6BA 0.1 0.14 0.071 -0.019 -0.004 0.011
C6Q 0.1 0.14 0.071 0.019 0.004 0.011
O5M 0.382 0.159 0.073 0.046 0 0
C7M 0.085 0.115 0.076 0.013 0.018 0.011
C7BA 0.085 0.115 0.076 -0.013 -0.018 0.011
C7Q 0.085 0.115 0.076 0.013 0.018 0.011
O6M 0.097 0.153 0.081 0.03 0.009 0.019
O6BA 0.097 0.153 0.081 -0.03 -0.009 0.019
O6Q 0.097 0.153 0.081 0.03 0.009 0.019
O6F 0.097 0.153 0.081 -0.03 0.009 -0.019
O6T 0.097 0.153 0.081 -0.03 -0.009 0.019
O6K 0.097 0.153 0.081 0.03 -0.009 -0.019
O6Y 0.097 0.153 0.081 0.03 0.009 0.019
O7M 0.15 0.169 0.078 0.023 0.023 0.022
O7BA 0.15 0.169 0.078 -0.023 -0.023 0.022
O7Q 0.15 0.169 0.078 0.023 0.023 0.022
C8M 0.117 0.169 0.086 0.011 0.015 0.026
C8BA 0.117 0.169 0.086 -0.011 -0.015 0.026
C8Q 0.117 0.169 0.086 0.011 0.015 0.026
C9M 0.123 0.154 0.047 0.009 0.008 0.012
C9BA 0.123 0.154 0.047 -0.009 -0.008 0.012
C9Q 0.123 0.154 0.047 0.009 0.008 0.012
C10M 0.093 0.197 0.072 0 0 -0.028
C11M 0.076 0.121 0.075 0.032 0.017 0.012
C11BA 0.076 0.121 0.075 -0.032 -0.017 0.012
C11Q 0.076 0.121 0.075 0.032 0.017 0.012
loop_
_geom_bond_atom_site_label_1
_geom_bond_atom_site_label_2
_geom_bond_site_symmetry_1
_geom_bond_site_symmetry_2
Cu1 O3 1_555 1_555
Cu2 O1 1_555 1_555
C1 C2 1_555 1_555
C2 C3 1_555 1_555
C3 H1 1_555 1_555
O2 Cu2 1_555 1_555
C4 C3 1_555 1_555
O3 C11 1_555 1_555
C5 C4 1_555 1_555
H2 C5 1_555 1_555
O4 C1 1_555 1_555
C6 C5 1_555 1_555
O5 Cu1 1_555 1_555
C7 C2 1_555 1_555
H3 C7 1_555 1_555
O6 C11 1_555 1_555
O7 C4 1_555 1_555
C8 O7 1_555 1_555
H4 C8 1_555 1_555
H5 C8 1_555 1_555
C9 C8 1_555 1_555
C10 C9 1_555 1_555
H6 C10 1_555 1_555
C11 C6 1_555 1_555
Cu1M O3M 1_555 1_555
Cu1F O6 1_555 1_555
Cu1K O6M 1_555 1_555
Cu1N O3BA 1_555 1_555
Cu1H O6BA 1_555 1_555
Cu1C O3Q 1_555 1_555
Cu1E O6Q 1_555 1_555
Cu2M O1M 1_555 1_555
Cu2K O4 1_555 1_555
Cu2F O4M 1_555 1_555
Cu2O O2BA 1_555 1_555
Cu2D O4BA 1_555 1_555
Cu2B O2Q 1_555 1_555
Cu2I O4Q 1_555 1_555
C1M C2M 1_555 1_555
C1BA C2BA 1_555 1_555
C1Q C2Q 1_555 1_555
C2M C3M 1_555 1_555
C2BA C3BA 1_555 1_555
C2Q C3Q 1_555 1_555
C3M H1M 1_555 1_555
C3BA H1BA 1_555 1_555
C3Q H1Q 1_555 1_555
O2M Cu2M 1_555 1_555
O2BA C1BA 1_555 1_555
O2Q C1Q 1_555 1_555
O2S Cu2 1_555 1_555
O2DA Cu2M 1_555 1_555
C4M C3M 1_555 1_555
C4BA C3BA 1_555 1_555
C4Q C3Q 1_555 1_555
O3M C11M 1_555 1_555
O3BA C11BA 1_555 1_555
O3Q C11Q 1_555 1_555
O3R Cu1 1_555 1_555
O3EA Cu1M 1_555 1_555
C5M C4M 1_555 1_555
C5BA C4BA 1_555 1_555
C5Q C4Q 1_555 1_555
H2M C5M 1_555 1_555
H2BA C5BA 1_555 1_555
H2Q C5Q 1_555 1_555
O4M C1M 1_555 1_555
O4BA C1BA 1_555 1_555
O4Q C1Q 1_555 1_555
O4K Cu2 1_555 1_555
O4X Cu2 1_555 1_555
O4F Cu2M 1_555 1_555
O4U Cu2M 1_555 1_555
C6M C5M 1_555 1_555
C6BA C5BA 1_555 1_555
C6Q C5Q 1_555 1_555
O5M Cu1M 1_555 1_555
C7M C2M 1_555 1_555
C7BA C2BA 1_555 1_555
C7Q C2Q 1_555 1_555
H3M C7M 1_555 1_555
H3BA C7BA 1_555 1_555
H3Q C7Q 1_555 1_555
O6M C11M 1_555 1_555
O6BA C11BA 1_555 1_555
O6Q C11Q 1_555 1_555
O6F Cu1 1_555 1_555
O6T Cu1 1_555 1_555
O6K Cu1M 1_555 1_555
O6Y Cu1M 1_555 1_555
O7M C4M 1_555 1_555
O7BA C4BA 1_555 1_555
O7Q C4Q 1_555 1_555
C8M O7M 1_555 1_555
C8BA O7BA 1_555 1_555
C8Q O7Q 1_555 1_555
H4M C8M 1_555 1_555
H4BA C8BA 1_555 1_555
H4Q C8Q 1_555 1_555
H5M C8M 1_555 1_555
H5BA C8BA 1_555 1_555
H5Q C8Q 1_555 1_555
C9M C9 1_555 1_555
C9BA C8BA 1_555 1_555
C9Q C10 1_555 1_555
C10M C9M 1_555 1_555
H6M C10M 1_555 1_555
C11M C6M 1_555 1_555
C11BA C6BA 1_555 1_555
C11Q C6Q 1_555 1_555
C1 O2 1_555 1_555
C6 C7 1_555 1_555
C1M O2M 1_555 1_555
C6M C7M 1_555 1_555
C6BA C7BA 1_555 1_555
C6Q C7Q 1_555 1_555
C8M C9M 1_555 1_555
C8Q C9Q 1_555 1_555
C9BA C9Q 1_555 1_555
C9BA C10M 1_555 1_555

#END
