
#######################################################################
#
#                 Cambridge Crystallographic Data Centre
#                                CCDC 
#
#######################################################################
#
# If this CIF has been generated from an entry in the Cambridge 
# Structural Database, then it will include bibliographic, chemical, 
# crystal, experimental, refinement or atomic coordinate data resulting 
# from the CCDC's data processing and validation procedures.
#
#######################################################################

data_CUKXAJ
_chemical_formula_moiety         '(C20 H6 Cd3 O17 2-)n'
_symmetry_cell_setting           orthorhombic
_symmetry_space_group_name_H-M   'I b a m'
_symmetry_Int_Tables_number      72
_space_group_name_Hall           '-I 2 2c'
loop_
_symmetry_equiv_pos_site_id
_symmetry_equiv_pos_as_xyz
1 x,y,z
2 -x,-y,z
3 1/2-x,1/2+y,-z
4 1/2+x,1/2-y,-z
5 1/2+x,1/2+y,1/2+z
6 1/2-x,1/2-y,1/2+z
7 -x,y,1/2-z
8 x,-y,1/2-z
9 -x,-y,-z
10 x,y,-z
11 1/2+x,1/2-y,z
12 1/2-x,1/2+y,z
13 1/2-x,1/2-y,1/2-z
14 1/2+x,1/2+y,1/2-z
15 x,-y,1/2+z
16 -x,y,1/2+z
_cell_length_a                   20.745(2)
_cell_length_b                   8.3255(8)
_cell_length_c                   17.3435(17)
_cell_angle_alpha                90
_cell_angle_beta                 90
_cell_angle_gamma                90
_cell_volume                     2995.44
loop_
_atom_site_label
_atom_site_type_symbol
_atom_site_fract_x
_atom_site_fract_y
_atom_site_fract_z
O5 O 0.3809(8) 0.6785(17) 0.5000
C1 C 0.41090(18) 0.1013(5) 0.3599(2)
C2 C 0.4032(2) 0.1171(7) 0.5000
H1 H 0.4399 0.0530 0.5000
C3 C 0.37649(17) 0.1638(4) 0.4298(2)
C4 C 0.32246(16) 0.2652(4) 0.4296(2)
C5 C 0.2974(2) 0.3169(6) 0.5000
H2 H 0.2628 0.3881 0.5000
C6 C 0.29444(16) 0.3232(4) 0.3546(2)
Cd1 Cd 0.5000 0.0000 0.2500
Cd2 Cd 0.202495(18) 0.5000 0.2500
O1 O 0.46004(12) 0.1757(4) 0.33823(16)
O2 O 0.39283(12) -0.0308(3) 0.33070(19)
O3 O 0.31363(12) 0.2616(3) 0.29301(14)
O4 O 0.25446(15) 0.4353(4) 0.35786(15)
C1I C 0.41090(18) 0.1013(5) 0.6401(2)
C3I C 0.37649(17) 0.1638(4) 0.5702(2)
C4I C 0.32246(16) 0.2652(4) 0.5704(2)
C6I C 0.29444(16) 0.3232(4) 0.6454(2)
O1I O 0.46004(12) 0.1757(4) 0.66177(16)
O2I O 0.39283(12) -0.0308(3) 0.66930(19)
O3I O 0.31363(12) 0.2616(3) 0.70699(14)
O4I O 0.25446(15) 0.4353(4) 0.64214(15)
C1A C 0.58910(18) -0.1013(5) 0.3599(2)
C2A C 0.5968(2) -0.1171(7) 0.5000
H1A H 0.5601 -0.0530 0.5000
C3A C 0.62351(17) -0.1638(4) 0.4298(2)
C4A C 0.67754(16) -0.2652(4) 0.4296(2)
C5A C 0.7026(2) -0.3169(6) 0.5000
H2A H 0.7372 -0.3881 0.5000
C6A C 0.70556(16) -0.3232(4) 0.3546(2)
O1A O 0.53996(12) -0.1757(4) 0.33823(16)
O2A O 0.60717(12) 0.0308(3) 0.33070(19)
O3A O 0.68637(12) -0.2616(3) 0.29301(14)
O4A O 0.74554(15) -0.4353(4) 0.35786(15)
C1H C 0.58910(18) -0.1013(5) 0.6401(2)
C3H C 0.62351(17) -0.1638(4) 0.5702(2)
C4H C 0.67754(16) -0.2652(4) 0.5704(2)
C6H C 0.70556(16) -0.3232(4) 0.6454(2)
O1H O 0.53996(12) -0.1757(4) 0.66177(16)
O2H O 0.60717(12) 0.0308(3) 0.66930(19)
O3H O 0.68637(12) -0.2616(3) 0.70699(14)
O4H O 0.74554(15) -0.4353(4) 0.64214(15)
Cd2K Cd 0.297505(18) 0.0000 0.2500
Cd1H Cd 0.5000 0.0000 0.7500
Cd2A Cd 0.797505(18) -0.5000 0.2500
Cd2B Cd 0.297505(18) 0.0000 0.7500
Cd2C Cd 0.702495(18) 0.0000 0.7500
Cd2H Cd 0.797505(18) -0.5000 0.7500
Cd2I Cd 0.202495(18) 0.5000 0.7500
Cd2J Cd 0.702495(18) 0.0000 0.2500
O1F O 0.53996(12) 0.1757(4) 0.16177(16)
O1G O 0.46004(12) -0.1757(4) 0.16177(16)
O2F O 0.60717(12) -0.0308(3) 0.16930(19)
O2G O 0.39283(12) 0.0308(3) 0.16930(19)
O2K O 0.10717(12) 0.4692(3) 0.33070(19)
O2L O 0.10717(12) 0.5308(3) 0.16930(19)
O3G O 0.31363(12) -0.2616(3) 0.20699(14)
O3K O 0.18637(12) 0.7616(3) 0.29301(14)
O3L O 0.18637(12) 0.2384(3) 0.20699(14)
O4G O 0.25446(15) 0.5647(4) 0.14214(15)
O4K O 0.24554(15) -0.0647(4) 0.35786(15)
O4L O 0.24554(15) 0.0647(4) 0.14214(15)
loop_
_geom_bond_atom_site_label_1
_geom_bond_atom_site_label_2
_geom_bond_site_symmetry_1
_geom_bond_site_symmetry_2
C1 C3 1_555 1_555
C2 H1 1_555 1_555
C3 C2 1_555 1_555
C4 C3 1_555 1_555
C5 C4 1_555 1_555
H2 C5 1_555 1_555
C6 C4 1_555 1_555
Cd1 O1 1_555 1_555
Cd2 O4 1_555 1_555
O1 C1 1_555 1_555
O2 C1 1_555 1_555
O3 C6 1_555 1_555
O4 C6 1_555 1_555
C1I C3I 1_555 1_555
C3I C2 1_555 1_555
C4I C5 1_555 1_555
C6I C4I 1_555 1_555
O1I C1I 1_555 1_555
O2I C1I 1_555 1_555
O3I C6I 1_555 1_555
O4I C6I 1_555 1_555
C1A C3A 1_555 1_555
C2A H1A 1_555 1_555
C3A C2A 1_555 1_555
C4A C3A 1_555 1_555
C5A C4A 1_555 1_555
H2A C5A 1_555 1_555
C6A C4A 1_555 1_555
O1A Cd1 1_555 1_555
O2A Cd1 1_555 1_555
O3A C6A 1_555 1_555
O4A C6A 1_555 1_555
C1H C3H 1_555 1_555
C3H C2A 1_555 1_555
C4H C5A 1_555 1_555
C6H C4H 1_555 1_555
O1H C1H 1_555 1_555
O2H C1H 1_555 1_555
O3H C6H 1_555 1_555
O4H C6H 1_555 1_555
Cd2K O2 1_555 1_555
Cd1H O1I 1_555 1_555
Cd2A O4A 1_555 1_555
Cd2B O2I 1_555 1_555
Cd2C O2H 1_555 1_555
Cd2H O4H 1_555 1_555
Cd2I O4I 1_555 1_555
Cd2J O2A 1_555 1_555
O1F Cd1 1_555 1_555
O1G Cd1 1_555 1_555
O2F Cd1 1_555 1_555
O2G Cd1 1_555 1_555
O2K Cd2 1_555 1_555
O2L Cd2 1_555 1_555
O3G Cd2K 1_555 1_555
O3K Cd2 1_555 1_555
O3L Cd2 1_555 1_555
O4G Cd2 1_555 1_555
O4K Cd2K 1_555 1_555
O4L Cd2K 1_555 1_555
Cd1 O2 1_555 1_555
O3 Cd2K 1_555 1_555
C3I C4I 1_555 1_555
O2I Cd1H 1_555 1_555
O3I Cd2B 1_555 1_555
C1A O1A 1_555 1_555
C1A O2A 1_555 1_555
O3A Cd2J 1_555 1_555
C3H C4H 1_555 1_555
O1H Cd1H 1_555 1_555
O2H Cd1H 1_555 1_555
O3H Cd2C 1_555 1_555
Cd2K O2G 1_555 1_555
Cd2J O2F 1_555 1_555

#END
