
#######################################################################
#
#                 Cambridge Crystallographic Data Centre
#                                CCDC 
#
#######################################################################
#
# If this CIF has been generated from an entry in the Cambridge 
# Structural Database, then it will include bibliographic, chemical, 
# crystal, experimental, refinement or atomic coordinate data resulting 
# from the CCDC's data processing and validation procedures.
#
#######################################################################

data_HAZGOF12
_chemical_formula_moiety         '(C24 H12 O12 Sc2)n'
_symmetry_cell_setting           orthorhombic
_symmetry_space_group_name_H-M   'F d d d'
_symmetry_Int_Tables_number      70
_space_group_name_Hall           '-F 2uv 2vw'
loop_
_symmetry_equiv_pos_site_id
_symmetry_equiv_pos_as_xyz
1 x,y,z
2 x,1/2+y,1/2+z
3 1/2+x,y,1/2+z
4 1/2+x,1/2+y,z
5 x,1/4-y,1/4-z
6 x,3/4-y,3/4-z
7 1/2+x,1/4-y,3/4-z
8 1/2+x,3/4-y,1/4-z
9 1/4-x,y,1/4-z
10 1/4-x,1/2+y,3/4-z
11 3/4-x,y,3/4-z
12 3/4-x,1/2+y,1/4-z
13 1/4-x,3/4-y,1/2+z
14 1/4-x,1/4-y,z
15 3/4-x,3/4-y,z
16 3/4-x,1/4-y,1/2+z
17 -x,-y,-z
18 -x,1/2-y,1/2-z
19 1/2-x,-y,1/2-z
20 1/2-x,1/2-y,-z
21 -x,3/4+y,3/4+z
22 -x,1/4+y,1/4+z
23 1/2-x,3/4+y,1/4+z
24 1/2-x,1/4+y,3/4+z
25 3/4+x,-y,3/4+z
26 3/4+x,1/2-y,1/4+z
27 1/4+x,-y,1/4+z
28 1/4+x,1/2-y,3/4+z
29 3/4+x,1/4+y,1/2-z
30 3/4+x,3/4+y,-z
31 1/4+x,1/4+y,-z
32 1/4+x,3/4+y,1/2-z
_cell_length_a                   8.744(3)
_cell_length_b                   20.762(6)
_cell_length_c                   34.408(11)
_cell_angle_alpha                90
_cell_angle_beta                 90
_cell_angle_gamma                90
_cell_volume                     6246.53
loop_
_atom_site_label
_atom_site_type_symbol
_atom_site_fract_x
_atom_site_fract_y
_atom_site_fract_z
Sc1 Sc 0.3750 0.3750 0.635719(16)
O1 O 0.24144(19) 0.33329(10) 0.67945(5)
C1 C 0.1026(3) 0.31962(13) 0.68231(7)
O2 O 0.0045(2) 0.33430(11) 0.65742(6)
C2 C 0.0497(3) 0.28361(14) 0.71745(7)
C3 C 0.1521(3) 0.26411(18) 0.74533(8)
C4 C 0.1031(3) 0.23075(18) 0.77770(8)
O3 O 0.2448(2) 0.45826(9) 0.63538(6)
C5 C 0.1250 0.48612(16) 0.6250
C6 C 0.1250 0.55854(17) 0.6250
C7 C 0.2606(3) 0.59173(13) 0.62538(13)
H1 H 0.2576 0.2737 0.7423
H2 H 0.1751 0.2176 0.7968
H3 H 0.3547 0.5689 0.6262
O1Q O -0.24144(19) 0.16671(10) 0.82055(5)
C1Q C -0.1026(3) 0.18038(13) 0.81769(7)
O2Q O -0.0045(2) 0.16570(11) 0.84258(6)
C2Q C -0.0497(3) 0.21639(14) 0.78255(7)
C3Q C -0.1521(3) 0.23589(18) 0.75467(8)
C4Q C -0.1031(3) 0.26925(18) 0.72230(8)
H1Q H -0.2576 0.2263 0.7577
H2Q H -0.1751 0.2824 0.7032
O3D O 0.2448(2) 0.79174(9) 0.61462(6)
C5D C 0.1250 0.76388(16) 0.6250
C6D C 0.1250 0.69146(17) 0.6250
C7D C 0.2606(3) 0.65827(13) 0.62462(13)
H3D H 0.3547 0.6811 0.6238
O3H O 0.0052(2) 0.45826(9) 0.61462(6)
C7H C -0.0106(3) 0.59173(13) 0.62462(13)
H3H H -0.1047 0.5689 0.6238
O3M O 0.0052(2) 0.79174(9) 0.63538(6)
C7M C -0.0106(3) 0.65827(13) 0.62538(13)
H3M H -0.1047 0.6811 0.6262
Sc1Q Sc -0.3750 0.1250 0.864281(16)
O1N O 0.50856(19) 0.41671(10) 0.67945(5)
C1N C 0.6474(3) 0.43038(13) 0.68231(7)
O2N O 0.7455(2) 0.41570(11) 0.65742(6)
C2N C 0.7003(3) 0.46639(14) 0.71745(7)
C3N C 0.5979(3) 0.48589(18) 0.74533(8)
C4N C 0.6469(3) 0.51925(18) 0.77770(8)
H1N H 0.4924 0.4763 0.7423
H2N H 0.5749 0.5324 0.7968
O1BA O 0.99144(19) 0.58329(10) 0.82055(5)
C1BA C 0.8526(3) 0.56962(13) 0.81769(7)
O2BA O 0.7545(2) 0.58430(11) 0.84258(6)
C2BA C 0.7997(3) 0.53361(14) 0.78255(7)
C3BA C 0.9021(3) 0.51411(18) 0.75467(8)
C4BA C 0.8531(3) 0.48075(18) 0.72230(8)
H1BA H 1.0076 0.5237 0.7577
H2BA H 0.9251 0.4676 0.7032
Sc1R Sc 1.1250 0.6250 0.864281(16)
Sc1C Sc -0.1250 0.8750 0.635719(16)
Sc1U Sc 0.6250 0.6250 0.885719(16)
Sc1D Sc 0.3750 0.8750 0.614281(16)
Sc1V Sc 0.1250 0.1250 0.885719(16)
Sc1G Sc -0.1250 0.3750 0.614281(16)
Sc1G_2 Sc 0.8750 0.3750 0.614281(16)
O1EA O -0.50856(19) 0.08329(10) 0.82055(5)
O2V O -0.5045(2) 0.08430(11) 0.90742(6)
O2G O 0.5045(2) 0.41570(11) 0.59258(6)
O2H O 0.2455(2) 0.33430(11) 0.59258(6)
O2Y O -0.2455(2) 0.16570(11) 0.90742(6)
O3Q O -0.2448(2) 0.04174(9) 0.86462(6)
O3EA O -0.5052(2) 0.20826(9) 0.86462(6)
O3N O 0.5052(2) 0.29174(9) 0.63538(6)
loop_
_geom_bond_atom_site_label_1
_geom_bond_atom_site_label_2
_geom_bond_site_symmetry_1
_geom_bond_site_symmetry_2
Sc1 O1 1_555 1_555
O1 C1 1_555 1_555
C1 O2 1_555 1_555
O2 Sc1G 1_555 1_555
C2 C1 1_555 1_555
C3 C2 1_555 1_555
C4 C3 1_555 1_555
O3 Sc1 1_555 1_555
C5 O3 1_555 1_555
C6 C5 1_555 1_555
C7 C6 1_555 1_555
H1 C3 1_555 1_555
H2 C4 1_555 1_555
H3 C7 1_555 1_555
O1Q C1Q 1_555 1_555
C1Q O2Q 1_555 1_555
O2Q Sc1V 1_555 1_555
C2Q C4 1_555 1_555
C3Q C2Q 1_555 1_555
C4Q C2 1_555 1_555
H1Q C3Q 1_555 1_555
H2Q C4Q 1_555 1_555
O3D C5D 1_555 1_555
C5D C6D 1_555 1_555
C6D C7D 1_555 1_555
C7D C7 1_555 1_555
H3D C7D 1_555 1_555
O3H C5 1_555 1_555
C7H C6 1_555 1_555
H3H C7H 1_555 1_555
O3M C5D 1_555 1_555
C7M C6D 1_555 1_555
H3M C7M 1_555 1_555
Sc1Q O1Q 1_555 1_555
O1N Sc1 1_555 1_555
C1N O1N 1_555 1_555
O2N C1N 1_555 1_555
C2N C1N 1_555 1_555
C3N C2N 1_555 1_555
C4N C3N 1_555 1_555
H1N C3N 1_555 1_555
H2N C4N 1_555 1_555
O1BA C1BA 1_555 1_555
C1BA O2BA 1_555 1_555
O2BA Sc1U 1_555 1_555
C2BA C4N 1_555 1_555
C3BA C2BA 1_555 1_555
C4BA C2N 1_555 1_555
H1BA C3BA 1_555 1_555
H2BA C4BA 1_555 1_555
Sc1R O1BA 1_555 1_555
Sc1C O3M 1_555 1_555
Sc1D O3D 1_555 1_555
Sc1G O3H 1_555 1_555
Sc1G_2 O2N 1_555 1_555
O1EA Sc1Q 1_555 1_555
O2V Sc1Q 1_555 1_555
O2G Sc1 1_555 1_555
O2H Sc1 1_555 1_555
O2Y Sc1Q 1_555 1_555
O3Q Sc1Q 1_555 1_555
O3EA Sc1Q 1_555 1_555
O3N Sc1 1_555 1_555
C1Q C2Q 1_555 1_555
C3Q C4Q 1_555 1_555
C7H C7M 1_555 1_555
C1BA C2BA 1_555 1_555
C3BA C4BA 1_555 1_555

#END
