
#######################################################################
#
#                 Cambridge Crystallographic Data Centre
#                                CCDC 
#
#######################################################################
#
# If this CIF has been generated from an entry in the Cambridge 
# Structural Database, then it will include bibliographic, chemical, 
# crystal, experimental, refinement or atomic coordinate data resulting 
# from the CCDC's data processing and validation procedures.
#
#######################################################################

data_HAZGOF13
_chemical_formula_moiety         '(C24 H12 O12 Sc2)n'
_symmetry_cell_setting           orthorhombic
_symmetry_space_group_name_H-M   'F d d d'
_symmetry_Int_Tables_number      70
_space_group_name_Hall           '-F 2uv 2vw'
loop_
_symmetry_equiv_pos_site_id
_symmetry_equiv_pos_as_xyz
1 x,y,z
2 x,1/2+y,1/2+z
3 1/2+x,y,1/2+z
4 1/2+x,1/2+y,z
5 x,1/4-y,1/4-z
6 x,3/4-y,3/4-z
7 1/2+x,1/4-y,3/4-z
8 1/2+x,3/4-y,1/4-z
9 1/4-x,y,1/4-z
10 1/4-x,1/2+y,3/4-z
11 3/4-x,y,3/4-z
12 3/4-x,1/2+y,1/4-z
13 1/4-x,3/4-y,1/2+z
14 1/4-x,1/4-y,z
15 3/4-x,3/4-y,z
16 3/4-x,1/4-y,1/2+z
17 -x,-y,-z
18 -x,1/2-y,1/2-z
19 1/2-x,-y,1/2-z
20 1/2-x,1/2-y,-z
21 -x,3/4+y,3/4+z
22 -x,1/4+y,1/4+z
23 1/2-x,3/4+y,1/4+z
24 1/2-x,1/4+y,3/4+z
25 3/4+x,-y,3/4+z
26 3/4+x,1/2-y,1/4+z
27 1/4+x,-y,1/4+z
28 1/4+x,1/2-y,3/4+z
29 3/4+x,1/4+y,1/2-z
30 3/4+x,3/4+y,-z
31 1/4+x,1/4+y,-z
32 1/4+x,3/4+y,1/2-z
_cell_length_a                   8.7407(4)
_cell_length_b                   20.7577(10)
_cell_length_c                   34.3372(19)
_cell_angle_alpha                90
_cell_angle_beta                 90
_cell_angle_gamma                90
_cell_volume                     6230.03
loop_
_atom_site_label
_atom_site_type_symbol
_atom_site_fract_x
_atom_site_fract_y
_atom_site_fract_z
Sc1 Sc 0.3750 0.3750 0.635697(17)
O1 O 0.2413(2) 0.33337(10) 0.67945(5)
C1 C 0.1027(3) 0.32010(14) 0.68226(7)
O2 O 0.0043(2) 0.33407(12) 0.65741(6)
C2 C 0.0491(3) 0.28349(15) 0.71759(8)
C3 C 0.1531(3) 0.26414(19) 0.74524(9)
C4 C 0.1035(4) 0.2305(2) 0.77776(9)
O3 O 0.2451(2) 0.45846(8) 0.63526(7)
C5 C 0.1250 0.48611(18) 0.6250
C6 C 0.1250 0.55865(18) 0.6250
C7 C 0.2605(3) 0.59152(13) 0.62540(14)
H1 H 0.2596 0.2739 0.7423
H2 H 0.1725 0.2159 0.7966
H3 H 0.3539 0.5683 0.6267
O1Q O -0.2413(2) 0.16663(10) 0.82055(5)
C1Q C -0.1027(3) 0.17990(14) 0.81774(7)
O2Q O -0.0043(2) 0.16593(12) 0.84259(6)
C2Q C -0.0491(3) 0.21651(15) 0.78241(8)
C3Q C -0.1531(3) 0.23586(19) 0.75476(9)
C4Q C -0.1035(4) 0.2695(2) 0.72224(9)
H1Q H -0.2596 0.2261 0.7577
H2Q H -0.1725 0.2841 0.7034
O3D O 0.2451(2) 0.79154(8) 0.61474(7)
C5D C 0.1250 0.76389(18) 0.6250
C6D C 0.1250 0.69135(18) 0.6250
C7D C 0.2605(3) 0.65848(13) 0.62460(14)
H3D H 0.3539 0.6817 0.6233
O3H O 0.0049(2) 0.45846(8) 0.61474(7)
C7H C -0.0105(3) 0.59152(13) 0.62460(14)
H3H H -0.1039 0.5683 0.6233
O3M O 0.0049(2) 0.79154(8) 0.63526(7)
C7M C -0.0105(3) 0.65848(13) 0.62540(14)
H3M H -0.1039 0.6817 0.6267
Sc1Q Sc -0.3750 0.1250 0.864303(17)
O1N O 0.5087(2) 0.41663(10) 0.67945(5)
C1N C 0.6473(3) 0.42990(14) 0.68226(7)
O2N O 0.7457(2) 0.41593(12) 0.65741(6)
C2N C 0.7009(3) 0.46651(15) 0.71759(8)
C3N C 0.5969(3) 0.48586(19) 0.74524(9)
C4N C 0.6465(4) 0.5195(2) 0.77776(9)
H1N H 0.4904 0.4761 0.7423
H2N H 0.5775 0.5341 0.7966
O1BA O 0.9913(2) 0.58337(10) 0.82055(5)
C1BA C 0.8527(3) 0.57010(14) 0.81774(7)
O2BA O 0.7543(2) 0.58407(12) 0.84259(6)
C2BA C 0.7991(3) 0.53349(15) 0.78241(8)
C3BA C 0.9031(3) 0.51414(19) 0.75476(9)
C4BA C 0.8535(4) 0.4805(2) 0.72224(9)
H1BA H 1.0096 0.5239 0.7577
H2BA H 0.9225 0.4659 0.7034
Sc1R Sc 1.1250 0.6250 0.864303(17)
Sc1C Sc -0.1250 0.8750 0.635697(17)
Sc1U Sc 0.6250 0.6250 0.885697(17)
Sc1D Sc 0.3750 0.8750 0.614303(17)
Sc1V Sc 0.1250 0.1250 0.885697(17)
Sc1G Sc -0.1250 0.3750 0.614303(17)
Sc1G_2 Sc 0.8750 0.3750 0.614303(17)
O1EA O -0.5087(2) 0.08337(10) 0.82055(5)
O2V O -0.5043(2) 0.08407(12) 0.90741(6)
O2G O 0.5043(2) 0.41593(12) 0.59259(6)
O2H O 0.2457(2) 0.33407(12) 0.59259(6)
O2Y O -0.2457(2) 0.16593(12) 0.90741(6)
O3Q O -0.2451(2) 0.04154(8) 0.86474(7)
O3EA O -0.5049(2) 0.20846(8) 0.86474(7)
O3N O 0.5049(2) 0.29154(8) 0.63526(7)
loop_
_geom_bond_atom_site_label_1
_geom_bond_atom_site_label_2
_geom_bond_site_symmetry_1
_geom_bond_site_symmetry_2
Sc1 O1 1_555 1_555
O1 C1 1_555 1_555
C1 O2 1_555 1_555
O2 Sc1G 1_555 1_555
C2 C1 1_555 1_555
C3 C2 1_555 1_555
C4 C3 1_555 1_555
O3 Sc1 1_555 1_555
C5 O3 1_555 1_555
C6 C5 1_555 1_555
C7 C6 1_555 1_555
H1 C3 1_555 1_555
H2 C4 1_555 1_555
H3 C7 1_555 1_555
O1Q C1Q 1_555 1_555
C1Q O2Q 1_555 1_555
O2Q Sc1V 1_555 1_555
C2Q C4 1_555 1_555
C3Q C2Q 1_555 1_555
C4Q C2 1_555 1_555
H1Q C3Q 1_555 1_555
H2Q C4Q 1_555 1_555
O3D C5D 1_555 1_555
C5D C6D 1_555 1_555
C6D C7D 1_555 1_555
C7D C7 1_555 1_555
H3D C7D 1_555 1_555
O3H C5 1_555 1_555
C7H C6 1_555 1_555
H3H C7H 1_555 1_555
O3M C5D 1_555 1_555
C7M C6D 1_555 1_555
H3M C7M 1_555 1_555
Sc1Q O1Q 1_555 1_555
O1N Sc1 1_555 1_555
C1N O1N 1_555 1_555
O2N C1N 1_555 1_555
C2N C1N 1_555 1_555
C3N C2N 1_555 1_555
C4N C3N 1_555 1_555
H1N C3N 1_555 1_555
H2N C4N 1_555 1_555
O1BA C1BA 1_555 1_555
C1BA O2BA 1_555 1_555
O2BA Sc1U 1_555 1_555
C2BA C4N 1_555 1_555
C3BA C2BA 1_555 1_555
C4BA C2N 1_555 1_555
H1BA C3BA 1_555 1_555
H2BA C4BA 1_555 1_555
Sc1R O1BA 1_555 1_555
Sc1C O3M 1_555 1_555
Sc1D O3D 1_555 1_555
Sc1G O3H 1_555 1_555
Sc1G_2 O2N 1_555 1_555
O1EA Sc1Q 1_555 1_555
O2V Sc1Q 1_555 1_555
O2G Sc1 1_555 1_555
O2H Sc1 1_555 1_555
O2Y Sc1Q 1_555 1_555
O3Q Sc1Q 1_555 1_555
O3EA Sc1Q 1_555 1_555
O3N Sc1 1_555 1_555
C1Q C2Q 1_555 1_555
C3Q C4Q 1_555 1_555
C7H C7M 1_555 1_555
C1BA C2BA 1_555 1_555
C3BA C4BA 1_555 1_555

#END
