
#######################################################################
#
#                 Cambridge Crystallographic Data Centre
#                                CCDC 
#
#######################################################################
#
# If this CIF has been generated from an entry in the Cambridge 
# Structural Database, then it will include bibliographic, chemical, 
# crystal, experimental, refinement or atomic coordinate data resulting 
# from the CCDC's data processing and validation procedures.
#
#######################################################################

data_HOJNUR
_chemical_formula_moiety         '(C25 H16 O13 Sc2)n'
_symmetry_cell_setting           orthorhombic
_symmetry_space_group_name_H-M   'F d d d'
_symmetry_Int_Tables_number      70
_space_group_name_Hall           '-F 2uv 2vw'
loop_
_symmetry_equiv_pos_site_id
_symmetry_equiv_pos_as_xyz
1 x,y,z
2 x,1/2+y,1/2+z
3 1/2+x,y,1/2+z
4 1/2+x,1/2+y,z
5 x,1/4-y,1/4-z
6 x,3/4-y,3/4-z
7 1/2+x,1/4-y,3/4-z
8 1/2+x,3/4-y,1/4-z
9 1/4-x,y,1/4-z
10 1/4-x,1/2+y,3/4-z
11 3/4-x,y,3/4-z
12 3/4-x,1/2+y,1/4-z
13 1/4-x,3/4-y,1/2+z
14 1/4-x,1/4-y,z
15 3/4-x,3/4-y,z
16 3/4-x,1/4-y,1/2+z
17 -x,-y,-z
18 -x,1/2-y,1/2-z
19 1/2-x,-y,1/2-z
20 1/2-x,1/2-y,-z
21 -x,3/4+y,3/4+z
22 -x,1/4+y,1/4+z
23 1/2-x,3/4+y,1/4+z
24 1/2-x,1/4+y,3/4+z
25 3/4+x,-y,3/4+z
26 3/4+x,1/2-y,1/4+z
27 1/4+x,-y,1/4+z
28 1/4+x,1/2-y,3/4+z
29 3/4+x,1/4+y,1/2-z
30 3/4+x,3/4+y,-z
31 1/4+x,1/4+y,-z
32 1/4+x,3/4+y,1/2-z
_cell_length_a                   8.8641(17)
_cell_length_b                   20.698(2)
_cell_length_c                   34.229(6)
_cell_angle_alpha                90
_cell_angle_beta                 90
_cell_angle_gamma                90
_cell_volume                     6279.97
loop_
_atom_site_label
_atom_site_type_symbol
_atom_site_fract_x
_atom_site_fract_y
_atom_site_fract_z
Sc1 Sc 0.3750 0.3750 0.63544(10)
O1 O 0.2410(10) 0.3331(4) 0.6791(2)
C1 C 0.1025(10) 0.3204(6) 0.6822(3)
O2 O 0.0072(11) 0.3361(4) 0.6575(2)
C2 C 0.0497(10) 0.2830(6) 0.7172(3)
C3 C 0.1493(10) 0.2651(7) 0.7458(3)
C4 C 0.1007(11) 0.2312(7) 0.7782(3)
O3 O 0.2446(9) 0.4576(3) 0.6345(3)
C5 C 0.1250 0.4858(4) 0.6250
C6 C 0.1250 0.5580(3) 0.6250
C7 C 0.2585(7) 0.5915(2) 0.6256(5)
H1 H 0.2530 0.2758 0.7432
H2 H 0.1718 0.2168 0.7970
H3 H 0.3514 0.5688 0.6269
O1Q O -0.2410(10) 0.1669(4) 0.8209(2)
C1Q C -0.1025(10) 0.1796(6) 0.8178(3)
O2Q O -0.0072(11) 0.1639(4) 0.8425(2)
C2Q C -0.0497(10) 0.2170(6) 0.7828(3)
C3Q C -0.1493(10) 0.2349(7) 0.7542(3)
C4Q C -0.1007(11) 0.2688(7) 0.7218(3)
H1Q H -0.2530 0.2242 0.7568
H2Q H -0.1718 0.2832 0.7030
O3D O 0.2446(9) 0.7924(3) 0.6155(3)
C5D C 0.1250 0.7642(4) 0.6250
C6D C 0.1250 0.6920(3) 0.6250
C7D C 0.2585(7) 0.6585(2) 0.6244(5)
H3D H 0.3514 0.6812 0.6231
O3H O 0.0054(9) 0.4576(3) 0.6155(3)
C7H C -0.0085(7) 0.5915(2) 0.6244(5)
H3H H -0.1014 0.5688 0.6231
O3M O 0.0054(9) 0.7924(3) 0.6345(3)
C7M C -0.0085(7) 0.6585(2) 0.6256(5)
H3M H -0.1014 0.6812 0.6269
Sc1Q Sc -0.3750 0.1250 0.86456(10)
O1N O 0.5090(10) 0.4169(4) 0.6791(2)
C1N C 0.6475(10) 0.4296(6) 0.6822(3)
O2N O 0.7428(11) 0.4139(4) 0.6575(2)
C2N C 0.7003(10) 0.4670(6) 0.7172(3)
C3N C 0.6007(10) 0.4849(7) 0.7458(3)
C4N C 0.6493(11) 0.5188(7) 0.7782(3)
H1N H 0.4970 0.4742 0.7432
H2N H 0.5782 0.5332 0.7970
O1BA O 0.9910(10) 0.5831(4) 0.8209(2)
C1BA C 0.8525(10) 0.5704(6) 0.8178(3)
O2BA O 0.7572(11) 0.5861(4) 0.8425(2)
C2BA C 0.7997(10) 0.5330(6) 0.7828(3)
C3BA C 0.8993(10) 0.5151(7) 0.7542(3)
C4BA C 0.8507(11) 0.4812(7) 0.7218(3)
H1BA H 1.0030 0.5258 0.7568
H2BA H 0.9218 0.4668 0.7030
Sc1R Sc 1.1250 0.6250 0.86456(10)
Sc1C Sc -0.1250 0.8750 0.63544(10)
Sc1U Sc 0.6250 0.6250 0.88544(10)
Sc1D Sc 0.3750 0.8750 0.61456(10)
Sc1V Sc 0.1250 0.1250 0.88544(10)
Sc1G Sc -0.1250 0.3750 0.61456(10)
Sc1G_2 Sc 0.8750 0.3750 0.61456(10)
O1EA O -0.5090(10) 0.0831(4) 0.8209(2)
O2V O -0.5072(11) 0.0861(4) 0.9075(2)
O2G O 0.5072(11) 0.4139(4) 0.5925(2)
O2H O 0.2428(11) 0.3361(4) 0.5925(2)
O2Y O -0.2428(11) 0.1639(4) 0.9075(2)
O3Q O -0.2446(9) 0.0424(3) 0.8655(3)
O3EA O -0.5054(9) 0.2076(3) 0.8655(3)
O3N O 0.5054(9) 0.2924(3) 0.6345(3)
O4 O 0.275(5) 0.1928(17) -0.0037(11)
C8 C 0.281(8) 0.181(3) 0.0373(12)
loop_
_geom_bond_atom_site_label_1
_geom_bond_atom_site_label_2
_geom_bond_site_symmetry_1
_geom_bond_site_symmetry_2
Sc1 O1 1_555 1_555
O1 C1 1_555 1_555
C1 O2 1_555 1_555
O2 Sc1G 1_555 1_555
C2 C1 1_555 1_555
C3 C2 1_555 1_555
C4 C3 1_555 1_555
O3 Sc1 1_555 1_555
C5 O3 1_555 1_555
C6 C5 1_555 1_555
C7 C6 1_555 1_555
H1 C3 1_555 1_555
H2 C4 1_555 1_555
H3 C7 1_555 1_555
O4 C8 1_555 1_555
O1Q C1Q 1_555 1_555
C1Q O2Q 1_555 1_555
O2Q Sc1V 1_555 1_555
C2Q C4 1_555 1_555
C3Q C2Q 1_555 1_555
C4Q C2 1_555 1_555
H1Q C3Q 1_555 1_555
H2Q C4Q 1_555 1_555
O3D C5D 1_555 1_555
C5D C6D 1_555 1_555
C6D C7D 1_555 1_555
C7D C7 1_555 1_555
H3D C7D 1_555 1_555
O3H C5 1_555 1_555
C7H C6 1_555 1_555
H3H C7H 1_555 1_555
O3M C5D 1_555 1_555
C7M C6D 1_555 1_555
H3M C7M 1_555 1_555
Sc1Q O1Q 1_555 1_555
O1N Sc1 1_555 1_555
C1N O1N 1_555 1_555
O2N C1N 1_555 1_555
C2N C1N 1_555 1_555
C3N C2N 1_555 1_555
C4N C3N 1_555 1_555
H1N C3N 1_555 1_555
H2N C4N 1_555 1_555
O1BA C1BA 1_555 1_555
C1BA O2BA 1_555 1_555
O2BA Sc1U 1_555 1_555
C2BA C4N 1_555 1_555
C3BA C2BA 1_555 1_555
C4BA C2N 1_555 1_555
H1BA C3BA 1_555 1_555
H2BA C4BA 1_555 1_555
Sc1R O1BA 1_555 1_555
Sc1C O3M 1_555 1_555
Sc1D O3D 1_555 1_555
Sc1G O3H 1_555 1_555
Sc1G_2 O2N 1_555 1_555
O1EA Sc1Q 1_555 1_555
O2V Sc1Q 1_555 1_555
O2G Sc1 1_555 1_555
O2H Sc1 1_555 1_555
O2Y Sc1Q 1_555 1_555
O3Q Sc1Q 1_555 1_555
O3EA Sc1Q 1_555 1_555
O3N Sc1 1_555 1_555
C1Q C2Q 1_555 1_555
C3Q C4Q 1_555 1_555
C7H C7M 1_555 1_555
C1BA C2BA 1_555 1_555
C3BA C4BA 1_555 1_555

#END
