
#######################################################################
#
#                 Cambridge Crystallographic Data Centre
#                                CCDC 
#
#######################################################################
#
# If this CIF has been generated from an entry in the Cambridge 
# Structural Database, then it will include bibliographic, chemical, 
# crystal, experimental, refinement or atomic coordinate data resulting 
# from the CCDC's data processing and validation procedures.
#
#######################################################################

data_LITHUR
_chemical_formula_moiety         '(C12 H20 Cu4 N5 Se4 W1 1-)n'
_symmetry_cell_setting           orthorhombic
_symmetry_space_group_name_H-M   'F d d d'
_symmetry_Int_Tables_number      70
_space_group_name_Hall           '-F 2uv 2vw'
loop_
_symmetry_equiv_pos_site_id
_symmetry_equiv_pos_as_xyz
1 x,y,z
2 x,1/2+y,1/2+z
3 x,1/4-y,1/4-z
4 1/2+x,y,1/2+z
5 1/4-x,y,1/4-z
6 1/2+x,1/2+y,z
7 1/4-x,1/4-y,z
8 1/4+x,1/4+y,-z
9 1/4+x,-y,1/4+z
10 -x,1/4+y,1/4+z
11 1/4+x,3/4+y,1/2-z
12 1/4+x,1/2-y,3/4+z
13 3/4+x,1/4+y,1/2-z
14 1/2-x,1/4+y,3/4+z
15 3/4+x,1/2-y,1/4+z
16 1/2-x,3/4+y,1/4+z
17 -x,-y,-z
18 -x,1/2-y,1/2-z
19 -x,3/4+y,3/4+z
20 1/2-x,-y,1/2-z
21 3/4+x,-y,3/4+z
22 1/2-x,1/2-y,-z
23 3/4+x,3/4+y,-z
24 3/4-x,3/4-y,z
25 3/4-x,y,3/4-z
26 x,3/4-y,3/4-z
27 3/4-x,1/4-y,1/2+z
28 3/4-x,1/2+y,1/4-z
29 1/4-x,3/4-y,1/2+z
30 1/2+x,3/4-y,1/4-z
31 1/4-x,1/2+y,3/4-z
32 1/2+x,1/4-y,3/4-z
_cell_length_a                   11.090(2)
_cell_length_b                   23.206(5)
_cell_length_c                   23.910(5)
_cell_angle_alpha                90
_cell_angle_beta                 90
_cell_angle_gamma                90
_cell_volume                     6153.35
loop_
_atom_site_label
_atom_site_type_symbol
_atom_site_fract_x
_atom_site_fract_y
_atom_site_fract_z
_atom_site_U_iso_or_equiv
_atom_site_thermal_displace_type
W1 W -0.6250 -0.1250 0.3750 0.0196 Uani
Se1 Se -0.74774(10) -0.06698(4) 0.43114(4) 0.0273 Uani
Cu1 Cu -0.6250 -0.1250 0.25579(7) 0.0300 Uani
Cu2 Cu -0.6250 0.00027(7) 0.3750 0.0339 Uani
N1 N -0.7741(9) 0.0740(4) 0.2919(4) 0.0433 Uani
C1 C -0.7221(9) 0.0449(4) 0.3230(4) 0.0277 Uani
Se1W Se -0.50226(10) -0.18302(4) 0.43114(4) 0.0273 Uani
Se1X Se -0.50226(10) -0.06698(4) 0.31886(4) 0.0273 Uani
Se1Y Se -0.74774(10) -0.18302(4) 0.31886(4) 0.0273 Uani
Cu1X Cu -0.6250 -0.1250 0.49421(7) 0.0300 Uani
Cu2W Cu -0.6250 -0.25027(7) 0.3750 0.0339 Uani
N1J N -0.5241(9) -0.1760(4) 0.2081(4) 0.0433 Uani
C1X C -0.5279(9) 0.0449(4) 0.4270(4) 0.0277 Uani
N1S N -0.7259(9) -0.0740(4) 0.2081(4) 0.0433 Uani
N1H N -0.5241(9) -0.0740(4) 0.5419(4) 0.0433 Uani
N1O N -0.7259(9) -0.1760(4) 0.5419(4) 0.0433 Uani
C1W C -0.5279(9) -0.2949(4) 0.3230(4) 0.0277 Uani
C1Y C -0.7221(9) -0.2949(4) 0.4270(4) 0.0277 Uani
Cu1L Cu -0.8750 0.1250 0.24421(7) 0.0300 Uani
N1W N -0.4759(9) -0.3240(4) 0.2919(4) 0.0433 Uani
Cu1J Cu -0.3750 -0.3750 0.24421(7) 0.0300 Uani
N1X N -0.4759(9) 0.0740(4) 0.4581(4) 0.0433 Uani
N1Y N -0.7741(9) -0.3240(4) 0.4581(4) 0.0433 Uani
Cu1H Cu -0.3750 0.1250 0.50579(7) 0.0300 Uani
Cu1N Cu -0.8750 -0.3750 0.50579(7) 0.0300 Uani
N2 N -0.8750 -0.2368(5) 0.1250 0.0317 Uani
C2 C -0.8884(32) -0.1968(12) 0.1726(9) 0.1870 Uani
C3 C -0.9917(20) -0.1686(10) 0.1894(10) 0.1433 Uani
C4 C -0.7659(30) -0.2653(15) 0.1375(14) 0.2687 Uani
C5 C -0.7532(17) -0.2993(9) 0.1922(8) 0.1050 Uani
C2D C -0.8616(32) -0.1968(12) 0.0774(9) 0.1870 Uani
C4D C -0.9841(30) -0.2653(15) 0.1125(14) 0.2687 Uani
C3D C -0.7583(20) -0.1686(10) 0.0606(10) 0.1433 Uani
C5D C -0.9968(17) -0.2993(9) 0.0578(8) 0.1050 Uani
loop_
_atom_site_aniso_label
_atom_site_aniso_U_11
_atom_site_aniso_U_22
_atom_site_aniso_U_33
_atom_site_aniso_U_23
_atom_site_aniso_U_13
_atom_site_aniso_U_12
W1 0.0225(4) 0.0218(4) 0.0145(4) 0.000 0.000 0.000
Se1 0.0290(6) 0.0312(6) 0.0216(5) -0.0033(4) 0.0015(4) 0.0064(5)
Cu1 0.0351(10) 0.0322(9) 0.0228(8) 0.000 0.000 0.0023(9)
Cu2 0.0384(11) 0.0326(10) 0.0308(9) 0.000 -0.0076(10) 0.000
N1 0.046 0.038 0.046 -0.006 0.001 0.001
C1 0.032 0.021 0.03 0.005 -0.013 -0.001
Se1W 0.029 0.0312 0.0216 0.0033 -0.0015 0.0064
Se1X 0.029 0.0312 0.0216 0.0033 0.0015 -0.0064
Se1Y 0.029 0.0312 0.0216 -0.0033 -0.0015 -0.0064
Cu1X 0.0351 0.0322 0.0228 0 0 -0.0023
Cu2W 0.0384 0.0326 0.0308 0 0.0076 0
N1J 0.046 0.038 0.046 0.006 -0.001 0.001
C1X 0.032 0.021 0.03 -0.005 -0.013 0.001
N1S 0.046(6) 0.038(6) 0.046(6) -0.006(5) 0.001(5) 0.001(5)
N1H 0.046 0.038 0.046 0.006 0.001 -0.001
N1O 0.046 0.038 0.046 -0.006 -0.001 -0.001
C1W 0.032 0.021 0.03 -0.005 0.013 -0.001
C1Y 0.032 0.021 0.03 0.005 0.013 0.001
Cu1L 0.0351 0.0322 0.0228 0 0 0.0023
N1W 0.046 0.038 0.046 0.006 -0.001 0.001
Cu1J 0.0351 0.0322 0.0228 0 0 0.0023
N1X 0.046 0.038 0.046 0.006 0.001 -0.001
N1Y 0.046 0.038 0.046 -0.006 -0.001 -0.001
Cu1H 0.0351 0.0322 0.0228 0 0 -0.0023
Cu1N 0.0351 0.0322 0.0228 0 0 -0.0023
N2 0.030(7) 0.030(6) 0.035(6) 0.000 -0.011(7) 0.000
C2 0.290(36) 0.183(25) 0.088(14) -0.048(16) 0.035(21) 0.121(26)
C3 0.098(16) 0.147(19) 0.185(23) -0.094(17) 0.061(16) 0.024(15)
C4 0.229(31) 0.308(40) 0.269(39) 0.088(34) -0.096(32) 0.185(31)
C5 0.075(12) 0.120(15) 0.120(15) 0.053(13) -0.012(12) 0.024(12)
C2D 0.29 0.183 0.088 0.048 0.035 -0.121
C4D 0.229 0.308 0.269 -0.088 -0.096 -0.185
C3D 0.098 0.147 0.185 0.094 0.061 -0.024
C5D 0.075 0.12 0.12 -0.053 -0.012 -0.024
loop_
_geom_bond_atom_site_label_1
_geom_bond_atom_site_label_2
_geom_bond_site_symmetry_1
_geom_bond_site_symmetry_2
W1 Se1 1_555 1_555
Se1 Cu2 1_555 1_555
Cu1 W1 1_555 1_555
Cu2 W1 1_555 1_555
N1 C1 1_555 1_555
C1 Cu2 1_555 1_555
N2 C2 1_555 1_555
C2 C3 1_555 1_555
C4 N2 1_555 1_555
C5 C4 1_555 1_555
Se1W W1 1_555 1_555
Se1X W1 1_555 1_555
Se1Y W1 1_555 1_555
Cu1X W1 1_555 1_555
Cu2W W1 1_555 1_555
N1J Cu1 1_555 1_555
C1X Cu2 1_555 1_555
N1S Cu1 1_555 1_555
C2D N2 1_555 1_555
C4D N2 1_555 1_555
N1H Cu1X 1_555 1_555
N1O Cu1X 1_555 1_555
C1W Cu2W 1_555 1_555
C1Y Cu2W 1_555 1_555
Cu1L N1 1_555 1_555
C3D C2D 1_555 1_555
C5D C4D 1_555 1_555
N1W C1W 1_555 1_555
Cu1J N1W 1_555 1_555
N1X C1X 1_555 1_555
N1Y C1Y 1_555 1_555
Cu1H N1X 1_555 1_555
Cu1N N1Y 1_555 1_555
Se1 Cu1X 1_555 1_555
Cu1 Se1X 1_555 1_555
Cu1 Se1Y 1_555 1_555
Cu2 Se1X 1_555 1_555
Se1W Cu1X 1_555 1_555
Se1W Cu2W 1_555 1_555
Se1Y Cu2W 1_555 1_555

#END
