
#######################################################################
#
#                 Cambridge Crystallographic Data Centre
#                                CCDC 
#
#######################################################################
#
# If this CIF has been generated from an entry in the Cambridge 
# Structural Database, then it will include bibliographic, chemical, 
# crystal, experimental, refinement or atomic coordinate data resulting 
# from the CCDC's data processing and validation procedures.
#
#######################################################################

data_KUXRUS
_chemical_formula_moiety         'C51 H42 Fe13 N3 O24'
_symmetry_cell_setting           hexagonal
_symmetry_space_group_name_H-M   'P 63/m m c'
_symmetry_Int_Tables_number      194
_space_group_name_Hall           '-P 6c 2c'
loop_
_symmetry_equiv_pos_site_id
_symmetry_equiv_pos_as_xyz
1 x,y,z
2 -y,x-y,z
3 -x+y,-x,z
4 -x,-y,1/2+z
5 y,-x+y,1/2+z
6 x-y,x,1/2+z
7 y,x,-z
8 x-y,-y,-z
9 -x,-x+y,-z
10 -y,-x,1/2-z
11 -x+y,y,1/2-z
12 x,x-y,1/2-z
13 -x,-y,-z
14 y,-x+y,-z
15 x-y,x,-z
16 x,y,1/2-z
17 -y,x-y,1/2-z
18 -x+y,-x,1/2-z
19 -y,-x,z
20 -x+y,y,z
21 x,x-y,z
22 y,x,1/2+z
23 x-y,-y,1/2+z
24 -x,-x+y,1/2+z
_cell_length_a                   16.9645(2)
_cell_length_b                   16.9645(2)
_cell_length_c                   14.8081(2)
_cell_angle_alpha                90
_cell_angle_beta                 90
_cell_angle_gamma                120
_cell_volume                     3690.73
loop_
_atom_site_label
_atom_site_type_symbol
_atom_site_fract_x
_atom_site_fract_y
_atom_site_fract_z
Fe1 Fe 0.26415(3) 0.52829(7) 0.7500
N1 N 0.1918(3) 0.3835(5) 0.7500
O1 O 0.3333 0.6667 0.7500
O2 O 0.3458(2) 0.5233(2) 0.8468(2)
C1 C 0.42567(19) 0.57433(19) 0.8720(4)
C2 C 0.4641(2) 0.5359(2) 0.9399(4)
C3 C 0.4126(4) 0.4489(3) 0.9705(4)
H1 H 0.3526 0.4138 0.9514
C4 C 0.2320(9) 0.3343(9) 0.7500
H2 H 0.2953 0.3651 0.7500
C5 C 0.1888(10) 0.2438(10) 0.7500
H3 H 0.2220 0.2137 0.7500
C6 C 0.0980(5) 0.1960(9) 0.7500
C7 C 0.0463(5) 0.0927(9) 0.774(2)
H4 H 0.0401 0.0802 0.8378
C8 C 0.0864(12) 0.0432(6) 0.726(2)
H5 H 0.1517 0.0759 0.7267
H6 H 0.0660 0.0330 0.6639
N1A N -0.3835(5) -0.1917(6) 0.7500
C4A C -0.3343(9) -0.1023(13) 0.7500
H2A H -0.3651 -0.0698 0.7500
C5A C -0.2438(10) -0.0550(14) 0.7500
H3A H -0.2137 0.0083 0.7500
C6A C -0.1960(9) -0.0980(10) 0.7500
C7A C -0.0927(9) -0.0464(10) 0.774(2)
H4A H -0.0802 -0.0401 0.8378
C8A C -0.0432(6) 0.0432(13) 0.726(2)
H5A H -0.0759 0.0758 0.7267
H6A H -0.0330 0.0330 0.6639
N1B N 0.1917(6) -0.1918(3) 0.7500
C4B C 0.1023(13) -0.2320(9) 0.7500
H2B H 0.0698 -0.2953 0.7500
C5B C 0.0550(14) -0.1888(10) 0.7500
H3B H -0.0083 -0.2220 0.7500
C6B C 0.0980(10) -0.0980(5) 0.7500
C7B C 0.0464(10) -0.0463(5) 0.774(2)
H4B H 0.0401 -0.0401 0.8378
C8B C -0.0432(13) -0.0864(12) 0.726(2)
H5B H -0.0758 -0.1517 0.7267
H6B H -0.0330 -0.0660 0.6639
C4I C -0.3343(9) -0.2320(9) 0.7500
H2I H -0.3651 -0.2953 0.7500
C5I C -0.2438(10) -0.1888(10) 0.7500
H3I H -0.2137 -0.2220 0.7500
C7I C -0.0927(9) -0.0463(5) 0.726(2)
H4I H -0.0802 -0.0401 0.6622
C8I C -0.0432(6) -0.0864(12) 0.774(2)
H5I H -0.0759 -0.1517 0.7733
H6I H -0.0330 -0.0660 0.8361
C4J C 0.1023(13) 0.3343(9) 0.7500
H2J H 0.0698 0.3651 0.7500
C5J C 0.0550(14) 0.2438(10) 0.7500
H3J H -0.0083 0.2137 0.7500
C7J C 0.0464(10) 0.0927(9) 0.726(2)
H4J H 0.0401 0.0802 0.6622
C8J C -0.0432(13) 0.0432(6) 0.774(2)
H5J H -0.0758 0.0759 0.7733
H6J H -0.0330 0.0330 0.8361
C4K C 0.2320(9) -0.1023(13) 0.7500
H2K H 0.2953 -0.0698 0.7500
C5K C 0.1888(10) -0.0550(14) 0.7500
H3K H 0.2220 0.0083 0.7500
C7K C 0.0463(5) -0.0464(10) 0.726(2)
H4K H 0.0401 -0.0401 0.6622
C8K C 0.0864(12) 0.0432(13) 0.774(2)
H5K H 0.1517 0.0758 0.7733
H6K H 0.0660 0.0330 0.8361
O2F O 0.5233(2) 0.3458(2) 1.1532(2)
C1F C 0.57433(19) 0.42567(19) 1.1280(4)
C2F C 0.5359(2) 0.4641(2) 1.0601(4)
C3F C 0.4489(3) 0.4126(4) 1.0295(4)
H1F H 0.4138 0.3526 1.0486
O2L O 0.6542(2) 0.4767(2) 1.1532(2)
C3L C 0.5874(4) 0.5511(3) 1.0295(4)
H1L H 0.6474 0.5862 1.0486
O2R O 0.4767(2) 0.6542(2) 0.8468(2)
C3R C 0.5511(3) 0.5874(4) 0.9705(4)
H1R H 0.5862 0.6474 0.9514
Fe1A Fe -0.52829(7) -0.26414(8) 0.7500
O2A O -0.5233(2) -0.1775(3) 0.8468(2)
C1A C -0.57433(19) -0.14866(27) 0.8720(4)
C2A C -0.5359(2) -0.0718(3) 0.9399(4)
C3A C -0.4489(3) -0.0363(5) 0.9705(4)
H1A H -0.4138 -0.0612 0.9514
O2H O -0.3458(2) 0.1775(3) 1.1532(2)
C1H C -0.42567(19) 0.14866(27) 1.1280(4)
C2H C -0.4641(2) 0.0718(3) 1.0601(4)
C3H C -0.4126(4) 0.0363(5) 1.0295(4)
H1H H -0.3526 0.0612 1.0486
O2M O -0.4767(2) 0.1775(3) 1.1532(2)
C3M C -0.5511(3) 0.0363(5) 1.0295(4)
H1M H -0.5862 0.0612 1.0486
O2T O -0.6542(2) -0.1775(3) 0.8468(2)
C3T C -0.5874(4) -0.0363(5) 0.9705(4)
H1T H -0.6474 -0.0612 0.9514
Fe1B Fe 0.26414(8) -0.26415(3) 0.7500
O2B O 0.1775(3) -0.3458(2) 0.8468(2)
C1B C 0.14866(27) -0.42567(19) 0.8720(4)
C2B C 0.0718(3) -0.4641(2) 0.9399(4)
C3B C 0.0363(5) -0.4126(4) 0.9705(4)
H1B H 0.0612 -0.3526 0.9514
O2G O -0.1775(3) -0.5233(2) 1.1532(2)
C1G C -0.14866(27) -0.57433(19) 1.1280(4)
C2G C -0.0718(3) -0.5359(2) 1.0601(4)
C3G C -0.0363(5) -0.4489(3) 1.0295(4)
H1G H -0.0612 -0.4138 1.0486
O2N O -0.1775(3) -0.6542(2) 1.1532(2)
C3N C -0.0363(5) -0.5874(4) 1.0295(4)
H1N H -0.0612 -0.6474 1.0486
O2S O 0.1775(3) -0.4767(2) 0.8468(2)
C3S C 0.0363(5) -0.5511(3) 0.9705(4)
H1S H 0.0612 -0.5862 0.9514
Fe1_2 Fe 0.26415(3) -0.47171(7) 0.7500
Fe1A_2 Fe 0.47171(7) 0.73586(8) 0.7500
Fe1B_2 Fe -0.73586(8) -0.26415(3) 0.7500
Fe1B_3 Fe 0.26414(8) 0.73585(3) 0.7500
Fe1C Fe -0.26415(3) -0.52829(7) 1.2500
Fe1C_2 Fe 0.73585(3) 0.47171(7) 1.2500
Fe1D Fe -0.47171(7) 0.26414(8) 1.2500
Fe1D_2 Fe 0.52829(7) 0.26414(8) 1.2500
Fe1E Fe -0.26414(8) -0.73585(3) 1.2500
Fe1E_2 Fe -0.26414(8) 0.26415(3) 1.2500
O1_2 O -0.6667 -0.3333 0.7500
O1_3 O 0.3333 -0.3333 0.7500
O2I O -0.5233(2) -0.3458(2) 0.6532(2)
O2J O 0.1775(3) 0.5233(2) 0.6532(2)
O2K O 0.3458(2) -0.1775(3) 0.6532(2)
O2O O 0.3458(2) 0.5233(2) 0.6532(2)
O2P O -0.5233(2) -0.1775(3) 0.6532(2)
O2Q O 0.1775(3) -0.3458(2) 0.6532(2)
O2R_2 O -0.5233(2) -0.3458(2) 0.8468(2)
O2S_2 O 0.1775(3) 0.5233(2) 0.8468(2)
O2T_2 O 0.3458(2) -0.1775(3) 0.8468(2)
loop_
_geom_bond_atom_site_label_1
_geom_bond_atom_site_label_2
_geom_bond_site_symmetry_1
_geom_bond_site_symmetry_2
Fe1 N1 1_555 1_555
N1 C4 1_555 1_555
O1 Fe1 1_555 1_555
O2 Fe1 1_555 1_555
C1 O2 1_555 1_555
C2 C1 1_555 1_555
C3 C2 1_555 1_555
H1 C3 1_555 1_555
C4 H2 1_555 1_555
C5 C4 1_555 1_555
H3 C5 1_555 1_555
C6 C5 1_555 1_555
C7 C6 1_555 1_555
H4 C7 1_555 1_555
C8 C7 1_555 1_555
H5 C8 1_555 1_555
H6 C8 1_555 1_555
N1A C4A 1_555 1_555
C4A H2A 1_555 1_555
C5A C4A 1_555 1_555
H3A C5A 1_555 1_555
C6A C5A 1_555 1_555
C7A C6A 1_555 1_555
H4A C7A 1_555 1_555
C8A C7 1_555 1_555
H5A C8A 1_555 1_555
H6A C8A 1_555 1_555
N1B C4B 1_555 1_555
C4B H2B 1_555 1_555
C5B C4B 1_555 1_555
H3B C5B 1_555 1_555
C6B C5B 1_555 1_555
C7B C8 1_555 1_555
H4B C7B 1_555 1_555
C8B C7A 1_555 1_555
H5B C8B 1_555 1_555
H6B C8B 1_555 1_555
C4I N1A 1_555 1_555
H2I C4I 1_555 1_555
C5I C6A 1_555 1_555
H3I C5I 1_555 1_555
C7I C6A 1_555 1_555
H4I C7I 1_555 1_555
C8I C8B 1_555 1_555
H5I C8I 1_555 1_555
H6I C8I 1_555 1_555
C4J N1 1_555 1_555
H2J C4J 1_555 1_555
C5J C6 1_555 1_555
H3J C5J 1_555 1_555
C7J C6 1_555 1_555
H4J C7J 1_555 1_555
C8J C8A 1_555 1_555
H5J C8J 1_555 1_555
H6J C8J 1_555 1_555
C4K N1B 1_555 1_555
H2K C4K 1_555 1_555
C5K C6B 1_555 1_555
H3K C5K 1_555 1_555
C7K C6B 1_555 1_555
H4K C7K 1_555 1_555
C8K C8 1_555 1_555
H5K C8K 1_555 1_555
H6K C8K 1_555 1_555
O2F C1F 1_555 1_555
C1F C2F 1_555 1_555
C2F C3F 1_555 1_555
C3F C3 1_555 1_555
H1F C3F 1_555 1_555
O2L C1F 1_555 1_555
C3L C2F 1_555 1_555
H1L C3L 1_555 1_555
O2R C1 1_555 1_555
C3R C2 1_555 1_555
H1R C3R 1_555 1_555
Fe1A N1A 1_555 1_555
O2A Fe1A 1_555 1_555
C1A O2A 1_555 1_555
C2A C1A 1_555 1_555
C3A C2A 1_555 1_555
H1A C3A 1_555 1_555
O2H C1H 1_555 1_555
C1H C2H 1_555 1_555
C2H C3H 1_555 1_555
C3H C3A 1_555 1_555
H1H C3H 1_555 1_555
O2M C1H 1_555 1_555
C3M C2H 1_555 1_555
H1M C3M 1_555 1_555
O2T C1A 1_555 1_555
C3T C2A 1_555 1_555
H1T C3T 1_555 1_555
Fe1B N1B 1_555 1_555
O2B Fe1B 1_555 1_555
C1B O2B 1_555 1_555
C2B C1B 1_555 1_555
C3B C2B 1_555 1_555
H1B C3B 1_555 1_555
O2G C1G 1_555 1_555
C1G C2G 1_555 1_555
C2G C3G 1_555 1_555
C3G C3B 1_555 1_555
H1G C3G 1_555 1_555
O2N C1G 1_555 1_555
C3N C2G 1_555 1_555
H1N C3N 1_555 1_555
O2S C1B 1_555 1_555
C3S C2B 1_555 1_555
H1S C3S 1_555 1_555
Fe1_2 O2S 1_555 1_555
Fe1A_2 O1 1_555 1_555
Fe1B_2 O2T 1_555 1_555
Fe1B_3 O1 1_555 1_555
Fe1C O2G 1_555 1_555
Fe1C_2 O2L 1_555 1_555
Fe1D O2M 1_555 1_555
Fe1D_2 O2F 1_555 1_555
Fe1E O2N 1_555 1_555
Fe1E_2 O2H 1_555 1_555
O1_2 Fe1A 1_555 1_555
O1_3 Fe1B 1_555 1_555
O2I Fe1A 1_555 1_555
O2J Fe1 1_555 1_555
O2K Fe1B 1_555 1_555
O2O Fe1 1_555 1_555
O2P Fe1A 1_555 1_555
O2Q Fe1B 1_555 1_555
O2R_2 Fe1A 1_555 1_555
O2S_2 Fe1 1_555 1_555
O2T_2 Fe1B 1_555 1_555
C7A C8A 1_555 1_555
C6B C7B 1_555 1_555
C7B C8B 1_555 1_555
C4I C5I 1_555 1_555
C7I C8I 1_555 1_555
C7I C8J 1_555 1_555
C8I C7K 1_555 1_555
C4J C5J 1_555 1_555
C7J C8J 1_555 1_555
C7J C8K 1_555 1_555
C4K C5K 1_555 1_555
C7K C8K 1_555 1_555
C3L C3R 1_555 1_555
O2R Fe1A_2 1_555 1_555
C3M C3T 1_555 1_555
C3N C3S 1_555 1_555
Fe1_2 O1_3 1_555 1_555
Fe1B_2 O1_2 1_555 1_555

#END
