
#######################################################################
#
#                 Cambridge Crystallographic Data Centre
#                                CCDC 
#
#######################################################################
#
# If this CIF has been generated from an entry in the Cambridge 
# Structural Database, then it will include bibliographic, chemical, 
# crystal, experimental, refinement or atomic coordinate data resulting 
# from the CCDC's data processing and validation procedures.
#
#######################################################################

data_KUXREC
_chemical_formula_moiety         '(C24 H17 Fe3 O16)n'
_symmetry_cell_setting           hexagonal
_symmetry_space_group_name_H-M   'P 63/m m c'
_symmetry_Int_Tables_number      194
_space_group_name_Hall           '-P 6c 2c'
loop_
_symmetry_equiv_pos_site_id
_symmetry_equiv_pos_as_xyz
1 x,y,z
2 -y,x-y,z
3 -x+y,-x,z
4 -x,-y,1/2+z
5 y,-x+y,1/2+z
6 x-y,x,1/2+z
7 y,x,-z
8 x-y,-y,-z
9 -x,-x+y,-z
10 -y,-x,1/2-z
11 -x+y,y,1/2-z
12 x,x-y,1/2-z
13 -x,-y,-z
14 y,-x+y,-z
15 x-y,x,-z
16 x,y,1/2-z
17 -y,x-y,1/2-z
18 -x+y,-x,1/2-z
19 -y,-x,z
20 -x+y,y,z
21 x,x-y,z
22 y,x,1/2+z
23 x-y,-y,1/2+z
24 -x,-x+y,1/2+z
_cell_length_a                   14.4162(3)
_cell_length_b                   14.4162(3)
_cell_length_c                   17.3040(3)
_cell_angle_alpha                90
_cell_angle_beta                 90
_cell_angle_gamma                120
_cell_volume                     3114.43
loop_
_atom_site_label
_atom_site_type_symbol
_atom_site_fract_x
_atom_site_fract_y
_atom_site_fract_z
Fe1 Fe 0.25640(4) 0.51279(7) 0.7500
O1 O 0.3460(2) 0.4995(2) 0.66609(16)
O2 O 0.3333 0.6667 0.7500
O3 O 0.17632(19) 0.3526(4) 0.7500
H1 H 0.1282 0.3308 0.7822
C1 C 0.43633(19) 0.56367(19) 0.6392(3)
C2 C 0.4698(2) 0.5302(2) 0.5674(3)
C3 C 0.4015(3) 0.4318(4) 0.5336(3)
H2 H 0.3354 0.3861 0.5561
O1F O 0.4995(2) 0.3460(2) 0.33391(16)
C1F C 0.56367(19) 0.43633(19) 0.3608(3)
C2F C 0.5302(2) 0.4698(2) 0.4326(3)
C3F C 0.4318(4) 0.4015(3) 0.4664(3)
H2F H 0.3861 0.3354 0.4439
O1L O 0.6540(2) 0.5005(2) 0.33391(16)
C3L C 0.5985(3) 0.5682(4) 0.4664(3)
H2L H 0.6646 0.6139 0.4439
O1R O 0.5005(2) 0.6540(2) 0.66609(16)
C3R C 0.5682(4) 0.5985(3) 0.5336(3)
H2R H 0.6139 0.6646 0.5561
Fe1A Fe 0.48721(7) 0.74361(8) 0.7500
O1A O 0.5005(2) 0.8465(3) 0.66609(16)
O3A O 0.6474(4) 0.82372(44) 0.7500
C1A C 0.43633(19) 0.87266(27) 0.6392(3)
C2A C 0.4698(2) 0.9396(3) 0.5674(3)
C3A C 0.5682(4) 0.9697(5) 0.5336(3)
H2A H 0.6139 0.9493 0.5561
O1H O 0.6540(2) 1.1535(3) 0.33391(16)
C1H C 0.56367(19) 1.12734(27) 0.3608(3)
C2H C 0.5302(2) 1.0604(3) 0.4326(3)
C3H C 0.5985(3) 1.0303(5) 0.4664(3)
H2H H 0.6646 1.0507 0.4439
O1M O 0.4995(2) 1.1535(3) 0.33391(16)
C3M C 0.4318(4) 1.0303(5) 0.4664(3)
H2M H 0.3861 1.0507 0.4439
O1T O 0.3460(2) 0.8465(3) 0.66609(16)
C3T C 0.4015(3) 0.9697(5) 0.5336(3)
H2T H 0.3354 0.9493 0.5561
Fe1B Fe 0.25639(8) 0.74360(4) 0.7500
O1B O 0.1535(3) 0.6540(2) 0.66609(16)
O3B O 0.17628(44) 0.82368(19) 0.7500
C1B C 0.12734(27) 0.56367(19) 0.6392(3)
C2B C 0.0604(3) 0.5302(2) 0.5674(3)
C3B C 0.0303(5) 0.5985(3) 0.5336(3)
H2B H 0.0507 0.6646 0.5561
O1G O -0.1535(3) 0.5005(2) 0.33391(16)
C1G C -0.12734(27) 0.43633(19) 0.3608(3)
C2G C -0.0604(3) 0.4698(2) 0.4326(3)
C3G C -0.0303(5) 0.5682(4) 0.4664(3)
H2G H -0.0507 0.6139 0.4439
O1N O -0.1535(3) 0.3460(2) 0.33391(16)
C3N C -0.0303(5) 0.4015(3) 0.4664(3)
H2N H -0.0507 0.3354 0.4439
O1S O 0.1535(3) 0.4995(2) 0.66609(16)
C3S C 0.0303(5) 0.4318(4) 0.5336(3)
H2S H 0.0507 0.3861 0.5561
Fe1C Fe -0.25640(4) 0.48721(7) 0.2500
Fe1C_2 Fe 0.74360(4) 0.48721(7) 0.2500
Fe1D Fe 0.51279(7) 0.25639(8) 0.2500
Fe1D_2 Fe 0.51279(7) 1.25639(8) 0.2500
Fe1E Fe -0.25639(8) 0.25640(4) 0.2500
Fe1E_2 Fe 0.74361(8) 1.25640(4) 0.2500
O1I O 0.5005(2) 0.6540(2) 0.83391(16)
O1J O 0.1535(3) 0.4995(2) 0.83391(16)
O1K O 0.3460(2) 0.8465(3) 0.83391(16)
O1O O 0.3460(2) 0.4995(2) 0.83391(16)
O1P O 0.5005(2) 0.8465(3) 0.83391(16)
O1Q O 0.1535(3) 0.6540(2) 0.83391(16)
loop_
_geom_bond_atom_site_label_1
_geom_bond_atom_site_label_2
_geom_bond_site_symmetry_1
_geom_bond_site_symmetry_2
Fe1 O1 1_555 1_555
O1 C1 1_555 1_555
O2 Fe1 1_555 1_555
O3 Fe1 1_555 1_555
H1 O3 1_555 1_555
C1 C2 1_555 1_555
C2 C3 1_555 1_555
C3 H2 1_555 1_555
O1F C1F 1_555 1_555
C1F C2F 1_555 1_555
C2F C3F 1_555 1_555
C3F C3 1_555 1_555
H2F C3F 1_555 1_555
O1L C1F 1_555 1_555
C3L C2F 1_555 1_555
H2L C3L 1_555 1_555
O1R C1 1_555 1_555
C3R C2 1_555 1_555
H2R C3R 1_555 1_555
Fe1A O2 1_555 1_555
O1A Fe1A 1_555 1_555
O3A Fe1A 1_555 1_555
C1A O1A 1_555 1_555
C2A C1A 1_555 1_555
C3A C2A 1_555 1_555
H2A C3A 1_555 1_555
O1H C1H 1_555 1_555
C1H C2H 1_555 1_555
C2H C3H 1_555 1_555
C3H C3A 1_555 1_555
H2H C3H 1_555 1_555
O1M C1H 1_555 1_555
C3M C2H 1_555 1_555
H2M C3M 1_555 1_555
O1T C1A 1_555 1_555
C3T C2A 1_555 1_555
H2T C3T 1_555 1_555
Fe1B O2 1_555 1_555
O1B Fe1B 1_555 1_555
O3B Fe1B 1_555 1_555
C1B O1B 1_555 1_555
C2B C1B 1_555 1_555
C3B C2B 1_555 1_555
H2B C3B 1_555 1_555
O1G C1G 1_555 1_555
C1G C2G 1_555 1_555
C2G C3G 1_555 1_555
C3G C3B 1_555 1_555
H2G C3G 1_555 1_555
O1N C1G 1_555 1_555
C3N C2G 1_555 1_555
H2N C3N 1_555 1_555
O1S Fe1 1_555 1_555
C3S C2B 1_555 1_555
H2S C3S 1_555 1_555
Fe1C O1G 1_555 1_555
Fe1C_2 O1L 1_555 1_555
Fe1D O1F 1_555 1_555
Fe1D_2 O1M 1_555 1_555
Fe1E O1N 1_555 1_555
Fe1E_2 O1H 1_555 1_555
O1I Fe1A 1_555 1_555
O1J Fe1 1_555 1_555
O1K Fe1B 1_555 1_555
O1O Fe1 1_555 1_555
O1P Fe1A 1_555 1_555
O1Q Fe1B 1_555 1_555
C3L C3R 1_555 1_555
O1R Fe1A 1_555 1_555
C3M C3T 1_555 1_555
O1T Fe1B 1_555 1_555
C1B O1S 1_555 1_555
C3N C3S 1_555 1_555

#END
