
#######################################################################
#
#                 Cambridge Crystallographic Data Centre
#                                CCDC 
#
#######################################################################
#
# If this CIF has been generated from an entry in the Cambridge 
# Structural Database, then it will include bibliographic, chemical, 
# crystal, experimental, refinement or atomic coordinate data resulting 
# from the CCDC's data processing and validation procedures.
#
#######################################################################

data_KUXSAZ
_chemical_formula_moiety         'C42 H24 Fe13 N4 O24'
_symmetry_cell_setting           hexagonal
_symmetry_space_group_name_H-M   'P 63/m m c'
_symmetry_Int_Tables_number      194
_space_group_name_Hall           '-P 6c 2c'
loop_
_symmetry_equiv_pos_site_id
_symmetry_equiv_pos_as_xyz
1 x,y,z
2 -y,x-y,z
3 -x+y,-x,z
4 -x,-y,1/2+z
5 y,-x+y,1/2+z
6 x-y,x,1/2+z
7 y,x,-z
8 x-y,-y,-z
9 -x,-x+y,-z
10 -y,-x,1/2-z
11 -x+y,y,1/2-z
12 x,x-y,1/2-z
13 -x,-y,-z
14 y,-x+y,-z
15 x-y,x,-z
16 x,y,1/2-z
17 -y,x-y,1/2-z
18 -x+y,-x,1/2-z
19 -y,-x,z
20 -x+y,y,z
21 x,x-y,z
22 y,x,1/2+z
23 x-y,-y,1/2+z
24 -x,-x+y,1/2+z
_cell_length_a                   16.490(4)
_cell_length_b                   16.490(4)
_cell_length_c                   15.356(5)
_cell_angle_alpha                90
_cell_angle_beta                 90
_cell_angle_gamma                120
_cell_volume                     3616.18
loop_
_atom_site_label
_atom_site_type_symbol
_atom_site_fract_x
_atom_site_fract_y
_atom_site_fract_z
Fe1 Fe 0.26663(7) 0.53327(15) 0.7500
O1 O 0.3456(3) 0.5189(3) 0.6565(3)
O2 O 0.3333 0.6667 0.7500
N1 N 0.1922(4) 0.3844(8) 0.7500
C1 C 0.4274(3) 0.5726(3) 0.6309(7)
C2 C 0.4651(3) 0.5349(3) 0.5626(7)
C3 C 0.4096(6) 0.4477(6) 0.5309(6)
H1 H 0.3476 0.4126 0.5488
C4 C 0.2391(10) 0.3360(12) 0.7500
H2 H 0.3042 0.3687 0.7500
C5 C 0.1921(15) 0.2397(12) 0.7500
H3 H 0.2253 0.2078 0.7500
C6 C 0.0953(6) 0.1906(12) 0.7500
C7 C 0.0424(6) 0.0849(12) 0.7500
N2 N 0.0000 -0.0000 0.7500
O1F O 0.5189(3) 0.3456(3) 0.3435(3)
C1F C 0.5726(3) 0.4274(3) 0.3691(7)
C2F C 0.5349(3) 0.4651(3) 0.4374(7)
C3F C 0.4477(6) 0.4096(6) 0.4691(6)
H1F H 0.4126 0.3476 0.4512
O1L O 0.6544(3) 0.4811(3) 0.3435(3)
C3L C 0.5904(6) 0.5523(6) 0.4691(6)
H1L H 0.6524 0.5874 0.4512
O1R O 0.4811(3) 0.6544(3) 0.6565(3)
C3R C 0.5523(6) 0.5904(6) 0.5309(6)
H1R H 0.5874 0.6524 0.5488
N1A N -0.3844(8) -0.1922(9) 0.7500
C4A C -0.3360(12) -0.0969(16) 0.7500
H2A H -0.3687 -0.0645 0.7500
C5A C -0.2397(12) -0.0476(19) 0.7500
H3A H -0.2078 0.0175 0.7500
C6A C -0.1906(12) -0.0953(13) 0.7500
C7A C -0.0849(12) -0.0425(13) 0.7500
N1B N 0.1922(9) -0.1922(4) 0.7500
C4B C 0.0969(16) -0.2391(10) 0.7500
H2B H 0.0645 -0.3042 0.7500
C5B C 0.0476(19) -0.1921(15) 0.7500
H3B H -0.0175 -0.2253 0.7500
C6B C 0.0953(13) -0.0953(6) 0.7500
C7B C 0.0425(13) -0.0424(6) 0.7500
C4I C -0.3360(12) -0.2391(10) 0.7500
H2I H -0.3687 -0.3042 0.7500
C5I C -0.2397(12) -0.1921(15) 0.7500
H3I H -0.2078 -0.2253 0.7500
C4J C 0.0969(16) 0.3360(12) 0.7500
H2J H 0.0645 0.3687 0.7500
C5J C 0.0476(19) 0.2397(12) 0.7500
H3J H -0.0175 0.2078 0.7500
C4K C 0.2391(10) -0.0969(16) 0.7500
H2K H 0.3042 -0.0645 0.7500
C5K C 0.1921(15) -0.0476(19) 0.7500
H3K H 0.2253 0.0175 0.7500
Fe1A Fe -0.53327(15) -0.26664(17) 0.7500
O1A O -0.5189(3) -0.1733(4) 0.6565(3)
C1A C -0.5726(3) -0.1452(4) 0.6309(7)
C2A C -0.5349(3) -0.0698(4) 0.5626(7)
C3A C -0.4477(6) -0.0381(8) 0.5309(6)
H1A H -0.4126 -0.0650 0.5488
O1H O -0.3456(3) 0.1733(4) 0.3435(3)
C1H C -0.4274(3) 0.1452(4) 0.3691(7)
C2H C -0.4651(3) 0.0698(4) 0.4374(7)
C3H C -0.4096(6) 0.0381(8) 0.4691(6)
H1H H -0.3476 0.0650 0.4512
O1M O -0.4811(3) 0.1733(4) 0.3435(3)
C3M C -0.5523(6) 0.0381(8) 0.4691(6)
H1M H -0.5874 0.0650 0.4512
O1T O -0.6544(3) -0.1733(4) 0.6565(3)
C3T C -0.5904(6) -0.0381(8) 0.5309(6)
H1T H -0.6524 -0.0650 0.5488
Fe1B Fe 0.26664(17) -0.26663(7) 0.7500
O1B O 0.1733(4) -0.3456(3) 0.6565(3)
C1B C 0.1452(4) -0.4274(3) 0.6309(7)
C2B C 0.0698(4) -0.4651(3) 0.5626(7)
C3B C 0.0381(8) -0.4096(6) 0.5309(6)
H1B H 0.0650 -0.3476 0.5488
O1G O -0.1733(4) -0.5189(3) 0.3435(3)
C1G C -0.1452(4) -0.5726(3) 0.3691(7)
C2G C -0.0698(4) -0.5349(3) 0.4374(7)
C3G C -0.0381(8) -0.4477(6) 0.4691(6)
H1G H -0.0650 -0.4126 0.4512
O1N O -0.1733(4) -0.6544(3) 0.3435(3)
C3N C -0.0381(8) -0.5904(6) 0.4691(6)
H1N H -0.0650 -0.6524 0.4512
O1S O 0.1733(4) -0.4811(3) 0.6565(3)
C3S C 0.0381(8) -0.5523(6) 0.5309(6)
H1S H 0.0650 -0.5874 0.5488
Fe1_2 Fe 0.26663(7) -0.46673(15) 0.7500
Fe1A_2 Fe 0.46673(15) 0.73336(17) 0.7500
Fe1B_2 Fe -0.73336(17) -0.26663(7) 0.7500
Fe1B_3 Fe 0.26664(17) 0.73337(7) 0.7500
Fe1C Fe -0.26663(7) -0.53327(15) 0.2500
Fe1C_2 Fe 0.73337(7) 0.46673(15) 0.2500
Fe1D Fe -0.46673(15) 0.26664(17) 0.2500
Fe1D_2 Fe 0.53327(15) 0.26664(17) 0.2500
Fe1E Fe -0.26664(17) -0.73337(7) 0.2500
Fe1E_2 Fe -0.26664(17) 0.26663(7) 0.2500
O1I O -0.5189(3) -0.3456(3) 0.8435(3)
O1J O 0.1733(4) 0.5189(3) 0.8435(3)
O1K O 0.3456(3) -0.1733(4) 0.8435(3)
O1O O 0.3456(3) 0.5189(3) 0.8435(3)
O1P O -0.5189(3) -0.1733(4) 0.8435(3)
O1Q O 0.1733(4) -0.3456(3) 0.8435(3)
O1R_2 O -0.5189(3) -0.3456(3) 0.6565(3)
O1S_2 O 0.1733(4) 0.5189(3) 0.6565(3)
O1T_2 O 0.3456(3) -0.1733(4) 0.6565(3)
O2_2 O -0.6667 -0.3333 0.7500
O2_3 O 0.3333 -0.3333 0.7500
loop_
_geom_bond_atom_site_label_1
_geom_bond_atom_site_label_2
_geom_bond_site_symmetry_1
_geom_bond_site_symmetry_2
Fe1 O1 1_555 1_555
O1 C1 1_555 1_555
O2 Fe1 1_555 1_555
N1 Fe1 1_555 1_555
C1 C2 1_555 1_555
C2 C3 1_555 1_555
C3 H1 1_555 1_555
C4 N1 1_555 1_555
H2 C4 1_555 1_555
C5 C4 1_555 1_555
H3 C5 1_555 1_555
C6 C5 1_555 1_555
C7 C6 1_555 1_555
N2 C7 1_555 1_555
O1F C1F 1_555 1_555
C1F C2F 1_555 1_555
C2F C3F 1_555 1_555
C3F C3 1_555 1_555
H1F C3F 1_555 1_555
O1L C1F 1_555 1_555
C3L C2F 1_555 1_555
H1L C3L 1_555 1_555
O1R C1 1_555 1_555
C3R C2 1_555 1_555
H1R C3R 1_555 1_555
N1A C4A 1_555 1_555
C4A H2A 1_555 1_555
C5A C4A 1_555 1_555
H3A C5A 1_555 1_555
C6A C5A 1_555 1_555
C7A N2 1_555 1_555
N1B C4B 1_555 1_555
C4B H2B 1_555 1_555
C5B C4B 1_555 1_555
H3B C5B 1_555 1_555
C6B C5B 1_555 1_555
C7B N2 1_555 1_555
C4I N1A 1_555 1_555
H2I C4I 1_555 1_555
C5I C6A 1_555 1_555
H3I C5I 1_555 1_555
C4J N1 1_555 1_555
H2J C4J 1_555 1_555
C5J C6 1_555 1_555
H3J C5J 1_555 1_555
C4K N1B 1_555 1_555
H2K C4K 1_555 1_555
C5K C6B 1_555 1_555
H3K C5K 1_555 1_555
Fe1A N1A 1_555 1_555
O1A Fe1A 1_555 1_555
C1A O1A 1_555 1_555
C2A C1A 1_555 1_555
C3A C2A 1_555 1_555
H1A C3A 1_555 1_555
O1H C1H 1_555 1_555
C1H C2H 1_555 1_555
C2H C3H 1_555 1_555
C3H C3A 1_555 1_555
H1H C3H 1_555 1_555
O1M C1H 1_555 1_555
C3M C2H 1_555 1_555
H1M C3M 1_555 1_555
O1T C1A 1_555 1_555
C3T C2A 1_555 1_555
H1T C3T 1_555 1_555
Fe1B N1B 1_555 1_555
O1B Fe1B 1_555 1_555
C1B O1B 1_555 1_555
C2B C1B 1_555 1_555
C3B C2B 1_555 1_555
H1B C3B 1_555 1_555
O1G C1G 1_555 1_555
C1G C2G 1_555 1_555
C2G C3G 1_555 1_555
C3G C3B 1_555 1_555
H1G C3G 1_555 1_555
O1N C1G 1_555 1_555
C3N C2G 1_555 1_555
H1N C3N 1_555 1_555
O1S C1B 1_555 1_555
C3S C2B 1_555 1_555
H1S C3S 1_555 1_555
Fe1_2 O1S 1_555 1_555
Fe1A_2 O2 1_555 1_555
Fe1B_2 O1T 1_555 1_555
Fe1B_3 O2 1_555 1_555
Fe1C O1G 1_555 1_555
Fe1C_2 O1L 1_555 1_555
Fe1D O1M 1_555 1_555
Fe1D_2 O1F 1_555 1_555
Fe1E O1N 1_555 1_555
Fe1E_2 O1H 1_555 1_555
O1I Fe1A 1_555 1_555
O1J Fe1 1_555 1_555
O1K Fe1B 1_555 1_555
O1O Fe1 1_555 1_555
O1P Fe1A 1_555 1_555
O1Q Fe1B 1_555 1_555
O1R_2 Fe1A 1_555 1_555
O1S_2 Fe1 1_555 1_555
O1T_2 Fe1B 1_555 1_555
O2_2 Fe1A 1_555 1_555
O2_3 Fe1B 1_555 1_555
C3L C3R 1_555 1_555
O1R Fe1A_2 1_555 1_555
C6A C7A 1_555 1_555
C6B C7B 1_555 1_555
C4I C5I 1_555 1_555
C4J C5J 1_555 1_555
C4K C5K 1_555 1_555
C3M C3T 1_555 1_555
C3N C3S 1_555 1_555
Fe1_2 O2_3 1_555 1_555
Fe1B_2 O2_2 1_555 1_555

#END
