
#######################################################################
#
#                 Cambridge Crystallographic Data Centre
#                                CCDC 
#
#######################################################################
#
# If this CIF has been generated from an entry in the Cambridge 
# Structural Database, then it will include bibliographic, chemical, 
# crystal, experimental, refinement or atomic coordinate data resulting 
# from the CCDC's data processing and validation procedures.
#
#######################################################################

data_KUXSIH02
_chemical_formula_moiety         '(C42 H24 Fe3 N6 O13)n'
_symmetry_cell_setting           hexagonal
_symmetry_space_group_name_H-M   'P 63/m m c'
_symmetry_Int_Tables_number      194
_space_group_name_Hall           '-P 6c 2c'
loop_
_symmetry_equiv_pos_site_id
_symmetry_equiv_pos_as_xyz
1 x,y,z
2 -y,x-y,z
3 -x+y,-x,z
4 -x,-y,1/2+z
5 y,-x+y,1/2+z
6 x-y,x,1/2+z
7 y,x,-z
8 x-y,-y,-z
9 -x,-x+y,-z
10 -y,-x,1/2-z
11 -x+y,y,1/2-z
12 x,x-y,1/2-z
13 -x,-y,-z
14 y,-x+y,-z
15 x-y,x,-z
16 x,y,1/2-z
17 -y,x-y,1/2-z
18 -x+y,-x,1/2-z
19 -y,-x,z
20 -x+y,y,z
21 x,x-y,z
22 y,x,1/2+z
23 x-y,-y,1/2+z
24 -x,-x+y,1/2+z
_cell_length_a                   16.745(3)
_cell_length_b                   16.745(3)
_cell_length_c                   15.088(3)
_cell_angle_alpha                90
_cell_angle_beta                 90
_cell_angle_gamma                120
_cell_volume                     3663.81
loop_
_atom_site_label
_atom_site_type_symbol
_atom_site_fract_x
_atom_site_fract_y
_atom_site_fract_z
Fe1 Fe 0.26824(2) 0.53647(4) 0.7500
N1 N 0.19164(13) 0.3833(3) 0.7500
N2 N 0.0943(3) 0.04717(16) 0.7500
O1 O 0.34628(10) 0.52104(10) 0.65568(11)
O2 O 0.3333 0.6667 0.7500
C1 C 0.42679(10) 0.57321(10) 0.62948(18)
C2 C 0.46461(11) 0.53539(11) 0.5617(2)
C3 C 0.41217(18) 0.44738(18) 0.5306(2)
H1 H 0.3521 0.4109 0.5510
C4 C 0.2356(3) 0.3347(3) 0.7500
H2 H 0.2997 0.3667 0.7500
C5 C 0.1906(3) 0.2398(3) 0.7500
H3 H 0.2237 0.2089 0.7500
C6 C 0.09576(19) 0.1915(4) 0.7500
C7 C 0.04455(19) 0.0891(4) 0.7500
N1A N -0.3833(3) -0.19166(33) 0.7500
N2A N -0.04717(16) 0.04713(34) 0.7500
C4A C -0.3347(3) -0.0991(4) 0.7500
H2A H -0.3667 -0.0670 0.7500
C5A C -0.2398(3) -0.0492(4) 0.7500
H3A H -0.2089 0.0148 0.7500
C6A C -0.1915(4) -0.09574(44) 0.7500
C7A C -0.0891(4) -0.04455(44) 0.7500
N1B N 0.19166(33) -0.19164(13) 0.7500
N2B N -0.04713(34) -0.0943(3) 0.7500
C4B C 0.0991(4) -0.2356(3) 0.7500
H2B H 0.0670 -0.2997 0.7500
C5B C 0.0492(4) -0.1906(3) 0.7500
H3B H -0.0148 -0.2237 0.7500
C6B C 0.09574(44) -0.09576(19) 0.7500
C7B C 0.04455(44) -0.04455(19) 0.7500
C4J C 0.0991(4) 0.3347(3) 0.7500
H2J H 0.0670 0.3667 0.7500
C5J C 0.0492(4) 0.2398(3) 0.7500
H3J H -0.0148 0.2089 0.7500
C4K C 0.2356(3) -0.0991(4) 0.7500
H2K H 0.2997 -0.0670 0.7500
C5K C 0.1906(3) -0.0492(4) 0.7500
H3K H 0.2237 0.0148 0.7500
C4I C -0.3347(3) -0.2356(3) 0.7500
H2I H -0.3667 -0.2997 0.7500
C5I C -0.2398(3) -0.1906(3) 0.7500
H3I H -0.2089 -0.2237 0.7500
O1F O 0.52104(10) 0.34628(10) 0.34432(11)
C1F C 0.57321(10) 0.42679(10) 0.37052(18)
C2F C 0.53539(11) 0.46461(11) 0.4383(2)
C3F C 0.44738(18) 0.41217(18) 0.4694(2)
H1F H 0.4109 0.3521 0.4490
O1L O 0.65372(10) 0.47896(10) 0.34432(11)
C3L C 0.58783(18) 0.55262(18) 0.4694(2)
H1L H 0.6479 0.5891 0.4490
O1R O 0.47896(10) 0.65372(10) 0.65568(11)
C3R C 0.55262(18) 0.58783(18) 0.5306(2)
H1R H 0.5891 0.6479 0.5510
Fe1A Fe -0.53647(4) -0.26823(4) 0.7500
O1A O -0.52104(10) -0.17476(14) 0.65568(11)
C1A C -0.57321(10) -0.14642(14) 0.62948(18)
C2A C -0.53539(11) -0.07078(16) 0.5617(2)
C3A C -0.44738(18) -0.03521(25) 0.5306(2)
H1A H -0.4109 -0.0588 0.5510
O1H O -0.34628(10) 0.17476(14) 0.34432(11)
C1H C -0.42679(10) 0.14642(14) 0.37052(18)
C2H C -0.46461(11) 0.07078(16) 0.4383(2)
C3H C -0.41217(18) 0.03521(25) 0.4694(2)
H1H H -0.3521 0.0588 0.4490
O1M O -0.47896(10) 0.17476(14) 0.34432(11)
C3M C -0.55262(18) 0.03521(25) 0.4694(2)
H1M H -0.5891 0.0588 0.4490
O1T O -0.65372(10) -0.17476(14) 0.65568(11)
C3T C -0.58783(18) -0.03521(25) 0.5306(2)
H1T H -0.6479 -0.0588 0.5510
Fe1B Fe 0.26823(4) -0.26824(2) 0.7500
O1B O 0.17476(14) -0.34628(10) 0.65568(11)
C1B C 0.14642(14) -0.42679(10) 0.62948(18)
C2B C 0.07078(16) -0.46461(11) 0.5617(2)
C3B C 0.03521(25) -0.41217(18) 0.5306(2)
H1B H 0.0588 -0.3521 0.5510
O1G O -0.17476(14) -0.52104(10) 0.34432(11)
C1G C -0.14642(14) -0.57321(10) 0.37052(18)
C2G C -0.07078(16) -0.53539(11) 0.4383(2)
C3G C -0.03521(25) -0.44738(18) 0.4694(2)
H1G H -0.0588 -0.4109 0.4490
O1N O -0.17476(14) -0.65372(10) 0.34432(11)
C3N C -0.03521(25) -0.58783(18) 0.4694(2)
H1N H -0.0588 -0.6479 0.4490
O1S O 0.17476(14) -0.47896(10) 0.65568(11)
C3S C 0.03521(25) -0.55262(18) 0.5306(2)
H1S H 0.0588 -0.5891 0.5510
Fe1_2 Fe 0.26824(2) -0.46353(4) 0.7500
Fe1A_2 Fe 0.46353(4) 0.73177(4) 0.7500
Fe1B_2 Fe -0.73177(4) -0.26824(2) 0.7500
Fe1B_3 Fe 0.26823(4) 0.73176(2) 0.7500
Fe1C Fe -0.26824(2) -0.53647(4) 0.2500
Fe1C_2 Fe 0.73176(2) 0.46353(4) 0.2500
Fe1D Fe -0.46353(4) 0.26823(4) 0.2500
Fe1D_2 Fe 0.53647(4) 0.26823(4) 0.2500
Fe1E Fe -0.26823(4) -0.73176(2) 0.2500
Fe1E_2 Fe -0.26823(4) 0.26824(2) 0.2500
O1I O -0.52104(10) -0.34628(10) 0.84432(11)
O1J O 0.17476(14) 0.52104(10) 0.84432(11)
O1K O 0.34628(10) -0.17476(14) 0.84432(11)
O1O O 0.34628(10) 0.52104(10) 0.84432(11)
O1P O -0.52104(10) -0.17476(14) 0.84432(11)
O1Q O 0.17476(14) -0.34628(10) 0.84432(11)
O1R_2 O -0.52104(10) -0.34628(10) 0.65568(11)
O1S_2 O 0.17476(14) 0.52104(10) 0.65568(11)
O1T_2 O 0.34628(10) -0.17476(14) 0.65568(11)
O2_2 O -0.6667 -0.3333 0.7500
O2_3 O 0.3333 -0.3333 0.7500
loop_
_geom_bond_atom_site_label_1
_geom_bond_atom_site_label_2
_geom_bond_site_symmetry_1
_geom_bond_site_symmetry_2
Fe1 N1 1_555 1_555
N1 C4 1_555 1_555
N2 C7 1_555 1_555
O1 Fe1 1_555 1_555
O2 Fe1 1_555 1_555
C1 O1 1_555 1_555
C2 C1 1_555 1_555
C3 C2 1_555 1_555
H1 C3 1_555 1_555
C4 H2 1_555 1_555
C5 C4 1_555 1_555
H3 C5 1_555 1_555
C6 C5 1_555 1_555
C7 C6 1_555 1_555
N1A C4A 1_555 1_555
N2A C7 1_555 1_555
C4A H2A 1_555 1_555
C5A C4A 1_555 1_555
H3A C5A 1_555 1_555
C6A C5A 1_555 1_555
C7A N2A 1_555 1_555
N1B C4B 1_555 1_555
N2B C7A 1_555 1_555
C4B H2B 1_555 1_555
C5B C4B 1_555 1_555
H3B C5B 1_555 1_555
C6B C5B 1_555 1_555
C7B N2 1_555 1_555
C4J N1 1_555 1_555
H2J C4J 1_555 1_555
C5J C6 1_555 1_555
H3J C5J 1_555 1_555
C4K N1B 1_555 1_555
H2K C4K 1_555 1_555
C5K C6B 1_555 1_555
H3K C5K 1_555 1_555
C4I N1A 1_555 1_555
H2I C4I 1_555 1_555
C5I C6A 1_555 1_555
H3I C5I 1_555 1_555
O1F C1F 1_555 1_555
C1F C2F 1_555 1_555
C2F C3F 1_555 1_555
C3F C3 1_555 1_555
H1F C3F 1_555 1_555
O1L C1F 1_555 1_555
C3L C2F 1_555 1_555
H1L C3L 1_555 1_555
O1R C1 1_555 1_555
C3R C2 1_555 1_555
H1R C3R 1_555 1_555
Fe1A N1A 1_555 1_555
O1A Fe1A 1_555 1_555
C1A O1A 1_555 1_555
C2A C1A 1_555 1_555
C3A C2A 1_555 1_555
H1A C3A 1_555 1_555
O1H C1H 1_555 1_555
C1H C2H 1_555 1_555
C2H C3H 1_555 1_555
C3H C3A 1_555 1_555
H1H C3H 1_555 1_555
O1M C1H 1_555 1_555
C3M C2H 1_555 1_555
H1M C3M 1_555 1_555
O1T C1A 1_555 1_555
C3T C2A 1_555 1_555
H1T C3T 1_555 1_555
Fe1B N1B 1_555 1_555
O1B Fe1B 1_555 1_555
C1B O1B 1_555 1_555
C2B C1B 1_555 1_555
C3B C2B 1_555 1_555
H1B C3B 1_555 1_555
O1G C1G 1_555 1_555
C1G C2G 1_555 1_555
C2G C3G 1_555 1_555
C3G C3B 1_555 1_555
H1G C3G 1_555 1_555
O1N C1G 1_555 1_555
C3N C2G 1_555 1_555
H1N C3N 1_555 1_555
O1S C1B 1_555 1_555
C3S C2B 1_555 1_555
H1S C3S 1_555 1_555
Fe1_2 O1S 1_555 1_555
Fe1A_2 O2 1_555 1_555
Fe1B_2 O1T 1_555 1_555
Fe1B_3 O2 1_555 1_555
Fe1C O1G 1_555 1_555
Fe1C_2 O1L 1_555 1_555
Fe1D O1M 1_555 1_555
Fe1D_2 O1F 1_555 1_555
Fe1E O1N 1_555 1_555
Fe1E_2 O1H 1_555 1_555
O1I Fe1A 1_555 1_555
O1J Fe1 1_555 1_555
O1K Fe1B 1_555 1_555
O1O Fe1 1_555 1_555
O1P Fe1A 1_555 1_555
O1Q Fe1B 1_555 1_555
O1R_2 Fe1A 1_555 1_555
O1S_2 Fe1 1_555 1_555
O1T_2 Fe1B 1_555 1_555
O2_2 Fe1A 1_555 1_555
O2_3 Fe1B 1_555 1_555
C6A C7A 1_555 1_555
N2B C7B 1_555 1_555
C6B C7B 1_555 1_555
C4J C5J 1_555 1_555
C4K C5K 1_555 1_555
C4I C5I 1_555 1_555
C3L C3R 1_555 1_555
O1R Fe1A_2 1_555 1_555
C3M C3T 1_555 1_555
C3N C3S 1_555 1_555
Fe1_2 O2_3 1_555 1_555
Fe1B_2 O2_2 1_555 1_555

#END
