
#######################################################################
#
#                 Cambridge Crystallographic Data Centre
#                                CCDC 
#
#######################################################################
#
# If this CIF has been generated from an entry in the Cambridge 
# Structural Database, then it will include bibliographic, chemical, 
# crystal, experimental, refinement or atomic coordinate data resulting 
# from the CCDC's data processing and validation procedures.
#
#######################################################################

data_KINLAW
_chemical_formula_moiety         'C32 H20 Co3 N9 O11'
_symmetry_cell_setting           orthorhombic
_symmetry_space_group_name_H-M   'P n n a'
_symmetry_Int_Tables_number      52
_space_group_name_Hall           '-P 2a 2bc'
loop_
_symmetry_equiv_pos_site_id
_symmetry_equiv_pos_as_xyz
1 x,y,z
2 1/2-x,-y,z
3 1/2-x,1/2+y,1/2-z
4 x,1/2-y,1/2-z
5 -x,-y,-z
6 1/2+x,y,-z
7 1/2+x,1/2-y,1/2+z
8 -x,1/2+y,1/2+z
_cell_length_a                   8.733(2)
_cell_length_b                   22.980(5)
_cell_length_c                   16.283(4)
_cell_angle_alpha                90
_cell_angle_beta                 90
_cell_angle_gamma                90
_cell_volume                     3267.74
loop_
_atom_site_label
_atom_site_type_symbol
_atom_site_fract_x
_atom_site_fract_y
_atom_site_fract_z
O5 O -0.2044(14) 0.2500 0.2500
H10 H -0.299(2) 0.2500 0.2500
Co1 Co 0.27113(13) 0.2500 0.2500
O1 O 0.2083(5) 0.3362(2) 0.2543(3)
O2 O 0.0780(5) 0.28061(19) 0.3387(3)
N1 N 0.4246(6) 0.2440(2) 0.3450(3)
N2 N 0.5964(6) 0.1998(2) 0.4229(3)
N3 N 0.9669(6) 0.0147(3) 0.5275(4)
C1 C 0.4418(8) 0.2754(3) 0.4174(4)
H1 H 0.3898 0.3105 0.4305
C2 C 0.5434(8) 0.2482(3) 0.4661(5)
H2 H 0.5735 0.2598 0.5197
C3 C 0.5187(7) 0.1998(3) 0.3508(4)
H3 H 0.5310 0.1712 0.3093
C4 C 0.6990(7) 0.1557(3) 0.4499(4)
C5 C 0.7826(8) 0.1250(3) 0.3923(5)
H4 H 0.7794 0.1361 0.3362
C6 C 0.8709(8) 0.0780(3) 0.4163(5)
H5 H 0.9247 0.0559 0.3763
C7 C 0.8810(7) 0.0633(3) 0.4980(5)
C8 C 0.8010(8) 0.0951(3) 0.5556(4)
H6 H 0.8087 0.0852 0.6121
C9 C 0.7098(8) 0.1414(3) 0.5320(4)
H7 H 0.6550 0.1632 0.5720
C10 C 0.1027(7) 0.3286(3) 0.3076(4)
C11 C 0.0048(7) 0.3801(3) 0.3283(4)
C12 C -0.1175(7) 0.3753(3) 0.3831(4)
H8 H -0.1365 0.3395 0.4104
C13 C -0.2114(6) 0.4231(3) 0.3973(3)
C14 C -0.1925(7) 0.4754(3) 0.3568(4)
C15 C -0.0630(8) 0.4794(2) 0.3077(4)
C16 C 0.0337(8) 0.4333(3) 0.2925(4)
H9 H 0.1199 0.4382 0.2576
O3 O 0.1153(5) 0.5384(5) 0.2421(10)
O4 O -0.1124(6) 0.5591(4) 0.2339(7)
N4 N -0.0171(7) 0.5229(3) 0.2526(6)
O1A O -0.7083(5) 0.6638(2) 0.2543(3)
O2A O -0.5780(5) 0.71939(19) 0.3387(3)
C10A C -0.6027(7) 0.6714(3) 0.3076(4)
C11A C -0.5048(7) 0.6199(3) 0.3283(4)
C12A C -0.3825(7) 0.6247(3) 0.3831(4)
H8A H -0.3635 0.6605 0.4104
C13A C -0.2886(6) 0.5769(3) 0.3973(3)
C14A C -0.3075(7) 0.5246(3) 0.3568(4)
C15A C -0.4370(8) 0.5206(2) 0.3077(4)
C16A C -0.5337(8) 0.5667(3) 0.2925(4)
H9A H -0.6199 0.5618 0.2576
O3A O -0.6153(5) 0.4616(5) 0.2421(10)
O4A O -0.3876(6) 0.4409(4) 0.2339(7)
N4A N -0.4829(7) 0.4771(3) 0.2526(6)
N1D N 1.5754(6) -0.2440(2) 0.6550(3)
N2D N 1.4036(6) -0.1998(2) 0.5771(3)
N3D N 1.0331(6) -0.0147(3) 0.4725(4)
C1D C 1.5582(8) -0.2754(3) 0.5826(4)
H1D H 1.6102 -0.3105 0.5695
C2D C 1.4566(8) -0.2482(3) 0.5339(5)
H2D H 1.4265 -0.2598 0.4803
C3D C 1.4813(7) -0.1998(3) 0.6492(4)
H3D H 1.4690 -0.1712 0.6907
C4D C 1.3010(7) -0.1557(3) 0.5501(4)
C5D C 1.2174(8) -0.1250(3) 0.6077(5)
H4D H 1.2206 -0.1361 0.6638
C6D C 1.1291(8) -0.0780(3) 0.5837(5)
H5D H 1.0753 -0.0559 0.6237
C7D C 1.1190(7) -0.0633(3) 0.5020(5)
C8D C 1.1990(8) -0.0951(3) 0.4444(4)
H6D H 1.1913 -0.0852 0.3879
C9D C 1.2902(8) -0.1414(3) 0.4680(4)
H7D H 1.3450 -0.1632 0.4280
Co1A Co -0.77113(13) 0.7500 0.2500
Co1D Co 1.72887(13) -0.2500 0.7500
O1C O 0.2083(5) 0.1638(2) 0.2457(3)
O2C O 0.0780(5) 0.21939(19) 0.1613(3)
N1C N 0.4246(6) 0.2560(2) 0.1550(3)
loop_
_geom_bond_atom_site_label_1
_geom_bond_atom_site_label_2
_geom_bond_site_symmetry_1
_geom_bond_site_symmetry_2
Co1 O1 1_555 1_555
O1 C10 1_555 1_555
O2 Co1 1_555 1_555
N1 Co1 1_555 1_555
N2 C2 1_555 1_555
N3 C7 1_555 1_555
C1 N1 1_555 1_555
H1 C1 1_555 1_555
C2 C1 1_555 1_555
H2 C2 1_555 1_555
C3 N1 1_555 1_555
H3 C3 1_555 1_555
C4 N2 1_555 1_555
C5 C4 1_555 1_555
H4 C5 1_555 1_555
C6 C5 1_555 1_555
H5 C6 1_555 1_555
C7 C6 1_555 1_555
C8 C7 1_555 1_555
H6 C8 1_555 1_555
C9 C4 1_555 1_555
H7 C9 1_555 1_555
C10 O2 1_555 1_555
C11 C10 1_555 1_555
C12 C11 1_555 1_555
H8 C12 1_555 1_555
C13 C12 1_555 1_555
C14 C13 1_555 1_555
C15 C14 1_555 1_555
C16 C11 1_555 1_555
H9 C16 1_555 1_555
O3 N4 1_555 1_555
O4 N4 1_555 1_555
N4 C15 1_555 1_555
O5 H10 1_555 1_555
O1A C10A 1_555 1_555
O2A C10A 1_555 1_555
C10A C11A 1_555 1_555
C11A C12A 1_555 1_555
C12A H8A 1_555 1_555
C13A C12A 1_555 1_555
C14A C14 1_555 1_555
C15A C14A 1_555 1_555
C16A C11A 1_555 1_555
H9A C16A 1_555 1_555
O3A N4A 1_555 1_555
O4A N4A 1_555 1_555
N4A C15A 1_555 1_555
N1D C1D 1_555 1_555
N2D C2D 1_555 1_555
N3D N3 1_555 1_555
C1D H1D 1_555 1_555
C2D C1D 1_555 1_555
H2D C2D 1_555 1_555
C3D N1D 1_555 1_555
H3D C3D 1_555 1_555
C4D N2D 1_555 1_555
C5D C4D 1_555 1_555
H4D C5D 1_555 1_555
C6D C5D 1_555 1_555
H5D C6D 1_555 1_555
C7D N3D 1_555 1_555
C8D C7D 1_555 1_555
H6D C8D 1_555 1_555
C9D C4D 1_555 1_555
H7D C9D 1_555 1_555
Co1A O1A 1_555 1_555
Co1D N1D 1_555 1_555
O1C Co1 1_555 1_555
O2C Co1 1_555 1_555
N1C Co1 1_555 1_555
N2 C3 1_555 1_555
C8 C9 1_555 1_555
C15 C16 1_555 1_555
O2A Co1A 1_555 1_555
C13A C14A 1_555 1_555
C15A C16A 1_555 1_555
N2D C3D 1_555 1_555
C6D C7D 1_555 1_555
C8D C9D 1_555 1_555

#END
