
#######################################################################
#
#                 Cambridge Crystallographic Data Centre
#                                CCDC 
#
#######################################################################
#
# If this CIF has been generated from an entry in the Cambridge 
# Structural Database, then it will include bibliographic, chemical, 
# crystal, experimental, refinement or atomic coordinate data resulting 
# from the CCDC's data processing and validation procedures.
#
#######################################################################

data_RAWZIA
_chemical_formula_moiety         '(C10 H5 Al1 O9)n'
_symmetry_cell_setting           monoclinic
_symmetry_space_group_name_H-M   'C 2/c'
_symmetry_Int_Tables_number      15
_space_group_name_Hall           '-C 2yc'
loop_
_symmetry_equiv_pos_site_id
_symmetry_equiv_pos_as_xyz
1 x,y,z
2 -x,y,1/2-z
3 1/2+x,1/2+y,z
4 1/2-x,1/2+y,1/2-z
5 -x,-y,-z
6 x,-y,1/2+z
7 1/2-x,1/2-y,-z
8 1/2+x,1/2-y,1/2+z
_cell_length_a                   17.544828(81)
_cell_length_b                   13.578129(82)
_cell_length_c                   6.664200(41)
_cell_angle_alpha                90
_cell_angle_beta                 113.19565(47)
_cell_angle_gamma                90
_cell_volume                     1459.25
loop_
_atom_site_label
_atom_site_type_symbol
_atom_site_fract_x
_atom_site_fract_y
_atom_site_fract_z
Al1 Al 0.00000 0.00000 0.00000
O1 O 0.00000 -0.06207(37) -0.25
O2 O -0.09032(23) 0.08077(30) -0.16653(75)
O3 O -0.07715(23) 0.09654(29) -0.48952(73)
O4 O -0.26171(22) 0.00569(36) -0.25178(79)
O5 O -0.24454(22) 0.12453(23) -0.00716(45)
C1 C -0.18593(18) 0.18053(45) -0.44031(53)
C2 C -0.24377(18) 0.17603(42) -0.34704(52)
C3 C -0.18991(34) 0.25377(49) -0.5874(10)
H1 H -0.151 0.257 -0.66
C4 C -0.10859(40) 0.11366(45) -0.3520(12)
C5 C -0.25041(30) 0.09465(41) -0.20052(52)
Al1A Al 0.00000 -0.00000 -0.50000
Al1B Al -0.50000 0.50000 -1.00000
Al1C Al -0.50000 0.50000 -0.50000
O1D O 0.00000 0.06207(37) 0.25
O2F O -0.40968(23) 0.41923(30) -0.83347(75)
O2D O 0.09032(23) -0.08077(30) 0.16653(75)
O3F O -0.42285(23) 0.40346(29) -0.51048(73)
O3A O 0.07715(23) 0.09654(29) -0.01048(73)
O3E O -0.07715(23) -0.09654(29) 0.01048(73)
O4F O -0.23829(22) 0.49431(36) -0.74822(79)
O5F O -0.25546(22) 0.37547(23) -0.99284(45)
C1F C -0.31407(18) 0.31947(45) -0.55969(53)
C2F C -0.25623(18) 0.32397(42) -0.65296(52)
C3F C -0.31009(34) 0.24623(49) -0.4126(10)
H1F H -0.349 0.243 -0.34
C4F C -0.39141(40) 0.38634(45) -0.6480(12)
C5F C -0.24959(30) 0.40535(41) -0.79948(52)
loop_
_geom_bond_atom_site_label_1
_geom_bond_atom_site_label_2
_geom_bond_site_symmetry_1
_geom_bond_site_symmetry_2
Al1 O1 1_555 1_555
O1 Al1A 1_555 1_555
O2 Al1 1_555 1_555
O3 C4 1_555 1_555
O4 C5 1_555 1_555
O5 C5 1_555 1_555
C1 C2 1_555 1_555
C2 C5 1_555 1_555
C3 C1 1_555 1_555
H1 C3 1_555 1_555
C4 O2 1_555 1_555
Al1A O3 1_555 1_555
Al1B O2F 1_555 1_555
Al1C O3F 1_555 1_555
O1D Al1 1_555 1_555
O2F C4F 1_555 1_555
O2D Al1 1_555 1_555
O3F C4F 1_555 1_555
O3A Al1 1_555 1_555
O3E Al1 1_555 1_555
O4F C5F 1_555 1_555
O5F C5F 1_555 1_555
C1F C2F 1_555 1_555
C2F C3 1_555 1_555
C3F C2 1_555 1_555
H1F C3F 1_555 1_555
C4F C1F 1_555 1_555
C5F C2F 1_555 1_555
C1 C4 1_555 1_555
C1F C3F 1_555 1_555

#END
