
#######################################################################
#
#                 Cambridge Crystallographic Data Centre
#                                CCDC 
#
#######################################################################
#
# If this CIF has been generated from an entry in the Cambridge 
# Structural Database, then it will include bibliographic, chemical, 
# crystal, experimental, refinement or atomic coordinate data resulting 
# from the CCDC's data processing and validation procedures.
#
#######################################################################

data_OPOCUS
_chemical_formula_moiety         '(C35 H57 Ag6 Cl5 N16 O24)n'
_symmetry_cell_setting           monoclinic
_symmetry_space_group_name_H-M   'P 21/c'
_symmetry_Int_Tables_number      14
_space_group_name_Hall           '-P 2ybc'
loop_
_symmetry_equiv_pos_site_id
_symmetry_equiv_pos_as_xyz
1 x,y,z
2 -x,1/2+y,1/2-z
3 -x,-y,-z
4 x,1/2-y,1/2+z
_cell_length_a                   14.8233(9)
_cell_length_b                   20.5787(13)
_cell_length_c                   18.5579(12)
_cell_angle_alpha                90
_cell_angle_beta                 104.6740(10)
_cell_angle_gamma                90
_cell_volume                     5476.34
loop_
_atom_site_label
_atom_site_type_symbol
_atom_site_fract_x
_atom_site_fract_y
_atom_site_fract_z
Ag1 Ag 0.26418(3) 0.41716(2) 0.62746(2)
Ag2 Ag 0.49324(3) 0.33821(2) 0.38369(3)
Ag3 Ag -0.12134(3) 0.25746(2) 0.57740(3)
Ag4 Ag 0.13846(4) 0.18113(3) 0.40039(3)
Ag5 Ag 0.09534(4) 0.46918(3) 0.30100(3)
Ag6 Ag 0.63190(4) 0.45155(3) 0.87683(3)
C1 C 0.0031(6) 0.1860(4) 0.4831(5)
C2 C -0.0820(5) 0.1788(4) 0.4141(5)
C3 C -0.1158(7) 0.2317(5) 0.3771(6)
H1 H -0.0896 0.2719 0.3932
C4 C -0.1885(7) 0.2283(5) 0.3156(6)
H2 H -0.2095 0.2668 0.2908
C5 C -0.2325(6) 0.1725(5) 0.2882(4)
H3 H -0.2832 0.1724 0.2466
C6 C -0.1963(5) 0.1118(4) 0.3274(4)
C7 C -0.2343(6) 0.0525(5) 0.3014(5)
H4 H -0.2840 0.0508 0.2592
C8 C -0.2004(5) -0.0028(4) 0.3361(4)
C9 C -0.1293(6) -0.0013(4) 0.4029(5)
H5 H -0.1093 -0.0396 0.4285
C10 C -0.0879(6) 0.0590(4) 0.4311(4)
H6 H -0.0406 0.0606 0.4749
C11 C -0.1195(4) 0.1154(3) 0.3919(4)
C12 C 0.1987(4) 0.4198(3) 0.4533(3)
H7 H 0.1375 0.4237 0.4627
H8 H 0.2273 0.4626 0.4593
C13 C 0.1450(4) 0.3322(3) 0.3675(3)
H9 H 0.1380 0.3171 0.3169
H10 H 0.0834 0.3347 0.3765
C14 C 0.2964(4) 0.2822(3) 0.4068(3)
H11 H 0.2913 0.2666 0.3566
H12 H 0.3343 0.2516 0.4412
C15 C 0.3497(4) 0.3697(3) 0.4924(3)
H13 H 0.3795 0.4120 0.4990
H14 H 0.3885 0.3399 0.5275
C16 C 0.2838(4) 0.3915(3) 0.3626(3)
H15 H 0.2781 0.3758 0.3123
H16 H 0.3131 0.4340 0.3669
C17 C 0.2123(4) 0.3093(3) 0.4970(3)
H17 H 0.2497 0.2789 0.5321
H18 H 0.1511 0.3116 0.5068
C18 C 0.3185(4) 0.5273(3) 0.7512(3)
H19 H 0.2630 0.5482 0.7211
H20 H 0.2993 0.4969 0.7843
C19 C 0.4083(4) 0.6222(3) 0.7458(4)
H21 H 0.4483 0.6549 0.7753
H22 H 0.3539 0.6439 0.7152
C20 C 0.5422(4) 0.5553(3) 0.7458(3)
H23 H 0.5769 0.5331 0.7154
H24 H 0.5829 0.5876 0.7755
C21 C 0.4502(4) 0.4592(3) 0.7500(3)
H25 H 0.4309 0.4283 0.7827
H26 H 0.4830 0.4356 0.7193
C22 C 0.3975(4) 0.5386(3) 0.6529(3)
H27 H 0.4300 0.5157 0.6213
H28 H 0.3434 0.5596 0.6209
C23 C 0.4613(4) 0.5445(3) 0.8418(3)
H29 H 0.4423 0.5147 0.8756
H30 H 0.5018 0.5770 0.8714
C24 C -0.0698(4) 0.3899(3) 0.6591(3)
H31 H -0.0948 0.4057 0.6088
H32 H -0.1218 0.3811 0.6805
C25 C 0.0280(4) 0.4159(3) 0.7806(3)
H33 H -0.0229 0.4082 0.8037
H34 H 0.0689 0.4483 0.8099
C26 C 0.0622(4) 0.3435(3) 0.6256(3)
H35 H 0.0395 0.3586 0.5747
H36 H 0.0973 0.3038 0.6246
C27 C 0.1587(4) 0.3685(3) 0.7461(3)
H37 H 0.1945 0.3291 0.7457
H38 H 0.1996 0.4006 0.7759
C28 C 0.0178(4) 0.3058(3) 0.7335(3)
H39 H -0.0340 0.2969 0.7551
H40 H 0.0518 0.2656 0.7332
C29 C 0.0697(4) 0.4524(3) 0.6702(3)
H41 H 0.1098 0.4856 0.6986
H42 H 0.0462 0.4682 0.6197
C30 C 0.5355(4) 0.2308(3) 0.5150(3)
H43 H 0.5340 0.2687 0.5457
H44 H 0.4719 0.2159 0.4955
C31 C 0.5775(4) 0.1901(3) 0.4066(3)
H45 H 0.6043 0.2008 0.3655
H46 H 0.5142 0.1751 0.3859
C32 C 0.6737(4) 0.2707(3) 0.4830(3)
H47 H 0.7016 0.2811 0.4425
H48 H 0.6741 0.3098 0.5123
C33 C 0.5921(4) 0.1224(3) 0.5154(3)
H49 H 0.5294 0.1057 0.4967
H50 H 0.6292 0.0890 0.5462
C34 C 0.6848(4) 0.2031(3) 0.5912(3)
H51 H 0.7209 0.1697 0.6226
H52 H 0.6836 0.2411 0.6218
C35 C 0.7285(4) 0.1616(3) 0.4830(3)
H53 H 0.7567 0.1723 0.4427
H54 H 0.7656 0.1276 0.5126
N1 N 0.2566(3) 0.3746(2) 0.5086(2)
N2 N 0.1884(3) 0.3975(2) 0.3763(3)
N3 N 0.3426(3) 0.3467(2) 0.4161(3)
N4 N 0.2027(3) 0.2852(2) 0.4202(3)
N5 N 0.3662(3) 0.4912(2) 0.7016(3)
N6 N 0.3792(3) 0.5763(2) 0.7951(3)
N7 N 0.4599(3) 0.5886(2) 0.6963(3)
N8 N 0.5139(3) 0.5081(2) 0.7956(3)
N9 N -0.0099(3) 0.4406(2) 0.7037(3)
N10 N -0.0181(3) 0.3291(2) 0.6566(3)
N11 N 0.1244(3) 0.3928(2) 0.6691(2)
N12 N 0.0805(3) 0.3547(2) 0.7799(2)
N13 N 0.5756(3) 0.2491(2) 0.4519(3)
N14 N 0.6327(3) 0.1372(2) 0.4514(3)
N15 N 0.7298(3) 0.2199(2) 0.5304(3)
N16 N 0.5895(3) 0.1798(2) 0.5605(3)
O1 O 0.0684(4) 0.1469(3) 0.4906(3)
O2 O 0.0044(5) 0.2326(4) 0.5237(5)
O3 O -0.2337(4) -0.0605(3) 0.3043(3)
H55 H -0.2117 -0.0904 0.3326
O4 O 0.0307(6) 0.3847(6) 0.2090(6)
O5 O -0.1122(7) 0.4331(4) 0.2050(5)
O6 O -0.0873(6) 0.3801(5) 0.1027(4)
O7 O -0.1007(7) 0.3224(4) 0.2021(5)
O8 O 0.5739(5) 0.4837(4) 0.5938(5)
O9 O 0.7086(5) 0.4323(6) 0.5987(6)
O10 O 0.5772(6) 0.4064(4) 0.5057(4)
O11 O 0.5882(10) 0.3779(6) 0.6215(5)
O20 O 0.3391(9) 0.3117(5) 0.6979(10)
O21 O 0.3853(8) 0.2344(7) 0.6385(5)
O22 O 0.4945(5) 0.2857(5) 0.7264(5)
O23 O 0.3880(6) 0.2161(4) 0.7564(5)
Cl1 Cl -0.06738(14) 0.38231(10) 0.18070(11)
Cl2 Cl 0.61446(12) 0.42556(8) 0.57830(9)
Cl5 Cl 0.40012(14) 0.26607(9) 0.71036(12)
Ag2B Ag 0.50676(3) 0.66179(2) 0.61631(3)
Ag3_2 Ag 0.87866(3) 0.25746(2) 0.57740(3)
Ag4C Ag 0.13846(4) 0.31887(3) 0.90039(3)
Ag5B Ag -0.09534(4) 0.53082(3) 0.69900(3)
Ag6C Ag -0.36810(4) 0.04845(3) 0.37683(3)
Ag6C_2 Ag 0.63190(4) 0.04845(3) 0.37683(3)
C7C C 0.7657(6) 0.4475(5) 0.8014(5)
H4C H 0.7160 0.4492 0.7592
N7B N 0.5401(3) 0.4114(2) 0.3037(3)
N9B N 0.0099(3) 0.5594(2) 0.2963(3)
N12C N 0.0805(3) 0.1453(2) 0.2799(2)
N14C N 0.6327(3) 0.3628(2) 0.9514(3)
N15_2 N -0.2702(3) 0.2199(2) 0.5304(3)
O12 O 0.9703(5) 0.4119(5) 0.4503(7)
O13 O 0.8335(4) 0.4706(3) 0.4370(4)
O14 O 0.8504(5) 0.3647(3) 0.4835(4)
O15 O 0.8411(10) 0.3863(5) 0.3632(4)
Cl3 Cl 0.87672(12) 0.40972(9) 0.43591(9)
O16 O 0.6902(8) -0.1366(4) 0.5031(6)
O17 O 0.6369(7) -0.0968(7) 0.5936(6)
O18 O 0.6354(9) -0.0353(4) 0.4951(7)
O19 O 0.7722(6) -0.0574(6) 0.5780(5)
Cl4 Cl 0.68712(13) -0.07790(10) 0.53667(12)
O24 O -0.1849(6) -0.1645(5) 0.3690(5)
H56 H -0.1421 -0.1789 0.4051
H57 H -0.2371 -0.1824 0.3673
loop_
_geom_bond_atom_site_label_1
_geom_bond_atom_site_label_2
_geom_bond_site_symmetry_1
_geom_bond_site_symmetry_2
Ag1 N1 1_555 1_555
Ag2 N3 1_555 1_555
Ag3 N10 1_555 1_555
Ag4 N4 1_555 1_555
Ag5 N2 1_555 1_555
Ag6 N8 1_555 1_555
C1 C2 1_555 1_555
C2 C3 1_555 1_555
C3 H1 1_555 1_555
C4 C3 1_555 1_555
H2 C4 1_555 1_555
C5 C4 1_555 1_555
H3 C5 1_555 1_555
C6 C5 1_555 1_555
C7 C6 1_555 1_555
H4 C7 1_555 1_555
C8 C7 1_555 1_555
C9 C8 1_555 1_555
H5 C9 1_555 1_555
C10 C9 1_555 1_555
H6 C10 1_555 1_555
C11 C2 1_555 1_555
C12 H7 1_555 1_555
H8 C12 1_555 1_555
C13 H9 1_555 1_555
H10 C13 1_555 1_555
C14 H11 1_555 1_555
H12 C14 1_555 1_555
C15 H13 1_555 1_555
H14 C15 1_555 1_555
C16 H15 1_555 1_555
H16 C16 1_555 1_555
C17 H17 1_555 1_555
H18 C17 1_555 1_555
C18 H19 1_555 1_555
H20 C18 1_555 1_555
C19 H21 1_555 1_555
H22 C19 1_555 1_555
C20 H23 1_555 1_555
H24 C20 1_555 1_555
C21 H25 1_555 1_555
H26 C21 1_555 1_555
C22 H27 1_555 1_555
H28 C22 1_555 1_555
C23 H29 1_555 1_555
H30 C23 1_555 1_555
C24 H31 1_555 1_555
H32 C24 1_555 1_555
C25 H33 1_555 1_555
H34 C25 1_555 1_555
C26 H35 1_555 1_555
H36 C26 1_555 1_555
C27 H37 1_555 1_555
H38 C27 1_555 1_555
C28 H39 1_555 1_555
H40 C28 1_555 1_555
C29 H41 1_555 1_555
H42 C29 1_555 1_555
C30 H43 1_555 1_555
H44 C30 1_555 1_555
C31 H45 1_555 1_555
H46 C31 1_555 1_555
C32 H47 1_555 1_555
H48 C32 1_555 1_555
C33 H49 1_555 1_555
H50 C33 1_555 1_555
C34 H51 1_555 1_555
H52 C34 1_555 1_555
C35 H53 1_555 1_555
H54 C35 1_555 1_555
N1 C12 1_555 1_555
N2 C12 1_555 1_555
N3 C14 1_555 1_555
N4 C13 1_555 1_555
N5 Ag1 1_555 1_555
N6 C18 1_555 1_555
N7 C19 1_555 1_555
N8 C20 1_555 1_555
N9 C24 1_555 1_555
N10 C24 1_555 1_555
N11 Ag1 1_555 1_555
N12 C25 1_555 1_555
N13 Ag2 1_555 1_555
N14 C31 1_555 1_555
N15 C32 1_555 1_555
N16 C30 1_555 1_555
O1 Ag4 1_555 1_555
O2 Ag3 1_555 1_555
O3 C8 1_555 1_555
H55 O3 1_555 1_555
O4 Ag5 1_555 1_555
O5 Cl1 1_555 1_555
O6 Cl1 1_555 1_555
O7 Cl1 1_555 1_555
O8 Cl2 1_555 1_555
O9 Cl2 1_555 1_555
O10 Ag2 1_555 1_555
O11 Cl2 1_555 1_555
O12 Cl3 1_555 1_555
O13 Cl3 1_555 1_555
O14 Cl3 1_555 1_555
O15 Cl3 1_555 1_555
O16 Cl4 1_555 1_555
O17 Cl4 1_555 1_555
O18 Cl4 1_555 1_555
O19 Cl4 1_555 1_555
O20 Ag1 1_555 1_555
O21 Cl5 1_555 1_555
O22 Cl5 1_555 1_555
O23 Cl5 1_555 1_555
O24 H56 1_555 1_555
H57 O24 1_555 1_555
Cl1 O4 1_555 1_555
Cl2 O10 1_555 1_555
Cl5 O20 1_555 1_555
Ag2B N7 1_555 1_555
Ag3_2 N15 1_555 1_555
Ag4C N12 1_555 1_555
Ag5B N9 1_555 1_555
Ag6C C7 1_555 1_555
Ag6C_2 N14 1_555 1_555
C7C Ag6 1_555 1_555
H4C C7C 1_555 1_555
N7B Ag2 1_555 1_555
N9B Ag5 1_555 1_555
N12C Ag4 1_555 1_555
N14C Ag6 1_555 1_555
N15_2 Ag3 1_555 1_555
C1 O1 1_555 1_555
C1 O2 1_555 1_555
C6 C11 1_555 1_555
C10 C11 1_555 1_555
C13 N2 1_555 1_555
C14 N4 1_555 1_555
C15 N1 1_555 1_555
C15 N3 1_555 1_555
C16 N2 1_555 1_555
C16 N3 1_555 1_555
C17 N1 1_555 1_555
C17 N4 1_555 1_555
C18 N5 1_555 1_555
C19 N6 1_555 1_555
C20 N7 1_555 1_555
C21 N5 1_555 1_555
C21 N8 1_555 1_555
C22 N5 1_555 1_555
C22 N7 1_555 1_555
C23 N6 1_555 1_555
C23 N8 1_555 1_555
C25 N9 1_555 1_555
C26 N10 1_555 1_555
C26 N11 1_555 1_555
C27 N11 1_555 1_555
C27 N12 1_555 1_555
C28 N10 1_555 1_555
C28 N12 1_555 1_555
C29 N9 1_555 1_555
C29 N11 1_555 1_555
C30 N13 1_555 1_555
C31 N13 1_555 1_555
C32 N13 1_555 1_555
C33 N14 1_555 1_555
C33 N16 1_555 1_555
C34 N15 1_555 1_555
C34 N16 1_555 1_555
C35 N14 1_555 1_555
C35 N15 1_555 1_555

#END
