
#######################################################################
#
#                 Cambridge Crystallographic Data Centre
#                                CCDC 
#
#######################################################################
#
# If this CIF has been generated from an entry in the Cambridge 
# Structural Database, then it will include bibliographic, chemical, 
# crystal, experimental, refinement or atomic coordinate data resulting 
# from the CCDC's data processing and validation procedures.
#
#######################################################################

data_ASUJAB
_chemical_formula_moiety         '(C64 H36 F4 N4 O8 Zn2)n'
_symmetry_cell_setting           triclinic
_symmetry_space_group_name_H-M   'P -1'
_symmetry_Int_Tables_number      2
_space_group_name_Hall           '-P 1'
loop_
_symmetry_equiv_pos_site_id
_symmetry_equiv_pos_as_xyz
1 x,y,z
2 -x,-y,-z
_cell_length_a                   15.5154(9)
_cell_length_b                   15.7338(9)
_cell_length_c                   20.8191(11)
_cell_angle_alpha                104.202(4)
_cell_angle_beta                 90.058(4)
_cell_angle_gamma                92.231(4)
_cell_volume                     4922.92
loop_
_atom_site_label
_atom_site_type_symbol
_atom_site_fract_x
_atom_site_fract_y
_atom_site_fract_z
Zn1 Zn 0.83845(2) 0.61152(2) 0.95253(2)
Zn2 Zn 0.83916(2) 0.80107(2) 0.98303(2)
O1 O 0.7649(2) 0.61650(17) 0.87496(13)
O2 O 0.75542(19) 0.76020(16) 0.90440(13)
C1 C 0.7385(2) 0.6871(2) 0.86734(17)
C2 C 0.6855(3) 0.6843(3) 0.80658(18)
C3 C 0.6719(3) 0.7611(3) 0.7879(2)
H1 H 0.6946 0.8150 0.8148
C4 C 0.6259(4) 0.7614(4) 0.7311(3)
H2 H 0.6193 0.8153 0.7192
C5 C 0.5897(3) 0.6858(4) 0.6915(2)
C6 C 0.6021(3) 0.6068(4) 0.7099(2)
H3 H 0.5783 0.5528 0.6838
C7 C 0.6494(3) 0.6089(3) 0.7663(2)
F1 F 0.6553(3) 0.5301(2) 0.7826(2)
C8 C 0.5381(3) 0.6877(4) 0.6327(2)
C9 C 0.5435(5) 0.6359(6) 0.5745(3)
H4 H 0.5848 0.5917 0.5680
C10 C 0.4926(5) 0.6407(6) 0.5204(3)
H5 H 0.5007 0.5993 0.4794
C11 C 0.4364(3) 0.6971(4) 0.5229(2)
C12 C 0.4406(5) 0.7753(5) 0.5812(3)
H6 H 0.4095 0.8261 0.5811
C13 C 0.4911(5) 0.7711(5) 0.6352(4)
H7 H 0.4962 0.8194 0.6730
C14 C 0.3821(3) 0.7013(4) 0.4646(2)
C15 C 0.2963(3) 0.7079(5) 0.4706(2)
C16 C 0.4294(3) 0.7006(4) 0.4026(2)
C17 C 0.4955(5) 0.7706(6) 0.4035(4)
H8 H 0.5078 0.8141 0.4432
C18 C 0.5400(6) 0.7727(6) 0.3455(4)
H9 H 0.5834 0.8171 0.3456
C19 C 0.5190(3) 0.7063(3) 0.2851(2)
C20 C 0.4510(5) 0.6515(5) 0.2871(3)
H10 H 0.4328 0.6110 0.2472
C21 C 0.4059(5) 0.6513(5) 0.3447(3)
H11 H 0.3559 0.6137 0.3418
C22 C 0.5650(3) 0.7086(3) 0.2241(2)
C23 C 0.5819(5) 0.7858(4) 0.2053(3)
H12 H 0.5606 0.8390 0.2314
C24 C 0.6280(5) 0.7870(4) 0.1505(3)
H13 H 0.6394 0.8420 0.1404
C25 C 0.6598(3) 0.7126(3) 0.10819(19)
C26 C 0.6340(5) 0.6357(3) 0.1241(3)
F2 F 0.6351(8) 0.5559(4) 0.0778(4)
C27 C 0.5882(5) 0.6320(4) 0.1805(3)
H14 H 0.5729 0.5769 0.1892
C28 C 0.7162(2) 0.7150(2) 0.05107(17)
O3 O 0.73431(19) 0.64390(16) 0.01278(14)
O4 O 0.74368(19) 0.78868(16) 0.04607(14)
C29 C 0.2503(3) 0.7074(4) 0.5338(2)
C30 C 0.2633(5) 0.6470(5) 0.5652(3)
H15 H 0.3036 0.6037 0.5473
C31 C 0.2209(5) 0.6420(5) 0.6245(4)
H16 H 0.2306 0.5949 0.6444
C32 C 0.1658(3) 0.7060(3) 0.65258(19)
C33 C 0.1551(6) 0.7781(5) 0.6240(3)
H17 H 0.1198 0.8248 0.6450
C34 C 0.1962(5) 0.7803(5) 0.5653(4)
H18 H 0.1895 0.8282 0.5457
C35 C 0.1195(3) 0.7032(3) 0.71457(19)
C36 C 0.0963(4) 0.7801(4) 0.7576(2)
H19 H 0.1142 0.8345 0.7488
C37 C 0.0479(4) 0.7801(3) 0.8130(2)
F3 F 0.0311(8) 0.8630(5) 0.8500(5)
C38 C 0.0214(2) 0.7014(3) 0.82887(17)
C39 C 0.0501(4) 0.6276(3) 0.7885(3)
H20 H 0.0365 0.5732 0.7988
C40 C 0.0995(4) 0.6274(4) 0.7316(3)
H21 H 0.1189 0.5735 0.7051
C41 C -0.0373(2) 0.7014(2) 0.88620(16)
O5 O -0.06471(19) 0.77248(17) 0.91578(14)
O6 O -0.05647(19) 0.62977(17) 0.89842(14)
C42 C 0.2407(3) 0.7160(4) 0.4136(2)
C43 C 0.2580(4) 0.7899(5) 0.3810(3)
H22 H 0.3029 0.8328 0.3968
C44 C 0.2066(4) 0.7945(4) 0.3265(3)
H23 H 0.2146 0.8407 0.3048
C45 C 0.1383(3) 0.7226(4) 0.3040(2)
C46 C 0.1122(4) 0.6830(6) 0.3488(4)
H24 H 0.0567 0.6544 0.3442
C47 C 0.1634(4) 0.6813(6) 0.4033(3)
H25 H 0.1402 0.6527 0.4351
C48 C 0.0848(3) 0.7268(4) 0.2460(2)
C49 C 0.0753(3) 0.8037(3) 0.2260(2)
H26 H 0.1019 0.8571 0.2507
C50 C 0.0274(3) 0.8024(3) 0.17023(19)
F4 F 0.0244(3) 0.8796(3) 0.1549(2)
C51 C -0.0127(2) 0.7250(3) 0.13120(17)
C52 C -0.0023(3) 0.6489(3) 0.1519(2)
H27 H -0.0289 0.5956 0.1269
C53 C 0.0455(3) 0.6481(4) 0.2078(2)
H28 H 0.0519 0.5947 0.2205
C54 C -0.0632(2) 0.7245(2) 0.06975(16)
O7 O -0.08840(19) 0.65088(17) 0.03593(13)
O8 O -0.0775(2) 0.79516(16) 0.05662(13)
N1 N 0.83278(19) 0.48158(17) 0.94664(14)
C55 C 0.8754(3) 0.4520(2) 0.99171(19)
H29 H 0.9104 0.4922 1.0236
C56 C 0.8706(3) 0.3654(2) 0.99383(19)
H30 H 0.9008 0.3463 1.0271
C57 C 0.8213(3) 0.3072(2) 0.9471(2)
C58 C 0.7771(3) 0.3366(2) 0.8990(2)
H31 H 0.7432 0.2971 0.8659
C59 C 0.7841(3) 0.4250(2) 0.90102(18)
H32 H 0.7535 0.4464 0.8691
N2 N 0.8130(2) 0.21507(19) 0.94278(17)
N3 N 0.8479(3) 0.1965(2) 0.9901(2)
C60 C 0.8429(3) 0.1043(2) 0.9867(2)
C61 C 0.9165(6) 0.0699(5) 1.0079(6)
H33 H 0.9670 0.1055 1.0227
C62 C 0.9118(6) -0.0196(5) 1.0063(6)
H34 H 0.9612 -0.0457 1.0188
N4 N 0.8402(2) -0.06962(17) 0.98764(14)
C63 C 0.7757(6) -0.0322(5) 0.9692(7)
H35 H 0.7242 -0.0664 0.9550
C64 C 0.7784(6) 0.0568(6) 0.9693(8)
H36 H 0.7286 0.0811 0.9555
Zn1_2 Zn -0.16155(2) 0.61152(2) -0.04747(2)
Zn1_3 Zn -0.16155(2) 0.61152(2) 0.95253(2)
Zn1_4 Zn 0.83845(2) 0.61152(2) -0.04747(2)
Zn2_2 Zn -0.16084(2) 0.80107(2) -0.01697(2)
Zn2_3 Zn -0.16084(2) 0.80107(2) 0.98303(2)
Zn2_4 Zn 0.83916(2) -0.19893(2) 0.98303(2)
Zn2_5 Zn 0.83916(2) 0.80107(2) -0.01697(2)
O3_2 O 0.73431(19) 0.64390(16) 1.01278(14)
O4_2 O 0.74368(19) 0.78868(16) 1.04607(14)
O5_2 O 0.93529(19) 0.77248(17) 0.91578(14)
O6_2 O 0.94353(19) 0.62977(17) 0.89842(14)
O7_2 O 0.91160(19) 0.65088(17) 1.03593(13)
O8_2 O 0.9225(2) 0.79516(16) 1.05662(13)
N4_2 N 0.8402(2) 0.93038(17) 0.98764(14)
loop_
_geom_bond_atom_site_label_1
_geom_bond_atom_site_label_2
_geom_bond_site_symmetry_1
_geom_bond_site_symmetry_2
Zn1 O1 1_555 1_555
Zn2 O2 1_555 1_555
O1 C1 1_555 1_555
O2 C1 1_555 1_555
C1 C2 1_555 1_555
C2 C3 1_555 1_555
C3 H1 1_555 1_555
C4 C3 1_555 1_555
H2 C4 1_555 1_555
C5 C4 1_555 1_555
C6 C5 1_555 1_555
H3 C6 1_555 1_555
C7 C2 1_555 1_555
F1 C7 1_555 1_555
C8 C5 1_555 1_555
C9 C8 1_555 1_555
H4 C9 1_555 1_555
C10 C9 1_555 1_555
H5 C10 1_555 1_555
C11 C10 1_555 1_555
C12 C11 1_555 1_555
H6 C12 1_555 1_555
C13 C8 1_555 1_555
H7 C13 1_555 1_555
C14 C11 1_555 1_555
C15 C14 1_555 1_555
C16 C14 1_555 1_555
C17 C16 1_555 1_555
H8 C17 1_555 1_555
C18 C17 1_555 1_555
H9 C18 1_555 1_555
C19 C18 1_555 1_555
C20 C19 1_555 1_555
H10 C20 1_555 1_555
C21 C16 1_555 1_555
H11 C21 1_555 1_555
C22 C19 1_555 1_555
C23 C22 1_555 1_555
H12 C23 1_555 1_555
C24 C23 1_555 1_555
H13 C24 1_555 1_555
C25 C24 1_555 1_555
C26 C25 1_555 1_555
F2 C26 1_555 1_555
C27 C22 1_555 1_555
H14 C27 1_555 1_555
C28 C25 1_555 1_555
O3 C28 1_555 1_555
O4 C28 1_555 1_555
C29 C15 1_555 1_555
C30 C29 1_555 1_555
H15 C30 1_555 1_555
C31 C30 1_555 1_555
H16 C31 1_555 1_555
C32 C31 1_555 1_555
C33 C32 1_555 1_555
H17 C33 1_555 1_555
C34 C29 1_555 1_555
H18 C34 1_555 1_555
C35 C32 1_555 1_555
C36 C35 1_555 1_555
H19 C36 1_555 1_555
C37 C36 1_555 1_555
F3 C37 1_555 1_555
C38 C37 1_555 1_555
C39 C38 1_555 1_555
H20 C39 1_555 1_555
C40 C35 1_555 1_555
H21 C40 1_555 1_555
C41 C38 1_555 1_555
O5 C41 1_555 1_555
O6 C41 1_555 1_555
C42 C15 1_555 1_555
C43 C42 1_555 1_555
H22 C43 1_555 1_555
C44 C43 1_555 1_555
H23 C44 1_555 1_555
C45 C44 1_555 1_555
C46 C45 1_555 1_555
H24 C46 1_555 1_555
C47 C42 1_555 1_555
H25 C47 1_555 1_555
C48 C45 1_555 1_555
C49 C48 1_555 1_555
H26 C49 1_555 1_555
C50 C49 1_555 1_555
F4 C50 1_555 1_555
C51 C50 1_555 1_555
C52 C51 1_555 1_555
H27 C52 1_555 1_555
C53 C48 1_555 1_555
H28 C53 1_555 1_555
C54 C51 1_555 1_555
O7 C54 1_555 1_555
O8 C54 1_555 1_555
N1 Zn1 1_555 1_555
C55 N1 1_555 1_555
H29 C55 1_555 1_555
C56 C55 1_555 1_555
H30 C56 1_555 1_555
C57 C56 1_555 1_555
C58 C57 1_555 1_555
H31 C58 1_555 1_555
C59 N1 1_555 1_555
H32 C59 1_555 1_555
N2 C57 1_555 1_555
N3 N2 1_555 1_555
C60 N3 1_555 1_555
C61 C60 1_555 1_555
H33 C61 1_555 1_555
C62 C61 1_555 1_555
H34 C62 1_555 1_555
N4 C62 1_555 1_555
C63 N4 1_555 1_555
H35 C63 1_555 1_555
C64 C60 1_555 1_555
H36 C64 1_555 1_555
Zn1_2 O7 1_555 1_555
Zn1_3 O6 1_555 1_555
Zn1_4 O3 1_555 1_555
Zn2_2 O8 1_555 1_555
Zn2_3 O5 1_555 1_555
Zn2_4 N4 1_555 1_555
Zn2_5 O4 1_555 1_555
O3_2 Zn1 1_555 1_555
O4_2 Zn2 1_555 1_555
O5_2 Zn2 1_555 1_555
O6_2 Zn1 1_555 1_555
O7_2 Zn1 1_555 1_555
O8_2 Zn2 1_555 1_555
N4_2 Zn2 1_555 1_555
C6 C7 1_555 1_555
C12 C13 1_555 1_555
C20 C21 1_555 1_555
C26 C27 1_555 1_555
C33 C34 1_555 1_555
C39 C40 1_555 1_555
C46 C47 1_555 1_555
C52 C53 1_555 1_555
C58 C59 1_555 1_555
C63 C64 1_555 1_555

#END
