
#######################################################################
#
#                 Cambridge Crystallographic Data Centre
#                                CCDC 
#
#######################################################################
#
# If this CIF has been generated from an entry in the Cambridge 
# Structural Database, then it will include bibliographic, chemical, 
# crystal, experimental, refinement or atomic coordinate data resulting 
# from the CCDC's data processing and validation procedures.
#
#######################################################################

data_FUNGAY
_chemical_formula_moiety         '(C62 H52 Co2 N22 O14)n'
_symmetry_cell_setting           monoclinic
_symmetry_space_group_name_H-M   'C 2/c'
_symmetry_Int_Tables_number      15
_space_group_name_Hall           '-C 2yc'
loop_
_symmetry_equiv_pos_site_id
_symmetry_equiv_pos_as_xyz
1 x,y,z
2 -x,y,1/2-z
3 1/2+x,1/2+y,z
4 1/2-x,1/2+y,1/2-z
5 -x,-y,-z
6 x,-y,1/2+z
7 1/2-x,1/2-y,-z
8 1/2+x,1/2-y,1/2+z
_cell_length_a                   28.6457(12)
_cell_length_b                   12.5440(5)
_cell_length_c                   21.6016(9)
_cell_angle_alpha                90
_cell_angle_beta                 103.1950(10)
_cell_angle_gamma                90
_cell_volume                     7557.21
loop_
_atom_site_label
_atom_site_type_symbol
_atom_site_fract_x
_atom_site_fract_y
_atom_site_fract_z
C1 C 0.17737(12) 0.4481(3) 0.32255(16)
H1 H 0.2045 0.4217 0.3505
C2 C 0.12864(12) 0.5558(3) 0.26967(17)
H2 H 0.1135 0.6176 0.2516
C3 C -0.15485(11) -0.1273(2) 0.14047(15)
H3 H -0.1674 -0.0834 0.1673
C4 C -0.13924(14) -0.2574(3) 0.08852(19)
H4 H -0.1395 -0.3262 0.0723
C5 C -0.19716(18) 0.6697(4) -0.1741(2)
H5 H -0.1998 0.6950 -0.2152
C6 C -0.21212(11) 0.6433(3) -0.08618(14)
H6 H -0.2264 0.6429 -0.0516
C7 C 0.06892(10) 0.4230(2) 0.21416(14)
C8 C 0.03212(12) 0.4935(3) 0.19156(18)
H7 H 0.0348 0.5640 0.2052
C9 C -0.00849(12) 0.4601(3) 0.14887(19)
H8 H -0.0328 0.5086 0.1331
C10 C -0.01354(11) 0.3538(3) 0.12889(16)
C11 C 0.02392(12) 0.2841(3) 0.15175(17)
H9 H 0.0213 0.2133 0.1386
C12 C 0.06522(12) 0.3182(2) 0.19393(16)
H10 H 0.0903 0.2708 0.2085
C13 C -0.10510(11) 0.0078(2) 0.10235(16)
C14 C -0.09297(14) 0.0708(3) 0.15569(17)
H11 H -0.0958 0.0447 0.1950
C15 C -0.07650(15) 0.1734(3) 0.15044(18)
H12 H -0.0684 0.2166 0.1863
C16 C -0.07216(11) 0.2116(3) 0.09247(16)
C17 C -0.08467(13) 0.1480(3) 0.03897(17)
H13 H -0.0816 0.1739 -0.0002
C18 C -0.10166(13) 0.0461(3) 0.04368(16)
H14 H -0.1107 0.0036 0.0076
C19 C -0.08502(11) 0.3872(3) 0.04284(16)
C20 C -0.13299(12) 0.3960(3) 0.04140(16)
H15 H -0.1460 0.3568 0.0699
C21 C -0.16230(12) 0.4626(3) -0.00187(16)
H16 H -0.1948 0.4679 -0.0026
C22 C -0.14298(11) 0.5204(3) -0.04352(15)
C23 C -0.09532(13) 0.5130(4) -0.0426(2)
H17 H -0.0825 0.5528 -0.0711
C24 C -0.06626(13) 0.4470(4) 0.0002(2)
H18 H -0.0338 0.4423 0.0007
C25 C 0.22478(12) 0.6987(2) 0.22225(14)
C26 C 0.23224(12) 0.7132(3) 0.15632(14)
C27 C 0.20353(13) 0.7808(3) 0.11428(15)
H19 H 0.1788 0.8167 0.1267
C28 C 0.21074(13) 0.7965(3) 0.05360(15)
H20 H 0.1911 0.8438 0.0263
C29 C 0.24668(11) 0.7430(3) 0.03296(13)
C30 C 0.27608(14) 0.6773(3) 0.07654(17)
H21 H 0.3015 0.6426 0.0649
C31 C 0.26868(14) 0.6621(3) 0.13678(16)
H22 H 0.2888 0.6164 0.1647
Co1 Co 0.21807(2) 0.68328(3) 0.33777(2)
N1 N 0.17036(9) 0.5528(2) 0.31125(12)
N2 N 0.11154(9) 0.45772(19) 0.25753(12)
N3 N 0.14329(10) 0.3860(2) 0.29150(14)
N4 N -0.16548(9) -0.2291(2) 0.12997(12)
N5 N -0.12368(9) -0.0967(2) 0.10716(13)
N6 N -0.11310(13) -0.1803(2) 0.07256(18)
N7 N -0.22788(10) 0.6983(2) -0.13866(13)
N8 N -0.16312(15) 0.6038(4) -0.14692(18)
N9 N -0.17299(10) 0.5882(2) -0.08911(12)
N10 N -0.05528(10) 0.3176(2) 0.08662(16)
N11 N 0.27356(11) 0.5802(2) 0.44624(13)
O1 O 0.24990(9) 0.63271(18) 0.25978(10)
O2 O 0.19471(9) 0.75593(19) 0.24154(10)
O3 O 0.23461(10) 0.6275(2) 0.43393(13)
O4 O 0.2904(2) 0.5636(3) 0.4007(2)
O5 O 0.29002(12) 0.5507(3) 0.50014(14)
C25F C 0.27522(12) 0.8013(2) -0.22225(14)
C26F C 0.26776(12) 0.7868(3) -0.15632(14)
C27F C 0.29647(13) 0.7192(3) -0.11428(15)
H19F H 0.3212 0.6833 -0.1267
C28F C 0.28926(13) 0.7035(3) -0.05360(15)
H20F H 0.3089 0.6562 -0.0263
C29F C 0.25332(11) 0.7570(3) -0.03296(13)
C30F C 0.22392(14) 0.8227(3) -0.07654(17)
H21F H 0.1985 0.8574 -0.0649
C31F C 0.23132(14) 0.8379(3) -0.13678(16)
H22F H 0.2112 0.8836 -0.1647
O1F O 0.25010(9) 0.86729(18) -0.25978(10)
O2F O 0.30529(9) 0.74407(19) -0.24154(10)
C1F C 0.32263(12) 1.0519(3) -0.32255(16)
H1F H 0.2955 1.0783 -0.3505
C2F C 0.37136(12) 0.9442(3) -0.26967(17)
H2F H 0.3865 0.8824 -0.2516
C3F C 0.65485(11) 1.6273(2) -0.14047(15)
H3F H 0.6674 1.5834 -0.1673
C4F C 0.63924(14) 1.7574(3) -0.08852(19)
H4F H 0.6395 1.8262 -0.0723
C5F C 0.69716(18) 0.8303(4) 0.1741(2)
H5F H 0.6998 0.8050 0.2152
C6F C 0.71212(11) 0.8567(3) 0.08618(14)
H6F H 0.7264 0.8571 0.0516
C7F C 0.43108(10) 1.0770(2) -0.21416(14)
C8F C 0.46788(12) 1.0065(3) -0.19156(18)
H7F H 0.4652 0.9360 -0.2052
C9F C 0.50849(12) 1.0399(3) -0.14887(19)
H8F H 0.5328 0.9914 -0.1331
C10F C 0.51354(11) 1.1462(3) -0.12889(16)
C11F C 0.47608(12) 1.2159(3) -0.15175(17)
H9F H 0.4787 1.2867 -0.1386
C12F C 0.43478(12) 1.1818(2) -0.19393(16)
H10F H 0.4097 1.2292 -0.2085
C13F C 0.60510(11) 1.4922(2) -0.10235(16)
C14F C 0.59297(14) 1.4292(3) -0.15569(17)
H11F H 0.5958 1.4553 -0.1950
C15F C 0.57650(15) 1.3266(3) -0.15044(18)
H12F H 0.5684 1.2834 -0.1863
C16F C 0.57216(11) 1.2884(3) -0.09247(16)
C17F C 0.58467(13) 1.3520(3) -0.03897(17)
H13F H 0.5816 1.3261 0.0002
C18F C 0.60166(13) 1.4539(3) -0.04368(16)
H14F H 0.6107 1.4964 -0.0076
C19F C 0.58502(11) 1.1128(3) -0.04284(16)
C20F C 0.63299(12) 1.1040(3) -0.04140(16)
H15F H 0.6460 1.1432 -0.0699
C21F C 0.66230(12) 1.0374(3) 0.00187(16)
H16F H 0.6948 1.0321 0.0026
C22F C 0.64298(11) 0.9796(3) 0.04352(15)
C23F C 0.59532(13) 0.9870(4) 0.0426(2)
H17F H 0.5825 0.9472 0.0711
C24F C 0.56626(13) 1.0530(4) -0.0002(2)
H18F H 0.5338 1.0577 -0.0007
Co1F Co 0.28193(2) 0.81672(3) -0.33777(2)
N1F N 0.32964(9) 0.9472(2) -0.31125(12)
N2F N 0.38846(9) 1.04228(19) -0.25753(12)
N3F N 0.35671(10) 1.1140(2) -0.29150(14)
N4F N 0.66548(9) 1.7291(2) -0.12997(12)
N5F N 0.62368(9) 1.5967(2) -0.10716(13)
N6F N 0.61310(13) 1.6803(2) -0.07256(18)
N7F N 0.72788(10) 0.8017(2) 0.13866(13)
N8F N 0.66312(15) 0.8962(4) 0.14692(18)
N9F N 0.67299(10) 0.9118(2) 0.08911(12)
N10F N 0.55528(10) 1.1824(2) -0.08662(16)
N11F N 0.22644(11) 0.9198(2) -0.44624(13)
O3F O 0.26539(10) 0.8725(2) -0.43393(13)
O4F O 0.2096(2) 0.9364(3) -0.4007(2)
O5F O 0.20998(12) 0.9493(3) -0.50014(14)
Co1A Co -0.21807(2) -0.31672(3) 0.16223(2)
Co1A_2 Co 0.78193(2) 0.68328(3) 0.16223(2)
Co1G Co -0.28193(2) 0.81672(3) -0.16223(2)
Co1G_2 Co 0.71807(2) 1.81672(3) -0.16223(2)
N4A N 0.16548(9) 0.7709(2) 0.37003(12)
N4G N 0.33452(9) 0.7291(2) -0.37003(12)
N7A N 0.22788(10) 0.6983(2) -0.36134(13)
N7G N 0.27212(10) 0.8017(2) 0.36134(13)
O6 O 0.32300(14) 0.4806(3) 0.26313(16)
H23 H 0.3011 0.5268 0.2620
H24 H 0.3136 0.4206 0.2740
O7 O 0.0176(9) 0.811(2) 0.4688(16)
H25 H 0.0152 0.7974 0.5064
H26 H 0.0157 0.8782 0.4627
O8 O 0.3906(6) 0.5689(17) 0.3666(11)
H27 H 0.3875 0.5508 0.3280
H28 H 0.4020 0.6316 0.3721
O9 O 0.0508(6) 0.7490(13) 0.2584(11)
H29 H 0.0704 0.7900 0.2828
H30 H 0.0446 0.7740 0.2208
loop_
_geom_bond_atom_site_label_1
_geom_bond_atom_site_label_2
_geom_bond_site_symmetry_1
_geom_bond_site_symmetry_2
C1 H1 1_555 1_555
C2 H2 1_555 1_555
C3 H3 1_555 1_555
C4 H4 1_555 1_555
C5 H5 1_555 1_555
C6 H6 1_555 1_555
C7 C8 1_555 1_555
C8 H7 1_555 1_555
C9 C8 1_555 1_555
H8 C9 1_555 1_555
C10 C9 1_555 1_555
C11 C10 1_555 1_555
H9 C11 1_555 1_555
C12 C7 1_555 1_555
H10 C12 1_555 1_555
C13 C14 1_555 1_555
C14 H11 1_555 1_555
C15 C14 1_555 1_555
H12 C15 1_555 1_555
C16 C15 1_555 1_555
C17 C16 1_555 1_555
H13 C17 1_555 1_555
C18 C13 1_555 1_555
H14 C18 1_555 1_555
C19 C20 1_555 1_555
C20 H15 1_555 1_555
C21 C20 1_555 1_555
H16 C21 1_555 1_555
C22 C21 1_555 1_555
C23 C22 1_555 1_555
H17 C23 1_555 1_555
C24 C19 1_555 1_555
H18 C24 1_555 1_555
C25 C26 1_555 1_555
C26 C27 1_555 1_555
C27 H19 1_555 1_555
C28 C27 1_555 1_555
H20 C28 1_555 1_555
C29 C28 1_555 1_555
C30 C29 1_555 1_555
H21 C30 1_555 1_555
C31 C26 1_555 1_555
H22 C31 1_555 1_555
Co1 N1 1_555 1_555
N1 C1 1_555 1_555
N2 C2 1_555 1_555
N3 C1 1_555 1_555
N4 C3 1_555 1_555
N5 C3 1_555 1_555
N6 C4 1_555 1_555
N7 C5 1_555 1_555
N8 C5 1_555 1_555
N9 C6 1_555 1_555
N10 C10 1_555 1_555
N11 O3 1_555 1_555
O1 C25 1_555 1_555
O2 C25 1_555 1_555
O3 Co1 1_555 1_555
O4 N11 1_555 1_555
O5 N11 1_555 1_555
O6 H23 1_555 1_555
H24 O6 1_555 1_555
O7 H25 1_555 1_555
H26 O7 1_555 1_555
O8 H27 1_555 1_555
H28 O8 1_555 1_555
O9 H29 1_555 1_555
H30 O9 1_555 1_555
C25F C26F 1_555 1_555
C26F C27F 1_555 1_555
C27F H19F 1_555 1_555
C28F C27F 1_555 1_555
H20F C28F 1_555 1_555
C29F C29 1_555 1_555
C30F C29F 1_555 1_555
H21F C30F 1_555 1_555
C31F C26F 1_555 1_555
H22F C31F 1_555 1_555
O1F C25F 1_555 1_555
O2F C25F 1_555 1_555
C1F H1F 1_555 1_555
C2F H2F 1_555 1_555
C3F H3F 1_555 1_555
C4F H4F 1_555 1_555
C5F H5F 1_555 1_555
C6F H6F 1_555 1_555
C7F C8F 1_555 1_555
C8F H7F 1_555 1_555
C9F C8F 1_555 1_555
H8F C9F 1_555 1_555
C10F C9F 1_555 1_555
C11F C10F 1_555 1_555
H9F C11F 1_555 1_555
C12F C7F 1_555 1_555
H10F C12F 1_555 1_555
C13F C14F 1_555 1_555
C14F H11F 1_555 1_555
C15F C14F 1_555 1_555
H12F C15F 1_555 1_555
C16F C15F 1_555 1_555
C17F C16F 1_555 1_555
H13F C17F 1_555 1_555
C18F C13F 1_555 1_555
H14F C18F 1_555 1_555
C19F C20F 1_555 1_555
C20F H15F 1_555 1_555
C21F C20F 1_555 1_555
H16F C21F 1_555 1_555
C22F C21F 1_555 1_555
C23F C22F 1_555 1_555
H17F C23F 1_555 1_555
C24F C19F 1_555 1_555
H18F C24F 1_555 1_555
Co1F O1F 1_555 1_555
N1F C1F 1_555 1_555
N2F C2F 1_555 1_555
N3F C1F 1_555 1_555
N4F C3F 1_555 1_555
N5F C3F 1_555 1_555
N6F C4F 1_555 1_555
N7F C5F 1_555 1_555
N8F C5F 1_555 1_555
N9F C6F 1_555 1_555
N10F C10F 1_555 1_555
N11F O3F 1_555 1_555
O3F Co1F 1_555 1_555
O4F N11F 1_555 1_555
O5F N11F 1_555 1_555
Co1A N4 1_555 1_555
Co1A_2 N7F 1_555 1_555
Co1G N7 1_555 1_555
Co1G_2 N4F 1_555 1_555
N4A Co1 1_555 1_555
N4G Co1F 1_555 1_555
N7A Co1F 1_555 1_555
N7G Co1 1_555 1_555
C2 N1 1_555 1_555
C4 N4 1_555 1_555
C6 N7 1_555 1_555
C7 N2 1_555 1_555
C11 C12 1_555 1_555
C13 N5 1_555 1_555
C16 N10 1_555 1_555
C17 C18 1_555 1_555
C19 N10 1_555 1_555
C22 N9 1_555 1_555
C23 C24 1_555 1_555
C30 C31 1_555 1_555
Co1 O1 1_555 1_555
Co1 O2 1_555 1_555
N2 N3 1_555 1_555
N5 N6 1_555 1_555
N8 N9 1_555 1_555
C28F C29F 1_555 1_555
C30F C31F 1_555 1_555
O2F Co1F 1_555 1_555
C2F N1F 1_555 1_555
C4F N4F 1_555 1_555
C6F N7F 1_555 1_555
C7F N2F 1_555 1_555
C11F C12F 1_555 1_555
C13F N5F 1_555 1_555
C16F N10F 1_555 1_555
C17F C18F 1_555 1_555
C19F N10F 1_555 1_555
C22F N9F 1_555 1_555
C23F C24F 1_555 1_555
Co1F N1F 1_555 1_555
N2F N3F 1_555 1_555
N5F N6F 1_555 1_555
N8F N9F 1_555 1_555

#END
