
#######################################################################
#
#                 Cambridge Crystallographic Data Centre
#                                CCDC 
#
#######################################################################
#
# If this CIF has been generated from an entry in the Cambridge 
# Structural Database, then it will include bibliographic, chemical, 
# crystal, experimental, refinement or atomic coordinate data resulting 
# from the CCDC's data processing and validation procedures.
#
#######################################################################

data_GUFBUG
_chemical_formula_moiety         '(C34 H22 Ba1 O10 S4)n'
_symmetry_cell_setting           orthorhombic
_symmetry_space_group_name_H-M   'I b a m'
_symmetry_Int_Tables_number      72
_space_group_name_Hall           '-I 2 2c'
loop_
_symmetry_equiv_pos_site_id
_symmetry_equiv_pos_as_xyz
1 x,y,z
2 -x,-y,z
3 1/2-x,1/2+y,-z
4 1/2+x,1/2-y,-z
5 1/2+x,1/2+y,1/2+z
6 1/2-x,1/2-y,1/2+z
7 -x,y,1/2-z
8 x,-y,1/2-z
9 -x,-y,-z
10 x,y,-z
11 1/2+x,1/2-y,z
12 1/2-x,1/2+y,z
13 1/2-x,1/2-y,1/2-z
14 1/2+x,1/2+y,1/2-z
15 x,-y,1/2+z
16 -x,y,1/2+z
_cell_length_a                   10.4489(9)
_cell_length_b                   21.5552(19)
_cell_length_c                   38.344(3)
_cell_angle_alpha                90
_cell_angle_beta                 90
_cell_angle_gamma                90
_cell_volume                     8636.15
loop_
_atom_site_label
_atom_site_type_symbol
_atom_site_fract_x
_atom_site_fract_y
_atom_site_fract_z
_atom_site_U_iso_or_equiv
_atom_site_thermal_displace_type
Ba1 Ba 0.19843(7) 0.49181(4) 1.0000 0.0353 Uani
C1 C 0.0169(9) 0.6259(4) 0.9103(2) 0.0390 Uani
C2 C 0.1035(11) 0.6469(6) 0.8870(3) 0.0593 Uani
H1 H 0.1897 0.6374 0.8899 0.0710 Uiso
C3 C 0.0637(11) 0.6833(6) 0.8582(3) 0.0613 Uani
H2 H 0.1233 0.6984 0.8423 0.0730 Uiso
C4 C -0.0642(10) 0.6959(5) 0.8541(2) 0.0463 Uani
C5 C -0.1502(10) 0.6738(5) 0.8783(3) 0.0600 Uani
H3 H -0.2368 0.6829 0.8760 0.0720 Uiso
C6 C -0.1090(10) 0.6377(5) 0.9065(3) 0.0510 Uani
H4 H -0.1678 0.6220 0.9224 0.0610 Uiso
C7 C 0.0595(11) 0.5871(5) 0.9411(3) 0.0480 Uani
C8 C -0.1092(11) 0.7345(5) 0.8248(3) 0.0557 Uani
C9 C -0.0945(11) 0.7943(5) 0.8196(3) 0.0560 Uani
C10 C -0.0348(10) 0.8400(5) 0.8428(3) 0.0473 Uani
C11 C -0.0420(10) 0.8328(5) 0.8790(3) 0.0527 Uani
H5 H -0.0850 0.7990 0.8885 0.0630 Uiso
C12 C 0.0147(10) 0.8756(5) 0.9005(3) 0.0523 Uani
H6 H 0.0074 0.8712 0.9246 0.0630 Uiso
C13 C 0.0807(9) 0.9239(5) 0.8874(3) 0.0477 Uani
C14 C 0.0884(11) 0.9329(5) 0.8515(3) 0.0527 Uani
H7 H 0.1317 0.9668 0.8422 0.0630 Uiso
C15 C 0.0298(11) 0.8898(5) 0.8300(3) 0.0553 Uani
H8 H 0.0346 0.8952 0.8060 0.0670 Uiso
C16 C 0.1452(9) 0.9678(5) 0.9124(3) 0.0463 Uani
C17 C -0.2195(14) 0.7522(6) 0.7647(3) 0.0737 Uani
O1 O -0.0227(9) 0.5682(4) 0.9618(2) 0.0777 Uani
O2 O 0.1759(7) 0.5730(3) 0.94400(19) 0.0560 Uani
O3 O 0.1353(7) 0.9619(4) 0.9438(2) 0.0593 Uani
O4 O 0.2109(8) 1.0123(4) 0.8961(2) 0.0687 Uani
H9 H 0.2452 1.0348 0.9106 0.1030 Uiso
O5 O 0.4251(11) 0.5652(5) 1.0000 0.0653 Uani
H10 H 0.4606 0.5662 0.9769 0.0980 Uiso
O6 O 0.2784(14) 0.3617(8) 1.0000 0.1043 Uani
H11 H 0.3113 0.3526 1.0196 0.1570 Uiso
S1 S -0.1892(5) 0.69056(17) 0.79271(10) 0.0953 Uani
S2 S -0.1619(4) 0.82441(16) 0.78074(9) 0.0820 Uani
C1L C -0.5169(9) 0.8741(4) 0.5897(2) 0.0390 Uani
C2L C -0.6035(11) 0.8531(6) 0.6130(3) 0.0593 Uani
H1L H -0.6897 0.8626 0.6101 0.0710 Uiso
C3L C -0.5637(11) 0.8167(6) 0.6418(3) 0.0613 Uani
H2L H -0.6233 0.8016 0.6577 0.0730 Uiso
C4L C -0.4358(10) 0.8041(5) 0.6459(2) 0.0463 Uani
C5L C -0.3498(10) 0.8262(5) 0.6217(3) 0.0600 Uani
H3L H -0.2632 0.8171 0.6240 0.0720 Uiso
C6L C -0.3910(10) 0.8623(5) 0.5935(3) 0.0510 Uani
H4L H -0.3322 0.8780 0.5776 0.0610 Uiso
C7L C -0.5595(11) 0.9129(5) 0.5589(3) 0.0480 Uani
C8L C -0.3908(11) 0.7655(5) 0.6752(3) 0.0557 Uani
C9L C -0.4055(11) 0.7057(5) 0.6804(3) 0.0560 Uani
C10L C -0.4652(10) 0.6600(5) 0.6572(3) 0.0473 Uani
C11L C -0.4580(10) 0.6672(5) 0.6210(3) 0.0527 Uani
H5L H -0.4150 0.7010 0.6115 0.0630 Uiso
C12L C -0.5147(10) 0.6244(5) 0.5995(3) 0.0523 Uani
H6L H -0.5074 0.6288 0.5754 0.0630 Uiso
C13L C -0.5807(9) 0.5761(5) 0.6126(3) 0.0477 Uani
C14L C -0.5884(11) 0.5671(5) 0.6485(3) 0.0527 Uani
H7L H -0.6317 0.5332 0.6578 0.0630 Uiso
C15L C -0.5298(11) 0.6102(5) 0.6700(3) 0.0553 Uani
H8L H -0.5346 0.6048 0.6940 0.0670 Uiso
C16L C -0.6452(9) 0.5322(5) 0.5876(3) 0.0463 Uani
C17L C -0.2805(14) 0.7478(6) 0.7353(3) 0.0737 Uani
O1L O -0.4773(9) 0.9318(4) 0.5382(2) 0.0777 Uani
O2L O -0.6759(7) 0.9270(3) 0.55600(19) 0.0560 Uani
O3L O -0.6353(7) 0.5381(4) 0.5562(2) 0.0593 Uani
O4L O -0.7109(8) 0.4877(4) 0.6039(2) 0.0687 Uani
H9L H -0.7452 0.4652 0.5894 0.1030 Uiso
S1L S -0.3108(5) 0.80944(17) 0.70729(10) 0.0953 Uani
S2L S -0.3381(4) 0.67559(16) 0.71926(9) 0.0820 Uani
H10I H 0.4606 0.5662 1.0231 0.0980 Uiso
H11I H 0.3113 0.3526 0.9804 0.1570 Uiso
Ba1A Ba -0.19843(7) 0.50819(4) 1.0000 0.0353 Uani
Ba1B Ba 0.30157(7) 0.99181(4) 1.0000 0.0353 Uani
Ba1D Ba -0.30157(7) 0.99181(4) 0.5000 0.0353 Uani
Ba1E Ba -0.69843(7) 1.00819(4) 0.5000 0.0353 Uani
Ba1G Ba -0.80157(7) 0.50819(4) 0.5000 0.0353 Uani
O1A O 0.0227(9) 0.4318(4) 0.9618(2) 0.0777 Uani
O1H O 0.0227(9) 0.4318(4) 1.0382(2) 0.0777 Uani
O1I O -0.0227(9) 0.5682(4) 1.0382(2) 0.0777 Uani
O2I O 0.1759(7) 0.5730(3) 1.05600(19) 0.0560 Uani
O3B O 0.3647(7) 0.4619(4) 1.0562(2) 0.0593 Uani
O3K O 0.3647(7) 0.4619(4) 0.9438(2) 0.0593 Uani
loop_
_atom_site_aniso_label
_atom_site_aniso_U_11
_atom_site_aniso_U_22
_atom_site_aniso_U_33
_atom_site_aniso_U_23
_atom_site_aniso_U_13
_atom_site_aniso_U_12
Ba1 0.0312(4) 0.0433(5) 0.0314(5) 0.000 0.000 0.0077(3)
C1 0.043(5) 0.040(5) 0.034(5) 0.003(4) 0.004(4) -0.007(4)
C2 0.042(6) 0.092(9) 0.044(6) 0.008(6) -0.001(5) -0.001(6)
C3 0.059(7) 0.091(9) 0.034(6) 0.020(5) 0.004(5) -0.001(6)
C4 0.056(6) 0.051(6) 0.032(5) 0.004(4) -0.013(5) -0.008(5)
C5 0.037(5) 0.066(7) 0.077(8) 0.015(6) -0.009(5) -0.007(5)
C6 0.050(6) 0.060(6) 0.043(6) 0.013(5) 0.001(5) -0.005(5)
C7 0.062(7) 0.048(6) 0.034(6) -0.002(4) 0.005(5) 0.010(5)
C8 0.060(7) 0.057(7) 0.050(7) -0.002(5) -0.013(5) -0.008(5)
C9 0.060(7) 0.065(7) 0.043(6) 0.003(5) -0.014(5) -0.011(6)
C10 0.049(6) 0.053(6) 0.040(6) -0.003(4) -0.018(4) 0.003(5)
C11 0.052(6) 0.061(7) 0.045(6) 0.003(5) -0.008(5) -0.003(5)
C12 0.047(6) 0.077(7) 0.033(6) -0.007(5) -0.005(4) 0.005(5)
C13 0.034(5) 0.057(6) 0.052(7) -0.006(5) -0.014(5) 0.005(5)
C14 0.067(7) 0.048(6) 0.043(6) -0.003(4) -0.015(5) -0.006(5)
C15 0.067(7) 0.063(7) 0.036(6) 0.002(5) -0.010(5) -0.012(6)
C16 0.032(5) 0.058(6) 0.049(7) -0.003(5) -0.008(4) 0.005(4)
C17 0.105(10) 0.070(8) 0.046(7) 0.009(6) -0.039(7) -0.027(7)
O1 0.091(7) 0.099(7) 0.043(5) 0.034(4) 0.021(4) 0.001(5)
O2 0.061(5) 0.064(5) 0.043(4) 0.007(3) -0.001(3) 0.027(4)
O3 0.055(4) 0.079(5) 0.044(5) -0.015(4) -0.002(3) -0.014(4)
O4 0.075(6) 0.063(5) 0.068(6) -0.003(4) -0.018(4) -0.021(4)
O5 0.059(7) 0.077(8) 0.060(7) 0.000 0.000 -0.015(6)
O6 0.086 0.143 0.084 0.000 0.000 0.039
S1 0.157(4) 0.068(2) 0.061(2) 0.0132(16) -0.060(2) -0.038(2)
S2 0.124(3) 0.069(2) 0.053(2) 0.0108(15) -0.049(2) -0.027(2)
C1L 0.043 0.04 0.034 0.003 0.004 -0.007
C2L 0.042 0.092 0.044 0.008 -0.001 -0.001
C3L 0.059 0.091 0.034 0.02 0.004 -0.001
C4L 0.056 0.051 0.032 0.004 -0.013 -0.008
C5L 0.037 0.066 0.077 0.015 -0.009 -0.007
C6L 0.05 0.06 0.043 0.013 0.001 -0.005
C7L 0.062 0.048 0.034 -0.002 0.005 0.01
C8L 0.06 0.057 0.05 -0.002 -0.013 -0.008
C9L 0.06 0.065 0.043 0.003 -0.014 -0.011
C10L 0.049 0.053 0.04 -0.003 -0.018 0.003
C11L 0.052 0.061 0.045 0.003 -0.008 -0.003
C12L 0.047 0.077 0.033 -0.007 -0.005 0.005
C13L 0.034 0.057 0.052 -0.006 -0.014 0.005
C14L 0.067 0.048 0.043 -0.003 -0.015 -0.006
C15L 0.067 0.063 0.036 0.002 -0.01 -0.012
C16L 0.032 0.058 0.049 -0.003 -0.008 0.005
C17L 0.105 0.07 0.046 0.009 -0.039 -0.027
O1L 0.091 0.099 0.043 0.034 0.021 0.001
O2L 0.061 0.064 0.043 0.007 -0.001 0.027
O3L 0.055 0.079 0.044 -0.015 -0.002 -0.014
O4L 0.075 0.063 0.068 -0.003 -0.018 -0.021
S1L 0.157 0.068 0.061 0.0132 -0.06 -0.038
S2L 0.124 0.069 0.053 0.0108 -0.049 -0.027
Ba1A 0.0312 0.0433 0.0314 0 0 0.0077
Ba1B 0.0312 0.0433 0.0314 0 0 -0.0077
Ba1D 0.0312 0.0433 0.0314 0 0 0.0077
Ba1E 0.0312 0.0433 0.0314 0 0 0.0077
Ba1G 0.0312 0.0433 0.0314 0 0 -0.0077
O1A 0.091 0.099 0.043 -0.034 -0.021 0.001
O1H 0.091 0.099 0.043 0.034 0.021 0.001
O1I 0.091 0.099 0.043 -0.034 -0.021 0.001
O2I 0.061 0.064 0.043 -0.007 0.001 0.027
O3B 0.055 0.079 0.044 0.015 -0.002 0.014
O3K 0.055 0.079 0.044 -0.015 0.002 0.014
loop_
_geom_bond_atom_site_label_1
_geom_bond_atom_site_label_2
_geom_bond_site_symmetry_1
_geom_bond_site_symmetry_2
Ba1 O1 1_555 1_555
C1 C2 1_555 1_555
C2 H1 1_555 1_555
C3 C2 1_555 1_555
H2 C3 1_555 1_555
C4 C3 1_555 1_555
C5 C4 1_555 1_555
H3 C5 1_555 1_555
C6 C1 1_555 1_555
H4 C6 1_555 1_555
C7 C1 1_555 1_555
C8 C4 1_555 1_555
C9 C8 1_555 1_555
C10 C9 1_555 1_555
C11 C10 1_555 1_555
H5 C11 1_555 1_555
C12 C11 1_555 1_555
H6 C12 1_555 1_555
C13 C12 1_555 1_555
C14 C13 1_555 1_555
H7 C14 1_555 1_555
C15 C10 1_555 1_555
H8 C15 1_555 1_555
C16 C13 1_555 1_555
C17 S1 1_555 1_555
O1 C7 1_555 1_555
O2 Ba1 1_555 1_555
O3 C16 1_555 1_555
O4 C16 1_555 1_555
H9 O4 1_555 1_555
O5 Ba1 1_555 1_555
H10 O5 1_555 1_555
O6 Ba1 1_555 1_555
H11 O6 1_555 1_555
S1 C8 1_555 1_555
S2 C9 1_555 1_555
C1L C2L 1_555 1_555
C2L H1L 1_555 1_555
C3L C2L 1_555 1_555
H2L C3L 1_555 1_555
C4L C3L 1_555 1_555
C5L C4L 1_555 1_555
H3L C5L 1_555 1_555
C6L C1L 1_555 1_555
H4L C6L 1_555 1_555
C7L C1L 1_555 1_555
C8L C4L 1_555 1_555
C9L C8L 1_555 1_555
C10L C9L 1_555 1_555
C11L C10L 1_555 1_555
H5L C11L 1_555 1_555
C12L C11L 1_555 1_555
H6L C12L 1_555 1_555
C13L C12L 1_555 1_555
C14L C13L 1_555 1_555
H7L C14L 1_555 1_555
C15L C10L 1_555 1_555
H8L C15L 1_555 1_555
C16L C13L 1_555 1_555
C17L C17 1_555 1_555
O1L C7L 1_555 1_555
O2L C7L 1_555 1_555
O3L C16L 1_555 1_555
O4L C16L 1_555 1_555
H9L O4L 1_555 1_555
S1L C8L 1_555 1_555
S2L C9L 1_555 1_555
H10I O5 1_555 1_555
H11I O6 1_555 1_555
Ba1A O1 1_555 1_555
Ba1B O3 1_555 1_555
Ba1D O1L 1_555 1_555
Ba1E O1L 1_555 1_555
Ba1G O3L 1_555 1_555
O1A Ba1 1_555 1_555
O1H Ba1 1_555 1_555
O1I Ba1 1_555 1_555
O2I Ba1 1_555 1_555
O3B Ba1 1_555 1_555
O3K Ba1 1_555 1_555
C5 C6 1_555 1_555
C7 O2 1_555 1_555
C14 C15 1_555 1_555
C17 S2 1_555 1_555
C5L C6L 1_555 1_555
C14L C15L 1_555 1_555
C17L S1L 1_555 1_555
C17L S2L 1_555 1_555
O2L Ba1E 1_555 1_555
Ba1A O1A 1_555 1_555
Ba1A O1H 1_555 1_555
Ba1A O1I 1_555 1_555

#END
