
#######################################################################
#
#                 Cambridge Crystallographic Data Centre
#                                CCDC 
#
#######################################################################
#
# If this CIF has been generated from an entry in the Cambridge 
# Structural Database, then it will include bibliographic, chemical, 
# crystal, experimental, refinement or atomic coordinate data resulting 
# from the CCDC's data processing and validation procedures.
#
#######################################################################

data_ROZXEL
_chemical_formula_moiety         'C42 H24 O19 Zn10'
_symmetry_cell_setting           monoclinic
_symmetry_space_group_name_H-M   'C 2/m'
_symmetry_Int_Tables_number      12
_space_group_name_Hall           '-C 2y'
loop_
_symmetry_equiv_pos_site_id
_symmetry_equiv_pos_as_xyz
1 x,y,z
2 -x,y,-z
3 1/2+x,1/2+y,z
4 1/2-x,1/2+y,-z
5 -x,-y,-z
6 x,-y,z
7 1/2-x,1/2-y,-z
8 1/2+x,1/2-y,z
_cell_length_a                   24.230(2)
_cell_length_b                   24.193(2)
_cell_length_c                   17.0847(16)
_cell_angle_alpha                90
_cell_angle_beta                 92.957(3)
_cell_angle_gamma                90
_cell_volume                     10001.7
loop_
_atom_site_label
_atom_site_type_symbol
_atom_site_fract_x
_atom_site_fract_y
_atom_site_fract_z
C1 C 0.0423(2) 0.3976(2) 0.2486(3)
C2 C -0.0011(2) 0.3541(2) 0.2503(3)
C3 C -0.0462(2) 0.3561(2) 0.2005(4)
H1 H -0.0500 0.3853 0.1636
C4 C -0.0867(3) 0.3166(3) 0.2024(4)
H2 H -0.1186 0.3194 0.1679
C5 C -0.0814(3) 0.2739(3) 0.2527(5)
C6 C -0.0378(4) 0.2743(3) 0.3076(5)
H3 H -0.0356 0.2479 0.3487
C7 C 0.0015(3) 0.3127(3) 0.3018(5)
H4 H 0.0333 0.3103 0.3367
C8 C -0.1256(3) 0.2300(3) 0.2569(6)
C9 C -0.1650(3) 0.2311(3) 0.3066(6)
H5 H -0.1644 0.2604 0.3435
C10 C -0.1280(4) 0.1899(4) 0.2048(7)
H6 H -0.1017 0.1895 0.1655
C11 C -0.1672(4) 0.1483(4) 0.2048(6)
H7 H -0.1662 0.1189 0.1680
C12 C -0.2061(3) 0.1938(3) 0.3096(5)
H8 H -0.2340 0.1977 0.3464
C13 C -0.2069(3) 0.1496(3) 0.2575(5)
C14 C -0.2513(3) 0.1065(3) 0.2577(5)
C15 C 0.1356(4) 0.5000 0.0443(4)
C16 C 0.1365(4) 0.5000 -0.0441(4)
C17 C 0.1874(4) 0.5000 -0.0795(5)
H9 H 0.2197 0.5000 -0.0455
C18 C 0.1949(4) 0.5000 -0.1572(5)
H10 H 0.2303 0.5000 -0.1786
C19 C 0.1434(3) 0.5000 -0.2048(4)
C20 C 0.0932(3) 0.5000 -0.1707(4)
H11 H 0.0603 0.5000 -0.2035
C21 C 0.0891(3) 0.5000 -0.0922(4)
H12 H 0.0538 0.5000 -0.0703
C22 C 0.1453(3) 0.5000 -0.2924(4)
C23 C 0.1420(4) 0.4529(4) -0.3358(4)
H13 H 0.1360 0.4185 -0.3109
C24 C 0.1471(4) 0.4548(3) -0.4143(3)
H14 H 0.1504 0.4205 -0.4409
C25 C 0.1480(3) 0.5000 -0.4567(4)
C26 C 0.1498(3) 0.5000 -0.5396(4)
O1 O 0.0893(2) 0.5000 0.0722(2)
O2 O 0.1827(3) 0.5000 0.0824(3)
O3 O -0.2456(2) 0.0647(2) 0.2069(4)
O4 O -0.28860(18) 0.11266(17) 0.3049(3)
O5 O 0.08388(15) 0.39170(13) 0.2941(2)
O6 O 0.03465(11) 0.43649(11) 0.20245(18)
O7 O 0.15023(15) 0.45317(15) -0.5739(2)
O8 O 0.14836(11) 0.5000 0.25092(16)
Zn1 Zn 0.08123(2) 0.5000 0.18405(3)
Zn2 Zn 0.149937(17) 0.434639(17) 0.31605(2)
Zn3 Zn 0.21250(2) 0.5000 0.18578(4)
C23E C 0.1420(4) 0.5471(4) -0.3358(4)
H13E H 0.1360 0.5815 -0.3109
C24E C 0.1471(4) 0.5452(3) -0.4143(3)
H14E H 0.1504 0.5795 -0.4409
O7E O 0.15023(15) 0.54683(15) -0.5739(2)
C1E C 0.0423(2) 0.6024(2) 0.2486(3)
C2E C -0.0011(2) 0.6459(2) 0.2503(3)
C3E C -0.0462(2) 0.6439(2) 0.2005(4)
H1E H -0.0500 0.6147 0.1636
C4E C -0.0867(3) 0.6834(3) 0.2024(4)
H2E H -0.1186 0.6806 0.1679
C5E C -0.0814(3) 0.7261(3) 0.2527(5)
C6E C -0.0378(4) 0.7257(3) 0.3076(5)
H3E H -0.0356 0.7521 0.3487
C7E C 0.0015(3) 0.6873(3) 0.3018(5)
H4E H 0.0333 0.6897 0.3367
C8E C -0.1256(3) 0.7700(3) 0.2569(6)
C9E C -0.1650(3) 0.7689(3) 0.3066(6)
H5E H -0.1644 0.7396 0.3435
C10E C -0.1280(4) 0.8101(4) 0.2048(7)
H6E H -0.1017 0.8105 0.1655
C11E C -0.1672(4) 0.8517(4) 0.2048(6)
H7E H -0.1662 0.8811 0.1680
C12E C -0.2061(3) 0.8062(3) 0.3096(5)
H8E H -0.2340 0.8023 0.3464
C13E C -0.2069(3) 0.8504(3) 0.2575(5)
C14E C -0.2513(3) 0.8935(3) 0.2577(5)
O3E O -0.2456(2) 0.9353(2) 0.2069(4)
O4E O -0.28860(18) 0.88734(17) 0.3049(3)
O5E O 0.08388(15) 0.60830(13) 0.2941(2)
O6E O 0.03465(11) 0.56351(11) 0.20245(18)
Zn2E Zn 0.149937(17) 0.565361(17) 0.31605(2)
O3B O 0.2544(2) 0.5647(2) 0.2069(4)
O3G O 0.2544(2) 0.4353(2) 0.2069(4)
O4B O 0.21140(18) 0.61266(17) 0.3049(3)
O4G O 0.21140(18) 0.38734(17) 0.3049(3)
O7_2 O 0.15023(15) 0.45317(15) 0.4261(2)
O7E_2 O 0.15023(15) 0.54683(15) 0.4261(2)
Zn2_2 Zn 0.149937(17) 0.434639(17) -0.68395(2)
Zn2B Zn -0.350063(17) 0.934639(17) 0.31605(2)
Zn2E_2 Zn 0.149937(17) 0.565361(17) -0.68395(2)
Zn2G Zn -0.350063(17) 0.065361(17) 0.31605(2)
Zn3B Zn -0.28750(2) 0.0000 0.18578(4)
Zn3B_2 Zn -0.28750(2) 1.0000 0.18578(4)
loop_
_geom_bond_atom_site_label_1
_geom_bond_atom_site_label_2
_geom_bond_site_symmetry_1
_geom_bond_site_symmetry_2
C1 C2 1_555 1_555
C2 C3 1_555 1_555
C3 H1 1_555 1_555
C4 C3 1_555 1_555
H2 C4 1_555 1_555
C5 C4 1_555 1_555
C6 C5 1_555 1_555
H3 C6 1_555 1_555
C7 C2 1_555 1_555
H4 C7 1_555 1_555
C8 C5 1_555 1_555
C9 C8 1_555 1_555
H5 C9 1_555 1_555
C10 C8 1_555 1_555
H6 C10 1_555 1_555
C11 C10 1_555 1_555
H7 C11 1_555 1_555
C12 C9 1_555 1_555
H8 C12 1_555 1_555
C13 C11 1_555 1_555
C14 C13 1_555 1_555
C15 C16 1_555 1_555
C16 C17 1_555 1_555
C17 H9 1_555 1_555
C18 C17 1_555 1_555
H10 C18 1_555 1_555
C19 C18 1_555 1_555
C20 C19 1_555 1_555
H11 C20 1_555 1_555
C21 C16 1_555 1_555
H12 C21 1_555 1_555
C22 C19 1_555 1_555
C23 C22 1_555 1_555
H13 C23 1_555 1_555
C24 C23 1_555 1_555
H14 C24 1_555 1_555
C25 C24 1_555 1_555
C26 C25 1_555 1_555
O1 C15 1_555 1_555
O2 C15 1_555 1_555
O3 C14 1_555 1_555
O4 C14 1_555 1_555
O5 C1 1_555 1_555
O6 C1 1_555 1_555
O7 C26 1_555 1_555
O8 Zn1 1_555 1_555
Zn1 O1 1_555 1_555
Zn2 O5 1_555 1_555
Zn3 O2 1_555 1_555
C23E C22 1_555 1_555
H13E C23E 1_555 1_555
C24E C25 1_555 1_555
H14E C24E 1_555 1_555
O7E C26 1_555 1_555
C1E C2E 1_555 1_555
C2E C3E 1_555 1_555
C3E H1E 1_555 1_555
C4E C3E 1_555 1_555
H2E C4E 1_555 1_555
C5E C4E 1_555 1_555
C6E C5E 1_555 1_555
H3E C6E 1_555 1_555
C7E C2E 1_555 1_555
H4E C7E 1_555 1_555
C8E C5E 1_555 1_555
C9E C8E 1_555 1_555
H5E C9E 1_555 1_555
C10E C8E 1_555 1_555
H6E C10E 1_555 1_555
C11E C10E 1_555 1_555
H7E C11E 1_555 1_555
C12E C9E 1_555 1_555
H8E C12E 1_555 1_555
C13E C11E 1_555 1_555
C14E C13E 1_555 1_555
O3E C14E 1_555 1_555
O4E C14E 1_555 1_555
O5E C1E 1_555 1_555
O6E Zn1 1_555 1_555
Zn2E O8 1_555 1_555
O3B Zn3 1_555 1_555
O3G Zn3 1_555 1_555
O4B Zn2E 1_555 1_555
O4G Zn2 1_555 1_555
O7_2 Zn2 1_555 1_555
O7E_2 Zn2E 1_555 1_555
Zn2_2 O7 1_555 1_555
Zn2B O4E 1_555 1_555
Zn2E_2 O7E 1_555 1_555
Zn2G O4 1_555 1_555
Zn3B O3 1_555 1_555
Zn3B_2 O3E 1_555 1_555
C6 C7 1_555 1_555
C12 C13 1_555 1_555
C20 C21 1_555 1_555
O6 Zn1 1_555 1_555
O8 Zn2 1_555 1_555
O8 Zn3 1_555 1_555
C23E C24E 1_555 1_555
C1E O6E 1_555 1_555
C6E C7E 1_555 1_555
C12E C13E 1_555 1_555
O5E Zn2E 1_555 1_555

#END
