
#######################################################################
#
#                 Cambridge Crystallographic Data Centre
#                                CCDC 
#
#######################################################################
#
# If this CIF has been generated from an entry in the Cambridge 
# Structural Database, then it will include bibliographic, chemical, 
# crystal, experimental, refinement or atomic coordinate data resulting 
# from the CCDC's data processing and validation procedures.
#
#######################################################################

data_TAZLUD
_chemical_formula_moiety         '(C48 H54 Cd3 Gd2 N4 O35)n'
_symmetry_cell_setting           tetragonal
_symmetry_space_group_name_H-M   'P 42/n c m'
_symmetry_Int_Tables_number      138
_space_group_name_Hall           '-P 4ac 2ac'
loop_
_symmetry_equiv_pos_site_id
_symmetry_equiv_pos_as_xyz
1 x,y,z
2 1/2-x,1/2-y,z
3 1/2-y,x,1/2+z
4 y,1/2-x,1/2+z
5 -x,1/2+y,1/2-z
6 1/2+x,-y,1/2-z
7 1/2+y,1/2+x,-z
8 -y,-x,-z
9 -x,-y,-z
10 1/2+x,1/2+y,-z
11 1/2+y,-x,1/2-z
12 -y,1/2+x,1/2-z
13 x,1/2-y,1/2+z
14 1/2-x,y,1/2+z
15 1/2-y,1/2-x,z
16 y,x,z
_cell_length_a                   19.4687(2)
_cell_length_b                   19.4687(2)
_cell_length_c                   26.3746(7)
_cell_angle_alpha                90
_cell_angle_beta                 90
_cell_angle_gamma                90
_cell_volume                     9996.77
loop_
_atom_site_label
_atom_site_type_symbol
_atom_site_fract_x
_atom_site_fract_y
_atom_site_fract_z
_atom_site_U_iso_or_equiv
_atom_site_thermal_displace_type
Gd1 Gd 0.44386(3) 0.44386(3) -0.30236(3) 0.0308 Uani
Cd1 Cd 0.53260(4) 0.53260(4) -0.19573(4) 0.0329 Uani
Cd2 Cd 0.7500 0.2500 0.0000 0.0380 Uani
O1 O 0.5392(5) 0.4244(4) -0.1693(4) 0.0580 Uani
O2 O 0.4819(5) 0.3800(5) -0.2326(3) 0.0580 Uani
O3 O 0.6649(5) 0.2794(5) -0.0516(3) 0.0627 Uani
O4 O 0.5385(6) 0.0627(5) -0.2056(4) 0.0663 Uani
O5 O 0.4830(5) 0.1303(5) -0.2593(3) 0.0637 Uani
O6 O 0.6715(6) 0.1682(6) -0.0641(3) 0.0727 Uani
C1 C 0.5166(7) 0.3747(6) -0.1941(4) 0.0410 Uani
C2 C 0.5784(6) 0.1748(6) -0.1460(4) 0.0423 Uani
H1 H 0.5919 0.1312 -0.1356 0.0510 Uiso
C3 C 0.5769(6) 0.2958(6) -0.1344(4) 0.0367 Uani
H2 H 0.5901 0.3345 -0.1161 0.0440 Uiso
C4 C 0.5992(6) 0.2320(6) -0.1189(4) 0.0390 Uani
C5 C 0.5171(7) 0.1197(6) -0.2191(5) 0.0467 Uani
C6 C 0.6482(6) 0.2246(7) -0.0757(5) 0.0463 Uani
C7 C 0.5375(6) 0.1824(6) -0.1886(4) 0.0330 Uani
C8 C 0.5358(6) 0.3035(5) -0.1759(4) 0.0323 Uani
C9 C 0.5160(6) 0.2467(6) -0.2033(4) 0.0397 Uani
H3 H 0.4882 0.2518 -0.2317 0.0470 Uiso
O7 O 0.4636(9) 0.4636(9) -0.3904(5) 0.0997 Uani
O8 O 0.3574(5) 0.3574(5) -0.3005(6) 0.0803 Uani
O9 O 0.4941(6) 0.3392(6) -0.3370(4) 0.0743 Uani
N1 N 0.5734(13) 0.2535(9) -0.3404(9) 0.1213 Uani
C10 C 0.5486(11) 0.3111(10) -0.3216(11) 0.1150 Uani
C11 C 0.5410(15) 0.2371(17) -0.3813(10) 0.1803 Uani
H4 H 0.4998 0.2640 -0.3839 0.2730 Uiso
H5 H 0.5292 0.1892 -0.3802 0.2730 Uiso
H6 H 0.5697 0.2457 -0.4101 0.2730 Uiso
C12 C 0.641(2) 0.2285(16) -0.3130(16) 0.2800 Uani
H7 H 0.6568 0.1864 -0.3282 0.4190 Uiso
H8 H 0.6321 0.2209 -0.2777 0.4190 Uiso
H9 H 0.6763 0.2629 -0.3165 0.4190 Uiso
O11 O 0.5889(10) 0.5889(10) -0.1320(9) 0.1430 Uiso
Gd1A Gd 1.05614(3) 0.05614(3) -0.30236(3) 0.0308 Uani
Gd1D Gd 0.55614(3) -0.05614(3) -0.19764(3) 0.0308 Uani
Gd1E Gd 0.94386(3) 0.55614(3) -0.19764(3) 0.0308 Uani
Gd1F Gd 0.94386(3) -0.05614(3) 0.30236(3) 0.0308 Uani
Gd1C Gd 0.44386(3) 0.05614(3) 0.19764(3) 0.0308 Uani
Gd1G Gd 0.55614(3) 0.55614(3) 0.30236(3) 0.0308 Uani
Gd1B Gd 1.05614(3) 0.44386(3) 0.19764(3) 0.0308 Uani
Cd1A Cd 0.96740(4) -0.03260(4) -0.19573(4) 0.0329 Uani
Cd1D Cd 0.46740(4) 0.03260(4) -0.30427(4) 0.0329 Uani
Cd1E Cd 1.03260(4) 0.46740(4) -0.30427(4) 0.0329 Uani
Cd1F Cd 1.03260(4) 0.03260(4) 0.19573(4) 0.0329 Uani
Cd1C Cd 0.53260(4) -0.03260(4) 0.30427(4) 0.0329 Uani
Cd1G Cd 0.46740(4) 0.46740(4) 0.19573(4) 0.0329 Uani
Cd1B Cd 0.96740(4) 0.53260(4) 0.30427(4) 0.0329 Uani
O1A O 0.9608(5) 0.0756(4) -0.1693(4) 0.0580 Uani
O1F O 0.9244(4) 0.0392(5) 0.1693(4) 0.0580 Uani
O1G O 0.5756(4) 0.4608(5) 0.1693(4) 0.0580 Uani
O1O O 0.4244(4) 0.5392(5) -0.1693(4) 0.0580 Uani
O1N O 1.0756(4) -0.0392(5) -0.1693(4) 0.0580 Uani
O2A O 1.0181(5) 0.1200(5) -0.2326(3) 0.0580 Uani
O2F O 0.8800(5) -0.0181(5) 0.2326(3) 0.0580 Uani
O2G O 0.6200(5) 0.5181(5) 0.2326(3) 0.0580 Uani
O2O O 0.3800(5) 0.4819(5) -0.2326(3) 0.0580 Uani
O2N O 1.1200(5) 0.0181(5) -0.2326(3) 0.0580 Uani
O3A O 0.8351(5) 0.2206(5) -0.0516(3) 0.0627 Uani
O3F O 0.7794(5) 0.1649(5) 0.0516(3) 0.0627 Uani
O3G O 0.7206(5) 0.3351(5) 0.0516(3) 0.0627 Uani
O4A O 0.9615(6) 0.4373(5) -0.2056(4) 0.0663 Uani
O4F O 0.5627(5) 0.0385(6) 0.2056(4) 0.0663 Uani
O4G O 0.9373(5) 0.4615(6) 0.2056(4) 0.0663 Uani
O4D O 0.4615(6) 0.5627(5) -0.2944(4) 0.0663 Uani
O4J O 0.5627(5) 0.4615(6) -0.2944(4) 0.0663 Uani
O4E O 1.0385(6) -0.0627(5) -0.2944(4) 0.0663 Uani
O4K O 0.9373(5) 0.0385(6) -0.2944(4) 0.0663 Uani
O5A O 1.0170(5) 0.3697(5) -0.2593(3) 0.0637 Uani
O5F O 0.6303(5) -0.0170(5) 0.2593(3) 0.0637 Uani
O5G O 0.8697(5) 0.5170(5) 0.2593(3) 0.0637 Uani
O5D O 0.5170(5) 0.6303(5) -0.2407(3) 0.0637 Uani
O5J O 0.6303(5) 0.5170(5) -0.2407(3) 0.0637 Uani
O5E O 0.9830(5) -0.1303(5) -0.2407(3) 0.0637 Uani
O5K O 0.8697(5) -0.0170(5) -0.2407(3) 0.0637 Uani
O6A O 0.8285(6) 0.3318(6) -0.0641(3) 0.0727 Uani
O6F O 0.6682(6) 0.1715(6) 0.0641(3) 0.0727 Uani
O6G O 0.8318(6) 0.3285(6) 0.0641(3) 0.0727 Uani
C1A C 0.9834(7) 0.1253(6) -0.1941(4) 0.0410 Uani
C1F C 0.8747(6) 0.0166(7) 0.1941(4) 0.0410 Uani
C1G C 0.6253(6) 0.4834(7) 0.1941(4) 0.0410 Uani
C2A C 0.9216(6) 0.3252(6) -0.1460(4) 0.0423 Uani
C2F C 0.6748(6) 0.0784(6) 0.1460(4) 0.0423 Uani
C2G C 0.8252(6) 0.4216(6) 0.1460(4) 0.0423 Uani
H1A H 0.9081 0.3688 -0.1356 0.0510 Uiso
H1F H 0.6312 0.0919 0.1356 0.0510 Uiso
H1G H 0.8688 0.4081 0.1356 0.0510 Uiso
C3A C 0.9231(6) 0.2042(6) -0.1344(4) 0.0367 Uani
C3F C 0.7958(6) 0.0769(6) 0.1344(4) 0.0367 Uani
C3G C 0.7042(6) 0.4231(6) 0.1344(4) 0.0367 Uani
H2A H 0.9099 0.1655 -0.1161 0.0440 Uiso
H2F H 0.8345 0.0901 0.1161 0.0440 Uiso
H2G H 0.6655 0.4099 0.1161 0.0440 Uiso
C4A C 0.9008(6) 0.2680(6) -0.1189(4) 0.0390 Uani
C4F C 0.7320(6) 0.0992(6) 0.1189(4) 0.0390 Uani
C4G C 0.7680(6) 0.4008(6) 0.1189(4) 0.0390 Uani
C5A C 0.9829(7) 0.3803(6) -0.2191(5) 0.0467 Uani
C5F C 0.6197(6) 0.0171(7) 0.2191(5) 0.0467 Uani
C5G C 0.8803(6) 0.4829(7) 0.2191(5) 0.0467 Uani
C6A C 0.8518(6) 0.2754(7) -0.0757(5) 0.0463 Uani
C6F C 0.7246(7) 0.1482(6) 0.0757(5) 0.0463 Uani
C6G C 0.7754(7) 0.3518(6) 0.0757(5) 0.0463 Uani
C7A C 0.9625(6) 0.3176(6) -0.1886(4) 0.0330 Uani
C7F C 0.6824(6) 0.0375(6) 0.1886(4) 0.0330 Uani
C7G C 0.8176(6) 0.4625(6) 0.1886(4) 0.0330 Uani
C8A C 0.9642(6) 0.1965(5) -0.1759(4) 0.0323 Uani
C8F C 0.8035(5) 0.0358(6) 0.1759(4) 0.0323 Uani
C8G C 0.6965(5) 0.4642(6) 0.1759(4) 0.0323 Uani
C9A C 0.9840(6) 0.2533(6) -0.2033(4) 0.0397 Uani
C9F C 0.7467(6) 0.0160(6) 0.2033(4) 0.0397 Uani
C9G C 0.7533(6) 0.4840(6) 0.2033(4) 0.0397 Uani
H3A H 1.0118 0.2482 -0.2317 0.0470 Uiso
H3F H 0.7518 -0.0118 0.2317 0.0470 Uiso
H3G H 0.7482 0.5118 0.2317 0.0470 Uiso
O7A O 1.0364(9) 0.0364(9) -0.3904(5) 0.0997 Uani
O8A O 1.1426(5) 0.1426(5) -0.3005(6) 0.0803 Uani
O9O O 0.3392(6) 0.4941(6) -0.3370(4) 0.0743 Uani
O9A O 1.0059(6) 0.1608(6) -0.3370(4) 0.0743 Uani
O9N O 1.1608(6) 0.0059(6) -0.3370(4) 0.0743 Uani
N1O N 0.2535(9) 0.5734(13) -0.3404(9) 0.1213 Uani
N1A N 0.9266(13) 0.2465(9) -0.3404(9) 0.1213 Uani
N1N N 1.2465(9) -0.0734(13) -0.3404(9) 0.1213 Uani
C10O C 0.3111(10) 0.5486(11) -0.3216(11) 0.1150 Uani
C10A C 0.9514(11) 0.1889(10) -0.3216(11) 0.1150 Uani
C10N C 1.1889(10) -0.0486(11) -0.3216(11) 0.1150 Uani
C11O C 0.2371(17) 0.5410(15) -0.3813(10) 0.1803 Uani
C11A C 0.9590(15) 0.2629(17) -0.3813(10) 0.1803 Uani
C11N C 1.2629(17) -0.0410(15) -0.3813(10) 0.1803 Uani
H4O H 0.2640 0.4998 -0.3839 0.2730 Uiso
H4A H 1.0002 0.2360 -0.3839 0.2730 Uiso
H4N H 1.2360 0.0002 -0.3839 0.2730 Uiso
H5O H 0.1892 0.5292 -0.3802 0.2730 Uiso
H5A H 0.9708 0.3108 -0.3802 0.2730 Uiso
H5N H 1.3108 -0.0292 -0.3802 0.2730 Uiso
H6O H 0.2457 0.5697 -0.4101 0.2730 Uiso
H6A H 0.9303 0.2543 -0.4101 0.2730 Uiso
H6N H 1.2543 -0.0697 -0.4101 0.2730 Uiso
C12O C 0.2285(16) 0.641(2) -0.3130(16) 0.2800 Uani
C12A C 0.859(2) 0.2715(16) -0.3130(16) 0.2800 Uani
C12N C 1.2715(16) -0.141(2) -0.3130(16) 0.2800 Uani
H7O H 0.1864 0.6568 -0.3282 0.4190 Uiso
H7A H 0.8432 0.3136 -0.3282 0.4190 Uiso
H7N H 1.3136 -0.1568 -0.3282 0.4190 Uiso
H8O H 0.2209 0.6321 -0.2777 0.4190 Uiso
H8A H 0.8679 0.2791 -0.2777 0.4190 Uiso
H8N H 1.2791 -0.1321 -0.2777 0.4190 Uiso
H9O H 0.2629 0.6763 -0.3165 0.4190 Uiso
H9A H 0.8237 0.2371 -0.3165 0.4190 Uiso
H9N H 1.2371 -0.1763 -0.3165 0.4190 Uiso
O11A O 0.9111(10) -0.0889(10) -0.1320(9) 0.1430 Uiso
O10 O 0.6093(8) 0.0451(8) -0.0434(5) 0.1160 Uiso
loop_
_atom_site_aniso_label
_atom_site_aniso_U_11
_atom_site_aniso_U_22
_atom_site_aniso_U_33
_atom_site_aniso_U_23
_atom_site_aniso_U_13
_atom_site_aniso_U_12
Gd1 0.0304 0.0304 0.0317 -0.0061 -0.0061 0.0043
Cd1 0.0287 0.0287 0.0414 0.0002 0.0002 0.0073
Cd2 0.0434(6) 0.0434(6) 0.0273(7) 0.000 0.000 0.0152(8)
O1 0.074(7) 0.025(4) 0.075(6) 0.002(5) -0.010(6) -0.001(4)
O2 0.063(6) 0.055(6) 0.056(5) 0.013(5) -0.010(5) 0.023(5)
O3 0.074(7) 0.054(5) 0.060(5) -0.003(5) -0.033(5) -0.014(6)
O4 0.072(7) 0.032(5) 0.095(7) 0.002(5) -0.004(6) -0.006(5)
O5 0.076(7) 0.055(6) 0.060(5) -0.017(5) -0.021(5) -0.014(5)
O6 0.080(7) 0.078(7) 0.060(5) 0.010(5) -0.027(5) 0.021(6)
C1 0.051(7) 0.033(7) 0.039(6) 0.004(5) -0.005(6) 0.015(6)
C2 0.054(7) 0.029(6) 0.044(6) 0.009(5) -0.012(6) 0.006(6)
C3 0.047(6) 0.031(6) 0.032(5) 0.004(5) -0.001(5) -0.007(5)
C4 0.038(6) 0.036(6) 0.043(6) 0.005(5) -0.009(5) -0.003(5)
C5 0.050(8) 0.032(7) 0.058(7) -0.007(6) 0.005(7) -0.009(6)
C6 0.043(7) 0.052(8) 0.044(6) 0.014(6) -0.008(6) 0.007(6)
C7 0.038(6) 0.024(5) 0.037(5) -0.007(5) -0.009(5) 0.002(5)
C8 0.037(6) 0.020(5) 0.040(5) 0.003(5) 0.000(5) 0.005(5)
C9 0.035(6) 0.048(7) 0.036(5) 0.001(5) -0.005(5) 0.005(5)
O7 0.131 0.131 0.037 0.006 0.006 0.069
O8 0.065 0.065 0.111 -0.019 -0.019 -0.026
O9 0.084 0.057 0.082 -0.023 0.005 0.004
N1 0.16 0.066 0.138 -0.016 0.055 0.016
C10 0.094 0.051 0.2 -0.007 0.017 0.029
C11 0.18 0.25 0.111 -0.05 0.05 -0.14
C12 0.26 0.15 0.43 0.11 0.22 0.14
Gd1A 0.0304 0.0304 0.0317 0.0061 0.0061 0.0043
Gd1D 0.0304(4) 0.0304(4) 0.0317(4) 0.0061(2) -0.0061(2) -0.0043(3)
Gd1E 0.0304 0.0304 0.0317 -0.0061 0.0061 -0.0043
Gd1F 0.0304 0.0304 0.0317 0.0061 0.0061 0.0043
Gd1C 0.0304 0.0304 0.0317 0.0061 -0.0061 -0.0043
Gd1G 0.0304 0.0304 0.0317 -0.0061 -0.0061 0.0043
Gd1B 0.0304 0.0304 0.0317 -0.0061 0.0061 -0.0043
Cd1A 0.0287 0.0287 0.0414 -0.0002 -0.0002 0.0073
Cd1D 0.0287(4) 0.0287(4) 0.0414(6) -0.0002(4) 0.0002(4) -0.0073(5)
Cd1E 0.0287 0.0287 0.0414 0.0002 -0.0002 -0.0073
Cd1F 0.0287 0.0287 0.0414 -0.0002 -0.0002 0.0073
Cd1C 0.0287 0.0287 0.0414 -0.0002 0.0002 -0.0073
Cd1G 0.0287 0.0287 0.0414 0.0002 0.0002 0.0073
Cd1B 0.0287 0.0287 0.0414 0.0002 -0.0002 -0.0073
O1A 0.074 0.025 0.075 -0.002 0.01 -0.001
O1F 0.025 0.074 0.075 0.01 -0.002 -0.001
O1G 0.025 0.074 0.075 -0.01 0.002 -0.001
O1O 0.025 0.074 0.075 -0.01 0.002 -0.001
O1N 0.025 0.074 0.075 0.01 -0.002 -0.001
O2A 0.063 0.055 0.056 -0.013 0.01 0.023
O2F 0.055 0.063 0.056 0.01 -0.013 0.023
O2G 0.055 0.063 0.056 -0.01 0.013 0.023
O2O 0.055 0.063 0.056 -0.01 0.013 0.023
O2N 0.055 0.063 0.056 0.01 -0.013 0.023
O3A 0.074 0.054 0.06 0.003 0.033 -0.014
O3F 0.054 0.074 0.06 0.033 0.003 -0.014
O3G 0.054 0.074 0.06 -0.033 -0.003 -0.014
O4A 0.072 0.032 0.095 -0.002 0.004 -0.006
O4F 0.032 0.072 0.095 0.004 -0.002 -0.006
O4G 0.032 0.072 0.095 -0.004 0.002 -0.006
O4D 0.072 0.032 0.095 -0.002 -0.004 0.006
O4J 0.032 0.072 0.095 -0.004 -0.002 0.006
O4E 0.072 0.032 0.095 0.002 0.004 0.006
O4K 0.032 0.072 0.095 0.004 0.002 0.006
O5A 0.076 0.055 0.06 0.017 0.021 -0.014
O5F 0.055 0.076 0.06 0.021 0.017 -0.014
O5G 0.055 0.076 0.06 -0.021 -0.017 -0.014
O5D 0.076 0.055 0.06 0.017 -0.021 0.014
O5J 0.055 0.076 0.06 -0.021 0.017 0.014
O5E 0.076 0.055 0.06 -0.017 0.021 0.014
O5K 0.055 0.076 0.06 0.021 -0.017 0.014
O6A 0.08 0.078 0.06 -0.01 0.027 0.021
O6F 0.078 0.08 0.06 0.027 -0.01 0.021
O6G 0.078 0.08 0.06 -0.027 0.01 0.021
C1A 0.051 0.033 0.039 -0.004 0.005 0.015
C1F 0.033 0.051 0.039 0.005 -0.004 0.015
C1G 0.033 0.051 0.039 -0.005 0.004 0.015
C2A 0.054 0.029 0.044 -0.009 0.012 0.006
C2F 0.029 0.054 0.044 0.012 -0.009 0.006
C2G 0.029 0.054 0.044 -0.012 0.009 0.006
C3A 0.047 0.031 0.032 -0.004 0.001 -0.007
C3F 0.031 0.047 0.032 0.001 -0.004 -0.007
C3G 0.031 0.047 0.032 -0.001 0.004 -0.007
C4A 0.038 0.036 0.043 -0.005 0.009 -0.003
C4F 0.036 0.038 0.043 0.009 -0.005 -0.003
C4G 0.036 0.038 0.043 -0.009 0.005 -0.003
C5A 0.05 0.032 0.058 0.007 -0.005 -0.009
C5F 0.032 0.05 0.058 -0.005 0.007 -0.009
C5G 0.032 0.05 0.058 0.005 -0.007 -0.009
C6A 0.043 0.052 0.044 -0.014 0.008 0.007
C6F 0.052 0.043 0.044 0.008 -0.014 0.007
C6G 0.052 0.043 0.044 -0.008 0.014 0.007
C7A 0.038 0.024 0.037 0.007 0.009 0.002
C7F 0.024 0.038 0.037 0.009 0.007 0.002
C7G 0.024 0.038 0.037 -0.009 -0.007 0.002
C8A 0.037 0.02 0.04 -0.003 0 0.005
C8F 0.02 0.037 0.04 0 -0.003 0.005
C8G 0.02 0.037 0.04 0 0.003 0.005
C9A 0.035 0.048 0.036 -0.001 0.005 0.005
C9F 0.048 0.035 0.036 0.005 -0.001 0.005
C9G 0.048 0.035 0.036 -0.005 0.001 0.005
O7A 0.131 0.131 0.037 -0.006 -0.006 0.069
O8A 0.065 0.065 0.111 0.019 0.019 -0.026
O9O 0.057 0.084 0.082 0.005 -0.023 0.004
O9A 0.084 0.057 0.082 0.023 -0.005 0.004
O9N 0.057 0.084 0.082 -0.005 0.023 0.004
N1O 0.066 0.16 0.138 0.055 -0.016 0.016
N1A 0.16 0.066 0.138 0.016 -0.055 0.016
N1N 0.066 0.16 0.138 -0.055 0.016 0.016
C10O 0.051 0.094 0.2 0.017 -0.007 0.029
C10A 0.094 0.051 0.2 0.007 -0.017 0.029
C10N 0.051 0.094 0.2 -0.017 0.007 0.029
C11O 0.25 0.18 0.111 0.05 -0.05 -0.14
C11A 0.18 0.25 0.111 0.05 -0.05 -0.14
C11N 0.25 0.18 0.111 -0.05 0.05 -0.14
C12O 0.15 0.26 0.43 0.22 0.11 0.14
C12A 0.26 0.15 0.43 -0.11 -0.22 0.14
C12N 0.15 0.26 0.43 -0.22 -0.11 0.14
loop_
_geom_bond_atom_site_label_1
_geom_bond_atom_site_label_2
_geom_bond_site_symmetry_1
_geom_bond_site_symmetry_2
Gd1 O2 1_555 1_555
Cd1 O1 1_555 1_555
Cd2 O3 1_555 1_555
O1 C1 1_555 1_555
O2 C1 1_555 1_555
O3 C6 1_555 1_555
O4 C5 1_555 1_555
O5 C5 1_555 1_555
O6 Cd2 1_555 1_555
C1 C8 1_555 1_555
C2 H1 1_555 1_555
C3 H2 1_555 1_555
C4 C2 1_555 1_555
C5 C7 1_555 1_555
C6 O6 1_555 1_555
C7 C2 1_555 1_555
C8 C3 1_555 1_555
C9 C7 1_555 1_555
H3 C9 1_555 1_555
O7 Gd1 1_555 1_555
O8 Gd1 1_555 1_555
O9 Gd1 1_555 1_555
N1 C10 1_555 1_555
C10 O9 1_555 1_555
C11 N1 1_555 1_555
H4 C11 1_555 1_555
H5 C11 1_555 1_555
H6 C11 1_555 1_555
C12 N1 1_555 1_555
H7 C12 1_555 1_555
H8 C12 1_555 1_555
H9 C12 1_555 1_555
O11 Cd1 1_555 1_555
Gd1A O2A 1_555 1_555
Gd1D O4 1_555 1_555
Gd1E O4A 1_555 1_555
Gd1F O2F 1_555 1_555
Gd1C O4F 1_555 1_555
Gd1G O2G 1_555 1_555
Gd1B O4G 1_555 1_555
Cd1A O1A 1_555 1_555
Cd1D O5 1_555 1_555
Cd1E O5A 1_555 1_555
Cd1F O1F 1_555 1_555
Cd1C O5F 1_555 1_555
Cd1G O1G 1_555 1_555
Cd1B O5G 1_555 1_555
O1A C1A 1_555 1_555
O1F C1F 1_555 1_555
O1G C1G 1_555 1_555
O1O Cd1 1_555 1_555
O1N Cd1A 1_555 1_555
O2A C1A 1_555 1_555
O2F C1F 1_555 1_555
O2G C1G 1_555 1_555
O2O Gd1 1_555 1_555
O2N Gd1A 1_555 1_555
O3A Cd2 1_555 1_555
O3F Cd2 1_555 1_555
O3G Cd2 1_555 1_555
O4A C5A 1_555 1_555
O4F C5F 1_555 1_555
O4G C5G 1_555 1_555
O4D Gd1 1_555 1_555
O4J Gd1 1_555 1_555
O4E Gd1A 1_555 1_555
O4K Gd1A 1_555 1_555
O5A C5A 1_555 1_555
O5F C5F 1_555 1_555
O5G C5G 1_555 1_555
O5D Cd1 1_555 1_555
O5J Cd1 1_555 1_555
O5E Cd1A 1_555 1_555
O5K Cd1A 1_555 1_555
O6A Cd2 1_555 1_555
O6F Cd2 1_555 1_555
O6G Cd2 1_555 1_555
C1A C8A 1_555 1_555
C1F C8F 1_555 1_555
C1G C8G 1_555 1_555
C2A H1A 1_555 1_555
C2F H1F 1_555 1_555
C2G H1G 1_555 1_555
C3A H2A 1_555 1_555
C3F H2F 1_555 1_555
C3G H2G 1_555 1_555
C4A C2A 1_555 1_555
C4F C2F 1_555 1_555
C4G C2G 1_555 1_555
C5A C7A 1_555 1_555
C5F C7F 1_555 1_555
C5G C7G 1_555 1_555
C6A O3A 1_555 1_555
C6F O3F 1_555 1_555
C6G O3G 1_555 1_555
C7A C2A 1_555 1_555
C7F C2F 1_555 1_555
C7G C2G 1_555 1_555
C8A C3A 1_555 1_555
C8F C3F 1_555 1_555
C8G C3G 1_555 1_555
C9A C7A 1_555 1_555
C9F C7F 1_555 1_555
C9G C7G 1_555 1_555
H3A C9A 1_555 1_555
H3F C9F 1_555 1_555
H3G C9G 1_555 1_555
O7A Gd1A 1_555 1_555
O8A Gd1A 1_555 1_555
O9O Gd1 1_555 1_555
O9A Gd1A 1_555 1_555
O9N Gd1A 1_555 1_555
N1O C10O 1_555 1_555
N1A C10A 1_555 1_555
N1N C10N 1_555 1_555
C10O O9O 1_555 1_555
C10A O9A 1_555 1_555
C10N O9N 1_555 1_555
C11O N1O 1_555 1_555
C11A N1A 1_555 1_555
C11N N1N 1_555 1_555
H4O C11O 1_555 1_555
H4A C11A 1_555 1_555
H4N C11N 1_555 1_555
H5O C11O 1_555 1_555
H5A C11A 1_555 1_555
H5N C11N 1_555 1_555
H6O C11O 1_555 1_555
H6A C11A 1_555 1_555
H6N C11N 1_555 1_555
C12O N1O 1_555 1_555
C12A N1A 1_555 1_555
C12N N1N 1_555 1_555
H7O C12O 1_555 1_555
H7A C12A 1_555 1_555
H7N C12N 1_555 1_555
H8O C12O 1_555 1_555
H8A C12A 1_555 1_555
H8N C12N 1_555 1_555
H9O C12O 1_555 1_555
H9A C12A 1_555 1_555
H9N C12N 1_555 1_555
O11A Cd1A 1_555 1_555
C3 C4 1_555 1_555
C4 C6 1_555 1_555
C8 C9 1_555 1_555
O6A C6A 1_555 1_555
O6F C6F 1_555 1_555
O6G C6G 1_555 1_555
C3A C4A 1_555 1_555
C3F C4F 1_555 1_555
C3G C4G 1_555 1_555
C4A C6A 1_555 1_555
C4F C6F 1_555 1_555
C4G C6G 1_555 1_555
C8A C9A 1_555 1_555
C8F C9F 1_555 1_555
C8G C9G 1_555 1_555

#END
