
#######################################################################
#
#                 Cambridge Crystallographic Data Centre
#                                CCDC 
#
#######################################################################
#
# If this CIF has been generated from an entry in the Cambridge 
# Structural Database, then it will include bibliographic, chemical, 
# crystal, experimental, refinement or atomic coordinate data resulting 
# from the CCDC's data processing and validation procedures.
#
#######################################################################

data_TAZLIR
_chemical_formula_moiety         '(C48 H54 Cd3 N4 O35 Sm2)n'
_symmetry_cell_setting           tetragonal
_symmetry_space_group_name_H-M   'P 42/n c m'
_symmetry_Int_Tables_number      138
_space_group_name_Hall           '-P 4ac 2ac'
loop_
_symmetry_equiv_pos_site_id
_symmetry_equiv_pos_as_xyz
1 x,y,z
2 1/2-x,1/2-y,z
3 1/2-y,x,1/2+z
4 y,1/2-x,1/2+z
5 -x,1/2+y,1/2-z
6 1/2+x,-y,1/2-z
7 1/2+y,1/2+x,-z
8 -y,-x,-z
9 -x,-y,-z
10 1/2+x,1/2+y,-z
11 1/2+y,-x,1/2-z
12 -y,1/2+x,1/2-z
13 x,1/2-y,1/2+z
14 1/2-x,y,1/2+z
15 1/2-y,1/2-x,z
16 y,x,z
_cell_length_a                   19.4876(2)
_cell_length_b                   19.4876(2)
_cell_length_c                   26.3770(4)
_cell_angle_alpha                90
_cell_angle_beta                 90
_cell_angle_gamma                90
_cell_volume                     10017.1
loop_
_atom_site_label
_atom_site_type_symbol
_atom_site_fract_x
_atom_site_fract_y
_atom_site_fract_z
_atom_site_U_iso_or_equiv
_atom_site_thermal_displace_type
Cd1 Cd 0.47010(4) 0.02990(4) 0.30393(4) 0.0336 Uani
Cd2 Cd 0.2500 -0.2500 0.5000 0.0398 Uani
Sm1 Sm 0.55899(3) -0.05899(3) 0.19713(3) 0.0335 Uani
C1 C 0.4836(6) -0.1286(5) 0.3064(4) 0.0450 Uani
C2 C 0.4620(5) -0.3203(6) 0.3119(4) 0.0400 Uani
C3 C 0.3524(6) -0.2750(6) 0.4255(4) 0.0497 Uani
C4 C 0.4653(5) -0.1991(5) 0.3246(4) 0.0373 Uani
C5 C 0.4012(5) -0.2696(5) 0.3816(4) 0.0407 Uani
C6 C 0.4845(5) -0.2559(5) 0.2974(4) 0.0343 Uani
H1 H 0.5127 -0.2512 0.2692 0.0410 Uiso
C7 C 0.4232(5) -0.2058(5) 0.3668(4) 0.0400 Uani
H2 H 0.4100 -0.1671 0.3849 0.0480 Uiso
C8 C 0.4199(5) -0.3273(5) 0.3544(4) 0.0393 Uani
H3 H 0.4045 -0.3704 0.3643 0.0470 Uiso
C9 C 0.4559(16) -0.1914(11) 0.1756(12) 0.1887 Uani
C10 C 0.4567(14) -0.2715(17) 0.1180(11) 0.2033 Uani
H4 H 0.4978 -0.2452 0.1128 0.3060 Uiso
H5 H 0.4272 -0.2666 0.0891 0.3060 Uiso
H6 H 0.4683 -0.3190 0.1224 0.3060 Uiso
C11 C 0.353(2) -0.2657(18) 0.1924(18) 0.3367 Uani
H7 H 0.3480 -0.2353 0.2209 0.5030 Uiso
H8 H 0.3546 -0.3123 0.2042 0.5030 Uiso
H9 H 0.3137 -0.2603 0.1703 0.5030 Uiso
C12 C 0.4805(6) -0.3818(6) 0.2803(5) 0.0457 Uani
O1 O 0.5209(4) -0.1233(4) 0.2675(3) 0.0590 Uani
O2 O 0.4603(5) -0.4377(4) 0.2940(4) 0.0663 Uani
O3 O 0.3365(5) -0.2214(5) 0.4489(3) 0.0690 Uani
O4 O 0.3272(5) -0.3323(5) 0.4361(3) 0.0713 Uani
O5 O 0.4623(5) -0.0787(4) 0.3302(3) 0.0570 Uani
O6 O 0.5069(6) -0.1633(5) 0.1614(4) 0.0843 Uani
O7 O 0.5132(5) -0.3736(5) 0.2402(3) 0.0673 Uani
O8 O 0.6465(5) -0.1465(5) 0.2010(6) 0.0893 Uani
O9 O 0.4208(13) 0.0792(13) 0.3728(12) 0.2400 Uani
O10 O 0.5389(6) -0.0389(6) 0.1084(6) 0.0810 Uiso
N1 N 0.4225(11) -0.2475(9) 0.1616(9) 0.1313 Uani
Cd1A Cd 0.02990(4) -0.52990(4) 0.30393(4) 0.0336 Uani
Cd1D Cd 0.52990(4) -0.47010(4) 0.19607(4) 0.0336 Uani
Cd1E Cd -0.02990(4) -0.02990(4) 0.19607(4) 0.0336 Uani
Cd1F Cd 0.52990(4) -0.02990(4) 0.69607(4) 0.0336 Uani
Cd1C Cd 0.02990(4) 0.02990(4) 0.80393(4) 0.0336 Uani
Cd1G Cd -0.02990(4) -0.47010(4) 0.69607(4) 0.0336 Uani
Cd1B Cd 0.47010(4) -0.52990(4) 0.80393(4) 0.0336 Uani
Sm1A Sm -0.05899(3) -0.44101(3) 0.19713(3) 0.0335 Uani
Sm1D Sm 0.44101(3) -0.55899(3) 0.30287(3) 0.0335 Uani
Sm1E Sm 0.05899(3) 0.05899(3) 0.30287(3) 0.0335 Uani
Sm1F Sm 0.44101(3) 0.05899(3) 0.80287(3) 0.0335 Uani
Sm1C Sm -0.05899(3) -0.05899(3) 0.69713(3) 0.0335 Uani
Sm1G Sm 0.05899(3) -0.55899(3) 0.80287(3) 0.0335 Uani
Sm1B Sm 0.55899(3) -0.44101(3) 0.69713(3) 0.0335 Uani
C1A C 0.0164(6) -0.3714(5) 0.3064(4) 0.0450 Uani
C1F C 0.3714(5) -0.0164(6) 0.6936(4) 0.0450 Uani
C1G C 0.1286(5) -0.4836(6) 0.6936(4) 0.0450 Uani
C2A C 0.0380(5) -0.1797(6) 0.3119(4) 0.0400 Uani
C2F C 0.1797(6) -0.0380(5) 0.6881(4) 0.0400 Uani
C2G C 0.3203(6) -0.4620(5) 0.6881(4) 0.0400 Uani
C3A C 0.1476(6) -0.2250(6) 0.4255(4) 0.0497 Uani
C3F C 0.2250(6) -0.1476(6) 0.5745(4) 0.0497 Uani
C3G C 0.2750(6) -0.3524(6) 0.5745(4) 0.0497 Uani
C4A C 0.0347(5) -0.3009(5) 0.3246(4) 0.0373 Uani
C4F C 0.3009(5) -0.0347(5) 0.6754(4) 0.0373 Uani
C4G C 0.1991(5) -0.4653(5) 0.6754(4) 0.0373 Uani
C5A C 0.0988(5) -0.2304(5) 0.3816(4) 0.0407 Uani
C5F C 0.2304(5) -0.0988(5) 0.6184(4) 0.0407 Uani
C5G C 0.2696(5) -0.4012(5) 0.6184(4) 0.0407 Uani
C6A C 0.0155(5) -0.2441(5) 0.2974(4) 0.0343 Uani
C6F C 0.2441(5) -0.0155(5) 0.7026(4) 0.0343 Uani
C6G C 0.2559(5) -0.4845(5) 0.7026(4) 0.0343 Uani
H1A H -0.0127 -0.2488 0.2692 0.0410 Uiso
H1F H 0.2488 0.0127 0.7308 0.0410 Uiso
H1G H 0.2512 -0.5127 0.7308 0.0410 Uiso
C7A C 0.0768(5) -0.2942(5) 0.3668(4) 0.0400 Uani
C7F C 0.2942(5) -0.0768(5) 0.6332(4) 0.0400 Uani
C7G C 0.2058(5) -0.4232(5) 0.6332(4) 0.0400 Uani
H2A H 0.0900 -0.3329 0.3849 0.0480 Uiso
H2F H 0.3329 -0.0900 0.6151 0.0480 Uiso
H2G H 0.1671 -0.4100 0.6151 0.0480 Uiso
C8A C 0.0801(5) -0.1727(5) 0.3544(4) 0.0393 Uani
C8F C 0.1727(5) -0.0801(5) 0.6456(4) 0.0393 Uani
C8G C 0.3273(5) -0.4199(5) 0.6456(4) 0.0393 Uani
H3A H 0.0955 -0.1296 0.3643 0.0470 Uiso
H3F H 0.1296 -0.0955 0.6357 0.0470 Uiso
H3G H 0.3704 -0.4045 0.6357 0.0470 Uiso
C9N C 0.6914(11) 0.0441(16) 0.1756(12) 0.1887 Uani
C9A C 0.0441(16) -0.3086(11) 0.1756(12) 0.1887 Uani
C9O C -0.1914(11) -0.5441(16) 0.1756(12) 0.1887 Uani
C10N C 0.7715(17) 0.0433(14) 0.1180(11) 0.2033 Uani
C10A C 0.0433(14) -0.2285(17) 0.1180(11) 0.2033 Uani
C10O C -0.2715(17) -0.5433(14) 0.1180(11) 0.2033 Uani
H4N H 0.7452 0.0022 0.1128 0.3060 Uiso
H4A H 0.0022 -0.2548 0.1128 0.3060 Uiso
H4O H -0.2452 -0.5022 0.1128 0.3060 Uiso
H5N H 0.7666 0.0728 0.0891 0.3060 Uiso
H5A H 0.0728 -0.2334 0.0891 0.3060 Uiso
H5O H -0.2666 -0.5728 0.0891 0.3060 Uiso
H6N H 0.8190 0.0317 0.1224 0.3060 Uiso
H6A H 0.0317 -0.1810 0.1224 0.3060 Uiso
H6O H -0.3190 -0.5317 0.1224 0.3060 Uiso
C11N C 0.7657(18) 0.147(2) 0.1924(18) 0.3367 Uani
C11A C 0.147(2) -0.2343(18) 0.1924(18) 0.3367 Uani
C11O C -0.2657(18) -0.647(2) 0.1924(18) 0.3367 Uani
H7N H 0.7353 0.1520 0.2209 0.5030 Uiso
H7A H 0.1520 -0.2647 0.2209 0.5030 Uiso
H7O H -0.2353 -0.6520 0.2209 0.5030 Uiso
H8N H 0.8123 0.1454 0.2042 0.5030 Uiso
H8A H 0.1454 -0.1877 0.2042 0.5030 Uiso
H8O H -0.3123 -0.6454 0.2042 0.5030 Uiso
H9N H 0.7603 0.1863 0.1703 0.5030 Uiso
H9A H 0.1863 -0.2397 0.1703 0.5030 Uiso
H9O H -0.2603 -0.6863 0.1703 0.5030 Uiso
C12A C 0.0195(6) -0.1182(6) 0.2803(5) 0.0457 Uani
C12F C 0.1182(6) -0.0195(6) 0.7197(5) 0.0457 Uani
C12G C 0.3818(6) -0.4805(6) 0.7197(5) 0.0457 Uani
O1A O -0.0209(4) -0.3767(4) 0.2675(3) 0.0590 Uani
O1F O 0.3767(4) 0.0209(4) 0.7325(3) 0.0590 Uani
O1G O 0.1233(4) -0.5209(4) 0.7325(3) 0.0590 Uani
O1N O 0.6233(4) -0.0209(4) 0.2675(3) 0.0590 Uani
O1O O -0.1233(4) -0.4791(4) 0.2675(3) 0.0590 Uani
O2A O 0.0397(5) -0.0623(4) 0.2940(4) 0.0663 Uani
O2F O 0.0623(4) -0.0397(5) 0.7060(4) 0.0663 Uani
O2G O 0.4377(4) -0.4603(5) 0.7060(4) 0.0663 Uani
O2D O 0.5397(5) 0.0623(4) 0.2060(4) 0.0663 Uani
O2K O 0.4377(4) -0.0397(5) 0.2060(4) 0.0663 Uani
O2E O -0.0397(5) -0.5623(4) 0.2060(4) 0.0663 Uani
O2J O 0.0623(4) -0.4603(5) 0.2060(4) 0.0663 Uani
O3A O 0.1635(5) -0.2786(5) 0.4489(3) 0.0690 Uani
O3F O 0.2786(5) -0.1635(5) 0.5511(3) 0.0690 Uani
O3G O 0.2214(5) -0.3365(5) 0.5511(3) 0.0690 Uani
O4A O 0.1728(5) -0.1677(5) 0.4361(3) 0.0713 Uani
O4F O 0.1677(5) -0.1728(5) 0.5639(3) 0.0713 Uani
O4G O 0.3323(5) -0.3272(5) 0.5639(3) 0.0713 Uani
O5A O 0.0377(5) -0.4213(4) 0.3302(3) 0.0570 Uani
O5F O 0.4213(4) -0.0377(5) 0.6698(3) 0.0570 Uani
O5G O 0.0787(4) -0.4623(5) 0.6698(3) 0.0570 Uani
O5N O 0.5787(4) 0.0377(5) 0.3302(3) 0.0570 Uani
O5O O -0.0787(4) -0.5377(5) 0.3302(3) 0.0570 Uani
O6N O 0.6633(5) -0.0069(6) 0.1614(4) 0.0843 Uani
O6A O -0.0069(6) -0.3367(5) 0.1614(4) 0.0843 Uani
O6O O -0.1633(5) -0.4931(6) 0.1614(4) 0.0843 Uani
O7A O -0.0132(5) -0.1264(5) 0.2402(3) 0.0673 Uani
O7F O 0.1264(5) 0.0132(5) 0.7598(3) 0.0673 Uani
O7G O 0.3736(5) -0.5132(5) 0.7598(3) 0.0673 Uani
O7D O 0.4868(5) 0.1264(5) 0.2598(3) 0.0673 Uani
O7K O 0.3736(5) 0.0132(5) 0.2598(3) 0.0673 Uani
O7E O 0.0132(5) -0.6264(5) 0.2598(3) 0.0673 Uani
O7J O 0.1264(5) -0.5132(5) 0.2598(3) 0.0673 Uani
O8A O -0.1465(5) -0.3535(5) 0.2010(6) 0.0893 Uani
O9A O 0.0792(13) -0.5792(13) 0.3728(12) 0.2400 Uani
O10A O -0.0389(6) -0.4611(6) 0.1084(6) 0.0810 Uiso
N1N N 0.7475(9) 0.0775(11) 0.1616(9) 0.1313 Uani
N1A N 0.0775(11) -0.2525(9) 0.1616(9) 0.1313 Uani
N1O N -0.2475(9) -0.5775(11) 0.1616(9) 0.1313 Uani
O11 O 0.6106(8) 0.0441(8) 0.0428(6) 0.1350 Uiso
loop_
_atom_site_aniso_label
_atom_site_aniso_U_11
_atom_site_aniso_U_22
_atom_site_aniso_U_33
_atom_site_aniso_U_23
_atom_site_aniso_U_13
_atom_site_aniso_U_12
Cd1 0.0316(4) 0.0316(4) 0.0376(6) -0.0034(3) 0.0034(3) -0.0068(4)
Cd2 0.0476(6) 0.0476(6) 0.0241(7) 0.000 0.000 -0.0170(7)
Sm1 0.0338(3) 0.0338(3) 0.0328(4) -0.0076(2) 0.0076(2) -0.0050(3)
C1 0.059(7) 0.025(5) 0.051(7) 0.007(5) 0.003(5) -0.006(5)
C2 0.040(6) 0.045(6) 0.035(5) -0.006(5) 0.003(4) 0.007(5)
C3 0.046(7) 0.052(7) 0.051(6) 0.004(6) 0.017(5) -0.007(6)
C4 0.045(6) 0.026(5) 0.041(5) 0.005(4) 0.003(5) -0.003(4)
C5 0.040(6) 0.040(6) 0.042(6) 0.002(5) 0.009(5) -0.005(5)
C6 0.032(5) 0.032(5) 0.039(5) 0.002(4) 0.012(4) -0.003(4)
C7 0.047(6) 0.035(6) 0.038(5) 0.001(4) 0.010(5) 0.003(5)
C8 0.046(6) 0.027(5) 0.045(6) 0.006(4) 0.008(5) -0.001(4)
C9 0.22(3) 0.076(14) 0.27(3) 0.057(18) -0.17(3) -0.078(18)
C10 0.18(3) 0.27(4) 0.16(2) -0.08(3) -0.07(2) 0.15(3)
C11 0.29(5) 0.20(4) 0.52(8) 0.19(4) -0.25(5) -0.19(4)
C12 0.049(7) 0.033(6) 0.055(7) 0.011(5) -0.002(6) 0.007(5)
O1 0.067(6) 0.058(5) 0.052(5) 0.015(4) 0.010(4) -0.026(4)
O2 0.067(6) 0.030(5) 0.102(7) -0.004(4) 0.008(5) 0.003(4)
O3 0.087(7) 0.051(5) 0.069(6) -0.003(4) 0.040(5) 0.009(5)
O4 0.075(6) 0.081(7) 0.058(5) 0.006(5) 0.026(5) -0.023(5)
O5 0.075(6) 0.021(4) 0.075(6) 0.005(4) 0.009(5) -0.009(4)
O6 0.094(8) 0.047(6) 0.112(8) -0.028(6) -0.019(6) -0.015(5)
O7 0.090(7) 0.059(6) 0.053(5) -0.010(4) 0.017(5) 0.021(5)
O8 0.077(6) 0.077(6) 0.114(12) -0.020(6) 0.020(6) 0.021(8)
O9 0.23(2) 0.23(2) 0.26(3) -0.19(2) 0.19(2) -0.16(2)
N1 0.122(14) 0.082(11) 0.19(2) -0.014(12) -0.079(15) 0.002(11)
Cd1A 0.0316 0.0316 0.0376 0.0034 -0.0034 -0.0068
Cd1D 0.0316 0.0316 0.0376 0.0034 0.0034 0.0068
Cd1E 0.0316 0.0316 0.0376 -0.0034 -0.0034 0.0068
Cd1F 0.0316 0.0316 0.0376 -0.0034 0.0034 -0.0068
Cd1C 0.0316 0.0316 0.0376 -0.0034 -0.0034 0.0068
Cd1G 0.0316 0.0316 0.0376 0.0034 -0.0034 -0.0068
Cd1B 0.0316 0.0316 0.0376 0.0034 0.0034 0.0068
Sm1A 0.0338 0.0338 0.0328 0.0076 -0.0076 -0.005
Sm1D 0.0338 0.0338 0.0328 0.0076 0.0076 0.005
Sm1E 0.0338 0.0338 0.0328 -0.0076 -0.0076 0.005
Sm1F 0.0338 0.0338 0.0328 -0.0076 0.0076 -0.005
Sm1C 0.0338 0.0338 0.0328 -0.0076 -0.0076 0.005
Sm1G 0.0338 0.0338 0.0328 0.0076 -0.0076 -0.005
Sm1B 0.0338 0.0338 0.0328 0.0076 0.0076 0.005
C1A 0.059 0.025 0.051 -0.007 -0.003 -0.006
C1F 0.025 0.059 0.051 -0.003 -0.007 -0.006
C1G 0.025 0.059 0.051 0.003 0.007 -0.006
C2A 0.04 0.045 0.035 0.006 -0.003 0.007
C2F 0.045 0.04 0.035 -0.003 0.006 0.007
C2G 0.045 0.04 0.035 0.003 -0.006 0.007
C3A 0.046 0.052 0.051 -0.004 -0.017 -0.007
C3F 0.052 0.046 0.051 -0.017 -0.004 -0.007
C3G 0.052 0.046 0.051 0.017 0.004 -0.007
C4A 0.045 0.026 0.041 -0.005 -0.003 -0.003
C4F 0.026 0.045 0.041 -0.003 -0.005 -0.003
C4G 0.026 0.045 0.041 0.003 0.005 -0.003
C5A 0.04 0.04 0.042 -0.002 -0.009 -0.005
C5F 0.04 0.04 0.042 -0.009 -0.002 -0.005
C5G 0.04 0.04 0.042 0.009 0.002 -0.005
C6A 0.032 0.032 0.039 -0.002 -0.012 -0.003
C6F 0.032 0.032 0.039 -0.012 -0.002 -0.003
C6G 0.032 0.032 0.039 0.012 0.002 -0.003
C7A 0.047 0.035 0.038 -0.001 -0.01 0.003
C7F 0.035 0.047 0.038 -0.01 -0.001 0.003
C7G 0.035 0.047 0.038 0.01 0.001 0.003
C8A 0.046 0.027 0.045 -0.006 -0.008 -0.001
C8F 0.027 0.046 0.045 -0.008 -0.006 -0.001
C8G 0.027 0.046 0.045 0.008 0.006 -0.001
C9N 0.076 0.22 0.27 0.17 -0.057 -0.078
C9A 0.22 0.076 0.27 -0.057 0.17 -0.078
C9O 0.076 0.22 0.27 -0.17 0.057 -0.078
C10N 0.27 0.18 0.16 0.07 0.08 0.15
C10A 0.18 0.27 0.16 0.08 0.07 0.15
C10O 0.27 0.18 0.16 -0.07 -0.08 0.15
C11N 0.2 0.29 0.52 0.25 -0.19 -0.19
C11A 0.29 0.2 0.52 -0.19 0.25 -0.19
C11O 0.2 0.29 0.52 -0.25 0.19 -0.19
C12A 0.049 0.033 0.055 -0.011 0.002 0.007
C12F 0.033 0.049 0.055 0.002 -0.011 0.007
C12G 0.033 0.049 0.055 -0.002 0.011 0.007
O1A 0.067 0.058 0.052 -0.015 -0.01 -0.026
O1F 0.058 0.067 0.052 -0.01 -0.015 -0.026
O1G 0.058 0.067 0.052 0.01 0.015 -0.026
O1N 0.058 0.067 0.052 -0.01 -0.015 -0.026
O1O 0.058 0.067 0.052 0.01 0.015 -0.026
O2A 0.067 0.03 0.102 0.004 -0.008 0.003
O2F 0.03 0.067 0.102 -0.008 0.004 0.003
O2G 0.03 0.067 0.102 0.008 -0.004 0.003
O2D 0.067 0.03 0.102 0.004 0.008 -0.003
O2K 0.03 0.067 0.102 -0.008 -0.004 -0.003
O2E 0.067 0.03 0.102 -0.004 -0.008 -0.003
O2J 0.03 0.067 0.102 0.008 0.004 -0.003
O3A 0.087 0.051 0.069 0.003 -0.04 0.009
O3F 0.051 0.087 0.069 -0.04 0.003 0.009
O3G 0.051 0.087 0.069 0.04 -0.003 0.009
O4A 0.075 0.081 0.058 -0.006 -0.026 -0.023
O4F 0.081 0.075 0.058 -0.026 -0.006 -0.023
O4G 0.081 0.075 0.058 0.026 0.006 -0.023
O5A 0.075 0.021 0.075 -0.005 -0.009 -0.009
O5F 0.021 0.075 0.075 -0.009 -0.005 -0.009
O5G 0.021 0.075 0.075 0.009 0.005 -0.009
O5N 0.021 0.075 0.075 -0.009 -0.005 -0.009
O5O 0.021 0.075 0.075 0.009 0.005 -0.009
O6N 0.047 0.094 0.112 0.019 0.028 -0.015
O6A 0.094 0.047 0.112 0.028 0.019 -0.015
O6O 0.047 0.094 0.112 -0.019 -0.028 -0.015
O7A 0.09 0.059 0.053 0.01 -0.017 0.021
O7F 0.059 0.09 0.053 -0.017 0.01 0.021
O7G 0.059 0.09 0.053 0.017 -0.01 0.021
O7D 0.09 0.059 0.053 0.01 0.017 -0.021
O7K 0.059 0.09 0.053 -0.017 -0.01 -0.021
O7E 0.09 0.059 0.053 -0.01 -0.017 -0.021
O7J 0.059 0.09 0.053 0.017 0.01 -0.021
O8A 0.077 0.077 0.114 0.02 -0.02 0.021
O9A 0.23 0.23 0.26 0.19 -0.19 -0.16
N1N 0.082 0.122 0.19 0.079 0.014 0.002
N1A 0.122 0.082 0.19 0.014 0.079 0.002
N1O 0.082 0.122 0.19 -0.079 -0.014 0.002
loop_
_geom_bond_atom_site_label_1
_geom_bond_atom_site_label_2
_geom_bond_site_symmetry_1
_geom_bond_site_symmetry_2
Cd1 O5 1_555 1_555
Cd2 O3 1_555 1_555
Sm1 O1 1_555 1_555
C1 C4 1_555 1_555
C2 C6 1_555 1_555
C3 C5 1_555 1_555
C4 C6 1_555 1_555
C5 C7 1_555 1_555
C6 H1 1_555 1_555
C7 C4 1_555 1_555
H2 C7 1_555 1_555
C8 C2 1_555 1_555
H3 C8 1_555 1_555
C9 O6 1_555 1_555
C10 H4 1_555 1_555
H5 C10 1_555 1_555
H6 C10 1_555 1_555
C11 H7 1_555 1_555
H8 C11 1_555 1_555
H9 C11 1_555 1_555
C12 C2 1_555 1_555
O1 C1 1_555 1_555
O2 C12 1_555 1_555
O3 C3 1_555 1_555
O4 Cd2 1_555 1_555
O5 C1 1_555 1_555
O6 Sm1 1_555 1_555
O7 C12 1_555 1_555
O8 Sm1 1_555 1_555
O9 Cd1 1_555 1_555
O10 Sm1 1_555 1_555
N1 C9 1_555 1_555
Cd1A O5A 1_555 1_555
Cd1D O7 1_555 1_555
Cd1E O7A 1_555 1_555
Cd1F O5F 1_555 1_555
Cd1C O7F 1_555 1_555
Cd1G O5G 1_555 1_555
Cd1B O7G 1_555 1_555
Sm1A O1A 1_555 1_555
Sm1D O2 1_555 1_555
Sm1E O2A 1_555 1_555
Sm1F O1F 1_555 1_555
Sm1C O2F 1_555 1_555
Sm1G O1G 1_555 1_555
Sm1B O2G 1_555 1_555
C1A C4A 1_555 1_555
C1F C4F 1_555 1_555
C1G C4G 1_555 1_555
C2A C6A 1_555 1_555
C2F C6F 1_555 1_555
C2G C6G 1_555 1_555
C3A C5A 1_555 1_555
C3F C5F 1_555 1_555
C3G C5G 1_555 1_555
C4A C6A 1_555 1_555
C4F C6F 1_555 1_555
C4G C6G 1_555 1_555
C5A C7A 1_555 1_555
C5F C7F 1_555 1_555
C5G C7G 1_555 1_555
C6A H1A 1_555 1_555
C6F H1F 1_555 1_555
C6G H1G 1_555 1_555
C7A C4A 1_555 1_555
C7F C4F 1_555 1_555
C7G C4G 1_555 1_555
H2A C7A 1_555 1_555
H2F C7F 1_555 1_555
H2G C7G 1_555 1_555
C8A C2A 1_555 1_555
C8F C2F 1_555 1_555
C8G C2G 1_555 1_555
H3A C8A 1_555 1_555
H3F C8F 1_555 1_555
H3G C8G 1_555 1_555
C9N O6N 1_555 1_555
C9A O6A 1_555 1_555
C9O O6O 1_555 1_555
C10N H4N 1_555 1_555
C10A H4A 1_555 1_555
C10O H4O 1_555 1_555
H5N C10N 1_555 1_555
H5A C10A 1_555 1_555
H5O C10O 1_555 1_555
H6N C10N 1_555 1_555
H6A C10A 1_555 1_555
H6O C10O 1_555 1_555
C11N H7N 1_555 1_555
C11A H7A 1_555 1_555
C11O H7O 1_555 1_555
H8N C11N 1_555 1_555
H8A C11A 1_555 1_555
H8O C11O 1_555 1_555
H9N C11N 1_555 1_555
H9A C11A 1_555 1_555
H9O C11O 1_555 1_555
C12A C2A 1_555 1_555
C12F C2F 1_555 1_555
C12G C2G 1_555 1_555
O1A C1A 1_555 1_555
O1F C1F 1_555 1_555
O1G C1G 1_555 1_555
O1N Sm1 1_555 1_555
O1O Sm1A 1_555 1_555
O2A C12A 1_555 1_555
O2F C12F 1_555 1_555
O2G C12G 1_555 1_555
O2D Sm1 1_555 1_555
O2K Sm1 1_555 1_555
O2E Sm1A 1_555 1_555
O2J Sm1A 1_555 1_555
O3A Cd2 1_555 1_555
O3F Cd2 1_555 1_555
O3G Cd2 1_555 1_555
O4A Cd2 1_555 1_555
O4F Cd2 1_555 1_555
O4G Cd2 1_555 1_555
O5A C1A 1_555 1_555
O5F C1F 1_555 1_555
O5G C1G 1_555 1_555
O5N Cd1 1_555 1_555
O5O Cd1A 1_555 1_555
O6N Sm1 1_555 1_555
O6A Sm1A 1_555 1_555
O6O Sm1A 1_555 1_555
O7A C12A 1_555 1_555
O7F C12F 1_555 1_555
O7G C12G 1_555 1_555
O7D Cd1 1_555 1_555
O7K Cd1 1_555 1_555
O7E Cd1A 1_555 1_555
O7J Cd1A 1_555 1_555
O8A Sm1A 1_555 1_555
O9A Cd1A 1_555 1_555
O10A Sm1A 1_555 1_555
N1N C9N 1_555 1_555
N1A C9A 1_555 1_555
N1O C9O 1_555 1_555
C3 O4 1_555 1_555
C5 C8 1_555 1_555
C10 N1 1_555 1_555
C11 N1 1_555 1_555
C3A O3A 1_555 1_555
C3A O4A 1_555 1_555
C3F O3F 1_555 1_555
C3F O4F 1_555 1_555
C3G O3G 1_555 1_555
C3G O4G 1_555 1_555
C5A C8A 1_555 1_555
C5F C8F 1_555 1_555
C5G C8G 1_555 1_555
C10N N1N 1_555 1_555
C10A N1A 1_555 1_555
C10O N1O 1_555 1_555
C11N N1N 1_555 1_555
C11A N1A 1_555 1_555
C11O N1O 1_555 1_555

#END
