
#######################################################################
#
#                 Cambridge Crystallographic Data Centre
#                                CCDC 
#
#######################################################################
#
# If this CIF has been generated from an entry in the Cambridge 
# Structural Database, then it will include bibliographic, chemical, 
# crystal, experimental, refinement or atomic coordinate data resulting 
# from the CCDC's data processing and validation procedures.
#
#######################################################################

data_TAZLOX
_chemical_formula_moiety         '(C48 H54 Cd3 Eu2 N4 O35)n'
_symmetry_cell_setting           tetragonal
_symmetry_space_group_name_H-M   'P 42/n c m'
_symmetry_Int_Tables_number      138
_space_group_name_Hall           '-P 4ac 2ac'
loop_
_symmetry_equiv_pos_site_id
_symmetry_equiv_pos_as_xyz
1 x,y,z
2 1/2-x,1/2-y,z
3 1/2-y,x,1/2+z
4 y,1/2-x,1/2+z
5 -x,1/2+y,1/2-z
6 1/2+x,-y,1/2-z
7 1/2+y,1/2+x,-z
8 -y,-x,-z
9 -x,-y,-z
10 1/2+x,1/2+y,-z
11 1/2+y,-x,1/2-z
12 -y,1/2+x,1/2-z
13 x,1/2-y,1/2+z
14 1/2-x,y,1/2+z
15 1/2-y,1/2-x,z
16 y,x,z
_cell_length_a                   19.4911(4)
_cell_length_b                   19.4911(4)
_cell_length_c                   26.2995(14)
_cell_angle_alpha                90
_cell_angle_beta                 90
_cell_angle_gamma                90
_cell_volume                     9991.26
loop_
_atom_site_label
_atom_site_type_symbol
_atom_site_fract_x
_atom_site_fract_y
_atom_site_fract_z
_atom_site_U_iso_or_equiv
_atom_site_thermal_displace_type
Eu1 Eu -0.05653(3) 0.55653(3) 0.80259(3) 0.0294 Uani
Cd1 Cd 0.03243(4) 0.46757(4) 0.69633(4) 0.0298 Uani
C1 C 0.3741(6) 0.5179(6) 0.8057(4) 0.0343 Uani
C2 C 0.1821(6) 0.5378(6) 0.8118(4) 0.0337 Uani
C3 C 0.3031(5) 0.5362(5) 0.8240(4) 0.0280 Uani
C4 C 0.2965(6) 0.5770(6) 0.8661(5) 0.0377 Uani
H1 H 0.3352 0.5898 0.8846 0.0450 Uiso
C5 C 0.1198(5) 0.5172(6) 0.7810(6) 0.0407 Uani
C6 C 0.2468(6) 0.5165(6) 0.7968(4) 0.0323 Uani
H2 H 0.2519 0.4889 0.7682 0.0390 Uiso
C7 C 0.2251(7) 0.6474(6) 0.9253(5) 0.0447 Uani
C8 C 0.1748(6) 0.5785(6) 0.8539(4) 0.0360 Uani
H3 H 0.1313 0.5924 0.8641 0.0430 Uiso
C9 C 0.2319(6) 0.5991(6) 0.8812(5) 0.0383 Uani
C10 C -0.2717(16) 0.3573(17) 0.8115(14) 0.2000 Uani
H4 H -0.2447 0.3490 0.7816 0.2960 Uiso
H5 H -0.3188 0.3639 0.8020 0.2960 Uiso
H6 H -0.2682 0.3187 0.8340 0.2960 Uiso
C11 C -0.2667(16) 0.4565(14) 0.8811(11) 0.1667 Uani
H7 H -0.2393 0.4971 0.8852 0.2510 Uiso
H8 H -0.2615 0.4276 0.9104 0.2510 Uiso
H9 H -0.3140 0.4691 0.8774 0.2510 Uiso
C12 C -0.1880(11) 0.4514(14) 0.8217(11) 0.1287 Uani
O1 O 0.1680(6) 0.6720(5) 0.9360(3) 0.0663 Uani
O2 O 0.2794(5) 0.6649(6) 0.9484(4) 0.0640 Uani
O3 O 0.0636(4) 0.5381(5) 0.7947(4) 0.0607 Uani
O4 O 0.1296(5) 0.4839(5) 0.7407(4) 0.0583 Uani
O5 O 0.4239(4) 0.5405(5) 0.8305(4) 0.0557 Uani
O6 O 0.3801(4) 0.4817(5) 0.7678(3) 0.0523 Uani
O7 O -0.1603(5) 0.5058(6) 0.8378(4) 0.0730 Uani
O8 O -0.1431(5) 0.6431(5) 0.7999(6) 0.0750 Uani
O9 O -0.0380(7) 0.5380(7) 0.8905(5) 0.0803 Uani
N1 N -0.2453(9) 0.4214(12) 0.8383(9) 0.1187 Uani
Cd2 Cd 0.2500 0.7500 1.0000 0.0370 Uani
O11 O 0.0857(11) 0.4143(11) 0.6304(11) 0.1680 Uani
Eu1A Eu 0.55653(3) 0.94347(3) 0.80259(3) 0.0294 Uani
Eu1E Eu 0.44347(3) 0.44347(3) 0.69741(3) 0.0294 Uani
Eu1D Eu 0.05653(3) 1.05653(3) 0.69741(3) 0.0294 Uani
Eu1G Eu 0.44347(3) 1.05653(3) 1.19741(3) 0.0294 Uani
Eu1C Eu 0.55653(3) 0.55653(3) 1.30259(3) 0.0294 Uani
Eu1F Eu 0.05653(3) 0.44347(3) 1.19741(3) 0.0294 Uani
Eu1B Eu -0.05653(3) 0.94347(3) 1.30259(3) 0.0294 Uani
Cd1A Cd 0.46757(4) 1.03243(4) 0.69633(4) 0.0298 Uani
Cd1E Cd 0.53243(4) 0.53243(4) 0.80367(4) 0.0298 Uani
Cd1D Cd -0.03243(4) 0.96757(4) 0.80367(4) 0.0298 Uani
Cd1G Cd 0.53243(4) 0.96757(4) 1.30367(4) 0.0298 Uani
Cd1C Cd 0.46757(4) 0.46757(4) 1.19633(4) 0.0298 Uani
Cd1F Cd -0.03243(4) 0.53243(4) 1.30367(4) 0.0298 Uani
Cd1B Cd 0.03243(4) 1.03243(4) 1.19633(4) 0.0298 Uani
C1A C 0.1259(6) 0.9821(6) 0.8057(4) 0.0343 Uani
C1G C 0.4821(6) 0.6259(6) 1.1943(4) 0.0343 Uani
C1F C 0.0179(6) 0.8741(6) 1.1943(4) 0.0343 Uani
C2A C 0.3179(6) 0.9622(6) 0.8118(4) 0.0337 Uani
C2G C 0.4622(6) 0.8179(6) 1.1882(4) 0.0337 Uani
C2F C 0.0378(6) 0.6821(6) 1.1882(4) 0.0337 Uani
C3A C 0.1969(5) 0.9638(5) 0.8240(4) 0.0280 Uani
C3G C 0.4638(5) 0.6969(5) 1.1760(4) 0.0280 Uani
C3F C 0.0362(5) 0.8031(5) 1.1760(4) 0.0280 Uani
C4A C 0.2035(6) 0.9230(6) 0.8661(5) 0.0377 Uani
C4G C 0.4230(6) 0.7035(6) 1.1339(5) 0.0377 Uani
C4F C 0.0770(6) 0.7965(6) 1.1339(5) 0.0377 Uani
H1A H 0.1648 0.9102 0.8846 0.0450 Uiso
H1G H 0.4102 0.6648 1.1154 0.0450 Uiso
H1F H 0.0898 0.8352 1.1154 0.0450 Uiso
C5A C 0.3802(5) 0.9828(6) 0.7810(6) 0.0407 Uani
C5G C 0.4828(6) 0.8802(5) 1.2190(6) 0.0407 Uani
C5F C 0.0172(6) 0.6198(5) 1.2190(6) 0.0407 Uani
C6A C 0.2532(6) 0.9835(6) 0.7968(4) 0.0323 Uani
C6G C 0.4835(6) 0.7532(6) 1.2032(4) 0.0323 Uani
C6F C 0.0165(6) 0.7468(6) 1.2032(4) 0.0323 Uani
H2A H 0.2481 1.0111 0.7682 0.0390 Uiso
H2G H 0.5111 0.7481 1.2318 0.0390 Uiso
H2F H -0.0111 0.7519 1.2318 0.0390 Uiso
C7A C 0.2749(7) 0.8526(6) 0.9253(5) 0.0447 Uani
C7G C 0.3526(6) 0.7749(7) 1.0747(5) 0.0447 Uani
C7F C 0.1474(6) 0.7251(7) 1.0747(5) 0.0447 Uani
C8A C 0.3252(6) 0.9215(6) 0.8539(4) 0.0360 Uani
C8G C 0.4215(6) 0.8252(6) 1.1461(4) 0.0360 Uani
C8F C 0.0785(6) 0.6748(6) 1.1461(4) 0.0360 Uani
H3A H 0.3687 0.9076 0.8641 0.0430 Uiso
H3G H 0.4076 0.8687 1.1359 0.0430 Uiso
H3F H 0.0924 0.6313 1.1359 0.0430 Uiso
C9A C 0.2681(6) 0.9009(6) 0.8812(5) 0.0383 Uani
C9G C 0.4009(6) 0.7681(6) 1.1188(5) 0.0383 Uani
C9F C 0.0991(6) 0.7319(6) 1.1188(5) 0.0383 Uani
C10N C 0.1427(17) 0.7717(16) 0.8115(14) 0.2000 Uani
C10A C 0.7717(16) 1.1427(17) 0.8115(14) 0.2000 Uani
C10O C 0.3573(17) 0.7283(16) 0.8115(14) 0.2000 Uani
H4N H 0.1510 0.7447 0.7816 0.2960 Uiso
H4A H 0.7447 1.1510 0.7816 0.2960 Uiso
H4O H 0.3490 0.7553 0.7816 0.2960 Uiso
H5N H 0.1361 0.8188 0.8020 0.2960 Uiso
H5A H 0.8188 1.1361 0.8020 0.2960 Uiso
H5O H 0.3639 0.6812 0.8020 0.2960 Uiso
H6N H 0.1813 0.7682 0.8340 0.2960 Uiso
H6A H 0.7682 1.1813 0.8340 0.2960 Uiso
H6O H 0.3187 0.7318 0.8340 0.2960 Uiso
C11N C 0.0435(14) 0.7667(16) 0.8811(11) 0.1667 Uani
C11A C 0.7667(16) 1.0435(14) 0.8811(11) 0.1667 Uani
C11O C 0.4565(14) 0.7333(16) 0.8811(11) 0.1667 Uani
H7N H 0.0029 0.7393 0.8852 0.2510 Uiso
H7A H 0.7393 1.0029 0.8852 0.2510 Uiso
H7O H 0.4971 0.7607 0.8852 0.2510 Uiso
H8N H 0.0724 0.7615 0.9104 0.2510 Uiso
H8A H 0.7615 1.0724 0.9104 0.2510 Uiso
H8O H 0.4276 0.7385 0.9104 0.2510 Uiso
H9N H 0.0309 0.8140 0.8774 0.2510 Uiso
H9A H 0.8140 1.0309 0.8774 0.2510 Uiso
H9O H 0.4691 0.6860 0.8774 0.2510 Uiso
C12N C 0.0486(14) 0.6880(11) 0.8217(11) 0.1287 Uani
C12A C 0.6880(11) 1.0486(14) 0.8217(11) 0.1287 Uani
C12O C 0.4514(14) 0.8120(11) 0.8217(11) 0.1287 Uani
O1A O 0.3320(6) 0.8280(5) 0.9360(3) 0.0663 Uani
O1G O 0.3280(5) 0.8320(6) 1.0640(3) 0.0663 Uani
O1F O 0.1720(5) 0.6680(6) 1.0640(3) 0.0663 Uani
O2A O 0.2206(5) 0.8351(6) 0.9484(4) 0.0640 Uani
O2G O 0.3351(6) 0.7206(5) 1.0516(4) 0.0640 Uani
O2F O 0.1649(6) 0.7794(5) 1.0516(4) 0.0640 Uani
O3A O 0.4364(4) 0.9619(5) 0.7947(4) 0.0607 Uani
O3G O 0.4619(5) 0.9364(4) 1.2053(4) 0.0607 Uani
O3F O 0.0381(5) 0.5636(4) 1.2053(4) 0.0607 Uani
O3N O -0.0381(5) 0.4364(4) 0.7947(4) 0.0607 Uani
O3O O 0.5381(5) 1.0636(4) 0.7947(4) 0.0607 Uani
O4A O 0.3704(5) 1.0161(5) 0.7407(4) 0.0583 Uani
O4G O 0.5161(5) 0.8704(5) 1.2593(4) 0.0583 Uani
O4F O -0.0161(5) 0.6296(5) 1.2593(4) 0.0583 Uani
O4N O 0.0161(5) 0.3704(5) 0.7407(4) 0.0583 Uani
O4O O 0.4839(5) 1.1296(5) 0.7407(4) 0.0583 Uani
O5A O 0.0761(4) 0.9595(5) 0.8305(4) 0.0557 Uani
O5G O 0.4595(5) 0.5761(4) 1.1695(4) 0.0557 Uani
O5F O 0.0405(5) 0.9239(4) 1.1695(4) 0.0557 Uani
O5E O -0.0761(4) 0.4595(5) 0.6695(4) 0.0557 Uani
O5J O 0.0405(5) 0.5761(4) 0.6695(4) 0.0557 Uani
O5D O 0.5761(4) 1.0405(5) 0.6695(4) 0.0557 Uani
O5K O 0.4595(5) 0.9239(4) 0.6695(4) 0.0557 Uani
O6A O 0.1199(4) 1.0183(5) 0.7678(3) 0.0523 Uani
O6G O 0.5183(5) 0.6199(4) 1.2322(3) 0.0523 Uani
O6F O -0.0183(5) 0.8801(4) 1.2322(3) 0.0523 Uani
O6E O -0.1199(4) 0.5183(5) 0.7322(3) 0.0523 Uani
O6J O -0.0183(5) 0.6199(4) 0.7322(3) 0.0523 Uani
O6D O 0.6199(4) 0.9817(5) 0.7322(3) 0.0523 Uani
O6K O 0.5183(5) 0.8801(4) 0.7322(3) 0.0523 Uani
O7N O -0.0058(6) 0.6603(5) 0.8378(4) 0.0730 Uani
O7A O 0.6603(5) 0.9942(6) 0.8378(4) 0.0730 Uani
O7O O 0.5058(6) 0.8397(5) 0.8378(4) 0.0730 Uani
O8A O 0.6431(5) 0.8569(5) 0.7999(6) 0.0750 Uani
O9A O 0.5380(7) 0.9620(7) 0.8905(5) 0.0803 Uani
N1N N 0.0786(12) 0.7453(9) 0.8383(9) 0.1187 Uani
N1A N 0.7453(9) 1.0786(12) 0.8383(9) 0.1187 Uani
N1O N 0.4214(12) 0.7547(9) 0.8383(9) 0.1187 Uani
O11A O 0.4143(11) 1.0857(11) 0.6304(11) 0.1680 Uani
O10 O -0.4548(8) 0.3901(10) 0.5434(5) 0.1313 Uani
loop_
_atom_site_aniso_label
_atom_site_aniso_U_11
_atom_site_aniso_U_22
_atom_site_aniso_U_33
_atom_site_aniso_U_23
_atom_site_aniso_U_13
_atom_site_aniso_U_12
Eu1 0.0249(3) 0.0249(3) 0.0385(5) -0.0065(3) 0.0065(3) -0.0044(3)
Cd1 0.0224(4) 0.0224(4) 0.0445(7) -0.0011(4) 0.0011(4) -0.0064(5)
C1 0.032 0.041 0.03 -0.008 0.007 0.004
C2 0.026 0.033 0.042 -0.01 -0.008 0.003
C3 0.015 0.025 0.044 -0.006 0.01 0.006
C4 0.022 0.042 0.049 -0.009 0.001 -0.004
C5 0.008 0.032 0.082 -0.001 -0.006 -0.007
C6 0.025 0.029 0.043 -0.009 0.002 0.003
C7 0.049 0.034 0.051 -0.012 0.006 0.007
C8 0.017 0.042 0.049 -0.003 0.003 0.005
C9 0.032 0.029 0.054 -0.01 0.004 0.003
C10 0.14(3) 0.15(3) 0.31(5) 0.08(3) -0.04(3) -0.06(2)
C11 0.22(4) 0.15(3) 0.13(2) 0.05(2) 0.02(2) 0.12(3)
C12 0.056(13) 0.14(2) 0.19(2) 0.08(2) -0.019(15) -0.040(14)
O1 0.071 0.075 0.053 -0.025 0.01 0.023
O2 0.05 0.076 0.066 -0.038 -0.001 -0.009
O3 0.014 0.062 0.106 -0.01 -0.006 -0.002
O4 0.052 0.067 0.056 -0.021 -0.015 -0.014
O5 0.02 0.062 0.085 -0.017 0.001 0
O6 0.038 0.062 0.057 -0.011 0.005 0.026
O7 0.047(6) 0.070(8) 0.102(8) 0.010(6) 0.014(6) -0.017(6)
O8 0.052(6) 0.052(6) 0.121(13) -0.018(6) 0.018(6) 0.005(8)
O9 0.098(8) 0.098(8) 0.045(8) 0.000(6) 0.000(6) -0.046(10)
N1 0.077(12) 0.124(17) 0.155(19) 0.058(15) 0.007(12) -0.018(12)
Cd2 0.0396 0.0396 0.0317 0 0 0.0167
O11 0.152(15) 0.152(15) 0.20(2) -0.104(17) 0.104(17) -0.071(19)
Eu1A 0.0249 0.0249 0.0385 0.0065 -0.0065 -0.0044
Eu1E 0.0249 0.0249 0.0385 -0.0065 -0.0065 0.0044
Eu1D 0.0249 0.0249 0.0385 0.0065 0.0065 0.0044
Eu1G 0.0249 0.0249 0.0385 0.0065 -0.0065 -0.0044
Eu1C 0.0249 0.0249 0.0385 -0.0065 -0.0065 0.0044
Eu1F 0.0249 0.0249 0.0385 -0.0065 0.0065 -0.0044
Eu1B 0.0249 0.0249 0.0385 0.0065 0.0065 0.0044
Cd1A 0.0224 0.0224 0.0445 0.0011 -0.0011 -0.0064
Cd1E 0.0224 0.0224 0.0445 -0.0011 -0.0011 0.0064
Cd1D 0.0224 0.0224 0.0445 0.0011 0.0011 0.0064
Cd1G 0.0224 0.0224 0.0445 0.0011 -0.0011 -0.0064
Cd1C 0.0224 0.0224 0.0445 -0.0011 -0.0011 0.0064
Cd1F 0.0224 0.0224 0.0445 -0.0011 0.0011 -0.0064
Cd1B 0.0224 0.0224 0.0445 0.0011 0.0011 0.0064
C1A 0.032 0.041 0.03 0.008 -0.007 0.004
C1G 0.041 0.032 0.03 0.007 -0.008 0.004
C1F 0.041 0.032 0.03 -0.007 0.008 0.004
C2A 0.026 0.033 0.042 0.01 0.008 0.003
C2G 0.033 0.026 0.042 -0.008 -0.01 0.003
C2F 0.033 0.026 0.042 0.008 0.01 0.003
C3A 0.015 0.025 0.044 0.006 -0.01 0.006
C3G 0.025 0.015 0.044 0.01 -0.006 0.006
C3F 0.025 0.015 0.044 -0.01 0.006 0.006
C4A 0.022 0.042 0.049 0.009 -0.001 -0.004
C4G 0.042 0.022 0.049 0.001 -0.009 -0.004
C4F 0.042 0.022 0.049 -0.001 0.009 -0.004
C5A 0.008 0.032 0.082 0.001 0.006 -0.007
C5G 0.032 0.008 0.082 -0.006 -0.001 -0.007
C5F 0.032 0.008 0.082 0.006 0.001 -0.007
C6A 0.025 0.029 0.043 0.009 -0.002 0.003
C6G 0.029 0.025 0.043 0.002 -0.009 0.003
C6F 0.029 0.025 0.043 -0.002 0.009 0.003
C7A 0.049 0.034 0.051 0.012 -0.006 0.007
C7G 0.034 0.049 0.051 0.006 -0.012 0.007
C7F 0.034 0.049 0.051 -0.006 0.012 0.007
C8A 0.017 0.042 0.049 0.003 -0.003 0.005
C8G 0.042 0.017 0.049 0.003 -0.003 0.005
C8F 0.042 0.017 0.049 -0.003 0.003 0.005
C9A 0.032 0.029 0.054 0.01 -0.004 0.003
C9G 0.029 0.032 0.054 0.004 -0.01 0.003
C9F 0.029 0.032 0.054 -0.004 0.01 0.003
C10N 0.15 0.14 0.31 0.04 -0.08 -0.06
C10A 0.14 0.15 0.31 -0.08 0.04 -0.06
C10O 0.15 0.14 0.31 -0.04 0.08 -0.06
C11N 0.15 0.22 0.13 -0.02 -0.05 0.12
C11A 0.22 0.15 0.13 -0.05 -0.02 0.12
C11O 0.15 0.22 0.13 0.02 0.05 0.12
C12N 0.14 0.056 0.19 0.019 -0.08 -0.04
C12A 0.056 0.14 0.19 -0.08 0.019 -0.04
C12O 0.14 0.056 0.19 -0.019 0.08 -0.04
O1A 0.071 0.075 0.053 0.025 -0.01 0.023
O1G 0.075 0.071 0.053 0.01 -0.025 0.023
O1F 0.075 0.071 0.053 -0.01 0.025 0.023
O2A 0.05 0.076 0.066 0.038 0.001 -0.009
O2G 0.076 0.05 0.066 -0.001 -0.038 -0.009
O2F 0.076 0.05 0.066 0.001 0.038 -0.009
O3A 0.014 0.062 0.106 0.01 0.006 -0.002
O3G 0.062 0.014 0.106 -0.006 -0.01 -0.002
O3F 0.062 0.014 0.106 0.006 0.01 -0.002
O3N 0.062 0.014 0.106 0.006 0.01 -0.002
O3O 0.062 0.014 0.106 -0.006 -0.01 -0.002
O4A 0.052 0.067 0.056 0.021 0.015 -0.014
O4G 0.067 0.052 0.056 -0.015 -0.021 -0.014
O4F 0.067 0.052 0.056 0.015 0.021 -0.014
O4N 0.067 0.052 0.056 0.015 0.021 -0.014
O4O 0.067 0.052 0.056 -0.015 -0.021 -0.014
O5A 0.02 0.062 0.085 0.017 -0.001 0
O5G 0.062 0.02 0.085 0.001 -0.017 0
O5F 0.062 0.02 0.085 -0.001 0.017 0
O5E 0.020(5) 0.062(6) 0.085(7) -0.017(5) -0.001(5) 0.000(4)
O5J 0.062 0.02 0.085 0.001 0.017 0
O5D 0.02 0.062 0.085 0.017 0.001 0
O5K 0.062 0.02 0.085 -0.001 -0.017 0
O6A 0.038 0.062 0.057 0.011 -0.005 0.026
O6G 0.062 0.038 0.057 0.005 -0.011 0.026
O6F 0.062 0.038 0.057 -0.005 0.011 0.026
O6E 0.038(5) 0.062(6) 0.057(6) -0.011(5) -0.005(4) -0.026(5)
O6J 0.062 0.038 0.057 0.005 0.011 -0.026
O6D 0.038 0.062 0.057 0.011 0.005 -0.026
O6K 0.062 0.038 0.057 -0.005 -0.011 -0.026
O7N 0.07 0.047 0.102 -0.014 -0.01 -0.017
O7A 0.047 0.07 0.102 -0.01 -0.014 -0.017
O7O 0.07 0.047 0.102 0.014 0.01 -0.017
O8A 0.052 0.052 0.121 0.018 -0.018 0.005
O9A 0.098 0.098 0.045 0 0 -0.046
N1N 0.124 0.077 0.155 -0.007 -0.058 -0.018
N1A 0.077 0.124 0.155 -0.058 -0.007 -0.018
N1O 0.124 0.077 0.155 0.007 0.058 -0.018
O11A 0.152 0.152 0.2 0.104 -0.104 -0.071
O10 0.107(11) 0.200(18) 0.087(9) 0.000(10) 0.024(8) 0.071(12)
loop_
_geom_bond_atom_site_label_1
_geom_bond_atom_site_label_2
_geom_bond_site_symmetry_1
_geom_bond_site_symmetry_2
Eu1 O3 1_555 1_555
Cd1 O4 1_555 1_555
C1 C3 1_555 1_555
C2 C5 1_555 1_555
C3 C4 1_555 1_555
C4 H1 1_555 1_555
C5 O3 1_555 1_555
C6 C2 1_555 1_555
H2 C6 1_555 1_555
C7 C9 1_555 1_555
C8 C2 1_555 1_555
H3 C8 1_555 1_555
C9 C4 1_555 1_555
C10 H4 1_555 1_555
H5 C10 1_555 1_555
H6 C10 1_555 1_555
C11 H7 1_555 1_555
H8 C11 1_555 1_555
H9 C11 1_555 1_555
C12 O7 1_555 1_555
O1 C7 1_555 1_555
O2 C7 1_555 1_555
O4 C5 1_555 1_555
O5 C1 1_555 1_555
O6 C1 1_555 1_555
O7 Eu1 1_555 1_555
O8 Eu1 1_555 1_555
O9 Eu1 1_555 1_555
N1 C10 1_555 1_555
Cd2 O1 1_555 1_555
O11 Cd1 1_555 1_555
Eu1A O3A 1_555 1_555
Eu1E O6 1_555 1_555
Eu1D O6A 1_555 1_555
Eu1G O3G 1_555 1_555
Eu1C O6G 1_555 1_555
Eu1F O3F 1_555 1_555
Eu1B O6F 1_555 1_555
Cd1A O4A 1_555 1_555
Cd1E O5 1_555 1_555
Cd1D O5A 1_555 1_555
Cd1G O4G 1_555 1_555
Cd1C O5G 1_555 1_555
Cd1F O4F 1_555 1_555
Cd1B O5F 1_555 1_555
C1A C3A 1_555 1_555
C1G C3G 1_555 1_555
C1F C3F 1_555 1_555
C2A C5A 1_555 1_555
C2G C5G 1_555 1_555
C2F C5F 1_555 1_555
C3A C4A 1_555 1_555
C3G C4G 1_555 1_555
C3F C4F 1_555 1_555
C4A H1A 1_555 1_555
C4G H1G 1_555 1_555
C4F H1F 1_555 1_555
C5A O3A 1_555 1_555
C5G O3G 1_555 1_555
C5F O3F 1_555 1_555
C6A C2A 1_555 1_555
C6G C2G 1_555 1_555
C6F C2F 1_555 1_555
H2A C6A 1_555 1_555
H2G C6G 1_555 1_555
H2F C6F 1_555 1_555
C7A C9A 1_555 1_555
C7G C9G 1_555 1_555
C7F C9F 1_555 1_555
C8A C2A 1_555 1_555
C8G C2G 1_555 1_555
C8F C2F 1_555 1_555
H3A C8A 1_555 1_555
H3G C8G 1_555 1_555
H3F C8F 1_555 1_555
C9A C4A 1_555 1_555
C9G C4G 1_555 1_555
C9F C4F 1_555 1_555
C10N H4N 1_555 1_555
C10A H4A 1_555 1_555
C10O H4O 1_555 1_555
H5N C10N 1_555 1_555
H5A C10A 1_555 1_555
H5O C10O 1_555 1_555
H6N C10N 1_555 1_555
H6A C10A 1_555 1_555
H6O C10O 1_555 1_555
C11N H7N 1_555 1_555
C11A H7A 1_555 1_555
C11O H7O 1_555 1_555
H8N C11N 1_555 1_555
H8A C11A 1_555 1_555
H8O C11O 1_555 1_555
H9N C11N 1_555 1_555
H9A C11A 1_555 1_555
H9O C11O 1_555 1_555
C12N O7N 1_555 1_555
C12A O7A 1_555 1_555
C12O O7O 1_555 1_555
O1A Cd2 1_555 1_555
O1G Cd2 1_555 1_555
O1F Cd2 1_555 1_555
O2A Cd2 1_555 1_555
O2G Cd2 1_555 1_555
O2F Cd2 1_555 1_555
O3N Eu1 1_555 1_555
O3O Eu1A 1_555 1_555
O4A C5A 1_555 1_555
O4G C5G 1_555 1_555
O4F C5F 1_555 1_555
O4N Cd1 1_555 1_555
O4O Cd1A 1_555 1_555
O5A C1A 1_555 1_555
O5G C1G 1_555 1_555
O5F C1F 1_555 1_555
O5E Cd1 1_555 1_555
O5J Cd1 1_555 1_555
O5D Cd1A 1_555 1_555
O5K Cd1A 1_555 1_555
O6A C1A 1_555 1_555
O6G C1G 1_555 1_555
O6F C1F 1_555 1_555
O6E Eu1 1_555 1_555
O6J Eu1 1_555 1_555
O6D Eu1A 1_555 1_555
O6K Eu1A 1_555 1_555
O7N Eu1 1_555 1_555
O7A Eu1A 1_555 1_555
O7O Eu1A 1_555 1_555
O8A Eu1A 1_555 1_555
O9A Eu1A 1_555 1_555
N1N C10N 1_555 1_555
N1A C10A 1_555 1_555
N1O C10O 1_555 1_555
O11A Cd1A 1_555 1_555
C3 C6 1_555 1_555
C8 C9 1_555 1_555
C11 N1 1_555 1_555
C12 N1 1_555 1_555
O2 Cd2 1_555 1_555
C3A C6A 1_555 1_555
C3G C6G 1_555 1_555
C3F C6F 1_555 1_555
C7A O1A 1_555 1_555
C7A O2A 1_555 1_555
C7G O1G 1_555 1_555
C7G O2G 1_555 1_555
C7F O1F 1_555 1_555
C7F O2F 1_555 1_555
C8A C9A 1_555 1_555
C8G C9G 1_555 1_555
C8F C9F 1_555 1_555
C11N N1N 1_555 1_555
C11A N1A 1_555 1_555
C11O N1O 1_555 1_555
C12N N1N 1_555 1_555
C12A N1A 1_555 1_555
C12O N1O 1_555 1_555

#END
