
#######################################################################
#
#                 Cambridge Crystallographic Data Centre
#                                CCDC 
#
#######################################################################
#
# If this CIF has been generated from an entry in the Cambridge 
# Structural Database, then it will include bibliographic, chemical, 
# crystal, experimental, refinement or atomic coordinate data resulting 
# from the CCDC's data processing and validation procedures.
#
#######################################################################

data_QEGHEP
_chemical_formula_moiety         '(C60 H132 Fe2 N36 Ni4 O14)n'
_symmetry_cell_setting           monoclinic
_symmetry_space_group_name_H-M   'C 2/c'
_symmetry_Int_Tables_number      15
_space_group_name_Hall           '-C 2yc'
loop_
_symmetry_equiv_pos_site_id
_symmetry_equiv_pos_as_xyz
1 x,y,z
2 1/2+x,1/2+y,z
3 x,-y,1/2+z
4 1/2+x,1/2-y,1/2+z
5 -x,-y,-z
6 1/2-x,1/2-y,-z
7 -x,y,1/2-z
8 1/2-x,1/2+y,1/2-z
_cell_length_a                   24.684(4)
_cell_length_b                   15.202(2)
_cell_length_c                   25.368(4)
_cell_angle_alpha                90
_cell_angle_beta                 97.780(3)
_cell_angle_gamma                90
_cell_volume                     9431.62
loop_
_atom_site_label
_atom_site_type_symbol
_atom_site_fract_x
_atom_site_fract_y
_atom_site_fract_z
Fe1 Fe 0.153004(18) 0.17319(3) 0.152000(17)
Ni1 Ni 0.228900(19) 0.41505(3) 0.279640(19)
Ni2 Ni 0.2500 0.2500 0.0000
Ni3 Ni 0.0000 0.09533(6) 0.2500
N1 N 0.10977(16) 0.0533(3) 0.05856(13)
N2 N 0.06121(15) 0.3066(3) 0.11999(16)
N3 N 0.22748(13) 0.2518(2) 0.07716(11)
N4 N 0.19633(14) 0.3005(2) 0.24099(13)
N5 N 0.07801(13) 0.0941(3) 0.22508(12)
N6 N 0.23849(14) 0.0318(2) 0.18426(13)
N7 N 0.29728(14) 0.1401(2) 0.01731(13)
H1 H 0.3165 0.1315 -0.0099
N8 N 0.18695(13) 0.1628(2) -0.02189(12)
H2 H 0.1668 0.1592 0.0051
N9 N 0.2537(2) 0.3495(3) 0.3515(2)
H3 H 0.2776 0.3847 0.3714
N10 N 0.1980(2) 0.4842(3) 0.2090(3)
H4 H 0.1734 0.4494 0.1896
N11 N 0.15783(15) 0.4307(3) 0.31190(17)
H5 H 0.1359 0.3876 0.2970
N12 N 0.29936(16) 0.4041(3) 0.24417(19)
H6 H 0.3232 0.4458 0.2576
C1 C 0.18042(13) 0.2516(2) 0.20786(13)
C2 C 0.12481(14) 0.0992(3) 0.09407(13)
C3 C 0.10707(13) 0.1201(3) 0.19732(13)
C4 C 0.09601(15) 0.2567(3) 0.13175(15)
C5 C 0.19912(13) 0.2256(2) 0.10672(12)
C6 C 0.20742(13) 0.0875(2) 0.17252(12)
C7 C 0.2138(2) 0.0775(3) -0.02710(17)
H7 H 0.1879 0.0307 -0.0257
H8 H 0.2277 0.0742 -0.0606
C8 C 0.2572(2) 0.0659(3) 0.01820(17)
H9 H 0.2428 0.0649 0.0515
H10 H 0.2761 0.0115 0.0146
C9 C 0.14870(18) 0.1935(3) -0.06933(16)
H11 H 0.1695 0.1951 -0.0986
H12 H 0.1201 0.1510 -0.0777
C10 C 0.33816(19) 0.1476(3) 0.06539(17)
H13 H 0.3591 0.0943 0.0700
H14 H 0.3184 0.1535 0.0953
C11 C 0.1671(3) 0.5658(6) 0.2211(4)
H15 H 0.1564 0.5950 0.1878
H16 H 0.1917 0.6034 0.2434
C12 C 0.2498(3) 0.4984(5) 0.1783(3)
H17 H 0.2699 0.5499 0.1912
H18 H 0.2366 0.5060 0.1412
C13 C 0.2802(2) 0.4251(3) 0.18444(18)
H19 H 0.2599 0.3756 0.1687
H20 H 0.3120 0.4321 0.1668
C14 C 0.3244(2) 0.3236(5) 0.2543(2)
H21 H 0.3575 0.3216 0.2383
H22 H 0.3000 0.2810 0.2360
C15 C 0.2847(3) 0.2923(7) 0.3334(3)
H23 H 0.2595 0.2642 0.3064
H24 H 0.2913 0.2508 0.3621
C16 C 0.2073(2) 0.3351(5) 0.3770(3)
H25 H 0.2189 0.3318 0.4146
H26 H 0.1891 0.2810 0.3661
C17 C 0.1738(3) 0.4022(4) 0.3706(2)
H27 H 0.1408 0.3862 0.3843
H28 H 0.1888 0.4522 0.3905
C18 C 0.1289(3) 0.5006(8) 0.2997(3)
H29 H 0.1455 0.5456 0.3230
H30 H 0.0929 0.4908 0.3090
N13 N 0.02200(13) 0.2015(3) 0.30167(13)
H31 H -0.0051 0.2089 0.3217
C19 C 0.0236(2) 0.2789(3) 0.2696(2)
H32 H 0.0567 0.2798 0.2535
H33 H 0.0232 0.3295 0.2921
N14 N 0.02444(18) 0.0030(3) 0.30694(18)
H34 H -0.0034 -0.0017 0.3263
C20 C 0.0207(4) -0.0742(4) 0.2763(3)
H35 H 0.0127 -0.1230 0.2980
H36 H 0.0562 -0.0842 0.2661
C21 C 0.0742(2) 0.0333(4) 0.3475(2)
H37 H 0.1061 0.0288 0.3299
H38 H 0.0784 -0.0082 0.3763
C22 C 0.0735(2) 0.1888(5) 0.3383(2)
H39 H 0.0794 0.2402 0.3602
H40 H 0.1035 0.1843 0.3179
N15 N 0.07301(16) 0.1172(3) 0.36957(17)
C23 C 0.0328(2) 0.1166(5) 0.40901(17)
H41 H -0.0018 0.0983 0.3904
H42 H 0.0288 0.1769 0.4191
C24 C 0.0474(2) 0.0722(4) 0.4577(2)
O1 O 0.0996(2) 0.0748(5) 0.4790(2)
N16 N 0.12553(14) 0.2791(3) -0.06445(14)
C25 C 0.09070(19) 0.2834(5) -0.0222(2)
H43 H 0.1116 0.2658 0.0108
H44 H 0.0814 0.3443 -0.0188
C26 C 0.0410(4) 0.2317(9) -0.0323(4)
O3 O 0.0137(6) 0.2455(14) -0.0821(5)
N17 N 0.12062(19) 0.5374(5) 0.2414(3)
C27 C 0.0770(3) 0.4892(6) 0.2093(2)
C28 C 0.0446(4) 0.4878(3) 0.1527(3)
O5 O 0.0359(4) 0.5813(4) 0.1535(4)
N18 N 0.33492(15) 0.3029(3) 0.3126(3)
C29 C 0.3662(3) 0.3846(4) 0.3223(3)
C31 C 0.4119(2) 0.3806(4) 0.3704(3)
O6 O 0.46258(19) 0.4175(5) 0.3969(2)
C10E C 0.16184(19) 0.3524(3) -0.06539(17)
N7E N 0.20272(14) 0.3599(2) -0.01731(13)
H1E H 0.1835 0.3685 0.0099
C8E C 0.2428(2) 0.4341(3) -0.01820(17)
C7E C 0.2862(2) 0.4225(3) 0.02710(17)
N8E N 0.31305(13) 0.3372(2) 0.02189(12)
H2E H 0.3332 0.3408 -0.0051
C9E C 0.35130(18) 0.3065(3) 0.06933(16)
H11E H 0.3305 0.3049 0.0986
H12E H 0.3799 0.3490 0.0777
N16E N 0.37447(14) 0.2209(3) 0.06445(14)
C25E C 0.40930(19) 0.2166(5) 0.0222(2)
H43E H 0.3884 0.2342 -0.0108
H44E H 0.4186 0.1557 0.0188
C26E C 0.4590(4) 0.2683(9) 0.0323(4)
O3E O 0.4863(6) 0.2545(14) 0.0821(5)
H7E H 0.3121 0.4693 0.0257
H8E H 0.2723 0.4258 0.0606
H9E H 0.2572 0.4351 -0.0515
H10E H 0.2239 0.4885 -0.0146
H13E H 0.1409 0.4057 -0.0700
H14E H 0.1816 0.3465 -0.0953
C19F C -0.0236(2) 0.2789(3) 0.2304(2)
N13F N -0.02200(13) 0.2015(3) 0.19833(13)
H31F H 0.0051 0.2089 0.1783
C22F C -0.0735(2) 0.1888(5) 0.1617(2)
H39F H -0.0794 0.2402 0.1398
H40F H -0.1035 0.1843 0.1821
N15F N -0.07301(16) 0.1172(3) 0.13043(17)
C21F C -0.0742(2) 0.0333(4) 0.1525(2)
N14F N -0.02444(18) 0.0030(3) 0.19306(18)
H34F H 0.0034 -0.0017 0.1737
C20F C -0.0207(4) -0.0742(4) 0.2237(3)
H35F H -0.0127 -0.1230 0.2020
H36F H -0.0562 -0.0842 0.2339
H37F H -0.1061 0.0288 0.1701
H38F H -0.0784 -0.0082 0.1237
C23F C -0.0328(2) 0.1166(5) 0.09099(17)
H41F H 0.0018 0.0983 0.1096
H42F H -0.0288 0.1769 0.0809
C24F C -0.0474(2) 0.0722(4) 0.0423(2)
O1F O -0.0996(2) 0.0748(5) 0.0210(2)
H32F H -0.0567 0.2798 0.2465
H33F H -0.0232 0.3295 0.2079
N3E N 0.27252(13) 0.2482(2) -0.07716(11)
C5E C 0.30088(13) 0.2744(2) -0.10672(12)
Fe1E Fe 0.346996(18) 0.32681(3) -0.152000(17)
N4E N 0.30367(14) 0.1995(2) -0.24099(13)
C1E C 0.31958(13) 0.2484(2) -0.20786(13)
N1E N 0.39023(16) 0.4467(3) -0.05856(13)
C2E C 0.37519(14) 0.4008(3) -0.09407(13)
N5E N 0.42199(13) 0.4059(3) -0.22508(12)
C3E C 0.39293(13) 0.3799(3) -0.19732(13)
N2E N 0.43879(15) 0.1934(3) -0.11999(16)
C4E C 0.40399(15) 0.2433(3) -0.13175(15)
N6E N 0.26151(14) 0.4682(2) -0.18426(13)
C6E C 0.29258(13) 0.4125(2) -0.17252(12)
Ni1E Ni 0.271100(19) 0.08495(3) -0.279640(19)
N9E N 0.2463(2) 0.1505(3) -0.3515(2)
H3E H 0.2224 0.1153 -0.3714
N10E N 0.3020(2) 0.0158(3) -0.2090(3)
H4E H 0.3266 0.0506 -0.1896
N11E N 0.34217(15) 0.0693(3) -0.31190(17)
H5E H 0.3641 0.1124 -0.2970
N12E N 0.20064(16) 0.0959(3) -0.24417(19)
H6E H 0.1768 0.0542 -0.2576
C11E C 0.3329(3) -0.0658(6) -0.2211(4)
H15E H 0.3436 -0.0950 -0.1878
H16E H 0.3083 -0.1034 -0.2434
C12E C 0.2502(3) 0.0016(5) -0.1783(3)
H17E H 0.2301 -0.0499 -0.1912
H18E H 0.2634 -0.0060 -0.1412
C13E C 0.2198(2) 0.0749(3) -0.18444(18)
H19E H 0.2401 0.1244 -0.1687
H20E H 0.1880 0.0679 -0.1668
C14E C 0.1756(2) 0.1764(5) -0.2543(2)
H21E H 0.1425 0.1784 -0.2383
H22E H 0.2000 0.2190 -0.2360
C15E C 0.2153(3) 0.2077(7) -0.3334(3)
H23E H 0.2405 0.2358 -0.3064
H24E H 0.2087 0.2492 -0.3621
C16E C 0.2927(2) 0.1649(5) -0.3770(3)
H25E H 0.2811 0.1682 -0.4146
H26E H 0.3109 0.2190 -0.3661
C17E C 0.3262(3) 0.0978(4) -0.3706(2)
H27E H 0.3592 0.1138 -0.3843
H28E H 0.3112 0.0478 -0.3905
C18E C 0.3711(3) -0.0006(8) -0.2997(3)
H29E H 0.3545 -0.0456 -0.3230
H30E H 0.4071 0.0092 -0.3090
N17E N 0.37938(19) -0.0374(5) -0.2414(3)
C27E C 0.4230(3) 0.0108(6) -0.2093(2)
C28E C 0.4554(4) 0.0122(3) -0.1527(3)
O5E O 0.4641(4) -0.0813(4) -0.1535(4)
N18E N 0.16508(15) 0.1971(3) -0.3126(3)
C29E C 0.1338(3) 0.1154(4) -0.3223(3)
C31E C 0.0881(2) 0.1194(4) -0.3704(3)
O6E O 0.03742(19) 0.0825(5) -0.3969(2)
N6G N 0.26151(14) 0.5318(2) 0.31574(13)
N5F N -0.07801(13) 0.0941(3) 0.27492(12)
Ni1G Ni 0.271100(19) -0.08495(3) 0.220360(19)
Ni3C Ni 0.5000 0.40467(6) -0.2500
Ni1B Ni 0.228900(19) 0.58495(3) -0.220360(19)
N6B N 0.23849(14) -0.0318(2) -0.31574(13)
O7 O 0.4297(4) 0.2079(6) 0.1776(3)
O8 O 0.2823(15) 0.154(2) 0.4668(14)
O9 O 0.1976(7) 0.1401(11) 0.4181(7)
O10 O 0.1426(5) 0.4502(8) 0.0787(5)
O11 O 0.1826(5) -0.3093(9) 0.2810(6)
O12 O 0.5287(4) -0.0856(8) 0.3988(6)
loop_
_geom_bond_atom_site_label_1
_geom_bond_atom_site_label_2
_geom_bond_site_symmetry_1
_geom_bond_site_symmetry_2
Fe1 C1 1_555 1_555
Ni1 N4 1_555 1_555
Ni2 N3 1_555 1_555
Ni3 N5 1_555 1_555
N1 C2 1_555 1_555
N2 C4 1_555 1_555
N3 C5 1_555 1_555
N4 C1 1_555 1_555
N5 C3 1_555 1_555
N6 C6 1_555 1_555
N7 Ni2 1_555 1_555
H1 N7 1_555 1_555
N8 Ni2 1_555 1_555
H2 N8 1_555 1_555
N9 Ni1 1_555 1_555
H3 N9 1_555 1_555
N10 Ni1 1_555 1_555
H4 N10 1_555 1_555
N11 Ni1 1_555 1_555
H5 N11 1_555 1_555
N12 Ni1 1_555 1_555
H6 N12 1_555 1_555
C2 Fe1 1_555 1_555
C3 Fe1 1_555 1_555
C4 Fe1 1_555 1_555
C5 Fe1 1_555 1_555
C6 Fe1 1_555 1_555
C7 N8 1_555 1_555
H7 C7 1_555 1_555
H8 C7 1_555 1_555
C8 N7 1_555 1_555
H9 C8 1_555 1_555
H10 C8 1_555 1_555
C9 N8 1_555 1_555
H11 C9 1_555 1_555
H12 C9 1_555 1_555
C10 N7 1_555 1_555
H13 C10 1_555 1_555
H14 C10 1_555 1_555
C11 N10 1_555 1_555
H15 C11 1_555 1_555
H16 C11 1_555 1_555
C12 N10 1_555 1_555
H17 C12 1_555 1_555
H18 C12 1_555 1_555
C13 N12 1_555 1_555
H19 C13 1_555 1_555
H20 C13 1_555 1_555
C14 N12 1_555 1_555
H21 C14 1_555 1_555
H22 C14 1_555 1_555
C15 N9 1_555 1_555
H23 C15 1_555 1_555
H24 C15 1_555 1_555
C16 N9 1_555 1_555
H25 C16 1_555 1_555
H26 C16 1_555 1_555
C17 N11 1_555 1_555
H27 C17 1_555 1_555
H28 C17 1_555 1_555
C18 N11 1_555 1_555
H29 C18 1_555 1_555
H30 C18 1_555 1_555
N13 Ni3 1_555 1_555
H31 N13 1_555 1_555
C19 N13 1_555 1_555
H32 C19 1_555 1_555
H33 C19 1_555 1_555
N14 Ni3 1_555 1_555
H34 N14 1_555 1_555
C20 N14 1_555 1_555
H35 C20 1_555 1_555
H36 C20 1_555 1_555
C21 N14 1_555 1_555
H37 C21 1_555 1_555
H38 C21 1_555 1_555
C22 N13 1_555 1_555
H39 C22 1_555 1_555
H40 C22 1_555 1_555
N15 C21 1_555 1_555
C23 N15 1_555 1_555
H41 C23 1_555 1_555
H42 C23 1_555 1_555
C24 C23 1_555 1_555
O1 C24 1_555 1_555
N16 C9 1_555 1_555
C25 N16 1_555 1_555
H43 C25 1_555 1_555
H44 C25 1_555 1_555
C26 C25 1_555 1_555
O3 C26 1_555 1_555
N17 C11 1_555 1_555
C27 N17 1_555 1_555
C28 C27 1_555 1_555
O5 C28 1_555 1_555
N18 C14 1_555 1_555
C29 N18 1_555 1_555
C31 C29 1_555 1_555
O6 C31 1_555 1_555
C10E N16 1_555 1_555
N7E Ni2 1_555 1_555
H1E N7E 1_555 1_555
C8E N7E 1_555 1_555
C7E C8E 1_555 1_555
N8E Ni2 1_555 1_555
H2E N8E 1_555 1_555
C9E N8E 1_555 1_555
H11E C9E 1_555 1_555
H12E C9E 1_555 1_555
N16E C10 1_555 1_555
C25E N16E 1_555 1_555
H43E C25E 1_555 1_555
H44E C25E 1_555 1_555
C26E C25E 1_555 1_555
O3E C26E 1_555 1_555
H7E C7E 1_555 1_555
H8E C7E 1_555 1_555
H9E C8E 1_555 1_555
H10E C8E 1_555 1_555
H13E C10E 1_555 1_555
H14E C10E 1_555 1_555
C19F C19 1_555 1_555
N13F Ni3 1_555 1_555
H31F N13F 1_555 1_555
C22F N13F 1_555 1_555
H39F C22F 1_555 1_555
H40F C22F 1_555 1_555
N15F C22F 1_555 1_555
C21F N15F 1_555 1_555
N14F Ni3 1_555 1_555
H34F N14F 1_555 1_555
C20F C20 1_555 1_555
H35F C20F 1_555 1_555
H36F C20F 1_555 1_555
H37F C21F 1_555 1_555
H38F C21F 1_555 1_555
C23F N15F 1_555 1_555
H41F C23F 1_555 1_555
H42F C23F 1_555 1_555
C24F C23F 1_555 1_555
O1F C24F 1_555 1_555
H32F C19F 1_555 1_555
H33F C19F 1_555 1_555
N3E Ni2 1_555 1_555
C5E N3E 1_555 1_555
Fe1E C5E 1_555 1_555
N4E C1E 1_555 1_555
C1E Fe1E 1_555 1_555
N1E C2E 1_555 1_555
C2E Fe1E 1_555 1_555
N5E C3E 1_555 1_555
C3E Fe1E 1_555 1_555
N2E C4E 1_555 1_555
C4E Fe1E 1_555 1_555
N6E C6E 1_555 1_555
C6E Fe1E 1_555 1_555
Ni1E N4E 1_555 1_555
N9E Ni1E 1_555 1_555
H3E N9E 1_555 1_555
N10E Ni1E 1_555 1_555
H4E N10E 1_555 1_555
N11E Ni1E 1_555 1_555
H5E N11E 1_555 1_555
N12E Ni1E 1_555 1_555
H6E N12E 1_555 1_555
C11E N10E 1_555 1_555
H15E C11E 1_555 1_555
H16E C11E 1_555 1_555
C12E N10E 1_555 1_555
H17E C12E 1_555 1_555
H18E C12E 1_555 1_555
C13E N12E 1_555 1_555
H19E C13E 1_555 1_555
H20E C13E 1_555 1_555
C14E N12E 1_555 1_555
H21E C14E 1_555 1_555
H22E C14E 1_555 1_555
C15E N9E 1_555 1_555
H23E C15E 1_555 1_555
H24E C15E 1_555 1_555
C16E N9E 1_555 1_555
H25E C16E 1_555 1_555
H26E C16E 1_555 1_555
C17E N11E 1_555 1_555
H27E C17E 1_555 1_555
H28E C17E 1_555 1_555
C18E N11E 1_555 1_555
H29E C18E 1_555 1_555
H30E C18E 1_555 1_555
N17E C11E 1_555 1_555
C27E N17E 1_555 1_555
C28E C27E 1_555 1_555
O5E C28E 1_555 1_555
N18E C14E 1_555 1_555
C29E N18E 1_555 1_555
C31E C29E 1_555 1_555
O6E C31E 1_555 1_555
N6G Ni1 1_555 1_555
N5F Ni3 1_555 1_555
Ni1G N6 1_555 1_555
Ni3C N5E 1_555 1_555
Ni1B N6E 1_555 1_555
N6B Ni1E 1_555 1_555
C7 C8 1_555 1_555
C12 C13 1_555 1_555
C15 N18 1_555 1_555
C16 C17 1_555 1_555
C18 N17 1_555 1_555
C22 N15 1_555 1_555
C10E N7E 1_555 1_555
C7E N8E 1_555 1_555
C9E N16E 1_555 1_555
C19F N13F 1_555 1_555
C21F N14F 1_555 1_555
N14F C20F 1_555 1_555
C12E C13E 1_555 1_555
C15E N18E 1_555 1_555
C16E C17E 1_555 1_555
C18E N17E 1_555 1_555

#END
