
#######################################################################
#
#                 Cambridge Crystallographic Data Centre
#                                CCDC 
#
#######################################################################
#
# If this CIF has been generated from an entry in the Cambridge 
# Structural Database, then it will include bibliographic, chemical, 
# crystal, experimental, refinement or atomic coordinate data resulting 
# from the CCDC's data processing and validation procedures.
#
#######################################################################

data_LAJNIW
_chemical_formula_moiety         '(C135 H108 Co3 N12 O12)n'
_symmetry_cell_setting           monoclinic
_symmetry_space_group_name_H-M   'C c'
_symmetry_Int_Tables_number      9
_space_group_name_Hall           'C -2yc'
loop_
_symmetry_equiv_pos_site_id
_symmetry_equiv_pos_as_xyz
1 x,y,z
2 x,-y,1/2+z
3 1/2+x,1/2+y,z
4 1/2+x,1/2-y,1/2+z
_cell_length_a                   18.381(4)
_cell_length_b                   30.305(6)
_cell_length_c                   27.812(6)
_cell_angle_alpha                90
_cell_angle_beta                 95.44(3)
_cell_angle_gamma                90
_cell_volume                     15422.5
loop_
_atom_site_label
_atom_site_type_symbol
_atom_site_fract_x
_atom_site_fract_y
_atom_site_fract_z
Co1 Co 0.650980(16) 0.948713(10) 0.677831(11)
Co2 Co 1.057253(15) 0.723430(9) 0.561741(12)
Co3 Co 0.126650(19) 1.110750(10) 0.669998(12)
O1 O 0.95074(11) 0.75112(6) 0.55610(8)
O2 O 1.15869(10) 0.69540(6) 0.57120(8)
O3 O 1.53034(13) 0.64687(8) 0.65832(10)
O4 O 1.19924(11) 0.74356(8) 0.62835(8)
O5 O 0.54834(10) 0.97331(7) 0.66594(7)
O6 O 0.76100(10) 0.92216(6) 0.68526(7)
O7 O 1.50759(13) 0.59251(8) 0.60746(10)
O8 O 1.02875(11) 0.78076(6) 0.61118(8)
O9 O 0.68097(10) 0.89432(6) 0.62963(7)
N1 N 0.66588(10) 1.34527(6) 0.22635(7)
O10 O 0.22392(17) 1.07755(7) 0.67645(11)
N2 N 1.02645(10) 0.67470(6) 0.50856(7)
O11 O 0.50442(12) 0.92261(8) 0.61404(9)
C1 C 1.45553(14) 0.68445(11) 0.54346(11)
N3 N 0.83040(14) 1.11482(7) 0.37308(8)
N4 N 1.07450(12) 0.93606(7) 0.21314(8)
N5 N 0.68041(12) 0.99065(7) 0.62009(8)
N6 N 1.02763(11) 0.31700(6) 0.11995(8)
C2 C 0.62295(12) 1.31389(9) 0.24327(10)
H1 H 0.5718 1.3156 0.2345
C3 C 0.93064(12) 0.63372(8) 0.46549(8)
H2 H 0.8802 0.6318 0.4545
N7 N 0.17591(11) 0.49775(6) 0.73152(7)
C4 C 0.87883(19) 0.75205(12) 0.66827(18)
C5 C 1.05605(16) 0.92734(9) 0.25777(10)
H3 H 1.0700 0.8997 0.2719
N8 N 0.8776(2) 0.43814(11) 0.36710(12)
C6 C 0.95625(12) 0.66990(7) 0.49183(8)
H4 H 0.9226 0.6924 0.4984
N9 N 0.60471(13) 0.26934(7) 0.51676(8)
C7 C 0.85148(14) 1.18514(9) 0.33357(11)
H5 H 0.9015 1.1777 0.3326
C8 C 0.93729(15) 0.42641(9) 0.24405(9)
H6 H 0.9393 0.4435 0.2156
C9 C 0.33843(13) 1.03255(9) 0.60641(9)
N10 N 0.61058(12) 0.90026(7) 0.72579(8)
C10 C 0.31319(14) 0.99079(8) 0.67824(9)
C11 C 0.80207(14) 0.86519(8) 0.63465(9)
C12 C 0.88038(15) 0.54467(9) 0.43281(9)
H7 H 0.8479 0.5624 0.4491
C13 C 0.72300(12) 1.27518(7) 0.28627(8)
C14 C 1.39867(12) 0.67487(8) 0.57813(9)
C15 C 0.22812(13) 0.56969(8) 0.78859(9)
C16 C 0.80992(12) 0.82324(8) 0.65593(9)
C17 C 0.98022(17) 0.35087(9) 0.11599(9)
H8 H 0.9603 0.3594 0.0846
C18 C 0.15798(13) 0.56942(8) 0.76453(10)
H9 H 0.1264 0.5939 0.7676
C19 C 0.95561(13) 1.02925(8) 0.29250(9)
C20 C 1.33106(12) 0.69602(8) 0.57319(9)
C21 C 0.99771(16) 0.53301(9) 0.40440(11)
H10 H 1.0466 0.5423 0.4019
C22 C 0.97818(12) 0.59974(7) 0.45473(8)
C23 C 0.55988(15) 0.87912(9) 0.79876(10)
H11 H 0.5510 0.8864 0.8309
C24 C 0.86730(13) 1.08902(7) 0.29486(9)
C25 C 0.80524(14) 1.15636(8) 0.35514(9)
C26 C 0.96092(13) 0.38239(8) 0.24512(9)
C27 C 0.55139(15) 0.83036(9) 0.73186(10)
H12 H 0.5380 0.8029 0.7171
C28 C 0.90860(12) 1.06029(7) 0.26876(9)
C29 C 1.41372(12) 0.64514(8) 0.61649(9)
C30 C 0.28744(17) 0.78821(11) 0.91050(11)
H13 H 0.2878 0.8030 0.8804
C31 C 0.29374(12) 1.02254(8) 0.64313(9)
C32 C 0.42385(13) 0.97818(9) 0.64021(9)
C33 C 0.70744(15) 1.20889(9) 0.33814(10)
C34 C 0.53562(13) 0.83856(9) 0.77858(9)
N11 N 0.35072(16) 0.72565(9) 0.87730(10)
C35 C 1.03527(13) 0.32621(9) 0.20553(9)
H14 H 1.0563 0.3168 0.2363
C36 C 0.8350(3) 0.92461(11) 0.5763(2)
C37 C 0.87377(14) 1.08807(8) 0.34523(9)
C38 C 0.85576(19) 0.50504(12) 0.41204(11)
H15 H 0.8069 0.4957 0.4143
C39 C 0.63454(18) 0.30602(9) 0.53697(10)
H16 H 0.6250 0.3128 0.5691
C40 C 0.49715(14) 0.80519(9) 0.85474(10)
H17 H 0.5318 0.8233 0.8730
O12 O 0.16980(13) 1.04007(11) 0.61732(10)
C41 C 0.71998(15) 1.03636(8) 0.53780(9)
C42 C 0.9040(2) 0.47882(11) 0.38753(11)
C43 C 1.01767(16) 0.95654(9) 0.28442(10)
H18 H 1.0060 0.9487 0.3159
C44 C 0.45435(16) 1.01968(14) 0.56530(11)
C45 C 0.79888(15) 1.09617(8) 0.41268(9)
C46 C 0.8441(2) 0.87859(9) 0.59880(13)
C47 C 0.98562(13) 0.36082(8) 0.20186(9)
C48 C 1.36156(14) 0.63473(10) 0.64855(11)
C49 C 0.74476(14) 0.89555(8) 0.65095(9)
C50 C 0.7746(3) 0.38784(17) 0.36720(14)
H19 H 0.7654 0.3920 0.3333
C51 C 0.36318(16) 0.65660(11) 0.83532(12)
H20 H 0.4137 0.6627 0.8344
C52 C 0.73287(16) 1.16924(9) 0.35859(10)
H21 H 0.7011 1.1509 0.3749
C53 C 1.31304(14) 0.72971(9) 0.53275(10)
C54 C 0.40056(15) 0.75067(10) 0.85249(11)
C55 C 0.21564(15) 0.63878(9) 0.83711(11)
H22 H 0.1651 0.6328 0.8380
C56 C 0.77252(19) 1.10074(9) 0.49644(11)
H23 H 0.7733 1.1173 0.5255
C57 C 0.73765(13) 1.34352(8) 0.24244(10)
H24 H 0.7692 1.3662 0.2333
C58 C 0.64834(14) 0.98210(9) 0.57502(10)
H25 H 0.6117 0.9599 0.5715
C59 C 0.75243(13) 1.23648(8) 0.31417(9)
C60 C 0.92142(17) 1.05751(10) 0.36950(10)
H26 H 0.9259 1.0562 0.4038
N12 N 0.1693(2) 0.85241(9) 1.11252(9)
C61 C 0.8970(2) 0.84948(9) 0.58300(14)
C62 C 0.13417(13) 0.53375(8) 0.73627(9)
H27 H 0.0866 0.5347 0.7196
C63 C 0.25910(14) 0.60902(8) 0.81429(9)
C64 C 0.6613(2) 0.28758(12) 0.44553(12)
H28 H 0.6690 0.2801 0.4132
C65 C 0.74036(17) 1.03543(8) 0.45022(10)
H29 H 0.7187 1.0070 0.4475
C66 C 1.05162(13) 0.60552(8) 0.47136(10)
H30 H 1.0865 0.5836 0.4651
C67 C 0.37946(14) 0.96776(9) 0.67668(9)
C68 C 0.39649(17) 0.75146(11) 0.80271(11)
H31 H 0.3624 0.7331 0.7844
C69 C 1.07371(12) 0.64352(8) 0.49719(10)
H32 H 1.1242 0.6474 0.5071
C70 C 0.90554(15) 0.80844(8) 0.60479(10)
C71 C 0.40320(17) 0.93320(11) 0.71469(11)
C72 C 0.8311(2) 0.41068(12) 0.39245(13)
C73 C 0.7314(3) 0.35914(17) 0.39056(13)
H33 H 0.6951 0.3421 0.3725
C74 C 0.75355(18) 1.04560(9) 0.58406(10)
H34 H 0.7910 1.0672 0.5884
C75 C 0.79983(19) 1.11906(8) 0.45669(11)
H35 H 0.8199 1.1480 0.4590
C76 C 0.82549(14) 1.22427(8) 0.31363(11)
C77 C 0.40399(13) 1.00971(9) 0.60450(9)
C78 C 0.58691(14) 0.86208(8) 0.70619(10)
H36 H 0.5945 0.8562 0.6735
C79 C 0.99625(13) 0.99742(8) 0.26492(9)
C80 C 0.64905(13) 1.27916(8) 0.27283(10)
H37 H 0.6159 1.2582 0.2838
C81 C 1.05335(15) 0.97509(8) 0.19364(10)
H38 H 1.0648 0.9817 0.1618
C82 C 0.14959(15) 0.86360(10) 1.06794(9)
C83 C 0.31586(15) 1.06818(11) 0.56947(10)
C84 C 0.2255(2) 0.80984(11) 1.03416(10)
C85 C 0.95946(17) 0.35749(10) 0.28801(10)
H39 H 0.9761 0.3278 0.2893
C86 C 1.05398(12) 0.30546(8) 0.16411(9)
H40 H 1.0876 0.2816 0.1676
C87 C 0.26971(14) 0.53154(9) 0.78528(9)
H41 H 0.3169 0.5294 0.8023
C88 C 0.45275(16) 0.77731(11) 0.87905(11)
H42 H 0.4577 0.7763 0.9133
C89 C 0.59709(15) 0.90872(8) 0.77134(10)
H43 H 0.6134 0.9359 0.7856
C90 C 1.28025(13) 0.68690(9) 0.60561(10)
C91 C 0.95896(17) 0.37394(9) 0.15539(9)
H44 H 0.9267 0.3984 0.1508
C92 C 0.49729(14) 0.95534(9) 0.63960(10)
C93 C 0.31988(16) 0.68606(10) 0.85749(11)
C94 C 0.66582(15) 1.00355(9) 0.53448(9)
H45 H 0.6412 0.9962 0.5039
C95 C 0.95251(14) 0.55895(8) 0.43010(9)
C96 C 0.74356(15) 1.05794(8) 0.49459(9)
C97 C 1.48855(12) 0.62595(9) 0.62719(11)
C98 C 0.91069(19) 0.44529(10) 0.28498(11)
H46 H 0.8944 0.4750 0.2845
C99 C 0.76822(17) 1.05403(9) 0.41062(10)
H47 H 0.7665 1.0378 0.3813
C100 C 0.86332(13) 0.79517(8) 0.64145(10)
C101 C 0.96252(16) 1.02884(10) 0.34315(10)
C102 C 0.6788(2) 0.33480(10) 0.51362(11)
H48 H 0.6988 0.3604 0.5295
C103 C 1.01509(15) 1.00630(8) 0.21833(10)
H49 H 1.0018 1.0337 0.2034
C104 C 0.61882(17) 0.26104(10) 0.47137(11)
H50 H 0.5982 0.2353 0.4561
C105 C 0.26361(17) 0.98128(11) 0.71675(11)
C106 C 0.24194(15) 0.49687(8) 0.75716(10)
H51 H 0.2708 0.4710 0.7558
C107 C 0.96519(15) 0.77834(8) 0.59005(11)
C108 C 0.33396(16) 0.61826(10) 0.81431(11)
H52 H 0.3648 0.5981 0.7998
C109 C 0.9736(2) 0.49366(10) 0.38207(12)
H53 H 1.0048 0.4773 0.3633
C110 C 0.8427(2) 0.40579(13) 0.44198(13)
H54 H 0.8811 0.4214 0.4598
C111 C 0.73142(16) 1.02267(9) 0.62351(10)
H55 H 0.7536 1.0301 0.6547
C112 C 0.9447(3) 0.86350(13) 0.5439(2)
C113 C 0.2884(2) 0.74551(11) 0.99889(12)
C114 C 0.7636(2) 0.81093(13) 0.69499(16)
C115 C 0.25686(16) 0.78663(11) 0.99321(9)
C116 C 1.20802(13) 0.71036(9) 0.60132(10)
C117 C 0.31830(15) 0.74609(9) 0.91626(10)
C118 C 0.17622(16) 0.84227(10) 1.02856(9)
C119 C 1.29316(15) 0.65577(11) 0.64254(12)
C120 C 0.25622(16) 0.80876(11) 0.94836(10)
C121 C 0.69309(19) 0.32508(11) 0.46644(11)
C122 C 0.9086(2) 0.41956(11) 0.32642(11)
C123 C 0.49232(14) 0.80724(9) 0.80525(10)
C124 C 1.38065(19) 0.60212(13) 0.68873(13)
C125 C 0.76676(13) 1.30924(8) 0.27208(11)
H56 H 0.8174 1.3093 0.2827
C126 C 0.3188(2) 0.72489(11) 0.96051(13)
H57 H 0.3398 0.6963 0.9647
C127 C 0.9336(2) 0.37676(12) 0.32802(11)
H58 H 0.9331 0.3602 0.3570
C128 C 0.7410(2) 0.35526(12) 0.44018(12)
C129 C 0.7976(2) 0.37772(13) 0.46573(13)
H59 H 0.8058 0.3740 0.4997
C130 C 0.24522(16) 0.67725(10) 0.85858(12)
H60 H 0.2150 0.6973 0.8738
C131 C 0.44245(19) 0.77922(11) 0.77917(12)
H61 H 0.4398 0.7791 0.7449
C132 C 0.22360(16) 1.04804(9) 0.64568(11)
C133 C 1.2368(2) 0.64477(15) 0.67775(16)
C134 C 0.2646(3) 0.80593(15) 1.08084(15)
C135 C 0.2364(3) 0.82735(18) 1.11848(16)
Co1B Co 0.150980(16) 0.448713(10) 0.677831(11)
Co2A Co 1.057253(15) 0.276570(9) 0.061741(12)
Co2B Co 0.557253(15) 0.223430(9) 0.561741(12)
Co3A Co 0.126650(19) 0.889250(10) 1.169998(12)
Co3A_2 Co 1.126650(19) 0.889250(10) 0.169998(12)
Co3B Co 1.626650(19) 0.610750(10) 0.669998(12)
Co3C Co 0.626650(19) 1.389250(10) 0.169998(12)
O3B O 0.03034(13) 1.14687(8) 0.65832(10)
N1C N 0.16588(10) 1.15473(6) 0.72635(7)
N4A N 0.07450(12) 1.06394(7) 0.71314(8)
N6A N 1.02763(11) 0.68300(6) 0.61995(8)
N7B N 0.67591(11) 0.99775(6) 0.73152(7)
N9B N 1.10471(13) 0.76934(7) 0.51676(8)
N12A N 0.1693(2) 1.14759(9) 0.61252(9)
loop_
_geom_bond_atom_site_label_1
_geom_bond_atom_site_label_2
_geom_bond_site_symmetry_1
_geom_bond_site_symmetry_2
Co1 O5 1_555 1_555
Co2 O1 1_555 1_555
Co3 O10 1_555 1_555
O1 C107 1_555 1_555
O2 Co2 1_555 1_555
O3 C97 1_555 1_555
O4 C116 1_555 1_555
O5 C92 1_555 1_555
O6 Co1 1_555 1_555
O7 C97 1_555 1_555
O8 Co2 1_555 1_555
O9 Co1 1_555 1_555
N1 C2 1_555 1_555
O10 C132 1_555 1_555
N2 Co2 1_555 1_555
O11 C92 1_555 1_555
C1 C14 1_555 1_555
N3 C25 1_555 1_555
N4 C5 1_555 1_555
N5 Co1 1_555 1_555
N6 C17 1_555 1_555
C2 H1 1_555 1_555
C3 H2 1_555 1_555
N7 C62 1_555 1_555
C4 C100 1_555 1_555
C5 H3 1_555 1_555
N8 C42 1_555 1_555
C6 N2 1_555 1_555
H4 C6 1_555 1_555
N9 C39 1_555 1_555
C7 H5 1_555 1_555
C8 H6 1_555 1_555
C9 C31 1_555 1_555
N10 Co1 1_555 1_555
C10 C31 1_555 1_555
C11 C16 1_555 1_555
C12 H7 1_555 1_555
C13 C59 1_555 1_555
C14 C20 1_555 1_555
C15 C18 1_555 1_555
C16 C100 1_555 1_555
C17 H8 1_555 1_555
C18 H9 1_555 1_555
C19 C28 1_555 1_555
C20 C53 1_555 1_555
C21 H10 1_555 1_555
C22 C3 1_555 1_555
C23 H11 1_555 1_555
C24 C28 1_555 1_555
C25 C7 1_555 1_555
C26 C8 1_555 1_555
C27 H12 1_555 1_555
C29 C14 1_555 1_555
C30 H13 1_555 1_555
C31 C132 1_555 1_555
C32 C67 1_555 1_555
C33 C52 1_555 1_555
C34 C23 1_555 1_555
N11 C54 1_555 1_555
C35 H14 1_555 1_555
C36 C46 1_555 1_555
C37 N3 1_555 1_555
C38 C12 1_555 1_555
H15 C38 1_555 1_555
C39 H16 1_555 1_555
C40 H17 1_555 1_555
O12 C132 1_555 1_555
C41 C74 1_555 1_555
C42 C38 1_555 1_555
C43 C5 1_555 1_555
H18 C43 1_555 1_555
C44 C77 1_555 1_555
C45 N3 1_555 1_555
C46 C11 1_555 1_555
C47 C26 1_555 1_555
C48 C29 1_555 1_555
C49 O6 1_555 1_555
C50 H19 1_555 1_555
C51 H20 1_555 1_555
C52 C25 1_555 1_555
H21 C52 1_555 1_555
C54 C68 1_555 1_555
C55 H22 1_555 1_555
C56 H23 1_555 1_555
C57 N1 1_555 1_555
H24 C57 1_555 1_555
C58 N5 1_555 1_555
H25 C58 1_555 1_555
C59 C33 1_555 1_555
C60 C37 1_555 1_555
H26 C60 1_555 1_555
N12 C82 1_555 1_555
C61 C46 1_555 1_555
C62 C18 1_555 1_555
H27 C62 1_555 1_555
C63 C15 1_555 1_555
C64 H28 1_555 1_555
C65 H29 1_555 1_555
C66 C22 1_555 1_555
H30 C66 1_555 1_555
C67 C10 1_555 1_555
C68 H31 1_555 1_555
C69 N2 1_555 1_555
H32 C69 1_555 1_555
C70 C61 1_555 1_555
C71 C67 1_555 1_555
C72 N8 1_555 1_555
C73 C50 1_555 1_555
H33 C73 1_555 1_555
C74 H34 1_555 1_555
C75 C45 1_555 1_555
H35 C75 1_555 1_555
C76 C7 1_555 1_555
C77 C9 1_555 1_555
C78 N10 1_555 1_555
H36 C78 1_555 1_555
C79 C19 1_555 1_555
C80 C2 1_555 1_555
H37 C80 1_555 1_555
C81 N4 1_555 1_555
H38 C81 1_555 1_555
C82 C118 1_555 1_555
C83 C9 1_555 1_555
C84 C115 1_555 1_555
C85 C26 1_555 1_555
H39 C85 1_555 1_555
C86 N6 1_555 1_555
H40 C86 1_555 1_555
C87 C15 1_555 1_555
H41 C87 1_555 1_555
C88 C40 1_555 1_555
H42 C88 1_555 1_555
C89 N10 1_555 1_555
H43 C89 1_555 1_555
C90 C20 1_555 1_555
C91 C17 1_555 1_555
H44 C91 1_555 1_555
C92 C32 1_555 1_555
C93 N11 1_555 1_555
C94 C41 1_555 1_555
H45 C94 1_555 1_555
C95 C12 1_555 1_555
C96 C41 1_555 1_555
C97 C29 1_555 1_555
C98 C8 1_555 1_555
H46 C98 1_555 1_555
C99 C45 1_555 1_555
H47 C99 1_555 1_555
C100 C70 1_555 1_555
C101 C19 1_555 1_555
C102 C39 1_555 1_555
H48 C102 1_555 1_555
C103 C79 1_555 1_555
H49 C103 1_555 1_555
C104 N9 1_555 1_555
H50 C104 1_555 1_555
C105 C10 1_555 1_555
C106 N7 1_555 1_555
H51 C106 1_555 1_555
C107 O8 1_555 1_555
C108 C51 1_555 1_555
H52 C108 1_555 1_555
C109 C21 1_555 1_555
H53 C109 1_555 1_555
C110 C72 1_555 1_555
H54 C110 1_555 1_555
C111 N5 1_555 1_555
H55 C111 1_555 1_555
C112 C61 1_555 1_555
C113 C115 1_555 1_555
C114 C16 1_555 1_555
C115 C120 1_555 1_555
C116 O2 1_555 1_555
C117 C30 1_555 1_555
C118 C84 1_555 1_555
C119 C48 1_555 1_555
C120 C30 1_555 1_555
C121 C64 1_555 1_555
C122 N8 1_555 1_555
C123 C34 1_555 1_555
C124 C48 1_555 1_555
C125 C13 1_555 1_555
H56 C125 1_555 1_555
C126 C113 1_555 1_555
H57 C126 1_555 1_555
C127 C85 1_555 1_555
H58 C127 1_555 1_555
C128 C73 1_555 1_555
C129 C110 1_555 1_555
H59 C129 1_555 1_555
C130 C55 1_555 1_555
H60 C130 1_555 1_555
C131 C68 1_555 1_555
H61 C131 1_555 1_555
C133 C119 1_555 1_555
C134 C84 1_555 1_555
C135 N12 1_555 1_555
Co1B N7 1_555 1_555
Co2A N6 1_555 1_555
Co2B N9 1_555 1_555
Co3A N12 1_555 1_555
Co3A_2 N4 1_555 1_555
Co3B O3 1_555 1_555
Co3C N1 1_555 1_555
O3B Co3 1_555 1_555
N1C Co3 1_555 1_555
N4A Co3 1_555 1_555
N6A Co2 1_555 1_555
N7B Co1 1_555 1_555
N9B Co2 1_555 1_555
N12A Co3 1_555 1_555
O9 C49 1_555 1_555
C3 C6 1_555 1_555
C11 C49 1_555 1_555
C13 C80 1_555 1_555
C21 C95 1_555 1_555
C22 C95 1_555 1_555
C23 C89 1_555 1_555
C24 C37 1_555 1_555
C27 C34 1_555 1_555
C27 C78 1_555 1_555
C32 C77 1_555 1_555
N11 C117 1_555 1_555
C35 C47 1_555 1_555
C35 C86 1_555 1_555
C40 C123 1_555 1_555
C42 C109 1_555 1_555
C43 C79 1_555 1_555
C47 C91 1_555 1_555
C50 C72 1_555 1_555
C51 C93 1_555 1_555
C54 C88 1_555 1_555
C55 C63 1_555 1_555
C56 C75 1_555 1_555
C56 C96 1_555 1_555
C57 C125 1_555 1_555
C58 C94 1_555 1_555
C59 C76 1_555 1_555
C60 C101 1_555 1_555
C63 C108 1_555 1_555
C64 C104 1_555 1_555
C65 C96 1_555 1_555
C65 C99 1_555 1_555
C66 C69 1_555 1_555
C70 C107 1_555 1_555
C74 C111 1_555 1_555
C81 C103 1_555 1_555
C87 C106 1_555 1_555
C90 C116 1_555 1_555
C90 C119 1_555 1_555
C93 C130 1_555 1_555
C98 C122 1_555 1_555
C102 C121 1_555 1_555
C117 C126 1_555 1_555
C121 C128 1_555 1_555
C122 C127 1_555 1_555
C123 C131 1_555 1_555
C128 C129 1_555 1_555
C134 C135 1_555 1_555

#END
