
#######################################################################
#
#                 Cambridge Crystallographic Data Centre
#                                CCDC 
#
#######################################################################
#
# If this CIF has been generated from an entry in the Cambridge 
# Structural Database, then it will include bibliographic, chemical, 
# crystal, experimental, refinement or atomic coordinate data resulting 
# from the CCDC's data processing and validation procedures.
#
#######################################################################

data_IGUFOH
_chemical_formula_moiety         '(C39 H28 N1 O8 Zn2 1+)n'
_symmetry_cell_setting           cubic
_symmetry_space_group_name_H-M   'F 4 3 2'
_symmetry_Int_Tables_number      209
_space_group_name_Hall           'F 4 2 3'
loop_
_symmetry_equiv_pos_site_id
_symmetry_equiv_pos_as_xyz
1 x,y,z
2 -x,-y,z
3 -x,y,-z
4 x,-y,-z
5 z,x,y
6 z,-x,-y
7 -z,-x,y
8 -z,x,-y
9 y,z,x
10 -y,z,-x
11 y,-z,-x
12 -y,-z,x
13 y,x,-z
14 -y,-x,-z
15 y,-x,z
16 -y,x,z
17 x,z,-y
18 -x,z,y
19 -x,-z,-y
20 x,-z,y
21 z,y,-x
22 z,-y,x
23 -z,y,x
24 -z,-y,-x
25 x,1/2+y,1/2+z
26 -x,1/2-y,1/2+z
27 -x,1/2+y,1/2-z
28 x,1/2-y,1/2-z
29 z,1/2+x,1/2+y
30 z,1/2-x,1/2-y
31 -z,1/2-x,1/2+y
32 -z,1/2+x,1/2-y
33 y,1/2+z,1/2+x
34 -y,1/2+z,1/2-x
35 y,1/2-z,1/2-x
36 -y,1/2-z,1/2+x
37 y,1/2+x,1/2-z
38 -y,1/2-x,1/2-z
39 y,1/2-x,1/2+z
40 -y,1/2+x,1/2+z
41 x,1/2+z,1/2-y
42 -x,1/2+z,1/2+y
43 -x,1/2-z,1/2-y
44 x,1/2-z,1/2+y
45 z,1/2+y,1/2-x
46 z,1/2-y,1/2+x
47 -z,1/2+y,1/2+x
48 -z,1/2-y,1/2-x
49 1/2+x,y,1/2+z
50 1/2-x,-y,1/2+z
51 1/2-x,y,1/2-z
52 1/2+x,-y,1/2-z
53 1/2+z,x,1/2+y
54 1/2+z,-x,1/2-y
55 1/2-z,-x,1/2+y
56 1/2-z,x,1/2-y
57 1/2+y,z,1/2+x
58 1/2-y,z,1/2-x
59 1/2+y,-z,1/2-x
60 1/2-y,-z,1/2+x
61 1/2+y,x,1/2-z
62 1/2-y,-x,1/2-z
63 1/2+y,-x,1/2+z
64 1/2-y,x,1/2+z
65 1/2+x,z,1/2-y
66 1/2-x,z,1/2+y
67 1/2-x,-z,1/2-y
68 1/2+x,-z,1/2+y
69 1/2+z,y,1/2-x
70 1/2+z,-y,1/2+x
71 1/2-z,y,1/2+x
72 1/2-z,-y,1/2-x
73 1/2+x,1/2+y,z
74 1/2-x,1/2-y,z
75 1/2-x,1/2+y,-z
76 1/2+x,1/2-y,-z
77 1/2+z,1/2+x,y
78 1/2+z,1/2-x,-y
79 1/2-z,1/2-x,y
80 1/2-z,1/2+x,-y
81 1/2+y,1/2+z,x
82 1/2-y,1/2+z,-x
83 1/2+y,1/2-z,-x
84 1/2-y,1/2-z,x
85 1/2+y,1/2+x,-z
86 1/2-y,1/2-x,-z
87 1/2+y,1/2-x,z
88 1/2-y,1/2+x,z
89 1/2+x,1/2+z,-y
90 1/2-x,1/2+z,y
91 1/2-x,1/2-z,-y
92 1/2+x,1/2-z,y
93 1/2+z,1/2+y,-x
94 1/2+z,1/2-y,x
95 1/2-z,1/2+y,x
96 1/2-z,1/2-y,-x
_cell_length_a                   34.7360(6)
_cell_length_b                   34.7360(6)
_cell_length_c                   34.7360(6)
_cell_angle_alpha                90
_cell_angle_beta                 90
_cell_angle_gamma                90
_cell_volume                     41912.1
loop_
_atom_site_label
_atom_site_type_symbol
_atom_site_fract_x
_atom_site_fract_y
_atom_site_fract_z
_atom_site_U_iso_or_equiv
_atom_site_thermal_displace_type
Zn1 Zn 0.143600(16) 0.356400(16) 0.143600(16) 0.0696 Uani
Zn2 Zn 0.085088(15) 0.414912(15) 0.085088(15) 0.0678 Uani
O1 O 0.13057(12) 0.44457(12) 0.09735(13) 0.0900 Uani
O2 O 0.16760(14) 0.40593(14) 0.1319(2) 0.1463 Uani
O3 O 0.17907(11) 0.32093(11) 0.17907(11) 0.1440 Uani
O4 O 0.04961(9) 0.45039(9) 0.04961(9) 0.0855 Uani
N1 N 0.3540(2) 0.6460(2) 0.1460(2) 0.1280 Uani
C1 C 0.2220(2) 0.4613(2) 0.1420(3) 0.1230 Uani
H1 H 0.2262 0.4374 0.1533 0.1470 Uiso
C2 C 0.2487(2) 0.49036(16) 0.1458(3) 0.1163 Uani
H2 H 0.2708 0.4857 0.1602 0.1400 Uiso
C3 C 0.20935(16) 0.53246(16) 0.1092(2) 0.0850 Uani
H3 H 0.2045 0.5565 0.0985 0.1020 Uiso
C4 C 0.18848(15) 0.46799(17) 0.12080(19) 0.0813 Uani
C5 C 0.16008(16) 0.43619(17) 0.1161(2) 0.0813 Uani
C6 C 0.18254(13) 0.50323(18) 0.10527(18) 0.0837 Uani
H4 H 0.1600 0.5079 0.0917 0.1000 Uiso
C7 C 0.24386(16) 0.52597(16) 0.1292(2) 0.0813 Uani
C8 C 0.3269(2) 0.6159(2) 0.1421(2) 0.1077 Uani
C9 C 0.27156(16) 0.55784(18) 0.1340(2) 0.0900 Uani
C10 C 0.2627(2) 0.59594(19) 0.1308(3) 0.1220 Uani
H5 H 0.2373 0.6027 0.1256 0.1460 Uiso
C11 C 0.3369(2) 0.5782(2) 0.1474(3) 0.1213 Uani
H6 H 0.3622 0.5719 0.1535 0.1460 Uiso
C12 C 0.3099(2) 0.5499(2) 0.1437(3) 0.1103 Uani
H7 H 0.3172 0.5245 0.1478 0.1320 Uiso
C13 C 0.2887(2) 0.6242(2) 0.1347(3) 0.1210 Uani
H8 H 0.2809 0.6497 0.1324 0.1450 Uiso
O1GA O 0.55543(12) 0.59735(13) 0.36943(12) 0.0900 Uani
O2GA O 0.59407(14) 0.6319(2) 0.33240(14) 0.1463 Uani
C1GA C 0.5387(2) 0.6420(3) 0.2780(2) 0.1230 Uani
H1GA H 0.5626 0.6533 0.2738 0.1470 Uiso
C2GA C 0.50964(16) 0.6458(3) 0.2513(2) 0.1163 Uani
H2GA H 0.5143 0.6602 0.2292 0.1400 Uiso
C3GA C 0.46754(16) 0.6092(2) 0.29065(16) 0.0850 Uani
H3GA H 0.4435 0.5985 0.2955 0.1020 Uiso
C4GA C 0.53201(17) 0.62080(19) 0.31152(15) 0.0813 Uani
C5GA C 0.56381(17) 0.6161(2) 0.33992(16) 0.0813 Uani
C6GA C 0.49677(18) 0.60527(18) 0.31746(13) 0.0837 Uani
H4GA H 0.4921 0.5917 0.3400 0.1000 Uiso
C7GA C 0.47403(16) 0.6292(2) 0.25614(16) 0.0813 Uani
C8GA C 0.3841(2) 0.6421(2) 0.1731(2) 0.1077 Uani
C9GA C 0.44216(18) 0.6340(2) 0.22844(16) 0.0900 Uani
C10GA C 0.40406(19) 0.6308(3) 0.2373(2) 0.1220 Uani
H5GA H 0.3973 0.6256 0.2627 0.1460 Uiso
C11GA C 0.4218(2) 0.6474(3) 0.1631(2) 0.1213 Uani
H6GA H 0.4281 0.6535 0.1378 0.1460 Uiso
C12GA C 0.4501(2) 0.6437(3) 0.1901(2) 0.1103 Uani
H7GA H 0.4755 0.6478 0.1828 0.1320 Uiso
C13GA C 0.3758(2) 0.6347(3) 0.2113(2) 0.1210 Uani
H8GA H 0.3503 0.6324 0.2191 0.1450 Uiso
O1BB O 0.40265(13) 0.86943(12) -0.05543(12) 0.0900 Uani
O2BB O 0.3681(2) 0.83240(14) -0.09407(14) 0.1463 Uani
C1BB C 0.3580(3) 0.7780(2) -0.0387(2) 0.1230 Uani
H1BB H 0.3467 0.7738 -0.0626 0.1470 Uiso
C2BB C 0.3542(3) 0.7513(2) -0.00964(16) 0.1163 Uani
H2BB H 0.3398 0.7292 -0.0143 0.1400 Uiso
C3BB C 0.3908(2) 0.79065(16) 0.03246(16) 0.0850 Uani
H3BB H 0.4015 0.7955 0.0565 0.1020 Uiso
C4BB C 0.37920(19) 0.81152(15) -0.03201(17) 0.0813 Uani
C5BB C 0.3839(2) 0.83992(16) -0.06381(17) 0.0813 Uani
C6BB C 0.39473(18) 0.81746(13) 0.00323(18) 0.0837 Uani
H4BB H 0.4083 0.8400 0.0079 0.1000 Uiso
C7BB C 0.3708(2) 0.75614(16) 0.02597(16) 0.0813 Uani
C8BB C 0.3579(2) 0.6731(2) 0.1159(2) 0.1077 Uani
C9BB C 0.3660(2) 0.72844(16) 0.05784(18) 0.0900 Uani
C10BB C 0.3692(3) 0.7373(2) 0.09594(19) 0.1220 Uani
H5BB H 0.3744 0.7627 0.1027 0.1460 Uiso
C11BB C 0.3526(3) 0.6631(2) 0.0782(2) 0.1213 Uani
H6BB H 0.3465 0.6378 0.0719 0.1460 Uiso
C12BB C 0.3563(3) 0.6901(2) 0.0499(2) 0.1103 Uani
H7BB H 0.3522 0.6828 0.0245 0.1320 Uiso
C13BB C 0.3653(3) 0.7113(2) 0.1242(2) 0.1210 Uani
H8BB H 0.3676 0.7191 0.1497 0.1450 Uiso
Zn1J Zn 0.356400(16) 0.856400(16) -0.143600(16) 0.0696 Uani
Zn1GA Zn 0.643600(16) 0.643600(16) 0.356400(16) 0.0696 Uani
Zn2J Zn 0.414912(15) 0.914912(15) -0.085088(15) 0.0678 Uani
Zn2GA Zn 0.585088(15) 0.585088(15) 0.414912(15) 0.0678 Uani
O1CA O 0.09735(13) 0.36943(12) 0.05543(12) 0.0900 Uani
O1EC O 0.05543(12) 0.40265(13) 0.13057(12) 0.0900 Uani
O2CA O 0.1319(2) 0.33240(14) 0.09407(14) 0.1463 Uani
O2EC O 0.09407(14) 0.3681(2) 0.16760(14) 0.1463 Uani
loop_
_atom_site_aniso_label
_atom_site_aniso_U_11
_atom_site_aniso_U_22
_atom_site_aniso_U_33
_atom_site_aniso_U_23
_atom_site_aniso_U_13
_atom_site_aniso_U_12
Zn1 0.0696(4) 0.0696(4) 0.0696(4) -0.0054(2) 0.0054(2) -0.0054(2)
Zn2 0.0678(4) 0.0678(4) 0.0678(4) -0.0077(2) 0.0077(2) -0.0077(2)
O1 0.081(3) 0.085(3) 0.104(3) -0.013(2) 0.012(2) -0.030(2)
O2 0.074(3) 0.073(3) 0.292(8) 0.001(4) 0.002(4) -0.008(2)
O3 0.144(3) 0.144(3) 0.144(3) 0.044(2) -0.044(2) 0.044(2)
O4 0.0855(15) 0.0855(15) 0.0855(15) 0.0107(15) -0.0107(15) 0.0107(15)
N1 0.128(5) 0.128(5) 0.128(5) 0.083(5) -0.083(5) -0.083(5)
C1 0.114(5) 0.079(4) 0.176(8) 0.040(5) -0.030(5) -0.024(4)
C2 0.089(4) 0.066(4) 0.194(8) 0.037(4) -0.051(5) -0.025(3)
C3 0.076(3) 0.061(3) 0.118(5) 0.014(3) -0.012(3) -0.001(2)
C4 0.063(3) 0.076(3) 0.105(4) -0.023(3) 0.016(3) -0.014(2)
C5 0.063(3) 0.070(3) 0.111(4) -0.027(3) 0.030(3) -0.013(3)
C6 0.055(2) 0.068(3) 0.128(4) -0.003(3) -0.014(2) -0.014(3)
C7 0.068(3) 0.067(3) 0.109(4) 0.009(3) -0.021(3) -0.016(3)
C8 0.100(4) 0.107(5) 0.116(5) 0.070(4) -0.056(4) -0.054(4)
C9 0.062(3) 0.083(4) 0.125(5) 0.029(3) -0.025(3) -0.021(3)
C10 0.086(4) 0.075(4) 0.205(9) 0.051(5) -0.059(5) -0.029(3)
C11 0.082(4) 0.117(5) 0.165(7) 0.069(5) -0.063(4) -0.043(4)
C12 0.088(4) 0.093(4) 0.150(6) 0.049(4) -0.056(4) -0.017(3)
C13 0.120(5) 0.086(4) 0.157(7) 0.057(4) -0.071(5) -0.033(4)
O1GA 0.085 0.104 0.081 -0.012 -0.03 0.013
O2GA 0.073 0.292 0.074 -0.002 -0.008 -0.001
C1GA 0.079 0.176 0.114 0.03 -0.024 -0.04
C2GA 0.066 0.194 0.089 0.051 -0.025 -0.037
C3GA 0.061 0.118 0.076 0.012 -0.001 -0.014
C4GA 0.076 0.105 0.063 -0.016 -0.014 0.023
C5GA 0.07 0.111 0.063 -0.03 -0.013 0.027
C6GA 0.068 0.128 0.055 0.014 -0.014 0.003
C7GA 0.067 0.109 0.068 0.021 -0.016 -0.009
C8GA 0.107 0.116 0.1 0.056 -0.054 -0.07
C9GA 0.083 0.125 0.062 0.025 -0.021 -0.029
C10GA 0.075 0.205 0.086 0.059 -0.029 -0.051
C11GA 0.117 0.165 0.082 0.063 -0.043 -0.069
C12GA 0.093 0.15 0.088 0.056 -0.017 -0.049
C13GA 0.086 0.157 0.12 0.071 -0.033 -0.057
O1BB 0.104 0.081 0.085 0.03 0.013 0.012
O2BB 0.292 0.074 0.073 0.008 -0.001 0.002
C1BB 0.176 0.114 0.079 0.024 -0.04 -0.03
C2BB 0.194 0.089 0.066 0.025 -0.037 -0.051
C3BB 0.118 0.076 0.061 0.001 -0.014 -0.012
C4BB 0.105 0.063 0.076 0.014 0.023 0.016
C5BB 0.111 0.063 0.07 0.013 0.027 0.03
C6BB 0.128 0.055 0.068 0.014 0.003 -0.014
C7BB 0.109 0.068 0.067 0.016 -0.009 -0.021
C8BB 0.116 0.1 0.107 0.054 -0.07 -0.056
C9BB 0.125 0.062 0.083 0.021 -0.029 -0.025
C10BB 0.205 0.086 0.075 0.029 -0.051 -0.059
C11BB 0.165 0.082 0.117 0.043 -0.069 -0.063
C12BB 0.15 0.088 0.093 0.017 -0.049 -0.056
C13BB 0.157 0.12 0.086 0.033 -0.057 -0.071
Zn1J 0.0696 0.0696 0.0696 0.0054 0.0054 0.0054
Zn1GA 0.0696 0.0696 0.0696 -0.0054 -0.0054 0.0054
Zn2J 0.0678 0.0678 0.0678 0.0077 0.0077 0.0077
Zn2GA 0.0678 0.0678 0.0678 -0.0077 -0.0077 0.0077
O1CA 0.104 0.081 0.085 -0.03 0.013 -0.012
O1EC 0.085 0.104 0.081 -0.012 0.03 -0.013
O2CA 0.292 0.074 0.073 -0.008 -0.001 -0.002
O2EC 0.073 0.292 0.074 -0.002 0.008 0.001
loop_
_geom_bond_atom_site_label_1
_geom_bond_atom_site_label_2
_geom_bond_site_symmetry_1
_geom_bond_site_symmetry_2
Zn1 O2 1_555 1_555
Zn2 O1 1_555 1_555
O1 C5 1_555 1_555
O2 C5 1_555 1_555
O3 Zn1 1_555 1_555
O4 Zn2 1_555 1_555
N1 C8 1_555 1_555
C1 H1 1_555 1_555
C2 C1 1_555 1_555
H2 C2 1_555 1_555
C3 H3 1_555 1_555
C4 C1 1_555 1_555
C5 C4 1_555 1_555
C6 C3 1_555 1_555
H4 C6 1_555 1_555
C7 C2 1_555 1_555
C8 C11 1_555 1_555
C9 C7 1_555 1_555
C10 C9 1_555 1_555
H5 C10 1_555 1_555
C11 H6 1_555 1_555
C12 C9 1_555 1_555
H7 C12 1_555 1_555
C13 C8 1_555 1_555
H8 C13 1_555 1_555
O1GA C5GA 1_555 1_555
O2GA C5GA 1_555 1_555
C1GA H1GA 1_555 1_555
C2GA C1GA 1_555 1_555
H2GA C2GA 1_555 1_555
C3GA H3GA 1_555 1_555
C4GA C1GA 1_555 1_555
C5GA C4GA 1_555 1_555
C6GA C3GA 1_555 1_555
H4GA C6GA 1_555 1_555
C7GA C2GA 1_555 1_555
C8GA N1 1_555 1_555
C9GA C7GA 1_555 1_555
C10GA C9GA 1_555 1_555
H5GA C10GA 1_555 1_555
C11GA C8GA 1_555 1_555
H6GA C11GA 1_555 1_555
C12GA C9GA 1_555 1_555
H7GA C12GA 1_555 1_555
C13GA C8GA 1_555 1_555
H8GA C13GA 1_555 1_555
O1BB C5BB 1_555 1_555
O2BB C5BB 1_555 1_555
C1BB H1BB 1_555 1_555
C2BB C1BB 1_555 1_555
H2BB C2BB 1_555 1_555
C3BB H3BB 1_555 1_555
C4BB C1BB 1_555 1_555
C5BB C4BB 1_555 1_555
C6BB C3BB 1_555 1_555
H4BB C6BB 1_555 1_555
C7BB C2BB 1_555 1_555
C8BB N1 1_555 1_555
C9BB C7BB 1_555 1_555
C10BB C9BB 1_555 1_555
H5BB C10BB 1_555 1_555
C11BB C8BB 1_555 1_555
H6BB C11BB 1_555 1_555
C12BB C9BB 1_555 1_555
H7BB C12BB 1_555 1_555
C13BB C8BB 1_555 1_555
H8BB C13BB 1_555 1_555
Zn1J O2BB 1_555 1_555
Zn1GA O2GA 1_555 1_555
Zn2J O1BB 1_555 1_555
Zn2GA O1GA 1_555 1_555
O1CA Zn2 1_555 1_555
O1EC Zn2 1_555 1_555
O2CA Zn1 1_555 1_555
O2EC Zn1 1_555 1_555
C3 C7 1_555 1_555
C4 C6 1_555 1_555
C10 C13 1_555 1_555
C11 C12 1_555 1_555
C3GA C7GA 1_555 1_555
C4GA C6GA 1_555 1_555
C10GA C13GA 1_555 1_555
C11GA C12GA 1_555 1_555
C3BB C7BB 1_555 1_555
C4BB C6BB 1_555 1_555
C10BB C13BB 1_555 1_555
C11BB C12BB 1_555 1_555

#END
