
#######################################################################
#
#                 Cambridge Crystallographic Data Centre
#                                CCDC 
#
#######################################################################
#
# If this CIF has been generated from an entry in the Cambridge 
# Structural Database, then it will include bibliographic, chemical, 
# crystal, experimental, refinement or atomic coordinate data resulting 
# from the CCDC's data processing and validation procedures.
#
#######################################################################

data_IMULEH
_chemical_formula_moiety         '(C56 H48 Co2 N12 S4)n'
_symmetry_cell_setting           monoclinic
_symmetry_space_group_name_H-M   'C 2/c'
_symmetry_Int_Tables_number      15
_space_group_name_Hall           '-C 2yc'
loop_
_symmetry_equiv_pos_site_id
_symmetry_equiv_pos_as_xyz
1 x,y,z
2 1/2+x,1/2+y,z
3 x,-y,1/2+z
4 1/2+x,1/2-y,1/2+z
5 -x,-y,-z
6 1/2-x,1/2-y,-z
7 -x,y,1/2-z
8 1/2-x,1/2+y,1/2-z
_cell_length_a                   19.5758(6)
_cell_length_b                   19.3887(6)
_cell_length_c                   27.3461(6)
_cell_angle_alpha                90
_cell_angle_beta                 108.4899(16)
_cell_angle_gamma                90
_cell_volume                     9843.42
loop_
_atom_site_label
_atom_site_type_symbol
_atom_site_fract_x
_atom_site_fract_y
_atom_site_fract_z
Co1 Co 0.0000 -0.61867(5) 0.2500
S1 S -0.1332(2) -0.6458(2) 0.07184(13)
N1 N 0.0747(3) -0.5349(2) 0.2470(3)
N2 N 0.4221(3) -0.1986(3) 0.2523(2)
N3 N -0.0403(3) -0.6206(3) 0.1705(3)
C1 C 0.0977(6) -0.4929(4) 0.2897(5)
H1 H 0.0791 -0.4999 0.3167
C2 C 0.1469(7) -0.4415(5) 0.2940(6)
H2 H 0.1619 -0.4153 0.3240
C3 C 0.1752(5) -0.4276(5) 0.2534(7)
C4 C 0.1454(6) -0.4666(5) 0.2092(5)
H3 H 0.1566 -0.4574 0.1793
C5 C 0.0987(4) -0.5194(4) 0.2104(4)
H4 H 0.0830 -0.5467 0.1810
C6 C 0.2337(8) -0.3799(7) 0.2725(9)
C7 C 0.2765(8) -0.3564(9) 0.3267(9)
H5 H 0.3246 -0.3445 0.3277
H6 H 0.2783 -0.3929 0.3507
H7 H 0.2537 -0.3167 0.3357
C8 C 0.3995(4) -0.2468(3) 0.2162(3)
H8 H 0.4212 -0.2493 0.1905
C9 C 0.3459(5) -0.2930(4) 0.2148(4)
H9 H 0.3306 -0.3242 0.1876
C10 C 0.3383(4) -0.2458(5) 0.2893(4)
H10 H 0.3186 -0.2432 0.3161
C11 C 0.3142(4) -0.2935(4) 0.2541(5)
C12 C 0.3908(4) -0.1995(4) 0.2887(3)
H11 H 0.4051 -0.1672 0.3151
C13 C 0.2582(6) -0.3480(6) 0.2469(7)
H12 H 0.2375 -0.3592 0.2123
C40 C -0.0777(4) -0.6315(4) 0.1294(4)
N1F N -0.0747(3) -0.5349(2) 0.2530(3)
N2F N -0.4221(3) -0.1986(3) 0.2477(2)
C1F C -0.0977(6) -0.4929(4) 0.2103(5)
H1F H -0.0791 -0.4999 0.1833
C2F C -0.1469(7) -0.4415(5) 0.2060(6)
H2F H -0.1619 -0.4153 0.1760
C3F C -0.1752(5) -0.4276(5) 0.2466(7)
C4F C -0.1454(6) -0.4666(5) 0.2908(5)
H3F H -0.1566 -0.4574 0.3207
C5F C -0.0987(4) -0.5194(4) 0.2896(4)
H4F H -0.0830 -0.5467 0.3190
C6F C -0.2337(8) -0.3799(7) 0.2275(9)
C7F C -0.2765(8) -0.3564(9) 0.1733(9)
H5F H -0.3246 -0.3445 0.1723
H6F H -0.2783 -0.3929 0.1493
H7F H -0.2537 -0.3167 0.1643
C8F C -0.3995(4) -0.2468(3) 0.2838(3)
H8F H -0.4212 -0.2493 0.3095
C9F C -0.3459(5) -0.2930(4) 0.2852(4)
H9F H -0.3306 -0.3242 0.3124
C10F C -0.3383(4) -0.2458(5) 0.2107(4)
H10F H -0.3186 -0.2432 0.1839
C11F C -0.3142(4) -0.2935(4) 0.2459(5)
C12F C -0.3908(4) -0.1995(4) 0.2113(3)
H11F H -0.4051 -0.1672 0.1849
C13F C -0.2582(6) -0.3480(6) 0.2531(7)
H12F H -0.2375 -0.3592 0.2877
S1F S 0.1332(2) -0.6458(2) 0.42816(13)
N3F N 0.0403(3) -0.6206(3) 0.3295(3)
C40F C 0.0777(4) -0.6315(4) 0.3706(4)
N2A N -0.0779(3) -0.6986(3) 0.2523(2)
N2G N 0.0779(3) -0.6986(3) 0.2477(2)
Co1A Co 0.5000 -0.11867(5) 0.2500
Co1A_2 Co -0.5000 -0.11867(5) 0.2500
Co2 Co -0.15186(4) -0.02006(4) 0.08221(3)
S2 S 0.0263(2) 0.1537(2) 0.1333(3)
S4 S -0.3574(11) -0.1629(13) 0.0663(8)
N4 N -0.2259(3) 0.0680(3) 0.07852(17)
N5 N -0.5780(3) 0.3927(3) 0.08598(19)
N6 N -0.1489(3) 0.0342(3) -0.33679(17)
N7 N -0.1575(3) 0.0027(3) 0.00266(18)
N8 N -0.0648(3) 0.0429(4) 0.1054(2)
N9 N -0.2374(3) -0.0875(3) 0.0573(2)
C14 C -0.2112(4) 0.1322(4) 0.0705(2)
H13 H -0.1659 0.1402 0.0674
C15 C -0.2539(4) 0.1881(4) 0.0662(3)
H14 H -0.2380 0.2316 0.0604
C16 C -0.3219(4) 0.1791(3) 0.0706(3)
C17 C -0.3399(5) 0.1114(4) 0.0778(4)
H15 H -0.3852 0.1015 0.0802
C18 C -0.2915(4) 0.0591(4) 0.0816(3)
H16 H -0.3056 0.0146 0.0866
C19 C -0.3747(4) 0.2379(4) 0.0627(3)
C20 C -0.3710(5) 0.2921(4) 0.0254(4)
H17 H -0.3994 0.3311 0.0288
H18 H -0.3894 0.2742 -0.0090
H19 H -0.3218 0.3061 0.0322
C21 C -0.5205(4) 0.3831(4) 0.1272(3)
H20 H -0.5150 0.4115 0.1556
C22 C -0.4685(4) 0.3338(4) 0.1305(3)
H21 H -0.4301 0.3284 0.1607
C23 C -0.4746(4) 0.2923(4) 0.0879(3)
C24 C -0.5330(6) 0.3044(6) 0.0450(4)
H22 H -0.5390 0.2778 0.0156
C25 C -0.5813(5) 0.3535(5) 0.0443(4)
H23 H -0.6188 0.3611 0.0139
C26 C -0.4186(4) 0.2395(4) 0.0908(4)
H24 H -0.4138 0.2043 0.1147
C27 C -0.1009(4) 0.0056(5) -0.0127(3)
H25 H -0.0558 -0.0010 0.0115
C28 C -0.1051(6) 0.0180(6) -0.0637(3)
H26 H -0.0631 0.0183 -0.0727
C29 C -0.1697(6) 0.0298(6) -0.1007(2)
C30 C -0.2272(6) 0.0257(6) -0.0847(3)
H27 H -0.2728 0.0308 -0.1086
C31 C -0.2213(4) 0.0141(5) -0.0338(2)
H28 H -0.2629 0.0141 -0.0243
C32 C -0.1828(9) 0.0532(10) -0.1546(3)
C33 C -0.2354(5) 0.1167(5) -0.1810(3)
H29 H -0.2214 0.1347 -0.2091
H30 H -0.2317 0.1523 -0.1559
H31 H -0.2842 0.1006 -0.1937
C34 C -0.1165(5) -0.0103(5) -0.3004(3)
H32 H -0.0890 -0.0454 -0.3079
C35 C -0.1224(6) -0.0064(6) -0.2507(3)
H33 H -0.0984 -0.0394 -0.2267
C36 C -0.1595(5) 0.0408(5) -0.2359(3)
C37 C -0.1856(6) 0.0830(6) -0.3237(3)
H34 H -0.2093 0.1157 -0.3481
C38 C -0.1903(8) 0.0874(7) -0.2734(4)
H35 H -0.2158 0.1239 -0.2655
C39 C -0.1631(8) 0.0379(7) -0.1822(4)
H36 H -0.1293 0.0045 -0.1662
C41 C -0.0270(4) 0.0888(4) 0.1163(3)
C42 C -0.2810(12) -0.1296(10) 0.0581(6)
N5A N -0.0780(3) -0.1073(3) 0.08598(19)
N6B N -0.1489(3) -0.0342(3) 0.16321(17)
Co2A Co -0.65186(4) 0.47994(4) 0.08221(3)
Co2B Co -0.15186(4) 0.02006(4) -0.41779(3)
loop_
_geom_bond_atom_site_label_1
_geom_bond_atom_site_label_2
_geom_bond_site_symmetry_1
_geom_bond_site_symmetry_2
Co1 N1 1_555 1_555
Co2 N4 1_555 1_555
S1 C40 1_555 1_555
S2 C41 1_555 1_555
S4 C42 1_555 1_555
N1 C1 1_555 1_555
N2 C8 1_555 1_555
N3 Co1 1_555 1_555
N4 C14 1_555 1_555
N5 C21 1_555 1_555
N6 C34 1_555 1_555
N7 Co2 1_555 1_555
N8 Co2 1_555 1_555
N9 Co2 1_555 1_555
C1 H1 1_555 1_555
C2 C1 1_555 1_555
H2 C2 1_555 1_555
C3 C2 1_555 1_555
C4 C3 1_555 1_555
H3 C4 1_555 1_555
C5 N1 1_555 1_555
H4 C5 1_555 1_555
C6 C3 1_555 1_555
C7 C6 1_555 1_555
H5 C7 1_555 1_555
H6 C7 1_555 1_555
H7 C7 1_555 1_555
C8 H8 1_555 1_555
C9 C8 1_555 1_555
H9 C9 1_555 1_555
C10 H10 1_555 1_555
C11 C9 1_555 1_555
C12 N2 1_555 1_555
H11 C12 1_555 1_555
C13 C6 1_555 1_555
H12 C13 1_555 1_555
C14 H13 1_555 1_555
C15 C14 1_555 1_555
H14 C15 1_555 1_555
C16 C15 1_555 1_555
C17 C16 1_555 1_555
H15 C17 1_555 1_555
C18 N4 1_555 1_555
H16 C18 1_555 1_555
C19 C16 1_555 1_555
C20 C19 1_555 1_555
H17 C20 1_555 1_555
H18 C20 1_555 1_555
H19 C20 1_555 1_555
C21 H20 1_555 1_555
C22 C21 1_555 1_555
H21 C22 1_555 1_555
C23 C22 1_555 1_555
C24 C23 1_555 1_555
H22 C24 1_555 1_555
C25 N5 1_555 1_555
H23 C25 1_555 1_555
C26 C19 1_555 1_555
H24 C26 1_555 1_555
C27 N7 1_555 1_555
H25 C27 1_555 1_555
C28 C27 1_555 1_555
H26 C28 1_555 1_555
C29 C28 1_555 1_555
C30 C29 1_555 1_555
H27 C30 1_555 1_555
C31 N7 1_555 1_555
H28 C31 1_555 1_555
C32 C29 1_555 1_555
C33 C32 1_555 1_555
H29 C33 1_555 1_555
H30 C33 1_555 1_555
H31 C33 1_555 1_555
C34 H32 1_555 1_555
C35 C34 1_555 1_555
H33 C35 1_555 1_555
C36 C35 1_555 1_555
C37 N6 1_555 1_555
H34 C37 1_555 1_555
C38 C36 1_555 1_555
H35 C38 1_555 1_555
C39 C32 1_555 1_555
H36 C39 1_555 1_555
C40 N3 1_555 1_555
C41 N8 1_555 1_555
C42 N9 1_555 1_555
N1F Co1 1_555 1_555
N2F C8F 1_555 1_555
C1F N1F 1_555 1_555
H1F C1F 1_555 1_555
C2F C1F 1_555 1_555
H2F C2F 1_555 1_555
C3F C2F 1_555 1_555
C4F C3F 1_555 1_555
H3F C4F 1_555 1_555
C5F N1F 1_555 1_555
H4F C5F 1_555 1_555
C6F C3F 1_555 1_555
C7F C6F 1_555 1_555
H5F C7F 1_555 1_555
H6F C7F 1_555 1_555
H7F C7F 1_555 1_555
C8F H8F 1_555 1_555
C9F C8F 1_555 1_555
H9F C9F 1_555 1_555
C10F H10F 1_555 1_555
C11F C9F 1_555 1_555
C12F N2F 1_555 1_555
H11F C12F 1_555 1_555
C13F C6F 1_555 1_555
H12F C13F 1_555 1_555
S1F C40F 1_555 1_555
N3F Co1 1_555 1_555
C40F N3F 1_555 1_555
N5A Co2 1_555 1_555
N6B Co2 1_555 1_555
N2A Co1 1_555 1_555
N2G Co1 1_555 1_555
Co1A N2 1_555 1_555
Co2A N5 1_555 1_555
Co1A_2 N2F 1_555 1_555
Co2B N6 1_555 1_555
C4 C5 1_555 1_555
C10 C12 1_555 1_555
C10 C11 1_555 1_555
C11 C13 1_555 1_555
C17 C18 1_555 1_555
C23 C26 1_555 1_555
C24 C25 1_555 1_555
C30 C31 1_555 1_555
C36 C39 1_555 1_555
C37 C38 1_555 1_555
C4F C5F 1_555 1_555
C10F C12F 1_555 1_555
C10F C11F 1_555 1_555
C11F C13F 1_555 1_555

#END
