
#######################################################################
#
#                 Cambridge Crystallographic Data Centre
#                                CCDC 
#
#######################################################################
#
# If this CIF has been generated from an entry in the Cambridge 
# Structural Database, then it will include bibliographic, chemical, 
# crystal, experimental, refinement or atomic coordinate data resulting 
# from the CCDC's data processing and validation procedures.
#
#######################################################################

data_FODHUD
_chemical_formula_moiety         '(C18 H14 Co2 N8 O4)n'
_symmetry_cell_setting           orthorhombic
_symmetry_space_group_name_H-M   'P n m a'
_symmetry_Int_Tables_number      62
_space_group_name_Hall           '-P 2ac 2n'
loop_
_symmetry_equiv_pos_site_id
_symmetry_equiv_pos_as_xyz
1 x,y,z
2 1/2-x,-y,1/2+z
3 1/2+x,1/2-y,1/2-z
4 -x,1/2+y,-z
5 -x,-y,-z
6 1/2+x,y,1/2-z
7 1/2-x,1/2+y,1/2+z
8 x,1/2-y,z
_cell_length_a                   10.018(9)
_cell_length_b                   35.527(3)
_cell_length_c                   9.37(8)
_cell_angle_alpha                90
_cell_angle_beta                 90
_cell_angle_gamma                90
_cell_volume                     3334.87
loop_
_atom_site_label
_atom_site_type_symbol
_atom_site_fract_x
_atom_site_fract_y
_atom_site_fract_z
_atom_site_U_iso_or_equiv
_atom_site_thermal_displace_type
Co1 Co 0.61177(10) 0.03944(3) 0.57614(12) 0.0484 Uani
C1 C 0.6838(11) 0.1100(2) 0.5889(11) 0.0760 Uani
C2 C 0.7553(7) 0.0085(2) 0.3157(9) 0.0387 Uani
C3 C 0.6306(7) -0.0359(3) 0.2458(10) 0.0650 Uani
H1 H 0.5993 -0.0567 0.1957 0.0780 Uiso
C4 C 0.6937(10) 0.1495(2) 0.6064(10) 0.0650 Uani
C5 C 0.795(3) 0.1690(8) 0.561(2) 0.0387 Uani
H2 H 0.8625 0.1562 0.5140 0.0460 Uiso
C6 C 0.580(2) 0.1713(5) 0.652(3) 0.0750 Uani
H3 H 0.5011 0.1592 0.6774 0.0900 Uiso
C7 C 0.808(2) 0.2069(6) 0.576(3) 0.0520 Uani
H4 H 0.8900 0.2180 0.5546 0.0630 Uiso
C8 C 0.5868(18) 0.2075(5) 0.657(3) 0.0640 Uani
H5 H 0.5115 0.2210 0.6845 0.0760 Uiso
C9 C 0.7090(9) 0.2284(2) 0.6212(10) 0.0650 Uani
O1 O 0.5821(11) 0.0932(3) 0.691(2) 0.0560 Uani
O2 O 0.7590(8) 0.09069(16) 0.5214(7) 0.0867 Uani
N1 N 0.6462(6) 0.01012(16) 0.3971(7) 0.0437 Uani
N2 N 0.5641(5) -0.01920(18) 0.3478(7) 0.0440 Uani
N3 N 0.7499(5) -0.01939(18) 0.2216(7) 0.0450 Uani
N4 N 0.8592(7) 0.0330(2) 0.3316(10) 0.0910 Uani
H6 H 0.8558 0.0510 0.3991 0.1090 Uiso
H7 H 0.9312 0.0311 0.2747 0.1090 Uiso
C1G C 0.6838(11) 0.3900(2) 0.5889(11) 0.0760 Uani
C4G C 0.6937(10) 0.3505(2) 0.6064(10) 0.0650 Uani
C5G C 0.795(3) 0.3310(8) 0.561(2) 0.0387 Uani
H2G H 0.8625 0.3438 0.5140 0.0460 Uiso
C6G C 0.580(2) 0.3287(5) 0.652(3) 0.0750 Uani
H3G H 0.5011 0.3408 0.6774 0.0900 Uiso
C7G C 0.808(2) 0.2931(6) 0.576(3) 0.0520 Uani
H4G H 0.8900 0.2820 0.5546 0.0630 Uiso
C8G C 0.5868(18) 0.2925(5) 0.657(3) 0.0640 Uani
H5G H 0.5115 0.2790 0.6845 0.0760 Uiso
C9G C 0.7090(9) 0.2716(2) 0.6212(10) 0.0650 Uani
O1G O 0.5821(11) 0.4068(3) 0.691(2) 0.0560 Uani
O2G O 0.7590(8) 0.40931(16) 0.5214(7) 0.0867 Uani
Co1D Co 0.38823(10) -0.03944(3) 0.42386(12) 0.0484 Uani
C2D C 0.2447(7) -0.0085(2) 0.6843(9) 0.0387 Uani
C3D C 0.3694(7) 0.0359(3) 0.7542(10) 0.0650 Uani
H1D H 0.4007 0.0567 0.8043 0.0780 Uiso
N1D N 0.3538(6) -0.01012(16) 0.6029(7) 0.0437 Uani
N2D N 0.4359(5) 0.01920(18) 0.6522(7) 0.0440 Uani
N3D N 0.2501(5) 0.01939(18) 0.7784(7) 0.0450 Uani
N4D N 0.1408(7) -0.0330(2) 0.6684(10) 0.0910 Uani
H6D H 0.1442 -0.0510 0.6009 0.1090 Uiso
H7D H 0.0688 -0.0311 0.7253 0.1090 Uiso
Co1A Co 0.88823(10) -0.03944(3) 0.07614(12) 0.0484 Uani
Co1E Co 0.11177(10) 0.03944(3) 0.92386(12) 0.0484 Uani
Co1G Co 0.61177(10) 0.46056(3) 0.57614(12) 0.0484 Uani
O1D O 0.4179(11) -0.0932(3) 0.309(2) 0.0560 Uani
O2D O 0.2410(8) -0.09069(16) 0.4786(7) 0.0867 Uani
N3A N 0.7501(5) 0.01939(18) 0.7216(7) 0.0450 Uani
N3E N 0.2499(5) -0.01939(18) 0.2784(7) 0.0450 Uani
loop_
_atom_site_aniso_label
_atom_site_aniso_U_11
_atom_site_aniso_U_22
_atom_site_aniso_U_33
_atom_site_aniso_U_23
_atom_site_aniso_U_13
_atom_site_aniso_U_12
Co1 0.0332(6) 0.0548(8) 0.0571(8) 0.0013(7) 0.0012(6) -0.0215(5)
C1 0.076(3) 0.074(3) 0.078(3) 0.0019(19) -0.0035(19) -0.0025(19)
C2 0.025(4) 0.040(5) 0.051(5) -0.003(4) -0.004(4) -0.005(4)
C3 0.028(4) 0.089(7) 0.078(6) -0.044(6) 0.007(5) -0.031(5)
C4 0.075(5) 0.035(4) 0.085(6) 0.002(4) -0.016(5) -0.005(4)
C5 0.046(10) 0.034(11) 0.036(11) 0.002(10) -0.007(10) 0.006(7)
C6 0.044(10) 0.049(11) 0.132(15) 0.015(11) -0.006(11) 0.001(8)
C7 0.052(10) 0.054(11) 0.050(12) -0.004(10) -0.002(11) -0.015(8)
C8 0.037(9) 0.047(10) 0.108(14) 0.012(10) 0.004(10) 0.007(8)
C9 0.055(5) 0.055(5) 0.085(7) 0.005(5) 0.012(5) -0.013(4)
O1 0.055(6) 0.056(6) 0.057(6) -0.001(2) 0.001(2) -0.0004(19)
O2 0.150(7) 0.038(4) 0.072(4) -0.015(3) 0.007(5) -0.015(4)
N1 0.033(4) 0.037(4) 0.061(5) -0.011(3) 0.010(4) -0.005(3)
N2 0.015(3) 0.059(5) 0.058(4) -0.010(4) 0.006(3) -0.011(3)
N3 0.024(3) 0.051(4) 0.060(4) -0.015(4) 0.001(3) -0.003(3)
N4 0.055(5) 0.086(6) 0.132(8) -0.059(6) 0.045(5) -0.040(4)
C1G 0.076 0.074 0.078 -0.0019 -0.0035 0.0025
C4G 0.075 0.035 0.085 -0.002 -0.016 0.005
C5G 0.046 0.034 0.036 -0.002 -0.007 -0.006
C6G 0.044 0.049 0.132 -0.015 -0.006 -0.001
C7G 0.052 0.054 0.05 0.004 -0.002 0.015
C8G 0.037 0.047 0.108 -0.012 0.004 -0.007
C9G 0.055 0.055 0.085 -0.005 0.012 0.013
O1G 0.055 0.056 0.057 0.001 0.001 0.0004
O2G 0.15 0.038 0.072 0.015 0.007 0.015
Co1D 0.0332 0.0548 0.0571 0.0013 0.0012 -0.0215
C2D 0.025 0.04 0.051 -0.003 -0.004 -0.005
C3D 0.028 0.089 0.078 -0.044 0.007 -0.031
N1D 0.033 0.037 0.061 -0.011 0.01 -0.005
N2D 0.015 0.059 0.058 -0.01 0.006 -0.011
N3D 0.024 0.051 0.06 -0.015 0.001 -0.003
N4D 0.055 0.086 0.132 -0.059 0.045 -0.04
Co1A 0.0332 0.0548 0.0571 -0.0013 -0.0012 -0.0215
Co1E 0.0332 0.0548 0.0571 -0.0013 -0.0012 -0.0215
Co1G 0.0332 0.0548 0.0571 -0.0013 0.0012 0.0215
O1D 0.055 0.056 0.057 -0.001 0.001 -0.0004
O2D 0.15 0.038 0.072 -0.015 0.007 -0.015
N3A 0.024 0.051 0.06 0.015 -0.001 -0.003
N3E 0.024 0.051 0.06 0.015 -0.001 -0.003
loop_
_geom_bond_atom_site_label_1
_geom_bond_atom_site_label_2
_geom_bond_site_symmetry_1
_geom_bond_site_symmetry_2
Co1 O1 1_555 1_555
C1 C4 1_555 1_555
C2 N1 1_555 1_555
C3 H1 1_555 1_555
C4 C5 1_555 1_555
C5 H2 1_555 1_555
C6 C4 1_555 1_555
H3 C6 1_555 1_555
C7 C5 1_555 1_555
H4 C7 1_555 1_555
C8 C6 1_555 1_555
H5 C8 1_555 1_555
C9 C7 1_555 1_555
O1 C1 1_555 1_555
O2 Co1 1_555 1_555
N1 Co1 1_555 1_555
N2 C3 1_555 1_555
N3 C2 1_555 1_555
N4 C2 1_555 1_555
H6 N4 1_555 1_555
H7 N4 1_555 1_555
C1G C4G 1_555 1_555
C4G C5G 1_555 1_555
C5G H2G 1_555 1_555
C6G C4G 1_555 1_555
H3G C6G 1_555 1_555
C7G C5G 1_555 1_555
H4G C7G 1_555 1_555
C8G C6G 1_555 1_555
H5G C8G 1_555 1_555
C9G C9 1_555 1_555
O1G C1G 1_555 1_555
O2G C1G 1_555 1_555
Co1D N2 1_555 1_555
C2D N1D 1_555 1_555
C3D H1D 1_555 1_555
N1D Co1D 1_555 1_555
N2D Co1 1_555 1_555
N3D C2D 1_555 1_555
N4D C2D 1_555 1_555
H6D N4D 1_555 1_555
H7D N4D 1_555 1_555
Co1A N3 1_555 1_555
Co1E N3D 1_555 1_555
Co1G O1G 1_555 1_555
O1D Co1D 1_555 1_555
O2D Co1D 1_555 1_555
N3A Co1 1_555 1_555
N3E Co1D 1_555 1_555
C1 O2 1_555 1_555
C3 N3 1_555 1_555
C8 C9 1_555 1_555
N1 N2 1_555 1_555
C7G C9G 1_555 1_555
C8G C9G 1_555 1_555
O2G Co1G 1_555 1_555
C3D N2D 1_555 1_555
C3D N3D 1_555 1_555
N1D N2D 1_555 1_555

#END
