
#######################################################################
#
#                 Cambridge Crystallographic Data Centre
#                                CCDC 
#
#######################################################################
#
# If this CIF has been generated from an entry in the Cambridge 
# Structural Database, then it will include bibliographic, chemical, 
# crystal, experimental, refinement or atomic coordinate data resulting 
# from the CCDC's data processing and validation procedures.
#
#######################################################################

data_LIFSAW
_chemical_formula_moiety         '(C58 H46 B1 Cd3 F5 N11 O7 1+)n'
_symmetry_cell_setting           monoclinic
_symmetry_space_group_name_H-M   'C 2/c'
_symmetry_Int_Tables_number      15
_space_group_name_Hall           '-C 2yc'
loop_
_symmetry_equiv_pos_site_id
_symmetry_equiv_pos_as_xyz
1 x,y,z
2 -x,y,1/2-z
3 1/2+x,1/2+y,z
4 1/2-x,1/2+y,1/2-z
5 -x,-y,-z
6 x,-y,1/2+z
7 1/2-x,1/2-y,-z
8 1/2+x,1/2-y,1/2+z
_cell_length_a                   21.892(10)
_cell_length_b                   12.609(5)
_cell_length_c                   23.263(10)
_cell_angle_alpha                90
_cell_angle_beta                 102.894(7)
_cell_angle_gamma                90
_cell_volume                     6259.51
loop_
_atom_site_label
_atom_site_type_symbol
_atom_site_fract_x
_atom_site_fract_y
_atom_site_fract_z
Cd1 Cd 0.0000 0.40863(4) 0.2500
Cd2 Cd 0.094497(15) 0.67684(3) 0.265455(17)
O1 O 0.09957(16) 0.3926(3) 0.2438(2)
O2 O 0.15601(17) 0.5336(3) 0.2768(2)
O3 O 0.05068(16) 0.8352(3) 0.27186(19)
F1 F 0.0000 0.5904(3) 0.2500
N1 N 0.31472(19) 0.2734(4) 0.2416(2)
N2 N 0.0000 1.2199(4) 0.2500
N3 N 0.0249(2) 0.3967(3) 0.3542(2)
N4 N 0.0781(2) 0.3256(4) 0.6623(2)
N5 N 0.1357(2) 0.6979(4) 0.3691(2)
C1 C 0.1497(2) 0.4404(4) 0.2582(2)
C2 C 0.2073(2) 0.3825(4) 0.2526(3)
C3 C 0.2035(2) 0.2899(5) 0.2213(3)
H1 H 0.1645 0.2620 0.2034
C4 C 0.2577(2) 0.2380(4) 0.2166(3)
H2 H 0.2542 0.1755 0.1949
C5 C 0.3180(2) 0.3638(5) 0.2706(3)
H3 H 0.3575 0.3906 0.2875
C6 C 0.2668(2) 0.4202(5) 0.2773(3)
H4 H 0.2719 0.4835 0.2983
C7 C 0.0000 0.8803(6) 0.2500
C8 C 0.0000 0.9991(5) 0.2500
C9 C 0.0537(2) 1.0555(4) 0.2741(3)
H5 H 0.0906 1.0202 0.2909
C10 C 0.0520(3) 1.1644(4) 0.2728(3)
H6 H 0.0886 1.2015 0.2885
C11 C 0.0812(3) 0.3654(5) 0.3851(3)
H7 H 0.1133 0.3557 0.3653
C12 C 0.0933(3) 0.3469(5) 0.4447(3)
H8 H 0.1332 0.3257 0.4645
C13 C 0.0466(3) 0.3597(5) 0.4752(3)
C14 C -0.0108(3) 0.3904(6) 0.4433(3)
H9 H -0.0438 0.3989 0.4620
C15 C -0.0201(3) 0.4088(5) 0.3841(3)
H10 H -0.0596 0.4307 0.3637
C16 C 0.0585(3) 0.3430(5) 0.5398(3)
C17 C 0.1151(3) 0.3674(6) 0.5765(3)
H11 H 0.1479 0.3913 0.5605
C18 C 0.1238(3) 0.3569(5) 0.6359(3)
H12 H 0.1631 0.3722 0.6593
C19 C 0.0237(3) 0.2996(6) 0.6269(3)
H13 H -0.0081 0.2748 0.6440
C20 C 0.0118(3) 0.3072(6) 0.5667(3)
H14 H -0.0273 0.2885 0.5440
C21 C 0.1660(3) 0.6205(5) 0.4019(3)
H15 H 0.1569 0.5510 0.3895
C22 C 0.2103(3) 0.6372(5) 0.4536(3)
H16 H 0.2299 0.5796 0.4750
C23 C 0.2255(3) 0.7389(5) 0.4733(3)
C24 C 0.1925(3) 0.8180(5) 0.4394(3)
H17 H 0.1998 0.8883 0.4510
C25 C 0.1488(3) 0.7952(5) 0.3887(3)
H18 H 0.1275 0.8512 0.3671
O3A O -0.05068(16) 0.8352(3) 0.22814(19)
C9A C -0.0537(2) 1.0555(4) 0.2259(3)
H5A H -0.0906 1.0202 0.2091
C10A C -0.0520(3) 1.1644(4) 0.2272(3)
H6A H -0.0886 1.2015 0.2115
N5F N 0.3643(2) 0.8021(4) 0.6309(2)
C21F C 0.3340(3) 0.8795(5) 0.5981(3)
H15F H 0.3431 0.9490 0.6105
C22F C 0.2897(3) 0.8628(5) 0.5464(3)
H16F H 0.2701 0.9204 0.5250
C23F C 0.2745(3) 0.7611(5) 0.5267(3)
C24F C 0.3075(3) 0.6820(5) 0.5606(3)
H17F H 0.3002 0.6117 0.5490
C25F C 0.3512(3) 0.7048(5) 0.6113(3)
H18F H 0.3725 0.6488 0.6329
Cd2A Cd -0.094497(15) 0.67684(3) 0.234545(17)
O1A O -0.09957(16) 0.3926(3) 0.2562(2)
O2A O -0.15601(17) 0.5336(3) 0.2232(2)
N1A N -0.31472(19) 0.2734(4) 0.2584(2)
N3A N -0.0249(2) 0.3967(3) 0.1458(2)
N4A N -0.0781(2) 0.3256(4) -0.1623(2)
C1A C -0.1497(2) 0.4404(4) 0.2418(2)
C2A C -0.2073(2) 0.3825(4) 0.2474(3)
C3A C -0.2035(2) 0.2899(5) 0.2787(3)
H1A H -0.1645 0.2620 0.2966
C4A C -0.2577(2) 0.2380(4) 0.2834(3)
H2A H -0.2542 0.1755 0.3051
C5A C -0.3180(2) 0.3638(5) 0.2294(3)
H3A H -0.3575 0.3906 0.2125
C6A C -0.2668(2) 0.4202(5) 0.2227(3)
H4A H -0.2719 0.4835 0.2017
C11A C -0.0812(3) 0.3654(5) 0.1149(3)
H7A H -0.1133 0.3557 0.1347
C12A C -0.0933(3) 0.3469(5) 0.0553(3)
H8A H -0.1332 0.3257 0.0355
C13A C -0.0466(3) 0.3597(5) 0.0248(3)
C14A C 0.0108(3) 0.3904(6) 0.0567(3)
H9A H 0.0438 0.3989 0.0380
C15A C 0.0201(3) 0.4088(5) 0.1159(3)
H10A H 0.0596 0.4307 0.1363
C16A C -0.0585(3) 0.3430(5) -0.0398(3)
C17A C -0.1151(3) 0.3674(6) -0.0765(3)
H11A H -0.1479 0.3913 -0.0605
C18A C -0.1238(3) 0.3569(5) -0.1359(3)
H12A H -0.1631 0.3722 -0.1593
C19A C -0.0237(3) 0.2996(6) -0.1269(3)
H13A H 0.0081 0.2748 -0.1440
C20A C -0.0118(3) 0.3072(6) -0.0667(3)
H14A H 0.0273 0.2885 -0.0440
Cd1_2 Cd 0.0000 1.40863(4) 0.2500
Cd2B Cd -0.405503(15) 0.17684(3) 0.265455(17)
Cd2C Cd 0.405503(15) 0.17684(3) 0.234545(17)
Cd2D Cd -0.094497(15) 0.32316(3) -0.265455(17)
Cd2E Cd 0.094497(15) 0.32316(3) 0.765455(17)
Cd2F Cd 0.405503(15) 0.82316(3) 0.734545(17)
N1B N -0.18528(19) 0.7734(4) 0.2416(2)
N1C N 0.18528(19) 0.7734(4) 0.2584(2)
N2_2 N 0.0000 0.2199(4) 0.2500
N4D N -0.0781(2) 0.6744(4) 0.3377(2)
N4E N 0.0781(2) 0.6744(4) 0.1623(2)
N5A N -0.1357(2) 0.6979(4) 0.1309(2)
N6 N 0.3835(6) 0.5852(13) 0.3753(6)
C26 C 0.3690(7) 0.5240(14) 0.4159(7)
H19 H 0.3270 0.5058 0.4119
C27 C 0.4119(7) 0.4846(14) 0.4648(7)
H20 H 0.3994 0.4365 0.4902
C28 C 0.4763(4) 0.5199(7) 0.4749(4)
C29 C 0.4919(4) 0.5758(7) 0.4294(4)
H21 H 0.5337 0.5881 0.4293
C30 C 0.4455(6) 0.6136(9) 0.3839(4)
H22 H 0.4568 0.6610 0.3574
N6D N 0.6165(6) 0.4148(13) 0.6247(6)
C26D C 0.6310(7) 0.4760(14) 0.5841(7)
H19D H 0.6730 0.4942 0.5881
C27D C 0.5881(7) 0.5154(14) 0.5352(7)
H20D H 0.6006 0.5635 0.5098
C28D C 0.5237(4) 0.4801(7) 0.5251(4)
C29D C 0.5081(4) 0.4242(7) 0.5706(4)
H21D H 0.4663 0.4119 0.5707
C30D C 0.5545(6) 0.3864(9) 0.6161(4)
H22D H 0.5432 0.3390 0.6426
B1 B 0.2037(3) 0.1051(5) 0.3991(3)
F2 F 0.1461(3) 0.0912(12) 0.4086(6)
F3 F 0.2100(7) 0.2048(6) 0.3815(6)
F4 F 0.2471(3) 0.0844(11) 0.4485(4)
F5 F 0.2124(7) 0.0374(9) 0.3565(5)
O4 O 0.2512(6) 0.3856(8) 0.4276(5)
H25 H 0.2384 0.3259 0.4127
H26 H 0.2299 0.3878 0.4540
loop_
_geom_bond_atom_site_label_1
_geom_bond_atom_site_label_2
_geom_bond_site_symmetry_1
_geom_bond_site_symmetry_2
Cd1 O1 1_555 1_555
Cd2 O2 1_555 1_555
O1 C1 1_555 1_555
O2 C1 1_555 1_555
O3 Cd2 1_555 1_555
F1 Cd1 1_555 1_555
N1 C4 1_555 1_555
N2 C10 1_555 1_555
N3 Cd1 1_555 1_555
N4 C18 1_555 1_555
N5 Cd2 1_555 1_555
C1 C2 1_555 1_555
C2 C3 1_555 1_555
C3 H1 1_555 1_555
C4 C3 1_555 1_555
H2 C4 1_555 1_555
C5 N1 1_555 1_555
H3 C5 1_555 1_555
C6 C2 1_555 1_555
H4 C6 1_555 1_555
C7 O3 1_555 1_555
C8 C7 1_555 1_555
C9 C8 1_555 1_555
H5 C9 1_555 1_555
C10 C9 1_555 1_555
H6 C10 1_555 1_555
C11 N3 1_555 1_555
H7 C11 1_555 1_555
C12 C11 1_555 1_555
H8 C12 1_555 1_555
C13 C12 1_555 1_555
C14 C13 1_555 1_555
H9 C14 1_555 1_555
C15 N3 1_555 1_555
H10 C15 1_555 1_555
C16 C13 1_555 1_555
C17 C16 1_555 1_555
H11 C17 1_555 1_555
C18 C17 1_555 1_555
H12 C18 1_555 1_555
C19 N4 1_555 1_555
H13 C19 1_555 1_555
C20 C16 1_555 1_555
H14 C20 1_555 1_555
C21 N5 1_555 1_555
H15 C21 1_555 1_555
C22 C21 1_555 1_555
H16 C22 1_555 1_555
C23 C22 1_555 1_555
C24 C23 1_555 1_555
H17 C24 1_555 1_555
C25 N5 1_555 1_555
H18 C25 1_555 1_555
N6 C26 1_555 1_555
C26 H19 1_555 1_555
C27 C26 1_555 1_555
H20 C27 1_555 1_555
C28 C27 1_555 1_555
C29 C28 1_555 1_555
H21 C29 1_555 1_555
C30 N6 1_555 1_555
H22 C30 1_555 1_555
B1 F2 1_555 1_555
F3 B1 1_555 1_555
F4 B1 1_555 1_555
F5 B1 1_555 1_555
O4 H25 1_555 1_555
H26 O4 1_555 1_555
O3A C7 1_555 1_555
C9A C8 1_555 1_555
H5A C9A 1_555 1_555
C10A N2 1_555 1_555
H6A C10A 1_555 1_555
N5F C21F 1_555 1_555
C21F H15F 1_555 1_555
C22F C21F 1_555 1_555
H16F C22F 1_555 1_555
C23F C23 1_555 1_555
C24F C23F 1_555 1_555
H17F C24F 1_555 1_555
C25F N5F 1_555 1_555
H18F C25F 1_555 1_555
Cd2A F1 1_555 1_555
O1A Cd1 1_555 1_555
O2A Cd2A 1_555 1_555
N1A C4A 1_555 1_555
N3A Cd1 1_555 1_555
N4A C18A 1_555 1_555
C1A O1A 1_555 1_555
C2A C1A 1_555 1_555
C3A C2A 1_555 1_555
H1A C3A 1_555 1_555
C4A C3A 1_555 1_555
H2A C4A 1_555 1_555
C5A N1A 1_555 1_555
H3A C5A 1_555 1_555
C6A C2A 1_555 1_555
H4A C6A 1_555 1_555
C11A N3A 1_555 1_555
H7A C11A 1_555 1_555
C12A C11A 1_555 1_555
H8A C12A 1_555 1_555
C13A C12A 1_555 1_555
C14A C13A 1_555 1_555
H9A C14A 1_555 1_555
C15A N3A 1_555 1_555
H10A C15A 1_555 1_555
C16A C13A 1_555 1_555
C17A C16A 1_555 1_555
H11A C17A 1_555 1_555
C18A C17A 1_555 1_555
H12A C18A 1_555 1_555
C19A N4A 1_555 1_555
H13A C19A 1_555 1_555
C20A C16A 1_555 1_555
H14A C20A 1_555 1_555
Cd1_2 N2 1_555 1_555
Cd2B N1A 1_555 1_555
Cd2C N1 1_555 1_555
Cd2D N4A 1_555 1_555
Cd2E N4 1_555 1_555
Cd2F N5F 1_555 1_555
N1B Cd2A 1_555 1_555
N1C Cd2 1_555 1_555
N2_2 Cd1 1_555 1_555
N4D Cd2A 1_555 1_555
N4E Cd2 1_555 1_555
N5A Cd2A 1_555 1_555
N6D C26D 1_555 1_555
C26D H19D 1_555 1_555
C27D C26D 1_555 1_555
H20D C27D 1_555 1_555
C28D C28 1_555 1_555
C29D C28D 1_555 1_555
H21D C29D 1_555 1_555
C30D N6D 1_555 1_555
H22D C30D 1_555 1_555
Cd2 F1 1_555 1_555
C5 C6 1_555 1_555
C14 C15 1_555 1_555
C19 C20 1_555 1_555
C24 C25 1_555 1_555
C29 C30 1_555 1_555
O3A Cd2A 1_555 1_555
C9A C10A 1_555 1_555
C22F C23F 1_555 1_555
C24F C25F 1_555 1_555
O2A C1A 1_555 1_555
C5A C6A 1_555 1_555
C14A C15A 1_555 1_555
C19A C20A 1_555 1_555
C27D C28D 1_555 1_555
C29D C30D 1_555 1_555

#END
