
#######################################################################
#
#                 Cambridge Crystallographic Data Centre
#                                CCDC 
#
#######################################################################
#
# If this CIF has been generated from an entry in the Cambridge 
# Structural Database, then it will include bibliographic, chemical, 
# crystal, experimental, refinement or atomic coordinate data resulting 
# from the CCDC's data processing and validation procedures.
#
#######################################################################

data_ORAJOH
_chemical_formula_moiety         'C10 H7 K4 Lu1 N13 O9 Re4 S4 1+'
_symmetry_cell_setting           orthorhombic
_symmetry_space_group_name_H-M   'C m c m'
_symmetry_Int_Tables_number      63
_space_group_name_Hall           '-C 2c 2'
loop_
_symmetry_equiv_pos_site_id
_symmetry_equiv_pos_as_xyz
1 x,y,z
2 -x,-y,1/2+z
3 x,-y,-z
4 -x,y,1/2-z
5 1/2+x,1/2+y,z
6 1/2-x,1/2-y,1/2+z
7 1/2+x,1/2-y,-z
8 1/2-x,1/2+y,1/2-z
9 -x,-y,-z
10 x,y,1/2-z
11 -x,y,z
12 x,-y,1/2+z
13 1/2-x,1/2-y,-z
14 1/2+x,1/2+y,1/2-z
15 1/2-x,1/2+y,z
16 1/2+x,1/2-y,1/2+z
_cell_length_a                   14.4066(7)
_cell_length_b                   21.3330(10)
_cell_length_c                   20.6320(9)
_cell_angle_alpha                90
_cell_angle_beta                 90
_cell_angle_gamma                90
_cell_volume                     6340.96
loop_
_atom_site_label
_atom_site_type_symbol
_atom_site_fract_x
_atom_site_fract_y
_atom_site_fract_z
O2 O -0.3097(11) 0.5485(6) 0.2500
O3 O -0.5000 0.4556(12) 0.3137(12)
Re1 Re -0.095788(15) -0.361176(10) 0.441221(10)
Re2 Re -0.0000 -0.251066(14) 0.420612(14)
Re3 Re -0.0000 -0.305978(14) 0.541387(14)
S1 S 0.0000 -0.33877(9) 0.35119(10)
S2 S 0.0000 -0.41604(9) 0.51719(9)
S3 S -0.13036(9) -0.26275(7) 0.48888(7)
Lu1 Lu 0.26261(2) -0.142701(15) 0.2500
K1 K -0.41242(2) -0.500000(15) 0.5000
O4 O 0.3783(5) -0.0682(3) 0.2500
O5 O 0.3170(5) -0.2438(3) 0.2500
N1 N 0.1485(4) -0.1911(2) 0.3195(3)
O6 O 0.2016(4) -0.0665(2) 0.3193(2)
C1 C 0.0961(4) -0.2135(3) 0.3547(3)
N2 N 0.3521(4) -0.1586(3) 0.1535(2)
C2 C 0.0000 -0.1579(4) 0.4516(4)
C3 C 0.0000 -0.2220(4) 0.5951(5)
C4 C 0.0955(4) -0.3307(3) 0.6142(3)
C5 C -0.1119(5) -0.4486(3) 0.3940(3)
C6 C -0.2057(5) -0.3955(3) 0.4988(3)
N3 N 0.0000 -0.1770(5) 0.6251(5)
C7 C -0.2081(5) -0.3408(3) 0.3794(3)
N4 N -0.1190(5) -0.4938(3) 0.3651(3)
N5 N -0.2648(5) -0.4153(4) 0.5293(4)
N6 N -0.2689(5) -0.3296(3) 0.3459(3)
N7 N 0.0000 -0.1054(4) 0.4651(6)
O7 O -0.4070 -0.5472 0.6096
Re1J Re 0.095788(15) -0.361176(10) 0.441221(10)
S3J S 0.13036(9) -0.26275(7) 0.48888(7)
K1H K -0.58758(2) -0.500000(15) 0.5000
K1L K -0.08758(2) 0.000000(15) 0.5000
K1D K 0.08758(2) 0.000000(15) 0.5000
N1I N 0.1485(4) -0.1911(2) 0.1805(3)
O6I O 0.2016(4) -0.0665(2) 0.1807(2)
C1J C -0.0961(4) -0.2135(3) 0.3547(3)
N2I N 0.3521(4) -0.1586(3) 0.3465(2)
N2E N 0.1479(4) -0.3414(3) 0.6535(2)
C4J C -0.0955(4) -0.3307(3) 0.6142(3)
C4E C 0.4045(4) -0.1693(3) 0.1142(3)
N5B N -0.2648(5) -0.5847(4) 0.4707(4)
N7F N -0.5000 -0.3946(4) 0.5349(6)
N7D N -0.5000 -0.6054(4) 0.4651(6)
O7B O -0.4070 -0.4528 0.3904
O1 O 0.0000 0.1156(10) 0.2500
loop_
_geom_bond_atom_site_label_1
_geom_bond_atom_site_label_2
_geom_bond_site_symmetry_1
_geom_bond_site_symmetry_2
Re1 Re2 1_555 1_555
Re2 Re3 1_555 1_555
Re3 Re1 1_555 1_555
S1 Re1 1_555 1_555
S2 Re1 1_555 1_555
S3 Re1 1_555 1_555
Lu1 O4 1_555 1_555
K1 N5 1_555 1_555
O5 Lu1 1_555 1_555
N1 Lu1 1_555 1_555
O6 Lu1 1_555 1_555
C1 Re2 1_555 1_555
N2 Lu1 1_555 1_555
C2 Re2 1_555 1_555
C3 Re3 1_555 1_555
C4 Re3 1_555 1_555
C5 Re1 1_555 1_555
C6 Re1 1_555 1_555
N3 C3 1_555 1_555
C7 Re1 1_555 1_555
N4 C5 1_555 1_555
N5 C6 1_555 1_555
N6 C7 1_555 1_555
N7 C2 1_555 1_555
O7 K1 1_555 1_555
Re1J Re1 1_555 1_555
S3J Re2 1_555 1_555
K1H K1 1_555 1_555
K1L N7 1_555 1_555
K1D N7 1_555 1_555
N1I Lu1 1_555 1_555
O6I Lu1 1_555 1_555
C1J Re2 1_555 1_555
N2I Lu1 1_555 1_555
N2E C4 1_555 1_555
C4J Re3 1_555 1_555
C4E N2 1_555 1_555
N5B K1 1_555 1_555
N7F K1 1_555 1_555
N7D K1 1_555 1_555
O7B K1 1_555 1_555
Re2 S1 1_555 1_555
Re2 S3 1_555 1_555
Re2 Re1J 1_555 1_555
Re3 S2 1_555 1_555
Re3 S3 1_555 1_555
Re3 Re1J 1_555 1_555
Re3 S3J 1_555 1_555
S1 Re1J 1_555 1_555
S2 Re1J 1_555 1_555
N1 C1 1_555 1_555
Re1J S3J 1_555 1_555
K1H N7F 1_555 1_555
K1H N7D 1_555 1_555
K1L K1D 1_555 1_555

#END
