
#######################################################################
#
#                 Cambridge Crystallographic Data Centre
#                                CCDC 
#
#######################################################################
#
# If this CIF has been generated from an entry in the Cambridge 
# Structural Database, then it will include bibliographic, chemical, 
# crystal, experimental, refinement or atomic coordinate data resulting 
# from the CCDC's data processing and validation procedures.
#
#######################################################################

data_ORAKUO
_chemical_formula_moiety         'C27 H7 K6 N29 O15 Re17 S14 Yb4 1+'
_symmetry_cell_setting           orthorhombic
_symmetry_space_group_name_H-M   'C m c m'
_symmetry_Int_Tables_number      63
_space_group_name_Hall           '-C 2c 2'
loop_
_symmetry_equiv_pos_site_id
_symmetry_equiv_pos_as_xyz
1 x,y,z
2 -x,-y,1/2+z
3 x,-y,-z
4 -x,y,1/2-z
5 1/2+x,1/2+y,z
6 1/2-x,1/2-y,1/2+z
7 1/2+x,1/2-y,-z
8 1/2-x,1/2+y,1/2-z
9 -x,-y,-z
10 x,y,1/2-z
11 -x,y,z
12 x,-y,1/2+z
13 1/2-x,1/2-y,-z
14 1/2+x,1/2+y,1/2-z
15 1/2-x,1/2+y,z
16 1/2+x,1/2-y,1/2+z
_cell_length_a                   14.4751(5)
_cell_length_b                   21.3554(9)
_cell_length_c                   20.6114(6)
_cell_angle_alpha                90
_cell_angle_beta                 90
_cell_angle_gamma                90
_cell_volume                     6371.43
loop_
_atom_site_label
_atom_site_type_symbol
_atom_site_fract_x
_atom_site_fract_y
_atom_site_fract_z
O2 O -0.0000 0.1144(14) 0.2500
O3 O 0.5000 0.4557(19) 0.3129(17)
Re1 Re 0.0000 -0.30557(2) 0.54158(2)
Re2 Re -0.09531(2) -0.360597(16) 0.441302(15)
Re3 Re 0.0000 -0.25067(2) 0.42075(2)
Yb1 Yb -0.23754(3) -0.35749(2) 0.7500
S1 S -0.13031(13) -0.26210(10) 0.48913(9)
S2 S 0.0000 -0.41523(14) 0.51731(12)
S3 S 0.0000 -0.33832(15) 0.35081(14)
O4 O -0.1226(7) -0.4316(4) 0.7500
O5 O -0.2983(5) -0.4334(3) 0.8201(3)
O6 O -0.1852(6) -0.2561(4) 0.7500
N1 N -0.1478(5) -0.3416(4) 0.6539(3)
N2 N 0.0000 -0.1782(7) 0.6267(7)
N3 N -0.2628(7) -0.4139(5) 0.5310(5)
N4 N -0.1186(7) -0.4926(4) 0.3652(4)
N5 N -0.2679(6) -0.3297(5) 0.3459(5)
N6 N -0.1491(5) -0.1908(4) 0.3202(4)
N7 N 0.0000 -0.1055(7) 0.4654(8)
C1 C -0.0960(6) -0.3297(4) 0.6143(4)
C2 C 0.0000 -0.2211(6) 0.5957(7)
C3 C -0.2047(6) -0.3955(5) 0.4991(4)
C4 C -0.1122(7) -0.4480(5) 0.3940(4)
C5 C -0.2066(7) -0.3408(5) 0.3798(4)
C6 C -0.0955(6) -0.2123(4) 0.3547(4)
C7 C 0.0000 -0.1565(6) 0.4515(6)
K1 K -0.4063(7) -0.5000 0.5000
O7 O -0.407(2) -0.4566(12) 0.3984(16)
Re1C Re 0.0000 -0.30557(2) 0.95842(2)
Re1E Re -0.5000 -0.19443(2) 1.04158(2)
Re1B Re 0.0000 -0.69443(2) 0.45842(2)
Re2J Re 0.09531(2) -0.360597(16) 0.441302(15)
Re2E Re -0.40469(2) -0.139403(16) 0.941302(15)
Re2B Re -0.09531(2) -0.639403(16) 0.558698(15)
Re2I Re -0.09531(2) -0.360597(16) 1.058698(15)
Re2C Re 0.09531(2) -0.360597(16) 1.058698(15)
Re2O Re -0.59531(2) -0.139403(16) 0.941302(15)
Re2H Re 0.09531(2) -0.639403(16) 0.558698(15)
Re3E Re -0.5000 -0.24933(2) 0.92075(2)
Re3F Re -0.5000 -0.24933(2) 0.57925(2)
Re3C Re 0.0000 -0.25067(2) 1.07925(2)
Re3B Re 0.0000 -0.74933(2) 0.57925(2)
Yb1C Yb 0.23754(3) -0.35749(2) 0.7500
Yb1E Yb -0.26246(3) -0.14251(2) 0.2500
Yb1F Yb 0.26246(3) -0.14251(2) 0.2500
S1J S 0.13031(13) -0.26210(10) 0.48913(9)
S1I S -0.13031(13) -0.26210(10) 1.01087(9)
S1C S 0.13031(13) -0.26210(10) 1.01087(9)
S1E S -0.36969(13) -0.23790(10) 0.98913(9)
S1O S -0.63031(13) -0.23790(10) 0.98913(9)
S1B S -0.13031(13) -0.73790(10) 0.51087(9)
S2C S 0.0000 -0.41523(14) 0.98269(12)
S2E S -0.5000 -0.08477(14) 1.01731(12)
S2B S 0.0000 -0.58477(14) 0.48269(12)
S3E S -0.5000 -0.16168(15) 0.85081(14)
S3B S 0.0000 -0.66168(15) 0.64919(14)
O4C O 0.1226(7) -0.4316(4) 0.7500
O5I O -0.2983(5) -0.4334(3) 0.6799(3)
O5J O 0.2983(5) -0.4334(3) 0.8201(3)
O5C O 0.2983(5) -0.4334(3) 0.6799(3)
O6C O 0.1852(6) -0.2561(4) 0.7500
N1J N 0.1478(5) -0.3416(4) 0.6539(3)
N1I N -0.1478(5) -0.3416(4) 0.8461(3)
N1C N 0.1478(5) -0.3416(4) 0.8461(3)
N2C N 0.0000 -0.1782(7) 0.8733(7)
N3J N 0.2628(7) -0.4139(5) 0.5310(5)
N3B N -0.2628(7) -0.5861(5) 0.4690(5)
N3H N 0.2628(7) -0.5861(5) 0.4690(5)
N4J N 0.1186(7) -0.4926(4) 0.3652(4)
N4E N -0.3814(7) -0.0074(4) 0.8652(4)
N4B N -0.1186(7) -0.5074(4) 0.6348(4)
N5J N 0.2679(6) -0.3297(5) 0.3459(5)
N5E N -0.2321(6) -0.1703(5) 0.8459(5)
N5B N -0.2679(6) -0.6703(5) 0.6541(5)
N6J N 0.1491(5) -0.1908(4) 0.3202(4)
N6E N -0.3509(5) -0.3092(4) 0.8202(4)
N6L N -0.3509(5) -0.3092(4) 0.6798(4)
N6O N 0.3509(5) -0.3092(4) 0.8202(4)
N6F N 0.3509(5) -0.3092(4) 0.6798(4)
N7F N -0.5000 -0.3945(7) 0.5346(8)
N7D N -0.5000 -0.6055(7) 0.4654(8)
N7F_2 N 0.5000 -0.3945(7) 0.5346(8)
N7D_2 N 0.5000 -0.6055(7) 0.4654(8)
C1J C 0.0960(6) -0.3297(4) 0.6143(4)
C1I C -0.0960(6) -0.3297(4) 0.8857(4)
C1C C 0.0960(6) -0.3297(4) 0.8857(4)
C2C C 0.0000 -0.2211(6) 0.9043(7)
C3J C 0.2047(6) -0.3955(5) 0.4991(4)
C3B C -0.2047(6) -0.6045(5) 0.5009(4)
C3H C 0.2047(6) -0.6045(5) 0.5009(4)
C3E C -0.2953(6) -0.1045(5) 0.9991(4)
C4J C 0.1122(7) -0.4480(5) 0.3940(4)
C4E C -0.3878(7) -0.0520(5) 0.8940(4)
C4B C -0.1122(7) -0.5520(5) 0.6060(4)
C5J C 0.2066(7) -0.3408(5) 0.3798(4)
C5E C -0.2934(7) -0.1592(5) 0.8798(4)
C5B C -0.2066(7) -0.6592(5) 0.6202(4)
C6J C 0.0955(6) -0.2123(4) 0.3547(4)
C6E C -0.4045(6) -0.2877(4) 0.8547(4)
C6L C -0.4045(6) -0.2877(4) 0.6453(4)
C6O C -0.5955(6) -0.2877(4) 0.8547(4)
C7F C -0.5000 -0.3435(6) 0.5485(6)
C7E C -0.5000 -0.3435(6) 0.9515(6)
K1H K 0.4063(7) -0.5000 0.5000
K1L K -0.0937(7) 0.0000 0.5000
K1D K 0.0937(7) 0.0000 0.5000
K1H_2 K -0.5937(7) -0.5000 0.5000
K1_2 K 0.5937(7) -0.5000 0.5000
O7B O -0.407(2) -0.5434(12) 0.6016(16)
O7J O 0.407(2) -0.4566(12) 0.3984(16)
O7H O 0.407(2) -0.5434(12) 0.6016(16)
O1 O 0.3097(19) 0.5522(10) 0.2500
loop_
_geom_bond_atom_site_label_1
_geom_bond_atom_site_label_2
_geom_bond_site_symmetry_1
_geom_bond_site_symmetry_2
Re1 Re2 1_555 1_555
Re2 Re3 1_555 1_555
Re3 Re1 1_555 1_555
Yb1 O4 1_555 1_555
S1 Re1 1_555 1_555
S2 Re1 1_555 1_555
S3 Re2 1_555 1_555
O5 Yb1 1_555 1_555
O6 Yb1 1_555 1_555
N1 Yb1 1_555 1_555
N2 C2 1_555 1_555
N3 C3 1_555 1_555
N4 C4 1_555 1_555
N5 C5 1_555 1_555
N6 C6 1_555 1_555
N7 C7 1_555 1_555
C1 Re1 1_555 1_555
C2 Re1 1_555 1_555
C3 Re2 1_555 1_555
C4 Re2 1_555 1_555
C5 Re2 1_555 1_555
C6 Re3 1_555 1_555
C7 Re3 1_555 1_555
K1 N3 1_555 1_555
O7 K1 1_555 1_555
Re1C Re2I 1_555 1_555
Re1E Re2E 1_555 1_555
Re1B Re2B 1_555 1_555
Re2J Re1 1_555 1_555
Re2E Re2O 1_555 1_555
Re2B Re2H 1_555 1_555
Re2I Re2C 1_555 1_555
Re2C Re1C 1_555 1_555
Re2O Re1E 1_555 1_555
Re2H Re1B 1_555 1_555
Re3E Re1E 1_555 1_555
Re3F C6L 1_555 1_555
Re3C Re1C 1_555 1_555
Re3B Re1B 1_555 1_555
Yb1C O4C 1_555 1_555
Yb1E N6 1_555 1_555
Yb1F N6J 1_555 1_555
S1J Re1 1_555 1_555
S1I Re1C 1_555 1_555
S1C Re1C 1_555 1_555
S1E Re1E 1_555 1_555
S1O Re1E 1_555 1_555
S1B Re1B 1_555 1_555
S2C Re1C 1_555 1_555
S2E Re1E 1_555 1_555
S2B Re1B 1_555 1_555
S3E Re2E 1_555 1_555
S3B Re2B 1_555 1_555
O5I Yb1 1_555 1_555
O5J Yb1C 1_555 1_555
O5C Yb1C 1_555 1_555
O6C Yb1C 1_555 1_555
N1J Yb1C 1_555 1_555
N1I Yb1 1_555 1_555
N1C Yb1C 1_555 1_555
N2C C2C 1_555 1_555
N3J C3J 1_555 1_555
N3B K1 1_555 1_555
N3H C3H 1_555 1_555
N4J C4J 1_555 1_555
N4E C4E 1_555 1_555
N4B C4B 1_555 1_555
N5J C5J 1_555 1_555
N5E C5E 1_555 1_555
N5B C5B 1_555 1_555
N6J C6J 1_555 1_555
N6E Yb1 1_555 1_555
N6L Yb1 1_555 1_555
N6O Yb1C 1_555 1_555
N6F Yb1C 1_555 1_555
N7F K1 1_555 1_555
N7D K1 1_555 1_555
N7F_2 K1H 1_555 1_555
N7D_2 K1H 1_555 1_555
C1J Re1 1_555 1_555
C1I Re1C 1_555 1_555
C1C Re1C 1_555 1_555
C2C Re1C 1_555 1_555
C3J Re2J 1_555 1_555
C3B Re2B 1_555 1_555
C3H Re2H 1_555 1_555
C3E Re2E 1_555 1_555
C4J Re2J 1_555 1_555
C4E Re2E 1_555 1_555
C4B Re2B 1_555 1_555
C5J Re2J 1_555 1_555
C5E Re2E 1_555 1_555
C5B Re2B 1_555 1_555
C6J Re3 1_555 1_555
C6E Re3E 1_555 1_555
C6L N6L 1_555 1_555
C6O Re3E 1_555 1_555
C7F Re3F 1_555 1_555
C7E Re3E 1_555 1_555
K1H N3J 1_555 1_555
K1L N7 1_555 1_555
K1D N7 1_555 1_555
K1H_2 K1 1_555 1_555
K1_2 N7F_2 1_555 1_555
O7B K1 1_555 1_555
O7J K1H 1_555 1_555
O7H K1H 1_555 1_555
Re2 S1 1_555 1_555
Re2 S2 1_555 1_555
Re2 Re2J 1_555 1_555
Re3 S1 1_555 1_555
Re3 S3 1_555 1_555
Re3 Re2J 1_555 1_555
Re3 S1J 1_555 1_555
S2 Re2J 1_555 1_555
S3 Re2J 1_555 1_555
N1 C1 1_555 1_555
Re2J S1J 1_555 1_555
Re2E Re3E 1_555 1_555
Re2E S1E 1_555 1_555
Re2E S2E 1_555 1_555
Re2B Re3B 1_555 1_555
Re2B S1B 1_555 1_555
Re2B S2B 1_555 1_555
Re2I Re3C 1_555 1_555
Re2I S1I 1_555 1_555
Re2I S2C 1_555 1_555
Re2C Re3C 1_555 1_555
Re2C S1C 1_555 1_555
Re2C S2C 1_555 1_555
Re2O Re3E 1_555 1_555
Re2O S1O 1_555 1_555
Re2O S2E 1_555 1_555
Re2O S3E 1_555 1_555
Re2H Re3B 1_555 1_555
Re2H S2B 1_555 1_555
Re2H S3B 1_555 1_555
Re3E S1E 1_555 1_555
Re3E S1O 1_555 1_555
Re3E S3E 1_555 1_555
Re3C S1I 1_555 1_555
Re3C S1C 1_555 1_555
Re3B S1B 1_555 1_555
Re3B S3B 1_555 1_555
N1J C1J 1_555 1_555
N1I C1I 1_555 1_555
N1C C1C 1_555 1_555
N3B C3B 1_555 1_555
N3H K1H 1_555 1_555
N6E C6E 1_555 1_555
N7F C7F 1_555 1_555
N7F K1H_2 1_555 1_555
N7D K1H_2 1_555 1_555
N7D_2 K1_2 1_555 1_555
K1H K1_2 1_555 1_555
K1L K1D 1_555 1_555

#END
