
#######################################################################
#
#                 Cambridge Crystallographic Data Centre
#                                CCDC 
#
#######################################################################
#
# If this CIF has been generated from an entry in the Cambridge 
# Structural Database, then it will include bibliographic, chemical, 
# crystal, experimental, refinement or atomic coordinate data resulting 
# from the CCDC's data processing and validation procedures.
#
#######################################################################

data_ORAKAU
_chemical_formula_moiety         'C24 H7 K2 N24 O15 Re12 S11 Tb2 1+'
_symmetry_cell_setting           orthorhombic
_symmetry_space_group_name_H-M   'C m c m'
_symmetry_Int_Tables_number      63
_space_group_name_Hall           '-C 2c 2'
loop_
_symmetry_equiv_pos_site_id
_symmetry_equiv_pos_as_xyz
1 x,y,z
2 -x,-y,1/2+z
3 x,-y,-z
4 -x,y,1/2-z
5 1/2+x,1/2+y,z
6 1/2-x,1/2-y,1/2+z
7 1/2+x,1/2-y,-z
8 1/2-x,1/2+y,1/2-z
9 -x,-y,-z
10 x,y,1/2-z
11 -x,y,z
12 x,-y,1/2+z
13 1/2-x,1/2-y,-z
14 1/2+x,1/2+y,1/2-z
15 1/2-x,1/2+y,z
16 1/2+x,1/2-y,1/2+z
_cell_length_a                   14.4098(3)
_cell_length_b                   21.2942(5)
_cell_length_c                   20.9128(4)
_cell_angle_alpha                90
_cell_angle_beta                 90
_cell_angle_gamma                90
_cell_volume                     6416.99
loop_
_atom_site_label
_atom_site_type_symbol
_atom_site_fract_x
_atom_site_fract_y
_atom_site_fract_z
_atom_site_U_iso_or_equiv
_atom_site_thermal_displace_type
O2 O 0.3162(12) 0.5521(7) 0.2500 0.1457 Uani
O3 O -0.0000 -0.0409(12) 0.3135(11) 0.1057 Uani
Re1 Re 0.0000 -0.305949(15) 0.540501(14) 0.0170 Uani
Re2 Re -0.095716(16) -0.360759(10) 0.441410(11) 0.0187 Uani
Re3 Re 0.0000 -0.250484(14) 0.421654(15) 0.0152 Uani
Tb1 Tb -0.23720(3) -0.359192(18) 0.7500 0.0170 Uani
S1 S -0.0000 -0.33789(10) 0.35266(10) 0.0220 Uani
S2 S -0.13023(10) -0.26240(7) 0.48887(7) 0.0213 Uani
S3 S 0.0000 -0.41602(9) 0.51618(9) 0.0155 Uani
O4 O -0.1815(5) -0.2547(3) 0.7500 0.0300 Uani
O5 O -0.2990(4) -0.4378(2) 0.8204(3) 0.0513 Uani
O6 O -0.1202(5) -0.4352(3) 0.7500 0.0353 Uani
O7 O -0.0872(10) 0.0444(7) 0.3927(8) 0.0890 Uani
N1 N -0.1468(4) -0.3426(3) 0.6521(3) 0.0320 Uani
N2 N 0.0000 -0.1785(5) 0.6240(5) 0.0540 Uani
N3 N -0.2683(5) -0.3287(4) 0.3463(4) 0.0570 Uani
N4 N -0.1194(6) -0.4925(3) 0.3656(4) 0.0613 Uani
N5 N -0.2674(5) -0.4169(5) 0.5245(5) 0.0813 Uani
N6 N -0.0000 -0.1049(5) 0.4639(5) 0.0883 Uani
N7 N -0.1469(4) -0.1906(3) 0.3210(3) 0.0310 Uani
C1 C -0.0955(4) -0.3305(3) 0.6119(3) 0.0260 Uani
C2 C -0.0000 -0.2220(4) 0.5942(5) 0.0330 Uani
C3 C -0.2074(5) -0.3406(3) 0.3793(3) 0.0337 Uani
C4 C -0.1120(6) -0.4482(3) 0.3942(4) 0.0407 Uani
C5 C -0.2071(5) -0.3964(3) 0.4973(4) 0.0353 Uani
C6 C 0.0000 -0.1576(4) 0.4515(5) 0.0343 Uani
C7 C -0.0950(4) -0.2124(3) 0.3562(3) 0.0227 Uani
K1 K -0.0857(3) 0.0000 0.5000 0.0377 Uani
Re1C Re 0.0000 -0.305949(15) 0.959499(14) 0.0170 Uani
Re1B Re -0.0000 0.305949(15) 0.459499(14) 0.0170 Uani
Re2J Re 0.095716(16) -0.360759(10) 0.441410(11) 0.0187 Uani
Re2I Re -0.095716(16) -0.360759(10) 1.058590(11) 0.0187 Uani
Re2C Re 0.095716(16) -0.360759(10) 1.058590(11) 0.0187 Uani
Re2B Re -0.095716(16) 0.360759(10) 0.558590(11) 0.0187 Uani
Re2H Re 0.095716(16) 0.360759(10) 0.558590(11) 0.0187 Uani
Re3B Re 0.0000 0.250484(14) 0.578346(15) 0.0152 Uani
Re3C Re 0.0000 -0.250484(14) 1.078346(15) 0.0152 Uani
Tb1C Tb 0.23720(3) -0.359192(18) 0.7500 0.0170 Uani
S1B S 0.0000 0.33789(10) 0.64734(10) 0.0220 Uani
S1C S 0.0000 -0.33789(10) 1.14734(10) 0.0220 Uani
S2J S 0.13023(10) -0.26240(7) 0.48887(7) 0.0213 Uani
S2I S -0.13023(10) -0.26240(7) 1.01113(7) 0.0213 Uani
S2C S 0.13023(10) -0.26240(7) 1.01113(7) 0.0213 Uani
S2B S -0.13023(10) 0.26240(7) 0.51113(7) 0.0213 Uani
S2H S 0.13023(10) 0.26240(7) 0.51113(7) 0.0213 Uani
S3C S 0.0000 -0.41602(9) 0.98382(9) 0.0155 Uani
O4C O 0.1815(5) -0.2547(3) 0.7500 0.0300 Uani
O5I O -0.2990(4) -0.4378(2) 0.6796(3) 0.0513 Uani
O5J O 0.2990(4) -0.4378(2) 0.8204(3) 0.0513 Uani
O5C O 0.2990(4) -0.4378(2) 0.6796(3) 0.0513 Uani
O6C O 0.1202(5) -0.4352(3) 0.7500 0.0353 Uani
O7B O -0.0872(10) -0.0444(7) 0.6073(8) 0.0890 Uani
O7H O 0.0872(10) -0.0444(7) 0.6073(8) 0.0890 Uani
O7J O 0.0872(10) 0.0444(7) 0.3927(8) 0.0890 Uani
N1J N 0.1468(4) -0.3426(3) 0.6521(3) 0.0320 Uani
N1I N -0.1468(4) -0.3426(3) 0.8479(3) 0.0320 Uani
N1C N 0.1468(4) -0.3426(3) 0.8479(3) 0.0320 Uani
N2C N -0.0000 -0.1785(5) 0.8760(5) 0.0540 Uani
N3J N 0.2683(5) -0.3287(4) 0.3463(4) 0.0570 Uani
N3I N -0.2683(5) -0.3287(4) 1.1537(4) 0.0570 Uani
N3C N 0.2683(5) -0.3287(4) 1.1537(4) 0.0570 Uani
N4J N 0.1194(6) -0.4925(3) 0.3656(4) 0.0613 Uani
N4I N -0.1194(6) -0.4925(3) 1.1344(4) 0.0613 Uani
N4C N 0.1194(6) -0.4925(3) 1.1344(4) 0.0613 Uani
N5J N 0.2674(5) -0.4169(5) 0.5245(5) 0.0813 Uani
N5I N -0.2674(5) -0.4169(5) 0.9755(5) 0.0813 Uani
N5C N 0.2674(5) -0.4169(5) 0.9755(5) 0.0813 Uani
N6B N -0.0000 0.1049(5) 0.5361(5) 0.0883 Uani
N7J N 0.1469(4) -0.1906(3) 0.3210(3) 0.0310 Uani
N7B N -0.1469(4) 0.1906(3) 0.6790(3) 0.0310 Uani
N7H N 0.1469(4) 0.1906(3) 0.6790(3) 0.0310 Uani
C1J C 0.0955(4) -0.3305(3) 0.6119(3) 0.0260 Uani
C1I C -0.0955(4) -0.3305(3) 0.8881(3) 0.0260 Uani
C1C C 0.0955(4) -0.3305(3) 0.8881(3) 0.0260 Uani
C2C C 0.0000 -0.2220(4) 0.9058(5) 0.0330 Uani
C3J C 0.2074(5) -0.3406(3) 0.3793(3) 0.0337 Uani
C3I C -0.2074(5) -0.3406(3) 1.1207(3) 0.0337 Uani
C3C C 0.2074(5) -0.3406(3) 1.1207(3) 0.0337 Uani
C4J C 0.1120(6) -0.4482(3) 0.3942(4) 0.0407 Uani
C4I C -0.1120(6) -0.4482(3) 1.1058(4) 0.0407 Uani
C4C C 0.1120(6) -0.4482(3) 1.1058(4) 0.0407 Uani
C5J C 0.2071(5) -0.3964(3) 0.4973(4) 0.0353 Uani
C5I C -0.2071(5) -0.3964(3) 1.0027(4) 0.0353 Uani
C5C C 0.2071(5) -0.3964(3) 1.0027(4) 0.0353 Uani
C6B C 0.0000 0.1576(4) 0.5485(5) 0.0343 Uani
C7J C 0.0950(4) -0.2124(3) 0.3562(3) 0.0227 Uani
C7B C -0.0950(4) 0.2124(3) 0.6438(3) 0.0227 Uani
C7H C 0.0950(4) 0.2124(3) 0.6438(3) 0.0227 Uani
K1H K 0.0857(3) 0.0000 0.5000 0.0377 Uani
O1 O 0.0000 0.1183(8) 0.2500 0.0923 Uani
loop_
_atom_site_aniso_label
_atom_site_aniso_U_11
_atom_site_aniso_U_22
_atom_site_aniso_U_33
_atom_site_aniso_U_23
_atom_site_aniso_U_13
_atom_site_aniso_U_12
O2 0.149(7) 0.139(7) 0.149(7) 0.000 0.000 0.001(5)
O3 0.102(9) 0.108(9) 0.107(9) 0.005(5) 0.000 0.000
Re1 0.02066 0.01778 0.01267 -8e-05 0 0
Re2 0.02036 0.01798 0.0177 0.00228 -0.00329 -0.004
Re3 0.01675 0.01437 0.0146 0.00132 0 0
Tb1 0.0189 0.0183 0.0138 0 0 0.00314
S1 0.0276 0.0193 0.0191 0 0 0
S2 0.0181 0.0271 0.0188 0.0055 0.0017 0.0012
S3 0.0149 0.0171 0.0146 -0.0044 0 0
O4 0.043 0.022 0.025 0 0 -0.001
O5 0.06 0.034 0.06 0.019 0.021 -0.004
O6 0.048 0.025 0.033 0 0 0.014
O7 0.098 0.083 0.086 -0.005 -0.002 -0.006
N1 0.039 0.031 0.026 0.001 0.013 0.01
N2 0.076 0.039 0.047 -0.011 0 0
N3 0.047 0.056 0.068 0.023 -0.031 -0.019
N4 0.094 0.033 0.057 -0.01 -0.018 -0.011
N5 0.042 0.098 0.104 0.053 0.016 -0.006
N6 0.193 0.019 0.053 0.003 0 0
N7 0.031 0.032 0.03 0.006 -0.007 0.002
C1 0.034 0.021 0.023 -0.004 0.002 0.004
C2 0.046 0.024 0.029 -0.001 0 0
C3 0.033 0.03 0.038 0.013 -0.009 -0.009
C4 0.059 0.027 0.036 0.001 -0.014 -0.011
C5 0.03 0.037 0.039 0.011 -0.001 -0.004
C6 0.053 0.022 0.028 0.005 0 0
C7 0.024 0.022 0.022 0.003 -0.002 -0.001
K1 0.029 0.0191 0.065 -0.0122 0 0
Re1C 0.02066 0.01778 0.01267 8e-05 0 0
Re1B 0.02066(16) 0.01778(16) 0.01267(15) -0.00008(11) 0.000 0.000
Re2J 0.02036 0.01798 0.0177 0.00228 0.00329 0.004
Re2I 0.02036 0.01798 0.0177 -0.00228 0.00329 -0.004
Re2C 0.02036 0.01798 0.0177 -0.00228 -0.00329 0.004
Re2B 0.02036 0.01798 0.0177 0.00228 0.00329 0.004
Re2H 0.02036(13) 0.01798(13) 0.01770(13) 0.00228(8) -0.00329(8) -0.00400(8)
Re3B 0.01675(16) 0.01437(15) 0.01460(15) 0.00132(11) 0.000 0.000
Re3C 0.01675 0.01437 0.0146 -0.00132 0 0
Tb1C 0.0189 0.0183 0.0138 0 0 -0.00314
S1B 0.0276(11) 0.0193(10) 0.0191(10) 0.0000(8) 0.000 0.000
S1C 0.0276 0.0193 0.0191 0 0 0
S2J 0.0181 0.0271 0.0188 0.0055 -0.0017 -0.0012
S2I 0.0181 0.0271 0.0188 -0.0055 -0.0017 0.0012
S2C 0.0181 0.0271 0.0188 -0.0055 0.0017 -0.0012
S2B 0.0181 0.0271 0.0188 0.0055 -0.0017 -0.0012
S2H 0.0181(7) 0.0271(7) 0.0188(7) 0.0055(6) 0.0017(5) 0.0012(6)
S3C 0.0149 0.0171 0.0146 0.0044 0 0
O4C 0.043 0.022 0.025 0 0 0.001
O5I 0.06 0.034 0.06 -0.019 -0.021 -0.004
O5J 0.06 0.034 0.06 0.019 -0.021 0.004
O5C 0.06 0.034 0.06 -0.019 0.021 0.004
O6C 0.048 0.025 0.033 0 0 -0.014
O7B 0.098 0.083 0.086 -0.005 0.002 0.006
O7H 0.098 0.083 0.086 -0.005 -0.002 -0.006
O7J 0.098(6) 0.083(6) 0.086(6) -0.005(4) 0.002(4) 0.006(4)
N1J 0.039 0.031 0.026 0.001 -0.013 -0.01
N1I 0.039 0.031 0.026 -0.001 -0.013 0.01
N1C 0.039 0.031 0.026 -0.001 0.013 -0.01
N2C 0.076 0.039 0.047 0.011 0 0
N3J 0.047 0.056 0.068 0.023 0.031 0.019
N3I 0.047 0.056 0.068 -0.023 0.031 -0.019
N3C 0.047 0.056 0.068 -0.023 -0.031 0.019
N4J 0.094 0.033 0.057 -0.01 0.018 0.011
N4I 0.094 0.033 0.057 0.01 0.018 -0.011
N4C 0.094 0.033 0.057 0.01 -0.018 0.011
N5J 0.042 0.098 0.104 0.053 -0.016 0.006
N5I 0.042 0.098 0.104 -0.053 -0.016 -0.006
N5C 0.042 0.098 0.104 -0.053 0.016 0.006
N6B 0.193(16) 0.019(5) 0.053(7) 0.003(5) 0.000 0.000
N7J 0.031 0.032 0.03 0.006 0.007 -0.002
N7B 0.031 0.032 0.03 0.006 0.007 -0.002
N7H 0.031(3) 0.032(3) 0.030(3) 0.006(2) -0.007(2) 0.002(2)
C1J 0.034 0.021 0.023 -0.004 -0.002 -0.004
C1I 0.034 0.021 0.023 0.004 -0.002 0.004
C1C 0.034 0.021 0.023 0.004 0.002 -0.004
C2C 0.046 0.024 0.029 0.001 0 0
C3J 0.033 0.03 0.038 0.013 0.009 0.009
C3I 0.033 0.03 0.038 -0.013 0.009 -0.009
C3C 0.033 0.03 0.038 -0.013 -0.009 0.009
C4J 0.059 0.027 0.036 0.001 0.014 0.011
C4I 0.059 0.027 0.036 -0.001 0.014 -0.011
C4C 0.059 0.027 0.036 -0.001 -0.014 0.011
C5J 0.03 0.037 0.039 0.011 0.001 0.004
C5I 0.03 0.037 0.039 -0.011 0.001 -0.004
C5C 0.03 0.037 0.039 -0.011 -0.001 0.004
C6B 0.053(7) 0.022(5) 0.028(5) 0.005(4) 0.000 0.000
C7J 0.024 0.022 0.022 0.003 0.002 0.001
C7B 0.024 0.022 0.022 0.003 0.002 0.001
C7H 0.024(3) 0.022(3) 0.022(3) 0.003(2) -0.002(2) -0.001(2)
K1H 0.029(2) 0.0191(19) 0.065(3) -0.0122(19) 0.000 0.000
O1 0.101(6) 0.087(6) 0.089(6) 0.000 0.000 0.000
loop_
_geom_bond_atom_site_label_1
_geom_bond_atom_site_label_2
_geom_bond_site_symmetry_1
_geom_bond_site_symmetry_2
Re1 Re2 1_555 1_555
Re2 Re3 1_555 1_555
Re3 Re1 1_555 1_555
Tb1 O4 1_555 1_555
S1 Re2 1_555 1_555
S2 Re1 1_555 1_555
S3 Re1 1_555 1_555
O5 Tb1 1_555 1_555
O6 Tb1 1_555 1_555
O7 K1 1_555 1_555
N1 Tb1 1_555 1_555
N2 C2 1_555 1_555
N3 C3 1_555 1_555
N4 C4 1_555 1_555
N5 C5 1_555 1_555
N6 C6 1_555 1_555
N7 C7 1_555 1_555
C1 Re1 1_555 1_555
C2 Re1 1_555 1_555
C3 Re2 1_555 1_555
C4 Re2 1_555 1_555
C5 Re2 1_555 1_555
C6 Re3 1_555 1_555
C7 Re3 1_555 1_555
K1 N6 1_555 1_555
Re1C Re2I 1_555 1_555
Re1B Re2B 1_555 1_555
Re2J Re1 1_555 1_555
Re2I Re2C 1_555 1_555
Re2C Re1C 1_555 1_555
Re2B Re2H 1_555 1_555
Re2H Re1B 1_555 1_555
Re3B Re1B 1_555 1_555
Re3C Re1C 1_555 1_555
Tb1C O4C 1_555 1_555
S1B Re2B 1_555 1_555
S1C Re2I 1_555 1_555
S2J Re1 1_555 1_555
S2I Re1C 1_555 1_555
S2C Re1C 1_555 1_555
S2B Re1B 1_555 1_555
S2H Re1B 1_555 1_555
S3C Re1C 1_555 1_555
O5I Tb1 1_555 1_555
O5J Tb1C 1_555 1_555
O5C Tb1C 1_555 1_555
O6C Tb1C 1_555 1_555
O7B K1 1_555 1_555
O7H K1H 1_555 1_555
O7J K1H 1_555 1_555
N1J Tb1C 1_555 1_555
N1I Tb1 1_555 1_555
N1C Tb1C 1_555 1_555
N2C C2C 1_555 1_555
N3J C3J 1_555 1_555
N3I C3I 1_555 1_555
N3C C3C 1_555 1_555
N4J C4J 1_555 1_555
N4I C4I 1_555 1_555
N4C C4C 1_555 1_555
N5J C5J 1_555 1_555
N5I C5I 1_555 1_555
N5C C5C 1_555 1_555
N6B K1 1_555 1_555
N7J C7J 1_555 1_555
N7B C7B 1_555 1_555
N7H C7H 1_555 1_555
C1J Re1 1_555 1_555
C1I Re1C 1_555 1_555
C1C Re1C 1_555 1_555
C2C Re1C 1_555 1_555
C3J Re2J 1_555 1_555
C3I Re2I 1_555 1_555
C3C Re2C 1_555 1_555
C4J Re2J 1_555 1_555
C4I Re2I 1_555 1_555
C4C Re2C 1_555 1_555
C5J Re2J 1_555 1_555
C5I Re2I 1_555 1_555
C5C Re2C 1_555 1_555
C6B Re3B 1_555 1_555
C7J Re3 1_555 1_555
C7B Re3B 1_555 1_555
C7H Re3B 1_555 1_555
K1H N6 1_555 1_555
Re2 S2 1_555 1_555
Re2 S3 1_555 1_555
Re2 Re2J 1_555 1_555
Re3 S1 1_555 1_555
Re3 S2 1_555 1_555
Re3 Re2J 1_555 1_555
Re3 S2J 1_555 1_555
S1 Re2J 1_555 1_555
S3 Re2J 1_555 1_555
N1 C1 1_555 1_555
K1 K1H 1_555 1_555
Re2J S2J 1_555 1_555
Re2I Re3C 1_555 1_555
Re2I S2I 1_555 1_555
Re2I S3C 1_555 1_555
Re2C Re3C 1_555 1_555
Re2C S1C 1_555 1_555
Re2C S2C 1_555 1_555
Re2C S3C 1_555 1_555
Re2B Re3B 1_555 1_555
Re2B S2B 1_555 1_555
Re2H Re3B 1_555 1_555
Re2H S1B 1_555 1_555
Re2H S2H 1_555 1_555
Re3B S1B 1_555 1_555
Re3B S2B 1_555 1_555
Re3B S2H 1_555 1_555
Re3C S1C 1_555 1_555
Re3C S2I 1_555 1_555
Re3C S2C 1_555 1_555
N1J C1J 1_555 1_555
N1I C1I 1_555 1_555
N1C C1C 1_555 1_555
N6B C6B 1_555 1_555
N6B K1H 1_555 1_555

#END
