
#######################################################################
#
#                 Cambridge Crystallographic Data Centre
#                                CCDC 
#
#######################################################################
#
# If this CIF has been generated from an entry in the Cambridge 
# Structural Database, then it will include bibliographic, chemical, 
# crystal, experimental, refinement or atomic coordinate data resulting 
# from the CCDC's data processing and validation procedures.
#
#######################################################################

data_BUCTUQ
_chemical_formula_moiety         '(C53 H38 N8 O9 Zn2)n'
_symmetry_cell_setting           monoclinic
_symmetry_space_group_name_H-M   'C 2/c'
_symmetry_Int_Tables_number      15
_space_group_name_Hall           '-C 2yc'
loop_
_symmetry_equiv_pos_site_id
_symmetry_equiv_pos_as_xyz
1 x,y,z
2 -x,y,1/2-z
3 1/2+x,1/2+y,z
4 1/2-x,1/2+y,1/2-z
5 -x,-y,-z
6 x,-y,1/2+z
7 1/2-x,1/2-y,-z
8 1/2+x,1/2-y,1/2+z
_cell_length_a                   40.6544(13)
_cell_length_b                   14.3377(5)
_cell_length_c                   20.2429(5)
_cell_angle_alpha                90
_cell_angle_beta                 108.733(3)
_cell_angle_gamma                90
_cell_volume                     11174.3
loop_
_atom_site_label
_atom_site_type_symbol
_atom_site_fract_x
_atom_site_fract_y
_atom_site_fract_z
Zn1 Zn 0.08224(4) 0.96529(11) 0.11891(7)
Zn2 Zn 0.27790(3) 0.15390(8) 0.17062(7)
O1 O 0.11464(7) 0.98489(19) 0.21509(13)
O2 O 0.06724(7) 0.9592(2) 0.24299(14)
O3 O 0.11645(6) 1.03118(18) 0.56720(12)
O4 O 0.06675(7) 1.0301(2) 0.48168(14)
O5 O 0.28574(10) 0.2848(2) 0.1575(2)
O6 O 0.27560(10) 0.3626(3) 0.24375(16)
O7 O 0.22166(8) 0.3860(2) -0.08007(14)
O8 O 0.22592(10) 0.5363(3) -0.10350(17)
N1 N 0.06764(8) 0.8316(2) 0.11160(17)
N2 N 0.06876(8) 0.6892(2) 0.14880(16)
N3 N -0.05259(8) 0.0796(2) 0.39783(16)
N4 N -0.01674(7) 0.1883(2) 0.38910(15)
N5 N 0.22950(8) 0.1474(2) 0.17629(15)
N6 N 0.18451(7) 0.1782(2) 0.20916(15)
N7 N 0.19212(7) 0.4104(2) 0.74392(14)
N8 N 0.16391(7) 0.4410(2) 0.63374(15)
C1 C 0.09849(10) 0.9817(3) 0.25887(18)
C2 C 0.11813(9) 1.0089(2) 0.33303(17)
C3 C 0.10125(9) 1.0078(2) 0.38258(18)
H1 H 0.0780 0.9903 0.3696
C4 C 0.11846(9) 1.0323(2) 0.45110(18)
C5 C 0.09864(9) 1.0312(2) 0.50239(19)
C6 C 0.15263(10) 1.0594(3) 0.4704(2)
H2 H 0.1643 1.0765 0.5163
C7 C 0.16991(10) 1.0613(3) 0.4205(2)
H3 H 0.1930 1.0799 0.4333
C8 C 0.15258(10) 1.0356(3) 0.3525(2)
H4 H 0.1641 1.0362 0.3197
C9 C 0.07383(11) 0.7756(3) 0.1665(2)
H5 H 0.0810 0.7965 0.2124
C10 C 0.06066(15) 0.6834(4) 0.0785(3)
H6 H 0.0569 0.6295 0.0516
C11 C 0.05922(14) 0.7726(3) 0.0557(2)
H7 H 0.0534 0.7908 0.0093
C12 C 0.07516(10) 0.6103(3) 0.19736(19)
C13 C 0.10748(9) 0.6034(3) 0.2488(2)
H8 H 0.1245 0.6484 0.2523
C14 C 0.11385(9) 0.5298(3) 0.2938(2)
H9 H 0.1357 0.5235 0.3268
C15 C 0.05689(10) 0.4727(3) 0.2398(2)
H10 H 0.0397 0.4284 0.2364
C16 C 0.05017(11) 0.5456(3) 0.1931(2)
H11 H 0.0286 0.5505 0.1587
C17 C 0.08843(8) 0.4640(2) 0.29150(18)
C18 C 0.09827(8) 0.3768(2) 0.33925(17)
C19 C -0.03025(9) 0.1060(3) 0.36644(19)
H12 H -0.0247 0.0711 0.3327
C20 C -0.03219(12) 0.2201(3) 0.4366(3)
H13 H -0.0283 0.2768 0.4602
C21 C -0.05368(11) 0.1531(3) 0.4416(2)
H14 H -0.0675 0.1551 0.4702
C22 C 0.01036(8) 0.2350(2) 0.36999(18)
C23 C 0.03376(9) 0.1839(2) 0.3489(2)
H15 H 0.0315 0.1194 0.3444
C24 C 0.06099(9) 0.2294(2) 0.3344(2)
H16 H 0.0766 0.1947 0.3194
C25 C 0.06529(8) 0.3256(2) 0.34177(17)
C26 C 0.04081(9) 0.3759(2) 0.36290(19)
H17 H 0.0429 0.4404 0.3675
C27 C 0.01365(9) 0.3314(3) 0.3770(2)
H18 H -0.0023 0.3656 0.3912
C28 C 0.21616(9) 0.2057(2) 0.21091(19)
H19 H 0.2273 0.2590 0.2336
C29 C 0.17682(10) 0.0978(3) 0.1707(2)
H20 H 0.1564 0.0632 0.1601
C30 C 0.20474(10) 0.0796(3) 0.1517(2)
H21 H 0.2071 0.0282 0.1255
C31 C 0.16252(9) 0.2268(2) 0.24234(18)
C32 C 0.12733(9) 0.2316(3) 0.20966(19)
H22 H 0.1174 0.2047 0.1660
C33 C 0.10691(9) 0.2767(3) 0.24210(18)
H23 H 0.0830 0.2792 0.2200
C34 C 0.12091(8) 0.3188(2) 0.30726(17)
C35 C 0.15686(9) 0.3147(2) 0.33820(18)
H24 H 0.1671 0.3438 0.3809
C36 C 0.17762(9) 0.2678(2) 0.30624(19)
H25 H 0.2015 0.2642 0.3280
C37 C 0.17762(9) 0.3742(3) 0.68141(18)
H26 H 0.1770 0.3107 0.6715
C38 C 0.17017(11) 0.5246(3) 0.6679(2)
H27 H 0.1635 0.5831 0.6484
C39 C 0.18794(10) 0.5062(3) 0.7356(2)
H28 H 0.1960 0.5504 0.7708
C40 C 0.14763(9) 0.4258(3) 0.56037(18)
C41 C 0.13334(12) 0.5002(3) 0.5173(2)
H29 H 0.1340 0.5599 0.5357
C42 C 0.11800(10) 0.4847(3) 0.44605(19)
H30 H 0.1083 0.5350 0.4174
C43 C 0.11668(8) 0.3988(2) 0.41692(17)
C44 C 0.13024(10) 0.3253(3) 0.46183(19)
H31 H 0.1287 0.2652 0.4438
C45 C 0.14611(10) 0.3385(3) 0.53291(18)
H32 H 0.1557 0.2881 0.5616
C46 C 0.27446(11) 0.3555(3) 0.1821(2)
C47 C 0.25968(9) 0.4329(3) 0.1328(2)
C48 C 0.24896(9) 0.4192(3) 0.06069(19)
H33 H 0.2508 0.3598 0.0437
C49 C 0.23588(9) 0.4899(3) 0.01398(19)
C50 C 0.22662(10) 0.4707(3) -0.0631(2)
C51 C 0.23306(9) 0.5784(3) 0.0384(2)
H34 H 0.2248 0.6272 0.0072
C52 C 0.24273(10) 0.5948(3) 0.1114(2)
H35 H 0.2404 0.6539 0.1283
C53 C 0.25557(10) 0.5218(3) 0.1570(2)
H36 H 0.2616 0.5322 0.2047
Zn1A Zn -0.08224(4) -0.03471(11) 0.38109(7)
Zn1E Zn 0.08224(4) 1.03471(11) 0.61891(7)
Zn2F Zn 0.22210(3) 0.34610(8) -0.17062(7)
Zn2F_2 Zn 0.22210(3) 0.34610(8) 0.82938(7)
O3E O 0.11645(6) 0.96882(18) 0.06720(12)
O7F O 0.27834(8) 0.1140(2) 0.08007(14)
N3A N 0.05259(8) 1.0796(2) 0.10217(16)
N7F N 0.30788(7) 0.0896(2) 0.25608(14)
O9 O 0.16758(15) 0.1591(4) 0.6414(3)
H37 H 0.1520 0.1209 0.6190
H38 H 0.1853 0.1527 0.6774
loop_
_geom_bond_atom_site_label_1
_geom_bond_atom_site_label_2
_geom_bond_site_symmetry_1
_geom_bond_site_symmetry_2
Zn1 O1 1_555 1_555
Zn2 O5 1_555 1_555
O1 C1 1_555 1_555
O2 C1 1_555 1_555
O3 C5 1_555 1_555
O4 C5 1_555 1_555
O5 C46 1_555 1_555
O6 C46 1_555 1_555
O7 C50 1_555 1_555
O8 C50 1_555 1_555
N1 Zn1 1_555 1_555
N2 C9 1_555 1_555
N3 C19 1_555 1_555
N4 C19 1_555 1_555
N5 Zn2 1_555 1_555
N6 C28 1_555 1_555
N7 C37 1_555 1_555
N8 C37 1_555 1_555
C1 C2 1_555 1_555
C2 C3 1_555 1_555
C3 H1 1_555 1_555
C4 C3 1_555 1_555
C5 C4 1_555 1_555
C6 C4 1_555 1_555
H2 C6 1_555 1_555
C7 C6 1_555 1_555
H3 C7 1_555 1_555
C8 C2 1_555 1_555
H4 C8 1_555 1_555
C9 N1 1_555 1_555
H5 C9 1_555 1_555
C10 N2 1_555 1_555
H6 C10 1_555 1_555
C11 N1 1_555 1_555
H7 C11 1_555 1_555
C12 N2 1_555 1_555
C13 C12 1_555 1_555
H8 C13 1_555 1_555
C14 C13 1_555 1_555
H9 C14 1_555 1_555
C15 H10 1_555 1_555
C16 C12 1_555 1_555
H11 C16 1_555 1_555
C17 C14 1_555 1_555
C18 C17 1_555 1_555
C19 H12 1_555 1_555
C20 N4 1_555 1_555
H13 C20 1_555 1_555
C21 N3 1_555 1_555
H14 C21 1_555 1_555
C22 N4 1_555 1_555
C23 C22 1_555 1_555
H15 C23 1_555 1_555
C24 C23 1_555 1_555
H16 C24 1_555 1_555
C25 C18 1_555 1_555
C26 C25 1_555 1_555
H17 C26 1_555 1_555
C27 C22 1_555 1_555
H18 C27 1_555 1_555
C28 N5 1_555 1_555
H19 C28 1_555 1_555
C29 N6 1_555 1_555
H20 C29 1_555 1_555
C30 N5 1_555 1_555
H21 C30 1_555 1_555
C31 N6 1_555 1_555
C32 C31 1_555 1_555
H22 C32 1_555 1_555
C33 C32 1_555 1_555
H23 C33 1_555 1_555
C34 C18 1_555 1_555
C35 C34 1_555 1_555
H24 C35 1_555 1_555
C36 C31 1_555 1_555
H25 C36 1_555 1_555
C37 H26 1_555 1_555
C38 N8 1_555 1_555
H27 C38 1_555 1_555
C39 N7 1_555 1_555
H28 C39 1_555 1_555
C40 N8 1_555 1_555
C41 C40 1_555 1_555
H29 C41 1_555 1_555
C42 C41 1_555 1_555
H30 C42 1_555 1_555
C43 C18 1_555 1_555
C44 C43 1_555 1_555
H31 C44 1_555 1_555
C45 C40 1_555 1_555
H32 C45 1_555 1_555
C46 C47 1_555 1_555
C47 C48 1_555 1_555
C48 H33 1_555 1_555
C49 C48 1_555 1_555
C50 C49 1_555 1_555
C51 C49 1_555 1_555
H34 C51 1_555 1_555
C52 C51 1_555 1_555
H35 C52 1_555 1_555
C53 C47 1_555 1_555
H36 C53 1_555 1_555
O9 H37 1_555 1_555
H38 O9 1_555 1_555
Zn1A N3 1_555 1_555
Zn1E O3 1_555 1_555
Zn2F O7 1_555 1_555
Zn2F_2 N7 1_555 1_555
O3E Zn1 1_555 1_555
O7F Zn2 1_555 1_555
N3A Zn1 1_555 1_555
N7F Zn2 1_555 1_555
C7 C8 1_555 1_555
C10 C11 1_555 1_555
C15 C16 1_555 1_555
C15 C17 1_555 1_555
C20 C21 1_555 1_555
C24 C25 1_555 1_555
C26 C27 1_555 1_555
C29 C30 1_555 1_555
C33 C34 1_555 1_555
C35 C36 1_555 1_555
C38 C39 1_555 1_555
C42 C43 1_555 1_555
C44 C45 1_555 1_555
C52 C53 1_555 1_555

#END
