
#######################################################################
#
#                 Cambridge Crystallographic Data Centre
#                                CCDC 
#
#######################################################################
#
# If this CIF has been generated from an entry in the Cambridge 
# Structural Database, then it will include bibliographic, chemical, 
# crystal, experimental, refinement or atomic coordinate data resulting 
# from the CCDC's data processing and validation procedures.
#
#######################################################################

data_BUCVAY
_chemical_formula_moiety         '(C53 H36 N8 O8 Zn2)n'
_symmetry_cell_setting           monoclinic
_symmetry_space_group_name_H-M   'C 2/c'
_symmetry_Int_Tables_number      15
_space_group_name_Hall           '-C 2yc'
loop_
_symmetry_equiv_pos_site_id
_symmetry_equiv_pos_as_xyz
1 x,y,z
2 -x,y,1/2-z
3 1/2+x,1/2+y,z
4 1/2-x,1/2+y,1/2-z
5 -x,-y,-z
6 x,-y,1/2+z
7 1/2-x,1/2-y,-z
8 1/2+x,1/2-y,1/2+z
_cell_length_a                   40.999(8)
_cell_length_b                   14.353(3)
_cell_length_c                   20.257(4)
_cell_angle_alpha                90
_cell_angle_beta                 108.79(3)
_cell_angle_gamma                90
_cell_volume                     11285.1
loop_
_atom_site_label
_atom_site_type_symbol
_atom_site_fract_x
_atom_site_fract_y
_atom_site_fract_z
Zn1 Zn -0.08203(2) 1.53417(4) 0.37912(3)
Zn2 Zn 0.27665(2) 1.34564(4) 0.17034(3)
N1 N -0.05272(11) 1.4202(3) 0.3961(2)
N2 N -0.01673(11) 1.3115(3) 0.3875(2)
N3 N 0.06769(12) 0.6687(3) 0.1141(2)
N4 N 0.06966(12) 0.8111(3) 0.1512(2)
N5 N 0.19320(11) 1.0912(3) 0.74535(18)
N6 N 0.16401(11) 1.0605(3) 0.63501(19)
N7 N 0.22871(11) 1.3520(3) 0.17669(19)
N8 N 0.18395(11) 1.3214(3) 0.20954(19)
O1 O -0.11576(9) 1.5298(2) 0.43119(15)
O2 O -0.06618(11) 1.5296(3) 0.51738(19)
O3 O -0.11474(10) 1.4866(3) 0.78335(16)
O4 O -0.06730(11) 1.4610(3) 0.75526(19)
O5 O 0.27701(12) 1.3877(3) 0.08056(18)
O6 O 0.27423(14) 1.5380(4) 0.1034(2)
O7 O 0.21602(13) 1.2840(3) -0.1556(2)
O8 O 0.22508(14) 1.3623(3) -0.2427(2)
C1 C -0.09785(16) 1.5300(4) 0.4959(2)
C2 C -0.11730(13) 1.5318(4) 0.5483(2)
C3 C -0.10107(13) 1.5074(3) 0.6157(2)
H1 H -0.0778 1.4892 0.6293
C4 C -0.11801(13) 1.5088(3) 0.6651(2)
C5 C -0.15194(15) 1.5355(4) 0.6455(3)
H2 H -0.1636 1.5364 0.6786
C6 C -0.16903(15) 1.5612(5) 0.5773(3)
H3 H -0.1921 1.5806 0.5640
C7 C -0.15174(16) 1.5580(4) 0.5281(2)
H4 H -0.1634 1.5737 0.4814
C8 C -0.09812(17) 1.4830(4) 0.7394(2)
C9 C -0.03000(14) 1.3937(4) 0.3658(3)
H5 H -0.0241 1.4296 0.3325
C10 C -0.03144(17) 1.2810(5) 0.4347(3)
H6 H -0.0271 1.2243 0.4592
C11 C -0.05327(18) 1.3473(4) 0.4394(3)
H7 H -0.0671 1.3445 0.4684
C12 C 0.01052(12) 1.2640(4) 0.3695(2)
C13 C 0.03402(14) 1.3151(4) 0.3488(3)
H8 H 0.0316 1.3801 0.3439
C14 C 0.06139(14) 1.2702(4) 0.3352(3)
H9 H 0.0772 1.3054 0.3207
C15 C 0.06552(12) 1.1754(3) 0.3427(2)
C16 C 0.04125(13) 1.1267(4) 0.3643(3)
H10 H 0.0437 1.0619 0.3707
C17 C 0.01392(13) 1.1707(4) 0.3766(3)
H11 H -0.0023 1.1358 0.3900
C18 C 0.09827(12) 1.1245(3) 0.3405(2)
C19 C 0.07370(16) 0.7240(4) 0.1686(3)
H12 H 0.0802 0.7026 0.2149
C20 C 0.0604(2) 0.8161(5) 0.0799(3)
H13 H 0.0556 0.8702 0.0523
C21 C 0.05968(19) 0.7274(5) 0.0579(3)
H14 H 0.0545 0.7088 0.0112
C22 C 0.07623(15) 0.8896(4) 0.1997(3)
C23 C 0.10755(14) 0.8969(4) 0.2501(3)
H15 H 0.1247 0.8519 0.2536
C24 C 0.11386(13) 0.9711(4) 0.2960(3)
H16 H 0.1357 0.9772 0.3298
C25 C 0.08873(13) 1.0366(3) 0.2932(2)
C26 C 0.05732(15) 1.0277(4) 0.2410(3)
H17 H 0.0400 1.0721 0.2377
C27 C 0.05086(15) 0.9559(4) 0.1944(3)
H18 H 0.0295 0.9515 0.1590
C28 C 0.17866(13) 1.1272(4) 0.6826(2)
H19 H 0.1785 1.1911 0.6723
C29 C 0.16959(15) 0.9780(4) 0.6686(2)
H20 H 0.1625 0.9190 0.6491
C30 C 0.18752(15) 0.9973(4) 0.7361(3)
H21 H 0.1950 0.9524 0.7716
C31 C 0.14750(12) 1.0760(4) 0.5616(2)
C32 C 0.14594(15) 1.1633(4) 0.5330(2)
H22 H 0.1552 1.2147 0.5617
C33 C 0.13070(15) 1.1755(4) 0.4621(2)
H23 H 0.1297 1.2358 0.4434
C34 C 0.11693(12) 1.1022(3) 0.4178(2)
C35 C 0.11811(15) 1.0166(4) 0.4477(2)
H24 H 0.1085 0.9653 0.4193
C36 C 0.13322(17) 1.0030(4) 0.5194(3)
H25 H 0.1335 0.9432 0.5386
C37 C 0.21583(14) 1.2942(4) 0.2122(2)
H26 H 0.2273 1.2414 0.2361
C38 C 0.17573(15) 1.4006(4) 0.1713(3)
H27 H 0.1552 1.4349 0.1605
C39 C 0.20417(15) 1.4194(4) 0.1517(3)
H28 H 0.2065 1.4711 0.1251
C40 C 0.16233(12) 1.2732(3) 0.2431(2)
C41 C 0.17679(14) 1.2319(4) 0.3066(2)
H29 H 0.2007 1.2354 0.3289
C42 C 0.15653(13) 1.1856(4) 0.3380(2)
H30 H 0.1669 1.1555 0.3809
C43 C 0.12127(12) 1.1823(3) 0.3080(2)
C44 C 0.10700(13) 1.2233(4) 0.2431(2)
H31 H 0.0831 1.2203 0.2207
C45 C 0.12756(13) 1.2688(4) 0.2107(2)
H32 H 0.1176 1.2966 0.1668
C46 C 0.27227(14) 1.4728(5) 0.0627(3)
C47 C 0.26312(13) 1.4917(4) -0.0143(2)
C48 C 0.24988(13) 1.4181(4) -0.0608(2)
H33 H 0.2475 1.3582 -0.0442
C49 C 0.24041(14) 1.4355(4) -0.1316(2)
C50 C 0.24405(14) 1.5232(4) -0.1561(3)
H34 H 0.2376 1.5342 -0.2043
C51 C 0.25704(14) 1.5940(4) -0.1099(3)
H35 H 0.2596 1.6535 -0.1270
C52 C 0.26641(14) 1.5800(4) -0.0392(3)
H36 H 0.2749 1.6296 -0.0081
C53 C 0.22580(16) 1.3562(5) -0.1812(3)
Zn1A Zn 0.08203(2) 0.53417(4) 0.12088(3)
Zn1E Zn -0.08203(2) 1.46583(4) 0.87912(3)
Zn2F Zn 0.22335(2) 1.15436(4) -0.17034(3)
Zn2F_2 Zn 0.22335(2) 1.15436(4) 0.82966(3)
N3A N -0.06769(12) 1.6687(3) 0.3859(2)
N5F N 0.30680(11) 1.4088(3) 0.25465(18)
O3E O -0.11474(10) 1.5134(3) 0.28335(16)
O7F O 0.28398(13) 1.2160(3) 0.1556(2)
loop_
_geom_bond_atom_site_label_1
_geom_bond_atom_site_label_2
_geom_bond_site_symmetry_1
_geom_bond_site_symmetry_2
Zn1 N1 1_555 1_555
Zn2 N7 1_555 1_555
N1 C9 1_555 1_555
N2 C9 1_555 1_555
N3 C19 1_555 1_555
N4 C19 1_555 1_555
N5 C28 1_555 1_555
N6 C28 1_555 1_555
N7 C37 1_555 1_555
N8 C37 1_555 1_555
O1 Zn1 1_555 1_555
O2 C1 1_555 1_555
O3 C8 1_555 1_555
O4 C8 1_555 1_555
O5 Zn2 1_555 1_555
O6 C46 1_555 1_555
O7 C53 1_555 1_555
O8 C53 1_555 1_555
C1 O1 1_555 1_555
C2 C1 1_555 1_555
C3 C2 1_555 1_555
H1 C3 1_555 1_555
C4 C3 1_555 1_555
C5 C4 1_555 1_555
H2 C5 1_555 1_555
C6 C5 1_555 1_555
H3 C6 1_555 1_555
C7 C2 1_555 1_555
H4 C7 1_555 1_555
C8 C4 1_555 1_555
C9 H5 1_555 1_555
C10 N2 1_555 1_555
H6 C10 1_555 1_555
C11 N1 1_555 1_555
H7 C11 1_555 1_555
C12 N2 1_555 1_555
C13 C12 1_555 1_555
H8 C13 1_555 1_555
C14 C13 1_555 1_555
H9 C14 1_555 1_555
C15 C14 1_555 1_555
C16 C15 1_555 1_555
H10 C16 1_555 1_555
C17 C12 1_555 1_555
H11 C17 1_555 1_555
C18 C15 1_555 1_555
C19 H12 1_555 1_555
C20 N4 1_555 1_555
H13 C20 1_555 1_555
C21 N3 1_555 1_555
H14 C21 1_555 1_555
C22 N4 1_555 1_555
C23 C22 1_555 1_555
H15 C23 1_555 1_555
C24 C23 1_555 1_555
H16 C24 1_555 1_555
C25 C18 1_555 1_555
C26 C25 1_555 1_555
H17 C26 1_555 1_555
C27 C22 1_555 1_555
H18 C27 1_555 1_555
C28 H19 1_555 1_555
C29 N6 1_555 1_555
H20 C29 1_555 1_555
C30 N5 1_555 1_555
H21 C30 1_555 1_555
C31 N6 1_555 1_555
C32 C31 1_555 1_555
H22 C32 1_555 1_555
C33 C32 1_555 1_555
H23 C33 1_555 1_555
C34 C18 1_555 1_555
C35 C34 1_555 1_555
H24 C35 1_555 1_555
C36 C31 1_555 1_555
H25 C36 1_555 1_555
C37 H26 1_555 1_555
C38 N8 1_555 1_555
H27 C38 1_555 1_555
C39 N7 1_555 1_555
H28 C39 1_555 1_555
C40 N8 1_555 1_555
C41 C40 1_555 1_555
H29 C41 1_555 1_555
C42 C41 1_555 1_555
H30 C42 1_555 1_555
C43 C18 1_555 1_555
C44 C43 1_555 1_555
H31 C44 1_555 1_555
C45 C40 1_555 1_555
H32 C45 1_555 1_555
C46 O5 1_555 1_555
C47 C46 1_555 1_555
C48 C47 1_555 1_555
H33 C48 1_555 1_555
C49 C48 1_555 1_555
C50 C49 1_555 1_555
H34 C50 1_555 1_555
C51 C50 1_555 1_555
H35 C51 1_555 1_555
C52 C47 1_555 1_555
H36 C52 1_555 1_555
C53 C49 1_555 1_555
Zn1A N3 1_555 1_555
Zn1E O3 1_555 1_555
Zn2F O7 1_555 1_555
Zn2F_2 N5 1_555 1_555
N3A Zn1 1_555 1_555
N5F Zn2 1_555 1_555
O3E Zn1 1_555 1_555
O7F Zn2 1_555 1_555
C6 C7 1_555 1_555
C10 C11 1_555 1_555
C16 C17 1_555 1_555
C20 C21 1_555 1_555
C24 C25 1_555 1_555
C26 C27 1_555 1_555
C29 C30 1_555 1_555
C33 C34 1_555 1_555
C35 C36 1_555 1_555
C38 C39 1_555 1_555
C42 C43 1_555 1_555
C44 C45 1_555 1_555
C51 C52 1_555 1_555

#END
