
#######################################################################
#
#                 Cambridge Crystallographic Data Centre
#                                CCDC 
#
#######################################################################
#
# If this CIF has been generated from an entry in the Cambridge 
# Structural Database, then it will include bibliographic, chemical, 
# crystal, experimental, refinement or atomic coordinate data resulting 
# from the CCDC's data processing and validation procedures.
#
#######################################################################

data_PENYIR
_chemical_formula_moiety         '(C12 H46 F4 N4 O36 P8 V7 2-)n'
_symmetry_cell_setting           triclinic
_symmetry_space_group_name_H-M   'P -1'
_symmetry_Int_Tables_number      2
_space_group_name_Hall           '-P 1'
loop_
_symmetry_equiv_pos_site_id
_symmetry_equiv_pos_as_xyz
1 x,y,z
2 -x,-y,-z
_cell_length_a                   9.0982(5)
_cell_length_b                   11.8549(6)
_cell_length_c                   12.0113(7)
_cell_angle_alpha                103.1280(10)
_cell_angle_beta                 90.7750(10)
_cell_angle_gamma                91.8870(10)
_cell_volume                     1260.68
loop_
_atom_site_label
_atom_site_type_symbol
_atom_site_fract_x
_atom_site_fract_y
_atom_site_fract_z
P1 P 0.80197(10) 0.65389(8) 0.43883(8)
P2 P 0.40715(10) 0.72522(8) 0.47226(8)
P3 P 0.77133(10) 0.95765(8) 0.14093(8)
P4 P 0.37561(10) 0.96021(8) 0.23712(8)
F1 F 0.9346(2) 0.52165(18) 0.59946(18)
F2 F 0.0417(2) 0.89542(18) -0.00768(18)
O1 O 0.8644(3) 0.3001(2) 0.3210(2)
O2 O 0.7722(3) 0.5220(2) 0.4070(2)
O3 O 0.2609(3) 0.6587(2) 0.4683(2)
O4 O 0.9622(3) 0.6889(2) 0.4810(2)
O5 O 0.7732(3) 0.7063(2) 0.3354(2)
O6 O 0.4709(3) 0.6923(2) 0.3524(2)
O7 O 0.5850(3) 0.6385(2) 0.1415(2)
H1 H 0.6377 0.5852 0.1531
O8 O 0.7472(3) 0.8441(2) 0.1802(2)
O9 O 0.4406(3) 0.8398(2) 0.2044(2)
O10 O 0.3876(3) 0.8560(2) 0.5132(2)
O11 O 0.6280(3) 0.9082(2) 0.3980(2)
O12 O 0.3719(3) 1.0075(2) 0.3663(2)
O13 O 0.2199(3) 0.9536(2) 0.1843(2)
O14 O 0.1398(3) 1.1823(2) 0.1927(2)
O15 O 0.7509(3) 0.9364(2) 0.0110(2)
O16 O 0.9251(3) 1.0076(2) 0.1866(2)
C1 C 0.6939(4) 0.7169(3) 0.5611(3)
H11 H 0.7456 0.7041 0.6299
H12 H 0.6953 0.8016 0.5674
C2 C 0.5320(4) 0.6762(3) 0.5667(3)
H13 H 0.4987 0.7035 0.6461
H14 H 0.5267 0.5904 0.5486
C3 C 0.6490(4) 1.0682(3) 0.2071(3)
H15 H 0.6563 1.0752 0.2908
H16 H 0.6871 1.1426 0.1925
C4 C 0.4848(4) 1.0559(3) 0.1731(3)
H17 H 0.4762 1.0282 0.0890
H18 H 0.4428 1.1337 0.1932
V1 V 0.89297(6) 0.39316(5) 0.43911(5)
V2 V 0.60797(8) 0.76668(9) 0.26382(9)
V3 V 0.5000 1.0000 0.5000
V4 V 0.10120(6) 1.05789(5) 0.11035(5)
P1A P 0.19803(10) 1.34611(8) 0.56117(8)
P2A P 0.59285(10) 1.27478(8) 0.52774(8)
P3A P 0.22867(10) 1.04235(8) 0.85907(8)
P4A P 0.62439(10) 1.03979(8) 0.76288(8)
F1A F 1.0654(2) 0.47835(18) 0.40054(18)
F1_2 F -0.0654(2) 1.52165(18) 0.59946(18)
F1A_2 F 0.0654(2) 1.47835(18) 0.40054(18)
F2A F -0.0417(2) 1.10458(18) 0.00768(18)
F2_2 F 1.0417(2) 0.89542(18) 0.99232(18)
F2A_2 F 0.9583(2) 1.10458(18) 1.00768(18)
O1A O 0.1356(3) 1.6999(2) 0.6790(2)
O2A O 0.2278(3) 1.4780(2) 0.5930(2)
O3A O 0.7391(3) 1.3413(2) 0.5317(2)
O3A_2 O 0.7391(3) 0.3413(2) 0.5317(2)
O3_2 O 0.2609(3) 1.6587(2) 0.4683(2)
O4A O 0.0378(3) 1.3111(2) 0.5190(2)
O4A_2 O 1.0378(3) 0.3111(2) 0.5190(2)
O4_2 O -0.0378(3) 1.6889(2) 0.4810(2)
O5A O 0.2268(3) 1.2937(2) 0.6646(2)
O6A O 0.5291(3) 1.3077(2) 0.6476(2)
O7A O 0.4150(3) 1.3615(2) 0.8585(2)
H1A H 0.3623 1.4148 0.8469
O8A O 0.2528(3) 1.1559(2) 0.8198(2)
O9A O 0.5594(3) 1.1602(2) 0.7956(2)
O10A O 0.6124(3) 1.1440(2) 0.4868(2)
O11A O 0.3720(3) 1.0918(2) 0.6020(2)
O12A O 0.6281(3) 0.9925(2) 0.6337(2)
O13A O 0.7801(3) 1.0464(2) 0.8157(2)
O14A O 0.8602(3) 0.8177(2) 0.8073(2)
O15A O 0.2491(3) 1.0636(2) 0.9890(2)
O15A_2 O 0.2491(3) 1.0636(2) -0.0110(2)
O15_2 O 0.7509(3) 0.9364(2) 1.0110(2)
O16A O 0.0749(3) 0.9924(2) 0.8134(2)
O16_2 O -0.0749(3) 1.0076(2) 0.1866(2)
O16A_2 O 1.0749(3) 0.9924(2) 0.8134(2)
C1A C 0.3061(4) 1.2831(3) 0.4389(3)
H11A H 0.2544 1.2959 0.3701
H12A H 0.3047 1.1984 0.4326
C2A C 0.4680(4) 1.3238(3) 0.4333(3)
H13A H 0.5013 1.2965 0.3539
H14A H 0.4733 1.4096 0.4514
C3A C 0.3510(4) 0.9318(3) 0.7929(3)
H15A H 0.3437 0.9248 0.7092
H16A H 0.3129 0.8574 0.8075
C4A C 0.5152(4) 0.9441(3) 0.8269(3)
H17A H 0.5238 0.9718 0.9110
H18A H 0.5572 0.8663 0.8068
V1A V 0.10703(6) 1.60684(5) 0.56089(5)
V1A_2 V 1.10703(6) 0.60684(5) 0.56089(5)
V1A_3 V 0.10703(6) 0.60684(5) 0.56089(5)
V1_2 V 0.89297(6) 1.39316(5) 0.43911(5)
V1_3 V -0.10703(6) 1.39316(5) 0.43911(5)
V2A V 0.39203(8) 1.23332(9) 0.73618(9)
V4A V 0.89880(6) 0.94211(5) 0.88965(5)
V4A_2 V -0.10120(6) 0.94211(5) -0.11035(5)
V4A_3 V 0.89880(6) 0.94211(5) -0.11035(5)
V4_2 V 1.10120(6) 1.05789(5) 0.11035(5)
V4_3 V 0.10120(6) 1.05789(5) 1.11035(5)
V4A_4 V -0.10120(6) 0.94211(5) 0.88965(5)
O17 O 0.3747(5) 0.3186(3) 0.0790(3)
O18 O 0.733(2) 0.4508(12) 0.1674(5)
O20 O 0.0045(5) 0.6343(3) 0.9043(3)
O21 O 0.3094(8) 0.7612(5) 0.9744(5)
N1 N 0.2651(4) 0.5164(3) 0.2277(3)
H2 H 0.3385 0.5561 0.2741
H3 H 0.3008 0.4507 0.1835
H4 H 0.1912 0.4973 0.2710
N2 N 0.0334(4) 0.7438(3) 0.1447(3)
H5 H 0.1011 0.8035 0.1525
H6 H -0.0547 0.7720 0.1707
H7 H 0.0235 0.7070 0.0696
C5 C 0.2073(4) 0.5907(4) 0.1526(3)
H19 H 0.1714 0.5413 0.0788
H20 H 0.2870 0.6434 0.1369
C6 C 0.0826(5) 0.6608(4) 0.2119(4)
H21 H -0.0008 0.6079 0.2206
H22 H 0.1161 0.7037 0.2891
N3 N 0.9169(3) 0.0981(3) 0.4167(3)
H8 H 0.8242 0.0994 0.4446
H9 H 0.9122 0.0954 0.3404
H10 H 0.9689 0.1631 0.4533
C7 C 0.9906(4) -0.0057(3) 0.4362(3)
H23 H 1.0879 -0.0118 0.3997
H24 H 0.9305 -0.0765 0.4020
N3A N 1.0831(3) -0.0981(3) 0.5833(3)
H8A H 1.1758 -0.0994 0.5554
H9A H 1.0878 -0.0954 0.6596
H10A H 1.0311 -0.1631 0.5467
C7A C 1.0094(4) 0.0057(3) 0.5638(3)
H23A H 0.9121 0.0118 0.6003
H24A H 1.0695 0.0765 0.5980
loop_
_geom_bond_atom_site_label_1
_geom_bond_atom_site_label_2
_geom_bond_site_symmetry_1
_geom_bond_site_symmetry_2
P1 O2 1_555 1_555
P2 O3 1_555 1_555
P3 O8 1_555 1_555
P4 O9 1_555 1_555
F1 V1 1_555 1_555
F2 V4 1_555 1_555
O1 V1 1_555 1_555
O2 V1 1_555 1_555
O3 V1A_3 1_555 1_555
O4 P1 1_555 1_555
O5 P1 1_555 1_555
O6 P2 1_555 1_555
O7 H1 1_555 1_555
O8 V2 1_555 1_555
O9 V2 1_555 1_555
O10 P2 1_555 1_555
O11 V2 1_555 1_555
O12 P4 1_555 1_555
O13 P4 1_555 1_555
O14 V4 1_555 1_555
O15 P3 1_555 1_555
O16 P3 1_555 1_555
N1 H2 1_555 1_555
H3 N1 1_555 1_555
H4 N1 1_555 1_555
N2 H5 1_555 1_555
H6 N2 1_555 1_555
H7 N2 1_555 1_555
N3 H8 1_555 1_555
H9 N3 1_555 1_555
H10 N3 1_555 1_555
C1 P1 1_555 1_555
H11 C1 1_555 1_555
H12 C1 1_555 1_555
C2 P2 1_555 1_555
H13 C2 1_555 1_555
H14 C2 1_555 1_555
C3 P3 1_555 1_555
H15 C3 1_555 1_555
H16 C3 1_555 1_555
C4 P4 1_555 1_555
H17 C4 1_555 1_555
H18 C4 1_555 1_555
C5 N1 1_555 1_555
H19 C5 1_555 1_555
H20 C5 1_555 1_555
C6 N2 1_555 1_555
H21 C6 1_555 1_555
H22 C6 1_555 1_555
C7 N3 1_555 1_555
H23 C7 1_555 1_555
H24 C7 1_555 1_555
V1 F1A 1_555 1_555
V2 O5 1_555 1_555
V3 O10 1_555 1_555
V4 O13 1_555 1_555
P1A O2A 1_555 1_555
P2A O3A 1_555 1_555
P3A O8A 1_555 1_555
P4A O9A 1_555 1_555
F1A V1A_2 1_555 1_555
F1_2 V1A 1_555 1_555
F1A_2 V1A 1_555 1_555
F2A V4 1_555 1_555
F2_2 V4A 1_555 1_555
F2A_2 V4A 1_555 1_555
O1A V1A 1_555 1_555
O2A V1A 1_555 1_555
O3A V1_2 1_555 1_555
O3A_2 V1 1_555 1_555
O3_2 V1A 1_555 1_555
O4A P1A 1_555 1_555
O4A_2 V1 1_555 1_555
O4_2 V1A 1_555 1_555
O5A P1A 1_555 1_555
O6A P2A 1_555 1_555
O7A H1A 1_555 1_555
O8A V2A 1_555 1_555
O9A V2A 1_555 1_555
O10A V3 1_555 1_555
O11A V3 1_555 1_555
O12A V3 1_555 1_555
O13A P4A 1_555 1_555
O14A V4A 1_555 1_555
O15A P3A 1_555 1_555
O15A_2 V4 1_555 1_555
O15_2 V4A 1_555 1_555
O16A P3A 1_555 1_555
O16_2 V4 1_555 1_555
O16A_2 V4A 1_555 1_555
N3A H8A 1_555 1_555
H9A N3A 1_555 1_555
H10A N3A 1_555 1_555
C1A P1A 1_555 1_555
H11A C1A 1_555 1_555
H12A C1A 1_555 1_555
C2A P2A 1_555 1_555
H13A C2A 1_555 1_555
H14A C2A 1_555 1_555
C3A P3A 1_555 1_555
H15A C3A 1_555 1_555
H16A C3A 1_555 1_555
C4A P4A 1_555 1_555
H17A C4A 1_555 1_555
H18A C4A 1_555 1_555
C7A C7 1_555 1_555
H23A C7A 1_555 1_555
H24A C7A 1_555 1_555
V1A_2 F1 1_555 1_555
V1_3 F1_2 1_555 1_555
V2A O5A 1_555 1_555
V4A O13A 1_555 1_555
V4A_2 F2 1_555 1_555
V4A_3 O15 1_555 1_555
V4_2 O16 1_555 1_555
V4_3 O15A 1_555 1_555
V4A_4 O16A 1_555 1_555
O4 V1A_2 1_555 1_555
O6 V2 1_555 1_555
O7 V2 1_555 1_555
O11 V3 1_555 1_555
O12 V3 1_555 1_555
C1 C2 1_555 1_555
C3 C4 1_555 1_555
C5 C6 1_555 1_555
P2A O10A 1_555 1_555
P4A O12A 1_555 1_555
F1A_2 V1_3 1_555 1_555
F2A V4A_2 1_555 1_555
O4A V1_3 1_555 1_555
O6A V2A 1_555 1_555
O7A V2A 1_555 1_555
O11A V2A 1_555 1_555
N3A C7A 1_555 1_555
C1A C2A 1_555 1_555
C3A C4A 1_555 1_555

#END
