
#######################################################################
#
#                 Cambridge Crystallographic Data Centre
#                                CCDC 
#
#######################################################################
#
# If this CIF has been generated from an entry in the Cambridge 
# Structural Database, then it will include bibliographic, chemical, 
# crystal, experimental, refinement or atomic coordinate data resulting 
# from the CCDC's data processing and validation procedures.
#
#######################################################################

data_DOYLIM
_chemical_formula_moiety         '(C8 H12 Cd1 N6 Ni1)n'
_symmetry_cell_setting           monoclinic
_symmetry_space_group_name_H-M   'P 21/m'
_symmetry_Int_Tables_number      11
_space_group_name_Hall           '-P 2yb'
loop_
_symmetry_equiv_pos_site_id
_symmetry_equiv_pos_as_xyz
1 x,y,z
2 -x,1/2+y,-z
3 -x,-y,-z
4 x,1/2-y,z
_cell_length_a                   9.860(5)
_cell_length_b                   15.267(6)
_cell_length_c                   7.309(4)
_cell_angle_alpha                90
_cell_angle_beta                 113.92(4)
_cell_angle_gamma                90
_cell_volume                     1005.75
loop_
_atom_site_label
_atom_site_type_symbol
_atom_site_fract_x
_atom_site_fract_y
_atom_site_fract_z
Cd1 Cd -0.02612(5) 0.2500 -0.02234(7)
Ni1 Ni 0.00000 0.0000 0.50000
C1 C 0.0168(5) 0.0885(3) 0.3333(6)
C2 C -0.0479(5) 0.0852(3) 0.6484(6)
C3 C 0.2521(9) 0.2500 -0.162(1)
C4 C 0.411(1) 0.2500 -0.127(1)
C5 C 0.455(1) 0.2500 -0.283(2)
C6 C 0.6119(8) 0.2500 -0.254(1)
N1 N 0.0243(5) 0.1423(3) 0.2312(6)
N2 N -0.0730(5) 0.1373(3) 0.7401(6)
N3 N 0.2174(6) 0.2500 0.010(1)
N4 N 0.7326(7) 0.2500 -0.064(1)
H1 H 0.2704 0.1924 0.0958
H2 H 0.4653 0.1924 -0.0248
H3 H 0.4120 0.1924 -0.3847
H4 H 0.6270 0.1924 -0.3291
H5 H 0.7161 0.1924 0.0105
H1C H 0.2704 0.3076 0.0958
H2C H 0.4653 0.3076 -0.0248
H3C H 0.4120 0.3076 -0.3847
H4C H 0.6270 0.3076 -0.3291
H5C H 0.7161 0.3076 0.0105
C1B C -0.0168(5) -0.0885(3) 0.6667(6)
C2B C 0.0479(5) -0.0852(3) 0.3516(6)
N1B N -0.0243(5) -0.1423(3) 0.7688(6)
N2B N 0.0730(5) -0.1373(3) 0.2599(6)
Cd1_2 Cd -0.02612(5) 0.2500 0.97766(7)
Cd1_3 Cd 0.97388(5) 0.2500 -0.02234(7)
Cd1A Cd 0.02612(5) -0.2500 0.02234(7)
Cd1A_2 Cd 0.02612(5) -0.2500 1.02234(7)
N1C N 0.0243(5) 0.3577(3) 0.2312(6)
N2_2 N -0.0730(5) 0.1373(3) -0.2599(6)
N2C N -0.0730(5) 0.3627(3) -0.2599(6)
N4_2 N -0.2674(7) 0.2500 -0.064(1)
loop_
_geom_bond_atom_site_label_1
_geom_bond_atom_site_label_2
_geom_bond_site_symmetry_1
_geom_bond_site_symmetry_2
Cd1 N1 1_555 1_555
Ni1 C1 1_555 1_555
C1 N1 1_555 1_555
C2 Ni1 1_555 1_555
C3 C4 1_555 1_555
C4 C5 1_555 1_555
C5 C6 1_555 1_555
C6 N4 1_555 1_555
N2 C2 1_555 1_555
N3 Cd1 1_555 1_555
N4 H5 1_555 1_555
H1 N3 1_555 1_555
H2 C4 1_555 1_555
H3 C5 1_555 1_555
H4 C6 1_555 1_555
H1C N3 1_555 1_555
H2C C4 1_555 1_555
H3C C5 1_555 1_555
H4C C6 1_555 1_555
H5C N4 1_555 1_555
C1B Ni1 1_555 1_555
C2B Ni1 1_555 1_555
N1B C1B 1_555 1_555
N2B C2B 1_555 1_555
Cd1_2 N2 1_555 1_555
Cd1_3 N4 1_555 1_555
Cd1A N2B 1_555 1_555
Cd1A_2 N1B 1_555 1_555
N1C Cd1 1_555 1_555
N2_2 Cd1 1_555 1_555
N2C Cd1 1_555 1_555
N4_2 Cd1 1_555 1_555
C3 N3 1_555 1_555

#END
