
#######################################################################
#
#                 Cambridge Crystallographic Data Centre
#                                CCDC 
#
#######################################################################
#
# If this CIF has been generated from an entry in the Cambridge 
# Structural Database, then it will include bibliographic, chemical, 
# crystal, experimental, refinement or atomic coordinate data resulting 
# from the CCDC's data processing and validation procedures.
#
#######################################################################

data_UVARIT
_chemical_formula_moiety         '(C31 H29 N3 O6 Zn1)n'
_symmetry_cell_setting           monoclinic
_symmetry_space_group_name_H-M   'C c'
_symmetry_Int_Tables_number      9
_space_group_name_Hall           'C -2yc'
loop_
_symmetry_equiv_pos_site_id
_symmetry_equiv_pos_as_xyz
1 x,y,z
2 x,-y,1/2+z
3 1/2+x,1/2+y,z
4 1/2+x,1/2-y,1/2+z
_cell_length_a                   13.488(6)
_cell_length_b                   24.834(13)
_cell_length_c                   8.409(4)
_cell_angle_alpha                90
_cell_angle_beta                 98.917(8)
_cell_angle_gamma                90
_cell_volume                     2782.64
loop_
_atom_site_label
_atom_site_type_symbol
_atom_site_fract_x
_atom_site_fract_y
_atom_site_fract_z
_atom_site_U_iso_or_equiv
_atom_site_thermal_displace_type
Zn1 Zn 0.20896(5) 0.59120(2) 0.52189(7) 0.0174 Uani
O1 O 0.1490(3) 0.61908(17) 0.3108(5) 0.0251 Uani
O2 O 0.1153(3) 0.69194(16) 0.4460(5) 0.0347 Uani
O3 O 0.3027(3) 0.52909(16) 0.4750(5) 0.0233 Uani
O4 O 0.3692(3) 0.61070(16) 0.4846(4) 0.0213 Uani
N1 N -0.2510(3) 0.8723(2) -0.7593(6) 0.0170 Uani
N2 N 1.0829(4) 0.4484(2) 0.0772(6) 0.0214 Uani
C1 C 0.1140(4) 0.6672(3) 0.3183(7) 0.0236 Uani
C2 C 0.0656(4) 0.6911(2) 0.1619(7) 0.0194 Uani
C3 C 0.0641(4) 0.6637(3) 0.0171(7) 0.0215 Uani
H1 H 0.0951 0.6293 0.0164 0.0260 Uiso
C4 C 0.0179(4) 0.6862(3) -0.1248(8) 0.0265 Uani
H2 H 0.0172 0.6668 -0.2223 0.0320 Uiso
C5 C -0.0275(4) 0.7362(3) -0.1298(7) 0.0224 Uani
C6 C -0.0258(4) 0.7640(2) 0.0168(6) 0.0249 Uani
H3 H -0.0562 0.7985 0.0171 0.0300 Uiso
C7 C 0.0197(4) 0.7415(2) 0.1600(7) 0.0248 Uani
H4 H 0.0198 0.7605 0.2580 0.0300 Uiso
C8 C -0.0761(4) 0.7578(3) -0.2850(7) 0.0237 Uani
H5 H -0.0739 0.7360 -0.3773 0.0280 Uiso
C9 C -0.1226(4) 0.8047(3) -0.3083(8) 0.0242 Uani
H6 H -0.1272 0.8258 -0.2156 0.0290 Uiso
C10 C -0.1679(4) 0.8269(3) -0.4645(8) 0.0229 Uani
C11 C -0.1959(4) 0.8801(2) -0.4772(6) 0.0215 Uani
H7 H -0.1872 0.9022 -0.3840 0.0260 Uiso
C12 C -0.2367(4) 0.9017(2) -0.6250(6) 0.0202 Uani
H8 H -0.2550 0.9387 -0.6307 0.0250 Uiso
C13 C -0.2236(4) 0.8201(2) -0.7471(8) 0.0265 Uani
H9 H -0.2332 0.7988 -0.8420 0.0320 Uiso
C14 C -0.1829(4) 0.7963(2) -0.6057(8) 0.0263 Uani
H10 H -0.1649 0.7592 -0.6033 0.0320 Uiso
C15 C 0.3746(4) 0.5613(2) 0.4614(7) 0.0182 Uani
C16 C 0.4691(4) 0.5395(3) 0.4076(6) 0.0211 Uani
C17 C 0.4790(5) 0.4858(3) 0.3718(8) 0.0293 Uani
H11 H 0.4262 0.4613 0.3819 0.0350 Uiso
C18 C 0.5675(4) 0.4673(3) 0.3203(8) 0.0303 Uani
H12 H 0.5749 0.4301 0.2993 0.0360 Uiso
C19 C 0.6434(5) 0.5026(2) 0.2999(7) 0.0239 Uani
C20 C 0.6322(4) 0.5568(2) 0.3379(7) 0.0268 Uani
H13 H 0.6848 0.5814 0.3279 0.0320 Uiso
C21 C 0.5471(4) 0.5750(3) 0.3890(7) 0.0260 Uani
H14 H 0.5407 0.6121 0.4123 0.0320 Uiso
C22 C 0.7341(4) 0.4821(2) 0.2426(7) 0.0231 Uani
H15 H 0.7343 0.4450 0.2148 0.0270 Uiso
C23 C 0.8147(4) 0.5099(2) 0.2262(7) 0.0238 Uani
H16 H 0.8143 0.5471 0.2522 0.0280 Uiso
C24 C 0.9056(4) 0.4887(3) 0.1712(7) 0.0237 Uani
C25 C 0.9085(5) 0.4371(3) 0.1076(7) 0.0260 Uani
H17 H 0.8505 0.4149 0.0957 0.0310 Uiso
C26 C 0.9984(4) 0.4183(2) 0.0611(6) 0.0207 Uani
H18 H 0.9996 0.3832 0.0167 0.0250 Uiso
C27 C 1.0785(4) 0.4986(2) 0.1365(6) 0.0193 Uani
H19 H 1.1371 0.5204 0.1489 0.0230 Uiso
C28 C 0.9916(4) 0.5194(2) 0.1801(7) 0.0223 Uani
H20 H 0.9910 0.5556 0.2168 0.0270 Uiso
Zn1A Zn 1.20896(5) 0.40880(2) 0.02189(7) 0.0174 Uani
Zn1C Zn -0.29104(5) 0.90880(2) -0.97811(7) 0.0174 Uani
N1C N 0.2490(3) 0.6277(2) 0.7407(6) 0.0170 Uani
N2A N 0.0829(4) 0.5516(2) 0.5772(6) 0.0214 Uani
O5 O 0.8241(4) 0.3456(2) 0.8163(9) 0.0687 Uani
N3 N 0.7306(4) 0.3257(2) 0.5748(10) 0.0555 Uani
C29 C 0.8136(6) 0.3410(3) 0.6697(15) 0.0640 Uani
H21 H 0.8701 0.3491 0.6193 0.0770 Uiso
C30 C 0.6397(5) 0.3112(3) 0.6380(13) 0.0697 Uani
H22 H 0.5868 0.3375 0.6014 0.1050 Uiso
H23 H 0.6533 0.3111 0.7559 0.1050 Uiso
H24 H 0.6176 0.2753 0.5992 0.1050 Uiso
C31 C 0.7278(6) 0.3212(3) 0.3981(12) 0.0663 Uani
H25 H 0.7928 0.3320 0.3702 0.0990 Uiso
H26 H 0.6751 0.3447 0.3428 0.0990 Uiso
H27 H 0.7135 0.2838 0.3646 0.0990 Uiso
O6 O 0.7194(19) 0.3328(11) 0.049(4) 0.5115 Uani
loop_
_atom_site_aniso_label
_atom_site_aniso_U_11
_atom_site_aniso_U_22
_atom_site_aniso_U_33
_atom_site_aniso_U_23
_atom_site_aniso_U_13
_atom_site_aniso_U_12
Zn1 0.0164(3) 0.0208(3) 0.0152(3) -0.0009(3) 0.00296(19) 0.0000(3)
O1 0.026(2) 0.021(2) 0.028(2) 0.0087(19) 0.0037(18) 0.0027(19)
O2 0.047(3) 0.033(2) 0.021(2) 0.0025(19) -0.0044(19) 0.000(2)
O3 0.020(2) 0.020(2) 0.030(2) -0.0033(19) 0.0038(17) 0.0011(17)
O4 0.0184(19) 0.023(2) 0.024(2) -0.0014(18) 0.0077(16) 0.0032(17)
N1 0.016(2) 0.022(3) 0.014(3) -0.001(2) 0.0054(19) 0.000(2)
N2 0.029(3) 0.016(3) 0.019(3) 0.001(2) 0.003(2) 0.002(2)
C1 0.018(3) 0.031(3) 0.020(3) 0.008(3) -0.003(2) -0.004(3)
C2 0.014(3) 0.023(3) 0.021(3) 0.008(2) 0.002(2) 0.001(2)
C3 0.014(3) 0.030(4) 0.021(3) 0.003(3) 0.004(2) 0.006(3)
C4 0.023(3) 0.035(4) 0.022(3) -0.002(3) 0.005(2) 0.004(3)
C5 0.019(3) 0.022(3) 0.025(3) 0.002(3) 0.000(2) -0.001(2)
C6 0.027(3) 0.024(3) 0.024(3) 0.004(2) 0.005(2) 0.004(3)
C7 0.029(3) 0.027(3) 0.018(3) -0.002(2) 0.002(2) 0.000(3)
C8 0.020(3) 0.029(3) 0.022(3) 0.003(3) 0.003(2) -0.002(3)
C9 0.019(3) 0.035(4) 0.018(3) 0.001(3) 0.001(2) 0.005(3)
C10 0.014(3) 0.030(4) 0.024(3) 0.004(3) 0.001(2) 0.001(3)
C11 0.021(3) 0.031(3) 0.012(3) -0.003(2) 0.001(2) -0.002(2)
C12 0.015(3) 0.022(3) 0.024(3) 0.000(2) 0.004(2) -0.001(2)
C13 0.029(3) 0.026(3) 0.024(3) -0.007(3) 0.003(3) 0.007(3)
C14 0.026(3) 0.018(3) 0.034(4) 0.002(3) 0.002(3) 0.007(3)
C15 0.023(3) 0.019(3) 0.011(3) 0.004(2) -0.002(2) 0.003(3)
C16 0.017(3) 0.031(3) 0.017(3) 0.001(3) 0.008(2) 0.002(3)
C17 0.021(3) 0.030(4) 0.041(4) -0.005(3) 0.018(3) 0.004(3)
C18 0.022(3) 0.025(3) 0.046(4) -0.009(3) 0.012(3) 0.001(3)
C19 0.022(3) 0.025(3) 0.026(3) 0.001(3) 0.008(3) 0.005(3)
C20 0.024(3) 0.025(3) 0.034(3) 0.006(3) 0.013(3) -0.004(3)
C21 0.025(3) 0.024(3) 0.029(3) -0.002(3) 0.004(3) 0.000(3)
C22 0.019(3) 0.022(3) 0.028(3) 0.002(3) 0.003(2) 0.004(2)
C23 0.027(3) 0.018(3) 0.027(3) -0.009(3) 0.006(3) 0.003(3)
C24 0.023(3) 0.033(4) 0.015(3) -0.002(3) 0.003(2) -0.004(3)
C25 0.021(3) 0.028(4) 0.030(3) 0.002(3) 0.007(3) 0.000(3)
C26 0.021(3) 0.023(3) 0.019(3) 0.001(2) 0.006(2) -0.003(3)
C27 0.021(3) 0.021(3) 0.015(3) -0.001(2) 0.000(2) -0.002(2)
C28 0.024(3) 0.017(3) 0.027(3) -0.003(2) 0.007(2) 0.004(3)
Zn1A 0.0164 0.0208 0.0152 0.0009 0.00296 0
Zn1C 0.0164 0.0208 0.0152 0.0009 0.00296 0
N1C 0.016 0.022 0.014 0.001 0.0054 0
N2A 0.029 0.016 0.019 -0.001 0.003 -0.002
O5 0.047(3) 0.034(3) 0.129(6) -0.027(4) 0.026(4) -0.003(3)
N3 0.022(3) 0.030(3) 0.118(7) -0.019(4) 0.022(3) -0.003(3)
C29 0.026(4) 0.028(4) 0.140(9) -0.020(5) 0.019(5) 0.001(3)
C30 0.032(4) 0.052(5) 0.132(9) -0.034(5) 0.034(5) -0.016(4)
C31 0.030(4) 0.037(5) 0.132(9) 0.009(5) 0.013(5) -0.001(4)
O6 0.38(3) 0.54(4) 0.60(5) 0.30(4) 0.03(3) -0.04(3)
loop_
_geom_bond_atom_site_label_1
_geom_bond_atom_site_label_2
_geom_bond_site_symmetry_1
_geom_bond_site_symmetry_2
Zn1 O1 1_555 1_555
O1 C1 1_555 1_555
O2 C1 1_555 1_555
O3 Zn1 1_555 1_555
O4 Zn1 1_555 1_555
N1 C12 1_555 1_555
N2 C26 1_555 1_555
C1 C2 1_555 1_555
C2 C3 1_555 1_555
C3 H1 1_555 1_555
C4 C3 1_555 1_555
H2 C4 1_555 1_555
C5 C4 1_555 1_555
C6 C5 1_555 1_555
H3 C6 1_555 1_555
C7 C2 1_555 1_555
H4 C7 1_555 1_555
C8 C5 1_555 1_555
H5 C8 1_555 1_555
C9 C8 1_555 1_555
H6 C9 1_555 1_555
C10 C9 1_555 1_555
C11 C10 1_555 1_555
H7 C11 1_555 1_555
C12 C11 1_555 1_555
H8 C12 1_555 1_555
C13 N1 1_555 1_555
H9 C13 1_555 1_555
C14 C10 1_555 1_555
H10 C14 1_555 1_555
C15 O3 1_555 1_555
C16 C15 1_555 1_555
C17 C16 1_555 1_555
H11 C17 1_555 1_555
C18 C17 1_555 1_555
H12 C18 1_555 1_555
C19 C18 1_555 1_555
C20 C19 1_555 1_555
H13 C20 1_555 1_555
C21 C16 1_555 1_555
H14 C21 1_555 1_555
C22 C19 1_555 1_555
H15 C22 1_555 1_555
C23 C22 1_555 1_555
H16 C23 1_555 1_555
C24 C23 1_555 1_555
C25 C24 1_555 1_555
H17 C25 1_555 1_555
C26 C25 1_555 1_555
H18 C26 1_555 1_555
C27 N2 1_555 1_555
H19 C27 1_555 1_555
C28 C24 1_555 1_555
H20 C28 1_555 1_555
O5 C29 1_555 1_555
N3 C29 1_555 1_555
C29 H21 1_555 1_555
C30 N3 1_555 1_555
H22 C30 1_555 1_555
H23 C30 1_555 1_555
H24 C30 1_555 1_555
C31 N3 1_555 1_555
H25 C31 1_555 1_555
H26 C31 1_555 1_555
H27 C31 1_555 1_555
Zn1A N2 1_555 1_555
Zn1C N1 1_555 1_555
N1C Zn1 1_555 1_555
N2A Zn1 1_555 1_555
O4 C15 1_555 1_555
C6 C7 1_555 1_555
C13 C14 1_555 1_555
C20 C21 1_555 1_555
C27 C28 1_555 1_555

#END
