
#######################################################################
#
#                 Cambridge Crystallographic Data Centre
#                                CCDC 
#
#######################################################################
#
# If this CIF has been generated from an entry in the Cambridge 
# Structural Database, then it will include bibliographic, chemical, 
# crystal, experimental, refinement or atomic coordinate data resulting 
# from the CCDC's data processing and validation procedures.
#
#######################################################################

data_PAPLUQ
_chemical_formula_moiety         '(C18 H11 Cu2 N5 O4 S1)n'
_symmetry_cell_setting           orthorhombic
_symmetry_space_group_name_H-M   'P c c n'
_symmetry_Int_Tables_number      56
_space_group_name_Hall           '-P 2ab 2ac'
loop_
_symmetry_equiv_pos_site_id
_symmetry_equiv_pos_as_xyz
1 x,y,z
2 1/2-x,1/2-y,z
3 -x,1/2+y,1/2-z
4 1/2+x,-y,1/2-z
5 -x,-y,-z
6 1/2+x,1/2+y,-z
7 x,1/2-y,1/2+z
8 1/2-x,y,1/2+z
_cell_length_a                   19.2980(12)
_cell_length_b                   28.0498(17)
_cell_length_c                   11.5659(7)
_cell_angle_alpha                90
_cell_angle_beta                 90
_cell_angle_gamma                90
_cell_volume                     6260.68
loop_
_atom_site_label
_atom_site_type_symbol
_atom_site_fract_x
_atom_site_fract_y
_atom_site_fract_z
_atom_site_U_iso_or_equiv
_atom_site_thermal_displace_type
Cu1 Cu 0.48353(5) 0.47952(3) 0.17886(11) 0.0589 Uani
Cu2 Cu 0.50106(7) 0.76094(3) 0.66757(7) 0.0646 Uani
S1 S 0.24361(9) 0.49604(7) 0.28227(16) 0.0409 Uani
O1 O 0.3869(2) 0.47668(15) 0.2170(4) 0.0297 Uani
O2 O 0.4261(2) 0.45624(19) 0.3917(4) 0.0473 Uani
N1 N 0.5129(3) 0.90923(19) 0.3561(5) 0.0360 Uani
N2 N 0.4856(3) 0.54626(18) 0.2414(5) 0.0377 Uani
O3 O 0.1015(3) 0.5238(2) 0.2671(6) 0.0780 Uani
N3 N 0.4935(4) 0.72742(19) 0.3272(5) 0.0457 Uani
N4 N 0.5022(4) 0.73979(18) 0.5178(5) 0.0513 Uani
O4 O 0.0684(3) 0.5031(2) 0.4468(6) 0.0837 Uani
N5 N 0.4976(4) 0.69108(19) 0.5002(5) 0.0510 Uani
H1 H 0.4971 0.6692 0.5522 0.0610 Uiso
C1 C 0.5005(4) 0.7596(2) 0.4095(5) 0.0390 Uani
C2 C 0.3787(3) 0.4679(2) 0.3244(6) 0.0333 Uani
C3 C 0.3077(3) 0.4738(2) 0.3698(6) 0.0337 Uani
C4 C 0.4605(4) 0.6294(2) 0.2266(6) 0.0387 Uani
H2 H 0.4430 0.6545 0.1832 0.0460 Uiso
C5 C 0.4941(4) 0.6850(2) 0.3841(5) 0.0417 Uani
C6 C 0.5051(4) 0.8114(2) 0.3929(5) 0.0310 Uani
C7 C 0.4903(4) 0.6373(2) 0.3349(5) 0.0377 Uani
C8 C 0.4753(5) 0.8813(3) 0.2886(6) 0.0543 Uani
H3 H 0.4509 0.8954 0.2283 0.0650 Uiso
C9 C 0.5136(4) 0.5542(2) 0.3448(6) 0.0433 Uani
H4 H 0.5326 0.5287 0.3851 0.0520 Uiso
C10 C 0.5446(4) 0.8403(2) 0.4616(7) 0.0483 Uani
H5 H 0.5701 0.8274 0.5222 0.0580 Uiso
C11 C 0.1846(3) 0.4929(3) 0.3906(7) 0.0470 Uani
C12 C 0.5156(5) 0.5988(2) 0.3940(7) 0.0503 Uani
H6 H 0.5341 0.6028 0.4676 0.0610 Uiso
C13 C 0.5466(4) 0.8889(2) 0.4409(7) 0.0490 Uani
H7 H 0.5732 0.9079 0.4895 0.0590 Uiso
C14 C 0.4578(4) 0.5831(2) 0.1856(7) 0.0447 Uani
H8 H 0.4355 0.5775 0.1156 0.0540 Uiso
C15 C 0.2834(4) 0.4650(3) 0.4798(6) 0.0513 Uani
H9 H 0.3104 0.4531 0.5397 0.0620 Uiso
C16 C 0.4697(5) 0.8331(2) 0.3017(6) 0.0497 Uani
H10 H 0.4429 0.8151 0.2510 0.0600 Uiso
C17 C 0.2121(4) 0.4764(4) 0.4905(7) 0.0640 Uani
H11 H 0.1870 0.4729 0.5587 0.0760 Uiso
C18 C 0.1131(4) 0.5084(3) 0.3639(5) 0.0640 Uani
Cu1B Cu 0.51647(5) 0.97952(3) 0.32114(11) 0.0589 Uani
Cu1C Cu -0.01647(5) 0.52048(3) 0.32114(11) 0.0589 Uani
Cu2F Cu 0.50106(7) 0.73906(3) 0.16757(7) 0.0646 Uani
N1B N 0.4871(3) 0.40923(19) 0.1439(5) 0.0360 Uani
O3C O 0.6015(3) 0.4762(2) 0.2329(6) 0.0780 Uani
N3F N 0.4935(4) 0.77258(19) 0.8272(5) 0.0457 Uani
O4C O 0.5684(3) 0.4969(2) 0.0532(6) 0.0837 Uani
loop_
_atom_site_aniso_label
_atom_site_aniso_U_11
_atom_site_aniso_U_22
_atom_site_aniso_U_33
_atom_site_aniso_U_23
_atom_site_aniso_U_13
_atom_site_aniso_U_12
Cu1 0.0501(6) 0.0208(4) 0.1058(9) -0.0229(5) 0.0486(6) -0.0106(4)
Cu2 0.1576(13) 0.0247(5) 0.0116(4) -0.0015(3) -0.0047(6) 0.0020(5)
S1 0.0270(9) 0.0554(11) 0.0403(10) -0.0006(9) -0.0045(8) 0.0099(8)
O1 0.026(2) 0.042(3) 0.021(2) -0.002(2) 0.0019(18) 0.0008(19)
O2 0.026(3) 0.070(4) 0.046(3) 0.016(3) 0.000(2) 0.011(2)
N1 0.045(4) 0.021(3) 0.042(4) 0.003(2) 0.012(3) 0.003(2)
N2 0.043(3) 0.021(3) 0.049(4) -0.006(3) 0.013(3) -0.003(2)
O3 0.047(3) 0.056(4) 0.131(5) -0.031(4) -0.039(3) 0.010(3)
N3 0.098(5) 0.023(3) 0.016(3) -0.003(2) -0.002(3) -0.002(3)
N4 0.118(6) 0.019(3) 0.017(3) -0.002(2) -0.002(3) 0.001(3)
O4 0.023(3) 0.071(4) 0.157(5) -0.056(4) 0.021(3) -0.005(3)
N5 0.119(5) 0.023(3) 0.011(2) 0.007(2) 0.000(3) -0.002(3)
C1 0.074(5) 0.025(3) 0.018(3) 0.002(3) -0.007(3) -0.002(3)
C2 0.026(4) 0.035(4) 0.039(4) -0.001(3) 0.001(3) 0.003(3)
C3 0.026(4) 0.047(4) 0.028(3) 0.001(3) -0.001(3) 0.003(3)
C4 0.073(5) 0.022(3) 0.021(3) -0.004(3) -0.002(3) 0.004(3)
C5 0.089(6) 0.020(3) 0.016(3) 0.007(3) -0.004(4) 0.008(3)
C6 0.056(4) 0.025(3) 0.012(3) 0.000(2) -0.002(3) -0.004(3)
C7 0.074(5) 0.024(3) 0.015(3) 0.000(3) 0.011(3) -0.004(3)
C8 0.105(7) 0.033(4) 0.025(4) 0.005(3) -0.008(4) 0.001(4)
C9 0.075(5) 0.021(3) 0.034(4) 0.000(3) -0.002(4) 0.004(3)
C10 0.070(5) 0.032(4) 0.043(4) 0.007(3) -0.006(4) 0.002(4)
C11 0.017(3) 0.066(5) 0.058(5) -0.019(4) -0.006(3) 0.010(3)
C12 0.093(6) 0.024(4) 0.034(4) -0.001(3) -0.013(4) 0.001(4)
C13 0.056(5) 0.029(4) 0.062(5) -0.006(4) 0.004(4) -0.005(3)
C14 0.063(5) 0.028(4) 0.043(4) -0.007(3) -0.001(4) 0.005(3)
C15 0.030(4) 0.093(6) 0.031(4) 0.014(4) 0.000(3) 0.009(4)
C16 0.101(7) 0.032(4) 0.016(3) -0.009(3) -0.019(4) 0.004(4)
C17 0.033(5) 0.117(8) 0.042(5) -0.009(5) 0.012(4) -0.002(5)
C18 0.035(4) 0.053(5) 0.104(5) -0.051(4) -0.003(3) 0.001(4)
Cu1B 0.0501 0.0208 0.1058 0.0229 0.0486 0.0106
Cu1C 0.0501 0.0208 0.1058 -0.0229 -0.0486 0.0106
Cu2F 0.1576 0.0247 0.0116 0.0015 -0.0047 -0.002
N1B 0.045 0.021 0.042 -0.003 0.012 -0.003
O3C 0.047 0.056 0.131 -0.031 0.039 -0.01
N3F 0.098 0.023 0.016 0.003 -0.002 0.002
O4C 0.023 0.071 0.157 -0.056 -0.021 0.005
loop_
_geom_bond_atom_site_label_1
_geom_bond_atom_site_label_2
_geom_bond_site_symmetry_1
_geom_bond_site_symmetry_2
Cu1 O1 1_555 1_555
Cu2 N4 1_555 1_555
S1 C3 1_555 1_555
O1 C2 1_555 1_555
O2 Cu1 1_555 1_555
N1 C8 1_555 1_555
N2 Cu1 1_555 1_555
O3 C18 1_555 1_555
N3 C1 1_555 1_555
N4 N5 1_555 1_555
O4 C18 1_555 1_555
N5 H1 1_555 1_555
C1 N4 1_555 1_555
C2 O2 1_555 1_555
C3 C2 1_555 1_555
C4 H2 1_555 1_555
C5 N3 1_555 1_555
C6 C1 1_555 1_555
C7 C4 1_555 1_555
C8 H3 1_555 1_555
C9 N2 1_555 1_555
H4 C9 1_555 1_555
C10 C6 1_555 1_555
H5 C10 1_555 1_555
C11 S1 1_555 1_555
C12 C7 1_555 1_555
H6 C12 1_555 1_555
C13 N1 1_555 1_555
H7 C13 1_555 1_555
C14 N2 1_555 1_555
H8 C14 1_555 1_555
C15 C3 1_555 1_555
H9 C15 1_555 1_555
C16 C6 1_555 1_555
H10 C16 1_555 1_555
C17 C11 1_555 1_555
H11 C17 1_555 1_555
C18 C11 1_555 1_555
Cu1B N1 1_555 1_555
Cu1C O3 1_555 1_555
Cu2F N3 1_555 1_555
N1B Cu1 1_555 1_555
O3C Cu1 1_555 1_555
N3F Cu2 1_555 1_555
O4C Cu1 1_555 1_555
O4 Cu1C 1_555 1_555
N5 C5 1_555 1_555
C4 C14 1_555 1_555
C5 C7 1_555 1_555
C8 C16 1_555 1_555
C9 C12 1_555 1_555
C10 C13 1_555 1_555
C15 C17 1_555 1_555

#END
