
#######################################################################
#
#                 Cambridge Crystallographic Data Centre
#                                CCDC 
#
#######################################################################
#
# If this CIF has been generated from an entry in the Cambridge 
# Structural Database, then it will include bibliographic, chemical, 
# crystal, experimental, refinement or atomic coordinate data resulting 
# from the CCDC's data processing and validation procedures.
#
#######################################################################

data_PARWAJ
_chemical_formula_moiety         'C16 H12 N22 O12 Zn5'
_symmetry_cell_setting           orthorhombic
_symmetry_space_group_name_H-M   'P c c n'
_symmetry_Int_Tables_number      56
_space_group_name_Hall           '-P 2ab 2ac'
loop_
_symmetry_equiv_pos_site_id
_symmetry_equiv_pos_as_xyz
1 x,y,z
2 1/2-x,1/2-y,z
3 1/2+x,-y,1/2-z
4 -x,1/2+y,1/2-z
5 -x,-y,-z
6 1/2+x,1/2+y,-z
7 1/2-x,y,1/2+z
8 x,1/2-y,1/2+z
_cell_length_a                   8.462(8)
_cell_length_b                   14.549(15)
_cell_length_c                   18.799(18)
_cell_angle_alpha                90
_cell_angle_beta                 90
_cell_angle_gamma                90
_cell_volume                     2314.41
loop_
_atom_site_label
_atom_site_type_symbol
_atom_site_fract_x
_atom_site_fract_y
_atom_site_fract_z
_atom_site_U_iso_or_equiv
_atom_site_thermal_displace_type
Zn1 Zn 0.88751(13) 0.06121(7) 0.85522(5) 0.0458 Uani
O1 O 1.0521(8) -0.0975(4) 0.8361(3) 0.0650 Uani
O2 O 1.2234(9) -0.1455(4) 0.7599(3) 0.0687 Uani
N1 N 1.0518(9) 0.0720(4) 0.7757(3) 0.0473 Uani
N2 N 1.2274(9) 0.0223(4) 0.6955(3) 0.0517 Uani
N3 N 1.1387(9) -0.0864(5) 0.7847(3) 0.0513 Uani
C1 C 1.1415(10) 0.0040(5) 0.7523(4) 0.0467 Uani
C2 C 1.0846(12) 0.1412(5) 0.7314(4) 0.0557 Uani
H1 H 1.0394 0.2009 0.7334 0.0670 Uiso
C3 C 1.1944(11) 0.1120(5) 0.6824(4) 0.0557 Uani
H2 H 1.2393 0.1484 0.6456 0.0670 Uiso
O3 O 0.5799(15) 0.1235(6) 0.8809(8) 0.0643 Uani
O4 O 0.4755(13) 0.2609(8) 0.8791(9) 0.0657 Uani
N4 N 0.8731(11) 0.1958(7) 0.8854(6) 0.0497 Uani
N5 N 0.7664(13) 0.3386(5) 0.8859(6) 0.0480 Uani
N6 N 0.5884(10) 0.2078(7) 0.8814(7) 0.0480 Uani
C4 C 0.7500 0.2500 0.8830(5) 0.0450 Uani
C5 C 0.9926(14) 0.2613(10) 0.8842(10) 0.0580 Uani
H3 H 1.1021 0.2483 0.8793 0.0690 Uiso
C6 C 0.9294(15) 0.3465(9) 0.8910(10) 0.0453 Uani
H4 H 0.9867 0.4019 0.8981 0.0550 Uiso
O5 O 0.829(3) -0.0703(10) 1.0752(9) 0.0563 Uani
O6 O 0.744(3) -0.0260(12) 0.9690(11) 0.0627 Uani
N7 N 1.0315(15) 0.0425(8) 0.9396(6) 0.0463 Uani
N8 N 0.8423(16) -0.0341(8) 1.0162(10) 0.0453 Uani
N9 N 1.1197(14) -0.0019(8) 1.0460(6) 0.0443 Uani
C7 C 1.0000 -0.0000 1.0000 0.0377 Uani
C8 C 1.243(3) 0.0394(12) 1.0113(13) 0.0387 Uani
H5 H 1.3469 0.0476 1.0292 0.0470 Uiso
C9 C 1.189(2) 0.0665(14) 0.9463(13) 0.0470 Uani
H6 H 1.2497 0.0971 0.9111 0.0560 Uiso
O3A O 0.9201(15) 0.3765(6) 0.8809(8) 0.0643 Uani
O4A O 1.0245(13) 0.2391(8) 0.8791(9) 0.0657 Uani
N4A N 0.6269(11) 0.3042(7) 0.8854(6) 0.0497 Uani
N5A N 0.7336(13) 0.1614(5) 0.8859(6) 0.0480 Uani
N6A N 0.9116(10) 0.2922(7) 0.8814(7) 0.0480 Uani
C5A C 0.5074(14) 0.2387(10) 0.8842(10) 0.0580 Uani
H3A H 0.3979 0.2517 0.8793 0.0690 Uiso
C6A C 0.5706(15) 0.1535(9) 0.8910(10) 0.0453 Uani
H4A H 0.5133 0.0981 0.8981 0.0550 Uiso
O5D O 1.171(3) 0.0703(10) 0.9248(9) 0.0563 Uani
O6D O 1.256(3) 0.0260(12) 1.0310(11) 0.0627 Uani
N7D N 0.9685(15) -0.0425(8) 1.0604(6) 0.0463 Uani
N8D N 1.1577(16) 0.0341(8) 0.9838(10) 0.0453 Uani
N9D N 0.8803(14) 0.0019(8) 0.9540(6) 0.0443 Uani
C8D C 0.757(3) -0.0394(12) 0.9887(13) 0.0387 Uani
H5D H 0.6531 -0.0476 0.9708 0.0470 Uiso
C9D C 0.811(2) -0.0665(14) 1.0537(13) 0.0470 Uani
H6D H 0.7503 -0.0971 1.0889 0.0560 Uiso
Zn1A Zn 0.61249(13) 0.43879(7) 0.85522(5) 0.0458 Uani
O1A O 0.4479(8) 0.5975(4) 0.8361(3) 0.0650 Uani
O2A O 0.2766(9) 0.6455(4) 0.7599(3) 0.0687 Uani
N1A N 0.4482(9) 0.4280(4) 0.7757(3) 0.0473 Uani
N2A N 0.2726(9) 0.4777(4) 0.6955(3) 0.0517 Uani
N3A N 0.3613(9) 0.5864(5) 0.7847(3) 0.0513 Uani
C1A C 0.3585(10) 0.4960(5) 0.7523(4) 0.0467 Uani
C2A C 0.4154(12) 0.3588(5) 0.7314(4) 0.0557 Uani
H1A H 0.4606 0.2991 0.7334 0.0670 Uiso
C3A C 0.3056(11) 0.3880(5) 0.6824(4) 0.0557 Uani
H2A H 0.2607 0.3516 0.6456 0.0670 Uiso
Zn1B Zn 1.38751(13) -0.06121(7) 0.64478(5) 0.0458 Uani
Zn1C Zn 0.11249(13) 0.56121(7) 0.64478(5) 0.0458 Uani
Zn1D Zn 1.11249(13) -0.06121(7) 1.14478(5) 0.0458 Uani
N2B N 0.7274(9) -0.0223(4) 0.8045(3) 0.0517 Uani
N2C N 0.7726(9) 0.5223(4) 0.8045(3) 0.0517 Uani
N7A N 0.4685(15) 0.4575(8) 0.9396(6) 0.0463 Uani
N9E N 0.6197(14) 0.4981(8) 0.9540(6) 0.0443 Uani
loop_
_atom_site_aniso_label
_atom_site_aniso_U_11
_atom_site_aniso_U_22
_atom_site_aniso_U_33
_atom_site_aniso_U_23
_atom_site_aniso_U_13
_atom_site_aniso_U_12
Zn1 0.0531(7) 0.0447(6) 0.0395(6) 0.0007(4) -0.0035(5) 0.0046(5)
O1 0.085(5) 0.054(4) 0.056(4) 0.015(3) 0.024(3) 0.010(3)
O2 0.092(5) 0.047(3) 0.067(4) 0.003(3) 0.027(4) 0.020(4)
N1 0.065(4) 0.036(3) 0.041(4) -0.002(3) 0.007(3) 0.004(3)
N2 0.070(5) 0.039(3) 0.046(4) 0.001(3) 0.009(4) 0.006(4)
N3 0.067(5) 0.044(4) 0.043(4) 0.004(3) 0.010(4) 0.005(4)
C1 0.068(5) 0.036(4) 0.036(4) 0.002(3) 0.003(4) -0.001(4)
C2 0.087(7) 0.032(4) 0.048(5) 0.005(3) 0.008(5) 0.005(4)
C3 0.079(6) 0.042(4) 0.046(5) 0.007(4) 0.013(4) 0.001(4)
O3 0.052(8) 0.046(5) 0.095(12) -0.002(5) -0.003(7) 0.010(5)
O4 0.050(6) 0.041(6) 0.106(13) 0.009(6) 0.008(6) 0.002(5)
N4 0.052(6) 0.046(5) 0.051(7) -0.001(5) -0.004(5) 0.008(4)
N5 0.050(6) 0.046(5) 0.048(7) 0.003(4) -0.006(5) 0.005(4)
N6 0.049(5) 0.045(5) 0.050(8) -0.006(5) -0.001(5) 0.006(4)
C4 0.051(4) 0.046(4) 0.038(5) 0.000 0.000 0.006(3)
C5 0.054(7) 0.052(7) 0.068(14) 0.017(7) -0.020(6) 0.004(5)
C6 0.045(6) 0.054(7) 0.037(9) 0.019(7) -0.015(6) 0.006(5)
O5 0.072(12) 0.068(10) 0.029(11) 0.015(6) -0.005(8) 0.003(8)
O6 0.052(11) 0.088(12) 0.048(10) 0.012(8) -0.019(9) -0.006(9)
N7 0.050(8) 0.054(8) 0.035(7) -0.001(6) 0.001(6) 0.002(7)
N8 0.037(10) 0.054(9) 0.045(10) -0.003(8) -0.003(9) 0.012(7)
N9 0.041(8) 0.056(8) 0.036(7) 0.002(6) -0.012(6) 0.006(7)
C7 0.037(6) 0.043(6) 0.033(5) 0.005(4) 0.002(5) 0.007(5)
C8 0.023(13) 0.056(12) 0.037(15) -0.002(10) -0.006(10) -0.012(9)
C9 0.040(12) 0.085(17) 0.016(14) 0.011(11) -0.004(10) -0.006(11)
O3A 0.052 0.046 0.095 0.002 0.003 0.01
O4A 0.05 0.041 0.106 -0.009 -0.008 0.002
N4A 0.052 0.046 0.051 0.001 0.004 0.008
N5A 0.05 0.046 0.048 -0.003 0.006 0.005
N6A 0.049 0.045 0.05 0.006 0.001 0.006
C5A 0.054 0.052 0.068 -0.017 0.02 0.004
C6A 0.045 0.054 0.037 -0.019 0.015 0.006
O5D 0.072 0.068 0.029 0.015 -0.005 0.003
O6D 0.052 0.088 0.048 0.012 -0.019 -0.006
N7D 0.05 0.054 0.035 -0.001 0.001 0.002
N8D 0.037 0.054 0.045 -0.003 -0.003 0.012
N9D 0.041 0.056 0.036 0.002 -0.012 0.006
C8D 0.023 0.056 0.037 -0.002 -0.006 -0.012
C9D 0.04 0.085 0.016 0.011 -0.004 -0.006
Zn1A 0.0531 0.0447 0.0395 -0.0007 0.0035 0.0046
O1A 0.085 0.054 0.056 -0.015 -0.024 0.01
O2A 0.092 0.047 0.067 -0.003 -0.027 0.02
N1A 0.065 0.036 0.041 0.002 -0.007 0.004
N2A 0.07 0.039 0.046 -0.001 -0.009 0.006
N3A 0.067 0.044 0.043 -0.004 -0.01 0.005
C1A 0.068 0.036 0.036 -0.002 -0.003 -0.001
C2A 0.087 0.032 0.048 -0.005 -0.008 0.005
C3A 0.079 0.042 0.046 -0.007 -0.013 0.001
Zn1B 0.0531 0.0447 0.0395 0.0007 0.0035 -0.0046
Zn1C 0.0531 0.0447 0.0395 -0.0007 -0.0035 -0.0046
Zn1D 0.0531 0.0447 0.0395 0.0007 -0.0035 0.0046
N2B 0.07 0.039 0.046 0.001 -0.009 -0.006
N2C 0.07 0.039 0.046 -0.001 0.009 -0.006
N7A 0.05 0.054 0.035 0.001 -0.001 0.002
N9E 0.041 0.056 0.036 -0.002 0.012 0.006
loop_
_geom_bond_atom_site_label_1
_geom_bond_atom_site_label_2
_geom_bond_site_symmetry_1
_geom_bond_site_symmetry_2
Zn1 N1 1_555 1_555
O1 N3 1_555 1_555
O2 N3 1_555 1_555
N1 C1 1_555 1_555
N2 C1 1_555 1_555
N3 C1 1_555 1_555
C2 N1 1_555 1_555
H1 C2 1_555 1_555
C3 N2 1_555 1_555
H2 C3 1_555 1_555
O3 N6 1_555 1_555
O4 N6 1_555 1_555
N4 Zn1 1_555 1_555
N5 C4 1_555 1_555
N6 C4 1_555 1_555
C4 N4 1_555 1_555
C5 N4 1_555 1_555
H3 C5 1_555 1_555
C6 N5 1_555 1_555
H4 C6 1_555 1_555
O5 N8 1_555 1_555
O6 N8 1_555 1_555
N7 Zn1 1_555 1_555
N8 C7 1_555 1_555
N9 C7 1_555 1_555
C7 N7 1_555 1_555
C8 N9 1_555 1_555
H5 C8 1_555 1_555
C9 N7 1_555 1_555
H6 C9 1_555 1_555
O3A N5 1_555 1_555
O4A N4 1_555 1_555
N4A O4 1_555 1_555
N5A Zn1 1_555 1_555
N6A N4 1_555 1_555
C5A O3 1_555 1_555
H3A O4 1_555 1_555
C6A O4 1_555 1_555
H4A O3 1_555 1_555
O5D N7 1_555 1_555
O6D N9 1_555 1_555
N7D O5 1_555 1_555
N8D N7 1_555 1_555
N9D Zn1 1_555 1_555
C8D O5 1_555 1_555
H5D O6 1_555 1_555
C9D O6 1_555 1_555
H6D O5 1_555 1_555
Zn1A N5 1_555 1_555
O1A N3A 1_555 1_555
O2A N3A 1_555 1_555
N1A Zn1A 1_555 1_555
N2A C1A 1_555 1_555
N3A C1A 1_555 1_555
C1A N1A 1_555 1_555
C2A N1A 1_555 1_555
H1A C2A 1_555 1_555
C3A N2A 1_555 1_555
H2A C3A 1_555 1_555
Zn1B N2 1_555 1_555
Zn1C N2A 1_555 1_555
Zn1D N9 1_555 1_555
N2B Zn1 1_555 1_555
N2C Zn1A 1_555 1_555
N7A Zn1A 1_555 1_555
N9E Zn1A 1_555 1_555
C2 C3 1_555 1_555
O3 N5A 1_555 1_555
N4 N5A 1_555 1_555
N5 N4A 1_555 1_555
N5 N6A 1_555 1_555
N6 N4A 1_555 1_555
N6 N5A 1_555 1_555
N6 C5A 1_555 1_555
N6 C6A 1_555 1_555
C4 N4A 1_555 1_555
C4 N5A 1_555 1_555
C4 N6A 1_555 1_555
C5 C6 1_555 1_555
C5 O3A 1_555 1_555
C5 N6A 1_555 1_555
H3 O4A 1_555 1_555
C6 O4A 1_555 1_555
C6 N6A 1_555 1_555
H4 O3A 1_555 1_555
O6 N9D 1_555 1_555
N7 N9D 1_555 1_555
N8 N7D 1_555 1_555
N8 N9D 1_555 1_555
N8 C8D 1_555 1_555
N8 C9D 1_555 1_555
N9 N7D 1_555 1_555
N9 N8D 1_555 1_555
C7 N7D 1_555 1_555
C7 N8D 1_555 1_555
C7 N9D 1_555 1_555
C8 C9 1_555 1_555
C8 O5D 1_555 1_555
C8 N8D 1_555 1_555
H5 O6D 1_555 1_555
C9 O6D 1_555 1_555
C9 N8D 1_555 1_555
H6 O5D 1_555 1_555
O3A N6A 1_555 1_555
O4A N6A 1_555 1_555
N4A C5A 1_555 1_555
N4A Zn1A 1_555 1_555
N5A C6A 1_555 1_555
C5A H3A 1_555 1_555
C5A C6A 1_555 1_555
C6A H4A 1_555 1_555
O5D N8D 1_555 1_555
O6D N8D 1_555 1_555
N7D C9D 1_555 1_555
N7D Zn1D 1_555 1_555
N9D C8D 1_555 1_555
C8D H5D 1_555 1_555
C8D C9D 1_555 1_555
C9D H6D 1_555 1_555
C2A C3A 1_555 1_555
N7A N9E 1_555 1_555

#END
