
#######################################################################
#
#                 Cambridge Crystallographic Data Centre
#                                CCDC 
#
#######################################################################
#
# If this CIF has been generated from an entry in the Cambridge 
# Structural Database, then it will include bibliographic, chemical, 
# crystal, experimental, refinement or atomic coordinate data resulting 
# from the CCDC's data processing and validation procedures.
#
#######################################################################

data_BARZOK
_chemical_formula_moiety         '(C34 H22 Cu2 N2 O8)n'
_symmetry_cell_setting           rhombohedral
_symmetry_space_group_name_H-M   'R -3 c'
_symmetry_Int_Tables_number      167
_space_group_name_Hall           '-R 3 2"c'
loop_
_symmetry_equiv_pos_site_id
_symmetry_equiv_pos_as_xyz
1 x,y,z
2 -y,x-y,z
3 -x+y,-x,z
4 y,x,1/2-z
5 2/3+x,1/3+y,1/3+z
6 2/3-y,1/3+x-y,1/3+z
7 2/3-x+y,1/3-x,1/3+z
8 2/3+y,1/3+x,5/6-z
9 1/3+x,2/3+y,2/3+z
10 1/3+y,2/3+x,1/6-z
11 x-y,-y,1/2-z
12 -x,-x+y,1/2-z
13 1/3-y,2/3+x-y,2/3+z
14 1/3-x+y,2/3-x,2/3+z
15 1/3+x-y,2/3-y,1/6-z
16 1/3-x,2/3-x+y,1/6-z
17 2/3+x-y,1/3-y,5/6-z
18 2/3-x,1/3-x+y,5/6-z
19 -x,-y,-z
20 y,-x+y,-z
21 x-y,x,-z
22 -y,-x,1/2+z
23 1/3-x,2/3-y,2/3-z
24 1/3+y,2/3-x+y,2/3-z
25 1/3+x-y,2/3+x,2/3-z
26 1/3-y,2/3-x,1/6+z
27 2/3-x,1/3-y,1/3-z
28 2/3-y,1/3-x,5/6+z
29 -x+y,y,1/2+z
30 x,x-y,1/2+z
31 2/3+y,1/3-x+y,1/3-z
32 2/3+x-y,1/3+x,1/3-z
33 2/3-x+y,1/3+y,5/6+z
34 2/3+x,1/3+x-y,5/6+z
35 1/3-x+y,2/3+y,1/6+z
36 1/3+x,2/3+x-y,1/6+z
_cell_length_a                   30.337(2)
_cell_length_b                   30.337(2)
_cell_length_c                   18.380(2)
_cell_angle_alpha                90
_cell_angle_beta                 90
_cell_angle_gamma                120
_cell_volume                     14649.5
loop_
_atom_site_label
_atom_site_type_symbol
_atom_site_fract_x
_atom_site_fract_y
_atom_site_fract_z
_atom_site_U_iso_or_equiv
_atom_site_thermal_displace_type
Cu1 Cu 0.51927(4) 0.97383(4) 0.03335(6) 0.0285 Uani
O1 O 0.4798(2) 0.9828(2) 0.1143(3) 0.0354 Uani
O2 O 0.5762(2) 1.0412(2) 0.0588(3) 0.0348 Uani
O3 O 0.5429(2) 1.0849(2) 0.0050(3) 0.0318 Uani
O4 O 0.4453(2) 1.0231(2) 0.0583(3) 0.0339 Uani
N1 N 0.5380(3) 0.9284(3) 0.1068(4) 0.0313 Uani
C1 C 0.5355(3) 0.8825(4) 0.0914(6) 0.0338 Uani
C2 C 0.5453(4) 0.9430(4) 0.1751(5) 0.0391 Uani
H1 H 0.5477 0.9747 0.1863 0.0100 Uiso
C3 C 0.5300(4) 0.8659(4) 0.0200(6) 0.0412 Uani
H2 H 0.5275 0.8857 -0.0181 0.0600 Uiso
C4 C 0.5393(4) 0.8525(4) 0.1477(6) 0.0396 Uani
C5 C 0.5497(4) 0.9155(5) 0.2325(6) 0.0499 Uani
H3 H 0.5552 0.9284 0.2808 0.0500 Uiso
C6 C 0.5281(4) 0.8208(4) 0.0045(7) 0.0519 Uani
H4 H 0.5242 0.8095 -0.0445 0.0700 Uiso
C7 C 0.5368(4) 0.8061(4) 0.1280(7) 0.0546 Uani
H5 H 0.5388 0.7852 0.1649 0.0400 Uiso
C8 C 0.5459(4) 0.8700(5) 0.2177(6) 0.0524 Uani
H6 H 0.5479 0.8502 0.2562 0.0800 Uiso
C9 C 0.5318(4) 0.7911(4) 0.0591(7) 0.0582 Uani
H7 H 0.5308 0.7602 0.0471 0.0400 Uiso
C10 C 0.4529(3) 1.0036(3) 0.1142(5) 0.0269 Uani
C11 C 0.4276(3) 1.0033(3) 0.1851(5) 0.0249 Uani
C12 C 0.4475(5) 1.0000 0.2500 0.0303 Uani
H8 H 0.4788 1.0000 0.2500 0.0300 Uiso
C13 C 0.3828(4) 1.0046(3) 0.1853(5) 0.0286 Uani
H9 H 0.3690 1.0087 0.1410 0.0100 Uiso
C14 C 0.3584(4) 1.0000 0.2500 0.0327 Uani
H10 H 0.3271 1.0000 0.2500 0.0500 Uiso
C15 C 0.5773(3) 1.0819(4) 0.0405(5) 0.0280 Uani
C16 C 0.6234(3) 1.1308(4) 0.0623(5) 0.0269 Uani
C17 C 0.6247(4) 1.1773(4) 0.0597(5) 0.0350 Uani
H11 H 0.5961 1.1787 0.0412 0.0300 Uiso
C18 C 0.6667 1.1306(4) 0.0833 0.0276 Uani
H12 H 0.6667 1.0993 0.0833 0.0100 Uiso
C19 C 0.6667 1.2215(5) 0.0833 0.0426 Uani
H13 H 0.6667 1.2528 0.0833 0.0300 Uiso
C11J C 0.4243(4) 0.9967(3) 0.3149(5) 0.0249 Uani
C10J C 0.4493(4) 0.9964(3) 0.3858(5) 0.0269 Uani
O1J O 0.4970(3) 1.0172(2) 0.3857(3) 0.0354 Uani
O4J O 0.4222(3) 0.9769(2) 0.4417(3) 0.0339 Uani
C13J C 0.3782(5) 0.9954(3) 0.3147(5) 0.0286 Uani
H9J H 0.3603 0.9913 0.3590 0.0100 Uiso
C17O C 0.7086(4) 1.2193(6) 0.1070(5) 0.0350 Uani
C16O C 0.7099(3) 1.1741(5) 0.1044(5) 0.0269 Uani
C15O C 0.7560(3) 1.1713(5) 0.1262(5) 0.0280 Uani
O2O O 0.7571(2) 1.1317(3) 0.1079(3) 0.0348 Uani
O3O O 0.7904(2) 1.2087(3) 0.1617(3) 0.0318 Uani
H11O H 0.7372 1.2493 0.1255 0.0300 Uiso
Cu1J Cu 0.54544(6) 1.02617(4) 0.46665(6) 0.0285 Uani
N1J N 0.6096(4) 1.0716(3) 0.3932(4) 0.0313 Uani
C1J C 0.6530(5) 1.1175(4) 0.4086(6) 0.0338 Uani
C2J C 0.6023(6) 1.0570(4) 0.3249(5) 0.0391 Uani
H1J H 0.5730 1.0253 0.3137 0.0100 Uiso
C3J C 0.6641(6) 1.1341(4) 0.4800(6) 0.0412 Uani
H2J H 0.6418 1.1143 0.5181 0.0600 Uiso
C4J C 0.6868(6) 1.1475(4) 0.3523(6) 0.0396 Uani
C5J C 0.6342(6) 1.0845(5) 0.2675(6) 0.0499 Uani
H3J H 0.6268 1.0716 0.2192 0.0500 Uiso
C6J C 0.7073(6) 1.1792(4) 0.4955(7) 0.0519 Uani
H4J H 0.7147 1.1905 0.5445 0.0700 Uiso
C7J C 0.7307(6) 1.1939(4) 0.3720(7) 0.0546 Uani
H5J H 0.7536 1.2148 0.3351 0.0400 Uiso
C8J C 0.6759(6) 1.1300(5) 0.2823(6) 0.0524 Uani
H6J H 0.6977 1.1498 0.2438 0.0800 Uiso
C9J C 0.7407(6) 1.2089(4) 0.4409(7) 0.0582 Uani
H7J H 0.7706 1.2398 0.4529 0.0400 Uiso
Cu1R Cu 0.48073(4) 1.02617(4) -0.03335(6) 0.0285 Uani
O3R O 0.4571(2) 0.9151(2) -0.0050(3) 0.0318 Uani
O4R O 0.5547(2) 0.9769(2) -0.0583(3) 0.0339 Uani
Cu1BA Cu 0.45456(6) 0.97383(4) 0.53335(6) 0.0285 Uani
Cu1O Cu 0.81406(4) 1.12123(6) 0.13332(6) 0.0285 Uani
Cu1IA Cu 0.85260(4) 1.21211(6) 0.20002(6) 0.0285 Uani
O2J O 0.5350(3) 0.9588(2) 0.4412(3) 0.0348 Uani
O3BA O 0.5420(3) 1.0849(2) 0.5050(3) 0.0318 Uani
O4BA O 0.5778(3) 1.0231(2) 0.5583(3) 0.0339 Uani
loop_
_atom_site_aniso_label
_atom_site_aniso_U_11
_atom_site_aniso_U_22
_atom_site_aniso_U_33
_atom_site_aniso_U_23
_atom_site_aniso_U_13
_atom_site_aniso_U_12
Cu1 0.0279(7) 0.0375(8) 0.0198(6) 0.0009(6) -0.0009(6) 0.0161(6)
O1 0.042(4) 0.052(5) 0.017(4) 0.003(3) 0.006(3) 0.027(4)
O2 0.030(4) 0.029(4) 0.039(4) -0.012(4) -0.014(3) 0.010(4)
O3 0.024 0.031 0.034 0.001 -0.006 0.009
O4 0.041 0.043 0.023 0.005 0.001 0.025
N1 0.030(5) 0.043(5) 0.026(5) 0.004(4) 0.002(4) 0.022(4)
C1 0.028(6) 0.047(7) 0.032(6) 0.005(6) 0.005(5) 0.023(6)
C2 0.044(7) 0.058(8) 0.028(6) -0.003(6) 0.004(6) 0.035(6)
C3 0.046(7) 0.037(7) 0.037(7) 0.001(6) -0.003(6) 0.018(6)
C4 0.046(7) 0.051(8) 0.028(7) 0.001(6) -0.001(5) 0.029(6)
C5 0.063(8) 0.092(10) 0.015(6) 0.005(7) -0.004(6) 0.054(8)
C6 0.072(9) 0.050(8) 0.045(8) -0.021(7) -0.020(7) 0.039(7)
C7 0.059(8) 0.056(9) 0.057(9) 0.018(7) -0.003(7) 0.035(7)
C8 0.069(9) 0.072(9) 0.032(7) 0.018(7) 0.005(6) 0.047(8)
C9 0.085(10) 0.043(8) 0.056(9) -0.009(7) -0.013(8) 0.039(7)
C10 0.028(6) 0.028(6) 0.022(6) -0.004(5) -0.004(5) 0.012(5)
C11 0.029(6) 0.023(5) 0.020(5) -0.001(5) -0.005(5) 0.011(5)
C12 0.031(6) 0.034(9) 0.027(9) -0.003(7) -0.001(3) 0.017(4)
C13 0.038(6) 0.028(6) 0.019(6) 0.002(5) -0.004(5) 0.016(5)
C14 0.021(6) 0.049(10) 0.038(9) -0.011(8) -0.006(4) 0.025(5)
C15 0.024(6) 0.042(7) 0.012(5) -0.001(5) 0.009(5) 0.012(5)
C16 0.023(6) 0.037(6) 0.014(5) 0.006(5) 0.004(4) 0.010(5)
C17 0.026(6) 0.042(7) 0.033(7) 0.003(5) 0.001(5) 0.014(6)
C18 0.030(9) 0.029(6) 0.024(8) 0.002(3) 0.005(7) 0.015(4)
C19 0.040(10) 0.033(7) 0.057(12) 0.002(4) 0.004(9) 0.020(5)
C11J 0.03 0.023 0.02 -0.001 0.004 0.012
C10J 0.032 0.028 0.022 -0.004 -8.18049e-19 0.016
O1J 0.04 0.052 0.017 0.003 -0.003 0.025
O4J 0.034 0.043 0.023 0.005 0.004 0.018
C13J 0.034 0.028 0.019 0.002 0.006 0.012
C17O 0.026 0.04 0.033 -0.002 0.001 0.012
C16O 0.023 0.04 0.014 -0.002 0.004 0.013
C15O 0.024 0.042 0.012 0.01 0.009 0.012
O2O 0.03 0.039 0.039 -0.002 -0.014 0.02
O3O 0.024 0.037 0.034 -0.007 -0.006 0.015
Cu1J 0.0332 0.0375 0.0198 0.0009 0.0018 0.0214
N1J 0.029 0.043 0.026 0.004 0.002 0.021
C1J 0.029 0.047 0.032 0.005 1.6361e-18 0.024
C2J 0.032 0.058 0.028 -0.003 -0.007 0.023
C3J 0.047 0.037 0.037 0.001 0.004 0.019
C4J 0.039 0.051 0.028 0.001 0.002 0.022
C5J 0.047 0.092 0.015 0.005 0.009 0.038
C6J 0.044 0.05 0.045 -0.021 -0.001 0.011
C7J 0.045 0.056 0.057 0.018 0.021 0.021
C8J 0.047 0.072 0.032 0.018 0.013 0.025
C9J 0.05 0.043 0.056 -0.009 0.004 0.004
Cu1R 0.0279 0.0375 0.0198 0.0009 -0.0009 0.0161
O3R 0.024 0.031 0.034 0.001 -0.006 0.009
O4R 0.041 0.043 0.023 0.005 0.001 0.025
Cu1BA 0.0332 0.0375 0.0198 0.0009 0.0018 0.0214
Cu1O 0.0279 0.0332 0.0198 -0.0018 -0.0009 0.0118
Cu1IA 0.0279 0.0332 0.0198 -0.0018 -0.0009 0.0118
O2J 0.039 0.029 0.039 -0.012 0.002 0.019
O3BA 0.037 0.031 0.034 0.001 0.007 0.022
O4BA 0.034 0.043 0.023 0.005 0.004 0.018
loop_
_geom_bond_atom_site_label_1
_geom_bond_atom_site_label_2
_geom_bond_site_symmetry_1
_geom_bond_site_symmetry_2
Cu1 O1 1_555 1_555
O1 C10 1_555 1_555
O2 Cu1 1_555 1_555
O3 C15 1_555 1_555
O4 C10 1_555 1_555
N1 Cu1 1_555 1_555
C1 N1 1_555 1_555
C2 N1 1_555 1_555
H1 C2 1_555 1_555
C3 C1 1_555 1_555
H2 C3 1_555 1_555
C4 C1 1_555 1_555
C5 C2 1_555 1_555
H3 C5 1_555 1_555
C6 C3 1_555 1_555
H4 C6 1_555 1_555
C7 C4 1_555 1_555
H5 C7 1_555 1_555
C8 C4 1_555 1_555
H6 C8 1_555 1_555
C9 C6 1_555 1_555
H7 C9 1_555 1_555
C10 C11 1_555 1_555
C11 C12 1_555 1_555
C12 H8 1_555 1_555
C13 C11 1_555 1_555
H9 C13 1_555 1_555
C14 C13 1_555 1_555
H10 C14 1_555 1_555
C15 O2 1_555 1_555
C16 C15 1_555 1_555
C17 C16 1_555 1_555
H11 C17 1_555 1_555
C18 C16 1_555 1_555
H12 C18 1_555 1_555
C19 C17 1_555 1_555
H13 C19 1_555 1_555
C11J C12 1_555 1_555
C10J C11J 1_555 1_555
O1J C10J 1_555 1_555
O4J C10J 1_555 1_555
C13J C14 1_555 1_555
H9J C13J 1_555 1_555
C17O C19 1_555 1_555
C16O C18 1_555 1_555
C15O C16O 1_555 1_555
O2O C15O 1_555 1_555
O3O C15O 1_555 1_555
H11O C17O 1_555 1_555
Cu1J O1J 1_555 1_555
N1J Cu1J 1_555 1_555
C1J N1J 1_555 1_555
C2J N1J 1_555 1_555
H1J C2J 1_555 1_555
C3J C1J 1_555 1_555
H2J C3J 1_555 1_555
C4J C1J 1_555 1_555
C5J C2J 1_555 1_555
H3J C5J 1_555 1_555
C6J C3J 1_555 1_555
H4J C6J 1_555 1_555
C7J C4J 1_555 1_555
H5J C7J 1_555 1_555
C8J C4J 1_555 1_555
H6J C8J 1_555 1_555
C9J C6J 1_555 1_555
H7J C9J 1_555 1_555
Cu1R Cu1 1_555 1_555
O3R Cu1 1_555 1_555
O4R Cu1 1_555 1_555
Cu1BA O4J 1_555 1_555
Cu1O O2O 1_555 1_555
Cu1IA O3O 1_555 1_555
O2J Cu1J 1_555 1_555
O3BA Cu1J 1_555 1_555
O4BA Cu1J 1_555 1_555
O3 Cu1R 1_555 1_555
O4 Cu1R 1_555 1_555
C5 C8 1_555 1_555
C7 C9 1_555 1_555
C11J C13J 1_555 1_555
C17O C16O 1_555 1_555
Cu1J Cu1BA 1_555 1_555
C5J C8J 1_555 1_555
C7J C9J 1_555 1_555
Cu1O Cu1IA 1_555 1_555

#END
