
#######################################################################
#
#                 Cambridge Crystallographic Data Centre
#                                CCDC 
#
#######################################################################
#
# If this CIF has been generated from an entry in the Cambridge 
# Structural Database, then it will include bibliographic, chemical, 
# crystal, experimental, refinement or atomic coordinate data resulting 
# from the CCDC's data processing and validation procedures.
#
#######################################################################

data_IJUTEM
_chemical_formula_moiety         'C3 H8 Al2 N3 O13 P7 2+'
_symmetry_cell_setting           trigonal
_symmetry_space_group_name_H-M   'P -3 1 c'
_symmetry_Int_Tables_number      163
_space_group_name_Hall           '-P 3 2c'
loop_
_symmetry_equiv_pos_site_id
_symmetry_equiv_pos_as_xyz
1 x,y,z
2 -y,x-y,z
3 -x+y,-x,z
4 -x+y,y,1/2-z
5 x,x-y,1/2-z
6 y,x,1/2+z
7 -x,-y,-z
8 y,-x+y,-z
9 x-y,x,-z
10 x-y,-y,1/2+z
11 -x,-x+y,1/2+z
12 -y,-x,1/2-z
_cell_length_a                   13.8425(6)
_cell_length_b                   13.8425(6)
_cell_length_c                   20.2042(13)
_cell_angle_alpha                90
_cell_angle_beta                 90
_cell_angle_gamma                120
_cell_volume                     3352.75
loop_
_atom_site_label
_atom_site_type_symbol
_atom_site_fract_x
_atom_site_fract_y
_atom_site_fract_z
_atom_site_U_iso_or_equiv
_atom_site_thermal_displace_type
N1 N 0.6667 0.3333 0.5589(10) 0.0939 Uani
N2 N 1.0000 0.0000 0.3265(16) 0.1456 Uani
N3 N 0.8803(22) 0.1197(22) 0.2500 0.1290 Uiso
C4 C 0.8338(23) 0.1662(23) 0.2500 0.1130 Uiso
C1 C 0.6667 0.3333 0.3933(18) 0.1597 Uani
C3 C 0.8780(69) 0.4391(62) 0.4604(35) 0.1170 Uiso
Al1 Al 0.89367(15) 0.33146(12) 0.82478(8) 0.0513 Uani
Al2 Al 0.99468(12) 0.22580(15) 0.57371(8) 0.0508 Uani
P1 P 0.89452(11) 0.33349(10) 0.66873(7) 0.0448 Uani
P2 P 0.76950(10) -0.00429(11) 0.58162(7) 0.0461 Uani
O1 O 0.9261(4) 0.3270(3) 0.7392(2) 0.0653 Uani
O2 O 0.7555(3) 0.2253(4) 0.8449(2) 0.0684 Uani
O3 O 0.8898(3) 0.0878(4) 0.5903(2) 0.0814 Uani
O4 O 0.9712(4) 0.3167(4) 0.6233(2) 0.0786 Uani
O5 O 0.9083(4) 0.4617(3) 0.8450(2) 0.0723 Uani
O6 O 1.1247(3) 0.2405(3) 0.5986(2) 0.0637 Uani
O7 O 0.9963(4) 0.2640(4) 0.4889(2) 0.0686 Uani
O8 O 0.9865(4) 0.3064(4) 0.8719(2) 0.0850 Uani
O2K O 0.7747(4) 0.2445(3) 0.6551(2) 0.0684 Uani
O5D O 0.9083(4) 0.4466(5) 0.6550(2) 0.0723 Uani
O6A O 0.7595(3) -0.1158(4) 0.5986(2) 0.0637 Uani
O7H O 0.7323(6) -0.0037(4) 0.5111(2) 0.0686 Uani
O8K O 0.6936(4) 0.0135(4) 0.6281(2) 0.0850 Uani
P1K P 0.66651(10) 0.10548(11) 0.83127(7) 0.0448 Uani
P1D P 0.89452(11) 0.56103(15) 0.83127(7) 0.0448 Uani
P2B P 1.22621(15) 0.23050(10) 0.58162(7) 0.0461 Uani
P2G P 0.99571(11) 0.22621(15) 0.41838(7) 0.0461 Uani
P2K P 1.00429(11) 0.23050(10) 0.91838(7) 0.0461 Uani
loop_
_atom_site_aniso_label
_atom_site_aniso_U_11
_atom_site_aniso_U_22
_atom_site_aniso_U_33
_atom_site_aniso_U_23
_atom_site_aniso_U_13
_atom_site_aniso_U_12
N1 0.101(11) 0.101(11) 0.079(15) 0.000 0.000 0.050(6)
N2 0.139(18) 0.139(18) 0.158(30) 0.000 0.000 0.069(9)
C1 0.188(29) 0.188(29) 0.103(30) 0.000 0.000 0.094(14)
Al1 0.0709(12) 0.0478(11) 0.0466(11) 0.0053(6) -0.0048(7) 0.0382(9)
Al2 0.0452(10) 0.0683(12) 0.0456(11) -0.0108(7) -0.0007(7) 0.0334(8)
P1 0.0517(9) 0.0432(9) 0.0465(10) -0.0014(5) 0.0054(6) 0.0289(7)
P2 0.055 0.0401 0.0443 -0.0026 0.006 0.0247
O1 0.070(3) 0.082(3) 0.052(2) 0.001(2) 0.001(2) 0.044(2)
O2 0.066 0.06 0.08 -0.003 0.001 0.032
O3 0.066 0.055 0.107 -0.002 -0.011 0.018
O4 0.077(3) 0.077(3) 0.085(3) -0.018(2) 0.026(3) 0.041(3)
O5 0.088 0.059 0.085 0.003 -0.006 0.048
O6 0.06 0.088 0.063 -0.016 -0.009 0.052
O7 0.087(3) 0.065(3) 0.055(3) -0.005(2) -0.003(2) 0.039(2)
O8 0.072 0.095 0.091 0.037 -0.01 0.044
O2K 0.060(3) 0.066(3) 0.080(3) 0.001(2) -0.003(2) 0.032(2)
O5D 0.088(3) 0.051(2) 0.085(3) 0.009(2) 0.006(2) 0.040(2)
O6A 0.088 0.044 0.063 0.007 0.016 0.036
O7H 0.074 0.087 0.055 0.003 -0.002 0.048
O8K 0.095 0.072 0.091 -0.01 0.037 0.044
P1K 0.0432 0.0517 0.0465 0.0054 -0.0014 0.0289
P1D 0.0517 0.0371 0.0465 -0.0068 -0.0054 0.0228
P2B 0.0457 0.055 0.0443 -0.006 -0.0086 0.0303
P2G 0.0401(9) 0.0457(9) 0.0443(10) 0.0086(6) 0.0026(5) 0.0154(6)
P2K 0.0401 0.055 0.0443 0.006 -0.0026 0.0247
loop_
_geom_bond_atom_site_label_1
_geom_bond_atom_site_label_2
_geom_bond_site_symmetry_1
_geom_bond_site_symmetry_2
Al1 O1 1_555 1_555
Al2 O3 1_555 1_555
P1 O1 1_555 1_555
P2 O3 1_555 1_555
O2 Al1 1_555 1_555
O4 Al2 1_555 1_555
O5 Al1 1_555 1_555
O6 Al2 1_555 1_555
O7 Al2 1_555 1_555
O8 Al1 1_555 1_555
N3 C4 1_555 1_555
O2K P1 1_555 1_555
O5D P1 1_555 1_555
O6A P2 1_555 1_555
O7H P2 1_555 1_555
O8K P2 1_555 1_555
P1K O2 1_555 1_555
P1D O5 1_555 1_555
P2B O6 1_555 1_555
P2G O7 1_555 1_555
P2K O8 1_555 1_555
P1 O4 1_555 1_555

#END
