
#######################################################################
#
#                 Cambridge Crystallographic Data Centre
#                                CCDC 
#
#######################################################################
#
# If this CIF has been generated from an entry in the Cambridge 
# Structural Database, then it will include bibliographic, chemical, 
# crystal, experimental, refinement or atomic coordinate data resulting 
# from the CCDC's data processing and validation procedures.
#
#######################################################################

data_WIPMAL
_chemical_formula_moiety         'C70 H32 Eu16 O51'
_symmetry_cell_setting           orthorhombic
_symmetry_space_group_name_H-M   'F d d d'
_symmetry_Int_Tables_number      70
_space_group_name_Hall           '-F 2uv 2vw'
loop_
_symmetry_equiv_pos_site_id
_symmetry_equiv_pos_as_xyz
1 x,y,z
2 1/4-x,1/4-y,z
3 x,1/4-y,1/4-z
4 1/4-x,y,1/4-z
5 x,1/2+y,1/2+z
6 1/4-x,3/4-y,1/2+z
7 x,3/4-y,3/4-z
8 1/4-x,1/2+y,3/4-z
9 1/2+x,y,1/2+z
10 3/4-x,1/4-y,1/2+z
11 1/2+x,1/4-y,3/4-z
12 3/4-x,y,3/4-z
13 1/2+x,1/2+y,z
14 3/4-x,3/4-y,z
15 1/2+x,3/4-y,1/4-z
16 3/4-x,1/2+y,1/4-z
17 -x,-y,-z
18 3/4+x,3/4+y,-z
19 -x,3/4+y,3/4+z
20 3/4+x,-y,3/4+z
21 -x,1/2-y,1/2-z
22 3/4+x,1/4+y,1/2-z
23 -x,1/4+y,1/4+z
24 3/4+x,1/2-y,1/4+z
25 1/2-x,-y,1/2-z
26 1/4+x,3/4+y,1/2-z
27 1/2-x,3/4+y,1/4+z
28 1/4+x,-y,1/4+z
29 1/2-x,1/2-y,-z
30 1/4+x,1/4+y,-z
31 1/2-x,1/4+y,3/4+z
32 1/4+x,1/2-y,3/4+z
_cell_length_a                   16.308(4)
_cell_length_b                   28.828(7)
_cell_length_c                   39.028(10)
_cell_angle_alpha                90
_cell_angle_beta                 90
_cell_angle_gamma                90
_cell_volume                     18348.1
loop_
_atom_site_label
_atom_site_type_symbol
_atom_site_fract_x
_atom_site_fract_y
_atom_site_fract_z
O9 O 0.1250 0.1861(7) 0.1250
O10 O 0.3617(8) 0.1624(4) 0.1535(3)
O11 O 0.2370(8) 0.3280(5) -0.0225(3)
Eu1 Eu 0.282908(8) 0.309023(5) 0.097733(4)
O1 O 0.22152(18) 0.30132(14) 0.15099(7)
C1 C 0.1719(2) 0.28527(13) 0.17216(9)
O2 O 0.09609(15) 0.28557(14) 0.16845(7)
C2 C 0.20557(19) 0.26556(13) 0.20453(9)
O3 O 0.05996(18) 0.23465(13) 0.29171(9)
C3 C 0.15287(19) 0.25130(14) 0.23072(9)
H1 H 0.0964 0.2540 0.2281
O4 O 0.15571(17) 0.18707(12) 0.30961(8)
C4 C 0.1857(2) 0.23310(15) 0.26066(9)
O5 O 0.27862(14) 0.38357(8) 0.11946(7)
C5 C 0.2708(2) 0.23065(15) 0.26496(10)
H2 H 0.2922 0.2181 0.2850
O6 O 0.34407(14) 0.44883(9) 0.13117(7)
C6 C 0.3239(2) 0.24669(15) 0.23968(9)
O7 O 0.2442(2) 0.36219(13) 0.05118(9)
C7 C 0.28995(19) 0.26329(14) 0.20913(9)
H3 H 0.3245 0.2730 0.1916
O8 O 0.2910(3) 0.22541(14) 0.10915(17)
C8 C 0.4142(2) 0.24759(15) 0.24504(9)
C9 C 0.4475(2) 0.25267(18) 0.27760(10)
H4 H 0.4127 0.2547 0.2964
C10 C 0.4679(2) 0.24516(18) 0.21737(10)
H5 H 0.4471 0.2421 0.1953
C11 C 0.1299(2) 0.21728(16) 0.28875(10)
C12 C 0.27992(18) 0.42599(11) 0.12552(9)
C13 C 0.19913(18) 0.45137(11) 0.12568(9)
C14 C 0.1250 0.42713(15) 0.1250
H6 H 0.1250 0.3949 0.1250
C15 C 0.19866(19) 0.49972(11) 0.12576(10)
H7 H 0.2481 0.5158 0.1263
C16 C 0.1250 0.52446(15) 0.1250
C17 C 0.1250 0.57610(15) 0.1250
C18 C 0.1837(5) 0.6014(2) 0.1433(2)
C19 C 0.1840(5) 0.6493(2) 0.1433(2)
O1T O 0.77848(18) 0.19868(14) 0.34901(7)
C1T C 0.8281(2) 0.21473(13) 0.32784(9)
O2T O 0.90391(15) 0.21443(14) 0.33155(7)
C2T C 0.79443(19) 0.23444(13) 0.29547(9)
O3T O 0.94004(18) 0.26535(13) 0.20829(9)
C3T C 0.84713(19) 0.24870(14) 0.26928(9)
H1T H 0.9036 0.2460 0.2719
O4T O 0.84429(17) 0.31293(12) 0.19039(8)
C4T C 0.8143(2) 0.26690(15) 0.23934(9)
C5T C 0.7292(2) 0.26935(15) 0.23504(10)
H2T H 0.7078 0.2819 0.2150
C6T C 0.6761(2) 0.25331(15) 0.26032(9)
C7T C 0.71005(19) 0.23671(14) 0.29087(9)
H3T H 0.6755 0.2270 0.3084
C8T C 0.5858(2) 0.25241(15) 0.25496(9)
C9T C 0.5525(2) 0.24733(18) 0.22240(10)
H4T H 0.5873 0.2453 0.2036
C10T C 0.5321(2) 0.25484(18) 0.28263(10)
H5T H 0.5529 0.2579 0.3047
C11T C 0.8701(2) 0.28272(16) 0.21125(10)
O5A O -0.02862(14) 0.86643(8) 0.11946(7)
O6A O -0.09407(14) 0.80117(9) 0.13117(7)
C12A C -0.02992(18) 0.82401(11) 0.12552(9)
C13A C 0.05087(18) 0.79863(11) 0.12568(9)
C14A C 0.1250 0.82287(15) 0.1250
H6A H 0.1250 0.8551 0.1250
C15A C 0.05134(19) 0.75028(11) 0.12576(10)
H7A H 0.0019 0.7342 0.1263
C16A C 0.1250 0.72554(15) 0.1250
C17A C 0.1250 0.67390(15) 0.1250
C18A C 0.0663(5) 0.6486(2) 0.1433(2)
C19A C 0.0660(5) 0.6007(2) 0.1433(2)
O5B O 0.27862(14) 0.86643(8) 0.13054(7)
O6B O 0.34407(14) 0.80117(9) 0.11883(7)
C12B C 0.27992(18) 0.82401(11) 0.12448(9)
C13B C 0.19913(18) 0.79863(11) 0.12432(9)
C15B C 0.19866(19) 0.75028(11) 0.12424(10)
H7B H 0.2481 0.7342 0.1237
C18B C 0.1837(5) 0.6486(2) 0.1067(2)
C19B C 0.1840(5) 0.6007(2) 0.1067(2)
O5C O -0.02862(14) 0.38357(8) 0.13054(7)
O6C O -0.09407(14) 0.44883(9) 0.11883(7)
C12C C -0.02992(18) 0.42599(11) 0.12448(9)
C13C C 0.05087(18) 0.45137(11) 0.12432(9)
C15C C 0.05134(19) 0.49972(11) 0.12424(10)
H7C H 0.0019 0.5158 0.1237
C18C C 0.0663(5) 0.6014(2) 0.1067(2)
C19C C 0.0660(5) 0.6493(2) 0.1067(2)
Eu1A Eu -0.032908(8) 0.940977(5) 0.097733(4)
O1A O 0.02848(18) 0.94868(14) 0.15099(7)
C1A C 0.0781(2) 0.96473(13) 0.17216(9)
O2A O 0.15391(15) 0.96443(14) 0.16845(7)
C2A C 0.04443(19) 0.98444(13) 0.20453(9)
O3A O 0.19004(18) 1.01535(13) 0.29171(9)
C3A C 0.09713(19) 0.99870(14) 0.23072(9)
H1A H 0.1536 0.9960 0.2281
O4A O 0.09429(17) 1.06293(12) 0.30961(8)
C4A C 0.0643(2) 1.01690(15) 0.26066(9)
C5A C -0.0208(2) 1.01935(15) 0.26496(10)
H2A H -0.0422 1.0319 0.2850
C6A C -0.0739(2) 1.00331(15) 0.23968(9)
O7A O 0.0058(2) 0.88781(13) 0.05118(9)
C7A C -0.03995(19) 0.98671(14) 0.20913(9)
H3A H -0.0745 0.9770 0.1916
O8A O -0.0410(3) 1.02459(14) 0.10915(17)
C8A C -0.1642(2) 1.00241(15) 0.24504(9)
C9A C -0.1975(2) 0.99733(18) 0.27760(10)
H4A H -0.1627 0.9953 0.2964
C10A C -0.2179(2) 1.00484(18) 0.21737(10)
H5A H -0.1971 1.0079 0.1953
C11A C 0.1201(2) 1.03272(16) 0.28875(10)
O1Y O -0.52848(18) 1.05132(14) 0.34901(7)
C1Y C -0.5781(2) 1.03527(13) 0.32784(9)
O2Y O -0.65391(15) 1.03557(14) 0.33155(7)
C2Y C -0.54443(19) 1.01556(13) 0.29547(9)
O3Y O -0.69004(18) 0.98465(13) 0.20829(9)
C3Y C -0.59713(19) 1.00130(14) 0.26928(9)
H1Y H -0.6536 1.0040 0.2719
O4Y O -0.59429(17) 0.93707(12) 0.19039(8)
C4Y C -0.5643(2) 0.98310(15) 0.23934(9)
C5Y C -0.4792(2) 0.98065(15) 0.23504(10)
H2Y H -0.4578 0.9681 0.2150
C6Y C -0.4261(2) 0.99669(15) 0.26032(9)
C7Y C -0.46005(19) 1.01329(14) 0.29087(9)
H3Y H -0.4255 1.0230 0.3084
C8Y C -0.3358(2) 0.99759(15) 0.25496(9)
C9Y C -0.3025(2) 1.00267(18) 0.22240(10)
H4Y H -0.3373 1.0047 0.2036
C10Y C -0.2821(2) 0.99516(18) 0.28263(10)
H5Y H -0.3029 0.9921 0.3047
C11Y C -0.6201(2) 0.96728(16) 0.21125(10)
Eu1B Eu 0.282908(8) 0.940977(5) 0.152267(4)
O7B O 0.2442(2) 0.88781(13) 0.19882(9)
O8B O 0.2910(3) 1.02459(14) 0.14085(17)
Eu1C Eu -0.032908(8) 0.309023(5) 0.152267(4)
O7C O 0.0058(2) 0.36219(13) 0.19882(9)
O8C O -0.0410(3) 0.22541(14) 0.14085(17)
Eu1B_2 Eu -0.717092(8) 0.940977(5) 0.152267(4)
Eu1C_2 Eu 0.967092(8) 0.309023(5) 0.152267(4)
Eu1L Eu -0.217092(8) 0.809023(5) 0.097733(4)
Eu1M Eu 0.467092(8) 0.440977(5) 0.097733(4)
Eu1N Eu -0.217092(8) 0.440977(5) 0.152267(4)
Eu1O Eu 0.467092(8) 0.809023(5) 0.152267(4)
Eu1T Eu 0.717092(8) 0.190977(5) 0.402267(4)
Eu1W Eu 0.032908(8) 0.190977(5) 0.347733(4)
Eu1W_2 Eu 1.032908(8) 0.190977(5) 0.347733(4)
Eu1Y Eu -0.467092(8) 1.059023(5) 0.402267(4)
Eu1Z Eu -0.782908(8) 1.059023(5) 0.347733(4)
Eu1Z_2 Eu 0.217092(8) 1.059023(5) 0.347733(4)
O1B O 0.22152(18) 0.94868(14) 0.09901(7)
O1C O 0.02848(18) 0.30132(14) 0.09901(7)
O2B O 0.09609(15) 0.96443(14) 0.08155(7)
O2C O 0.15391(15) 0.28557(14) 0.08155(7)
O3R O -0.05996(18) 0.98465(13) 0.04171(9)
O3T_2 O -0.05996(18) 0.26535(13) 0.20829(9)
O3Y_2 O 0.30996(18) 0.98465(13) 0.20829(9)
O3EA O 0.30996(18) 0.26535(13) 0.04171(9)
O4R O -0.15571(17) 0.93707(12) 0.05961(8)
O4T_2 O -0.15571(17) 0.31293(12) 0.19039(8)
O4Y_2 O 0.40571(17) 0.93707(12) 0.19039(8)
O4EA O 0.40571(17) 0.31293(12) 0.05961(8)
O6L O -0.15593(14) 0.94883(9) 0.13117(7)
O6M O 0.40593(14) 0.30117(9) 0.13117(7)
O6N O -0.15593(14) 0.30117(9) 0.11883(7)
O6O O 0.40593(14) 0.94883(9) 0.11883(7)
loop_
_geom_bond_atom_site_label_1
_geom_bond_atom_site_label_2
_geom_bond_site_symmetry_1
_geom_bond_site_symmetry_2
Eu1 O1 1_555 1_555
O1 C1 1_555 1_555
C1 O2 1_555 1_555
O2 Eu1C 1_555 1_555
C2 C1 1_555 1_555
O3 C11 1_555 1_555
C3 C2 1_555 1_555
H1 C3 1_555 1_555
O4 C11 1_555 1_555
C4 C3 1_555 1_555
O5 Eu1 1_555 1_555
C5 C4 1_555 1_555
H2 C5 1_555 1_555
O6 C12 1_555 1_555
C6 C5 1_555 1_555
O7 Eu1 1_555 1_555
C7 C2 1_555 1_555
H3 C7 1_555 1_555
O8 Eu1 1_555 1_555
C8 C6 1_555 1_555
C9 C8 1_555 1_555
H4 C9 1_555 1_555
C10 C8 1_555 1_555
H5 C10 1_555 1_555
C11 C4 1_555 1_555
C12 O5 1_555 1_555
C13 C12 1_555 1_555
C14 C13 1_555 1_555
H6 C14 1_555 1_555
C15 C13 1_555 1_555
H7 C15 1_555 1_555
C16 C15 1_555 1_555
C17 C16 1_555 1_555
C18 C17 1_555 1_555
C19 C18 1_555 1_555
O1T C1T 1_555 1_555
C1T O2T 1_555 1_555
O2T Eu1W_2 1_555 1_555
C2T C1T 1_555 1_555
O3T C11T 1_555 1_555
C3T C2T 1_555 1_555
H1T C3T 1_555 1_555
O4T C11T 1_555 1_555
C4T C3T 1_555 1_555
C5T C4T 1_555 1_555
H2T C5T 1_555 1_555
C6T C5T 1_555 1_555
C7T C2T 1_555 1_555
H3T C7T 1_555 1_555
C8T C6T 1_555 1_555
C9T C10 1_555 1_555
H4T C9T 1_555 1_555
C10T C9 1_555 1_555
H5T C10T 1_555 1_555
C11T C4T 1_555 1_555
O5A C12A 1_555 1_555
O6A C12A 1_555 1_555
C12A C13A 1_555 1_555
C13A C14A 1_555 1_555
C14A H6A 1_555 1_555
C15A C13A 1_555 1_555
H7A C15A 1_555 1_555
C16A C15A 1_555 1_555
C17A C19 1_555 1_555
C18A C17A 1_555 1_555
C19A C17 1_555 1_555
O5B C12B 1_555 1_555
O6B C12B 1_555 1_555
C12B C13B 1_555 1_555
C13B C14A 1_555 1_555
C15B C16A 1_555 1_555
H7B C15B 1_555 1_555
C18B C19 1_555 1_555
C19B C17 1_555 1_555
O5C C12C 1_555 1_555
O6C C12C 1_555 1_555
C12C C13C 1_555 1_555
C13C C14 1_555 1_555
C15C C16 1_555 1_555
H7C C15C 1_555 1_555
C18C C17 1_555 1_555
C19C C17A 1_555 1_555
Eu1A O5A 1_555 1_555
O1A Eu1A 1_555 1_555
C1A O1A 1_555 1_555
O2A C1A 1_555 1_555
C2A C1A 1_555 1_555
O3A C11A 1_555 1_555
C3A C2A 1_555 1_555
H1A C3A 1_555 1_555
O4A C11A 1_555 1_555
C4A C3A 1_555 1_555
C5A C4A 1_555 1_555
H2A C5A 1_555 1_555
C6A C5A 1_555 1_555
O7A Eu1A 1_555 1_555
C7A C2A 1_555 1_555
H3A C7A 1_555 1_555
O8A Eu1A 1_555 1_555
C8A C6A 1_555 1_555
C9A C8A 1_555 1_555
H4A C9A 1_555 1_555
C10A C8A 1_555 1_555
H5A C10A 1_555 1_555
C11A C4A 1_555 1_555
O1Y C1Y 1_555 1_555
C1Y O2Y 1_555 1_555
O2Y Eu1Z 1_555 1_555
C2Y C1Y 1_555 1_555
O3Y C11Y 1_555 1_555
C3Y C2Y 1_555 1_555
H1Y C3Y 1_555 1_555
O4Y C11Y 1_555 1_555
C4Y C3Y 1_555 1_555
C5Y C4Y 1_555 1_555
H2Y C5Y 1_555 1_555
C6Y C5Y 1_555 1_555
C7Y C2Y 1_555 1_555
H3Y C7Y 1_555 1_555
C8Y C6Y 1_555 1_555
C9Y C10A 1_555 1_555
H4Y C9Y 1_555 1_555
C10Y C9A 1_555 1_555
H5Y C10Y 1_555 1_555
C11Y C4Y 1_555 1_555
Eu1B O5B 1_555 1_555
O7B Eu1B 1_555 1_555
O8B Eu1B 1_555 1_555
Eu1C O5C 1_555 1_555
O7C Eu1C 1_555 1_555
O8C Eu1C 1_555 1_555
Eu1B_2 O3Y 1_555 1_555
Eu1C_2 O3T 1_555 1_555
Eu1L O6A 1_555 1_555
Eu1M O6 1_555 1_555
Eu1N O6C 1_555 1_555
Eu1O O6B 1_555 1_555
Eu1T O1T 1_555 1_555
Eu1W O3 1_555 1_555
Eu1Y O1Y 1_555 1_555
Eu1Z_2 O3A 1_555 1_555
O1B Eu1B 1_555 1_555
O1C Eu1C 1_555 1_555
O2B Eu1A 1_555 1_555
O2C Eu1 1_555 1_555
O3R Eu1A 1_555 1_555
O3T_2 Eu1C 1_555 1_555
O3Y_2 Eu1B 1_555 1_555
O3EA Eu1 1_555 1_555
O4R Eu1A 1_555 1_555
O4T_2 Eu1C 1_555 1_555
O4Y_2 Eu1B 1_555 1_555
O4EA Eu1 1_555 1_555
O6L Eu1A 1_555 1_555
O6M Eu1 1_555 1_555
O6N Eu1C 1_555 1_555
O6O Eu1B 1_555 1_555
O4 Eu1W 1_555 1_555
C6 C7 1_555 1_555
C18 C19B 1_555 1_555
O4T Eu1C_2 1_555 1_555
C6T C7T 1_555 1_555
C8T C9T 1_555 1_555
C8T C10T 1_555 1_555
C16A C17A 1_555 1_555
C17A C18B 1_555 1_555
C18A C19A 1_555 1_555
C18A C19C 1_555 1_555
C19A C18C 1_555 1_555
C13B C15B 1_555 1_555
C18B C19B 1_555 1_555
C13C C15C 1_555 1_555
C18C C19C 1_555 1_555
O2A Eu1B 1_555 1_555
O4A Eu1Z_2 1_555 1_555
C6A C7A 1_555 1_555
O4Y Eu1B_2 1_555 1_555
C6Y C7Y 1_555 1_555
C8Y C9Y 1_555 1_555
C8Y C10Y 1_555 1_555

#END
