
#######################################################################
#
#                 Cambridge Crystallographic Data Centre
#                                CCDC 
#
#######################################################################
#
# If this CIF has been generated from an entry in the Cambridge 
# Structural Database, then it will include bibliographic, chemical, 
# crystal, experimental, refinement or atomic coordinate data resulting 
# from the CCDC's data processing and validation procedures.
#
#######################################################################

data_EXUROG
_chemical_formula_moiety         'C65 H31 Eu5 N14 O44 Zn11'
_symmetry_cell_setting           monoclinic
_symmetry_space_group_name_H-M   'C 2/c'
_symmetry_Int_Tables_number      15
_space_group_name_Hall           '-C 2yc'
loop_
_symmetry_equiv_pos_site_id
_symmetry_equiv_pos_as_xyz
1 x,y,z
2 -x,y,1/2-z
3 1/2+x,1/2+y,z
4 1/2-x,1/2+y,1/2-z
5 -x,-y,-z
6 x,-y,1/2+z
7 1/2-x,1/2-y,-z
8 1/2+x,1/2-y,1/2+z
_cell_length_a                   16.8984(11)
_cell_length_b                   24.3162(16)
_cell_length_c                   22.8320(15)
_cell_angle_alpha                90
_cell_angle_beta                 99.3330(10)
_cell_angle_gamma                90
_cell_volume                     9257.59
loop_
_atom_site_label
_atom_site_type_symbol
_atom_site_fract_x
_atom_site_fract_y
_atom_site_fract_z
Zn1 Zn 0.62151(4) 0.44071(3) 0.01689(3)
Zn2 Zn 0.74552(4) 0.22137(3) 0.23941(3)
C1 C 0.6606(4) 0.2403(2) 0.1236(3)
C2 C 0.6497(4) 0.2268(2) 0.0588(3)
C3 C 0.5925(4) 0.2551(3) 0.0196(3)
H1 H 0.5585 0.2803 0.0336
C4 C 0.5869(5) 0.2453(3) -0.0404(3)
C5 C 0.6390(5) 0.2095(3) -0.0632(3)
H2 H 0.6353 0.2044 -0.1039
C6 C 0.6963(4) 0.1817(2) -0.0235(3)
C7 C 0.7005(4) 0.1904(2) 0.0367(2)
H3 H 0.7385 0.1714 0.0630
C8 C 0.7555(4) 0.1447(2) -0.0472(3)
C9 C 0.5048(4) 0.3934(2) 0.0647(2)
C10 C 0.4274(4) 0.3673(2) 0.0725(3)
C11 C 0.3662(5) 0.3626(4) 0.0253(3)
H4 H 0.3708 0.3774 -0.0115
C12 C 0.2966(5) 0.3348(5) 0.0341(3)
C13 C 0.2887(5) 0.3119(4) 0.0882(3)
H5 H 0.2433 0.2916 0.0924
C14 C 0.3491(4) 0.3195(3) 0.1360(3)
C15 C 0.4186(4) 0.3468(2) 0.1285(3)
H6 H 0.4595 0.3515 0.1606
C16 C 0.3387(4) 0.2978(3) 0.1957(3)
C17 C 0.8508(4) 0.3039(3) 0.2352(3)
C18 C 0.9280(4) 0.3353(3) 0.2422(3)
C19 C 0.9243(9) 0.3918(6) 0.2545(7)
H7 H 0.8740 0.4110 0.2484
C20 C 1.0000 0.3073(4) 0.2500
H8 H 1.0000 0.2690 0.2500
C21 C 0.6566(4) 0.4450(2) 0.2737(3)
C22 C 0.6452(4) 0.4754(2) 0.3292(2)
C23 C 0.7105(4) 0.4858(4) 0.3717(3)
H9 H 0.7617 0.4761 0.3655
C24 C 0.6991(5) 0.5108(4) 0.4242(3)
H10 H 0.7437 0.5180 0.4528
C25 C 0.5634(4) 0.5148(2) 0.3941(3)
H11 H 0.5126 0.5240 0.4017
C26 C 0.5703(4) 0.4907(3) 0.3397(3)
H12 H 0.5251 0.4850 0.3111
C27 C 0.6817(4) 0.4992(2) 0.1212(3)
C28 C 0.6952(4) 0.5510(2) 0.1581(3)
C29 C 0.6486(4) 0.5976(2) 0.1430(3)
H13 H 0.6073 0.5973 0.1107
C30 C 0.6653(4) 0.6440(3) 0.1768(3)
H14 H 0.6336 0.6750 0.1671
C31 C 0.7684(5) 0.6021(3) 0.2386(3)
H15 H 0.8092 0.6036 0.2713
C32 C 0.7549(5) 0.5527(3) 0.2073(3)
H16 H 0.7855 0.5216 0.2192
Eu1 Eu 0.67020(2) 0.37146(2) 0.18053(2)
N1 N 0.5367(7) 0.2817(5) -0.0829(5)
O1 O 0.5399(8) 0.2789(5) -0.1350(6)
O2 O 0.4975(8) 0.3176(5) -0.0660(6)
N2 N 0.2235(10) 0.3413(7) -0.0148(7)
O3 O 0.1661(8) 0.3144(6) -0.0088(6)
O4 O 0.2283(10) 0.3709(7) -0.0569(8)
N3 N 0.6263(3) 0.5251(2) 0.4354(2)
N4 N 0.7248(3) 0.6471(2) 0.2233(2)
O5 O 0.6285(3) 0.28229(16) 0.14038(18)
O6 O 0.7048(3) 0.20745(19) 0.15736(19)
O7 O 0.7979(3) 0.11464(18) -0.00992(19)
O8 O 0.7589(3) 0.14862(18) -0.10061(19)
O9 O 0.5108(3) 0.41425(18) 0.01493(17)
O10 O 0.5615(2) 0.39274(17) 0.10693(18)
O11 O 0.3741(3) 0.32159(17) 0.24084(18)
O12 O 0.2936(3) 0.25683(19) 0.1954(2)
O13 O 0.7871(2) 0.32958(17) 0.22142(19)
O14 O 0.8547(3) 0.25275(17) 0.2442(2)
O15 O 0.7238(3) 0.42379(18) 0.27143(19)
O16 O 0.5982(3) 0.44131(18) 0.23163(18)
O17 O 0.7130(3) 0.45606(16) 0.14340(19)
O18 O 0.6410(3) 0.50430(17) 0.07011(19)
O19 O 1.0601(11) 0.5030(7) 0.2792(8)
N5 N 1.004(2) 0.4790(8) 0.2393(12)
C33 C 1.000(3) 0.4199(11) 0.241(2)
C17A C 1.1492(4) 0.3039(3) 0.2648(3)
C18A C 1.0720(4) 0.3353(3) 0.2578(3)
C19A C 1.0757(9) 0.3918(6) 0.2455(7)
H7A H 1.1260 0.4110 0.2516
O13A O 1.2129(2) 0.32958(17) 0.27858(19)
O14A O 1.1453(3) 0.25275(17) 0.2558(2)
O19A O 0.9399(11) 0.5030(7) 0.2208(8)
N5A N 0.996(2) 0.4790(8) 0.2607(12)
C33A C 1.000(3) 0.4199(11) 0.259(2)
Zn1A Zn 0.37849(4) 0.44071(3) 0.48311(3)
Zn2A Zn 0.25448(4) 0.22137(3) 0.26059(3)
C1A C 0.3394(4) 0.2403(2) 0.3764(3)
C2A C 0.3503(4) 0.2268(2) 0.4412(3)
C3A C 0.4075(4) 0.2551(3) 0.4804(3)
H1A H 0.4415 0.2803 0.4664
C4A C 0.4131(5) 0.2453(3) 0.5404(3)
C5A C 0.3610(5) 0.2095(3) 0.5632(3)
H2A H 0.3647 0.2044 0.6039
C6A C 0.3037(4) 0.1817(2) 0.5235(3)
C7A C 0.2995(4) 0.1904(2) 0.4633(2)
H3A H 0.2615 0.1714 0.4370
C8A C 0.2445(4) 0.1447(2) 0.5472(3)
C9A C 0.4952(4) 0.3934(2) 0.4353(2)
C10A C 0.5726(4) 0.3673(2) 0.4275(3)
C11A C 0.6338(5) 0.3626(4) 0.4747(3)
H4A H 0.6292 0.3774 0.5115
C12A C 0.7034(5) 0.3348(5) 0.4659(3)
C13A C 0.7113(5) 0.3119(4) 0.4118(3)
H5A H 0.7567 0.2916 0.4076
C14A C 0.6509(4) 0.3195(3) 0.3640(3)
C15A C 0.5814(4) 0.3468(2) 0.3715(3)
H6A H 0.5405 0.3515 0.3394
C16A C 0.6613(4) 0.2978(3) 0.3043(3)
C21A C 0.3434(4) 0.4450(2) 0.2263(3)
C22A C 0.3548(4) 0.4754(2) 0.1708(2)
C23A C 0.2895(4) 0.4858(4) 0.1283(3)
H9A H 0.2383 0.4761 0.1345
C24A C 0.3009(5) 0.5108(4) 0.0758(3)
H10A H 0.2563 0.5180 0.0472
C25A C 0.4366(4) 0.5148(2) 0.1059(3)
H11A H 0.4874 0.5240 0.0983
C26A C 0.4297(4) 0.4907(3) 0.1603(3)
H12A H 0.4749 0.4850 0.1889
C27A C 0.3183(4) 0.4992(2) 0.3788(3)
C28A C 0.3048(4) 0.5510(2) 0.3419(3)
C29A C 0.3514(4) 0.5976(2) 0.3570(3)
H13A H 0.3927 0.5973 0.3893
C30A C 0.3347(4) 0.6440(3) 0.3232(3)
H14A H 0.3664 0.6750 0.3329
C31A C 0.2316(5) 0.6021(3) 0.2614(3)
H15A H 0.1908 0.6036 0.2287
C32A C 0.2451(5) 0.5527(3) 0.2927(3)
H16A H 0.2145 0.5216 0.2808
Eu1A Eu 0.32980(2) 0.37146(2) 0.31947(2)
N1A N 0.4633(7) 0.2817(5) 0.5829(5)
O1A O 0.4601(8) 0.2789(5) 0.6350(6)
O2A O 0.5025(8) 0.3176(5) 0.5660(6)
N2A N 0.7765(10) 0.3413(7) 0.5148(7)
O3A O 0.8339(8) 0.3144(6) 0.5088(6)
O4A O 0.7717(10) 0.3709(7) 0.5569(8)
N3A N 0.3737(3) 0.5251(2) 0.0646(2)
N4A N 0.2752(3) 0.6471(2) 0.2767(2)
O5A O 0.3715(3) 0.28229(16) 0.35962(18)
O6A O 0.2952(3) 0.20745(19) 0.34264(19)
O7A O 0.2021(3) 0.11464(18) 0.50992(19)
O8A O 0.2411(3) 0.14862(18) 0.60061(19)
O9A O 0.4892(3) 0.41425(18) 0.48507(17)
O10A O 0.4385(2) 0.39274(17) 0.39307(18)
O11A O 0.6259(3) 0.32159(17) 0.25916(18)
O12A O 0.7064(3) 0.25683(19) 0.3046(2)
O15A O 0.2762(3) 0.42379(18) 0.22857(19)
O16A O 0.4018(3) 0.44131(18) 0.26837(18)
O17A O 0.2870(3) 0.45606(16) 0.35660(19)
O18A O 0.3590(3) 0.50430(17) 0.42989(19)
Zn1D Zn 0.37849(4) 0.55929(3) -0.01689(3)
Zn1E Zn 0.62151(4) 0.55929(3) 0.51689(3)
Zn1F Zn 0.87849(4) 0.05929(3) -0.01689(3)
Zn1G Zn 0.12151(4) 0.05929(3) 0.51689(3)
Zn2A_2 Zn 1.25448(4) 0.22137(3) 0.26059(3)
Zn2B Zn 0.24552(4) 0.72137(3) 0.23941(3)
Zn2C Zn 0.75448(4) 0.72137(3) 0.26059(3)
Eu1A_2 Eu 1.32980(2) 0.37146(2) 0.31947(2)
Eu1F Eu 0.82980(2) 0.12854(2) -0.18053(2)
Eu1G Eu 0.17020(2) 0.12854(2) 0.68053(2)
N3D N 0.3737(3) 0.4749(2) 0.5646(2)
N3E N 0.6263(3) 0.4749(2) -0.0646(2)
N4B N 0.2248(3) 0.1471(2) 0.2233(2)
N4C N 0.7752(3) 0.1471(2) 0.2767(2)
O7F O 0.7021(3) 0.38536(18) 0.00992(19)
O7G O 0.2979(3) 0.38536(18) 0.49008(19)
O8F O 0.7411(3) 0.35138(18) 0.10061(19)
O8G O 0.2589(3) 0.35138(18) 0.39939(19)
O13A_2 O 0.2129(2) 0.32958(17) 0.27858(19)
O14A_2 O 0.1453(3) 0.25275(17) 0.2558(2)
loop_
_geom_bond_atom_site_label_1
_geom_bond_atom_site_label_2
_geom_bond_site_symmetry_1
_geom_bond_site_symmetry_2
Zn1 O9 1_555 1_555
Zn2 O6 1_555 1_555
C1 C2 1_555 1_555
C2 C3 1_555 1_555
C3 H1 1_555 1_555
C4 C3 1_555 1_555
C5 C4 1_555 1_555
H2 C5 1_555 1_555
C6 C5 1_555 1_555
C7 C2 1_555 1_555
H3 C7 1_555 1_555
C8 C6 1_555 1_555
C9 C10 1_555 1_555
C10 C11 1_555 1_555
C11 H4 1_555 1_555
C12 C11 1_555 1_555
C13 C12 1_555 1_555
H5 C13 1_555 1_555
C14 C13 1_555 1_555
C15 C10 1_555 1_555
H6 C15 1_555 1_555
C16 C14 1_555 1_555
C17 C18 1_555 1_555
C18 C19 1_555 1_555
C19 H7 1_555 1_555
C20 C18 1_555 1_555
H8 C20 1_555 1_555
C21 C22 1_555 1_555
C22 C23 1_555 1_555
C23 H9 1_555 1_555
C24 C23 1_555 1_555
H10 C24 1_555 1_555
C25 H11 1_555 1_555
C26 C22 1_555 1_555
H12 C26 1_555 1_555
C27 C28 1_555 1_555
C28 C29 1_555 1_555
C29 H13 1_555 1_555
C30 C29 1_555 1_555
H14 C30 1_555 1_555
C31 H15 1_555 1_555
C32 C28 1_555 1_555
H16 C32 1_555 1_555
Eu1 O5 1_555 1_555
N1 C4 1_555 1_555
O1 N1 1_555 1_555
O2 N1 1_555 1_555
N2 C12 1_555 1_555
O3 N2 1_555 1_555
O4 N2 1_555 1_555
N3 C24 1_555 1_555
N4 C30 1_555 1_555
O5 C1 1_555 1_555
O6 C1 1_555 1_555
O7 C8 1_555 1_555
O8 C8 1_555 1_555
O9 C9 1_555 1_555
O10 C9 1_555 1_555
O11 C16 1_555 1_555
O12 C16 1_555 1_555
O13 C17 1_555 1_555
O14 Zn2 1_555 1_555
O15 C21 1_555 1_555
O16 C21 1_555 1_555
O17 C27 1_555 1_555
O18 Zn1 1_555 1_555
O19 N5 1_555 1_555
N5 C33 1_555 1_555
C33 C19 1_555 1_555
C17A C18A 1_555 1_555
C18A C20 1_555 1_555
C19A C33 1_555 1_555
H7A C19A 1_555 1_555
O13A C17A 1_555 1_555
O14A C17A 1_555 1_555
O19A N5 1_555 1_555
N5A O19 1_555 1_555
C33A C19 1_555 1_555
Zn1A O9A 1_555 1_555
Zn2A O12 1_555 1_555
C1A C2A 1_555 1_555
C2A C3A 1_555 1_555
C3A H1A 1_555 1_555
C4A C3A 1_555 1_555
C5A C4A 1_555 1_555
H2A C5A 1_555 1_555
C6A C5A 1_555 1_555
C7A C2A 1_555 1_555
H3A C7A 1_555 1_555
C8A C6A 1_555 1_555
C9A C10A 1_555 1_555
C10A C11A 1_555 1_555
C11A H4A 1_555 1_555
C12A C11A 1_555 1_555
C13A C12A 1_555 1_555
H5A C13A 1_555 1_555
C14A C13A 1_555 1_555
C15A C10A 1_555 1_555
H6A C15A 1_555 1_555
C16A C14A 1_555 1_555
C21A C22A 1_555 1_555
C22A C23A 1_555 1_555
C23A H9A 1_555 1_555
C24A C23A 1_555 1_555
H10A C24A 1_555 1_555
C25A H11A 1_555 1_555
C26A C22A 1_555 1_555
H12A C26A 1_555 1_555
C27A C28A 1_555 1_555
C28A C29A 1_555 1_555
C29A H13A 1_555 1_555
C30A C29A 1_555 1_555
H14A C30A 1_555 1_555
C31A H15A 1_555 1_555
C32A C28A 1_555 1_555
H16A C32A 1_555 1_555
Eu1A O11 1_555 1_555
N1A C4A 1_555 1_555
O1A N1A 1_555 1_555
O2A N1A 1_555 1_555
N2A C12A 1_555 1_555
O3A N2A 1_555 1_555
O4A N2A 1_555 1_555
N3A C24A 1_555 1_555
N4A C30A 1_555 1_555
O5A C1A 1_555 1_555
O6A Zn2A 1_555 1_555
O7A C8A 1_555 1_555
O8A C8A 1_555 1_555
O9A C9A 1_555 1_555
O10A C9A 1_555 1_555
O11A Eu1 1_555 1_555
O12A Zn2 1_555 1_555
O15A C21A 1_555 1_555
O16A C21A 1_555 1_555
O17A C27A 1_555 1_555
O18A Zn1A 1_555 1_555
Zn1D N3A 1_555 1_555
Zn1E N3 1_555 1_555
Zn1F O7 1_555 1_555
Zn1G O7A 1_555 1_555
Zn2A_2 O14A 1_555 1_555
Zn2B N4A 1_555 1_555
Zn2C N4 1_555 1_555
Eu1A_2 O13A 1_555 1_555
Eu1F O8 1_555 1_555
Eu1G O8A 1_555 1_555
N3D Zn1A 1_555 1_555
N3E Zn1 1_555 1_555
N4B Zn2A 1_555 1_555
N4C Zn2 1_555 1_555
O7F Zn1 1_555 1_555
O7G Zn1A 1_555 1_555
O8F Eu1 1_555 1_555
O8G Eu1A 1_555 1_555
O13A_2 Eu1A 1_555 1_555
O14A_2 Zn2A 1_555 1_555
C6 C7 1_555 1_555
C14 C15 1_555 1_555
C17 O14 1_555 1_555
C25 C26 1_555 1_555
C25 N3 1_555 1_555
C27 O18 1_555 1_555
C31 C32 1_555 1_555
C31 N4 1_555 1_555
Eu1 O10 1_555 1_555
Eu1 O13 1_555 1_555
Eu1 O15 1_555 1_555
Eu1 O16 1_555 1_555
Eu1 O17 1_555 1_555
N5 C33A 1_555 1_555
C33 N5A 1_555 1_555
C18A C19A 1_555 1_555
C19A C33A 1_555 1_555
O19A N5A 1_555 1_555
N5A C33A 1_555 1_555
C1A O6A 1_555 1_555
C6A C7A 1_555 1_555
C14A C15A 1_555 1_555
C16A O11A 1_555 1_555
C16A O12A 1_555 1_555
C25A C26A 1_555 1_555
C25A N3A 1_555 1_555
C27A O18A 1_555 1_555
C31A C32A 1_555 1_555
C31A N4A 1_555 1_555
Eu1A O5A 1_555 1_555
Eu1A O10A 1_555 1_555
Eu1A O15A 1_555 1_555
Eu1A O16A 1_555 1_555
Eu1A O17A 1_555 1_555

#END
