
#######################################################################
#
#                 Cambridge Crystallographic Data Centre
#                                CCDC 
#
#######################################################################
#
# If this CIF has been generated from an entry in the Cambridge 
# Structural Database, then it will include bibliographic, chemical, 
# crystal, experimental, refinement or atomic coordinate data resulting 
# from the CCDC's data processing and validation procedures.
#
#######################################################################

data_EXURUM
_chemical_formula_moiety         '(C22 H12 Eu1 N3 O15 Zn1)n'
_symmetry_cell_setting           monoclinic
_symmetry_space_group_name_H-M   'P 21/n'
_symmetry_Int_Tables_number      14
_space_group_name_Hall           '-P 2yn'
loop_
_symmetry_equiv_pos_site_id
_symmetry_equiv_pos_as_xyz
1 x,y,z
2 1/2-x,1/2+y,1/2-z
3 -x,-y,-z
4 1/2+x,1/2-y,1/2+z
_cell_length_a                   10.4803(11)
_cell_length_b                   17.8855(19)
_cell_length_c                   17.8364(18)
_cell_angle_alpha                90
_cell_angle_beta                 105.7440(10)
_cell_angle_gamma                90
_cell_volume                     3217.92
loop_
_atom_site_label
_atom_site_type_symbol
_atom_site_fract_x
_atom_site_fract_y
_atom_site_fract_z
C1 C 0.7182(6) 0.0413(3) 0.4700(4)
C2 C 0.8543(6) 0.0723(3) 0.4758(3)
C3 C 0.8980(6) 0.0811(3) 0.4092(4)
H1 H 0.8401 0.0721 0.3604
C4 C 1.0278(6) 0.1032(3) 0.4153(4)
C5 C 1.1111(6) 0.1196(4) 0.4875(4)
H2 H 1.1979 0.1349 0.4926
C6 C 1.0636(6) 0.1130(4) 0.5519(4)
C7 C 0.9380(6) 0.0886(4) 0.5479(4)
H3 H 0.9100 0.0831 0.5928
C8 C 1.0802(6) 0.1053(3) 0.3447(4)
C9 C 0.3630(6) 0.1716(3) 0.2605(4)
C10 C 0.4365(6) 0.2421(3) 0.2909(4)
C11 C 0.3778(6) 0.3109(3) 0.2683(3)
H4 H 0.2973 0.3130 0.2301
C12 C 0.4368(6) 0.3763(3) 0.3015(3)
C13 C 0.5579(7) 0.3730(4) 0.3578(4)
H5 H 0.5991 0.4165 0.3810
C14 C 0.6154(7) 0.3044(4) 0.3784(5)
C15 C 0.5580(6) 0.2385(4) 0.3467(4)
H6 H 0.5992 0.1928 0.3622
C16 C 0.3702(6) 0.4510(4) 0.2785(4)
C17 C 0.4754(5) 0.1427(3) 0.5275(4)
C18 C 0.4464(6) 0.2257(3) 0.5313(3)
C19 C 0.5082(6) 0.2664(3) 0.5972(3)
H7 H 0.5650 0.2413 0.6387
C20 C 0.4072(7) 0.3752(4) 0.5454(4)
H8 H 0.3935 0.4262 0.5497
C21 C 0.3398(8) 0.3383(4) 0.4777(4)
H9 H 0.2809 0.3643 0.4378
C22 C 0.3608(7) 0.2632(4) 0.4700(4)
H10 H 0.3183 0.2381 0.4245
Eu1 Eu 0.40273(3) 0.01465(2) 0.37277(2)
N1 N 1.1542(7) 0.1291(6) 0.6299(4)
N2 N 0.7234(18) 0.3005(11) 0.4559(11)
O1 O 0.7578(14) 0.3570(8) 0.4936(9)
O2 O 0.7669(14) 0.2419(8) 0.4814(8)
N3 N 0.4909(5) 0.3398(3) 0.6044(3)
O3 O 0.6386(4) 0.0342(3) 0.4036(3)
O4 O 0.6940(4) 0.0234(3) 0.5322(3)
O5 O 0.9986(4) 0.1162(3) 0.2795(3)
O6 O 1.2007(4) 0.0972(3) 0.3527(3)
O7 O 1.248(2) 0.1801(11) 0.6291(13)
O8 O 1.1098(17) 0.1349(11) 0.6846(10)
O9 O 0.4152(4) 0.1098(2) 0.2833(2)
O10 O 0.2476(4) 0.1799(2) 0.2148(3)
O11 O 0.2824(5) 0.4549(3) 0.2166(3)
O12 O 0.4100(5) 0.5042(2) 0.3258(3)
O13 O 0.4498(4) 0.1154(2) 0.4611(2)
O14 O 0.5215(5) 0.1101(2) 0.5910(3)
O15 O 0.4850(6) -0.0447(3) 0.2685(3)
Zn1 Zn 1.10342(7) 0.10878(4) 0.20214(4)
H11 H 0.5088 -0.0889 0.2632
H12 H 0.5073 -0.0230 0.2325
Eu1_2 Eu 1.40273(3) 0.01465(2) 0.37277(2)
Eu1A Eu 0.09727(3) 0.51465(2) 0.12723(2)
Eu1B Eu 0.59727(3) -0.01465(2) 0.62723(2)
N3C N 0.9909(5) 0.1602(3) 0.1044(3)
O4B O 0.3060(4) -0.0234(3) 0.4678(3)
O6_2 O 0.2007(4) 0.0972(3) 0.3527(3)
O10_2 O 1.2476(4) 0.1799(2) 0.2148(3)
O11A O 0.2176(5) -0.0451(3) 0.2834(3)
O12A O 1.0900(5) 0.0042(2) 0.1742(3)
O14B O 0.4785(5) -0.1101(2) 0.4090(3)
Zn1_2 Zn 0.10342(7) 0.10878(4) 0.20214(4)
Zn1A Zn 0.39658(7) 0.60878(4) 0.29786(4)
Zn1C Zn 0.60342(7) 0.39122(4) 0.70214(4)
loop_
_geom_bond_atom_site_label_1
_geom_bond_atom_site_label_2
_geom_bond_site_symmetry_1
_geom_bond_site_symmetry_2
C1 C2 1_555 1_555
C2 C3 1_555 1_555
C3 H1 1_555 1_555
C4 C3 1_555 1_555
C5 C4 1_555 1_555
H2 C5 1_555 1_555
C6 C5 1_555 1_555
C7 C2 1_555 1_555
H3 C7 1_555 1_555
C8 C4 1_555 1_555
C9 C10 1_555 1_555
C10 C11 1_555 1_555
C11 H4 1_555 1_555
C12 C11 1_555 1_555
C13 C12 1_555 1_555
H5 C13 1_555 1_555
C14 C13 1_555 1_555
C15 C10 1_555 1_555
H6 C15 1_555 1_555
C16 C12 1_555 1_555
C17 C18 1_555 1_555
C18 C19 1_555 1_555
C19 H7 1_555 1_555
C20 H8 1_555 1_555
C21 C20 1_555 1_555
H9 C21 1_555 1_555
C22 C18 1_555 1_555
H10 C22 1_555 1_555
Eu1 O3 1_555 1_555
N1 C6 1_555 1_555
N2 C14 1_555 1_555
O1 N2 1_555 1_555
O2 N2 1_555 1_555
N3 C19 1_555 1_555
O3 C1 1_555 1_555
O4 C1 1_555 1_555
O5 C8 1_555 1_555
O6 C8 1_555 1_555
O7 N1 1_555 1_555
O8 N1 1_555 1_555
O9 C9 1_555 1_555
O10 C9 1_555 1_555
O11 C16 1_555 1_555
O12 C16 1_555 1_555
O13 C17 1_555 1_555
O14 C17 1_555 1_555
O15 Eu1 1_555 1_555
Zn1 O5 1_555 1_555
H11 O15 1_555 1_555
H12 O15 1_555 1_555
Eu1_2 O6 1_555 1_555
Eu1A O11 1_555 1_555
Eu1B O4 1_555 1_555
N3C Zn1 1_555 1_555
O4B Eu1 1_555 1_555
O6_2 Eu1 1_555 1_555
O10_2 Zn1 1_555 1_555
O11A Eu1 1_555 1_555
O12A Zn1 1_555 1_555
O14B Eu1 1_555 1_555
Zn1_2 O10 1_555 1_555
Zn1A O12 1_555 1_555
Zn1C N3 1_555 1_555
C6 C7 1_555 1_555
C14 C15 1_555 1_555
C20 N3 1_555 1_555
C21 C22 1_555 1_555
Eu1 O9 1_555 1_555
Eu1 O13 1_555 1_555
O14 Eu1B 1_555 1_555

#END
