
#######################################################################
#
#                 Cambridge Crystallographic Data Centre
#                                CCDC 
#
#######################################################################
#
# If this CIF has been generated from an entry in the Cambridge 
# Structural Database, then it will include bibliographic, chemical, 
# crystal, experimental, refinement or atomic coordinate data resulting 
# from the CCDC's data processing and validation procedures.
#
#######################################################################

data_EXUSAT
_chemical_formula_moiety         '(C22 H12 N3 O15 Tb1 Zn1)n'
_symmetry_cell_setting           monoclinic
_symmetry_space_group_name_H-M   'P 21/n'
_symmetry_Int_Tables_number      14
_space_group_name_Hall           '-P 2yn'
loop_
_symmetry_equiv_pos_site_id
_symmetry_equiv_pos_as_xyz
1 x,y,z
2 1/2-x,1/2+y,1/2-z
3 -x,-y,-z
4 1/2+x,1/2-y,1/2+z
_cell_length_a                   11.589(3)
_cell_length_b                   17.792(5)
_cell_length_c                   16.441(5)
_cell_angle_alpha                90
_cell_angle_beta                 109.730(4)
_cell_angle_gamma                90
_cell_volume                     3190.98
loop_
_atom_site_label
_atom_site_type_symbol
_atom_site_fract_x
_atom_site_fract_y
_atom_site_fract_z
Tb1 Tb 0.91119(6) 1.01015(3) 0.86194(4)
Zn1 Zn 0.58823(16) 1.11520(8) 0.69953(11)
C1 C 0.8048(15) 0.9412(8) 1.0158(14)
C2 C 0.6796(14) 0.9233(7) 1.0176(12)
C3 C 0.6600(14) 0.9185(9) 1.0943(12)
H1 H 0.7258 0.9246 1.1452
C4 C 0.5440(15) 0.9046(9) 1.0989(12)
C5 C 0.4514(16) 0.8943(10) 1.0257(15)
H2 H 0.3726 0.8865 1.0269
C6 C 0.4718(15) 0.8951(10) 0.9480(11)
C7 C 0.5828(14) 0.9098(10) 0.9414(11)
H3 H 0.5940 0.9108 0.8880
C8 C 0.5222(18) 0.9011(11) 1.1861(13)
C9 C 0.6355(13) 0.9616(7) 0.6989(10)
C10 C 0.5849(11) 0.8837(7) 0.6819(9)
C11 C 0.6459(14) 0.8200(7) 0.7179(9)
H4 H 0.7246 0.8249 0.7577
C12 C 0.5987(12) 0.7497(7) 0.6992(9)
C13 C 0.4869(14) 0.7410(8) 0.6352(10)
H5 H 0.4533 0.6933 0.6210
C14 C 0.4250(14) 0.8032(8) 0.5921(11)
C15 C 0.4748(15) 0.8743(7) 0.6119(10)
H6 H 0.4359 0.9155 0.5794
C16 C 0.6732(15) 0.6792(7) 0.7391(9)
C17 C 0.3645(14) 1.1360(8) 0.5465(11)
H7 H 0.3542 1.0848 0.5528
C18 C 0.2772(15) 1.1743(9) 0.4788(11)
H8 H 0.2098 1.1495 0.4407
C19 C 0.2956(14) 1.2500(8) 0.4711(10)
H9 H 0.2409 1.2773 0.4264
C20 C 0.3943(13) 1.2853(7) 0.5293(9)
C21 C 0.4723(12) 1.2438(7) 0.5948(9)
H10 H 0.5364 1.2683 0.6362
C22 C 0.4227(12) 1.3684(7) 0.5241(10)
N1 N 0.3684(17) 0.8827(12) 0.8674(13)
N2 N 0.4610(11) 1.1698(6) 0.6021(8)
O1 O 0.8117(12) 0.9522(7) 0.9429(11)
O2 O 0.8917(10) 0.9447(7) 1.0863(9)
O3 O 0.5998(15) 0.9223(13) 1.2489(11)
O4 O 0.4180(11) 0.8845(7) 1.1854(8)
O5 O 0.260(3) 0.8965(19) 0.869(2)
O6 O 0.382(3) 0.907(2) 0.799(2)
O7 O 0.5812(10) 1.0124(5) 0.6550(8)
O8 O 0.720(4) 0.9863(18) 0.786(2)
O9 O 0.7818(10) 0.6901(5) 0.7833(7)
O10 O 0.6220(10) 0.6173(5) 0.7211(7)
N3 N 0.308(4) 0.794(3) 0.537(2)
O11 O 0.253(3) 0.7394(17) 0.527(2)
O12 O 0.250(3) 0.846(2) 0.498(2)
O13 O 0.3826(11) 1.3968(6) 0.4514(9)
O14 O 0.4861(10) 1.3992(5) 0.5931(8)
O15 O 0.9776(17) 0.9737(9) 0.7454(10)
Tb1A Tb 0.58881(6) 0.51015(3) 0.63806(4)
Tb1A_2 Tb 0.58881(6) 1.51015(3) 0.63806(4)
Tb1B Tb 1.08881(6) 0.98985(3) 1.13806(4)
Tb1C Tb 0.41119(6) 1.48985(3) 0.36194(4)
Zn1A Zn 0.91177(16) 0.61520(8) 0.80047(11)
Zn1B Zn 0.41177(16) 0.88480(8) 1.30047(11)
O2B O 1.1083(10) 1.0553(7) 0.9137(9)
O4B O 0.5820(11) 1.1155(7) 0.8146(8)
O9A O 0.7182(10) 1.1901(5) 0.7167(7)
O10A O 0.8780(10) 1.1173(5) 0.7789(7)
O13C O 0.8826(11) 1.1032(6) 0.9514(9)
O14A O 1.0139(10) 0.8992(5) 0.9069(8)
loop_
_geom_bond_atom_site_label_1
_geom_bond_atom_site_label_2
_geom_bond_site_symmetry_1
_geom_bond_site_symmetry_2
Tb1 O1 1_555 1_555
Zn1 N2 1_555 1_555
C1 C2 1_555 1_555
C2 C3 1_555 1_555
C3 H1 1_555 1_555
C4 C3 1_555 1_555
C5 C4 1_555 1_555
H2 C5 1_555 1_555
C6 C5 1_555 1_555
C7 C2 1_555 1_555
H3 C7 1_555 1_555
C8 C4 1_555 1_555
C9 C10 1_555 1_555
C10 C11 1_555 1_555
C11 H4 1_555 1_555
C12 C11 1_555 1_555
C13 C12 1_555 1_555
H5 C13 1_555 1_555
C14 C13 1_555 1_555
C15 C10 1_555 1_555
H6 C15 1_555 1_555
C16 C12 1_555 1_555
C17 H7 1_555 1_555
C18 C17 1_555 1_555
H8 C18 1_555 1_555
C19 C18 1_555 1_555
H9 C19 1_555 1_555
C20 C19 1_555 1_555
C21 C20 1_555 1_555
H10 C21 1_555 1_555
C22 C20 1_555 1_555
N1 C6 1_555 1_555
N2 C17 1_555 1_555
O1 C1 1_555 1_555
O2 C1 1_555 1_555
O3 C8 1_555 1_555
O4 C8 1_555 1_555
O5 N1 1_555 1_555
O6 N1 1_555 1_555
O7 Zn1 1_555 1_555
O8 Tb1 1_555 1_555
O9 C16 1_555 1_555
O10 C16 1_555 1_555
N3 C14 1_555 1_555
O11 N3 1_555 1_555
O12 N3 1_555 1_555
O13 C22 1_555 1_555
O14 C22 1_555 1_555
O15 Tb1 1_555 1_555
Tb1A O10 1_555 1_555
Tb1A_2 O14 1_555 1_555
Tb1B O2 1_555 1_555
Tb1C O13 1_555 1_555
Zn1A O9 1_555 1_555
Zn1B O4 1_555 1_555
O2B Tb1 1_555 1_555
O4B Zn1 1_555 1_555
O9A Zn1 1_555 1_555
O10A Tb1 1_555 1_555
O13C Tb1 1_555 1_555
O14A Tb1 1_555 1_555
C6 C7 1_555 1_555
C9 O7 1_555 1_555
C9 O8 1_555 1_555
C14 C15 1_555 1_555
C21 N2 1_555 1_555

#END
