
#######################################################################
#
#                 Cambridge Crystallographic Data Centre
#                                CCDC 
#
#######################################################################
#
# If this CIF has been generated from an entry in the Cambridge 
# Structural Database, then it will include bibliographic, chemical, 
# crystal, experimental, refinement or atomic coordinate data resulting 
# from the CCDC's data processing and validation procedures.
#
#######################################################################

data_RAPYUE
_chemical_formula_moiety         '(C22 H14 N2 O14 Zn4)n'
_symmetry_cell_setting           monoclinic
_symmetry_space_group_name_H-M   'P 21'
_symmetry_Int_Tables_number      4
_space_group_name_Hall           'P 2yb'
loop_
_symmetry_equiv_pos_site_id
_symmetry_equiv_pos_as_xyz
1 x,y,z
2 -x,1/2+y,-z
_cell_length_a                   19.420(13)
_cell_length_b                   14.437(10)
_cell_length_c                   10.337(7)
_cell_angle_alpha                90
_cell_angle_beta                 89.731(13)
_cell_angle_gamma                90
_cell_volume                     2898.12
loop_
_atom_site_label
_atom_site_type_symbol
_atom_site_fract_x
_atom_site_fract_y
_atom_site_fract_z
Zn1 Zn 0.24855(8) 0.08401(8) 1.34557(14)
Zn2 Zn 0.24971(8) 0.01496(9) 2.03085(15)
Zn3 Zn 0.25139(8) 0.21990(9) 1.84495(15)
Zn4 Zn 0.25029(8) 0.28938(9) 1.53006(14)
N1 N 0.2458(5) 0.0856(9) 1.8683(8)
N2 N 0.2533(6) 0.2175(9) 1.3736(9)
O1 O 0.1621(5) -0.0316(8) 1.1035(10)
O2 O 0.1648(5) 0.0121(9) 1.3102(11)
O3 O -0.1643(5) -0.1633(7) 1.3941(8)
O4 O -0.1630(4) -0.2107(8) 1.1831(7)
O5 O 0.3343(5) -0.0360(9) 1.1049(7)
O6 O 0.3328(5) 0.0127(9) 1.3086(8)
O7 O 0.6633(5) -0.1686(8) 1.3951(11)
O8 O 0.6619(5) -0.2120(11) 1.1852(9)
O9 O 0.2449(7) -0.1022(12) 1.8883(14)
O10 O 0.2499(4) 0.1666(6) 1.6431(8)
O11 O 0.2532(6) 0.0385(7) 1.5363(7)
O12 O 0.2540(7) 0.3984(5) 1.3944(6)
O13 O 0.2494(6) 0.2602(9) 1.0290(9)
O14 O 0.2504(5) 0.1290(6) 1.1470(7)
C1 C 0.1306(7) -0.0267(10) 1.2082(14)
C2 C 0.0620(8) -0.0663(11) 1.2308(14)
C3 C 0.0312(7) -0.0956(10) 1.1264(14)
H1 H 0.0503 -0.0867 1.0447
C4 C -0.0345(8) -0.1430(14) 1.1443(15)
H2 H -0.0544 -0.1755 1.0764
C5 C -0.0672(7) -0.1387(11) 1.2657(11)
C6 C -0.1443(6) -0.1691(11) 1.2785(15)
C7 C -0.0334(8) -0.0800(12) 1.3713(16)
H3 H -0.0582 -0.0565 1.4411
C8 C 0.0369(6) -0.0643(12) 1.3560(10)
H4 H 0.0654 -0.0530 1.4262
C9 C 0.3567(8) -0.0248(12) 1.2077(15)
C10 C 0.4341(6) -0.0649(8) 1.2436(12)
C11 C 0.4630(6) -0.0675(11) 1.3529(10)
H5 H 0.4369 -0.0511 1.4250
C12 C 0.5288(7) -0.0925(13) 1.3721(12)
H6 H 0.5507 -0.0802 1.4501
C13 C 0.5643(7) -0.1387(12) 1.2689(13)
C14 C 0.6383(7) -0.1725(10) 1.2760(12)
C15 C 0.5298(8) -0.1446(13) 1.1377(15)
H7 H 0.5495 -0.1749 1.0672
C16 C 0.4655(7) -0.1000(12) 1.1322(13)
H8 H 0.4435 -0.0938 1.0530
C17 C 0.2459(13) -0.0493(16) 1.769(2)
H9 H 0.2799 -0.0793 1.7140
H10 H 0.2016 -0.0608 1.7284
C18 C 0.2547(7) 0.0811(7) 1.6351(11)
C19 C 0.2468(11) 0.3664(8) 1.2625(10)
H11 H 0.1987 0.3535 1.2447
H12 H 0.2623 0.4142 1.2031
C20 C 0.2471(7) 0.2082(13) 1.1340(11)
C21 C 0.2558(15) 0.031(3) 1.757(3)
C22 C 0.2781(14) 0.302(3) 1.248(3)
H13 H 0.3278 0.3136 1.2435
Zn2_2 Zn 0.24971(8) 0.01496(9) 1.03085(15)
Zn3A Zn -0.25139(8) -0.28010(9) 1.15505(15)
Zn3A_2 Zn 0.74861(8) -0.28010(9) 1.15505(15)
Zn3_2 Zn 0.25139(8) 0.21990(9) 0.84495(15)
Zn4A Zn -0.25029(8) -0.21062(9) 1.46994(14)
Zn4A_2 Zn 0.74971(8) -0.21062(9) 1.46994(14)
O1_2 O 0.1621(5) -0.0316(8) 2.1035(10)
O3A O 0.1643(5) 0.3367(7) 1.6059(8)
O4A O 0.1630(4) 0.2893(8) 1.8169(7)
O5_2 O 0.3343(5) -0.0360(9) 2.1049(7)
O7A O 0.3367(5) 0.3314(8) 1.6049(11)
O8A O 0.3381(5) 0.2880(11) 1.8148(9)
O13_2 O 0.2494(6) 0.2602(9) 2.0290(9)
O14_2 O 0.2504(5) 0.1290(6) 2.1470(7)
loop_
_geom_bond_atom_site_label_1
_geom_bond_atom_site_label_2
_geom_bond_site_symmetry_1
_geom_bond_site_symmetry_2
Zn1 N2 1_555 1_555
Zn2 N1 1_555 1_555
Zn3 N1 1_555 1_555
Zn4 N2 1_555 1_555
N1 C21 1_555 1_555
N2 C22 1_555 1_555
O1 C1 1_555 1_555
O2 Zn1 1_555 1_555
O3 C6 1_555 1_555
O4 C6 1_555 1_555
O5 C9 1_555 1_555
O6 Zn1 1_555 1_555
O7 C14 1_555 1_555
O8 C14 1_555 1_555
O9 Zn2 1_555 1_555
O10 Zn3 1_555 1_555
O11 Zn1 1_555 1_555
O12 Zn4 1_555 1_555
O13 C20 1_555 1_555
O14 Zn1 1_555 1_555
C1 O2 1_555 1_555
C2 C1 1_555 1_555
C3 C2 1_555 1_555
H1 C3 1_555 1_555
C4 C3 1_555 1_555
H2 C4 1_555 1_555
C5 C4 1_555 1_555
C6 C5 1_555 1_555
C7 C5 1_555 1_555
H3 C7 1_555 1_555
C8 C2 1_555 1_555
H4 C8 1_555 1_555
C9 O6 1_555 1_555
C10 C9 1_555 1_555
C11 C10 1_555 1_555
H5 C11 1_555 1_555
C12 C11 1_555 1_555
H6 C12 1_555 1_555
C13 C12 1_555 1_555
C14 C13 1_555 1_555
C15 C13 1_555 1_555
H7 C15 1_555 1_555
C16 C10 1_555 1_555
H8 C16 1_555 1_555
C17 O9 1_555 1_555
H9 C17 1_555 1_555
H10 C17 1_555 1_555
C18 O10 1_555 1_555
C19 O12 1_555 1_555
H11 C19 1_555 1_555
H12 C19 1_555 1_555
C20 O14 1_555 1_555
C21 C17 1_555 1_555
C22 C19 1_555 1_555
H13 C22 1_555 1_555
Zn2_2 O1 1_555 1_555
Zn3A O4 1_555 1_555
Zn3A_2 O8 1_555 1_555
Zn3_2 O13 1_555 1_555
Zn4A O3 1_555 1_555
Zn4A_2 O7 1_555 1_555
O1_2 Zn2 1_555 1_555
O3A Zn4 1_555 1_555
O4A Zn3 1_555 1_555
O5_2 Zn2 1_555 1_555
O7A Zn4 1_555 1_555
O8A Zn3 1_555 1_555
O13_2 Zn3 1_555 1_555
O14_2 Zn2 1_555 1_555
Zn4 O10 1_555 1_555
O5 Zn2_2 1_555 1_555
O11 C18 1_555 1_555
O14 Zn2_2 1_555 1_555
C7 C8 1_555 1_555
C15 C16 1_555 1_555
C18 C21 1_555 1_555
C20 C22 1_555 1_555

#END
