
#######################################################################
#
#                 Cambridge Crystallographic Data Centre
#                                CCDC 
#
#######################################################################
#
# If this CIF has been generated from an entry in the Cambridge 
# Structural Database, then it will include bibliographic, chemical, 
# crystal, experimental, refinement or atomic coordinate data resulting 
# from the CCDC's data processing and validation procedures.
#
#######################################################################

data_GITZAM
_chemical_formula_moiety         '(C58 H58 Cd2 N8 O9)n'
_symmetry_cell_setting           monoclinic
_symmetry_space_group_name_H-M   'C 2/c'
_symmetry_Int_Tables_number      15
_space_group_name_Hall           '-C 2yc'
loop_
_symmetry_equiv_pos_site_id
_symmetry_equiv_pos_as_xyz
1 x,y,z
2 -x,y,1/2-z
3 1/2+x,1/2+y,z
4 1/2-x,1/2+y,1/2-z
5 -x,-y,-z
6 x,-y,1/2+z
7 1/2-x,1/2-y,-z
8 1/2+x,1/2-y,1/2+z
_cell_length_a                   13.977(5)
_cell_length_b                   17.017(5)
_cell_length_c                   24.062(5)
_cell_angle_alpha                90
_cell_angle_beta                 93.727(5)
_cell_angle_gamma                90
_cell_volume                     5710.96
loop_
_atom_site_label
_atom_site_type_symbol
_atom_site_fract_x
_atom_site_fract_y
_atom_site_fract_z
_atom_site_U_iso_or_equiv
_atom_site_thermal_displace_type
C1 C 0.7813(2) 0.4438(2) 0.00968(12) 0.0429 Uani
H1 H 0.7749 0.4385 -0.0289 0.0520 Uiso
C2 C 0.8396(2) 0.4647(3) 0.09199(13) 0.0601 Uani
H2 H 0.8827 0.4770 0.1218 0.0720 Uiso
C3 C 0.7480(2) 0.4453(3) 0.09680(12) 0.0584 Uani
H3 H 0.7164 0.4417 0.1295 0.0700 Uiso
C4 C 0.6130(2) 0.41077(18) 0.02641(11) 0.0372 Uani
C5 C 0.5397(2) 0.43462(18) 0.05858(12) 0.0393 Uani
H4 H 0.5535 0.4629 0.0912 0.0470 Uiso
C6 C 0.4459(2) 0.41608(18) 0.04181(11) 0.0381 Uani
H5 H 0.3961 0.4323 0.0629 0.0460 Uiso
C7 C 0.4265(2) 0.37340(16) -0.00643(11) 0.0337 Uani
C8 C 0.5012(2) 0.34938(17) -0.03827(11) 0.0361 Uani
C9 C 0.5954(2) 0.36730(18) -0.02195(12) 0.0403 Uani
H6 H 0.6454 0.3507 -0.0428 0.0480 Uiso
C10 C 0.4637(2) 0.30243(19) -0.08958(12) 0.0421 Uani
C11 C 0.3571(2) 0.30281(18) -0.08119(11) 0.0386 Uani
C12 C 0.3354(2) 0.34428(17) -0.03339(11) 0.0343 Uani
C13 C 0.2422(2) 0.35097(17) -0.01864(11) 0.0383 Uani
H7 H 0.2281 0.3792 0.0129 0.0460 Uiso
C14 C 0.1702(2) 0.31522(18) -0.05121(12) 0.0401 Uani
H8 H 0.1070 0.3189 -0.0416 0.0480 Uiso
C15 C 0.1917(2) 0.27374(18) -0.09829(12) 0.0379 Uani
C16 C 0.2847(2) 0.26789(19) -0.11426(12) 0.0423 Uani
H9 H 0.2981 0.2411 -0.1465 0.0510 Uiso
C17 C 0.5042(2) 0.2194(2) -0.08815(17) 0.0634 Uani
H10 H 0.5716 0.2212 -0.0936 0.0950 Uiso
H11 H 0.4721 0.1887 -0.1172 0.0950 Uiso
H12 H 0.4944 0.1959 -0.0527 0.0950 Uiso
C18 C 0.4847(3) 0.3456(3) -0.14360(13) 0.0655 Uani
H13 H 0.5524 0.3445 -0.1482 0.0980 Uiso
H14 H 0.4635 0.3991 -0.1416 0.0980 Uiso
H15 H 0.4514 0.3200 -0.1747 0.0980 Uiso
C19 C 0.1218(2) 0.17037(19) -0.16195(12) 0.0417 Uani
H16 H 0.1787 0.1435 -0.1664 0.0500 Uiso
C20 C 0.0199(2) 0.2572(2) -0.13445(14) 0.0522 Uani
H17 H -0.0074 0.3000 -0.1174 0.0630 Uiso
C21 C -0.0257(2) 0.2035(2) -0.16784(14) 0.0532 Uani
H18 H -0.0912 0.2034 -0.1776 0.0640 Uiso
C22 C -0.1690(2) -0.0172(2) -0.24314(13) 0.0435 Uani
C23 C -0.2618(2) -0.0627(2) -0.23566(13) 0.0584 Uani
H19 H -0.2572 -0.0840 -0.1977 0.0700 Uiso
C24 C -0.3481(2) -0.0085(3) -0.23994(14) 0.0733 Uani
H20 H -0.3345 0.0376 -0.2171 0.0880 Uiso
H21 H -0.4026 -0.0353 -0.2256 0.0880 Uiso
C25 C -0.3737(2) 0.0173(2) -0.29987(13) 0.0548 Uani
H22 H -0.4305 0.0500 -0.3010 0.0660 Uiso
H23 H -0.3215 0.0482 -0.3132 0.0660 Uiso
C26 C -0.3918(2) -0.0533(2) -0.33735(11) 0.0433 Uani
H24 H -0.4445 -0.0830 -0.3225 0.0520 Uiso
C27 C -0.3044(2) -0.1072(2) -0.33472(13) 0.0501 Uani
H25 H -0.3186 -0.1536 -0.3572 0.0600 Uiso
H26 H -0.2510 -0.0802 -0.3500 0.0600 Uiso
C28 C -0.2766(3) -0.1317(2) -0.27488(15) 0.0718 Uani
H27 H -0.3266 -0.1652 -0.2617 0.0860 Uiso
H28 H -0.2180 -0.1623 -0.2742 0.0860 Uiso
C29 C -0.42271(19) -0.03230(19) -0.39694(11) 0.0346 Uani
N1 N 0.86171(18) 0.46413(17) 0.03763(10) 0.0434 Uani
N2 N 0.70978(17) 0.43166(15) 0.04331(9) 0.0402 Uani
N3 N 0.11510(17) 0.23558(15) -0.13065(10) 0.0394 Uani
N4 N 0.03801(17) 0.14924(16) -0.18539(10) 0.0422 Uani
O1 O -0.46434(15) -0.08494(13) -0.42660(8) 0.0444 Uani
O2 O -0.40715(16) 0.03450(13) -0.41545(8) 0.0488 Uani
O3 O -0.1507(2) 0.0408(2) -0.21257(12) 0.0874 Uani
O4 O -0.11405(18) -0.03692(18) -0.27764(12) 0.0767 Uani
Cd1 Cd 1.0000 0.5000 0.0000 0.0339 Uani
Cd2 Cd -0.0000 0.055712(19) -0.2500 0.0332 Uani
C1A C -0.7813(2) 0.4438(2) -0.50968(12) 0.0429 Uani
H1A H -0.7749 0.4385 -0.4711 0.0520 Uiso
C2A C -0.8396(2) 0.4647(3) -0.59199(13) 0.0601 Uani
H2A H -0.8827 0.4770 -0.6218 0.0720 Uiso
C3A C -0.7480(2) 0.4453(3) -0.59680(12) 0.0584 Uani
H3A H -0.7164 0.4417 -0.6295 0.0700 Uiso
C4A C -0.6130(2) 0.41077(18) -0.52641(11) 0.0372 Uani
C5A C -0.5397(2) 0.43462(18) -0.55858(12) 0.0393 Uani
H4A H -0.5535 0.4629 -0.5912 0.0470 Uiso
C6A C -0.4459(2) 0.41608(18) -0.54181(11) 0.0381 Uani
H5A H -0.3961 0.4323 -0.5629 0.0460 Uiso
C7A C -0.4265(2) 0.37340(16) -0.49357(11) 0.0337 Uani
C8A C -0.5012(2) 0.34938(17) -0.46173(11) 0.0361 Uani
C9A C -0.5954(2) 0.36730(18) -0.47805(12) 0.0403 Uani
H6A H -0.6454 0.3507 -0.4572 0.0480 Uiso
C10A C -0.4637(2) 0.30243(19) -0.41042(12) 0.0421 Uani
C11A C -0.3571(2) 0.30281(18) -0.41881(11) 0.0386 Uani
C12A C -0.3354(2) 0.34428(17) -0.46661(11) 0.0343 Uani
C13A C -0.2422(2) 0.35097(17) -0.48136(11) 0.0383 Uani
H7A H -0.2281 0.3792 -0.5129 0.0460 Uiso
C14A C -0.1702(2) 0.31522(18) -0.44879(12) 0.0401 Uani
H8A H -0.1070 0.3189 -0.4584 0.0480 Uiso
C15A C -0.1917(2) 0.27374(18) -0.40171(12) 0.0379 Uani
C16A C -0.2847(2) 0.26789(19) -0.38574(12) 0.0423 Uani
H9A H -0.2981 0.2411 -0.3535 0.0510 Uiso
C17A C -0.5042(2) 0.2194(2) -0.41185(17) 0.0634 Uani
H10A H -0.5716 0.2212 -0.4064 0.0950 Uiso
H11A H -0.4721 0.1887 -0.3828 0.0950 Uiso
H12A H -0.4944 0.1959 -0.4473 0.0950 Uiso
C18A C -0.4847(3) 0.3456(3) -0.35640(13) 0.0655 Uani
H13A H -0.5524 0.3445 -0.3518 0.0980 Uiso
H14A H -0.4635 0.3991 -0.3584 0.0980 Uiso
H15A H -0.4514 0.3200 -0.3253 0.0980 Uiso
C19A C -0.1218(2) 0.17037(19) -0.33805(12) 0.0417 Uani
H16A H -0.1787 0.1435 -0.3336 0.0500 Uiso
C20A C -0.0199(2) 0.2572(2) -0.36555(14) 0.0522 Uani
H17A H 0.0074 0.3000 -0.3826 0.0630 Uiso
C21A C 0.0257(2) 0.2035(2) -0.33216(14) 0.0532 Uani
H18A H 0.0912 0.2034 -0.3224 0.0640 Uiso
C22A C 0.1690(2) -0.0172(2) -0.25686(13) 0.0435 Uani
C23A C 0.2618(2) -0.0627(2) -0.26434(13) 0.0584 Uani
H19A H 0.2572 -0.0840 -0.3023 0.0700 Uiso
C24A C 0.3481(2) -0.0085(3) -0.26006(14) 0.0733 Uani
H20A H 0.3345 0.0376 -0.2829 0.0880 Uiso
H21A H 0.4026 -0.0353 -0.2744 0.0880 Uiso
C25A C 0.3737(2) 0.0173(2) -0.20013(13) 0.0548 Uani
H22A H 0.4305 0.0500 -0.1990 0.0660 Uiso
H23A H 0.3215 0.0482 -0.1868 0.0660 Uiso
C26A C 0.3918(2) -0.0533(2) -0.16265(11) 0.0433 Uani
H24A H 0.4445 -0.0830 -0.1775 0.0520 Uiso
C27A C 0.3044(2) -0.1072(2) -0.16528(13) 0.0501 Uani
H25A H 0.3186 -0.1536 -0.1428 0.0600 Uiso
H26A H 0.2510 -0.0802 -0.1500 0.0600 Uiso
C28A C 0.2766(3) -0.1317(2) -0.22512(15) 0.0718 Uani
H27A H 0.3266 -0.1652 -0.2383 0.0860 Uiso
H28A H 0.2180 -0.1623 -0.2258 0.0860 Uiso
C29A C 0.42271(19) -0.03230(19) -0.10306(11) 0.0346 Uani
N1A N -0.86171(18) 0.46413(17) -0.53763(10) 0.0434 Uani
N2A N -0.70978(17) 0.43166(15) -0.54331(9) 0.0402 Uani
N3A N -0.11510(17) 0.23558(15) -0.36935(10) 0.0394 Uani
N4A N -0.03801(17) 0.14924(16) -0.31461(10) 0.0422 Uani
O1A O 0.46434(15) -0.08494(13) -0.07340(8) 0.0444 Uani
O2A O 0.40715(16) 0.03450(13) -0.08455(8) 0.0488 Uani
O3A O 0.1507(2) 0.0408(2) -0.28743(12) 0.0874 Uani
O4A O 0.11405(18) -0.03692(18) -0.22236(12) 0.0767 Uani
N1D N 1.13829(18) 0.53587(17) -0.03763(10) 0.0434 Uani
O1C O 0.96434(15) 0.41506(13) -0.07340(8) 0.0444 Uani
O1G O 1.03566(15) 0.58494(13) 0.07340(8) 0.0444 Uani
O2C O 0.90715(16) 0.53450(13) -0.08455(8) 0.0488 Uani
O2G O 1.09285(16) 0.46550(13) 0.08455(8) 0.0488 Uani
Cd1A Cd -1.0000 0.5000 -0.5000 0.0339 Uani
Cd1B Cd 0.5000 0.0000 0.0000 0.0339 Uani
Cd1C Cd -0.5000 -0.0000 -0.5000 0.0339 Uani
O5 O -0.2935(13) 0.1810(11) -0.2360(7) 0.5980 Uiso
loop_
_atom_site_aniso_label
_atom_site_aniso_U_11
_atom_site_aniso_U_22
_atom_site_aniso_U_33
_atom_site_aniso_U_23
_atom_site_aniso_U_13
_atom_site_aniso_U_12
C1 0.0418(17) 0.059(2) 0.0281(14) -0.0052(14) 0.0032(12) -0.0153(16)
C2 0.0458(19) 0.104(3) 0.0297(16) -0.0049(18) -0.0040(14) -0.019(2)
C3 0.0434(19) 0.105(3) 0.0268(15) -0.0037(17) 0.0017(13) -0.015(2)
C4 0.0352(15) 0.0415(17) 0.0346(15) 0.0018(13) -0.0004(12) -0.0106(13)
C5 0.0434(17) 0.0433(18) 0.0312(14) -0.0024(13) 0.0020(12) -0.0058(14)
C6 0.0381(16) 0.0432(17) 0.0334(15) -0.0010(13) 0.0063(12) -0.0026(14)
C7 0.0339(15) 0.0325(15) 0.0344(14) 0.0028(12) 0.0002(11) -0.0029(12)
C8 0.0364(15) 0.0367(16) 0.0353(15) -0.0041(12) 0.0037(12) -0.0081(13)
C9 0.0373(16) 0.0464(18) 0.0379(15) -0.0059(13) 0.0072(12) -0.0051(14)
C10 0.0367(16) 0.0489(19) 0.0411(16) -0.0131(14) 0.0067(12) -0.0112(14)
C11 0.0373(16) 0.0399(17) 0.0386(16) -0.0047(13) 0.0026(12) -0.0064(13)
C12 0.0366(15) 0.0338(16) 0.0321(14) -0.0012(12) -0.0002(11) -0.0022(13)
C13 0.0401(16) 0.0377(17) 0.0366(15) -0.0066(12) -0.0009(12) 0.0027(13)
C14 0.0319(15) 0.0421(18) 0.0459(17) -0.0055(14) -0.0002(12) 0.0047(13)
C15 0.0338(15) 0.0383(17) 0.0406(16) -0.0024(13) -0.0056(12) -0.0024(13)
C16 0.0438(17) 0.0469(18) 0.0364(15) -0.0116(13) 0.0033(13) -0.0080(14)
C17 0.045(2) 0.056(2) 0.090(3) -0.029(2) 0.0101(18) -0.0051(18)
C18 0.066(2) 0.090(3) 0.0415(19) -0.0089(19) 0.0103(16) -0.027(2)
C19 0.0368(16) 0.0454(18) 0.0427(17) -0.0086(14) 0.0012(13) 0.0017(14)
C20 0.0401(18) 0.051(2) 0.064(2) -0.0123(17) -0.0090(15) 0.0119(16)
C21 0.0356(17) 0.059(2) 0.063(2) -0.0163(17) -0.0124(15) 0.0060(16)
C22 0.0305(16) 0.061(2) 0.0375(16) 0.0139(15) -0.0090(13) -0.0077(15)
C23 0.0410(18) 0.097(3) 0.0354(17) 0.0246(18) -0.0123(13) -0.0278(19)
C24 0.0334(18) 0.152(5) 0.0343(18) -0.001(2) 0.0000(14) -0.018(2)
C25 0.0364(17) 0.091(3) 0.0364(17) -0.0093(17) -0.0028(13) 0.0065(18)
C26 0.0286(14) 0.070(2) 0.0304(14) 0.0124(15) -0.0057(11) -0.0104(15)
C27 0.0464(18) 0.049(2) 0.0519(19) 0.0095(15) -0.0193(14) -0.0077(16)
C28 0.065(2) 0.074(3) 0.071(2) 0.037(2) -0.0366(19) -0.032(2)
C29 0.024 0.0471 0.0325 0.0069 0.0002 0.0012
N1 0.0380(14) 0.0597(18) 0.0321(13) -0.0044(12) -0.0003(10) -0.0117(13)
N2 0.0341(13) 0.0553(17) 0.0311(13) -0.0050(11) 0.0017(10) -0.0098(12)
N3 0.0342(13) 0.0407(15) 0.0423(14) -0.0068(11) -0.0059(10) -0.0007(11)
N4 0.0343(13) 0.0467(16) 0.0446(14) -0.0093(12) -0.0044(10) 0.0017(12)
O1 0.049 0.0471 0.0352 0.01 -0.0122 -0.0108
O2 0.0605 0.0467 0.0378 0.0042 -0.0083 -0.0053
O3 0.076(2) 0.119(3) 0.0718(18) -0.0421(18) 0.0402(15) -0.0527(19)
O4 0.0467(15) 0.090(2) 0.096(2) -0.0384(17) 0.0239(14) -0.0220(15)
Cd1 0.02891(16) 0.04433(19) 0.02780(15) -0.00657(12) -0.00374(11) -0.00498(13)
Cd2 0.02449(15) 0.04312(18) 0.03136(16) 0.000 -0.00200(10) 0.000
C1A 0.0418 0.059 0.0281 0.0052 0.0032 0.0153
C2A 0.0458 0.104 0.0297 0.0049 -0.004 0.019
C3A 0.0434 0.105 0.0268 0.0037 0.0017 0.015
C4A 0.0352 0.0415 0.0346 -0.0018 -0.0004 0.0106
C5A 0.0434 0.0433 0.0312 0.0024 0.002 0.0058
C6A 0.0381 0.0432 0.0334 0.001 0.0063 0.0026
C7A 0.0339 0.0325 0.0344 -0.0028 0.0002 0.0029
C8A 0.0364 0.0367 0.0353 0.0041 0.0037 0.0081
C9A 0.0373 0.0464 0.0379 0.0059 0.0072 0.0051
C10A 0.0367 0.0489 0.0411 0.0131 0.0067 0.0112
C11A 0.0373 0.0399 0.0386 0.0047 0.0026 0.0064
C12A 0.0366 0.0338 0.0321 0.0012 -0.0002 0.0022
C13A 0.0401 0.0377 0.0366 0.0066 -0.0009 -0.0027
C14A 0.0319 0.0421 0.0459 0.0055 -0.0002 -0.0047
C15A 0.0338 0.0383 0.0406 0.0024 -0.0056 0.0024
C16A 0.0438 0.0469 0.0364 0.0116 0.0033 0.008
C17A 0.045 0.056 0.09 0.029 0.0101 0.0051
C18A 0.066 0.09 0.0415 0.0089 0.0103 0.027
C19A 0.0368 0.0454 0.0427 0.0086 0.0012 -0.0017
C20A 0.0401 0.051 0.064 0.0123 -0.009 -0.0119
C21A 0.0356 0.059 0.063 0.0163 -0.0124 -0.006
C22A 0.0305 0.061 0.0375 -0.0139 -0.009 0.0077
C23A 0.041 0.097 0.0354 -0.0246 -0.0123 0.0278
C24A 0.0334 0.152 0.0343 0.001 0 0.018
C25A 0.0364 0.091 0.0364 0.0093 -0.0028 -0.0065
C26A 0.0286 0.07 0.0304 -0.0124 -0.0057 0.0104
C27A 0.0464 0.049 0.0519 -0.0095 -0.0193 0.0077
C28A 0.065 0.074 0.071 -0.037 -0.0366 0.032
C29A 0.024 0.0471 0.0325 -0.0069 0.0002 -0.0012
N1A 0.038 0.0597 0.0321 0.0044 -0.0003 0.0117
N2A 0.0341 0.0553 0.0311 0.005 0.0017 0.0098
N3A 0.0342 0.0407 0.0423 0.0068 -0.0059 0.0007
N4A 0.0343 0.0467 0.0446 0.0093 -0.0044 -0.0017
O1A 0.049 0.0471 0.0352 -0.01 -0.0122 0.0108
O2A 0.0605 0.0467 0.0378 -0.0042 -0.0083 0.0053
O3A 0.076 0.119 0.0718 0.0421 0.0402 0.0527
O4A 0.0467 0.09 0.096 0.0384 0.0239 0.022
N1D 0.038 0.0597 0.0321 -0.0044 -0.0003 -0.0117
O1C 0.049 0.0471 0.0352 -0.01 -0.0122 0.0108
O1G 0.049 0.0471 0.0352 -0.01 -0.0122 0.0108
O2C 0.0605 0.0467 0.0378 -0.0042 -0.0083 0.0053
O2G 0.0605 0.0467 0.0378 -0.0042 -0.0083 0.0053
Cd1A 0.02891 0.04433 0.0278 0.00657 -0.00374 0.00498
Cd1B 0.02891 0.04433 0.0278 -0.00657 -0.00374 -0.00498
Cd1C 0.02891 0.04433 0.0278 0.00657 -0.00374 0.00498
loop_
_geom_bond_atom_site_label_1
_geom_bond_atom_site_label_2
_geom_bond_site_symmetry_1
_geom_bond_site_symmetry_2
C1 H1 1_555 1_555
C2 H2 1_555 1_555
C3 C2 1_555 1_555
H3 C3 1_555 1_555
C4 C5 1_555 1_555
C5 H4 1_555 1_555
C6 C5 1_555 1_555
H5 C6 1_555 1_555
C7 C6 1_555 1_555
C8 C7 1_555 1_555
C9 C4 1_555 1_555
H6 C9 1_555 1_555
C10 C8 1_555 1_555
C11 C10 1_555 1_555
C12 C7 1_555 1_555
C13 C12 1_555 1_555
H7 C13 1_555 1_555
C14 C13 1_555 1_555
H8 C14 1_555 1_555
C15 C14 1_555 1_555
C16 C11 1_555 1_555
H9 C16 1_555 1_555
C17 C10 1_555 1_555
H10 C17 1_555 1_555
H11 C17 1_555 1_555
H12 C17 1_555 1_555
C18 C10 1_555 1_555
H13 C18 1_555 1_555
H14 C18 1_555 1_555
H15 C18 1_555 1_555
C19 H16 1_555 1_555
C20 H17 1_555 1_555
C21 C20 1_555 1_555
H18 C21 1_555 1_555
C22 C23 1_555 1_555
C23 H19 1_555 1_555
C24 C23 1_555 1_555
H20 C24 1_555 1_555
H21 C24 1_555 1_555
C25 C24 1_555 1_555
H22 C25 1_555 1_555
H23 C25 1_555 1_555
C26 C25 1_555 1_555
H24 C26 1_555 1_555
C27 C26 1_555 1_555
H25 C27 1_555 1_555
H26 C27 1_555 1_555
C28 C23 1_555 1_555
H27 C28 1_555 1_555
H28 C28 1_555 1_555
C29 C26 1_555 1_555
N1 C1 1_555 1_555
N2 C1 1_555 1_555
N3 C15 1_555 1_555
N4 C19 1_555 1_555
O1 C29 1_555 1_555
O2 C29 1_555 1_555
O3 C22 1_555 1_555
O4 C22 1_555 1_555
Cd1 N1 1_555 1_555
Cd2 N4 1_555 1_555
C1A H1A 1_555 1_555
C2A H2A 1_555 1_555
C3A C2A 1_555 1_555
H3A C3A 1_555 1_555
C4A C5A 1_555 1_555
C5A H4A 1_555 1_555
C6A C5A 1_555 1_555
H5A C6A 1_555 1_555
C7A C6A 1_555 1_555
C8A C7A 1_555 1_555
C9A C4A 1_555 1_555
H6A C9A 1_555 1_555
C10A C8A 1_555 1_555
C11A C10A 1_555 1_555
C12A C7A 1_555 1_555
C13A C12A 1_555 1_555
H7A C13A 1_555 1_555
C14A C13A 1_555 1_555
H8A C14A 1_555 1_555
C15A C14A 1_555 1_555
C16A C11A 1_555 1_555
H9A C16A 1_555 1_555
C17A C10A 1_555 1_555
H10A C17A 1_555 1_555
H11A C17A 1_555 1_555
H12A C17A 1_555 1_555
C18A C10A 1_555 1_555
H13A C18A 1_555 1_555
H14A C18A 1_555 1_555
H15A C18A 1_555 1_555
C19A H16A 1_555 1_555
C20A H17A 1_555 1_555
C21A C20A 1_555 1_555
H18A C21A 1_555 1_555
C22A C23A 1_555 1_555
C23A H19A 1_555 1_555
C24A C23A 1_555 1_555
H20A C24A 1_555 1_555
H21A C24A 1_555 1_555
C25A C24A 1_555 1_555
H22A C25A 1_555 1_555
H23A C25A 1_555 1_555
C26A C25A 1_555 1_555
H24A C26A 1_555 1_555
C27A C26A 1_555 1_555
H25A C27A 1_555 1_555
H26A C27A 1_555 1_555
C28A C23A 1_555 1_555
H27A C28A 1_555 1_555
H28A C28A 1_555 1_555
C29A C26A 1_555 1_555
N1A C1A 1_555 1_555
N2A C1A 1_555 1_555
N3A C15A 1_555 1_555
N4A Cd2 1_555 1_555
O1A C29A 1_555 1_555
O2A C29A 1_555 1_555
O3A Cd2 1_555 1_555
O4A Cd2 1_555 1_555
N1D Cd1 1_555 1_555
O1C Cd1 1_555 1_555
O1G Cd1 1_555 1_555
O2C Cd1 1_555 1_555
O2G Cd1 1_555 1_555
Cd1A N1A 1_555 1_555
Cd1B O1A 1_555 1_555
Cd1C O1 1_555 1_555
C2 N1 1_555 1_555
C3 N2 1_555 1_555
C4 N2 1_555 1_555
C8 C9 1_555 1_555
C11 C12 1_555 1_555
C15 C16 1_555 1_555
C19 N3 1_555 1_555
C20 N3 1_555 1_555
C21 N4 1_555 1_555
C27 C28 1_555 1_555
O2 Cd1C 1_555 1_555
O3 Cd2 1_555 1_555
O4 Cd2 1_555 1_555
C2A N1A 1_555 1_555
C3A N2A 1_555 1_555
C4A N2A 1_555 1_555
C8A C9A 1_555 1_555
C11A C12A 1_555 1_555
C15A C16A 1_555 1_555
C19A N3A 1_555 1_555
C19A N4A 1_555 1_555
C20A N3A 1_555 1_555
C21A N4A 1_555 1_555
C22A O3A 1_555 1_555
C22A O4A 1_555 1_555
C27A C28A 1_555 1_555
O2A Cd1B 1_555 1_555

#END
