
#######################################################################
#
#                 Cambridge Crystallographic Data Centre
#                                CCDC 
#
#######################################################################
#
# If this CIF has been generated from an entry in the Cambridge 
# Structural Database, then it will include bibliographic, chemical, 
# crystal, experimental, refinement or atomic coordinate data resulting 
# from the CCDC's data processing and validation procedures.
#
#######################################################################

data_QAVBUL
_chemical_formula_moiety         '(C33 H29 O8 Tb1)n'
_symmetry_cell_setting           rhombohedral
_symmetry_space_group_name_H-M   'R 3 2'
_symmetry_Int_Tables_number      155
_space_group_name_Hall           'R 3 2"'
loop_
_symmetry_equiv_pos_site_id
_symmetry_equiv_pos_as_xyz
1 x,y,z
2 -y,x-y,z
3 -x+y,-x,z
4 y,x,-z
5 x-y,-y,-z
6 -x,-x+y,-z
7 2/3+x,1/3+y,1/3+z
8 2/3-y,1/3+x-y,1/3+z
9 2/3-x+y,1/3-x,1/3+z
10 2/3+y,1/3+x,1/3-z
11 2/3+x-y,1/3-y,1/3-z
12 2/3-x,1/3-x+y,1/3-z
13 1/3+x,2/3+y,2/3+z
14 1/3-y,2/3+x-y,2/3+z
15 1/3-x+y,2/3-x,2/3+z
16 1/3+y,2/3+x,2/3-z
17 1/3+x-y,2/3-y,2/3-z
18 1/3-x,2/3-x+y,2/3-z
_cell_length_a                   28.5344(8)
_cell_length_b                   28.5344(8)
_cell_length_c                   12.2148(5)
_cell_angle_alpha                90
_cell_angle_beta                 90
_cell_angle_gamma                120.00
_cell_volume                     8613
loop_
_atom_site_label
_atom_site_type_symbol
_atom_site_fract_x
_atom_site_fract_y
_atom_site_fract_z
_atom_site_U_iso_or_equiv
_atom_site_thermal_displace_type
Tb1 Tb 0.344180(6) 0.010846(6) 0.3333 0.0259 Uani
O1 O 0.31930(8) 0.06930(7) 0.25274(16) 0.0435 Uani
O2 O 0.04295(6) 0.31906(6) 0.16358(13) 0.0325 Uani
O3 O 0.08329(6) 0.38600(7) 0.28140(14) 0.0340 Uani
O4 O 0.42939(10) 0.09605(10) 0.3333 0.0580 Uani
C1 C 0.3333 0.09651(14) 0.1667 0.0307 Uani
C2 C 0.3333 0.14994(15) 0.1667 0.0345 Uani
C3 C 0.29961(11) 0.15703(10) 0.2369(2) 0.0393 Uani
H2 H 0.2779 0.1303 0.2867 0.0470 Uiso
C4 C 0.29902(11) 0.20502(10) 0.2311(3) 0.0390 Uani
H3 H 0.2741 0.2090 0.2732 0.0470 Uiso
C5 C 0.3333 0.24627(15) 0.1667 0.0314 Uani
C6 C 0.3333 0.29962(14) 0.1667 0.0286 Uani
C7 C 0.28521(10) 0.30086(11) 0.1747(2) 0.0356 Uani
H4 H 0.2527 0.2684 0.1803 0.0430 Uiso
C8 C 0.28427(10) 0.34885(10) 0.1744(2) 0.0307 Uani
C9 C 0.3333 0.39752(14) 0.1667 0.0294 Uani
H5 H 0.3333 0.4301 0.1667 0.0350 Uiso
C10 C 0.23262(9) 0.34915(10) 0.1836(2) 0.0296 Uani
C11 C 0.18488(10) 0.30997(11) 0.1373(3) 0.0392 Uani
H6 H 0.1844 0.2810 0.1014 0.0470 Uiso
C12 C 0.13826(10) 0.31235(10) 0.1423(2) 0.0335 Uani
H7 H 0.1070 0.2856 0.1088 0.0400 Uiso
C13 C 0.13740(10) 0.35489(10) 0.1977(2) 0.0314 Uani
C14 C 0.18449(10) 0.39419(11) 0.2455(2) 0.0366 Uani
H8 H 0.1845 0.4227 0.2822 0.0440 Uiso
C15 C 0.23104(11) 0.39206(10) 0.2402(2) 0.0379 Uani
H9 H 0.2622 0.4189 0.2738 0.0460 Uiso
C16 C 0.08595(10) 0.35457(10) 0.2135(2) 0.0293 Uani
Tb1A Tb -0.010846(6) 0.333334(8) 0.3333 0.0259 Uani
Tb1J Tb 0.000001(8) 0.322487(6) 0.0000 0.0259 Uani
Tb1K Tb 0.322487(6) -0.000001(8) 0.0000 0.0259 Uani
Tb1B Tb 0.666666(8) 0.655820(6) 0.3333 0.0259 Uani
Tb1I Tb 0.677513(6) 0.677513(6) 0.0000 0.0259 Uani
O1K O 0.34737(8) 0.08333(11) 0.08059(16) 0.0435 Uani
O1O O 0.40263(7) -0.01403(8) 0.41393(16) 0.0435 Uani
O2K O 0.62372(6) 0.60944(8) 0.16975(13) 0.0325 Uani
O2B O 0.27611(8) -0.04295(6) 0.16358(13) 0.0325 Uani
O2G O 0.34761(6) 0.05722(8) 0.49691(13) 0.0325 Uani
O2J O 0.39056(8) 0.01427(6) 0.16975(13) 0.0325 Uani
O2Q O 0.29038(6) -0.05722(8) 0.50309(13) 0.0325 Uani
O3K O 0.58338(6) 0.63604(9) 0.05193(14) 0.0340 Uani
O3B O 0.30271(9) -0.08329(6) 0.28140(14) 0.0340 Uani
O3Q O 0.25004(6) -0.03062(9) 0.38527(14) 0.0340 Uani
C3K C 0.36706(11) 0.19075(15) 0.0964(2) 0.0393 Uani
H2K H 0.3888 0.1857 0.0466 0.0470 Uiso
C4K C 0.36765(11) 0.23933(15) 0.1022(3) 0.0390 Uani
H3K H 0.3926 0.2682 0.0601 0.0470 Uiso
C7K C 0.38146(10) 0.34898(15) 0.1586(2) 0.0356 Uani
H4K H 0.4140 0.3490 0.1530 0.0430 Uiso
C8K C 0.38240(10) 0.39791(14) 0.1589(2) 0.0307 Uani
C10K C 0.43405(9) 0.44986(13) 0.1497(2) 0.0296 Uani
C11K C 0.48179(10) 0.45842(15) 0.1960(3) 0.0392 Uani
H6K H 0.4823 0.4299 0.2319 0.0470 Uiso
C12K C 0.52841(10) 0.50742(14) 0.1910(2) 0.0335 Uani
H7K H 0.5597 0.5119 0.2245 0.0400 Uiso
C13K C 0.52927(10) 0.55082(14) 0.1356(2) 0.0314 Uani
C14K C 0.48218(10) 0.54303(15) 0.0878(2) 0.0366 Uani
H8K H 0.4822 0.5715 0.0511 0.0440 Uiso
C15K C 0.43563(11) 0.49435(15) 0.0931(2) 0.0379 Uani
H9K H 0.4045 0.4900 0.0595 0.0460 Uiso
C16K C 0.58072(10) 0.60195(14) 0.1198(2) 0.0293 Uani
O5 O 0.18599(10) -0.01373(10) 0.1998(2) 0.0836 Uani
H1 H 0.1723 -0.0301 0.1428 0.1250 Uiso
C17 C 0.16561(16) 0.02014(19) 0.2245(3) 0.1073 Uiso
H10 H 0.1976 0.0556 0.2111 0.1290 Uiso
C18 C 0.1566(2) 0.02496(19) 0.3446(4) 0.1760 Uiso
H11 H 0.1910 0.0411 0.3827 0.2110 Uiso
H12 H 0.1336 -0.0109 0.3749 0.2110 Uiso
C19 C 0.12958(19) 0.0603(2) 0.3637(5) 0.2610 Uiso
H13 H 0.1033 0.0438 0.4221 0.3130 Uiso
H14 H 0.1573 0.0956 0.3892 0.3130 Uiso
C20 C 0.1012(2) 0.0686(2) 0.2655(3) 0.3540 Uiso
H15 H 0.0636 0.0400 0.2679 0.4250 Uiso
H16 H 0.1014 0.1023 0.2778 0.4250 Uiso
C21 C 0.1207(3) 0.0705(2) 0.1497(5) 0.4930 Uiso
H17 H 0.1551 0.1033 0.1377 0.5910 Uiso
H18 H 0.0946 0.0693 0.0974 0.5910 Uiso
C22 C 0.1271(2) 0.02010(18) 0.1376(5) 0.5650 Uiso
H19 H 0.0920 -0.0124 0.1451 0.6790 Uiso
H20 H 0.1411 0.0199 0.0654 0.6790 Uiso
loop_
_atom_site_aniso_label
_atom_site_aniso_U_11
_atom_site_aniso_U_22
_atom_site_aniso_U_33
_atom_site_aniso_U_23
_atom_site_aniso_U_13
_atom_site_aniso_U_12
Tb1 0.02021(3) 0.02021(3) 0.03676(7) -0.00022(4) 0.00022(4) 0.00971(4)
O1 0.0538(10) 0.0356(8) 0.0500(12) 0.0083(8) -0.0016(9) 0.0291(6)
O2 0.0249(8) 0.0302(7) 0.0437(11) 0.0006(8) -0.0052(7) 0.0147(5)
O3 0.0271(7) 0.0332(8) 0.0424(10) -0.0045(9) 0.0005(7) 0.0156(6)
O4 0.0318(9) 0.0318(9) 0.084(2) -0.0099(9) 0.0099(9) -0.0038(12)
C1 0.028(2) 0.0221(15) 0.044(2) 0.0016(9) 0.0031(19) 0.0140(11)
C2 0.035(2) 0.0287(17) 0.042(2) 0.0031(10) 0.006(2) 0.0175(12)
C3 0.0451(13) 0.0259(12) 0.0493(18) 0.0087(12) 0.0137(13) 0.0196(9)
C4 0.0402(12) 0.0251(11) 0.0591(19) 0.0049(12) 0.0002(13) 0.0219(8)
C5 0.014(2) 0.0403(19) 0.031(2) -0.0005(8) -0.0011(16) 0.0069(10)
C6 0.027(2) 0.0219(15) 0.039(2) 0.0011(9) 0.0022(18) 0.0137(11)
C7 0.0228(11) 0.0308(12) 0.0522(18) 0.0027(12) 0.0073(12) 0.0127(8)
C8 0.0196(11) 0.0213(11) 0.0515(17) 0.0015(11) 0.0020(11) 0.0104(8)
C9 0.025(2) 0.0202(15) 0.045(2) 0.0042(9) 0.0083(18) 0.0127(11)
C10 0.0238(10) 0.0348(11) 0.0392(16) 0.0063(11) 0.0067(10) 0.0214(8)
C11 0.0305(12) 0.0366(12) 0.0551(18) -0.0121(12) 0.0029(13) 0.0202(9)
C12 0.0189(12) 0.0233(12) 0.0496(17) -0.0003(12) -0.0023(12) 0.0040(9)
C13 0.0205(11) 0.0330(12) 0.0438(16) 0.0038(12) 0.0051(11) 0.0156(8)
C14 0.0311(12) 0.0284(11) 0.0542(18) -0.0105(12) -0.0016(12) 0.0177(8)
C15 0.0332(13) 0.0262(12) 0.0507(18) -0.0117(12) -0.0086(13) 0.0121(9)
C16 0.0263(11) 0.0280(12) 0.0354(14) 0.0034(11) -0.0003(11) 0.0149(8)
Tb1A 0.02021 0.021 0.03676 0.00044 0.00022 0.0105
Tb1J 0.021 0.02021 0.03676 -0.00022 -0.00044 0.0105
Tb1K 0.02021 0.021 0.03676 0.00044 0.00022 0.0105
Tb1B 0.021 0.02021 0.03676 -0.00022 -0.00044 0.0105
Tb1I 0.02021 0.02021 0.03676 -0.00022 0.00022 0.00971
O1K 0.0538 0.0312 0.05 -0.0099 -0.0016 0.0247
O1O 0.0356 0.0538 0.05 0.0016 -0.0083 0.0291
O2K 0.0249 0.0257 0.0437 -0.0058 -0.0052 0.0102
O2B 0.0257 0.0249 0.0437 0.0052 0.0058 0.0102
O2G 0.0302 0.0257 0.0437 -0.0058 -0.0006 0.0155
O2J 0.0257 0.0302 0.0437 0.0006 0.0058 0.0155
O2Q 0.0249 0.0257 0.0437 -0.0058 -0.0052 0.0102
O3K 0.0271 0.0291 0.0424 0.005 0.0005 0.0115
O3B 0.0291 0.0271 0.0424 -0.0005 -0.005 0.0115
O3Q 0.0271 0.0291 0.0424 0.005 0.0005 0.0115
C3K 0.0451 0.0318 0.0493 0.005 0.0137 0.0255
C4K 0.0402 0.0215 0.0591 -0.0047 0.0002 0.0183
C7K 0.0228 0.0282 0.0522 0.0046 0.0073 0.0101
C8K 0.0196 0.0201 0.0515 0.0005 0.002 0.0092
C10K 0.0238 0.0158 0.0392 0.0004 0.0067 0.0024
C11K 0.0305 0.0267 0.0551 0.015 0.0029 0.0103
C12K 0.0189 0.0342 0.0496 -0.002 -0.0023 0.0149
C13K 0.0205 0.0223 0.0438 0.0013 0.0051 0.0049
C14K 0.0311 0.0241 0.0542 0.0089 -0.0016 0.0134
C15K 0.0332 0.0352 0.0507 0.0031 -0.0086 0.0211
C16K 0.0263 0.0245 0.0354 -0.0037 -0.0003 0.0114
O5 0.0980(14) 0.1015(14) 0.0844(19) 0.0022(13) 0.0051(14) 0.0746(9)
loop_
_geom_bond_atom_site_label_1
_geom_bond_atom_site_label_2
_geom_bond_site_symmetry_1
_geom_bond_site_symmetry_2
Tb1 O1 1_555 1_555
O1 C1 1_555 1_555
O2 C16 1_555 1_555
O3 C16 1_555 1_555
O4 Tb1 1_555 1_555
O5 H1 1_555 1_555
C1 C2 1_555 1_555
C2 C3 1_555 1_555
C3 H2 1_555 1_555
C4 C3 1_555 1_555
H3 C4 1_555 1_555
C5 C4 1_555 1_555
C6 C5 1_555 1_555
C7 C6 1_555 1_555
H4 C7 1_555 1_555
C8 C7 1_555 1_555
C9 C8 1_555 1_555
H5 C9 1_555 1_555
C10 C8 1_555 1_555
C11 C10 1_555 1_555
H6 C11 1_555 1_555
C12 C11 1_555 1_555
H7 C12 1_555 1_555
C13 C12 1_555 1_555
C14 C13 1_555 1_555
H8 C14 1_555 1_555
C15 C10 1_555 1_555
H9 C15 1_555 1_555
C16 C13 1_555 1_555
C17 O5 1_555 1_555
H10 C17 1_555 1_555
C18 C17 1_555 1_555
H11 C18 1_555 1_555
H12 C18 1_555 1_555
C19 C18 1_555 1_555
H13 C19 1_555 1_555
H14 C19 1_555 1_555
C20 C19 1_555 1_555
H15 C20 1_555 1_555
H16 C20 1_555 1_555
C21 C20 1_555 1_555
H17 C21 1_555 1_555
H18 C21 1_555 1_555
C22 C17 1_555 1_555
H19 C22 1_555 1_555
H20 C22 1_555 1_555
Tb1A O2 1_555 1_555
Tb1J O2 1_555 1_555
Tb1K O1K 1_555 1_555
Tb1B O2K 1_555 1_555
Tb1I O2K 1_555 1_555
O1K C1 1_555 1_555
O1O Tb1 1_555 1_555
O2K C16K 1_555 1_555
O2B Tb1 1_555 1_555
O2G Tb1 1_555 1_555
O2J Tb1 1_555 1_555
O2Q Tb1 1_555 1_555
O3K Tb1I 1_555 1_555
O3B Tb1 1_555 1_555
O3Q Tb1 1_555 1_555
C3K C2 1_555 1_555
H2K C3K 1_555 1_555
C4K C5 1_555 1_555
H3K C4K 1_555 1_555
C7K C6 1_555 1_555
H4K C7K 1_555 1_555
C8K C9 1_555 1_555
C10K C8K 1_555 1_555
C11K C10K 1_555 1_555
H6K C11K 1_555 1_555
C12K C11K 1_555 1_555
H7K C12K 1_555 1_555
C13K C12K 1_555 1_555
C14K C13K 1_555 1_555
H8K C14K 1_555 1_555
C15K C10K 1_555 1_555
H9K C15K 1_555 1_555
C16K O3K 1_555 1_555
O3 Tb1A 1_555 1_555
C14 C15 1_555 1_555
C21 C22 1_555 1_555
Tb1K O2B 1_555 1_555
Tb1K O2J 1_555 1_555
C3K C4K 1_555 1_555
C7K C8K 1_555 1_555
C13K C16K 1_555 1_555
C14K C15K 1_555 1_555

#END
