
#######################################################################
#
#                 Cambridge Crystallographic Data Centre
#                                CCDC 
#
#######################################################################
#
# If this CIF has been generated from an entry in the Cambridge 
# Structural Database, then it will include bibliographic, chemical, 
# crystal, experimental, refinement or atomic coordinate data resulting 
# from the CCDC's data processing and validation procedures.
#
#######################################################################

data_PEPFAT
_chemical_formula_moiety         '(C62 H46 N2 O44 Zn10)n'
_symmetry_cell_setting           orthorhombic
_symmetry_space_group_name_H-M   'I b a m'
_symmetry_Int_Tables_number      72
_space_group_name_Hall           '-I 2 2c'
loop_
_symmetry_equiv_pos_site_id
_symmetry_equiv_pos_as_xyz
1 x,y,z
2 -x,-y,z
3 x,-y,1/2-z
4 -x,y,1/2-z
5 1/2+x,1/2+y,1/2+z
6 1/2-x,1/2-y,1/2+z
7 1/2+x,1/2-y,-z
8 1/2-x,1/2+y,-z
9 -x,-y,-z
10 x,y,-z
11 -x,y,1/2+z
12 x,-y,1/2+z
13 1/2-x,1/2-y,1/2-z
14 1/2+x,1/2+y,1/2-z
15 1/2-x,1/2+y,z
16 1/2+x,1/2-y,z
_cell_length_a                   44.6250(2)
_cell_length_b                   19.72700(15)
_cell_length_c                   29.0190(3)
_cell_angle_alpha                90
_cell_angle_beta                 90
_cell_angle_gamma                90
_cell_volume                     25545.9
loop_
_atom_site_label
_atom_site_type_symbol
_atom_site_fract_x
_atom_site_fract_y
_atom_site_fract_z
O25 O 0.30843(19) 0.7536(5) 0.0000
C1 C 0.02273(14) 0.2202(3) 0.4022(2)
C2 C -0.00459(14) 0.2389(3) 0.4210(2)
H1 H -0.0053 0.2713 0.4442
C3 C -0.03098(15) 0.2095(4) 0.4053(2)
C4 C -0.02907(16) 0.1632(4) 0.3691(2)
H2 H -0.0466 0.1454 0.3569
C5 C -0.00197(15) 0.1431(3) 0.3510(2)
C6 C 0.02374(14) 0.1719(3) 0.3672(2)
H3 H 0.0421 0.1591 0.3548
C7 C 0.05112(15) 0.2487(3) 0.4221(2)
C8 C -0.05906(17) 0.2263(5) 0.4278(3)
C9 C -0.00141(16) 0.0927(3) 0.3129(2)
C10 C 0.16920(12) 0.5004(3) 0.3517(2)
C11 C 0.16069(13) 0.5633(3) 0.3701(2)
H4 H 0.1691 0.6028 0.3584
C12 C 0.13982(13) 0.5674(3) 0.4056(2)
C13 C 0.12728(14) 0.5091(3) 0.4223(2)
H5 H 0.1130 0.5113 0.4455
C14 C 0.13592(13) 0.4458(3) 0.4043(2)
C15 C 0.15716(13) 0.4422(3) 0.3693(2)
H6 H 0.1631 0.4003 0.3578
C16 C 0.19186(13) 0.4971(3) 0.3137(2)
C17 C 0.13091(15) 0.6342(3) 0.4260(2)
C18 C 0.12196(14) 0.3823(3) 0.4251(2)
C19 C 0.33360(13) 0.5401(3) 0.0991(2)
C20 C 0.31068(13) 0.5487(3) 0.1307(2)
H7 H 0.3040 0.5922 0.1376
C21 C 0.29765(14) 0.4936(3) 0.1520(2)
C22 C 0.30893(15) 0.4292(3) 0.1424(2)
H8 H 0.3008 0.3920 0.1575
C23 C 0.33143(15) 0.4194(3) 0.1116(3)
C24 C 0.34357(14) 0.4744(3) 0.0888(2)
H9 H 0.3584 0.4679 0.0666
C25 C 0.34885(13) 0.5989(3) 0.0762(2)
C26 C 0.27368(13) 0.5022(3) 0.1871(2)
C27 C 0.3447(2) 0.3495(4) 0.1033(4)
C28 C 0.21441(15) 0.7181(3) 0.2440(3)
C29 C 0.2112(2) 0.7270(5) 0.1910(3)
H10 H 0.2225 0.6925 0.1755
H11 H 0.2185 0.7708 0.1822
H12 H 0.1904 0.7231 0.1826
C30 C 0.1835(2) 0.8212(4) 0.2560(4)
H13 H 0.1827 0.8221 0.2229
H14 H 0.1932 0.8615 0.2670
H15 H 0.1634 0.8191 0.2680
C31 C 0.2048(3) 0.7507(6) 0.3229(4)
H16 H 0.2162 0.7102 0.3286
H17 H 0.1856 0.7470 0.3374
H18 H 0.2153 0.7890 0.3353
N1 N 0.20080(15) 0.7599(3) 0.2716(3)
O1 O 0.07594(11) 0.2233(2) 0.40709(18)
O2 O 0.04886(10) 0.2941(2) 0.45054(16)
O3 O -0.06070(9) 0.2737(2) 0.45316(15)
O4 O 0.04728(14) 0.4247(3) 0.5000
O5 O 0.02385(11) 0.0750(2) 0.29780(16)
O6 O 0.4301(2) 0.5843(6) 0.0000
O7 O -0.02563(12) 0.0694(2) 0.29940(16)
O8 O 0.20067(9) 0.4399(2) 0.30067(15)
O9 O 0.20131(9) 0.5526(2) 0.29738(15)
O10 O 0.14564(14) 0.6845(2) 0.4145(2)
O11 O 0.11018(11) 0.6346(2) 0.45265(16)
O12 O 0.10121(10) 0.3897(2) 0.45106(17)
O13 O 0.13294(10) 0.3261(2) 0.41252(17)
O14 O 0.36916(10) 0.5870(2) 0.05005(16)
O15 O 0.34161(15) 0.6567(2) 0.0878(2)
O16 O 0.26402(9) 0.5611(2) 0.19546(15)
O17 O 0.26453(9) 0.4483(2) 0.20659(16)
O18 O 0.36281(11) 0.3413(2) 0.07254(18)
O19 O 0.23120(10) 0.6727(2) 0.25790(16)
O20 O 0.1045(2) 0.2520(4) 0.5000
O21 O 0.37822(11) 0.7232(2) 0.0000
Zn1 Zn 0.232459(13) 0.57504(3) 0.24689(2)
Zn2 Zn 0.07562(2) 0.33917(4) 0.5000
Zn3 Zn 0.39565(2) 0.63657(5) 0.0000
O22 O 0.07786(19) 0.0000 0.2500
Zn4 Zn 0.115360(18) 0.24185(3) 0.43474(3)
Zn5 Zn 0.406803(19) 0.79874(4) 0.0000
Zn6 Zn 0.03293(2) 0.0000 0.2500
O23 O 0.3439(3) 0.3074(5) 0.1374(4)
O24 O -0.0768(2) 0.1705(5) 0.4346(3)
Zn7 Zn 0.37296(3) 0.72587(6) -0.07062(5)
C1A C -0.02273(14) -0.2202(3) 0.4022(2)
C2A C 0.00459(14) -0.2389(3) 0.4210(2)
H1A H 0.0053 -0.2713 0.4442
C3A C 0.03098(15) -0.2095(4) 0.4053(2)
C4A C 0.02907(16) -0.1632(4) 0.3691(2)
H2A H 0.0466 -0.1454 0.3569
C5A C 0.00197(15) -0.1431(3) 0.3510(2)
C6A C -0.02374(14) -0.1719(3) 0.3672(2)
H3A H -0.0421 -0.1591 0.3548
C7A C -0.05112(15) -0.2487(3) 0.4221(2)
C8A C 0.05906(17) -0.2263(5) 0.4278(3)
C9A C 0.00141(16) -0.0927(3) 0.3129(2)
C10A C -0.16920(12) -0.5004(3) 0.3517(2)
C11A C -0.16069(13) -0.5633(3) 0.3701(2)
H4A H -0.1691 -0.6028 0.3584
C12A C -0.13982(13) -0.5674(3) 0.4056(2)
C13A C -0.12728(14) -0.5091(3) 0.4223(2)
H5A H -0.1130 -0.5113 0.4455
C14A C -0.13592(13) -0.4458(3) 0.4043(2)
C15A C -0.15716(13) -0.4422(3) 0.3693(2)
H6A H -0.1631 -0.4003 0.3578
C16A C -0.19186(13) -0.4971(3) 0.3137(2)
C17A C -0.13091(15) -0.6342(3) 0.4260(2)
C18A C -0.12196(14) -0.3823(3) 0.4251(2)
C19A C -0.33360(13) -0.5401(3) 0.0991(2)
C20A C -0.31068(13) -0.5487(3) 0.1307(2)
H7A H -0.3040 -0.5922 0.1376
C21A C -0.29765(14) -0.4936(3) 0.1520(2)
C22A C -0.30893(15) -0.4292(3) 0.1424(2)
H8A H -0.3008 -0.3920 0.1575
C23A C -0.33143(15) -0.4194(3) 0.1116(3)
C24A C -0.34357(14) -0.4744(3) 0.0888(2)
H9A H -0.3584 -0.4679 0.0666
C25A C -0.34885(13) -0.5989(3) 0.0762(2)
C26A C -0.27368(13) -0.5022(3) 0.1871(2)
C27A C -0.3447(2) -0.3495(4) 0.1033(4)
C28A C -0.21441(15) -0.7181(3) 0.2440(3)
C29A C -0.2112(2) -0.7270(5) 0.1910(3)
H10A H -0.2225 -0.6925 0.1755
H11A H -0.2185 -0.7708 0.1822
H12A H -0.1904 -0.7231 0.1826
C30A C -0.1835(2) -0.8212(4) 0.2560(4)
H13A H -0.1827 -0.8221 0.2229
H14A H -0.1932 -0.8615 0.2670
H15A H -0.1634 -0.8191 0.2680
C31A C -0.2048(3) -0.7507(6) 0.3229(4)
H16A H -0.2162 -0.7102 0.3286
H17A H -0.1856 -0.7470 0.3374
H18A H -0.2153 -0.7890 0.3353
N1A N -0.20080(15) -0.7599(3) 0.2716(3)
O1A O -0.07594(11) -0.2233(2) 0.40709(18)
O2A O -0.04886(10) -0.2941(2) 0.45054(16)
O3A O 0.06070(9) -0.2737(2) 0.45316(15)
O5A O -0.02385(11) -0.0750(2) 0.29780(16)
O7A O 0.02563(12) -0.0694(2) 0.29940(16)
O8A O -0.20067(9) -0.4399(2) 0.30067(15)
O9A O -0.20131(9) -0.5526(2) 0.29738(15)
O10A O -0.14564(14) -0.6845(2) 0.4145(2)
O11A O -0.11018(11) -0.6346(2) 0.45265(16)
O12A O -0.10121(10) -0.3897(2) 0.45106(17)
O13A O -0.13294(10) -0.3261(2) 0.41252(17)
O14A O -0.36916(10) -0.5870(2) 0.05005(16)
O15A O -0.34161(15) -0.6567(2) 0.0878(2)
O16A O -0.26402(9) -0.5611(2) 0.19546(15)
O17A O -0.26453(9) -0.4483(2) 0.20659(16)
O18A O -0.36281(11) -0.3413(2) 0.07254(18)
O19A O -0.23120(10) -0.6727(2) 0.25790(16)
Zn1A Zn -0.232459(13) -0.57504(3) 0.24689(2)
Zn4A Zn -0.115360(18) -0.24185(3) 0.43474(3)
O23A O -0.3439(3) -0.3074(5) 0.1374(4)
O24A O 0.0768(2) -0.1705(5) 0.4346(3)
Zn7E Zn 0.12704(3) 0.77413(6) 0.42938(5)
O2I O 0.04886(10) 0.2941(2) 0.54946(16)
O3D O 0.43930(9) 0.7737(2) -0.04684(15)
O3M O 0.43930(9) 0.7737(2) 0.04684(15)
O5B O 0.02385(11) -0.0750(2) 0.20220(16)
O7C O 0.02563(12) 0.0694(2) 0.20060(16)
O8B O 0.20067(9) 0.5601(2) 0.19933(15)
O8C O -0.20067(9) -0.5601(2) 0.19933(15)
O10E O 0.35436(14) 0.8155(2) -0.0855(2)
O11E O 0.38982(11) 0.8654(2) -0.04735(16)
O11L O 0.38982(11) 0.8654(2) 0.04735(16)
O12I O 0.10121(10) 0.3897(2) 0.54894(17)
O14I O 0.36916(10) 0.5870(2) -0.05005(16)
O15I O 0.34161(15) 0.6567(2) -0.0878(2)
O15L O 0.15839(15) 0.8433(2) 0.4122(2)
O17B O 0.26453(9) 0.5517(2) 0.29341(16)
O17C O -0.26453(9) -0.5517(2) 0.29341(16)
O18L O 0.13719(11) 0.1587(2) 0.42746(18)
O18M O -0.13719(11) -0.1587(2) 0.42746(18)
O20A O -0.1045(2) -0.2520(4) 0.5000
O21E O 0.12178(11) 0.7768(2) 0.5000
Zn1B Zn 0.232459(13) 0.42496(3) 0.25311(2)
Zn1C Zn -0.232459(13) -0.42496(3) 0.25311(2)
Zn2A Zn -0.07562(2) -0.33917(4) 0.5000
Zn3A Zn -0.39565(2) -0.63657(5) 0.0000
Zn3D Zn -0.10435(2) 0.13657(5) 0.5000
Zn3E Zn 0.10435(2) -0.13657(5) 0.5000
Zn4I Zn 0.115360(18) 0.24185(3) 0.56526(3)
Zn4L Zn 0.384640(18) 0.25815(3) 0.06526(3)
Zn4M Zn -0.384640(18) -0.25815(3) 0.06526(3)
Zn5D Zn -0.093197(19) -0.70126(4) 0.5000
Zn5D_2 Zn -0.093197(19) 0.29874(4) 0.5000
Zn5E Zn 0.093197(19) -0.29874(4) 0.5000
Zn5E_2 Zn 0.093197(19) 0.70126(4) 0.5000
Zn6A Zn -0.03293(2) 0.0000 0.2500
O24A_2 O 0.0768(2) 0.8295(5) 0.4346(3)
O24D O 0.4232(2) 0.6705(5) -0.0654(3)
O24M O 0.4232(2) 0.6705(5) 0.0654(3)
Zn7D Zn -0.12704(3) -0.77413(6) 0.42938(5)
Zn7D_2 Zn -0.12704(3) 0.22587(6) 0.42938(5)
Zn7E_2 Zn 0.12704(3) -0.22587(6) 0.42938(5)
Zn7H Zn -0.37296(3) -0.72587(6) 0.07062(5)
Zn7I Zn 0.37296(3) 0.72587(6) 0.07062(5)
loop_
_geom_bond_atom_site_label_1
_geom_bond_atom_site_label_2
_geom_bond_site_symmetry_1
_geom_bond_site_symmetry_2
C1 C2 1_555 1_555
C2 H1 1_555 1_555
C3 C2 1_555 1_555
C4 C3 1_555 1_555
H2 C4 1_555 1_555
C5 C4 1_555 1_555
C6 C1 1_555 1_555
H3 C6 1_555 1_555
C7 C1 1_555 1_555
C8 C3 1_555 1_555
C9 C5 1_555 1_555
C10 C11 1_555 1_555
C11 H4 1_555 1_555
C12 C11 1_555 1_555
C13 C12 1_555 1_555
H5 C13 1_555 1_555
C14 C13 1_555 1_555
C15 C10 1_555 1_555
H6 C15 1_555 1_555
C16 C10 1_555 1_555
C17 C12 1_555 1_555
C18 C14 1_555 1_555
C19 C20 1_555 1_555
C20 H7 1_555 1_555
C21 C20 1_555 1_555
C22 C21 1_555 1_555
H8 C22 1_555 1_555
C23 C22 1_555 1_555
C24 C19 1_555 1_555
H9 C24 1_555 1_555
C25 C19 1_555 1_555
C26 C21 1_555 1_555
C27 C23 1_555 1_555
C28 C29 1_555 1_555
C29 H10 1_555 1_555
H11 C29 1_555 1_555
H12 C29 1_555 1_555
C30 H13 1_555 1_555
H14 C30 1_555 1_555
H15 C30 1_555 1_555
C31 H16 1_555 1_555
H17 C31 1_555 1_555
H18 C31 1_555 1_555
N1 C28 1_555 1_555
O1 C7 1_555 1_555
O2 C7 1_555 1_555
O3 C8 1_555 1_555
O4 Zn2 1_555 1_555
O5 C9 1_555 1_555
O6 Zn3 1_555 1_555
O7 C9 1_555 1_555
O8 C16 1_555 1_555
O9 C16 1_555 1_555
O10 C17 1_555 1_555
O11 C17 1_555 1_555
O12 C18 1_555 1_555
O13 C18 1_555 1_555
O14 C25 1_555 1_555
O15 C25 1_555 1_555
O16 C26 1_555 1_555
O17 C26 1_555 1_555
O18 C27 1_555 1_555
O19 C28 1_555 1_555
O20 Zn2 1_555 1_555
O21 Zn3 1_555 1_555
Zn1 O9 1_555 1_555
Zn2 O2 1_555 1_555
Zn3 O14 1_555 1_555
O22 Zn6 1_555 1_555
Zn4 O1 1_555 1_555
Zn5 O21 1_555 1_555
Zn6 O5 1_555 1_555
O23 C27 1_555 1_555
O24 C8 1_555 1_555
Zn7 O21 1_555 1_555
C1A C2A 1_555 1_555
C2A H1A 1_555 1_555
C3A C2A 1_555 1_555
C4A C3A 1_555 1_555
H2A C4A 1_555 1_555
C5A C4A 1_555 1_555
C6A C1A 1_555 1_555
H3A C6A 1_555 1_555
C7A C1A 1_555 1_555
C8A C3A 1_555 1_555
C9A C5A 1_555 1_555
C10A C11A 1_555 1_555
C11A H4A 1_555 1_555
C12A C11A 1_555 1_555
C13A C12A 1_555 1_555
H5A C13A 1_555 1_555
C14A C13A 1_555 1_555
C15A C10A 1_555 1_555
H6A C15A 1_555 1_555
C16A C10A 1_555 1_555
C17A C12A 1_555 1_555
C18A C14A 1_555 1_555
C19A C20A 1_555 1_555
C20A H7A 1_555 1_555
C21A C20A 1_555 1_555
C22A C21A 1_555 1_555
H8A C22A 1_555 1_555
C23A C22A 1_555 1_555
C24A C19A 1_555 1_555
H9A C24A 1_555 1_555
C25A C19A 1_555 1_555
C26A C21A 1_555 1_555
C27A C23A 1_555 1_555
C28A C29A 1_555 1_555
C29A H10A 1_555 1_555
H11A C29A 1_555 1_555
H12A C29A 1_555 1_555
C30A H13A 1_555 1_555
H14A C30A 1_555 1_555
H15A C30A 1_555 1_555
C31A H16A 1_555 1_555
H17A C31A 1_555 1_555
H18A C31A 1_555 1_555
N1A C28A 1_555 1_555
O1A C7A 1_555 1_555
O2A C7A 1_555 1_555
O3A C8A 1_555 1_555
O5A C9A 1_555 1_555
O7A Zn6 1_555 1_555
O8A C16A 1_555 1_555
O9A C16A 1_555 1_555
O10A C17A 1_555 1_555
O11A C17A 1_555 1_555
O12A C18A 1_555 1_555
O13A C18A 1_555 1_555
O14A C25A 1_555 1_555
O15A C25A 1_555 1_555
O16A C26A 1_555 1_555
O17A C26A 1_555 1_555
O18A C27A 1_555 1_555
O19A C28A 1_555 1_555
Zn1A O9A 1_555 1_555
Zn4A O1A 1_555 1_555
O23A C27A 1_555 1_555
O24A C8A 1_555 1_555
Zn7E O10 1_555 1_555
O2I Zn2 1_555 1_555
O3D Zn5 1_555 1_555
O3M Zn5 1_555 1_555
O5B Zn6 1_555 1_555
O7C Zn6 1_555 1_555
O8B Zn1 1_555 1_555
O8C Zn1A 1_555 1_555
O10E Zn7 1_555 1_555
O11E Zn5 1_555 1_555
O11L Zn5 1_555 1_555
O12I Zn2 1_555 1_555
O14I Zn3 1_555 1_555
O15I Zn7 1_555 1_555
O15L Zn7E 1_555 1_555
O17B Zn1 1_555 1_555
O17C Zn1A 1_555 1_555
O18L Zn4 1_555 1_555
O18M Zn4A 1_555 1_555
O20A Zn4A 1_555 1_555
O21E Zn7E 1_555 1_555
Zn1B O8 1_555 1_555
Zn1C O8A 1_555 1_555
Zn2A O2A 1_555 1_555
Zn3A O14A 1_555 1_555
Zn3D O24 1_555 1_555
Zn3E O24A 1_555 1_555
Zn4I O20 1_555 1_555
Zn4L O18 1_555 1_555
Zn4M O18A 1_555 1_555
Zn5D O11A 1_555 1_555
Zn5D_2 O3 1_555 1_555
Zn5E O3A 1_555 1_555
Zn5E_2 O11 1_555 1_555
Zn6A O7 1_555 1_555
O24A_2 Zn7E 1_555 1_555
O24D Zn3 1_555 1_555
O24M Zn3 1_555 1_555
Zn7D O10A 1_555 1_555
Zn7D_2 O24 1_555 1_555
Zn7E_2 O24A 1_555 1_555
Zn7H O15A 1_555 1_555
Zn7I O15 1_555 1_555
C5 C6 1_555 1_555
C14 C15 1_555 1_555
C23 C24 1_555 1_555
C30 N1 1_555 1_555
C31 N1 1_555 1_555
O12 Zn2 1_555 1_555
O13 Zn4 1_555 1_555
O16 Zn1 1_555 1_555
O17 Zn1B 1_555 1_555
O19 Zn1 1_555 1_555
O20 Zn4 1_555 1_555
O21 Zn7I 1_555 1_555
Zn7 O24D 1_555 1_555
C5A C6A 1_555 1_555
C9A O7A 1_555 1_555
C14A C15A 1_555 1_555
C23A C24A 1_555 1_555
C30A N1A 1_555 1_555
C31A N1A 1_555 1_555
O5A Zn6A 1_555 1_555
O12A Zn2A 1_555 1_555
O13A Zn4A 1_555 1_555
O16A Zn1A 1_555 1_555
O17A Zn1C 1_555 1_555
O19A Zn1A 1_555 1_555
O20A Zn2A 1_555 1_555
O21E Zn5E_2 1_555 1_555
O24M Zn7I 1_555 1_555

#END
