
#######################################################################
#
#                 Cambridge Crystallographic Data Centre
#                                CCDC 
#
#######################################################################
#
# If this CIF has been generated from an entry in the Cambridge 
# Structural Database, then it will include bibliographic, chemical, 
# crystal, experimental, refinement or atomic coordinate data resulting 
# from the CCDC's data processing and validation procedures.
#
#######################################################################

data_CEHZAR01
_chemical_formula_moiety         '(C4 H10 Br2 Cd1 N2)n'
_symmetry_cell_setting           monoclinic
_symmetry_space_group_name_H-M   'C 2/c'
_symmetry_Int_Tables_number      15
_space_group_name_Hall           '-C 2yc'
loop_
_symmetry_equiv_pos_site_id
_symmetry_equiv_pos_as_xyz
1 x,y,z
2 1/2+x,1/2+y,z
3 -x,y,1/2-z
4 1/2-x,1/2+y,1/2-z
5 -x,-y,-z
6 1/2-x,1/2-y,-z
7 x,-y,1/2+z
8 1/2+x,1/2-y,1/2+z
_cell_length_a                   9.1086(18)
_cell_length_b                   13.958(3)
_cell_length_c                   6.9749(14)
_cell_angle_alpha                90
_cell_angle_beta                 91.51(3)
_cell_angle_gamma                90
_cell_volume                     886.466
loop_
_atom_site_label
_atom_site_type_symbol
_atom_site_fract_x
_atom_site_fract_y
_atom_site_fract_z
Cd1 Cd 0.5000 0.428845(17) 0.2500
Br1 Br 0.32466(4) 0.427157(18) 0.57323(4)
N1 N 0.3475(3) 0.32690(16) 0.0664(3)
H1 H 0.343(4) 0.355(2) -0.051(5)
C1 C 0.1935(3) 0.3222(2) 0.1223(4)
H2 H 0.1564 0.3868 0.1389
H3 H 0.1878 0.2894 0.2445
C2 C 0.4030(3) 0.22982(19) 0.0259(5)
H4 H 0.4067 0.1930 0.1438
H5 H 0.5021 0.2345 -0.0208
Cd1F Cd 0.5000 0.571155(17) 0.7500
Cd1G Cd -0.0000 0.071155(17) -0.2500
Cd1F_2 Cd 0.5000 0.571155(17) -0.2500
Br1F Br 0.32466(4) 0.572843(18) 0.07323(4)
Br1D Br 0.67534(4) 0.572843(18) 0.42677(4)
Br1B Br 0.67534(4) 0.427157(18) -0.07323(4)
N1E N 0.1525(3) 0.17310(16) -0.0664(3)
N1B N 0.6525(3) 0.32690(16) 0.4336(3)
H1E H 0.157(4) 0.145(2) 0.051(5)
H1B H 0.657(4) 0.355(2) 0.551(5)
C1E C 0.3065(3) 0.1778(2) -0.1223(4)
H2E H 0.3436 0.1132 -0.1389
H3E H 0.3122 0.2106 -0.2445
C2E C 0.0970(3) 0.27018(19) -0.0259(5)
H4E H 0.0933 0.3070 -0.1438
H5E H -0.0021 0.2655 0.0208
loop_
_geom_bond_atom_site_label_1
_geom_bond_atom_site_label_2
_geom_bond_site_symmetry_1
_geom_bond_site_symmetry_2
Cd1 Br1 1_555 1_555
Br1 Cd1F 1_555 1_555
N1 Cd1 1_555 1_555
H1 N1 1_555 1_555
C1 N1 1_555 1_555
H2 C1 1_555 1_555
H3 C1 1_555 1_555
C2 N1 1_555 1_555
H4 C2 1_555 1_555
H5 C2 1_555 1_555
Cd1F Br1D 1_555 1_555
Cd1G N1E 1_555 1_555
Cd1F_2 Br1F 1_555 1_555
Br1F Cd1 1_555 1_555
Br1D Cd1 1_555 1_555
Br1B Cd1 1_555 1_555
N1E H1E 1_555 1_555
N1B Cd1 1_555 1_555
H1B N1B 1_555 1_555
C1E C2 1_555 1_555
H2E C1E 1_555 1_555
H3E C1E 1_555 1_555
C2E C1 1_555 1_555
H4E C2E 1_555 1_555
H5E C2E 1_555 1_555
Cd1F_2 Br1B 1_555 1_555
N1E C1E 1_555 1_555
N1E C2E 1_555 1_555

#END
