
#######################################################################
#
#                 Cambridge Crystallographic Data Centre
#                                CCDC 
#
#######################################################################
#
# If this CIF has been generated from an entry in the Cambridge 
# Structural Database, then it will include bibliographic, chemical, 
# crystal, experimental, refinement or atomic coordinate data resulting 
# from the CCDC's data processing and validation procedures.
#
#######################################################################

data_ZEDHIB
_chemical_formula_moiety         '(C76 H64 N12 O20 Zn6)n'
_symmetry_cell_setting           orthorhombic
_symmetry_space_group_name_H-M   'P n n 2'
_symmetry_Int_Tables_number      34
_space_group_name_Hall           'P 2 -2n'
loop_
_symmetry_equiv_pos_site_id
_symmetry_equiv_pos_as_xyz
1 x,y,z
2 -x,-y,z
3 1/2+x,1/2-y,1/2+z
4 1/2-x,1/2+y,1/2+z
_cell_length_a                   18.662(4)
_cell_length_b                   20.461(4)
_cell_length_c                   9.4272(19)
_cell_angle_alpha                90
_cell_angle_beta                 90
_cell_angle_gamma                90
_cell_volume                     3599.71
loop_
_atom_site_label
_atom_site_type_symbol
_atom_site_fract_x
_atom_site_fract_y
_atom_site_fract_z
Zn1 Zn 0.63447(3) 0.66738(3) 0.25348(7)
Zn2 Zn 0.72762(3) 0.61648(4) 0.55135(8)
Zn3 Zn 0.32264(3) 0.92404(3) 0.35601(6)
O1 O 0.5700(2) 0.6960(2) 0.4107(4)
O2 O 0.6302(2) 0.6652(2) 0.6022(5)
O3 O 0.3881(2) 0.8606(2) 0.4413(5)
O4 O 0.3211(2) 0.8706(2) 0.6321(5)
O5 O 0.5668(2) 0.6055(2) 0.1667(4)
O6 O 0.6395(2) 0.6190(2) -0.0160(5)
O7 O 0.8275(2) 0.5738(2) 0.4981(4)
O8 O 0.8862(2) 0.5499(2) 0.6974(4)
O9 O 0.71606(18) 0.6363(2) 0.3475(4)
H1 H 0.7575(16) 0.637(4) 0.310(7)
O10 O 0.7404(2) 0.6029(2) 0.7585(4)
H2 H 0.714(3) 0.621(3) 0.820(5)
N1 N 0.6400(2) 0.7550(2) 0.1458(5)
N2 N 0.7375(3) 0.9003(3) -0.2205(7)
H3 H 0.7674 0.9287 -0.1885
N3 N 0.6660(2) 0.9910(2) -0.5245(5)
N4 N 0.6714(3) 0.5161(2) 0.5266(5)
N5 N 0.6613(5) 0.3619(3) 0.7243(7)
H4 H 0.6493 0.3221 0.7072
N6 N 0.7043(3) 0.2224(3) 1.0677(6)
C1 C 0.5804(3) 0.6946(2) 0.5426(6)
C2 C 0.5274(2) 0.7313(3) 0.6316(6)
C3 C 0.4751(3) 0.7687(2) 0.5685(6)
H5 H 0.4723 0.7695 0.4700
C4 C 0.4264(2) 0.8052(2) 0.6469(6)
C5 C 0.4304(3) 0.8038(3) 0.7925(6)
H6 H 0.3980 0.8275 0.8469
C6 C 0.4832(3) 0.7667(3) 0.8574(7)
H7 H 0.4859 0.7659 0.9559
C7 C 0.5317(3) 0.7311(3) 0.7796(6)
H8 H 0.5671 0.7070 0.8251
C8 C 0.3733(3) 0.8483(3) 0.5717(6)
C9 C 0.5870(3) 0.5934(3) 0.0394(6)
C10 C 0.5000 0.5000 0.0346(9)
H9 H 0.5000 0.5000 0.1333
C11 C 0.5428(3) 0.5446(3) -0.0403(6)
C12 C 0.5429(3) 0.5444(3) -0.1883(6)
H10 H 0.5714 0.5736 -0.2385
C13 C 0.5000 0.5000 -0.2591(9)
H11 H 0.5000 0.5000 -0.3577
C14 C 0.8795(3) 0.5527(2) 0.5642(6)
C15 C 1.0000 0.5000 0.5522(8)
H12 H 1.0000 0.5000 0.6508
C16 C 0.9421(3) 0.5265(2) 0.4794(5)
C17 C 0.9421(3) 0.5264(3) 0.3328(6)
H13 H 0.9035 0.5439 0.2835
C18 C 1.0000 0.5000 0.2587(9)
H14 H 1.0000 0.5000 0.1601
C19 C 0.6830(3) 0.7666(3) 0.0356(7)
H15 H 0.7138 0.7337 0.0050
C20 C 0.6832(3) 0.8261(3) -0.0348(6)
C21 C 0.6360(4) 0.8721(3) 0.0073(7)
H16 H 0.6342 0.9120 -0.0402
C22 C 0.5909(5) 0.8610(3) 0.1184(9)
H17 H 0.5584 0.8928 0.1470
C23 C 0.5943(4) 0.8016(4) 0.1879(7)
H18 H 0.5644 0.7939 0.2651
C24 C 0.7332(4) 0.8360(3) -0.1552(8)
H19 H 0.7809 0.8245 -0.1227
H20 H 0.7204 0.8050 -0.2288
C25 C 0.7053(3) 0.9732(3) -0.4127(6)
H21 H 0.7428 1.0004 -0.3852
C26 C 0.6935(3) 0.9161(3) -0.3346(7)
C27 C 0.6356(4) 0.8792(4) -0.3762(8)
H22 H 0.6246 0.8411 -0.3271
C28 C 0.5942(4) 0.8974(4) -0.4874(8)
H23 H 0.5551 0.8721 -0.5143
C29 C 0.6107(4) 0.9539(3) -0.5603(8)
H24 H 0.5823 0.9663 -0.6367
C30 C 0.6845(3) 0.4693(3) 0.6223(7)
H25 H 0.7181 0.4774 0.6929
C31 C 0.6494(4) 0.4082(3) 0.6204(8)
C32 C 0.6026(4) 0.3973(3) 0.5101(7)
H26 H 0.5803 0.3568 0.5007
C33 C 0.5888(4) 0.4456(3) 0.4149(8)
H27 H 0.5554 0.4393 0.3430
C34 C 0.6249(3) 0.5038(3) 0.4265(8)
H28 H 0.6158 0.5361 0.3595
C35 C 0.6914(6) 0.3763(4) 0.8540(9)
H29 H 0.6737 0.4184 0.8857
H30 H 0.7430 0.3800 0.8428
C36 C 0.7151(4) 0.2687(3) 0.9718(7)
H31 H 0.7511 0.2624 0.9049
C37 C 0.6756(5) 0.3260(3) 0.9661(8)
C38 C 0.6210(4) 0.3343(3) 1.0647(9)
H32 H 0.5933 0.3721 1.0642
C39 C 0.6085(4) 0.2863(4) 1.1624(9)
H33 H 0.5715 0.2903 1.2278
C40 C 0.6520(4) 0.2320(4) 1.1616(8)
H34 H 0.6444 0.2002 1.2305
Zn1A Zn 0.36553(3) 0.33262(3) 0.25348(7)
Zn1A_2 Zn 0.36553(3) 1.33262(3) 1.25348(7)
Zn2A Zn 0.27238(3) 0.38352(4) 0.55135(8)
Zn2C Zn 0.77238(3) 0.11648(4) 1.05135(8)
Zn2A_2 Zn 1.27238(3) 0.38352(4) 0.55135(8)
Zn2C_2 Zn 0.77238(3) 1.11648(4) 0.05135(8)
Zn2B Zn 0.22762(3) 0.88352(4) 0.05135(8)
Zn3A Zn 0.67736(3) 1.07596(3) -0.64399(6)
Zn3B Zn 0.82264(3) 0.57596(3) 0.85601(6)
Zn3C Zn 1.17736(3) 0.42404(3) 0.85601(6)
Zn3A_2 Zn 0.67736(3) 0.07596(3) 0.35601(6)
O1A O 0.4300(2) 0.3040(2) 0.4107(4)
O2A O 0.3698(2) 0.3348(2) 0.6022(5)
O3A O 0.6119(2) 0.1394(2) 0.4413(5)
O3A_2 O 0.6119(2) 1.1394(2) -0.5587(5)
O4A O 0.6789(2) 0.1294(2) 0.6321(5)
O5A O 0.4332(2) 0.3945(2) 0.1667(4)
O6A O 0.3605(2) 0.3810(2) -0.0160(5)
O7A O 1.1725(2) 0.4262(2) 0.4981(4)
O7A_2 O 0.1725(2) 0.4262(2) 0.4981(4)
O8A O 1.1138(2) 0.4501(2) 0.6974(4)
O8B O 0.3862(2) 0.9501(2) 0.1974(4)
O8C O 0.6138(2) 1.0499(2) -0.8026(4)
O9A O 0.28394(18) 0.3637(2) 0.3475(4)
H1A H 0.2425(16) 0.363(4) 0.310(7)
O10B O 0.2404(2) 0.8971(2) 0.2585(4)
O10C O 0.7596(2) 1.1029(2) -0.7415(4)
O10A O 0.2596(2) 0.3971(2) 0.7585(4)
H2B H 0.214(3) 0.879(3) 0.320(5)
H2C H 0.786(3) 1.121(3) -0.680(5)
H2A H 0.286(3) 0.379(3) 0.820(5)
N1A N 0.3600(2) 1.2450(2) 1.1458(5)
N1A_2 N 0.3600(2) 0.2450(2) 0.1458(5)
N2A N 0.2625(3) 1.0997(3) 0.7795(7)
H3A H 0.2326 1.0713 0.8115
N3A N 0.3340(2) 1.0090(2) 0.4755(5)
N4C N 0.8286(3) 1.0161(2) 0.0266(5)
N4A N 0.3286(3) 0.4839(2) 0.5266(5)
N5C N 0.8387(5) 0.8619(3) 0.2243(7)
H4C H 0.8507 0.8221 0.2072
N6C N 0.7957(3) 0.7224(3) 0.5677(6)
N6B N 0.2043(3) 0.2776(3) 0.5677(6)
C1A C 0.4196(3) 0.3054(2) 0.5426(6)
C2A C 0.4726(2) 0.2687(3) 0.6316(6)
C3A C 0.5249(3) 0.2313(2) 0.5685(6)
H5A H 0.5277 0.2305 0.4700
C4A C 0.5736(2) 0.1948(2) 0.6469(6)
C5A C 0.5696(3) 0.1962(3) 0.7925(6)
H6A H 0.6020 0.1725 0.8469
C6A C 0.5168(3) 0.2333(3) 0.8574(7)
H7A H 0.5141 0.2341 0.9559
C7A C 0.4683(3) 0.2689(3) 0.7796(6)
H8A H 0.4329 0.2930 0.8251
C8A C 0.6267(3) 0.1517(3) 0.5717(6)
C9A C 0.4130(3) 0.4066(3) 0.0394(6)
C11A C 0.4572(3) 0.4554(3) -0.0403(6)
C12A C 0.4571(3) 0.4556(3) -0.1883(6)
H10A H 0.4286 0.4264 -0.2385
C14A C 1.1205(3) 0.4473(2) 0.5642(6)
C16A C 1.0579(3) 0.4735(2) 0.4794(5)
C17A C 1.0579(3) 0.4736(3) 0.3328(6)
H13A H 1.0965 0.4561 0.2835
C19A C 0.3170(3) 1.2334(3) 1.0356(7)
H15A H 0.2862 1.2663 1.0050
C20A C 0.3168(3) 1.1739(3) 0.9652(6)
C21A C 0.3640(4) 1.1279(3) 1.0073(7)
H16A H 0.3658 1.0880 0.9598
C22A C 0.4091(5) 1.1390(3) 1.1184(9)
H17A H 0.4416 1.1072 1.1470
C23A C 0.4057(4) 1.1984(4) 1.1879(7)
H18A H 0.4356 1.2061 1.2651
C24A C 0.2668(4) 1.1640(3) 0.8448(8)
H19A H 0.2191 1.1755 0.8773
H20A H 0.2796 1.1950 0.7712
C25A C 0.2947(3) 1.0268(3) 0.5873(6)
H21A H 0.2572 0.9996 0.6148
C26A C 0.3065(3) 1.0839(3) 0.6654(7)
C27A C 0.3644(4) 1.1208(4) 0.6238(8)
H22A H 0.3754 1.1589 0.6729
C28A C 0.4058(4) 1.1026(4) 0.5126(8)
H23A H 0.4449 1.1279 0.4857
C29A C 0.3893(4) 1.0461(3) 0.4397(8)
H24A H 0.4177 1.0337 0.3633
C30C C 0.8155(3) 0.9693(3) 0.1223(7)
H25C H 0.7819 0.9774 0.1929
C31C C 0.8506(4) 0.9082(3) 0.1204(8)
C32C C 0.8974(4) 0.8973(3) 0.0101(7)
H26C H 0.9197 0.8568 0.0007
C33C C 0.9112(4) 0.9456(3) -0.0851(8)
H27C H 0.9446 0.9393 -0.1570
C34C C 0.8751(3) 1.0038(3) -0.0735(8)
H28C H 0.8842 1.0361 -0.1405
C35C C 0.8086(6) 0.8763(4) 0.3540(9)
H29C H 0.8263 0.9184 0.3857
H30C H 0.7570 0.8800 0.3428
C36C C 0.7849(4) 0.7687(3) 0.4718(7)
H31C H 0.7489 0.7624 0.4049
C37C C 0.8244(5) 0.8260(3) 0.4661(8)
C38C C 0.8790(4) 0.8343(3) 0.5647(9)
H32C H 0.9067 0.8721 0.5642
C39C C 0.8915(4) 0.7863(4) 0.6624(9)
H33C H 0.9285 0.7903 0.7278
C40C C 0.8480(4) 0.7320(4) 0.6616(8)
H34C H 0.8556 0.7002 0.7305
loop_
_geom_bond_atom_site_label_1
_geom_bond_atom_site_label_2
_geom_bond_site_symmetry_1
_geom_bond_site_symmetry_2
Zn1 O1 1_555 1_555
Zn2 O2 1_555 1_555
Zn3 O3 1_555 1_555
O1 C1 1_555 1_555
O2 C1 1_555 1_555
O3 C8 1_555 1_555
O4 C8 1_555 1_555
O5 Zn1 1_555 1_555
O6 C9 1_555 1_555
O7 Zn2 1_555 1_555
O8 C14 1_555 1_555
O9 Zn1 1_555 1_555
H1 O9 1_555 1_555
O10 Zn2 1_555 1_555
H2 O10 1_555 1_555
N1 Zn1 1_555 1_555
N2 H3 1_555 1_555
N3 C25 1_555 1_555
N4 Zn2 1_555 1_555
N5 H4 1_555 1_555
N6 C36 1_555 1_555
C1 C2 1_555 1_555
C2 C3 1_555 1_555
C3 H5 1_555 1_555
C4 C3 1_555 1_555
C5 C4 1_555 1_555
H6 C5 1_555 1_555
C6 C5 1_555 1_555
H7 C6 1_555 1_555
C7 C2 1_555 1_555
H8 C7 1_555 1_555
C8 C4 1_555 1_555
C9 O5 1_555 1_555
C10 H9 1_555 1_555
C11 C9 1_555 1_555
C12 C11 1_555 1_555
H10 C12 1_555 1_555
C13 C12 1_555 1_555
H11 C13 1_555 1_555
C14 O7 1_555 1_555
C15 H12 1_555 1_555
C16 C14 1_555 1_555
C17 C16 1_555 1_555
H13 C17 1_555 1_555
C18 C17 1_555 1_555
H14 C18 1_555 1_555
C19 N1 1_555 1_555
H15 C19 1_555 1_555
C20 C19 1_555 1_555
C21 C20 1_555 1_555
H16 C21 1_555 1_555
C22 C21 1_555 1_555
H17 C22 1_555 1_555
C23 N1 1_555 1_555
H18 C23 1_555 1_555
C24 N2 1_555 1_555
H19 C24 1_555 1_555
H20 C24 1_555 1_555
C25 H21 1_555 1_555
C26 N2 1_555 1_555
C27 C26 1_555 1_555
H22 C27 1_555 1_555
C28 C27 1_555 1_555
H23 C28 1_555 1_555
C29 N3 1_555 1_555
H24 C29 1_555 1_555
C30 N4 1_555 1_555
H25 C30 1_555 1_555
C31 N5 1_555 1_555
C32 C31 1_555 1_555
H26 C32 1_555 1_555
C33 C32 1_555 1_555
H27 C33 1_555 1_555
C34 N4 1_555 1_555
H28 C34 1_555 1_555
C35 N5 1_555 1_555
H29 C35 1_555 1_555
H30 C35 1_555 1_555
C36 H31 1_555 1_555
C37 C35 1_555 1_555
C38 C37 1_555 1_555
H32 C38 1_555 1_555
C39 C38 1_555 1_555
H33 C39 1_555 1_555
C40 N6 1_555 1_555
H34 C40 1_555 1_555
Zn1A O1A 1_555 1_555
Zn1A_2 N1A 1_555 1_555
Zn2A O2A 1_555 1_555
Zn2C N6 1_555 1_555
Zn2A_2 O7A 1_555 1_555
Zn2C_2 N4C 1_555 1_555
Zn2B O10B 1_555 1_555
Zn3A N3 1_555 1_555
Zn3B O8 1_555 1_555
Zn3C O8A 1_555 1_555
Zn3A_2 O3A 1_555 1_555
O1A C1A 1_555 1_555
O2A C1A 1_555 1_555
O3A C8A 1_555 1_555
O3A_2 Zn3A 1_555 1_555
O4A C8A 1_555 1_555
O5A Zn1A 1_555 1_555
O6A C9A 1_555 1_555
O7A C14A 1_555 1_555
O7A_2 Zn2A 1_555 1_555
O8A C14A 1_555 1_555
O8B Zn3 1_555 1_555
O8C Zn3A 1_555 1_555
O9A Zn1A 1_555 1_555
H1A O9A 1_555 1_555
O10B Zn3 1_555 1_555
O10C Zn3A 1_555 1_555
O10A Zn2A 1_555 1_555
H2B O10B 1_555 1_555
H2C O10C 1_555 1_555
H2A O10A 1_555 1_555
N1A C19A 1_555 1_555
N1A_2 Zn1A 1_555 1_555
N2A H3A 1_555 1_555
N3A Zn3 1_555 1_555
N4C C30C 1_555 1_555
N4A Zn2A 1_555 1_555
N5C H4C 1_555 1_555
N6C Zn2 1_555 1_555
N6B Zn2A 1_555 1_555
C1A C2A 1_555 1_555
C2A C3A 1_555 1_555
C3A H5A 1_555 1_555
C4A C3A 1_555 1_555
C5A C4A 1_555 1_555
H6A C5A 1_555 1_555
C6A C5A 1_555 1_555
H7A C6A 1_555 1_555
C7A C2A 1_555 1_555
H8A C7A 1_555 1_555
C8A C4A 1_555 1_555
C9A O5A 1_555 1_555
C11A C10 1_555 1_555
C12A C13 1_555 1_555
H10A C12A 1_555 1_555
C14A C16A 1_555 1_555
C16A C15 1_555 1_555
C17A C18 1_555 1_555
H13A C17A 1_555 1_555
C19A H15A 1_555 1_555
C20A C19A 1_555 1_555
C21A C20A 1_555 1_555
H16A C21A 1_555 1_555
C22A C21A 1_555 1_555
H17A C22A 1_555 1_555
C23A N1A 1_555 1_555
H18A C23A 1_555 1_555
C24A N2A 1_555 1_555
H19A C24A 1_555 1_555
H20A C24A 1_555 1_555
C25A N3A 1_555 1_555
H21A C25A 1_555 1_555
C26A N2A 1_555 1_555
C27A C26A 1_555 1_555
H22A C27A 1_555 1_555
C28A C27A 1_555 1_555
H23A C28A 1_555 1_555
C29A N3A 1_555 1_555
H24A C29A 1_555 1_555
C30C H25C 1_555 1_555
C31C N5C 1_555 1_555
C32C C31C 1_555 1_555
H26C C32C 1_555 1_555
C33C C32C 1_555 1_555
H27C C33C 1_555 1_555
C34C N4C 1_555 1_555
H28C C34C 1_555 1_555
C35C N5C 1_555 1_555
H29C C35C 1_555 1_555
H30C C35C 1_555 1_555
C36C N6C 1_555 1_555
H31C C36C 1_555 1_555
C37C C35C 1_555 1_555
C38C C37C 1_555 1_555
H32C C38C 1_555 1_555
C39C C38C 1_555 1_555
H33C C39C 1_555 1_555
C40C N6C 1_555 1_555
H34C C40C 1_555 1_555
Zn2 O9 1_555 1_555
O10 Zn3B 1_555 1_555
C6 C7 1_555 1_555
C10 C11 1_555 1_555
C15 C16 1_555 1_555
C20 C24 1_555 1_555
C22 C23 1_555 1_555
C25 C26 1_555 1_555
C28 C29 1_555 1_555
C30 C31 1_555 1_555
C33 C34 1_555 1_555
C36 C37 1_555 1_555
C39 C40 1_555 1_555
Zn2A O9A 1_555 1_555
C6A C7A 1_555 1_555
C9A C11A 1_555 1_555
C11A C12A 1_555 1_555
C16A C17A 1_555 1_555
C20A C24A 1_555 1_555
C22A C23A 1_555 1_555
C25A C26A 1_555 1_555
C28A C29A 1_555 1_555
C30C C31C 1_555 1_555
C33C C34C 1_555 1_555
C36C C37C 1_555 1_555
C39C C40C 1_555 1_555

#END
