
#######################################################################
#
#                 Cambridge Crystallographic Data Centre
#                                CCDC 
#
#######################################################################
#
# If this CIF has been generated from an entry in the Cambridge 
# Structural Database, then it will include bibliographic, chemical, 
# crystal, experimental, refinement or atomic coordinate data resulting 
# from the CCDC's data processing and validation procedures.
#
#######################################################################

data_HEZNUW
_chemical_formula_moiety         '(C6 H26 N3 O22 P5 Zn4)n'
_symmetry_cell_setting           triclinic
_symmetry_space_group_name_H-M   'P -1'
_symmetry_Int_Tables_number      2
_space_group_name_Hall           '-P 1'
loop_
_symmetry_equiv_pos_site_id
_symmetry_equiv_pos_as_xyz
1 x,y,z
2 -x,-y,-z
_cell_length_a                   8.2130(6)
_cell_length_b                   10.0257(7)
_cell_length_c                   15.5133(7)
_cell_angle_alpha                80.842(3)
_cell_angle_beta                 75.671(4)
_cell_angle_gamma                89.020(5)
_cell_volume                     1221.54
loop_
_atom_site_label
_atom_site_type_symbol
_atom_site_fract_x
_atom_site_fract_y
_atom_site_fract_z
Zn1 Zn 0.15924(5) 0.26109(4) 0.22170(3)
Zn2 Zn -0.24188(5) 0.49598(6) 0.02330(3)
Zn3 Zn -0.13491(5) -0.14308(4) 0.48061(3)
Zn4 Zn -0.28707(5) 0.48402(4) 0.53938(3)
P1 P -0.02584(13) 0.26598(13) 0.06147(7)
P2 P 0.37785(11) 0.51083(10) 0.13885(6)
P3 P 0.19541(11) -0.00905(10) 0.35647(6)
P4 P 0.00459(11) 0.39984(10) 0.39011(6)
P5 P -0.48025(10) -0.26562(9) 0.48321(6)
O1 O -0.1800(3) 0.3431(4) 0.1039(2)
O2 O 0.0866(3) 0.3558(3) -0.01905(18)
O3 O 0.0081(3) -0.0367(3) 0.37358(17)
O4 O 0.5453(3) 0.5667(3) 0.07798(18)
O5 O 0.2341(3) 0.5496(3) 0.09394(17)
O6 O -0.4530(3) -0.3741(3) 0.55765(17)
O7 O 0.3775(3) 0.3590(3) 0.16826(18)
O8 O -0.3139(3) -0.1964(3) 0.42679(17)
O9 O -0.1543(3) 0.4800(3) 0.42043(17)
O10 O 0.0643(3) 0.2040(3) 0.13135(18)
O11 O 0.2580(3) 0.1084(3) 0.28077(18)
O12 O 0.1613(3) 0.4946(3) 0.37347(17)
O13 O -0.5710(3) -0.3168(3) 0.41919(16)
O14 O 0.0153(3) 0.2762(3) 0.45864(18)
O15 O 0.2448(3) 0.0122(3) 0.44234(17)
O16 O 0.0011(3) 0.3642(3) 0.29700(17)
O17 O -0.0872(5) 0.1455(5) 0.0239(2)
H1 H -0.1839 0.1582 0.0193
O18 O -0.5937(3) -0.1615(3) 0.53436(17)
H2 H -0.6376 -0.1126 0.4993
O19 O 0.3522(3) 0.5847(3) 0.22252(17)
H3 H 0.2858 0.5406 0.2656
O20 O 0.2951(3) -0.1329(3) 0.32089(18)
H4 H 0.3268 -0.1789 0.3620
Zn2A Zn 0.24188(5) 0.50402(6) -0.02330(3)
Zn2_2 Zn 0.75812(5) 0.49598(6) 0.02330(3)
Zn3A Zn 0.13491(5) 0.14308(4) 0.51939(3)
Zn4_2 Zn -0.28707(5) -0.51598(4) 0.53938(3)
Zn4A Zn 0.28707(5) 0.51598(4) 0.46062(3)
Zn4A_2 Zn -0.71293(5) -0.48402(4) 0.46062(3)
O2A O -0.0866(3) 0.6442(3) 0.01905(18)
O4_2 O -0.4547(3) 0.5667(3) 0.07798(18)
O5A O -0.2341(3) 0.4504(3) -0.09394(17)
O6_2 O -0.4530(3) 0.6259(3) 0.55765(17)
O12A O -0.1613(3) 0.5054(3) 0.62653(17)
O13A O -0.4290(3) 0.3168(3) 0.58081(16)
O14A O -0.0153(3) -0.2762(3) 0.54136(18)
O15A O -0.2448(3) -0.0122(3) 0.55766(17)
O22 O -0.320(3) 0.0762(18) -0.0416(12)
O23 O 0.5570(17) 0.8372(17) -0.0182(8)
N1 N 0.2603(4) 0.1374(3) 0.7587(2)
H5 H 0.2822 0.1582 0.6976
N2 N 0.0832(4) 0.3832(3) 0.7936(2)
H6 H 0.0452 0.4628 0.7714
H7 H 0.0542 0.3745 0.8541
N3 N 0.3965(4) -0.2182(3) 0.7308(2)
H8 H 0.3898 -0.2671 0.6887
H9 H 0.3397 -0.2603 0.7845
H10 H 0.5038 -0.2078 0.7311
C1 C 0.0727(4) 0.1357(4) 0.7962(3)
H11 H 0.0465 0.1184 0.8615
H12 H 0.0213 0.0640 0.7760
C2 C 0.0032(5) 0.2705(4) 0.7648(3)
H13 H 0.0241 0.2852 0.6996
H14 H -0.1175 0.2695 0.7898
C3 C 0.2704(4) 0.3825(4) 0.7612(3)
H15 H 0.3196 0.4528 0.7837
H16 H 0.3024 0.4014 0.6959
C4 C 0.3370(4) 0.2470(4) 0.7931(3)
H17 H 0.4583 0.2477 0.7712
H18 H 0.3095 0.2297 0.8584
C5 C 0.3343(4) 0.0022(4) 0.7822(3)
H19 H 0.2725 -0.0419 0.8412
H20 H 0.4506 0.0140 0.7835
C6 C 0.3237(5) -0.0837(4) 0.7111(3)
H21 H 0.2072 -0.0949 0.7101
H22 H 0.3843 -0.0384 0.6522
loop_
_geom_bond_atom_site_label_1
_geom_bond_atom_site_label_2
_geom_bond_site_symmetry_1
_geom_bond_site_symmetry_2
Zn1 O7 1_555 1_555
Zn2 O1 1_555 1_555
Zn3 O3 1_555 1_555
Zn4 O9 1_555 1_555
P1 O1 1_555 1_555
P2 O4 1_555 1_555
P3 O3 1_555 1_555
P4 O9 1_555 1_555
P5 O6 1_555 1_555
O2 P1 1_555 1_555
O4 Zn2_2 1_555 1_555
O5 P2 1_555 1_555
O6 Zn4_2 1_555 1_555
O7 P2 1_555 1_555
O8 Zn3 1_555 1_555
O10 Zn1 1_555 1_555
O11 Zn1 1_555 1_555
O12 P4 1_555 1_555
O13 P5 1_555 1_555
O14 P4 1_555 1_555
O15 P3 1_555 1_555
O16 Zn1 1_555 1_555
O17 P1 1_555 1_555
H1 O17 1_555 1_555
O18 P5 1_555 1_555
H2 O18 1_555 1_555
O19 P2 1_555 1_555
H3 O19 1_555 1_555
O20 P3 1_555 1_555
H4 O20 1_555 1_555
N1 H5 1_555 1_555
N2 H6 1_555 1_555
H7 N2 1_555 1_555
N3 H8 1_555 1_555
H9 N3 1_555 1_555
H10 N3 1_555 1_555
C1 N1 1_555 1_555
H11 C1 1_555 1_555
H12 C1 1_555 1_555
C2 N2 1_555 1_555
H13 C2 1_555 1_555
H14 C2 1_555 1_555
C3 N2 1_555 1_555
H15 C3 1_555 1_555
H16 C3 1_555 1_555
C4 N1 1_555 1_555
H17 C4 1_555 1_555
H18 C4 1_555 1_555
C5 N1 1_555 1_555
H19 C5 1_555 1_555
H20 C5 1_555 1_555
C6 N3 1_555 1_555
H21 C6 1_555 1_555
H22 C6 1_555 1_555
Zn2A O2 1_555 1_555
Zn3A O14 1_555 1_555
Zn4A O12 1_555 1_555
Zn4A_2 O13 1_555 1_555
O2A Zn2 1_555 1_555
O4_2 Zn2 1_555 1_555
O5A Zn2 1_555 1_555
O6_2 Zn4 1_555 1_555
O12A Zn4 1_555 1_555
O13A Zn4 1_555 1_555
O14A Zn3 1_555 1_555
O15A Zn3 1_555 1_555
P1 O10 1_555 1_555
P3 O11 1_555 1_555
P4 O16 1_555 1_555
P5 O8 1_555 1_555
O5 Zn2A 1_555 1_555
O15 Zn3A 1_555 1_555
C1 C2 1_555 1_555
C3 C4 1_555 1_555
C5 C6 1_555 1_555

#END
