
#######################################################################
#
#                 Cambridge Crystallographic Data Centre
#                                CCDC 
#
#######################################################################
#
# If this CIF has been generated from an entry in the Cambridge 
# Structural Database, then it will include bibliographic, chemical, 
# crystal, experimental, refinement or atomic coordinate data resulting 
# from the CCDC's data processing and validation procedures.
#
#######################################################################

data_POBGAQ
_chemical_formula_moiety         'C110 H80 B8 Fe6 N17'
_symmetry_cell_setting           orthorhombic
_symmetry_space_group_name_H-M   'P b a n'
_symmetry_Int_Tables_number      50
_space_group_name_Hall           '-P 2ab 2b'
loop_
_symmetry_equiv_pos_site_id
_symmetry_equiv_pos_as_xyz
1 x,y,z
2 1/2-x,1/2-y,z
3 x,1/2-y,-z
4 1/2-x,y,-z
5 -x,-y,-z
6 1/2+x,1/2+y,-z
7 -x,1/2+y,z
8 1/2+x,-y,z
_cell_length_a                   15.7537(5)
_cell_length_b                   36.0206(8)
_cell_length_c                   18.9925(6)
_cell_angle_alpha                90
_cell_angle_beta                 90
_cell_angle_gamma                90
_cell_volume                     10777.4
loop_
_atom_site_label
_atom_site_type_symbol
_atom_site_fract_x
_atom_site_fract_y
_atom_site_fract_z
Fe1 Fe 0.2500 0.2500 0.5000
Fe2 Fe 0.7500 0.7500 1.0000
B1 B 0.2890(12) 0.2204(5) 0.7138(11)
N1 N 0.3373(3) 0.29195(11) 0.4999(3)
N2 N 0.7454(6) 0.70664(16) 0.9262(3)
N3 N 0.2500 0.2500 0.5963(10)
N4 N 0.6329(16) 0.7500 1.0000
C1 C 0.3328(3) 0.32174(15) 0.4583(4)
H1 H 0.2905 0.3220 0.4241
C2 C 0.3852(4) 0.35190(14) 0.4616(4)
H2 H 0.3778 0.3719 0.4313
C3 C 0.4416(4) 0.35204(14) 0.5050(4)
C4 C 0.4477(4) 0.32158(15) 0.5491(5)
H3 H 0.4896 0.3212 0.5836
C5 C 0.3939(4) 0.29228(16) 0.5432(4)
H4 H 0.4006 0.2720 0.5730
C6 C 0.5017(3) 0.38254(16) 0.5125(3)
H5 H 0.5468 0.3778 0.5428
C7 C 0.5026(4) 0.41501(15) 0.4840(3)
H6 H 0.4562 0.4195 0.4550
C8 C 0.5587(2) 0.44453(8) 0.4878(2)
C9 C 0.5592(2) 0.47415(9) 0.44091(18)
H7 H 0.5184 0.4755 0.4056
C10 C 0.6205(2) 0.50171(7) 0.44686(17)
H8 H 0.6208 0.5215 0.4155
C11 C 0.68135(19) 0.49965(7) 0.49971(19)
C12 C 0.6809(2) 0.47003(9) 0.54662(17)
H9 H 0.7216 0.4686 0.5820
C13 C 0.6195(2) 0.44247(8) 0.54067(18)
H10 H 0.6192 0.4226 0.5721
C14 C 0.7500 0.52553(16) 0.5000
C15 C 0.7475(2) 0.55187(8) 0.55574(18)
C16 C 0.8063(2) 0.58060(10) 0.5589(2)
H11 H 0.8466 0.5832 0.5235
C17 C 0.8048(2) 0.60541(9) 0.6149(2)
H12 H 0.8441 0.6246 0.6170
C18 C 0.7444(3) 0.60149(10) 0.6678(2)
C19 C 0.6872(2) 0.54795(9) 0.6086(2)
H13 H 0.6479 0.5287 0.6065
C20 C 0.6857(2) 0.57276(12) 0.66468(19)
H14 H 0.6453 0.5701 0.7001
C21 C 0.7575(7) 0.6284(3) 0.7227(5)
H15 H 0.7980 0.6471 0.7184
C22 C 0.7180(7) 0.6260(3) 0.7694(6)
H16 H 0.6752 0.6086 0.7765
C23 C 0.7437(7) 0.6545(2) 0.8182(4)
C24 C 0.8071(6) 0.6814(3) 0.8206(4)
H17 H 0.8489 0.6819 0.7860
C25 C 0.8079(5) 0.7074(2) 0.8746(5)
H18 H 0.8504 0.7254 0.8762
C26 C 0.6821(5) 0.6798(2) 0.9238(4)
H19 H 0.6402 0.6793 0.9584
C27 C 0.6812(6) 0.6538(2) 0.8698(5)
H20 H 0.6388 0.6358 0.8683
C28 C 0.2500 0.2500 0.6422(11)
C29 C 0.571(2) 0.7500 1.0000
B2 B 0.4812(14) 0.7533(4) 0.9451(10)
B1A B 0.2110(12) 0.2796(5) 0.7138(11)
N1C N 1.1627(3) 0.29195(11) 0.5001(3)
N2C N 0.7546(6) 0.70664(16) 0.0738(3)
C1C C 1.1672(3) 0.32174(15) 0.5417(4)
H1C H 1.2095 0.3220 0.5759
C2C C 1.1148(4) 0.35190(14) 0.5384(4)
H2C H 1.1222 0.3719 0.5687
C3C C 1.0584(4) 0.35204(14) 0.4950(4)
C4C C 1.0523(4) 0.32158(15) 0.4509(5)
H3C H 1.0104 0.3212 0.4164
C5C C 1.1061(4) 0.29228(16) 0.4568(4)
H4C H 1.0994 0.2720 0.4270
C6C C 0.9983(3) 0.38254(16) 0.4875(3)
H5C H 0.9532 0.3778 0.4572
C7C C 0.9974(4) 0.41501(15) 0.5160(3)
H6C H 1.0438 0.4195 0.5450
C8C C 0.9413(2) 0.44453(8) 0.5122(2)
C9C C 0.9408(2) 0.47415(9) 0.55909(18)
H7C H 0.9816 0.4755 0.5944
C10C C 0.8795(2) 0.50171(7) 0.55314(17)
H8C H 0.8792 0.5215 0.5845
C11C C 0.81865(19) 0.49965(7) 0.50029(19)
C12C C 0.8191(2) 0.47003(9) 0.45338(17)
H9C H 0.7784 0.4686 0.4180
C13C C 0.8805(2) 0.44247(8) 0.45933(18)
H10C H 0.8808 0.4226 0.4279
C15C C 0.7525(2) 0.55187(8) 0.44426(18)
C16C C 0.6937(2) 0.58060(10) 0.4411(2)
H11C H 0.6534 0.5832 0.4765
C17C C 0.6952(2) 0.60541(9) 0.3851(2)
H12C H 0.6559 0.6246 0.3830
C18C C 0.7556(3) 0.60149(10) 0.3322(2)
C19C C 0.8128(2) 0.54795(9) 0.3914(2)
H13C H 0.8521 0.5287 0.3935
C20C C 0.8143(2) 0.57276(12) 0.33532(19)
H14C H 0.8547 0.5701 0.2999
C21C C 0.7425(7) 0.6284(3) 0.2773(5)
H15C H 0.7020 0.6471 0.2816
C22C C 0.7820(7) 0.6260(3) 0.2306(6)
H16C H 0.8248 0.6086 0.2235
C23C C 0.7563(7) 0.6545(2) 0.1818(4)
C24C C 0.6929(6) 0.6814(3) 0.1794(4)
H17C H 0.6511 0.6819 0.2140
C25C C 0.6921(5) 0.7074(2) 0.1254(5)
H18C H 0.6496 0.7254 0.1238
C26C C 0.8179(5) 0.6798(2) 0.0762(4)
H19C H 0.8598 0.6793 0.0416
C27C C 0.8188(6) 0.6538(2) 0.1302(5)
H20C H 0.8612 0.6358 0.1317
B2B B 0.4812(14) 0.7467(4) 1.0549(10)
B1B B 0.2890(12) 0.2796(5) 0.2862(11)
N1B N 0.3373(3) 0.20805(11) 0.5001(3)
N2B N 0.7454(6) -0.20664(16) 0.0738(3)
N3B N 0.2500 0.2500 0.4037(10)
C1B C 0.3328(3) 0.17826(15) 0.5417(4)
H1B H 0.2905 0.1780 0.5759
C2B C 0.3852(4) 0.14810(14) 0.5384(4)
H2B H 0.3778 0.1281 0.5687
C3B C 0.4416(4) 0.14796(14) 0.4950(4)
C4B C 0.4477(4) 0.17842(15) 0.4509(5)
H3B H 0.4896 0.1788 0.4164
C5B C 0.3939(4) 0.20772(16) 0.4568(4)
H4B H 0.4006 0.2280 0.4270
C6B C 0.5017(3) 0.11746(16) 0.4875(3)
H5B H 0.5468 0.1222 0.4572
C7B C 0.5026(4) 0.08499(15) 0.5160(3)
H6B H 0.4562 0.0805 0.5450
C8B C 0.5587(2) 0.05547(8) 0.5122(2)
C9B C 0.5592(2) 0.02585(9) 0.55909(18)
H7B H 0.5184 0.0245 0.5944
C10B C 0.6205(2) -0.00171(7) 0.55314(17)
H8B H 0.6208 -0.0215 0.5845
C11B C 0.68135(19) 0.00035(7) 0.50029(19)
C12B C 0.6809(2) 0.02997(9) 0.45338(17)
H9B H 0.7216 0.0314 0.4180
C13B C 0.6195(2) 0.05753(8) 0.45933(18)
H10B H 0.6192 0.0774 0.4279
C14A C 0.7500 -0.02553(16) 0.5000
C15B C 0.7475(2) -0.05187(8) 0.44426(18)
C16B C 0.8063(2) -0.08060(10) 0.4411(2)
H11B H 0.8466 -0.0832 0.4765
C17B C 0.8048(2) -0.10541(9) 0.3851(2)
H12B H 0.8441 -0.1246 0.3830
C18B C 0.7444(3) -0.10149(10) 0.3322(2)
C19B C 0.6872(2) -0.04795(9) 0.3914(2)
H13B H 0.6479 -0.0287 0.3935
C20B C 0.6857(2) -0.07276(12) 0.33532(19)
H14B H 0.6453 -0.0701 0.2999
C21B C 0.7575(7) -0.1284(3) 0.2773(5)
H15B H 0.7980 -0.1471 0.2816
C22B C 0.7180(7) -0.1260(3) 0.2306(6)
H16B H 0.6752 -0.1086 0.2235
C23B C 0.7437(7) -0.1545(2) 0.1818(4)
C24B C 0.8071(6) -0.1814(3) 0.1794(4)
H17B H 0.8489 -0.1819 0.2140
C25B C 0.8079(5) -0.2074(2) 0.1254(5)
H18B H 0.8504 -0.2254 0.1238
C26B C 0.6821(5) -0.1798(2) 0.0762(4)
H19B H 0.6402 -0.1793 0.0416
C27B C 0.6812(6) -0.1538(2) 0.1302(5)
H20B H 0.6388 -0.1358 0.1317
C28B C 0.2500 0.2500 0.3578(11)
B1C B 0.2110(12) 0.2204(5) 0.2862(11)
N1A N 1.1627(3) 0.20805(11) 0.4999(3)
N2A N 0.7546(6) -0.20664(16) 0.9262(3)
C1A C 1.1672(3) 0.17826(15) 0.4583(4)
H1A H 1.2095 0.1780 0.4241
C2A C 1.1148(4) 0.14810(14) 0.4616(4)
H2A H 1.1222 0.1281 0.4313
C3A C 1.0584(4) 0.14796(14) 0.5050(4)
C4A C 1.0523(4) 0.17842(15) 0.5491(5)
H3A H 1.0104 0.1788 0.5836
C5A C 1.1061(4) 0.20772(16) 0.5432(4)
H4A H 1.0994 0.2280 0.5730
C6A C 0.9983(3) 0.11746(16) 0.5125(3)
H5A H 0.9532 0.1222 0.5428
C7A C 0.9974(4) 0.08499(15) 0.4840(3)
H6A H 1.0438 0.0805 0.4550
C8A C 0.9413(2) 0.05547(8) 0.4878(2)
C9A C 0.9408(2) 0.02585(9) 0.44091(18)
H7A H 0.9816 0.0245 0.4056
C10A C 0.8795(2) -0.00171(7) 0.44686(17)
H8A H 0.8792 -0.0215 0.4155
C11A C 0.81865(19) 0.00035(7) 0.49971(19)
C12A C 0.8191(2) 0.02997(9) 0.54662(17)
H9A H 0.7784 0.0314 0.5820
C13A C 0.8805(2) 0.05753(8) 0.54067(18)
H10A H 0.8808 0.0774 0.5721
C15A C 0.7525(2) -0.05187(8) 0.55574(18)
C16A C 0.6937(2) -0.08060(10) 0.5589(2)
H11A H 0.6534 -0.0832 0.5235
C17A C 0.6952(2) -0.10541(9) 0.6149(2)
H12A H 0.6559 -0.1246 0.6170
C18A C 0.7556(3) -0.10149(10) 0.6678(2)
C19A C 0.8128(2) -0.04795(9) 0.6086(2)
H13A H 0.8521 -0.0287 0.6065
C20A C 0.8143(2) -0.07276(12) 0.66468(19)
H14A H 0.8547 -0.0701 0.7001
C21A C 0.7425(7) -0.1284(3) 0.7227(5)
H15A H 0.7020 -0.1471 0.7184
C22A C 0.7820(7) -0.1260(3) 0.7694(6)
H16A H 0.8248 -0.1086 0.7765
C23A C 0.7563(7) -0.1545(2) 0.8182(4)
C24A C 0.6929(6) -0.1814(3) 0.8206(4)
H17A H 0.6511 -0.1819 0.7860
C25A C 0.6921(5) -0.2074(2) 0.8746(5)
H18A H 0.6496 -0.2254 0.8762
C26A C 0.8179(5) -0.1798(2) 0.9238(4)
H19A H 0.8598 -0.1793 0.9584
C27A C 0.8188(6) -0.1538(2) 0.8698(5)
H20A H 0.8612 -0.1358 0.8683
N4A N 0.8671(16) 0.7500 1.0000
C29A C 0.929(2) 0.7500 1.0000
B2A B 1.0188(14) 0.7467(4) 0.9451(10)
B2C B 1.0188(14) 0.7533(4) 1.0549(10)
Fe1_2 Fe 1.2500 0.2500 0.5000
Fe2_2 Fe 0.7500 -0.2500 0.0000
Fe2_3 Fe 0.7500 -0.2500 1.0000
Fe2_4 Fe 0.7500 0.7500 0.0000
N1A_2 N 0.1627(3) 0.20805(11) 0.4999(3)
N1C_2 N 0.1627(3) 0.29195(11) 0.5001(3)
N2A_2 N 0.7546(6) 0.79336(16) 0.9262(3)
N2B_2 N 0.7454(6) 0.79336(16) 1.0738(3)
N2C_2 N 0.7546(6) 0.70664(16) 1.0738(3)
loop_
_geom_bond_atom_site_label_1
_geom_bond_atom_site_label_2
_geom_bond_site_symmetry_1
_geom_bond_site_symmetry_2
Fe1 N1 1_555 1_555
Fe2 N2 1_555 1_555
B1 C28 1_555 1_555
N1 C1 1_555 1_555
N2 C25 1_555 1_555
N3 Fe1 1_555 1_555
N4 Fe2 1_555 1_555
C1 H1 1_555 1_555
C2 C1 1_555 1_555
H2 C2 1_555 1_555
C3 C2 1_555 1_555
C4 C3 1_555 1_555
H3 C4 1_555 1_555
C5 N1 1_555 1_555
H4 C5 1_555 1_555
C6 C3 1_555 1_555
H5 C6 1_555 1_555
C7 C6 1_555 1_555
H6 C7 1_555 1_555
C8 C7 1_555 1_555
C9 C8 1_555 1_555
H7 C9 1_555 1_555
C10 C9 1_555 1_555
H8 C10 1_555 1_555
C11 C10 1_555 1_555
C12 C11 1_555 1_555
H9 C12 1_555 1_555
C13 C8 1_555 1_555
H10 C13 1_555 1_555
C14 C11 1_555 1_555
C15 C14 1_555 1_555
C16 C15 1_555 1_555
H11 C16 1_555 1_555
C17 C16 1_555 1_555
H12 C17 1_555 1_555
C18 C17 1_555 1_555
C19 C15 1_555 1_555
H13 C19 1_555 1_555
C20 C18 1_555 1_555
H14 C20 1_555 1_555
C21 C18 1_555 1_555
H15 C21 1_555 1_555
C22 C21 1_555 1_555
H16 C22 1_555 1_555
C23 C22 1_555 1_555
C24 C23 1_555 1_555
H17 C24 1_555 1_555
C25 C24 1_555 1_555
H18 C25 1_555 1_555
C26 N2 1_555 1_555
H19 C26 1_555 1_555
C27 C23 1_555 1_555
H20 C27 1_555 1_555
C28 N3 1_555 1_555
C29 N4 1_555 1_555
B2 C29 1_555 1_555
B1A C28 1_555 1_555
N1C C1C 1_555 1_555
N2C C25C 1_555 1_555
C1C H1C 1_555 1_555
C2C C1C 1_555 1_555
H2C C2C 1_555 1_555
C3C C2C 1_555 1_555
C4C C3C 1_555 1_555
H3C C4C 1_555 1_555
C5C N1C 1_555 1_555
H4C C5C 1_555 1_555
C6C C3C 1_555 1_555
H5C C6C 1_555 1_555
C7C C6C 1_555 1_555
H6C C7C 1_555 1_555
C8C C7C 1_555 1_555
C9C C8C 1_555 1_555
H7C C9C 1_555 1_555
C10C C9C 1_555 1_555
H8C C10C 1_555 1_555
C11C C14 1_555 1_555
C12C C11C 1_555 1_555
H9C C12C 1_555 1_555
C13C C8C 1_555 1_555
H10C C13C 1_555 1_555
C15C C14 1_555 1_555
C16C C15C 1_555 1_555
H11C C16C 1_555 1_555
C17C C16C 1_555 1_555
H12C C17C 1_555 1_555
C18C C17C 1_555 1_555
C19C C15C 1_555 1_555
H13C C19C 1_555 1_555
C20C C18C 1_555 1_555
H14C C20C 1_555 1_555
C21C C18C 1_555 1_555
H15C C21C 1_555 1_555
C22C C21C 1_555 1_555
H16C C22C 1_555 1_555
C23C C22C 1_555 1_555
C24C C23C 1_555 1_555
H17C C24C 1_555 1_555
C25C C24C 1_555 1_555
H18C C25C 1_555 1_555
C26C N2C 1_555 1_555
H19C C26C 1_555 1_555
C27C C23C 1_555 1_555
H20C C27C 1_555 1_555
B2B C29 1_555 1_555
B1B C28B 1_555 1_555
N1B Fe1 1_555 1_555
N2B C25B 1_555 1_555
N3B Fe1 1_555 1_555
C1B N1B 1_555 1_555
H1B C1B 1_555 1_555
C2B C1B 1_555 1_555
H2B C2B 1_555 1_555
C3B C2B 1_555 1_555
C4B C3B 1_555 1_555
H3B C4B 1_555 1_555
C5B N1B 1_555 1_555
H4B C5B 1_555 1_555
C6B C3B 1_555 1_555
H5B C6B 1_555 1_555
C7B C6B 1_555 1_555
H6B C7B 1_555 1_555
C8B C7B 1_555 1_555
C9B C8B 1_555 1_555
H7B C9B 1_555 1_555
C10B C9B 1_555 1_555
H8B C10B 1_555 1_555
C11B C10B 1_555 1_555
C12B C11B 1_555 1_555
H9B C12B 1_555 1_555
C13B C8B 1_555 1_555
H10B C13B 1_555 1_555
C14A C11B 1_555 1_555
C15B C14A 1_555 1_555
C16B C15B 1_555 1_555
H11B C16B 1_555 1_555
C17B C16B 1_555 1_555
H12B C17B 1_555 1_555
C18B C17B 1_555 1_555
C19B C15B 1_555 1_555
H13B C19B 1_555 1_555
C20B C18B 1_555 1_555
H14B C20B 1_555 1_555
C21B C18B 1_555 1_555
H15B C21B 1_555 1_555
C22B C21B 1_555 1_555
H16B C22B 1_555 1_555
C23B C22B 1_555 1_555
C24B C23B 1_555 1_555
H17B C24B 1_555 1_555
C25B C24B 1_555 1_555
H18B C25B 1_555 1_555
C26B N2B 1_555 1_555
H19B C26B 1_555 1_555
C27B C23B 1_555 1_555
H20B C27B 1_555 1_555
C28B N3B 1_555 1_555
B1C C28B 1_555 1_555
N1A C1A 1_555 1_555
N2A C25A 1_555 1_555
C1A H1A 1_555 1_555
C2A C1A 1_555 1_555
H2A C2A 1_555 1_555
C3A C2A 1_555 1_555
C4A C3A 1_555 1_555
H3A C4A 1_555 1_555
C5A N1A 1_555 1_555
H4A C5A 1_555 1_555
C6A C3A 1_555 1_555
H5A C6A 1_555 1_555
C7A C6A 1_555 1_555
H6A C7A 1_555 1_555
C8A C7A 1_555 1_555
C9A C8A 1_555 1_555
H7A C9A 1_555 1_555
C10A C9A 1_555 1_555
H8A C10A 1_555 1_555
C11A C14A 1_555 1_555
C12A C11A 1_555 1_555
H9A C12A 1_555 1_555
C13A C8A 1_555 1_555
H10A C13A 1_555 1_555
C15A C14A 1_555 1_555
C16A C15A 1_555 1_555
H11A C16A 1_555 1_555
C17A C16A 1_555 1_555
H12A C17A 1_555 1_555
C18A C17A 1_555 1_555
C19A C15A 1_555 1_555
H13A C19A 1_555 1_555
C20A C18A 1_555 1_555
H14A C20A 1_555 1_555
C21A C18A 1_555 1_555
H15A C21A 1_555 1_555
C22A C21A 1_555 1_555
H16A C22A 1_555 1_555
C23A C22A 1_555 1_555
C24A C23A 1_555 1_555
H17A C24A 1_555 1_555
C25A C24A 1_555 1_555
H18A C25A 1_555 1_555
C26A N2A 1_555 1_555
H19A C26A 1_555 1_555
C27A C23A 1_555 1_555
H20A C27A 1_555 1_555
N4A Fe2 1_555 1_555
C29A N4A 1_555 1_555
B2A C29A 1_555 1_555
B2C C29A 1_555 1_555
Fe1_2 N1C 1_555 1_555
Fe2_2 N2B 1_555 1_555
Fe2_3 N2A 1_555 1_555
Fe2_4 N2C 1_555 1_555
N1A_2 Fe1 1_555 1_555
N1C_2 Fe1 1_555 1_555
N2A_2 Fe2 1_555 1_555
N2B_2 Fe2 1_555 1_555
N2C_2 Fe2 1_555 1_555
C4 C5 1_555 1_555
C12 C13 1_555 1_555
C19 C20 1_555 1_555
C26 C27 1_555 1_555
C4C C5C 1_555 1_555
C10C C11C 1_555 1_555
C12C C13C 1_555 1_555
C19C C20C 1_555 1_555
C26C C27C 1_555 1_555
C4B C5B 1_555 1_555
C12B C13B 1_555 1_555
C19B C20B 1_555 1_555
C26B C27B 1_555 1_555
N1A Fe1_2 1_555 1_555
C4A C5A 1_555 1_555
C10A C11A 1_555 1_555
C12A C13A 1_555 1_555
C19A C20A 1_555 1_555
C26A C27A 1_555 1_555

#END
