
#######################################################################
#
#                 Cambridge Crystallographic Data Centre
#                                CCDC 
#
#######################################################################
#
# If this CIF has been generated from an entry in the Cambridge 
# Structural Database, then it will include bibliographic, chemical, 
# crystal, experimental, refinement or atomic coordinate data resulting 
# from the CCDC's data processing and validation procedures.
#
#######################################################################

data_POBGOE01
_chemical_formula_moiety         '(C110 H80 Fe2 N12 Se4)n'
_symmetry_cell_setting           orthorhombic
_symmetry_space_group_name_H-M   'P n n a'
_symmetry_Int_Tables_number      52
_space_group_name_Hall           '-P 2a 2bc'
loop_
_symmetry_equiv_pos_site_id
_symmetry_equiv_pos_as_xyz
1 x,y,z
2 1/2-x,-y,z
3 x,1/2-y,1/2-z
4 1/2-x,1/2+y,1/2-z
5 -x,-y,-z
6 1/2+x,y,-z
7 -x,1/2+y,1/2+z
8 1/2+x,1/2-y,1/2+z
_cell_length_a                   16.9134(7)
_cell_length_b                   40.299(4)
_cell_length_c                   35.5326(13)
_cell_angle_alpha                90
_cell_angle_beta                 90
_cell_angle_gamma                90
_cell_volume                     24218.8
loop_
_atom_site_label
_atom_site_type_symbol
_atom_site_fract_x
_atom_site_fract_y
_atom_site_fract_z
Se1 Se 0.1113(3) 0.36549(10) 0.25040(9)
C1 C 0.1330(9) 0.3218(4) 0.2513(4)
N1 N 0.1287(5) 0.2978(3) 0.2480(3)
Fe1 Fe 0.13469(8) 0.2500 0.2500
N2 N 0.2182(2) 0.25047(14) 0.28984(9)
N3 N 0.0535(3) 0.25073(13) 0.29017(10)
C2 C 0.2754(3) 0.27360(18) 0.28988(11)
C3 C 0.2146(3) 0.22979(16) 0.31911(12)
H1 H 0.2776 0.2878 0.2692
C4 C 0.3316(3) 0.27831(17) 0.31808(11)
C5 C 0.2669(3) 0.23102(16) 0.34960(12)
H2 H 0.1752 0.2137 0.3193
H3 H 0.3695 0.2950 0.3172
C6 C 0.3257(3) 0.25454(18) 0.34927(11)
H4 H 0.2620 0.2163 0.3696
C7 C 0.3850(3) 0.26096(15) 0.38068(12)
H5 H 0.4238 0.2769 0.3767
C8 C 0.3843(2) 0.24516(15) 0.41316(11)
H6 H 0.3433 0.2301 0.4169
C9 C 0.4413(3) 0.24872(17) 0.44396(12)
C10 C 0.4918(3) 0.27540(15) 0.44474(11)
C11 C 0.4455(3) 0.22583(14) 0.47278(11)
H7 H 0.4862 0.2924 0.4273
C12 C 0.5523(3) 0.27691(14) 0.47225(12)
C13 C 0.5040(3) 0.22852(14) 0.49995(10)
H8 H 0.4090 0.2086 0.4740
H9 H 0.5877 0.2946 0.4713
C14 C 0.5613(3) 0.25384(12) 0.50001(10)
H10 H 0.5054 0.2128 0.5191
C15 C 0.6324(3) 0.25538(12) 0.52538(10)
C16 C 0.6318(3) 0.28507(15) 0.55214(11)
C17 C 0.7043(3) 0.25719(13) 0.49731(11)
C18 C 0.6379(3) 0.22375(14) 0.55013(11)
C19 C 0.5773(3) 0.31028(17) 0.55141(12)
C20 C 0.6894(3) 0.28654(16) 0.58048(12)
C21 C 0.7617(3) 0.28054(14) 0.49956(10)
C22 C 0.7064(3) 0.23477(14) 0.46746(12)
C23 C 0.6980(3) 0.20099(17) 0.54568(12)
C24 C 0.5849(3) 0.21905(15) 0.57876(11)
H11 H 0.5356 0.3095 0.5343
C25 C 0.5838(4) 0.33754(16) 0.57641(15)
C26 C 0.6941(4) 0.31273(19) 0.60489(14)
H12 H 0.7254 0.2692 0.5827
C27 C 0.8222(3) 0.28269(14) 0.47189(12)
H13 H 0.7616 0.2954 0.5196
H14 H 0.6679 0.2184 0.4657
C28 C 0.7654(3) 0.23666(14) 0.44037(12)
H15 H 0.7357 0.2041 0.5270
C29 C 0.7025(3) 0.17387(16) 0.56864(14)
C30 C 0.5896(4) 0.19157(19) 0.60162(14)
H16 H 0.5453 0.2346 0.5828
H17 H 0.5479 0.3550 0.5752
C31 C 0.6430(4) 0.33790(18) 0.60218(13)
H18 H 0.7330 0.3130 0.6234
C32 C 0.8222(3) 0.26117(14) 0.44221(11)
H19 H 0.8616 0.2987 0.4740
H20 H 0.7667 0.2213 0.4208
H21 H 0.7423 0.1583 0.5647
C33 C 0.6491(4) 0.16893(17) 0.59775(14)
H22 H 0.5515 0.1884 0.6201
C34 C 0.6456(4) 0.3711(3) 0.62477(17)
C35 C 0.8830(3) 0.26488(14) 0.41240(12)
C36 C 0.6520(5) 0.14137(19) 0.62323(17)
H23 H 0.6064 0.3871 0.6224
C37 C 0.6962(6) 0.3744(2) 0.6436(3)
C38 C 0.8842(2) 0.24774(15) 0.38080(11)
H24 H 0.9230 0.2803 0.4163
H25 H 0.6148 0.1407 0.6425
C39 C 0.7023(5) 0.1176(2) 0.62137(15)
H26 H 0.7319 0.3568 0.6446
C40 C 0.7168(5) 0.40629(16) 0.67030(19)
C41 C 0.9438(3) 0.25050(16) 0.35009(12)
H27 H 0.8438 0.2324 0.3773
H28 H 0.7369 0.1184 0.6010
C42 C 0.7133(7) 0.0884(2) 0.64765(19)
C43 C 0.6643(4) 0.4325(2) 0.66554(14)
C44 C 0.7761(5) 0.40831(19) 0.6973(2)
C45 C 1.0040(3) 0.27249(17) 0.34968(11)
C46 C 0.9357(3) 0.22728(18) 0.31920(11)
C47 C 0.7788(7) 0.0671(2) 0.6449(2)
C48 C 0.6546(7) 0.0844(2) 0.6750(2)
H29 H 0.6247 0.4312 0.6475
C49 C 0.6711(5) 0.46074(16) 0.6878(2)
H30 H 0.8112 0.3908 0.7005
C50 C 0.7829(4) 0.4365(2) 0.71954(15)
C51 C 1.0576(3) 0.27170(16) 0.31940(13)
H31 H 1.0099 0.2878 0.3690
H32 H 0.8951 0.2117 0.3180
C52 C 0.9957(4) 0.23022(17) 0.29044(11)
H33 H 0.8158 0.0693 0.6257
C53 C 0.7858(6) 0.0429(2) 0.6718(2)
H34 H 0.6107 0.0982 0.6763
C54 C 0.6665(8) 0.0575(3) 0.7009(2)
N4 N 0.7304(5) 0.46276(15) 0.71478(18)
H35 H 0.6360 0.4783 0.6846
H36 H 0.8225 0.4379 0.7376
H37 H 1.0990 0.2869 0.3197
H38 H 0.9920 0.2158 0.2701
N5 N 0.7310(7) 0.03716(18) 0.69948(16)
H39 H 0.8306 0.0295 0.6713
H40 H 0.6286 0.0537 0.7194
Fe2 Fe 0.7500 0.5000 0.75791(4)
N6 N 0.6440(8) -0.0093(4) 0.7425(3)
C55 C 0.5875(9) -0.0135(7) 0.7450(5)
Se2 Se 0.4818(7) -0.0302(3) 0.75072(19)
N1B N 0.1287(5) 0.2022(3) 0.2520(3)
N2B N 0.2182(2) 0.24953(14) 0.21016(9)
N3B N 0.0535(3) 0.24927(13) 0.20983(10)
C1B C 0.1330(9) 0.1782(4) 0.2487(4)
C3B C 0.2146(3) 0.27021(16) 0.18089(12)
C2B C 0.2754(3) 0.22640(18) 0.21012(11)
Se1B Se 0.1113(3) 0.13451(10) 0.24960(9)
C5B C 0.2669(3) 0.26898(16) 0.15040(12)
H2B H 0.1752 0.2863 0.1807
C4B C 0.3316(3) 0.22169(17) 0.18192(11)
H1B H 0.2776 0.2122 0.2308
C6B C 0.3257(3) 0.24546(18) 0.15073(11)
H4B H 0.2620 0.2837 0.1304
H3B H 0.3695 0.2050 0.1828
C7B C 0.3850(3) 0.23904(15) 0.11932(12)
H5B H 0.4238 0.2231 0.1233
C8B C 0.3843(2) 0.25484(15) 0.08684(11)
C9B C 0.4413(3) 0.25128(17) 0.05604(12)
H6B H 0.3433 0.2699 0.0831
C11B C 0.4455(3) 0.27417(14) 0.02722(11)
C10B C 0.4918(3) 0.22460(15) 0.05526(11)
C13B C 0.5040(3) 0.27148(14) 0.00005(10)
H8B H 0.4090 0.2914 0.0260
C12B C 0.5523(3) 0.22309(14) 0.02775(12)
H7B H 0.4862 0.2076 0.0727
C14B C 0.5613(3) 0.24616(12) -0.00001(10)
H10B H 0.5054 0.2872 -0.0191
H9B H 0.5877 0.2054 0.0287
C15B C 0.6324(3) 0.24462(12) -0.02538(10)
C18B C 0.6379(3) 0.27625(14) -0.05013(11)
C17B C 0.7043(3) 0.24281(13) 0.00269(11)
C16B C 0.6318(3) 0.21493(15) -0.05214(11)
C23B C 0.6980(3) 0.29901(17) -0.04568(12)
C24B C 0.5849(3) 0.28095(15) -0.07876(11)
C21B C 0.7617(3) 0.21946(14) 0.00044(10)
C22B C 0.7064(3) 0.26523(14) 0.03254(12)
C20B C 0.6894(3) 0.21346(16) -0.08048(12)
C19B C 0.5773(3) 0.18972(17) -0.05141(12)
C29B C 0.7025(3) 0.32613(16) -0.06864(14)
H15B H 0.7357 0.2959 -0.0270
C30B C 0.5896(4) 0.30843(19) -0.10162(14)
H16B H 0.5453 0.2654 -0.0828
C27B C 0.8222(3) 0.21731(14) 0.02811(12)
H13B H 0.7616 0.2046 -0.0196
C28B C 0.7654(3) 0.26334(14) 0.05963(12)
H14B H 0.6679 0.2816 0.0343
C26B C 0.6941(4) 0.18727(19) -0.10489(14)
H12B H 0.7254 0.2308 -0.0827
H11B H 0.5356 0.1905 -0.0343
C25B C 0.5838(4) 0.16246(16) -0.07641(15)
C33B C 0.6491(4) 0.33107(17) -0.09775(14)
H21B H 0.7423 0.3417 -0.0647
H22B H 0.5515 0.3116 -0.1201
H19B H 0.8616 0.2013 0.0260
C32B C 0.8222(3) 0.23883(14) 0.05779(11)
H20B H 0.7667 0.2787 0.0792
H18B H 0.7330 0.1870 -0.1234
C31B C 0.6430(4) 0.16210(18) -0.10218(13)
H17B H 0.5479 0.1450 -0.0752
C36B C 0.6520(5) 0.35863(19) -0.12323(17)
C35B C 0.8830(3) 0.23512(14) 0.08760(12)
C34B C 0.6456(4) 0.1289(3) -0.12477(17)
C39B C 0.7023(5) 0.3824(2) -0.12137(15)
H25B H 0.6148 0.3593 -0.1425
H24B H 0.9230 0.2197 0.0837
C38B C 0.8842(2) 0.25226(15) 0.11920(11)
C37B C 0.6962(6) 0.1256(2) -0.1436(3)
H23B H 0.6064 0.1129 -0.1224
C42B C 0.7133(7) 0.4116(2) -0.14765(19)
H28B H 0.7369 0.3816 -0.1010
H27B H 0.8438 0.2676 0.1227
C41B C 0.9438(3) 0.24950(16) 0.14991(12)
C40B C 0.7168(5) 0.09371(16) -0.17030(19)
H26B H 0.7319 0.1432 -0.1446
C48B C 0.6546(7) 0.4156(2) -0.1750(2)
C47B C 0.7788(7) 0.4329(2) -0.1449(2)
C46B C 0.9357(3) 0.27272(18) 0.18080(11)
C45B C 1.0040(3) 0.22751(17) 0.15032(11)
C43B C 0.6643(4) 0.0675(2) -0.16554(14)
C44B C 0.7761(5) 0.09169(19) -0.1973(2)
C54B C 0.6665(8) 0.4425(3) -0.2009(2)
H34B H 0.6107 0.4018 -0.1763
H33B H 0.8158 0.4307 -0.1257
C53B C 0.7858(6) 0.4571(2) -0.1718(2)
C52B C 0.9957(4) 0.26978(17) 0.20956(11)
H32B H 0.8951 0.2883 0.1820
C51B C 1.0576(3) 0.22830(16) 0.18060(13)
H31B H 1.0099 0.2122 0.1310
H29B H 0.6247 0.0688 -0.1475
C49B C 0.6711(5) 0.03926(16) -0.1878(2)
H30B H 0.8112 0.1092 -0.2005
C50B C 0.7829(4) 0.0635(2) -0.21954(15)
N3_2 N 1.0535(3) 0.25073(13) 0.29017(10)
H40B H 0.6286 0.4463 -0.2194
N5B N 0.7310(7) 0.46284(18) -0.19948(16)
H39B H 0.8306 0.4705 -0.1713
H38B H 0.9920 0.2842 0.2299
N3B_2 N 1.0535(3) 0.24927(13) 0.20983(10)
H37B H 1.0990 0.2131 0.1803
H35B H 0.6360 0.0217 -0.1846
N4B N 0.7304(5) 0.03724(15) -0.21478(18)
H36B H 0.8225 0.0621 -0.2376
Fe1_2 Fe 1.13469(8) 0.2500 0.2500
Fe2B Fe 0.7500 0.0000 0.74209(4)
Fe2_2 Fe 0.7500 0.5000 -0.24209(4)
Fe2B_2 Fe 0.7500 0.0000 -0.25791(4)
N5A N 0.7690(7) -0.03716(18) 0.69948(16)
N6A N 0.8560(8) 0.0093(4) 0.7425(3)
N4B_2 N 0.7304(5) 0.03724(15) 0.78522(18)
N4C N 0.7696(5) -0.03724(15) 0.78522(18)
C55A C 0.9125(9) 0.0135(7) 0.7450(5)
Se2A Se 1.0182(7) 0.0302(3) 0.75072(19)
loop_
_geom_bond_atom_site_label_1
_geom_bond_atom_site_label_2
_geom_bond_site_symmetry_1
_geom_bond_site_symmetry_2
Se1 C1 1_555 1_555
C1 N1 1_555 1_555
N1 Fe1 1_555 1_555
Fe1 N2 1_555 1_555
N2 C2 1_555 1_555
N3 Fe1 1_555 1_555
C2 H1 1_555 1_555
C3 N2 1_555 1_555
C4 C2 1_555 1_555
C5 C3 1_555 1_555
H2 C3 1_555 1_555
H3 C4 1_555 1_555
C6 C4 1_555 1_555
H4 C5 1_555 1_555
C7 C6 1_555 1_555
H5 C7 1_555 1_555
C8 C7 1_555 1_555
H6 C8 1_555 1_555
C9 C8 1_555 1_555
C10 C9 1_555 1_555
C11 C9 1_555 1_555
H7 C10 1_555 1_555
C12 C10 1_555 1_555
C13 C11 1_555 1_555
H8 C11 1_555 1_555
H9 C12 1_555 1_555
C14 C12 1_555 1_555
H10 C13 1_555 1_555
C15 C14 1_555 1_555
C16 C15 1_555 1_555
C17 C15 1_555 1_555
C18 C15 1_555 1_555
C19 C16 1_555 1_555
C20 C16 1_555 1_555
C21 C17 1_555 1_555
C22 C17 1_555 1_555
C23 C18 1_555 1_555
C24 C18 1_555 1_555
H11 C19 1_555 1_555
C25 C19 1_555 1_555
C26 C20 1_555 1_555
H12 C20 1_555 1_555
C27 C21 1_555 1_555
H13 C21 1_555 1_555
H14 C22 1_555 1_555
C28 C22 1_555 1_555
H15 C23 1_555 1_555
C29 C23 1_555 1_555
C30 C24 1_555 1_555
H16 C24 1_555 1_555
H17 C25 1_555 1_555
C31 C25 1_555 1_555
H18 C26 1_555 1_555
C32 C27 1_555 1_555
H19 C27 1_555 1_555
H20 C28 1_555 1_555
H21 C29 1_555 1_555
C33 C29 1_555 1_555
H22 C30 1_555 1_555
C34 C31 1_555 1_555
C35 C32 1_555 1_555
C36 C33 1_555 1_555
H23 C34 1_555 1_555
C37 C34 1_555 1_555
C38 C35 1_555 1_555
H24 C35 1_555 1_555
H25 C36 1_555 1_555
C39 C36 1_555 1_555
H26 C37 1_555 1_555
C40 C37 1_555 1_555
C41 C38 1_555 1_555
H27 C38 1_555 1_555
H28 C39 1_555 1_555
C42 C39 1_555 1_555
C43 C40 1_555 1_555
C44 C40 1_555 1_555
C45 C41 1_555 1_555
C46 C41 1_555 1_555
C47 C42 1_555 1_555
C48 C42 1_555 1_555
H29 C43 1_555 1_555
C49 C43 1_555 1_555
H30 C44 1_555 1_555
C50 C44 1_555 1_555
C51 C45 1_555 1_555
H31 C45 1_555 1_555
H32 C46 1_555 1_555
C52 C46 1_555 1_555
H33 C47 1_555 1_555
C53 C47 1_555 1_555
H34 C48 1_555 1_555
C54 C48 1_555 1_555
N4 C49 1_555 1_555
H35 C49 1_555 1_555
H36 C50 1_555 1_555
H37 C51 1_555 1_555
H38 C52 1_555 1_555
N5 C53 1_555 1_555
H39 C53 1_555 1_555
H40 C54 1_555 1_555
Fe2 N4 1_555 1_555
N6 C55 1_555 1_555
C55 Se2 1_555 1_555
N1B Fe1 1_555 1_555
N2B Fe1 1_555 1_555
N3B Fe1 1_555 1_555
C1B N1B 1_555 1_555
C3B N2B 1_555 1_555
C2B N2B 1_555 1_555
Se1B C1B 1_555 1_555
C5B C3B 1_555 1_555
H2B C3B 1_555 1_555
C4B C2B 1_555 1_555
H1B C2B 1_555 1_555
C6B C5B 1_555 1_555
H4B C5B 1_555 1_555
H3B C4B 1_555 1_555
C7B C6B 1_555 1_555
H5B C7B 1_555 1_555
C8B C7B 1_555 1_555
C9B C8B 1_555 1_555
H6B C8B 1_555 1_555
C11B C9B 1_555 1_555
C10B C9B 1_555 1_555
C13B C11B 1_555 1_555
H8B C11B 1_555 1_555
C12B C10B 1_555 1_555
H7B C10B 1_555 1_555
C14B C13B 1_555 1_555
H10B C13B 1_555 1_555
H9B C12B 1_555 1_555
C15B C14B 1_555 1_555
C18B C15B 1_555 1_555
C17B C15B 1_555 1_555
C16B C15B 1_555 1_555
C23B C18B 1_555 1_555
C24B C18B 1_555 1_555
C21B C17B 1_555 1_555
C22B C17B 1_555 1_555
C20B C16B 1_555 1_555
C19B C16B 1_555 1_555
C29B C23B 1_555 1_555
H15B C23B 1_555 1_555
C30B C24B 1_555 1_555
H16B C24B 1_555 1_555
C27B C21B 1_555 1_555
H13B C21B 1_555 1_555
C28B C22B 1_555 1_555
H14B C22B 1_555 1_555
C26B C20B 1_555 1_555
H12B C20B 1_555 1_555
H11B C19B 1_555 1_555
C25B C19B 1_555 1_555
C33B C29B 1_555 1_555
H21B C29B 1_555 1_555
H22B C30B 1_555 1_555
H19B C27B 1_555 1_555
C32B C27B 1_555 1_555
H20B C28B 1_555 1_555
H18B C26B 1_555 1_555
C31B C26B 1_555 1_555
H17B C25B 1_555 1_555
C36B C33B 1_555 1_555
C35B C32B 1_555 1_555
C34B C31B 1_555 1_555
C39B C36B 1_555 1_555
H25B C36B 1_555 1_555
H24B C35B 1_555 1_555
C38B C35B 1_555 1_555
C37B C34B 1_555 1_555
H23B C34B 1_555 1_555
C42B C39B 1_555 1_555
H28B C39B 1_555 1_555
H27B C38B 1_555 1_555
C41B C38B 1_555 1_555
C40B C37B 1_555 1_555
H26B C37B 1_555 1_555
C48B C42B 1_555 1_555
C47B C42B 1_555 1_555
C46B C41B 1_555 1_555
C45B C41B 1_555 1_555
C43B C40B 1_555 1_555
C44B C40B 1_555 1_555
C54B C48B 1_555 1_555
H34B C48B 1_555 1_555
H33B C47B 1_555 1_555
C53B C47B 1_555 1_555
C52B C46B 1_555 1_555
H32B C46B 1_555 1_555
C51B C45B 1_555 1_555
H31B C45B 1_555 1_555
H29B C43B 1_555 1_555
C49B C43B 1_555 1_555
H30B C44B 1_555 1_555
C50B C44B 1_555 1_555
N3_2 C51 1_555 1_555
H40B C54B 1_555 1_555
N5B C54B 1_555 1_555
H39B C53B 1_555 1_555
H38B C52B 1_555 1_555
N3B_2 C52B 1_555 1_555
H37B C51B 1_555 1_555
H35B C49B 1_555 1_555
N4B C49B 1_555 1_555
H36B C50B 1_555 1_555
Fe1_2 N3_2 1_555 1_555
Fe2B N5 1_555 1_555
Fe2_2 N5B 1_555 1_555
Fe2B_2 N4B 1_555 1_555
N5A Fe2B 1_555 1_555
N6A Fe2B 1_555 1_555
N4B_2 Fe2B 1_555 1_555
N4C Fe2B 1_555 1_555
C55A N6A 1_555 1_555
Se2A C55A 1_555 1_555
C5 C6 1_555 1_555
C13 C14 1_555 1_555
C26 C31 1_555 1_555
C28 C32 1_555 1_555
C30 C33 1_555 1_555
C50 N4 1_555 1_555
C52 N3_2 1_555 1_555
C54 N5 1_555 1_555
N6 Fe2B 1_555 1_555
C4B C6B 1_555 1_555
C12B C14B 1_555 1_555
C30B C33B 1_555 1_555
C28B C32B 1_555 1_555
C25B C31B 1_555 1_555
C53B N5B 1_555 1_555
C51B N3B_2 1_555 1_555
C50B N4B 1_555 1_555
N3B_2 Fe1_2 1_555 1_555

#END
