
#######################################################################
#
#                 Cambridge Crystallographic Data Centre
#                                CCDC 
#
#######################################################################
#
# If this CIF has been generated from an entry in the Cambridge 
# Structural Database, then it will include bibliographic, chemical, 
# crystal, experimental, refinement or atomic coordinate data resulting 
# from the CCDC's data processing and validation procedures.
#
#######################################################################

data_POBGOE02
_chemical_formula_moiety         'C110 H80 Fe6 N17 Se8'
_symmetry_cell_setting           orthorhombic
_symmetry_space_group_name_H-M   'P b a n'
_symmetry_Int_Tables_number      50
_space_group_name_Hall           '-P 2ab 2b'
loop_
_symmetry_equiv_pos_site_id
_symmetry_equiv_pos_as_xyz
1 x,y,z
2 1/2-x,1/2-y,z
3 x,1/2-y,-z
4 1/2-x,y,-z
5 -x,-y,-z
6 1/2+x,1/2+y,-z
7 -x,1/2+y,z
8 1/2+x,-y,z
_cell_length_a                   17.5637(11)
_cell_length_b                   35.4521(17)
_cell_length_c                   20.8450(17)
_cell_angle_alpha                90
_cell_angle_beta                 90
_cell_angle_gamma                90
_cell_volume                     12979.6
loop_
_atom_site_label
_atom_site_type_symbol
_atom_site_fract_x
_atom_site_fract_y
_atom_site_fract_z
Fe1 Fe 0.2500 0.2500 0.5000
Fe2 Fe 0.7500 0.7500 1.0000
Se1 Se 0.2952(8) 0.2414(4) 0.7187(8)
Se2 Se 0.4853(9) 0.7525(3) 0.9522(6)
N1 N 0.3377(2) 0.29215(8) 0.5008(2)
N2 N 0.7476(4) 0.70587(12) 0.9242(2)
N3 N 0.2500 0.2500 0.5959(8)
N4 N 0.6385(11) 0.7500 1.0000
C1 C 0.3334(2) 0.32169(11) 0.4593(3)
H1 H 0.2949 0.3220 0.4287
C2 C 0.3850(3) 0.35145(10) 0.4615(2)
H2 H 0.3801 0.3712 0.4326
C3 C 0.4414(3) 0.35215(10) 0.5043(3)
C4 C 0.4474(2) 0.32174(11) 0.5488(3)
H3 H 0.4855 0.3213 0.5798
C5 C 0.3941(3) 0.29274(12) 0.5440(3)
H4 H 0.3978 0.2727 0.5725
C6 C 0.5018(3) 0.38236(12) 0.5133(2)
H5 H 0.5414 0.3774 0.5417
C7 C 0.5021(3) 0.41492(11) 0.4836(2)
H6 H 0.4616 0.4200 0.4562
C8 C 0.5616(2) 0.44440(10) 0.4902(2)
C9 C 0.5640(2) 0.47349(10) 0.4463(2)
H7 H 0.5278 0.4752 0.4139
C10 C 0.6236(2) 0.50099(10) 0.4515(2)
H8 H 0.6242 0.5209 0.4225
C11 C 0.6797(2) 0.49941(9) 0.4972(2)
C12 C 0.6753(2) 0.47019(10) 0.5403(2)
H9 H 0.7125 0.4677 0.5717
C13 C 0.6147(3) 0.44374(10) 0.5377(2)
H10 H 0.6112 0.4254 0.5695
C14 C 0.7500 0.52592(13) 0.5000
C15 C 0.7451(2) 0.55140(9) 0.5589(2)
C16 C 0.8010(3) 0.58057(10) 0.5638(2)
H11 H 0.8374 0.5835 0.5317
C17 C 0.8010(3) 0.60451(13) 0.6167(3)
H12 H 0.8381 0.6231 0.6197
C18 C 0.7502(3) 0.60161(12) 0.6622(3)
C19 C 0.6915(3) 0.57317(14) 0.6582(3)
H13 H 0.6543 0.5713 0.6898
C20 C 0.6917(3) 0.54894(11) 0.6070(2)
H14 H 0.6546 0.5303 0.6046
C21 C 0.7578(5) 0.6286(2) 0.7211(4)
H15 H 0.7941 0.6477 0.7196
C22 C 0.7201(5) 0.6258(2) 0.7666(5)
H16 H 0.6819 0.6078 0.7706
C23 C 0.7395(5) 0.65569(16) 0.8219(3)
C24 C 0.7976(4) 0.6822(2) 0.8244(3)
H17 H 0.8338 0.6832 0.7919
C25 C 0.8017(4) 0.70733(15) 0.8755(3)
H18 H 0.8406 0.7251 0.8772
C26 C 0.6894(4) 0.67932(17) 0.9216(3)
H19 H 0.6533 0.6783 0.9542
C27 C 0.6854(4) 0.65423(15) 0.8705(4)
H20 H 0.6465 0.6365 0.8688
C28 C 0.2500 0.2500 0.6395(10)
C29 C 0.5728(12) 0.7500 1.0000
Se1A Se 0.2048(8) 0.2586(4) 0.7187(8)
Se2B Se 0.4853(9) 0.7475(3) 1.0478(6)
N1C N 1.1623(2) 0.29215(8) 0.4992(2)
N2C N 0.7524(4) 0.70587(12) 0.0758(2)
C1C C 1.1666(2) 0.32169(11) 0.5407(3)
H1C H 1.2051 0.3220 0.5713
C2C C 1.1150(3) 0.35145(10) 0.5385(2)
H2C H 1.1199 0.3712 0.5674
C3C C 1.0586(3) 0.35215(10) 0.4957(3)
C4C C 1.0526(2) 0.32174(11) 0.4512(3)
H3C H 1.0145 0.3213 0.4202
C5C C 1.1059(3) 0.29274(12) 0.4560(3)
H4C H 1.1022 0.2727 0.4275
C6C C 0.9982(3) 0.38236(12) 0.4867(2)
H5C H 0.9586 0.3774 0.4583
C7C C 0.9979(3) 0.41492(11) 0.5164(2)
H6C H 1.0384 0.4200 0.5438
C8C C 0.9384(2) 0.44440(10) 0.5098(2)
C9C C 0.9360(2) 0.47349(10) 0.5537(2)
H7C H 0.9722 0.4752 0.5861
C10C C 0.8764(2) 0.50099(10) 0.5485(2)
H8C H 0.8758 0.5209 0.5775
C11C C 0.8203(2) 0.49941(9) 0.5028(2)
C12C C 0.8247(2) 0.47019(10) 0.4597(2)
H9C H 0.7875 0.4677 0.4283
C13C C 0.8853(3) 0.44374(10) 0.4623(2)
H10C H 0.8888 0.4254 0.4305
C15C C 0.7549(2) 0.55140(9) 0.4411(2)
C16C C 0.6990(3) 0.58057(10) 0.4362(2)
H11C H 0.6626 0.5835 0.4683
C17C C 0.6990(3) 0.60451(13) 0.3833(3)
H12C H 0.6619 0.6231 0.3803
C18C C 0.7498(3) 0.60161(12) 0.3378(3)
C19C C 0.8085(3) 0.57317(14) 0.3418(3)
H13C H 0.8457 0.5713 0.3102
C20C C 0.8083(3) 0.54894(11) 0.3930(2)
H14C H 0.8454 0.5303 0.3954
C21C C 0.7422(5) 0.6286(2) 0.2789(4)
H15C H 0.7059 0.6477 0.2804
C22C C 0.7799(5) 0.6258(2) 0.2334(5)
H16C H 0.8181 0.6078 0.2294
C23C C 0.7605(5) 0.65569(16) 0.1781(3)
C24C C 0.7024(4) 0.6822(2) 0.1756(3)
H17C H 0.6662 0.6832 0.2081
C25C C 0.6983(4) 0.70733(15) 0.1245(3)
H18C H 0.6594 0.7251 0.1228
C26C C 0.8106(4) 0.67932(17) 0.0784(3)
H19C H 0.8467 0.6783 0.0458
C27C C 0.8146(4) 0.65423(15) 0.1295(4)
H20C H 0.8535 0.6365 0.1312
Se1B Se 0.2952(8) 0.2586(4) 0.2813(8)
N1B N 0.3377(2) 0.20785(8) 0.4992(2)
N2B N 0.7476(4) -0.20587(12) 0.0758(2)
N3B N 0.2500 0.2500 0.4041(8)
C1B C 0.3334(2) 0.17831(11) 0.5407(3)
H1B H 0.2949 0.1780 0.5713
C2B C 0.3850(3) 0.14855(10) 0.5385(2)
H2B H 0.3801 0.1288 0.5674
C3B C 0.4414(3) 0.14785(10) 0.4957(3)
C4B C 0.4474(2) 0.17826(11) 0.4512(3)
H3B H 0.4855 0.1787 0.4202
C5B C 0.3941(3) 0.20726(12) 0.4560(3)
H4B H 0.3978 0.2273 0.4275
C6B C 0.5018(3) 0.11764(12) 0.4867(2)
H5B H 0.5414 0.1226 0.4583
C7B C 0.5021(3) 0.08508(11) 0.5164(2)
H6B H 0.4616 0.0800 0.5438
C8B C 0.5616(2) 0.05560(10) 0.5098(2)
C9B C 0.5640(2) 0.02651(10) 0.5537(2)
H7B H 0.5278 0.0248 0.5861
C10B C 0.6236(2) -0.00099(10) 0.5485(2)
H8B H 0.6242 -0.0209 0.5775
C11B C 0.6797(2) 0.00059(9) 0.5028(2)
C12B C 0.6753(2) 0.02981(10) 0.4597(2)
H9B H 0.7125 0.0323 0.4283
C13B C 0.6147(3) 0.05626(10) 0.4623(2)
H10B H 0.6112 0.0746 0.4305
C14A C 0.7500 -0.02592(13) 0.5000
C15B C 0.7451(2) -0.05140(9) 0.4411(2)
C16B C 0.8010(3) -0.08057(10) 0.4362(2)
H11B H 0.8374 -0.0835 0.4683
C17B C 0.8010(3) -0.10451(13) 0.3833(3)
H12B H 0.8381 -0.1231 0.3803
C18B C 0.7502(3) -0.10161(12) 0.3378(3)
C19B C 0.6915(3) -0.07317(14) 0.3418(3)
H13B H 0.6543 -0.0713 0.3102
C20B C 0.6917(3) -0.04894(11) 0.3930(2)
H14B H 0.6546 -0.0303 0.3954
C21B C 0.7578(5) -0.1286(2) 0.2789(4)
H15B H 0.7941 -0.1477 0.2804
C22B C 0.7201(5) -0.1258(2) 0.2334(5)
H16B H 0.6819 -0.1078 0.2294
C23B C 0.7395(5) -0.15569(16) 0.1781(3)
C24B C 0.7976(4) -0.1822(2) 0.1756(3)
H17B H 0.8338 -0.1832 0.2081
C25B C 0.8017(4) -0.20733(15) 0.1245(3)
H18B H 0.8406 -0.2251 0.1228
C26B C 0.6894(4) -0.17932(17) 0.0784(3)
H19B H 0.6533 -0.1783 0.0458
C27B C 0.6854(4) -0.15423(15) 0.1295(4)
H20B H 0.6465 -0.1365 0.1312
C28B C 0.2500 0.2500 0.3605(10)
Se1C Se 0.2048(8) 0.2414(4) 0.2813(8)
N1A N 1.1623(2) 0.20785(8) 0.5008(2)
N2A N 0.7524(4) -0.20587(12) 0.9242(2)
C1A C 1.1666(2) 0.17831(11) 0.4593(3)
H1A H 1.2051 0.1780 0.4287
C2A C 1.1150(3) 0.14855(10) 0.4615(2)
H2A H 1.1199 0.1288 0.4326
C3A C 1.0586(3) 0.14785(10) 0.5043(3)
C4A C 1.0526(2) 0.17826(11) 0.5488(3)
H3A H 1.0145 0.1787 0.5798
C5A C 1.1059(3) 0.20726(12) 0.5440(3)
H4A H 1.1022 0.2273 0.5725
C6A C 0.9982(3) 0.11764(12) 0.5133(2)
H5A H 0.9586 0.1226 0.5417
C7A C 0.9979(3) 0.08508(11) 0.4836(2)
H6A H 1.0384 0.0800 0.4562
C8A C 0.9384(2) 0.05560(10) 0.4902(2)
C9A C 0.9360(2) 0.02651(10) 0.4463(2)
H7A H 0.9722 0.0248 0.4139
C10A C 0.8764(2) -0.00099(10) 0.4515(2)
H8A H 0.8758 -0.0209 0.4225
C11A C 0.8203(2) 0.00059(9) 0.4972(2)
C12A C 0.8247(2) 0.02981(10) 0.5403(2)
H9A H 0.7875 0.0323 0.5717
C13A C 0.8853(3) 0.05626(10) 0.5377(2)
H10A H 0.8888 0.0746 0.5695
C15A C 0.7549(2) -0.05140(9) 0.5589(2)
C16A C 0.6990(3) -0.08057(10) 0.5638(2)
H11A H 0.6626 -0.0835 0.5317
C17A C 0.6990(3) -0.10451(13) 0.6167(3)
H12A H 0.6619 -0.1231 0.6197
C18A C 0.7498(3) -0.10161(12) 0.6622(3)
C19A C 0.8085(3) -0.07317(14) 0.6582(3)
H13A H 0.8457 -0.0713 0.6898
C20A C 0.8083(3) -0.04894(11) 0.6070(2)
H14A H 0.8454 -0.0303 0.6046
C21A C 0.7422(5) -0.1286(2) 0.7211(4)
H15A H 0.7059 -0.1477 0.7196
C22A C 0.7799(5) -0.1258(2) 0.7666(5)
H16A H 0.8181 -0.1078 0.7706
C23A C 0.7605(5) -0.15569(16) 0.8219(3)
C24A C 0.7024(4) -0.1822(2) 0.8244(3)
H17A H 0.6662 -0.1832 0.7919
C25A C 0.6983(4) -0.20733(15) 0.8755(3)
H18A H 0.6594 -0.2251 0.8772
C26A C 0.8106(4) -0.17932(17) 0.9216(3)
H19A H 0.8467 -0.1783 0.9542
C27A C 0.8146(4) -0.15423(15) 0.8705(4)
H20A H 0.8535 -0.1365 0.8688
Se2A Se 1.0147(9) 0.7475(3) 0.9522(6)
N4A N 0.8615(11) 0.7500 1.0000
C29A C 0.9272(12) 0.7500 1.0000
Se2C Se 1.0147(9) 0.7525(3) 1.0478(6)
Fe1_2 Fe 1.2500 0.2500 0.5000
Fe2_2 Fe 0.7500 -0.2500 0.0000
Fe2_3 Fe 0.7500 -0.2500 1.0000
Fe2_4 Fe 0.7500 0.7500 0.0000
N1A_2 N 0.1623(2) 0.20785(8) 0.5008(2)
N1C_2 N 0.1623(2) 0.29215(8) 0.4992(2)
N2A_2 N 0.7524(4) 0.79413(12) 0.9242(2)
N2B_2 N 0.7476(4) 0.79413(12) 1.0758(2)
N2C_2 N 0.7524(4) 0.70587(12) 1.0758(2)
loop_
_geom_bond_atom_site_label_1
_geom_bond_atom_site_label_2
_geom_bond_site_symmetry_1
_geom_bond_site_symmetry_2
Fe1 N1 1_555 1_555
Fe2 N2 1_555 1_555
Se1 C28 1_555 1_555
Se2 C29 1_555 1_555
N1 C1 1_555 1_555
N2 C25 1_555 1_555
N3 Fe1 1_555 1_555
N4 Fe2 1_555 1_555
C1 H1 1_555 1_555
C2 C1 1_555 1_555
H2 C2 1_555 1_555
C3 C2 1_555 1_555
C4 C3 1_555 1_555
H3 C4 1_555 1_555
C5 N1 1_555 1_555
H4 C5 1_555 1_555
C6 C3 1_555 1_555
H5 C6 1_555 1_555
C7 C6 1_555 1_555
H6 C7 1_555 1_555
C8 C7 1_555 1_555
C9 C8 1_555 1_555
H7 C9 1_555 1_555
C10 C9 1_555 1_555
H8 C10 1_555 1_555
C11 C10 1_555 1_555
C12 C11 1_555 1_555
H9 C12 1_555 1_555
C13 C8 1_555 1_555
H10 C13 1_555 1_555
C14 C11 1_555 1_555
C15 C14 1_555 1_555
C16 C15 1_555 1_555
H11 C16 1_555 1_555
C17 C16 1_555 1_555
H12 C17 1_555 1_555
C18 C17 1_555 1_555
C19 C18 1_555 1_555
H13 C19 1_555 1_555
C20 C15 1_555 1_555
H14 C20 1_555 1_555
C21 C18 1_555 1_555
H15 C21 1_555 1_555
C22 C21 1_555 1_555
H16 C22 1_555 1_555
C23 C22 1_555 1_555
C24 C23 1_555 1_555
H17 C24 1_555 1_555
C25 C24 1_555 1_555
H18 C25 1_555 1_555
C26 N2 1_555 1_555
H19 C26 1_555 1_555
C27 C23 1_555 1_555
H20 C27 1_555 1_555
C28 N3 1_555 1_555
C29 N4 1_555 1_555
Se1A Se1 1_555 1_555
Se2B Se2 1_555 1_555
N1C C1C 1_555 1_555
N2C C25C 1_555 1_555
C1C H1C 1_555 1_555
C2C C1C 1_555 1_555
H2C C2C 1_555 1_555
C3C C2C 1_555 1_555
C4C C3C 1_555 1_555
H3C C4C 1_555 1_555
C5C N1C 1_555 1_555
H4C C5C 1_555 1_555
C6C C3C 1_555 1_555
H5C C6C 1_555 1_555
C7C C6C 1_555 1_555
H6C C7C 1_555 1_555
C8C C7C 1_555 1_555
C9C C8C 1_555 1_555
H7C C9C 1_555 1_555
C10C C9C 1_555 1_555
H8C C10C 1_555 1_555
C11C C14 1_555 1_555
C12C C11C 1_555 1_555
H9C C12C 1_555 1_555
C13C C8C 1_555 1_555
H10C C13C 1_555 1_555
C15C C14 1_555 1_555
C16C C15C 1_555 1_555
H11C C16C 1_555 1_555
C17C C16C 1_555 1_555
H12C C17C 1_555 1_555
C18C C17C 1_555 1_555
C19C C18C 1_555 1_555
H13C C19C 1_555 1_555
C20C C15C 1_555 1_555
H14C C20C 1_555 1_555
C21C C18C 1_555 1_555
H15C C21C 1_555 1_555
C22C C21C 1_555 1_555
H16C C22C 1_555 1_555
C23C C22C 1_555 1_555
C24C C23C 1_555 1_555
H17C C24C 1_555 1_555
C25C C24C 1_555 1_555
H18C C25C 1_555 1_555
C26C N2C 1_555 1_555
H19C C26C 1_555 1_555
C27C C23C 1_555 1_555
H20C C27C 1_555 1_555
Se1B C28B 1_555 1_555
N1B Fe1 1_555 1_555
N2B C25B 1_555 1_555
N3B Fe1 1_555 1_555
C1B N1B 1_555 1_555
H1B C1B 1_555 1_555
C2B C1B 1_555 1_555
H2B C2B 1_555 1_555
C3B C2B 1_555 1_555
C4B C3B 1_555 1_555
H3B C4B 1_555 1_555
C5B N1B 1_555 1_555
H4B C5B 1_555 1_555
C6B C3B 1_555 1_555
H5B C6B 1_555 1_555
C7B C6B 1_555 1_555
H6B C7B 1_555 1_555
C8B C7B 1_555 1_555
C9B C8B 1_555 1_555
H7B C9B 1_555 1_555
C10B C9B 1_555 1_555
H8B C10B 1_555 1_555
C11B C10B 1_555 1_555
C12B C11B 1_555 1_555
H9B C12B 1_555 1_555
C13B C8B 1_555 1_555
H10B C13B 1_555 1_555
C14A C11B 1_555 1_555
C15B C14A 1_555 1_555
C16B C15B 1_555 1_555
H11B C16B 1_555 1_555
C17B C16B 1_555 1_555
H12B C17B 1_555 1_555
C18B C17B 1_555 1_555
C19B C18B 1_555 1_555
H13B C19B 1_555 1_555
C20B C15B 1_555 1_555
H14B C20B 1_555 1_555
C21B C18B 1_555 1_555
H15B C21B 1_555 1_555
C22B C21B 1_555 1_555
H16B C22B 1_555 1_555
C23B C22B 1_555 1_555
C24B C23B 1_555 1_555
H17B C24B 1_555 1_555
C25B C24B 1_555 1_555
H18B C25B 1_555 1_555
C26B N2B 1_555 1_555
H19B C26B 1_555 1_555
C27B C23B 1_555 1_555
H20B C27B 1_555 1_555
C28B N3B 1_555 1_555
Se1C Se1B 1_555 1_555
N1A C1A 1_555 1_555
N2A C25A 1_555 1_555
C1A H1A 1_555 1_555
C2A C1A 1_555 1_555
H2A C2A 1_555 1_555
C3A C2A 1_555 1_555
C4A C3A 1_555 1_555
H3A C4A 1_555 1_555
C5A N1A 1_555 1_555
H4A C5A 1_555 1_555
C6A C3A 1_555 1_555
H5A C6A 1_555 1_555
C7A C6A 1_555 1_555
H6A C7A 1_555 1_555
C8A C7A 1_555 1_555
C9A C8A 1_555 1_555
H7A C9A 1_555 1_555
C10A C9A 1_555 1_555
H8A C10A 1_555 1_555
C11A C14A 1_555 1_555
C12A C11A 1_555 1_555
H9A C12A 1_555 1_555
C13A C8A 1_555 1_555
H10A C13A 1_555 1_555
C15A C14A 1_555 1_555
C16A C15A 1_555 1_555
H11A C16A 1_555 1_555
C17A C16A 1_555 1_555
H12A C17A 1_555 1_555
C18A C17A 1_555 1_555
C19A C18A 1_555 1_555
H13A C19A 1_555 1_555
C20A C15A 1_555 1_555
H14A C20A 1_555 1_555
C21A C18A 1_555 1_555
H15A C21A 1_555 1_555
C22A C21A 1_555 1_555
H16A C22A 1_555 1_555
C23A C22A 1_555 1_555
C24A C23A 1_555 1_555
H17A C24A 1_555 1_555
C25A C24A 1_555 1_555
H18A C25A 1_555 1_555
C26A N2A 1_555 1_555
H19A C26A 1_555 1_555
C27A C23A 1_555 1_555
H20A C27A 1_555 1_555
Se2A C29A 1_555 1_555
N4A Fe2 1_555 1_555
C29A N4A 1_555 1_555
Se2C Se2A 1_555 1_555
Fe1_2 N1C 1_555 1_555
Fe2_2 N2B 1_555 1_555
Fe2_3 N2A 1_555 1_555
Fe2_4 N2C 1_555 1_555
N1A_2 Fe1 1_555 1_555
N1C_2 Fe1 1_555 1_555
N2A_2 Fe2 1_555 1_555
N2B_2 Fe2 1_555 1_555
N2C_2 Fe2 1_555 1_555
C4 C5 1_555 1_555
C12 C13 1_555 1_555
C19 C20 1_555 1_555
C26 C27 1_555 1_555
C28 Se1A 1_555 1_555
C29 Se2B 1_555 1_555
C4C C5C 1_555 1_555
C10C C11C 1_555 1_555
C12C C13C 1_555 1_555
C19C C20C 1_555 1_555
C26C C27C 1_555 1_555
C4B C5B 1_555 1_555
C12B C13B 1_555 1_555
C19B C20B 1_555 1_555
C26B C27B 1_555 1_555
C28B Se1C 1_555 1_555
N1A Fe1_2 1_555 1_555
C4A C5A 1_555 1_555
C10A C11A 1_555 1_555
C12A C13A 1_555 1_555
C19A C20A 1_555 1_555
C26A C27A 1_555 1_555
C29A Se2C 1_555 1_555

#END
