
#######################################################################
#
#                 Cambridge Crystallographic Data Centre
#                                CCDC 
#
#######################################################################
#
# If this CIF has been generated from an entry in the Cambridge 
# Structural Database, then it will include bibliographic, chemical, 
# crystal, experimental, refinement or atomic coordinate data resulting 
# from the CCDC's data processing and validation procedures.
#
#######################################################################

data_POBGAQ02
_chemical_formula_moiety         'C110 H80 B8 Fe6 N17'
_symmetry_cell_setting           orthorhombic
_symmetry_space_group_name_H-M   'P b a n'
_symmetry_Int_Tables_number      50
_space_group_name_Hall           '-P 2ab 2b'
loop_
_symmetry_equiv_pos_site_id
_symmetry_equiv_pos_as_xyz
1 x,y,z
2 1/2-x,1/2-y,z
3 x,1/2-y,-z
4 1/2-x,y,-z
5 -x,-y,-z
6 1/2+x,1/2+y,-z
7 -x,1/2+y,z
8 1/2+x,-y,z
_cell_length_a                   17.5817(10)
_cell_length_b                   35.4511(13)
_cell_length_c                   20.8530(14)
_cell_angle_alpha                90
_cell_angle_beta                 90
_cell_angle_gamma                90
_cell_volume                     12997.5
loop_
_atom_site_label
_atom_site_type_symbol
_atom_site_fract_x
_atom_site_fract_y
_atom_site_fract_z
Fe1 Fe 0.2500 0.2500 0.5000
Fe2 Fe 0.7500 0.7500 1.0000
B1 B 0.2946(8) 0.2414(4) 0.7178(7)
B2 B 0.4867(9) 0.7524(3) 0.9525(7)
N1 N 0.3378(2) 0.29216(8) 0.5008(2)
N2 N 0.7476(4) 0.70585(12) 0.9241(2)
N3 N 0.2500 0.2500 0.5961(7)
N4 N 0.6363(10) 0.7500 1.0000
C1 C 0.6235(2) 0.50098(10) 0.4516(2)
H1 H 0.6241 0.5209 0.4226
C2 C 0.6915(3) 0.57317(14) 0.6582(3)
H2 H 0.6543 0.5713 0.6898
C3 C 0.7500 0.52592(13) 0.5000
C4 C 0.3941(3) 0.29273(12) 0.5440(3)
H3 H 0.3979 0.2726 0.5725
C5 C 0.7578(5) 0.6286(2) 0.7212(4)
H4 H 0.7940 0.6476 0.7197
C6 C 0.7451(2) 0.55139(9) 0.5590(2)
C7 C 0.5018(3) 0.38235(12) 0.5133(2)
H5 H 0.5413 0.3774 0.5417
C8 C 0.7200(5) 0.6258(2) 0.7669(5)
H6 H 0.6818 0.6078 0.7710
C9 C 0.6917(3) 0.54894(11) 0.6070(2)
H7 H 0.6546 0.5303 0.6046
C10 C 0.3334(2) 0.32171(11) 0.4594(3)
H8 H 0.2949 0.3221 0.4288
C11 C 0.5701(12) 0.7500 1.0000
C12 C 0.4474(2) 0.32174(11) 0.5487(3)
H9 H 0.4855 0.3212 0.5797
C13 C 0.2500 0.2500 0.6424(8)
C14 C 0.5020(3) 0.41491(11) 0.4837(2)
H10 H 0.4616 0.4200 0.4563
C15 C 0.5616(2) 0.44440(10) 0.4902(2)
C16 C 0.3851(3) 0.35145(10) 0.4616(2)
H11 H 0.3802 0.3712 0.4326
C17 C 0.5640(2) 0.47349(10) 0.4463(2)
H12 H 0.5278 0.4752 0.4139
C18 C 0.6796(2) 0.49941(9) 0.4972(2)
C19 C 0.4414(3) 0.35215(10) 0.5044(3)
C20 C 0.6752(2) 0.47018(10) 0.5403(2)
H13 H 0.7125 0.4677 0.5717
C21 C 0.8010(3) 0.58057(10) 0.5638(2)
H14 H 0.8373 0.5835 0.5318
C22 C 0.8016(4) 0.70733(15) 0.8755(3)
H15 H 0.8405 0.7251 0.8772
C23 C 0.6895(4) 0.67929(17) 0.9216(3)
H16 H 0.6533 0.6783 0.9541
C24 C 0.6855(4) 0.65420(15) 0.8704(4)
H17 H 0.6466 0.6364 0.8688
C25 C 0.7395(5) 0.65568(16) 0.8219(3)
C26 C 0.7976(4) 0.6822(2) 0.8244(3)
H18 H 0.8337 0.6832 0.7919
C27 C 0.6147(3) 0.44374(10) 0.5377(2)
H19 H 0.6112 0.4254 0.5694
C28 C 0.8010(3) 0.60451(13) 0.6167(3)
H20 H 0.8381 0.6231 0.6197
C29 C 0.7502(3) 0.60162(12) 0.6622(3)
B1A B 0.2054(8) 0.2586(4) 0.7178(7)
B2B B 0.4867(9) 0.7476(3) 1.0475(7)
N1C N 1.1622(2) 0.29216(8) 0.4992(2)
N2C N 0.7524(4) 0.70585(12) 0.0759(2)
C1C C 0.8765(2) 0.50098(10) 0.5484(2)
H1C H 0.8759 0.5209 0.5774
C2C C 0.8085(3) 0.57317(14) 0.3418(3)
H2C H 0.8457 0.5713 0.3102
C4C C 1.1059(3) 0.29273(12) 0.4560(3)
H3C H 1.1021 0.2726 0.4275
C5C C 0.7422(5) 0.6286(2) 0.2788(4)
H4C H 0.7060 0.6476 0.2803
C6C C 0.7549(2) 0.55139(9) 0.4410(2)
C7C C 0.9982(3) 0.38235(12) 0.4867(2)
H5C H 0.9587 0.3774 0.4583
C8C C 0.7800(5) 0.6258(2) 0.2331(5)
H6C H 0.8182 0.6078 0.2290
C9C C 0.8083(3) 0.54894(11) 0.3930(2)
H7C H 0.8454 0.5303 0.3954
C10C C 1.1666(2) 0.32171(11) 0.5406(3)
H8C H 1.2051 0.3221 0.5712
C12C C 1.0526(2) 0.32174(11) 0.4513(3)
H9C H 1.0145 0.3212 0.4203
C14C C 0.9980(3) 0.41491(11) 0.5163(2)
H10C H 1.0384 0.4200 0.5437
C15C C 0.9384(2) 0.44440(10) 0.5098(2)
C16C C 1.1149(3) 0.35145(10) 0.5384(2)
H11C H 1.1198 0.3712 0.5674
C17C C 0.9360(2) 0.47349(10) 0.5537(2)
H12C H 0.9722 0.4752 0.5861
C18C C 0.8204(2) 0.49941(9) 0.5028(2)
C19C C 1.0586(3) 0.35215(10) 0.4956(3)
C20C C 0.8248(2) 0.47018(10) 0.4597(2)
H13C H 0.7875 0.4677 0.4283
C21C C 0.6990(3) 0.58057(10) 0.4362(2)
H14C H 0.6627 0.5835 0.4682
C22C C 0.6984(4) 0.70733(15) 0.1245(3)
H15C H 0.6595 0.7251 0.1228
C23C C 0.8105(4) 0.67929(17) 0.0784(3)
H16C H 0.8467 0.6783 0.0459
C24C C 0.8145(4) 0.65420(15) 0.1296(4)
H17C H 0.8534 0.6364 0.1312
C25C C 0.7605(5) 0.65568(16) 0.1781(3)
C26C C 0.7024(4) 0.6822(2) 0.1756(3)
H18C H 0.6663 0.6832 0.2081
C27C C 0.8853(3) 0.44374(10) 0.4623(2)
H19C H 0.8888 0.4254 0.4306
C28C C 0.6990(3) 0.60451(13) 0.3833(3)
H20C H 0.6619 0.6231 0.3803
C29C C 0.7498(3) 0.60162(12) 0.3378(3)
B1B B 0.2946(8) 0.2586(4) 0.2822(7)
N1B N 0.3378(2) 0.20784(8) 0.4992(2)
N2B N 0.7476(4) -0.20585(12) 0.0759(2)
N3B N 0.2500 0.2500 0.4039(7)
C1B C 0.6235(2) -0.00098(10) 0.5484(2)
H1B H 0.6241 -0.0209 0.5774
C2B C 0.6915(3) -0.07317(14) 0.3418(3)
H2B H 0.6543 -0.0713 0.3102
C3A C 0.7500 -0.02592(13) 0.5000
C4B C 0.3941(3) 0.20727(12) 0.4560(3)
H3B H 0.3979 0.2274 0.4275
C5B C 0.7578(5) -0.1286(2) 0.2788(4)
H4B H 0.7940 -0.1476 0.2803
C6B C 0.7451(2) -0.05139(9) 0.4410(2)
C7B C 0.5018(3) 0.11765(12) 0.4867(2)
H5B H 0.5413 0.1226 0.4583
C8B C 0.7200(5) -0.1258(2) 0.2331(5)
H6B H 0.6818 -0.1078 0.2290
C9B C 0.6917(3) -0.04894(11) 0.3930(2)
H7B H 0.6546 -0.0303 0.3954
C10B C 0.3334(2) 0.17829(11) 0.5406(3)
H8B H 0.2949 0.1779 0.5712
C12B C 0.4474(2) 0.17826(11) 0.4513(3)
H9B H 0.4855 0.1788 0.4203
C13B C 0.2500 0.2500 0.3576(8)
C14B C 0.5020(3) 0.08509(11) 0.5163(2)
H10B H 0.4616 0.0800 0.5437
C15B C 0.5616(2) 0.05560(10) 0.5098(2)
C16B C 0.3851(3) 0.14855(10) 0.5384(2)
H11B H 0.3802 0.1288 0.5674
C17B C 0.5640(2) 0.02651(10) 0.5537(2)
H12B H 0.5278 0.0248 0.5861
C18B C 0.6796(2) 0.00059(9) 0.5028(2)
C19B C 0.4414(3) 0.14785(10) 0.4956(3)
C20B C 0.6752(2) 0.02982(10) 0.4597(2)
H13B H 0.7125 0.0323 0.4283
C21B C 0.8010(3) -0.08057(10) 0.4362(2)
H14B H 0.8373 -0.0835 0.4682
C22B C 0.8016(4) -0.20733(15) 0.1245(3)
H15B H 0.8405 -0.2251 0.1228
C23B C 0.6895(4) -0.17929(17) 0.0784(3)
H16B H 0.6533 -0.1783 0.0459
C24B C 0.6855(4) -0.15420(15) 0.1296(4)
H17B H 0.6466 -0.1364 0.1312
C25B C 0.7395(5) -0.15568(16) 0.1781(3)
C26B C 0.7976(4) -0.1822(2) 0.1756(3)
H18B H 0.8337 -0.1832 0.2081
C27B C 0.6147(3) 0.05626(10) 0.4623(2)
H19B H 0.6112 0.0746 0.4306
C28B C 0.8010(3) -0.10451(13) 0.3833(3)
H20B H 0.8381 -0.1231 0.3803
C29B C 0.7502(3) -0.10162(12) 0.3378(3)
B1C B 0.2054(8) 0.2414(4) 0.2822(7)
N1A N 1.1622(2) 0.20784(8) 0.5008(2)
N2A N 0.7524(4) -0.20585(12) 0.9241(2)
C1A C 0.8765(2) -0.00098(10) 0.4516(2)
H1A H 0.8759 -0.0209 0.4226
C2A C 0.8085(3) -0.07317(14) 0.6582(3)
H2A H 0.8457 -0.0713 0.6898
C4A C 1.1059(3) 0.20727(12) 0.5440(3)
H3A H 1.1021 0.2274 0.5725
C5A C 0.7422(5) -0.1286(2) 0.7212(4)
H4A H 0.7060 -0.1476 0.7197
C6A C 0.7549(2) -0.05139(9) 0.5590(2)
C7A C 0.9982(3) 0.11765(12) 0.5133(2)
H5A H 0.9587 0.1226 0.5417
C8A C 0.7800(5) -0.1258(2) 0.7669(5)
H6A H 0.8182 -0.1078 0.7710
C9A C 0.8083(3) -0.04894(11) 0.6070(2)
H7A H 0.8454 -0.0303 0.6046
C10A C 1.1666(2) 0.17829(11) 0.4594(3)
H8A H 1.2051 0.1779 0.4288
C12A C 1.0526(2) 0.17826(11) 0.5487(3)
H9A H 1.0145 0.1788 0.5797
C14A C 0.9980(3) 0.08509(11) 0.4837(2)
H10A H 1.0384 0.0800 0.4563
C15A C 0.9384(2) 0.05560(10) 0.4902(2)
C16A C 1.1149(3) 0.14855(10) 0.4616(2)
H11A H 1.1198 0.1288 0.4326
C17A C 0.9360(2) 0.02651(10) 0.4463(2)
H12A H 0.9722 0.0248 0.4139
C18A C 0.8204(2) 0.00059(9) 0.4972(2)
C19A C 1.0586(3) 0.14785(10) 0.5044(3)
C20A C 0.8248(2) 0.02982(10) 0.5403(2)
H13A H 0.7875 0.0323 0.5717
C21A C 0.6990(3) -0.08057(10) 0.5638(2)
H14A H 0.6627 -0.0835 0.5318
C22A C 0.6984(4) -0.20733(15) 0.8755(3)
H15A H 0.6595 -0.2251 0.8772
C23A C 0.8105(4) -0.17929(17) 0.9216(3)
H16A H 0.8467 -0.1783 0.9541
C24A C 0.8145(4) -0.15420(15) 0.8704(4)
H17A H 0.8534 -0.1364 0.8688
C25A C 0.7605(5) -0.15568(16) 0.8219(3)
C26A C 0.7024(4) -0.1822(2) 0.8244(3)
H18A H 0.6663 -0.1832 0.7919
C27A C 0.8853(3) 0.05626(10) 0.5377(2)
H19A H 0.8888 0.0746 0.5694
C28A C 0.6990(3) -0.10451(13) 0.6167(3)
H20A H 0.6619 -0.1231 0.6197
C29A C 0.7498(3) -0.10162(12) 0.6622(3)
B2A B 1.0133(9) 0.7476(3) 0.9525(7)
N4A N 0.8637(10) 0.7500 1.0000
C11A C 0.9299(12) 0.7500 1.0000
B2C B 1.0133(9) 0.7524(3) 1.0475(7)
Fe1_2 Fe 1.2500 0.2500 0.5000
Fe2_2 Fe 0.7500 -0.2500 0.0000
Fe2_3 Fe 0.7500 -0.2500 1.0000
Fe2_4 Fe 0.7500 0.7500 0.0000
N1A_2 N 0.1622(2) 0.20784(8) 0.5008(2)
N1C_2 N 0.1622(2) 0.29216(8) 0.4992(2)
N2A_2 N 0.7524(4) 0.79415(12) 0.9241(2)
N2B_2 N 0.7476(4) 0.79415(12) 1.0759(2)
N2C_2 N 0.7524(4) 0.70585(12) 1.0759(2)
loop_
_geom_bond_atom_site_label_1
_geom_bond_atom_site_label_2
_geom_bond_site_symmetry_1
_geom_bond_site_symmetry_2
Fe1 N1 1_555 1_555
Fe2 N2 1_555 1_555
B1 C13 1_555 1_555
B2 C11 1_555 1_555
N1 C4 1_555 1_555
N2 C22 1_555 1_555
N3 Fe1 1_555 1_555
N4 Fe2 1_555 1_555
C1 H1 1_555 1_555
C2 H2 1_555 1_555
C3 C6 1_555 1_555
C4 H3 1_555 1_555
C5 H4 1_555 1_555
C6 C9 1_555 1_555
C7 H5 1_555 1_555
C8 C5 1_555 1_555
H6 C8 1_555 1_555
C9 C2 1_555 1_555
H7 C9 1_555 1_555
C10 N1 1_555 1_555
H8 C10 1_555 1_555
C11 N4 1_555 1_555
C12 C4 1_555 1_555
H9 C12 1_555 1_555
C13 N3 1_555 1_555
C14 C7 1_555 1_555
H10 C14 1_555 1_555
C15 C14 1_555 1_555
C16 C10 1_555 1_555
H11 C16 1_555 1_555
C17 C1 1_555 1_555
H12 C17 1_555 1_555
C18 C1 1_555 1_555
C19 C7 1_555 1_555
C20 C18 1_555 1_555
H13 C20 1_555 1_555
C21 C6 1_555 1_555
H14 C21 1_555 1_555
C22 H15 1_555 1_555
C23 N2 1_555 1_555
H16 C23 1_555 1_555
C24 C23 1_555 1_555
H17 C24 1_555 1_555
C25 C8 1_555 1_555
C26 C22 1_555 1_555
H18 C26 1_555 1_555
C27 C15 1_555 1_555
H19 C27 1_555 1_555
C28 C21 1_555 1_555
H20 C28 1_555 1_555
C29 C2 1_555 1_555
B1A B1 1_555 1_555
B2B B2 1_555 1_555
N1C C4C 1_555 1_555
N2C C22C 1_555 1_555
C1C H1C 1_555 1_555
C2C H2C 1_555 1_555
C4C H3C 1_555 1_555
C5C H4C 1_555 1_555
C6C C3 1_555 1_555
C7C H5C 1_555 1_555
C8C C5C 1_555 1_555
H6C C8C 1_555 1_555
C9C C2C 1_555 1_555
H7C C9C 1_555 1_555
C10C N1C 1_555 1_555
H8C C10C 1_555 1_555
C12C C4C 1_555 1_555
H9C C12C 1_555 1_555
C14C C7C 1_555 1_555
H10C C14C 1_555 1_555
C15C C14C 1_555 1_555
C16C C10C 1_555 1_555
H11C C16C 1_555 1_555
C17C C1C 1_555 1_555
H12C C17C 1_555 1_555
C18C C3 1_555 1_555
C19C C7C 1_555 1_555
C20C C18C 1_555 1_555
H13C C20C 1_555 1_555
C21C C6C 1_555 1_555
H14C C21C 1_555 1_555
C22C H15C 1_555 1_555
C23C N2C 1_555 1_555
H16C C23C 1_555 1_555
C24C C23C 1_555 1_555
H17C C24C 1_555 1_555
C25C C8C 1_555 1_555
C26C C22C 1_555 1_555
H18C C26C 1_555 1_555
C27C C15C 1_555 1_555
H19C C27C 1_555 1_555
C28C C21C 1_555 1_555
H20C C28C 1_555 1_555
C29C C2C 1_555 1_555
B1B C13B 1_555 1_555
N1B Fe1 1_555 1_555
N2B C22B 1_555 1_555
N3B Fe1 1_555 1_555
C1B H1B 1_555 1_555
C2B H2B 1_555 1_555
C3A C6B 1_555 1_555
C4B N1B 1_555 1_555
H3B C4B 1_555 1_555
C5B H4B 1_555 1_555
C6B C9B 1_555 1_555
C7B H5B 1_555 1_555
C8B C5B 1_555 1_555
H6B C8B 1_555 1_555
C9B C2B 1_555 1_555
H7B C9B 1_555 1_555
C10B N1B 1_555 1_555
H8B C10B 1_555 1_555
C12B C4B 1_555 1_555
H9B C12B 1_555 1_555
C13B N3B 1_555 1_555
C14B C7B 1_555 1_555
H10B C14B 1_555 1_555
C15B C14B 1_555 1_555
C16B C10B 1_555 1_555
H11B C16B 1_555 1_555
C17B C1B 1_555 1_555
H12B C17B 1_555 1_555
C18B C1B 1_555 1_555
C19B C7B 1_555 1_555
C20B C18B 1_555 1_555
H13B C20B 1_555 1_555
C21B C6B 1_555 1_555
H14B C21B 1_555 1_555
C22B H15B 1_555 1_555
C23B N2B 1_555 1_555
H16B C23B 1_555 1_555
C24B C23B 1_555 1_555
H17B C24B 1_555 1_555
C25B C8B 1_555 1_555
C26B C22B 1_555 1_555
H18B C26B 1_555 1_555
C27B C15B 1_555 1_555
H19B C27B 1_555 1_555
C28B C21B 1_555 1_555
H20B C28B 1_555 1_555
C29B C2B 1_555 1_555
B1C B1B 1_555 1_555
N1A C4A 1_555 1_555
N2A C22A 1_555 1_555
C1A H1A 1_555 1_555
C2A H2A 1_555 1_555
C4A H3A 1_555 1_555
C5A H4A 1_555 1_555
C6A C3A 1_555 1_555
C7A H5A 1_555 1_555
C8A C5A 1_555 1_555
H6A C8A 1_555 1_555
C9A C2A 1_555 1_555
H7A C9A 1_555 1_555
C10A N1A 1_555 1_555
H8A C10A 1_555 1_555
C12A C4A 1_555 1_555
H9A C12A 1_555 1_555
C14A C7A 1_555 1_555
H10A C14A 1_555 1_555
C15A C14A 1_555 1_555
C16A C10A 1_555 1_555
H11A C16A 1_555 1_555
C17A C1A 1_555 1_555
H12A C17A 1_555 1_555
C18A C3A 1_555 1_555
C19A C7A 1_555 1_555
C20A C18A 1_555 1_555
H13A C20A 1_555 1_555
C21A C6A 1_555 1_555
H14A C21A 1_555 1_555
C22A H15A 1_555 1_555
C23A N2A 1_555 1_555
H16A C23A 1_555 1_555
C24A C23A 1_555 1_555
H17A C24A 1_555 1_555
C25A C8A 1_555 1_555
C26A C22A 1_555 1_555
H18A C26A 1_555 1_555
C27A C15A 1_555 1_555
H19A C27A 1_555 1_555
C28A C21A 1_555 1_555
H20A C28A 1_555 1_555
C29A C2A 1_555 1_555
B2A C11A 1_555 1_555
N4A Fe2 1_555 1_555
C11A N4A 1_555 1_555
B2C B2A 1_555 1_555
Fe1_2 N1C 1_555 1_555
Fe2_2 N2B 1_555 1_555
Fe2_3 N2A 1_555 1_555
Fe2_4 N2C 1_555 1_555
N1A_2 Fe1 1_555 1_555
N1C_2 Fe1 1_555 1_555
N2A_2 Fe2 1_555 1_555
N2B_2 Fe2 1_555 1_555
N2C_2 Fe2 1_555 1_555
C3 C18 1_555 1_555
C5 C29 1_555 1_555
C11 B2B 1_555 1_555
C12 C19 1_555 1_555
C13 B1A 1_555 1_555
C15 C17 1_555 1_555
C16 C19 1_555 1_555
C20 C27 1_555 1_555
C24 C25 1_555 1_555
C25 C26 1_555 1_555
C28 C29 1_555 1_555
C1C C18C 1_555 1_555
C5C C29C 1_555 1_555
C6C C9C 1_555 1_555
C12C C19C 1_555 1_555
C15C C17C 1_555 1_555
C16C C19C 1_555 1_555
C20C C27C 1_555 1_555
C24C C25C 1_555 1_555
C25C C26C 1_555 1_555
C28C C29C 1_555 1_555
C3A C18B 1_555 1_555
C5B C29B 1_555 1_555
C12B C19B 1_555 1_555
C13B B1C 1_555 1_555
C15B C17B 1_555 1_555
C16B C19B 1_555 1_555
C20B C27B 1_555 1_555
C24B C25B 1_555 1_555
C25B C26B 1_555 1_555
C28B C29B 1_555 1_555
N1A Fe1_2 1_555 1_555
C1A C18A 1_555 1_555
C5A C29A 1_555 1_555
C6A C9A 1_555 1_555
C12A C19A 1_555 1_555
C15A C17A 1_555 1_555
C16A C19A 1_555 1_555
C20A C27A 1_555 1_555
C24A C25A 1_555 1_555
C25A C26A 1_555 1_555
C28A C29A 1_555 1_555
C11A B2C 1_555 1_555

#END
