
#######################################################################
#
#                 Cambridge Crystallographic Data Centre
#                                CCDC 
#
#######################################################################
#
# If this CIF has been generated from an entry in the Cambridge 
# Structural Database, then it will include bibliographic, chemical, 
# crystal, experimental, refinement or atomic coordinate data resulting 
# from the CCDC's data processing and validation procedures.
#
#######################################################################

data_MOVGUB
_chemical_formula_moiety         '(C36 H40 Eu2 N7 O26 Zn1 1+)n'
_symmetry_cell_setting           monoclinic
_symmetry_space_group_name_H-M   'C 2/c'
_symmetry_Int_Tables_number      15
_space_group_name_Hall           '-C 2yc'
loop_
_symmetry_equiv_pos_site_id
_symmetry_equiv_pos_as_xyz
1 x,y,z
2 -x,y,1/2-z
3 1/2+x,1/2+y,z
4 1/2-x,1/2+y,1/2-z
5 -x,-y,-z
6 x,-y,1/2+z
7 1/2-x,1/2-y,-z
8 1/2+x,1/2-y,1/2+z
_cell_length_a                   17.0712(9)
_cell_length_b                   16.9810(11)
_cell_length_c                   20.3832(10)
_cell_angle_alpha                90
_cell_angle_beta                 108.073(6)
_cell_angle_gamma                90
_cell_volume                     5617.28
loop_
_atom_site_label
_atom_site_type_symbol
_atom_site_fract_x
_atom_site_fract_y
_atom_site_fract_z
O1 O 0.2349(7) 0.7960(8) 0.8324(6)
O2 O 0.2992(12) 0.9000(13) 0.7775(11)
O3 O 0.3453(6) 0.9097(7) 0.6722(5)
N1 N 0.3192(16) 0.8667(19) 0.7184(13)
O4 O 0.2875(13) 0.7994(15) 0.7391(10)
Zn1 Zn 0.5000 0.55994(9) 0.7500
Eu1 Eu 0.49446(2) 0.06227(3) 0.58259(2)
C1 C 0.5128(5) 0.3093(6) 0.6388(4)
C2 C 0.4421(6) 0.3528(6) 0.6261(4)
H1 H 0.3911 0.3303 0.6035
C3 C 0.4475(5) 0.4306(6) 0.6473(4)
C4 C 0.5886(5) 0.4212(6) 0.6951(5)
H2 H 0.6386 0.4444 0.7190
C5 C 0.5887(5) 0.3445(6) 0.6722(4)
H3 H 0.6378 0.3172 0.6788
C6 C 0.3734(5) 0.4821(6) 0.6344(4)
C7 C 0.3011(5) 0.4687(6) 0.5818(4)
H4 H 0.2969 0.4252 0.5532
C8 C 0.2360(5) 0.5184(6) 0.5713(4)
C9 C 0.2451(5) 0.5862(6) 0.6123(4)
H5 H 0.2024 0.6225 0.6050
C10 C 0.3184(5) 0.5979(6) 0.6634(5)
H6 H 0.3248 0.6426 0.6908
C11 C 0.5481(6) 0.6528(6) 0.6366(4)
H7 H 0.5612 0.6041 0.6220
C12 C 0.5496(6) 0.7186(6) 0.5971(4)
H8 H 0.5622 0.7144 0.5560
C13 C 0.5319(5) 0.7901(6) 0.6203(4)
C14 C 0.5117(5) 0.7952(6) 0.6813(5)
H9 H 0.4989 0.8435 0.6970
C15 C 0.5113(5) 0.7279(5) 0.7175(4)
C16 C 0.5277(5) 0.8643(6) 0.5780(5)
C17 C 0.1549(5) 0.4999(6) 0.5176(4)
C18 C 0.5092(5) 0.2242(6) 0.6196(4)
N3 N 0.5196(4) 0.4634(5) 0.6844(4)
N4 N 0.3811(4) 0.5469(5) 0.6750(4)
N5 N 0.5284(4) 0.6567(5) 0.6958(3)
O5 O 0.4401(4) 0.0426(5) 0.6799(3)
H10 H 0.4805 0.0361 0.7192
H11 H 0.4084 0.0002 0.6732
O6 O 0.6139(4) 0.0422(5) 0.6824(3)
H12 H 0.6406 0.0874 0.6966
H13 H 0.6497 0.0086 0.6735
O7 O 0.5710(4) 0.1899(4) 0.6121(3)
O8 O 0.4421(4) 0.1883(4) 0.6108(4)
O9 O 0.1551(4) 0.4570(4) 0.4673(3)
O10 O 0.0898(3) 0.5257(4) 0.5252(3)
O11 O 0.5116(4) 0.9269(4) 0.6049(3)
O12 O 0.5405(4) 0.8589(4) 0.5208(3)
C11A C 0.4519(6) 0.6528(6) 0.8634(4)
H7A H 0.4388 0.6041 0.8780
C12A C 0.4504(6) 0.7186(6) 0.9029(4)
H8A H 0.4378 0.7144 0.9440
C13A C 0.4681(5) 0.7901(6) 0.8797(4)
C14A C 0.4883(5) 0.7952(6) 0.8187(5)
H9A H 0.5011 0.8435 0.8030
C15A C 0.4887(5) 0.7279(5) 0.7825(4)
C16A C 0.4723(5) 0.8643(6) 0.9220(5)
N5A N 0.4716(4) 0.6567(5) 0.8042(3)
O11A O 0.4884(4) 0.9269(4) 0.8951(3)
O12A O 0.4595(4) 0.8589(4) 0.9792(3)
Eu1A Eu 0.50554(2) 0.06227(3) 0.91741(2)
C1A C 0.4872(5) 0.3093(6) 0.8612(4)
C2A C 0.5579(6) 0.3528(6) 0.8739(4)
H1A H 0.6089 0.3303 0.8965
C3A C 0.5525(5) 0.4306(6) 0.8527(4)
C4A C 0.4114(5) 0.4212(6) 0.8049(5)
H2A H 0.3614 0.4444 0.7810
C5A C 0.4113(5) 0.3445(6) 0.8278(4)
H3A H 0.3622 0.3172 0.8212
C6A C 0.6266(5) 0.4821(6) 0.8656(4)
C7A C 0.6989(5) 0.4687(6) 0.9182(4)
H4A H 0.7031 0.4252 0.9468
C8A C 0.7640(5) 0.5184(6) 0.9287(4)
C9A C 0.7549(5) 0.5862(6) 0.8877(4)
H5A H 0.7976 0.6225 0.8950
C10A C 0.6816(5) 0.5979(6) 0.8366(5)
H6A H 0.6752 0.6426 0.8092
C17A C 0.8451(5) 0.4999(6) 0.9824(4)
C18A C 0.4908(5) 0.2242(6) 0.8804(4)
N3A N 0.4804(4) 0.4634(5) 0.8156(4)
N4A N 0.6189(4) 0.5469(5) 0.8250(4)
O5A O 0.5599(4) 0.0426(5) 0.8201(3)
H10A H 0.5195 0.0361 0.7808
H11A H 0.5916 0.0002 0.8268
O6A O 0.3861(4) 0.0422(5) 0.8176(3)
H12A H 0.3594 0.0874 0.8034
H13A H 0.3503 0.0086 0.8265
O7A O 0.4290(4) 0.1899(4) 0.8879(3)
O8A O 0.5579(4) 0.1883(4) 0.8892(4)
O9A O 0.8449(4) 0.4570(4) 1.0327(3)
O10A O 0.9102(3) 0.5257(4) 0.9748(3)
Eu1_2 Eu 0.49446(2) 1.06227(3) 0.58259(2)
Eu1A_2 Eu 0.50554(2) 1.06227(3) 0.91741(2)
Eu1B Eu -0.00554(2) 0.56227(3) 0.58259(2)
Eu1C Eu 1.00554(2) 0.56227(3) 0.91741(2)
Eu1D Eu 0.50554(2) 0.93773(3) 0.41741(2)
Eu1E Eu 0.49446(2) 0.93773(3) 1.08259(2)
Eu1F Eu 0.00554(2) 0.43773(3) 0.41741(2)
Eu1G Eu 0.99446(2) 0.43773(3) 1.08259(2)
O9F O 0.3449(4) 0.0430(4) 0.5327(3)
O9G O 0.6551(4) 0.0430(4) 0.9673(3)
O10B O 0.5898(3) 0.0257(4) 0.5252(3)
O10C O 0.4102(3) 0.0257(4) 0.9748(3)
O10F O 0.4102(3) -0.0257(4) 0.4748(3)
O10G O 0.5898(3) -0.0257(4) 1.0252(3)
O11_2 O 0.5116(4) -0.0731(4) 0.6049(3)
O11A_2 O 0.4884(4) -0.0731(4) 0.8951(3)
O12D O 0.4595(4) 0.1411(4) 0.4792(3)
O12E O 0.5405(4) 0.1411(4) 1.0208(3)
O13 O 0.1882(7) 0.3613(8) 0.2927(4)
O14 O 0.4215(7) 0.5448(8) 0.4827(5)
O15 O 0.3592(5) 0.7112(7) 0.4757(4)
O16 O 0.3149(16) 0.7877(17) 0.5797(11)
O18 O 0.2845(12) 0.4719(15) 0.3976(9)
O20 O 0.3040(7) 0.2347(10) 0.4686(6)
loop_
_geom_bond_atom_site_label_1
_geom_bond_atom_site_label_2
_geom_bond_site_symmetry_1
_geom_bond_site_symmetry_2
O2 N1 1_555 1_555
O3 N1 1_555 1_555
N1 O4 1_555 1_555
Zn1 N3 1_555 1_555
Eu1 O5 1_555 1_555
C1 C2 1_555 1_555
C2 H1 1_555 1_555
C3 C2 1_555 1_555
C4 H2 1_555 1_555
C5 C1 1_555 1_555
H3 C5 1_555 1_555
C6 C3 1_555 1_555
C7 C6 1_555 1_555
H4 C7 1_555 1_555
C8 C7 1_555 1_555
C9 C8 1_555 1_555
H5 C9 1_555 1_555
C10 C9 1_555 1_555
H6 C10 1_555 1_555
C11 H7 1_555 1_555
C12 C11 1_555 1_555
H8 C12 1_555 1_555
C13 C12 1_555 1_555
C14 C13 1_555 1_555
H9 C14 1_555 1_555
C15 C14 1_555 1_555
C16 C13 1_555 1_555
C17 C8 1_555 1_555
C18 C1 1_555 1_555
N3 C3 1_555 1_555
N4 Zn1 1_555 1_555
N5 Zn1 1_555 1_555
O5 H10 1_555 1_555
H11 O5 1_555 1_555
O6 Eu1 1_555 1_555
H12 O6 1_555 1_555
H13 O6 1_555 1_555
O7 Eu1 1_555 1_555
O8 Eu1 1_555 1_555
O9 C17 1_555 1_555
O10 C17 1_555 1_555
O11 C16 1_555 1_555
O12 C16 1_555 1_555
C11A H7A 1_555 1_555
C12A C11A 1_555 1_555
H8A C12A 1_555 1_555
C13A C12A 1_555 1_555
C14A C13A 1_555 1_555
H9A C14A 1_555 1_555
C15A C15 1_555 1_555
C16A C13A 1_555 1_555
N5A Zn1 1_555 1_555
O11A C16A 1_555 1_555
O12A C16A 1_555 1_555
Eu1A O5A 1_555 1_555
C1A C2A 1_555 1_555
C2A H1A 1_555 1_555
C3A C2A 1_555 1_555
C4A H2A 1_555 1_555
C5A C1A 1_555 1_555
H3A C5A 1_555 1_555
C6A C3A 1_555 1_555
C7A C6A 1_555 1_555
H4A C7A 1_555 1_555
C8A C7A 1_555 1_555
C9A C8A 1_555 1_555
H5A C9A 1_555 1_555
C10A C9A 1_555 1_555
H6A C10A 1_555 1_555
C17A C8A 1_555 1_555
C18A C1A 1_555 1_555
N3A Zn1 1_555 1_555
N4A Zn1 1_555 1_555
O5A H10A 1_555 1_555
H11A O5A 1_555 1_555
O6A Eu1A 1_555 1_555
H12A O6A 1_555 1_555
H13A O6A 1_555 1_555
O7A Eu1A 1_555 1_555
O8A Eu1A 1_555 1_555
O9A C17A 1_555 1_555
O10A C17A 1_555 1_555
Eu1_2 O11 1_555 1_555
Eu1A_2 O11A 1_555 1_555
Eu1B O10 1_555 1_555
Eu1C O10A 1_555 1_555
Eu1D O12 1_555 1_555
Eu1E O12A 1_555 1_555
Eu1F O9 1_555 1_555
Eu1G O9A 1_555 1_555
O9F Eu1 1_555 1_555
O9G Eu1A 1_555 1_555
O10B Eu1 1_555 1_555
O10C Eu1A 1_555 1_555
O10F Eu1 1_555 1_555
O10G Eu1A 1_555 1_555
O11_2 Eu1 1_555 1_555
O11A_2 Eu1A 1_555 1_555
O12D Eu1 1_555 1_555
O12E Eu1A 1_555 1_555
C4 C5 1_555 1_555
C4 N3 1_555 1_555
C6 N4 1_555 1_555
C10 N4 1_555 1_555
C11 N5 1_555 1_555
C15 N5 1_555 1_555
C18 O7 1_555 1_555
C18 O8 1_555 1_555
O10 Eu1F 1_555 1_555
C11A N5A 1_555 1_555
C14A C15A 1_555 1_555
C15A N5A 1_555 1_555
C3A N3A 1_555 1_555
C4A C5A 1_555 1_555
C4A N3A 1_555 1_555
C6A N4A 1_555 1_555
C10A N4A 1_555 1_555
C18A O7A 1_555 1_555
C18A O8A 1_555 1_555
O10A Eu1G 1_555 1_555

#END
