
#######################################################################
#
#                 Cambridge Crystallographic Data Centre
#                                CCDC 
#
#######################################################################
#
# If this CIF has been generated from an entry in the Cambridge 
# Structural Database, then it will include bibliographic, chemical, 
# crystal, experimental, refinement or atomic coordinate data resulting 
# from the CCDC's data processing and validation procedures.
#
#######################################################################

data_JIZJIN
_chemical_formula_moiety         '(C30 H24 Co3 N2 O10)n'
_symmetry_cell_setting           tetragonal
_symmetry_space_group_name_H-M   'P -4 c 2'
_symmetry_Int_Tables_number      116
_space_group_name_Hall           'P -4 -2c'
loop_
_symmetry_equiv_pos_site_id
_symmetry_equiv_pos_as_xyz
1 x,y,z
2 -x,-y,z
3 y,-x,-z
4 -y,x,-z
5 x,-y,1/2+z
6 -x,y,1/2+z
7 y,x,1/2-z
8 -y,-x,1/2-z
_cell_length_a                   17.5748(10)
_cell_length_b                   17.5748(10)
_cell_length_c                   15.2896(18)
_cell_angle_alpha                90
_cell_angle_beta                 90
_cell_angle_gamma                90
_cell_volume                     4722.55
loop_
_atom_site_label
_atom_site_type_symbol
_atom_site_fract_x
_atom_site_fract_y
_atom_site_fract_z
Co1 Co 0.85975(3) 0.89481(3) -0.03220(4)
Co2 Co 0.85009(3) 0.85009(3) -0.2500
O1 O 0.86140(17) 0.77964(16) -0.0538(2)
C1 C 0.8592(2) 0.7329(2) -0.1154(3)
O2 O 0.85126(18) 0.74848(15) -0.1950(2)
O3 O 0.85963(14) 0.92346(14) -0.15830(15)
C2 C 0.8829(3) 0.4969(2) -0.0507(3)
C3 C 0.8673(2) 0.6510(2) -0.0937(3)
C4 C 0.8733(2) 1.0472(2) -0.0939(3)
O4 O 0.87495(14) 1.01217(15) -0.02192(18)
C5 C 0.8582(3) 1.0012(2) -0.1766(3)
H1 H 0.8990 1.0122 -0.2185
C6 C 0.8677(3) 0.5957(3) -0.1575(4)
H2 H 0.8632 0.6096 -0.2159
C7 C 0.8752(3) 0.6278(3) -0.0087(3)
H3 H 0.8759 0.6642 0.0354
C8 C 0.8749(3) 0.5190(3) -0.1354(3)
H4 H 0.8743 0.4824 -0.1793
C9 C 0.9239(3) 0.3636(2) -0.0809(3)
H5 H 0.9467 0.3802 -0.1324
C10 C 0.8631(3) 0.3084(3) 0.0640(3)
H6 H 0.8403 0.2903 0.1147
C11 C 0.8886(3) 0.4143(2) -0.0278(3)
C12 C 0.8603(3) 0.3857(3) 0.0477(4)
H7 H 0.8389 0.4182 0.0889
C13 C 0.9262(3) 0.2877(3) -0.0591(3)
H8 H 0.9506 0.2546 -0.0973
C14 C 0.8823(3) 0.5516(3) 0.0134(3)
H9 H 0.8868 0.5375 0.0718
C15 C 0.7848(4) 1.0267(3) -0.2156(4)
H10 H 0.7748 0.9981 -0.2679
H11 H 0.7878 1.0799 -0.2296
H12 H 0.7444 1.0185 -0.1744
N1 N 0.8961(2) 0.25904(19) 0.0119(2)
O5 O 0.88204(19) 1.11728(16) -0.09869(18)
Co1B Co 0.89481(3) 0.14025(3) 0.03220(4)
O1B O 0.77964(16) 0.13860(17) 0.0538(2)
C1B C 0.7329(2) 0.1408(2) 0.1154(3)
O2B O 0.74848(15) 0.14874(18) 0.1950(2)
O3B O 0.92346(14) 0.14037(14) 0.15830(15)
C2B C 0.4969(2) 0.1171(3) 0.0507(3)
C3B C 0.6510(2) 0.1327(2) 0.0937(3)
C4B C 1.0472(2) 0.1267(2) 0.0939(3)
O4B O 1.01217(15) 0.12505(14) 0.02192(18)
C5B C 1.0012(2) 0.1418(3) 0.1766(3)
H1B H 1.0122 0.1010 0.2185
C6B C 0.5957(3) 0.1323(3) 0.1575(4)
H2B H 0.6096 0.1368 0.2159
C7B C 0.6278(3) 0.1248(3) 0.0087(3)
H3B H 0.6642 0.1241 -0.0354
C8B C 0.5190(3) 0.1251(3) 0.1354(3)
H4B H 0.4824 0.1257 0.1793
C9B C 0.3636(2) 0.0761(3) 0.0809(3)
H5B H 0.3802 0.0533 0.1324
C10B C 0.3084(3) 0.1369(3) -0.0640(3)
H6B H 0.2903 0.1597 -0.1147
C11B C 0.4143(2) 0.1114(3) 0.0278(3)
C12B C 0.3857(3) 0.1397(3) -0.0477(4)
H7B H 0.4182 0.1611 -0.0889
C13B C 0.2877(3) 0.0738(3) 0.0591(3)
H8B H 0.2546 0.0494 0.0973
C14B C 0.5516(3) 0.1177(3) -0.0134(3)
H9B H 0.5375 0.1132 -0.0718
C15B C 1.0267(3) 0.2152(4) 0.2156(4)
H10B H 0.9981 0.2252 0.2679
H11B H 1.0799 0.2122 0.2296
H12B H 1.0185 0.2556 0.1744
N1B N 0.25904(19) 0.1039(2) -0.0119(2)
O5B O 1.11728(16) 0.11796(19) 0.09869(18)
Co1A Co 0.14025(3) 0.10519(3) -0.03220(4)
Co1A_2 Co 1.14025(3) 0.10519(3) -0.03220(4)
Co1B_2 Co 0.89481(3) 1.14025(3) 0.03220(4)
Co2B Co 0.85009(3) 0.14991(3) 0.2500
O2F O 0.74848(15) 0.85126(18) -0.3050(2)
O3F O 0.92346(14) 0.85963(14) -0.34170(15)
O4_2 O 0.87495(14) 0.01217(15) -0.02192(18)
O4C O 0.98783(15) 0.87495(14) 0.02192(18)
N1C N 0.74096(19) 0.8961(2) -0.0119(2)
O5_2 O 0.88204(19) 0.11728(16) -0.09869(18)
O5C O 0.88272(16) 0.88204(19) 0.09869(18)
loop_
_geom_bond_atom_site_label_1
_geom_bond_atom_site_label_2
_geom_bond_site_symmetry_1
_geom_bond_site_symmetry_2
Co1 O1 1_555 1_555
Co2 O2 1_555 1_555
O1 C1 1_555 1_555
C1 O2 1_555 1_555
O3 Co1 1_555 1_555
C2 C8 1_555 1_555
C3 C1 1_555 1_555
C4 O4 1_555 1_555
O4 Co1 1_555 1_555
C5 O3 1_555 1_555
H1 C5 1_555 1_555
C6 C3 1_555 1_555
H2 C6 1_555 1_555
C7 C3 1_555 1_555
H3 C7 1_555 1_555
C8 C6 1_555 1_555
H4 C8 1_555 1_555
C9 H5 1_555 1_555
C10 H6 1_555 1_555
C11 C2 1_555 1_555
C12 C10 1_555 1_555
H7 C12 1_555 1_555
C13 C9 1_555 1_555
H8 C13 1_555 1_555
C14 C2 1_555 1_555
H9 C14 1_555 1_555
C15 C5 1_555 1_555
H10 C15 1_555 1_555
H11 C15 1_555 1_555
H12 C15 1_555 1_555
N1 C10 1_555 1_555
O5 C4 1_555 1_555
Co1B N1 1_555 1_555
O1B Co1B 1_555 1_555
C1B O1B 1_555 1_555
O2B C1B 1_555 1_555
O3B Co1B 1_555 1_555
C2B C8B 1_555 1_555
C3B C1B 1_555 1_555
C4B O4B 1_555 1_555
O4B Co1B 1_555 1_555
C5B O3B 1_555 1_555
H1B C5B 1_555 1_555
C6B C3B 1_555 1_555
H2B C6B 1_555 1_555
C7B C3B 1_555 1_555
H3B C7B 1_555 1_555
C8B C6B 1_555 1_555
H4B C8B 1_555 1_555
C9B H5B 1_555 1_555
C10B H6B 1_555 1_555
C11B C2B 1_555 1_555
C12B C10B 1_555 1_555
H7B C12B 1_555 1_555
C13B C9B 1_555 1_555
H8B C13B 1_555 1_555
C14B C2B 1_555 1_555
H9B C14B 1_555 1_555
C15B C5B 1_555 1_555
H10B C15B 1_555 1_555
H11B C15B 1_555 1_555
H12B C15B 1_555 1_555
N1B C10B 1_555 1_555
O5B C4B 1_555 1_555
Co1A N1B 1_555 1_555
Co1A_2 O4B 1_555 1_555
Co1B_2 O4 1_555 1_555
Co2B O2B 1_555 1_555
O2F Co2 1_555 1_555
O3F Co2 1_555 1_555
O4_2 Co1B 1_555 1_555
O4C Co1 1_555 1_555
N1C Co1 1_555 1_555
O5_2 Co1B 1_555 1_555
O5C Co1 1_555 1_555
Co2 O3 1_555 1_555
C4 C5 1_555 1_555
C7 C14 1_555 1_555
C9 C11 1_555 1_555
C11 C12 1_555 1_555
C13 N1 1_555 1_555
O5 Co1B_2 1_555 1_555
O3B Co2B 1_555 1_555
C4B C5B 1_555 1_555
C7B C14B 1_555 1_555
C9B C11B 1_555 1_555
C11B C12B 1_555 1_555
C13B N1B 1_555 1_555
O5B Co1A_2 1_555 1_555

#END
