
#######################################################################
#
#                 Cambridge Crystallographic Data Centre
#                                CCDC 
#
#######################################################################
#
# If this CIF has been generated from an entry in the Cambridge 
# Structural Database, then it will include bibliographic, chemical, 
# crystal, experimental, refinement or atomic coordinate data resulting 
# from the CCDC's data processing and validation procedures.
#
#######################################################################

data_JIZJAF
_chemical_formula_moiety         '(C36 H38 Co3 N4 O12)n'
_symmetry_cell_setting           tetragonal
_symmetry_space_group_name_H-M   'P -4 c 2'
_symmetry_Int_Tables_number      116
_space_group_name_Hall           'P -4 -2c'
loop_
_symmetry_equiv_pos_site_id
_symmetry_equiv_pos_as_xyz
1 x,y,z
2 -x,-y,z
3 y,-x,-z
4 -y,x,-z
5 x,-y,1/2+z
6 -x,y,1/2+z
7 y,x,1/2-z
8 -y,-x,1/2-z
_cell_length_a                   17.5207(10)
_cell_length_b                   17.5207(10)
_cell_length_c                   15.1261(18)
_cell_angle_alpha                90
_cell_angle_beta                 90
_cell_angle_gamma                90
_cell_volume                     4643.33
loop_
_atom_site_label
_atom_site_type_symbol
_atom_site_fract_x
_atom_site_fract_y
_atom_site_fract_z
Co1 Co -0.10067(3) -0.85907(3) -0.03067(4)
Co2 Co -0.14836(3) -0.85164(3) -0.2500
C1 C 0.0507(3) -0.8745(3) -0.0974(3)
C2 C 0.0045(3) -0.8541(3) -0.1776(3)
H1 H 0.0176 -0.8902 -0.2265
C3 C 0.0266(3) -0.7736(5) -0.2054(4)
H2 H -0.0010 -0.7598 -0.2595
H3 H 0.0817 -0.7714 -0.2165
H4 H 0.0134 -0.7377 -0.1582
C4 C -0.2646(3) -0.8590(2) -0.1112(4)
C5 C -0.3475(3) -0.8690(3) -0.0891(4)
C6 C -0.3693(3) -0.8790(4) -0.0028(4)
H5 H -0.3320 -0.8785 0.0427
C7 C -0.4454(3) -0.8899(4) 0.0182(3)
H6 H -0.4596 -0.8994 0.0778
C8 C -0.5019(3) -0.8870(3) -0.0479(3)
C9 C -0.4788(3) -0.8759(3) -0.1347(4)
H7 H -0.5160 -0.8742 -0.1803
C10 C -0.4021(3) -0.8672(3) -0.1558(4)
H8 H -0.3870 -0.8600 -0.2156
C11 C -0.5840(3) -0.8945(3) -0.0252(3)
C12 C -0.6344(3) -0.9303(3) -0.0819(4)
H9 H -0.6164 -0.9537 -0.1346
C13 C -0.7115(3) -0.9319(3) -0.0613(3)
H10 H -0.7456 -0.9549 -0.1022
C14 C -0.6908(3) -0.8700(4) 0.0687(4)
H11 H -0.7099 -0.8490 0.1222
C15 C -0.6134(3) -0.8653(4) 0.0520(4)
H12 H -0.5805 -0.8419 0.0939
N1 N -0.7400(2) -0.9029(2) 0.0128(3)
O1 O 0.12163(19) -0.8865(2) -0.1036(2)
O2 O 0.01782(17) -0.87777(17) -0.0228(2)
O3 O -0.07415(17) -0.86051(18) -0.1585(2)
O4 O -0.24901(19) -0.8519(2) -0.1930(2)
O5 O -0.21725(19) -0.85812(19) -0.0489(2)
Co1B Co -0.85907(3) -0.89933(3) 0.03067(4)
C1B C -0.8745(3) -1.0507(3) 0.0974(3)
C2B C -0.8541(3) -1.0045(3) 0.1776(3)
H1B H -0.8902 -1.0176 0.2265
C3B C -0.7736(5) -1.0266(3) 0.2054(4)
H2B H -0.7598 -0.9990 0.2595
H3B H -0.7714 -1.0817 0.2165
H4B H -0.7377 -1.0134 0.1582
C4B C -0.8590(2) -0.7354(3) 0.1112(4)
C5B C -0.8690(3) -0.6525(3) 0.0891(4)
C6B C -0.8790(4) -0.6307(3) 0.0028(4)
H5B H -0.8785 -0.6680 -0.0427
C7B C -0.8899(4) -0.5546(3) -0.0182(3)
H6B H -0.8994 -0.5404 -0.0778
C8B C -0.8870(3) -0.4981(3) 0.0479(3)
C9B C -0.8759(3) -0.5212(3) 0.1347(4)
H7B H -0.8742 -0.4840 0.1803
C10B C -0.8672(3) -0.5979(3) 0.1558(4)
H8B H -0.8600 -0.6130 0.2156
C11B C -0.8945(3) -0.4160(3) 0.0252(3)
C12B C -0.9303(3) -0.3656(3) 0.0819(4)
H9B H -0.9537 -0.3836 0.1346
C13B C -0.9319(3) -0.2885(3) 0.0613(3)
H10B H -0.9549 -0.2544 0.1022
C14B C -0.8700(4) -0.3092(3) -0.0687(4)
H11B H -0.8490 -0.2901 -0.1222
C15B C -0.8653(4) -0.3866(3) -0.0520(4)
H12B H -0.8419 -0.4195 -0.0939
N1B N -0.9029(2) -0.2600(2) -0.0128(3)
O1B O -0.8865(2) -1.12163(19) 0.1036(2)
O2B O -0.87777(17) -1.01782(17) 0.0228(2)
O3B O -0.86051(18) -0.92585(17) 0.1585(2)
O4B O -0.8519(2) -0.75099(19) 0.1930(2)
O5B O -0.85812(19) -0.78275(19) 0.0489(2)
Co1A Co -0.89933(3) -1.14093(3) -0.03067(4)
Co1A_2 Co -0.89933(3) -0.14093(3) -0.03067(4)
Co1B_2 Co 0.14093(3) -0.89933(3) 0.03067(4)
Co2B Co -0.85164(3) -0.85164(3) 0.2500
N1C N -0.0971(2) -0.7400(2) -0.0128(3)
O1_2 O -0.87837(19) -0.8865(2) -0.1036(2)
O1C O -0.1135(2) -0.87837(19) 0.1036(2)
O2_2 O -0.98218(17) -0.87777(17) -0.0228(2)
O2C O -0.12223(17) -0.98218(17) 0.0228(2)
O3G O -0.13949(18) -0.92585(17) -0.3415(2)
O4G O -0.1481(2) -0.75099(19) -0.3070(2)
O6 O -0.5243(16) -0.2279(16) 0.1802(18)
N2 N -0.6384(16) -0.2135(19) 0.275(2)
C16 C -0.586(2) -0.195(2) 0.210(3)
C17 C -0.615(2) -0.151(2) 0.339(3)
C18 C -0.7190(17) -0.248(2) 0.276(3)
O6G O -0.7721(16) -0.4757(16) 0.3198(18)
N2G N -0.7865(19) -0.3616(16) 0.225(2)
C16G C -0.805(2) -0.414(2) 0.290(3)
C17G C -0.849(2) -0.385(2) 0.161(3)
C18G C -0.752(2) -0.2810(17) 0.224(3)
loop_
_geom_bond_atom_site_label_1
_geom_bond_atom_site_label_2
_geom_bond_site_symmetry_1
_geom_bond_site_symmetry_2
Co1 O2 1_555 1_555
Co2 O3 1_555 1_555
C1 C2 1_555 1_555
C2 H1 1_555 1_555
C3 C2 1_555 1_555
H2 C3 1_555 1_555
H3 C3 1_555 1_555
H4 C3 1_555 1_555
C4 C5 1_555 1_555
C5 C6 1_555 1_555
C6 H5 1_555 1_555
C7 C6 1_555 1_555
H6 C7 1_555 1_555
C8 C7 1_555 1_555
C9 C8 1_555 1_555
H7 C9 1_555 1_555
C10 C5 1_555 1_555
H8 C10 1_555 1_555
C11 C8 1_555 1_555
C12 C11 1_555 1_555
H9 C12 1_555 1_555
C13 C12 1_555 1_555
H10 C13 1_555 1_555
C14 H11 1_555 1_555
C15 C11 1_555 1_555
H12 C15 1_555 1_555
N1 C13 1_555 1_555
O1 C1 1_555 1_555
O2 C1 1_555 1_555
O3 Co1 1_555 1_555
O4 Co2 1_555 1_555
O5 Co1 1_555 1_555
O6 C16 1_555 1_555
N2 C16 1_555 1_555
C17 N2 1_555 1_555
C18 N2 1_555 1_555
Co1B N1 1_555 1_555
C1B C2B 1_555 1_555
C2B H1B 1_555 1_555
C3B C2B 1_555 1_555
H2B C3B 1_555 1_555
H3B C3B 1_555 1_555
H4B C3B 1_555 1_555
C4B C5B 1_555 1_555
C5B C6B 1_555 1_555
C6B H5B 1_555 1_555
C7B C6B 1_555 1_555
H6B C7B 1_555 1_555
C8B C7B 1_555 1_555
C9B C8B 1_555 1_555
H7B C9B 1_555 1_555
C10B C5B 1_555 1_555
H8B C10B 1_555 1_555
C11B C8B 1_555 1_555
C12B C11B 1_555 1_555
H9B C12B 1_555 1_555
C13B C12B 1_555 1_555
H10B C13B 1_555 1_555
C14B H11B 1_555 1_555
C15B C11B 1_555 1_555
H12B C15B 1_555 1_555
N1B C13B 1_555 1_555
O1B C1B 1_555 1_555
O2B Co1B 1_555 1_555
O3B Co1B 1_555 1_555
O4B C4B 1_555 1_555
O5B Co1B 1_555 1_555
Co1A O1B 1_555 1_555
Co1A_2 N1B 1_555 1_555
Co1B_2 O1 1_555 1_555
Co2B O3B 1_555 1_555
N1C Co1 1_555 1_555
O1_2 Co1B 1_555 1_555
O1C Co1 1_555 1_555
O2_2 Co1B 1_555 1_555
O2C Co1 1_555 1_555
O3G Co2 1_555 1_555
O4G Co2 1_555 1_555
O6G C16G 1_555 1_555
N2G C16G 1_555 1_555
C17G N2G 1_555 1_555
C18G N2G 1_555 1_555
C2 O3 1_555 1_555
C4 O4 1_555 1_555
C4 O5 1_555 1_555
C9 C10 1_555 1_555
C14 C15 1_555 1_555
C14 N1 1_555 1_555
O2 Co1B_2 1_555 1_555
C1B O2B 1_555 1_555
C2B O3B 1_555 1_555
C4B O5B 1_555 1_555
C9B C10B 1_555 1_555
C14B C15B 1_555 1_555
C14B N1B 1_555 1_555
O2B Co1A 1_555 1_555
O4B Co2B 1_555 1_555

#END
