
#######################################################################
#
#                 Cambridge Crystallographic Data Centre
#                                CCDC 
#
#######################################################################
#
# If this CIF has been generated from an entry in the Cambridge 
# Structural Database, then it will include bibliographic, chemical, 
# crystal, experimental, refinement or atomic coordinate data resulting 
# from the CCDC's data processing and validation procedures.
#
#######################################################################

data_JIZJUZ
_chemical_formula_moiety         '(C36 H30 Co3 N2 O10)n'
_symmetry_cell_setting           tetragonal
_symmetry_space_group_name_H-M   'P -4 c 2'
_symmetry_Int_Tables_number      116
_space_group_name_Hall           'P -4 -2c'
loop_
_symmetry_equiv_pos_site_id
_symmetry_equiv_pos_as_xyz
1 x,y,z
2 -x,-y,z
3 y,-x,-z
4 -y,x,-z
5 x,-y,1/2+z
6 -x,y,1/2+z
7 y,x,1/2-z
8 -y,-x,1/2-z
_cell_length_a                   17.5310(9)
_cell_length_b                   17.5310(9)
_cell_length_c                   15.0883(15)
_cell_angle_alpha                90
_cell_angle_beta                 90
_cell_angle_gamma                90
_cell_volume                     4637.18
loop_
_atom_site_label
_atom_site_type_symbol
_atom_site_fract_x
_atom_site_fract_y
_atom_site_fract_z
Co1 Co 0.35919(2) 0.40050(2) 0.02995(3)
Co2 Co 0.35121(2) 0.35121(2) 0.2500
O1 O 0.35061(13) 0.25100(13) 0.19172(16)
O2 O 0.35630(13) 0.28276(13) 0.04659(15)
O3 O 0.38737(14) 0.62209(13) 0.10577(14)
O4 O 0.35946(12) 0.42580(12) 0.15839(13)
O5 O 0.37760(12) 0.51929(11) 0.02308(13)
C1 C 0.3844(2) 0.0539(2) -0.0226(2)
H1 H 0.3905 0.0395 -0.0829
C2 C 0.3664(2) 0.15294(18) 0.0869(2)
C3 C 0.35661(16) 0.23523(17) 0.1098(2)
C4 C 0.3542(2) 0.50389(19) 0.1798(2)
H2 H 0.3902 0.5158 0.2294
C5 C 0.37585(19) 0.55159(18) 0.09771(19)
C6 C 0.38622(19) -0.00141(18) 0.0439(2)
C7 C 0.3738(3) 0.1300(2) -0.0007(2)
H3 H 0.3716 0.1671 -0.0465
C8 C 0.3696(2) -0.1916(2) -0.0687(2)
H4 H 0.3489 -0.2112 -0.1222
C9 C 0.3680(2) 0.09901(19) 0.1544(3)
H5 H 0.3632 0.1141 0.2146
C10 C 0.39443(19) -0.08342(19) 0.0231(2)
C11 C 0.3772(2) 0.02070(19) 0.1316(2)
H6 H 0.3771 -0.0169 0.1770
C12 C 0.4321(2) -0.13322(18) 0.0791(2)
H7 H 0.4557 -0.1147 0.1316
C13 C 0.43553(19) -0.21006(18) 0.0587(2)
H8 H 0.4617 -0.2431 0.0983
C14 C 0.3624(3) -0.1151(2) -0.0524(3)
H9 H 0.3355 -0.0837 -0.0930
C15 C 0.2735(3) 0.5267(2) 0.2066(3)
H10 H 0.2580 0.4974 0.2589
H11 H 0.2384 0.5159 0.1576
H12 H 0.2722 0.5813 0.2203
N1 N 0.40399(15) -0.24015(15) -0.01358(16)
Co1B Co 0.40050(2) -0.35919(2) -0.02995(3)
O1B O 0.25100(13) -0.35061(13) -0.19172(16)
O2B O 0.28276(13) -0.35630(13) -0.04659(15)
O3B O 0.62209(13) -0.38737(14) -0.10577(14)
O4B O 0.42580(12) -0.35946(12) -0.15839(13)
O5B O 0.51929(11) -0.37760(12) -0.02308(13)
C1B C 0.0539(2) -0.3844(2) 0.0226(2)
H1B H 0.0395 -0.3905 0.0829
C2B C 0.15294(18) -0.3664(2) -0.0869(2)
C3B C 0.23523(17) -0.35661(16) -0.1098(2)
C4B C 0.50389(19) -0.3542(2) -0.1798(2)
H2B H 0.5158 -0.3902 -0.2294
C5B C 0.55159(18) -0.37585(19) -0.09771(19)
C6B C -0.00141(18) -0.38622(19) -0.0439(2)
C7B C 0.1300(2) -0.3738(3) 0.0007(2)
H3B H 0.1671 -0.3716 0.0465
C8B C -0.1916(2) -0.3696(2) 0.0687(2)
H4B H -0.2112 -0.3489 0.1222
C9B C 0.09901(19) -0.3680(2) -0.1544(3)
H5B H 0.1141 -0.3632 -0.2146
C10B C -0.08342(19) -0.39443(19) -0.0231(2)
C11B C 0.02070(19) -0.3772(2) -0.1316(2)
H6B H -0.0169 -0.3771 -0.1770
C12B C -0.13322(18) -0.4321(2) -0.0791(2)
H7B H -0.1147 -0.4557 -0.1316
C13B C -0.21006(18) -0.43553(19) -0.0587(2)
H8B H -0.2431 -0.4617 -0.0983
C14B C -0.1151(2) -0.3624(3) 0.0524(3)
H9B H -0.0837 -0.3355 0.0930
C15B C 0.5267(2) -0.2735(3) -0.2066(3)
H10B H 0.4974 -0.2580 -0.2589
H11B H 0.5159 -0.2384 -0.1576
H12B H 0.5813 -0.2722 -0.2203
N1B N -0.24015(15) -0.40399(15) 0.01358(16)
Co1A Co -0.35919(2) -0.40050(2) 0.02995(3)
Co1A_2 Co 0.64081(2) -0.40050(2) 0.02995(3)
Co1B_2 Co 0.40050(2) 0.64081(2) -0.02995(3)
Co2B Co 0.35121(2) -0.35121(2) -0.2500
O1F O 0.25100(13) 0.35061(13) 0.30828(16)
O3_2 O 0.38737(14) -0.37791(13) 0.10577(14)
O3C O 0.37791(13) 0.38737(14) -0.10577(14)
O4F O 0.42580(12) 0.35946(12) 0.34161(13)
O5_2 O 0.37760(12) -0.48071(11) 0.02308(13)
O5C O 0.48071(11) 0.37760(12) -0.02308(13)
N1C N 0.24015(15) 0.40399(15) 0.01358(16)
C16 C 0.1840(8) 0.2099(9) -0.0460(7)
H13 H 0.2301 0.2358 -0.0597
C17 C 0.1273(7) 0.2068(8) -0.1113(9)
H14 H 0.1263 0.2220 -0.1718
C18 C 0.0724(11) 0.1734(9) -0.0560(7)
H15 H 0.0260 0.1614 -0.0855
C19 C 0.0722(9) 0.1538(11) 0.0362(8)
H16 H 0.0234 0.1372 0.0556
C20 C 0.1262(8) 0.1529(13) 0.1049(9)
H17 H 0.1278 0.1416 0.1665
C21 C 0.1769(13) 0.1768(12) 0.0384(10)
H18 H 0.2270 0.1663 0.0590
loop_
_geom_bond_atom_site_label_1
_geom_bond_atom_site_label_2
_geom_bond_site_symmetry_1
_geom_bond_site_symmetry_2
Co1 O2 1_555 1_555
Co2 O1 1_555 1_555
O1 C3 1_555 1_555
O2 C3 1_555 1_555
O3 C5 1_555 1_555
O4 Co1 1_555 1_555
O5 Co1 1_555 1_555
C1 H1 1_555 1_555
C2 C3 1_555 1_555
C4 O4 1_555 1_555
H2 C4 1_555 1_555
C5 O5 1_555 1_555
C6 C1 1_555 1_555
C7 C1 1_555 1_555
H3 C7 1_555 1_555
C8 H4 1_555 1_555
C9 C2 1_555 1_555
H5 C9 1_555 1_555
C10 C6 1_555 1_555
C11 C6 1_555 1_555
H6 C11 1_555 1_555
C12 C10 1_555 1_555
H7 C12 1_555 1_555
C13 C12 1_555 1_555
H8 C13 1_555 1_555
C14 C8 1_555 1_555
H9 C14 1_555 1_555
C15 C4 1_555 1_555
H10 C15 1_555 1_555
H11 C15 1_555 1_555
H12 C15 1_555 1_555
N1 C8 1_555 1_555
C16 H13 1_555 1_555
C17 C16 1_555 1_555
H14 C17 1_555 1_555
C18 C17 1_555 1_555
H15 C18 1_555 1_555
C19 C18 1_555 1_555
H16 C19 1_555 1_555
C20 C19 1_555 1_555
H17 C20 1_555 1_555
C21 C16 1_555 1_555
H18 C21 1_555 1_555
Co1B N1 1_555 1_555
O1B C3B 1_555 1_555
O2B Co1B 1_555 1_555
O3B C5B 1_555 1_555
O4B Co1B 1_555 1_555
O5B Co1B 1_555 1_555
C1B H1B 1_555 1_555
C2B C3B 1_555 1_555
C3B O2B 1_555 1_555
C4B O4B 1_555 1_555
H2B C4B 1_555 1_555
C5B O5B 1_555 1_555
C6B C1B 1_555 1_555
C7B C1B 1_555 1_555
H3B C7B 1_555 1_555
C8B H4B 1_555 1_555
C9B C2B 1_555 1_555
H5B C9B 1_555 1_555
C10B C6B 1_555 1_555
C11B C6B 1_555 1_555
H6B C11B 1_555 1_555
C12B C10B 1_555 1_555
H7B C12B 1_555 1_555
C13B C12B 1_555 1_555
H8B C13B 1_555 1_555
C14B C8B 1_555 1_555
H9B C14B 1_555 1_555
C15B C4B 1_555 1_555
H10B C15B 1_555 1_555
H11B C15B 1_555 1_555
H12B C15B 1_555 1_555
N1B C8B 1_555 1_555
Co1A N1B 1_555 1_555
Co1A_2 O3B 1_555 1_555
Co1B_2 O3 1_555 1_555
Co2B O1B 1_555 1_555
O1F Co2 1_555 1_555
O3_2 Co1B 1_555 1_555
O3C Co1 1_555 1_555
O4F Co2 1_555 1_555
O5_2 Co1B 1_555 1_555
O5C Co1 1_555 1_555
N1C Co1 1_555 1_555
Co2 O4 1_555 1_555
O5 Co1B_2 1_555 1_555
C2 C7 1_555 1_555
C4 C5 1_555 1_555
C9 C11 1_555 1_555
C10 C14 1_555 1_555
C13 N1 1_555 1_555
C20 C21 1_555 1_555
O4B Co2B 1_555 1_555
O5B Co1A_2 1_555 1_555
C2B C7B 1_555 1_555
C4B C5B 1_555 1_555
C9B C11B 1_555 1_555
C10B C14B 1_555 1_555
C13B N1B 1_555 1_555

#END
