
#######################################################################
#
#                 Cambridge Crystallographic Data Centre
#                                CCDC 
#
#######################################################################
#
# If this CIF has been generated from an entry in the Cambridge 
# Structural Database, then it will include bibliographic, chemical, 
# crystal, experimental, refinement or atomic coordinate data resulting 
# from the CCDC's data processing and validation procedures.
#
#######################################################################

data_MATPOP
_chemical_formula_moiety         '(C24 H20 Cl1 N4 O12 Tb1 Zn1)n'
_symmetry_cell_setting           monoclinic
_symmetry_space_group_name_H-M   'C 2/c'
_symmetry_Int_Tables_number      15
_space_group_name_Hall           '-C 2yc'
loop_
_symmetry_equiv_pos_site_id
_symmetry_equiv_pos_as_xyz
1 x,y,z
2 -x,y,1/2-z
3 1/2+x,1/2+y,z
4 1/2-x,1/2+y,1/2-z
5 -x,-y,-z
6 x,-y,1/2+z
7 1/2-x,1/2-y,-z
8 1/2+x,1/2-y,1/2+z
_cell_length_a                   27.9927(4)
_cell_length_b                   13.9755(2)
_cell_length_c                   22.6184(3)
_cell_angle_alpha                90
_cell_angle_beta                 99.5272(14)
_cell_angle_gamma                90
_cell_volume                     8726.54
loop_
_atom_site_label
_atom_site_type_symbol
_atom_site_fract_x
_atom_site_fract_y
_atom_site_fract_z
_atom_site_U_iso_or_equiv
_atom_site_thermal_displace_type
Tb1 Tb 0.03293(2) 0.87657(2) 0.04300(2) 0.0091 Uani
Zn1 Zn 0.26291(2) 0.87943(2) 0.35197(2) 0.0137 Uani
C1 C 0.19423(11) 1.1006(2) 0.23299(12) 0.0280 Uani
H1 H 0.1999(11) 1.159(2) 0.2260(13) 0.0340 Uiso
O1 O 0.07987(6) 0.94562(12) 0.13000(7) 0.0179 Uani
O2 O 0.08677(6) 1.02548(13) 0.40892(7) 0.0168 Uani
O3 O -0.00021(6) 1.03716(13) 0.05690(7) 0.0115 Uani
C2 C 0.15376(10) 1.0588(2) 0.20012(11) 0.0235 Uani
H2 H 0.1339(10) 1.093(2) 0.1681(12) 0.0280 Uiso
O4 O 0.43006(6) 0.66354(13) 0.41753(7) 0.0187 Uani
N1 N 0.22613(7) 0.91557(15) 0.42644(8) 0.0126 Uani
O5 O 0.07725(6) 0.85621(14) 0.21170(7) 0.0212 Uani
C3 C 0.16009(8) 0.97715(18) 0.46942(10) 0.0121 Uani
N2 N 0.21248(7) 0.95600(15) 0.28805(8) 0.0129 Uani
C4 C 0.24951(8) 0.89119(17) 0.48142(10) 0.0114 Uani
O6 O 0.40160(9) 1.13885(16) 0.48366(10) 0.0479 Uani
O7 O 0.45085(6) 0.65797(13) 0.51765(7) 0.0159 Uani
N3 N 0.31120(7) 0.83090(15) 0.42889(8) 0.0127 Uani
C5 C 0.29698(9) 0.84302(18) 0.48274(10) 0.0126 Uani
C6 C 0.18432(9) 0.95276(19) 0.52659(11) 0.0152 Uani
H3 H 0.1700(9) 0.9727(18) 0.5619(11) 0.0180 Uiso
O8 O 0.31441(7) 0.85588(15) 0.29427(9) 0.0313 Uani
H4 H 0.3445 0.8735 0.3013 0.0470 Uiso
H5 H 0.3087 0.8271 0.2599 0.0470 Uiso
O9 O 0.00483(6) 0.80279(14) 0.12583(7) 0.0211 Uani
H6 H -0.0230 0.8280 0.1320 0.0320 Uiso
H7 H 0.0261 0.8103 0.1591 0.0320 Uiso
C7 C 0.36718(9) 0.76048(19) 0.53193(11) 0.0143 Uani
H8 H 0.3835(9) 0.7345(19) 0.5626(11) 0.0170 Uiso
C8 C 0.11071(8) 1.02278(18) 0.46099(10) 0.0141 Uani
C9 C 0.42413(8) 0.68404(18) 0.46934(10) 0.0125 Uani
O10 O 0.03221(7) 0.76221(14) -0.03471(7) 0.0244 Uani
H9 H 0.0034 0.7409 -0.0453 0.0370 Uiso
H10 H 0.0510 0.7157 -0.0220 0.0370 Uiso
N4 N 0.29045(7) 1.02769(16) 0.35722(9) 0.0169 Uani
O11 O 0.40844(6) 1.26276(13) 0.42327(7) 0.0216 Uani
O12 O 0.09737(6) 1.05455(13) 0.50737(7) 0.0182 Uani
C10 C 0.38894(10) 1.1870(2) 0.43760(12) 0.0247 Uani
C11 C 0.32861(10) 1.0607(2) 0.39460(12) 0.0227 Uani
H11 H 0.3409(11) 1.024(2) 0.4167(12) 0.0270 Uiso
C12 C 0.38054(8) 0.74374(17) 0.47658(10) 0.0113 Uani
C13 C 0.18250(9) 0.95652(19) 0.42143(11) 0.0137 Uani
H12 H 0.1680(9) 0.9741(18) 0.3831(11) 0.0160 Uiso
C14 C 0.17229(9) 0.91743(19) 0.25743(10) 0.0133 Uani
H13 H 0.1656(9) 0.8530(19) 0.2682(11) 0.0160 Uiso
C15 C 0.35176(9) 0.78153(18) 0.42659(11) 0.0132 Uani
H14 H 0.3621(9) 0.7697(18) 0.3922(11) 0.0160 Uiso
C16 C 0.22898(9) 0.90842(19) 0.53228(11) 0.0159 Uani
H15 H 0.2461(10) 0.8874(18) 0.5716(11) 0.0190 Uiso
C17 C 0.09568(9) 0.91883(18) 0.18257(10) 0.0130 Uani
C18 C 0.26622(10) 1.0887(2) 0.31704(11) 0.0214 Uani
C19 C 0.14124(9) 0.96606(18) 0.21360(10) 0.0127 Uani
C20 C 0.32494(9) 0.80975(19) 0.53512(11) 0.0145 Uani
H16 H 0.3140(9) 0.8133(19) 0.5696(11) 0.0170 Uiso
C21 C 0.22288(9) 1.0481(2) 0.27753(10) 0.0182 Uani
Cl1 Cl 0.22453(2) 0.72885(5) 0.33420(3) 0.0215 Uani
C22 C 0.34540(10) 1.1532(2) 0.39421(11) 0.0235 Uani
C23 C 0.28054(14) 1.1822(3) 0.31349(14) 0.0457 Uani
H17 H 0.2662(13) 1.224(3) 0.2915(15) 0.0550 Uiso
C24 C 0.32078(13) 1.2142(3) 0.35171(14) 0.0431 Uani
H18 H 0.3308(13) 1.271(3) 0.3500(14) 0.0520 Uiso
H19 H -0.0214(13) 1.042(3) 0.0776(15) 0.0560 Uiso
H20 H 0.0228(10) 1.077(2) 0.0747(11) 0.0170 Uiso
Tb1C Tb 0.46707(2) 1.37657(2) 0.45700(2) 0.0091 Uani
Tb1D Tb -0.03293(2) 1.12343(2) -0.04300(2) 0.0091 Uani
Tb1E Tb 0.03293(2) 1.12343(2) 0.54300(2) 0.0091 Uani
Tb1G Tb 0.53293(2) 0.62343(2) 0.54300(2) 0.0091 Uani
O3D O 0.00021(6) 0.96284(13) -0.05690(7) 0.0115 Uani
O7G O -0.04915(6) 0.84203(13) 0.01765(7) 0.0159 Uani
O11C O 0.09156(6) 0.76276(13) 0.07673(7) 0.0216 Uani
O12E O 0.09737(6) 0.94545(13) 0.00737(7) 0.0182 Uani
loop_
_atom_site_aniso_label
_atom_site_aniso_U_11
_atom_site_aniso_U_22
_atom_site_aniso_U_33
_atom_site_aniso_U_23
_atom_site_aniso_U_13
_atom_site_aniso_U_12
Tb1 0.00610(6) 0.01105(7) 0.00938(6) 0.00257(5) -0.00114(4) -0.00229(5)
Zn1 0.00899(14) 0.01850(17) 0.01282(14) 0.00175(12) -0.00008(11) 0.00386(13)
C1 0.0321(17) 0.0214(17) 0.0253(15) 0.0103(13) -0.0109(12) -0.0140(15)
O1 0.0219(10) 0.0160(10) 0.0124(9) 0.0032(7) -0.0069(7) -0.0033(8)
O2 0.0097(9) 0.0265(11) 0.0135(8) -0.0016(7) -0.0004(7) 0.0059(8)
O3 0.0068(9) 0.0142(10) 0.0128(8) -0.0005(7) -0.0003(7) -0.0048(8)
C2 0.0283(16) 0.0203(16) 0.0176(13) 0.0081(11) -0.0089(11) -0.0056(14)
O4 0.0179(10) 0.0236(11) 0.0132(9) -0.0041(8) -0.0016(7) 0.0119(9)
N1 0.0102(10) 0.0131(11) 0.0146(10) 0.0021(8) 0.0020(8) 0.0031(9)
O5 0.0171(10) 0.0303(12) 0.0143(9) 0.0069(8) -0.0032(7) -0.0091(9)
C3 0.0091(12) 0.0097(13) 0.0169(12) 0.0015(10) 0.0002(9) 0.0002(11)
N2 0.0108(11) 0.0169(12) 0.0109(10) 0.0022(9) 0.0016(8) -0.0015(9)
C4 0.0087(12) 0.0085(13) 0.0167(12) -0.0008(10) 0.0011(9) 0.0008(10)
O6 0.0475 0.0395 0.0441 0.0206 -0.0293 -0.0277
O7 0.0110(9) 0.0225(10) 0.0127(8) -0.0023(7) -0.0027(7) 0.0075(8)
N3 0.0096(10) 0.0137(12) 0.0146(10) 0.0009(9) 0.0016(8) 0.0031(9)
C5 0.0110(12) 0.0097(13) 0.0166(12) -0.0009(10) 0.0012(9) -0.0006(11)
C6 0.0114(13) 0.0178(15) 0.0170(13) -0.0019(11) 0.0037(10) 0.0036(12)
O8 0.0230(11) 0.0385(14) 0.0354(12) 0.0017(10) 0.0134(9) 0.0048(10)
O9 0.0094(9) 0.0383(12) 0.0142(9) 0.0074(8) -0.0022(7) -0.0043(9)
C7 0.0103(13) 0.0148(14) 0.0167(13) 0.0018(11) -0.0008(10) 0.0031(11)
C8 0.0089(12) 0.0135(14) 0.0204(13) 0.0004(11) 0.0036(10) 0.0003(11)
C9 0.0076(12) 0.0112(13) 0.0177(13) -0.0023(10) -0.0012(10) 0.0012(11)
O10 0.0194(10) 0.0250(11) 0.0249(10) -0.0044(8) -0.0082(8) 0.0087(9)
N4 0.0124(11) 0.0210(13) 0.0164(11) 0.0014(9) -0.0006(8) -0.0049(10)
O11 0.0211 0.0247 0.0175 -0.0004 -0.0015 -0.0124
O12 0.0102(9) 0.0286(11) 0.0160(9) -0.0078(8) 0.0025(7) 0.0069(8)
C10 0.0196 0.0263 0.0253 0.0004 -0.0044 -0.0081
C11 0.0168(15) 0.0284(18) 0.0205(14) 0.0026(12) -0.0040(11) -0.0040(14)
C12 0.0079(12) 0.0087(13) 0.0164(12) -0.0019(10) -0.0010(9) 0.0013(11)
C13 0.0098(12) 0.0162(14) 0.0145(12) 0.0025(10) 0.0000(10) 0.0061(11)
C14 0.0140(13) 0.0132(14) 0.0124(12) -0.0003(10) 0.0013(10) -0.0017(12)
C15 0.0087(12) 0.0166(14) 0.0141(12) -0.0018(10) 0.0015(9) 0.0032(11)
C16 0.0144(13) 0.0200(15) 0.0125(12) 0.0013(11) -0.0001(10) 0.0036(12)
C17 0.0131(13) 0.0143(14) 0.0107(12) -0.0012(10) -0.0009(9) 0.0035(12)
C18 0.0229(15) 0.0256(16) 0.0141(13) 0.0059(11) -0.0017(11) -0.0108(13)
C19 0.0146(13) 0.0141(14) 0.0089(11) -0.0003(10) 0.0007(9) -0.0014(11)
C20 0.0119(13) 0.0192(15) 0.0126(12) -0.0008(10) 0.0026(10) 0.0030(12)
C21 0.0198(14) 0.0213(15) 0.0124(12) 0.0034(11) -0.0005(10) -0.0086(12)
Cl1 0.0218(3) 0.0202(4) 0.0206(3) 0.0044(3) -0.0017(2) 0.0017(3)
C22 0.0217 0.0289 0.0181 0.0038 -0.0018 -0.0147
C23 0.056(2) 0.037(2) 0.0323(18) 0.0246(15) -0.0275(16) -0.0267(19)
C24 0.053(2) 0.037(2) 0.0305(17) 0.0162(15) -0.0193(15) -0.0316(19)
Tb1C 0.0061 0.01105 0.00938 -0.00257 -0.00114 0.00229
Tb1D 0.0061 0.01105 0.00938 0.00257 -0.00114 -0.00229
Tb1E 0.0061 0.01105 0.00938 -0.00257 -0.00114 0.00229
Tb1G 0.0061 0.01105 0.00938 -0.00257 -0.00114 0.00229
O3D 0.0068 0.0142 0.0128 -0.0005 -0.0003 -0.0048
O7G 0.011 0.0225 0.0127 0.0023 -0.0027 -0.0075
O11C 0.0211 0.0247 0.0175 0.0004 -0.0015 0.0124
O12E 0.0102 0.0286 0.016 0.0078 0.0025 -0.0069
loop_
_geom_bond_atom_site_label_1
_geom_bond_atom_site_label_2
_geom_bond_site_symmetry_1
_geom_bond_site_symmetry_2
Tb1 O1 1_555 1_555
Zn1 N1 1_555 1_555
C1 H1 1_555 1_555
O1 C17 1_555 1_555
O2 C8 1_555 1_555
O3 Tb1 1_555 1_555
C2 C1 1_555 1_555
H2 C2 1_555 1_555
O4 C9 1_555 1_555
N1 C4 1_555 1_555
O5 C17 1_555 1_555
C3 C6 1_555 1_555
N2 Zn1 1_555 1_555
C4 C5 1_555 1_555
O6 C10 1_555 1_555
O7 C9 1_555 1_555
N3 Zn1 1_555 1_555
C5 N3 1_555 1_555
C6 H3 1_555 1_555
O8 Zn1 1_555 1_555
H4 O8 1_555 1_555
H5 O8 1_555 1_555
O9 Tb1 1_555 1_555
H6 O9 1_555 1_555
H7 O9 1_555 1_555
C7 H8 1_555 1_555
C8 C3 1_555 1_555
C9 C12 1_555 1_555
O10 Tb1 1_555 1_555
H9 O10 1_555 1_555
H10 O10 1_555 1_555
N4 Zn1 1_555 1_555
O11 C10 1_555 1_555
O12 C8 1_555 1_555
C10 C22 1_555 1_555
C11 N4 1_555 1_555
H11 C11 1_555 1_555
C12 C7 1_555 1_555
C13 N1 1_555 1_555
H12 C13 1_555 1_555
C14 N2 1_555 1_555
H13 C14 1_555 1_555
C15 N3 1_555 1_555
H14 C15 1_555 1_555
C16 C4 1_555 1_555
H15 C16 1_555 1_555
C17 C19 1_555 1_555
C18 N4 1_555 1_555
C19 C2 1_555 1_555
C20 C5 1_555 1_555
H16 C20 1_555 1_555
C21 C1 1_555 1_555
Cl1 Zn1 1_555 1_555
C22 C11 1_555 1_555
C23 C18 1_555 1_555
H17 C23 1_555 1_555
C24 C22 1_555 1_555
H18 C24 1_555 1_555
H19 O3 1_555 1_555
H20 O3 1_555 1_555
Tb1C O11 1_555 1_555
Tb1D O3 1_555 1_555
Tb1E O12 1_555 1_555
Tb1G O7 1_555 1_555
O3D Tb1 1_555 1_555
O7G Tb1 1_555 1_555
O11C Tb1 1_555 1_555
O12E Tb1 1_555 1_555
C3 C13 1_555 1_555
N2 C21 1_555 1_555
C6 C16 1_555 1_555
C7 C20 1_555 1_555
C12 C15 1_555 1_555
C14 C19 1_555 1_555
C18 C21 1_555 1_555
C23 C24 1_555 1_555
Tb1D O3D 1_555 1_555

#END
