
#######################################################################
#
#                 Cambridge Crystallographic Data Centre
#                                CCDC 
#
#######################################################################
#
# If this CIF has been generated from an entry in the Cambridge 
# Structural Database, then it will include bibliographic, chemical, 
# crystal, experimental, refinement or atomic coordinate data resulting 
# from the CCDC's data processing and validation procedures.
#
#######################################################################

data_MODMIB
_chemical_formula_moiety         'C20 H2 Cd3 N10'
_symmetry_cell_setting           orthorhombic
_symmetry_space_group_name_H-M   'C c c m'
_symmetry_Int_Tables_number      66
_space_group_name_Hall           '-C 2 2c'
loop_
_symmetry_equiv_pos_site_id
_symmetry_equiv_pos_as_xyz
1 x,y,z
2 1/2+x,1/2+y,z
3 x,y,-z
4 x,-y,1/2+z
5 -x,y,1/2+z
6 1/2+x,1/2+y,-z
7 1/2+x,1/2-y,1/2+z
8 1/2-x,1/2+y,1/2+z
9 -x,-y,-z
10 1/2-x,1/2-y,-z
11 -x,-y,z
12 -x,y,1/2-z
13 x,-y,1/2-z
14 1/2-x,1/2-y,z
15 1/2-x,1/2+y,1/2-z
16 1/2+x,1/2-y,1/2-z
_cell_length_a                   10.970(6)
_cell_length_b                   23.744(8)
_cell_length_c                   15.906(5)
_cell_angle_alpha                90
_cell_angle_beta                 90
_cell_angle_gamma                90
_cell_volume                     4143.06
loop_
_atom_site_label
_atom_site_type_symbol
_atom_site_fract_x
_atom_site_fract_y
_atom_site_fract_z
_atom_site_U_iso_or_equiv
_atom_site_thermal_displace_type
Cd1 Cd 0.2500 0.2500 0.5000 0.0306 Uani
Cd2 Cd -0.0000 0.38180(4) 0.2500 0.0340 Uani
Cd3 Cd -0.13980(10) 0.09851(6) 0.5000 0.0532 Uani
C1 C 0.1017(9) 0.3331(4) 0.3481(6) 0.0420 Uani
N1 N 0.1559(7) 0.3070(3) 0.3939(5) 0.0450 Uani
C2 C 0.0114(15) 0.1615(7) 0.5000 0.0527 Uani
N2 N 0.0871(13) 0.1929(6) 0.5000 0.0583 Uani
C3 C -0.2509(10) 0.1064(6) 0.6148(7) 0.0607 Uani
N3 N 0.1844(9) 0.3872(5) 0.1673(6) 0.0747 Uani
C4 C 0.0000 0.4766(5) 0.2500 0.0527 Uani
C5 C -0.0305(13) 0.0204(7) 0.5000 0.0670 Uani
N1B N 0.1559(7) 0.3070(3) 0.6061(5) 0.0450 Uani
N1I N 0.3441(7) 0.1930(3) 0.6061(5) 0.0450 Uani
N1M N 0.3441(7) 0.1930(3) 0.3939(5) 0.0450 Uani
N2I N 0.4129(13) 0.3071(6) 0.5000 0.0583 Uani
C1K C -0.1017(9) 0.3331(4) 0.1519(6) 0.0420 Uani
N3K N -0.1844(9) 0.3872(5) 0.3327(6) 0.0747 Uani
C3B C -0.2509(10) 0.1064(6) 0.3852(7) 0.0607 Uani
N3F N -0.3156(9) 0.1128(5) 0.6673(6) 0.0747 Uani
C3F C 0.2491(10) 0.3936(6) 0.1148(7) 0.0607 Uani
C4J C 0.0000 0.5234(5) 0.2500 0.0527 Uani
C5H C 0.0305(13) -0.0204(7) 0.5000 0.0670 Uani
N4 N 0.5000 0.3535(5) 0.2500 0.0677 Uani
C6 C 0.4168(11) 0.3804(5) 0.2947(7) 0.0610 Uani
H1 H 0.3589 0.3603 0.3251 0.0730 Uiso
C7 C 0.4164(10) 0.4391(5) 0.2960(7) 0.0530 Uani
H2 H 0.3590 0.4582 0.3283 0.0640 Uiso
C8 C 0.5000 0.4687(6) 0.2500 0.0433 Uani
C9 C 0.5000 0.2911(8) 0.2500 0.1410 Uani
C6K C 0.5832(11) 0.3804(5) 0.2053(7) 0.0610 Uani
C8J C 0.5000 0.5313(6) 0.2500 0.0433 Uani
C7K C 0.5836(10) 0.4391(5) 0.2040(7) 0.0530 Uani
C10 C -0.0241(16) 0.4704(9) 0.0000 0.0787 Uani
C11 C -0.154(3) 0.4624(13) 0.0000 0.1370 Uani
C10H C 0.0241(16) 0.5296(9) 0.0000 0.0787 Uani
loop_
_atom_site_aniso_label
_atom_site_aniso_U_11
_atom_site_aniso_U_22
_atom_site_aniso_U_33
_atom_site_aniso_U_23
_atom_site_aniso_U_13
_atom_site_aniso_U_12
Cd1 0.0337(6) 0.0299(6) 0.0283(5) 0.000 0.000 0.0006(5)
Cd2 0.0448(5) 0.0270(4) 0.0302(4) 0.000 -0.0062(4) 0.000
Cd3 0.0452(6) 0.0780(8) 0.0365(5) 0.000 0.000 -0.0230(6)
C1 0.055(5) 0.034(4) 0.037(4) -0.001(4) -0.005(4) 0.003(4)
N1 0.050(5) 0.044(4) 0.041(4) 0.007(4) -0.008(4) 0.009(4)
C2 0.050(8) 0.061(9) 0.047(7) 0.000 0.000 -0.007(8)
N2 0.070(9) 0.042(7) 0.063(8) 0.000 0.000 -0.014(7)
C3 0.048 0.09 0.044 0 0.003 -0.009
N3 0.060(6) 0.119(10) 0.045(5) 0.012(6) 0.005(5) 0.000(6)
C4 0.075(9) 0.030(5) 0.053(7) 0.000 0.001(7) 0.000
C5 0.051(10) 0.085(13) 0.065(9) 0.000 0.000 -0.026(8)
N1B 0.05 0.044 0.041 -0.007 0.008 0.009
N1I 0.05 0.044 0.041 0.007 -0.008 0.009
N1M 0.05 0.044 0.041 -0.007 0.008 0.009
N2I 0.07 0.042 0.063 0 0 -0.014
C1K 0.055 0.034 0.037 0.001 -0.005 -0.003
N3K 0.06 0.119 0.045 -0.012 0.005 0
C3B 0.048 0.09 0.044 0 -0.003 -0.009
N3F 0.06 0.119 0.045 -0.012 0.005 0
C3F 0.048(6) 0.090(9) 0.044(5) 0.000(6) 0.003(5) 0.009(6)
C4J 0.075 0.03 0.053 0 -0.001 0
C5H 0.051 0.085 0.065 0 0 -0.026
N4 0.114(12) 0.030(6) 0.059(8) 0.000 -0.014(8) 0.000
C6 0.073(8) 0.054(6) 0.056(6) 0.003(6) 0.008(6) -0.019(6)
C7 0.055(6) 0.053(6) 0.051(6) -0.004(5) 0.011(5) -0.013(5)
C8 0.046(7) 0.044(7) 0.040(6) 0.000 -0.002(6) 0.000
C9 0.29(4) 0.026(8) 0.107(18) 0.000 -0.01(2) 0.000
C6K 0.073 0.054 0.056 -0.003 0.008 0.019
C8J 0.046 0.044 0.04 0 0.002 0
C7K 0.055 0.053 0.051 0.004 0.011 0.013
C10 0.049(11) 0.098(16) 0.089(13) 0.000 0.000 0.012(10)
C11 0.091(19) 0.10(2) 0.22(4) 0.000 0.000 0.006(17)
C10H 0.049 0.098 0.089 0 0 0.012
loop_
_geom_bond_atom_site_label_1
_geom_bond_atom_site_label_2
_geom_bond_site_symmetry_1
_geom_bond_site_symmetry_2
Cd1 N1 1_555 1_555
Cd2 C1 1_555 1_555
Cd3 C2 1_555 1_555
C1 N1 1_555 1_555
C2 N2 1_555 1_555
N2 Cd1 1_555 1_555
C3 Cd3 1_555 1_555
N3 Cd2 1_555 1_555
C4 Cd2 1_555 1_555
C5 Cd3 1_555 1_555
N4 C6 1_555 1_555
C6 H1 1_555 1_555
C7 C6 1_555 1_555
H2 C7 1_555 1_555
C8 C7 1_555 1_555
C9 N4 1_555 1_555
C10 C11 1_555 1_555
N1B Cd1 1_555 1_555
N1I Cd1 1_555 1_555
N1M Cd1 1_555 1_555
N2I Cd1 1_555 1_555
C1K Cd2 1_555 1_555
N3K Cd2 1_555 1_555
C3B Cd3 1_555 1_555
N3F C3 1_555 1_555
C3F N3 1_555 1_555
C4J C4 1_555 1_555
C5H C5 1_555 1_555
C6K N4 1_555 1_555
C8J C8 1_555 1_555
C7K C8 1_555 1_555
C10H C10 1_555 1_555
C6K C7K 1_555 1_555

#END
