
#######################################################################
#
#                 Cambridge Crystallographic Data Centre
#                                CCDC 
#
#######################################################################
#
# If this CIF has been generated from an entry in the Cambridge 
# Structural Database, then it will include bibliographic, chemical, 
# crystal, experimental, refinement or atomic coordinate data resulting 
# from the CCDC's data processing and validation procedures.
#
#######################################################################

data_MODNIC
_chemical_formula_moiety         '(C26 H14 Cd6 N16)n'
_symmetry_cell_setting           orthorhombic
_symmetry_space_group_name_H-M   'P b c a'
_symmetry_Int_Tables_number      61
_space_group_name_Hall           '-P 2ac 2ab'
loop_
_symmetry_equiv_pos_site_id
_symmetry_equiv_pos_as_xyz
1 x,y,z
2 1/2+x,y,1/2-z
3 x,1/2-y,1/2+z
4 1/2-x,1/2+y,z
5 -x,-y,-z
6 1/2-x,-y,1/2+z
7 -x,1/2+y,1/2-z
8 1/2+x,1/2-y,-z
_cell_length_a                   13.724(4)
_cell_length_b                   27.269(6)
_cell_length_c                   13.569(5)
_cell_angle_alpha                90
_cell_angle_beta                 90
_cell_angle_gamma                90
_cell_volume                     5078.06
loop_
_atom_site_label
_atom_site_type_symbol
_atom_site_fract_x
_atom_site_fract_y
_atom_site_fract_z
N8 N 0.5497(11) 0.9848(6) 0.2491(10)
C8 C 0.5676(16) 0.9484(7) 0.1871(13)
H1 H 0.5934 0.9189 0.2095
C9 C 0.5475(16) 0.9551(7) 0.0900(14)
H2 H 0.5597 0.9294 0.0467
C10 C 0.5116(10) 0.9961(5) 0.0539(11)
C11 C 0.494(2) 1.0328(8) 0.1208(15)
H3 H 0.4675 1.0622 0.0989
C12 C 0.515(2) 1.0276(8) 0.2183(13)
H4 H 0.5059 1.0534 0.2621
C13 C 0.5756(19) 0.9780(9) 0.3550(14)
H5 H 0.5603 0.9451 0.3748
H6 H 0.5391 1.0008 0.3944
H7 H 0.6440 0.9839 0.3639
C10D C 0.4884(10) 1.0039(5) -0.0539(11)
C9D C 0.4525(16) 1.0449(7) -0.0900(14)
C8D C 0.4324(16) 1.0516(7) -0.1871(13)
N8D N 0.4503(11) 1.0152(6) -0.2491(10)
C12D C 0.485(2) 0.9724(8) -0.2183(13)
C11D C 0.506(2) 0.9672(8) -0.1208(15)
H3D H 0.5325 0.9378 -0.0989
H4D H 0.4941 0.9466 -0.2621
C13D C 0.4244(19) 1.0220(9) -0.3550(14)
H5D H 0.4397 1.0549 -0.3748
H6D H 0.4609 0.9992 -0.3944
H7D H 0.3560 1.0161 -0.3639
H1D H 0.4066 1.0811 -0.2095
H2D H 0.4403 1.0706 -0.0467
Cd1 Cd 0.83199(7) 0.87444(4) 0.00371(7)
Cd2 Cd 0.46256(9) 0.80856(4) 0.12792(8)
Cd3 Cd 1.21595(8) 0.92447(4) -0.11566(7)
N1 N 0.6790(9) 0.8509(5) 0.0490(11)
C1 C 0.6064(11) 0.8344(6) 0.0739(11)
N2 N 0.8920(11) 0.8588(6) 0.1619(10)
C2 C 0.9154(13) 0.8434(6) 0.2340(12)
N3 N 0.9886(9) 0.8978(5) -0.0500(9)
C3 C 1.0654(11) 0.9038(5) -0.0752(11)
N4 N 0.7738(11) 0.9020(6) -0.1517(10)
C4 C 0.7514(12) 0.9121(6) -0.2275(11)
N5 N 0.3740(12) 0.8648(6) 0.0273(12)
C5 C 0.3224(12) 0.8861(6) -0.0205(11)
N6 N 0.8021(11) 0.9557(5) 0.0616(10)
C6 C 0.7899(12) 0.9949(6) 0.0839(12)
N7 N 0.8694(10) 0.7962(5) -0.0486(12)
C7 C 0.8995(11) 0.7605(6) -0.0738(12)
Cd2A Cd 0.96256(9) 0.80856(4) 0.37208(8)
Cd3A Cd 0.71595(8) 0.92447(4) -0.38434(7)
N2A N 0.3920(11) 0.8588(6) 0.3381(10)
C2A C 0.4154(13) 0.8434(6) 0.2660(12)
N7G N 0.3694(10) 0.7038(5) 0.0486(12)
C7G C 0.3995(11) 0.7395(6) 0.0738(12)
N4A N 1.2738(11) 0.9020(6) -0.3483(10)
C4A C 1.2514(12) 0.9121(6) -0.2725(11)
N5_2 N 1.3740(12) 0.8648(6) 0.0273(12)
C5_2 C 1.3224(12) 0.8861(6) -0.0205(11)
N6D N 1.1979(11) 1.0443(5) -0.0616(10)
C6D C 1.2101(12) 1.0051(6) -0.0839(12)
N1A N 1.1790(9) 0.8509(5) 0.4510(11)
C1A C 1.1064(11) 0.8344(6) 0.4261(11)
N3A N 0.4886(9) 0.8978(5) -0.4500(9)
C3A C 0.5654(11) 0.9038(5) -0.4248(11)
Cd1A Cd 1.33199(7) 0.87444(4) 0.49629(7)
Cd3_2 Cd 0.21595(8) 0.92447(4) -0.11566(7)
Cd3D Cd 0.78405(8) 1.07553(4) 0.11566(7)
Cd2G Cd 0.96256(9) 0.69144(4) -0.12792(8)
N5A N 0.8740(12) 0.8648(6) 0.4727(12)
C7B C 0.8995(11) 0.7395(6) 0.4262(12)
C5A C 0.8224(12) 0.8861(6) -0.4795(11)
C6E C 0.7101(12) 1.0051(6) -0.4161(12)
Cd1A_2 Cd 0.33199(7) 0.87444(4) 0.49629(7)
Cd1G Cd 0.33199(7) 0.62556(4) -0.00371(7)
Cd1A_3 Cd 1.33199(7) 0.87444(4) -0.50371(7)
Cd2_2 Cd 1.46256(9) 0.80856(4) 0.12792(8)
Cd1D Cd 1.16801(7) 1.12556(4) -0.00371(7)
Cd1A_4 Cd 0.33199(7) 0.87444(4) -0.50371(7)
N2A_2 N 1.3920(11) 0.8588(6) 0.3381(10)
N3A_2 N 1.4886(9) 0.8978(5) 0.5500(9)
N4A_2 N 1.2738(11) 0.9020(6) 0.6517(10)
N6A N 1.3021(11) 0.9557(5) 0.4384(10)
N7A N 1.3694(10) 0.7962(5) 0.5486(12)
loop_
_geom_bond_atom_site_label_1
_geom_bond_atom_site_label_2
_geom_bond_site_symmetry_1
_geom_bond_site_symmetry_2
Cd1 N1 1_555 1_555
Cd2 C1 1_555 1_555
Cd3 C3 1_555 1_555
N1 C1 1_555 1_555
N2 Cd1 1_555 1_555
C2 N2 1_555 1_555
N3 Cd1 1_555 1_555
C3 N3 1_555 1_555
N4 Cd1 1_555 1_555
C4 N4 1_555 1_555
N5 Cd2 1_555 1_555
C5 N5 1_555 1_555
N6 Cd1 1_555 1_555
C6 N6 1_555 1_555
N7 Cd1 1_555 1_555
C7 N7 1_555 1_555
N8 C8 1_555 1_555
C8 H1 1_555 1_555
C9 C8 1_555 1_555
H2 C9 1_555 1_555
C10 C9 1_555 1_555
C11 C10 1_555 1_555
H3 C11 1_555 1_555
C12 N8 1_555 1_555
H4 C12 1_555 1_555
C13 N8 1_555 1_555
H5 C13 1_555 1_555
H6 C13 1_555 1_555
H7 C13 1_555 1_555
C10D C10 1_555 1_555
C9D C10D 1_555 1_555
C8D C9D 1_555 1_555
N8D C8D 1_555 1_555
C12D N8D 1_555 1_555
C11D C10D 1_555 1_555
H3D C11D 1_555 1_555
H4D C12D 1_555 1_555
C13D N8D 1_555 1_555
H5D C13D 1_555 1_555
H6D C13D 1_555 1_555
H7D C13D 1_555 1_555
H1D C8D 1_555 1_555
H2D C9D 1_555 1_555
Cd2A C2 1_555 1_555
Cd3A C4 1_555 1_555
N2A C2A 1_555 1_555
C2A Cd2 1_555 1_555
N7G C7G 1_555 1_555
C7G Cd2 1_555 1_555
N4A C4A 1_555 1_555
C4A Cd3 1_555 1_555
N5_2 C5_2 1_555 1_555
C5_2 Cd3 1_555 1_555
N6D C6D 1_555 1_555
C6D Cd3 1_555 1_555
N1A C1A 1_555 1_555
C1A Cd2A 1_555 1_555
N3A C3A 1_555 1_555
C3A Cd3A 1_555 1_555
Cd1A N1A 1_555 1_555
Cd3_2 C5 1_555 1_555
Cd3D C6 1_555 1_555
Cd2G C7 1_555 1_555
N5A Cd2A 1_555 1_555
C7B Cd2A 1_555 1_555
C5A Cd3A 1_555 1_555
C6E Cd3A 1_555 1_555
Cd1A_2 N2A 1_555 1_555
Cd1G N7G 1_555 1_555
Cd1A_3 N4A 1_555 1_555
Cd2_2 N5_2 1_555 1_555
Cd1D N6D 1_555 1_555
Cd1A_4 N3A 1_555 1_555
N2A_2 Cd1A 1_555 1_555
N3A_2 Cd1A 1_555 1_555
N4A_2 Cd1A 1_555 1_555
N6A Cd1A 1_555 1_555
N7A Cd1A 1_555 1_555
C11 C12 1_555 1_555
C12D C11D 1_555 1_555

#END
