
#######################################################################
#
#                 Cambridge Crystallographic Data Centre
#                                CCDC 
#
#######################################################################
#
# If this CIF has been generated from an entry in the Cambridge 
# Structural Database, then it will include bibliographic, chemical, 
# crystal, experimental, refinement or atomic coordinate data resulting 
# from the CCDC's data processing and validation procedures.
#
#######################################################################

data_QUQPIC
_chemical_formula_moiety         '(C24 H14 Cd1 N6)n'
_symmetry_cell_setting           monoclinic
_symmetry_space_group_name_H-M   'P 21/c'
_symmetry_Int_Tables_number      14
_space_group_name_Hall           '-P 2ybc'
loop_
_symmetry_equiv_pos_site_id
_symmetry_equiv_pos_as_xyz
1 x,y,z
2 -x,1/2+y,1/2-z
3 -x,-y,-z
4 x,1/2-y,1/2+z
_cell_length_a                   14.0082(7)
_cell_length_b                   12.4871(4)
_cell_length_c                   12.3464(6)
_cell_angle_alpha                90
_cell_angle_beta                 113.763(6)
_cell_angle_gamma                90
_cell_volume                     1976.56
loop_
_atom_site_label
_atom_site_type_symbol
_atom_site_fract_x
_atom_site_fract_y
_atom_site_fract_z
H1 H 0.531(7) 0.997(7) 0.123(8)
Cd1 Cd -0.0000 1.0000 0.0000
N1 N 0.1693(4) 1.0042(5) 0.0113(5)
N2 N 0.0481(5) 1.1135(4) 0.1622(5)
C1 C 0.0235(5) 0.9744(5) 0.4048(6)
H2 H 0.0390 0.9563 0.3406
C2 C -0.0225(5) 1.2705(4) 0.3520(6)
C3 C 0.0264(5) 1.1398(5) 0.2405(6)
C4 C -0.0225(5) 1.1040(5) 0.5171(6)
H3 H -0.0383 1.1742 0.5288
N3 N -0.0451(4) 1.3562(4) 0.3678(5)
C5 C 0.3518(7) 0.9873(9) 0.1276(8)
H4 H 0.4051 0.9763 0.2018
C6 C 0.3745(6) 1.0025(7) 0.0288(7)
C7 C 0.2480(6) 0.9886(8) 0.1133(7)
H5 H 0.2337 0.9779 0.1798
C8 C 0.1921(6) 1.0200(6) -0.0817(7)
H6 H 0.1377 1.0318 -0.1550
C9 C 0.0022(5) 1.1650(5) 0.3369(6)
C10 C 0.2931(6) 1.0199(7) -0.0747(8)
H7 H 0.3049 1.0321 -0.1426
C11 C 0.0016(5) 1.0802(4) 0.4212(6)
C12 C 0.4847(7) 0.9977(8) 0.0428(8)
H1B H 0.469(7) 1.003(7) -0.123(8)
Cd1A Cd 0.0000 1.5000 0.5000
Cd1_2 Cd 1.0000 1.0000 0.0000
Cd1A_2 Cd 0.0000 0.5000 0.5000
Cd1_3 Cd 0.0000 1.0000 1.0000
N1B N 0.8307(4) 0.9958(5) -0.0113(5)
N1B_2 N -0.1693(4) 0.9958(5) -0.0113(5)
N2B N -0.0481(5) 0.8865(4) 0.8378(5)
N2B_2 N -0.0481(5) 0.8865(4) -0.1622(5)
C1B C -0.0235(5) 1.0256(5) 0.5952(6)
H2B H -0.0390 1.0437 0.6594
C2B C 0.0225(5) 0.7295(4) 0.6480(6)
C3B C -0.0264(5) 0.8602(5) 0.7595(6)
C4B C 0.0225(5) 0.8960(5) 0.4829(6)
H3B H 0.0383 0.8258 0.4712
N3B N 0.0451(4) 0.6438(4) 0.6322(5)
N3A N 0.0451(4) 0.8562(4) 0.1322(5)
N3C N -0.0451(4) 1.1438(4) -0.1322(5)
C5B C 0.6482(7) 1.0127(9) -0.1276(8)
H4B H 0.5949 1.0237 -0.2018
C6B C 0.6255(6) 0.9975(7) -0.0288(7)
C7B C 0.7520(6) 1.0114(8) -0.1133(7)
H5B H 0.7663 1.0221 -0.1798
C8B C 0.8079(6) 0.9800(6) 0.0817(7)
H6B H 0.8623 0.9682 0.1550
C9B C -0.0022(5) 0.8350(5) 0.6631(6)
C10B C 0.7069(6) 0.9801(7) 0.0747(8)
H7B H 0.6951 0.9679 0.1426
C11B C -0.0016(5) 0.9198(4) 0.5788(6)
C12B C 0.5153(7) 1.0023(8) -0.0428(8)
loop_
_geom_bond_atom_site_label_1
_geom_bond_atom_site_label_2
_geom_bond_site_symmetry_1
_geom_bond_site_symmetry_2
H1 C12 1_555 1_555
Cd1 N1 1_555 1_555
N1 C7 1_555 1_555
N2 Cd1 1_555 1_555
C1 H2 1_555 1_555
C2 N3 1_555 1_555
C3 N2 1_555 1_555
C4 H3 1_555 1_555
N3 Cd1A 1_555 1_555
C5 H4 1_555 1_555
C6 C5 1_555 1_555
C7 C5 1_555 1_555
H5 C7 1_555 1_555
C8 N1 1_555 1_555
H6 C8 1_555 1_555
C9 C2 1_555 1_555
C10 C6 1_555 1_555
H7 C10 1_555 1_555
C11 C1 1_555 1_555
C12 C6 1_555 1_555
H1B C12B 1_555 1_555
Cd1_2 N1B 1_555 1_555
Cd1A_2 N3B 1_555 1_555
Cd1_3 N2B 1_555 1_555
N1B C7B 1_555 1_555
N1B_2 Cd1 1_555 1_555
N2B C3B 1_555 1_555
N2B_2 Cd1 1_555 1_555
C1B C4 1_555 1_555
H2B C1B 1_555 1_555
C2B N3B 1_555 1_555
C3B C9B 1_555 1_555
C4B C1 1_555 1_555
H3B C4B 1_555 1_555
N3A Cd1 1_555 1_555
N3C Cd1 1_555 1_555
C5B H4B 1_555 1_555
C6B C5B 1_555 1_555
C7B C5B 1_555 1_555
H5B C7B 1_555 1_555
C8B N1B 1_555 1_555
H6B C8B 1_555 1_555
C9B C2B 1_555 1_555
C10B C6B 1_555 1_555
H7B C10B 1_555 1_555
C11B C1B 1_555 1_555
C12B C12 1_555 1_555
C3 C9 1_555 1_555
C4 C11 1_555 1_555
C8 C10 1_555 1_555
C9 C11 1_555 1_555
C4B C11B 1_555 1_555
C6B C12B 1_555 1_555
C8B C10B 1_555 1_555
C9B C11B 1_555 1_555

#END
