
#######################################################################
#
#                 Cambridge Crystallographic Data Centre
#                                CCDC 
#
#######################################################################
#
# If this CIF has been generated from an entry in the Cambridge 
# Structural Database, then it will include bibliographic, chemical, 
# crystal, experimental, refinement or atomic coordinate data resulting 
# from the CCDC's data processing and validation procedures.
#
#######################################################################

data_QUQPEY
_chemical_formula_moiety         'C52 H16 Mn9 N19'
_symmetry_cell_setting           tetragonal
_symmetry_space_group_name_H-M   'P 4/n c c'
_symmetry_Int_Tables_number      130
_space_group_name_Hall           '-P 4a 2ac'
loop_
_symmetry_equiv_pos_site_id
_symmetry_equiv_pos_as_xyz
1 x,y,z
2 1/2-x,1/2-y,z
3 1/2+x,-y,1/2-z
4 -x,1/2+y,1/2-z
5 -y,-x,1/2-z
6 1/2+y,1/2+x,1/2-z
7 y,1/2-x,z
8 1/2-y,x,z
9 -x,-y,-z
10 1/2+x,1/2+y,-z
11 1/2-x,y,1/2+z
12 x,1/2-y,1/2+z
13 y,x,1/2+z
14 1/2-y,1/2-x,1/2+z
15 -y,1/2+x,-z
16 1/2+y,-x,-z
_cell_length_a                   17.2551(4)
_cell_length_b                   17.2551(4)
_cell_length_c                   23.1856(7)
_cell_angle_alpha                90
_cell_angle_beta                 90
_cell_angle_gamma                90
_cell_volume                     6903.25
loop_
_atom_site_label
_atom_site_type_symbol
_atom_site_fract_x
_atom_site_fract_y
_atom_site_fract_z
C1 C 0.29162(15) 0.56481(16) -0.48810(12)
C2 C 0.33560(15) 0.49873(15) -0.47653(12)
C3 C 0.29917(15) 0.43251(16) -0.45441(12)
C4 C 0.41899(16) 0.49927(16) -0.48742(12)
C5 C 0.45620(17) 0.56484(17) -0.51179(14)
H1 H 0.4270 0.6087 -0.5201
C6 C 0.46561(17) 0.43478(17) -0.47653(14)
H2 H 0.4432 0.3904 -0.4610
C7 C 0.3078(4) 0.2807(4) -0.5637(3)
C8 C 0.3108(4) 0.2830(4) -0.6214(2)
C9 C 0.2833(5) 0.3076(4) -0.8083(2)
C10 C 0.2842(5) 0.3103(4) -0.7466(3)
C11 C 0.2500 0.2500 -0.7160(2)
C12 C 0.2500 0.2500 -0.6532(3)
C13 C 0.2810(2) 0.8078(2) -0.62672(15)
H3 H 0.3028 0.8488 -0.6063
C14 C 0.2826(2) 0.8106(3) -0.68700(14)
H4 H 0.3052 0.8522 -0.7061
C15 C 0.2500 0.7500 -0.71748(17)
N1 N 0.26041(14) 0.62213(12) -0.49894(10)
N2 N 0.27316(13) 0.37639(13) -0.43592(10)
N3 N 0.2500 0.2500 -0.53255(18)
N4 N 0.2500 0.2500 -0.8373(2)
N5 N 0.2500 0.7500 -0.59749(14)
Mn1 Mn 0.2500 0.2500 -0.43443(3)
Mn2 Mn 0.2500 0.7500 -0.5000
C1H C 0.70838(15) 0.43519(16) -0.51190(12)
C1A C 0.20838(15) -0.06481(16) -0.48810(12)
C1I C -0.20838(15) 0.06481(16) -0.51190(12)
C2H C 0.66440(15) 0.50127(15) -0.52347(12)
C2A C 0.16440(15) 0.00127(15) -0.47653(12)
C2I C -0.16440(15) -0.00127(15) -0.52347(12)
C3H C 0.70083(15) 0.56749(16) -0.54559(12)
C3A C 0.20083(15) 0.06749(16) -0.45441(12)
C3I C -0.20083(15) -0.06749(16) -0.54559(12)
C4H C 0.58101(16) 0.50073(16) -0.51258(12)
C4A C 0.08101(16) 0.00073(16) -0.48742(12)
C4I C -0.08101(16) -0.00073(16) -0.51258(12)
C5H C 0.54380(17) 0.43516(17) -0.48821(14)
C5A C 0.04380(17) -0.06484(17) -0.51179(14)
C5I C -0.04380(17) 0.06484(17) -0.48821(14)
H1H H 0.5730 0.3913 -0.4799
H1A H 0.0730 -0.1087 -0.5201
H1I H -0.0730 0.1087 -0.4799
C6H C 0.53439(17) 0.56522(17) -0.52347(14)
C6A C 0.03439(17) 0.06522(17) -0.47653(14)
C6I C -0.03439(17) -0.06522(17) -0.52347(14)
H2H H 0.5568 0.6096 -0.5390
H2A H 0.0568 0.1096 -0.4610
H2I H -0.0568 -0.1096 -0.5390
C7F C 0.2807(4) 0.1922(4) -0.5637(3)
C7A C 0.1922(4) 0.2193(4) -0.5637(3)
C7G C 0.2193(4) 0.3078(4) -0.5637(3)
C8F C 0.2830(4) 0.1892(4) -0.6214(2)
C8A C 0.1892(4) 0.2170(4) -0.6214(2)
C8G C 0.2170(4) 0.3108(4) -0.6214(2)
C9F C 0.3076(4) 0.2167(5) -0.8083(2)
C9A C 0.2167(5) 0.1924(4) -0.8083(2)
C9G C 0.1924(4) 0.2833(5) -0.8083(2)
C10A C 0.2158(5) 0.1897(4) -0.7466(3)
C10G C 0.1897(4) 0.2842(5) -0.7466(3)
C10F C 0.3103(4) 0.2158(5) -0.7466(3)
C13A C 0.2190(2) 0.6922(2) -0.62672(15)
C13D C 0.1922(2) 0.7190(2) -0.87328(15)
C13E C 0.3078(2) 0.7810(2) -0.87328(15)
H3A H 0.1972 0.6512 -0.6063
H3D H 0.1512 0.6972 -0.8937
H3E H 0.3488 0.8028 -0.8937
C14A C 0.2174(2) 0.6894(3) -0.68700(14)
C14D C 0.1894(3) 0.7174(2) -0.81300(14)
C14E C 0.3106(3) 0.7826(2) -0.81300(14)
H4A H 0.1948 0.6478 -0.7061
H4E H 0.3522 0.8052 -0.7939
H4D H 0.1478 0.6948 -0.7939
C15D C 0.2500 0.7500 -0.78252(17)
N1H N 0.73959(14) 0.37787(12) -0.50106(10)
N1A N 0.23959(14) -0.12213(12) -0.49894(10)
N1I N -0.23959(14) 0.12213(12) -0.50106(10)
N1A_2 N 0.23959(14) 0.87787(12) -0.49894(10)
N1O N 0.12213(12) 0.73959(14) -0.50106(10)
N1N N 0.37787(12) 0.76041(14) -0.50106(10)
N2H N 0.72684(13) 0.62361(13) -0.56408(10)
N2A N 0.22684(13) 0.12361(13) -0.43592(10)
N2I N -0.22684(13) -0.12361(13) -0.56408(10)
N2G N 0.12361(13) 0.27316(13) -0.43592(10)
N2F N 0.37639(13) 0.22684(13) -0.43592(10)
N4J N 0.2500 0.2500 -0.3373(2)
N5D N 0.2500 0.7500 -0.90251(14)
N5N N 0.2500 0.7500 -0.40251(14)
Mn1J Mn 0.2500 0.2500 -0.93443(3)
Mn1H Mn 0.7500 0.7500 -0.56557(3)
Mn1H_2 Mn -0.2500 -0.2500 -0.56557(3)
Mn2F Mn 0.7500 0.2500 -0.5000
Mn2D Mn 0.2500 0.7500 -1.0000
Mn2_2 Mn 0.2500 -0.2500 -0.5000
Mn2F_2 Mn -0.2500 0.2500 -0.5000
loop_
_geom_bond_atom_site_label_1
_geom_bond_atom_site_label_2
_geom_bond_site_symmetry_1
_geom_bond_site_symmetry_2
C1 C2 1_555 1_555
C2 C3 1_555 1_555
C3 N2 1_555 1_555
C4 C2 1_555 1_555
C5 C4 1_555 1_555
H1 C5 1_555 1_555
C6 C4 1_555 1_555
H2 C6 1_555 1_555
C7 C8 1_555 1_555
C8 C12 1_555 1_555
C9 C10 1_555 1_555
C10 C11 1_555 1_555
C11 C12 1_555 1_555
C12 C8F 1_555 1_555
C13 H3 1_555 1_555
C14 C13 1_555 1_555
H4 C14 1_555 1_555
C15 C14 1_555 1_555
N1 C1 1_555 1_555
N2 Mn1 1_555 1_555
N3 C7 1_555 1_555
N4 C9 1_555 1_555
N5 C13 1_555 1_555
Mn1 N3 1_555 1_555
Mn2 N1 1_555 1_555
C1H C2H 1_555 1_555
C1A C2A 1_555 1_555
C1I C2I 1_555 1_555
C2H C3H 1_555 1_555
C2A C3A 1_555 1_555
C2I C3I 1_555 1_555
C3H N2H 1_555 1_555
C3A N2A 1_555 1_555
C3I N2I 1_555 1_555
C4H C2H 1_555 1_555
C4A C2A 1_555 1_555
C4I C2I 1_555 1_555
C5H C6 1_555 1_555
C5A C4A 1_555 1_555
C5I C4I 1_555 1_555
H1H C5H 1_555 1_555
H1A C5A 1_555 1_555
H1I C5I 1_555 1_555
C6H C5 1_555 1_555
C6A C4A 1_555 1_555
C6I C4I 1_555 1_555
H2H C6H 1_555 1_555
H2A C6A 1_555 1_555
H2I C6I 1_555 1_555
C7F C7 1_555 1_555
C7A N3 1_555 1_555
C7G C7 1_555 1_555
C8F C8 1_555 1_555
C8A C12 1_555 1_555
C8G C8 1_555 1_555
C9F C9 1_555 1_555
C9A N4 1_555 1_555
C9G C9 1_555 1_555
C10A C11 1_555 1_555
C10G C10 1_555 1_555
C10F C10 1_555 1_555
C13A N5 1_555 1_555
C13D H3D 1_555 1_555
C13E H3E 1_555 1_555
H3A C13A 1_555 1_555
C14A C15 1_555 1_555
C14D C13D 1_555 1_555
C14E C13E 1_555 1_555
H4A C14A 1_555 1_555
H4E C14E 1_555 1_555
H4D C14D 1_555 1_555
C15D C15 1_555 1_555
N1H C1H 1_555 1_555
N1A C1A 1_555 1_555
N1I C1I 1_555 1_555
N1A_2 Mn2 1_555 1_555
N1O Mn2 1_555 1_555
N1N Mn2 1_555 1_555
N2H Mn1H 1_555 1_555
N2A Mn1 1_555 1_555
N2I Mn1H_2 1_555 1_555
N2G Mn1 1_555 1_555
N2F Mn1 1_555 1_555
N4J Mn1 1_555 1_555
N5D C13D 1_555 1_555
N5N Mn2 1_555 1_555
Mn1J N4 1_555 1_555
Mn2F N1H 1_555 1_555
Mn2D N5D 1_555 1_555
Mn2_2 N1A 1_555 1_555
Mn2F_2 N1I 1_555 1_555
C11 C10G 1_555 1_555
C11 C10F 1_555 1_555
C12 C8G 1_555 1_555
N3 C7F 1_555 1_555
N3 C7G 1_555 1_555
N4 C9F 1_555 1_555
N4 C9G 1_555 1_555
N5 Mn2 1_555 1_555
C4H C5H 1_555 1_555
C4H C6H 1_555 1_555
C5A C6I 1_555 1_555
C5I C6A 1_555 1_555
C7F C7A 1_555 1_555
C7F C8F 1_555 1_555
C7A C7G 1_555 1_555
C7A C8A 1_555 1_555
C7G C8G 1_555 1_555
C8F C8A 1_555 1_555
C8A C8G 1_555 1_555
C9F C9A 1_555 1_555
C9F C10F 1_555 1_555
C9A C9G 1_555 1_555
C9A C10A 1_555 1_555
C9G C10G 1_555 1_555
C10A C10G 1_555 1_555
C10A C10F 1_555 1_555
C13A C14A 1_555 1_555
C13E N5D 1_555 1_555
C14D C15D 1_555 1_555
C14E C15D 1_555 1_555

#END
