
#######################################################################
#
#                 Cambridge Crystallographic Data Centre
#                                CCDC 
#
#######################################################################
#
# If this CIF has been generated from an entry in the Cambridge 
# Structural Database, then it will include bibliographic, chemical, 
# crystal, experimental, refinement or atomic coordinate data resulting 
# from the CCDC's data processing and validation procedures.
#
#######################################################################

data_QUQQOJ
_chemical_formula_moiety         '(C24 H16 N8 O2 Zn1)n'
_symmetry_cell_setting           monoclinic
_symmetry_space_group_name_H-M   'C 2/c'
_symmetry_Int_Tables_number      15
_space_group_name_Hall           '-C 2yc'
loop_
_symmetry_equiv_pos_site_id
_symmetry_equiv_pos_as_xyz
1 x,y,z
2 -x,y,1/2-z
3 1/2+x,1/2+y,z
4 1/2-x,1/2+y,1/2-z
5 -x,-y,-z
6 x,-y,1/2+z
7 1/2-x,1/2-y,-z
8 1/2+x,1/2-y,1/2+z
_cell_length_a                   23.985(6)
_cell_length_b                   15.449(4)
_cell_length_c                   7.340(2)
_cell_angle_alpha                90
_cell_angle_beta                 107.60(2)
_cell_angle_gamma                90
_cell_volume                     2592.48
loop_
_atom_site_label
_atom_site_type_symbol
_atom_site_fract_x
_atom_site_fract_y
_atom_site_fract_z
Zn1 Zn 0.2500 0.7500 0.0000
N1 N 0.2788(3) 0.6177(4) 0.0260(10)
C1 C 0.0619(3) 0.7162(5) -0.6838(11)
N2 N 0.1848(3) 0.7180(5) -0.2585(11)
N3 N 0.1896(3) 0.7197(5) -0.8410(11)
C2 C 0.1262(3) 0.7175(5) -0.6161(12)
C3 C 0.0315(3) 0.7161(5) -0.8804(12)
H1 H 0.0523 0.7162 -0.9686
C4 C 0.1600(3) 0.7183(5) -0.7377(13)
C5 C 0.1577(3) 0.7176(5) -0.4186(12)
C6 C 0.0291(4) 0.7158(6) -0.5555(12)
H2 H 0.0482 0.7153 -0.4248
C7 C 0.2594(4) 0.4661(6) 0.0185(14)
H3 H 0.2330 0.4216 0.0144
C8 C 0.2420(4) 0.5517(6) 0.0164(13)
H4 H 0.2033 0.5636 0.0080
O1 O 0.4395(4) 0.5708(6) -0.0399(15)
N4 N 0.4395(4) 0.4301(6) 0.0293(19)
H5 H 0.4722 0.4225 0.0061
H6 H 0.4224 0.3870 0.0644
C9 C 0.3166(5) 0.4473(7) 0.0267(19)
H7 H 0.3294 0.3903 0.0320
C10 C 0.3545(5) 0.5162(7) 0.0269(16)
C11 C 0.3341(4) 0.5992(7) 0.0337(16)
H8 H 0.3601 0.6449 0.0443
C12 C 0.4159(5) 0.5063(8) 0.0112(16)
Zn1_2 Zn 0.2500 0.7500 -1.0000
Zn1A Zn -0.2500 0.7500 -0.5000
Zn1A_2 Zn -0.2500 0.7500 -1.5000
N1F N 0.2212(3) 0.8823(4) -0.0260(10)
C1A C -0.0619(3) 0.7162(5) -0.8162(11)
N2A N -0.1848(3) 0.7180(5) -1.2415(11)
N2F N 0.3152(3) 0.7820(5) 0.2585(11)
N3A N -0.1896(3) 0.7197(5) -0.6590(11)
N3_2 N 0.1896(3) 0.7197(5) 0.1590(11)
N3F N 0.3104(3) 0.7803(5) -0.1590(11)
C2A C -0.1262(3) 0.7175(5) -0.8839(12)
C3A C -0.0315(3) 0.7161(5) -0.6196(12)
H1A H -0.0523 0.7162 -0.5314
C4A C -0.1600(3) 0.7183(5) -0.7623(13)
C5A C -0.1577(3) 0.7176(5) -1.0814(12)
C6A C -0.0291(4) 0.7158(6) -0.9445(12)
H2A H -0.0482 0.7153 -1.0752
C7F C 0.2406(4) 1.0339(6) -0.0185(14)
H3F H 0.2670 1.0784 -0.0144
C8F C 0.2580(4) 0.9483(6) -0.0164(13)
H4F H 0.2967 0.9364 -0.0080
O1F O 0.0605(4) 0.9292(6) 0.0399(15)
N4F N 0.0605(4) 1.0699(6) -0.0293(19)
H5F H 0.0278 1.0775 -0.0061
H6F H 0.0776 1.1130 -0.0644
C9F C 0.1834(5) 1.0527(7) -0.0267(19)
H7F H 0.1706 1.1097 -0.0320
C10F C 0.1455(5) 0.9838(7) -0.0269(16)
C11F C 0.1659(4) 0.9008(7) -0.0337(16)
H8F H 0.1399 0.8551 -0.0443
C12F C 0.0841(5) 0.9937(8) -0.0112(16)
loop_
_geom_bond_atom_site_label_1
_geom_bond_atom_site_label_2
_geom_bond_site_symmetry_1
_geom_bond_site_symmetry_2
Zn1 N1 1_555 1_555
N1 C8 1_555 1_555
C1 C2 1_555 1_555
N2 Zn1 1_555 1_555
N3 C4 1_555 1_555
C2 C4 1_555 1_555
C3 C1 1_555 1_555
H1 C3 1_555 1_555
C5 N2 1_555 1_555
C6 C1 1_555 1_555
H2 C6 1_555 1_555
C7 H3 1_555 1_555
C8 C7 1_555 1_555
H4 C8 1_555 1_555
O1 C12 1_555 1_555
N4 H5 1_555 1_555
H6 N4 1_555 1_555
C9 C7 1_555 1_555
H7 C9 1_555 1_555
C10 C9 1_555 1_555
C11 N1 1_555 1_555
H8 C11 1_555 1_555
C12 N4 1_555 1_555
Zn1_2 N3 1_555 1_555
Zn1A N3A 1_555 1_555
Zn1A_2 N2A 1_555 1_555
N1F Zn1 1_555 1_555
C1A C2A 1_555 1_555
N2A C5A 1_555 1_555
N2F Zn1 1_555 1_555
N3A C4A 1_555 1_555
N3_2 Zn1 1_555 1_555
N3F Zn1 1_555 1_555
C2A C4A 1_555 1_555
C3A C6 1_555 1_555
H1A C3A 1_555 1_555
C5A C2A 1_555 1_555
C6A C3 1_555 1_555
H2A C6A 1_555 1_555
C7F H3F 1_555 1_555
C8F N1F 1_555 1_555
H4F C8F 1_555 1_555
O1F C12F 1_555 1_555
N4F H5F 1_555 1_555
H6F N4F 1_555 1_555
C9F C7F 1_555 1_555
H7F C9F 1_555 1_555
C10F C9F 1_555 1_555
C11F N1F 1_555 1_555
H8F C11F 1_555 1_555
C12F N4F 1_555 1_555
C2 C5 1_555 1_555
C10 C11 1_555 1_555
C10 C12 1_555 1_555
C1A C3A 1_555 1_555
C1A C6A 1_555 1_555
C7F C8F 1_555 1_555
C10F C11F 1_555 1_555
C10F C12F 1_555 1_555

#END
