
#######################################################################
#
#                 Cambridge Crystallographic Data Centre
#                                CCDC 
#
#######################################################################
#
# If this CIF has been generated from an entry in the Cambridge 
# Structural Database, then it will include bibliographic, chemical, 
# crystal, experimental, refinement or atomic coordinate data resulting 
# from the CCDC's data processing and validation procedures.
#
#######################################################################

data_KUSDOT
_chemical_formula_moiety         '(C24 H12 Cd1 N6 O6 1-)n'
_symmetry_cell_setting           monoclinic
_symmetry_space_group_name_H-M   'C 2/c'
_symmetry_Int_Tables_number      15
_space_group_name_Hall           '-C 2yc'
loop_
_symmetry_equiv_pos_site_id
_symmetry_equiv_pos_as_xyz
1 x,y,z
2 -x,y,1/2-z
3 1/2+x,1/2+y,z
4 1/2-x,1/2+y,1/2-z
5 -x,-y,-z
6 x,-y,1/2+z
7 1/2-x,1/2-y,-z
8 1/2+x,1/2-y,1/2+z
_cell_length_a                   30.664(5)
_cell_length_b                   17.225(5)
_cell_length_c                   27.371(5)
_cell_angle_alpha                90
_cell_angle_beta                 105.900(5)
_cell_angle_gamma                90
_cell_volume                     13903.9
loop_
_atom_site_label
_atom_site_type_symbol
_atom_site_fract_x
_atom_site_fract_y
_atom_site_fract_z
_atom_site_U_iso_or_equiv
_atom_site_thermal_displace_type
Cd1 Cd 0.37079(2) 0.76297(3) 0.14349(2) 0.0801 Uani
C1 C 0.28802(19) 0.9509(3) 0.2270(2) 0.1261 Uani
N1 N 0.26840(15) 0.9262(3) 0.1792(2) 0.1120 Uani
C2 C 0.29248(17) 0.8837(3) 0.15426(17) 0.1007 Uani
N2 N 0.33618(16) 0.8660(2) 0.1771(2) 0.0825 Uani
C3 C 0.35581(14) 0.8906(3) 0.2249(2) 0.1047 Uani
N3 N 0.33172(19) 0.9331(3) 0.24982(18) 0.1225 Uani
C4 C 0.2309(4) 0.8794(6) 0.0732(4) 0.1160 Uiso
C5 C 0.2086(4) 0.9526(5) 0.0787(4) 0.1880 Uiso
H1 H 0.2196 0.9843 0.1069 0.2260 Uiso
C6 C 0.1694(4) 0.9735(5) 0.0391(5) 0.1620 Uiso
H2 H 0.1554 1.0211 0.0400 0.1940 Uiso
C7 C 0.1516(3) 0.9211(6) -0.0020(5) 0.1190 Uiso
H3 H 0.1260 0.9347 -0.0278 0.1430 Uiso
C8 C 0.1730(3) 0.8479(6) -0.0035(4) 0.1020 Uiso
C9 C 0.1577(3) 0.8018(5) -0.0520(4) 0.0935 Uani
C10 C 0.2228(4) 1.0364(8) 0.2324(5) 0.1070 Uiso
C11 C 0.1891(5) 1.0014(7) 0.1926(5) 0.1470 Uiso
H4 H 0.1970 0.9618 0.1734 0.1770 Uiso
C12 C 0.1435(5) 1.0265(8) 0.1819(5) 0.1390 Uiso
H5 H 0.1214 1.0035 0.1557 0.1670 Uiso
C13 C 0.1316(4) 1.0867(9) 0.2110(6) 0.1630 Uiso
H6 H 0.1017 1.1032 0.2040 0.1960 Uiso
C14 C 0.1544(4) 1.1599(5) 0.2962(4) 0.1125 Uani
C15 C 0.4315(3) 0.9132(6) 0.2888(4) 0.0780 Uiso
C16 C 0.4239(3) 0.9713(6) 0.3201(4) 0.1050 Uiso
H7 H 0.3956 0.9950 0.3132 0.1260 Uiso
C17 C 0.5514(3) 0.8474(6) 0.3545(4) 0.1114 Uani
N4 N 0.2780(4) 0.8785(6) 0.0999(4) 0.0590 Uiso
N5 N 0.2710(5) 1.0097(8) 0.2488(5) 0.1010 Uiso
N6 N 0.4016(4) 0.8918(6) 0.2370(4) 0.0590 Uiso
O1 O 0.18082(16) 0.7473(3) -0.05792(17) 0.0925 Uani
O2 O 0.12168(18) 0.8254(3) -0.0830(2) 0.1175 Uani
O3 O 0.11373(17) 1.1812(3) 0.2857(2) 0.1217 Uani
O4 O 0.18500(17) 1.1820(3) 0.3317(2) 0.1094 Uani
O5 O 0.55650(15) 0.8012(3) 0.3221(2) 0.0906 Uani
O6 O 0.58090(16) 0.8640(4) 0.3937(2) 0.1466 Uani
C18 C 0.5001(4) 0.9591(6) 0.3717(4) 0.0940 Uiso
H8 H 0.5233 0.9747 0.3998 0.1120 Uiso
C19 C 0.5077(3) 0.9011(6) 0.3404(4) 0.0880 Uiso
C20 C 0.4734(3) 0.8781(5) 0.2989(4) 0.0540 Uiso
H9 H 0.4785 0.8389 0.2778 0.0650 Uiso
C21 C 0.4582(4) 0.9942(6) 0.3616(4) 0.1000 Uiso
H10 H 0.4531 1.0334 0.3827 0.1200 Uiso
C22 C 0.1653(5) 1.1218(8) 0.2508(6) 0.0960 Uiso
C23 C 0.2109(5) 1.0966(8) 0.2615(6) 0.0680 Uiso
H11 H 0.2330 1.1197 0.2877 0.0810 Uiso
C24 C 0.2123(3) 0.8271(6) 0.0361(4) 0.0380 Uiso
H12 H 0.2250 0.7780 0.0365 0.0460 Uiso
Cd1A Cd 0.62921(2) 0.76297(3) 0.35651(2) 0.0801 Uani
Cd1C Cd 0.12921(2) 1.26297(3) 0.35651(2) 0.0801 Uani
Cd1F Cd 0.12921(2) 0.73703(3) -0.14349(2) 0.0801 Uani
O1F O 0.31918(16) 0.7527(3) 0.05792(17) 0.0925 Uani
O2F O 0.37832(18) 0.6746(3) 0.0830(2) 0.1175 Uani
O3C O 0.38627(17) 0.6812(3) 0.2143(2) 0.1217 Uani
O4C O 0.31500(17) 0.6820(3) 0.1683(2) 0.1094 Uani
O5A O 0.44350(15) 0.8012(3) 0.1779(2) 0.0906 Uani
O6A O 0.41910(16) 0.8640(4) 0.1063(2) 0.1466 Uani
loop_
_atom_site_aniso_label
_atom_site_aniso_U_11
_atom_site_aniso_U_22
_atom_site_aniso_U_33
_atom_site_aniso_U_23
_atom_site_aniso_U_13
_atom_site_aniso_U_12
Cd1 0.0437(3) 0.1129(5) 0.0749(4) -0.0100(4) 0.0012(2) -0.0063(3)
C1 0.104(6) 0.141(6) 0.127(7) -0.044(6) 0.021(6) 0.034(5)
N1 0.071(5) 0.157(6) 0.089(5) -0.051(5) -0.010(4) 0.010(4)
C2 0.094(7) 0.114(7) 0.091(7) -0.033(6) 0.020(6) 0.022(5)
N2 0.030(4) 0.118(5) 0.082(5) 0.002(4) -0.014(3) 0.023(3)
C3 0.056(6) 0.156(8) 0.089(7) -0.034(6) -0.002(5) 0.027(5)
N3 0.061(5) 0.185(7) 0.103(6) -0.036(5) -0.009(4) 0.043(4)
C9 0.053(6) 0.103(7) 0.120(8) -0.024(6) 0.016(6) 0.008(5)
C14 0.084(8) 0.123(7) 0.115(9) -0.006(6) 0.001(6) 0.010(6)
C17 0.074(7) 0.151(9) 0.091(7) -0.019(7) -0.008(6) 0.034(6)
O1 0.065(3) 0.132(5) 0.068(3) -0.016(4) -0.003(3) 0.014(3)
O2 0.065(4) 0.173(5) 0.100(4) -0.042(4) -0.002(3) 0.016(4)
O3 0.051(4) 0.184(5) 0.117(5) -0.015(4) 0.001(3) 0.031(4)
O4 0.056(4) 0.159(5) 0.106(5) -0.025(4) 0.010(3) 0.020(3)
O5 0.058(3) 0.135(5) 0.073(4) 0.012(3) 0.008(3) 0.029(3)
O6 0.049(4) 0.230(6) 0.126(5) -0.045(5) -0.035(3) 0.028(4)
Cd1A 0.0437 0.1129 0.0749 0.01 0.0012 0.0063
Cd1C 0.0437 0.1129 0.0749 0.01 0.0012 0.0063
Cd1F 0.0437 0.1129 0.0749 -0.01 0.0012 -0.0063
O1F 0.065 0.132 0.068 -0.016 -0.003 0.014
O2F 0.065 0.173 0.1 -0.042 -0.002 0.016
O3C 0.051 0.184 0.117 0.015 0.001 -0.031
O4C 0.056 0.159 0.106 0.025 0.01 -0.02
O5A 0.058 0.135 0.073 -0.012 0.008 -0.029
O6A 0.049 0.23 0.126 0.045 -0.035 -0.028
loop_
_geom_bond_atom_site_label_1
_geom_bond_atom_site_label_2
_geom_bond_site_symmetry_1
_geom_bond_site_symmetry_2
Cd1 N2 1_555 1_555
C1 N1 1_555 1_555
N1 C2 1_555 1_555
C2 N2 1_555 1_555
N2 C3 1_555 1_555
C3 N3 1_555 1_555
N3 C1 1_555 1_555
C4 C5 1_555 1_555
C5 H1 1_555 1_555
C6 C5 1_555 1_555
H2 C6 1_555 1_555
C7 C6 1_555 1_555
H3 C7 1_555 1_555
C8 C7 1_555 1_555
C9 C8 1_555 1_555
C10 C11 1_555 1_555
C11 H4 1_555 1_555
C12 C11 1_555 1_555
H5 C12 1_555 1_555
C13 C12 1_555 1_555
H6 C13 1_555 1_555
C14 O3 1_555 1_555
C15 C16 1_555 1_555
C16 H7 1_555 1_555
C17 O5 1_555 1_555
N4 C2 1_555 1_555
N5 C1 1_555 1_555
N6 C3 1_555 1_555
O1 C9 1_555 1_555
O2 C9 1_555 1_555
O3 Cd1C 1_555 1_555
O4 C14 1_555 1_555
O5 Cd1A 1_555 1_555
O6 C17 1_555 1_555
C18 H8 1_555 1_555
C19 C17 1_555 1_555
C20 C15 1_555 1_555
H9 C20 1_555 1_555
C21 C16 1_555 1_555
H10 C21 1_555 1_555
C22 C13 1_555 1_555
C23 C10 1_555 1_555
H11 C23 1_555 1_555
C24 C4 1_555 1_555
H12 C24 1_555 1_555
Cd1A O6 1_555 1_555
Cd1C O4 1_555 1_555
Cd1F O1 1_555 1_555
O1F Cd1 1_555 1_555
O2F Cd1 1_555 1_555
O3C Cd1 1_555 1_555
O4C Cd1 1_555 1_555
O5A Cd1 1_555 1_555
O6A Cd1 1_555 1_555
C4 N4 1_555 1_555
C8 C24 1_555 1_555
C10 N5 1_555 1_555
C14 C22 1_555 1_555
C15 N6 1_555 1_555
O2 Cd1F 1_555 1_555
C18 C19 1_555 1_555
C18 C21 1_555 1_555
C19 C20 1_555 1_555
C22 C23 1_555 1_555

#END
