
#######################################################################
#
#                 Cambridge Crystallographic Data Centre
#                                CCDC 
#
#######################################################################
#
# If this CIF has been generated from an entry in the Cambridge 
# Structural Database, then it will include bibliographic, chemical, 
# crystal, experimental, refinement or atomic coordinate data resulting 
# from the CCDC's data processing and validation procedures.
#
#######################################################################

data_HASTAY
_chemical_formula_moiety         '(C112 H74 N26 O44 Ru4 Zn10)n'
_symmetry_cell_setting           monoclinic
_symmetry_space_group_name_H-M   'P 2/n'
_symmetry_Int_Tables_number      13
_space_group_name_Hall           '-P 2yac'
loop_
_symmetry_equiv_pos_site_id
_symmetry_equiv_pos_as_xyz
1 x,y,z
2 1/2-x,y,1/2-z
3 -x,-y,-z
4 1/2+x,-y,1/2+z
_cell_length_a                   21.1293(11)
_cell_length_b                   16.4835(10)
_cell_length_c                   24.9690(15)
_cell_angle_alpha                90
_cell_angle_beta                 92.760(3)
_cell_angle_gamma                90
_cell_volume                     8686.24
loop_
_atom_site_label
_atom_site_type_symbol
_atom_site_fract_x
_atom_site_fract_y
_atom_site_fract_z
N1 N 1.0951(5) 0.6171(7) 0.0060(5)
N2 N 1.5920(4) 0.8877(6) -0.0133(4)
O1 O 1.6496(9) 0.3992(15) -0.3060(8)
O2 O 1.5953(8) 0.4561(8) -0.2491(7)
C1 C 1.5962(8) 0.4104(9) -0.2842(7)
O3 O 1.3664(5) 1.3618(6) -0.7121(3)
C2 C 1.3662(8) 1.3691(10) -0.6622(6)
O4 O 1.2232(4) 0.0454(6) -0.4555(4)
C3 C 1.2549(7) 0.1035(9) -0.4758(6)
O5 O 1.2081(5) 0.5715(7) -0.0731(6)
C4 C 1.2553(9) 0.5980(11) -0.0481(9)
O6 O 1.3848(7) 0.8469(6) 0.1510(5)
C5 C 1.4763(3) 1.1991(4) -0.5682(3)
C6 C 1.4657(4) 1.1844(4) -0.6227(3)
H1 H 1.4833 1.1383 -0.6384
C7 C 1.4291(4) 1.2380(5) -0.6541(2)
H2 H 1.4219 1.2281 -0.6909
C8 C 1.4030(4) 1.3062(5) -0.6309(3)
C9 C 1.4136(4) 1.3208(4) -0.5764(3)
H3 H 1.3960 1.3669 -0.5607
N3 N 1.4503(3) 1.2673(5) -0.5450(2)
Ru1 Ru 1.47869(4) 0.77582(6) -0.04851(4)
C10 C 1.5142(3) 1.1509(4) -0.5327(2)
C11 C 1.5423(4) 1.0788(5) -0.5481(2)
H4 H 1.5390 1.0622 -0.5841
C12 C 1.5754(3) 1.0314(4) -0.5102(3)
H5 H 1.5944 0.9826 -0.5205
C13 C 1.5803(3) 1.0560(4) -0.4569(3)
C14 C 1.5522(3) 1.1281(4) -0.4415(2)
H6 H 1.5556 1.1447 -0.4055
N4 N 1.5192(3) 1.1755(3) -0.4795(3)
Ru2 Ru 1.47439(4) 1.28684(6) -0.46409(4)
C15 C 1.3995(3) 0.2170(5) -0.3780(3)
C16 C 1.3530(4) 0.1732(6) -0.3532(2)
H7 H 1.3531 0.1709 -0.3155
C17 C 1.3063(4) 0.1329(6) -0.3839(3)
H8 H 1.2748 0.1033 -0.3671
C18 C 1.3062(3) 0.1363(5) -0.4396(3)
C19 C 1.3527(3) 0.1801(5) -0.4644(2)
H9 H 1.3526 0.1824 -0.5020
N5 N 1.3994(3) 0.2205(4) -0.4336(3)
Zn1 Zn 1.66070(8) 0.98720(11) -0.30741(6)
C20 C 1.4475(3) 0.2637(5) -0.3512(3)
C21 C 1.4483(4) 0.2796(7) -0.2965(3)
H10 H 1.4166 0.2578 -0.2755
C22 C 1.4958(5) 0.3278(7) -0.2727(2)
H11 H 1.4962 0.3385 -0.2358
C23 C 1.5425(4) 0.3601(5) -0.3037(3)
C24 C 1.5418(3) 0.3442(5) -0.3584(3)
H12 H 1.5735 0.3660 -0.3793
N6 N 1.4943(3) 0.2960(5) -0.3821(2)
Zn2 Zn 1.66284(8) 0.54150(11) -0.24552(7)
C25 C 1.4371(3) 0.7741(4) -0.1627(3)
C26 C 1.4351(3) 0.7930(5) -0.2170(2)
H13 H 1.4034 0.7707 -0.2402
C27 C 1.4802(4) 0.8449(5) -0.2370(2)
H14 H 1.4788 0.8577 -0.2737
C28 C 1.5271(3) 0.8780(4) -0.2027(3)
C29 C 1.5290(3) 0.8591(4) -0.1484(2)
H15 H 1.5608 0.8814 -0.1252
N7 N 1.4840(3) 0.8071(4) -0.1284(2)
Zn3 Zn 1.34137(8) 0.92871(11) 0.18646(7)
C30 C 1.3910(3) 0.7245(5) -0.1385(3)
C31 C 1.3385(4) 0.6894(6) -0.1651(2)
H16 H 1.3322 0.6955 -0.2024
C32 C 1.2954(3) 0.6452(5) -0.1365(4)
H17 H 1.2600 0.6214 -0.1545
C33 C 1.3048(3) 0.6360(5) -0.0814(4)
C34 C 1.3572(4) 0.6711(5) -0.0548(2)
H18 H 1.3636 0.6650 -0.0175
N8 N 1.4003(3) 0.7153(4) -0.0834(3)
Zn4 Zn 1.65086(7) 0.98016(10) -0.00407(7)
C35 C 1.5354(3) 0.6251(4) -0.0024(2)
C36 C 1.5727(4) 0.5558(4) 0.0030(2)
H19 H 1.5744 0.5268 0.0354
C37 C 1.6074(4) 0.5295(4) -0.0396(3)
H20 H 1.6327 0.4827 -0.0359
C38 C 1.6049(4) 0.5724(4) -0.0876(3)
C39 C 1.5676(3) 0.6417(4) -0.0930(2)
H21 H 1.5658 0.6707 -0.1254
N9 N 1.5328(3) 0.6680(3) -0.0504(3)
Zn5 Zn 1.15687(9) 0.53344(12) -0.01023(8)
C40 C 1.4975(3) 0.6536(4) 0.0382(3)
C41 C 1.4899(4) 0.6157(4) 0.0872(3)
H22 H 1.5082 0.5646 0.0941
C42 C 1.4551(4) 0.6534(5) 0.1260(2)
H23 H 1.4499 0.6277 0.1592
C43 C 1.4280(4) 0.7290(5) 0.1159(3)
C44 C 1.4356(4) 0.7669(3) 0.0669(3)
H24 H 1.4173 0.8180 0.0600
N10 N 1.4704(3) 0.7293(4) 0.0281(2)
O7 O 1.7153(4) 0.8921(6) -0.3118(3)
C45 C 1.4246(5) 0.8688(7) -0.0367(5)
O8 O 1.6013(4) 0.9795(6) -0.1857(4)
O9 O 1.2634(4) 0.9572(6) 0.1405(4)
O10 O 1.5885(4) 0.9302(6) -0.2682(3)
N11 N 1.3934(5) 0.9257(6) -0.0269(4)
C46 C 1.6111(6) 1.0046(9) -0.4148(6)
O11 O 1.6345(4) 0.5867(5) -0.1764(4)
O12 O 1.6293(5) 0.9377(6) -0.4267(4)
O13 O 1.2443(5) 0.1304(7) -0.5206(4)
O14 O 1.6802(5) 0.4908(6) -0.1284(4)
O15 O 1.6122(4) 1.0344(6) -0.3676(3)
N12 N 1.1073(6) 0.4422(7) -0.0404(5)
O16 O 1.6873(4) 1.0720(5) -0.2577(3)
O17 O 1.2021(5) 0.4845(9) 0.0561(5)
O18 O 1.3273(4) 0.9777(5) 0.0752(3)
C47 C 1.0757(6) 0.3876(8) -0.0399(5)
C48 C 1.5499(5) 0.8426(8) -0.0235(5)
N13 N 1.7661(5) 0.7879(7) -0.3489(4)
C49 C 1.2726(5) 0.9763(10) 0.0927(5)
C50 C 1.0488(6) 0.6506(8) 0.0156(5)
O19 O 1.7500 0.5164(8) -0.2500
C51 C 1.5760(6) 0.9351(8) -0.2220(5)
C52 C 1.6421(6) 0.5456(8) -0.1344(5)
C53 C 1.8071(8) 0.7719(10) -0.3008(6)
C54 C 1.7228(6) 0.8471(9) -0.3507(6)
C55 C 1.7749(11) 0.7361(10) -0.3955(7)
O20 O 1.3837(12) 0.7423(10) 0.2007(5)
O21 O 1.2663(6) 0.5960(9) 0.0002(6)
C56 C 1.3934(8) 0.7736(8) 0.1558(5)
O22 O 1.3362(8) 1.4198(10) -0.6395(5)
N1C N 1.5951(5) 1.3829(7) -0.4940(5)
N1B N 1.9049(5) 1.3829(7) -0.0060(5)
N2B N 1.4080(4) 1.1123(6) 0.0133(4)
O1C O 2.1496(9) 0.6008(15) 0.1940(8)
O2C O 2.0953(8) 0.5439(8) 0.2509(7)
C1C C 2.0962(8) 0.5896(9) 0.2158(7)
O3B O 1.6336(5) 0.6382(6) -0.2879(3)
O3A O 2.1336(5) 0.3618(6) 0.2121(3)
C2B C 1.6338(8) 0.6309(10) -0.3378(6)
O4C O 1.7232(4) 0.9546(6) 0.0445(4)
O4A O 1.2768(4) 1.0454(6) -0.0445(4)
C3C C 1.7549(7) 0.8965(9) 0.0242(6)
O5B O 1.7919(5) 1.4285(7) 0.0731(6)
C4B C 1.7447(9) 1.4020(11) 0.0481(9)
O6B O 1.6152(7) 1.1531(6) -0.1510(5)
C5B C 1.5237(3) 0.8009(4) -0.4318(3)
C6B C 1.5343(4) 0.8156(4) -0.3773(3)
H1B H 1.5167 0.8617 -0.3616
C7B C 1.5709(4) 0.7620(5) -0.3459(2)
H2B H 1.5781 0.7719 -0.3091
C8B C 1.5970(4) 0.6938(5) -0.3691(3)
C9B C 1.5864(4) 0.6792(4) -0.4236(3)
H3B H 1.6040 0.6331 -0.4393
N3B N 1.5497(3) 0.7327(5) -0.4550(2)
Ru1B Ru 1.52131(4) 1.22418(6) 0.04851(4)
C10B C 1.4858(3) 0.8491(4) -0.4673(2)
C11B C 1.4577(4) 0.9212(5) -0.4519(2)
H4B H 1.4610 0.9378 -0.4159
C12B C 1.4246(3) 0.9686(4) -0.4898(3)
H5B H 1.4056 1.0174 -0.4795
C13B C 1.4197(3) 0.9440(4) -0.5431(3)
C14B C 1.4478(3) 0.8719(4) -0.5585(2)
H6B H 1.4444 0.8553 -0.5945
N4B N 1.4808(3) 0.8245(3) -0.5205(3)
Ru2B Ru 1.52561(4) 0.71316(6) -0.53591(4)
Ru2_2 Ru 1.47439(4) 0.28684(6) -0.46409(4)
Ru2A Ru 1.02561(4) 0.28684(6) -0.03591(4)
Ru2C Ru 0.97439(4) 0.71316(6) 0.03591(4)
Ru2C_2 Ru 1.97439(4) 0.71316(6) 0.03591(4)
C15C C 1.8995(3) 0.7830(5) 0.1220(3)
C16C C 1.8530(4) 0.8268(6) 0.1468(2)
H7C H 1.8531 0.8291 0.1845
C17C C 1.8063(4) 0.8671(6) 0.1161(3)
H8C H 1.7748 0.8967 0.1329
C18C C 1.8062(3) 0.8637(5) 0.0604(3)
C19C C 1.8527(3) 0.8199(5) 0.0356(2)
H9C H 1.8526 0.8176 -0.0020
N5C N 1.8994(3) 0.7795(4) 0.0664(3)
N5_2 N 1.3994(3) 1.2205(4) -0.4336(3)
N5B N 1.6006(3) 0.7795(4) -0.5664(3)
Zn1B Zn 1.33930(8) 1.01280(11) 0.30741(6)
Zn1B_2 Zn 1.33930(8) 1.01280(11) -0.69259(6)
C20C C 1.9475(3) 0.7363(5) 0.1488(3)
C21C C 1.9483(4) 0.7204(7) 0.2035(3)
H10C H 1.9166 0.7422 0.2245
C22C C 1.9958(5) 0.6722(7) 0.2273(2)
H11C H 1.9962 0.6615 0.2642
C23C C 2.0425(4) 0.6399(5) 0.1963(3)
C24C C 2.0418(3) 0.6558(5) 0.1416(3)
H12C H 2.0735 0.6340 0.1207
N6C N 1.9943(3) 0.7040(5) 0.1179(2)
N6_2 N 1.4943(3) 1.2960(5) -0.3821(2)
N6B N 1.5057(3) 0.7040(5) -0.6179(2)
Zn2B Zn 1.33716(8) 1.45850(11) -0.75448(7)
Zn2A Zn 1.83716(8) 0.54150(11) -0.25448(7)
Zn2C Zn 2.16284(8) 0.45850(11) 0.25448(7)
Zn2B_2 Zn 1.33716(8) 1.45850(11) 0.24552(7)
C25B C 1.5629(3) 1.2259(4) 0.1627(3)
C26B C 1.5649(3) 1.2070(5) 0.2170(2)
H13B H 1.5966 1.2293 0.2402
C27B C 1.5198(4) 1.1551(5) 0.2370(2)
H14B H 1.5212 1.1423 0.2737
C28B C 1.4729(3) 1.1220(4) 0.2027(3)
C29B C 1.4710(3) 1.1409(4) 0.1484(2)
H15B H 1.4392 1.1186 0.1252
N7B N 1.5160(3) 1.1929(4) 0.1284(2)
Zn3B Zn 1.65863(8) 1.07129(11) -0.18646(7)
C30B C 1.6090(3) 1.2755(5) 0.1385(3)
C31B C 1.6615(4) 1.3106(6) 0.1651(2)
H16B H 1.6678 1.3045 0.2024
C32B C 1.7046(3) 1.3548(5) 0.1365(4)
H17B H 1.7400 1.3786 0.1545
C33B C 1.6952(3) 1.3640(5) 0.0814(4)
C34B C 1.6428(4) 1.3289(5) 0.0548(2)
H18B H 1.6364 1.3350 0.0175
N8B N 1.5997(3) 1.2847(4) 0.0834(3)
Zn4B Zn 1.34914(7) 1.01984(10) 0.00407(7)
Zn4C Zn 1.15086(7) 0.01984(10) -0.50407(7)
C35B C 1.4646(3) 1.3749(4) 0.0024(2)
C36B C 1.4273(4) 1.4442(4) -0.0030(2)
H19B H 1.4256 1.4732 -0.0354
C37B C 1.3926(4) 1.4705(4) 0.0396(3)
H20B H 1.3673 1.5173 0.0359
C38B C 1.3951(4) 1.4276(4) 0.0876(3)
C39B C 1.4324(3) 1.3583(4) 0.0930(2)
H21B H 1.4342 1.3293 0.1254
N9B N 1.4672(3) 1.3320(3) 0.0504(3)
Zn5B Zn 1.84313(9) 1.46656(12) 0.01023(8)
Zn5A Zn 1.34313(9) 1.53344(12) -0.48977(8)
Zn5C Zn 1.65687(9) 1.46656(12) -0.51023(8)
C40B C 1.5025(3) 1.3464(4) -0.0382(3)
C41B C 1.5101(4) 1.3843(4) -0.0872(3)
H22B H 1.4918 1.4354 -0.0941
C42B C 1.5449(4) 1.3466(5) -0.1260(2)
H23B H 1.5501 1.3723 -0.1592
C43B C 1.5720(4) 1.2710(5) -0.1159(3)
C44B C 1.5644(4) 1.2331(3) -0.0669(3)
H24B H 1.5827 1.1820 -0.0600
N10B N 1.5296(3) 1.2707(4) -0.0281(2)
O7B O 1.2847(4) 1.1079(6) 0.3118(3)
C45B C 1.5754(5) 1.1312(7) 0.0367(5)
O8B O 1.3987(4) 1.0205(6) 0.1857(4)
O9B O 1.7366(4) 1.0428(6) -0.1405(4)
O10B O 1.4115(4) 1.0698(6) 0.2682(3)
N11B N 1.6066(5) 1.0743(6) 0.0269(4)
C46B C 1.3889(6) 0.9954(9) -0.5852(6)
O11B O 1.3655(4) 1.4133(5) 0.1764(4)
O11C O 2.1345(4) 0.4133(5) 0.3236(4)
O12B O 1.3707(5) 1.0623(6) -0.5733(4)
O13C O 1.7443(5) 0.8696(7) -0.0206(4)
O14B O 1.3198(5) 1.5092(6) 0.1284(4)
O15B O 1.3878(4) 0.9656(6) -0.6324(3)
O15B_2 O 1.3878(4) 0.9656(6) 0.3676(3)
N12A N 1.3927(6) 1.4422(7) -0.4596(5)
N12B N 1.8927(6) 1.5578(7) 0.0404(5)
O16B O 1.3127(4) 0.9280(5) 0.2577(3)
O17B O 1.7979(5) 1.5155(9) -0.0561(5)
O18B O 1.6727(4) 1.0223(5) -0.0752(3)
C47A C 1.4243(6) 1.3876(8) -0.4601(5)
C47C C 1.5757(6) 0.6124(8) -0.5399(5)
C48B C 1.4501(5) 1.1574(8) 0.0235(5)
N13B N 1.2339(5) 1.2121(7) 0.3489(4)
C49B C 1.7274(5) 1.0237(10) -0.0927(5)
C50C C 1.5488(6) 1.3494(8) -0.4844(5)
C50A C 1.4512(6) 0.6506(8) -0.5156(5)
O19B O 2.2500 0.4836(8) 0.2500
C51B C 1.4240(6) 1.0649(8) 0.2220(5)
C52B C 1.3579(6) 1.4544(8) 0.1344(5)
C53B C 1.1929(8) 1.2281(10) 0.3008(6)
C54B C 1.2772(6) 1.1529(9) 0.3507(6)
C55B C 1.2251(11) 1.2639(10) 0.3955(7)
O20B O 1.6163(12) 1.2577(10) -0.2007(5)
O21B O 1.7337(6) 1.4040(9) -0.0002(6)
C56B C 1.6066(8) 1.2264(8) -0.1558(5)
O22B O 1.6638(8) 0.5802(10) -0.3605(5)
O23 O 0.2711(18) 0.542(2) 0.3487(14)
loop_
_geom_bond_atom_site_label_1
_geom_bond_atom_site_label_2
_geom_bond_site_symmetry_1
_geom_bond_site_symmetry_2
N1 Zn5 1_555 1_555
N2 Zn4 1_555 1_555
O1 C1 1_555 1_555
O2 C1 1_555 1_555
C1 C23 1_555 1_555
O3 C2 1_555 1_555
C2 C8 1_555 1_555
O4 C3 1_555 1_555
C3 C18 1_555 1_555
O5 C4 1_555 1_555
C4 C33 1_555 1_555
O6 Zn3 1_555 1_555
C5 C6 1_555 1_555
C6 H1 1_555 1_555
C7 C6 1_555 1_555
H2 C7 1_555 1_555
C8 C7 1_555 1_555
C9 C8 1_555 1_555
H3 C9 1_555 1_555
N3 C5 1_555 1_555
Ru1 N7 1_555 1_555
C10 C5 1_555 1_555
C11 C10 1_555 1_555
H4 C11 1_555 1_555
C12 C11 1_555 1_555
H5 C12 1_555 1_555
C13 C12 1_555 1_555
C14 C13 1_555 1_555
H6 C14 1_555 1_555
N4 C10 1_555 1_555
Ru2 N3 1_555 1_555
C15 C16 1_555 1_555
C16 H7 1_555 1_555
C17 C16 1_555 1_555
H8 C17 1_555 1_555
C18 C17 1_555 1_555
C19 C18 1_555 1_555
H9 C19 1_555 1_555
N5 C15 1_555 1_555
Zn1 O7 1_555 1_555
C20 C15 1_555 1_555
C21 C20 1_555 1_555
H10 C21 1_555 1_555
C22 C21 1_555 1_555
H11 C22 1_555 1_555
C23 C22 1_555 1_555
C24 C23 1_555 1_555
H12 C24 1_555 1_555
N6 C20 1_555 1_555
Zn2 O2 1_555 1_555
C25 C26 1_555 1_555
C26 H13 1_555 1_555
C27 C26 1_555 1_555
H14 C27 1_555 1_555
C28 C27 1_555 1_555
C29 C28 1_555 1_555
H15 C29 1_555 1_555
N7 C25 1_555 1_555
Zn3 O9 1_555 1_555
C30 C25 1_555 1_555
C31 C30 1_555 1_555
H16 C31 1_555 1_555
C32 C31 1_555 1_555
H17 C32 1_555 1_555
C33 C32 1_555 1_555
C34 C33 1_555 1_555
H18 C34 1_555 1_555
N8 Ru1 1_555 1_555
Zn4 O4C 1_555 1_555
C35 C36 1_555 1_555
C36 H19 1_555 1_555
C37 C36 1_555 1_555
H20 C37 1_555 1_555
C38 C37 1_555 1_555
C39 C38 1_555 1_555
H21 C39 1_555 1_555
N9 Ru1 1_555 1_555
Zn5 O5 1_555 1_555
C40 C35 1_555 1_555
C41 C40 1_555 1_555
H22 C41 1_555 1_555
C42 C41 1_555 1_555
H23 C42 1_555 1_555
C43 C42 1_555 1_555
C44 C43 1_555 1_555
H24 C44 1_555 1_555
N10 Ru1 1_555 1_555
O7 C54 1_555 1_555
C45 Ru1 1_555 1_555
O8 C51 1_555 1_555
O9 C49 1_555 1_555
O10 Zn1 1_555 1_555
N11 C45 1_555 1_555
C46 C13 1_555 1_555
O11 Zn2 1_555 1_555
O12 C46 1_555 1_555
O13 C3 1_555 1_555
O14 C52 1_555 1_555
O15 Zn1 1_555 1_555
N12 Zn5 1_555 1_555
O16 Zn1 1_555 1_555
O17 Zn5 1_555 1_555
O18 C49 1_555 1_555
C47 N12 1_555 1_555
C48 N2 1_555 1_555
N13 C53 1_555 1_555
C50 N1 1_555 1_555
O19 Zn2 1_555 1_555
C51 C28 1_555 1_555
C52 C38 1_555 1_555
C54 N13 1_555 1_555
C55 N13 1_555 1_555
O20 C56 1_555 1_555
O21 C4 1_555 1_555
C56 O6 1_555 1_555
O22 C2 1_555 1_555
N1C Zn5C 1_555 1_555
N1B Zn5B 1_555 1_555
N2B Zn4B 1_555 1_555
O1C C1C 1_555 1_555
O2C C1C 1_555 1_555
C1C C23C 1_555 1_555
O3B Zn2 1_555 1_555
O3A Zn2C 1_555 1_555
C2B O3B 1_555 1_555
O4C C3C 1_555 1_555
O4A Zn4B 1_555 1_555
C3C C18C 1_555 1_555
O5B C4B 1_555 1_555
C4B C33B 1_555 1_555
O6B Zn3B 1_555 1_555
C5B C6B 1_555 1_555
C6B H1B 1_555 1_555
C7B C6B 1_555 1_555
H2B C7B 1_555 1_555
C8B C2B 1_555 1_555
C9B C8B 1_555 1_555
H3B C9B 1_555 1_555
N3B C5B 1_555 1_555
Ru1B N7B 1_555 1_555
C10B C5B 1_555 1_555
C11B C10B 1_555 1_555
H4B C11B 1_555 1_555
C12B C11B 1_555 1_555
H5B C12B 1_555 1_555
C13B C12B 1_555 1_555
C14B C13B 1_555 1_555
H6B C14B 1_555 1_555
N4B C10B 1_555 1_555
Ru2B N3B 1_555 1_555
Ru2_2 N5 1_555 1_555
Ru2A C47 1_555 1_555
Ru2C C50 1_555 1_555
Ru2C_2 N5C 1_555 1_555
C15C C16C 1_555 1_555
C16C H7C 1_555 1_555
C17C C16C 1_555 1_555
H8C C17C 1_555 1_555
C18C C17C 1_555 1_555
C19C C18C 1_555 1_555
H9C C19C 1_555 1_555
N5C C15C 1_555 1_555
N5_2 Ru2 1_555 1_555
N5B Ru2B 1_555 1_555
Zn1B O7B 1_555 1_555
Zn1B_2 O15B 1_555 1_555
C20C C15C 1_555 1_555
C21C C20C 1_555 1_555
H10C C21C 1_555 1_555
C22C C21C 1_555 1_555
H11C C22C 1_555 1_555
C23C C22C 1_555 1_555
C24C C23C 1_555 1_555
H12C C24C 1_555 1_555
N6C Ru2C_2 1_555 1_555
N6_2 Ru2 1_555 1_555
N6B Ru2B 1_555 1_555
Zn2B O3 1_555 1_555
Zn2A O19 1_555 1_555
Zn2C O2C 1_555 1_555
Zn2B_2 O11B 1_555 1_555
C25B C26B 1_555 1_555
C26B H13B 1_555 1_555
C27B C26B 1_555 1_555
H14B C27B 1_555 1_555
C28B C27B 1_555 1_555
C29B C28B 1_555 1_555
H15B C29B 1_555 1_555
N7B C25B 1_555 1_555
Zn3B O8 1_555 1_555
C30B C25B 1_555 1_555
C31B C30B 1_555 1_555
H16B C31B 1_555 1_555
C32B C31B 1_555 1_555
H17B C32B 1_555 1_555
C33B C32B 1_555 1_555
C34B C33B 1_555 1_555
H18B C34B 1_555 1_555
N8B Ru1B 1_555 1_555
Zn4B N11 1_555 1_555
Zn4C O4 1_555 1_555
C35B C36B 1_555 1_555
C36B H19B 1_555 1_555
C37B C36B 1_555 1_555
H20B C37B 1_555 1_555
C38B C37B 1_555 1_555
C39B C38B 1_555 1_555
H21B C39B 1_555 1_555
N9B Ru1B 1_555 1_555
Zn5B O5B 1_555 1_555
Zn5A N12A 1_555 1_555
C40B C35B 1_555 1_555
C41B C40B 1_555 1_555
H22B C41B 1_555 1_555
C42B C41B 1_555 1_555
H23B C42B 1_555 1_555
C43B C42B 1_555 1_555
C44B C43B 1_555 1_555
H24B C44B 1_555 1_555
N10B Ru1B 1_555 1_555
O7B C54B 1_555 1_555
C45B Ru1B 1_555 1_555
O8B Zn3 1_555 1_555
O9B Zn3B 1_555 1_555
O10B Zn1B 1_555 1_555
N11B Zn4 1_555 1_555
C46B C13B 1_555 1_555
O11B C52B 1_555 1_555
O11C Zn2C 1_555 1_555
O12B C46B 1_555 1_555
O13C C3C 1_555 1_555
O14B C52B 1_555 1_555
O15B C46B 1_555 1_555
O15B_2 Zn1B 1_555 1_555
N12A C47A 1_555 1_555
N12B Zn5B 1_555 1_555
O16B Zn3 1_555 1_555
O17B Zn5B 1_555 1_555
O18B Zn4 1_555 1_555
C47A Ru2 1_555 1_555
C47C Ru2B 1_555 1_555
C48B N2B 1_555 1_555
N13B C53B 1_555 1_555
C49B O9B 1_555 1_555
C50C Ru2 1_555 1_555
C50A Ru2B 1_555 1_555
O19B Zn2C 1_555 1_555
C51B C28B 1_555 1_555
C52B C38B 1_555 1_555
C54B N13B 1_555 1_555
C55B N13B 1_555 1_555
O20B C56B 1_555 1_555
O21B C4B 1_555 1_555
C56B O6B 1_555 1_555
O22B C2B 1_555 1_555
C9 N3 1_555 1_555
Ru1 C48 1_555 1_555
C14 N4 1_555 1_555
N4 Ru2 1_555 1_555
C19 N5 1_555 1_555
C24 N6 1_555 1_555
N6 Ru2_2 1_555 1_555
C29 N7 1_555 1_555
C30 N8 1_555 1_555
C34 N8 1_555 1_555
C35 N9 1_555 1_555
C39 N9 1_555 1_555
C40 N10 1_555 1_555
C43 C56 1_555 1_555
C44 N10 1_555 1_555
O10 C51 1_555 1_555
C46 O15 1_555 1_555
O11 C52 1_555 1_555
O16 Zn3B 1_555 1_555
O18 Zn4B 1_555 1_555
N1C C50C 1_555 1_555
C7B C8B 1_555 1_555
C9B N3B 1_555 1_555
Ru1B C48B 1_555 1_555
C14B N4B 1_555 1_555
N4B Ru2B 1_555 1_555
C19C N5C 1_555 1_555
Zn1B O16B 1_555 1_555
C20C N6C 1_555 1_555
C24C N6C 1_555 1_555
C29B N7B 1_555 1_555
C30B N8B 1_555 1_555
C34B N8B 1_555 1_555
C35B N9B 1_555 1_555
C39B N9B 1_555 1_555
C40B N10B 1_555 1_555
C43B C56B 1_555 1_555
C44B N10B 1_555 1_555
C45B N11B 1_555 1_555
O8B C51B 1_555 1_555
O10B C51B 1_555 1_555
O18B C49B 1_555 1_555

#END
