
#######################################################################
#
#                 Cambridge Crystallographic Data Centre
#                                CCDC 
#
#######################################################################
#
# If this CIF has been generated from an entry in the Cambridge 
# Structural Database, then it will include bibliographic, chemical, 
# crystal, experimental, refinement or atomic coordinate data resulting 
# from the CCDC's data processing and validation procedures.
#
#######################################################################

data_LEQQII
_chemical_formula_moiety         'C30 H46 Cu4 N10 O25'
_symmetry_cell_setting           hexagonal
_symmetry_space_group_name_H-M   'P 61 2 2'
_symmetry_Int_Tables_number      178
_space_group_name_Hall           'P 61 2 (0 0 5)'
loop_
_symmetry_equiv_pos_site_id
_symmetry_equiv_pos_as_xyz
1 x,y,z
2 -y,x-y,1/3+z
3 -x+y,-x,2/3+z
4 -x,-y,1/2+z
5 y,-x+y,5/6+z
6 x-y,x,1/6+z
7 y,x,1/3-z
8 x-y,-y,-z
9 -x,-x+y,2/3-z
10 -y,-x,5/6-z
11 -x+y,y,1/2-z
12 x,x-y,1/6-z
_cell_length_a                   16.0503(15)
_cell_length_b                   16.0503(15)
_cell_length_c                   36.843(7)
_cell_angle_alpha                90
_cell_angle_beta                 90
_cell_angle_gamma                120
_cell_volume                     8219.62
loop_
_atom_site_label
_atom_site_type_symbol
_atom_site_fract_x
_atom_site_fract_y
_atom_site_fract_z
_atom_site_U_iso_or_equiv
_atom_site_thermal_displace_type
O10 O -0.068(4) 0.480(5) 0.0360(16) 0.1000 Uiso
O13 O 0.606(3) 0.710(3) 0.2664(8) 0.1000 Uiso
O14 O 0.328(7) 0.737(6) 0.128(2) 0.1000 Uiso
O16 O 0.074(4) 0.723(5) 0.0386(13) 0.1000 Uiso
O19 O -0.100(3) 0.604(3) 0.0868(8) 0.1000 Uiso
O20 O 0.170(5) 0.564(5) 0.9562(15) 0.1000 Uiso
O21 O 0.228(6) 0.751(6) 0.085(2) 0.1000 Uiso
O24 O -0.258(5) 0.392(5) 0.0590(18) 0.1000 Uiso
O25 O 0.233(6) 0.621(6) 0.1161(18) 0.1000 Uiso
Cu1 Cu 0.29777(17) 1.14888(8) 0.0833 0.1115 Uani
Cu2 Cu -0.27383(16) 0.86308(8) 0.0833 0.1134 Uani
O1 O -0.1794(6) 0.8515(10) 0.1114(4) 0.1178 Uani
O2 O 0.2037(7) 1.1620(9) 0.1088(4) 0.1123 Uani
N1 N 0.3979(6) 1.2562(7) 0.1141(3) 0.1062 Uani
C1 C 0.3922(7) 1.2509(7) 0.1517(4) 0.1593 Uani
H1 H 0.3417 1.1977 0.1629 0.1900 Uiso
C2 C 0.4620(9) 1.3252(9) 0.1726(3) 0.1742 Uani
H2 H 0.4582 1.3216 0.1978 0.2100 Uiso
C3 C 0.5375(7) 1.4047(7) 0.1559(4) 0.1103 Uani
C4 C 0.5432(7) 1.4100(7) 0.1182(4) 0.1391 Uani
H3 H 0.5937 1.4632 0.1070 0.1660 Uiso
C5 C 0.4734(8) 1.3357(8) 0.0973(3) 0.1729 Uani
H4 H 0.4772 1.3393 0.0721 0.2070 Uiso
N2 N 0.7557(6) 1.6274(7) 0.2195(3) 0.1296 Uani
C6 C 0.7629(8) 1.6344(8) 0.1819(4) 0.1332 Uani
H5 H 0.8152 1.6869 0.1711 0.1600 Uiso
C7 C 0.6919(10) 1.5631(10) 0.1604(3) 0.2087 Uani
H6 H 0.6967 1.5678 0.1352 0.2480 Uiso
C8 C 0.6136(8) 1.4847(8) 0.1765(4) 0.1204 Uani
C9 C 0.6064(6) 1.4776(7) 0.2141(4) 0.1496 Uani
H7 H 0.5541 1.4252 0.2249 0.1790 Uiso
C10 C 0.6775(8) 1.5490(9) 0.2356(3) 0.1662 Uani
H8 H 0.6726 1.5442 0.2607 0.1980 Uiso
C11 C -0.0338(12) 0.8644(13) 0.1281(5) 0.1178 Uani
H9 H -0.0480 0.8665 0.1533 0.1770 Uiso
H10 H 0.0336 0.9067 0.1239 0.1770 Uiso
H11 H -0.0507 0.7999 0.1216 0.1770 Uiso
C12 C -0.0899(10) 0.8953(12) 0.1057(4) 0.0883 Uani
C13 C -0.0452(15) 0.9774(8) 0.0833 0.0799 Uani
C14 C 0.0696(13) 1.0348(6) 0.0833 0.0641 Uani
C15 C 0.1124(13) 1.1153(13) 0.1039(4) 0.0936 Uani
C16 C 0.0588(11) 1.1491(11) 0.1277(4) 0.0879 Uani
H12 H 0.0006 1.0945 0.1363 0.1320 Uiso
H13 H 0.0433 1.1904 0.1139 0.1320 Uiso
H14 H 0.0984 1.1840 0.1480 0.1320 Uiso
N3 N 0.273(3) 0.914(3) 0.1198(10) 0.3800 Uiso
O3 O 0.305(3) 1.035(3) 0.1230(7) 0.3380 Uiso
O4 O 0.178(3) 0.836(3) 0.0916(11) 0.2200 Uiso
O5 O 0.337(6) 0.871(5) 0.145(2) 0.5400 Uiso
N4 N -0.316(4) 1.043(4) 0.1473(10) 0.6900 Uiso
O6 O -0.2664(17) 0.9831(17) 0.1245(5) 0.1890 Uiso
O7 O -0.242(7) 1.155(6) 0.168(2) 0.6700 Uiso
O8 O -0.442(5) 0.992(6) 0.149(2) 0.4400 Uiso
Cu2E Cu 0.86309(18) 1.72617(16) 0.2500 0.1134 Uani
Cu2D Cu 0.86308(8) 1.13691(18) -0.0834 0.1134 Uani
O1K O -0.1794(6) 0.9691(12) 0.0553(4) 0.1178 Uani
O2K O 0.2037(7) 1.0417(11) 0.0579(4) 0.1123 Uani
N1K N 0.3979(6) 1.1417(9) 0.0526(3) 0.1062 Uani
C1K C 0.3922(7) 1.1413(10) 0.0150(4) 0.1593 Uani
H1K H 0.3417 1.1440 0.0038 0.1900 Uiso
C2K C 0.4620(9) 1.1368(13) -0.0059(3) 0.1742 Uani
H2K H 0.4582 1.1366 -0.0311 0.2100 Uiso
C3K C 0.5375(7) 1.1328(10) 0.0108(4) 0.1103 Uani
C4K C 0.5432(7) 1.1332(10) 0.0485(4) 0.1391 Uani
H3K H 0.5937 1.1305 0.0597 0.1660 Uiso
C5K C 0.4734(8) 1.1377(11) 0.0694(3) 0.1729 Uani
H4K H 0.4772 1.1379 0.0946 0.2070 Uiso
N2K N 0.7557(6) 1.1283(9) -0.0528(3) 0.1296 Uani
N2D N -0.3726(7) 0.8717(9) 0.0528(3) 0.1296 Uani
N2F N -0.3726(7) 0.7557(6) 0.1138(3) 0.1296 Uani
C6K C 0.7629(8) 1.1285(11) -0.0152(4) 0.1332 Uani
H5K H 0.8152 1.1283 -0.0044 0.1600 Uiso
C7K C 0.6919(10) 1.1288(14) 0.0063(3) 0.2087 Uani
H6K H 0.6967 1.1289 0.0315 0.2480 Uiso
C8K C 0.6136(8) 1.1289(11) -0.0098(4) 0.1204 Uani
C9K C 0.6064(6) 1.1288(9) -0.0474(4) 0.1496 Uani
H7K H 0.5541 1.1289 -0.0582 0.1790 Uiso
C10K C 0.6775(8) 1.1285(12) -0.0689(3) 0.1662 Uani
H8K H 0.6726 1.1284 -0.0940 0.1980 Uiso
C11K C -0.0338(12) 1.1018(18) 0.0386(5) 0.1178 Uani
H9K H -0.0480 1.0855 0.0134 0.1770 Uiso
H10K H 0.0336 1.1269 0.0428 0.1770 Uiso
H11K H -0.0507 1.1494 0.0451 0.1770 Uiso
C12K C -0.0899(10) 1.0148(16) 0.0610(4) 0.0883 Uani
C15K C 0.1124(13) 0.9971(18) 0.0628(4) 0.0936 Uani
C16K C 0.0588(11) 0.9097(16) 0.0390(4) 0.0879 Uani
H12K H 0.0006 0.9061 0.0304 0.1320 Uiso
H13K H 0.0433 0.8529 0.0528 0.1320 Uiso
H14K H 0.0984 0.9144 0.0187 0.1320 Uiso
N3K N 0.273(3) 1.359(4) 0.0469(10) 0.3800 Uiso
O3K O 0.305(3) 1.270(4) 0.0437(7) 0.3380 Uiso
O4K O 0.178(3) 1.342(4) 0.0751(11) 0.2200 Uiso
O5K O 0.337(6) 1.466(8) 0.022(2) 0.5400 Uiso
N4K N -0.316(4) 0.641(6) 0.0194(10) 0.6900 Uiso
O6K O -0.2664(17) 0.7505(24) 0.0422(5) 0.1890 Uiso
O7K O -0.242(7) 0.603(9) -0.001(2) 0.6700 Uiso
O8K O -0.442(5) 0.566(8) 0.018(2) 0.4400 Uiso
loop_
_atom_site_aniso_label
_atom_site_aniso_U_11
_atom_site_aniso_U_22
_atom_site_aniso_U_33
_atom_site_aniso_U_23
_atom_site_aniso_U_13
_atom_site_aniso_U_12
Cu1 0.0333(13) 0.094(2) 0.187(3) -0.040(2) 0.000 0.0167(7)
Cu2 0.0292(13) 0.098(2) 0.190(3) 0.039(2) 0.000 0.0146(6)
O1 0.027(5) 0.122(10) 0.172(10) 0.079(9) 0.005(6) 0.013(5)
O2 0.034(5) 0.116(9) 0.173(10) -0.040(8) -0.021(6) 0.027(6)
N1 0.014(5) 0.080(9) 0.160(12) -0.046(9) -0.012(7) -0.025(5)
C1 0.084(14) 0.100(16) 0.23(2) -0.119(17) -0.015(15) -0.002(11)
C2 0.069(13) 0.103(17) 0.28(3) 0.079(18) -0.023(17) -0.010(12)
C3 0.035(8) 0.063(10) 0.211(19) -0.057(12) -0.024(11) 0.008(7)
C4 0.094(15) 0.067(12) 0.20(2) -0.052(14) 0.012(15) -0.002(10)
C5 0.078(13) 0.18(2) 0.176(19) -0.122(18) 0.012(12) 0.001(14)
N2 0.101 0.012 0.25 -0.002 0.064 0.009
C6 0.095 0.068 0.161 -0.018 -0.004 -0.016
C7 0.079 0.2 0.21 -0.09 -0.005 -0.033
C8 0.087 0.052 0.176 0.024 0.009 0
C9 0.049 0.018 0.35 -0.015 -0.057 -0.007
C10 0.15 0.066 0.24 0.045 0.081 0.022
C11 0.068(10) 0.104(14) 0.192(17) 0.074(13) 0.004(11) 0.051(10)
C12 0.042(8) 0.102(12) 0.121(12) 0.038(10) -0.012(8) 0.036(8)
C13 0.071(6) 0.081(6) 0.085(7) 0.000(5) 0.000 0.036(3)
C14 0.056(5) 0.066(6) 0.067(6) -0.006(4) 0.000 0.028(3)
C15 0.085(6) 0.093(6) 0.098(6) 0.001(4) -0.009(4) 0.041(5)
C16 0.091(12) 0.077(9) 0.113(11) 0.014(8) 0.032(9) 0.055(9)
Cu2E 0.098 0.0292 0.19 0 -0.039 0.0146
Cu2D 0.098 0.098 0.19 0.039 0.039 0.0834
O1K 0.027 0.123 0.172 0.074 -0.005 0.014
O2K 0.034 0.096 0.173 -0.019 0.021 0.007
N1K 0.014 0.144 0.16 -0.034 0.012 0.039
C1K 0.084 0.188 0.23 -0.104 0.015 0.086
C2K 0.069 0.192 0.28 0.102 0.023 0.079
C3K 0.035 0.082 0.211 -0.033 0.024 0.027
C4K 0.094 0.165 0.2 -0.064 -0.012 0.096
C5K 0.078 0.256 0.176 -0.134 -0.012 0.077
N2K 0.101 0.095 0.25 -0.066 -0.064 0.092
N2D 0.012 0.095 0.25 -0.066 -0.002 0.003
N2F 0.012 0.101 0.25 -0.064 0.002 0.009
C6K 0.095 0.195 0.161 -0.014 0.004 0.111
C7K 0.079 0.345 0.21 -0.085 0.005 0.112
C8K 0.087 0.139 0.176 0.015 -0.009 0.087
C9K 0.049 0.081 0.35 0.042 0.057 0.056
C10K 0.15 0.172 0.24 -0.036 -0.081 0.128
C11K 0.068 0.07 0.192 0.07 -0.004 0.017
C12K 0.042 0.072 0.121 0.05 0.012 0.006
C15K 0.085 0.096 0.098 0.01 0.009 0.044
C16K 0.091 0.058 0.113 -0.018 -0.032 0.036
loop_
_geom_bond_atom_site_label_1
_geom_bond_atom_site_label_2
_geom_bond_site_symmetry_1
_geom_bond_site_symmetry_2
Cu1 O2 1_555 1_555
Cu2 O1 1_555 1_555
O1 C12 1_555 1_555
O2 C15 1_555 1_555
N1 Cu1 1_555 1_555
C1 N1 1_555 1_555
H1 C1 1_555 1_555
C2 C1 1_555 1_555
H2 C2 1_555 1_555
C3 C2 1_555 1_555
C4 C3 1_555 1_555
H3 C4 1_555 1_555
C5 N1 1_555 1_555
H4 C5 1_555 1_555
N2 C6 1_555 1_555
C6 H5 1_555 1_555
C7 C6 1_555 1_555
H6 C7 1_555 1_555
C8 C3 1_555 1_555
C9 C8 1_555 1_555
H7 C9 1_555 1_555
C10 N2 1_555 1_555
H8 C10 1_555 1_555
C11 H9 1_555 1_555
H10 C11 1_555 1_555
H11 C11 1_555 1_555
C12 C11 1_555 1_555
C13 C12 1_555 1_555
C14 C13 1_555 1_555
C15 C14 1_555 1_555
C16 C15 1_555 1_555
H12 C16 1_555 1_555
H13 C16 1_555 1_555
H14 C16 1_555 1_555
N3 O3 1_555 1_555
O3 Cu1 1_555 1_555
O4 N3 1_555 1_555
O5 N3 1_555 1_555
N4 O6 1_555 1_555
O6 Cu2 1_555 1_555
O7 N4 1_555 1_555
O8 N4 1_555 1_555
Cu2E N2 1_555 1_555
Cu2D N2K 1_555 1_555
O1K Cu2 1_555 1_555
O2K Cu1 1_555 1_555
N1K Cu1 1_555 1_555
C1K N1K 1_555 1_555
H1K C1K 1_555 1_555
C2K C1K 1_555 1_555
H2K C2K 1_555 1_555
C3K C2K 1_555 1_555
C4K C3K 1_555 1_555
H3K C4K 1_555 1_555
C5K N1K 1_555 1_555
H4K C5K 1_555 1_555
N2K C6K 1_555 1_555
N2D Cu2 1_555 1_555
N2F Cu2 1_555 1_555
C6K H5K 1_555 1_555
C7K C6K 1_555 1_555
H6K C7K 1_555 1_555
C8K C3K 1_555 1_555
C9K C8K 1_555 1_555
H7K C9K 1_555 1_555
C10K N2K 1_555 1_555
H8K C10K 1_555 1_555
C11K H9K 1_555 1_555
H10K C11K 1_555 1_555
H11K C11K 1_555 1_555
C12K C13 1_555 1_555
C15K C14 1_555 1_555
C16K C15K 1_555 1_555
H12K C16K 1_555 1_555
H13K C16K 1_555 1_555
H14K C16K 1_555 1_555
N3K O3K 1_555 1_555
O3K Cu1 1_555 1_555
O4K N3K 1_555 1_555
O5K N3K 1_555 1_555
N4K O6K 1_555 1_555
O6K Cu2 1_555 1_555
O7K N4K 1_555 1_555
O8K N4K 1_555 1_555
C4 C5 1_555 1_555
C7 C8 1_555 1_555
C9 C10 1_555 1_555
O1K C12K 1_555 1_555
O2K C15K 1_555 1_555
C4K C5K 1_555 1_555
C7K C8K 1_555 1_555
C9K C10K 1_555 1_555
C11K C12K 1_555 1_555

#END
