
#######################################################################
#
#                 Cambridge Crystallographic Data Centre
#                                CCDC 
#
#######################################################################
#
# If this CIF has been generated from an entry in the Cambridge 
# Structural Database, then it will include bibliographic, chemical, 
# crystal, experimental, refinement or atomic coordinate data resulting 
# from the CCDC's data processing and validation procedures.
#
#######################################################################

data_XINFUW
_chemical_formula_moiety         '(C26 H40 O14 S5 Zn2)n'
_symmetry_cell_setting           orthorhombic
_symmetry_space_group_name_H-M   'P 21 21 21'
_symmetry_Int_Tables_number      19
_space_group_name_Hall           'P 2ac 2ab'
loop_
_symmetry_equiv_pos_site_id
_symmetry_equiv_pos_as_xyz
1 x,y,z
2 1/2-x,-y,1/2+z
3 -x,1/2+y,1/2-z
4 1/2+x,1/2-y,-z
_cell_length_a                   12.6977(16)
_cell_length_b                   15.1033(19)
_cell_length_c                   18.903(2)
_cell_angle_alpha                90
_cell_angle_beta                 90
_cell_angle_gamma                90
_cell_volume                     3625.16
loop_
_atom_site_label
_atom_site_type_symbol
_atom_site_fract_x
_atom_site_fract_y
_atom_site_fract_z
_atom_site_U_iso_or_equiv
_atom_site_thermal_displace_type
Zn1 Zn 0.80121(2) 0.951718(19) 0.774252(15) 0.0184 Uani
Zn2 Zn 0.87233(2) 0.808768(18) 0.618006(15) 0.0171 Uani
O1 O 0.72165(15) 0.96438(13) 0.67906(10) 0.0252 Uani
O2 O 0.73029(15) 0.85078(14) 0.60298(11) 0.0272 Uani
O3 O 0.43398(16) 0.75882(13) 0.45987(11) 0.0258 Uani
O4 O 0.2872(2) 0.83783(18) 0.46024(15) 0.0478 Uani
O5 O 0.78776(15) 0.81341(12) 0.77669(11) 0.0235 Uani
O6 O 0.88984(16) 0.73610(13) 0.70198(10) 0.0263 Uani
O7 O 1.04646(14) 0.45223(13) 0.77187(10) 0.0232 Uani
O8 O 1.03103(15) 0.41046(12) 0.88471(11) 0.0246 Uani
O9 O 0.65832(17) 0.97149(15) 0.82577(12) 0.0300 Uani
C1 C 0.6828(2) 0.91245(17) 0.63435(13) 0.0200 Uani
C2 C 0.5688(2) 0.92355(16) 0.61357(14) 0.0196 Uani
C3 C 0.5060(2) 0.98685(19) 0.64624(16) 0.0271 Uani
H1 H 0.5340 1.0235 0.6810 0.0250 Uiso
C4 C 0.4005(2) 0.9951(2) 0.62646(17) 0.0329 Uani
H2 H 0.3578 1.0367 0.6486 0.0250 Uiso
C5 C 0.3591(2) 0.9414(2) 0.57402(16) 0.0290 Uani
H3 H 0.2891 0.9479 0.5605 0.0250 Uiso
C6 C 0.4215(2) 0.87781(18) 0.54141(14) 0.0221 Uani
C7 C 0.5264(2) 0.86857(16) 0.56151(13) 0.0200 Uani
H4 H 0.5683 0.8257 0.5402 0.0250 Uiso
C8 C 0.3755(2) 0.82152(17) 0.48283(14) 0.0241 Uani
C9 C 0.8443(2) 0.74852(17) 0.76063(13) 0.0194 Uani
C10 C 0.8201(2) 0.68621(17) 0.88299(14) 0.0226 Uani
H5 H 0.7806 0.7361 0.8944 0.0250 Uiso
C11 C 0.8373(2) 0.62145(19) 0.93359(15) 0.0258 Uani
H6 H 0.8087 0.6274 0.9786 0.0250 Uiso
C12 C 0.8976(2) 0.54758(19) 0.91671(14) 0.0232 Uani
H7 H 0.9098 0.5043 0.9507 0.0250 Uiso
C13 C 0.93968(19) 0.53797(16) 0.84926(14) 0.0193 Uani
C14 C 0.9213(2) 0.60255(17) 0.79826(13) 0.0199 Uani
H8 H 0.9488 0.5960 0.7530 0.0250 Uiso
C15 C 0.8615(2) 0.67721(16) 0.81512(13) 0.0200 Uani
C16 C 1.01154(19) 0.46074(17) 0.83283(14) 0.0198 Uani
S1 S 0.86412(6) 1.13643(5) 0.84892(4) 0.0281 Uani
C17 C 0.7669(3) 1.1364(3) 0.91704(18) 0.0437 Uani
H9 H 0.7015 1.1581 0.8984 0.0680 Uiso
H10 H 0.7895 1.1739 0.9551 0.0680 Uiso
H11 H 0.7573 1.0771 0.9343 0.0680 Uiso
C18 C 0.8577(3) 1.2514(2) 0.8286(2) 0.0418 Uani
H12 H 0.9033 1.2641 0.7894 0.0680 Uiso
H13 H 0.8797 1.2852 0.8691 0.0680 Uiso
H14 H 0.7867 1.2670 0.8165 0.0680 Uiso
O10 O 0.81343(17) 1.09171(13) 0.78591(10) 0.0262 Uani
S2 S 0.97386(6) 0.88604(5) 0.88561(4) 0.0307 Uani
C19 C 0.9723(4) 0.8674(3) 0.9782(2) 0.0610 Uani
H15 H 0.9684 0.9232 1.0025 0.0680 Uiso
H16 H 1.0355 0.8371 0.9919 0.0680 Uiso
H17 H 0.9122 0.8320 0.9903 0.0680 Uiso
C20 C 1.0851(3) 0.9568(3) 0.8807(3) 0.0539 Uani
H18 H 1.0940 0.9769 0.8329 0.0680 Uiso
H19 H 1.1468 0.9249 0.8954 0.0680 Uiso
H20 H 1.0747 1.0068 0.9113 0.0680 Uiso
O11 O 0.87788(17) 0.94351(14) 0.87288(10) 0.0285 Uani
H45 H 0.614(3) 0.938(3) 0.839(2) 0.0380 Uiso
H46 H 0.629(3) 1.025(3) 0.827(2) 0.0470 Uiso
Zn1B Zn 1.19879(2) 0.451718(19) 0.725748(15) 0.0184 Uani
Zn2C Zn 0.37233(2) 0.691232(18) 0.381994(15) 0.0171 Uani
Zn2B Zn 1.12767(2) 0.308768(18) 0.881994(15) 0.0171 Uani
O3C O 0.93398(16) 0.74118(13) 0.54013(11) 0.0258 Uani
O7B O 0.95354(14) 0.95223(13) 0.72813(10) 0.0232 Uani
O8B O 0.96897(15) 0.91046(12) 0.61529(11) 0.0246 Uani
S3 S 0.44098(6) 0.80539(6) 0.86140(5) 0.0386 Uani
C21 C 0.5515(3) 0.7357(2) 0.8463(2) 0.0448 Uani
H21 H 0.5967 0.7624 0.8116 0.0660 Uiso
H22 H 0.5279 0.6791 0.8294 0.0660 Uiso
H23 H 0.5897 0.7279 0.8897 0.0660 Uiso
C22 C 0.4001(4) 0.8146(3) 0.7720(3) 0.0703 Uani
H24 H 0.3348 0.8466 0.7698 0.0660 Uiso
H25 H 0.3904 0.7566 0.7524 0.0660 Uiso
H26 H 0.4528 0.8457 0.7454 0.0660 Uiso
O12 O 0.4839(2) 0.89425(17) 0.88211(17) 0.0498 Uani
S4 S 0.12848(12) 0.67315(9) 0.94851(8) 0.0351 Uani
C23 C 0.1695(3) 0.5749(3) 0.9850(2) 0.0508 Uani
H27 H 0.1441 0.5706 1.0327 0.0930 Uiso
H28 H 0.2451 0.5726 0.9850 0.0930 Uiso
H29 H 0.1423 0.5264 0.9577 0.0930 Uiso
C24 C 0.1807(6) 0.6704(4) 0.8654(2) 0.0873 Uani
H33 H 0.1611 0.7232 0.8403 0.0930 Uiso
H34 H 0.1542 0.6195 0.8406 0.0930 Uiso
H35 H 0.2560 0.6668 0.8684 0.0930 Uiso
O13 O 0.1841(3) 0.7472(2) 0.98814(16) 0.0600 Uani
S6 S 0.44301(6) 0.15418(5) 0.84313(4) 0.0328 Uani
C25 C 0.3357(3) 0.0867(3) 0.8176(2) 0.0482 Uani
H39 H 0.3210 0.0957 0.7683 0.1290 Uiso
H40 H 0.2747 0.1022 0.8450 0.1290 Uiso
H41 H 0.3530 0.0257 0.8256 0.1290 Uiso
C26 C 0.5374(2) 0.12210(17) 0.80188(13) 0.0203 Uani
H42 H 0.6000 0.1304 0.8296 0.1290 Uiso
H43 H 0.5432 0.1551 0.7587 0.1290 Uiso
H44 H 0.5291 0.0604 0.7912 0.1290 Uiso
O14 O 0.4579(3) 0.1123(3) 0.93102(17) 0.0668 Uani
loop_
_atom_site_aniso_label
_atom_site_aniso_U_11
_atom_site_aniso_U_22
_atom_site_aniso_U_33
_atom_site_aniso_U_23
_atom_site_aniso_U_13
_atom_site_aniso_U_12
Zn1 0.01915(13) 0.01878(13) 0.01734(13) -0.00104(11) -0.00131(10) 0.00056(11)
Zn2 0.01742(13) 0.01725(12) 0.01677(13) -0.00123(10) 0.00055(10) 0.00046(11)
O1 0.0261(9) 0.0247(9) 0.0247(9) -0.0036(7) -0.0105(7) 0.0002(7)
O2 0.0198(9) 0.0319(10) 0.0299(10) -0.0109(8) -0.0063(7) 0.0065(8)
O3 0.0268(10) 0.0252(9) 0.0255(10) -0.0102(8) -0.0067(8) 0.0033(8)
O4 0.0326(13) 0.0486(14) 0.0623(16) -0.0247(13) -0.0269(12) 0.0126(11)
O5 0.022 0.0181 0.0303 0.0027 0.0038 0.0026
O6 0.0312 0.0239 0.0239 0.004 0.0044 0.0063
O7 0.0205 0.0267 0.0223 -0.0004 0.0018 0.0035
O8 0.0282 0.0221 0.0234 0.0044 0.0014 0.0072
O9 0.0249(10) 0.0261(11) 0.0391(12) 0.0049(9) 0.0081(9) 0.0031(8)
C1 0.0209(12) 0.0217(12) 0.0175(11) 0.0020(9) -0.0020(9) 0.0009(9)
C2 0.0203(11) 0.0200(11) 0.0185(11) -0.0015(9) -0.0023(9) 0.0014(9)
C3 0.0279(14) 0.0264(13) 0.0270(14) -0.0108(11) -0.0056(11) 0.0053(11)
C4 0.0261(14) 0.0357(16) 0.0369(16) -0.0146(13) -0.0038(12) 0.0109(11)
C5 0.0206(13) 0.0322(14) 0.0343(14) -0.0103(12) -0.0055(11) 0.0066(11)
C6 0.0210(12) 0.0228(12) 0.0225(12) -0.0042(10) -0.0038(10) 0.0035(10)
C7 0.0216(12) 0.0195(11) 0.0190(12) -0.0015(9) -0.0016(9) 0.0017(10)
C8 0.0257(12) 0.0214(12) 0.0253(12) -0.0020(9) -0.0069(10) 0.0001(10)
C9 0.0185 0.0192 0.0205 0.0018 -0.0014 0.0004
C10 0.0211 0.0209 0.0259 -0.0015 0.0032 0.0031
C11 0.0265 0.0294 0.0216 0.0001 0.0043 0.0033
C12 0.0211 0.0225 0.0259 0.0062 0.0013 0.0016
C13 0.0178 0.0175 0.0226 0.0016 0.0002 0.0028
C14 0.0204 0.0217 0.0176 0.0016 0.0015 0.0031
C15 0.0206 0.0184 0.021 0.0027 -0.0012 0.0017
C16 0.018 0.0174 0.0241 0.0019 -0.0012 -0.0005
S1 0.0243(3) 0.0252(3) 0.0349(4) -0.0060(3) -0.0060(3) 0.0007(3)
C17 0.049(2) 0.054(2) 0.0281(16) -0.0120(15) 0.0006(14) -0.0018(17)
C18 0.0336(17) 0.0247(14) 0.067(2) -0.0033(15) -0.0123(16) -0.0021(13)
O10 0.0328(11) 0.0238(9) 0.0220(9) -0.0016(7) -0.0006(8) -0.0004(8)
S2 0.0337(4) 0.0302(3) 0.0283(3) -0.0018(3) -0.0082(3) 0.0074(3)
C19 0.072(3) 0.076(3) 0.035(2) 0.0121(19) -0.0112(19) 0.025(3)
C20 0.0368(18) 0.064(2) 0.061(2) -0.002(2) -0.0177(18) -0.0073(18)
O11 0.0327(10) 0.0305(10) 0.0224(9) -0.0012(8) -0.0061(8) 0.0081(9)
Zn1B 0.01915 0.01878 0.01734 0.00104 -0.00131 -0.00056
Zn2C 0.01742 0.01725 0.01677 -0.00123 -0.00055 -0.00046
Zn2B 0.01742 0.01725 0.01677 0.00123 0.00055 -0.00046
O3C 0.0268 0.0252 0.0255 -0.0102 0.0067 -0.0033
O7B 0.0205(8) 0.0267(9) 0.0223(9) 0.0004(8) 0.0018(7) -0.0035(7)
O8B 0.0282(9) 0.0221(9) 0.0234(9) -0.0044(8) 0.0014(8) -0.0072(7)
S3 0.0319(4) 0.0342(4) 0.0496(5) -0.0027(3) 0.0091(3) -0.0074(3)
C21 0.044(2) 0.0393(18) 0.051(2) -0.0008(16) -0.0028(17) 0.0051(16)
C22 0.080(3) 0.061(3) 0.070(3) -0.006(2) -0.035(3) 0.020(2)
O12 0.0481(15) 0.0373(12) 0.0640(17) -0.0149(13) 0.0119(14) -0.0103(11)
S4 0.0307(7) 0.0365(8) 0.0382(8) -0.0107(6) -0.0065(6) -0.0024(6)
C23 0.062(2) 0.051(2) 0.0393(19) 0.0042(16) -0.0051(17) -0.0041(19)
C24 0.169(7) 0.059(3) 0.034(2) -0.0094(19) 0.009(3) -0.035(4)
O13 0.079(2) 0.0520(16) 0.0489(16) -0.0232(13) -0.0124(15) -0.0097(15)
S6 0.0343(4) 0.0318(4) 0.0324(4) 0.0008(3) 0.0055(3) 0.0119(3)
C25 0.0345(17) 0.069(3) 0.0412(19) -0.0169(18) -0.0095(15) 0.0109(17)
C26 0.0197(12) 0.0226(12) 0.0185(11) 0.0071(9) 0.0095(9) 0.0124(10)
O14 0.064(2) 0.088(2) 0.0485(17) -0.0009(17) -0.0002(15) 0.0045(19)
loop_
_geom_bond_atom_site_label_1
_geom_bond_atom_site_label_2
_geom_bond_site_symmetry_1
_geom_bond_site_symmetry_2
Zn1 O1 1_555 1_555
Zn2 O2 1_555 1_555
O1 C1 1_555 1_555
O2 C1 1_555 1_555
O3 C8 1_555 1_555
O4 C8 1_555 1_555
O5 Zn1 1_555 1_555
O6 Zn2 1_555 1_555
O7 C16 1_555 1_555
O8 C16 1_555 1_555
O9 Zn1 1_555 1_555
C1 C2 1_555 1_555
C2 C3 1_555 1_555
C3 H1 1_555 1_555
C4 C3 1_555 1_555
H2 C4 1_555 1_555
C5 C4 1_555 1_555
H3 C5 1_555 1_555
C6 C5 1_555 1_555
C7 C2 1_555 1_555
H4 C7 1_555 1_555
C8 C6 1_555 1_555
C9 O5 1_555 1_555
C10 H5 1_555 1_555
C11 C10 1_555 1_555
H6 C11 1_555 1_555
C12 C11 1_555 1_555
H7 C12 1_555 1_555
C13 C12 1_555 1_555
C14 C13 1_555 1_555
H8 C14 1_555 1_555
C15 C9 1_555 1_555
C16 C13 1_555 1_555
S1 C17 1_555 1_555
C17 H9 1_555 1_555
H10 C17 1_555 1_555
H11 C17 1_555 1_555
C18 S1 1_555 1_555
H12 C18 1_555 1_555
H13 C18 1_555 1_555
H14 C18 1_555 1_555
O10 Zn1 1_555 1_555
S2 C19 1_555 1_555
C19 H15 1_555 1_555
H16 C19 1_555 1_555
H17 C19 1_555 1_555
C20 S2 1_555 1_555
H18 C20 1_555 1_555
H19 C20 1_555 1_555
H20 C20 1_555 1_555
O11 Zn1 1_555 1_555
S3 C21 1_555 1_555
C21 H21 1_555 1_555
H22 C21 1_555 1_555
H23 C21 1_555 1_555
C22 S3 1_555 1_555
H24 C22 1_555 1_555
H25 C22 1_555 1_555
H26 C22 1_555 1_555
O12 S3 1_555 1_555
S4 C23 1_555 1_555
C23 H27 1_555 1_555
H28 C23 1_555 1_555
H29 C23 1_555 1_555
C24 S4 1_555 1_555
H33 C24 1_555 1_555
H34 C24 1_555 1_555
H35 C24 1_555 1_555
O13 S4 1_555 1_555
S6 C25 1_555 1_555
C25 H39 1_555 1_555
H40 C25 1_555 1_555
H41 C25 1_555 1_555
C26 S6 1_555 1_555
H42 C26 1_555 1_555
H43 C26 1_555 1_555
H44 C26 1_555 1_555
O14 S6 1_555 1_555
H45 O9 1_555 1_555
H46 O9 1_555 1_555
Zn1B O7 1_555 1_555
Zn2C O3 1_555 1_555
Zn2B O8 1_555 1_555
O3C Zn2 1_555 1_555
O7B Zn1 1_555 1_555
O8B Zn2 1_555 1_555
O6 C9 1_555 1_555
C6 C7 1_555 1_555
C10 C15 1_555 1_555
C14 C15 1_555 1_555
S1 O10 1_555 1_555
S2 O11 1_555 1_555

#END
