
#######################################################################
#
#                 Cambridge Crystallographic Data Centre
#                                CCDC 
#
#######################################################################
#
# If this CIF has been generated from an entry in the Cambridge 
# Structural Database, then it will include bibliographic, chemical, 
# crystal, experimental, refinement or atomic coordinate data resulting 
# from the CCDC's data processing and validation procedures.
#
#######################################################################

data_LUWNAU
_chemical_formula_moiety         '(C21 H15 Gd1 O8)n'
_symmetry_cell_setting           monoclinic
_symmetry_space_group_name_H-M   'C 2/c'
_symmetry_Int_Tables_number      15
_space_group_name_Hall           '-C 2yc'
loop_
_symmetry_equiv_pos_site_id
_symmetry_equiv_pos_as_xyz
1 x,y,z
2 -x,y,1/2-z
3 1/2+x,1/2+y,z
4 1/2-x,1/2+y,1/2-z
5 -x,-y,-z
6 x,-y,1/2+z
7 1/2-x,1/2-y,-z
8 1/2+x,1/2-y,1/2+z
_cell_length_a                   28.526(5)
_cell_length_b                   20.410(3)
_cell_length_c                   18.118(3)
_cell_angle_alpha                90
_cell_angle_beta                 104.134(3)
_cell_angle_gamma                90
_cell_volume                     10229.2
loop_
_atom_site_label
_atom_site_type_symbol
_atom_site_fract_x
_atom_site_fract_y
_atom_site_fract_z
_atom_site_U_iso_or_equiv
_atom_site_thermal_displace_type
Gd1 Gd 0.685409(3) 0.279909(5) 1.016577(6) 0.0369 Uani
O1 O 0.68168(6) 0.23080(8) 0.89714(10) 0.0531 Uani
O2 O 0.74816(5) 0.17516(9) 0.89149(10) 0.0544 Uani
O3 O 0.79984(6) -0.12751(8) 0.55612(11) 0.0591 Uani
O4 O 0.73457(6) -0.18759(8) 0.54326(10) 0.0525 Uani
O5 O 0.38347(6) 0.20519(10) 0.50087(13) 0.0804 Uani
O6 O 0.39829(6) 0.29685(9) 0.56118(12) 0.0600 Uani
O7 O 0.65090(8) 0.37376(12) 1.06896(15) 0.1040 Uani
H1 H 0.6463 0.4090 1.0348 0.1250 Uiso
H2 H 0.6725 0.3868 1.1174 0.1250 Uiso
O8 O 0.67358(9) 0.25084(15) 1.14324(15) 0.1157 Uani
H3 H 0.6836 0.2062 1.1552 0.1390 Uiso
H4 H 0.6922 0.2794 1.1814 0.1390 Uiso
C1 C 0.70445(8) 0.19050(12) 0.86814(14) 0.0461 Uani
C2 C 0.67643(7) 0.15663(12) 0.79536(14) 0.0498 Uani
C3 C 0.69700(8) 0.10703(12) 0.76388(14) 0.0510 Uani
H5 H 0.7286 0.0945 0.7862 0.0610 Uiso
C4 C 0.67127(8) 0.07479(13) 0.69858(15) 0.0558 Uani
C5 C 0.69254(8) 0.02041(13) 0.66434(16) 0.0582 Uani
C6 C 0.74216(9) 0.02148(14) 0.66427(18) 0.0701 Uani
H6 H 0.7612 0.0567 0.6863 0.0840 Uiso
C7 C 0.76255(8) -0.02836(13) 0.63235(18) 0.0691 Uani
H7 H 0.7952 -0.0264 0.6327 0.0830 Uiso
C8 C 0.73506(8) -0.08193(12) 0.59933(15) 0.0530 Uani
C9 C 0.75790(9) -0.13579(12) 0.56428(14) 0.0499 Uani
C10 C 0.68613(8) -0.08293(14) 0.59985(18) 0.0688 Uani
H8 H 0.6670 -0.1181 0.5779 0.0830 Uiso
C11 C 0.66604(8) -0.03315(14) 0.63201(17) 0.0692 Uani
H9 H 0.6335 -0.0355 0.6321 0.0830 Uiso
C12 C 0.62445(8) 0.09609(13) 0.66542(15) 0.0637 Uani
H10 H 0.6073 0.0761 0.6209 0.0760 Uiso
C13 C 0.60254(8) 0.14633(13) 0.69674(15) 0.0595 Uani
C14 C 0.62915(8) 0.17592(13) 0.76357(14) 0.0564 Uani
H11 H 0.6151 0.2086 0.7868 0.0680 Uiso
C15 C 0.5185(2) 0.1277(4) 0.6146(5) 0.0919 Uani
H12 H 0.5263 0.0841 0.6085 0.1100 Uiso
C16 C 0.47347(19) 0.1519(3) 0.5803(5) 0.0865 Uani
H13 H 0.4506 0.1234 0.5521 0.1040 Uiso
C17 C 0.4946(2) 0.2585(4) 0.6275(5) 0.0760 Uani
H14 H 0.4869 0.3025 0.6312 0.0910 Uiso
C18 C 0.5414(2) 0.2356(4) 0.6649(5) 0.0766 Uani
H15 H 0.5642 0.2643 0.6929 0.0920 Uiso
C19 C 0.46075(9) 0.21642(14) 0.58604(16) 0.0583 Uani
C20 C 0.55274(8) 0.17095(14) 0.65937(15) 0.0601 Uani
C21 C 0.41090(8) 0.24210(14) 0.54705(15) 0.0527 Uani
Gd1A Gd 0.314591(3) 0.279909(5) 0.483423(6) 0.0369 Uani
Gd1C Gd 0.814591(3) -0.220091(5) 0.483423(6) 0.0369 Uani
Gd1E Gd 0.685409(3) -0.279909(5) 0.516577(6) 0.0369 Uani
Gd1F Gd 0.814591(3) 0.220091(5) 0.983423(6) 0.0369 Uani
O2F O 0.75184(5) 0.32484(9) 1.10851(10) 0.0544 Uani
O3C O 0.70016(6) 0.37249(8) 0.94388(11) 0.0591 Uani
O4C O 0.76543(6) 0.31241(8) 0.95674(10) 0.0525 Uani
O4E O 0.73457(6) 0.18759(8) 1.04326(10) 0.0525 Uani
O5A O 0.61653(6) 0.20519(10) 0.99913(13) 0.0804 Uani
O6A O 0.60171(6) 0.29685(9) 0.93882(12) 0.0600 Uani
loop_
_atom_site_aniso_label
_atom_site_aniso_U_11
_atom_site_aniso_U_22
_atom_site_aniso_U_33
_atom_site_aniso_U_23
_atom_site_aniso_U_13
_atom_site_aniso_U_12
Gd1 0.02583(6) 0.04237(7) 0.03850(6) -0.00150(5) 0.00013(4) -0.00556(5)
O1 0.0423(9) 0.0624(12) 0.0459(10) -0.0218(8) -0.0057(8) 0.0058(8)
O2 0.0302(8) 0.0690(12) 0.0536(10) -0.0171(9) -0.0096(8) 0.0010(8)
O3 0.0463(10) 0.0490(11) 0.0806(13) -0.0188(9) 0.0130(10) 0.0055(8)
O4 0.0507(10) 0.0400(9) 0.0585(11) -0.0089(8) -0.0029(9) 0.0037(8)
O5 0.0367(9) 0.0990(16) 0.0878(15) -0.0437(12) -0.0187(10) 0.0243(10)
O6 0.0335(9) 0.0571(12) 0.0790(14) -0.0022(9) -0.0064(9) 0.0096(8)
O7 0.0790(15) 0.132(2) 0.0920(17) -0.0454(16) 0.0033(14) 0.0236(14)
O8 0.126(2) 0.145(2) 0.0854(19) -0.0028(18) 0.0440(18) -0.0451(19)
C1 0.0331(12) 0.0504(14) 0.0473(14) -0.0105(11) -0.0048(11) -0.0024(11)
C2 0.0325(11) 0.0552(15) 0.0511(14) -0.0169(12) -0.0101(11) 0.0031(11)
C3 0.0303(11) 0.0570(16) 0.0565(15) -0.0166(12) -0.0070(11) 0.0098(11)
C4 0.0342(12) 0.0571(17) 0.0680(17) -0.0248(13) -0.0034(12) 0.0078(11)
C5 0.0380(13) 0.0591(17) 0.0658(17) -0.0261(13) -0.0101(12) 0.0138(11)
C6 0.0396(14) 0.0612(18) 0.101(2) -0.0384(16) 0.0006(15) 0.0015(12)
C7 0.0345(13) 0.0594(18) 0.109(2) -0.0379(17) 0.0093(14) -0.0013(12)
C8 0.0393(13) 0.0503(15) 0.0610(16) -0.0188(12) -0.0041(12) 0.0067(11)
C9 0.0461(14) 0.0402(14) 0.0542(15) -0.0092(11) -0.0052(12) 0.0074(11)
C10 0.0383(14) 0.0561(17) 0.102(2) -0.0364(16) -0.0024(14) 0.0006(12)
C11 0.0332(13) 0.0670(19) 0.101(2) -0.0370(17) 0.0040(14) 0.0020(12)
C12 0.0391(13) 0.0687(18) 0.0678(17) -0.0352(15) -0.0166(12) 0.0111(12)
C13 0.0378(13) 0.0655(18) 0.0613(16) -0.0283(13) -0.0147(12) 0.0140(12)
C14 0.0377(13) 0.0626(17) 0.0581(15) -0.0253(13) -0.0089(12) 0.0103(11)
C15 0.049(3) 0.073(4) 0.124(6) -0.043(4) -0.036(3) 0.023(3)
C16 0.039(3) 0.079(4) 0.114(6) -0.047(4) -0.034(3) 0.021(2)
C17 0.059(4) 0.065(4) 0.086(5) -0.019(3) -0.017(3) 0.017(3)
C18 0.043(3) 0.081(5) 0.094(5) -0.027(4) -0.006(3) 0.013(3)
C19 0.0327(12) 0.0713(19) 0.0609(17) -0.0176(14) -0.0078(12) 0.0096(12)
C20 0.0332(12) 0.076(2) 0.0600(16) -0.0259(14) -0.0101(12) 0.0130(12)
C21 0.0323(12) 0.0715(19) 0.0502(15) -0.0047(13) 0.0019(11) 0.0113(12)
Gd1A 0.02583 0.04237 0.0385 0.0015 0.00013 0.00556
Gd1C 0.02583 0.04237 0.0385 0.0015 0.00013 0.00556
Gd1E 0.02583 0.04237 0.0385 0.0015 0.00013 0.00556
Gd1F 0.02583 0.04237 0.0385 -0.0015 0.00013 -0.00556
O2F 0.0302 0.069 0.0536 -0.0171 -0.0096 0.001
O3C 0.0463 0.049 0.0806 0.0188 0.013 -0.0055
O4C 0.0507 0.04 0.0585 0.0089 -0.0029 -0.0037
O4E 0.0507 0.04 0.0585 0.0089 -0.0029 -0.0037
O5A 0.0367 0.099 0.0878 0.0437 -0.0187 -0.0243
O6A 0.0335 0.0571 0.079 0.0022 -0.0064 -0.0096
loop_
_geom_bond_atom_site_label_1
_geom_bond_atom_site_label_2
_geom_bond_site_symmetry_1
_geom_bond_site_symmetry_2
Gd1 O1 1_555 1_555
O1 C1 1_555 1_555
O2 C1 1_555 1_555
O3 C9 1_555 1_555
O4 C9 1_555 1_555
O5 C21 1_555 1_555
O6 C21 1_555 1_555
O7 Gd1 1_555 1_555
H1 O7 1_555 1_555
H2 O7 1_555 1_555
O8 Gd1 1_555 1_555
H3 O8 1_555 1_555
H4 O8 1_555 1_555
C1 C2 1_555 1_555
C2 C3 1_555 1_555
C3 H5 1_555 1_555
C4 C3 1_555 1_555
C5 C4 1_555 1_555
C6 C5 1_555 1_555
H6 C6 1_555 1_555
C7 C6 1_555 1_555
H7 C7 1_555 1_555
C8 C7 1_555 1_555
C9 C8 1_555 1_555
C10 C8 1_555 1_555
H8 C10 1_555 1_555
C11 C5 1_555 1_555
H9 C11 1_555 1_555
C12 C4 1_555 1_555
H10 C12 1_555 1_555
C13 C12 1_555 1_555
C14 C2 1_555 1_555
H11 C14 1_555 1_555
C15 H12 1_555 1_555
C16 C15 1_555 1_555
H13 C16 1_555 1_555
C17 H14 1_555 1_555
C18 C17 1_555 1_555
H15 C18 1_555 1_555
C19 C16 1_555 1_555
C20 C13 1_555 1_555
C21 C19 1_555 1_555
Gd1A O5 1_555 1_555
Gd1C O3 1_555 1_555
Gd1E O4 1_555 1_555
Gd1F O2 1_555 1_555
O2F Gd1 1_555 1_555
O3C Gd1 1_555 1_555
O4C Gd1 1_555 1_555
O4E Gd1 1_555 1_555
O5A Gd1 1_555 1_555
O6A Gd1 1_555 1_555
O4 Gd1C 1_555 1_555
O6 Gd1A 1_555 1_555
C10 C11 1_555 1_555
C13 C14 1_555 1_555
C15 C20 1_555 1_555
C17 C19 1_555 1_555
C18 C20 1_555 1_555
Gd1F O4C 1_555 1_555
Gd1F O4E 1_555 1_555

#END
