
#######################################################################
#
#                 Cambridge Crystallographic Data Centre
#                                CCDC 
#
#######################################################################
#
# If this CIF has been generated from an entry in the Cambridge 
# Structural Database, then it will include bibliographic, chemical, 
# crystal, experimental, refinement or atomic coordinate data resulting 
# from the CCDC's data processing and validation procedures.
#
#######################################################################

data_GANBAZ02
_chemical_formula_moiety         '(C30 H56 Mn1 N11 1+)n'
_symmetry_cell_setting           tetragonal
_symmetry_space_group_name_H-M   'P -4 21 c'
_symmetry_Int_Tables_number      114
_space_group_name_Hall           'P -4 2n'
loop_
_symmetry_equiv_pos_site_id
_symmetry_equiv_pos_as_xyz
1 x,y,z
2 -x,-y,z
3 y,-x,-z
4 -y,x,-z
5 1/2-x,1/2+y,1/2-z
6 1/2+x,1/2-y,1/2-z
7 1/2-y,1/2-x,1/2+z
8 1/2+y,1/2+x,1/2+z
_cell_length_a                   16.2752(5)
_cell_length_b                   16.2752(5)
_cell_length_c                   17.4231(4)
_cell_angle_alpha                90
_cell_angle_beta                 90
_cell_angle_gamma                90
_cell_volume                     4615.07
loop_
_atom_site_label
_atom_site_type_symbol
_atom_site_fract_x
_atom_site_fract_y
_atom_site_fract_z
_atom_site_U_iso_or_equiv
_atom_site_thermal_displace_type
N1 N 0.5000 0.5000 0.5000 0.0417 Uani
C1 C 0.5006(6) 0.6963(5) 0.6266(5) 0.0740 Uiso
H1 H 0.4630 0.7215 0.6620 0.1100 Uiso
H2 H 0.5065 0.7307 0.5821 0.1100 Uiso
H3 H 0.5531 0.6895 0.6508 0.1100 Uiso
C2 C 0.4657(6) 0.6081(7) 0.6011(6) 0.0997 Uani
H4 H 0.4580 0.5732 0.6457 0.1500 Uiso
H5 H 0.4132 0.6142 0.5752 0.1500 Uiso
C3 C 0.5258(7) 0.5722(5) 0.5495(5) 0.0677 Uani
H6 H 0.5724 0.5549 0.5802 0.1010 Uiso
H7 H 0.5451 0.6154 0.5156 0.1010 Uiso
C1A C 0.4994(6) 0.3037(5) 0.6266(5) 0.0740 Uiso
H1A H 0.5370 0.2785 0.6620 0.1100 Uiso
H2A H 0.4935 0.2693 0.5821 0.1100 Uiso
H3A H 0.4469 0.3105 0.6508 0.1100 Uiso
C2A C 0.5343(6) 0.3919(7) 0.6011(6) 0.0997 Uani
H4A H 0.5420 0.4268 0.6457 0.1500 Uiso
H5A H 0.5868 0.3858 0.5752 0.1500 Uiso
C3A C 0.4742(7) 0.4278(5) 0.5495(5) 0.0677 Uani
H6A H 0.4276 0.4451 0.5802 0.1010 Uiso
H7A H 0.4549 0.3846 0.5156 0.1010 Uiso
C1B C 0.6963(5) 0.4994(6) 0.3734(5) 0.0740 Uiso
H1B H 0.7215 0.5370 0.3380 0.1100 Uiso
H2B H 0.7307 0.4935 0.4179 0.1100 Uiso
H3B H 0.6895 0.4469 0.3492 0.1100 Uiso
C2B C 0.6081(7) 0.5343(6) 0.3989(6) 0.0997 Uani
H4B H 0.5732 0.5420 0.3543 0.1500 Uiso
H5B H 0.6142 0.5868 0.4248 0.1500 Uiso
C3B C 0.5722(5) 0.4742(7) 0.4505(5) 0.0677 Uani
H6B H 0.5549 0.4276 0.4198 0.1010 Uiso
H7B H 0.6154 0.4549 0.4844 0.1010 Uiso
C1C C 0.3037(5) 0.5006(6) 0.3734(5) 0.0740 Uiso
H1C H 0.2785 0.4630 0.3380 0.1100 Uiso
H2C H 0.2693 0.5065 0.4179 0.1100 Uiso
H3C H 0.3105 0.5531 0.3492 0.1100 Uiso
C2C C 0.3919(7) 0.4657(6) 0.3989(6) 0.0997 Uani
H4C H 0.4268 0.4580 0.3543 0.1500 Uiso
H5C H 0.3858 0.4132 0.4248 0.1500 Uiso
C3C C 0.4278(5) 0.5258(7) 0.4505(5) 0.0677 Uani
H6C H 0.4451 0.5724 0.4198 0.1010 Uiso
H7C H 0.3846 0.5451 0.4844 0.1010 Uiso
N2 N 0.5000 0.5000 0.0000 0.0613 Uani
C4 C 0.5230(3) 0.4295(3) -0.0529(2) 0.0807 Uani
H8 H 0.4748 0.4146 -0.0825 0.1210 Uiso
H9 H 0.5642 0.4491 -0.0888 0.1210 Uiso
C5 C 0.5701(4) 0.2888(3) -0.0765(4) 0.1373 Uani
H10 H 0.5900 0.2392 -0.0533 0.2060 Uiso
H11 H 0.6099 0.3089 -0.1125 0.2060 Uiso
H12 H 0.5194 0.2777 -0.1027 0.2060 Uiso
C6 C 0.5556(4) 0.3529(3) -0.0150(3) 0.1107 Uani
H13 H 0.5163 0.3326 0.0224 0.1660 Uiso
H14 H 0.6067 0.3649 0.0115 0.1660 Uiso
C4A C 0.4770(3) 0.5705(3) -0.0529(2) 0.0807 Uani
H8A H 0.5252 0.5854 -0.0825 0.1210 Uiso
H9A H 0.4358 0.5509 -0.0888 0.1210 Uiso
C5A C 0.4299(4) 0.7112(3) -0.0765(4) 0.1373 Uani
H10A H 0.4100 0.7608 -0.0533 0.2060 Uiso
H11A H 0.3901 0.6911 -0.1125 0.2060 Uiso
H12A H 0.4806 0.7223 -0.1027 0.2060 Uiso
C6A C 0.4444(4) 0.6471(3) -0.0150(3) 0.1107 Uani
H13A H 0.4837 0.6674 0.0224 0.1660 Uiso
H14A H 0.3933 0.6351 0.0115 0.1660 Uiso
C4B C 0.4295(3) 0.4770(3) 0.0529(2) 0.0807 Uani
H8B H 0.4146 0.5252 0.0825 0.1210 Uiso
H9B H 0.4491 0.4358 0.0888 0.1210 Uiso
C5B C 0.2888(3) 0.4299(4) 0.0765(4) 0.1373 Uani
H10B H 0.2392 0.4100 0.0533 0.2060 Uiso
H11B H 0.3089 0.3901 0.1125 0.2060 Uiso
H12B H 0.2777 0.4806 0.1027 0.2060 Uiso
C6B C 0.3529(3) 0.4444(4) 0.0150(3) 0.1107 Uani
H13B H 0.3326 0.4837 -0.0224 0.1660 Uiso
H14B H 0.3649 0.3933 -0.0115 0.1660 Uiso
C4C C 0.5705(3) 0.5230(3) 0.0529(2) 0.0807 Uani
H8C H 0.5854 0.4748 0.0825 0.1210 Uiso
H9C H 0.5509 0.5642 0.0888 0.1210 Uiso
C5C C 0.7112(3) 0.5701(4) 0.0765(4) 0.1373 Uani
H10C H 0.7608 0.5900 0.0533 0.2060 Uiso
H11C H 0.6911 0.6099 0.1125 0.2060 Uiso
H12C H 0.7223 0.5194 0.1027 0.2060 Uiso
C6C C 0.6471(3) 0.5556(4) 0.0150(3) 0.1107 Uani
H13C H 0.6674 0.5163 -0.0224 0.1660 Uiso
H14C H 0.6351 0.6067 -0.0115 0.1660 Uiso
C7 C -0.2094(6) 0.2140(6) 0.9092(5) 0.0460 Uiso
N3 N -0.12092(18) -0.02910(17) 0.7344(3) 0.0961 Uani
Mn1 Mn -0.23914(2) 0.22660(2) 0.71896(2) 0.0401 Uani
N4 N -0.22554(19) 0.2193(2) 0.84520(14) 0.0678 Uani
N5 N -0.12024(17) 0.29493(17) 0.71222(18) 0.0658 Uani
N6 N -0.17474(16) 0.10668(16) 0.70949(16) 0.0607 Uani
N7 N -0.19441(16) -0.15461(16) 0.76649(16) 0.0577 Uani
C8 C -0.15361(17) 0.04160(18) 0.72282(19) 0.0509 Uani
C9 C -0.16382(19) -0.0935(2) 0.75153(18) 0.0539 Uani
C10 C -0.05977(19) 0.32866(19) 0.7194(2) 0.0628 Uani
N8 N 0.13945(16) 0.33669(17) 0.7706(2) 0.0661 Uani
C11 C 0.0749(2) 0.35042(18) 0.7492(2) 0.0587 Uani
C12 C -0.2263(5) 0.2270(6) 1.0369(4) 0.0421 Uiso
N9 N -0.2619(2) 0.2454(2) 1.09379(13) 0.0816 Uani
N10 N 0.0051(3) 0.3778(4) 0.7218(4) 0.0505 Uiso
N11 N -0.1760(5) 0.2269(7) 0.9784(4) 0.0507 Uiso
Mn1D Mn -0.26086(2) -0.27340(2) 0.78104(2) 0.0401 Uani
Mn1E Mn 0.26086(2) 0.27340(2) 0.78104(2) 0.0401 Uani
Mn1G Mn -0.27340(2) 0.26086(2) 1.21896(2) 0.0401 Uani
N7D N -0.30559(16) 0.34539(16) 0.73351(16) 0.0577 Uani
N8E N -0.36055(16) 0.16331(17) 0.7294(2) 0.0661 Uani
N9G N -0.2546(2) 0.2381(2) 0.59379(13) 0.0816 Uani
loop_
_atom_site_aniso_label
_atom_site_aniso_U_11
_atom_site_aniso_U_22
_atom_site_aniso_U_33
_atom_site_aniso_U_23
_atom_site_aniso_U_13
_atom_site_aniso_U_12
N1 0.0420(19) 0.0420(19) 0.041(3) 0.000 0.000 0.000
C2 0.062(6) 0.142(9) 0.095(6) -0.062(6) 0.012(5) -0.004(6)
C3 0.062(6) 0.054(5) 0.087(6) -0.029(4) -0.008(5) -0.005(4)
C2A 0.062 0.142 0.095 0.062 -0.012 -0.004
C3A 0.062 0.054 0.087 0.029 0.008 -0.005
C2B 0.142 0.062 0.095 0.012 0.062 0.004
C3B 0.054 0.062 0.087 -0.008 0.029 0.005
C2C 0.142 0.062 0.095 -0.012 -0.062 0.004
C3C 0.054 0.062 0.087 0.008 -0.029 0.005
N2 0.072(3) 0.072(3) 0.040(3) 0.000 0.000 0.000
C4 0.093(3) 0.083(3) 0.066(2) -0.008(2) -0.002(2) 0.010(2)
C5 0.142(5) 0.089(4) 0.181(6) -0.030(4) 0.035(4) 0.011(3)
C6 0.117(4) 0.094(4) 0.121(4) 0.008(3) 0.004(3) 0.020(3)
C4A 0.093 0.083 0.066 0.008 0.002 0.01
C5A 0.142 0.089 0.181 0.03 -0.035 0.011
C6A 0.117 0.094 0.121 -0.008 -0.004 0.02
C4B 0.083 0.093 0.066 -0.002 0.008 -0.01
C5B 0.089 0.142 0.181 0.035 0.03 -0.011
C6B 0.094 0.117 0.121 0.004 -0.008 -0.02
C4C 0.083 0.093 0.066 0.002 -0.008 -0.01
C5C 0.089 0.142 0.181 -0.035 -0.03 -0.011
C6C 0.094 0.117 0.121 -0.004 0.008 -0.02
N3 0.0532(17) 0.0421(16) 0.193(4) 0.026(2) 0.005(2) 0.0022(13)
Mn1 0.0445(2) 0.0426(2) 0.03317(18) 0.00405(17) -0.00067(18) 0.00317(17)
N4 0.0783(19) 0.089(2) 0.0360(11) 0.0043(13) 0.0009(12) 0.0083(19)
N5 0.0498(16) 0.0633(16) 0.0842(19) 0.0182(17) -0.0058(15) -0.0030(13)
N6 0.0606(16) 0.0469(15) 0.0747(18) 0.0041(14) 0.0039(14) 0.0051(12)
N7 0.0558 0.0425 0.0749 0.0071 -0.0058 -0.0044
C8 0.0441(15) 0.0475(17) 0.0611(16) 0.0001(15) 0.0049(15) -0.0011(12)
C9 0.044 0.0458 0.072 0.0018 -0.0046 0.0051
C10 0.0474(18) 0.0509(18) 0.090(2) 0.0193(19) -0.0074(19) 0.0022(14)
N8 0.0449 0.0594 0.094 0.0148 -0.0032 -0.0036
C11 0.051 0.04 0.085 0.0076 0.0022 -0.0025
N9 0.098 0.112 0.0349 -0.006 0.0085 0.017
Mn1D 0.0445 0.0426 0.03317 -0.00405 -0.00067 -0.00317
Mn1E 0.0445 0.0426 0.03317 0.00405 0.00067 -0.00317
Mn1G 0.0426 0.0445 0.03317 -0.00067 0.00405 0.00317
N7D 0.0558 0.0425 0.0749 -0.0071 -0.0058 0.0044
N8E 0.0449 0.0594 0.094 0.0148 0.0032 0.0036
N9G 0.112 0.098 0.0349 0.0085 -0.006 0.017
loop_
_geom_bond_atom_site_label_1
_geom_bond_atom_site_label_2
_geom_bond_site_symmetry_1
_geom_bond_site_symmetry_2
N1 C3 1_555 1_555
C1 H1 1_555 1_555
H2 C1 1_555 1_555
H3 C1 1_555 1_555
C2 C1 1_555 1_555
H4 C2 1_555 1_555
H5 C2 1_555 1_555
C3 C2 1_555 1_555
H6 C3 1_555 1_555
H7 C3 1_555 1_555
N2 C4 1_555 1_555
C4 H8 1_555 1_555
H9 C4 1_555 1_555
C5 H10 1_555 1_555
H11 C5 1_555 1_555
H12 C5 1_555 1_555
C6 C4 1_555 1_555
H13 C6 1_555 1_555
H14 C6 1_555 1_555
C7 N4 1_555 1_555
N3 C8 1_555 1_555
Mn1 N4 1_555 1_555
N5 Mn1 1_555 1_555
N6 Mn1 1_555 1_555
N7 C9 1_555 1_555
C8 N6 1_555 1_555
C9 N3 1_555 1_555
C10 N5 1_555 1_555
N8 C11 1_555 1_555
C11 N10 1_555 1_555
C12 N9 1_555 1_555
N9 Mn1G 1_555 1_555
N10 C10 1_555 1_555
N11 C7 1_555 1_555
C1A H1A 1_555 1_555
H2A C1A 1_555 1_555
H3A C1A 1_555 1_555
C2A C1A 1_555 1_555
H4A C2A 1_555 1_555
H5A C2A 1_555 1_555
C3A N1 1_555 1_555
H6A C3A 1_555 1_555
H7A C3A 1_555 1_555
C1B H1B 1_555 1_555
H2B C1B 1_555 1_555
H3B C1B 1_555 1_555
C2B C1B 1_555 1_555
H4B C2B 1_555 1_555
H5B C2B 1_555 1_555
C3B N1 1_555 1_555
H6B C3B 1_555 1_555
H7B C3B 1_555 1_555
C1C H1C 1_555 1_555
H2C C1C 1_555 1_555
H3C C1C 1_555 1_555
C2C C1C 1_555 1_555
H4C C2C 1_555 1_555
H5C C2C 1_555 1_555
C3C N1 1_555 1_555
H6C C3C 1_555 1_555
H7C C3C 1_555 1_555
C4A N2 1_555 1_555
H8A C4A 1_555 1_555
H9A C4A 1_555 1_555
C5A H10A 1_555 1_555
H11A C5A 1_555 1_555
H12A C5A 1_555 1_555
C6A C4A 1_555 1_555
H13A C6A 1_555 1_555
H14A C6A 1_555 1_555
C4B N2 1_555 1_555
H8B C4B 1_555 1_555
H9B C4B 1_555 1_555
C5B H10B 1_555 1_555
H11B C5B 1_555 1_555
H12B C5B 1_555 1_555
C6B C4B 1_555 1_555
H13B C6B 1_555 1_555
H14B C6B 1_555 1_555
C4C N2 1_555 1_555
H8C C4C 1_555 1_555
H9C C4C 1_555 1_555
C5C H10C 1_555 1_555
H11C C5C 1_555 1_555
H12C C5C 1_555 1_555
C6C C4C 1_555 1_555
H13C C6C 1_555 1_555
H14C C6C 1_555 1_555
Mn1D N7 1_555 1_555
Mn1E N8 1_555 1_555
N7D Mn1 1_555 1_555
N8E Mn1 1_555 1_555
N9G Mn1 1_555 1_555
C5 C6 1_555 1_555
C12 N11 1_555 1_555
C2A C3A 1_555 1_555
C2B C3B 1_555 1_555
C2C C3C 1_555 1_555
C5A C6A 1_555 1_555
C5B C6B 1_555 1_555
C5C C6C 1_555 1_555

#END
