
#######################################################################
#
#                 Cambridge Crystallographic Data Centre
#                                CCDC 
#
#######################################################################
#
# If this CIF has been generated from an entry in the Cambridge 
# Structural Database, then it will include bibliographic, chemical, 
# crystal, experimental, refinement or atomic coordinate data resulting 
# from the CCDC's data processing and validation procedures.
#
#######################################################################

data_JILXOS
_chemical_formula_moiety         'C29 H22 Cu8 N13 O4'
_symmetry_cell_setting           orthorhombic
_symmetry_space_group_name_H-M   'P c c a'
_symmetry_Int_Tables_number      54
_space_group_name_Hall           '-P 2a 2ac'
loop_
_symmetry_equiv_pos_site_id
_symmetry_equiv_pos_as_xyz
1 x,y,z
2 1/2-x,-y,z
3 -x,y,1/2-z
4 1/2+x,-y,1/2-z
5 -x,-y,-z
6 1/2+x,y,-z
7 x,-y,1/2+z
8 1/2-x,y,1/2+z
_cell_length_a                   21.9969(15)
_cell_length_b                   7.3578(5)
_cell_length_c                   20.3447(14)
_cell_angle_alpha                90
_cell_angle_beta                 90
_cell_angle_gamma                90
_cell_volume                     3292.77
loop_
_atom_site_label
_atom_site_type_symbol
_atom_site_fract_x
_atom_site_fract_y
_atom_site_fract_z
_atom_site_U_iso_or_equiv
_atom_site_thermal_displace_type
O2 O 0.3043(5) 0.7048(15) 0.5843(5) 0.1227 Uani
H10 H 0.3133 0.8117 0.5968 0.1470 Uiso
H11 H 0.2659 0.6998 0.5794 0.1470 Uiso
O3 O 0.2264(6) 0.806(2) 0.5003(6) 0.1893 Uani
H12 H 0.2116 0.9021 0.5169 0.2270 Uiso
H13 H 0.2213 0.7185 0.5271 0.2270 Uiso
O1 O 0.48745(12) 0.2958(3) 0.44312(12) 0.0474 Uani
Cu1 Cu 0.5000 0.5000 0.5000 0.0389 Uani
Cu2 Cu 0.2500 0.0000 0.82000(3) 0.0466 Uani
Cu3 Cu 0.41262(2) -0.57112(7) 0.32581(3) 0.0519 Uani
N1 N 0.41700(13) -0.3163(4) 0.36789(16) 0.0440 Uani
N2 N 0.42211(13) 0.2056(4) 0.52535(14) 0.0399 Uani
N3 N 0.43935(13) 0.3705(4) 0.55296(14) 0.0411 Uani
N4 N 0.30568(13) 0.1387(4) 0.74660(14) 0.0442 Uani
N5 N 0.34329(17) -0.2885(5) 0.84681(19) 0.0620 Uani
C1 C 0.47978(16) -0.5961(4) 0.26815(18) 0.0506 Uani
C2 C 0.45081(18) -0.1849(5) 0.34194(19) 0.0486 Uani
H1 H 0.4682 -0.2049 0.3009 0.0590 Uiso
C3 C 0.46150(16) -0.0205(4) 0.37245(19) 0.0442 Uani
H2 H 0.4848 0.0682 0.3519 0.0530 Uiso
C4 C 0.43718(15) 0.0105(4) 0.43367(16) 0.0358 Uani
C5 C 0.40125(17) -0.1249(5) 0.4608(2) 0.0485 Uani
H3 H 0.3833 -0.1082 0.5017 0.0580 Uiso
C6 C 0.39241(17) -0.2836(5) 0.4268(2) 0.0501 Uani
H4 H 0.3681 -0.3729 0.4456 0.0600 Uiso
C7 C 0.44967(15) 0.1845(4) 0.46908(16) 0.0376 Uani
C8 C 0.41884(17) 0.4154(5) 0.60893(18) 0.0452 Uani
H5 H 0.4310 0.5291 0.6240 0.0540 Uiso
C9 C 0.37831(16) 0.3129(5) 0.65392(17) 0.0404 Uani
C10 C 0.34599(18) 0.4086(5) 0.70046(19) 0.0469 Uani
H6 H 0.3485 0.5347 0.7019 0.0560 Uiso
C11 C 0.31041(17) 0.3184(5) 0.74434(18) 0.0467 Uani
H7 H 0.2882 0.3864 0.7744 0.0560 Uiso
C12 C 0.3376(2) 0.0456(5) 0.7034(2) 0.0583 Uani
H8 H 0.3357 -0.0806 0.7052 0.0700 Uiso
C13 C 0.3740(2) 0.1246(5) 0.6553(2) 0.0573 Uani
H9 H 0.3948 0.0535 0.6250 0.0690 Uiso
C14 C 0.30365(15) -0.1871(5) 0.84710(17) 0.0395 Uani
O1D O 0.51255(12) 0.7042(3) 0.55688(12) 0.0474 Uani
Cu2E Cu 0.7500 1.0000 0.18000(3) 0.0466 Uani
Cu3D Cu 0.58738(2) 1.57112(7) 0.67419(3) 0.0519 Uani
Cu3F Cu 0.41262(2) -0.42888(7) 0.82581(3) 0.0519 Uani
Cu3B Cu 0.58738(2) -0.57112(7) 0.17419(3) 0.0519 Uani
Cu3G Cu 0.08738(2) 0.42888(7) 0.82581(3) 0.0519 Uani
N1D N 0.58300(13) 1.3163(4) 0.63211(16) 0.0440 Uani
N2D N 0.57789(13) 0.7944(4) 0.47465(14) 0.0399 Uani
N3D N 0.56065(13) 0.6295(4) 0.44704(14) 0.0411 Uani
N4D N 0.69432(13) 0.8613(4) 0.25340(14) 0.0442 Uani
N4A N 0.19432(13) -0.1387(4) 0.74660(14) 0.0442 Uani
N5A N 0.15671(17) 0.2885(5) 0.84681(19) 0.0620 Uani
N5F N 0.34329(17) -0.7115(5) 0.34681(19) 0.0620 Uani
N5B N 0.65671(17) 1.7115(5) 0.65319(19) 0.0620 Uani
C1B C 0.52022(16) -0.5961(4) 0.23185(18) 0.0506 Uani
C1D C 0.52022(16) 1.5961(4) 0.73185(18) 0.0506 Uani
C2D C 0.54919(18) 1.1849(5) 0.65806(19) 0.0486 Uani
H1D H 0.5318 1.2049 0.6991 0.0590 Uiso
C3D C 0.53850(16) 1.0205(4) 0.62755(19) 0.0442 Uani
H2D H 0.5152 0.9318 0.6481 0.0530 Uiso
C4D C 0.56282(15) 0.9895(4) 0.56633(16) 0.0358 Uani
C5D C 0.59875(17) 1.1249(5) 0.5392(2) 0.0485 Uani
H3D H 0.6167 1.1082 0.4983 0.0580 Uiso
C6D C 0.60759(17) 1.2836(5) 0.5732(2) 0.0501 Uani
H4D H 0.6319 1.3729 0.5544 0.0600 Uiso
C7D C 0.55033(15) 0.8155(4) 0.53092(16) 0.0376 Uani
C8D C 0.58116(17) 0.5846(5) 0.39107(18) 0.0452 Uani
H5D H 0.5690 0.4709 0.3760 0.0540 Uiso
C9D C 0.62169(16) 0.6871(5) 0.34608(17) 0.0404 Uani
C10D C 0.65401(18) 0.5914(5) 0.29954(19) 0.0469 Uani
H6D H 0.6515 0.4653 0.2981 0.0560 Uiso
C11D C 0.68959(17) 0.6816(5) 0.25566(18) 0.0467 Uani
H7D H 0.7118 0.6136 0.2256 0.0560 Uiso
C12D C 0.6624(2) 0.9544(5) 0.2966(2) 0.0583 Uani
H8D H 0.6643 1.0806 0.2948 0.0700 Uiso
C13D C 0.6260(2) 0.8754(5) 0.3447(2) 0.0573 Uani
H9D H 0.6052 0.9465 0.3750 0.0690 Uiso
C14A C 0.19635(15) 0.1871(5) 0.84710(17) 0.0395 Uani
loop_
_atom_site_aniso_label
_atom_site_aniso_U_11
_atom_site_aniso_U_22
_atom_site_aniso_U_33
_atom_site_aniso_U_23
_atom_site_aniso_U_13
_atom_site_aniso_U_12
O2 0.121(6) 0.135(7) 0.112(6) 0.033(6) -0.008(6) -0.009(5)
O3 0.168(8) 0.260(10) 0.140(8) 0.035(7) -0.011(7) 0.026(8)
O1 0.0589(15) 0.0439(13) 0.0394(13) -0.0015(11) 0.0102(11) -0.0207(11)
Cu1 0.0475(3) 0.0367(3) 0.0326(3) 0.0001(2) 0.0051(2) -0.0179(2)
Cu2 0.0432(3) 0.0528(4) 0.0439(4) 0.000 0.000 -0.0012(3)
Cu3 0.0566 0.0419 0.0572 -0.0052 0.005 -0.0081
N1 0.0455(16) 0.0339(15) 0.0527(18) -0.0026(13) 0.0062(14) -0.0078(12)
N2 0.0462(15) 0.0373(14) 0.0363(15) -0.0028(12) 0.0060(12) -0.0145(12)
N3 0.0494(16) 0.0374(14) 0.0366(15) -0.0017(12) 0.0054(13) -0.0136(13)
N4 0.0463(16) 0.0402(15) 0.0460(17) -0.0015(13) 0.0142(13) -0.0052(13)
N5 0.064(2) 0.057(2) 0.065(2) -0.0060(18) 0.0030(18) -0.0087(18)
C1 0.057 0.0419 0.053 -0.0031 0.006 -0.0052
C2 0.061(2) 0.0409(19) 0.044(2) -0.0021(16) 0.0144(18) -0.0044(17)
C3 0.0476(19) 0.0341(17) 0.051(2) 0.0055(15) 0.0066(16) -0.0099(14)
C4 0.0392(17) 0.0316(16) 0.0366(17) 0.0022(13) -0.0003(13) -0.0048(13)
C5 0.053(2) 0.0455(19) 0.047(2) -0.0041(17) 0.0119(16) -0.0168(16)
C6 0.053(2) 0.0382(18) 0.059(2) -0.0013(17) 0.0090(18) -0.0140(16)
C7 0.0400(16) 0.0395(18) 0.0333(17) 0.0045(14) 0.0014(13) -0.0075(13)
C8 0.054(2) 0.0387(18) 0.043(2) -0.0009(15) 0.0026(16) -0.0138(15)
C9 0.0439(18) 0.0416(18) 0.0356(17) 0.0017(14) 0.0061(14) -0.0095(14)
C10 0.060(2) 0.0327(17) 0.048(2) -0.0022(15) 0.0054(17) -0.0093(15)
C11 0.051(2) 0.043(2) 0.046(2) -0.0026(16) 0.0104(16) 0.0007(16)
C12 0.081(3) 0.0348(18) 0.059(2) -0.0014(17) 0.031(2) -0.0101(18)
C13 0.072(3) 0.043(2) 0.057(2) -0.0023(18) 0.031(2) -0.0012(19)
C14 0.0374(17) 0.0390(17) 0.0421(18) -0.0036(15) -0.0028(14) 0.0048(14)
O1D 0.0589 0.0439 0.0394 -0.0015 0.0102 -0.0207
Cu2E 0.0432 0.0528 0.0439 0 0 -0.0012
Cu3D 0.0566 0.0419 0.0572 -0.0052 0.005 -0.0081
Cu3F 0.0566(3) 0.0419(3) 0.0572(3) 0.0052(2) 0.0050(2) 0.0081(2)
Cu3B 0.0566 0.0419 0.0572 0.0052 0.005 0.0081
Cu3G 0.0566 0.0419 0.0572 -0.0052 -0.005 0.0081
N1D 0.0455 0.0339 0.0527 -0.0026 0.0062 -0.0078
N2D 0.0462 0.0373 0.0363 -0.0028 0.006 -0.0145
N3D 0.0494 0.0374 0.0366 -0.0017 0.0054 -0.0136
N4D 0.0463 0.0402 0.046 -0.0015 0.0142 -0.0052
N4A 0.0463 0.0402 0.046 0.0015 -0.0142 -0.0052
N5A 0.064 0.057 0.065 0.006 -0.003 -0.0087
N5F 0.064 0.057 0.065 0.006 0.003 0.0087
N5B 0.064 0.057 0.065 0.006 0.003 0.0087
C1B 0.057 0.0419 0.053 0.0031 0.006 0.0052
C1D 0.057 0.0419 0.053 -0.0031 0.006 -0.0052
C2D 0.061 0.0409 0.044 -0.0021 0.0144 -0.0044
C3D 0.0476 0.0341 0.051 0.0055 0.0066 -0.0099
C4D 0.0392 0.0316 0.0366 0.0022 -0.0003 -0.0048
C5D 0.053 0.0455 0.047 -0.0041 0.0119 -0.0168
C6D 0.053 0.0382 0.059 -0.0013 0.009 -0.014
C7D 0.04 0.0395 0.0333 0.0045 0.0014 -0.0075
C8D 0.054 0.0387 0.043 -0.0009 0.0026 -0.0138
C9D 0.0439 0.0416 0.0356 0.0017 0.0061 -0.0095
C10D 0.06 0.0327 0.048 -0.0022 0.0054 -0.0093
C11D 0.051 0.043 0.046 -0.0026 0.0104 0.0007
C12D 0.081 0.0348 0.059 -0.0014 0.031 -0.0101
C13D 0.072 0.043 0.057 -0.0023 0.031 -0.0012
C14A 0.0374 0.039 0.0421 0.0036 0.0028 0.0048
loop_
_geom_bond_atom_site_label_1
_geom_bond_atom_site_label_2
_geom_bond_site_symmetry_1
_geom_bond_site_symmetry_2
O1 Cu1 1_555 1_555
Cu1 N3 1_555 1_555
Cu2 N4 1_555 1_555
Cu3 N1 1_555 1_555
N1 C2 1_555 1_555
N2 N3 1_555 1_555
N3 C8 1_555 1_555
N4 C11 1_555 1_555
N5 C14 1_555 1_555
C1 Cu3 1_555 1_555
C2 H1 1_555 1_555
C3 C2 1_555 1_555
H2 C3 1_555 1_555
C4 C3 1_555 1_555
C5 C4 1_555 1_555
H3 C5 1_555 1_555
C6 N1 1_555 1_555
H4 C6 1_555 1_555
C7 O1 1_555 1_555
C8 H5 1_555 1_555
C9 C8 1_555 1_555
C10 C9 1_555 1_555
H6 C10 1_555 1_555
C11 C10 1_555 1_555
H7 C11 1_555 1_555
C12 N4 1_555 1_555
H8 C12 1_555 1_555
C13 C9 1_555 1_555
H9 C13 1_555 1_555
C14 Cu2 1_555 1_555
O2 H10 1_555 1_555
H11 O2 1_555 1_555
O3 H12 1_555 1_555
H13 O3 1_555 1_555
O1D Cu1 1_555 1_555
Cu2E N4D 1_555 1_555
Cu3D N1D 1_555 1_555
Cu3F N5 1_555 1_555
Cu3B C1B 1_555 1_555
Cu3G N5A 1_555 1_555
N1D C2D 1_555 1_555
N2D N3D 1_555 1_555
N3D Cu1 1_555 1_555
N4D C11D 1_555 1_555
N4A Cu2 1_555 1_555
N5A C14A 1_555 1_555
N5F Cu3 1_555 1_555
N5B Cu3D 1_555 1_555
C1B C1 1_555 1_555
C1D Cu3D 1_555 1_555
C2D H1D 1_555 1_555
C3D C2D 1_555 1_555
H2D C3D 1_555 1_555
C4D C3D 1_555 1_555
C5D C4D 1_555 1_555
H3D C5D 1_555 1_555
C6D N1D 1_555 1_555
H4D C6D 1_555 1_555
C7D O1D 1_555 1_555
C8D N3D 1_555 1_555
H5D C8D 1_555 1_555
C9D C8D 1_555 1_555
C10D C9D 1_555 1_555
H6D C10D 1_555 1_555
C11D C10D 1_555 1_555
H7D C11D 1_555 1_555
C12D N4D 1_555 1_555
H8D C12D 1_555 1_555
C13D C9D 1_555 1_555
H9D C13D 1_555 1_555
C14A Cu2 1_555 1_555
N2 C7 1_555 1_555
C4 C7 1_555 1_555
C5 C6 1_555 1_555
C12 C13 1_555 1_555
N2D C7D 1_555 1_555
C4D C7D 1_555 1_555
C5D C6D 1_555 1_555
C12D C13D 1_555 1_555

#END
