
#######################################################################
#
#                 Cambridge Crystallographic Data Centre
#                                CCDC 
#
#######################################################################
#
# If this CIF has been generated from an entry in the Cambridge 
# Structural Database, then it will include bibliographic, chemical, 
# crystal, experimental, refinement or atomic coordinate data resulting 
# from the CCDC's data processing and validation procedures.
#
#######################################################################

data_ASUJIJ
_chemical_formula_moiety         '(C24 H28 N10 O15 Zn2)n'
_symmetry_cell_setting           monoclinic
_symmetry_space_group_name_H-M   'P 21/c'
_symmetry_Int_Tables_number      14
_space_group_name_Hall           '-P 2ybc'
loop_
_symmetry_equiv_pos_site_id
_symmetry_equiv_pos_as_xyz
1 x,y,z
2 -x,1/2+y,1/2-z
3 -x,-y,-z
4 x,1/2-y,1/2+z
_cell_length_a                   19.377(5)
_cell_length_b                   16.277(4)
_cell_length_c                   10.720(3)
_cell_angle_alpha                90
_cell_angle_beta                 101.384(5)
_cell_angle_gamma                90
_cell_volume                     3314.56
loop_
_atom_site_label
_atom_site_type_symbol
_atom_site_fract_x
_atom_site_fract_y
_atom_site_fract_z
Zn1 Zn 0.01063(2) 0.65856(3) 0.04794(4)
Zn2 Zn -0.50095(2) 0.65312(2) 0.01872(4)
C1 C 0.02362(19) 0.7772(2) 0.2855(4)
N1 N 0.02197(17) 0.7639(2) 0.4071(3)
C2 C 0.0215(2) 0.8585(2) 0.2217(4)
H1 H -0.0069 0.8955 0.2617
H2 H -0.0020 0.8521 0.1336
N2 N 0.0229(2) 0.6818(2) 0.4232(4)
C3 C 0.1459(2) 0.8550(3) 0.1989(6)
H3 H 0.1418 0.7986 0.1862
N3 N 0.0240(2) 0.6463(2) 0.3149(4)
C4 C 0.2077(2) 0.8939(3) 0.1911(5)
H4 H 0.2454 0.8632 0.1745
N4 N 0.02418(17) 0.7052(2) 0.2254(3)
C5 C 0.2152(2) 0.9783(2) 0.2073(4)
N5 N 0.49797(17) 1.22724(18) 0.3294(3)
C6 C 0.1577(2) 1.0208(2) 0.2358(5)
H5 H 0.1606 1.0772 0.2490
N6 N 0.52224(19) 1.3042(2) 0.3564(3)
C7 C 0.0969(2) 0.9796(2) 0.2445(4)
H6 H 0.0591 1.0085 0.2642
N7 N 0.5264(2) 1.3413(2) 0.2510(4)
C8 C 0.2815(2) 1.0223(2) 0.1947(4)
N8 N 0.50443(17) 1.28922(19) 0.1525(3)
C9 C 0.3453(2) 0.9812(2) 0.2075(4)
H7 H 0.3481 0.9256 0.2279
N9 N 0.09130(17) 0.89763(19) 0.2247(3)
C10 C -0.20042(19) 0.4613(2) -0.0658(4)
O1 O -0.08095(14) 0.61012(18) 0.0512(3)
C11 C -0.2678(2) 0.4307(2) -0.0685(4)
H8 H -0.2766 0.3751 -0.0833
O2 O -0.10026(17) 0.5908(2) -0.1566(3)
C12 C -0.32242(19) 0.4821(2) -0.0492(4)
O3 O -0.35537(15) 0.69669(17) 0.0088(3)
C13 C -0.30835(19) 0.5652(2) -0.0231(4)
O4 O -0.41815(14) 0.58570(17) 0.0328(3)
C14 C -0.24103(19) 0.5962(2) -0.0238(4)
H9 H -0.2322 0.6519 -0.0098
O5 O -0.43799(15) 0.45716(19) -0.1644(3)
C15 C -0.18726(19) 0.5449(2) -0.0452(4)
O6 O -0.40494(14) 0.39477(17) 0.0213(3)
C16 C -0.1431(2) 0.4017(2) -0.0791(4)
O7 O -0.15801(19) 0.3343(2) -0.1268(5)
C17 C -0.3946(2) 0.4442(2) -0.0659(4)
O8 O -0.08056(14) 0.42459(18) -0.0347(3)
C18 C -0.36405(19) 0.6217(2) 0.0067(4)
C19 C 0.4042(2) 1.0224(2) 0.1901(4)
H10 H 0.4467 0.9944 0.1989
N10 N 0.40156(16) 1.10276(18) 0.1603(3)
C20 C 0.3414(2) 1.1448(2) 0.1531(5)
H11 H 0.3402 1.2007 0.1346
C21 C 0.2815(2) 1.1061(3) 0.1729(5)
H12 H 0.2407 1.1364 0.1715
C22 C 0.4640(2) 1.1441(2) 0.1269(4)
H13 H 0.4531 1.1588 0.0375
H14 H 0.5028 1.1054 0.1389
C23 C 0.48710(19) 1.2198(2) 0.2034(4)
C24 C -0.1166(2) 0.5833(2) -0.0517(4)
Zn1B Zn -0.01063(2) 0.34144(3) -0.04794(4)
Zn1C Zn 0.01063(2) 0.84144(3) 0.54794(4)
Zn2A Zn 0.50095(2) 1.15312(2) 0.48128(4)
Zn2B Zn -0.49905(2) 0.34688(2) -0.01872(4)
Zn2B_2 Zn 0.50095(2) 1.34688(2) -0.01872(4)
N1C N 0.02197(17) 0.7361(2) -0.0929(3)
N5A N -0.49797(17) 0.72724(18) 0.1706(3)
N8B N -0.50443(17) 0.71078(19) -0.1525(3)
O6B O -0.59506(14) 0.60523(17) -0.0213(3)
O8B O 0.08056(14) 0.57541(18) 0.0347(3)
O9 O -0.3904(3) 0.5367(3) -0.3684(5)
O10 O -0.1254(3) 0.8022(4) 0.0247(6)
O11 O -0.1617(3) 0.7643(3) -0.2410(6)
O12 O -0.3072(4) 0.8180(4) 0.1848(6)
O13 O -0.1896(8) 0.5662(10) -0.3887(12)
O15 O -0.3700(6) 0.3789(7) -0.4298(12)
O16 O -0.3268(7) 0.2622(8) 0.2015(19)
loop_
_geom_bond_atom_site_label_1
_geom_bond_atom_site_label_2
_geom_bond_site_symmetry_1
_geom_bond_site_symmetry_2
Zn1 N4 1_555 1_555
Zn2 O4 1_555 1_555
C1 N1 1_555 1_555
N1 N2 1_555 1_555
C2 C1 1_555 1_555
H1 C2 1_555 1_555
H2 C2 1_555 1_555
N2 N3 1_555 1_555
C3 H3 1_555 1_555
N3 N4 1_555 1_555
C4 C3 1_555 1_555
H4 C4 1_555 1_555
N4 C1 1_555 1_555
C5 C4 1_555 1_555
N5 N6 1_555 1_555
C6 C5 1_555 1_555
H5 C6 1_555 1_555
N6 N7 1_555 1_555
C7 C6 1_555 1_555
H6 C7 1_555 1_555
N7 N8 1_555 1_555
C8 C5 1_555 1_555
N8 C23 1_555 1_555
C9 C8 1_555 1_555
H7 C9 1_555 1_555
N9 C2 1_555 1_555
C10 C11 1_555 1_555
O1 Zn1 1_555 1_555
C11 H8 1_555 1_555
O2 C24 1_555 1_555
C12 C11 1_555 1_555
O3 C18 1_555 1_555
C13 C12 1_555 1_555
O4 C18 1_555 1_555
C14 C13 1_555 1_555
H9 C14 1_555 1_555
O5 C17 1_555 1_555
C15 C10 1_555 1_555
O6 C17 1_555 1_555
C16 C10 1_555 1_555
O7 C16 1_555 1_555
C17 C12 1_555 1_555
O8 C16 1_555 1_555
C18 C13 1_555 1_555
C19 C9 1_555 1_555
H10 C19 1_555 1_555
N10 C19 1_555 1_555
C20 N10 1_555 1_555
H11 C20 1_555 1_555
C21 C8 1_555 1_555
H12 C21 1_555 1_555
C22 N10 1_555 1_555
H13 C22 1_555 1_555
H14 C22 1_555 1_555
C23 N5 1_555 1_555
C24 O1 1_555 1_555
Zn1B O8 1_555 1_555
Zn1C N1 1_555 1_555
Zn2A N5 1_555 1_555
Zn2B O6 1_555 1_555
Zn2B_2 N8 1_555 1_555
N1C Zn1 1_555 1_555
N5A Zn2 1_555 1_555
N8B Zn2 1_555 1_555
O6B Zn2 1_555 1_555
O8B Zn1 1_555 1_555
C3 N9 1_555 1_555
C7 N9 1_555 1_555
C14 C15 1_555 1_555
C15 C24 1_555 1_555
C20 C21 1_555 1_555
C22 C23 1_555 1_555

#END
