
#######################################################################
#
#                 Cambridge Crystallographic Data Centre
#                                CCDC 
#
#######################################################################
#
# If this CIF has been generated from an entry in the Cambridge 
# Structural Database, then it will include bibliographic, chemical, 
# crystal, experimental, refinement or atomic coordinate data resulting 
# from the CCDC's data processing and validation procedures.
#
#######################################################################

data_PARVUB
_chemical_formula_moiety         '(C88 H86 Co3 N16 O18 S2)n'
_symmetry_cell_setting           monoclinic
_symmetry_space_group_name_H-M   'C 2/c'
_symmetry_Int_Tables_number      15
_space_group_name_Hall           '-C 2yc'
loop_
_symmetry_equiv_pos_site_id
_symmetry_equiv_pos_as_xyz
1 x,y,z
2 -x,y,1/2-z
3 1/2+x,1/2+y,z
4 1/2-x,1/2+y,1/2-z
5 -x,-y,-z
6 x,-y,1/2+z
7 1/2-x,1/2-y,-z
8 1/2+x,1/2-y,1/2+z
_cell_length_a                   45.497(2)
_cell_length_b                   10.5235(5)
_cell_length_c                   19.0900(9)
_cell_angle_alpha                90
_cell_angle_beta                 99.9690(10)
_cell_angle_gamma                90
_cell_volume                     9002.06
loop_
_atom_site_label
_atom_site_type_symbol
_atom_site_fract_x
_atom_site_fract_y
_atom_site_fract_z
O1 O 0.0284(2) 0.5464(12) 0.7897(7)
O2 O 0.00693(19) 0.3231(8) 0.6852(5)
C1 C 0.24143(7) 1.3055(3) 0.98081(17)
H1 H 0.2511 1.3325 0.9419
H2 H 0.2214 1.2781 0.9608
N1 N 0.13721(5) 1.7280(2) 1.03525(12)
C2 C 0.15502(6) 1.8096(3) 1.07392(15)
H3 H 0.1693 1.8571 1.0560
N2 N 0.15066(5) 1.8179(2) 1.14193(12)
C3 C 0.16446(7) 1.9102(3) 1.19488(17)
H4 H 0.1693 1.8690 1.2409
H5 H 0.1829 1.9406 1.1820
C4 C 0.14400(8) 2.0217(3) 1.20014(18)
H6 H 0.1256 1.9901 1.2131
H7 H 0.1534 2.0769 1.2382
Co1 Co 0.0000 0.98234(5) 0.7500
O3 O 0.12735(4) 1.50689(17) 0.93712(10)
N3 N 0.13590(5) 2.3367(2) 1.31588(12)
C5 C 0.14851(7) 2.3761(3) 1.20764(16)
Co2 Co 0.139130(7) 1.69745(3) 0.927330(18)
N4 N 0.12575(5) 2.2875(2) 1.20060(12)
O4 O 0.07952(4) 1.50883(19) 0.88646(13)
C6 C 0.15418(6) 2.4093(3) 1.27960(15)
S1 S 0.166400(15) 1.02849(7) 0.92588(4)
O5 O 0.05670(4) 0.9280(2) 0.80440(10)
C7 C 0.17487(7) 2.5037(3) 1.30326(17)
H8 H 0.1783 2.5301 1.3505
O6 O 0.03170(4) 1.10810(18) 0.78511(10)
C8 C 0.19023(8) 2.5570(4) 1.25414(19)
H9 H 0.2042 2.6202 1.2687
N5 N 0.18482(4) 1.6483(2) 0.94976(12)
C9 C 0.18517(8) 2.5181(4) 1.1835(2)
H10 H 0.1965 2.5538 1.1524
O7 O 0.15627(4) 0.89650(18) 0.91921(11)
N6 N 0.22340(5) 1.5239(2) 0.99338(13)
C10 C 0.16407(8) 2.4290(3) 1.15829(18)
H11 H 0.1604 2.4051 1.1107
O8 O 0.18466(4) 1.0631(2) 0.87459(12)
N7 N 0.00752(5) 0.8951(2) 0.66121(13)
C11 C 0.11961(6) 2.2686(3) 1.26641(15)
H12 H 0.1051 2.2122 1.2758
O9 O 0.17894(4) 1.0625(2) 0.99802(11)
N8 N -0.00023(6) 0.7722(3) 0.56499(14)
C12 C 0.11512(8) 2.2075(3) 1.13843(16)
H13 H 0.0957 2.1731 1.1422
H14 H 0.1129 2.2590 1.0957
O10 O 0.09155(4) 1.75199(19) 0.90513(10)
H15 H 0.0808 1.6859 0.8959
H16 H 0.0871 1.7890 0.9416
C13 C 0.12780(6) 1.7349(3) 1.14872(15)
C14 C 0.11942(6) 1.6785(3) 1.08180(14)
C15 C 0.09654(6) 1.5895(3) 1.07127(16)
H17 H 0.0903 1.5521 1.0270
C16 C 0.08338(7) 1.5586(4) 1.12878(18)
H18 H 0.0681 1.4989 1.1231
C17 C 0.09239(8) 1.6145(4) 1.19517(18)
H19 H 0.0831 1.5902 1.2328
C18 C 0.11444(7) 1.7039(3) 1.20645(17)
H20 H 0.1202 1.7421 1.2506
C19 C 0.23365(6) 1.6073(3) 0.94689(16)
C20 C 0.20946(6) 1.6851(3) 0.91962(15)
C21 C 0.21248(6) 1.7764(3) 0.86963(16)
H21 H 0.1965 1.8281 0.8505
C22 C 0.23978(7) 1.7887(3) 0.84902(19)
H22 H 0.2423 1.8498 0.8154
C23 C 0.26379(7) 1.7114(3) 0.8776(2)
H23 H 0.2820 1.7233 0.8628
C24 C 0.26145(6) 1.6191(3) 0.92640(19)
H24 H 0.2775 1.5671 0.9449
C25 C 0.19451(6) 1.5533(3) 0.99162(15)
H25 H 0.1824 1.5096 1.0180
C26 C 0.23982(6) 1.4165(3) 1.03043(16)
H26 H 0.2300 1.3895 1.0692
H27 H 0.2599 1.4436 1.0506
C27 C 0.13173(6) 1.2460(3) 0.91678(14)
H28 H 0.1485 1.2881 0.9406
C28 C 0.10507(6) 1.3128(3) 0.89491(14)
C29 C 0.08017(5) 1.2475(3) 0.86039(13)
H29 H 0.0623 1.2908 0.8468
C30 C 0.08157(5) 1.1191(3) 0.84591(13)
C31 C 0.10823(6) 1.0547(3) 0.86745(14)
H30 H 0.1093 0.9684 0.8578
C32 C 0.13303(5) 1.1169(3) 0.90283(14)
C33 C 0.10372(6) 1.4540(3) 0.90714(14)
C34 C 0.05530(6) 1.0452(3) 0.80960(14)
C35 C 0.02087(7) 0.8607(3) 0.55287(16)
C36 C 0.02555(6) 0.9378(3) 0.61373(15)
C37 C 0.04503(7) 1.0398(3) 0.61835(17)
H31 H 0.0482 1.0921 0.6582
C38 C 0.05946(8) 1.0607(4) 0.56192(19)
H32 H 0.0728 1.1282 0.5638
C39 C 0.05464(9) 0.9833(4) 0.5019(2)
H33 H 0.0648 1.0003 0.4648
C40 C 0.03534(8) 0.8830(4) 0.49623(19)
H34 H 0.0321 0.8319 0.4559
C41 C -0.00716(6) 0.7972(3) 0.62907(17)
H35 H -0.0210 0.7501 0.6489
C42 C -0.01300(8) 0.6690(3) 0.5178(2)
H36 H -0.0165 0.6992 0.4691
H37 H -0.0321 0.6445 0.5298
C43 C 0.00716(8) 0.5546(4) 0.5236(2)
H38 H 0.0114 0.5264 0.5727
H39 H 0.0259 0.5780 0.5095
C44 C 0.13624(8) 2.1002(3) 1.13242(17)
H40 H 0.1274 2.0449 1.0939
H41 H 0.1545 2.1347 1.1203
C1F C 0.25857(7) 1.1945(3) 1.01919(17)
H1F H 0.2489 1.1675 1.0581
H2F H 0.2786 1.2219 1.0392
N1E N 0.13721(5) 2.2720(2) 0.53525(12)
N1A N -0.13721(5) 1.7280(2) 0.46475(12)
C2E C 0.15502(6) 2.1904(3) 0.57392(15)
H3E H 0.1693 2.1429 0.5560
N2E N 0.15066(5) 2.1821(2) 0.64193(12)
C3E C 0.16446(7) 2.0898(3) 0.69488(17)
H4E H 0.1693 2.1310 0.7409
H5E H 0.1829 2.0594 0.6820
C4E C 0.14400(8) 1.9783(3) 0.70014(18)
H6E H 0.1256 2.0099 0.7131
H7E H 0.1534 1.9231 0.7382
Co1D Co -0.0000 0.01766(5) 0.2500
O3A O -0.12735(4) 1.50689(17) 0.56288(10)
N3E N 0.13590(5) 1.6633(2) 0.81588(12)
N3D N -0.13590(5) 1.6633(2) 0.68412(12)
C5E C 0.14851(7) 1.6239(3) 0.70764(16)
Co2A Co -0.139130(7) 1.69745(3) 0.572670(18)
Co2E Co 0.139130(7) 2.30255(3) 1.427330(18)
Co2_2 Co 0.139130(7) 0.69745(3) 0.927330(18)
Co2F Co 0.360870(7) 0.80255(3) 1.072670(18)
Co2A_2 Co -0.139130(7) 0.69745(3) 0.572670(18)
Co2E_2 Co 0.139130(7) 2.30255(3) 0.427330(18)
N4E N 0.12575(5) 1.7125(2) 0.70060(12)
O4A O -0.07952(4) 1.50883(19) 0.61354(13)
C6E C 0.15418(6) 1.5907(3) 0.77960(15)
S1A S -0.166400(15) 1.02849(7) 0.57412(4)
O5A O -0.05670(4) 0.9280(2) 0.69560(10)
C7E C 0.17487(7) 1.4963(3) 0.80326(17)
H8E H 0.1783 1.4699 0.8505
O6A O -0.03170(4) 1.10810(18) 0.71489(10)
C8E C 0.19023(8) 1.4430(4) 0.75414(19)
H9E H 0.2042 1.3798 0.7687
N5F N 0.31518(4) 0.8517(2) 1.05024(12)
N5A N -0.18482(4) 1.6483(2) 0.55024(12)
C9E C 0.18517(8) 1.4819(4) 0.6835(2)
H10E H 0.1965 1.4462 0.6524
O7A O -0.15627(4) 0.89650(18) 0.58079(11)
O7_2 O 0.15627(4) 1.89650(18) 0.91921(11)
O7A_2 O -0.15627(4) 1.89650(18) 0.58079(11)
N6F N 0.27660(5) 0.9761(2) 1.00662(13)
C10E C 0.16407(8) 1.5710(3) 0.65829(18)
H11E H 0.1604 1.5949 0.6107
O8A O -0.18466(4) 1.0631(2) 0.62541(12)
N7D N -0.00752(5) 0.1049(2) 0.33879(13)
N7A N -0.00752(5) 0.8951(2) 0.83879(13)
C11E C 0.11961(6) 1.7314(3) 0.76641(15)
H12E H 0.1051 1.7878 0.7758
O9A O -0.17894(4) 1.0625(2) 0.50198(11)
N8D N 0.00023(6) 0.2278(3) 0.43501(14)
C12E C 0.11512(8) 1.7925(3) 0.63843(16)
H13E H 0.0957 1.8269 0.6422
H14E H 0.1129 1.7410 0.5957
O10A O -0.09155(4) 1.75199(19) 0.59487(10)
H15A H -0.0808 1.6859 0.6041
H16A H -0.0871 1.7890 0.5584
C13E C 0.12780(6) 2.2651(3) 0.64872(15)
C14E C 0.11942(6) 2.3215(3) 0.58180(14)
C15E C 0.09654(6) 2.4105(3) 0.57127(16)
H17E H 0.0903 2.4479 0.5270
C16E C 0.08338(7) 2.4414(4) 0.62878(18)
H18E H 0.0681 2.5011 0.6231
C17E C 0.09239(8) 2.3855(4) 0.69517(18)
H19E H 0.0831 2.4098 0.7328
C18E C 0.11444(7) 2.2961(3) 0.70645(17)
H20E H 0.1202 2.2579 0.7506
C19F C 0.26635(6) 0.8927(3) 1.05311(16)
C20F C 0.29054(6) 0.8149(3) 1.08038(15)
C21F C 0.28752(6) 0.7236(3) 1.13037(16)
H21F H 0.3035 0.6719 1.1495
C22F C 0.26022(7) 0.7113(3) 1.15098(19)
H22F H 0.2577 0.6502 1.1846
C23F C 0.23621(7) 0.7886(3) 1.1224(2)
H23F H 0.2180 0.7767 1.1372
C24F C 0.23855(6) 0.8809(3) 1.07360(19)
H24F H 0.2225 0.9329 1.0551
C25F C 0.30549(6) 0.9467(3) 1.00838(15)
H25F H 0.3176 0.9904 0.9820
C26F C 0.26018(6) 1.0835(3) 0.96957(16)
H26F H 0.2700 1.1105 0.9308
H27F H 0.2401 1.0564 0.9494
C27A C -0.13173(6) 1.2460(3) 0.58322(14)
H28A H -0.1485 1.2881 0.5594
C28A C -0.10507(6) 1.3128(3) 0.60509(14)
C29A C -0.08017(5) 1.2475(3) 0.63961(13)
H29A H -0.0623 1.2908 0.6532
C30A C -0.08157(5) 1.1191(3) 0.65409(13)
C31A C -0.10823(6) 1.0547(3) 0.63255(14)
H30A H -0.1093 0.9684 0.6422
C32A C -0.13303(5) 1.1169(3) 0.59717(14)
C33A C -0.10372(6) 1.4540(3) 0.59286(14)
C34A C -0.05530(6) 1.0452(3) 0.69040(14)
C35D C -0.02087(7) 0.1393(3) 0.44713(16)
C36D C -0.02555(6) 0.0622(3) 0.38627(15)
C37D C -0.04503(7) -0.0398(3) 0.38165(17)
H31D H -0.0482 -0.0921 0.3418
C38D C -0.05946(8) -0.0607(4) 0.43808(19)
H32D H -0.0728 -0.1282 0.4362
C39D C -0.05464(9) 0.0167(4) 0.4981(2)
H33D H -0.0648 -0.0003 0.5352
C40D C -0.03534(8) 0.1170(4) 0.50377(19)
H34D H -0.0321 0.1681 0.5441
C41D C 0.00716(6) 0.2028(3) 0.37093(17)
H35D H 0.0210 0.2499 0.3511
C42D C 0.01300(8) 0.3310(3) 0.4822(2)
H36D H 0.0165 0.3008 0.5309
H37D H 0.0321 0.3555 0.4702
C43D C -0.00716(8) 0.4454(4) 0.4764(2)
H38D H -0.0114 0.4736 0.4273
H39D H -0.0259 0.4220 0.4905
C44E C 0.13624(8) 1.8998(3) 0.63242(17)
H40E H 0.1274 1.9551 0.5939
H41E H 0.1545 1.8653 0.6203
loop_
_geom_bond_atom_site_label_1
_geom_bond_atom_site_label_2
_geom_bond_site_symmetry_1
_geom_bond_site_symmetry_2
C1 H1 1_555 1_555
H2 C1 1_555 1_555
N1 C2 1_555 1_555
C2 H3 1_555 1_555
N2 C2 1_555 1_555
C3 N2 1_555 1_555
H4 C3 1_555 1_555
H5 C3 1_555 1_555
C4 C3 1_555 1_555
H6 C4 1_555 1_555
H7 C4 1_555 1_555
Co1 O6 1_555 1_555
O3 Co2 1_555 1_555
N3 C6 1_555 1_555
C5 N4 1_555 1_555
Co2 N1 1_555 1_555
N4 C11 1_555 1_555
O4 C33 1_555 1_555
C6 C5 1_555 1_555
S1 O7 1_555 1_555
O5 C34 1_555 1_555
C7 C6 1_555 1_555
H8 C7 1_555 1_555
O6 C34 1_555 1_555
C8 C7 1_555 1_555
H9 C8 1_555 1_555
N5 Co2 1_555 1_555
C9 C8 1_555 1_555
H10 C9 1_555 1_555
O7 Co2_2 1_555 1_555
N6 C19 1_555 1_555
C10 C5 1_555 1_555
H11 C10 1_555 1_555
O8 S1 1_555 1_555
N7 Co1 1_555 1_555
C11 N3 1_555 1_555
H12 C11 1_555 1_555
O9 S1 1_555 1_555
N8 C35 1_555 1_555
C12 N4 1_555 1_555
H13 C12 1_555 1_555
H14 C12 1_555 1_555
O10 Co2 1_555 1_555
H15 O10 1_555 1_555
H16 O10 1_555 1_555
C13 N2 1_555 1_555
C14 N1 1_555 1_555
C15 C14 1_555 1_555
H17 C15 1_555 1_555
C16 C15 1_555 1_555
H18 C16 1_555 1_555
C17 C16 1_555 1_555
H19 C17 1_555 1_555
C18 C13 1_555 1_555
H20 C18 1_555 1_555
C19 C20 1_555 1_555
C20 N5 1_555 1_555
C21 C20 1_555 1_555
H21 C21 1_555 1_555
C22 C21 1_555 1_555
H22 C22 1_555 1_555
C23 C22 1_555 1_555
H23 C23 1_555 1_555
C24 C19 1_555 1_555
H24 C24 1_555 1_555
C25 N5 1_555 1_555
H25 C25 1_555 1_555
C26 C1 1_555 1_555
H26 C26 1_555 1_555
H27 C26 1_555 1_555
C27 H28 1_555 1_555
C28 C27 1_555 1_555
C29 C28 1_555 1_555
H29 C29 1_555 1_555
C30 C29 1_555 1_555
C31 C30 1_555 1_555
H30 C31 1_555 1_555
C32 S1 1_555 1_555
C33 O3 1_555 1_555
C34 C30 1_555 1_555
C35 C36 1_555 1_555
C36 N7 1_555 1_555
C37 C36 1_555 1_555
H31 C37 1_555 1_555
C38 C37 1_555 1_555
H32 C38 1_555 1_555
C39 C38 1_555 1_555
H33 C39 1_555 1_555
C40 C35 1_555 1_555
H34 C40 1_555 1_555
C41 N7 1_555 1_555
H35 C41 1_555 1_555
C42 N8 1_555 1_555
H36 C42 1_555 1_555
H37 C42 1_555 1_555
C43 C42 1_555 1_555
H38 C43 1_555 1_555
H39 C43 1_555 1_555
C44 C4 1_555 1_555
H40 C44 1_555 1_555
H41 C44 1_555 1_555
C1F C1 1_555 1_555
H1F C1F 1_555 1_555
H2F C1F 1_555 1_555
N1E C2E 1_555 1_555
N1A Co2A 1_555 1_555
C2E H3E 1_555 1_555
N2E C2E 1_555 1_555
C3E N2E 1_555 1_555
H4E C3E 1_555 1_555
H5E C3E 1_555 1_555
C4E C3E 1_555 1_555
H6E C4E 1_555 1_555
H7E C4E 1_555 1_555
Co1D N7D 1_555 1_555
O3A Co2A 1_555 1_555
N3E Co2 1_555 1_555
N3D Co2A 1_555 1_555
C5E N4E 1_555 1_555
Co2A N5A 1_555 1_555
Co2E N3 1_555 1_555
Co2F N5F 1_555 1_555
Co2A_2 O7A 1_555 1_555
Co2E_2 N1E 1_555 1_555
N4E C11E 1_555 1_555
O4A C33A 1_555 1_555
C6E N3E 1_555 1_555
S1A O7A 1_555 1_555
O5A C34A 1_555 1_555
C7E C6E 1_555 1_555
H8E C7E 1_555 1_555
O6A Co1 1_555 1_555
C8E C7E 1_555 1_555
H9E C8E 1_555 1_555
N5F C20F 1_555 1_555
C9E C8E 1_555 1_555
H10E C9E 1_555 1_555
O7_2 Co2 1_555 1_555
O7A_2 Co2A 1_555 1_555
N6F C19F 1_555 1_555
C10E C5E 1_555 1_555
H11E C10E 1_555 1_555
O8A S1A 1_555 1_555
N7D C36D 1_555 1_555
N7A Co1 1_555 1_555
C11E N3E 1_555 1_555
H12E C11E 1_555 1_555
O9A S1A 1_555 1_555
N8D C35D 1_555 1_555
C12E N4E 1_555 1_555
H13E C12E 1_555 1_555
H14E C12E 1_555 1_555
O10A Co2A 1_555 1_555
H15A O10A 1_555 1_555
H16A O10A 1_555 1_555
C13E N2E 1_555 1_555
C14E N1E 1_555 1_555
C15E C14E 1_555 1_555
H17E C15E 1_555 1_555
C16E C15E 1_555 1_555
H18E C16E 1_555 1_555
C17E C16E 1_555 1_555
H19E C17E 1_555 1_555
C18E C13E 1_555 1_555
H20E C18E 1_555 1_555
C19F C20F 1_555 1_555
C20F C21F 1_555 1_555
C21F H21F 1_555 1_555
C22F C21F 1_555 1_555
H22F C22F 1_555 1_555
C23F C22F 1_555 1_555
H23F C23F 1_555 1_555
C24F C19F 1_555 1_555
H24F C24F 1_555 1_555
C25F N5F 1_555 1_555
H25F C25F 1_555 1_555
C26F C1F 1_555 1_555
H26F C26F 1_555 1_555
H27F C26F 1_555 1_555
C27A H28A 1_555 1_555
C28A C27A 1_555 1_555
C29A C28A 1_555 1_555
H29A C29A 1_555 1_555
C30A C29A 1_555 1_555
C31A C30A 1_555 1_555
H30A C31A 1_555 1_555
C32A S1A 1_555 1_555
C33A O3A 1_555 1_555
C34A O6A 1_555 1_555
C35D C36D 1_555 1_555
C36D C37D 1_555 1_555
C37D H31D 1_555 1_555
C38D C37D 1_555 1_555
H32D C38D 1_555 1_555
C39D C38D 1_555 1_555
H33D C39D 1_555 1_555
C40D C35D 1_555 1_555
H34D C40D 1_555 1_555
C41D N7D 1_555 1_555
H35D C41D 1_555 1_555
C42D N8D 1_555 1_555
H36D C42D 1_555 1_555
H37D C42D 1_555 1_555
C43D C43 1_555 1_555
H38D C43D 1_555 1_555
H39D C43D 1_555 1_555
C44E C4E 1_555 1_555
H40E C44E 1_555 1_555
H41E C44E 1_555 1_555
C9 C10 1_555 1_555
N6 C25 1_555 1_555
N6 C26 1_555 1_555
N8 C41 1_555 1_555
C12 C44 1_555 1_555
C13 C14 1_555 1_555
C17 C18 1_555 1_555
C23 C24 1_555 1_555
C27 C32 1_555 1_555
C28 C33 1_555 1_555
C31 C32 1_555 1_555
C39 C40 1_555 1_555
C5E C6E 1_555 1_555
C9E C10E 1_555 1_555
N6F C25F 1_555 1_555
N6F C26F 1_555 1_555
N8D C41D 1_555 1_555
C12E C44E 1_555 1_555
C13E C14E 1_555 1_555
C17E C18E 1_555 1_555
C23F C24F 1_555 1_555
C27A C32A 1_555 1_555
C28A C33A 1_555 1_555
C30A C34A 1_555 1_555
C31A C32A 1_555 1_555
C39D C40D 1_555 1_555
C42D C43D 1_555 1_555

#END
