
#######################################################################
#
#                 Cambridge Crystallographic Data Centre
#                                CCDC 
#
#######################################################################
#
# If this CIF has been generated from an entry in the Cambridge 
# Structural Database, then it will include bibliographic, chemical, 
# crystal, experimental, refinement or atomic coordinate data resulting 
# from the CCDC's data processing and validation procedures.
#
#######################################################################

data_EHETER02
_chemical_formula_moiety         '(C10 H14 N4 Zn1)n'
_symmetry_cell_setting           cubic
_symmetry_space_group_name_H-M   'I a -3 d'
_symmetry_Int_Tables_number      230
_space_group_name_Hall           '-I 4bd 2c 3'
loop_
_symmetry_equiv_pos_site_id
_symmetry_equiv_pos_as_xyz
1 x,y,z
2 1/2-x,-y,1/2+z
3 -x,1/2+y,1/2-z
4 1/2+x,1/2-y,-z
5 z,x,y
6 1/2+z,1/2-x,-y
7 1/2-z,-x,1/2+y
8 -z,1/2+x,1/2-y
9 y,z,x
10 -y,1/2+z,1/2-x
11 1/2+y,1/2-z,-x
12 1/2-y,-z,1/2+x
13 3/4+y,1/4+x,1/4-z
14 3/4-y,3/4-x,3/4-z
15 1/4+y,1/4-x,3/4+z
16 1/4-y,3/4+x,1/4+z
17 3/4+x,1/4+z,1/4-y
18 1/4-x,3/4+z,1/4+y
19 3/4-x,3/4-z,3/4-y
20 1/4+x,1/4-z,3/4+y
21 3/4+z,1/4+y,1/4-x
22 1/4+z,1/4-y,3/4+x
23 1/4-z,3/4+y,1/4+x
24 3/4-z,3/4-y,3/4-x
25 1/2+x,1/2+y,1/2+z
26 -x,1/2-y,z
27 1/2-x,y,-z
28 x,-y,1/2-z
29 1/2+z,1/2+x,1/2+y
30 z,-x,1/2-y
31 -z,1/2-x,y
32 1/2-z,x,-y
33 1/2+y,1/2+z,1/2+x
34 1/2-y,z,-x
35 y,-z,1/2-x
36 -y,1/2-z,x
37 1/4+y,3/4+x,3/4-z
38 1/4-y,1/4-x,1/4-z
39 3/4+y,3/4-x,1/4+z
40 3/4-y,1/4+x,3/4+z
41 1/4+x,3/4+z,3/4-y
42 3/4-x,1/4+z,3/4+y
43 1/4-x,1/4-z,1/4-y
44 3/4+x,3/4-z,1/4+y
45 1/4+z,3/4+y,3/4-x
46 3/4+z,3/4-y,1/4+x
47 3/4-z,1/4+y,3/4+x
48 1/4-z,1/4-y,1/4-x
49 -x,-y,-z
50 1/2+x,y,1/2-z
51 x,1/2-y,1/2+z
52 1/2-x,1/2+y,z
53 -z,-x,-y
54 1/2-z,1/2+x,y
55 1/2+z,x,1/2-y
56 z,1/2-x,1/2+y
57 -y,-z,-x
58 y,1/2-z,1/2+x
59 1/2-y,1/2+z,x
60 1/2+y,z,1/2-x
61 1/4-y,3/4-x,3/4+z
62 1/4+y,1/4+x,1/4+z
63 3/4-y,3/4+x,1/4-z
64 3/4+y,1/4-x,3/4-z
65 1/4-x,3/4-z,3/4+y
66 3/4+x,1/4-z,3/4-y
67 1/4+x,1/4+z,1/4+y
68 3/4-x,3/4+z,1/4-y
69 1/4-z,3/4-y,3/4+x
70 3/4-z,3/4+y,1/4-x
71 3/4+z,1/4-y,3/4-x
72 1/4+z,1/4+y,1/4+x
73 1/2-x,1/2-y,1/2-z
74 x,1/2+y,-z
75 1/2+x,-y,z
76 -x,y,1/2+z
77 1/2-z,1/2-x,1/2-y
78 -z,x,1/2+y
79 z,1/2+x,-y
80 1/2+z,-x,y
81 1/2-y,1/2-z,1/2-x
82 1/2+y,-z,x
83 -y,z,1/2+x
84 y,1/2+z,-x
85 3/4-y,1/4-x,1/4+z
86 3/4+y,3/4+x,3/4+z
87 1/4-y,1/4+x,3/4-z
88 1/4+y,3/4-x,1/4-z
89 3/4-x,1/4-z,1/4+y
90 1/4+x,3/4-z,1/4-y
91 3/4+x,3/4+z,3/4+y
92 1/4-x,1/4+z,3/4-y
93 3/4-z,1/4-y,1/4+x
94 1/4-z,1/4+y,3/4-x
95 1/4+z,3/4-y,1/4-x
96 3/4+z,3/4+y,3/4+x
_cell_length_a                   26.5949(18)
_cell_length_b                   26.5949(18)
_cell_length_c                   26.5949(18)
_cell_angle_alpha                90
_cell_angle_beta                 90
_cell_angle_gamma                90
_cell_volume                     18810.3
loop_
_atom_site_label
_atom_site_type_symbol
_atom_site_fract_x
_atom_site_fract_y
_atom_site_fract_z
_atom_site_U_iso_or_equiv
_atom_site_thermal_displace_type
Zn1 Zn 0.1250 0.839288(15) 0.089288(15) 0.0482 Uani
N1 N 0.13307(11) 0.87427(11) -0.06481(10) 0.0525 Uani
N2 N 0.12083(11) 0.84840(10) 0.01399(10) 0.0531 Uani
C1 C 0.10361(14) 0.81217(14) -0.01862(14) 0.0600 Uani
H1 H 0.0888 0.7819 -0.0094 0.0720 Uiso
C2 C 0.13821(14) 0.88510(13) -0.01596(13) 0.0530 Uani
C3 C 0.11161(14) 0.82753(14) -0.06576(15) 0.0613 Uani
H2 H 0.1038 0.8094 -0.0946 0.0730 Uiso
C4 C 0.15877(19) 0.93332(14) 0.00353(14) 0.0857 Uani
H3 H 0.1806 0.9476 -0.0220 0.1030 Uiso
H4 H 0.1794 0.9260 0.0327 0.1030 Uiso
C5 C 0.12103(19) 0.97207(14) 0.01804(14) 0.1550 Uani
H5 H 0.1381 1.0016 0.0300 0.2330 Uiso
H6 H 0.0998 0.9590 0.0442 0.2330 Uiso
H7 H 0.1009 0.9806 -0.0107 0.2330 Uiso
N1Q N 0.11693(11) 0.68519(10) 0.12427(11) 0.0525 Uani
N2Q N 0.12917(11) 0.76399(10) 0.09840(10) 0.0531 Uani
C1Q C 0.14639(14) 0.73138(14) 0.06217(14) 0.0600 Uani
H1Q H 0.1612 0.7406 0.0319 0.0720 Uiso
C2Q C 0.11179(14) 0.73404(13) 0.13510(13) 0.0530 Uani
C3Q C 0.13839(14) 0.68424(15) 0.07753(14) 0.0613 Uani
H2Q H 0.1462 0.6554 0.0594 0.0730 Uiso
C4Q C 0.09123(19) 0.75353(14) 0.18332(14) 0.0857 Uani
H3Q H 0.0694 0.7280 0.1976 0.1030 Uiso
H4Q H 0.0706 0.7827 0.1760 0.1030 Uiso
C5Q C 0.12897(19) 0.76804(14) 0.22207(14) 0.1550 Uani
H5Q H 0.1119 0.7800 0.2516 0.2330 Uiso
H6Q H 0.1502 0.7942 0.2090 0.2330 Uiso
H7Q H 0.1491 0.7393 0.2306 0.2330 Uiso
Zn1DB Zn 0.160712(15) 0.910712(15) -0.1250 0.0482 Uani
Zn1ZB Zn 0.089288(15) 0.6250 0.160712(15) 0.0482 Uani
N1ZA N 0.06481(10) 0.86693(11) 0.12573(11) 0.0525 Uani
N1PC N 0.18519(10) 0.87573(11) 0.11693(11) 0.0525 Uani
loop_
_atom_site_aniso_label
_atom_site_aniso_U_11
_atom_site_aniso_U_22
_atom_site_aniso_U_33
_atom_site_aniso_U_23
_atom_site_aniso_U_13
_atom_site_aniso_U_12
Zn1 0.0457(4) 0.0495(3) 0.0495(3) 0.0021(3) 0.00370(18) -0.00370(18)
N1 0.0599(19) 0.0509(18) 0.0467(17) 0.0038(14) 0.0039(14) -0.0028(14)
N2 0.0566(18) 0.0575(18) 0.0451(17) 0.0033(14) 0.0035(14) -0.0053(15)
C1 0.066(3) 0.055(2) 0.059(2) 0.0048(19) -0.0021(19) -0.0142(19)
C2 0.061(2) 0.051(2) 0.047(2) 0.0050(17) 0.0026(17) -0.0031(17)
C3 0.070(3) 0.059(2) 0.055(2) -0.0021(19) -0.0067(19) -0.0068(19)
C4 0.140(5) 0.065(3) 0.052(2) 0.012(2) -0.006(3) -0.028(3)
C5 0.242(10) 0.071(4) 0.152(8) -0.035(4) 0.009(7) 0.019(6)
N1Q 0.0599 0.0467 0.0509 0.0038 0.0028 -0.0039
N2Q 0.0566 0.0451 0.0575 0.0033 0.0053 -0.0035
C1Q 0.066 0.059 0.055 0.0048 0.0142 0.0021
C2Q 0.061 0.047 0.051 0.005 0.0031 -0.0026
C3Q 0.07 0.055 0.059 -0.0021 0.0068 0.0067
C4Q 0.14 0.052 0.065 0.012 0.028 0.006
C5Q 0.242 0.152 0.071 -0.035 -0.019 -0.009
Zn1DB 0.0495 0.0495 0.0457 0.0037 -0.0037 0.0021
Zn1ZB 0.0495 0.0457 0.0495 0.0037 -0.0021 0.0037
N1ZA 0.0467 0.0599 0.0509 -0.0028 0.0038 0.0039
N1PC 0.0467 0.0509 0.0599 -0.0028 -0.0039 -0.0038
loop_
_geom_bond_atom_site_label_1
_geom_bond_atom_site_label_2
_geom_bond_site_symmetry_1
_geom_bond_site_symmetry_2
Zn1 N2 1_555 1_555
N1 C2 1_555 1_555
N2 C1 1_555 1_555
C1 H1 1_555 1_555
C2 N2 1_555 1_555
C3 N1 1_555 1_555
H2 C3 1_555 1_555
C4 C2 1_555 1_555
H3 C4 1_555 1_555
H4 C4 1_555 1_555
C5 C4 1_555 1_555
H5 C5 1_555 1_555
H6 C5 1_555 1_555
H7 C5 1_555 1_555
N1Q C2Q 1_555 1_555
N2Q Zn1 1_555 1_555
C1Q N2Q 1_555 1_555
H1Q C1Q 1_555 1_555
C2Q N2Q 1_555 1_555
C3Q N1Q 1_555 1_555
H2Q C3Q 1_555 1_555
C4Q C2Q 1_555 1_555
H3Q C4Q 1_555 1_555
H4Q C4Q 1_555 1_555
C5Q C4Q 1_555 1_555
H5Q C5Q 1_555 1_555
H6Q C5Q 1_555 1_555
H7Q C5Q 1_555 1_555
Zn1DB N1 1_555 1_555
Zn1ZB N1Q 1_555 1_555
N1ZA Zn1 1_555 1_555
N1PC Zn1 1_555 1_555
C1 C3 1_555 1_555
C1Q C3Q 1_555 1_555

#END
