
#######################################################################
#
#                 Cambridge Crystallographic Data Centre
#                                CCDC 
#
#######################################################################
#
# If this CIF has been generated from an entry in the Cambridge 
# Structural Database, then it will include bibliographic, chemical, 
# crystal, experimental, refinement or atomic coordinate data resulting 
# from the CCDC's data processing and validation procedures.
#
#######################################################################

data_OFERUN04
_chemical_formula_moiety         '(C8 H10 N4 Zn1)n'
_symmetry_cell_setting           cubic
_symmetry_space_group_name_H-M   'I -4 3 m'
_symmetry_Int_Tables_number      217
_space_group_name_Hall           'I -4 2 3'
loop_
_symmetry_equiv_pos_site_id
_symmetry_equiv_pos_as_xyz
1 x,y,z
2 x,-y,-z
3 -x,-y,z
4 -x,y,-z
5 y,-x,-z
6 -y,-x,z
7 -y,x,-z
8 y,x,z
9 y,z,x
10 -y,-z,x
11 y,-z,-x
12 -y,z,-x
13 z,-y,-x
14 z,y,x
15 -z,y,-x
16 -z,-y,x
17 z,x,y
18 -z,x,-y
19 -z,-x,y
20 z,-x,-y
21 x,z,y
22 x,-z,-y
23 -x,z,-y
24 -x,-z,y
25 1/2+x,1/2+y,1/2+z
26 1/2+x,1/2-y,1/2-z
27 1/2-x,1/2-y,1/2+z
28 1/2-x,1/2+y,1/2-z
29 1/2+y,1/2-x,1/2-z
30 1/2-y,1/2-x,1/2+z
31 1/2-y,1/2+x,1/2-z
32 1/2+y,1/2+x,1/2+z
33 1/2+y,1/2+z,1/2+x
34 1/2-y,1/2-z,1/2+x
35 1/2+y,1/2-z,1/2-x
36 1/2-y,1/2+z,1/2-x
37 1/2+z,1/2-y,1/2-x
38 1/2+z,1/2+y,1/2+x
39 1/2-z,1/2+y,1/2-x
40 1/2-z,1/2-y,1/2+x
41 1/2+z,1/2+x,1/2+y
42 1/2-z,1/2+x,1/2-y
43 1/2-z,1/2-x,1/2+y
44 1/2+z,1/2-x,1/2-y
45 1/2+x,1/2+z,1/2+y
46 1/2+x,1/2-z,1/2-y
47 1/2-x,1/2+z,1/2-y
48 1/2-x,1/2-z,1/2+y
_cell_length_a                   17.0544(16)
_cell_length_b                   17.0544(16)
_cell_length_c                   17.0544(16)
_cell_angle_alpha                90
_cell_angle_beta                 90
_cell_angle_gamma                90
_cell_volume                     4960.32
loop_
_atom_site_label
_atom_site_type_symbol
_atom_site_fract_x
_atom_site_fract_y
_atom_site_fract_z
_atom_site_U_iso_or_equiv
_atom_site_thermal_displace_type
Zn1 Zn 0.0000 0.5000 0.7500 0.0650 Uani
N1 N 0.0904(2) 0.47085(17) 0.81715(18) 0.0697 Uani
C1 C 0.1337(3) 0.4020(3) 0.8114(3) 0.0893 Uani
H1 H 0.1254 0.3624 0.7749 0.1070 Uiso
C2 C 0.12253(17) 0.5072(5) 0.87747(17) 0.0653 Uani
C3 C 0.0928(3) 0.5854(4) 0.9072(3) 0.0977 Uani
H2 H 0.0374 0.5890 0.8987 0.1170 Uiso
H3 H 0.1192 0.6275 0.8808 0.1170 Uiso
N1N N 0.18285(18) 0.47085(17) 0.9096(2) 0.0697 Uani
C1N C 0.1886(3) 0.4020(3) 0.8663(3) 0.0893 Uani
H1N H 0.2251 0.3624 0.8746 0.1070 Uiso
H2N H 0.1013 0.5890 0.9626 0.1170 Uiso
N1B N -0.0904(2) 0.52915(17) 0.81715(18) 0.0697 Uani
C1B C -0.1337(3) 0.5980(3) 0.8114(3) 0.0893 Uani
H1B H -0.1254 0.6376 0.7749 0.1070 Uiso
C2B C -0.12253(17) 0.4928(5) 0.87747(17) 0.0653 Uani
C3B C -0.0928(3) 0.4146(4) 0.9072(3) 0.0977 Uani
H2B H -0.0374 0.4110 0.8987 0.1170 Uiso
H3B H -0.1192 0.3725 0.8808 0.1170 Uiso
N1L N -0.18285(18) 0.52915(17) 0.9096(2) 0.0697 Uani
C1L C -0.1886(3) 0.5980(3) 0.8663(3) 0.0893 Uani
H1L H -0.2251 0.6376 0.8746 0.1070 Uiso
H2L H -0.1013 0.4110 0.9626 0.1170 Uiso
Zn1L Zn -0.2500 0.5000 1.0000 0.0650 Uani
Zn1N Zn 0.2500 0.5000 1.0000 0.0650 Uani
N1BA N -0.02915(17) 0.4096(2) 0.68285(18) 0.0697 Uani
N1DA N 0.02915(17) 0.5904(2) 0.68285(18) 0.0697 Uani
loop_
_atom_site_aniso_label
_atom_site_aniso_U_11
_atom_site_aniso_U_22
_atom_site_aniso_U_33
_atom_site_aniso_U_23
_atom_site_aniso_U_13
_atom_site_aniso_U_12
Zn1 0.0673(3) 0.0673(3) 0.0605(4) 0.000 0.000 0.000
N1 0.0760(18) 0.0678(17) 0.0653(16) -0.0025(12) -0.0094(14) 0.0069(13)
C1 0.095(3) 0.080(3) 0.093(3) -0.025(2) -0.021(2) 0.016(2)
C2 0.0669(14) 0.062(3) 0.0669(14) 0.000(2) -0.0010(18) 0.000(2)
C3 0.106(3) 0.081(4) 0.106(3) -0.023(3) -0.029(4) 0.023(3)
N1N 0.0653 0.0678 0.076 -0.0069 -0.0094 0.0025
C1N 0.093 0.08 0.095 -0.016 -0.021 0.025
N1B 0.076 0.0678 0.0653 0.0025 0.0094 0.0069
C1B 0.095 0.08 0.093 0.025 0.021 0.016
C2B 0.0669 0.062 0.0669 0 0.001 0
C3B 0.106 0.081 0.106 0.023 0.029 0.023
N1L 0.0653 0.0678 0.076 0.0069 0.0094 0.0025
C1L 0.093 0.08 0.095 0.016 0.021 0.025
Zn1L 0.0605 0.0673 0.0673 0 0 0
Zn1N 0.0605 0.0673 0.0673 0 0 0
N1BA 0.0678 0.076 0.0653 -0.0094 0.0025 -0.0069
N1DA 0.0678 0.076 0.0653 0.0094 -0.0025 -0.0069
loop_
_geom_bond_atom_site_label_1
_geom_bond_atom_site_label_2
_geom_bond_site_symmetry_1
_geom_bond_site_symmetry_2
Zn1 N1 1_555 1_555
N1 C1 1_555 1_555
C1 H1 1_555 1_555
C2 N1 1_555 1_555
C3 C2 1_555 1_555
H2 C3 1_555 1_555
H3 C3 1_555 1_555
N1N C2 1_555 1_555
C1N C1 1_555 1_555
H1N C1N 1_555 1_555
H2N C3 1_555 1_555
N1B Zn1 1_555 1_555
C1B N1B 1_555 1_555
H1B C1B 1_555 1_555
C2B N1B 1_555 1_555
C3B C2B 1_555 1_555
H2B C3B 1_555 1_555
H3B C3B 1_555 1_555
N1L C2B 1_555 1_555
C1L C1B 1_555 1_555
H1L C1L 1_555 1_555
H2L C3B 1_555 1_555
Zn1L N1L 1_555 1_555
Zn1N N1N 1_555 1_555
N1BA Zn1 1_555 1_555
N1DA Zn1 1_555 1_555
N1N C1N 1_555 1_555
N1L C1L 1_555 1_555

#END
