
#######################################################################
#
#                 Cambridge Crystallographic Data Centre
#                                CCDC 
#
#######################################################################
#
# If this CIF has been generated from an entry in the Cambridge 
# Structural Database, then it will include bibliographic, chemical, 
# crystal, experimental, refinement or atomic coordinate data resulting 
# from the CCDC's data processing and validation procedures.
#
#######################################################################

data_XIHXAP
_chemical_formula_moiety         '(C56 H51 Mn4 N3 O21)n'
_symmetry_cell_setting           monoclinic
_symmetry_space_group_name_H-M   'P 21/c'
_symmetry_Int_Tables_number      14
_space_group_name_Hall           '-P 2ybc'
loop_
_symmetry_equiv_pos_site_id
_symmetry_equiv_pos_as_xyz
1 x,y,z
2 -x,1/2+y,1/2-z
3 -x,-y,-z
4 x,1/2-y,1/2+z
_cell_length_a                   12.646(3)
_cell_length_b                   14.834(4)
_cell_length_c                   18.979(3)
_cell_angle_alpha                90
_cell_angle_beta                 123.145(11)
_cell_angle_gamma                90
_cell_volume                     2980.99
loop_
_atom_site_label
_atom_site_type_symbol
_atom_site_fract_x
_atom_site_fract_y
_atom_site_fract_z
C1 C 0.1156(5) 0.8499(4) 0.9356(3)
C2 C 0.1875(5) 0.8463(3) 0.8926(3)
C3 C 0.1578(5) 0.9061(4) 0.8278(3)
H1 H 0.0900 0.9453 0.8087
C4 C 0.2258(5) 0.9087(4) 0.7912(3)
H2 H 0.2014 0.9471 0.7461
C5 C 0.3321(5) 0.8534(3) 0.8216(3)
C6 C 0.3634(5) 0.7921(4) 0.8852(4)
H3 H 0.4326 0.7541 0.9049
C7 C 0.2894(5) 0.7880(4) 0.9197(3)
H4 H 0.3087 0.7458 0.9613
C8 C 0.4141(5) 0.8613(3) 0.7860(3)
C9 C 0.3632(5) 0.8707(3) 0.6995(3)
C10 C 0.2233(5) 0.8663(3) 0.6326(3)
C11 C 0.4422(5) 0.8817(3) 0.6720(3)
H5 H 0.4071 0.8889 0.6146
C12 C 0.5746(5) 0.8824(3) 0.7271(3)
C13 C 0.6256(5) 0.8734(3) 0.8139(3)
C14 C 0.7665(5) 0.8773(3) 0.8804(3)
C15 C 0.5428(5) 0.8642(3) 0.8401(3)
H6 H 0.5766 0.8599 0.8975
C16 C 0.6564(5) 0.8876(3) 0.6910(3)
C17 C 0.6225(5) 0.9464(4) 0.6236(3)
H7 H 0.5519 0.9831 0.6028
C18 C 0.6915(5) 0.9502(4) 0.5883(3)
H8 H 0.6680 0.9895 0.5438
C19 C 0.7984(5) 0.8949(3) 0.6190(3)
C20 C 0.8296(5) 0.8356(4) 0.6851(3)
H9 H 0.8972 0.7962 0.7046
C21 C 0.7609(5) 0.8355(4) 0.7210(3)
H10 H 0.7865 0.7987 0.7674
C22 C 0.8744(5) 0.8922(4) 0.5782(3)
C23 C 0.8164(6) 0.8807(4) 1.0891(5)
H11 H 0.8006 0.8811 1.1331
H12 H 0.7814 0.8270 1.0560
H13 H 0.7776 0.9326 1.0538
C24 C 0.9846(14) 0.8837(4) 1.1347(7)
C25 C 0.9943(10) 0.8808(4) 1.2646(5)
H14 H 1.0323 0.9339 1.2982
H15 H 1.0369 0.8283 1.2976
H16 H 0.9068 0.8784 1.2457
C26 C 1.1722(7) 0.8858(5) 1.2356(5)
H17 H 1.1961 0.8311 1.2208
H18 H 1.2180 0.8908 1.2958
H19 H 1.1915 0.9364 1.2131
Mn1 Mn 0.99281(7) 0.75129(4) 1.01530(5)
Mn2 Mn 1.0000 1.0000 1.0000
Mn3 Mn 1.0000 0.5000 1.0000
N1 N 1.0049(15) 0.8838(4) 1.1928(8)
O1 O 0.0981(4) 0.7757(3) 0.9588(3)
O2 O 0.0850(4) 0.9247(3) 0.9455(3)
O3 O 0.1690(4) 0.7919(3) 0.6234(2)
O4 O 0.1714(3) 0.9355(3) 0.5901(3)
O5 O 0.8177(3) 0.8041(2) 0.9139(2)
O6 O 0.8178(3) 0.9532(2) 0.8987(2)
O7 O 0.8993(4) 0.9649(3) 0.5593(3)
O8 O 0.9017(4) 0.8148(3) 0.5667(3)
O9 O 1.0075(4) 0.8822(2) 1.0795(2)
O10 O 0.9451(4) 0.6268(2) 0.9241(2)
H20 H 0.8555 0.6259 0.8808
H21 H 0.9912 0.6318 0.8969
C1B C 0.8844(5) 1.1501(4) 1.0644(3)
C2B C 0.8125(5) 1.1537(3) 1.1074(3)
C3B C 0.8422(5) 1.0939(4) 1.1722(3)
H1B H 0.9100 1.0547 1.1913
C4B C 0.7742(5) 1.0913(4) 1.2088(3)
H2B H 0.7986 1.0529 1.2539
C5B C 0.6679(5) 1.1466(3) 1.1784(3)
C6B C 0.6366(5) 1.2079(4) 1.1148(4)
H3B H 0.5674 1.2459 1.0951
C7B C 0.7106(5) 1.2120(4) 1.0803(3)
H4B H 0.6913 1.2542 1.0387
C8B C 0.5859(5) 1.1387(3) 1.2140(3)
C9B C 0.6368(5) 1.1293(3) 1.3005(3)
C10B C 0.7767(5) 1.1337(3) 1.3674(3)
C11B C 0.5578(5) 1.1183(3) 1.3280(3)
H5B H 0.5929 1.1111 1.3854
C12B C 0.4254(5) 1.1176(3) 1.2729(3)
C13B C 0.3744(5) 1.1266(3) 1.1861(3)
C14B C 0.2335(5) 1.1227(3) 1.1196(3)
C15B C 0.4572(5) 1.1358(3) 1.1599(3)
H6B H 0.4234 1.1401 1.1025
C16B C 0.3436(5) 1.1124(3) 1.3090(3)
C17B C 0.3775(5) 1.0536(4) 1.3764(3)
H7B H 0.4481 1.0169 1.3972
C18B C 0.3085(5) 1.0498(4) 1.4117(3)
H8B H 0.3320 1.0105 1.4562
C19B C 0.2016(5) 1.1051(3) 1.3810(3)
C20B C 0.1704(5) 1.1644(4) 1.3149(3)
H9B H 0.1028 1.2038 1.2954
C21B C 0.2391(5) 1.1645(4) 1.2790(3)
H10B H 0.2135 1.2013 1.2326
C22B C 0.1256(5) 1.1078(4) 1.4218(3)
C23B C 0.1836(6) 1.1193(4) 0.9109(5)
H11B H 0.1994 1.1189 0.8669
H12B H 0.2186 1.1730 0.9440
H13B H 0.2224 1.0674 0.9462
C24B C 0.0154(14) 1.1163(4) 0.8653(7)
C25B C 0.0057(10) 1.1192(4) 0.7354(5)
H14B H -0.0323 1.0661 0.7018
H15B H -0.0369 1.1717 0.7024
H16B H 0.0932 1.1216 0.7543
C26B C -0.1722(7) 1.1142(5) 0.7644(5)
H17B H -0.1961 1.1689 0.7792
H18B H -0.2180 1.1092 0.7042
H19B H -0.1915 1.0636 0.7869
Mn1B Mn 0.00719(7) 1.24871(4) 0.98470(5)
N1B N -0.0049(15) 1.1162(4) 0.8072(8)
O1B O 0.9019(4) 1.2243(3) 1.0412(3)
O2B O 0.9150(4) 1.0753(3) 1.0545(3)
O3B O 0.8310(4) 1.2081(3) 1.3766(2)
O4B O 0.8286(3) 1.0645(3) 1.4099(3)
O5B O 0.1823(3) 1.1959(2) 1.0861(2)
O6B O 0.1822(3) 1.0468(2) 1.1013(2)
O7B O 0.1007(4) 1.0351(3) 1.4407(3)
O8B O 0.0983(4) 1.1852(3) 1.4333(3)
O9B O -0.0075(4) 1.1178(2) 0.9205(2)
O10B O 0.0549(4) 1.3732(2) 1.0759(2)
H20B H 0.1445 1.3741 1.1192
H21B H 0.0088 1.3682 1.1031
Mn1_2 Mn -0.00719(7) 0.75129(4) 1.01530(5)
Mn1A Mn 0.00719(7) 1.25129(4) 1.48470(5)
Mn1A_2 Mn 1.00719(7) 1.25129(4) 1.48470(5)
Mn1B_2 Mn 1.00719(7) 1.24871(4) 0.98470(5)
Mn1C Mn -0.00719(7) 0.74871(4) 0.51530(5)
Mn1C_2 Mn 0.99281(7) 0.74871(4) 0.51530(5)
Mn2_2 Mn 0.0000 1.0000 1.0000
Mn3_2 Mn 0.0000 1.5000 1.0000
Mn3A Mn 0.0000 1.0000 0.5000
Mn3A_2 Mn 0.0000 1.0000 1.5000
Mn3A_3 Mn 1.0000 1.0000 0.5000
Mn3A_4 Mn 1.0000 1.0000 1.5000
O1_2 O 1.0981(4) 0.7757(3) 0.9588(3)
O1B_2 O -0.0981(4) 1.2243(3) 1.0412(3)
O2_2 O 1.0850(4) 0.9247(3) 0.9455(3)
O3A O -0.1690(4) 1.2919(3) 0.8766(2)
O3C O 1.1690(4) 0.7081(3) 1.1234(2)
O4A O 0.8286(3) 0.4355(3) 0.9099(3)
O4C O 1.1714(3) 0.5645(3) 1.0901(3)
O6B_2 O 1.1822(3) 1.0468(2) 1.1013(2)
O7A O 1.1007(4) 0.4649(3) 0.9407(3)
O7C O 0.8993(4) 0.5351(3) 1.0593(3)
O8A O 0.0983(4) 1.3148(3) 0.9333(3)
O8C O 0.9017(4) 0.6852(3) 1.0667(3)
O9B_2 O 0.9925(4) 1.1178(2) 0.9205(2)
O10B_2 O 1.0549(4) 0.3732(2) 1.0759(2)
C27 C 0.6159(11) 0.6206(4) 0.8433(7)
H22 H 0.6248 0.5603 0.8642
H23 H 0.5341 0.6436 0.8260
H24 H 0.6801 0.6583 0.8869
C28 C 0.6296(7) 0.6202(4) 0.7681(5)
C29 C 0.4009(9) 0.6256(5) 0.6718(9)
H25 H 0.4015 0.6225 0.7225
H26 H 0.3507 0.5771 0.6350
H27 H 0.3655 0.6822 0.6443
C30 C 0.5423(10) 0.6144(7) 0.6207(6)
H28 H 0.5482 0.6746 0.6045
H29 H 0.4717 0.5842 0.5738
H30 H 0.6185 0.5821 0.6380
N2 N 0.5243(6) 0.6183(4) 0.6914(5)
O11 O 0.7353(4) 0.6184(3) 0.7790(3)
loop_
_geom_bond_atom_site_label_1
_geom_bond_atom_site_label_2
_geom_bond_site_symmetry_1
_geom_bond_site_symmetry_2
C1 C2 1_555 1_555
C2 C3 1_555 1_555
C3 H1 1_555 1_555
C4 C3 1_555 1_555
H2 C4 1_555 1_555
C5 C4 1_555 1_555
C6 C5 1_555 1_555
H3 C6 1_555 1_555
C7 C2 1_555 1_555
H4 C7 1_555 1_555
C8 C5 1_555 1_555
C9 C8 1_555 1_555
C10 C9 1_555 1_555
C11 C9 1_555 1_555
H5 C11 1_555 1_555
C12 C11 1_555 1_555
C13 C12 1_555 1_555
C14 C13 1_555 1_555
C15 C8 1_555 1_555
H6 C15 1_555 1_555
C16 C12 1_555 1_555
C17 C16 1_555 1_555
H7 C17 1_555 1_555
C18 C17 1_555 1_555
H8 C18 1_555 1_555
C19 C18 1_555 1_555
C20 C19 1_555 1_555
H9 C20 1_555 1_555
C21 C16 1_555 1_555
H10 C21 1_555 1_555
C22 C19 1_555 1_555
C23 H11 1_555 1_555
H12 C23 1_555 1_555
H13 C23 1_555 1_555
C24 C23 1_555 1_555
C25 H14 1_555 1_555
H15 C25 1_555 1_555
H16 C25 1_555 1_555
C26 H17 1_555 1_555
H18 C26 1_555 1_555
H19 C26 1_555 1_555
Mn1 O5 1_555 1_555
Mn2 O6 1_555 1_555
Mn3 O10 1_555 1_555
N1 C24 1_555 1_555
O1 C1 1_555 1_555
O2 C1 1_555 1_555
O3 C10 1_555 1_555
O4 C10 1_555 1_555
O5 C14 1_555 1_555
O6 C14 1_555 1_555
O7 C22 1_555 1_555
O8 C22 1_555 1_555
O9 C24 1_555 1_555
O10 Mn1 1_555 1_555
H20 O10 1_555 1_555
H21 O10 1_555 1_555
C27 H22 1_555 1_555
H23 C27 1_555 1_555
H24 C27 1_555 1_555
C28 C27 1_555 1_555
C29 H25 1_555 1_555
H26 C29 1_555 1_555
H27 C29 1_555 1_555
C30 H28 1_555 1_555
H29 C30 1_555 1_555
H30 C30 1_555 1_555
N2 C28 1_555 1_555
O11 C28 1_555 1_555
C1B C2B 1_555 1_555
C2B C3B 1_555 1_555
C3B H1B 1_555 1_555
C4B C3B 1_555 1_555
H2B C4B 1_555 1_555
C5B C4B 1_555 1_555
C6B C5B 1_555 1_555
H3B C6B 1_555 1_555
C7B C2B 1_555 1_555
H4B C7B 1_555 1_555
C8B C5B 1_555 1_555
C9B C8B 1_555 1_555
C10B C9B 1_555 1_555
C11B C9B 1_555 1_555
H5B C11B 1_555 1_555
C12B C11B 1_555 1_555
C13B C12B 1_555 1_555
C14B C13B 1_555 1_555
C15B C8B 1_555 1_555
H6B C15B 1_555 1_555
C16B C12B 1_555 1_555
C17B C16B 1_555 1_555
H7B C17B 1_555 1_555
C18B C17B 1_555 1_555
H8B C18B 1_555 1_555
C19B C18B 1_555 1_555
C20B C19B 1_555 1_555
H9B C20B 1_555 1_555
C21B C16B 1_555 1_555
H10B C21B 1_555 1_555
C22B C19B 1_555 1_555
C23B H11B 1_555 1_555
H12B C23B 1_555 1_555
H13B C23B 1_555 1_555
C24B C23B 1_555 1_555
C25B H14B 1_555 1_555
H15B C25B 1_555 1_555
H16B C25B 1_555 1_555
C26B H17B 1_555 1_555
H18B C26B 1_555 1_555
H19B C26B 1_555 1_555
Mn1B O5B 1_555 1_555
N1B C24B 1_555 1_555
O1B C1B 1_555 1_555
O2B Mn2 1_555 1_555
O3B C10B 1_555 1_555
O4B C10B 1_555 1_555
O5B C14B 1_555 1_555
O6B C14B 1_555 1_555
O7B C22B 1_555 1_555
O8B C22B 1_555 1_555
O9B C24B 1_555 1_555
O10B Mn1B 1_555 1_555
H20B O10B 1_555 1_555
H21B O10B 1_555 1_555
Mn1_2 O1 1_555 1_555
Mn1A O8B 1_555 1_555
Mn1A_2 O3B 1_555 1_555
Mn1B_2 O1B 1_555 1_555
Mn1C O3 1_555 1_555
Mn1C_2 O8 1_555 1_555
Mn2_2 O2 1_555 1_555
Mn3_2 O10B 1_555 1_555
Mn3A O4 1_555 1_555
Mn3A_2 O7B 1_555 1_555
Mn3A_3 O7 1_555 1_555
Mn3A_4 O4B 1_555 1_555
O1_2 Mn1 1_555 1_555
O1B_2 Mn1B 1_555 1_555
O2_2 Mn2 1_555 1_555
O3A Mn1B 1_555 1_555
O3C Mn1 1_555 1_555
O4A Mn3 1_555 1_555
O4C Mn3 1_555 1_555
O6B_2 Mn2 1_555 1_555
O7A Mn3 1_555 1_555
O7C Mn3 1_555 1_555
O8A Mn1B 1_555 1_555
O8C Mn1 1_555 1_555
O9B_2 Mn2 1_555 1_555
O10B_2 Mn3 1_555 1_555
C6 C7 1_555 1_555
C13 C15 1_555 1_555
C20 C21 1_555 1_555
C25 N1 1_555 1_555
C26 N1 1_555 1_555
Mn1 O9 1_555 1_555
Mn2 O9 1_555 1_555
C29 N2 1_555 1_555
C30 N2 1_555 1_555
C1B O2B 1_555 1_555
C6B C7B 1_555 1_555
C13B C15B 1_555 1_555
C20B C21B 1_555 1_555
C25B N1B 1_555 1_555
C26B N1B 1_555 1_555
Mn1B O9B 1_555 1_555
O6B Mn2_2 1_555 1_555
O9B Mn2_2 1_555 1_555
Mn1B_2 O9B_2 1_555 1_555

#END
