
#######################################################################
#
#                 Cambridge Crystallographic Data Centre
#                                CCDC 
#
#######################################################################
#
# If this CIF has been generated from an entry in the Cambridge 
# Structural Database, then it will include bibliographic, chemical, 
# crystal, experimental, refinement or atomic coordinate data resulting 
# from the CCDC's data processing and validation procedures.
#
#######################################################################

data_CUCFOX
_chemical_formula_moiety         '(C16 H22 N12 O8 Zn1)n'
_symmetry_cell_setting           monoclinic
_symmetry_space_group_name_H-M   'C 2/c'
_symmetry_Int_Tables_number      15
_space_group_name_Hall           '-C 2yc'
loop_
_symmetry_equiv_pos_site_id
_symmetry_equiv_pos_as_xyz
1 x,y,z
2 -x,y,1/2-z
3 1/2+x,1/2+y,z
4 1/2-x,1/2+y,1/2-z
5 -x,-y,-z
6 x,-y,1/2+z
7 1/2-x,1/2-y,-z
8 1/2+x,1/2-y,1/2+z
_cell_length_a                   27.511(5)
_cell_length_b                   23.284(5)
_cell_length_c                   18.752(5)
_cell_angle_alpha                90
_cell_angle_beta                 131.079(5)
_cell_angle_gamma                90
_cell_volume                     9054.62
loop_
_atom_site_label
_atom_site_type_symbol
_atom_site_fract_x
_atom_site_fract_y
_atom_site_fract_z
_atom_site_U_iso_or_equiv
_atom_site_thermal_displace_type
C1 C 0.3138(4) 0.1957(4) 0.1473(6) 0.0527 Uani
H1 H 0.2895 0.2287 0.1160 0.0630 Uiso
C2 C 0.3800(4) 0.2009(4) 0.2204(7) 0.0826 Uani
H2 H 0.3991 0.2370 0.2402 0.0990 Uiso
C3 C 0.4155(4) 0.1543(4) 0.2616(6) 0.0536 Uani
C4 C 0.3857(6) 0.1025(4) 0.2365(8) 0.0889 Uani
H3 H 0.4093 0.0690 0.2662 0.1060 Uiso
C5 C 0.3220(5) 0.1008(4) 0.1687(8) 0.0987 Uani
H4 H 0.3019 0.0652 0.1530 0.1180 Uiso
C6 C 0.4926(4) 0.1612(5) 0.3441(6) 0.0728 Uani
C7 C 0.5293(4) 0.1054(4) 0.3931(8) 0.1154 Uani
H5 H 0.5635 0.1017 0.3919 0.1730 Uiso
H6 H 0.5004 0.0735 0.3607 0.1730 Uiso
H7 H 0.5471 0.1061 0.4575 0.1730 Uiso
C8 C 0.6021(5) 0.2699(4) 0.4266(6) 0.0483 Uani
C9 C 0.1859(3) 0.0271(4) -0.0508(7) 0.0458 Uani
C10 C 0.1682(5) -0.0984(5) -0.1674(7) 0.0755 Uani
C11 C 0.1699(7) -0.1517(4) -0.1121(10) 0.1436 Uani
H8 H 0.1348 -0.1486 -0.1127 0.2160 Uiso
H9 H 0.2100 -0.1517 -0.0478 0.2160 Uiso
H10 H 0.1658 -0.1868 -0.1424 0.2160 Uiso
C12 C 0.1426(4) -0.0827(4) -0.3881(6) 0.0560 Uani
H11 H 0.1250 -0.0546 -0.4344 0.0670 Uiso
C13 C 0.1421(4) -0.0753(4) -0.3151(8) 0.0550 Uani
H12 H 0.1268 -0.0407 -0.3117 0.0650 Uiso
C14 C 0.1619(5) -0.1147(5) -0.2507(7) 0.0655 Uani
C15 C 0.1862(5) -0.1668(4) -0.2560(8) 0.0780 Uani
H13 H 0.2000 -0.1967 -0.2135 0.0930 Uiso
C16 C 0.1881(4) -0.1709(4) -0.3282(7) 0.0585 Uani
H14 H 0.2045 -0.2046 -0.3322 0.0700 Uiso
N1 N 0.2850(3) 0.1469(3) 0.1214(4) 0.0432 Uani
N2 N 0.1886(2) 0.0593(3) -0.1103(4) 0.0455 Uani
N3 N 0.1960(3) 0.1194(3) -0.0923(4) 0.0516 Uani
N4 N 0.5562(3) 0.3124(3) 0.3697(5) 0.0589 Uani
N5 N 0.5785(3) 0.3666(3) 0.3876(4) 0.0447 Uani
N6 N 0.5129(3) 0.2116(3) 0.3485(4) 0.0458 Uani
N7 N 0.1682(3) -0.1299(3) -0.3922(5) 0.0503 Uani
N8 N 0.1754(3) -0.0300(4) -0.0743(5) 0.0653 Uani
N9 N 0.1695(3) -0.0490(4) -0.1531(6) 0.0636 Uani
N10 N 0.5804(3) 0.2159(3) 0.4169(5) 0.0590 Uani
O1 O 0.6618(3) 0.2792(2) 0.4845(4) 0.0517 Uani
O2 O 0.1886(2) 0.0451(3) 0.0128(4) 0.0632 Uani
Zn1 Zn 0.18495(4) 0.13490(4) 0.01192(6) 0.0496 Uani
N5G N 0.0785(3) 0.1334(3) -0.1124(4) 0.0447 Uani
N7E N 0.1682(3) 0.1299(3) 0.1078(5) 0.0503 Uani
O1G O 0.1618(3) 0.2208(2) -0.0155(4) 0.0517 Uani
Zn1E Zn 0.18495(4) -0.13490(4) -0.48808(6) 0.0496 Uani
Zn1G Zn 0.68495(4) 0.36510(4) 0.51192(6) 0.0496 Uani
N11 N 0.7007(5) 0.1677(4) 0.6236(8) 0.0869 Uani
O3 O 0.6850(3) 0.1437(2) 0.5508(5) 0.0576 Uani
O4 O 0.6618(4) 0.1745(4) 0.6348(5) 0.1214 Uani
O5 O 0.7592(4) 0.1865(3) 0.6898(5) 0.1071 Uani
N12 N 0.9375(4) 0.0973(4) 0.8350(6) 0.0643 Uani
O6 O 0.9335(2) 0.1366(2) 0.7827(4) 0.0624 Uani
O7 O 0.8901(3) 0.0720(3) 0.8115(4) 0.0739 Uani
O8 O 0.9919(3) 0.0859(2) 0.9127(4) 0.0740 Uani
loop_
_atom_site_aniso_label
_atom_site_aniso_U_11
_atom_site_aniso_U_22
_atom_site_aniso_U_33
_atom_site_aniso_U_23
_atom_site_aniso_U_13
_atom_site_aniso_U_12
C1 0.019(6) 0.039(6) 0.071(6) 0.013(5) 0.017(5) 0.009(5)
C2 0.041(7) 0.020(5) 0.141(9) 0.037(6) 0.040(7) 0.016(5)
C3 0.032(6) 0.071(7) 0.061(6) -0.005(6) 0.032(5) -0.006(6)
C4 0.062(9) 0.022(6) 0.144(10) 0.002(6) 0.051(8) -0.006(6)
C5 0.035(7) 0.026(6) 0.129(9) 0.001(6) 0.008(7) -0.002(6)
C6 0.037(7) 0.104(9) 0.074(7) 0.036(7) 0.035(6) 0.043(7)
C7 0.055(7) 0.064(7) 0.175(11) 0.061(7) 0.053(7) -0.006(6)
C8 0.052 0.037 0.075 -0.004 0.05 -0.008
C9 0.038(5) 0.031(7) 0.079(7) 0.005(6) 0.043(5) -0.009(4)
C10 0.104(8) 0.049(7) 0.119(9) -0.015(7) 0.093(7) -0.013(6)
C11 0.303(17) 0.033(6) 0.320(17) 0.000(8) 0.302(17) -0.010(8)
C12 0.033 0.055 0.068 -0.004 0.028 -0.015
C13 0.037 0.064 0.09 -0.026 0.053 -0.01
C14 0.086 0.075 0.079 0.012 0.073 -0.011
C15 0.105 0.021 0.154 -0.002 0.105 -0.006
C16 0.093 0.038 0.085 0.005 0.076 0.018
N1 0.036(5) 0.038(4) 0.070(5) -0.015(4) 0.041(4) -0.001(5)
N2 0.023(4) 0.045(5) 0.071(5) -0.006(4) 0.032(4) -0.004(3)
N3 0.043(4) 0.046(5) 0.078(5) -0.006(4) 0.045(4) -0.005(3)
N4 0.033 0.056 0.079 0.019 0.033 0.009
N5 0.028 0.028 0.073 -0.008 0.031 -0.014
N6 0.041 0.038 0.072 0.011 0.043 0.006
N7 0.039 0.036 0.092 0 0.05 0.014
N8 0.075(5) 0.063(7) 0.099(6) -0.014(5) 0.075(5) -0.007(4)
N9 0.058(5) 0.056(6) 0.104(7) -0.016(5) 0.065(5) 0.000(4)
N10 0.02 0.062 0.094 0.013 0.037 0.003
O1 0.022 0.069 0.065 0.013 0.029 0.007
O2 0.073(5) 0.066(5) 0.084(4) -0.020(3) 0.066(4) -0.014(3)
Zn1 0.0297(8) 0.0506(9) 0.0698(9) -0.0082(5) 0.0333(7) -0.0072(4)
N5G 0.028 0.028 0.073 0.008 0.031 0.014
N7E 0.039 0.036 0.092 0 0.05 -0.014
O1G 0.022 0.069 0.065 -0.013 0.029 -0.007
Zn1E 0.0297 0.0506 0.0698 0.0082 0.0333 0.0072
Zn1G 0.0297 0.0506 0.0698 0.0082 0.0333 0.0072
N11 0.067(7) 0.102(7) 0.123(9) 0.034(7) 0.076(8) 0.042(6)
O3 0.044(4) 0.075(4) 0.076(4) 0.004(3) 0.049(4) 0.016(3)
O4 0.096(6) 0.185(9) 0.136(7) -0.041(5) 0.099(6) 0.005(5)
O5 0.068(5) 0.129(7) 0.107(6) -0.013(5) 0.050(5) 0.000(5)
N12 0.017(5) 0.098(7) 0.058(6) -0.001(5) 0.016(5) -0.001(5)
O6 0.043(4) 0.063(4) 0.067(4) 0.012(3) 0.030(4) -0.004(3)
O7 0.015(4) 0.102(5) 0.082(4) 0.018(3) 0.022(3) -0.010(3)
O8 0.030(4) 0.087(5) 0.073(4) 0.023(4) 0.020(4) -0.007(3)
loop_
_geom_bond_atom_site_label_1
_geom_bond_atom_site_label_2
_geom_bond_site_symmetry_1
_geom_bond_site_symmetry_2
C1 H1 1_555 1_555
C2 C1 1_555 1_555
H2 C2 1_555 1_555
C3 C2 1_555 1_555
C4 C3 1_555 1_555
H3 C4 1_555 1_555
C5 C4 1_555 1_555
H4 C5 1_555 1_555
C6 C3 1_555 1_555
C7 C6 1_555 1_555
H5 C7 1_555 1_555
H6 C7 1_555 1_555
H7 C7 1_555 1_555
C8 N4 1_555 1_555
C9 N2 1_555 1_555
C10 C11 1_555 1_555
C11 H8 1_555 1_555
H9 C11 1_555 1_555
H10 C11 1_555 1_555
C12 H11 1_555 1_555
C13 C12 1_555 1_555
H12 C13 1_555 1_555
C14 C10 1_555 1_555
C15 C14 1_555 1_555
H13 C15 1_555 1_555
C16 C15 1_555 1_555
H14 C16 1_555 1_555
N1 C1 1_555 1_555
N2 N3 1_555 1_555
N3 Zn1 1_555 1_555
N4 N5 1_555 1_555
N5 Zn1G 1_555 1_555
N6 C6 1_555 1_555
N7 C12 1_555 1_555
N8 C9 1_555 1_555
N9 C10 1_555 1_555
N10 C8 1_555 1_555
O1 C8 1_555 1_555
O2 C9 1_555 1_555
Zn1 N1 1_555 1_555
N11 O3 1_555 1_555
O4 N11 1_555 1_555
O5 N11 1_555 1_555
N12 O6 1_555 1_555
O7 N12 1_555 1_555
O8 N12 1_555 1_555
N5G Zn1 1_555 1_555
N7E Zn1 1_555 1_555
O1G Zn1 1_555 1_555
Zn1E N7 1_555 1_555
Zn1G O1 1_555 1_555
C5 N1 1_555 1_555
C13 C14 1_555 1_555
C16 N7 1_555 1_555
N6 N10 1_555 1_555
N8 N9 1_555 1_555
O2 Zn1 1_555 1_555

#END
