
#######################################################################
#
#                 Cambridge Crystallographic Data Centre
#                                CCDC 
#
#######################################################################
#
# If this CIF has been generated from an entry in the Cambridge 
# Structural Database, then it will include bibliographic, chemical, 
# crystal, experimental, refinement or atomic coordinate data resulting 
# from the CCDC's data processing and validation procedures.
#
#######################################################################

data_KUMCEC
_chemical_formula_moiety         '(C88 H64 Br4 Cd4 N8 O16)n'
_symmetry_cell_setting           triclinic
_symmetry_space_group_name_H-M   'P -1'
_symmetry_Int_Tables_number      2
_space_group_name_Hall           '-P 1'
loop_
_symmetry_equiv_pos_site_id
_symmetry_equiv_pos_as_xyz
1 x,y,z
2 -x,-y,-z
_cell_length_a                   9.0867(7)
_cell_length_b                   18.0356(10)
_cell_length_c                   18.8207(12)
_cell_angle_alpha                102.462(5)
_cell_angle_beta                 103.387(7)
_cell_angle_gamma                100.625(6)
_cell_volume                     2839.35
loop_
_atom_site_label
_atom_site_type_symbol
_atom_site_fract_x
_atom_site_fract_y
_atom_site_fract_z
Cd1 Cd 0.30703(5) 0.26750(2) 0.45593(3)
Cd2 Cd 0.14212(6) 0.69356(3) 0.93654(3)
Br1 Br 0.42410(9) 0.32393(4) 0.36012(5)
Br2 Br -0.15553(12) 0.67520(6) 0.89814(9)
O1 O 0.3713(5) 0.3859(3) 0.5462(3)
O2 O 0.2230(6) 0.2904(3) 0.5703(3)
O3 O 0.2663(8) 0.6539(3) 0.8476(4)
O4 O 0.1377(8) 0.5595(3) 0.8777(3)
O5 O 0.2744(7) 0.1342(3) 0.4374(4)
O6 O 0.5051(6) 0.2052(3) 0.5051(4)
O7 O 0.2047(6) 0.8148(3) 0.9090(3)
O8 O 0.3305(11) 0.8076(4) 1.0167(4)
N1 N 0.0450(6) 0.2407(3) 0.3880(3)
N2 N -0.7441(7) 0.1353(4) 0.1837(4)
N3 N 0.1838(9) 0.6565(4) 1.0490(4)
N4 N 0.2739(6) 0.5431(3) 1.3881(3)
C1 C 0.0032(8) 0.2380(4) 0.3152(4)
H1 H 0.0826 0.2520 0.2919
C2 C -0.1483(9) 0.2161(5) 0.2720(4)
H2 H -0.1726 0.2140 0.2197
C3 C -0.2659(8) 0.1970(4) 0.3042(4)
C4 C -0.2228(9) 0.2007(5) 0.3811(5)
H3 H -0.2997 0.1877 0.4060
C5 C -0.0658(10) 0.2238(5) 0.4207(5)
H4 H -0.0368 0.2275 0.4734
C6 C -0.4324(8) 0.1728(4) 0.2596(4)
C7 C -0.4857(8) 0.2029(4) 0.1995(4)
H5 H -0.4147 0.2374 0.1843
C8 C -0.6423(9) 0.1823(5) 0.1623(5)
H6 H -0.6786 0.2020 0.1203
C9 C -0.6961(9) 0.1027(5) 0.2401(5)
H7 H -0.7698 0.0671 0.2529
C10 C -0.5413(9) 0.1209(5) 0.2790(5)
H8 H -0.5076 0.0984 0.3191
C11 C -0.9144(8) 0.1177(5) 0.1442(5)
H9 H -0.9415 0.1663 0.1351
H10 H -0.9755 0.0992 0.1770
C12 C -0.9577(8) 0.0556(5) 0.0689(5)
C13 C -0.9734(11) 0.0783(5) 0.0042(6)
H11 H -0.9561 0.1324 0.0062
C14 C -0.9849(10) -0.0222(5) 0.0654(5)
H12 H -0.9753 -0.0383 0.1107
C15 C 0.2221(10) 0.6124(4) 1.1837(4)
C16 C 0.129(3) 0.5825(7) 1.0447(11)
H13 H 0.0843 0.5443 0.9972
C17 C 0.140(3) 0.5624(11) 1.1127(7)
H14 H 0.0885 0.5108 1.1104
C18 C 0.294(3) 0.6884(7) 1.1830(8)
H15 H 0.3599 0.7251 1.2286
C19 C 0.268(3) 0.7092(8) 1.1144(7)
H16 H 0.3108 0.7614 1.1143
C20 C 0.2421(9) 0.5879(4) 1.2547(4)
C21 C 0.2293(10) 0.5099(4) 1.2549(5)
H17 H 0.2078 0.4707 1.2085
C22 C 0.2479(10) 0.4898(4) 1.3219(5)
H18 H 0.2421 0.4365 1.3215
C23 C 0.2881(9) 0.6187(4) 1.3900(4)
H19 H 0.3090 0.6564 1.4373
C24 C 0.2728(9) 0.6427(4) 1.3249(4)
H20 H 0.2831 0.6966 1.3273
C25 C 0.2909(8) 0.5180(5) 1.4588(4)
H21 H 0.3746 0.5574 1.5003
H22 H 0.3213 0.4675 1.4515
C26 C 0.1404(7) 0.5087(4) 1.4802(4)
C27 C 0.0188(9) 0.4434(5) 1.4439(5)
H23 H 0.0299 0.4038 1.4046
C28 C 0.1193(9) 0.5651(5) 1.5362(5)
H24 H 0.2012 0.6108 1.5617
C29 C 0.2932(7) 0.3613(4) 0.5865(4)
C30 C 0.2790(8) 0.4177(4) 0.6542(4)
C31 C 0.3506(9) 0.4948(4) 0.6708(4)
H25 H 0.4143 0.5120 0.6411
C32 C 0.3315(9) 0.5493(4) 0.7312(5)
H26 H 0.3804 0.6033 0.7416
C33 C 0.2426(8) 0.5248(4) 0.7753(4)
C34 C 0.1693(11) 0.4477(5) 0.7581(5)
H27 H 0.1047 0.4306 0.7875
C35 C 0.1881(11) 0.3933(5) 0.6979(5)
H28 H 0.1379 0.3394 0.6870
C36 C 0.2127(10) 0.5841(4) 0.8374(5)
C37 C 0.4107(10) 0.1412(4) 0.4777(5)
C38 C 0.4576(9) 0.0677(4) 0.4882(5)
C39 C 0.3546(11) -0.0048(5) 0.4549(7)
H29 H 0.2530 -0.0092 0.4240
C40 C 0.5992(11) 0.0721(5) 0.5328(6)
H30 H 0.6698 0.1220 0.5567
C41 C 0.3068(10) 0.8440(4) 0.9694(5)
C42 C 0.4069(9) 0.9253(4) 0.9857(4)
C43 C 0.3847(11) 0.9656(5) 0.9326(5)
H31 H 0.3063 0.9425 0.8856
C44 C 0.5217(12) 0.9584(5) 1.0526(6)
H32 H 0.5384 0.9298 1.0893
O5A O 0.7256(7) -0.1342(3) 0.5626(4)
O6A O 0.4949(6) -0.2052(3) 0.4949(4)
C37A C 0.5893(10) -0.1412(4) 0.5223(5)
C38A C 0.5424(9) -0.0677(4) 0.5118(5)
C39A C 0.6454(11) 0.0048(5) 0.5451(7)
H29A H 0.7470 0.0092 0.5760
C40A C 0.4008(11) -0.0721(5) 0.4672(6)
H30A H 0.3302 -0.1220 0.4433
O7A O 0.7953(6) 1.1852(3) 1.0910(3)
O8A O 0.6695(11) 1.1924(4) 0.9833(4)
C41A C 0.6932(10) 1.1560(4) 1.0306(5)
C42A C 0.5931(9) 1.0747(4) 1.0143(4)
C43A C 0.6153(11) 1.0344(5) 1.0674(5)
H31A H 0.6937 1.0575 1.1144
C44A C 0.4783(12) 1.0416(5) 0.9474(6)
H32A H 0.4616 1.0702 0.9107
N1A N -2.0450(6) -0.2407(3) -0.3880(3)
N2A N -1.2559(7) -0.1353(4) -0.1837(4)
C1A C -2.0032(8) -0.2380(4) -0.3152(4)
H1A H -2.0826 -0.2520 -0.2919
C2A C -1.8517(9) -0.2161(5) -0.2720(4)
H2A H -1.8274 -0.2140 -0.2197
C3A C -1.7341(8) -0.1970(4) -0.3042(4)
C4A C -1.7772(9) -0.2007(5) -0.3811(5)
H3A H -1.7003 -0.1877 -0.4060
C5A C -1.9342(10) -0.2238(5) -0.4207(5)
H4A H -1.9632 -0.2275 -0.4734
C6A C -1.5676(8) -0.1728(4) -0.2596(4)
C7A C -1.5143(8) -0.2029(4) -0.1995(4)
H5A H -1.5853 -0.2374 -0.1843
C8A C -1.3577(9) -0.1823(5) -0.1623(5)
H6A H -1.3214 -0.2020 -0.1203
C9A C -1.3039(9) -0.1027(5) -0.2401(5)
H7A H -1.2302 -0.0671 -0.2529
C10A C -1.4587(9) -0.1209(5) -0.2790(5)
H8A H -1.4924 -0.0984 -0.3191
C11A C -1.0856(8) -0.1177(5) -0.1442(5)
H9A H -1.0585 -0.1663 -0.1351
H10A H -1.0245 -0.0992 -0.1770
C12A C -1.0423(8) -0.0556(5) -0.0689(5)
C13A C -1.0266(11) -0.0783(5) -0.0042(6)
H11A H -1.0439 -0.1324 -0.0062
C14A C -1.0151(10) 0.0222(5) -0.0654(5)
H12A H -1.0247 0.0383 -0.1107
N3A N -0.1838(9) 0.3435(4) 1.9510(4)
N4A N -0.2739(6) 0.4569(3) 1.6119(3)
C15A C -0.2221(10) 0.3876(4) 1.8163(4)
C16A C -0.129(3) 0.4175(7) 1.9553(11)
H13A H -0.0843 0.4557 2.0028
C17A C -0.140(3) 0.4376(11) 1.8873(7)
H14A H -0.0885 0.4892 1.8896
C18A C -0.294(3) 0.3116(7) 1.8170(8)
H15A H -0.3599 0.2749 1.7714
C19A C -0.268(3) 0.2908(8) 1.8856(7)
H16A H -0.3108 0.2386 1.8857
C20A C -0.2421(9) 0.4121(4) 1.7453(4)
C21A C -0.2293(10) 0.4901(4) 1.7451(5)
H17A H -0.2078 0.5293 1.7915
C22A C -0.2479(10) 0.5102(4) 1.6781(5)
H18A H -0.2421 0.5635 1.6785
C23A C -0.2881(9) 0.3813(4) 1.6100(4)
H19A H -0.3090 0.3436 1.5627
C24A C -0.2728(9) 0.3573(4) 1.6751(4)
H20A H -0.2831 0.3034 1.6727
C25A C -0.2909(8) 0.4820(5) 1.5412(4)
H21A H -0.3746 0.4426 1.4997
H22A H -0.3213 0.5325 1.5485
C26A C -0.1404(7) 0.4913(4) 1.5198(4)
C27A C -0.0188(9) 0.5566(5) 1.5561(5)
H23A H -0.0299 0.5962 1.5954
C28A C -0.1193(9) 0.4349(5) 1.4638(5)
H24A H -0.2012 0.3892 1.4383
Cd1A Cd -2.30703(5) -0.26750(2) -0.45593(3)
Cd2A Cd -2.14212(6) -0.69356(3) -0.93654(3)
Br1A Br -2.42410(9) -0.32393(4) -0.36012(5)
Br2A Br -1.84447(12) -0.67520(6) -0.89814(9)
O1A O -2.3713(5) -0.3859(3) -0.5462(3)
O2A O -2.2230(6) -0.2904(3) -0.5703(3)
O3A O -2.2663(8) -0.6539(3) -0.8476(4)
O4A O -2.1377(8) -0.5595(3) -0.8777(3)
C29A C -2.2932(7) -0.3613(4) -0.5865(4)
C30A C -2.2790(8) -0.4177(4) -0.6542(4)
C31A C -2.3506(9) -0.4948(4) -0.6708(4)
H25A H -2.4143 -0.5120 -0.6411
C32A C -2.3315(9) -0.5493(4) -0.7312(5)
H26A H -2.3804 -0.6033 -0.7416
C33A C -2.2426(8) -0.5248(4) -0.7753(4)
C34A C -2.1693(11) -0.4477(5) -0.7581(5)
H27A H -2.1047 -0.4306 -0.7875
C35A C -2.1881(11) -0.3933(5) -0.6979(5)
H28A H -2.1379 -0.3394 -0.6870
C36A C -2.2127(10) -0.5841(4) -0.8374(5)
Cd1A_2 Cd 0.69297(5) -0.26750(2) 0.54407(3)
Cd2A_2 Cd -0.14212(6) 0.30644(3) 2.06346(3)
Cd2A_3 Cd 0.85788(6) 1.30644(3) 1.06346(3)
O5A_2 O -2.2744(7) -0.1342(3) -0.4374(4)
O6A_2 O -2.5051(6) -0.2052(3) -0.5051(4)
O7A_2 O -2.2047(6) -0.8148(3) -0.9090(3)
O8A_2 O -2.3305(11) -0.8076(4) -1.0167(4)
N3A_2 N -2.1838(9) -0.6565(4) -1.0490(4)
loop_
_geom_bond_atom_site_label_1
_geom_bond_atom_site_label_2
_geom_bond_site_symmetry_1
_geom_bond_site_symmetry_2
Cd1 Br1 1_555 1_555
Cd2 Br2 1_555 1_555
O1 Cd1 1_555 1_555
O2 Cd1 1_555 1_555
O3 Cd2 1_555 1_555
O4 Cd2 1_555 1_555
O5 Cd1 1_555 1_555
O6 Cd1 1_555 1_555
O7 Cd2 1_555 1_555
O8 Cd2 1_555 1_555
N1 Cd1 1_555 1_555
N2 C8 1_555 1_555
N3 Cd2 1_555 1_555
N4 C22 1_555 1_555
C1 N1 1_555 1_555
H1 C1 1_555 1_555
C2 C1 1_555 1_555
H2 C2 1_555 1_555
C3 C2 1_555 1_555
C4 C3 1_555 1_555
H3 C4 1_555 1_555
C5 N1 1_555 1_555
H4 C5 1_555 1_555
C6 C3 1_555 1_555
C7 C6 1_555 1_555
H5 C7 1_555 1_555
C8 C7 1_555 1_555
H6 C8 1_555 1_555
C9 N2 1_555 1_555
H7 C9 1_555 1_555
C10 C6 1_555 1_555
H8 C10 1_555 1_555
C11 N2 1_555 1_555
H9 C11 1_555 1_555
H10 C11 1_555 1_555
C12 C11 1_555 1_555
C13 C12 1_555 1_555
H11 C13 1_555 1_555
C14 C12 1_555 1_555
H12 C14 1_555 1_555
C15 C17 1_555 1_555
C16 N3 1_555 1_555
H13 C16 1_555 1_555
C17 C16 1_555 1_555
H14 C17 1_555 1_555
C18 C15 1_555 1_555
H15 C18 1_555 1_555
C19 N3 1_555 1_555
H16 C19 1_555 1_555
C20 C15 1_555 1_555
C21 C20 1_555 1_555
H17 C21 1_555 1_555
C22 C21 1_555 1_555
H18 C22 1_555 1_555
C23 N4 1_555 1_555
H19 C23 1_555 1_555
C24 C20 1_555 1_555
H20 C24 1_555 1_555
C25 N4 1_555 1_555
H21 C25 1_555 1_555
H22 C25 1_555 1_555
C26 C25 1_555 1_555
C27 C26 1_555 1_555
H23 C27 1_555 1_555
C28 C26 1_555 1_555
H24 C28 1_555 1_555
C29 O1 1_555 1_555
C30 C29 1_555 1_555
C31 C30 1_555 1_555
H25 C31 1_555 1_555
C32 C31 1_555 1_555
H26 C32 1_555 1_555
C33 C32 1_555 1_555
C34 C33 1_555 1_555
H27 C34 1_555 1_555
C35 C30 1_555 1_555
H28 C35 1_555 1_555
C36 O3 1_555 1_555
C37 O5 1_555 1_555
C38 C37 1_555 1_555
C39 C38 1_555 1_555
H29 C39 1_555 1_555
C40 C38 1_555 1_555
H30 C40 1_555 1_555
C41 O7 1_555 1_555
C42 C41 1_555 1_555
C43 C42 1_555 1_555
H31 C43 1_555 1_555
C44 C42 1_555 1_555
H32 C44 1_555 1_555
O5A C37A 1_555 1_555
O6A C37A 1_555 1_555
C37A C38A 1_555 1_555
C38A C39A 1_555 1_555
C39A C40 1_555 1_555
H29A C39A 1_555 1_555
C40A C39 1_555 1_555
H30A C40A 1_555 1_555
O7A C41A 1_555 1_555
O8A C41A 1_555 1_555
C41A C42A 1_555 1_555
C42A C43A 1_555 1_555
C43A C44 1_555 1_555
H31A C43A 1_555 1_555
C44A C43 1_555 1_555
H32A C44A 1_555 1_555
N1A C1A 1_555 1_555
N2A C8A 1_555 1_555
C1A H1A 1_555 1_555
C2A C1A 1_555 1_555
H2A C2A 1_555 1_555
C3A C2A 1_555 1_555
C4A C3A 1_555 1_555
H3A C4A 1_555 1_555
C5A N1A 1_555 1_555
H4A C5A 1_555 1_555
C6A C3A 1_555 1_555
C7A C6A 1_555 1_555
H5A C7A 1_555 1_555
C8A C7A 1_555 1_555
H6A C8A 1_555 1_555
C9A N2A 1_555 1_555
H7A C9A 1_555 1_555
C10A C6A 1_555 1_555
H8A C10A 1_555 1_555
C11A N2A 1_555 1_555
H9A C11A 1_555 1_555
H10A C11A 1_555 1_555
C12A C11A 1_555 1_555
C13A C14 1_555 1_555
H11A C13A 1_555 1_555
C14A C13 1_555 1_555
H12A C14A 1_555 1_555
N3A C16A 1_555 1_555
N4A C22A 1_555 1_555
C15A C17A 1_555 1_555
C16A H13A 1_555 1_555
C17A C16A 1_555 1_555
H14A C17A 1_555 1_555
C18A C15A 1_555 1_555
H15A C18A 1_555 1_555
C19A N3A 1_555 1_555
H16A C19A 1_555 1_555
C20A C15A 1_555 1_555
C21A C20A 1_555 1_555
H17A C21A 1_555 1_555
C22A C21A 1_555 1_555
H18A C22A 1_555 1_555
C23A N4A 1_555 1_555
H19A C23A 1_555 1_555
C24A C20A 1_555 1_555
H20A C24A 1_555 1_555
C25A N4A 1_555 1_555
H21A C25A 1_555 1_555
H22A C25A 1_555 1_555
C26A C25A 1_555 1_555
C27A C28 1_555 1_555
H23A C27A 1_555 1_555
C28A C27 1_555 1_555
H24A C28A 1_555 1_555
Cd1A N1A 1_555 1_555
Cd2A Br2A 1_555 1_555
Br1A Cd1A 1_555 1_555
O1A Cd1A 1_555 1_555
O2A Cd1A 1_555 1_555
O3A Cd2A 1_555 1_555
O4A Cd2A 1_555 1_555
C29A O1A 1_555 1_555
C30A C29A 1_555 1_555
C31A C30A 1_555 1_555
H25A C31A 1_555 1_555
C32A C31A 1_555 1_555
H26A C32A 1_555 1_555
C33A C32A 1_555 1_555
C34A C33A 1_555 1_555
H27A C34A 1_555 1_555
C35A C30A 1_555 1_555
H28A C35A 1_555 1_555
C36A O3A 1_555 1_555
Cd1A_2 O5A 1_555 1_555
Cd2A_2 N3A 1_555 1_555
Cd2A_3 O7A 1_555 1_555
O5A_2 Cd1A 1_555 1_555
O6A_2 Cd1A 1_555 1_555
O7A_2 Cd2A 1_555 1_555
O8A_2 Cd2A 1_555 1_555
N3A_2 Cd2A 1_555 1_555
O2 C29 1_555 1_555
O4 C36 1_555 1_555
O6 C37 1_555 1_555
O8 C41 1_555 1_555
C4 C5 1_555 1_555
C9 C10 1_555 1_555
C18 C19 1_555 1_555
C23 C24 1_555 1_555
C33 C36 1_555 1_555
C34 C35 1_555 1_555
O6A Cd1A_2 1_555 1_555
C38A C40A 1_555 1_555
O8A Cd2A_3 1_555 1_555
C42A C44A 1_555 1_555
C4A C5A 1_555 1_555
C9A C10A 1_555 1_555
C12A C13A 1_555 1_555
C12A C14A 1_555 1_555
C18A C19A 1_555 1_555
C23A C24A 1_555 1_555
C26A C27A 1_555 1_555
C26A C28A 1_555 1_555
O2A C29A 1_555 1_555
O4A C36A 1_555 1_555
C33A C36A 1_555 1_555
C34A C35A 1_555 1_555

#END
