
#######################################################################
#
#                 Cambridge Crystallographic Data Centre
#                                CCDC 
#
#######################################################################
#
# If this CIF has been generated from an entry in the Cambridge 
# Structural Database, then it will include bibliographic, chemical, 
# crystal, experimental, refinement or atomic coordinate data resulting 
# from the CCDC's data processing and validation procedures.
#
#######################################################################

data_KUMCAY
_chemical_formula_moiety         '(C88 H64 Cd4 Cl4 N8 O16)n'
_symmetry_cell_setting           triclinic
_symmetry_space_group_name_H-M   'P -1'
_symmetry_Int_Tables_number      2
_space_group_name_Hall           '-P 1'
loop_
_symmetry_equiv_pos_site_id
_symmetry_equiv_pos_as_xyz
1 x,y,z
2 -x,-y,-z
_cell_length_a                   8.9041(9)
_cell_length_b                   17.9362(15)
_cell_length_c                   18.9879(7)
_cell_angle_alpha                100.842(5)
_cell_angle_beta                 102.263(7)
_cell_angle_gamma                103.409(8)
_cell_volume                     2791.19
loop_
_atom_site_label
_atom_site_type_symbol
_atom_site_fract_x
_atom_site_fract_y
_atom_site_fract_z
Cd1 Cd 0.29589(8) 0.26343(4) 0.45394(4)
Cd2 Cd 0.15312(10) 0.68226(4) 0.93272(4)
Cl1 Cl 0.4180(3) 0.32531(15) 0.36553(14)
Cl2 Cl -0.1383(5) 0.6735(2) 0.9042(3)
O1 O 0.3558(8) 0.3796(4) 0.5405(3)
O2 O 0.1975(9) 0.2808(4) 0.5643(4)
O3 O 0.2629(13) 0.6414(6) 0.8406(5)
O4 O 0.1281(12) 0.5485(5) 0.8744(5)
O5 O 0.2746(10) 0.1322(4) 0.4323(5)
O6 O 0.5014(10) 0.2069(5) 0.5100(5)
O7 O 0.2275(11) 0.8051(5) 0.9040(5)
O8 O 0.3171(17) 0.8068(7) 1.0163(7)
N1 N 0.0297(9) 0.2365(5) 0.3877(4)
N2 N -0.7727(11) 0.1417(6) 0.1816(5)
N3 N 0.1990(15) 0.6434(5) 1.0449(5)
N4 N 0.2847(9) 0.5378(5) 1.3844(4)
C1 C -0.0041(12) 0.2386(6) 0.3168(6)
H1 H 0.0808 0.2534 0.2946
C2 C -0.1661(12) 0.2191(7) 0.2733(5)
H2 H -0.1890 0.2192 0.2221
C3 C -0.2882(11) 0.2001(6) 0.3057(5)
C4 C -0.2462(12) 0.2022(7) 0.3802(6)
H3 H -0.3280 0.1916 0.4049
C5 C -0.0929(14) 0.2189(7) 0.4188(6)
H4 H -0.0695 0.2184 0.4699
C6 C -0.4574(12) 0.1775(6) 0.2623(5)
C7 C -0.5032(13) 0.2125(7) 0.2035(6)
H5 H -0.4255 0.2494 0.1903
C8 C -0.6608(14) 0.1922(7) 0.1661(6)
H6 H -0.6911 0.2159 0.1267
C9 C -0.7363(14) 0.1073(8) 0.2366(7)
H7 H -0.8184 0.0720 0.2489
C10 C -0.5759(14) 0.1235(7) 0.2763(7)
H8 H -0.5490 0.0965 0.3135
C11 C -0.9428(13) 0.1191(9) 0.1367(7)
H9 H -0.9696 0.1667 0.1247
H10 H -1.0141 0.0980 0.1662
C12 C -0.9708(13) 0.0582(8) 0.0662(7)
C13 C -0.968(2) 0.0768(10) 0.0004(8)
H11 H -0.9440 0.1308 -0.0012
C14 C -1.003(2) -0.0208(10) 0.0621(8)
H12 H -1.0039 -0.0372 0.1068
C15 C 0.2422(14) 0.6021(5) 1.1798(5)
C16 C 0.212(4) 0.5723(9) 1.0464(15)
H13 H 0.2073 0.5361 1.0019
C17 C 0.233(3) 0.5501(13) 1.1133(9)
H14 H 0.2423 0.4985 1.1139
C18 C 0.201(3) 0.6711(10) 1.1724(9)
H15 H 0.1866 0.7051 1.2137
C19 C 0.182(3) 0.6897(11) 1.1033(8)
H16 H 0.1553 0.7372 1.0985
C20 C 0.2600(13) 0.5801(6) 1.2513(5)
C21 C 0.2407(14) 0.5015(6) 1.2545(6)
H17 H 0.2175 0.4610 1.2102
C22 C 0.2556(13) 0.4831(6) 1.3223(6)
H18 H 0.2445 0.4297 1.3245
C23 C 0.3056(12) 0.6130(6) 1.3832(6)
H19 H 0.3290 0.6519 1.4286
C24 C 0.2941(13) 0.6356(6) 1.3184(6)
H20 H 0.3095 0.6899 1.3190
C25 C 0.2971(12) 0.5152(6) 1.4562(5)
H21 H 0.3855 0.5556 1.4952
H22 H 0.3232 0.4641 1.4514
C26 C 0.1418(10) 0.5076(5) 1.4797(5)
C27 C 0.0123(13) 0.4403(7) 1.4455(6)
H23 H 0.0201 0.3995 1.4076
C28 C 0.1268(12) 0.5659(7) 1.5325(6)
H24 H 0.2144 0.6121 1.5548
C29 C 0.2710(11) 0.3517(6) 0.5803(5)
C30 C 0.2590(11) 0.4077(6) 0.6473(5)
C31 C 0.3327(12) 0.4869(6) 0.6629(6)
H25 H 0.3960 0.5059 0.6321
C32 C 0.3184(13) 0.5402(6) 0.7217(6)
H26 H 0.3705 0.5949 0.7304
C33 C 0.2288(12) 0.5146(6) 0.7683(5)
C34 C 0.1566(15) 0.4353(7) 0.7544(6)
H27 H 0.0956 0.4161 0.7860
C35 C 0.1719(15) 0.3815(7) 0.6935(6)
H28 H 0.1212 0.3265 0.6846
C36 C 0.2057(14) 0.5711(7) 0.8322(7)
C37 C 0.4097(15) 0.1412(6) 0.4758(6)
C38 C 0.4570(13) 0.0675(6) 0.4881(6)
C39 C 0.3627(15) -0.0056(7) 0.4485(7)
H29 H 0.2673 -0.0105 0.4119
C40 C 0.5966(15) 0.0735(6) 0.5394(7)
H30 H 0.6658 0.1242 0.5667
C41 C 0.3145(15) 0.8376(6) 0.9644(6)
C42 C 0.4083(13) 0.9220(7) 0.9833(6)
C43 C 0.4101(16) 0.9605(7) 0.9293(6)
H31 H 0.3473 0.9347 0.8798
C44 C 0.4947(18) 0.9610(7) 1.0537(7)
H32 H 0.4909 0.9346 1.0925
O5A O 0.7254(10) -0.1322(4) 0.5677(5)
O6A O 0.4986(10) -0.2069(5) 0.4900(5)
C37A C 0.5903(15) -0.1412(6) 0.5242(6)
C38A C 0.5430(13) -0.0675(6) 0.5119(6)
C39A C 0.6373(15) 0.0056(7) 0.5515(7)
H29A H 0.7327 0.0105 0.5881
C40A C 0.4034(15) -0.0735(6) 0.4606(7)
H30A H 0.3342 -0.1242 0.4333
O7A O 0.7725(11) 1.1949(5) 1.0960(5)
O8A O 0.6829(17) 1.1932(7) 0.9837(7)
C41A C 0.6855(15) 1.1624(6) 1.0356(6)
C42A C 0.5917(13) 1.0780(7) 1.0167(6)
C43A C 0.5899(16) 1.0395(7) 1.0707(6)
H31A H 0.6527 1.0653 1.1202
C44A C 0.5053(18) 1.0390(7) 0.9463(7)
H32A H 0.5091 1.0654 0.9075
N1A N -2.0297(9) -0.2365(5) -0.3877(4)
N2A N -1.2273(11) -0.1417(6) -0.1816(5)
C1A C -1.9959(12) -0.2386(6) -0.3168(6)
H1A H -2.0808 -0.2534 -0.2946
C2A C -1.8339(12) -0.2191(7) -0.2733(5)
H2A H -1.8110 -0.2192 -0.2221
C3A C -1.7118(11) -0.2001(6) -0.3057(5)
C4A C -1.7538(12) -0.2022(7) -0.3802(6)
H3A H -1.6720 -0.1916 -0.4049
C5A C -1.9071(14) -0.2189(7) -0.4188(6)
H4A H -1.9305 -0.2184 -0.4699
C6A C -1.5426(12) -0.1775(6) -0.2623(5)
C7A C -1.4968(13) -0.2125(7) -0.2035(6)
H5A H -1.5745 -0.2494 -0.1903
C8A C -1.3392(14) -0.1922(7) -0.1661(6)
H6A H -1.3089 -0.2159 -0.1267
C9A C -1.2637(14) -0.1073(8) -0.2366(7)
H7A H -1.1816 -0.0720 -0.2489
C10A C -1.4241(14) -0.1235(7) -0.2763(7)
H8A H -1.4510 -0.0965 -0.3135
C11A C -1.0572(13) -0.1191(9) -0.1367(7)
H9A H -1.0304 -0.1667 -0.1247
H10A H -0.9859 -0.0980 -0.1662
C12A C -1.0292(13) -0.0582(8) -0.0662(7)
C13A C -1.032(2) -0.0768(10) -0.0004(8)
H11A H -1.0560 -0.1308 0.0012
C14A C -0.997(2) 0.0208(10) -0.0621(8)
H12A H -0.9961 0.0372 -0.1068
N3A N -0.1990(15) 0.3566(5) 1.9551(5)
N4A N -0.2847(9) 0.4622(5) 1.6156(4)
C15A C -0.2422(14) 0.3979(5) 1.8202(5)
C16A C -0.212(4) 0.4277(9) 1.9536(15)
H13A H -0.2073 0.4639 1.9981
C17A C -0.233(3) 0.4499(13) 1.8867(9)
H14A H -0.2423 0.5015 1.8861
C18A C -0.201(3) 0.3289(10) 1.8276(9)
H15A H -0.1866 0.2949 1.7863
C19A C -0.182(3) 0.3103(11) 1.8967(8)
H16A H -0.1553 0.2628 1.9015
C20A C -0.2600(13) 0.4199(6) 1.7487(5)
C21A C -0.2407(14) 0.4985(6) 1.7455(6)
H17A H -0.2175 0.5390 1.7898
C22A C -0.2556(13) 0.5169(6) 1.6777(6)
H18A H -0.2445 0.5703 1.6755
C23A C -0.3056(12) 0.3870(6) 1.6168(6)
H19A H -0.3290 0.3481 1.5714
C24A C -0.2941(13) 0.3644(6) 1.6816(6)
H20A H -0.3095 0.3101 1.6810
C25A C -0.2971(12) 0.4848(6) 1.5438(5)
H21A H -0.3855 0.4444 1.5048
H22A H -0.3232 0.5359 1.5486
C26A C -0.1418(10) 0.4924(5) 1.5203(5)
C27A C -0.0123(13) 0.5597(7) 1.5545(6)
H23A H -0.0201 0.6005 1.5924
C28A C -0.1268(12) 0.4341(7) 1.4675(6)
H24A H -0.2144 0.3879 1.4452
Cd1A Cd -2.29589(8) -0.26343(4) -0.45394(4)
Cd2A Cd -2.15312(10) -0.68226(4) -0.93272(4)
Cl1A Cl -2.4180(3) -0.32531(15) -0.36553(14)
Cl2A Cl -1.8617(5) -0.6735(2) -0.9042(3)
O1A O -2.3558(8) -0.3796(4) -0.5405(3)
O2A O -2.1975(9) -0.2808(4) -0.5643(4)
O3A O -2.2629(13) -0.6414(6) -0.8406(5)
O4A O -2.1281(12) -0.5485(5) -0.8744(5)
C29A C -2.2710(11) -0.3517(6) -0.5803(5)
C30A C -2.2590(11) -0.4077(6) -0.6473(5)
C31A C -2.3327(12) -0.4869(6) -0.6629(6)
H25A H -2.3960 -0.5059 -0.6321
C32A C -2.3184(13) -0.5402(6) -0.7217(6)
H26A H -2.3705 -0.5949 -0.7304
C33A C -2.2288(12) -0.5146(6) -0.7683(5)
C34A C -2.1566(15) -0.4353(7) -0.7544(6)
H27A H -2.0956 -0.4161 -0.7860
C35A C -2.1719(15) -0.3815(7) -0.6935(6)
H28A H -2.1212 -0.3265 -0.6846
C36A C -2.2057(14) -0.5711(7) -0.8322(7)
Cd1A_2 Cd 0.70411(8) -0.26343(4) 0.54606(4)
Cd2A_2 Cd -0.15312(10) 0.31774(4) 2.06728(4)
Cd2A_3 Cd 0.84688(10) 1.31774(4) 1.06728(4)
O5A_2 O -2.2746(10) -0.1322(4) -0.4323(5)
O6A_2 O -2.5014(10) -0.2069(5) -0.5100(5)
O7A_2 O -2.2275(11) -0.8051(5) -0.9040(5)
O8A_2 O -2.3171(17) -0.8068(7) -1.0163(7)
N3A_2 N -2.1990(15) -0.6434(5) -1.0449(5)
loop_
_geom_bond_atom_site_label_1
_geom_bond_atom_site_label_2
_geom_bond_site_symmetry_1
_geom_bond_site_symmetry_2
Cd1 Cl1 1_555 1_555
Cd2 Cl2 1_555 1_555
O1 Cd1 1_555 1_555
O2 Cd1 1_555 1_555
O3 Cd2 1_555 1_555
O4 Cd2 1_555 1_555
O5 Cd1 1_555 1_555
O6 Cd1 1_555 1_555
O7 Cd2 1_555 1_555
O8 Cd2 1_555 1_555
N1 Cd1 1_555 1_555
N2 C8 1_555 1_555
N3 Cd2 1_555 1_555
N4 C22 1_555 1_555
C1 N1 1_555 1_555
H1 C1 1_555 1_555
C2 C1 1_555 1_555
H2 C2 1_555 1_555
C3 C2 1_555 1_555
C4 C3 1_555 1_555
H3 C4 1_555 1_555
C5 N1 1_555 1_555
H4 C5 1_555 1_555
C6 C3 1_555 1_555
C7 C6 1_555 1_555
H5 C7 1_555 1_555
C8 C7 1_555 1_555
H6 C8 1_555 1_555
C9 N2 1_555 1_555
H7 C9 1_555 1_555
C10 C6 1_555 1_555
H8 C10 1_555 1_555
C11 N2 1_555 1_555
H9 C11 1_555 1_555
H10 C11 1_555 1_555
C12 C11 1_555 1_555
C13 C12 1_555 1_555
H11 C13 1_555 1_555
C14 C12 1_555 1_555
H12 C14 1_555 1_555
C15 C17 1_555 1_555
C16 N3 1_555 1_555
H13 C16 1_555 1_555
C17 C16 1_555 1_555
H14 C17 1_555 1_555
C18 C15 1_555 1_555
H15 C18 1_555 1_555
C19 N3 1_555 1_555
H16 C19 1_555 1_555
C20 C15 1_555 1_555
C21 C20 1_555 1_555
H17 C21 1_555 1_555
C22 C21 1_555 1_555
H18 C22 1_555 1_555
C23 N4 1_555 1_555
H19 C23 1_555 1_555
C24 C20 1_555 1_555
H20 C24 1_555 1_555
C25 N4 1_555 1_555
H21 C25 1_555 1_555
H22 C25 1_555 1_555
C26 C25 1_555 1_555
C27 C26 1_555 1_555
H23 C27 1_555 1_555
C28 C26 1_555 1_555
H24 C28 1_555 1_555
C29 O1 1_555 1_555
C30 C29 1_555 1_555
C31 C30 1_555 1_555
H25 C31 1_555 1_555
C32 C31 1_555 1_555
H26 C32 1_555 1_555
C33 C32 1_555 1_555
C34 C33 1_555 1_555
H27 C34 1_555 1_555
C35 C30 1_555 1_555
H28 C35 1_555 1_555
C36 O3 1_555 1_555
C37 O5 1_555 1_555
C38 C37 1_555 1_555
C39 C38 1_555 1_555
H29 C39 1_555 1_555
C40 C38 1_555 1_555
H30 C40 1_555 1_555
C41 O7 1_555 1_555
C42 C41 1_555 1_555
C43 C42 1_555 1_555
H31 C43 1_555 1_555
C44 C42 1_555 1_555
H32 C44 1_555 1_555
O5A C37A 1_555 1_555
O6A C37A 1_555 1_555
C37A C38A 1_555 1_555
C38A C39A 1_555 1_555
C39A C40 1_555 1_555
H29A C39A 1_555 1_555
C40A C39 1_555 1_555
H30A C40A 1_555 1_555
O7A C41A 1_555 1_555
O8A C41A 1_555 1_555
C41A C42A 1_555 1_555
C42A C43A 1_555 1_555
C43A C44 1_555 1_555
H31A C43A 1_555 1_555
C44A C43 1_555 1_555
H32A C44A 1_555 1_555
N1A C1A 1_555 1_555
N2A C8A 1_555 1_555
C1A H1A 1_555 1_555
C2A C1A 1_555 1_555
H2A C2A 1_555 1_555
C3A C2A 1_555 1_555
C4A C3A 1_555 1_555
H3A C4A 1_555 1_555
C5A N1A 1_555 1_555
H4A C5A 1_555 1_555
C6A C3A 1_555 1_555
C7A C6A 1_555 1_555
H5A C7A 1_555 1_555
C8A C7A 1_555 1_555
H6A C8A 1_555 1_555
C9A N2A 1_555 1_555
H7A C9A 1_555 1_555
C10A C6A 1_555 1_555
H8A C10A 1_555 1_555
C11A N2A 1_555 1_555
H9A C11A 1_555 1_555
H10A C11A 1_555 1_555
C12A C11A 1_555 1_555
C13A C14 1_555 1_555
H11A C13A 1_555 1_555
C14A C13 1_555 1_555
H12A C14A 1_555 1_555
N3A C16A 1_555 1_555
N4A C22A 1_555 1_555
C15A C17A 1_555 1_555
C16A H13A 1_555 1_555
C17A C16A 1_555 1_555
H14A C17A 1_555 1_555
C18A C15A 1_555 1_555
H15A C18A 1_555 1_555
C19A N3A 1_555 1_555
H16A C19A 1_555 1_555
C20A C15A 1_555 1_555
C21A C20A 1_555 1_555
H17A C21A 1_555 1_555
C22A C21A 1_555 1_555
H18A C22A 1_555 1_555
C23A N4A 1_555 1_555
H19A C23A 1_555 1_555
C24A C20A 1_555 1_555
H20A C24A 1_555 1_555
C25A N4A 1_555 1_555
H21A C25A 1_555 1_555
H22A C25A 1_555 1_555
C26A C25A 1_555 1_555
C27A C28 1_555 1_555
H23A C27A 1_555 1_555
C28A C27 1_555 1_555
H24A C28A 1_555 1_555
Cd1A N1A 1_555 1_555
Cd2A Cl2A 1_555 1_555
Cl1A Cd1A 1_555 1_555
O1A Cd1A 1_555 1_555
O2A Cd1A 1_555 1_555
O3A Cd2A 1_555 1_555
O4A Cd2A 1_555 1_555
C29A O1A 1_555 1_555
C30A C29A 1_555 1_555
C31A C30A 1_555 1_555
H25A C31A 1_555 1_555
C32A C31A 1_555 1_555
H26A C32A 1_555 1_555
C33A C32A 1_555 1_555
C34A C33A 1_555 1_555
H27A C34A 1_555 1_555
C35A C30A 1_555 1_555
H28A C35A 1_555 1_555
C36A O3A 1_555 1_555
Cd1A_2 O5A 1_555 1_555
Cd2A_2 N3A 1_555 1_555
Cd2A_3 O7A 1_555 1_555
O5A_2 Cd1A 1_555 1_555
O6A_2 Cd1A 1_555 1_555
O7A_2 Cd2A 1_555 1_555
O8A_2 Cd2A 1_555 1_555
N3A_2 Cd2A 1_555 1_555
O2 C29 1_555 1_555
O4 C36 1_555 1_555
O6 C37 1_555 1_555
O8 C41 1_555 1_555
C4 C5 1_555 1_555
C9 C10 1_555 1_555
C18 C19 1_555 1_555
C23 C24 1_555 1_555
C33 C36 1_555 1_555
C34 C35 1_555 1_555
O6A Cd1A_2 1_555 1_555
C38A C40A 1_555 1_555
O8A Cd2A_3 1_555 1_555
C42A C44A 1_555 1_555
C4A C5A 1_555 1_555
C9A C10A 1_555 1_555
C12A C13A 1_555 1_555
C12A C14A 1_555 1_555
C18A C19A 1_555 1_555
C23A C24A 1_555 1_555
C26A C27A 1_555 1_555
C26A C28A 1_555 1_555
O2A C29A 1_555 1_555
O4A C36A 1_555 1_555
C33A C36A 1_555 1_555
C34A C35A 1_555 1_555

#END
