
#######################################################################
#
#                 Cambridge Crystallographic Data Centre
#                                CCDC 
#
#######################################################################
#
# If this CIF has been generated from an entry in the Cambridge 
# Structural Database, then it will include bibliographic, chemical, 
# crystal, experimental, refinement or atomic coordinate data resulting 
# from the CCDC's data processing and validation procedures.
#
#######################################################################

data_AQEGUY
_chemical_formula_moiety         '(C88 H114 Ba4 O43 S8)n'
_symmetry_cell_setting           triclinic
_symmetry_space_group_name_H-M   'P -1'
_symmetry_Int_Tables_number      2
_space_group_name_Hall           '-P 1'
loop_
_symmetry_equiv_pos_site_id
_symmetry_equiv_pos_as_xyz
1 x,y,z
2 -x,-y,-z
_cell_length_a                   13.984(3)
_cell_length_b                   14.792(3)
_cell_length_c                   15.364(3)
_cell_angle_alpha                75.43(3)
_cell_angle_beta                 82.74(3)
_cell_angle_gamma                77.74(3)
_cell_volume                     2996.76
loop_
_atom_site_label
_atom_site_type_symbol
_atom_site_fract_x
_atom_site_fract_y
_atom_site_fract_z
Ba1 Ba 0.18762(5) 0.07141(4) 0.05853(4)
Ba2 Ba -0.02915(5) 0.19068(5) -0.16637(5)
S1 S 0.9400(6) 0.6015(6) -0.2999(7)
S2 S 0.2203(2) 0.17123(19) -0.17196(19)
S3 S 0.3078(2) 0.8387(2) -0.87974(18)
S4 S 0.06819(18) 0.93346(18) -0.08852(17)
O1 O 0.9736(15) 0.6026(16) -0.3798(17)
O5 O 0.921(3) 0.640(3) -0.208(3)
O6 O 0.2968(6) 0.0999(5) -0.1313(6)
O7 O 0.1703(6) 0.1482(5) -0.2374(5)
O8 O 0.1459(6) 0.2047(5) -0.1020(5)
O9 O 0.2021(5) 0.8701(5) -0.8730(5)
O10 O 0.3543(5) 0.9231(5) -0.9120(5)
O11 O 0.3446(7) 0.7691(6) -0.9289(5)
O12 O 0.0269(5) 0.8621(5) -0.0186(5)
O13 O -0.0088(5) 0.9959(5) -0.1433(5)
O14 O 0.1232(5) 0.9860(5) -0.0541(5)
O18 O 0.4817(10) 0.1485(11) 0.1829(10)
O19 O 0.3374(7) 0.1648(8) 0.0683(7)
O24 O -0.1789(13) 0.3158(10) -0.0896(11)
H1 H -0.2391 0.2921 -0.0803
H2 H -0.1604 0.3199 -0.0328
O25 O -0.0481(11) 0.3544(11) -0.2968(14)
O26 O 0.1825(8) 0.0307(7) 0.2445(6)
H7 H 0.1419 -0.0158 0.2697
H8 H 0.1561 0.0877 0.2652
O27 O 0.0956(8) 0.2411(8) 0.1051(9)
H10 H 0.0761 0.2882 0.0517
H11 H 0.1404 0.2629 0.1341
C1 C 0.5134(7) 0.6256(6) -0.3746(6)
C2 C 0.4828(6) 0.5288(6) -0.3386(6)
H13 H 0.4961 0.5055 -0.2755
H14 H 0.5218 0.4839 -0.3715
C3 C 0.3740(6) 0.5340(6) -0.3476(6)
C4 C 0.3525(7) 0.5727(6) -0.4460(6)
H15 H 0.3887 0.5286 -0.4811
H16 H 0.2831 0.5781 -0.4515
C5 C 0.3813(7) 0.6707(6) -0.4839(6)
C6 C 0.3211(7) 0.7388(6) -0.4255(6)
H17 H 0.2517 0.7455 -0.4321
H18 H 0.3384 0.8012 -0.4473
C7 C 0.3398(7) 0.7025(7) -0.3262(6)
C8 C 0.4516(7) 0.6933(7) -0.3191(6)
H19 H 0.4661 0.6699 -0.2564
H20 H 0.4692 0.7555 -0.3404
C9 C 0.4913(7) 0.6618(6) -0.4738(6)
H21 H 0.5101 0.7233 -0.4975
H22 H 0.5296 0.6181 -0.5084
C10 C 0.3144(7) 0.6030(6) -0.2909(6)
H23 H 0.3291 0.5791 -0.2283
H24 H 0.2448 0.6068 -0.2940
C11 C 0.6238(4) 0.6128(6) -0.3617(5)
C12 C 0.6551(6) 0.5811(7) -0.2750(5)
H25 H 0.6100 0.5675 -0.2259
C13 C 0.7538(7) 0.5697(11) -0.2616(7)
H26 H 0.7748 0.5485 -0.2036
C14 C 0.8213(5) 0.5900(13) -0.3350(10)
C15 C 0.7901(6) 0.6217(12) -0.4217(8)
H27 H 0.8352 0.6352 -0.4708
C16 C 0.6913(7) 0.6331(9) -0.4351(5)
H28 H 0.6704 0.6543 -0.4931
C17 C 0.3422(7) 0.4384(6) -0.3087(6)
C18 C 0.4021(7) 0.3600(7) -0.2639(7)
H29 H 0.4675 0.3619 -0.2604
C19 C 0.3663(7) 0.2764(7) -0.2229(7)
H30 H 0.4080 0.2243 -0.1909
C20 C 0.2719(7) 0.2702(7) -0.2290(7)
C21 C 0.2096(8) 0.3491(8) -0.2779(8)
H31 H 0.1446 0.3466 -0.2827
C22 C 0.2460(8) 0.4294(7) -0.3181(7)
H32 H 0.2057 0.4802 -0.3532
C23 C 0.3630(7) 0.7103(6) -0.5836(6)
C24 C 0.3904(9) 0.7958(8) -0.6290(7)
H33 H 0.4201 0.8276 -0.5981
C25 C 0.3747(8) 0.8351(7) -0.7188(7)
H34 H 0.3914 0.8937 -0.7471
C26 C 0.3350(7) 0.7879(7) -0.7654(6)
C27 C 0.3067(7) 0.7027(8) -0.7242(6)
H35 H 0.2793 0.6704 -0.7565
C28 C 0.3203(7) 0.6656(7) -0.6320(7)
H36 H 0.2997 0.6090 -0.6030
C29 C 0.2758(7) 0.7659(6) -0.2701(6)
C30 C 0.3111(7) 0.8053(7) -0.2103(7)
H37 H 0.3786 0.7958 -0.2066
C31 C 0.2494(7) 0.8582(8) -0.1562(7)
H38 H 0.2751 0.8836 -0.1167
C32 C 0.1499(8) 0.8730(7) -0.1611(6)
C33 C 0.1111(8) 0.8350(7) -0.2203(7)
H39 H 0.0436 0.8449 -0.2238
C34 C 0.1750(7) 0.7824(8) -0.2739(7)
H40 H 0.1493 0.7573 -0.3137
C41 C 0.3328(15) 0.2230(13) 0.1368(16)
H47 H 0.3561 0.2814 0.1078
H48 H 0.2651 0.2399 0.1595
C42 C 0.3865(17) 0.176(2) 0.2056(18)
H49 H 0.3594 0.1207 0.2371
H50 H 0.3807 0.2170 0.2475
C43 C 0.4898(13) 0.0851(13) 0.1148(14)
H51 H 0.5579 0.0681 0.0932
H52 H 0.4661 0.0270 0.1444
C44 C 0.4335(11) 0.1349(11) 0.0415(12)
H53 H 0.4616 0.1896 0.0091
H54 H 0.4367 0.0939 0.0005
O33 O 0.957(3) 0.498(2) -0.220(3)
S1_2 S 0.9400(6) -0.3985(6) 0.7001(7)
S2_2 S 0.2203(2) -0.82877(19) 0.82804(19)
S3_2 S 0.3078(2) -0.1613(2) 0.12026(18)
S4_2 S 0.06819(18) -0.06654(18) 0.91148(17)
O1_2 O 0.9736(15) -0.3974(16) 0.6202(17)
O5_2 O 0.921(3) -0.360(3) 0.792(3)
O6_2 O 0.2968(6) -0.9001(5) 0.8687(6)
O7_2 O 0.1703(6) -0.8518(5) 0.7626(5)
O8_2 O 0.1459(6) -0.7953(5) 0.8980(5)
O9_2 O 0.2021(5) -0.1299(5) 0.1270(5)
O10_2 O 0.3543(5) -0.0769(5) 0.0880(5)
O11_2 O 0.3446(7) -0.2309(6) 0.0711(5)
O12_2 O 0.0269(5) -0.1379(5) 0.9814(5)
O13_2 O -0.0088(5) -0.0041(5) 0.8567(5)
O14_2 O 0.1232(5) -0.0140(5) 0.9459(5)
C1_2 C 0.5134(7) -0.3744(6) 0.6254(6)
C2_2 C 0.4828(6) -0.4712(6) 0.6614(6)
H13_2 H 0.4961 -0.4945 0.7245
H14_2 H 0.5218 -0.5161 0.6285
C3_2 C 0.3740(6) -0.4660(6) 0.6524(6)
C4_2 C 0.3525(7) -0.4273(6) 0.5540(6)
H15_2 H 0.3887 -0.4714 0.5189
H16_2 H 0.2831 -0.4219 0.5485
C5_2 C 0.3813(7) -0.3293(6) 0.5161(6)
C6_2 C 0.3211(7) -0.2612(6) 0.5745(6)
H17_2 H 0.2517 -0.2545 0.5679
H18_2 H 0.3384 -0.1988 0.5527
C7_2 C 0.3398(7) -0.2975(7) 0.6738(6)
C8_2 C 0.4516(7) -0.3067(7) 0.6809(6)
H19_2 H 0.4661 -0.3301 0.7436
H20_2 H 0.4692 -0.2445 0.6596
C9_2 C 0.4913(7) -0.3382(6) 0.5262(6)
H21_2 H 0.5101 -0.2767 0.5025
H22_2 H 0.5296 -0.3819 0.4916
C10_2 C 0.3144(7) -0.3970(6) 0.7091(6)
H23_2 H 0.3291 -0.4209 0.7717
H24_2 H 0.2448 -0.3932 0.7060
C11_2 C 0.6238(4) -0.3872(6) 0.6383(5)
C12_2 C 0.6551(6) -0.4189(7) 0.7250(5)
H25_2 H 0.6100 -0.4325 0.7741
C13_2 C 0.7538(7) -0.4303(11) 0.7384(7)
H26_2 H 0.7748 -0.4515 0.7964
C14_2 C 0.8213(5) -0.4100(13) 0.6650(10)
C15_2 C 0.7901(6) -0.3783(12) 0.5783(8)
H27_2 H 0.8352 -0.3648 0.5292
C16_2 C 0.6913(7) -0.3669(9) 0.5649(5)
H28_2 H 0.6704 -0.3457 0.5069
C17_2 C 0.3422(7) -0.5616(6) 0.6913(6)
C18_2 C 0.4021(7) -0.6400(7) 0.7361(7)
H29_2 H 0.4675 -0.6381 0.7396
C19_2 C 0.3663(7) -0.7236(7) 0.7771(7)
H30_2 H 0.4080 -0.7757 0.8091
C20_2 C 0.2719(7) -0.7298(7) 0.7710(7)
C21_2 C 0.2096(8) -0.6509(8) 0.7221(8)
H31_2 H 0.1446 -0.6534 0.7173
C22_2 C 0.2460(8) -0.5706(7) 0.6819(7)
H32_2 H 0.2057 -0.5198 0.6468
C23_2 C 0.3630(7) -0.2897(6) 0.4164(6)
C24_2 C 0.3904(9) -0.2042(8) 0.3710(7)
H33_2 H 0.4201 -0.1724 0.4019
C25_2 C 0.3747(8) -0.1649(7) 0.2812(7)
H34_2 H 0.3914 -0.1063 0.2529
C26_2 C 0.3350(7) -0.2121(7) 0.2346(6)
C27_2 C 0.3067(7) -0.2973(8) 0.2758(6)
H35_2 H 0.2793 -0.3296 0.2435
C28_2 C 0.3203(7) -0.3344(7) 0.3680(7)
H36_2 H 0.2997 -0.3910 0.3970
C29_2 C 0.2758(7) -0.2341(6) 0.7299(6)
C30_2 C 0.3111(7) -0.1947(7) 0.7897(7)
H37_2 H 0.3786 -0.2042 0.7934
C31_2 C 0.2494(7) -0.1418(8) 0.8438(7)
H38_2 H 0.2751 -0.1164 0.8833
C32_2 C 0.1499(8) -0.1270(7) 0.8389(6)
C33_2 C 0.1111(8) -0.1650(7) 0.7797(7)
H39_2 H 0.0436 -0.1551 0.7762
C34_2 C 0.1750(7) -0.2176(8) 0.7261(7)
H40_2 H 0.1493 -0.2427 0.6863
O33_2 O 0.957(3) -0.502(2) 0.780(3)
Ba1_2 Ba 0.18762(5) -0.92859(4) 1.05853(4)
Ba2_2 Ba -0.02915(5) -0.80932(5) 0.83363(5)
O18_2 O 0.4817(10) -0.8515(11) 1.1829(10)
O19_2 O 0.3374(7) -0.8352(8) 1.0683(7)
C41_2 C 0.3328(15) -0.7770(13) 1.1368(16)
H47_2 H 0.3561 -0.7186 1.1078
H48_2 H 0.2651 -0.7601 1.1595
C42_2 C 0.3865(17) -0.824(2) 1.2056(18)
H49_2 H 0.3594 -0.8793 1.2371
H50_2 H 0.3807 -0.7830 1.2475
C43_2 C 0.4898(13) -0.9149(13) 1.1148(14)
H51_2 H 0.5579 -0.9319 1.0932
H52_2 H 0.4661 -0.9730 1.1444
C44_2 C 0.4335(11) -0.8651(11) 1.0415(12)
H53_2 H 0.4616 -0.8104 1.0091
H54_2 H 0.4367 -0.9061 1.0005
O26_2 O 0.1825(8) -0.9693(7) 1.2445(6)
H7_2 H 0.1419 -1.0158 1.2697
H8_2 H 0.1561 -0.9123 1.2652
O27_2 O 0.0956(8) -0.7589(8) 1.1051(9)
H10_2 H 0.0761 -0.7118 1.0517
H11_2 H 0.1404 -0.7371 1.1341
O24_2 O -0.1789(13) -0.6842(10) 0.9104(11)
H1_2 H -0.2391 -0.7079 0.9197
H2_2 H -0.1604 -0.6801 0.9672
O25_2 O -0.0481(11) -0.6456(11) 0.7032(14)
O14_3 O 0.1232(5) -0.0140(5) -0.0541(5)
O9A O -0.2021(5) 0.1299(5) -0.1270(5)
O12A O -0.0269(5) 0.1379(5) 0.0186(5)
O13_3 O -0.0088(5) -0.0041(5) -0.1433(5)
Ba1_3 Ba 0.18762(5) 1.07141(4) -0.94147(4)
Ba2A Ba 0.02915(5) 0.80932(5) -0.83363(5)
Ba2A_2 Ba 0.02915(5) 0.80932(5) 0.16637(5)
Ba2_3 Ba -0.02915(5) 1.19068(5) -0.16637(5)
Ba1_4 Ba 0.18762(5) 1.07141(4) 0.05853(4)
Ba2A_3 Ba 0.02915(5) -0.19068(5) 0.16637(5)
Ba2A_4 Ba 0.02915(5) -0.19068(5) 1.16637(5)
Ba2_4 Ba -0.02915(5) 0.19068(5) 0.83363(5)
Ba1_5 Ba 0.18762(5) 0.07141(4) 1.05853(4)
O9_3 O 0.2021(5) -1.1299(5) 1.1270(5)
O10_3 O 0.3543(5) -1.0769(5) 1.0880(5)
O14_4 O 0.1232(5) -1.0140(5) 0.9459(5)
O9A_2 O -0.2021(5) -0.8701(5) 0.8730(5)
O12A_2 O -0.0269(5) -0.8621(5) 1.0186(5)
O13_4 O -0.0088(5) -1.0041(5) 0.8567(5)
O15 O -0.0040(14) -0.0526(12) 0.4983(12)
O17 O 0.0410(7) -0.1184(9) 0.3320(7)
C35 C 0.0998(14) -0.1582(15) 0.4102(16)
C36 C 0.099(2) -0.093(2) 0.4659(19)
H42 H 0.1610 -0.0821 0.4785
C38 C -0.0545(19) -0.0023(18) 0.4178(17)
H45 H -0.0214 0.0486 0.3840
H46 H -0.1214 0.0256 0.4348
C40 C -0.0549(14) -0.0712(16) 0.3606(15)
O20 O -0.2841(11) -0.0033(11) 0.4459(15)
O21 O -0.4231(9) -0.1197(8) 0.4694(9)
C45 C -0.3775(17) -0.1087(15) 0.5439(14)
H55 H -0.4233 -0.1152 0.5970
H56 H -0.3207 -0.1592 0.5564
C46 C -0.3469(15) -0.0174(13) 0.5270(17)
H57 H -0.4042 0.0332 0.5217
H58 H -0.3125 -0.0154 0.5773
C47 C -0.331(2) -0.0144(16) 0.3713(19)
H59 H -0.3908 0.0328 0.3618
H60 H -0.2875 -0.0043 0.3167
C48 C -0.3548(15) -0.1136(13) 0.3911(12)
H61 H -0.2960 -0.1617 0.4029
H62 H -0.3840 -0.1223 0.3404
O22 O -0.5127(12) 0.4522(11) 0.0915(11)
C50 C -0.4474(17) 0.4070(14) 0.0285(14)
C51 C -0.5251(16) 0.5557(15) 0.0631(15)
C51A C -0.4749(16) 0.4443(15) -0.0631(15)
O22A O -0.4873(12) 0.5478(11) -0.0915(11)
C50A C -0.5526(17) 0.5930(14) -0.0285(14)
O28 O 0.1163(13) 0.1470(12) 0.3558(12)
loop_
_geom_bond_atom_site_label_1
_geom_bond_atom_site_label_2
_geom_bond_site_symmetry_1
_geom_bond_site_symmetry_2
Ba1 O8 1_555 1_555
Ba2 O7 1_555 1_555
S1 O1 1_555 1_555
S2 O6 1_555 1_555
S3 O9 1_555 1_555
S4 O12 1_555 1_555
O5 S1 1_555 1_555
O7 S2 1_555 1_555
O8 Ba2 1_555 1_555
O9 Ba1_3 1_555 1_555
O10 S3 1_555 1_555
O11 S3 1_555 1_555
O12 Ba2A_2 1_555 1_555
O13 S4 1_555 1_555
O14 S4 1_555 1_555
O15 C36 1_555 1_555
O17 C35 1_555 1_555
O18 C42 1_555 1_555
O19 Ba1 1_555 1_555
O20 C46 1_555 1_555
O21 C45 1_555 1_555
O22 C50 1_555 1_555
O24 Ba2 1_555 1_555
H1 O24 1_555 1_555
H2 O24 1_555 1_555
O25 Ba2 1_555 1_555
O26 Ba1 1_555 1_555
H7 O26 1_555 1_555
H8 O26 1_555 1_555
O27 Ba1 1_555 1_555
H10 O27 1_555 1_555
H11 O27 1_555 1_555
C1 C2 1_555 1_555
C2 H13 1_555 1_555
H14 C2 1_555 1_555
C3 C2 1_555 1_555
C4 C3 1_555 1_555
H15 C4 1_555 1_555
H16 C4 1_555 1_555
C5 C4 1_555 1_555
C6 C5 1_555 1_555
H17 C6 1_555 1_555
H18 C6 1_555 1_555
C7 C6 1_555 1_555
C8 C1 1_555 1_555
H19 C8 1_555 1_555
H20 C8 1_555 1_555
C9 C1 1_555 1_555
H21 C9 1_555 1_555
H22 C9 1_555 1_555
C10 C3 1_555 1_555
H23 C10 1_555 1_555
H24 C10 1_555 1_555
C11 C1 1_555 1_555
C12 C11 1_555 1_555
H25 C12 1_555 1_555
C13 C12 1_555 1_555
H26 C13 1_555 1_555
C14 S1 1_555 1_555
C15 C14 1_555 1_555
H27 C15 1_555 1_555
C16 C11 1_555 1_555
H28 C16 1_555 1_555
C17 C3 1_555 1_555
C18 C17 1_555 1_555
H29 C18 1_555 1_555
C19 C18 1_555 1_555
H30 C19 1_555 1_555
C20 S2 1_555 1_555
C21 C20 1_555 1_555
H31 C21 1_555 1_555
C22 C17 1_555 1_555
H32 C22 1_555 1_555
C23 C5 1_555 1_555
C24 C23 1_555 1_555
H33 C24 1_555 1_555
C25 C24 1_555 1_555
H34 C25 1_555 1_555
C26 S3 1_555 1_555
C27 C26 1_555 1_555
H35 C27 1_555 1_555
C28 C23 1_555 1_555
H36 C28 1_555 1_555
C29 C7 1_555 1_555
C30 C29 1_555 1_555
H37 C30 1_555 1_555
C31 C30 1_555 1_555
H38 C31 1_555 1_555
C32 S4 1_555 1_555
C33 C32 1_555 1_555
H39 C33 1_555 1_555
C34 C29 1_555 1_555
H40 C34 1_555 1_555
C35 C36 1_555 1_555
C36 H42 1_555 1_555
C38 O15 1_555 1_555
H45 C38 1_555 1_555
H46 C38 1_555 1_555
C40 O17 1_555 1_555
C41 O19 1_555 1_555
H47 C41 1_555 1_555
H48 C41 1_555 1_555
C42 C41 1_555 1_555
H49 C42 1_555 1_555
H50 C42 1_555 1_555
C43 O18 1_555 1_555
H51 C43 1_555 1_555
H52 C43 1_555 1_555
C44 O19 1_555 1_555
H53 C44 1_555 1_555
H54 C44 1_555 1_555
C45 H55 1_555 1_555
H56 C45 1_555 1_555
C46 C45 1_555 1_555
H57 C46 1_555 1_555
H58 C46 1_555 1_555
C47 O20 1_555 1_555
H59 C47 1_555 1_555
H60 C47 1_555 1_555
C48 O21 1_555 1_555
H61 C48 1_555 1_555
H62 C48 1_555 1_555
C50 C51A 1_555 1_555
C51 O22 1_555 1_555
O33 S1 1_555 1_555
C51A O22A 1_555 1_555
O22A C50A 1_555 1_555
C50A C51 1_555 1_555
S1_2 O1_2 1_555 1_555
S2_2 O6_2 1_555 1_555
S3_2 O9_2 1_555 1_555
S4_2 O12_2 1_555 1_555
O5_2 S1_2 1_555 1_555
O7_2 S2_2 1_555 1_555
O8_2 S2_2 1_555 1_555
O9_2 Ba1 1_555 1_555
O10_2 Ba1 1_555 1_555
O11_2 S3_2 1_555 1_555
O12_2 Ba2A_4 1_555 1_555
O13_2 S4_2 1_555 1_555
O14_2 S4_2 1_555 1_555
C1_2 C2_2 1_555 1_555
C2_2 H13_2 1_555 1_555
H14_2 C2_2 1_555 1_555
C3_2 C2_2 1_555 1_555
C4_2 C3_2 1_555 1_555
H15_2 C4_2 1_555 1_555
H16_2 C4_2 1_555 1_555
C5_2 C4_2 1_555 1_555
C6_2 C5_2 1_555 1_555
H17_2 C6_2 1_555 1_555
H18_2 C6_2 1_555 1_555
C7_2 C6_2 1_555 1_555
C8_2 C1_2 1_555 1_555
H19_2 C8_2 1_555 1_555
H20_2 C8_2 1_555 1_555
C9_2 C1_2 1_555 1_555
H21_2 C9_2 1_555 1_555
H22_2 C9_2 1_555 1_555
C10_2 C3_2 1_555 1_555
H23_2 C10_2 1_555 1_555
H24_2 C10_2 1_555 1_555
C11_2 C1_2 1_555 1_555
C12_2 C11_2 1_555 1_555
H25_2 C12_2 1_555 1_555
C13_2 C12_2 1_555 1_555
H26_2 C13_2 1_555 1_555
C14_2 S1_2 1_555 1_555
C15_2 C14_2 1_555 1_555
H27_2 C15_2 1_555 1_555
C16_2 C11_2 1_555 1_555
H28_2 C16_2 1_555 1_555
C17_2 C3_2 1_555 1_555
C18_2 C17_2 1_555 1_555
H29_2 C18_2 1_555 1_555
C19_2 C18_2 1_555 1_555
H30_2 C19_2 1_555 1_555
C20_2 S2_2 1_555 1_555
C21_2 C20_2 1_555 1_555
H31_2 C21_2 1_555 1_555
C22_2 C17_2 1_555 1_555
H32_2 C22_2 1_555 1_555
C23_2 C5_2 1_555 1_555
C24_2 C23_2 1_555 1_555
H33_2 C24_2 1_555 1_555
C25_2 C24_2 1_555 1_555
H34_2 C25_2 1_555 1_555
C26_2 S3_2 1_555 1_555
C27_2 C26_2 1_555 1_555
H35_2 C27_2 1_555 1_555
C28_2 C23_2 1_555 1_555
H36_2 C28_2 1_555 1_555
C29_2 C7_2 1_555 1_555
C30_2 C29_2 1_555 1_555
H37_2 C30_2 1_555 1_555
C31_2 C30_2 1_555 1_555
H38_2 C31_2 1_555 1_555
C32_2 S4_2 1_555 1_555
C33_2 C32_2 1_555 1_555
H39_2 C33_2 1_555 1_555
C34_2 C29_2 1_555 1_555
H40_2 C34_2 1_555 1_555
O33_2 S1_2 1_555 1_555
Ba1_2 O8_2 1_555 1_555
Ba2_2 O7_2 1_555 1_555
O18_2 C42_2 1_555 1_555
O19_2 Ba1_2 1_555 1_555
C41_2 O19_2 1_555 1_555
H47_2 C41_2 1_555 1_555
H48_2 C41_2 1_555 1_555
C42_2 C41_2 1_555 1_555
H49_2 C42_2 1_555 1_555
H50_2 C42_2 1_555 1_555
C43_2 O18_2 1_555 1_555
H51_2 C43_2 1_555 1_555
H52_2 C43_2 1_555 1_555
C44_2 O19_2 1_555 1_555
H53_2 C44_2 1_555 1_555
H54_2 C44_2 1_555 1_555
O26_2 Ba1_2 1_555 1_555
H7_2 O26_2 1_555 1_555
H8_2 O26_2 1_555 1_555
O27_2 Ba1_2 1_555 1_555
H10_2 O27_2 1_555 1_555
H11_2 O27_2 1_555 1_555
O24_2 Ba2_2 1_555 1_555
H1_2 O24_2 1_555 1_555
H2_2 O24_2 1_555 1_555
O25_2 Ba2_2 1_555 1_555
O14_3 Ba1 1_555 1_555
O9A Ba2 1_555 1_555
O12A Ba2 1_555 1_555
O13_3 Ba2 1_555 1_555
Ba1_3 O10 1_555 1_555
Ba2A O9 1_555 1_555
Ba2_3 O13 1_555 1_555
Ba1_4 O14 1_555 1_555
Ba2A_3 O9_2 1_555 1_555
Ba2_4 O13_2 1_555 1_555
Ba1_5 O14_2 1_555 1_555
O9_3 Ba1_2 1_555 1_555
O10_3 Ba1_2 1_555 1_555
O14_4 Ba1_2 1_555 1_555
O9A_2 Ba2_2 1_555 1_555
O12A_2 Ba2_2 1_555 1_555
O13_4 Ba2_2 1_555 1_555
S2 O8 1_555 1_555
C5 C9 1_555 1_555
C7 C8 1_555 1_555
C7 C10 1_555 1_555
C13 C14 1_555 1_555
C15 C16 1_555 1_555
C19 C20 1_555 1_555
C21 C22 1_555 1_555
C25 C26 1_555 1_555
C27 C28 1_555 1_555
C31 C32 1_555 1_555
C33 C34 1_555 1_555
C38 C40 1_555 1_555
C43 C44 1_555 1_555
C47 C48 1_555 1_555
S3_2 O10_2 1_555 1_555
O8_2 Ba2_2 1_555 1_555
C5_2 C9_2 1_555 1_555
C7_2 C8_2 1_555 1_555
C7_2 C10_2 1_555 1_555
C13_2 C14_2 1_555 1_555
C15_2 C16_2 1_555 1_555
C19_2 C20_2 1_555 1_555
C21_2 C22_2 1_555 1_555
C25_2 C26_2 1_555 1_555
C27_2 C28_2 1_555 1_555
C31_2 C32_2 1_555 1_555
C33_2 C34_2 1_555 1_555
C43_2 C44_2 1_555 1_555

#END
