
#######################################################################
#
#                 Cambridge Crystallographic Data Centre
#                                CCDC 
#
#######################################################################
#
# If this CIF has been generated from an entry in the Cambridge 
# Structural Database, then it will include bibliographic, chemical, 
# crystal, experimental, refinement or atomic coordinate data resulting 
# from the CCDC's data processing and validation procedures.
#
#######################################################################

data_EHIPOC
_chemical_formula_moiety         'C26 H23 Cu16 N17 O3 3+'
_symmetry_cell_setting           triclinic
_symmetry_space_group_name_H-M   'P -1'
_symmetry_Int_Tables_number      2
_space_group_name_Hall           '-P 1'
loop_
_symmetry_equiv_pos_site_id
_symmetry_equiv_pos_as_xyz
1 x,y,z
2 -x,-y,-z
_cell_length_a                   8.1219(2)
_cell_length_b                   11.0982(3)
_cell_length_c                   13.7649(4)
_cell_angle_alpha                91.3904(14)
_cell_angle_beta                 100.8211(13)
_cell_angle_gamma                103.378(2)
_cell_volume                     1182.64
loop_
_atom_site_label
_atom_site_type_symbol
_atom_site_fract_x
_atom_site_fract_y
_atom_site_fract_z
C8 C 0.8083(12) 0.2731(10) 0.5315(12)
N8 N 0.8679(12) 0.1025(10) 0.6342(12)
C9 C 0.7462(12) 0.1370(10) 0.5462(12)
C10 C 0.6098(12) 0.4888(10) 0.3611(12)
C11 C 0.7395(12) 0.4467(10) 0.4343(12)
C12 C 0.6876(12) 0.3137(10) 0.4535(12)
N9 N 0.5509(12) 0.4276(10) 0.2726(12)
H1 H 0.8316(12) 0.0158(10) 0.6443(12)
H2 H 0.865910 0.151010 0.692490
H3 H 0.983020 0.120320 0.621520
H4 H 0.630490 0.120730 0.557970
H5 H 0.747610 0.090040 0.487000
H6 H 0.812290 0.319810 0.591920
H7 H 0.921780 0.288710 0.516540
H8 H 0.686840 0.268170 0.393150
H9 H 0.573690 0.294670 0.467980
H10 H 0.845430 0.460810 0.410200
H11 H 0.760180 0.489390 0.498540
H12 H 0.511450 0.488000 0.390570
H13 H 0.659890 0.572190 0.347260
H14 H 0.468150 0.464270 0.232350
H15 H 0.496780 0.343700 0.282940
H16 H 0.645220 0.427900 0.239620
O1 O 0.4091(12) 0.5022(10) 0.0999(12)
H17 H 0.485860 0.539490 0.057970
H18 H 0.400520 0.548350 0.157890
O2 O 0.5567(12) 0.3208(10) 0.0059(12)
H19 H 0.544170 0.284010 0.067320
H20 H 0.505330 0.273070 -0.055950
O3 O 0.7400(12) 0.3137(10) 0.1773(12)
H21 H 0.806930 0.324670 0.126250
H22 H 0.794100 0.272040 0.229950
H23 H 0.733250 0.393300 0.202810
Cu1 Cu 0.4683(12) -0.0009(10) 0.8124(12)
Cu2 Cu 0.3368(12) 0.1548(10) 0.7175(12)
N1 N 0.4912(12) 0.0047(10) 0.9577(12)
C1 C 0.2169(12) -0.0349(10) 0.7384(12)
C2 C 0.5848(12) 0.2023(10) 0.7762(12)
C3 C 0.6053(12) -0.0973(10) 0.7566(12)
N2 N 0.2639(12) 0.1698(10) 0.5742(12)
N3 N 0.2051(12) 0.2629(10) 0.7752(12)
N4 N 0.0823(12) -0.0992(10) 0.7091(12)
C4 C 0.2169(12) 0.1861(10) 0.4926(12)
C5 C 0.1195(12) 0.3231(10) 0.7938(12)
Cu3 Cu -0.1494(12) -0.2178(10) 0.6457(12)
Cu4 Cu -0.0560(12) 0.4037(10) 0.8221(12)
N5 N -0.3104(12) -0.1470(10) 0.7221(12)
C6 C -0.1366(12) -0.3783(10) 0.6929(12)
N6 N -0.2828(12) 0.2668(10) 0.7983(12)
N7 N -0.1125(12) 0.5366(10) 0.7325(12)
C7 C -0.0145(12) 0.4772(10) 0.9601(12)
N1A N 0.5088(12) -0.0047(10) 1.0423(12)
Cu1A Cu 0.5317(12) 0.0009(10) 1.1876(12)
Cu3A Cu 0.1494(12) 0.2178(10) 0.3543(12)
C4A C -0.2169(12) -0.1861(10) 0.5074(12)
N4A N -0.0823(12) 0.0992(10) 0.2909(12)
N5A N 0.3104(12) 0.1470(10) 0.2779(12)
C6A C 0.1366(12) 0.3783(10) 0.3071(12)
C3_2 C -0.3947(12) -0.0973(10) 0.7566(12)
N2A N -0.2639(12) -0.1698(10) 0.4258(12)
C1A C -0.2169(12) 0.0349(10) 0.2616(12)
C3A C 0.3947(12) 0.0973(10) 0.2434(12)
C2_2 C -0.4152(12) 0.2023(10) 0.7762(12)
C6_2 C -0.1366(12) 0.6217(10) 0.6929(12)
C7A C 0.0145(12) 0.5228(10) 1.0399(12)
Cu1_2 Cu -0.5317(12) -0.0009(10) 0.8124(12)
Cu2A Cu -0.3368(12) -0.1548(10) 0.2825(12)
Cu2A_2 Cu 0.6632(12) -0.1548(10) 0.2825(12)
Cu1A_2 Cu -0.4683(12) 0.0009(10) 0.1876(12)
Cu1A_3 Cu 0.5317(12) 0.0009(10) 0.1876(12)
Cu2_2 Cu -0.6632(12) 0.1548(10) 0.7175(12)
Cu3_2 Cu -0.1494(12) 0.7822(10) 0.6457(12)
Cu4A Cu 0.0560(12) 0.5963(10) 1.1779(12)
N3A N -0.2051(12) -0.2629(10) 0.2248(12)
C2A C -0.5848(12) -0.2023(10) 0.2238(12)
C2A_2 C 0.4152(12) -0.2023(10) 0.2238(12)
N1A_2 N -0.4912(12) -0.0047(10) 0.0423(12)
C3A_2 C -0.6053(12) 0.0973(10) 0.2434(12)
C5A C -0.1195(12) -0.3231(10) 0.2062(12)
N6A N 0.2828(12) -0.2668(10) 0.2017(12)
Cu4A_2 Cu 0.0560(12) -0.4037(10) 0.1779(12)
N7A N 0.1125(12) -0.5366(10) 0.2675(12)
C7A_2 C 0.0145(12) -0.4772(10) 0.0399(12)
C6A_2 C 0.1366(12) -0.6217(10) 0.3071(12)
Cu3A_2 Cu 0.1494(12) -0.7822(10) 0.3543(12)
loop_
_geom_bond_atom_site_label_1
_geom_bond_atom_site_label_2
_geom_bond_site_symmetry_1
_geom_bond_site_symmetry_2
Cu1 Cu2 1_555 1_555
Cu2 C1 1_555 1_555
N1 Cu1 1_555 1_555
C1 Cu1 1_555 1_555
C2 Cu1 1_555 1_555
C3 Cu1 1_555 1_555
N2 Cu2 1_555 1_555
N3 Cu2 1_555 1_555
N4 C1 1_555 1_555
C4 N2 1_555 1_555
C5 N3 1_555 1_555
Cu3 N4 1_555 1_555
Cu4 C5 1_555 1_555
N5 Cu3 1_555 1_555
C6 Cu3 1_555 1_555
N6 Cu4 1_555 1_555
N7 Cu4 1_555 1_555
C7 Cu4 1_555 1_555
C8 C9 1_555 1_555
N8 C9 1_555 1_555
C9 H4 1_555 1_555
C10 C11 1_555 1_555
C11 C12 1_555 1_555
C12 C8 1_555 1_555
N9 C10 1_555 1_555
H1 N8 1_555 1_555
H2 N8 1_555 1_555
H3 N8 1_555 1_555
H5 C9 1_555 1_555
H6 C8 1_555 1_555
H7 C8 1_555 1_555
H8 C12 1_555 1_555
H9 C12 1_555 1_555
H10 C11 1_555 1_555
H11 C11 1_555 1_555
H12 C10 1_555 1_555
H13 C10 1_555 1_555
H14 N9 1_555 1_555
H15 N9 1_555 1_555
H16 N9 1_555 1_555
O1 H17 1_555 1_555
H18 O1 1_555 1_555
O2 H19 1_555 1_555
H20 O2 1_555 1_555
O3 H21 1_555 1_555
H22 O3 1_555 1_555
H23 O3 1_555 1_555
N1A N1 1_555 1_555
Cu1A N1A 1_555 1_555
Cu3A C4 1_555 1_555
C4A Cu3 1_555 1_555
N4A Cu3A 1_555 1_555
N5A Cu3A 1_555 1_555
C6A Cu3A 1_555 1_555
C3_2 N5 1_555 1_555
N2A C4A 1_555 1_555
C1A N4A 1_555 1_555
C3A N5A 1_555 1_555
C2_2 N6 1_555 1_555
C6_2 N7 1_555 1_555
C7A C7 1_555 1_555
Cu1_2 C3_2 1_555 1_555
Cu2A N2A 1_555 1_555
Cu2A_2 Cu1A_3 1_555 1_555
Cu1A_2 C1A 1_555 1_555
Cu1A_3 C3A 1_555 1_555
Cu2_2 C2_2 1_555 1_555
Cu3_2 C6_2 1_555 1_555
Cu4A C7A 1_555 1_555
N3A Cu2A 1_555 1_555
C2A Cu2A 1_555 1_555
C2A_2 Cu2A_2 1_555 1_555
N1A_2 Cu1A_2 1_555 1_555
C3A_2 Cu1A_2 1_555 1_555
C5A N3A 1_555 1_555
N6A C2A_2 1_555 1_555
Cu4A_2 C5A 1_555 1_555
N7A Cu4A_2 1_555 1_555
C7A_2 Cu4A_2 1_555 1_555
C6A_2 N7A 1_555 1_555
Cu3A_2 C6A_2 1_555 1_555
Cu2 C2 1_555 1_555
C1A Cu2A 1_555 1_555
C2_2 Cu1_2 1_555 1_555
Cu1_2 Cu2_2 1_555 1_555
Cu2A Cu1A_2 1_555 1_555
Cu1A_2 C2A 1_555 1_555
Cu1A_3 C2A_2 1_555 1_555
N6A Cu4A_2 1_555 1_555

#END
