
#######################################################################
#
#                 Cambridge Crystallographic Data Centre
#                                CCDC 
#
#######################################################################
#
# If this CIF has been generated from an entry in the Cambridge 
# Structural Database, then it will include bibliographic, chemical, 
# crystal, experimental, refinement or atomic coordinate data resulting 
# from the CCDC's data processing and validation procedures.
#
#######################################################################

data_MALRUM
_chemical_formula_moiety         '(C12 H24 Cl7 Li2 O6 Ta1)n'
_symmetry_cell_setting           monoclinic
_symmetry_space_group_name_H-M   'C 2/c'
_symmetry_Int_Tables_number      15
_space_group_name_Hall           '-C 2yc'
loop_
_symmetry_equiv_pos_site_id
_symmetry_equiv_pos_as_xyz
1 x,y,z
2 1/2+x,1/2+y,z
3 x,-y,1/2+z
4 1/2+x,1/2-y,1/2+z
5 -x,-y,-z
6 1/2-x,1/2-y,-z
7 -x,y,1/2-z
8 1/2-x,1/2+y,1/2-z
_cell_length_a                   15.9453(4)
_cell_length_b                   17.4202(4)
_cell_length_c                   11.0792(3)
_cell_angle_alpha                90
_cell_angle_beta                 123.926(1)
_cell_angle_gamma                90
_cell_volume                     2553.56
loop_
_atom_site_label
_atom_site_type_symbol
_atom_site_fract_x
_atom_site_fract_y
_atom_site_fract_z
Ta1 Ta 0.5000 0.278493(10) 0.7500
Cl1 Cl 0.66511(6) 0.27769(5) 0.80587(10)
Cl2 Cl 0.4505(6) 0.1970(4) 0.5590(7)
Cl4 Cl 0.4635(3) 0.3878(2) 0.6122(5)
Cl1F Cl 0.33489(6) 0.27769(5) 0.69413(10)
Cl2F Cl 0.5495(6) 0.1970(4) 0.9410(7)
Cl4F Cl 0.5365(3) 0.3878(2) 0.8878(5)
Cl6 Cl 0.5000 0.08867(9) 0.2500
O1 O 0.2586(2) 0.00850(13) 0.1465(2)
O2 O 0.2876(2) 0.04561(15) -0.0930(3)
O3 O 0.2661(2) 0.17990(13) 0.0725(3)
C1 C 0.1889(3) 0.0279(2) 0.1859(4)
C2 C 0.3033(3) -0.0657(2) 0.2052(4)
C3 C 0.2429(3) -0.0285(2) -0.1516(4)
C4 C 0.3570(3) 0.0649(2) -0.1326(4)
C5 C 0.3207(3) 0.2477(2) 0.1511(4)
C6 C 0.1685(3) 0.1995(2) -0.0527(4)
Li1 Li 0.3289(5) 0.0799(3) 0.0995(6)
H1 H 0.1591(3) 0.0790(2) 0.1464(4)
H2 H 0.1333(3) -0.0102(2) 0.1436(4)
H3 H 0.2499(3) -0.1055(2) 0.1630(4)
H4 H 0.3517(3) -0.0783(2) 0.1789(4)
H5 H 0.1946(3) -0.0411(2) -0.1251(4)
H6 H 0.2963(3) -0.0683(2) -0.1096(4)
H7 H 0.4126(3) 0.0269(2) -0.0903(4)
H8 H 0.3868(3) 0.1161(2) -0.0930(4)
H9 H 0.3884(3) 0.2333(2) 0.2360(4)
H10 H 0.2841(3) 0.2745(2) 0.1874(4)
H11 H 0.1281(3) 0.2251(2) -0.0215(4)
H12 H 0.1324(3) 0.1522(2) -0.1063(4)
C3B C 0.2429(3) 0.0285(2) 0.3484(4)
O2B O 0.2876(2) -0.04561(15) 0.4070(3)
C4B C 0.3570(3) -0.0649(2) 0.3674(4)
H7B H 0.4126(3) -0.0269(2) 0.4097(4)
H8B H 0.3868(3) -0.1161(2) 0.4070(4)
Li1B Li 0.3289(5) -0.0799(3) 0.5995(6)
Li1F Li 0.6711(5) 0.0799(3) 0.4005(6)
Cl6D Cl 0.5000 -0.08867(9) -0.2500
H5B H 0.1946(3) 0.0411(2) 0.3749(4)
H6B H 0.2963(3) 0.0683(2) 0.3904(4)
C1B C 0.1889(3) -0.0279(2) -0.3141(4)
C2B C 0.3033(3) 0.0657(2) -0.2948(4)
C6E C 0.3315(3) 0.3005(2) 0.0527(4)
C5E C 0.1793(3) 0.2523(2) -0.1511(4)
Li1B_2 Li 0.3289(5) -0.0799(3) -0.4005(6)
O1B O 0.2586(2) -0.00850(13) -0.3535(2)
H1B H 0.1591(3) -0.0790(2) -0.3536(4)
H2B H 0.1333(3) 0.0102(2) -0.3564(4)
H3B H 0.2499(3) 0.1055(2) -0.3370(4)
H4B H 0.3517(3) 0.0783(2) -0.3211(4)
O3E O 0.2339(2) 0.32010(13) -0.0725(3)
H11E H 0.3719(3) 0.2749(2) 0.0215(4)
H12E H 0.3676(3) 0.3478(2) 0.1063(4)
H9E H 0.1116(3) 0.2667(2) -0.2360(4)
H10E H 0.2159(3) 0.2255(2) -0.1874(4)
O2B_2 O 0.2876(2) -0.04561(15) -0.5930(3)
O3B O 0.2661(2) -0.17990(13) -0.4275(3)
Li1E Li 0.1711(5) 0.4201(3) -0.0995(6)
loop_
_geom_bond_atom_site_label_1
_geom_bond_atom_site_label_2
_geom_bond_site_symmetry_1
_geom_bond_site_symmetry_2
Ta1 Cl1 1_555 1_555
Cl2 Ta1 1_555 1_555
Cl4 Ta1 1_555 1_555
Cl6 Li1 1_555 1_555
O1 C1 1_555 1_555
O2 C3 1_555 1_555
O3 C5 1_555 1_555
C1 H1 1_555 1_555
C2 O1 1_555 1_555
C3 H5 1_555 1_555
C4 O2 1_555 1_555
C5 H9 1_555 1_555
C6 O3 1_555 1_555
Li1 O1 1_555 1_555
H2 C1 1_555 1_555
H3 C2 1_555 1_555
H4 C2 1_555 1_555
H6 C3 1_555 1_555
H7 C4 1_555 1_555
H8 C4 1_555 1_555
H10 C5 1_555 1_555
H11 C6 1_555 1_555
H12 C6 1_555 1_555
Cl1F Ta1 1_555 1_555
Cl2F Ta1 1_555 1_555
Cl4F Ta1 1_555 1_555
C3B C1 1_555 1_555
O2B C3B 1_555 1_555
C4B C2 1_555 1_555
H7B C4B 1_555 1_555
H8B C4B 1_555 1_555
Li1B O2B 1_555 1_555
Li1F Cl6 1_555 1_555
Cl6D Li1B_2 1_555 1_555
H5B C3B 1_555 1_555
H6B C3B 1_555 1_555
C1B C3 1_555 1_555
C2B C4 1_555 1_555
C6E C5 1_555 1_555
C5E C6 1_555 1_555
Li1B_2 O1B 1_555 1_555
O1B C1B 1_555 1_555
H1B C1B 1_555 1_555
H2B C1B 1_555 1_555
H3B C2B 1_555 1_555
H4B C2B 1_555 1_555
O3E C6E 1_555 1_555
H11E C6E 1_555 1_555
H12E C6E 1_555 1_555
H9E C5E 1_555 1_555
H10E C5E 1_555 1_555
O2B_2 Li1B_2 1_555 1_555
O3B Li1B_2 1_555 1_555
Li1E O3E 1_555 1_555
O2 Li1 1_555 1_555
O3 Li1 1_555 1_555
O2B C4B 1_555 1_555
C2B O1B 1_555 1_555
C5E O3E 1_555 1_555

#END
