
#######################################################################
#
#                 Cambridge Crystallographic Data Centre
#                                CCDC 
#
#######################################################################
#
# If this CIF has been generated from an entry in the Cambridge 
# Structural Database, then it will include bibliographic, chemical, 
# crystal, experimental, refinement or atomic coordinate data resulting 
# from the CCDC's data processing and validation procedures.
#
#######################################################################

data_ESEBOV
_chemical_formula_moiety         'C120 H48 O68 Zr21'
_symmetry_cell_setting           cubic
_symmetry_space_group_name_H-M   'P m -3 m'
_symmetry_Int_Tables_number      221
_space_group_name_Hall           '-P 4 2 3'
loop_
_symmetry_equiv_pos_site_id
_symmetry_equiv_pos_as_xyz
1 x,y,z
2 -x,-y,z
3 -x,y,-z
4 x,-y,-z
5 z,x,y
6 z,-x,-y
7 -z,-x,y
8 -z,x,-y
9 y,z,x
10 -y,z,-x
11 y,-z,-x
12 -y,-z,x
13 y,x,-z
14 -y,-x,-z
15 y,-x,z
16 -y,x,z
17 x,z,-y
18 -x,z,y
19 -x,-z,-y
20 x,-z,y
21 z,y,-x
22 z,-y,x
23 -z,y,x
24 -z,-y,-x
25 -x,-y,-z
26 x,y,-z
27 x,-y,z
28 -x,y,z
29 -z,-x,-y
30 -z,x,y
31 z,x,-y
32 z,-x,y
33 -y,-z,-x
34 y,-z,x
35 -y,z,x
36 y,z,-x
37 -y,-x,z
38 y,x,z
39 -y,x,-z
40 y,-x,-z
41 -x,-z,y
42 x,-z,-y
43 x,z,y
44 -x,z,-y
45 -z,-y,x
46 -z,y,-x
47 z,-y,-x
48 z,y,x
_cell_length_a                   28.331(3)
_cell_length_b                   28.331(3)
_cell_length_c                   28.331(3)
_cell_angle_alpha                90
_cell_angle_beta                 90
_cell_angle_gamma                90
_cell_volume                     22739.8
loop_
_atom_site_label
_atom_site_type_symbol
_atom_site_fract_x
_atom_site_fract_y
_atom_site_fract_z
Zr1 Zr 0.5000 0.08700(5) 0.5000
Zr2 Zr 0.43748(3) 0.0000 0.43748(3)
O1 O 0.54624(16) 0.1267(2) 0.54624(16)
O2 O 0.58738(14) 0.0712(3) 0.58738(14)
O3 O 0.4371(2) 0.04329(18) 0.5000
O4 O 0.35435(18) 0.0000 0.44480(18)
C1 C 0.5765(3) 0.1150(4) 0.5765(3)
C2 C 0.6033(4) 0.1512(5) 0.6033(4)
C3 C 0.5935(3) 0.1984(7) 0.5935(3)
H1 H 0.5709 0.2058 0.5709
C4 C 0.6171(5) 0.2351(4) 0.6171(5)
H2 H 0.6095 0.2661 0.6095
C5 C 0.6508(4) 0.2274(6) 0.6508(4)
C6 C 0.6599(3) 0.1812(7) 0.6599(3)
H3 H 0.6825 0.1739 0.6825
C7 C 0.6374(4) 0.1445(4) 0.6374(4)
H4 H 0.6456 0.1138 0.6456
C8 C 0.6734(2) 0.2667(3) 0.6734(2)
C9 C 0.6534(3) 0.2860(2) 0.7140(2)
C10 C 0.6089(3) 0.2634(2) 0.7366(2)
O1E O 0.54624(16) 0.45376(16) 0.8733(2)
O2E O 0.58738(14) 0.41262(14) 0.9288(3)
C1E C 0.5765(3) 0.4235(3) 0.8850(4)
C2E C 0.6033(4) 0.3967(4) 0.8488(5)
C3E C 0.5935(3) 0.4065(3) 0.8016(7)
H1E H 0.5709 0.4291 0.7942
C4E C 0.6171(5) 0.3829(5) 0.7649(4)
H2E H 0.6095 0.3905 0.7339
C5E C 0.6508(4) 0.3492(4) 0.7726(6)
C6E C 0.6599(3) 0.3401(3) 0.8188(7)
H3E H 0.6825 0.3175 0.8261
C7E C 0.6374(4) 0.3626(4) 0.8555(4)
H4E H 0.6456 0.3544 0.8862
C8E C 0.6734(2) 0.3266(2) 0.7333(3)
C9E C 0.7140(2) 0.3466(3) 0.7140(2)
C10E C 0.7366(2) 0.3911(3) 0.7366(2)
O1K O 0.8733(2) 0.45376(16) 0.54624(16)
O2K O 0.9288(3) 0.41262(14) 0.58738(14)
C1K C 0.8850(4) 0.4235(3) 0.5765(3)
C2K C 0.8488(5) 0.3967(4) 0.6033(4)
C3K C 0.8016(7) 0.4065(3) 0.5935(3)
H1K H 0.7942 0.4291 0.5709
C4K C 0.7649(4) 0.3829(5) 0.6171(5)
H2K H 0.7339 0.3905 0.6095
C5K C 0.7726(6) 0.3492(4) 0.6508(4)
C6K C 0.8188(7) 0.3401(3) 0.6599(3)
H3K H 0.8261 0.3175 0.6825
C7K C 0.8555(4) 0.3626(4) 0.6374(4)
H4K H 0.8862 0.3544 0.6456
C8K C 0.7333(3) 0.3266(2) 0.6734(2)
C9K C 0.7140(2) 0.2860(2) 0.6534(3)
C10K C 0.7366(2) 0.2634(2) 0.6089(3)
Zr2B Zr 0.56252(3) 0.0000 0.56252(3)
O1B O 0.45376(16) 0.1267(2) 0.45376(16)
O2B O 0.41262(14) 0.0712(3) 0.41262(14)
O3B O 0.5629(2) 0.04329(18) 0.5000
O4B O 0.64565(18) 0.0000 0.55520(18)
C1B C 0.4235(3) 0.1150(4) 0.4235(3)
C2B C 0.3967(4) 0.1512(5) 0.3967(4)
C3B C 0.4065(3) 0.1984(7) 0.4065(3)
H1B H 0.4291 0.2058 0.4291
C4B C 0.3829(5) 0.2351(4) 0.3829(5)
H2B H 0.3905 0.2661 0.3905
C5B C 0.3492(4) 0.2274(6) 0.3492(4)
C6B C 0.3401(3) 0.1812(7) 0.3401(3)
H3B H 0.3175 0.1739 0.3175
C7B C 0.3626(4) 0.1445(4) 0.3626(4)
H4B H 0.3544 0.1138 0.3544
C8B C 0.3266(2) 0.2667(3) 0.3266(2)
C9B C 0.3466(3) 0.2860(2) 0.2860(2)
C10B C 0.3911(3) 0.2634(2) 0.2634(2)
O1F O 0.45376(16) 0.45376(16) 0.1267(2)
O2F O 0.41262(14) 0.41262(14) 0.0712(3)
C1F C 0.4235(3) 0.4235(3) 0.1150(4)
C2F C 0.3967(4) 0.3967(4) 0.1512(5)
C3F C 0.4065(3) 0.4065(3) 0.1984(7)
H1F H 0.4291 0.4291 0.2058
C4F C 0.3829(5) 0.3829(5) 0.2351(4)
H2F H 0.3905 0.3905 0.2661
C5F C 0.3492(4) 0.3492(4) 0.2274(6)
C6F C 0.3401(3) 0.3401(3) 0.1812(7)
H3F H 0.3175 0.3175 0.1739
C7F C 0.3626(4) 0.3626(4) 0.1445(4)
H4F H 0.3544 0.3544 0.1138
C8F C 0.3266(2) 0.3266(2) 0.2667(3)
C9F C 0.2860(2) 0.3466(3) 0.2860(2)
C10F C 0.2634(2) 0.3911(3) 0.2634(2)
O1J O 0.1267(2) 0.45376(16) 0.45376(16)
O2J O 0.0712(3) 0.41262(14) 0.41262(14)
C1J C 0.1150(4) 0.4235(3) 0.4235(3)
C2J C 0.1512(5) 0.3967(4) 0.3967(4)
C3J C 0.1984(7) 0.4065(3) 0.4065(3)
H1J H 0.2058 0.4291 0.4291
C4J C 0.2351(4) 0.3829(5) 0.3829(5)
H2J H 0.2661 0.3905 0.3905
C5J C 0.2274(6) 0.3492(4) 0.3492(4)
C6J C 0.1812(7) 0.3401(3) 0.3401(3)
H3J H 0.1739 0.3175 0.3175
C7J C 0.1445(4) 0.3626(4) 0.3626(4)
H4J H 0.1138 0.3544 0.3544
C8J C 0.2667(3) 0.3266(2) 0.3266(2)
C9J C 0.2860(2) 0.2860(2) 0.3466(3)
C10J C 0.2634(2) 0.2634(2) 0.3911(3)
Zr1A Zr 0.5000 -0.08700(5) 0.5000
Zr2C Zr 0.43748(3) 0.0000 0.56252(3)
O3C O 0.4371(2) -0.04329(18) 0.5000
O4C O 0.35435(18) 0.0000 0.55520(18)
Zr1I Zr 0.91300(5) 0.5000 0.5000
O1M O 0.8733(2) 0.45376(16) 0.45376(16)
O2M O 0.9288(3) 0.41262(14) 0.41262(14)
O3M O 0.95671(18) 0.5629(2) 0.5000
C1M C 0.8850(4) 0.4235(3) 0.4235(3)
C2M C 0.8488(5) 0.3967(4) 0.3967(4)
C3M C 0.8016(7) 0.4065(3) 0.4065(3)
H1M H 0.7942 0.4291 0.4291
C4M C 0.7649(4) 0.3829(5) 0.3829(5)
H2M H 0.7339 0.3905 0.3905
C5M C 0.7726(6) 0.3492(4) 0.3492(4)
C6M C 0.8188(7) 0.3401(3) 0.3401(3)
H3M H 0.8261 0.3175 0.3175
C7M C 0.8555(4) 0.3626(4) 0.3626(4)
H4M H 0.8862 0.3544 0.3544
C8M C 0.7333(3) 0.3266(2) 0.3266(2)
C9M C 0.7140(2) 0.3466(3) 0.2860(2)
C10M C 0.7366(2) 0.3911(3) 0.2634(2)
O1S O 0.54624(16) 0.45376(16) 0.1267(2)
O2S O 0.58738(14) 0.41262(14) 0.0712(3)
C1S C 0.5765(3) 0.4235(3) 0.1150(4)
C2S C 0.6033(4) 0.3967(4) 0.1512(5)
C3S C 0.5935(3) 0.4065(3) 0.1984(7)
H1S H 0.5709 0.4291 0.2058
C4S C 0.6171(5) 0.3829(5) 0.2351(4)
H2S H 0.6095 0.3905 0.2661
C5S C 0.6508(4) 0.3492(4) 0.2274(6)
C6S C 0.6599(3) 0.3401(3) 0.1812(7)
H3S H 0.6825 0.3175 0.1739
C7S C 0.6374(4) 0.3626(4) 0.1445(4)
H4S H 0.6456 0.3544 0.1138
C8S C 0.6734(2) 0.3266(2) 0.2667(3)
C9S C 0.6534(3) 0.2860(2) 0.2860(2)
C10S C 0.6089(3) 0.2634(2) 0.2634(2)
O1T O 0.54624(16) 0.1267(2) 0.45376(16)
O2T O 0.58738(14) 0.0712(3) 0.41262(14)
C1T C 0.5765(3) 0.1150(4) 0.4235(3)
C2T C 0.6033(4) 0.1512(5) 0.3967(4)
C3T C 0.5935(3) 0.1984(7) 0.4065(3)
H1T H 0.5709 0.2058 0.4291
C4T C 0.6171(5) 0.2351(4) 0.3829(5)
H2T H 0.6095 0.2661 0.3905
C5T C 0.6508(4) 0.2274(6) 0.3492(4)
C6T C 0.6599(3) 0.1812(7) 0.3401(3)
H3T H 0.6825 0.1739 0.3175
C7T C 0.6374(4) 0.1445(4) 0.3626(4)
H4T H 0.6456 0.1138 0.3544
C8T C 0.6734(2) 0.2667(3) 0.3266(2)
C9T C 0.7140(2) 0.2860(2) 0.3466(3)
C10T C 0.7366(2) 0.2634(2) 0.3911(3)
O1P O 0.54624(16) 0.54624(16) 0.8733(2)
O2P O 0.58738(14) 0.58738(14) 0.9288(3)
C1P C 0.5765(3) 0.5765(3) 0.8850(4)
C2P C 0.6033(4) 0.6033(4) 0.8488(5)
C3P C 0.5935(3) 0.5935(3) 0.8016(7)
H1P H 0.5709 0.5709 0.7942
C4P C 0.6171(5) 0.6171(5) 0.7649(4)
H2P H 0.6095 0.6095 0.7339
C5P C 0.6508(4) 0.6508(4) 0.7726(6)
C6P C 0.6599(3) 0.6599(3) 0.8188(7)
H3P H 0.6825 0.6825 0.8261
C7P C 0.6374(4) 0.6374(4) 0.8555(4)
H4P H 0.6456 0.6456 0.8862
C8P C 0.6734(2) 0.6734(2) 0.7333(3)
C9P C 0.6534(3) 0.7140(2) 0.7140(2)
C10P C 0.6089(3) 0.7366(2) 0.7366(2)
O1U O 0.54624(16) 0.8733(2) 0.54624(16)
O2U O 0.58738(14) 0.9288(3) 0.58738(14)
C1U C 0.5765(3) 0.8850(4) 0.5765(3)
C2U C 0.6033(4) 0.8488(5) 0.6033(4)
C3U C 0.5935(3) 0.8016(7) 0.5935(3)
H1U H 0.5709 0.7942 0.5709
C4U C 0.6171(5) 0.7649(4) 0.6171(5)
H2U H 0.6095 0.7339 0.6095
C5U C 0.6508(4) 0.7726(6) 0.6508(4)
C6U C 0.6599(3) 0.8188(7) 0.6599(3)
H3U H 0.6825 0.8261 0.6825
C7U C 0.6374(4) 0.8555(4) 0.6374(4)
H4U H 0.6456 0.8862 0.6456
C8U C 0.6734(2) 0.7333(3) 0.6734(2)
C9U C 0.7140(2) 0.7140(2) 0.6534(3)
C10U C 0.7366(2) 0.7366(2) 0.6089(3)
O1O O 0.8733(2) 0.54624(16) 0.54624(16)
O2O O 0.9288(3) 0.58738(14) 0.58738(14)
C1O C 0.8850(4) 0.5765(3) 0.5765(3)
C2O C 0.8488(5) 0.6033(4) 0.6033(4)
C3O C 0.8016(7) 0.5935(3) 0.5935(3)
H1O H 0.7942 0.5709 0.5709
C4O C 0.7649(4) 0.6171(5) 0.6171(5)
H2O H 0.7339 0.6095 0.6095
C5O C 0.7726(6) 0.6508(4) 0.6508(4)
C6O C 0.8188(7) 0.6599(3) 0.6599(3)
H3O H 0.8261 0.6825 0.6825
C7O C 0.8555(4) 0.6374(4) 0.6374(4)
H4O H 0.8862 0.6456 0.6456
C8O C 0.7333(3) 0.6734(2) 0.6734(2)
C9O C 0.7140(2) 0.6534(3) 0.7140(2)
C10O C 0.7366(2) 0.6089(3) 0.7366(2)
O3T O 0.5000 0.04329(18) 0.5629(2)
O4T O 0.44480(18) 0.0000 0.64565(18)
Zr2A Zr 0.56252(3) 0.0000 0.43748(3)
O3V O 0.5000 0.04329(18) 0.4371(2)
O4V O 0.55520(18) 0.0000 0.35435(18)
O4A O 0.64565(18) 0.0000 0.44480(18)
O3I O 0.95671(18) 0.5000 0.5629(2)
Zr2K Zr 1.0000 0.56252(3) 0.43748(3)
O4N O 1.0000 0.64565(18) 0.44480(18)
Zr2H Zr 0.0000 0.43748(3) 0.43748(3)
O4O O 0.0000 0.35435(18) 0.44480(18)
O4W O 0.55520(18) 0.0000 0.64565(18)
O4U O 0.44480(18) 0.0000 0.35435(18)
O4K O 1.0000 0.55520(18) 0.35435(18)
O3U O 0.5000 -0.04329(18) 0.4371(2)
O3W O 0.5000 -0.04329(18) 0.5629(2)
O3A O 0.5629(2) -0.04329(18) 0.5000
O3K O 0.95671(18) 0.5000 0.4371(2)
O3O O 0.95671(18) 0.4371(2) 0.5000
O4H O 0.0000 0.44480(18) 0.35435(18)
Zr1A_2 Zr 0.5000 0.91300(5) 0.5000
Zr1D Zr 0.5000 0.5000 0.08700(5)
Zr1E Zr 0.5000 0.5000 0.91300(5)
Zr1H Zr 0.08700(5) 0.5000 0.5000
Zr2B_2 Zr 0.56252(3) 1.0000 0.56252(3)
Zr2D Zr 0.43748(3) 0.43748(3) 0.0000
Zr2F Zr 0.56252(3) 0.56252(3) 1.0000
Zr2G Zr 0.56252(3) 0.43748(3) 0.0000
Zr2G_2 Zr 0.56252(3) 0.43748(3) 1.0000
Zr2H_2 Zr 1.0000 0.43748(3) 0.43748(3)
Zr2I Zr 1.0000 0.43748(3) 0.56252(3)
Zr2J Zr 1.0000 0.56252(3) 0.56252(3)
O1A O 0.45376(16) -0.1267(2) 0.54624(16)
O1C O 0.54624(16) -0.1267(2) 0.45376(16)
O1I O 0.8733(2) 0.54624(16) 0.45376(16)
O1U_2 O 0.54624(16) -0.1267(2) 0.54624(16)
O1V O 0.45376(16) 0.1267(2) 0.54624(16)
O1W O 0.45376(16) -0.1267(2) 0.45376(16)
O2A O 0.41262(14) -0.0712(3) 0.58738(14)
O2C O 0.58738(14) -0.0712(3) 0.41262(14)
O2I O 0.9288(3) 0.58738(14) 0.41262(14)
O2L O 1.0712(3) 0.58738(14) 0.41262(14)
O2M_2 O -0.0712(3) 0.41262(14) 0.41262(14)
O2U_2 O 0.58738(14) -0.0712(3) 0.58738(14)
O2V O 0.41262(14) 0.0712(3) 0.58738(14)
O2W O 0.41262(14) -0.0712(3) 0.41262(14)
O3H O 0.04329(18) 0.5000 0.4371(2)
O3H_2 O 1.04329(18) 0.5000 0.4371(2)
O3K_2 O -0.04329(18) 0.5000 0.4371(2)
O3L O 0.04329(18) 0.4371(2) 0.5000
O3N O 1.04329(18) 0.5629(2) 0.5000
O3O_2 O -0.04329(18) 0.4371(2) 0.5000
loop_
_geom_bond_atom_site_label_1
_geom_bond_atom_site_label_2
_geom_bond_site_symmetry_1
_geom_bond_site_symmetry_2
Zr1 O1 1_555 1_555
Zr2 O3 1_555 1_555
O1 C1 1_555 1_555
O2 C1 1_555 1_555
O3 Zr1 1_555 1_555
O4 Zr2 1_555 1_555
C1 C2 1_555 1_555
C2 C3 1_555 1_555
C3 H1 1_555 1_555
C4 C3 1_555 1_555
H2 C4 1_555 1_555
C5 C4 1_555 1_555
C6 C5 1_555 1_555
H3 C6 1_555 1_555
C7 C2 1_555 1_555
H4 C7 1_555 1_555
C8 C5 1_555 1_555
C9 C8 1_555 1_555
C10 C9 1_555 1_555
O1E C1E 1_555 1_555
O2E C1E 1_555 1_555
C1E C2E 1_555 1_555
C2E C3E 1_555 1_555
C3E H1E 1_555 1_555
C4E C3E 1_555 1_555
H2E C4E 1_555 1_555
C5E C4E 1_555 1_555
C6E C5E 1_555 1_555
H3E C6E 1_555 1_555
C7E C2E 1_555 1_555
H4E C7E 1_555 1_555
C8E C9 1_555 1_555
C9E C8E 1_555 1_555
C10E C9E 1_555 1_555
O1K C1K 1_555 1_555
O2K C1K 1_555 1_555
C1K C2K 1_555 1_555
C2K C3K 1_555 1_555
C3K H1K 1_555 1_555
C4K C3K 1_555 1_555
H2K C4K 1_555 1_555
C5K C4K 1_555 1_555
C6K C5K 1_555 1_555
H3K C6K 1_555 1_555
C7K C2K 1_555 1_555
H4K C7K 1_555 1_555
C8K C9E 1_555 1_555
C9K C8 1_555 1_555
C10K C9K 1_555 1_555
Zr2B O2 1_555 1_555
O1B Zr1 1_555 1_555
O2B Zr2 1_555 1_555
O3B Zr1 1_555 1_555
O4B Zr2B 1_555 1_555
C1B O1B 1_555 1_555
C2B C1B 1_555 1_555
C3B C2B 1_555 1_555
H1B C3B 1_555 1_555
C4B C3B 1_555 1_555
H2B C4B 1_555 1_555
C5B C4B 1_555 1_555
C6B C5B 1_555 1_555
H3B C6B 1_555 1_555
C7B C2B 1_555 1_555
H4B C7B 1_555 1_555
C8B C5B 1_555 1_555
C9B C8B 1_555 1_555
C10B C9B 1_555 1_555
O1F C1F 1_555 1_555
O2F C1F 1_555 1_555
C1F C2F 1_555 1_555
C2F C3F 1_555 1_555
C3F H1F 1_555 1_555
C4F C3F 1_555 1_555
H2F C4F 1_555 1_555
C5F C4F 1_555 1_555
C6F C5F 1_555 1_555
H3F C6F 1_555 1_555
C7F C2F 1_555 1_555
H4F C7F 1_555 1_555
C8F C9B 1_555 1_555
C9F C8F 1_555 1_555
C10F C9F 1_555 1_555
O1J C1J 1_555 1_555
O2J C1J 1_555 1_555
C1J C2J 1_555 1_555
C2J C3J 1_555 1_555
C3J H1J 1_555 1_555
C4J C3J 1_555 1_555
H2J C4J 1_555 1_555
C5J C4J 1_555 1_555
C6J C5J 1_555 1_555
H3J C6J 1_555 1_555
C7J C2J 1_555 1_555
H4J C7J 1_555 1_555
C8J C9F 1_555 1_555
C9J C8B 1_555 1_555
C10J C9J 1_555 1_555
Zr1A O3C 1_555 1_555
Zr2C O3 1_555 1_555
O3C Zr2 1_555 1_555
O4C Zr2C 1_555 1_555
Zr1I O1K 1_555 1_555
O1M Zr1I 1_555 1_555
O2M C1M 1_555 1_555
O3M Zr1I 1_555 1_555
C1M O1M 1_555 1_555
C2M C1M 1_555 1_555
C3M C2M 1_555 1_555
H1M C3M 1_555 1_555
C4M C3M 1_555 1_555
H2M C4M 1_555 1_555
C5M C4M 1_555 1_555
C6M C5M 1_555 1_555
H3M C6M 1_555 1_555
C7M C2M 1_555 1_555
H4M C7M 1_555 1_555
C8M C5M 1_555 1_555
C9M C8M 1_555 1_555
C10M C9M 1_555 1_555
O1S C1S 1_555 1_555
O2S C1S 1_555 1_555
C1S C2S 1_555 1_555
C2S C3S 1_555 1_555
C3S H1S 1_555 1_555
C4S C3S 1_555 1_555
H2S C4S 1_555 1_555
C5S C4S 1_555 1_555
C6S C5S 1_555 1_555
H3S C6S 1_555 1_555
C7S C2S 1_555 1_555
H4S C7S 1_555 1_555
C8S C9M 1_555 1_555
C9S C8S 1_555 1_555
C10S C9S 1_555 1_555
O1T Zr1 1_555 1_555
O2T C1T 1_555 1_555
C1T O1T 1_555 1_555
C2T C1T 1_555 1_555
C3T C2T 1_555 1_555
H1T C3T 1_555 1_555
C4T C3T 1_555 1_555
H2T C4T 1_555 1_555
C5T C4T 1_555 1_555
C6T C5T 1_555 1_555
H3T C6T 1_555 1_555
C7T C2T 1_555 1_555
H4T C7T 1_555 1_555
C8T C9S 1_555 1_555
C9T C8M 1_555 1_555
C10T C9T 1_555 1_555
O1P C1P 1_555 1_555
O2P C1P 1_555 1_555
C1P C2P 1_555 1_555
C2P C3P 1_555 1_555
C3P H1P 1_555 1_555
C4P C3P 1_555 1_555
H2P C4P 1_555 1_555
C5P C4P 1_555 1_555
C6P C5P 1_555 1_555
H3P C6P 1_555 1_555
C7P C2P 1_555 1_555
H4P C7P 1_555 1_555
C8P C5P 1_555 1_555
C9P C8P 1_555 1_555
C10P C9P 1_555 1_555
O1U C1U 1_555 1_555
O2U C1U 1_555 1_555
C1U C2U 1_555 1_555
C2U C3U 1_555 1_555
C3U H1U 1_555 1_555
C4U C3U 1_555 1_555
H2U C4U 1_555 1_555
C5U C4U 1_555 1_555
C6U C5U 1_555 1_555
H3U C6U 1_555 1_555
C7U C2U 1_555 1_555
H4U C7U 1_555 1_555
C8U C9P 1_555 1_555
C9U C8U 1_555 1_555
C10U C9U 1_555 1_555
O1O Zr1I 1_555 1_555
O2O C1O 1_555 1_555
C1O O1O 1_555 1_555
C2O C1O 1_555 1_555
C3O C2O 1_555 1_555
H1O C3O 1_555 1_555
C4O C3O 1_555 1_555
H2O C4O 1_555 1_555
C5O C4O 1_555 1_555
C6O C5O 1_555 1_555
H3O C6O 1_555 1_555
C7O C2O 1_555 1_555
H4O C7O 1_555 1_555
C8O C9U 1_555 1_555
C9O C8P 1_555 1_555
C10O C9O 1_555 1_555
O3T Zr1 1_555 1_555
O4T Zr2C 1_555 1_555
Zr2A O3B 1_555 1_555
O3V Zr1 1_555 1_555
O4V Zr2A 1_555 1_555
O4A Zr2A 1_555 1_555
O3I Zr1I 1_555 1_555
Zr2K O3M 1_555 1_555
O4N Zr2K 1_555 1_555
Zr2H O2J 1_555 1_555
O4O Zr2H 1_555 1_555
O4W Zr2B 1_555 1_555
O4U Zr2 1_555 1_555
O4K Zr2K 1_555 1_555
O3U Zr2 1_555 1_555
O3W Zr2B 1_555 1_555
O3A Zr2B 1_555 1_555
O3K Zr1I 1_555 1_555
O3O Zr1I 1_555 1_555
O4H Zr2H 1_555 1_555
Zr1A_2 O1U 1_555 1_555
Zr1D O1F 1_555 1_555
Zr1E O1E 1_555 1_555
Zr1H O1J 1_555 1_555
Zr2B_2 O2U 1_555 1_555
Zr2D O2F 1_555 1_555
Zr2F O2P 1_555 1_555
Zr2G O2S 1_555 1_555
Zr2G_2 O2E 1_555 1_555
Zr2H_2 O2M 1_555 1_555
Zr2I O2K 1_555 1_555
Zr2J O3M 1_555 1_555
O1A Zr1A 1_555 1_555
O1C Zr1A 1_555 1_555
O1I Zr1I 1_555 1_555
O1U_2 Zr1A 1_555 1_555
O1V Zr1 1_555 1_555
O1W Zr1A 1_555 1_555
O2A Zr2C 1_555 1_555
O2C Zr2A 1_555 1_555
O2I Zr2K 1_555 1_555
O2L Zr2K 1_555 1_555
O2M_2 Zr2H 1_555 1_555
O2U_2 Zr2B 1_555 1_555
O2V Zr2C 1_555 1_555
O2W Zr2 1_555 1_555
O3H Zr2H 1_555 1_555
O3H_2 Zr2K 1_555 1_555
O3K_2 Zr2H 1_555 1_555
O3L Zr2H 1_555 1_555
O3N Zr2K 1_555 1_555
O3O_2 Zr2H 1_555 1_555
Zr2 O3V 1_555 1_555
C6 C7 1_555 1_555
C5E C8E 1_555 1_555
C6E C7E 1_555 1_555
C5K C8K 1_555 1_555
C6K C7K 1_555 1_555
C8K C9K 1_555 1_555
Zr2B O3B 1_555 1_555
Zr2B O3T 1_555 1_555
O2B C1B 1_555 1_555
C6B C7B 1_555 1_555
C5F C8F 1_555 1_555
C6F C7F 1_555 1_555
C5J C8J 1_555 1_555
C6J C7J 1_555 1_555
C8J C9J 1_555 1_555
Zr1A O3U 1_555 1_555
Zr1A O3W 1_555 1_555
Zr1A O3A 1_555 1_555
Zr2C O3C 1_555 1_555
Zr2C O3T 1_555 1_555
Zr2C O3W 1_555 1_555
C6M C7M 1_555 1_555
O1S Zr1D 1_555 1_555
C5S C8S 1_555 1_555
C6S C7S 1_555 1_555
O2T Zr2A 1_555 1_555
C5T C8T 1_555 1_555
C6T C7T 1_555 1_555
C8T C9T 1_555 1_555
O1P Zr1E 1_555 1_555
C6P C7P 1_555 1_555
C5U C8U 1_555 1_555
C6U C7U 1_555 1_555
O2O Zr2J 1_555 1_555
C5O C8O 1_555 1_555
C6O C7O 1_555 1_555
C8O C9O 1_555 1_555
Zr2A O3V 1_555 1_555
Zr2A O3U 1_555 1_555
Zr2A O3A 1_555 1_555
O3I Zr2I 1_555 1_555
O3I Zr2J 1_555 1_555
Zr2K O3K 1_555 1_555
O3K Zr2H_2 1_555 1_555
O3O Zr2H_2 1_555 1_555
O3O Zr2I 1_555 1_555
Zr1H O3H 1_555 1_555
Zr1H O3L 1_555 1_555
Zr2H_2 O3H_2 1_555 1_555
Zr2J O3N 1_555 1_555

#END
