
#######################################################################
#
#                 Cambridge Crystallographic Data Centre
#                                CCDC 
#
#######################################################################
#
# If this CIF has been generated from an entry in the Cambridge 
# Structural Database, then it will include bibliographic, chemical, 
# crystal, experimental, refinement or atomic coordinate data resulting 
# from the CCDC's data processing and validation procedures.
#
#######################################################################

data_YOZNUY
_chemical_formula_moiety         'C30 H30 Cu10 O24'
_symmetry_cell_setting           cubic
_symmetry_space_group_name_H-M   'F m -3 m'
_symmetry_Int_Tables_number      225
_space_group_name_Hall           '-F 4 2 3'
loop_
_symmetry_equiv_pos_site_id
_symmetry_equiv_pos_as_xyz
1 x,y,z
2 -y,x,z
3 -x,-y,z
4 y,-x,z
5 x,-z,y
6 x,-y,-z
7 x,z,-y
8 z,y,-x
9 -x,y,-z
10 -z,y,x
11 z,x,y
12 y,z,x
13 -y,-z,x
14 z,-x,-y
15 -y,z,-x
16 -z,-x,y
17 -z,x,-y
18 y,-z,-x
19 y,x,-z
20 -y,-x,-z
21 -x,z,y
22 -x,-z,-y
23 z,-y,x
24 -z,-y,-x
25 x,1/2+y,1/2+z
26 -y,1/2+x,1/2+z
27 -x,1/2-y,1/2+z
28 y,1/2-x,1/2+z
29 x,1/2-z,1/2+y
30 x,1/2-y,1/2-z
31 x,1/2+z,1/2-y
32 z,1/2+y,1/2-x
33 -x,1/2+y,1/2-z
34 -z,1/2+y,1/2+x
35 z,1/2+x,1/2+y
36 y,1/2+z,1/2+x
37 -y,1/2-z,1/2+x
38 z,1/2-x,1/2-y
39 -y,1/2+z,1/2-x
40 -z,1/2-x,1/2+y
41 -z,1/2+x,1/2-y
42 y,1/2-z,1/2-x
43 y,1/2+x,1/2-z
44 -y,1/2-x,1/2-z
45 -x,1/2+z,1/2+y
46 -x,1/2-z,1/2-y
47 z,1/2-y,1/2+x
48 -z,1/2-y,1/2-x
49 1/2+x,y,1/2+z
50 1/2-y,x,1/2+z
51 1/2-x,-y,1/2+z
52 1/2+y,-x,1/2+z
53 1/2+x,-z,1/2+y
54 1/2+x,-y,1/2-z
55 1/2+x,z,1/2-y
56 1/2+z,y,1/2-x
57 1/2-x,y,1/2-z
58 1/2-z,y,1/2+x
59 1/2+z,x,1/2+y
60 1/2+y,z,1/2+x
61 1/2-y,-z,1/2+x
62 1/2+z,-x,1/2-y
63 1/2-y,z,1/2-x
64 1/2-z,-x,1/2+y
65 1/2-z,x,1/2-y
66 1/2+y,-z,1/2-x
67 1/2+y,x,1/2-z
68 1/2-y,-x,1/2-z
69 1/2-x,z,1/2+y
70 1/2-x,-z,1/2-y
71 1/2+z,-y,1/2+x
72 1/2-z,-y,1/2-x
73 1/2+x,1/2+y,z
74 1/2-y,1/2+x,z
75 1/2-x,1/2-y,z
76 1/2+y,1/2-x,z
77 1/2+x,1/2-z,y
78 1/2+x,1/2-y,-z
79 1/2+x,1/2+z,-y
80 1/2+z,1/2+y,-x
81 1/2-x,1/2+y,-z
82 1/2-z,1/2+y,x
83 1/2+z,1/2+x,y
84 1/2+y,1/2+z,x
85 1/2-y,1/2-z,x
86 1/2+z,1/2-x,-y
87 1/2-y,1/2+z,-x
88 1/2-z,1/2-x,y
89 1/2-z,1/2+x,-y
90 1/2+y,1/2-z,-x
91 1/2+y,1/2+x,-z
92 1/2-y,1/2-x,-z
93 1/2-x,1/2+z,y
94 1/2-x,1/2-z,-y
95 1/2+z,1/2-y,x
96 1/2-z,1/2-y,-x
97 -x,-y,-z
98 y,-x,-z
99 x,y,-z
100 -y,x,-z
101 -x,z,-y
102 -x,y,z
103 -x,-z,y
104 -z,-y,x
105 x,-y,z
106 z,-y,-x
107 -z,-x,-y
108 -y,-z,-x
109 y,z,-x
110 -z,x,y
111 y,-z,x
112 z,x,-y
113 z,-x,y
114 -y,z,x
115 -y,-x,z
116 y,x,z
117 x,-z,-y
118 x,z,y
119 -z,y,-x
120 z,y,x
121 -x,1/2-y,1/2-z
122 y,1/2-x,1/2-z
123 x,1/2+y,1/2-z
124 -y,1/2+x,1/2-z
125 -x,1/2+z,1/2-y
126 -x,1/2+y,1/2+z
127 -x,1/2-z,1/2+y
128 -z,1/2-y,1/2+x
129 x,1/2-y,1/2+z
130 z,1/2-y,1/2-x
131 -z,1/2-x,1/2-y
132 -y,1/2-z,1/2-x
133 y,1/2+z,1/2-x
134 -z,1/2+x,1/2+y
135 y,1/2-z,1/2+x
136 z,1/2+x,1/2-y
137 z,1/2-x,1/2+y
138 -y,1/2+z,1/2+x
139 -y,1/2-x,1/2+z
140 y,1/2+x,1/2+z
141 x,1/2-z,1/2-y
142 x,1/2+z,1/2+y
143 -z,1/2+y,1/2-x
144 z,1/2+y,1/2+x
145 1/2-x,-y,1/2-z
146 1/2+y,-x,1/2-z
147 1/2+x,y,1/2-z
148 1/2-y,x,1/2-z
149 1/2-x,z,1/2-y
150 1/2-x,y,1/2+z
151 1/2-x,-z,1/2+y
152 1/2-z,-y,1/2+x
153 1/2+x,-y,1/2+z
154 1/2+z,-y,1/2-x
155 1/2-z,-x,1/2-y
156 1/2-y,-z,1/2-x
157 1/2+y,z,1/2-x
158 1/2-z,x,1/2+y
159 1/2+y,-z,1/2+x
160 1/2+z,x,1/2-y
161 1/2+z,-x,1/2+y
162 1/2-y,z,1/2+x
163 1/2-y,-x,1/2+z
164 1/2+y,x,1/2+z
165 1/2+x,-z,1/2-y
166 1/2+x,z,1/2+y
167 1/2-z,y,1/2-x
168 1/2+z,y,1/2+x
169 1/2-x,1/2-y,-z
170 1/2+y,1/2-x,-z
171 1/2+x,1/2+y,-z
172 1/2-y,1/2+x,-z
173 1/2-x,1/2+z,-y
174 1/2-x,1/2+y,z
175 1/2-x,1/2-z,y
176 1/2-z,1/2-y,x
177 1/2+x,1/2-y,z
178 1/2+z,1/2-y,-x
179 1/2-z,1/2-x,-y
180 1/2-y,1/2-z,-x
181 1/2+y,1/2+z,-x
182 1/2-z,1/2+x,y
183 1/2+y,1/2-z,x
184 1/2+z,1/2+x,-y
185 1/2+z,1/2-x,y
186 1/2-y,1/2+z,x
187 1/2-y,1/2-x,z
188 1/2+y,1/2+x,z
189 1/2+x,1/2-z,-y
190 1/2+x,1/2+z,y
191 1/2-z,1/2+y,-x
192 1/2+z,1/2+y,x
_cell_length_a                   26.3758(13)
_cell_length_b                   26.3758(13)
_cell_length_c                   26.3758(13)
_cell_angle_alpha                90
_cell_angle_beta                 90
_cell_angle_gamma                90
_cell_volume                     18349.2
loop_
_atom_site_label
_atom_site_type_symbol
_atom_site_fract_x
_atom_site_fract_y
_atom_site_fract_z
_atom_site_U_iso_or_equiv
_atom_site_thermal_displace_type
Cu1 Cu 0.284665(17) 0.284665(17) 0.0000 0.0189 Uani
O1 O 0.24327(9) 0.31677(10) 0.05243(9) 0.0347 Uani
C1 C 0.20302(13) 0.29698(13) 0.06887(17) 0.0265 Uani
C2 C 0.17748(13) 0.32252(13) 0.11295(16) 0.0260 Uani
C3 C 0.13450(13) 0.30106(17) 0.13450(13) 0.0276 Uani
H1 H 0.1201 0.2723 0.1201 0.0330 Uiso
O2 O 0.34373(14) 0.34373(14) 0.0000 0.0533 Uani
C4 C 0.3410(5) 0.3803(4) 0.0422(5) 0.0760 Uani
H2 H 0.3748 0.3920 0.0505 0.0910 Uiso
H3 H 0.3270 0.3637 0.0719 0.0910 Uiso
O1KA O 0.05243(9) 0.25673(9) 0.18323(10) 0.0347 Uani
C1KA C 0.06887(17) 0.29698(13) 0.20302(13) 0.0265 Uani
C2KA C 0.11295(16) 0.32252(13) 0.17748(13) 0.0260 Uani
C3KA C 0.13450(13) 0.36550(13) 0.19894(17) 0.0276 Uani
H1KA H 0.1201 0.3799 0.2277 0.0330 Uiso
O1FC O 0.18323(10) 0.44757(9) 0.24327(9) 0.0347 Uani
C1FC C 0.20302(13) 0.43113(17) 0.20302(13) 0.0265 Uani
C2FC C 0.17748(13) 0.38705(16) 0.17748(13) 0.0260 Uani
C3FC C 0.19894(17) 0.36550(13) 0.13450(13) 0.0276 Uani
H1FC H 0.2277 0.3799 0.1201 0.0330 Uiso
O1OD O 0.05243(9) 0.31677(10) 0.24327(9) 0.0347 Uani
O1JE O 0.24327(9) 0.44757(9) 0.18323(10) 0.0347 Uani
O1DG O 0.18323(10) 0.25673(9) 0.05243(9) 0.0347 Uani
C4R C 0.3803(4) 0.3410(5) -0.0422(5) 0.0760 Uani
H2R H 0.3920 0.3748 -0.0505 0.0910 Uiso
H3R H 0.3637 0.3270 -0.0719 0.0910 Uiso
C4TC C 0.3410(5) 0.3803(4) -0.0422(5) 0.0760 Uani
H2TC H 0.3748 0.3920 -0.0505 0.0910 Uiso
H3TC H 0.3270 0.3637 -0.0719 0.0910 Uiso
C4KD C 0.3803(4) 0.3410(5) 0.0422(5) 0.0760 Uani
H2KD H 0.3920 0.3748 0.0505 0.0910 Uiso
H3KD H 0.3637 0.3270 0.0719 0.0910 Uiso
Cu1G Cu 0.0000 0.284665(17) -0.284665(17) 0.0189 Uani
O1G O 0.05243(9) 0.31677(10) -0.24327(9) 0.0347 Uani
C1G C 0.06887(17) 0.29698(13) -0.20302(13) 0.0265 Uani
C2G C 0.11295(16) 0.32252(13) -0.17748(13) 0.0260 Uani
C3G C 0.13450(13) 0.30106(17) -0.13450(13) 0.0276 Uani
H1G H 0.1201 0.2723 -0.1201 0.0330 Uiso
O2G O 0.0000 0.34373(14) -0.34373(14) 0.0533 Uani
C4G C 0.0422(5) 0.3803(4) -0.3410(5) 0.0760 Uani
H2G H 0.0505 0.3920 -0.3748 0.0910 Uiso
H3G H 0.0719 0.3637 -0.3270 0.0910 Uiso
O1MC O 0.18323(10) 0.25673(9) -0.05243(9) 0.0347 Uani
C1MC C 0.20302(13) 0.29698(13) -0.06887(17) 0.0265 Uani
C2MC C 0.17748(13) 0.32252(13) -0.11295(16) 0.0260 Uani
C3MC C 0.19894(17) 0.36550(13) -0.13450(13) 0.0276 Uani
H1MC H 0.2277 0.3799 -0.1201 0.0330 Uiso
O1BA O 0.24327(9) 0.44757(9) -0.18323(10) 0.0347 Uani
C1BA C 0.20302(13) 0.43113(17) -0.20302(13) 0.0265 Uani
C2BA C 0.17748(13) 0.38705(16) -0.17748(13) 0.0260 Uani
C3BA C 0.13450(13) 0.36550(13) -0.19894(17) 0.0276 Uani
H1BA H 0.1201 0.3799 -0.2277 0.0330 Uiso
O1TC O 0.24327(9) 0.31677(10) -0.05243(9) 0.0347 Uani
O1WF O 0.18323(10) 0.44757(9) -0.24327(9) 0.0347 Uani
O1FE O 0.05243(9) 0.25673(9) -0.18323(10) 0.0347 Uani
C4P C -0.0422(5) 0.3410(5) -0.3803(4) 0.0760 Uani
H2P H -0.0505 0.3748 -0.3920 0.0910 Uiso
H3P H -0.0719 0.3270 -0.3637 0.0910 Uiso
C4ND C -0.0422(5) 0.3803(4) -0.3410(5) 0.0760 Uani
H2ND H -0.0505 0.3920 -0.3748 0.0910 Uiso
H3ND H -0.0719 0.3637 -0.3270 0.0910 Uiso
C4GD C 0.0422(5) 0.3410(5) -0.3803(4) 0.0760 Uani
H2GD H 0.0505 0.3748 -0.3920 0.0910 Uiso
H3GD H 0.0719 0.3270 -0.3637 0.0910 Uiso
Cu1I Cu -0.0000 0.284665(17) 0.284665(17) 0.0189 Uani
O2I O -0.0000 0.34373(14) 0.34373(14) 0.0533 Uani
C4I C -0.0422(5) 0.3803(4) 0.3410(5) 0.0760 Uani
H2I H -0.0505 0.3920 0.3748 0.0910 Uiso
H3I H -0.0719 0.3637 0.3270 0.0910 Uiso
C4J C 0.0422(5) 0.3410(5) 0.3803(4) 0.0760 Uani
H2J H 0.0505 0.3748 0.3920 0.0910 Uiso
H3J H 0.0719 0.3270 0.3637 0.0910 Uiso
C4OD C 0.0422(5) 0.3803(4) 0.3410(5) 0.0760 Uani
H2OD H 0.0505 0.3920 0.3748 0.0910 Uiso
H3OD H 0.0719 0.3637 0.3270 0.0910 Uiso
C4ED C -0.0422(5) 0.3410(5) 0.3803(4) 0.0760 Uani
H2ED H -0.0505 0.3748 0.3920 0.0910 Uiso
H3ED H -0.0719 0.3270 0.3637 0.0910 Uiso
Cu1BA Cu 0.284665(17) 0.5000 -0.215335(17) 0.0189 Uani
Cu1DA Cu 0.284665(17) 0.5000 0.215335(17) 0.0189 Uani
Cu1KA Cu 0.0000 0.215335(17) 0.215335(17) 0.0189 Uani
Cu1MA Cu 0.0000 0.215335(17) -0.215335(17) 0.0189 Uani
Cu1VB Cu 0.215335(17) 0.215335(17) 0.0000 0.0189 Uani
Cu1FC Cu 0.215335(17) 0.5000 0.284665(17) 0.0189 Uani
Cu1HC Cu 0.215335(17) 0.5000 -0.284665(17) 0.0189 Uani
O1I O -0.05243(9) 0.31677(10) 0.24327(9) 0.0347 Uani
O1J O 0.05243(9) 0.24327(9) 0.31677(10) 0.0347 Uani
O1P O -0.05243(9) 0.24327(9) -0.31677(10) 0.0347 Uani
O1R O 0.31677(10) 0.24327(9) -0.05243(9) 0.0347 Uani
O1ED O -0.05243(9) 0.24327(9) 0.31677(10) 0.0347 Uani
O1GD O 0.05243(9) 0.24327(9) -0.31677(10) 0.0347 Uani
O1KD O 0.31677(10) 0.24327(9) 0.05243(9) 0.0347 Uani
O1ND O -0.05243(9) 0.31677(10) -0.24327(9) 0.0347 Uani
O3 O 0.2176(19) 0.2176(19) 0.2176(19) 0.1500 Uiso
loop_
_atom_site_aniso_label
_atom_site_aniso_U_11
_atom_site_aniso_U_22
_atom_site_aniso_U_33
_atom_site_aniso_U_23
_atom_site_aniso_U_13
_atom_site_aniso_U_12
Cu1 0.0204(3) 0.0204(3) 0.0158(3) 0.000 0.000 -0.0047(2)
O1 0.0342(13) 0.0370(13) 0.0330(12) -0.0113(10) 0.0135(10) -0.0077(10)
C1 0.0289(12) 0.0289(12) 0.0217(18) -0.0031(11) 0.0031(11) -0.0005(16)
C2 0.0274(12) 0.0274(12) 0.0233(18) -0.0063(11) 0.0063(11) -0.0053(15)
C3 0.0276(12) 0.0276(19) 0.0276(12) -0.0072(12) 0.0044(16) -0.0072(12)
O2 0.051(2) 0.051(2) 0.058(4) 0.000 0.000 -0.031(3)
C4 0.095(8) 0.052(6) 0.081(8) -0.017(5) -0.020(7) -0.024(6)
O1KA 0.033 0.0342 0.037 -0.0077 0.0113 -0.0135
C1KA 0.0217 0.0289 0.0289 -0.0005 0.0031 -0.0031
C2KA 0.0233 0.0274 0.0274 -0.0053 0.0063 -0.0063
C3KA 0.0276 0.0276 0.0276 -0.0072 0.0072 -0.0044
O1FC 0.037 0.033 0.0342 -0.0135 0.0077 -0.0113
C1FC 0.0289 0.0217 0.0289 -0.0031 0.0005 -0.0031
C2FC 0.0274 0.0233 0.0274 -0.0063 0.0053 -0.0063
C3FC 0.0276 0.0276 0.0276 -0.0044 0.0072 -0.0072
O1OD 0.033 0.037 0.0342 -0.0077 0.0135 -0.0113
O1JE 0.0342 0.033 0.037 -0.0113 0.0077 -0.0135
O1DG 0.037 0.0342 0.033 -0.0135 0.0113 -0.0077
C4R 0.052 0.095 0.081 0.02 0.017 -0.024
C4TC 0.095 0.052 0.081 0.017 0.02 -0.024
C4KD 0.052 0.095 0.081 -0.02 -0.017 -0.024
Cu1G 0.0158 0.0204 0.0204 0.0047 0 0
O1G 0.033 0.037 0.0342 0.0077 -0.0135 -0.0113
C1G 0.0217 0.0289 0.0289 0.0005 -0.0031 -0.0031
C2G 0.0233 0.0274 0.0274 0.0053 -0.0063 -0.0063
C3G 0.0276 0.0276 0.0276 0.0072 -0.0044 -0.0072
O2G 0.058 0.051 0.051 0.031 0 0
C4G 0.081 0.052 0.095 0.024 0.02 -0.017
O1MC 0.037 0.0342 0.033 0.0135 -0.0113 -0.0077
C1MC 0.0289 0.0289 0.0217 0.0031 -0.0031 -0.0005
C2MC 0.0274 0.0274 0.0233 0.0063 -0.0063 -0.0053
C3MC 0.0276 0.0276 0.0276 0.0044 -0.0072 -0.0072
O1BA 0.0342 0.033 0.037 0.0113 -0.0077 -0.0135
C1BA 0.0289 0.0217 0.0289 0.0031 -0.0005 -0.0031
C2BA 0.0274 0.0233 0.0274 0.0063 -0.0053 -0.0063
C3BA 0.0276 0.0276 0.0276 0.0072 -0.0072 -0.0044
O1TC 0.0342 0.037 0.033 0.0113 -0.0135 -0.0077
O1WF 0.037 0.033 0.0342 0.0135 -0.0077 -0.0113
O1FE 0.033 0.0342 0.037 0.0077 -0.0113 -0.0135
C4P 0.081 0.095 0.052 0.024 -0.017 0.02
C4ND 0.081 0.052 0.095 0.024 -0.02 0.017
C4GD 0.081 0.095 0.052 0.024 0.017 -0.02
Cu1I 0.0158 0.0204 0.0204 -0.0047 0 0
O2I 0.058 0.051 0.051 -0.031 0 0
C4I 0.081 0.052 0.095 -0.024 0.02 0.017
C4J 0.081 0.095 0.052 -0.024 -0.017 -0.02
C4OD 0.081 0.052 0.095 -0.024 -0.02 -0.017
C4ED 0.081 0.095 0.052 -0.024 0.017 0.02
Cu1BA 0.0204 0.0158 0.0204 0 -0.0047 0
Cu1DA 0.0204 0.0158 0.0204 0 0.0047 0
Cu1KA 0.0158 0.0204 0.0204 -0.0047 0 0
Cu1MA 0.0158 0.0204 0.0204 0.0047 0 0
Cu1VB 0.0204 0.0204 0.0158 0 0 -0.0047
Cu1FC 0.0204 0.0158 0.0204 0 0.0047 0
Cu1HC 0.0204 0.0158 0.0204 0 -0.0047 0
O1I 0.033 0.037 0.0342 -0.0077 -0.0135 0.0113
O1J 0.033 0.0342 0.037 -0.0077 -0.0113 0.0135
O1P 0.033 0.0342 0.037 0.0077 -0.0113 -0.0135
O1R 0.037 0.0342 0.033 -0.0135 0.0113 -0.0077
O1ED 0.033 0.0342 0.037 -0.0077 0.0113 -0.0135
O1GD 0.033 0.0342 0.037 0.0077 0.0113 0.0135
O1KD 0.037 0.0342 0.033 0.0135 -0.0113 -0.0077
O1ND 0.033 0.037 0.0342 0.0077 0.0135 0.0113
loop_
_geom_bond_atom_site_label_1
_geom_bond_atom_site_label_2
_geom_bond_site_symmetry_1
_geom_bond_site_symmetry_2
Cu1 O1 1_555 1_555
O1 C1 1_555 1_555
C1 C2 1_555 1_555
C2 C3 1_555 1_555
C3 H1 1_555 1_555
O2 Cu1 1_555 1_555
C4 O2 1_555 1_555
H2 C4 1_555 1_555
H3 C4 1_555 1_555
O1KA C1KA 1_555 1_555
C1KA C2KA 1_555 1_555
C2KA C3 1_555 1_555
C3KA C2KA 1_555 1_555
H1KA C3KA 1_555 1_555
O1FC C1FC 1_555 1_555
C1FC C2FC 1_555 1_555
C2FC C3KA 1_555 1_555
C3FC C2 1_555 1_555
H1FC C3FC 1_555 1_555
O1OD C1KA 1_555 1_555
O1JE C1FC 1_555 1_555
O1DG C1 1_555 1_555
C4R O2 1_555 1_555
H2R C4R 1_555 1_555
H3R C4R 1_555 1_555
C4TC O2 1_555 1_555
H2TC C4TC 1_555 1_555
H3TC C4TC 1_555 1_555
C4KD O2 1_555 1_555
H2KD C4KD 1_555 1_555
H3KD C4KD 1_555 1_555
Cu1G O1G 1_555 1_555
O1G C1G 1_555 1_555
C1G C2G 1_555 1_555
C2G C3G 1_555 1_555
C3G H1G 1_555 1_555
O2G Cu1G 1_555 1_555
C4G O2G 1_555 1_555
H2G C4G 1_555 1_555
H3G C4G 1_555 1_555
O1MC C1MC 1_555 1_555
C1MC C2MC 1_555 1_555
C2MC C3G 1_555 1_555
C3MC C2MC 1_555 1_555
H1MC C3MC 1_555 1_555
O1BA C1BA 1_555 1_555
C1BA C2BA 1_555 1_555
C2BA C3MC 1_555 1_555
C3BA C2G 1_555 1_555
H1BA C3BA 1_555 1_555
O1TC Cu1 1_555 1_555
O1WF C1BA 1_555 1_555
O1FE C1G 1_555 1_555
C4P O2G 1_555 1_555
H2P C4P 1_555 1_555
H3P C4P 1_555 1_555
C4ND O2G 1_555 1_555
H2ND C4ND 1_555 1_555
H3ND C4ND 1_555 1_555
C4GD O2G 1_555 1_555
H2GD C4GD 1_555 1_555
H3GD C4GD 1_555 1_555
Cu1I O1OD 1_555 1_555
O2I Cu1I 1_555 1_555
C4I O2I 1_555 1_555
H2I C4I 1_555 1_555
H3I C4I 1_555 1_555
C4J O2I 1_555 1_555
H2J C4J 1_555 1_555
H3J C4J 1_555 1_555
C4OD O2I 1_555 1_555
H2OD C4OD 1_555 1_555
H3OD C4OD 1_555 1_555
C4ED O2I 1_555 1_555
H2ED C4ED 1_555 1_555
H3ED C4ED 1_555 1_555
Cu1BA O1BA 1_555 1_555
Cu1DA O1JE 1_555 1_555
Cu1KA O1KA 1_555 1_555
Cu1MA Cu1G 1_555 1_555
Cu1VB Cu1 1_555 1_555
Cu1FC O1FC 1_555 1_555
Cu1HC O1WF 1_555 1_555
O1I Cu1I 1_555 1_555
O1J Cu1I 1_555 1_555
O1P Cu1G 1_555 1_555
O1R Cu1 1_555 1_555
O1ED Cu1I 1_555 1_555
O1GD Cu1G 1_555 1_555
O1KD Cu1 1_555 1_555
O1ND Cu1G 1_555 1_555
C4 C4KD 1_555 1_555
C2FC C3FC 1_555 1_555
O1DG Cu1VB 1_555 1_555
C4R C4TC 1_555 1_555
C4G C4GD 1_555 1_555
O1MC Cu1VB 1_555 1_555
C1MC O1TC 1_555 1_555
C2BA C3BA 1_555 1_555
O1FE Cu1MA 1_555 1_555
C4P C4ND 1_555 1_555
Cu1I Cu1KA 1_555 1_555
C4I C4ED 1_555 1_555
C4J C4OD 1_555 1_555
Cu1BA Cu1HC 1_555 1_555
Cu1DA Cu1FC 1_555 1_555

#END
