
#######################################################################
#
#                 Cambridge Crystallographic Data Centre
#                                CCDC 
#
#######################################################################
#
# If this CIF has been generated from an entry in the Cambridge 
# Structural Database, then it will include bibliographic, chemical, 
# crystal, experimental, refinement or atomic coordinate data resulting 
# from the CCDC's data processing and validation procedures.
#
#######################################################################

data_YOZPAG
_chemical_formula_moiety         'C18 H12 Cu10 O23'
_symmetry_cell_setting           cubic
_symmetry_space_group_name_H-M   'F m -3 m'
_symmetry_Int_Tables_number      225
_space_group_name_Hall           '-F 4 2 3'
loop_
_symmetry_equiv_pos_site_id
_symmetry_equiv_pos_as_xyz
1 x,y,z
2 -y,x,z
3 -x,-y,z
4 y,-x,z
5 x,-z,y
6 x,-y,-z
7 x,z,-y
8 z,y,-x
9 -x,y,-z
10 -z,y,x
11 z,x,y
12 y,z,x
13 -y,-z,x
14 z,-x,-y
15 -y,z,-x
16 -z,-x,y
17 -z,x,-y
18 y,-z,-x
19 y,x,-z
20 -y,-x,-z
21 -x,z,y
22 -x,-z,-y
23 z,-y,x
24 -z,-y,-x
25 x,1/2+y,1/2+z
26 -y,1/2+x,1/2+z
27 -x,1/2-y,1/2+z
28 y,1/2-x,1/2+z
29 x,1/2-z,1/2+y
30 x,1/2-y,1/2-z
31 x,1/2+z,1/2-y
32 z,1/2+y,1/2-x
33 -x,1/2+y,1/2-z
34 -z,1/2+y,1/2+x
35 z,1/2+x,1/2+y
36 y,1/2+z,1/2+x
37 -y,1/2-z,1/2+x
38 z,1/2-x,1/2-y
39 -y,1/2+z,1/2-x
40 -z,1/2-x,1/2+y
41 -z,1/2+x,1/2-y
42 y,1/2-z,1/2-x
43 y,1/2+x,1/2-z
44 -y,1/2-x,1/2-z
45 -x,1/2+z,1/2+y
46 -x,1/2-z,1/2-y
47 z,1/2-y,1/2+x
48 -z,1/2-y,1/2-x
49 1/2+x,y,1/2+z
50 1/2-y,x,1/2+z
51 1/2-x,-y,1/2+z
52 1/2+y,-x,1/2+z
53 1/2+x,-z,1/2+y
54 1/2+x,-y,1/2-z
55 1/2+x,z,1/2-y
56 1/2+z,y,1/2-x
57 1/2-x,y,1/2-z
58 1/2-z,y,1/2+x
59 1/2+z,x,1/2+y
60 1/2+y,z,1/2+x
61 1/2-y,-z,1/2+x
62 1/2+z,-x,1/2-y
63 1/2-y,z,1/2-x
64 1/2-z,-x,1/2+y
65 1/2-z,x,1/2-y
66 1/2+y,-z,1/2-x
67 1/2+y,x,1/2-z
68 1/2-y,-x,1/2-z
69 1/2-x,z,1/2+y
70 1/2-x,-z,1/2-y
71 1/2+z,-y,1/2+x
72 1/2-z,-y,1/2-x
73 1/2+x,1/2+y,z
74 1/2-y,1/2+x,z
75 1/2-x,1/2-y,z
76 1/2+y,1/2-x,z
77 1/2+x,1/2-z,y
78 1/2+x,1/2-y,-z
79 1/2+x,1/2+z,-y
80 1/2+z,1/2+y,-x
81 1/2-x,1/2+y,-z
82 1/2-z,1/2+y,x
83 1/2+z,1/2+x,y
84 1/2+y,1/2+z,x
85 1/2-y,1/2-z,x
86 1/2+z,1/2-x,-y
87 1/2-y,1/2+z,-x
88 1/2-z,1/2-x,y
89 1/2-z,1/2+x,-y
90 1/2+y,1/2-z,-x
91 1/2+y,1/2+x,-z
92 1/2-y,1/2-x,-z
93 1/2-x,1/2+z,y
94 1/2-x,1/2-z,-y
95 1/2+z,1/2-y,x
96 1/2-z,1/2-y,-x
97 -x,-y,-z
98 y,-x,-z
99 x,y,-z
100 -y,x,-z
101 -x,z,-y
102 -x,y,z
103 -x,-z,y
104 -z,-y,x
105 x,-y,z
106 z,-y,-x
107 -z,-x,-y
108 -y,-z,-x
109 y,z,-x
110 -z,x,y
111 y,-z,x
112 z,x,-y
113 z,-x,y
114 -y,z,x
115 -y,-x,z
116 y,x,z
117 x,-z,-y
118 x,z,y
119 -z,y,-x
120 z,y,x
121 -x,1/2-y,1/2-z
122 y,1/2-x,1/2-z
123 x,1/2+y,1/2-z
124 -y,1/2+x,1/2-z
125 -x,1/2+z,1/2-y
126 -x,1/2+y,1/2+z
127 -x,1/2-z,1/2+y
128 -z,1/2-y,1/2+x
129 x,1/2-y,1/2+z
130 z,1/2-y,1/2-x
131 -z,1/2-x,1/2-y
132 -y,1/2-z,1/2-x
133 y,1/2+z,1/2-x
134 -z,1/2+x,1/2+y
135 y,1/2-z,1/2+x
136 z,1/2+x,1/2-y
137 z,1/2-x,1/2+y
138 -y,1/2+z,1/2+x
139 -y,1/2-x,1/2+z
140 y,1/2+x,1/2+z
141 x,1/2-z,1/2-y
142 x,1/2+z,1/2+y
143 -z,1/2+y,1/2-x
144 z,1/2+y,1/2+x
145 1/2-x,-y,1/2-z
146 1/2+y,-x,1/2-z
147 1/2+x,y,1/2-z
148 1/2-y,x,1/2-z
149 1/2-x,z,1/2-y
150 1/2-x,y,1/2+z
151 1/2-x,-z,1/2+y
152 1/2-z,-y,1/2+x
153 1/2+x,-y,1/2+z
154 1/2+z,-y,1/2-x
155 1/2-z,-x,1/2-y
156 1/2-y,-z,1/2-x
157 1/2+y,z,1/2-x
158 1/2-z,x,1/2+y
159 1/2+y,-z,1/2+x
160 1/2+z,x,1/2-y
161 1/2+z,-x,1/2+y
162 1/2-y,z,1/2+x
163 1/2-y,-x,1/2+z
164 1/2+y,x,1/2+z
165 1/2+x,-z,1/2-y
166 1/2+x,z,1/2+y
167 1/2-z,y,1/2-x
168 1/2+z,y,1/2+x
169 1/2-x,1/2-y,-z
170 1/2+y,1/2-x,-z
171 1/2+x,1/2+y,-z
172 1/2-y,1/2+x,-z
173 1/2-x,1/2+z,-y
174 1/2-x,1/2+y,z
175 1/2-x,1/2-z,y
176 1/2-z,1/2-y,x
177 1/2+x,1/2-y,z
178 1/2+z,1/2-y,-x
179 1/2-z,1/2-x,-y
180 1/2-y,1/2-z,-x
181 1/2+y,1/2+z,-x
182 1/2-z,1/2+x,y
183 1/2+y,1/2-z,x
184 1/2+z,1/2+x,-y
185 1/2+z,1/2-x,y
186 1/2-y,1/2+z,x
187 1/2-y,1/2-x,z
188 1/2+y,1/2+x,z
189 1/2+x,1/2-z,-y
190 1/2+x,1/2+z,y
191 1/2-z,1/2+y,-x
192 1/2+z,1/2+y,x
_cell_length_a                   26.3011(5)
_cell_length_b                   26.3011(5)
_cell_length_c                   26.3011(5)
_cell_angle_alpha                90
_cell_angle_beta                 90
_cell_angle_gamma                90
_cell_volume                     18193.7
loop_
_atom_site_label
_atom_site_type_symbol
_atom_site_fract_x
_atom_site_fract_y
_atom_site_fract_z
_atom_site_U_iso_or_equiv
_atom_site_thermal_displace_type
Cu1 Cu 0.284420(17) 0.284420(17) 0.0000 0.0315 Uani
O1 O 0.24339(8) 0.31669(9) 0.05234(9) 0.0455 Uani
C1 C 0.17845(12) 0.32155(12) 0.11370(15) 0.0378 Uani
C2 C 0.20365(13) 0.29635(13) 0.06910(16) 0.0379 Uani
C3 C 0.13519(12) 0.30019(17) 0.13519(12) 0.0396 Uani
H1 H 0.1206 0.2715 0.1206 0.0470 Uiso
O2 O 0.3472(4) 0.3472(4) 0.0000 0.0500 Uiso
H2 H 0.3583 0.3583 -0.0270 0.0750 Uiso
O1KA O 0.05234(9) 0.25661(8) 0.18331(9) 0.0455 Uani
C1KA C 0.11370(15) 0.32155(12) 0.17845(12) 0.0378 Uani
C2KA C 0.06910(16) 0.29635(13) 0.20365(13) 0.0379 Uani
C3KA C 0.13519(12) 0.36481(12) 0.19981(17) 0.0396 Uani
H1KA H 0.1206 0.3794 0.2285 0.0470 Uiso
O1FC O 0.18331(9) 0.44766(9) 0.24339(8) 0.0455 Uani
C1FC C 0.17845(12) 0.38630(15) 0.17845(12) 0.0378 Uani
C2FC C 0.20365(13) 0.43090(16) 0.20365(13) 0.0379 Uani
C3FC C 0.19981(17) 0.36481(12) 0.13519(12) 0.0396 Uani
H1FC H 0.2285 0.3794 0.1206 0.0470 Uiso
O1OD O 0.05234(9) 0.31669(9) 0.24339(8) 0.0455 Uani
O1JE O 0.24339(8) 0.44766(9) 0.18331(9) 0.0455 Uani
O1DG O 0.18331(9) 0.25661(8) 0.05234(9) 0.0455 Uani
H2R H 0.3583 0.3583 0.0270 0.0750 Uiso
Cu1G Cu 0.0000 0.284420(17) -0.284420(17) 0.0315 Uani
O1G O 0.05234(9) 0.31669(9) -0.24339(8) 0.0455 Uani
C1G C 0.11370(15) 0.32155(12) -0.17845(12) 0.0378 Uani
C2G C 0.06910(16) 0.29635(13) -0.20365(13) 0.0379 Uani
C3G C 0.13519(12) 0.30019(17) -0.13519(12) 0.0396 Uani
H1G H 0.1206 0.2715 -0.1206 0.0470 Uiso
O2G O 0.0000 0.3472(4) -0.3472(4) 0.0500 Uiso
H2G H -0.0270 0.3583 -0.3583 0.0750 Uiso
O1MC O 0.18331(9) 0.25661(8) -0.05234(9) 0.0455 Uani
C1MC C 0.17845(12) 0.32155(12) -0.11370(15) 0.0378 Uani
C2MC C 0.20365(13) 0.29635(13) -0.06910(16) 0.0379 Uani
C3MC C 0.19981(17) 0.36481(12) -0.13519(12) 0.0396 Uani
H1MC H 0.2285 0.3794 -0.1206 0.0470 Uiso
O1BA O 0.24339(8) 0.44766(9) -0.18331(9) 0.0455 Uani
C1BA C 0.17845(12) 0.38630(15) -0.17845(12) 0.0378 Uani
C2BA C 0.20365(13) 0.43090(16) -0.20365(13) 0.0379 Uani
C3BA C 0.13519(12) 0.36481(12) -0.19981(17) 0.0396 Uani
H1BA H 0.1206 0.3794 -0.2285 0.0470 Uiso
O1TC O 0.24339(8) 0.31669(9) -0.05234(9) 0.0455 Uani
O1WF O 0.18331(9) 0.44766(9) -0.24339(8) 0.0455 Uani
O1FE O 0.05234(9) 0.25661(8) -0.18331(9) 0.0455 Uani
H2P H 0.0270 0.3583 -0.3583 0.0750 Uiso
Cu1I Cu -0.0000 0.284420(17) 0.284420(17) 0.0315 Uani
O2I O 0.0000 0.3472(4) 0.3472(4) 0.0500 Uiso
H2I H 0.0270 0.3583 0.3583 0.0750 Uiso
H2J H -0.0270 0.3583 0.3583 0.0750 Uiso
Cu1BA Cu 0.284420(17) 0.5000 -0.215580(17) 0.0315 Uani
Cu1DA Cu 0.284420(17) 0.5000 0.215580(17) 0.0315 Uani
Cu1KA Cu -0.0000 0.215580(17) 0.215580(17) 0.0315 Uani
Cu1MA Cu 0.0000 0.215580(17) -0.215580(17) 0.0315 Uani
Cu1VB Cu 0.215580(17) 0.215580(17) 0.0000 0.0315 Uani
Cu1FC Cu 0.215580(17) 0.5000 0.284420(17) 0.0315 Uani
Cu1HC Cu 0.215580(17) 0.5000 -0.284420(17) 0.0315 Uani
O1I O -0.05234(9) 0.31669(9) 0.24339(8) 0.0455 Uani
O1J O 0.05234(9) 0.24339(8) 0.31669(9) 0.0455 Uani
O1P O -0.05234(9) 0.24339(8) -0.31669(9) 0.0455 Uani
O1R O 0.31669(9) 0.24339(8) -0.05234(9) 0.0455 Uani
O1ED O -0.05234(9) 0.24339(8) 0.31669(9) 0.0455 Uani
O1GD O 0.05234(9) 0.24339(8) -0.31669(9) 0.0455 Uani
O1KD O 0.31669(9) 0.24339(8) 0.05234(9) 0.0455 Uani
O1ND O -0.05234(9) 0.31669(9) -0.24339(8) 0.0455 Uani
loop_
_atom_site_aniso_label
_atom_site_aniso_U_11
_atom_site_aniso_U_22
_atom_site_aniso_U_33
_atom_site_aniso_U_23
_atom_site_aniso_U_13
_atom_site_aniso_U_12
Cu1 0.0346(3) 0.0346(3) 0.0253(4) 0.000 0.000 -0.0078(3)
O1 0.0471(13) 0.0473(12) 0.0420(12) -0.0105(10) 0.0123(9) -0.0119(10)
C1 0.0396(13) 0.0396(13) 0.0341(19) -0.0043(12) 0.0043(12) -0.0032(16)
C2 0.0425(13) 0.0425(13) 0.0287(18) -0.0031(12) 0.0031(12) -0.0035(17)
C3 0.0384(13) 0.042(2) 0.0384(13) -0.0073(12) -0.0004(16) -0.0073(12)
O1KA 0.042 0.0471 0.0473 -0.0119 0.0105 -0.0123
C1KA 0.0341 0.0396 0.0396 -0.0032 0.0043 -0.0043
C2KA 0.0287 0.0425 0.0425 -0.0035 0.0031 -0.0031
C3KA 0.0384 0.0384 0.042 -0.0073 0.0073 0.0004
O1FC 0.0473 0.042 0.0471 -0.0123 0.0119 -0.0105
C1FC 0.0396 0.0341 0.0396 -0.0043 0.0032 -0.0043
C2FC 0.0425 0.0287 0.0425 -0.0031 0.0035 -0.0031
C3FC 0.042 0.0384 0.0384 0.0004 0.0073 -0.0073
O1OD 0.042 0.0473 0.0471 -0.0119 0.0123 -0.0105
O1JE 0.0471 0.042 0.0473 -0.0105 0.0119 -0.0123
O1DG 0.0473 0.0471 0.042 -0.0123 0.0105 -0.0119
Cu1G 0.0253 0.0346 0.0346 0.0078 0 0
O1G 0.042 0.0473 0.0471 0.0119 -0.0123 -0.0105
C1G 0.0341 0.0396 0.0396 0.0032 -0.0043 -0.0043
C2G 0.0287 0.0425 0.0425 0.0035 -0.0031 -0.0031
C3G 0.0384 0.042 0.0384 0.0073 0.0004 -0.0073
O1MC 0.0473 0.0471 0.042 0.0123 -0.0105 -0.0119
C1MC 0.0396 0.0396 0.0341 0.0043 -0.0043 -0.0032
C2MC 0.0425 0.0425 0.0287 0.0031 -0.0031 -0.0035
C3MC 0.042 0.0384 0.0384 -0.0004 -0.0073 -0.0073
O1BA 0.0471 0.042 0.0473 0.0105 -0.0119 -0.0123
C1BA 0.0396 0.0341 0.0396 0.0043 -0.0032 -0.0043
C2BA 0.0425 0.0287 0.0425 0.0031 -0.0035 -0.0031
C3BA 0.0384 0.0384 0.042 0.0073 -0.0073 0.0004
O1TC 0.0471 0.0473 0.042 0.0105 -0.0123 -0.0119
O1WF 0.0473 0.042 0.0471 0.0123 -0.0119 -0.0105
O1FE 0.042 0.0471 0.0473 0.0119 -0.0105 -0.0123
Cu1I 0.0253 0.0346 0.0346 -0.0078 0 0
Cu1BA 0.0346 0.0253 0.0346 0 -0.0078 0
Cu1DA 0.0346 0.0253 0.0346 0 0.0078 0
Cu1KA 0.0253 0.0346 0.0346 -0.0078 0 0
Cu1MA 0.0253 0.0346 0.0346 0.0078 0 0
Cu1VB 0.0346 0.0346 0.0253 0 0 -0.0078
Cu1FC 0.0346 0.0253 0.0346 0 0.0078 0
Cu1HC 0.0346 0.0253 0.0346 0 -0.0078 0
O1I 0.042 0.0473 0.0471 -0.0119 -0.0123 0.0105
O1J 0.042 0.0471 0.0473 -0.0119 -0.0105 0.0123
O1P 0.042 0.0471 0.0473 0.0119 -0.0105 -0.0123
O1R 0.0473 0.0471 0.042 -0.0123 0.0105 -0.0119
O1ED 0.042 0.0471 0.0473 -0.0119 0.0105 -0.0123
O1GD 0.042 0.0471 0.0473 0.0119 0.0105 0.0123
O1KD 0.0473 0.0471 0.042 0.0123 -0.0105 -0.0119
O1ND 0.042 0.0473 0.0471 0.0119 0.0123 0.0105
loop_
_geom_bond_atom_site_label_1
_geom_bond_atom_site_label_2
_geom_bond_site_symmetry_1
_geom_bond_site_symmetry_2
Cu1 O1 1_555 1_555
O1 C2 1_555 1_555
C1 C2 1_555 1_555
C2 O1DG 1_555 1_555
C3 C1 1_555 1_555
H1 C3 1_555 1_555
O2 Cu1 1_555 1_555
H2 O2 1_555 1_555
O1KA C2KA 1_555 1_555
C1KA C3 1_555 1_555
C2KA C1KA 1_555 1_555
C3KA C1KA 1_555 1_555
H1KA C3KA 1_555 1_555
O1FC C2FC 1_555 1_555
C1FC C3KA 1_555 1_555
C2FC C1FC 1_555 1_555
C3FC C1 1_555 1_555
H1FC C3FC 1_555 1_555
O1OD C2KA 1_555 1_555
O1JE C2FC 1_555 1_555
O1DG Cu1VB 1_555 1_555
H2R O2 1_555 1_555
Cu1G O1G 1_555 1_555
O1G C2G 1_555 1_555
C1G C2G 1_555 1_555
C2G O1FE 1_555 1_555
C3G C1G 1_555 1_555
H1G C3G 1_555 1_555
O2G Cu1G 1_555 1_555
H2G O2G 1_555 1_555
O1MC C2MC 1_555 1_555
C1MC C3G 1_555 1_555
C2MC C1MC 1_555 1_555
C3MC C1MC 1_555 1_555
H1MC C3MC 1_555 1_555
O1BA C2BA 1_555 1_555
C1BA C3MC 1_555 1_555
C2BA C1BA 1_555 1_555
C3BA C1G 1_555 1_555
H1BA C3BA 1_555 1_555
O1TC Cu1 1_555 1_555
O1WF C2BA 1_555 1_555
O1FE Cu1MA 1_555 1_555
H2P O2G 1_555 1_555
Cu1I O1OD 1_555 1_555
O2I Cu1I 1_555 1_555
H2I O2I 1_555 1_555
H2J O2I 1_555 1_555
Cu1BA O1BA 1_555 1_555
Cu1DA O1JE 1_555 1_555
Cu1KA O1KA 1_555 1_555
Cu1MA Cu1G 1_555 1_555
Cu1VB Cu1 1_555 1_555
Cu1FC O1FC 1_555 1_555
Cu1HC O1WF 1_555 1_555
O1I Cu1I 1_555 1_555
O1J Cu1I 1_555 1_555
O1P Cu1G 1_555 1_555
O1R Cu1 1_555 1_555
O1ED Cu1I 1_555 1_555
O1GD Cu1G 1_555 1_555
O1KD Cu1 1_555 1_555
O1ND Cu1G 1_555 1_555
C1FC C3FC 1_555 1_555
O1MC Cu1VB 1_555 1_555
C2MC O1TC 1_555 1_555
C1BA C3BA 1_555 1_555
Cu1I Cu1KA 1_555 1_555
Cu1BA Cu1HC 1_555 1_555
Cu1DA Cu1FC 1_555 1_555

#END
