
#######################################################################
#
#                 Cambridge Crystallographic Data Centre
#                                CCDC 
#
#######################################################################
#
# If this CIF has been generated from an entry in the Cambridge 
# Structural Database, then it will include bibliographic, chemical, 
# crystal, experimental, refinement or atomic coordinate data resulting 
# from the CCDC's data processing and validation procedures.
#
#######################################################################

data_LOMLOQ
_chemical_formula_moiety         '(C6 H17 F2 Ga1 N2 O3 P1 1-)n'
_symmetry_cell_setting           rhombohedral
_symmetry_space_group_name_H-M   'R -3'
_symmetry_Int_Tables_number      148
_space_group_name_Hall           '-R 3'
loop_
_symmetry_equiv_pos_site_id
_symmetry_equiv_pos_as_xyz
1 x,y,z
2 -y,x-y,z
3 -x+y,-x,z
4 2/3+x,1/3+y,1/3+z
5 2/3-y,1/3+x-y,1/3+z
6 2/3-x+y,1/3-x,1/3+z
7 1/3+x,2/3+y,2/3+z
8 1/3-y,2/3+x-y,2/3+z
9 1/3-x+y,2/3-x,2/3+z
10 -x,-y,-z
11 y,-x+y,-z
12 x-y,x,-z
13 1/3-x,2/3-y,2/3-z
14 1/3+y,2/3-x+y,2/3-z
15 1/3+x-y,2/3+x,2/3-z
16 2/3-x,1/3-y,1/3-z
17 2/3+y,1/3-x+y,1/3-z
18 2/3+x-y,1/3+x,1/3-z
_cell_length_a                   18.315(3)
_cell_length_b                   18.315(3)
_cell_length_c                   13.136(4)
_cell_angle_alpha                90
_cell_angle_beta                 90
_cell_angle_gamma                120
_cell_volume                     3815.99
loop_
_atom_site_label
_atom_site_type_symbol
_atom_site_fract_x
_atom_site_fract_y
_atom_site_fract_z
F1 F 0.77734(12) 0.59093(12) 0.14252(16)
F2 F 0.88468(14) 0.57471(14) 0.01314(19)
Ga1 Ga 0.89425(2) 0.65945(2) 0.09644(3)
H9 H 1.024(3) 0.850(3) -0.020(3)
O1 O 1.14466(23) 0.85030(16) 0.0036(2)
O2 O 1.02894(25) 0.74392(17) -0.1164(2)
O3 O 1.01122(14) 0.73697(16) 0.0729(2)
P1 P 1.05099(5) 0.79514(5) -0.01877(7)
F1O F 0.88933(12) 0.74240(12) 0.19081(16)
Ga1H Ga 1.09853(3) 0.77242(2) -0.23689(3)
Ga1K Ga 1.23480(3) 0.89425(2) -0.09644(3)
Ga1O Ga 0.77242(2) 0.67388(2) 0.23689(3)
O1J O 0.85030(16) 0.70564(28) -0.0036(2)
O2D O 0.92275(17) 0.61835(30) 0.2169(2)
C1 C 0.8285(3) 0.6189(4) 0.7566(5)
H1 H 0.8821 0.6539 0.7918
C2 C 0.8433(3) 0.5954(3) 0.6524(5)
H2 H 0.8768 0.5681 0.6581
H3 H 0.7896 0.5554 0.6222
C3 C 0.7796(10) 0.5490(10) 0.8101(11)
H4 H 0.7237 0.5210 0.7820
H5 H 0.7774 0.5637 0.8797
H6 H 0.8026 0.5120 0.8070
N1 N 0.7803(2) 0.6647(3) 0.7469(4)
H7 H 0.7287 0.6295 0.7215
H8 H 0.7736 0.6813 0.8090
C1O C 0.8382(3) 0.7144(4) 0.5767(5)
H1O H 0.7846 0.6794 0.5415
C2O C 0.8234(3) 0.7379(3) 0.6809(5)
H2O H 0.7899 0.7652 0.6752
H3O H 0.8771 0.7779 0.7111
C3O C 0.8871(10) 0.7843(10) 0.5232(11)
H4O H 0.9430 0.8123 0.5513
H5O H 0.8893 0.7696 0.4536
H6O H 0.8641 0.8213 0.5263
N1O N 0.8864(2) 0.6686(3) 0.5864(4)
H7O H 0.9380 0.7038 0.6118
H8O H 0.8931 0.6520 0.5243
loop_
_geom_bond_atom_site_label_1
_geom_bond_atom_site_label_2
_geom_bond_site_symmetry_1
_geom_bond_site_symmetry_2
C1 H1 1_555 1_555
C2 C1 1_555 1_555
H2 C2 1_555 1_555
H3 C2 1_555 1_555
C3 C1 1_555 1_555
H4 C3 1_555 1_555
H5 C3 1_555 1_555
H6 C3 1_555 1_555
N1 C1 1_555 1_555
H7 N1 1_555 1_555
H8 N1 1_555 1_555
F1 Ga1 1_555 1_555
F2 Ga1 1_555 1_555
Ga1 O3 1_555 1_555
H9 P1 1_555 1_555
O1 P1 1_555 1_555
O2 P1 1_555 1_555
O3 P1 1_555 1_555
C1O H1O 1_555 1_555
C2O N1 1_555 1_555
H2O C2O 1_555 1_555
H3O C2O 1_555 1_555
C3O C1O 1_555 1_555
H4O C3O 1_555 1_555
H5O C3O 1_555 1_555
H6O C3O 1_555 1_555
N1O C2 1_555 1_555
H7O N1O 1_555 1_555
H8O N1O 1_555 1_555
F1O Ga1 1_555 1_555
Ga1H O2 1_555 1_555
Ga1K O1 1_555 1_555
Ga1O F1 1_555 1_555
O1J Ga1 1_555 1_555
O2D Ga1 1_555 1_555
C1O C2O 1_555 1_555
C1O N1O 1_555 1_555
F1O Ga1O 1_555 1_555

#END
