
#######################################################################
#
#                 Cambridge Crystallographic Data Centre
#                                CCDC 
#
#######################################################################
#
# If this CIF has been generated from an entry in the Cambridge 
# Structural Database, then it will include bibliographic, chemical, 
# crystal, experimental, refinement or atomic coordinate data resulting 
# from the CCDC's data processing and validation procedures.
#
#######################################################################

data_LOMLUW
_chemical_formula_moiety         '(C6 H17 F2 Ga1 N2 O3 P1 1+)n'
_symmetry_cell_setting           rhombohedral
_symmetry_space_group_name_H-M   'R -3'
_symmetry_Int_Tables_number      148
_space_group_name_Hall           '-R 3'
loop_
_symmetry_equiv_pos_site_id
_symmetry_equiv_pos_as_xyz
1 x,y,z
2 -y,x-y,z
3 -x+y,-x,z
4 2/3+x,1/3+y,1/3+z
5 2/3-y,1/3+x-y,1/3+z
6 2/3-x+y,1/3-x,1/3+z
7 1/3+x,2/3+y,2/3+z
8 1/3-y,2/3+x-y,2/3+z
9 1/3-x+y,2/3-x,2/3+z
10 -x,-y,-z
11 y,-x+y,-z
12 x-y,x,-z
13 1/3-x,2/3-y,2/3-z
14 1/3+y,2/3-x+y,2/3-z
15 1/3+x-y,2/3+x,2/3-z
16 2/3-x,1/3-y,1/3-z
17 2/3+y,1/3-x+y,1/3-z
18 2/3+x-y,1/3+x,1/3-z
_cell_length_a                   17.8476(4)
_cell_length_b                   17.8476(4)
_cell_length_c                   13.5159(6)
_cell_angle_alpha                90
_cell_angle_beta                 90
_cell_angle_gamma                120
_cell_volume                     3728.51
loop_
_atom_site_label
_atom_site_type_symbol
_atom_site_fract_x
_atom_site_fract_y
_atom_site_fract_z
Ga1 Ga 0.87483(3) 0.64120(3) 0.58602(3)
F1 F 0.76349(15) 0.59356(16) 0.65566(18)
F2 F 0.83856(19) 0.54541(19) 0.5056(2)
O1 O 0.9088(2) 0.5937(2) 0.6948(2)
O2 O 0.9683(2) 0.6251(4) 0.8678(2)
O3 O 0.8391(2) 0.6381(2) 0.8330(2)
P1 P 0.88701(7) 0.59055(7) 0.80421(7)
H1 H 0.831(6) 0.501(6) 0.828(7)
Ga1D Ga 1.02547(3) 0.56696(4) 0.91935(3)
Ga1O Ga 0.79184(3) 0.69213(3) 0.74731(3)
F1O F 0.90318(15) 0.73977(16) 0.67767(18)
O2H O 0.9901(4) 0.6984(2) 0.5345(2)
O3O O 0.8276(2) 0.6952(2) 0.5003(2)
N1 N 0.7956(7) 0.5739(7) 0.1795(8)
C1 C 0.8445(7) 0.6921(5) 0.0667(5)
C2 C 0.8362(4) 0.6087(5) 0.0979(5)
C3 C 0.8145(6) 0.5065(6) 0.2242(10)
N1O N 0.8711(7) 0.7594(7) 0.1538(8)
C1O C 0.8222(7) 0.6412(5) 0.2666(5)
C2O C 0.8305(4) 0.7246(5) 0.2354(5)
C3O C 0.8522(6) 0.8268(6) 0.1091(10)
loop_
_geom_bond_atom_site_label_1
_geom_bond_atom_site_label_2
_geom_bond_site_symmetry_1
_geom_bond_site_symmetry_2
Ga1 F1 1_555 1_555
F1 Ga1O 1_555 1_555
F2 Ga1 1_555 1_555
O1 Ga1 1_555 1_555
O2 P1 1_555 1_555
O3 P1 1_555 1_555
P1 O1 1_555 1_555
H1 P1 1_555 1_555
N1 C2 1_555 1_555
C1 C2 1_555 1_555
C3 N1 1_555 1_555
Ga1D O2 1_555 1_555
Ga1O O3 1_555 1_555
F1O Ga1 1_555 1_555
O2H Ga1 1_555 1_555
O3O Ga1 1_555 1_555
N1O C1 1_555 1_555
C1O N1 1_555 1_555
C2O N1O 1_555 1_555
C3O N1O 1_555 1_555
Ga1O F1O 1_555 1_555
C1O C2O 1_555 1_555

#END
