
#######################################################################
#
#                 Cambridge Crystallographic Data Centre
#                                CCDC 
#
#######################################################################
#
# If this CIF has been generated from an entry in the Cambridge 
# Structural Database, then it will include bibliographic, chemical, 
# crystal, experimental, refinement or atomic coordinate data resulting 
# from the CCDC's data processing and validation procedures.
#
#######################################################################

data_POXLEV01
_chemical_formula_moiety         '(C16 H8 O8 Th1)n'
_symmetry_cell_setting           monoclinic
_symmetry_space_group_name_H-M   'C 2/c'
_symmetry_Int_Tables_number      15
_space_group_name_Hall           '-C 2yc'
loop_
_symmetry_equiv_pos_site_id
_symmetry_equiv_pos_as_xyz
1 x,y,z
2 -x,y,1/2-z
3 1/2+x,1/2+y,z
4 1/2-x,1/2+y,1/2-z
5 -x,-y,-z
6 x,-y,1/2+z
7 1/2-x,1/2-y,-z
8 1/2+x,1/2-y,1/2+z
_cell_length_a                   11.620(2)
_cell_length_b                   18.036(4)
_cell_length_c                   9.1910(18)
_cell_angle_alpha                90
_cell_angle_beta                 114.84(3)
_cell_angle_gamma                90
_cell_volume                     1748.03
loop_
_atom_site_label
_atom_site_type_symbol
_atom_site_fract_x
_atom_site_fract_y
_atom_site_fract_z
O1 O 0.1612(3) -0.06654(17) 0.4907(3)
Th1 Th -0.0000 0.01904(2) 0.7500
O2 O -0.0632(3) 0.07982(16) 1.0655(4)
C1 C -0.1813(4) 0.1916(2) 0.9783(5)
C2 C 0.4230(4) -0.0731(2) 0.5861(5)
H1 H 0.3713 -0.0763 0.4769
C3 C 0.2299(4) -0.0544(2) 0.6362(5)
C4 C 0.4459(4) -0.0722(2) 0.8590(5)
H2 H 0.4096 -0.0734 0.9319
O3 O -0.0978(3) 0.12319(16) 0.8249(4)
C5 C -0.2494(4) 0.2381(2) 0.8506(5)
H3 H -0.2488 0.2300 0.7510
C6 C -0.1088(4) 0.1276(2) 0.9548(5)
C7 C 0.3694(4) -0.0694(2) 0.6964(5)
O4 O 0.1909(3) -0.02838(16) 0.7348(4)
C8 C -0.1819(4) 0.2037(2) 1.1285(5)
H4 H -0.1361 0.1726 1.2140
O1A O 0.8388(3) -0.06654(17) 1.0093(3)
C2A C 0.5770(4) -0.0731(2) 0.9139(5)
H1A H 0.6287 -0.0763 1.0231
C3A C 0.7701(4) -0.0544(2) 0.8638(5)
C4A C 0.5541(4) -0.0722(2) 0.6410(5)
H2A H 0.5904 -0.0734 0.5681
C7A C 0.6306(4) -0.0694(2) 0.8036(5)
O4A O 0.8091(3) -0.02838(16) 0.7652(4)
O2F O -0.4368(3) 0.42018(16) 0.9345(4)
C1F C -0.3187(4) 0.3084(2) 1.0217(5)
O3F O -0.4022(3) 0.37681(16) 1.1751(4)
C5F C -0.2506(4) 0.2619(2) 1.1494(5)
H3F H -0.2512 0.2700 1.2490
C6F C -0.3912(4) 0.3724(2) 1.0452(5)
C8F C -0.3181(4) 0.2963(2) 0.8715(5)
H4F H -0.3639 0.3274 0.7860
O1D O -0.1612(3) 0.06654(17) 0.5093(3)
O1E O 0.1612(3) 0.06654(17) 0.9907(3)
Th1_2 Th 1.0000 0.01904(2) 0.7500
Th1B Th -0.5000 0.51904(2) 0.7500
Th1D Th 0.0000 -0.01904(2) 0.2500
Th1D_2 Th -0.0000 -0.01904(2) 1.2500
Th1D_3 Th 1.0000 -0.01904(2) 1.2500
Th1F Th -0.5000 0.48096(2) 1.2500
O2D O 0.0632(3) -0.07982(16) 0.9345(4)
O2E O -0.0632(3) -0.07982(16) 0.5655(4)
O3A O 0.0978(3) 0.12319(16) 0.6751(4)
O4A_2 O -0.1909(3) -0.02838(16) 0.7652(4)
loop_
_geom_bond_atom_site_label_1
_geom_bond_atom_site_label_2
_geom_bond_site_symmetry_1
_geom_bond_site_symmetry_2
O1 C3 1_555 1_555
Th1 O3 1_555 1_555
O2 C6 1_555 1_555
C1 C5 1_555 1_555
C2 H1 1_555 1_555
C3 C7 1_555 1_555
C4 H2 1_555 1_555
O3 C6 1_555 1_555
C5 H3 1_555 1_555
C6 C1 1_555 1_555
C7 C2 1_555 1_555
O4 Th1 1_555 1_555
C8 C1 1_555 1_555
H4 C8 1_555 1_555
O1A C3A 1_555 1_555
C2A C4 1_555 1_555
H1A C2A 1_555 1_555
C3A C7A 1_555 1_555
C4A C2 1_555 1_555
H2A C4A 1_555 1_555
C7A C2A 1_555 1_555
O4A C3A 1_555 1_555
O2F C6F 1_555 1_555
C1F C5F 1_555 1_555
O3F C6F 1_555 1_555
C5F C8 1_555 1_555
H3F C5F 1_555 1_555
C6F C1F 1_555 1_555
C8F C5 1_555 1_555
H4F C8F 1_555 1_555
O1D Th1 1_555 1_555
O1E Th1 1_555 1_555
Th1_2 O4A 1_555 1_555
Th1B O2F 1_555 1_555
Th1D O1 1_555 1_555
Th1D_2 O2 1_555 1_555
Th1D_3 O1A 1_555 1_555
Th1F O3F 1_555 1_555
O2D Th1 1_555 1_555
O2E Th1 1_555 1_555
O3A Th1 1_555 1_555
O4A_2 Th1 1_555 1_555
C3 O4 1_555 1_555
C4 C7 1_555 1_555
C4A C7A 1_555 1_555
C1F C8F 1_555 1_555

#END
