
#######################################################################
#
#                 Cambridge Crystallographic Data Centre
#                                CCDC 
#
#######################################################################
#
# If this CIF has been generated from an entry in the Cambridge 
# Structural Database, then it will include bibliographic, chemical, 
# crystal, experimental, refinement or atomic coordinate data resulting 
# from the CCDC's data processing and validation procedures.
#
#######################################################################

data_MOBBIO
_chemical_formula_moiety         '(C12 H6 Cl4 O10 Y1 1+)n'
_symmetry_cell_setting           tetragonal
_symmetry_space_group_name_H-M   'I 41/a'
_symmetry_Int_Tables_number      88
_space_group_name_Hall           '-I 4ad'
loop_
_symmetry_equiv_pos_site_id
_symmetry_equiv_pos_as_xyz
1 x,y,z
2 3/4-y,1/4+x,1/4+z
3 1/4+y,1/4-x,1/4+z
4 1/2+x,1/2+y,1/2+z
5 1/4-y,3/4+x,3/4+z
6 x,1/2+y,-z
7 1/2+x,y,1/2-z
8 1/4-y,1/4+x,1/4-z
9 -x,-y,-z
10 1/4+y,3/4-x,3/4-z
11 3/4-y,3/4+x,3/4-z
12 1/2-x,1/2-y,1/2-z
13 3/4+y,1/4-x,1/4-z
14 -x,1/2-y,z
15 1/2-x,-y,1/2+z
16 3/4+y,3/4-x,3/4+z
_cell_length_a                   11.578(1)
_cell_length_b                   11.578(1)
_cell_length_c                   25.391(4)
_cell_angle_alpha                90
_cell_angle_beta                 90
_cell_angle_gamma                90
_cell_volume                     3403.67
loop_
_atom_site_label
_atom_site_type_symbol
_atom_site_fract_x
_atom_site_fract_y
_atom_site_fract_z
_atom_site_U_iso_or_equiv
_atom_site_thermal_displace_type
O3 O 0.6338(24) 0.2682(26) 0.0665(11) 0.1000 Uiso
O5 O 0.4413(34) 0.6093(33) 0.0471(13) 0.1000 Uiso
Y1 Y 0.5000 0.2500 0.3750 0.0559 Uani
Cl1 Cl 0.1293(3) 0.0331(3) 0.30246(12) 0.0997 Uani
O1 O 0.3318(6) 0.1704(6) 0.3426(2) 0.0667 Uani
O2 O 0.0721(5) 0.1503(6) 0.2009(2) 0.0630 Uani
C1 C 0.1972(8) 0.1510(9) 0.2740(4) 0.0657 Uani
C2 C 0.2870(8) 0.2002(9) 0.2985(3) 0.0577 Uani
C3 C 0.1535(8) 0.1933(8) 0.2264(3) 0.0553 Uani
C3K C 0.3465(8) 0.3067(8) 0.2736(3) 0.0553 Uani
O2K O 0.4279(5) 0.3497(6) 0.2991(2) 0.0630 Uani
C1K C 0.3028(8) 0.3490(9) 0.2260(4) 0.0657 Uani
Cl1K Cl 0.3707(3) 0.4669(3) 0.19754(12) 0.0997 Uani
C2K C 0.2130(8) 0.2998(9) 0.2015(3) 0.0577 Uani
O1K O 0.1682(6) 0.3296(6) 0.1574(2) 0.0667 Uani
Cl1I Cl 0.2831(3) 0.6207(3) 0.44754(12) 0.0997 Uani
O1I O 0.4204(6) 0.4182(6) 0.4074(2) 0.0667 Uani
O2I O 0.4003(6) 0.6779(5) 0.5491(2) 0.0630 Uani
C1I C 0.4010(9) 0.5528(8) 0.4760(4) 0.0657 Uani
C2I C 0.4502(9) 0.4630(8) 0.4515(3) 0.0577 Uani
C3I C 0.4433(8) 0.5965(8) 0.5236(3) 0.0553 Uani
C3A C 0.5567(8) 0.4035(8) 0.4764(3) 0.0553 Uani
O2A O 0.5997(6) 0.3221(5) 0.4509(2) 0.0630 Uani
C1A C 0.5990(9) 0.4472(8) 0.5240(4) 0.0657 Uani
Cl1A Cl 0.7169(3) 0.3793(3) 0.55246(12) 0.0997 Uani
C2A C 0.5498(9) 0.5370(8) 0.5485(3) 0.0577 Uani
O1A O 0.5796(6) 0.5818(6) 0.5926(2) 0.0667 Uani
O1J O 0.5796(6) 0.0818(6) 0.4074(2) 0.0667 Uani
O1M O 0.6682(6) 0.3296(6) 0.3426(2) 0.0667 Uani
O2B O 0.4003(6) 0.1779(5) 0.4509(2) 0.0630 Uani
O2F O 0.5721(5) 0.1503(6) 0.2991(2) 0.0630 Uani
Y1D Y -0.0000 0.2500 0.1250 0.0559 Uani
Y1A Y 0.5000 0.7500 0.6250 0.0559 Uani
loop_
_atom_site_aniso_label
_atom_site_aniso_U_11
_atom_site_aniso_U_22
_atom_site_aniso_U_33
_atom_site_aniso_U_23
_atom_site_aniso_U_13
_atom_site_aniso_U_12
Y1 0.0640(9) 0.0640(9) 0.0397(9) 0.000 0.000 0.000
Cl1 0.113 0.1 0.086 0.044 -0.027 -0.046
O1 0.073 0.079 0.048 0.017 -0.004 -0.012
O2 0.076 0.059 0.054 0.012 -0.009 -0.016
C1 0.078 0.066 0.053 0.013 -0.006 -0.02
C2 0.076 0.056 0.041 0.004 0.006 -0.007
C3 0.067 0.06 0.039 -0.006 -0.006 -0.002
C3K 0.067 0.06 0.039 -0.006 -0.006 -0.002
O2K 0.076 0.059 0.054 0.012 -0.009 -0.016
C1K 0.078 0.066 0.053 0.013 -0.006 -0.02
Cl1K 0.113 0.1 0.086 0.044 -0.027 -0.046
C2K 0.076 0.056 0.041 0.004 0.006 -0.007
O1K 0.073 0.079 0.048 0.017 -0.004 -0.012
Cl1I 0.1 0.113 0.086 -0.027 -0.044 0.046
O1I 0.079 0.073 0.048 -0.004 -0.017 0.012
O2I 0.059 0.076 0.054 -0.009 -0.012 0.016
C1I 0.066 0.078 0.053 -0.006 -0.013 0.02
C2I 0.056 0.076 0.041 0.006 -0.004 0.007
C3I 0.06 0.067 0.039 -0.006 0.006 0.002
C3A 0.06 0.067 0.039 -0.006 0.006 0.002
O2A 0.059 0.076 0.054 -0.009 -0.012 0.016
C1A 0.066 0.078 0.053 -0.006 -0.013 0.02
Cl1A 0.1 0.113 0.086 -0.027 -0.044 0.046
C2A 0.056 0.076 0.041 0.006 -0.004 0.007
O1A 0.079 0.073 0.048 -0.004 -0.017 0.012
O1J 0.079(5) 0.073(4) 0.048(4) 0.004(3) 0.017(3) 0.012(4)
O1M 0.073 0.079 0.048 -0.017 0.004 -0.012
O2B 0.059(4) 0.076(4) 0.054(4) 0.009(3) 0.012(3) 0.016(3)
O2F 0.076 0.059 0.054 -0.012 0.009 -0.016
Y1D 0.064 0.064 0.0397 0 0 0
Y1A 0.064 0.064 0.0397 0 0 0
loop_
_geom_bond_atom_site_label_1
_geom_bond_atom_site_label_2
_geom_bond_site_symmetry_1
_geom_bond_site_symmetry_2
Y1 O1 1_555 1_555
Cl1 C1 1_555 1_555
O1 C2 1_555 1_555
O2 C3 1_555 1_555
C1 C2 1_555 1_555
C2 C3K 1_555 1_555
C3 C1 1_555 1_555
C3K O2K 1_555 1_555
O2K Y1 1_555 1_555
C1K C3K 1_555 1_555
Cl1K C1K 1_555 1_555
C2K C3 1_555 1_555
O1K C2K 1_555 1_555
Cl1I C1I 1_555 1_555
O1I Y1 1_555 1_555
O2I C3I 1_555 1_555
C1I C2I 1_555 1_555
C2I O1I 1_555 1_555
C3I C1I 1_555 1_555
C3A C2I 1_555 1_555
O2A Y1 1_555 1_555
C1A C3A 1_555 1_555
Cl1A C1A 1_555 1_555
C2A C3I 1_555 1_555
O1A C2A 1_555 1_555
O1J Y1 1_555 1_555
O1M Y1 1_555 1_555
O2B Y1 1_555 1_555
O2F Y1 1_555 1_555
Y1D O2 1_555 1_555
Y1A O2I 1_555 1_555
C1K C2K 1_555 1_555
O1K Y1D 1_555 1_555
C3A O2A 1_555 1_555
C1A C2A 1_555 1_555
O1A Y1A 1_555 1_555

#END
