
#######################################################################
#
#                 Cambridge Crystallographic Data Centre
#                                CCDC 
#
#######################################################################
#
# If this CIF has been generated from an entry in the Cambridge 
# Structural Database, then it will include bibliographic, chemical, 
# crystal, experimental, refinement or atomic coordinate data resulting 
# from the CCDC's data processing and validation procedures.
#
#######################################################################

data_OTODOS
_chemical_formula_moiety         '(C32 H44 Ag2 B1 F4 N6 O2 1+)n'
_symmetry_cell_setting           monoclinic
_symmetry_space_group_name_H-M   'C 2/c'
_symmetry_Int_Tables_number      15
_space_group_name_Hall           '-C 2yc'
loop_
_symmetry_equiv_pos_site_id
_symmetry_equiv_pos_as_xyz
1 x,y,z
2 -x,y,1/2-z
3 1/2+x,1/2+y,z
4 1/2-x,1/2+y,1/2-z
5 -x,-y,-z
6 x,-y,1/2+z
7 1/2-x,1/2-y,-z
8 1/2+x,1/2-y,1/2+z
_cell_length_a                   12.975(8)
_cell_length_b                   23.050(2)
_cell_length_c                   13.155(3)
_cell_angle_alpha                90
_cell_angle_beta                 91.819(9)
_cell_angle_gamma                90
_cell_volume                     3932.33
loop_
_atom_site_label
_atom_site_type_symbol
_atom_site_fract_x
_atom_site_fract_y
_atom_site_fract_z
_atom_site_U_iso_or_equiv
_atom_site_thermal_displace_type
Ag1 Ag -0.2500 0.2500 0.5000 0.0608 Uani
Ag2 Ag 0.0000 0.44523(2) 0.2500 0.0392 Uani
N1 N -0.0899(4) 0.2644(2) 0.4811(4) 0.0580 Uani
C1 C -0.0347(6) 0.3041(3) 0.5362(5) 0.0616 Uani
H1 H -0.0681 0.3240 0.5892 0.0740 Uiso
C2 C 0.0651(6) 0.3168(2) 0.5199(4) 0.0551 Uani
H2 H 0.0997 0.3452 0.5608 0.0660 Uiso
C3 C 0.1178(5) 0.2885(2) 0.4427(4) 0.0512 Uani
C4 C 0.0627(5) 0.2455(2) 0.3892(4) 0.0535 Uani
H3 H 0.0958 0.2235 0.3386 0.0640 Uiso
C5 C -0.0392(5) 0.2347(3) 0.4092(5) 0.0568 Uani
H4 H -0.0750 0.2055 0.3713 0.0680 Uiso
C6 C 0.2253(5) 0.3040(2) 0.4160(4) 0.0548 Uani
H5 H 0.2640 0.3152 0.4790 0.0660 Uiso
H6 H 0.2590 0.2692 0.3882 0.0660 Uiso
N2 N 0.2329(4) 0.35166(19) 0.3416(3) 0.0487 Uani
C7 C 0.1748(5) 0.3402(2) 0.2481(4) 0.0460 Uani
H7 H 0.1004 0.3384 0.2622 0.0550 Uiso
H8 H 0.1956 0.3022 0.2203 0.0550 Uiso
C8 C 0.1934(4) 0.3875(2) 0.1699(4) 0.0443 Uani
H9 H 0.2671 0.3879 0.1526 0.0530 Uiso
H10 H 0.1520 0.3795 0.1070 0.0530 Uiso
N3 N 0.1642(4) 0.44502(16) 0.2116(3) 0.0413 Uani
C9 C 0.2301(5) 0.4553(2) 0.3053(4) 0.0480 Uani
H11 H 0.2148 0.4940 0.3339 0.0580 Uiso
H12 H 0.3038 0.4543 0.2882 0.0580 Uiso
C10 C 0.2079(5) 0.4085(2) 0.3828(4) 0.0481 Uani
H13 H 0.2496 0.4155 0.4459 0.0570 Uiso
H14 H 0.1342 0.4097 0.3998 0.0570 Uiso
C11 C 0.1813(4) 0.4920(2) 0.1354(4) 0.0456 Uani
H15 H 0.2437 0.4832 0.0968 0.0550 Uiso
H16 H 0.1923 0.5294 0.1710 0.0550 Uiso
C12 C 0.0893(4) 0.49662(19) 0.0634(3) 0.0404 Uani
C13 C 0.0077(4) 0.53338(19) 0.0871(3) 0.0424 Uani
H17 H 0.0128 0.5565 0.1468 0.0510 Uiso
C14 C -0.0801(4) 0.53674(19) 0.0253(3) 0.0408 Uani
H18 H -0.1347 0.5619 0.0432 0.0490 Uiso
N1D N 0.0899(4) 0.7356(2) -0.4811(4) 0.0580 Uani
C1D C 0.0347(6) 0.6959(3) -0.5362(5) 0.0616 Uani
H1D H 0.0681 0.6760 -0.5892 0.0740 Uiso
C2D C -0.0651(6) 0.6832(2) -0.5199(4) 0.0551 Uani
H2D H -0.0997 0.6548 -0.5608 0.0660 Uiso
C3D C -0.1178(5) 0.7115(2) -0.4427(4) 0.0512 Uani
C4D C -0.0627(5) 0.7545(2) -0.3892(4) 0.0535 Uani
H3D H -0.0958 0.7765 -0.3386 0.0640 Uiso
C5D C 0.0392(5) 0.7653(3) -0.4092(5) 0.0568 Uani
H4D H 0.0750 0.7945 -0.3713 0.0680 Uiso
C6D C -0.2253(5) 0.6960(2) -0.4160(4) 0.0548 Uani
H5D H -0.2640 0.6848 -0.4790 0.0660 Uiso
H6D H -0.2590 0.7308 -0.3882 0.0660 Uiso
N2D N -0.2329(4) 0.64834(19) -0.3416(3) 0.0487 Uani
C7D C -0.1748(5) 0.6598(2) -0.2481(4) 0.0460 Uani
H7D H -0.1004 0.6616 -0.2622 0.0550 Uiso
H8D H -0.1956 0.6978 -0.2203 0.0550 Uiso
C8D C -0.1934(4) 0.6125(2) -0.1699(4) 0.0443 Uani
H9D H -0.2671 0.6121 -0.1526 0.0530 Uiso
H10D H -0.1520 0.6205 -0.1070 0.0530 Uiso
N3D N -0.1642(4) 0.55498(16) -0.2116(3) 0.0413 Uani
C9D C -0.2301(5) 0.5447(2) -0.3053(4) 0.0480 Uani
H11D H -0.2148 0.5060 -0.3339 0.0580 Uiso
H12D H -0.3038 0.5457 -0.2882 0.0580 Uiso
C10D C -0.2079(5) 0.5915(2) -0.3828(4) 0.0481 Uani
H13D H -0.2496 0.5845 -0.4459 0.0570 Uiso
H14D H -0.1342 0.5903 -0.3998 0.0570 Uiso
C11D C -0.1813(4) 0.5080(2) -0.1354(4) 0.0456 Uani
H15D H -0.2437 0.5168 -0.0968 0.0550 Uiso
H16D H -0.1923 0.4706 -0.1710 0.0550 Uiso
C12D C -0.0893(4) 0.50338(19) -0.0634(3) 0.0404 Uani
C13D C -0.0077(4) 0.46662(19) -0.0871(3) 0.0424 Uani
H17D H -0.0128 0.4435 -0.1468 0.0510 Uiso
C14D C 0.0801(4) 0.46326(19) -0.0253(3) 0.0408 Uani
H18D H 0.1347 0.4381 -0.0432 0.0490 Uiso
Ag1B Ag 0.2500 0.7500 -0.5000 0.0608 Uani
Ag2D Ag -0.0000 0.55477(2) -0.2500 0.0392 Uani
N1F N -0.4101(4) 0.2356(2) 0.5189(4) 0.0580 Uani
N3A N -0.1642(4) 0.44502(16) 0.2884(3) 0.0413 Uani
C15 C 0.4591(18) 0.5290(11) 0.0771(19) 0.0490 Uiso
H19 H 0.4291 0.5607 0.1174 0.0580 Uiso
H20 H 0.4594 0.4927 0.1173 0.0580 Uiso
C16 C 0.444(2) 0.4572(11) -0.045(2) 0.0550 Uiso
H21 H 0.4463 0.4342 0.0182 0.0660 Uiso
H22 H 0.4031 0.4361 -0.0985 0.0660 Uiso
O1 O 0.3944(10) 0.5011(6) -0.0035(11) 0.0340 Uiso
C15D C 0.5409(18) 0.4710(11) -0.0771(19) 0.0490 Uiso
H19D H 0.5709 0.4393 -0.1174 0.0580 Uiso
H20D H 0.5406 0.5073 -0.1173 0.0580 Uiso
C16D C 0.556(2) 0.5428(11) 0.045(2) 0.0550 Uiso
H21D H 0.5537 0.5658 -0.0182 0.0660 Uiso
H22D H 0.5969 0.5639 0.0985 0.0660 Uiso
O1D O 0.6056(10) 0.4989(6) 0.0035(11) 0.0340 Uiso
B1 B 0.2615(7) 0.1429(3) 0.2206(6) 0.0734 Uani
F1 F 0.2669(4) 0.20217(17) 0.2205(4) 0.0925 Uani
F2 F 0.2363(5) 0.1333(3) 0.1131(5) 0.1206 Uani
F3 F 0.3580(4) 0.11853(17) 0.2336(3) 0.0787 Uani
F4 F 0.1744(8) 0.1182(5) 0.2573(10) 0.0979 Uani
loop_
_atom_site_aniso_label
_atom_site_aniso_U_11
_atom_site_aniso_U_22
_atom_site_aniso_U_33
_atom_site_aniso_U_23
_atom_site_aniso_U_13
_atom_site_aniso_U_12
Ag1 0.0818(5) 0.0434(3) 0.0579(4) 0.0090(3) 0.0113(3) -0.0005(3)
Ag2 0.0525(3) 0.0275(2) 0.0369(3) 0.000 -0.0115(2) 0.000
N1 0.081(4) 0.043(2) 0.050(3) 0.002(2) 0.003(2) 0.002(2)
C1 0.096(5) 0.041(3) 0.048(3) 0.001(2) 0.004(3) 0.004(3)
C2 0.086(4) 0.037(3) 0.042(3) -0.001(2) -0.004(3) 0.001(3)
C3 0.074(4) 0.038(3) 0.041(3) 0.012(2) -0.007(3) 0.009(2)
C4 0.077(4) 0.040(3) 0.043(3) 0.003(2) -0.005(3) 0.014(3)
C5 0.080(4) 0.043(3) 0.047(3) 0.000(2) -0.002(3) 0.006(3)
C6 0.077(4) 0.040(3) 0.046(3) 0.009(2) -0.018(3) 0.012(3)
N2 0.060(3) 0.040(2) 0.045(2) 0.0063(18) -0.015(2) 0.009(2)
C7 0.065(3) 0.032(2) 0.040(2) 0.0006(19) -0.013(2) 0.007(2)
C8 0.060(3) 0.033(2) 0.039(2) -0.0010(19) -0.011(2) 0.007(2)
N3 0.058(2) 0.0293(18) 0.0358(19) 0.0037(15) -0.0129(18) 0.0027(18)
C9 0.062(3) 0.040(3) 0.041(3) -0.002(2) -0.013(2) -0.003(2)
C10 0.064(3) 0.038(2) 0.041(3) 0.003(2) -0.017(2) -0.003(2)
C11 0.060(3) 0.033(2) 0.043(3) 0.004(2) -0.009(2) -0.003(2)
C12 0.063(3) 0.028(2) 0.030(2) 0.0069(17) -0.003(2) 0.002(2)
C13 0.073(3) 0.0240(19) 0.030(2) 0.0042(16) -0.003(2) 0.003(2)
C14 0.066(3) 0.0266(19) 0.030(2) 0.0039(16) 0.003(2) 0.007(2)
N1D 0.081 0.043 0.05 0.002 0.003 0.002
C1D 0.096 0.041 0.048 0.001 0.004 0.004
C2D 0.086 0.037 0.042 -0.001 -0.004 0.001
C3D 0.074 0.038 0.041 0.012 -0.007 0.009
C4D 0.077 0.04 0.043 0.003 -0.005 0.014
C5D 0.08 0.043 0.047 0 -0.002 0.006
C6D 0.077 0.04 0.046 0.009 -0.018 0.012
N2D 0.06 0.04 0.045 0.0063 -0.015 0.009
C7D 0.065 0.032 0.04 0.0006 -0.013 0.007
C8D 0.06 0.033 0.039 -0.001 -0.011 0.007
N3D 0.058 0.0293 0.0358 0.0037 -0.0129 0.0027
C9D 0.062 0.04 0.041 -0.002 -0.013 -0.003
C10D 0.064 0.038 0.041 0.003 -0.017 -0.003
C11D 0.06 0.033 0.043 0.004 -0.009 -0.003
C12D 0.063 0.028 0.03 0.0069 -0.003 0.002
C13D 0.073 0.024 0.03 0.0042 -0.003 0.003
C14D 0.066 0.0266 0.03 0.0039 0.003 0.007
Ag1B 0.0818 0.0434 0.0579 0.009 0.0113 -0.0005
Ag2D 0.0525 0.0275 0.0369 0 -0.0115 0
N1F 0.081 0.043 0.05 0.002 0.003 0.002
N3A 0.058 0.0293 0.0358 -0.0037 -0.0129 -0.0027
B1 0.098(6) 0.041(3) 0.080(5) -0.003(3) -0.015(5) 0.019(4)
F1 0.138(4) 0.047(2) 0.093(3) 0.007(2) 0.012(3) 0.036(2)
F2 0.121(4) 0.106(4) 0.133(5) -0.045(4) -0.024(4) 0.029(3)
F3 0.109(3) 0.059(2) 0.069(2) 0.0172(18) 0.019(2) 0.038(2)
F4 0.095(6) 0.101(6) 0.100(6) 0.020(5) 0.040(5) -0.012(5)
loop_
_geom_bond_atom_site_label_1
_geom_bond_atom_site_label_2
_geom_bond_site_symmetry_1
_geom_bond_site_symmetry_2
Ag1 N1 1_555 1_555
Ag2 N3 1_555 1_555
N1 C1 1_555 1_555
C1 H1 1_555 1_555
C2 C1 1_555 1_555
H2 C2 1_555 1_555
C3 C2 1_555 1_555
C4 C3 1_555 1_555
H3 C4 1_555 1_555
C5 N1 1_555 1_555
H4 C5 1_555 1_555
C6 C3 1_555 1_555
H5 C6 1_555 1_555
H6 C6 1_555 1_555
N2 C6 1_555 1_555
C7 N2 1_555 1_555
H7 C7 1_555 1_555
H8 C7 1_555 1_555
C8 C7 1_555 1_555
H9 C8 1_555 1_555
H10 C8 1_555 1_555
N3 C8 1_555 1_555
C9 N3 1_555 1_555
H11 C9 1_555 1_555
H12 C9 1_555 1_555
C10 N2 1_555 1_555
H13 C10 1_555 1_555
H14 C10 1_555 1_555
C11 N3 1_555 1_555
H15 C11 1_555 1_555
H16 C11 1_555 1_555
C12 C11 1_555 1_555
C13 C12 1_555 1_555
H17 C13 1_555 1_555
C14 C13 1_555 1_555
H18 C14 1_555 1_555
C15 H19 1_555 1_555
H20 C15 1_555 1_555
C16 H21 1_555 1_555
H22 C16 1_555 1_555
O1 C15 1_555 1_555
B1 F1 1_555 1_555
F2 B1 1_555 1_555
F3 B1 1_555 1_555
F4 B1 1_555 1_555
N1D C1D 1_555 1_555
C1D H1D 1_555 1_555
C2D C1D 1_555 1_555
H2D C2D 1_555 1_555
C3D C2D 1_555 1_555
C4D C3D 1_555 1_555
H3D C4D 1_555 1_555
C5D N1D 1_555 1_555
H4D C5D 1_555 1_555
C6D C3D 1_555 1_555
H5D C6D 1_555 1_555
H6D C6D 1_555 1_555
N2D C6D 1_555 1_555
C7D N2D 1_555 1_555
H7D C7D 1_555 1_555
H8D C7D 1_555 1_555
C8D C7D 1_555 1_555
H9D C8D 1_555 1_555
H10D C8D 1_555 1_555
N3D C8D 1_555 1_555
C9D N3D 1_555 1_555
H11D C9D 1_555 1_555
H12D C9D 1_555 1_555
C10D N2D 1_555 1_555
H13D C10D 1_555 1_555
H14D C10D 1_555 1_555
C11D N3D 1_555 1_555
H15D C11D 1_555 1_555
H16D C11D 1_555 1_555
C12D C14 1_555 1_555
C13D C12D 1_555 1_555
H17D C13D 1_555 1_555
C14D C12 1_555 1_555
H18D C14D 1_555 1_555
Ag1B N1D 1_555 1_555
Ag2D N3D 1_555 1_555
N1F Ag1 1_555 1_555
N3A Ag2 1_555 1_555
C15D C16 1_555 1_555
H19D C15D 1_555 1_555
H20D C15D 1_555 1_555
C16D C15 1_555 1_555
H21D C16D 1_555 1_555
H22D C16D 1_555 1_555
O1D C15D 1_555 1_555
C4 C5 1_555 1_555
C9 C10 1_555 1_555
C16 O1 1_555 1_555
C4D C5D 1_555 1_555
C9D C10D 1_555 1_555
C11D C12D 1_555 1_555
C13D C14D 1_555 1_555
C16D O1D 1_555 1_555

#END
