
#######################################################################
#
#                 Cambridge Crystallographic Data Centre
#                                CCDC 
#
#######################################################################
#
# If this CIF has been generated from an entry in the Cambridge 
# Structural Database, then it will include bibliographic, chemical, 
# crystal, experimental, refinement or atomic coordinate data resulting 
# from the CCDC's data processing and validation procedures.
#
#######################################################################

data_OTODIM
_chemical_formula_moiety         '(C28 H42 Ag2 B2 F8 N6 O3)n'
_symmetry_cell_setting           monoclinic
_symmetry_space_group_name_H-M   'C c'
_symmetry_Int_Tables_number      9
_space_group_name_Hall           'C -2yc'
loop_
_symmetry_equiv_pos_site_id
_symmetry_equiv_pos_as_xyz
1 x,y,z
2 x,-y,1/2+z
3 1/2+x,1/2+y,z
4 1/2+x,1/2-y,1/2+z
_cell_length_a                   9.733(10)
_cell_length_b                   22.323(7)
_cell_length_c                   15.631(7)
_cell_angle_alpha                90
_cell_angle_beta                 93.89(6)
_cell_angle_gamma                90
_cell_volume                     3388.32
loop_
_atom_site_label
_atom_site_type_symbol
_atom_site_fract_x
_atom_site_fract_y
_atom_site_fract_z
_atom_site_U_iso_or_equiv
_atom_site_thermal_displace_type
Ag1 Ag 0.81176(19) 0.25249(8) 0.07738(13) 0.0765 Uani
Ag2 Ag 0.61360(11) 0.45604(6) 0.33182(9) 0.0531 Uani
N1 N 0.617(2) 0.2794(9) 0.1132(11) 0.0643 Uani
C1 C 0.562(3) 0.2523(10) 0.1807(18) 0.0775 Uani
H1 H 0.6127 0.2208 0.2091 0.0930 Uiso
C2 C 0.434(3) 0.2690(10) 0.2104(15) 0.0694 Uani
H2 H 0.4005 0.2488 0.2582 0.0830 Uiso
C3 C 0.358(2) 0.3140(9) 0.1709(13) 0.0613 Uani
C4 C 0.416(2) 0.3414(10) 0.1000(14) 0.0661 Uani
H3 H 0.3690 0.3732 0.0703 0.0790 Uiso
C5 C 0.541(3) 0.3225(10) 0.0738(15) 0.0697 Uani
H4 H 0.5760 0.3410 0.0249 0.0840 Uiso
C6 C 0.228(2) 0.3370(11) 0.2023(14) 0.0751 Uani
H5 H 0.1761 0.3033 0.2257 0.0900 Uiso
H6 H 0.1711 0.3545 0.1537 0.0900 Uiso
N2 N 0.2546(19) 0.3845(9) 0.2718(13) 0.0710 Uani
C7 C 0.309(2) 0.4406(11) 0.2364(14) 0.0662 Uani
H7 H 0.4025 0.4333 0.2166 0.0790 Uiso
H8 H 0.2489 0.4541 0.1867 0.0790 Uiso
C8 C 0.3167(19) 0.4875(10) 0.3034(14) 0.0633 Uani
H9 H 0.2233 0.4957 0.3219 0.0760 Uiso
H10 H 0.3533 0.5250 0.2800 0.0760 Uiso
N3 N 0.4131(19) 0.4662(9) 0.3825(14) 0.0549 Uani
C9 C 0.357(2) 0.4118(9) 0.4131(13) 0.0560 Uani
H11 H 0.2642 0.4200 0.4331 0.0670 Uiso
H12 H 0.4157 0.3972 0.4628 0.0670 Uiso
C10 C 0.345(2) 0.3635(9) 0.3460(12) 0.0597 Uani
H13 H 0.4371 0.3537 0.3271 0.0710 Uiso
H14 H 0.3055 0.3269 0.3703 0.0710 Uiso
C11 C 0.416(2) 0.5158(10) 0.4444(16) 0.0671 Uani
H15 H 0.3248 0.5193 0.4682 0.0810 Uiso
H16 H 0.4345 0.5537 0.4142 0.0810 Uiso
C12 C 0.526(2) 0.5070(9) 0.5177(15) 0.0602 Uani
C13 C 0.655(3) 0.5324(11) 0.5062(19) 0.0732 Uani
H17 H 0.6714 0.5530 0.4547 0.0880 Uiso
C14 C 0.757(3) 0.5268(11) 0.5716(17) 0.0699 Uani
H18 H 0.8459 0.5421 0.5630 0.0840 Uiso
C15 C 0.735(2) 0.4999(8) 0.6485(14) 0.0567 Uani
C16 C 0.608(3) 0.4729(10) 0.6564(13) 0.0618 Uani
H19 H 0.5931 0.4517 0.7076 0.0740 Uiso
C17 C 0.504(3) 0.4755(10) 0.5935(15) 0.0675 Uani
H20 H 0.4179 0.4564 0.6008 0.0810 Uiso
C18 C 0.845(2) 0.5007(10) 0.7208(14) 0.0647 Uani
H21 H 0.9355 0.5076 0.6969 0.0780 Uiso
H22 H 0.8486 0.4610 0.7491 0.0780 Uiso
N4 N 0.823(2) 0.5483(8) 0.7874(16) 0.0621 Uani
C19 C 0.842(2) 0.6087(10) 0.7488(16) 0.0695 Uani
H23 H 0.9363 0.6116 0.7292 0.0830 Uiso
H24 H 0.7763 0.6135 0.6981 0.0830 Uiso
C20 C 0.821(2) 0.6572(11) 0.8098(14) 0.0680 Uani
H25 H 0.7245 0.6562 0.8267 0.0820 Uiso
H26 H 0.8363 0.6963 0.7822 0.0820 Uiso
N5 N 0.916(2) 0.6509(9) 0.8863(12) 0.0705 Uani
C21 C 0.895(2) 0.5906(12) 0.9225(15) 0.0728 Uani
H27 H 0.7999 0.5874 0.9408 0.0880 Uiso
H28 H 0.9591 0.5851 0.9739 0.0880 Uiso
C22 C 0.919(2) 0.5424(11) 0.8595(17) 0.0747 Uani
H29 H 1.0137 0.5454 0.8409 0.0900 Uiso
H30 H 0.9080 0.5028 0.8866 0.0900 Uiso
C23 C 0.913(2) 0.7003(10) 0.9436(16) 0.0735 Uani
H31 H 0.9418 0.7366 0.9132 0.0880 Uiso
H32 H 0.9818 0.6932 0.9920 0.0880 Uiso
C24 C 0.775(2) 0.7132(10) 0.9802(14) 0.0697 Uani
C25 C 0.690(3) 0.7553(10) 0.9419(16) 0.0710 Uani
H33 H 0.7219 0.7780 0.8957 0.0850 Uiso
C26 C 0.559(3) 0.7662(11) 0.9682(16) 0.0704 Uani
H34 H 0.5013 0.7954 0.9400 0.0850 Uiso
N6 N 0.514(2) 0.7333(10) 1.0366(14) 0.0729 Uani
C27 C 0.597(3) 0.6967(10) 1.0757(15) 0.0702 Uani
H35 H 0.5680 0.6769 1.1252 0.0840 Uiso
C28 C 0.729(3) 0.6840(10) 1.0494(14) 0.0726 Uani
H36 H 0.7855 0.6552 1.0795 0.0870 Uiso
Ag1B Ag 0.31176(19) 0.75249(8) 1.07738(13) 0.0765 Uani
Ag2A Ag 0.61360(11) 0.54396(6) 0.83182(9) 0.0531 Uani
N4A N 0.823(2) 0.4517(8) 0.2874(16) 0.0621 Uani
N6B N 1.014(2) 0.2333(10) 0.0366(14) 0.0729 Uani
B1 B 0.693(5) 0.6609(16) 0.344(3) 0.1044 Uani
F1 F 0.5836(19) 0.6234(10) 0.3407(17) 0.1551 Uani
F2 F 0.631(4) 0.7115(12) 0.307(3) 0.2155 Uani
F3 F 0.768(4) 0.6551(13) 0.2760(16) 0.1715 Uani
F4 F 0.765(3) 0.6604(17) 0.4213(16) 0.1806 Uani
B2 B 0.136(3) 0.4072(14) 0.6269(18) 0.0690 Uani
F5 F 0.1918(14) 0.3658(6) 0.5721(9) 0.0823 Uani
F6 F 0.0039(13) 0.3891(6) 0.6394(9) 0.0782 Uani
F7 F 0.214(2) 0.4073(8) 0.7047(12) 0.1064 Uani
F8 F 0.1390(16) 0.4628(6) 0.5896(11) 0.0885 Uani
O1 O 0.374(3) 0.3045(10) 0.7402(15) 0.0746 Uani
O2 O 1.103(3) 0.5813(15) 0.5270(19) 0.0930 Uani
O3 O 1.052(3) 0.6140(11) 0.3498(16) 0.0842 Uani
loop_
_atom_site_aniso_label
_atom_site_aniso_U_11
_atom_site_aniso_U_22
_atom_site_aniso_U_33
_atom_site_aniso_U_23
_atom_site_aniso_U_13
_atom_site_aniso_U_12
Ag1 0.0717(10) 0.0695(10) 0.0894(11) -0.0187(8) 0.0141(9) 0.0076(9)
Ag2 0.0470(6) 0.0550(7) 0.0578(6) 0.0014(7) 0.0071(5) 0.0017(7)
N1 0.068(12) 0.064(12) 0.061(10) -0.009(9) 0.005(8) 0.005(9)
C1 0.096(19) 0.052(12) 0.083(16) 0.003(11) -0.005(14) -0.001(11)
C2 0.081(16) 0.057(12) 0.073(14) -0.016(10) 0.026(11) -0.006(11)
C3 0.064(12) 0.057(10) 0.063(11) 0.002(9) 0.005(9) -0.018(9)
C4 0.061(12) 0.060(11) 0.076(13) -0.012(10) -0.005(10) 0.004(11)
C5 0.080(15) 0.063(12) 0.066(13) 0.007(10) 0.004(11) -0.011(11)
C6 0.066(13) 0.091(16) 0.068(12) 0.004(12) 0.002(10) -0.030(13)
N2 0.054(10) 0.074(11) 0.086(12) 0.005(10) 0.013(9) 0.001(9)
C7 0.046(11) 0.083(14) 0.069(12) -0.004(11) -0.001(9) 0.010(10)
C8 0.033(9) 0.073(14) 0.084(15) 0.009(11) 0.005(9) 0.005(9)
N3 0.034(9) 0.076(11) 0.056(10) 0.000(9) 0.012(8) -0.001(8)
C9 0.054(11) 0.056(10) 0.060(11) -0.004(9) 0.018(9) -0.009(9)
C10 0.059(12) 0.059(11) 0.062(11) 0.015(9) 0.011(9) -0.011(9)
C11 0.057(12) 0.064(12) 0.083(15) 0.007(11) 0.025(10) 0.004(10)
C12 0.060(12) 0.052(10) 0.071(13) -0.003(9) 0.023(10) 0.007(9)
C13 0.082(17) 0.059(12) 0.082(16) -0.018(11) 0.030(13) -0.011(11)
C14 0.062(12) 0.075(13) 0.075(14) -0.021(12) 0.021(11) 0.006(11)
C15 0.054(11) 0.048(9) 0.071(13) -0.007(9) 0.026(9) 0.003(8)
C16 0.081(16) 0.059(11) 0.047(11) 0.000(9) 0.015(10) 0.010(11)
C17 0.079(15) 0.058(11) 0.069(14) -0.010(10) 0.031(12) -0.010(11)
C18 0.062(13) 0.065(12) 0.069(12) 0.000(10) 0.018(10) 0.011(10)
N4 0.052(11) 0.070(12) 0.064(12) 0.002(8) 0.002(9) -0.003(8)
C19 0.064(13) 0.056(11) 0.089(15) -0.007(11) 0.009(11) -0.010(10)
C20 0.062(13) 0.076(14) 0.066(12) -0.004(11) 0.005(9) -0.018(11)
N5 0.068(11) 0.073(11) 0.070(11) -0.002(9) 0.002(9) 0.013(9)
C21 0.048(12) 0.098(17) 0.071(13) -0.013(12) -0.006(10) 0.008(11)
C22 0.050(11) 0.081(15) 0.092(17) -0.008(12) -0.004(11) 0.006(10)
C23 0.060(13) 0.074(13) 0.085(15) 0.001(12) -0.006(11) -0.022(11)
C24 0.073(14) 0.066(12) 0.067(13) -0.017(11) -0.019(10) 0.006(11)
C25 0.073(15) 0.063(12) 0.077(13) -0.015(11) 0.004(11) -0.010(11)
C26 0.067(14) 0.070(13) 0.073(13) -0.002(11) -0.004(11) 0.006(11)
N6 0.080(14) 0.062(10) 0.078(13) -0.010(10) 0.014(11) 0.000(10)
C27 0.080(15) 0.062(12) 0.068(13) 0.007(11) 0.000(11) 0.008(12)
C28 0.094(18) 0.058(11) 0.065(13) 0.003(10) -0.001(11) 0.007(11)
Ag1B 0.0717 0.0695 0.0894 -0.0187 0.0141 0.0076
Ag2A 0.047 0.055 0.0578 -0.0014 0.0071 -0.0017
N4A 0.052 0.07 0.064 -0.002 0.002 0.003
N6B 0.08 0.062 0.078 -0.01 0.014 0
B1 0.13(2) 0.077(15) 0.111(16) -0.016(15) 0.043(12) -0.036(13)
F1 0.092(13) 0.166(16) 0.20(2) 0.102(17) -0.043(12) -0.050(12)
F2 0.25(2) 0.115(12) 0.29(2) 0.060(16) 0.080(18) 0.003(14)
F3 0.22(3) 0.17(2) 0.135(13) -0.058(16) 0.089(17) -0.066(16)
F4 0.141(15) 0.27(2) 0.132(11) -0.048(14) 0.019(10) -0.090(15)
B2 0.060(15) 0.076(16) 0.070(16) 0.010(13) -0.003(12) 0.002(12)
F5 0.075(8) 0.076(7) 0.099(9) 0.011(7) 0.029(7) 0.012(6)
F6 0.070(8) 0.072(7) 0.095(8) -0.017(6) 0.023(7) -0.019(6)
F7 0.112(13) 0.098(11) 0.106(11) -0.015(9) -0.015(9) -0.009(9)
F8 0.075(9) 0.080(9) 0.111(11) 0.009(8) 0.011(8) -0.018(7)
O1 0.072(14) 0.073(14) 0.080(14) -0.013(11) 0.015(11) -0.025(12)
O2 0.081(19) 0.11(2) 0.089(18) 0.001(16) 0.014(14) -0.006(16)
O3 0.091(17) 0.076(14) 0.087(17) -0.008(12) 0.017(13) -0.004(13)
loop_
_geom_bond_atom_site_label_1
_geom_bond_atom_site_label_2
_geom_bond_site_symmetry_1
_geom_bond_site_symmetry_2
Ag1 N1 1_555 1_555
Ag2 N3 1_555 1_555
N1 C1 1_555 1_555
C1 H1 1_555 1_555
C2 C1 1_555 1_555
H2 C2 1_555 1_555
C3 C2 1_555 1_555
C4 C3 1_555 1_555
H3 C4 1_555 1_555
C5 N1 1_555 1_555
H4 C5 1_555 1_555
C6 C3 1_555 1_555
H5 C6 1_555 1_555
H6 C6 1_555 1_555
N2 C6 1_555 1_555
C7 N2 1_555 1_555
H7 C7 1_555 1_555
H8 C7 1_555 1_555
C8 C7 1_555 1_555
H9 C8 1_555 1_555
H10 C8 1_555 1_555
N3 C8 1_555 1_555
C9 N3 1_555 1_555
H11 C9 1_555 1_555
H12 C9 1_555 1_555
C10 N2 1_555 1_555
H13 C10 1_555 1_555
H14 C10 1_555 1_555
C11 N3 1_555 1_555
H15 C11 1_555 1_555
H16 C11 1_555 1_555
C12 C11 1_555 1_555
C13 C12 1_555 1_555
H17 C13 1_555 1_555
C14 C13 1_555 1_555
H18 C14 1_555 1_555
C15 C14 1_555 1_555
C16 C15 1_555 1_555
H19 C16 1_555 1_555
C17 C12 1_555 1_555
H20 C17 1_555 1_555
C18 C15 1_555 1_555
H21 C18 1_555 1_555
H22 C18 1_555 1_555
N4 C18 1_555 1_555
C19 N4 1_555 1_555
H23 C19 1_555 1_555
H24 C19 1_555 1_555
C20 C19 1_555 1_555
H25 C20 1_555 1_555
H26 C20 1_555 1_555
N5 C20 1_555 1_555
C21 N5 1_555 1_555
H27 C21 1_555 1_555
H28 C21 1_555 1_555
C22 N4 1_555 1_555
H29 C22 1_555 1_555
H30 C22 1_555 1_555
C23 N5 1_555 1_555
H31 C23 1_555 1_555
H32 C23 1_555 1_555
C24 C23 1_555 1_555
C25 C24 1_555 1_555
H33 C25 1_555 1_555
C26 C25 1_555 1_555
H34 C26 1_555 1_555
N6 C26 1_555 1_555
C27 N6 1_555 1_555
H35 C27 1_555 1_555
C28 C24 1_555 1_555
H36 C28 1_555 1_555
B1 F1 1_555 1_555
F2 B1 1_555 1_555
F3 B1 1_555 1_555
F4 B1 1_555 1_555
B2 F5 1_555 1_555
F6 B2 1_555 1_555
F7 B2 1_555 1_555
F8 B2 1_555 1_555
Ag1B N6 1_555 1_555
Ag2A N4 1_555 1_555
N4A Ag2 1_555 1_555
N6B Ag1 1_555 1_555
C4 C5 1_555 1_555
C9 C10 1_555 1_555
C16 C17 1_555 1_555
C21 C22 1_555 1_555
C27 C28 1_555 1_555

#END
