
#######################################################################
#
#                 Cambridge Crystallographic Data Centre
#                                CCDC 
#
#######################################################################
#
# If this CIF has been generated from an entry in the Cambridge 
# Structural Database, then it will include bibliographic, chemical, 
# crystal, experimental, refinement or atomic coordinate data resulting 
# from the CCDC's data processing and validation procedures.
#
#######################################################################

data_OTODEI
_chemical_formula_moiety         '(C30 H39 Ag2 B1 F4 N7 1+)n'
_symmetry_cell_setting           monoclinic
_symmetry_space_group_name_H-M   'C 2/c'
_symmetry_Int_Tables_number      15
_space_group_name_Hall           '-C 2yc'
loop_
_symmetry_equiv_pos_site_id
_symmetry_equiv_pos_as_xyz
1 x,y,z
2 -x,y,1/2-z
3 1/2+x,1/2+y,z
4 1/2-x,1/2+y,1/2-z
5 -x,-y,-z
6 x,-y,1/2+z
7 1/2-x,1/2-y,-z
8 1/2+x,1/2-y,1/2+z
_cell_length_a                   12.282(3)
_cell_length_b                   22.790(5)
_cell_length_c                   13.580(3)
_cell_angle_alpha                90
_cell_angle_beta                 91.87(3)
_cell_angle_gamma                90
_cell_volume                     3799.11
loop_
_atom_site_label
_atom_site_type_symbol
_atom_site_fract_x
_atom_site_fract_y
_atom_site_fract_z
_atom_site_U_iso_or_equiv
_atom_site_thermal_displace_type
Ag1 Ag 0.2500 0.2500 0.5000 0.0567 Uani
Ag2 Ag 0.5000 0.45117(2) 0.2500 0.0233 Uani
N1 N 0.4192(4) 0.26468(18) 0.4813(3) 0.0491 Uani
C1 C 0.4699(4) 0.2350(2) 0.4102(3) 0.0462 Uani
H1 H 0.4310 0.2050 0.3757 0.0560 Uiso
C2 C 0.5743(4) 0.24629(19) 0.3860(3) 0.0426 Uani
H2 H 0.6065 0.2242 0.3353 0.0510 Uiso
C3 C 0.6349(4) 0.29009(18) 0.4347(3) 0.0385 Uani
C4 C 0.5830(5) 0.31899(19) 0.5106(3) 0.0452 Uani
H3 H 0.6207 0.3483 0.5479 0.0540 Uiso
C5 C 0.4775(5) 0.3052(2) 0.5315(3) 0.0506 Uani
H4 H 0.4442 0.3252 0.5840 0.0610 Uiso
C6 C 0.7468(4) 0.30556(19) 0.4030(3) 0.0412 Uani
H5 H 0.7915 0.3171 0.4618 0.0500 Uiso
H6 H 0.7806 0.2702 0.3745 0.0500 Uiso
N2 N 0.7492(3) 0.35347(15) 0.3300(2) 0.0330 Uani
C7 C 0.7280(3) 0.41168(17) 0.3713(3) 0.0330 Uani
H7 H 0.7766 0.4185 0.4298 0.0400 Uiso
H8 H 0.6517 0.4139 0.3924 0.0400 Uiso
C8 C 0.7475(3) 0.45815(17) 0.2946(3) 0.0314 Uani
H9 H 0.7348 0.4975 0.3227 0.0380 Uiso
H10 H 0.8240 0.4562 0.2740 0.0380 Uiso
N3 N 0.6727(2) 0.44851(13) 0.2080(2) 0.0258 Uani
C9 C 0.6967(3) 0.38963(16) 0.1669(3) 0.0286 Uani
H11 H 0.7729 0.3885 0.1453 0.0340 Uiso
H12 H 0.6481 0.3821 0.1087 0.0340 Uiso
C10 C 0.6803(3) 0.34255(16) 0.2435(3) 0.0290 Uani
H13 H 0.6030 0.3420 0.2622 0.0350 Uiso
H14 H 0.6979 0.3037 0.2156 0.0350 Uiso
C11 C 0.6903(3) 0.49452(17) 0.1323(3) 0.0311 Uani
H15 H 0.7565 0.4851 0.0957 0.0370 Uiso
H16 H 0.7018 0.5329 0.1651 0.0370 Uiso
C12 C 0.5938(3) 0.49830(15) 0.0615(3) 0.0267 Uani
C13 C 0.5055(3) 0.53396(15) 0.0848(3) 0.0277 Uani
H17 H 0.5093 0.5573 0.1427 0.0330 Uiso
C14 C 0.5873(3) 0.46449(15) -0.0244(3) 0.0282 Uani
H18 H 0.6470 0.4404 -0.0414 0.0340 Uiso
N1D N 0.5808(4) 0.73532(18) -0.4813(3) 0.0491 Uani
C1D C 0.5301(4) 0.7650(2) -0.4102(3) 0.0462 Uani
H1D H 0.5690 0.7950 -0.3757 0.0560 Uiso
C2D C 0.4257(4) 0.75371(19) -0.3860(3) 0.0426 Uani
H2D H 0.3935 0.7758 -0.3353 0.0510 Uiso
C3D C 0.3651(4) 0.70991(18) -0.4347(3) 0.0385 Uani
C4D C 0.4170(5) 0.68101(19) -0.5106(3) 0.0452 Uani
H3D H 0.3793 0.6517 -0.5479 0.0540 Uiso
C5D C 0.5225(5) 0.6948(2) -0.5315(3) 0.0506 Uani
H4D H 0.5558 0.6748 -0.5840 0.0610 Uiso
C6D C 0.2532(4) 0.69444(19) -0.4030(3) 0.0412 Uani
H5D H 0.2085 0.6829 -0.4618 0.0500 Uiso
H6D H 0.2194 0.7298 -0.3745 0.0500 Uiso
N2D N 0.2508(3) 0.64653(15) -0.3300(2) 0.0330 Uani
C7D C 0.2720(3) 0.58832(17) -0.3713(3) 0.0330 Uani
H7D H 0.2234 0.5815 -0.4298 0.0400 Uiso
H8D H 0.3483 0.5861 -0.3924 0.0400 Uiso
C8D C 0.2525(3) 0.54185(17) -0.2946(3) 0.0314 Uani
H9D H 0.2652 0.5025 -0.3227 0.0380 Uiso
H10D H 0.1760 0.5438 -0.2740 0.0380 Uiso
N3D N 0.3273(2) 0.55149(13) -0.2080(2) 0.0258 Uani
C9D C 0.3033(3) 0.61037(16) -0.1669(3) 0.0286 Uani
H11D H 0.2271 0.6115 -0.1453 0.0340 Uiso
H12D H 0.3519 0.6179 -0.1087 0.0340 Uiso
C10D C 0.3197(3) 0.65745(16) -0.2435(3) 0.0290 Uani
H13D H 0.3970 0.6580 -0.2622 0.0350 Uiso
H14D H 0.3021 0.6963 -0.2156 0.0350 Uiso
C11D C 0.3097(3) 0.50548(17) -0.1323(3) 0.0311 Uani
H15D H 0.2435 0.5149 -0.0957 0.0370 Uiso
H16D H 0.2982 0.4671 -0.1651 0.0370 Uiso
C12D C 0.4062(3) 0.50170(15) -0.0615(3) 0.0267 Uani
C13D C 0.4945(3) 0.46604(15) -0.0848(3) 0.0277 Uani
H17D H 0.4907 0.4427 -0.1427 0.0330 Uiso
C14D C 0.4127(3) 0.53551(15) 0.0244(3) 0.0282 Uani
H18D H 0.3530 0.5596 0.0414 0.0340 Uiso
Ag1B Ag 0.7500 0.7500 -0.5000 0.0567 Uani
Ag2D Ag 0.5000 0.54883(2) -0.2500 0.0233 Uani
N1F N 0.0808(4) 0.23532(18) 0.5187(3) 0.0491 Uani
N3A N 0.3273(2) 0.44851(13) 0.2920(2) 0.0258 Uani
N4 N 1.0246(14) 0.4235(9) 0.4532(15) 0.1236 Uani
C15 C 1.0137(11) 0.4314(8) 0.5361(13) 0.0864 Uani
C16 C 1.0007(9) 0.4450(9) 0.6359(15) 0.1198 Uani
H19 H 0.9822 0.4867 0.6422 0.1780 Uiso
H20 H 1.0687 0.4369 0.6731 0.1780 Uiso
H21 H 0.9420 0.4211 0.6620 0.1780 Uiso
B1 B 0.7747(5) 0.1470(2) 0.2208(5) 0.0513 Uani
F1 F 0.7356(4) 0.1308(2) 0.1247(4) 0.1026 Uani
F2 F 0.8705(3) 0.11847(16) 0.2325(3) 0.0708 Uani
F3 F 0.7096(5) 0.13477(19) 0.2947(5) 0.1544 Uani
F4 F 0.7877(3) 0.20659(13) 0.2138(2) 0.0614 Uani
loop_
_atom_site_aniso_label
_atom_site_aniso_U_11
_atom_site_aniso_U_22
_atom_site_aniso_U_33
_atom_site_aniso_U_23
_atom_site_aniso_U_13
_atom_site_aniso_U_12
Ag1 0.0795(4) 0.0424(3) 0.0498(3) 0.0097(2) 0.0282(3) -0.0033(3)
Ag2 0.02476(18) 0.02018(18) 0.02478(18) 0.000 -0.00114(12) 0.000
N1 0.076(3) 0.0332(19) 0.039(2) 0.0077(16) 0.0156(19) 0.0058(19)
C1 0.070(3) 0.034(2) 0.035(2) 0.0025(18) 0.009(2) 0.005(2)
C2 0.063(3) 0.034(2) 0.031(2) 0.0019(16) 0.0030(19) 0.0132(19)
C3 0.062(3) 0.0274(18) 0.0260(18) 0.0089(15) 0.0003(17) 0.0157(18)
C4 0.079(3) 0.0260(19) 0.031(2) 0.0027(16) 0.007(2) 0.008(2)
C5 0.087(4) 0.031(2) 0.035(2) 0.0044(18) 0.022(2) 0.009(2)
C6 0.055(3) 0.033(2) 0.035(2) 0.0034(17) -0.0098(18) 0.0173(19)
N2 0.0372(16) 0.0291(16) 0.0322(16) 0.0001(13) -0.0062(13) 0.0111(13)
C7 0.0383(19) 0.0301(18) 0.0298(18) -0.0024(15) -0.0090(15) 0.0036(15)
C8 0.0283(16) 0.0304(18) 0.0351(19) -0.0024(15) -0.0055(14) -0.0025(14)
N3 0.0277(14) 0.0228(14) 0.0269(14) 0.0019(12) -0.0009(11) 0.0002(11)
C9 0.0325(17) 0.0265(17) 0.0268(16) 0.0001(14) 0.0005(13) 0.0050(14)
C10 0.0355(18) 0.0242(16) 0.0269(16) 0.0017(14) -0.0035(14) 0.0061(14)
C11 0.0351(18) 0.0260(17) 0.0323(18) 0.0049(15) 0.0034(14) -0.0052(14)
C12 0.0375(18) 0.0195(15) 0.0234(16) 0.0058(13) 0.0047(13) -0.0008(13)
C13 0.046(2) 0.0173(14) 0.0201(15) 0.0022(12) 0.0056(14) 0.0023(14)
C14 0.0410(19) 0.0183(15) 0.0257(16) 0.0042(13) 0.0073(14) 0.0057(13)
N1D 0.076 0.0332 0.039 0.0077 0.0156 0.0058
C1D 0.07 0.034 0.035 0.0025 0.009 0.005
C2D 0.063 0.034 0.031 0.0019 0.003 0.0132
C3D 0.062 0.0274 0.026 0.0089 0.0003 0.0157
C4D 0.079 0.026 0.031 0.0027 0.007 0.008
C5D 0.087 0.031 0.035 0.0044 0.022 0.009
C6D 0.055 0.033 0.035 0.0034 -0.0098 0.0173
N2D 0.0372 0.0291 0.0322 0.0001 -0.0062 0.0111
C7D 0.0383 0.0301 0.0298 -0.0024 -0.009 0.0036
C8D 0.0283 0.0304 0.0351 -0.0024 -0.0055 -0.0025
N3D 0.0277 0.0228 0.0269 0.0019 -0.0009 0.0002
C9D 0.0325 0.0265 0.0268 0.0001 0.0005 0.005
C10D 0.0355 0.0242 0.0269 0.0017 -0.0035 0.0061
C11D 0.0351 0.026 0.0323 0.0049 0.0034 -0.0052
C12D 0.0375 0.0195 0.0234 0.0058 0.0047 -0.0008
C13D 0.046 0.0173 0.0201 0.0022 0.0056 0.0023
C14D 0.041 0.0183 0.0257 0.0042 0.0073 0.0057
Ag1B 0.0795 0.0424 0.0498 0.0097 0.0282 -0.0033
Ag2D 0.02476 0.02018 0.02478 0 -0.00114 0
N1F 0.076 0.0332 0.039 0.0077 0.0156 0.0058
N3A 0.0277 0.0228 0.0269 -0.0019 -0.0009 -0.0002
N4 0.099(11) 0.120(14) 0.152(17) -0.062(13) 0.005(12) -0.012(10)
C15 0.048(7) 0.086(11) 0.124(15) 0.015(11) -0.014(8) -0.001(7)
C16 0.024(5) 0.126(15) 0.21(2) -0.075(15) 0.011(8) -0.002(7)
B1 0.060(3) 0.028(2) 0.066(4) -0.002(2) 0.005(3) 0.013(2)
F1 0.092(3) 0.086(3) 0.128(4) -0.050(3) -0.024(3) 0.026(2)
F2 0.080(2) 0.069(2) 0.065(2) 0.0245(17) 0.0288(17) 0.0437(18)
F3 0.165(5) 0.059(2) 0.250(7) 0.054(3) 0.173(5) 0.046(3)
F4 0.089(2) 0.0347(15) 0.0618(19) 0.0056(13) 0.0206(17) 0.0199(15)
loop_
_geom_bond_atom_site_label_1
_geom_bond_atom_site_label_2
_geom_bond_site_symmetry_1
_geom_bond_site_symmetry_2
Ag1 N1 1_555 1_555
Ag2 N3 1_555 1_555
N1 C1 1_555 1_555
C1 H1 1_555 1_555
C2 C1 1_555 1_555
H2 C2 1_555 1_555
C3 C2 1_555 1_555
C4 C3 1_555 1_555
H3 C4 1_555 1_555
C5 N1 1_555 1_555
H4 C5 1_555 1_555
C6 C3 1_555 1_555
H5 C6 1_555 1_555
H6 C6 1_555 1_555
N2 C6 1_555 1_555
C7 N2 1_555 1_555
H7 C7 1_555 1_555
H8 C7 1_555 1_555
C8 C7 1_555 1_555
H9 C8 1_555 1_555
H10 C8 1_555 1_555
N3 C8 1_555 1_555
C9 N3 1_555 1_555
H11 C9 1_555 1_555
H12 C9 1_555 1_555
C10 N2 1_555 1_555
H13 C10 1_555 1_555
H14 C10 1_555 1_555
C11 N3 1_555 1_555
H15 C11 1_555 1_555
H16 C11 1_555 1_555
C12 C11 1_555 1_555
C13 C12 1_555 1_555
H17 C13 1_555 1_555
C14 C12 1_555 1_555
H18 C14 1_555 1_555
N4 C15 1_555 1_555
C15 C16 1_555 1_555
C16 H19 1_555 1_555
H20 C16 1_555 1_555
H21 C16 1_555 1_555
B1 F1 1_555 1_555
F2 B1 1_555 1_555
F3 B1 1_555 1_555
F4 B1 1_555 1_555
N1D C1D 1_555 1_555
C1D H1D 1_555 1_555
C2D C1D 1_555 1_555
H2D C2D 1_555 1_555
C3D C2D 1_555 1_555
C4D C3D 1_555 1_555
H3D C4D 1_555 1_555
C5D N1D 1_555 1_555
H4D C5D 1_555 1_555
C6D C3D 1_555 1_555
H5D C6D 1_555 1_555
H6D C6D 1_555 1_555
N2D C6D 1_555 1_555
C7D N2D 1_555 1_555
H7D C7D 1_555 1_555
H8D C7D 1_555 1_555
C8D C7D 1_555 1_555
H9D C8D 1_555 1_555
H10D C8D 1_555 1_555
N3D C8D 1_555 1_555
C9D N3D 1_555 1_555
H11D C9D 1_555 1_555
H12D C9D 1_555 1_555
C10D N2D 1_555 1_555
H13D C10D 1_555 1_555
H14D C10D 1_555 1_555
C11D N3D 1_555 1_555
H15D C11D 1_555 1_555
H16D C11D 1_555 1_555
C12D C11D 1_555 1_555
C13D C14 1_555 1_555
H17D C13D 1_555 1_555
C14D C13 1_555 1_555
H18D C14D 1_555 1_555
Ag1B N1D 1_555 1_555
Ag2D N3D 1_555 1_555
N1F Ag1 1_555 1_555
N3A Ag2 1_555 1_555
C4 C5 1_555 1_555
C9 C10 1_555 1_555
C4D C5D 1_555 1_555
C9D C10D 1_555 1_555
C12D C13D 1_555 1_555
C12D C14D 1_555 1_555

#END
