
#######################################################################
#
#                 Cambridge Crystallographic Data Centre
#                                CCDC 
#
#######################################################################
#
# If this CIF has been generated from an entry in the Cambridge 
# Structural Database, then it will include bibliographic, chemical, 
# crystal, experimental, refinement or atomic coordinate data resulting 
# from the CCDC's data processing and validation procedures.
#
#######################################################################

data_MABJOP
_chemical_formula_moiety         '(C20 H20 Cu2 N2 O8)n'
_symmetry_cell_setting           monoclinic
_symmetry_space_group_name_H-M   'C 2/c'
_symmetry_Int_Tables_number      15
_space_group_name_Hall           '-C 2yc'
loop_
_symmetry_equiv_pos_site_id
_symmetry_equiv_pos_as_xyz
1 x,y,z
2 1/2+x,1/2+y,z
3 -x,y,1/2-z
4 1/2-x,1/2+y,1/2-z
5 -x,-y,-z
6 1/2-x,1/2-y,-z
7 x,-y,1/2+z
8 1/2+x,1/2-y,1/2+z
_cell_length_a                   21.011(2)
_cell_length_b                   13.0520(14)
_cell_length_c                   8.5284(9)
_cell_angle_alpha                90
_cell_angle_beta                 100.679(2)
_cell_angle_gamma                90
_cell_volume                     2298.28
loop_
_atom_site_label
_atom_site_type_symbol
_atom_site_fract_x
_atom_site_fract_y
_atom_site_fract_z
Cu1 Cu 0.301817(14) 0.29578(2) 0.07435(3)
N1 N 0.37960(11) 0.37295(17) 0.2273(2)
O1 O 0.33367(9) 0.15761(13) 0.1341(2)
O2 O 0.24473(9) 0.07939(13) 0.0089(2)
O3 O 0.24745(9) -0.20605(14) 0.2518(2)
O4 O 0.33755(9) -0.28031(14) 0.3788(2)
C1 C 0.30023(12) 0.07989(19) 0.0933(3)
C2 C 0.32857(14) -0.0213(2) 0.1552(3)
H1 H 0.3122 -0.0381 0.2539
H2 H 0.3762 -0.0136 0.1847
C3 C 0.31398(13) -0.1112(2) 0.0407(3)
H3 H 0.2668 -0.1145 -0.0004
H4 H 0.3359 -0.1003 -0.0513
C4 C 0.33649(13) -0.21210(19) 0.1209(3)
H5 H 0.3268 -0.2682 0.0420
H6 H 0.3840 -0.2097 0.1578
C5 C 0.30442(13) -0.23499(19) 0.2612(3)
C6 C 0.37956(16) 0.4727(3) 0.2441(5)
H7 H 0.3461 0.5111 0.1798
C7 C 0.42551(17) 0.5246(3) 0.3500(5)
H8 H 0.4230 0.5971 0.3579
C8 C 0.47466(13) 0.4730(2) 0.4439(3)
C9 C 0.47349(15) 0.3690(2) 0.4294(4)
H9 H 0.5056 0.3287 0.4948
C10 C 0.42608(16) 0.3225(2) 0.3208(4)
H10 H 0.4268 0.2500 0.3124
C8D C 0.52534(13) 0.5270(2) 0.5561(3)
C7D C 0.57449(17) 0.4754(3) 0.6500(5)
C6D C 0.62044(16) 0.5273(3) 0.7559(5)
N1D N 0.62040(11) 0.62705(17) 0.7727(2)
C10D C 0.57392(16) 0.6775(2) 0.6792(4)
C9D C 0.52651(15) 0.6310(2) 0.5706(4)
H9D H 0.4944 0.6713 0.5052
H10D H 0.5732 0.7500 0.6876
H7D H 0.6539 0.4889 0.8202
H8D H 0.5770 0.4029 0.6421
O1E O 0.16633(9) 0.34239(13) -0.1341(2)
O2E O 0.25527(9) 0.42061(13) -0.0089(2)
O3E O 0.25255(9) 0.70605(14) -0.2518(2)
O4E O 0.16245(9) 0.78031(14) -0.3788(2)
C1E C 0.19977(12) 0.42011(19) -0.0933(3)
C2E C 0.17143(14) 0.5213(2) -0.1552(3)
H1E H 0.1878 0.5381 -0.2539
H2E H 0.1238 0.5136 -0.1847
C3E C 0.18602(13) 0.6112(2) -0.0407(3)
H3E H 0.2332 0.6145 0.0004
H4E H 0.1641 0.6003 0.0513
C4E C 0.16351(13) 0.71210(19) -0.1209(3)
H5E H 0.1732 0.7682 -0.0420
H6E H 0.1160 0.7097 -0.1578
C5E C 0.19558(13) 0.73499(19) -0.2612(3)
Cu1D Cu 0.698183(14) 0.70422(2) 0.92565(3)
Cu1E Cu 0.198183(14) 0.20422(2) -0.07435(3)
O3C O 0.25255(9) 0.29395(14) 0.2482(2)
O4F O 0.33755(9) 0.28031(14) -0.1212(2)
Cu1C Cu 0.198183(14) -0.20422(2) 0.42565(3)
Cu1F Cu 0.301817(14) -0.29578(2) 0.57435(3)
Cu1F_2 Cu 0.301817(14) 0.70422(2) -0.42565(3)
Cu1C_2 Cu 0.198183(14) 0.79578(2) -0.57435(3)
Cu1A Cu 0.801817(14) 0.79578(2) 1.07435(3)
O1D O 0.66633(9) 0.84239(13) 0.8659(2)
O2A O 0.74473(9) 0.57939(13) 1.0089(2)
O3G O 0.74745(9) 0.70605(14) 0.7518(2)
O4B O 0.66245(9) 0.71969(14) 1.1212(2)
loop_
_geom_bond_atom_site_label_1
_geom_bond_atom_site_label_2
_geom_bond_site_symmetry_1
_geom_bond_site_symmetry_2
Cu1 N1 1_555 1_555
N1 C6 1_555 1_555
O1 Cu1 1_555 1_555
O2 C1 1_555 1_555
O3 C5 1_555 1_555
O4 C5 1_555 1_555
C1 O1 1_555 1_555
C2 C1 1_555 1_555
H1 C2 1_555 1_555
H2 C2 1_555 1_555
C3 C2 1_555 1_555
H3 C3 1_555 1_555
H4 C3 1_555 1_555
C4 C3 1_555 1_555
H5 C4 1_555 1_555
H6 C4 1_555 1_555
C5 C4 1_555 1_555
C6 H7 1_555 1_555
C7 C6 1_555 1_555
H8 C7 1_555 1_555
C8 C7 1_555 1_555
C9 C8 1_555 1_555
H9 C9 1_555 1_555
C10 N1 1_555 1_555
H10 C10 1_555 1_555
C8D C8 1_555 1_555
C7D C8D 1_555 1_555
C6D C7D 1_555 1_555
N1D C6D 1_555 1_555
C10D N1D 1_555 1_555
C9D C8D 1_555 1_555
H9D C9D 1_555 1_555
H10D C10D 1_555 1_555
H7D C6D 1_555 1_555
H8D C7D 1_555 1_555
O1E C1E 1_555 1_555
O2E Cu1 1_555 1_555
O3E C5E 1_555 1_555
O4E C5E 1_555 1_555
C1E O2E 1_555 1_555
C2E C1E 1_555 1_555
H1E C2E 1_555 1_555
H2E C2E 1_555 1_555
C3E C2E 1_555 1_555
H3E C3E 1_555 1_555
H4E C3E 1_555 1_555
C4E C3E 1_555 1_555
H5E C4E 1_555 1_555
H6E C4E 1_555 1_555
C5E C4E 1_555 1_555
Cu1D N1D 1_555 1_555
Cu1E Cu1 1_555 1_555
O3C Cu1 1_555 1_555
O4F Cu1 1_555 1_555
Cu1C O3 1_555 1_555
Cu1F O4 1_555 1_555
Cu1F_2 O3E 1_555 1_555
Cu1C_2 O4E 1_555 1_555
Cu1A Cu1D 1_555 1_555
O1D Cu1D 1_555 1_555
O2A Cu1D 1_555 1_555
O3G Cu1D 1_555 1_555
O4B Cu1D 1_555 1_555
O2 Cu1E 1_555 1_555
C9 C10 1_555 1_555
C10D C9D 1_555 1_555
O1E Cu1E 1_555 1_555
Cu1C Cu1F 1_555 1_555
Cu1F_2 Cu1C_2 1_555 1_555

#END
