
#######################################################################
#
#                 Cambridge Crystallographic Data Centre
#                                CCDC 
#
#######################################################################
#
# If this CIF has been generated from an entry in the Cambridge 
# Structural Database, then it will include bibliographic, chemical, 
# crystal, experimental, refinement or atomic coordinate data resulting 
# from the CCDC's data processing and validation procedures.
#
#######################################################################

data_MABJUV
_chemical_formula_moiety         '(C20 H24 Cu2 N2 O10)n'
_symmetry_cell_setting           monoclinic
_symmetry_space_group_name_H-M   'C 2/c'
_symmetry_Int_Tables_number      15
_space_group_name_Hall           '-C 2yc'
loop_
_symmetry_equiv_pos_site_id
_symmetry_equiv_pos_as_xyz
1 x,y,z
2 1/2+x,1/2+y,z
3 -x,y,1/2-z
4 1/2-x,1/2+y,1/2-z
5 -x,-y,-z
6 1/2-x,1/2-y,-z
7 x,-y,1/2+z
8 1/2+x,1/2-y,1/2+z
_cell_length_a                   21.351(2)
_cell_length_b                   13.1381(13)
_cell_length_c                   8.5699(9)
_cell_angle_alpha                90
_cell_angle_beta                 101.007(2)
_cell_angle_gamma                90
_cell_volume                     2359.73
loop_
_atom_site_label
_atom_site_type_symbol
_atom_site_fract_x
_atom_site_fract_y
_atom_site_fract_z
Cu1 Cu 0.302182(15) 0.29456(3) 0.07568(4)
N1 N 0.37958(11) 0.3723(2) 0.2283(3)
O1 O 0.33266(10) 0.15573(16) 0.1346(3)
O2 O 0.24366(10) 0.08061(16) 0.0091(3)
O3 O 0.24667(10) -0.20829(16) 0.2512(3)
O4 O 0.33698(11) -0.27828(17) 0.3801(3)
C1 C 0.29854(14) 0.0790(2) 0.0941(3)
C2 C 0.32458(15) -0.0224(2) 0.1583(3)
H1 H 0.3058 -0.0392 0.2522
H2 H 0.3712 -0.0156 0.1951
C3 C 0.31212(15) -0.1107(2) 0.0414(3)
H3 H 0.3346 -0.0981 -0.0476
H4 H 0.2658 -0.1147 -0.0030
C4 C 0.33457(15) -0.2124(2) 0.1204(4)
H5 H 0.3244 -0.2677 0.0412
H6 H 0.3815 -0.2106 0.1561
C5 C 0.30359(14) -0.2352(2) 0.2614(3)
C6 C 0.38007(17) 0.4726(3) 0.2419(5)
H7 H 0.3473 0.5104 0.1764
C7 C 0.42610(19) 0.5249(3) 0.3469(6)
H8 H 0.4244 0.5971 0.3521
C8 C 0.47442(14) 0.4730(2) 0.4440(3)
C9 C 0.47312(17) 0.3688(3) 0.4310(4)
H9 H 0.5050 0.3289 0.4956
C10 C 0.42512(18) 0.3222(3) 0.3233(4)
H10 H 0.4250 0.2500 0.3175
C8D C 0.52558(14) 0.5270(2) 0.5560(3)
C7D C 0.57390(19) 0.4751(3) 0.6531(6)
C6D C 0.61993(17) 0.5274(3) 0.7581(5)
N1D N 0.62042(11) 0.6277(2) 0.7717(3)
C10D C 0.57488(18) 0.6778(3) 0.6767(4)
C9D C 0.52688(17) 0.6312(3) 0.5690(4)
H9D H 0.4950 0.6711 0.5044
H10D H 0.5750 0.7500 0.6825
H7D H 0.6527 0.4896 0.8236
H8D H 0.5756 0.4029 0.6479
O1E O 0.16734(10) 0.34427(16) -0.1346(3)
O2E O 0.25634(10) 0.41939(16) -0.0091(3)
O3E O 0.25333(10) 0.70829(16) -0.2512(3)
O4E O 0.16302(11) 0.77828(17) -0.3801(3)
C1E C 0.20146(14) 0.4210(2) -0.0941(3)
C2E C 0.17542(15) 0.5224(2) -0.1583(3)
H1E H 0.1942 0.5392 -0.2522
H2E H 0.1288 0.5156 -0.1951
C3E C 0.18788(15) 0.6107(2) -0.0414(3)
H3E H 0.1654 0.5981 0.0476
H4E H 0.2342 0.6147 0.0030
C4E C 0.16543(15) 0.7124(2) -0.1204(4)
H5E H 0.1756 0.7677 -0.0412
H6E H 0.1185 0.7106 -0.1561
C5E C 0.19641(14) 0.7352(2) -0.2614(3)
Cu1D Cu 0.697818(15) 0.70544(3) 0.92432(4)
Cu1E Cu 0.197818(15) 0.20544(3) -0.07568(4)
O3C O 0.25333(10) 0.29171(16) 0.2488(3)
O4F O 0.33698(11) 0.27828(17) -0.1199(3)
Cu1C Cu 0.197818(15) -0.20544(3) 0.42432(4)
Cu1F Cu 0.302182(15) -0.29456(3) 0.57568(4)
Cu1F_2 Cu 0.302182(15) 0.70544(3) -0.42432(4)
Cu1C_2 Cu 0.197818(15) 0.79456(3) -0.57568(4)
Cu1A Cu 0.802182(15) 0.79456(3) 1.07568(4)
O1D O 0.66734(10) 0.84427(16) 0.8654(3)
O2A O 0.74366(10) 0.58061(16) 1.0091(3)
O3G O 0.74667(10) 0.70829(16) 0.7512(3)
O4B O 0.66302(11) 0.72172(17) 1.1199(3)
O5 O 0.5000 0.902(5) 0.2500
O6 O 0.5416(6) 0.8683(13) -0.027(3)
loop_
_geom_bond_atom_site_label_1
_geom_bond_atom_site_label_2
_geom_bond_site_symmetry_1
_geom_bond_site_symmetry_2
Cu1 N1 1_555 1_555
N1 C6 1_555 1_555
O1 Cu1 1_555 1_555
O2 C1 1_555 1_555
O3 C5 1_555 1_555
O4 C5 1_555 1_555
C1 O1 1_555 1_555
C2 C1 1_555 1_555
H1 C2 1_555 1_555
H2 C2 1_555 1_555
C3 C2 1_555 1_555
H3 C3 1_555 1_555
H4 C3 1_555 1_555
C4 C3 1_555 1_555
H5 C4 1_555 1_555
H6 C4 1_555 1_555
C5 C4 1_555 1_555
C6 H7 1_555 1_555
C7 C6 1_555 1_555
H8 C7 1_555 1_555
C8 C7 1_555 1_555
C9 C8 1_555 1_555
H9 C9 1_555 1_555
C10 N1 1_555 1_555
H10 C10 1_555 1_555
C8D C8 1_555 1_555
C7D C8D 1_555 1_555
C6D C7D 1_555 1_555
N1D C6D 1_555 1_555
C10D N1D 1_555 1_555
C9D C8D 1_555 1_555
H9D C9D 1_555 1_555
H10D C10D 1_555 1_555
H7D C6D 1_555 1_555
H8D C7D 1_555 1_555
O1E C1E 1_555 1_555
O2E Cu1 1_555 1_555
O3E C5E 1_555 1_555
O4E C5E 1_555 1_555
C1E O2E 1_555 1_555
C2E C1E 1_555 1_555
H1E C2E 1_555 1_555
H2E C2E 1_555 1_555
C3E C2E 1_555 1_555
H3E C3E 1_555 1_555
H4E C3E 1_555 1_555
C4E C3E 1_555 1_555
H5E C4E 1_555 1_555
H6E C4E 1_555 1_555
C5E C4E 1_555 1_555
Cu1D N1D 1_555 1_555
Cu1E Cu1 1_555 1_555
O3C Cu1 1_555 1_555
O4F Cu1 1_555 1_555
Cu1C O3 1_555 1_555
Cu1F O4 1_555 1_555
Cu1F_2 O3E 1_555 1_555
Cu1C_2 O4E 1_555 1_555
Cu1A Cu1D 1_555 1_555
O1D Cu1D 1_555 1_555
O2A Cu1D 1_555 1_555
O3G Cu1D 1_555 1_555
O4B Cu1D 1_555 1_555
O2 Cu1E 1_555 1_555
C9 C10 1_555 1_555
C10D C9D 1_555 1_555
O1E Cu1E 1_555 1_555
Cu1C Cu1F 1_555 1_555
Cu1F_2 Cu1C_2 1_555 1_555

#END
