
#######################################################################
#
#                 Cambridge Crystallographic Data Centre
#                                CCDC 
#
#######################################################################
#
# If this CIF has been generated from an entry in the Cambridge 
# Structural Database, then it will include bibliographic, chemical, 
# crystal, experimental, refinement or atomic coordinate data resulting 
# from the CCDC's data processing and validation procedures.
#
#######################################################################

data_MABKEG
_chemical_formula_moiety         '(C22 H28 Cu2 N2 O10)n'
_symmetry_cell_setting           monoclinic
_symmetry_space_group_name_H-M   'C 2/c'
_symmetry_Int_Tables_number      15
_space_group_name_Hall           '-C 2yc'
loop_
_symmetry_equiv_pos_site_id
_symmetry_equiv_pos_as_xyz
1 x,y,z
2 1/2+x,1/2+y,z
3 -x,y,1/2-z
4 1/2-x,1/2+y,1/2-z
5 -x,-y,-z
6 1/2-x,1/2-y,-z
7 x,-y,1/2+z
8 1/2+x,1/2-y,1/2+z
_cell_length_a                   24.047(8)
_cell_length_b                   11.784(4)
_cell_length_c                   9.059(3)
_cell_angle_alpha                90
_cell_angle_beta                 91.044(6)
_cell_angle_gamma                90
_cell_volume                     2566.62
loop_
_atom_site_label
_atom_site_type_symbol
_atom_site_fract_x
_atom_site_fract_y
_atom_site_fract_z
Cu1 Cu 0.20600(3) 0.22708(7) 0.41969(10)
N1 N 0.1408(2) 0.1663(5) 0.2732(7)
O1 O 0.2357(2) 0.0743(4) 0.4510(6)
O2 O 0.31094(19) 0.1108(4) 0.5874(6)
O3 O 0.33470(19) -0.2777(4) 0.8945(6)
O4 O 0.25858(19) -0.2486(4) 0.7598(6)
C1 C 0.2791(3) 0.0452(6) 0.5204(8)
C2 C 0.2898(3) -0.0790(6) 0.5238(9)
H1 H 0.2896 -0.1072 0.4208
H2 H 0.2585 -0.1162 0.5745
C3 C 0.3434(3) -0.1162(6) 0.5984(9)
H3 H 0.3495 -0.0702 0.6887
H4 H 0.3746 -0.1010 0.5314
C4 C 0.3438(3) -0.2420(6) 0.6403(8)
H5 H 0.3282 -0.2879 0.5579
H6 H 0.3825 -0.2675 0.6602
C5 C 0.3096(3) -0.2582(5) 0.7753(8)
C6 C 0.1443(3) 0.0646(6) 0.2134(8)
H7 H 0.1748 0.0177 0.2424
C7 C 0.1069(3) 0.0227(6) 0.1125(8)
H8 H 0.1121 -0.0502 0.0702
C8 C 0.0610(3) 0.0886(6) 0.0723(8)
C9 C 0.0576(3) 0.1941(6) 0.1332(8)
H9 H 0.0281 0.2435 0.1049
C10 C 0.0967(3) 0.2289(6) 0.2348(8)
H10 H 0.0922 0.3010 0.2802
C11 C 0.0187(3) 0.0445(6) -0.0363(8)
H11 H 0.0377 0.0100 -0.1212
H12 H -0.0045 0.1081 -0.0738
C11D C -0.0187(3) -0.0445(6) 0.0363(8)
C8D C -0.0610(3) -0.0886(6) -0.0723(8)
C7D C -0.1069(3) -0.0227(6) -0.1125(8)
C6D C -0.1443(3) -0.0646(6) -0.2134(8)
N1D N -0.1408(2) -0.1663(5) -0.2732(7)
C10D C -0.0967(3) -0.2289(6) -0.2348(8)
C9D C -0.0576(3) -0.1941(6) -0.1332(8)
H9D H -0.0281 -0.2435 -0.1049
H10D H -0.0922 -0.3010 -0.2802
H7D H -0.1748 -0.0177 -0.2424
H8D H -0.1121 0.0502 -0.0702
H11D H -0.0377 -0.0100 0.1212
H12D H 0.0045 -0.1081 0.0738
O1E O 0.2643(2) 0.4257(4) 0.5490(6)
O2E O 0.18906(19) 0.3892(4) 0.4126(6)
O3E O 0.16530(19) 0.7777(4) 0.1055(6)
O4E O 0.24142(19) 0.7486(4) 0.2402(6)
C1E C 0.2209(3) 0.4548(6) 0.4796(8)
C2E C 0.2102(3) 0.5790(6) 0.4762(9)
H1E H 0.2104 0.6072 0.5792
H2E H 0.2415 0.6162 0.4255
C3E C 0.1566(3) 0.6162(6) 0.4016(9)
H3E H 0.1505 0.5702 0.3113
H4E H 0.1254 0.6010 0.4686
C4E C 0.1562(3) 0.7420(6) 0.3597(8)
H5E H 0.1718 0.7879 0.4421
H6E H 0.1175 0.7675 0.3398
C5E C 0.1904(3) 0.7582(5) 0.2247(8)
Cu1D Cu -0.20600(3) -0.22708(7) -0.41969(10)
Cu1E Cu 0.29400(3) 0.27292(7) 0.58031(10)
O3C O 0.16530(19) 0.2223(4) 0.6055(6)
O4F O 0.25858(19) 0.2486(4) 0.2598(6)
Cu1C Cu 0.29400(3) -0.27292(7) 1.08031(10)
Cu1F Cu 0.20600(3) -0.22708(7) 0.91969(10)
Cu1F_2 Cu 0.20600(3) 0.77292(7) -0.08031(10)
Cu1C_2 Cu 0.29400(3) 0.72708(7) 0.08031(10)
Cu1A Cu -0.29400(3) -0.27292(7) -0.58031(10)
O1D O -0.2357(2) -0.0743(4) -0.4510(6)
O2A O -0.18906(19) -0.3892(4) -0.4126(6)
O3G O -0.16530(19) -0.2223(4) -0.6055(6)
O4B O -0.25858(19) -0.2486(4) -0.2598(6)
O5 O 0.0000 0.485(5) 0.2500
O6 O 0.053(2) 0.655(7) 0.073(4)
loop_
_geom_bond_atom_site_label_1
_geom_bond_atom_site_label_2
_geom_bond_site_symmetry_1
_geom_bond_site_symmetry_2
Cu1 N1 1_555 1_555
N1 C6 1_555 1_555
O1 Cu1 1_555 1_555
O2 C1 1_555 1_555
O3 C5 1_555 1_555
O4 C5 1_555 1_555
C1 O1 1_555 1_555
C2 C1 1_555 1_555
H1 C2 1_555 1_555
H2 C2 1_555 1_555
C3 C2 1_555 1_555
H3 C3 1_555 1_555
H4 C3 1_555 1_555
C4 C3 1_555 1_555
H5 C4 1_555 1_555
H6 C4 1_555 1_555
C5 C4 1_555 1_555
C6 H7 1_555 1_555
C7 C6 1_555 1_555
H8 C7 1_555 1_555
C8 C7 1_555 1_555
C9 C8 1_555 1_555
H9 C9 1_555 1_555
C10 N1 1_555 1_555
H10 C10 1_555 1_555
C11 C8 1_555 1_555
H11 C11 1_555 1_555
H12 C11 1_555 1_555
C11D C11 1_555 1_555
C8D C11D 1_555 1_555
C7D C8D 1_555 1_555
C6D C7D 1_555 1_555
N1D C6D 1_555 1_555
C10D N1D 1_555 1_555
C9D C8D 1_555 1_555
H9D C9D 1_555 1_555
H10D C10D 1_555 1_555
H7D C6D 1_555 1_555
H8D C7D 1_555 1_555
H11D C11D 1_555 1_555
H12D C11D 1_555 1_555
O1E C1E 1_555 1_555
O2E Cu1 1_555 1_555
O3E C5E 1_555 1_555
O4E C5E 1_555 1_555
C1E O2E 1_555 1_555
C2E C1E 1_555 1_555
H1E C2E 1_555 1_555
H2E C2E 1_555 1_555
C3E C2E 1_555 1_555
H3E C3E 1_555 1_555
H4E C3E 1_555 1_555
C4E C3E 1_555 1_555
H5E C4E 1_555 1_555
H6E C4E 1_555 1_555
C5E C4E 1_555 1_555
Cu1D N1D 1_555 1_555
Cu1E Cu1 1_555 1_555
O3C Cu1 1_555 1_555
O4F Cu1 1_555 1_555
Cu1C O3 1_555 1_555
Cu1F O4 1_555 1_555
Cu1F_2 O3E 1_555 1_555
Cu1C_2 O4E 1_555 1_555
Cu1A Cu1D 1_555 1_555
O1D Cu1D 1_555 1_555
O2A Cu1D 1_555 1_555
O3G Cu1D 1_555 1_555
O4B Cu1D 1_555 1_555
O2 Cu1E 1_555 1_555
C9 C10 1_555 1_555
C10D C9D 1_555 1_555
O1E Cu1E 1_555 1_555
Cu1C Cu1F 1_555 1_555
Cu1F_2 Cu1C_2 1_555 1_555

#END
