
#######################################################################
#
#                 Cambridge Crystallographic Data Centre
#                                CCDC 
#
#######################################################################
#
# If this CIF has been generated from an entry in the Cambridge 
# Structural Database, then it will include bibliographic, chemical, 
# crystal, experimental, refinement or atomic coordinate data resulting 
# from the CCDC's data processing and validation procedures.
#
#######################################################################

data_ATAHUA
_chemical_formula_moiety         '(C70 H48 Cd3 N8 O12)n'
_symmetry_cell_setting           orthorhombic
_symmetry_space_group_name_H-M   'P 21 21 21'
_symmetry_Int_Tables_number      19
_space_group_name_Hall           'P 2ac 2ab'
loop_
_symmetry_equiv_pos_site_id
_symmetry_equiv_pos_as_xyz
1 x,y,z
2 1/2-x,-y,1/2+z
3 1/2+x,1/2-y,-z
4 -x,1/2+y,1/2-z
_cell_length_a                   11.6274(18)
_cell_length_b                   19.663(4)
_cell_length_c                   32.678(6)
_cell_angle_alpha                90
_cell_angle_beta                 90
_cell_angle_gamma                90
_cell_volume                     7471.16
loop_
_atom_site_label
_atom_site_type_symbol
_atom_site_fract_x
_atom_site_fract_y
_atom_site_fract_z
_atom_site_U_iso_or_equiv
_atom_site_thermal_displace_type
C1 C 0.9400(11) 1.4608(8) 0.4420(6) 0.0543 Uani
C2 C 0.9133(15) 0.5336(9) -0.0232(5) 0.0607 Uani
C3 C 1.0038(15) 0.6151(9) 0.0254(5) 0.0663 Uani
H1 H 1.0591 0.5820 0.0305 0.0800 Uiso
C4 C 0.8007(14) 0.9275(8) 0.2003(5) 0.0617 Uani
H2 H 0.7890 0.9710 0.2106 0.0740 Uiso
C5 C 0.8625(13) 0.4558(9) -0.0781(5) 0.0560 Uani
H3 H 0.8305 0.4497 -0.1039 0.0670 Uiso
C6 C 0.847(2) 0.8084(11) 0.1699(7) 0.0987 Uani
H4 H 0.8608 0.7647 0.1600 0.1180 Uiso
C7 C 0.0636(19) 1.0887(15) 0.2290(9) 0.1037 Uani
C8 C 0.4213(11) 1.1408(6) 0.2994(4) 0.0370 Uani
C9 C 0.1732(12) 0.9060(8) 0.2998(4) 0.0487 Uani
C10 C 0.9284(12) 0.7259(8) 0.0369(4) 0.0477 Uani
C11 C 0.8530(13) 0.6495(8) -0.0126(4) 0.0503 Uani
H5 H 0.7988 0.6431 -0.0332 0.0600 Uiso
C12 C -0.0548(8) 1.0956(6) 0.1644(4) 0.0687 Uani
H6 H 0.0015 1.0707 0.1509 0.0820 Uiso
C13 C -0.1545(9) 1.1145(6) 0.1440(3) 0.0920 Uani
H7 H -0.1649 1.1023 0.1167 0.1110 Uiso
C14 C -0.2388(7) 1.1518(6) 0.1642(3) 0.0600 Uani
C15 C -0.2233(9) 1.1700(7) 0.2049(4) 0.1060 Uani
H8 H -0.2796 1.1950 0.2184 0.1290 Uiso
C16 C -0.1235(10) 1.1511(8) 0.2254(3) 0.0927 Uani
H9 H -0.1132 1.1633 0.2526 0.1110 Uiso
C17 C -0.0393(8) 1.1138(7) 0.2052(3) 0.0787 Uani
C18 C 0.8776(17) 0.9183(9) 0.1683(5) 0.0720 Uani
H10 H 0.9127 0.9561 0.1566 0.0870 Uiso
C19 C 0.3561(13) 0.9265(8) 0.3245(5) 0.0567 Uani
H11 H 0.3737 0.9659 0.3418 0.0680 Uiso
C20 C 0.7412(12) 0.8738(8) 0.2171(5) 0.0577 Uani
C21 C 1.0123(14) 0.6759(7) 0.0480(5) 0.0597 Uani
H12 H 1.0673 0.6829 0.0683 0.0720 Uiso
C22 C 0.4744(15) 1.0382(9) 0.1933(5) 0.0697 Uani
H13 H 0.4956 1.0795 0.2050 0.0840 Uiso
C23 C 0.6912(9) 1.2353(6) 0.3525(4) 0.0817 Uani
C24 C 0.6037(11) 1.2112(7) 0.3776(3) 0.0790 Uani
H14 H 0.6082 1.2173 0.4058 0.0950 Uiso
C25 C 0.5096(10) 1.1780(7) 0.3606(3) 0.0873 Uani
H15 H 0.4511 1.1619 0.3774 0.1050 Uiso
C26 C 0.5030(9) 1.1689(6) 0.3185(3) 0.0633 Uani
C27 C 0.5905(11) 1.1930(8) 0.2934(3) 0.0913 Uani
H16 H 0.5861 1.1869 0.2652 0.1090 Uiso
C28 C 0.6846(9) 1.2262(8) 0.3104(3) 0.1167 Uani
H17 H 0.7432 1.2423 0.2936 0.1390 Uiso
C29 C 0.9205(14) 0.5997(8) -0.0040(4) 0.0550 Uani
C30 C 0.7640(16) 0.8142(10) 0.2024(6) 0.0743 Uani
H18 H 0.7272 0.7758 0.2126 0.0890 Uiso
C31 C 0.7770(16) 0.7720(10) -0.0003(6) 0.0777 Uani
H19 H 0.7788 0.7873 -0.0285 0.0930 Uiso
H20 H 0.6983 0.7621 0.0074 0.0930 Uiso
C32 C 0.5405(15) 1.0097(7) 0.1638(5) 0.0613 Uani
H21 H 0.6053 1.0334 0.1551 0.0740 Uiso
C33 C -0.1985(17) 0.7204(14) 0.3950(8) 0.1143 Uani
H22 H -0.1945 0.6982 0.4201 0.1370 Uiso
C34 C -0.0986(17) 0.7596(14) 0.3844(7) 0.0990 Uani
H23 H -0.0429 0.7735 0.4030 0.1180 Uiso
C35 C -0.0956(17) 0.7747(9) 0.3420(5) 0.0673 Uani
C36 C -0.1917(17) 0.7572(12) 0.3168(6) 0.0893 Uani
H24 H -0.1895 0.7686 0.2892 0.1070 Uiso
C37 C -0.2854(15) 0.7250(9) 0.3315(6) 0.0677 Uani
H25 H -0.3442 0.7118 0.3139 0.0810 Uiso
N1 N -0.2935(14) 0.7113(9) 0.3748(5) 0.0833 Uani
C38 C 0.6491(7) 0.8850(5) 0.2487(3) 0.0567 Uani
C39 C 0.5647(9) 0.8355(4) 0.2534(4) 0.0893 Uani
H26 H 0.5708 0.7944 0.2394 0.1070 Uiso
C40 C 0.4713(8) 0.8474(5) 0.2789(4) 0.0797 Uani
H27 H 0.4149 0.8143 0.2821 0.0960 Uiso
C41 C 0.4622(7) 0.9088(5) 0.2998(3) 0.0610 Uani
C42 C 0.5465(9) 0.9583(5) 0.2951(3) 0.0763 Uani
H28 H 0.5404 0.9993 0.3090 0.0920 Uiso
C43 C 0.6399(8) 0.9464(5) 0.2695(3) 0.0693 Uani
H29 H 0.6963 0.9795 0.2664 0.0830 Uiso
C44 C 0.999(3) 1.7014(12) 0.5430(8) 0.1283 Uani
C45 C 0.967(3) 0.4755(9) -0.0042(8) 0.1167 Uani
H30 H 0.9979 0.4781 0.0220 0.1420 Uiso
C46 C 0.0665(16) 0.9055(12) 0.2781(6) 0.0877 Uani
H31 H 0.0540 0.9328 0.2553 0.1050 Uiso
C47 C 0.8536(13) 0.5205(8) -0.0596(5) 0.0563 Uani
H32 H 0.8085 0.5541 -0.0715 0.0680 Uiso
C48 C -0.0008(14) 0.8181(11) 0.3262(5) 0.0710 Uani
C49 C -0.0146(14) 0.8635(9) 0.2925(5) 0.0707 Uani
H33 H -0.0857 0.8640 0.2795 0.0850 Uiso
C50 C 0.9767(16) 1.6404(5) 0.5153(4) 0.1243 Uani
C51 C 0.9146(16) 1.5861(7) 0.5312(4) 0.1313 Uani
H34 H 0.8832 1.5891 0.5574 0.1590 Uiso
C52 C 0.8993(13) 1.5274(6) 0.5081(4) 0.1103 Uani
H35 H 0.8578 1.4911 0.5188 0.1330 Uiso
C53 C 0.9462(12) 1.5230(5) 0.4691(3) 0.0637 Uani
C54 C 1.0083(13) 1.5773(6) 0.4531(3) 0.1003 Uani
H36 H 1.0396 1.5744 0.4270 0.1220 Uiso
C55 C 1.0235(15) 1.6360(5) 0.4762(4) 0.0907 Uani
H37 H 1.0651 1.6723 0.4656 0.1090 Uiso
C56 C -0.3521(15) 1.1683(9) 0.1415(7) 0.0727 Uani
C57 C 0.969(3) 0.4148(10) -0.0268(7) 0.1273 Uani
H38 H 1.0145 0.3793 -0.0169 0.1530 Uiso
C58 C 0.5995(9) 0.8475(4) 0.1118(3) 0.0903 Uani
H39 H 0.5532 0.8209 0.1286 0.1080 Uiso
C59 C 0.5973(8) 0.9180(5) 0.1153(3) 0.0510 Uani
C60 C 0.6666(10) 0.9577(3) 0.0902(3) 0.0713 Uani
H40 H 0.6651 1.0048 0.0926 0.0860 Uiso
C61 C 0.7380(9) 0.9269(4) 0.0615(3) 0.0660 Uani
H41 H 0.7843 0.9535 0.0447 0.0790 Uiso
C62 C 0.7401(9) 0.8565(4) 0.0580(3) 0.0477 Uani
C63 C 0.6709(11) 0.8168(3) 0.0831(4) 0.0717 Uani
H42 H 0.6723 0.7697 0.0808 0.0860 Uiso
C64 C 0.3030(13) 0.8734(10) 0.3502(5) 0.0643 Uani
H43 H 0.2947 0.8891 0.3782 0.0770 Uiso
H44 H 0.3490 0.8323 0.3501 0.0770 Uiso
C65 C 0.8291(16) 0.8213(9) 0.0269(5) 0.0673 Uani
H45 H 0.8648 0.8570 0.0103 0.0810 Uiso
C66 C 0.1045(16) 0.8160(11) 0.3449(5) 0.0733 Uani
H46 H 0.1202 0.7857 0.3660 0.0880 Uiso
C67 C 0.5186(14) 0.9504(7) 0.1467(5) 0.0560 Uani
C68 C 0.4205(15) 0.9186(9) 0.1593(6) 0.0707 Uani
H47 H 0.3990 0.8774 0.1475 0.0850 Uiso
C69 C 0.3504(16) 0.9483(9) 0.1906(5) 0.0673 Uani
H48 H 0.2854 0.9256 0.2000 0.0810 Uiso
Cd1 Cd 0.97407(10) 1.34194(5) 0.40173(3) 0.0519 Uani
Cd2 Cd 1.03569(10) 1.80645(5) 0.59527(4) 0.0614 Uani
Cd3 Cd 0.26444(9) 1.04661(6) 0.25982(4) 0.0561 Uani
N2 N 0.9031(12) 0.8550(8) 0.1536(3) 0.0577 Uani
N3 N 0.9194(10) 0.7878(6) 0.0507(4) 0.0517 Uani
N4 N 0.2630(11) 0.9469(7) 0.2939(4) 0.0657 Uani
N5 N 0.8558(11) 0.7103(6) 0.0063(4) 0.0490 Uani
N6 N 0.1854(11) 0.8607(8) 0.3309(4) 0.0637 Uani
N7 N 0.3780(12) 1.0065(7) 0.2056(4) 0.0630 Uani
N8 N 0.9127(15) 0.4050(7) -0.0610(5) 0.0810 Uani
O1 O -0.3552(11) 1.1509(8) 0.1048(4) 0.0853 Uani
O2 O -0.4271(11) 1.1967(7) 0.1601(5) 0.0917 Uani
O3 O 0.9719(14) 1.4583(7) 0.4086(4) 0.0927 Uani
O4 O 0.0929(15) 1.1170(11) 0.2577(6) 0.1287 Uani
O5 O 0.3517(11) 1.0932(8) 0.3184(4) 0.0833 Uani
O6 O 0.3901(11) 1.1389(7) 0.2624(4) 0.0847 Uani
O7 O 0.1204(12) 1.0473(10) 0.2150(6) 0.1200 Uani
O8 O 0.9046(11) 1.4075(6) 0.4601(4) 0.0787 Uani
O9 O 0.981(2) 1.6993(8) 0.5785(5) 0.1353 Uani
O10 O 1.053(2) 1.7499(7) 0.5282(5) 0.1283 Uani
C70 C 0.7854(15) 1.2656(10) 0.3701(5) 0.0730 Uani
O11 O 0.7966(11) 1.2815(8) 0.4060(4) 0.0947 Uani
O12 O 0.8766(12) 1.2775(9) 0.3516(4) 0.1040 Uani
N1B N 1.2065(14) 1.7887(9) 0.6252(5) 0.0833 Uani
Cd1C Cd 1.02593(10) 0.84194(5) 0.09827(3) 0.0519 Uani
Cd2A Cd -0.53569(10) 1.19355(5) 0.09527(4) 0.0614 Uani
Cd2B Cd -0.46431(10) 0.69355(5) 0.40473(4) 0.0614 Uani
Cd2C Cd 0.96431(10) 0.30645(5) -0.09527(4) 0.0614 Uani
N2C N 1.0969(12) 1.3550(8) 0.3464(3) 0.0577 Uani
N3C N 1.0806(10) 1.2878(6) 0.4493(4) 0.0517 Uani
N8C N 1.0873(15) 1.9050(7) 0.5610(5) 0.0810 Uani
O1A O 0.8552(11) 1.8491(8) 0.6048(4) 0.0853 Uani
O2A O 0.9271(11) 1.8033(7) 0.6601(5) 0.0917 Uani
loop_
_atom_site_aniso_label
_atom_site_aniso_U_11
_atom_site_aniso_U_22
_atom_site_aniso_U_33
_atom_site_aniso_U_23
_atom_site_aniso_U_13
_atom_site_aniso_U_12
C1 0.027(7) 0.054(9) 0.082(11) -0.022(9) 0.004(7) 0.006(6)
C2 0.060(10) 0.062(9) 0.060(9) 0.011(8) 0.012(8) 0.006(8)
C3 0.068(12) 0.056(9) 0.075(10) 0.007(8) -0.018(9) 0.000(8)
C4 0.063(10) 0.044(8) 0.078(11) -0.006(8) 0.007(8) 0.013(8)
C5 0.056(9) 0.060(9) 0.052(8) -0.020(8) 0.005(7) -0.016(8)
C6 0.143(19) 0.060(11) 0.093(14) -0.036(11) 0.029(14) -0.035(13)
C7 0.056(9) 0.122(13) 0.133(13) -0.001(10) -0.015(9) 0.024(8)
C8 0.037(3) 0.036(3) 0.038(3) 0.0000(13) 0.0002(13) 0.0023(13)
C9 0.037(8) 0.064(9) 0.045(8) 0.008(7) 0.009(6) -0.009(7)
C10 0.039(8) 0.054(8) 0.050(8) 0.004(7) -0.004(7) 0.002(6)
C11 0.047(8) 0.052(8) 0.052(8) 0.002(7) -0.006(7) -0.004(7)
C12 0.058(11) 0.066(10) 0.082(12) -0.012(9) -0.027(9) 0.014(9)
C13 0.049(10) 0.084(14) 0.143(16) -0.032(13) -0.019(11) 0.015(9)
C14 0.044(8) 0.045(8) 0.091(8) 0.025(7) 0.003(7) 0.005(6)
C15 0.055(11) 0.18(3) 0.083(9) 0.015(13) 0.006(10) 0.025(14)
C16 0.068(12) 0.127(19) 0.083(13) 0.005(14) 0.002(10) 0.001(13)
C17 0.047(10) 0.090(13) 0.099(13) 0.025(11) 0.006(10) 0.022(10)
C18 0.096(14) 0.056(8) 0.064(10) 0.010(8) 0.024(9) -0.014(9)
C19 0.040(8) 0.053(9) 0.077(11) -0.008(8) -0.012(8) -0.003(7)
C20 0.034(8) 0.068(10) 0.071(10) -0.005(8) 0.009(7) 0.000(8)
C21 0.064(10) 0.039(7) 0.076(10) -0.002(7) -0.006(8) 0.014(7)
C22 0.077(11) 0.058(9) 0.074(10) -0.014(8) 0.049(9) -0.023(9)
C23 0.084(10) 0.065(11) 0.096(10) 0.006(10) -0.008(8) 0.000(9)
C24 0.093(12) 0.056(10) 0.088(11) -0.003(9) 0.001(10) -0.013(9)
C25 0.086(14) 0.093(15) 0.083(12) 0.013(11) 0.003(11) -0.026(12)
C26 0.060(9) 0.064(9) 0.066(8) 0.019(8) -0.012(6) -0.007(6)
C27 0.068(11) 0.123(16) 0.083(12) -0.018(12) 0.000(9) -0.023(11)
C28 0.095(14) 0.16(2) 0.095(10) -0.026(15) 0.001(11) -0.050(15)
C29 0.065(10) 0.055(9) 0.045(8) -0.006(7) 0.000(8) 0.007(8)
C30 0.068(11) 0.068(11) 0.087(12) 0.002(10) 0.015(10) -0.015(10)
C31 0.071(11) 0.096(14) 0.066(10) -0.045(10) -0.005(9) 0.017(11)
C32 0.058(10) 0.040(7) 0.086(11) 0.000(8) 0.011(9) -0.004(8)
C33 0.058(11) 0.151(19) 0.134(15) 0.058(16) -0.018(11) -0.032(12)
C34 0.050(11) 0.15(2) 0.097(14) 0.039(15) 0.007(10) -0.002(12)
C35 0.085(12) 0.060(10) 0.057(9) 0.014(8) -0.014(9) 0.004(10)
C36 0.068(12) 0.130(19) 0.070(11) 0.042(13) -0.008(10) -0.039(13)
C37 0.046(9) 0.077(11) 0.080(9) 0.018(10) 0.016(8) -0.015(8)
N1 0.081(10) 0.084(10) 0.085(9) 0.027(9) -0.002(8) -0.035(9)
C38 0.047(8) 0.059(9) 0.064(10) 0.002(8) -0.002(7) -0.006(7)
C39 0.065(11) 0.062(10) 0.141(18) 0.007(12) 0.055(12) -0.003(9)
C40 0.072(11) 0.060(10) 0.107(14) 0.011(10) 0.043(11) -0.020(10)
C41 0.035(8) 0.072(10) 0.076(10) 0.018(9) -0.005(8) -0.001(8)
C42 0.044(9) 0.099(13) 0.086(12) -0.023(12) 0.004(9) -0.017(10)
C43 0.084(12) 0.051(9) 0.073(11) -0.019(9) 0.010(9) -0.003(9)
C44 0.213(12) 0.061(6) 0.111(8) -0.018(6) 0.049(9) -0.038(7)
C45 0.19(2) 0.046(9) 0.114(15) -0.016(8) -0.064(16) 0.034(12)
C46 0.062(11) 0.116(17) 0.085(13) 0.056(13) -0.010(10) -0.019(11)
C47 0.042(8) 0.049(8) 0.078(11) -0.004(8) -0.006(8) -0.003(7)
C48 0.053(10) 0.103(14) 0.057(9) 0.007(9) -0.022(8) -0.014(9)
C49 0.046(9) 0.078(11) 0.088(12) 0.022(10) -0.009(9) -0.023(9)
C50 0.206(13) 0.059(7) 0.108(9) -0.014(7) 0.047(10) -0.038(9)
C51 0.13(2) 0.084(15) 0.18(3) -0.050(17) 0.09(2) -0.065(16)
C52 0.136(18) 0.061(11) 0.134(16) -0.040(12) 0.083(15) -0.035(12)
C53 0.062(10) 0.064(9) 0.065(9) 0.000(8) -0.002(8) -0.009(8)
C54 0.17(2) 0.056(10) 0.075(11) -0.007(9) -0.008(13) -0.059(12)
C55 0.141(19) 0.050(9) 0.081(12) 0.014(9) 0.002(13) -0.015(12)
C56 0.053(10) 0.045(9) 0.120(16) -0.014(10) 0.020(10) -0.011(8)
C57 0.22(2) 0.052(9) 0.110(15) -0.032(10) -0.077(16) 0.016(13)
C58 0.104(15) 0.031(7) 0.136(18) -0.005(10) 0.040(14) -0.012(9)
C59 0.048(8) 0.054(8) 0.051(8) 0.008(7) -0.019(7) 0.005(7)
C60 0.076(11) 0.029(6) 0.109(14) 0.007(9) 0.020(11) 0.005(7)
C61 0.089(12) 0.039(7) 0.070(10) -0.004(7) 0.033(10) 0.007(8)
C62 0.060(9) 0.036(6) 0.047(7) -0.005(6) 0.011(7) 0.002(6)
C63 0.092(13) 0.048(9) 0.075(11) -0.003(8) 0.023(10) 0.013(9)
C64 0.043(9) 0.087(13) 0.063(10) 0.016(9) 0.000(7) 0.011(8)
C65 0.077(12) 0.063(10) 0.062(10) 0.003(8) -0.013(9) 0.009(9)
C66 0.066(11) 0.093(14) 0.061(10) 0.007(10) -0.010(9) -0.003(11)
C67 0.063(9) 0.040(7) 0.065(9) 0.008(7) -0.006(8) -0.001(8)
C68 0.055(10) 0.057(9) 0.100(13) -0.023(9) 0.016(9) -0.020(8)
C69 0.076(11) 0.066(10) 0.060(9) -0.003(9) 0.026(8) -0.031(9)
Cd1 0.0498(6) 0.0502(6) 0.0556(6) 0.0032(5) 0.0010(5) 0.0007(5)
Cd2 0.0581(7) 0.0388(5) 0.0873(8) 0.0015(6) 0.0056(7) 0.0052(5)
Cd3 0.0498(6) 0.0575(6) 0.0609(6) 0.0009(6) 0.0035(5) 0.0011(5)
N2 0.063(8) 0.070(8) 0.040(6) -0.006(6) 0.004(6) 0.003(7)
N3 0.044(7) 0.039(6) 0.072(8) -0.012(6) -0.008(6) 0.008(5)
N4 0.057(8) 0.067(8) 0.073(8) 0.007(7) -0.034(7) 0.017(8)
N5 0.056(7) 0.043(6) 0.048(7) -0.010(5) -0.011(6) 0.007(6)
N6 0.034(7) 0.097(11) 0.060(8) 0.009(8) -0.013(6) 0.001(7)
N7 0.067(9) 0.054(8) 0.068(8) -0.006(7) 0.015(7) -0.004(7)
N8 0.093(11) 0.049(8) 0.101(11) -0.015(8) -0.019(9) -0.008(8)
O1 0.071(8) 0.096(10) 0.089(9) -0.005(8) -0.010(7) 0.033(7)
O2 0.049(7) 0.081(9) 0.145(12) 0.015(9) 0.020(8) 0.027(7)
O3 0.130(11) 0.083(9) 0.065(7) -0.004(7) 0.010(9) -0.017(9)
O4 0.098(9) 0.152(13) 0.136(12) -0.005(11) -0.005(10) 0.039(9)
O5 0.071(7) 0.103(8) 0.076(6) 0.009(6) -0.018(6) -0.033(6)
O6 0.088(8) 0.101(10) 0.065(5) -0.013(6) -0.004(6) -0.028(8)
O7 0.068(8) 0.138(12) 0.154(12) -0.015(11) -0.036(8) 0.032(8)
O8 0.076(8) 0.057(7) 0.103(9) -0.001(7) 0.032(7) -0.009(6)
O9 0.220(13) 0.069(6) 0.117(8) -0.020(7) 0.062(9) -0.043(8)
O10 0.219(13) 0.056(6) 0.110(8) -0.011(6) 0.035(9) -0.036(8)
C70 0.072(3) 0.074(3) 0.073(3) -0.0008(13) -0.0005(13) -0.0013(13)
O11 0.083(5) 0.108(6) 0.093(5) -0.008(5) -0.002(5) -0.022(5)
O12 0.094(5) 0.120(6) 0.098(6) -0.015(5) 0.004(5) -0.017(5)
N1B 0.081 0.084 0.085 0.027 0.002 0.035
Cd1C 0.0498 0.0502 0.0556 -0.0032 0.001 -0.0007
Cd2A 0.0581 0.0388 0.0873 -0.0015 -0.0056 0.0052
Cd2B 0.0581 0.0388 0.0873 0.0015 -0.0056 -0.0052
Cd2C 0.0581 0.0388 0.0873 -0.0015 0.0056 -0.0052
N2C 0.063 0.07 0.04 0.006 0.004 -0.003
N3C 0.044 0.039 0.072 0.012 -0.008 -0.008
N8C 0.093 0.049 0.101 0.015 -0.019 0.008
O1A 0.071 0.096 0.089 0.005 0.01 0.033
O2A 0.049 0.081 0.145 -0.015 -0.02 0.027
loop_
_geom_bond_atom_site_label_1
_geom_bond_atom_site_label_2
_geom_bond_site_symmetry_1
_geom_bond_site_symmetry_2
C1 C53 1_555 1_555
C2 C29 1_555 1_555
C3 H1 1_555 1_555
C4 H2 1_555 1_555
C5 H3 1_555 1_555
C6 H4 1_555 1_555
C7 C17 1_555 1_555
C8 C26 1_555 1_555
C9 C46 1_555 1_555
C10 C21 1_555 1_555
C11 H5 1_555 1_555
C12 H6 1_555 1_555
C13 C12 1_555 1_555
H7 C13 1_555 1_555
C14 C13 1_555 1_555
C15 C14 1_555 1_555
H8 C15 1_555 1_555
C16 C15 1_555 1_555
H9 C16 1_555 1_555
C17 C12 1_555 1_555
C18 C4 1_555 1_555
H10 C18 1_555 1_555
C19 H11 1_555 1_555
C20 C4 1_555 1_555
C21 C3 1_555 1_555
H12 C21 1_555 1_555
C22 H13 1_555 1_555
C23 C24 1_555 1_555
C24 H14 1_555 1_555
C25 C24 1_555 1_555
H15 C25 1_555 1_555
C26 C25 1_555 1_555
C27 C26 1_555 1_555
H16 C27 1_555 1_555
C28 C23 1_555 1_555
H17 C28 1_555 1_555
C29 C3 1_555 1_555
C30 C6 1_555 1_555
H18 C30 1_555 1_555
C31 H19 1_555 1_555
H20 C31 1_555 1_555
C32 C22 1_555 1_555
H21 C32 1_555 1_555
C33 H22 1_555 1_555
C34 C33 1_555 1_555
H23 C34 1_555 1_555
C35 C34 1_555 1_555
C36 C35 1_555 1_555
H24 C36 1_555 1_555
C37 C36 1_555 1_555
H25 C37 1_555 1_555
N1 C33 1_555 1_555
C38 C20 1_555 1_555
C39 C38 1_555 1_555
H26 C39 1_555 1_555
C40 C39 1_555 1_555
H27 C40 1_555 1_555
C41 C19 1_555 1_555
C42 C41 1_555 1_555
H28 C42 1_555 1_555
C43 C38 1_555 1_555
H29 C43 1_555 1_555
C44 C50 1_555 1_555
C45 C2 1_555 1_555
H30 C45 1_555 1_555
C46 H31 1_555 1_555
C47 C2 1_555 1_555
H32 C47 1_555 1_555
C48 C35 1_555 1_555
C49 C46 1_555 1_555
H33 C49 1_555 1_555
C50 C51 1_555 1_555
C51 H34 1_555 1_555
C52 C51 1_555 1_555
H35 C52 1_555 1_555
C53 C52 1_555 1_555
C54 C53 1_555 1_555
H36 C54 1_555 1_555
C55 C50 1_555 1_555
H37 C55 1_555 1_555
C56 C14 1_555 1_555
C57 C45 1_555 1_555
H38 C57 1_555 1_555
C58 H39 1_555 1_555
C59 C58 1_555 1_555
C60 C59 1_555 1_555
H40 C60 1_555 1_555
C61 C60 1_555 1_555
H41 C61 1_555 1_555
C62 C61 1_555 1_555
C63 C58 1_555 1_555
H42 C63 1_555 1_555
C64 C19 1_555 1_555
H43 C64 1_555 1_555
H44 C64 1_555 1_555
C65 C31 1_555 1_555
H45 C65 1_555 1_555
C66 C48 1_555 1_555
H46 C66 1_555 1_555
C67 C32 1_555 1_555
C68 C67 1_555 1_555
H47 C68 1_555 1_555
C69 C68 1_555 1_555
H48 C69 1_555 1_555
Cd1 O3 1_555 1_555
Cd2 O9 1_555 1_555
Cd3 N4 1_555 1_555
N2 C6 1_555 1_555
N3 C10 1_555 1_555
N4 C9 1_555 1_555
N5 C10 1_555 1_555
N6 C9 1_555 1_555
N7 C22 1_555 1_555
N8 C5 1_555 1_555
O1 C56 1_555 1_555
O2 C56 1_555 1_555
O3 C1 1_555 1_555
O4 C7 1_555 1_555
O5 C8 1_555 1_555
O6 C8 1_555 1_555
O7 C7 1_555 1_555
O8 C1 1_555 1_555
O9 C44 1_555 1_555
O10 C44 1_555 1_555
C70 C23 1_555 1_555
O11 Cd1 1_555 1_555
O12 Cd1 1_555 1_555
N1B Cd2 1_555 1_555
Cd1C N2 1_555 1_555
Cd2A O1 1_555 1_555
Cd2B N1 1_555 1_555
Cd2C N8 1_555 1_555
N2C Cd1 1_555 1_555
N3C Cd1 1_555 1_555
N8C Cd2 1_555 1_555
O1A Cd2 1_555 1_555
O2A Cd2 1_555 1_555
C5 C47 1_555 1_555
C11 C29 1_555 1_555
C11 N5 1_555 1_555
C16 C17 1_555 1_555
C18 N2 1_555 1_555
C19 N4 1_555 1_555
C20 C30 1_555 1_555
C27 C28 1_555 1_555
C31 N5 1_555 1_555
C37 N1 1_555 1_555
C40 C41 1_555 1_555
C42 C43 1_555 1_555
C48 C49 1_555 1_555
C54 C55 1_555 1_555
C57 N8 1_555 1_555
C59 C67 1_555 1_555
C62 C63 1_555 1_555
C62 C65 1_555 1_555
C64 N6 1_555 1_555
C65 N3 1_555 1_555
C66 N6 1_555 1_555
C69 N7 1_555 1_555
Cd1 O8 1_555 1_555
Cd2 O10 1_555 1_555
Cd3 N7 1_555 1_555
Cd3 O4 1_555 1_555
Cd3 O5 1_555 1_555
Cd3 O6 1_555 1_555
Cd3 O7 1_555 1_555
N3 Cd1C 1_555 1_555
O2 Cd2A 1_555 1_555
C70 O11 1_555 1_555
C70 O12 1_555 1_555

#END
