
#######################################################################
#
#                 Cambridge Crystallographic Data Centre
#                                CCDC 
#
#######################################################################
#
# If this CIF has been generated from an entry in the Cambridge 
# Structural Database, then it will include bibliographic, chemical, 
# crystal, experimental, refinement or atomic coordinate data resulting 
# from the CCDC's data processing and validation procedures.
#
#######################################################################

data_ATAJAI
_chemical_formula_moiety         '(C140 H96 N16 O24 Zn6)n'
_symmetry_cell_setting           monoclinic
_symmetry_space_group_name_H-M   'C 2'
_symmetry_Int_Tables_number      5
_space_group_name_Hall           'C 2y'
loop_
_symmetry_equiv_pos_site_id
_symmetry_equiv_pos_as_xyz
1 x,y,z
2 -x,y,-z
3 1/2+x,1/2+y,z
4 1/2-x,1/2+y,-z
_cell_length_a                   21.719(3)
_cell_length_b                   19.469(2)
_cell_length_c                   20.835(2)
_cell_angle_alpha                90
_cell_angle_beta                 108.856(2)
_cell_angle_gamma                90
_cell_volume                     8337.22
loop_
_atom_site_label
_atom_site_type_symbol
_atom_site_fract_x
_atom_site_fract_y
_atom_site_fract_z
Zn1 Zn -1.26284(3) -0.27402(4) -0.28969(3)
Zn2 Zn -1.27210(3) -0.77246(5) -0.06536(4)
Zn3 Zn -0.74195(4) -0.19661(5) -0.37521(4)
O1 O -1.3423(2) -0.2607(3) -0.3672(2)
C1 C -1.2290(5) -0.6624(5) -0.1119(4)
N1 N -1.2079(2) -0.8026(3) 0.0231(3)
N2 N -1.2021(2) -0.2362(3) -0.3359(3)
N3 N -1.1267(3) -0.8122(3) 0.1219(3)
C2 C -1.1520(3) -0.7790(4) 0.0614(3)
N4 N -1.1212(2) -0.2009(4) -0.3739(3)
O2 O -1.2657(3) -0.3702(3) -0.2652(3)
C3 C -1.4001(3) -0.2697(6) -0.3680(4)
C4 C -1.2629(4) 0.0565(4) -0.2292(3)
O3 O -1.1816(3) -0.7000(3) -0.1015(3)
C5 C -1.4509(3) -0.2708(6) -0.4362(3)
C6 C -1.2128(4) -0.3900(4) -0.2183(4)
C7 C -1.1714(4) -0.8682(4) 0.1282(4)
H1 H -1.1892 -0.8592 0.1645
H2 H -1.1498 -0.9125 0.1355
C8 C -1.0586(4) -0.1945(5) -0.3737(4)
H3 H -1.0497 -0.1679 -0.4067
C9 C -1.3161(4) 0.0611(4) -0.2076(4)
H4 H -1.3501 0.0298 -0.2223
C10 C -1.1397(3) -0.2417(4) -0.3282(3)
C11 C -1.2244(3) -0.8638(4) 0.0573(3)
H5 H -1.2665 -0.8555 0.0638
O4 O -1.4149(3) -0.2816(7) -0.3176(3)
C12 C -1.0897(3) -0.2781(5) -0.2815(3)
H6 H -1.0992 -0.3082 -0.2513
C13 C -1.0567(4) -0.7086(6) 0.0959(4)
H7 H -1.0311 -0.6743 0.0866
C14 C -1.30972(17) -0.0345(3) -0.3188(3)
H8 H -1.3512 -0.0179 -0.3243
C15 C -1.2558(2) -0.0034(2) -0.2729(2)
C16 C -1.19372(19) -0.0283(3) -0.2648(3)
H9 H -1.1576 -0.0074 -0.2341
C17 C -1.18565(16) -0.0844(3) -0.3025(3)
H10 H -1.1441 -0.1011 -0.2971
C18 C -1.2396(2) -0.1156(2) -0.3484(2)
C19 C -1.30165(17) -0.0906(2) -0.3566(2)
H11 H -1.3378 -0.1115 -0.3873
C20 C -1.2815(2) -0.5617(3) -0.1845(3)
H12 H -1.3212 -0.5846 -0.1962
C21 C -1.2260(3) -0.5922(2) -0.1405(3)
C22 C -1.1668(2) -0.5578(3) -0.1231(2)
H13 H -1.1296 -0.5782 -0.0936
C23 C -1.16306(18) -0.4930(2) -0.1496(2)
H14 H -1.1234 -0.4700 -0.1379
C24 C -1.2186(2) -0.4625(2) -0.1936(2)
C25 C -1.27784(19) -0.4969(3) -0.2110(2)
H15 H -1.3150 -0.4765 -0.2404
C26 C -1.0695(3) -0.7968(4) 0.1683(4)
H16 H -1.0548 -0.8224 0.2080
C27 C -1.0265(3) -0.2696(6) -0.2800(4)
H17 H -0.9935 -0.2930 -0.2475
C28 C -1.0326(3) -0.7445(5) 0.1581(4)
C29 C -1.2301(3) -0.1803(4) -0.3861(3)
H18 H -1.2717 -0.1950 -0.4186
O5 O -1.1652(3) -0.3549(3) -0.1938(3)
C30 C -1.0101(4) -0.2259(5) -0.3269(5)
C31 C -1.1793(3) -0.1697(4) -0.4226(3)
H19 H -1.1918 -0.1932 -0.4659
H20 H -1.1727 -0.1213 -0.4295
C32 C -1.2153(4) 0.1063(4) -0.2068(5)
H21 H -1.1792 0.1066 -0.2217
O6 O -1.2792(4) -0.6784(4) -0.1014(4)
O7 O -0.7486(4) -0.1147(4) -0.4290(4)
C33 C -1.4360(3) -0.2702(9) -0.4938(4)
H22 H -1.3925 -0.2678 -0.4914
O8 O -0.7320(6) -0.0544(4) -0.3383(4)
C34 C -1.5165(4) -0.2730(8) -0.4435(4)
H23 H -1.5290 -0.2766 -0.4049
C35 C -0.7451(5) -0.0622(7) -0.4020(5)
C36 C -1.1150(4) -0.7217(5) 0.0495(4)
H24 H -1.1310 -0.6946 0.0109
C37 C -0.7391(4) 0.0559(3) -0.5474(3)
H25 H -0.7335 0.0528 -0.5897
C38 C -0.7349(4) -0.0028(3) -0.5082(3)
H26 H -0.7266 -0.0451 -0.5243
C39 C -0.7432(3) 0.0019(3) -0.4450(3)
C40 C -0.7557(4) 0.0652(4) -0.4209(3)
H27 H -0.7612 0.0683 -0.3786
C41 C -0.7598(4) 0.1239(3) -0.4601(3)
H28 H -0.7682 0.1662 -0.4440
C42 C -0.7515(4) 0.1192(3) -0.5233(3)
C43 C -0.9247(5) -0.1556(7) -0.3499(8)
H29 H -0.9531 -0.1184 -0.3597
C44 C -0.8653(5) -0.1503(7) -0.3597(9)
H30 H -0.8556 -0.1110 -0.3799
N5 N -0.8198(3) -0.2022(5) -0.3402(4)
C45 C -0.8362(4) -0.2537(7) -0.3113(5)
H31 H -0.8051 -0.2877 -0.2946
C46 C -0.8954(4) -0.2634(7) -0.3027(5)
H32 H -0.9029 -0.3028 -0.2811
C47 C -0.9427(4) -0.2161(6) -0.3254(6)
C48 C -0.8941(5) -0.7347(7) 0.3219(5)
H33 H -0.8855 -0.7485 0.3667
N6 N -0.8456(3) -0.7048(5) 0.3038(3)
C49 C -0.8609(4) -0.6824(6) 0.2418(4)
H34 H -0.8302 -0.6569 0.2296
C50 C -0.9207(5) -0.6946(8) 0.1933(4)
H35 H -0.9278 -0.6807 0.1488
C51 C -0.9689(4) -0.7266(6) 0.2097(4)
C52 C -0.9554(5) -0.7453(7) 0.2763(5)
H36 H -0.9877 -0.7650 0.2907
C53 C -1.2468(4) -1.1071(4) -0.1120(3)
C54 C -1.2912(2) -1.0281(2) -0.0408(3)
H37 H -1.3287 -1.0547 -0.0517
C55 C -1.2404(2) -1.0469(2) -0.0642(2)
C56 C -1.18435(19) -1.0072(3) -0.0480(3)
H38 H -1.1504 -1.0197 -0.0637
C57 C -1.17899(19) -0.9486(3) -0.0085(3)
H39 H -1.1415 -0.9219 0.0023
C58 C -1.2297(2) -0.9297(2) 0.0149(2)
C59 C -1.2858(2) -0.9695(3) -0.0013(3)
H40 H -1.3198 -0.9569 0.0143
C60 C -1.3104(3) -1.1760(4) -0.2049(4)
H41 H -1.3511 -1.1868 -0.2352
C61 C -1.2016(4) -1.1944(5) -0.1623(4)
H42 H -1.1648 -1.2182 -0.1633
C62 C -1.3180(4) 0.1135(5) -0.1632(4)
H43 H -1.3543 0.1164 -0.1490
C63 C -1.3067(3) -1.1246(4) -0.1574(4)
H44 H -1.3441 -1.1023 -0.1562
C64 C -1.1946(4) -1.1460(5) -0.1142(4)
H45 H -1.1539 -1.1389 -0.0821
C65 C -1.2222(4) 0.1540(5) -0.1633(5)
H46 H -1.1891 0.1863 -0.1480
N7 N -1.2594(2) -1.2103(3) -0.2094(3)
N8 N -1.2720(3) 0.1591(3) -0.1400(3)
O9 O -1.3480(2) -0.7879(4) -0.0372(3)
O10 O -1.4245(3) -0.7885(6) -0.1332(3)
C66 C -1.4547(3) -0.7923(5) -0.0342(3)
C67 C -1.4057(3) -0.7910(5) -0.0732(4)
C68 C -1.5202(4) -0.7901(8) -0.0679(4)
H47 H -1.5346 -0.7863 -0.1150
C69 C -1.4345(3) -0.7932(6) 0.0344(4)
H48 H -1.3904 -0.7959 0.0588
O11 O -0.7575(5) 0.2341(5) -0.5510(4)
C70 C -0.7526(7) 0.1800(7) -0.5740(7)
O12 O -0.7623(5) 0.1656(5) -0.6345(5)
O1A O -1.6577(2) -0.2607(3) -0.6328(2)
C3A C -1.5999(3) -0.2697(6) -0.6320(4)
C5A C -1.5491(3) -0.2708(6) -0.5638(3)
O4A O -1.5851(3) -0.2816(7) -0.6824(3)
C33A C -1.5640(3) -0.2702(9) -0.5062(4)
H22A H -1.6075 -0.2678 -0.5086
C34A C -1.4835(4) -0.2730(8) -0.5565(4)
H23A H -1.4710 -0.2766 -0.5951
O9A O -1.6520(2) -0.7879(4) 0.0372(3)
O10A O -1.5755(3) -0.7885(6) 0.1332(3)
C66A C -1.5453(3) -0.7923(5) 0.0342(3)
C67A C -1.5943(3) -0.7910(5) 0.0732(4)
C68A C -1.4798(4) -0.7901(8) 0.0679(4)
H47A H -1.4654 -0.7863 0.1150
C69A C -1.5655(3) -0.7932(6) -0.0344(4)
H48A H -1.6096 -0.7959 -0.0588
Zn1A Zn -1.73716(3) -0.27402(4) -0.71031(3)
Zn2A Zn -1.72790(3) -0.77246(5) -0.93464(4)
Zn3A Zn -2.25805(4) -0.19661(5) -0.62479(4)
C1A C -1.7710(5) -0.6624(5) -0.8881(4)
N1A N -1.7921(2) -0.8026(3) -1.0231(3)
N2A N -1.7979(2) -0.2362(3) -0.6641(3)
N3A N -1.8733(3) -0.8122(3) -1.1219(3)
C2A C -1.8480(3) -0.7790(4) -1.0614(3)
N4A N -1.8788(2) -0.2009(4) -0.6261(3)
O2A O -1.7343(3) -0.3702(3) -0.7348(3)
C4A C -1.7371(4) 0.0565(4) -0.7708(3)
O3A O -1.8184(3) -0.7000(3) -0.8985(3)
C6A C -1.7872(4) -0.3900(4) -0.7817(4)
C7A C -1.8286(4) -0.8682(4) -1.1282(4)
H1A H -1.8108 -0.8592 -1.1645
H2A H -1.8502 -0.9125 -1.1355
C8A C -1.9414(4) -0.1945(5) -0.6263(4)
H3A H -1.9503 -0.1679 -0.5933
C9A C -1.6839(4) 0.0611(4) -0.7924(4)
H4A H -1.6499 0.0298 -0.7777
C10A C -1.8603(3) -0.2417(4) -0.6718(3)
C11A C -1.7756(3) -0.8638(4) -1.0573(3)
H5A H -1.7335 -0.8555 -1.0638
C12A C -1.9103(3) -0.2781(5) -0.7185(3)
H6A H -1.9008 -0.3082 -0.7487
C13A C -1.9433(4) -0.7086(6) -1.0959(4)
H7A H -1.9689 -0.6743 -1.0866
C14A C -1.69028(17) -0.0345(3) -0.6812(3)
H8A H -1.6488 -0.0179 -0.6757
C15A C -1.7442(2) -0.0034(2) -0.7271(2)
C16A C -1.80628(19) -0.0283(3) -0.7352(3)
H9A H -1.8424 -0.0074 -0.7659
C17A C -1.81435(16) -0.0844(3) -0.6975(3)
H10A H -1.8559 -0.1011 -0.7029
C18A C -1.7604(2) -0.1156(2) -0.6516(2)
C19A C -1.69835(17) -0.0906(2) -0.6434(2)
H11A H -1.6622 -0.1115 -0.6127
C20A C -1.7185(2) -0.5617(3) -0.8155(3)
H12A H -1.6788 -0.5846 -0.8038
C21A C -1.7740(3) -0.5922(2) -0.8595(3)
C22A C -1.8332(2) -0.5578(3) -0.8769(2)
H13A H -1.8704 -0.5782 -0.9064
C23A C -1.83694(18) -0.4930(2) -0.8504(2)
H14A H -1.8766 -0.4700 -0.8621
C24A C -1.7814(2) -0.4625(2) -0.8064(2)
C25A C -1.72216(19) -0.4969(3) -0.7890(2)
H15A H -1.6850 -0.4765 -0.7596
C26A C -1.9305(3) -0.7968(4) -1.1683(4)
H16A H -1.9452 -0.8224 -1.2080
C27A C -1.9735(3) -0.2696(6) -0.7200(4)
H17A H -2.0065 -0.2930 -0.7525
C28A C -1.9674(3) -0.7445(5) -1.1581(4)
C29A C -1.7699(3) -0.1803(4) -0.6139(3)
H18A H -1.7283 -0.1950 -0.5814
O5A O -1.8348(3) -0.3549(3) -0.8062(3)
C30A C -1.9899(4) -0.2259(5) -0.6731(5)
C31A C -1.8207(3) -0.1697(4) -0.5774(3)
H19A H -1.8082 -0.1932 -0.5341
H20A H -1.8273 -0.1213 -0.5705
C32A C -1.7847(4) 0.1063(4) -0.7932(5)
H21A H -1.8208 0.1066 -0.7783
O6A O -1.7208(4) -0.6784(4) -0.8986(4)
O7A O -2.2514(4) -0.1147(4) -0.5710(4)
O8A O -2.2680(6) -0.0544(4) -0.6617(4)
C35A C -2.2549(5) -0.0622(7) -0.5980(5)
C36A C -1.8850(4) -0.7217(5) -1.0495(4)
H24A H -1.8690 -0.6946 -1.0109
C37A C -2.2609(4) 0.0559(3) -0.4526(3)
H25A H -2.2665 0.0528 -0.4103
C38A C -2.2651(4) -0.0028(3) -0.4918(3)
H26A H -2.2734 -0.0451 -0.4757
C39A C -2.2568(3) 0.0019(3) -0.5550(3)
C40A C -2.2443(4) 0.0652(4) -0.5791(3)
H27A H -2.2388 0.0683 -0.6214
C41A C -2.2402(4) 0.1239(3) -0.5399(3)
H28A H -2.2318 0.1662 -0.5560
C42A C -2.2485(4) 0.1192(3) -0.4767(3)
C43A C -2.0753(5) -0.1556(7) -0.6501(8)
H29A H -2.0469 -0.1184 -0.6403
C44A C -2.1347(5) -0.1503(7) -0.6403(9)
H30A H -2.1444 -0.1110 -0.6201
N5A N -2.1802(3) -0.2022(5) -0.6598(4)
C45A C -2.1638(4) -0.2537(7) -0.6887(5)
H31A H -2.1949 -0.2877 -0.7054
C46A C -2.1046(4) -0.2634(7) -0.6973(5)
H32A H -2.0971 -0.3028 -0.7189
C47A C -2.0573(4) -0.2161(6) -0.6746(6)
C48A C -2.1059(5) -0.7347(7) -1.3219(5)
H33A H -2.1145 -0.7485 -1.3667
N6A N -2.1544(3) -0.7048(5) -1.3038(3)
C49A C -2.1391(4) -0.6824(6) -1.2418(4)
H34A H -2.1698 -0.6569 -1.2296
C50A C -2.0793(5) -0.6946(8) -1.1933(4)
H35A H -2.0722 -0.6807 -1.1488
C51A C -2.0311(4) -0.7266(6) -1.2097(4)
C52A C -2.0446(5) -0.7453(7) -1.2763(5)
H36A H -2.0123 -0.7650 -1.2907
C53A C -1.7532(4) -1.1071(4) -0.8880(3)
C54A C -1.7088(2) -1.0281(2) -0.9592(3)
H37A H -1.6713 -1.0547 -0.9483
C55A C -1.7596(2) -1.0469(2) -0.9358(2)
C56A C -1.81565(19) -1.0072(3) -0.9520(3)
H38A H -1.8496 -1.0197 -0.9363
C57A C -1.82101(19) -0.9486(3) -0.9915(3)
H39A H -1.8585 -0.9219 -1.0023
C58A C -1.7703(2) -0.9297(2) -1.0149(2)
C59A C -1.7142(2) -0.9695(3) -0.9987(3)
H40A H -1.6802 -0.9569 -1.0143
C60A C -1.6896(3) -1.1760(4) -0.7951(4)
H41A H -1.6489 -1.1868 -0.7648
C61A C -1.7984(4) -1.1944(5) -0.8377(4)
H42A H -1.8352 -1.2182 -0.8367
C62A C -1.6820(4) 0.1135(5) -0.8368(4)
H43A H -1.6457 0.1164 -0.8510
C63A C -1.6933(3) -1.1246(4) -0.8426(4)
H44A H -1.6559 -1.1023 -0.8438
C64A C -1.8054(4) -1.1460(5) -0.8858(4)
H45A H -1.8461 -1.1389 -0.9179
C65A C -1.7778(4) 0.1540(5) -0.8367(5)
H46A H -1.8109 0.1863 -0.8520
N7A N -1.7406(2) -1.2103(3) -0.7906(3)
N8A N -1.7280(3) 0.1591(3) -0.8600(3)
O11A O -2.2425(5) 0.2341(5) -0.4490(4)
C70A C -2.2474(7) 0.1800(7) -0.4260(7)
O12A O -2.2377(5) 0.1656(5) -0.3655(5)
Zn1_2 Zn -1.26284(3) -1.27402(4) -0.28969(3)
Zn1A_2 Zn -1.73716(3) -1.27402(4) -0.71031(3)
Zn2_2 Zn -1.27210(3) 0.22754(5) -0.06536(4)
Zn2A_2 Zn -1.72790(3) -0.77246(5) 0.06536(4)
Zn2A_3 Zn -1.72790(3) 0.22754(5) -0.93464(4)
Zn3B Zn -2.24195(4) -0.69661(5) -1.37521(4)
Zn3B_2 Zn -2.24195(4) 0.30339(5) -0.37521(4)
Zn3C Zn -0.75805(4) -0.69661(5) 0.37521(4)
Zn3C_2 Zn -0.75805(4) 0.30339(5) -0.62479(4)
N6B N -2.3456(3) -0.2048(5) -0.6962(3)
N6C N -0.6544(3) -0.2048(5) -0.3038(3)
N7_2 N -1.2594(2) -0.2103(3) -0.2094(3)
N7A_2 N -1.7406(2) -0.2103(3) -0.7906(3)
N8_2 N -1.2720(3) -0.8409(3) -0.1400(3)
N8A_2 N -1.7280(3) -0.8409(3) -0.8600(3)
O9A_2 O -1.6520(2) -0.7879(4) -0.9628(3)
O11B O -2.2575(5) -0.2659(5) -0.5510(4)
O11C O -0.7425(5) -0.2659(5) -0.4490(4)
loop_
_geom_bond_atom_site_label_1
_geom_bond_atom_site_label_2
_geom_bond_site_symmetry_1
_geom_bond_site_symmetry_2
Zn1 O1 1_555 1_555
Zn2 N1 1_555 1_555
Zn3 O7 1_555 1_555
O1 C3 1_555 1_555
C1 O3 1_555 1_555
N1 C2 1_555 1_555
N2 Zn1 1_555 1_555
N3 C2 1_555 1_555
C2 C36 1_555 1_555
N4 C8 1_555 1_555
O2 Zn1 1_555 1_555
C3 C5 1_555 1_555
C4 C9 1_555 1_555
C5 C33 1_555 1_555
C6 O2 1_555 1_555
C7 N3 1_555 1_555
H1 C7 1_555 1_555
H2 C7 1_555 1_555
C8 H3 1_555 1_555
C9 H4 1_555 1_555
C10 N2 1_555 1_555
C11 N1 1_555 1_555
H5 C11 1_555 1_555
O4 C3 1_555 1_555
C12 C10 1_555 1_555
H6 C12 1_555 1_555
C13 H7 1_555 1_555
C14 H8 1_555 1_555
C15 C4 1_555 1_555
C16 C15 1_555 1_555
H9 C16 1_555 1_555
C17 C16 1_555 1_555
H10 C17 1_555 1_555
C18 C17 1_555 1_555
C19 C14 1_555 1_555
H11 C19 1_555 1_555
C20 H12 1_555 1_555
C21 C1 1_555 1_555
C22 C21 1_555 1_555
H13 C22 1_555 1_555
C23 C22 1_555 1_555
H14 C23 1_555 1_555
C24 C6 1_555 1_555
C25 C20 1_555 1_555
H15 C25 1_555 1_555
C26 N3 1_555 1_555
H16 C26 1_555 1_555
C27 C12 1_555 1_555
H17 C27 1_555 1_555
C28 C13 1_555 1_555
C29 N2 1_555 1_555
H18 C29 1_555 1_555
O5 C6 1_555 1_555
C30 C8 1_555 1_555
C31 N4 1_555 1_555
H19 C31 1_555 1_555
H20 C31 1_555 1_555
C32 C4 1_555 1_555
H21 C32 1_555 1_555
O6 Zn2 1_555 1_555
O7 C35 1_555 1_555
C33 H22 1_555 1_555
O8 C35 1_555 1_555
C34 C5 1_555 1_555
H23 C34 1_555 1_555
C35 C39 1_555 1_555
C36 C13 1_555 1_555
H24 C36 1_555 1_555
C37 H25 1_555 1_555
C38 C37 1_555 1_555
H26 C38 1_555 1_555
C39 C38 1_555 1_555
C40 C39 1_555 1_555
H27 C40 1_555 1_555
C41 C40 1_555 1_555
H28 C41 1_555 1_555
C42 C37 1_555 1_555
C43 H29 1_555 1_555
C44 C43 1_555 1_555
H30 C44 1_555 1_555
N5 Zn3 1_555 1_555
C45 N5 1_555 1_555
H31 C45 1_555 1_555
C46 C45 1_555 1_555
H32 C46 1_555 1_555
C47 C30 1_555 1_555
C48 H33 1_555 1_555
N6 C48 1_555 1_555
C49 N6 1_555 1_555
H34 C49 1_555 1_555
C50 C49 1_555 1_555
H35 C50 1_555 1_555
C51 C28 1_555 1_555
C52 C48 1_555 1_555
H36 C52 1_555 1_555
C53 C55 1_555 1_555
C54 H37 1_555 1_555
C55 C54 1_555 1_555
C56 C55 1_555 1_555
H38 C56 1_555 1_555
C57 C56 1_555 1_555
H39 C57 1_555 1_555
C58 C11 1_555 1_555
C59 C54 1_555 1_555
H40 C59 1_555 1_555
C60 H41 1_555 1_555
C61 H42 1_555 1_555
C62 C9 1_555 1_555
H43 C62 1_555 1_555
C63 C53 1_555 1_555
H44 C63 1_555 1_555
C64 C53 1_555 1_555
H45 C64 1_555 1_555
C65 C32 1_555 1_555
H46 C65 1_555 1_555
N7 C60 1_555 1_555
N8 C62 1_555 1_555
O9 Zn2 1_555 1_555
O10 C67 1_555 1_555
C66 C67 1_555 1_555
C67 O9 1_555 1_555
C68 C66 1_555 1_555
H47 C68 1_555 1_555
C69 C66 1_555 1_555
H48 C69 1_555 1_555
O11 C70 1_555 1_555
C70 C42 1_555 1_555
O12 C70 1_555 1_555
O1A C3A 1_555 1_555
C3A C5A 1_555 1_555
C5A C33A 1_555 1_555
O4A C3A 1_555 1_555
C33A C34 1_555 1_555
H22A C33A 1_555 1_555
C34A C33 1_555 1_555
H23A C34A 1_555 1_555
O9A C67A 1_555 1_555
O10A C67A 1_555 1_555
C66A C67A 1_555 1_555
C68A C69 1_555 1_555
H47A C68A 1_555 1_555
C69A C68 1_555 1_555
H48A C69A 1_555 1_555
Zn1A O1A 1_555 1_555
Zn2A N1A 1_555 1_555
Zn3A O7A 1_555 1_555
C1A O3A 1_555 1_555
N1A C2A 1_555 1_555
N2A Zn1A 1_555 1_555
N3A C2A 1_555 1_555
C2A C36A 1_555 1_555
N4A C8A 1_555 1_555
O2A Zn1A 1_555 1_555
C4A C9A 1_555 1_555
C6A O2A 1_555 1_555
C7A N3A 1_555 1_555
H1A C7A 1_555 1_555
H2A C7A 1_555 1_555
C8A H3A 1_555 1_555
C9A H4A 1_555 1_555
C10A N2A 1_555 1_555
C11A N1A 1_555 1_555
H5A C11A 1_555 1_555
C12A C10A 1_555 1_555
H6A C12A 1_555 1_555
C13A H7A 1_555 1_555
C14A H8A 1_555 1_555
C15A C4A 1_555 1_555
C16A C15A 1_555 1_555
H9A C16A 1_555 1_555
C17A C16A 1_555 1_555
H10A C17A 1_555 1_555
C18A C17A 1_555 1_555
C19A C14A 1_555 1_555
H11A C19A 1_555 1_555
C20A H12A 1_555 1_555
C21A C1A 1_555 1_555
C22A C21A 1_555 1_555
H13A C22A 1_555 1_555
C23A C22A 1_555 1_555
H14A C23A 1_555 1_555
C24A C6A 1_555 1_555
C25A C20A 1_555 1_555
H15A C25A 1_555 1_555
C26A N3A 1_555 1_555
H16A C26A 1_555 1_555
C27A C12A 1_555 1_555
H17A C27A 1_555 1_555
C28A C13A 1_555 1_555
C29A N2A 1_555 1_555
H18A C29A 1_555 1_555
O5A C6A 1_555 1_555
C30A C8A 1_555 1_555
C31A N4A 1_555 1_555
H19A C31A 1_555 1_555
H20A C31A 1_555 1_555
C32A C4A 1_555 1_555
H21A C32A 1_555 1_555
O6A Zn2A 1_555 1_555
O7A C35A 1_555 1_555
O8A C35A 1_555 1_555
C35A C39A 1_555 1_555
C36A C13A 1_555 1_555
H24A C36A 1_555 1_555
C37A H25A 1_555 1_555
C38A C37A 1_555 1_555
H26A C38A 1_555 1_555
C39A C38A 1_555 1_555
C40A C39A 1_555 1_555
H27A C40A 1_555 1_555
C41A C40A 1_555 1_555
H28A C41A 1_555 1_555
C42A C37A 1_555 1_555
C43A H29A 1_555 1_555
C44A C43A 1_555 1_555
H30A C44A 1_555 1_555
N5A Zn3A 1_555 1_555
C45A N5A 1_555 1_555
H31A C45A 1_555 1_555
C46A C45A 1_555 1_555
H32A C46A 1_555 1_555
C47A C30A 1_555 1_555
C48A H33A 1_555 1_555
N6A C48A 1_555 1_555
C49A N6A 1_555 1_555
H34A C49A 1_555 1_555
C50A C49A 1_555 1_555
H35A C50A 1_555 1_555
C51A C28A 1_555 1_555
C52A C48A 1_555 1_555
H36A C52A 1_555 1_555
C53A C55A 1_555 1_555
C54A H37A 1_555 1_555
C55A C54A 1_555 1_555
C56A C55A 1_555 1_555
H38A C56A 1_555 1_555
C57A C56A 1_555 1_555
H39A C57A 1_555 1_555
C58A C11A 1_555 1_555
C59A C54A 1_555 1_555
H40A C59A 1_555 1_555
C60A H41A 1_555 1_555
C61A H42A 1_555 1_555
C62A C9A 1_555 1_555
H43A C62A 1_555 1_555
C63A C53A 1_555 1_555
H44A C63A 1_555 1_555
C64A C53A 1_555 1_555
H45A C64A 1_555 1_555
C65A C32A 1_555 1_555
H46A C65A 1_555 1_555
N7A C60A 1_555 1_555
N8A C62A 1_555 1_555
O11A C70A 1_555 1_555
C70A C42A 1_555 1_555
O12A C70A 1_555 1_555
Zn1_2 N7 1_555 1_555
Zn1A_2 N7A 1_555 1_555
Zn2_2 N8 1_555 1_555
Zn2A_2 O9A 1_555 1_555
Zn2A_3 N8A 1_555 1_555
Zn3B N6A 1_555 1_555
Zn3B_2 O11A 1_555 1_555
Zn3C N6 1_555 1_555
Zn3C_2 O11 1_555 1_555
N6B Zn3A 1_555 1_555
N6C Zn3 1_555 1_555
N7_2 Zn1 1_555 1_555
N7A_2 Zn1A 1_555 1_555
N8_2 Zn2 1_555 1_555
N8A_2 Zn2A 1_555 1_555
O9A_2 Zn2A 1_555 1_555
O11B Zn3A 1_555 1_555
O11C Zn3 1_555 1_555
C1 O6 1_555 1_555
N4 C10 1_555 1_555
C7 C11 1_555 1_555
C14 C15 1_555 1_555
C18 C19 1_555 1_555
C18 C29 1_555 1_555
C20 C21 1_555 1_555
C23 C24 1_555 1_555
C24 C25 1_555 1_555
C26 C28 1_555 1_555
C27 C30 1_555 1_555
C29 C31 1_555 1_555
C41 C42 1_555 1_555
C43 C47 1_555 1_555
C44 N5 1_555 1_555
C46 C47 1_555 1_555
C50 C51 1_555 1_555
C51 C52 1_555 1_555
C57 C58 1_555 1_555
C58 C59 1_555 1_555
C60 C63 1_555 1_555
C61 C64 1_555 1_555
C61 N7 1_555 1_555
C65 N8 1_555 1_555
C5A C34A 1_555 1_555
C66A C68A 1_555 1_555
C66A C69A 1_555 1_555
C1A O6A 1_555 1_555
N4A C10A 1_555 1_555
C7A C11A 1_555 1_555
C14A C15A 1_555 1_555
C18A C19A 1_555 1_555
C18A C29A 1_555 1_555
C20A C21A 1_555 1_555
C23A C24A 1_555 1_555
C24A C25A 1_555 1_555
C26A C28A 1_555 1_555
C27A C30A 1_555 1_555
C29A C31A 1_555 1_555
C41A C42A 1_555 1_555
C43A C47A 1_555 1_555
C44A N5A 1_555 1_555
C46A C47A 1_555 1_555
C50A C51A 1_555 1_555
C51A C52A 1_555 1_555
C57A C58A 1_555 1_555
C58A C59A 1_555 1_555
C60A C63A 1_555 1_555
C61A C64A 1_555 1_555
C61A N7A 1_555 1_555
C65A N8A 1_555 1_555

#END
