
#######################################################################
#
#                 Cambridge Crystallographic Data Centre
#                                CCDC 
#
#######################################################################
#
# If this CIF has been generated from an entry in the Cambridge 
# Structural Database, then it will include bibliographic, chemical, 
# crystal, experimental, refinement or atomic coordinate data resulting 
# from the CCDC's data processing and validation procedures.
#
#######################################################################

data_ALONEV
_chemical_formula_moiety         'C52 H75 Cl24 Mn3 N23 Nb12 O5 3+'
_symmetry_cell_setting           tetragonal
_symmetry_space_group_name_H-M   'I 41/a'
_symmetry_Int_Tables_number      88
_space_group_name_Hall           '-I 4ad'
loop_
_symmetry_equiv_pos_site_id
_symmetry_equiv_pos_as_xyz
1 x,y,z
2 1/2-x,-y,1/2+z
3 3/4-y,1/4+x,1/4+z
4 3/4+y,3/4-x,3/4+z
5 1/2+x,1/2+y,1/2+z
6 -x,1/2-y,z
7 1/4-y,3/4+x,3/4+z
8 1/4+y,1/4-x,1/4+z
9 -x,-y,-z
10 1/2+x,y,1/2-z
11 1/4+y,3/4-x,3/4-z
12 1/4-y,1/4+x,1/4-z
13 1/2-x,1/2-y,1/2-z
14 x,1/2+y,-z
15 3/4+y,1/4-x,1/4-z
16 3/4-y,3/4+x,3/4-z
_cell_length_a                   30.585(4)
_cell_length_b                   30.585(4)
_cell_length_c                   27.348(6)
_cell_angle_alpha                90
_cell_angle_beta                 90
_cell_angle_gamma                90
_cell_volume                     25582.5
loop_
_atom_site_label
_atom_site_type_symbol
_atom_site_fract_x
_atom_site_fract_y
_atom_site_fract_z
N2 N 0.83933(11) 1.33616(14) -0.24944(11)
C5 C 0.8241(2) 1.38285(18) -0.24900(18)
H13 H 0.8066 1.3881 -0.2196
H14 H 0.8063 1.3885 -0.2781
H15 H 0.8495 1.4024 -0.2490
C6 C 0.80096(18) 1.3069(2) -0.24867(18)
H16 H 0.8108 1.2764 -0.2489
H17 H 0.7828 1.3124 -0.2776
H18 H 0.7838 1.3124 -0.2191
C7 C 0.86719(16) 1.3295(2) -0.20540(17)
H19 H 0.8777 1.2993 -0.2046
H20 H 0.8500 1.3355 -0.1759
H21 H 0.8922 1.3495 -0.2067
C8 C 0.86548(17) 1.32860(19) -0.29477(17)
H22 H 0.8757 1.2982 -0.2954
H23 H 0.8907 1.3484 -0.2951
H24 H 0.8472 1.3342 -0.3235
N3 N 0.73599(12) 1.47302(11) 0.16545(14)
C9 C 0.7151(2) 1.51664(17) 0.1737(2)
H25 H 0.6840 1.5150 0.1654
H26 H 0.7294 1.5386 0.1531
H27 H 0.7183 1.5249 0.2082
C10 C 0.71510(19) 1.44049(18) 0.1981(2)
H28 H 0.6839 1.4385 0.1905
H29 H 0.7188 1.4496 0.2322
H30 H 0.7289 1.4119 0.1933
C11 C 0.78390(15) 1.47512(16) 0.17793(19)
H31 H 0.7973 1.4465 0.1722
H32 H 0.7873 1.4832 0.2124
H33 H 0.7982 1.4970 0.1573
C12 C 0.72993(17) 1.45881(17) 0.11307(18)
H34 H 0.6986 1.4575 0.1055
H35 H 0.7430 1.4298 0.1084
H36 H 0.7442 1.4799 0.0913
N4 N 0.4263(2) 1.45256(16) 0.0240(2)
C13 C 0.35756(18) 1.42606(19) 0.0746(2)
C14 C 0.3959(2) 1.44128(18) 0.0475(2)
N5 N 0.30784(18) 1.47684(18) -0.0236(2)
C15 C 0.36154(19) 1.42598(18) -0.0734(2)
C16 C 0.3320(2) 1.4536(2) -0.0460(2)
N6 N 0.80564(18) 1.1700(3) 0.2363(2)
C17 C 0.8200(2) 1.10002(19) 0.1809(2)
C18 C 0.81131(16) 1.1390(3) 0.2122(2)
O1 O 0.70950(17) 1.04023(14) 0.19476(17)
Nb1 Nb 1.040542(9) 0.990099(8) -1.193536(9)
Nb2 Nb 1.041125(9) 0.990124(8) -1.300700(9)
Nb3 Nb 0.980687(9) 0.932779(8) -1.247488(9)
Nb4 Nb 0.947004(9) 1.009164(9) -1.194121(9)
Nb5 Nb 0.947392(9) 1.009014(9) -1.301300(9)
Nb6 Nb 1.007427(9) 1.066331(8) -1.247457(9)
Mn1 Mn 1.0000 1.2500 -1.24932(2)
Mn2 Mn 1.0000 0.7500 -1.24960(2)
Cl1 Cl 1.03291(3) 0.91028(2) -1.18400(3)
Cl2 Cl 0.99338(2) 0.99952(3) -1.12115(3)
Cl3 Cl 1.10461(2) 0.97778(3) -1.24656(3)
Cl4 Cl 1.06469(3) 1.06662(2) -1.18376(3)
Cl5 Cl 1.03377(3) 0.91055(2) -1.31025(3)
Cl6 Cl 0.99461(3) 0.99954(3) -1.37352(3)
Cl7 Cl 1.06551(3) 1.06666(2) -1.31024(3)
Cl8 Cl 0.92260(3) 0.93247(2) -1.18470(3)
Cl9 Cl 0.92334(3) 0.93239(2) -1.31076(3)
Cl10 Cl 0.88370(2) 1.02140(3) -1.24792(3)
Cl11 Cl 0.95429(3) 1.08925(2) -1.18481(3)
Cl12 Cl 0.95467(3) 1.08897(2) -1.31086(3)
N7 N 1.11562(11) 0.96749(12) -1.10472(12)
N8 N 1.11954(11) 0.97074(12) -1.38664(12)
N9 N 0.96749(9) 0.82076(9) -1.24880(10)
N10 N 0.87015(11) 1.03100(12) -1.10663(12)
N11 N 0.86942(12) 1.02771(13) -1.38784(13)
N12 N 1.02371(10) 1.17753(9) -1.24850(10)
N13 N 1.03939(8) 0.77021(9) -1.19913(8)
N14 N 1.03908(8) 0.77111(9) -1.30004(8)
C19 C 1.09109(11) 0.97726(11) -1.13425(12)
C20 C 1.09338(11) 0.97819(11) -1.35821(12)
C21 C 0.96911(10) 0.85843(10) -1.24797(11)
C22 C 0.89543(11) 1.02188(11) -1.13552(12)
C23 C 0.89562(11) 1.01998(12) -1.35940(13)
C24 C 1.02017(11) 1.14027(10) -1.24789(11)
C25 C 0.91945(14) 1.21912(14) -1.29453(15)
C26 C 0.8941(2) 1.20890(17) -1.33982(17)
H37 H 0.9120 1.2156 -1.3686
H38 H 0.8674 1.2266 -1.3405
H39 H 0.8863 1.1778 -1.3400
C27 C 0.90078(19) 1.21191(16) -1.24887(16)
H40 H 0.8715 1.2017 -1.2486
C28 C 0.92028(14) 1.21804(14) -1.20370(14)
C29 C 0.8955(2) 1.20540(16) -1.15826(17)
H41 H 0.8669 1.1934 -1.1674
H42 H 0.8914 1.2312 -1.1376
H43 H 0.9121 1.1832 -1.1402
C30 C 1.09376(14) 0.81522(14) -1.33997(15)
H44 H 1.0805 0.8020 -1.3691
H45 H 1.1247 0.8071 -1.3383
H46 H 1.0911 0.8471 -1.3419
C31 C 1.07055(12) 0.79895(12) -1.29495(13)
C32 C 1.08470(14) 0.81366(14) -1.24918(14)
H47 H 1.1058 0.8365 -1.2490
C33 C 1.07105(12) 0.79835(13) -1.20426(14)
C34 C 1.09393(16) 0.81311(15) -1.15834(15)
H48 H 1.1170 0.8341 -1.1668
H49 H 1.1069 0.7878 -1.1419
H50 H 1.0728 0.8271 -1.1364
C35 C 1.0250(3) 0.7520(2) -1.3496(2)
O2 O 0.95864(8) 1.23463(9) -1.30022(8)
O3 O 0.95863(8) 1.23431(9) -1.19851(9)
Nb1E Nb 0.959458(9) 1.509901(8) -1.193536(9)
Nb2E Nb 0.958875(9) 1.509876(8) -1.300700(9)
Nb3E Nb 1.019313(9) 1.567221(8) -1.247488(9)
Nb4E Nb 1.052996(9) 1.490836(9) -1.194121(9)
Nb5E Nb 1.052608(9) 1.490986(9) -1.301300(9)
Nb6E Nb 0.992573(9) 1.433669(8) -1.247457(9)
Mn2_2 Mn 1.0000 1.7500 -1.24960(2)
Cl1E Cl 0.96709(3) 1.58972(2) -1.18400(3)
Cl2E Cl 1.00662(2) 1.50048(3) -1.12115(3)
Cl3E Cl 0.89539(2) 1.52222(3) -1.24656(3)
Cl4E Cl 0.93531(3) 1.43338(2) -1.18376(3)
Cl5E Cl 0.96623(3) 1.58945(2) -1.31025(3)
Cl6E Cl 1.00539(3) 1.50046(3) -1.37352(3)
Cl7E Cl 0.93449(3) 1.43334(2) -1.31024(3)
Cl8E Cl 1.07740(3) 1.56753(2) -1.18470(3)
Cl9E Cl 1.07666(3) 1.56761(2) -1.31076(3)
Cl10E Cl 1.11630(2) 1.47860(3) -1.24792(3)
Cl11E Cl 1.04571(3) 1.41075(2) -1.18481(3)
Cl12E Cl 1.04533(3) 1.41103(2) -1.31086(3)
N7E N 0.88438(11) 1.53251(12) -1.10472(12)
N8E N 0.88046(11) 1.52926(12) -1.38664(12)
N9E N 1.03251(9) 1.67924(9) -1.24880(10)
N9E_2 N 1.03251(9) 0.67924(9) -1.24880(10)
N10E N 1.12985(11) 1.46900(12) -1.10663(12)
N11E N 1.13058(12) 1.47229(13) -1.38784(13)
N12E N 0.97629(10) 1.32247(9) -1.24850(10)
N13E N 0.96061(8) 0.72979(9) -1.19913(8)
N14E N 0.96092(8) 0.72889(9) -1.30004(8)
C19E C 0.90891(11) 1.52274(11) -1.13425(12)
C20E C 0.90662(11) 1.52181(11) -1.35821(12)
C21E C 1.03089(10) 1.64157(10) -1.24797(11)
C22E C 1.10457(11) 1.47812(11) -1.13552(12)
C23E C 1.10438(11) 1.48002(12) -1.35940(13)
C24E C 0.97983(11) 1.35973(10) -1.24789(11)
C25E C 1.08055(14) 1.28088(14) -1.29453(15)
C26E C 1.1059(2) 1.29110(17) -1.33982(17)
H37E H 1.0880 1.2844 -1.3686
H38E H 1.1326 1.2734 -1.3405
H39E H 1.1137 1.3222 -1.3400
C27E C 1.09922(19) 1.28809(16) -1.24887(16)
H40E H 1.1285 1.2983 -1.2486
C28E C 1.07972(14) 1.28196(14) -1.20370(14)
C29E C 1.1045(2) 1.29460(16) -1.15826(17)
H41E H 1.1331 1.3066 -1.1674
H42E H 1.1086 1.2688 -1.1376
H43E H 1.0879 1.3168 -1.1402
C30E C 0.90624(14) 0.68478(14) -1.33997(15)
H44E H 0.9195 0.6980 -1.3691
H45E H 0.8753 0.6929 -1.3383
H46E H 0.9089 0.6529 -1.3419
C31E C 0.92945(12) 0.70105(12) -1.29495(13)
C32E C 0.91530(14) 0.68634(14) -1.24918(14)
H47E H 0.8942 0.6635 -1.2490
C33E C 0.92895(12) 0.70165(13) -1.20426(14)
C34E C 0.90607(16) 0.68689(15) -1.15834(15)
H48E H 0.8830 0.6659 -1.1668
H49E H 0.8931 0.7122 -1.1419
H50E H 0.9272 0.6729 -1.1364
C35E C 0.9750(3) 0.7480(2) -1.3496(2)
O2E O 1.04136(8) 1.26537(9) -1.30022(8)
O3E O 1.04137(8) 1.26569(9) -1.19851(9)
N1 N 0.83757(10) 1.31017(11) 0.25096(10)
C1 C 0.84461(17) 1.35796(16) 0.24998(16)
H1 H 0.8310 1.3703 0.2206
H2 H 0.8760 1.3641 0.2496
H3 H 0.8314 1.3712 0.2791
C2 C 0.85836(16) 1.29106(19) 0.29576(16)
H4 H 0.8457 1.3046 0.3250
H5 H 0.8899 1.2966 0.2950
H6 H 0.8531 1.2595 0.2966
C3 C 0.85762(15) 1.28992(18) 0.20674(16)
H7 H 0.8445 1.3026 0.1773
H8 H 0.8524 1.2583 0.2071
H9 H 0.8892 1.2955 0.2067
C4 C 0.79032(13) 1.30074(16) 0.25190(15)
H10 H 0.7764 1.3135 0.2229
H11 H 0.7774 1.3134 0.2814
H12 H 0.7858 1.2690 0.2520
loop_
_geom_bond_atom_site_label_1
_geom_bond_atom_site_label_2
_geom_bond_site_symmetry_1
_geom_bond_site_symmetry_2
N1 C1 1_555 1_555
C1 H1 1_555 1_555
H2 C1 1_555 1_555
H3 C1 1_555 1_555
C2 N1 1_555 1_555
H4 C2 1_555 1_555
H5 C2 1_555 1_555
H6 C2 1_555 1_555
C3 N1 1_555 1_555
H7 C3 1_555 1_555
H8 C3 1_555 1_555
H9 C3 1_555 1_555
C4 N1 1_555 1_555
H10 C4 1_555 1_555
H11 C4 1_555 1_555
H12 C4 1_555 1_555
N2 C5 1_555 1_555
C5 H13 1_555 1_555
H14 C5 1_555 1_555
H15 C5 1_555 1_555
C6 N2 1_555 1_555
H16 C6 1_555 1_555
H17 C6 1_555 1_555
H18 C6 1_555 1_555
C7 N2 1_555 1_555
H19 C7 1_555 1_555
H20 C7 1_555 1_555
H21 C7 1_555 1_555
C8 N2 1_555 1_555
H22 C8 1_555 1_555
H23 C8 1_555 1_555
H24 C8 1_555 1_555
N3 C9 1_555 1_555
C9 H25 1_555 1_555
H26 C9 1_555 1_555
H27 C9 1_555 1_555
C10 N3 1_555 1_555
H28 C10 1_555 1_555
H29 C10 1_555 1_555
H30 C10 1_555 1_555
C11 N3 1_555 1_555
H31 C11 1_555 1_555
H32 C11 1_555 1_555
H33 C11 1_555 1_555
C12 N3 1_555 1_555
H34 C12 1_555 1_555
H35 C12 1_555 1_555
H36 C12 1_555 1_555
N4 C14 1_555 1_555
C13 C14 1_555 1_555
N5 C16 1_555 1_555
C15 C16 1_555 1_555
N6 C18 1_555 1_555
C17 C18 1_555 1_555
Nb1 Nb2 1_555 1_555
Nb2 Nb3 1_555 1_555
Nb3 Nb1 1_555 1_555
Nb4 Nb1 1_555 1_555
Nb5 Nb2 1_555 1_555
Nb6 Nb1 1_555 1_555
Mn1 N12 1_555 1_555
Mn2 N9 1_555 1_555
Cl1 Nb1 1_555 1_555
Cl2 Nb1 1_555 1_555
Cl3 Nb1 1_555 1_555
Cl4 Nb1 1_555 1_555
Cl5 Nb2 1_555 1_555
Cl6 Nb2 1_555 1_555
Cl7 Nb2 1_555 1_555
Cl8 Nb3 1_555 1_555
Cl9 Nb3 1_555 1_555
Cl10 Nb4 1_555 1_555
Cl11 Nb4 1_555 1_555
Cl12 Nb5 1_555 1_555
N7 C19 1_555 1_555
N8 C20 1_555 1_555
N9 C21 1_555 1_555
N10 C22 1_555 1_555
N11 C23 1_555 1_555
N12 C24 1_555 1_555
N13 Mn2 1_555 1_555
N14 Mn2 1_555 1_555
C19 Nb1 1_555 1_555
C20 Nb2 1_555 1_555
C21 Nb3 1_555 1_555
C22 Nb4 1_555 1_555
C23 Nb5 1_555 1_555
C24 Nb6 1_555 1_555
C25 C26 1_555 1_555
C26 H37 1_555 1_555
H38 C26 1_555 1_555
H39 C26 1_555 1_555
C27 C25 1_555 1_555
H40 C27 1_555 1_555
C28 C27 1_555 1_555
C29 C28 1_555 1_555
H41 C29 1_555 1_555
H42 C29 1_555 1_555
H43 C29 1_555 1_555
C30 H44 1_555 1_555
H45 C30 1_555 1_555
H46 C30 1_555 1_555
C31 N14 1_555 1_555
C32 C31 1_555 1_555
H47 C32 1_555 1_555
C33 N13 1_555 1_555
C34 C33 1_555 1_555
H48 C34 1_555 1_555
H49 C34 1_555 1_555
H50 C34 1_555 1_555
C35 N14 1_555 1_555
O2 Mn1 1_555 1_555
O3 Mn1 1_555 1_555
Nb1E Nb2E 1_555 1_555
Nb2E Nb3E 1_555 1_555
Nb3E Nb1E 1_555 1_555
Nb4E Nb1E 1_555 1_555
Nb5E Nb2E 1_555 1_555
Nb6E Nb1E 1_555 1_555
Mn2_2 N9E 1_555 1_555
Cl1E Nb1E 1_555 1_555
Cl2E Nb1E 1_555 1_555
Cl3E Nb1E 1_555 1_555
Cl4E Nb1E 1_555 1_555
Cl5E Nb2E 1_555 1_555
Cl6E Nb2E 1_555 1_555
Cl7E Nb2E 1_555 1_555
Cl8E Nb3E 1_555 1_555
Cl9E Nb3E 1_555 1_555
Cl10E Nb4E 1_555 1_555
Cl11E Nb4E 1_555 1_555
Cl12E Nb5E 1_555 1_555
N7E C19E 1_555 1_555
N8E C20E 1_555 1_555
N9E C21E 1_555 1_555
N9E_2 Mn2 1_555 1_555
N10E C22E 1_555 1_555
N11E C23E 1_555 1_555
N12E Mn1 1_555 1_555
N13E Mn2 1_555 1_555
N14E Mn2 1_555 1_555
C19E Nb1E 1_555 1_555
C20E Nb2E 1_555 1_555
C21E Nb3E 1_555 1_555
C22E Nb4E 1_555 1_555
C23E Nb5E 1_555 1_555
C24E Nb6E 1_555 1_555
C25E C26E 1_555 1_555
C26E H37E 1_555 1_555
H38E C26E 1_555 1_555
H39E C26E 1_555 1_555
C27E C25E 1_555 1_555
H40E C27E 1_555 1_555
C28E C27E 1_555 1_555
C29E C28E 1_555 1_555
H41E C29E 1_555 1_555
H42E C29E 1_555 1_555
H43E C29E 1_555 1_555
C30E H44E 1_555 1_555
H45E C30E 1_555 1_555
H46E C30E 1_555 1_555
C31E N14E 1_555 1_555
C32E C31E 1_555 1_555
H47E C32E 1_555 1_555
C33E N13E 1_555 1_555
C34E C33E 1_555 1_555
H48E C34E 1_555 1_555
H49E C34E 1_555 1_555
H50E C34E 1_555 1_555
C35E C35 1_555 1_555
O2E Mn1 1_555 1_555
O3E Mn1 1_555 1_555
Nb2 Nb6 1_555 1_555
Nb2 Cl3 1_555 1_555
Nb3 Nb4 1_555 1_555
Nb3 Nb5 1_555 1_555
Nb3 Cl1 1_555 1_555
Nb3 Cl5 1_555 1_555
Nb4 Nb5 1_555 1_555
Nb4 Nb6 1_555 1_555
Nb4 Cl2 1_555 1_555
Nb4 Cl8 1_555 1_555
Nb5 Nb6 1_555 1_555
Nb5 Cl6 1_555 1_555
Nb5 Cl9 1_555 1_555
Nb5 Cl10 1_555 1_555
Nb6 Cl4 1_555 1_555
Nb6 Cl7 1_555 1_555
Nb6 Cl11 1_555 1_555
Nb6 Cl12 1_555 1_555
C25 O2 1_555 1_555
C28 O3 1_555 1_555
C30 C31 1_555 1_555
C32 C33 1_555 1_555
Nb2E Nb6E 1_555 1_555
Nb2E Cl3E 1_555 1_555
Nb3E Nb4E 1_555 1_555
Nb3E Nb5E 1_555 1_555
Nb3E Cl1E 1_555 1_555
Nb3E Cl5E 1_555 1_555
Nb4E Nb5E 1_555 1_555
Nb4E Nb6E 1_555 1_555
Nb4E Cl2E 1_555 1_555
Nb4E Cl8E 1_555 1_555
Nb5E Nb6E 1_555 1_555
Nb5E Cl6E 1_555 1_555
Nb5E Cl9E 1_555 1_555
Nb5E Cl10E 1_555 1_555
Nb6E Cl4E 1_555 1_555
Nb6E Cl7E 1_555 1_555
Nb6E Cl11E 1_555 1_555
Nb6E Cl12E 1_555 1_555
N12E C24E 1_555 1_555
N14E C35E 1_555 1_555
C25E O2E 1_555 1_555
C28E O3E 1_555 1_555
C30E C31E 1_555 1_555
C32E C33E 1_555 1_555

#END
