
#######################################################################
#
#                 Cambridge Crystallographic Data Centre
#                                CCDC 
#
#######################################################################
#
# If this CIF has been generated from an entry in the Cambridge 
# Structural Database, then it will include bibliographic, chemical, 
# crystal, experimental, refinement or atomic coordinate data resulting 
# from the CCDC's data processing and validation procedures.
#
#######################################################################

data_JUMCOL
_chemical_formula_moiety         '(C9 H4 O5 S2 V1)n'
_symmetry_cell_setting           orthorhombic
_symmetry_space_group_name_H-M   'P n m a'
_symmetry_Int_Tables_number      62
_space_group_name_Hall           '-P 2ac 2n'
loop_
_symmetry_equiv_pos_site_id
_symmetry_equiv_pos_as_xyz
1 x,y,z
2 1/2-x,-y,1/2+z
3 1/2+x,1/2-y,1/2-z
4 -x,1/2+y,-z
5 -x,-y,-z
6 1/2+x,y,1/2-z
7 1/2-x,1/2+y,1/2+z
8 x,1/2-y,z
_cell_length_a                   6.8223(7)
_cell_length_b                   15.2689(15)
_cell_length_c                   14.9109(15)
_cell_angle_alpha                90
_cell_angle_beta                 90
_cell_angle_gamma                90
_cell_volume                     1553.25
loop_
_atom_site_label
_atom_site_type_symbol
_atom_site_fract_x
_atom_site_fract_y
_atom_site_fract_z
V1 V 0.18782(6) 0.2500 0.76202(3)
O1 O -0.0300(3) 0.2500 0.80487(12)
O2 O 0.6354(2) 0.34148(10) 0.82931(11)
O3 O 0.3081(2) 0.34159(10) 0.84020(10)
C1 C 0.4760(3) 0.36797(13) 0.86210(13)
C2 C 0.4882(3) 0.43681(14) 0.93332(14)
C3 C 0.6699(3) 0.46728(17) 0.96138(17)
H1 H 0.7837 0.4451 0.9356
C4 C 0.6821(3) 0.53052(17) 1.02752(17)
H2 H 0.8039 0.5512 1.0458
O2D O 0.3646(2) 0.65852(10) 1.17069(11)
O3D O 0.6919(2) 0.65841(10) 1.15980(10)
C1D C 0.5240(3) 0.63203(13) 1.13790(13)
C2D C 0.5118(3) 0.56319(14) 1.06668(14)
C3D C 0.3301(3) 0.53272(17) 1.03862(17)
H1D H 0.2163 0.5549 1.0644
C4D C 0.3179(3) 0.46948(17) 0.97248(17)
H2D H 0.1961 0.4488 0.9542
V1A V 0.31218(6) 0.7500 1.26202(3)
V1B V -0.31218(6) 0.2500 0.73798(3)
V1B_2 V 0.68782(6) 0.2500 0.73798(3)
V1C V 0.81218(6) 0.7500 1.23798(3)
O1B O 0.4700(3) 0.2500 0.69513(12)
O2B O 0.1354(2) 0.15852(10) 0.67069(11)
O2E O 0.1354(2) 0.34148(10) 0.67069(11)
O3G O 0.3081(2) 0.15841(10) 0.84020(10)
C5 C 0.7813(15) 0.2500 0.0601(10)
S1 S 0.9913(13) 0.2500 0.0186(6)
S2 S 0.5664(13) 0.2500 0.0958(10)
loop_
_geom_bond_atom_site_label_1
_geom_bond_atom_site_label_2
_geom_bond_site_symmetry_1
_geom_bond_site_symmetry_2
V1 O1 1_555 1_555
O1 V1B 1_555 1_555
O2 C1 1_555 1_555
O3 V1 1_555 1_555
C1 O3 1_555 1_555
C2 C1 1_555 1_555
C3 C2 1_555 1_555
H1 C3 1_555 1_555
C4 C3 1_555 1_555
H2 C4 1_555 1_555
C5 S1 1_555 1_555
S2 C5 1_555 1_555
O2D C1D 1_555 1_555
O3D C1D 1_555 1_555
C1D C2D 1_555 1_555
C2D C4 1_555 1_555
C3D C2D 1_555 1_555
H1D C3D 1_555 1_555
C4D C2 1_555 1_555
H2D C4D 1_555 1_555
V1A O2D 1_555 1_555
V1B_2 O2 1_555 1_555
V1C O3D 1_555 1_555
O1B V1 1_555 1_555
O2B V1 1_555 1_555
O2E V1 1_555 1_555
O3G V1 1_555 1_555
C3D C4D 1_555 1_555
V1B_2 O1B 1_555 1_555

#END
