
#######################################################################
#
#                 Cambridge Crystallographic Data Centre
#                                CCDC 
#
#######################################################################
#
# If this CIF has been generated from an entry in the Cambridge 
# Structural Database, then it will include bibliographic, chemical, 
# crystal, experimental, refinement or atomic coordinate data resulting 
# from the CCDC's data processing and validation procedures.
#
#######################################################################

data_WEMHED
_chemical_formula_moiety         '(C26 H31 Cd1 N9 O7)n'
_symmetry_cell_setting           monoclinic
_symmetry_space_group_name_H-M   'C 2/c'
_symmetry_Int_Tables_number      15
_space_group_name_Hall           '-C 2yc'
loop_
_symmetry_equiv_pos_site_id
_symmetry_equiv_pos_as_xyz
1 x,y,z
2 -x,y,1/2-z
3 1/2+x,1/2+y,z
4 1/2-x,1/2+y,1/2-z
5 -x,-y,-z
6 x,-y,1/2+z
7 1/2-x,1/2-y,-z
8 1/2+x,1/2-y,1/2+z
_cell_length_a                   20.4940(7)
_cell_length_b                   13.4394(5)
_cell_length_c                   23.0775(7)
_cell_angle_alpha                90
_cell_angle_beta                 93.709(3)
_cell_angle_gamma                90
_cell_volume                     6342.85
loop_
_atom_site_label
_atom_site_type_symbol
_atom_site_fract_x
_atom_site_fract_y
_atom_site_fract_z
_atom_site_U_iso_or_equiv
_atom_site_thermal_displace_type
Cd1 Cd 0.78897(3) 0.26428(4) 0.26783(2) 0.0372 Uani
C1 C 0.8620(4) 0.4625(6) 0.2144(5) 0.0664 Uani
C2 C 0.8774(4) 0.5095(5) 0.1576(4) 0.0587 Uani
C3 C 0.9268(5) 0.4655(7) 0.1267(6) 0.0856 Uani
H1 H 0.9479 0.4085 0.1411 0.1030 Uiso
C4 C 0.9441(6) 0.5067(9) 0.0755(6) 0.0990 Uani
H2 H 0.9771 0.4775 0.0556 0.1190 Uiso
C5 C 0.9130(6) 0.5914(9) 0.0529(5) 0.0942 Uani
H3 H 0.9253 0.6190 0.0183 0.1130 Uiso
C6 C 0.8633(5) 0.6342(7) 0.0826(4) 0.0687 Uani
H4 H 0.8423 0.6907 0.0675 0.0820 Uiso
C7 C 0.8442(4) 0.5942(5) 0.1348(3) 0.0463 Uani
C8 C 0.7913(3) 0.6440(5) 0.1666(3) 0.0361 Uani
C9 C 0.8746(5) 0.1788(7) 0.1603(5) 0.0834 Uani
H5 H 0.8950 0.2403 0.1578 0.1000 Uiso
C10 C 0.8158(4) 0.0671(6) 0.1884(3) 0.0476 Uani
H6 H 0.7859 0.0300 0.2080 0.0570 Uiso
C11 C 0.8389(4) -0.0614(5) 0.1127(3) 0.0447 Uani
H7 H 0.8253 -0.1118 0.1395 0.0540 Uiso
H8 H 0.8043 -0.0539 0.0824 0.0540 Uiso
C12 C 0.9002(3) -0.0971(5) 0.0856(3) 0.0343 Uani
C13 C 0.9465(4) -0.1494(5) 0.1198(3) 0.0366 Uani
C14 C 0.9400(4) -0.1600(7) 0.1836(3) 0.0614 Uani
H9 H 0.9101 -0.2130 0.1905 0.0920 Uiso
H10 H 0.9819 -0.1748 0.2026 0.0920 Uiso
H11 H 0.9237 -0.0989 0.1988 0.0920 Uiso
C15 C 0.9994(3) -0.1929(5) 0.0934(3) 0.0377 Uani
C16 C 1.0083(3) -0.1771(5) 0.0348(3) 0.0342 Uani
C17 C 0.9629(3) -0.1195(4) 0.0012(3) 0.0302 Uani
C18 C 0.9076(3) -0.0821(5) 0.0270(3) 0.0330 Uani
C19 C 0.8554(4) -0.0267(5) -0.0099(3) 0.0481 Uani
H12 H 0.8204 -0.0715 -0.0215 0.0720 Uiso
H13 H 0.8386 0.0270 0.0122 0.0720 Uiso
H14 H 0.8740 -0.0005 -0.0439 0.0720 Uiso
C20 C 1.0660(4) -0.2245(6) 0.0080(3) 0.0527 Uani
H15 H 1.0559 -0.2924 -0.0018 0.0790 Uiso
H16 H 1.0755 -0.1887 -0.0265 0.0790 Uiso
H17 H 1.1034 -0.2224 0.0353 0.0790 Uiso
C21 C 1.0439(4) -0.2648(5) 0.1280(3) 0.0466 Uani
H18 H 1.0580 -0.3159 0.1018 0.0560 Uiso
H19 H 1.0188 -0.2972 0.1568 0.0560 Uiso
C22 C 1.1782(4) -0.1185(6) 0.1799(3) 0.0526 Uani
H20 H 1.2043 -0.0618 0.1815 0.0630 Uiso
C23 C 1.1433(3) -0.2602(5) 0.1958(3) 0.0387 Uani
H21 H 1.1382 -0.3239 0.2106 0.0470 Uiso
C24 C 0.9741(3) -0.0969(5) -0.0609(3) 0.0364 Uani
H22 H 1.0208 -0.0965 -0.0656 0.0440 Uiso
H23 H 0.9575 -0.0308 -0.0701 0.0440 Uiso
C25 C 0.8924(4) -0.1557(6) -0.1405(3) 0.0486 Uani
H24 H 0.8689 -0.0969 -0.1456 0.0580 Uiso
C26 C 0.9248(5) -0.3001(7) -0.1477(4) 0.0739 Uani
H25 H 0.9276 -0.3657 -0.1602 0.0890 Uiso
N1 N 0.8318(3) 0.1589(4) 0.2012(3) 0.0441 Uani
N2 N 0.8853(4) 0.1061(6) 0.1248(4) 0.0836 Uani
N3 N 0.8472(3) 0.0332(4) 0.1440(3) 0.0431 Uani
N4 N 1.1927(3) -0.2012(4) 0.2111(2) 0.0398 Uani
N5 N 1.1232(4) -0.1257(5) 0.1469(3) 0.0630 Uani
N6 N 1.1027(3) -0.2193(4) 0.1579(2) 0.0373 Uani
N7 N 0.9431(3) -0.1674(4) -0.1020(2) 0.0362 Uani
N8 N 0.9656(4) -0.2621(5) -0.1060(4) 0.0778 Uani
N9 N 0.8798(3) -0.2367(4) -0.1700(3) 0.0461 Uani
O1 O 0.8296(3) 0.3835(4) 0.2096(3) 0.0797 Uani
O2 O 0.8853(3) 0.5017(5) 0.2608(3) 0.0766 Uani
O3 O 0.7641(3) 0.5988(4) 0.2051(2) 0.0609 Uani
O4 O 0.7770(3) 0.7329(4) 0.1537(2) 0.0511 Uani
O5 O 0.8031(5) 0.4351(8) 0.3313(8) 0.2594 Uani
Cd1B Cd 1.28897(3) -0.23572(4) 0.26783(2) 0.0372 Uani
Cd1E Cd 0.78897(3) -0.26428(4) -0.23217(2) 0.0372 Uani
Cd1C Cd 0.71103(3) 0.76428(4) 0.23217(2) 0.0372 Uani
C8C C 0.7087(3) 0.1440(5) 0.3334(3) 0.0361 Uani
N4B N 0.6927(3) 0.2988(4) 0.2111(2) 0.0398 Uani
N9E N 0.8798(3) 0.2367(4) 0.3300(3) 0.0461 Uani
O3C O 0.7359(3) 0.0988(4) 0.2949(2) 0.0609 Uani
O4C O 0.7230(3) 0.2329(4) 0.3463(2) 0.0511 Uani
O6 O 1.0000 -0.6194(6) 0.7500 0.0643 Uani
H26 H 1.033(3) -0.578(6) 0.750(5) 0.0960 Uiso
H26A H 0.967(3) -0.578(6) 0.750(5) 0.0960 Uiso
O7 O 0.7142(5) -0.7890(8) 0.5470(4) 0.1236 Uani
H27 H 0.713(9) -0.758(10) 0.580(3) 0.1850 Uiso
loop_
_atom_site_aniso_label
_atom_site_aniso_U_11
_atom_site_aniso_U_22
_atom_site_aniso_U_33
_atom_site_aniso_U_23
_atom_site_aniso_U_13
_atom_site_aniso_U_12
Cd1 0.0313 0.0469 0.033 0.0056 -0.0007 0.0062
C1 0.046 0.042 0.109 0.013 -0.012 0.004
C2 0.054 0.034 0.089 -0.004 0.011 0.003
C3 0.057 0.053 0.15 -0.01 0.031 0.004
C4 0.085 0.083 0.134 -0.034 0.046 0.002
C5 0.097 0.105 0.086 -0.028 0.047 -0.012
C6 0.079 0.073 0.056 -0.012 0.019 -0.004
C7 0.046 0.042 0.051 -0.004 0.004 -0.01
C8 0.038 0.034 0.036 -0.006 -0.001 0.003
C9 0.103 0.048 0.106 -0.025 0.06 -0.024
C10 0.052 0.049 0.044 -0.003 0.021 -0.002
C11 0.044 0.042 0.049 -0.007 0.01 -0.006
C12 0.032 0.034 0.037 -0.005 0.003 -0.004
C13 0.041 0.037 0.032 -0.002 0.004 -0.01
C14 0.062 0.087 0.035 0.008 0.002 0.002
C15 0.034 0.036 0.041 0.001 -0.013 -0.004
C16 0.028 0.037 0.037 -0.005 -0.003 -0.005
C17 0.029 0.029 0.032 -0.004 -0.003 -0.01
C18 0.025 0.034 0.039 -0.005 -0.006 0.001
C19 0.049 0.053 0.041 0.003 -0.006 0.013
C20 0.039 0.067 0.052 -0.005 0.002 0.014
C21 0.039 0.047 0.052 0.004 -0.012 -0.004
C22 0.048 0.047 0.06 0.009 -0.019 -0.01
C23 0.037 0.043 0.036 0.007 0.001 0.003
C24 0.034 0.037 0.038 -0.006 0 -0.003
C25 0.056 0.043 0.045 -0.007 -0.011 0.009
C26 0.071 0.055 0.091 -0.033 -0.032 0.012
N1 0.052 0.038 0.044 -0.004 0.017 -0.001
N2 0.101 0.063 0.094 -0.021 0.061 -0.025
N3 0.046 0.039 0.046 -0.002 0.017 -0.006
N4 0.028 0.048 0.042 0.004 -0.008 0.003
N5 0.06 0.049 0.076 0.018 -0.027 -0.011
N6 0.032 0.041 0.038 0.006 -0.005 0.001
N7 0.036 0.037 0.035 -0.007 -0.003 0.003
N8 0.072 0.056 0.099 -0.028 -0.044 0.02
N9 0.042 0.05 0.044 -0.008 -0.014 0.004
O1 0.082 0.046 0.109 0.021 -0.01 -0.014
O2 0.072 0.074 0.082 0.008 -0.009 -0.012
O3 0.065 0.052 0.069 0.018 0.029 0.009
O4 0.059 0.044 0.051 0.007 0.01 0.009
O5 0.119 0.138 0.54 0.176 0.167 0.068
Cd1B 0.0313 0.0469 0.033 0.0056 -0.0007 0.0062
Cd1E 0.0313 0.0469 0.033 -0.0056 -0.0007 -0.0062
Cd1C 0.0313 0.0469 0.033 -0.0056 -0.0007 -0.0062
C8C 0.038 0.034 0.036 0.006 -0.001 -0.003
N4B 0.028 0.048 0.042 0.004 -0.008 0.003
N9E 0.042(4) 0.050(4) 0.044(4) 0.008(3) -0.014(3) -0.004(3)
O3C 0.065 0.052 0.069 -0.018 0.029 -0.009
O4C 0.059 0.044 0.051 -0.007 0.01 -0.009
O6 0.062(6) 0.055(5) 0.075(6) 0.000 -0.002(5) 0.000
O7 0.118(7) 0.151(8) 0.097(6) -0.029(6) -0.030(5) 0.010(6)
loop_
_geom_bond_atom_site_label_1
_geom_bond_atom_site_label_2
_geom_bond_site_symmetry_1
_geom_bond_site_symmetry_2
Cd1 N1 1_555 1_555
C1 C2 1_555 1_555
C2 C3 1_555 1_555
C3 H1 1_555 1_555
C4 C3 1_555 1_555
H2 C4 1_555 1_555
C5 C4 1_555 1_555
H3 C5 1_555 1_555
C6 C5 1_555 1_555
H4 C6 1_555 1_555
C7 C2 1_555 1_555
C8 C7 1_555 1_555
C9 H5 1_555 1_555
C10 H6 1_555 1_555
C11 H7 1_555 1_555
H8 C11 1_555 1_555
C12 C11 1_555 1_555
C13 C12 1_555 1_555
C14 C13 1_555 1_555
H9 C14 1_555 1_555
H10 C14 1_555 1_555
H11 C14 1_555 1_555
C15 C13 1_555 1_555
C16 C15 1_555 1_555
C17 C16 1_555 1_555
C18 C12 1_555 1_555
C19 C18 1_555 1_555
H12 C19 1_555 1_555
H13 C19 1_555 1_555
H14 C19 1_555 1_555
C20 C16 1_555 1_555
H15 C20 1_555 1_555
H16 C20 1_555 1_555
H17 C20 1_555 1_555
C21 C15 1_555 1_555
H18 C21 1_555 1_555
H19 C21 1_555 1_555
C22 H20 1_555 1_555
C23 H21 1_555 1_555
C24 C17 1_555 1_555
H22 C24 1_555 1_555
H23 C24 1_555 1_555
C25 H24 1_555 1_555
C26 H25 1_555 1_555
N1 C9 1_555 1_555
N2 C9 1_555 1_555
N3 C10 1_555 1_555
N4 C22 1_555 1_555
N5 C22 1_555 1_555
N6 C21 1_555 1_555
N7 C24 1_555 1_555
N8 C26 1_555 1_555
N9 C25 1_555 1_555
O1 Cd1 1_555 1_555
O2 C1 1_555 1_555
O3 C8 1_555 1_555
O4 C8 1_555 1_555
O5 Cd1 1_555 1_555
O6 H26 1_555 1_555
O7 H27 1_555 1_555
Cd1B N4 1_555 1_555
Cd1E N9 1_555 1_555
Cd1C O3 1_555 1_555
C8C O3C 1_555 1_555
N4B Cd1 1_555 1_555
N9E Cd1 1_555 1_555
O3C Cd1 1_555 1_555
O4C Cd1 1_555 1_555
H26A O6 1_555 1_555
C1 O1 1_555 1_555
C6 C7 1_555 1_555
C10 N1 1_555 1_555
C11 N3 1_555 1_555
C17 C18 1_555 1_555
C23 N4 1_555 1_555
C23 N6 1_555 1_555
C25 N7 1_555 1_555
C26 N9 1_555 1_555
N2 N3 1_555 1_555
N5 N6 1_555 1_555
N7 N8 1_555 1_555
O4 Cd1C 1_555 1_555
C8C O4C 1_555 1_555

#END
