
#######################################################################
#
#                 Cambridge Crystallographic Data Centre
#                                CCDC 
#
#######################################################################
#
# If this CIF has been generated from an entry in the Cambridge 
# Structural Database, then it will include bibliographic, chemical, 
# crystal, experimental, refinement or atomic coordinate data resulting 
# from the CCDC's data processing and validation procedures.
#
#######################################################################

data_IMIDZB06
_chemical_formula_moiety         '(C12 H12 N8 Zn2)n'
_symmetry_cell_setting           tetragonal
_symmetry_space_group_name_H-M   'I 41 c d'
_symmetry_Int_Tables_number      110
_space_group_name_Hall           'I 4bw -2c'
loop_
_symmetry_equiv_pos_site_id
_symmetry_equiv_pos_as_xyz
1 x,y,z
2 1/2-x,1/2-y,1/2+z
3 -y,1/2+x,1/4+z
4 1/2+y,-x,3/4+z
5 x,-y,1/2+z
6 1/2-x,1/2+y,z
7 -y,1/2-x,3/4+z
8 1/2+y,x,1/4+z
9 1/2+x,1/2+y,1/2+z
10 -x,-y,z
11 1/2-y,x,3/4+z
12 y,1/2-x,1/4+z
13 1/2+x,1/2-y,z
14 -x,y,1/2+z
15 1/2-y,-x,1/4+z
16 y,1/2+x,3/4+z
_cell_length_a                   23.0474(6)
_cell_length_b                   23.0474(6)
_cell_length_c                   12.4020(7)
_cell_angle_alpha                90
_cell_angle_beta                 90
_cell_angle_gamma                90
_cell_volume                     6587.73
loop_
_atom_site_label
_atom_site_type_symbol
_atom_site_fract_x
_atom_site_fract_y
_atom_site_fract_z
_atom_site_U_iso_or_equiv
_atom_site_thermal_displace_type
Zn1 Zn 1.6463(2) 1.4011(2) -0.0014(7) 0.0570 Uiso
Zn2 Zn 1.8476(3) 1.3937(2) 0.2931(7) 0.0630 Uiso
C1 C 1.6257(10) 1.5274(14) 0.0159(19) 0.0630 Uiso
H1 H 1.6011 1.5215 0.0743 0.0750 Uiso
C2 C 1.6827(11) 1.5123(13) -0.113(2) 0.0630 Uiso
H2 H 1.7074 1.4951 -0.1631 0.0750 Uiso
C3 C 1.6708(12) 1.5694(13) -0.109(2) 0.0630 Uiso
H3 H 1.6844 1.5972 -0.1573 0.0750 Uiso
C4 C 1.5244(15) 1.3764(13) 0.0159(18) 0.1010 Uiso
H4 H 1.5204 1.3839 -0.0574 0.1210 Uiso
C5 C 1.5624(14) 1.3669(13) 0.169(2) 0.1010 Uiso
H5 H 1.5883 1.3667 0.2264 0.1210 Uiso
C6 C 1.5065(14) 1.3502(14) 0.174(2) 0.1010 Uiso
H6 H 1.4886 1.3359 0.2362 0.1210 Uiso
C7 C 1.6462(11) 1.3791(8) -0.236(3) 0.0700 Uiso
H7 H 1.6452 1.4188 -0.2492 0.0840 Uiso
C8 C 1.6531(13) 1.2996(12) -0.1547(18) 0.0700 Uiso
H8 H 1.6573 1.2712 -0.1019 0.0840 Uiso
C9 C 1.6454(10) 1.2892(13) -0.261(2) 0.0700 Uiso
H9 H 1.6438 1.2525 -0.2917 0.0840 Uiso
C10 C 1.7515(15) 1.3987(8) 0.139(3) 0.0580 Uiso
H10 H 1.7632 1.4346 0.1125 0.0690 Uiso
C11 C 1.7039(10) 1.3219(10) 0.161(2) 0.0580 Uiso
H11 H 1.6765 1.2926 0.1549 0.0690 Uiso
C12 C 1.7500(12) 1.3211(9) 0.2277(18) 0.0580 Uiso
H12 H 1.7593 1.2916 0.2759 0.0690 Uiso
N1 N 1.6532(11) 1.4829(11) -0.033(3) 0.0630 Uiso
N2 N 1.6357(11) 1.5801(13) -0.023(2) 0.0630 Uiso
N3 N 1.5753(12) 1.3842(11) 0.067(3) 0.0610 Uiso
N4 N 1.4795(12) 1.3571(11) 0.076(3) 0.0610 Uiso
N5 N 1.6538(11) 1.3584(14) -0.136(2) 0.0630 Uiso
N6 N 1.6401(14) 1.3398(13) -0.315(2) 0.0630 Uiso
N7 N 1.7038(12) 1.3719(13) 0.105(2) 0.0570 Uiso
N8 N 1.7806(11) 1.3705(12) 0.213(2) 0.0570 Uiso
Zn2B Zn 1.6063(2) 1.3476(3) -0.4569(7) 0.0630 Uiso
Zn2F Zn 1.6063(2) 1.6524(3) 0.0431(7) 0.0630 Uiso
Zn2O Zn 1.3937(2) 1.3476(3) 0.0431(7) 0.0630 Uiso
N2N N 1.9199(13) 1.3643(11) 0.227(2) 0.0630 Uiso
N4G N 1.8571(11) 1.4795(12) 0.326(3) 0.0610 Uiso
N6C N 1.8398(13) 1.3599(14) 0.435(2) 0.0630 Uiso
loop_
_geom_bond_atom_site_label_1
_geom_bond_atom_site_label_2
_geom_bond_site_symmetry_1
_geom_bond_site_symmetry_2
Zn1 N1 1_555 1_555
Zn2 N8 1_555 1_555
C1 H1 1_555 1_555
C2 H2 1_555 1_555
C3 C2 1_555 1_555
H3 C3 1_555 1_555
C4 H4 1_555 1_555
C5 H5 1_555 1_555
C6 C5 1_555 1_555
H6 C6 1_555 1_555
C7 H7 1_555 1_555
C8 H8 1_555 1_555
C9 C8 1_555 1_555
H9 C9 1_555 1_555
C10 H10 1_555 1_555
C11 H11 1_555 1_555
C12 C11 1_555 1_555
H12 C12 1_555 1_555
N1 C1 1_555 1_555
N2 C1 1_555 1_555
N3 Zn1 1_555 1_555
N4 C4 1_555 1_555
N5 Zn1 1_555 1_555
N6 C7 1_555 1_555
N7 Zn1 1_555 1_555
N8 C10 1_555 1_555
Zn2B N6 1_555 1_555
Zn2F N2 1_555 1_555
Zn2O N4 1_555 1_555
N2N Zn2 1_555 1_555
N4G Zn2 1_555 1_555
N6C Zn2 1_555 1_555
C2 N1 1_555 1_555
C3 N2 1_555 1_555
C4 N3 1_555 1_555
C5 N3 1_555 1_555
C6 N4 1_555 1_555
C7 N5 1_555 1_555
C8 N5 1_555 1_555
C9 N6 1_555 1_555
C10 N7 1_555 1_555
C11 N7 1_555 1_555
C12 N8 1_555 1_555

#END
