
#######################################################################
#
#                 Cambridge Crystallographic Data Centre
#                                CCDC 
#
#######################################################################
#
# If this CIF has been generated from an entry in the Cambridge 
# Structural Database, then it will include bibliographic, chemical, 
# crystal, experimental, refinement or atomic coordinate data resulting 
# from the CCDC's data processing and validation procedures.
#
#######################################################################

data_PUYTAG
_chemical_formula_moiety         '(C49 H64 N8 O8 Zn2)n'
_symmetry_cell_setting           tetragonal
_symmetry_space_group_name_H-M   'P 4/n'
_symmetry_Int_Tables_number      85
_space_group_name_Hall           '-P 4a'
loop_
_symmetry_equiv_pos_site_id
_symmetry_equiv_pos_as_xyz
1 x,y,z
2 1/2-x,1/2-y,z
3 1/2-y,x,z
4 y,1/2-x,z
5 -x,-y,-z
6 1/2+x,1/2+y,-z
7 1/2+y,-x,-z
8 -y,1/2+x,-z
_cell_length_a                   17.1627(10)
_cell_length_b                   17.1627(10)
_cell_length_c                   12.407(2)
_cell_angle_alpha                90
_cell_angle_beta                 90
_cell_angle_gamma                90
_cell_volume                     3654.58
loop_
_atom_site_label
_atom_site_type_symbol
_atom_site_fract_x
_atom_site_fract_y
_atom_site_fract_z
_atom_site_U_iso_or_equiv
_atom_site_thermal_displace_type
Zn1 Zn 0.0000 0.5000 0.5000 0.0462 Uani
O1 O -0.05053(18) 0.42321(18) 0.3770(3) 0.0610 Uani
C1 C -0.2500 0.2500 0.0000 0.0357 Uani
N1 N -0.1141(2) 0.5300(2) 0.5410(3) 0.0593 Uani
H1 H -0.1106 0.5629 0.6074 0.0710 Uiso
C2 C -0.1871(2) 0.2858(2) 0.0755(3) 0.0357 Uani
O2 O 0.0475(2) 0.3811(3) 0.2797(3) 0.0957 Uani
C3 C -0.0799(2) 0.3521(2) 0.2200(3) 0.0433 Uani
C4 C -0.1578(2) 0.3671(2) 0.2296(3) 0.0480 Uani
H2 H -0.1758 0.4004 0.2856 0.0580 Uiso
C5 C -0.2105(2) 0.3345(2) 0.1590(3) 0.0470 Uani
H3 H -0.2644 0.3455 0.1675 0.0560 Uiso
N2 N -0.0071(2) 0.5928(2) 0.3871(3) 0.0643 Uani
H4 H -0.0188 0.5695 0.3149 0.0770 Uiso
C6 C -0.0205(3) 0.3894(3) 0.3009(4) 0.0550 Uani
C7 C -0.1086(3) 0.2699(2) 0.0663(3) 0.0510 Uani
H5 H -0.0907 0.2359 0.0112 0.0610 Uiso
C8 C -0.0552(2) 0.3036(3) 0.1378(4) 0.0553 Uani
H6 H -0.0012 0.2931 0.1297 0.0660 Uiso
C9 C -0.1414(3) 0.5811(3) 0.4545(5) 0.0737 Uani
H7 H -0.1874 0.6109 0.4792 0.0880 Uiso
H8 H -0.1570 0.5494 0.3914 0.0880 Uiso
C10 C -0.1660(3) 0.4634(3) 0.5680(4) 0.0683 Uani
H9 H -0.1750 0.4321 0.5021 0.0820 Uiso
H10 H -0.2169 0.4838 0.5924 0.0820 Uiso
C11 C -0.1330(3) 0.4118(4) 0.6538(5) 0.0797 Uani
H11 H -0.1751 0.3768 0.6792 0.0960 Uiso
H12 H -0.1178 0.4450 0.7155 0.0960 Uiso
C12 C -0.0776(3) 0.6366(3) 0.4225(5) 0.0777 Uani
H13 H -0.0961 0.6704 0.3630 0.0930 Uiso
H14 H -0.0642 0.6704 0.4845 0.0930 Uiso
C13 C 0.0633(3) 0.6384(3) 0.3765(5) 0.0817 Uani
H15 H 0.0741 0.6651 0.4456 0.0980 Uiso
H16 H 0.0555 0.6788 0.3206 0.0980 Uiso
O1A O -0.44947(18) 0.07679(18) 0.3770(3) 0.0610 Uani
C2A C -0.3129(2) 0.2142(2) 0.0755(3) 0.0357 Uani
O2A O -0.5475(2) 0.1189(3) 0.2797(3) 0.0957 Uani
C3A C -0.4201(2) 0.1479(2) 0.2200(3) 0.0433 Uani
C4A C -0.3422(2) 0.1329(2) 0.2296(3) 0.0480 Uani
H2A H -0.3242 0.0996 0.2856 0.0580 Uiso
C5A C -0.2895(2) 0.1655(2) 0.1590(3) 0.0470 Uani
H3A H -0.2356 0.1545 0.1675 0.0560 Uiso
C6A C -0.4795(3) 0.1106(3) 0.3009(4) 0.0550 Uani
C7A C -0.3914(3) 0.2301(2) 0.0663(3) 0.0510 Uani
H5A H -0.4093 0.2641 0.0112 0.0610 Uiso
C8A C -0.4448(2) 0.1964(3) 0.1378(4) 0.0553 Uani
H6A H -0.4988 0.2069 0.1297 0.0660 Uiso
O1F O -0.07679(18) 0.05053(18) -0.3770(3) 0.0610 Uani
C2F C -0.2142(2) 0.1871(2) -0.0755(3) 0.0357 Uani
O2F O -0.1189(3) -0.0475(2) -0.2797(3) 0.0957 Uani
C3F C -0.1479(2) 0.0799(2) -0.2200(3) 0.0433 Uani
C4F C -0.1329(2) 0.1578(2) -0.2296(3) 0.0480 Uani
H2F H -0.0996 0.1758 -0.2856 0.0580 Uiso
C5F C -0.1655(2) 0.2105(2) -0.1590(3) 0.0470 Uani
H3F H -0.1545 0.2644 -0.1675 0.0560 Uiso
C6F C -0.1106(3) 0.0205(3) -0.3009(4) 0.0550 Uani
C7F C -0.2301(2) 0.1086(3) -0.0663(3) 0.0510 Uani
H5F H -0.2641 0.0907 -0.0112 0.0610 Uiso
C8F C -0.1964(3) 0.0552(2) -0.1378(4) 0.0553 Uani
H6F H -0.2069 0.0012 -0.1297 0.0660 Uiso
O1G O -0.42321(18) 0.44947(18) -0.3770(3) 0.0610 Uani
C2G C -0.2858(2) 0.3129(2) -0.0755(3) 0.0357 Uani
O2G O -0.3811(3) 0.5475(2) -0.2797(3) 0.0957 Uani
C3G C -0.3521(2) 0.4201(2) -0.2200(3) 0.0433 Uani
C4G C -0.3671(2) 0.3422(2) -0.2296(3) 0.0480 Uani
H2G H -0.4004 0.3242 -0.2856 0.0580 Uiso
C5G C -0.3345(2) 0.2895(2) -0.1590(3) 0.0470 Uani
H3G H -0.3455 0.2356 -0.1675 0.0560 Uiso
C6G C -0.3894(3) 0.4795(3) -0.3009(4) 0.0550 Uani
C7G C -0.2699(2) 0.3914(3) -0.0663(3) 0.0510 Uani
H5G H -0.2359 0.4093 -0.0112 0.0610 Uiso
C8G C -0.3036(3) 0.4448(2) -0.1378(4) 0.0553 Uani
H6G H -0.2931 0.4988 -0.1297 0.0660 Uiso
N1D N 0.1141(2) 0.4700(2) 0.4590(3) 0.0593 Uani
H1D H 0.1106 0.4371 0.3926 0.0710 Uiso
N2D N 0.0071(2) 0.4072(2) 0.6129(3) 0.0643 Uani
H4D H 0.0188 0.4305 0.6851 0.0770 Uiso
C9D C 0.1414(3) 0.4189(3) 0.5455(5) 0.0737 Uani
H7D H 0.1874 0.3891 0.5208 0.0880 Uiso
H8D H 0.1570 0.4506 0.6086 0.0880 Uiso
C10D C 0.1660(3) 0.5366(3) 0.4320(4) 0.0683 Uani
H9D H 0.1750 0.5679 0.4979 0.0820 Uiso
H10D H 0.2169 0.5162 0.4076 0.0820 Uiso
C11D C 0.1330(3) 0.5882(4) 0.3462(5) 0.0797 Uani
H11D H 0.1751 0.6232 0.3208 0.0960 Uiso
H12D H 0.1178 0.5550 0.2845 0.0960 Uiso
C12D C 0.0776(3) 0.3634(3) 0.5775(5) 0.0777 Uani
H13D H 0.0961 0.3296 0.6370 0.0930 Uiso
H14D H 0.0642 0.3296 0.5155 0.0930 Uiso
C13D C -0.0633(3) 0.3616(3) 0.6235(5) 0.0817 Uani
H15D H -0.0741 0.3349 0.5544 0.0980 Uiso
H16D H -0.0555 0.3212 0.6794 0.0980 Uiso
Zn1A Zn -0.5000 0.0000 0.5000 0.0462 Uani
N1A N -0.3859(2) -0.0300(2) 0.5410(3) 0.0593 Uani
H1A H -0.3894 -0.0629 0.6074 0.0710 Uiso
N2A N -0.4929(2) -0.0928(2) 0.3871(3) 0.0643 Uani
H4A H -0.4812 -0.0695 0.3149 0.0770 Uiso
C9A C -0.3586(3) -0.0811(3) 0.4545(5) 0.0737 Uani
H7A H -0.3126 -0.1109 0.4792 0.0880 Uiso
H8A H -0.3430 -0.0494 0.3914 0.0880 Uiso
C10A C -0.3340(3) 0.0366(3) 0.5680(4) 0.0683 Uani
H9A H -0.3250 0.0679 0.5021 0.0820 Uiso
H10A H -0.2831 0.0162 0.5924 0.0820 Uiso
C11A C -0.3670(3) 0.0882(4) 0.6538(5) 0.0797 Uani
H11A H -0.3249 0.1232 0.6792 0.0960 Uiso
H12A H -0.3822 0.0550 0.7155 0.0960 Uiso
C12A C -0.4224(3) -0.1366(3) 0.4225(5) 0.0777 Uani
H13A H -0.4039 -0.1704 0.3630 0.0930 Uiso
H14A H -0.4358 -0.1704 0.4845 0.0930 Uiso
C13A C -0.5633(3) -0.1384(3) 0.3765(5) 0.0817 Uani
H15A H -0.5741 -0.1651 0.4456 0.0980 Uiso
H16A H -0.5555 -0.1788 0.3206 0.0980 Uiso
N1E N -0.6141(2) 0.0300(2) 0.4590(3) 0.0593 Uani
H1E H -0.6106 0.0629 0.3926 0.0710 Uiso
N2E N -0.5071(2) 0.0928(2) 0.6129(3) 0.0643 Uani
H4E H -0.5188 0.0695 0.6851 0.0770 Uiso
C9E C -0.6414(3) 0.0811(3) 0.5455(5) 0.0737 Uani
H7E H -0.6874 0.1109 0.5208 0.0880 Uiso
H8E H -0.6570 0.0494 0.6086 0.0880 Uiso
C10E C -0.6660(3) -0.0366(3) 0.4320(4) 0.0683 Uani
H9E H -0.6750 -0.0679 0.4979 0.0820 Uiso
H10E H -0.7169 -0.0162 0.4076 0.0820 Uiso
C11E C -0.6330(3) -0.0882(4) 0.3462(5) 0.0797 Uani
H11E H -0.6751 -0.1232 0.3208 0.0960 Uiso
H12E H -0.6178 -0.0550 0.2845 0.0960 Uiso
C12E C -0.5776(3) 0.1366(3) 0.5775(5) 0.0777 Uani
H13E H -0.5961 0.1704 0.6370 0.0930 Uiso
H14E H -0.5642 0.1704 0.5155 0.0930 Uiso
C13E C -0.4367(3) 0.1384(3) 0.6235(5) 0.0817 Uani
H15E H -0.4259 0.1651 0.5544 0.0980 Uiso
H16E H -0.4445 0.1788 0.6794 0.0980 Uiso
Zn1B Zn -0.0000 0.0000 -0.5000 0.0462 Uani
Zn1C Zn -0.5000 0.5000 -0.5000 0.0462 Uani
O1D O 0.05053(18) 0.57679(18) 0.6230(3) 0.0610 Uani
O1E O -0.55053(18) -0.07679(18) 0.6230(3) 0.0610 Uani
loop_
_atom_site_aniso_label
_atom_site_aniso_U_11
_atom_site_aniso_U_22
_atom_site_aniso_U_33
_atom_site_aniso_U_23
_atom_site_aniso_U_13
_atom_site_aniso_U_12
Zn1 0.0426(4) 0.0470(5) 0.0490(5) -0.0090(3) -0.0034(3) 0.0030(3)
O1 0.059(2) 0.069(2) 0.055(2) -0.0296(17) -0.0078(16) -0.0035(17)
C1 0.038(3) 0.038(3) 0.031(4) 0.000 0.000 0.000
N1 0.051(2) 0.058(2) 0.069(3) -0.028(2) 0.003(2) 0.0003(19)
C2 0.038(2) 0.041(2) 0.028(2) -0.0025(19) -0.0010(18) 0.0042(17)
O2 0.056(2) 0.136(3) 0.095(3) -0.063(3) -0.015(2) 0.001(2)
C3 0.049(3) 0.041(2) 0.040(3) -0.010(2) -0.007(2) 0.0023(19)
C4 0.054(3) 0.054(3) 0.036(3) -0.007(2) -0.003(2) 0.005(2)
C5 0.038(2) 0.061(3) 0.042(3) -0.012(2) -0.002(2) 0.009(2)
N2 0.068(3) 0.057(2) 0.068(3) -0.001(2) -0.010(2) -0.006(2)
C6 0.051(3) 0.054(3) 0.060(3) -0.006(3) 0.001(3) 0.011(2)
C7 0.057(3) 0.055(3) 0.041(3) -0.014(2) 0.001(2) 0.005(2)
C8 0.043(3) 0.064(3) 0.059(3) -0.023(2) -0.001(2) 0.003(2)
C9 0.053(3) 0.060(3) 0.108(5) -0.009(3) -0.016(3) 0.009(3)
C10 0.051(3) 0.083(4) 0.071(4) -0.017(3) 0.002(3) -0.011(3)
C11 0.073(4) 0.093(4) 0.073(4) -0.002(3) 0.005(3) -0.014(3)
C12 0.065(3) 0.060(3) 0.108(5) 0.005(3) -0.019(3) 0.004(3)
C13 0.081(4) 0.079(4) 0.085(4) 0.007(3) 0.001(3) -0.021(3)
O1A 0.059 0.069 0.055 0.0296 0.0078 -0.0035
C2A 0.038 0.041 0.028 0.0025 0.001 0.0042
O2A 0.056 0.136 0.095 0.063 0.015 0.001
C3A 0.049 0.041 0.04 0.01 0.007 0.0023
C4A 0.054 0.054 0.036 0.007 0.003 0.005
C5A 0.038 0.061 0.042 0.012 0.002 0.009
C6A 0.051 0.054 0.06 0.006 -0.001 0.011
C7A 0.057 0.055 0.041 0.014 -0.001 0.005
C8A 0.043 0.064 0.059 0.023 0.001 0.003
O1F 0.069 0.059 0.055 -0.0078 0.0296 0.0035
C2F 0.041 0.038 0.028 -0.001 0.0025 -0.0042
O2F 0.136 0.056 0.095 -0.015 0.063 -0.001
C3F 0.041 0.049 0.04 -0.007 0.01 -0.0023
C4F 0.054 0.054 0.036 -0.003 0.007 -0.005
C5F 0.061 0.038 0.042 -0.002 0.012 -0.009
C6F 0.054 0.051 0.06 0.001 0.006 -0.011
C7F 0.055 0.057 0.041 0.001 0.014 -0.005
C8F 0.064 0.043 0.059 -0.001 0.023 -0.003
O1G 0.069 0.059 0.055 0.0078 -0.0296 0.0035
C2G 0.041 0.038 0.028 0.001 -0.0025 -0.0042
O2G 0.136 0.056 0.095 0.015 -0.063 -0.001
C3G 0.041 0.049 0.04 0.007 -0.01 -0.0023
C4G 0.054 0.054 0.036 0.003 -0.007 -0.005
C5G 0.061 0.038 0.042 0.002 -0.012 -0.009
C6G 0.054 0.051 0.06 -0.001 -0.006 -0.011
C7G 0.055 0.057 0.041 -0.001 -0.014 -0.005
C8G 0.064 0.043 0.059 0.001 -0.023 -0.003
N1D 0.051 0.058 0.069 -0.028 0.003 0.0003
N2D 0.068 0.057 0.068 -0.001 -0.01 -0.006
C9D 0.053 0.06 0.108 -0.009 -0.016 0.009
C10D 0.051 0.083 0.071 -0.017 0.002 -0.011
C11D 0.073 0.093 0.073 -0.002 0.005 -0.014
C12D 0.065 0.06 0.108 0.005 -0.019 0.004
C13D 0.081 0.079 0.085 0.007 0.001 -0.021
Zn1A 0.0426 0.047 0.049 0.009 0.0034 0.003
N1A 0.051 0.058 0.069 0.028 -0.003 0.0003
N2A 0.068 0.057 0.068 0.001 0.01 -0.006
C9A 0.053 0.06 0.108 0.009 0.016 0.009
C10A 0.051 0.083 0.071 0.017 -0.002 -0.011
C11A 0.073 0.093 0.073 0.002 -0.005 -0.014
C12A 0.065 0.06 0.108 -0.005 0.019 0.004
C13A 0.081 0.079 0.085 -0.007 -0.001 -0.021
N1E 0.051 0.058 0.069 0.028 -0.003 0.0003
N2E 0.068 0.057 0.068 0.001 0.01 -0.006
C9E 0.053 0.06 0.108 0.009 0.016 0.009
C10E 0.051 0.083 0.071 0.017 -0.002 -0.011
C11E 0.073 0.093 0.073 0.002 -0.005 -0.014
C12E 0.065 0.06 0.108 -0.005 0.019 0.004
C13E 0.081 0.079 0.085 -0.007 -0.001 -0.021
Zn1B 0.047 0.0426 0.049 -0.0034 0.009 -0.003
Zn1C 0.047 0.0426 0.049 0.0034 -0.009 -0.003
O1D 0.059 0.069 0.055 -0.0296 -0.0078 -0.0035
O1E 0.059 0.069 0.055 0.0296 0.0078 -0.0035
loop_
_geom_bond_atom_site_label_1
_geom_bond_atom_site_label_2
_geom_bond_site_symmetry_1
_geom_bond_site_symmetry_2
Zn1 O1 1_555 1_555
O1 C6 1_555 1_555
C1 C2 1_555 1_555
N1 Zn1 1_555 1_555
H1 N1 1_555 1_555
C2 C5 1_555 1_555
O2 C6 1_555 1_555
C3 C4 1_555 1_555
C4 H2 1_555 1_555
C5 C4 1_555 1_555
H3 C5 1_555 1_555
N2 Zn1 1_555 1_555
H4 N2 1_555 1_555
C6 C3 1_555 1_555
C7 C2 1_555 1_555
H5 C7 1_555 1_555
C8 C3 1_555 1_555
H6 C8 1_555 1_555
C9 N1 1_555 1_555
H7 C9 1_555 1_555
H8 C9 1_555 1_555
C10 N1 1_555 1_555
H9 C10 1_555 1_555
H10 C10 1_555 1_555
C11 C10 1_555 1_555
H11 C11 1_555 1_555
H12 C11 1_555 1_555
C12 N2 1_555 1_555
H13 C12 1_555 1_555
H14 C12 1_555 1_555
C13 N2 1_555 1_555
H15 C13 1_555 1_555
H16 C13 1_555 1_555
O1A C6A 1_555 1_555
C2A C1 1_555 1_555
O2A C6A 1_555 1_555
C3A C4A 1_555 1_555
C4A H2A 1_555 1_555
C5A C2A 1_555 1_555
H3A C5A 1_555 1_555
C6A C3A 1_555 1_555
C7A C2A 1_555 1_555
H5A C7A 1_555 1_555
C8A C3A 1_555 1_555
H6A C8A 1_555 1_555
O1F C6F 1_555 1_555
C2F C1 1_555 1_555
O2F C6F 1_555 1_555
C3F C4F 1_555 1_555
C4F H2F 1_555 1_555
C5F C2F 1_555 1_555
H3F C5F 1_555 1_555
C6F C3F 1_555 1_555
C7F C2F 1_555 1_555
H5F C7F 1_555 1_555
C8F C3F 1_555 1_555
H6F C8F 1_555 1_555
O1G C6G 1_555 1_555
C2G C1 1_555 1_555
O2G C6G 1_555 1_555
C3G C4G 1_555 1_555
C4G H2G 1_555 1_555
C5G C2G 1_555 1_555
H3G C5G 1_555 1_555
C6G C3G 1_555 1_555
C7G C2G 1_555 1_555
H5G C7G 1_555 1_555
C8G C3G 1_555 1_555
H6G C8G 1_555 1_555
N1D Zn1 1_555 1_555
H1D N1D 1_555 1_555
N2D Zn1 1_555 1_555
H4D N2D 1_555 1_555
C9D N1D 1_555 1_555
H7D C9D 1_555 1_555
H8D C9D 1_555 1_555
C10D N1D 1_555 1_555
H9D C10D 1_555 1_555
H10D C10D 1_555 1_555
C11D C13 1_555 1_555
H11D C11D 1_555 1_555
H12D C11D 1_555 1_555
C12D N2D 1_555 1_555
H13D C12D 1_555 1_555
H14D C12D 1_555 1_555
C13D C11 1_555 1_555
H15D C13D 1_555 1_555
H16D C13D 1_555 1_555
Zn1A O1A 1_555 1_555
N1A Zn1A 1_555 1_555
H1A N1A 1_555 1_555
N2A Zn1A 1_555 1_555
H4A N2A 1_555 1_555
C9A N1A 1_555 1_555
H7A C9A 1_555 1_555
H8A C9A 1_555 1_555
C10A N1A 1_555 1_555
H9A C10A 1_555 1_555
H10A C10A 1_555 1_555
C11A C10A 1_555 1_555
H11A C11A 1_555 1_555
H12A C11A 1_555 1_555
C12A N2A 1_555 1_555
H13A C12A 1_555 1_555
H14A C12A 1_555 1_555
C13A N2A 1_555 1_555
H15A C13A 1_555 1_555
H16A C13A 1_555 1_555
N1E Zn1A 1_555 1_555
H1E N1E 1_555 1_555
N2E Zn1A 1_555 1_555
H4E N2E 1_555 1_555
C9E N1E 1_555 1_555
H7E C9E 1_555 1_555
H8E C9E 1_555 1_555
C10E N1E 1_555 1_555
H9E C10E 1_555 1_555
H10E C10E 1_555 1_555
C11E C13A 1_555 1_555
H11E C11E 1_555 1_555
H12E C11E 1_555 1_555
C12E N2E 1_555 1_555
H13E C12E 1_555 1_555
H14E C12E 1_555 1_555
C13E C11A 1_555 1_555
H15E C13E 1_555 1_555
H16E C13E 1_555 1_555
Zn1B O1F 1_555 1_555
Zn1C O1G 1_555 1_555
O1D Zn1 1_555 1_555
O1E Zn1A 1_555 1_555
C7 C8 1_555 1_555
C9 C12 1_555 1_555
C4A C5A 1_555 1_555
C7A C8A 1_555 1_555
C4F C5F 1_555 1_555
C7F C8F 1_555 1_555
C4G C5G 1_555 1_555
C7G C8G 1_555 1_555
N2D C13D 1_555 1_555
C9D C12D 1_555 1_555
C10D C11D 1_555 1_555
C9A C12A 1_555 1_555
N2E C13E 1_555 1_555
C9E C12E 1_555 1_555
C10E C11E 1_555 1_555

#END
