
#######################################################################
#
#                 Cambridge Crystallographic Data Centre
#                                CCDC 
#
#######################################################################
#
# If this CIF has been generated from an entry in the Cambridge 
# Structural Database, then it will include bibliographic, chemical, 
# crystal, experimental, refinement or atomic coordinate data resulting 
# from the CCDC's data processing and validation procedures.
#
#######################################################################

data_GERPUP
_chemical_formula_moiety         '(C48 H76 Cu6 O74 Sm4)n'
_symmetry_cell_setting           hexagonal
_symmetry_space_group_name_H-M   'P 6/m c c'
_symmetry_Int_Tables_number      192
_space_group_name_Hall           '-P 6 2c'
loop_
_symmetry_equiv_pos_site_id
_symmetry_equiv_pos_as_xyz
1 x,y,z
2 -y,x-y,z
3 -x+y,-x,z
4 y,-x+y,z
5 x-y,x,z
6 y,x,1/2-z
7 -x+y,y,1/2-z
8 x,x-y,1/2-z
9 -x,-y,z
10 x-y,-y,1/2-z
11 -x,-x+y,1/2-z
12 -y,-x,1/2-z
13 -x,-y,-z
14 y,-x+y,-z
15 x-y,x,-z
16 -y,x-y,-z
17 -x+y,-x,-z
18 -y,-x,1/2+z
19 x-y,-y,1/2+z
20 -x,-x+y,1/2+z
21 x,y,-z
22 -x+y,y,1/2+z
23 x,x-y,1/2+z
24 y,x,1/2+z
_cell_length_a                   14.9830(10)
_cell_length_b                   14.9830(10)
_cell_length_c                   14.8650(10)
_cell_angle_alpha                90
_cell_angle_beta                 90
_cell_angle_gamma                120
_cell_volume                     2889.97
loop_
_atom_site_label
_atom_site_type_symbol
_atom_site_fract_x
_atom_site_fract_y
_atom_site_fract_z
Sm1 Sm 0.6667 0.3333 0.2500
C1 C 0.4860(3) 0.1295(3) 0.1400(3)
O1 O 0.4432(2) 0.0506(2) 0.0924(2)
O2 O 0.5804(2) 0.1936(2) 0.1427(2)
C2 C 0.4153(3) 0.1488(3) 0.1983(4)
H1 H 0.3674 0.1579 0.1609
H2 H 0.3758 0.0899 0.2373
O3 O 0.4729(3) 0.23646(14) 0.2500
Cu1 Cu 0.5000 0.0000 0.0000
O4 O 0.3233(4) -0.1563(4) 0.0000
Sm1T Sm 0.6667 0.3333 -0.2500
Sm1W Sm 0.3333 -0.3333 -0.2500
Sm1E Sm 0.3333 -0.3333 0.2500
Sm1T_2 Sm 0.6667 0.3333 0.7500
Sm1W_2 Sm 0.3333 0.6667 0.7500
Sm1C Sm 0.3333 0.6666 0.2500
Sm1W_3 Sm 1.3333 0.6667 -0.2500
Sm1C_2 Sm 1.3333 0.6666 0.2500
C1G C 0.4860(3) 0.3565(4) 0.3600(3)
C1A C 0.8705(3) 0.3565(4) 0.1400(3)
C1F C 0.6435(4) 0.1295(3) 0.3600(3)
C1B C 0.6435(4) 0.5140(3) 0.1400(3)
C1K C 0.8705(3) 0.5140(3) 0.3600(3)
C1T C 0.4860(3) 0.1295(3) -0.1400(3)
C1V C 0.4860(3) 0.3565(4) -0.3600(3)
C1L C 0.5140(3) -0.1295(3) -0.1400(3)
C1S C 0.5140(3) -0.3565(4) -0.3600(3)
C1H C 0.5140(3) -0.1295(3) 0.1400(3)
C1J C 0.5140(3) -0.3565(4) 0.3600(3)
C1V_2 C 0.4860(3) 0.3565(4) 0.6400(3)
C1T_2 C 0.4860(3) 0.1295(3) 0.8600(3)
C1S_2 C 0.5140(3) 0.6435(4) 0.6400(3)
C1L_2 C 0.5140(3) 0.8705(3) 0.8600(3)
C1J_2 C 0.5140(3) 0.6435(4) 0.3600(3)
C1H_2 C 0.5140(3) 0.8705(3) 0.1400(3)
C1O C 0.8705(3) 0.3565(4) -0.1400(3)
C1U C 0.6435(4) 0.1295(3) -0.3600(3)
C1M C 1.1295(3) 0.6435(4) -0.1400(3)
C1R C 1.3565(4) 0.8705(3) -0.3600(3)
C1C C 1.1295(3) 0.6435(4) 0.1400(3)
C1I C 1.3565(4) 0.8705(3) 0.3600(3)
O1G O 0.4432(2) 0.3926(3) 0.4076(2)
O1A O 0.9494(2) 0.3926(3) 0.0924(2)
O1F O 0.6074(3) 0.0506(2) 0.4076(2)
O1B O 0.6074(3) 0.5568(2) 0.0924(2)
O1K O 0.9494(2) 0.5568(2) 0.4076(2)
O1T O 0.4432(2) 0.0506(2) -0.0924(2)
O1V O 0.4432(2) 0.3926(3) -0.4076(2)
O1L O 0.5568(2) -0.0506(2) -0.0924(2)
O1S O 0.5568(2) -0.3926(3) -0.4076(2)
O1H O 0.5568(2) -0.0506(2) 0.0924(2)
O1J O 0.5568(2) -0.3926(3) 0.4076(2)
O1V_2 O 0.4432(2) 0.3926(3) 0.5924(2)
O1T_2 O 0.4432(2) 0.0506(2) 0.9076(2)
O1S_2 O 0.5568(2) 0.6074(3) 0.5924(2)
O1L_2 O 0.5568(2) 0.9494(2) 0.9076(2)
O1J_2 O 0.5568(2) 0.6074(3) 0.4076(2)
O1H_2 O 0.5568(2) 0.9494(2) 0.0924(2)
O1O O 0.9494(2) 0.3926(3) -0.0924(2)
O1U O 0.6074(3) 0.0506(2) -0.4076(2)
O1M O 1.0506(2) 0.6074(3) -0.0924(2)
O1R O 1.3926(3) 0.9494(2) -0.4076(2)
O1C O 1.0506(2) 0.6074(3) 0.0924(2)
O1I O 1.3926(3) 0.9494(2) 0.4076(2)
O1U_2 O 0.6074(3) 0.0506(2) 0.5924(2)
O1R_2 O 0.3926(3) -0.0506(2) 0.5924(2)
O1I_2 O 0.3926(3) -0.0506(2) 0.4076(2)
O1D O 0.3926(3) 0.4432(2) 0.0924(2)
O1N O 0.3926(3) 0.4432(2) -0.0924(2)
O1P O 0.6074(3) 0.5568(2) -0.0924(2)
O1E O 1.0506(2) 0.4432(2) 0.4076(2)
O1W O 1.0506(2) 0.4432(2) 0.5924(2)
O1Q O 0.9494(2) 0.5568(2) 0.5924(2)
O2G O 0.5804(2) 0.3868(3) 0.3573(2)
O2A O 0.8064(2) 0.3868(3) 0.1427(2)
O2F O 0.6132(3) 0.1936(2) 0.3573(2)
O2B O 0.6132(3) 0.4196(2) 0.1427(2)
O2K O 0.8064(2) 0.4196(2) 0.3573(2)
O2T O 0.5804(2) 0.1936(2) -0.1427(2)
O2V O 0.5804(2) 0.3868(3) -0.3573(2)
O2L O 0.4196(2) -0.1936(2) -0.1427(2)
O2S O 0.4196(2) -0.3868(3) -0.3573(2)
O2H O 0.4196(2) -0.1936(2) 0.1427(2)
O2J O 0.4196(2) -0.3868(3) 0.3573(2)
O2V_2 O 0.5804(2) 0.3868(3) 0.6427(2)
O2T_2 O 0.5804(2) 0.1936(2) 0.8573(2)
O2S_2 O 0.4196(2) 0.6132(3) 0.6427(2)
O2L_2 O 0.4196(2) 0.8064(2) 0.8573(2)
O2J_2 O 0.4196(2) 0.6132(3) 0.3573(2)
O2H_2 O 0.4196(2) 0.8064(2) 0.1427(2)
O2O O 0.8064(2) 0.3868(3) -0.1427(2)
O2U O 0.6132(3) 0.1936(2) -0.3573(2)
O2M O 1.1936(2) 0.6132(3) -0.1427(2)
O2R O 1.3868(3) 0.8064(2) -0.3573(2)
O2C O 1.1936(2) 0.6132(3) 0.1427(2)
O2I O 1.3868(3) 0.8064(2) 0.3573(2)
O2P O 0.6132(3) 0.4196(2) -0.1427(2)
O2Q O 0.8064(2) 0.4196(2) -0.3573(2)
O2W O 0.1936(2) -0.4196(2) -0.3573(2)
O2M_2 O 0.1936(2) -0.3868(3) -0.1427(2)
O2N O 0.3868(3) -0.4196(2) -0.1427(2)
O2R_2 O 0.3868(3) -0.1936(2) -0.3573(2)
O2C_2 O 0.1936(2) -0.3868(3) 0.1427(2)
O2D O 0.3868(3) -0.4196(2) 0.1427(2)
O2E O 0.1936(2) -0.4196(2) 0.3573(2)
O2I_2 O 0.3868(3) -0.1936(2) 0.3573(2)
C2G C 0.4153(3) 0.2665(4) 0.3017(4)
C2A C 0.8512(3) 0.2665(4) 0.1983(4)
C2F C 0.7335(4) 0.1488(3) 0.3017(4)
C2B C 0.7335(4) 0.5847(3) 0.1983(4)
C2K C 0.8512(3) 0.5847(3) 0.3017(4)
C2T C 0.4153(3) 0.1488(3) -0.1983(4)
C2V C 0.4153(3) 0.2665(4) -0.3017(4)
C2L C 0.5847(3) -0.1488(3) -0.1983(4)
C2S C 0.5847(3) -0.2665(4) -0.3017(4)
C2H C 0.5847(3) -0.1488(3) 0.1983(4)
C2J C 0.5847(3) -0.2665(4) 0.3017(4)
C2V_2 C 0.4153(3) 0.2665(4) 0.6983(4)
C2T_2 C 0.4153(3) 0.1488(3) 0.8017(4)
C2S_2 C 0.5847(3) 0.7335(4) 0.6983(4)
C2L_2 C 0.5847(3) 0.8512(3) 0.8017(4)
C2J_2 C 0.5847(3) 0.7335(4) 0.3017(4)
C2H_2 C 0.5847(3) 0.8512(3) 0.1983(4)
C2O C 0.8512(3) 0.2665(4) -0.1983(4)
C2U C 0.7335(4) 0.1488(3) -0.3017(4)
C2M C 1.1488(3) 0.7335(4) -0.1983(4)
C2R C 1.2665(4) 0.8512(3) -0.3017(4)
C2C C 1.1488(3) 0.7335(4) 0.1983(4)
C2I C 1.2665(4) 0.8512(3) 0.3017(4)
H1G H 0.3674 0.2095 0.3391
H1A H 0.8421 0.2095 0.1609
H1F H 0.7905 0.1579 0.3391
H1B H 0.7905 0.6326 0.1609
H1K H 0.8421 0.6326 0.3391
H1T H 0.3674 0.1579 -0.1609
H1V H 0.3674 0.2095 -0.3391
H1L H 0.6326 -0.1579 -0.1609
H1S H 0.6326 -0.2095 -0.3391
H1H H 0.6326 -0.1579 0.1609
H1J H 0.6326 -0.2095 0.3391
H1V_2 H 0.3674 0.2095 0.6609
H1T_2 H 0.3674 0.1579 0.8391
H1S_2 H 0.6326 0.7905 0.6609
H1L_2 H 0.6326 0.8421 0.8391
H1J_2 H 0.6326 0.7905 0.3391
H1H_2 H 0.6326 0.8421 0.1609
H1O H 0.8421 0.2095 -0.1609
H1U H 0.7905 0.1579 -0.3391
H1M H 1.1579 0.7905 -0.1609
H1R H 1.2095 0.8421 -0.3391
H1C H 1.1579 0.7905 0.1609
H1I H 1.2095 0.8421 0.3391
H2G H 0.3758 0.2859 0.2627
H2A H 0.9101 0.2859 0.2373
H2F H 0.7141 0.0899 0.2627
H2B H 0.7141 0.6242 0.2373
H2K H 0.9101 0.6242 0.2627
H2T H 0.3758 0.0899 -0.2373
H2V H 0.3758 0.2859 -0.2627
H2L H 0.6242 -0.0899 -0.2373
H2S H 0.6242 -0.2859 -0.2627
H2H H 0.6242 -0.0899 0.2373
H2J H 0.6242 -0.2859 0.2627
H2V_2 H 0.3758 0.2859 0.7373
H2T_2 H 0.3758 0.0899 0.7627
H2S_2 H 0.6242 0.7141 0.7373
H2L_2 H 0.6242 0.9101 0.7627
H2J_2 H 0.6242 0.7141 0.2627
H2H_2 H 0.6242 0.9101 0.2373
H2O H 0.9101 0.2859 -0.2373
H2U H 0.7141 0.0899 -0.2627
H2M H 1.0899 0.7141 -0.2373
H2R H 1.2859 0.9101 -0.2627
H2C H 1.0899 0.7141 0.2373
H2I H 1.2859 0.9101 0.2627
O3A O 0.76354(14) 0.23644(33) 0.2500
O3B O 0.76356(33) 0.5271(3) 0.2500
O3T O 0.4729(3) 0.23646(14) -0.2500
O3L O 0.5271(3) -0.23646(14) -0.2500
O3H O 0.5271(3) -0.23646(14) 0.2500
O3V O 0.4729(3) 0.23644(33) 0.7500
O3S O 0.5271(3) 0.76356(33) 0.7500
O3J O 0.5271(3) 0.76356(33) 0.2500
O3O O 0.76354(14) 0.23644(33) -0.2500
O3M O 1.23646(14) 0.76356(33) -0.2500
O3C O 1.23646(14) 0.76356(33) 0.2500
O3P O 0.76356(33) 0.5271(3) -0.2500
O3W O 0.23646(14) -0.5271(3) -0.2500
O3M_2 O 0.23646(14) -0.23644(33) -0.2500
O3C_2 O 0.23646(14) -0.23644(33) 0.2500
O3D O 0.23644(33) -0.5271(3) 0.2500
Cu1G Cu 0.5000 0.5000 0.5000
Cu1A Cu 1.0000 0.5000 0.0000
Cu1F Cu 0.5000 0.0000 0.5000
Cu1B Cu 0.5000 0.5000 0.0000
Cu1E Cu 1.0000 0.5000 0.5000
Cu1G_2 Cu 0.5000 0.5000 -0.5000
Cu1G_3 Cu 0.5000 -0.5000 -0.5000
Cu1G_4 Cu 0.5000 -0.5000 0.5000
Cu1_2 Cu 0.5000 0.0000 1.0000
Cu1_3 Cu 0.5000 1.0000 1.0000
Cu1_4 Cu 0.5000 1.0000 0.0000
Cu1F_2 Cu 0.5000 -0.0000 -0.5000
Cu1F_3 Cu 1.5000 1.0000 -0.5000
Cu1F_4 Cu 1.5000 1.0000 0.5000
O4L O 0.6767(4) 0.1563(4) 0.0000
O4G O 0.3233(4) 0.4796(6) 0.5000
O4S O 0.6767(4) 0.5204(6) 0.5000
O4A O 1.1563(4) 0.4796(6) 0.0000
O4C O 0.8437(4) 0.5204(6) 0.0000
O4F O 0.5204(6) -0.1563(4) 0.5000
O4R O 0.4796(6) 0.1563(4) 0.5000
O4B O 0.5204(6) 0.6767(4) 0.0000
O4D O 0.4796(6) 0.3233(4) 0.0000
O4Q O 1.1563(4) 0.6767(4) 0.5000
O4E O 0.8437(4) 0.3233(4) 0.5000
O5 O 0.0000 0.0000 0.2500
O6 O 0.253(2) 0.200(2) 0.0000
loop_
_geom_bond_atom_site_label_1
_geom_bond_atom_site_label_2
_geom_bond_site_symmetry_1
_geom_bond_site_symmetry_2
Sm1 O2 1_555 1_555
C1 O1 1_555 1_555
O1 Cu1 1_555 1_555
O2 C1 1_555 1_555
C2 C1 1_555 1_555
H1 C2 1_555 1_555
H2 C2 1_555 1_555
O3 Sm1 1_555 1_555
Cu1 O4 1_555 1_555
Sm1T O2T 1_555 1_555
Sm1W O2L 1_555 1_555
Sm1E O2H 1_555 1_555
Sm1T_2 O2V_2 1_555 1_555
Sm1W_2 O2S_2 1_555 1_555
Sm1C O2J_2 1_555 1_555
Sm1W_3 O2M 1_555 1_555
Sm1C_2 O2C 1_555 1_555
C1G O1G 1_555 1_555
C1A O1A 1_555 1_555
C1F O1F 1_555 1_555
C1B O1B 1_555 1_555
C1K O1K 1_555 1_555
C1T O1T 1_555 1_555
C1V O1V 1_555 1_555
C1L O1L 1_555 1_555
C1S O1S 1_555 1_555
C1H O1H 1_555 1_555
C1J O1J 1_555 1_555
C1V_2 O1V_2 1_555 1_555
C1T_2 O1T_2 1_555 1_555
C1S_2 O1S_2 1_555 1_555
C1L_2 O1L_2 1_555 1_555
C1J_2 O1J_2 1_555 1_555
C1H_2 O1H_2 1_555 1_555
C1O O1O 1_555 1_555
C1U O1U 1_555 1_555
C1M O1M 1_555 1_555
C1R O1R 1_555 1_555
C1C O1C 1_555 1_555
C1I O1I 1_555 1_555
O1G Cu1G 1_555 1_555
O1A Cu1A 1_555 1_555
O1F Cu1F 1_555 1_555
O1B Cu1B 1_555 1_555
O1K Cu1E 1_555 1_555
O1T Cu1 1_555 1_555
O1V Cu1G_2 1_555 1_555
O1L Cu1 1_555 1_555
O1S Cu1G_3 1_555 1_555
O1H Cu1 1_555 1_555
O1J Cu1G_4 1_555 1_555
O1V_2 Cu1G 1_555 1_555
O1T_2 Cu1_2 1_555 1_555
O1S_2 Cu1G 1_555 1_555
O1L_2 Cu1_3 1_555 1_555
O1J_2 Cu1G 1_555 1_555
O1H_2 Cu1_4 1_555 1_555
O1O Cu1A 1_555 1_555
O1U Cu1F_2 1_555 1_555
O1M Cu1A 1_555 1_555
O1R Cu1F_3 1_555 1_555
O1C Cu1A 1_555 1_555
O1I Cu1F_4 1_555 1_555
O1U_2 Cu1F 1_555 1_555
O1R_2 Cu1F 1_555 1_555
O1I_2 Cu1F 1_555 1_555
O1D Cu1B 1_555 1_555
O1N Cu1B 1_555 1_555
O1P Cu1B 1_555 1_555
O1E Cu1E 1_555 1_555
O1W Cu1E 1_555 1_555
O1Q Cu1E 1_555 1_555
O2G Sm1 1_555 1_555
O2A Sm1 1_555 1_555
O2F Sm1 1_555 1_555
O2B Sm1 1_555 1_555
O2K Sm1 1_555 1_555
O2T C1T 1_555 1_555
O2V Sm1T 1_555 1_555
O2L C1L 1_555 1_555
O2S Sm1W 1_555 1_555
O2H C1H 1_555 1_555
O2J Sm1E 1_555 1_555
O2V_2 C1V_2 1_555 1_555
O2T_2 Sm1T_2 1_555 1_555
O2S_2 C1S_2 1_555 1_555
O2L_2 Sm1W_2 1_555 1_555
O2J_2 C1J_2 1_555 1_555
O2H_2 Sm1C 1_555 1_555
O2O Sm1T 1_555 1_555
O2U Sm1T 1_555 1_555
O2M C1M 1_555 1_555
O2R Sm1W_3 1_555 1_555
O2C C1C 1_555 1_555
O2I Sm1C_2 1_555 1_555
O2P Sm1T 1_555 1_555
O2Q Sm1T 1_555 1_555
O2W Sm1W 1_555 1_555
O2M_2 Sm1W 1_555 1_555
O2N Sm1W 1_555 1_555
O2R_2 Sm1W 1_555 1_555
O2C_2 Sm1E 1_555 1_555
O2D Sm1E 1_555 1_555
O2E Sm1E 1_555 1_555
O2I_2 Sm1E 1_555 1_555
C2G O3 1_555 1_555
C2A C1A 1_555 1_555
C2F C1F 1_555 1_555
C2B C1B 1_555 1_555
C2K C1K 1_555 1_555
C2T C1T 1_555 1_555
C2V C1V 1_555 1_555
C2L C1L 1_555 1_555
C2S C1S 1_555 1_555
C2H C1H 1_555 1_555
C2J C1J 1_555 1_555
C2V_2 C1V_2 1_555 1_555
C2T_2 C1T_2 1_555 1_555
C2S_2 C1S_2 1_555 1_555
C2L_2 C1L_2 1_555 1_555
C2J_2 C1J_2 1_555 1_555
C2H_2 C1H_2 1_555 1_555
C2O C1O 1_555 1_555
C2U C1U 1_555 1_555
C2M C1M 1_555 1_555
C2R C1R 1_555 1_555
C2C C1C 1_555 1_555
C2I C1I 1_555 1_555
H1G C2G 1_555 1_555
H1A C2A 1_555 1_555
H1F C2F 1_555 1_555
H1B C2B 1_555 1_555
H1K C2K 1_555 1_555
H1T C2T 1_555 1_555
H1V C2V 1_555 1_555
H1L C2L 1_555 1_555
H1S C2S 1_555 1_555
H1H C2H 1_555 1_555
H1J C2J 1_555 1_555
H1V_2 C2V_2 1_555 1_555
H1T_2 C2T_2 1_555 1_555
H1S_2 C2S_2 1_555 1_555
H1L_2 C2L_2 1_555 1_555
H1J_2 C2J_2 1_555 1_555
H1H_2 C2H_2 1_555 1_555
H1O C2O 1_555 1_555
H1U C2U 1_555 1_555
H1M C2M 1_555 1_555
H1R C2R 1_555 1_555
H1C C2C 1_555 1_555
H1I C2I 1_555 1_555
H2G C2G 1_555 1_555
H2A C2A 1_555 1_555
H2F C2F 1_555 1_555
H2B C2B 1_555 1_555
H2K C2K 1_555 1_555
H2T C2T 1_555 1_555
H2V C2V 1_555 1_555
H2L C2L 1_555 1_555
H2S C2S 1_555 1_555
H2H C2H 1_555 1_555
H2J C2J 1_555 1_555
H2V_2 C2V_2 1_555 1_555
H2T_2 C2T_2 1_555 1_555
H2S_2 C2S_2 1_555 1_555
H2L_2 C2L_2 1_555 1_555
H2J_2 C2J_2 1_555 1_555
H2H_2 C2H_2 1_555 1_555
H2O C2O 1_555 1_555
H2U C2U 1_555 1_555
H2M C2M 1_555 1_555
H2R C2R 1_555 1_555
H2C C2C 1_555 1_555
H2I C2I 1_555 1_555
O3A Sm1 1_555 1_555
O3B Sm1 1_555 1_555
O3T Sm1T 1_555 1_555
O3L Sm1W 1_555 1_555
O3H Sm1E 1_555 1_555
O3V Sm1T_2 1_555 1_555
O3S Sm1W_2 1_555 1_555
O3J Sm1C 1_555 1_555
O3O Sm1T 1_555 1_555
O3M Sm1W_3 1_555 1_555
O3C Sm1C_2 1_555 1_555
O3P Sm1T 1_555 1_555
O3W Sm1W 1_555 1_555
O3M_2 Sm1W 1_555 1_555
O3C_2 Sm1E 1_555 1_555
O3D Sm1E 1_555 1_555
Cu1G O4G 1_555 1_555
Cu1A O4A 1_555 1_555
Cu1F O4F 1_555 1_555
Cu1B O4B 1_555 1_555
Cu1E O4Q 1_555 1_555
O4L Cu1 1_555 1_555
O4S Cu1G 1_555 1_555
O4C Cu1A 1_555 1_555
O4R Cu1F 1_555 1_555
O4D Cu1B 1_555 1_555
O4E Cu1E 1_555 1_555
C2 O3 1_555 1_555
C1G O2G 1_555 1_555
C1G C2G 1_555 1_555
C1A O2A 1_555 1_555
C1F O2F 1_555 1_555
C1B O2B 1_555 1_555
C1K O2K 1_555 1_555
C1V O2V 1_555 1_555
C1S O2S 1_555 1_555
C1J O2J 1_555 1_555
C1T_2 O2T_2 1_555 1_555
C1L_2 O2L_2 1_555 1_555
C1H_2 O2H_2 1_555 1_555
C1O O2O 1_555 1_555
C1U O2U 1_555 1_555
C1R O2R 1_555 1_555
C1I O2I 1_555 1_555
C2A O3A 1_555 1_555
C2F O3A 1_555 1_555
C2B O3B 1_555 1_555
C2K O3B 1_555 1_555
C2T O3T 1_555 1_555
C2V O3T 1_555 1_555
C2L O3L 1_555 1_555
C2S O3L 1_555 1_555
C2H O3H 1_555 1_555
C2J O3H 1_555 1_555
C2V_2 O3V 1_555 1_555
C2T_2 O3V 1_555 1_555
C2S_2 O3S 1_555 1_555
C2L_2 O3S 1_555 1_555
C2J_2 O3J 1_555 1_555
C2H_2 O3J 1_555 1_555
C2O O3O 1_555 1_555
C2U O3O 1_555 1_555
C2M O3M 1_555 1_555
C2R O3M 1_555 1_555
C2C O3C 1_555 1_555
C2I O3C 1_555 1_555

#END
