
#######################################################################
#
#                 Cambridge Crystallographic Data Centre
#                                CCDC 
#
#######################################################################
#
# If this CIF has been generated from an entry in the Cambridge 
# Structural Database, then it will include bibliographic, chemical, 
# crystal, experimental, refinement or atomic coordinate data resulting 
# from the CCDC's data processing and validation procedures.
#
#######################################################################

data_GOYXOJ
_chemical_formula_moiety         '(C28 H20 Ag2 N4 O18 Tb2)n'
_symmetry_cell_setting           monoclinic
_symmetry_space_group_name_H-M   'C 2/c'
_symmetry_Int_Tables_number      15
_space_group_name_Hall           '-C 2yc'
loop_
_symmetry_equiv_pos_site_id
_symmetry_equiv_pos_as_xyz
1 x,y,z
2 -x,y,1/2-z
3 1/2+x,1/2+y,z
4 1/2-x,1/2+y,1/2-z
5 -x,-y,-z
6 x,-y,1/2+z
7 1/2-x,1/2-y,-z
8 1/2+x,1/2-y,1/2+z
_cell_length_a                   22.137(4)
_cell_length_b                   9.5064(18)
_cell_length_c                   16.788(3)
_cell_angle_alpha                90
_cell_angle_beta                 96.953(2)
_cell_angle_gamma                90
_cell_volume                     3506.94
loop_
_atom_site_label
_atom_site_type_symbol
_atom_site_fract_x
_atom_site_fract_y
_atom_site_fract_z
Tb1 Tb 0.004584(12) 0.70033(3) 0.434333(17)
Ag1 Ag 0.15887(3) 0.87871(10) 0.58239(4)
C1 C 0.2096(3) 0.3703(9) 0.5883(5)
H1 H 0.1848 0.3180 0.6181
C2 C -0.0645(3) 0.7067(6) 0.6846(4)
O1 O -0.0082(2) 0.7336(5) 0.5733(3)
O2 O 0.06338(19) 0.9027(4) 0.4811(3)
C3 C 0.1184(3) 0.5073(7) 0.5244(4)
O3 O 0.1022(2) 0.6227(5) 0.4932(3)
C4 C -0.0276(3) 0.6492(7) 0.6213(4)
C5 C -0.0675(3) 0.8504(7) 0.6993(4)
H2 H -0.0490 0.9145 0.6681
C6 C 0.1852(3) 0.4755(7) 0.5359(4)
C7 C 0.2242(3) 0.5494(8) 0.4930(5)
H3 H 0.2082 0.6207 0.4589
C8 C -0.0986(3) 0.8961(8) 0.7614(5)
H4 H -0.0998 0.9921 0.7719
C9 C 0.0351(3) 0.9992(6) 0.5113(4)
C10 C -0.0953(3) 0.6176(7) 0.7298(4)
H5 H -0.0954 0.5212 0.7205
O4 O 0.0575(2) 1.0921(4) 0.5585(3)
O5 O -0.0196(2) 0.5184(5) 0.6227(3)
N1 N -0.1268(3) 0.8089(7) 0.8066(4)
C11 C -0.1263(3) 0.6733(8) 0.7895(4)
H6 H -0.1477 0.6122 0.8190
N2 N 0.2842(3) 0.5231(8) 0.4983(4)
C12 C 0.3064(4) 0.4215(12) 0.5495(6)
H7 H 0.3479 0.4020 0.5541
C13 C 0.2714(4) 0.3463(11) 0.5948(6)
H8 H 0.2890 0.2785 0.6302
O6 O 0.0841(2) 0.4147(5) 0.5460(3)
O7 O 0.0614(2) 0.7573(5) 0.3249(3)
C14 C 0.0351(3) 0.7434(6) 0.2550(4)
O8 O 0.0597(2) 0.7299(5) 0.1924(3)
O2D O -0.06338(19) 1.0973(4) 0.5189(3)
C9D C -0.0351(3) 1.0008(6) 0.4887(4)
O4D O -0.0575(2) 0.9079(4) 0.4415(3)
O7A O -0.0614(2) 0.7573(5) 0.1751(3)
C14A C -0.0351(3) 0.7434(6) 0.2450(4)
O8A O -0.0597(2) 0.7299(5) 0.3076(3)
Tb1A Tb -0.004584(12) 0.70033(3) 0.065667(17)
C1A C -0.2096(3) 0.3703(9) -0.0883(5)
H1A H -0.1848 0.3180 -0.1181
C2A C 0.0645(3) 0.7067(6) -0.1846(4)
O1A O 0.0082(2) 0.7336(5) -0.0733(3)
C3A C -0.1184(3) 0.5073(7) -0.0244(4)
O3A O -0.1022(2) 0.6227(5) 0.0068(3)
C4A C 0.0276(3) 0.6492(7) -0.1213(4)
C5A C 0.0675(3) 0.8504(7) -0.1993(4)
H2A H 0.0490 0.9145 -0.1681
C6A C -0.1852(3) 0.4755(7) -0.0359(4)
C7A C -0.2242(3) 0.5494(8) 0.0070(5)
H3A H -0.2082 0.6207 0.0411
C8A C 0.0986(3) 0.8961(8) -0.2614(5)
H4A H 0.0998 0.9921 -0.2719
C10A C 0.0953(3) 0.6176(7) -0.2298(4)
H5A H 0.0954 0.5212 -0.2205
O5A O 0.0196(2) 0.5184(5) -0.1227(3)
N1A N 0.1268(3) 0.8089(7) -0.3066(4)
C11A C 0.1263(3) 0.6733(8) -0.2895(4)
H6A H 0.1477 0.6122 -0.3190
N2A N -0.2842(3) 0.5231(8) 0.0017(4)
C12A C -0.3064(4) 0.4215(12) -0.0495(6)
H7A H -0.3479 0.4020 -0.0541
C13A C -0.2714(4) 0.3463(11) -0.0948(6)
H8A H -0.2890 0.2785 -0.1302
O6A O -0.0841(2) 0.4147(5) -0.0460(3)
Ag1A Ag -0.15887(3) 0.87871(10) 0.91761(4)
Tb1D Tb -0.004584(12) 0.29967(3) 0.565667(17)
Tb1D_2 Tb -0.004584(12) 1.29967(3) 0.565667(17)
Tb1E Tb 0.004584(12) 0.29967(3) -0.065667(17)
Ag1_2 Ag 0.15887(3) 0.87871(10) -0.41761(4)
Ag1D Ag -0.15887(3) 1.12129(10) 0.41761(4)
Ag1F Ag 0.34113(3) 0.62129(10) 0.41761(4)
Ag1G Ag -0.34113(3) 0.62129(10) 0.08239(4)
O2A O -0.06338(19) 0.9027(4) 0.0189(3)
O2A_2 O -0.06338(19) 0.9027(4) 1.0189(3)
O4E O 0.0575(2) 0.9079(4) 0.0585(3)
O5D O 0.0196(2) 0.4816(5) 0.3773(3)
O5E O -0.0196(2) 0.4816(5) 0.1227(3)
N1A_2 N 0.1268(3) 0.8089(7) 0.6934(4)
N2F N 0.2158(3) 0.9769(8) 0.5017(4)
N2G N -0.2158(3) 0.9769(8) 0.9983(4)
O6D O -0.0841(2) 0.5853(5) 0.4540(3)
O6E O 0.0841(2) 0.5853(5) 0.0460(3)
O9 O 0.1942(4) 0.7450(14) 0.3127(9)
H9 H 0.1562 0.7478 0.3164
H10 H 0.2099 0.8260 0.3227
O10 O 0.2462(5) 0.9408(15) 0.2096(12)
H11 H 0.2624 1.0203 0.2027
H12 H 0.2079 0.9338 0.2067
loop_
_geom_bond_atom_site_label_1
_geom_bond_atom_site_label_2
_geom_bond_site_symmetry_1
_geom_bond_site_symmetry_2
Tb1 O1 1_555 1_555
Ag1 O2 1_555 1_555
C1 H1 1_555 1_555
C2 C4 1_555 1_555
O1 C4 1_555 1_555
O2 Tb1 1_555 1_555
C3 O3 1_555 1_555
O3 Tb1 1_555 1_555
C4 O5 1_555 1_555
C5 C2 1_555 1_555
H2 C5 1_555 1_555
C6 C1 1_555 1_555
C7 C6 1_555 1_555
H3 C7 1_555 1_555
C8 C5 1_555 1_555
H4 C8 1_555 1_555
C9 O2 1_555 1_555
C10 C2 1_555 1_555
H5 C10 1_555 1_555
O4 C9 1_555 1_555
O5 Tb1D 1_555 1_555
N1 C8 1_555 1_555
C11 C10 1_555 1_555
H6 C11 1_555 1_555
N2 C7 1_555 1_555
C12 N2 1_555 1_555
H7 C12 1_555 1_555
C13 C1 1_555 1_555
H8 C13 1_555 1_555
O6 C3 1_555 1_555
O7 Tb1 1_555 1_555
C14 O7 1_555 1_555
O8 C14 1_555 1_555
O9 H9 1_555 1_555
H10 O9 1_555 1_555
O10 H11 1_555 1_555
H12 O10 1_555 1_555
O2D C9D 1_555 1_555
C9D C9 1_555 1_555
O4D Tb1 1_555 1_555
O7A C14A 1_555 1_555
C14A C14 1_555 1_555
O8A Tb1 1_555 1_555
Tb1A O8 1_555 1_555
C1A H1A 1_555 1_555
C2A C4A 1_555 1_555
O1A Tb1A 1_555 1_555
C3A O3A 1_555 1_555
O3A Tb1A 1_555 1_555
C4A O1A 1_555 1_555
C5A C2A 1_555 1_555
H2A C5A 1_555 1_555
C6A C1A 1_555 1_555
C7A C6A 1_555 1_555
H3A C7A 1_555 1_555
C8A C5A 1_555 1_555
H4A C8A 1_555 1_555
C10A C2A 1_555 1_555
H5A C10A 1_555 1_555
O5A C4A 1_555 1_555
N1A C8A 1_555 1_555
C11A C10A 1_555 1_555
H6A C11A 1_555 1_555
N2A C7A 1_555 1_555
C12A N2A 1_555 1_555
H7A C12A 1_555 1_555
C13A C1A 1_555 1_555
H8A C13A 1_555 1_555
O6A C3A 1_555 1_555
Ag1A N1 1_555 1_555
Tb1D O6 1_555 1_555
Tb1D_2 O4 1_555 1_555
Tb1E O5A 1_555 1_555
Ag1_2 N1A 1_555 1_555
Ag1D O2D 1_555 1_555
Ag1F N2 1_555 1_555
Ag1G N2A 1_555 1_555
O2A Tb1A 1_555 1_555
O2A_2 Ag1A 1_555 1_555
O4E Tb1A 1_555 1_555
O5D Tb1 1_555 1_555
O5E Tb1A 1_555 1_555
N1A_2 Ag1 1_555 1_555
N2F Ag1 1_555 1_555
N2G Ag1A 1_555 1_555
O6D Tb1 1_555 1_555
O6E Tb1A 1_555 1_555
C3 C6 1_555 1_555
N1 C11 1_555 1_555
C12 C13 1_555 1_555
O2D Tb1D_2 1_555 1_555
C9D O4D 1_555 1_555
O7A Tb1A 1_555 1_555
C14A O8A 1_555 1_555
C3A C6A 1_555 1_555
N1A C11A 1_555 1_555
C12A C13A 1_555 1_555
O6A Tb1E 1_555 1_555

#END
