
#######################################################################
#
#                 Cambridge Crystallographic Data Centre
#                                CCDC 
#
#######################################################################
#
# If this CIF has been generated from an entry in the Cambridge 
# Structural Database, then it will include bibliographic, chemical, 
# crystal, experimental, refinement or atomic coordinate data resulting 
# from the CCDC's data processing and validation procedures.
#
#######################################################################

data_GOYXEZ
_chemical_formula_moiety         '(C28 H20 Ag2 Eu2 N4 O18)n'
_symmetry_cell_setting           monoclinic
_symmetry_space_group_name_H-M   'C 2/c'
_symmetry_Int_Tables_number      15
_space_group_name_Hall           '-C 2yc'
loop_
_symmetry_equiv_pos_site_id
_symmetry_equiv_pos_as_xyz
1 x,y,z
2 -x,y,1/2-z
3 1/2+x,1/2+y,z
4 1/2-x,1/2+y,1/2-z
5 -x,-y,-z
6 x,-y,1/2+z
7 1/2-x,1/2-y,-z
8 1/2+x,1/2-y,1/2+z
_cell_length_a                   22.117(3)
_cell_length_b                   9.5250(13)
_cell_length_c                   16.865(2)
_cell_angle_alpha                90
_cell_angle_beta                 97.126(2)
_cell_angle_gamma                90
_cell_volume                     3525.41
loop_
_atom_site_label
_atom_site_type_symbol
_atom_site_fract_x
_atom_site_fract_y
_atom_site_fract_z
Eu1 Eu 0.495502(12) 0.19966(3) 0.565754(16)
Ag1 Ag 0.34134(3) 0.37953(8) 0.41641(4)
O1 O 0.5616(2) 0.2573(5) 0.8249(2)
O2 O 0.5855(2) 0.0830(5) 0.5473(3)
O3 O 0.5602(2) 0.2296(5) 0.6934(2)
C1 C 0.5646(3) 0.2086(6) 0.3151(4)
O4 O 0.5099(2) 0.2364(5) 0.4264(2)
O5 O 0.43648(18) 0.4035(4) 0.5178(2)
C2 C 0.6194(3) -0.0080(6) 0.5246(3)
C3 C 0.5287(3) 0.1505(7) 0.3785(4)
C4 C 0.5683(3) 0.3517(6) 0.3008(4)
H1 H 0.5509 0.4164 0.3325
C5 C 0.6864(3) 0.0228(7) 0.5364(4)
C6 C 0.7246(3) -0.0480(7) 0.4922(4)
H2 H 0.7081 -0.1175 0.4572
C7 C 0.5353(3) 0.2428(6) 0.7555(3)
C8 C 0.5953(3) 0.1189(7) 0.2698(4)
H3 H 0.5956 0.0227 0.2793
C9 C 0.5986(3) 0.3958(8) 0.2383(4)
H4 H 0.5994 0.4913 0.2272
C10 C 0.7107(3) 0.1269(8) 0.5877(4)
H5 H 0.6858 0.1787 0.6173
N1 N 0.7842(3) -0.0226(7) 0.4966(4)
C11 C 0.8078(4) 0.0788(10) 0.5478(5)
H6 H 0.8492 0.0989 0.5515
C12 C 0.7719(4) 0.1526(10) 0.5943(5)
H7 H 0.7893 0.2199 0.6301
O6 O 0.60328(19) -0.1241(5) 0.4945(3)
O7 O 0.5209(2) 0.0218(4) 0.3780(3)
N2 N 0.6267(3) 0.3091(6) 0.1933(3)
C13 C 0.6257(3) 0.1744(8) 0.2103(4)
H8 H 0.6465 0.1130 0.1805
C14 C 0.4653(3) 0.4989(6) 0.4883(3)
O8 O 0.44285(19) 0.5907(4) 0.4401(3)
O1A O 0.4384(2) 0.2573(5) 0.6751(2)
O3A O 0.4398(2) 0.2296(5) 0.8066(2)
C7A C 0.4647(3) 0.2428(6) 0.7445(3)
O5D O 0.56352(18) 0.5965(4) 0.4822(2)
C14D C 0.5347(3) 0.5011(6) 0.5117(3)
O8D O 0.55715(19) 0.4093(4) 0.5599(3)
Eu1A Eu 0.504498(12) 0.19966(3) -0.065754(16)
Ag1A Ag 0.65866(3) 0.37953(8) 0.08359(4)
O2A O 0.4145(2) 0.0830(5) -0.0473(3)
C1A C 0.4354(3) 0.2086(6) 0.1849(4)
O4A O 0.4901(2) 0.2364(5) 0.0736(2)
C2A C 0.3806(3) -0.0080(6) -0.0246(3)
C3A C 0.4713(3) 0.1505(7) 0.1215(4)
C4A C 0.4317(3) 0.3517(6) 0.1992(4)
H1A H 0.4491 0.4164 0.1675
C5A C 0.3136(3) 0.0228(7) -0.0364(4)
C6A C 0.2754(3) -0.0480(7) 0.0078(4)
H2A H 0.2919 -0.1175 0.0428
C8A C 0.4047(3) 0.1189(7) 0.2302(4)
H3A H 0.4044 0.0227 0.2207
C9A C 0.4014(3) 0.3958(8) 0.2617(4)
H4A H 0.4006 0.4913 0.2728
C10A C 0.2893(3) 0.1269(8) -0.0877(4)
H5A H 0.3142 0.1787 -0.1173
N1A N 0.2158(3) -0.0226(7) 0.0034(4)
C11A C 0.1922(4) 0.0788(10) -0.0478(5)
H6A H 0.1508 0.0989 -0.0515
C12A C 0.2281(4) 0.1526(10) -0.0943(5)
H7A H 0.2107 0.2199 -0.1301
O6A O 0.39672(19) -0.1241(5) 0.0055(3)
O7A O 0.4791(2) 0.0218(4) 0.1220(3)
N2A N 0.3733(3) 0.3091(6) 0.3067(3)
C13A C 0.3743(3) 0.1744(8) 0.2897(4)
H8A H 0.3535 0.1130 0.3195
Eu1A_2 Eu 0.504498(12) 0.19966(3) 0.934246(16)
Eu1D Eu 0.504498(12) -0.19966(3) 0.434246(16)
Eu1D_2 Eu 0.504498(12) 0.80034(3) 0.434246(16)
Eu1E Eu 0.495502(12) -0.19966(3) 0.065754(16)
Ag1B Ag 0.84134(3) -0.12047(8) 0.41641(4)
Ag1C Ag 0.15866(3) -0.12047(8) 0.08359(4)
Ag1D Ag 0.65866(3) 0.62047(8) 0.58359(4)
O1_2 O 0.5616(2) 0.2573(5) -0.1751(2)
O3A_2 O 0.4398(2) 0.2296(5) -0.1934(2)
O5A O 0.56352(18) 0.4035(4) -0.0178(2)
N1B N 0.2842(3) 0.4774(7) 0.4966(4)
N1C N 0.7158(3) 0.4774(7) 0.0034(4)
O6D O 0.39672(19) 0.1241(5) 0.5055(3)
O6E O 0.60328(19) 0.1241(5) -0.0055(3)
O7D O 0.4791(2) -0.0218(4) 0.6220(3)
O7E O 0.5209(2) -0.0218(4) -0.1220(3)
O8E O 0.44285(19) 0.4093(4) -0.0599(3)
O9 O 0.6948(5) 0.2447(15) 0.8135(9)
H9 H 0.6568 0.2438 0.8175
H10 H 0.7105 0.3225 0.8319
O10 O 0.7458(8) 0.446(2) 0.7114(14)
H11 H 0.7515 0.5323 0.7221
H12 H 0.7089 0.4415 0.7216
loop_
_geom_bond_atom_site_label_1
_geom_bond_atom_site_label_2
_geom_bond_site_symmetry_1
_geom_bond_site_symmetry_2
Eu1 O2 1_555 1_555
Ag1 O5 1_555 1_555
O1 C7 1_555 1_555
O2 C2 1_555 1_555
O3 Eu1 1_555 1_555
C1 C3 1_555 1_555
O4 Eu1 1_555 1_555
O5 Eu1 1_555 1_555
C2 C5 1_555 1_555
C3 O4 1_555 1_555
C4 C1 1_555 1_555
H1 C4 1_555 1_555
C5 C6 1_555 1_555
C6 H2 1_555 1_555
C7 O3 1_555 1_555
C8 C1 1_555 1_555
H3 C8 1_555 1_555
C9 C4 1_555 1_555
H4 C9 1_555 1_555
C10 C5 1_555 1_555
H5 C10 1_555 1_555
N1 C6 1_555 1_555
C11 N1 1_555 1_555
H6 C11 1_555 1_555
C12 C10 1_555 1_555
H7 C12 1_555 1_555
O6 C2 1_555 1_555
O7 C3 1_555 1_555
N2 C9 1_555 1_555
C13 C8 1_555 1_555
H8 C13 1_555 1_555
C14 O5 1_555 1_555
O8 C14 1_555 1_555
O9 H9 1_555 1_555
H10 O9 1_555 1_555
O10 H11 1_555 1_555
H12 O10 1_555 1_555
O1A Eu1 1_555 1_555
O3A C7A 1_555 1_555
C7A C7 1_555 1_555
O5D C14D 1_555 1_555
C14D C14 1_555 1_555
O8D Eu1 1_555 1_555
Eu1A O2A 1_555 1_555
Ag1A N2 1_555 1_555
O2A C2A 1_555 1_555
C1A C3A 1_555 1_555
O4A Eu1A 1_555 1_555
C2A C5A 1_555 1_555
C3A O4A 1_555 1_555
C4A C1A 1_555 1_555
H1A C4A 1_555 1_555
C5A C6A 1_555 1_555
C6A H2A 1_555 1_555
C8A C1A 1_555 1_555
H3A C8A 1_555 1_555
C9A C4A 1_555 1_555
H4A C9A 1_555 1_555
C10A C5A 1_555 1_555
H5A C10A 1_555 1_555
N1A C6A 1_555 1_555
C11A N1A 1_555 1_555
H6A C11A 1_555 1_555
C12A C10A 1_555 1_555
H7A C12A 1_555 1_555
O6A C2A 1_555 1_555
O7A C3A 1_555 1_555
N2A Ag1 1_555 1_555
C13A C8A 1_555 1_555
H8A C13A 1_555 1_555
Eu1A_2 O1 1_555 1_555
Eu1D O6 1_555 1_555
Eu1D_2 O8 1_555 1_555
Eu1E O6A 1_555 1_555
Ag1B N1 1_555 1_555
Ag1C N1A 1_555 1_555
Ag1D O5D 1_555 1_555
O1_2 Eu1A 1_555 1_555
O3A_2 Eu1A 1_555 1_555
O5A Eu1A 1_555 1_555
N1B Ag1 1_555 1_555
N1C Ag1A 1_555 1_555
O6D Eu1 1_555 1_555
O6E Eu1A 1_555 1_555
O7D Eu1 1_555 1_555
O7E Eu1A 1_555 1_555
O8E Eu1A 1_555 1_555
C11 C12 1_555 1_555
O7 Eu1D 1_555 1_555
N2 C13 1_555 1_555
O1A C7A 1_555 1_555
O3A Eu1A_2 1_555 1_555
O5D Eu1D_2 1_555 1_555
C14D O8D 1_555 1_555
Ag1A O5A 1_555 1_555
C9A N2A 1_555 1_555
C11A C12A 1_555 1_555
O7A Eu1E 1_555 1_555
N2A C13A 1_555 1_555

#END
