
#######################################################################
#
#                 Cambridge Crystallographic Data Centre
#                                CCDC 
#
#######################################################################
#
# If this CIF has been generated from an entry in the Cambridge 
# Structural Database, then it will include bibliographic, chemical, 
# crystal, experimental, refinement or atomic coordinate data resulting 
# from the CCDC's data processing and validation procedures.
#
#######################################################################

data_GOYXID
_chemical_formula_moiety         '(C28 H20 Ag2 Gd2 N4 O18)n'
_symmetry_cell_setting           monoclinic
_symmetry_space_group_name_H-M   'C 2/c'
_symmetry_Int_Tables_number      15
_space_group_name_Hall           '-C 2yc'
loop_
_symmetry_equiv_pos_site_id
_symmetry_equiv_pos_as_xyz
1 x,y,z
2 -x,y,1/2-z
3 1/2+x,1/2+y,z
4 1/2-x,1/2+y,1/2-z
5 -x,-y,-z
6 x,-y,1/2+z
7 1/2-x,1/2-y,-z
8 1/2+x,1/2-y,1/2+z
_cell_length_a                   22.130(4)
_cell_length_b                   9.5164(19)
_cell_length_c                   16.828(3)
_cell_angle_alpha                90
_cell_angle_beta                 97.086(2)
_cell_angle_gamma                90
_cell_volume                     3516.87
loop_
_atom_site_label
_atom_site_type_symbol
_atom_site_fract_x
_atom_site_fract_y
_atom_site_fract_z
Gd1 Gd 0.995462(13) 0.29997(3) 1.065676(18)
Ag1 Ag 0.84108(3) 0.12067(10) 0.91668(4)
C1 C 0.6929(4) 0.5783(12) 0.9515(6)
H1 H 0.6514 0.5977 0.9473
C2 C 1.0649(3) 0.2919(7) 0.8152(4)
O1 O 1.0598(2) 0.2715(5) 1.1929(3)
O2 O 1.0091(2) 0.2648(6) 0.9266(3)
C3 C 0.8811(3) 0.4919(7) 0.9756(4)
O3 O 0.9363(2) 0.0965(5) 1.0178(3)
O4 O 0.8973(2) 0.3762(5) 1.0056(3)
C4 C 1.0282(3) 0.3505(7) 0.8786(4)
C5 C 0.8148(3) 0.5242(7) 0.9636(4)
C6 C 1.0679(3) 0.1481(7) 0.8010(4)
H2 H 1.0500 0.0835 0.8323
C7 C 0.7758(3) 0.4513(8) 1.0076(5)
H3 H 0.7920 0.3809 1.0421
C8 C 0.7896(4) 0.6280(9) 0.9119(5)
H4 H 0.8141 0.6803 0.8817
C9 C 1.0955(3) 0.3813(8) 0.7705(4)
H5 H 1.0957 0.4775 0.7802
C10 C 0.7281(4) 0.6525(12) 0.9059(6)
H6 H 0.7105 0.7202 0.8705
C11 C 1.1262(4) 0.3263(9) 0.7103(5)
H7 H 1.1474 0.3877 0.6808
C12 C 1.0352(3) 0.2571(7) 1.2554(4)
C13 C 1.0985(4) 0.1051(8) 0.7381(5)
H8 H 1.0993 0.0096 0.7267
N1 N 1.1267(3) 0.1918(7) 0.6932(4)
N2 N 0.7159(3) 0.4778(8) 1.0025(4)
O5 O 0.9150(2) 0.5841(5) 0.9536(3)
O6 O 1.0203(2) 0.4800(5) 0.8778(3)
O7 O 1.0615(2) 0.2424(5) 1.3250(3)
O8 O 0.9425(2) -0.0911(5) 0.9406(3)
C14 C 0.9654(3) 0.0013(6) 0.9884(4)
O1A O 0.9402(2) 0.2715(5) 1.3071(3)
C12A C 0.9648(3) 0.2571(7) 1.2446(4)
O7A O 0.9385(2) 0.2424(5) 1.1750(3)
O3D O 1.0637(2) -0.0965(5) 0.9822(3)
O8D O 1.0575(2) 0.0911(5) 1.0594(3)
C14D C 1.0346(3) -0.0013(6) 1.0116(4)
Gd1A Gd 1.004538(13) 0.29997(3) 0.434324(18)
Ag1A Ag 1.15892(3) 0.12067(10) 0.58332(4)
C1A C 1.3071(4) 0.5783(12) 0.5485(6)
H1A H 1.3486 0.5977 0.5527
C2A C 0.9351(3) 0.2919(7) 0.6848(4)
O2A O 0.9909(2) 0.2648(6) 0.5734(3)
C3A C 1.1189(3) 0.4919(7) 0.5244(4)
O4A O 1.1027(2) 0.3762(5) 0.4944(3)
C4A C 0.9718(3) 0.3505(7) 0.6214(4)
C5A C 1.1852(3) 0.5242(7) 0.5364(4)
C6A C 0.9321(3) 0.1481(7) 0.6990(4)
H2A H 0.9500 0.0835 0.6677
C7A C 1.2242(3) 0.4513(8) 0.4924(5)
H3A H 1.2080 0.3809 0.4579
C8A C 1.2104(4) 0.6280(9) 0.5881(5)
H4A H 1.1859 0.6803 0.6183
C9A C 0.9045(3) 0.3813(8) 0.7295(4)
H5A H 0.9043 0.4775 0.7198
C10A C 1.2719(4) 0.6525(12) 0.5941(6)
H6A H 1.2895 0.7202 0.6295
C11A C 0.8738(4) 0.3263(9) 0.7897(5)
H7A H 0.8526 0.3877 0.8192
C13A C 0.9015(4) 0.1051(8) 0.7619(5)
H8A H 0.9007 0.0096 0.7733
N1A N 0.8733(3) 0.1918(7) 0.8068(4)
N2A N 1.2841(3) 0.4778(8) 0.4975(4)
O5A O 1.0850(2) 0.5841(5) 0.5464(3)
O6A O 0.9797(2) 0.4800(5) 0.6222(3)
Gd1A_2 Gd 1.004538(13) 0.29997(3) 1.434324(18)
Gd1D Gd 1.004538(13) -0.29997(3) 0.934324(18)
Gd1D_2 Gd 1.004538(13) 0.70003(3) 0.934324(18)
Gd1E Gd 0.995462(13) 0.70003(3) 0.565676(18)
Ag1D Ag 1.15892(3) -0.12067(10) 1.08332(4)
Ag1F Ag 0.65892(3) 0.37933(10) 1.08332(4)
Ag1G Ag 1.34108(3) 0.37933(10) 0.41668(4)
O1A_2 O 0.9402(2) 0.2715(5) 0.3071(3)
O3A O 1.0637(2) 0.0965(5) 0.4822(3)
N2F N 0.7841(3) 0.0222(8) 0.9975(4)
N2G N 1.2159(3) 0.0222(8) 0.5025(4)
O5D O 1.0850(2) 0.4159(5) 1.0464(3)
O5E O 0.9150(2) 0.4159(5) 0.4536(3)
O6D O 0.9797(2) 0.5200(5) 1.1222(3)
O6E O 1.0203(2) 0.5200(5) 0.3778(3)
O7_2 O 1.0615(2) 0.2424(5) 0.3250(3)
O8E O 0.9425(2) 0.0911(5) 0.4406(3)
O9 O 0.6942(5) 0.2461(18) 0.8131(10)
H9 H 0.6561 0.2452 0.8171
H10 H 0.7099 0.3240 0.8315
O10 O 0.7459(9) 0.447(3) 0.7104(16)
H11 H 0.7516 0.5337 0.7211
H12 H 0.7090 0.4429 0.7206
loop_
_geom_bond_atom_site_label_1
_geom_bond_atom_site_label_2
_geom_bond_site_symmetry_1
_geom_bond_site_symmetry_2
Gd1 O1 1_555 1_555
Ag1 O3 1_555 1_555
C1 H1 1_555 1_555
C2 C4 1_555 1_555
O1 C12 1_555 1_555
O2 Gd1 1_555 1_555
C3 O4 1_555 1_555
O3 Gd1 1_555 1_555
O4 Gd1 1_555 1_555
C4 O2 1_555 1_555
C5 C3 1_555 1_555
C6 C2 1_555 1_555
H2 C6 1_555 1_555
C7 C5 1_555 1_555
H3 C7 1_555 1_555
C8 C5 1_555 1_555
H4 C8 1_555 1_555
C9 C2 1_555 1_555
H5 C9 1_555 1_555
C10 C1 1_555 1_555
H6 C10 1_555 1_555
C11 C9 1_555 1_555
H7 C11 1_555 1_555
C12 O7 1_555 1_555
C13 C6 1_555 1_555
H8 C13 1_555 1_555
N1 C11 1_555 1_555
N2 C1 1_555 1_555
O5 C3 1_555 1_555
O6 C4 1_555 1_555
O7 Gd1A_2 1_555 1_555
O8 C14 1_555 1_555
C14 O3 1_555 1_555
O9 H9 1_555 1_555
H10 O9 1_555 1_555
O10 H11 1_555 1_555
H12 O10 1_555 1_555
O1A C12A 1_555 1_555
C12A C12 1_555 1_555
O7A Gd1 1_555 1_555
O3D C14D 1_555 1_555
O8D Gd1 1_555 1_555
C14D C14 1_555 1_555
Gd1A O2A 1_555 1_555
Ag1A N1 1_555 1_555
C1A H1A 1_555 1_555
C2A C4A 1_555 1_555
O2A C4A 1_555 1_555
C3A O4A 1_555 1_555
O4A Gd1A 1_555 1_555
C4A O6A 1_555 1_555
C5A C3A 1_555 1_555
C6A C2A 1_555 1_555
H2A C6A 1_555 1_555
C7A C5A 1_555 1_555
H3A C7A 1_555 1_555
C8A C5A 1_555 1_555
H4A C8A 1_555 1_555
C9A C2A 1_555 1_555
H5A C9A 1_555 1_555
C10A C1A 1_555 1_555
H6A C10A 1_555 1_555
C11A C9A 1_555 1_555
H7A C11A 1_555 1_555
C13A C6A 1_555 1_555
H8A C13A 1_555 1_555
N1A Ag1 1_555 1_555
N2A C1A 1_555 1_555
O5A C3A 1_555 1_555
O6A Gd1E 1_555 1_555
Gd1A_2 O1A 1_555 1_555
Gd1D O8 1_555 1_555
Gd1D_2 O5 1_555 1_555
Gd1E O5A 1_555 1_555
Ag1D O3D 1_555 1_555
Ag1F N2 1_555 1_555
Ag1G N2A 1_555 1_555
O1A_2 Gd1A 1_555 1_555
O3A Gd1A 1_555 1_555
N2F Ag1 1_555 1_555
N2G Ag1A 1_555 1_555
O5D Gd1 1_555 1_555
O5E Gd1A 1_555 1_555
O6D Gd1 1_555 1_555
O6E Gd1A 1_555 1_555
O7_2 Gd1A 1_555 1_555
O8E Gd1A 1_555 1_555
C7 N2 1_555 1_555
C8 C10 1_555 1_555
C13 N1 1_555 1_555
O6 Gd1D_2 1_555 1_555
C12A O7A 1_555 1_555
O3D Gd1D 1_555 1_555
O8D C14D 1_555 1_555
Ag1A O3A 1_555 1_555
C7A N2A 1_555 1_555
C8A C10A 1_555 1_555
C11A N1A 1_555 1_555
C13A N1A 1_555 1_555

#END
