
#######################################################################
#
#                 Cambridge Crystallographic Data Centre
#                                CCDC 
#
#######################################################################
#
# If this CIF has been generated from an entry in the Cambridge 
# Structural Database, then it will include bibliographic, chemical, 
# crystal, experimental, refinement or atomic coordinate data resulting 
# from the CCDC's data processing and validation procedures.
#
#######################################################################

data_GOYYIE
_chemical_formula_moiety         '(C28 H20 Ag2 N4 O18 Yb2)n'
_symmetry_cell_setting           monoclinic
_symmetry_space_group_name_H-M   'C 2/c'
_symmetry_Int_Tables_number      15
_space_group_name_Hall           '-C 2yc'
loop_
_symmetry_equiv_pos_site_id
_symmetry_equiv_pos_as_xyz
1 x,y,z
2 -x,y,1/2-z
3 1/2+x,1/2+y,z
4 1/2-x,1/2+y,1/2-z
5 -x,-y,-z
6 x,-y,1/2+z
7 1/2-x,1/2-y,-z
8 1/2+x,1/2-y,1/2+z
_cell_length_a                   22.090(10)
_cell_length_b                   9.378(4)
_cell_length_c                   16.508(7)
_cell_angle_alpha                90
_cell_angle_beta                 96.735(6)
_cell_angle_gamma                90
_cell_volume                     3396.2
loop_
_atom_site_label
_atom_site_type_symbol
_atom_site_fract_x
_atom_site_fract_y
_atom_site_fract_z
Yb1 Yb 0.504701(12) 0.29790(3) 0.434098(15)
O1 O 0.4817(2) 0.4859(5) 0.6240(3)
C1 C 0.3167(3) 0.4743(8) 0.4639(4)
C2 C 0.4357(3) 0.2960(8) 0.6837(4)
O2 O 0.4011(2) 0.6239(5) 0.5085(3)
O3 O 0.4192(2) 0.4102(5) 0.4551(3)
O4 O 0.4952(2) 0.2716(5) 0.5725(2)
C3 C 0.4738(3) 0.3560(6) 0.6212(4)
O5 O 0.4416(2) 0.0966(5) 0.4443(3)
C4 C 0.4326(4) 0.1484(8) 0.6997(5)
H1 H 0.4508 0.0825 0.6681
C5 C 0.3833(2) 0.5037(6) 0.4762(3)
C6 C 0.2766(3) 0.5512(8) 0.5054(4)
H2 H 0.2923 0.6250 0.5392
C7 C 0.1946(4) 0.4261(10) 0.4467(5)
H3 H 0.1527 0.4111 0.4387
N1 N 0.2171(3) 0.5259(8) 0.4999(4)
C8 C 0.2325(4) 0.3433(9) 0.4027(5)
H4 H 0.2157 0.2736 0.3667
C9 C 0.2929(4) 0.3652(9) 0.4127(5)
H5 H 0.3186 0.3081 0.3858
C10 C 0.3728(3) 0.3307(8) 0.7885(4)
H6 H 0.3499 0.3932 0.8163
N2 N 0.3727(3) 0.1928(7) 0.8076(4)
O6 O 0.4369(2) -0.0986(5) 0.5208(3)
C11 C 0.4662(3) -0.0006(7) 0.4900(4)
C12 C 0.4022(3) 0.1049(9) 0.7627(4)
H7 H 0.4021 0.0081 0.7750
O7 O 0.5613(2) 0.2424(5) 0.3258(3)
C13 C 0.4053(3) 0.3847(8) 0.7291(4)
H8 H 0.4063 0.4826 0.7203
O8 O 0.5594(2) 0.2672(5) 0.1907(3)
C14 C 0.5348(3) 0.2594(7) 0.2551(4)
Ag1 Ag 0.34098(3) -0.12523(9) 0.42075(4)
O5D O 0.5584(2) -0.0966(5) 0.5557(3)
O6D O 0.5631(2) 0.0986(5) 0.4792(3)
C11D C 0.5338(3) 0.0006(7) 0.5100(4)
O7A O 0.4387(2) 0.2424(5) 0.1742(3)
O8A O 0.4406(2) 0.2672(5) 0.3093(3)
C14A C 0.4652(3) 0.2594(7) 0.2449(4)
Yb1A Yb 0.495299(12) 0.29790(3) 0.065902(15)
O1A O 0.5183(2) 0.4859(5) -0.1240(3)
C1A C 0.6833(3) 0.4743(8) 0.0361(4)
C2A C 0.5643(3) 0.2960(8) -0.1837(4)
O2A O 0.5989(2) 0.6239(5) -0.0085(3)
O3A O 0.5808(2) 0.4102(5) 0.0449(3)
O4A O 0.5048(2) 0.2716(5) -0.0725(2)
C3A C 0.5262(3) 0.3560(6) -0.1212(4)
C4A C 0.5674(4) 0.1484(8) -0.1997(5)
H1A H 0.5492 0.0825 -0.1681
C5A C 0.6167(2) 0.5037(6) 0.0238(3)
C6A C 0.7234(3) 0.5512(8) -0.0054(4)
H2A H 0.7077 0.6250 -0.0392
C7A C 0.8054(4) 0.4261(10) 0.0533(5)
H3A H 0.8473 0.4111 0.0613
N1A N 0.7829(3) 0.5259(8) 0.0001(4)
C8A C 0.7675(4) 0.3433(9) 0.0973(5)
H4A H 0.7843 0.2736 0.1333
C9A C 0.7071(4) 0.3652(9) 0.0873(5)
H5A H 0.6814 0.3081 0.1142
C10A C 0.6272(3) 0.3307(8) -0.2885(4)
H6A H 0.6501 0.3932 -0.3163
N2A N 0.6273(3) 0.1928(7) -0.3076(4)
C12A C 0.5978(3) 0.1049(9) -0.2627(4)
H7A H 0.5979 0.0081 -0.2750
C13A C 0.5947(3) 0.3847(8) -0.2291(4)
H8A H 0.5937 0.4826 -0.2203
Ag1F Ag 0.15902(3) 0.62523(9) 0.57925(4)
Yb1D Yb 0.495299(12) -0.29790(3) 0.565902(15)
Yb1D_2 Yb 0.495299(12) 0.70210(3) 0.565902(15)
Yb1E Yb 0.504701(12) 0.70210(3) -0.065902(15)
O1D O 0.5183(2) 0.5141(5) 0.3760(3)
O1E O 0.4817(2) 0.5141(5) 0.1240(3)
O2D O 0.5989(2) 0.3761(5) 0.4915(3)
O2E O 0.4011(2) 0.3761(5) 0.0085(3)
O5A O 0.5584(2) 0.0966(5) 0.0557(3)
N1F N 0.2829(3) -0.0259(8) 0.5001(4)
N2C N 0.1273(3) 0.6928(7) 0.6924(4)
N2E N 0.3727(3) -0.1928(7) 0.3076(4)
O6E O 0.4369(2) 0.0986(5) 0.0208(3)
O6F O 0.0631(2) 0.5986(5) 0.4792(3)
Ag1D Ag 0.65902(3) 0.12523(9) -0.42075(4)
Ag1D_2 Ag 0.65902(3) 0.12523(9) 0.57925(4)
Ag1E Ag 0.34098(3) 0.12523(9) 0.92075(4)
Ag1G Ag 0.84098(3) 0.62523(9) -0.07925(4)
O9 O 0.30641(17) 0.2563(5) 0.1902(7)
H9 H 0.3314 0.1881 0.2009
H10 H 0.2713 0.2168 0.1849
O10 O 0.25558(19) 0.0567(6) 0.2891(10)
H11 H 0.2924 0.0832 0.2978
H12 H 0.2438 -0.0281 0.2790
loop_
_geom_bond_atom_site_label_1
_geom_bond_atom_site_label_2
_geom_bond_site_symmetry_1
_geom_bond_site_symmetry_2
Yb1 O3 1_555 1_555
O1 C3 1_555 1_555
C1 C5 1_555 1_555
C2 C3 1_555 1_555
O2 C5 1_555 1_555
O3 C5 1_555 1_555
O4 Yb1 1_555 1_555
C3 O4 1_555 1_555
O5 Yb1 1_555 1_555
C4 C2 1_555 1_555
H1 C4 1_555 1_555
C6 C1 1_555 1_555
H2 C6 1_555 1_555
C7 H3 1_555 1_555
N1 C6 1_555 1_555
C8 C7 1_555 1_555
H4 C8 1_555 1_555
C9 C1 1_555 1_555
H5 C9 1_555 1_555
C10 H6 1_555 1_555
N2 C10 1_555 1_555
O6 C11 1_555 1_555
C11 O5 1_555 1_555
C12 C4 1_555 1_555
H7 C12 1_555 1_555
O7 Yb1 1_555 1_555
C13 C2 1_555 1_555
H8 C13 1_555 1_555
O8 C14 1_555 1_555
C14 O7 1_555 1_555
Ag1 O6 1_555 1_555
O9 H9 1_555 1_555
H10 O9 1_555 1_555
O10 H11 1_555 1_555
H12 O10 1_555 1_555
O5D C11D 1_555 1_555
O6D Yb1 1_555 1_555
C11D C11 1_555 1_555
O7A C14A 1_555 1_555
O8A Yb1 1_555 1_555
C14A C14 1_555 1_555
Yb1A O8 1_555 1_555
O1A C3A 1_555 1_555
C1A C5A 1_555 1_555
C2A C3A 1_555 1_555
O2A C5A 1_555 1_555
O3A Yb1A 1_555 1_555
O4A Yb1A 1_555 1_555
C3A O4A 1_555 1_555
C4A C2A 1_555 1_555
H1A C4A 1_555 1_555
C5A O3A 1_555 1_555
C6A C1A 1_555 1_555
H2A C6A 1_555 1_555
C7A H3A 1_555 1_555
N1A C6A 1_555 1_555
C8A C7A 1_555 1_555
H4A C8A 1_555 1_555
C9A C1A 1_555 1_555
H5A C9A 1_555 1_555
C10A H6A 1_555 1_555
N2A C10A 1_555 1_555
C12A C4A 1_555 1_555
H7A C12A 1_555 1_555
C13A C2A 1_555 1_555
H8A C13A 1_555 1_555
Ag1F N1 1_555 1_555
Yb1D O6 1_555 1_555
Yb1D_2 O1 1_555 1_555
Yb1E O1A 1_555 1_555
O1D Yb1 1_555 1_555
O1E Yb1A 1_555 1_555
O2D Yb1 1_555 1_555
O2E Yb1A 1_555 1_555
O5A Yb1A 1_555 1_555
N1F Ag1 1_555 1_555
N2C Ag1F 1_555 1_555
N2E Ag1 1_555 1_555
O6E Yb1A 1_555 1_555
O6F Ag1F 1_555 1_555
Ag1D N2A 1_555 1_555
Ag1D_2 O6D 1_555 1_555
Ag1E N2 1_555 1_555
Ag1G N1A 1_555 1_555
O2 Yb1D_2 1_555 1_555
C7 N1 1_555 1_555
C8 C9 1_555 1_555
C10 C13 1_555 1_555
N2 C12 1_555 1_555
O5D Yb1D 1_555 1_555
O6D C11D 1_555 1_555
O7A Yb1A 1_555 1_555
O8A C14A 1_555 1_555
O2A Yb1E 1_555 1_555
C7A N1A 1_555 1_555
C8A C9A 1_555 1_555
C10A C13A 1_555 1_555
N2A C12A 1_555 1_555

#END
