
#######################################################################
#
#                 Cambridge Crystallographic Data Centre
#                                CCDC 
#
#######################################################################
#
# If this CIF has been generated from an entry in the Cambridge 
# Structural Database, then it will include bibliographic, chemical, 
# crystal, experimental, refinement or atomic coordinate data resulting 
# from the CCDC's data processing and validation procedures.
#
#######################################################################

data_QUQHAM
_chemical_formula_moiety         '(C12 H10 Cu3 N2 O10)n'
_symmetry_cell_setting           monoclinic
_symmetry_space_group_name_H-M   'C 2/c'
_symmetry_Int_Tables_number      15
_space_group_name_Hall           '-C 2yc'
loop_
_symmetry_equiv_pos_site_id
_symmetry_equiv_pos_as_xyz
1 x,y,z
2 -x,y,1/2-z
3 1/2+x,1/2+y,z
4 1/2-x,1/2+y,1/2-z
5 -x,-y,-z
6 x,-y,1/2+z
7 1/2-x,1/2-y,-z
8 1/2+x,1/2-y,1/2+z
_cell_length_a                   16.892(3)
_cell_length_b                   15.722(2)
_cell_length_c                   5.8595(9)
_cell_angle_alpha                90
_cell_angle_beta                 106.112(2)
_cell_angle_gamma                90
_cell_volume                     1495.02
loop_
_atom_site_label
_atom_site_type_symbol
_atom_site_fract_x
_atom_site_fract_y
_atom_site_fract_z
Cu1 Cu 0.13453(2) 0.12560(2) 0.14849(6)
Cu2 Cu -0.0000 -0.00878(3) 0.2500
O1 O 0.07976(13) 0.01275(13) 0.0668(3)
H1 H 0.1168 -0.0217 0.0725
O2 O -0.0000 0.15642(19) 0.2500
H2 H -0.0201 0.1900 0.1404
O3 O -0.09019(14) -0.15689(14) 0.1771(4)
O4 O -0.06895(15) -0.27203(15) 0.4061(4)
O5 O -0.30685(14) -0.40935(14) -0.5470(4)
N1 N -0.18121(15) -0.24148(16) -0.1964(4)
C1 C -0.0978(2) -0.2362(2) 0.2134(5)
C2 C -0.1489(2) -0.2861(2) 0.0047(5)
C3 C -0.1637(2) -0.3720(2) 0.0207(6)
H3 H -0.1391 -0.4024 0.1582
C4 C -0.2156(2) -0.4108(2) -0.1726(6)
H4 H -0.2261 -0.4687 -0.1660
C5 C -0.2536(2) -0.3654(2) -0.3803(6)
C6 C -0.23341(19) -0.27748(19) -0.3942(5)
Cu1A Cu -0.13453(2) 0.12560(2) 0.35151(6)
Cu1D Cu -0.13453(2) -0.12560(2) -0.14849(6)
Cu1B Cu -0.36547(2) -0.37440(2) -0.85151(6)
Cu2D Cu 0.0000 0.00878(3) -0.2500
Cu2F Cu -0.5000 -0.49122(3) -1.2500
Cu2D_2 Cu 0.0000 0.00878(3) 0.7500
O1A O -0.07976(13) 0.01275(13) 0.4332(3)
O1D O -0.07976(13) -0.01275(13) -0.0668(3)
O1E O 0.07976(13) -0.01275(13) 0.5668(3)
H1A H -0.1168 -0.0217 0.4275
H1D H -0.1168 0.0217 -0.0725
H1E H 0.1168 0.0217 0.5725
H2A H 0.0201 0.1900 0.3596
O3F O -0.40981(14) -0.34311(14) -1.1771(4)
O3D O 0.09019(14) 0.15689(14) -0.1771(4)
O3A O 0.09019(14) -0.15689(14) 0.3229(4)
O3E O -0.09019(14) 0.15689(14) 0.6771(4)
O4F O -0.43105(15) -0.22797(15) -1.4061(4)
O5F O -0.19315(14) -0.09065(14) -0.4530(4)
O5B O 0.19315(14) 0.09065(14) 0.4530(4)
O5C O -0.19315(14) 0.09065(14) 0.0470(4)
N1F N -0.31879(15) -0.25852(16) -0.8036(4)
N1D N 0.18121(15) 0.24148(16) 0.1964(4)
N1E N -0.18121(15) 0.24148(16) 0.3036(4)
C1F C -0.4022(2) -0.2638(2) -1.2134(5)
C2F C -0.3511(2) -0.2139(2) -1.0047(5)
C3F C -0.3363(2) -0.1280(2) -1.0207(6)
H3F H -0.3609 -0.0976 -1.1582
C4F C -0.2844(2) -0.0892(2) -0.8274(6)
H4F H -0.2739 -0.0313 -0.8340
C5F C -0.2464(2) -0.1346(2) -0.6197(6)
C6F C -0.26659(19) -0.22252(19) -0.6058(5)
O6 O 0.4580(6) 0.0476(5) 0.5603(18)
H5 H 0.4920 0.0466 0.6942
H6 H 0.4816 0.0515 0.4546
loop_
_geom_bond_atom_site_label_1
_geom_bond_atom_site_label_2
_geom_bond_site_symmetry_1
_geom_bond_site_symmetry_2
Cu1 O1 1_555 1_555
Cu2 O1 1_555 1_555
O1 H1 1_555 1_555
O2 Cu1 1_555 1_555
H2 O2 1_555 1_555
O3 Cu2 1_555 1_555
O4 C1 1_555 1_555
O5 C5 1_555 1_555
N1 C2 1_555 1_555
C1 O3 1_555 1_555
C2 C1 1_555 1_555
C3 C2 1_555 1_555
H3 C3 1_555 1_555
C4 C3 1_555 1_555
H4 C4 1_555 1_555
C5 C4 1_555 1_555
C6 N1 1_555 1_555
O6 H5 1_555 1_555
H6 O6 1_555 1_555
Cu1A O2 1_555 1_555
Cu1D O3 1_555 1_555
Cu1B O5 1_555 1_555
Cu2D O1 1_555 1_555
Cu2F O3F 1_555 1_555
Cu2D_2 O1A 1_555 1_555
O1A Cu2 1_555 1_555
O1D Cu2 1_555 1_555
O1E Cu2 1_555 1_555
H1A O1A 1_555 1_555
H1D O1D 1_555 1_555
H1E O1E 1_555 1_555
H2A O2 1_555 1_555
O3F Cu1B 1_555 1_555
O3D Cu1 1_555 1_555
O3A Cu2 1_555 1_555
O3E Cu1A 1_555 1_555
O4F C1F 1_555 1_555
O5F Cu1D 1_555 1_555
O5B Cu1 1_555 1_555
O5C Cu1A 1_555 1_555
N1F Cu1B 1_555 1_555
N1D Cu1 1_555 1_555
N1E Cu1A 1_555 1_555
C1F O3F 1_555 1_555
C2F N1F 1_555 1_555
C3F C2F 1_555 1_555
H3F C3F 1_555 1_555
C4F C3F 1_555 1_555
H4F C4F 1_555 1_555
C5F O5F 1_555 1_555
C6F C6 1_555 1_555
Cu2 O2 1_555 1_555
N1 Cu1D 1_555 1_555
C5 C6 1_555 1_555
Cu1A O1A 1_555 1_555
Cu1D O1D 1_555 1_555
Cu2D O1D 1_555 1_555
Cu2D O3D 1_555 1_555
Cu2D_2 O1E 1_555 1_555
Cu2D_2 O3E 1_555 1_555
N1F C6F 1_555 1_555
C1F C2F 1_555 1_555
C4F C5F 1_555 1_555
C5F C6F 1_555 1_555

#END
