
#######################################################################
#
#                 Cambridge Crystallographic Data Centre
#                                CCDC 
#
#######################################################################
#
# If this CIF has been generated from an entry in the Cambridge 
# Structural Database, then it will include bibliographic, chemical, 
# crystal, experimental, refinement or atomic coordinate data resulting 
# from the CCDC's data processing and validation procedures.
#
#######################################################################

data_IMIDZB08
_chemical_formula_moiety         '(C12 H12 N8 Zn2)n'
_symmetry_cell_setting           tetragonal
_symmetry_space_group_name_H-M   'I 41 c d'
_symmetry_Int_Tables_number      110
_space_group_name_Hall           'I 4bw -2c'
loop_
_symmetry_equiv_pos_site_id
_symmetry_equiv_pos_as_xyz
1 x,y,z
2 1/2-x,1/2-y,1/2+z
3 -y,1/2+x,1/4+z
4 1/2+y,-x,3/4+z
5 x,-y,1/2+z
6 1/2-x,1/2+y,z
7 -y,1/2-x,3/4+z
8 1/2+y,x,1/4+z
9 1/2+x,1/2+y,1/2+z
10 -x,-y,z
11 1/2-y,x,3/4+z
12 y,1/2-x,1/4+z
13 1/2+x,1/2-y,z
14 -x,y,1/2+z
15 1/2-y,-x,1/4+z
16 y,1/2+x,3/4+z
_cell_length_a                   23.4911(6)
_cell_length_b                   23.4911(6)
_cell_length_c                   12.4570(6)
_cell_angle_alpha                90
_cell_angle_beta                 90
_cell_angle_gamma                90
_cell_volume                     6874.17
loop_
_atom_site_label
_atom_site_type_symbol
_atom_site_fract_x
_atom_site_fract_y
_atom_site_fract_z
Zn1 Zn 0.096287(10) 0.148127(11) 0.940014(19)
Zn2 Zn 0.149790(12) -0.100910(11) 0.895010(18)
N1 N 0.01376(8) 0.15092(8) 0.9721(2)
N2 N 0.13818(10) 0.15294(10) 1.0779(2)
N3 N 0.11712(10) 0.07320(10) 0.8740(2)
N4 N 0.12215(8) 0.20694(8) 0.83733(18)
N5 N 0.14119(10) -0.01833(10) 0.8640(2)
N6 N 0.12345(9) 0.28216(8) 0.72839(18)
N7 N -0.07809(9) 0.12833(9) 0.9628(2)
N8 N 0.15900(11) 0.13555(10) 1.2495(2)
C1 C 0.09347(9) 0.25186(12) 0.7991(2)
H1 H 0.0565 0.2610 0.8198
C2 C 0.17397(10) 0.20938(12) 0.7867(2)
H2 H 0.2038 0.1839 0.7965
C3 C 0.17466(10) 0.25459(11) 0.7206(2)
H3 H 0.2049 0.2654 0.6768
C4 C -0.02597(10) 0.12049(12) 0.9232(3)
H4 H -0.0182 0.0959 0.8665
C5 C -0.07078(12) 0.16585(12) 1.0455(2)
H5 H -0.0992 0.1795 1.0907
C6 C -0.01499(12) 0.17963(12) 1.0502(2)
H6 H 0.0013 0.2048 1.0990
C7 C 0.12234(11) 0.02412(14) 0.9242(3)
H7 H 0.1135 0.0196 0.9965
C8 C 0.1352(2) 0.06180(16) 0.7729(3)
H8 H 0.1371 0.0880 0.7171
C9 C 0.14996(16) 0.00633(19) 0.7661(3)
H9 H 0.1638 -0.0119 0.7052
C10 C 0.11869(11) 0.14130(12) 1.1755(3)
H10 H 0.0801 0.1375 1.1908
C11 C 0.19578(13) 0.1543(2) 1.0905(3)
H11 H 0.2222 0.1614 1.0367
C12 C 0.20796(17) 0.14352(13) 1.1943(3)
H12 H 0.2444 0.1418 1.2234
Zn2F Zn 0.100910(11) 0.350210(12) 0.645010(18)
Zn2I Zn -0.149790(12) 0.100910(11) 0.895010(18)
Zn2D Zn 0.149790(12) 0.100910(11) 1.395010(18)
N6N N 0.21784(8) -0.12345(9) 0.97839(18)
N7I N 0.07809(9) -0.12833(9) 0.9628(2)
N8D N 0.15900(11) -0.13555(10) 0.7495(2)
loop_
_geom_bond_atom_site_label_1
_geom_bond_atom_site_label_2
_geom_bond_site_symmetry_1
_geom_bond_site_symmetry_2
Zn1 N1 1_555 1_555
Zn2 N5 1_555 1_555
N1 C4 1_555 1_555
N2 Zn1 1_555 1_555
N3 Zn1 1_555 1_555
N4 Zn1 1_555 1_555
N5 C7 1_555 1_555
N6 C1 1_555 1_555
N7 C4 1_555 1_555
N8 C10 1_555 1_555
C1 N4 1_555 1_555
H1 C1 1_555 1_555
C2 N4 1_555 1_555
H2 C2 1_555 1_555
C3 N6 1_555 1_555
H3 C3 1_555 1_555
C4 H4 1_555 1_555
C5 N7 1_555 1_555
H5 C5 1_555 1_555
C6 N1 1_555 1_555
H6 C6 1_555 1_555
C7 N3 1_555 1_555
H7 C7 1_555 1_555
C8 N3 1_555 1_555
H8 C8 1_555 1_555
C9 N5 1_555 1_555
H9 C9 1_555 1_555
C10 N2 1_555 1_555
H10 C10 1_555 1_555
C11 N2 1_555 1_555
H11 C11 1_555 1_555
C12 N8 1_555 1_555
H12 C12 1_555 1_555
Zn2F N6 1_555 1_555
Zn2I N7 1_555 1_555
Zn2D N8 1_555 1_555
N6N Zn2 1_555 1_555
N7I Zn2 1_555 1_555
N8D Zn2 1_555 1_555
C2 C3 1_555 1_555
C5 C6 1_555 1_555
C8 C9 1_555 1_555
C11 C12 1_555 1_555

#END
