
#######################################################################
#
#                 Cambridge Crystallographic Data Centre
#                                CCDC 
#
#######################################################################
#
# If this CIF has been generated from an entry in the Cambridge 
# Structural Database, then it will include bibliographic, chemical, 
# crystal, experimental, refinement or atomic coordinate data resulting 
# from the CCDC's data processing and validation procedures.
#
#######################################################################

data_MALWOM
_chemical_formula_moiety         '(C5 H17 N2 O12 P3 Zn2)n'
_symmetry_cell_setting           orthorhombic
_symmetry_space_group_name_H-M   'P 21 21 21'
_symmetry_Int_Tables_number      19
_space_group_name_Hall           'P 2ac 2ab'
loop_
_symmetry_equiv_pos_site_id
_symmetry_equiv_pos_as_xyz
1 x,y,z
2 1/2+x,1/2-y,-z
3 -x,1/2+y,1/2-z
4 1/2-x,-y,1/2+z
_cell_length_a                   10.0517(2)
_cell_length_b                   10.4293(2)
_cell_length_c                   14.9050(3)
_cell_angle_alpha                90
_cell_angle_beta                 90
_cell_angle_gamma                90
_cell_volume                     1562.52
loop_
_atom_site_label
_atom_site_type_symbol
_atom_site_fract_x
_atom_site_fract_y
_atom_site_fract_z
_atom_site_U_iso_or_equiv
_atom_site_thermal_displace_type
Zn1 Zn 0.86651(4) -0.19428(3) 0.67659(2) 0.0163 Uani
Zn2 Zn 0.62939(4) 0.14276(3) 0.76325(2) 0.0194 Uani
P1 P 0.59850(7) -0.15920(7) 0.77818(5) 0.0169 Uani
P2 P 0.93664(8) 0.10943(7) 0.70409(5) 0.0172 Uani
P3 P 0.92528(8) -0.14857(8) 0.46899(5) 0.0198 Uani
O1 O 0.8844(3) -0.2291(2) 0.54962(15) 0.0271 Uani
O2 O 0.6786(2) -0.2204(3) 0.70245(17) 0.0301 Uani
O3 O 0.9411(2) -0.0353(2) 0.72007(16) 0.0243 Uani
O4 O 1.0341(3) 0.1714(3) 0.76572(19) 0.0435 Uani
O5 O 0.5535(3) -0.0256(2) 0.75495(19) 0.0341 Uani
O6 O 0.8001(3) 0.1633(3) 0.7084(3) 0.0542 Uani
O7 O 0.8593(3) -0.2015(2) 0.38640(14) 0.0280 Uani
O8 O 0.4825(3) -0.2424(3) 0.80479(16) 0.0291 Uani
O9 O 0.6963(2) -0.1510(2) 0.86162(17) 0.0276 Uani
O10 O 0.9885(3) 0.1388(2) 0.60599(16) 0.0262 Uani
O11 O 0.9010(3) -0.0069(2) 0.48404(16) 0.0320 Uani
O12 O 1.0814(3) -0.1670(3) 0.4569(2) 0.0408 Uani
H1 H 0.658(5) -0.092(4) 0.908(3) 0.0500 Uiso
H2 H 0.943(5) 0.083(4) 0.561(3) 0.0500 Uiso
H3 H 1.106(5) -0.213(4) 0.401(2) 0.0500 Uiso
Zn1B Zn 1.13349(4) 0.30572(3) 0.82341(2) 0.0163 Uani
Zn2C Zn 0.87061(4) -0.14276(3) 0.26325(2) 0.0194 Uani
Zn2B Zn 0.37061(4) -0.35724(3) 0.73675(2) 0.0194 Uani
O4B O 0.9659(3) -0.3286(3) 0.73428(19) 0.0435 Uani
O7C O 0.6407(3) 0.2015(2) 0.88640(14) 0.0280 Uani
O8B O 0.5175(3) 0.2576(3) 0.69521(16) 0.0291 Uani
N1 N 0.3296(3) -0.0179(3) 0.5438(2) 0.0248 Uani
N2 N 0.4635(4) 0.0873(3) 0.3889(2) 0.0362 Uani
C1 C 0.4755(4) 0.0122(4) 0.5464(2) 0.0301 Uani
C2 C 0.5358(4) 0.0036(4) 0.4534(3) 0.0321 Uani
C3 C 0.3185(5) 0.0613(4) 0.3880(3) 0.0352 Uani
C4 C 0.2603(4) 0.0733(4) 0.4815(3) 0.0317 Uani
C5 C 0.2701(4) -0.0128(4) 0.6361(3) 0.0363 Uani
H4 H 0.5212 -0.0504 0.5867 0.0361 Uiso
H5 H 0.4883 0.1010 0.5701 0.0361 Uiso
H6 H 0.3175 -0.1072 0.5207 0.0298 Uiso
H7 H 0.6309 0.0312 0.4563 0.0386 Uiso
H8 H 0.5308 -0.0872 0.4321 0.0386 Uiso
H9 H 0.4782 0.1789 0.4061 0.0436 Uiso
H10 H 0.4998 0.0721 0.3273 0.0436 Uiso
H11 H 0.3028 -0.0276 0.3652 0.0421 Uiso
H12 H 0.2738 0.1244 0.3475 0.0421 Uiso
H13 H 0.2725 0.1630 0.5036 0.0382 Uiso
H14 H 0.1633 0.0523 0.4795 0.0382 Uiso
H15 H 0.1730 -0.0331 0.6326 0.0436 Uiso
H16 H 0.3155 -0.0769 0.6755 0.0436 Uiso
H17 H 0.2823 0.0751 0.6617 0.0436 Uiso
loop_
_atom_site_aniso_label
_atom_site_aniso_U_11
_atom_site_aniso_U_22
_atom_site_aniso_U_33
_atom_site_aniso_U_23
_atom_site_aniso_U_13
_atom_site_aniso_U_12
Zn1 0.01964(15) 0.01249(14) 0.01682(16) 0.00000(11) -0.00148(14) 0.00025(14)
Zn2 0.02370(17) 0.01637(15) 0.01824(16) 0.00207(12) 0.00230(14) 0.00323(15)
P1 0.0185(3) 0.0144(3) 0.0178(3) -0.0019(3) -0.0011(3) -0.0038(3)
P2 0.0197(4) 0.0134(3) 0.0184(3) -0.0003(3) 0.0008(3) -0.0006(3)
P3 0.0265(4) 0.0186(4) 0.0144(3) -0.0003(3) 0.0008(3) -0.0015(3)
O1 0.0434(14) 0.021(1) 0.017(1) 0.0036(9) 0.001(1) -0.001(1)
O2 0.0246(11) 0.0397(14) 0.0260(12) -0.0151(11) 0.004(1) -0.008(1)
O3 0.0344(12) 0.012(1) 0.0266(12) 0.0003(9) -0.007(1) -0.0032(9)
O4 0.071 0.0273 0.0321 -0.0009 -0.0158 -0.0244
O5 0.0452(15) 0.0163(11) 0.0408(15) 0.001(1) -0.0149(12) 0.001(1)
O6 0.0347(15) 0.058(2) 0.070(2) 0.0309(18) 0.0253(15) 0.0227(14)
O7 0.0390(13) 0.0279(11) 0.017(1) -0.0001(9) -0.002(1) -0.0074(12)
O8 0.0305(12) 0.0324(13) 0.0243(12) -0.006(1) 0.005(1) -0.0142(11)
O9 0.0276(12) 0.0262(12) 0.0290(12) -0.008(1) -0.009(1) 0.005(1)
O10 0.0354(13) 0.0223(11) 0.0208(11) 0.001(1) 0.005(1) -0.005(1)
O11 0.0551(18) 0.0195(11) 0.0215(11) -0.0018(9) -0.0057(11) 0.0050(11)
O12 0.0262(12) 0.0578(19) 0.0385(15) -0.0136(14) 0.0046(11) -0.0027(12)
Zn1B 0.01964 0.01249 0.01682 0 -0.00148 -0.00025
Zn2C 0.0237 0.01637 0.01824 -0.00207 -0.0023 0.00323
Zn2B 0.0237 0.01637 0.01824 -0.00207 0.0023 -0.00323
O4B 0.071 0.0273 0.0321 0.0009 -0.0158 0.0244
O7C 0.039 0.0279 0.017 0.0001 0.002 -0.0074
O8B 0.0305 0.0324 0.0243 0.006 0.005 0.0142
N1 0.0285(14) 0.0208(13) 0.0251(14) 0.0020(11) 0.0036(11) 0.0007(11)
N2 0.060(2) 0.0207(14) 0.0280(16) -0.0003(13) 0.0146(15) -0.0022(14)
C1 0.0298(17) 0.0329(19) 0.0276(17) -0.0023(15) 0.0018(14) -0.0040(15)
C2 0.0323(18) 0.0310(18) 0.0331(18) -0.0035(16) 0.0106(15) -0.0053(15)
C3 0.052(2) 0.0290(18) 0.0245(17) 0.0002(15) 0.0015(16) 0.0055(17)
C4 0.0345(19) 0.0266(19) 0.034(2) 0.0001(15) 0.0014(16) 0.0067(15)
C5 0.038(2) 0.038(2) 0.033(2) 0.0011(17) 0.0133(16) 0.0048(17)
loop_
_geom_bond_atom_site_label_1
_geom_bond_atom_site_label_2
_geom_bond_site_symmetry_1
_geom_bond_site_symmetry_2
Zn1 O1 1_555 1_555
Zn2 O5 1_555 1_555
P1 O2 1_555 1_555
P2 O3 1_555 1_555
P3 O1 1_555 1_555
O2 Zn1 1_555 1_555
O3 Zn1 1_555 1_555
O4 P2 1_555 1_555
O5 P1 1_555 1_555
O6 Zn2 1_555 1_555
O7 P3 1_555 1_555
O8 P1 1_555 1_555
O9 P1 1_555 1_555
O10 P2 1_555 1_555
O11 P3 1_555 1_555
O12 P3 1_555 1_555
N1 C1 1_555 1_555
N2 C2 1_555 1_555
C1 C2 1_555 1_555
C2 H7 1_555 1_555
C3 N2 1_555 1_555
C4 N1 1_555 1_555
C5 N1 1_555 1_555
H1 O9 1_555 1_555
H2 O10 1_555 1_555
H3 O12 1_555 1_555
H4 C1 1_555 1_555
H5 C1 1_555 1_555
H6 N1 1_555 1_555
H8 C2 1_555 1_555
H9 N2 1_555 1_555
H10 N2 1_555 1_555
H11 C3 1_555 1_555
H12 C3 1_555 1_555
H13 C4 1_555 1_555
H14 C4 1_555 1_555
H15 C5 1_555 1_555
H16 C5 1_555 1_555
H17 C5 1_555 1_555
Zn1B O4 1_555 1_555
Zn2C O7 1_555 1_555
Zn2B O8 1_555 1_555
O4B Zn1 1_555 1_555
O7C Zn2 1_555 1_555
O8B Zn2 1_555 1_555
P2 O6 1_555 1_555
C3 C4 1_555 1_555

#END
