
#######################################################################
#
#                 Cambridge Crystallographic Data Centre
#                                CCDC 
#
#######################################################################
#
# If this CIF has been generated from an entry in the Cambridge 
# Structural Database, then it will include bibliographic, chemical, 
# crystal, experimental, refinement or atomic coordinate data resulting 
# from the CCDC's data processing and validation procedures.
#
#######################################################################

data_OSIWUJ
_chemical_formula_moiety         '(C16 H28 Ag4 N12 O2)n'
_symmetry_cell_setting           monoclinic
_symmetry_space_group_name_H-M   'C 2/c'
_symmetry_Int_Tables_number      15
_space_group_name_Hall           '-C 2yc'
loop_
_symmetry_equiv_pos_site_id
_symmetry_equiv_pos_as_xyz
1 x,y,z
2 -x,y,1/2-z
3 1/2+x,1/2+y,z
4 1/2-x,1/2+y,1/2-z
5 -x,-y,-z
6 x,-y,1/2+z
7 1/2-x,1/2-y,-z
8 1/2+x,1/2-y,1/2+z
_cell_length_a                   13.1876(10)
_cell_length_b                   21.3132(15)
_cell_length_c                   11.7034(8)
_cell_angle_alpha                90
_cell_angle_beta                 122.8280(10)
_cell_angle_gamma                90
_cell_volume                     2764.15
loop_
_atom_site_label
_atom_site_type_symbol
_atom_site_fract_x
_atom_site_fract_y
_atom_site_fract_z
O1 O 0.488(6) 0.5185(8) 0.782(15)
H13 H 0.4765 0.5509 0.7216
H14 H 0.5092 0.4881 0.7528
O1A O 0.512(6) 0.5185(8) 0.718(15)
H13A H 0.5235 0.5509 0.7784
H14A H 0.4908 0.4881 0.7472
Ag1 Ag 1.57684(3) 0.198549(15) 1.18236(3)
Ag2 Ag 1.64860(3) 0.062780(14) 1.44269(3)
N1 N 1.6156(3) 0.09516(14) 1.1632(3)
N2 N 1.6484(3) 0.04816(15) 1.2579(3)
N3 N 1.6560(3) 0.00969(15) 1.0862(3)
N4 N 1.3916(3) 0.20580(15) 1.0019(3)
N5 N 1.3142(3) 0.15593(15) 0.9487(3)
N6 N 1.2231(3) 0.23915(15) 0.8181(3)
C1 C 1.6212(4) 0.06993(17) 1.0635(4)
C2 C 1.6701(4) -0.00100(19) 1.2065(4)
H1 H 1.6932 -0.0397 1.2500
C3 C 1.5909(5) 0.1054(2) 0.9382(4)
H2 H 1.5204 0.1312 0.9096
H3 H 1.5698 0.0755 0.8660
C4 C 1.6886(7) 0.1457(4) 0.9557(7)
H4 H 1.6627 0.1668 0.8716
H5 H 1.7086 0.1763 1.0252
H6 H 1.7582 0.1206 0.9818
C5 C 1.3347(4) 0.25450(18) 0.9218(4)
C6 C 1.2165(4) 0.1775(2) 0.8410(4)
H7 H 1.1488 0.1529 0.7854
C7 C 1.3904(4) 0.3182(2) 0.9422(5)
H8 H 1.3275 0.3498 0.9068
H9 H 1.4453 0.3258 1.0388
C8 C 1.4569(9) 0.3245(4) 0.8742(11)
H10 H 1.4931 0.3654 0.8924
H11 H 1.4021 0.3193 0.7780
H12 H 1.5187 0.2931 0.9081
Ag1G Ag 2.07684(3) 0.301451(15) 1.68236(3)
Ag1A Ag 1.42316(3) 0.198549(15) 1.31764(3)
Ag1G_2 Ag 1.07684(3) 0.301451(15) 0.68236(3)
Ag1F Ag 1.92316(3) 0.301451(15) 1.81764(3)
Ag1E Ag 1.57684(3) -0.198549(15) 1.68236(3)
Ag2A Ag 1.35140(3) 0.062780(14) 1.05731(3)
Ag2E Ag 1.64860(3) -0.062780(14) 0.94269(3)
Ag2F Ag 1.85140(3) 0.437220(14) 1.55731(3)
Ag2E_2 Ag 1.64860(3) -0.062780(14) 1.94269(3)
N1E N 1.6156(3) -0.09516(14) 1.6632(3)
N1G N 2.1156(3) 0.40484(14) 1.6632(3)
N2E N 1.6484(3) -0.04816(15) 1.7579(3)
N2A N 1.3516(3) 0.04816(15) 1.2421(3)
N3E N 1.6560(3) -0.00969(15) 1.5862(3)
N3D N 1.3440(3) -0.00969(15) 0.9138(3)
N4G N 1.8916(3) 0.29420(15) 1.5019(3)
N5G N 1.8142(3) 0.34407(15) 1.4487(3)
N5A N 1.6858(3) 0.15593(15) 1.5513(3)
N6G N 1.7231(3) 0.26085(15) 1.3181(3)
N6_2 N 2.2231(3) 0.23915(15) 1.8181(3)
C1E C 1.6212(4) -0.06993(17) 1.5635(4)
C2E C 1.6701(4) 0.00100(19) 1.7065(4)
H1E H 1.6932 0.0397 1.7500
C3E C 1.5909(5) -0.1054(2) 1.4382(4)
H2E H 1.5204 -0.1312 1.4096
H3E H 1.5698 -0.0755 1.3660
C4E C 1.6886(7) -0.1457(4) 1.4557(7)
H4E H 1.6627 -0.1668 1.3716
H5E H 1.7086 -0.1763 1.5252
H6E H 1.7582 -0.1206 1.4818
C5G C 1.8347(4) 0.24550(18) 1.4218(4)
C6G C 1.7165(4) 0.3225(2) 1.3410(4)
H7G H 1.6488 0.3471 1.2854
C7G C 1.8904(4) 0.1818(2) 1.4422(5)
H8G H 1.8275 0.1502 1.4068
H9G H 1.9453 0.1742 1.5388
C8G C 1.9569(9) 0.1755(4) 1.3742(11)
H10G H 1.9931 0.1346 1.3924
H11G H 1.9021 0.1807 1.2780
H12G H 2.0187 0.2069 1.4081
loop_
_geom_bond_atom_site_label_1
_geom_bond_atom_site_label_2
_geom_bond_site_symmetry_1
_geom_bond_site_symmetry_2
Ag1 N1 1_555 1_555
Ag2 N2 1_555 1_555
N1 N2 1_555 1_555
N2 C2 1_555 1_555
N3 C1 1_555 1_555
N4 Ag1 1_555 1_555
N5 N4 1_555 1_555
N6 C5 1_555 1_555
C1 N1 1_555 1_555
C2 N3 1_555 1_555
H1 C2 1_555 1_555
C3 C1 1_555 1_555
H2 C3 1_555 1_555
H3 C3 1_555 1_555
C4 C3 1_555 1_555
H4 C4 1_555 1_555
H5 C4 1_555 1_555
H6 C4 1_555 1_555
C5 N4 1_555 1_555
C6 N5 1_555 1_555
H7 C6 1_555 1_555
C7 C5 1_555 1_555
H8 C7 1_555 1_555
H9 C7 1_555 1_555
C8 C7 1_555 1_555
H10 C8 1_555 1_555
H11 C8 1_555 1_555
H12 C8 1_555 1_555
O1 H13 1_555 1_555
H13 O1A 1_555 1_555
H14 O1 1_555 1_555
Ag1G Ag1F 1_555 1_555
Ag1A Ag1 1_555 1_555
Ag1G_2 N6 1_555 1_555
Ag1E N1E 1_555 1_555
Ag2A N5 1_555 1_555
Ag2E N3 1_555 1_555
Ag2F N5G 1_555 1_555
Ag2E_2 N2E 1_555 1_555
N1E N2E 1_555 1_555
N1G Ag1G 1_555 1_555
N2E C2E 1_555 1_555
N2A Ag2A 1_555 1_555
N3E Ag2 1_555 1_555
N3D Ag2A 1_555 1_555
N4G Ag1G 1_555 1_555
N5G N4G 1_555 1_555
N5A Ag2 1_555 1_555
N6G Ag1 1_555 1_555
N6_2 Ag1G 1_555 1_555
C1E N1E 1_555 1_555
C2E N3E 1_555 1_555
H1E C2E 1_555 1_555
C3E C1E 1_555 1_555
H2E C3E 1_555 1_555
H3E C3E 1_555 1_555
C4E C3E 1_555 1_555
H4E C4E 1_555 1_555
H5E C4E 1_555 1_555
H6E C4E 1_555 1_555
C5G N4G 1_555 1_555
C6G N5G 1_555 1_555
H7G C6G 1_555 1_555
C7G C5G 1_555 1_555
H8G C7G 1_555 1_555
H9G C7G 1_555 1_555
C8G C7G 1_555 1_555
H10G C8G 1_555 1_555
H11G C8G 1_555 1_555
H12G C8G 1_555 1_555
O1A O1 1_555 1_555
H13A O1 1_555 1_555
H14A O1 1_555 1_555
N6 C6 1_555 1_555
H14 O1A 1_555 1_555
N3E C1E 1_555 1_555
N6G C5G 1_555 1_555
N6G C6G 1_555 1_555
O1A H13A 1_555 1_555
O1A H14A 1_555 1_555

#END
