
#######################################################################
#
#                 Cambridge Crystallographic Data Centre
#                                CCDC 
#
#######################################################################
#
# If this CIF has been generated from an entry in the Cambridge 
# Structural Database, then it will include bibliographic, chemical, 
# crystal, experimental, refinement or atomic coordinate data resulting 
# from the CCDC's data processing and validation procedures.
#
#######################################################################

data_OSIXIY
_chemical_formula_moiety         '(C18 H27 Ag4 N13)n'
_symmetry_cell_setting           monoclinic
_symmetry_space_group_name_H-M   'P 21/c'
_symmetry_Int_Tables_number      14
_space_group_name_Hall           '-P 2ybc'
loop_
_symmetry_equiv_pos_site_id
_symmetry_equiv_pos_as_xyz
1 x,y,z
2 -x,1/2+y,1/2-z
3 -x,-y,-z
4 x,1/2-y,1/2+z
_cell_length_a                   11.9318(6)
_cell_length_b                   21.3866(10)
_cell_length_c                   11.6563(6)
_cell_angle_alpha                90
_cell_angle_beta                 113.8440(10)
_cell_angle_gamma                90
_cell_volume                     2720.59
loop_
_atom_site_label
_atom_site_type_symbol
_atom_site_fract_x
_atom_site_fract_y
_atom_site_fract_z
Ag1 Ag 0.58794(3) 0.186180(14) 0.53427(3)
Ag2 Ag 0.67645(3) 0.052900(14) 0.34915(3)
Ag3 Ag 0.90106(3) 0.186320(14) 0.44496(3)
Ag4 Ag 0.81845(3) 0.052290(14) 0.64103(3)
N1 N 0.6334(3) 0.15569(14) 0.2915(3)
N2 N 0.5945(3) 0.20072(14) 0.3514(3)
N3 N 0.5852(3) 0.24064(14) 0.1712(3)
N4 N 0.8621(3) 0.04372(15) 0.3540(3)
N5 N 0.9383(3) 0.09443(15) 0.3696(3)
N6 N 1.0320(3) 0.00975(14) 0.3414(3)
N7 N 0.8596(3) 0.15627(14) 0.6896(3)
N8 N 0.9012(3) 0.20108(14) 0.6306(3)
N9 N 0.9103(3) 0.24091(14) 0.8109(3)
N10 N 0.6341(3) 0.04498(14) 0.6394(3)
N11 N 0.5520(3) 0.09385(14) 0.6084(3)
N12 N 0.4659(3) 0.01133(14) 0.6557(3)
C1 C 0.6257(4) 0.18145(17) 0.1853(3)
C2 C 0.5675(4) 0.24966(18) 0.2768(3)
H1 H 0.5387 0.2871 0.2954
C3 C 0.6596(4) 0.1478(2) 0.0912(4)
H2 H 0.7327 0.1232 0.1354
H3 H 0.6791 0.1784 0.0407
C4 C 0.5617(7) 0.1059(3) 0.0068(6)
H4 H 0.5882 0.0869 -0.0526
H5 H 0.5449 0.0740 0.0555
H6 H 0.4887 0.1298 -0.0372
C5 C 0.9212(4) -0.00518(17) 0.3378(3)
C6 C 1.0364(4) 0.07170(19) 0.3605(4)
H7 H 1.1029 0.0963 0.3667
C7 C 0.8677(4) -0.06967(19) 0.3149(4)
H8 H 0.8092 -0.0733 0.3529
H9 H 0.9326 -0.0998 0.3552
C8 C 0.8056(7) -0.0849(3) 0.1793(6)
H10 H 0.7739 -0.1267 0.1695
H11 H 0.7395 -0.0561 0.1394
H12 H 0.8633 -0.0817 0.1412
C9 C 0.8670(4) 0.18186(17) 0.7961(3)
C10 C 0.9297(4) 0.24962(17) 0.7057(3)
H13 H 0.9603 0.2867 0.6880
C11 C 0.8317(4) 0.14877(19) 0.8891(4)
H14 H 0.7594 0.1236 0.8444
H15 H 0.8102 0.1796 0.9379
C12 C 0.9302(6) 0.1076(3) 0.9766(5)
H16 H 0.9028 0.0888 1.0355
H17 H 1.0024 0.1320 1.0208
H18 H 0.9487 0.0754 0.9295
C13 C 0.5791(4) -0.00318(17) 0.6661(3)
C14 C 0.4545(4) 0.07168(18) 0.6191(4)
H19 H 0.3842 0.0952 0.6031
C15 C 0.6401(4) -0.0649(2) 0.7101(5)
H20 H 0.5783 -0.0974 0.6826
H21 H 0.6965 -0.0725 0.6707
C16 C 0.7068(8) -0.0695(3) 0.8451(6)
H22 H 0.7448 -0.1099 0.8661
H23 H 0.6511 -0.0640 0.8850
H24 H 0.7687 -0.0376 0.8734
Ag1C Ag 0.58794(3) 0.313820(14) 0.03427(3)
Ag2B Ag 0.32355(3) -0.052900(14) 0.65085(3)
Ag3C Ag 0.90106(3) 0.313680(14) 0.94496(3)
Ag4B Ag 1.18155(3) -0.052290(14) 0.35897(3)
N3C N 0.5852(3) 0.25936(14) 0.6712(3)
N6B N 0.9680(3) -0.00975(14) 0.6586(3)
N9C N 0.9103(3) 0.25909(14) 0.3109(3)
N12B N 0.5341(3) -0.01133(14) 0.3443(3)
N13 N 0.2574(12) 0.2066(6) 0.3807(16)
C17 C 0.2455(10) 0.2268(6) 0.4698(16)
C18 C 0.2334(12) 0.2489(8) 0.5722(13)
H25 H 0.2138 0.2926 0.5613
H26 H 0.3089 0.2431 0.6443
H27 H 0.1690 0.2267 0.5840
loop_
_geom_bond_atom_site_label_1
_geom_bond_atom_site_label_2
_geom_bond_site_symmetry_1
_geom_bond_site_symmetry_2
Ag1 N2 1_555 1_555
Ag2 N1 1_555 1_555
Ag3 N5 1_555 1_555
Ag4 N7 1_555 1_555
N1 N2 1_555 1_555
N2 C2 1_555 1_555
N3 C1 1_555 1_555
N4 Ag2 1_555 1_555
N5 N4 1_555 1_555
N6 C5 1_555 1_555
N7 N8 1_555 1_555
N8 Ag3 1_555 1_555
N9 C9 1_555 1_555
N10 Ag4 1_555 1_555
N11 Ag1 1_555 1_555
N12 C13 1_555 1_555
C1 N1 1_555 1_555
C2 N3 1_555 1_555
H1 C2 1_555 1_555
C3 C1 1_555 1_555
H2 C3 1_555 1_555
H3 C3 1_555 1_555
C4 C3 1_555 1_555
H4 C4 1_555 1_555
H5 C4 1_555 1_555
H6 C4 1_555 1_555
C5 N4 1_555 1_555
C6 N5 1_555 1_555
H7 C6 1_555 1_555
C7 C5 1_555 1_555
H8 C7 1_555 1_555
H9 C7 1_555 1_555
C8 C7 1_555 1_555
H10 C8 1_555 1_555
H11 C8 1_555 1_555
H12 C8 1_555 1_555
C9 N7 1_555 1_555
C10 N8 1_555 1_555
H13 C10 1_555 1_555
C11 C9 1_555 1_555
H14 C11 1_555 1_555
H15 C11 1_555 1_555
C12 C11 1_555 1_555
H16 C12 1_555 1_555
H17 C12 1_555 1_555
H18 C12 1_555 1_555
C13 N10 1_555 1_555
C14 N11 1_555 1_555
H19 C14 1_555 1_555
C15 C13 1_555 1_555
H20 C15 1_555 1_555
H21 C15 1_555 1_555
C16 C15 1_555 1_555
H22 C16 1_555 1_555
H23 C16 1_555 1_555
H24 C16 1_555 1_555
N13 C17 1_555 1_555
C17 C18 1_555 1_555
C18 H25 1_555 1_555
H26 C18 1_555 1_555
H27 C18 1_555 1_555
Ag1C N3 1_555 1_555
Ag2B N12 1_555 1_555
Ag3C N9 1_555 1_555
Ag4B N6 1_555 1_555
N3C Ag1 1_555 1_555
N6B Ag4 1_555 1_555
N9C Ag3 1_555 1_555
N12B Ag2 1_555 1_555
N6 C6 1_555 1_555
N9 C10 1_555 1_555
N10 N11 1_555 1_555
N12 C14 1_555 1_555

#END
