
#######################################################################
#
#                 Cambridge Crystallographic Data Centre
#                                CCDC 
#
#######################################################################
#
# If this CIF has been generated from an entry in the Cambridge 
# Structural Database, then it will include bibliographic, chemical, 
# crystal, experimental, refinement or atomic coordinate data resulting 
# from the CCDC's data processing and validation procedures.
#
#######################################################################

data_BUPVEP
_chemical_formula_moiety         '(C24 H26 Ce6 O37)n'
_symmetry_cell_setting           cubic
_symmetry_space_group_name_H-M   'P n 3'
_symmetry_Int_Tables_number      201
_space_group_name_Hall           'P 2 2 3 -1n'
loop_
_symmetry_equiv_pos_site_id
_symmetry_equiv_pos_as_xyz
1 x,y,z
2 -x,y,-z
3 1/2-x,1/2-y,1/2-z
4 1/2-x,1/2+y,1/2+z
5 -y,-z,x
6 -y,z,-x
7 1/2-y,1/2-z,1/2-x
8 1/2-y,1/2+z,1/2+x
9 -z,-x,y
10 -z,x,-y
11 1/2-z,1/2-x,1/2-y
12 1/2-z,1/2+x,1/2+y
13 z,-x,-y
14 z,x,y
15 1/2+z,1/2-x,1/2+y
16 1/2+z,1/2+x,1/2-y
17 y,-z,-x
18 y,z,x
19 1/2+y,1/2-z,1/2+x
20 1/2+y,1/2+z,1/2-x
21 x,-y,-z
22 -x,-y,z
23 1/2+x,1/2-y,1/2+z
24 1/2+x,1/2+y,1/2-z
_cell_length_a                   18.57284(16)
_cell_length_b                   18.57284(16)
_cell_length_c                   18.57284(16)
_cell_angle_alpha                90
_cell_angle_beta                 90
_cell_angle_gamma                90
_cell_volume                     6406.71
loop_
_atom_site_label
_atom_site_type_symbol
_atom_site_fract_x
_atom_site_fract_y
_atom_site_fract_z
_atom_site_U_iso_or_equiv
_atom_site_thermal_displace_type
Ce1 Ce 0.39290(10) 0.2598(4) 0.2441(5) 0.0293 Uiso
O1 O 0.3225(7) 0.3225(7) 0.1775(7) 0.0293 Uiso
O2 O 0.3349(17) 0.3349(17) 0.3349(17) 0.0293 Uiso
O3 O 0.452(2) 0.273(2) 0.128(3) 0.0293 Uiso
O4 O 0.357(2) 0.257(3) 0.053(2) 0.0293 Uiso
C1 C 0.426(5) 0.269(4) 0.064(5) 0.0293 Uiso
C2 C 0.463(4) 0.274(3) 0.000(4) 0.0293 Uiso
O5 O 0.4696(19) 0.257(2) 0.349(2) 0.0293 Uiso
O6 O 0.383(3) 0.252(2) 0.4345(18) 0.0293 Uiso
C3 C 0.450(4) 0.259(5) 0.419(5) 0.0293 Uiso
C4 C 0.509(4) 0.267(4) 0.464(4) 0.0293 Uiso
O3A O 0.548(2) 0.273(2) -0.128(3) 0.0293 Uiso
O4A O 0.643(2) 0.257(3) -0.053(2) 0.0293 Uiso
C1A C 0.574(5) 0.269(4) -0.064(5) 0.0293 Uiso
C2A C 0.537(4) 0.274(3) 0.000(4) 0.0293 Uiso
O5A O 0.5304(19) 0.257(2) 0.651(2) 0.0293 Uiso
O6A O 0.617(3) 0.252(2) 0.5655(18) 0.0293 Uiso
C3A C 0.550(4) 0.259(5) 0.581(5) 0.0293 Uiso
C4A C 0.491(4) 0.267(4) 0.536(4) 0.0293 Uiso
Ce1A Ce 0.60710(10) 0.2598(4) -0.2441(5) 0.0293 Uiso
O1A O 0.6775(7) 0.3225(7) -0.1775(7) 0.0293 Uiso
Ce1F Ce 0.2402(4) 0.2559(5) 0.10710(10) 0.0293 Uiso
O1F O 0.1775(7) 0.3225(7) 0.1775(7) 0.0293 Uiso
O2B O 0.1651(17) 0.1651(17) 0.1651(17) 0.0293 Uiso
O3F O 0.227(2) 0.372(3) 0.048(2) 0.0293 Uiso
O4F O 0.243(3) 0.447(2) 0.143(2) 0.0293 Uiso
C1F C 0.231(4) 0.436(5) 0.074(5) 0.0293 Uiso
C2F C 0.226(3) 0.500(4) 0.037(4) 0.0293 Uiso
O5F O 0.243(2) 0.151(2) 0.0304(19) 0.0293 Uiso
O6F O 0.248(2) 0.0655(18) 0.117(3) 0.0293 Uiso
C3F C 0.241(5) 0.081(5) 0.050(4) 0.0293 Uiso
C4F C 0.233(4) 0.036(4) -0.009(4) 0.0293 Uiso
O3G O 0.227(2) 0.628(3) -0.048(2) 0.0293 Uiso
O4G O 0.243(3) 0.553(2) -0.143(2) 0.0293 Uiso
C1G C 0.231(4) 0.564(5) -0.074(5) 0.0293 Uiso
C2G C 0.226(3) 0.500(4) -0.037(4) 0.0293 Uiso
O5G O 0.243(2) -0.151(2) -0.0304(19) 0.0293 Uiso
O6G O 0.248(2) -0.0655(18) -0.117(3) 0.0293 Uiso
C3G C 0.241(5) -0.081(5) -0.050(4) 0.0293 Uiso
C4G C 0.233(4) -0.036(4) 0.009(4) 0.0293 Uiso
Ce1G Ce 0.2402(4) -0.2559(5) -0.10710(10) 0.0293 Uiso
O1G O 0.1775(7) -0.3225(7) -0.1775(7) 0.0293 Uiso
O3G_2 O 0.227(2) -0.372(3) -0.048(2) 0.0293 Uiso
O4G_2 O 0.243(3) -0.447(2) -0.143(2) 0.0293 Uiso
C1G_2 C 0.231(4) -0.436(5) -0.074(5) 0.0293 Uiso
C2G_2 C 0.226(3) -0.500(4) -0.037(4) 0.0293 Uiso
O3F_2 O 0.227(2) -0.628(3) 0.048(2) 0.0293 Uiso
O4F_2 O 0.243(3) -0.553(2) 0.143(2) 0.0293 Uiso
C1F_2 C 0.231(4) -0.564(5) 0.074(5) 0.0293 Uiso
C2F_2 C 0.226(3) -0.500(4) 0.037(4) 0.0293 Uiso
Ce1J Ce 0.2559(5) 0.10710(10) 0.2402(4) 0.0293 Uiso
O1J O 0.3225(7) 0.1775(7) 0.1775(7) 0.0293 Uiso
O5J O 0.151(2) 0.0304(19) 0.243(2) 0.0293 Uiso
O6J O 0.0655(18) 0.117(3) 0.248(2) 0.0293 Uiso
C3J C 0.081(5) 0.050(4) 0.241(5) 0.0293 Uiso
C4J C 0.036(4) -0.009(4) 0.233(4) 0.0293 Uiso
O5O O -0.151(2) -0.0304(19) 0.243(2) 0.0293 Uiso
O6O O -0.0655(18) -0.117(3) 0.248(2) 0.0293 Uiso
C3O C -0.081(5) -0.050(4) 0.241(5) 0.0293 Uiso
C4O C -0.036(4) 0.009(4) 0.233(4) 0.0293 Uiso
Ce1K Ce 0.2559(5) -0.10710(10) -0.2402(4) 0.0293 Uiso
O1K O 0.3225(7) -0.1775(7) -0.1775(7) 0.0293 Uiso
Ce1A_2 Ce 0.60710(10) 0.2598(4) 0.7559(5) 0.0293 Uiso
Ce1B Ce 0.10710(10) 0.2402(4) 0.2559(5) 0.0293 Uiso
Ce1C Ce 0.10710(10) -0.2402(4) -0.2559(5) 0.0293 Uiso
Ce1E Ce 0.7402(4) 0.2441(5) 0.60710(10) 0.0293 Uiso
Ce1F_2 Ce 0.2402(4) -0.7441(5) 0.10710(10) 0.0293 Uiso
Ce1G_2 Ce 0.2402(4) 0.7441(5) -0.10710(10) 0.0293 Uiso
Ce1I Ce 0.7559(5) 0.39290(10) -0.2598(4) 0.0293 Uiso
Ce1L Ce 0.2441(5) -0.39290(10) -0.2598(4) 0.0293 Uiso
Ce1L_2 Ce 0.2441(5) 0.60710(10) -0.2598(4) 0.0293 Uiso
Ce1M Ce 0.2441(5) -0.60710(10) 0.2598(4) 0.0293 Uiso
Ce1M_2 Ce 0.2441(5) 0.39290(10) 0.2598(4) 0.0293 Uiso
Ce1O Ce -0.2559(5) -0.10710(10) 0.2402(4) 0.0293 Uiso
Ce1Q Ce 0.2598(4) 0.2441(5) 0.39290(10) 0.0293 Uiso
Ce1R Ce 0.7598(4) 0.2559(5) -0.10710(10) 0.0293 Uiso
Ce1T Ce 0.39290(10) -0.2598(4) -0.2441(5) 0.0293 Uiso
Ce1W Ce -0.10710(10) -0.2402(4) 0.2559(5) 0.0293 Uiso
O1B O 0.1775(7) 0.1775(7) 0.3225(7) 0.0293 Uiso
O1C O 0.1775(7) -0.1775(7) -0.3225(7) 0.0293 Uiso
O1E O 0.6775(7) 0.1775(7) -0.3225(7) 0.0293 Uiso
O1N O 0.6775(7) 0.1775(7) -0.1775(7) 0.0293 Uiso
O1P O 0.3225(7) -0.1775(7) -0.3225(7) 0.0293 Uiso
O1Q O 0.3225(7) 0.1775(7) 0.3225(7) 0.0293 Uiso
O1T O 0.3225(7) -0.3225(7) -0.1775(7) 0.0293 Uiso
O2A O 0.6651(17) 0.3349(17) -0.3349(17) 0.0293 Uiso
O2C O 0.1651(17) -0.1651(17) -0.1651(17) 0.0293 Uiso
O3J O 0.372(3) 0.048(2) 0.227(2) 0.0293 Uiso
O3K O 0.372(3) -0.048(2) -0.227(2) 0.0293 Uiso
O4J O 0.447(2) 0.143(2) 0.243(3) 0.0293 Uiso
O4N O 0.553(2) 0.143(2) -0.243(3) 0.0293 Uiso
O4P O 0.257(3) -0.053(2) -0.357(2) 0.0293 Uiso
O4Q O 0.257(3) 0.053(2) 0.357(2) 0.0293 Uiso
O4T O 0.357(2) -0.257(3) -0.053(2) 0.0293 Uiso
O5A_2 O 0.5304(19) 0.257(2) -0.349(2) 0.0293 Uiso
O5K O 0.151(2) -0.0304(19) -0.243(2) 0.0293 Uiso
O6B O 0.117(3) 0.248(2) 0.0655(18) 0.0293 Uiso
O6C O 0.117(3) -0.248(2) -0.0655(18) 0.0293 Uiso
O6I O 0.5655(18) 0.383(3) -0.252(2) 0.0293 Uiso
O6M O 0.4345(18) 0.383(3) 0.252(2) 0.0293 Uiso
O7 O 0.7883(14) 0.7883(14) 0.7883(14) 0.1267 Uiso
O8 O -0.814(5) -0.283(7) -0.870(6) 0.1267 Uiso
O9 O 0.073(5) -0.069(4) -0.580(7) 0.1267 Uiso
O10 O -0.428(3) 0.916(4) -0.579(3) 0.1267 Uiso
O11 O 0.816(4) 0.718(5) -0.371(4) 0.1267 Uiso
loop_
_geom_bond_atom_site_label_1
_geom_bond_atom_site_label_2
_geom_bond_site_symmetry_1
_geom_bond_site_symmetry_2
Ce1 O1 1_555 1_555
O1 Ce1F 1_555 1_555
O2 Ce1 1_555 1_555
O3 Ce1 1_555 1_555
O4 C1 1_555 1_555
C1 O3 1_555 1_555
C2 C1 1_555 1_555
O5 Ce1 1_555 1_555
O6 C3 1_555 1_555
C3 O5 1_555 1_555
C4 C3 1_555 1_555
O3A C1A 1_555 1_555
O4A C1A 1_555 1_555
C1A C2A 1_555 1_555
C2A C2 1_555 1_555
O5A C3A 1_555 1_555
O6A C3A 1_555 1_555
C3A C4A 1_555 1_555
C4A C4 1_555 1_555
Ce1A O3A 1_555 1_555
O1A Ce1A 1_555 1_555
Ce1F O4 1_555 1_555
O1F Ce1F 1_555 1_555
O2B Ce1F 1_555 1_555
O3F Ce1F 1_555 1_555
O4F C1F 1_555 1_555
C1F O3F 1_555 1_555
C2F C1F 1_555 1_555
O5F Ce1F 1_555 1_555
O6F C3F 1_555 1_555
C3F O5F 1_555 1_555
C4F C3F 1_555 1_555
O3G C1G 1_555 1_555
O4G C1G 1_555 1_555
C1G C2G 1_555 1_555
C2G C2F 1_555 1_555
O5G C3G 1_555 1_555
O6G C3G 1_555 1_555
C3G C4G 1_555 1_555
C4G C4F 1_555 1_555
Ce1G O5G 1_555 1_555
O1G Ce1G 1_555 1_555
O3G_2 Ce1G 1_555 1_555
O4G_2 C1G_2 1_555 1_555
C1G_2 O3G_2 1_555 1_555
C2G_2 C1G_2 1_555 1_555
O3F_2 C1F_2 1_555 1_555
O4F_2 C1F_2 1_555 1_555
C1F_2 C2F_2 1_555 1_555
C2F_2 C2G_2 1_555 1_555
Ce1J O2B 1_555 1_555
O1J Ce1 1_555 1_555
O5J Ce1J 1_555 1_555
O6J C3J 1_555 1_555
C3J O5J 1_555 1_555
C4J C3J 1_555 1_555
O5O C3O 1_555 1_555
O6O C3O 1_555 1_555
C3O C4O 1_555 1_555
C4O C4J 1_555 1_555
Ce1K O6G 1_555 1_555
O1K Ce1G 1_555 1_555
Ce1A_2 O5A 1_555 1_555
Ce1B O1F 1_555 1_555
Ce1C O1G 1_555 1_555
Ce1E O6A 1_555 1_555
Ce1F_2 O3F_2 1_555 1_555
Ce1G_2 O3G 1_555 1_555
Ce1I O1A 1_555 1_555
Ce1L O1G 1_555 1_555
Ce1L_2 O4G 1_555 1_555
Ce1M O4F_2 1_555 1_555
Ce1M_2 O1 1_555 1_555
Ce1O O5O 1_555 1_555
Ce1Q O2 1_555 1_555
Ce1R O4A 1_555 1_555
Ce1T O1K 1_555 1_555
Ce1W O6O 1_555 1_555
O1B Ce1J 1_555 1_555
O1C Ce1K 1_555 1_555
O1E Ce1A 1_555 1_555
O1N Ce1A 1_555 1_555
O1P Ce1K 1_555 1_555
O1Q Ce1 1_555 1_555
O1T Ce1G 1_555 1_555
O2A Ce1A 1_555 1_555
O2C Ce1G 1_555 1_555
O3J Ce1J 1_555 1_555
O3K Ce1K 1_555 1_555
O4J Ce1 1_555 1_555
O4N Ce1A 1_555 1_555
O4P Ce1K 1_555 1_555
O4Q Ce1J 1_555 1_555
O4T Ce1G 1_555 1_555
O5A_2 Ce1A 1_555 1_555
O5K Ce1K 1_555 1_555
O6B Ce1F 1_555 1_555
O6C Ce1G 1_555 1_555
O6I Ce1A 1_555 1_555
O6M Ce1 1_555 1_555
O2 Ce1M_2 1_555 1_555
O6 Ce1Q 1_555 1_555
O1A Ce1R 1_555 1_555
Ce1F O1J 1_555 1_555
O1F Ce1M_2 1_555 1_555
O2B Ce1B 1_555 1_555
O4F Ce1M_2 1_555 1_555
O6F Ce1J 1_555 1_555
O4G_2 Ce1L 1_555 1_555
Ce1J O1J 1_555 1_555
Ce1J O1Q 1_555 1_555
O6J Ce1B 1_555 1_555
Ce1K O1K 1_555 1_555
Ce1K O2C 1_555 1_555
Ce1B O1B 1_555 1_555
Ce1C O1C 1_555 1_555
Ce1C O2C 1_555 1_555
Ce1I O2A 1_555 1_555
Ce1L O1T 1_555 1_555
Ce1Q O1B 1_555 1_555
Ce1Q O1Q 1_555 1_555
Ce1R O1N 1_555 1_555
Ce1T O1P 1_555 1_555
Ce1T O1T 1_555 1_555

#END
