
#######################################################################
#
#                 Cambridge Crystallographic Data Centre
#                                CCDC 
#
#######################################################################
#
# If this CIF has been generated from an entry in the Cambridge 
# Structural Database, then it will include bibliographic, chemical, 
# crystal, experimental, refinement or atomic coordinate data resulting 
# from the CCDC's data processing and validation procedures.
#
#######################################################################

data_RUGXOI01
_chemical_formula_moiety         '(C20 H22 N2 O10 Zn2)n'
_symmetry_cell_setting           monoclinic
_symmetry_space_group_name_H-M   'P 21/c'
_symmetry_Int_Tables_number      14
_space_group_name_Hall           '-P 2ybc'
loop_
_symmetry_equiv_pos_site_id
_symmetry_equiv_pos_as_xyz
1 x,y,z
2 -x,1/2+y,1/2-z
3 -x,-y,-z
4 x,1/2-y,1/2+z
_cell_length_a                   16.808(3)
_cell_length_b                   12.964(3)
_cell_length_c                   14.513(3)
_cell_angle_alpha                90
_cell_angle_beta                 108.46(3)
_cell_angle_gamma                90
_cell_volume                     2999.65
loop_
_atom_site_label
_atom_site_type_symbol
_atom_site_fract_x
_atom_site_fract_y
_atom_site_fract_z
_atom_site_U_iso_or_equiv
_atom_site_thermal_displace_type
N1 N 0.3418(9) 0.7190(12) 0.5703(11) 0.1020 Uiso
H7 H 0.3000 0.7739 0.5665 0.1230 Uiso
H8 H 0.3620 0.6967 0.6391 0.1230 Uiso
C17 C 0.2932(18) 0.6298(18) 0.515(2) 0.1820 Uiso
H9 H 0.2473 0.6130 0.5408 0.2740 Uiso
H10 H 0.3302 0.5700 0.5225 0.2740 Uiso
H11 H 0.2700 0.6480 0.4464 0.2740 Uiso
C18 C 0.4126(15) 0.770(2) 0.553(2) 0.1840 Uiso
H12 H 0.4293 0.8297 0.5964 0.2760 Uiso
H13 H 0.3967 0.7931 0.4854 0.2760 Uiso
H14 H 0.4597 0.7217 0.5659 0.2760 Uiso
N2 N 0.0904(7) 0.2841(8) 0.6711(8) 0.1580 Uiso
H15 H 0.1445 0.3154 0.6724 0.1890 Uiso
H16 H 0.0859 0.2900 0.7373 0.1890 Uiso
C19 C 0.0921(9) 0.1730(9) 0.6470(11) 0.1650 Uiso
H17 H 0.1398 0.1396 0.6949 0.2480 Uiso
H18 H 0.0976 0.1657 0.5821 0.2480 Uiso
H19 H 0.0399 0.1401 0.6482 0.2480 Uiso
C20 C 0.0209(9) 0.3454(12) 0.6032(11) 0.1900 Uiso
H20 H 0.0252 0.4174 0.6246 0.2840 Uiso
H21 H -0.0332 0.3170 0.6029 0.2840 Uiso
H22 H 0.0252 0.3418 0.5375 0.2840 Uiso
Zn1 Zn 0.31802(2) 0.48702(3) 0.81944(3) 0.0221 Uani
O1 O 0.23154(17) 0.5864(2) 0.7554(2) 0.0433 Uani
O2 O 0.35698(18) 0.3847(3) 0.7464(2) 0.0467 Uani
O3 O 0.27256(13) 0.41494(19) 0.91379(18) 0.0266 Uani
O4 O 0.42369(16) 0.5588(2) 0.8837(2) 0.0347 Uani
C1 C 0.1563(2) 0.5988(3) 0.7501(3) 0.0306 Uani
Zn2 Zn 0.15464(2) 0.44689(3) 0.90055(3) 0.0235 Uani
C2 C 0.32246(19) 0.3660(3) 0.9945(2) 0.0261 Uani
O5 O 0.11563(17) 0.5427(2) 0.7886(3) 0.0465 Uani
C3 C 0.1127(2) 0.6909(3) 0.6928(3) 0.0328 Uani
O6 O 0.08846(16) 0.3223(2) 0.8594(2) 0.0369 Uani
O7 O 0.12231(19) 0.5114(2) 1.0038(2) 0.0432 Uani
C4 C 0.4078(2) 0.3897(3) 1.0329(3) 0.0311 Uani
C5 C 0.2889(2) 0.2907(3) 1.0418(3) 0.0313 Uani
C6 C 0.1556(2) 0.7546(3) 0.6480(3) 0.0396 Uani
C7 C 0.0306(2) 0.7136(3) 0.6877(3) 0.0337 Uani
C8 C 0.4584(2) 0.3421(3) 1.1174(3) 0.0347 Uani
H1 H 0.4316 0.4391 1.0011 0.0370 Uiso
C9 C 0.3399(2) 0.2419(3) 1.1252(3) 0.0335 Uani
H2 H 0.2312 0.2731 1.0167 0.0380 Uiso
C10 C 0.1157(2) 0.8427(3) 0.5987(3) 0.0362 Uani
H3 H 0.2114 0.7386 0.6507 0.0480 Uiso
C11 C -0.0100(2) 0.8025(3) 0.6406(3) 0.0305 Uani
H4 H 0.0013 0.6678 0.7167 0.0410 Uiso
C12 C 0.5484(2) 0.3756(3) 1.1637(3) 0.0396 Uani
C13 C 0.4244(2) 0.2683(3) 1.1636(3) 0.0390 Uani
C14 C 0.3048(2) 0.1619(3) 1.1773(3) 0.0380 Uani
C15 C 0.1600(2) 0.9067(3) 0.5429(4) 0.0423 Uani
C16 C 0.0343(2) 0.8672(3) 0.5963(3) 0.0341 Uani
O8 O 0.5899(2) 0.3418(4) 1.2434(3) 0.0933 Uani
H5 H 0.4586 0.2361 1.2213 0.0470 Uiso
O9 O 0.2283(2) 0.1448(3) 1.1501(3) 0.0730 Uani
O10 O 0.2266(3) 0.8788(4) 0.5340(4) 0.0936 Uani
H6 H 0.0085 0.9284 0.5645 0.0410 Uiso
O6A O -0.08846(16) 0.8223(2) 0.6406(2) 0.0369 Uani
O4B O 0.57631(16) 0.4412(2) 1.1163(2) 0.0347 Uani
O2C O 0.35698(18) 0.1153(3) 1.2464(2) 0.0467 Uani
O7C O 0.12231(19) 0.9886(2) 0.5038(2) 0.0432 Uani
Zn2A Zn -0.15464(2) 0.94689(3) 0.59945(3) 0.0235 Uani
Zn1B Zn 0.68198(2) 0.51298(3) 1.18056(3) 0.0221 Uani
Zn1C Zn 0.31802(2) 0.01298(3) 1.31944(3) 0.0221 Uani
Zn2C Zn 0.15464(2) 1.05311(3) 0.40055(3) 0.0235 Uani
loop_
_atom_site_aniso_label
_atom_site_aniso_U_11
_atom_site_aniso_U_22
_atom_site_aniso_U_33
_atom_site_aniso_U_23
_atom_site_aniso_U_13
_atom_site_aniso_U_12
Zn1 0.01719(18) 0.0234(2) 0.0268(2) 0.00006(13) 0.00836(14) 0.00261(12)
O1 0.0285(13) 0.0422(15) 0.0636(19) 0.0252(14) 0.0207(13) 0.0166(11)
O2 0.0372(14) 0.0509(18) 0.0517(18) -0.0264(15) 0.0135(13) 0.0064(13)
O3 0.0166 0.0326 0.0308 0.0087 0.008 0.0013
O4 0.0264 0.0399 0.0357 0.007 0.0068 -0.012
C1 0.0233(15) 0.0278(16) 0.0413(19) 0.0090(14) 0.0112(13) 0.0069(12)
Zn2 0.01862(18) 0.0224(2) 0.0312(2) -0.00041(14) 0.01020(15) -0.00148(12)
C2 0.0205(14) 0.0286(15) 0.0304(16) -0.0074(13) 0.0099(12) -0.0016(11)
O5 0.0267(13) 0.0496(17) 0.064(2) 0.0308(15) 0.0154(13) 0.0078(12)
C3 0.0238(15) 0.0316(17) 0.044(2) 0.0155(15) 0.0120(14) 0.0088(13)
O6 0.0253 0.0343 0.0564 -0.0182 0.0204 -0.0128
O7 0.0392 0.042 0.0572 -0.0265 0.0277 -0.0156
C4 0.0246(15) 0.0314(17) 0.0380(19) -0.0089(15) 0.0107(13) 0.0038(13)
C5 0.0212(14) 0.0341(18) 0.0397(19) -0.0100(15) 0.0112(13) 0.0019(12)
C6 0.0247(16) 0.041(2) 0.057(2) 0.0229(19) 0.0183(16) 0.0130(15)
C7 0.0267(16) 0.0334(18) 0.045(2) 0.0138(16) 0.0170(15) 0.0083(13)
C8 0.0232(15) 0.0392(19) 0.040(2) -0.0129(16) 0.0076(14) 0.0042(13)
C9 0.0250(16) 0.0367(19) 0.0395(19) -0.0142(16) 0.0112(14) 0.0034(13)
C10 0.0261(16) 0.0359(19) 0.050(2) 0.0177(17) 0.0170(15) 0.0080(14)
C11 0.0218(14) 0.0333(17) 0.0388(18) 0.0088(15) 0.0128(13) 0.0074(13)
C12 0.0244(16) 0.049(2) 0.042(2) -0.0158(18) 0.0056(15) 0.0076(15)
C13 0.0256(16) 0.047(2) 0.042(2) -0.0189(18) 0.0073(14) 0.0058(15)
C14 0.0321(18) 0.041(2) 0.045(2) -0.0135(17) 0.0179(16) 0.0030(15)
C15 0.0282(17) 0.043(2) 0.062(3) 0.027(2) 0.0231(18) 0.0106(15)
C16 0.0289(16) 0.0309(17) 0.045(2) 0.0152(16) 0.0153(15) 0.0095(13)
O8 0.0369(17) 0.144(4) 0.076(3) -0.074(3) -0.0146(17) 0.030(2)
O9 0.0304(15) 0.086(3) 0.099(3) -0.051(2) 0.0155(18) 0.0097(16)
O10 0.059(2) 0.090(3) 0.159(5) 0.084(3) 0.073(3) 0.045(2)
O6A 0.0253(12) 0.0343(13) 0.0564(17) 0.0182(12) 0.0204(11) 0.0128(10)
O4B 0.0264(12) 0.0399(15) 0.0357(14) -0.0070(11) 0.0068(10) 0.0120(10)
O2C 0.0372(14) 0.0509(18) 0.0517(18) -0.0264(15) 0.0135(13) 0.0064(13)
O7C 0.0392(15) 0.0420(16) 0.0572(19) 0.0265(14) 0.0277(14) 0.0156(12)
Zn2A 0.01862 0.0224 0.0312 0.00041 0.0102 0.00148
Zn1B 0.01719 0.0234 0.0268 -6e-05 0.00836 -0.00261
Zn1C 0.01719(18) 0.0234(2) 0.0268(2) 0.00006(13) 0.00836(14) 0.00261(12)
Zn2C 0.01862 0.0224 0.0312 0.00041 0.0102 0.00148
loop_
_geom_bond_atom_site_label_1
_geom_bond_atom_site_label_2
_geom_bond_site_symmetry_1
_geom_bond_site_symmetry_2
Zn1 O1 1_555 1_555
O1 C1 1_555 1_555
O2 Zn1 1_555 1_555
O3 Zn1 1_555 1_555
O4 Zn1 1_555 1_555
C1 O5 1_555 1_555
Zn2 O3 1_555 1_555
C2 O3 1_555 1_555
O5 Zn2 1_555 1_555
C3 C1 1_555 1_555
O6 Zn2 1_555 1_555
O7 Zn2 1_555 1_555
C4 C2 1_555 1_555
C5 C2 1_555 1_555
C6 C3 1_555 1_555
C7 C3 1_555 1_555
C8 C4 1_555 1_555
H1 C4 1_555 1_555
C9 C5 1_555 1_555
H2 C5 1_555 1_555
C10 C6 1_555 1_555
H3 C6 1_555 1_555
C11 C7 1_555 1_555
H4 C7 1_555 1_555
C12 C8 1_555 1_555
C13 C8 1_555 1_555
C14 C9 1_555 1_555
C15 C10 1_555 1_555
C16 C10 1_555 1_555
O8 C12 1_555 1_555
H5 C13 1_555 1_555
O9 C14 1_555 1_555
O10 C15 1_555 1_555
H6 C16 1_555 1_555
N1 H7 1_555 1_555
H8 N1 1_555 1_555
C17 N1 1_555 1_555
H9 C17 1_555 1_555
H10 C17 1_555 1_555
H11 C17 1_555 1_555
C18 N1 1_555 1_555
H12 C18 1_555 1_555
H13 C18 1_555 1_555
H14 C18 1_555 1_555
N2 H15 1_555 1_555
H16 N2 1_555 1_555
C19 N2 1_555 1_555
H17 C19 1_555 1_555
H18 C19 1_555 1_555
H19 C19 1_555 1_555
C20 N2 1_555 1_555
H20 C20 1_555 1_555
H21 C20 1_555 1_555
H22 C20 1_555 1_555
O6A C11 1_555 1_555
O4B C12 1_555 1_555
O2C C14 1_555 1_555
O7C C15 1_555 1_555
Zn2A O6A 1_555 1_555
Zn1B O4B 1_555 1_555
Zn1C O2C 1_555 1_555
Zn2C O7C 1_555 1_555
C9 C13 1_555 1_555
C11 C16 1_555 1_555

#END
