
#######################################################################
#
#                 Cambridge Crystallographic Data Centre
#                                CCDC 
#
#######################################################################
#
# If this CIF has been generated from an entry in the Cambridge 
# Structural Database, then it will include bibliographic, chemical, 
# crystal, experimental, refinement or atomic coordinate data resulting 
# from the CCDC's data processing and validation procedures.
#
#######################################################################

data_KACZUM
_chemical_formula_moiety         '(C20 H14 N4 O6 Zn1)n'
_symmetry_cell_setting           monoclinic
_symmetry_space_group_name_H-M   'P 2/n'
_symmetry_Int_Tables_number      13
_space_group_name_Hall           '-P 2yac'
loop_
_symmetry_equiv_pos_site_id
_symmetry_equiv_pos_as_xyz
1 x,y,z
2 1/2-x,y,1/2-z
3 -x,-y,-z
4 1/2+x,-y,1/2+z
_cell_length_a                   11.3869(5)
_cell_length_b                   8.3323(4)
_cell_length_c                   13.9637(6)
_cell_angle_alpha                90
_cell_angle_beta                 96.310(3)
_cell_angle_gamma                90
_cell_volume                     1316.84
loop_
_atom_site_label
_atom_site_type_symbol
_atom_site_fract_x
_atom_site_fract_y
_atom_site_fract_z
Zn1 Zn 0.7500 0.65094(4) 0.7500
N1 N 0.63354(17) 0.5109(2) 0.67591(13)
C1 C 0.5174(2) 0.5297(3) 0.66729(16)
H1 H 0.4787 0.6176 0.6903
N2 N 0.46336(17) 0.4044(2) 0.62069(14)
H2 H 0.3884 0.3931 0.6066
C2 C 0.5488(2) 0.2976(3) 0.59948(15)
C3 C 0.6544(2) 0.3654(3) 0.63327(15)
H3 H 0.7284 0.3209 0.6284
C4 C 0.5227(2) 0.1450(3) 0.54953(15)
C5 C 0.4244(2) 0.1298(3) 0.47947(16)
H4 H 0.3737 0.2162 0.4659
C6 C 0.5966(2) 0.0139(3) 0.56918(15)
H5 H 0.6612 0.0227 0.6158
O1 O 0.84495(15) 0.8106(2) 0.68701(11)
C7 C 0.8872(2) 0.7600(3) 0.60972(16)
O2 O 0.87774(17) 0.6203(2) 0.58192(12)
C8 C 0.9472(2) 0.8860(3) 0.55509(15)
C9 C 0.9540(2) 1.0475(3) 0.58529(15)
O3 O 0.91133(17) 1.1016(2) 0.66611(12)
H6 H 0.8868 1.0257 0.6955
C10 C 0.9937(2) 0.8414(3) 0.47101(16)
H7 H 0.9896 0.7344 0.4519
N1B N 0.36646(17) -0.5109(2) 0.32409(13)
C1B C 0.4826(2) -0.5297(3) 0.33271(16)
H1B H 0.5213 -0.6176 0.3097
N2B N 0.53664(17) -0.4044(2) 0.37931(14)
H2B H 0.6116 -0.3931 0.3934
C2B C 0.4512(2) -0.2976(3) 0.40052(15)
C3B C 0.3456(2) -0.3654(3) 0.36673(15)
H3B H 0.2716 -0.3209 0.3716
C4B C 0.4773(2) -0.1450(3) 0.45047(15)
C5B C 0.5756(2) -0.1298(3) 0.52053(16)
H4B H 0.6263 -0.2162 0.5341
C6B C 0.4034(2) -0.0139(3) 0.43082(15)
H5B H 0.3388 -0.0227 0.3842
O1B O 1.15505(15) 1.1894(2) 0.31299(11)
C7B C 1.1128(2) 1.2400(3) 0.39028(16)
O2B O 1.12226(17) 1.3797(2) 0.41808(12)
C8B C 1.0528(2) 1.1140(3) 0.44491(15)
C9B C 1.0460(2) 0.9525(3) 0.41471(15)
O3B O 1.08867(17) 0.8984(2) 0.33389(12)
H6B H 1.1132 0.9743 0.3045
C10B C 1.0063(2) 1.1586(3) 0.52899(16)
H7B H 1.0104 1.2656 0.5481
Zn1B Zn 0.2500 -0.65094(4) 0.2500
Zn1B_2 Zn 1.2500 1.34906(4) 0.2500
N1A N 0.86646(17) 0.5109(2) 0.82409(13)
O1A O 0.65505(15) 0.8106(2) 0.81299(11)
loop_
_geom_bond_atom_site_label_1
_geom_bond_atom_site_label_2
_geom_bond_site_symmetry_1
_geom_bond_site_symmetry_2
Zn1 N1 1_555 1_555
N1 C1 1_555 1_555
C1 H1 1_555 1_555
N2 C1 1_555 1_555
H2 N2 1_555 1_555
C2 N2 1_555 1_555
C3 N1 1_555 1_555
H3 C3 1_555 1_555
C4 C2 1_555 1_555
C5 C4 1_555 1_555
H4 C5 1_555 1_555
C6 C4 1_555 1_555
H5 C6 1_555 1_555
O1 Zn1 1_555 1_555
C7 O1 1_555 1_555
O2 C7 1_555 1_555
C8 C7 1_555 1_555
C9 C8 1_555 1_555
O3 C9 1_555 1_555
H6 O3 1_555 1_555
C10 C8 1_555 1_555
H7 C10 1_555 1_555
N1B C1B 1_555 1_555
C1B H1B 1_555 1_555
N2B C1B 1_555 1_555
H2B N2B 1_555 1_555
C2B N2B 1_555 1_555
C3B N1B 1_555 1_555
H3B C3B 1_555 1_555
C4B C2B 1_555 1_555
C5B C6 1_555 1_555
H4B C5B 1_555 1_555
C6B C5 1_555 1_555
H5B C6B 1_555 1_555
O1B C7B 1_555 1_555
C7B O2B 1_555 1_555
C8B C7B 1_555 1_555
C9B C10 1_555 1_555
O3B C9B 1_555 1_555
H6B O3B 1_555 1_555
C10B C9 1_555 1_555
H7B C10B 1_555 1_555
Zn1B N1B 1_555 1_555
Zn1B_2 O1B 1_555 1_555
N1A Zn1 1_555 1_555
O1A Zn1 1_555 1_555
C2 C3 1_555 1_555
C2B C3B 1_555 1_555
C4B C5B 1_555 1_555
C4B C6B 1_555 1_555
C8B C9B 1_555 1_555
C8B C10B 1_555 1_555

#END
