
#######################################################################
#
#                 Cambridge Crystallographic Data Centre
#                                CCDC 
#
#######################################################################
#
# If this CIF has been generated from an entry in the Cambridge 
# Structural Database, then it will include bibliographic, chemical, 
# crystal, experimental, refinement or atomic coordinate data resulting 
# from the CCDC's data processing and validation procedures.
#
#######################################################################

data_KADBAV
_chemical_formula_moiety         '(C52 H36 N8 O12 Zn2)n'
_symmetry_cell_setting           monoclinic
_symmetry_space_group_name_H-M   'P 21/n'
_symmetry_Int_Tables_number      14
_space_group_name_Hall           '-P 2yn'
loop_
_symmetry_equiv_pos_site_id
_symmetry_equiv_pos_as_xyz
1 x,y,z
2 1/2-x,1/2+y,1/2-z
3 -x,-y,-z
4 1/2+x,1/2-y,1/2+z
_cell_length_a                   12.8815(9)
_cell_length_b                   15.2513(11)
_cell_length_c                   14.1699(10)
_cell_angle_alpha                90
_cell_angle_beta                 92.331(4)
_cell_angle_gamma                90
_cell_volume                     2781.51
loop_
_atom_site_label
_atom_site_type_symbol
_atom_site_fract_x
_atom_site_fract_y
_atom_site_fract_z
Zn1 Zn 0.14874(2) 0.76341(2) 0.25099(2)
N1 N 0.25641(16) 0.72481(15) 0.34888(16)
C1 C 0.3039(2) 0.77182(19) 0.4158(2)
H1 H 0.2915 0.8310 0.4262
N2 N 0.37169(18) 0.72367(15) 0.46641(17)
H2 H 0.4099 0.7416 0.5137
C2 C 0.3699(2) 0.64044(18) 0.4301(2)
C3 C 0.2983(2) 0.64223(18) 0.3579(2)
H3 H 0.2801 0.5946 0.3198
C4 C 0.4375(2) 0.56955(18) 0.4666(2)
C5 C 0.4925(2) 0.5752(2) 0.5524(2)
H4 H 0.4884 0.6260 0.5885
C6 C 0.4463(3) 0.4940(2) 0.4151(2)
H5 H 0.4105 0.4892 0.3570
N3 N 0.22515(16) 0.80974(14) 0.14257(15)
C7 C 0.2195(3) 0.7844(2) 0.0556(2)
H6 H 0.1746 0.7409 0.0326
N4 N 0.2857(2) 0.82772(19) 0.00240(18)
H7 H 0.2929 0.8205 -0.0572
C8 C 0.3398(2) 0.8855(2) 0.0593(2)
C9 C 0.3012(2) 0.8731(2) 0.1471(2)
H8 H 0.3232 0.9030 0.2015
C10 C 0.4215(2) 0.9434(2) 0.0283(2)
C11 C 0.4681(3) 0.9306(2) -0.0570(2)
H9 H 0.4473 0.8842 -0.0959
C12 C 0.5457(3) 0.9867(2) -0.0845(2)
H10 H 0.5765 0.9774 -0.1418
O1 O 0.04731(13) 0.84393(15) 0.30655(14)
C13 C 0.0870(2) 0.9153(2) 0.33064(19)
O2 O 0.18317(14) 0.93140(16) 0.32732(15)
C14 C 0.0195(2) 0.9867(2) 0.3653(2)
C15 C 0.0606(2) 1.0683(2) 0.3933(2)
C16 C -0.0049(2) 1.1327(2) 0.4256(3)
H11 H 0.0222 1.1863 0.4461
C17 C -0.1105(2) 1.1175(2) 0.4275(2)
H12 H -0.1533 1.1617 0.4491
C18 C -0.1552(2) 1.0382(2) 0.3982(2)
C19 C -0.0886(2) 0.9740(2) 0.3693(2)
H13 H -0.1161 0.9197 0.3517
O3 O 0.16324(15) 1.08600(17) 0.39163(19)
H14 H 0.1935 1.0442 0.3688
C20 C -0.2691(2) 1.0233(2) 0.3967(2)
C21 C -0.33764(19) 1.09134(19) 0.3745(2)
H15 H -0.3115 1.1476 0.3666
C22 C -0.4441(2) 1.07763(19) 0.36394(19)
C23 C -0.4835(2) 0.9940(2) 0.3757(2)
C24 C -0.4168(2) 0.9266(2) 0.4044(3)
H16 H -0.4433 0.8714 0.4175
C25 C -0.3117(2) 0.9416(2) 0.4133(2)
H17 H -0.2678 0.8955 0.4310
O4 O -0.58657(15) 0.97472(16) 0.3611(2)
H18 H -0.6181 1.0191 0.3443
C26 C -0.5118(2) 1.1547(2) 0.3383(2)
O5 O -0.48471(18) 1.22842(15) 0.36772(18)
O6 O -0.59334(14) 1.14252(14) 0.28939(14)
N1B N 0.74359(16) 0.27519(15) 0.65112(16)
C1B C 0.6961(2) 0.22818(19) 0.5842(2)
H1B H 0.7085 0.1690 0.5738
N2B N 0.62831(18) 0.27633(15) 0.53359(17)
H2B H 0.5901 0.2584 0.4863
C2B C 0.6301(2) 0.35956(18) 0.5699(2)
C3B C 0.7017(2) 0.35777(18) 0.6421(2)
H3B H 0.7199 0.4054 0.6802
C4B C 0.5625(2) 0.43045(18) 0.5334(2)
C5B C 0.5075(2) 0.4248(2) 0.4476(2)
H4B H 0.5116 0.3740 0.4115
C6B C 0.5537(3) 0.5060(2) 0.5849(2)
H5B H 0.5895 0.5108 0.6430
N3B N 0.77485(16) 1.19026(14) -0.14257(15)
C7B C 0.7805(3) 1.2156(2) -0.0556(2)
H6B H 0.8254 1.2591 -0.0326
N4B N 0.7143(2) 1.17228(19) -0.00240(18)
H7B H 0.7071 1.1795 0.0572
C8B C 0.6602(2) 1.1145(2) -0.0593(2)
C9B C 0.6988(2) 1.1269(2) -0.1471(2)
H8B H 0.6768 1.0970 -0.2015
C10B C 0.5785(2) 1.0566(2) -0.0283(2)
C11B C 0.5319(3) 1.0694(2) 0.0570(2)
H9B H 0.5527 1.1158 0.0959
C12B C 0.4543(3) 1.0133(2) 0.0845(2)
H10B H 0.4235 1.0226 0.1418
Zn1B Zn 0.85126(2) 0.23659(2) 0.74901(2)
O1B O 0.95269(13) 0.15607(15) 0.69345(14)
C13B C 0.9130(2) 0.0847(2) 0.66936(19)
O2B O 0.81683(14) 0.06860(16) 0.67268(15)
C14B C 0.9805(2) 0.0133(2) 0.6347(2)
C15B C 0.9394(2) -0.0683(2) 0.6067(2)
C16B C 1.0049(2) -0.1327(2) 0.5744(3)
H11B H 0.9778 -0.1863 0.5539
C17B C 1.1105(2) -0.1175(2) 0.5725(2)
H12B H 1.1533 -0.1617 0.5509
C18B C 1.1552(2) -0.0382(2) 0.6018(2)
C19B C 1.0886(2) 0.0260(2) 0.6307(2)
H13B H 1.1161 0.0803 0.6483
O3B O 0.83676(15) -0.08600(17) 0.60837(19)
H14B H 0.8065 -0.0442 0.6312
C20B C 1.2691(2) -0.0233(2) 0.6033(2)
C21B C 1.33764(19) -0.09134(19) 0.6255(2)
H15B H 1.3115 -0.1476 0.6334
C22B C 1.4441(2) -0.07763(19) 0.63606(19)
C23B C 1.4835(2) 0.0060(2) 0.6243(2)
C24B C 1.4168(2) 0.0734(2) 0.5956(3)
H16B H 1.4433 0.1286 0.5825
C25B C 1.3117(2) 0.0584(2) 0.5867(2)
H17B H 1.2678 0.1045 0.5690
O4B O 1.58657(15) 0.02528(16) 0.6389(2)
H18B H 1.6181 -0.0191 0.6557
C26B C 1.5118(2) -0.1547(2) 0.6617(2)
O5B O 1.48471(18) -0.22842(15) 0.63228(18)
O6B O 1.59334(14) -0.14252(14) 0.71061(14)
Zn1A Zn -0.64874(2) 1.26341(2) 0.24901(2)
Zn1B_2 Zn 0.85126(2) 1.23659(2) -0.25099(2)
Zn1C Zn 1.64874(2) -0.26341(2) 0.75099(2)
N3B_2 N 0.77485(16) 0.19026(14) 0.85743(15)
O6A O 0.09334(14) 0.64252(14) 0.21061(14)
O6C O 0.90666(14) 0.35748(14) 0.78939(14)
loop_
_geom_bond_atom_site_label_1
_geom_bond_atom_site_label_2
_geom_bond_site_symmetry_1
_geom_bond_site_symmetry_2
Zn1 N1 1_555 1_555
N1 C1 1_555 1_555
C1 H1 1_555 1_555
N2 C1 1_555 1_555
H2 N2 1_555 1_555
C2 N2 1_555 1_555
C3 N1 1_555 1_555
H3 C3 1_555 1_555
C4 C2 1_555 1_555
C5 C4 1_555 1_555
H4 C5 1_555 1_555
C6 C4 1_555 1_555
H5 C6 1_555 1_555
N3 Zn1 1_555 1_555
C7 N3 1_555 1_555
H6 C7 1_555 1_555
N4 C7 1_555 1_555
H7 N4 1_555 1_555
C8 N4 1_555 1_555
C9 N3 1_555 1_555
H8 C9 1_555 1_555
C10 C8 1_555 1_555
C11 C10 1_555 1_555
H9 C11 1_555 1_555
C12 C11 1_555 1_555
H10 C12 1_555 1_555
O1 Zn1 1_555 1_555
C13 O1 1_555 1_555
O2 C13 1_555 1_555
C14 C13 1_555 1_555
C15 C14 1_555 1_555
C16 C15 1_555 1_555
H11 C16 1_555 1_555
C17 C16 1_555 1_555
H12 C17 1_555 1_555
C18 C17 1_555 1_555
C19 C14 1_555 1_555
H13 C19 1_555 1_555
O3 C15 1_555 1_555
H14 O3 1_555 1_555
C20 C18 1_555 1_555
C21 C20 1_555 1_555
H15 C21 1_555 1_555
C22 C21 1_555 1_555
C23 C22 1_555 1_555
C24 C23 1_555 1_555
H16 C24 1_555 1_555
C25 C20 1_555 1_555
H17 C25 1_555 1_555
O4 C23 1_555 1_555
H18 O4 1_555 1_555
C26 C22 1_555 1_555
O5 C26 1_555 1_555
O6 C26 1_555 1_555
N1B C1B 1_555 1_555
C1B H1B 1_555 1_555
N2B C1B 1_555 1_555
H2B N2B 1_555 1_555
C2B N2B 1_555 1_555
C3B N1B 1_555 1_555
H3B C3B 1_555 1_555
C4B C2B 1_555 1_555
C5B C6 1_555 1_555
H4B C5B 1_555 1_555
C6B C5 1_555 1_555
H5B C6B 1_555 1_555
N3B C7B 1_555 1_555
C7B H6B 1_555 1_555
N4B C7B 1_555 1_555
H7B N4B 1_555 1_555
C8B N4B 1_555 1_555
C9B N3B 1_555 1_555
H8B C9B 1_555 1_555
C10B C12 1_555 1_555
C11B C10B 1_555 1_555
H9B C11B 1_555 1_555
C12B C10 1_555 1_555
H10B C12B 1_555 1_555
Zn1B N1B 1_555 1_555
O1B Zn1B 1_555 1_555
C13B O1B 1_555 1_555
O2B C13B 1_555 1_555
C14B C13B 1_555 1_555
C15B C14B 1_555 1_555
C16B C15B 1_555 1_555
H11B C16B 1_555 1_555
C17B C16B 1_555 1_555
H12B C17B 1_555 1_555
C18B C17B 1_555 1_555
C19B C14B 1_555 1_555
H13B C19B 1_555 1_555
O3B C15B 1_555 1_555
H14B O3B 1_555 1_555
C20B C18B 1_555 1_555
C21B C20B 1_555 1_555
H15B C21B 1_555 1_555
C22B C21B 1_555 1_555
C23B C22B 1_555 1_555
C24B C23B 1_555 1_555
H16B C24B 1_555 1_555
C25B C20B 1_555 1_555
H17B C25B 1_555 1_555
O4B C23B 1_555 1_555
H18B O4B 1_555 1_555
C26B C22B 1_555 1_555
O5B C26B 1_555 1_555
O6B C26B 1_555 1_555
Zn1A O6 1_555 1_555
Zn1B_2 N3B 1_555 1_555
Zn1C O6B 1_555 1_555
N3B_2 Zn1B 1_555 1_555
O6A Zn1 1_555 1_555
O6C Zn1B 1_555 1_555
C2 C3 1_555 1_555
C8 C9 1_555 1_555
C18 C19 1_555 1_555
C24 C25 1_555 1_555
C2B C3B 1_555 1_555
C4B C5B 1_555 1_555
C4B C6B 1_555 1_555
C8B C9B 1_555 1_555
C8B C10B 1_555 1_555
C11B C12B 1_555 1_555
C18B C19B 1_555 1_555
C24B C25B 1_555 1_555

#END
