
#######################################################################
#
#                 Cambridge Crystallographic Data Centre
#                                CCDC 
#
#######################################################################
#
# If this CIF has been generated from an entry in the Cambridge 
# Structural Database, then it will include bibliographic, chemical, 
# crystal, experimental, refinement or atomic coordinate data resulting 
# from the CCDC's data processing and validation procedures.
#
#######################################################################

data_JEBCOJ
_chemical_formula_moiety         '(C24 H34 Cu3 N6 O26 Sm2)n'
_symmetry_cell_setting           trigonal
_symmetry_space_group_name_H-M   'P -3 c 1'
_symmetry_Int_Tables_number      165
_space_group_name_Hall           '-P 3 2"c'
loop_
_symmetry_equiv_pos_site_id
_symmetry_equiv_pos_as_xyz
1 x,y,z
2 -y,x-y,z
3 -x+y,-x,z
4 y,x,1/2-z
5 x-y,-y,1/2-z
6 -x,-x+y,1/2-z
7 -x,-y,-z
8 y,-x+y,-z
9 x-y,x,-z
10 -y,-x,1/2+z
11 -x+y,y,1/2+z
12 x,x-y,1/2+z
_cell_length_a                   13.3770(10)
_cell_length_b                   13.3770(10)
_cell_length_c                   14.462(2)
_cell_angle_alpha                90
_cell_angle_beta                 90
_cell_angle_gamma                120
_cell_volume                     2241.18
loop_
_atom_site_label
_atom_site_type_symbol
_atom_site_fract_x
_atom_site_fract_y
_atom_site_fract_z
Sm1 Sm 0.3334 -0.3333 -0.33243(2)
Cu1 Cu 0.5000 -0.5000 -0.5000
C1 C 0.2699(4) -0.5463(4) -0.4314(3)
C2 C 0.2544(4) -0.6477(4) -0.4899(3)
C3 C 0.1243(4) -0.4379(4) -0.1599(3)
H1 H 0.0392 -0.7063 0.0500
H2 H 0.1376 -0.6815 -0.0211
C4 C 0.1168(5) -0.5512(5) -0.1398(3)
H3 H 0.1935 -0.5393 -0.1283
H4 H 0.0857 -0.6007 -0.1935
N1 N 0.3474(3) -0.6107(3) -0.5587(2)
H5 H -0.0238 -0.6740 -0.0787
O1 O 0.3609(3) -0.4512(3) -0.4417(2)
O2 O 0.2455(3) -0.1950(4) -0.3730(2)
O3 O 0.4023(3) -0.5240(3) -0.1077(2)
O4 O 0.1829(3) -0.3813(3) -0.2284(2)
Sm1J Sm 0.3333 -0.3333 0.16757(2)
Sm1J_2 Sm 0.3333 -0.3333 -0.83243(2)
Cu1C Cu 0.5000 -0.5000 0.0000
Cu1B Cu 0.0000 -0.5000 -0.5000
Cu1A Cu 0.5000 0.0000 -0.5000
Cu1J Cu 0.0000 -0.5000 0.0000
Cu1K Cu 0.5000 0.0000 0.0000
C1B C 0.1838(6) -0.2699(4) -0.4314(3)
C1A C 0.5463(4) -0.1838(6) -0.4314(3)
C1I C 0.5463(4) -0.2699(4) 0.0686(3)
C1K C 0.2699(4) -0.1838(6) 0.0686(3)
C1J C 0.1838(6) -0.5463(4) 0.0686(3)
C2B C 0.0979(6) -0.2544(4) -0.4899(3)
C2A C 0.6477(4) -0.0979(6) -0.4899(3)
C2I C 0.6477(4) -0.2544(4) 0.0101(3)
C2K C 0.2544(4) -0.0979(6) 0.0101(3)
C2J C 0.0979(6) -0.6477(4) 0.0101(3)
C3A C 0.4379(4) -0.4378(6) -0.1599(3)
C3B C 0.4378(6) -0.1243(4) -0.1599(3)
C3I C 0.4379(4) -0.1243(4) -0.6599(3)
C3K C 0.1243(4) -0.4378(6) -0.6599(3)
C3J C 0.4378(6) -0.4379(4) -0.6599(3)
H1B H 0.2545 -0.0392 0.0500
H1A H 0.7063 -0.2545 0.0500
H1I H 0.7063 -0.0392 -0.4500
H1K H 0.0392 -0.2545 -0.4500
H1J H 0.2545 -0.7063 -0.4500
H2B H 0.1809 -0.1376 -0.0211
H2A H 0.6815 -0.1809 -0.0211
H2I H 0.6815 -0.1376 -0.5211
H2K H 0.1376 -0.1809 -0.5211
H2J H 0.1809 -0.6815 -0.5211
C4A C 0.5512(5) -0.3320(7) -0.1398(3)
C4B C 0.3320(7) -0.1168(5) -0.1398(3)
C4I C 0.5512(5) -0.1168(5) -0.6398(3)
C4K C 0.1168(5) -0.3320(7) -0.6398(3)
C4J C 0.3320(7) -0.5512(5) -0.6398(3)
H3A H 0.5393 -0.2672 -0.1283
H3B H 0.2672 -0.1935 -0.1283
H3I H 0.5393 -0.1935 -0.6283
H3K H 0.1935 -0.2672 -0.6283
H3J H 0.2672 -0.5393 -0.6283
H4A H 0.6007 -0.3136 -0.1935
H4B H 0.3136 -0.0857 -0.1935
H4I H 0.6007 -0.0857 -0.6935
H4K H 0.0857 -0.3136 -0.6935
H4J H 0.3136 -0.6007 -0.6935
N1F N 0.6526(3) -0.3893(3) -0.4413(2)
N1B N 0.0419(4) -0.3474(3) -0.5587(2)
N1A N 0.6107(3) -0.0419(4) -0.5587(2)
N1J N 0.0419(4) -0.6107(3) -0.0587(2)
N1I N 0.6107(3) -0.3474(3) -0.0587(2)
N1K N 0.3474(3) -0.0419(4) -0.0587(2)
N1G N 0.3893(3) 0.0419(4) -0.4413(2)
N1H N -0.0419(4) -0.6526(3) -0.4413(2)
H5A H 0.6740 -0.3498 -0.0787
H5B H 0.3498 0.0238 -0.0787
H5I H 0.6740 0.0238 -0.5787
H5K H -0.0238 -0.3498 -0.5787
H5J H 0.3498 -0.6740 -0.5787
H5D H 0.6502 -0.3260 -0.4213
H5C H 0.3260 -0.0238 -0.4213
H5E H 0.0238 -0.6502 -0.4213
O1B O 0.1879(4) -0.3609(3) -0.4417(2)
O1A O 0.4512(3) -0.1879(4) -0.4417(2)
O1J O 0.1879(4) -0.4512(3) 0.0583(2)
O1I O 0.4512(3) -0.3609(3) 0.0583(2)
O1K O 0.3609(3) -0.1879(4) 0.0583(2)
O1G O 0.5488(3) 0.1879(4) -0.5583(2)
O1F O 0.6391(3) -0.5488(3) -0.5583(2)
O1H O -0.1879(4) -0.6391(3) -0.5583(2)
O2B O 0.5595(5) -0.2455(3) -0.3730(2)
O2A O 0.1950(4) -0.5595(5) -0.3730(2)
O2J O 0.5595(5) -0.1950(4) 0.1270(2)
O2I O 0.1950(4) -0.2455(3) 0.1270(2)
O2K O 0.2455(3) -0.5595(5) 0.1270(2)
O3A O 0.5240(3) -0.0737(4) -0.1077(2)
O3B O 0.0737(4) -0.4023(3) -0.1077(2)
O3K O 0.4023(3) -0.0737(4) -0.6077(2)
O3E O 0.5977(3) 0.0737(4) -0.3923(2)
O3J O 0.0737(4) -0.5240(3) -0.6077(2)
O3D O -0.0737(4) -0.4760(3) -0.3923(2)
O3C O 0.4760(3) -0.5977(3) -0.3923(2)
O3I O 0.5240(3) -0.4023(3) -0.6077(2)
O4J O 0.4358(4) -0.3813(3) 0.2716(2)
O4A O 0.3813(3) -0.4358(4) -0.2284(2)
O4B O 0.4358(4) -0.1829(3) -0.2284(2)
O4K O 0.1829(3) -0.4358(4) 0.2716(2)
O4I O 0.3813(3) -0.1829(3) 0.2716(2)
O4I_2 O 0.3813(3) -0.1829(3) -0.7284(2)
O4K_2 O 0.1829(3) -0.4358(4) -0.7284(2)
O4J_2 O 0.4358(4) -0.3813(3) -0.7284(2)
O5 O 1.0000 -0.2726(10) -0.2500
H6 H 1.0629 -0.2208 -0.2290
H6E H 0.9371 -0.2837 -0.2710
O6 O 0.835(2) -0.176(2) -0.1811(15)
H7 H 0.858(11) -0.188(10) -0.130(3)
H8 H 0.843(11) -0.210(10) -0.227(4)
loop_
_geom_bond_atom_site_label_1
_geom_bond_atom_site_label_2
_geom_bond_site_symmetry_1
_geom_bond_site_symmetry_2
Sm1 O1 1_555 1_555
Cu1 N1 1_555 1_555
C1 C2 1_555 1_555
C2 N1 1_555 1_555
C3 C4 1_555 1_555
H1 C2J 1_555 1_555
H2 C2J 1_555 1_555
C4 H3 1_555 1_555
H4 C4 1_555 1_555
N1 C4J 1_555 1_555
H5 N1J 1_555 1_555
O1 Cu1 1_555 1_555
O2 Sm1 1_555 1_555
O3 Cu1C 1_555 1_555
O4 Sm1 1_555 1_555
O5 H6 1_555 1_555
O6 H7 1_555 1_555
H8 O6 1_555 1_555
Sm1J O1J 1_555 1_555
Sm1J_2 O4I_2 1_555 1_555
Cu1C N1I 1_555 1_555
Cu1B N1B 1_555 1_555
Cu1A N1A 1_555 1_555
Cu1J N1J 1_555 1_555
Cu1K N1K 1_555 1_555
C1B O2 1_555 1_555
C1A C2A 1_555 1_555
C1I C2I 1_555 1_555
C1K C2K 1_555 1_555
C1J C2J 1_555 1_555
C2B C1B 1_555 1_555
C2A H1I 1_555 1_555
C2I H1A 1_555 1_555
C2K H1B 1_555 1_555
C2J N1J 1_555 1_555
C3A O3 1_555 1_555
C3B C4B 1_555 1_555
C3I C4I 1_555 1_555
C3K C4K 1_555 1_555
C3J C4J 1_555 1_555
H1K C2B 1_555 1_555
H1J C2 1_555 1_555
H2B C2K 1_555 1_555
H2A C2I 1_555 1_555
H2I C2A 1_555 1_555
H2K C2B 1_555 1_555
H2J C2 1_555 1_555
C4A C3A 1_555 1_555
C4B H3B 1_555 1_555
C4I H3I 1_555 1_555
C4K H3K 1_555 1_555
C4J H3J 1_555 1_555
H3A C4A 1_555 1_555
H4A C4A 1_555 1_555
H4B C4B 1_555 1_555
H4I C4I 1_555 1_555
H4K C4K 1_555 1_555
H4J C4J 1_555 1_555
N1F Cu1 1_555 1_555
N1B C2B 1_555 1_555
N1A C2A 1_555 1_555
N1J C4 1_555 1_555
N1I C2I 1_555 1_555
N1K C2K 1_555 1_555
N1G Cu1A 1_555 1_555
N1H Cu1B 1_555 1_555
H5A N1I 1_555 1_555
H5B N1K 1_555 1_555
H5I N1A 1_555 1_555
H5K N1B 1_555 1_555
H5J N1 1_555 1_555
H5D N1F 1_555 1_555
H5C N1G 1_555 1_555
H5E N1H 1_555 1_555
O1B Sm1 1_555 1_555
O1A Sm1 1_555 1_555
O1J Cu1J 1_555 1_555
O1I Sm1J 1_555 1_555
O1K Sm1J 1_555 1_555
O1G Cu1A 1_555 1_555
O1F Cu1 1_555 1_555
O1H Cu1B 1_555 1_555
O2B Sm1 1_555 1_555
O2A Sm1 1_555 1_555
O2J Sm1J 1_555 1_555
O2I Sm1J 1_555 1_555
O2K Sm1J 1_555 1_555
O3A Cu1K 1_555 1_555
O3B C3 1_555 1_555
O3K Cu1A 1_555 1_555
O3E Cu1A 1_555 1_555
O3J Cu1B 1_555 1_555
O3D Cu1B 1_555 1_555
O3C Cu1 1_555 1_555
O3I Cu1 1_555 1_555
O4J Sm1J 1_555 1_555
O4A Sm1 1_555 1_555
O4B Sm1 1_555 1_555
O4K Sm1J 1_555 1_555
O4I Sm1J 1_555 1_555
O4I_2 C3I 1_555 1_555
O4K_2 Sm1J_2 1_555 1_555
O4J_2 Sm1J_2 1_555 1_555
H6E O5 1_555 1_555
C1 O1 1_555 1_555
C1 O2A 1_555 1_555
C3 O4 1_555 1_555
Cu1C O1I 1_555 1_555
Cu1B O1B 1_555 1_555
Cu1A O1A 1_555 1_555
Cu1J O3B 1_555 1_555
Cu1K O1K 1_555 1_555
C1B O1B 1_555 1_555
C1A O1A 1_555 1_555
C1A O2B 1_555 1_555
C1I O1I 1_555 1_555
C1I O2J 1_555 1_555
C1K O1K 1_555 1_555
C1K O2I 1_555 1_555
C1J O1J 1_555 1_555
C1J O2K 1_555 1_555
C3A O4A 1_555 1_555
C3B O3A 1_555 1_555
C3B O4B 1_555 1_555
C3I O3K 1_555 1_555
C3K O3J 1_555 1_555
C3K O4K_2 1_555 1_555
C3J O3I 1_555 1_555
C3J O4J_2 1_555 1_555
C4A N1I 1_555 1_555
C4B N1K 1_555 1_555
C4I N1A 1_555 1_555
C4K N1B 1_555 1_555

#END
