
#######################################################################
#
#                 Cambridge Crystallographic Data Centre
#                                CCDC 
#
#######################################################################
#
# If this CIF has been generated from an entry in the Cambridge 
# Structural Database, then it will include bibliographic, chemical, 
# crystal, experimental, refinement or atomic coordinate data resulting 
# from the CCDC's data processing and validation procedures.
#
#######################################################################

data_HOFJIX
_chemical_formula_moiety         '(C124 H84 Cu2 La2 N10 O28)n'
_symmetry_cell_setting           monoclinic
_symmetry_space_group_name_H-M   'P 21/c'
_symmetry_Int_Tables_number      14
_space_group_name_Hall           '-P 2ybc'
loop_
_symmetry_equiv_pos_site_id
_symmetry_equiv_pos_as_xyz
1 x,y,z
2 -x,1/2+y,1/2-z
3 -x,-y,-z
4 x,1/2-y,1/2+z
_cell_length_a                   27.130(5)
_cell_length_b                   11.761(2)
_cell_length_c                   43.999(13)
_cell_angle_alpha                90
_cell_angle_beta                 128.01(2)
_cell_angle_gamma                90
_cell_volume                     11061.4
loop_
_atom_site_label
_atom_site_type_symbol
_atom_site_fract_x
_atom_site_fract_y
_atom_site_fract_z
La1 La 0.44757(2) 0.41075(4) 0.199456(12)
La2 La 0.05093(2) 0.44106(4) 0.300512(12)
Cu1 Cu 0.56404(5) 0.39759(8) 0.31313(3)
Cu2 Cu -0.06596(5) 0.42108(8) 0.18649(3)
C1 C 0.1416(4) 0.4372(8) -0.1169(2)
H1 H 0.1247 0.3769 -0.1342
C2 C 0.1499(6) 0.6288(9) -0.1046(3)
H2 H 0.1394 0.7030 -0.1138
C3 C 0.1845(6) 0.4160(11) -0.0765(3)
H3 H 0.1965 0.3418 -0.0676
C4 C 0.1900(6) 0.6110(11) -0.0656(3)
H4 H 0.2050 0.6728 -0.0489
C5 C 0.2084(5) 0.5035(10) -0.0508(3)
C6 C 0.2489(5) 0.4813(9) -0.0085(2)
C7 C 0.2886(5) 0.3872(10) 0.0081(3)
H5 H 0.2902 0.3364 -0.0074
C8 C 0.2455(6) 0.5477(12) 0.0158(4)
H6 H 0.2161 0.6058 0.0053
C9 C 0.3266(6) 0.3683(10) 0.0485(3)
H7 H 0.3534 0.3061 0.0591
C10 C 0.2836(5) 0.5319(10) 0.0547(3)
H8 H 0.2820 0.5842 0.0699
C11 C 0.3242(6) 0.4420(8) 0.0724(3)
C12 C 0.3647(6) 0.4244(8) 0.1146(3)
C13 C 0.8336(5) 0.3208(10) 0.1851(3)
H9 H 0.8490 0.2531 0.1830
C14 C 0.8373(4) 0.5156(10) 0.1896(3)
H10 H 0.8555 0.5843 0.1909
C15 C 0.7838(5) 0.3187(9) 0.1860(4)
H11 H 0.7664 0.2490 0.1848
C16 C 0.7869(4) 0.5164(9) 0.1902(3)
H12 H 0.7715 0.5854 0.1915
C17 C 0.7591(5) 0.4160(9) 0.1889(3)
C18 C 0.7052(5) 0.4116(9) 0.1901(3)
C19 C 0.6967(5) 0.3232(9) 0.2068(4)
H13 H 0.7240 0.2616 0.2164
C20 C 0.6631(5) 0.5032(9) 0.1751(4)
H14 H 0.6672 0.5641 0.1633
C21 C 0.6485(5) 0.3234(9) 0.2096(3)
H15 H 0.6432 0.2618 0.2206
C22 C 0.6149(5) 0.5010(9) 0.1783(4)
H16 H 0.5863 0.5604 0.1679
C23 C 0.6089(5) 0.4137(10) 0.1962(4)
C24 C 0.5557(5) 0.4137(9) 0.1984(4)
C25 C 0.4713(5) 0.5031(9) 0.3183(4)
H17 H 0.4900 0.5702 0.3190
C26 C 0.4622(6) 0.3092(9) 0.3136(4)
H18 H 0.4772 0.2390 0.3128
C27 C 0.4220(5) 0.5083(8) 0.3197(3)
H19 H 0.4113 0.5779 0.3243
C28 C 0.4117(5) 0.3113(8) 0.3123(4)
H20 H 0.3920 0.2434 0.3099
C29 C 0.3881(5) 0.4131(9) 0.3145(4)
C30 C 0.3314(5) 0.4231(10) 0.3129(3)
C31 C 0.3251(5) 0.5038(9) 0.3328(3)
H21 H 0.3574 0.5548 0.3488
C32 C 0.2820(5) 0.3406(10) 0.2904(4)
H22 H 0.2859 0.2828 0.2776
C33 C 0.2705(5) 0.5098(9) 0.3293(4)
H23 H 0.2663 0.5673 0.3421
C34 C 0.2283(5) 0.3485(9) 0.2880(3)
H24 H 0.1961 0.2962 0.2732
C35 C 0.2226(5) 0.4332(9) 0.3074(3)
C36 C 0.1633(5) 0.4444(9) 0.3035(4)
C37 C 0.0344(5) 0.5084(10) 0.1867(4)
H25 H 0.0196 0.5773 0.1885
C38 C 0.0288(5) 0.3156(9) 0.1817(3)
H26 H 0.0088 0.2482 0.1794
C39 C 0.0849(7) 0.5082(10) 0.1868(4)
H27 H 0.1017 0.5774 0.1871
C40 C 0.0807(5) 0.3091(9) 0.1825(4)
H28 H 0.0948 0.2395 0.1804
C41 C 0.1112(5) 0.4112(10) 0.1864(3)
C42 C 0.1687(5) 0.4134(11) 0.1887(4)
C43 C 0.1790(5) 0.3251(10) 0.1713(3)
H29 H 0.1492 0.2680 0.1577
C44 C 0.2154(5) 0.4916(10) 0.2101(4)
H30 H 0.2107 0.5478 0.2230
C45 C 0.2331(5) 0.3232(10) 0.1745(4)
H31 H 0.2386 0.2668 0.1620
C46 C 0.2695(5) 0.4905(9) 0.2133(3)
H32 H 0.2993 0.5473 0.2270
C47 C 0.2788(5) 0.4051(10) 0.1961(4)
C48 C 0.3397(5) 0.4034(10) 0.2004(4)
C49 C 0.3627(5) 0.4660(8) 0.6153(2)
H33 H 0.3821 0.4039 0.6318
C50 C 0.3449(5) 0.6640(8) 0.6061(3)
H34 H 0.3515 0.7366 0.6163
C51 C 0.3201(6) 0.4499(9) 0.5751(3)
H35 H 0.3119 0.3765 0.5652
C52 C 0.3045(6) 0.6463(9) 0.5666(3)
H36 H 0.2857 0.7084 0.5501
C53 C 0.2915(5) 0.5369(9) 0.5511(3)
C54 C 0.2483(5) 0.5170(10) 0.5082(3)
C55 C 0.2612(6) 0.4297(12) 0.4924(4)
H37 H 0.2953 0.3821 0.5085
C56 C 0.1972(5) 0.5866(11) 0.4832(3)
H38 H 0.1889 0.6461 0.4934
C57 C 0.2222(6) 0.4145(10) 0.4522(3)
H39 H 0.2315 0.3568 0.4420
C58 C 0.1579(5) 0.5704(11) 0.4434(3)
H40 H 0.1234 0.6174 0.4274
C59 C 0.1710(6) 0.4816(9) 0.4275(3)
C60 C 0.1259(5) 0.4612(9) 0.3846(3)
C61 C -0.3386(5) 0.4928(10) 0.3130(3)
H41 H -0.3547 0.5589 0.3155
C62 C -0.3380(5) 0.2996(9) 0.3094(3)
H42 H -0.3545 0.2294 0.3086
C63 C -0.2900(5) 0.5025(10) 0.3101(3)
H43 H -0.2760 0.5739 0.3094
C64 C -0.2885(5) 0.3030(10) 0.3077(4)
H44 H -0.2724 0.2357 0.3059
C65 C -0.2634(5) 0.4060(10) 0.3085(3)
C66 C -0.2109(5) 0.4102(9) 0.3059(3)
C67 C -0.2050(5) 0.5058(10) 0.2888(3)
H45 H -0.2333 0.5655 0.2797
C68 C -0.1688(6) 0.3254(10) 0.3182(4)
H46 H -0.1722 0.2614 0.3293
C69 C -0.1571(4) 0.5112(8) 0.2854(3)
H47 H -0.1542 0.5737 0.2736
C70 C -0.1214(5) 0.3292(9) 0.3153(4)
H48 H -0.0939 0.2684 0.3239
C71 C -0.1144(5) 0.4245(10) 0.2993(4)
C72 C -0.0609(5) 0.4278(9) 0.2976(4)
C73 C 0.5209(4) 0.6299(6) 0.2704(2)
C74 C 0.4818(4) 0.6938(6) 0.2318(2)
C75 C 0.0204(4) 0.7223(5) 0.26723(19)
C76 C -0.0216(4) 0.6564(6) 0.22809(19)
N1 N 0.1256(4) 0.5438(6) -0.12966(18)
N2 N 0.8603(4) 0.4201(8) 0.1871(2)
N3 N 0.4927(4) 0.4039(8) 0.3161(3)
N4 N 0.0060(4) 0.4123(8) 0.1840(3)
N5 N 0.3749(4) 0.5717(6) 0.62970(19)
N6 N -0.3628(4) 0.3936(9) 0.3122(2)
O1 O 0.3995(4) 0.3416(6) 0.1297(2)
O2 O 0.3608(4) 0.4979(6) 0.1344(2)
O3 O 0.5203(4) 0.4987(6) 0.1861(3)
O4 O 0.5489(3) 0.3331(7) 0.2140(2)
O5 O 0.1598(4) 0.5185(8) 0.3219(3)
O6 O 0.1205(4) 0.3768(9) 0.2824(3)
O7 O 0.3772(4) 0.4827(7) 0.2174(3)
O8 O 0.3463(4) 0.3225(7) 0.1845(3)
O9 O 0.0854(4) 0.5331(7) 0.3640(2)
O10 O 0.1349(4) 0.3749(7) 0.3715(2)
O11 O -0.0252(4) 0.3454(7) 0.3085(3)
O12 O -0.0554(3) 0.5150(7) 0.2824(2)
O13 O 0.5198(3) 0.5187(6) 0.26600(15)
O14 O 0.4474(3) 0.6214(7) 0.20013(14)
O15 O 0.4890(3) 0.8010(5) 0.23415(16)
O16 O 0.5519(3) 0.6814(4) 0.30059(14)
O17 O -0.0153(3) 0.5486(4) 0.23245(16)
O18 O 0.0516(3) 0.6675(4) 0.29845(15)
O19 O -0.0568(3) 0.7073(4) 0.19863(15)
O20 O 0.0175(3) 0.8274(4) 0.26490(15)
La1A La 0.55243(2) 0.91075(4) 0.300544(12)
La2A La -0.05093(2) 0.94106(4) 0.199488(12)
Cu1_2 Cu -0.43596(5) 0.39759(8) 0.31313(3)
Cu1A Cu 0.43596(5) 0.89759(8) 0.18687(3)
Cu1B Cu 0.43596(5) 0.60241(8) 0.68687(3)
Cu2_2 Cu 0.93404(5) 0.42108(8) 0.18649(3)
Cu2A Cu 0.06596(5) 0.92108(8) 0.31351(3)
Cu2B Cu 0.06596(5) 0.57892(8) -0.18649(3)
N1B N -0.1256(4) 0.4562(6) 0.12966(18)
N2_2 N -0.1397(4) 0.4201(8) 0.1871(2)
N5B N 0.6251(4) 0.4283(6) 0.37030(19)
N6_2 N 0.6372(4) 0.3936(9) 0.3122(2)
O15A O 0.5110(3) 0.3010(5) 0.26585(16)
O16A O 0.4481(3) 0.1814(4) 0.19941(14)
O19A O 0.0568(3) 0.2073(4) 0.30137(15)
O20A O -0.0175(3) 0.3274(4) 0.23510(15)
C77 C 0.5400(8) 0.3841(11) 0.0663(5)
H49 H 0.5597 0.3509 0.0572
C78 C 0.4890(6) 0.3676(12) 0.0921(5)
H50 H 0.4731 0.3218 0.1015
C79 C 0.5333(7) 0.5007(9) 0.0648(4)
H51 H 0.5491 0.5444 0.0549
C80 C 0.4795(7) 0.4850(10) 0.0912(4)
H52 H 0.4580 0.5161 0.0994
C81 C 0.5043(6) 0.5532(9) 0.0774(4)
C82 C 0.4987(6) 0.6774(10) 0.0767(4)
C83 C 0.5454(6) 0.7502(9) 0.0822(4)
H53 H 0.5801 0.7190 0.0857
C84 C 0.4472(6) 0.7331(11) 0.0717(5)
H54 H 0.4150 0.6898 0.0677
C85 C 0.5400(5) 0.8673(9) 0.0824(4)
H55 H 0.5709 0.9125 0.0855
C86 C 0.4446(7) 0.8515(10) 0.0728(5)
H56 H 0.4108 0.8853 0.0696
C87 C 0.4910(6) 0.9195(9) 0.0783(4)
C88 C 0.4840(6) 1.0452(9) 0.0765(4)
N7 N 0.5181(5) 0.3167(8) 0.0809(4)
O21 O 0.4403(6) 1.0922(9) 0.0718(4)
O22 O 0.5316(4) 1.0990(7) 0.0820(3)
H57 H 0.5258 1.1678 0.0809
C89 C 0.2188(13) 0.2454(18) 0.0885(8)
H58 H 0.2577 0.2148 0.1081
C90 C 0.1205(16) 0.221(3) 0.0357(9)
H59 H 0.0870 0.1755 0.0173
C91 C 0.2131(9) 0.3522(13) 0.0876(5)
H60 H 0.2474 0.3937 0.1074
C92 C 0.1115(11) 0.3409(18) 0.0319(6)
H61 H 0.0733 0.3705 0.0112
C93 C 0.1590(8) 0.4138(14) 0.0587(5)
C94 C 0.1557(6) 0.5344(10) 0.0575(4)
C95 C 0.1977(7) 0.6035(15) 0.0920(4)
H62 H 0.2248 0.5697 0.1161
C96 C 0.1132(9) 0.5986(15) 0.0237(5)
H63 H 0.0840 0.5601 0.0008
C97 C 0.1963(8) 0.7168(13) 0.0882(5)
H64 H 0.2267 0.7594 0.1097
C98 C 0.1132(9) 0.7104(14) 0.0232(5)
H65 H 0.0843 0.7487 0.0002
C99 C 0.1548(9) 0.7712(11) 0.0560(5)
C100 C 0.1506(11) 0.9038(13) 0.0518(8)
N8 N 0.1721(13) 0.171(2) 0.0632(8)
O23 O 0.1076(10) 0.9504(11) 0.0228(5)
O24 O 0.1996(7) 0.9538(10) 0.0841(5)
H66 H 0.1965 1.0230 0.0814
C101 C 0.0379(8) 1.0003(10) 0.0675(5)
H67 H 0.0565 1.0352 0.0580
C102 C -0.0021(8) 1.0155(11) 0.0998(4)
H68 H -0.0131 1.0610 0.1120
C103 C 0.0308(8) 0.8845(13) 0.0643(6)
H69 H 0.0409 0.8428 0.0509
C104 C -0.0093(7) 0.8990(9) 0.0994(4)
H70 H -0.0256 0.8664 0.1107
C105 C 0.0086(6) 0.8316(10) 0.0815(4)
C106 C 0.0028(6) 0.7041(10) 0.0818(4)
C107 C 0.0456(6) 0.6327(10) 0.0835(5)
H71 H 0.0777 0.6657 0.0845
C108 C -0.0449(7) 0.6503(12) 0.0798(5)
H72 H -0.0746 0.6943 0.0785
C109 C 0.0424(6) 0.5152(10) 0.0837(4)
H73 H 0.0723 0.4707 0.0854
C110 C -0.0492(7) 0.5361(11) 0.0795(5)
H74 H -0.0817 0.5029 0.0781
C111 C -0.0051(6) 0.4660(10) 0.0814(4)
C112 C -0.0116(6) 0.3411(11) 0.0818(4)
N9 N 0.0199(6) 1.0643(10) 0.0833(4)
O25 O 0.0320(5) 0.2837(8) 0.0831(3)
H75 H 0.0261 0.2153 0.0830
O26 O -0.0546(5) 0.2935(9) 0.0787(4)
C113 C 0.3052(7) 0.6705(10) 0.4253(5)
H76 H 0.2722 0.7173 0.4070
C114 C 0.4065(8) 0.6500(11) 0.4781(5)
H77 H 0.4435 0.6832 0.4989
C115 C 0.2972(7) 0.5486(9) 0.4215(4)
H78 H 0.2584 0.5160 0.4029
C116 C 0.4055(7) 0.5293(11) 0.4742(4)
H79 H 0.4415 0.4854 0.4898
C117 C 0.3494(6) 0.4826(9) 0.4467(3)
C118 C 0.3427(6) 0.3518(7) 0.4427(4)
C119 C 0.3831(6) 0.2856(9) 0.4759(3)
H80 H 0.4129 0.3194 0.4997
C120 C 0.2987(6) 0.3028(11) 0.4084(4)
H81 H 0.2714 0.3481 0.3868
C121 C 0.3770(6) 0.1649(10) 0.4721(4)
H82 H 0.4031 0.1190 0.4936
C122 C 0.2934(6) 0.1806(11) 0.4047(4)
H83 H 0.2639 0.1459 0.3811
C123 C 0.3338(5) 0.1173(9) 0.4376(4)
C124 C 0.3239(6) -0.0084(9) 0.4320(4)
N10 N 0.3592(7) 0.7171(9) 0.4546(4)
O27 O 0.3691(6) -0.0652(8) 0.4660(3)
H84 H 0.3632 -0.1339 0.4625
O28 O 0.2852(6) -0.0575(8) 0.4044(3)
loop_
_geom_bond_atom_site_label_1
_geom_bond_atom_site_label_2
_geom_bond_site_symmetry_1
_geom_bond_site_symmetry_2
La1 O1 1_555 1_555
La2 O5 1_555 1_555
Cu1 N3 1_555 1_555
Cu2 N4 1_555 1_555
C1 H1 1_555 1_555
C2 H2 1_555 1_555
C3 C1 1_555 1_555
H3 C3 1_555 1_555
C4 C2 1_555 1_555
H4 C4 1_555 1_555
C5 C3 1_555 1_555
C6 C5 1_555 1_555
C7 C6 1_555 1_555
H5 C7 1_555 1_555
C8 C6 1_555 1_555
H6 C8 1_555 1_555
C9 C7 1_555 1_555
H7 C9 1_555 1_555
C10 C8 1_555 1_555
H8 C10 1_555 1_555
C11 C9 1_555 1_555
C12 C11 1_555 1_555
C13 H9 1_555 1_555
C14 H10 1_555 1_555
C15 C13 1_555 1_555
H11 C15 1_555 1_555
C16 C14 1_555 1_555
H12 C16 1_555 1_555
C17 C15 1_555 1_555
C18 C17 1_555 1_555
C19 C18 1_555 1_555
H13 C19 1_555 1_555
C20 C18 1_555 1_555
H14 C20 1_555 1_555
C21 C19 1_555 1_555
H15 C21 1_555 1_555
C22 C20 1_555 1_555
H16 C22 1_555 1_555
C23 C21 1_555 1_555
C24 C23 1_555 1_555
C25 H17 1_555 1_555
C26 H18 1_555 1_555
C27 C25 1_555 1_555
H19 C27 1_555 1_555
C28 C26 1_555 1_555
H20 C28 1_555 1_555
C29 C27 1_555 1_555
C30 C29 1_555 1_555
C31 C30 1_555 1_555
H21 C31 1_555 1_555
C32 C30 1_555 1_555
H22 C32 1_555 1_555
C33 C31 1_555 1_555
H23 C33 1_555 1_555
C34 C32 1_555 1_555
H24 C34 1_555 1_555
C35 C33 1_555 1_555
C36 C35 1_555 1_555
C37 H25 1_555 1_555
C38 H26 1_555 1_555
C39 C37 1_555 1_555
H27 C39 1_555 1_555
C40 C38 1_555 1_555
H28 C40 1_555 1_555
C41 C39 1_555 1_555
C42 C41 1_555 1_555
C43 C42 1_555 1_555
H29 C43 1_555 1_555
C44 C42 1_555 1_555
H30 C44 1_555 1_555
C45 C43 1_555 1_555
H31 C45 1_555 1_555
C46 C44 1_555 1_555
H32 C46 1_555 1_555
C47 C45 1_555 1_555
C48 C47 1_555 1_555
C49 H33 1_555 1_555
C50 H34 1_555 1_555
C51 C49 1_555 1_555
H35 C51 1_555 1_555
C52 C50 1_555 1_555
H36 C52 1_555 1_555
C53 C51 1_555 1_555
C54 C53 1_555 1_555
C55 C54 1_555 1_555
H37 C55 1_555 1_555
C56 C54 1_555 1_555
H38 C56 1_555 1_555
C57 C55 1_555 1_555
H39 C57 1_555 1_555
C58 C56 1_555 1_555
H40 C58 1_555 1_555
C59 C57 1_555 1_555
C60 C59 1_555 1_555
C61 H41 1_555 1_555
C62 H42 1_555 1_555
C63 C61 1_555 1_555
H43 C63 1_555 1_555
C64 C62 1_555 1_555
H44 C64 1_555 1_555
C65 C63 1_555 1_555
C66 C65 1_555 1_555
C67 C66 1_555 1_555
H45 C67 1_555 1_555
C68 C66 1_555 1_555
H46 C68 1_555 1_555
C69 C67 1_555 1_555
H47 C69 1_555 1_555
C70 C68 1_555 1_555
H48 C70 1_555 1_555
C71 C69 1_555 1_555
C72 C71 1_555 1_555
C73 C74 1_555 1_555
C74 O14 1_555 1_555
C75 C76 1_555 1_555
C76 O17 1_555 1_555
N1 C1 1_555 1_555
N2 C13 1_555 1_555
N3 C25 1_555 1_555
N4 C37 1_555 1_555
N5 C49 1_555 1_555
N6 C61 1_555 1_555
O1 C12 1_555 1_555
O2 La1 1_555 1_555
O3 La1 1_555 1_555
O4 La1 1_555 1_555
O5 C36 1_555 1_555
O6 La2 1_555 1_555
O7 La1 1_555 1_555
O8 La1 1_555 1_555
O9 La2 1_555 1_555
O10 La2 1_555 1_555
O11 La2 1_555 1_555
O12 La2 1_555 1_555
O13 La1 1_555 1_555
O14 La1 1_555 1_555
O15 C74 1_555 1_555
O16 C73 1_555 1_555
O17 La2 1_555 1_555
O18 La2 1_555 1_555
O19 C76 1_555 1_555
O20 C75 1_555 1_555
C77 H49 1_555 1_555
C78 H50 1_555 1_555
C79 C77 1_555 1_555
H51 C79 1_555 1_555
C80 C78 1_555 1_555
H52 C80 1_555 1_555
C81 C79 1_555 1_555
C82 C81 1_555 1_555
C83 C82 1_555 1_555
H53 C83 1_555 1_555
C84 C82 1_555 1_555
H54 C84 1_555 1_555
C85 C83 1_555 1_555
H55 C85 1_555 1_555
C86 C84 1_555 1_555
H56 C86 1_555 1_555
C87 C85 1_555 1_555
C88 C87 1_555 1_555
N7 C77 1_555 1_555
O21 C88 1_555 1_555
O22 C88 1_555 1_555
H57 O22 1_555 1_555
C89 H58 1_555 1_555
C90 H59 1_555 1_555
C91 C89 1_555 1_555
H60 C91 1_555 1_555
C92 C90 1_555 1_555
H61 C92 1_555 1_555
C93 C91 1_555 1_555
C94 C93 1_555 1_555
C95 C94 1_555 1_555
H62 C95 1_555 1_555
C96 C94 1_555 1_555
H63 C96 1_555 1_555
C97 C95 1_555 1_555
H64 C97 1_555 1_555
C98 C96 1_555 1_555
H65 C98 1_555 1_555
C99 C97 1_555 1_555
C100 C99 1_555 1_555
N8 C89 1_555 1_555
O23 C100 1_555 1_555
O24 C100 1_555 1_555
H66 O24 1_555 1_555
C101 H67 1_555 1_555
C102 H68 1_555 1_555
C103 C101 1_555 1_555
H69 C103 1_555 1_555
C104 C102 1_555 1_555
H70 C104 1_555 1_555
C105 C103 1_555 1_555
C106 C105 1_555 1_555
C107 C106 1_555 1_555
H71 C107 1_555 1_555
C108 C106 1_555 1_555
H72 C108 1_555 1_555
C109 C107 1_555 1_555
H73 C109 1_555 1_555
C110 C108 1_555 1_555
H74 C110 1_555 1_555
C111 C109 1_555 1_555
C112 C111 1_555 1_555
N9 C101 1_555 1_555
O25 C112 1_555 1_555
H75 O25 1_555 1_555
O26 C112 1_555 1_555
C113 H76 1_555 1_555
C114 H77 1_555 1_555
C115 C113 1_555 1_555
H78 C115 1_555 1_555
C116 C114 1_555 1_555
H79 C116 1_555 1_555
C117 C115 1_555 1_555
C118 C117 1_555 1_555
C119 C118 1_555 1_555
H80 C119 1_555 1_555
C120 C118 1_555 1_555
H81 C120 1_555 1_555
C121 C119 1_555 1_555
H82 C121 1_555 1_555
C122 C120 1_555 1_555
H83 C122 1_555 1_555
C123 C121 1_555 1_555
C124 C123 1_555 1_555
N10 C113 1_555 1_555
O27 C124 1_555 1_555
H84 O27 1_555 1_555
O28 C124 1_555 1_555
La1A O15 1_555 1_555
La2A O19 1_555 1_555
Cu1_2 N6 1_555 1_555
Cu1A O15 1_555 1_555
Cu1B N5 1_555 1_555
Cu2_2 N2 1_555 1_555
Cu2A O20 1_555 1_555
Cu2B N1 1_555 1_555
N1B Cu2 1_555 1_555
N2_2 Cu2 1_555 1_555
N5B Cu1 1_555 1_555
N6_2 Cu1 1_555 1_555
O15A La1 1_555 1_555
O16A La1 1_555 1_555
O19A La2 1_555 1_555
O20A La2 1_555 1_555
Cu1 O13 1_555 1_555
Cu1 O15A 1_555 1_555
Cu2 O17 1_555 1_555
Cu2 O20A 1_555 1_555
C2 N1 1_555 1_555
C4 C5 1_555 1_555
C10 C11 1_555 1_555
C12 O2 1_555 1_555
C14 N2 1_555 1_555
C16 C17 1_555 1_555
C22 C23 1_555 1_555
C24 O3 1_555 1_555
C24 O4 1_555 1_555
C26 N3 1_555 1_555
C28 C29 1_555 1_555
C34 C35 1_555 1_555
C36 O6 1_555 1_555
C38 N4 1_555 1_555
C40 C41 1_555 1_555
C46 C47 1_555 1_555
C48 O7 1_555 1_555
C48 O8 1_555 1_555
C50 N5 1_555 1_555
C52 C53 1_555 1_555
C58 C59 1_555 1_555
C60 O9 1_555 1_555
C60 O10 1_555 1_555
C62 N6 1_555 1_555
C64 C65 1_555 1_555
C70 C71 1_555 1_555
C72 O11 1_555 1_555
C72 O12 1_555 1_555
C73 O13 1_555 1_555
C75 O18 1_555 1_555
O16 La1A 1_555 1_555
O20 La2A 1_555 1_555
C78 N7 1_555 1_555
C80 C81 1_555 1_555
C86 C87 1_555 1_555
C90 N8 1_555 1_555
C92 C93 1_555 1_555
C98 C99 1_555 1_555
C102 N9 1_555 1_555
C104 C105 1_555 1_555
C110 C111 1_555 1_555
C114 N10 1_555 1_555
C116 C117 1_555 1_555
C122 C123 1_555 1_555

#END
