
#######################################################################
#
#                 Cambridge Crystallographic Data Centre
#                                CCDC 
#
#######################################################################
#
# If this CIF has been generated from an entry in the Cambridge 
# Structural Database, then it will include bibliographic, chemical, 
# crystal, experimental, refinement or atomic coordinate data resulting 
# from the CCDC's data processing and validation procedures.
#
#######################################################################

data_MUJPUE
_chemical_formula_moiety         'C38 H40 Br2 N14 O19 S1 Zn5'
_symmetry_cell_setting           tetragonal
_symmetry_space_group_name_H-M   'P 42/n b c'
_symmetry_Int_Tables_number      133
_space_group_name_Hall           '-P 4ac 2b'
loop_
_symmetry_equiv_pos_site_id
_symmetry_equiv_pos_as_xyz
1 x,y,z
2 1/2-x,1/2-y,z
3 x,1/2-y,-z
4 1/2-x,y,-z
5 1/2-y,1/2-x,1/2-z
6 y,x,1/2-z
7 y,1/2-x,1/2+z
8 1/2-y,x,1/2+z
9 -x,-y,-z
10 1/2+x,1/2+y,-z
11 -x,1/2+y,z
12 1/2+x,-y,z
13 1/2+y,1/2+x,1/2+z
14 -y,-x,1/2+z
15 -y,1/2+x,1/2-z
16 1/2+y,-x,1/2-z
_cell_length_a                   18.1980(14)
_cell_length_b                   18.1980(14)
_cell_length_c                   28.872(5)
_cell_angle_alpha                90
_cell_angle_beta                 90
_cell_angle_gamma                90
_cell_volume                     9561.46
loop_
_atom_site_label
_atom_site_type_symbol
_atom_site_fract_x
_atom_site_fract_y
_atom_site_fract_z
O3 O 0.35228(14) 0.14772(14) 0.2500
O4 O 0.3832(4) 0.0232(3) 0.2678(2)
O5 O 0.4481(4) 0.0867(5) 0.2099(2)
O6 O 0.4612(5) 0.1187(5) 0.2878(3)
S1 S 0.40842(5) 0.09158(5) 0.2500
O4D O 0.4768(3) 0.1168(4) 0.2322(2)
O5D O 0.4133(5) 0.0519(4) 0.2901(2)
O6D O 0.3813(5) 0.0388(5) 0.2122(3)
O7 O 0.2500 0.9841(4) 0.0000
O8 O 0.3057(4) 0.8614(4) 0.0524(3)
O9 O 0.2500 0.7500 0.0000
O10 O 0.2500 0.2500 0.2280(5)
O10D O 0.2500 0.2500 0.2720(5)
O11 O 0.2976(9) 0.8893(9) 0.2525(6)
O12 O 0.2444(16) 0.8459(16) 0.3134(9)
Zn1 Zn 0.24231(2) 0.05531(2) 0.392581(14)
N1 N 0.18984(17) 0.04091(18) 0.33198(11)
N2 N 0.16033(17) 0.02474(17) 0.25905(11)
N3 N 0.34931(17) 0.20112(17) 0.10296(11)
N4 N 0.25871(16) 0.12373(17) 0.11560(11)
N5 N 0.02174(17) -0.17992(17) 0.09785(11)
N6 N 0.09739(17) -0.08885(18) 0.11330(11)
O1 O 0.16480(16) 0.06970(18) 0.44074(11)
O2 O 0.15894(18) -0.04873(19) 0.42864(12)
C1 C 0.1291(2) -0.0312(2) 0.18540(13)
H1 H 0.1020 -0.0668 0.2010
C2 C 0.1655(2) 0.0236(2) 0.20947(13)
C3 C 0.2069(2) 0.0759(2) 0.18712(13)
H2 H 0.2306 0.1128 0.2037
C4 C 0.21256(19) 0.0726(2) 0.13923(13)
C5 C 0.1753(2) 0.0196(2) 0.11435(14)
H3 H 0.1781 0.0184 0.0822
C6 C 0.1338(2) -0.0317(2) 0.13785(14)
C7 C 0.2112(2) 0.0510(2) 0.28913(13)
H4 H 0.2551 0.0731 0.2805
C8 C 0.1218(2) 0.0068(2) 0.32901(15)
H5 H 0.0929 -0.0064 0.3542
C9 C 0.1041(2) -0.0044(2) 0.28503(15)
H6 H 0.0620 -0.0273 0.2739
C10 C 0.3145(2) 0.1624(2) 0.13395(13)
H7 H 0.3268 0.1617 0.1652
C11 C 0.3136(2) 0.1862(2) 0.06185(14)
H8 H 0.3259 0.2065 0.0333
C12 C 0.2589(2) 0.1383(3) 0.06885(15)
H9 H 0.2273 0.1189 0.0466
C13 C 0.0377(2) -0.1263(2) 0.12738(14)
H10 H 0.0113 -0.1160 0.1542
C14 C 0.0734(2) -0.1757(2) 0.06326(14)
H11 H 0.0757 -0.2066 0.0377
C15 C 0.1200(3) -0.1202(2) 0.07190(15)
H12 H 0.1596 -0.1056 0.0537
C16 C 0.1338(2) 0.0090(3) 0.44576(15)
C17 C 0.0634(2) 0.0050(3) 0.47297(15)
C18 C 0.0528(3) 0.0516(3) 0.51061(16)
H13 H 0.0880 0.0869 0.5177
C19 C -0.0095(3) 0.0457(3) 0.53740(16)
Br1 Br -0.00474(6) 0.10591(6) 0.59616(4)
O1H O -0.16480(16) -0.06970(18) 0.55926(11)
O2H O -0.15894(18) 0.04873(19) 0.57136(12)
C16H C -0.1338(2) -0.0090(3) 0.55424(15)
C17H C -0.0634(2) -0.0050(3) 0.52703(15)
C18H C -0.0528(3) -0.0516(3) 0.48939(16)
H13H H -0.0880 -0.0869 0.4823
C19H C 0.0095(3) -0.0457(3) 0.46260(16)
Br1H Br 0.00474(6) -0.10591(6) 0.40384(4)
Zn1D Zn 0.44469(2) 0.25769(2) 0.107419(14)
N1D N 0.45909(18) 0.31016(17) 0.16802(11)
N2D N 0.47526(17) 0.33967(17) 0.24095(11)
N3D N 0.29888(17) 0.15069(17) 0.39704(11)
N4D N 0.37627(17) 0.24129(16) 0.38440(11)
N5D N 0.67992(17) 0.47826(17) 0.40215(11)
N6D N 0.58885(18) 0.40261(17) 0.38670(11)
C1D C 0.5312(2) 0.3709(2) 0.31460(13)
H1D H 0.5668 0.3980 0.2990
C2D C 0.4764(2) 0.3345(2) 0.29053(13)
C3D C 0.4241(2) 0.2931(2) 0.31288(13)
H2D H 0.3872 0.2694 0.2963
C4D C 0.4274(2) 0.28744(19) 0.36077(13)
C5D C 0.4804(2) 0.3247(2) 0.38565(14)
H3D H 0.4816 0.3219 0.4178
C6D C 0.5317(2) 0.3662(2) 0.36215(14)
C7D C 0.4490(2) 0.2888(2) 0.21087(13)
H4D H 0.4269 0.2449 0.2195
C8D C 0.4932(2) 0.3782(2) 0.17099(15)
H5D H 0.5064 0.4071 0.1458
C9D C 0.5044(2) 0.3959(2) 0.21497(15)
H6D H 0.5273 0.4380 0.2261
C10D C 0.3376(2) 0.1855(2) 0.36605(13)
H7D H 0.3383 0.1732 0.3348
C11D C 0.3138(2) 0.1864(2) 0.43815(14)
H8D H 0.2935 0.1741 0.4667
C12D C 0.3617(3) 0.2411(2) 0.43115(15)
H9D H 0.3811 0.2727 0.4534
C13D C 0.6263(2) 0.4623(2) 0.37262(14)
H10D H 0.6160 0.4887 0.3458
C14D C 0.6757(2) 0.4266(2) 0.43674(14)
H11D H 0.7066 0.4243 0.4623
C15D C 0.6202(2) 0.3800(3) 0.42810(15)
H12D H 0.6056 0.3404 0.4463
Zn1H Zn -0.24231(2) -0.05531(2) 0.607419(14)
Zn1J Zn 0.75769(2) 0.55531(2) 0.392581(14)
Zn1N Zn -0.05531(2) -0.25769(2) 0.107419(14)
N5K N 0.52174(17) 0.17992(17) 0.09785(11)
N5O N 0.32008(17) -0.02174(17) 0.40215(11)
O1D O 0.43030(18) 0.33520(16) 0.05926(11)
loop_
_geom_bond_atom_site_label_1
_geom_bond_atom_site_label_2
_geom_bond_site_symmetry_1
_geom_bond_site_symmetry_2
Zn1 N1 1_555 1_555
N1 C7 1_555 1_555
N2 C2 1_555 1_555
N3 C10 1_555 1_555
N4 C4 1_555 1_555
N5 C13 1_555 1_555
N6 C6 1_555 1_555
O1 Zn1 1_555 1_555
O2 C16 1_555 1_555
C1 H1 1_555 1_555
C2 C1 1_555 1_555
C3 C2 1_555 1_555
H2 C3 1_555 1_555
C4 C3 1_555 1_555
C5 C4 1_555 1_555
H3 C5 1_555 1_555
C6 C1 1_555 1_555
C7 N2 1_555 1_555
H4 C7 1_555 1_555
C8 N1 1_555 1_555
H5 C8 1_555 1_555
C9 N2 1_555 1_555
H6 C9 1_555 1_555
C10 N4 1_555 1_555
H7 C10 1_555 1_555
C11 N3 1_555 1_555
H8 C11 1_555 1_555
C12 N4 1_555 1_555
H9 C12 1_555 1_555
C13 N6 1_555 1_555
H10 C13 1_555 1_555
C14 N5 1_555 1_555
H11 C14 1_555 1_555
C15 N6 1_555 1_555
H12 C15 1_555 1_555
C16 O1 1_555 1_555
C17 C16 1_555 1_555
C18 C17 1_555 1_555
H13 C18 1_555 1_555
C19 C18 1_555 1_555
Br1 C19 1_555 1_555
O3 S1 1_555 1_555
O4 S1 1_555 1_555
O5 S1 1_555 1_555
O6 S1 1_555 1_555
S1 O4D 1_555 1_555
O1H C16H 1_555 1_555
O2H C16H 1_555 1_555
C16H C17H 1_555 1_555
C17H C19 1_555 1_555
C18H C17H 1_555 1_555
H13H C18H 1_555 1_555
C19H C17 1_555 1_555
Br1H C19H 1_555 1_555
Zn1D N3 1_555 1_555
N1D Zn1D 1_555 1_555
N2D C2D 1_555 1_555
N3D Zn1 1_555 1_555
N4D C4D 1_555 1_555
N5D C13D 1_555 1_555
N6D C6D 1_555 1_555
C1D H1D 1_555 1_555
C2D C1D 1_555 1_555
C3D C2D 1_555 1_555
H2D C3D 1_555 1_555
C4D C3D 1_555 1_555
C5D C4D 1_555 1_555
H3D C5D 1_555 1_555
C6D C1D 1_555 1_555
C7D N1D 1_555 1_555
H4D C7D 1_555 1_555
C8D N1D 1_555 1_555
H5D C8D 1_555 1_555
C9D N2D 1_555 1_555
H6D C9D 1_555 1_555
C10D N3D 1_555 1_555
H7D C10D 1_555 1_555
C11D N3D 1_555 1_555
H8D C11D 1_555 1_555
C12D N4D 1_555 1_555
H9D C12D 1_555 1_555
C13D N6D 1_555 1_555
H10D C13D 1_555 1_555
C14D N5D 1_555 1_555
H11D C14D 1_555 1_555
C15D N6D 1_555 1_555
H12D C15D 1_555 1_555
Zn1H O1H 1_555 1_555
Zn1J N5D 1_555 1_555
Zn1N N5 1_555 1_555
N5K Zn1D 1_555 1_555
N5O Zn1 1_555 1_555
O1D Zn1D 1_555 1_555
O5D S1 1_555 1_555
O6D S1 1_555 1_555
C5 C6 1_555 1_555
C8 C9 1_555 1_555
C11 C12 1_555 1_555
C14 C15 1_555 1_555
C18H C19H 1_555 1_555
N2D C7D 1_555 1_555
N4D C10D 1_555 1_555
C5D C6D 1_555 1_555
C8D C9D 1_555 1_555
C11D C12D 1_555 1_555
C14D C15D 1_555 1_555

#END
