
#######################################################################
#
#                 Cambridge Crystallographic Data Centre
#                                CCDC 
#
#######################################################################
#
# If this CIF has been generated from an entry in the Cambridge 
# Structural Database, then it will include bibliographic, chemical, 
# crystal, experimental, refinement or atomic coordinate data resulting 
# from the CCDC's data processing and validation procedures.
#
#######################################################################

data_KISVEO
_chemical_formula_moiety         '(C12 H49 O120 S19 U14 5-)n'
_symmetry_cell_setting           tetragonal
_symmetry_space_group_name_H-M   'I 4/m'
_symmetry_Int_Tables_number      87
_space_group_name_Hall           '-I 4'
loop_
_symmetry_equiv_pos_site_id
_symmetry_equiv_pos_as_xyz
1 x,y,z
2 -y,x,z
3 y,-x,z
4 1/2+x,1/2+y,1/2+z
5 1/2-y,1/2+x,1/2+z
6 1/2+y,1/2-x,1/2+z
7 -x,-y,z
8 1/2-x,1/2-y,1/2+z
9 -x,-y,-z
10 y,-x,-z
11 -y,x,-z
12 1/2-x,1/2-y,1/2-z
13 1/2+y,1/2-x,1/2-z
14 1/2-y,1/2+x,1/2-z
15 x,y,-z
16 1/2+x,1/2+y,1/2-z
_cell_length_a                   28.0230(10)
_cell_length_b                   28.0230(10)
_cell_length_c                   19.6840(7)
_cell_angle_alpha                90
_cell_angle_beta                 90
_cell_angle_gamma                90
_cell_volume                     15457.6
loop_
_atom_site_label
_atom_site_type_symbol
_atom_site_fract_x
_atom_site_fract_y
_atom_site_fract_z
O1 O 0.0727(10) 0.2397(10) 0.0000
O2 O 0.0982(7) 0.1980(7) -0.1270(10)
O3 O 0.1001(7) 0.1008(7) -0.1170(10)
O4 O 0.1169(10) 0.0465(10) 0.0000
C1 C 0.0825(13) 0.2719(13) -0.058(2)
C2 C 0.0681(9) 0.2416(9) -0.1187(13)
C3 C 0.0848(14) 0.1670(14) -0.184(2)
C4 C 0.1117(14) 0.1308(14) -0.181(2)
C5 C 0.1226(13) 0.0494(13) -0.1139(19)
C6 C 0.1018(13) 0.0217(13) -0.060(2)
O2N O 0.0982(7) 0.1980(7) 0.1270(10)
O3N O 0.1001(7) 0.1008(7) 0.1170(10)
C1N C 0.0825(13) 0.2719(13) 0.058(2)
C2N C 0.0681(9) 0.2416(9) 0.1187(13)
C3N C 0.0848(14) 0.1670(14) 0.184(2)
C4N C 0.1117(14) 0.1308(14) 0.181(2)
C5N C 0.1226(13) 0.0494(13) 0.1139(19)
C6N C 0.1018(13) 0.0217(13) 0.060(2)
O5 O -0.0235(8) 0.3543(8) 0.0000
O6 O -0.1320(8) 0.3143(8) 0.0000
O7 O -0.2142(5) 0.1951(5) 0.1003(8)
O8 O 0.0292(11) 0.4789(11) -0.0597(16)
O9 O -0.2793(16) 0.2963(16) 0.0000
O10 O -0.075(3) 0.081(3) 0.5000
U1 U 0.000394(12) 0.371445(12) 0.216815(17)
U2 U -0.190830(12) 0.331370(13) -0.195430(19)
U3 U -0.176026(19) 0.46495(2) 0.0000
U4 U -0.292690(14) 0.565520(14) -0.16244(2)
S1 S 0.0000 0.5000 0.2500
S2 S -0.10008(8) 0.42054(8) 0.13290(12)
S3 S -0.22570(8) 0.45635(8) -0.17341(12)
S4 S -0.30281(14) 0.49899(13) 0.0000
S5 S -0.07404(8) 0.27113(8) 0.17529(13)
S6 S -0.19203(9) 0.21981(9) -0.29206(15)
O11 O 0.0080(2) 0.4581(2) 0.2064(4)
O12 O -0.2715(3) 0.4822(2) -0.1772(4)
O13 O -0.1075(3) 0.4480(3) 0.0706(4)
O14 O -0.2352(3) 0.4049(3) -0.1665(4)
O15 O -0.0527(2) 0.3978(2) 0.1279(4)
O16 O -0.1820(3) 0.3550(3) -0.2769(4)
O17 O -0.1977(3) 0.2511(3) -0.2325(5)
O18 O -0.1978(3) 0.4648(2) -0.2357(4)
O19 O -0.0877(4) 0.2483(3) 0.1126(5)
O20 O -0.0589(3) 0.2347(3) 0.2251(4)
O21 O -0.0468(3) 0.3724(3) 0.2751(4)
O22 O -0.1982(3) 0.4737(3) -0.1150(4)
O23 O -0.3507(3) 0.5519(3) -0.1909(5)
O24 O -0.1438(3) 0.1993(3) -0.2902(4)
O25 O -0.1009(3) 0.4512(3) 0.1921(4)
O26 O 0.0468(2) 0.3697(3) 0.1566(4)
O27 O -0.2010(3) 0.3089(3) -0.1130(4)
O28 O -0.0334(2) 0.3034(2) 0.1623(4)
O29 O -0.2354(3) 0.5781(3) -0.1336(5)
O30 O -0.2261(3) 0.1800(3) -0.2825(4)
O31 O -0.1128(3) 0.2988(3) 0.2052(5)
O32 O -0.1367(3) 0.3839(3) 0.1377(5)
O33 O -0.1920(4) 0.4037(4) 0.0000
O34 O -0.1596(5) 0.5249(5) 0.0000
O35 O -0.2011(4) 0.2444(4) -0.3538(5)
O36 O -0.3251(5) 0.6203(6) -0.0768(6)
O37 O -0.3147(5) 0.5241(4) 0.0603(5)
O38 O -0.2553(8) 0.4869(16) 0.0000
O39 O -0.3351(13) 0.4605(13) 0.0000
O11F O -0.0080(2) 0.5419(2) 0.2064(4)
O11L O -0.0419(2) 0.4920(2) 0.2936(4)
O11M O 0.0419(2) 0.5080(2) 0.2936(4)
O37N O -0.3147(5) 0.5241(4) -0.0603(5)
U1F U -0.000394(12) 0.628555(12) 0.216815(17)
U2F U 0.190830(12) 0.668630(13) -0.195430(19)
U3F U 0.176026(19) 0.53505(2) 0.0000
U4F U 0.292690(14) 0.434480(14) -0.16244(2)
S2F S 0.10008(8) 0.57946(8) 0.13290(12)
S3F S 0.22570(8) 0.54365(8) -0.17341(12)
S4F S 0.30281(14) 0.50101(13) 0.0000
S5F S 0.07404(8) 0.72887(8) 0.17529(13)
S6F S 0.19203(9) 0.78019(9) -0.29206(15)
O12F O 0.2715(3) 0.5178(2) -0.1772(4)
O13F O 0.1075(3) 0.5520(3) 0.0706(4)
O14F O 0.2352(3) 0.5951(3) -0.1665(4)
O15F O 0.0527(2) 0.6022(2) 0.1279(4)
O16F O 0.1820(3) 0.6450(3) -0.2769(4)
O17F O 0.1977(3) 0.7489(3) -0.2325(5)
O18F O 0.1978(3) 0.5352(2) -0.2357(4)
O19F O 0.0877(4) 0.7517(3) 0.1126(5)
O20F O 0.0589(3) 0.7653(3) 0.2251(4)
O21F O 0.0468(3) 0.6276(3) 0.2751(4)
O22F O 0.1982(3) 0.5263(3) -0.1150(4)
O23F O 0.3507(3) 0.4481(3) -0.1909(5)
O24F O 0.1438(3) 0.8007(3) -0.2902(4)
O25F O 0.1009(3) 0.5488(3) 0.1921(4)
O26F O -0.0468(2) 0.6303(3) 0.1566(4)
O27F O 0.2010(3) 0.6911(3) -0.1130(4)
O28F O 0.0334(2) 0.6966(2) 0.1623(4)
O29F O 0.2354(3) 0.4219(3) -0.1336(5)
O30F O 0.2261(3) 0.8200(3) -0.2825(4)
O31F O 0.1128(3) 0.7012(3) 0.2052(5)
O32F O 0.1367(3) 0.6161(3) 0.1377(5)
O33F O 0.1920(4) 0.5963(4) 0.0000
O34F O 0.1596(5) 0.4751(5) 0.0000
O35F O 0.2011(4) 0.7556(4) -0.3538(5)
O36F O 0.3251(5) 0.3797(6) -0.0768(6)
O37F O 0.3147(5) 0.4759(4) 0.0603(5)
O38F O 0.2553(8) 0.5131(16) 0.0000
O39F O 0.3351(13) 0.5395(13) 0.0000
O37H O 0.3147(5) 0.4759(4) -0.0603(5)
U1H U -0.000394(12) 0.628555(12) -0.216815(17)
U2H U 0.190830(12) 0.668630(13) 0.195430(19)
U4H U 0.292690(14) 0.434480(14) 0.16244(2)
S2H S 0.10008(8) 0.57946(8) -0.13290(12)
S3H S 0.22570(8) 0.54365(8) 0.17341(12)
S5H S 0.07404(8) 0.72887(8) -0.17529(13)
S6H S 0.19203(9) 0.78019(9) 0.29206(15)
O12H O 0.2715(3) 0.5178(2) 0.1772(4)
O13H O 0.1075(3) 0.5520(3) -0.0706(4)
O14H O 0.2352(3) 0.5951(3) 0.1665(4)
O15H O 0.0527(2) 0.6022(2) -0.1279(4)
O16H O 0.1820(3) 0.6450(3) 0.2769(4)
O17H O 0.1977(3) 0.7489(3) 0.2325(5)
O18H O 0.1978(3) 0.5352(2) 0.2357(4)
O19H O 0.0877(4) 0.7517(3) -0.1126(5)
O20H O 0.0589(3) 0.7653(3) -0.2251(4)
O21H O 0.0468(3) 0.6276(3) -0.2751(4)
O22H O 0.1982(3) 0.5263(3) 0.1150(4)
O23H O 0.3507(3) 0.4481(3) 0.1909(5)
O24H O 0.1438(3) 0.8007(3) 0.2902(4)
O25H O 0.1009(3) 0.5488(3) -0.1921(4)
O26H O -0.0468(2) 0.6303(3) -0.1566(4)
O27H O 0.2010(3) 0.6911(3) 0.1130(4)
O28H O 0.0334(2) 0.6966(2) -0.1623(4)
O29H O 0.2354(3) 0.4219(3) 0.1336(5)
O30H O 0.2261(3) 0.8200(3) 0.2825(4)
O31H O 0.1128(3) 0.7012(3) -0.2052(5)
O32H O 0.1367(3) 0.6161(3) -0.1377(5)
O35H O 0.2011(4) 0.7556(4) 0.3538(5)
O36H O 0.3251(5) 0.3797(6) 0.0768(6)
U1N U 0.000394(12) 0.371445(12) -0.216815(17)
U2N U -0.190830(12) 0.331370(13) 0.195430(19)
U4N U -0.292690(14) 0.565520(14) 0.16244(2)
S2N S -0.10008(8) 0.42054(8) -0.13290(12)
S3N S -0.22570(8) 0.45635(8) 0.17341(12)
S5N S -0.07404(8) 0.27113(8) -0.17529(13)
S6N S -0.19203(9) 0.21981(9) 0.29206(15)
O12N O -0.2715(3) 0.4822(2) 0.1772(4)
O13N O -0.1075(3) 0.4480(3) -0.0706(4)
O14N O -0.2352(3) 0.4049(3) 0.1665(4)
O15N O -0.0527(2) 0.3978(2) -0.1279(4)
O16N O -0.1820(3) 0.3550(3) 0.2769(4)
O17N O -0.1977(3) 0.2511(3) 0.2325(5)
O18N O -0.1978(3) 0.4648(2) 0.2357(4)
O19N O -0.0877(4) 0.2483(3) -0.1126(5)
O20N O -0.0589(3) 0.2347(3) -0.2251(4)
O21N O -0.0468(3) 0.3724(3) -0.2751(4)
O22N O -0.1982(3) 0.4737(3) 0.1150(4)
O23N O -0.3507(3) 0.5519(3) 0.1909(5)
O24N O -0.1438(3) 0.1993(3) 0.2902(4)
O25N O -0.1009(3) 0.4512(3) -0.1921(4)
O26N O 0.0468(2) 0.3697(3) -0.1566(4)
O27N O -0.2010(3) 0.3089(3) 0.1130(4)
O28N O -0.0334(2) 0.3034(2) -0.1623(4)
O29N O -0.2354(3) 0.5781(3) 0.1336(5)
O30N O -0.2261(3) 0.1800(3) 0.2825(4)
O31N O -0.1128(3) 0.2988(3) -0.2052(5)
O32N O -0.1367(3) 0.3839(3) -0.1377(5)
O35N O -0.2011(4) 0.2444(4) 0.3538(5)
O36N O -0.3251(5) 0.6203(6) 0.0768(6)
U1D U 0.128555(12) 0.500394(12) -0.283185(17)
U1E U -0.128555(12) 0.499606(12) -0.283185(17)
U1L U -0.128555(12) 0.499606(12) 0.283185(17)
U1M U 0.128555(12) 0.500394(12) 0.283185(17)
U2C U 0.309170(12) 0.831370(13) 0.304570(19)
U2G U -0.309170(12) 0.168630(13) 0.304570(19)
U2K U -0.309170(12) 0.168630(13) -0.304570(19)
U2O U 0.309170(12) 0.831370(13) -0.304570(19)
U4D U -0.065520(14) 0.207310(14) 0.33756(2)
U4E U 0.065520(14) 0.792690(14) 0.33756(2)
U4L U 0.065520(14) 0.792690(14) -0.33756(2)
U4M U -0.065520(14) 0.207310(14) -0.33756(2)
O11H O -0.0080(2) 0.5419(2) -0.2064(4)
O11N O 0.0080(2) 0.4581(2) -0.2064(4)
O18D O 0.0352(2) 0.3022(3) 0.2643(4)
O18E O -0.0352(2) 0.6978(3) 0.2643(4)
O18L O -0.0352(2) 0.6978(3) -0.2643(4)
O18M O 0.0352(2) 0.3022(3) -0.2643(4)
O20D O 0.2653(3) 0.4411(3) -0.2749(4)
O20E O -0.2653(3) 0.5589(3) -0.2749(4)
O20L O -0.2653(3) 0.5589(3) 0.2749(4)
O20M O 0.2653(3) 0.4411(3) 0.2749(4)
O24D O 0.3007(3) 0.3562(3) 0.2098(4)
O24E O -0.3007(3) 0.6438(3) 0.2098(4)
O24L O -0.3007(3) 0.6438(3) -0.2098(4)
O24M O 0.3007(3) 0.3562(3) -0.2098(4)
O25D O 0.0488(3) 0.3991(3) -0.3079(4)
O25E O -0.0488(3) 0.6009(3) -0.3079(4)
O25L O -0.0488(3) 0.6009(3) 0.3079(4)
O25M O 0.0488(3) 0.3991(3) 0.3079(4)
O30C O 0.2739(3) 0.6800(3) 0.2175(4)
O30G O -0.2739(3) 0.3200(3) 0.2175(4)
O30K O -0.2739(3) 0.3200(3) -0.2175(4)
O30O O 0.2739(3) 0.6800(3) -0.2175(4)
loop_
_geom_bond_atom_site_label_1
_geom_bond_atom_site_label_2
_geom_bond_site_symmetry_1
_geom_bond_site_symmetry_2
O1 C1 1_555 1_555
O2 C2 1_555 1_555
O3 C4 1_555 1_555
O4 C6 1_555 1_555
C1 C2 1_555 1_555
C3 O2 1_555 1_555
C4 C3 1_555 1_555
C5 O3 1_555 1_555
C6 C5 1_555 1_555
U1 O11 1_555 1_555
U2 O14 1_555 1_555
U3 O13 1_555 1_555
U4 O12 1_555 1_555
S1 O11 1_555 1_555
S2 O13 1_555 1_555
S3 O12 1_555 1_555
S4 O37 1_555 1_555
S5 O19 1_555 1_555
S6 O17 1_555 1_555
O14 S3 1_555 1_555
O15 U1 1_555 1_555
O16 U2 1_555 1_555
O17 U2 1_555 1_555
O18 S3 1_555 1_555
O20 S5 1_555 1_555
O21 U1 1_555 1_555
O22 U3 1_555 1_555
O23 U4 1_555 1_555
O24 S6 1_555 1_555
O25 S2 1_555 1_555
O26 U1 1_555 1_555
O27 U2 1_555 1_555
O28 U1 1_555 1_555
O29 U4 1_555 1_555
O30 S6 1_555 1_555
O31 S5 1_555 1_555
O32 S2 1_555 1_555
O33 U3 1_555 1_555
O34 U3 1_555 1_555
O35 S6 1_555 1_555
O36 U4 1_555 1_555
O37 U4N 1_555 1_555
O38 U3 1_555 1_555
O39 S4 1_555 1_555
O2N C2N 1_555 1_555
O3N C4N 1_555 1_555
C1N O1 1_555 1_555
C2N C1N 1_555 1_555
C3N O2N 1_555 1_555
C4N C3N 1_555 1_555
C5N O3N 1_555 1_555
C6N O4 1_555 1_555
O11F S1 1_555 1_555
O11L S1 1_555 1_555
O11M S1 1_555 1_555
O37N U4 1_555 1_555
U1F O11F 1_555 1_555
U2F O14F 1_555 1_555
U3F O13F 1_555 1_555
U4F O12F 1_555 1_555
S2F O13F 1_555 1_555
S3F O12F 1_555 1_555
S4F O37F 1_555 1_555
S5F O19F 1_555 1_555
S6F O17F 1_555 1_555
O14F S3F 1_555 1_555
O15F U1F 1_555 1_555
O16F U2F 1_555 1_555
O17F U2F 1_555 1_555
O18F S3F 1_555 1_555
O20F S5F 1_555 1_555
O21F U1F 1_555 1_555
O22F U3F 1_555 1_555
O23F U4F 1_555 1_555
O24F S6F 1_555 1_555
O25F S2F 1_555 1_555
O26F U1F 1_555 1_555
O27F U2F 1_555 1_555
O28F U1F 1_555 1_555
O29F U4F 1_555 1_555
O30F S6F 1_555 1_555
O31F S5F 1_555 1_555
O32F S2F 1_555 1_555
O33F U3F 1_555 1_555
O34F U3F 1_555 1_555
O35F S6F 1_555 1_555
O36F U4F 1_555 1_555
O37F U4H 1_555 1_555
O38F U3F 1_555 1_555
O39F S4F 1_555 1_555
O37H U4F 1_555 1_555
U1H O15H 1_555 1_555
U2H O31F 1_555 1_555
U4H O12H 1_555 1_555
S2H O13H 1_555 1_555
S3H O12H 1_555 1_555
S5H O19H 1_555 1_555
S6H O17H 1_555 1_555
O13H U3F 1_555 1_555
O14H U2H 1_555 1_555
O15H S2H 1_555 1_555
O16H U2H 1_555 1_555
O17H U2H 1_555 1_555
O18H S3H 1_555 1_555
O20H S5H 1_555 1_555
O21H U1H 1_555 1_555
O22H U3F 1_555 1_555
O23H U4H 1_555 1_555
O24H S6H 1_555 1_555
O25H S2H 1_555 1_555
O26H U1H 1_555 1_555
O27H U2H 1_555 1_555
O28H U1H 1_555 1_555
O29H U4H 1_555 1_555
O30H S6H 1_555 1_555
O31H U2F 1_555 1_555
O32H U2F 1_555 1_555
O35H S6H 1_555 1_555
O36H U4H 1_555 1_555
U1N O15N 1_555 1_555
U2N O31 1_555 1_555
U4N O12N 1_555 1_555
S2N O13N 1_555 1_555
S3N O12N 1_555 1_555
S5N O19N 1_555 1_555
S6N O17N 1_555 1_555
O13N U3 1_555 1_555
O14N U2N 1_555 1_555
O15N S2N 1_555 1_555
O16N U2N 1_555 1_555
O17N U2N 1_555 1_555
O18N S3N 1_555 1_555
O20N S5N 1_555 1_555
O21N U1N 1_555 1_555
O22N U3 1_555 1_555
O23N U4N 1_555 1_555
O24N S6N 1_555 1_555
O25N S2N 1_555 1_555
O26N U1N 1_555 1_555
O27N U2N 1_555 1_555
O28N U1N 1_555 1_555
O29N U4N 1_555 1_555
O30N S6N 1_555 1_555
O31N U2 1_555 1_555
O32N U2 1_555 1_555
O35N S6N 1_555 1_555
O36N U4N 1_555 1_555
U1D O18F 1_555 1_555
U1E O18 1_555 1_555
U1L O25 1_555 1_555
U1M O11M 1_555 1_555
U2C O30H 1_555 1_555
U2G O30N 1_555 1_555
U2K O30 1_555 1_555
U2O O30F 1_555 1_555
U4D O20 1_555 1_555
U4E O20F 1_555 1_555
U4L O24F 1_555 1_555
U4M O24 1_555 1_555
O11H U1H 1_555 1_555
O11N U1N 1_555 1_555
O18D U1 1_555 1_555
O18E U1F 1_555 1_555
O18L U1H 1_555 1_555
O18M U1N 1_555 1_555
O20D U4F 1_555 1_555
O20E U4 1_555 1_555
O20L U4N 1_555 1_555
O20M U4H 1_555 1_555
O24D U4H 1_555 1_555
O24E U4N 1_555 1_555
O24L U4 1_555 1_555
O24M U4F 1_555 1_555
O25D U1N 1_555 1_555
O25E U1H 1_555 1_555
O25L U1F 1_555 1_555
O25M U1 1_555 1_555
O30C U2H 1_555 1_555
O30G U2N 1_555 1_555
O30K U2 1_555 1_555
O30O U2F 1_555 1_555
S2 O15 1_555 1_555
S3 O22 1_555 1_555
S4 O38 1_555 1_555
S4 O37N 1_555 1_555
S5 O28 1_555 1_555
O32 U2N 1_555 1_555
C5N C6N 1_555 1_555
O11L U1L 1_555 1_555
S2F O15F 1_555 1_555
S3F O22F 1_555 1_555
S4F O38F 1_555 1_555
S4F O37H 1_555 1_555
S5F O28F 1_555 1_555
O25F U1M 1_555 1_555
O32F U2H 1_555 1_555
S2H O32H 1_555 1_555
S3H O14H 1_555 1_555
S3H O22H 1_555 1_555
S5H O28H 1_555 1_555
S5H O31H 1_555 1_555
O18H U1M 1_555 1_555
O20H U4L 1_555 1_555
O24H U4E 1_555 1_555
O25H U1D 1_555 1_555
S2N O32N 1_555 1_555
S3N O14N 1_555 1_555
S3N O22N 1_555 1_555
S5N O28N 1_555 1_555
S5N O31N 1_555 1_555
O18N U1L 1_555 1_555
O20N U4M 1_555 1_555
O24N U4D 1_555 1_555
O25N U1E 1_555 1_555

#END
