
#######################################################################
#
#                 Cambridge Crystallographic Data Centre
#                                CCDC 
#
#######################################################################
#
# If this CIF has been generated from an entry in the Cambridge 
# Structural Database, then it will include bibliographic, chemical, 
# crystal, experimental, refinement or atomic coordinate data resulting 
# from the CCDC's data processing and validation procedures.
#
#######################################################################

data_CETVAA
_chemical_formula_moiety         '(C36 H31 Cl2 Cu1 N5 O1)n'
_symmetry_cell_setting           monoclinic
_symmetry_space_group_name_H-M   'C c'
_symmetry_Int_Tables_number      9
_space_group_name_Hall           'C -2yc'
loop_
_symmetry_equiv_pos_site_id
_symmetry_equiv_pos_as_xyz
1 x,y,z
2 x,-y,1/2+z
3 1/2+x,1/2+y,z
4 1/2+x,1/2-y,1/2+z
_cell_length_a                   14.2786(6)
_cell_length_b                   18.6712(7)
_cell_length_c                   11.8323(4)
_cell_angle_alpha                90
_cell_angle_beta                 92.933(2)
_cell_angle_gamma                90
_cell_volume                     3150.34
loop_
_atom_site_label
_atom_site_type_symbol
_atom_site_fract_x
_atom_site_fract_y
_atom_site_fract_z
_atom_site_U_iso_or_equiv
_atom_site_thermal_displace_type
Cu1 Cu 0.069665(18) 0.199113(13) 0.46983(2) 0.0136 Uani
Cl1 Cl 0.17524(5) 0.29094(3) 0.50463(5) 0.0267 Uani
Cl2 Cl 0.11538(4) 0.08009(3) 0.54406(5) 0.0213 Uani
N1 N 0.11824(13) 0.18072(11) 0.31407(17) 0.0172 Uani
N2 N 0.93367(13) -0.16430(10) -0.08524(16) 0.0156 Uani
N3 N 0.52084(13) 0.27232(11) -0.87896(16) 0.0162 Uani
N4 N 0.43075(13) 0.06751(10) -0.25357(15) 0.0156 Uani
C1 C 0.15621(16) 0.23179(12) 0.24984(19) 0.0173 Uani
H1 H 0.1545 0.2801 0.2749 0.0210 Uiso
C2 C 0.19756(16) 0.21703(13) 0.14908(19) 0.0179 Uani
H2 H 0.2233 0.2548 0.1068 0.0220 Uiso
C3 C 0.20161(14) 0.14629(12) 0.10933(18) 0.0157 Uani
C4 C 0.15823(18) 0.09423(13) 0.1743(2) 0.0228 Uani
H3 H 0.1560 0.0458 0.1497 0.0270 Uiso
C5 C 0.11864(18) 0.11345(13) 0.2744(2) 0.0227 Uani
H4 H 0.0903 0.0771 0.3172 0.0270 Uiso
C6 C 0.36862(15) 0.08742(12) -0.17021(17) 0.0141 Uani
C7 C 0.34849(17) 0.03767(12) -0.0858(2) 0.0198 Uani
H5 H 0.3736 -0.0094 -0.0886 0.0240 Uiso
C8 C 0.29210(17) 0.05669(12) 0.0017(2) 0.0199 Uani
H6 H 0.2790 0.0221 0.0576 0.0240 Uiso
C9 C 0.25406(14) 0.12580(12) 0.00934(18) 0.0145 Uani
C10 C 0.27269(15) 0.17434(12) -0.07713(18) 0.0157 Uani
H7 H 0.2468 0.2212 -0.0750 0.0190 Uiso
C11 C 0.32823(16) 0.15570(11) -0.16605(18) 0.0157 Uani
H8 H 0.3387 0.1894 -0.2241 0.0190 Uiso
C12 C 0.88609(16) -0.12895(13) -0.00712(19) 0.0188 Uani
H9 H 0.9127 -0.1264 0.0680 0.0230 Uiso
C13 C 0.80050(16) -0.09615(14) -0.03094(19) 0.0197 Uani
H10 H 0.7689 -0.0732 0.0278 0.0240 Uiso
C14 C 0.76018(15) -0.09666(12) -0.14150(19) 0.0157 Uani
C15 C 0.80881(16) -0.13512(12) -0.22172(19) 0.0178 Uani
H11 H 0.7836 -0.1393 -0.2973 0.0210 Uiso
C16 C 0.89399(16) -0.16709(12) -0.19032(19) 0.0169 Uani
H12 H 0.9259 -0.1924 -0.2464 0.0200 Uiso
C17 C 0.50983(15) 0.02334(11) -0.22054(17) 0.0148 Uani
C18 C 0.53432(15) -0.03301(12) -0.29067(19) 0.0171 Uani
H13 H 0.4955 -0.0443 -0.3558 0.0210 Uiso
C19 C 0.61499(16) -0.07265(12) -0.26585(19) 0.0169 Uani
H14 H 0.6313 -0.1107 -0.3143 0.0200 Uiso
C20 C 0.67268(15) -0.05670(12) -0.16927(19) 0.0160 Uani
C21 C 0.64704(17) -0.00011(14) -0.09978(19) 0.0205 Uani
H15 H 0.6855 0.0114 -0.0344 0.0250 Uiso
C22 C 0.56626(16) 0.03965(13) -0.1248(2) 0.0187 Uani
H16 H 0.5497 0.0778 -0.0766 0.0230 Uiso
C23 C 0.45186(17) 0.22425(14) -0.87125(19) 0.0190 Uani
H17 H 0.4181 0.2099 -0.9387 0.0230 Uiso
C24 C 0.42727(16) 0.19436(12) -0.7694(2) 0.0183 Uani
H18 H 0.3776 0.1606 -0.7678 0.0220 Uiso
C25 C 0.47647(15) 0.21458(12) -0.66931(18) 0.0152 Uani
C26 C 0.54634(17) 0.26585(13) -0.67817(19) 0.0201 Uani
H19 H 0.5801 0.2824 -0.6120 0.0240 Uiso
C27 C 0.56697(17) 0.29288(13) -0.7827(2) 0.0201 Uani
H20 H 0.6157 0.3273 -0.7866 0.0240 Uiso
C28 C 0.43961(15) 0.10786(11) -0.35434(17) 0.0134 Uani
C29 C 0.52935(15) 0.12607(12) -0.38798(18) 0.0164 Uani
H21 H 0.5832 0.1141 -0.3414 0.0200 Uiso
C30 C 0.53905(15) 0.16161(12) -0.48946(19) 0.0169 Uani
H22 H 0.6000 0.1740 -0.5117 0.0200 Uiso
C31 C 0.46095(15) 0.17965(12) -0.55989(18) 0.0150 Uani
C32 C 0.37169(15) 0.16247(12) -0.52488(18) 0.0163 Uani
H23 H 0.3179 0.1753 -0.5710 0.0200 Uiso
C33 C 0.36059(15) 0.12658(12) -0.42274(19) 0.0158 Uani
H24 H 0.2996 0.1149 -0.3999 0.0190 Uiso
Cu1A Cu 1.069665(18) -0.199113(13) -0.03017(2) 0.0136 Uani
Cu1C Cu 0.569665(18) 0.300887(13) -1.03017(2) 0.0136 Uani
N2A N -0.06633(13) 0.16430(10) 0.41476(16) 0.0156 Uani
N3C N 0.02084(13) 0.22768(11) 0.62104(16) 0.0162 Uani
O1 O 0.2995(3) 0.3850(2) 0.2256(2) 0.0614 Uani
N5 N 0.4009(2) 0.41467(16) 0.3724(3) 0.0388 Uani
C34 C 0.3296(2) 0.37895(19) 0.3227(3) 0.0382 Uani
H25 H 0.2991 0.3451 0.3681 0.0460 Uiso
C35 C 0.4282(4) 0.4018(3) 0.4914(4) 0.0748 Uani
H26 H 0.3854 0.3667 0.5227 0.1130 Uiso
H27 H 0.4250 0.4468 0.5337 0.1130 Uiso
H28 H 0.4924 0.3831 0.4976 0.1130 Uiso
C36 C 0.4522(4) 0.4650(2) 0.3083(5) 0.0739 Uani
H29 H 0.4231 0.4689 0.2318 0.1100 Uiso
H30 H 0.5172 0.4486 0.3040 0.1100 Uiso
H31 H 0.4516 0.5119 0.3454 0.1100 Uiso
loop_
_atom_site_aniso_label
_atom_site_aniso_U_11
_atom_site_aniso_U_22
_atom_site_aniso_U_33
_atom_site_aniso_U_23
_atom_site_aniso_U_13
_atom_site_aniso_U_12
Cu1 0.01328(11) 0.01669(11) 0.01129(11) -0.00418(9) 0.00365(7) -0.00245(9)
Cl1 0.0295(3) 0.0287(3) 0.0226(3) -0.0098(2) 0.0096(2) -0.0151(2)
Cl2 0.0226(2) 0.0182(2) 0.0231(3) -0.00049(19) 0.0003(2) 0.00452(19)
N1 0.0144(8) 0.0219(9) 0.0158(9) -0.0049(7) 0.0049(7) -0.0028(7)
N2 0.0138(8) 0.0191(8) 0.0140(8) 0.0037(6) 0.0023(6) 0.0019(6)
N3 0.0156(8) 0.0200(9) 0.0132(8) 0.0041(7) 0.0025(6) 0.0030(7)
N4 0.0167(8) 0.0189(8) 0.0117(8) 0.0046(6) 0.0053(6) 0.0061(6)
C1 0.0187(10) 0.0189(10) 0.0147(9) -0.0015(8) 0.0036(8) 0.0028(8)
C2 0.0201(10) 0.0199(9) 0.0141(10) 0.0003(8) 0.0041(8) 0.0018(8)
C3 0.0124(9) 0.0222(10) 0.0128(9) -0.0026(8) 0.0027(7) -0.0013(7)
C4 0.0253(11) 0.0218(11) 0.0225(11) -0.0082(9) 0.0119(9) -0.0092(9)
C5 0.0238(11) 0.0234(11) 0.0219(11) -0.0071(9) 0.0117(9) -0.0103(9)
C6 0.0141(9) 0.0171(9) 0.0112(9) 0.0022(7) 0.0030(7) 0.0016(7)
C7 0.0239(11) 0.0172(9) 0.0193(10) 0.0048(8) 0.0118(8) 0.0041(8)
C8 0.0239(11) 0.0190(10) 0.0178(10) 0.0040(8) 0.0099(8) 0.0013(8)
C9 0.0117(8) 0.0188(9) 0.0134(9) -0.0021(7) 0.0042(7) -0.0011(7)
C10 0.0164(9) 0.0170(9) 0.0140(9) -0.0009(7) 0.0028(7) 0.0020(7)
C11 0.0184(9) 0.0169(9) 0.0121(9) 0.0027(7) 0.0039(7) 0.0022(7)
C12 0.0174(10) 0.0258(11) 0.0134(9) 0.0010(8) 0.0013(7) 0.0051(8)
C13 0.0185(10) 0.0268(11) 0.0141(10) 0.0000(8) 0.0024(8) 0.0068(8)
C14 0.0149(9) 0.0177(9) 0.0148(9) 0.0022(7) 0.0024(7) 0.0021(7)
C15 0.0182(10) 0.0229(10) 0.0124(9) 0.0005(8) 0.0010(7) 0.0029(8)
C16 0.0176(9) 0.0190(9) 0.0144(9) 0.0003(8) 0.0037(7) 0.0030(8)
C17 0.0157(9) 0.0161(9) 0.0129(9) 0.0037(7) 0.0038(7) 0.0042(7)
C18 0.0154(9) 0.0208(10) 0.0151(9) -0.0004(8) -0.0001(7) 0.0031(8)
C19 0.0172(9) 0.0174(9) 0.0160(9) -0.0010(7) 0.0006(7) 0.0042(7)
C20 0.0145(9) 0.0185(9) 0.0150(9) 0.0015(7) 0.0017(7) 0.0026(7)
C21 0.0206(10) 0.0266(11) 0.0140(9) -0.0010(8) -0.0016(8) 0.0051(8)
C22 0.0204(10) 0.0195(10) 0.0164(10) -0.0027(8) 0.0016(8) 0.0054(8)
C23 0.0187(10) 0.0253(11) 0.0128(10) 0.0033(8) -0.0017(7) -0.0027(8)
C24 0.0163(10) 0.0233(10) 0.0151(10) 0.0056(8) -0.0007(8) -0.0020(7)
C25 0.0145(9) 0.0186(9) 0.0127(9) 0.0024(7) 0.0030(7) 0.0017(7)
C26 0.0214(10) 0.0247(11) 0.0140(10) 0.0021(8) -0.0015(8) -0.0053(8)
C27 0.0194(10) 0.0245(11) 0.0164(10) 0.0035(8) 0.0007(8) -0.0035(8)
C28 0.0152(9) 0.0149(9) 0.0104(8) 0.0014(7) 0.0026(7) 0.0024(7)
C29 0.0126(9) 0.0229(10) 0.0136(9) 0.0033(8) 0.0007(7) 0.0013(7)
C30 0.0132(9) 0.0235(10) 0.0142(9) 0.0030(8) 0.0023(7) -0.0014(7)
C31 0.0165(9) 0.0181(9) 0.0106(9) 0.0026(7) 0.0021(7) 0.0001(7)
C32 0.0160(9) 0.0216(10) 0.0114(9) 0.0023(7) 0.0014(7) 0.0021(7)
C33 0.0141(9) 0.0194(9) 0.0140(9) 0.0019(8) 0.0031(7) 0.0002(7)
Cu1A 0.01328 0.01669 0.01129 0.00418 0.00365 0.00245
Cu1C 0.01328 0.01669 0.01129 0.00418 0.00365 0.00245
N2A 0.0138 0.0191 0.014 -0.0037 0.0023 -0.0019
N3C 0.0156 0.02 0.0132 -0.0041 0.0025 -0.003
O1 0.079(2) 0.079(2) 0.0261(12) -0.0069(13) 0.0029(13) -0.0052(17)
N5 0.0357(14) 0.0365(13) 0.0455(16) -0.0088(11) 0.0138(12) -0.0087(10)
C34 0.0428(17) 0.0468(17) 0.0263(14) -0.0026(12) 0.0141(12) -0.0129(14)
C35 0.073(3) 0.090(4) 0.059(3) -0.022(3) -0.021(3) 0.006(3)
C36 0.077(3) 0.0363(19) 0.114(4) -0.026(2) 0.060(3) -0.027(2)
loop_
_geom_bond_atom_site_label_1
_geom_bond_atom_site_label_2
_geom_bond_site_symmetry_1
_geom_bond_site_symmetry_2
Cu1 Cl1 1_555 1_555
Cl2 Cu1 1_555 1_555
N1 Cu1 1_555 1_555
N2 C12 1_555 1_555
N3 C23 1_555 1_555
N4 C6 1_555 1_555
C1 N1 1_555 1_555
H1 C1 1_555 1_555
C2 C1 1_555 1_555
H2 C2 1_555 1_555
C3 C2 1_555 1_555
C4 C3 1_555 1_555
H3 C4 1_555 1_555
C5 N1 1_555 1_555
H4 C5 1_555 1_555
C6 C7 1_555 1_555
C7 H5 1_555 1_555
C8 C7 1_555 1_555
H6 C8 1_555 1_555
C9 C3 1_555 1_555
C10 C9 1_555 1_555
H7 C10 1_555 1_555
C11 C6 1_555 1_555
H8 C11 1_555 1_555
C12 H9 1_555 1_555
C13 C12 1_555 1_555
H10 C13 1_555 1_555
C14 C13 1_555 1_555
C15 C14 1_555 1_555
H11 C15 1_555 1_555
C16 N2 1_555 1_555
H12 C16 1_555 1_555
C17 N4 1_555 1_555
C18 C17 1_555 1_555
H13 C18 1_555 1_555
C19 C18 1_555 1_555
H14 C19 1_555 1_555
C20 C14 1_555 1_555
C21 C20 1_555 1_555
H15 C21 1_555 1_555
C22 C17 1_555 1_555
H16 C22 1_555 1_555
C23 H17 1_555 1_555
C24 C23 1_555 1_555
H18 C24 1_555 1_555
C25 C24 1_555 1_555
C26 C25 1_555 1_555
H19 C26 1_555 1_555
C27 N3 1_555 1_555
H20 C27 1_555 1_555
C28 N4 1_555 1_555
C29 C28 1_555 1_555
H21 C29 1_555 1_555
C30 C29 1_555 1_555
H22 C30 1_555 1_555
C31 C25 1_555 1_555
C32 C31 1_555 1_555
H23 C32 1_555 1_555
C33 C28 1_555 1_555
H24 C33 1_555 1_555
O1 C34 1_555 1_555
N5 C34 1_555 1_555
C34 H25 1_555 1_555
C35 N5 1_555 1_555
H26 C35 1_555 1_555
H27 C35 1_555 1_555
H28 C35 1_555 1_555
C36 N5 1_555 1_555
H29 C36 1_555 1_555
H30 C36 1_555 1_555
H31 C36 1_555 1_555
Cu1A N2 1_555 1_555
Cu1C N3 1_555 1_555
N2A Cu1 1_555 1_555
N3C Cu1 1_555 1_555
C4 C5 1_555 1_555
C8 C9 1_555 1_555
C10 C11 1_555 1_555
C15 C16 1_555 1_555
C19 C20 1_555 1_555
C21 C22 1_555 1_555
C26 C27 1_555 1_555
C30 C31 1_555 1_555
C32 C33 1_555 1_555

#END
