
#######################################################################
#
#                 Cambridge Crystallographic Data Centre
#                                CCDC 
#
#######################################################################
#
# If this CIF has been generated from an entry in the Cambridge 
# Structural Database, then it will include bibliographic, chemical, 
# crystal, experimental, refinement or atomic coordinate data resulting 
# from the CCDC's data processing and validation procedures.
#
#######################################################################

data_CUBHOY
_chemical_formula_moiety         '(C39 H37 Cd4 N9 O22)n'
_symmetry_cell_setting           monoclinic
_symmetry_space_group_name_H-M   'C 2/c'
_symmetry_Int_Tables_number      15
_space_group_name_Hall           '-C 2yc'
loop_
_symmetry_equiv_pos_site_id
_symmetry_equiv_pos_as_xyz
1 x,y,z
2 -x,y,1/2-z
3 1/2+x,1/2+y,z
4 1/2-x,1/2+y,1/2-z
5 -x,-y,-z
6 x,-y,1/2+z
7 1/2-x,1/2-y,-z
8 1/2+x,1/2-y,1/2+z
_cell_length_a                   23.286(2)
_cell_length_b                   17.2577(16)
_cell_length_c                   18.2221(17)
_cell_angle_alpha                90
_cell_angle_beta                 126.661(3)
_cell_angle_gamma                90
_cell_volume                     5874.21
loop_
_atom_site_label
_atom_site_type_symbol
_atom_site_fract_x
_atom_site_fract_y
_atom_site_fract_z
Cd1 Cd 0.22509(4) 0.14002(5) 0.21835(5)
Cd2 Cd 0.28662(4) 0.38197(5) 0.27787(5)
N1 N 0.1017(4) 0.1764(5) 0.1410(5)
N2 N 0.0393(4) 0.1390(5) 0.0867(6)
N3 N 0.3072(4) 0.3980(5) 0.1632(5)
N4 N 0.3131(4) 0.3558(5) 0.1055(5)
O1 O 0.1505(4) 0.3723(4) 0.1350(5)
O2 O 0.2167(3) 0.2733(4) 0.2223(4)
O3 O 0.2829(4) 0.5111(4) 0.2451(4)
O4 O 0.2715(4) 0.6012(5) 0.1510(5)
O5 O 0.2798(5) 0.4196(5) -0.1059(5)
O6 O 0.3096(4) 0.3016(5) -0.0500(5)
O7 O -0.0963(4) 0.0903(5) -0.0806(5)
O8 O -0.1271(4) 0.2112(5) -0.1154(5)
O9 O 0.3465(4) 0.1461(5) 0.3092(6)
H1 H 0.3643 0.1065 0.3435
H2 H 0.3608 0.1864 0.3426
O10 O 0.2421(5) 0.4230(5) 0.3529(5)
H3 H 0.1994 0.4074 0.3269
H4 H 0.2432 0.4722 0.3565
C1 C 0.0081(7) 0.0021(8) 0.2184(8)
H5 H 0.0148 -0.0452 0.2000
C2 C 0.0071(7) 0.1340(8) 0.2166(8)
H6 H 0.0115 0.1808 0.1950
C3 C 0.0141(6) 0.0658(7) 0.1848(7)
C4 C 0.0300(6) 0.0626(6) 0.1151(7)
H7 H 0.0734 0.0326 0.1408
H8 H -0.0087 0.0354 0.0612
C5 C -0.0118(5) 0.1884(6) 0.0160(7)
C6 C 0.0227(6) 0.2580(7) 0.0311(7)
H9 H 0.0033 0.3028 -0.0038
C7 C 0.0923(5) 0.2476(6) 0.1092(6)
C8 C 0.2806(6) 0.5311(7) 0.1760(7)
C9 C 0.1567(6) 0.3027(6) 0.1578(7)
C10 C 0.2968(6) 0.3693(8) -0.0452(7)
C11 C 0.2972(6) 0.3993(7) 0.0318(7)
C12 C 0.2839(6) 0.4725(7) 0.0464(7)
H10 H 0.2737 0.5157 0.0098
C13 C 0.2886(6) 0.4707(7) 0.1271(7)
C14 C -0.0826(6) 0.1589(7) -0.0633(7)
C15 C 0.3421(5) 0.2757(6) 0.1319(7)
H11 H 0.3248 0.2457 0.0773
H12 H 0.3254 0.2511 0.1637
C16 C 0.4243(6) 0.2766(6) 0.1940(7)
C17 C 0.4616(6) 0.2745(7) 0.1554(8)
H13 H 0.4368 0.2727 0.0923
C18 C 0.4641(6) 0.2750(7) 0.2873(8)
H14 H 0.4401 0.2742 0.3138
N1A N -0.1017(4) 0.1764(5) 0.3590(5)
N2A N -0.0393(4) 0.1390(5) 0.4133(6)
O1A O -0.1505(4) 0.3723(4) 0.3650(5)
O2A O -0.2167(3) 0.2733(4) 0.2777(4)
O7A O 0.0963(4) 0.0903(5) 0.5806(5)
O8A O 0.1271(4) 0.2112(5) 0.6154(5)
C1A C -0.0081(7) 0.0021(8) 0.2816(8)
H5A H -0.0148 -0.0452 0.3000
C2A C -0.0071(7) 0.1340(8) 0.2834(8)
H6A H -0.0115 0.1808 0.3050
C3A C -0.0141(6) 0.0658(7) 0.3152(7)
C4A C -0.0300(6) 0.0626(6) 0.3849(7)
H7A H -0.0734 0.0326 0.3592
H8A H 0.0087 0.0354 0.4388
C5A C 0.0118(5) 0.1884(6) 0.4840(7)
C6A C -0.0227(6) 0.2580(7) 0.4689(7)
H9A H -0.0033 0.3028 0.5038
C7A C -0.0923(5) 0.2476(6) 0.3908(6)
C9A C -0.1567(6) 0.3027(6) 0.3422(7)
C14A C 0.0826(6) 0.1589(7) 0.5633(7)
N3A N 0.6928(4) 0.3980(5) 0.3368(5)
N4A N 0.6869(4) 0.3558(5) 0.3945(5)
O3A O 0.7171(4) 0.5111(4) 0.2549(4)
O4A O 0.7285(4) 0.6012(5) 0.3490(5)
O5A O 0.7202(5) 0.4196(5) 0.6059(5)
O6A O 0.6904(4) 0.3016(5) 0.5500(5)
C8A C 0.7194(6) 0.5311(7) 0.3240(7)
C10A C 0.7032(6) 0.3693(8) 0.5452(7)
C11A C 0.7028(6) 0.3993(7) 0.4682(7)
C12A C 0.7161(6) 0.4725(7) 0.4536(7)
H10A H 0.7263 0.5157 0.4902
C13A C 0.7114(6) 0.4707(7) 0.3729(7)
C15A C 0.6579(5) 0.2757(6) 0.3681(7)
H11A H 0.6752 0.2457 0.4227
H12A H 0.6746 0.2511 0.3363
C16A C 0.5757(6) 0.2766(6) 0.3060(7)
C17A C 0.5384(6) 0.2745(7) 0.3446(8)
H13A H 0.5632 0.2727 0.4077
C18A C 0.5359(6) 0.2750(7) 0.2127(8)
H14A H 0.5599 0.2742 0.1862
Cd1A Cd -0.22509(4) 0.14002(5) 0.28165(5)
Cd2A Cd -0.28662(4) 0.38197(5) 0.22213(5)
O9A O -0.3465(4) 0.1461(5) 0.1908(6)
H1A H -0.3643 0.1065 0.1565
H2A H -0.3608 0.1864 0.1574
O10A O -0.2421(5) 0.4230(5) 0.1471(5)
H3A H -0.1994 0.4074 0.1731
H4A H -0.2432 0.4722 0.1435
Cd1B Cd 0.72509(4) 0.64002(5) 0.21835(5)
Cd1C Cd 0.27491(4) 0.64002(5) 0.28165(5)
Cd1F Cd 0.27491(4) 0.35998(5) -0.21835(5)
Cd1G Cd 0.72509(4) 0.35998(5) 0.71835(5)
Cd2A_2 Cd 0.71338(4) 0.38197(5) 0.22213(5)
Cd2F Cd 0.21338(4) 0.11803(5) 0.72213(5)
Cd2G Cd -0.21338(4) 0.11803(5) -0.22213(5)
N3A_2 N -0.3072(4) 0.3980(5) 0.3368(5)
O3A_2 O -0.2829(4) 0.5111(4) 0.2549(4)
O3B O -0.2171(4) 0.0111(4) 0.2451(4)
O3C O 0.2171(4) 0.0111(4) 0.2549(4)
O4B O -0.2285(4) 0.1012(5) 0.1510(5)
O4C O 0.2285(4) 0.1012(5) 0.3490(5)
O5F O 0.2202(5) 0.0804(5) 0.1059(5)
O5G O -0.2202(5) 0.0804(5) 0.3941(5)
O7F O -0.4037(4) 0.4097(5) 0.0806(5)
O7G O 0.4037(4) 0.4097(5) 0.4194(5)
O8F O -0.3729(4) 0.2888(5) 0.1154(5)
O8G O 0.3729(4) 0.2888(5) 0.3846(5)
N5 N 0.8560(9) 0.2773(13) 0.0914(13)
O11 O 0.8921(12) 0.3512(16) 0.2083(15)
C19 C 0.8622(12) 0.2895(15) 0.1679(14)
H15 H 0.8453 0.2544 0.1896
C20 C 0.8840(18) 0.3357(17) 0.061(2)
H16 H 0.8520 0.3793 0.0355
H17 H 0.8879 0.3135 0.0162
H18 H 0.9304 0.3526 0.1129
C21 C 0.8218(16) 0.2081(15) 0.0335(19)
H19 H 0.8462 0.1624 0.0689
H20 H 0.8243 0.2107 -0.0171
H21 H 0.7726 0.2060 0.0110
O12 O 0.0793(8) 0.5148(9) 0.0762(10)
H22 H 0.1026 0.4734 0.1023
H23 H 0.0609 0.5113 0.0196
loop_
_geom_bond_atom_site_label_1
_geom_bond_atom_site_label_2
_geom_bond_site_symmetry_1
_geom_bond_site_symmetry_2
Cd1 N1 1_555 1_555
Cd2 N3 1_555 1_555
N1 N2 1_555 1_555
N2 C4 1_555 1_555
N3 N4 1_555 1_555
N4 C11 1_555 1_555
O1 Cd2 1_555 1_555
O2 Cd1 1_555 1_555
O3 Cd2 1_555 1_555
O4 C8 1_555 1_555
O5 C10 1_555 1_555
O6 C10 1_555 1_555
O7 C14 1_555 1_555
O8 C14 1_555 1_555
O9 Cd1 1_555 1_555
H1 O9 1_555 1_555
H2 O9 1_555 1_555
O10 Cd2 1_555 1_555
H3 O10 1_555 1_555
H4 O10 1_555 1_555
C1 H5 1_555 1_555
C2 H6 1_555 1_555
C3 C1 1_555 1_555
C4 C3 1_555 1_555
H7 C4 1_555 1_555
H8 C4 1_555 1_555
C5 N2 1_555 1_555
C6 C5 1_555 1_555
H9 C6 1_555 1_555
C7 N1 1_555 1_555
C8 O3 1_555 1_555
C9 O1 1_555 1_555
C10 C11 1_555 1_555
C11 C12 1_555 1_555
C12 H10 1_555 1_555
C13 N3 1_555 1_555
C14 C5 1_555 1_555
C15 N4 1_555 1_555
H11 C15 1_555 1_555
H12 C15 1_555 1_555
C16 C15 1_555 1_555
C17 C16 1_555 1_555
H13 C17 1_555 1_555
C18 C16 1_555 1_555
H14 C18 1_555 1_555
N5 C19 1_555 1_555
O11 C19 1_555 1_555
C19 H15 1_555 1_555
C20 N5 1_555 1_555
H16 C20 1_555 1_555
H17 C20 1_555 1_555
H18 C20 1_555 1_555
C21 N5 1_555 1_555
H19 C21 1_555 1_555
H20 C21 1_555 1_555
H21 C21 1_555 1_555
O12 H22 1_555 1_555
H23 O12 1_555 1_555
N1A N2A 1_555 1_555
N2A C4A 1_555 1_555
O1A C9A 1_555 1_555
O2A C9A 1_555 1_555
O7A C14A 1_555 1_555
O8A C14A 1_555 1_555
C1A C1 1_555 1_555
H5A C1A 1_555 1_555
C2A C2 1_555 1_555
H6A C2A 1_555 1_555
C3A C1A 1_555 1_555
C4A C3A 1_555 1_555
H7A C4A 1_555 1_555
H8A C4A 1_555 1_555
C5A N2A 1_555 1_555
C6A C5A 1_555 1_555
H9A C6A 1_555 1_555
C7A N1A 1_555 1_555
C9A C7A 1_555 1_555
C14A C5A 1_555 1_555
N3A N4A 1_555 1_555
N4A C11A 1_555 1_555
O3A C8A 1_555 1_555
O4A C8A 1_555 1_555
O5A C10A 1_555 1_555
O6A C10A 1_555 1_555
C8A C13A 1_555 1_555
C10A C11A 1_555 1_555
C11A C12A 1_555 1_555
C12A H10A 1_555 1_555
C13A N3A 1_555 1_555
C15A N4A 1_555 1_555
H11A C15A 1_555 1_555
H12A C15A 1_555 1_555
C16A C15A 1_555 1_555
C17A C18 1_555 1_555
H13A C17A 1_555 1_555
C18A C17 1_555 1_555
H14A C18A 1_555 1_555
Cd1A N1A 1_555 1_555
Cd2A O1A 1_555 1_555
O9A Cd1A 1_555 1_555
H1A O9A 1_555 1_555
H2A O9A 1_555 1_555
O10A Cd2A 1_555 1_555
H3A O10A 1_555 1_555
H4A O10A 1_555 1_555
Cd1B O3A 1_555 1_555
Cd1C O3 1_555 1_555
Cd1F O5 1_555 1_555
Cd1G O5A 1_555 1_555
Cd2A_2 N3A 1_555 1_555
Cd2F O7A 1_555 1_555
Cd2G O7 1_555 1_555
N3A_2 Cd2A 1_555 1_555
O3A_2 Cd2A 1_555 1_555
O3B Cd1A 1_555 1_555
O3C Cd1 1_555 1_555
O4B Cd1A 1_555 1_555
O4C Cd1 1_555 1_555
O5F Cd1 1_555 1_555
O5G Cd1A 1_555 1_555
O7F Cd2A 1_555 1_555
O7G Cd2 1_555 1_555
O8F Cd2A 1_555 1_555
O8G Cd2 1_555 1_555
Cd2 O2 1_555 1_555
O2 C9 1_555 1_555
O4 Cd1C 1_555 1_555
O8 Cd2G 1_555 1_555
C2 C3 1_555 1_555
C6 C7 1_555 1_555
C7 C9 1_555 1_555
C8 C13 1_555 1_555
C12 C13 1_555 1_555
O2A Cd1A 1_555 1_555
O2A Cd2A 1_555 1_555
O8A Cd2F 1_555 1_555
C2A C3A 1_555 1_555
C6A C7A 1_555 1_555
O3A Cd2A_2 1_555 1_555
O4A Cd1B 1_555 1_555
C12A C13A 1_555 1_555
C16A C17A 1_555 1_555
C16A C18A 1_555 1_555

#END
