
#######################################################################
#
#                 Cambridge Crystallographic Data Centre
#                                CCDC 
#
#######################################################################
#
# If this CIF has been generated from an entry in the Cambridge 
# Structural Database, then it will include bibliographic, chemical, 
# crystal, experimental, refinement or atomic coordinate data resulting 
# from the CCDC's data processing and validation procedures.
#
#######################################################################

data_WEMBUN
_chemical_formula_moiety         '(C10 H18 Er2 O22)n'
_symmetry_cell_setting           monoclinic
_symmetry_space_group_name_H-M   'P 21/n'
_symmetry_Int_Tables_number      14
_space_group_name_Hall           '-P 2yn'
loop_
_symmetry_equiv_pos_site_id
_symmetry_equiv_pos_as_xyz
1 x,y,z
2 1/2-x,1/2+y,1/2-z
3 -x,-y,-z
4 1/2+x,1/2-y,1/2+z
_cell_length_a                   9.6103(19)
_cell_length_b                   11.531(2)
_cell_length_c                   12.200(2)
_cell_angle_alpha                90
_cell_angle_beta                 99.03(3)
_cell_angle_gamma                90
_cell_volume                     1335.2
loop_
_atom_site_label
_atom_site_type_symbol
_atom_site_fract_x
_atom_site_fract_y
_atom_site_fract_z
Er1 Er 0.21509(2) 0.011520(19) 0.332982(16)
O1 O 0.1362(3) -0.1829(3) 0.3298(3)
O2 O 0.1886(3) -0.3656(3) 0.2921(3)
O3 O 0.3228(4) -0.1070(3) 0.2052(3)
O4 O 0.3623(4) -0.2908(3) 0.1567(3)
O5 O 0.4118(4) 0.1177(3) 0.4320(3)
O6 O 0.6028(3) 0.1123(3) 0.5625(3)
O7 O -0.0334(4) 0.0078(3) 0.3558(3)
O8 O -0.1822(4) -0.0108(3) 0.4784(3)
O9 O 0.0551(4) 0.0193(3) 0.1588(3)
H1 H 0.0072 0.0815 0.1555
H2 H 0.1022 0.0176 0.1054
H3 H -0.0000 -0.0387 0.1543
C1 C 0.2002(4) -0.2585(4) 0.2837(3)
C2 C 0.3043(5) -0.2141(4) 0.2078(4)
C3 C 0.5040(4) 0.0661(4) 0.4988(3)
C4 C -0.0630(5) -0.0007(3) 0.4530(4)
Er1A Er 0.28491(2) 0.511520(19) 0.167018(16)
Er1A_2 Er 0.28491(2) -0.488480(19) 0.167018(16)
Er1B Er 0.78491(2) -0.011520(19) 0.667018(16)
Er1B_2 Er -0.21509(2) -0.011520(19) 0.667018(16)
O1A O 0.3638(3) 0.3171(3) 0.1702(3)
O2A O 0.3114(3) 0.1344(3) 0.2079(3)
O2_2 O 0.1886(3) 0.6344(3) 0.2921(3)
O3A O 0.1772(4) 0.3930(3) 0.2948(3)
O4A O 0.1377(4) 0.2092(3) 0.3433(3)
O4_2 O 0.3623(4) 0.7092(3) 0.1567(3)
O5B O 0.5882(4) -0.1177(3) 0.5680(3)
O5A O 0.0882(4) 0.6177(3) 0.0680(3)
O6B O 0.3972(3) -0.1123(3) 0.4375(3)
O6C O 0.1028(3) 0.3877(3) 0.0625(3)
O7B O 0.0334(4) -0.0078(3) 0.6442(3)
O7A O 0.5334(4) 0.5078(3) 0.1442(3)
O8B O 0.1822(4) 0.0108(3) 0.5216(3)
O8C O 0.3178(4) 0.5108(3) -0.0216(3)
O9A O 0.4449(4) 0.5193(3) 0.3412(3)
H1A H 0.4928 0.5815 0.3445
H2A H 0.3978 0.5176 0.3946
H3A H 0.5000 0.4613 0.3457
C1A C 0.2998(4) 0.2415(4) 0.2163(3)
C2A C 0.1957(5) 0.2859(4) 0.2922(4)
C3B C 0.4960(4) -0.0661(4) 0.5012(3)
C4B C 0.0630(5) 0.0007(3) 0.5470(4)
O10 O 0.1916(8) -0.2485(10) -0.1660(6)
H4 H 0.1242 -0.2457 -0.1324
C5 C 0.2290(5) -0.1299(5) -0.1967(4)
H5 H 0.1482 -0.0952 -0.2427
H6 H 0.2503 -0.0836 -0.1298
C6 C 0.3473(7) -0.1259(9) -0.2553(7)
H7 H 0.3656 -0.0469 -0.2735
H8 H 0.3267 -0.1706 -0.3223
H9 H 0.4287 -0.1575 -0.2094
O11 O 0.0924(5) 0.1523(4) -0.0314(4)
H10 H 0.0259 0.2013 -0.0334
H11 H 0.1635 0.1849 -0.0516
O12 O 0.3340(11) -0.0076(5) -0.0057(7)
H12 H 0.2720 0.0310 0.0212
H13 H 0.3711 -0.0571 0.0417
O13 O 0.5847(6) -0.2152(5) 0.0346(4)
H14 H 0.6413 -0.2620 0.0725
H15 H 0.5333 -0.2521 -0.0170
loop_
_geom_bond_atom_site_label_1
_geom_bond_atom_site_label_2
_geom_bond_site_symmetry_1
_geom_bond_site_symmetry_2
Er1 O1 1_555 1_555
O1 C1 1_555 1_555
O2 C1 1_555 1_555
O3 Er1 1_555 1_555
O4 C2 1_555 1_555
O5 Er1 1_555 1_555
O6 C3 1_555 1_555
O7 Er1 1_555 1_555
O8 C4 1_555 1_555
O9 Er1 1_555 1_555
H1 O9 1_555 1_555
H2 O9 1_555 1_555
H3 O9 1_555 1_555
O10 H4 1_555 1_555
C1 C2 1_555 1_555
C2 O3 1_555 1_555
C3 O5 1_555 1_555
C4 O7 1_555 1_555
C5 O10 1_555 1_555
H5 C5 1_555 1_555
H6 C5 1_555 1_555
C6 C5 1_555 1_555
H7 C6 1_555 1_555
H8 C6 1_555 1_555
H9 C6 1_555 1_555
O11 H10 1_555 1_555
H11 O11 1_555 1_555
O12 H12 1_555 1_555
H13 O12 1_555 1_555
O13 H14 1_555 1_555
H15 O13 1_555 1_555
Er1A O1A 1_555 1_555
Er1A_2 O2 1_555 1_555
Er1B O6 1_555 1_555
Er1B_2 O8 1_555 1_555
O1A C1A 1_555 1_555
O2A Er1 1_555 1_555
O2_2 Er1A 1_555 1_555
O3A Er1A 1_555 1_555
O4A Er1 1_555 1_555
O4_2 Er1A 1_555 1_555
O5B Er1B 1_555 1_555
O5A Er1A 1_555 1_555
O6B Er1 1_555 1_555
O6C Er1A 1_555 1_555
O7B Er1B_2 1_555 1_555
O7A Er1A 1_555 1_555
O8B Er1 1_555 1_555
O8C Er1A 1_555 1_555
O9A Er1A 1_555 1_555
H1A O9A 1_555 1_555
H2A O9A 1_555 1_555
H3A O9A 1_555 1_555
C1A O2A 1_555 1_555
C2A O3A 1_555 1_555
C3B C3 1_555 1_555
C4B C4 1_555 1_555
O4 Er1A_2 1_555 1_555
O4A C2A 1_555 1_555
O5B C3B 1_555 1_555
O6B C3B 1_555 1_555
O7B C4B 1_555 1_555
O8B C4B 1_555 1_555
C1A C2A 1_555 1_555

#END
