
#######################################################################
#
#                 Cambridge Crystallographic Data Centre
#                                CCDC 
#
#######################################################################
#
# If this CIF has been generated from an entry in the Cambridge 
# Structural Database, then it will include bibliographic, chemical, 
# crystal, experimental, refinement or atomic coordinate data resulting 
# from the CCDC's data processing and validation procedures.
#
#######################################################################

data_WEMDID
_chemical_formula_moiety         '(C10 H18 Nd2 O22)n'
_symmetry_cell_setting           monoclinic
_symmetry_space_group_name_H-M   'P 21/n'
_symmetry_Int_Tables_number      14
_space_group_name_Hall           '-P 2yn'
loop_
_symmetry_equiv_pos_site_id
_symmetry_equiv_pos_as_xyz
1 x,y,z
2 1/2-x,1/2+y,1/2-z
3 -x,-y,-z
4 1/2+x,1/2-y,1/2+z
_cell_length_a                   9.7166(19)
_cell_length_b                   11.926(2)
_cell_length_c                   12.380(3)
_cell_angle_alpha                90
_cell_angle_beta                 99.42(3)
_cell_angle_gamma                90
_cell_volume                     1415.25
loop_
_atom_site_label
_atom_site_type_symbol
_atom_site_fract_x
_atom_site_fract_y
_atom_site_fract_z
Nd1 Nd 0.21288(2) 0.481461(17) 0.329260(17)
O1 O -0.1810(3) 0.5132(3) 0.4770(3)
O2 O -0.0346(3) 0.4820(3) 0.3588(2)
O3 O 0.6004(4) 0.3937(3) 0.5701(3)
O4 O 0.4189(3) 0.3817(3) 0.4347(3)
O5 O 0.3051(3) 0.3542(2) 0.2034(3)
O6 O 0.3677(3) 0.1780(2) 0.1743(3)
O7 O 0.1410(4) 0.2805(3) 0.3439(3)
O8 O 0.1898(4) 0.1034(3) 0.3037(3)
O9 O 0.0404(4) 0.4740(3) 0.1505(3)
H1 H -0.0065 0.4136 0.1485
H2 H -0.0145 0.5298 0.1469
H3 H 0.0846 0.4757 0.0967
C1 C -0.0625(5) 0.4983(4) 0.4528(4)
C2 C 0.5060(4) 0.4358(4) 0.5018(4)
C3 C 0.3008(4) 0.2506(3) 0.2178(3)
C4 C 0.2015(4) 0.2071(3) 0.2958(3)
Nd1B Nd -0.21288(2) 0.518539(17) 0.670740(17)
Nd1A Nd 0.28712(2) -0.018539(17) 0.170740(17)
Nd1B_2 Nd 0.78712(2) 0.518539(17) 0.670740(17)
Nd1A_2 Nd 0.28712(2) 0.981461(17) 0.170740(17)
O1B O 0.1810(3) 0.4868(3) 0.5230(3)
O2B O 0.0346(3) 0.5180(3) 0.6412(2)
O3B O 0.3996(4) 0.6063(3) 0.4299(3)
O3_2 O -0.3996(4) 0.3937(3) 0.5701(3)
O4B O 0.5811(3) 0.6183(3) 0.5653(3)
O4B_2 O -0.4189(3) 0.6183(3) 0.5653(3)
O5B O -0.3051(3) 0.6458(2) 0.7966(3)
O5A O 0.1949(3) 0.8542(2) 0.2966(3)
O6A O 0.1323(3) 0.6780(2) 0.3257(3)
O6C O -0.1323(3) 0.3220(2) 0.6743(3)
O7B O -0.1410(4) 0.7195(3) 0.6561(3)
O7A O 0.3590(4) 0.7805(3) 0.1561(3)
O8A O 0.3102(4) 0.6034(3) 0.1963(3)
O8C O -0.3102(4) 0.3966(3) 0.8037(3)
O9B O -0.0404(4) 0.5260(3) 0.8495(3)
H1B H 0.0065 0.5864 0.8515
H2B H 0.0145 0.4702 0.8531
H3B H -0.0846 0.5243 0.9033
C1B C 0.0625(5) 0.5017(4) 0.5472(4)
C2B C 0.4940(4) 0.5642(4) 0.4982(4)
C3A C 0.1992(4) 0.7506(3) 0.2822(3)
C4A C 0.2985(4) 0.7071(3) 0.2042(3)
O10 O 0.7998(10) 0.2554(8) 0.1688(7)
H4 H 0.8662 0.2558 0.1355
C5 C 0.6475(7) 0.3796(8) 0.2551(6)
H5 H 0.6315 0.4567 0.2715
H6 H 0.6676 0.3377 0.3220
H7 H 0.5656 0.3494 0.2106
C6 C 0.7656(5) 0.3719(4) 0.1960(4)
H8 H 0.8467 0.4055 0.2402
H9 H 0.7445 0.4148 0.1288
O11 O 0.0763(5) 0.3404(3) 0.9652(4)
H10 H 0.0056 0.3011 0.9732
H11 H 0.1503 0.3038 0.9882
O12 O 0.3256(7) 0.5056(5) -0.0109(4)
H12 H 0.2775 0.4464 -0.0258
H13 H 0.2900 0.5449 0.0347
O13 O 0.0881(6) 0.7801(4) 0.5318(4)
H14 H 0.0841 0.8395 0.4935
H15 H 0.0087 0.7674 0.5497
loop_
_geom_bond_atom_site_label_1
_geom_bond_atom_site_label_2
_geom_bond_site_symmetry_1
_geom_bond_site_symmetry_2
Nd1 O2 1_555 1_555
O1 C1 1_555 1_555
O2 C1 1_555 1_555
O3 C2 1_555 1_555
O4 Nd1 1_555 1_555
O5 Nd1 1_555 1_555
O6 C3 1_555 1_555
O7 Nd1 1_555 1_555
O8 C4 1_555 1_555
O9 Nd1 1_555 1_555
H1 O9 1_555 1_555
H2 O9 1_555 1_555
H3 O9 1_555 1_555
O10 H4 1_555 1_555
C1 C1B 1_555 1_555
C2 O4 1_555 1_555
C3 O5 1_555 1_555
C4 O7 1_555 1_555
C5 H5 1_555 1_555
H6 C5 1_555 1_555
H7 C5 1_555 1_555
C6 O10 1_555 1_555
H8 C6 1_555 1_555
H9 C6 1_555 1_555
O11 H10 1_555 1_555
H11 O11 1_555 1_555
O12 H12 1_555 1_555
H13 O12 1_555 1_555
O13 H14 1_555 1_555
H15 O13 1_555 1_555
Nd1B O1 1_555 1_555
Nd1A O6 1_555 1_555
Nd1B_2 O3 1_555 1_555
Nd1A_2 O5A 1_555 1_555
O1B Nd1 1_555 1_555
O2B Nd1B 1_555 1_555
O3B Nd1 1_555 1_555
O3_2 Nd1B 1_555 1_555
O4B Nd1B_2 1_555 1_555
O4B_2 Nd1B 1_555 1_555
O5B Nd1B 1_555 1_555
O5A C3A 1_555 1_555
O6A Nd1 1_555 1_555
O6C Nd1B 1_555 1_555
O7B Nd1B 1_555 1_555
O7A Nd1A_2 1_555 1_555
O8A Nd1 1_555 1_555
O8C Nd1B 1_555 1_555
O9B Nd1B 1_555 1_555
H1B O9B 1_555 1_555
H2B O9B 1_555 1_555
H3B O9B 1_555 1_555
C1B O1B 1_555 1_555
C2B C2 1_555 1_555
C3A O6A 1_555 1_555
C4A O7A 1_555 1_555
O8 Nd1A 1_555 1_555
C3 C4 1_555 1_555
C5 C6 1_555 1_555
O2B C1B 1_555 1_555
O3B C2B 1_555 1_555
O4B C2B 1_555 1_555
O8A C4A 1_555 1_555
C3A C4A 1_555 1_555

#END
