
#######################################################################
#
#                 Cambridge Crystallographic Data Centre
#                                CCDC 
#
#######################################################################
#
# If this CIF has been generated from an entry in the Cambridge 
# Structural Database, then it will include bibliographic, chemical, 
# crystal, experimental, refinement or atomic coordinate data resulting 
# from the CCDC's data processing and validation procedures.
#
#######################################################################

data_WEMFIF
_chemical_formula_moiety         '(C10 H18 Dy2 O22)n'
_symmetry_cell_setting           monoclinic
_symmetry_space_group_name_H-M   'P 21/n'
_symmetry_Int_Tables_number      14
_space_group_name_Hall           '-P 2yn'
loop_
_symmetry_equiv_pos_site_id
_symmetry_equiv_pos_as_xyz
1 x,y,z
2 1/2-x,1/2+y,1/2-z
3 -x,-y,-z
4 1/2+x,1/2-y,1/2+z
_cell_length_a                   9.6315(19)
_cell_length_b                   11.613(2)
_cell_length_c                   12.217(2)
_cell_angle_alpha                90
_cell_angle_beta                 99.13(3)
_cell_angle_gamma                90
_cell_volume                     1349.17
loop_
_atom_site_label
_atom_site_type_symbol
_atom_site_fract_x
_atom_site_fract_y
_atom_site_fract_z
Dy1 Dy 0.214697(16) 0.513115(13) 0.832401(13)
O1 O 0.3099(3) 0.6368(2) 0.7072(2)
O2 O 0.3648(3) 0.8182(2) 0.6712(2)
O3 O 0.1387(3) 0.7122(2) 0.8440(2)
O4 O 0.1797(3) 0.8938(2) 0.7964(2)
O5 O 0.3973(3) 0.3885(2) 0.9360(3)
O6 O 0.5868(3) 0.3820(2) 1.0672(2)
O7 O -0.0328(3) 0.5103(2) 0.8566(2)
O8 O -0.1822(3) 0.4884(2) 0.9777(2)
O9 O 0.0525(3) 0.5201(3) 0.6564(2)
H1 H 0.0050 0.5820 0.6532
H2 H 0.0990 0.5182 0.6029
H3 H -0.0028 0.4627 0.6522
C1 C 0.2996(4) 0.7430(3) 0.7170(3)
C2 C 0.1971(4) 0.7871(3) 0.7931(3)
C3 C 0.4956(4) 0.4336(3) 1.0011(3)
C4 C -0.0630(4) 0.5001(3) 0.9522(3)
Dy1B Dy -0.214697(16) 0.486885(13) 1.167599(13)
Dy1A Dy 0.285303(16) 1.013115(13) 0.667599(13)
Dy1B_2 Dy 0.785303(16) 0.486885(13) 1.167599(13)
Dy1A_2 Dy 0.285303(16) 0.013115(13) 0.667599(13)
O1A O 0.1901(3) 1.1368(2) 0.7928(2)
O1A_2 O 0.1901(3) 0.1368(2) 0.7928(2)
O2A O 0.1352(3) 0.3182(2) 0.8288(2)
O3A O 0.3613(3) 1.2122(2) 0.6560(2)
O3A_2 O 0.3613(3) 0.2122(2) 0.6560(2)
O4A O 0.3203(3) 0.3938(2) 0.7036(2)
O5B O 0.6027(3) 0.6115(2) 1.0640(3)
O5A O 0.1027(3) 0.8885(2) 0.5640(3)
O6B O 0.4132(3) 0.6180(2) 0.9328(2)
O6C O 0.0868(3) 1.1180(2) 0.5672(2)
O7B O 0.0328(3) 0.4897(2) 1.1434(2)
O7A O 0.5328(3) 1.0103(2) 0.6434(2)
O8B O 0.1822(3) 0.5116(2) 1.0223(2)
O8C O 0.3178(3) 1.0116(2) 0.4777(2)
O9A O 0.4475(3) 1.0201(3) 0.8436(2)
H1A H 0.4950 1.0820 0.8468
H2A H 0.4010 1.0182 0.8971
H3A H 0.5028 0.9627 0.8478
C1A C 0.2004(4) 0.2430(3) 0.7830(3)
C2A C 0.3029(4) 0.2871(3) 0.7069(3)
C3B C 0.5044(4) 0.5664(3) 0.9989(3)
C4B C 0.0630(4) 0.4999(3) 1.0478(3)
O10 O 0.1912(8) 0.2511(7) 0.3334(7)
H4 H 0.1239 0.2534 0.3669
C5 C 0.3481(6) 0.3754(8) 0.2448(5)
H5 H 0.3667 0.4543 0.2287
H6 H 0.3267 0.3330 0.1767
H7 H 0.4295 0.3427 0.2895
C6 C 0.2292(4) 0.3697(4) 0.3046(3)
H8 H 0.1484 0.4051 0.2597
H9 H 0.2511 0.4142 0.3723
O11 O 0.0862(5) 0.6550(3) 0.4667(3)
H10 H 0.0918 0.7193 0.5003
H11 H 0.1634 0.6411 0.4439
O12 O 0.3274(7) 0.4927(4) 0.4921(4)
H12 H 0.2622 0.5202 0.5236
H13 H 0.3778 0.4473 0.5363
O13 O 0.0841(5) 0.2185(4) 0.0353(4)
H14 H 0.0216 0.2505 -0.0120
H15 H 0.1651 0.2341 0.0201
loop_
_geom_bond_atom_site_label_1
_geom_bond_atom_site_label_2
_geom_bond_site_symmetry_1
_geom_bond_site_symmetry_2
Dy1 O1 1_555 1_555
O1 C1 1_555 1_555
O2 C1 1_555 1_555
O3 Dy1 1_555 1_555
O4 C2 1_555 1_555
O5 Dy1 1_555 1_555
O6 C3 1_555 1_555
O7 Dy1 1_555 1_555
O8 C4 1_555 1_555
O9 Dy1 1_555 1_555
H1 O9 1_555 1_555
H2 O9 1_555 1_555
H3 O9 1_555 1_555
O10 H4 1_555 1_555
C1 C2 1_555 1_555
C2 O3 1_555 1_555
C3 O5 1_555 1_555
C4 O7 1_555 1_555
C5 H5 1_555 1_555
H6 C5 1_555 1_555
H7 C5 1_555 1_555
C6 O10 1_555 1_555
H8 C6 1_555 1_555
H9 C6 1_555 1_555
O11 H10 1_555 1_555
H11 O11 1_555 1_555
O12 H12 1_555 1_555
H13 O12 1_555 1_555
O13 H14 1_555 1_555
H15 O13 1_555 1_555
Dy1B O8 1_555 1_555
Dy1A O2 1_555 1_555
Dy1B_2 O6 1_555 1_555
Dy1A_2 O1A_2 1_555 1_555
O1A Dy1A 1_555 1_555
O1A_2 C1A 1_555 1_555
O2A Dy1 1_555 1_555
O3A Dy1A 1_555 1_555
O3A_2 Dy1A_2 1_555 1_555
O4A Dy1 1_555 1_555
O5B Dy1B_2 1_555 1_555
O5A Dy1A 1_555 1_555
O6B Dy1 1_555 1_555
O6C Dy1A 1_555 1_555
O7B Dy1B 1_555 1_555
O7A Dy1A 1_555 1_555
O8B Dy1 1_555 1_555
O8C Dy1A 1_555 1_555
O9A Dy1A 1_555 1_555
H1A O9A 1_555 1_555
H2A O9A 1_555 1_555
H3A O9A 1_555 1_555
C1A O2A 1_555 1_555
C2A O3A_2 1_555 1_555
C3B C3 1_555 1_555
C4B C4 1_555 1_555
O4 Dy1A 1_555 1_555
C5 C6 1_555 1_555
O4A C2A 1_555 1_555
O5B C3B 1_555 1_555
O6B C3B 1_555 1_555
O7B C4B 1_555 1_555
O8B C4B 1_555 1_555
C1A C2A 1_555 1_555

#END
