
#######################################################################
#
#                 Cambridge Crystallographic Data Centre
#                                CCDC 
#
#######################################################################
#
# If this CIF has been generated from an entry in the Cambridge 
# Structural Database, then it will include bibliographic, chemical, 
# crystal, experimental, refinement or atomic coordinate data resulting 
# from the CCDC's data processing and validation procedures.
#
#######################################################################

data_EWESAC
_chemical_formula_moiety         '(C20 H16 N4 O6 Zn1)n'
_symmetry_cell_setting           orthorhombic
_symmetry_space_group_name_H-M   'I b c a'
_symmetry_Int_Tables_number      73
_space_group_name_Hall           '-I 2b 2c'
loop_
_symmetry_equiv_pos_site_id
_symmetry_equiv_pos_as_xyz
1 x,y,z
2 1/2-x,-y,1/2+z
3 -x,1/2+y,1/2-z
4 1/2+x,1/2-y,-z
5 1/2+x,1/2+y,1/2+z
6 -x,1/2-y,z
7 1/2-x,y,-z
8 x,-y,1/2-z
9 -x,-y,-z
10 1/2+x,y,1/2-z
11 x,1/2-y,1/2+z
12 1/2-x,1/2+y,z
13 1/2-x,1/2-y,1/2-z
14 x,1/2+y,-z
15 1/2+x,-y,z
16 -x,y,1/2+z
_cell_length_a                   15.1123(3)
_cell_length_b                   19.9069(3)
_cell_length_c                   31.2591(6)
_cell_angle_alpha                90
_cell_angle_beta                 90
_cell_angle_gamma                90
_cell_volume                     9403.96
loop_
_atom_site_label
_atom_site_type_symbol
_atom_site_fract_x
_atom_site_fract_y
_atom_site_fract_z
O6 O 0.0583(13) 0.0584(9) 0.4472(5)
Zn1 Zn 0.10911(3) 0.19556(2) 0.14187(2)
N1 N 0.0994(3) 0.19330(19) 0.21284(13)
C1 C 0.1335(4) 0.2412(3) 0.23728(17)
H1 H 0.161 0.2773 0.2238
C2 C 0.1307(4) 0.2409(3) 0.28154(18)
H2 H 0.1559 0.2759 0.2971
C3 C 0.0902(3) 0.1884(2) 0.30225(16)
C4 C 0.0559(4) 0.1377(3) 0.27717(18)
H3 H 0.029 0.1008 0.2899
C5 C 0.0616(4) 0.1416(3) 0.23321(18)
H4 H 0.038 0.1067 0.217
C6 C 0.0810(3) 0.1824(3) 0.35020(16)
O1 O 0.0486(3) 0.1326(2) 0.36638(12)
N2 N 0.1105(3) 0.2355(2) 0.37256(14)
N3 N 0.1083(3) 0.2326(2) 0.41670(14)
C7 C 0.1220(4) 0.2879(3) 0.43576(18)
H5 H 0.1326 0.3267 0.42
C8 C 0.1212(4) 0.2909(3) 0.48236(17)
C9 C 0.1157(7) 0.3505(4) 0.5043(2)
H6 H 0.1137 0.3907 0.4892
C10 C 0.1131(6) 0.3515(3) 0.5488(2)
H7 H 0.1064 0.3926 0.5625
N4 N 0.1197(3) 0.2976(2) 0.57186(14)
C11 C 0.1275(6) 0.2397(3) 0.5508(2)
H8 H 0.1323 0.2004 0.5668
C12 C 0.1287(6) 0.2346(3) 0.5069(2)
H9 H 0.1347 0.1927 0.494
C13 C 0.3633(3) -0.0917(2) 0.14042(15)
C14 C 0.2716(3) -0.0856(2) 0.1387(2)
H10 H 0.2366 -0.124 0.1371
C15 C 0.2322(4) -0.0232(3) 0.1393(2)
H11 H 0.1709 -0.0195 0.1379
C16 C 0.2842(4) 0.0339(2) 0.14194(17)
C17 C 0.3753(3) 0.0282(2) 0.14184(17)
H12 H 0.4103 0.0666 0.1424
C18 C 0.4146(3) -0.0349(2) 0.14093(16)
H13 H 0.4759 -0.0386 0.1407
C19 C 0.2405(5) 0.1019(2) 0.14458(16)
O2 O 0.1567(3) 0.10236(19) 0.14123(13)
O3 O 0.2854(4) 0.15330(19) 0.14983(15)
C20 C 0.4028(3) -0.1605(3) 0.14146(14)
O4 O 0.4831(3) -0.1658(2) 0.13677(14)
O5 O 0.3501(3) -0.20957(17) 0.14664(12)
H14 H 0.129(3) 0.275(3) 0.3642(16)
Zn1J Zn 0.10911(3) 0.30444(2) 0.64187(2)
Zn1K Zn 0.39089(3) -0.30444(2) 0.14187(2)
Zn1N Zn 0.60911(3) -0.19556(2) 0.14187(2)
N4J N 0.1197(3) 0.2024(2) 0.07186(14)
O4N O -0.0169(3) 0.1658(2) 0.13677(14)
O5K O 0.1499(3) 0.29043(17) 0.14664(12)
loop_
_geom_bond_atom_site_label_1
_geom_bond_atom_site_label_2
_geom_bond_site_symmetry_1
_geom_bond_site_symmetry_2
Zn1 N1 1_555 1_555
N1 C1 1_555 1_555
C1 H1 1_555 1_555
C2 C1 1_555 1_555
H2 C2 1_555 1_555
C3 C2 1_555 1_555
C4 C3 1_555 1_555
H3 C4 1_555 1_555
C5 N1 1_555 1_555
H4 C5 1_555 1_555
C6 C3 1_555 1_555
O1 C6 1_555 1_555
N2 C6 1_555 1_555
N3 N2 1_555 1_555
C7 N3 1_555 1_555
H5 C7 1_555 1_555
C8 C7 1_555 1_555
C9 C8 1_555 1_555
H6 C9 1_555 1_555
C10 C9 1_555 1_555
H7 C10 1_555 1_555
N4 C10 1_555 1_555
C11 N4 1_555 1_555
H8 C11 1_555 1_555
C12 C8 1_555 1_555
H9 C12 1_555 1_555
C13 C14 1_555 1_555
C14 H10 1_555 1_555
C15 C14 1_555 1_555
H11 C15 1_555 1_555
C16 C15 1_555 1_555
C17 C16 1_555 1_555
H12 C17 1_555 1_555
C18 C13 1_555 1_555
H13 C18 1_555 1_555
C19 C16 1_555 1_555
O2 Zn1 1_555 1_555
O3 C19 1_555 1_555
C20 C13 1_555 1_555
O4 C20 1_555 1_555
O5 C20 1_555 1_555
H14 N2 1_555 1_555
Zn1J N4 1_555 1_555
Zn1K O5 1_555 1_555
Zn1N O4 1_555 1_555
N4J Zn1 1_555 1_555
O4N Zn1 1_555 1_555
O5K Zn1 1_555 1_555
C4 C5 1_555 1_555
C11 C12 1_555 1_555
C17 C18 1_555 1_555
C19 O2 1_555 1_555

#END
