
#######################################################################
#
#                 Cambridge Crystallographic Data Centre
#                                CCDC 
#
#######################################################################
#
# If this CIF has been generated from an entry in the Cambridge 
# Structural Database, then it will include bibliographic, chemical, 
# crystal, experimental, refinement or atomic coordinate data resulting 
# from the CCDC's data processing and validation procedures.
#
#######################################################################

data_EWETIL
_chemical_formula_moiety         '(C55 H43 N9 O11 Zn2)n'
_symmetry_cell_setting           triclinic
_symmetry_space_group_name_H-M   'P -1'
_symmetry_Int_Tables_number      2
_space_group_name_Hall           '-P 1'
loop_
_symmetry_equiv_pos_site_id
_symmetry_equiv_pos_as_xyz
1 x,y,z
2 -x,-y,-z
_cell_length_a                   9.003(5)
_cell_length_b                   12.118(5)
_cell_length_c                   12.865(5)
_cell_angle_alpha                98.740(5)
_cell_angle_beta                 90.251(5)
_cell_angle_gamma                93.325(5)
_cell_volume                     1384.79
loop_
_atom_site_label
_atom_site_type_symbol
_atom_site_fract_x
_atom_site_fract_y
_atom_site_fract_z
Zn1 Zn 0.40462(4) 0.57505(3) 0.12693(3)
O1 O 0.3506(3) 0.73496(19) 0.19922(17)
O2 O 0.2001(3) 0.60145(18) 0.24513(18)
C1 C 0.2423(3) 0.7034(3) 0.2509(2)
C2 C 0.1644(4) 0.7905(3) 0.3223(3)
C3 C 0.0761(4) 0.7634(3) 0.4024(3)
H1 H 0.0582 0.6871 0.4101
C4 C 0.0126(4) 0.8453(3) 0.4724(3)
H2 H -0.0462 0.8243 0.5281
C5 C 0.0331(5) 0.9558(3) 0.4623(3)
C6 C 0.0809(11) 0.9775(6) 0.3617(7)
H3 H 0.0644 1.0474 0.34
C7 C 0.1515(11) 0.8963(7) 0.2954(7)
H4 H 0.1914 0.9132 0.231
O3 O 0.3548(2) 0.40917(17) 0.09940(17)
O4 O 0.4077(3) 0.35714(19) -0.07025(18)
C8 C 0.3453(4) 0.3435(3) 0.0137(3)
C9 C 0.2438(5) 0.2410(3) 0.0115(3)
C10 C 0.1961(4) 0.2027(3) 0.0998(3)
H5 H 0.2282 0.2418 0.1665
C11 C 0.1009(4) 0.1074(3) 0.0947(3)
H6 H 0.0901 0.0685 0.1533
C12 C 0.0180(9) 0.0688(6) -0.0029(6)
C13 C 0.0371(8) 0.1247(6) -0.0885(6)
H7 H -0.0218 0.1015 -0.1503
C14 C 0.1416(8) 0.2143(6) -0.0850(5)
H8 H 0.1491 0.2574 -0.1408
N1 N 1.2701(3) 0.6034(2) 0.9936(2)
C15 C 1.2972(4) 0.6968(3) 0.9517(3)
H9 H 1.3697 0.7511 0.9847
C16 C 1.2245(4) 0.7178(3) 0.8629(3)
H10 H 1.2476 0.7851 0.8352
C17 C 1.1172(4) 0.6396(3) 0.8141(3)
C18 C 1.0865(4) 0.5446(3) 0.8587(3)
H11 H 1.0123 0.4899 0.8287
C19 C 1.1653(4) 0.5299(3) 0.9479(3)
H12 H 1.1433 0.464 0.9778
C20 C 1.0427(4) 0.6646(3) 0.7159(3)
O5 O 1.0752(4) 0.7508(3) 0.6821(2)
N2 N 0.9409(3) 0.5851(3) 0.6700(2)
N3 N 0.8709(3) 0.6017(3) 0.5793(2)
C21 C 0.7775(4) 0.5230(3) 0.5389(3)
H13 H 0.7606 0.4582 0.5715
C22 C 0.6965(4) 0.5332(3) 0.4418(3)
C23 C 0.6987(4) 0.6325(3) 0.4008(3)
H14 H 0.7551 0.6967 0.4346
C24 C 0.6182(4) 0.6369(3) 0.3107(3)
H15 H 0.6224 0.7051 0.2826
N4 N 0.5338(3) 0.5499(2) 0.2604(2)
C25 C 0.5311(4) 0.4546(3) 0.3008(3)
H16 H 0.4719 0.3921 0.2663
C26 C 0.6108(4) 0.4423(3) 0.3907(3)
H17 H 0.6065 0.3728 0.4166
H18 H 0.910(4) 0.526(3) 0.698(3)
O1A O -0.3506(3) 1.26504(19) 0.80078(17)
O2A O -0.2001(3) 1.39855(18) 0.75487(18)
C1A C -0.2423(3) 1.2966(3) 0.7491(2)
C2A C -0.1644(4) 1.2095(3) 0.6777(3)
C3A C -0.0761(4) 1.2366(3) 0.5976(3)
H1A H -0.0582 1.3129 0.5899
C4A C -0.0126(4) 1.1547(3) 0.5276(3)
H2A H 0.0462 1.1757 0.4719
C5A C -0.0331(5) 1.0442(3) 0.5377(3)
C6A C -0.0809(11) 1.0225(6) 0.6383(7)
H3A H -0.0644 0.9526 0.66
C7A C -0.1515(11) 1.1037(7) 0.7046(7)
H4A H -0.1914 1.0868 0.769
O3A O -0.3548(2) -0.40917(17) -0.09940(17)
O4A O -0.4077(3) -0.35714(19) 0.07025(18)
C8A C -0.3453(4) -0.3435(3) -0.0137(3)
C9A C -0.2438(5) -0.2410(3) -0.0115(3)
C10A C -0.1961(4) -0.2027(3) -0.0998(3)
H5A H -0.2282 -0.2418 -0.1665
C11A C -0.1009(4) -0.1074(3) -0.0947(3)
H6A H -0.0901 -0.0685 -0.1533
C12A C -0.0180(9) -0.0688(6) 0.0029(6)
C13A C -0.0371(8) -0.1247(6) 0.0885(6)
H7A H 0.0218 -0.1015 0.1503
C14A C -0.1416(8) -0.2143(6) 0.0850(5)
H8A H -0.1491 -0.2574 0.1408
Zn1A Zn -0.40462(4) -0.57505(3) -0.12693(3)
N1A N -1.2701(3) -0.6034(2) -0.9936(2)
C15A C -1.2972(4) -0.6968(3) -0.9517(3)
H9A H -1.3697 -0.7511 -0.9847
C16A C -1.2245(4) -0.7178(3) -0.8629(3)
H10A H -1.2476 -0.7851 -0.8352
C17A C -1.1172(4) -0.6396(3) -0.8141(3)
C18A C -1.0865(4) -0.5446(3) -0.8587(3)
H11A H -1.0123 -0.4899 -0.8287
C19A C -1.1653(4) -0.5299(3) -0.9479(3)
H12A H -1.1433 -0.464 -0.9778
C20A C -1.0427(4) -0.6646(3) -0.7159(3)
O5A O -1.0752(4) -0.7508(3) -0.6821(2)
N2A N -0.9409(3) -0.5851(3) -0.6700(2)
N3A N -0.8709(3) -0.6017(3) -0.5793(2)
C21A C -0.7775(4) -0.5230(3) -0.5389(3)
H13A H -0.7606 -0.4582 -0.5715
C22A C -0.6965(4) -0.5332(3) -0.4418(3)
C23A C -0.6987(4) -0.6325(3) -0.4008(3)
H14A H -0.7551 -0.6967 -0.4346
C24A C -0.6182(4) -0.6369(3) -0.3107(3)
H15A H -0.6224 -0.7051 -0.2826
N4A N -0.5338(3) -0.5499(2) -0.2604(2)
C25A C -0.5311(4) -0.4546(3) -0.3008(3)
H16A H -0.4719 -0.3921 -0.2663
C26A C -0.6108(4) -0.4423(3) -0.3907(3)
H17A H -0.6065 -0.3728 -0.4166
H18A H -0.910(4) -0.526(3) -0.698(3)
Zn1_2 Zn -0.59538(4) -0.42495(3) 0.12693(3)
Zn1_3 Zn 1.40462(4) 0.57505(3) 1.12693(3)
Zn1A_2 Zn -1.40462(4) -0.57505(3) -1.12693(3)
Zn1A_3 Zn -0.40462(4) 1.42495(3) 0.87307(3)
Zn1A_4 Zn 0.59538(4) 0.42495(3) -0.12693(3)
O1A_2 O -0.3506(3) -0.73496(19) -0.19922(17)
O2A_2 O -0.2001(3) -0.60145(18) -0.24513(18)
O4_2 O -0.5923(3) -0.64286(19) -0.07025(18)
O4A_2 O 0.5923(3) 0.64286(19) 0.07025(18)
N1_2 N 0.2701(3) 0.6034(2) -0.0064(2)
N1A_2 N -0.2701(3) -0.6034(2) 0.0064(2)
O6 O 0.5186(15) 0.8236(9) 0.6321(12)
C27 C 0.500(2) 0.8701(14) 0.7204(18)
N5 N 0.4143(11) 0.9532(7) 0.7486(9)
C28 C 0.2988(15) 0.9866(11) 0.6892(11)
H19 H 0.2522 1.0501 0.7302
H20 H 0.2243 0.9243 0.6715
H21 H 0.3391 1.009 0.6243
C29 C 0.4456(14) 1.0092(11) 0.8539(10)
H22 H 0.3778 1.0696 0.8713
H23 H 0.5486 1.0407 0.8586
H24 H 0.4317 0.9556 0.9034
loop_
_geom_bond_atom_site_label_1
_geom_bond_atom_site_label_2
_geom_bond_site_symmetry_1
_geom_bond_site_symmetry_2
Zn1 O1 1_555 1_555
O1 C1 1_555 1_555
O2 Zn1 1_555 1_555
C1 O2 1_555 1_555
C2 C1 1_555 1_555
C3 C2 1_555 1_555
H1 C3 1_555 1_555
C4 C3 1_555 1_555
H2 C4 1_555 1_555
C5 C4 1_555 1_555
C6 C5 1_555 1_555
H3 C6 1_555 1_555
C7 C2 1_555 1_555
H4 C7 1_555 1_555
O3 Zn1 1_555 1_555
O4 C8 1_555 1_555
C8 O3 1_555 1_555
C9 C8 1_555 1_555
C10 C9 1_555 1_555
H5 C10 1_555 1_555
C11 C10 1_555 1_555
H6 C11 1_555 1_555
C12 C11 1_555 1_555
C13 C12 1_555 1_555
H7 C13 1_555 1_555
C14 C9 1_555 1_555
H8 C14 1_555 1_555
N1 C15 1_555 1_555
C15 H9 1_555 1_555
C16 C15 1_555 1_555
H10 C16 1_555 1_555
C17 C16 1_555 1_555
C18 C17 1_555 1_555
H11 C18 1_555 1_555
C19 N1 1_555 1_555
H12 C19 1_555 1_555
C20 C17 1_555 1_555
O5 C20 1_555 1_555
N2 C20 1_555 1_555
N3 N2 1_555 1_555
C21 N3 1_555 1_555
H13 C21 1_555 1_555
C22 C21 1_555 1_555
C23 C22 1_555 1_555
H14 C23 1_555 1_555
C24 C23 1_555 1_555
H15 C24 1_555 1_555
N4 Zn1 1_555 1_555
C25 N4 1_555 1_555
H16 C25 1_555 1_555
C26 C22 1_555 1_555
H17 C26 1_555 1_555
H18 N2 1_555 1_555
O6 C27 1_555 1_555
C27 N5 1_555 1_555
N5 C28 1_555 1_555
C28 H19 1_555 1_555
H20 C28 1_555 1_555
H21 C28 1_555 1_555
C29 N5 1_555 1_555
H22 C29 1_555 1_555
H23 C29 1_555 1_555
H24 C29 1_555 1_555
O1A C1A 1_555 1_555
O2A C1A 1_555 1_555
C1A C2A 1_555 1_555
C2A C3A 1_555 1_555
C3A H1A 1_555 1_555
C4A C3A 1_555 1_555
H2A C4A 1_555 1_555
C5A C5 1_555 1_555
C6A C5A 1_555 1_555
H3A C6A 1_555 1_555
C7A C2A 1_555 1_555
H4A C7A 1_555 1_555
O3A C8A 1_555 1_555
O4A C8A 1_555 1_555
C8A C9A 1_555 1_555
C9A C10A 1_555 1_555
C10A H5A 1_555 1_555
C11A C10A 1_555 1_555
H6A C11A 1_555 1_555
C12A C12 1_555 1_555
C13A C12A 1_555 1_555
H7A C13A 1_555 1_555
C14A C9A 1_555 1_555
H8A C14A 1_555 1_555
Zn1A O3A 1_555 1_555
N1A C15A 1_555 1_555
C15A H9A 1_555 1_555
C16A C15A 1_555 1_555
H10A C16A 1_555 1_555
C17A C16A 1_555 1_555
C18A C17A 1_555 1_555
H11A C18A 1_555 1_555
C19A N1A 1_555 1_555
H12A C19A 1_555 1_555
C20A C17A 1_555 1_555
O5A C20A 1_555 1_555
N2A C20A 1_555 1_555
N3A N2A 1_555 1_555
C21A N3A 1_555 1_555
H13A C21A 1_555 1_555
C22A C21A 1_555 1_555
C23A C22A 1_555 1_555
H14A C23A 1_555 1_555
C24A C23A 1_555 1_555
H15A C24A 1_555 1_555
N4A Zn1A 1_555 1_555
C25A N4A 1_555 1_555
H16A C25A 1_555 1_555
C26A C22A 1_555 1_555
H17A C26A 1_555 1_555
H18A N2A 1_555 1_555
Zn1_2 O4A 1_555 1_555
Zn1_3 N1 1_555 1_555
Zn1A_2 N1A 1_555 1_555
Zn1A_3 O1A 1_555 1_555
Zn1A_4 O4 1_555 1_555
O1A_2 Zn1A 1_555 1_555
O2A_2 Zn1A 1_555 1_555
O4_2 Zn1A 1_555 1_555
O4A_2 Zn1 1_555 1_555
N1_2 Zn1 1_555 1_555
N1A_2 Zn1A 1_555 1_555
C6 C7 1_555 1_555
C13 C14 1_555 1_555
C18 C19 1_555 1_555
C24 N4 1_555 1_555
C25 C26 1_555 1_555
O2A Zn1A_3 1_555 1_555
C4A C5A 1_555 1_555
C6A C7A 1_555 1_555
C11A C12A 1_555 1_555
C13A C14A 1_555 1_555
C18A C19A 1_555 1_555
C24A N4A 1_555 1_555
C25A C26A 1_555 1_555

#END
