
#######################################################################
#
#                 Cambridge Crystallographic Data Centre
#                                CCDC 
#
#######################################################################
#
# If this CIF has been generated from an entry in the Cambridge 
# Structural Database, then it will include bibliographic, chemical, 
# crystal, experimental, refinement or atomic coordinate data resulting 
# from the CCDC's data processing and validation procedures.
#
#######################################################################

data_XADDAJ
_chemical_formula_moiety         '(C147 H157 N9 O76 Tb8)n'
_symmetry_cell_setting           triclinic
_symmetry_space_group_name_H-M   'P -1'
_symmetry_Int_Tables_number      2
_space_group_name_Hall           '-P 1'
loop_
_symmetry_equiv_pos_site_id
_symmetry_equiv_pos_as_xyz
1 x,y,z
2 -x,-y,-z
_cell_length_a                   12.6804(17)
_cell_length_b                   13.8440(19)
_cell_length_c                   27.865(4)
_cell_angle_alpha                104.246(4)
_cell_angle_beta                 97.317(6)
_cell_angle_gamma                94.456(4)
_cell_volume                     4672.25
loop_
_atom_site_label
_atom_site_type_symbol
_atom_site_fract_x
_atom_site_fract_y
_atom_site_fract_z
Tb1 Tb 1.964001(18) 0.434011(16) 0.060077(8)
Tb2 Tb 1.878442(19) 0.926649(17) 0.448032(8)
Tb3 Tb 1.536010(19) 0.452201(17) 0.414528(8)
Tb4 Tb 1.510850(19) 1.108478(17) 0.086530(8)
O1 O 1.4854(3) 0.9988(3) 0.14091(13)
O2 O 1.9331(3) 0.2608(3) 0.06034(14)
O3 O 1.3853(3) 0.9530(3) 0.06671(13)
O4 O 1.7751(3) 0.9383(4) 0.36804(14)
C1 C 1.2837(4) 0.7841(4) 0.08884(18)
H1 H 1.2627 0.7947 0.0575
C2 C 1.2710(4) 0.6842(4) 0.14825(18)
H2 H 1.2397 0.6288 0.1566
C3 C 2.0392(4) 1.1448(4) 0.35201(19)
H3 H 1.9731 1.1062 0.3452
O5 O 1.9101(3) 0.8464(3) 0.36362(13)
C4 C 1.3950(4) 0.8329(4) 0.16932(18)
H4 H 1.4471 0.8781 0.1922
C5 C 1.8839(5) 0.8092(4) 0.20865(19)
H5 H 1.9388 0.7858 0.1913
C6 C 1.4139(4) 0.9386(4) 0.10923(18)
C7 C 1.8194(4) 0.8657(4) 0.28727(19)
C8 C 2.2076(4) 1.2035(4) 0.40530(18)
H6 H 2.2538 1.2057 0.4344
C9 C 1.8348(5) 0.8845(4) 0.34303(19)
C10 C 1.4705(5) 0.7792(4) 0.3182(2)
H7 H 1.4929 0.8304 0.3472
C11 C 2.2393(4) 1.2549(4) 0.37182(19)
C12 C 1.4048(5) 0.6271(4) 0.2315(2)
H8 H 1.3832 0.5758 0.2025
C13 C 1.7518(4) 0.7704(4) 0.02302(17)
H9 H 1.7460 0.7603 -0.0115
C14 C 1.3621(4) 0.8511(4) 0.12272(18)
N1 N 1.8899(4) 0.0930(3) 0.02486(18)
C15 C 1.3952(4) 0.7266(4) 0.23048(18)
C16 C 1.9909(4) 1.2010(4) 0.27317(18)
C17 C 1.7072(5) 0.8581(4) 0.20964(19)
H10 H 1.6423 0.8672 0.1926
C18 C 1.6988(4) 0.8437(4) 0.05061(18)
C19 C 2.0687(4) 1.1977(4) 0.31812(19)
C20 C 1.2360(4) 0.7012(4) 0.10119(17)
C21 C 1.4462(5) 0.6044(4) 0.2751(2)
H11 H 1.4523 0.5378 0.2750
C22 C 1.9198(4) 1.1171(4) 0.2470(2)
H12 H 1.9250 1.0562 0.2551
C23 C 1.8225(4) 0.7269(4) 0.09837(18)
H13 H 1.8618 0.6861 0.1139
C24 C 1.4790(4) 0.6795(4) 0.31938(19)
C25 C 1.3517(4) 0.7490(4) 0.18240(18)
C26 C 1.8413(4) 1.1241(4) 0.20895(19)
H14 H 1.7942 1.0679 0.1917
C27 C 1.7727(4) 0.8031(4) 0.12703(18)
C28 C 1.7103(4) 0.8617(4) 0.10268(18)
H15 H 1.6768 0.9124 0.1212
C29 C 2.1081(4) 1.1492(4) 0.39592(18)
C30 C 1.7221(5) 0.8796(5) 0.2614(2)
H16 H 1.6676 0.9032 0.2790
C31 C 2.1694(4) 1.2532(4) 0.32857(18)
H17 H 2.1901 1.2894 0.3066
C32 C 1.9164(5) 0.1873(4) 0.0231(2)
C33 C 1.8325(4) 1.2153(4) 0.19627(19)
C34 C 1.8608(5) 0.0115(5) -0.0211(3)
C35 C 1.8982(4) 0.8302(4) 0.26065(19)
H18 H 1.9626 0.8200 0.2777
C36 C 1.4290(5) 0.8030(4) 0.2742(2)
H19 H 1.4238 0.8696 0.2741
C37 C 1.7877(4) 0.8231(4) 0.18245(19)
C38 C 1.8773(6) 0.0720(5) 0.0734(3)
C39 C 1.7408(5) 1.2265(4) 0.15849(18)
C40 C 1.9063(5) 1.2966(5) 0.2208(2)
H20 H 1.9036 1.3566 0.2116
C41 C 1.9849(5) 1.2900(5) 0.2592(2)
H21 H 2.0336 1.3456 0.2756
O6 O 1.8966(3) 0.6506(3) -0.02441(13)
O7 O 1.9788(3) 1.0493(3) 0.42258(13)
O8 O 2.4118(3) 1.3133(3) 0.42070(12)
O9 O 2.3966(3) 0.5163(3) 0.45258(14)
O10 O 1.7229(3) 0.4922(3) 0.40863(14)
O11 O 2.0597(3) 0.4194(3) 0.13914(12)
O12 O 1.7804(3) 0.4076(3) 0.07342(14)
O13 O 1.1108(3) 0.5558(3) 0.07781(13)
O14 O 2.2068(3) 0.9254(3) 0.52368(13)
O15 O 1.1251(3) 0.6466(3) 0.02227(12)
O16 O 2.0553(3) 0.9057(3) 0.47177(13)
O17 O 1.9010(3) 0.5645(3) 0.03337(13)
O18 O 1.6159(3) 1.1689(3) 0.03008(13)
O19 O 2.1330(3) 1.1089(3) 0.47403(13)
O20 O 1.5169(3) 0.5588(3) 0.36380(13)
O21 O 2.3747(3) 0.6144(3) 0.52581(13)
O22 O 1.6077(3) 0.6144(3) 0.47348(13)
O23 O 1.5974(3) 0.9799(3) 0.04824(14)
O24 O 1.6701(3) 1.1512(3) 0.14146(14)
O25 O 2.3710(3) 1.3709(3) 0.35482(13)
O26 O 1.6143(3) 0.8717(3) -0.02373(13)
O27 O 1.5288(3) 1.2879(3) 0.11044(14)
O28 O 1.5910(3) 0.3185(3) 0.35755(15)
O29 O 1.7370(3) 1.3091(3) 0.14775(14)
O30 O 1.3563(3) 1.1550(3) 0.12648(15)
O31 O 1.8528(4) 0.7479(3) 0.43356(15)
O32 O 1.5527(3) 0.7200(3) 0.40569(14)
O33 O 1.6845(3) 0.8886(3) 0.44620(18)
C42 C 1.1514(4) 0.6285(3) 0.06362(16)
O34 O 1.9493(3) 0.5347(3) 0.14342(13)
C43 C 2.0703(4) 1.0995(4) 0.43481(17)
C44 C 1.6319(4) 0.9034(4) 0.02327(18)
C45 C 2.0204(4) 0.4931(4) 0.16422(18)
C46 C 2.2461(4) 0.6065(4) 0.40151(18)
H22 H 2.2709 0.5489 0.3837
C47 C 2.0583(4) 0.5331(4) 0.21935(18)
C48 C 2.3473(4) 1.3160(4) 0.38274(18)
C49 C 1.8741(4) 0.6362(4) 0.01668(17)
C50 C 2.0016(5) 0.5979(4) 0.24878(19)
H23 H 1.9387 0.6165 0.2343
C51 C 2.1769(4) 0.7811(4) 0.45547(18)
C52 C 2.2841(4) 0.6444(4) 0.45236(18)
C53 C 2.1360(4) 0.7415(4) 0.40468(18)
H24 H 2.0850 0.7734 0.3892
C54 C 1.5198(4) 0.6519(4) 0.36651(19)
C55 C 2.1432(4) 0.8756(4) 0.48526(17)
C56 C 2.1709(4) 0.6541(4) 0.37672(18)
C57 C 2.2508(4) 0.7322(4) 0.47921(17)
H25 H 2.2780 0.7583 0.5130
C58 C 2.1877(5) 0.5460(4) 0.29242(19)
H26 H 2.2515 0.5289 0.3067
C59 C 1.8133(4) 0.7123(4) 0.04661(17)
C60 C 2.0365(5) 0.6364(4) 0.29986(19)
H27 H 1.9964 0.6796 0.3192
C61 C 2.1520(4) 0.5053(4) 0.24132(19)
H28 H 2.1905 0.4600 0.2222
C62 C 2.1309(4) 0.6107(4) 0.32218(18)
C63 C 2.3577(4) 0.5874(4) 0.47856(18)
N2 N 1.6160(5) 0.1764(4) 0.3017(2)
C64 C 1.5638(5) 0.2541(5) 0.3172(2)
C65 C 1.7114(7) 0.1570(8) 0.3330(3)
C66 C 1.5738(6) 0.1003(6) 0.2534(3)
Tb1A Tb 1.035999(18) 0.565989(16) -0.060077(8)
Tb1_2 Tb 0.964001(18) 0.434011(16) 0.060077(8)
Tb1A_2 Tb 2.035999(18) 0.565989(16) -0.060077(8)
Tb2A Tb 1.121558(19) 0.073351(17) -0.448032(8)
Tb2_2 Tb 0.878442(19) -0.073351(17) -0.551968(8)
Tb2A_2 Tb 2.121558(19) 1.073351(17) 0.551968(8)
Tb3A Tb 1.463990(19) 0.547799(17) -0.414528(8)
Tb3_2 Tb 0.536010(19) 0.452201(17) -0.585472(8)
Tb3_3 Tb 2.536010(19) 0.452201(17) 0.414528(8)
Tb3_4 Tb 2.536010(19) 1.452201(17) 0.414528(8)
Tb3A_2 Tb 0.463990(19) -0.452201(17) -0.414528(8)
Tb3A_3 Tb 0.463990(19) 0.547799(17) -0.414528(8)
Tb3A_4 Tb 2.463990(19) 0.547799(17) 0.585472(8)
Tb4A Tb 1.489150(19) -0.108478(17) -0.086530(8)
Tb4_2 Tb 1.510850(19) 0.108478(17) 0.086530(8)
Tb4A_2 Tb 1.489150(19) 0.891522(17) -0.086530(8)
O1A O 1.5146(3) 0.0012(3) -0.14091(13)
O2A O 1.0669(3) 0.7392(3) -0.06034(14)
O3A O 1.6147(3) 0.0470(3) -0.06671(13)
O4A O 1.2249(3) 0.0617(4) -0.36804(14)
C1A C 1.7163(4) 0.2159(4) -0.08884(18)
H1A H 1.7373 0.2053 -0.0575
C2A C 1.7290(4) 0.3158(4) -0.14825(18)
H2A H 1.7603 0.3712 -0.1566
C3A C 0.9608(4) -0.1448(4) -0.35201(19)
H3A H 1.0269 -0.1062 -0.3452
O5A O 1.0899(3) 0.1536(3) -0.36362(13)
C4A C 1.6050(4) 0.1671(4) -0.16932(18)
H4A H 1.5529 0.1219 -0.1922
C5A C 1.1161(5) 0.1908(4) -0.20865(19)
H5A H 1.0612 0.2142 -0.1913
C6A C 1.5861(4) 0.0614(4) -0.10923(18)
C7A C 1.1806(4) 0.1343(4) -0.28727(19)
C8A C 0.7924(4) -0.2035(4) -0.40530(18)
H6A H 0.7462 -0.2057 -0.4344
C9A C 1.1652(5) 0.1155(4) -0.34303(19)
C10A C 1.5295(5) 0.2208(4) -0.3182(2)
H7A H 1.5071 0.1696 -0.3472
C11A C 0.7607(4) -0.2549(4) -0.37182(19)
C12A C 1.5952(5) 0.3729(4) -0.2315(2)
H8A H 1.6168 0.4242 -0.2025
C13A C 1.2482(4) 0.2296(4) -0.02302(17)
H9A H 1.2540 0.2397 0.0115
C14A C 1.6379(4) 0.1489(4) -0.12272(18)
N1A N 1.1101(4) 0.9070(3) -0.02486(18)
C15A C 1.6048(4) 0.2734(4) -0.23048(18)
C16A C 1.0091(4) -0.2010(4) -0.27317(18)
C17A C 1.2928(5) 0.1419(4) -0.20964(19)
H10A H 1.3577 0.1328 -0.1926
C18A C 1.3012(4) 0.1563(4) -0.05061(18)
C19A C 0.9313(4) -0.1977(4) -0.31812(19)
C20A C 1.7640(4) 0.2988(4) -0.10119(17)
C21A C 1.5538(5) 0.3956(4) -0.2751(2)
H11A H 1.5477 0.4622 -0.2750
C22A C 1.0802(4) -0.1171(4) -0.2470(2)
H12A H 1.0750 -0.0562 -0.2551
C23A C 1.1775(4) 0.2731(4) -0.09837(18)
H13A H 1.1382 0.3139 -0.1139
C24A C 1.5210(4) 0.3205(4) -0.31938(19)
C25A C 1.6483(4) 0.2510(4) -0.18240(18)
C26A C 1.1587(4) -0.1241(4) -0.20895(19)
H14A H 1.2058 -0.0679 -0.1917
C27A C 1.2273(4) 0.1969(4) -0.12703(18)
C28A C 1.2897(4) 0.1383(4) -0.10268(18)
H15A H 1.3232 0.0876 -0.1212
C29A C 0.8919(4) -0.1492(4) -0.39592(18)
C30A C 1.2779(5) 0.1204(5) -0.2614(2)
H16A H 1.3324 0.0968 -0.2790
C31A C 0.8306(4) -0.2532(4) -0.32857(18)
H17A H 0.8099 -0.2894 -0.3066
C32A C 1.0836(5) 0.8127(4) -0.0231(2)
C33A C 1.1675(4) -0.2153(4) -0.19627(19)
C34A C 1.1392(5) 0.9885(5) 0.0211(3)
C35A C 1.1018(4) 0.1698(4) -0.26065(19)
H18A H 1.0374 0.1800 -0.2777
C36A C 1.5710(5) 0.1970(4) -0.2742(2)
H19A H 1.5762 0.1304 -0.2741
C37A C 1.2123(4) 0.1769(4) -0.18245(19)
C38A C 1.1227(6) 0.9280(5) -0.0734(3)
C39A C 1.2592(5) -0.2265(4) -0.15849(18)
C40A C 1.0937(5) -0.2966(5) -0.2208(2)
H20A H 1.0964 -0.3566 -0.2116
C41A C 1.0151(5) -0.2900(5) -0.2592(2)
H21A H 0.9664 -0.3456 -0.2756
O6A O 1.1034(3) 0.3494(3) 0.02441(13)
O6_2 O 0.8966(3) 0.6506(3) -0.02441(13)
O6A_2 O 2.1034(3) 0.3494(3) 0.02441(13)
O7A O 1.0212(3) -0.0493(3) -0.42258(13)
O8A O 0.5882(3) -0.3133(3) -0.42070(12)
O8_2 O 1.4118(3) 0.3133(3) 0.42070(12)
O8A_2 O 1.5882(3) 0.6867(3) -0.42070(12)
O9A O 0.6034(3) 0.4837(3) -0.45258(14)
O9_2 O 1.3966(3) 0.5163(3) 0.45258(14)
O9A_2 O 1.6034(3) 0.4837(3) -0.45258(14)
O10A O 1.2771(3) 0.5078(3) -0.40863(14)
O11A O 0.9403(3) 0.5806(3) -0.13914(12)
O12A O 1.2196(3) 0.5924(3) -0.07342(14)
O13A O 1.8892(3) 0.4442(3) -0.07781(13)
O13_2 O 2.1108(3) 0.5558(3) 0.07781(13)
O13A_2 O 0.8892(3) 0.4442(3) -0.07781(13)
O14A O 0.7932(3) 0.0746(3) -0.52368(13)
O14_2 O 1.2068(3) -0.0746(3) -0.47632(13)
O14A_2 O 1.7932(3) 1.0746(3) 0.47632(13)
O15A O 1.8749(3) 0.3534(3) -0.02227(12)
O16A O 0.9447(3) 0.0943(3) -0.47177(13)
O16_2 O 1.0553(3) -0.0943(3) -0.52823(13)
O16A_2 O 1.9447(3) 1.0943(3) 0.52823(13)
O17A O 1.0990(3) 0.4355(3) -0.03337(13)
O18A O 1.3841(3) -0.1689(3) -0.03008(13)
O19A O 0.8670(3) -0.1089(3) -0.47403(13)
O19_2 O 1.1330(3) 0.1089(3) -0.52597(13)
O19A_2 O 1.8670(3) 0.8911(3) 0.52597(13)
O20A O 1.4831(3) 0.4412(3) -0.36380(13)
O21A O 0.6253(3) 0.3856(3) -0.52581(13)
O21_2 O 1.3747(3) 0.6144(3) -0.47419(13)
O21A_2 O 1.6253(3) 0.3856(3) 0.47419(13)
O22A O 1.3923(3) 0.3856(3) -0.47348(13)
O23A O 1.4026(3) 0.0201(3) -0.04824(14)
O24A O 1.3299(3) -0.1512(3) -0.14146(14)
O25A O 0.6290(3) -0.3709(3) -0.35482(13)
O25_2 O 1.3710(3) 0.3709(3) 0.35482(13)
O25A_2 O 1.6290(3) 0.6291(3) -0.35482(13)
O26A O 1.3857(3) 0.1283(3) 0.02373(13)
O26_2 O 1.6143(3) -0.1283(3) -0.02373(13)
O26A_2 O 1.3857(3) 1.1283(3) 0.02373(13)
O27A O 1.4712(3) -0.2879(3) -0.11044(14)
O28A O 1.4090(3) 0.6815(3) -0.35755(15)
O29A O 1.2630(3) -0.3091(3) -0.14775(14)
O30A O 1.6437(3) -0.1550(3) -0.12648(15)
O31A O 1.1472(4) 0.2521(3) -0.43356(15)
O32A O 1.4473(3) 0.2800(3) -0.40569(14)
O33A O 1.3155(3) 0.1114(3) -0.44620(18)
C42A C 1.8486(4) 0.3715(3) -0.06362(16)
O34A O 1.0507(3) 0.4653(3) -0.14342(13)
C43A C 0.9297(4) -0.0995(4) -0.43481(17)
C44A C 1.3681(4) 0.0966(4) -0.02327(18)
C45A C 0.9796(4) 0.5069(4) -0.16422(18)
C46A C 0.7539(4) 0.3935(4) -0.40151(18)
H22A H 0.7291 0.4511 -0.3837
C47A C 0.9417(4) 0.4669(4) -0.21935(18)
C48A C 0.6527(4) -0.3160(4) -0.38274(18)
C48_2 C 1.3473(4) 0.3160(4) 0.38274(18)
C48A_2 C 1.6527(4) 0.6840(4) -0.38274(18)
C49A C 1.1259(4) 0.3638(4) -0.01668(17)
C50A C 0.9984(5) 0.4021(4) -0.24878(19)
H23A H 1.0613 0.3835 -0.2343
C51A C 0.8231(4) 0.2189(4) -0.45547(18)
C52A C 0.7159(4) 0.3556(4) -0.45236(18)
C53A C 0.8640(4) 0.2585(4) -0.40468(18)
H24A H 0.9150 0.2266 -0.3892
C54A C 1.4802(4) 0.3481(4) -0.36651(19)
C55A C 0.8568(4) 0.1244(4) -0.48526(17)
C56A C 0.8291(4) 0.3459(4) -0.37672(18)
C57A C 0.7492(4) 0.2678(4) -0.47921(17)
H25A H 0.7220 0.2417 -0.5130
C58A C 0.8123(5) 0.4540(4) -0.29242(19)
H26A H 0.7485 0.4711 -0.3067
C59A C 1.1867(4) 0.2877(4) -0.04661(17)
C60A C 0.9635(5) 0.3636(4) -0.29986(19)
H27A H 1.0036 0.3204 -0.3192
C61A C 0.8480(4) 0.4947(4) -0.24132(19)
H28A H 0.8095 0.5400 -0.2222
C62A C 0.8691(4) 0.3893(4) -0.32218(18)
C63A C 0.6423(4) 0.4126(4) -0.47856(18)
N2A N 1.3840(5) 0.8236(4) -0.3017(2)
C64A C 1.4362(5) 0.7459(5) -0.3172(2)
C65A C 1.2886(7) 0.8430(8) -0.3330(3)
C66A C 1.4262(6) 0.8997(6) -0.2534(3)
O35 O 1.4021(3) 0.6522(3) -0.00151(15)
N3 N 1.4570(4) 0.5717(4) 0.05767(18)
C67 C 1.4642(5) 0.6466(5) 0.0361(2)
C68 C 1.3725(6) 0.4881(5) 0.0413(3)
C69 C 1.5339(6) 0.5720(6) 0.1021(3)
O36 O 2.1306(4) 1.3942(3) 0.50989(17)
N4 N 2.0131(4) 1.3955(4) 0.44169(19)
C70 C 2.1081(5) 1.4178(5) 0.4703(2)
C71 C 1.9258(5) 1.3388(6) 0.4555(3)
C72 C 1.9921(6) 1.4287(6) 0.3953(3)
O37 O 1.7833(4) 0.6002(3) 0.34571(16)
N5 N 1.7141(4) 0.5373(4) 0.26375(18)
C73 C 1.7604(6) 0.6098(5) 0.3030(2)
C74 C 1.6894(7) 0.5555(6) 0.2137(3)
C75 C 1.6805(6) 0.4372(5) 0.2697(3)
O38 O 1.3606(4) 0.3424(4) 0.24975(17)
O39 O 1.3935(4) 0.3980(3) 0.16285(18)
O40 O 1.2012(5) 0.2832(5) 0.10549(19)
O41 O 2.4145(6) 1.0419(5) 0.3350(2)
N6 N 2.4357(5) 1.0582(5) 0.4196(2)
C76 C 2.4584(7) 1.0848(6) 0.3783(3)
C77 C 2.3511(8) 0.9750(7) 0.4164(4)
C78 C 2.4864(9) 1.1210(8) 0.4699(3)
O42 O 1.2920(5) 1.1386(4) 0.2138(2)
N7 N 1.1979(6) 1.0018(5) 0.2249(3)
C79 C 1.2738(7) 1.0810(6) 0.2403(3)
C80 C 1.1788(8) 0.9383(7) 0.2594(4)
C81 C 1.1298(9) 0.9784(9) 0.1748(4)
loop_
_geom_bond_atom_site_label_1
_geom_bond_atom_site_label_2
_geom_bond_site_symmetry_1
_geom_bond_site_symmetry_2
Tb1 O2 1_555 1_555
Tb2 O4 1_555 1_555
Tb3 O10 1_555 1_555
Tb4 O1 1_555 1_555
O1 C6 1_555 1_555
O2 C32 1_555 1_555
O3 Tb4 1_555 1_555
O4 C9 1_555 1_555
C1 H1 1_555 1_555
C2 H2 1_555 1_555
C3 H3 1_555 1_555
O5 Tb2 1_555 1_555
C4 H4 1_555 1_555
C5 H5 1_555 1_555
C6 O3 1_555 1_555
C7 C9 1_555 1_555
C8 H6 1_555 1_555
C9 O5 1_555 1_555
C10 H7 1_555 1_555
C11 C8 1_555 1_555
C12 H8 1_555 1_555
C13 H9 1_555 1_555
C14 C1 1_555 1_555
N1 C32 1_555 1_555
C15 C12 1_555 1_555
C16 C19 1_555 1_555
C17 H10 1_555 1_555
C18 C13 1_555 1_555
C19 C3 1_555 1_555
C20 C1 1_555 1_555
C21 C12 1_555 1_555
H11 C21 1_555 1_555
C22 C16 1_555 1_555
H12 C22 1_555 1_555
C23 H13 1_555 1_555
C24 C10 1_555 1_555
C25 C2 1_555 1_555
C26 C22 1_555 1_555
H14 C26 1_555 1_555
C27 C23 1_555 1_555
C28 C18 1_555 1_555
H15 C28 1_555 1_555
C29 C3 1_555 1_555
C30 C7 1_555 1_555
H16 C30 1_555 1_555
C31 C11 1_555 1_555
H17 C31 1_555 1_555
C33 C26 1_555 1_555
C34 N1 1_555 1_555
C35 C5 1_555 1_555
H18 C35 1_555 1_555
C36 C10 1_555 1_555
H19 C36 1_555 1_555
C37 C5 1_555 1_555
C38 N1 1_555 1_555
C39 C33 1_555 1_555
C40 C33 1_555 1_555
H20 C40 1_555 1_555
C41 C16 1_555 1_555
H21 C41 1_555 1_555
O6 C49 1_555 1_555
O7 Tb2 1_555 1_555
O8 C48 1_555 1_555
O9 C63 1_555 1_555
O11 Tb1 1_555 1_555
O12 Tb1 1_555 1_555
O13 C42 1_555 1_555
O14 C55 1_555 1_555
O15 C42 1_555 1_555
O16 Tb2 1_555 1_555
O17 Tb1 1_555 1_555
O18 Tb4 1_555 1_555
O19 C43 1_555 1_555
O20 Tb3 1_555 1_555
O21 C63 1_555 1_555
O22 Tb3 1_555 1_555
O23 Tb4 1_555 1_555
O24 Tb4 1_555 1_555
O25 C48 1_555 1_555
O26 C44 1_555 1_555
O27 Tb4 1_555 1_555
O28 Tb3 1_555 1_555
O29 C39 1_555 1_555
O30 Tb4 1_555 1_555
O31 Tb2 1_555 1_555
O32 C54 1_555 1_555
O33 Tb2 1_555 1_555
C42 C20 1_555 1_555
O34 Tb1 1_555 1_555
C43 C29 1_555 1_555
C44 C18 1_555 1_555
C45 O11 1_555 1_555
C46 H22 1_555 1_555
C47 C45 1_555 1_555
C48 C11 1_555 1_555
C49 O17 1_555 1_555
C50 C47 1_555 1_555
H23 C50 1_555 1_555
C51 C53 1_555 1_555
C52 C46 1_555 1_555
C53 H24 1_555 1_555
C54 C24 1_555 1_555
C55 O16 1_555 1_555
C56 C46 1_555 1_555
C57 C51 1_555 1_555
H25 C57 1_555 1_555
C58 H26 1_555 1_555
C59 C13 1_555 1_555
C60 C50 1_555 1_555
H27 C60 1_555 1_555
C61 C47 1_555 1_555
H28 C61 1_555 1_555
C62 C56 1_555 1_555
C63 C52 1_555 1_555
N2 C64 1_555 1_555
C64 O28 1_555 1_555
C65 N2 1_555 1_555
C66 N2 1_555 1_555
O35 C67 1_555 1_555
N3 C67 1_555 1_555
C68 N3 1_555 1_555
C69 N3 1_555 1_555
O36 C70 1_555 1_555
N4 C70 1_555 1_555
C71 N4 1_555 1_555
C72 N4 1_555 1_555
O37 C73 1_555 1_555
N5 C73 1_555 1_555
C74 N5 1_555 1_555
C75 N5 1_555 1_555
O41 C76 1_555 1_555
N6 C76 1_555 1_555
C77 N6 1_555 1_555
C78 N6 1_555 1_555
O42 C79 1_555 1_555
N7 C79 1_555 1_555
C80 N7 1_555 1_555
C81 N7 1_555 1_555
Tb1A O15 1_555 1_555
Tb1_2 O13 1_555 1_555
Tb1A_2 O6 1_555 1_555
Tb2A O4A 1_555 1_555
Tb2_2 O14A 1_555 1_555
Tb2A_2 O14 1_555 1_555
Tb3A O8A_2 1_555 1_555
Tb3_2 O21A 1_555 1_555
Tb3_3 O9 1_555 1_555
Tb3_4 O8 1_555 1_555
Tb3A_2 O8A 1_555 1_555
Tb3A_3 O9A 1_555 1_555
Tb3A_4 O21 1_555 1_555
Tb4A O1A 1_555 1_555
Tb4_2 O26A 1_555 1_555
Tb4A_2 O26 1_555 1_555
O1A C6A 1_555 1_555
O2A Tb1A 1_555 1_555
O3A Tb4A 1_555 1_555
O4A C9A 1_555 1_555
C1A H1A 1_555 1_555
C2A H2A 1_555 1_555
C3A H3A 1_555 1_555
O5A Tb2A 1_555 1_555
C4A H4A 1_555 1_555
C5A H5A 1_555 1_555
C6A O3A 1_555 1_555
C7A C9A 1_555 1_555
C8A H6A 1_555 1_555
C9A O5A 1_555 1_555
C10A H7A 1_555 1_555
C11A C8A 1_555 1_555
C12A H8A 1_555 1_555
C13A H9A 1_555 1_555
C14A C1A 1_555 1_555
N1A C32A 1_555 1_555
C15A C12A 1_555 1_555
C16A C19A 1_555 1_555
C17A H10A 1_555 1_555
C18A C13A 1_555 1_555
C19A C3A 1_555 1_555
C20A C1A 1_555 1_555
C21A C12A 1_555 1_555
H11A C21A 1_555 1_555
C22A C16A 1_555 1_555
H12A C22A 1_555 1_555
C23A H13A 1_555 1_555
C24A C10A 1_555 1_555
C25A C2A 1_555 1_555
C26A C22A 1_555 1_555
H14A C26A 1_555 1_555
C27A C23A 1_555 1_555
C28A C18A 1_555 1_555
H15A C28A 1_555 1_555
C29A C3A 1_555 1_555
C30A C7A 1_555 1_555
H16A C30A 1_555 1_555
C31A C11A 1_555 1_555
H17A C31A 1_555 1_555
C32A O2A 1_555 1_555
C33A C26A 1_555 1_555
C34A N1A 1_555 1_555
C35A C5A 1_555 1_555
H18A C35A 1_555 1_555
C36A C10A 1_555 1_555
H19A C36A 1_555 1_555
C37A C5A 1_555 1_555
C38A N1A 1_555 1_555
C39A C33A 1_555 1_555
C40A C33A 1_555 1_555
H20A C40A 1_555 1_555
C41A C16A 1_555 1_555
H21A C41A 1_555 1_555
O6A Tb1_2 1_555 1_555
O6_2 Tb1A 1_555 1_555
O6A_2 Tb1 1_555 1_555
O7A Tb2A 1_555 1_555
O8A C48A 1_555 1_555
O8_2 Tb3 1_555 1_555
O8A_2 C48A_2 1_555 1_555
O9A C63A 1_555 1_555
O9_2 Tb3 1_555 1_555
O9A_2 Tb3A 1_555 1_555
O10A Tb3A 1_555 1_555
O11A Tb1A 1_555 1_555
O12A Tb1A 1_555 1_555
O13A Tb1A_2 1_555 1_555
O13_2 Tb1 1_555 1_555
O13A_2 Tb1A 1_555 1_555
O14A C55A 1_555 1_555
O14_2 Tb2A 1_555 1_555
O14A_2 Tb2 1_555 1_555
O15A Tb1 1_555 1_555
O16A Tb2A 1_555 1_555
O16_2 Tb2A 1_555 1_555
O16A_2 Tb2 1_555 1_555
O17A Tb1A 1_555 1_555
O18A Tb4A 1_555 1_555
O19A Tb2_2 1_555 1_555
O19_2 Tb2A 1_555 1_555
O19A_2 Tb2 1_555 1_555
O20A Tb3A 1_555 1_555
O21A C63A 1_555 1_555
O21_2 Tb3A 1_555 1_555
O21A_2 Tb3 1_555 1_555
O22A Tb3A 1_555 1_555
O23A Tb4A 1_555 1_555
O24A Tb4A 1_555 1_555
O25A Tb3A_2 1_555 1_555
O25_2 Tb3 1_555 1_555
O25A_2 Tb3A 1_555 1_555
O26A C44A 1_555 1_555
O26_2 Tb4A 1_555 1_555
O26A_2 Tb4 1_555 1_555
O27A Tb4A 1_555 1_555
O28A Tb3A 1_555 1_555
O29A C39A 1_555 1_555
O30A Tb4A 1_555 1_555
O31A Tb2A 1_555 1_555
O32A C54A 1_555 1_555
O33A Tb2A 1_555 1_555
C42A C20A 1_555 1_555
O34A Tb1A 1_555 1_555
C43A C29A 1_555 1_555
C44A C18A 1_555 1_555
C45A O11A 1_555 1_555
C46A H22A 1_555 1_555
C47A C45A 1_555 1_555
C48A C11A 1_555 1_555
C48_2 O8_2 1_555 1_555
C48A_2 O25A_2 1_555 1_555
C49A O6A 1_555 1_555
C50A C47A 1_555 1_555
H23A C50A 1_555 1_555
C51A C53A 1_555 1_555
C52A C46A 1_555 1_555
C53A H24A 1_555 1_555
C54A C24A 1_555 1_555
C55A O16A 1_555 1_555
C56A C46A 1_555 1_555
C57A C51A 1_555 1_555
H25A C57A 1_555 1_555
C58A H26A 1_555 1_555
C59A C13A 1_555 1_555
C60A C50A 1_555 1_555
H27A C60A 1_555 1_555
C61A C47A 1_555 1_555
H28A C61A 1_555 1_555
C62A C56A 1_555 1_555
C63A C52A 1_555 1_555
N2A C64A 1_555 1_555
C64A O28A 1_555 1_555
C65A N2A 1_555 1_555
C66A N2A 1_555 1_555
C2 C20 1_555 1_555
C4 C14 1_555 1_555
C4 C25 1_555 1_555
C6 C14 1_555 1_555
C7 C35 1_555 1_555
C8 C29 1_555 1_555
C15 C25 1_555 1_555
C15 C36 1_555 1_555
C17 C30 1_555 1_555
C17 C37 1_555 1_555
C19 C31 1_555 1_555
C21 C24 1_555 1_555
C23 C59 1_555 1_555
C27 C28 1_555 1_555
C27 C37 1_555 1_555
C39 O24 1_555 1_555
C40 C41 1_555 1_555
O7 C43 1_555 1_555
O16 Tb2A_2 1_555 1_555
O19 Tb2A_2 1_555 1_555
O20 C54 1_555 1_555
O23 C44 1_555 1_555
O25 Tb3_4 1_555 1_555
O34 C45 1_555 1_555
C49 C59 1_555 1_555
C51 C55 1_555 1_555
C52 C57 1_555 1_555
C53 C56 1_555 1_555
C58 C61 1_555 1_555
C58 C62 1_555 1_555
C60 C62 1_555 1_555
Tb2_2 O16A 1_555 1_555
Tb2_2 O16_2 1_555 1_555
Tb2A_2 O16A_2 1_555 1_555
C2A C20A 1_555 1_555
C4A C14A 1_555 1_555
C4A C25A 1_555 1_555
C6A C14A 1_555 1_555
C7A C35A 1_555 1_555
C8A C29A 1_555 1_555
C15A C25A 1_555 1_555
C15A C36A 1_555 1_555
C17A C30A 1_555 1_555
C17A C37A 1_555 1_555
C19A C31A 1_555 1_555
C21A C24A 1_555 1_555
C23A C59A 1_555 1_555
C27A C28A 1_555 1_555
C27A C37A 1_555 1_555
C39A O24A 1_555 1_555
C40A C41A 1_555 1_555
O7A C43A 1_555 1_555
O13A C42A 1_555 1_555
O15A C42A 1_555 1_555
O17A C49A 1_555 1_555
O19A C43A 1_555 1_555
O20A C54A 1_555 1_555
O23A C44A 1_555 1_555
O25A C48A 1_555 1_555
O25_2 C48_2 1_555 1_555
O34A C45A 1_555 1_555
C49A C59A 1_555 1_555
C51A C55A 1_555 1_555
C52A C57A 1_555 1_555
C53A C56A 1_555 1_555
C58A C61A 1_555 1_555
C58A C62A 1_555 1_555
C60A C62A 1_555 1_555

#END
