
#######################################################################
#
#                 Cambridge Crystallographic Data Centre
#                                CCDC 
#
#######################################################################
#
# If this CIF has been generated from an entry in the Cambridge 
# Structural Database, then it will include bibliographic, chemical, 
# crystal, experimental, refinement or atomic coordinate data resulting 
# from the CCDC's data processing and validation procedures.
#
#######################################################################

data_CAXXEG
_chemical_formula_moiety         '(C33 H27 N5 Ni4 O14)n'
_symmetry_cell_setting           monoclinic
_symmetry_space_group_name_H-M   'P 21/n'
_symmetry_Int_Tables_number      14
_space_group_name_Hall           '-P 2yn'
loop_
_symmetry_equiv_pos_site_id
_symmetry_equiv_pos_as_xyz
1 x,y,z
2 1/2-x,1/2+y,1/2-z
3 -x,-y,-z
4 1/2+x,1/2-y,1/2+z
_cell_length_a                   13.0989(7)
_cell_length_b                   18.4444(9)
_cell_length_c                   22.0504(12)
_cell_angle_alpha                90
_cell_angle_beta                 103.202(1)
_cell_angle_gamma                90
_cell_volume                     5186.61
loop_
_atom_site_label
_atom_site_type_symbol
_atom_site_fract_x
_atom_site_fract_y
_atom_site_fract_z
Ni1 Ni 0.28413(4) 0.21726(2) 0.12489(2)
Ni2 Ni 0.38739(4) -0.14078(3) -0.12878(2)
Ni3 Ni 0.48533(4) 0.26846(2) 0.21574(2)
Ni4 Ni 0.01084(4) 0.61058(2) 0.26713(2)
N1 N 0.1096(2) 0.53222(16) 0.24449(14)
N2 N 0.0961(2) 0.14789(16) -0.27691(14)
N3 N 0.3730(3) -0.08567(17) -0.04635(14)
N4 N 0.2075(3) 0.24840(17) 0.03323(14)
O1 O 0.4146(2) -0.18647(13) -0.20696(13)
O2 O 0.3754(2) 0.18823(15) 0.20905(14)
O3 O 0.3789(2) 0.34580(13) 0.22820(12)
O4 O 0.2394(2) 0.31475(13) 0.15323(11)
O5 O 0.3151(2) -0.05442(14) -0.17579(12)
O6 O 0.3922(2) -0.03304(14) -0.25475(12)
O7 O 0.0316(2) 0.23855(13) -0.18950(11)
O8 O 0.0318(2) 0.35881(14) -0.17391(11)
O9 O 0.46850(19) 0.07986(13) 0.13701(11)
O10 O 0.3080(2) 0.11845(14) 0.08716(12)
O11 O 0.5448(3) 0.22162(15) 0.07138(13)
O12 O 0.4275(2) 0.27056(14) 0.11809(11)
C1 C 0.0714(3) 0.4891(2) 0.19620(19)
H1 H 0.0030 0.4988 0.1720
C2 C 0.1250(3) 0.4314(2) 0.17947(19)
H2 H 0.0934 0.4016 0.1452
C3 C 0.2257(3) 0.4172(2) 0.21324(17)
C4 C 0.2669(3) 0.4642(2) 0.26195(19)
H3 H 0.3369 0.4579 0.2853
C5 C 0.2066(3) 0.5199(2) 0.2764(2)
H4 H 0.2357 0.5506 0.3106
C6 C 0.2870(3) 0.3539(2) 0.19710(17)
C7 C 0.1801(3) 0.1446(2) -0.30166(19)
H5 H 0.1886 0.1813 -0.3304
C8 C 0.2554(3) 0.0909(2) -0.28783(19)
H6 H 0.3130 0.0903 -0.3073
C9 C 0.2454(3) 0.0377(2) -0.24488(17)
C10 C 0.1577(4) 0.0401(2) -0.2203(2)
H7 H 0.1472 0.0036 -0.1918
C11 C 0.0854(3) 0.0948(2) -0.2365(2)
H8 H 0.0257 0.0953 -0.2188
C12 C 0.3258(3) -0.0218(2) -0.22380(18)
C13 C 0.4445(3) -0.0887(2) 0.00744(17)
H9 H 0.4953 -0.1264 0.0128
C14 C 0.4491(3) -0.0399(2) 0.05616(18)
H10 H 0.5013 -0.0443 0.0937
C15 C 0.3751(3) 0.0157(2) 0.04847(16)
C16 C 0.2953(3) 0.0153(2) -0.00437(17)
H11 H 0.2396 0.0494 -0.0093
C17 C 0.2974(3) -0.0355(2) -0.05020(18)
H12 H 0.2422 -0.0348 -0.0866
C18 C 0.3839(3) 0.0760(2) 0.09486(16)
C19 C 0.1340(7) 0.2994(4) 0.0208(3)
H13 H 0.1138 0.3233 0.0544
C20 C 0.0858(7) 0.3188(4) -0.0399(3)
H14 H 0.0394 0.3591 -0.0469
C21 C 0.1838(6) 0.2289(3) -0.0766(3)
H15 H 0.2028 0.2031 -0.1096
C22 C 0.2353(6) 0.2149(3) -0.0156(3)
H16 H 0.2914 0.1811 -0.0076
C23 C 0.1038(3) 0.2811(2) -0.08971(17)
C24 C 0.0506(3) 0.2946(2) -0.15691(17)
C25 C 0.4824(3) 0.2702(2) 0.07751(18)
C26 C 0.4685(5) 0.3336(3) 0.0321(3)
C27 C 0.4266(9) 0.4006(6) 0.0551(5)
N5 N 0.145(2) 0.1824(13) 0.1452(9)
C28 C 0.1180(12) 0.2005(7) 0.1991(7)
H17 H 0.1743 0.2156 0.2319
C29 C 0.0180(8) 0.2001(6) 0.2134(5)
H18 H 0.0100 0.2120 0.2540
C30 C -0.0662(9) 0.1822(5) 0.1672(4)
C31 C -0.0470(8) 0.1621(7) 0.1108(5)
H19 H -0.1038 0.1495 0.0774
C32 C 0.0556(6) 0.1603(5) 0.1022(4)
H20 H 0.0651 0.1422 0.0635
C33 C -0.1770(9) 0.1878(5) 0.1772(6)
O13 O -0.1887(4) 0.1922(4) 0.2307(3)
O14 O -0.2483(7) 0.1863(5) 0.1288(4)
H21 H 0.364(5) -0.191(3) -0.234(3)
H22 H 0.349(4) 0.190(2) 0.229(2)
Ni2B Ni 0.61261(4) 0.14078(3) 0.12878(2)
Ni2B_2 Ni -0.38739(4) 0.14078(3) 0.12878(2)
Ni3C Ni -0.01467(4) 0.23154(2) -0.28426(2)
Ni3B Ni 0.51467(4) -0.26846(2) -0.21574(2)
Ni4C Ni 0.51084(4) -0.11058(2) -0.23287(2)
Ni4A Ni 0.48916(4) 0.11058(2) 0.23287(2)
Ni4B Ni -0.01084(4) 0.38942(2) -0.26713(2)
N2C N 0.5961(2) 0.35211(16) 0.22309(14)
O1B O 0.5854(2) 0.18647(13) 0.20696(13)
O1C O -0.0854(2) 0.68647(13) 0.29304(13)
O2A O 0.1246(2) 0.68823(15) 0.29095(14)
O6C O -0.1078(2) 0.53304(14) 0.24525(12)
O7C O 0.5316(2) 0.26145(13) 0.31050(11)
O8B O -0.0318(2) 0.64119(14) 0.17391(11)
O9B O 0.53150(19) -0.07986(13) -0.13701(11)
O9A O 0.03150(19) 0.57986(13) 0.36299(11)
O11B O 0.4552(3) -0.22162(15) -0.07138(13)
O14B O 0.2483(7) -0.1863(5) -0.1288(4)
H21B H 0.636(5) 0.191(3) 0.234(3)
H21C H -0.136(5) 0.691(3) 0.266(3)
H22A H 0.151(4) 0.690(2) 0.271(2)
loop_
_geom_bond_atom_site_label_1
_geom_bond_atom_site_label_2
_geom_bond_site_symmetry_1
_geom_bond_site_symmetry_2
Ni1 N4 1_555 1_555
Ni2 N3 1_555 1_555
Ni3 O2 1_555 1_555
Ni4 N1 1_555 1_555
N1 C1 1_555 1_555
N2 C7 1_555 1_555
N3 C13 1_555 1_555
N4 C19 1_555 1_555
O1 Ni2 1_555 1_555
O2 Ni1 1_555 1_555
O3 Ni3 1_555 1_555
O4 Ni1 1_555 1_555
O5 Ni2 1_555 1_555
O6 C12 1_555 1_555
O7 C24 1_555 1_555
O8 C24 1_555 1_555
O9 C18 1_555 1_555
O10 Ni1 1_555 1_555
O11 C25 1_555 1_555
O12 Ni1 1_555 1_555
C1 H1 1_555 1_555
C2 C1 1_555 1_555
H2 C2 1_555 1_555
C3 C2 1_555 1_555
C4 C3 1_555 1_555
H3 C4 1_555 1_555
C5 N1 1_555 1_555
H4 C5 1_555 1_555
C6 O3 1_555 1_555
C7 H5 1_555 1_555
C8 C7 1_555 1_555
H6 C8 1_555 1_555
C9 C8 1_555 1_555
C10 C9 1_555 1_555
H7 C10 1_555 1_555
C11 N2 1_555 1_555
H8 C11 1_555 1_555
C12 O5 1_555 1_555
C13 H9 1_555 1_555
C14 C13 1_555 1_555
H10 C14 1_555 1_555
C15 C14 1_555 1_555
C16 C15 1_555 1_555
H11 C16 1_555 1_555
C17 N3 1_555 1_555
H12 C17 1_555 1_555
C18 O10 1_555 1_555
C19 H13 1_555 1_555
C20 C19 1_555 1_555
H14 C20 1_555 1_555
C21 H15 1_555 1_555
C22 N4 1_555 1_555
H16 C22 1_555 1_555
C23 C20 1_555 1_555
C24 C23 1_555 1_555
C25 O12 1_555 1_555
C26 C25 1_555 1_555
C27 C26 1_555 1_555
N5 Ni1 1_555 1_555
C28 N5 1_555 1_555
H17 C28 1_555 1_555
C29 C28 1_555 1_555
H18 C29 1_555 1_555
C30 C29 1_555 1_555
C31 C30 1_555 1_555
H19 C31 1_555 1_555
C32 N5 1_555 1_555
H20 C32 1_555 1_555
C33 C30 1_555 1_555
O13 C33 1_555 1_555
O14 C33 1_555 1_555
H21 O1 1_555 1_555
H22 O2 1_555 1_555
Ni2B O9 1_555 1_555
Ni2B_2 O14 1_555 1_555
Ni3C N2 1_555 1_555
Ni3B O1 1_555 1_555
Ni4C O1 1_555 1_555
Ni4A O2 1_555 1_555
Ni4B O8 1_555 1_555
N2C Ni3 1_555 1_555
O1B Ni3 1_555 1_555
O1C Ni4 1_555 1_555
O2A Ni4 1_555 1_555
O6C Ni4 1_555 1_555
O7C Ni3 1_555 1_555
O8B Ni4 1_555 1_555
O9B Ni2 1_555 1_555
O9A Ni4 1_555 1_555
O11B Ni2 1_555 1_555
O14B Ni2 1_555 1_555
H21B O1B 1_555 1_555
H21C O1C 1_555 1_555
H22A O2A 1_555 1_555
Ni3 O12 1_555 1_555
O4 C6 1_555 1_555
O6 Ni4C 1_555 1_555
O7 Ni3C 1_555 1_555
O9 Ni4A 1_555 1_555
O11 Ni2B 1_555 1_555
C3 C6 1_555 1_555
C4 C5 1_555 1_555
C9 C12 1_555 1_555
C10 C11 1_555 1_555
C15 C18 1_555 1_555
C16 C17 1_555 1_555
C21 C22 1_555 1_555
C21 C23 1_555 1_555
C31 C32 1_555 1_555
Ni2B O1B 1_555 1_555
Ni4C O9B 1_555 1_555
Ni4A O1B 1_555 1_555

#END
