
#######################################################################
#
#                 Cambridge Crystallographic Data Centre
#                                CCDC 
#
#######################################################################
#
# If this CIF has been generated from an entry in the Cambridge 
# Structural Database, then it will include bibliographic, chemical, 
# crystal, experimental, refinement or atomic coordinate data resulting 
# from the CCDC's data processing and validation procedures.
#
#######################################################################

data_JUZBOX
_chemical_formula_moiety         'C84 H76 N4 Na8 O20 Zn3'
_symmetry_cell_setting           tetragonal
_symmetry_space_group_name_H-M   'P 42/n b c'
_symmetry_Int_Tables_number      133
_space_group_name_Hall           '-P 4ac 2b'
loop_
_symmetry_equiv_pos_site_id
_symmetry_equiv_pos_as_xyz
1 x,y,z
2 1/2-x,1/2-y,z
3 1/2-y,x,1/2+z
4 y,1/2-x,1/2+z
5 1/2-x,y,-z
6 x,1/2-y,-z
7 y,x,1/2-z
8 1/2-y,1/2-x,1/2-z
9 -x,-y,-z
10 1/2+x,1/2+y,-z
11 1/2+y,-x,1/2-z
12 -y,1/2+x,1/2-z
13 1/2+x,-y,z
14 -x,1/2+y,z
15 -y,-x,1/2+z
16 1/2+y,1/2+x,1/2+z
_cell_length_a                   30.871(3)
_cell_length_b                   30.871(3)
_cell_length_c                   10.6581(14)
_cell_angle_alpha                90
_cell_angle_beta                 90
_cell_angle_gamma                90
_cell_volume                     10157.4
loop_
_atom_site_label
_atom_site_type_symbol
_atom_site_fract_x
_atom_site_fract_y
_atom_site_fract_z
Zn1 Zn 0.7500 0.2500 0.7500
Na1 Na 0.7500 0.17819(9) 1.0000
O1 O 0.79432(9) 0.22425(8) 0.8625(2)
O2 O 0.83056(9) 0.21519(9) 0.6841(3)
O3 O 0.7856(4) 0.1115(4) 0.9238(14)
N1 N 0.7610(10) 0.0476(6) 0.873(2)
C1 C 0.82717(14) 0.21055(12) 0.7992(4)
C2 C 0.9847(2) 0.0939(2) 1.5172(7)
H1 H 0.9656 0.1116 1.5666
C3 C 0.86172(12) 0.18796(12) 0.8703(4)
C4 C 0.86437(13) 0.19071(13) 0.9988(4)
H2 H 0.8438 0.2079 1.0444
C5 C 0.89133(15) 0.16311(15) 0.8056(4)
H3 H 0.8904 0.1618 0.7157
C6 C 0.92207(16) 0.14028(17) 0.8700(5)
H4 H 0.9428 0.1230 0.8251
C7 C 0.89519(15) 0.16828(15) 1.0637(5)
H5 H 0.8972 0.1704 1.1534
C8 C 0.92502(16) 0.14248(15) 0.9996(5)
C9 C 0.95710(18) 0.11771(18) 1.0661(5)
C10 C 0.98216(17) 0.09554(18) 1.1217(5)
C11 C 1.01162(17) 0.06783(17) 1.1877(6)
C12 C 1.01162(17) 0.06766(18) 1.3194(6)
C13 C 1.04073(18) 0.03903(19) 1.3814(6)
C14 C 1.0403(2) 0.0393(2) 1.5142(7)
H6 H 1.0580 0.0188 1.5583
C15 C 0.9837(2) 0.0945(2) 1.3919(7)
H7 H 0.9639 0.1134 1.3491
C16 C 1.0135(3) 0.0652(2) 1.5793(7)
H8 H 1.0161 0.0656 1.6691
C17 C 0.7963(10) 0.0747(7) 0.899(3)
H9 H 0.8250 0.0654 0.8976
C18 C 0.7250(11) 0.0396(10) 0.969(3)
H10 H 0.7331 0.0152 1.0214
H11 H 0.6987 0.0318 0.9247
C19 C 0.7157(18) 0.0804(10) 1.056(4)
H12 H 0.6929 0.0736 1.1136
H13 H 0.7415 0.0879 1.1010
H14 H 0.7070 0.1045 1.0043
C20 C 0.7492(14) 0.0134(10) 0.790(2)
H15 H 0.7184 0.0090 0.8031
H16 H 0.7633 -0.0122 0.8232
C21 C 0.7556(11) 0.0106(10) 0.645(2)
H17 H 0.7444 -0.0165 0.6154
H18 H 0.7404 0.0340 0.6057
H19 H 0.7859 0.0125 0.6260
O1F O 1.22425(8) -0.20568(9) 1.6375(2)
O2F O 1.21519(9) -0.16944(9) 1.8159(3)
C1F C 1.21055(12) -0.17283(14) 1.7008(4)
C2F C 1.0939(2) -0.0153(2) 0.9828(7)
H1F H 1.1116 -0.0344 0.9334
C3F C 1.18796(12) -0.13828(12) 1.6297(4)
C4F C 1.19071(13) -0.13563(13) 1.5012(4)
H2F H 1.2079 -0.1562 1.4556
C5F C 1.16311(15) -0.10867(15) 1.6944(4)
H3F H 1.1618 -0.1096 1.7843
C6F C 1.14028(17) -0.07793(16) 1.6300(5)
H4F H 1.1230 -0.0572 1.6749
C7F C 1.16828(15) -0.10481(15) 1.4363(5)
H5F H 1.1704 -0.1028 1.3466
C8F C 1.14248(15) -0.07498(16) 1.5004(5)
C9F C 1.11771(18) -0.04290(18) 1.4339(5)
C10F C 1.09554(18) -0.01784(17) 1.3783(5)
C11F C 1.06783(17) 0.01162(17) 1.3123(6)
C12F C 1.06766(18) 0.01162(17) 1.1806(6)
C13F C 1.03903(19) 0.04073(18) 1.1186(6)
C14F C 1.0393(2) 0.0403(2) 0.9858(7)
H6F H 1.0188 0.0580 0.9417
C15F C 1.0945(2) -0.0163(2) 1.1081(7)
H7F H 1.1134 -0.0361 1.1509
C16F C 1.0652(2) 0.0135(3) 0.9207(7)
H8F H 1.0656 0.0161 0.8309
O3D O 0.7144(4) 0.1115(4) 1.0762(14)
N1D N 0.7390(10) 0.0476(6) 1.127(2)
C17D C 0.7037(10) 0.0747(7) 1.101(3)
H9D H 0.6750 0.0654 1.1024
C18D C 0.7750(11) 0.0396(10) 1.031(3)
H10D H 0.7669 0.0152 0.9786
H11D H 0.8013 0.0318 1.0753
C19D C 0.7843(18) 0.0804(10) 0.944(4)
H12D H 0.8071 0.0736 0.8864
H13D H 0.7585 0.0879 0.8990
H14D H 0.7930 0.1045 0.9957
C20D C 0.7508(14) 0.0134(10) 1.210(2)
H15D H 0.7816 0.0090 1.1969
H16D H 0.7367 -0.0122 1.1768
C21D C 0.7444(11) 0.0106(10) 1.355(2)
H17D H 0.7556 -0.0165 1.3846
H18D H 0.7596 0.0340 1.3943
H19D H 0.7141 0.0125 1.3740
Na1A Na 0.7500 0.32181(9) 1.0000
O1A O 0.70568(9) 0.27575(8) 0.8625(2)
O2A O 0.66944(9) 0.28481(9) 0.6841(3)
O3A O 0.7144(4) 0.3885(4) 0.9238(14)
N1A N 0.7390(10) 0.4524(6) 0.873(2)
C1A C 0.67283(14) 0.28945(12) 0.7992(4)
C2A C 0.5153(2) 0.4061(2) 1.5172(7)
H1A H 0.5344 0.3884 1.5666
C3A C 0.63828(12) 0.31204(12) 0.8703(4)
C4A C 0.63563(13) 0.30929(13) 0.9988(4)
H2A H 0.6562 0.2921 1.0444
C5A C 0.60867(15) 0.33689(15) 0.8056(4)
H3A H 0.6096 0.3382 0.7157
C6A C 0.57793(16) 0.35972(17) 0.8700(5)
H4A H 0.5572 0.3770 0.8251
C7A C 0.60481(15) 0.33172(15) 1.0637(5)
H5A H 0.6028 0.3296 1.1534
C8A C 0.57498(16) 0.35752(15) 0.9996(5)
C9A C 0.54290(18) 0.38229(18) 1.0661(5)
C10A C 0.51784(17) 0.40446(18) 1.1217(5)
C11A C 0.48838(17) 0.43217(17) 1.1877(6)
C12A C 0.48838(17) 0.43234(18) 1.3194(6)
C13A C 0.45927(18) 0.46097(19) 1.3814(6)
C14A C 0.4597(2) 0.4607(2) 1.5142(7)
H6A H 0.4420 0.4812 1.5583
C15A C 0.5163(2) 0.4055(2) 1.3919(7)
H7A H 0.5361 0.3866 1.3491
C16A C 0.4865(3) 0.4348(2) 1.5793(7)
H8A H 0.4839 0.4344 1.6691
C17A C 0.7037(10) 0.4253(7) 0.899(3)
H9A H 0.6750 0.4346 0.8976
C18A C 0.7750(11) 0.4604(10) 0.969(3)
H10A H 0.7669 0.4848 1.0214
H11A H 0.8013 0.4682 0.9247
C19A C 0.7843(18) 0.4196(10) 1.056(4)
H12A H 0.8071 0.4264 1.1136
H13A H 0.7585 0.4121 1.1010
H14A H 0.7930 0.3955 1.0043
C20A C 0.7508(14) 0.4866(10) 0.790(2)
H15A H 0.7816 0.4910 0.8031
H16A H 0.7367 0.5122 0.8232
C21A C 0.7444(11) 0.4894(10) 0.645(2)
H17A H 0.7556 0.5165 0.6154
H18A H 0.7596 0.4660 0.6057
H19A H 0.7141 0.4875 0.6260
O1G O 0.27575(8) 0.70568(9) 1.6375(2)
O2G O 0.28481(9) 0.66944(9) 1.8159(3)
C1G C 0.28945(12) 0.67283(14) 1.7008(4)
C2G C 0.4061(2) 0.5153(2) 0.9828(7)
H1G H 0.3884 0.5344 0.9334
C3G C 0.31204(12) 0.63828(12) 1.6297(4)
C4G C 0.30929(13) 0.63563(13) 1.5012(4)
H2G H 0.2921 0.6562 1.4556
C5G C 0.33689(15) 0.60867(15) 1.6944(4)
H3G H 0.3382 0.6096 1.7843
C6G C 0.35972(17) 0.57793(16) 1.6300(5)
H4G H 0.3770 0.5572 1.6749
C7G C 0.33172(15) 0.60481(15) 1.4363(5)
H5G H 0.3296 0.6028 1.3466
C8G C 0.35752(15) 0.57498(16) 1.5004(5)
C9G C 0.38229(18) 0.54290(18) 1.4339(5)
C10G C 0.40446(18) 0.51784(17) 1.3783(5)
C11G C 0.43217(17) 0.48838(17) 1.3123(6)
C12G C 0.43234(18) 0.48838(17) 1.1806(6)
C13G C 0.46097(19) 0.45927(18) 1.1186(6)
C14G C 0.4607(2) 0.4597(2) 0.9858(7)
H6G H 0.4812 0.4420 0.9417
C15G C 0.4055(2) 0.5163(2) 1.1081(7)
H7G H 0.3866 0.5361 1.1509
C16G C 0.4348(2) 0.4865(3) 0.9207(7)
H8G H 0.4344 0.4839 0.8309
O3E O 0.7856(4) 0.3885(4) 1.0762(14)
N1E N 0.7610(10) 0.4524(6) 1.127(2)
C17E C 0.7963(10) 0.4253(7) 1.101(3)
H9E H 0.8250 0.4346 1.1024
C18E C 0.7250(11) 0.4604(10) 1.031(3)
H10E H 0.7331 0.4848 0.9786
H11E H 0.6987 0.4682 1.0753
C19E C 0.7157(18) 0.4196(10) 0.944(4)
H12E H 0.6929 0.4264 0.8864
H13E H 0.7415 0.4121 0.8990
H14E H 0.7070 0.3955 0.9957
C20E C 0.7492(14) 0.4866(10) 1.210(2)
H15E H 0.7184 0.4910 1.1969
H16E H 0.7633 0.5122 1.1768
C21E C 0.7556(11) 0.4894(10) 1.355(2)
H17E H 0.7444 0.5165 1.3846
H18E H 0.7404 0.4660 1.3943
H19E H 0.7859 0.4875 1.3740
Zn1F Zn 0.2500 0.7500 1.7500
Zn1F_2 Zn 1.2500 -0.2500 1.7500
Na1B Na 0.32181(9) 0.7500 1.5000
Na1C Na 1.17819(9) -0.2500 1.5000
Na1H Na 1.2500 -0.17819(9) 2.0000
Na1I Na 0.2500 0.67819(9) 2.0000
Na1J Na 0.67819(9) 0.2500 0.5000
Na1K Na 0.82181(9) 0.2500 0.5000
O1D O 0.70568(9) 0.22425(8) 1.1375(2)
O1E O 0.79432(9) 0.27575(8) 1.1375(2)
O1J O 0.72425(8) 0.20568(9) 0.6375(2)
O1K O 0.77575(8) 0.29432(9) 0.6375(2)
O2J O 0.71519(9) 0.16944(9) 0.8159(3)
O2K O 0.78481(9) 0.33056(9) 0.8159(3)
O2N O 0.78481(9) 0.16944(9) 1.1841(3)
O2O O 0.71519(9) 0.33056(9) 1.1841(3)
loop_
_geom_bond_atom_site_label_1
_geom_bond_atom_site_label_2
_geom_bond_site_symmetry_1
_geom_bond_site_symmetry_2
Zn1 O1 1_555 1_555
Na1 O1 1_555 1_555
O1 C1 1_555 1_555
O2 C1 1_555 1_555
O3 Na1 1_555 1_555
N1 C17 1_555 1_555
C1 C3 1_555 1_555
C2 H1 1_555 1_555
C3 C4 1_555 1_555
C4 H2 1_555 1_555
C5 C3 1_555 1_555
H3 C5 1_555 1_555
C6 C5 1_555 1_555
H4 C6 1_555 1_555
C7 C4 1_555 1_555
H5 C7 1_555 1_555
C8 C6 1_555 1_555
C9 C8 1_555 1_555
C10 C9 1_555 1_555
C11 C10 1_555 1_555
C12 C11 1_555 1_555
C13 C12 1_555 1_555
C14 C13 1_555 1_555
H6 C14 1_555 1_555
C15 C2 1_555 1_555
H7 C15 1_555 1_555
C16 C2 1_555 1_555
H8 C16 1_555 1_555
C17 O3 1_555 1_555
H9 C17 1_555 1_555
C18 N1 1_555 1_555
H10 C18 1_555 1_555
H11 C18 1_555 1_555
C19 C18 1_555 1_555
H12 C19 1_555 1_555
H13 C19 1_555 1_555
H14 C19 1_555 1_555
C20 N1 1_555 1_555
H15 C20 1_555 1_555
H16 C20 1_555 1_555
C21 C20 1_555 1_555
H17 C21 1_555 1_555
H18 C21 1_555 1_555
H19 C21 1_555 1_555
O1F C1F 1_555 1_555
O2F C1F 1_555 1_555
C1F C3F 1_555 1_555
C2F H1F 1_555 1_555
C3F C4F 1_555 1_555
C4F H2F 1_555 1_555
C5F C3F 1_555 1_555
H3F C5F 1_555 1_555
C6F C5F 1_555 1_555
H4F C6F 1_555 1_555
C7F C4F 1_555 1_555
H5F C7F 1_555 1_555
C8F C6F 1_555 1_555
C9F C8F 1_555 1_555
C10F C9F 1_555 1_555
C11F C13 1_555 1_555
C12F C11F 1_555 1_555
C13F C11 1_555 1_555
C14F C13F 1_555 1_555
H6F C14F 1_555 1_555
C15F C2F 1_555 1_555
H7F C15F 1_555 1_555
C16F C2F 1_555 1_555
H8F C16F 1_555 1_555
O3D Na1 1_555 1_555
N1D C17D 1_555 1_555
C17D C19 1_555 1_555
H9D C17D 1_555 1_555
C18D N1D 1_555 1_555
H10D C18D 1_555 1_555
H11D C18D 1_555 1_555
C19D C17 1_555 1_555
H12D C19D 1_555 1_555
H13D C19D 1_555 1_555
H14D C19D 1_555 1_555
C20D N1D 1_555 1_555
H15D C20D 1_555 1_555
H16D C20D 1_555 1_555
C21D C20D 1_555 1_555
H17D C21D 1_555 1_555
H18D C21D 1_555 1_555
H19D C21D 1_555 1_555
Na1A O1A 1_555 1_555
O1A Zn1 1_555 1_555
O2A C1A 1_555 1_555
O3A Na1A 1_555 1_555
N1A C17A 1_555 1_555
C1A O1A 1_555 1_555
C2A H1A 1_555 1_555
C3A C1A 1_555 1_555
C4A C3A 1_555 1_555
H2A C4A 1_555 1_555
C5A C3A 1_555 1_555
H3A C5A 1_555 1_555
C6A C5A 1_555 1_555
H4A C6A 1_555 1_555
C7A C4A 1_555 1_555
H5A C7A 1_555 1_555
C8A C6A 1_555 1_555
C9A C8A 1_555 1_555
C10A C9A 1_555 1_555
C11A C10A 1_555 1_555
C12A C11A 1_555 1_555
C13A C12A 1_555 1_555
C14A C13A 1_555 1_555
H6A C14A 1_555 1_555
C15A C2A 1_555 1_555
H7A C15A 1_555 1_555
C16A C2A 1_555 1_555
H8A C16A 1_555 1_555
C17A O3A 1_555 1_555
H9A C17A 1_555 1_555
C18A N1A 1_555 1_555
H10A C18A 1_555 1_555
H11A C18A 1_555 1_555
C19A C18A 1_555 1_555
H12A C19A 1_555 1_555
H13A C19A 1_555 1_555
H14A C19A 1_555 1_555
C20A N1A 1_555 1_555
H15A C20A 1_555 1_555
H16A C20A 1_555 1_555
C21A C20A 1_555 1_555
H17A C21A 1_555 1_555
H18A C21A 1_555 1_555
H19A C21A 1_555 1_555
O1G C1G 1_555 1_555
O2G C1G 1_555 1_555
C1G C3G 1_555 1_555
C2G H1G 1_555 1_555
C3G C4G 1_555 1_555
C4G H2G 1_555 1_555
C5G C3G 1_555 1_555
H3G C5G 1_555 1_555
C6G C5G 1_555 1_555
H4G C6G 1_555 1_555
C7G C4G 1_555 1_555
H5G C7G 1_555 1_555
C8G C6G 1_555 1_555
C9G C8G 1_555 1_555
C10G C9G 1_555 1_555
C11G C13A 1_555 1_555
C12G C11G 1_555 1_555
C13G C11A 1_555 1_555
C14G C13G 1_555 1_555
H6G C14G 1_555 1_555
C15G C2G 1_555 1_555
H7G C15G 1_555 1_555
C16G C2G 1_555 1_555
H8G C16G 1_555 1_555
O3E Na1A 1_555 1_555
N1E C17E 1_555 1_555
C17E C19A 1_555 1_555
H9E C17E 1_555 1_555
C18E N1E 1_555 1_555
H10E C18E 1_555 1_555
H11E C18E 1_555 1_555
C19E C17A 1_555 1_555
H12E C19E 1_555 1_555
H13E C19E 1_555 1_555
H14E C19E 1_555 1_555
C20E N1E 1_555 1_555
H15E C20E 1_555 1_555
H16E C20E 1_555 1_555
C21E C20E 1_555 1_555
H17E C21E 1_555 1_555
H18E C21E 1_555 1_555
H19E C21E 1_555 1_555
Zn1F O1G 1_555 1_555
Zn1F_2 O1F 1_555 1_555
Na1B O1G 1_555 1_555
Na1C O1F 1_555 1_555
Na1H O2F 1_555 1_555
Na1I O2G 1_555 1_555
Na1J O2A 1_555 1_555
Na1K O2 1_555 1_555
O1D Na1 1_555 1_555
O1E Na1A 1_555 1_555
O1J Zn1 1_555 1_555
O1K Zn1 1_555 1_555
O2J Na1 1_555 1_555
O2K Na1A 1_555 1_555
O2N Na1 1_555 1_555
O2O Na1A 1_555 1_555
C7 C8 1_555 1_555
C12 C15 1_555 1_555
C14 C16 1_555 1_555
C7F C8F 1_555 1_555
C10F C11F 1_555 1_555
C12F C13F 1_555 1_555
C12F C15F 1_555 1_555
C14F C16F 1_555 1_555
O3D C17D 1_555 1_555
C18D C19D 1_555 1_555
C7A C8A 1_555 1_555
C12A C15A 1_555 1_555
C14A C16A 1_555 1_555
C7G C8G 1_555 1_555
C10G C11G 1_555 1_555
C12G C13G 1_555 1_555
C12G C15G 1_555 1_555
C14G C16G 1_555 1_555
O3E C17E 1_555 1_555
C18E C19E 1_555 1_555
Na1J O1J 1_555 1_555
Na1K O1K 1_555 1_555

#END
