
#######################################################################
#
#                 Cambridge Crystallographic Data Centre
#                                CCDC 
#
#######################################################################
#
# If this CIF has been generated from an entry in the Cambridge 
# Structural Database, then it will include bibliographic, chemical, 
# crystal, experimental, refinement or atomic coordinate data resulting 
# from the CCDC's data processing and validation procedures.
#
#######################################################################

data_SAQQIL
_chemical_formula_moiety         '(C42 H28 Er2 O14)n'
_symmetry_cell_setting           monoclinic
_symmetry_space_group_name_H-M   'C 2/c'
_symmetry_Int_Tables_number      15
_space_group_name_Hall           '-C 2yc'
loop_
_symmetry_equiv_pos_site_id
_symmetry_equiv_pos_as_xyz
1 x,y,z
2 1/2+x,1/2+y,z
3 -x,y,1/2-z
4 1/2-x,1/2+y,1/2-z
5 -x,-y,-z
6 1/2-x,1/2-y,-z
7 x,-y,1/2+z
8 1/2+x,1/2-y,1/2+z
_cell_length_a                   25.1508(11)
_cell_length_b                   17.0903(11)
_cell_length_c                   18.5354(10)
_cell_angle_alpha                90
_cell_angle_beta                 106.6730(10)
_cell_angle_gamma                90
_cell_volume                     7632.2
loop_
_atom_site_label
_atom_site_type_symbol
_atom_site_fract_x
_atom_site_fract_y
_atom_site_fract_z
Er1 Er -0.002790(11) 0.040640(18) 0.104550(17)
O1 O 0.0618(2) 0.1046(4) 0.0604(3)
O2 O -0.0484(2) -0.0725(3) 0.0596(3)
O3 O -0.0581(2) 0.0710(4) -0.0108(3)
O4 O -0.0656(2) 0.0558(3) -0.1314(3)
O5 O -0.42912(18) 0.4712(3) -0.1621(3)
O6 O -0.4479(2) 0.4306(4) -0.2810(3)
O7 O -0.0260(3) 0.1732(4) 0.1192(4)
C1 C 0.0745(3) 0.1055(4) -0.0003(4)
C2 C 0.1255(3) 0.1505(5) -0.0012(5)
C3 C 0.1499(4) 0.2030(7) 0.0544(6)
H1 H 0.1341 0.2116 0.0933
C4 C 0.1977(4) 0.2438(7) 0.0541(6)
H2 H 0.2122 0.2808 0.0913
C5 C 0.2239(4) 0.2299(6) -0.0007(5)
C6 C 0.1987(4) 0.1778(8) -0.0575(6)
H3 H 0.2148 0.1681 -0.0959
C7 C 0.1495(4) 0.1397(8) -0.0581(6)
H4 H 0.1328 0.1064 -0.0978
C8 C -0.0795(3) 0.0875(5) -0.0792(5)
C9 C -0.1260(3) 0.1443(5) -0.0997(5)
C10 C -0.1470(4) 0.1752(8) -0.0452(5)
H5 H -0.1315 0.1614 0.0050
C11 C -0.1919(4) 0.2275(7) -0.0652(5)
H6 H -0.2051 0.2490 -0.0276
C12 C -0.2169(3) 0.2478(6) -0.1397(5)
C13 C -0.1944(4) 0.2172(8) -0.1925(5)
H7 H -0.2097 0.2309 -0.2428
C14 C -0.1495(4) 0.1667(7) -0.1737(5)
H8 H -0.1350 0.1476 -0.2111
C15 C -0.4174(3) 0.4340(4) -0.2149(4)
C16 C -0.3639(3) 0.3898(5) -0.1968(4)
C17 C -0.3234(3) 0.4002(6) -0.1277(5)
H9 H -0.3290 0.4369 -0.0936
C18 C -0.2753(4) 0.3562(6) -0.1098(5)
H10 H -0.2487 0.3643 -0.0638
C19 C -0.2659(3) 0.3004(6) -0.1590(5)
C20 C -0.3058(4) 0.2910(7) -0.2301(5)
H11 H -0.3001 0.2549 -0.2647
C21 C -0.3539(4) 0.3367(7) -0.2477(5)
H12 H -0.3798 0.3312 -0.2947
Er1D Er 0.002790(11) -0.040640(18) -0.104550(17)
Er1E Er -0.497210(11) 0.459360(18) -0.104550(17)
Er1A Er -0.502790(11) -0.459360(18) 0.104550(17)
Er1E_2 Er -0.497210(11) -0.540640(18) -0.104550(17)
Er1G Er -0.502790(11) 0.459360(18) -0.395450(17)
Er1E_3 Er 0.502790(11) 0.459360(18) -0.104550(17)
Er1A_2 Er 0.497210(11) 0.540640(18) 0.104550(17)
O1D O -0.0618(2) -0.1046(4) -0.0604(3)
O1A O -0.4382(2) -0.3954(4) 0.0604(3)
O1E O 0.4382(2) 0.3954(4) -0.0604(3)
O2D O 0.0484(2) 0.0725(3) -0.0596(3)
O2E O -0.4516(2) -0.4275(3) -0.0596(3)
O2A O 0.4516(2) 0.4275(3) 0.0596(3)
O3D O 0.0581(2) -0.0710(4) 0.0108(3)
O4D O 0.0656(2) -0.0558(3) 0.1314(3)
O5A O 0.07088(18) -0.0288(3) -0.1621(3)
O5E O -0.07088(18) 0.0288(3) 0.1621(3)
O6C O -0.0521(2) -0.0694(4) -0.2190(3)
O6G O 0.0521(2) 0.0694(4) 0.2190(3)
O7D O 0.0260(3) -0.1732(4) -0.1192(4)
C1D C -0.0745(3) -0.1055(4) 0.0003(4)
C1A C -0.4255(3) -0.3945(4) -0.0003(4)
C1E C 0.4255(3) 0.3945(4) 0.0003(4)
C2D C -0.1255(3) -0.1505(5) 0.0012(5)
C2A C -0.3745(3) -0.3495(5) -0.0012(5)
C2E C 0.3745(3) 0.3495(5) 0.0012(5)
C3D C -0.1499(4) -0.2030(7) -0.0544(6)
C3A C -0.3501(4) -0.2970(7) 0.0544(6)
C3E C 0.3501(4) 0.2970(7) -0.0544(6)
H1D H -0.1341 -0.2116 -0.0933
H1A H -0.3659 -0.2884 0.0933
H1E H 0.3659 0.2884 -0.0933
C4D C -0.1977(4) -0.2438(7) -0.0541(6)
C4A C -0.3023(4) -0.2562(7) 0.0541(6)
C4E C 0.3023(4) 0.2562(7) -0.0541(6)
H2D H -0.2122 -0.2808 -0.0913
H2A H -0.2878 -0.2192 0.0913
H2E H 0.2878 0.2192 -0.0913
C5D C -0.2239(4) -0.2299(6) 0.0007(5)
C5A C -0.2761(4) -0.2701(6) -0.0007(5)
C5E C 0.2761(4) 0.2701(6) 0.0007(5)
C6A C -0.3013(4) -0.3222(8) -0.0575(6)
C6D C -0.1987(4) -0.1778(8) 0.0575(6)
C6E C 0.3013(4) 0.3222(8) 0.0575(6)
H3A H -0.2852 -0.3319 -0.0959
H3D H -0.2148 -0.1681 0.0959
H3E H 0.2852 0.3319 0.0959
C7A C -0.3505(4) -0.3603(8) -0.0581(6)
C7D C -0.1495(4) -0.1397(8) 0.0581(6)
C7E C 0.3505(4) 0.3603(8) 0.0581(6)
H4A H -0.3672 -0.3936 -0.0978
H4D H -0.1328 -0.1064 0.0978
H4E H 0.3672 0.3936 0.0978
loop_
_geom_bond_atom_site_label_1
_geom_bond_atom_site_label_2
_geom_bond_site_symmetry_1
_geom_bond_site_symmetry_2
Er1 O1 1_555 1_555
O1 C1 1_555 1_555
O2 Er1 1_555 1_555
O3 Er1 1_555 1_555
O4 C8 1_555 1_555
O5 C15 1_555 1_555
O6 C15 1_555 1_555
O7 Er1 1_555 1_555
C1 C2 1_555 1_555
C2 C3 1_555 1_555
C3 H1 1_555 1_555
C4 C3 1_555 1_555
H2 C4 1_555 1_555
C5 C4 1_555 1_555
C6 C5 1_555 1_555
H3 C6 1_555 1_555
C7 C2 1_555 1_555
H4 C7 1_555 1_555
C8 O3 1_555 1_555
C9 C8 1_555 1_555
C10 C9 1_555 1_555
H5 C10 1_555 1_555
C11 C10 1_555 1_555
H6 C11 1_555 1_555
C12 C11 1_555 1_555
C13 C12 1_555 1_555
H7 C13 1_555 1_555
C14 C9 1_555 1_555
H8 C14 1_555 1_555
C15 C16 1_555 1_555
C16 C17 1_555 1_555
C17 H9 1_555 1_555
C18 C17 1_555 1_555
H10 C18 1_555 1_555
C19 C12 1_555 1_555
C20 C19 1_555 1_555
H11 C20 1_555 1_555
C21 C16 1_555 1_555
H12 C21 1_555 1_555
Er1D O4 1_555 1_555
Er1E O5 1_555 1_555
Er1A O1A 1_555 1_555
Er1E_2 O2E 1_555 1_555
Er1G O6 1_555 1_555
Er1E_3 O1E 1_555 1_555
Er1A_2 O2A 1_555 1_555
O1D Er1D 1_555 1_555
O1A C1A 1_555 1_555
O1E C1E 1_555 1_555
O2D C1 1_555 1_555
O2E C1A 1_555 1_555
O2A C1E 1_555 1_555
O3D Er1D 1_555 1_555
O4D Er1 1_555 1_555
O5A Er1D 1_555 1_555
O5E Er1 1_555 1_555
O6C Er1D 1_555 1_555
O6G Er1 1_555 1_555
O7D Er1D 1_555 1_555
C1D O2 1_555 1_555
C1A C2A 1_555 1_555
C1E C2E 1_555 1_555
C2D C1D 1_555 1_555
C2A C3A 1_555 1_555
C2E C3E 1_555 1_555
C3D C2D 1_555 1_555
C3A H1A 1_555 1_555
C3E H1E 1_555 1_555
H1D C3D 1_555 1_555
C4D C3D 1_555 1_555
C4A C3A 1_555 1_555
C4E C3E 1_555 1_555
H2D C4D 1_555 1_555
H2A C4A 1_555 1_555
H2E C4E 1_555 1_555
C5D C4D 1_555 1_555
C5A C4A 1_555 1_555
C5E C5 1_555 1_555
C6A C5A 1_555 1_555
C6D C5D 1_555 1_555
C6E C5E 1_555 1_555
H3A C6A 1_555 1_555
H3D C6D 1_555 1_555
H3E C6E 1_555 1_555
C7A C2A 1_555 1_555
C7D C2D 1_555 1_555
C7E C2E 1_555 1_555
H4A C7A 1_555 1_555
H4D C7D 1_555 1_555
H4E C7E 1_555 1_555
C6 C7 1_555 1_555
C13 C14 1_555 1_555
C18 C19 1_555 1_555
C20 C21 1_555 1_555
Er1D O2D 1_555 1_555
O1D C1D 1_555 1_555
C4E C5E 1_555 1_555
C5D C5A 1_555 1_555
C6A C7A 1_555 1_555
C6D C7D 1_555 1_555
C6E C7E 1_555 1_555

#END
