
#######################################################################
#
#                 Cambridge Crystallographic Data Centre
#                                CCDC 
#
#######################################################################
#
# If this CIF has been generated from an entry in the Cambridge 
# Structural Database, then it will include bibliographic, chemical, 
# crystal, experimental, refinement or atomic coordinate data resulting 
# from the CCDC's data processing and validation procedures.
#
#######################################################################

data_SAQQAD
_chemical_formula_moiety         '(C42 H28 O14 Tb2)n'
_symmetry_cell_setting           monoclinic
_symmetry_space_group_name_H-M   'C 2/c'
_symmetry_Int_Tables_number      15
_space_group_name_Hall           '-C 2yc'
loop_
_symmetry_equiv_pos_site_id
_symmetry_equiv_pos_as_xyz
1 x,y,z
2 1/2+x,1/2+y,z
3 -x,y,1/2-z
4 1/2-x,1/2+y,1/2-z
5 -x,-y,-z
6 1/2-x,1/2-y,-z
7 x,-y,1/2+z
8 1/2+x,1/2-y,1/2+z
_cell_length_a                   25.3477(8)
_cell_length_b                   17.1399(8)
_cell_length_c                   18.4904(8)
_cell_angle_alpha                90
_cell_angle_beta                 107.3250(10)
_cell_angle_gamma                90
_cell_volume                     7668.82
loop_
_atom_site_label
_atom_site_type_symbol
_atom_site_fract_x
_atom_site_fract_y
_atom_site_fract_z
Tb1 Tb 0.497520(8) 0.458942(14) 0.104041(12)
O1 O 0.56619(15) 0.5568(2) 0.1376(2)
O2 O 0.55676(16) 0.5679(3) 0.0170(3)
O3 O 0.45108(14) 0.5737(2) 0.0598(2)
O4 O 0.43707(14) 0.6065(3) -0.0607(2)
O5 O 0.92744(13) 0.9681(2) 0.1596(2)
O6 O 0.94779(15) 0.9250(3) 0.2791(2)
O7 O 0.4725(2) 0.3247(3) 0.1161(3)
C1 C 0.5792(2) 0.5875(3) 0.0845(4)
C2 C 0.6262(2) 0.6434(4) 0.1031(3)
C3 C 0.6501(3) 0.6680(5) 0.1773(4)
H1 H 0.6356 0.6513 0.2153
C4 C 0.6951(3) 0.7167(5) 0.1947(4)
H2 H 0.7115 0.7307 0.2450
C5 C 0.7168(2) 0.7457(4) 0.1401(3)
C6 C 0.6910(3) 0.7218(5) 0.0657(4)
H3 H 0.7046 0.7395 0.0273
C7 C 0.6464(3) 0.6732(5) 0.0479(4)
H4 H 0.6294 0.6601 -0.0024
C8 C 0.42467(19) 0.6068(3) 0.0003(3)
C9 C 0.3736(2) 0.6499(3) 0.0010(3)
C10 C 0.3491(3) 0.7047(5) -0.0544(4)
H5 H 0.3650 0.7145 -0.0929
C11 C 0.3021(3) 0.7449(5) -0.0541(4)
H6 H 0.2877 0.7825 -0.0909
C12 C 0.2760(2) 0.7298(4) 0.0003(4)
C13 C 0.3013(3) 0.6768(5) 0.0574(4)
H7 H 0.2856 0.6670 0.0960
C14 C 0.3493(3) 0.6388(4) 0.0574(4)
H8 H 0.3657 0.6046 0.0968
C15 C 0.91624(17) 0.9309(3) 0.2128(3)
C16 C 0.8632(2) 0.8871(3) 0.1954(3)
C17 C 0.8222(2) 0.8971(4) 0.1264(3)
H9 H 0.8272 0.9335 0.0917
C18 C 0.7735(2) 0.8530(5) 0.1088(4)
H10 H 0.7464 0.8607 0.0628
C19 C 0.7654(2) 0.7983(4) 0.1588(3)
C20 C 0.8061(3) 0.7894(5) 0.2289(3)
H11 H 0.8005 0.7542 0.2641
C21 C 0.8544(3) 0.8322(4) 0.2464(3)
H12 H 0.8814 0.8243 0.2925
Tb1D Tb 0.502480(8) 0.541058(14) -0.104041(12)
Tb1A Tb 0.997520(8) 0.958942(14) 0.104041(12)
Tb1C Tb 1.002480(8) 0.958942(14) 0.395959(12)
Tb1E Tb 0.002480(8) 1.041058(14) -0.104041(12)
Tb1A_2 Tb -0.002480(8) 0.958942(14) 0.104041(12)
Tb1E_2 Tb 0.002480(8) 0.041058(14) -0.104041(12)
Tb1G Tb -0.002480(8) 0.041058(14) -0.395959(12)
O1D O 0.43381(15) 0.4432(2) -0.1376(2)
O2D O 0.44324(16) 0.4321(3) -0.0170(3)
O3E O 0.04892(14) 0.9263(2) -0.0598(2)
O3D O 0.54892(14) 0.4263(2) -0.0598(2)
O4E O 0.06293(14) 0.8935(3) 0.0607(2)
O4D O 0.56293(14) 0.3935(3) 0.0607(2)
O5D O 0.07256(13) 0.0319(2) -0.1596(2)
O5A O 0.42744(13) 0.4681(2) 0.1596(2)
O5E O 0.57256(13) 0.5319(2) -0.1596(2)
O6D O 0.05221(15) 0.0750(3) -0.2791(2)
O6C O 0.55221(15) 0.4250(3) 0.2209(2)
O6G O 0.44779(15) 0.5750(3) -0.2209(2)
O7D O 0.5275(2) 0.6753(3) -0.1161(3)
C1D C 0.4208(2) 0.4125(3) -0.0845(4)
C2D C 0.3738(2) 0.3566(4) -0.1031(3)
C3D C 0.3499(3) 0.3320(5) -0.1773(4)
H1D H 0.3644 0.3487 -0.2153
C4D C 0.3049(3) 0.2833(5) -0.1947(4)
H2D H 0.2885 0.2693 -0.2450
C5D C 0.2832(2) 0.2543(4) -0.1401(3)
C6D C 0.3090(3) 0.2782(5) -0.0657(4)
H3D H 0.2954 0.2605 -0.0273
C7D C 0.3536(3) 0.3268(5) -0.0479(4)
H4D H 0.3706 0.3399 0.0024
C8E C 0.07533(19) 0.8932(3) -0.0003(3)
C9E C 0.1264(2) 0.8501(3) -0.0010(3)
C10E C 0.1509(3) 0.7953(5) 0.0544(4)
H5E H 0.1350 0.7855 0.0929
C11E C 0.1979(3) 0.7551(5) 0.0541(4)
H6E H 0.2123 0.7175 0.0909
C12E C 0.2240(2) 0.7702(4) -0.0003(4)
C13E C 0.1987(3) 0.8232(5) -0.0574(4)
H7E H 0.2144 0.8330 -0.0960
C14E C 0.1507(3) 0.8612(4) -0.0574(4)
H8E H 0.1343 0.8954 -0.0968
C15D C 0.08376(17) 0.0691(3) -0.2128(3)
C16D C 0.1368(2) 0.1129(3) -0.1954(3)
C17D C 0.1778(2) 0.1029(4) -0.1264(3)
H9D H 0.1728 0.0665 -0.0917
C18D C 0.2265(2) 0.1470(5) -0.1088(4)
H10D H 0.2536 0.1393 -0.0628
C19D C 0.2346(2) 0.2017(4) -0.1588(3)
C20D C 0.1939(3) 0.2106(5) -0.2289(3)
H11D H 0.1995 0.2458 -0.2641
C21D C 0.1456(3) 0.1678(4) -0.2464(3)
H12D H 0.1186 0.1757 -0.2925
loop_
_geom_bond_atom_site_label_1
_geom_bond_atom_site_label_2
_geom_bond_site_symmetry_1
_geom_bond_site_symmetry_2
Tb1 O1 1_555 1_555
O1 C1 1_555 1_555
O2 C1 1_555 1_555
O3 Tb1 1_555 1_555
O4 C8 1_555 1_555
O5 C15 1_555 1_555
O6 C15 1_555 1_555
O7 Tb1 1_555 1_555
C1 C2 1_555 1_555
C2 C3 1_555 1_555
C3 H1 1_555 1_555
C4 C3 1_555 1_555
H2 C4 1_555 1_555
C5 C4 1_555 1_555
C6 C5 1_555 1_555
H3 C6 1_555 1_555
C7 C2 1_555 1_555
H4 C7 1_555 1_555
C8 O3 1_555 1_555
C9 C8 1_555 1_555
C10 C9 1_555 1_555
H5 C10 1_555 1_555
C11 C10 1_555 1_555
H6 C11 1_555 1_555
C12 C11 1_555 1_555
C13 C12 1_555 1_555
H7 C13 1_555 1_555
C14 C9 1_555 1_555
H8 C14 1_555 1_555
C15 C16 1_555 1_555
C16 C17 1_555 1_555
C17 H9 1_555 1_555
C18 C17 1_555 1_555
H10 C18 1_555 1_555
C19 C5 1_555 1_555
C20 C19 1_555 1_555
H11 C20 1_555 1_555
C21 C16 1_555 1_555
H12 C21 1_555 1_555
Tb1D O2 1_555 1_555
Tb1A O5 1_555 1_555
Tb1C O6 1_555 1_555
Tb1E O3E 1_555 1_555
Tb1A_2 O4E 1_555 1_555
Tb1E_2 O5D 1_555 1_555
Tb1G O6D 1_555 1_555
O1D Tb1D 1_555 1_555
O2D Tb1 1_555 1_555
O3E C8E 1_555 1_555
O3D Tb1D 1_555 1_555
O4E C8E 1_555 1_555
O4D Tb1 1_555 1_555
O5D C15D 1_555 1_555
O5A Tb1 1_555 1_555
O5E Tb1D 1_555 1_555
O6D C15D 1_555 1_555
O6C Tb1 1_555 1_555
O6G Tb1D 1_555 1_555
O7D Tb1D 1_555 1_555
C1D O1D 1_555 1_555
C2D C1D 1_555 1_555
C3D C2D 1_555 1_555
H1D C3D 1_555 1_555
C4D C3D 1_555 1_555
H2D C4D 1_555 1_555
C5D C4D 1_555 1_555
C6D C5D 1_555 1_555
H3D C6D 1_555 1_555
C7D C2D 1_555 1_555
H4D C7D 1_555 1_555
C8E C9E 1_555 1_555
C9E C10E 1_555 1_555
C10E H5E 1_555 1_555
C11E C10E 1_555 1_555
H6E C11E 1_555 1_555
C12E C12 1_555 1_555
C13E C12E 1_555 1_555
H7E C13E 1_555 1_555
C14E C9E 1_555 1_555
H8E C14E 1_555 1_555
C15D C16D 1_555 1_555
C16D C17D 1_555 1_555
C17D H9D 1_555 1_555
C18D C17D 1_555 1_555
H10D C18D 1_555 1_555
C19D C5D 1_555 1_555
C20D C19D 1_555 1_555
H11D C20D 1_555 1_555
C21D C16D 1_555 1_555
H12D C21D 1_555 1_555
O4 Tb1D 1_555 1_555
C6 C7 1_555 1_555
C13 C14 1_555 1_555
C18 C19 1_555 1_555
C20 C21 1_555 1_555
O2D C1D 1_555 1_555
C6D C7D 1_555 1_555
C11E C12E 1_555 1_555
C13E C14E 1_555 1_555
C18D C19D 1_555 1_555
C20D C21D 1_555 1_555

#END
