
#######################################################################
#
#                 Cambridge Crystallographic Data Centre
#                                CCDC 
#
#######################################################################
#
# If this CIF has been generated from an entry in the Cambridge 
# Structural Database, then it will include bibliographic, chemical, 
# crystal, experimental, refinement or atomic coordinate data resulting 
# from the CCDC's data processing and validation procedures.
#
#######################################################################

data_SAQQEH
_chemical_formula_moiety         '(C42 H28 Ho2 O14)n'
_symmetry_cell_setting           monoclinic
_symmetry_space_group_name_H-M   'C 2/c'
_symmetry_Int_Tables_number      15
_space_group_name_Hall           '-C 2yc'
loop_
_symmetry_equiv_pos_site_id
_symmetry_equiv_pos_as_xyz
1 x,y,z
2 1/2+x,1/2+y,z
3 -x,y,1/2-z
4 1/2-x,1/2+y,1/2-z
5 -x,-y,-z
6 1/2-x,1/2-y,-z
7 x,-y,1/2+z
8 1/2+x,1/2-y,1/2+z
_cell_length_a                   25.2219(14)
_cell_length_b                   17.0779(14)
_cell_length_c                   18.5141(12)
_cell_angle_alpha                90
_cell_angle_beta                 106.887(2)
_cell_angle_gamma                90
_cell_volume                     7630.84
loop_
_atom_site_label
_atom_site_type_symbol
_atom_site_fract_x
_atom_site_fract_y
_atom_site_fract_z
Ho1 Ho -0.002750(14) -0.04091(2) 0.104340(19)
O1 O -0.0579(2) -0.0711(4) -0.0127(3)
O2 O -0.42866(19) -0.4679(3) -0.1610(3)
O3 O 0.0617(2) -0.1057(4) 0.0603(3)
O4 O -0.4477(2) -0.4282(4) -0.2791(3)
O5 O 0.0652(3) 0.0547(4) 0.1334(4)
O6 O 0.0489(2) -0.0734(3) -0.0595(3)
O7 O -0.0275(3) -0.1749(4) 0.1181(4)
C1 C -0.0793(4) -0.0870(5) -0.0804(5)
C2 C -0.1258(3) -0.1433(5) -0.0997(5)
C3 C -0.1505(5) -0.1676(7) -0.1754(5)
H1 H -0.1362 -0.1493 -0.2132
C4 C -0.1942(5) -0.2164(7) -0.1934(6)
H2 H -0.2094 -0.2302 -0.2437
C5 C -0.2175(4) -0.2473(6) -0.1406(5)
C6 C -0.1911(4) -0.2250(7) -0.0665(5)
H3 H -0.2044 -0.2449 -0.0283
C7 C -0.1469(4) -0.1757(8) -0.0471(6)
H4 H -0.1307 -0.1638 0.0035
C8 C 0.0746(3) -0.1063(5) -0.0009(5)
C9 C 0.1260(4) -0.1495(5) -0.0021(5)
C10 C 0.1508(5) -0.2031(9) 0.0544(7)
H5 H 0.1351 -0.2118 0.0934
C11 C 0.1981(5) -0.2434(7) 0.0538(6)
H6 H 0.2128 -0.2805 0.0910
C12 C 0.2237(4) -0.2294(6) -0.0010(5)
C13 C 0.1973(5) -0.1784(7) -0.0575(6)
H7 H 0.2121 -0.1710 -0.0976
C14 C 0.1504(4) -0.1378(7) -0.0577(6)
H8 H 0.1351 -0.1021 -0.0961
C15 C -0.4172(3) -0.4331(4) -0.2142(5)
C16 C -0.3640(3) -0.3882(5) -0.1954(5)
C17 C -0.3234(4) -0.3975(6) -0.1280(5)
H9 H -0.3288 -0.4337 -0.0933
C18 C -0.2750(4) -0.3548(6) -0.1102(5)
H10 H -0.2480 -0.3640 -0.0647
C19 C -0.2659(4) -0.2980(6) -0.1593(5)
C20 C -0.3073(4) -0.2903(7) -0.2293(5)
H11 H -0.3024 -0.2540 -0.2643
C21 C -0.3536(4) -0.3341(6) -0.2466(5)
H12 H -0.3793 -0.3283 -0.2937
Ho1D Ho 0.002750(14) 0.04091(2) -0.104340(19)
Ho1G Ho -0.502750(14) -0.45909(2) -0.395660(19)
Ho1A Ho 0.497250(14) 0.45909(2) 0.104340(19)
Ho1E Ho -0.497250(14) -0.45909(2) -0.104340(19)
Ho1E_2 Ho 0.502750(14) -0.45909(2) -0.104340(19)
Ho1A_2 Ho 0.497250(14) -0.54091(2) 0.104340(19)
Ho1C Ho 0.502750(14) 0.45909(2) 0.395660(19)
O1D O 0.0579(2) 0.0711(4) 0.0127(3)
O2A O 0.07134(19) 0.0321(3) -0.1610(3)
O2E O -0.07134(19) -0.0321(3) 0.1610(3)
O2D O 0.42866(19) 0.4679(3) 0.1610(3)
O3D O -0.0617(2) 0.1057(4) -0.0603(3)
O3E O 0.4383(2) -0.3943(4) -0.0603(3)
O4C O -0.0523(2) 0.0718(4) -0.2209(3)
O4G O 0.0523(2) -0.0718(4) 0.2209(3)
O4D O 0.4477(2) 0.4282(4) 0.2791(3)
O5D O -0.0652(3) -0.0547(4) -0.1334(4)
O6D O -0.0489(2) 0.0734(3) 0.0595(3)
O6E O 0.4511(2) -0.4266(3) 0.0595(3)
O7D O 0.0275(3) 0.1749(4) -0.1181(4)
C1D C 0.0793(4) 0.0870(5) 0.0804(5)
C2D C 0.1258(3) 0.1433(5) 0.0997(5)
C3D C 0.1505(5) 0.1676(7) 0.1754(5)
H1D H 0.1362 0.1493 0.2132
C4D C 0.1942(5) 0.2164(7) 0.1934(6)
H2D H 0.2094 0.2302 0.2437
C5D C 0.2175(4) 0.2473(6) 0.1406(5)
C6D C 0.1911(4) 0.2250(7) 0.0665(5)
H3D H 0.2044 0.2449 0.0283
C7D C 0.1469(4) 0.1757(8) 0.0471(6)
H4D H 0.1307 0.1638 -0.0035
C8E C 0.4254(3) -0.3937(5) 0.0009(5)
C9E C 0.3740(4) -0.3505(5) 0.0021(5)
C10E C 0.3492(5) -0.2969(9) -0.0544(7)
H5E H 0.3649 -0.2882 -0.0934
C11E C 0.3019(5) -0.2566(7) -0.0538(6)
H6E H 0.2872 -0.2195 -0.0910
C12E C 0.2763(4) -0.2706(6) 0.0010(5)
C13E C 0.3027(5) -0.3216(7) 0.0575(6)
H7E H 0.2879 -0.3290 0.0976
C14E C 0.3496(4) -0.3622(7) 0.0577(6)
H8E H 0.3649 -0.3979 0.0961
C15D C 0.4172(3) 0.4331(4) 0.2142(5)
C16D C 0.3640(3) 0.3882(5) 0.1954(5)
C17D C 0.3234(4) 0.3975(6) 0.1280(5)
H9D H 0.3288 0.4337 0.0933
C18D C 0.2750(4) 0.3548(6) 0.1102(5)
H10D H 0.2480 0.3640 0.0647
C19D C 0.2659(4) 0.2980(6) 0.1593(5)
C20D C 0.3073(4) 0.2903(7) 0.2293(5)
H11D H 0.3024 0.2540 0.2643
C21D C 0.3536(4) 0.3341(6) 0.2466(5)
H12D H 0.3793 0.3283 0.2937
loop_
_geom_bond_atom_site_label_1
_geom_bond_atom_site_label_2
_geom_bond_site_symmetry_1
_geom_bond_site_symmetry_2
Ho1 O1 1_555 1_555
O1 C1 1_555 1_555
O2 C15 1_555 1_555
O3 Ho1 1_555 1_555
O4 C15 1_555 1_555
O5 Ho1 1_555 1_555
O6 C8 1_555 1_555
O7 Ho1 1_555 1_555
C1 C2 1_555 1_555
C2 C3 1_555 1_555
C3 H1 1_555 1_555
C4 C3 1_555 1_555
H2 C4 1_555 1_555
C5 C4 1_555 1_555
C6 C5 1_555 1_555
H3 C6 1_555 1_555
C7 C2 1_555 1_555
H4 C7 1_555 1_555
C8 O3 1_555 1_555
C9 C8 1_555 1_555
C10 C9 1_555 1_555
H5 C10 1_555 1_555
C11 C10 1_555 1_555
H6 C11 1_555 1_555
C12 C11 1_555 1_555
C13 C12 1_555 1_555
H7 C13 1_555 1_555
C14 C9 1_555 1_555
H8 C14 1_555 1_555
C15 C16 1_555 1_555
C16 C17 1_555 1_555
C17 H9 1_555 1_555
C18 C17 1_555 1_555
H10 C18 1_555 1_555
C19 C5 1_555 1_555
C20 C19 1_555 1_555
H11 C20 1_555 1_555
C21 C16 1_555 1_555
H12 C21 1_555 1_555
Ho1D O6 1_555 1_555
Ho1G O4 1_555 1_555
Ho1A O2D 1_555 1_555
Ho1E O2 1_555 1_555
Ho1E_2 O3E 1_555 1_555
Ho1A_2 O6E 1_555 1_555
Ho1C O4D 1_555 1_555
O1D Ho1D 1_555 1_555
O2A Ho1D 1_555 1_555
O2E Ho1 1_555 1_555
O2D C15D 1_555 1_555
O3D Ho1D 1_555 1_555
O3E C8E 1_555 1_555
O4C Ho1D 1_555 1_555
O4G Ho1 1_555 1_555
O4D C15D 1_555 1_555
O5D C1 1_555 1_555
O6D Ho1 1_555 1_555
O6E C8E 1_555 1_555
O7D Ho1D 1_555 1_555
C1D O5 1_555 1_555
C2D C1D 1_555 1_555
C3D C2D 1_555 1_555
H1D C3D 1_555 1_555
C4D C3D 1_555 1_555
H2D C4D 1_555 1_555
C5D C4D 1_555 1_555
C6D C5D 1_555 1_555
H3D C6D 1_555 1_555
C7D C2D 1_555 1_555
H4D C7D 1_555 1_555
C8E C9E 1_555 1_555
C9E C10E 1_555 1_555
C10E H5E 1_555 1_555
C11E C10E 1_555 1_555
H6E C11E 1_555 1_555
C12E C12 1_555 1_555
C13E C12E 1_555 1_555
H7E C13E 1_555 1_555
C14E C9E 1_555 1_555
H8E C14E 1_555 1_555
C15D C16D 1_555 1_555
C16D C17D 1_555 1_555
C17D H9D 1_555 1_555
C18D C17D 1_555 1_555
H10D C18D 1_555 1_555
C19D C5D 1_555 1_555
C20D C19D 1_555 1_555
H11D C20D 1_555 1_555
C21D C16D 1_555 1_555
H12D C21D 1_555 1_555
C6 C7 1_555 1_555
C13 C14 1_555 1_555
C18 C19 1_555 1_555
C20 C21 1_555 1_555
Ho1D O5D 1_555 1_555
O1D C1D 1_555 1_555
C6D C7D 1_555 1_555
C11E C12E 1_555 1_555
C13E C14E 1_555 1_555
C18D C19D 1_555 1_555
C20D C21D 1_555 1_555

#END
