
#######################################################################
#
#                 Cambridge Crystallographic Data Centre
#                                CCDC 
#
#######################################################################
#
# If this CIF has been generated from an entry in the Cambridge 
# Structural Database, then it will include bibliographic, chemical, 
# crystal, experimental, refinement or atomic coordinate data resulting 
# from the CCDC's data processing and validation procedures.
#
#######################################################################

data_NABSEP
_chemical_formula_moiety         '(C5 H22 F2 Fe4 N2 O20 P4)n'
_symmetry_cell_setting           monoclinic
_symmetry_space_group_name_H-M   'P 21/n'
_symmetry_Int_Tables_number      14
_space_group_name_Hall           '-P 2yn'
loop_
_symmetry_equiv_pos_site_id
_symmetry_equiv_pos_as_xyz
1 x,y,z
2 1/2-x,1/2+y,1/2-z
3 -x,-y,-z
4 1/2+x,1/2-y,1/2+z
_cell_length_a                   9.9691(3)
_cell_length_b                   12.4013(3)
_cell_length_c                   17.3410(3)
_cell_angle_alpha                90
_cell_angle_beta                 103.762(1)
_cell_angle_gamma                90
_cell_volume                     2082.32
loop_
_atom_site_label
_atom_site_type_symbol
_atom_site_fract_x
_atom_site_fract_y
_atom_site_fract_z
Fe1 Fe 0.8664(1) 0.3534(1) -0.0761(1)
Fe2 Fe 0.2453(1) 0.4221(1) -0.2203(1)
Fe3 Fe 1.0597(1) -0.0261(1) -0.1308(1)
Fe4 Fe 0.5293(1) 0.1098(1) -0.2080(1)
P1 P 0.9157(2) 0.4593(2) 0.1067(1)
P2 P 0.5619(2) 0.3726(2) -0.1920(1)
P3 P 0.2197(2) 0.1545(2) -0.2043(1)
P4 P 0.8036(2) 0.0879(2) -0.0582(1)
O1 O 0.8399(6) 0.2083(5) -0.0434(4)
O2 O 0.8581(6) 0.4008(5) 0.0287(3)
O3 O 0.6826(6) 0.4053(5) -0.1222(3)
O4 O 1.0525(6) 0.5150(5) 0.1036(4)
O5 O 1.0784(6) 0.2918(7) -0.0557(5)
O6 O 0.8815(10) 0.2897(6) -0.1894(5)
O7 O 0.4293(6) 0.3825(4) -0.1621(3)
O8 O 0.8107(6) 0.5453(5) 0.1196(3)
F1 F 0.2859(5) 0.4082(4) -0.3274(3)
O9 O 0.1759(6) 0.2697(4) -0.2299(3)
F2 F 0.0519(5) 0.4609(4) -0.2793(3)
O10 O 0.1896(6) 0.0785(5) -0.2761(3)
O11 O 0.8946(6) 0.0363(5) -0.1060(3)
O12 O 0.8203(6) 0.0311(5) 0.0217(3)
O13 O 0.1308(6) 0.1195(5) -0.1458(3)
O14 O 0.5582(6) 0.4509(5) -0.2605(3)
O15 O 1.0030(6) -0.1840(5) -0.1089(3)
O16 O 0.5874(6) 0.2583(5) -0.2171(3)
O17 O 0.3747(6) 0.1489(5) -0.1622(4)
O18 O 0.6512(6) 0.0783(5) -0.1023(3)
O19 O 0.9444(6) 0.3766(4) 0.1739(3)
O20 O 0.6960(6) 0.0575(5) -0.2523(4)
O4B O 0.9475(6) 0.4850(5) -0.1036(4)
O8B O 0.1893(6) 0.4547(5) -0.1196(3)
O10A O 0.3104(6) 0.5785(5) -0.2239(3)
F1A F 1.2141(5) -0.0918(4) -0.1726(3)
O12B O 1.1797(6) -0.0311(5) -0.0217(3)
O13_2 O 1.1308(6) 0.1195(5) -0.1458(3)
O14A O 0.9418(6) -0.0491(5) -0.2395(3)
F2A F 0.4481(5) -0.0391(4) -0.2207(3)
O19C O 0.4444(6) 0.1234(4) -0.3261(3)
Fe1B Fe 1.1336(1) 0.6466(1) 0.0761(1)
Fe2B Fe 0.7547(1) 0.5779(1) 0.2203(1)
Fe3A Fe 0.4403(1) 0.4739(1) -0.3692(1)
Fe4A Fe -0.0293(1) 0.6098(1) -0.2920(1)
Fe2A Fe 0.2547(1) -0.0779(1) -0.2797(1)
Fe3B Fe 0.9403(1) 0.0261(1) 0.1308(1)
Fe3_2 Fe 0.0597(1) -0.0261(1) -0.1308(1)
Fe4C Fe 1.0293(1) 0.3902(1) 0.2920(1)
N1 N 1.5237(14) 0.1575(10) 0.0401(7)
C1 C 1.3811(15) 0.1546(10) 0.0265(13)
C2 C 1.3470(20) 0.2060(14) 0.1047(15)
C3 C 1.3296(13) 0.3256(11) 0.1003(12)
N2 N 1.4452(12) 0.3908(10) 0.0955(10)
C4 C 1.5340(20) 0.3616(11) 0.0471(10)
C5 C 1.6031(13) 0.2588(12) 0.0546(9)
loop_
_geom_bond_atom_site_label_1
_geom_bond_atom_site_label_2
_geom_bond_site_symmetry_1
_geom_bond_site_symmetry_2
Fe1 O1 1_555 1_555
Fe2 O7 1_555 1_555
Fe3 O11 1_555 1_555
Fe4 O16 1_555 1_555
P1 O2 1_555 1_555
P2 O3 1_555 1_555
P3 O9 1_555 1_555
P4 O1 1_555 1_555
O2 Fe1 1_555 1_555
O3 Fe1 1_555 1_555
O4 P1 1_555 1_555
O5 Fe1 1_555 1_555
O6 Fe1 1_555 1_555
O7 P2 1_555 1_555
O8 P1 1_555 1_555
F1 Fe2 1_555 1_555
O9 Fe2 1_555 1_555
F2 Fe2 1_555 1_555
O10 P3 1_555 1_555
O11 P4 1_555 1_555
O12 P4 1_555 1_555
O13 P3 1_555 1_555
O14 P2 1_555 1_555
O15 Fe3 1_555 1_555
O16 P2 1_555 1_555
O17 Fe4 1_555 1_555
O18 Fe4 1_555 1_555
O19 P1 1_555 1_555
O20 Fe4 1_555 1_555
N1 C1 1_555 1_555
C1 C2 1_555 1_555
C2 C3 1_555 1_555
C3 N2 1_555 1_555
N2 C4 1_555 1_555
C4 C5 1_555 1_555
C5 N1 1_555 1_555
O4B Fe1 1_555 1_555
O8B Fe2 1_555 1_555
O10A Fe2 1_555 1_555
F1A Fe3 1_555 1_555
O12B Fe3 1_555 1_555
O13_2 Fe3 1_555 1_555
O14A Fe3 1_555 1_555
F2A Fe4 1_555 1_555
O19C Fe4 1_555 1_555
Fe1B O4 1_555 1_555
Fe2B O8 1_555 1_555
Fe3A F1 1_555 1_555
Fe4A F2 1_555 1_555
Fe2A O10 1_555 1_555
Fe3B O12 1_555 1_555
Fe3_2 O13 1_555 1_555
Fe4C O19 1_555 1_555
P3 O17 1_555 1_555
P4 O18 1_555 1_555
O14 Fe3A 1_555 1_555
F2A Fe2A 1_555 1_555

#END
