
#######################################################################
#
#                 Cambridge Crystallographic Data Centre
#                                CCDC 
#
#######################################################################
#
# If this CIF has been generated from an entry in the Cambridge 
# Structural Database, then it will include bibliographic, chemical, 
# crystal, experimental, refinement or atomic coordinate data resulting 
# from the CCDC's data processing and validation procedures.
#
#######################################################################

data_QASSUZ
_chemical_formula_moiety         '(C25 H50 Fe2 K6 N2 O34 S2)n'
_symmetry_cell_setting           trigonal
_symmetry_space_group_name_H-M   'P 32 2 1'
_symmetry_Int_Tables_number      154
_space_group_name_Hall           'P 32 2"'
loop_
_symmetry_equiv_pos_site_id
_symmetry_equiv_pos_as_xyz
1 x,y,z
2 -y,x-y,2/3+z
3 -x+y,-x,1/3+z
4 y,x,-z
5 x-y,-y,1/3-z
6 -x,-x+y,2/3-z
_cell_length_a                   20.8830(6)
_cell_length_b                   20.8830(6)
_cell_length_c                   12.4648(6)
_cell_angle_alpha                90
_cell_angle_beta                 90
_cell_angle_gamma                120
_cell_volume                     4707.62
loop_
_atom_site_label
_atom_site_type_symbol
_atom_site_fract_x
_atom_site_fract_y
_atom_site_fract_z
Fe1 Fe 0.50742(3) 0.42227(3) 1.46374(4)
O1 O 0.42294(19) 0.42294(19) 1.5000
O2 O 0.58560(15) 0.52452(15) 1.5150(2)
C1 C 0.5854(3) 0.5854(3) 1.5000
O3 O 0.6450(3) 0.6450(3) 1.5000
N1 N 0.59560(17) 0.41161(17) 1.3794(2)
C2 C 0.5593(2) 0.3448(2) 1.3100(3)
H1 H 0.5900 0.3221 1.3070
H2 H 0.5549 0.3594 1.2377
C3 C 0.4833(2) 0.2887(2) 1.3508(3)
O4 O 0.44885(16) 0.31559(16) 1.4024(2)
O5 O 0.4581(2) 0.22304(18) 1.3280(3)
C4 C 0.6360(2) 0.4797(2) 1.3130(3)
H3 H 0.6600 0.4704 1.2533
H4 H 0.6738 0.5193 1.3559
C5 C 0.5818(2) 0.5027(2) 1.2708(3)
O6 O 0.51674(16) 0.47046(17) 1.3125(2)
O7 O 0.60272(18) 0.55058(18) 1.2008(2)
C6 C 0.6463(2) 0.4057(2) 1.4575(3)
H5 H 0.6693 0.4498 1.5018
H6 H 0.6851 0.4030 1.4187
C7 C 0.60618(19) 0.3382(2) 1.5292(3)
C8 C 0.5478(2) 0.3322(2) 1.5956(3)
O8 O 0.52699(16) 0.38266(15) 1.5958(2)
C9 C 0.5133(2) 0.2702(2) 1.6662(3)
H7 H 0.4746 0.2645 1.7098
C10 C 0.5355(2) 0.2195(2) 1.6710(3)
H8 H 0.5124 0.1799 1.7183
C11 C 0.5928(2) 0.2259(2) 1.6058(3)
C12 C 0.6264(2) 0.28464(19) 1.5336(3)
H9 H 0.6631 0.2878 1.4879
S1 S 0.62078(6) 0.15842(5) 1.61324(7)
O9 O 0.5775(2) 0.10394(18) 1.5321(2)
O10 O 0.6009(2) 0.12728(18) 1.7201(2)
O11 O 0.69932(19) 0.19537(19) 1.5915(3)
K1 K 0.36861(6) 0.40906(6) 1.27805(8)
K2 K 0.48018(6) 0.10570(6) 1.38893(8)
K3 K 0.54190(8) 0.54190(8) 1.0000
K4 K 0.8055(2) 0.1555(2) 1.6287(4)
O13 O 0.2267(8) 0.3143(8) 1.2566(11)
O17 O 0.2855(18) 0.3216(18) 1.449(2)
O21 O 0.3757(4) 0.3344(4) 1.0984(6)
O23 O 0.8642(5) 0.2297(5) 1.8218(7)
O24 O 0.815(2) 0.035(3) 1.610(3)
Fe1C Fe 0.42227(3) 0.50742(3) 0.53626(4)
Fe1C_2 Fe 0.42227(3) 0.50742(3) 1.53626(4)
O1_2 O 0.42294(19) 0.42294(19) 0.5000
O2C O 0.52452(15) 0.58560(15) 1.4850(2)
O2A O 0.47548(15) 0.06108(21) 1.1817(2)
O2C_2 O 0.52452(15) 0.58560(15) 0.4850(2)
N1C N 0.41161(17) 0.59560(17) 0.6206(2)
C2C C 0.3448(2) 0.5593(2) 0.6900(3)
H1C H 0.3221 0.5900 0.6930
H2C H 0.3594 0.5549 0.7623
C3C C 0.2887(2) 0.4833(2) 0.6492(3)
O4C O 0.31559(16) 0.44885(16) 0.5976(2)
O5C O 0.22304(18) 0.4581(2) 0.6720(3)
C4C C 0.4797(2) 0.6360(2) 0.6870(3)
H3C H 0.4704 0.6600 0.7467
H4C H 0.5193 0.6738 0.6441
C5C C 0.5027(2) 0.5818(2) 0.7292(3)
O6C O 0.47046(17) 0.51674(16) 0.6875(2)
O7C O 0.55058(18) 0.60272(18) 0.7992(2)
C6C C 0.4057(2) 0.6463(2) 0.5425(3)
H5C H 0.4498 0.6693 0.4982
H6C H 0.4030 0.6851 0.5813
C7C C 0.3382(2) 0.60618(19) 0.4708(3)
C8C C 0.3322(2) 0.5478(2) 0.4044(3)
O8C O 0.38266(15) 0.52699(16) 0.4042(2)
O8C_2 O 0.38266(15) 0.52699(16) 1.4042(2)
O8_2 O 0.52699(16) 0.38266(15) 0.5958(2)
C9C C 0.2702(2) 0.5133(2) 0.3338(3)
H7C H 0.2645 0.4746 0.2902
C10C C 0.2195(2) 0.5355(2) 0.3290(3)
H8C H 0.1799 0.5124 0.2817
C11C C 0.2259(2) 0.5928(2) 0.3942(3)
C12C C 0.28464(19) 0.6264(2) 0.4664(3)
H9C H 0.2878 0.6631 0.5121
S1C S 0.15842(5) 0.62078(6) 0.38676(7)
O9C O 0.10394(18) 0.5775(2) 0.4679(2)
O9E O 0.4225(2) 0.52644(27) 1.1346(2)
O9B O 0.52644(27) 0.4225(2) 0.8654(2)
O10C O 0.12728(18) 0.6009(2) 0.2799(2)
O11C O 0.19537(19) 0.69932(19) 0.4085(3)
K1C K 0.40906(6) 0.36861(6) 0.72195(8)
K1C_2 K 0.40906(6) 0.36861(6) 1.72195(8)
K1E K 0.63139(6) 0.04045(8) 1.38862(8)
K1_2 K 0.36861(6) 0.40906(6) 0.27805(8)
K1B K 0.04045(8) 0.63139(6) 0.61138(8)
K2C K 0.10570(6) 0.48018(6) 0.61107(8)
K2B K 0.62552(8) 0.51982(6) 1.72226(8)
K2E K 0.51982(6) 0.62552(8) 1.27774(8)
K3A K 0.45810(8) 0.00000(11) 1.6667
K3B K 0.00000(11) 0.45810(8) 0.3333
K4C K 0.1555(2) 0.8055(2) 0.3713(4)
O13C O 0.3143(8) 0.2267(8) 0.7434(11)
O17C O 0.3216(18) 0.2855(18) 0.551(2)
O21C O 0.3344(4) 0.3757(4) 0.9016(6)
O23C O 0.2297(5) 0.8642(5) 0.1782(7)
O24C O 0.035(3) 0.815(2) 0.390(3)
O12 O 0.6930(4) 0.6126(4) 0.9135(7)
O15 O 0.7301(13) 0.6837(12) 0.6678(16)
O19 O 0.3642(7) 0.1041(8) 0.7962(10)
C13 C 0.3230(5) 0.0604(5) 0.8170(7)
C14 C 0.3114(8) 0.1917(9) 0.3236(13)
O27 O 0.3115(5) 0.1786(5) 0.4154(8)
loop_
_geom_bond_atom_site_label_1
_geom_bond_atom_site_label_2
_geom_bond_site_symmetry_1
_geom_bond_site_symmetry_2
Fe1 O1 1_555 1_555
O1 Fe1C_2 1_555 1_555
O2 Fe1 1_555 1_555
C1 O2 1_555 1_555
O3 C1 1_555 1_555
N1 Fe1 1_555 1_555
C2 N1 1_555 1_555
H1 C2 1_555 1_555
H2 C2 1_555 1_555
C3 C2 1_555 1_555
O4 Fe1 1_555 1_555
O5 C3 1_555 1_555
C4 N1 1_555 1_555
H3 C4 1_555 1_555
H4 C4 1_555 1_555
C5 C4 1_555 1_555
O6 Fe1 1_555 1_555
O7 C5 1_555 1_555
C6 N1 1_555 1_555
H5 C6 1_555 1_555
H6 C6 1_555 1_555
C7 C6 1_555 1_555
C8 C7 1_555 1_555
O8 Fe1 1_555 1_555
C9 C8 1_555 1_555
H7 C9 1_555 1_555
C10 C9 1_555 1_555
H8 C10 1_555 1_555
C11 C10 1_555 1_555
C12 C7 1_555 1_555
H9 C12 1_555 1_555
S1 C11 1_555 1_555
O9 S1 1_555 1_555
O10 S1 1_555 1_555
O11 S1 1_555 1_555
K1 O6 1_555 1_555
K2 O5 1_555 1_555
K3 O7 1_555 1_555
K4 O11 1_555 1_555
O13 K1 1_555 1_555
O17 K1 1_555 1_555
O19 C13 1_555 1_555
O21 K1 1_555 1_555
O23 K4 1_555 1_555
O24 K4 1_555 1_555
C14 O27 1_555 1_555
Fe1C O1_2 1_555 1_555
Fe1C_2 O2C 1_555 1_555
O2C C1 1_555 1_555
O2A K2 1_555 1_555
O2C_2 Fe1C 1_555 1_555
N1C Fe1C 1_555 1_555
C2C N1C 1_555 1_555
H1C C2C 1_555 1_555
H2C C2C 1_555 1_555
C3C C2C 1_555 1_555
O4C Fe1C 1_555 1_555
O5C C3C 1_555 1_555
C4C N1C 1_555 1_555
H3C C4C 1_555 1_555
H4C C4C 1_555 1_555
C5C C4C 1_555 1_555
O6C Fe1C 1_555 1_555
O7C K3 1_555 1_555
C6C N1C 1_555 1_555
H5C C6C 1_555 1_555
H6C C6C 1_555 1_555
C7C C6C 1_555 1_555
C8C C7C 1_555 1_555
O8C Fe1C 1_555 1_555
O8C_2 K1 1_555 1_555
O8_2 K1C 1_555 1_555
C9C C8C 1_555 1_555
H7C C9C 1_555 1_555
C10C C9C 1_555 1_555
H8C C10C 1_555 1_555
C11C C10C 1_555 1_555
C12C C7C 1_555 1_555
H9C C12C 1_555 1_555
S1C C11C 1_555 1_555
O9C S1C 1_555 1_555
O9E K1 1_555 1_555
O9B K3 1_555 1_555
O10C S1C 1_555 1_555
O11C S1C 1_555 1_555
K1C O6C 1_555 1_555
K1C_2 O8 1_555 1_555
K1E O9 1_555 1_555
K1_2 O8C 1_555 1_555
K1B O9C 1_555 1_555
K2C O5C 1_555 1_555
K2B O2 1_555 1_555
K2E O2C 1_555 1_555
K3A O9 1_555 1_555
K3B O9C 1_555 1_555
K4C O11C 1_555 1_555
O13C K1C 1_555 1_555
O17C K1C 1_555 1_555
O21C K1C 1_555 1_555
O23C K4C 1_555 1_555
O24C K4C 1_555 1_555
C3 O4 1_555 1_555
C5 O6 1_555 1_555
C8 O8 1_555 1_555
C11 C12 1_555 1_555
O9 K2 1_555 1_555
K3 O9E 1_555 1_555
Fe1C_2 O8C_2 1_555 1_555
C3C O4C 1_555 1_555
C5C O6C 1_555 1_555
C5C O7C 1_555 1_555
C8C O8C 1_555 1_555
C11C C12C 1_555 1_555
O9C K2C 1_555 1_555
O9E K2E 1_555 1_555
O9B K1C 1_555 1_555

#END
