
#######################################################################
#
#                 Cambridge Crystallographic Data Centre
#                                CCDC 
#
#######################################################################
#
# If this CIF has been generated from an entry in the Cambridge 
# Structural Database, then it will include bibliographic, chemical, 
# crystal, experimental, refinement or atomic coordinate data resulting 
# from the CCDC's data processing and validation procedures.
#
#######################################################################

data_RUBLEH
_chemical_formula_moiety         '(C72 H58 O32 Zr6)n'
_symmetry_cell_setting           tetragonal
_symmetry_space_group_name_H-M   'P 42/m m c'
_symmetry_Int_Tables_number      131
_space_group_name_Hall           '-P 4c 2'
loop_
_symmetry_equiv_pos_site_id
_symmetry_equiv_pos_as_xyz
1 x,y,z
2 -y,x,1/2+z
3 -x,-y,z
4 y,-x,1/2+z
5 x,-y,-z
6 -x,y,-z
7 y,x,1/2-z
8 -y,-x,1/2-z
9 -x,-y,-z
10 y,-x,1/2-z
11 x,y,-z
12 -y,x,1/2-z
13 -x,y,z
14 x,-y,z
15 -y,-x,1/2+z
16 y,x,1/2+z
_cell_length_a                   24.40(3)
_cell_length_b                   24.401
_cell_length_c                   14.88(2)
_cell_angle_alpha                90
_cell_angle_beta                 90
_cell_angle_gamma                90
_cell_volume                     8859.32
loop_
_atom_site_label
_atom_site_type_symbol
_atom_site_fract_x
_atom_site_fract_y
_atom_site_fract_z
Zr1 Zr 0.07167(2) 0.5000 0.61938(4)
Zr2 Zr -0.0000 0.60101(3) 0.5000
O1 O 0.0000 0.5441(6) 0.5987(8)
O2 O 0.0628(5) 0.5416(5) 0.5000
O3 O 0.05480(12) 0.64725(11) 0.5893(2)
O4 O 0.10084(14) 0.58208(13) 0.6685(3)
O5 O 0.0543(3) 0.5000 0.7648(3)
O6 O 0.16149(18) 0.5000 0.6084(4)
H1 H 0.1707 0.5000 0.5533
C1 C 0.0919(2) 0.6314(2) 0.6420(4)
C2 C 0.13166(16) 0.67358(14) 0.6764(3)
C3 C 0.1706(2) 0.66031(15) 0.7410(4)
H2 H 0.1712 0.6246 0.7664
C4 C 0.20860(19) 0.69934(19) 0.7684(4)
H3 H 0.2353 0.6901 0.8123
C5 C 0.1687(2) 0.76483(14) 0.6665(4)
C6 C 0.1696(8) 0.8179(5) 0.6141(12)
H4 H 0.1980 0.8420 0.6385
H5 H 0.1338 0.8359 0.6190
H6 H 0.1775 0.8101 0.5508
C7 C 0.20763(18) 0.75157(16) 0.7312(4)
C8 C 0.13068(17) 0.72581(16) 0.6391(3)
H7 H 0.1041 0.7348 0.5950
C9 C 0.0000 0.5000 0.8051(6)
C10 C -0.0000 0.5000 0.9064(6)
C11 C 0.04934(2) 0.5000 0.9530(6)
H8 H 0.0831 0.5000 0.9211
O3G O 0.35275(11) 0.94520(12) 0.9107(2)
O4G O 0.41792(13) 0.89916(14) 0.8315(3)
C1G C 0.3686(2) 0.9081(2) 0.8580(4)
C2G C 0.32642(14) 0.86834(16) 0.8236(3)
C3G C 0.33969(15) 0.8294(2) 0.7590(4)
H2G H 0.3754 0.8288 0.7336
C4G C 0.30066(19) 0.79140(19) 0.7316(4)
H3G H 0.3099 0.7647 0.6877
C5G C 0.23517(14) 0.8313(2) 0.8335(4)
C6G C 0.1821(5) 0.8304(8) 0.8859(12)
H4G H 0.1580 0.8020 0.8615
H5G H 0.1641 0.8662 0.8810
H6G H 0.1899 0.8225 0.9492
C7G C 0.24843(16) 0.79237(18) 0.7688(4)
C8G C 0.27419(16) 0.86932(17) 0.8609(3)
H7G H 0.2652 0.8959 0.9050
O5B O -0.0543(3) 0.5000 0.7648(3)
C11B C -0.04934(2) 0.5000 0.9530(6)
H8B H -0.0831 0.5000 0.9211
O5D O 0.0543(3) 0.5000 1.2352(3)
C9D C -0.0000 0.5000 1.1949(6)
C10D C -0.0000 0.5000 1.0936(6)
C11D C 0.04934(2) 0.5000 1.0470(6)
H8D H 0.0831 0.5000 1.0789
O5E O -0.0543(3) 0.5000 1.2352(3)
C11E C -0.04934(2) 0.5000 1.0470(6)
H8E H -0.0831 0.5000 1.0789
Zr1B Zr -0.07167(2) 0.5000 0.61938(4)
Zr2B Zr -0.0000 0.39899(3) 0.5000
O1B O -0.0000 0.4559(6) 0.5987(8)
O2B O -0.0628(5) 0.4584(5) 0.5000
O3B O -0.05480(12) 0.35275(11) 0.5893(2)
O4B O -0.10084(14) 0.41792(13) 0.6685(3)
O6B O -0.16149(18) 0.5000 0.6084(4)
H1B H -0.1707 0.5000 0.5533
C1B C -0.0919(2) 0.3686(2) 0.6420(4)
C2B C -0.13166(16) 0.32642(14) 0.6764(3)
C3B C -0.1706(2) 0.33969(15) 0.7410(4)
H2B H -0.1712 0.3754 0.7664
C4B C -0.20860(19) 0.30066(19) 0.7684(4)
H3B H -0.2353 0.3099 0.8123
C5B C -0.1687(2) 0.23517(14) 0.6665(4)
C6B C -0.1696(8) 0.1821(5) 0.6141(12)
H4B H -0.1980 0.1580 0.6385
H5B H -0.1338 0.1641 0.6190
H6B H -0.1775 0.1899 0.5508
C7B C -0.20763(18) 0.24843(16) 0.7312(4)
C8B C -0.13068(17) 0.27419(16) 0.6391(3)
H7B H -0.1041 0.2652 0.5950
O3F O -0.35275(11) 0.05480(12) 0.9107(2)
O4F O -0.41792(13) 0.10084(14) 0.8315(3)
C1F C -0.3686(2) 0.0919(2) 0.8580(4)
C2F C -0.32642(14) 0.13166(16) 0.8236(3)
C3F C -0.33969(15) 0.1706(2) 0.7590(4)
H2F H -0.3754 0.1712 0.7336
C4F C -0.30066(19) 0.20860(19) 0.7316(4)
H3F H -0.3099 0.2353 0.6877
C5F C -0.23517(14) 0.1687(2) 0.8335(4)
C6F C -0.1821(5) 0.1696(8) 0.8859(12)
H4F H -0.1580 0.1980 0.8615
H5F H -0.1641 0.1338 0.8810
H6F H -0.1899 0.1775 0.9492
C7F C -0.24843(16) 0.20763(18) 0.7688(4)
C8F C -0.27419(16) 0.13068(17) 0.8609(3)
H7F H -0.2652 0.1041 0.9050
Zr1D Zr 0.07167(2) 0.5000 0.38062(4)
O1D O -0.0000 0.4559(6) 0.4013(8)
O2D O 0.0628(5) 0.4584(5) 0.5000
O6D O 0.16149(18) 0.5000 0.3916(4)
H1D H 0.1707 0.5000 0.4467
Zr1E Zr -0.07167(2) 0.5000 0.38062(4)
O1E O -0.0000 0.5441(6) 0.4013(8)
O2E O -0.0628(5) 0.5416(5) 0.5000
O6E O -0.16149(18) 0.5000 0.3916(4)
H1E H -0.1707 0.5000 0.4467
O3L O -0.05480(12) 0.64725(11) 0.5893(2)
O4L O -0.10084(14) 0.58208(13) 0.6685(3)
C1L C -0.0919(2) 0.6314(2) 0.6420(4)
C2L C -0.13166(16) 0.67358(14) 0.6764(3)
C3L C -0.1706(2) 0.66031(15) 0.7410(4)
H2L H -0.1712 0.6246 0.7664
C4L C -0.20860(19) 0.69934(19) 0.7684(4)
H3L H -0.2353 0.6901 0.8123
C5L C -0.1687(2) 0.76483(14) 0.6665(4)
C6L C -0.1696(8) 0.8179(5) 0.6141(12)
H4L H -0.1980 0.8420 0.6385
H5L H -0.1338 0.8359 0.6190
H6L H -0.1775 0.8101 0.5508
C7L C -0.20763(18) 0.75157(16) 0.7312(4)
C8L C -0.13068(17) 0.72581(16) 0.6391(3)
H7L H -0.1041 0.7348 0.5950
O3I O -0.35275(11) 0.94520(12) 0.9107(2)
O4I O -0.41792(13) 0.89916(14) 0.8315(3)
C1I C -0.3686(2) 0.9081(2) 0.8580(4)
C2I C -0.32642(14) 0.86834(16) 0.8236(3)
C3I C -0.33969(15) 0.8294(2) 0.7590(4)
H2I H -0.3754 0.8288 0.7336
C4I C -0.30066(19) 0.79140(19) 0.7316(4)
H3I H -0.3099 0.7647 0.6877
C5I C -0.23517(14) 0.8313(2) 0.8335(4)
C6I C -0.1821(5) 0.8304(8) 0.8859(12)
H4I H -0.1580 0.8020 0.8615
H5I H -0.1641 0.8662 0.8810
H6I H -0.1899 0.8225 0.9492
C7I C -0.24843(16) 0.79237(18) 0.7688(4)
C8I C -0.27419(16) 0.86932(17) 0.8609(3)
H7I H -0.2652 0.8959 0.9050
O3M O 0.05480(12) 0.35275(11) 0.5893(2)
O4M O 0.10084(14) 0.41792(13) 0.6685(3)
C1M C 0.0919(2) 0.3686(2) 0.6420(4)
C2M C 0.13166(16) 0.32642(14) 0.6764(3)
C3M C 0.1706(2) 0.33969(15) 0.7410(4)
H2M H 0.1712 0.3754 0.7664
C4M C 0.20860(19) 0.30066(19) 0.7684(4)
H3M H 0.2353 0.3099 0.8123
C5M C 0.1687(2) 0.23517(14) 0.6665(4)
C6M C 0.1696(8) 0.1821(5) 0.6141(12)
H4M H 0.1980 0.1580 0.6385
H5M H 0.1338 0.1641 0.6190
H6M H 0.1775 0.1899 0.5508
C7M C 0.20763(18) 0.24843(16) 0.7312(4)
C8M C 0.13068(17) 0.27419(16) 0.6391(3)
H7M H 0.1041 0.2652 0.5950
O3K O 0.35275(11) 0.05480(12) 0.9107(2)
O4K O 0.41792(13) 0.10084(14) 0.8315(3)
C1K C 0.3686(2) 0.0919(2) 0.8580(4)
C2K C 0.32642(14) 0.13166(16) 0.8236(3)
C3K C 0.33969(15) 0.1706(2) 0.7590(4)
H2K H 0.3754 0.1712 0.7336
C4K C 0.30066(19) 0.20860(19) 0.7316(4)
H3K H 0.3099 0.2353 0.6877
C5K C 0.23517(14) 0.1687(2) 0.8335(4)
C6K C 0.1821(5) 0.1696(8) 0.8859(12)
H4K H 0.1580 0.1980 0.8615
H5K H 0.1641 0.1338 0.8810
H6K H 0.1899 0.1775 0.9492
C7K C 0.24843(16) 0.20763(18) 0.7688(4)
C8K C 0.27419(16) 0.13068(17) 0.8609(3)
H7K H 0.2652 0.1041 0.9050
Zr1D_2 Zr 0.07167(2) 0.5000 1.38062(4)
Zr1E_2 Zr -0.07167(2) 0.5000 1.38062(4)
Zr1F Zr -0.5000 0.07167(2) 0.88062(4)
Zr1F_2 Zr 0.5000 0.07167(2) 0.88062(4)
Zr1G Zr -0.5000 0.92833(2) 0.88062(4)
Zr1G_2 Zr 0.5000 0.92833(2) 0.88062(4)
Zr2A Zr 0.39899(3) 0.0000 1.0000
Zr2A_2 Zr 0.39899(3) 1.0000 1.0000
Zr2C Zr -0.39899(3) 0.0000 1.0000
Zr2C_2 Zr -0.39899(3) 1.0000 1.0000
O3D O 0.05480(12) 0.35275(11) 0.4107(2)
O3E O -0.05480(12) 0.64725(11) 0.4107(2)
O3H O -0.05480(12) 0.35275(11) 0.4107(2)
O3J O 0.05480(12) 0.64725(11) 0.4107(2)
O4D O 0.10084(14) 0.41792(13) 0.3315(3)
O4E O -0.10084(14) 0.58208(13) 0.3315(3)
O4H O -0.10084(14) 0.41792(13) 0.3315(3)
O4J O 0.10084(14) 0.58208(13) 0.3315(3)
O5D_2 O 0.0543(3) 0.5000 0.2352(3)
O5E_2 O -0.0543(3) 0.5000 0.2352(3)
loop_
_geom_bond_atom_site_label_1
_geom_bond_atom_site_label_2
_geom_bond_site_symmetry_1
_geom_bond_site_symmetry_2
Zr1 O1 1_555 1_555
Zr2 O1 1_555 1_555
O1 Zr1B 1_555 1_555
O2 Zr1 1_555 1_555
O3 Zr2 1_555 1_555
O4 Zr1 1_555 1_555
O5 Zr1 1_555 1_555
O6 Zr1 1_555 1_555
H1 O6 1_555 1_555
C1 O3 1_555 1_555
C2 C1 1_555 1_555
C3 C2 1_555 1_555
H2 C3 1_555 1_555
C4 C3 1_555 1_555
H3 C4 1_555 1_555
C5 C6 1_555 1_555
C6 H4 1_555 1_555
H5 C6 1_555 1_555
H6 C6 1_555 1_555
C7 C4 1_555 1_555
C8 C2 1_555 1_555
H7 C8 1_555 1_555
C9 O5 1_555 1_555
C10 C9 1_555 1_555
C11 C10 1_555 1_555
H8 C11 1_555 1_555
O3G C1G 1_555 1_555
O4G C1G 1_555 1_555
C1G C2G 1_555 1_555
C2G C3G 1_555 1_555
C3G H2G 1_555 1_555
C4G C3G 1_555 1_555
H3G C4G 1_555 1_555
C5G C6G 1_555 1_555
C6G H4G 1_555 1_555
H5G C6G 1_555 1_555
H6G C6G 1_555 1_555
C7G C7 1_555 1_555
C8G C2G 1_555 1_555
H7G C8G 1_555 1_555
O5B C9 1_555 1_555
C11B C10 1_555 1_555
H8B C11B 1_555 1_555
O5D C9D 1_555 1_555
C9D C10D 1_555 1_555
C10D C11D 1_555 1_555
C11D C11 1_555 1_555
H8D C11D 1_555 1_555
O5E C9D 1_555 1_555
C11E C11B 1_555 1_555
H8E C11E 1_555 1_555
Zr1B O5B 1_555 1_555
Zr2B O1B 1_555 1_555
O1B Zr1 1_555 1_555
O2B Zr1B 1_555 1_555
O3B Zr2B 1_555 1_555
O4B Zr1B 1_555 1_555
O6B Zr1B 1_555 1_555
H1B O6B 1_555 1_555
C1B O3B 1_555 1_555
C2B C1B 1_555 1_555
C3B C2B 1_555 1_555
H2B C3B 1_555 1_555
C4B C3B 1_555 1_555
H3B C4B 1_555 1_555
C5B C6B 1_555 1_555
C6B H4B 1_555 1_555
H5B C6B 1_555 1_555
H6B C6B 1_555 1_555
C7B C4B 1_555 1_555
C8B C2B 1_555 1_555
H7B C8B 1_555 1_555
O3F C1F 1_555 1_555
O4F C1F 1_555 1_555
C1F C2F 1_555 1_555
C2F C3F 1_555 1_555
C3F H2F 1_555 1_555
C4F C3F 1_555 1_555
H3F C4F 1_555 1_555
C5F C6F 1_555 1_555
C6F H4F 1_555 1_555
H5F C6F 1_555 1_555
H6F C6F 1_555 1_555
C7F C7B 1_555 1_555
C8F C2F 1_555 1_555
H7F C8F 1_555 1_555
Zr1D O2 1_555 1_555
O1D Zr2B 1_555 1_555
O2D Zr1 1_555 1_555
O6D Zr1D 1_555 1_555
H1D O6D 1_555 1_555
Zr1E O2B 1_555 1_555
O1E Zr2 1_555 1_555
O2E Zr2 1_555 1_555
O6E Zr1E 1_555 1_555
H1E O6E 1_555 1_555
O3L Zr2 1_555 1_555
O4L Zr1B 1_555 1_555
C1L O3L 1_555 1_555
C2L C1L 1_555 1_555
C3L C2L 1_555 1_555
H2L C3L 1_555 1_555
C4L C3L 1_555 1_555
H3L C4L 1_555 1_555
C5L C6L 1_555 1_555
C6L H4L 1_555 1_555
H5L C6L 1_555 1_555
H6L C6L 1_555 1_555
C7L C4L 1_555 1_555
C8L C2L 1_555 1_555
H7L C8L 1_555 1_555
O3I C1I 1_555 1_555
O4I C1I 1_555 1_555
C1I C2I 1_555 1_555
C2I C3I 1_555 1_555
C3I H2I 1_555 1_555
C4I C3I 1_555 1_555
H3I C4I 1_555 1_555
C5I C6I 1_555 1_555
C6I H4I 1_555 1_555
H5I C6I 1_555 1_555
H6I C6I 1_555 1_555
C7I C7L 1_555 1_555
C8I C2I 1_555 1_555
H7I C8I 1_555 1_555
O3M Zr2B 1_555 1_555
O4M Zr1 1_555 1_555
C1M O3M 1_555 1_555
C2M C1M 1_555 1_555
C3M C2M 1_555 1_555
H2M C3M 1_555 1_555
C4M C3M 1_555 1_555
H3M C4M 1_555 1_555
C5M C6M 1_555 1_555
C6M H4M 1_555 1_555
H5M C6M 1_555 1_555
H6M C6M 1_555 1_555
C7M C4M 1_555 1_555
C8M C2M 1_555 1_555
H7M C8M 1_555 1_555
O3K C1K 1_555 1_555
O4K C1K 1_555 1_555
C1K C2K 1_555 1_555
C2K C3K 1_555 1_555
C3K H2K 1_555 1_555
C4K C3K 1_555 1_555
H3K C4K 1_555 1_555
C5K C6K 1_555 1_555
C6K H4K 1_555 1_555
H5K C6K 1_555 1_555
H6K C6K 1_555 1_555
C7K C7M 1_555 1_555
C8K C2K 1_555 1_555
H7K C8K 1_555 1_555
Zr1D_2 O5D 1_555 1_555
Zr1E_2 O5E 1_555 1_555
Zr1F O4F 1_555 1_555
Zr1F_2 O4K 1_555 1_555
Zr1G O4I 1_555 1_555
Zr1G_2 O4G 1_555 1_555
Zr2A O3K 1_555 1_555
Zr2A_2 O3G 1_555 1_555
Zr2C O3F 1_555 1_555
Zr2C_2 O3I 1_555 1_555
O3D Zr2B 1_555 1_555
O3E Zr2 1_555 1_555
O3H Zr2B 1_555 1_555
O3J Zr2 1_555 1_555
O4D Zr1D 1_555 1_555
O4E Zr1E 1_555 1_555
O4H Zr1E 1_555 1_555
O4J Zr1D 1_555 1_555
O5D_2 Zr1D 1_555 1_555
O5E_2 Zr1E 1_555 1_555
Zr2 O2 1_555 1_555
O4 C1 1_555 1_555
C5 C7 1_555 1_555
C5 C8 1_555 1_555
C4G C7G 1_555 1_555
C5G C7G 1_555 1_555
C5G C8G 1_555 1_555
C10D C11E 1_555 1_555
Zr1B O1B 1_555 1_555
Zr1B O2E 1_555 1_555
Zr2B O2B 1_555 1_555
Zr2B O2D 1_555 1_555
O4B C1B 1_555 1_555
C5B C7B 1_555 1_555
C5B C8B 1_555 1_555
C4F C7F 1_555 1_555
C5F C7F 1_555 1_555
C5F C8F 1_555 1_555
Zr1D O1D 1_555 1_555
Zr1D O2D 1_555 1_555
Zr1D O1E 1_555 1_555
O1D Zr1E 1_555 1_555
Zr1E O1E 1_555 1_555
Zr1E O2E 1_555 1_555
O4L C1L 1_555 1_555
C5L C7L 1_555 1_555
C5L C8L 1_555 1_555
C4I C7I 1_555 1_555
C5I C7I 1_555 1_555
C5I C8I 1_555 1_555
O4M C1M 1_555 1_555
C5M C7M 1_555 1_555
C5M C8M 1_555 1_555
C4K C7K 1_555 1_555
C5K C7K 1_555 1_555
C5K C8K 1_555 1_555

#END
