
#######################################################################
#
#                 Cambridge Crystallographic Data Centre
#                                CCDC 
#
#######################################################################
#
# If this CIF has been generated from an entry in the Cambridge 
# Structural Database, then it will include bibliographic, chemical, 
# crystal, experimental, refinement or atomic coordinate data resulting 
# from the CCDC's data processing and validation procedures.
#
#######################################################################

data_RUBLIL
_chemical_formula_moiety         'C88 H72 O48 Zr16'
_symmetry_cell_setting           tetragonal
_symmetry_space_group_name_H-M   'P 42/m m c'
_symmetry_Int_Tables_number      131
_space_group_name_Hall           '-P 4c 2'
loop_
_symmetry_equiv_pos_site_id
_symmetry_equiv_pos_as_xyz
1 x,y,z
2 -y,x,1/2+z
3 -x,-y,z
4 y,-x,1/2+z
5 x,-y,-z
6 -x,y,-z
7 y,x,1/2-z
8 -y,-x,1/2-z
9 -x,-y,-z
10 y,-x,1/2-z
11 x,y,-z
12 -y,x,1/2-z
13 -x,y,z
14 x,-y,z
15 -y,-x,1/2+z
16 y,x,1/2+z
_cell_length_a                   23.910(11)
_cell_length_b                   23.910
_cell_length_c                   16.057(8)
_cell_angle_alpha                90
_cell_angle_beta                 90
_cell_angle_gamma                90
_cell_volume                     9179.6
loop_
_atom_site_label
_atom_site_type_symbol
_atom_site_fract_x
_atom_site_fract_y
_atom_site_fract_z
Zr1 Zr 0.10232(5) 0.5000 0.5000
Zr2 Zr 0.0000 0.42589(4) 0.60860(7)
O1 O 0.14934(19) 0.44517(19) 0.5826(3)
O2 O 0.0828(2) 0.3953(2) 0.6506(3)
O3 O -0.0000 0.32754(14) 0.56919(17)
O4 O 0.0431(6) 0.4368(6) 0.5000
O5 O 0.0536(6) 0.5000 0.6262(9)
O6 O 0.0000 0.4302(3) 0.7450(5)
H1 H 0.0000 0.4644 0.7594
C1 C 0.1340(3) 0.4076(3) 0.6304(5)
C2 C 0.1765(2) 0.36840(17) 0.6678(3)
C3 C 0.16364(19) 0.3326(2) 0.7332(4)
H2 H 0.1267 0.3322 0.7567
C4 C 0.2045(2) 0.2973(3) 0.7654(4)
C5 C 0.2582(2) 0.2979(2) 0.7322(4)
C6 C 0.27099(19) 0.3337(2) 0.6668(4)
H3 H 0.1962 0.2723 0.8111
C7 C 0.2302(2) 0.3690(2) 0.6346(3)
H4 H 0.2389 0.3939 0.5895
C8 C 0.3282(5) 0.3403(6) 0.6217(9)
H5 H 0.3285 0.3677 0.5779
H6 H 0.3553 0.3503 0.6633
H7 H 0.3373 0.3043 0.5992
C9 C 0.0000 0.30338(15) 0.5000
C10 C 0.0000 0.23933(12) 0.5000
C11 C 0.0000 0.21023(11) 0.57496(3)
H8 H 0.0000 0.2303 0.6267
C12 C 0.0000 0.15209(12) 0.57496(3)
H9 H -0.0000 0.1322 0.6262
C13 C -0.0000 0.12290(11) 0.5000
C14 C 0.0000 0.05846(7) 0.5000
C15 C 0.05031(2) 0.02910(2) 0.5000
C16 C 0.10511(9) 0.06038(12) 0.5000
H10 H 0.1073 0.0835 0.4512
H11 H 0.1356 0.0343 0.5000
O1F O 0.44517(19) 0.14934(19) 0.9174(3)
O2F O 0.3953(2) 0.0828(2) 0.8494(3)
C1F C 0.4076(3) 0.1340(3) 0.8696(5)
C2F C 0.36840(17) 0.1765(2) 0.8322(3)
C3F C 0.3326(2) 0.16364(19) 0.7668(4)
H2F H 0.3322 0.1267 0.7433
C4F C 0.2973(3) 0.2045(2) 0.7346(4)
C5F C 0.2979(2) 0.2582(2) 0.7678(4)
C6F C 0.3337(2) 0.27099(19) 0.8332(4)
H3F H 0.2723 0.1962 0.6889
C7F C 0.3690(2) 0.2302(2) 0.8654(3)
H4F H 0.3939 0.2389 0.9105
C8F C 0.3403(6) 0.3282(5) 0.8783(9)
H5F H 0.3677 0.3285 0.9221
H6F H 0.3503 0.3553 0.8367
H7F H 0.3043 0.3373 0.9008
O3D O 0.0000 -0.32754(14) 0.43081(17)
C9B C 0.0000 -0.30338(15) 0.5000
C10B C 0.0000 -0.23933(12) 0.5000
C11D C 0.0000 -0.21023(11) 0.42504(3)
H8D H 0.0000 -0.2303 0.3733
C12D C 0.0000 -0.15209(12) 0.42504(3)
H9D H 0.0000 -0.1322 0.3738
C13B C 0.0000 -0.12290(11) 0.5000
C14B C 0.0000 -0.05846(7) 0.5000
C15D C 0.05031(2) -0.02910(2) 0.5000
C16D C 0.10511(9) -0.06038(12) 0.5000
H10D H 0.1073 -0.0835 0.5488
H11D H 0.1356 -0.0343 0.5000
O3E O 0.0000 0.32754(14) 0.43081(17)
C11E C 0.0000 0.21023(11) 0.42504(3)
H8E H 0.0000 0.2303 0.3733
C12E C -0.0000 0.15209(12) 0.42504(3)
H9E H 0.0000 0.1322 0.3738
C15E C -0.05031(2) 0.02910(2) 0.5000
C16E C -0.10511(9) 0.06038(12) 0.5000
H10E H -0.1073 0.0835 0.5488
H11E H -0.1356 0.0343 0.5000
C15B C -0.05031(2) -0.02910(2) 0.5000
C16B C -0.10511(9) -0.06038(12) 0.5000
H10H H -0.1073 -0.0835 0.5488
H11B H -0.1356 -0.0343 0.5000
H10J H 0.1073 0.0835 0.5488
H10L H -0.1073 0.0835 0.4512
O3B O -0.0000 -0.32754(14) 0.56919(17)
C11B C 0.0000 -0.21023(11) 0.57496(3)
H8B H -0.0000 -0.2303 0.6267
C12B C 0.0000 -0.15209(12) 0.57496(3)
H9B H -0.0000 -0.1322 0.6262
H10M H 0.1073 -0.0835 0.4512
H10B H -0.1073 -0.0835 0.4512
Zr2B Zr 0.0000 -0.42589(4) 0.60860(7)
O1B O -0.14934(19) -0.44517(19) 0.5826(3)
O2B O -0.0828(2) -0.3953(2) 0.6506(3)
O4B O -0.0431(6) -0.4368(6) 0.5000
O6B O 0.0000 -0.4302(3) 0.7450(5)
H1B H 0.0000 -0.4644 0.7594
C1B C -0.1340(3) -0.4076(3) 0.6304(5)
C2B C -0.1765(2) -0.36840(17) 0.6678(3)
C3B C -0.16364(19) -0.3326(2) 0.7332(4)
H2B H -0.1267 -0.3322 0.7567
C4B C -0.2045(2) -0.2973(3) 0.7654(4)
C5B C -0.2582(2) -0.2979(2) 0.7322(4)
C6B C -0.27099(19) -0.3337(2) 0.6668(4)
H3B H -0.1962 -0.2723 0.8111
C7B C -0.2302(2) -0.3690(2) 0.6346(3)
H4B H -0.2389 -0.3939 0.5895
C8B C -0.3282(5) -0.3403(6) 0.6217(9)
H5B H -0.3285 -0.3677 0.5779
H6B H -0.3553 -0.3503 0.6633
H7B H -0.3373 -0.3043 0.5992
O1G O -0.44517(19) -0.14934(19) 0.9174(3)
O2G O -0.3953(2) -0.0828(2) 0.8494(3)
C1G C -0.4076(3) -0.1340(3) 0.8696(5)
C2G C -0.36840(17) -0.1765(2) 0.8322(3)
C3G C -0.3326(2) -0.16364(19) 0.7668(4)
H2G H -0.3322 -0.1267 0.7433
C4G C -0.2973(3) -0.2045(2) 0.7346(4)
C5G C -0.2979(2) -0.2582(2) 0.7678(4)
C6G C -0.3337(2) -0.27099(19) 0.8332(4)
H3G H -0.2723 -0.1962 0.6889
C7G C -0.3690(2) -0.2302(2) 0.8654(3)
H4G H -0.3939 -0.2389 0.9105
C8G C -0.3403(6) -0.3282(5) 0.8783(9)
H5G H -0.3677 -0.3285 0.9221
H6G H -0.3503 -0.3553 0.8367
H7G H -0.3043 -0.3373 0.9008
Zr2D Zr 0.0000 -0.42589(4) 0.39140(7)
O4D O 0.0431(6) -0.4368(6) 0.5000
O6D O 0.0000 -0.4302(3) 0.2550(5)
H1D H 0.0000 -0.4644 0.2406
Zr1B Zr -0.10232(5) 0.5000 0.5000
Zr2E Zr 0.0000 0.42589(4) 0.39140(7)
O4E O -0.0431(6) 0.4368(6) 0.5000
O5E O -0.0536(6) 0.5000 0.3738(9)
O6E O -0.0000 0.4302(3) 0.2550(5)
H1E H -0.0000 0.4644 0.2406
O5D O 0.0536(6) 0.5000 0.3738(9)
O1L O -0.14934(19) 0.44517(19) 0.5826(3)
O2L O -0.0828(2) 0.3953(2) 0.6506(3)
O5B O -0.0536(6) 0.5000 0.6262(9)
C1L C -0.1340(3) 0.4076(3) 0.6304(5)
C2L C -0.1765(2) 0.36840(17) 0.6678(3)
C3L C -0.16364(19) 0.3326(2) 0.7332(4)
H2L H -0.1267 0.3322 0.7567
C4L C -0.2045(2) 0.2973(3) 0.7654(4)
C5L C -0.2582(2) 0.2979(2) 0.7322(4)
C6L C -0.27099(19) 0.3337(2) 0.6668(4)
H3L H -0.1962 0.2723 0.8111
C7L C -0.2302(2) 0.3690(2) 0.6346(3)
H4L H -0.2389 0.3939 0.5895
C8L C -0.3282(5) 0.3403(6) 0.6217(9)
H5L H -0.3285 0.3677 0.5779
H6L H -0.3553 0.3503 0.6633
H7L H -0.3373 0.3043 0.5992
O1K O -0.44517(19) 0.14934(19) 0.9174(3)
O2K O -0.3953(2) 0.0828(2) 0.8494(3)
C1K C -0.4076(3) 0.1340(3) 0.8696(5)
C2K C -0.36840(17) 0.1765(2) 0.8322(3)
C3K C -0.3326(2) 0.16364(19) 0.7668(4)
H2K H -0.3322 0.1267 0.7433
C4K C -0.2973(3) 0.2045(2) 0.7346(4)
C5K C -0.2979(2) 0.2582(2) 0.7678(4)
C6K C -0.3337(2) 0.27099(19) 0.8332(4)
H3K H -0.2723 0.1962 0.6889
C7K C -0.3690(2) 0.2302(2) 0.8654(3)
H4K H -0.3939 0.2389 0.9105
C8K C -0.3403(6) 0.3282(5) 0.8783(9)
H5K H -0.3677 0.3285 0.9221
H6K H -0.3503 0.3553 0.8367
H7K H -0.3043 0.3373 0.9008
O1M O 0.14934(19) -0.44517(19) 0.5826(3)
O2M O 0.0828(2) -0.3953(2) 0.6506(3)
C1M C 0.1340(3) -0.4076(3) 0.6304(5)
C2M C 0.1765(2) -0.36840(17) 0.6678(3)
C3M C 0.16364(19) -0.3326(2) 0.7332(4)
H2M H 0.1267 -0.3322 0.7567
C4M C 0.2045(2) -0.2973(3) 0.7654(4)
C5M C 0.2582(2) -0.2979(2) 0.7322(4)
C6M C 0.27099(19) -0.3337(2) 0.6668(4)
H3M H 0.1962 -0.2723 0.8111
C7M C 0.2302(2) -0.3690(2) 0.6346(3)
H4M H 0.2389 -0.3939 0.5895
C8M C 0.3282(5) -0.3403(6) 0.6217(9)
H5M H 0.3285 -0.3677 0.5779
H6M H 0.3553 -0.3503 0.6633
H7M H 0.3373 -0.3043 0.5992
O1I O 0.44517(19) -0.14934(19) 0.9174(3)
O2I O 0.3953(2) -0.0828(2) 0.8494(3)
C1I C 0.4076(3) -0.1340(3) 0.8696(5)
C2I C 0.36840(17) -0.1765(2) 0.8322(3)
C3I C 0.3326(2) -0.16364(19) 0.7668(4)
H2I H 0.3322 -0.1267 0.7433
C4I C 0.2973(3) -0.2045(2) 0.7346(4)
C5I C 0.2979(2) -0.2582(2) 0.7678(4)
C6I C 0.3337(2) -0.27099(19) 0.8332(4)
H3I H 0.2723 -0.1962 0.6889
C7I C 0.3690(2) -0.2302(2) 0.8654(3)
H4I H 0.3939 -0.2389 0.9105
C8I C 0.3403(6) -0.3282(5) 0.8783(9)
H5I H 0.3677 -0.3285 0.9221
H6I H 0.3503 -0.3553 0.8367
H7I H 0.3043 -0.3373 0.9008
Zr1_2 Zr 0.10232(5) -0.5000 0.5000
Zr1A Zr -0.5000 0.10232(5) 1.0000
Zr1A_2 Zr 0.5000 0.10232(5) 1.0000
Zr1B_2 Zr -0.10232(5) -0.5000 0.5000
Zr1C Zr -0.5000 -0.10232(5) 1.0000
Zr1C_2 Zr 0.5000 -0.10232(5) 1.0000
Zr2B_2 Zr 0.0000 0.57411(4) 0.60860(7)
Zr2D_2 Zr 0.0000 0.57411(4) 0.39140(7)
Zr2F Zr 0.42589(4) 0.0000 0.89140(7)
Zr2G Zr -0.42589(4) 0.0000 0.89140(7)
O1B_2 O -0.14934(19) 0.55483(19) 0.5826(3)
O1D O 0.14934(19) 0.55483(19) 0.4174(3)
O1E O -0.14934(19) 0.44517(19) 0.4174(3)
O1H O -0.14934(19) 0.55483(19) 0.4174(3)
O1J O 0.14934(19) 0.44517(19) 0.4174(3)
O1M_2 O 0.14934(19) 0.55483(19) 0.5826(3)
O2D O 0.0828(2) -0.3953(2) 0.3494(3)
O2E O -0.0828(2) 0.3953(2) 0.3494(3)
O2H O -0.0828(2) -0.3953(2) 0.3494(3)
O2J O 0.0828(2) 0.3953(2) 0.3494(3)
O4B_2 O -0.0431(6) 0.5632(6) 0.5000
O4D_2 O 0.0431(6) 0.5632(6) 0.5000
O5_2 O 0.0536(6) -0.5000 0.6262(9)
O5B_2 O -0.0536(6) -0.5000 0.6262(9)
O5D_2 O 0.0536(6) -0.5000 0.3738(9)
O5E_2 O -0.0536(6) -0.5000 0.3738(9)
loop_
_geom_bond_atom_site_label_1
_geom_bond_atom_site_label_2
_geom_bond_site_symmetry_1
_geom_bond_site_symmetry_2
Zr1 O1 1_555 1_555
Zr2 O2 1_555 1_555
O1 C1 1_555 1_555
O2 C1 1_555 1_555
O3 Zr2 1_555 1_555
O4 Zr1 1_555 1_555
O5 Zr1 1_555 1_555
O6 Zr2 1_555 1_555
H1 O6 1_555 1_555
C1 C2 1_555 1_555
C2 C3 1_555 1_555
C3 H2 1_555 1_555
C4 C3 1_555 1_555
C5 C4 1_555 1_555
C6 C5 1_555 1_555
H3 C4 1_555 1_555
C7 C2 1_555 1_555
H4 C7 1_555 1_555
C8 C6 1_555 1_555
H5 C8 1_555 1_555
H6 C8 1_555 1_555
H7 C8 1_555 1_555
C9 O3 1_555 1_555
C10 C9 1_555 1_555
C11 C10 1_555 1_555
H8 C11 1_555 1_555
C12 C11 1_555 1_555
H9 C12 1_555 1_555
C13 C12 1_555 1_555
C14 C13 1_555 1_555
C15 C14 1_555 1_555
C16 C15 1_555 1_555
H10 C16 1_555 1_555
H11 C16 1_555 1_555
O1F C1F 1_555 1_555
O2F C1F 1_555 1_555
C1F C2F 1_555 1_555
C2F C3F 1_555 1_555
C3F H2F 1_555 1_555
C4F C3F 1_555 1_555
C5F C5 1_555 1_555
C6F C5F 1_555 1_555
H3F C4F 1_555 1_555
C7F C2F 1_555 1_555
H4F C7F 1_555 1_555
C8F C6F 1_555 1_555
H5F C8F 1_555 1_555
H6F C8F 1_555 1_555
H7F C8F 1_555 1_555
O3D C9B 1_555 1_555
C9B C10B 1_555 1_555
C10B C11D 1_555 1_555
C11D H8D 1_555 1_555
C12D C11D 1_555 1_555
H9D C12D 1_555 1_555
C13B C12D 1_555 1_555
C14B C13B 1_555 1_555
C15D C15 1_555 1_555
C16D C15D 1_555 1_555
H10D C16D 1_555 1_555
H11D C16D 1_555 1_555
O3E C9 1_555 1_555
C11E C10 1_555 1_555
H8E C11E 1_555 1_555
C12E C13 1_555 1_555
H9E C12E 1_555 1_555
C15E C14 1_555 1_555
C16E C15E 1_555 1_555
H10E C16E 1_555 1_555
H11E C16E 1_555 1_555
C15B C14B 1_555 1_555
C16B C15B 1_555 1_555
H10H C16B 1_555 1_555
H11B C16B 1_555 1_555
H10J C16 1_555 1_555
H10L C16E 1_555 1_555
O3B C9B 1_555 1_555
C11B C10B 1_555 1_555
H8B C11B 1_555 1_555
C12B C13B 1_555 1_555
H9B C12B 1_555 1_555
H10M C16D 1_555 1_555
H10B C16B 1_555 1_555
Zr2B O3B 1_555 1_555
O1B C1B 1_555 1_555
O2B Zr2B 1_555 1_555
O4B Zr2B 1_555 1_555
O6B Zr2B 1_555 1_555
H1B O6B 1_555 1_555
C1B O2B 1_555 1_555
C2B C1B 1_555 1_555
C3B C2B 1_555 1_555
H2B C3B 1_555 1_555
C4B C3B 1_555 1_555
C5B C4B 1_555 1_555
C6B C5B 1_555 1_555
H3B C4B 1_555 1_555
C7B C2B 1_555 1_555
H4B C7B 1_555 1_555
C8B C6B 1_555 1_555
H5B C8B 1_555 1_555
H6B C8B 1_555 1_555
H7B C8B 1_555 1_555
O1G C1G 1_555 1_555
O2G C1G 1_555 1_555
C1G C2G 1_555 1_555
C2G C3G 1_555 1_555
C3G H2G 1_555 1_555
C4G C3G 1_555 1_555
C5G C5B 1_555 1_555
C6G C5G 1_555 1_555
H3G C4G 1_555 1_555
C7G C2G 1_555 1_555
H4G C7G 1_555 1_555
C8G C6G 1_555 1_555
H5G C8G 1_555 1_555
H6G C8G 1_555 1_555
H7G C8G 1_555 1_555
Zr2D O3D 1_555 1_555
O4D Zr2B 1_555 1_555
O6D Zr2D 1_555 1_555
H1D O6D 1_555 1_555
Zr1B O4E 1_555 1_555
Zr2E O4 1_555 1_555
O4E Zr2 1_555 1_555
O5E Zr1B 1_555 1_555
O6E Zr2E 1_555 1_555
H1E O6E 1_555 1_555
O5D Zr1 1_555 1_555
O1L Zr1B 1_555 1_555
O2L Zr2 1_555 1_555
O5B Zr2 1_555 1_555
C1L O1L 1_555 1_555
C2L C1L 1_555 1_555
C3L C2L 1_555 1_555
H2L C3L 1_555 1_555
C4L C3L 1_555 1_555
C5L C4L 1_555 1_555
C6L C5L 1_555 1_555
H3L C4L 1_555 1_555
C7L C2L 1_555 1_555
H4L C7L 1_555 1_555
C8L C6L 1_555 1_555
H5L C8L 1_555 1_555
H6L C8L 1_555 1_555
H7L C8L 1_555 1_555
O1K C1K 1_555 1_555
O2K C1K 1_555 1_555
C1K C2K 1_555 1_555
C2K C3K 1_555 1_555
C3K H2K 1_555 1_555
C4K C3K 1_555 1_555
C5K C5L 1_555 1_555
C6K C5K 1_555 1_555
H3K C4K 1_555 1_555
C7K C2K 1_555 1_555
H4K C7K 1_555 1_555
C8K C6K 1_555 1_555
H5K C8K 1_555 1_555
H6K C8K 1_555 1_555
H7K C8K 1_555 1_555
O1M C1M 1_555 1_555
O2M Zr2B 1_555 1_555
C1M O2M 1_555 1_555
C2M C1M 1_555 1_555
C3M C2M 1_555 1_555
H2M C3M 1_555 1_555
C4M C3M 1_555 1_555
C5M C4M 1_555 1_555
C6M C5M 1_555 1_555
H3M C4M 1_555 1_555
C7M C2M 1_555 1_555
H4M C7M 1_555 1_555
C8M C6M 1_555 1_555
H5M C8M 1_555 1_555
H6M C8M 1_555 1_555
H7M C8M 1_555 1_555
O1I C1I 1_555 1_555
O2I C1I 1_555 1_555
C1I C2I 1_555 1_555
C2I C3I 1_555 1_555
C3I H2I 1_555 1_555
C4I C3I 1_555 1_555
C5I C5M 1_555 1_555
C6I C5I 1_555 1_555
H3I C4I 1_555 1_555
C7I C2I 1_555 1_555
H4I C7I 1_555 1_555
C8I C6I 1_555 1_555
H5I C8I 1_555 1_555
H6I C8I 1_555 1_555
H7I C8I 1_555 1_555
Zr1_2 O4D 1_555 1_555
Zr1A O1K 1_555 1_555
Zr1A_2 O1F 1_555 1_555
Zr1B_2 O1B 1_555 1_555
Zr1C O1G 1_555 1_555
Zr1C_2 O1I 1_555 1_555
Zr2B_2 O5 1_555 1_555
Zr2D_2 O5E 1_555 1_555
Zr2F O2F 1_555 1_555
Zr2G O2G 1_555 1_555
O1B_2 Zr1B 1_555 1_555
O1D Zr1 1_555 1_555
O1E Zr1B 1_555 1_555
O1H Zr1B 1_555 1_555
O1J Zr1 1_555 1_555
O1M_2 Zr1 1_555 1_555
O2D Zr2D 1_555 1_555
O2E Zr2E 1_555 1_555
O2H Zr2D 1_555 1_555
O2J Zr2E 1_555 1_555
O4B_2 Zr1B 1_555 1_555
O4D_2 Zr1 1_555 1_555
O5_2 Zr2B 1_555 1_555
O5B_2 Zr2B 1_555 1_555
O5D_2 Zr2D 1_555 1_555
O5E_2 Zr2D 1_555 1_555
Zr2 O4 1_555 1_555
Zr2 O5 1_555 1_555
C6 C7 1_555 1_555
C4F C5F 1_555 1_555
C6F C7F 1_555 1_555
C14B C15D 1_555 1_555
O3E Zr2E 1_555 1_555
C11E C12E 1_555 1_555
C15E C15B 1_555 1_555
C11B C12B 1_555 1_555
O4B Zr2D 1_555 1_555
O4B Zr1B_2 1_555 1_555
C6B C7B 1_555 1_555
C4G C5G 1_555 1_555
C6G C7G 1_555 1_555
Zr2D O4D 1_555 1_555
Zr1B O5B 1_555 1_555
Zr2E O4E 1_555 1_555
Zr2E O5E 1_555 1_555
Zr2E O5D 1_555 1_555
O5D Zr2D_2 1_555 1_555
O2L C1L 1_555 1_555
O5B Zr2B_2 1_555 1_555
C6L C7L 1_555 1_555
O2K Zr2G 1_555 1_555
C4K C5K 1_555 1_555
C6K C7K 1_555 1_555
O1M Zr1_2 1_555 1_555
C6M C7M 1_555 1_555
O2I Zr2F 1_555 1_555
C4I C5I 1_555 1_555
C6I C7I 1_555 1_555
Zr1_2 O5_2 1_555 1_555
Zr1_2 O5D_2 1_555 1_555
Zr1B_2 O5B_2 1_555 1_555
Zr1B_2 O5E_2 1_555 1_555
Zr2B_2 O4B_2 1_555 1_555
Zr2B_2 O4D_2 1_555 1_555
Zr2D_2 O4B_2 1_555 1_555
Zr2D_2 O4D_2 1_555 1_555

#END
