
#######################################################################
#
#                 Cambridge Crystallographic Data Centre
#                                CCDC 
#
#######################################################################
#
# If this CIF has been generated from an entry in the Cambridge 
# Structural Database, then it will include bibliographic, chemical, 
# crystal, experimental, refinement or atomic coordinate data resulting 
# from the CCDC's data processing and validation procedures.
#
#######################################################################

data_NIBBOR
_chemical_formula_moiety         '(C10 H12 Ba1 Cu1 O8)n'
_symmetry_cell_setting           rhombohedral
_symmetry_space_group_name_H-M   'R -3'
_symmetry_Int_Tables_number      148
_space_group_name_Hall           '-R 3'
loop_
_symmetry_equiv_pos_site_id
_symmetry_equiv_pos_as_xyz
1 x,y,z
2 -y,x-y,z
3 -x+y,-x,z
4 2/3+x,1/3+y,1/3+z
5 2/3-y,1/3+x-y,1/3+z
6 2/3-x+y,1/3-x,1/3+z
7 1/3+x,2/3+y,2/3+z
8 1/3-y,2/3+x-y,2/3+z
9 1/3-x+y,2/3-x,2/3+z
10 -x,-y,-z
11 y,-x+y,-z
12 x-y,x,-z
13 1/3-x,2/3-y,2/3-z
14 1/3+y,2/3-x+y,2/3-z
15 1/3+x-y,2/3+x,2/3-z
16 2/3-x,1/3-y,1/3-z
17 2/3+y,1/3-x+y,1/3-z
18 2/3+x-y,1/3+x,1/3-z
_cell_length_a                   23.377(2)
_cell_length_b                   23.377(2)
_cell_length_c                   14.355(1)
_cell_angle_alpha                90
_cell_angle_beta                 90
_cell_angle_gamma                120
_cell_volume                     6793.78
loop_
_atom_site_label
_atom_site_type_symbol
_atom_site_fract_x
_atom_site_fract_y
_atom_site_fract_z
_atom_site_U_iso_or_equiv
_atom_site_thermal_displace_type
Cu1 Cu 0.81390(13) 0.61380(13) 0.0079(3) 0.0530 Uiso
O1 O 0.8656(5) 0.5848(6) 0.0778(10) 0.0530 Uiso
O2 O 0.8656(5) 0.6170(5) -0.1006(12) 0.0530 Uiso
O3 O 0.9104(5) 0.5902(5) 0.2147(11) 0.0530 Uiso
C1 C 0.7924(9) 0.5439(9) 0.2116(18) 0.0530 Uiso
C2 C 0.8619(9) 0.5800(9) 0.1676(16) 0.0530 Uiso
C3 C 0.7956(9) 0.5315(9) 0.3144(18) 0.0530 Uiso
H1 H 0.7518 0.5091 0.3398 0.0790 Uiso
H2 H 0.8214 0.5729 0.3459 0.0790 Uiso
H3 H 0.8157 0.5048 0.3227 0.0790 Uiso
C4 C 0.7507(9) 0.4768(9) 0.1613(18) 0.0530 Uiso
H4 H 0.7485 0.4843 0.0960 0.0790 Uiso
H5 H 0.7069 0.4544 0.1869 0.0790 Uiso
H6 H 0.7709 0.4501 0.1698 0.0790 Uiso
O4 O 0.8829(6) 0.6323(5) -0.2520(11) 0.0530 Uiso
C5 C 0.8447(9) 0.6115(9) -0.1841(17) 0.0530 Uiso
C6 C 0.7699(9) 0.5825(9) -0.2003(17) 0.0530 Uiso
C7 C 0.7548(9) 0.5767(9) -0.3051(17) 0.0530 Uiso
H7 H 0.7786 0.6196 -0.3333 0.0790 Uiso
H8 H 0.7082 0.5590 -0.3143 0.0790 Uiso
H9 H 0.7680 0.5479 -0.3332 0.0790 Uiso
C8 C 0.7321(9) 0.5144(9) -0.1556(18) 0.0530 Uiso
H10 H 0.7415 0.5180 -0.0901 0.0790 Uiso
H11 H 0.7455 0.4856 -0.1837 0.0790 Uiso
H12 H 0.6856 0.4966 -0.1648 0.0790 Uiso
O5 O 0.7581(6) 0.6058(6) 0.1127(10) 0.0530 Uiso
O6 O 0.7625(6) 0.6419(5) -0.0663(11) 0.0530 Uiso
O7 O 0.7386(5) 0.6029(6) 0.2635(11) 0.0530 Uiso
C9 C 0.7598(9) 0.5868(9) 0.1959(17) 0.0530 Uiso
O8 O 0.7253(6) 0.6558(6) -0.1996(11) 0.0530 Uiso
C10 C 0.7510(9) 0.6299(9) -0.1534(17) 0.0530 Uiso
Ba1 Ba 0.99212(5) 0.66748(6) 0.01346(10) 0.0390 Uiso
O3H O 1.0131(7) 0.7563(5) -0.1186(11) 0.0530 Uiso
O4D O 1.0344(5) 0.5839(8) 0.0813(11) 0.0530 Uiso
O6K O 1.1206(8) 0.7625(6) 0.0663(11) 0.0530 Uiso
O7O O 0.9281(5) 0.7304(6) 0.0698(11) 0.0530 Uiso
O8K O 1.0695(8) 0.7253(6) 0.1996(11) 0.0530 Uiso
O8M O 0.9891(6) 0.5972(8) -0.1337(11) 0.0530 Uiso
Ba1D Ba 0.99919(6) 0.65797(8) 0.34679(10) 0.0390 Uiso
Ba1H Ba 1.00869(8) 0.67455(5) -0.31987(10) 0.0390 Uiso
Ba1J Ba 0.66748(6) 0.67536(8) -0.01346(10) 0.0390 Uiso
Ba1O Ba 0.67455(5) 0.66585(6) 0.31987(10) 0.0390 Uiso
Ba1N Ba 0.65797(8) 0.65879(5) -0.34679(10) 0.0390 Uiso
loop_
_geom_bond_atom_site_label_1
_geom_bond_atom_site_label_2
_geom_bond_site_symmetry_1
_geom_bond_site_symmetry_2
Cu1 O1 1_555 1_555
O1 C2 1_555 1_555
O2 Cu1 1_555 1_555
O3 C2 1_555 1_555
C1 C2 1_555 1_555
C3 C1 1_555 1_555
H1 C3 1_555 1_555
H2 C3 1_555 1_555
H3 C3 1_555 1_555
C4 C1 1_555 1_555
H4 C4 1_555 1_555
H5 C4 1_555 1_555
H6 C4 1_555 1_555
O4 C5 1_555 1_555
C5 O2 1_555 1_555
C6 C5 1_555 1_555
C7 C6 1_555 1_555
H7 C7 1_555 1_555
H8 C7 1_555 1_555
H9 C7 1_555 1_555
C8 C6 1_555 1_555
H10 C8 1_555 1_555
H11 C8 1_555 1_555
H12 C8 1_555 1_555
O5 Cu1 1_555 1_555
O6 Cu1 1_555 1_555
O7 C9 1_555 1_555
C9 C1 1_555 1_555
O8 C10 1_555 1_555
C10 C6 1_555 1_555
Ba1 O1 1_555 1_555
O3H Ba1 1_555 1_555
O4D Ba1 1_555 1_555
O6K Ba1 1_555 1_555
O7O Ba1 1_555 1_555
O8K Ba1 1_555 1_555
O8M Ba1 1_555 1_555
Ba1D O3 1_555 1_555
Ba1H O4 1_555 1_555
Ba1J O6 1_555 1_555
Ba1O O7 1_555 1_555
Ba1N O8 1_555 1_555
O2 Ba1 1_555 1_555
O5 C9 1_555 1_555
O6 C10 1_555 1_555
O8 Ba1J 1_555 1_555
O8K Ba1D 1_555 1_555
O8M Ba1H 1_555 1_555

#END
