
#######################################################################
#
#                 Cambridge Crystallographic Data Centre
#                                CCDC 
#
#######################################################################
#
# If this CIF has been generated from an entry in the Cambridge 
# Structural Database, then it will include bibliographic, chemical, 
# crystal, experimental, refinement or atomic coordinate data resulting 
# from the CCDC's data processing and validation procedures.
#
#######################################################################

data_NICJUG
_chemical_formula_moiety         '(C10 H22 Ba1 Cu1 O13)n'
_symmetry_cell_setting           rhombohedral
_symmetry_space_group_name_H-M   'R -3 m'
_symmetry_Int_Tables_number      166
_space_group_name_Hall           '-R 3 2"'
loop_
_symmetry_equiv_pos_site_id
_symmetry_equiv_pos_as_xyz
1 x,y,z
2 -y,x-y,z
3 -x+y,-x,z
4 y,x,-z
5 x-y,-y,-z
6 -x,-x+y,-z
7 2/3+x,1/3+y,1/3+z
8 2/3-y,1/3+x-y,1/3+z
9 2/3-x+y,1/3-x,1/3+z
10 2/3+y,1/3+x,1/3-z
11 2/3+x-y,1/3-y,1/3-z
12 2/3-x,1/3-x+y,1/3-z
13 1/3+x,2/3+y,2/3+z
14 1/3-y,2/3+x-y,2/3+z
15 1/3-x+y,2/3-x,2/3+z
16 1/3+y,2/3+x,2/3-z
17 1/3+x-y,2/3-y,2/3-z
18 1/3-x,2/3-x+y,2/3-z
19 -x,-y,-z
20 y,-x+y,-z
21 x-y,x,-z
22 -y,-x,z
23 -x+y,y,z
24 x,x-y,z
25 1/3-x,2/3-y,2/3-z
26 1/3+y,2/3-x+y,2/3-z
27 1/3+x-y,2/3+x,2/3-z
28 1/3-y,2/3-x,2/3+z
29 1/3-x+y,2/3+y,2/3+z
30 1/3+x,2/3+x-y,2/3+z
31 2/3-x,1/3-y,1/3-z
32 2/3+y,1/3-x+y,1/3-z
33 2/3+x-y,1/3+x,1/3-z
34 2/3-y,1/3-x,1/3+z
35 2/3-x+y,1/3+y,1/3+z
36 2/3+x,1/3+x-y,1/3+z
_cell_length_a                   27.788(3)
_cell_length_b                   27.788(3)
_cell_length_c                   12.564(2)
_cell_angle_alpha                90
_cell_angle_beta                 90
_cell_angle_gamma                120
_cell_volume                     8401.82
loop_
_atom_site_label
_atom_site_type_symbol
_atom_site_fract_x
_atom_site_fract_y
_atom_site_fract_z
_atom_site_U_iso_or_equiv
_atom_site_thermal_displace_type
Ba1 Ba 0.3333 -0.038281(7) 0.6667 0.0119 Uani
Cu1 Cu 0.209156(10) -0.209156(10) 0.52574(3) 0.0141 Uani
C1 C 0.24356(9) -0.24356(9) 0.1721(3) 0.0210 Uani
O1 O 0.16188(8) -0.26133(9) 0.41776(15) 0.0195 Uani
O2 O 0.26190(8) -0.15979(8) 0.63342(15) 0.0180 Uani
O3 O 0.13862(8) -0.28921(8) 0.25134(16) 0.0211 Uani
C2 C 0.23633(8) -0.23633(8) 0.2907(3) 0.0151 Uani
C3 C 0.17420(12) -0.26415(11) 0.3198(2) 0.0153 Uani
C4 C 0.26340(9) -0.26340(9) 0.3571(3) 0.0245 Uani
O4 O 0.37566(9) -0.01233(9) 0.87722(16) 0.0175 Uani
O5 O 0.44320(8) 0.04966(9) 0.67955(16) 0.0179 Uani
O6 O 0.27624(9) -0.13050(8) 0.79942(15) 0.0204 Uani
O7 O 0.16277(7) -0.16277(7) 0.5371(3) 0.0239 Uani
C5 C 0.22961(8) -0.22961(8) 0.7718(3) 0.0149 Uani
C6 C 0.25777(11) -0.16901(11) 0.7336(2) 0.0148 Uani
C7 C 0.23297(9) -0.23297(9) 0.8922(3) 0.0192 Uani
C8 C 0.25857(9) -0.25857(9) 0.7200(4) 0.0256 Uani
H1 H 0.3871(16) -0.0349(14) 0.889(3) 0.0380 Uiso
H2 H 0.4034(18) 0.0175(17) 0.886(3) 0.0380 Uiso
H3 H 0.4537(16) 0.0605(17) 0.6215(19) 0.0380 Uiso
H4 H 0.1359(17) -0.1793(16) 0.567(3) 0.0380 Uiso
H5 H 0.4446(17) 0.0778(17) 0.709(3) 0.0380 Uiso
O1U O 0.26133(9) -0.16188(8) 0.41776(15) 0.0195 Uani
O3U O 0.28921(8) -0.13862(8) 0.25134(16) 0.0211 Uani
C3U C 0.26415(11) -0.17420(12) 0.3198(2) 0.0153 Uani
O2U O 0.15979(8) -0.26190(8) 0.63342(15) 0.0180 Uani
O6U O 0.13050(8) -0.27624(9) 0.79942(15) 0.0204 Uani
C6U C 0.16901(11) -0.25777(11) 0.7336(2) 0.0148 Uani
H4U H 0.1793(16) -0.1359(17) 0.567(3) 0.0380 Uiso
O4K O 0.29101(9) -0.05466(13) 0.45611(16) 0.0175 Uani
O5K O 0.22347(8) -0.06021(12) 0.65378(16) 0.0179 Uani
H1K H 0.2796(16) -0.0887(21) 0.444(3) 0.0380 Uiso
H2K H 0.2633(18) -0.0526(25) 0.447(3) 0.0380 Uiso
H3K H 0.2130(16) -0.0599(23) 0.7118(19) 0.0380 Uiso
H5K H 0.2221(17) -0.0335(24) 0.624(3) 0.0380 Uiso
Ba1D Ba 0.371581(7) 0.038281(7) 0.3333 0.0119 Uani
Ba1H Ba 0.295086(7) 0.0000 1.0000 0.0119 Uani
Ba1U Ba 0.038281(7) -0.3333 0.6667 0.0119 Uani
O2K O 0.40477(8) -0.08836(11) 0.69991(15) 0.0180 Uani
O4M O 0.34566(9) 0.05466(13) 0.54389(16) 0.0175 Uani
O4O O 0.32100(9) 0.04233(9) 0.78945(16) 0.0175 Uani
O6K O 0.39043(9) -0.07341(12) 0.53391(15) 0.0204 Uani
loop_
_atom_site_aniso_label
_atom_site_aniso_U_11
_atom_site_aniso_U_22
_atom_site_aniso_U_33
_atom_site_aniso_U_23
_atom_site_aniso_U_13
_atom_site_aniso_U_12
Ba1 0.01283(14) 0.01265(12) 0.01030(15) -0.00004(4) -0.00008(7) 0.00642(7)
Cu1 0.01421(19) 0.01421(19) 0.0088(2) -0.00066(9) 0.00066(9) 0.00328(19)
C1 0.0217(15) 0.0217(15) 0.017(2) -0.0038(8) 0.0038(8) 0.0089(18)
O1 0.0152(10) 0.0219(11) 0.0122(9) -0.0035(8) 0.0022(8) 0.0024(8)
O2 0.0178(10) 0.0164(10) 0.0109(9) 0.0007(7) -0.0013(8) 0.0019(8)
O3 0.0161(10) 0.0232(11) 0.0146(10) -0.0055(8) -0.0022(8) 0.0027(9)
C2 0.0155(14) 0.0155(14) 0.0134(19) -0.0020(7) 0.0020(7) 0.0070(15)
C3 0.0176(14) 0.0136(13) 0.0126(13) 0.0012(10) 0.0025(10) 0.0062(11)
C4 0.0279(18) 0.0279(18) 0.023(2) 0.0013(8) -0.0013(8) 0.018(2)
O4 0.0180(10) 0.0221(11) 0.0157(10) 0.0005(8) -0.0004(8) 0.0124(9)
O5 0.0186(10) 0.0183(10) 0.0152(10) 0.0014(8) 0.0024(8) 0.0081(9)
O6 0.0266(11) 0.0146(10) 0.0117(9) -0.0012(8) -0.0005(8) 0.0041(9)
O7 0.0200(11) 0.0200(11) 0.0302(17) -0.0021(6) 0.0021(6) 0.0088(13)
C5 0.0157(14) 0.0157(14) 0.0116(18) 0.0007(7) -0.0007(7) 0.0065(16)
C6 0.0119(12) 0.0157(13) 0.0140(13) 0.0019(10) 0.0001(10) 0.0047(11)
C7 0.0197(15) 0.0197(15) 0.015(2) 0.0024(8) -0.0024(8) 0.0074(17)
C8 0.0276(17) 0.0276(17) 0.026(2) -0.0017(9) 0.0017(9) 0.017(2)
O1U 0.0219 0.0152 0.0122 -0.0022 0.0035 0.0024
O3U 0.0232 0.0161 0.0146 0.0022 0.0055 0.0027
C3U 0.0136 0.0176 0.0126 -0.0025 -0.0012 0.0062
O2U 0.0164 0.0178 0.0109 0.0013 -0.0007 0.0019
O6U 0.0146 0.0266 0.0117 0.0005 0.0012 0.0041
C6U 0.0157 0.0119 0.014 -0.0001 -0.0019 0.0047
O4K 0.018 0.0153 0.0157 -0.0009 -0.0004 0.0056
O5K 0.0186 0.0207 0.0152 0.001 0.0024 0.0105
Ba1D 0.01264 0.01265 0.0103 -4e-05 4e-05 0.00623
Ba1H 0.01264 0.01283 0.0103 8e-05 4e-05 0.00641
Ba1U 0.01265 0.01283 0.0103 8e-05 4e-05 0.00642
O2K 0.0178 0.0304 0.0109 -0.002 -0.0013 0.0159
O4M 0.0221 0.0153 0.0157 -0.0009 -0.0005 0.0097
O4O 0.0221 0.018 0.0157 0.0004 -0.0005 0.0124
O6K 0.0266 0.033 0.0117 0.0007 -0.0005 0.0225
loop_
_geom_bond_atom_site_label_1
_geom_bond_atom_site_label_2
_geom_bond_site_symmetry_1
_geom_bond_site_symmetry_2
Ba1 O2 1_555 1_555
Cu1 O1 1_555 1_555
C1 C2 1_555 1_555
O1 C3 1_555 1_555
O2 Cu1 1_555 1_555
O3 C3 1_555 1_555
C2 C3 1_555 1_555
C4 C2 1_555 1_555
O4 Ba1 1_555 1_555
O5 Ba1 1_555 1_555
O6 Ba1 1_555 1_555
O7 Cu1 1_555 1_555
C5 C6 1_555 1_555
C6 O2 1_555 1_555
C7 C5 1_555 1_555
C8 C5 1_555 1_555
H1 O4 1_555 1_555
H2 O4 1_555 1_555
H3 O5 1_555 1_555
H4 O7 1_555 1_555
H5 O5 1_555 1_555
O1U Cu1 1_555 1_555
O3U C3U 1_555 1_555
C3U C2 1_555 1_555
O2U Cu1 1_555 1_555
O6U C6U 1_555 1_555
C6U C5 1_555 1_555
H4U O7 1_555 1_555
O4K Ba1 1_555 1_555
O5K Ba1 1_555 1_555
H1K O4K 1_555 1_555
H2K O4K 1_555 1_555
H3K O5K 1_555 1_555
H5K O5K 1_555 1_555
Ba1D O4K 1_555 1_555
Ba1H O4 1_555 1_555
Ba1U O2U 1_555 1_555
O2K Ba1 1_555 1_555
O4M Ba1 1_555 1_555
O4O Ba1 1_555 1_555
O6K Ba1 1_555 1_555
O6 C6 1_555 1_555
O1U C3U 1_555 1_555
O2U C6U 1_555 1_555
O6U Ba1U 1_555 1_555
Ba1D O4M 1_555 1_555
Ba1H O4O 1_555 1_555

#END
