
#######################################################################
#
#                 Cambridge Crystallographic Data Centre
#                                CCDC 
#
#######################################################################
#
# If this CIF has been generated from an entry in the Cambridge 
# Structural Database, then it will include bibliographic, chemical, 
# crystal, experimental, refinement or atomic coordinate data resulting 
# from the CCDC's data processing and validation procedures.
#
#######################################################################

data_NICJOA
_chemical_formula_moiety         '(C10 H14 Ba1 Cu1 O9)n'
_symmetry_cell_setting           rhombohedral
_symmetry_space_group_name_H-M   'R -3'
_symmetry_Int_Tables_number      148
_space_group_name_Hall           '-R 3'
loop_
_symmetry_equiv_pos_site_id
_symmetry_equiv_pos_as_xyz
1 x,y,z
2 -y,x-y,z
3 -x+y,-x,z
4 2/3+x,1/3+y,1/3+z
5 2/3-y,1/3+x-y,1/3+z
6 2/3-x+y,1/3-x,1/3+z
7 1/3+x,2/3+y,2/3+z
8 1/3-y,2/3+x-y,2/3+z
9 1/3-x+y,2/3-x,2/3+z
10 -x,-y,-z
11 y,-x+y,-z
12 x-y,x,-z
13 1/3-x,2/3-y,2/3-z
14 1/3+y,2/3-x+y,2/3-z
15 1/3+x-y,2/3+x,2/3-z
16 2/3-x,1/3-y,1/3-z
17 2/3+y,1/3-x+y,1/3-z
18 2/3+x-y,1/3+x,1/3-z
_cell_length_a                   24.943(6)
_cell_length_b                   24.943(6)
_cell_length_c                   12.888(6)
_cell_angle_alpha                90
_cell_angle_beta                 90
_cell_angle_gamma                120
_cell_volume                     6944.06
loop_
_atom_site_label
_atom_site_type_symbol
_atom_site_fract_x
_atom_site_fract_y
_atom_site_fract_z
_atom_site_U_iso_or_equiv
_atom_site_thermal_displace_type
Ba1 Ba 0.655918(16) -0.358888(16) -0.35397(3) 0.0164 Uani
O1 O 0.6158(2) -0.3273(2) -0.5289(4) 0.0214 Uani
O2 O 0.6333(2) -0.1501(2) -0.2521(3) 0.0233 Uani
O3 O 0.5791(2) -0.1704(2) -0.1073(4) 0.0331 Uani
O4 O 0.7083(2) -0.0915(2) -0.4092(4) 0.0253 Uani
O5 O 0.6742(2) -0.2041(2) -0.4990(3) 0.0237 Uani
O6 O 0.6307(2) -0.2592(2) -0.3214(3) 0.0247 Uani
C1 C 0.7306(3) -0.0730(3) -0.5008(5) 0.0214 Uani
C2 C 0.5922(3) -0.2833(3) -0.2464(5) 0.0224 Uani
C3 C 0.8103(3) -0.1042(3) -0.4832(5) 0.0266 Uani
H1 H 0.7919 -0.1235 -0.4165 0.0400 Uiso
H2 H 0.8426 -0.0611 -0.4717 0.0400 Uiso
H3 H 0.8285 -0.1268 -0.5160 0.0400 Uiso
C4 C 0.7600(3) -0.1060(3) -0.5542(5) 0.0197 Uani
C5 C 0.7137(3) -0.1752(3) -0.5715(5) 0.0206 Uani
C6 C 0.7888(3) -0.0753(3) -0.6574(5) 0.0272 Uani
H4 H 0.8186 -0.0313 -0.6460 0.0400 Uiso
H5 H 0.7562 -0.0792 -0.7047 0.0400 Uiso
H6 H 0.8101 -0.0955 -0.6880 0.0400 Uiso
C7 C 0.5514(3) -0.2553(3) -0.2202(5) 0.0234 Uani
C8 C 0.5906(3) -0.1878(3) -0.1895(5) 0.0220 Uani
C9 C 0.5157(4) -0.2581(4) -0.3194(7) 0.0406 Uani
H7 H 0.4900 -0.3013 -0.3412 0.0610 Uiso
H8 H 0.5451 -0.2345 -0.3746 0.0610 Uiso
H9 H 0.4892 -0.2402 -0.3054 0.0610 Uiso
C10 C 0.5066(4) -0.2922(3) -0.1334(7) 0.0373 Uani
H10 H 0.5300 -0.2903 -0.0712 0.0570 Uiso
H11 H 0.4809 -0.3354 -0.1552 0.0570 Uiso
H12 H 0.4801 -0.2746 -0.1181 0.0570 Uiso
Cu1 Cu 0.66527(4) -0.17587(4) -0.36681(6) 0.0213 Uani
O7 O 0.7158(2) -0.2011(2) -0.6498(3) 0.0258 Uani
O8 O 0.7296(2) -0.02898(19) -0.5406(4) 0.0220 Uani
O9 O 0.5857(2) -0.3293(2) -0.1993(4) 0.0227 Uani
H13 H 0.5808(18) -0.348(3) -0.554(6) 0.0340 Uiso
H14 H 0.623(3) -0.2909(13) -0.531(6) 0.0340 Uiso
Ba1E Ba 0.651861(23) -0.322585(16) -0.02064(3) 0.0164 Uani
Ba1G Ba 0.692221(16) -0.318527(23) -0.68730(3) 0.0164 Uani
Ba1J Ba 0.641112(16) -0.014806(23) -0.64603(3) 0.0164 Uani
Ba1Q Ba 0.681473(23) -0.010749(16) -0.31270(3) 0.0164 Uani
O1E O 0.7236(3) -0.2825(2) -0.1956(4) 0.0214 Uani
O2P O 0.5166(2) -0.4501(3) -0.4146(3) 0.0233 Uani
O3L O 0.7542(2) -0.1629(2) -0.2260(4) 0.0331 Uani
O4P O 0.5752(2) -0.4665(3) -0.2575(4) 0.0253 Uani
Cu1L Cu 0.66806(4) -0.15746(4) 0.03348(6) 0.0213 Uani
O7E O 0.7498(3) -0.3825(2) -0.3165(3) 0.0258 Uani
O8K O 0.75858(28) -0.2704(2) -0.4594(4) 0.0220 Uani
O9G O 0.6626(2) -0.4183(3) -0.5326(4) 0.0227 Uani
loop_
_atom_site_aniso_label
_atom_site_aniso_U_11
_atom_site_aniso_U_22
_atom_site_aniso_U_33
_atom_site_aniso_U_23
_atom_site_aniso_U_13
_atom_site_aniso_U_12
Ba1 0.0156(3) 0.0150(3) 0.0187(3) 0.00053(13) 0.00084(13) 0.00773(17)
O1 0.020(2) 0.015(2) 0.031(3) 0.000(2) 0.000(2) 0.010(2)
O2 0.028(3) 0.020(2) 0.022(2) 0.0005(19) 0.010(2) 0.012(2)
O3 0.038(3) 0.020(3) 0.038(3) 0.000(2) 0.019(2) 0.012(2)
O4 0.032(3) 0.020(2) 0.024(3) 0.0041(19) 0.006(2) 0.013(2)
O5 0.027(3) 0.017(2) 0.023(2) -0.0007(18) 0.006(2) 0.008(2)
O6 0.031(3) 0.021(2) 0.026(3) 0.0015(19) 0.002(2) 0.016(2)
C1 0.014(3) 0.015(3) 0.035(4) -0.001(3) 0.000(3) 0.007(3)
C2 0.020(3) 0.027(4) 0.022(3) -0.007(3) -0.006(3) 0.013(3)
C3 0.025(4) 0.029(4) 0.029(4) -0.001(3) -0.003(3) 0.016(3)
C4 0.018(3) 0.019(3) 0.027(3) -0.004(3) 0.002(3) 0.013(3)
C5 0.021(3) 0.019(3) 0.027(4) 0.001(3) -0.001(3) 0.014(3)
C6 0.028(4) 0.022(4) 0.031(4) 0.003(3) 0.004(3) 0.012(3)
C7 0.025(4) 0.023(4) 0.029(4) -0.003(3) -0.004(3) 0.017(3)
C8 0.025(4) 0.017(3) 0.030(4) 0.002(3) -0.002(3) 0.015(3)
C9 0.032(4) 0.025(4) 0.067(6) -0.013(4) -0.017(4) 0.016(4)
C10 0.028(4) 0.019(4) 0.060(5) 0.001(3) 0.021(4) 0.008(3)
Cu1 0.0265(5) 0.0158(4) 0.0229(5) -0.0001(3) 0.0041(3) 0.0116(4)
O7 0.031(3) 0.015(2) 0.028(3) -0.0035(19) 0.007(2) 0.009(2)
O8 0.022(2) 0.014(2) 0.034(3) 0.0020(19) -0.0009(19) 0.012(2)
O9 0.026(3) 0.019(2) 0.024(2) 0.0046(19) 0.0014(19) 0.012(2)
Ba1E 0.01514 0.0156 0.0187 -0.00084 -0.00031 0.00787
Ba1G 0.015 0.01514 0.0187 0.00031 -0.00053 0.00727
Ba1J 0.015 0.01514 0.0187 0.00031 -0.00053 0.00727
Ba1Q 0.01514 0.0156 0.0187 -0.00084 -0.00031 0.00787
O1E 0.015 0.02 0.031 0 0 0.01
O2P 0.02 0.024 0.022 0.0095 -0.0005 0.008
O3L 0.038 0.02 0.038 0 0.019 0.012
O4P 0.02 0.026 0.024 0.0019 -0.0041 0.007
Cu1L 0.0265 0.0158 0.0229 -0.0001 0.0041 0.0116
O7E 0.028 0.031 0.028 -0.007 -0.0105 0.022
O8K 0.012 0.022 0.034 0.0009 0.0029 0.01
O9G 0.019 0.021 0.024 -0.0032 -0.0046 0.007
loop_
_geom_bond_atom_site_label_1
_geom_bond_atom_site_label_2
_geom_bond_site_symmetry_1
_geom_bond_site_symmetry_2
Ba1 O1 1_555 1_555
O1 H13 1_555 1_555
O2 C8 1_555 1_555
O3 C8 1_555 1_555
O4 C1 1_555 1_555
O5 C5 1_555 1_555
O6 Ba1 1_555 1_555
C1 C4 1_555 1_555
C2 O6 1_555 1_555
C3 H1 1_555 1_555
H2 C3 1_555 1_555
H3 C3 1_555 1_555
C4 C3 1_555 1_555
C5 C4 1_555 1_555
C6 C4 1_555 1_555
H4 C6 1_555 1_555
H5 C6 1_555 1_555
H6 C6 1_555 1_555
C7 C2 1_555 1_555
C8 C7 1_555 1_555
C9 C7 1_555 1_555
H7 C9 1_555 1_555
H8 C9 1_555 1_555
H9 C9 1_555 1_555
C10 C7 1_555 1_555
H10 C10 1_555 1_555
H11 C10 1_555 1_555
H12 C10 1_555 1_555
Cu1 O2 1_555 1_555
O7 C5 1_555 1_555
O8 C1 1_555 1_555
O9 Ba1 1_555 1_555
H14 O1 1_555 1_555
Ba1E O9 1_555 1_555
Ba1G O1 1_555 1_555
Ba1J O8 1_555 1_555
Ba1Q O2 1_555 1_555
O1E Ba1 1_555 1_555
O2P Ba1 1_555 1_555
O3L Cu1 1_555 1_555
O4P Ba1 1_555 1_555
Cu1L O3 1_555 1_555
O7E Ba1 1_555 1_555
O8K Ba1 1_555 1_555
O9G Ba1 1_555 1_555
O4 Cu1 1_555 1_555
O4 Ba1Q 1_555 1_555
O5 Cu1 1_555 1_555
O6 Cu1 1_555 1_555
C2 O9 1_555 1_555
O7 Ba1G 1_555 1_555
Ba1E O1E 1_555 1_555
Ba1G O9G 1_555 1_555

#END
