
#######################################################################
#
#                 Cambridge Crystallographic Data Centre
#                                CCDC 
#
#######################################################################
#
# If this CIF has been generated from an entry in the Cambridge 
# Structural Database, then it will include bibliographic, chemical, 
# crystal, experimental, refinement or atomic coordinate data resulting 
# from the CCDC's data processing and validation procedures.
#
#######################################################################

data_ARUYUH01
_chemical_formula_moiety         '(C3 H14 N1 O12 P4 Zn3 1-)n'
_symmetry_cell_setting           orthorhombic
_symmetry_space_group_name_H-M   'P c c n'
_symmetry_Int_Tables_number      56
_space_group_name_Hall           '-P 2ab 2ac'
loop_
_symmetry_equiv_pos_site_id
_symmetry_equiv_pos_as_xyz
1 x,y,z
2 1/2-x,1/2-y,z
3 -x,1/2+y,1/2-z
4 1/2+x,-y,1/2-z
5 -x,-y,-z
6 1/2+x,1/2+y,-z
7 x,1/2-y,1/2+z
8 1/2-x,y,1/2+z
_cell_length_a                   9.8190(6)
_cell_length_b                   23.3265(14)
_cell_length_c                   8.9342(6)
_cell_angle_alpha                90
_cell_angle_beta                 90
_cell_angle_gamma                90
_cell_volume                     2046.32
loop_
_atom_site_label
_atom_site_type_symbol
_atom_site_fract_x
_atom_site_fract_y
_atom_site_fract_z
_atom_site_U_iso_or_equiv
_atom_site_thermal_displace_type
Zn1 Zn 0.55949(8) 0.04696(3) -0.28111(9) 0.0247 Uani
Zn2 Zn 0.7500 0.2500 0.01825(12) 0.0254 Uani
P1 P 0.5751(2) 0.18428(8) -0.2365(2) 0.0254 Uani
H1 H 0.4948 0.2026 -0.2807 0.0300 Uiso
P2 P 0.28745(18) 0.00285(8) -0.4373(2) 0.0241 Uani
H2 H 0.2915 0.0386 -0.4948 0.0290 Uiso
O1 O 0.5345(6) 0.1229(2) -0.2035(6) 0.0467 Uani
O2 O 0.3872(5) 0.0087(3) -0.3090(6) 0.0440 Uani
O3 O 0.3259(5) -0.0451(2) -0.5427(5) 0.0327 Uani
O4 O 0.1423(5) -0.0036(2) -0.3821(5) 0.0323 Uani
O5 O 0.6038(5) 0.2158(2) -0.0931(6) 0.0410 Uani
O6 O 0.6865(6) 0.1877(2) -0.3534(6) 0.0383 Uani
Zn1A Zn 0.94051(8) 0.45304(3) -0.28111(9) 0.0247 Uani
Zn1D Zn 0.44051(8) -0.04696(3) -0.71889(9) 0.0247 Uani
Zn1C Zn 0.05949(8) -0.04696(3) -0.21889(9) 0.0247 Uani
Zn1G Zn 0.94051(8) 0.04696(3) -0.78111(9) 0.0247 Uani
Zn2F Zn 0.7500 0.2500 -0.48175(12) 0.0254 Uani
P1A P 0.9249(2) 0.31572(8) -0.2365(2) 0.0254 Uani
H1A H 1.0052 0.2974 -0.2807 0.0300 Uiso
P2D P 0.71255(18) -0.00285(8) -0.5627(2) 0.0241 Uani
H2D H 0.7085 -0.0386 -0.5052 0.0290 Uiso
O1A O 0.9655(6) 0.3771(2) -0.2035(6) 0.0467 Uani
O2D O 0.6128(5) -0.0087(3) -0.6910(6) 0.0440 Uani
O2A O 1.1128(5) 0.4913(3) -0.3090(6) 0.0440 Uani
O3D O 0.6741(5) 0.0451(2) -0.4573(5) 0.0327 Uani
O3E O 0.8259(5) 0.4549(2) -0.4573(5) 0.0327 Uani
O4D O 0.8577(5) 0.0036(2) -0.6179(5) 0.0323 Uani
O4C O 0.6423(5) 0.0036(2) -0.1179(5) 0.0323 Uani
O4B O 0.8577(5) 0.4964(2) -0.1179(5) 0.0323 Uani
O5A O 0.8962(5) 0.2842(2) -0.0931(6) 0.0410 Uani
O6A O 0.8135(6) 0.3123(2) -0.3534(6) 0.0383 Uani
O6F O 0.6865(6) 0.3123(2) 0.1466(6) 0.0383 Uani
O6G O 0.8135(6) 0.1877(2) 0.1466(6) 0.0383 Uani
N1 N 0.9289(7) 0.1000(3) -0.3845(7) 0.0413 Uani
C1 C 1.1647(10) 0.1769(4) -0.1047(11) 0.0570 Uani
C2 C 1.104(2) 0.1447(7) -0.268(2) 0.1857 Uani
C3 C 0.9958(19) 0.1348(6) -0.226(2) 0.1613 Uani
loop_
_atom_site_aniso_label
_atom_site_aniso_U_11
_atom_site_aniso_U_22
_atom_site_aniso_U_33
_atom_site_aniso_U_23
_atom_site_aniso_U_13
_atom_site_aniso_U_12
Zn1 0.0227 0.0281 0.0232 -0.0051 -0.0003 -0.0039
Zn2 0.0351(7) 0.0237(6) 0.0173(6) 0.000 0.000 -0.0023(5)
P1 0.0316 0.0217 0.023 0.0004 -0.0051 0.0012
P2 0.0233 0.026 0.0231 0.002 0.0021 -0.0046
O1 0.071 0.026 0.043 -0.004 0.022 -0.01
O2 0.03 0.067 0.035 -0.006 -0.007 -0.021
O3 0.036 0.034 0.028 -0.007 0.008 -0.001
O4 0.023 0.047 0.027 0.004 0.002 -0.005
O5 0.041 0.048 0.034 -0.012 -0.004 -0.007
O6 0.056 0.028 0.031 0.006 0.01 0
Zn1A 0.0227 0.0281 0.0232 0.0051 0.0003 -0.0039
Zn1D 0.0227 0.0281 0.0232 -0.0051 -0.0003 -0.0039
Zn1C 0.0227 0.0281 0.0232 -0.0051 0.0003 0.0039
Zn1G 0.0227 0.0281 0.0232 -0.0051 0.0003 0.0039
Zn2F 0.0351 0.0237 0.0173 0 0 0.0023
P1A 0.0316 0.0217 0.023 -0.0004 0.0051 0.0012
P2D 0.0233 0.026 0.0231 0.002 0.0021 -0.0046
O1A 0.071 0.026 0.043 0.004 -0.022 -0.01
O2D 0.03 0.067 0.035 -0.006 -0.007 -0.021
O2A 0.03 0.067 0.035 0.006 0.007 -0.021
O3D 0.036 0.034 0.028 -0.007 0.008 -0.001
O3E 0.036 0.034 0.028 0.007 -0.008 -0.001
O4D 0.023 0.047 0.027 0.004 0.002 -0.005
O4C 0.023 0.047 0.027 0.004 -0.002 0.005
O4B 0.023 0.047 0.027 -0.004 0.002 0.005
O5A 0.041 0.048 0.034 0.012 0.004 -0.007
O6A 0.056 0.028 0.031 -0.006 -0.01 0
O6F 0.056(4) 0.028(3) 0.031(3) -0.006(2) 0.010(3) 0.000(3)
O6G 0.056 0.028 0.031 0.006 -0.01 0
N1 0.058(5) 0.037(4) 0.029(4) -0.006(3) -0.011(3) -0.013(4)
C1 0.055(6) 0.059(6) 0.057(6) -0.019(5) -0.022(5) 0.002(5)
C2 0.22(2) 0.097(12) 0.24(2) 0.076(14) 0.20(2) 0.077(13)
C3 0.135(14) 0.079(10) 0.27(3) 0.088(13) 0.130(17) 0.067(10)
loop_
_geom_bond_atom_site_label_1
_geom_bond_atom_site_label_2
_geom_bond_site_symmetry_1
_geom_bond_site_symmetry_2
Zn1 O1 1_555 1_555
Zn2 O5 1_555 1_555
P1 H1 1_555 1_555
P2 H2 1_555 1_555
O1 P1 1_555 1_555
O2 Zn1 1_555 1_555
O3 P2 1_555 1_555
O4 P2 1_555 1_555
O5 P1 1_555 1_555
O6 P1 1_555 1_555
N1 C3 1_555 1_555
C1 C2 1_555 1_555
C2 C3 1_555 1_555
Zn1A O1A 1_555 1_555
Zn1D O3 1_555 1_555
Zn1C O4 1_555 1_555
Zn1G O4D 1_555 1_555
Zn2F O6 1_555 1_555
P1A H1A 1_555 1_555
P2D H2D 1_555 1_555
O1A P1A 1_555 1_555
O2D Zn1D 1_555 1_555
O2A Zn1A 1_555 1_555
O3D Zn1 1_555 1_555
O3E Zn1A 1_555 1_555
O4D P2D 1_555 1_555
O4C Zn1 1_555 1_555
O4B Zn1A 1_555 1_555
O5A Zn2 1_555 1_555
O6A Zn2F 1_555 1_555
O6F Zn2 1_555 1_555
O6G Zn2 1_555 1_555
P2 O2 1_555 1_555
P1A O5A 1_555 1_555
P1A O6A 1_555 1_555
P2D O2D 1_555 1_555
P2D O3D 1_555 1_555

#END
