
#######################################################################
#
#                 Cambridge Crystallographic Data Centre
#                                CCDC 
#
#######################################################################
#
# If this CIF has been generated from an entry in the Cambridge 
# Structural Database, then it will include bibliographic, chemical, 
# crystal, experimental, refinement or atomic coordinate data resulting 
# from the CCDC's data processing and validation procedures.
#
#######################################################################

data_AKOXIJ
_chemical_formula_moiety         '(C108 H84 N18 Ni9 O42)n'
_symmetry_cell_setting           monoclinic
_symmetry_space_group_name_H-M   'C 2/m'
_symmetry_Int_Tables_number      12
_space_group_name_Hall           '-C 2y'
loop_
_symmetry_equiv_pos_site_id
_symmetry_equiv_pos_as_xyz
1 x,y,z
2 -x,y,-z
3 1/2+x,1/2+y,z
4 1/2-x,1/2+y,-z
5 -x,-y,-z
6 x,-y,z
7 1/2-x,1/2-y,-z
8 1/2+x,1/2-y,z
_cell_length_a                   30.6510(11)
_cell_length_b                   25.1663(11)
_cell_length_c                   12.6824(5)
_cell_angle_alpha                90
_cell_angle_beta                 112.739(3)
_cell_angle_gamma                90
_cell_volume                     9022.48
loop_
_atom_site_label
_atom_site_type_symbol
_atom_site_fract_x
_atom_site_fract_y
_atom_site_fract_z
Ni1 Ni 0.28687(2) 0.5000 0.15615(5)
Ni2 Ni 0.27989(2) 0.5000 0.42880(5)
Ni3 Ni 0.063151(14) 0.254564(16) 0.06267(3)
Ni4 Ni 0.0000 0.5000 -0.5000
O1 O 0.32407(8) 0.5000 0.33474(19)
O2 O 0.0000 0.21114(10) 0.0000
O3 O 0.25299(10) 0.5000 -0.0208(2)
O4 O 0.24169(7) 0.44197(8) 0.15654(16)
O5 O 0.24036(7) 0.44020(9) 0.33117(17)
O6 O 0.07431(9) 0.5000 0.5514(2)
O7 O 0.12597(18) 0.5000 0.7255(4)
O8 O 0.03920(6) 0.30792(8) -0.06788(16)
O9 O -0.03854(6) 0.29767(8) -0.16408(15)
N1 N 0.12407(7) 0.30097(9) 0.12473(18)
N2 N 0.22987(12) 0.5000 0.5060(3)
C1 C 0.00062(9) 0.31805(10) -0.1463(2)
C2 C 0.22831(9) 0.42465(11) 0.2312(2)
C3 C 0.19288(9) 0.37981(11) 0.1946(2)
C4 C 0.17678(10) 0.35937(12) 0.0852(2)
H1 H 0.1892 0.3721 0.0320
C5 C 0.14290(10) 0.32078(12) 0.0540(2)
H2 H 0.1321 0.3073 -0.0218
C6 C 0.14096(10) 0.31870(13) 0.2313(2)
H3 H 0.1290 0.3039 0.2837
C7 C 0.17517(10) 0.35768(13) 0.2697(2)
H4 H 0.1864 0.3692 0.3470
C8 C 0.11444(19) 0.5000 0.6209(4)
C9 C 0.15582(16) 0.5000 0.5812(4)
C10 C 0.1469(2) 0.5000 0.4683(5)
H5 H 0.1152 0.5000 0.4139
C11 C 0.18408(19) 0.5000 0.4320(5)
H6 H 0.1772 0.5000 0.3523
C12 C 0.2382(2) 0.5000 0.6119(5)
H7 H 0.2701 0.5000 0.6653
C13 C 0.20140(19) 0.5000 0.6525(5)
H8 H 0.2092 0.5000 0.7326
O10 O 0.46734(17) 0.6570(3) 0.1179(6)
O11 O 0.4053(8) 0.7078(11) 0.0198(15)
C14 C 0.4254(2) 0.6689(3) 0.0791(6)
C15 C 0.3930(2) 0.6319(3) 0.1038(5)
C16 C 0.3437(8) 0.6397(11) 0.058(2)
C17 C 0.3160(2) 0.6005(2) 0.0761(5)
N3 N 0.3269(11) 0.5628(13) 0.139(4)
C18 C 0.3799(2) 0.5518(3) 0.1893(5)
C19 C 0.4115(2) 0.5870(3) 0.1750(6)
N4 N 0.00192(7) 0.44054(9) -0.38177(17)
C20 C 0.00095(9) 0.36097(11) -0.2295(2)
C21 C 0.0374(2) 0.3970(3) -0.2005(5)
C22 C 0.0367(2) 0.4368(3) -0.2783(4)
O12 O 0.36847(15) 0.41962(16) 0.4539(3)
O13 O 0.3161(4) 0.4401(8) 0.5342(19)
C23 C 0.34916(19) 0.4140(2) 0.5245(4)
C24 C 0.3691(2) 0.3708(2) 0.6164(5)
C25 C 0.4122(2) 0.3470(2) 0.6356(5)
C26 C 0.43026(19) 0.3103(2) 0.7229(5)
N5 N 0.4094(8) 0.2921(9) 0.7929(19)
C27 C 0.36580(19) 0.3209(2) 0.7725(5)
C28 C 0.3408(5) 0.3644(7) 0.6525(12)
C29 C -0.0335(2) 0.4042(2) -0.4099(4)
C30 C -0.0355(2) 0.3648(2) -0.3360(5)
Ni1A Ni -0.28687(2) 0.5000 -1.15615(5)
Ni2A Ni -0.27989(2) 0.5000 -1.42880(5)
Ni3A Ni -0.063151(14) 0.254564(16) -1.06267(3)
O1A O -0.32407(8) 0.5000 -1.33474(19)
O3A O -0.25299(10) 0.5000 -0.9792(2)
O4A O -0.24169(7) 0.44197(8) -1.15654(16)
O5A O -0.24036(7) 0.44020(9) -1.33117(17)
O6A O -0.07431(9) 0.5000 -1.5514(2)
O7A O -0.12597(18) 0.5000 -1.7255(4)
O8A O -0.03920(6) 0.30792(8) -0.93212(16)
O9A O 0.03854(6) 0.29767(8) -0.83592(15)
N1A N -0.12407(7) 0.30097(9) -1.12473(18)
N2A N -0.22987(12) 0.5000 -1.5060(3)
C1A C -0.00062(9) 0.31805(10) -0.8537(2)
C2A C -0.22831(9) 0.42465(11) -1.2312(2)
C3A C -0.19288(9) 0.37981(11) -1.1946(2)
C4A C -0.17678(10) 0.35937(12) -1.0852(2)
H1A H -0.1892 0.3721 -1.0320
C5A C -0.14290(10) 0.32078(12) -1.0540(2)
H2A H -0.1321 0.3073 -0.9782
C6A C -0.14096(10) 0.31870(13) -1.2313(2)
H3A H -0.1290 0.3039 -1.2837
C7A C -0.17517(10) 0.35768(13) -1.2697(2)
H4A H -0.1864 0.3692 -1.3470
C8A C -0.11444(19) 0.5000 -1.6209(4)
C9A C -0.15582(16) 0.5000 -1.5812(4)
C10A C -0.1469(2) 0.5000 -1.4683(5)
H5A H -0.1152 0.5000 -1.4139
C11A C -0.18408(19) 0.5000 -1.4320(5)
H6A H -0.1772 0.5000 -1.3523
C12A C -0.2382(2) 0.5000 -1.6119(5)
H7A H -0.2701 0.5000 -1.6653
C13A C -0.20140(19) 0.5000 -1.6525(5)
H8A H -0.2092 0.5000 -1.7326
O10A O -0.46734(17) 0.6570(3) -1.1179(6)
O11A O -0.4053(8) 0.7078(11) -1.0198(15)
C14A C -0.4254(2) 0.6689(3) -1.0791(6)
C15A C -0.3930(2) 0.6319(3) -1.1038(5)
C16A C -0.3437(8) 0.6397(11) -1.058(2)
C17A C -0.3160(2) 0.6005(2) -1.0761(5)
N3A N -0.3269(11) 0.5628(13) -1.139(4)
C18A C -0.3799(2) 0.5518(3) -1.1893(5)
C19A C -0.4115(2) 0.5870(3) -1.1750(6)
N4A N -0.00192(7) 0.44054(9) -0.61823(17)
C20A C -0.00095(9) 0.36097(11) -0.7705(2)
C21A C -0.0374(2) 0.3970(3) -0.7995(5)
C22A C -0.0367(2) 0.4368(3) -0.7217(4)
O12A O -0.36847(15) 0.41962(16) -1.4539(3)
O13A O -0.3161(4) 0.4401(8) -1.5342(19)
C23A C -0.34916(19) 0.4140(2) -1.5245(4)
C24A C -0.3691(2) 0.3708(2) -1.6164(5)
C25A C -0.4122(2) 0.3470(2) -1.6356(5)
C26A C -0.43026(19) 0.3103(2) -1.7229(5)
N5A N -0.4094(8) 0.2921(9) -1.7929(19)
C27A C -0.36580(19) 0.3209(2) -1.7725(5)
C28A C -0.3408(5) 0.3644(7) -1.6525(12)
C29A C 0.0335(2) 0.4042(2) -0.5901(4)
C30A C 0.0355(2) 0.3648(2) -0.6640(5)
Ni3D Ni -0.063151(14) 0.745436(16) -1.06267(3)
O4D O -0.24169(7) 0.55803(8) -1.15654(16)
O5D O -0.24036(7) 0.55980(9) -1.33117(17)
O8D O -0.03920(6) 0.69208(8) -0.93212(16)
O9D O 0.03854(6) 0.70233(8) -0.83592(15)
N1D N -0.12407(7) 0.69903(9) -1.12473(18)
C1D C -0.00062(9) 0.68195(10) -0.8537(2)
C2D C -0.22831(9) 0.57535(11) -1.2312(2)
C3D C -0.19288(9) 0.62019(11) -1.1946(2)
C4D C -0.17678(10) 0.64063(12) -1.0852(2)
H1D H -0.1892 0.6279 -1.0320
C5D C -0.14290(10) 0.67922(12) -1.0540(2)
H2D H -0.1321 0.6927 -0.9782
C6D C -0.14096(10) 0.68130(13) -1.2313(2)
H3D H -0.1290 0.6961 -1.2837
C7D C -0.17517(10) 0.64232(13) -1.2697(2)
H4D H -0.1864 0.6308 -1.3470
O10D O -0.46734(17) 0.3430(3) -1.1179(6)
O11D O -0.4053(8) 0.2922(11) -1.0198(15)
C14D C -0.4254(2) 0.3311(3) -1.0791(6)
C15D C -0.3930(2) 0.3681(3) -1.1038(5)
C16D C -0.3437(8) 0.3603(11) -1.058(2)
C17D C -0.3160(2) 0.3995(2) -1.0761(5)
N3D N -0.3269(11) 0.4372(13) -1.139(4)
C18D C -0.3799(2) 0.4482(3) -1.1893(5)
C19D C -0.4115(2) 0.4130(3) -1.1750(6)
N4D N -0.00192(7) 0.55946(9) -0.61823(17)
C20D C -0.00095(9) 0.63903(11) -0.7705(2)
C21D C -0.0374(2) 0.6030(3) -0.7995(5)
C22D C -0.0367(2) 0.5632(3) -0.7217(4)
O12D O -0.36847(15) 0.58038(16) -1.4539(3)
O13D O -0.3161(4) 0.5599(8) -1.5342(19)
C23D C -0.34916(19) 0.5860(2) -1.5245(4)
C24D C -0.3691(2) 0.6292(2) -1.6164(5)
C25D C -0.4122(2) 0.6530(2) -1.6356(5)
C26D C -0.43026(19) 0.6897(2) -1.7229(5)
N5D N -0.4094(8) 0.7079(9) -1.7929(19)
C27D C -0.36580(19) 0.6791(2) -1.7725(5)
C28D C -0.3408(5) 0.6356(7) -1.6525(12)
C29D C 0.0335(2) 0.5958(2) -0.5901(4)
C30D C 0.0355(2) 0.6352(2) -0.6640(5)
Ni3E Ni 0.063151(14) 0.745436(16) 0.06267(3)
O2D O 0.0000 0.78886(10) 0.0000
O4E O 0.24169(7) 0.55803(8) 0.15654(16)
O5E O 0.24036(7) 0.55980(9) 0.33117(17)
O8E O 0.03920(6) 0.69208(8) -0.06788(16)
O9E O -0.03854(6) 0.70233(8) -0.16408(15)
N1E N 0.12407(7) 0.69903(9) 0.12473(18)
C1E C 0.00062(9) 0.68195(10) -0.1463(2)
C2E C 0.22831(9) 0.57535(11) 0.2312(2)
C3E C 0.19288(9) 0.62019(11) 0.1946(2)
C4E C 0.17678(10) 0.64063(12) 0.0852(2)
H1E H 0.1892 0.6279 0.0320
C5E C 0.14290(10) 0.67922(12) 0.0540(2)
H2E H 0.1321 0.6927 -0.0218
C6E C 0.14096(10) 0.68130(13) 0.2313(2)
H3E H 0.1290 0.6961 0.2837
C7E C 0.17517(10) 0.64232(13) 0.2697(2)
H4E H 0.1864 0.6308 0.3470
O10E O 0.46734(17) 0.3430(3) 0.1179(6)
O11E O 0.4053(8) 0.2922(11) 0.0198(15)
C14E C 0.4254(2) 0.3311(3) 0.0791(6)
C15E C 0.3930(2) 0.3681(3) 0.1038(5)
C16E C 0.3437(8) 0.3603(11) 0.058(2)
C17E C 0.3160(2) 0.3995(2) 0.0761(5)
N3E N 0.3269(11) 0.4372(13) 0.139(4)
C18E C 0.3799(2) 0.4482(3) 0.1893(5)
C19E C 0.4115(2) 0.4130(3) 0.1750(6)
N4E N 0.00192(7) 0.55946(9) -0.38177(17)
C20E C 0.00095(9) 0.63903(11) -0.2295(2)
C21E C 0.0374(2) 0.6030(3) -0.2005(5)
C22E C 0.0367(2) 0.5632(3) -0.2783(4)
O12E O 0.36847(15) 0.58038(16) 0.4539(3)
O13E O 0.3161(4) 0.5599(8) 0.5342(19)
C23E C 0.34916(19) 0.5860(2) 0.5245(4)
C24E C 0.3691(2) 0.6292(2) 0.6164(5)
C25E C 0.4122(2) 0.6530(2) 0.6356(5)
C26E C 0.43026(19) 0.6897(2) 0.7229(5)
N5E N 0.4094(8) 0.7079(9) 0.7929(19)
C27E C 0.36580(19) 0.6791(2) 0.7725(5)
C28E C 0.3408(5) 0.6356(7) 0.6525(12)
C29E C -0.0335(2) 0.5958(2) -0.4099(4)
C30E C -0.0355(2) 0.6352(2) -0.3360(5)
Ni3_2 Ni 0.063151(14) 0.254564(16) -0.93733(3)
Ni3A_2 Ni -0.063151(14) 0.254564(16) -0.06267(3)
Ni3B Ni -0.436849(14) 0.754564(16) -1.93733(3)
Ni3B_2 Ni -0.436849(14) 0.754564(16) -0.93733(3)
Ni3C Ni 0.436849(14) 0.754564(16) -0.06267(3)
Ni3C_2 Ni 0.436849(14) 0.754564(16) 0.93733(3)
Ni3D_2 Ni -0.063151(14) 0.745436(16) -0.06267(3)
Ni3E_2 Ni 0.063151(14) 0.745436(16) -0.93733(3)
Ni3F Ni 0.436849(14) 0.245436(16) -0.06267(3)
Ni3F_2 Ni 0.436849(14) 0.245436(16) 0.93733(3)
Ni3G Ni -0.436849(14) 0.245436(16) -1.93733(3)
Ni3G_2 Ni -0.436849(14) 0.245436(16) -0.93733(3)
Ni4_2 Ni 0.0000 0.5000 -1.5000
Ni4_3 Ni 0.0000 0.5000 0.5000
O2_2 O 0.0000 0.21114(10) -1.0000
O2D_2 O 0.0000 0.78886(10) -1.0000
O6_2 O 0.07431(9) 0.5000 -0.4486(2)
O6A_2 O -0.07431(9) 0.5000 -0.5514(2)
O9_2 O -0.03854(6) 0.29767(8) -1.16408(15)
O9A_2 O 0.03854(6) 0.29767(8) 0.16408(15)
O9D_2 O 0.03854(6) 0.70233(8) 0.16408(15)
O9E_2 O -0.03854(6) 0.70233(8) -1.16408(15)
O11B O -0.0947(8) 0.2078(11) -0.9802(15)
O11C O 0.0947(8) 0.2078(11) -0.0198(15)
O11F O 0.0947(8) 0.7922(11) -0.0198(15)
O11G O -0.0947(8) 0.7922(11) -0.9802(15)
N5B N -0.0906(8) 0.7921(9) -1.2071(19)
N5C N 0.0906(8) 0.7921(9) 0.2071(19)
N5F N 0.0906(8) 0.2079(9) 0.2071(19)
N5G N -0.0906(8) 0.2079(9) -1.2071(19)
loop_
_geom_bond_atom_site_label_1
_geom_bond_atom_site_label_2
_geom_bond_site_symmetry_1
_geom_bond_site_symmetry_2
Ni1 O1 1_555 1_555
Ni2 O1 1_555 1_555
Ni3 O2 1_555 1_555
Ni4 N4 1_555 1_555
O2 Ni3A_2 1_555 1_555
O3 Ni1 1_555 1_555
O4 Ni1 1_555 1_555
O5 Ni2 1_555 1_555
O6 C8 1_555 1_555
O7 C8 1_555 1_555
O8 Ni3 1_555 1_555
O9 C1 1_555 1_555
N1 Ni3 1_555 1_555
N2 Ni2 1_555 1_555
C1 O8 1_555 1_555
C2 O4 1_555 1_555
C3 C2 1_555 1_555
C4 C3 1_555 1_555
H1 C4 1_555 1_555
C5 N1 1_555 1_555
H2 C5 1_555 1_555
C6 N1 1_555 1_555
H3 C6 1_555 1_555
C7 C3 1_555 1_555
H4 C7 1_555 1_555
C8 C9 1_555 1_555
C9 C10 1_555 1_555
C10 H5 1_555 1_555
C11 N2 1_555 1_555
H6 C11 1_555 1_555
C12 N2 1_555 1_555
H7 C12 1_555 1_555
C13 C9 1_555 1_555
H8 C13 1_555 1_555
O10 C14 1_555 1_555
O11 C14 1_555 1_555
C14 C15 1_555 1_555
C15 C16 1_555 1_555
C16 C17 1_555 1_555
C17 N3 1_555 1_555
N3 Ni1 1_555 1_555
C18 N3 1_555 1_555
C19 C15 1_555 1_555
N4 C22 1_555 1_555
C20 C1 1_555 1_555
C21 C20 1_555 1_555
C22 C21 1_555 1_555
O12 C23 1_555 1_555
O13 Ni2 1_555 1_555
C23 O13 1_555 1_555
C24 C23 1_555 1_555
C25 C24 1_555 1_555
C26 C25 1_555 1_555
N5 C26 1_555 1_555
C27 N5 1_555 1_555
C28 C24 1_555 1_555
C29 N4 1_555 1_555
C30 C20 1_555 1_555
Ni1A O1A 1_555 1_555
Ni2A O1A 1_555 1_555
Ni3A O8A 1_555 1_555
O3A Ni1A 1_555 1_555
O4A Ni1A 1_555 1_555
O5A Ni2A 1_555 1_555
O6A C8A 1_555 1_555
O7A C8A 1_555 1_555
O8A C1A 1_555 1_555
O9A C1A 1_555 1_555
N1A Ni3A 1_555 1_555
N2A Ni2A 1_555 1_555
C1A C20A 1_555 1_555
C2A O4A 1_555 1_555
C3A C2A 1_555 1_555
C4A C3A 1_555 1_555
H1A C4A 1_555 1_555
C5A N1A 1_555 1_555
H2A C5A 1_555 1_555
C6A N1A 1_555 1_555
H3A C6A 1_555 1_555
C7A C3A 1_555 1_555
H4A C7A 1_555 1_555
C8A C9A 1_555 1_555
C9A C10A 1_555 1_555
C10A H5A 1_555 1_555
C11A N2A 1_555 1_555
H6A C11A 1_555 1_555
C12A N2A 1_555 1_555
H7A C12A 1_555 1_555
C13A C9A 1_555 1_555
H8A C13A 1_555 1_555
O10A C14A 1_555 1_555
O11A C14A 1_555 1_555
C14A C15A 1_555 1_555
C15A C16A 1_555 1_555
C16A C17A 1_555 1_555
C17A N3A 1_555 1_555
N3A Ni1A 1_555 1_555
C18A N3A 1_555 1_555
C19A C15A 1_555 1_555
N4A Ni4 1_555 1_555
C20A C21A 1_555 1_555
C21A C22A 1_555 1_555
C22A N4A 1_555 1_555
O12A C23A 1_555 1_555
O13A Ni2A 1_555 1_555
C23A O13A 1_555 1_555
C24A C23A 1_555 1_555
C25A C24A 1_555 1_555
C26A C25A 1_555 1_555
N5A C26A 1_555 1_555
C27A N5A 1_555 1_555
C28A C24A 1_555 1_555
C29A N4A 1_555 1_555
C30A C20A 1_555 1_555
Ni3D O8D 1_555 1_555
O4D Ni1A 1_555 1_555
O5D Ni2A 1_555 1_555
O8D C1D 1_555 1_555
O9D C1D 1_555 1_555
N1D Ni3D 1_555 1_555
C1D C20D 1_555 1_555
C2D O4D 1_555 1_555
C3D C2D 1_555 1_555
C4D C3D 1_555 1_555
H1D C4D 1_555 1_555
C5D N1D 1_555 1_555
H2D C5D 1_555 1_555
C6D N1D 1_555 1_555
H3D C6D 1_555 1_555
C7D C3D 1_555 1_555
H4D C7D 1_555 1_555
O10D C14D 1_555 1_555
O11D C14D 1_555 1_555
C14D C15D 1_555 1_555
C15D C16D 1_555 1_555
C16D C17D 1_555 1_555
C17D N3D 1_555 1_555
N3D Ni1A 1_555 1_555
C18D N3D 1_555 1_555
C19D C15D 1_555 1_555
N4D Ni4 1_555 1_555
C20D C21D 1_555 1_555
C21D C22D 1_555 1_555
C22D N4D 1_555 1_555
O12D C23D 1_555 1_555
O13D Ni2A 1_555 1_555
C23D O13D 1_555 1_555
C24D C23D 1_555 1_555
C25D C24D 1_555 1_555
C26D C25D 1_555 1_555
N5D C26D 1_555 1_555
C27D N5D 1_555 1_555
C28D C24D 1_555 1_555
C29D N4D 1_555 1_555
C30D C20D 1_555 1_555
Ni3E O2D 1_555 1_555
O2D Ni3D_2 1_555 1_555
O4E Ni1 1_555 1_555
O5E Ni2 1_555 1_555
O8E Ni3E 1_555 1_555
O9E C1E 1_555 1_555
N1E Ni3E 1_555 1_555
C1E O8E 1_555 1_555
C2E O4E 1_555 1_555
C3E C2E 1_555 1_555
C4E C3E 1_555 1_555
H1E C4E 1_555 1_555
C5E N1E 1_555 1_555
H2E C5E 1_555 1_555
C6E N1E 1_555 1_555
H3E C6E 1_555 1_555
C7E C3E 1_555 1_555
H4E C7E 1_555 1_555
O10E C14E 1_555 1_555
O11E C14E 1_555 1_555
C14E C15E 1_555 1_555
C15E C16E 1_555 1_555
C16E C17E 1_555 1_555
C17E N3E 1_555 1_555
N3E Ni1 1_555 1_555
C18E N3E 1_555 1_555
C19E C15E 1_555 1_555
N4E Ni4 1_555 1_555
C20E C1E 1_555 1_555
C21E C20E 1_555 1_555
C22E N4E 1_555 1_555
O12E C23E 1_555 1_555
O13E Ni2 1_555 1_555
C23E O13E 1_555 1_555
C24E C23E 1_555 1_555
C25E C24E 1_555 1_555
C26E C25E 1_555 1_555
N5E C26E 1_555 1_555
C27E N5E 1_555 1_555
C28E C24E 1_555 1_555
C29E N4E 1_555 1_555
C30E C20E 1_555 1_555
Ni3_2 O9A 1_555 1_555
Ni3A_2 O9 1_555 1_555
Ni3B N5D 1_555 1_555
Ni3B_2 O11A 1_555 1_555
Ni3C O11 1_555 1_555
Ni3C_2 N5E 1_555 1_555
Ni3D_2 O9E 1_555 1_555
Ni3E_2 O9D 1_555 1_555
Ni3F O11E 1_555 1_555
Ni3F_2 N5 1_555 1_555
Ni3G N5A 1_555 1_555
Ni3G_2 O11D 1_555 1_555
Ni4_2 O6A 1_555 1_555
Ni4_3 O6 1_555 1_555
O2_2 Ni3A 1_555 1_555
O2D_2 Ni3D 1_555 1_555
O6_2 Ni4 1_555 1_555
O6A_2 Ni4 1_555 1_555
O9_2 Ni3A 1_555 1_555
O9A_2 Ni3 1_555 1_555
O9D_2 Ni3E 1_555 1_555
O9E_2 Ni3D 1_555 1_555
O11B Ni3A 1_555 1_555
O11C Ni3 1_555 1_555
O11F Ni3E 1_555 1_555
O11G Ni3D 1_555 1_555
N5B Ni3D 1_555 1_555
N5C Ni3E 1_555 1_555
N5F Ni3 1_555 1_555
N5G Ni3A 1_555 1_555
O5 C2 1_555 1_555
C4 C5 1_555 1_555
C6 C7 1_555 1_555
C10 C11 1_555 1_555
C12 C13 1_555 1_555
C18 C19 1_555 1_555
C27 C28 1_555 1_555
C29 C30 1_555 1_555
O5A C2A 1_555 1_555
C4A C5A 1_555 1_555
C6A C7A 1_555 1_555
C10A C11A 1_555 1_555
C12A C13A 1_555 1_555
C18A C19A 1_555 1_555
C27A C28A 1_555 1_555
C29A C30A 1_555 1_555
O5D C2D 1_555 1_555
C4D C5D 1_555 1_555
C6D C7D 1_555 1_555
C18D C19D 1_555 1_555
C27D C28D 1_555 1_555
C29D C30D 1_555 1_555
O5E C2E 1_555 1_555
C4E C5E 1_555 1_555
C6E C7E 1_555 1_555
C18E C19E 1_555 1_555
C21E C22E 1_555 1_555
C27E C28E 1_555 1_555
C29E C30E 1_555 1_555
Ni3_2 O2_2 1_555 1_555
Ni3E_2 O2D_2 1_555 1_555

#END
