
#######################################################################
#
#                 Cambridge Crystallographic Data Centre
#                                CCDC 
#
#######################################################################
#
# If this CIF has been generated from an entry in the Cambridge 
# Structural Database, then it will include bibliographic, chemical, 
# crystal, experimental, refinement or atomic coordinate data resulting 
# from the CCDC's data processing and validation procedures.
#
#######################################################################

data_ABAVIJ
_chemical_formula_moiety         '(C26 H22 Co2 N4 O9)n'
_symmetry_cell_setting           monoclinic
_symmetry_space_group_name_H-M   'C c'
_symmetry_Int_Tables_number      9
_space_group_name_Hall           'C -2yc'
loop_
_symmetry_equiv_pos_site_id
_symmetry_equiv_pos_as_xyz
1 x,y,z
2 x,-y,1/2+z
3 1/2+x,1/2+y,z
4 1/2+x,1/2-y,1/2+z
_cell_length_a                   9.8064(9)
_cell_length_b                   26.165(2)
_cell_length_c                   10.6685(9)
_cell_angle_alpha                90
_cell_angle_beta                 105.267(2)
_cell_angle_gamma                90
_cell_volume                     2640.77
loop_
_atom_site_label
_atom_site_type_symbol
_atom_site_fract_x
_atom_site_fract_y
_atom_site_fract_z
Co1 Co 0.50198(8) 0.12441(3) 0.88012(7)
Co2 Co -0.00092(8) -0.12604(3) 0.38395(7)
N1 N 0.4291(5) 0.05854(17) 0.7647(5)
C1 C 0.2953(5) 0.04348(16) 0.7353(5)
H1 H 0.2299 0.0629 0.7673
C2 C 0.2461(6) 0.00071(17) 0.6602(5)
H2 H 0.1489 -0.0083 0.6398
C3 C 0.3417(6) -0.02885(19) 0.6152(5)
C4 C 0.4820(5) -0.01339(17) 0.6451(5)
H3 H 0.5498 -0.0322 0.6146
C5 C 0.5210(6) 0.03019(16) 0.7206(5)
H4 H 0.6173 0.0404 0.7420
C6 C 0.2921(7) -0.0761(2) 0.5335(5)
O1 O 0.1617(5) -0.08406(15) 0.5032(4)
O2 O 0.3875(4) -0.10340(14) 0.5088(4)
N2 N 0.5675(5) 0.30587(16) 0.4913(5)
C7 C 0.4743(5) 0.27361(17) 0.5210(5)
H5 H 0.3764 0.2811 0.4907
C8 C 0.5150(5) 0.22986(17) 0.5940(5)
H6 H 0.4460 0.2076 0.6119
C9 C 0.6566(6) 0.21895(19) 0.6404(5)
C10 C 0.7555(5) 0.25164(16) 0.6083(5)
H7 H 0.8540 0.2447 0.6369
C11 C 0.7051(5) 0.29449(16) 0.5334(5)
H8 H 0.7715 0.3168 0.5110
C12 C 0.7078(6) 0.1730(2) 0.7261(5)
O3 O 0.6181(5) 0.14293(16) 0.7494(4)
O4 O 0.8398(5) 0.16837(14) 0.7672(4)
N3 N 0.5722(5) 0.19111(17) 0.9993(5)
C13 C 0.6339(6) 0.18715(17) 1.1285(5)
H9 H 0.6480 0.1542 1.1669
C14 C 0.6769(6) 0.22961(17) 1.2062(5)
H10 H 0.7208 0.2256 1.2963
C15 C 0.6557(6) 0.27809(19) 1.1519(5)
C16 C 0.5908(6) 0.28209(17) 1.0220(5)
H11 H 0.5713 0.3148 0.9827
C17 C 0.5539(6) 0.23871(16) 0.9489(5)
H12 H 0.5134 0.2423 0.8581
C18 C 0.7057(6) 0.3253(2) 1.2333(6)
O5 O 0.6178(4) 0.35711(16) 1.2512(4)
O6 O 0.8386(5) 0.32906(15) 1.2730(4)
N4 N 0.9328(5) -0.05781(16) 1.2705(4)
C19 C 0.9633(5) -0.01042(17) 1.3179(5)
H13 H 1.0142 -0.0069 1.4065
C20 C 0.9248(5) 0.03379(16) 1.2448(5)
H14 H 0.9530 0.0663 1.2822
C21 C 0.8444(6) 0.0300(2) 1.1162(5)
C22 C 0.8092(5) -0.01923(16) 1.0665(5)
H15 H 0.7523 -0.0237 0.9802
C23 C 0.8580(6) -0.06132(17) 1.1444(5)
H16 H 0.8380 -0.0944 1.1074
C24 C 0.7954(7) 0.0761(2) 1.0323(6)
O7 O 0.8885(4) 0.10789(15) 1.0223(4)
O8 O 0.6658(5) 0.07824(15) 0.9854(4)
O2A O 0.3875(4) 0.10340(14) 1.0088(4)
O6C O 0.3386(5) 0.17094(15) 0.7730(4)
N2B N 0.0675(5) -0.19413(16) 0.4913(5)
O4A O -0.1602(5) -0.16837(14) 0.2672(4)
O5B O 0.1178(4) -0.14289(16) 0.2512(4)
N4_2 N -0.0672(5) -0.05781(16) 0.2705(4)
O7A O -0.1115(4) -0.10789(15) 0.5223(4)
Co1A Co 0.50198(8) -0.12441(3) 0.38012(7)
Co2B Co 0.49908(8) 0.37396(3) 0.38395(7)
Co2A Co 0.99908(8) 0.12604(3) 0.88395(7)
Co2B_2 Co 0.49908(8) 0.37396(3) 1.38395(7)
Co1C Co 1.00198(8) 0.37559(3) 1.38012(7)
Co2_2 Co 0.99908(8) -0.12604(3) 1.38395(7)
O9 O 0.1163(7) -0.1368(2) 0.7830(6)
H17 H 0.0917 -0.1246 0.7075
C25 C 0.2713(9) -0.1408(3) 0.8252(8)
H18 H 0.2997 -0.1760 0.8552
H19 H 0.3124 -0.1327 0.7522
C26 C 0.3201(11) -0.1059(4) 0.9277(10)
H20 H 0.4237 -0.1060 0.9538
H21 H 0.2844 -0.1158 1.0018
H22 H 0.2861 -0.0715 0.8986
loop_
_geom_bond_atom_site_label_1
_geom_bond_atom_site_label_2
_geom_bond_site_symmetry_1
_geom_bond_site_symmetry_2
Co1 N1 1_555 1_555
Co2 O1 1_555 1_555
N1 C1 1_555 1_555
C1 H1 1_555 1_555
C2 C1 1_555 1_555
H2 C2 1_555 1_555
C3 C2 1_555 1_555
C4 C3 1_555 1_555
H3 C4 1_555 1_555
C5 N1 1_555 1_555
H4 C5 1_555 1_555
C6 C3 1_555 1_555
O1 C6 1_555 1_555
O2 C6 1_555 1_555
N2 C7 1_555 1_555
C7 H5 1_555 1_555
C8 C7 1_555 1_555
H6 C8 1_555 1_555
C9 C8 1_555 1_555
C10 C9 1_555 1_555
H7 C10 1_555 1_555
C11 N2 1_555 1_555
H8 C11 1_555 1_555
C12 C9 1_555 1_555
O3 Co1 1_555 1_555
O4 C12 1_555 1_555
N3 Co1 1_555 1_555
C13 N3 1_555 1_555
H9 C13 1_555 1_555
C14 C13 1_555 1_555
H10 C14 1_555 1_555
C15 C14 1_555 1_555
C16 C15 1_555 1_555
H11 C16 1_555 1_555
C17 N3 1_555 1_555
H12 C17 1_555 1_555
C18 C15 1_555 1_555
O5 C18 1_555 1_555
O6 C18 1_555 1_555
N4 C19 1_555 1_555
C19 H13 1_555 1_555
C20 C19 1_555 1_555
H14 C20 1_555 1_555
C21 C20 1_555 1_555
C22 C21 1_555 1_555
H15 C22 1_555 1_555
C23 N4 1_555 1_555
H16 C23 1_555 1_555
C24 C21 1_555 1_555
O7 C24 1_555 1_555
O8 Co1 1_555 1_555
O9 H17 1_555 1_555
C25 O9 1_555 1_555
H18 C25 1_555 1_555
H19 C25 1_555 1_555
C26 C25 1_555 1_555
H20 C26 1_555 1_555
H21 C26 1_555 1_555
H22 C26 1_555 1_555
O2A Co1 1_555 1_555
O6C Co1 1_555 1_555
N2B Co2 1_555 1_555
O4A Co2 1_555 1_555
O5B Co2 1_555 1_555
N4_2 Co2 1_555 1_555
O7A Co2 1_555 1_555
Co1A O2 1_555 1_555
Co2B N2 1_555 1_555
Co2A O4 1_555 1_555
Co2B_2 O5 1_555 1_555
Co1C O6 1_555 1_555
Co2_2 N4 1_555 1_555
C4 C5 1_555 1_555
C10 C11 1_555 1_555
C12 O3 1_555 1_555
C16 C17 1_555 1_555
C22 C23 1_555 1_555
C24 O8 1_555 1_555
O7 Co2A 1_555 1_555

#END
