
#######################################################################
#
#                 Cambridge Crystallographic Data Centre
#                                CCDC 
#
#######################################################################
#
# If this CIF has been generated from an entry in the Cambridge 
# Structural Database, then it will include bibliographic, chemical, 
# crystal, experimental, refinement or atomic coordinate data resulting 
# from the CCDC's data processing and validation procedures.
#
#######################################################################

data_RIYPAS
_chemical_formula_moiety         'C22 H14 Cu8 N4 O18'
_symmetry_cell_setting           rhombohedral
_symmetry_space_group_name_H-M   'R -3 m'
_symmetry_Int_Tables_number      166
_space_group_name_Hall           '-R 3 2"'
loop_
_symmetry_equiv_pos_site_id
_symmetry_equiv_pos_as_xyz
1 x,y,z
2 -y,x-y,z
3 -x+y,-x,z
4 x-y,-y,-z
5 -x,-x+y,-z
6 y,x,-z
7 2/3+x,1/3+y,1/3+z
8 2/3-y,1/3+x-y,1/3+z
9 2/3-x+y,1/3-x,1/3+z
10 2/3+x-y,1/3-y,1/3-z
11 2/3-x,1/3-x+y,1/3-z
12 2/3+y,1/3+x,1/3-z
13 1/3+x,2/3+y,2/3+z
14 1/3-y,2/3+x-y,2/3+z
15 1/3-x+y,2/3-x,2/3+z
16 1/3+x-y,2/3-y,2/3-z
17 1/3-x,2/3-x+y,2/3-z
18 1/3+y,2/3+x,2/3-z
19 -x,-y,-z
20 y,-x+y,-z
21 x-y,x,-z
22 -x+y,y,z
23 x,x-y,z
24 -y,-x,z
25 1/3-x,2/3-y,2/3-z
26 1/3+y,2/3-x+y,2/3-z
27 1/3+x-y,2/3+x,2/3-z
28 1/3-x+y,2/3+y,2/3+z
29 1/3+x,2/3+x-y,2/3+z
30 1/3-y,2/3-x,2/3+z
31 2/3-x,1/3-y,1/3-z
32 2/3+y,1/3-x+y,1/3-z
33 2/3+x-y,1/3+x,1/3-z
34 2/3-x+y,1/3+y,1/3+z
35 2/3+x,1/3+x-y,1/3+z
36 2/3-y,1/3-x,1/3+z
_cell_length_a                   18.6895(5)
_cell_length_b                   18.6895(5)
_cell_length_c                   37.6886(9)
_cell_angle_alpha                90
_cell_angle_beta                 90
_cell_angle_gamma                120
_cell_volume                     11400.8
loop_
_atom_site_label
_atom_site_type_symbol
_atom_site_fract_x
_atom_site_fract_y
_atom_site_fract_z
O4 O 0.6667 0.3333 0.727(2)
O5 O 0.6667 0.3333 0.596(3)
C1 C 0.5134(4) 0.4866(4) 0.5342(2)
C2 C 0.5275(4) 0.4725(4) 0.5707(3)
C3 C 0.4714(4) 0.4019(4) 0.58834(17)
H1 H 0.4229 0.3641 0.5769
C4 C 0.4859(3) 0.3862(4) 0.62307(15)
C5 C 0.5570(3) 0.4430(3) 0.6403(2)
H2 H 0.5666 0.4334 0.6636
C6 C 0.4273(3) 0.3057(4) 0.64028(14)
C7 C 0.5460(10) 0.5673(5) 0.5226(3)
H3 H 0.5743 0.6115 0.5381
Cu1 Cu 0.37974(5) 0.18987(2) 0.695864(19)
N1 N 0.5799(6) 0.5352(9) 0.5126(3)
O1 O 0.4445(2) 0.2948(3) 0.67133(10)
O2 O 0.3654(2) 0.2558(3) 0.62238(10)
O3 O 0.4403(5) 0.2201(2) 0.74616(18)
C1E C 0.4866(4) 0.5134(4) 0.4658(2)
C2E C 0.4725(4) 0.5275(4) 0.4293(3)
C3E C 0.4019(4) 0.4714(4) 0.41166(17)
H1E H 0.3641 0.4229 0.4231
C4E C 0.3862(4) 0.4859(3) 0.37693(15)
C5E C 0.4430(3) 0.5570(3) 0.3597(2)
H2E H 0.4334 0.5666 0.3364
C6E C 0.3057(4) 0.4273(3) 0.35972(14)
C7E C 0.5673(5) 0.5460(10) 0.4774(3)
H3E H 0.6115 0.5743 0.4619
N1E N 0.5352(9) 0.5799(6) 0.4874(3)
O1E O 0.2948(3) 0.4445(2) 0.32867(10)
O2E O 0.2558(3) 0.3654(2) 0.37762(10)
C3R C 0.5286(4) 0.5981(4) 0.41166(17)
H1R H 0.5771 0.6359 0.4231
C4R C 0.5141(3) 0.6138(4) 0.37693(15)
C6R C 0.5727(3) 0.6943(4) 0.35972(14)
C7R C 0.4540(10) 0.4327(5) 0.4774(3)
H3R H 0.4257 0.3885 0.4619
N1R N 0.4201(6) 0.4648(9) 0.4874(3)
O1R O 0.5555(2) 0.7052(3) 0.32867(10)
O2R O 0.6346(2) 0.7442(3) 0.37762(10)
C3W C 0.5981(4) 0.5286(4) 0.58834(17)
H1W H 0.6359 0.5771 0.5769
C4W C 0.6138(4) 0.5141(3) 0.62307(15)
C6W C 0.6943(4) 0.5727(3) 0.64028(14)
C7W C 0.4327(5) 0.4540(10) 0.5226(3)
H3W H 0.3885 0.4257 0.5381
N1W N 0.4648(9) 0.4201(6) 0.5126(3)
O1W O 0.7052(3) 0.5555(2) 0.67133(10)
O2W O 0.7442(3) 0.6346(2) 0.62238(10)
Cu1J Cu 0.28693(5) 0.14346(5) 0.637469(19)
O3J O 0.2264(5) 0.1131(5) 0.58717(18)
Cu1B Cu 0.81013(5) 0.62026(5) 0.695864(19)
Cu1D Cu 0.62026(5) 0.81013(5) 0.304136(19)
Cu1E Cu 0.18987(2) 0.37974(5) 0.304136(19)
Cu1K Cu 0.85654(2) 0.71307(5) 0.637469(19)
Cu1L Cu 0.71307(5) 0.85654(2) 0.362531(19)
Cu1N Cu 0.14346(5) 0.28693(5) 0.362531(19)
O1J O 0.2222(2) 0.1836(4) 0.66200(10)
O1V O 0.4445(2) 0.1497(4) 0.67133(10)
O1DA O 0.2222(2) 0.0385(3) 0.66200(10)
O2J O 0.3013(2) 0.2237(4) 0.71095(10)
O2V O 0.3654(2) 0.1096(4) 0.62238(10)
O2DA O 0.3013(2) 0.0775(3) 0.71095(10)
loop_
_geom_bond_atom_site_label_1
_geom_bond_atom_site_label_2
_geom_bond_site_symmetry_1
_geom_bond_site_symmetry_2
C1 C2 1_555 1_555
C2 C3 1_555 1_555
C3 H1 1_555 1_555
C4 C3 1_555 1_555
C5 C4 1_555 1_555
H2 C5 1_555 1_555
C6 C4 1_555 1_555
C7 C1 1_555 1_555
H3 C7 1_555 1_555
Cu1 O1 1_555 1_555
N1 C1 1_555 1_555
O1 C6 1_555 1_555
O2 C6 1_555 1_555
O3 Cu1 1_555 1_555
C1E C2E 1_555 1_555
C2E C3E 1_555 1_555
C3E H1E 1_555 1_555
C4E C3E 1_555 1_555
C5E C4E 1_555 1_555
H2E C5E 1_555 1_555
C6E C4E 1_555 1_555
C7E N1 1_555 1_555
H3E C7E 1_555 1_555
N1E C7 1_555 1_555
O1E C6E 1_555 1_555
O2E C6E 1_555 1_555
C3R C2E 1_555 1_555
H1R C3R 1_555 1_555
C4R C5E 1_555 1_555
C6R C4R 1_555 1_555
C7R C1E 1_555 1_555
H3R C7R 1_555 1_555
N1R C1E 1_555 1_555
O1R C6R 1_555 1_555
O2R C6R 1_555 1_555
C3W C2 1_555 1_555
H1W C3W 1_555 1_555
C4W C5 1_555 1_555
C6W C4W 1_555 1_555
C7W C1 1_555 1_555
H3W C7W 1_555 1_555
N1W C1 1_555 1_555
O1W C6W 1_555 1_555
O2W C6W 1_555 1_555
Cu1J O2 1_555 1_555
O3J Cu1J 1_555 1_555
Cu1B O1W 1_555 1_555
Cu1D O1R 1_555 1_555
Cu1E O1E 1_555 1_555
Cu1K O2W 1_555 1_555
Cu1L O2R 1_555 1_555
Cu1N O2E 1_555 1_555
O1J Cu1J 1_555 1_555
O1V Cu1 1_555 1_555
O1DA Cu1J 1_555 1_555
O2J Cu1 1_555 1_555
O2V Cu1J 1_555 1_555
O2DA Cu1 1_555 1_555
C7 N1 1_555 1_555
N1 N1E 1_555 1_555
C1E C7E 1_555 1_555
C1E N1E 1_555 1_555
C7E N1E 1_555 1_555
C3R C4R 1_555 1_555
C7R N1R 1_555 1_555
C7R N1W 1_555 1_555
N1R C7W 1_555 1_555
N1R N1W 1_555 1_555
C3W C4W 1_555 1_555
C7W N1W 1_555 1_555

#END
