
#######################################################################
#
#                 Cambridge Crystallographic Data Centre
#                                CCDC 
#
#######################################################################
#
# If this CIF has been generated from an entry in the Cambridge 
# Structural Database, then it will include bibliographic, chemical, 
# crystal, experimental, refinement or atomic coordinate data resulting 
# from the CCDC's data processing and validation procedures.
#
#######################################################################

data_OKOQOW
_chemical_formula_moiety         'C64 H119 Co1 N7 O82 U24'
_symmetry_cell_setting           monoclinic
_symmetry_space_group_name_H-M   'P 21/n'
_symmetry_Int_Tables_number      14
_space_group_name_Hall           '-P 2yn'
loop_
_symmetry_equiv_pos_site_id
_symmetry_equiv_pos_as_xyz
1 x,y,z
2 1/2-x,1/2+y,1/2-z
3 -x,-y,-z
4 1/2+x,1/2-y,1/2+z
_cell_length_a                   12.4591(5)
_cell_length_b                   19.3631(11)
_cell_length_c                   25.2590(13)
_cell_angle_alpha                90
_cell_angle_beta                 100.660(3)
_cell_angle_gamma                90
_cell_volume                     5988.49
loop_
_atom_site_label
_atom_site_type_symbol
_atom_site_fract_x
_atom_site_fract_y
_atom_site_fract_z
Co1 Co 1.02994(13) 0.36498(8) 0.24505(7)
N1 N 1.0597(8) 0.4226(5) 0.3103(5)
H45 H 1.0604 0.4680 0.3009
H46 H 1.0062 0.4164 0.3300
N2 N 1.1502(9) 0.3060(5) 0.2822(4)
H47 H 1.1288 0.2610 0.2799
H48 H 1.2092 0.3103 0.2660
N3 N 1.1263(8) 0.4195(6) 0.2087(4)
H49 H 1.1079 0.4649 0.2096
H50 H 1.1964 0.4147 0.2265
N4 N 1.0097(8) 0.3053(5) 0.1816(4)
H51 H 1.0203 0.2605 0.1921
H52 H 0.9402 0.3097 0.1630
N5 N 0.9057(8) 0.4242(6) 0.2110(5)
H53 H 0.9181 0.4685 0.2225
H54 H 0.9005 0.4236 0.1746
N6 N 0.9209(8) 0.3129(5) 0.2756(5)
H55 H 0.9103 0.2711 0.2590
H56 H 0.9467 0.3053 0.3112
C29 C 1.1713(13) 0.4022(7) 0.3442(7)
H57 H 1.2312 0.4253 0.3301
H58 H 1.1754 0.4160 0.3822
C30 C 1.1805(13) 0.3265(7) 0.3399(6)
H59 H 1.1312 0.3037 0.3611
H60 H 1.2563 0.3118 0.3545
C31 C 1.0877(16) 0.3243(7) 0.1466(7)
H61 H 1.0540 0.3160 0.1085
H62 H 1.1537 0.2950 0.1554
C32 C 1.1194(16) 0.3985(8) 0.1542(8)
H63 H 1.1909 0.4058 0.1433
H64 H 1.0647 0.4274 0.1307
C33 C 0.8197(15) 0.3481(10) 0.2695(8)
H65 H 0.8151 0.3719 0.3037
H66 H 0.7597 0.3138 0.2626
C34 C 0.8037(12) 0.4002(9) 0.2246(7)
H67 H 0.7585 0.3793 0.1922
H68 H 0.7632 0.4403 0.2352
O35 O 0.8150(9) 0.3003(7) 0.0988(5)
H69 H 0.8399 0.2578 0.0954
H70 H 0.7576 0.2973 0.1118
O36 O 1.193(2) 0.2976(12) 0.4729(8)
H71 H 1.2163 0.2586 0.4674
H72 H 1.1276 0.2961 0.4537
N7 N 1.6649(13) 0.3087(8) 0.3568(7)
C35 C 1.595(2) 0.3488(11) 0.3628(10)
C36 C 1.4998(17) 0.3928(9) 0.3694(7)
H73 H 1.4340 0.3644 0.3655
H74 H 1.5140 0.4140 0.4051
H75 H 1.4892 0.4290 0.3418
U1 U 0.80382(3) 0.11577(3) 0.36220(2)
U2 U 0.90338(3) 0.08740(2) 0.22769(2)
U3 U 0.60535(3) 0.14415(2) 0.22740(2)
U4 U 1.14969(3) 0.09145(3) 0.34846(2)
U5 U 1.24768(3) 0.11497(2) 0.21356(2)
U6 U 1.44584(3) 0.14368(2) 0.34700(2)
O1 O 0.7450(7) 0.0333(5) 0.3660(4)
O2 O 0.8662(7) 0.1979(4) 0.3587(4)
O3 O 0.8687(6) -0.0008(4) 0.2203(3)
O4 O 0.9467(6) 0.1754(4) 0.2343(4)
O5 O 0.5651(7) 0.0565(5) 0.2285(4)
O6 O 0.6383(7) 0.2331(4) 0.2248(4)
O7 O 1.1894(7) 0.0039(5) 0.3552(4)
O8 O 1.0995(7) 0.1766(5) 0.3420(4)
O9 O 1.3200(6) 0.0362(4) 0.2190(4)
O10 O 1.1726(6) 0.1923(4) 0.2058(4)
O11 O 1.4745(6) 0.0556(4) 0.3377(4)
O12 O 1.4249(7) 0.2323(4) 0.3563(4)
O13 O 0.9337(7) 0.0875(6) 0.4398(4)
O14 O 1.1063(8) 0.0853(7) 0.4341(4)
O15 O 0.8561(7) 0.1922(4) 0.7436(4)
O16 O 0.8599(7) 0.0792(4) 0.7562(4)
O17 O 0.7360(6) 0.1214(4) 0.1669(3)
O18 O 0.7200(8) 0.1655(5) 0.0830(4)
O19 O 0.5015(7) -0.1508(6) -0.1411(4)
O20 O 0.6788(7) -0.1459(5) -0.1370(4)
O21 O 0.9540(7) 0.0832(5) 0.1431(4)
O22 O 1.1259(7) 0.0658(5) 0.1390(4)
O23 O 1.2368(6) 0.3382(5) -0.0623(4)
O24 O 1.0604(7) 0.3572(5) -0.0683(4)
O25 O 0.7689(6) 0.1123(4) 0.2718(3)
O26 O 1.2766(6) 0.1242(5) 0.3024(3)
O27 O 0.9572(6) 0.0625(4) 0.3265(3)
H1 H 0.9626 0.0183 0.3305
O28 O 1.0959(6) 0.0610(4) 0.2511(3)
H2 H 1.0828 0.0145 0.2561
O29 O 0.6246(6) 0.1659(4) 0.3259(3)
H3 H 0.6213 0.2113 0.3146
O30 O 1.4286(6) 0.1707(4) 0.2498(3)
H4 H 1.4244 0.2182 0.2364
C1 C 1.0325(10) 0.0902(7) 0.4603(5)
C2 C 1.0680(11) 0.0981(9) 0.5193(5)
H5 H 1.1304 0.1306 0.5257
H6 H 1.0954 0.0528 0.5342
C3 C 0.9822(11) 0.1238(9) 0.5514(6)
H7 H 0.9588 0.1710 0.5394
H8 H 0.9173 0.0933 0.5440
C4 C 1.0267(11) 0.1246(8) 0.6117(6)
H9 H 1.0554 0.0781 0.6228
H10 H 1.0886 0.1574 0.6190
C5 C 0.9433(11) 0.1445(8) 0.6454(6)
H11 H 0.8740 0.1198 0.6320
H12 H 0.9287 0.1947 0.6417
C6 C 0.9831(10) 0.1270(7) 0.7049(5)
H13 H 1.0118 0.0792 0.7078
H14 H 1.0438 0.1584 0.7200
C7 C 0.8938(10) 0.1332(7) 0.7378(5)
C8 C 0.7173(9) 0.1166(7) 0.1136(5)
C9 C 0.6918(11) 0.0439(8) 0.0928(6)
H15 H 0.6260 0.0275 0.1058
H16 H 0.7532 0.0134 0.1087
C10 C 0.6719(12) 0.0359(8) 0.0303(6)
H17 H 0.6059 0.0621 0.0138
H18 H 0.7350 0.0548 0.0162
C11 C 0.6571(12) -0.0403(8) 0.0158(5)
H19 H 0.7234 -0.0656 0.0331
H20 H 0.5950 -0.0585 0.0311
C12 C 0.6366(11) -0.0552(7) -0.0432(5)
H21 H 0.7015 -0.0413 -0.0581
H22 H 0.5739 -0.0271 -0.0612
C13 C 0.6128(10) -0.1305(7) -0.0557(5)
H23 H 0.6744 -0.1590 -0.0373
H24 H 0.5463 -0.1444 -0.0422
C14 C 0.5962(9) -0.1427(6) -0.1152(5)
C15 C 1.0281(9) 0.0709(6) 0.1171(5)
C16 C 0.9927(11) 0.0564(7) 0.0585(5)
H25 H 0.9240 0.0294 0.0527
H26 H 1.0492 0.0286 0.0455
C17 C 0.9750(13) 0.1227(8) 0.0273(7)
H27 H 0.9138 0.1477 0.0387
H28 H 0.9519 0.1111 -0.0114
C18 C 1.0733(12) 0.1719(9) 0.0328(7)
H29 H 1.0842 0.1927 0.0692
H30 H 1.1390 0.1439 0.0309
C19 C 1.0678(14) 0.2274(9) -0.0061(8)
H31 H 0.9962 0.2503 -0.0077
H32 H 1.0661 0.2056 -0.0417
C20 C 1.1523(13) 0.2839(9) -0.0007(7)
H33 H 1.1454 0.3121 0.0312
H34 H 1.2254 0.2620 0.0068
C21 C 1.1485(11) 0.3313(8) -0.0473(5)
O31 O 1.3231(15) 0.1152(9) 0.4136(4)
O32 O 1.3051(16) 0.1863(7) 0.4787(6)
O33 O 1.6769 -0.1210 0.5897
O34 O 1.6576(17) -0.1679(9) 0.5093(5)
C22 C 1.328(3) 0.1276(9) 0.4617(4)
C23 C 1.3820(19) 0.0767(9) 0.5046(5)
H35 H 1.4614 0.0857 0.5143
H36 H 1.3498 0.0829 0.5373
C24 C 1.3621(13) 0.0042(8) 0.4842(10)
H37 H 1.3367 -0.0249 0.5117
H38 H 1.3053 0.0038 0.4511
C25 C 1.4688(15) -0.0247(14) 0.4719(10)
H39 H 1.4861 -0.0025 0.4392
H40 H 1.4631 -0.0752 0.4658
C26 C 1.5576(14) -0.0087(13) 0.5205(9)
H41 H 1.5355 -0.0258 0.5539
H42 H 1.5692 0.0418 0.5239
C27 C 1.6609(13) -0.0451(9) 0.5133(6)
H43 H 1.6632 -0.0484 0.4744
H44 H 1.7254 -0.0186 0.5312
C28 C 1.661(3) -0.1166(7) 0.5393(4)
O31B O 1.6769(15) -0.1152(9) 0.5864(4)
O32B O 1.6949(16) -0.1863(7) 0.5213(6)
O33B O 1.3231 0.1210 0.4103
O34B O 1.3424(17) 0.1679(9) 0.4907(5)
C22B C 1.672(3) -0.1276(9) 0.5383(4)
C23B C 1.6180(19) -0.0767(9) 0.4954(5)
H35B H 1.5386 -0.0857 0.4857
H36B H 1.6502 -0.0829 0.4627
C24B C 1.6379(13) -0.0042(8) 0.5158(10)
H37B H 1.6633 0.0249 0.4883
H38B H 1.6947 -0.0038 0.5489
C25B C 1.5312(15) 0.0247(14) 0.5281(10)
H39B H 1.5139 0.0025 0.5608
H40B H 1.5369 0.0752 0.5342
C26B C 1.4424(14) 0.0087(13) 0.4795(9)
H41B H 1.4645 0.0258 0.4461
H42B H 1.4308 -0.0418 0.4761
C27B C 1.3391(13) 0.0451(9) 0.4867(6)
H43B H 1.3368 0.0484 0.5256
H44B H 1.2746 0.0186 0.4688
C28B C 1.339(3) 0.1166(7) 0.4607(4)
U1B U 0.19618(3) -0.11577(3) -0.36220(2)
U2B U 0.09662(3) -0.08740(2) -0.22769(2)
U3B U 0.39465(3) -0.14415(2) -0.22740(2)
U4B U -0.14969(3) -0.09145(3) -0.34846(2)
U5B U -0.24768(3) -0.11497(2) -0.21356(2)
U6B U -0.44584(3) -0.14368(2) -0.34700(2)
O1B O 0.2550(7) -0.0333(5) -0.3660(4)
O2B O 0.1338(7) -0.1979(4) -0.3587(4)
O3B O 0.1313(6) 0.0008(4) -0.2203(3)
O4B O 0.0533(6) -0.1754(4) -0.2343(4)
O5B O 0.4349(7) -0.0565(5) -0.2285(4)
O6B O 0.3617(7) -0.2331(4) -0.2248(4)
O7B O -0.1894(7) -0.0039(5) -0.3552(4)
O8B O -0.0995(7) -0.1766(5) -0.3420(4)
O9B O -0.3200(6) -0.0362(4) -0.2190(4)
O10B O -0.1726(6) -0.1923(4) -0.2058(4)
O11B O -0.4745(6) -0.0556(4) -0.3377(4)
O12B O -0.4249(7) -0.2323(4) -0.3563(4)
O13B O 0.0663(7) -0.0875(6) -0.4398(4)
O14B O -0.1063(8) -0.0853(7) -0.4341(4)
O15B O 0.1439(7) -0.1922(4) -0.7436(4)
O16B O 0.1401(7) -0.0792(4) -0.7562(4)
O17B O 0.2640(6) -0.1214(4) -0.1669(3)
O18B O 0.2800(8) -0.1655(5) -0.0830(4)
O19B O 0.4985(7) 0.1508(6) 0.1411(4)
O20B O 0.3212(7) 0.1459(5) 0.1370(4)
O21B O 0.0460(7) -0.0832(5) -0.1431(4)
O22B O -0.1259(7) -0.0658(5) -0.1390(4)
O23B O -0.2368(6) -0.3382(5) 0.0623(4)
O24B O -0.0604(7) -0.3572(5) 0.0683(4)
O25B O 0.2311(6) -0.1123(4) -0.2718(3)
O26B O -0.2766(6) -0.1242(5) -0.3024(3)
O27B O 0.0428(6) -0.0625(4) -0.3265(3)
H1B H 0.0374 -0.0183 -0.3305
O28B O -0.0959(6) -0.0610(4) -0.2511(3)
H2B H -0.0828 -0.0145 -0.2561
O29B O 0.3754(6) -0.1659(4) -0.3259(3)
H3B H 0.3787 -0.2113 -0.3146
O30B O -0.4286(6) -0.1707(4) -0.2498(3)
H4B H -0.4244 -0.2182 -0.2364
C1B C -0.0325(10) -0.0902(7) -0.4603(5)
C2B C -0.0680(11) -0.0981(9) -0.5193(5)
H5B H -0.1304 -0.1306 -0.5257
H6B H -0.0954 -0.0528 -0.5342
C3B C 0.0178(11) -0.1238(9) -0.5514(6)
H7B H 0.0412 -0.1710 -0.5394
H8B H 0.0827 -0.0933 -0.5440
C4B C -0.0267(11) -0.1246(8) -0.6117(6)
H9B H -0.0554 -0.0781 -0.6228
H10B H -0.0886 -0.1574 -0.6190
C5B C 0.0567(11) -0.1445(8) -0.6454(6)
H11B H 0.1260 -0.1198 -0.6320
H12B H 0.0713 -0.1947 -0.6417
C6B C 0.0169(10) -0.1270(7) -0.7049(5)
H13B H -0.0118 -0.0792 -0.7078
H14B H -0.0438 -0.1584 -0.7200
C7B C 0.1062(10) -0.1332(7) -0.7378(5)
C8B C 0.2827(9) -0.1166(7) -0.1136(5)
C9B C 0.3082(11) -0.0439(8) -0.0928(6)
H15B H 0.3740 -0.0275 -0.1058
H16B H 0.2468 -0.0134 -0.1087
C10B C 0.3281(12) -0.0359(8) -0.0303(6)
H17B H 0.3941 -0.0621 -0.0138
H18B H 0.2650 -0.0548 -0.0162
C11B C 0.3429(12) 0.0403(8) -0.0158(5)
H19B H 0.2766 0.0656 -0.0331
H20B H 0.4050 0.0585 -0.0311
C12B C 0.3634(11) 0.0552(7) 0.0432(5)
H21B H 0.2985 0.0413 0.0581
H22B H 0.4261 0.0271 0.0612
C13B C 0.3872(10) 0.1305(7) 0.0557(5)
H23B H 0.3256 0.1590 0.0373
H24B H 0.4537 0.1444 0.0422
C14B C 0.4038(9) 0.1427(6) 0.1152(5)
C15B C -0.0281(9) -0.0709(6) -0.1171(5)
C16B C 0.0073(11) -0.0564(7) -0.0585(5)
H25B H 0.0760 -0.0294 -0.0527
H26B H -0.0492 -0.0286 -0.0455
C17B C 0.0250(13) -0.1227(8) -0.0273(7)
H27B H 0.0862 -0.1477 -0.0387
H28B H 0.0481 -0.1111 0.0114
C18B C -0.0733(12) -0.1719(9) -0.0328(7)
H29B H -0.0842 -0.1927 -0.0692
H30B H -0.1390 -0.1439 -0.0309
C19B C -0.0678(14) -0.2274(9) 0.0061(8)
H31B H 0.0038 -0.2503 0.0077
H32B H -0.0661 -0.2056 0.0417
C20B C -0.1523(13) -0.2839(9) 0.0007(7)
H33B H -0.1454 -0.3121 -0.0312
H34B H -0.2254 -0.2620 -0.0068
C21B C -0.1485(11) -0.3313(8) 0.0473(5)
U1A U -0.30382(3) -0.38423(3) 0.13780(2)
U1C U 1.30382(3) 0.38423(3) -0.13780(2)
U3_2 U 1.60535(3) 0.14415(2) 0.22740(2)
U3B_2 U -0.60535(3) -0.14415(2) -0.22740(2)
U4B_2 U 1.85031(3) -0.09145(3) 0.65154(2)
U5_2 U 0.24768(3) 0.11497(2) 0.21356(2)
U5B_2 U 0.75232(3) -0.11497(2) -0.21356(2)
U6_2 U 0.44584(3) 0.14368(2) 0.34700(2)
U6A U 0.05416(3) -0.35632(2) 0.15300(2)
U6B_2 U 0.55416(3) -0.14368(2) -0.34700(2)
U6B_3 U 1.55416(3) -0.14368(2) 0.65300(2)
U6C U 0.94584(3) 0.35632(2) -0.15300(2)
O20_2 O -0.3212(7) -0.1459(5) -0.1370(4)
O20B_2 O 1.3212(7) 0.1459(5) 0.1370(4)
O23A O 0.2632(6) -0.1618(5) -0.4377(4)
O23C O 0.7368(6) 0.1618(5) 0.4377(4)
O24A O -0.5604(7) -0.1428(5) -0.4317(4)
O24C O 1.5604(7) 0.1428(5) 0.4317(4)
O29_2 O 1.6246(6) 0.1659(4) 0.3259(3)
O29B_2 O -0.6246(6) -0.1659(4) -0.3259(3)
O30_2 O 0.4286(6) 0.1707(4) 0.2498(3)
O30B_2 O 0.5714(6) -0.1707(4) -0.2498(3)
O31B_2 O -0.3231(15) -0.1152(9) -0.4136(4)
O33_2 O -0.3231 -0.1210 -0.4103
loop_
_geom_bond_atom_site_label_1
_geom_bond_atom_site_label_2
_geom_bond_site_symmetry_1
_geom_bond_site_symmetry_2
U1 O1 1_555 1_555
U2 O3 1_555 1_555
U3 O5 1_555 1_555
U4 O7 1_555 1_555
U5 O9 1_555 1_555
U6 O11 1_555 1_555
O2 U1 1_555 1_555
O4 U2 1_555 1_555
O6 U3 1_555 1_555
O8 U4 1_555 1_555
O10 U5 1_555 1_555
O12 U6 1_555 1_555
O13 U1 1_555 1_555
O14 U4 1_555 1_555
O15 C7 1_555 1_555
O16 C7 1_555 1_555
O17 U2 1_555 1_555
O18 C8 1_555 1_555
O19 C14 1_555 1_555
O20 C14 1_555 1_555
O21 U2 1_555 1_555
O22 U5 1_555 1_555
O23 C21 1_555 1_555
O24 C21 1_555 1_555
O25 U1 1_555 1_555
O26 U4 1_555 1_555
O27 U1 1_555 1_555
H1 O27 1_555 1_555
O28 U2 1_555 1_555
H2 O28 1_555 1_555
O29 U1 1_555 1_555
H3 O29 1_555 1_555
O30 U5 1_555 1_555
H4 O30 1_555 1_555
C1 O13 1_555 1_555
C2 C1 1_555 1_555
H5 C2 1_555 1_555
H6 C2 1_555 1_555
C3 C2 1_555 1_555
H7 C3 1_555 1_555
H8 C3 1_555 1_555
C4 C3 1_555 1_555
H9 C4 1_555 1_555
H10 C4 1_555 1_555
C5 C4 1_555 1_555
H11 C5 1_555 1_555
H12 C5 1_555 1_555
C6 C5 1_555 1_555
H13 C6 1_555 1_555
H14 C6 1_555 1_555
C7 C6 1_555 1_555
C8 O17 1_555 1_555
C9 C8 1_555 1_555
H15 C9 1_555 1_555
H16 C9 1_555 1_555
C10 C9 1_555 1_555
H17 C10 1_555 1_555
H18 C10 1_555 1_555
C11 C10 1_555 1_555
H19 C11 1_555 1_555
H20 C11 1_555 1_555
C12 C11 1_555 1_555
H21 C12 1_555 1_555
H22 C12 1_555 1_555
C13 C12 1_555 1_555
H23 C13 1_555 1_555
H24 C13 1_555 1_555
C14 C13 1_555 1_555
C15 O21 1_555 1_555
C16 C15 1_555 1_555
H25 C16 1_555 1_555
H26 C16 1_555 1_555
C17 C16 1_555 1_555
H27 C17 1_555 1_555
H28 C17 1_555 1_555
C18 C17 1_555 1_555
H29 C18 1_555 1_555
H30 C18 1_555 1_555
C19 C18 1_555 1_555
H31 C19 1_555 1_555
H32 C19 1_555 1_555
C20 C19 1_555 1_555
H33 C20 1_555 1_555
H34 C20 1_555 1_555
C21 C20 1_555 1_555
O31 U4 1_555 1_555
O32 C22 1_555 1_555
O33 C28 1_555 1_555
O34 C28 1_555 1_555
C22 O31 1_555 1_555
C23 C22 1_555 1_555
H35 C23 1_555 1_555
H36 C23 1_555 1_555
C24 C23 1_555 1_555
H37 C24 1_555 1_555
H38 C24 1_555 1_555
C25 C24 1_555 1_555
H39 C25 1_555 1_555
H40 C25 1_555 1_555
C26 C25 1_555 1_555
H41 C26 1_555 1_555
H42 C26 1_555 1_555
C27 C26 1_555 1_555
H43 C27 1_555 1_555
H44 C27 1_555 1_555
C28 C27 1_555 1_555
Co1 N1 1_555 1_555
N1 H45 1_555 1_555
H46 N1 1_555 1_555
N2 Co1 1_555 1_555
H47 N2 1_555 1_555
H48 N2 1_555 1_555
N3 Co1 1_555 1_555
H49 N3 1_555 1_555
H50 N3 1_555 1_555
N4 Co1 1_555 1_555
H51 N4 1_555 1_555
H52 N4 1_555 1_555
N5 Co1 1_555 1_555
H53 N5 1_555 1_555
H54 N5 1_555 1_555
N6 Co1 1_555 1_555
H55 N6 1_555 1_555
H56 N6 1_555 1_555
C29 N1 1_555 1_555
H57 C29 1_555 1_555
H58 C29 1_555 1_555
C30 N2 1_555 1_555
H59 C30 1_555 1_555
H60 C30 1_555 1_555
C31 N4 1_555 1_555
H61 C31 1_555 1_555
H62 C31 1_555 1_555
C32 N3 1_555 1_555
H63 C32 1_555 1_555
H64 C32 1_555 1_555
C33 N6 1_555 1_555
H65 C33 1_555 1_555
H66 C33 1_555 1_555
C34 N5 1_555 1_555
H67 C34 1_555 1_555
H68 C34 1_555 1_555
O35 H69 1_555 1_555
H70 O35 1_555 1_555
O36 H71 1_555 1_555
H72 O36 1_555 1_555
N7 C35 1_555 1_555
C35 C36 1_555 1_555
C36 H73 1_555 1_555
H74 C36 1_555 1_555
H75 C36 1_555 1_555
O31B C28 1_555 1_555
O32B O34 1_555 1_555
O33B U4 1_555 1_555
O34B O32 1_555 1_555
C22B O33 1_555 1_555
C23B C26 1_555 1_555
H35B C23B 1_555 1_555
H36B C23B 1_555 1_555
C24B C26 1_555 1_555
H37B C24B 1_555 1_555
H38B C27 1_555 1_555
C25B C26 1_555 1_555
H39B C26 1_555 1_555
H40B C25B 1_555 1_555
C26B C23 1_555 1_555
H41B C25 1_555 1_555
H42B C24 1_555 1_555
C27B C22 1_555 1_555
H43B C23 1_555 1_555
H44B C24 1_555 1_555
C28B O31 1_555 1_555
U1B O1B 1_555 1_555
U2B O3B 1_555 1_555
U3B O19 1_555 1_555
U4B O7B 1_555 1_555
U5B O9B 1_555 1_555
U6B O11B 1_555 1_555
O2B U1B 1_555 1_555
O4B U2B 1_555 1_555
O5B U3B 1_555 1_555
O6B U3B 1_555 1_555
O8B U4B 1_555 1_555
O10B U5B 1_555 1_555
O12B U6B 1_555 1_555
O13B U1B 1_555 1_555
O14B U4B 1_555 1_555
O15B C7B 1_555 1_555
O16B C7B 1_555 1_555
O17B U2B 1_555 1_555
O18B C8B 1_555 1_555
O19B U3 1_555 1_555
O20B C14B 1_555 1_555
O21B U2B 1_555 1_555
O22B U5B 1_555 1_555
O23B C21B 1_555 1_555
O24B C21B 1_555 1_555
O25B U1B 1_555 1_555
O26B U4B 1_555 1_555
O27B U1B 1_555 1_555
H1B O27B 1_555 1_555
O28B U2B 1_555 1_555
H2B O28B 1_555 1_555
O29B U1B 1_555 1_555
H3B O29B 1_555 1_555
O30B U5B 1_555 1_555
H4B O30B 1_555 1_555
C1B O13B 1_555 1_555
C2B C1B 1_555 1_555
H5B C2B 1_555 1_555
H6B C2B 1_555 1_555
C3B C2B 1_555 1_555
H7B C3B 1_555 1_555
H8B C3B 1_555 1_555
C4B C3B 1_555 1_555
H9B C4B 1_555 1_555
H10B C4B 1_555 1_555
C5B C4B 1_555 1_555
H11B C5B 1_555 1_555
H12B C5B 1_555 1_555
C6B C5B 1_555 1_555
H13B C6B 1_555 1_555
H14B C6B 1_555 1_555
C7B C6B 1_555 1_555
C8B O17B 1_555 1_555
C9B C8B 1_555 1_555
H15B C9B 1_555 1_555
H16B C9B 1_555 1_555
C10B C9B 1_555 1_555
H17B C10B 1_555 1_555
H18B C10B 1_555 1_555
C11B C10B 1_555 1_555
H19B C11B 1_555 1_555
H20B C11B 1_555 1_555
C12B C11B 1_555 1_555
H21B C12B 1_555 1_555
H22B C12B 1_555 1_555
C13B C12B 1_555 1_555
H23B C13B 1_555 1_555
H24B C13B 1_555 1_555
C14B O19B 1_555 1_555
C15B O21B 1_555 1_555
C16B C15B 1_555 1_555
H25B C16B 1_555 1_555
H26B C16B 1_555 1_555
C17B C16B 1_555 1_555
H27B C17B 1_555 1_555
H28B C17B 1_555 1_555
C18B C17B 1_555 1_555
H29B C18B 1_555 1_555
H30B C18B 1_555 1_555
C19B C18B 1_555 1_555
H31B C19B 1_555 1_555
H32B C19B 1_555 1_555
C20B C19B 1_555 1_555
H33B C20B 1_555 1_555
H34B C20B 1_555 1_555
C21B C20B 1_555 1_555
U1A O23B 1_555 1_555
U1C O23 1_555 1_555
U3_2 O30 1_555 1_555
U3B_2 O30B 1_555 1_555
U4B_2 O33 1_555 1_555
U5_2 O20B 1_555 1_555
U5B_2 O20 1_555 1_555
U6_2 O29 1_555 1_555
U6A O24B 1_555 1_555
U6B_2 O29B 1_555 1_555
U6B_3 O33 1_555 1_555
U6C O24 1_555 1_555
O20_2 U5B 1_555 1_555
O20B_2 U5 1_555 1_555
O23A U1B 1_555 1_555
O23C U1 1_555 1_555
O24A U6B 1_555 1_555
O24C U6 1_555 1_555
O29_2 U6 1_555 1_555
O29B_2 U6B 1_555 1_555
O30_2 U3 1_555 1_555
O30B_2 U3B 1_555 1_555
O31B_2 U4B 1_555 1_555
O33_2 U4B 1_555 1_555
U2 O25 1_555 1_555
U2 O27 1_555 1_555
U3 O17 1_555 1_555
U3 O25 1_555 1_555
U3 O29 1_555 1_555
U4 O27 1_555 1_555
U4 O28 1_555 1_555
U5 O26 1_555 1_555
U5 O28 1_555 1_555
U6 O26 1_555 1_555
U6 O30 1_555 1_555
U6 O31 1_555 1_555
U6 O33B 1_555 1_555
O14 C1 1_555 1_555
O22 C15 1_555 1_555
O32 C28B 1_555 1_555
O34 C22B 1_555 1_555
C22 O33B 1_555 1_555
C22 O34B 1_555 1_555
C23 C27B 1_555 1_555
C23 C28B 1_555 1_555
C24 C26B 1_555 1_555
C24 C27B 1_555 1_555
H38 C27B 1_555 1_555
C25 C26B 1_555 1_555
C25 H42B 1_555 1_555
H39 C26B 1_555 1_555
H41 C25B 1_555 1_555
H42 C24B 1_555 1_555
H42 C25B 1_555 1_555
C27 C22B 1_555 1_555
C27 C23B 1_555 1_555
C27 C24B 1_555 1_555
H43 C23B 1_555 1_555
H44 C24B 1_555 1_555
C28 O32B 1_555 1_555
C28 C23B 1_555 1_555
C29 C30 1_555 1_555
C31 C32 1_555 1_555
C33 C34 1_555 1_555
O31B C22B 1_555 1_555
O31B U4B_2 1_555 1_555
O31B U6B_3 1_555 1_555
O32B C22B 1_555 1_555
O33B C28B 1_555 1_555
O34B C28B 1_555 1_555
C22B C23B 1_555 1_555
C23B C24B 1_555 1_555
C24B H38B 1_555 1_555
C24B C25B 1_555 1_555
C25B H39B 1_555 1_555
C25B C26B 1_555 1_555
C26B H41B 1_555 1_555
C26B H42B 1_555 1_555
C26B C27B 1_555 1_555
C27B H43B 1_555 1_555
C27B H44B 1_555 1_555
C27B C28B 1_555 1_555
U2B O25B 1_555 1_555
U2B O27B 1_555 1_555
U3B O17B 1_555 1_555
U3B O25B 1_555 1_555
U3B O29B 1_555 1_555
U4B O27B 1_555 1_555
U4B O28B 1_555 1_555
U5B O26B 1_555 1_555
U5B O28B 1_555 1_555
U6B O26B 1_555 1_555
U6B O30B 1_555 1_555
U6B O31B_2 1_555 1_555
U6B O33_2 1_555 1_555
O14B C1B 1_555 1_555
O22B C15B 1_555 1_555
C13B C14B 1_555 1_555
U3_2 O29_2 1_555 1_555
U3B_2 O29B_2 1_555 1_555
U5_2 O30_2 1_555 1_555
U5B_2 O30B_2 1_555 1_555
U6_2 O30_2 1_555 1_555
U6B_2 O30B_2 1_555 1_555

#END
