
#######################################################################
#
#                 Cambridge Crystallographic Data Centre
#                                CCDC 
#
#######################################################################
#
# If this CIF has been generated from an entry in the Cambridge 
# Structural Database, then it will include bibliographic, chemical, 
# crystal, experimental, refinement or atomic coordinate data resulting 
# from the CCDC's data processing and validation procedures.
#
#######################################################################

data_VEVJUD
_chemical_formula_moiety         '(C7 H5 Cu2 I1 N4 S1)n'
_symmetry_cell_setting           cubic
_symmetry_space_group_name_H-M   'I a -3 d'
_symmetry_Int_Tables_number      230
_space_group_name_Hall           '-I 4bd 2c 3'
loop_
_symmetry_equiv_pos_site_id
_symmetry_equiv_pos_as_xyz
1 x,y,z
2 1/4-y,3/4+x,1/4+z
3 -x,1/2-y,z
4 1/4+y,1/4-x,3/4+z
5 1/4+x,1/4-z,3/4+y
6 x,-y,1/2-z
7 3/4+x,1/4+z,1/4-y
8 3/4+z,1/4+y,1/4-x
9 1/2-x,y,-z
10 1/4-z,3/4+y,1/4+x
11 z,x,y
12 y,z,x
13 -y,1/2-z,x
14 z,-x,1/2-y
15 1/2-y,z,-x
16 -z,1/2-x,y
17 1/2-z,x,-y
18 y,-z,1/2-x
19 3/4+y,1/4+x,1/4-z
20 1/4-y,1/4-x,1/4-z
21 1/4-x,3/4+z,1/4+y
22 1/4-x,1/4-z,1/4-y
23 1/4+z,1/4-y,3/4+x
24 1/4-z,1/4-y,1/4-x
25 1/2+x,1/2+y,1/2+z
26 3/4-y,1/4+x,3/4+z
27 1/2-x,-y,1/2+z
28 3/4+y,3/4-x,1/4+z
29 3/4+x,3/4-z,1/4+y
30 1/2+x,1/2-y,-z
31 1/4+x,3/4+z,3/4-y
32 1/4+z,3/4+y,3/4-x
33 -x,1/2+y,1/2-z
34 3/4-z,1/4+y,3/4+x
35 1/2+z,1/2+x,1/2+y
36 1/2+y,1/2+z,1/2+x
37 1/2-y,-z,1/2+x
38 1/2+z,1/2-x,-y
39 -y,1/2+z,1/2-x
40 1/2-z,-x,1/2+y
41 -z,1/2+x,1/2-y
42 1/2+y,1/2-z,-x
43 1/4+y,3/4+x,3/4-z
44 3/4-y,3/4-x,3/4-z
45 3/4-x,1/4+z,3/4+y
46 3/4-x,3/4-z,3/4-y
47 3/4+z,3/4-y,1/4+x
48 3/4-z,3/4-y,3/4-x
49 -x,-y,-z
50 3/4+y,1/4-x,3/4-z
51 x,1/2+y,-z
52 3/4-y,3/4+x,1/4-z
53 3/4-x,3/4+z,1/4-y
54 -x,y,1/2+z
55 1/4-x,3/4-z,3/4+y
56 1/4-z,3/4-y,3/4+x
57 1/2+x,-y,z
58 3/4+z,1/4-y,3/4-x
59 -z,-x,-y
60 -y,-z,-x
61 y,1/2+z,-x
62 -z,x,1/2+y
63 1/2+y,-z,x
64 z,1/2+x,-y
65 1/2+z,-x,y
66 -y,z,1/2+x
67 1/4-y,3/4-x,3/4+z
68 3/4+y,3/4+x,3/4+z
69 3/4+x,1/4-z,3/4-y
70 3/4+x,3/4+z,3/4+y
71 3/4-z,3/4+y,1/4-x
72 3/4+z,3/4+y,3/4+x
73 1/2-x,1/2-y,1/2-z
74 1/4+y,3/4-x,1/4-z
75 1/2+x,y,1/2-z
76 1/4-y,1/4+x,3/4-z
77 1/4-x,1/4+z,3/4-y
78 1/2-x,1/2+y,z
79 3/4-x,1/4-z,1/4+y
80 3/4-z,1/4-y,1/4+x
81 x,1/2-y,1/2+z
82 1/4+z,3/4-y,1/4-x
83 1/2-z,1/2-x,1/2-y
84 1/2-y,1/2-z,1/2-x
85 1/2+y,z,1/2-x
86 1/2-z,1/2+x,y
87 y,1/2-z,1/2+x
88 1/2+z,x,1/2-y
89 z,1/2-x,1/2+y
90 1/2-y,1/2+z,x
91 3/4-y,1/4-x,1/4+z
92 1/4+y,1/4+x,1/4+z
93 1/4+x,3/4-z,1/4-y
94 1/4+x,1/4+z,1/4+y
95 1/4-z,1/4+y,3/4-x
96 1/4+z,1/4+y,1/4+x
_cell_length_a                   41.856(3)
_cell_length_b                   41.856(3)
_cell_length_c                   41.856(3)
_cell_angle_alpha                90
_cell_angle_beta                 90
_cell_angle_gamma                90
_cell_volume                     73328.6
loop_
_atom_site_label
_atom_site_type_symbol
_atom_site_fract_x
_atom_site_fract_y
_atom_site_fract_z
_atom_site_U_iso_or_equiv
_atom_site_thermal_displace_type
I1 I 0.802052(15) 0.661963(16) 0.016083(15) 0.1208 Uani
Cu1 Cu 0.73887(2) 0.73740(2) 0.19622(2) 0.0920 Uani
Cu2 Cu 0.73892(3) 0.64831(3) 0.02981(2) 0.1141 Uani
S1 S 0.78601(4) 0.68833(4) 0.23944(4) 0.0874 Uani
C1 C 0.7452(3) 0.6710(3) 0.0952(2) 0.1993 Uani
H1 H 0.7589 0.6529 0.0962 0.2390 Uiso
C2 C 0.7418(3) 0.6899(3) 0.1227(3) 0.1993 Uani
C3 C 0.7107(4) 0.7022(3) 0.0675(3) 0.1993 Uani
H2 H 0.6982 0.7057 0.0489 0.2390 Uiso
C4 C 0.7217(4) 0.7155(3) 0.1213(3) 0.1993 Uani
H3 H 0.7174 0.7279 0.1398 0.2390 Uiso
C5 C 0.7080(4) 0.7227(3) 0.0926(3) 0.1993 Uani
H4 H 0.6966 0.7422 0.0901 0.2390 Uiso
N1 N 0.7306(2) 0.67683(19) 0.06849(17) 0.1310 Uani
N2 N 0.75885(16) 0.69773(15) 0.18014(15) 0.1003 Uani
N3 N 0.7796(3) 0.6564(3) 0.1527(2) 0.1887 Uani
H5 H 0.7852 0.6438 0.1368 0.2270 Uiso
C6 C 0.7590(3) 0.6814(2) 0.1529(2) 0.1330 Uani
N4 N 0.7895(3) 0.6561(3) 0.1841(2) 0.1887 Uani
C7 C 0.7780(2) 0.68047(19) 0.20050(18) 0.1020 Uani
I1H I 0.697948(15) 0.661963(16) -0.016083(15) 0.1208 Uani
I1AC I 0.733917(15) 0.588037(16) 0.052052(15) 0.1208 Uani
Cu1HB Cu 0.73740(2) 0.69622(2) 0.26113(2) 0.0920 Uani
Cu1IB Cu 0.80378(2) 0.73887(2) 0.23740(2) 0.0920 Uani
Cu2H Cu 0.76108(3) 0.64831(3) -0.02981(2) 0.1141 Uani
Cu2EB Cu 0.77981(2) 0.60169(3) 0.01108(3) 0.1141 Uani
S1HB S 0.68833(4) 0.73944(4) 0.21399(4) 0.0874 Uani
S1IB S 0.76056(4) 0.78601(4) 0.18833(4) 0.0874 Uani
loop_
_atom_site_aniso_label
_atom_site_aniso_U_11
_atom_site_aniso_U_22
_atom_site_aniso_U_33
_atom_site_aniso_U_23
_atom_site_aniso_U_13
_atom_site_aniso_U_12
I1 0.1139(5) 0.1374(6) 0.1110(5) 0.0066(3) -0.0274(3) -0.0206(3)
Cu1 0.0970(6) 0.0884(6) 0.0905(6) -0.0051(4) 0.0001(4) 0.0047(4)
Cu2 0.1282(8) 0.1300(8) 0.0842(6) -0.0162(5) -0.0094(5) 0.0181(6)
S1 0.0901(10) 0.0890(10) 0.0830(10) -0.0007(7) -0.0013(7) 0.0025(8)
C1 0.289(7) 0.198(5) 0.111(3) -0.055(3) -0.078(4) 0.138(5)
C2 0.289(7) 0.198(5) 0.111(3) -0.055(3) -0.078(4) 0.138(5)
C3 0.289(7) 0.198(5) 0.111(3) -0.055(3) -0.078(4) 0.138(5)
C4 0.289(7) 0.198(5) 0.111(3) -0.055(3) -0.078(4) 0.138(5)
C5 0.289(7) 0.198(5) 0.111(3) -0.055(3) -0.078(4) 0.138(5)
N1 0.157(6) 0.142(6) 0.094(4) -0.019(4) -0.034(4) 0.047(5)
N2 0.110(4) 0.105(4) 0.086(3) -0.017(3) -0.019(3) 0.021(3)
N3 0.271(9) 0.191(6) 0.104(4) -0.059(4) -0.059(5) 0.129(6)
C6 0.168(9) 0.139(7) 0.092(5) -0.026(5) -0.013(5) 0.064(7)
N4 0.271(9) 0.191(6) 0.104(4) -0.059(4) -0.059(5) 0.129(6)
C7 0.110(5) 0.103(5) 0.093(5) -0.017(4) 0.002(4) 0.021(4)
I1H 0.1139 0.1374 0.111 -0.0066 -0.0274 0.0206
I1AC 0.111 0.1374 0.1139 0.0206 0.0274 0.0066
Cu1HB 0.0884 0.0905 0.097 -0.0001 -0.0047 -0.0051
Cu1IB 0.0905 0.097 0.0884 0.0047 0.0051 -0.0001
Cu2H 0.1282 0.13 0.0842 0.0162 -0.0094 -0.0181
Cu2EB 0.0842 0.13 0.1282 0.0181 0.0094 0.0162
S1HB 0.089 0.083 0.0901 0.0013 -0.0025 -0.0007
S1IB 0.083 0.0901 0.089 0.0025 0.0007 0.0013
loop_
_geom_bond_atom_site_label_1
_geom_bond_atom_site_label_2
_geom_bond_site_symmetry_1
_geom_bond_site_symmetry_2
I1 Cu2 1_555 1_555
Cu1 N2 1_555 1_555
Cu2 N1 1_555 1_555
S1 C7 1_555 1_555
C1 H1 1_555 1_555
C2 C1 1_555 1_555
C3 H2 1_555 1_555
C4 C2 1_555 1_555
H3 C4 1_555 1_555
C5 C3 1_555 1_555
H4 C5 1_555 1_555
N1 C1 1_555 1_555
N2 C6 1_555 1_555
N3 H5 1_555 1_555
C6 C2 1_555 1_555
N4 N3 1_555 1_555
C7 N2 1_555 1_555
I1H Cu2 1_555 1_555
I1AC Cu2 1_555 1_555
Cu1HB S1 1_555 1_555
Cu1IB S1 1_555 1_555
Cu2H I1 1_555 1_555
Cu2EB I1 1_555 1_555
S1HB Cu1 1_555 1_555
S1IB Cu1 1_555 1_555
C3 N1 1_555 1_555
C4 C5 1_555 1_555
N3 C6 1_555 1_555
N4 C7 1_555 1_555
I1H Cu2H 1_555 1_555
I1AC Cu2EB 1_555 1_555

#END
