
#######################################################################
#
#                 Cambridge Crystallographic Data Centre
#                                CCDC 
#
#######################################################################
#
# If this CIF has been generated from an entry in the Cambridge 
# Structural Database, then it will include bibliographic, chemical, 
# crystal, experimental, refinement or atomic coordinate data resulting 
# from the CCDC's data processing and validation procedures.
#
#######################################################################

data_AQOTIK
_chemical_formula_moiety         'C42 Fe5 N10 Pt1'
_symmetry_cell_setting           tetragonal
_symmetry_space_group_name_H-M   'P 4/m m m'
_symmetry_Int_Tables_number      123
_space_group_name_Hall           '-P 4 2'
loop_
_symmetry_equiv_pos_site_id
_symmetry_equiv_pos_as_xyz
1 x,y,z
2 -x,-y,z
3 x,-y,-z
4 -x,y,-z
5 -y,-x,-z
6 y,x,-z
7 y,-x,z
8 -y,x,z
9 -x,-y,-z
10 x,y,-z
11 -x,y,z
12 x,-y,z
13 y,x,z
14 -y,-x,z
15 -y,x,-z
16 y,-x,-z
_cell_length_a                   7.1700(2)
_cell_length_b                   7.1700(2)
_cell_length_c                   13.6620(2)
_cell_angle_alpha                90
_cell_angle_beta                 90
_cell_angle_gamma                90
_cell_volume                     702.348
loop_
_atom_site_label
_atom_site_type_symbol
_atom_site_fract_x
_atom_site_fract_y
_atom_site_fract_z
Pt1 Pt -0.5000 0.5000 -0.5000
Fe1 Fe 0.0000 0.0000 -0.5000
N1 N 0.0000 0.0000 -0.3539(4)
N2 N -0.1908(5) 0.1908(5) -0.5000
C1 C -0.1613(13) 0.0000 -0.3050(6)
C2 C -0.1658(14) 0.0000 -0.2011(6)
C3 C 0.0000 0.0000 -0.1482(6)
C4 C 0.0000 0.0000 -0.0424(7)
C5 C -0.3044(6) 0.3044(6) -0.5000
Fe1_2 Fe -1.0000 1.0000 -0.5000
Fe1_3 Fe 0.0000 1.0000 -0.5000
Fe1_4 Fe -1.0000 0.0000 -0.5000
Fe1_5 Fe 0.0000 0.0000 0.5000
N1B N 0.0000 0.0000 -0.6461(4)
N1B_2 N 0.0000 0.0000 0.3539(4)
N2A N -0.8092(5) 0.8092(5) -0.5000
N2B N -0.1908(5) 0.8092(5) -0.5000
N2C N -0.8092(5) 0.1908(5) -0.5000
N2A_2 N 0.1908(5) -0.1908(5) -0.5000
N2B_2 N -0.1908(5) -0.1908(5) -0.5000
N2C_2 N 0.1908(5) 0.1908(5) -0.5000
C1A C 0.1613(13) 0.0000 -0.3050(6)
C1F C 0.0000 0.1613(13) -0.3050(6)
C1G C 0.0000 -0.1613(13) -0.3050(6)
C1E C -0.0000 -0.1613(13) 0.3050(6)
C1D C -0.0000 0.1613(13) 0.3050(6)
C1B C -0.1613(13) -0.0000 0.3050(6)
C1C C 0.1613(13) -0.0000 0.3050(6)
C2A C 0.1658(14) 0.0000 -0.2011(6)
C2G C 0.0000 -0.1658(14) -0.2011(6)
C2F C 0.0000 0.1658(14) -0.2011(6)
C2B C -0.1658(14) -0.0000 0.2011(6)
C2C C 0.1658(14) -0.0000 0.2011(6)
C2D C 0.0000 0.1658(14) 0.2011(6)
C2E C -0.0000 -0.1658(14) 0.2011(6)
C3B C -0.0000 -0.0000 0.1482(6)
C4B C 0.0000 0.0000 0.0424(7)
C5A C -0.6956(6) 0.6956(6) -0.5000
C5B C -0.3044(6) 0.6956(6) -0.5000
C5C C -0.6956(6) 0.3044(6) -0.5000
C6 C -0.5000 -0.2055 0.1679
C7 C -0.5000 -0.100(3) 0.2578(14)
C8 C -0.5000 -0.115(4) 0.0768(17)
C9 C -0.5000 -0.4147(14) 0.1692
C6A C -0.5000 0.2055 0.1679
C6A_2 C -0.5000 -0.7945 0.1679
C6G C -0.7945 -0.5000 0.1679
C6F C -0.2055 -0.5000 0.1679
C6_2 C -0.5000 -1.2055 0.1679
C7A C -0.5000 0.100(3) 0.2578(14)
C7A_2 C -0.5000 -0.900(3) 0.2578(14)
C7_2 C -0.5000 -1.100(3) 0.2578(14)
C8A C -0.5000 0.115(4) 0.0768(17)
C8A_2 C -0.5000 -0.885(4) 0.0768(17)
C8_2 C -0.5000 -1.115(4) 0.0768(17)
C9A C -0.5000 -0.5853(14) 0.1692
C9G C -0.5853(14) -0.5000 0.1692
C9F C -0.4147(14) -0.5000 0.1692
loop_
_geom_bond_atom_site_label_1
_geom_bond_atom_site_label_2
_geom_bond_site_symmetry_1
_geom_bond_site_symmetry_2
Pt1 C5 1_555 1_555
Fe1 N1 1_555 1_555
N1 C1 1_555 1_555
N2 Fe1 1_555 1_555
C1 C2 1_555 1_555
C2 C3 1_555 1_555
C3 C4 1_555 1_555
C4 C4B 1_555 1_555
C5 N2 1_555 1_555
C6 C7 1_555 1_555
C7 C7A 1_555 1_555
C8 C6 1_555 1_555
C9 C6 1_555 1_555
Fe1_2 N2A 1_555 1_555
Fe1_3 N2B 1_555 1_555
Fe1_4 N2C 1_555 1_555
Fe1_5 N1B_2 1_555 1_555
N1B Fe1 1_555 1_555
N1B_2 C1E 1_555 1_555
N2A C5A 1_555 1_555
N2B C5B 1_555 1_555
N2C C5C 1_555 1_555
N2A_2 Fe1 1_555 1_555
N2B_2 Fe1 1_555 1_555
N2C_2 Fe1 1_555 1_555
C1A N1 1_555 1_555
C1F N1 1_555 1_555
C1G N1 1_555 1_555
C1E C1B 1_555 1_555
C1D N1B_2 1_555 1_555
C1B N1B_2 1_555 1_555
C1C N1B_2 1_555 1_555
C2A C3 1_555 1_555
C2G C3 1_555 1_555
C2F C3 1_555 1_555
C2B C1B 1_555 1_555
C2C C1C 1_555 1_555
C2D C1D 1_555 1_555
C2E C1E 1_555 1_555
C3B C2B 1_555 1_555
C4B C3B 1_555 1_555
C5A Pt1 1_555 1_555
C5B Pt1 1_555 1_555
C5C Pt1 1_555 1_555
C6A C7A 1_555 1_555
C6A_2 C7A_2 1_555 1_555
C6G C9G 1_555 1_555
C6F C9F 1_555 1_555
C6_2 C7_2 1_555 1_555
C7A_2 C7_2 1_555 1_555
C8A C8 1_555 1_555
C8A_2 C6A_2 1_555 1_555
C8_2 C6_2 1_555 1_555
C9A C9 1_555 1_555
C9G C9 1_555 1_555
C9F C9 1_555 1_555
C1 C1F 1_555 1_555
C1 C1G 1_555 1_555
C1A C1F 1_555 1_555
C1A C1G 1_555 1_555
C1A C2A 1_555 1_555
C1F C2F 1_555 1_555
C1G C2G 1_555 1_555
C1E C1C 1_555 1_555
C1D C1B 1_555 1_555
C1D C1C 1_555 1_555
C2C C3B 1_555 1_555
C2D C3B 1_555 1_555
C2E C3B 1_555 1_555
C6A C8A 1_555 1_555
C6A_2 C9A 1_555 1_555
C8A_2 C8_2 1_555 1_555
C9A C9G 1_555 1_555
C9A C9F 1_555 1_555
C9G C9F 1_555 1_555

#END
