
#######################################################################
#
#                 Cambridge Crystallographic Data Centre
#                                CCDC 
#
#######################################################################
#
# If this CIF has been generated from an entry in the Cambridge 
# Structural Database, then it will include bibliographic, chemical, 
# crystal, experimental, refinement or atomic coordinate data resulting 
# from the CCDC's data processing and validation procedures.
#
#######################################################################

data_PODXIR
_chemical_formula_moiety         '(C27 H21 Cd1 Cl2 N7)n'
_symmetry_cell_setting           orthorhombic
_symmetry_space_group_name_H-M   'P n n a'
_symmetry_Int_Tables_number      52
_space_group_name_Hall           '-P 2a 2bc'
loop_
_symmetry_equiv_pos_site_id
_symmetry_equiv_pos_as_xyz
1 x,y,z
2 1/2-x,-y,z
3 x,1/2-y,1/2-z
4 1/2-x,1/2+y,1/2-z
5 -x,-y,-z
6 1/2+x,y,-z
7 -x,1/2+y,1/2+z
8 1/2+x,1/2-y,1/2+z
_cell_length_a                   25.6632(5)
_cell_length_b                   15.0315(3)
_cell_length_c                   17.7572(3)
_cell_angle_alpha                90
_cell_angle_beta                 90
_cell_angle_gamma                90
_cell_volume                     6849.95
loop_
_atom_site_label
_atom_site_type_symbol
_atom_site_fract_x
_atom_site_fract_y
_atom_site_fract_z
Cd1 Cd -0.809696(10) 0.424848(18) -0.543045(14)
Cl1 Cl -0.82516(4) 0.25149(7) -0.54445(5)
Cl2 Cl -0.70595(4) 0.40222(8) -0.53963(6)
N1 N -0.71030(12) 0.6096(2) -1.29672(17)
N2 N -0.84363(14) 0.6743(3) -1.05190(18)
N3 N -0.80740(14) 0.4275(2) -0.6721(2)
N4 N -1.09870(13) 0.9445(2) -1.05311(19)
N5 N -0.81251(17) 0.4684(3) -0.7911(2)
N6 N -1.01860(15) 0.8990(3) -1.0699(2)
N7 N -0.68523(13) 0.5830(2) -1.4136(2)
C1 C -1.06685(15) 0.8759(3) -1.0495(2)
H1 H -1.0766 0.8190 -1.0348
C2 C -0.83467(16) 0.6235(3) -0.9853(2)
C3 C -0.8019(5) 0.3803(4) -0.7899(3)
H2 H -0.7971 0.3437 -0.8315
C4 C -0.8252(2) 0.5342(3) -0.9906(2)
H3 H -0.8235 0.5073 -1.0376
C5 C -0.81812(19) 0.4835(3) -0.9261(2)
H4 H -0.8126 0.4226 -0.9302
C6 C -0.81401(15) 0.4944(3) -0.7187(2)
H5 H -0.8191 0.5529 -0.7034
C7 C -0.64272(16) 0.5789(3) -1.3668(2)
H6 H -0.6089 0.5668 -1.3824
C8 C -0.81916(17) 0.5223(3) -0.8570(2)
C9 C -0.81052(15) 0.6599(3) -1.1150(2)
C10 C -0.72474(15) 0.6032(2) -1.3697(2)
H7 H -0.7586 0.6120 -1.3869
C11 C -0.72413(15) 0.6592(3) -1.1677(2)
H8 H -0.6886 0.6701 -1.1629
C12 C -0.82981(15) 0.6266(3) -1.1819(2)
H9 H -0.8653 0.6154 -1.1867
C13 C -0.65699(16) 0.5950(3) -1.2950(2)
H10 H -0.6355 0.5960 -1.2529
C14 C -0.75735(16) 0.6758(3) -1.1075(2)
H11 H -0.7441 0.6975 -1.0623
C15 C -0.74382(14) 0.6267(2) -1.23456(19)
C16 C -0.88800(17) 0.7294(3) -1.0577(2)
C17 C -0.93263(16) 0.8533(3) -1.1150(3)
H12 H -0.9333 0.8986 -1.1506
C18 C -0.88967(16) 0.7980(3) -1.1098(2)
H13 H -0.8615 0.8070 -1.1418
C19 C -0.97425(17) 0.8412(3) -1.0673(3)
C20 C -0.7996(4) 0.3554(4) -0.7163(3)
H14 H -0.7936 0.2979 -0.6991
C21 C -0.8256(4) 0.6126(4) -0.8516(3)
H15 H -0.8253 0.6401 -0.8046
C22 C -0.79682(15) 0.6098(3) -1.2420(2)
H16 H -0.8100 0.5874 -1.2870
C23 C -0.8326(4) 0.6628(4) -0.9164(3)
H17 H -0.8359 0.7243 -0.9127
C24 C -1.0701(2) 1.0156(3) -1.0770(4)
H18 H -1.0829 1.0726 -1.0853
C25 C -0.9734(2) 0.7731(4) -1.0157(4)
H19 H -1.0015 0.7646 -0.9836
C26 C -0.9302(2) 0.7167(4) -1.0114(3)
H20 H -0.9301 0.6701 -0.9770
C27 C -1.0198(2) 0.9895(4) -1.0868(5)
H21 H -0.9919 1.0248 -1.1018
Cd1A Cd -0.690304(10) 0.575152(18) -1.543045(14)
Cd1A_2 Cd -0.690304(10) 0.575152(18) -0.543045(14)
Cd1F Cd -1.190304(10) 0.924848(18) -1.043045(14)
Cl2A Cl -0.79405(4) 0.59778(8) -0.53963(6)
N4F N -0.90130(13) 0.4445(2) -0.55311(19)
N7A N -0.81477(13) 0.4170(2) -0.4136(2)
loop_
_geom_bond_atom_site_label_1
_geom_bond_atom_site_label_2
_geom_bond_site_symmetry_1
_geom_bond_site_symmetry_2
Cd1 Cl1 1_555 1_555
Cl2 Cd1 1_555 1_555
N1 C10 1_555 1_555
N2 C2 1_555 1_555
N3 Cd1 1_555 1_555
N4 C1 1_555 1_555
N5 C3 1_555 1_555
N6 C1 1_555 1_555
N7 C7 1_555 1_555
C1 H1 1_555 1_555
C2 C4 1_555 1_555
C3 H2 1_555 1_555
C4 H3 1_555 1_555
C5 C4 1_555 1_555
H4 C5 1_555 1_555
C6 N3 1_555 1_555
H5 C6 1_555 1_555
C7 H6 1_555 1_555
C8 N5 1_555 1_555
C9 N2 1_555 1_555
C10 N7 1_555 1_555
H7 C10 1_555 1_555
C11 H8 1_555 1_555
C12 C9 1_555 1_555
H9 C12 1_555 1_555
C13 N1 1_555 1_555
H10 C13 1_555 1_555
C14 C9 1_555 1_555
H11 C14 1_555 1_555
C15 N1 1_555 1_555
C16 N2 1_555 1_555
C17 H12 1_555 1_555
C18 C16 1_555 1_555
H13 C18 1_555 1_555
C19 N6 1_555 1_555
C20 N3 1_555 1_555
H14 C20 1_555 1_555
C21 C8 1_555 1_555
H15 C21 1_555 1_555
C22 C12 1_555 1_555
H16 C22 1_555 1_555
C23 C2 1_555 1_555
H17 C23 1_555 1_555
C24 N4 1_555 1_555
H18 C24 1_555 1_555
C25 C19 1_555 1_555
H19 C25 1_555 1_555
C26 C16 1_555 1_555
H20 C26 1_555 1_555
C27 N6 1_555 1_555
H21 C27 1_555 1_555
Cd1A N7 1_555 1_555
Cd1A_2 Cl2 1_555 1_555
Cd1F N4 1_555 1_555
Cl2A Cd1 1_555 1_555
N4F Cd1 1_555 1_555
N7A Cd1 1_555 1_555
N5 C6 1_555 1_555
C3 C20 1_555 1_555
C5 C8 1_555 1_555
C7 C13 1_555 1_555
C11 C14 1_555 1_555
C11 C15 1_555 1_555
C15 C22 1_555 1_555
C17 C18 1_555 1_555
C17 C19 1_555 1_555
C21 C23 1_555 1_555
C24 C27 1_555 1_555
C25 C26 1_555 1_555
Cd1A_2 Cl2A 1_555 1_555

#END
