
#######################################################################
#
#                 Cambridge Crystallographic Data Centre
#                                CCDC 
#
#######################################################################
#
# If this CIF has been generated from an entry in the Cambridge 
# Structural Database, then it will include bibliographic, chemical, 
# crystal, experimental, refinement or atomic coordinate data resulting 
# from the CCDC's data processing and validation procedures.
#
#######################################################################

data_OLEYEL
_chemical_formula_moiety         'C10 H2 O16 Zn10'
_symmetry_cell_setting           rhombohedral
_symmetry_space_group_name_H-M   'R -3 c'
_symmetry_Int_Tables_number      167
_space_group_name_Hall           '-R 3 2"c'
loop_
_symmetry_equiv_pos_site_id
_symmetry_equiv_pos_as_xyz
1 x,y,z
2 -y,x-y,z
3 -x+y,-x,z
4 y,x,1/2-z
5 x-y,-y,1/2-z
6 -x,-x+y,1/2-z
7 2/3+x,1/3+y,1/3+z
8 2/3-y,1/3+x-y,1/3+z
9 2/3-x+y,1/3-x,1/3+z
10 2/3+y,1/3+x,5/6-z
11 2/3+x-y,1/3-y,5/6-z
12 2/3-x,1/3-x+y,5/6-z
13 1/3+x,2/3+y,2/3+z
14 1/3-y,2/3+x-y,2/3+z
15 1/3-x+y,2/3-x,2/3+z
16 1/3+y,2/3+x,1/6-z
17 1/3+x-y,2/3-y,1/6-z
18 1/3-x,2/3-x+y,1/6-z
19 -x,-y,-z
20 y,-x+y,-z
21 x-y,x,-z
22 -y,-x,1/2+z
23 -x+y,y,1/2+z
24 x,x-y,1/2+z
25 1/3-x,2/3-y,2/3-z
26 1/3+y,2/3-x+y,2/3-z
27 1/3+x-y,2/3+x,2/3-z
28 1/3-y,2/3-x,1/6+z
29 1/3-x+y,2/3+y,1/6+z
30 1/3+x,2/3+x-y,1/6+z
31 2/3-x,1/3-y,1/3-z
32 2/3+y,1/3-x+y,1/3-z
33 2/3+x-y,1/3+x,1/3-z
34 2/3-y,1/3-x,5/6+z
35 2/3-x+y,1/3+y,5/6+z
36 2/3+x,1/3+x-y,5/6+z
_cell_length_a                   22.9511(8)
_cell_length_b                   22.9511(8)
_cell_length_c                   15.8965(11)
_cell_angle_alpha                90
_cell_angle_beta                 90
_cell_angle_gamma                120
_cell_volume                     7251.69
loop_
_atom_site_label
_atom_site_type_symbol
_atom_site_fract_x
_atom_site_fract_y
_atom_site_fract_z
Zn1 Zn 0.6667 0.76195(12) 1.0833
Zn2 Zn 0.6412(2) 0.8815(2) 1.0754(3)
O1 O 0.6825(9) 0.8338(6) 1.0057(7)
O2 O 0.7509(9) 1.0116(6) 0.8783(6)
C1 C 0.6899(9) 0.8917(8) 0.8784(7)
O3 O 0.6988(7) 0.9635(9) 0.9961(7)
C2 C 0.6534(12) 0.7773(9) 0.8753(8)
H1 H 0.6441 0.7378 0.9028
C3 C 0.6761(13) 0.8344(13) 0.9217(10)
C4 C 0.7180(12) 0.9610(10) 0.9191(10)
O4 O 0.5388(19) 0.8431(18) 1.0340(14)
C5 C 0.517(2) 0.841(3) 0.9571(15)
O1X O 0.6508(9) 0.8329(6) 0.6610(7)
O2X O 0.5824(9) 0.6551(6) 0.7884(6)
C1X C 0.6434(9) 0.7750(8) 0.7883(7)
O3X O 0.6345(7) 0.7032(9) 0.6706(7)
C2X C 0.6799(12) 0.8894(9) 0.7914(8)
H1X H 0.6892 0.9289 0.7639
C3X C 0.6572(13) 0.8323(13) 0.7450(10)
C4X C 0.6153(12) 0.7057(10) 0.7476(10)
O4I O 0.5098(18) 0.8721(19) 0.7993(14)
C5I C 0.508(3) 0.850(2) 0.8762(15)
Zn2I Zn 0.5482(2) 0.9745(2) 0.7579(3)
Zn1J Zn 0.57142(12) 0.57138(12) 0.7500
Zn1S Zn 0.76195(12) 1.09525(12) 0.9167
Zn1W Zn 0.6667 0.90475(12) 0.5833
Zn2N Zn 0.5736(3) 1.0255(2) 0.7421(3)
Zn2Q Zn 0.6921(2) 0.9070(3) 1.0913(3)
Zn2W Zn 0.6412(2) 0.7597(3) 0.5754(3)
Zn2X Zn 0.6921(2) 0.7852(2) 0.5913(3)
O1I O 0.5005(6) 1.0158(9) 0.8276(7)
O1N O 0.4846(11) 0.9842(9) 0.6724(7)
O1Q O 0.6508(9) 0.8180(11) 1.1610(7)
O2T O 0.7393(11) 0.7509(9) 1.1217(6)
O2BA O 0.5940(11) 0.6783(6) 1.0450(6)
O3I O 0.6302(9) 1.0321(7) 0.8372(7)
O3N O 0.5980(11) 0.9679(7) 0.6628(7)
O3Q O 0.6345(7) 0.9314(11) 1.1706(7)
loop_
_geom_bond_atom_site_label_1
_geom_bond_atom_site_label_2
_geom_bond_site_symmetry_1
_geom_bond_site_symmetry_2
Zn1 O1 1_555 1_555
Zn2 O1 1_555 1_555
O1 C3 1_555 1_555
O2 C4 1_555 1_555
C1 C3 1_555 1_555
O3 Zn2 1_555 1_555
C2 H1 1_555 1_555
C3 C2 1_555 1_555
C4 C1 1_555 1_555
O4 Zn2 1_555 1_555
C5 O4 1_555 1_555
O1X C3X 1_555 1_555
O2X C4X 1_555 1_555
C1X C2 1_555 1_555
O3X C4X 1_555 1_555
C2X C1 1_555 1_555
H1X C2X 1_555 1_555
C3X C1X 1_555 1_555
C4X C1X 1_555 1_555
O4I C5I 1_555 1_555
C5I C5 1_555 1_555
Zn2I O4I 1_555 1_555
Zn1J O2X 1_555 1_555
Zn1S O2 1_555 1_555
Zn1W O1X 1_555 1_555
Zn2N Zn2I 1_555 1_555
Zn2Q Zn2 1_555 1_555
Zn2W O1X 1_555 1_555
Zn2X O1X 1_555 1_555
O1I Zn2I 1_555 1_555
O1N Zn2I 1_555 1_555
O1Q Zn1 1_555 1_555
O2T Zn1 1_555 1_555
O2BA Zn1 1_555 1_555
O3I Zn2I 1_555 1_555
O3N Zn2I 1_555 1_555
O3Q Zn2 1_555 1_555
Zn2 O1Q 1_555 1_555
O1 Zn2Q 1_555 1_555
O3 C4 1_555 1_555
O3 Zn2Q 1_555 1_555
O3X Zn2W 1_555 1_555
O3X Zn2X 1_555 1_555
C2X C3X 1_555 1_555
Zn2N O1I 1_555 1_555
Zn2N O1N 1_555 1_555
Zn2N O3I 1_555 1_555
Zn2N O3N 1_555 1_555
Zn2Q O1Q 1_555 1_555
Zn2Q O3Q 1_555 1_555
Zn2W Zn2X 1_555 1_555

#END
