
#######################################################################
#
#                 Cambridge Crystallographic Data Centre
#                                CCDC 
#
#######################################################################
#
# If this CIF has been generated from an entry in the Cambridge 
# Structural Database, then it will include bibliographic, chemical, 
# crystal, experimental, refinement or atomic coordinate data resulting 
# from the CCDC's data processing and validation procedures.
#
#######################################################################

data_OLEYAH
_chemical_formula_moiety         '(C8 H2 O6 Zn2)n'
_symmetry_cell_setting           rhombohedral
_symmetry_space_group_name_H-M   'R -3 c'
_symmetry_Int_Tables_number      167
_space_group_name_Hall           '-R 3 2"c'
loop_
_symmetry_equiv_pos_site_id
_symmetry_equiv_pos_as_xyz
1 x,y,z
2 -y,x-y,z
3 -x+y,-x,z
4 y,x,1/2-z
5 x-y,-y,1/2-z
6 -x,-x+y,1/2-z
7 2/3+x,1/3+y,1/3+z
8 2/3-y,1/3+x-y,1/3+z
9 2/3-x+y,1/3-x,1/3+z
10 2/3+y,1/3+x,5/6-z
11 2/3+x-y,1/3-y,5/6-z
12 2/3-x,1/3-x+y,5/6-z
13 1/3+x,2/3+y,2/3+z
14 1/3-y,2/3+x-y,2/3+z
15 1/3-x+y,2/3-x,2/3+z
16 1/3+y,2/3+x,1/6-z
17 1/3+x-y,2/3-y,1/6-z
18 1/3-x,2/3-x+y,1/6-z
19 -x,-y,-z
20 y,-x+y,-z
21 x-y,x,-z
22 -y,-x,1/2+z
23 -x+y,y,1/2+z
24 x,x-y,1/2+z
25 1/3-x,2/3-y,2/3-z
26 1/3+y,2/3-x+y,2/3-z
27 1/3+x-y,2/3+x,2/3-z
28 1/3-y,2/3-x,1/6+z
29 1/3-x+y,2/3+y,1/6+z
30 1/3+x,2/3+x-y,1/6+z
31 2/3-x,1/3-y,1/3-z
32 2/3+y,1/3-x+y,1/3-z
33 2/3+x-y,1/3+x,1/3-z
34 2/3-y,1/3-x,5/6+z
35 2/3-x+y,1/3+y,5/6+z
36 2/3+x,1/3+x-y,5/6+z
_cell_length_a                   22.9556(13)
_cell_length_b                   22.9556(13)
_cell_length_c                   15.883(2)
_cell_angle_alpha                90
_cell_angle_beta                 90
_cell_angle_gamma                120
_cell_volume                     7248.37
loop_
_atom_site_label
_atom_site_type_symbol
_atom_site_fract_x
_atom_site_fract_y
_atom_site_fract_z
C1 C 0.6750(8) 0.8328(7) -0.0788(7)
C2 C 0.6879(7) 0.8925(6) -0.1214(6)
C3 C 0.6526(7) 0.7731(7) -0.1239(8)
H1 H 0.6427 0.7334 -0.0964
C4 C 0.7161(9) 0.9581(5) -0.0790(7)
O1 O 0.7520(6) 1.0123(4) -0.1218(5)
O2 O 0.6835(5) 0.8344(4) 0.0060(4)
O3 O 0.7002(5) 0.9637(4) -0.0043(5)
Zn1 Zn 0.6667 0.76134(9) 0.0833
Zn2 Zn 0.6667 0.89296(14) 0.0833
C1X C 0.6583(8) 0.8339(7) -0.2545(7)
C2X C 0.6454(7) 0.7742(6) -0.2119(6)
C3X C 0.6807(7) 0.8936(7) -0.2094(8)
H1X H 0.6906 0.9333 -0.2369
O2X O 0.6498(5) 0.8323(4) -0.3393(4)
C4X C 0.6172(9) 0.7086(5) -0.2543(7)
O1X O 0.5813(6) 0.6544(4) -0.2115(5)
O3X O 0.6331(5) 0.7030(4) -0.3290(5)
O1T O 0.7397(7) 0.7520(6) 0.1218(5)
O1BA O 0.5936(7) 0.6790(4) 0.0449(5)
O2Q O 0.6498(5) 0.8176(6) 0.1607(4)
O3Q O 0.6331(5) 0.9302(6) 0.1710(5)
Zn1J Zn 0.57203(9) 0.57199(9) -0.2500
Zn1S Zn 0.76134(9) 1.09464(9) -0.0833
Zn1W Zn 0.6667 0.90536(9) -0.4167
Zn2W Zn 0.6667 0.77374(14) -0.4167
loop_
_geom_bond_atom_site_label_1
_geom_bond_atom_site_label_2
_geom_bond_site_symmetry_1
_geom_bond_site_symmetry_2
C1 C2 1_555 1_555
C2 C4 1_555 1_555
C3 C1 1_555 1_555
H1 C3 1_555 1_555
C4 O1 1_555 1_555
O1 Zn1S 1_555 1_555
O2 C1 1_555 1_555
O3 C4 1_555 1_555
Zn1 O2 1_555 1_555
Zn2 O2 1_555 1_555
C1X C2X 1_555 1_555
C2X C3 1_555 1_555
C3X C2 1_555 1_555
H1X C3X 1_555 1_555
O2X C1X 1_555 1_555
C4X C2X 1_555 1_555
O1X C4X 1_555 1_555
O3X C4X 1_555 1_555
O1T Zn1 1_555 1_555
O1BA Zn1 1_555 1_555
O2Q Zn1 1_555 1_555
O3Q Zn2 1_555 1_555
Zn1J O1X 1_555 1_555
Zn1W O2X 1_555 1_555
Zn2W O2X 1_555 1_555
O3 Zn2 1_555 1_555
Zn2 O2Q 1_555 1_555
C1X C3X 1_555 1_555
O3X Zn2W 1_555 1_555

#END
