
#######################################################################
#
#                 Cambridge Crystallographic Data Centre
#                                CCDC 
#
#######################################################################
#
# If this CIF has been generated from an entry in the Cambridge 
# Structural Database, then it will include bibliographic, chemical, 
# crystal, experimental, refinement or atomic coordinate data resulting 
# from the CCDC's data processing and validation procedures.
#
#######################################################################

data_OLOPUC
_chemical_formula_moiety         'C8 H2 O12 Zn8'
_symmetry_cell_setting           rhombohedral
_symmetry_space_group_name_H-M   'R -3 c'
_symmetry_Int_Tables_number      167
_space_group_name_Hall           '-R 3 2"c'
loop_
_symmetry_equiv_pos_site_id
_symmetry_equiv_pos_as_xyz
1 x,y,z
2 -y,x-y,z
3 -x+y,-x,z
4 y,x,1/2-z
5 x-y,-y,1/2-z
6 -x,-x+y,1/2-z
7 2/3+x,1/3+y,1/3+z
8 2/3-y,1/3+x-y,1/3+z
9 2/3-x+y,1/3-x,1/3+z
10 2/3+y,1/3+x,5/6-z
11 2/3+x-y,1/3-y,5/6-z
12 2/3-x,1/3-x+y,5/6-z
13 1/3+x,2/3+y,2/3+z
14 1/3-y,2/3+x-y,2/3+z
15 1/3-x+y,2/3-x,2/3+z
16 1/3+y,2/3+x,1/6-z
17 1/3+x-y,2/3-y,1/6-z
18 1/3-x,2/3-x+y,1/6-z
19 -x,-y,-z
20 y,-x+y,-z
21 x-y,x,-z
22 -y,-x,1/2+z
23 -x+y,y,1/2+z
24 x,x-y,1/2+z
25 1/3-x,2/3-y,2/3-z
26 1/3+y,2/3-x+y,2/3-z
27 1/3+x-y,2/3+x,2/3-z
28 1/3-y,2/3-x,1/6+z
29 1/3-x+y,2/3+y,1/6+z
30 1/3+x,2/3+x-y,1/6+z
31 2/3-x,1/3-y,1/3-z
32 2/3+y,1/3-x+y,1/3-z
33 2/3+x-y,1/3+x,1/3-z
34 2/3-y,1/3-x,5/6+z
35 2/3-x+y,1/3+y,5/6+z
36 2/3+x,1/3+x-y,5/6+z
_cell_length_a                   22.9857(4)
_cell_length_b                   22.9857(4)
_cell_length_c                   15.8950(5)
_cell_angle_alpha                90
_cell_angle_beta                 90
_cell_angle_gamma                120
_cell_volume                     7272.88
loop_
_atom_site_label
_atom_site_type_symbol
_atom_site_fract_x
_atom_site_fract_y
_atom_site_fract_z
_atom_site_U_iso_or_equiv
_atom_site_thermal_displace_type
C1 C 0.6905(5) 0.8937(5) 0.8794(5) 0.0691 Uani
C2 C 0.6823(5) 0.8926(5) 0.7916(5) 0.0717 Uani
H1 H 0.6932 0.9322 0.7635 0.0860 Uiso
C3 C 0.7158(5) 0.9591(5) 0.9224(5) 0.0712 Uani
C4 C 0.6753(6) 0.8337(5) 0.9209(5) 0.0740 Uani
O1 O 0.6842(4) 0.8342(4) 1.0051(3) 0.0837 Uani
O2 O 0.7000(4) 0.9626(3) 0.9966(3) 0.0830 Uani
O3 O 0.7520(3) 1.0111(3) 0.8792(3) 0.0738 Uani
O4 O 0.5492(12) 0.8372(11) 1.0288(10) 0.1291 Uani
Zn1 Zn 0.6667 0.76173(6) 1.0833 0.0642 Uani
Zn2 Zn 0.64342(14) 0.88174(12) 1.07629(18) 0.0823 Uani
C1X C 0.6428(5) 0.7730(5) 0.7873(5) 0.0691 Uani
C2X C 0.6510(5) 0.7741(5) 0.8751(5) 0.0717 Uani
H1X H 0.6401 0.7345 0.9032 0.0860 Uiso
C3X C 0.6175(5) 0.7076(5) 0.7443(5) 0.0712 Uani
C4X C 0.6580(6) 0.8330(5) 0.7458(5) 0.0740 Uani
O1X O 0.6491(4) 0.8325(4) 0.6616(3) 0.0837 Uani
O2X O 0.6333(4) 0.7041(3) 0.6701(3) 0.0830 Uani
O3X O 0.5813(3) 0.6556(3) 0.7875(3) 0.0738 Uani
O4Q O 0.7841(12) 0.9547(16) 1.1379(10) 0.1291 Uani
Zn2Q Zn 0.68991(14) 0.90499(18) 1.09038(18) 0.0823 Uani
O1Q O 0.6491(4) 0.8167(6) 1.1616(3) 0.0837 Uani
O2Q O 0.6333(4) 0.9293(5) 1.1701(3) 0.0830 Uani
O3T O 0.7409(4) 0.7520(3) 1.1208(3) 0.0738 Uani
O3BA O 0.5924(4) 0.6778(3) 1.0459(3) 0.0738 Uani
Zn1J Zn 0.57164(6) 0.57160(6) 0.7500 0.0642 Uani
Zn1S Zn 0.76173(6) 1.09503(6) 0.9167 0.0642 Uani
Zn1W Zn 0.6667 0.90497(6) 0.5833 0.0642 Uani
Zn2W Zn 0.64342(14) 0.76168(18) 0.57629(18) 0.0823 Uani
Zn2X Zn 0.68991(14) 0.78493(12) 0.59038(18) 0.0823 Uani
loop_
_atom_site_aniso_label
_atom_site_aniso_U_11
_atom_site_aniso_U_22
_atom_site_aniso_U_33
_atom_site_aniso_U_23
_atom_site_aniso_U_13
_atom_site_aniso_U_12
C1 0.094(7) 0.076(6) 0.042(4) 0.003(4) 0.005(4) 0.046(5)
C2 0.113(8) 0.073(6) 0.039(4) -0.002(3) -0.002(4) 0.054(5)
C3 0.098(7) 0.084(6) 0.051(4) -0.001(4) -0.002(4) 0.060(6)
C4 0.108(8) 0.080(6) 0.042(4) 0.003(4) 0.005(4) 0.053(6)
O1 0.129(6) 0.095(5) 0.031(3) -0.003(3) -0.002(3) 0.059(5)
O2 0.131(6) 0.081(4) 0.045(3) -0.001(3) 0.007(3) 0.059(4)
O3 0.088(5) 0.072(4) 0.056(3) 0.002(3) 0.001(3) 0.036(4)
O4 0.18(2) 0.159(18) 0.078(9) -0.011(10) -0.024(11) 0.107(16)
Zn1 0.0818(19) 0.0682(17) 0.0472(17) -0.0018(3) -0.0036(6) 0.0409(10)
Zn2 0.136(3) 0.084(2) 0.047(2) 0.0058(12) 0.0100(18) 0.070(2)
C1X 0.094 0.076 0.042 0.003 0.005 0.046
C2X 0.113 0.073 0.039 -0.002 -0.002 0.054
C3X 0.098 0.084 0.051 -0.001 -0.002 0.06
C4X 0.108 0.08 0.042 0.003 0.005 0.053
O1X 0.129 0.095 0.031 -0.003 -0.002 0.059
O2X 0.131 0.081 0.045 -0.001 0.007 0.059
O3X 0.088 0.072 0.056 0.002 0.001 0.036
O4Q 0.18 0.125 0.078 -0.013 -0.024 0.073
Zn2Q 0.136 0.08 0.047 0.0042 0.01 0.066
O1Q 0.129 0.106 0.031 0.001 -0.002 0.07
O2Q 0.131 0.094 0.045 0.008 0.007 0.072
O3T 0.088 0.088 0.056 -0.001 0.001 0.052
O3BA 0.088 0.072 0.056 0.002 0.001 0.036
Zn1J 0.0682 0.0682 0.0472 -0.0018 0.0018 0.0273
Zn1S 0.0682 0.0682 0.0472 -0.0018 0.0018 0.0273
Zn1W 0.0818 0.0682 0.0472 -0.0018 -0.0036 0.0409
Zn2W 0.136 0.08 0.047 0.0042 0.01 0.066
Zn2X 0.136 0.084 0.047 0.0058 0.01 0.07
loop_
_geom_bond_atom_site_label_1
_geom_bond_atom_site_label_2
_geom_bond_site_symmetry_1
_geom_bond_site_symmetry_2
C1 C2 1_555 1_555
C2 H1 1_555 1_555
C3 C1 1_555 1_555
C4 C1 1_555 1_555
O1 C4 1_555 1_555
O2 C3 1_555 1_555
O3 C3 1_555 1_555
O4 Zn2 1_555 1_555
Zn1 O1 1_555 1_555
Zn2 O1 1_555 1_555
C1X C2X 1_555 1_555
C2X C4 1_555 1_555
H1X C2X 1_555 1_555
C3X C1X 1_555 1_555
C4X C2 1_555 1_555
O1X C4X 1_555 1_555
O2X C3X 1_555 1_555
O3X C3X 1_555 1_555
O4Q Zn2Q 1_555 1_555
Zn2Q O1 1_555 1_555
O1Q Zn1 1_555 1_555
O2Q Zn2 1_555 1_555
O3T Zn1 1_555 1_555
O3BA Zn1 1_555 1_555
Zn1J O3X 1_555 1_555
Zn1S O3 1_555 1_555
Zn1W O1X 1_555 1_555
Zn2W O1X 1_555 1_555
Zn2X O1X 1_555 1_555
O2 Zn2 1_555 1_555
O2 Zn2Q 1_555 1_555
Zn2 Zn2Q 1_555 1_555
Zn2 O1Q 1_555 1_555
C1X C4X 1_555 1_555
O2X Zn2W 1_555 1_555
O2X Zn2X 1_555 1_555
Zn2Q O1Q 1_555 1_555
Zn2Q O2Q 1_555 1_555
Zn2W Zn2X 1_555 1_555

#END
