
#######################################################################
#
#                 Cambridge Crystallographic Data Centre
#                                CCDC 
#
#######################################################################
#
# If this CIF has been generated from an entry in the Cambridge 
# Structural Database, then it will include bibliographic, chemical, 
# crystal, experimental, refinement or atomic coordinate data resulting 
# from the CCDC's data processing and validation procedures.
#
#######################################################################

data_TAKCAM
_chemical_formula_moiety         '(C42 H28 Hf3 N6 O16)n'
_symmetry_cell_setting           cubic
_symmetry_space_group_name_H-M   'F m -3 m'
_symmetry_Int_Tables_number      225
_space_group_name_Hall           '-F 4 2 3'
loop_
_symmetry_equiv_pos_site_id
_symmetry_equiv_pos_as_xyz
1 x,y,z
2 x,1/2+y,1/2+z
3 1/2+x,y,1/2+z
4 1/2+x,1/2+y,z
5 y,z,x
6 y,1/2+z,1/2+x
7 1/2+y,z,1/2+x
8 1/2+y,1/2+z,x
9 z,x,y
10 z,1/2+x,1/2+y
11 1/2+z,x,1/2+y
12 1/2+z,1/2+x,y
13 -x,-y,z
14 -x,1/2-y,1/2+z
15 1/2-x,-y,1/2+z
16 1/2-x,1/2-y,z
17 -y,-z,x
18 -y,1/2-z,1/2+x
19 1/2-y,-z,1/2+x
20 1/2-y,1/2-z,x
21 -z,-x,y
22 -z,1/2-x,1/2+y
23 1/2-z,-x,1/2+y
24 1/2-z,1/2-x,y
25 y,-z,-x
26 y,1/2-z,1/2-x
27 1/2+y,-z,1/2-x
28 1/2+y,1/2-z,-x
29 z,-x,-y
30 z,1/2-x,1/2-y
31 1/2+z,-x,1/2-y
32 1/2+z,1/2-x,-y
33 -z,x,-y
34 -z,1/2+x,1/2-y
35 1/2-z,x,1/2-y
36 1/2-z,1/2+x,-y
37 -x,y,-z
38 -x,1/2+y,1/2-z
39 1/2-x,y,1/2-z
40 1/2-x,1/2+y,-z
41 -y,z,-x
42 -y,1/2+z,1/2-x
43 1/2-y,z,1/2-x
44 1/2-y,1/2+z,-x
45 x,-y,-z
46 x,1/2-y,1/2-z
47 1/2+x,-y,1/2-z
48 1/2+x,1/2-y,-z
49 -y,-x,-z
50 -y,1/2-x,1/2-z
51 1/2-y,-x,1/2-z
52 1/2-y,1/2-x,-z
53 -z,-y,-x
54 -z,1/2-y,1/2-x
55 1/2-z,-y,1/2-x
56 1/2-z,1/2-y,-x
57 -x,-z,-y
58 -x,1/2-z,1/2-y
59 1/2-x,-z,1/2-y
60 1/2-x,1/2-z,-y
61 y,x,-z
62 y,1/2+x,1/2-z
63 1/2+y,x,1/2-z
64 1/2+y,1/2+x,-z
65 z,y,-x
66 z,1/2+y,1/2-x
67 1/2+z,y,1/2-x
68 1/2+z,1/2+y,-x
69 x,z,-y
70 x,1/2+z,1/2-y
71 1/2+x,z,1/2-y
72 1/2+x,1/2+z,-y
73 z,-y,x
74 z,1/2-y,1/2+x
75 1/2+z,-y,1/2+x
76 1/2+z,1/2-y,x
77 x,-z,y
78 x,1/2-z,1/2+y
79 1/2+x,-z,1/2+y
80 1/2+x,1/2-z,y
81 -x,z,y
82 -x,1/2+z,1/2+y
83 1/2-x,z,1/2+y
84 1/2-x,1/2+z,y
85 -y,x,z
86 -y,1/2+x,1/2+z
87 1/2-y,x,1/2+z
88 1/2-y,1/2+x,z
89 -z,y,x
90 -z,1/2+y,1/2+x
91 1/2-z,y,1/2+x
92 1/2-z,1/2+y,x
93 y,-x,z
94 y,1/2-x,1/2+z
95 1/2+y,-x,1/2+z
96 1/2+y,1/2-x,z
97 -x,-y,-z
98 -x,1/2-y,1/2-z
99 1/2-x,-y,1/2-z
100 1/2-x,1/2-y,-z
101 -y,-z,-x
102 -y,1/2-z,1/2-x
103 1/2-y,-z,1/2-x
104 1/2-y,1/2-z,-x
105 -z,-x,-y
106 -z,1/2-x,1/2-y
107 1/2-z,-x,1/2-y
108 1/2-z,1/2-x,-y
109 x,y,-z
110 x,1/2+y,1/2-z
111 1/2+x,y,1/2-z
112 1/2+x,1/2+y,-z
113 y,z,-x
114 y,1/2+z,1/2-x
115 1/2+y,z,1/2-x
116 1/2+y,1/2+z,-x
117 z,x,-y
118 z,1/2+x,1/2-y
119 1/2+z,x,1/2-y
120 1/2+z,1/2+x,-y
121 -y,z,x
122 -y,1/2+z,1/2+x
123 1/2-y,z,1/2+x
124 1/2-y,1/2+z,x
125 -z,x,y
126 -z,1/2+x,1/2+y
127 1/2-z,x,1/2+y
128 1/2-z,1/2+x,y
129 z,-x,y
130 z,1/2-x,1/2+y
131 1/2+z,-x,1/2+y
132 1/2+z,1/2-x,y
133 x,-y,z
134 x,1/2-y,1/2+z
135 1/2+x,-y,1/2+z
136 1/2+x,1/2-y,z
137 y,-z,x
138 y,1/2-z,1/2+x
139 1/2+y,-z,1/2+x
140 1/2+y,1/2-z,x
141 -x,y,z
142 -x,1/2+y,1/2+z
143 1/2-x,y,1/2+z
144 1/2-x,1/2+y,z
145 y,x,z
146 y,1/2+x,1/2+z
147 1/2+y,x,1/2+z
148 1/2+y,1/2+x,z
149 z,y,x
150 z,1/2+y,1/2+x
151 1/2+z,y,1/2+x
152 1/2+z,1/2+y,x
153 x,z,y
154 x,1/2+z,1/2+y
155 1/2+x,z,1/2+y
156 1/2+x,1/2+z,y
157 -y,-x,z
158 -y,1/2-x,1/2+z
159 1/2-y,-x,1/2+z
160 1/2-y,1/2-x,z
161 -z,-y,x
162 -z,1/2-y,1/2+x
163 1/2-z,-y,1/2+x
164 1/2-z,1/2-y,x
165 -x,-z,y
166 -x,1/2-z,1/2+y
167 1/2-x,-z,1/2+y
168 1/2-x,1/2-z,y
169 -z,y,-x
170 -z,1/2+y,1/2-x
171 1/2-z,y,1/2-x
172 1/2-z,1/2+y,-x
173 -x,z,-y
174 -x,1/2+z,1/2-y
175 1/2-x,z,1/2-y
176 1/2-x,1/2+z,-y
177 x,-z,-y
178 x,1/2-z,1/2-y
179 1/2+x,-z,1/2-y
180 1/2+x,1/2-z,-y
181 y,-x,-z
182 y,1/2-x,1/2-z
183 1/2+y,-x,1/2-z
184 1/2+y,1/2-x,-z
185 z,-y,-x
186 z,1/2-y,1/2-x
187 1/2+z,-y,1/2-x
188 1/2+z,1/2-y,-x
189 -y,x,-z
190 -y,1/2+x,1/2-z
191 1/2-y,x,1/2-z
192 1/2-y,1/2+x,-z
_cell_length_a                   29.2116(9)
_cell_length_b                   29.2116(9)
_cell_length_c                   29.2116(9)
_cell_angle_alpha                90
_cell_angle_beta                 90
_cell_angle_gamma                90
_cell_volume                     24926.8
loop_
_atom_site_label
_atom_site_type_symbol
_atom_site_fract_x
_atom_site_fract_y
_atom_site_fract_z
_atom_site_U_iso_or_equiv
_atom_site_thermal_displace_type
Hf1 Hf 0.58378(4) 0.5000 0.5000 0.0511 Uani
O1 O 0.5412(5) 0.4588(5) 0.4588(5) 0.0890 Uani
O2 O 0.6212(4) 0.5651(4) 0.5000 0.1240 Uiso
C1 C 0.6073(4) 0.6073(4) 0.5000 0.1238 Uiso
C2 C 0.6429(4) 0.6429(4) 0.5000 0.1232 Uiso
C3 C 0.6301(5) 0.6883(5) 0.500000(9) 0.1231 Uiso
H1 H 0.5574 0.4426 0.4426 0.1064 Uiso
H2 H 0.5987 0.6966 0.5000 0.1463 Uiso
C4 C 0.7088(4) 0.7088(4) 0.5000 0.1214 Uiso
N1 N 0.7373(6) 0.7373(6) 0.5000 0.1212 Uiso
H3 H 0.6551 0.7531 0.5000 0.1457 Uiso
C5 C 0.6634(5) 0.7217(5) 0.500000(9) 0.1220 Uiso
O2UC O 0.8788(4) 0.9349(4) 0.5000 0.1240 Uiso
C1UC C 0.8927(4) 0.8927(4) 0.5000 0.1238 Uiso
C2UC C 0.8571(4) 0.8571(4) 0.5000 0.1232 Uiso
C3UC C 0.8699(5) 0.8117(5) 0.500000(9) 0.1231 Uiso
H2UC H 0.9013 0.8034 0.5000 0.1463 Uiso
C4UC C 0.7912(4) 0.7912(4) 0.5000 0.1214 Uiso
H3UC H 0.8449 0.7469 0.5000 0.1457 Uiso
C5UC C 0.8366(5) 0.7783(5) 0.500000(9) 0.1220 Uiso
N1UC N 0.7627(6) 0.7627(6) 0.5000 0.1212 Uiso
O2NE O 0.5651(4) 0.6212(4) 0.5000 0.1240 Uiso
C3NE C 0.6883(5) 0.6301(5) 0.500000(9) 0.1231 Uiso
H2NE H 0.6966 0.5987 0.5000 0.1463 Uiso
H3NE H 0.7531 0.6551 0.5000 0.1457 Uiso
C5NE C 0.7217(5) 0.6634(5) 0.500000(9) 0.1220 Uiso
O2YA O 0.9349(4) 0.8788(4) 0.5000 0.1240 Uiso
C3YA C 0.8117(5) 0.8699(5) 0.500000(9) 0.1231 Uiso
H2YA H 0.8034 0.9013 0.5000 0.1463 Uiso
H3YA H 0.7469 0.8449 0.5000 0.1457 Uiso
C5YA C 0.7783(5) 0.8366(5) 0.500000(9) 0.1220 Uiso
Hf1D Hf 0.5000 0.5000 0.58378(4) 0.0511 Uani
O1D O 0.4588(5) 0.4588(5) 0.5412(5) 0.0890 Uani
O2D O 0.5651(4) 0.5000 0.6212(4) 0.1240 Uiso
C1D C 0.6073(4) 0.5000 0.6073(4) 0.1238 Uiso
C2D C 0.6429(4) 0.5000 0.6429(4) 0.1232 Uiso
C3D C 0.6883(5) 0.500000(9) 0.6301(5) 0.1231 Uiso
H1D H 0.4426 0.4426 0.5574 0.1064 Uiso
H2D H 0.6966 0.5000 0.5987 0.1463 Uiso
C4D C 0.7088(4) 0.5000 0.7088(4) 0.1214 Uiso
N1D N 0.7373(6) 0.5000 0.7373(6) 0.1212 Uiso
H3D H 0.7531 0.5000 0.6551 0.1457 Uiso
C5D C 0.7217(5) 0.500000(9) 0.6634(5) 0.1220 Uiso
O2XC O 0.9349(4) 0.5000 0.8788(4) 0.1240 Uiso
C1XC C 0.8927(4) 0.5000 0.8927(4) 0.1238 Uiso
C2XC C 0.8571(4) 0.5000 0.8571(4) 0.1232 Uiso
C3XC C 0.8117(5) 0.500000(9) 0.8699(5) 0.1231 Uiso
H2XC H 0.8034 0.5000 0.9013 0.1463 Uiso
C4XC C 0.7912(4) 0.5000 0.7912(4) 0.1214 Uiso
H3XC H 0.7469 0.5000 0.8449 0.1457 Uiso
C5XC C 0.7783(5) 0.500000(9) 0.8366(5) 0.1220 Uiso
N1XC N 0.7627(6) 0.5000 0.7627(6) 0.1212 Uiso
O2VE O 0.6212(4) 0.5000 0.5651(4) 0.1240 Uiso
C3VE C 0.6301(5) 0.500000(9) 0.6883(5) 0.1231 Uiso
H2VE H 0.5987 0.5000 0.6966 0.1463 Uiso
H3VE H 0.6551 0.5000 0.7531 0.1457 Uiso
C5VE C 0.6634(5) 0.500000(9) 0.7217(5) 0.1220 Uiso
O2FB O 0.8788(4) 0.5000 0.9349(4) 0.1240 Uiso
C3FB C 0.8699(5) 0.500000(9) 0.8117(5) 0.1231 Uiso
H2FB H 0.9013 0.5000 0.8034 0.1463 Uiso
H3FB H 0.8449 0.5000 0.7469 0.1457 Uiso
C5FB C 0.8366(5) 0.500000(9) 0.7783(5) 0.1220 Uiso
Hf1XC Hf 1.0000 0.5000 0.91622(4) 0.0511 Uani
O2H O 0.5000 0.6212(4) 0.5651(4) 0.1240 Uiso
C1H C 0.5000 0.6073(4) 0.6073(4) 0.1238 Uiso
C2H C 0.5000 0.6429(4) 0.6429(4) 0.1232 Uiso
C3H C 0.500000(9) 0.6301(5) 0.6883(5) 0.1231 Uiso
H2H H 0.5000 0.5987 0.6966 0.1463 Uiso
C4H C 0.5000 0.7088(4) 0.7088(4) 0.1214 Uiso
N1H N 0.5000 0.7373(6) 0.7373(6) 0.1212 Uiso
H3H H 0.5000 0.6551 0.7531 0.1457 Uiso
C5H C 0.500000(9) 0.6634(5) 0.7217(5) 0.1220 Uiso
O2AD O 0.5000 0.8788(4) 0.9349(4) 0.1240 Uiso
C1AD C 0.5000 0.8927(4) 0.8927(4) 0.1238 Uiso
C2AD C 0.5000 0.8571(4) 0.8571(4) 0.1232 Uiso
C3AD C 0.500000(9) 0.8699(5) 0.8117(5) 0.1231 Uiso
H2AD H 0.5000 0.9013 0.8034 0.1463 Uiso
C4AD C 0.5000 0.7912(4) 0.7912(4) 0.1214 Uiso
H3AD H 0.5000 0.8449 0.7469 0.1457 Uiso
C5AD C 0.500000(9) 0.8366(5) 0.7783(5) 0.1220 Uiso
N1AD N 0.5000 0.7627(6) 0.7627(6) 0.1212 Uiso
O2RE O 0.5000 0.5651(4) 0.6212(4) 0.1240 Uiso
C3RE C 0.500000(9) 0.6883(5) 0.6301(5) 0.1231 Uiso
H2RE H 0.5000 0.6966 0.5987 0.1463 Uiso
H3RE H 0.5000 0.7531 0.6551 0.1457 Uiso
C5RE C 0.500000(9) 0.7217(5) 0.6634(5) 0.1220 Uiso
O2AB O 0.5000 0.9349(4) 0.8788(4) 0.1240 Uiso
C3AB C 0.500000(9) 0.8117(5) 0.8699(5) 0.1231 Uiso
H2AB H 0.5000 0.8034 0.9013 0.1463 Uiso
H3AB H 0.5000 0.7469 0.8449 0.1457 Uiso
C5AB C 0.500000(9) 0.7783(5) 0.8366(5) 0.1220 Uiso
O1ZC O 0.5412(5) 0.4588(5) 0.5412(5) 0.0890 Uani
H1ZC H 0.5574 0.4426 0.5574 0.1064 Uiso
O1VC O 0.5412(5) 0.5412(5) 0.4588(5) 0.0890 Uani
H1VC H 0.5574 0.5574 0.4426 0.1064 Uiso
Hf1RC Hf 0.41622(4) 0.5000 0.5000 0.0511 Uani
Hf1TC Hf 0.91622(4) 0.5000 1.0000 0.0511 Uani
Hf1UC Hf 0.91622(4) 1.0000 0.5000 0.0511 Uani
Hf1VC Hf 0.5000 0.5000 0.41622(4) 0.0511 Uani
Hf1WC Hf 0.5000 1.0000 0.91622(4) 0.0511 Uani
Hf1H Hf 0.5000 0.58378(4) 0.5000 0.0511 Uani
Hf1ZC Hf 0.5000 0.41622(4) 0.5000 0.0511 Uani
Hf1AD Hf 0.5000 0.91622(4) 1.0000 0.0511 Uani
Hf1CD Hf 1.0000 0.91622(4) 0.5000 0.0511 Uani
O1RC O 0.4588(5) 0.5412(5) 0.5412(5) 0.0890 Uani
O1B O 1.0412(5) 0.4588(5) 0.9588(5) 0.0890 Uani
O1XC O 1.0412(5) 0.5412(5) 0.9588(5) 0.0890 Uani
O1J O 0.9588(5) 0.5412(5) 0.9588(5) 0.0890 Uani
O1P O 0.5412(5) 0.5412(5) 0.5412(5) 0.0890 Uani
O1JD O 0.9588(5) 0.4588(5) 0.9588(5) 0.0890 Uani
O2P O 0.4349(4) 0.5000 0.6212(4) 0.1240 Uiso
O2JD O 1.0651(4) 0.5000 0.8788(4) 0.1240 Uiso
O2BE O 0.6212(4) 0.4349(4) 0.5000 0.1240 Uiso
O2BB O 1.0000 0.4349(4) 0.8788(4) 0.1240 Uiso
O2DF O 0.5000 0.4349(4) 0.6212(4) 0.1240 Uiso
O2NB O 1.0000 0.5651(4) 0.8788(4) 0.1240 Uiso
O2PB O 0.6212(4) 0.5000 0.4349(4) 0.1240 Uiso
loop_
_atom_site_aniso_label
_atom_site_aniso_U_11
_atom_site_aniso_U_22
_atom_site_aniso_U_33
_atom_site_aniso_U_23
_atom_site_aniso_U_13
_atom_site_aniso_U_12
Hf1 0.0140(6) 0.0697(7) 0.0697(7) 0.0000 0.0000 0.0000
O1 0.089(7) 0.089(7) 0.089(7) 0.016(8) -0.016(8) -0.016(8)
Hf1D 0.0697 0.0697 0.014 0 0 0
O1D 0.089 0.089 0.089 -0.016 -0.016 0.016
Hf1XC 0.0697 0.0697 0.014 0 0 0
O1ZC 0.089 0.089 0.089 -0.016 0.016 -0.016
O1VC 0.089 0.089 0.089 -0.016 -0.016 0.016
Hf1RC 0.014 0.0697 0.0697 0 0 0
Hf1TC 0.014 0.0697 0.0697 0 0 0
Hf1UC 0.014 0.0697 0.0697 0 0 0
Hf1VC 0.0697 0.0697 0.014 0 0 0
Hf1WC 0.0697 0.0697 0.014 0 0 0
Hf1H 0.0697 0.014 0.0697 0 0 0
Hf1ZC 0.0697 0.014 0.0697 0 0 0
Hf1AD 0.0697 0.014 0.0697 0 0 0
Hf1CD 0.0697 0.014 0.0697 0 0 0
O1RC 0.089 0.089 0.089 0.016 -0.016 -0.016
O1B 0.089 0.089 0.089 0.016 -0.016 -0.016
O1XC 0.089 0.089 0.089 -0.016 -0.016 0.016
O1J 0.089 0.089 0.089 -0.016 0.016 -0.016
O1P 0.089 0.089 0.089 0.016 0.016 0.016
O1JD 0.089 0.089 0.089 0.016 0.016 0.016
loop_
_geom_bond_atom_site_label_1
_geom_bond_atom_site_label_2
_geom_bond_site_symmetry_1
_geom_bond_site_symmetry_2
Hf1 O1 1_555 1_555
O1 H1 1_555 1_555
O2 Hf1 1_555 1_555
C1 O2 1_555 1_555
C2 C1 1_555 1_555
C3 C2 1_555 1_555
H2 C3 1_555 1_555
C4 N1 1_555 1_555
N1 N1UC 1_555 1_555
H3 C5 1_555 1_555
C5 C3 1_555 1_555
O2UC C1UC 1_555 1_555
C1UC C2UC 1_555 1_555
C2UC C3UC 1_555 1_555
C3UC H2UC 1_555 1_555
C4UC C5UC 1_555 1_555
H3UC C5UC 1_555 1_555
C5UC C3UC 1_555 1_555
N1UC C4UC 1_555 1_555
O2NE C1 1_555 1_555
C3NE C2 1_555 1_555
H2NE C3NE 1_555 1_555
H3NE C5NE 1_555 1_555
C5NE C4 1_555 1_555
O2YA C1UC 1_555 1_555
C3YA C2UC 1_555 1_555
H2YA C3YA 1_555 1_555
H3YA C5YA 1_555 1_555
C5YA C4UC 1_555 1_555
Hf1D O1D 1_555 1_555
O1D H1D 1_555 1_555
O2D Hf1D 1_555 1_555
C1D O2D 1_555 1_555
C2D C1D 1_555 1_555
C3D C2D 1_555 1_555
H2D C3D 1_555 1_555
C4D N1D 1_555 1_555
N1D N1XC 1_555 1_555
H3D C5D 1_555 1_555
C5D C3D 1_555 1_555
O2XC C1XC 1_555 1_555
C1XC C2XC 1_555 1_555
C2XC C3XC 1_555 1_555
C3XC H2XC 1_555 1_555
C4XC C5XC 1_555 1_555
H3XC C5XC 1_555 1_555
C5XC C3XC 1_555 1_555
N1XC C4XC 1_555 1_555
O2VE Hf1 1_555 1_555
C3VE C2D 1_555 1_555
H2VE C3VE 1_555 1_555
H3VE C5VE 1_555 1_555
C5VE C4D 1_555 1_555
O2FB C1XC 1_555 1_555
C3FB C2XC 1_555 1_555
H2FB C3FB 1_555 1_555
H3FB C5FB 1_555 1_555
C5FB C4XC 1_555 1_555
Hf1XC O2XC 1_555 1_555
O2H C1H 1_555 1_555
C1H C2H 1_555 1_555
C2H C3H 1_555 1_555
C3H H2H 1_555 1_555
C4H N1H 1_555 1_555
N1H N1AD 1_555 1_555
H3H C5H 1_555 1_555
C5H C3H 1_555 1_555
O2AD C1AD 1_555 1_555
C1AD C2AD 1_555 1_555
C2AD C3AD 1_555 1_555
C3AD H2AD 1_555 1_555
C4AD C5AD 1_555 1_555
H3AD C5AD 1_555 1_555
C5AD C3AD 1_555 1_555
N1AD C4AD 1_555 1_555
O2RE Hf1D 1_555 1_555
C3RE C2H 1_555 1_555
H2RE C3RE 1_555 1_555
H3RE C5RE 1_555 1_555
C5RE C4H 1_555 1_555
O2AB C1AD 1_555 1_555
C3AB C2AD 1_555 1_555
H2AB C3AB 1_555 1_555
H3AB C5AB 1_555 1_555
C5AB C4AD 1_555 1_555
O1ZC Hf1 1_555 1_555
H1ZC O1ZC 1_555 1_555
O1VC Hf1 1_555 1_555
H1VC O1VC 1_555 1_555
Hf1RC O1D 1_555 1_555
Hf1TC O2FB 1_555 1_555
Hf1UC O2UC 1_555 1_555
Hf1VC O1 1_555 1_555
Hf1WC O2AB 1_555 1_555
Hf1H O2NE 1_555 1_555
Hf1ZC O1 1_555 1_555
Hf1AD O2AD 1_555 1_555
Hf1CD O2YA 1_555 1_555
O1RC Hf1D 1_555 1_555
O1B Hf1XC 1_555 1_555
O1XC Hf1XC 1_555 1_555
O1J Hf1XC 1_555 1_555
O1P Hf1 1_555 1_555
O1JD Hf1XC 1_555 1_555
O2P Hf1D 1_555 1_555
O2JD Hf1XC 1_555 1_555
O2BE Hf1 1_555 1_555
O2BB Hf1XC 1_555 1_555
O2DF Hf1D 1_555 1_555
O2NB Hf1XC 1_555 1_555
O2PB Hf1 1_555 1_555
C4 C5 1_555 1_555
C3NE C5NE 1_555 1_555
C3YA C5YA 1_555 1_555
Hf1D O1ZC 1_555 1_555
Hf1D O1P 1_555 1_555
O1D Hf1ZC 1_555 1_555
C1D O2VE 1_555 1_555
C4D C5D 1_555 1_555
C3VE C5VE 1_555 1_555
C3FB C5FB 1_555 1_555
O2H Hf1H 1_555 1_555
C1H O2RE 1_555 1_555
C4H C5H 1_555 1_555
C3RE C5RE 1_555 1_555
C3AB C5AB 1_555 1_555
O1ZC Hf1ZC 1_555 1_555
O1VC Hf1VC 1_555 1_555
O1VC Hf1H 1_555 1_555
Hf1RC O1RC 1_555 1_555
Hf1TC O1J 1_555 1_555
Hf1TC O1JD 1_555 1_555
Hf1H O1RC 1_555 1_555
Hf1H O1P 1_555 1_555

#END
