
#######################################################################
#
#                 Cambridge Crystallographic Data Centre
#                                CCDC 
#
#######################################################################
#
# If this CIF has been generated from an entry in the Cambridge 
# Structural Database, then it will include bibliographic, chemical, 
# crystal, experimental, refinement or atomic coordinate data resulting 
# from the CCDC's data processing and validation procedures.
#
#######################################################################

data_UVEVUN
_chemical_formula_moiety         '(C25 H11 Cu2 N1 O9)n'
_symmetry_cell_setting           cubic
_symmetry_space_group_name_H-M   'I m -3 m'
_symmetry_Int_Tables_number      229
_space_group_name_Hall           '-I 4 2 3'
loop_
_symmetry_equiv_pos_site_id
_symmetry_equiv_pos_as_xyz
1 x,y,z
2 x,-y,-z
3 -x,-y,z
4 -x,y,-z
5 -y,x,z
6 y,x,-z
7 y,-x,z
8 -y,-x,-z
9 y,z,x
10 -y,-z,x
11 y,-z,-x
12 -y,z,-x
13 -z,y,x
14 -z,-y,-x
15 z,-y,x
16 z,y,-x
17 z,x,y
18 -z,x,-y
19 -z,-x,y
20 z,-x,-y
21 -x,-z,-y
22 -x,z,y
23 x,-z,y
24 x,z,-y
25 1/2+x,1/2+y,1/2+z
26 1/2+x,1/2-y,1/2-z
27 1/2-x,1/2-y,1/2+z
28 1/2-x,1/2+y,1/2-z
29 1/2-y,1/2+x,1/2+z
30 1/2+y,1/2+x,1/2-z
31 1/2+y,1/2-x,1/2+z
32 1/2-y,1/2-x,1/2-z
33 1/2+y,1/2+z,1/2+x
34 1/2-y,1/2-z,1/2+x
35 1/2+y,1/2-z,1/2-x
36 1/2-y,1/2+z,1/2-x
37 1/2-z,1/2+y,1/2+x
38 1/2-z,1/2-y,1/2-x
39 1/2+z,1/2-y,1/2+x
40 1/2+z,1/2+y,1/2-x
41 1/2+z,1/2+x,1/2+y
42 1/2-z,1/2+x,1/2-y
43 1/2-z,1/2-x,1/2+y
44 1/2+z,1/2-x,1/2-y
45 1/2-x,1/2-z,1/2-y
46 1/2-x,1/2+z,1/2+y
47 1/2+x,1/2-z,1/2+y
48 1/2+x,1/2+z,1/2-y
49 -x,-y,-z
50 -x,y,z
51 x,y,-z
52 x,-y,z
53 y,-x,-z
54 -y,-x,z
55 -y,x,-z
56 y,x,z
57 -y,-z,-x
58 y,z,-x
59 -y,z,x
60 y,-z,x
61 z,-y,-x
62 z,y,x
63 -z,y,-x
64 -z,-y,x
65 -z,-x,-y
66 z,-x,y
67 z,x,-y
68 -z,x,y
69 x,z,y
70 x,-z,-y
71 -x,z,-y
72 -x,-z,y
73 1/2-x,1/2-y,1/2-z
74 1/2-x,1/2+y,1/2+z
75 1/2+x,1/2+y,1/2-z
76 1/2+x,1/2-y,1/2+z
77 1/2+y,1/2-x,1/2-z
78 1/2-y,1/2-x,1/2+z
79 1/2-y,1/2+x,1/2-z
80 1/2+y,1/2+x,1/2+z
81 1/2-y,1/2-z,1/2-x
82 1/2+y,1/2+z,1/2-x
83 1/2-y,1/2+z,1/2+x
84 1/2+y,1/2-z,1/2+x
85 1/2+z,1/2-y,1/2-x
86 1/2+z,1/2+y,1/2+x
87 1/2-z,1/2+y,1/2-x
88 1/2-z,1/2-y,1/2+x
89 1/2-z,1/2-x,1/2-y
90 1/2+z,1/2-x,1/2+y
91 1/2+z,1/2+x,1/2-y
92 1/2-z,1/2+x,1/2+y
93 1/2+x,1/2+z,1/2+y
94 1/2+x,1/2-z,1/2-y
95 1/2-x,1/2+z,1/2-y
96 1/2-x,1/2-z,1/2+y
_cell_length_a                   31.105(2)
_cell_length_b                   31.105(2)
_cell_length_c                   31.105(2)
_cell_angle_alpha                90
_cell_angle_beta                 90
_cell_angle_gamma                90
_cell_volume                     30094.7
loop_
_atom_site_label
_atom_site_type_symbol
_atom_site_fract_x
_atom_site_fract_y
_atom_site_fract_z
_atom_site_U_iso_or_equiv
_atom_site_thermal_displace_type
Cu1 Cu 0.68056(2) 0.68056(2) 0.5000 0.0219 Uani
Cu2 Cu 1.00000(2) 0.75947(2) 0.7595 0.0258 Uani
N1 N 1.0000 0.71100(18) 0.71100(18) 0.0353 Uani
O1 O 0.71727(12) 0.65410(13) 0.54448(12) 0.0437 Uani
O2 O 0.76795(13) 0.70473(13) 0.54415(13) 0.0457 Uani
C1 C 0.8393(2) 0.6316(2) 0.6316(2) 0.0437 Uani
C2 C 1.0000 0.6482(2) 0.6482(2) 0.0397 Uani
H1 H 1.0000 0.6270 0.6270 0.0470 Uiso
C3 C 0.7537(2) 0.61242(19) 0.61242(19) 0.0373 Uani
H2 H 0.7254 0.6056 0.6056 0.0450 Uiso
C4 C 0.9624(2) 0.66409(17) 0.66409(17) 0.0393 Uani
C5 C 0.77488(17) 0.6432(2) 0.59193(17) 0.0443 Uani
C6 C 0.9200(2) 0.64915(17) 0.64915(17) 0.0420 Uani
C7 C 0.81842(18) 0.6536(2) 0.6005(2) 0.0460 Uani
H3 H 0.8323 0.6752 0.5850 0.0550 Uiso
C8 C 0.9628(3) 0.69533(16) 0.69533(16) 0.0393 Uani
H4 H 0.9369 0.7059 0.7059 0.0470 Uiso
C9 C 0.75142(18) 0.6695(2) 0.5575(3) 0.0557 Uani
C10 C 0.8828(3) 0.6417(2) 0.6417(2) 0.0487 Uani
O3 O 0.63145(17) 0.63145(17) 0.5000 0.0557 Uani
Cu1C Cu 1.31944(2) 0.68056(2) 0.5000 0.0219 Uani
Cu1I Cu 1.31944(2) 0.5000 0.68056(2) 0.0219 Uani
Cu1H Cu 0.68056(2) 0.5000 0.68056(2) 0.0219 Uani
Cu2GA Cu 0.74053(2) 0.7405 0.50000(2) 0.0258 Uani
Cu2HA Cu 1.25947(2) 0.7405 0.50000(2) 0.0258 Uani
Cu2CA Cu 1.25947(2) 0.50000(2) 0.7405 0.0258 Uani
Cu2EA Cu 0.74053(2) 0.50000(2) 0.7405 0.0258 Uani
O1WA O 1.28273(12) 0.65410(13) 0.54448(12) 0.0437 Uani
O1U O 1.28273(12) 0.54448(12) 0.65410(13) 0.0437 Uani
O1PB O 0.71727(12) 0.54448(12) 0.65410(13) 0.0437 Uani
O1E O 0.65410(13) 0.71727(12) 0.45552(12) 0.0437 Uani
O1XA O 0.71727(12) 0.65410(13) 0.45552(12) 0.0437 Uani
O1CB O 0.65410(13) 0.71727(12) 0.54448(12) 0.0437 Uani
O2WA O 1.23205(13) 0.70473(13) 0.54415(13) 0.0457 Uani
O2U O 1.23205(13) 0.54415(13) 0.70473(13) 0.0457 Uani
O2PB O 0.76795(13) 0.54415(13) 0.70473(13) 0.0457 Uani
O2QA O 1.04415(13) 0.73205(13) 0.79527(13) 0.0457 Uani
O2KA O 0.95585(13) 0.79527(13) 0.73205(13) 0.0457 Uani
O2JC O 0.95585(13) 0.73205(13) 0.79527(13) 0.0457 Uani
O2FC O 1.04415(13) 0.79527(13) 0.73205(13) 0.0457 Uani
C1U C 1.1607(2) 0.6316(2) 0.6316(2) 0.0437 Uani
C3U C 1.2463(2) 0.61242(19) 0.61242(19) 0.0373 Uani
H2U H 1.2746 0.6056 0.6056 0.0450 Uiso
C4U C 1.0376(2) 0.66409(17) 0.66409(17) 0.0393 Uani
C5U C 1.22512(17) 0.59193(17) 0.6432(2) 0.0443 Uani
C5WA C 1.22512(17) 0.6432(2) 0.59193(17) 0.0443 Uani
C5PB C 0.77488(17) 0.59193(17) 0.6432(2) 0.0443 Uani
C6U C 1.0800(2) 0.64915(17) 0.64915(17) 0.0420 Uani
C7U C 1.18158(18) 0.6005(2) 0.6536(2) 0.0460 Uani
C7WA C 1.18158(18) 0.6536(2) 0.6005(2) 0.0460 Uani
C7PB C 0.81842(18) 0.6005(2) 0.6536(2) 0.0460 Uani
H3WA H 1.1677 0.6752 0.5850 0.0550 Uiso
H3U H 1.1677 0.5850 0.6752 0.0550 Uiso
H3PB H 0.8323 0.5850 0.6752 0.0550 Uiso
C8U C 1.0372(3) 0.69533(16) 0.69533(16) 0.0393 Uani
H4U H 1.0631 0.7059 0.7059 0.0470 Uiso
C9WA C 1.24858(18) 0.6695(2) 0.5575(3) 0.0557 Uani
C9U C 1.24858(18) 0.5575(3) 0.6695(2) 0.0557 Uani
C9PB C 0.75142(18) 0.5575(3) 0.6695(2) 0.0557 Uani
C10U C 1.1172(3) 0.6417(2) 0.6417(2) 0.0487 Uani
loop_
_atom_site_aniso_label
_atom_site_aniso_U_11
_atom_site_aniso_U_22
_atom_site_aniso_U_33
_atom_site_aniso_U_23
_atom_site_aniso_U_13
_atom_site_aniso_U_12
Cu1 0.0210(4) 0.0210(4) 0.0237(6) 0.000 0.000 -0.0064(4)
Cu2 0.0264 0.0255 0.0255 -0.0115 0 0
N1 0.032(4) 0.037(3) 0.037(3) -0.014(4) 0.000 0.000
O1 0.038(2) 0.048(2) 0.045(2) 0.0220(18) -0.0155(17) -0.0081(17)
O2 0.042(2) 0.046(2) 0.049(2) 0.0080(18) -0.0044(18) -0.0066(17)
C1 0.027(3) 0.052(3) 0.052(3) 0.005(4) -0.005(2) -0.005(2)
C2 0.047(4) 0.036(3) 0.036(3) -0.022(3) 0.000 0.000
C3 0.020(3) 0.046(3) 0.046(3) 0.013(3) -0.006(2) -0.006(2)
C4 0.028(4) 0.045(3) 0.045(3) -0.013(3) -0.002(2) -0.002(2)
C5 0.029(3) 0.073(4) 0.031(3) 0.004(2) -0.008(2) -0.013(3)
C6 0.036(4) 0.045(3) 0.045(3) -0.019(4) 0.001(2) 0.001(2)
C7 0.034(3) 0.050(3) 0.054(3) 0.011(3) -0.003(2) -0.011(2)
C8 0.036(4) 0.041(3) 0.041(3) -0.016(3) -0.006(2) -0.006(2)
C9 0.026(2) 0.046(3) 0.095(4) 0.020(3) -0.008(3) -0.0019(19)
C10 0.046(4) 0.050(3) 0.050(3) -0.002(4) -0.010(3) -0.010(3)
O3 0.026(2) 0.046(3) 0.095(4) 0.020(3) -0.008(3) -0.0019(19)
Cu1C 0.021 0.021 0.0237 0 0 0.0064
Cu1I 0.021 0.0237 0.021 0 0.0064 0
Cu1H 0.021 0.0237 0.021 0 -0.0064 0
Cu2GA 0.0255(4) 0.0255(4) 0.0264(6) 0.000 0.000 -0.0115(4)
Cu2HA 0.0255 0.0255 0.0264 0 0 0.0115
Cu2CA 0.0255 0.0264 0.0255 0 0.0115 0
Cu2EA 0.0255 0.0264 0.0255 0 -0.0115 0
O1WA 0.038 0.048 0.045 0.022 0.0155 0.0081
O1U 0.038 0.045 0.048 0.022 0.0081 0.0155
O1PB 0.038 0.045 0.048 0.022 -0.0081 -0.0155
O1E 0.048 0.038 0.045 0.0155 -0.022 -0.0081
O1XA 0.038 0.048 0.045 -0.022 0.0155 -0.0081
O1CB 0.048 0.038 0.045 -0.0155 0.022 -0.0081
O2WA 0.042 0.046 0.049 0.008 0.0044 0.0066
O2U 0.042 0.049 0.046 0.008 0.0066 0.0044
O2PB 0.042 0.049 0.046 0.008 -0.0066 -0.0044
O2QA 0.049 0.042 0.046 -0.0066 -0.008 0.0044
O2KA 0.049 0.046 0.042 -0.0066 -0.0044 0.008
O2JC 0.049 0.042 0.046 -0.0066 0.008 -0.0044
O2FC 0.049 0.046 0.042 -0.0066 0.0044 -0.008
C1U 0.027 0.052 0.052 0.005 0.005 0.005
C3U 0.02 0.046 0.046 0.013 0.006 0.006
C4U 0.028 0.045 0.045 -0.013 0.002 0.002
C5U 0.029 0.031 0.073 0.004 0.013 0.008
C5WA 0.029 0.073 0.031 0.004 0.008 0.013
C5PB 0.029 0.031 0.073 0.004 -0.013 -0.008
C6U 0.036 0.045 0.045 -0.019 -0.001 -0.001
C7U 0.034 0.054 0.05 0.011 0.011 0.003
C7WA 0.034 0.05 0.054 0.011 0.003 0.011
C7PB 0.034 0.054 0.05 0.011 -0.011 -0.003
C8U 0.036 0.041 0.041 -0.016 0.006 0.006
C9WA 0.026 0.046 0.095 0.02 0.008 0.0019
C9U 0.026 0.095 0.046 0.02 0.0019 0.008
C9PB 0.026 0.095 0.046 0.02 -0.0019 -0.008
C10U 0.046 0.05 0.05 -0.002 0.01 0.01
loop_
_geom_bond_atom_site_label_1
_geom_bond_atom_site_label_2
_geom_bond_site_symmetry_1
_geom_bond_site_symmetry_2
Cu1 O1 1_555 1_555
Cu2 N1 1_555 1_555
N1 C8 1_555 1_555
O1 C9 1_555 1_555
O2 C9 1_555 1_555
C1 C7 1_555 1_555
C2 H1 1_555 1_555
C3 H2 1_555 1_555
C4 C2 1_555 1_555
C5 C3 1_555 1_555
C6 C4 1_555 1_555
C7 C5 1_555 1_555
H3 C7 1_555 1_555
C8 C4 1_555 1_555
H4 C8 1_555 1_555
C9 C5 1_555 1_555
C10 C1 1_555 1_555
O3 Cu1 1_555 1_555
Cu1C O1WA 1_555 1_555
Cu1I O1U 1_555 1_555
Cu1H O1PB 1_555 1_555
Cu2GA O2 1_555 1_555
Cu2HA O2WA 1_555 1_555
Cu2CA O2U 1_555 1_555
Cu2EA O2PB 1_555 1_555
O1WA C9WA 1_555 1_555
O1U C9U 1_555 1_555
O1PB C9PB 1_555 1_555
O1E Cu1 1_555 1_555
O1XA Cu1 1_555 1_555
O1CB Cu1 1_555 1_555
O2WA C9WA 1_555 1_555
O2U C9U 1_555 1_555
O2PB C9PB 1_555 1_555
O2QA Cu2 1_555 1_555
O2KA Cu2 1_555 1_555
O2JC Cu2 1_555 1_555
O2FC Cu2 1_555 1_555
C1U C7U 1_555 1_555
C3U H2U 1_555 1_555
C4U C2 1_555 1_555
C5U C3U 1_555 1_555
C5WA C3U 1_555 1_555
C5PB C3 1_555 1_555
C6U C4U 1_555 1_555
C7U C5U 1_555 1_555
C7WA C1U 1_555 1_555
C7PB C1 1_555 1_555
H3WA C7WA 1_555 1_555
H3U C7U 1_555 1_555
H3PB C7PB 1_555 1_555
C8U N1 1_555 1_555
H4U C8U 1_555 1_555
C9WA C5WA 1_555 1_555
C9U C5U 1_555 1_555
C9PB C5PB 1_555 1_555
C10U C1U 1_555 1_555
C6 C10 1_555 1_555
C4U C8U 1_555 1_555
C5WA C7WA 1_555 1_555
C5PB C7PB 1_555 1_555
C6U C10U 1_555 1_555

#END
