
#######################################################################
#
#                 Cambridge Crystallographic Data Centre
#                                CCDC 
#
#######################################################################
#
# If this CIF has been generated from an entry in the Cambridge 
# Structural Database, then it will include bibliographic, chemical, 
# crystal, experimental, refinement or atomic coordinate data resulting 
# from the CCDC's data processing and validation procedures.
#
#######################################################################

data_LETPUX
_chemical_formula_moiety         '(H22 F2 Ga2 O46 P14 Zn9 6-)n'
_symmetry_cell_setting           tetragonal
_symmetry_space_group_name_H-M   'I 41/a m d'
_symmetry_Int_Tables_number      141
_space_group_name_Hall           '-I 4bd 2'
loop_
_symmetry_equiv_pos_site_id
_symmetry_equiv_pos_as_xyz
1 x,y,z
2 1/2-x,-y,1/2+z
3 1/4-y,3/4+x,1/4+z
4 1/4+y,1/4-x,3/4+z
5 1/2-x,y,1/2-z
6 x,-y,-z
7 1/4+y,3/4+x,1/4-z
8 1/4-y,1/4-x,3/4-z
9 1/2+x,1/2+y,1/2+z
10 -x,1/2-y,z
11 3/4-y,1/4+x,3/4+z
12 3/4+y,3/4-x,1/4+z
13 -x,1/2+y,-z
14 1/2+x,1/2-y,1/2-z
15 3/4+y,1/4+x,3/4-z
16 3/4-y,3/4-x,1/4-z
17 -x,-y,-z
18 1/2+x,y,1/2-z
19 3/4+y,1/4-x,3/4-z
20 3/4-y,3/4+x,1/4-z
21 1/2+x,-y,1/2+z
22 -x,y,z
23 3/4-y,1/4-x,3/4+z
24 3/4+y,3/4+x,1/4+z
25 1/2-x,1/2-y,1/2-z
26 x,1/2+y,-z
27 1/4+y,3/4-x,1/4-z
28 1/4-y,1/4+x,3/4-z
29 x,1/2-y,z
30 1/2-x,1/2+y,1/2+z
31 1/4-y,3/4-x,1/4+z
32 1/4+y,1/4+x,3/4+z
_cell_length_a                   48.3931(8)
_cell_length_b                   48.3931(8)
_cell_length_c                   9.9998(2)
_cell_angle_alpha                90
_cell_angle_beta                 90
_cell_angle_gamma                90
_cell_volume                     23418.5
loop_
_atom_site_label
_atom_site_type_symbol
_atom_site_fract_x
_atom_site_fract_y
_atom_site_fract_z
Ga1 Ga 0.2500 0.462896(9) 0.2500
Zn1 Zn 0.374917(9) 0.482068(12) 0.32752(4)
Zn2 Zn 0.5000 0.5000 0.5000
Zn3 Zn 0.438706(9) 0.522106(12) 0.17020(5)
P1 P 0.310854(15) 0.484339(16) 0.28186(8)
P2 P 0.400408(18) 0.53911(2) 0.39897(10)
P3 P 0.5000 0.53480(3) 0.21509(12)
P4 P 0.415960(19) 0.46241(2) 0.10963(10)
O1 O 0.28835(4) 0.46269(4) 0.2981(2)
O2 O 0.31534(4) 0.49324(4) 0.1365(2)
O3 O 0.33696(5) 0.47335(7) 0.3435(3)
O4 O 0.42973(5) 0.53439(7) 0.3493(3)
O5 O 0.37940(6) 0.52243(7) 0.3214(3)
O6 O 0.39935(6) 0.53564(7) 0.5481(3)
O7 O 0.5000 0.51043(9) 0.3089(4)
O8 O 0.47522(5) 0.53546(8) 0.1267(3)
O9 O 0.38692(6) 0.46847(9) 0.1550(3)
O10 O 0.41586(6) 0.46042(8) -0.0400(3)
O11 O 0.43790(6) 0.48178(7) 0.1670(3)
O12 O 0.46711(5) 0.52901(6) 0.5552(3)
F1 F 0.24265(3) 0.49265(3) 0.3750
H1 H 0.2999 0.5096 0.3732
H2 H 0.3919 0.5679 0.3747
H3 H 0.4213 0.4389 0.1787
H4 H 0.5000 0.5577 0.2881
Ga1Q Ga 0.7500 0.462896(9) 0.2500
Ga1J Ga 0.287104(9) 0.5000 0.0000
Ga1K Ga 0.212896(9) 0.5000 0.5000
Ga1Z Ga 0.712896(9) 0.5000 0.0000
Ga1A Ga 0.2500 0.537104(9) 0.7500
Ga1J_2 Ga 0.287104(9) 0.5000 1.0000
Ga1P Ga 0.7500 0.537104(9) 0.7500
Ga1Z_2 Ga 0.712896(9) 0.5000 1.0000
Zn1U Zn 0.625083(9) 0.482068(12) 0.32752(4)
Zn1E Zn 0.374917(9) 0.517932(12) 0.67248(4)
Zn1P Zn 0.625083(9) 0.517932(12) 0.67248(4)
Zn1E_2 Zn 0.374917(9) 0.517932(12) -0.32752(4)
Zn1P_2 Zn 0.625083(9) 0.517932(12) -0.32752(4)
Zn3U Zn 0.561294(9) 0.522106(12) 0.17020(5)
Zn3E Zn 0.438706(9) 0.477894(12) 0.82980(5)
Zn3P Zn 0.561294(9) 0.477894(12) 0.82980(5)
Zn3E_2 Zn 0.438706(9) 0.477894(12) -0.17020(5)
Zn3P_2 Zn 0.561294(9) 0.477894(12) -0.17020(5)
P1U P 0.689146(15) 0.484339(16) 0.28186(8)
P1E P 0.310854(15) 0.515661(16) 0.71814(8)
P1P P 0.689146(15) 0.515661(16) 0.71814(8)
P2U P 0.599592(18) 0.53911(2) 0.39897(10)
P2E P 0.400408(18) 0.46089(2) 0.60103(10)
P2P P 0.599592(18) 0.46089(2) 0.60103(10)
P3E P 0.5000 0.46520(3) 0.78491(12)
P4E P 0.415960(19) 0.53759(2) -0.10963(10)
P4U P 0.584040(19) 0.46241(2) 0.10963(10)
P4P P 0.584040(19) 0.53759(2) -0.10963(10)
O1U O 0.71165(4) 0.46269(4) 0.2981(2)
O1E O 0.28835(4) 0.53731(4) 0.7019(2)
O1P O 0.71165(4) 0.53731(4) 0.7019(2)
O1D O 0.21165(4) 0.46269(4) 0.2019(2)
O1Z O 0.71269(4) 0.46165(4) -0.0481(2)
O1EA O 0.71269(4) 0.53835(4) 0.0481(2)
O2U O 0.68466(4) 0.49324(4) 0.1365(2)
O2E O 0.31534(4) 0.50676(4) 0.8635(2)
O2P O 0.68466(4) 0.50676(4) 0.8635(2)
O2K O 0.24324(4) 0.43466(4) 0.3865(2)
O2O O 0.25676(4) 0.43466(4) 0.1135(2)
O2P_2 O 0.68466(4) 0.50676(4) -0.1365(2)
O3U O 0.66304(5) 0.47335(7) 0.3435(3)
O3E O 0.33696(5) 0.52665(7) 0.6565(3)
O3P O 0.66304(5) 0.52665(7) 0.6565(3)
O4U O 0.57027(5) 0.53439(7) 0.3493(3)
O4E O 0.42973(5) 0.46561(7) 0.6507(3)
O4P O 0.57027(5) 0.46561(7) 0.6507(3)
O5U O 0.62060(6) 0.52243(7) 0.3214(3)
O5E O 0.37940(6) 0.47757(7) 0.6786(3)
O5P O 0.62060(6) 0.47757(7) 0.6786(3)
O6U O 0.60065(6) 0.53564(7) 0.5481(3)
O6E O 0.39935(6) 0.46436(7) 0.4519(3)
O6P O 0.60065(6) 0.46436(7) 0.4519(3)
O7E O 0.5000 0.48957(9) 0.6911(4)
O8U O 0.52478(5) 0.53546(8) 0.1267(3)
O8E O 0.47522(5) 0.46454(8) 0.8733(3)
O8P O 0.52478(5) 0.46454(8) 0.8733(3)
O9E O 0.38692(6) 0.53153(9) -0.1550(3)
O9U O 0.61308(6) 0.46847(9) 0.1550(3)
O9P O 0.61308(6) 0.53153(9) -0.1550(3)
O9E_2 O 0.38692(6) 0.53153(9) 0.8450(3)
O9P_2 O 0.61308(6) 0.53153(9) 0.8450(3)
O10E O 0.41586(6) 0.53958(8) 0.0400(3)
O10U O 0.58414(6) 0.46042(8) -0.0400(3)
O10P O 0.58414(6) 0.53958(8) 0.0400(3)
O10_2 O 0.41586(6) 0.46042(8) 0.9600(3)
O10U_2 O 0.58414(6) 0.46042(8) 0.9600(3)
O11E O 0.43790(6) 0.51822(7) -0.1670(3)
O11U O 0.56210(6) 0.48178(7) 0.1670(3)
O11P O 0.56210(6) 0.51822(7) -0.1670(3)
O11E_2 O 0.43790(6) 0.51822(7) 0.8330(3)
O11P_2 O 0.56210(6) 0.51822(7) 0.8330(3)
O12E O 0.46711(5) 0.47099(6) 0.4448(3)
O12P O 0.53289(5) 0.47099(6) 0.4448(3)
O12U O 0.53289(5) 0.52901(6) 0.5552(3)
F1D F 0.25735(3) 0.49265(3) 0.1250
F1Q F 0.74265(3) 0.49265(3) 0.1250
F1T F 0.74265(3) 0.50735(3) -0.1250
H1U H 0.7001 0.5096 0.3732
H1E H 0.2999 0.4904 0.6268
H1P H 0.7001 0.4904 0.6268
H2U H 0.6081 0.5679 0.3747
H2E H 0.3919 0.4321 0.6253
H2P H 0.6081 0.4321 0.6253
H3E H 0.4213 0.5611 -0.1787
H3U H 0.5787 0.4389 0.1787
H3P H 0.5787 0.5611 -0.1787
H4E H 0.5000 0.4423 0.7119
loop_
_geom_bond_atom_site_label_1
_geom_bond_atom_site_label_2
_geom_bond_site_symmetry_1
_geom_bond_site_symmetry_2
Ga1 O1 1_555 1_555
Zn1 O3 1_555 1_555
Zn2 O7 1_555 1_555
Zn3 O4 1_555 1_555
P1 O1 1_555 1_555
P2 O4 1_555 1_555
P3 O7 1_555 1_555
P4 O9 1_555 1_555
O2 P1 1_555 1_555
O3 P1 1_555 1_555
O5 Zn1 1_555 1_555
O6 P2 1_555 1_555
O8 Zn3 1_555 1_555
O9 Zn1 1_555 1_555
O10 P4 1_555 1_555
O11 Zn3 1_555 1_555
O12 Zn2 1_555 1_555
F1 Ga1 1_555 1_555
H1 P1 1_555 1_555
H2 P2 1_555 1_555
H3 P4 1_555 1_555
H4 P3 1_555 1_555
Ga1Q O1U 1_555 1_555
Ga1J O2 1_555 1_555
Ga1K F1 1_555 1_555
Ga1Z O1Z 1_555 1_555
Ga1A O1E 1_555 1_555
Ga1J_2 O2E 1_555 1_555
Ga1P O1P 1_555 1_555
Ga1Z_2 O2P 1_555 1_555
Zn1U O3U 1_555 1_555
Zn1E O6 1_555 1_555
Zn1P O3P 1_555 1_555
Zn1E_2 O9E 1_555 1_555
Zn1P_2 O9P 1_555 1_555
Zn3U O4U 1_555 1_555
Zn3E O4E 1_555 1_555
Zn3P O4P 1_555 1_555
Zn3E_2 O10 1_555 1_555
Zn3P_2 O10U 1_555 1_555
P1U O1U 1_555 1_555
P1E O1E 1_555 1_555
P1P O1P 1_555 1_555
P2U O4U 1_555 1_555
P2E O4E 1_555 1_555
P2P O4P 1_555 1_555
P3E O7E 1_555 1_555
P4E O9E 1_555 1_555
P4U O9U 1_555 1_555
P4P O9P 1_555 1_555
O1D Ga1 1_555 1_555
O1EA Ga1Z 1_555 1_555
O2U Ga1Z 1_555 1_555
O2E P1E 1_555 1_555
O2P P1P 1_555 1_555
O2K Ga1 1_555 1_555
O2O Ga1 1_555 1_555
O2P_2 Ga1Z 1_555 1_555
O3U P1U 1_555 1_555
O3E Zn1E 1_555 1_555
O3P P1P 1_555 1_555
O5U Zn1U 1_555 1_555
O5E Zn1E 1_555 1_555
O5P Zn1P 1_555 1_555
O6U Zn1P 1_555 1_555
O6E Zn1 1_555 1_555
O6P Zn1U 1_555 1_555
O7E Zn2 1_555 1_555
O8U P3 1_555 1_555
O8E Zn3E 1_555 1_555
O8P Zn3P 1_555 1_555
O9U Zn1U 1_555 1_555
O9E_2 Zn1E 1_555 1_555
O9P_2 Zn1P 1_555 1_555
O10E Zn3 1_555 1_555
O10U P4U 1_555 1_555
O10P Zn3U 1_555 1_555
O10_2 Zn3E 1_555 1_555
O10U_2 Zn3P 1_555 1_555
O11E Zn3E_2 1_555 1_555
O11U Zn3U 1_555 1_555
O11P Zn3P_2 1_555 1_555
O11E_2 Zn3E 1_555 1_555
O11P_2 Zn3P 1_555 1_555
O12E Zn2 1_555 1_555
O12P Zn2 1_555 1_555
O12U Zn2 1_555 1_555
F1D Ga1 1_555 1_555
F1Q Ga1Q 1_555 1_555
F1T Ga1Z 1_555 1_555
H1U P1U 1_555 1_555
H1E P1E 1_555 1_555
H1P P1P 1_555 1_555
H2U P2U 1_555 1_555
H2E P2E 1_555 1_555
H2P P2P 1_555 1_555
H3E P4E 1_555 1_555
H3U P4U 1_555 1_555
H3P P4P 1_555 1_555
H4E P3E 1_555 1_555
P2 O5 1_555 1_555
P3 O8 1_555 1_555
P4 O11 1_555 1_555
Ga1J F1D 1_555 1_555
Ga1Z F1Q 1_555 1_555
Zn3U O8U 1_555 1_555
P1U O2U 1_555 1_555
P1E O3E 1_555 1_555
P2U O5U 1_555 1_555
P2U O6U 1_555 1_555
P2E O5E 1_555 1_555
P2E O6E 1_555 1_555
P2P O5P 1_555 1_555
P2P O6P 1_555 1_555
P3E O8E 1_555 1_555
P3E O8P 1_555 1_555
P4E O10E 1_555 1_555
P4E O11E 1_555 1_555
P4U O11U 1_555 1_555
P4P O10P 1_555 1_555
P4P O11P 1_555 1_555

#END
