
#######################################################################
#
#                 Cambridge Crystallographic Data Centre
#                                CCDC 
#
#######################################################################
#
# If this CIF has been generated from an entry in the Cambridge 
# Structural Database, then it will include bibliographic, chemical, 
# crystal, experimental, refinement or atomic coordinate data resulting 
# from the CCDC's data processing and validation procedures.
#
#######################################################################

data_LETPOR
_chemical_formula_moiety         '(H18 F1 Ga1 O34 P10 Zn7 4-)n'
_symmetry_cell_setting           tetragonal
_symmetry_space_group_name_H-M   'I 41/a c d'
_symmetry_Int_Tables_number      142
_space_group_name_Hall           '-I 4bd 2c'
loop_
_symmetry_equiv_pos_site_id
_symmetry_equiv_pos_as_xyz
1 x,y,z
2 1/2-x,-y,1/2+z
3 1/4-y,3/4+x,1/4+z
4 1/4+y,1/4-x,3/4+z
5 1/2-x,y,-z
6 x,-y,1/2-z
7 1/4+y,3/4+x,3/4-z
8 1/4-y,1/4-x,1/4-z
9 1/2+x,1/2+y,1/2+z
10 -x,1/2-y,z
11 3/4-y,1/4+x,3/4+z
12 3/4+y,3/4-x,1/4+z
13 -x,1/2+y,1/2-z
14 1/2+x,1/2-y,-z
15 3/4+y,1/4+x,1/4-z
16 3/4-y,3/4-x,3/4-z
17 -x,-y,-z
18 1/2+x,y,1/2-z
19 3/4+y,1/4-x,3/4-z
20 3/4-y,3/4+x,1/4-z
21 1/2+x,-y,z
22 -x,y,1/2+z
23 3/4-y,1/4-x,1/4+z
24 3/4+y,3/4+x,3/4+z
25 1/2-x,1/2-y,1/2-z
26 x,1/2+y,-z
27 1/4+y,3/4-x,1/4-z
28 1/4-y,1/4+x,3/4-z
29 x,1/2-y,1/2+z
30 1/2-x,1/2+y,z
31 1/4-y,3/4-x,3/4+z
32 1/4+y,1/4+x,1/4+z
_cell_length_a                   52.1749(19)
_cell_length_b                   52.1749(19)
_cell_length_c                   10.0229(4)
_cell_angle_alpha                90
_cell_angle_beta                 90
_cell_angle_gamma                90
_cell_volume                     27284.5
loop_
_atom_site_label
_atom_site_type_symbol
_atom_site_fract_x
_atom_site_fract_y
_atom_site_fract_z
Ga1 Ga 0.77425(2) 0.47575(2) 0.1250
Zn1 Zn 0.58518(3) 0.33518(3) 0.3750
Zn2 Zn 0.53128(3) 0.31047(3) 0.03708(13)
Zn3 Zn 0.61162(4) 0.39036(4) 0.04589(14)
Zn4 Zn 0.67968(3) 0.40601(4) 0.20159(13)
P1 P 0.72018(5) 0.44956(6) 0.1559(2)
P2 P 0.56285(6) 0.35796(6) 0.0876(2)
P3 P 0.50619(6) 0.29934(7) -0.2375(3)
P4 P 0.62575(7) 0.42659(8) 0.2733(3)
P5 P 0.66546(8) 0.36624(8) -0.0163(3)
O1 O 0.74923(13) 0.45020(12) 0.1726(6)
O2 O 0.71158(12) 0.45226(13) 0.0105(6)
O3 O 0.71061(16) 0.42515(18) 0.2119(8)
O4 O 0.5477(2) 0.34205(17) -0.0093(7)
O5 O 0.57751(17) 0.34219(19) 0.1827(7)
O6 O 0.5787(2) 0.3751(2) 0.0039(9)
O7 O 0.50537(16) 0.3009(2) -0.0857(8)
O8 O 0.53221(16) 0.30579(17) -0.2968(8)
O9 O 0.48449(17) 0.31622(18) -0.2915(7)
O10 O 0.65053(19) 0.42940(19) 0.1974(8)
O11 O 0.60981(17) 0.40444(19) 0.2261(8)
O12 O 0.6282(2) 0.42520(16) 0.4205(7)
O13 O 0.6379(2) 0.3646(2) 0.0410(10)
O14 O 0.6666(2) 0.36490(19) -0.1627(7)
O15 O 0.6797(2) 0.3896(2) 0.0270(8)
O16 O 0.54453(18) 0.33333(18) 0.4309(8)
O17 O 0.58830(18) 0.37574(18) 0.4284(7)
F1 F 0.7500 0.49068(14) 0.0000
H1 H 0.7093 0.4689 0.2321
H2 H 0.5488 0.3609 0.1732
H3 H 0.4906 0.2780 -0.2548
H4 H 0.6155 0.4514 0.2626
H5 H 0.6833 0.3503 0.0530
Ga1C Ga 0.72575(2) 0.47575(2) -0.1250
Ga1B Ga 0.77425(2) 0.52425(2) 0.3750
Zn2F Zn 0.56047(3) 0.28128(3) 0.71292(13)
Zn2F_2 Zn 0.56047(3) 0.28128(3) -0.28708(13)
Zn2U Zn 0.46872(3) 0.31047(3) -0.46292(13)
Zn2Z Zn 0.56047(3) 0.21872(3) 0.21292(13)
Zn3F Zn 0.64036(4) 0.36162(4) 0.70411(14)
Zn3F_2 Zn 0.64036(4) 0.36162(4) -0.29589(14)
Zn3B Zn 0.85964(4) 0.36162(4) 0.29589(14)
Zn3D Zn 0.88838(4) 0.39036(4) -0.04589(14)
Zn4B Zn 0.84399(4) 0.42968(3) 0.45159(13)
Zn4F Zn 0.65601(4) 0.42968(3) 0.54841(13)
P1B P 0.80044(6) 0.47018(5) 0.4059(2)
P2F P 0.60796(6) 0.31285(6) 0.6624(2)
P3F P 0.54934(7) 0.25619(6) -0.0125(3)
P4F P 0.67659(8) 0.37575(7) 0.4767(3)
P5B P 0.88376(8) 0.41546(8) 0.2337(3)
O1B O 0.79980(12) 0.49923(13) 0.4226(6)
O1G O 0.79980(12) 0.50077(13) 0.0774(6)
O2B O 0.79774(13) 0.46158(12) 0.2605(6)
O2D O 0.78842(12) 0.45226(13) -0.0105(6)
O3B O 0.82485(18) 0.46061(16) 0.4619(8)
O4F O 0.59205(17) 0.2977(2) 0.7593(7)
O5F O 0.59219(19) 0.32751(17) 0.5673(7)
O6F O 0.6251(2) 0.3287(2) 0.7461(9)
O7F O 0.5509(2) 0.25537(16) -0.1643(8)
O7F_2 O 0.5509(2) 0.25537(16) 0.8357(8)
O8F O 0.55579(17) 0.28221(16) 0.0468(8)
O8_2 O 0.53221(16) 0.30579(17) 0.7032(8)
O9F O 0.56622(18) 0.23449(17) 0.0415(7)
O9U O 0.51551(17) 0.31622(18) 0.2085(7)
O9Z O 0.56622(18) 0.26551(17) 0.5415(7)
O10F O 0.67940(19) 0.40053(19) 0.5526(8)
O10B O 0.82060(19) 0.40053(19) 0.4474(8)
O11F O 0.65444(19) 0.35981(17) 0.5239(8)
O12F O 0.67520(16) 0.3782(2) 0.3295(7)
O12D O 0.8718(2) 0.42520(16) 0.5795(7)
O13B O 0.8854(2) 0.3879(2) 0.2910(10)
O13F O 0.6146(2) 0.3879(2) 0.7090(10)
O14B O 0.88510(19) 0.4166(2) 0.0873(7)
O14F O 0.61490(19) 0.4166(2) -0.0873(7)
O14_2 O 0.6666(2) 0.36490(19) 0.8373(7)
O15B O 0.8604(2) 0.4297(2) 0.2770(8)
O16F O 0.58333(18) 0.29453(18) 0.3191(8)
O17F O 0.62574(18) 0.33830(18) 0.3216(7)
F1B F 0.75932(14) 0.5000 0.2500
H1B H 0.7811 0.4593 0.4821
H2F H 0.6109 0.2988 0.5768
H3F H 0.5280 0.2406 0.0048
H4F H 0.7014 0.3655 0.4874
H5B H 0.8997 0.4333 0.3030
loop_
_geom_bond_atom_site_label_1
_geom_bond_atom_site_label_2
_geom_bond_site_symmetry_1
_geom_bond_site_symmetry_2
Ga1 O1 1_555 1_555
Zn1 O5 1_555 1_555
Zn2 O4 1_555 1_555
Zn3 O6 1_555 1_555
Zn4 O3 1_555 1_555
P1 O1 1_555 1_555
P2 O4 1_555 1_555
P3 O7 1_555 1_555
P4 O10 1_555 1_555
P5 O13 1_555 1_555
O2 P1 1_555 1_555
O3 P1 1_555 1_555
O5 P2 1_555 1_555
O6 P2 1_555 1_555
O7 Zn2 1_555 1_555
O8 P3 1_555 1_555
O9 P3 1_555 1_555
O10 Zn4 1_555 1_555
O11 Zn3 1_555 1_555
O12 P4 1_555 1_555
O13 Zn3 1_555 1_555
O14 P5 1_555 1_555
O15 Zn4 1_555 1_555
O16 Zn1 1_555 1_555
O17 Zn1 1_555 1_555
F1 Ga1 1_555 1_555
H1 P1 1_555 1_555
H2 P2 1_555 1_555
H3 P3 1_555 1_555
H4 P4 1_555 1_555
H5 P5 1_555 1_555
Ga1C O2 1_555 1_555
Ga1B O1B 1_555 1_555
Zn2F O4F 1_555 1_555
Zn2F_2 O8 1_555 1_555
Zn2U O9 1_555 1_555
Zn2Z O9F 1_555 1_555
Zn3F O6F 1_555 1_555
Zn3F_2 O14 1_555 1_555
Zn3B O13B 1_555 1_555
Zn3D O14B 1_555 1_555
Zn4B O3B 1_555 1_555
Zn4F O12 1_555 1_555
P1B O1B 1_555 1_555
P2F O4F 1_555 1_555
P3F O7F 1_555 1_555
P4F O10F 1_555 1_555
P5B O13B 1_555 1_555
O1G Ga1 1_555 1_555
O2B Ga1 1_555 1_555
O2D Ga1 1_555 1_555
O3B P1B 1_555 1_555
O5F Zn1 1_555 1_555
O6F P2F 1_555 1_555
O7F Zn2F_2 1_555 1_555
O7F_2 Zn2F 1_555 1_555
O8F Zn2 1_555 1_555
O8_2 Zn2F 1_555 1_555
O9F P3F 1_555 1_555
O9U Zn2 1_555 1_555
O9Z Zn2F 1_555 1_555
O10F Zn4F 1_555 1_555
O10B Zn4B 1_555 1_555
O11F Zn3F 1_555 1_555
O12F Zn4 1_555 1_555
O12D Zn4B 1_555 1_555
O13F Zn3F 1_555 1_555
O14B P5B 1_555 1_555
O14F Zn3 1_555 1_555
O14_2 Zn3F 1_555 1_555
O15B Zn4B 1_555 1_555
O16F Zn1 1_555 1_555
O17F Zn1 1_555 1_555
F1B Ga1 1_555 1_555
H1B P1B 1_555 1_555
H2F P2F 1_555 1_555
H3F P3F 1_555 1_555
H4F P4F 1_555 1_555
H5B P5B 1_555 1_555
P4 O11 1_555 1_555
P5 O15 1_555 1_555
F1 Ga1C 1_555 1_555
Ga1B F1B 1_555 1_555
P1B O2B 1_555 1_555
P2F O5F 1_555 1_555
P3F O8F 1_555 1_555
P4F O11F 1_555 1_555
P4F O12F 1_555 1_555
P5B O15B 1_555 1_555

#END
