
#######################################################################
#
#                 Cambridge Crystallographic Data Centre
#                                CCDC 
#
#######################################################################
#
# If this CIF has been generated from an entry in the Cambridge 
# Structural Database, then it will include bibliographic, chemical, 
# crystal, experimental, refinement or atomic coordinate data resulting 
# from the CCDC's data processing and validation procedures.
#
#######################################################################

data_LETQAE
_chemical_formula_moiety         '(H58 F4 Ga4 O114 P34 Zn23 14-)n'
_symmetry_cell_setting           orthorhombic
_symmetry_space_group_name_H-M   'C m c a'
_symmetry_Int_Tables_number      64
_space_group_name_Hall           '-C 2ac 2'
loop_
_symmetry_equiv_pos_site_id
_symmetry_equiv_pos_as_xyz
1 x,y,z
2 -x,1/2-y,1/2+z
3 -x,1/2+y,1/2-z
4 x,-y,-z
5 1/2+x,1/2+y,z
6 1/2-x,-y,1/2+z
7 1/2-x,y,1/2-z
8 1/2+x,1/2-y,-z
9 -x,-y,-z
10 x,1/2+y,1/2-z
11 x,1/2-y,1/2+z
12 -x,y,z
13 1/2-x,1/2-y,-z
14 1/2+x,y,1/2-z
15 1/2+x,-y,1/2+z
16 1/2-x,1/2+y,z
_cell_length_a                   48.561(2)
_cell_length_b                   66.340(3)
_cell_length_c                   10.0376(6)
_cell_angle_alpha                90
_cell_angle_beta                 90
_cell_angle_gamma                90
_cell_volume                     32336.5
loop_
_atom_site_label
_atom_site_type_symbol
_atom_site_fract_x
_atom_site_fract_y
_atom_site_fract_z
Ga1 Ga 0.2500 0.026837(9) 0.7500
Ga2 Ga 0.213259(12) 0.0000 0.5000
Zn1 Zn 0.231677(15) 0.091415(9) 0.42275(6)
Zn2 Zn 0.438770(11) -0.016193(12) 0.82937(6)
Zn3 Zn 0.227963(17) 0.138073(9) -0.07992(7)
Zn4 Zn 0.5000 0.0000 0.5000
Zn5 Zn 0.2500 0.182627(16) 0.2500
Zn6 Zn 0.22929(3) 0.227493(11) -0.08683(9)
Zn7 Zn 0.374852(11) 0.013196(12) 0.67287(6)
P1 P 0.310873(18) 0.011448(17) 0.71953(10)
P2 P 0.23438(2) 0.044546(15) 0.46981(10)
P3 P 0.40008(2) -0.02840(2) 0.60135(13)
P4 P 0.21145(3) 0.109880(19) 0.14673(13)
P5 P 0.21266(3) 0.12150(2) 0.64127(14)
P6 P 0.21584(3) 0.182982(19) -0.03867(14)
P7 P 0.41600(2) 0.02724(3) 0.89053(13)
P8 P 0.21222(5) 0.25536(2) 0.1422(2)
P9 P 0.5000 -0.02526(3) 0.78539(16)
O1 O 0.28847(5) 0.02702(4) 0.7020(3)
O2 O 0.33699(6) 0.01961(6) 0.6613(3)
O3 O 0.31506(5) 0.00487(4) 0.8641(3)
O4 O 0.21318(5) 0.02813(4) 0.4518(3)
O5 O 0.24340(5) 0.04756(4) 0.6157(3)
O6 O 0.22291(8) 0.06368(5) 0.4108(3)
O7 O 0.37921(7) -0.01628(6) 0.6780(4)
O8 O 0.42944(6) -0.02504(6) 0.6503(3)
O9 O 0.39896(6) -0.02600(6) 0.4541(3)
O10 O 0.21558(9) 0.13126(5) 0.1001(3)
O11 O 0.21488(8) 0.10928(5) 0.2945(3)
O12 O 0.22791(8) 0.09456(5) 0.0708(4)
O13 O 0.21843(10) 0.10033(5) 0.5945(4)
O14 O 0.21129(9) 0.12111(6) 0.7910(4)
O15 O 0.23207(9) 0.13757(5) 0.5820(4)
O16 O 0.23956(10) 0.18287(6) 0.0558(4)
O17 O 0.21494(11) 0.16479(5) -0.1243(4)
O18 O 0.21607(13) 0.20094(6) -0.1288(5)
O19 O 0.38720(7) 0.02252(8) 0.8450(3)
O20 O 0.41607(7) 0.02850(7) 1.0394(3)
O21 O 0.43773(7) 0.01314(7) 0.8338(4)
O22 O 0.23099(13) 0.27181(6) 0.0866(5)
O23 O 0.21141(13) 0.25450(7) 0.2913(5)
O24 O 0.21793(12) 0.23448(6) 0.0905(4)
O25 O 0.5000 -0.00799(9) 0.6906(5)
O26 O 0.47545(6) -0.02536(8) 0.8736(3)
O27 O 0.46651(7) 0.02146(6) 0.5553(3)
O28 O 0.22084(9) 0.15815(5) 0.3051(4)
O29 O 0.22093(10) 0.20728(6) 0.3030(4)
F1 F 0.24285(4) 0.00516(3) 0.6264(2)
H1 H 0.3012 -0.0045 0.6425
H2 H 0.2579 0.0393 0.3924
H3 H 0.3960 -0.0461 0.6301
H4 H 0.1898 0.1066 0.1253
H5 H 0.1991 0.1834 0.0131
H6 H 0.1885 0.1270 0.6038
H7 H 0.4200 0.0451 0.8395
H8 H 0.1932 0.2577 0.1128
H9 H 0.5000 -0.0419 0.7267
Ga1K Ga 0.7500 0.026837(9) 0.7500
Ga1C Ga 0.2500 -0.026837(9) 0.2500
Ga1H Ga 0.7500 -0.026837(9) 0.2500
Ga2H Ga 0.786741(12) 0.0000 0.5000
Ga2E Ga 0.286741(12) 0.0000 0.0000
Ga2E_2 Ga 0.286741(12) 0.0000 1.0000
Ga2M Ga 0.713259(12) 0.0000 0.0000
Ga2M_2 Ga 0.713259(12) 0.0000 1.0000
Zn1C Zn 0.231677(15) -0.091415(9) 0.57725(6)
Zn1H Zn 0.768323(15) -0.091415(9) 0.57725(6)
Zn1K Zn 0.768323(15) 0.091415(9) 0.42275(6)
Zn1E Zn 0.268323(15) -0.091415(9) 0.92275(6)
Zn1F Zn 0.268323(15) 0.091415(9) 0.07725(6)
Zn1M Zn 0.731677(15) 0.091415(9) 0.07725(6)
Zn1N Zn 0.731677(15) -0.091415(9) 0.92275(6)
Zn2C Zn 0.438770(11) 0.016193(12) 0.17063(6)
Zn2H Zn 0.561230(11) 0.016193(12) 0.17063(6)
Zn2K Zn 0.561230(11) -0.016193(12) 0.82937(6)
Zn2_2 Zn 0.438770(11) -0.016193(12) -0.17063(6)
Zn2C_2 Zn 0.438770(11) 0.016193(12) 1.17063(6)
Zn2H_2 Zn 0.561230(11) 0.016193(12) 1.17063(6)
Zn2K_2 Zn 0.561230(11) -0.016193(12) -0.17063(6)
Zn3C Zn 0.227963(17) -0.138073(9) 1.07992(7)
Zn3H Zn 0.772037(17) -0.138073(9) 1.07992(7)
Zn3K Zn 0.772037(17) 0.138073(9) -0.07992(7)
Zn3_2 Zn 0.227963(17) 0.138073(9) 0.92008(7)
Zn3C_2 Zn 0.227963(17) -0.138073(9) 0.07992(7)
Zn3E Zn 0.272037(17) -0.138073(9) 0.42008(7)
Zn3F Zn 0.272037(17) 0.138073(9) 0.57992(7)
Zn3H_2 Zn 0.772037(17) -0.138073(9) 0.07992(7)
Zn3K_2 Zn 0.772037(17) 0.138073(9) 0.92008(7)
Zn3M Zn 0.727963(17) 0.138073(9) 0.57992(7)
Zn3N Zn 0.727963(17) -0.138073(9) 0.42008(7)
Zn5K Zn 0.7500 0.182627(16) 0.2500
Zn5C Zn 0.2500 -0.182627(16) 0.7500
Zn5H Zn 0.7500 -0.182627(16) 0.7500
Zn6C Zn 0.22929(3) -0.227493(11) 1.08683(9)
Zn6H Zn 0.77071(3) -0.227493(11) 1.08683(9)
Zn6K Zn 0.77071(3) 0.227493(11) -0.08683(9)
Zn6A Zn 0.77071(3) 0.272507(11) 0.41317(9)
Zn6B Zn 0.77071(3) -0.272507(11) 0.58683(9)
Zn6D Zn 0.72929(3) -0.272507(11) 0.91317(9)
Zn6G Zn 0.72929(3) 0.272507(11) 0.08683(9)
Zn6I Zn 0.22929(3) -0.272507(11) 0.58683(9)
Zn6J Zn 0.22929(3) 0.272507(11) 0.41317(9)
Zn6L Zn 0.27071(3) 0.272507(11) 0.08683(9)
Zn6O Zn 0.27071(3) -0.272507(11) 0.91317(9)
Zn7C Zn 0.374852(11) -0.013196(12) 0.32713(6)
Zn7H Zn 0.625148(11) -0.013196(12) 0.32713(6)
Zn7K Zn 0.625148(11) 0.013196(12) 0.67287(6)
P1C P 0.310873(18) -0.011448(17) 0.28047(10)
P1H P 0.689127(18) -0.011448(17) 0.28047(10)
P1K P 0.689127(18) 0.011448(17) 0.71953(10)
P2C P 0.23438(2) -0.044546(15) 0.53019(10)
P2H P 0.76562(2) -0.044546(15) 0.53019(10)
P2K P 0.76562(2) 0.044546(15) 0.46981(10)
P3C P 0.40008(2) 0.02840(2) 0.39865(13)
P3H P 0.59992(2) 0.02840(2) 0.39865(13)
P3K P 0.59992(2) -0.02840(2) 0.60135(13)
P4C P 0.21145(3) -0.109880(19) 0.85327(13)
P4H P 0.78855(3) -0.109880(19) 0.85327(13)
P4K P 0.78855(3) 0.109880(19) 0.14673(13)
P5C P 0.21266(3) -0.12150(2) 0.35873(14)
P5H P 0.78734(3) -0.12150(2) 0.35873(14)
P5K P 0.78734(3) 0.12150(2) 0.64127(14)
P6C P 0.21584(3) -0.182982(19) 1.03867(14)
P6H P 0.78416(3) -0.182982(19) 1.03867(14)
P6K P 0.78416(3) 0.182982(19) -0.03867(14)
P7C P 0.41600(2) -0.02724(3) 0.10947(13)
P7H P 0.58400(2) -0.02724(3) 0.10947(13)
P7K P 0.58400(2) 0.02724(3) 0.89053(13)
P8C P 0.21222(5) -0.25536(2) 0.8578(2)
P8H P 0.78778(5) -0.25536(2) 0.8578(2)
P8K P 0.78778(5) 0.25536(2) 0.1422(2)
P9C P 0.5000 0.02526(3) 0.21461(16)
O1C O 0.28847(5) -0.02702(4) 0.2980(3)
O1H O 0.71153(5) -0.02702(4) 0.2980(3)
O1K O 0.71153(5) 0.02702(4) 0.7020(3)
O1F O 0.21153(5) 0.02702(4) 0.7980(3)
O1M O 0.78847(5) 0.02702(4) 0.7980(3)
O2C O 0.33699(6) -0.01961(6) 0.3387(3)
O2H O 0.66301(6) -0.01961(6) 0.3387(3)
O2K O 0.66301(6) 0.01961(6) 0.6613(3)
O3C O 0.31506(5) -0.00487(4) 0.1359(3)
O3H O 0.68494(5) -0.00487(4) 0.1359(3)
O3K O 0.68494(5) 0.00487(4) 0.8641(3)
O3E O 0.18494(5) -0.00487(4) 0.3641(3)
O3F O 0.18494(5) 0.00487(4) 0.6359(3)
O3M O 0.81506(5) 0.00487(4) 0.6359(3)
O3N O 0.81506(5) -0.00487(4) 0.3641(3)
O4C O 0.21318(5) -0.02813(4) 0.5482(3)
O4H O 0.78682(5) -0.02813(4) 0.5482(3)
O4K O 0.78682(5) 0.02813(4) 0.4518(3)
O5C O 0.24340(5) -0.04756(4) 0.3843(3)
O5H O 0.75660(5) -0.04756(4) 0.3843(3)
O5K O 0.75660(5) 0.04756(4) 0.6157(3)
O5F O 0.25660(5) 0.04756(4) 0.8843(3)
O5M O 0.74340(5) 0.04756(4) 0.8843(3)
O6C O 0.22291(8) -0.06368(5) 0.5892(3)
O6H O 0.77709(8) -0.06368(5) 0.5892(3)
O6K O 0.77709(8) 0.06368(5) 0.4108(3)
O7C O 0.37921(7) 0.01628(6) 0.3220(4)
O7H O 0.62079(7) 0.01628(6) 0.3220(4)
O7K O 0.62079(7) -0.01628(6) 0.6780(4)
O8C O 0.42944(6) 0.02504(6) 0.3497(3)
O8H O 0.57056(6) 0.02504(6) 0.3497(3)
O8K O 0.57056(6) -0.02504(6) 0.6503(3)
O9C O 0.39896(6) 0.02600(6) 0.5459(3)
O9H O 0.60104(6) 0.02600(6) 0.5459(3)
O9K O 0.60104(6) -0.02600(6) 0.4541(3)
O10C O 0.21558(9) -0.13126(5) 0.8999(3)
O10H O 0.78442(9) -0.13126(5) 0.8999(3)
O10K O 0.78442(9) 0.13126(5) 0.1001(3)
O11C O 0.21488(8) -0.10928(5) 0.7055(3)
O11H O 0.78512(8) -0.10928(5) 0.7055(3)
O11K O 0.78512(8) 0.10928(5) 0.2945(3)
O12C O 0.22791(8) -0.09456(5) 0.9292(4)
O12H O 0.77209(8) -0.09456(5) 0.9292(4)
O12K O 0.77209(8) 0.09456(5) 0.0708(4)
O12E O 0.27209(8) -0.09456(5) 0.5708(4)
O12F O 0.27209(8) 0.09456(5) 0.4292(4)
O12M O 0.72791(8) 0.09456(5) 0.4292(4)
O12N O 0.72791(8) -0.09456(5) 0.5708(4)
O13C O 0.21843(10) -0.10033(5) 0.4055(4)
O13H O 0.78157(10) -0.10033(5) 0.4055(4)
O13K O 0.78157(10) 0.10033(5) 0.5945(4)
O14C O 0.21129(9) -0.12111(6) 0.2090(4)
O14H O 0.78871(9) -0.12111(6) 0.2090(4)
O14K O 0.78871(9) 0.12111(6) 0.7910(4)
O14_2 O 0.21129(9) 0.12111(6) -0.2090(4)
O14C_2 O 0.21129(9) -0.12111(6) 1.2090(4)
O14H_2 O 0.78871(9) -0.12111(6) 1.2090(4)
O14K_2 O 0.78871(9) 0.12111(6) -0.2090(4)
O15C O 0.23207(9) -0.13757(5) 0.4180(4)
O15H O 0.76793(9) -0.13757(5) 0.4180(4)
O15K O 0.76793(9) 0.13757(5) 0.5820(4)
O15E O 0.26793(9) -0.13757(5) 1.0820(4)
O15F O 0.26793(9) 0.13757(5) -0.0820(4)
O15M O 0.73207(9) 0.13757(5) -0.0820(4)
O15N O 0.73207(9) -0.13757(5) 1.0820(4)
O16C O 0.23956(10) -0.18287(6) 0.9442(4)
O16H O 0.76044(10) -0.18287(6) 0.9442(4)
O16K O 0.76044(10) 0.18287(6) 0.0558(4)
O16F O 0.26044(10) 0.18287(6) 0.4442(4)
O16M O 0.73956(10) 0.18287(6) 0.4442(4)
O17C O 0.21494(11) -0.16479(5) 1.1243(4)
O17H O 0.78506(11) -0.16479(5) 1.1243(4)
O17K O 0.78506(11) 0.16479(5) -0.1243(4)
O18C O 0.21607(13) -0.20094(6) 1.1288(5)
O18H O 0.78393(13) -0.20094(6) 1.1288(5)
O18K O 0.78393(13) 0.20094(6) -0.1288(5)
O19C O 0.38720(7) -0.02252(8) 0.1550(3)
O19H O 0.61280(7) -0.02252(8) 0.1550(3)
O19K O 0.61280(7) 0.02252(8) 0.8450(3)
O20C O 0.41607(7) -0.02850(7) -0.0394(3)
O20H O 0.58393(7) -0.02850(7) -0.0394(3)
O20K O 0.58393(7) 0.02850(7) 1.0394(3)
O20_2 O 0.41607(7) 0.02850(7) 0.0394(3)
O20C_2 O 0.41607(7) -0.02850(7) 0.9606(3)
O20H_2 O 0.58393(7) -0.02850(7) 0.9606(3)
O20K_2 O 0.58393(7) 0.02850(7) 0.0394(3)
O21C O 0.43773(7) -0.01314(7) 0.1662(4)
O21H O 0.56227(7) -0.01314(7) 0.1662(4)
O21K O 0.56227(7) 0.01314(7) 0.8338(4)
O22C O 0.23099(13) -0.27181(6) 0.9134(5)
O22H O 0.76901(13) -0.27181(6) 0.9134(5)
O22K O 0.76901(13) 0.27181(6) 0.0866(5)
O22D O 0.73099(13) -0.22819(6) 1.0866(5)
O22G O 0.73099(13) 0.22819(6) -0.0866(5)
O22L O 0.26901(13) 0.22819(6) -0.0866(5)
O22O O 0.26901(13) -0.22819(6) 1.0866(5)
O23C O 0.21141(13) -0.25450(7) 0.7087(5)
O23H O 0.78859(13) -0.25450(7) 0.7087(5)
O23K O 0.78859(13) 0.25450(7) 0.2913(5)
O23A O 0.78859(13) 0.24550(7) -0.2087(5)
O23B O 0.78859(13) -0.24550(7) 1.2087(5)
O23I O 0.21141(13) -0.24550(7) 1.2087(5)
O23J O 0.21141(13) 0.24550(7) -0.2087(5)
O24C O 0.21793(12) -0.23448(6) 0.9095(4)
O24H O 0.78207(12) -0.23448(6) 0.9095(4)
O24K O 0.78207(12) 0.23448(6) 0.0905(4)
O25C O 0.5000 0.00799(9) 0.3094(5)
O26K O 0.52455(6) -0.02536(8) 0.8736(3)
O26C O 0.47545(6) 0.02536(8) 0.1264(3)
O26H O 0.52455(6) 0.02536(8) 0.1264(3)
O27C O 0.46651(7) -0.02146(6) 0.4447(3)
O27H O 0.53349(7) -0.02146(6) 0.4447(3)
O27K O 0.53349(7) 0.02146(6) 0.5553(3)
O28K O 0.77916(9) 0.15815(5) 0.3051(4)
O28F O 0.27916(9) 0.15815(5) 0.1949(4)
O28M O 0.72084(9) 0.15815(5) 0.1949(4)
O29K O 0.77907(10) 0.20728(6) 0.3030(4)
O29F O 0.27907(10) 0.20728(6) 0.1970(4)
O29M O 0.72093(10) 0.20728(6) 0.1970(4)
F1C F 0.24285(4) -0.00516(3) 0.3736(2)
F1H F 0.75715(4) -0.00516(3) 0.3736(2)
F1K F 0.75715(4) 0.00516(3) 0.6264(2)
F1F F 0.25715(4) 0.00516(3) 0.8736(2)
F1M F 0.74285(4) 0.00516(3) 0.8736(2)
H1C H 0.3012 0.0045 0.3575
H1H H 0.6988 0.0045 0.3575
H1K H 0.6988 -0.0045 0.6425
H2C H 0.2579 -0.0393 0.6076
H2H H 0.7421 -0.0393 0.6076
H2K H 0.7421 0.0393 0.3924
H3C H 0.3960 0.0461 0.3699
H3H H 0.6040 0.0461 0.3699
H3K H 0.6040 -0.0461 0.6301
H4C H 0.1898 -0.1066 0.8747
H4H H 0.8102 -0.1066 0.8747
H4K H 0.8102 0.1066 0.1253
H5C H 0.1991 -0.1834 0.9869
H5H H 0.8009 -0.1834 0.9869
H5K H 0.8009 0.1834 0.0131
H6C H 0.1885 -0.1270 0.3962
H6H H 0.8115 -0.1270 0.3962
H6K H 0.8115 0.1270 0.6038
H7C H 0.4200 -0.0451 0.1605
H7H H 0.5800 -0.0451 0.1605
H7K H 0.5800 0.0451 0.8395
H8C H 0.1932 -0.2577 0.8872
H8H H 0.8068 -0.2577 0.8872
H8K H 0.8068 0.2577 0.1128
H9C H 0.5000 0.0419 0.2733
loop_
_geom_bond_atom_site_label_1
_geom_bond_atom_site_label_2
_geom_bond_site_symmetry_1
_geom_bond_site_symmetry_2
Ga1 O1 1_555 1_555
Ga2 O4 1_555 1_555
Zn1 O6 1_555 1_555
Zn2 O8 1_555 1_555
Zn3 O10 1_555 1_555
Zn4 O25 1_555 1_555
Zn5 O16 1_555 1_555
Zn6 O18 1_555 1_555
Zn7 O2 1_555 1_555
P1 O1 1_555 1_555
P2 O4 1_555 1_555
P3 O7 1_555 1_555
P4 O10 1_555 1_555
P5 O13 1_555 1_555
P6 O16 1_555 1_555
P7 O19 1_555 1_555
P8 O22 1_555 1_555
P9 O25 1_555 1_555
O2 P1 1_555 1_555
O3 P1 1_555 1_555
O5 Ga1 1_555 1_555
O6 P2 1_555 1_555
O7 Zn7 1_555 1_555
O8 P3 1_555 1_555
O9 P3 1_555 1_555
O11 Zn1 1_555 1_555
O12 P4 1_555 1_555
O13 Zn1 1_555 1_555
O14 P5 1_555 1_555
O15 P5 1_555 1_555
O17 Zn3 1_555 1_555
O18 P6 1_555 1_555
O19 Zn7 1_555 1_555
O20 P7 1_555 1_555
O21 Zn2 1_555 1_555
O22 Zn6L 1_555 1_555
O23 P8 1_555 1_555
O24 Zn6 1_555 1_555
O26 Zn2 1_555 1_555
O27 Zn4 1_555 1_555
O28 Zn5 1_555 1_555
O29 Zn5 1_555 1_555
F1 Ga1 1_555 1_555
H1 P1 1_555 1_555
H2 P2 1_555 1_555
H3 P3 1_555 1_555
H4 P4 1_555 1_555
H5 P6 1_555 1_555
H6 P5 1_555 1_555
H7 P7 1_555 1_555
H8 P8 1_555 1_555
H9 P9 1_555 1_555
Ga1K O1K 1_555 1_555
Ga1C O1C 1_555 1_555
Ga1H O1H 1_555 1_555
Ga2H O3M 1_555 1_555
Ga2E O3C 1_555 1_555
Ga2E_2 O3 1_555 1_555
Ga2M O3H 1_555 1_555
Ga2M_2 O3K 1_555 1_555
Zn1C O6C 1_555 1_555
Zn1H O6H 1_555 1_555
Zn1K O6K 1_555 1_555
Zn1E O12C 1_555 1_555
Zn1F O12 1_555 1_555
Zn1M O12K 1_555 1_555
Zn1N O12H 1_555 1_555
Zn2C O8C 1_555 1_555
Zn2H O8H 1_555 1_555
Zn2K O8K 1_555 1_555
Zn2_2 O20C 1_555 1_555
Zn2C_2 O20 1_555 1_555
Zn2H_2 O20K 1_555 1_555
Zn2K_2 O20H 1_555 1_555
Zn3C O10C 1_555 1_555
Zn3H O10H 1_555 1_555
Zn3K O10K 1_555 1_555
Zn3_2 O14 1_555 1_555
Zn3C_2 O14C 1_555 1_555
Zn3E O15C 1_555 1_555
Zn3F O15 1_555 1_555
Zn3H_2 O14H 1_555 1_555
Zn3K_2 O14K 1_555 1_555
Zn3M O15K 1_555 1_555
Zn3N O15H 1_555 1_555
Zn5K O16K 1_555 1_555
Zn5C O16C 1_555 1_555
Zn5H O16H 1_555 1_555
Zn6C O18C 1_555 1_555
Zn6H O18H 1_555 1_555
Zn6K O18K 1_555 1_555
Zn6A O23K 1_555 1_555
Zn6B O23H 1_555 1_555
Zn6D O22H 1_555 1_555
Zn6G O22K 1_555 1_555
Zn6I O23C 1_555 1_555
Zn6J O23 1_555 1_555
Zn6O O22C 1_555 1_555
Zn7C O9 1_555 1_555
Zn7H O2H 1_555 1_555
Zn7K O2K 1_555 1_555
P1C O1C 1_555 1_555
P1H O1H 1_555 1_555
P1K O1K 1_555 1_555
P2C O4C 1_555 1_555
P2H O4H 1_555 1_555
P2K O4K 1_555 1_555
P3C O7C 1_555 1_555
P3H O7H 1_555 1_555
P3K O7K 1_555 1_555
P4C O10C 1_555 1_555
P4H O10H 1_555 1_555
P4K O10K 1_555 1_555
P5C O13C 1_555 1_555
P5H O13H 1_555 1_555
P5K O13K 1_555 1_555
P6C O16C 1_555 1_555
P6H O16H 1_555 1_555
P6K O16K 1_555 1_555
P7C O19C 1_555 1_555
P7H O19H 1_555 1_555
P7K O19K 1_555 1_555
P8C O22C 1_555 1_555
P8H O22H 1_555 1_555
P8K O22K 1_555 1_555
P9C O25C 1_555 1_555
O1F Ga1 1_555 1_555
O1M Ga1K 1_555 1_555
O2C Zn7C 1_555 1_555
O2H P1H 1_555 1_555
O2K P1K 1_555 1_555
O3C P1C 1_555 1_555
O3H P1H 1_555 1_555
O3K P1K 1_555 1_555
O3E Ga2 1_555 1_555
O3F Ga2 1_555 1_555
O3N Ga2H 1_555 1_555
O4C Ga2 1_555 1_555
O4H Ga2H 1_555 1_555
O4K Ga2H 1_555 1_555
O5C Ga1C 1_555 1_555
O5H Ga1H 1_555 1_555
O5K Ga1K 1_555 1_555
O5F Ga1 1_555 1_555
O5M Ga1K 1_555 1_555
O6C P2C 1_555 1_555
O6H P2H 1_555 1_555
O6K P2K 1_555 1_555
O7C Zn7C 1_555 1_555
O7H Zn7H 1_555 1_555
O7K Zn7K 1_555 1_555
O8C P3C 1_555 1_555
O8H P3H 1_555 1_555
O8K P3K 1_555 1_555
O9C Zn7 1_555 1_555
O9H Zn7K 1_555 1_555
O9K Zn7H 1_555 1_555
O11C Zn1C 1_555 1_555
O11H Zn1H 1_555 1_555
O11K Zn1K 1_555 1_555
O12C P4C 1_555 1_555
O12H P4H 1_555 1_555
O12K P4K 1_555 1_555
O12E Zn1C 1_555 1_555
O12F Zn1 1_555 1_555
O12M Zn1K 1_555 1_555
O12N Zn1H 1_555 1_555
O13C Zn1C 1_555 1_555
O13H Zn1H 1_555 1_555
O13K Zn1K 1_555 1_555
O14C P5C 1_555 1_555
O14H P5H 1_555 1_555
O14K P5K 1_555 1_555
O14_2 Zn3 1_555 1_555
O14C_2 Zn3C 1_555 1_555
O14H_2 Zn3H 1_555 1_555
O14K_2 Zn3K 1_555 1_555
O15C P5C 1_555 1_555
O15H P5H 1_555 1_555
O15K P5K 1_555 1_555
O15E Zn3C 1_555 1_555
O15F Zn3 1_555 1_555
O15M Zn3K 1_555 1_555
O15N Zn3H 1_555 1_555
O16F Zn5 1_555 1_555
O16M Zn5K 1_555 1_555
O17C Zn3C 1_555 1_555
O17H Zn3H 1_555 1_555
O17K Zn3K 1_555 1_555
O18C P6C 1_555 1_555
O18H P6H 1_555 1_555
O18K P6K 1_555 1_555
O19C Zn7C 1_555 1_555
O19H Zn7H 1_555 1_555
O19K Zn7K 1_555 1_555
O20C P7C 1_555 1_555
O20H P7H 1_555 1_555
O20K P7K 1_555 1_555
O20_2 Zn2C 1_555 1_555
O20C_2 Zn2 1_555 1_555
O20H_2 Zn2K 1_555 1_555
O20K_2 Zn2H 1_555 1_555
O21C Zn2C 1_555 1_555
O21H Zn2H 1_555 1_555
O21K Zn2K 1_555 1_555
O22D Zn6H 1_555 1_555
O22G Zn6K 1_555 1_555
O22L Zn6 1_555 1_555
O22O Zn6C 1_555 1_555
O23C P8C 1_555 1_555
O23H P8H 1_555 1_555
O23K P8K 1_555 1_555
O23A Zn6K 1_555 1_555
O23B Zn6H 1_555 1_555
O23I Zn6C 1_555 1_555
O23J Zn6 1_555 1_555
O24C Zn6C 1_555 1_555
O24H Zn6H 1_555 1_555
O24K Zn6K 1_555 1_555
O25C Zn4 1_555 1_555
O26K P9 1_555 1_555
O26C Zn2C 1_555 1_555
O26H Zn2H 1_555 1_555
O27C Zn4 1_555 1_555
O27H Zn4 1_555 1_555
O27K Zn4 1_555 1_555
O28K Zn5K 1_555 1_555
O28F Zn5 1_555 1_555
O28M Zn5K 1_555 1_555
O29K Zn5K 1_555 1_555
O29F Zn5 1_555 1_555
O29M Zn5K 1_555 1_555
F1C Ga2 1_555 1_555
F1H Ga1H 1_555 1_555
F1K Ga1K 1_555 1_555
F1F Ga1 1_555 1_555
F1M Ga1K 1_555 1_555
H1C P1C 1_555 1_555
H1H P1H 1_555 1_555
H1K P1K 1_555 1_555
H2C P2C 1_555 1_555
H2H P2H 1_555 1_555
H2K P2K 1_555 1_555
H3C P3C 1_555 1_555
H3H P3H 1_555 1_555
H3K P3K 1_555 1_555
H4C P4C 1_555 1_555
H4H P4H 1_555 1_555
H4K P4K 1_555 1_555
H5C P6C 1_555 1_555
H5H P6H 1_555 1_555
H5K P6K 1_555 1_555
H6C P5C 1_555 1_555
H6H P5H 1_555 1_555
H6K P5K 1_555 1_555
H7C P7C 1_555 1_555
H7H P7H 1_555 1_555
H7K P7K 1_555 1_555
H8C P8C 1_555 1_555
H8H P8H 1_555 1_555
H8K P8K 1_555 1_555
H9C P9C 1_555 1_555
Ga2 F1 1_555 1_555
P2 O5 1_555 1_555
P4 O11 1_555 1_555
P6 O17 1_555 1_555
P7 O21 1_555 1_555
P8 O24 1_555 1_555
P9 O26 1_555 1_555
Ga1C F1C 1_555 1_555
Ga2H F1H 1_555 1_555
Ga2H F1K 1_555 1_555
Ga2E_2 F1F 1_555 1_555
Ga2M_2 F1M 1_555 1_555
Zn2K O26K 1_555 1_555
P1C O2C 1_555 1_555
P2C O5C 1_555 1_555
P2H O5H 1_555 1_555
P2K O5K 1_555 1_555
P3C O9C 1_555 1_555
P3H O9H 1_555 1_555
P3K O9K 1_555 1_555
P4C O11C 1_555 1_555
P4H O11H 1_555 1_555
P4K O11K 1_555 1_555
P6C O17C 1_555 1_555
P6H O17H 1_555 1_555
P6K O17K 1_555 1_555
P7C O21C 1_555 1_555
P7H O21H 1_555 1_555
P7K O21K 1_555 1_555
P8C O24C 1_555 1_555
P8H O24H 1_555 1_555
P8K O24K 1_555 1_555
P9C O26C 1_555 1_555
P9C O26H 1_555 1_555

#END
