
#######################################################################
#
#                 Cambridge Crystallographic Data Centre
#                                CCDC 
#
#######################################################################
#
# If this CIF has been generated from an entry in the Cambridge 
# Structural Database, then it will include bibliographic, chemical, 
# crystal, experimental, refinement or atomic coordinate data resulting 
# from the CCDC's data processing and validation procedures.
#
#######################################################################

data_LETQEI
_chemical_formula_moiety         '(H18 F1 Ga1 O34 P10 Zn7 4-)n'
_symmetry_cell_setting           tetragonal
_symmetry_space_group_name_H-M   'I 41/a c d'
_symmetry_Int_Tables_number      142
_space_group_name_Hall           '-I 4bd 2c'
loop_
_symmetry_equiv_pos_site_id
_symmetry_equiv_pos_as_xyz
1 x,y,z
2 1/2-x,-y,1/2+z
3 1/4-y,3/4+x,1/4+z
4 1/4+y,1/4-x,3/4+z
5 1/2-x,y,-z
6 x,-y,1/2-z
7 1/4+y,3/4+x,3/4-z
8 1/4-y,1/4-x,1/4-z
9 1/2+x,1/2+y,1/2+z
10 -x,1/2-y,z
11 3/4-y,1/4+x,3/4+z
12 3/4+y,3/4-x,1/4+z
13 -x,1/2+y,1/2-z
14 1/2+x,1/2-y,-z
15 3/4+y,1/4+x,1/4-z
16 3/4-y,3/4-x,3/4-z
17 -x,-y,-z
18 1/2+x,y,1/2-z
19 3/4+y,1/4-x,3/4-z
20 3/4-y,3/4+x,1/4-z
21 1/2+x,-y,z
22 -x,y,1/2+z
23 3/4-y,1/4-x,1/4+z
24 3/4+y,3/4+x,3/4+z
25 1/2-x,1/2-y,1/2-z
26 x,1/2+y,-z
27 1/4+y,3/4-x,1/4-z
28 1/4-y,1/4+x,3/4-z
29 x,1/2-y,1/2+z
30 1/2-x,1/2+y,z
31 1/4-y,3/4-x,3/4+z
32 1/4+y,1/4+x,1/4+z
_cell_length_a                   66.313(11)
_cell_length_b                   66.313(11)
_cell_length_c                   9.982(4)
_cell_angle_alpha                90
_cell_angle_beta                 90
_cell_angle_gamma                90
_cell_volume                     43895
loop_
_atom_site_label
_atom_site_type_symbol
_atom_site_fract_x
_atom_site_fract_y
_atom_site_fract_z
Ga1 Ga 0.2500 0.02700(2) 0.0000
Zn1 Zn 0.15851(2) 0.01317(3) -0.07648(18)
Zn2 Zn 0.06722(3) -0.0000 -0.2500
Zn3 Zn 0.11199(2) -0.01632(3) 0.0787(2)
Zn4 Zn 0.02239(3) -0.01515(5) 0.0863(3)
P1 P 0.14009(4) -0.02841(6) -0.1485(5)
P2 P 0.12857(5) 0.02737(6) 0.1435(5)
P3 P 0.20540(4) 0.01156(4) -0.0286(3)
P4 P 0.06687(5) -0.02453(7) 0.0347(4)
P5 P 0.00546(5) 0.02771(11) 0.1461(8)
O1 O 0.15554(11) -0.01626(14) -0.0741(10)
O2 O 0.11838(11) -0.02513(14) -0.0981(10)
O3 O 0.14047(11) -0.02582(13) -0.2956(11)
O4 O 0.14983(12) 0.02181(15) 0.0926(10)
O5 O 0.11240(11) 0.01256(15) 0.0808(10)
O6 O 0.12814(13) 0.02820(14) 0.2944(11)
O7 O 0.22197(9) 0.02723(11) -0.0434(8)
O8 O 0.20245(8) 0.00492(9) 0.1179(7)
O9 O 0.18615(10) 0.01942(13) -0.0859(9)
O10 O 0.06711(13) -0.00775(16) -0.0623(12)
O11 O 0.04952(11) -0.0248(3) 0.1181(14)
O12 O 0.08490(10) -0.02533(17) 0.1152(11)
O13 O 0.02191(13) 0.0140(3) 0.0865(14)
O14 O -0.01597(13) 0.0227(2) 0.0864(14)
O15 O 0.00555(17) 0.0275(2) 0.2928(15)
O16 O 0.04312(13) -0.0207(2) -0.2998(13)
O17 O 0.09144(12) 0.02144(18) -0.1937(12)
F1 F 0.24446(7) 0.00554(7) 0.1250
H1 H 0.1463 -0.0488 -0.1306
H2 H 0.1239 0.0476 0.0934
H3 H 0.2107 -0.0028 -0.1293
H4 H 0.0662 -0.0406 -0.0617
H5 H 0.0101 0.0420 0.0618
Ga1B Ga 0.22300(2) 0.0000 0.2500
Ga1C Ga 0.27700(2) -0.0000 -0.2500
Zn1D Zn 0.34149(2) 0.01317(3) 0.07648(18)
Zn1A Zn 0.34149(2) -0.01317(3) 0.42352(18)
Zn1E Zn 0.15851(2) -0.01317(3) -0.42352(18)
Zn3D Zn 0.38801(2) -0.01632(3) -0.0787(2)
Zn3E Zn 0.11199(2) 0.01632(3) 0.4213(2)
Zn3E_2 Zn 0.11199(2) 0.01632(3) -0.5787(2)
Zn4E Zn 0.02239(3) 0.01515(5) 0.4137(3)
Zn4P Zn -0.02239(3) 0.01515(5) -0.0863(3)
Zn4E_2 Zn 0.02239(3) 0.01515(5) -0.5863(3)
Zn4U Zn -0.02239(3) -0.01515(5) -0.4137(3)
P1D P 0.35991(4) -0.02841(6) 0.1485(5)
P1E P 0.14009(4) 0.02841(6) -0.3515(5)
P3D P 0.29460(4) 0.01156(4) 0.0286(3)
P4E P 0.06687(5) 0.02453(7) -0.5347(4)
P5P P -0.00546(5) -0.02771(11) -0.1461(8)
O1D O 0.34446(11) -0.01626(14) 0.0741(10)
O1E O 0.15554(11) 0.01626(14) -0.4259(10)
O2D O 0.38162(11) -0.02513(14) 0.0981(10)
O2E O 0.11838(11) 0.02513(14) -0.4019(10)
O3D O 0.35953(11) -0.02582(13) 0.2956(11)
O3A O 0.35953(11) 0.02582(13) 0.2044(11)
O3E O 0.14047(11) 0.02582(13) -0.2044(11)
O4D O 0.35017(12) 0.02181(15) -0.0926(10)
O5E O 0.11240(11) -0.01256(15) -0.5808(10)
O6E O 0.12814(13) -0.02820(14) 0.2056(11)
O6_2 O 0.12814(13) 0.02820(14) -0.7056(11)
O7D O 0.27803(9) 0.02723(11) 0.0434(8)
O8D O 0.29755(8) 0.00492(9) -0.1179(7)
O8C O 0.25492(9) 0.04755(8) -0.1321(7)
O8G O 0.24508(9) 0.04755(8) 0.1321(7)
O9D O 0.31385(10) 0.01942(13) 0.0859(9)
O10E O 0.06711(13) 0.00775(16) -0.4377(12)
O11E O 0.04952(11) 0.0248(3) -0.6181(14)
O12E O 0.08490(10) 0.02533(17) -0.6152(11)
O13P O -0.02191(13) -0.0140(3) -0.0865(14)
O13E O 0.02191(13) -0.0140(3) -0.5865(14)
O14P O 0.01597(13) -0.0227(2) -0.0864(14)
O14U O 0.01597(13) 0.0227(2) -0.4136(14)
O15E O 0.00555(17) -0.0275(2) 0.2072(15)
O15P O -0.00555(17) -0.0275(2) -0.2928(15)
O15_2 O 0.00555(17) 0.0275(2) -0.7072(15)
O16E O 0.04312(13) 0.0207(2) -0.2002(13)
O17E O 0.09144(12) -0.02144(18) -0.3063(12)
F1C F 0.25554(7) 0.00554(7) -0.1250
H1D H 0.3537 -0.0488 0.1306
H1E H 0.1463 0.0488 -0.3694
H3D H 0.2893 -0.0028 0.1293
H4E H 0.0662 0.0406 -0.4383
H5P H -0.0101 -0.0420 -0.0618
loop_
_geom_bond_atom_site_label_1
_geom_bond_atom_site_label_2
_geom_bond_site_symmetry_1
_geom_bond_site_symmetry_2
Ga1 O7 1_555 1_555
Zn1 O1 1_555 1_555
Zn2 O10 1_555 1_555
Zn3 O2 1_555 1_555
Zn4 O11 1_555 1_555
P1 O1 1_555 1_555
P2 O4 1_555 1_555
P3 O7 1_555 1_555
P4 O10 1_555 1_555
P5 O13 1_555 1_555
O2 P1 1_555 1_555
O3 P1 1_555 1_555
O4 Zn1 1_555 1_555
O5 Zn3 1_555 1_555
O6 P2 1_555 1_555
O8 P3 1_555 1_555
O9 Zn1 1_555 1_555
O11 P4 1_555 1_555
O12 Zn3 1_555 1_555
O13 Zn4 1_555 1_555
O14 P5 1_555 1_555
O15 P5 1_555 1_555
O16 Zn2 1_555 1_555
O17 Zn2 1_555 1_555
F1 Ga1 1_555 1_555
H1 P1 1_555 1_555
H2 P2 1_555 1_555
H3 P3 1_555 1_555
H4 P4 1_555 1_555
H5 P5 1_555 1_555
Ga1B O8 1_555 1_555
Ga1C O8D 1_555 1_555
Zn1D O1D 1_555 1_555
Zn1A O3D 1_555 1_555
Zn1E O3 1_555 1_555
Zn3D O2D 1_555 1_555
Zn3E O6 1_555 1_555
Zn3E_2 O2E 1_555 1_555
Zn4E O15 1_555 1_555
Zn4P O14 1_555 1_555
Zn4E_2 O11E 1_555 1_555
Zn4U O15P 1_555 1_555
P1D O1D 1_555 1_555
P1E O1E 1_555 1_555
P3D O7D 1_555 1_555
P4E O10E 1_555 1_555
P5P O13P 1_555 1_555
O1E Zn1E 1_555 1_555
O2D P1D 1_555 1_555
O2E P1E 1_555 1_555
O3D P1D 1_555 1_555
O3A Zn1D 1_555 1_555
O3E Zn1 1_555 1_555
O4D Zn1D 1_555 1_555
O5E Zn3E_2 1_555 1_555
O6E Zn3 1_555 1_555
O6_2 Zn3E_2 1_555 1_555
O7D Ga1 1_555 1_555
O8D P3D 1_555 1_555
O8C Ga1 1_555 1_555
O8G Ga1 1_555 1_555
O9D Zn1D 1_555 1_555
O10E Zn2 1_555 1_555
O11E P4E 1_555 1_555
O12E Zn3E_2 1_555 1_555
O13P Zn4P 1_555 1_555
O13E Zn4E_2 1_555 1_555
O14P Zn4 1_555 1_555
O14U Zn4E_2 1_555 1_555
O15E Zn4 1_555 1_555
O15P P5P 1_555 1_555
O15_2 Zn4E_2 1_555 1_555
O16E Zn2 1_555 1_555
O17E Zn2 1_555 1_555
F1C Ga1 1_555 1_555
H1D P1D 1_555 1_555
H1E P1E 1_555 1_555
H3D P3D 1_555 1_555
H4E P4E 1_555 1_555
H5P P5P 1_555 1_555
P2 O5 1_555 1_555
P3 O9 1_555 1_555
P4 O12 1_555 1_555
F1 Ga1B 1_555 1_555
Ga1C F1C 1_555 1_555
P1E O3E 1_555 1_555
P3D O9D 1_555 1_555
P4E O12E 1_555 1_555
P5P O14P 1_555 1_555

#END
