
#######################################################################
#
#                 Cambridge Crystallographic Data Centre
#                                CCDC 
#
#######################################################################
#
# If this CIF has been generated from an entry in the Cambridge 
# Structural Database, then it will include bibliographic, chemical, 
# crystal, experimental, refinement or atomic coordinate data resulting 
# from the CCDC's data processing and validation procedures.
#
#######################################################################

data_LETREJ
_chemical_formula_moiety         '(H50 F2 Ga2 O90 P26 Zn19 10-)n'
_symmetry_cell_setting           tetragonal
_symmetry_space_group_name_H-M   'I 41/a m d'
_symmetry_Int_Tables_number      141
_space_group_name_Hall           '-I 4bd 2'
loop_
_symmetry_equiv_pos_site_id
_symmetry_equiv_pos_as_xyz
1 x,y,z
2 1/4-y,3/4+x,1/4+z
3 1/4+y,1/4-x,3/4+z
4 x,-y,-z
5 -x,1/2+y,-z
6 -x,1/2-y,z
7 1/4+y,3/4+x,1/4-z
8 1/4-y,1/4-x,3/4-z
9 1/2+x,1/2+y,1/2+z
10 3/4-y,1/4+x,3/4+z
11 3/4+y,3/4-x,1/4+z
12 1/2+x,1/2-y,1/2-z
13 1/2-x,y,1/2-z
14 1/2-x,-y,1/2+z
15 3/4+y,1/4+x,3/4-z
16 3/4-y,3/4-x,1/4-z
17 -x,-y,-z
18 3/4+y,1/4-x,3/4-z
19 3/4-y,3/4+x,1/4-z
20 -x,y,z
21 x,1/2-y,z
22 x,1/2+y,-z
23 3/4-y,1/4-x,3/4+z
24 3/4+y,3/4+x,1/4+z
25 1/2-x,1/2-y,1/2-z
26 1/4+y,3/4-x,1/4-z
27 1/4-y,1/4+x,3/4-z
28 1/2-x,1/2+y,1/2+z
29 1/2+x,-y,1/2+z
30 1/2+x,y,1/2-z
31 1/4-y,3/4-x,1/4+z
32 1/4+y,1/4+x,3/4+z
_cell_length_a                   84.115(2)
_cell_length_b                   84.115(2)
_cell_length_c                   10.0694(4)
_cell_angle_alpha                90
_cell_angle_beta                 90
_cell_angle_gamma                90
_cell_volume                     71244.4
loop_
_atom_site_label
_atom_site_type_symbol
_atom_site_fract_x
_atom_site_fract_y
_atom_site_fract_z
Ga1 Ga -0.25136(4) 0.52136(17) -0.7505(14)
Zn1 Zn -0.17779(3) 0.51042(4) -0.6736(2)
Zn2 Zn -0.14109(3) 0.48720(5) -0.8291(3)
Zn3 Zn -0.07063(4) 0.48823(8) -0.8368(4)
Zn4 Zn -0.10597(5) 0.5000 -0.5000
Zn5 Zn -0.03515(4) 0.48830(9) -1.3360(4)
Zn6 Zn 0.0000 0.5000 -1.0000
P1 P -0.21482(7) 0.50922(7) -0.7228(4)
P2 P -0.16377(9) 0.47740(9) -0.6020(6)
P3 P -0.15434(10) 0.52141(10) -0.8901(6)
P4 P -0.10562(8) 0.48037(10) -0.7835(5)
P5 P -0.05752(13) 0.47791(17) -1.1068(10)
P6 P -0.04837(13) 0.47814(17) -1.6066(10)
P7 P 0.0000 0.4803(2) -1.2832(10)
O1 O -0.19939(15) 0.51561(18) -0.6649(13)
O2 O -0.22805(14) 0.52184(15) -0.7064(11)
O3 O -0.21256(13) 0.50424(13) -0.8668(9)
O4 O -0.17599(17) 0.48695(19) -0.6708(13)
O5 O -0.16360(16) 0.47975(19) -0.4556(13)
O6 O -0.14731(19) 0.48006(19) -0.6489(11)
O7 O -0.14154(19) 0.5104(2) -0.8350(15)
O8 O -0.15417(17) 0.52262(19) -1.0422(12)
O9 O -0.17114(17) 0.5178(2) -0.8464(11)
O10 O -0.10617(16) 0.4943(2) -0.6939(12)
O11 O -0.0916(2) 0.4817(4) -0.8774(18)
O12 O -0.12014(17) 0.4803(2) -0.8667(14)
O13 O -0.0566(2) 0.4779(3) -0.961(2)
O14 O -0.0409(2) 0.4813(3) -1.1566(16)
O15 O -0.0704(2) 0.4889(3) -1.158(2)
O16 O -0.0494(2) 0.4774(3) -1.455(2)
O17 O -0.0352(3) 0.4889(4) -1.663(2)
O18 O -0.0653(2) 0.4807(3) -1.6560(15)
O19 O -0.0000 0.4944(4) -1.195(2)
O20 O -0.0147(2) 0.4811(4) -1.3756(18)
O21 O -0.0191(2) 0.4822(3) -0.9474(18)
O22 O -0.0866(2) 0.4831(2) -0.4467(16)
O23 O -0.12484(17) 0.4832(2) -0.4462(13)
F1 F -0.24566(11) 0.50434(11) -0.8750
H1 H -0.1052 0.4668 -0.6987
H2 H -0.1523 0.5368 -0.8215
H3 H -0.0620 0.4652 -1.1765
H4 H -0.2192 0.4938 -0.6345
H5 H -0.1678 0.4581 -0.6280
H6 H -0.0431 0.4625 -1.6548
Ga1S Ga 0.25136(4) 0.52136(17) -0.7505(14)
Ga1C Ga -0.25136(4) 0.47864(17) -1.2495(14)
Ga1P Ga 0.25136(4) 0.47864(17) -1.2495(14)
Ga1B Ga -0.22864(17) 0.50136(4) -1.0005(14)
Ga1V Ga 0.22864(17) 0.50136(4) -1.0005(14)
Ga1A Ga -0.27136(17) 0.49864(4) -0.5005(14)
Zn1S Zn 0.17779(3) 0.51042(4) -0.6736(2)
Zn1C Zn -0.17779(3) 0.48958(4) -1.3264(2)
Zn1P Zn 0.17779(3) 0.48958(4) -1.3264(2)
Zn1C_2 Zn -0.17779(3) 0.48958(4) -0.3264(2)
Zn1P_2 Zn 0.17779(3) 0.48958(4) -0.3264(2)
Zn1_2 Zn -0.17779(3) 0.51042(4) -1.6736(2)
Zn1S_2 Zn 0.17779(3) 0.51042(4) -1.6736(2)
Zn2S Zn 0.14109(3) 0.48720(5) -0.8291(3)
Zn2C Zn -0.14109(3) 0.51280(5) -1.1709(3)
Zn2P Zn 0.14109(3) 0.51280(5) -1.1709(3)
Zn3S Zn 0.07063(4) 0.48823(8) -0.8368(4)
Zn3C Zn -0.07063(4) 0.51177(8) -1.1632(4)
Zn3P Zn 0.07063(4) 0.51177(8) -1.1632(4)
Zn3_2 Zn -0.07063(4) 0.48823(8) -1.8368(4)
Zn3S_2 Zn 0.07063(4) 0.48823(8) -1.8368(4)
Zn4P Zn 0.10597(5) 0.5000 -0.5000
Zn4_2 Zn -0.10597(5) 0.5000 -1.5000
Zn4P_2 Zn 0.10597(5) 0.5000 -1.5000
Zn5S Zn 0.03515(4) 0.48830(9) -1.3360(4)
Zn5C Zn -0.03515(4) 0.51170(9) -0.6640(4)
Zn5P Zn 0.03515(4) 0.51170(9) -0.6640(4)
Zn5C_2 Zn -0.03515(4) 0.51170(9) -1.6640(4)
Zn5P_2 Zn 0.03515(4) 0.51170(9) -1.6640(4)
P1S P 0.21482(7) 0.50922(7) -0.7228(4)
P1C P -0.21482(7) 0.49078(7) -1.2772(4)
P1P P 0.21482(7) 0.49078(7) -1.2772(4)
P2S P 0.16377(9) 0.47740(9) -0.6020(6)
P2C P -0.16377(9) 0.52260(9) -1.3980(6)
P2P P 0.16377(9) 0.52260(9) -1.3980(6)
P3C P -0.15434(10) 0.47859(10) -1.1099(6)
P3S P 0.15434(10) 0.52141(10) -0.8901(6)
P3P P 0.15434(10) 0.47859(10) -1.1099(6)
P4S P 0.10562(8) 0.48037(10) -0.7835(5)
P4C P -0.10562(8) 0.51963(10) -1.2165(5)
P4P P 0.10562(8) 0.51963(10) -1.2165(5)
P5S P 0.05752(13) 0.47791(17) -1.1068(10)
P5C P -0.05752(13) 0.52209(17) -0.8932(10)
P5P P 0.05752(13) 0.52209(17) -0.8932(10)
P6C P -0.04837(13) 0.52186(17) -1.3934(10)
P6S P 0.04837(13) 0.47814(17) -1.6066(10)
P6P P 0.04837(13) 0.52186(17) -1.3934(10)
P7C P 0.0000 0.5197(2) -0.7168(10)
O1S O 0.19939(15) 0.51561(18) -0.6649(13)
O1C O -0.19939(15) 0.48439(18) -1.3351(13)
O1P O 0.19939(15) 0.48439(18) -1.3351(13)
O2S O 0.22805(14) 0.52184(15) -0.7064(11)
O2C O -0.22805(14) 0.47816(15) -1.2936(11)
O2P O 0.22805(14) 0.47816(15) -1.2936(11)
O2L O -0.27195(14) 0.52184(15) -0.7936(11)
O2CA O 0.27195(14) 0.52184(15) -0.7936(11)
O2M O -0.27195(14) 0.47816(15) -1.2064(11)
O2BA O 0.27195(14) 0.47816(15) -1.2064(11)
O3S O 0.21256(13) 0.50424(13) -0.8668(9)
O3C O -0.21256(13) 0.49576(13) -1.1332(9)
O3P O 0.21256(13) 0.49576(13) -1.1332(9)
O3A O -0.25424(13) 0.53744(13) -0.6168(9)
O3F O -0.24576(13) 0.53744(13) -0.8832(9)
O3W O 0.25424(13) 0.53744(13) -0.6168(9)
O3R O 0.24576(13) 0.53744(13) -0.8832(9)
O3G O -0.25424(13) 0.46256(13) -1.3832(9)
O3B O -0.24576(13) 0.46256(13) -1.1168(9)
O3Q O 0.25424(13) 0.46256(13) -1.3832(9)
O3V O 0.24576(13) 0.46256(13) -1.1168(9)
O4S O 0.17599(17) 0.48695(19) -0.6708(13)
O4C O -0.17599(17) 0.51305(19) -1.3292(13)
O4P O 0.17599(17) 0.51305(19) -1.3292(13)
O5S O 0.16360(16) 0.47975(19) -0.4556(13)
O5C O -0.16360(16) 0.52025(19) -1.5444(13)
O5P O 0.16360(16) 0.52025(19) -1.5444(13)
O5C_2 O -0.16360(16) 0.52025(19) -0.5444(13)
O5P_2 O 0.16360(16) 0.52025(19) -0.5444(13)
O5_2 O -0.16360(16) 0.47975(19) -1.4556(13)
O5S_2 O 0.16360(16) 0.47975(19) -1.4556(13)
O6S O 0.14731(19) 0.48006(19) -0.6489(11)
O6C O -0.14731(19) 0.51994(19) -1.3511(11)
O6P O 0.14731(19) 0.51994(19) -1.3511(11)
O7C O -0.14154(19) 0.4896(2) -1.1650(15)
O7S O 0.14154(19) 0.5104(2) -0.8350(15)
O7P O 0.14154(19) 0.4896(2) -1.1650(15)
O8C O -0.15417(17) 0.47738(19) -0.9578(12)
O8S O 0.15417(17) 0.52262(19) -1.0422(12)
O8P O 0.15417(17) 0.47738(19) -0.9578(12)
O9C O -0.17114(17) 0.4822(2) -1.1536(11)
O9S O 0.17114(17) 0.5178(2) -0.8464(11)
O9P O 0.17114(17) 0.4822(2) -1.1536(11)
O10S O 0.10617(16) 0.4943(2) -0.6939(12)
O10C O -0.10617(16) 0.5057(2) -1.3061(12)
O10P O 0.10617(16) 0.5057(2) -1.3061(12)
O10C_2 O -0.10617(16) 0.5057(2) -0.3061(12)
O10P_2 O 0.10617(16) 0.5057(2) -0.3061(12)
O11S O 0.0916(2) 0.4817(4) -0.8774(18)
O11C O -0.0916(2) 0.5183(4) -1.1226(18)
O11P O 0.0916(2) 0.5183(4) -1.1226(18)
O12S O 0.12014(17) 0.4803(2) -0.8667(14)
O12C O -0.12014(17) 0.5197(2) -1.1333(14)
O12P O 0.12014(17) 0.5197(2) -1.1333(14)
O13S O 0.0566(2) 0.4779(3) -0.961(2)
O13C O -0.0566(2) 0.5221(3) -1.039(2)
O13P O 0.0566(2) 0.5221(3) -1.039(2)
O14S O 0.0409(2) 0.4813(3) -1.1566(16)
O14C O -0.0409(2) 0.5187(3) -0.8434(16)
O14P O 0.0409(2) 0.5187(3) -0.8434(16)
O15S O 0.0704(2) 0.4889(3) -1.158(2)
O15C O -0.0704(2) 0.5111(3) -0.842(2)
O15P O 0.0704(2) 0.5111(3) -0.842(2)
O16C O -0.0494(2) 0.5226(3) -1.545(2)
O16S O 0.0494(2) 0.4774(3) -1.455(2)
O16P O 0.0494(2) 0.5226(3) -1.545(2)
O16C_2 O -0.0494(2) 0.5226(3) -0.545(2)
O16P_2 O 0.0494(2) 0.5226(3) -0.545(2)
O17C O -0.0352(3) 0.5111(4) -1.337(2)
O17S O 0.0352(3) 0.4889(4) -1.663(2)
O17P O 0.0352(3) 0.5111(4) -1.337(2)
O17_2 O -0.0352(3) 0.4889(4) -0.663(2)
O17S_2 O 0.0352(3) 0.4889(4) -0.663(2)
O18C O -0.0653(2) 0.5193(3) -1.3440(15)
O18S O 0.0653(2) 0.4807(3) -1.6560(15)
O18P O 0.0653(2) 0.5193(3) -1.3440(15)
O18_2 O -0.0653(2) 0.4807(3) -0.6560(15)
O18S_2 O 0.0653(2) 0.4807(3) -0.6560(15)
O19C O -0.0000 0.5056(4) -0.805(2)
O20S O 0.0147(2) 0.4811(4) -1.3756(18)
O20C O -0.0147(2) 0.5189(4) -0.6244(18)
O20P O 0.0147(2) 0.5189(4) -0.6244(18)
O21C O -0.0191(2) 0.5178(3) -1.0526(18)
O21P O 0.0191(2) 0.5178(3) -1.0526(18)
O21S O 0.0191(2) 0.4822(3) -0.9474(18)
O22C O -0.0866(2) 0.5169(2) -0.5533(16)
O22S O 0.0866(2) 0.4831(2) -0.4467(16)
O22P O 0.0866(2) 0.5169(2) -0.5533(16)
O23C O -0.12484(17) 0.5168(2) -0.5538(13)
O23S O 0.12484(17) 0.4832(2) -0.4462(13)
O23P O 0.12484(17) 0.5168(2) -0.5538(13)
F1A F -0.25434(11) 0.50434(11) -0.6250
F1R F 0.24566(11) 0.50434(11) -0.8750
F1W F 0.25434(11) 0.50434(11) -0.6250
F1B F -0.24566(11) 0.49566(11) -1.1250
F1G F -0.25434(11) 0.49566(11) -1.3750
F1P F 0.24566(11) 0.49566(11) -1.1250
F1Q F 0.25434(11) 0.49566(11) -1.3750
H1S H 0.1052 0.4668 -0.6987
H1C H -0.1052 0.5332 -1.3013
H1P H 0.1052 0.5332 -1.3013
H2C H -0.1523 0.4632 -1.1785
H2S H 0.1523 0.5368 -0.8215
H2P H 0.1523 0.4632 -1.1785
H3S H 0.0620 0.4652 -1.1765
H3C H -0.0620 0.5348 -0.8235
H3P H 0.0620 0.5348 -0.8235
H4S H 0.2192 0.4938 -0.6345
H4C H -0.2192 0.5062 -1.3655
H4P H 0.2192 0.5062 -1.3655
H5S H 0.1678 0.4581 -0.6280
H5C H -0.1678 0.5419 -1.3720
H5P H 0.1678 0.5419 -1.3720
H6C H -0.0431 0.5375 -1.3452
H6S H 0.0431 0.4625 -1.6548
H6P H 0.0431 0.5375 -1.3452
loop_
_geom_bond_atom_site_label_1
_geom_bond_atom_site_label_2
_geom_bond_site_symmetry_1
_geom_bond_site_symmetry_2
Ga1 O2 1_555 1_555
Zn1 O1 1_555 1_555
Zn2 O6 1_555 1_555
Zn3 O11 1_555 1_555
Zn4 O10 1_555 1_555
Zn5 O14 1_555 1_555
Zn6 O19 1_555 1_555
P1 O1 1_555 1_555
P2 O4 1_555 1_555
P3 O7 1_555 1_555
P4 O10 1_555 1_555
P5 O13 1_555 1_555
P6 O16 1_555 1_555
P7 O19 1_555 1_555
O2 P1 1_555 1_555
O3 P1 1_555 1_555
O4 Zn1 1_555 1_555
O5 P2 1_555 1_555
O6 P2 1_555 1_555
O7 Zn2 1_555 1_555
O8 P3 1_555 1_555
O9 Zn1 1_555 1_555
O11 P4 1_555 1_555
O12 Zn2 1_555 1_555
O13 Zn3 1_555 1_555
O14 P5 1_555 1_555
O15 P5 1_555 1_555
O16 Zn5 1_555 1_555
O17 P6 1_555 1_555
O18 P6 1_555 1_555
O20 Zn5 1_555 1_555
O21 Zn6 1_555 1_555
O22 Zn4 1_555 1_555
O23 Zn4 1_555 1_555
F1 Ga1 1_555 1_555
H1 P4 1_555 1_555
H2 P3 1_555 1_555
H3 P5 1_555 1_555
H4 P1 1_555 1_555
H5 P2 1_555 1_555
H6 P6 1_555 1_555
Ga1S O2S 1_555 1_555
Ga1C O2C 1_555 1_555
Ga1P O2P 1_555 1_555
Ga1B O3 1_555 1_555
Ga1V O3S 1_555 1_555
Ga1A F1A 1_555 1_555
Zn1S O1S 1_555 1_555
Zn1C O1C 1_555 1_555
Zn1P O1P 1_555 1_555
Zn1C_2 O5 1_555 1_555
Zn1P_2 O5S 1_555 1_555
Zn1_2 O5C 1_555 1_555
Zn1S_2 O5P 1_555 1_555
Zn2S O6S 1_555 1_555
Zn2C O8 1_555 1_555
Zn2P O6P 1_555 1_555
Zn3S O11S 1_555 1_555
Zn3C O15 1_555 1_555
Zn3P O11P 1_555 1_555
Zn3_2 O18 1_555 1_555
Zn3S_2 O18S 1_555 1_555
Zn4P O10S 1_555 1_555
Zn4_2 O10C 1_555 1_555
Zn4P_2 O10P 1_555 1_555
Zn5S O14S 1_555 1_555
Zn5C O14C 1_555 1_555
Zn5P O14P 1_555 1_555
Zn5C_2 O17 1_555 1_555
Zn5P_2 O16P 1_555 1_555
P1S O1S 1_555 1_555
P1C O1C 1_555 1_555
P1P O1P 1_555 1_555
P2S O4S 1_555 1_555
P2C O4C 1_555 1_555
P2P O4P 1_555 1_555
P3C O7C 1_555 1_555
P3S O7S 1_555 1_555
P3P O7P 1_555 1_555
P4S O10S 1_555 1_555
P4C O10C 1_555 1_555
P4P O10P 1_555 1_555
P5S O13S 1_555 1_555
P5C O13C 1_555 1_555
P5P O13P 1_555 1_555
P6C O16C 1_555 1_555
P6S O16S 1_555 1_555
P6P O16P 1_555 1_555
P7C O19C 1_555 1_555
O2S P1S 1_555 1_555
O2C P1C 1_555 1_555
O2P P1P 1_555 1_555
O2L Ga1 1_555 1_555
O2CA Ga1S 1_555 1_555
O2M Ga1C 1_555 1_555
O2BA Ga1P 1_555 1_555
O3S P1S 1_555 1_555
O3C Ga1B 1_555 1_555
O3P Ga1V 1_555 1_555
O3A Ga1 1_555 1_555
O3F Ga1 1_555 1_555
O3W Ga1S 1_555 1_555
O3R Ga1S 1_555 1_555
O3G Ga1C 1_555 1_555
O3B Ga1C 1_555 1_555
O3Q Ga1P 1_555 1_555
O3V Ga1P 1_555 1_555
O4S Zn1S 1_555 1_555
O4C Zn1C 1_555 1_555
O4P Zn1P 1_555 1_555
O5S P2S 1_555 1_555
O5C P2C 1_555 1_555
O5P P2P 1_555 1_555
O5C_2 Zn1 1_555 1_555
O5P_2 Zn1S 1_555 1_555
O5_2 Zn1C 1_555 1_555
O5S_2 Zn1P 1_555 1_555
O6S P2S 1_555 1_555
O6C Zn2C 1_555 1_555
O6P P2P 1_555 1_555
O7C Zn2C 1_555 1_555
O7S Zn2S 1_555 1_555
O7P Zn2P 1_555 1_555
O8C Zn2 1_555 1_555
O8S Zn2P 1_555 1_555
O8P Zn2S 1_555 1_555
O9C Zn1C 1_555 1_555
O9S Zn1S 1_555 1_555
O9P Zn1P 1_555 1_555
O10C_2 Zn4 1_555 1_555
O10P_2 Zn4P 1_555 1_555
O11S P4S 1_555 1_555
O11C Zn3C 1_555 1_555
O11P P4P 1_555 1_555
O12S Zn2S 1_555 1_555
O12C Zn2C 1_555 1_555
O12P Zn2P 1_555 1_555
O13S Zn3S 1_555 1_555
O13C Zn3C 1_555 1_555
O13P Zn3P 1_555 1_555
O14S P5S 1_555 1_555
O14C P5C 1_555 1_555
O14P P5P 1_555 1_555
O15S Zn3P 1_555 1_555
O15C Zn3 1_555 1_555
O15P Zn3S 1_555 1_555
O16C Zn5C_2 1_555 1_555
O16S Zn5S 1_555 1_555
O16C_2 Zn5C 1_555 1_555
O16P_2 Zn5P 1_555 1_555
O17C Zn5 1_555 1_555
O17S Zn5P_2 1_555 1_555
O17P Zn5S 1_555 1_555
O17_2 Zn5C 1_555 1_555
O17S_2 Zn5P 1_555 1_555
O18C Zn3C 1_555 1_555
O18S P6S 1_555 1_555
O18P Zn3P 1_555 1_555
O18_2 Zn3 1_555 1_555
O18S_2 Zn3S 1_555 1_555
O19C Zn6 1_555 1_555
O20S P7 1_555 1_555
O20C Zn5C 1_555 1_555
O20P Zn5P 1_555 1_555
O21C Zn6 1_555 1_555
O21P Zn6 1_555 1_555
O21S Zn6 1_555 1_555
O22C Zn4 1_555 1_555
O22S Zn4P 1_555 1_555
O22P Zn4P 1_555 1_555
O23C Zn4 1_555 1_555
O23S Zn4P 1_555 1_555
O23P Zn4P 1_555 1_555
F1A Ga1 1_555 1_555
F1R Ga1S 1_555 1_555
F1W Ga1S 1_555 1_555
F1B Ga1C 1_555 1_555
F1G Ga1C 1_555 1_555
F1P Ga1P 1_555 1_555
F1Q Ga1P 1_555 1_555
H1S P4S 1_555 1_555
H1C P4C 1_555 1_555
H1P P4P 1_555 1_555
H2C P3C 1_555 1_555
H2S P3S 1_555 1_555
H2P P3P 1_555 1_555
H3S P5S 1_555 1_555
H3C P5C 1_555 1_555
H3P P5P 1_555 1_555
H4S P1S 1_555 1_555
H4C P1C 1_555 1_555
H4P P1P 1_555 1_555
H5S P2S 1_555 1_555
H5C P2C 1_555 1_555
H5P P2P 1_555 1_555
H6C P6C 1_555 1_555
H6S P6S 1_555 1_555
H6P P6P 1_555 1_555
P3 O9 1_555 1_555
P4 O12 1_555 1_555
P7 O20 1_555 1_555
F1 Ga1B 1_555 1_555
Ga1B F1B 1_555 1_555
Ga1V F1R 1_555 1_555
Ga1V F1P 1_555 1_555
Zn5S O20S 1_555 1_555
P1C O3C 1_555 1_555
P1P O3P 1_555 1_555
P2C O6C 1_555 1_555
P3C O8C 1_555 1_555
P3C O9C 1_555 1_555
P3S O8S 1_555 1_555
P3S O9S 1_555 1_555
P3P O8P 1_555 1_555
P3P O9P 1_555 1_555
P4S O12S 1_555 1_555
P4C O11C 1_555 1_555
P4C O12C 1_555 1_555
P4P O12P 1_555 1_555
P5S O15S 1_555 1_555
P5C O15C 1_555 1_555
P5P O15P 1_555 1_555
P6C O17C 1_555 1_555
P6C O18C 1_555 1_555
P6S O17S 1_555 1_555
P6P O17P 1_555 1_555
P6P O18P 1_555 1_555
P7C O20C 1_555 1_555
P7C O20P 1_555 1_555

#END
