
#######################################################################
#
#                 Cambridge Crystallographic Data Centre
#                                CCDC 
#
#######################################################################
#
# If this CIF has been generated from an entry in the Cambridge 
# Structural Database, then it will include bibliographic, chemical, 
# crystal, experimental, refinement or atomic coordinate data resulting 
# from the CCDC's data processing and validation procedures.
#
#######################################################################

data_ESIDOB
_chemical_formula_moiety         '(C30 H18 In2 N2 O21)n'
_symmetry_cell_setting           monoclinic
_symmetry_space_group_name_H-M   'P 21/n'
_symmetry_Int_Tables_number      14
_space_group_name_Hall           '-P 2yn'
loop_
_symmetry_equiv_pos_site_id
_symmetry_equiv_pos_as_xyz
1 x,y,z
2 1/2-x,1/2+y,1/2-z
3 -x,-y,-z
4 1/2+x,1/2-y,1/2+z
_cell_length_a                   7.2776(7)
_cell_length_b                   22.060(2)
_cell_length_c                   15.0234(16)
_cell_angle_alpha                90
_cell_angle_beta                 98.687(6)
_cell_angle_gamma                90
_cell_volume                     2384.25
loop_
_atom_site_label
_atom_site_type_symbol
_atom_site_fract_x
_atom_site_fract_y
_atom_site_fract_z
O11 O 0.139(5) 0.4237(16) 0.774(2)
H9 H 0.0570 0.3916 0.7603
H10 H 0.2552 0.3889 0.7770
C1 C 0.2932(13) 0.4752(5) 0.1687(7)
C2 C 0.3473(12) 0.4570(4) 0.2652(7)
C3 C 0.5215(14) 0.4731(5) 0.3108(7)
H1 H 0.6021 0.4959 0.2818
C4 C 0.2262(13) 0.4228(4) 0.3093(7)
H2 H 0.1076 0.4131 0.2806
C5 C 0.5752(13) 0.4552(4) 0.3997(7)
C6 C 0.4567(14) 0.4209(4) 0.4435(7)
H3 H 0.4907 0.4095 0.5033
C7 C 0.2864(14) 0.4038(4) 0.3959(8)
C8 C 0.3509(15) 0.2785(5) 0.4378(9)
H4 H 0.4521 0.3005 0.4242
C9 C 0.1921(14) 0.3078(4) 0.4453(7)
C10 C 0.3671(14) 0.2172(5) 0.4497(9)
H5 H 0.4781 0.1980 0.4432
C11 C 0.0431(14) 0.2734(5) 0.4648(10)
C12 C 0.7627(16) 0.4737(5) 0.4449(8)
C13 C 0.2199(13) 0.1835(4) 0.4714(8)
C14 C 0.2334(12) 0.1162(4) 0.4851(7)
C15 C 0.0523(16) 0.2124(5) 0.4765(10)
H6 H -0.0510 0.1905 0.4877
In1 In 0.0000 0.5000 0.0000
In2 In 0.5000 0.5000 0.0000
N1 N -0.1403(18) 0.3021(6) 0.4610(14)
O1 O 0.2314(8) 0.4711(3) -0.0541(5)
H7 H 0.1702 0.4536 -0.1087
O2 O 0.1308(9) 0.4692(3) 0.1341(5)
O3 O 0.4210(11) 0.4963(3) 0.1320(6)
O4 O 0.1623(10) 0.3695(3) 0.4392(5)
O5 O 0.8066(11) 0.4564(4) 0.5264(6)
H8 H 0.9147 0.4659 0.5447
O6 O 0.8646(13) 0.5038(4) 0.4031(7)
O7 O 0.3804(10) 0.0904(3) 0.4750(6)
O8 O 0.0926(11) 0.0918(3) 0.5104(6)
O9 O -0.219(2) 0.2928(9) 0.5272(16)
O10 O -0.2020(19) 0.3344(7) 0.4012(16)
C1B C -0.2932(13) 0.5248(5) -0.1687(7)
C2B C -0.3473(12) 0.5430(4) -0.2652(7)
C3B C -0.5215(14) 0.5269(5) -0.3108(7)
H1B H -0.6021 0.5041 -0.2818
C4B C -0.2262(13) 0.5772(4) -0.3093(7)
H2B H -0.1076 0.5869 -0.2806
C5B C -0.5752(13) 0.5448(4) -0.3997(7)
C6B C -0.4567(14) 0.5791(4) -0.4435(7)
H3B H -0.4907 0.5905 -0.5033
C7B C -0.2864(14) 0.5962(4) -0.3959(8)
C8B C -0.3509(15) 0.7215(5) -0.4378(9)
H4B H -0.4521 0.6995 -0.4242
C9B C -0.1921(14) 0.6922(4) -0.4453(7)
C10B C -0.3671(14) 0.7828(5) -0.4497(9)
H5B H -0.4781 0.8020 -0.4432
C11B C -0.0431(14) 0.7266(5) -0.4648(10)
C12B C -0.7627(16) 0.5263(5) -0.4449(8)
C13B C -0.2199(13) 0.8165(4) -0.4714(8)
C14B C -0.2334(12) 0.8838(4) -0.4851(7)
C15B C -0.0523(16) 0.7876(5) -0.4765(10)
H6B H 0.0510 0.8095 -0.4877
N1B N 0.1403(18) 0.6979(6) -0.4610(14)
O1B O -0.2314(8) 0.5289(3) 0.0541(5)
H7B H -0.1702 0.5464 0.1087
O2B O -0.1308(9) 0.5308(3) -0.1341(5)
O3B O -0.4210(11) 0.5037(3) -0.1320(6)
O4B O -0.1623(10) 0.6305(3) -0.4392(5)
O5B O -0.8066(11) 0.5436(4) -0.5264(6)
H8B H -0.9147 0.5341 -0.5447
O6B O -0.8646(13) 0.4962(4) -0.4031(7)
O7B O -0.3804(10) 0.9096(3) -0.4750(6)
O8B O -0.0926(11) 0.9082(3) -0.5104(6)
O9B O 0.219(2) 0.7072(9) -0.5272(16)
O10B O 0.2020(19) 0.6656(7) -0.4012(16)
In1A In -0.5000 1.0000 -0.5000
In1A_2 In 0.5000 -0.0000 0.5000
In2_2 In -0.5000 0.5000 0.0000
In2A In 0.0000 -0.0000 0.5000
In2A_2 In 0.0000 1.0000 -0.5000
O1B_2 O 0.7686(8) 0.5289(3) 0.0541(5)
O3B_2 O 0.5790(11) 0.5037(3) -0.1320(6)
O7A O 0.1196(10) 0.5904(3) 0.0250(6)
O7C O -0.1196(10) 0.4096(3) -0.0250(6)
O8A O 0.4074(11) 0.5918(3) -0.0104(6)
O8C O 0.5926(11) 0.4082(3) 0.0104(6)
loop_
_geom_bond_atom_site_label_1
_geom_bond_atom_site_label_2
_geom_bond_site_symmetry_1
_geom_bond_site_symmetry_2
C1 C2 1_555 1_555
C2 C3 1_555 1_555
C3 H1 1_555 1_555
C4 C2 1_555 1_555
H2 C4 1_555 1_555
C5 C3 1_555 1_555
C6 C5 1_555 1_555
H3 C6 1_555 1_555
C7 C4 1_555 1_555
C8 H4 1_555 1_555
C9 C8 1_555 1_555
C10 C8 1_555 1_555
H5 C10 1_555 1_555
C11 C9 1_555 1_555
C12 C5 1_555 1_555
C13 C10 1_555 1_555
C14 C13 1_555 1_555
C15 C11 1_555 1_555
H6 C15 1_555 1_555
In1 O1 1_555 1_555
In2 O1 1_555 1_555
N1 C11 1_555 1_555
O1 H7 1_555 1_555
O2 C1 1_555 1_555
O3 C1 1_555 1_555
O4 C7 1_555 1_555
O5 C12 1_555 1_555
H8 O5 1_555 1_555
O6 C12 1_555 1_555
O7 C14 1_555 1_555
O8 C14 1_555 1_555
O9 N1 1_555 1_555
O10 N1 1_555 1_555
O11 H9 1_555 1_555
H10 O11 1_555 1_555
C1B C2B 1_555 1_555
C2B C3B 1_555 1_555
C3B H1B 1_555 1_555
C4B C2B 1_555 1_555
H2B C4B 1_555 1_555
C5B C3B 1_555 1_555
C6B C5B 1_555 1_555
H3B C6B 1_555 1_555
C7B C4B 1_555 1_555
C8B H4B 1_555 1_555
C9B C8B 1_555 1_555
C10B C8B 1_555 1_555
H5B C10B 1_555 1_555
C11B C9B 1_555 1_555
C12B C5B 1_555 1_555
C13B C10B 1_555 1_555
C14B C13B 1_555 1_555
C15B C11B 1_555 1_555
H6B C15B 1_555 1_555
N1B C11B 1_555 1_555
O1B In1 1_555 1_555
H7B O1B 1_555 1_555
O2B In1 1_555 1_555
O3B C1B 1_555 1_555
O4B C7B 1_555 1_555
O5B C12B 1_555 1_555
H8B O5B 1_555 1_555
O6B C12B 1_555 1_555
O7B C14B 1_555 1_555
O8B C14B 1_555 1_555
O9B N1B 1_555 1_555
O10B N1B 1_555 1_555
In1A O7B 1_555 1_555
In1A_2 O7 1_555 1_555
In2_2 O1B 1_555 1_555
In2A O8 1_555 1_555
In2A_2 O8B 1_555 1_555
O1B_2 In2 1_555 1_555
O3B_2 In2 1_555 1_555
O7A In1 1_555 1_555
O7C In1 1_555 1_555
O8A In2 1_555 1_555
O8C In2 1_555 1_555
C6 C7 1_555 1_555
C9 O4 1_555 1_555
C13 C15 1_555 1_555
In1 O2 1_555 1_555
In2 O3 1_555 1_555
C1B O2B 1_555 1_555
C6B C7B 1_555 1_555
C9B O4B 1_555 1_555
C13B C15B 1_555 1_555
O3B In2_2 1_555 1_555

#END
