
#######################################################################
#
#                 Cambridge Crystallographic Data Centre
#                                CCDC 
#
#######################################################################
#
# If this CIF has been generated from an entry in the Cambridge 
# Structural Database, then it will include bibliographic, chemical, 
# crystal, experimental, refinement or atomic coordinate data resulting 
# from the CCDC's data processing and validation procedures.
#
#######################################################################

data_IYESUC
_chemical_formula_moiety         '(C48 H26 Co1 In1 N4 O9)n'
_symmetry_cell_setting           orthorhombic
_symmetry_space_group_name_H-M   'C c c m'
_symmetry_Int_Tables_number      66
_space_group_name_Hall           '-C 2 2c'
loop_
_symmetry_equiv_pos_site_id
_symmetry_equiv_pos_as_xyz
1 x,y,z
2 -x,-y,z
3 -x,y,1/2-z
4 x,-y,1/2-z
5 1/2+x,1/2+y,z
6 1/2-x,1/2-y,z
7 1/2-x,1/2+y,1/2-z
8 1/2+x,1/2-y,1/2-z
9 -x,-y,-z
10 x,y,-z
11 x,-y,1/2+z
12 -x,y,1/2+z
13 1/2-x,1/2-y,-z
14 1/2+x,1/2+y,-z
15 1/2+x,1/2-y,1/2+z
16 1/2-x,1/2+y,1/2+z
_cell_length_a                   14.3986(8)
_cell_length_b                   31.365(2)
_cell_length_c                   32.0647(16)
_cell_angle_alpha                90
_cell_angle_beta                 90
_cell_angle_gamma                90
_cell_volume                     14480.8
loop_
_atom_site_label
_atom_site_type_symbol
_atom_site_fract_x
_atom_site_fract_y
_atom_site_fract_z
_atom_site_U_iso_or_equiv
_atom_site_thermal_displace_type
In1 In 0.0000 0.28826(2) 0.2500 0.0463 Uani
Co1 Co 0.28887(10) 0.04604(3) 0.5000 0.0678 Uani
C1 C 0.0761(6) 0.23350(16) 0.69889(16) 0.0580 Uani
C2 C 0.1199(5) 0.20368(16) 0.66727(16) 0.0590 Uani
C3 C 0.2097(5) 0.19301(17) 0.66831(16) 0.0593 Uani
H1 H 0.2485 0.2039 0.6898 0.0710 Uiso
C4 C 0.1916(5) 0.14732(19) 0.60830(17) 0.0657 Uani
C5 C 0.2470(5) 0.16602(17) 0.63803(16) 0.0647 Uani
H2 H 0.3119 0.1605 0.6380 0.0780 Uiso
C6 C 0.0588(6) 0.1853(2) 0.63822(19) 0.0823 Uani
H3 H -0.0054 0.1923 0.6382 0.0990 Uiso
C7 C 0.0957(6) 0.1558(2) 0.6088(2) 0.0887 Uani
H4 H 0.0557 0.1418 0.5897 0.1060 Uiso
C8 C 0.2252(5) 0.11736(16) 0.57586(17) 0.0670 Uani
C9 C 0.2248(5) 0.13031(18) 0.53453(16) 0.0723 Uani
C10 C 0.2899(6) 0.0230(2) 0.62979(18) 0.0833 Uani
H5 H 0.2981 0.0045 0.6530 0.1000 Uiso
C11 C 0.3146(6) 0.0143(2) 0.58699(18) 0.0777 Uani
C12 C 0.1998(6) 0.17259(19) 0.52139(18) 0.0880 Uani
H6 H 0.1860 0.1961 0.5390 0.1060 Uiso
C13 C 0.2533(6) 0.06189(19) 0.63019(18) 0.0790 Uani
H7 H 0.2310 0.0769 0.6539 0.0950 Uiso
C14 C 0.3831(7) -0.0575(2) 0.60700(18) 0.0857 Uani
C15 C 0.4773(8) -0.0631(2) 0.6185(2) 0.1020 Uani
H8 H 0.5244 -0.0455 0.6068 0.1230 Uiso
C16 C 0.3601(7) -0.02439(19) 0.57470(17) 0.0907 Uani
C17 C 0.3143(7) -0.0827(2) 0.6240(3) 0.1057 Uani
H9 H 0.2514 -0.0786 0.6160 0.1270 Uiso
C18 C 0.2540(5) 0.07683(18) 0.58792(16) 0.0703 Uani
C19 C 0.3858(6) -0.0313(2) 0.5345(2) 0.0877 Uani
C20 C 0.4356(7) -0.0703(3) 0.5219(2) 0.1167 Uani
H10 H 0.4623 -0.0912 0.5397 0.1400 Uiso
C21 C 0.4298(5) -0.12049(17) 0.66402(16) 0.0690 Uani
C22 C 0.3370(6) -0.1139(2) 0.6526(2) 0.0923 Uani
H11 H 0.2894 -0.1309 0.6646 0.1110 Uiso
C23 C 0.5003(5) -0.0952(2) 0.6476(2) 0.0863 Uani
H12 H 0.5629 -0.0994 0.6558 0.1030 Uiso
C24 C 0.4565(6) -0.15455(18) 0.69470(16) 0.0647 Uani
N1 N 0.2918(4) 0.04603(13) 0.56197(14) 0.0693 Uani
N2 N 0.2422(6) 0.1040(2) 0.5000 0.0677 Uani
N3 N 0.3590(7) -0.0084(2) 0.5000 0.0763 Uani
O1 O 0.1282(3) 0.25203(10) 0.72468(10) 0.0553 Uani
O2 O -0.0097(3) 0.24080(14) 0.69755(13) 0.0613 Uani
O3 O 0.3908(3) -0.17665(12) 0.71115(11) 0.0640 Uani
O4 O 0.5406(4) -0.16032(12) 0.70374(11) 0.0623 Uani
O5 O 0.1578(11) 0.0197(5) 0.5000 0.1940 Uiso
C10I C 0.2899(6) 0.0230(2) 0.37021(18) 0.0833 Uani
H5I H 0.2981 0.0045 0.3470 0.1000 Uiso
C11I C 0.3146(6) 0.0143(2) 0.41301(18) 0.0777 Uani
C13I C 0.2533(6) 0.06189(19) 0.36981(18) 0.0790 Uani
H7I H 0.2310 0.0769 0.3461 0.0950 Uiso
C14I C 0.3831(7) -0.0575(2) 0.39300(18) 0.0857 Uani
C15I C 0.4773(8) -0.0631(2) 0.3815(2) 0.1020 Uani
H8I H 0.5244 -0.0455 0.3932 0.1230 Uiso
C16I C 0.3601(7) -0.02439(19) 0.42530(17) 0.0907 Uani
C17I C 0.3143(7) -0.0827(2) 0.3760(3) 0.1057 Uani
H9I H 0.2514 -0.0786 0.3840 0.1270 Uiso
C18I C 0.2540(5) 0.07683(18) 0.41208(16) 0.0703 Uani
C19I C 0.3858(6) -0.0313(2) 0.4655(2) 0.0877 Uani
C20I C 0.4356(7) -0.0703(3) 0.4781(2) 0.1167 Uani
H10I H 0.4623 -0.0912 0.4603 0.1400 Uiso
C21I C 0.4298(5) -0.12049(17) 0.33598(16) 0.0690 Uani
C22I C 0.3370(6) -0.1139(2) 0.3474(2) 0.0923 Uani
H11I H 0.2894 -0.1309 0.3354 0.1110 Uiso
C23I C 0.5003(5) -0.0952(2) 0.3524(2) 0.0863 Uani
H12I H 0.5629 -0.0994 0.3442 0.1030 Uiso
C24I C 0.4565(6) -0.15455(18) 0.30530(16) 0.0647 Uani
N1I N 0.2918(4) 0.04603(13) 0.43803(14) 0.0693 Uani
O3I O 0.3908(3) -0.17665(12) 0.28885(11) 0.0640 Uani
O4I O 0.5406(4) -0.16032(12) 0.29626(11) 0.0623 Uani
C1I C 0.0761(6) 0.23350(16) 0.30111(16) 0.0580 Uani
C2I C 0.1199(5) 0.20368(16) 0.33273(16) 0.0590 Uani
C3I C 0.2097(5) 0.19301(17) 0.33169(16) 0.0593 Uani
H1I H 0.2485 0.2039 0.3102 0.0710 Uiso
C4I C 0.1916(5) 0.14732(19) 0.39170(17) 0.0657 Uani
C5I C 0.2470(5) 0.16602(17) 0.36197(16) 0.0647 Uani
H2I H 0.3119 0.1605 0.3620 0.0780 Uiso
C6I C 0.0588(6) 0.1853(2) 0.36178(19) 0.0823 Uani
H3I H -0.0054 0.1923 0.3618 0.0990 Uiso
C7I C 0.0957(6) 0.1558(2) 0.3912(2) 0.0887 Uani
H4I H 0.0557 0.1418 0.4103 0.1060 Uiso
C8I C 0.2252(5) 0.11736(16) 0.42414(17) 0.0670 Uani
C9I C 0.2248(5) 0.13031(18) 0.46547(16) 0.0723 Uani
C12I C 0.1998(6) 0.17259(19) 0.47861(18) 0.0880 Uani
H6I H 0.1860 0.1961 0.4610 0.1060 Uiso
O1I O 0.1282(3) 0.25203(10) 0.27532(10) 0.0553 Uani
O2I O -0.0097(3) 0.24080(14) 0.30245(13) 0.0613 Uani
In1D In 0.5000 -0.21174(2) 0.2500 0.0463 Uani
In1I In -0.0000 0.28826(2) 0.7500 0.0463 Uani
In1M In 0.5000 -0.21174(2) 0.7500 0.0463 Uani
O1K O -0.1282(3) 0.25203(10) 0.22468(10) 0.0553 Uani
O2K O 0.0097(3) 0.24080(14) 0.19755(13) 0.0613 Uani
O3M O -0.1092(3) 0.32335(12) 0.28885(11) 0.0640 Uani
O3O O 0.1092(3) 0.32335(12) 0.21115(11) 0.0640 Uani
O4M O 0.0406(4) 0.33968(12) 0.29626(11) 0.0623 Uani
O4O O -0.0406(4) 0.33968(12) 0.20374(11) 0.0623 Uani
loop_
_atom_site_aniso_label
_atom_site_aniso_U_11
_atom_site_aniso_U_22
_atom_site_aniso_U_33
_atom_site_aniso_U_23
_atom_site_aniso_U_13
_atom_site_aniso_U_12
In1 0.0767(5) 0.0301(4) 0.0321(4) 0.000 -0.0018(2) 0.000
Co1 0.1300(12) 0.0377(6) 0.0357(6) 0.000 0.000 0.0231(6)
C1 0.098 0.034 0.042 0.004 0.017 0.001
C2 0.095 0.036 0.046 -0.009 0.008 -0.004
C3 0.085 0.044 0.049 -0.007 0.004 0.01
C4 0.102 0.051 0.044 -0.006 -0.003 0.022
C5 0.094 0.045 0.055 -0.011 -0.004 0.01
C6 0.109 0.08 0.058 -0.029 0 0.018
C7 0.128 0.071 0.067 -0.037 -0.011 0.021
C8 0.113 0.038 0.05 -0.009 -0.004 0.023
C9 0.128 0.05 0.039 -0.004 0.002 0.03
C10 0.152(7) 0.057(4) 0.041(3) 0.004(3) 0.001(3) 0.036(4)
C11 0.140(7) 0.048(3) 0.045(3) 0.006(3) -0.004(4) 0.031(4)
C12 0.168 0.044 0.052 -0.003 0.002 0.023
C13 0.141(6) 0.049(3) 0.047(3) 0.001(3) 0.007(4) 0.013(4)
C14 0.170(8) 0.044(4) 0.043(3) 0.003(3) -0.001(4) 0.029(4)
C15 0.180(9) 0.060(5) 0.066(5) 0.026(4) 0.012(5) 0.027(5)
C16 0.183(8) 0.051(4) 0.038(3) -0.004(3) -0.009(4) 0.045(5)
C17 0.157(8) 0.063(5) 0.097(6) 0.021(4) -0.047(5) 0.000(5)
C18 0.124(5) 0.046(3) 0.041(3) -0.005(2) -0.002(3) 0.012(3)
C19 0.140(6) 0.066(4) 0.057(3) 0.003(3) -0.004(4) 0.035(4)
C20 0.179(7) 0.090(5) 0.081(4) -0.007(4) -0.017(5) 0.054(5)
C21 0.129(6) 0.035(3) 0.043(3) 0.008(2) 0.002(3) 0.012(3)
C22 0.118(6) 0.069(4) 0.090(5) 0.027(4) -0.030(5) -0.006(4)
C23 0.134(7) 0.059(5) 0.066(4) 0.020(4) 0.010(4) 0.016(4)
C24 0.119(5) 0.040(3) 0.035(3) 0.000(2) -0.005(4) 0.008(4)
N1 0.124(4) 0.044(3) 0.040(2) -0.003(2) 0.010(3) 0.018(3)
N2 0.104 0.045 0.054 0 0 0.01
N3 0.120(6) 0.052(4) 0.057(4) 0.000 0.000 0.028(4)
O1 0.088 0.0361 0.0419 -0.0071 0.0068 0.0066
O2 0.081 0.049 0.054 -0.013 0.0055 0.003
O3 0.093(3) 0.047(2) 0.052(2) 0.0138(18) -0.006(2) 0.006(2)
O4 0.097(3) 0.042(2) 0.048(2) 0.0109(17) -0.001(2) 0.006(2)
C10I 0.152 0.057 0.041 -0.004 -0.001 0.036
C11I 0.14 0.048 0.045 -0.006 0.004 0.031
C13I 0.141 0.049 0.047 -0.001 -0.007 0.013
C14I 0.17 0.044 0.043 -0.003 0.001 0.029
C15I 0.18 0.06 0.066 -0.026 -0.012 0.027
C16I 0.183 0.051 0.038 0.004 0.009 0.045
C17I 0.157 0.063 0.097 -0.021 0.047 0
C18I 0.124 0.046 0.041 0.005 0.002 0.012
C19I 0.14 0.066 0.057 -0.003 0.004 0.035
C20I 0.179 0.09 0.081 0.007 0.017 0.054
C21I 0.129 0.035 0.043 -0.008 -0.002 0.012
C22I 0.118 0.069 0.09 -0.027 0.03 -0.006
C23I 0.134 0.059 0.066 -0.02 -0.01 0.016
C24I 0.119 0.04 0.035 0 0.005 0.008
N1I 0.124 0.044 0.04 0.003 -0.01 0.018
O3I 0.093 0.047 0.052 -0.0138 0.006 0.006
O4I 0.097 0.042 0.048 -0.0109 0.001 0.006
C1I 0.098 0.034 0.042 -0.004 -0.017 0.001
C2I 0.095 0.036 0.046 0.009 -0.008 -0.004
C3I 0.085 0.044 0.049 0.007 -0.004 0.01
C4I 0.102 0.051 0.044 0.006 0.003 0.022
C5I 0.094 0.045 0.055 0.011 0.004 0.01
C6I 0.109 0.08 0.058 0.029 0 0.018
C7I 0.128 0.071 0.067 0.037 0.011 0.021
C8I 0.113 0.038 0.05 0.009 0.004 0.023
C9I 0.128 0.05 0.039 0.004 -0.002 0.03
C12I 0.168 0.044 0.052 0.003 -0.002 0.023
O1I 0.088 0.0361 0.0419 0.0071 -0.0068 0.0066
O2I 0.081 0.049 0.054 0.013 -0.0055 0.003
In1D 0.0767 0.0301 0.0321 0 -0.0018 0
In1I 0.0767 0.0301 0.0321 0 0.0018 0
In1M 0.0767 0.0301 0.0321 0 0.0018 0
O1K 0.088 0.0361 0.0419 -0.0071 -0.0068 -0.0066
O2K 0.081 0.049 0.054 -0.013 -0.0055 -0.003
O3M 0.093 0.047 0.052 -0.0138 0.006 0.006
O3O 0.093 0.047 0.052 0.0138 0.006 -0.006
O4M 0.097 0.042 0.048 -0.0109 0.001 0.006
O4O 0.097 0.042 0.048 0.0109 0.001 -0.006
loop_
_geom_bond_atom_site_label_1
_geom_bond_atom_site_label_2
_geom_bond_site_symmetry_1
_geom_bond_site_symmetry_2
In1 O1I 1_555 1_555
Co1 N1 1_555 1_555
C1 C2 1_555 1_555
C2 C3 1_555 1_555
C3 H1 1_555 1_555
C4 C5 1_555 1_555
C5 C3 1_555 1_555
H2 C5 1_555 1_555
C6 C2 1_555 1_555
H3 C6 1_555 1_555
C7 C4 1_555 1_555
H4 C7 1_555 1_555
C8 C4 1_555 1_555
C9 C8 1_555 1_555
C10 H5 1_555 1_555
C11 C10 1_555 1_555
C12 C9 1_555 1_555
H6 C12 1_555 1_555
C13 C10 1_555 1_555
H7 C13 1_555 1_555
C14 C15 1_555 1_555
C15 H8 1_555 1_555
C16 C11 1_555 1_555
C17 C14 1_555 1_555
H9 C17 1_555 1_555
C18 C8 1_555 1_555
C19 C16 1_555 1_555
C20 C19 1_555 1_555
H10 C20 1_555 1_555
C21 C22 1_555 1_555
C22 C17 1_555 1_555
H11 C22 1_555 1_555
C23 C15 1_555 1_555
H12 C23 1_555 1_555
C24 C21 1_555 1_555
N1 C11 1_555 1_555
N2 Co1 1_555 1_555
N3 Co1 1_555 1_555
O1 C1 1_555 1_555
O2 C1 1_555 1_555
O3 C24 1_555 1_555
O4 C24 1_555 1_555
O5 Co1 1_555 1_555
C10I H5I 1_555 1_555
C11I C10I 1_555 1_555
C13I C10I 1_555 1_555
H7I C13I 1_555 1_555
C14I C15I 1_555 1_555
C15I H8I 1_555 1_555
C16I C11I 1_555 1_555
C17I C14I 1_555 1_555
H9I C17I 1_555 1_555
C18I C13I 1_555 1_555
C19I N3 1_555 1_555
C20I C20 1_555 1_555
H10I C20I 1_555 1_555
C21I C22I 1_555 1_555
C22I C17I 1_555 1_555
H11I C22I 1_555 1_555
C23I C15I 1_555 1_555
H12I C23I 1_555 1_555
C24I C21I 1_555 1_555
N1I Co1 1_555 1_555
O3I C24I 1_555 1_555
O4I C24I 1_555 1_555
C1I C2I 1_555 1_555
C2I C3I 1_555 1_555
C3I H1I 1_555 1_555
C4I C5I 1_555 1_555
C5I C3I 1_555 1_555
H2I C5I 1_555 1_555
C6I C2I 1_555 1_555
H3I C6I 1_555 1_555
C7I C4I 1_555 1_555
H4I C7I 1_555 1_555
C8I C18I 1_555 1_555
C9I N2 1_555 1_555
C12I C12 1_555 1_555
H6I C12I 1_555 1_555
O1I C1I 1_555 1_555
O2I In1 1_555 1_555
In1D O3I 1_555 1_555
In1I O1 1_555 1_555
In1M O3 1_555 1_555
O1K In1 1_555 1_555
O2K In1 1_555 1_555
O3M In1 1_555 1_555
O3O In1 1_555 1_555
O4M In1 1_555 1_555
O4O In1 1_555 1_555
C6 C7 1_555 1_555
C9 N2 1_555 1_555
C13 C18 1_555 1_555
C14 C16 1_555 1_555
C18 N1 1_555 1_555
C19 N3 1_555 1_555
C21 C23 1_555 1_555
O2 In1I 1_555 1_555
O4 In1M 1_555 1_555
C11I N1I 1_555 1_555
C14I C16I 1_555 1_555
C16I C19I 1_555 1_555
C18I N1I 1_555 1_555
C19I C20I 1_555 1_555
C21I C23I 1_555 1_555
O4I In1D 1_555 1_555
C1I O2I 1_555 1_555
C4I C8I 1_555 1_555
C6I C7I 1_555 1_555
C8I C9I 1_555 1_555
C9I C12I 1_555 1_555

#END
