
#######################################################################
#
#                 Cambridge Crystallographic Data Centre
#                                CCDC 
#
#######################################################################
#
# If this CIF has been generated from an entry in the Cambridge 
# Structural Database, then it will include bibliographic, chemical, 
# crystal, experimental, refinement or atomic coordinate data resulting 
# from the CCDC's data processing and validation procedures.
#
#######################################################################

data_PEJMOI
_chemical_formula_moiety         '(C32 H38 Cd8 K2 N24 O47 2+)n'
_symmetry_cell_setting           orthorhombic
_symmetry_space_group_name_H-M   'I m m a'
_symmetry_Int_Tables_number      74
_space_group_name_Hall           '-I 2b 2'
loop_
_symmetry_equiv_pos_site_id
_symmetry_equiv_pos_as_xyz
1 x,y,z
2 -x,1/2-y,z
3 -x,1/2+y,-z
4 x,-y,-z
5 1/2+x,1/2+y,1/2+z
6 1/2-x,-y,1/2+z
7 1/2-x,y,1/2-z
8 1/2+x,1/2-y,1/2-z
9 -x,-y,-z
10 x,1/2+y,-z
11 x,1/2-y,z
12 -x,y,z
13 1/2-x,1/2-y,1/2-z
14 1/2+x,y,1/2-z
15 1/2+x,-y,1/2+z
16 1/2-x,1/2+y,1/2+z
_cell_length_a                   21.309(4)
_cell_length_b                   23.981(5)
_cell_length_c                   16.055(3)
_cell_angle_alpha                90
_cell_angle_beta                 90
_cell_angle_gamma                90
_cell_volume                     8204.28
loop_
_atom_site_label
_atom_site_type_symbol
_atom_site_fract_x
_atom_site_fract_y
_atom_site_fract_z
Cd1 Cd 0.34382(2) 1.388800(19) 0.26539(3)
Cd2 Cd 0.22469(2) 1.404640(19) 0.01703(3)
K1 K 0.16162(17) 1.2500 -0.0089(3)
O1 O 0.2715(2) 1.37107(18) 0.1553(3)
O2 O 0.2618(2) 1.31275(19) 0.0493(3)
O3 O 0.3617(2) 1.3705(2) 0.4145(3)
O4 O 0.4324(7) 1.3736(10) 0.5141(9)
O5 O 0.1344(3) 0.9650(2) -0.3327(3)
O6 O 0.1400(3) 1.0567(2) -0.3510(3)
O7 O 0.2040(3) 1.1487(2) -0.1053(3)
O8 O 0.1485(5) 1.1473(3) -0.2212(4)
O9 O 0.3311(3) 1.4258(3) 0.0107(3)
O10 O 0.1021(6) 1.2500 -0.1729(6)
N1 N 0.3360(3) 1.2951(2) 0.2461(3)
N2 N 0.3550(4) 1.2500 0.2891(5)
N3 N 0.4492(3) 1.3863(3) 0.2948(4)
N4 N 0.5000 1.3933(4) 0.2481(5)
N5 N 0.1843(3) 0.9713(2) -0.1811(3)
N6 N 0.2039(3) 0.9821(2) -0.1042(3)
N7 N 0.2031(3) 1.0375(2) -0.0938(3)
C1 C 0.3055(3) 1.2788(3) 0.1764(4)
C2 C 0.2781(3) 1.3229(3) 0.1227(4)
C3 C 0.4674(3) 1.3748(3) 0.3735(4)
C4 C 0.4181(4) 1.3649(4) 0.4385(5)
C5 C 0.1701(3) 1.0191(3) -0.2212(4)
C6 C 0.1831(3) 1.0619(3) -0.1651(4)
C7 C 0.1460(3) 1.0139(3) -0.3086(4)
C8 C 0.1783(5) 1.1243(3) -0.1647(5)
Cd1J Cd 0.34382(2) 1.111200(19) 0.26539(3)
Cd1O Cd 0.15618(2) 0.888800(19) -0.23461(3)
Cd1E Cd 0.15618(2) 1.611200(19) -0.23461(3)
Cd1K Cd 0.65618(2) 1.388800(19) 0.26539(3)
Cd1F Cd 0.15618(2) 1.388800(19) 0.23461(3)
Cd1M Cd -0.15618(2) 1.388800(19) 0.23461(3)
Cd1E_2 Cd 0.15618(2) 0.611200(19) -0.23461(3)
Cd2J Cd 0.22469(2) 1.095360(19) 0.01703(3)
Cd2I Cd 0.22469(2) 0.904640(19) -0.01703(3)
Cd2C Cd 0.22469(2) 1.595360(19) -0.01703(3)
Cd2F Cd 0.27531(2) 1.404640(19) 0.48297(3)
Cd2M Cd 0.72469(2) 1.404640(19) 0.48297(3)
Cd2E Cd 0.27531(2) 1.595360(19) 0.51703(3)
Cd2K Cd -0.22469(2) 1.404640(19) 0.01703(3)
Cd2O Cd 0.27531(2) 0.904640(19) -0.48297(3)
Cd2E_2 Cd 0.27531(2) 0.595360(19) -0.48297(3)
K1E K 0.33838(17) 0.7500 -0.5089(3)
K1E_2 K 0.33838(17) 1.7500 0.4911(3)
K1C K 0.16162(17) 1.7500 0.0089(3)
O1J O 0.2715(2) 1.12893(18) 0.1553(3)
O1O O 0.2285(2) 0.87107(18) -0.3447(3)
O1E O 0.2285(2) 0.62893(18) -0.3447(3)
O1E_2 O 0.2285(2) 1.62893(18) -0.3447(3)
O2J O 0.2618(2) 1.18725(19) 0.0493(3)
O2O O 0.2382(2) 0.81275(19) -0.4507(3)
O2E O 0.2382(2) 0.68725(19) -0.4507(3)
O2I O 0.2618(2) 0.81275(19) -0.0493(3)
O2C O 0.2618(2) 1.68725(19) -0.0493(3)
O3K O 0.6383(2) 1.3705(2) 0.4145(3)
O3F O 0.1383(2) 1.3705(2) 0.0855(3)
O3M O -0.1383(2) 1.3705(2) 0.0855(3)
O3J O 0.3617(2) 1.1295(2) 0.4145(3)
O3O O 0.1383(2) 0.8705(2) -0.0855(3)
O3E O 0.1383(2) 1.6295(2) -0.0855(3)
O3L O 0.1383(2) 1.1295(2) 0.0855(3)
O4K O 0.5676(7) 1.3736(10) 0.5141(9)
O4F O 0.0676(7) 1.3736(10) -0.0141(9)
O4M O -0.0676(7) 1.3736(10) -0.0141(9)
O5J O 0.1344(3) 1.5350(2) -0.3327(3)
O5O O 0.3656(3) 1.4650(2) 0.1673(3)
O5I O 0.1344(3) 1.4650(2) 0.3327(3)
O5E O 0.3656(3) 1.0350(2) 0.1673(3)
O6J O 0.1400(3) 1.4433(2) -0.3510(3)
O6O O 0.3600(3) 1.5567(2) 0.1490(3)
O6I O 0.1400(3) 1.5567(2) 0.3510(3)
O7J O 0.2040(3) 1.3513(2) -0.1053(3)
O7O O 0.2960(3) 1.6487(2) 0.3947(3)
O7I O 0.2040(3) 1.6487(2) 0.1053(3)
O7C O 0.2040(3) 0.8513(2) 0.1053(3)
O7O_2 O 0.2960(3) 0.6487(2) -0.6053(3)
O7E O 0.2960(3) 0.8513(2) -0.6053(3)
O8J O 0.1485(5) 1.3527(3) -0.2212(4)
O8O O 0.3515(5) 1.6473(3) 0.2788(4)
O8I O 0.1485(5) 1.6473(3) 0.2212(4)
O9J O 0.3311(3) 1.0742(3) 0.0107(3)
O9I O 0.3311(3) 0.9258(3) -0.0107(3)
O9C O 0.3311(3) 1.5742(3) -0.0107(3)
O10E O 0.3979(6) 0.7500 -0.6729(6)
N1J N 0.3360(3) 1.2049(2) 0.2461(3)
N1O N 0.1640(3) 0.7951(2) -0.2539(3)
N1E N 0.1640(3) 0.7049(2) -0.2539(3)
N1E_2 N 0.1640(3) 1.7049(2) -0.2539(3)
N2E N 0.1450(4) 0.7500 -0.2109(5)
N3K N 0.5508(3) 1.3863(3) 0.2948(4)
N3F N 0.0508(3) 1.3863(3) 0.2052(4)
N3M N -0.0508(3) 1.3863(3) 0.2052(4)
N3J N 0.4492(3) 1.1137(3) 0.2948(4)
N3O N 0.0508(3) 0.8863(3) -0.2052(4)
N3E N 0.0508(3) 1.6137(3) -0.2052(4)
N4F N 0.0000 1.3933(4) 0.2519(5)
N5J N 0.1843(3) 1.5287(2) -0.1811(3)
N5O N 0.3157(3) 1.4713(2) 0.3189(3)
N5I N 0.1843(3) 1.4713(2) 0.1811(3)
N5E N 0.3157(3) 1.0287(2) 0.3189(3)
N6J N 0.2039(3) 1.5179(2) -0.1042(3)
N6O N 0.2961(3) 1.4821(2) 0.3958(3)
N6I N 0.2039(3) 1.4821(2) 0.1042(3)
N6C N 0.2039(3) 1.0179(2) 0.1042(3)
N7J N 0.2031(3) 1.4625(2) -0.0938(3)
N7O N 0.2969(3) 1.5375(2) 0.4062(3)
N7I N 0.2031(3) 1.5375(2) 0.0938(3)
N7C N 0.2031(3) 0.9625(2) 0.0938(3)
C1J C 0.3055(3) 1.2212(3) 0.1764(4)
C1O C 0.1945(3) 0.7788(3) -0.3236(4)
C1E C 0.1945(3) 0.7212(3) -0.3236(4)
C2J C 0.2781(3) 1.1771(3) 0.1227(4)
C2O C 0.2219(3) 0.8229(3) -0.3773(4)
C2E C 0.2219(3) 0.6771(3) -0.3773(4)
C3K C 0.5326(3) 1.3748(3) 0.3735(4)
C3F C 0.0326(3) 1.3748(3) 0.1265(4)
C3M C -0.0326(3) 1.3748(3) 0.1265(4)
C4K C 0.5819(4) 1.3649(4) 0.4385(5)
C4F C 0.0819(4) 1.3649(4) 0.0615(5)
C4M C -0.0819(4) 1.3649(4) 0.0615(5)
C5J C 0.1701(3) 1.4809(3) -0.2212(4)
C5O C 0.3299(3) 1.5191(3) 0.2788(4)
C5I C 0.1701(3) 1.5191(3) 0.2212(4)
C6J C 0.1831(3) 1.4381(3) -0.1651(4)
C6O C 0.3169(3) 1.5619(3) 0.3349(4)
C6I C 0.1831(3) 1.5619(3) 0.1651(4)
C7J C 0.1460(3) 1.4861(3) -0.3086(4)
C7O C 0.3540(3) 1.5139(3) 0.1914(4)
C7I C 0.1460(3) 1.5139(3) 0.3086(4)
C8J C 0.1783(5) 1.3757(3) -0.1647(5)
C8O C 0.3217(5) 1.6243(3) 0.3353(5)
C8I C 0.1783(5) 1.6243(3) 0.1647(5)
O11 O 0.3404(4) 0.6693(3) 0.1114(4)
O12 O 0.0000 0.6741(5) 0.1382(6)
O13 O -0.0000 0.2500 0.2179(19)
O14 O 0.119(2) 0.7500 0.491(2)
O15 O 0.273(3) 0.7500 0.169(3)
O16 O 0.0000 1.2500 -0.074(3)
O17 O -0.0000 0.5302(18) 0.096(3)
O18 O -0.0000 0.4100(17) 0.564(2)
O19 O -0.0000 1.053(2) 0.407(3)
loop_
_geom_bond_atom_site_label_1
_geom_bond_atom_site_label_2
_geom_bond_site_symmetry_1
_geom_bond_site_symmetry_2
Cd1 O1 1_555 1_555
Cd2 O2 1_555 1_555
K1 O2 1_555 1_555
O1 C2 1_555 1_555
O2 C2 1_555 1_555
O3 Cd1 1_555 1_555
O4 C4 1_555 1_555
O5 C7 1_555 1_555
O6 C7 1_555 1_555
O7 K1 1_555 1_555
O8 C8 1_555 1_555
O9 Cd2 1_555 1_555
O10 K1 1_555 1_555
N1 Cd1 1_555 1_555
N2 N1 1_555 1_555
N3 Cd1 1_555 1_555
N4 N3 1_555 1_555
N5 N6 1_555 1_555
N6 N7 1_555 1_555
N7 C6 1_555 1_555
C1 N1 1_555 1_555
C2 C1 1_555 1_555
C3 N3 1_555 1_555
C4 O3 1_555 1_555
C5 N5 1_555 1_555
C6 C5 1_555 1_555
C7 C5 1_555 1_555
C8 O7 1_555 1_555
Cd1J O1J 1_555 1_555
Cd1O O5 1_555 1_555
Cd1E O1E_2 1_555 1_555
Cd1K O3K 1_555 1_555
Cd1F O3F 1_555 1_555
Cd1M O3M 1_555 1_555
Cd1E_2 O1E 1_555 1_555
Cd2J O7 1_555 1_555
Cd2I N6 1_555 1_555
Cd2C O2C 1_555 1_555
Cd2F O3 1_555 1_555
Cd2M O3K 1_555 1_555
Cd2E O7O 1_555 1_555
Cd2K O3M 1_555 1_555
Cd2O O2O 1_555 1_555
Cd2E_2 O2E 1_555 1_555
K1E O2O 1_555 1_555
K1E_2 O7O 1_555 1_555
K1C O2C 1_555 1_555
O1J C2J 1_555 1_555
O1O Cd1O 1_555 1_555
O1E C2E 1_555 1_555
O2J K1 1_555 1_555
O2O C2O 1_555 1_555
O2E K1E 1_555 1_555
O2I Cd2I 1_555 1_555
O3K C4K 1_555 1_555
O3F Cd2 1_555 1_555
O3M C4M 1_555 1_555
O3J Cd1J 1_555 1_555
O3O Cd1O 1_555 1_555
O3E Cd1E 1_555 1_555
O3L Cd2J 1_555 1_555
O4K C4K 1_555 1_555
O4F C4F 1_555 1_555
O4M C4M 1_555 1_555
O5J Cd1E 1_555 1_555
O5O Cd1 1_555 1_555
O5I Cd1F 1_555 1_555
O5E Cd1J 1_555 1_555
O6J C7J 1_555 1_555
O6O C7O 1_555 1_555
O6I C7I 1_555 1_555
O7J Cd2 1_555 1_555
O7O C8O 1_555 1_555
O7I Cd2C 1_555 1_555
O7C Cd2I 1_555 1_555
O7O_2 Cd2E_2 1_555 1_555
O7E Cd2O 1_555 1_555
O8J C8J 1_555 1_555
O8O C8O 1_555 1_555
O8I C8I 1_555 1_555
O9J Cd2J 1_555 1_555
O9I Cd2I 1_555 1_555
O9C Cd2C 1_555 1_555
O10E K1E 1_555 1_555
N1J N2 1_555 1_555
N1O Cd1O 1_555 1_555
N1E Cd1E_2 1_555 1_555
N1E_2 Cd1E 1_555 1_555
N2E N1O 1_555 1_555
N3K N4 1_555 1_555
N3F Cd1F 1_555 1_555
N3M Cd1M 1_555 1_555
N3J Cd1J 1_555 1_555
N3O Cd1O 1_555 1_555
N3E Cd1E 1_555 1_555
N4F N3F 1_555 1_555
N5J Cd1E 1_555 1_555
N5O Cd1 1_555 1_555
N5I Cd1F 1_555 1_555
N5E Cd1J 1_555 1_555
N6J Cd2C 1_555 1_555
N6O Cd2F 1_555 1_555
N6I Cd2 1_555 1_555
N6C Cd2J 1_555 1_555
N7J Cd2 1_555 1_555
N7O Cd2E 1_555 1_555
N7I Cd2C 1_555 1_555
N7C Cd2I 1_555 1_555
C1J C1 1_555 1_555
C1O N1O 1_555 1_555
C1E N1E 1_555 1_555
C2J O2J 1_555 1_555
C2O O1O 1_555 1_555
C2E O2E 1_555 1_555
C3K C3 1_555 1_555
C3F N3F 1_555 1_555
C3M N3M 1_555 1_555
C4K C3K 1_555 1_555
C4F O3F 1_555 1_555
C4M C3M 1_555 1_555
C5J N5J 1_555 1_555
C5O N5O 1_555 1_555
C5I N5I 1_555 1_555
C6J N7J 1_555 1_555
C6O N7O 1_555 1_555
C6I N7I 1_555 1_555
C7J O5J 1_555 1_555
C7O O5O 1_555 1_555
C7I O5I 1_555 1_555
C8J O7J 1_555 1_555
C8O C6O 1_555 1_555
C8I O7I 1_555 1_555
K1 O7J 1_555 1_555
N5 Cd1O 1_555 1_555
N7 Cd2J 1_555 1_555
C3 C4 1_555 1_555
C6 C8 1_555 1_555
Cd1J N1J 1_555 1_555
Cd1K N3K 1_555 1_555
Cd2J O2J 1_555 1_555
Cd2I O3O 1_555 1_555
Cd2C O3E 1_555 1_555
K1E O7O_2 1_555 1_555
K1E O7E 1_555 1_555
K1C O7I 1_555 1_555
N1J C1J 1_555 1_555
N1E N2E 1_555 1_555
N3K C3K 1_555 1_555
N3M N4F 1_555 1_555
N5J N6J 1_555 1_555
N5O N6O 1_555 1_555
N5I N6I 1_555 1_555
N6J N7J 1_555 1_555
N6O N7O 1_555 1_555
N6I N7I 1_555 1_555
N6C N7C 1_555 1_555
C1J C2J 1_555 1_555
C1O C1E 1_555 1_555
C1O C2O 1_555 1_555
C1E C2E 1_555 1_555
C3F C3M 1_555 1_555
C3F C4F 1_555 1_555
C5J C6J 1_555 1_555
C5J C7J 1_555 1_555
C5O C6O 1_555 1_555
C5O C7O 1_555 1_555
C5I C6I 1_555 1_555
C5I C7I 1_555 1_555
C6J C8J 1_555 1_555
C6I C8I 1_555 1_555

#END
