
#######################################################################
#
#                 Cambridge Crystallographic Data Centre
#                                CCDC 
#
#######################################################################
#
# If this CIF has been generated from an entry in the Cambridge 
# Structural Database, then it will include bibliographic, chemical, 
# crystal, experimental, refinement or atomic coordinate data resulting 
# from the CCDC's data processing and validation procedures.
#
#######################################################################

data_HEGJUZ
_chemical_formula_moiety         '(C64 H62 N6 O17 Zn3)n'
_symmetry_cell_setting           monoclinic
_symmetry_space_group_name_H-M   'P 21/n'
_symmetry_Int_Tables_number      14
_space_group_name_Hall           '-P 2yn'
loop_
_symmetry_equiv_pos_site_id
_symmetry_equiv_pos_as_xyz
1 x,y,z
2 1/2-x,1/2+y,1/2-z
3 -x,-y,-z
4 1/2+x,1/2-y,1/2+z
_cell_length_a                   14.608(3)
_cell_length_b                   18.041(4)
_cell_length_c                   24.803(5)
_cell_angle_alpha                90
_cell_angle_beta                 90.005(1)
_cell_angle_gamma                90
_cell_volume                     6536.66
loop_
_atom_site_label
_atom_site_type_symbol
_atom_site_fract_x
_atom_site_fract_y
_atom_site_fract_z
Zn1 Zn 0.46033(3) -0.06459(2) 0.14946(2)
Zn2 Zn 0.49379(3) -0.25634(2) 0.150926(17)
Zn3 Zn -0.46857(3) -0.44992(2) 0.149890(19)
O1 O 0.33229(18) -0.09123(14) 0.15878(12)
O2 O 0.37943(17) -0.19775(15) 0.12325(11)
O3 O -0.34044(17) -0.42097(13) 0.14693(13)
O4 O -0.38974(18) -0.31251(15) 0.17838(11)
O5 O 0.5212(2) -0.08158(14) 0.08105(11)
O6 O 0.58365(18) -0.18841(14) 0.10937(10)
O7 O 0.9749(2) -0.06813(14) -0.28062(11)
O8 O 0.90648(18) -0.17162(14) -0.30943(10)
O9 O 0.5383(2) -0.08047(14) 0.21161(11)
O10 O 0.49857(19) -0.19894(14) 0.22323(10)
O11 O 0.9553(2) -0.06394(14) 0.58645(11)
O12 O 0.98740(18) -0.18438(14) 0.57933(10)
N1 N 0.4677(2) 0.04866(14) 0.14973(14)
N2 N 0.5247(2) 0.43697(15) 0.15072(15)
C1 C 0.4992(3) 0.0847(2) 0.10632(16)
H1 H 0.5140 0.0567 0.0751
C2 C 0.5113(3) 0.1608(2) 0.10488(17)
H2 H 0.5328 0.1846 0.0731
C3 C 0.4911(3) 0.20189(18) 0.15101(18)
C4 C 0.4588(3) 0.1634(2) 0.19678(17)
H3 H 0.4440 0.1895 0.2289
C5 C 0.4491(3) 0.0884(2) 0.19430(16)
H4 H 0.4282 0.0630 0.2255
C6 C 0.4917(3) 0.4007(2) 0.10725(16)
H5 H 0.4761 0.4287 0.0761
C7 C 0.4796(3) 0.3250(2) 0.10595(16)
H6 H 0.4557 0.3016 0.0746
C8 C 0.5027(3) 0.28329(19) 0.15090(17)
C9 C 0.5368(3) 0.3204(2) 0.19596(16)
H7 H 0.5527 0.2936 0.2276
C10 C 0.5471(3) 0.3967(2) 0.19414(17)
H8 H 0.5710 0.4214 0.2249
C11 C 0.3187(2) -0.1574(2) 0.14347(17)
C12 C 0.2230(3) -0.1861(2) 0.14747(19)
C13 C 0.1537(3) -0.1422(2) 0.16869(17)
H9 H 0.1672 -0.0937 0.1814
C14 C 0.0642(3) -0.1692(2) 0.17134(17)
H10 H 0.0171 -0.1385 0.1854
C15 C 0.0431(3) -0.24078(19) 0.15352(19)
C16 C 0.1132(3) -0.2838(2) 0.13113(19)
H11 H 0.0998 -0.3319 0.1176
C17 C 0.2027(3) -0.2569(2) 0.1285(2)
H12 H 0.2499 -0.2870 0.1137
C18 C -0.0526(3) -0.2694(2) 0.15715(19)
C19 C -0.0693(3) -0.3456(2) 0.1547(2)
H13 H -0.0193 -0.3791 0.1519
C20 C -0.1572(3) -0.3727(2) 0.15629(19)
H14 H -0.1673 -0.4247 0.1549
C21 C -0.2312(3) -0.3250(2) 0.15986(16)
C22 C -0.2154(3) -0.2496(2) 0.16315(17)
H15 H -0.2656 -0.2166 0.1675
C23 C -0.1272(3) -0.2215(2) 0.16016(17)
H16 H -0.1176 -0.1694 0.1602
C24 C -0.3274(3) -0.3536(2) 0.16122(16)
C25 C 0.5741(3) -0.1373(2) 0.07546(16)
C26 C 0.6316(3) -0.1384(2) 0.02550(17)
C27 C 0.6489(3) -0.0716(2) -0.00136(17)
H17 H 0.6250 -0.0264 0.0123
C28 C 0.7009(3) -0.0718(2) -0.04784(17)
H18 H 0.7140 -0.0263 -0.0655
C29 C 0.7346(3) -0.1384(2) -0.06937(17)
C30 C 0.7162(3) -0.2048(2) -0.04223(16)
H19 H 0.7384 -0.2504 -0.0563
C31 C 0.6653(3) -0.2043(2) 0.00550(17)
H20 H 0.6540 -0.2493 0.0242
C32 C 0.7861(3) -0.1370(2) -0.12128(17)
C33 C 0.8389(3) -0.0759(3) -0.13469(18)
H21 H 0.8434 -0.0358 -0.1100
C34 C 0.8853(3) -0.0723(2) -0.18354(18)
H22 H 0.9216 -0.0302 -0.1920
C35 C 0.8783(3) -0.1303(2) -0.21959(16)
C36 C 0.8253(3) -0.1914(2) -0.20710(17)
H23 H 0.8192 -0.2305 -0.2325
C37 C 0.7813(3) -0.1959(2) -0.15789(17)
H24 H 0.7476 -0.2392 -0.1489
C38 C 0.9237(3) -0.1243(2) -0.27368(15)
C39 C 0.5430(3) -0.1418(2) 0.23546(15)
C40 C 0.6024(3) -0.1434(2) 0.28426(17)
C41 C 0.6621(3) -0.0850(2) 0.29457(17)
H25 H 0.6642 -0.0444 0.2702
C42 C 0.7182(3) -0.0847(2) 0.33937(16)
H26 H 0.7595 -0.0448 0.3450
C43 C 0.7142(3) -0.1427(2) 0.37632(17)
C44 C 0.6562(3) -0.2018(2) 0.36636(17)
H27 H 0.6540 -0.2419 0.3911
C45 C 0.6008(3) -0.2031(2) 0.32049(17)
H28 H 0.5622 -0.2444 0.3138
C46 C 0.7719(3) -0.1394(2) 0.42590(17)
C47 C 0.7974(3) -0.0709(2) 0.44728(17)
H29 H 0.7769 -0.0265 0.4306
C48 C 0.8526(3) -0.0673(2) 0.49274(17)
H30 H 0.8688 -0.0203 0.5071
C49 C 0.8842(3) -0.1305(2) 0.51722(16)
C50 C 0.8576(3) -0.1998(2) 0.49665(17)
H31 H 0.8781 -0.2440 0.5136
C51 C 0.8017(3) -0.2037(2) 0.45177(17)
H32 H 0.7834 -0.2508 0.4384
C52 C 0.9469(3) -0.1271(2) 0.56461(15)
Zn2_2 Zn -0.50621(3) -0.25634(2) 0.150926(17)
Zn2C Zn 0.99379(3) -0.24366(2) -0.349074(17)
Zn2C_2 Zn 0.99379(3) -0.24366(2) 0.650926(17)
Zn3C Zn 1.03143(3) -0.05008(2) -0.350110(19)
Zn3C_2 Zn 1.03143(3) -0.05008(2) 0.649890(19)
Zn3_2 Zn 0.53143(3) 0.55008(2) 0.149890(19)
O4_2 O 0.61026(18) -0.31251(15) 0.17838(11)
O7C O -0.5251(2) -0.43187(14) 0.21938(11)
O8C O 0.40648(18) -0.32838(14) 0.19057(10)
O11C O -0.5447(2) -0.43606(14) 0.08645(11)
O12C O 0.48740(18) -0.31562(14) 0.07933(10)
N2_2 N -0.4753(2) -0.56303(15) 0.15072(15)
O13 O 0.0584(3) 0.5354(3) 0.0871(2)
C53 C 0.0988(6) 0.5063(5) 0.0443(4)
H33 H 0.1417 0.5319 0.0224
N3 N 0.0699(4) 0.4319(3) 0.0350(2)
C54 C 0.0129(7) 0.3926(6) 0.0629(4)
H34 H 0.0070 0.3433 0.0467
H35 H -0.0471 0.4170 0.0633
H36 H 0.0355 0.3877 0.1000
C55 C 0.1272(8) 0.3962(6) -0.0102(4)
H37 H 0.1673 0.4337 -0.0263
H38 H 0.0862 0.3762 -0.0379
H39 H 0.1644 0.3560 0.0048
O14 O 0.2589(3) 0.3743(2) 0.09993(17)
C56 C 0.2639(4) 0.4359(3) 0.1206(2)
H40 H 0.3029 0.4710 0.1036
N4 N 0.2192(3) 0.4586(2) 0.16536(16)
C57 C 0.1534(4) 0.4108(4) 0.1919(3)
H41 H 0.1280 0.4363 0.2233
H42 H 0.1839 0.3651 0.2035
H43 H 0.1039 0.3986 0.1667
C58 C 0.2260(4) 0.5334(3) 0.1833(2)
H44 H 0.1892 0.5399 0.2160
H45 H 0.2034 0.5666 0.1550
H46 H 0.2901 0.5451 0.1911
O15 O -0.0995(2) -0.03272(18) 0.18340(15)
C59 C -0.1401(3) 0.0241(3) 0.19296(19)
H47 H -0.1119 0.0575 0.2175
N5 N -0.2212(3) 0.0444(2) 0.17222(17)
C60 C -0.2671(4) 0.1125(3) 0.1874(3)
H48 H -0.3247 0.1169 0.1673
H49 H -0.2277 0.1549 0.1790
H50 H -0.2802 0.1117 0.2262
C61 C -0.2677(4) -0.0035(3) 0.1338(3)
H51 H -0.3249 0.0199 0.1223
H52 H -0.2812 -0.0513 0.1509
H53 H -0.2282 -0.0115 0.1024
O16 O 0.1942(7) -0.1268(6) -0.0140(5)
C62 C 0.1215(10) -0.1262(12) 0.0191(9)
H54 H 0.1265 -0.1255 0.0573
N6 N 0.0392(10) -0.1267(9) -0.0076(7)
C63 C -0.0530(14) -0.1306(12) 0.0262(9)
H55 H -0.1051 -0.1200 0.0025
H56 H -0.0510 -0.0939 0.0553
H57 H -0.0599 -0.1803 0.0416
C64 C 0.0470(12) -0.1096(9) -0.0681(6)
H58 H 0.1111 -0.0994 -0.0772
H59 H 0.0096 -0.0661 -0.0768
H60 H 0.0254 -0.1523 -0.0890
O17 O 0.3717(3) -0.1121(2) -0.00253(19)
H61 H 0.3347 -0.0813 0.0213
H62 H 0.3644 -0.1619 0.0091
loop_
_geom_bond_atom_site_label_1
_geom_bond_atom_site_label_2
_geom_bond_site_symmetry_1
_geom_bond_site_symmetry_2
Zn1 O1 1_555 1_555
Zn2 O2 1_555 1_555
Zn3 O3 1_555 1_555
O1 C11 1_555 1_555
O2 C11 1_555 1_555
O3 C24 1_555 1_555
O4 C24 1_555 1_555
O5 Zn1 1_555 1_555
O6 Zn2 1_555 1_555
O7 C38 1_555 1_555
O8 C38 1_555 1_555
O9 Zn1 1_555 1_555
O10 Zn2 1_555 1_555
O11 C52 1_555 1_555
O12 C52 1_555 1_555
N1 Zn1 1_555 1_555
N2 C6 1_555 1_555
C1 N1 1_555 1_555
H1 C1 1_555 1_555
C2 C1 1_555 1_555
H2 C2 1_555 1_555
C3 C2 1_555 1_555
C4 C3 1_555 1_555
H3 C4 1_555 1_555
C5 N1 1_555 1_555
H4 C5 1_555 1_555
C6 H5 1_555 1_555
C7 C6 1_555 1_555
H6 C7 1_555 1_555
C8 C3 1_555 1_555
C9 C8 1_555 1_555
H7 C9 1_555 1_555
C10 N2 1_555 1_555
H8 C10 1_555 1_555
C11 C12 1_555 1_555
C12 C13 1_555 1_555
C13 H9 1_555 1_555
C14 C13 1_555 1_555
H10 C14 1_555 1_555
C15 C14 1_555 1_555
C16 C15 1_555 1_555
H11 C16 1_555 1_555
C17 C12 1_555 1_555
H12 C17 1_555 1_555
C18 C15 1_555 1_555
C19 C18 1_555 1_555
H13 C19 1_555 1_555
C20 C19 1_555 1_555
H14 C20 1_555 1_555
C21 C20 1_555 1_555
C22 C21 1_555 1_555
H15 C22 1_555 1_555
C23 C18 1_555 1_555
H16 C23 1_555 1_555
C24 C21 1_555 1_555
C25 O5 1_555 1_555
C26 C25 1_555 1_555
C27 C26 1_555 1_555
H17 C27 1_555 1_555
C28 C27 1_555 1_555
H18 C28 1_555 1_555
C29 C28 1_555 1_555
C30 C29 1_555 1_555
H19 C30 1_555 1_555
C31 C26 1_555 1_555
H20 C31 1_555 1_555
C32 C29 1_555 1_555
C33 C32 1_555 1_555
H21 C33 1_555 1_555
C34 C33 1_555 1_555
H22 C34 1_555 1_555
C35 C34 1_555 1_555
C36 C35 1_555 1_555
H23 C36 1_555 1_555
C37 C32 1_555 1_555
H24 C37 1_555 1_555
C38 C35 1_555 1_555
C39 O9 1_555 1_555
C40 C39 1_555 1_555
C41 C40 1_555 1_555
H25 C41 1_555 1_555
C42 C41 1_555 1_555
H26 C42 1_555 1_555
C43 C42 1_555 1_555
C44 C43 1_555 1_555
H27 C44 1_555 1_555
C45 C40 1_555 1_555
H28 C45 1_555 1_555
C46 C43 1_555 1_555
C47 C46 1_555 1_555
H29 C47 1_555 1_555
C48 C47 1_555 1_555
H30 C48 1_555 1_555
C49 C48 1_555 1_555
C50 C49 1_555 1_555
H31 C50 1_555 1_555
C51 C46 1_555 1_555
H32 C51 1_555 1_555
C52 C49 1_555 1_555
O13 C53 1_555 1_555
C53 H33 1_555 1_555
N3 C53 1_555 1_555
C54 N3 1_555 1_555
H34 C54 1_555 1_555
H35 C54 1_555 1_555
H36 C54 1_555 1_555
C55 N3 1_555 1_555
H37 C55 1_555 1_555
H38 C55 1_555 1_555
H39 C55 1_555 1_555
O14 C56 1_555 1_555
C56 H40 1_555 1_555
N4 C56 1_555 1_555
C57 N4 1_555 1_555
H41 C57 1_555 1_555
H42 C57 1_555 1_555
H43 C57 1_555 1_555
C58 N4 1_555 1_555
H44 C58 1_555 1_555
H45 C58 1_555 1_555
H46 C58 1_555 1_555
O15 C59 1_555 1_555
C59 H47 1_555 1_555
N5 C59 1_555 1_555
C60 N5 1_555 1_555
H48 C60 1_555 1_555
H49 C60 1_555 1_555
H50 C60 1_555 1_555
C61 N5 1_555 1_555
H51 C61 1_555 1_555
H52 C61 1_555 1_555
H53 C61 1_555 1_555
O16 C62 1_555 1_555
C62 H54 1_555 1_555
N6 C62 1_555 1_555
C63 N6 1_555 1_555
H55 C63 1_555 1_555
H56 C63 1_555 1_555
H57 C63 1_555 1_555
C64 N6 1_555 1_555
H58 C64 1_555 1_555
H59 C64 1_555 1_555
H60 C64 1_555 1_555
O17 H61 1_555 1_555
H62 O17 1_555 1_555
Zn2_2 O4 1_555 1_555
Zn2C O8 1_555 1_555
Zn2C_2 O12 1_555 1_555
Zn3C O7 1_555 1_555
Zn3C_2 O11 1_555 1_555
Zn3_2 N2 1_555 1_555
O4_2 Zn2 1_555 1_555
O7C Zn3 1_555 1_555
O8C Zn2 1_555 1_555
O11C Zn3 1_555 1_555
O12C Zn2 1_555 1_555
N2_2 Zn3 1_555 1_555
O6 C25 1_555 1_555
O10 C39 1_555 1_555
C4 C5 1_555 1_555
C7 C8 1_555 1_555
C9 C10 1_555 1_555
C16 C17 1_555 1_555
C22 C23 1_555 1_555
C30 C31 1_555 1_555
C36 C37 1_555 1_555
C44 C45 1_555 1_555
C50 C51 1_555 1_555

#END
