
#######################################################################
#
#                 Cambridge Crystallographic Data Centre
#                                CCDC 
#
#######################################################################
#
# If this CIF has been generated from an entry in the Cambridge 
# Structural Database, then it will include bibliographic, chemical, 
# crystal, experimental, refinement or atomic coordinate data resulting 
# from the CCDC's data processing and validation procedures.
#
#######################################################################

data_TUTJAU
_chemical_formula_moiety         '(C36 H40 Mn2 N8 O10)n'
_symmetry_cell_setting           monoclinic
_symmetry_space_group_name_H-M   'P 21/n'
_symmetry_Int_Tables_number      14
_space_group_name_Hall           '-P 2yn'
loop_
_symmetry_equiv_pos_site_id
_symmetry_equiv_pos_as_xyz
1 x,y,z
2 1/2-x,1/2+y,1/2-z
3 -x,-y,-z
4 1/2+x,1/2-y,1/2+z
_cell_length_a                   16.361(5)
_cell_length_b                   15.209(4)
_cell_length_c                   17.463(6)
_cell_angle_alpha                90
_cell_angle_beta                 110.410(5)
_cell_angle_gamma                90
_cell_volume                     4072.6
loop_
_atom_site_label
_atom_site_type_symbol
_atom_site_fract_x
_atom_site_fract_y
_atom_site_fract_z
_atom_site_U_iso_or_equiv
_atom_site_thermal_displace_type
Mn1 Mn 0.45813(7) 0.43356(8) 0.23338(9) 0.0350 Uani
Mn2 Mn 0.55023(7) 0.14904(8) 0.28169(8) 0.0326 Uani
O1 O 0.8390(3) 0.5652(3) 0.2215(4) 0.0316 Uani
O2 O 0.9626(3) 0.4976(4) 0.2413(4) 0.0352 Uani
O3 O 0.4017(4) 0.3091(4) 0.2219(4) 0.0385 Uani
O4 O 0.1608(3) 0.0151(3) 0.2865(4) 0.0335 Uani
O5 O 0.0384(3) 0.0858(4) 0.2670(4) 0.0374 Uani
O6 O 0.4190(3) 0.1726(4) 0.2719(4) 0.0376 Uani
O7 O 0.6107(4) 0.2719(3) 0.3099(4) 0.0349 Uani
O8 O 0.5918(3) 0.4080(4) 0.2598(4) 0.0311 Uani
N1 N 0.9346(4) 0.0691(4) 0.5983(5) 0.0372 Uani
C1 C 0.8476(5) 0.4155(5) 0.2619(5) 0.0280 Uani
O9 O 0.5178(5) 0.1643(4) 0.1491(4) 0.0329 Uani
N2 N 0.9139(4) 0.1868(4) 0.3198(5) 0.0423 Uani
H1 H 0.9664 0.1898 0.3198 0.0490 Uiso
C2 C 0.7275(5) 0.3399(5) 0.2836(5) 0.0309 Uani
N3 N 0.1036(5) 0.4008(4) 0.2145(5) 0.0393 Uani
H2 H 0.0630 0.4097 0.2342 0.0510 Uiso
C3 C 0.8825(5) 0.1032(5) 0.3395(6) 0.0323 Uani
C4 C 0.1621(5) 0.1685(5) 0.2640(6) 0.0347 Uani
C5 C 0.2471(5) 0.1679(5) 0.2660(5) 0.0346 Uani
H3 H 0.2791 0.1160 0.2780 0.0420 Uiso
C6 C 0.8849(5) 0.4976(5) 0.2399(5) 0.0309 Uani
C7 C 0.7621(4) 0.4160(5) 0.2626(5) 0.0283 Uani
H4 H 0.7287 0.4669 0.2491 0.0330 Uiso
C8 C 0.2847(5) 0.2424(5) 0.2504(5) 0.0312 Uani
C9 C 0.8970(5) 0.3399(5) 0.2822(5) 0.0342 Uani
H5 H 0.9543 0.3408 0.2833 0.0410 Uiso
N4 N 0.0785(4) 0.3819(5) -0.0847(5) 0.0402 Uani
C10 C 0.7791(5) 0.2645(5) 0.3030(5) 0.0327 Uani
H6 H 0.7562 0.2140 0.3179 0.0390 Uiso
C11 C 0.1509(5) 0.3224(5) 0.2323(5) 0.0314 Uani
C12 C 0.1070(5) 0.4353(6) 0.0787(6) 0.0345 Uani
C13 C 0.8627(5) 0.2617(5) 0.3011(5) 0.0295 Uani
C14 C 0.3754(5) 0.2417(5) 0.2485(5) 0.0324 Uani
C15 C 0.1219(5) 0.4665(5) 0.1640(6) 0.0368 Uani
H7 H 0.1821 0.4851 0.1888 0.0450 Uiso
H8 H 0.0852 0.5173 0.1615 0.0450 Uiso
C16 C 0.9001(5) 0.0941(5) 0.4300(6) 0.0426 Uani
C17 C 0.1192(5) 0.0846(5) 0.2754(6) 0.0305 Uani
C18 C 0.2364(5) 0.3201(5) 0.2323(5) 0.0359 Uani
H9 H 0.2613 0.3707 0.2201 0.0430 Uiso
C19 C 0.6371(5) 0.3388(5) 0.2844(6) 0.0361 Uani
C21 C 0.1139(5) 0.2461(5) 0.2464(5) 0.0365 Uani
H12 H 0.0562 0.2461 0.2441 0.0440 Uiso
C22 C 0.9593(5) 0.1415(4) 0.5693(5) 0.0439 Uani
H13 H 0.9887 0.1847 0.6064 0.0760 Uiso
C23 C 0.8754(5) 0.0245(4) 0.4614(5) 0.0389 Uani
H14 H 0.8423 -0.0173 0.4248 0.0690 Uiso
O10 O 0.4781(4) 0.4367(4) 0.3675(4) 0.0375 Uani
C24 C 0.1638(5) 0.4539(5) 0.0387(5) 0.0410 Uani
H15 H 0.2137 0.4867 0.0651 0.0650 Uiso
C25 C 0.8939(4) 0.0078(4) 0.5429(4) 0.0406 Uani
H16 H 0.8783 -0.0457 0.5596 0.0670 Uiso
C27 C 0.9436(4) 0.1564(4) 0.4858(4) 0.0429 Uani
H20 H 0.9626 0.2080 0.4688 0.0710 Uiso
C28 C 0.0372(5) 0.3839(5) 0.0354(5) 0.0415 Uani
H21 H -0.0019 0.3647 0.0597 0.0820 Uiso
C29 C 0.1483(5) 0.4249(4) -0.0399(4) 0.0409 Uani
H22 H 0.1905 0.4367 -0.0629 0.0590 Uiso
C30 C 0.0251(5) 0.3610(6) -0.0439(5) 0.0337 Uani
H23 H -0.0243 0.3281 -0.0718 0.0730 Uiso
Mn1A Mn 0.04187(7) -0.06644(8) 0.26662(9) 0.0350 Uani
Mn1C Mn 0.95813(7) 0.06644(8) 0.73338(9) 0.0350 Uani
Mn2A Mn 0.94977(7) 0.64904(8) 0.21831(8) 0.0326 Uani
Mn2C Mn 0.05023(7) 0.35096(8) -0.21831(8) 0.0326 Uani
O1A O 0.6610(3) 0.0652(3) 0.2785(4) 0.0316 Uani
O2A O 0.5374(3) -0.0024(4) 0.2587(4) 0.0352 Uani
O4A O 0.3392(3) 0.5151(3) 0.2135(4) 0.0335 Uani
O5A O 0.4616(3) 0.5858(4) 0.2330(4) 0.0374 Uani
N1C N 0.4346(4) 0.4309(4) 0.0983(5) 0.0372 Uani
N4C N 0.5785(4) 0.1181(5) 0.4153(5) 0.0402 Uani
C20 C 0.8419(9) 0.4566(9) 0.6142(8) 0.0438 Uani
H10 H 0.8882 0.4995 0.6233 0.1100 Uiso
H11 H 0.8484 0.4276 0.6654 0.1100 Uiso
C26 C 0.7756(5) 0.3298(4) 0.5394(5) 0.0407 Uani
H17 H 0.7863 0.2950 0.5878 0.0560 Uiso
H18 H 0.7756 0.2926 0.4951 0.0560 Uiso
H19 H 0.7199 0.3583 0.5258 0.0560 Uiso
N5 N 0.8425(5) 0.3949(4) 0.5537(5) 0.0373 Uani
C31 C 0.8387(4) 0.4367(4) 0.4786(4) 0.0414 Uani
H24 H 0.8812 0.4829 0.4902 0.0710 Uiso
H25 H 0.7816 0.4608 0.4520 0.0710 Uiso
H26 H 0.8509 0.3941 0.4434 0.0710 Uiso
N6 N 0.6882(4) 0.5296(4) 0.5553(5) 0.0340 Uani
C32 C 0.7566(5) 0.498(6) 0.579(5) 0.0380 Uani
N7 N 0.6885(4) 0.8003(3) 0.4901(4) 0.0398 Uani
N8 N 0.8417(4) 0.7203(4) 0.4319(4) 0.0298 Uani
C33 C 0.7855(5) 0.6500(5) 0.3864(5) 0.0432 Uani
H27 H 0.7480 0.6721 0.3345 0.0710 Uiso
H28 H 0.7508 0.6285 0.4167 0.0710 Uiso
H29 H 0.8206 0.6031 0.3779 0.0710 Uiso
C34 C 0.7351(3) 0.8012(4) 0.4605(4) 0.0422 Uani
C35 C 0.7960(5) 0.8019(4) 0.4159(5) 0.0380 Uani
H30 H 0.7645 0.8085 0.3578 0.0670 Uiso
H31 H 0.8366 0.8505 0.4341 0.0670 Uiso
C36 C 0.8697(4) 0.7022(4) 0.5176(4) 0.0368 Uani
H32 H 0.9129 0.7445 0.5468 0.0600 Uiso
H33 H 0.8944 0.6442 0.5279 0.0600 Uiso
H34 H 0.8207 0.7056 0.5356 0.0600 Uiso
loop_
_atom_site_aniso_label
_atom_site_aniso_U_11
_atom_site_aniso_U_22
_atom_site_aniso_U_33
_atom_site_aniso_U_23
_atom_site_aniso_U_13
_atom_site_aniso_U_12
Mn1 0.0219(6) 0.0219(6) 0.0672(9) 0.0021(5) 0.0230(6) 0.0027(4)
Mn2 0.0193(6) 0.0184(6) 0.0644(9) 0.0048(5) 0.0201(5) 0.0014(4)
O1 0.021 0.014 0.064 0.006 0.02 0.0035
O2 0.023 0.022 0.065 -0.003 0.021 -0.001
O3 0.031(3) 0.021(3) 0.068(4) 0.011(3) 0.023(3) -0.001(2)
O4 0.023 0.02 0.063 0.006 0.022 -0.001
O5 0.026 0.021 0.068 0.008 0.02 0.005
O6 0.023(3) 0.030(3) 0.065(4) 0.004(3) 0.022(3) 0.002(2)
O7 0.031(3) 0.017(3) 0.062(4) 0.007(3) 0.023(3) -0.001(2)
O8 0.022(3) 0.019(3) 0.058(4) 0.002(3) 0.021(3) 0.002(2)
N1 0.029 0.022 0.063 -0.003 0.019 -0.002
C1 0.019(3) 0.017(3) 0.049(5) -0.004(3) 0.013(3) 0.004(3)
O9 0.023(4) 0.033(4) 0.050(4) 0.007(3) 0.022(4) 0.002(3)
N2 0.025(3) 0.024(3) 0.080(5) 0.006(3) 0.021(3) 0.004(3)
C2 0.026(4) 0.019(4) 0.050(5) 0.003(3) 0.016(3) 0.003(3)
N3 0.039(4) 0.024(3) 0.056(5) 0.012(3) 0.018(4) 0.002(3)
C3 0.032 0.018 0.054 0.006 0.024 0.004
C4 0.029 0.015 0.066 0.005 0.024 0.002
C5 0.028 0.018 0.062 0.006 0.021 -0.001
C6 0.018 0.029 0.049 -0.012 0.016 -0.001
C7 0.015(3) 0.022(4) 0.050(5) -0.002(3) 0.014(3) -0.004(3)
C8 0.027(4) 0.023(4) 0.047(5) 0.006(3) 0.017(3) 0.001(3)
C9 0.025(4) 0.024(4) 0.053(5) -0.001(3) 0.013(4) -0.001(3)
N4 0.027 0.029 0.064 -0.004 0.015 0.001
C10 0.022(4) 0.020(4) 0.062(5) 0.006(3) 0.022(4) 0.001(3)
C11 0.029(4) 0.021(4) 0.050(5) 0.006(3) 0.021(4) 0.002(3)
C12 0.025(4) 0.029(4) 0.053(6) 0.008(4) 0.018(4) 0.002(3)
C13 0.026(4) 0.017(3) 0.050(5) 0.000(3) 0.019(3) 0.004(3)
C14 0.022(4) 0.018(4) 0.060(5) 0.003(3) 0.018(3) 0.000(3)
C15 0.029(4) 0.019(4) 0.068(6) 0.006(4) 0.024(4) 0.002(3)
C16 0.024 0.038 0.068 0.005 0.019 0.003
C17 0.023 0.018 0.059 -0.002 0.025 -0.001
C18 0.031(4) 0.019(4) 0.063(6) 0.006(4) 0.023(4) 0.002(3)
C19 0.024(4) 0.028(4) 0.062(5) 0.000(4) 0.022(4) -0.001(3)
C21 0.025 0.024 0.064 0.002 0.02 -0.001
C22 0.037 0.032 0.063 -0.005 0.018 -0.003
C23 0.031 0.03 0.055 -0.005 0.014 -0.004
O10 0.026(5) 0.031(5) 0.056(5) -0.006(4) 0.015(4) 0.003(4)
C24 0.033 0.031 0.059 0.003 0.016 0.002
C25 0.032 0.032 0.058 -0.002 0.016 -0.004
C27 0.036 0.033 0.057 0.006 0.013 -0.005
C28 0.03 0.037 0.06 0.001 0.019 -0.004
C29 0.028 0.033 0.062 -0.01 0.016 -0.005
C30 0.026 0.024 0.057 0.001 0.022 -0.003
Mn1A 0.0219 0.0219 0.0672 -0.0021 0.023 -0.0027
Mn1C 0.0219 0.0219 0.0672 -0.0021 0.023 -0.0027
Mn2A 0.0193 0.0184 0.0644 -0.0048 0.0201 -0.0014
Mn2C 0.0193 0.0184 0.0644 -0.0048 0.0201 -0.0014
O1A 0.021 0.014 0.064 -0.006 0.02 -0.0035
O2A 0.023 0.022 0.065 0.003 0.021 0.001
O4A 0.023 0.02 0.063 -0.006 0.022 0.001
O5A 0.026 0.021 0.068 -0.008 0.02 -0.005
N1C 0.029 0.022 0.063 0.003 0.019 0.002
N4C 0.027 0.029 0.064 0.004 0.015 -0.001
C20 0.036(5) 0.036(5) 0.061(5) 0.005(4) 0.019(4) 0.003(4)
C26 0.029(4) 0.033(3) 0.059(3) -0.007(2) 0.014(3) -0.003(3)
N5 0.027(3) 0.030(2) 0.059(3) -0.004(2) 0.020(3) -0.004(2)
C31 0.028(5) 0.036(5) 0.062(5) 0.007(4) 0.018(4) -0.002(4)
N6 0.024(6) 0.032(6) 0.050(6) -0.004(5) 0.018(5) -0.005(5)
C32 0.033(5) 0.028(5) 0.053(5) 0.010(4) 0.015(4) 0.003(4)
N7 0.031(5) 0.034(5) 0.056(5) -0.005(4) 0.017(4) 0.003(4)
N8 0.037(3) 0.030(2) 0.029(3) -0.004(2) 0.020(3) -0.004(2)
C33 0.029(4) 0.033(3) 0.069(3) -0.007(2) 0.019(3) -0.003(3)
C34 0.028(5) 0.036(5) 0.062(6) 0.007(4) 0.015(4) -0.002(4)
C35 0.028(4) 0.030(4) 0.059(4) -0.004(5) 0.019(5) -0.003(5)
C36 0.027(6) 0.031(6) 0.054(6) 0.005(5) 0.016(5) 0.003(5)
loop_
_geom_bond_atom_site_label_1
_geom_bond_atom_site_label_2
_geom_bond_site_symmetry_1
_geom_bond_site_symmetry_2
Mn1 O3 1_555 1_555
Mn2 O6 1_555 1_555
O1 C6 1_555 1_555
O2 C6 1_555 1_555
O3 C14 1_555 1_555
O4 C17 1_555 1_555
O5 C17 1_555 1_555
O6 C14 1_555 1_555
O7 Mn2 1_555 1_555
O8 Mn1 1_555 1_555
N1 C22 1_555 1_555
C1 C6 1_555 1_555
O9 Mn2 1_555 1_555
N2 H1 1_555 1_555
C2 C7 1_555 1_555
N3 H2 1_555 1_555
C3 N2 1_555 1_555
C4 C5 1_555 1_555
C5 H3 1_555 1_555
C7 C1 1_555 1_555
H4 C7 1_555 1_555
C8 C5 1_555 1_555
C9 C1 1_555 1_555
H5 C9 1_555 1_555
N4 C29 1_555 1_555
C10 C2 1_555 1_555
H6 C10 1_555 1_555
C11 N3 1_555 1_555
C12 C15 1_555 1_555
C13 N2 1_555 1_555
C14 C8 1_555 1_555
C15 N3 1_555 1_555
H7 C15 1_555 1_555
H8 C15 1_555 1_555
C16 C3 1_555 1_555
C17 C4 1_555 1_555
C18 C8 1_555 1_555
H9 C18 1_555 1_555
C19 O7 1_555 1_555
C20 H10 1_555 1_555
H11 C20 1_555 1_555
C21 C4 1_555 1_555
H12 C21 1_555 1_555
C22 H13 1_555 1_555
C23 C16 1_555 1_555
H14 C23 1_555 1_555
O10 Mn1 1_555 1_555
C24 C12 1_555 1_555
H15 C24 1_555 1_555
C25 N1 1_555 1_555
H16 C25 1_555 1_555
C26 H17 1_555 1_555
H18 C26 1_555 1_555
H19 C26 1_555 1_555
C27 C16 1_555 1_555
H20 C27 1_555 1_555
C28 C12 1_555 1_555
H21 C28 1_555 1_555
C29 C24 1_555 1_555
H22 C29 1_555 1_555
C30 N4 1_555 1_555
H23 C30 1_555 1_555
N5 C20 1_555 1_555
C31 N5 1_555 1_555
H24 C31 1_555 1_555
H25 C31 1_555 1_555
H26 C31 1_555 1_555
N6 C32 1_555 1_555
C32 C20 1_555 1_555
N7 C34 1_555 1_555
N8 C33 1_555 1_555
C33 H27 1_555 1_555
H28 C33 1_555 1_555
H29 C33 1_555 1_555
C34 C35 1_555 1_555
C35 N8 1_555 1_555
H30 C35 1_555 1_555
H31 C35 1_555 1_555
C36 N8 1_555 1_555
H32 C36 1_555 1_555
H33 C36 1_555 1_555
H34 C36 1_555 1_555
Mn1A O4 1_555 1_555
Mn1C N1 1_555 1_555
Mn2A O1 1_555 1_555
Mn2C N4 1_555 1_555
O1A Mn2 1_555 1_555
O2A Mn2 1_555 1_555
O4A Mn1 1_555 1_555
O5A Mn1 1_555 1_555
N1C Mn1 1_555 1_555
N4C Mn2 1_555 1_555
O2 Mn2A 1_555 1_555
O5 Mn1A 1_555 1_555
O8 C19 1_555 1_555
C2 C19 1_555 1_555
C9 C13 1_555 1_555
C10 C13 1_555 1_555
C11 C18 1_555 1_555
C11 C21 1_555 1_555
C22 C27 1_555 1_555
C23 C25 1_555 1_555
C26 N5 1_555 1_555
C28 C30 1_555 1_555

#END
