
#######################################################################
#
#                 Cambridge Crystallographic Data Centre
#                                CCDC 
#
#######################################################################
#
# If this CIF has been generated from an entry in the Cambridge 
# Structural Database, then it will include bibliographic, chemical, 
# crystal, experimental, refinement or atomic coordinate data resulting 
# from the CCDC's data processing and validation procedures.
#
#######################################################################

data_BUBDIL
_chemical_formula_moiety         'C30 H5 K1 Mn1 O3'
_symmetry_cell_setting           hexagonal
_symmetry_space_group_name_H-M   'P 63'
_symmetry_Int_Tables_number      173
_space_group_name_Hall           'P 6c'
loop_
_symmetry_equiv_pos_site_id
_symmetry_equiv_pos_as_xyz
1 x,y,z
2 -y,x-y,z
3 -x+y,-x,z
4 -x,-y,1/2+z
5 y,-x+y,1/2+z
6 x-y,x,1/2+z
_cell_length_a                   9.0860(13)
_cell_length_b                   9.0860(13)
_cell_length_c                   19.164(4)
_cell_angle_alpha                90
_cell_angle_beta                 90
_cell_angle_gamma                120
_cell_volume                     1370.13
loop_
_atom_site_label
_atom_site_type_symbol
_atom_site_fract_x
_atom_site_fract_y
_atom_site_fract_z
Mn1 Mn 0.3333 0.6667 0.44584(15)
K1 K 1.0000 1.0000 0.4247(2)
C1 C 0.6212(6) 0.7714(7) 0.4102(4)
H1 H 0.6072(6) 0.6870(7) 0.3790(4)
C2 C 0.6541(8) 0.9369(8) 0.3923(5)
H2 H 0.6656(12) 0.9798(13) 0.3474(5)
C3 C 0.6666(8) 1.0253(7) 0.4552(6)
H3 H 0.6876(11) 1.1362(7) 0.4586(8)
C4 C 0.6413(9) 0.9144(11) 0.5119(5)
H4 H 0.6429(13) 0.9401(15) 0.5590(5)
C5 C 0.6133(7) 0.7576(9) 0.4841(4)
H5 H 0.5932(11) 0.6625(11) 0.5098(5)
O1 O 0.9943(7) 0.9938(9) 0.2705(4)
C11 C 0.9599(15) 1.0134(14) 0.2441(6)
C12 C 1.0299(15) 1.1356(13) 0.1603(6)
C13 C 0.9155(14) 1.0216(12) 0.1621(6)
C14 C 1.0478(16) 1.1384(14) 0.2288(6)
C1A C 0.2286(7) 0.8498(9) 0.4102(4)
C1B C 0.1502(9) 0.3788(6) 0.4102(4)
C5A C 0.2424(9) 0.8557(11) 0.4841(4)
C5B C 0.1443(11) 0.3867(7) 0.4841(4)
C1A_2 C 1.2286(7) 0.8498(9) 0.4102(4)
C1B_2 C 1.1502(9) 1.3788(6) 0.4102(4)
C2A C 1.0631(8) 0.7172(11) 0.3923(5)
C2B C 1.2828(11) 1.3459(8) 0.3923(5)
C3A C 0.9747(7) 0.6413(11) 0.4552(6)
C3B C 1.3587(11) 1.3334(8) 0.4552(6)
C4A C 1.0856(11) 0.7269(14) 0.5119(5)
C4B C 1.2731(14) 1.3587(9) 0.5119(5)
C5A_2 C 1.2424(9) 0.8557(11) 0.4841(4)
C5B_2 C 1.1443(11) 1.3867(7) 0.4841(4)
O1A O 1.0062(9) 1.0005(11) 0.2705(4)
O1B O 0.9995(11) 1.0057(7) 0.2705(4)
C11A C 0.9866(14) 0.9465(21) 0.2441(6)
C11B C 1.0535(21) 1.0401(15) 0.2441(6)
C14A C 0.8616(14) 0.9094(21) 0.2288(6)
C14B C 1.0906(21) 0.9522(16) 0.2288(6)
C13B C 1.1061(18) 1.0845(14) 0.1621(6)
C13A C 0.9784(12) 0.8939(18) 0.1621(6)
C12A C 0.8644(13) 0.8943(20) 0.1603(6)
loop_
_geom_bond_atom_site_label_1
_geom_bond_atom_site_label_2
_geom_bond_site_symmetry_1
_geom_bond_site_symmetry_2
Mn1 C1 1_555 1_555
K1 C1 1_555 1_555
C1 H1 1_555 1_555
C2 K1 1_555 1_555
H2 C2 1_555 1_555
C3 K1 1_555 1_555
H3 C3 1_555 1_555
C4 K1 1_555 1_555
H4 C4 1_555 1_555
C5 Mn1 1_555 1_555
H5 C5 1_555 1_555
O1 K1 1_555 1_555
C11 O1 1_555 1_555
C12 C11 1_555 1_555
C13 C11 1_555 1_555
C14 O1 1_555 1_555
C1A Mn1 1_555 1_555
C1B Mn1 1_555 1_555
C5A Mn1 1_555 1_555
C5B Mn1 1_555 1_555
C1A_2 K1 1_555 1_555
C1B_2 K1 1_555 1_555
C2A K1 1_555 1_555
C2B K1 1_555 1_555
C3A K1 1_555 1_555
C3B K1 1_555 1_555
C4A K1 1_555 1_555
C4B K1 1_555 1_555
C5A_2 K1 1_555 1_555
C5B_2 K1 1_555 1_555
O1A K1 1_555 1_555
O1B K1 1_555 1_555
C11A O1 1_555 1_555
C11B O1 1_555 1_555
C14A O1 1_555 1_555
C14B O1 1_555 1_555
C13B C12 1_555 1_555
C13A C13 1_555 1_555
C12A C13 1_555 1_555
K1 C5 1_555 1_555
C1 C2 1_555 1_555
C1 C5 1_555 1_555
C2 C3 1_555 1_555
C3 C4 1_555 1_555
C4 C5 1_555 1_555
O1 O1A 1_555 1_555
O1 O1B 1_555 1_555
C11 C11A 1_555 1_555
C11 C11B 1_555 1_555
C11 C14 1_555 1_555
C11 C14A 1_555 1_555
C11 C14B 1_555 1_555
C11 O1B 1_555 1_555
C11 O1A 1_555 1_555
C12 C13 1_555 1_555
C12 C14 1_555 1_555
C13 C13B 1_555 1_555
C13 C14A 1_555 1_555
C13 C14 1_555 1_555
C14 O1B 1_555 1_555
C14 O1A 1_555 1_555
C14 C11B 1_555 1_555
C14 C11A 1_555 1_555
C14 C13B 1_555 1_555
C1A C5A 1_555 1_555
C1B C5B 1_555 1_555
C1A_2 C2A 1_555 1_555
C1A_2 C5A_2 1_555 1_555
C1B_2 C2B 1_555 1_555
C1B_2 C5B_2 1_555 1_555
C2A C3A 1_555 1_555
C2B C3B 1_555 1_555
C3A C4A 1_555 1_555
C3B C4B 1_555 1_555
C4A C5A_2 1_555 1_555
C4B C5B_2 1_555 1_555
O1A O1B 1_555 1_555
O1A C11A 1_555 1_555
O1A C11B 1_555 1_555
O1A C14A 1_555 1_555
O1A C14B 1_555 1_555
O1B C11B 1_555 1_555
O1B C11A 1_555 1_555
O1B C14B 1_555 1_555
O1B C14A 1_555 1_555
C11A C11B 1_555 1_555
C11A C12A 1_555 1_555
C11A C13A 1_555 1_555
C11A C14A 1_555 1_555
C11A C14B 1_555 1_555
C11B C13B 1_555 1_555
C11B C14B 1_555 1_555
C11B C14A 1_555 1_555
C14A C12A 1_555 1_555
C14A C13A 1_555 1_555
C14B C13A 1_555 1_555
C14B C13B 1_555 1_555
C13B C13A 1_555 1_555
C13A C12A 1_555 1_555

#END
