
#######################################################################
#
#                 Cambridge Crystallographic Data Centre
#                                CCDC 
#
#######################################################################
#
# If this CIF has been generated from an entry in the Cambridge 
# Structural Database, then it will include bibliographic, chemical, 
# crystal, experimental, refinement or atomic coordinate data resulting 
# from the CCDC's data processing and validation procedures.
#
#######################################################################

data_BIGZUO
_chemical_formula_moiety         'C30 H26 Ag3 Cr7 N6 O24'
_symmetry_cell_setting           hexagonal
_symmetry_space_group_name_H-M   'P 63/m m c'
_symmetry_Int_Tables_number      194
_space_group_name_Hall           '-P 6c 2c'
loop_
_symmetry_equiv_pos_site_id
_symmetry_equiv_pos_as_xyz
1 x,y,z
2 -x,-y,1/2+z
3 -y,x-y,z
4 -x+y,-x,z
5 x-y,x,1/2+z
6 y,-x+y,1/2+z
7 x-y,-y,-z
8 -x,-x+y,-z
9 y,x,-z
10 -y,-x,1/2-z
11 x,x-y,1/2-z
12 -x+y,y,1/2-z
13 -x,-y,-z
14 x,y,1/2-z
15 y,-x+y,-z
16 x-y,x,-z
17 -x+y,-x,1/2-z
18 -y,x-y,1/2-z
19 -x+y,y,z
20 x,x-y,z
21 -y,-x,z
22 y,x,1/2+z
23 -x,-x+y,1/2+z
24 x-y,-y,1/2+z
_cell_length_a                   44.391(9)
_cell_length_b                   44.391(9)
_cell_length_c                   23.258(5)
_cell_angle_alpha                90
_cell_angle_beta                 90
_cell_angle_gamma                120
_cell_volume                     39691.1
loop_
_atom_site_label
_atom_site_type_symbol
_atom_site_fract_x
_atom_site_fract_y
_atom_site_fract_z
O7 O 0.9110(9) 0.4555(5) 0.3173(15)
O8 O 0.8428(8) 0.4214(4) 0.3808(11)
O9 O 0.6272(11) 0.0000 0.0000
Ag1 Ag 0.85253(13) 0.42627(6) 0.2500
Ag2 Ag 0.70264(11) 0.0000 0.0000
Cr1 Cr 0.83156(9) 0.16844(9) 0.2500
Cr2 Cr 0.79487(6) 0.20513(6) 0.1798(2)
O1 O 0.8079(3) 0.1921(3) 0.2500
O2 O 0.78145(19) 0.21855(19) 0.0996(7)
O3 O 0.8590(3) 0.1410(3) 0.2500
O4 O 0.8087(3) 0.2537(3) 0.2010(5)
C1 C 0.8134(8) 0.2660(8) 0.2500
C2 C 0.8254(6) 0.3045(7) 0.2500
C3 C 0.8293(4) 0.3210(5) 0.3012(4)
H1 H 0.8262 0.3090 0.3364
C4 C 0.8380(6) 0.3555(5) 0.3009(4)
H2 H 0.8404 0.3675 0.3359
N1 N 0.8430(7) 0.3718(6) 0.2500
O5 O 0.8013(4) 0.1347(3) 0.1908(7)
O6 O 0.7764(3) 0.1591(3) 0.1428(6)
C5 C 0.7820(6) 0.1349(6) 0.1514(10)
C6 C 0.7615(5) 0.1020(5) 0.1178(8)
C7 C 0.7391(6) 0.1022(7) 0.0794(10)
H3 H 0.7357 0.1216 0.0755
C8 C 0.7214(6) 0.0732(7) 0.0460(11)
H4 H 0.7054 0.0721 0.0178
N2 N 0.7268(7) 0.0454(6) 0.0534(11)
C9 C 0.7507(7) 0.0479(6) 0.0928(12)
H5 H 0.7547 0.0289 0.0969
C10 C 0.7695(6) 0.0770(6) 0.1271(11)
H6 H 0.7863 0.0790 0.1544
O4M O 0.8087(3) 0.2537(3) 0.2990(5)
C3M C 0.8293(4) 0.3210(5) 0.1988(4)
H1M H 0.8262 0.3090 0.1636
C4M C 0.8380(6) 0.3555(5) 0.1991(4)
H2M H 0.8404 0.3675 0.1641
Cr2F Cr 0.58974(8) -0.20513(6) -0.1798(2)
O2F O 0.56290(27) -0.21855(19) -0.0996(7)
O5F O 0.6666(5) -0.1347(3) -0.1908(7)
O6F O 0.6173(4) -0.1591(3) -0.1428(6)
C5F C 0.6471(8) -0.1349(6) -0.1514(10)
C6F C 0.6595(7) -0.1020(5) -0.1178(8)
C7F C 0.6369(9) -0.1022(7) -0.0794(10)
H3F H 0.6141 -0.1216 -0.0755
C8F C 0.6482(9) -0.0732(7) -0.0460(11)
H4F H 0.6333 -0.0721 -0.0178
N2F N 0.6814(9) -0.0454(6) -0.0534(11)
C9F C 0.7028(9) -0.0479(6) -0.0928(12)
H5F H 0.7258 -0.0289 -0.0969
C10F C 0.6925(8) -0.0770(6) -0.1271(11)
H6F H 0.7073 -0.0790 -0.1544
O4S O 0.8087(3) 0.5550(4) 0.2010(5)
C1J C 0.8134(8) 0.5474(11) 0.2500
C2J C 0.8254(6) 0.5209(9) 0.2500
C3S C 0.8293(4) 0.5083(6) 0.3012(4)
H1S H 0.8262 0.5172 0.3364
C4S C 0.8380(6) 0.4825(8) 0.3009(4)
H2S H 0.8404 0.4729 0.3359
N1J N 0.8430(7) 0.4712(9) 0.2500
O4J O 0.8087(3) 0.5550(4) 0.2990(5)
C3J C 0.8293(4) 0.5083(6) 0.1988(4)
H1J H 0.8262 0.5172 0.1636
C4J C 0.8380(6) 0.4825(8) 0.1991(4)
H2J H 0.8404 0.4729 0.1641
O5T O 0.8653(3) 0.1987(4) 0.1908(7)
O6T O 0.8409(3) 0.2236(3) 0.1428(6)
C5T C 0.8651(6) 0.2180(6) 0.1514(10)
C6T C 0.8980(5) 0.2385(5) 0.1178(8)
C7T C 0.8978(7) 0.2609(6) 0.0794(10)
H3T H 0.8784 0.2643 0.0755
C8T C 0.9268(7) 0.2786(6) 0.0460(11)
H4T H 0.9279 0.2946 0.0178
N2T N 0.9546(6) 0.2732(7) 0.0534(11)
C9T C 0.9521(6) 0.2493(7) 0.0928(12)
H5T H 0.9711 0.2453 0.0969
C10T C 0.9230(6) 0.2305(6) 0.1271(11)
H6T H 0.9210 0.2137 0.1544
Ag2N Ag 1.0000 0.29736(11) 0.0000
Cr1D Cr 0.66312(13) -0.16844(9) -0.2500
Cr2B Cr 0.79487(6) 0.58974(8) 0.1798(2)
Cr2I Cr 0.79487(6) 0.20513(6) 0.3202(2)
Cr2J Cr 0.79487(6) 0.58974(8) 0.3202(2)
O1D O 0.6158(4) -0.1921(3) -0.2500
O4F O 0.5550(4) -0.2537(3) -0.2010(5)
O4O O 0.5550(4) -0.1913(3) -0.2010(5)
O4T O 0.7463(3) 0.1913(3) 0.2010(5)
O5I O 0.8653(3) 0.1987(4) 0.3092(7)
O5M O 0.8013(4) 0.1347(3) 0.3092(7)
O6O O 0.6173(4) -0.2236(3) -0.1428(6)
N2N N 1.0454(6) 0.3186(9) -0.0534(11)
loop_
_geom_bond_atom_site_label_1
_geom_bond_atom_site_label_2
_geom_bond_site_symmetry_1
_geom_bond_site_symmetry_2
Ag1 N1 1_555 1_555
Ag2 N2 1_555 1_555
Cr1 O1 1_555 1_555
Cr2 O1 1_555 1_555
O1 Cr2I 1_555 1_555
O2 Cr2 1_555 1_555
O3 Cr1 1_555 1_555
O4 Cr2 1_555 1_555
C1 O4 1_555 1_555
C2 C1 1_555 1_555
C3 C2 1_555 1_555
H1 C3 1_555 1_555
C4 C3 1_555 1_555
H2 C4 1_555 1_555
N1 C4 1_555 1_555
O5 Cr1 1_555 1_555
O6 Cr2 1_555 1_555
C5 O5 1_555 1_555
C6 C5 1_555 1_555
C7 C6 1_555 1_555
H3 C7 1_555 1_555
C8 C7 1_555 1_555
H4 C8 1_555 1_555
N2 C8 1_555 1_555
C9 N2 1_555 1_555
H5 C9 1_555 1_555
C10 C6 1_555 1_555
H6 C10 1_555 1_555
O4M C1 1_555 1_555
C3M C2 1_555 1_555
H1M C3M 1_555 1_555
C4M N1 1_555 1_555
H2M C4M 1_555 1_555
Cr2F O2F 1_555 1_555
O5F C5F 1_555 1_555
O6F Cr2F 1_555 1_555
C5F O6F 1_555 1_555
C6F C5F 1_555 1_555
C7F C6F 1_555 1_555
H3F C7F 1_555 1_555
C8F C7F 1_555 1_555
H4F C8F 1_555 1_555
N2F Ag2 1_555 1_555
C9F N2F 1_555 1_555
H5F C9F 1_555 1_555
C10F C6F 1_555 1_555
H6F C10F 1_555 1_555
O4S C1J 1_555 1_555
C1J C2J 1_555 1_555
C2J C3S 1_555 1_555
C3S H1S 1_555 1_555
C4S C3S 1_555 1_555
H2S C4S 1_555 1_555
N1J Ag1 1_555 1_555
O4J C1J 1_555 1_555
C3J C2J 1_555 1_555
H1J C3J 1_555 1_555
C4J N1J 1_555 1_555
H2J C4J 1_555 1_555
O5T Cr1 1_555 1_555
O6T Cr2 1_555 1_555
C5T O5T 1_555 1_555
C6T C5T 1_555 1_555
C7T C6T 1_555 1_555
H3T C7T 1_555 1_555
C8T C7T 1_555 1_555
H4T C8T 1_555 1_555
N2T C8T 1_555 1_555
C9T N2T 1_555 1_555
H5T C9T 1_555 1_555
C10T C6T 1_555 1_555
H6T C10T 1_555 1_555
Ag2N N2T 1_555 1_555
Cr1D O5F 1_555 1_555
Cr2B O4S 1_555 1_555
Cr2I O4M 1_555 1_555
Cr2J O4J 1_555 1_555
O1D Cr2F 1_555 1_555
O4F Cr2F 1_555 1_555
O4O Cr2F 1_555 1_555
O4T Cr2 1_555 1_555
O5I Cr1 1_555 1_555
O5M Cr1 1_555 1_555
O6O Cr2F 1_555 1_555
N2N Ag2N 1_555 1_555
O6 C5 1_555 1_555
C9 C10 1_555 1_555
C3M C4M 1_555 1_555
C8F N2F 1_555 1_555
C9F C10F 1_555 1_555
C4S N1J 1_555 1_555
C3J C4J 1_555 1_555
O6T C5T 1_555 1_555
C9T C10T 1_555 1_555
Cr1D O1D 1_555 1_555

#END
