
#######################################################################
#
#                 Cambridge Crystallographic Data Centre
#                                CCDC 
#
#######################################################################
#
# If this CIF has been generated from an entry in the Cambridge 
# Structural Database, then it will include bibliographic, chemical, 
# crystal, experimental, refinement or atomic coordinate data resulting 
# from the CCDC's data processing and validation procedures.
#
#######################################################################

data_BIHBAX
_chemical_formula_moiety         '(C72 H60 Ag6 Cr6 N12 O32 8+)n'
_symmetry_cell_setting           tetragonal
_symmetry_space_group_name_H-M   'P 41 21 2'
_symmetry_Int_Tables_number      92
_space_group_name_Hall           'P 4abw 2nw'
loop_
_symmetry_equiv_pos_site_id
_symmetry_equiv_pos_as_xyz
1 x,y,z
2 -x,-y,1/2+z
3 1/2-y,1/2+x,1/4+z
4 1/2+y,1/2-x,3/4+z
5 1/2-x,1/2+y,1/4-z
6 1/2+x,1/2-y,3/4-z
7 y,x,-z
8 -y,-x,1/2-z
_cell_length_a                   24.620(6)
_cell_length_b                   24.620(6)
_cell_length_c                   83.68(2)
_cell_angle_alpha                90
_cell_angle_beta                 90
_cell_angle_gamma                90
_cell_volume                     50722.2
loop_
_atom_site_label
_atom_site_type_symbol
_atom_site_fract_x
_atom_site_fract_y
_atom_site_fract_z
Cr1 Cr 0.78735(19) 0.29120(19) 0.01820(5)
Cr2 Cr 0.8441(2) 0.27463(19) 0.05395(5)
Cr3 Cr 0.7138(2) 0.2965(2) 0.05030(6)
Ag1 Ag 1.00456(13) 0.00456(13) 0.0000
Ag2 Ag 0.59376(14) 0.59376(14) 0.0000
Ag3 Ag 0.79051(18) 0.51751(15) 0.13078(4)
Ag4 Ag 1.06967(15) 0.51908(16) 0.01079(5)
O1 O 0.8024(5) 0.2995(5) -0.00569(14)
O2 O 0.6366(10) 0.3139(10) 0.0622(2)
O3 O 0.9122(6) 0.2563(5) 0.06888(15)
O4 O 0.7742(8) 0.2886(6) 0.0400(2)
O5 O 0.7447(7) 0.3592(7) 0.01856(18)
O6 O 0.6902(6) 0.3604(6) 0.03852(17)
C1 C 0.7055(9) 0.3795(7) 0.0258(3)
C2 C 0.6793(6) 0.4302(4) 0.01985(17)
C3 C 0.6403(6) 0.4569(6) 0.02904(15)
H1 H 0.6294 0.4424 0.0391
C4 C 0.6175(6) 0.5050(6) 0.0235(2)
H2 H 0.5901 0.5221 0.0296
N1 N 0.6327(7) 0.5279(5) 0.0097(2)
C5 C 0.6710(7) 0.5030(6) 0.00103(16)
H3 H 0.6826 0.5193 -0.0087
C6 C 0.6947(6) 0.4542(6) 0.00566(16)
H4 H 0.7213 0.4375 -0.0009
O7 O 0.7413(7) 0.3343(7) 0.0676(2)
O8 O 0.8291(7) 0.3301(6) 0.07075(16)
C7 C 0.7828(8) 0.3495(6) 0.07345(16)
C8 C 0.7837(7) 0.3952(5) 0.08484(14)
C9 C 0.7382(6) 0.4271(6) 0.08813(17)
H5 H 0.7062 0.4234 0.0819
C10 C 0.7401(6) 0.4644(6) 0.10060(18)
H6 H 0.7094 0.4868 0.1025
N2 N 0.7837(7) 0.4699(6) 0.11000(16)
C11 C 0.8268(6) 0.4385(7) 0.10709(16)
H7 H 0.8577 0.4416 0.1138
C12 C 0.8284(6) 0.4013(6) 0.09460(16)
H8 H 0.8601 0.3801 0.0928
O9 O 0.8891(6) 0.3261(6) 0.04399(17)
O10 O 0.8486(7) 0.3331(7) 0.02013(19)
C13 C 0.8853(8) 0.3452(7) 0.0305(2)
C14 C 0.9263(7) 0.3866(6) 0.0250(2)
C15 C 0.9705(8) 0.4001(8) 0.03462(16)
H9 H 0.9751 0.3832 0.0448
C16 C 1.0079(6) 0.4383(8) 0.0293(2)
H10 H 1.0372 0.4480 0.0361
N3 N 1.0041(8) 0.4617(6) 0.0149(3)
C17 C 0.9624(9) 0.4479(7) 0.00553(18)
H11 H 0.9598 0.4639 -0.0048
C18 C 0.9227(7) 0.4110(8) 0.01022(19)
H12 H 0.8933 0.4028 0.0033
O11 O 0.7187(7) 0.2341(7) 0.06426(17)
O12 O 0.8029(8) 0.2208(8) 0.06520(18)
C19 C 0.7565(9) 0.2097(6) 0.06902(19)
C20 C 0.7504(7) 0.1613(6) 0.07903(17)
C21 C 0.6995(6) 0.1461(7) 0.0848(2)
H13 H 0.6681 0.1663 0.0820
C22 C 0.6950(8) 0.1012(8) 0.0948(2)
H14 H 0.6603 0.0920 0.0990
N4 N 0.7378(11) 0.0706(6) 0.09876(17)
C23 C 0.7864(9) 0.0844(6) 0.0929(2)
H15 H 0.8169 0.0624 0.0955
C24 C 0.7942(6) 0.1295(7) 0.0832(2)
H16 H 0.8296 0.1383 0.0794
O13 O 0.7245(6) 0.2480(6) 0.01400(15)
O14 O 0.6812(7) 0.2463(6) 0.0361(2)
C25 C 0.6860(7) 0.2320(6) 0.0221(2)
C26 C 0.6446(6) 0.1955(6) 0.01528(16)
C27 C 0.6505(6) 0.1748(6) -0.00014(16)
H17 H 0.6817 0.1838 -0.0063
C28 C 0.6107(8) 0.1410(6) -0.00642(16)
H18 H 0.6146 0.1282 -0.0171
N5 N 0.5670(7) 0.1259(6) 0.0020(2)
C29 C 0.5619(6) 0.1447(7) 0.0169(2)
H19 H 0.5314 0.1336 0.0230
C30 C 0.5994(6) 0.1797(7) 0.02384(15)
H20 H 0.5940 0.1926 0.0344
O15 O 0.8272(6) 0.2241(6) 0.01615(16)
O16 O 0.8662(6) 0.2129(6) 0.03943(19)
C31 C 0.8590(7) 0.2002(6) 0.0254(2)
C32 C 0.8909(5) 0.1535(4) 0.01888(18)
C33 C 0.9320(6) 0.1299(7) 0.02801(13)
H21 H 0.9391 0.1426 0.0385
C34 C 0.9625(5) 0.0877(6) 0.0216(2)
H22 H 0.9912 0.0727 0.0278
N6 N 0.9529(6) 0.0673(5) 0.0071(2)
C35 C 0.9127(7) 0.0890(6) -0.00153(15)
H23 H 0.9052 0.0743 -0.0118
C36 C 0.8813(5) 0.1322(6) 0.00390(17)
H24 H 0.8535 0.1469 -0.0027
Cr1F Cr 0.29120(19) 0.78735(19) -0.01820(5)
Cr2F Cr 0.27463(19) 0.8441(2) -0.05395(5)
Cr3F Cr 0.2965(2) 0.7138(2) -0.05030(6)
Ag3F Ag 0.51751(15) 0.79051(18) -0.13078(4)
Ag4F Ag 0.51908(16) 1.06967(15) -0.01079(5)
O1F O 0.2995(5) 0.8024(5) 0.00569(14)
O2F O 0.3139(10) 0.6366(10) -0.0622(2)
O3F O 0.2563(5) 0.9122(6) -0.06888(15)
O4F O 0.2886(6) 0.7742(8) -0.0400(2)
O5F O 0.3592(7) 0.7447(7) -0.01856(18)
O6F O 0.3604(6) 0.6902(6) -0.03852(17)
C1F C 0.3795(7) 0.7055(9) -0.0258(3)
C2F C 0.4302(4) 0.6793(6) -0.01985(17)
C3F C 0.4569(6) 0.6403(6) -0.02904(15)
H1F H 0.4424 0.6294 -0.0391
C4F C 0.5050(6) 0.6175(6) -0.0235(2)
H2F H 0.5221 0.5901 -0.0296
N1F N 0.5279(5) 0.6327(7) -0.0097(2)
C5F C 0.5030(6) 0.6710(7) -0.00103(16)
H3F H 0.5193 0.6826 0.0087
C6F C 0.4542(6) 0.6947(6) -0.00566(16)
H4F H 0.4375 0.7213 0.0009
O7F O 0.3343(7) 0.7413(7) -0.0676(2)
O8F O 0.3301(6) 0.8291(7) -0.07075(16)
C7F C 0.3495(6) 0.7828(8) -0.07345(16)
C8F C 0.3952(5) 0.7837(7) -0.08484(14)
C9F C 0.4271(6) 0.7382(6) -0.08813(17)
H5F H 0.4234 0.7062 -0.0819
C10F C 0.4644(6) 0.7401(6) -0.10060(18)
H6F H 0.4868 0.7094 -0.1025
N2F N 0.4699(6) 0.7837(7) -0.11000(16)
C11F C 0.4385(7) 0.8268(6) -0.10709(16)
H7F H 0.4416 0.8577 -0.1138
C12F C 0.4013(6) 0.8284(6) -0.09460(16)
H8F H 0.3801 0.8601 -0.0928
O9F O 0.3261(6) 0.8891(6) -0.04399(17)
O10F O 0.3331(7) 0.8486(7) -0.02013(19)
C13F C 0.3452(7) 0.8853(8) -0.0305(2)
C14F C 0.3866(6) 0.9263(7) -0.0250(2)
C15F C 0.4001(8) 0.9705(8) -0.03462(16)
H9F H 0.3832 0.9751 -0.0448
C16F C 0.4383(8) 1.0079(6) -0.0293(2)
H10F H 0.4480 1.0372 -0.0361
N3F N 0.4617(6) 1.0041(8) -0.0149(3)
C17F C 0.4479(7) 0.9624(9) -0.00553(18)
H11F H 0.4639 0.9598 0.0048
C18F C 0.4110(8) 0.9227(7) -0.01022(19)
H12F H 0.4028 0.8933 -0.0033
O11F O 0.2341(7) 0.7187(7) -0.06426(17)
O12F O 0.2208(8) 0.8029(8) -0.06520(18)
C19F C 0.2097(6) 0.7565(9) -0.06902(19)
C20F C 0.1613(6) 0.7504(7) -0.07903(17)
C21F C 0.1461(7) 0.6995(6) -0.0848(2)
H13F H 0.1663 0.6681 -0.0820
C22F C 0.1012(8) 0.6950(8) -0.0948(2)
H14F H 0.0920 0.6603 -0.0990
N4F N 0.0706(6) 0.7378(11) -0.09876(17)
C23F C 0.0844(6) 0.7864(9) -0.0929(2)
H15F H 0.0624 0.8169 -0.0955
C24F C 0.1295(7) 0.7942(6) -0.0832(2)
H16F H 0.1383 0.8296 -0.0794
O13F O 0.2480(6) 0.7245(6) -0.01400(15)
O14F O 0.2463(6) 0.6812(7) -0.0361(2)
C25F C 0.2320(6) 0.6860(7) -0.0221(2)
C26F C 0.1955(6) 0.6446(6) -0.01528(16)
C27F C 0.1748(6) 0.6505(6) 0.00014(16)
H17F H 0.1838 0.6817 0.0063
C28F C 0.1410(6) 0.6107(8) 0.00642(16)
H18F H 0.1282 0.6146 0.0171
N5F N 0.1259(6) 0.5670(7) -0.0020(2)
C29F C 0.1447(7) 0.5619(6) -0.0169(2)
H19F H 0.1336 0.5314 -0.0230
C30F C 0.1797(7) 0.5994(6) -0.02384(15)
H20F H 0.1926 0.5940 -0.0344
O15F O 0.2241(6) 0.8272(6) -0.01615(16)
O16F O 0.2129(6) 0.8662(6) -0.03943(19)
C31F C 0.2002(6) 0.8590(7) -0.0254(2)
C32F C 0.1535(4) 0.8909(5) -0.01888(18)
C33F C 0.1299(7) 0.9320(6) -0.02801(13)
H21F H 0.1426 0.9391 -0.0385
C34F C 0.0877(6) 0.9625(5) -0.0216(2)
H22F H 0.0727 0.9912 -0.0278
N6F N 0.0673(5) 0.9529(6) -0.0071(2)
C35F C 0.0890(6) 0.9127(7) 0.00153(15)
H23F H 0.0743 0.9052 0.0118
C36F C 0.1322(6) 0.8813(5) -0.00390(17)
H24F H 0.1469 0.8535 0.0027
Ag1_2 Ag 0.00456(13) 1.00456(13) 0.0000
Ag3C Ag 0.01751(15) 0.70949(18) -0.11922(4)
Ag3D Ag 0.70949(18) 0.01751(15) 0.11922(4)
Ag4_2 Ag 0.06967(15) 0.51908(16) 0.01079(5)
Ag4F_2 Ag 0.51908(16) 0.06967(15) -0.01079(5)
N4C N 0.5706(6) 0.7622(11) -0.15124(17)
N4D N 0.7622(11) 0.5706(6) 0.15124(17)
N5_2 N 0.5670(7) 1.1259(6) 0.0020(2)
N5F_2 N 1.1259(6) 0.5670(7) -0.0020(2)
N6F_2 N 1.0673(5) -0.0471(6) -0.0071(2)
loop_
_geom_bond_atom_site_label_1
_geom_bond_atom_site_label_2
_geom_bond_site_symmetry_1
_geom_bond_site_symmetry_2
Cr1 O1 1_555 1_555
Cr2 O3 1_555 1_555
Cr3 O2 1_555 1_555
Ag1 N6 1_555 1_555
Ag2 N1 1_555 1_555
Ag3 N2 1_555 1_555
Ag4 N3 1_555 1_555
O4 Cr1 1_555 1_555
O5 Cr1 1_555 1_555
O6 Cr3 1_555 1_555
C1 O5 1_555 1_555
C2 C1 1_555 1_555
C3 C2 1_555 1_555
H1 C3 1_555 1_555
C4 C3 1_555 1_555
H2 C4 1_555 1_555
N1 C4 1_555 1_555
C5 N1 1_555 1_555
H3 C5 1_555 1_555
C6 C2 1_555 1_555
H4 C6 1_555 1_555
O7 Cr3 1_555 1_555
O8 Cr2 1_555 1_555
C7 O7 1_555 1_555
C8 C7 1_555 1_555
C9 C8 1_555 1_555
H5 C9 1_555 1_555
C10 C9 1_555 1_555
H6 C10 1_555 1_555
N2 C10 1_555 1_555
C11 N2 1_555 1_555
H7 C11 1_555 1_555
C12 C8 1_555 1_555
H8 C12 1_555 1_555
O9 Cr2 1_555 1_555
O10 Cr1 1_555 1_555
C13 O9 1_555 1_555
C14 C13 1_555 1_555
C15 C14 1_555 1_555
H9 C15 1_555 1_555
C16 C15 1_555 1_555
H10 C16 1_555 1_555
N3 C16 1_555 1_555
C17 N3 1_555 1_555
H11 C17 1_555 1_555
C18 C14 1_555 1_555
H12 C18 1_555 1_555
O11 Cr3 1_555 1_555
O12 Cr2 1_555 1_555
C19 O11 1_555 1_555
C20 C19 1_555 1_555
C21 C20 1_555 1_555
H13 C21 1_555 1_555
C22 C21 1_555 1_555
H14 C22 1_555 1_555
N4 C22 1_555 1_555
C23 N4 1_555 1_555
H15 C23 1_555 1_555
C24 C20 1_555 1_555
H16 C24 1_555 1_555
O13 Cr1 1_555 1_555
O14 Cr3 1_555 1_555
C25 O13 1_555 1_555
C26 C25 1_555 1_555
C27 C26 1_555 1_555
H17 C27 1_555 1_555
C28 C27 1_555 1_555
H18 C28 1_555 1_555
N5 C28 1_555 1_555
C29 N5 1_555 1_555
H19 C29 1_555 1_555
C30 C26 1_555 1_555
H20 C30 1_555 1_555
O15 Cr1 1_555 1_555
O16 Cr2 1_555 1_555
C31 O15 1_555 1_555
C32 C31 1_555 1_555
C33 C32 1_555 1_555
H21 C33 1_555 1_555
C34 C33 1_555 1_555
H22 C34 1_555 1_555
N6 C34 1_555 1_555
C35 N6 1_555 1_555
H23 C35 1_555 1_555
C36 C32 1_555 1_555
H24 C36 1_555 1_555
Cr1F O1F 1_555 1_555
Cr2F O3F 1_555 1_555
Cr3F O2F 1_555 1_555
Ag3F N2F 1_555 1_555
Ag4F N3F 1_555 1_555
O4F Cr1F 1_555 1_555
O5F Cr1F 1_555 1_555
O6F Cr3F 1_555 1_555
C1F O5F 1_555 1_555
C2F C1F 1_555 1_555
C3F C2F 1_555 1_555
H1F C3F 1_555 1_555
C4F C3F 1_555 1_555
H2F C4F 1_555 1_555
N1F Ag2 1_555 1_555
C5F N1F 1_555 1_555
H3F C5F 1_555 1_555
C6F C2F 1_555 1_555
H4F C6F 1_555 1_555
O7F Cr3F 1_555 1_555
O8F Cr2F 1_555 1_555
C7F O7F 1_555 1_555
C8F C7F 1_555 1_555
C9F C8F 1_555 1_555
H5F C9F 1_555 1_555
C10F C9F 1_555 1_555
H6F C10F 1_555 1_555
N2F C10F 1_555 1_555
C11F N2F 1_555 1_555
H7F C11F 1_555 1_555
C12F C8F 1_555 1_555
H8F C12F 1_555 1_555
O9F Cr2F 1_555 1_555
O10F Cr1F 1_555 1_555
C13F O9F 1_555 1_555
C14F C13F 1_555 1_555
C15F C14F 1_555 1_555
H9F C15F 1_555 1_555
C16F C15F 1_555 1_555
H10F C16F 1_555 1_555
N3F C16F 1_555 1_555
C17F N3F 1_555 1_555
H11F C17F 1_555 1_555
C18F C14F 1_555 1_555
H12F C18F 1_555 1_555
O11F Cr3F 1_555 1_555
O12F Cr2F 1_555 1_555
C19F O11F 1_555 1_555
C20F C19F 1_555 1_555
C21F C20F 1_555 1_555
H13F C21F 1_555 1_555
C22F C21F 1_555 1_555
H14F C22F 1_555 1_555
N4F C22F 1_555 1_555
C23F N4F 1_555 1_555
H15F C23F 1_555 1_555
C24F C20F 1_555 1_555
H16F C24F 1_555 1_555
O13F Cr1F 1_555 1_555
O14F Cr3F 1_555 1_555
C25F O13F 1_555 1_555
C26F C25F 1_555 1_555
C27F C26F 1_555 1_555
H17F C27F 1_555 1_555
C28F C27F 1_555 1_555
H18F C28F 1_555 1_555
N5F C28F 1_555 1_555
C29F N5F 1_555 1_555
H19F C29F 1_555 1_555
C30F C26F 1_555 1_555
H20F C30F 1_555 1_555
O15F Cr1F 1_555 1_555
O16F Cr2F 1_555 1_555
C31F O15F 1_555 1_555
C32F C31F 1_555 1_555
C33F C32F 1_555 1_555
H21F C33F 1_555 1_555
C34F C33F 1_555 1_555
H22F C34F 1_555 1_555
N6F C34F 1_555 1_555
C35F N6F 1_555 1_555
H23F C35F 1_555 1_555
C36F C32F 1_555 1_555
H24F C36F 1_555 1_555
Ag1_2 N6F 1_555 1_555
Ag3C N4F 1_555 1_555
Ag3D N4 1_555 1_555
Ag4_2 N5F 1_555 1_555
Ag4F_2 N5 1_555 1_555
N4C Ag3F 1_555 1_555
N4D Ag3 1_555 1_555
N5_2 Ag4F 1_555 1_555
N5F_2 Ag4 1_555 1_555
N6F_2 Ag1 1_555 1_555
Cr2 O4 1_555 1_555
Cr3 O4 1_555 1_555
O6 C1 1_555 1_555
C5 C6 1_555 1_555
O8 C7 1_555 1_555
C11 C12 1_555 1_555
O10 C13 1_555 1_555
C17 C18 1_555 1_555
O12 C19 1_555 1_555
C23 C24 1_555 1_555
O14 C25 1_555 1_555
C29 C30 1_555 1_555
O16 C31 1_555 1_555
C35 C36 1_555 1_555
Cr2F O4F 1_555 1_555
Cr3F O4F 1_555 1_555
O6F C1F 1_555 1_555
C4F N1F 1_555 1_555
C5F C6F 1_555 1_555
O8F C7F 1_555 1_555
C11F C12F 1_555 1_555
O10F C13F 1_555 1_555
C17F C18F 1_555 1_555
O12F C19F 1_555 1_555
C23F C24F 1_555 1_555
O14F C25F 1_555 1_555
C29F C30F 1_555 1_555
O16F C31F 1_555 1_555
C35F C36F 1_555 1_555

#END
