
#######################################################################
#
#                 Cambridge Crystallographic Data Centre
#                                CCDC 
#
#######################################################################
#
# If this CIF has been generated from an entry in the Cambridge 
# Structural Database, then it will include bibliographic, chemical, 
# crystal, experimental, refinement or atomic coordinate data resulting 
# from the CCDC's data processing and validation procedures.
#
#######################################################################

data_BIHBEB
_chemical_formula_moiety         '(C72 H72 Cd3 Cr6 N12 O38 8+)n'
_symmetry_cell_setting           hexagonal
_symmetry_space_group_name_H-M   'P 6/m m m'
_symmetry_Int_Tables_number      191
_space_group_name_Hall           '-P 6 2'
loop_
_symmetry_equiv_pos_site_id
_symmetry_equiv_pos_as_xyz
1 x,y,z
2 -x,-y,z
3 -y,x-y,z
4 -x+y,-x,z
5 x-y,x,z
6 y,-x+y,z
7 x-y,-y,-z
8 -x,-x+y,-z
9 y,x,-z
10 -y,-x,-z
11 x,x-y,-z
12 -x+y,y,-z
13 -x,-y,-z
14 x,y,-z
15 y,-x+y,-z
16 x-y,x,-z
17 -x+y,-x,-z
18 -y,x-y,-z
19 -x+y,y,z
20 x,x-y,z
21 -y,-x,z
22 y,x,z
23 -x,-x+y,z
24 x-y,-y,z
_cell_length_a                   22.858(3)
_cell_length_b                   22.858(3)
_cell_length_c                   14.042(3)
_cell_angle_alpha                90
_cell_angle_beta                 90
_cell_angle_gamma                120
_cell_volume                     6353.84
loop_
_atom_site_label
_atom_site_type_symbol
_atom_site_fract_x
_atom_site_fract_y
_atom_site_fract_z
Cd1 Cd -0.0000 -0.5000 -1.0000
Cr1 Cr 0.28521(8) -0.28521(8) -0.5000
O1 O 0.3333 -0.3333 -0.5000
O2 O 0.2231(3) -0.3396(3) -0.6006(4)
O3 O 0.2326(4) -0.2326(4) -0.5000
C1 C 0.2052(6) -0.3974(3) -0.6312(7)
C2 C 0.1623(6) -0.4189(3) -0.7201(7)
C3 C 0.1583(12) -0.4694(9) -0.7787(13)
H1 H 0.1848 -0.4899 -0.7655
C4 C 0.1154(8) -0.4900(9) -0.8566(13)
H2 H 0.1119 -0.5250 -0.8968
N1 N 0.0791(6) -0.4604(3) -0.8748(7)
O4 O -0.0000 -0.6007(8) -1.0000
O2S O 0.2231(3) -0.4373(4) -0.6006(4)
C3S C 0.1583(12) -0.3723(15) -0.7787(13)
H1S H 0.1848 -0.3253 -0.7655
C4S C 0.1154(8) -0.3946(12) -0.8566(13)
H2S H 0.1119 -0.3631 -0.8968
Cr1A Cr -0.28521(8) -0.71479(8) -0.5000
O1A O -0.3333 -0.6667 -0.5000
O2A O -0.2231(3) -0.6604(3) -0.6006(4)
O3A O -0.2326(4) -0.7674(4) -0.5000
C1A C -0.2052(6) -0.6026(3) -0.6312(7)
C2A C -0.1623(6) -0.5811(3) -0.7201(7)
C3A C -0.1583(12) -0.5306(9) -0.7787(13)
H1A H -0.1848 -0.5101 -0.7655
C4A C -0.1154(8) -0.5100(9) -0.8566(13)
H2A H -0.1119 -0.4750 -0.8968
N1A N -0.0791(6) -0.5396(3) -0.8748(7)
O4A O -0.0000 -0.3993(8) -1.0000
O2V O -0.2231(3) -0.5627(4) -0.6006(4)
C3V C -0.1583(12) -0.6277(15) -0.7787(13)
H1V H -0.1848 -0.6747 -0.7655
C4V C -0.1154(8) -0.6054(12) -0.8566(13)
H2V H -0.1119 -0.6369 -0.8968
Cd1B Cd 0.5000 -0.5000 -1.0000
Cr1B Cr 0.28521(8) -0.42958(11) -0.5000
O2B O 0.3396(3) -0.4373(4) -0.6006(4)
O3B O 0.2326(4) -0.5348(6) -0.5000
C1B C 0.3974(3) -0.3974(7) -0.6312(7)
C2B C 0.4189(3) -0.4188(7) -0.7201(7)
C3B C 0.4694(9) -0.3723(15) -0.7787(13)
H1B H 0.4899 -0.3253 -0.7655
C4B C 0.4900(9) -0.3946(12) -0.8566(13)
H2B H 0.5250 -0.3631 -0.8968
N1B N 0.4604(3) -0.4605(7) -0.8748(7)
O4B O 0.6007(8) -0.3993(8) -1.0000
O2R O 0.4373(4) -0.3396(3) -0.6006(4)
C3R C 0.3723(15) -0.4694(9) -0.7787(13)
H1R H 0.3253 -0.4899 -0.7655
C4R C 0.3946(12) -0.4900(9) -0.8566(13)
H2R H 0.3631 -0.5250 -0.8968
Cd1C Cd 0.5000 0.0000 -1.0000
Cr1C Cr 0.42958(11) -0.28521(8) -0.5000
O2C O 0.4373(4) -0.2231(3) -0.6006(4)
O3C O 0.5348(6) -0.2326(4) -0.5000
C1C C 0.3974(7) -0.2052(6) -0.6312(7)
C2C C 0.4188(7) -0.1623(6) -0.7201(7)
C3C C 0.3723(15) -0.1583(12) -0.7787(13)
H1C H 0.3253 -0.1848 -0.7655
C4C C 0.3946(12) -0.1154(8) -0.8566(13)
H2C H 0.3631 -0.1119 -0.8968
N1C N 0.4605(7) -0.0791(6) -0.8748(7)
O4C O 0.3993(8) 0.0000 -1.0000
O2T O 0.3396(3) -0.2231(3) -0.6006(4)
C3T C 0.4694(9) -0.1583(12) -0.7787(13)
H1T H 0.4899 -0.1848 -0.7655
C4T C 0.4900(9) -0.1154(8) -0.8566(13)
H2T H 0.5250 -0.1119 -0.8968
Cr1E Cr 0.71479(8) -0.57042(11) -0.5000
O2E O 0.6604(3) -0.5627(4) -0.6006(4)
O3E O 0.7674(4) -0.4652(6) -0.5000
C1E C 0.6026(3) -0.6026(7) -0.6312(7)
C2E C 0.5811(3) -0.5812(7) -0.7201(7)
C3E C 0.5306(9) -0.6277(15) -0.7787(13)
H1E H 0.5101 -0.6747 -0.7655
C4E C 0.5100(9) -0.6054(12) -0.8566(13)
H2E H 0.4750 -0.6369 -0.8968
N1E N 0.5396(3) -0.5395(7) -0.8748(7)
O4E O 0.3993(8) -0.6007(8) -1.0000
O2W O 0.5627(4) -0.6604(3) -0.6006(4)
C3W C 0.6277(15) -0.5306(9) -0.7787(13)
H1W H 0.6747 -0.5101 -0.7655
C4W C 0.6054(12) -0.5100(9) -0.8566(13)
H2W H 0.6369 -0.4750 -0.8968
Cr1A_2 Cr -0.28521(8) -0.71479(8) -1.5000
O2L O -0.2231(3) -0.6604(3) -1.3994(4)
O3A_2 O -0.2326(4) -0.7674(4) -1.5000
C1G C -0.2052(6) -0.6026(7) -1.3688(7)
C2G C -0.1623(6) -0.5812(7) -1.2799(7)
C3L C -0.1583(12) -0.5306(9) -1.2213(13)
H1L H -0.1848 -0.5101 -1.2345
C4L C -0.1154(8) -0.5100(9) -1.1434(13)
H2L H -0.1119 -0.4750 -1.1032
N1G N -0.0791(6) -0.5395(7) -1.1252(7)
O2G O -0.2231(3) -0.5627(4) -1.3994(4)
C3G C -0.1583(12) -0.6277(15) -1.2213(13)
H1G H -0.1848 -0.6747 -1.2345
C4G C -0.1154(8) -0.6054(12) -1.1434(13)
H2G H -0.1119 -0.6369 -1.1032
O2M O 0.2231(3) -0.3396(3) -1.3994(4)
C1J C 0.2052(6) -0.3974(7) -1.3688(7)
C2J C 0.1623(6) -0.4188(7) -1.2799(7)
C3M C 0.1583(12) -0.4694(9) -1.2213(13)
H1M H 0.1848 -0.4899 -1.2345
C4M C 0.1154(8) -0.4900(9) -1.1434(13)
H2M H 0.1119 -0.5250 -1.1032
N1J N 0.0791(6) -0.4605(7) -1.1252(7)
O2J O 0.2231(3) -0.4373(4) -1.3994(4)
C3J C 0.1583(12) -0.3723(15) -1.2213(13)
H1J H 0.1848 -0.3253 -1.2345
C4J C 0.1154(8) -0.3946(12) -1.1434(13)
H2J H 0.1119 -0.3631 -1.1032
O2N O 0.6604(3) -0.5627(4) -1.3994(4)
C1F C 0.6026(7) -0.6026(3) -1.3688(7)
C2F C 0.5812(7) -0.5811(3) -1.2799(7)
C3N C 0.5306(9) -0.6277(15) -1.2213(13)
H1N H 0.5101 -0.6747 -1.2345
C4N C 0.5100(9) -0.6054(12) -1.1434(13)
H2N H 0.4750 -0.6369 -1.1032
N1F N 0.5395(7) -0.5396(3) -1.1252(7)
O2F O 0.5627(4) -0.6604(3) -1.3994(4)
C3F C 0.6277(15) -0.5306(9) -1.2213(13)
H1F H 0.6747 -0.5101 -1.2345
C4F C 0.6054(12) -0.5100(9) -1.1434(13)
H2F H 0.6369 -0.4750 -1.1032
O2P O 0.4373(4) -0.2231(3) -1.3994(4)
C1I C 0.3974(3) -0.2052(6) -1.3688(7)
C2I C 0.4189(3) -0.1623(6) -1.2799(7)
C3P C 0.3723(15) -0.1583(12) -1.2213(13)
H1P H 0.3253 -0.1848 -1.2345
C4P C 0.3946(12) -0.1154(8) -1.1434(13)
H2P H 0.3631 -0.1119 -1.1032
N1I N 0.4604(3) -0.0791(6) -1.1252(7)
O2I O 0.3396(3) -0.2231(3) -1.3994(4)
C3I C 0.4694(9) -0.1583(12) -1.2213(13)
H1I H 0.4899 -0.1848 -1.2345
C4I C 0.4900(9) -0.1154(8) -1.1434(13)
H2I H 0.5250 -0.1119 -1.1032
O2Q O 0.3396(3) -0.4373(4) -1.3994(4)
C1K C 0.3974(7) -0.3974(3) -1.3688(7)
C2K C 0.4188(7) -0.4189(3) -1.2799(7)
C3Q C 0.4694(9) -0.3723(15) -1.2213(13)
H1Q H 0.4899 -0.3253 -1.2345
C4Q C 0.4900(9) -0.3946(12) -1.1434(13)
H2Q H 0.5250 -0.3631 -1.1032
N1K N 0.4605(7) -0.4604(3) -1.1252(7)
O2K O 0.4373(4) -0.3396(3) -1.3994(4)
C3K C 0.3723(15) -0.4694(9) -1.2213(13)
H1K H 0.3253 -0.4899 -1.2345
C4K C 0.3946(12) -0.4900(9) -1.1434(13)
H2K H 0.3631 -0.5250 -1.1032
O2D O -0.4373(4) -0.7769(3) -0.6006(4)
C1D C -0.3974(7) -0.7948(6) -0.6312(7)
C2D C -0.4188(7) -0.8377(6) -0.7201(7)
C3D C -0.3723(15) -0.8417(12) -0.7787(13)
H1D H -0.3253 -0.8152 -0.7655
C4D C -0.3946(12) -0.8846(8) -0.8566(13)
H2D H -0.3631 -0.8881 -0.8968
N1D N -0.4605(7) -0.9209(6) -0.8748(7)
O2U O -0.3396(3) -0.7769(3) -0.6006(4)
C3U C -0.4694(9) -0.8417(12) -0.7787(13)
H1U H -0.4899 -0.8152 -0.7655
C4U C -0.4900(9) -0.8846(8) -0.8566(13)
H2U H -0.5250 -0.8881 -0.8968
O2O O -0.4373(4) -0.7769(3) -1.3994(4)
C1H C -0.3974(3) -0.7948(6) -1.3688(7)
C2H C -0.4189(3) -0.8377(6) -1.2799(7)
C3O C -0.3723(15) -0.8417(12) -1.2213(13)
H1O H -0.3253 -0.8152 -1.2345
C4O C -0.3946(12) -0.8846(8) -1.1434(13)
H2O H -0.3631 -0.8881 -1.1032
N1H N -0.4604(3) -0.9209(6) -1.1252(7)
O2H O -0.3396(3) -0.7769(3) -1.3994(4)
C3H C -0.4694(9) -0.8417(12) -1.2213(13)
H1H H -0.4899 -0.8152 -1.2345
C4H C -0.4900(9) -0.8846(8) -1.1434(13)
H2H H -0.5250 -0.8881 -1.1032
O4D O 0.6007(8) 0.0000 -1.0000
Cd1C_2 Cd -0.5000 -1.0000 -1.0000
Cr1_2 Cr 0.28521(8) -0.28521(8) -1.5000
Cr1B_2 Cr 0.28521(8) -0.42958(11) -1.5000
Cr1C_2 Cr 0.42958(11) -0.28521(8) -1.5000
Cr1D Cr -0.42958(11) -0.71479(8) -1.5000
Cr1D_2 Cr -0.42958(11) -0.71479(8) -0.5000
Cr1D_3 Cr 0.57042(11) -0.71479(8) -1.5000
Cr1D_4 Cr 0.57042(11) -0.71479(8) -0.5000
Cr1E_2 Cr -0.28521(8) -0.57042(11) -1.5000
Cr1E_3 Cr -0.28521(8) -0.57042(11) -0.5000
Cr1E_4 Cr 0.71479(8) -0.57042(11) -1.5000
O1A_2 O -0.3333 -0.6667 -1.5000
O1A_3 O 0.6667 -0.6667 -0.5000
O2A_2 O -0.2231(3) -0.6604(3) -1.6006(4)
O2G_2 O 0.7769(3) -0.5627(4) -0.3994(4)
O2H_2 O -0.3396(3) -0.7769(3) -0.3994(4)
O2I_2 O 0.3396(3) -0.2231(3) -0.3994(4)
O2J_2 O 0.2231(3) -0.4373(4) -0.3994(4)
O2K_2 O 0.4373(4) -0.3396(3) -0.3994(4)
O2L_2 O -0.2231(3) -0.6604(3) -0.3994(4)
O2M_2 O 0.2231(3) -0.3396(3) -0.3994(4)
O2N_2 O 0.6604(3) -0.5627(4) -0.3994(4)
O2P_2 O 0.4373(4) -0.2231(3) -0.3994(4)
O2Q_2 O 0.3396(3) -0.4373(4) -0.3994(4)
O2U_2 O -0.3396(3) -0.7769(3) -1.6006(4)
O2V_2 O 0.7769(3) -0.5627(4) -0.6006(4)
N1D_2 N 0.5395(7) 0.0791(6) -0.8748(7)
N1H_2 N 0.5396(3) 0.0791(6) -1.1252(7)
loop_
_geom_bond_atom_site_label_1
_geom_bond_atom_site_label_2
_geom_bond_site_symmetry_1
_geom_bond_site_symmetry_2
Cd1 N1 1_555 1_555
Cr1 O1 1_555 1_555
O1 Cr1B 1_555 1_555
O2 Cr1 1_555 1_555
O3 Cr1 1_555 1_555
C1 O2 1_555 1_555
C2 C1 1_555 1_555
C3 C2 1_555 1_555
H1 C3 1_555 1_555
C4 C3 1_555 1_555
H2 C4 1_555 1_555
N1 C4 1_555 1_555
O4 Cd1 1_555 1_555
O2S C1 1_555 1_555
C3S C2 1_555 1_555
H1S C3S 1_555 1_555
C4S N1 1_555 1_555
H2S C4S 1_555 1_555
Cr1A O1A 1_555 1_555
O1A Cr1D_2 1_555 1_555
O2A Cr1A 1_555 1_555
O3A Cr1A 1_555 1_555
C1A O2A 1_555 1_555
C2A C1A 1_555 1_555
C3A C2A 1_555 1_555
H1A C3A 1_555 1_555
C4A C3A 1_555 1_555
H2A C4A 1_555 1_555
N1A Cd1 1_555 1_555
O4A Cd1 1_555 1_555
O2V C1A 1_555 1_555
C3V C2A 1_555 1_555
H1V C3V 1_555 1_555
C4V N1A 1_555 1_555
H2V C4V 1_555 1_555
Cd1B N1B 1_555 1_555
Cr1B O2S 1_555 1_555
O2B Cr1B 1_555 1_555
O3B Cr1B 1_555 1_555
C1B O2B 1_555 1_555
C2B C1B 1_555 1_555
C3B C2B 1_555 1_555
H1B C3B 1_555 1_555
C4B C3B 1_555 1_555
H2B C4B 1_555 1_555
N1B C4B 1_555 1_555
O4B Cd1B 1_555 1_555
O2R C1B 1_555 1_555
C3R C2B 1_555 1_555
H1R C3R 1_555 1_555
C4R N1B 1_555 1_555
H2R C4R 1_555 1_555
Cd1C N1C 1_555 1_555
Cr1C O1 1_555 1_555
O2C Cr1C 1_555 1_555
O3C Cr1C 1_555 1_555
C1C O2C 1_555 1_555
C2C C1C 1_555 1_555
C3C C2C 1_555 1_555
H1C C3C 1_555 1_555
C4C C3C 1_555 1_555
H2C C4C 1_555 1_555
N1C C4C 1_555 1_555
O4C Cd1C 1_555 1_555
O2T Cr1 1_555 1_555
C3T C2C 1_555 1_555
H1T C3T 1_555 1_555
C4T N1C 1_555 1_555
H2T C4T 1_555 1_555
Cr1E O2E 1_555 1_555
O2E C1E 1_555 1_555
O3E Cr1E 1_555 1_555
C1E C2E 1_555 1_555
C2E C3E 1_555 1_555
C3E H1E 1_555 1_555
C4E C3E 1_555 1_555
H2E C4E 1_555 1_555
N1E Cd1B 1_555 1_555
O4E Cd1B 1_555 1_555
O2W C1E 1_555 1_555
C3W C2E 1_555 1_555
H1W C3W 1_555 1_555
C4W N1E 1_555 1_555
H2W C4W 1_555 1_555
Cr1A_2 O2L 1_555 1_555
O2L C1G 1_555 1_555
O3A_2 Cr1A_2 1_555 1_555
C1G C2G 1_555 1_555
C2G C3L 1_555 1_555
C3L H1L 1_555 1_555
C4L C3L 1_555 1_555
H2L C4L 1_555 1_555
N1G Cd1 1_555 1_555
O2G C1G 1_555 1_555
C3G C2G 1_555 1_555
H1G C3G 1_555 1_555
C4G N1G 1_555 1_555
H2G C4G 1_555 1_555
O2M C1J 1_555 1_555
C1J C2J 1_555 1_555
C2J C3M 1_555 1_555
C3M H1M 1_555 1_555
C4M C3M 1_555 1_555
H2M C4M 1_555 1_555
N1J Cd1 1_555 1_555
O2J C1J 1_555 1_555
C3J C2J 1_555 1_555
H1J C3J 1_555 1_555
C4J N1J 1_555 1_555
H2J C4J 1_555 1_555
O2N C1F 1_555 1_555
C1F C2F 1_555 1_555
C2F C3N 1_555 1_555
C3N H1N 1_555 1_555
C4N C3N 1_555 1_555
H2N C4N 1_555 1_555
N1F Cd1B 1_555 1_555
O2F C1F 1_555 1_555
C3F C2F 1_555 1_555
H1F C3F 1_555 1_555
C4F N1F 1_555 1_555
H2F C4F 1_555 1_555
O2P C1I 1_555 1_555
C1I C2I 1_555 1_555
C2I C3P 1_555 1_555
C3P H1P 1_555 1_555
C4P C3P 1_555 1_555
H2P C4P 1_555 1_555
N1I Cd1C 1_555 1_555
O2I C1I 1_555 1_555
C3I C2I 1_555 1_555
H1I C3I 1_555 1_555
C4I N1I 1_555 1_555
H2I C4I 1_555 1_555
O2Q C1K 1_555 1_555
C1K C2K 1_555 1_555
C2K C3Q 1_555 1_555
C3Q H1Q 1_555 1_555
C4Q C3Q 1_555 1_555
H2Q C4Q 1_555 1_555
N1K Cd1B 1_555 1_555
O2K C1K 1_555 1_555
C3K C2K 1_555 1_555
H1K C3K 1_555 1_555
C4K N1K 1_555 1_555
H2K C4K 1_555 1_555
O2D C1D 1_555 1_555
C1D C2D 1_555 1_555
C2D C3D 1_555 1_555
C3D H1D 1_555 1_555
C4D C3D 1_555 1_555
H2D C4D 1_555 1_555
N1D C4D 1_555 1_555
O2U Cr1A 1_555 1_555
C3U C2D 1_555 1_555
H1U C3U 1_555 1_555
C4U N1D 1_555 1_555
H2U C4U 1_555 1_555
O2O C1H 1_555 1_555
C1H C2H 1_555 1_555
C2H C3O 1_555 1_555
C3O H1O 1_555 1_555
C4O C3O 1_555 1_555
H2O C4O 1_555 1_555
N1H C4O 1_555 1_555
O2H Cr1A_2 1_555 1_555
C3H C2H 1_555 1_555
H1H C3H 1_555 1_555
C4H N1H 1_555 1_555
H2H C4H 1_555 1_555
O4D Cd1C 1_555 1_555
Cd1C_2 N1D 1_555 1_555
Cr1_2 O2M 1_555 1_555
Cr1B_2 O2J 1_555 1_555
Cr1C_2 O2P 1_555 1_555
Cr1D O2O 1_555 1_555
Cr1D_2 O2D 1_555 1_555
Cr1D_3 O2F 1_555 1_555
Cr1D_4 O2W 1_555 1_555
Cr1E_2 O2G 1_555 1_555
Cr1E_3 O1A 1_555 1_555
Cr1E_4 O2N 1_555 1_555
O1A_2 Cr1A_2 1_555 1_555
O1A_3 Cr1E 1_555 1_555
O2A_2 Cr1A_2 1_555 1_555
O2G_2 Cr1E 1_555 1_555
O2H_2 Cr1A 1_555 1_555
O2I_2 Cr1 1_555 1_555
O2J_2 Cr1B 1_555 1_555
O2K_2 Cr1C 1_555 1_555
O2L_2 Cr1A 1_555 1_555
O2M_2 Cr1 1_555 1_555
O2N_2 Cr1E 1_555 1_555
O2P_2 Cr1C 1_555 1_555
O2Q_2 Cr1B 1_555 1_555
O2U_2 Cr1A_2 1_555 1_555
O2V_2 Cr1E 1_555 1_555
N1D_2 Cd1C 1_555 1_555
N1H_2 Cd1C 1_555 1_555
C3S C4S 1_555 1_555
C4A N1A 1_555 1_555
O2V Cr1E_3 1_555 1_555
C3V C4V 1_555 1_555
O2R Cr1C 1_555 1_555
C3R C4R 1_555 1_555
C1C O2T 1_555 1_555
C3T C4T 1_555 1_555
C4E N1E 1_555 1_555
C3W C4W 1_555 1_555
C4L N1G 1_555 1_555
C3G C4G 1_555 1_555
C4M N1J 1_555 1_555
C3J C4J 1_555 1_555
C4N N1F 1_555 1_555
C3F C4F 1_555 1_555
C4P N1I 1_555 1_555
O2I Cr1_2 1_555 1_555
C3I C4I 1_555 1_555
O2Q Cr1B_2 1_555 1_555
C4Q N1K 1_555 1_555
O2K Cr1C_2 1_555 1_555
C3K C4K 1_555 1_555
C1D O2U 1_555 1_555
C3U C4U 1_555 1_555
C1H O2H 1_555 1_555
N1H Cd1C_2 1_555 1_555
C3H C4H 1_555 1_555
Cr1D O1A_2 1_555 1_555
Cr1D_4 O1A_3 1_555 1_555
Cr1E_2 O1A_2 1_555 1_555

#END
