
#######################################################################
#
#                 Cambridge Crystallographic Data Centre
#                                CCDC 
#
#######################################################################
#
# If this CIF has been generated from an entry in the Cambridge 
# Structural Database, then it will include bibliographic, chemical, 
# crystal, experimental, refinement or atomic coordinate data resulting 
# from the CCDC's data processing and validation procedures.
#
#######################################################################

data_ODEZAB
_chemical_formula_moiety         '(C28 H20 Cu2 O12)n'
_symmetry_cell_setting           rhombohedral
_symmetry_space_group_name_H-M   'R -3 m'
_symmetry_Int_Tables_number      166
_space_group_name_Hall           '-R 3 2"'
loop_
_symmetry_equiv_pos_site_id
_symmetry_equiv_pos_as_xyz
1 x,y,z
2 -y,x-y,z
3 -x+y,-x,z
4 y,x,-z
5 x-y,-y,-z
6 -x,-x+y,-z
7 2/3+x,1/3+y,1/3+z
8 2/3-y,1/3+x-y,1/3+z
9 2/3-x+y,1/3-x,1/3+z
10 2/3+y,1/3+x,1/3-z
11 2/3+x-y,1/3-y,1/3-z
12 2/3-x,1/3-x+y,1/3-z
13 1/3+x,2/3+y,2/3+z
14 1/3-y,2/3+x-y,2/3+z
15 1/3-x+y,2/3-x,2/3+z
16 1/3+y,2/3+x,2/3-z
17 1/3+x-y,2/3-y,2/3-z
18 1/3-x,2/3-x+y,2/3-z
19 -x,-y,-z
20 y,-x+y,-z
21 x-y,x,-z
22 -y,-x,z
23 -x+y,y,z
24 x,x-y,z
25 1/3-x,2/3-y,2/3-z
26 1/3+y,2/3-x+y,2/3-z
27 1/3+x-y,2/3+x,2/3-z
28 1/3-y,2/3-x,2/3+z
29 1/3-x+y,2/3+y,2/3+z
30 1/3+x,2/3+x-y,2/3+z
31 2/3-x,1/3-y,1/3-z
32 2/3+y,1/3-x+y,1/3-z
33 2/3+x-y,1/3+x,1/3-z
34 2/3-y,1/3-x,1/3+z
35 2/3-x+y,1/3+y,1/3+z
36 2/3+x,1/3+x-y,1/3+z
_cell_length_a                   18.6401(5)
_cell_length_b                   18.6401(5)
_cell_length_c                   39.7480(9)
_cell_angle_alpha                90
_cell_angle_beta                 90
_cell_angle_gamma                120
_cell_volume                     11960.3
loop_
_atom_site_label
_atom_site_type_symbol
_atom_site_fract_x
_atom_site_fract_y
_atom_site_fract_z
_atom_site_U_iso_or_equiv
_atom_site_thermal_displace_type
Cu1 Cu 0.476433(12) 0.95287(2) 0.027388(10) 0.0422 Uani
O1 O 0.51856(12) 0.89021(11) 0.00301(5) 0.0592 Uani
O2 O 0.55919(13) 0.96967(11) -0.04294(5) 0.0618 Uani
O3 O 0.43904(13) 0.8781(3) 0.07159(9) 0.1116 Uani
O4 O 0.8090(4) 0.90450(18) -0.09000(14) 0.3347 Uani
C1 C 0.54907(17) 0.90821(15) -0.02582(7) 0.0508 Uani
C2 C 0.57560(17) 0.85279(15) -0.04168(7) 0.0523 Uani
C3 C 0.5556(2) 0.77782(12) -0.02623(9) 0.0514 Uani
H1 H 0.5289 0.7644 -0.0055 0.0620 Uiso
C4 C 0.61849(19) 0.87344(17) -0.07224(7) 0.0616 Uani
H2 H 0.6319 0.9233 -0.0826 0.0740 Uiso
C5 C 0.6413(3) 0.82066(14) -0.08733(10) 0.0617 Uani
C6 C 0.5571(4) 0.77855(18) -0.15324(14) 0.1318 Uani
H3 H 0.5262 0.7631 -0.1335 0.1580 Uiso
C7 C 0.6456(3) 0.82278(13) -0.15109(11) 0.0581 Uani
C8 C 0.6869(3) 0.84344(15) -0.12010(12) 0.0716 Uani
C9 C 0.7706(4) 0.8853(2) -0.12027(15) 0.1632 Uani
C10 C 0.8155(4) 0.9077(2) -0.15077(16) 0.2346 Uani
H4 H 0.8731 0.9365 -0.1503 0.2820 Uiso
C11 C 0.8692(13) 0.9346(6) -0.0817(5) 0.3658 Uani
H5 H 0.8843 0.9421 -0.0589 0.5470 Uiso
H6 H 0.9018 0.9088 -0.0923 0.5470 Uiso
O1Q O 0.81477(12) 1.03832(16) -0.33634(5) 0.0592 Uani
O2Q O 0.77414(13) 1.07715(17) -0.29039(5) 0.0618 Uani
O4Q O 0.5243(4) 0.76217(44) -0.24333(14) 0.3347 Uani
C1Q C 0.78426(17) 1.02581(23) -0.30751(7) 0.0508 Uani
C2Q C 0.75773(17) 0.94386(23) -0.29165(7) 0.0523 Uani
C3Q C 0.7777(2) 0.88889(23) -0.30710(9) 0.0514 Uani
H1Q H 0.8044 0.9022 -0.3278 0.0620 Uiso
C4Q C 0.71484(19) 0.92162(25) -0.26109(7) 0.0616 Uani
H2Q H 0.7014 0.9581 -0.2507 0.0740 Uiso
C5Q C 0.6920(3) 0.84603(33) -0.24600(10) 0.0617 Uani
C6Q C 0.7762(4) 0.88812(44) -0.18009(14) 0.1318 Uani
H3Q H 0.8071 0.9036 -0.1998 0.1580 Uiso
C7Q C 0.6877(3) 0.84385(33) -0.18224(11) 0.0581 Uani
C8Q C 0.6464(3) 0.82321(34) -0.21323(12) 0.0716 Uani
C9Q C 0.5627(4) 0.7814(4) -0.21306(15) 0.1632 Uani
C10Q C 0.5178(4) 0.7589(4) -0.18256(16) 0.2346 Uani
H4Q H 0.4602 0.7301 -0.1830 0.2820 Uiso
C11Q C 0.4641(13) 0.7321(14) -0.2516(5) 0.3658 Uani
H5Q H 0.4490 0.7245 -0.2744 0.5470 Uiso
H6Q H 0.4315 0.6737 -0.2410 0.5470 Uiso
O1W O 0.51856(12) 0.62835(16) 0.00301(5) 0.0592 Uani
O2W O 0.55919(13) 0.58952(17) -0.04294(5) 0.0618 Uani
C1W C 0.54907(17) 0.64086(23) -0.02582(7) 0.0508 Uani
C2W C 0.57560(17) 0.72281(23) -0.04168(7) 0.0523 Uani
C4W C 0.61849(19) 0.74505(25) -0.07224(7) 0.0616 Uani
H2W H 0.6319 0.7086 -0.0826 0.0740 Uiso
H6W H 0.9018 0.9930 -0.0923 0.5470 Uiso
O1X O 0.81477(12) 0.77646(11) -0.33634(5) 0.0592 Uani
O2X O 0.77414(13) 0.69700(11) -0.29039(5) 0.0618 Uani
C1X C 0.78426(17) 0.75846(15) -0.30751(7) 0.0508 Uani
C2X C 0.75773(17) 0.81388(15) -0.29165(7) 0.0523 Uani
C4X C 0.71484(19) 0.79323(17) -0.26109(7) 0.0616 Uani
H2X H 0.7014 0.7434 -0.2507 0.0740 Uiso
H6X H 0.4315 0.7579 -0.2410 0.5470 Uiso
Cu1D Cu 0.523563(23) 1.04713(2) -0.027388(10) 0.0422 Uani
O3D O 0.56094(33) 1.1219(3) -0.07159(9) 0.1116 Uani
Cu1B Cu 0.476437(23) 0.523567(12) 0.027388(10) 0.0422 Uani
Cu1E Cu 0.523567(12) 0.476437(23) -0.027388(10) 0.0422 Uani
Cu1L Cu 0.809766(12) 0.61954(2) -0.305945(10) 0.0422 Uani
Cu1N Cu 0.809770(23) 1.190234(12) -0.305945(10) 0.0422 Uani
Cu1P Cu 0.856896(23) 0.71380(2) -0.360721(10) 0.0422 Uani
Cu1Q Cu 0.856900(12) 1.143104(23) -0.360721(10) 0.0422 Uani
O1D O 0.62835(16) 1.10979(11) -0.00301(5) 0.0592 Uani
O1R O 0.48144(12) 1.10979(11) -0.00301(5) 0.0592 Uani
O1V O 0.37165(16) 0.89021(11) 0.00301(5) 0.0592 Uani
O2D O 0.58952(17) 1.03033(11) 0.04294(5) 0.0618 Uani
O2R O 0.44081(13) 1.03033(11) 0.04294(5) 0.0618 Uani
O2V O 0.41048(17) 0.96967(11) -0.04294(5) 0.0618 Uani
loop_
_atom_site_aniso_label
_atom_site_aniso_U_11
_atom_site_aniso_U_22
_atom_site_aniso_U_33
_atom_site_aniso_U_23
_atom_site_aniso_U_13
_atom_site_aniso_U_12
Cu1 0.0484(2) 0.0343(2) 0.0392(3) 0.00694(16) 0.00347(8) 0.01713(12)
O1 0.0824(13) 0.0498(10) 0.0543(11) 0.0073(8) 0.0139(10) 0.0398(10)
O2 0.0817(13) 0.0547(11) 0.0582(11) 0.0091(9) 0.0160(10) 0.0410(10)
O3 0.127(2) 0.122(3) 0.084(2) 0.063(2) 0.0314(12) 0.0608(16)
O4 0.083(4) 0.657(19) 0.073(3) -0.0012(14) -0.002(3) 0.0417(18)
C1 0.0580(15) 0.0403(13) 0.0526(15) 0.0046(11) 0.0022(12) 0.0234(12)
C2 0.0627(16) 0.0462(14) 0.0498(14) 0.0040(11) 0.0060(12) 0.0285(13)
C3 0.062(2) 0.0512(14) 0.0444(19) 0.0038(8) 0.0075(17) 0.0308(11)
C4 0.0726(18) 0.0540(16) 0.0606(17) 0.0102(13) 0.0110(14) 0.0335(15)
C5 0.072(3) 0.0638(18) 0.052(2) 0.0069(10) 0.014(2) 0.0359(13)
C6 0.077(4) 0.207(7) 0.068(4) 0.0154(16) 0.031(3) 0.0384(19)
C7 0.069(3) 0.0507(14) 0.061(2) 0.0089(10) 0.018(2) 0.0347(13)
C8 0.075(3) 0.075(2) 0.065(3) 0.0088(12) 0.018(2) 0.0377(15)
C9 0.080(4) 0.280(10) 0.063(4) 0.0073(16) 0.015(3) 0.040(2)
C10 0.057(3) 0.450(16) 0.066(4) 0.0080(16) 0.016(3) 0.0287(17)
C11 0.33(2) 0.435(19) 0.296(19) -0.102(9) -0.204(17) 0.164(10)
O1Q 0.0824 0.0526 0.0543 0.0066 0.0139 0.0426
O2Q 0.0817 0.0544 0.0582 0.0069 0.016 0.0407
O4Q 0.083 0.6566 0.073 -0.0008 -0.002 0.0413
C1Q 0.058 0.0515 0.0526 -0.0024 0.0022 0.0346
C2Q 0.0627 0.0519 0.0498 0.002 0.006 0.0342
C3Q 0.062 0.0516 0.0444 0.0037 0.0075 0.0312
C4Q 0.0726 0.0596 0.0606 0.0008 0.011 0.0391
C5Q 0.072 0.064 0.052 0.0071 0.014 0.0361
C6Q 0.077 0.2072 0.068 0.0156 0.031 0.0386
C7Q 0.069 0.0503 0.061 0.0091 0.018 0.0343
C8Q 0.075 0.0746 0.065 0.0092 0.018 0.0373
C9Q 0.08 0.28 0.063 0.0077 0.015 0.04
C10Q 0.057 0.4496 0.066 0.008 0.016 0.0283
C11Q 0.33 0.437 0.296 -0.102 -0.204 0.166
O1W 0.0824 0.0526 0.0543 0.0066 0.0139 0.0426
O2W 0.0817 0.0544 0.0582 0.0069 0.016 0.0407
C1W 0.058 0.0515 0.0526 -0.0024 0.0022 0.0346
C2W 0.0627 0.0519 0.0498 0.002 0.006 0.0342
C4W 0.0726 0.0596 0.0606 0.0008 0.011 0.0391
O1X 0.0824 0.0498 0.0543 0.0073 0.0139 0.0398
O2X 0.0817 0.0547 0.0582 0.0091 0.016 0.041
C1X 0.058 0.0403 0.0526 0.0046 0.0022 0.0234
C2X 0.0627 0.0462 0.0498 0.004 0.006 0.0285
C4X 0.0726 0.054 0.0606 0.0102 0.011 0.0335
Cu1D 0.04844 0.0343 0.0392 0.00694 0.00347 0.01717
O3D 0.1274 0.122 0.084 0.063 0.0316 0.0612
Cu1B 0.04844 0.0484 0.0392 -0.00347 0.00347 0.03127
Cu1E 0.0484 0.04844 0.0392 -0.00347 0.00347 0.03127
Cu1L 0.0484 0.0343 0.0392 0.00694 0.00347 0.01713
Cu1N 0.04844 0.0484 0.0392 -0.00347 0.00347 0.03127
Cu1P 0.04844 0.0343 0.0392 0.00694 0.00347 0.01717
Cu1Q 0.0484 0.04844 0.0392 -0.00347 0.00347 0.03127
O1D 0.0526 0.0498 0.0543 0.0073 -0.0066 0.01
O1R 0.0824 0.0498 0.0543 0.0073 0.0139 0.0398
O1V 0.0526 0.0498 0.0543 0.0073 -0.0066 0.01
O2D 0.0544 0.0547 0.0582 0.0091 -0.0069 0.0137
O2R 0.0817 0.0547 0.0582 0.0091 0.016 0.041
O2V 0.0544 0.0547 0.0582 0.0091 -0.0069 0.0137
loop_
_geom_bond_atom_site_label_1
_geom_bond_atom_site_label_2
_geom_bond_site_symmetry_1
_geom_bond_site_symmetry_2
Cu1 O1 1_555 1_555
O1 C1 1_555 1_555
O2 C1 1_555 1_555
O3 Cu1 1_555 1_555
O4 C9 1_555 1_555
C1 C2 1_555 1_555
C2 C3 1_555 1_555
C3 H1 1_555 1_555
C4 C2 1_555 1_555
H2 C4 1_555 1_555
C5 C4 1_555 1_555
C6 H3 1_555 1_555
C7 C6 1_555 1_555
C8 C5 1_555 1_555
C9 C8 1_555 1_555
C10 C9 1_555 1_555
H4 C10 1_555 1_555
C11 O4 1_555 1_555
H5 C11 1_555 1_555
H6 C11 1_555 1_555
O1Q C1Q 1_555 1_555
O2Q C1Q 1_555 1_555
O4Q C9Q 1_555 1_555
C1Q C2Q 1_555 1_555
C2Q C3Q 1_555 1_555
C3Q H1Q 1_555 1_555
C4Q C2Q 1_555 1_555
H2Q C4Q 1_555 1_555
C5Q C4Q 1_555 1_555
C6Q C10 1_555 1_555
H3Q C6Q 1_555 1_555
C7Q C7 1_555 1_555
C8Q C5Q 1_555 1_555
C9Q C8Q 1_555 1_555
C10Q C6 1_555 1_555
H4Q C10Q 1_555 1_555
C11Q O4Q 1_555 1_555
H5Q C11Q 1_555 1_555
H6Q C11Q 1_555 1_555
O1W C1W 1_555 1_555
O2W C1W 1_555 1_555
C1W C2W 1_555 1_555
C2W C3 1_555 1_555
C4W C5 1_555 1_555
H2W C4W 1_555 1_555
H6W C11 1_555 1_555
O1X C1X 1_555 1_555
O2X C1X 1_555 1_555
C1X C2X 1_555 1_555
C2X C3Q 1_555 1_555
C4X C5Q 1_555 1_555
H2X C4X 1_555 1_555
H6X C11Q 1_555 1_555
Cu1D Cu1 1_555 1_555
O3D Cu1D 1_555 1_555
Cu1B O1W 1_555 1_555
Cu1E O2W 1_555 1_555
Cu1L O2X 1_555 1_555
Cu1N O2Q 1_555 1_555
Cu1P O1X 1_555 1_555
Cu1Q O1Q 1_555 1_555
O1D Cu1D 1_555 1_555
O1R Cu1D 1_555 1_555
O1V Cu1 1_555 1_555
O2D Cu1 1_555 1_555
O2R Cu1 1_555 1_555
O2V Cu1D 1_555 1_555
O2 Cu1D 1_555 1_555
C7 C8 1_555 1_555
C6Q C7Q 1_555 1_555
C7Q C8Q 1_555 1_555
C9Q C10Q 1_555 1_555
C2W C4W 1_555 1_555
C2X C4X 1_555 1_555
Cu1B Cu1E 1_555 1_555
Cu1L Cu1P 1_555 1_555
Cu1N Cu1Q 1_555 1_555

#END
