
#######################################################################
#
#                 Cambridge Crystallographic Data Centre
#                                CCDC 
#
#######################################################################
#
# If this CIF has been generated from an entry in the Cambridge 
# Structural Database, then it will include bibliographic, chemical, 
# crystal, experimental, refinement or atomic coordinate data resulting 
# from the CCDC's data processing and validation procedures.
#
#######################################################################

data_KILFUI
_chemical_formula_moiety         '(C38 H44 N16 Ni2 W1)n'
_symmetry_cell_setting           monoclinic
_symmetry_space_group_name_H-M   'C c'
_symmetry_Int_Tables_number      9
_space_group_name_Hall           'C -2yc'
loop_
_symmetry_equiv_pos_site_id
_symmetry_equiv_pos_as_xyz
1 x,y,z
2 x,-y,1/2+z
3 1/2+x,1/2+y,z
4 1/2+x,1/2-y,1/2+z
_cell_length_a                   15.031(2)
_cell_length_b                   30.103(5)
_cell_length_c                   13.367(2)
_cell_angle_alpha                90
_cell_angle_beta                 119.837(3)
_cell_angle_gamma                90
_cell_volume                     5246.54
loop_
_atom_site_label
_atom_site_type_symbol
_atom_site_fract_x
_atom_site_fract_y
_atom_site_fract_z
_atom_site_U_iso_or_equiv
_atom_site_thermal_displace_type
W1 W -0.00347(13) 0.37765(5) -0.07659(13) 0.0705 Uani
Ni1 Ni 0.0048(2) 0.53817(9) 0.0789(2) 0.0300 Uani
Ni2 Ni 0.2155(3) 0.23227(12) 0.1102(3) 0.0502 Uani
N1 N 0.0339(17) 0.4850(6) -0.0090(17) 0.0321 Uani
N2 N 0.100(2) 0.2779(7) -0.001(2) 0.0477 Uani
N3 N 0.340(2) 0.1923(8) 0.224(2) 0.0506 Uani
N4 N -0.0219(18) 0.5853(7) 0.1793(17) 0.0392 Uani
N5 N 0.153(2) 0.3812(8) 0.2038(19) 0.0495 Uani
N6 N -0.219(2) 0.4308(10) -0.185(4) 0.0849 Uani
N7 N 0.227(2) 0.3920(11) -0.047(2) 0.0575 Uani
N8 N -0.132(3) 0.3399(14) 0.047(3) 0.0795 Uani
N9 N 0.140(2) 0.5623(8) 0.127(2) 0.0501 Uani
N10 N 0.096(3) 0.5023(7) 0.225(2) 0.0524 Uani
N11 N -0.133(2) 0.5113(8) 0.021(2) 0.0474 Uani
H1 H -0.1391 0.4899 -0.0298 0.0570 Uiso
N12 N -0.030(2) 0.5855(7) -0.044(2) 0.0422 Uani
N13 N 0.193(2) 0.1972(9) -0.024(3) 0.0771 Uani
N14 N 0.120(3) 0.1825(12) 0.107(4) 0.0954 Uani
N15 N 0.250(5) 0.2728(11) 0.243(3) 0.1170 Uani
H2 H 0.2044 0.2949 0.2049 0.1430 Uiso
N16 N 0.315(3) 0.2639(11) 0.065(4) 0.0917 Uani
C1 C 0.028(2) 0.4479(9) -0.032(2) 0.0355 Uani
C2 C 0.064(2) 0.3114(9) -0.029(2) 0.0412 Uani
C3 C 0.396(2) 0.1691(8) 0.291(2) 0.0358 Uani
C4 C -0.021(2) 0.5970(8) 0.262(2) 0.0316 Uani
C5 C 0.102(2) 0.3816(8) 0.114(2) 0.0376 Uani
C6 C -0.146(2) 0.4105(8) -0.151(2) 0.0357 Uani
C7 C 0.150(3) 0.3843(9) -0.057(2) 0.0385 Uani
C8 C -0.093(2) 0.3533(10) 0.003(2) 0.0445 Uani
C9 C 0.223(3) 0.5447(10) 0.223(3) 0.0600 Uani
C10 C 0.319(3) 0.5590(15) 0.248(4) 0.0804 Uani
H3 H 0.3777 0.5482 0.3119 0.0970 Uiso
C11 C 0.323(4) 0.5911(19) 0.176(4) 0.0915 Uani
H4 H 0.3887 0.6002 0.1959 0.1090 Uiso
C12 C 0.244(3) 0.6099(12) 0.077(4) 0.0709 Uani
H5 H 0.2518 0.6315 0.0326 0.0850 Uiso
C13 C 0.152(3) 0.5926(11) 0.058(3) 0.0579 Uani
C14 C 0.055(3) 0.6078(9) -0.037(3) 0.0494 Uani
C15 C 0.043(3) 0.6463(10) -0.112(3) 0.0587 Uani
H6 H -0.0281 0.6501 -0.1703 0.0890 Uiso
H7 H 0.0827 0.6414 -0.1491 0.0890 Uiso
H8 H 0.0666 0.6726 -0.0657 0.0890 Uiso
C16 C 0.187(3) 0.5096(10) 0.285(3) 0.0530 Uani
C17 C 0.267(4) 0.4940(16) 0.396(3) 0.0813 Uani
H9 H 0.2551 0.5057 0.4555 0.1220 Uiso
H10 H 0.3325 0.5035 0.4092 0.1220 Uiso
H11 H 0.2647 0.4621 0.3974 0.1220 Uiso
C18 C 0.029(4) 0.4688(10) 0.271(3) 0.0691 Uani
H12 H 0.0689 0.4425 0.3097 0.0830 Uiso
H13 H 0.0156 0.4850 0.3245 0.0830 Uiso
C19 C -0.068(3) 0.4573(10) 0.172(3) 0.0538 Uani
H14 H -0.0960 0.4334 0.1965 0.0650 Uiso
H15 H -0.0499 0.4444 0.1178 0.0650 Uiso
C20 C -0.146(3) 0.4879(11) 0.112(3) 0.0526 Uani
H16 H -0.2107 0.4720 0.0754 0.0630 Uiso
H17 H -0.1478 0.5096 0.1641 0.0630 Uiso
C21 C -0.217(3) 0.5446(12) -0.048(3) 0.0621 Uani
H18 H -0.2833 0.5308 -0.0769 0.0750 Uiso
H19 H -0.2120 0.5695 0.0004 0.0750 Uiso
C22 C -0.205(3) 0.5607(12) -0.148(3) 0.0629 Uani
H20 H -0.2731 0.5692 -0.2092 0.0760 Uiso
H21 H -0.1830 0.5360 -0.1765 0.0760 Uiso
C23 C -0.132(3) 0.5990(11) -0.127(3) 0.0514 Uani
H22 H -0.1356 0.6078 -0.1988 0.0620 Uiso
H23 H -0.1512 0.6242 -0.0969 0.0620 Uiso
C24 C 0.128(3) 0.1624(12) -0.053(4) 0.0785 Uani
C25 C 0.100(3) 0.1418(14) -0.158(4) 0.0824 Uani
H24 H 0.0559 0.1177 -0.1827 0.0990 Uiso
C26 C 0.138(4) 0.157(2) -0.227(5) 0.1044 Uani
H25 H 0.1190 0.1430 -0.2967 0.1250 Uiso
C27 C 0.204(4) 0.1931(15) -0.194(4) 0.0823 Uani
H26 H 0.2302 0.2031 -0.2401 0.0990 Uiso
C28 C 0.231(3) 0.2132(14) -0.089(4) 0.0776 Uani
C29 C 0.087(3) 0.1561(13) 0.029(4) 0.0780 Uani
C30 C 0.047(4) 0.1104(16) 0.008(5) 0.1047 Uani
H27 H 0.0375 0.0994 -0.0641 0.1570 Uiso
H28 H -0.0183 0.1112 0.0052 0.1570 Uiso
H29 H 0.0927 0.0911 0.0693 0.1570 Uiso
C31 C 0.304(3) 0.2505(15) -0.021(5) 0.0785 Uani
C32 C 0.359(5) 0.270(2) -0.076(5) 0.1098 Uani
H30 H 0.3543 0.2487 -0.1319 0.1640 Uiso
H31 H 0.4301 0.2755 -0.0213 0.1640 Uiso
H32 H 0.3274 0.2974 -0.1147 0.1640 Uiso
C33 C 0.089(8) 0.186(4) 0.180(7) 0.1951 Uani
H33 H 0.1096 0.1590 0.2252 0.2340 Uiso
H34 H 0.0153 0.1846 0.1318 0.2340 Uiso
C34 C 0.107(10) 0.223(2) 0.263(5) 0.1944 Uani
H35 H 0.0470 0.2416 0.2288 0.2330 Uiso
H36 H 0.1111 0.2091 0.3302 0.2330 Uiso
C35 C 0.198(6) 0.252(2) 0.303(5) 0.1221 Uani
H37 H 0.2518 0.2361 0.3685 0.1470 Uiso
H38 H 0.1806 0.2770 0.3344 0.1470 Uiso
C36 C 0.346(5) 0.2992(19) 0.291(4) 0.1043 Uani
H39 H 0.3469 0.3212 0.3449 0.1260 Uiso
H40 H 0.4047 0.2798 0.3328 0.1260 Uiso
C37 C 0.350(4) 0.3203(14) 0.195(6) 0.1332 Uani
H41 H 0.3969 0.3451 0.2297 0.1600 Uiso
H42 H 0.2829 0.3332 0.1465 0.1600 Uiso
C38 C 0.381(4) 0.2989(16) 0.117(5) 0.1015 Uani
H43 H 0.3732 0.3198 0.0583 0.1210 Uiso
H44 H 0.4514 0.2890 0.1591 0.1210 Uiso
W1A W -0.00347(13) 0.62235(5) 0.42341(13) 0.0705 Uani
W1C W 0.49653(13) 0.12235(5) 0.42341(13) 0.0705 Uani
C3C C -0.104(2) 0.3309(8) -0.209(2) 0.0358 Uani
C4A C -0.021(2) 0.4030(8) -0.238(2) 0.0316 Uani
loop_
_atom_site_aniso_label
_atom_site_aniso_U_11
_atom_site_aniso_U_22
_atom_site_aniso_U_33
_atom_site_aniso_U_23
_atom_site_aniso_U_13
_atom_site_aniso_U_12
W1 0.0779(11) 0.0634(9) 0.0670(9) 0.0015(8) 0.0337(8) -0.0003(8)
Ni1 0.0444(19) 0.0230(14) 0.0274(14) -0.0042(12) 0.0215(14) -0.0024(14)
Ni2 0.049(2) 0.0287(17) 0.043(2) 0.0048(15) 0.0002(17) 0.0127(16)
N1 0.050(14) 0.023(10) 0.032(11) 0.000(8) 0.027(10) 0.005(9)
N2 0.047(15) 0.030(12) 0.047(14) 0.011(10) 0.009(11) 0.014(10)
N3 0.048(15) 0.035(12) 0.037(12) 0.002(10) -0.003(11) 0.016(11)
N4 0.042(13) 0.043(12) 0.026(11) 0.004(9) 0.012(9) 0.005(10)
N5 0.050(16) 0.062(15) 0.023(12) -0.018(10) 0.008(11) -0.003(12)
N6 0.036(16) 0.047(16) 0.16(3) -0.028(19) 0.040(19) -0.011(13)
N7 0.028(14) 0.082(19) 0.056(16) 0.019(14) 0.016(12) 0.002(13)
N8 0.07(2) 0.12(3) 0.07(2) 0.016(19) 0.051(18) -0.01(2)
N9 0.058(16) 0.041(13) 0.059(15) -0.017(11) 0.035(13) -0.015(12)
N10 0.10(2) 0.028(11) 0.041(13) 0.008(10) 0.044(15) 0.019(13)
N11 0.054(16) 0.037(12) 0.056(15) -0.010(10) 0.031(12) -0.008(11)
N12 0.064(16) 0.028(11) 0.049(13) -0.007(9) 0.039(12) -0.003(11)
N13 0.055(18) 0.036(14) 0.09(2) -0.013(14) -0.002(16) 0.023(13)
N14 0.11(3) 0.06(2) 0.10(3) 0.05(2) 0.04(3) 0.03(2)
N15 0.21(6) 0.045(18) 0.05(2) 0.020(15) 0.03(3) 0.01(3)
N16 0.07(2) 0.048(17) 0.09(3) 0.012(16) -0.011(19) -0.004(15)
C1 0.046(7) 0.040(7) 0.021(6) 0.003(5) 0.017(5) -0.003(6)
C2 0.044(7) 0.041(7) 0.029(6) -0.001(6) 0.011(6) 0.000(7)
C3 0.043 0.029 0.029 0.001 0.013 0.001
C4 0.042 0.027 0.026 -0.007 0.017 -0.004
C5 0.050(7) 0.041(6) 0.015(6) 0.002(5) 0.011(5) 0.000(6)
C6 0.039(7) 0.030(7) 0.034(6) 0.003(6) 0.015(6) 0.005(6)
C7 0.051(7) 0.033(6) 0.027(6) 0.007(6) 0.016(6) 0.005(6)
C8 0.053(7) 0.047(7) 0.031(6) 0.001(6) 0.019(6) 0.001(6)
C9 0.068(8) 0.035(7) 0.065(8) -0.008(7) 0.024(7) 0.002(7)
C10 0.054(8) 0.083(8) 0.069(8) -0.014(7) 0.004(8) 0.009(7)
C11 0.059(9) 0.132(8) 0.080(8) -0.016(8) 0.032(8) -0.017(8)
C12 0.066(8) 0.053(8) 0.089(8) -0.012(7) 0.035(7) -0.007(7)
C13 0.061(8) 0.046(7) 0.065(7) -0.012(6) 0.030(7) 0.002(6)
C14 0.070(8) 0.035(7) 0.050(7) -0.009(6) 0.035(6) -0.003(7)
C15 0.089(13) 0.043(11) 0.064(12) 0.004(10) 0.053(10) -0.005(11)
C16 0.052(8) 0.042(7) 0.053(7) -0.008(6) 0.017(7) 0.009(7)
C17 0.070(13) 0.099(13) 0.048(12) 0.023(11) 0.009(11) 0.004(13)
C18 0.137(10) 0.029(8) 0.032(8) -0.001(7) 0.035(8) 0.017(8)
C19 0.085(7) 0.040(6) 0.068(6) 0.001(6) 0.062(6) -0.003(6)
C20 0.077(9) 0.046(8) 0.055(8) -0.016(7) 0.048(7) -0.009(8)
C21 0.058(9) 0.064(8) 0.052(8) -0.018(7) 0.018(7) 0.000(8)
C22 0.076(10) 0.065(9) 0.050(9) -0.009(8) 0.033(8) 0.016(9)
C23 0.060(9) 0.049(8) 0.042(8) -0.006(7) 0.023(7) 0.006(7)
C24 0.066(8) 0.044(7) 0.089(8) 0.004(7) 0.011(7) 0.021(7)
C25 0.050(8) 0.069(8) 0.090(8) -0.014(7) 0.006(7) 0.020(7)
C26 0.053(9) 0.127(9) 0.098(9) -0.030(8) 0.011(8) 0.029(8)
C27 0.083(7) 0.078(6) 0.081(7) 0.002(5) 0.037(5) 0.010(5)
C28 0.062(7) 0.068(7) 0.085(8) 0.016(7) 0.023(7) 0.025(7)
C29 0.059(9) 0.053(8) 0.094(9) 0.005(8) 0.017(8) 0.018(8)
C30 0.090(14) 0.080(13) 0.105(14) 0.029(13) 0.019(13) 0.017(13)
C31 0.067(7) 0.068(7) 0.083(7) 0.007(7) 0.024(6) 0.010(6)
C32 0.092(14) 0.119(14) 0.120(14) -0.023(13) 0.054(13) 0.004(13)
C33 0.171(10) 0.282(10) 0.090(10) -0.004(9) 0.033(10) 0.097(10)
C34 0.345(12) 0.070(11) 0.078(11) 0.014(10) 0.037(11) 0.051(11)
C35 0.150(12) 0.119(11) 0.066(11) 0.008(10) 0.030(11) 0.065(11)
C36 0.104(10) 0.095(10) 0.067(10) 0.006(9) 0.007(10) 0.057(10)
C37 0.072(8) 0.045(8) 0.157(8) -0.014(7) -0.038(8) 0.005(7)
C38 0.068(9) 0.068(9) 0.112(9) 0.010(8) 0.002(8) 0.001(8)
W1A 0.0779 0.0634 0.067 -0.0015 0.0337 0.0003
W1C 0.0779 0.0634 0.067 -0.0015 0.0337 0.0003
C3C 0.043 0.029 0.029 -0.001 0.013 -0.001
C4A 0.042 0.027 0.026 0.007 0.017 0.004
loop_
_geom_bond_atom_site_label_1
_geom_bond_atom_site_label_2
_geom_bond_site_symmetry_1
_geom_bond_site_symmetry_2
W1 C1 1_555 1_555
Ni1 N1 1_555 1_555
Ni2 N2 1_555 1_555
N1 C1 1_555 1_555
N2 C2 1_555 1_555
N3 Ni2 1_555 1_555
N4 Ni1 1_555 1_555
N5 C5 1_555 1_555
N6 C6 1_555 1_555
N7 C7 1_555 1_555
N8 C8 1_555 1_555
N9 Ni1 1_555 1_555
N10 Ni1 1_555 1_555
N11 Ni1 1_555 1_555
H1 N11 1_555 1_555
N12 Ni1 1_555 1_555
N13 Ni2 1_555 1_555
N14 Ni2 1_555 1_555
N15 Ni2 1_555 1_555
H2 N15 1_555 1_555
N16 Ni2 1_555 1_555
C2 W1 1_555 1_555
C3 N3 1_555 1_555
C4 N4 1_555 1_555
C5 W1 1_555 1_555
C6 W1 1_555 1_555
C7 W1 1_555 1_555
C8 W1 1_555 1_555
C9 N9 1_555 1_555
C10 C9 1_555 1_555
H3 C10 1_555 1_555
C11 C10 1_555 1_555
H4 C11 1_555 1_555
C12 C11 1_555 1_555
H5 C12 1_555 1_555
C13 N9 1_555 1_555
C14 N12 1_555 1_555
C15 C14 1_555 1_555
H6 C15 1_555 1_555
H7 C15 1_555 1_555
H8 C15 1_555 1_555
C16 N10 1_555 1_555
C17 C16 1_555 1_555
H9 C17 1_555 1_555
H10 C17 1_555 1_555
H11 C17 1_555 1_555
C18 N10 1_555 1_555
H12 C18 1_555 1_555
H13 C18 1_555 1_555
C19 C18 1_555 1_555
H14 C19 1_555 1_555
H15 C19 1_555 1_555
C20 N11 1_555 1_555
H16 C20 1_555 1_555
H17 C20 1_555 1_555
C21 N11 1_555 1_555
H18 C21 1_555 1_555
H19 C21 1_555 1_555
C22 C21 1_555 1_555
H20 C22 1_555 1_555
H21 C22 1_555 1_555
C23 N12 1_555 1_555
H22 C23 1_555 1_555
H23 C23 1_555 1_555
C24 N13 1_555 1_555
C25 C24 1_555 1_555
H24 C25 1_555 1_555
C26 C25 1_555 1_555
H25 C26 1_555 1_555
C27 C26 1_555 1_555
H26 C27 1_555 1_555
C28 N13 1_555 1_555
C29 N14 1_555 1_555
C30 C29 1_555 1_555
H27 C30 1_555 1_555
H28 C30 1_555 1_555
H29 C30 1_555 1_555
C31 N16 1_555 1_555
C32 C31 1_555 1_555
H30 C32 1_555 1_555
H31 C32 1_555 1_555
H32 C32 1_555 1_555
C33 N14 1_555 1_555
H33 C33 1_555 1_555
H34 C33 1_555 1_555
C34 C33 1_555 1_555
H35 C34 1_555 1_555
H36 C34 1_555 1_555
C35 N15 1_555 1_555
H37 C35 1_555 1_555
H38 C35 1_555 1_555
C36 N15 1_555 1_555
H39 C36 1_555 1_555
H40 C36 1_555 1_555
C37 C36 1_555 1_555
H41 C37 1_555 1_555
H42 C37 1_555 1_555
C38 N16 1_555 1_555
H43 C38 1_555 1_555
H44 C38 1_555 1_555
W1A C4 1_555 1_555
W1C C3 1_555 1_555
C3C W1 1_555 1_555
C4A W1 1_555 1_555
C9 C16 1_555 1_555
C12 C13 1_555 1_555
C13 C14 1_555 1_555
C19 C20 1_555 1_555
C22 C23 1_555 1_555
C24 C29 1_555 1_555
C27 C28 1_555 1_555
C28 C31 1_555 1_555
C34 C35 1_555 1_555
C37 C38 1_555 1_555

#END
