
#######################################################################
#
#                 Cambridge Crystallographic Data Centre
#                                CCDC 
#
#######################################################################
#
# If this CIF has been generated from an entry in the Cambridge 
# Structural Database, then it will include bibliographic, chemical, 
# crystal, experimental, refinement or atomic coordinate data resulting 
# from the CCDC's data processing and validation procedures.
#
#######################################################################

data_KILFUI01
_chemical_formula_moiety         '(C38 H44 N16 Ni2 W1)n'
_symmetry_cell_setting           cubic
_symmetry_space_group_name_H-M   'I a -3 d'
_symmetry_Int_Tables_number      230
_space_group_name_Hall           '-I 4bd 2c 3'
loop_
_symmetry_equiv_pos_site_id
_symmetry_equiv_pos_as_xyz
1 x,y,z
2 1/2-x,-y,1/2+z
3 -x,1/2+y,1/2-z
4 1/2+x,1/2-y,-z
5 z,x,y
6 1/2+z,1/2-x,-y
7 1/2-z,-x,1/2+y
8 -z,1/2+x,1/2-y
9 y,z,x
10 -y,1/2+z,1/2-x
11 1/2+y,1/2-z,-x
12 1/2-y,-z,1/2+x
13 3/4+y,1/4+x,1/4-z
14 3/4-y,3/4-x,3/4-z
15 1/4+y,1/4-x,3/4+z
16 1/4-y,3/4+x,1/4+z
17 3/4+x,1/4+z,1/4-y
18 1/4-x,3/4+z,1/4+y
19 3/4-x,3/4-z,3/4-y
20 1/4+x,1/4-z,3/4+y
21 3/4+z,1/4+y,1/4-x
22 1/4+z,1/4-y,3/4+x
23 1/4-z,3/4+y,1/4+x
24 3/4-z,3/4-y,3/4-x
25 1/2+x,1/2+y,1/2+z
26 -x,1/2-y,z
27 1/2-x,y,-z
28 x,-y,1/2-z
29 1/2+z,1/2+x,1/2+y
30 z,-x,1/2-y
31 -z,1/2-x,y
32 1/2-z,x,-y
33 1/2+y,1/2+z,1/2+x
34 1/2-y,z,-x
35 y,-z,1/2-x
36 -y,1/2-z,x
37 1/4+y,3/4+x,3/4-z
38 1/4-y,1/4-x,1/4-z
39 3/4+y,3/4-x,1/4+z
40 3/4-y,1/4+x,3/4+z
41 1/4+x,3/4+z,3/4-y
42 3/4-x,1/4+z,3/4+y
43 1/4-x,1/4-z,1/4-y
44 3/4+x,3/4-z,1/4+y
45 1/4+z,3/4+y,3/4-x
46 3/4+z,3/4-y,1/4+x
47 3/4-z,1/4+y,3/4+x
48 1/4-z,1/4-y,1/4-x
49 -x,-y,-z
50 1/2+x,y,1/2-z
51 x,1/2-y,1/2+z
52 1/2-x,1/2+y,z
53 -z,-x,-y
54 1/2-z,1/2+x,y
55 1/2+z,x,1/2-y
56 z,1/2-x,1/2+y
57 -y,-z,-x
58 y,1/2-z,1/2+x
59 1/2-y,1/2+z,x
60 1/2+y,z,1/2-x
61 1/4-y,3/4-x,3/4+z
62 1/4+y,1/4+x,1/4+z
63 3/4-y,3/4+x,1/4-z
64 3/4+y,1/4-x,3/4-z
65 1/4-x,3/4-z,3/4+y
66 3/4+x,1/4-z,3/4-y
67 1/4+x,1/4+z,1/4+y
68 3/4-x,3/4+z,1/4-y
69 1/4-z,3/4-y,3/4+x
70 3/4-z,3/4+y,1/4-x
71 3/4+z,1/4-y,3/4-x
72 1/4+z,1/4+y,1/4+x
73 1/2-x,1/2-y,1/2-z
74 x,1/2+y,-z
75 1/2+x,-y,z
76 -x,y,1/2+z
77 1/2-z,1/2-x,1/2-y
78 -z,x,1/2+y
79 z,1/2+x,-y
80 1/2+z,-x,y
81 1/2-y,1/2-z,1/2-x
82 1/2+y,-z,x
83 -y,z,1/2+x
84 y,1/2+z,-x
85 3/4-y,1/4-x,1/4+z
86 3/4+y,3/4+x,3/4+z
87 1/4-y,1/4+x,3/4-z
88 1/4+y,3/4-x,1/4-z
89 3/4-x,1/4-z,1/4+y
90 1/4+x,3/4-z,1/4-y
91 3/4+x,3/4+z,3/4+y
92 1/4-x,1/4+z,3/4-y
93 3/4-z,1/4-y,1/4+x
94 1/4-z,1/4+y,3/4-x
95 1/4+z,3/4-y,1/4-x
96 3/4+z,3/4+y,3/4+x
_cell_length_a                   33.420(3)
_cell_length_b                   33.420(3)
_cell_length_c                   33.420(3)
_cell_angle_alpha                90
_cell_angle_beta                 90
_cell_angle_gamma                90
_cell_volume                     37326.7
loop_
_atom_site_label
_atom_site_type_symbol
_atom_site_fract_x
_atom_site_fract_y
_atom_site_fract_z
W1 W 0.1250 -0.0000 0.7500
Ni1 Ni 0.16906(7) 0.08094(7) 0.6250
N1 N 0.1577(8) 0.0633(8) 0.6826(7)
N2 N 0.2064(6) 0.0410(7) 0.7906(6)
N3 N 0.2161(9) 0.0339(9) 0.6250
N4 N 0.1173(11) 0.0409(12) 0.6071(8)
N5 N 0.1254(11) 0.1246(11) 0.6250
C1 C 0.1459(8) 0.0445(9) 0.7090(7)
C2 C 0.1783(10) 0.0275(9) 0.7753(7)
C3 C 0.0879(14) 0.1101(17) 0.6148(10)
C4 C 0.0863(17) 0.0660(18) 0.6057(10)
C5 C 0.0447(12) 0.0524(13) 0.5948(10)
H1 H 0.0454 0.0388 0.5696
H2 H 0.0274 0.0753 0.5929
H3 H 0.0349 0.0346 0.6151
C6 C 0.1324(12) 0.0048(13) 0.5878(11)
H4 H 0.1438 0.0124 0.5622
H5 H 0.1098 -0.0125 0.5823
C7 C 0.1633(13) -0.0191(13) 0.6103(10)
H6 H 0.1625 -0.0466 0.6009
H7 H 0.1562 -0.0193 0.6385
C8 C 0.2060(13) -0.0036(12) 0.6061(10)
H8 H 0.2239 -0.0239 0.6167
H9 H 0.2117 -0.0011 0.5778
C9 C 0.0580(17) 0.1401(11) 0.6148(10)
H10 H 0.0316 0.1340 0.6084
C10 C 0.0694(16) 0.1806(16) 0.6250
H11 H 0.0497 0.2003 0.6250
N4KA N 0.2091(12) 0.1327(11) 0.6429(8)
C3KA C 0.1399(17) 0.1621(14) 0.6352(10)
C4KA C 0.1840(18) 0.1637(17) 0.6443(10)
C5KA C 0.1976(13) 0.2053(12) 0.6552(10)
H1KA H 0.2112 0.2046 0.6804
H2KA H 0.1747 0.2226 0.6571
H3KA H 0.2154 0.2151 0.6349
C6KA C 0.2452(13) 0.1176(12) 0.6622(11)
H4KA H 0.2376 0.1062 0.6878
H5KA H 0.2625 0.1402 0.6677
C7KA C 0.2691(13) 0.0867(13) 0.6397(10)
H6KA H 0.2966 0.0875 0.6491
H7KA H 0.2693 0.0938 0.6115
C8KA C 0.2536(12) 0.0440(13) 0.6439(10)
H8KA H 0.2739 0.0261 0.6333
H9KA H 0.2511 0.0383 0.6722
C9KA C 0.1099(11) 0.1920(17) 0.6352(10)
H10KA H 0.1160 0.2184 0.6416
N1AA N 0.1577(8) -0.0633(8) 0.8174(7)
N2AA N 0.2064(6) -0.0410(7) 0.7094(6)
C1AA C 0.1459(8) -0.0445(9) 0.7910(7)
C2AA C 0.1783(10) -0.0275(9) 0.7247(7)
Ni1LB Ni 0.08094(7) 0.1250 0.83094(7)
N1LB N 0.0923(8) 0.0674(7) 0.8133(8)
N2LB N 0.0436(6) -0.0406(6) 0.7910(7)
N3LB N 0.0339(9) 0.1250 0.7839(9)
N4LB N 0.1327(11) 0.1429(8) 0.7909(12)
N5LB N 0.1246(11) 0.1250 0.8746(11)
C1LB C 0.1041(8) 0.0410(7) 0.7945(9)
C2LB C 0.0717(10) -0.0253(7) 0.7775(9)
C3LB C 0.1621(14) 0.1352(10) 0.8601(17)
C4LB C 0.1637(17) 0.1443(10) 0.8160(18)
C5LB C 0.2053(12) 0.1552(10) 0.8024(13)
H1LB H 0.2046 0.1804 0.7888
H2LB H 0.2226 0.1571 0.8253
H3LB H 0.2151 0.1349 0.7846
C6LB C 0.1176(12) 0.1622(11) 0.7548(13)
H4LB H 0.1062 0.1878 0.7624
H5LB H 0.1402 0.1677 0.7375
C7LB C 0.0867(13) 0.1397(10) 0.7309(13)
H6LB H 0.0875 0.1491 0.7034
H7LB H 0.0938 0.1115 0.7307
C8LB C 0.0440(13) 0.1439(10) 0.7464(12)
H8LB H 0.0261 0.1333 0.7261
H9LB H 0.0383 0.1722 0.7489
C9LB C 0.1920(17) 0.1352(10) 0.8901(11)
H10LB H 0.2184 0.1416 0.8840
C10LB C 0.1806(16) 0.1250 0.9306(16)
H11LB H 0.2003 0.1250 0.9503
N4EC N 0.0409(12) 0.1071(8) 0.8827(11)
C3EC C 0.1101(17) 0.1148(10) 0.9121(14)
C4EC C 0.0660(18) 0.1057(10) 0.9137(17)
C5EC C 0.0524(13) 0.0948(10) 0.9553(12)
H1EC H 0.0388 0.0696 0.9546
H2EC H 0.0753 0.0929 0.9726
H3EC H 0.0346 0.1151 0.9651
C6EC C 0.0048(13) 0.0878(11) 0.8676(12)
H4EC H 0.0124 0.0622 0.8562
H5EC H -0.0125 0.0823 0.8902
C7EC C -0.0191(13) 0.1103(10) 0.8367(13)
H6EC H -0.0466 0.1009 0.8375
H7EC H -0.0193 0.1385 0.8438
C8EC C -0.0036(12) 0.1061(10) 0.7940(13)
H8EC H -0.0239 0.1167 0.7761
H9EC H -0.0011 0.0778 0.7883
C9EC C 0.1401(11) 0.1148(10) 0.9420(17)
H10EC H 0.1340 0.1084 0.9684
N1EC N 0.0633(8) 0.1826(7) 0.8423(8)
C1EC C 0.0445(9) 0.2090(7) 0.8541(8)
N2MC N 0.0436(6) 0.0406(6) 0.7090(7)
C2MC C 0.0717(10) 0.0253(7) 0.7225(9)
W1U W -0.0000 0.2500 0.8750
Ni1O Ni 0.16906(7) -0.08094(7) 0.8750
N1KA N 0.1867(8) 0.0923(8) 0.5674(7)
C1MC C 0.1041(8) -0.0410(7) 0.7055(9)
loop_
_geom_bond_atom_site_label_1
_geom_bond_atom_site_label_2
_geom_bond_site_symmetry_1
_geom_bond_site_symmetry_2
W1 C1 1_555 1_555
Ni1 N1 1_555 1_555
N1 C1 1_555 1_555
N2 C2 1_555 1_555
N3 Ni1 1_555 1_555
N4 Ni1 1_555 1_555
N5 Ni1 1_555 1_555
C2 W1 1_555 1_555
C3 N5 1_555 1_555
C4 N4 1_555 1_555
C5 C4 1_555 1_555
H1 C5 1_555 1_555
H2 C5 1_555 1_555
H3 C5 1_555 1_555
C6 N4 1_555 1_555
H4 C6 1_555 1_555
H5 C6 1_555 1_555
C7 C6 1_555 1_555
H6 C7 1_555 1_555
H7 C7 1_555 1_555
C8 N3 1_555 1_555
H8 C8 1_555 1_555
H9 C8 1_555 1_555
C9 C3 1_555 1_555
H10 C9 1_555 1_555
C10 C9 1_555 1_555
H11 C10 1_555 1_555
N4KA Ni1 1_555 1_555
C3KA N5 1_555 1_555
C4KA N4KA 1_555 1_555
C5KA C4KA 1_555 1_555
H1KA C5KA 1_555 1_555
H2KA C5KA 1_555 1_555
H3KA C5KA 1_555 1_555
C6KA N4KA 1_555 1_555
H4KA C6KA 1_555 1_555
H5KA C6KA 1_555 1_555
C7KA C6KA 1_555 1_555
H6KA C7KA 1_555 1_555
H7KA C7KA 1_555 1_555
C8KA N3 1_555 1_555
H8KA C8KA 1_555 1_555
H9KA C8KA 1_555 1_555
C9KA C10 1_555 1_555
H10KA C9KA 1_555 1_555
N1AA C1AA 1_555 1_555
N2AA C2AA 1_555 1_555
C1AA W1 1_555 1_555
C2AA W1 1_555 1_555
Ni1LB N1LB 1_555 1_555
N1LB C1LB 1_555 1_555
N2LB C2LB 1_555 1_555
N3LB Ni1LB 1_555 1_555
N4LB Ni1LB 1_555 1_555
N5LB Ni1LB 1_555 1_555
C1LB W1 1_555 1_555
C2LB W1 1_555 1_555
C3LB N5LB 1_555 1_555
C4LB N4LB 1_555 1_555
C5LB C4LB 1_555 1_555
H1LB C5LB 1_555 1_555
H2LB C5LB 1_555 1_555
H3LB C5LB 1_555 1_555
C6LB N4LB 1_555 1_555
H4LB C6LB 1_555 1_555
H5LB C6LB 1_555 1_555
C7LB C6LB 1_555 1_555
H6LB C7LB 1_555 1_555
H7LB C7LB 1_555 1_555
C8LB N3LB 1_555 1_555
H8LB C8LB 1_555 1_555
H9LB C8LB 1_555 1_555
C9LB C3LB 1_555 1_555
H10LB C9LB 1_555 1_555
C10LB C9LB 1_555 1_555
H11LB C10LB 1_555 1_555
N4EC Ni1LB 1_555 1_555
C3EC N5LB 1_555 1_555
C4EC N4EC 1_555 1_555
C5EC C4EC 1_555 1_555
H1EC C5EC 1_555 1_555
H2EC C5EC 1_555 1_555
H3EC C5EC 1_555 1_555
C6EC N4EC 1_555 1_555
H4EC C6EC 1_555 1_555
H5EC C6EC 1_555 1_555
C7EC C6EC 1_555 1_555
H6EC C7EC 1_555 1_555
H7EC C7EC 1_555 1_555
C8EC N3LB 1_555 1_555
H8EC C8EC 1_555 1_555
H9EC C8EC 1_555 1_555
C9EC C10LB 1_555 1_555
H10EC C9EC 1_555 1_555
N1EC Ni1LB 1_555 1_555
C1EC N1EC 1_555 1_555
N2MC C2MC 1_555 1_555
C2MC W1 1_555 1_555
W1U C1EC 1_555 1_555
Ni1O N1AA 1_555 1_555
N1KA Ni1 1_555 1_555
C1MC W1 1_555 1_555
C3 C4 1_555 1_555
C7 C8 1_555 1_555
C3KA C4KA 1_555 1_555
C3KA C9KA 1_555 1_555
C7KA C8KA 1_555 1_555
C3LB C4LB 1_555 1_555
C7LB C8LB 1_555 1_555
C3EC C4EC 1_555 1_555
C3EC C9EC 1_555 1_555
C7EC C8EC 1_555 1_555

#END
