
#######################################################################
#
#                 Cambridge Crystallographic Data Centre
#                                CCDC 
#
#######################################################################
#
# If this CIF has been generated from an entry in the Cambridge 
# Structural Database, then it will include bibliographic, chemical, 
# crystal, experimental, refinement or atomic coordinate data resulting 
# from the CCDC's data processing and validation procedures.
#
#######################################################################

data_LOKPEG
_chemical_formula_moiety         '(Ga1 O4 P1)n'
_symmetry_cell_setting           monoclinic
_symmetry_space_group_name_H-M   'I 2/a'
_symmetry_Int_Tables_number      15
_space_group_name_Hall           '-I 2ya'
loop_
_symmetry_equiv_pos_site_id
_symmetry_equiv_pos_as_xyz
1 x,y,z
2 1/2-x,y,-z
3 1/2+x,1/2+y,1/2+z
4 -x,1/2+y,1/2-z
5 -x,-y,-z
6 1/2+x,-y,z
7 1/2-x,1/2-y,1/2-z
8 x,1/2-y,1/2+z
_cell_length_a                   10.041(1)
_cell_length_b                   9.220(1)
_cell_length_c                   10.469(2)
_cell_angle_alpha                90
_cell_angle_beta                 91.60(1)
_cell_angle_gamma                90
_cell_volume                     968.821
loop_
_atom_site_label
_atom_site_type_symbol
_atom_site_fract_x
_atom_site_fract_y
_atom_site_fract_z
Ga1 Ga 0.37134(5) 0.09184(4) -0.16105(4)
P1 P 0.5719(1) -0.16635(9) -0.1258(1)
O1 O 0.6867(4) -0.0657(3) -0.1581(4)
O2 O 0.5810(4) -0.3142(3) -0.1896(3)
O3 O 0.4405(4) -0.0966(3) -0.1683(4)
O4 O 0.5707(4) -0.1982(3) 0.0182(3)
O1E O 0.1867(4) 0.0657(3) -0.1581(4)
Ga1E Ga 0.87134(5) -0.09184(4) -0.16105(4)
Ga1C Ga 0.62866(5) -0.40816(4) -0.33895(4)
O2C O 0.4190(4) 0.1858(3) -0.3104(3)
O4D O 0.4293(4) 0.1982(3) -0.0182(3)
Ga1D Ga 0.62866(5) -0.09184(4) 0.16105(4)
loop_
_geom_bond_atom_site_label_1
_geom_bond_atom_site_label_2
_geom_bond_site_symmetry_1
_geom_bond_site_symmetry_2
Ga1 O3 1_555 1_555
P1 O1 1_555 1_555
O1 Ga1E 1_555 1_555
O2 P1 1_555 1_555
O3 P1 1_555 1_555
O4 P1 1_555 1_555
O1E Ga1 1_555 1_555
Ga1C O2 1_555 1_555
O2C Ga1 1_555 1_555
O4D Ga1 1_555 1_555
Ga1D O4 1_555 1_555

#END
