
#######################################################################
#
#                 Cambridge Crystallographic Data Centre
#                                CCDC 
#
#######################################################################
#
# If this CIF has been generated from an entry in the Cambridge 
# Structural Database, then it will include bibliographic, chemical, 
# crystal, experimental, refinement or atomic coordinate data resulting 
# from the CCDC's data processing and validation procedures.
#
#######################################################################

data_EBATUY
_chemical_formula_moiety         '(C43 H35 Cd3 N17 O6 S6)n'
_symmetry_cell_setting           triclinic
_symmetry_space_group_name_H-M   'P -1'
_symmetry_Int_Tables_number      2
_space_group_name_Hall           '-P 1'
loop_
_symmetry_equiv_pos_site_id
_symmetry_equiv_pos_as_xyz
1 x,y,z
2 -x,-y,-z
_cell_length_a                   11.341(5)
_cell_length_b                   12.230(5)
_cell_length_c                   15.251(5)
_cell_angle_alpha                93.340(5)
_cell_angle_beta                 107.371(5)
_cell_angle_gamma                117.031(5)
_cell_volume                     1750.88
loop_
_atom_site_label
_atom_site_type_symbol
_atom_site_fract_x
_atom_site_fract_y
_atom_site_fract_z
Cd1 Cd -0.23232(5) -0.29727(5) 0.62807(3)
Cd2 Cd -0.0000 -0.0000 1.0000
S1 S -0.29801(19) -0.55365(18) 0.60510(13)
S2 S -0.1821(3) -0.0606(2) 0.64803(14)
S3 S 0.0460(3) -0.1969(2) 0.96747(14)
N1 N -0.0826(6) 0.7164(6) 0.5499(4)
N2 N 0.5942(6) 0.6384(5) 0.6983(4)
N3 N -0.5896(7) -0.6564(6) 0.5158(4)
N4 N 0.4019(6) 0.3792(6) 0.8989(4)
H1 H 0.3289 0.3886 0.8760
C1 C 0.4813(7) 0.6545(6) 0.6655(5)
H2 H 0.4776 0.7019 0.6202
C2 C -0.4698(7) -0.6147(6) 0.5521(4)
C3 C 0.3693(7) 0.6020(7) 0.6976(5)
N5 N 0.2080(6) 0.6490(6) 0.5814(4)
H3 H 0.2569 0.6486 0.5479
C4 C -0.0201(7) -0.2333(7) 0.8518(5)
C5 C 0.2434(8) 0.6216(8) 0.6669(5)
C6 C 0.3937(8) 0.2979(7) 0.9602(5)
N6 N 0.2367(7) 0.1390(6) 1.0171(4)
N7 N -0.0670(7) -0.2620(6) 0.7708(4)
N8 N -0.0768(9) 0.0041(6) 0.8454(5)
C7 C -0.1220(9) -0.0254(7) 0.7639(5)
C8 C 0.5974(7) 0.5712(6) 0.7635(5)
H4 H 0.6765 0.5609 0.7866
C9 C -0.1031(9) 0.7381(9) 0.4624(5)
H5 H -0.1739 0.7577 0.4348
O1 O 0.6272(7) 0.4494(7) 0.9070(5)
C10 C 0.5126(8) 0.4445(7) 0.8719(5)
C11 C 0.1022(7) 0.6773(7) 0.5424(4)
O2 O 0.1794(8) 0.6128(9) 0.7176(5)
C12 C 0.0175(7) 0.6858(7) 0.5882(5)
H6 H 0.0307 0.6696 0.6482
C13 C 0.4914(8) 0.5159(7) 0.7987(5)
C14 C 0.2601(8) 0.2234(7) 0.9643(5)
H7 H 0.1846 0.2331 0.9287
C15 C 0.3757(8) 0.5320(7) 0.7643(5)
H8 H 0.3013 0.4955 0.7861
C16 C -0.0233(10) 0.7319(10) 0.4133(6)
H9 H -0.0380 0.7493 0.3537
C17 C 0.5042(10) 0.2829(9) 1.0141(6)
H10 H 0.5951 0.3312 1.0135
C18 C 0.0798(9) 0.6999(10) 0.4524(6)
H11 H 0.1336 0.6936 0.4189
C19 C 0.3458(11) 0.1285(8) 1.0688(6)
H12 H 0.3309 0.0715 1.1076
C20 C 0.4788(11) 0.1972(10) 1.0678(6)
H13 H 0.5521 0.1853 1.1040
Cd1A Cd 0.23232(5) 0.29727(5) 1.37193(3)
Cd1_2 Cd -0.23232(5) 0.70273(5) 0.62807(3)
Cd1_3 Cd 0.76768(5) 0.70273(5) 0.62807(3)
Cd1A_2 Cd -0.76768(5) -0.70273(5) 0.37193(3)
Cd1A_3 Cd 0.23232(5) -0.70273(5) 1.37193(3)
Cd1A_4 Cd -0.76768(5) -0.70273(5) 1.37193(3)
S1A S -0.70199(19) -0.44635(18) 0.39490(13)
S1A_2 S 0.29801(19) 0.55365(18) 1.39490(13)
S2A S 0.1821(3) 0.0606(2) 1.35197(14)
S3A S -0.0460(3) 0.1969(2) 1.03253(14)
N1A N 0.0826(6) -0.7164(6) 1.4501(4)
N1_2 N -0.0826(6) -0.2836(6) 0.5499(4)
N1A_2 N 0.0826(6) 0.2836(6) 1.4501(4)
N2A N -0.5942(6) -0.6384(5) 1.3017(4)
N2_2 N -0.4058(6) -0.3616(5) 0.6983(4)
N2A_2 N 0.4058(6) 0.3616(5) 1.3017(4)
N3A N -0.4104(7) -0.3436(6) 0.4842(4)
N3_2 N 0.4104(7) 0.3436(6) 1.5158(4)
N4A N -0.4019(6) -0.3792(6) 1.1011(4)
H1A H -0.3289 -0.3886 1.1240
C1A C -0.4813(7) -0.6545(6) 1.3345(5)
H2A H -0.4776 -0.7019 1.3798
C2A C -0.5302(7) -0.3853(6) 0.4479(4)
C3A C -0.3693(7) -0.6020(7) 1.3024(5)
N5A N -0.2080(6) -0.6490(6) 1.4186(4)
H3A H -0.2569 -0.6486 1.4521
C4A C 0.0201(7) 0.2333(7) 1.1482(5)
C5A C -0.2434(8) -0.6216(8) 1.3331(5)
C6A C -0.3937(8) -0.2979(7) 1.0398(5)
N6A N -0.2367(7) -0.1390(6) 0.9829(4)
N7A N 0.0670(7) 0.2620(6) 1.2292(4)
N8A N 0.0768(9) -0.0041(6) 1.1546(5)
C7A C 0.1220(9) 0.0254(7) 1.2361(5)
C8A C -0.5974(7) -0.5712(6) 1.2365(5)
H4A H -0.6765 -0.5609 1.2134
C9A C 0.1031(9) -0.7381(9) 1.5376(5)
H5A H 0.1739 -0.7577 1.5652
O1A O -0.6272(7) -0.4494(7) 1.0930(5)
C10A C -0.5126(8) -0.4445(7) 1.1281(5)
C11A C -0.1022(7) -0.6773(7) 1.4576(4)
O2A O -0.1794(8) -0.6128(9) 1.2824(5)
C12A C -0.0175(7) -0.6858(7) 1.4118(5)
H6A H -0.0307 -0.6696 1.3518
C13A C -0.4914(8) -0.5159(7) 1.2013(5)
C14A C -0.2601(8) -0.2234(7) 1.0357(5)
H7A H -0.1846 -0.2331 1.0713
C15A C -0.3757(8) -0.5320(7) 1.2357(5)
H8A H -0.3013 -0.4955 1.2139
C16A C 0.0233(10) -0.7319(10) 1.5867(6)
H9A H 0.0380 -0.7493 1.6463
C17A C -0.5042(10) -0.2829(9) 0.9859(6)
H10A H -0.5951 -0.3312 0.9865
C18A C -0.0798(9) -0.6999(10) 1.5476(6)
H11A H -0.1336 -0.6936 1.5811
C19A C -0.3458(11) -0.1285(8) 0.9312(6)
H12A H -0.3309 -0.0715 0.8924
C20A C -0.4788(11) -0.1972(10) 0.9322(6)
H13A H -0.5521 -0.1853 0.8960
O3 O -0.1169(9) -0.3527(8) 1.1736(6)
N9 N 0.0874(14) -0.3433(13) 1.1744(9)
C21 C -0.0648(15) -0.4090(14) 1.1444(10)
H14 H -0.1207 -0.4894 1.1051
C22 C 0.163(2) -0.2058(15) 1.2081(17)
H15 H 0.1021 -0.1807 1.2245
H16 H 0.1895 -0.1665 1.1592
H17 H 0.2469 -0.1803 1.2626
C23 C 0.1547(19) -0.394(2) 1.1298(14)
H18 H 0.2562 -0.3413 1.1580
H19 H 0.1238 -0.3959 1.0636
H20 H 0.1287 -0.4778 1.1386
O4 O 0.646(6) -0.120(4) 1.2613(19)
loop_
_geom_bond_atom_site_label_1
_geom_bond_atom_site_label_2
_geom_bond_site_symmetry_1
_geom_bond_site_symmetry_2
Cd1 S1 1_555 1_555
Cd2 S3 1_555 1_555
S1 C2 1_555 1_555
S2 Cd1 1_555 1_555
S3 C4 1_555 1_555
N1 C9 1_555 1_555
N2 C1 1_555 1_555
N3 C2 1_555 1_555
N4 H1 1_555 1_555
C1 H2 1_555 1_555
C3 C1 1_555 1_555
N5 H3 1_555 1_555
C4 N7 1_555 1_555
C5 C3 1_555 1_555
C6 N4 1_555 1_555
N6 Cd2 1_555 1_555
N7 Cd1 1_555 1_555
N8 Cd2 1_555 1_555
C7 S2 1_555 1_555
C8 N2 1_555 1_555
H4 C8 1_555 1_555
C9 H5 1_555 1_555
O1 C10 1_555 1_555
C10 N4 1_555 1_555
C11 N5 1_555 1_555
O2 C5 1_555 1_555
C12 N1 1_555 1_555
H6 C12 1_555 1_555
C13 C8 1_555 1_555
C14 C6 1_555 1_555
H7 C14 1_555 1_555
C15 C3 1_555 1_555
H8 C15 1_555 1_555
C16 C9 1_555 1_555
H9 C16 1_555 1_555
C17 C6 1_555 1_555
H10 C17 1_555 1_555
C18 C11 1_555 1_555
H11 C18 1_555 1_555
C19 N6 1_555 1_555
H12 C19 1_555 1_555
C20 C17 1_555 1_555
H13 C20 1_555 1_555
O3 C21 1_555 1_555
N9 C21 1_555 1_555
C21 H14 1_555 1_555
C22 N9 1_555 1_555
H15 C22 1_555 1_555
H16 C22 1_555 1_555
H17 C22 1_555 1_555
C23 N9 1_555 1_555
H18 C23 1_555 1_555
H19 C23 1_555 1_555
H20 C23 1_555 1_555
Cd1A S1A_2 1_555 1_555
Cd1_2 N1 1_555 1_555
Cd1_3 N2 1_555 1_555
Cd1A_2 N3 1_555 1_555
Cd1A_3 N1A 1_555 1_555
Cd1A_4 N2A 1_555 1_555
S1A Cd1A_2 1_555 1_555
S2A Cd1A 1_555 1_555
S3A Cd2 1_555 1_555
N1A C9A 1_555 1_555
N1_2 Cd1 1_555 1_555
N1A_2 Cd1A 1_555 1_555
N2A C1A 1_555 1_555
N2_2 Cd1 1_555 1_555
N2A_2 Cd1A 1_555 1_555
N3A Cd1 1_555 1_555
N3_2 Cd1A 1_555 1_555
N4A H1A 1_555 1_555
C1A H2A 1_555 1_555
C2A S1A 1_555 1_555
C3A C1A 1_555 1_555
N5A H3A 1_555 1_555
C4A S3A 1_555 1_555
C5A C3A 1_555 1_555
C6A N4A 1_555 1_555
N6A Cd2 1_555 1_555
N7A Cd1A 1_555 1_555
N8A Cd2 1_555 1_555
C7A S2A 1_555 1_555
C8A N2A 1_555 1_555
H4A C8A 1_555 1_555
C9A H5A 1_555 1_555
O1A C10A 1_555 1_555
C10A N4A 1_555 1_555
C11A N5A 1_555 1_555
O2A C5A 1_555 1_555
C12A N1A 1_555 1_555
H6A C12A 1_555 1_555
C13A C8A 1_555 1_555
C14A C6A 1_555 1_555
H7A C14A 1_555 1_555
C15A C3A 1_555 1_555
H8A C15A 1_555 1_555
C16A C9A 1_555 1_555
H9A C16A 1_555 1_555
C17A C6A 1_555 1_555
H10A C17A 1_555 1_555
C18A C11A 1_555 1_555
H11A C18A 1_555 1_555
C19A N6A 1_555 1_555
H12A C19A 1_555 1_555
C20A C17A 1_555 1_555
H13A C20A 1_555 1_555
N5 C5 1_555 1_555
N6 C14 1_555 1_555
N8 C7 1_555 1_555
C10 C13 1_555 1_555
C11 C12 1_555 1_555
C13 C15 1_555 1_555
C16 C18 1_555 1_555
C19 C20 1_555 1_555
N3A C2A 1_555 1_555
N5A C5A 1_555 1_555
C4A N7A 1_555 1_555
N6A C14A 1_555 1_555
N8A C7A 1_555 1_555
C10A C13A 1_555 1_555
C11A C12A 1_555 1_555
C13A C15A 1_555 1_555
C16A C18A 1_555 1_555
C19A C20A 1_555 1_555

#END
