
#######################################################################
#
#                 Cambridge Crystallographic Data Centre
#                                CCDC 
#
#######################################################################
#
# If this CIF has been generated from an entry in the Cambridge 
# Structural Database, then it will include bibliographic, chemical, 
# crystal, experimental, refinement or atomic coordinate data resulting 
# from the CCDC's data processing and validation procedures.
#
#######################################################################

data_INIQUR
_chemical_formula_moiety         '(C30 H63 Fe2 N21 Ni3 O6)n'
_symmetry_cell_setting           monoclinic
_symmetry_space_group_name_H-M   'C 2/c'
_symmetry_Int_Tables_number      15
_space_group_name_Hall           '-C 2yc'
loop_
_symmetry_equiv_pos_site_id
_symmetry_equiv_pos_as_xyz
1 x,y,z
2 1/2+x,1/2+y,z
3 -x,y,1/2-z
4 1/2-x,1/2+y,1/2-z
5 -x,-y,-z
6 1/2-x,1/2-y,-z
7 x,-y,1/2+z
8 1/2+x,1/2-y,1/2+z
_cell_length_a                   24.097(4)
_cell_length_b                   14.344(3)
_cell_length_c                   16.681(2)
_cell_angle_alpha                90
_cell_angle_beta                 100.57(1)
_cell_angle_gamma                90
_cell_volume                     5667.91
loop_
_atom_site_label
_atom_site_type_symbol
_atom_site_fract_x
_atom_site_fract_y
_atom_site_fract_z
_atom_site_U_iso_or_equiv
_atom_site_thermal_displace_type
Ni1 Ni 0.22755(3) 0.18176(4) 0.69327(3) 0.0555 Uani
Ni2 Ni -0.0000 0.10595(8) 0.2500 0.0624 Uani
Fe1 Fe 0.19032(3) 0.02884(4) 0.41854(3) 0.0381 Uani
O1 O -0.0000 0.2534(7) 0.2500 0.1532 Uani
N1 N 0.1861(2) 0.1223(3) 0.5828(2) 0.0600 Uani
N2 N 0.0767(2) 0.1044(4) 0.3290(3) 0.0762 Uani
N3 N 0.2456(2) 0.2066(3) 0.3666(3) 0.0685 Uani
N4 N 0.1277(3) -0.1486(4) 0.4575(4) 0.0991 Uani
N5 N 0.3098(3) -0.0433(5) 0.4900(4) 0.0941 Uani
N6 N 0.2042(3) -0.0712(4) 0.2606(3) 0.0748 Uani
N7 N 0.1525(3) 0.2509(4) 0.7003(5) 0.1023 Uani
N8 N 0.2713(4) 0.2404(6) 0.8048(4) 0.1323 Uani
N9 N 0.2970(3) 0.1045(5) 0.6724(5) 0.0967 Uani
N10 N -0.0417(3) 0.1143(7) 0.3494(4) 0.1120 Uani
N11 N -0.0000 -0.0416(6) 0.2500 0.0944 Uani
C1 C 0.1849(2) 0.0863(3) 0.5212(3) 0.0458 Uani
C2 C 0.1196(2) 0.0781(4) 0.3656(3) 0.0536 Uani
C3 C 0.2254(2) 0.1402(4) 0.3872(3) 0.0511 Uani
C4 C 0.1522(2) -0.0826(4) 0.4455(4) 0.0603 Uani
C5 C 0.2642(2) -0.0192(4) 0.4651(3) 0.0584 Uani
C6 C 0.1978(2) -0.0307(3) 0.3183(3) 0.0549 Uani
C7 C 0.155(1) 0.330(1) 0.758(1) 0.2562 Uani
C8 C 0.189(1) 0.330(1) 0.827(1) 0.2475 Uani
C9 C 0.248(1) 0.320(1) 0.8390(9) 0.2592 Uani
C10 C 0.3307(8) 0.226(1) 0.818(1) 0.1969 Uani
C11 C 0.3600(6) 0.154(2) 0.799(1) 0.2202 Uani
C12 C 0.3514(6) 0.113(1) 0.722(2) 0.2143 Uani
C13 C -0.0536(9) 0.035(2) 0.3910(9) 0.2141 Uani
C14 C -0.0437(6) -0.051(1) 0.3743(8) 0.1437 Uani
C15 C -0.0225(5) -0.0862(7) 0.3101(8) 0.1343 Uani
H1 H 0.1271 0.2034 0.7179 0.1245 Uiso
H2 H 0.1355 0.2702 0.6480 0.1245 Uiso
H3 H 0.1173 0.3370 0.7736 0.2548 Uiso
H4 H 0.1608 0.3858 0.7298 0.2548 Uiso
H5 H 0.1875 0.3827 0.8606 0.2432 Uiso
H6 H 0.1840 0.2747 0.8596 0.2432 Uiso
H7 H 0.2694 0.3249 0.8958 0.2338 Uiso
H8 H 0.2657 0.3749 0.8126 0.2338 Uiso
H9 H 0.2779 0.2005 0.8577 0.0758 Uiso
H10 H 0.3354 0.2313 0.8825 0.2362 Uiso
H11 H 0.3414 0.2883 0.8055 0.2362 Uiso
H12 H 0.3567 0.1152 0.8389 0.2294 Uiso
H13 H 0.3956 0.1889 0.8096 0.2294 Uiso
H14 H 0.3683 0.0523 0.7297 0.2556 Uiso
H15 H 0.3752 0.1464 0.6868 0.2556 Uiso
H16 H 0.2860 0.0397 0.6755 0.1140 Uiso
H17 H 0.2994 0.1159 0.6159 0.1140 Uiso
H18 H -0.0764 0.1454 0.3297 0.1250 Uiso
H19 H -0.0186 0.1564 0.3877 0.1250 Uiso
H20 H -0.0925 0.0481 0.3949 0.2266 Uiso
H21 H -0.0322 0.0525 0.4470 0.2266 Uiso
H22 H -0.0820 -0.0742 0.3698 0.1727 Uiso
H23 H -0.0229 -0.0713 0.4256 0.1727 Uiso
H24 H 0.0101 -0.1263 0.3410 0.1690 Uiso
H25 H -0.0492 -0.1317 0.2861 0.1690 Uiso
H26 H 0.0184 0.2842 0.2114 0.0758 Uiso
H26B H -0.0184 0.2842 0.2886 0.0758 Uiso
C15B C 0.0225(5) -0.0862(7) 0.1899(8) 0.1343 Uani
C14B C 0.0437(6) -0.051(1) 0.1257(8) 0.1437 Uani
C13B C 0.0536(9) 0.035(2) 0.1090(9) 0.2141 Uani
N10B N 0.0417(3) 0.1143(7) 0.1506(4) 0.1120 Uani
H18B H 0.0764 0.1454 0.1703 0.1250 Uiso
H19B H 0.0186 0.1564 0.1123 0.1250 Uiso
H20B H 0.0925 0.0481 0.1051 0.2266 Uiso
H21B H 0.0322 0.0525 0.0530 0.2266 Uiso
H22B H 0.0820 -0.0742 0.1302 0.1727 Uiso
H23B H 0.0229 -0.0713 0.0744 0.1727 Uiso
H24B H -0.0101 -0.1263 0.1590 0.1690 Uiso
H25B H 0.0492 -0.1317 0.2139 0.1690 Uiso
N2B N -0.0767(2) 0.1044(4) 0.1710(3) 0.0762 Uani
C2B C -0.1196(2) 0.0781(4) 0.1344(3) 0.0536 Uani
Fe1B Fe -0.19032(3) 0.02884(4) 0.08146(3) 0.0381 Uani
N1B N -0.1861(2) 0.1223(3) -0.0828(2) 0.0600 Uani
C1B C -0.1849(2) 0.0863(3) -0.0212(3) 0.0458 Uani
N3B N -0.2456(2) 0.2066(3) 0.1334(3) 0.0685 Uani
C3B C -0.2254(2) 0.1402(4) 0.1128(3) 0.0511 Uani
N4B N -0.1277(3) -0.1486(4) 0.0425(4) 0.0991 Uani
C4B C -0.1522(2) -0.0826(4) 0.0545(4) 0.0603 Uani
N5B N -0.3098(3) -0.0433(5) 0.0100(4) 0.0941 Uani
C5B C -0.2642(2) -0.0192(4) 0.0349(3) 0.0584 Uani
N6B N -0.2042(3) -0.0712(4) 0.2394(3) 0.0748 Uani
C6B C -0.1978(2) -0.0307(3) 0.1817(3) 0.0549 Uani
Ni1B Ni -0.22755(3) 0.18176(4) -0.19327(3) 0.0555 Uani
N7B N -0.1525(3) 0.2509(4) -0.2003(5) 0.1023 Uani
N8B N -0.2713(4) 0.2404(6) -0.3048(4) 0.1323 Uani
N9B N -0.2970(3) 0.1045(5) -0.1724(5) 0.0967 Uani
C7B C -0.155(1) 0.330(1) -0.258(1) 0.2562 Uani
C8B C -0.189(1) 0.330(1) -0.327(1) 0.2475 Uani
C9B C -0.248(1) 0.320(1) -0.3390(9) 0.2592 Uani
C10B C -0.3307(8) 0.226(1) -0.318(1) 0.1969 Uani
C11B C -0.3600(6) 0.154(2) -0.299(1) 0.2202 Uani
C12B C -0.3514(6) 0.113(1) -0.222(2) 0.2143 Uani
H1B H -0.1271 0.2034 -0.2179 0.1245 Uiso
H2B H -0.1355 0.2702 -0.1480 0.1245 Uiso
H3B H -0.1173 0.3370 -0.2736 0.2548 Uiso
H4B H -0.1608 0.3858 -0.2298 0.2548 Uiso
H5B H -0.1875 0.3827 -0.3606 0.2432 Uiso
H6B H -0.1840 0.2747 -0.3596 0.2432 Uiso
H7B H -0.2694 0.3249 -0.3958 0.2338 Uiso
H8B H -0.2657 0.3749 -0.3126 0.2338 Uiso
H9B H -0.2779 0.2005 -0.3577 0.0758 Uiso
H10B H -0.3354 0.2313 -0.3825 0.2362 Uiso
H11B H -0.3414 0.2883 -0.3055 0.2362 Uiso
H12B H -0.3567 0.1152 -0.3389 0.2294 Uiso
H13B H -0.3956 0.1889 -0.3096 0.2294 Uiso
H14B H -0.3683 0.0523 -0.2297 0.2556 Uiso
H15B H -0.3752 0.1464 -0.1868 0.2556 Uiso
H16B H -0.2860 0.0397 -0.1755 0.1140 Uiso
H17B H -0.2994 0.1159 -0.1159 0.1140 Uiso
N3E N 0.2544(2) 0.2934(3) 0.6334(3) 0.0685 Uani
N6F N 0.2042(3) 0.0712(4) 0.7606(3) 0.0748 Uani
Ni1E Ni 0.27245(3) 0.31824(4) 0.30673(3) 0.0555 Uani
Ni1F Ni 0.22755(3) -0.18176(4) 0.19327(3) 0.0555 Uani
Ni1G Ni -0.27245(3) 0.31824(4) 0.19327(3) 0.0555 Uani
Ni1D Ni -0.22755(3) -0.18176(4) 0.30673(3) 0.0555 Uani
N3G N -0.2544(2) 0.2934(3) -0.1334(3) 0.0685 Uani
N6D N -0.2042(3) 0.0712(4) -0.2606(3) 0.0748 Uani
O2 O 0.5891(3) 0.1642(5) 0.4636(8) 0.1838 Uani
H27 H 0.5491 0.1799 0.4690 0.0758 Uiso
H28 H 0.5799 0.0943 0.4635 0.0758 Uiso
O3 O 0.474(1) 0.176(2) 0.592(2) 0.3050 Uani
H29 H 0.4951 0.1594 0.5410 0.0758 Uiso
H30 H 0.4824 0.1205 0.6255 0.0758 Uiso
O4 O 0.370(1) 0.169(2) 0.498(2) 0.3057 Uani
H31 H 0.3576 0.1731 0.5625 0.0758 Uiso
H32 H 0.3301 0.1684 0.4701 0.0758 Uiso
O5 O 0.404(1) 0.077(3) 0.438(2) 0.1560 Uiso
O6 O 0.479(2) -0.051(3) 0.666(2) 0.1600 Uiso
H33 H 0.5080 -0.0326 0.6198 0.0758 Uiso
loop_
_atom_site_aniso_label
_atom_site_aniso_U_11
_atom_site_aniso_U_22
_atom_site_aniso_U_33
_atom_site_aniso_U_23
_atom_site_aniso_U_13
_atom_site_aniso_U_12
Ni1 0.0934(5) 0.0446(4) 0.0285(3) -0.0012(2) 0.0109(3) -0.0205(3)
Ni2 0.0538(5) 0.0667(6) 0.0601(6) 0.0000 -0.0068(4) 0.0000
Fe1 0.0508(4) 0.0359(3) 0.0258(3) -0.0022(2) 0.0026(2) -0.0028(2)
O1 0.127(7) 0.089(6) 0.22(1) 0.0000 -0.030(8) 0.0000
N1 0.086(3) 0.059(3) 0.038(2) -0.007(2) 0.019(2) -0.015(2)
N2 0.063(3) 0.087(4) 0.071(3) -0.004(3) -0.008(2) 0.014(3)
N3 0.103(4) 0.055(3) 0.051(2) 0.004(2) 0.023(2) -0.019(3)
N4 0.114(5) 0.067(4) 0.120(5) -0.001(3) 0.031(4) -0.031(3)
N5 0.076(4) 0.119(5) 0.083(4) 0.035(4) 0.003(3) 0.021(3)
N6 0.110(4) 0.069(3) 0.039(2) -0.014(2) -0.003(2) 0.027(3)
N7 0.130(5) 0.066(4) 0.130(6) -0.015(3) 0.074(5) -0.002(3)
N8 0.195(8) 0.149(7) 0.050(3) -0.022(4) 0.015(4) -0.111(6)
N9 0.076(4) 0.094(4) 0.113(5) 0.014(4) -0.001(3) 0.007(3)
N10 0.099(5) 0.158(7) 0.076(4) -0.027(5) 0.008(3) 0.045(5)
N11 0.124(8) 0.070(5) 0.095(6) 0.0000 0.035(6) 0.0000
C1 0.060(3) 0.047(2) 0.030(2) 0.000(2) 0.007(2) -0.012(2)
C2 0.060(3) 0.052(3) 0.046(3) -0.010(2) 0.002(2) 0.002(2)
C3 0.068(3) 0.053(3) 0.033(2) -0.002(2) 0.011(2) 0.004(2)
C4 0.072(3) 0.045(3) 0.063(3) 0.002(2) 0.010(3) -0.007(2)
C5 0.059(3) 0.071(3) 0.041(2) 0.009(2) -0.002(2) 0.005(3)
C6 0.079(3) 0.047(3) 0.035(2) -0.009(2) 0.001(2) 0.012(2)
C7 0.43(3) 0.19(2) 0.14(1) -0.05(1) 0.03(2) 0.18(2)
C8 0.42(3) 0.19(2) 0.18(2) -0.14(1) 0.18(2) -0.18(2)
C9 0.54(4) 0.13(1) 0.082(8) -0.041(7) -0.01(2) -0.14(2)
C10 0.15(1) 0.17(1) 0.22(2) -0.03(1) -0.10(1) -0.04(1)
C11 0.099(9) 0.42(4) 0.12(1) 0.09(2) -0.037(8) -0.11(1)
C12 0.102(8) 0.16(1) 0.35(3) -0.02(2) -0.04(1) -0.014(8)
C13 0.32(2) 0.24(2) 0.12(1) -0.01(1) 0.14(1) -0.01(2)
C14 0.15(1) 0.19(1) 0.102(8) 0.031(9) 0.052(7) -0.016(10)
C15 0.16(1) 0.104(7) 0.15(1) 0.027(7) 0.058(8) -0.020(7)
C15B 0.16 0.104 0.15 -0.027 0.058 0.02
C14B 0.15 0.19 0.102 -0.031 0.052 0.016
C13B 0.32 0.24 0.12 0.01 0.14 0.01
N10B 0.099 0.158 0.076 0.027 0.008 -0.045
N2B 0.063 0.087 0.071 0.004 -0.008 -0.014
C2B 0.06 0.052 0.046 0.01 0.002 -0.002
Fe1B 0.0508 0.0359 0.0258 0.0022 0.0026 0.0028
N1B 0.086 0.059 0.038 0.007 0.019 0.015
C1B 0.06 0.047 0.03 0 0.007 0.012
N3B 0.103 0.055 0.051 -0.004 0.023 0.019
C3B 0.068 0.053 0.033 0.002 0.011 -0.004
N4B 0.114 0.067 0.12 0.001 0.031 0.031
C4B 0.072 0.045 0.063 -0.002 0.01 0.007
N5B 0.076 0.119 0.083 -0.035 0.003 -0.021
C5B 0.059 0.071 0.041 -0.009 -0.002 -0.005
N6B 0.11 0.069 0.039 0.014 -0.003 -0.027
C6B 0.079 0.047 0.035 0.009 0.001 -0.012
Ni1B 0.0934 0.0446 0.0285 0.0012 0.0109 0.0205
N7B 0.13 0.066 0.13 0.015 0.074 0.002
N8B 0.195 0.149 0.05 0.022 0.015 0.111
N9B 0.076 0.094 0.113 -0.014 -0.001 -0.007
C7B 0.43 0.19 0.14 0.05 0.03 -0.18
C8B 0.42 0.19 0.18 0.14 0.18 0.18
C9B 0.54 0.13 0.082 0.041 -0.01 0.14
C10B 0.15 0.17 0.22 0.03 -0.1 0.04
C11B 0.099 0.42 0.12 -0.09 -0.037 0.11
C12B 0.102 0.16 0.35 0.02 -0.04 0.014
N3E 0.103 0.055 0.051 0.004 0.023 -0.019
N6F 0.11 0.069 0.039 0.014 -0.003 -0.027
Ni1E 0.0934 0.0446 0.0285 -0.0012 0.0109 -0.0205
Ni1F 0.0934 0.0446 0.0285 0.0012 0.0109 0.0205
Ni1G 0.0934 0.0446 0.0285 0.0012 0.0109 0.0205
Ni1D 0.0934 0.0446 0.0285 -0.0012 0.0109 -0.0205
N3G 0.103 0.055 0.051 -0.004 0.023 0.019
N6D 0.11 0.069 0.039 -0.014 -0.003 0.027
O2 0.097(5) 0.112(6) 0.32(1) 0.046(7) -0.021(6) -0.014(4)
O3 0.36(4) 0.21(2) 0.27(3) -0.14(2) -0.14(3) 0.08(2)
O4 0.31(3) 0.21(2) 0.30(3) 0.11(2) -0.20(3) -0.11(2)
loop_
_geom_bond_atom_site_label_1
_geom_bond_atom_site_label_2
_geom_bond_site_symmetry_1
_geom_bond_site_symmetry_2
Ni1 N1 1_555 1_555
Ni2 O1 1_555 1_555
Fe1 C1 1_555 1_555
O1 H26 1_555 1_555
N1 C1 1_555 1_555
N2 Ni2 1_555 1_555
N3 C3 1_555 1_555
N4 C4 1_555 1_555
N5 C5 1_555 1_555
N6 C6 1_555 1_555
N7 Ni1 1_555 1_555
N8 Ni1 1_555 1_555
N9 Ni1 1_555 1_555
N10 Ni2 1_555 1_555
N11 Ni2 1_555 1_555
C2 Fe1 1_555 1_555
C3 Fe1 1_555 1_555
C4 Fe1 1_555 1_555
C5 Fe1 1_555 1_555
C6 Fe1 1_555 1_555
C7 N7 1_555 1_555
C8 C7 1_555 1_555
C9 N8 1_555 1_555
C10 N8 1_555 1_555
C11 C10 1_555 1_555
C12 N9 1_555 1_555
C13 N10 1_555 1_555
C14 C13 1_555 1_555
C15 N11 1_555 1_555
H1 N7 1_555 1_555
H2 N7 1_555 1_555
H3 C7 1_555 1_555
H4 C7 1_555 1_555
H5 C8 1_555 1_555
H6 C8 1_555 1_555
H7 C9 1_555 1_555
H8 C9 1_555 1_555
H9 N8 1_555 1_555
H10 C10 1_555 1_555
H11 C10 1_555 1_555
H12 C11 1_555 1_555
H13 C11 1_555 1_555
H14 C12 1_555 1_555
H15 C12 1_555 1_555
H16 N9 1_555 1_555
H17 N9 1_555 1_555
H18 N10 1_555 1_555
H19 N10 1_555 1_555
H20 C13 1_555 1_555
H21 C13 1_555 1_555
H22 C14 1_555 1_555
H23 C14 1_555 1_555
H24 C15 1_555 1_555
H25 C15 1_555 1_555
O2 H27 1_555 1_555
H28 O2 1_555 1_555
O3 H29 1_555 1_555
H30 O3 1_555 1_555
O4 H31 1_555 1_555
H32 O4 1_555 1_555
O6 H33 1_555 1_555
H26B O1 1_555 1_555
C15B N11 1_555 1_555
C14B C15B 1_555 1_555
C13B C14B 1_555 1_555
N10B Ni2 1_555 1_555
H18B N10B 1_555 1_555
H19B N10B 1_555 1_555
H20B C13B 1_555 1_555
H21B C13B 1_555 1_555
H22B C14B 1_555 1_555
H23B C14B 1_555 1_555
H24B C15B 1_555 1_555
H25B C15B 1_555 1_555
N2B Ni2 1_555 1_555
C2B N2B 1_555 1_555
Fe1B C2B 1_555 1_555
N1B C1B 1_555 1_555
C1B Fe1B 1_555 1_555
N3B C3B 1_555 1_555
C3B Fe1B 1_555 1_555
N4B C4B 1_555 1_555
C4B Fe1B 1_555 1_555
N5B C5B 1_555 1_555
C5B Fe1B 1_555 1_555
N6B C6B 1_555 1_555
C6B Fe1B 1_555 1_555
Ni1B N1B 1_555 1_555
N7B Ni1B 1_555 1_555
N8B Ni1B 1_555 1_555
N9B Ni1B 1_555 1_555
C7B N7B 1_555 1_555
C8B C7B 1_555 1_555
C9B N8B 1_555 1_555
C10B N8B 1_555 1_555
C11B C10B 1_555 1_555
C12B N9B 1_555 1_555
H1B N7B 1_555 1_555
H2B N7B 1_555 1_555
H3B C7B 1_555 1_555
H4B C7B 1_555 1_555
H5B C8B 1_555 1_555
H6B C8B 1_555 1_555
H7B C9B 1_555 1_555
H8B C9B 1_555 1_555
H9B N8B 1_555 1_555
H10B C10B 1_555 1_555
H11B C10B 1_555 1_555
H12B C11B 1_555 1_555
H13B C11B 1_555 1_555
H14B C12B 1_555 1_555
H15B C12B 1_555 1_555
H16B N9B 1_555 1_555
H17B N9B 1_555 1_555
N3E Ni1 1_555 1_555
N6F Ni1 1_555 1_555
Ni1E N3 1_555 1_555
Ni1F N6 1_555 1_555
Ni1G N3B 1_555 1_555
Ni1D N6B 1_555 1_555
N3G Ni1B 1_555 1_555
N6D Ni1B 1_555 1_555
N2 C2 1_555 1_555
C8 C9 1_555 1_555
C11 C12 1_555 1_555
C14 C15 1_555 1_555
C13B N10B 1_555 1_555
C8B C9B 1_555 1_555
C11B C12B 1_555 1_555

#END
