
#######################################################################
#
#                 Cambridge Crystallographic Data Centre
#                                CCDC 
#
#######################################################################
#
# If this CIF has been generated from an entry in the Cambridge 
# Structural Database, then it will include bibliographic, chemical, 
# crystal, experimental, refinement or atomic coordinate data resulting 
# from the CCDC's data processing and validation procedures.
#
#######################################################################

data_INIRAY01
_chemical_formula_moiety         '(C30 H63 Co2 N21 Ni3 O6)n'
_symmetry_cell_setting           monoclinic
_symmetry_space_group_name_H-M   'C 2/c'
_symmetry_Int_Tables_number      15
_space_group_name_Hall           '-C 2yc'
loop_
_symmetry_equiv_pos_site_id
_symmetry_equiv_pos_as_xyz
1 x,y,z
2 1/2+x,1/2+y,z
3 -x,y,1/2-z
4 1/2-x,1/2+y,1/2-z
5 -x,-y,-z
6 1/2-x,1/2-y,-z
7 x,-y,1/2+z
8 1/2+x,1/2-y,1/2+z
_cell_length_a                   23.980(9)
_cell_length_b                   14.197(6)
_cell_length_c                   16.599(3)
_cell_angle_alpha                90
_cell_angle_beta                 100.703(2)
_cell_angle_gamma                90
_cell_volume                     5552.72
loop_
_atom_site_label
_atom_site_type_symbol
_atom_site_fract_x
_atom_site_fract_y
_atom_site_fract_z
_atom_site_U_iso_or_equiv
_atom_site_thermal_displace_type
Ni1 Ni 0.22632(6) 0.18205(8) 0.69169(6) 0.0447 Uani
Ni2 Ni -0.0000 0.1082(1) 0.2500 0.0540 Uani
Co1 Co 0.19047(5) 0.02798(7) 0.41769(6) 0.0326 Uani
O1 O 0.0000 0.2580(9) 0.2500 0.1474 Uani
N1 N 0.1856(4) 0.1200(5) 0.5805(4) 0.0481 Uani
N2 N 0.0770(4) 0.1056(7) 0.3295(5) 0.0647 Uani
N3 N 0.2461(4) 0.2034(6) 0.3670(5) 0.0533 Uani
N4 N 0.1281(5) -0.1501(7) 0.4569(7) 0.0783 Uani
N5 N 0.3105(5) -0.0456(8) 0.4894(6) 0.0810 Uani
N6 N 0.2026(4) -0.0707(6) 0.2599(5) 0.0603 Uani
N7 N 0.1503(5) 0.2510(7) 0.6977(7) 0.0877 Uani
N8 N 0.2703(7) 0.238(1) 0.8044(6) 0.1173 Uani
N9 N 0.2965(4) 0.1027(7) 0.6716(7) 0.0785 Uani
N10 N -0.0407(5) 0.119(1) 0.3495(7) 0.1015 Uani
N11 N 0.0000 -0.0413(9) 0.2500 0.0803 Uani
C1 C 0.1851(4) 0.0840(6) 0.5191(5) 0.0414 Uani
C2 C 0.1206(5) 0.0781(7) 0.3664(6) 0.0493 Uani
C3 C 0.2260(4) 0.1379(6) 0.3878(5) 0.0415 Uani
C4 C 0.1523(5) -0.0830(8) 0.4445(6) 0.0533 Uani
C5 C 0.2635(5) -0.0203(6) 0.4638(6) 0.0479 Uani
C6 C 0.1973(4) -0.0302(6) 0.3180(5) 0.0431 Uani
C7 C 0.151(1) 0.334(1) 0.756(2) 0.1761 Uani
C8 C 0.191(2) 0.329(2) 0.831(2) 0.1970 Uani
C9 C 0.250(1) 0.324(1) 0.837(1) 0.1628 Uani
C10 C 0.330(1) 0.230(2) 0.822(1) 0.1633 Uani
C11 C 0.3590(9) 0.150(3) 0.801(1) 0.1683 Uani
C12 C 0.3544(9) 0.110(2) 0.712(2) 0.1660 Uani
C13 C -0.054(1) 0.041(2) 0.391(2) 0.1936 Uani
C14 C -0.0430(9) -0.050(2) 0.374(1) 0.1375 Uani
C15 C -0.0219(7) -0.089(1) 0.309(1) 0.1077 Uani
H1 H 0.1358 0.2724 0.6458 0.1075 Uiso
H2 H 0.1264 0.2040 0.7149 0.1075 Uiso
H3 H 0.1589 0.3873 0.7284 0.2130 Uiso
H4 H 0.1146 0.3363 0.7702 0.2130 Uiso
H5 H 0.1857 0.3813 0.8615 0.2127 Uiso
H6 H 0.1818 0.2723 0.8589 0.2127 Uiso
H7 H 0.2634 0.3726 0.8090 0.1894 Uiso
H8 H 0.2685 0.3250 0.8942 0.1894 Uiso
H9 H 0.2603 0.1915 0.8429 0.1319 Uiso
H10 H 0.3409 0.2861 0.7985 0.1971 Uiso
H11 H 0.3376 0.2389 0.8818 0.1971 Uiso
H12 H 0.3517 0.1065 0.8379 0.1987 Uiso
H13 H 0.3978 0.1754 0.8189 0.1987 Uiso
H14 H 0.3709 0.0542 0.7235 0.2205 Uiso
H15 H 0.3737 0.1544 0.6871 0.2205 Uiso
H16 H 0.2988 0.1141 0.6165 0.0952 Uiso
H17 H 0.2866 0.0397 0.6794 0.0952 Uiso
H18 H -0.0172 0.1572 0.3892 0.1191 Uiso
H19 H -0.0756 0.1498 0.3310 0.1191 Uiso
H20 H -0.0338 0.0504 0.4469 0.2213 Uiso
H21 H -0.0932 0.0456 0.3910 0.2213 Uiso
H22 H -0.0214 -0.0738 0.4237 0.1529 Uiso
H23 H -0.0808 -0.0785 0.3676 0.1529 Uiso
H24 H 0.0122 -0.1250 0.3386 0.1298 Uiso
H25 H -0.0474 -0.1322 0.2833 0.1298 Uiso
H26 H 0.0319 0.2883 0.2500 0.0699 Uiso
Ni1B Ni -0.22632(6) 0.18205(8) -0.19169(6) 0.0447 Uani
Ni1E Ni 0.27368(6) 0.31795(8) 0.30831(6) 0.0447 Uani
Ni1F Ni 0.22632(6) -0.18205(8) 0.19169(6) 0.0447 Uani
Ni1G Ni -0.27368(6) 0.31795(8) 0.19169(6) 0.0447 Uani
Ni1D Ni -0.22632(6) -0.18205(8) 0.30831(6) 0.0447 Uani
Co1B Co -0.19047(5) 0.02798(7) 0.08231(6) 0.0326 Uani
N1B N -0.1856(4) 0.1200(5) -0.0805(4) 0.0481 Uani
N2B N -0.0770(4) 0.1056(7) 0.1705(5) 0.0647 Uani
N3B N -0.2461(4) 0.2034(6) 0.1330(5) 0.0533 Uani
N3E N 0.2539(4) 0.2966(6) 0.6330(5) 0.0533 Uani
N3G N -0.2539(4) 0.2966(6) -0.1330(5) 0.0533 Uani
N4B N -0.1281(5) -0.1501(7) 0.0431(7) 0.0783 Uani
N5B N -0.3105(5) -0.0456(8) 0.0106(6) 0.0810 Uani
N6B N -0.2026(4) -0.0707(6) 0.2401(5) 0.0603 Uani
N6F N 0.2026(4) 0.0707(6) 0.7599(5) 0.0603 Uani
N6D N -0.2026(4) 0.0707(6) -0.2599(5) 0.0603 Uani
N7B N -0.1503(5) 0.2510(7) -0.1977(7) 0.0877 Uani
N8B N -0.2703(7) 0.238(1) -0.3044(6) 0.1173 Uani
N9B N -0.2965(4) 0.1027(7) -0.1716(7) 0.0785 Uani
N10B N 0.0407(5) 0.119(1) 0.1505(7) 0.1015 Uani
C1B C -0.1851(4) 0.0840(6) -0.0191(5) 0.0414 Uani
C2B C -0.1206(5) 0.0781(7) 0.1336(6) 0.0493 Uani
C3B C -0.2260(4) 0.1379(6) 0.1122(5) 0.0415 Uani
C4B C -0.1523(5) -0.0830(8) 0.0555(6) 0.0533 Uani
C5B C -0.2635(5) -0.0203(6) 0.0362(6) 0.0479 Uani
C6B C -0.1973(4) -0.0302(6) 0.1820(5) 0.0431 Uani
C7B C -0.151(1) 0.334(1) -0.256(2) 0.1761 Uani
C8B C -0.191(2) 0.329(2) -0.331(2) 0.1970 Uani
C9B C -0.250(1) 0.324(1) -0.337(1) 0.1628 Uani
C10B C -0.330(1) 0.230(2) -0.322(1) 0.1633 Uani
C11B C -0.3590(9) 0.150(3) -0.301(1) 0.1683 Uani
C12B C -0.3544(9) 0.110(2) -0.212(2) 0.1660 Uani
C13B C 0.054(1) 0.041(2) 0.109(2) 0.1936 Uani
C14B C 0.0430(9) -0.050(2) 0.126(1) 0.1375 Uani
C15B C 0.0219(7) -0.089(1) 0.191(1) 0.1077 Uani
H1B H -0.1358 0.2724 -0.1458 0.1075 Uiso
H2B H -0.1264 0.2040 -0.2149 0.1075 Uiso
H3B H -0.1589 0.3873 -0.2284 0.2130 Uiso
H4B H -0.1146 0.3363 -0.2702 0.2130 Uiso
H5B H -0.1857 0.3813 -0.3615 0.2127 Uiso
H6B H -0.1818 0.2723 -0.3589 0.2127 Uiso
H7B H -0.2634 0.3726 -0.3090 0.1894 Uiso
H8B H -0.2685 0.3250 -0.3942 0.1894 Uiso
H9B H -0.2603 0.1915 -0.3429 0.1319 Uiso
H10B H -0.3409 0.2861 -0.2985 0.1971 Uiso
H11B H -0.3376 0.2389 -0.3818 0.1971 Uiso
H12B H -0.3517 0.1065 -0.3379 0.1987 Uiso
H13B H -0.3978 0.1754 -0.3189 0.1987 Uiso
H14B H -0.3709 0.0542 -0.2235 0.2205 Uiso
H15B H -0.3737 0.1544 -0.1871 0.2205 Uiso
H16B H -0.2988 0.1141 -0.1165 0.0952 Uiso
H17B H -0.2866 0.0397 -0.1794 0.0952 Uiso
H18B H 0.0172 0.1572 0.1108 0.1191 Uiso
H19B H 0.0756 0.1498 0.1690 0.1191 Uiso
H20B H 0.0338 0.0504 0.0531 0.2213 Uiso
H21B H 0.0932 0.0456 0.1090 0.2213 Uiso
H22B H 0.0214 -0.0738 0.0763 0.1529 Uiso
H23B H 0.0808 -0.0785 0.1324 0.1529 Uiso
H24B H -0.0122 -0.1250 0.1614 0.1298 Uiso
H25B H 0.0474 -0.1322 0.2167 0.1298 Uiso
H26B H -0.0319 0.2883 0.2500 0.0699 Uiso
O2 O 0.495(1) 0.054(2) 0.159(2) 0.2040 Uani
H27 H 0.4596 0.0878 0.1815 0.0699 Uiso
H28 H 0.5276 0.1162 0.1769 0.0699 Uiso
O3 O 0.4143(4) 0.1610(7) 0.0355(9) 0.1307 Uani
H29 H 0.4306 0.0850 0.0352 0.0699 Uiso
H30 H 0.4526 0.1905 0.0055 0.0699 Uiso
O4 O 0.508(1) 0.161(3) -0.083(3) 0.2171 Uani
H31 H 0.5264 0.1999 -0.0246 0.0699 Uiso
H32 H 0.5331 0.1455 -0.1343 0.0699 Uiso
O5 O 0.401(1) 0.090(3) 0.440(3) 0.2494 Uani
O6 O 0.376(2) 0.180(3) 0.499(3) 0.2269 Uani
H33 H 0.3476 0.1710 0.5234 0.0699 Uiso
loop_
_atom_site_aniso_label
_atom_site_aniso_U_11
_atom_site_aniso_U_22
_atom_site_aniso_U_33
_atom_site_aniso_U_23
_atom_site_aniso_U_13
_atom_site_aniso_U_12
Ni1 0.0727(9) 0.0382(6) 0.0236(6) -0.0008(4) 0.0102(5) -0.0151(6)
Ni2 0.045(1) 0.059(1) 0.052(1) 0.0000 -0.0068(8) 0.0000
Co1 0.0435(7) 0.0320(6) 0.0212(6) -0.0026(4) 0.0032(4) -0.0025(5)
O1 0.074(9) 0.059(8) 0.27(2) 0.0000 -0.07(1) 0.0000
N1 0.080(6) 0.047(4) 0.020(3) -0.012(3) 0.016(4) -0.017(4)
N2 0.056(6) 0.082(7) 0.051(5) -0.002(4) -0.003(4) 0.011(5)
N3 0.077(6) 0.043(4) 0.043(4) 0.003(3) 0.019(4) -0.007(4)
N4 0.086(7) 0.053(5) 0.099(8) -0.006(5) 0.025(6) -0.025(6)
N5 0.071(7) 0.111(9) 0.058(6) 0.019(6) 0.004(5) 0.011(6)
N6 0.094(7) 0.051(5) 0.033(4) -0.018(4) 0.004(4) 0.008(5)
N7 0.109(9) 0.057(6) 0.112(9) -0.015(6) 0.059(7) -0.002(6)
N8 0.16(1) 0.15(1) 0.038(5) -0.029(6) 0.008(7) -0.11(1)
N9 0.060(6) 0.086(7) 0.087(7) 0.016(6) 0.007(5) 0.006(5)
N10 0.082(8) 0.16(1) 0.060(6) -0.027(7) 0.007(6) 0.040(8)
N11 0.10(1) 0.056(8) 0.10(1) 0.0000 0.058(10) 0.0000
C1 0.048(5) 0.040(5) 0.036(5) 0.006(4) 0.007(4) -0.008(4)
C2 0.065(7) 0.047(5) 0.036(5) -0.010(4) 0.010(5) -0.008(5)
C3 0.067(6) 0.035(4) 0.024(4) 0.003(3) 0.012(4) -0.004(5)
C4 0.054(6) 0.061(6) 0.042(5) -0.005(5) 0.001(4) 0.003(5)
C5 0.063(7) 0.049(5) 0.031(4) 0.010(4) 0.007(4) -0.005(5)
C6 0.057(6) 0.043(5) 0.024(4) -0.007(4) -0.006(4) -0.002(4)
C7 0.20(2) 0.11(1) 0.23(3) -0.06(2) 0.07(2) 0.07(2)
C8 0.37(4) 0.14(2) 0.11(2) -0.10(1) 0.12(2) -0.17(3)
C9 0.31(4) 0.10(1) 0.054(9) -0.013(8) -0.03(1) -0.11(2)
C10 0.19(2) 0.12(2) 0.13(2) 0.01(1) -0.10(2) -0.05(2)
C11 0.10(2) 0.29(4) 0.10(2) 0.07(2) -0.02(1) -0.06(2)
C12 0.09(1) 0.12(2) 0.26(3) 0.02(2) -0.04(2) -0.01(1)
C13 0.28(4) 0.21(3) 0.13(2) 0.03(2) 0.14(2) 0.09(3)
C14 0.13(2) 0.20(2) 0.09(1) 0.06(1) 0.04(1) 0.00(2)
C15 0.11(1) 0.09(1) 0.13(2) 0.038(10) 0.04(1) -0.002(9)
Ni1B 0.0727 0.0382 0.0236 0.0008 0.0102 0.0151
Ni1E 0.0727 0.0382 0.0236 -0.0008 0.0102 -0.0151
Ni1F 0.0727 0.0382 0.0236 0.0008 0.0102 0.0151
Ni1G 0.0727 0.0382 0.0236 0.0008 0.0102 0.0151
Ni1D 0.0727 0.0382 0.0236 -0.0008 0.0102 -0.0151
Co1B 0.0435 0.032 0.0212 0.0026 0.0032 0.0025
N1B 0.08 0.047 0.02 0.012 0.016 0.017
N2B 0.056 0.082 0.051 0.002 -0.003 -0.011
N3B 0.077 0.043 0.043 -0.003 0.019 0.007
N3E 0.077 0.043 0.043 0.003 0.019 -0.007
N3G 0.077 0.043 0.043 -0.003 0.019 0.007
N4B 0.086 0.053 0.099 0.006 0.025 0.025
N5B 0.071 0.111 0.058 -0.019 0.004 -0.011
N6B 0.094 0.051 0.033 0.018 0.004 -0.008
N6F 0.094 0.051 0.033 0.018 0.004 -0.008
N6D 0.094 0.051 0.033 -0.018 0.004 0.008
N7B 0.109 0.057 0.112 0.015 0.059 0.002
N8B 0.16 0.15 0.038 0.029 0.008 0.11
N9B 0.06 0.086 0.087 -0.016 0.007 -0.006
N10B 0.082 0.16 0.06 0.027 0.007 -0.04
C1B 0.048 0.04 0.036 -0.006 0.007 0.008
C2B 0.065 0.047 0.036 0.01 0.01 0.008
C3B 0.067 0.035 0.024 -0.003 0.012 0.004
C4B 0.054 0.061 0.042 0.005 0.001 -0.003
C5B 0.063 0.049 0.031 -0.01 0.007 0.005
C6B 0.057 0.043 0.024 0.007 -0.006 0.002
C7B 0.2 0.11 0.23 0.06 0.07 -0.07
C8B 0.37 0.14 0.11 0.1 0.12 0.17
C9B 0.31 0.1 0.054 0.013 -0.03 0.11
C10B 0.19 0.12 0.13 -0.01 -0.1 0.05
C11B 0.1 0.29 0.1 -0.07 -0.02 0.06
C12B 0.09 0.12 0.26 -0.02 -0.04 0.01
C13B 0.28 0.21 0.13 -0.03 0.14 -0.09
C14B 0.13 0.2 0.09 -0.06 0.04 0
C15B 0.11 0.09 0.13 -0.038 0.04 0.002
O2 0.14(2) 0.18(3) 0.24(4) 0.04(3) -0.10(2) 0.06(2)
O3 0.071(6) 0.086(7) 0.22(1) -0.028(8) -0.012(7) 0.018(5)
O4 0.09(2) 0.21(3) 0.31(4) 0.17(3) -0.07(2) -0.04(2)
O5 0.12(3) 0.26(5) 0.37(7) 0.10(4) 0.05(3) 0.04(3)
O6 0.21(4) 0.22(4) 0.22(4) -0.01(3) -0.04(3) 0.09(3)
loop_
_geom_bond_atom_site_label_1
_geom_bond_atom_site_label_2
_geom_bond_site_symmetry_1
_geom_bond_site_symmetry_2
Ni1 N1 1_555 1_555
Ni2 O1 1_555 1_555
Co1 C1 1_555 1_555
O1 H26 1_555 1_555
N1 C1 1_555 1_555
N2 Ni2 1_555 1_555
N3 C3 1_555 1_555
N4 C4 1_555 1_555
N5 C5 1_555 1_555
N6 C6 1_555 1_555
N7 Ni1 1_555 1_555
N8 Ni1 1_555 1_555
N9 Ni1 1_555 1_555
N10 Ni2 1_555 1_555
N11 Ni2 1_555 1_555
C2 Co1 1_555 1_555
C3 Co1 1_555 1_555
C4 Co1 1_555 1_555
C5 Co1 1_555 1_555
C6 Co1 1_555 1_555
C7 N7 1_555 1_555
C8 C7 1_555 1_555
C9 N8 1_555 1_555
C10 N8 1_555 1_555
C11 C10 1_555 1_555
C12 N9 1_555 1_555
C13 N10 1_555 1_555
C14 C13 1_555 1_555
C15 N11 1_555 1_555
H1 N7 1_555 1_555
H2 N7 1_555 1_555
H3 C7 1_555 1_555
H4 C7 1_555 1_555
H5 C8 1_555 1_555
H6 C8 1_555 1_555
H7 C9 1_555 1_555
H8 C9 1_555 1_555
H9 N8 1_555 1_555
H10 C10 1_555 1_555
H11 C10 1_555 1_555
H12 C11 1_555 1_555
H13 C11 1_555 1_555
H14 C12 1_555 1_555
H15 C12 1_555 1_555
H16 N9 1_555 1_555
H17 N9 1_555 1_555
H18 N10 1_555 1_555
H19 N10 1_555 1_555
H20 C13 1_555 1_555
H21 C13 1_555 1_555
H22 C14 1_555 1_555
H23 C14 1_555 1_555
H24 C15 1_555 1_555
H25 C15 1_555 1_555
O2 H27 1_555 1_555
H28 O2 1_555 1_555
O3 H29 1_555 1_555
H30 O3 1_555 1_555
O4 H31 1_555 1_555
H32 O4 1_555 1_555
O6 H33 1_555 1_555
Ni1B N1B 1_555 1_555
Ni1E N3 1_555 1_555
Ni1F N6 1_555 1_555
Ni1G N3B 1_555 1_555
Ni1D N6B 1_555 1_555
Co1B C1B 1_555 1_555
N1B C1B 1_555 1_555
N2B Ni2 1_555 1_555
N3B C3B 1_555 1_555
N3E Ni1 1_555 1_555
N3G Ni1B 1_555 1_555
N4B C4B 1_555 1_555
N5B C5B 1_555 1_555
N6B C6B 1_555 1_555
N6F Ni1 1_555 1_555
N6D Ni1B 1_555 1_555
N7B Ni1B 1_555 1_555
N8B Ni1B 1_555 1_555
N9B Ni1B 1_555 1_555
N10B Ni2 1_555 1_555
C2B Co1B 1_555 1_555
C3B Co1B 1_555 1_555
C4B Co1B 1_555 1_555
C5B Co1B 1_555 1_555
C6B Co1B 1_555 1_555
C7B N7B 1_555 1_555
C8B C7B 1_555 1_555
C9B N8B 1_555 1_555
C10B N8B 1_555 1_555
C11B C10B 1_555 1_555
C12B N9B 1_555 1_555
C13B N10B 1_555 1_555
C14B C13B 1_555 1_555
C15B N11 1_555 1_555
H1B N7B 1_555 1_555
H2B N7B 1_555 1_555
H3B C7B 1_555 1_555
H4B C7B 1_555 1_555
H5B C8B 1_555 1_555
H6B C8B 1_555 1_555
H7B C9B 1_555 1_555
H8B C9B 1_555 1_555
H9B N8B 1_555 1_555
H10B C10B 1_555 1_555
H11B C10B 1_555 1_555
H12B C11B 1_555 1_555
H13B C11B 1_555 1_555
H14B C12B 1_555 1_555
H15B C12B 1_555 1_555
H16B N9B 1_555 1_555
H17B N9B 1_555 1_555
H18B N10B 1_555 1_555
H19B N10B 1_555 1_555
H20B C13B 1_555 1_555
H21B C13B 1_555 1_555
H22B C14B 1_555 1_555
H23B C14B 1_555 1_555
H24B C15B 1_555 1_555
H25B C15B 1_555 1_555
H26B O1 1_555 1_555
N2 C2 1_555 1_555
C8 C9 1_555 1_555
C11 C12 1_555 1_555
C14 C15 1_555 1_555
N2B C2B 1_555 1_555
C8B C9B 1_555 1_555
C11B C12B 1_555 1_555
C14B C15B 1_555 1_555

#END
