
#######################################################################
#
#                 Cambridge Crystallographic Data Centre
#                                CCDC 
#
#######################################################################
#
# If this CIF has been generated from an entry in the Cambridge 
# Structural Database, then it will include bibliographic, chemical, 
# crystal, experimental, refinement or atomic coordinate data resulting 
# from the CCDC's data processing and validation procedures.
#
#######################################################################

data_INIRAY
_chemical_formula_moiety         '(C30 H63 Co2 N21 Ni3 O6)n'
_symmetry_cell_setting           monoclinic
_symmetry_space_group_name_H-M   'C 2/c'
_symmetry_Int_Tables_number      15
_space_group_name_Hall           '-C 2yc'
loop_
_symmetry_equiv_pos_site_id
_symmetry_equiv_pos_as_xyz
1 x,y,z
2 1/2+x,1/2+y,z
3 -x,y,1/2-z
4 1/2-x,1/2+y,1/2-z
5 -x,-y,-z
6 1/2-x,1/2-y,-z
7 x,-y,1/2+z
8 1/2+x,1/2-y,1/2+z
_cell_length_a                   24.466(4)
_cell_length_b                   14.534(3)
_cell_length_c                   16.475(3)
_cell_angle_alpha                90
_cell_angle_beta                 100.04(1)
_cell_angle_gamma                90
_cell_volume                     5768.61
loop_
_atom_site_label
_atom_site_type_symbol
_atom_site_fract_x
_atom_site_fract_y
_atom_site_fract_z
_atom_site_U_iso_or_equiv
_atom_site_thermal_displace_type
Ni1 Ni 0.23004(5) 0.17433(7) 0.69541(5) 0.0526 Uani
Ni2 Ni 0.0000 0.1093(1) 0.2500 0.0592 Uani
Co1 Co 0.18857(4) 0.03945(7) 0.41366(5) 0.0361 Uani
O1 O 0.0000 0.2555(10) 0.2500 0.1494 Uani
N1 N 0.1860(3) 0.1271(5) 0.5804(3) 0.0513 Uani
N2 N 0.0763(3) 0.1075(6) 0.3289(5) 0.0706 Uani
N3 N 0.2420(3) 0.2112(5) 0.3610(4) 0.0637 Uani
N4 N 0.1307(5) -0.1343(7) 0.4562(6) 0.0985 Uani
N5 N 0.3024(4) -0.0364(8) 0.4849(6) 0.1024 Uani
N6 N 0.2047(3) -0.0592(5) 0.2575(4) 0.0650 Uani
N7 N 0.1593(4) 0.2431(6) 0.7157(6) 0.0975 Uani
N8 N 0.2779(5) 0.2194(8) 0.8107(5) 0.1157 Uani
N9 N 0.2950(4) 0.0954(7) 0.6666(6) 0.0867 Uani
N10 N -0.0403(4) 0.1193(9) 0.3497(6) 0.1093 Uani
N11 N 0.0000 -0.0340(10) 0.2500 0.0924 Uani
C1 C 0.1840(3) 0.0937(5) 0.5160(4) 0.0429 Uani
C2 C 0.1184(3) 0.0847(6) 0.3633(4) 0.0460 Uani
C3 C 0.2228(3) 0.1465(6) 0.3825(4) 0.0441 Uani
C4 C 0.1527(4) -0.0696(6) 0.4418(5) 0.0596 Uani
C5 C 0.2585(4) -0.0089(6) 0.4598(4) 0.0538 Uani
C6 C 0.1969(3) -0.0181(5) 0.3142(5) 0.0450 Uani
C7 C 0.169(1) 0.323(1) 0.774(1) 0.2094 Uani
C8 C 0.196(1) 0.314(2) 0.847(1) 0.2141 Uani
C9 C 0.261(2) 0.303(1) 0.845(1) 0.2373 Uani
C10 C 0.3417(10) 0.202(2) 0.814(1) 0.1818 Uani
C11 C 0.3603(10) 0.113(2) 0.792(1) 0.2017 Uani
C12 C 0.3518(6) 0.101(2) 0.708(1) 0.1677 Uani
C13 C -0.052(2) 0.048(3) 0.392(2) 0.3200 Uani
C14 C -0.0480(7) -0.040(2) 0.375(1) 0.1554 Uani
C15 C -0.018(1) -0.080(1) 0.312(1) 0.1862 Uani
H1 H 0.1369 0.1979 0.7353 0.1189 Uiso
H2 H 0.1421 0.2655 0.6643 0.1189 Uiso
H3 H 0.1789 0.3717 0.7482 0.2732 Uiso
H4 H 0.1301 0.3333 0.7869 0.2732 Uiso
H5 H 0.1902 0.2563 0.8737 0.2632 Uiso
H6 H 0.1950 0.3624 0.8817 0.2632 Uiso
H7 H 0.2806 0.3104 0.8999 0.2317 Uiso
H8 H 0.2699 0.3544 0.8128 0.2317 Uiso
H9 H 0.2669 0.1748 0.8481 0.1350 Uiso
H10 H 0.3457 0.2215 0.8771 0.2765 Uiso
H11 H 0.3438 0.2622 0.7896 0.2765 Uiso
H12 H 0.3463 0.0820 0.8254 0.2606 Uiso
H13 H 0.3977 0.1406 0.8153 0.2606 Uiso
H14 H 0.3701 0.0417 0.7079 0.2263 Uiso
H15 H 0.3725 0.1432 0.6798 0.2263 Uiso
H16 H 0.2950 0.1068 0.6103 0.1111 Uiso
H17 H 0.2837 0.0331 0.6734 0.1111 Uiso
H18 H -0.0735 0.1534 0.3309 0.1311 Uiso
H19 H -0.0169 0.1532 0.3904 0.1311 Uiso
H20 H -0.0415 0.0606 0.4432 0.3237 Uiso
H21 H -0.0954 0.0543 0.3780 0.3237 Uiso
H22 H -0.0240 -0.0550 0.4275 0.1763 Uiso
H23 H -0.0829 -0.0649 0.3751 0.1763 Uiso
H24 H 0.0036 -0.1147 0.3429 0.2281 Uiso
H25 H -0.0541 -0.1124 0.2862 0.2281 Uiso
H26 H 0.0319 0.2885 0.2500 0.0713 Uiso
H26B H -0.0319 0.2885 0.2500 0.0713 Uiso
C15B C 0.018(1) -0.080(1) 0.188(1) 0.1862 Uani
C14B C 0.0480(7) -0.040(2) 0.125(1) 0.1554 Uani
C13B C 0.052(2) 0.048(3) 0.108(2) 0.3200 Uani
N10B N 0.0403(4) 0.1193(9) 0.1503(6) 0.1093 Uani
H18B H 0.0735 0.1534 0.1691 0.1311 Uiso
H19B H 0.0169 0.1532 0.1096 0.1311 Uiso
H20B H 0.0415 0.0606 0.0568 0.3237 Uiso
H21B H 0.0954 0.0543 0.1220 0.3237 Uiso
H22B H 0.0240 -0.0550 0.0725 0.1763 Uiso
H23B H 0.0829 -0.0649 0.1249 0.1763 Uiso
H24B H -0.0036 -0.1147 0.1571 0.2281 Uiso
H25B H 0.0541 -0.1124 0.2138 0.2281 Uiso
N2B N -0.0763(3) 0.1075(6) 0.1711(5) 0.0706 Uani
C2B C -0.1184(3) 0.0847(6) 0.1367(4) 0.0460 Uani
Co1B Co -0.18857(4) 0.03945(7) 0.08634(5) 0.0361 Uani
N1B N -0.1860(3) 0.1271(5) -0.0804(3) 0.0513 Uani
C1B C -0.1840(3) 0.0937(5) -0.0160(4) 0.0429 Uani
N3B N -0.2420(3) 0.2112(5) 0.1390(4) 0.0637 Uani
C3B C -0.2228(3) 0.1465(6) 0.1175(4) 0.0441 Uani
N4B N -0.1307(5) -0.1343(7) 0.0438(6) 0.0985 Uani
C4B C -0.1527(4) -0.0696(6) 0.0582(5) 0.0596 Uani
N5B N -0.3024(4) -0.0364(8) 0.0151(6) 0.1024 Uani
C5B C -0.2585(4) -0.0089(6) 0.0402(4) 0.0538 Uani
N6B N -0.2047(3) -0.0592(5) 0.2425(4) 0.0650 Uani
C6B C -0.1969(3) -0.0181(5) 0.1858(5) 0.0450 Uani
Ni1B Ni -0.23004(5) 0.17433(7) -0.19541(5) 0.0526 Uani
N7B N -0.1593(4) 0.2431(6) -0.2157(6) 0.0975 Uani
N8B N -0.2779(5) 0.2194(8) -0.3107(5) 0.1157 Uani
N9B N -0.2950(4) 0.0954(7) -0.1666(6) 0.0867 Uani
C7B C -0.169(1) 0.323(1) -0.274(1) 0.2094 Uani
C8B C -0.196(1) 0.314(2) -0.347(1) 0.2141 Uani
C9B C -0.261(2) 0.303(1) -0.345(1) 0.2373 Uani
C10B C -0.3417(10) 0.202(2) -0.314(1) 0.1818 Uani
C11B C -0.3603(10) 0.113(2) -0.292(1) 0.2017 Uani
C12B C -0.3518(6) 0.101(2) -0.208(1) 0.1677 Uani
H1B H -0.1369 0.1979 -0.2353 0.1189 Uiso
H2B H -0.1421 0.2655 -0.1643 0.1189 Uiso
H3B H -0.1789 0.3717 -0.2482 0.2732 Uiso
H4B H -0.1301 0.3333 -0.2869 0.2732 Uiso
H5B H -0.1902 0.2563 -0.3737 0.2632 Uiso
H6B H -0.1950 0.3624 -0.3817 0.2632 Uiso
H7B H -0.2806 0.3104 -0.3999 0.2317 Uiso
H8B H -0.2699 0.3544 -0.3128 0.2317 Uiso
H9B H -0.2669 0.1748 -0.3481 0.1350 Uiso
H10B H -0.3457 0.2215 -0.3771 0.2765 Uiso
H11B H -0.3438 0.2622 -0.2896 0.2765 Uiso
H12B H -0.3463 0.0820 -0.3254 0.2606 Uiso
H13B H -0.3977 0.1406 -0.3153 0.2606 Uiso
H14B H -0.3701 0.0417 -0.2079 0.2263 Uiso
H15B H -0.3725 0.1432 -0.1798 0.2263 Uiso
H16B H -0.2950 0.1068 -0.1103 0.1111 Uiso
H17B H -0.2837 0.0331 -0.1734 0.1111 Uiso
N3E N 0.2580(3) 0.2888(5) 0.6390(4) 0.0637 Uani
N6F N 0.2047(3) 0.0592(5) 0.7575(4) 0.0650 Uani
Ni1E Ni 0.26996(5) 0.32567(7) 0.30459(5) 0.0526 Uani
Ni1F Ni 0.23004(5) -0.17433(7) 0.19541(5) 0.0526 Uani
Ni1G Ni -0.26996(5) 0.32567(7) 0.19541(5) 0.0526 Uani
Ni1D Ni -0.23004(5) -0.17433(7) 0.30459(5) 0.0526 Uani
N3G N -0.2580(3) 0.2888(5) -0.1390(4) 0.0637 Uani
N6D N -0.2047(3) 0.0592(5) -0.2575(4) 0.0650 Uani
O2 O 0.546(1) 0.239(2) 0.474(2) 0.1720 Uiso
H27 H 0.5442 0.2188 0.4207 0.0713 Uiso
O3 O 0.470(2) 0.163(3) 0.597(2) 0.2400 Uiso
H28 H 0.4983 0.1571 0.6539 0.0713 Uiso
O4 O 0.362(1) 0.182(2) 0.492(2) 0.1590 Uiso
H29 H 0.3374 0.1799 0.5263 0.0713 Uiso
H30 H 0.3943 0.1306 0.5045 0.0713 Uiso
O5 O 0.418(1) -0.056(2) 0.520(2) 0.1720 Uiso
H31 H 0.4154 -0.0472 0.5791 0.0713 Uiso
O6 O 0.410(3) 0.093(5) 0.417(4) 0.1100 Uiso
loop_
_atom_site_aniso_label
_atom_site_aniso_U_11
_atom_site_aniso_U_22
_atom_site_aniso_U_33
_atom_site_aniso_U_23
_atom_site_aniso_U_13
_atom_site_aniso_U_12
Ni1 0.0820(8) 0.0486(6) 0.0261(4) -0.0003(4) 0.0067(4) -0.0229(6)
Ni2 0.0448(9) 0.076(1) 0.0524(9) 0.0000 -0.0038(7) 0.0000
Co1 0.0454(6) 0.0381(5) 0.0241(4) -0.0032(4) 0.0040(4) -0.0053(5)
O1 0.095(9) 0.090(9) 0.24(2) 0.0000 -0.035(10) 0.0000
N1 0.075(5) 0.050(4) 0.030(3) 0.000(3) 0.012(3) -0.009(4)
N2 0.053(4) 0.081(6) 0.073(5) -0.006(4) -0.002(4) 0.009(4)
N3 0.093(6) 0.064(5) 0.035(3) 0.005(3) 0.014(3) -0.028(4)
N4 0.125(8) 0.067(6) 0.109(8) -0.001(5) 0.036(6) -0.034(6)
N5 0.082(7) 0.154(10) 0.072(6) 0.027(6) 0.016(5) 0.027(7)
N6 0.099(6) 0.055(4) 0.038(4) -0.012(3) 0.004(4) 0.027(4)
N7 0.137(9) 0.058(5) 0.113(8) -0.023(5) 0.065(7) -0.011(6)
N8 0.18(1) 0.121(9) 0.037(4) -0.006(5) -0.006(5) -0.097(8)
N9 0.078(6) 0.099(7) 0.083(6) 0.010(5) 0.014(5) -0.004(5)
N10 0.077(6) 0.17(1) 0.079(6) -0.029(7) 0.008(5) 0.035(7)
N11 0.077(9) 0.077(9) 0.13(1) 0.0000 0.037(8) 0.0000
C1 0.050(4) 0.049(4) 0.030(3) 0.002(3) 0.008(3) -0.010(4)
C2 0.052(5) 0.048(4) 0.035(4) -0.012(3) -0.001(3) 0.002(4)
C3 0.058(5) 0.049(4) 0.025(3) -0.002(3) 0.006(3) -0.005(4)
C4 0.082(7) 0.042(5) 0.059(5) -0.005(4) 0.024(5) -0.012(5)
C5 0.052(5) 0.073(6) 0.035(4) 0.007(4) 0.004(3) 0.011(4)
C6 0.048(4) 0.044(5) 0.042(4) -0.003(3) 0.005(3) 0.006(3)
C7 0.37(3) 0.10(1) 0.17(2) -0.05(1) 0.08(2) 0.05(2)
C8 0.39(4) 0.18(2) 0.10(1) -0.11(1) 0.12(2) -0.16(3)
C9 0.49(5) 0.12(1) 0.07(1) -0.030(9) -0.04(2) -0.15(3)
C10 0.16(2) 0.20(2) 0.14(2) 0.04(2) -0.10(1) -0.10(2)
C11 0.14(2) 0.34(4) 0.11(1) 0.07(2) -0.02(1) 0.00(2)
C12 0.070(9) 0.19(2) 0.23(2) 0.06(2) -0.01(1) 0.00(1)
C13 0.57(7) 0.28(4) 0.18(3) -0.03(2) 0.26(4) -0.07(4)
C14 0.10(1) 0.25(3) 0.12(1) 0.09(2) 0.030(10) 0.00(1)
C15 0.25(2) 0.12(1) 0.21(2) 0.08(1) 0.10(2) 0.01(2)
C15B 0.25 0.12 0.21 -0.08 0.1 -0.01
C14B 0.1 0.25 0.12 -0.09 0.03 0
C13B 0.57 0.28 0.18 0.03 0.26 0.07
N10B 0.077 0.17 0.079 0.029 0.008 -0.035
N2B 0.053 0.081 0.073 0.006 -0.002 -0.009
C2B 0.052 0.048 0.035 0.012 -0.001 -0.002
Co1B 0.0454 0.0381 0.0241 0.0032 0.004 0.0053
N1B 0.075 0.05 0.03 0 0.012 0.009
C1B 0.05 0.049 0.03 -0.002 0.008 0.01
N3B 0.093 0.064 0.035 -0.005 0.014 0.028
C3B 0.058 0.049 0.025 0.002 0.006 0.005
N4B 0.125 0.067 0.109 0.001 0.036 0.034
C4B 0.082 0.042 0.059 0.005 0.024 0.012
N5B 0.082 0.154 0.072 -0.027 0.016 -0.027
C5B 0.052 0.073 0.035 -0.007 0.004 -0.011
N6B 0.099 0.055 0.038 0.012 0.004 -0.027
C6B 0.048 0.044 0.042 0.003 0.005 -0.006
Ni1B 0.082 0.0486 0.0261 0.0003 0.0067 0.0229
N7B 0.137 0.058 0.113 0.023 0.065 0.011
N8B 0.18 0.121 0.037 0.006 -0.006 0.097
N9B 0.078 0.099 0.083 -0.01 0.014 0.004
C7B 0.37 0.1 0.17 0.05 0.08 -0.05
C8B 0.39 0.18 0.1 0.11 0.12 0.16
C9B 0.49 0.12 0.07 0.03 -0.04 0.15
C10B 0.16 0.2 0.14 -0.04 -0.1 0.1
C11B 0.14 0.34 0.11 -0.07 -0.02 0
C12B 0.07 0.19 0.23 -0.06 -0.01 0
N3E 0.093 0.064 0.035 0.005 0.014 -0.028
N6F 0.099 0.055 0.038 0.012 0.004 -0.027
Ni1E 0.082 0.0486 0.0261 -0.0003 0.0067 -0.0229
Ni1F 0.082 0.0486 0.0261 0.0003 0.0067 0.0229
Ni1G 0.082 0.0486 0.0261 0.0003 0.0067 0.0229
Ni1D 0.082 0.0486 0.0261 -0.0003 0.0067 -0.0229
N3G 0.093 0.064 0.035 -0.005 0.014 0.028
N6D 0.099 0.055 0.038 -0.012 0.004 0.027
loop_
_geom_bond_atom_site_label_1
_geom_bond_atom_site_label_2
_geom_bond_site_symmetry_1
_geom_bond_site_symmetry_2
Ni1 N1 1_555 1_555
Ni2 O1 1_555 1_555
Co1 C1 1_555 1_555
O1 H26 1_555 1_555
N1 C1 1_555 1_555
N2 Ni2 1_555 1_555
N3 C3 1_555 1_555
N4 C4 1_555 1_555
N5 C5 1_555 1_555
N6 C6 1_555 1_555
N7 Ni1 1_555 1_555
N8 Ni1 1_555 1_555
N9 Ni1 1_555 1_555
N10 Ni2 1_555 1_555
N11 Ni2 1_555 1_555
C2 Co1 1_555 1_555
C3 Co1 1_555 1_555
C4 Co1 1_555 1_555
C5 Co1 1_555 1_555
C6 Co1 1_555 1_555
C7 N7 1_555 1_555
C8 C7 1_555 1_555
C9 N8 1_555 1_555
C10 N8 1_555 1_555
C11 C10 1_555 1_555
C12 N9 1_555 1_555
C13 N10 1_555 1_555
C14 C13 1_555 1_555
C15 N11 1_555 1_555
H1 N7 1_555 1_555
H2 N7 1_555 1_555
H3 C7 1_555 1_555
H4 C7 1_555 1_555
H5 C8 1_555 1_555
H6 C8 1_555 1_555
H7 C9 1_555 1_555
H8 C9 1_555 1_555
H9 N8 1_555 1_555
H10 C10 1_555 1_555
H11 C10 1_555 1_555
H12 C11 1_555 1_555
H13 C11 1_555 1_555
H14 C12 1_555 1_555
H15 C12 1_555 1_555
H16 N9 1_555 1_555
H17 N9 1_555 1_555
H18 N10 1_555 1_555
H19 N10 1_555 1_555
H20 C13 1_555 1_555
H21 C13 1_555 1_555
H22 C14 1_555 1_555
H23 C14 1_555 1_555
H24 C15 1_555 1_555
H25 C15 1_555 1_555
O2 H27 1_555 1_555
O3 H28 1_555 1_555
O4 H29 1_555 1_555
H30 O4 1_555 1_555
O5 H31 1_555 1_555
H26B O1 1_555 1_555
C15B N11 1_555 1_555
C14B C15B 1_555 1_555
C13B C14B 1_555 1_555
N10B Ni2 1_555 1_555
H18B N10B 1_555 1_555
H19B N10B 1_555 1_555
H20B C13B 1_555 1_555
H21B C13B 1_555 1_555
H22B C14B 1_555 1_555
H23B C14B 1_555 1_555
H24B C15B 1_555 1_555
H25B C15B 1_555 1_555
N2B Ni2 1_555 1_555
C2B N2B 1_555 1_555
Co1B C2B 1_555 1_555
N1B C1B 1_555 1_555
C1B Co1B 1_555 1_555
N3B C3B 1_555 1_555
C3B Co1B 1_555 1_555
N4B C4B 1_555 1_555
C4B Co1B 1_555 1_555
N5B C5B 1_555 1_555
C5B Co1B 1_555 1_555
N6B C6B 1_555 1_555
C6B Co1B 1_555 1_555
Ni1B N1B 1_555 1_555
N7B Ni1B 1_555 1_555
N8B Ni1B 1_555 1_555
N9B Ni1B 1_555 1_555
C7B N7B 1_555 1_555
C8B C7B 1_555 1_555
C9B N8B 1_555 1_555
C10B N8B 1_555 1_555
C11B C10B 1_555 1_555
C12B N9B 1_555 1_555
H1B N7B 1_555 1_555
H2B N7B 1_555 1_555
H3B C7B 1_555 1_555
H4B C7B 1_555 1_555
H5B C8B 1_555 1_555
H6B C8B 1_555 1_555
H7B C9B 1_555 1_555
H8B C9B 1_555 1_555
H9B N8B 1_555 1_555
H10B C10B 1_555 1_555
H11B C10B 1_555 1_555
H12B C11B 1_555 1_555
H13B C11B 1_555 1_555
H14B C12B 1_555 1_555
H15B C12B 1_555 1_555
H16B N9B 1_555 1_555
H17B N9B 1_555 1_555
N3E Ni1 1_555 1_555
N6F Ni1 1_555 1_555
Ni1E N3 1_555 1_555
Ni1F N6 1_555 1_555
Ni1G N3B 1_555 1_555
Ni1D N6B 1_555 1_555
N3G Ni1B 1_555 1_555
N6D Ni1B 1_555 1_555
N2 C2 1_555 1_555
C8 C9 1_555 1_555
C11 C12 1_555 1_555
C14 C15 1_555 1_555
C13B N10B 1_555 1_555
C8B C9B 1_555 1_555
C11B C12B 1_555 1_555

#END
