
#######################################################################
#
#                 Cambridge Crystallographic Data Centre
#                                CCDC 
#
#######################################################################
#
# If this CIF has been generated from an entry in the Cambridge 
# Structural Database, then it will include bibliographic, chemical, 
# crystal, experimental, refinement or atomic coordinate data resulting 
# from the CCDC's data processing and validation procedures.
#
#######################################################################

data_LABKIL
_chemical_formula_moiety         '(C50 H36 Cd3 N4 O17)n'
_symmetry_cell_setting           triclinic
_symmetry_space_group_name_H-M   'P -1'
_symmetry_Int_Tables_number      2
_space_group_name_Hall           '-P 1'
loop_
_symmetry_equiv_pos_site_id
_symmetry_equiv_pos_as_xyz
1 x,y,z
2 -x,-y,-z
_cell_length_a                   13.862(3)
_cell_length_b                   14.477(3)
_cell_length_c                   14.664(4)
_cell_angle_alpha                95.331(7)
_cell_angle_beta                 106.021(7)
_cell_angle_gamma                118.084(6)
_cell_volume                     2407.75
loop_
_atom_site_label
_atom_site_type_symbol
_atom_site_fract_x
_atom_site_fract_y
_atom_site_fract_z
Cd1 Cd 0.62151(6) 0.71356(6) 0.41856(5)
Cd2 Cd 0.52645(6) 0.72488(5) 0.16923(5)
Cd3 Cd 0.28356(6) 0.79385(6) 0.13661(5)
O1 O 0.4449(6) 0.9744(6) 0.1631(6)
O2 O 0.4826(5) 0.8589(5) 0.2282(5)
O3 O 0.6856(7) 0.8881(5) 0.4248(5)
O4 O 0.6959(6) 0.8635(6) 0.2777(6)
O5 O 0.9109(5) 1.1007(5) 0.4647(5)
O6 O 0.8488(7) 1.1417(7) 0.8532(6)
O7 O 0.7477(6) 1.1631(6) 0.7229(6)
O8 O 0.4494(6) 0.5293(5) 0.3648(5)
O9 O 0.4498(5) 0.6466(5) 0.2796(5)
O10 O 0.1995(6) 0.6169(5) 0.1530(5)
O11 O 0.3288(5) 0.6479(5) 0.0812(5)
O12 O 0.0984(5) 0.4173(5) -0.0363(4)
O13 O 0.3208(6) 0.3659(6) -0.3201(5)
O14 O 0.3841(6) 0.3677(6) -0.1646(5)
N1 N 0.5577(7) 0.7382(6) 0.5458(6)
N2 N 0.5364(8) 0.7513(7) 1.0223(6)
N3 N 0.1968(7) 0.7662(7) -0.0280(6)
N4 N -0.2199(7) 0.7288(7) -0.4581(6)
C1 C 0.8235(8) 1.1173(8) 0.4102(7)
C2 C 0.7188(8) 1.0299(7) 0.3487(7)
C3 C 0.6966(8) 0.9177(8) 0.3502(8)
C4 C 0.6339(8) 1.0447(7) 0.2851(7)
C5 C 0.5131(8) 0.9539(8) 0.2207(7)
C6 C 0.6619(10) 1.1529(8) 0.2883(9)
H1 H 0.6087 1.1659 0.2460
C7 C 0.7670(11) 1.2385(10) 0.3535(11)
H2 H 0.7829 1.3089 0.3564
C8 C 0.8495(9) 1.2221(8) 0.4147(9)
H3 H 0.9209 1.2806 0.4581
C9 C 0.9340(8) 1.1078(7) 0.5641(8)
C10 C 0.8639(8) 1.1170(7) 0.6116(8)
H4 H 0.7980 1.1189 0.5769
C11 C 0.8931(8) 1.1232(7) 0.7117(7)
C12 C 0.8259(9) 1.1414(8) 0.7649(8)
C13 C 0.9918(8) 1.1192(8) 0.7605(8)
H5 H 1.0127 1.1239 0.8275
C14 C 1.0593(9) 1.1083(8) 0.7116(8)
H6 H 1.1245 1.1048 0.7454
C15 C 1.0302(8) 1.1026(7) 0.6124(8)
H7 H 1.0754 1.0954 0.5790
C16 C 0.1589(8) 0.3942(8) 0.0414(7)
C17 C 0.2429(7) 0.4800(7) 0.1236(6)
C18 C 0.2591(8) 0.5900(7) 0.1209(7)
C19 C 0.3016(7) 0.4575(7) 0.2039(7)
C20 C 0.4040(8) 0.5480(8) 0.2889(7)
C21 C 0.2702(8) 0.3530(7) 0.2037(8)
H8 H 0.3069 0.3380 0.2586
C22 C 0.1842(10) 0.2694(9) 0.1223(8)
H9 H 0.1631 0.1984 0.1231
C23 C 0.1294(9) 0.2893(8) 0.0407(8)
H10 H 0.0730 0.2326 -0.0147
C24 C 0.1186(8) 0.4100(7) -0.1230(7)
C25 C 0.2083(8) 0.3972(7) -0.1344(7)
H11 H 0.2596 0.3924 -0.0815
C26 C 0.2206(8) 0.3918(7) -0.2232(7)
C27 C 0.3164(8) 0.3737(8) -0.2371(8)
C28 C 0.1457(9) 0.3989(8) -0.3020(7)
H12 H 0.1554 0.3964 -0.3623
C29 C 0.0543(9) 0.4099(8) -0.2902(7)
H13 H 0.0028 0.4148 -0.3429
C30 C 0.0408(8) 0.4134(7) -0.2013(7)
H14 H -0.0215 0.4181 -0.1942
C31 C 0.4913(9) 0.6505(8) 0.5715(7)
H15 H 0.4505 0.5836 0.5257
C32 C 0.4797(9) 0.6530(9) 0.6596(8)
H16 H 0.4319 0.5888 0.6728
C33 C 0.5380(8) 0.7500(7) 0.7307(7)
C34 C 0.6059(9) 0.8438(8) 0.7049(8)
H17 H 0.6455 0.9118 0.7489
C35 C 0.6124(10) 0.8329(8) 0.6140(8)
H18 H 0.6582 0.8958 0.5979
C36 C 0.5375(8) 0.7528(7) 0.8310(7)
C37 C 0.4524(16) 0.6738(13) 0.8502(13)
H19 H 0.3922 0.6135 0.7993
C38 C 0.4513(19) 0.6793(15) 0.9452(14)
H20 H 0.3842 0.6272 0.9532
C39 C 0.6114(13) 0.8303(11) 1.0018(11)
H21 H 0.6693 0.8906 1.0536
C40 C 0.6146(13) 0.8349(11) 0.9098(11)
H22 H 0.6728 0.8976 0.9023
C41 C 0.2184(10) 0.8489(9) -0.0675(9)
H23 H 0.2883 0.9143 -0.0337
C42 C 0.1452(10) 0.8459(9) -0.1550(9)
H24 H 0.1644 0.9077 -0.1780
C43 C 0.0428(8) 0.7485(8) -0.2074(7)
C44 C 0.0222(9) 0.6600(8) -0.1700(8)
H25 H -0.0442 0.5922 -0.2041
C45 C 0.1004(9) 0.6732(8) -0.0827(7)
H26 H 0.0850 0.6120 -0.0594
C46 C -0.0454(8) 0.7412(8) -0.2977(7)
C47 C -0.0561(9) 0.8295(8) -0.3082(8)
H27 H -0.0038 0.8957 -0.2613
C48 C -0.1431(9) 0.8208(8) -0.3871(8)
H28 H -0.1490 0.8817 -0.3916
C49 C -0.2056(9) 0.6445(8) -0.4485(7)
H29 H -0.2558 0.5802 -0.4980
C50 C -0.1231(9) 0.6468(8) -0.3715(7)
H30 H -0.1188 0.5849 -0.3685
Cd1_2 Cd -0.37849(6) 0.71356(6) -0.58144(5)
Cd1A Cd 0.37849(6) 0.28644(6) -0.41856(5)
Cd2_2 Cd 0.52645(6) 0.72488(5) 1.16923(5)
Cd2A Cd 0.47355(6) 0.27512(5) -0.16923(5)
Cd3A Cd 0.71644(6) 1.20615(6) 0.86339(5)
O6A O 0.1512(7) 0.8583(7) 0.1468(6)
O7A O 0.2523(6) 0.8369(6) 0.2771(6)
O13A O 0.6792(6) 0.6341(6) 0.3201(5)
O14A O 0.6159(6) 0.6323(6) 0.1646(5)
N2_2 N 0.5364(8) 0.7513(7) 0.0223(6)
N4_2 N 0.7801(7) 0.7288(7) 0.5419(6)
O15 O 0.416(2) 0.8636(17) 0.4494(17)
H31 H 0.4826 0.8926 0.4440
H32 H 0.4179 0.9045 0.4964
O16 O 0.1011(13) 0.9855(11) 0.0287(11)
H33 H 0.0927 0.9550 -0.0277
H34 H 0.1489 1.0534 0.0424
O17 O 0.2375(11) 0.6285(9) 0.3782(9)
H35 H 0.1760 0.5999 0.3923
H36 H 0.2345 0.5813 0.3366
loop_
_geom_bond_atom_site_label_1
_geom_bond_atom_site_label_2
_geom_bond_site_symmetry_1
_geom_bond_site_symmetry_2
Cd1 O3 1_555 1_555
Cd2 O2 1_555 1_555
Cd3 O1 1_555 1_555
O1 C5 1_555 1_555
O2 Cd3 1_555 1_555
O3 C3 1_555 1_555
O4 Cd2 1_555 1_555
O5 C1 1_555 1_555
O6 C12 1_555 1_555
O7 C12 1_555 1_555
O8 Cd1 1_555 1_555
O9 Cd1 1_555 1_555
O10 Cd3 1_555 1_555
O11 Cd2 1_555 1_555
O12 C16 1_555 1_555
O13 C27 1_555 1_555
O14 C27 1_555 1_555
N1 Cd1 1_555 1_555
N2 C38 1_555 1_555
N3 Cd3 1_555 1_555
N4 C48 1_555 1_555
C1 C2 1_555 1_555
C2 C3 1_555 1_555
C3 O4 1_555 1_555
C4 C2 1_555 1_555
C5 O2 1_555 1_555
C6 C4 1_555 1_555
H1 C6 1_555 1_555
C7 C6 1_555 1_555
H2 C7 1_555 1_555
C8 C1 1_555 1_555
H3 C8 1_555 1_555
C9 O5 1_555 1_555
C10 C9 1_555 1_555
H4 C10 1_555 1_555
C11 C10 1_555 1_555
C12 C11 1_555 1_555
C13 C11 1_555 1_555
H5 C13 1_555 1_555
C14 C13 1_555 1_555
H6 C14 1_555 1_555
C15 C9 1_555 1_555
H7 C15 1_555 1_555
C16 C17 1_555 1_555
C17 C18 1_555 1_555
C18 O10 1_555 1_555
C19 C17 1_555 1_555
C20 O8 1_555 1_555
C21 C19 1_555 1_555
H8 C21 1_555 1_555
C22 C21 1_555 1_555
H9 C22 1_555 1_555
C23 C16 1_555 1_555
H10 C23 1_555 1_555
C24 O12 1_555 1_555
C25 C24 1_555 1_555
H11 C25 1_555 1_555
C26 C25 1_555 1_555
C27 C26 1_555 1_555
C28 C26 1_555 1_555
H12 C28 1_555 1_555
C29 C28 1_555 1_555
H13 C29 1_555 1_555
C30 C24 1_555 1_555
H14 C30 1_555 1_555
C31 N1 1_555 1_555
H15 C31 1_555 1_555
C32 C31 1_555 1_555
H16 C32 1_555 1_555
C33 C32 1_555 1_555
C34 C33 1_555 1_555
H17 C34 1_555 1_555
C35 N1 1_555 1_555
H18 C35 1_555 1_555
C36 C33 1_555 1_555
C37 C36 1_555 1_555
H19 C37 1_555 1_555
C38 C37 1_555 1_555
H20 C38 1_555 1_555
C39 N2 1_555 1_555
H21 C39 1_555 1_555
C40 C36 1_555 1_555
H22 C40 1_555 1_555
C41 N3 1_555 1_555
H23 C41 1_555 1_555
C42 C41 1_555 1_555
H24 C42 1_555 1_555
C43 C42 1_555 1_555
C44 C43 1_555 1_555
H25 C44 1_555 1_555
C45 N3 1_555 1_555
H26 C45 1_555 1_555
C46 C43 1_555 1_555
C47 C46 1_555 1_555
H27 C47 1_555 1_555
C48 C47 1_555 1_555
H28 C48 1_555 1_555
C49 N4 1_555 1_555
H29 C49 1_555 1_555
C50 C46 1_555 1_555
H30 C50 1_555 1_555
O15 H31 1_555 1_555
H32 O15 1_555 1_555
O16 H33 1_555 1_555
H34 O16 1_555 1_555
O17 H35 1_555 1_555
H36 O17 1_555 1_555
Cd1_2 N4 1_555 1_555
Cd1A O13 1_555 1_555
Cd2_2 N2 1_555 1_555
Cd2A O14 1_555 1_555
Cd3A O6 1_555 1_555
O6A Cd3 1_555 1_555
O7A Cd3 1_555 1_555
O13A Cd1 1_555 1_555
O14A Cd2 1_555 1_555
N2_2 Cd2 1_555 1_555
N4_2 Cd1 1_555 1_555
Cd2 O9 1_555 1_555
Cd3 O11 1_555 1_555
O7 Cd3A 1_555 1_555
O9 C20 1_555 1_555
O11 C18 1_555 1_555
C4 C5 1_555 1_555
C7 C8 1_555 1_555
C14 C15 1_555 1_555
C19 C20 1_555 1_555
C22 C23 1_555 1_555
C29 C30 1_555 1_555
C34 C35 1_555 1_555
C39 C40 1_555 1_555
C44 C45 1_555 1_555
C49 C50 1_555 1_555

#END
