
#######################################################################
#
#                 Cambridge Crystallographic Data Centre
#                                CCDC 
#
#######################################################################
#
# If this CIF has been generated from an entry in the Cambridge 
# Structural Database, then it will include bibliographic, chemical, 
# crystal, experimental, refinement or atomic coordinate data resulting 
# from the CCDC's data processing and validation procedures.
#
#######################################################################

data_FORXAM
_chemical_formula_moiety         'C44 H16 N3 O24 Zn11'
_symmetry_cell_setting           cubic
_symmetry_space_group_name_H-M   'F m -3 m'
_symmetry_Int_Tables_number      225
_space_group_name_Hall           '-F 4 2 3'
loop_
_symmetry_equiv_pos_site_id
_symmetry_equiv_pos_as_xyz
1 x,y,z
2 -x,-y,z
3 -x,y,-z
4 x,-y,-z
5 z,x,y
6 z,-x,-y
7 -z,-x,y
8 -z,x,-y
9 y,z,x
10 -y,z,-x
11 y,-z,-x
12 -y,-z,x
13 y,x,-z
14 -y,-x,-z
15 y,-x,z
16 -y,x,z
17 x,z,-y
18 -x,z,y
19 -x,-z,-y
20 x,-z,y
21 z,y,-x
22 z,-y,x
23 -z,y,x
24 -z,-y,-x
25 x,1/2+y,1/2+z
26 -x,1/2-y,1/2+z
27 -x,1/2+y,1/2-z
28 x,1/2-y,1/2-z
29 z,1/2+x,1/2+y
30 z,1/2-x,1/2-y
31 -z,1/2-x,1/2+y
32 -z,1/2+x,1/2-y
33 y,1/2+z,1/2+x
34 -y,1/2+z,1/2-x
35 y,1/2-z,1/2-x
36 -y,1/2-z,1/2+x
37 y,1/2+x,1/2-z
38 -y,1/2-x,1/2-z
39 y,1/2-x,1/2+z
40 -y,1/2+x,1/2+z
41 x,1/2+z,1/2-y
42 -x,1/2+z,1/2+y
43 -x,1/2-z,1/2-y
44 x,1/2-z,1/2+y
45 z,1/2+y,1/2-x
46 z,1/2-y,1/2+x
47 -z,1/2+y,1/2+x
48 -z,1/2-y,1/2-x
49 1/2+x,y,1/2+z
50 1/2-x,-y,1/2+z
51 1/2-x,y,1/2-z
52 1/2+x,-y,1/2-z
53 1/2+z,x,1/2+y
54 1/2+z,-x,1/2-y
55 1/2-z,-x,1/2+y
56 1/2-z,x,1/2-y
57 1/2+y,z,1/2+x
58 1/2-y,z,1/2-x
59 1/2+y,-z,1/2-x
60 1/2-y,-z,1/2+x
61 1/2+y,x,1/2-z
62 1/2-y,-x,1/2-z
63 1/2+y,-x,1/2+z
64 1/2-y,x,1/2+z
65 1/2+x,z,1/2-y
66 1/2-x,z,1/2+y
67 1/2-x,-z,1/2-y
68 1/2+x,-z,1/2+y
69 1/2+z,y,1/2-x
70 1/2+z,-y,1/2+x
71 1/2-z,y,1/2+x
72 1/2-z,-y,1/2-x
73 1/2+x,1/2+y,z
74 1/2-x,1/2-y,z
75 1/2-x,1/2+y,-z
76 1/2+x,1/2-y,-z
77 1/2+z,1/2+x,y
78 1/2+z,1/2-x,-y
79 1/2-z,1/2-x,y
80 1/2-z,1/2+x,-y
81 1/2+y,1/2+z,x
82 1/2-y,1/2+z,-x
83 1/2+y,1/2-z,-x
84 1/2-y,1/2-z,x
85 1/2+y,1/2+x,-z
86 1/2-y,1/2-x,-z
87 1/2+y,1/2-x,z
88 1/2-y,1/2+x,z
89 1/2+x,1/2+z,-y
90 1/2-x,1/2+z,y
91 1/2-x,1/2-z,-y
92 1/2+x,1/2-z,y
93 1/2+z,1/2+y,-x
94 1/2+z,1/2-y,x
95 1/2-z,1/2+y,x
96 1/2-z,1/2-y,-x
97 -x,-y,-z
98 x,y,-z
99 x,-y,z
100 -x,y,z
101 -z,-x,-y
102 -z,x,y
103 z,x,-y
104 z,-x,y
105 -y,-z,-x
106 y,-z,x
107 -y,z,x
108 y,z,-x
109 -y,-x,z
110 y,x,z
111 -y,x,-z
112 y,-x,-z
113 -x,-z,y
114 x,-z,-y
115 x,z,y
116 -x,z,-y
117 -z,-y,x
118 -z,y,-x
119 z,-y,-x
120 z,y,x
121 -x,1/2-y,1/2-z
122 x,1/2+y,1/2-z
123 x,1/2-y,1/2+z
124 -x,1/2+y,1/2+z
125 -z,1/2-x,1/2-y
126 -z,1/2+x,1/2+y
127 z,1/2+x,1/2-y
128 z,1/2-x,1/2+y
129 -y,1/2-z,1/2-x
130 y,1/2-z,1/2+x
131 -y,1/2+z,1/2+x
132 y,1/2+z,1/2-x
133 -y,1/2-x,1/2+z
134 y,1/2+x,1/2+z
135 -y,1/2+x,1/2-z
136 y,1/2-x,1/2-z
137 -x,1/2-z,1/2+y
138 x,1/2-z,1/2-y
139 x,1/2+z,1/2+y
140 -x,1/2+z,1/2-y
141 -z,1/2-y,1/2+x
142 -z,1/2+y,1/2-x
143 z,1/2-y,1/2-x
144 z,1/2+y,1/2+x
145 1/2-x,-y,1/2-z
146 1/2+x,y,1/2-z
147 1/2+x,-y,1/2+z
148 1/2-x,y,1/2+z
149 1/2-z,-x,1/2-y
150 1/2-z,x,1/2+y
151 1/2+z,x,1/2-y
152 1/2+z,-x,1/2+y
153 1/2-y,-z,1/2-x
154 1/2+y,-z,1/2+x
155 1/2-y,z,1/2+x
156 1/2+y,z,1/2-x
157 1/2-y,-x,1/2+z
158 1/2+y,x,1/2+z
159 1/2-y,x,1/2-z
160 1/2+y,-x,1/2-z
161 1/2-x,-z,1/2+y
162 1/2+x,-z,1/2-y
163 1/2+x,z,1/2+y
164 1/2-x,z,1/2-y
165 1/2-z,-y,1/2+x
166 1/2-z,y,1/2-x
167 1/2+z,-y,1/2-x
168 1/2+z,y,1/2+x
169 1/2-x,1/2-y,-z
170 1/2+x,1/2+y,-z
171 1/2+x,1/2-y,z
172 1/2-x,1/2+y,z
173 1/2-z,1/2-x,-y
174 1/2-z,1/2+x,y
175 1/2+z,1/2+x,-y
176 1/2+z,1/2-x,y
177 1/2-y,1/2-z,-x
178 1/2+y,1/2-z,x
179 1/2-y,1/2+z,x
180 1/2+y,1/2+z,-x
181 1/2-y,1/2-x,z
182 1/2+y,1/2+x,z
183 1/2-y,1/2+x,-z
184 1/2+y,1/2-x,-z
185 1/2-x,1/2-z,y
186 1/2+x,1/2-z,-y
187 1/2+x,1/2+z,y
188 1/2-x,1/2+z,-y
189 1/2-z,1/2-y,x
190 1/2-z,1/2+y,-x
191 1/2+z,1/2-y,-x
192 1/2+z,1/2+y,x
_cell_length_a                   39.931(4)
_cell_length_b                   39.931(4)
_cell_length_c                   39.931(4)
_cell_angle_alpha                90
_cell_angle_beta                 90
_cell_angle_gamma                90
_cell_volume                     63669.4
loop_
_atom_site_label
_atom_site_type_symbol
_atom_site_fract_x
_atom_site_fract_y
_atom_site_fract_z
Zn1 Zn -0.139214(11) 0.139214(11) 0.5000
Zn2 Zn -0.191255(10) 0.1913 0.500000(10)
N1 N -0.22759(7) 0.2276 0.50000(7)
O1 O -0.12111(6) 0.17075(7) 0.46453(6)
O2 O -0.16066(8) 0.20972(9) 0.46478(9)
C1 C -0.13442(9) 0.19718(11) 0.45357(10)
C2 C -0.11715(10) 0.21431(12) 0.42544(11)
C3 C -0.09005(10) 0.19979(14) 0.40995(10)
H1 H -0.0818 0.1791 0.4182
C4 C -0.1323(5) 0.2414(5) 0.4084(5)
H2 H -0.1522 0.2507 0.4176
C5 C -0.1201(4) 0.2548(6) 0.3799(4)
H3 H -0.1311 0.2728 0.3689
C6 C -0.2242(2) 0.2480(2) 0.47008(19)
C7 C -0.2129(2) 0.2622(2) 0.5000
O3 O -0.1024(2) 0.1024(2) 0.5000
Zn1AB Zn -0.0000 0.139214(11) 0.360786(11)
Zn1GA Zn -0.139214(11) -0.0000 0.639214(11)
Zn1BB Zn -0.0000 0.139214(11) 0.639214(11)
Zn1IA Zn -0.139214(11) -0.0000 0.360786(11)
Zn2RB Zn -0.000000(10) 0.1913 0.308745(10)
Zn2FC Zn -0.3087 0.308745(10) 0.500000(10)
Zn2GA Zn -0.1913 -0.000000(10) 0.691255(10)
Zn2PB Zn -0.000000(10) 0.1913 0.691255(10)
Zn2IA Zn -0.1913 -0.000000(10) 0.308745(10)
N1FC N -0.2724 0.27241(7) 0.50000(7)
N1RB N -0.00000(7) 0.2276 0.27241(7)
O1KF O -0.03547(6) 0.17075(7) 0.37889(6)
O1M O -0.17075(7) 0.12111(6) 0.53547(6)
O1XD O -0.17075(7) 0.03547(6) 0.62111(6)
O1SC O -0.12111(6) 0.17075(7) 0.53547(6)
O1PB O -0.03547(6) 0.17075(7) 0.62111(6)
O1DD O -0.17075(7) 0.12111(6) 0.46453(6)
O1IA O -0.17075(7) 0.03547(6) 0.37889(6)
O1RE O 0.03547(6) 0.12111(6) 0.32925(7)
O1RB O 0.03547(6) 0.17075(7) 0.37889(6)
O1AB O -0.03547(6) 0.12111(6) 0.32925(7)
O2KF O -0.03522(9) 0.20972(9) 0.33934(8)
O2M O -0.20972(9) 0.16066(8) 0.53522(9)
O2XD O -0.20972(9) 0.03522(9) 0.66066(8)
O2SC O -0.16066(8) 0.20972(9) 0.53522(9)
O2PB O -0.03522(9) 0.20972(9) 0.66066(8)
O2DD O -0.20972(9) 0.16066(8) 0.46478(9)
O2IA O -0.20972(9) 0.03522(9) 0.33934(8)
O2RE O 0.03522(9) 0.16066(8) 0.29028(9)
O2RB O 0.03522(9) 0.20972(9) 0.33934(8)
O2AB O -0.03522(9) 0.16066(8) 0.29028(9)
C1KF C -0.04643(10) 0.19718(11) 0.36558(9)
C1M C -0.19718(11) 0.13442(9) 0.54643(10)
C1XD C -0.19718(11) 0.04643(10) 0.63442(9)
C1SC C -0.13442(9) 0.19718(11) 0.54643(10)
C1PB C -0.04643(10) 0.19718(11) 0.63442(9)
C1DD C -0.19718(11) 0.13442(9) 0.45357(10)
C1IA C -0.19718(11) 0.04643(10) 0.36558(9)
C2KF C -0.07456(11) 0.21431(12) 0.38285(10)
C2M C -0.21431(12) 0.11715(10) 0.57456(11)
C2XD C -0.21431(12) 0.07456(11) 0.61715(10)
C2SC C -0.11715(10) 0.21431(12) 0.57456(11)
C2PB C -0.07456(11) 0.21431(12) 0.61715(10)
C2DD C -0.21431(12) 0.11715(10) 0.42544(11)
C2IA C -0.21431(12) 0.07456(11) 0.38285(10)
C3M C -0.19979(14) 0.09005(10) 0.59005(10)
C3PB C -0.09005(10) 0.19979(14) 0.59005(10)
C3IA C -0.19979(14) 0.09005(10) 0.40995(10)
H1M H -0.1791 0.0818 0.5818
H1PB H -0.0818 0.1791 0.5818
H1IA H -0.1791 0.0818 0.4182
C4KF C -0.0916(5) 0.2414(5) 0.3677(5)
C4M C -0.2414(5) 0.1323(5) 0.5916(5)
C4XD C -0.2414(5) 0.0916(5) 0.6323(5)
C4SC C -0.1323(5) 0.2414(5) 0.5916(5)
C4PB C -0.0916(5) 0.2414(5) 0.6323(5)
C4DD C -0.2414(5) 0.1323(5) 0.4084(5)
C4IA C -0.2414(5) 0.0916(5) 0.3677(5)
H2KF H -0.0824 0.2507 0.3478
H2M H -0.2507 0.1522 0.5824
H2XD H -0.2507 0.0824 0.6522
H2SC H -0.1522 0.2507 0.5824
H2PB H -0.0824 0.2507 0.6522
H2DD H -0.2507 0.1522 0.4176
H2IA H -0.2507 0.0824 0.3478
C5M C -0.2548(6) 0.1201(4) 0.6201(4)
C5PB C -0.1201(4) 0.2548(6) 0.6201(4)
C5IA C -0.2548(6) 0.1201(4) 0.3799(4)
H3M H -0.2728 0.1311 0.6311
H3PB H -0.1311 0.2728 0.6311
H3IA H -0.2728 0.1311 0.3689
C6DD C -0.2480(2) 0.2242(2) 0.47008(19)
C6YF C -0.2520(2) 0.2758(2) 0.47008(19)
C6UB C -0.2758(2) 0.2520(2) 0.47008(19)
C6FC C -0.2520(2) 0.2758(2) 0.52992(19)
C6LF C -0.2758(2) 0.2520(2) 0.52992(19)
C6SC C -0.2242(2) 0.2480(2) 0.52992(19)
C6M C -0.2480(2) 0.2242(2) 0.52992(19)
C7FC C -0.2378(2) 0.2871(2) 0.5000
C7M C -0.2622(2) 0.2129(2) 0.5000
C7UB C -0.2871(2) 0.2378(2) 0.5000
O3AB O -0.0000 0.1024(2) 0.3976(2)
loop_
_geom_bond_atom_site_label_1
_geom_bond_atom_site_label_2
_geom_bond_site_symmetry_1
_geom_bond_site_symmetry_2
Zn1 O1 1_555 1_555
Zn2 N1 1_555 1_555
N1 C6 1_555 1_555
O1 C1 1_555 1_555
O2 Zn2 1_555 1_555
C1 O2 1_555 1_555
C2 C1 1_555 1_555
C3 C2 1_555 1_555
H1 C3 1_555 1_555
C4 C2 1_555 1_555
H2 C4 1_555 1_555
C5 C4 1_555 1_555
H3 C5 1_555 1_555
C6 C7 1_555 1_555
C7 N1 1_555 1_555
O3 Zn1 1_555 1_555
Zn1AB O1KF 1_555 1_555
Zn1GA O1XD 1_555 1_555
Zn1BB O1PB 1_555 1_555
Zn1IA O1IA 1_555 1_555
Zn2RB N1RB 1_555 1_555
Zn2FC N1FC 1_555 1_555
Zn2GA O2XD 1_555 1_555
Zn2PB O2PB 1_555 1_555
Zn2IA O2IA 1_555 1_555
N1FC C6YF 1_555 1_555
O1KF C1KF 1_555 1_555
O1M Zn1 1_555 1_555
O1XD C1XD 1_555 1_555
O1SC Zn1 1_555 1_555
O1PB C1PB 1_555 1_555
O1DD Zn1 1_555 1_555
O1IA C1IA 1_555 1_555
O1RE Zn1AB 1_555 1_555
O1RB Zn1AB 1_555 1_555
O1AB Zn1AB 1_555 1_555
O2KF Zn2RB 1_555 1_555
O2M Zn2 1_555 1_555
O2XD C1XD 1_555 1_555
O2SC Zn2 1_555 1_555
O2PB C1PB 1_555 1_555
O2DD Zn2 1_555 1_555
O2IA C1IA 1_555 1_555
O2RE Zn2RB 1_555 1_555
O2RB Zn2RB 1_555 1_555
O2AB Zn2RB 1_555 1_555
C1KF O2KF 1_555 1_555
C1M O1M 1_555 1_555
C1XD C2XD 1_555 1_555
C1SC O1SC 1_555 1_555
C1PB C2PB 1_555 1_555
C1DD O1DD 1_555 1_555
C1IA C2IA 1_555 1_555
C2KF C3 1_555 1_555
C2M C1M 1_555 1_555
C2XD C3M 1_555 1_555
C2SC C1SC 1_555 1_555
C2PB C3PB 1_555 1_555
C2DD C1DD 1_555 1_555
C2IA C3IA 1_555 1_555
C3M C2M 1_555 1_555
C3PB C2SC 1_555 1_555
C3IA C2DD 1_555 1_555
H1M C3M 1_555 1_555
H1PB C3PB 1_555 1_555
H1IA C3IA 1_555 1_555
C4KF C5 1_555 1_555
C4M C2M 1_555 1_555
C4XD C2XD 1_555 1_555
C4SC C2SC 1_555 1_555
C4PB C2PB 1_555 1_555
C4DD C2DD 1_555 1_555
C4IA C2IA 1_555 1_555
H2KF C4KF 1_555 1_555
H2M C4M 1_555 1_555
H2XD C4XD 1_555 1_555
H2SC C4SC 1_555 1_555
H2PB C4PB 1_555 1_555
H2DD C4DD 1_555 1_555
H2IA C4IA 1_555 1_555
C5M C4M 1_555 1_555
C5PB C4SC 1_555 1_555
C5IA C4DD 1_555 1_555
H3M C5M 1_555 1_555
H3PB C5PB 1_555 1_555
H3IA C5IA 1_555 1_555
C6DD N1 1_555 1_555
C6YF C6 1_555 1_555
C6UB N1FC 1_555 1_555
C6FC N1FC 1_555 1_555
C6LF N1FC 1_555 1_555
C6SC N1 1_555 1_555
C6M N1 1_555 1_555
C7FC C7 1_555 1_555
C7M N1 1_555 1_555
C7UB N1FC 1_555 1_555
O3AB Zn1AB 1_555 1_555
C6 C6DD 1_555 1_555
C7 C6SC 1_555 1_555
N1FC C7FC 1_555 1_555
O2M C1M 1_555 1_555
O2SC C1SC 1_555 1_555
O2DD C1DD 1_555 1_555
C1KF C2KF 1_555 1_555
C2KF C4KF 1_555 1_555
C4XD C5M 1_555 1_555
C4PB C5PB 1_555 1_555
C4IA C5IA 1_555 1_555
C6DD C6UB 1_555 1_555
C6DD C7M 1_555 1_555
C6YF C6UB 1_555 1_555
C6YF C7FC 1_555 1_555
C6UB C7UB 1_555 1_555
C6FC C6LF 1_555 1_555
C6FC C6SC 1_555 1_555
C6FC C7FC 1_555 1_555
C6LF C6M 1_555 1_555
C6LF C7UB 1_555 1_555
C6SC C6M 1_555 1_555
C6M C7M 1_555 1_555
C7M C7UB 1_555 1_555

#END
