
#######################################################################
#
#                 Cambridge Crystallographic Data Centre
#                                CCDC 
#
#######################################################################
#
# If this CIF has been generated from an entry in the Cambridge 
# Structural Database, then it will include bibliographic, chemical, 
# crystal, experimental, refinement or atomic coordinate data resulting 
# from the CCDC's data processing and validation procedures.
#
#######################################################################

data_FORXIU
_chemical_formula_moiety         'C64 H24 N3 O24 Zn11'
_symmetry_cell_setting           cubic
_symmetry_space_group_name_H-M   'F m -3 m'
_symmetry_Int_Tables_number      225
_space_group_name_Hall           '-F 4 2 3'
loop_
_symmetry_equiv_pos_site_id
_symmetry_equiv_pos_as_xyz
1 x,y,z
2 -x,-y,z
3 -x,y,-z
4 x,-y,-z
5 z,x,y
6 z,-x,-y
7 -z,-x,y
8 -z,x,-y
9 y,z,x
10 -y,z,-x
11 y,-z,-x
12 -y,-z,x
13 y,x,-z
14 -y,-x,-z
15 y,-x,z
16 -y,x,z
17 x,z,-y
18 -x,z,y
19 -x,-z,-y
20 x,-z,y
21 z,y,-x
22 z,-y,x
23 -z,y,x
24 -z,-y,-x
25 x,1/2+y,1/2+z
26 -x,1/2-y,1/2+z
27 -x,1/2+y,1/2-z
28 x,1/2-y,1/2-z
29 z,1/2+x,1/2+y
30 z,1/2-x,1/2-y
31 -z,1/2-x,1/2+y
32 -z,1/2+x,1/2-y
33 y,1/2+z,1/2+x
34 -y,1/2+z,1/2-x
35 y,1/2-z,1/2-x
36 -y,1/2-z,1/2+x
37 y,1/2+x,1/2-z
38 -y,1/2-x,1/2-z
39 y,1/2-x,1/2+z
40 -y,1/2+x,1/2+z
41 x,1/2+z,1/2-y
42 -x,1/2+z,1/2+y
43 -x,1/2-z,1/2-y
44 x,1/2-z,1/2+y
45 z,1/2+y,1/2-x
46 z,1/2-y,1/2+x
47 -z,1/2+y,1/2+x
48 -z,1/2-y,1/2-x
49 1/2+x,y,1/2+z
50 1/2-x,-y,1/2+z
51 1/2-x,y,1/2-z
52 1/2+x,-y,1/2-z
53 1/2+z,x,1/2+y
54 1/2+z,-x,1/2-y
55 1/2-z,-x,1/2+y
56 1/2-z,x,1/2-y
57 1/2+y,z,1/2+x
58 1/2-y,z,1/2-x
59 1/2+y,-z,1/2-x
60 1/2-y,-z,1/2+x
61 1/2+y,x,1/2-z
62 1/2-y,-x,1/2-z
63 1/2+y,-x,1/2+z
64 1/2-y,x,1/2+z
65 1/2+x,z,1/2-y
66 1/2-x,z,1/2+y
67 1/2-x,-z,1/2-y
68 1/2+x,-z,1/2+y
69 1/2+z,y,1/2-x
70 1/2+z,-y,1/2+x
71 1/2-z,y,1/2+x
72 1/2-z,-y,1/2-x
73 1/2+x,1/2+y,z
74 1/2-x,1/2-y,z
75 1/2-x,1/2+y,-z
76 1/2+x,1/2-y,-z
77 1/2+z,1/2+x,y
78 1/2+z,1/2-x,-y
79 1/2-z,1/2-x,y
80 1/2-z,1/2+x,-y
81 1/2+y,1/2+z,x
82 1/2-y,1/2+z,-x
83 1/2+y,1/2-z,-x
84 1/2-y,1/2-z,x
85 1/2+y,1/2+x,-z
86 1/2-y,1/2-x,-z
87 1/2+y,1/2-x,z
88 1/2-y,1/2+x,z
89 1/2+x,1/2+z,-y
90 1/2-x,1/2+z,y
91 1/2-x,1/2-z,-y
92 1/2+x,1/2-z,y
93 1/2+z,1/2+y,-x
94 1/2+z,1/2-y,x
95 1/2-z,1/2+y,x
96 1/2-z,1/2-y,-x
97 -x,-y,-z
98 x,y,-z
99 x,-y,z
100 -x,y,z
101 -z,-x,-y
102 -z,x,y
103 z,x,-y
104 z,-x,y
105 -y,-z,-x
106 y,-z,x
107 -y,z,x
108 y,z,-x
109 -y,-x,z
110 y,x,z
111 -y,x,-z
112 y,-x,-z
113 -x,-z,y
114 x,-z,-y
115 x,z,y
116 -x,z,-y
117 -z,-y,x
118 -z,y,-x
119 z,-y,-x
120 z,y,x
121 -x,1/2-y,1/2-z
122 x,1/2+y,1/2-z
123 x,1/2-y,1/2+z
124 -x,1/2+y,1/2+z
125 -z,1/2-x,1/2-y
126 -z,1/2+x,1/2+y
127 z,1/2+x,1/2-y
128 z,1/2-x,1/2+y
129 -y,1/2-z,1/2-x
130 y,1/2-z,1/2+x
131 -y,1/2+z,1/2+x
132 y,1/2+z,1/2-x
133 -y,1/2-x,1/2+z
134 y,1/2+x,1/2+z
135 -y,1/2+x,1/2-z
136 y,1/2-x,1/2-z
137 -x,1/2-z,1/2+y
138 x,1/2-z,1/2-y
139 x,1/2+z,1/2+y
140 -x,1/2+z,1/2-y
141 -z,1/2-y,1/2+x
142 -z,1/2+y,1/2-x
143 z,1/2-y,1/2-x
144 z,1/2+y,1/2+x
145 1/2-x,-y,1/2-z
146 1/2+x,y,1/2-z
147 1/2+x,-y,1/2+z
148 1/2-x,y,1/2+z
149 1/2-z,-x,1/2-y
150 1/2-z,x,1/2+y
151 1/2+z,x,1/2-y
152 1/2+z,-x,1/2+y
153 1/2-y,-z,1/2-x
154 1/2+y,-z,1/2+x
155 1/2-y,z,1/2+x
156 1/2+y,z,1/2-x
157 1/2-y,-x,1/2+z
158 1/2+y,x,1/2+z
159 1/2-y,x,1/2-z
160 1/2+y,-x,1/2-z
161 1/2-x,-z,1/2+y
162 1/2+x,-z,1/2-y
163 1/2+x,z,1/2+y
164 1/2-x,z,1/2-y
165 1/2-z,-y,1/2+x
166 1/2-z,y,1/2-x
167 1/2+z,-y,1/2-x
168 1/2+z,y,1/2+x
169 1/2-x,1/2-y,-z
170 1/2+x,1/2+y,-z
171 1/2+x,1/2-y,z
172 1/2-x,1/2+y,z
173 1/2-z,1/2-x,-y
174 1/2-z,1/2+x,y
175 1/2+z,1/2+x,-y
176 1/2+z,1/2-x,y
177 1/2-y,1/2-z,-x
178 1/2+y,1/2-z,x
179 1/2-y,1/2+z,x
180 1/2+y,1/2+z,-x
181 1/2-y,1/2-x,z
182 1/2+y,1/2+x,z
183 1/2-y,1/2+x,-z
184 1/2+y,1/2-x,-z
185 1/2-x,1/2-z,y
186 1/2+x,1/2-z,-y
187 1/2+x,1/2+z,y
188 1/2-x,1/2+z,-y
189 1/2-z,1/2-y,x
190 1/2-z,1/2+y,-x
191 1/2+z,1/2-y,-x
192 1/2+z,1/2+y,x
_cell_length_a                   46.627(6)
_cell_length_b                   46.627(6)
_cell_length_c                   46.627(6)
_cell_angle_alpha                90
_cell_angle_beta                 90
_cell_angle_gamma                90
_cell_volume                     101371
loop_
_atom_site_label
_atom_site_type_symbol
_atom_site_fract_x
_atom_site_fract_y
_atom_site_fract_z
_atom_site_U_iso_or_equiv
_atom_site_thermal_displace_type
Zn1 Zn 0.199809(14) 0.199809(14) 0.0000 0.0430 Uani
Zn2 Zn 0.155377(14) 0.155377(14) 0.0000 0.0422 Uani
O1 O 0.17328(8) 0.21527(8) 0.03014(8) 0.0920 Uani
O2 O 0.13968(7) 0.18232(7) 0.03016(6) 0.0653 Uani
O3 O 0.12454(11) 0.12454(11) 0.0000 0.1163 Uani
N1 N 0.23071(9) 0.23071(9) 0.0000 0.0333 Uani
C1 C 0.15120(10) 0.20401(11) 0.03990(9) 0.0560 Uani
C2 C 0.13602(10) 0.21966(11) 0.06318(10) 0.0643 Uani
C3 C 0.11274(10) 0.20758(10) 0.07524(9) 0.0550 Uani
H1 H 0.1056 0.1901 0.0676 0.0660 Uiso
C4 C 0.09874(11) 0.22001(16) 0.09874(11) 0.0690 Uani
C5 C 0.10997(17) 0.24716(19) 0.10997(17) 0.1273 Uani
C6 C 0.13385(16) 0.25867(15) 0.09654(16) 0.1570 Uani
H2 H 0.1416 0.2762 0.1036 0.1880 Uiso
C7 C 0.14659(13) 0.24581(13) 0.07368(13) 0.1143 Uani
H3 H 0.1627 0.2546 0.0648 0.1370 Uiso
C8 C 0.2602(3) 0.2175(3) 0.0000 0.0213 Uani
C9 C 0.23915(17) 0.23915(17) 0.0302(3) 0.0430 Uani
C10 C 0.2531(3) 0.2234(3) 0.0197(3) 0.0353 Uani
Zn1D Zn 0.0000 0.199809(14) 0.199809(14) 0.0430 Uani
Zn1UB Zn 0.300191(14) 0.300191(14) 0.0000 0.0430 Uani
Zn1J Zn 0.199809(14) 0.0000 -0.199809(14) 0.0430 Uani
Zn1G Zn 0.0000 0.199809(14) -0.199809(14) 0.0430 Uani
Zn1H Zn 0.199809(14) 0.0000 0.199809(14) 0.0430 Uani
Zn2D Zn -0.0000 0.155377(14) 0.155377(14) 0.0422 Uani
Zn2J Zn 0.155377(14) 0.0000 -0.155377(14) 0.0422 Uani
Zn2G Zn 0.0000 0.155377(14) -0.155377(14) 0.0422 Uani
Zn2H Zn 0.155377(14) -0.0000 0.155377(14) 0.0422 Uani
O1OD O 0.03014(8) 0.21527(8) 0.17328(8) 0.0920 Uani
O1L O 0.21527(8) 0.17328(8) -0.03014(8) 0.0920 Uani
O1CD O 0.21527(8) 0.03014(8) -0.17328(8) 0.0920 Uani
O1SC O 0.17328(8) 0.21527(8) -0.03014(8) 0.0920 Uani
O1T O 0.03014(8) 0.21527(8) -0.17328(8) 0.0920 Uani
O1ED O 0.21527(8) 0.17328(8) 0.03014(8) 0.0920 Uani
O1H O 0.21527(8) 0.03014(8) 0.17328(8) 0.0920 Uani
O1WC O -0.03014(8) 0.17328(8) 0.21527(8) 0.0920 Uani
O1V O -0.03014(8) 0.21527(8) 0.17328(8) 0.0920 Uani
O1D O 0.03014(8) 0.17328(8) 0.21527(8) 0.0920 Uani
O2OD O 0.03016(6) 0.18232(7) 0.13968(7) 0.0653 Uani
O2L O 0.18232(7) 0.13968(7) -0.03016(6) 0.0653 Uani
O2CD O 0.18232(7) 0.03016(6) -0.13968(7) 0.0653 Uani
O2SC O 0.13968(7) 0.18232(7) -0.03016(6) 0.0653 Uani
O2T O 0.03016(6) 0.18232(7) -0.13968(7) 0.0653 Uani
O2ED O 0.18232(7) 0.13968(7) 0.03016(6) 0.0653 Uani
O2H O 0.18232(7) 0.03016(6) 0.13968(7) 0.0653 Uani
O2WC O -0.03016(6) 0.13968(7) 0.18232(7) 0.0653 Uani
O2V O -0.03016(6) 0.18232(7) 0.13968(7) 0.0653 Uani
O2D O 0.03016(6) 0.13968(7) 0.18232(7) 0.0653 Uani
O3D O -0.0000 0.12454(11) 0.12454(11) 0.1163 Uani
N1UB N 0.26929(9) 0.26929(9) 0.0000 0.0333 Uani
N1D N -0.0000 0.23071(9) 0.23071(9) 0.0333 Uani
C1OD C 0.03990(9) 0.20401(11) 0.15120(10) 0.0560 Uani
C1L C 0.20401(11) 0.15120(10) -0.03990(9) 0.0560 Uani
C1CD C 0.20401(11) 0.03990(9) -0.15120(10) 0.0560 Uani
C1SC C 0.15120(10) 0.20401(11) -0.03990(9) 0.0560 Uani
C1T C 0.03990(9) 0.20401(11) -0.15120(10) 0.0560 Uani
C1ED C 0.20401(11) 0.15120(10) 0.03990(9) 0.0560 Uani
C1H C 0.20401(11) 0.03990(9) 0.15120(10) 0.0560 Uani
C2OD C 0.06318(10) 0.21966(11) 0.13602(10) 0.0643 Uani
C2L C 0.21966(11) 0.13602(10) -0.06318(10) 0.0643 Uani
C2CD C 0.21966(11) 0.06318(10) -0.13602(10) 0.0643 Uani
C2SC C 0.13602(10) 0.21966(11) -0.06318(10) 0.0643 Uani
C2T C 0.06318(10) 0.21966(11) -0.13602(10) 0.0643 Uani
C2ED C 0.21966(11) 0.13602(10) 0.06318(10) 0.0643 Uani
C2H C 0.21966(11) 0.06318(10) 0.13602(10) 0.0643 Uani
C3OD C 0.07524(9) 0.20758(10) 0.11274(10) 0.0550 Uani
C3L C 0.20758(10) 0.11274(10) -0.07524(9) 0.0550 Uani
C3CD C 0.20758(10) 0.07524(9) -0.11274(10) 0.0550 Uani
C3SC C 0.11274(10) 0.20758(10) -0.07524(9) 0.0550 Uani
C3T C 0.07524(9) 0.20758(10) -0.11274(10) 0.0550 Uani
C3ED C 0.20758(10) 0.11274(10) 0.07524(9) 0.0550 Uani
C3H C 0.20758(10) 0.07524(9) 0.11274(10) 0.0550 Uani
H1OD H 0.0676 0.1901 0.1056 0.0660 Uiso
H1L H 0.1901 0.1056 -0.0676 0.0660 Uiso
H1CD H 0.1901 0.0676 -0.1056 0.0660 Uiso
H1SC H 0.1056 0.1901 -0.0676 0.0660 Uiso
H1T H 0.0676 0.1901 -0.1056 0.0660 Uiso
H1ED H 0.1901 0.1056 0.0676 0.0660 Uiso
H1H H 0.1901 0.0676 0.1056 0.0660 Uiso
C4L C 0.22001(16) 0.09874(11) -0.09874(11) 0.0690 Uani
C4T C 0.09874(11) 0.22001(16) -0.09874(11) 0.0690 Uani
C4H C 0.22001(16) 0.09874(11) 0.09874(11) 0.0690 Uani
C5L C 0.24716(19) 0.10997(17) -0.10997(17) 0.1273 Uani
C5T C 0.10997(17) 0.24716(19) -0.10997(17) 0.1273 Uani
C5H C 0.24716(19) 0.10997(17) 0.10997(17) 0.1273 Uani
C6OD C 0.09654(16) 0.25867(15) 0.13385(16) 0.1570 Uani
C6L C 0.25867(15) 0.13385(16) -0.09654(16) 0.1570 Uani
C6CD C 0.25867(15) 0.09654(16) -0.13385(16) 0.1570 Uani
C6SC C 0.13385(16) 0.25867(15) -0.09654(16) 0.1570 Uani
C6T C 0.09654(16) 0.25867(15) -0.13385(16) 0.1570 Uani
C6ED C 0.25867(15) 0.13385(16) 0.09654(16) 0.1570 Uani
C6H C 0.25867(15) 0.09654(16) 0.13385(16) 0.1570 Uani
H2OD H 0.1036 0.2762 0.1416 0.1880 Uiso
H2L H 0.2762 0.1416 -0.1036 0.1880 Uiso
H2CD H 0.2762 0.1036 -0.1416 0.1880 Uiso
H2SC H 0.1416 0.2762 -0.1036 0.1880 Uiso
H2T H 0.1036 0.2762 -0.1416 0.1880 Uiso
H2ED H 0.2762 0.1416 0.1036 0.1880 Uiso
H2H H 0.2762 0.1036 0.1416 0.1880 Uiso
C7OD C 0.07368(13) 0.24581(13) 0.14659(13) 0.1143 Uani
C7L C 0.24581(13) 0.14659(13) -0.07368(13) 0.1143 Uani
C7CD C 0.24581(13) 0.07368(13) -0.14659(13) 0.1143 Uani
C7SC C 0.14659(13) 0.24581(13) -0.07368(13) 0.1143 Uani
C7T C 0.07368(13) 0.24581(13) -0.14659(13) 0.1143 Uani
C7ED C 0.24581(13) 0.14659(13) 0.07368(13) 0.1143 Uani
C7H C 0.24581(13) 0.07368(13) 0.14659(13) 0.1143 Uani
H3OD H 0.0648 0.2546 0.1627 0.1370 Uiso
H3L H 0.2546 0.1627 -0.0648 0.1370 Uiso
H3CD H 0.2546 0.0648 -0.1627 0.1370 Uiso
H3SC H 0.1627 0.2546 -0.0648 0.1370 Uiso
H3T H 0.0648 0.2546 -0.1627 0.1370 Uiso
H3ED H 0.2546 0.1627 0.0648 0.1370 Uiso
H3H H 0.2546 0.0648 0.1627 0.1370 Uiso
C8GC C 0.2825(3) 0.2398(3) 0.0000 0.0213 Uani
C8UB C 0.2398(3) 0.2825(3) 0.0000 0.0213 Uani
C8L C 0.2175(3) 0.2602(3) 0.0000 0.0213 Uani
C9UB C 0.26085(17) 0.26085(17) 0.0302(3) 0.0430 Uani
C9GC C 0.26085(17) 0.26085(17) -0.0302(3) 0.0430 Uani
C9L C 0.23915(17) 0.23915(17) -0.0302(3) 0.0430 Uani
C10SC C 0.2531(3) 0.2234(3) -0.0197(3) 0.0353 Uani
C10L C 0.2234(3) 0.2531(3) -0.0197(3) 0.0353 Uani
C10ED C 0.2234(3) 0.2531(3) 0.0197(3) 0.0353 Uani
C10XF C 0.2766(3) 0.2469(3) 0.0197(3) 0.0353 Uani
C10GC C 0.2766(3) 0.2469(3) -0.0197(3) 0.0353 Uani
C10UB C 0.2469(3) 0.2766(3) 0.0197(3) 0.0353 Uani
C10LF C 0.2469(3) 0.2766(3) -0.0197(3) 0.0353 Uani
loop_
_atom_site_aniso_label
_atom_site_aniso_U_11
_atom_site_aniso_U_22
_atom_site_aniso_U_33
_atom_site_aniso_U_23
_atom_site_aniso_U_13
_atom_site_aniso_U_12
Zn1 0.0473(5) 0.0473(5) 0.0343(6) 0.000 0.000 -0.0241(5)
Zn2 0.0465(5) 0.0465(5) 0.0335(6) 0.000 0.000 -0.0205(5)
O1 0.080(3) 0.100(3) 0.096(3) -0.033(2) 0.043(2) -0.054(2)
O2 0.052(2) 0.088(3) 0.056(2) -0.0149(19) 0.0155(17) -0.018(2)
O3 0.102(4) 0.102(4) 0.145(8) 0.000 0.000 -0.051(5)
N1 0.038(3) 0.038(3) 0.024(4) 0.000 0.000 0.001(3)
C1 0.045(3) 0.083(4) 0.040(3) -0.014(3) 0.008(2) -0.055(3)
C2 0.060(3) 0.070(4) 0.063(3) -0.030(3) 0.026(3) -0.038(3)
C3 0.058(3) 0.060(3) 0.047(3) -0.018(3) 0.021(2) -0.022(3)
C4 0.059(3) 0.089(6) 0.059(3) -0.035(3) 0.025(4) -0.035(3)
C5 0.140(6) 0.102(7) 0.140(6) -0.078(6) 0.094(7) -0.078(6)
C6 0.158(7) 0.147(6) 0.166(7) -0.109(6) 0.125(6) -0.122(6)
C7 0.108(5) 0.115(5) 0.120(5) -0.059(4) 0.074(4) -0.074(4)
C8 0.026(11) 0.000(9) 0.038(14) 0.000 0.000 0.003(7)
C9 0.049(6) 0.049(6) 0.031(8) -0.008(4) -0.008(4) -0.024(7)
C10 0.046(8) 0.031(7) 0.029(8) 0.012(6) -0.009(7) -0.014(6)
Zn1D 0.0343 0.0473 0.0473 -0.0241 0 0
Zn1UB 0.0473 0.0473 0.0343 0 0 -0.0241
Zn1J 0.0473 0.0343 0.0473 0 0.0241 0
Zn1G 0.0343 0.0473 0.0473 0.0241 0 0
Zn1H 0.0473 0.0343 0.0473 0 -0.0241 0
Zn2D 0.0335 0.0465 0.0465 -0.0205 0 0
Zn2J 0.0465 0.0335 0.0465 0 0.0205 0
Zn2G 0.0335 0.0465 0.0465 0.0205 0 0
Zn2H 0.0465 0.0335 0.0465 0 -0.0205 0
O1OD 0.096 0.1 0.08 -0.054 0.043 -0.033
O1L 0.1 0.08 0.096 -0.043 0.033 -0.054
O1CD 0.1 0.096 0.08 -0.043 0.054 -0.033
O1SC 0.08 0.1 0.096 0.033 -0.043 -0.054
O1T 0.096 0.1 0.08 0.054 -0.043 -0.033
O1ED 0.1 0.08 0.096 0.043 -0.033 -0.054
O1H 0.1 0.096 0.08 0.043 -0.054 -0.033
O1WC 0.096 0.08 0.1 -0.054 0.033 -0.043
O1V 0.096 0.1 0.08 -0.054 -0.043 0.033
O1D 0.096 0.08 0.1 -0.054 -0.033 0.043
O2OD 0.056 0.088 0.052 -0.018 0.0155 -0.0149
O2L 0.088 0.052 0.056 -0.0155 0.0149 -0.018
O2CD 0.088 0.056 0.052 -0.0155 0.018 -0.0149
O2SC 0.052 0.088 0.056 0.0149 -0.0155 -0.018
O2T 0.056 0.088 0.052 0.018 -0.0155 -0.0149
O2ED 0.088 0.052 0.056 0.0155 -0.0149 -0.018
O2H 0.088 0.056 0.052 0.0155 -0.018 -0.0149
O2WC 0.056 0.052 0.088 -0.018 0.0149 -0.0155
O2V 0.056 0.088 0.052 -0.018 -0.0155 0.0149
O2D 0.056 0.052 0.088 -0.018 -0.0149 0.0155
O3D 0.145 0.102 0.102 -0.051 0 0
N1UB 0.038 0.038 0.024 0 0 0.001
N1D 0.024 0.038 0.038 0.001 0 0
C1OD 0.04 0.083 0.045 -0.055 0.008 -0.014
C1L 0.083 0.045 0.04 -0.008 0.014 -0.055
C1CD 0.083 0.04 0.045 -0.008 0.055 -0.014
C1SC 0.045 0.083 0.04 0.014 -0.008 -0.055
C1T 0.04 0.083 0.045 0.055 -0.008 -0.014
C1ED 0.083 0.045 0.04 0.008 -0.014 -0.055
C1H 0.083 0.04 0.045 0.008 -0.055 -0.014
C2OD 0.063 0.07 0.06 -0.038 0.026 -0.03
C2L 0.07 0.06 0.063 -0.026 0.03 -0.038
C2CD 0.07 0.063 0.06 -0.026 0.038 -0.03
C2SC 0.06 0.07 0.063 0.03 -0.026 -0.038
C2T 0.063 0.07 0.06 0.038 -0.026 -0.03
C2ED 0.07 0.06 0.063 0.026 -0.03 -0.038
C2H 0.07 0.063 0.06 0.026 -0.038 -0.03
C3OD 0.047 0.06 0.058 -0.022 0.021 -0.018
C3L 0.06 0.058 0.047 -0.021 0.018 -0.022
C3CD 0.06 0.047 0.058 -0.021 0.022 -0.018
C3SC 0.058 0.06 0.047 0.018 -0.021 -0.022
C3T 0.047 0.06 0.058 0.022 -0.021 -0.018
C3ED 0.06 0.058 0.047 0.021 -0.018 -0.022
C3H 0.06 0.047 0.058 0.021 -0.022 -0.018
C4L 0.089 0.059 0.059 -0.025 0.035 -0.035
C4T 0.059 0.089 0.059 0.035 -0.025 -0.035
C4H 0.089 0.059 0.059 0.025 -0.035 -0.035
C5L 0.102 0.14 0.14 -0.094 0.078 -0.078
C5T 0.14 0.102 0.14 0.078 -0.094 -0.078
C5H 0.102 0.14 0.14 0.094 -0.078 -0.078
C6OD 0.166 0.147 0.158 -0.122 0.125 -0.109
C6L 0.147 0.158 0.166 -0.125 0.109 -0.122
C6CD 0.147 0.166 0.158 -0.125 0.122 -0.109
C6SC 0.158 0.147 0.166 0.109 -0.125 -0.122
C6T 0.166 0.147 0.158 0.122 -0.125 -0.109
C6ED 0.147 0.158 0.166 0.125 -0.109 -0.122
C6H 0.147 0.166 0.158 0.125 -0.122 -0.109
C7OD 0.12 0.115 0.108 -0.074 0.074 -0.059
C7L 0.115 0.108 0.12 -0.074 0.059 -0.074
C7CD 0.115 0.12 0.108 -0.074 0.074 -0.059
C7SC 0.108 0.115 0.12 0.059 -0.074 -0.074
C7T 0.12 0.115 0.108 0.074 -0.074 -0.059
C7ED 0.115 0.108 0.12 0.074 -0.059 -0.074
C7H 0.115 0.12 0.108 0.074 -0.074 -0.059
C8GC 0 0.026 0.038 0 0 0.003
C8UB 0.026 0 0.038 0 0 0.003
C8L 0 0.026 0.038 0 0 0.003
C9UB 0.049 0.049 0.031 0.008 0.008 -0.024
C9GC 0.049 0.049 0.031 -0.008 -0.008 -0.024
C9L 0.049 0.049 0.031 0.008 0.008 -0.024
C10SC 0.046 0.031 0.029 -0.012 0.009 -0.014
C10L 0.031 0.046 0.029 0.009 -0.012 -0.014
C10ED 0.031 0.046 0.029 -0.009 0.012 -0.014
C10XF 0.031 0.046 0.029 0.009 -0.012 -0.014
C10GC 0.031 0.046 0.029 -0.009 0.012 -0.014
C10UB 0.046 0.031 0.029 -0.012 0.009 -0.014
C10LF 0.046 0.031 0.029 0.012 -0.009 -0.014
loop_
_geom_bond_atom_site_label_1
_geom_bond_atom_site_label_2
_geom_bond_site_symmetry_1
_geom_bond_site_symmetry_2
Zn1 O1 1_555 1_555
Zn2 O2 1_555 1_555
O1 C1 1_555 1_555
O2 C1 1_555 1_555
O3 Zn2 1_555 1_555
N1 Zn1 1_555 1_555
C1 C2 1_555 1_555
C2 C3 1_555 1_555
C3 H1 1_555 1_555
C4 C3 1_555 1_555
C5 C4 1_555 1_555
C6 C5 1_555 1_555
H2 C6 1_555 1_555
C7 C2 1_555 1_555
H3 C7 1_555 1_555
C8 N1 1_555 1_555
C9 N1 1_555 1_555
C10 N1 1_555 1_555
Zn1D O1OD 1_555 1_555
Zn1UB N1UB 1_555 1_555
Zn1J O1CD 1_555 1_555
Zn1G O1T 1_555 1_555
Zn1H O1H 1_555 1_555
Zn2D O2OD 1_555 1_555
Zn2J O2CD 1_555 1_555
Zn2G O2T 1_555 1_555
Zn2H O2H 1_555 1_555
O1OD C1OD 1_555 1_555
O1L Zn1 1_555 1_555
O1CD C1CD 1_555 1_555
O1SC Zn1 1_555 1_555
O1T C1T 1_555 1_555
O1ED Zn1 1_555 1_555
O1H C1H 1_555 1_555
O1WC Zn1D 1_555 1_555
O1V Zn1D 1_555 1_555
O1D Zn1D 1_555 1_555
O2OD C1OD 1_555 1_555
O2L Zn2 1_555 1_555
O2CD C1CD 1_555 1_555
O2SC Zn2 1_555 1_555
O2T C1T 1_555 1_555
O2ED Zn2 1_555 1_555
O2H C1H 1_555 1_555
O2WC Zn2D 1_555 1_555
O2V Zn2D 1_555 1_555
O2D Zn2D 1_555 1_555
O3D Zn2D 1_555 1_555
N1UB C8GC 1_555 1_555
N1D Zn1D 1_555 1_555
C1OD C2OD 1_555 1_555
C1L O1L 1_555 1_555
C1CD C2CD 1_555 1_555
C1SC O1SC 1_555 1_555
C1T C2T 1_555 1_555
C1ED O1ED 1_555 1_555
C1H C2H 1_555 1_555
C2OD C3OD 1_555 1_555
C2L C1L 1_555 1_555
C2CD C3CD 1_555 1_555
C2SC C1SC 1_555 1_555
C2T C3T 1_555 1_555
C2ED C1ED 1_555 1_555
C2H C3H 1_555 1_555
C3OD C4 1_555 1_555
C3L C2L 1_555 1_555
C3CD H1CD 1_555 1_555
C3SC C2SC 1_555 1_555
C3T H1T 1_555 1_555
C3ED C2ED 1_555 1_555
C3H H1H 1_555 1_555
H1OD C3OD 1_555 1_555
H1L C3L 1_555 1_555
H1SC C3SC 1_555 1_555
H1ED C3ED 1_555 1_555
C4L C3L 1_555 1_555
C4T C3SC 1_555 1_555
C4H C3ED 1_555 1_555
C5L C4L 1_555 1_555
C5T C4T 1_555 1_555
C5H C4H 1_555 1_555
C6OD C5 1_555 1_555
C6L C5L 1_555 1_555
C6CD C5L 1_555 1_555
C6SC C5T 1_555 1_555
C6T C5T 1_555 1_555
C6ED C5H 1_555 1_555
C6H C5H 1_555 1_555
H2OD C6OD 1_555 1_555
H2L C6L 1_555 1_555
H2CD C6CD 1_555 1_555
H2SC C6SC 1_555 1_555
H2T C6T 1_555 1_555
H2ED C6ED 1_555 1_555
H2H C6H 1_555 1_555
C7OD C2OD 1_555 1_555
C7L C2L 1_555 1_555
C7CD C2CD 1_555 1_555
C7SC C2SC 1_555 1_555
C7T C2T 1_555 1_555
C7ED C2ED 1_555 1_555
C7H C2H 1_555 1_555
H3OD C7OD 1_555 1_555
H3L C7L 1_555 1_555
H3CD C7CD 1_555 1_555
H3SC C7SC 1_555 1_555
H3T C7T 1_555 1_555
H3ED C7ED 1_555 1_555
H3H C7H 1_555 1_555
C8GC C8 1_555 1_555
C8UB N1UB 1_555 1_555
C8L N1 1_555 1_555
C9UB C9 1_555 1_555
C9GC N1UB 1_555 1_555
C9L N1 1_555 1_555
C10SC N1 1_555 1_555
C10L N1 1_555 1_555
C10ED N1 1_555 1_555
C10XF C10 1_555 1_555
C10GC N1UB 1_555 1_555
C10UB N1UB 1_555 1_555
C10LF N1UB 1_555 1_555
C6 C7 1_555 1_555
C8 C10 1_555 1_555
C8 C10SC 1_555 1_555
C9 C10 1_555 1_555
C9 C10ED 1_555 1_555
O2L C1L 1_555 1_555
O2SC C1SC 1_555 1_555
O2ED C1ED 1_555 1_555
N1UB C9UB 1_555 1_555
N1UB C10XF 1_555 1_555
C3CD C4L 1_555 1_555
C3T C4T 1_555 1_555
C3H C4H 1_555 1_555
C6OD C7OD 1_555 1_555
C6L C7L 1_555 1_555
C6CD C7CD 1_555 1_555
C6SC C7SC 1_555 1_555
C6T C7T 1_555 1_555
C6ED C7ED 1_555 1_555
C6H C7H 1_555 1_555
C8GC C10XF 1_555 1_555
C8GC C10GC 1_555 1_555
C8UB C8L 1_555 1_555
C8UB C10UB 1_555 1_555
C8UB C10LF 1_555 1_555
C8L C10L 1_555 1_555
C8L C10ED 1_555 1_555
C9UB C10XF 1_555 1_555
C9UB C10UB 1_555 1_555
C9GC C9L 1_555 1_555
C9GC C10GC 1_555 1_555
C9GC C10LF 1_555 1_555
C9L C10SC 1_555 1_555
C9L C10L 1_555 1_555
C10SC C10GC 1_555 1_555
C10L C10LF 1_555 1_555
C10ED C10UB 1_555 1_555

#END
