
#######################################################################
#
#                 Cambridge Crystallographic Data Centre
#                                CCDC 
#
#######################################################################
#
# If this CIF has been generated from an entry in the Cambridge 
# Structural Database, then it will include bibliographic, chemical, 
# crystal, experimental, refinement or atomic coordinate data resulting 
# from the CCDC's data processing and validation procedures.
#
#######################################################################

data_FORXEQ
_chemical_formula_moiety         'C44 H16 Co11 N3 O24'
_symmetry_cell_setting           cubic
_symmetry_space_group_name_H-M   'F m -3 m'
_symmetry_Int_Tables_number      225
_space_group_name_Hall           '-F 4 2 3'
loop_
_symmetry_equiv_pos_site_id
_symmetry_equiv_pos_as_xyz
1 x,y,z
2 -x,-y,z
3 -x,y,-z
4 x,-y,-z
5 z,x,y
6 z,-x,-y
7 -z,-x,y
8 -z,x,-y
9 y,z,x
10 -y,z,-x
11 y,-z,-x
12 -y,-z,x
13 y,x,-z
14 -y,-x,-z
15 y,-x,z
16 -y,x,z
17 x,z,-y
18 -x,z,y
19 -x,-z,-y
20 x,-z,y
21 z,y,-x
22 z,-y,x
23 -z,y,x
24 -z,-y,-x
25 x,1/2+y,1/2+z
26 -x,1/2-y,1/2+z
27 -x,1/2+y,1/2-z
28 x,1/2-y,1/2-z
29 z,1/2+x,1/2+y
30 z,1/2-x,1/2-y
31 -z,1/2-x,1/2+y
32 -z,1/2+x,1/2-y
33 y,1/2+z,1/2+x
34 -y,1/2+z,1/2-x
35 y,1/2-z,1/2-x
36 -y,1/2-z,1/2+x
37 y,1/2+x,1/2-z
38 -y,1/2-x,1/2-z
39 y,1/2-x,1/2+z
40 -y,1/2+x,1/2+z
41 x,1/2+z,1/2-y
42 -x,1/2+z,1/2+y
43 -x,1/2-z,1/2-y
44 x,1/2-z,1/2+y
45 z,1/2+y,1/2-x
46 z,1/2-y,1/2+x
47 -z,1/2+y,1/2+x
48 -z,1/2-y,1/2-x
49 1/2+x,y,1/2+z
50 1/2-x,-y,1/2+z
51 1/2-x,y,1/2-z
52 1/2+x,-y,1/2-z
53 1/2+z,x,1/2+y
54 1/2+z,-x,1/2-y
55 1/2-z,-x,1/2+y
56 1/2-z,x,1/2-y
57 1/2+y,z,1/2+x
58 1/2-y,z,1/2-x
59 1/2+y,-z,1/2-x
60 1/2-y,-z,1/2+x
61 1/2+y,x,1/2-z
62 1/2-y,-x,1/2-z
63 1/2+y,-x,1/2+z
64 1/2-y,x,1/2+z
65 1/2+x,z,1/2-y
66 1/2-x,z,1/2+y
67 1/2-x,-z,1/2-y
68 1/2+x,-z,1/2+y
69 1/2+z,y,1/2-x
70 1/2+z,-y,1/2+x
71 1/2-z,y,1/2+x
72 1/2-z,-y,1/2-x
73 1/2+x,1/2+y,z
74 1/2-x,1/2-y,z
75 1/2-x,1/2+y,-z
76 1/2+x,1/2-y,-z
77 1/2+z,1/2+x,y
78 1/2+z,1/2-x,-y
79 1/2-z,1/2-x,y
80 1/2-z,1/2+x,-y
81 1/2+y,1/2+z,x
82 1/2-y,1/2+z,-x
83 1/2+y,1/2-z,-x
84 1/2-y,1/2-z,x
85 1/2+y,1/2+x,-z
86 1/2-y,1/2-x,-z
87 1/2+y,1/2-x,z
88 1/2-y,1/2+x,z
89 1/2+x,1/2+z,-y
90 1/2-x,1/2+z,y
91 1/2-x,1/2-z,-y
92 1/2+x,1/2-z,y
93 1/2+z,1/2+y,-x
94 1/2+z,1/2-y,x
95 1/2-z,1/2+y,x
96 1/2-z,1/2-y,-x
97 -x,-y,-z
98 x,y,-z
99 x,-y,z
100 -x,y,z
101 -z,-x,-y
102 -z,x,y
103 z,x,-y
104 z,-x,y
105 -y,-z,-x
106 y,-z,x
107 -y,z,x
108 y,z,-x
109 -y,-x,z
110 y,x,z
111 -y,x,-z
112 y,-x,-z
113 -x,-z,y
114 x,-z,-y
115 x,z,y
116 -x,z,-y
117 -z,-y,x
118 -z,y,-x
119 z,-y,-x
120 z,y,x
121 -x,1/2-y,1/2-z
122 x,1/2+y,1/2-z
123 x,1/2-y,1/2+z
124 -x,1/2+y,1/2+z
125 -z,1/2-x,1/2-y
126 -z,1/2+x,1/2+y
127 z,1/2+x,1/2-y
128 z,1/2-x,1/2+y
129 -y,1/2-z,1/2-x
130 y,1/2-z,1/2+x
131 -y,1/2+z,1/2+x
132 y,1/2+z,1/2-x
133 -y,1/2-x,1/2+z
134 y,1/2+x,1/2+z
135 -y,1/2+x,1/2-z
136 y,1/2-x,1/2-z
137 -x,1/2-z,1/2+y
138 x,1/2-z,1/2-y
139 x,1/2+z,1/2+y
140 -x,1/2+z,1/2-y
141 -z,1/2-y,1/2+x
142 -z,1/2+y,1/2-x
143 z,1/2-y,1/2-x
144 z,1/2+y,1/2+x
145 1/2-x,-y,1/2-z
146 1/2+x,y,1/2-z
147 1/2+x,-y,1/2+z
148 1/2-x,y,1/2+z
149 1/2-z,-x,1/2-y
150 1/2-z,x,1/2+y
151 1/2+z,x,1/2-y
152 1/2+z,-x,1/2+y
153 1/2-y,-z,1/2-x
154 1/2+y,-z,1/2+x
155 1/2-y,z,1/2+x
156 1/2+y,z,1/2-x
157 1/2-y,-x,1/2+z
158 1/2+y,x,1/2+z
159 1/2-y,x,1/2-z
160 1/2+y,-x,1/2-z
161 1/2-x,-z,1/2+y
162 1/2+x,-z,1/2-y
163 1/2+x,z,1/2+y
164 1/2-x,z,1/2-y
165 1/2-z,-y,1/2+x
166 1/2-z,y,1/2-x
167 1/2+z,-y,1/2-x
168 1/2+z,y,1/2+x
169 1/2-x,1/2-y,-z
170 1/2+x,1/2+y,-z
171 1/2+x,1/2-y,z
172 1/2-x,1/2+y,z
173 1/2-z,1/2-x,-y
174 1/2-z,1/2+x,y
175 1/2+z,1/2+x,-y
176 1/2+z,1/2-x,y
177 1/2-y,1/2-z,-x
178 1/2+y,1/2-z,x
179 1/2-y,1/2+z,x
180 1/2+y,1/2+z,-x
181 1/2-y,1/2-x,z
182 1/2+y,1/2+x,z
183 1/2-y,1/2+x,-z
184 1/2+y,1/2-x,-z
185 1/2-x,1/2-z,y
186 1/2+x,1/2-z,-y
187 1/2+x,1/2+z,y
188 1/2-x,1/2+z,-y
189 1/2-z,1/2-y,x
190 1/2-z,1/2+y,-x
191 1/2+z,1/2-y,-x
192 1/2+z,1/2+y,x
_cell_length_a                   39.693(5)
_cell_length_b                   39.693(5)
_cell_length_c                   39.693(5)
_cell_angle_alpha                90
_cell_angle_beta                 90
_cell_angle_gamma                90
_cell_volume                     62537.7
loop_
_atom_site_label
_atom_site_type_symbol
_atom_site_fract_x
_atom_site_fract_y
_atom_site_fract_z
_atom_site_U_iso_or_equiv
_atom_site_thermal_displace_type
Co1 Co 0.0000 0.140895(13) 0.140895(13) 0.0351 Uani
Co2 Co -0.0000 0.190062(14) 0.190062(14) 0.0472 Uani
N1 N 0.0000 0.22718(8) 0.22718(8) 0.0385 Uani
O1 O 0.03598(6) 0.12190(6) 0.17189(6) 0.0506 Uani
O2 O 0.04242(19) 0.1657(2) 0.2068(2) 0.0623 Uani
O3 O -0.0000 0.0977(3) 0.0977(3) 0.0673 Uani
C1 C 0.04658(12) 0.13470(10) 0.19859(11) 0.0630 Uani
C2 C 0.07530(13) 0.11815(12) 0.21544(12) 0.0833 Uani
C3 C 0.09053(11) 0.09053(11) 0.20108(14) 0.0580 Uani
H1 H 0.0817 0.0817 0.1806 0.0700 Uiso
C4 C 0.0806(4) 0.1244(4) 0.2509(4) 0.0927 Uani
H2 H 0.0665 0.1396 0.2628 0.1110 Uiso
C5 C 0.1073(5) 0.1073(5) 0.2677(6) 0.1277 Uani
H3 H 0.1137 0.1137 0.2899 0.1530 Uiso
C6 C -0.0000 0.2114(3) 0.2617(3) 0.0737 Uani
C7 C 0.0298(2) 0.2235(2) 0.2489(2) 0.0863 Uani
Co1D Co 0.140895(13) 0.0000 0.140895(13) 0.0351 Uani
Co1I Co -0.140895(13) 0.140895(13) 0.0000 0.0351 Uani
Co1F Co -0.140895(13) 0.0000 0.140895(13) 0.0351 Uani
Co1H Co 0.140895(13) 0.140895(13) 0.0000 0.0351 Uani
Co2D Co 0.190062(14) 0.0000 0.190062(14) 0.0472 Uani
Co2AA Co 0.0000 0.309938(14) 0.309938(14) 0.0472 Uani
Co2I Co -0.190062(14) 0.190062(14) 0.0000 0.0472 Uani
Co2F Co -0.190062(14) 0.0000 0.190062(14) 0.0472 Uani
Co2H Co 0.190062(14) 0.190062(14) 0.0000 0.0472 Uani
N1AA N -0.0000 0.27282(8) 0.27282(8) 0.0385 Uani
N1D N 0.22718(8) 0.0000 0.22718(8) 0.0385 Uani
O1ED O 0.12190(6) 0.03598(6) 0.17189(6) 0.0506 Uani
O1Q O -0.03598(6) 0.17189(6) 0.12190(6) 0.0506 Uani
O1BD O -0.12190(6) 0.17189(6) 0.03598(6) 0.0506 Uani
O1UC O -0.03598(6) 0.12190(6) 0.17189(6) 0.0506 Uani
O1O O -0.12190(6) 0.03598(6) 0.17189(6) 0.0506 Uani
O1JD O 0.03598(6) 0.17189(6) 0.12190(6) 0.0506 Uani
O1H O 0.12190(6) 0.17189(6) 0.03598(6) 0.0506 Uani
O1YC O 0.17189(6) -0.03598(6) 0.12190(6) 0.0506 Uani
O1N O 0.12190(6) -0.03598(6) 0.17189(6) 0.0506 Uani
O1D O 0.17189(6) 0.03598(6) 0.12190(6) 0.0506 Uani
O2ED O 0.1657(2) 0.04242(19) 0.2068(2) 0.0623 Uani
O2Q O -0.04242(19) 0.2068(2) 0.1657(2) 0.0623 Uani
O2BD O -0.1657(2) 0.2068(2) 0.04242(19) 0.0623 Uani
O2UC O -0.04242(19) 0.1657(2) 0.2068(2) 0.0623 Uani
O2O O -0.1657(2) 0.04242(19) 0.2068(2) 0.0623 Uani
O2JD O 0.04242(19) 0.2068(2) 0.1657(2) 0.0623 Uani
O2H O 0.1657(2) 0.2068(2) 0.04242(19) 0.0623 Uani
O2YC O 0.2068(2) -0.04242(19) 0.1657(2) 0.0623 Uani
O2N O 0.1657(2) -0.04242(19) 0.2068(2) 0.0623 Uani
O2D O 0.2068(2) 0.04242(19) 0.1657(2) 0.0623 Uani
O3D O 0.0977(3) 0.0000 0.0977(3) 0.0673 Uani
C1ED C 0.13470(10) 0.04658(12) 0.19859(11) 0.0630 Uani
C1Q C -0.04658(12) 0.19859(11) 0.13470(10) 0.0630 Uani
C1BD C -0.13470(10) 0.19859(11) 0.04658(12) 0.0630 Uani
C1UC C -0.04658(12) 0.13470(10) 0.19859(11) 0.0630 Uani
C1O C -0.13470(10) 0.04658(12) 0.19859(11) 0.0630 Uani
C1JD C 0.04658(12) 0.19859(11) 0.13470(10) 0.0630 Uani
C1H C 0.13470(10) 0.19859(11) 0.04658(12) 0.0630 Uani
C2ED C 0.11815(12) 0.07530(13) 0.21544(12) 0.0833 Uani
C2Q C -0.07530(13) 0.21544(12) 0.11815(12) 0.0833 Uani
C2BD C -0.11815(12) 0.21544(12) 0.07530(13) 0.0833 Uani
C2UC C -0.07530(13) 0.11815(12) 0.21544(12) 0.0833 Uani
C2O C -0.11815(12) 0.07530(13) 0.21544(12) 0.0833 Uani
C2JD C 0.07530(13) 0.21544(12) 0.11815(12) 0.0833 Uani
C2H C 0.11815(12) 0.21544(12) 0.07530(13) 0.0833 Uani
C3Q C -0.09053(11) 0.20108(14) 0.09053(11) 0.0580 Uani
C3O C -0.09053(11) 0.09053(11) 0.20108(14) 0.0580 Uani
C3H C 0.09053(11) 0.20108(14) 0.09053(11) 0.0580 Uani
H1Q H -0.0817 0.1806 0.0817 0.0700 Uiso
H1O H -0.0817 0.0817 0.1806 0.0700 Uiso
H1H H 0.0817 0.1806 0.0817 0.0700 Uiso
C4ED C 0.1244(4) 0.0806(4) 0.2509(4) 0.0927 Uani
C4Q C -0.0806(4) 0.2509(4) 0.1244(4) 0.0927 Uani
C4BD C -0.1244(4) 0.2509(4) 0.0806(4) 0.0927 Uani
C4UC C -0.0806(4) 0.1244(4) 0.2509(4) 0.0927 Uani
C4O C -0.1244(4) 0.0806(4) 0.2509(4) 0.0927 Uani
C4JD C 0.0806(4) 0.2509(4) 0.1244(4) 0.0927 Uani
C4H C 0.1244(4) 0.2509(4) 0.0806(4) 0.0927 Uani
H2ED H 0.1396 0.0665 0.2628 0.1110 Uiso
H2Q H -0.0665 0.2628 0.1396 0.1110 Uiso
H2BD H -0.1396 0.2628 0.0665 0.1110 Uiso
H2UC H -0.0665 0.1396 0.2628 0.1110 Uiso
H2O H -0.1396 0.0665 0.2628 0.1110 Uiso
H2JD H 0.0665 0.2628 0.1396 0.1110 Uiso
H2H H 0.1396 0.2628 0.0665 0.1110 Uiso
C5Q C -0.1073(5) 0.2677(6) 0.1073(5) 0.1277 Uani
C5O C -0.1073(5) 0.1073(5) 0.2677(6) 0.1277 Uani
C5H C 0.1073(5) 0.2677(6) 0.1073(5) 0.1277 Uani
H3Q H -0.1137 0.2899 0.1137 0.1530 Uiso
H3O H -0.1137 0.1137 0.2899 0.1530 Uiso
H3H H 0.1137 0.2899 0.1137 0.1530 Uiso
C6PA C 0.0000 0.2383(3) 0.2886(3) 0.0737 Uani
C6AA C 0.0000 0.2886(3) 0.2383(3) 0.0737 Uani
C6Q C -0.0000 0.2617(3) 0.2114(3) 0.0737 Uani
C7UC C -0.0298(2) 0.2235(2) 0.2489(2) 0.0863 Uani
C7Q C -0.0298(2) 0.2489(2) 0.2235(2) 0.0863 Uani
C7JD C 0.0298(2) 0.2489(2) 0.2235(2) 0.0863 Uani
C7GE C 0.0298(2) 0.2511(2) 0.2765(2) 0.0863 Uani
C7PA C -0.0298(2) 0.2511(2) 0.2765(2) 0.0863 Uani
C7AA C 0.0298(2) 0.2765(2) 0.2511(2) 0.0863 Uani
C7PD C -0.0298(2) 0.2765(2) 0.2511(2) 0.0863 Uani
loop_
_atom_site_aniso_label
_atom_site_aniso_U_11
_atom_site_aniso_U_22
_atom_site_aniso_U_33
_atom_site_aniso_U_23
_atom_site_aniso_U_13
_atom_site_aniso_U_12
Co1 0.0364(4) 0.0344(3) 0.0344(3) -0.0136(3) 0.000 0.000
Co2 0.0626(6) 0.0395(4) 0.0395(4) -0.0237(4) 0.000 0.000
N1 0.043(3) 0.0363(17) 0.0363(17) -0.026(2) 0.000 0.000
O1 0.0564(14) 0.0463(13) 0.0492(14) -0.0167(11) -0.0084(11) 0.0201(11)
O2 0.063 0.049 0.075 -0.026 0.013 0.012
O3 0.058(14) 0.072(9) 0.072(9) -0.062(9) 0.000 0.000
C1 0.075(3) 0.056(2) 0.058(2) -0.0174(19) -0.003(2) 0.023(2)
C2 0.098(4) 0.078(3) 0.074(3) -0.042(2) -0.044(3) 0.038(3)
C3 0.058(2) 0.058(2) 0.058(3) -0.021(2) -0.021(2) 0.015(3)
C4 0.090(11) 0.109(12) 0.079(9) -0.055(8) -0.032(8) 0.041(8)
C5 0.147(12) 0.147(12) 0.089(14) -0.058(10) -0.058(10) 0.024(15)
C6 0.104(8) 0.061(6) 0.056(6) -0.019(5) 0.000 0.000
C7 0.093(5) 0.086(5) 0.080(5) -0.061(5) -0.041(4) 0.042(4)
Co1D 0.0344 0.0364 0.0344 0 -0.0136 0
Co1I 0.0344 0.0344 0.0364 0 0 0.0136
Co1F 0.0344 0.0364 0.0344 0 0.0136 0
Co1H 0.0344 0.0344 0.0364 0 0 -0.0136
Co2D 0.0395 0.0626 0.0395 0 -0.0237 0
Co2AA 0.0626 0.0395 0.0395 -0.0237 0 0
Co2I 0.0395 0.0395 0.0626 0 0 0.0237
Co2F 0.0395 0.0626 0.0395 0 0.0237 0
Co2H 0.0395 0.0395 0.0626 0 0 -0.0237
N1AA 0.043 0.0363 0.0363 -0.026 0 0
N1D 0.0363 0.043 0.0363 0 -0.026 0
O1ED 0.0463 0.0564 0.0492 -0.0084 -0.0167 0.0201
O1Q 0.0564 0.0492 0.0463 -0.0167 -0.0201 0.0084
O1BD 0.0463 0.0492 0.0564 -0.0084 -0.0201 0.0167
O1UC 0.0564 0.0463 0.0492 -0.0167 0.0084 -0.0201
O1O 0.0463 0.0564 0.0492 -0.0084 0.0167 -0.0201
O1JD 0.0564 0.0492 0.0463 -0.0167 0.0201 -0.0084
O1H 0.0463 0.0492 0.0564 -0.0084 0.0201 -0.0167
O1YC 0.0492 0.0564 0.0463 -0.0201 -0.0167 0.0084
O1N 0.0463 0.0564 0.0492 0.0084 -0.0167 -0.0201
O1D 0.0492 0.0564 0.0463 0.0201 -0.0167 -0.0084
O2ED 0.049 0.063 0.075 0.013 -0.026 0.012
O2Q 0.063 0.075 0.049 -0.026 -0.012 -0.013
O2BD 0.049 0.075 0.063 0.013 -0.012 0.026
O2UC 0.063 0.049 0.075 -0.026 -0.013 -0.012
O2O 0.049 0.063 0.075 0.013 0.026 -0.012
O2JD 0.063 0.075 0.049 -0.026 0.012 0.013
O2H 0.049 0.075 0.063 0.013 0.012 -0.026
O2YC 0.075 0.063 0.049 -0.012 -0.026 -0.013
O2N 0.049 0.063 0.075 -0.013 -0.026 -0.012
O2D 0.075 0.063 0.049 0.012 -0.026 0.013
O3D 0.072 0.058 0.072 0 -0.062 0
C1ED 0.056 0.075 0.058 -0.003 -0.0174 0.023
C1Q 0.075 0.058 0.056 -0.0174 -0.023 0.003
C1BD 0.056 0.058 0.075 -0.003 -0.023 0.0174
C1UC 0.075 0.056 0.058 -0.0174 0.003 -0.023
C1O 0.056 0.075 0.058 -0.003 0.0174 -0.023
C1JD 0.075 0.058 0.056 -0.0174 0.023 -0.003
C1H 0.056 0.058 0.075 -0.003 0.023 -0.0174
C2ED 0.078 0.098 0.074 -0.044 -0.042 0.038
C2Q 0.098 0.074 0.078 -0.042 -0.038 0.044
C2BD 0.078 0.074 0.098 -0.044 -0.038 0.042
C2UC 0.098 0.078 0.074 -0.042 0.044 -0.038
C2O 0.078 0.098 0.074 -0.044 0.042 -0.038
C2JD 0.098 0.074 0.078 -0.042 0.038 -0.044
C2H 0.078 0.074 0.098 -0.044 0.038 -0.042
C3Q 0.058 0.058 0.058 -0.021 -0.015 0.021
C3O 0.058 0.058 0.058 -0.021 0.021 -0.015
C3H 0.058 0.058 0.058 -0.021 0.015 -0.021
C4ED 0.109 0.09 0.079 -0.032 -0.055 0.041
C4Q 0.09 0.079 0.109 -0.055 -0.041 0.032
C4BD 0.109 0.079 0.09 -0.032 -0.041 0.055
C4UC 0.09 0.109 0.079 -0.055 0.032 -0.041
C4O 0.109 0.09 0.079 -0.032 0.055 -0.041
C4JD 0.09 0.079 0.109 -0.055 0.041 -0.032
C4H 0.109 0.079 0.09 -0.032 0.041 -0.055
C5Q 0.147 0.089 0.147 -0.058 -0.024 0.058
C5O 0.147 0.147 0.089 -0.058 0.058 -0.024
C5H 0.147 0.089 0.147 -0.058 0.024 -0.058
C6PA 0.104 0.056 0.061 -0.019 0 0
C6AA 0.104 0.061 0.056 -0.019 0 0
C6Q 0.104 0.056 0.061 -0.019 0 0
C7UC 0.093 0.086 0.08 -0.061 0.041 -0.042
C7Q 0.093 0.08 0.086 -0.061 -0.042 0.041
C7JD 0.093 0.08 0.086 -0.061 0.042 -0.041
C7GE 0.093 0.08 0.086 -0.061 -0.042 0.041
C7PA 0.093 0.08 0.086 -0.061 0.042 -0.041
C7AA 0.093 0.086 0.08 -0.061 0.041 -0.042
C7PD 0.093 0.086 0.08 -0.061 -0.041 0.042
loop_
_geom_bond_atom_site_label_1
_geom_bond_atom_site_label_2
_geom_bond_site_symmetry_1
_geom_bond_site_symmetry_2
Co1 O1 1_555 1_555
Co2 N1 1_555 1_555
N1 C6 1_555 1_555
O1 C1 1_555 1_555
O2 Co2 1_555 1_555
O3 Co1 1_555 1_555
C1 O2 1_555 1_555
C2 C1 1_555 1_555
C3 C2 1_555 1_555
H1 C3 1_555 1_555
C4 C2 1_555 1_555
H2 C4 1_555 1_555
C5 C4 1_555 1_555
H3 C5 1_555 1_555
C6 C7 1_555 1_555
C7 N1 1_555 1_555
Co1D O1ED 1_555 1_555
Co1I O1BD 1_555 1_555
Co1F O1O 1_555 1_555
Co1H O1H 1_555 1_555
Co2D N1D 1_555 1_555
Co2AA N1AA 1_555 1_555
Co2I O2BD 1_555 1_555
Co2F O2O 1_555 1_555
Co2H O2H 1_555 1_555
N1AA C6PA 1_555 1_555
O1ED C1ED 1_555 1_555
O1Q Co1 1_555 1_555
O1BD C1BD 1_555 1_555
O1UC Co1 1_555 1_555
O1O C1O 1_555 1_555
O1JD Co1 1_555 1_555
O1H C1H 1_555 1_555
O1YC Co1D 1_555 1_555
O1N Co1D 1_555 1_555
O1D Co1D 1_555 1_555
O2ED Co2D 1_555 1_555
O2Q Co2 1_555 1_555
O2BD C1BD 1_555 1_555
O2UC Co2 1_555 1_555
O2O C1O 1_555 1_555
O2JD Co2 1_555 1_555
O2H C1H 1_555 1_555
O2YC Co2D 1_555 1_555
O2N Co2D 1_555 1_555
O2D Co2D 1_555 1_555
O3D Co1D 1_555 1_555
C1ED O2ED 1_555 1_555
C1Q O1Q 1_555 1_555
C1BD C2BD 1_555 1_555
C1UC O1UC 1_555 1_555
C1O C2O 1_555 1_555
C1JD O1JD 1_555 1_555
C1H C2H 1_555 1_555
C2ED C3 1_555 1_555
C2Q C1Q 1_555 1_555
C2BD C3Q 1_555 1_555
C2UC C1UC 1_555 1_555
C2O C3O 1_555 1_555
C2JD C1JD 1_555 1_555
C2H C3H 1_555 1_555
C3Q C2Q 1_555 1_555
C3O C2UC 1_555 1_555
C3H C2JD 1_555 1_555
H1Q C3Q 1_555 1_555
H1O C3O 1_555 1_555
H1H C3H 1_555 1_555
C4ED C5 1_555 1_555
C4Q C2Q 1_555 1_555
C4BD C2BD 1_555 1_555
C4UC C2UC 1_555 1_555
C4O C2O 1_555 1_555
C4JD C2JD 1_555 1_555
C4H C2H 1_555 1_555
H2ED C4ED 1_555 1_555
H2Q C4Q 1_555 1_555
H2BD C4BD 1_555 1_555
H2UC C4UC 1_555 1_555
H2O C4O 1_555 1_555
H2JD C4JD 1_555 1_555
H2H C4H 1_555 1_555
C5Q C4Q 1_555 1_555
C5O C4UC 1_555 1_555
C5H C4JD 1_555 1_555
H3Q C5Q 1_555 1_555
H3O C5O 1_555 1_555
H3H C5H 1_555 1_555
C6PA C6 1_555 1_555
C6AA N1AA 1_555 1_555
C6Q N1 1_555 1_555
C7UC N1 1_555 1_555
C7Q N1 1_555 1_555
C7JD N1 1_555 1_555
C7GE C7 1_555 1_555
C7PA N1AA 1_555 1_555
C7AA N1AA 1_555 1_555
C7PD N1AA 1_555 1_555
C6 C7UC 1_555 1_555
C7 C7JD 1_555 1_555
N1AA C7GE 1_555 1_555
O2Q C1Q 1_555 1_555
O2UC C1UC 1_555 1_555
O2JD C1JD 1_555 1_555
C1ED C2ED 1_555 1_555
C2ED C4ED 1_555 1_555
C4BD C5Q 1_555 1_555
C4O C5O 1_555 1_555
C4H C5H 1_555 1_555
C6PA C7GE 1_555 1_555
C6PA C7PA 1_555 1_555
C6AA C6Q 1_555 1_555
C6AA C7AA 1_555 1_555
C6AA C7PD 1_555 1_555
C6Q C7Q 1_555 1_555
C6Q C7JD 1_555 1_555
C7UC C7Q 1_555 1_555
C7UC C7PA 1_555 1_555
C7Q C7PD 1_555 1_555
C7JD C7AA 1_555 1_555
C7GE C7AA 1_555 1_555
C7PA C7PD 1_555 1_555

#END
