
#######################################################################
#
#                 Cambridge Crystallographic Data Centre
#                                CCDC 
#
#######################################################################
#
# If this CIF has been generated from an entry in the Cambridge 
# Structural Database, then it will include bibliographic, chemical, 
# crystal, experimental, refinement or atomic coordinate data resulting 
# from the CCDC's data processing and validation procedures.
#
#######################################################################

data_KOPHOO
_chemical_formula_moiety         '(C86 H60 N2 O26 Zn8)n'
_symmetry_cell_setting           monoclinic
_symmetry_space_group_name_H-M   'P 21/c'
_symmetry_Int_Tables_number      14
_space_group_name_Hall           '-P 2ybc'
loop_
_symmetry_equiv_pos_site_id
_symmetry_equiv_pos_as_xyz
1 x,y,z
2 -x,1/2+y,1/2-z
3 -x,-y,-z
4 x,1/2-y,1/2+z
_cell_length_a                   17.1259(4)
_cell_length_b                   32.5986(8)
_cell_length_c                   25.1806(18)
_cell_angle_alpha                90
_cell_angle_beta                 99.471(7)
_cell_angle_gamma                90
_cell_volume                     13866.2
loop_
_atom_site_label
_atom_site_type_symbol
_atom_site_fract_x
_atom_site_fract_y
_atom_site_fract_z
Zn1 Zn 1.11139(4) 0.93498(2) 0.29705(3)
Zn2 Zn 0.96428(4) 0.96216(2) 0.20988(3)
Zn3 Zn 1.08941(4) 0.89953(2) 0.17784(3)
Zn4 Zn 0.97412(4) 0.87094(2) 0.25600(3)
O1 O 0.9109(3) 1.00950(13) 0.68274(18)
O2 O 1.0090(3) 0.98943(12) 0.74661(18)
O3 O 0.8569(3) 0.94954(16) 0.2149(2)
O4 O 0.8638(3) 0.88511(15) 0.2504(2)
O5 O 0.9715(3) 0.97669(13) 0.13672(17)
O6 O 1.0591(3) 0.93234(13) 0.11417(16)
O7 O 0.2182(3) 0.93140(14) 0.28352(19)
O8 O 0.2017(2) 0.90569(14) 0.20013(19)
O9 O 1.0681(3) 0.65670(13) 0.65797(18)
O10 O 0.9828(3) 0.67605(12) 0.71182(17)
O11 O 1.0076(3) 0.85654(13) 0.33132(16)
O12 O 1.0990(3) 0.90458(14) 0.36025(17)
O13 O 1.0350(2) 0.91695(10) 0.23558(13)
N1 N 1.0112(4) 0.84250(16) 0.5828(2)
C1 C 1.0525(5) 0.8773(2) 0.3678(2)
C2 C 1.0451(4) 0.86527(19) 0.4251(3)
C3 C 1.0823(5) 0.8883(2) 0.4673(3)
H1 H 1.1159 0.9099 0.4607
C4 C 1.0714(5) 0.8804(2) 0.5182(3)
H2 H 1.0967 0.8969 0.5466
C5 C 1.0252(5) 0.8497(2) 0.5287(3)
C6 C 0.9889(5) 0.8235(2) 0.4874(3)
H3 H 0.9592 0.8007 0.4953
C7 C 0.9976(5) 0.8320(2) 0.4356(3)
H4 H 0.9722 0.8157 0.4071
C8 C 0.9950(5) 0.8762(2) 0.6140(3)
C9 C 0.9430(5) 0.9054(2) 0.5919(3)
H5 H 0.9150 0.9019 0.5569
C10 C 0.9308(5) 0.9406(2) 0.6209(3)
H6 H 0.8945 0.9606 0.6053
C11 C 0.9720(4) 0.9465(2) 0.6725(3)
C12 C 1.0226(5) 0.9159(2) 0.6948(3)
H7 H 1.0497 0.9186 0.7302
C13 C 1.0340(5) 0.8808(2) 0.6650(3)
H8 H 1.0690 0.8603 0.6805
C14 C 1.0110(5) 0.8019(2) 0.6046(3)
C15 C 0.8285(4) 0.9167(3) 0.2344(3)
C16 C 0.7390(5) 0.9194(3) 0.2359(3)
C17 C 0.7041(5) 0.8861(3) 0.2543(4)
H9 H 0.7346 0.8626 0.2649
C18 C 0.6229(6) 0.8862(4) 0.2577(5)
C19 C 0.5800(5) 0.9211(3) 0.2404(4)
C20 C 0.6160(5) 0.9530(4) 0.2215(5)
C21 C 0.6937(5) 0.9527(3) 0.2184(4)
H10 H 0.7168 0.9755 0.2042
C22 C 0.5848(6) 0.8482(3) 0.2771(6)
H11 H 0.5440 0.8382 0.2487
H12 H 0.5615 0.8549 0.3085
H13 H 0.6247 0.8271 0.2864
C23 C 0.5657(6) 0.9912(4) 0.2009(7)
H14 H 0.5414 1.0024 0.2299
H15 H 0.5248 0.9833 0.1713
H16 H 0.5996 1.0118 0.1885
C24 C 0.4931(5) 0.9195(3) 0.2422(4)
C25 C 0.4644(5) 0.9333(3) 0.2864(4)
C26 C 0.3833(5) 0.9335(3) 0.2862(4)
H17 H 0.3636 0.9437 0.3163
C27 C 0.3305(4) 0.9188(2) 0.2420(3)
C28 C 0.2432(4) 0.9195(2) 0.2437(3)
C29 C 0.3611(5) 0.9047(3) 0.1973(4)
H18 H 0.3270 0.8946 0.1671
C30 C 0.4394(6) 0.9057(3) 0.1980(4)
C31 C 0.4720(6) 0.8895(5) 0.1459(5)
H19 H 0.5056 0.8658 0.1555
H20 H 0.5024 0.9110 0.1322
H21 H 0.4278 0.8818 0.1185
C32 C 0.5185(5) 0.9493(4) 0.3370(5)
H22 H 0.5492 0.9724 0.3274
H23 H 0.5539 0.9276 0.3524
H24 H 0.4863 0.9582 0.3632
C33 C 1.0121(4) 0.9627(2) 0.1043(3)
C34 C 1.0068(4) 0.98130(19) 0.0502(2)
C35 C 1.0469(5) 0.9670(2) 0.0131(3)
H25 H 1.0788 0.9436 0.0209
C36 C 1.0429(5) 0.9855(2) -0.0367(3)
H26 H 1.0740 0.9756 -0.0614
C37 C 1.0240(4) 0.6828(2) 0.6751(3)
C38 C 1.0188(4) 0.72462(19) 0.6504(3)
C39 C 1.0661(5) 0.7342(2) 0.6128(3)
H27 H 1.1002 0.7140 0.6027
C40 C 1.0646(5) 0.7721(2) 0.5897(3)
H28 H 1.0980 0.7785 0.5648
C41 C 0.9643(5) 0.9846(2) 0.7028(3)
C42 C 0.9663(5) 0.7915(2) 0.6443(3)
H29 H 0.9338 0.8115 0.6564
C43 C 0.9687(4) 0.75348(19) 0.6657(3)
H30 H 0.9361 0.7468 0.6911
O5B O 1.0285(3) 1.02331(13) -0.13672(17)
O6B O 0.9409(3) 1.06766(13) -0.11417(16)
C33B C 0.9879(4) 1.0373(2) -0.1043(3)
C34B C 0.9932(4) 1.01870(19) -0.0502(2)
C35B C 0.9531(5) 1.0330(2) -0.0131(3)
H25B H 0.9212 1.0564 -0.0209
C36B C 0.9571(5) 1.0145(2) 0.0367(3)
H26B H 0.9260 1.0244 0.0614
Zn1B Zn 0.88861(4) 1.06502(2) -0.29705(3)
Zn2B Zn 1.03572(4) 1.03784(2) -0.20988(3)
Zn3B Zn 0.91059(4) 1.10047(2) -0.17784(3)
Zn4B Zn 1.02588(4) 1.12906(2) -0.25600(3)
O1B O 1.0891(3) 0.99050(13) -0.68274(18)
O2B O 0.9910(3) 1.01057(12) -0.74661(18)
O3B O 1.1431(3) 1.05046(16) -0.2149(2)
O4B O 1.1362(3) 1.11489(15) -0.2504(2)
O7B O 1.7818(3) 1.06860(14) -0.28352(19)
O8B O 1.7983(2) 1.09431(14) -0.20013(19)
O9B O 0.9319(3) 1.34330(13) -0.65797(18)
O10B O 1.0172(3) 1.32395(12) -0.71182(17)
O11B O 0.9924(3) 1.14346(13) -0.33132(16)
O12B O 0.9010(3) 1.09542(14) -0.36025(17)
O13B O 0.9650(2) 1.08305(10) -0.23558(13)
N1B N 0.9888(4) 1.15750(16) -0.5828(2)
C1B C 0.9475(5) 1.1227(2) -0.3678(2)
C2B C 0.9549(4) 1.13473(19) -0.4251(3)
C3B C 0.9177(5) 1.1117(2) -0.4673(3)
H1B H 0.8841 1.0901 -0.4607
C4B C 0.9286(5) 1.1196(2) -0.5182(3)
H2B H 0.9033 1.1031 -0.5466
C5B C 0.9748(5) 1.1503(2) -0.5287(3)
C6B C 1.0111(5) 1.1765(2) -0.4874(3)
H3B H 1.0408 1.1993 -0.4953
C7B C 1.0024(5) 1.1680(2) -0.4356(3)
H4B H 1.0278 1.1843 -0.4071
C8B C 1.0050(5) 1.1238(2) -0.6140(3)
C9B C 1.0570(5) 1.0946(2) -0.5919(3)
H5B H 1.0850 1.0981 -0.5569
C10B C 1.0692(5) 1.0594(2) -0.6209(3)
H6B H 1.1055 1.0394 -0.6053
C11B C 1.0280(4) 1.0535(2) -0.6725(3)
C12B C 0.9774(5) 1.0841(2) -0.6948(3)
H7B H 0.9503 1.0814 -0.7302
C13B C 0.9660(5) 1.1192(2) -0.6650(3)
H8B H 0.9310 1.1397 -0.6805
C14B C 0.9890(5) 1.1981(2) -0.6046(3)
C15B C 1.1715(4) 1.0833(3) -0.2344(3)
C16B C 1.2610(5) 1.0806(3) -0.2359(3)
C17B C 1.2959(5) 1.1139(3) -0.2543(4)
H9B H 1.2654 1.1374 -0.2649
C18B C 1.3771(6) 1.1138(4) -0.2577(5)
C19B C 1.4200(5) 1.0789(3) -0.2404(4)
C20B C 1.3840(5) 1.0470(4) -0.2215(5)
C21B C 1.3063(5) 1.0473(3) -0.2184(4)
H10B H 1.2832 1.0245 -0.2042
C22B C 1.4152(6) 1.1518(3) -0.2771(6)
H11B H 1.4560 1.1618 -0.2487
H12B H 1.4385 1.1451 -0.3085
H13B H 1.3753 1.1729 -0.2864
C23B C 1.4343(6) 1.0088(4) -0.2009(7)
H14B H 1.4586 0.9976 -0.2299
H15B H 1.4752 1.0167 -0.1713
H16B H 1.4004 0.9882 -0.1885
C24B C 1.5069(5) 1.0805(3) -0.2422(4)
C25B C 1.5356(5) 1.0667(3) -0.2864(4)
C26B C 1.6167(5) 1.0665(3) -0.2862(4)
H17B H 1.6364 1.0563 -0.3163
C27B C 1.6695(4) 1.0812(2) -0.2420(3)
C28B C 1.7568(4) 1.0805(2) -0.2437(3)
C29B C 1.6389(5) 1.0953(3) -0.1973(4)
H18B H 1.6730 1.1054 -0.1671
C30B C 1.5606(6) 1.0943(3) -0.1980(4)
C31B C 1.5280(6) 1.1105(5) -0.1459(5)
H19B H 1.4944 1.1342 -0.1555
H20B H 1.4976 1.0890 -0.1322
H21B H 1.5722 1.1182 -0.1185
C32B C 1.4815(5) 1.0507(4) -0.3370(5)
H22B H 1.4508 1.0276 -0.3274
H23B H 1.4461 1.0724 -0.3524
H24B H 1.5137 1.0418 -0.3632
C37B C 0.9760(4) 1.3172(2) -0.6751(3)
C38B C 0.9812(4) 1.27538(19) -0.6504(3)
C39B C 0.9339(5) 1.2658(2) -0.6128(3)
H27B H 0.8998 1.2860 -0.6027
C40B C 0.9354(5) 1.2279(2) -0.5897(3)
H28B H 0.9020 1.2215 -0.5648
C41B C 1.0357(5) 1.0154(2) -0.7028(3)
C42B C 1.0337(5) 1.2085(2) -0.6443(3)
H29B H 1.0662 1.1885 -0.6564
C43B C 1.0313(4) 1.24652(19) -0.6657(3)
H30B H 1.0639 1.2532 -0.6911
Zn1_2 Zn 0.11139(4) 0.93498(2) 0.29705(3)
Zn1_3 Zn 1.11139(4) 0.93498(2) -0.70295(3)
Zn1B_2 Zn 0.88861(4) 1.06502(2) 0.70295(3)
Zn1B_3 Zn 1.88861(4) 1.06502(2) -0.29705(3)
Zn2_2 Zn 0.96428(4) 0.96216(2) -0.79012(3)
Zn2B_2 Zn 1.03572(4) 1.03784(2) 0.79012(3)
Zn3_2 Zn 0.08941(4) 0.89953(2) 0.17784(3)
Zn3A Zn 0.91059(4) 1.39953(2) -0.67784(3)
Zn3B_2 Zn 1.91059(4) 1.10047(2) -0.17784(3)
Zn3C Zn 1.08941(4) 0.60047(2) 0.67784(3)
Zn4A Zn 1.02588(4) 1.37094(2) -0.75600(3)
Zn4C Zn 0.97412(4) 0.62906(2) 0.75600(3)
O1_2 O 0.9109(3) 1.00950(13) -0.31726(18)
O1B_2 O 1.0891(3) 0.99050(13) 0.31726(18)
O2_2 O 1.0090(3) 0.98943(12) -0.25339(18)
O2B_2 O 0.9910(3) 1.01057(12) 0.25339(18)
O7_2 O 1.2182(3) 0.93140(14) 0.28352(19)
O7B_2 O 0.7818(3) 1.06860(14) -0.28352(19)
O8_2 O 1.2017(2) 0.90569(14) 0.20013(19)
O8B_2 O 0.7983(2) 1.09431(14) -0.20013(19)
O9A O 0.9319(3) 1.15670(13) -0.15797(18)
O9C O 1.0681(3) 0.84330(13) 0.15797(18)
O10A O 1.0172(3) 1.17605(12) -0.21182(17)
O10C O 0.9828(3) 0.82395(12) 0.21182(17)
loop_
_geom_bond_atom_site_label_1
_geom_bond_atom_site_label_2
_geom_bond_site_symmetry_1
_geom_bond_site_symmetry_2
Zn1 O12 1_555 1_555
Zn2 O3 1_555 1_555
Zn3 O6 1_555 1_555
Zn4 O4 1_555 1_555
O1 C41 1_555 1_555
O2 C41 1_555 1_555
O3 C15 1_555 1_555
O4 C15 1_555 1_555
O5 Zn2 1_555 1_555
O6 C33 1_555 1_555
O7 C28 1_555 1_555
O8 C28 1_555 1_555
O9 C37 1_555 1_555
O10 C37 1_555 1_555
O11 Zn4 1_555 1_555
O12 C1 1_555 1_555
O13 Zn1 1_555 1_555
N1 C5 1_555 1_555
C1 O11 1_555 1_555
C2 C1 1_555 1_555
C3 C2 1_555 1_555
H1 C3 1_555 1_555
C4 C3 1_555 1_555
H2 C4 1_555 1_555
C5 C4 1_555 1_555
C6 C5 1_555 1_555
H3 C6 1_555 1_555
C7 C2 1_555 1_555
H4 C7 1_555 1_555
C8 N1 1_555 1_555
C9 C8 1_555 1_555
H5 C9 1_555 1_555
C10 C9 1_555 1_555
H6 C10 1_555 1_555
C11 C10 1_555 1_555
C12 C11 1_555 1_555
H7 C12 1_555 1_555
C13 C8 1_555 1_555
H8 C13 1_555 1_555
C14 N1 1_555 1_555
C15 C16 1_555 1_555
C16 C17 1_555 1_555
C17 H9 1_555 1_555
C18 C17 1_555 1_555
C19 C18 1_555 1_555
C20 C19 1_555 1_555
C21 C16 1_555 1_555
H10 C21 1_555 1_555
C22 C18 1_555 1_555
H11 C22 1_555 1_555
H12 C22 1_555 1_555
H13 C22 1_555 1_555
C23 C20 1_555 1_555
H14 C23 1_555 1_555
H15 C23 1_555 1_555
H16 C23 1_555 1_555
C24 C19 1_555 1_555
C25 C24 1_555 1_555
C26 C25 1_555 1_555
H17 C26 1_555 1_555
C27 C26 1_555 1_555
C28 C27 1_555 1_555
C29 C27 1_555 1_555
H18 C29 1_555 1_555
C30 C24 1_555 1_555
C31 C30 1_555 1_555
H19 C31 1_555 1_555
H20 C31 1_555 1_555
H21 C31 1_555 1_555
C32 C25 1_555 1_555
H22 C32 1_555 1_555
H23 C32 1_555 1_555
H24 C32 1_555 1_555
C33 O5 1_555 1_555
C34 C33 1_555 1_555
C35 C34 1_555 1_555
H25 C35 1_555 1_555
C36 C35 1_555 1_555
H26 C36 1_555 1_555
C37 C38 1_555 1_555
C38 C39 1_555 1_555
C39 H27 1_555 1_555
C40 C14 1_555 1_555
H28 C40 1_555 1_555
C41 C11 1_555 1_555
C42 C14 1_555 1_555
H29 C42 1_555 1_555
C43 C38 1_555 1_555
H30 C43 1_555 1_555
O5B C33B 1_555 1_555
O6B C33B 1_555 1_555
C33B C34B 1_555 1_555
C34B C36 1_555 1_555
C35B C34B 1_555 1_555
H25B C35B 1_555 1_555
C36B C34 1_555 1_555
H26B C36B 1_555 1_555
Zn1B O12B 1_555 1_555
Zn2B O5B 1_555 1_555
Zn3B O6B 1_555 1_555
Zn4B O4B 1_555 1_555
O1B C41B 1_555 1_555
O2B C41B 1_555 1_555
O3B Zn2B 1_555 1_555
O4B C15B 1_555 1_555
O7B C28B 1_555 1_555
O8B C28B 1_555 1_555
O9B C37B 1_555 1_555
O10B C37B 1_555 1_555
O11B Zn4B 1_555 1_555
O12B C1B 1_555 1_555
O13B Zn1B 1_555 1_555
N1B C5B 1_555 1_555
C1B O11B 1_555 1_555
C2B C1B 1_555 1_555
C3B C2B 1_555 1_555
H1B C3B 1_555 1_555
C4B C3B 1_555 1_555
H2B C4B 1_555 1_555
C5B C4B 1_555 1_555
C6B C5B 1_555 1_555
H3B C6B 1_555 1_555
C7B C2B 1_555 1_555
H4B C7B 1_555 1_555
C8B N1B 1_555 1_555
C9B C8B 1_555 1_555
H5B C9B 1_555 1_555
C10B C9B 1_555 1_555
H6B C10B 1_555 1_555
C11B C10B 1_555 1_555
C12B C11B 1_555 1_555
H7B C12B 1_555 1_555
C13B C8B 1_555 1_555
H8B C13B 1_555 1_555
C14B N1B 1_555 1_555
C15B O3B 1_555 1_555
C16B C15B 1_555 1_555
C17B C16B 1_555 1_555
H9B C17B 1_555 1_555
C18B C17B 1_555 1_555
C19B C18B 1_555 1_555
C20B C19B 1_555 1_555
C21B C16B 1_555 1_555
H10B C21B 1_555 1_555
C22B C18B 1_555 1_555
H11B C22B 1_555 1_555
H12B C22B 1_555 1_555
H13B C22B 1_555 1_555
C23B C20B 1_555 1_555
H14B C23B 1_555 1_555
H15B C23B 1_555 1_555
H16B C23B 1_555 1_555
C24B C19B 1_555 1_555
C25B C24B 1_555 1_555
C26B C25B 1_555 1_555
H17B C26B 1_555 1_555
C27B C26B 1_555 1_555
C28B C27B 1_555 1_555
C29B C27B 1_555 1_555
H18B C29B 1_555 1_555
C30B C24B 1_555 1_555
C31B C30B 1_555 1_555
H19B C31B 1_555 1_555
H20B C31B 1_555 1_555
H21B C31B 1_555 1_555
C32B C25B 1_555 1_555
H22B C32B 1_555 1_555
H23B C32B 1_555 1_555
H24B C32B 1_555 1_555
C37B C38B 1_555 1_555
C38B C39B 1_555 1_555
C39B H27B 1_555 1_555
C40B C14B 1_555 1_555
H28B C40B 1_555 1_555
C41B C11B 1_555 1_555
C42B C14B 1_555 1_555
H29B C42B 1_555 1_555
C43B C38B 1_555 1_555
H30B C43B 1_555 1_555
Zn1_2 O7 1_555 1_555
Zn1_3 O1B 1_555 1_555
Zn1B_2 O1 1_555 1_555
Zn1B_3 O7B 1_555 1_555
Zn2_2 O2B 1_555 1_555
Zn2B_2 O2 1_555 1_555
Zn3_2 O8 1_555 1_555
Zn3A O9B 1_555 1_555
Zn3B_2 O8B 1_555 1_555
Zn3C O9 1_555 1_555
Zn4A O10B 1_555 1_555
Zn4C O10 1_555 1_555
O1_2 Zn1B 1_555 1_555
O1B_2 Zn1 1_555 1_555
O2_2 Zn2B 1_555 1_555
O2B_2 Zn2 1_555 1_555
O7_2 Zn1 1_555 1_555
O7B_2 Zn1B 1_555 1_555
O8_2 Zn3 1_555 1_555
O8B_2 Zn3B 1_555 1_555
O9A Zn3B 1_555 1_555
O9C Zn3 1_555 1_555
O10A Zn4B 1_555 1_555
O10C Zn4 1_555 1_555
Zn2 O13 1_555 1_555
Zn3 O13 1_555 1_555
Zn4 O13 1_555 1_555
C6 C7 1_555 1_555
C12 C13 1_555 1_555
C20 C21 1_555 1_555
C29 C30 1_555 1_555
C39 C40 1_555 1_555
C42 C43 1_555 1_555
C35B C36B 1_555 1_555
Zn2B O13B 1_555 1_555
Zn3B O13B 1_555 1_555
Zn4B O13B 1_555 1_555
C6B C7B 1_555 1_555
C12B C13B 1_555 1_555
C20B C21B 1_555 1_555
C29B C30B 1_555 1_555
C39B C40B 1_555 1_555
C42B C43B 1_555 1_555

#END
