
#######################################################################
#
#                 Cambridge Crystallographic Data Centre
#                                CCDC 
#
#######################################################################
#
# If this CIF has been generated from an entry in the Cambridge 
# Structural Database, then it will include bibliographic, chemical, 
# crystal, experimental, refinement or atomic coordinate data resulting 
# from the CCDC's data processing and validation procedures.
#
#######################################################################

data_KOPHII
_chemical_formula_moiety         '(C98 H68 N2 O26 Zn8)n'
_symmetry_cell_setting           orthorhombic
_symmetry_space_group_name_H-M   'P n m a'
_symmetry_Int_Tables_number      62
_space_group_name_Hall           '-P 2ac 2n'
loop_
_symmetry_equiv_pos_site_id
_symmetry_equiv_pos_as_xyz
1 x,y,z
2 1/2-x,-y,1/2+z
3 1/2+x,1/2-y,1/2-z
4 -x,1/2+y,-z
5 -x,-y,-z
6 1/2+x,y,1/2-z
7 1/2-x,1/2+y,1/2+z
8 x,1/2-y,z
_cell_length_a                   24.8949(5)
_cell_length_b                   42.564(3)
_cell_length_c                   32.7857(6)
_cell_angle_alpha                90
_cell_angle_beta                 90
_cell_angle_gamma                90
_cell_volume                     34740.6
loop_
_atom_site_label
_atom_site_type_symbol
_atom_site_fract_x
_atom_site_fract_y
_atom_site_fract_z
Zn1 Zn 0.716471(12) -0.031385(9) 0.425535(12)
Zn2 Zn 0.833399(11) -0.021980(8) 0.392365(11)
Zn3 Zn 0.787608(11) 0.024230(8) 0.459613(11)
Zn4 Zn 0.742388(11) 0.026480(8) 0.368849(11)
O1 O 0.77064(5) -0.00074(4) 0.41168(5)
O2 O 0.73757(8) -0.07267(4) 0.41524(8)
O3 O 0.82335(7) -0.06731(5) 0.39221(7)
O4 O 0.89315(6) -0.01415(5) 0.42636(6)
O5 O 0.86046(6) 0.01796(4) 0.47534(6)
O6 O 0.77717(8) 0.06794(5) 0.45026(7)
O7 O 0.74621(7) 0.06974(4) 0.38341(7)
O8 O 0.74412(6) 0.01222(5) 0.50635(6)
O9 O 0.69752(8) -0.02829(6) 0.48193(7)
O10 O 0.33297(6) -0.01903(5) 0.64206(5)
O11 O 0.34979(7) 0.02339(5) 0.60187(7)
O12 O 0.64844(6) 0.00865(5) 0.83858(6)
O13 O 0.71872(6) -0.02133(5) 0.81873(6)
N1 N 0.58762(8) -0.01224(10) 0.65338(8)
C1 C 0.78421(13) -0.08377(8) 0.40129(12)
C2 C 0.78988(15) -0.11809(8) 0.40075(13)
C3 C 0.83823(15) -0.13128(8) 0.38726(12)
H1 H 0.8678 -0.1184 0.3798
C4 C 0.84161(19) -0.16255(10) 0.38515(15)
H2 H 0.8739 -0.1719 0.3756
C5 C 0.7965(2) -0.18304(9) 0.3973(2)
C6 C 0.7523(2) -0.16970(9) 0.4082(2)
H3 H 0.7216 -0.1822 0.4139
C7 C 0.74902(18) -0.13824(9) 0.41154(17)
H4 H 0.7167 -0.1294 0.4219
C8 C 0.8058(2) -0.21609(9) 0.39439(19)
C9 C 0.8173(2) -0.23363(9) 0.4225(2)
C10 C 0.8345(3) -0.21545(14) 0.4640(2)
H5 H 0.8437 -0.2309 0.4851
H6 H 0.8046 -0.2024 0.4735
H7 H 0.8658 -0.2021 0.4586
C11 C 0.7896(3) -0.23293(10) 0.3599(2)
C12 C 0.7730(3) -0.21461(13) 0.3187(2)
H8 H 0.7629 -0.2299 0.2977
H9 H 0.8035 -0.2021 0.3091
H10 H 0.7424 -0.2008 0.3243
C13 C 0.89826(9) 0.00183(8) 0.45851(10)
C14 C 0.95012(9) 0.00119(8) 0.48008(9)
C15 C 0.99284(11) -0.01673(8) 0.46372(10)
H11 H 0.9878 -0.0282 0.4391
C16 C 0.95856(11) 0.01765(8) 0.51679(10)
H12 H 0.9301 0.0296 0.5282
C17 C 0.76200(12) 0.08117(7) 0.41721(12)
C18 C 0.76308(14) 0.11575(9) 0.41771(12)
C19 C 0.7485(2) 0.13362(10) 0.38067(15)
H13 H 0.7392 0.1226 0.3564
C20 C 0.7482(2) 0.16598(11) 0.38084(17)
H14 H 0.7389 0.1771 0.3567
C21 C 0.7608(3) 0.18200(11) 0.4147(2)
C22 C 0.7809(2) 0.16607(10) 0.45318(17)
H15 H 0.7921 0.1779 0.4762
C23 C 0.7822(2) 0.13272(10) 0.45344(15)
H16 H 0.7953 0.1217 0.4766
C24 C 0.7664(3) 0.21633(11) 0.4161(3)
C25 C 0.8085(3) 0.23385(10) 0.4087(3)
C26 C 0.8588(3) 0.21570(14) 0.3842(3)
H17 H 0.8926 0.2267 0.3898
H18 H 0.8517 0.2159 0.3548
H19 H 0.8614 0.1939 0.3938
C27 C 0.7213(3) 0.23298(10) 0.4296(2)
C28 C 0.6669(3) 0.21616(13) 0.4489(3)
H20 H 0.6613 0.2236 0.4769
H21 H 0.6716 0.1933 0.4491
H22 H 0.6356 0.2216 0.4322
C29 C 0.70995(10) -0.00887(9) 0.51043(10)
C30 C 0.67992(9) -0.01091(9) 0.54812(10)
C31 C 0.63605(11) -0.03193(10) 0.55095(10)
H23 H 0.6273 -0.0452 0.5286
C32 C 0.60631(11) -0.03312(12) 0.58601(10)
H24 H 0.5772 -0.0474 0.5883
C33 C 0.61921(11) -0.01285(13) 0.61888(10)
C34 C 0.66381(12) 0.00748(12) 0.61693(11)
H25 H 0.6733 0.0203 0.6395
C35 C 0.69362(11) 0.00824(10) 0.58086(10)
H26 H 0.7236 0.0220 0.5787
C36 C 0.53077(12) -0.00914(12) 0.64714(10)
C37 C 0.51287(12) 0.01379(11) 0.61963(11)
H27 H 0.5377 0.0269 0.6056
C38 C 0.45835(11) 0.01694(9) 0.61332(10)
H28 H 0.4456 0.0320 0.5943
C39 C 0.42189(9) -0.00167(9) 0.63438(9)
C40 C 0.44060(10) -0.02399(9) 0.66333(10)
H29 H 0.4157 -0.0364 0.6782
C41 C 0.49465(11) -0.02752(11) 0.66967(10)
H30 H 0.5075 -0.0423 0.6891
C42 C 0.36316(9) 0.00102(9) 0.62576(10)
C43 C 0.60835(10) -0.01163(12) 0.69341(10)
C44 C 0.58218(11) 0.00438(11) 0.72502(10)
H31 H 0.5484 0.0140 0.7199
C45 C 0.60356(10) 0.00638(9) 0.76204(9)
H32 H 0.5855 0.0183 0.7823
C46 C 0.65180(9) -0.00850(8) 0.77211(9)
C47 C 0.67869(10) -0.02481(9) 0.74115(9)
H33 H 0.7121 -0.0347 0.7468
C48 C 0.65698(11) -0.02655(11) 0.70266(11)
H34 H 0.6752 -0.0380 0.6820
C49 C 0.67547(10) -0.00685(8) 0.81187(9)
O2G O 0.73757(8) -0.42733(4) 0.41524(8)
O3G O 0.82335(7) -0.43269(5) 0.39221(7)
C1G C 0.78421(13) -0.41623(8) 0.40129(12)
C2G C 0.78988(15) -0.38191(8) 0.40075(13)
C3G C 0.83823(15) -0.36872(8) 0.38726(12)
H1G H 0.8678 -0.3816 0.3798
C4G C 0.84161(19) -0.33745(10) 0.38515(15)
H2G H 0.8739 -0.3281 0.3756
C5G C 0.7965(2) -0.31696(9) 0.3973(2)
C6G C 0.7523(2) -0.33030(9) 0.4082(2)
H3G H 0.7216 -0.3178 0.4139
C7G C 0.74902(18) -0.36176(9) 0.41154(17)
H4G H 0.7167 -0.3706 0.4219
C8G C 0.8058(2) -0.28391(9) 0.39439(19)
C9G C 0.8173(2) -0.26637(9) 0.4225(2)
C10G C 0.8345(3) -0.28455(14) 0.4640(2)
H5G H 0.8437 -0.2691 0.4851
H6G H 0.8046 -0.2976 0.4735
H7G H 0.8658 -0.2979 0.4586
C11G C 0.7896(3) -0.26707(10) 0.3599(2)
C12G C 0.7730(3) -0.28539(13) 0.3187(2)
H8G H 0.7629 -0.2701 0.2977
H9G H 0.8035 -0.2979 0.3091
H10G H 0.7424 -0.2992 0.3243
O4D O 1.10685(6) 0.01415(5) 0.57364(6)
O5D O 1.13954(6) -0.01796(4) 0.52466(6)
C13D C 1.10174(9) -0.00183(8) 0.54149(10)
C14D C 1.04988(9) -0.00119(8) 0.51992(9)
C15D C 1.00716(11) 0.01673(8) 0.53628(10)
H11D H 1.0122 0.0282 0.5609
C16D C 1.04144(11) -0.01765(8) 0.48321(10)
H12D H 1.0699 -0.0296 0.4718
O6G O 0.77717(8) 0.43206(5) 0.45026(7)
O7G O 0.74621(7) 0.43026(4) 0.38341(7)
C17G C 0.76200(12) 0.41883(7) 0.41721(12)
C18G C 0.76308(14) 0.38425(9) 0.41771(12)
C19G C 0.7485(2) 0.36638(10) 0.38067(15)
H13G H 0.7392 0.3774 0.3564
C20G C 0.7482(2) 0.33402(11) 0.38084(17)
H14G H 0.7389 0.3229 0.3567
C21G C 0.7608(3) 0.31800(11) 0.4147(2)
C22G C 0.7809(2) 0.33393(10) 0.45318(17)
H15G H 0.7921 0.3221 0.4762
C23G C 0.7822(2) 0.36728(10) 0.45344(15)
H16G H 0.7953 0.3783 0.4766
C24G C 0.7664(3) 0.28367(11) 0.4161(3)
C25G C 0.8085(3) 0.26615(10) 0.4087(3)
C26G C 0.8588(3) 0.28430(14) 0.3842(3)
H17G H 0.8926 0.2733 0.3898
H18G H 0.8517 0.2841 0.3548
H19G H 0.8614 0.3061 0.3938
C27G C 0.7213(3) 0.26702(10) 0.4296(2)
C28G C 0.6669(3) 0.28384(13) 0.4489(3)
H20G H 0.6613 0.2764 0.4769
H21G H 0.6716 0.3067 0.4491
H22G H 0.6356 0.2784 0.4322
Zn1D Zn 0.283529(12) 0.031385(9) 0.574465(12)
Zn2D Zn 0.166601(11) 0.021980(8) 0.607635(11)
Zn3D Zn 0.212392(11) -0.024230(8) 0.540387(11)
Zn4D Zn 0.257612(11) -0.026480(8) 0.631151(11)
O1D O 0.22936(5) 0.00074(4) 0.58832(5)
O8D O 0.25588(6) -0.01222(5) 0.49365(6)
O9D O 0.30248(8) 0.02829(6) 0.51807(7)
O10D O 0.66703(6) 0.01903(5) 0.35794(5)
O11D O 0.65021(7) -0.02339(5) 0.39813(7)
O12D O 0.35156(6) -0.00865(5) 0.16142(6)
O13D O 0.28128(6) 0.02133(5) 0.18127(6)
N1D N 0.41238(8) 0.01224(10) 0.34662(8)
C29D C 0.29005(10) 0.00887(9) 0.48957(10)
C30D C 0.32008(9) 0.01091(9) 0.45188(10)
C31D C 0.36395(11) 0.03193(10) 0.44905(10)
H23D H 0.3727 0.0452 0.4714
C32D C 0.39369(11) 0.03312(12) 0.41399(10)
H24D H 0.4228 0.0474 0.4117
C33D C 0.38079(11) 0.01285(13) 0.38112(10)
C34D C 0.33619(12) -0.00748(12) 0.38307(11)
H25D H 0.3267 -0.0203 0.3605
C35D C 0.30638(11) -0.00824(10) 0.41914(10)
H26D H 0.2764 -0.0220 0.4213
C36D C 0.46923(12) 0.00914(12) 0.35286(10)
C37D C 0.48713(12) -0.01379(11) 0.38037(11)
H27D H 0.4623 -0.0269 0.3944
C38D C 0.54165(11) -0.01694(9) 0.38668(10)
H28D H 0.5544 -0.0320 0.4057
C39D C 0.57811(9) 0.00167(9) 0.36562(9)
C40D C 0.55940(10) 0.02399(9) 0.33667(10)
H29D H 0.5843 0.0364 0.3218
C41D C 0.50535(11) 0.02752(11) 0.33033(10)
H30D H 0.4925 0.0423 0.3109
C42D C 0.63684(9) -0.00102(9) 0.37424(10)
C43D C 0.39165(10) 0.01163(12) 0.30659(10)
C44D C 0.41782(11) -0.00438(11) 0.27498(10)
H31D H 0.4516 -0.0140 0.2801
C45D C 0.39644(10) -0.00638(9) 0.23796(9)
H32D H 0.4145 -0.0183 0.2177
C46D C 0.34820(9) 0.00850(8) 0.22789(9)
C47D C 0.32131(10) 0.02481(9) 0.25885(9)
H33D H 0.2879 0.0347 0.2532
C48D C 0.34302(11) 0.02655(11) 0.29734(11)
H34D H 0.3248 0.0380 0.3180
C49D C 0.32453(10) 0.00685(8) 0.18813(9)
Zn1G Zn 0.716471(12) -0.468615(9) 0.425535(12)
Zn2A Zn 0.666601(11) 0.021980(8) 0.892365(11)
Zn2D_2 Zn 1.166601(11) 0.021980(8) 0.607635(11)
Zn2E Zn 0.333399(11) -0.021980(8) 0.107635(11)
Zn2G Zn 0.833399(11) -0.478020(8) 0.392365(11)
Zn3D_2 Zn 1.212392(11) -0.024230(8) 0.540387(11)
Zn3G Zn 0.787608(11) 0.475770(8) 0.459613(11)
Zn4A Zn 0.757612(11) -0.026480(8) 0.868849(11)
Zn4E Zn 0.242388(11) 0.026480(8) 0.131151(11)
Zn4G Zn 0.742388(11) 0.473520(8) 0.368849(11)
O2D O 0.26243(8) 0.07267(4) 0.58476(8)
O3D O 0.17665(7) 0.06731(5) 0.60779(7)
O4D_2 O 0.10685(6) 0.01415(5) 0.57364(6)
O5D_2 O 0.13954(6) -0.01796(4) 0.52466(6)
O6D O 0.22283(8) -0.06794(5) 0.54974(7)
O7D O 0.25379(7) -0.06974(4) 0.61659(7)
O12A O 0.85156(6) -0.00865(5) 0.33858(6)
O12E O 0.14844(6) 0.00865(5) 0.66142(6)
O13A O 0.78128(6) 0.02133(5) 0.31873(6)
O13E O 0.21872(6) -0.02133(5) 0.68127(6)
loop_
_geom_bond_atom_site_label_1
_geom_bond_atom_site_label_2
_geom_bond_site_symmetry_1
_geom_bond_site_symmetry_2
Zn1 O1 1_555 1_555
Zn2 O1 1_555 1_555
Zn3 O1 1_555 1_555
Zn4 O1 1_555 1_555
O2 Zn1 1_555 1_555
O3 Zn2 1_555 1_555
O4 Zn2 1_555 1_555
O5 Zn3 1_555 1_555
O6 Zn3 1_555 1_555
O7 Zn4 1_555 1_555
O8 Zn3 1_555 1_555
O9 Zn1 1_555 1_555
O10 C42 1_555 1_555
O11 C42 1_555 1_555
O12 C49 1_555 1_555
O13 C49 1_555 1_555
N1 C33 1_555 1_555
C1 O2 1_555 1_555
C2 C1 1_555 1_555
C3 C2 1_555 1_555
H1 C3 1_555 1_555
C4 C3 1_555 1_555
H2 C4 1_555 1_555
C5 C4 1_555 1_555
C6 C5 1_555 1_555
H3 C6 1_555 1_555
C7 C2 1_555 1_555
H4 C7 1_555 1_555
C8 C5 1_555 1_555
C9 C8 1_555 1_555
C10 C9 1_555 1_555
H5 C10 1_555 1_555
H6 C10 1_555 1_555
H7 C10 1_555 1_555
C11 C8 1_555 1_555
C12 C11 1_555 1_555
H8 C12 1_555 1_555
H9 C12 1_555 1_555
H10 C12 1_555 1_555
C13 O4 1_555 1_555
C14 C13 1_555 1_555
C15 C14 1_555 1_555
H11 C15 1_555 1_555
C16 C14 1_555 1_555
H12 C16 1_555 1_555
C17 O6 1_555 1_555
C18 C17 1_555 1_555
C19 C18 1_555 1_555
H13 C19 1_555 1_555
C20 C19 1_555 1_555
H14 C20 1_555 1_555
C21 C20 1_555 1_555
C22 C21 1_555 1_555
H15 C22 1_555 1_555
C23 C18 1_555 1_555
H16 C23 1_555 1_555
C24 C21 1_555 1_555
C25 C24 1_555 1_555
C26 C25 1_555 1_555
H17 C26 1_555 1_555
H18 C26 1_555 1_555
H19 C26 1_555 1_555
C27 C24 1_555 1_555
C28 C27 1_555 1_555
H20 C28 1_555 1_555
H21 C28 1_555 1_555
H22 C28 1_555 1_555
C29 O8 1_555 1_555
C30 C29 1_555 1_555
C31 C30 1_555 1_555
H23 C31 1_555 1_555
C32 C31 1_555 1_555
H24 C32 1_555 1_555
C33 C32 1_555 1_555
C34 C33 1_555 1_555
H25 C34 1_555 1_555
C35 C30 1_555 1_555
H26 C35 1_555 1_555
C36 N1 1_555 1_555
C37 C36 1_555 1_555
H27 C37 1_555 1_555
C38 C37 1_555 1_555
H28 C38 1_555 1_555
C39 C38 1_555 1_555
C40 C39 1_555 1_555
H29 C40 1_555 1_555
C41 C36 1_555 1_555
H30 C41 1_555 1_555
C42 C39 1_555 1_555
C43 N1 1_555 1_555
C44 C43 1_555 1_555
H31 C44 1_555 1_555
C45 C44 1_555 1_555
H32 C45 1_555 1_555
C46 C45 1_555 1_555
C47 C46 1_555 1_555
H33 C47 1_555 1_555
C48 C43 1_555 1_555
H34 C48 1_555 1_555
C49 C46 1_555 1_555
O2G C1G 1_555 1_555
O3G C1G 1_555 1_555
C1G C2G 1_555 1_555
C2G C3G 1_555 1_555
C3G H1G 1_555 1_555
C4G C3G 1_555 1_555
H2G C4G 1_555 1_555
C5G C4G 1_555 1_555
C6G C5G 1_555 1_555
H3G C6G 1_555 1_555
C7G C2G 1_555 1_555
H4G C7G 1_555 1_555
C8G C5G 1_555 1_555
C9G C9 1_555 1_555
C10G C9G 1_555 1_555
H5G C10G 1_555 1_555
H6G C10G 1_555 1_555
H7G C10G 1_555 1_555
C11G C11 1_555 1_555
C12G C11G 1_555 1_555
H8G C12G 1_555 1_555
H9G C12G 1_555 1_555
H10G C12G 1_555 1_555
O4D C13D 1_555 1_555
O5D C13D 1_555 1_555
C13D C14D 1_555 1_555
C14D C15D 1_555 1_555
C15D C16 1_555 1_555
H11D C15D 1_555 1_555
C16D C15 1_555 1_555
H12D C16D 1_555 1_555
O6G C17G 1_555 1_555
O7G C17G 1_555 1_555
C17G C18G 1_555 1_555
C18G C19G 1_555 1_555
C19G H13G 1_555 1_555
C20G C19G 1_555 1_555
H14G C20G 1_555 1_555
C21G C20G 1_555 1_555
C22G C21G 1_555 1_555
H15G C22G 1_555 1_555
C23G C18G 1_555 1_555
H16G C23G 1_555 1_555
C24G C21G 1_555 1_555
C25G C25 1_555 1_555
C26G C25G 1_555 1_555
H17G C26G 1_555 1_555
H18G C26G 1_555 1_555
H19G C26G 1_555 1_555
C27G C27 1_555 1_555
C28G C27G 1_555 1_555
H20G C28G 1_555 1_555
H21G C28G 1_555 1_555
H22G C28G 1_555 1_555
Zn1D O11 1_555 1_555
Zn2D O1D 1_555 1_555
Zn3D O1D 1_555 1_555
Zn4D O10 1_555 1_555
O1D Zn1D 1_555 1_555
O8D Zn3D 1_555 1_555
O9D Zn1D 1_555 1_555
O10D Zn4 1_555 1_555
O11D Zn1 1_555 1_555
O12D C49D 1_555 1_555
O13D C49D 1_555 1_555
N1D C33D 1_555 1_555
C29D O8D 1_555 1_555
C30D C29D 1_555 1_555
C31D C30D 1_555 1_555
H23D C31D 1_555 1_555
C32D C31D 1_555 1_555
H24D C32D 1_555 1_555
C33D C32D 1_555 1_555
C34D C33D 1_555 1_555
H25D C34D 1_555 1_555
C35D C30D 1_555 1_555
H26D C35D 1_555 1_555
C36D N1D 1_555 1_555
C37D C36D 1_555 1_555
H27D C37D 1_555 1_555
C38D C37D 1_555 1_555
H28D C38D 1_555 1_555
C39D C38D 1_555 1_555
C40D C39D 1_555 1_555
H29D C40D 1_555 1_555
C41D C36D 1_555 1_555
H30D C41D 1_555 1_555
C42D O10D 1_555 1_555
C43D N1D 1_555 1_555
C44D C43D 1_555 1_555
H31D C44D 1_555 1_555
C45D C44D 1_555 1_555
H32D C45D 1_555 1_555
C46D C45D 1_555 1_555
C47D C46D 1_555 1_555
H33D C47D 1_555 1_555
C48D C43D 1_555 1_555
H34D C48D 1_555 1_555
C49D C46D 1_555 1_555
Zn1G O2G 1_555 1_555
Zn2A O12 1_555 1_555
Zn2D_2 O4D 1_555 1_555
Zn2E O12D 1_555 1_555
Zn2G O3G 1_555 1_555
Zn3D_2 O5D 1_555 1_555
Zn3G O6G 1_555 1_555
Zn4A O13 1_555 1_555
Zn4E O13D 1_555 1_555
Zn4G O7G 1_555 1_555
O2D Zn1D 1_555 1_555
O3D Zn2D 1_555 1_555
O4D_2 Zn2D 1_555 1_555
O5D_2 Zn3D 1_555 1_555
O6D Zn3D 1_555 1_555
O7D Zn4D 1_555 1_555
O12A Zn2 1_555 1_555
O12E Zn2D 1_555 1_555
O13A Zn4 1_555 1_555
O13E Zn4D 1_555 1_555
O3 C1 1_555 1_555
O5 C13 1_555 1_555
O7 C17 1_555 1_555
O9 C29 1_555 1_555
C6 C7 1_555 1_555
C22 C23 1_555 1_555
C34 C35 1_555 1_555
C40 C41 1_555 1_555
C47 C48 1_555 1_555
C6G C7G 1_555 1_555
C8G C9G 1_555 1_555
C8G C11G 1_555 1_555
C14D C16D 1_555 1_555
C22G C23G 1_555 1_555
C24G C25G 1_555 1_555
C24G C27G 1_555 1_555
Zn4D O1D 1_555 1_555
O9D C29D 1_555 1_555
O11D C42D 1_555 1_555
C34D C35D 1_555 1_555
C39D C42D 1_555 1_555
C40D C41D 1_555 1_555
C47D C48D 1_555 1_555

#END
