
#######################################################################
#
#                 Cambridge Crystallographic Data Centre
#                                CCDC 
#
#######################################################################
#
# If this CIF has been generated from an entry in the Cambridge 
# Structural Database, then it will include bibliographic, chemical, 
# crystal, experimental, refinement or atomic coordinate data resulting 
# from the CCDC's data processing and validation procedures.
#
#######################################################################

data_ORIVUI
_chemical_formula_moiety         '(C8 H14 Ni2 O12)n'
_symmetry_cell_setting           rhombohedral
_symmetry_space_group_name_H-M   'R -3'
_symmetry_Int_Tables_number      148
_space_group_name_Hall           '-R 3'
loop_
_symmetry_equiv_pos_site_id
_symmetry_equiv_pos_as_xyz
1 x,y,z
2 -y,x-y,z
3 -x+y,-x,z
4 1/3+x,2/3+y,2/3+z
5 1/3-y,2/3+x-y,2/3+z
6 1/3-x+y,2/3-x,2/3+z
7 2/3+x,1/3+y,1/3+z
8 2/3-y,1/3+x-y,1/3+z
9 2/3-x+y,1/3-x,1/3+z
10 -x,-y,-z
11 y,-x+y,-z
12 x-y,x,-z
13 2/3-x,1/3-y,1/3-z
14 2/3+y,1/3-x+y,1/3-z
15 2/3+x-y,1/3+x,1/3-z
16 1/3-x,2/3-y,2/3-z
17 1/3+y,2/3-x+y,2/3-z
18 1/3+x-y,2/3+x,2/3-z
_cell_length_a                   25.8561(4)
_cell_length_b                   25.8561
_cell_length_c                   6.71185(24)
_cell_angle_alpha                90
_cell_angle_beta                 90
_cell_angle_gamma                120
_cell_volume                     3885.97
loop_
_atom_site_label
_atom_site_type_symbol
_atom_site_fract_x
_atom_site_fract_y
_atom_site_fract_z
Ni1 Ni 0.38377(8) 0.34887(7) 0.14453(20)
C1 C 0.32325(7) 0.20445(5) 0.28777(16)
C2 C 0.33607(10) 0.21763(6) 0.08652(21)
C3 C 0.34615(12) 0.17985(9) -0.03458(10)
H1 H 0.35610(22) 0.19009(16) -0.19089(17)
C4 C 0.31241(15) 0.24508(11) 0.41801(34)
O1 O 0.31488(18) 0.29103(11) 0.3458(5)
O2 O 0.30086(23) 0.23320(18) 0.59946(33)
O3 O 0.33872(20) 0.26699(12) 0.0089(4)
O4 O 0.47922 0.37306 0.25055
C1L C 0.34342(7) 0.12888(5) 0.04556(16)
C2L C 0.33060(10) 0.11570(6) 0.24681(21)
C3L C 0.32052(12) 0.15348(9) 0.36791(10)
H1L H 0.31057(22) 0.14324(16) 0.52422(17)
C4L C 0.35426(15) 0.08825(11) -0.08468(34)
O1L O 0.35179(18) 0.04230(11) -0.0125(5)
O2L O 0.36581(23) 0.10013(18) -0.26613(33)
O3L O 0.32795(20) 0.06634(12) 0.3244(4)
Ni1J Ni 0.34887(7) -0.03490(11) -0.14453(20)
O4J O 0.37306 -0.10616 -0.25055
Ni1E Ni 0.29843(11) 0.28290(8) -0.18880(20)
Ni1E_2 Ni 0.29843(11) 0.28290(8) 0.81120(20)
Ni1L Ni 0.28290(8) -0.01554(7) 0.18880(20)
Ni1G Ni 0.31780(7) 0.36823(11) 0.47786(20)
Ni1Q Ni 0.36823(11) 0.05044(8) -0.47786(20)
Ni1Q_2 Ni 0.36823(11) 0.05044(8) 0.52214(20)
O1J O 0.29103(11) -0.02385(21) -0.3458(5)
O1E O 0.30948(21) 0.35179(18) 0.0125(5)
O2G O 0.43347(18) 0.40099(29) -0.06721(33)
O2Q O 0.40099(29) -0.03247(23) 0.06721(33)
O3J O 0.26699(12) -0.07173(23) -0.0089(4)
O3G O 0.39968(12) 0.40506(23) 0.3422(4)
O3Q O 0.40506(23) 0.00539(20) -0.3422(4)
O5 O 0.33333 0.66667 0.16667
O6 O 0.4728(6) 0.1165(5) -0.0594(15)
O7 O 0.0835(7) 0.0519(6) 0.2535(19)
O8 O 0.1691(6) 0.0599(6) 0.0318(17)
loop_
_geom_bond_atom_site_label_1
_geom_bond_atom_site_label_2
_geom_bond_site_symmetry_1
_geom_bond_site_symmetry_2
Ni1 O1 1_555 1_555
C1 C2 1_555 1_555
C2 C3 1_555 1_555
C3 H1 1_555 1_555
C4 C1 1_555 1_555
O1 C4 1_555 1_555
O2 C4 1_555 1_555
O3 Ni1 1_555 1_555
O4 Ni1 1_555 1_555
C1L C3 1_555 1_555
C2L C1L 1_555 1_555
C3L C1 1_555 1_555
H1L C3L 1_555 1_555
C4L C1L 1_555 1_555
O1L C4L 1_555 1_555
O2L C4L 1_555 1_555
O3L C2L 1_555 1_555
Ni1J O1L 1_555 1_555
O4J Ni1J 1_555 1_555
Ni1E O3 1_555 1_555
Ni1E_2 O2 1_555 1_555
Ni1L O1L 1_555 1_555
Ni1G O1 1_555 1_555
Ni1Q O2L 1_555 1_555
Ni1Q_2 O3L 1_555 1_555
O1J Ni1J 1_555 1_555
O1E Ni1 1_555 1_555
O2G Ni1 1_555 1_555
O2Q Ni1J 1_555 1_555
O3J Ni1J 1_555 1_555
O3G Ni1 1_555 1_555
O3Q Ni1J 1_555 1_555
C2 O3 1_555 1_555
C2L C3L 1_555 1_555
O3L Ni1L 1_555 1_555
Ni1E O1E 1_555 1_555
Ni1L O3J 1_555 1_555
Ni1G O3G 1_555 1_555
Ni1Q O1J 1_555 1_555
Ni1Q O3Q 1_555 1_555

#END
