
#######################################################################
#
#                 Cambridge Crystallographic Data Centre
#                                CCDC 
#
#######################################################################
#
# If this CIF has been generated from an entry in the Cambridge 
# Structural Database, then it will include bibliographic, chemical, 
# crystal, experimental, refinement or atomic coordinate data resulting 
# from the CCDC's data processing and validation procedures.
#
#######################################################################

data_LUKHIK
_chemical_formula_moiety         '(C78 H90 Mn3 N24 O12)n'
_symmetry_cell_setting           rhombohedral
_symmetry_space_group_name_H-M   'R -3 c'
_symmetry_Int_Tables_number      167
_space_group_name_Hall           '-R 3 2"c'
loop_
_symmetry_equiv_pos_site_id
_symmetry_equiv_pos_as_xyz
1 x,y,z
2 -y,x-y,z
3 -x+y,-x,z
4 y,x,1/2-z
5 -x,-x+y,1/2-z
6 x-y,-y,1/2-z
7 2/3+x,1/3+y,1/3+z
8 2/3-y,1/3+x-y,1/3+z
9 2/3-x+y,1/3-x,1/3+z
10 2/3+y,1/3+x,5/6-z
11 2/3-x,1/3-x+y,5/6-z
12 2/3+x-y,1/3-y,5/6-z
13 1/3+x,2/3+y,2/3+z
14 1/3-y,2/3+x-y,2/3+z
15 1/3-x+y,2/3-x,2/3+z
16 1/3+y,2/3+x,1/6-z
17 1/3-x,2/3-x+y,1/6-z
18 1/3+x-y,2/3-y,1/6-z
19 -x,-y,-z
20 y,-x+y,-z
21 x-y,x,-z
22 -y,-x,1/2+z
23 x,x-y,1/2+z
24 -x+y,y,1/2+z
25 1/3-x,2/3-y,2/3-z
26 1/3+y,2/3-x+y,2/3-z
27 1/3+x-y,2/3+x,2/3-z
28 1/3-y,2/3-x,1/6+z
29 1/3+x,2/3+x-y,1/6+z
30 1/3-x+y,2/3+y,1/6+z
31 2/3-x,1/3-y,1/3-z
32 2/3+y,1/3-x+y,1/3-z
33 2/3+x-y,1/3+x,1/3-z
34 2/3-y,1/3-x,5/6+z
35 2/3+x,1/3+x-y,5/6+z
36 2/3-x+y,1/3+y,5/6+z
_cell_length_a                   19.9356(6)
_cell_length_b                   19.9356(6)
_cell_length_c                   50.3772(13)
_cell_angle_alpha                90
_cell_angle_beta                 90
_cell_angle_gamma                120
_cell_volume                     17339
loop_
_atom_site_label
_atom_site_type_symbol
_atom_site_fract_x
_atom_site_fract_y
_atom_site_fract_z
Mn1 Mn 0.14716(3) 0.3333 0.0833
O1 O 0.08743(13) 0.21040(13) 0.09237(5)
N1 N 0.22359(17) 0.31685(17) 0.05434(6)
N2 N 0.06273(28) 0.31081(16) 0.05044(6)
C1 C 0.0187(2) 0.1544(2) 0.09317(7)
N3 N 0.23676(17) 0.25730(17) 0.05952(6)
C2 C 0.24311(19) 0.3348(2) 0.02868(7)
N4 N 0.04963(30) 0.37025(17) 0.04497(6)
C3 C 0.0372(4) 0.2647(2) 0.02881(7)
O2 O -0.04084(13) 0.16097(13) 0.09493(5)
C4 C 0.00875(19) 0.07460(19) 0.09223(7)
H1 H 0.2293 0.2351 0.0747
C5 C 0.2629(2) 0.2375(2) 0.03796(7)
C6 C 0.2401(2) 0.4012(2) 0.01616(7)
C7 C 0.2667(2) 0.2854(2) 0.01750(7)
H2 H 0.0601 0.4078 0.0557
C8 C 0.0183(4) 0.3632(2) 0.02069(8)
C9 C 0.0085(3) 0.2955(2) 0.00965(7)
C10 C 0.0409(4) 0.1918(2) 0.02710(8)
C11 C 0.0737(2) 0.0650(2) 0.09222(7)
C12 C 0.2853(2) 0.1761(2) 0.03913(8)
H3 H 0.1883 0.3927 0.0174
H4 H 0.2548 0.4052 -0.0022
H5 H 0.2750 0.4483 0.0252
C13 C 0.0009(5) 0.4227(3) 0.00986(9)
H6 H 0.0916 0.2022 0.0322
H7 H 0.0304 0.1727 0.0092
H8 H 0.0030 0.1537 0.0388
H9 H 0.1230 0.1085 0.0922
H10 H 0.3401 0.1999 0.0418
H11 H 0.2714 0.1477 0.0228
H12 H 0.2585 0.1415 0.0536
H13 H -0.0487 0.4126 0.0163
H14 H 0.0000 0.4204 -0.0092
H15 H 0.0401 0.4733 0.0155
O1Q O 0.21036(18) 0.45627(13) 0.07430(5)
N2Q N 0.08525(32) 0.35586(16) 0.11623(6)
N1Q N 0.24007(24) 0.34982(17) 0.11233(6)
C1Q C 0.1976(3) 0.5123(2) 0.07350(7)
N4Q N 0.01271(34) 0.29642(17) 0.12170(6)
C3Q C 0.1058(4) 0.4020(2) 0.13786(7)
O2Q O 0.13152(18) 0.50570(13) 0.07174(5)
C4Q C 0.26748(27) 0.59207(19) 0.07444(7)
H2Q H -0.0144 0.2589 0.1110
C8Q C -0.0116(4) 0.3035(2) 0.14598(8)
C10Q C 0.1824(4) 0.4749(2) 0.13957(8)
C9Q C 0.0463(4) 0.3712(2) 0.15702(7)
C11A C -0.0650(2) 0.0087(3) 0.09222(7)
C9S C 0.2955(2) 0.2870(4) -0.00965(7)
C7T C -0.0187(3) 0.2667(2) -0.01750(7)
C11Q C 0.3420(3) 0.6017(2) 0.07445(7)
C11P C 0.2596(2) 0.6580(3) 0.07445(7)
C13Q C -0.0885(6) 0.2440(3) 0.15681(9)
H7Q H 0.1910 0.4940 0.1575
H8Q H 0.1826 0.5130 0.1279
H6Q H 0.2227 0.4645 0.1345
C7AA C 0.0479(2) 0.4000(2) 0.18417(7)
C4B C 0.06585(27) -0.00875(19) 0.09223(7)
C4A C -0.07460(19) -0.06585(27) 0.09223(7)
H9A H -0.1085 0.0145 0.0922
C8S C 0.3632(2) 0.3449(4) -0.02069(8)
C3S C 0.2647(2) 0.2275(4) -0.02881(7)
C2T C -0.09169(28) 0.24311(19) -0.02868(7)
C5T C 0.0254(3) 0.2629(2) -0.03796(7)
H9Q H 0.3478 0.5582 0.0745
C4O C 0.40793(19) 0.67542(19) 0.07444(7)
C4P C 0.32458(19) 0.73252(27) 0.07444(7)
H9P H 0.2103 0.6522 0.0745
H15Q H -0.0999 0.1934 0.1512
H13Q H -0.1280 0.2541 0.1504
H14Q H -0.0871 0.2463 0.1759
C2AA C -0.0015(2) 0.42356(19) 0.19535(7)
C5AA C 0.0958(2) 0.4038(2) 0.20463(7)
C1B C 0.1357(3) -0.0187(2) 0.09317(7)
C11B C -0.0087(3) -0.0737(2) 0.09222(7)
C1A C -0.1544(2) -0.1357(3) 0.09317(7)
N4S N 0.37025(17) 0.32062(34) -0.04497(6)
C13S C 0.4227(3) 0.4218(6) -0.00986(9)
N2S N 0.31081(16) 0.24808(32) -0.05044(6)
C10S C 0.1918(2) 0.1509(4) -0.02710(8)
N1T N -0.09326(24) 0.22359(17) -0.05434(6)
C6T C -0.1611(3) 0.2401(2) -0.01616(7)
N3T N -0.02054(24) 0.23676(17) -0.05952(6)
C12T C 0.1092(3) 0.2853(2) -0.03913(8)
C1O C 0.4877(2) 0.6854(2) 0.07350(7)
C11O C 0.3983(2) 0.7404(2) 0.07445(7)
C1P C 0.3146(2) 0.8024(3) 0.07350(7)
C6AA C -0.0679(2) 0.4266(2) 0.18283(7)
N1AA N 0.01648(17) 0.44308(17) 0.22101(6)
N3AA N 0.07603(17) 0.42991(17) 0.22619(6)
C12AA C 0.1572(2) 0.3814(2) 0.20580(8)
O1B O 0.12297(18) -0.08743(13) 0.09237(5)
O2B O 0.20181(18) 0.04084(13) 0.09493(5)
H9B H -0.0145 -0.1230 0.0922
O1A O -0.21040(13) -0.12297(18) 0.09237(5)
O2A O -0.16097(13) -0.20181(18) 0.09493(5)
H2S H 0.4078 0.3477 -0.0557
H13S H 0.4126 0.4613 -0.0163
H14S H 0.4204 0.4204 0.0092
H15S H 0.4733 0.4332 -0.0155
Mn1S Mn 0.3333 0.18614(3) -0.0833
H6S H 0.2022 0.1106 -0.0322
H7S H 0.1727 0.1423 -0.0092
H8S H 0.1537 0.1507 -0.0388
Mn1T Mn -0.18614(3) 0.14716(3) -0.0833
H3T H -0.2044 0.1883 -0.0174
H4T H -0.1504 0.2548 0.0022
H5T H -0.1733 0.2750 -0.0252
H1T H -0.0058 0.2293 -0.0747
H10T H 0.1402 0.3401 -0.0418
H11T H 0.1237 0.2714 -0.0228
H12T H 0.1170 0.2585 -0.0536
O1O O 0.54373(13) 0.75410(13) 0.07430(5)
O2O O 0.49430(13) 0.62583(13) 0.07174(5)
H9O H 0.4418 0.7897 0.0745
O1P O 0.24590(13) 0.78964(18) 0.07430(5)
O2P O 0.37417(13) 0.86848(18) 0.07174(5)
H4AA H -0.0719 0.4119 0.1645
H3AA H -0.0594 0.4784 0.1841
H5AA H -0.1150 0.3917 0.1919
Mn1EA Mn -0.0000 0.51947(3) 0.2500
H1AA H 0.0982 0.4374 0.2414
H11AA H 0.1856 0.3953 0.1895
H12AA H 0.1918 0.4082 0.2203
H10AA H 0.1334 0.3266 0.2085
Mn1FA Mn 0.48053(3) 0.48049(3) 0.2500
Mn1B Mn 0.18614(3) -0.14716(3) 0.0833
Mn1A Mn -0.3333 -0.18614(3) 0.0833
Mn1A_2 Mn 0.6667 0.81386(3) 0.0833
Mn1B_2 Mn 0.18614(3) 0.85284(3) 0.0833
N1BA N 0.55692(17) 0.57341(24) 0.22101(6)
N2O N 0.64414(16) 0.72940(28) 0.11623(6)
N1O N 0.65018(17) 0.89026(17) 0.11233(6)
O1A_2 O 0.78960(13) 0.87703(18) 0.09237(5)
N2A N 0.68919(16) 0.75192(32) 0.05044(6)
N1A N 0.68315(17) 0.90674(24) 0.05434(6)
N2P N 0.27060(28) 0.91475(32) 0.11623(6)
N1P N 0.10974(17) 0.75993(24) 0.11233(6)
N1B N 0.09326(24) 0.77641(17) 0.05434(6)
O1B_2 O 0.12297(18) 0.91257(13) 0.09237(5)
N2B N 0.24808(32) 0.93727(28) 0.05044(6)
C2BA C 0.57644(19) 0.57498(28) 0.19535(7)
N3BA N 0.57009(17) 0.64613(24) 0.22619(6)
N4O N 0.70358(17) 0.71630(30) 0.12170(6)
C3O C 0.5980(2) 0.7039(4) 0.13786(7)
N4P N 0.28370(30) 0.98729(34) 0.12170(6)
C3P C 0.2961(4) 0.8942(4) 0.13786(7)
N4B N 0.32062(34) 0.95037(30) 0.04497(6)
C3B C 0.2275(4) 0.9628(4) 0.02881(7)
C6BA C 0.5734(2) 0.5056(3) 0.18283(7)
C7BA C 0.6000(2) 0.6480(3) 0.18417(7)
C5BA C 0.5962(2) 0.6921(3) 0.20463(7)
H1BA H 0.5626 0.6609 0.2414
C8O C 0.6965(2) 0.6850(4) 0.14598(8)
H2O H 0.7411 0.7268 0.1110
C9O C 0.6288(2) 0.6752(3) 0.15702(7)
C10O C 0.5251(2) 0.7076(4) 0.13957(8)
C8P C 0.3150(4) 1.0116(4) 0.14598(8)
H2P H 0.2732 1.0144 0.1110
C9P C 0.3248(3) 0.9537(4) 0.15702(7)
C10P C 0.2924(4) 0.8176(4) 0.13957(8)
C8B C 0.3449(4) 0.9817(4) 0.02069(8)
H2B H 0.3477 0.9399 0.0557
C9B C 0.2870(4) 0.9915(3) 0.00965(7)
C10B C 0.1509(4) 0.9591(4) 0.02710(8)
H5BA H 0.6083 0.4934 0.1919
H3BA H 0.5216 0.4623 0.1841
H4BA H 0.5881 0.5163 0.1645
C12BA C 0.6186(2) 0.7759(3) 0.20580(8)
C13O C 0.7560(3) 0.6676(5) 0.15681(9)
H7O H 0.5060 0.6971 0.1575
H6O H 0.5355 0.7583 0.1345
H8O H 0.4870 0.6697 0.1279
C13P C 0.3324(5) 1.0885(6) 0.15681(9)
C7CA C 0.3520(3) 0.9521(2) 0.18417(7)
H6P H 0.2417 0.7773 0.1345
H7P H 0.3029 0.8090 0.1575
H8P H 0.3303 0.8174 0.1279
C13B C 0.4218(6) 0.9991(5) 0.00986(9)
C7S C 0.2854(2) 1.0187(3) -0.01750(7)
H8B H 0.1507 0.9970 0.0388
H6B H 0.1106 0.9084 0.0322
H7B H 0.1423 0.9696 0.0092
H11BA H 0.6047 0.7904 0.1895
H12BA H 0.5918 0.7837 0.2203
H10BA H 0.6734 0.8069 0.2085
H14O H 0.7537 0.6667 0.1759
H15O H 0.8066 0.7068 0.1512
H13O H 0.7459 0.6180 0.1504
H14P H 0.3333 1.0871 0.1759
H15P H 0.2932 1.0999 0.1512
H13P H 0.3820 1.1280 0.1504
C2CA C 0.42502(28) 1.0015(2) 0.19535(7)
C5CA C 0.3079(3) 0.9042(2) 0.20463(7)
H13B H 0.4613 1.0487 0.0163
H14B H 0.4204 1.0000 -0.0092
H15B H 0.4332 0.9599 0.0155
C5S C 0.2375(2) 0.9746(3) -0.03796(7)
C2S C 0.3348(2) 1.09169(28) -0.02868(7)
N1CA N 0.42659(24) 0.98352(17) 0.22101(6)
C6CA C 0.4944(3) 1.0679(2) 0.18283(7)
C12CA C 0.2241(3) 0.8428(2) 0.20580(8)
N3CA N 0.35387(24) 0.92397(17) 0.22619(6)
C12S C 0.1761(2) 0.8908(3) -0.03913(8)
N3S N 0.25730(17) 1.02054(24) -0.05952(6)
C6S C 0.4012(2) 1.1611(3) -0.01616(7)
N1S N 0.31685(17) 1.09326(24) -0.05434(6)
Mn1DA Mn 0.51951(3) 1.0000 0.2500
H4CA H 0.4837 1.0719 0.1645
H3CA H 0.5377 1.0594 0.1841
H5CA H 0.5066 1.1150 0.1919
H10CA H 0.1931 0.8666 0.2085
H11CA H 0.2096 0.8144 0.1895
H12CA H 0.2163 0.8082 0.2203
H1CA H 0.3391 0.9018 0.2414
H10S H 0.1999 0.8598 -0.0418
H11S H 0.1477 0.8763 -0.0228
H12S H 0.1415 0.8830 -0.0536
H1S H 0.2351 1.0058 -0.0747
H4S H 0.4052 1.1504 0.0022
H5S H 0.4483 1.1733 -0.0252
H3S H 0.3927 1.2044 -0.0174
Mn1S_2 Mn 0.3333 1.18614(3) -0.0833
loop_
_geom_bond_atom_site_label_1
_geom_bond_atom_site_label_2
_geom_bond_site_symmetry_1
_geom_bond_site_symmetry_2
Mn1 O1 1_555 1_555
O1 C1 1_555 1_555
N1 Mn1 1_555 1_555
N2 Mn1 1_555 1_555
C1 O2 1_555 1_555
N3 N1 1_555 1_555
C2 N1 1_555 1_555
N4 N2 1_555 1_555
C3 N2 1_555 1_555
C4 C1 1_555 1_555
H1 N3 1_555 1_555
C5 N3 1_555 1_555
C6 C2 1_555 1_555
C7 C2 1_555 1_555
H2 N4 1_555 1_555
C8 N4 1_555 1_555
C9 C3 1_555 1_555
C10 C3 1_555 1_555
C11 C4 1_555 1_555
C12 C5 1_555 1_555
H3 C6 1_555 1_555
H4 C6 1_555 1_555
H5 C6 1_555 1_555
C13 C8 1_555 1_555
H6 C10 1_555 1_555
H7 C10 1_555 1_555
H8 C10 1_555 1_555
H9 C11 1_555 1_555
H10 C12 1_555 1_555
H11 C12 1_555 1_555
H12 C12 1_555 1_555
H13 C13 1_555 1_555
H14 C13 1_555 1_555
H15 C13 1_555 1_555
O1Q Mn1 1_555 1_555
N2Q Mn1 1_555 1_555
N1Q Mn1 1_555 1_555
C1Q O1Q 1_555 1_555
N4Q N2Q 1_555 1_555
C3Q N2Q 1_555 1_555
O2Q C1Q 1_555 1_555
C4Q C1Q 1_555 1_555
H2Q N4Q 1_555 1_555
C8Q N4Q 1_555 1_555
C10Q C3Q 1_555 1_555
C9Q C3Q 1_555 1_555
C11A C4 1_555 1_555
C9S C7 1_555 1_555
C7T C9 1_555 1_555
C11Q C4Q 1_555 1_555
C11P C4Q 1_555 1_555
C13Q C8Q 1_555 1_555
H7Q C10Q 1_555 1_555
H8Q C10Q 1_555 1_555
H6Q C10Q 1_555 1_555
C7AA C9Q 1_555 1_555
C4B C11 1_555 1_555
C4A C11A 1_555 1_555
H9A C11A 1_555 1_555
C8S C9S 1_555 1_555
C3S C9S 1_555 1_555
C2T C7T 1_555 1_555
C5T C7T 1_555 1_555
H9Q C11Q 1_555 1_555
C4O C11Q 1_555 1_555
C4P C11P 1_555 1_555
H9P C11P 1_555 1_555
H15Q C13Q 1_555 1_555
H13Q C13Q 1_555 1_555
H14Q C13Q 1_555 1_555
C2AA C7AA 1_555 1_555
C5AA C7AA 1_555 1_555
C1B C4B 1_555 1_555
C11B C4B 1_555 1_555
C1A C4A 1_555 1_555
N4S C8S 1_555 1_555
C13S C8S 1_555 1_555
N2S C3S 1_555 1_555
C10S C3S 1_555 1_555
N1T C2T 1_555 1_555
C6T C2T 1_555 1_555
N3T C5T 1_555 1_555
C12T C5T 1_555 1_555
C1O C4O 1_555 1_555
C11O C4O 1_555 1_555
C1P C4P 1_555 1_555
C6AA C2AA 1_555 1_555
N1AA C2AA 1_555 1_555
N3AA C5AA 1_555 1_555
C12AA C5AA 1_555 1_555
O1B C1B 1_555 1_555
O2B C1B 1_555 1_555
H9B C11B 1_555 1_555
O1A C1A 1_555 1_555
O2A C1A 1_555 1_555
H2S N4S 1_555 1_555
H13S C13S 1_555 1_555
H14S C13S 1_555 1_555
H15S C13S 1_555 1_555
Mn1S N2S 1_555 1_555
H6S C10S 1_555 1_555
H7S C10S 1_555 1_555
H8S C10S 1_555 1_555
Mn1T N1T 1_555 1_555
H3T C6T 1_555 1_555
H4T C6T 1_555 1_555
H5T C6T 1_555 1_555
H1T N3T 1_555 1_555
H10T C12T 1_555 1_555
H11T C12T 1_555 1_555
H12T C12T 1_555 1_555
O1O C1O 1_555 1_555
O2O C1O 1_555 1_555
H9O C11O 1_555 1_555
O1P C1P 1_555 1_555
O2P C1P 1_555 1_555
H4AA C6AA 1_555 1_555
H3AA C6AA 1_555 1_555
H5AA C6AA 1_555 1_555
Mn1EA N1AA 1_555 1_555
H1AA N3AA 1_555 1_555
H11AA C12AA 1_555 1_555
H12AA C12AA 1_555 1_555
H10AA C12AA 1_555 1_555
Mn1FA N1BA 1_555 1_555
Mn1B O1B 1_555 1_555
Mn1A O1A 1_555 1_555
Mn1A_2 O1O 1_555 1_555
Mn1B_2 O1P 1_555 1_555
N1BA C2BA 1_555 1_555
N2O Mn1A_2 1_555 1_555
N1O Mn1A_2 1_555 1_555
O1A_2 Mn1A_2 1_555 1_555
N2A Mn1A_2 1_555 1_555
N1A Mn1A_2 1_555 1_555
N2P Mn1B_2 1_555 1_555
N1P Mn1B_2 1_555 1_555
N1B Mn1B_2 1_555 1_555
O1B_2 Mn1B_2 1_555 1_555
N2B Mn1B_2 1_555 1_555
C2BA C6BA 1_555 1_555
N3BA N1BA 1_555 1_555
N4O N2O 1_555 1_555
C3O N2O 1_555 1_555
N4P N2P 1_555 1_555
C3P N2P 1_555 1_555
N4B N2B 1_555 1_555
C3B N2B 1_555 1_555
C6BA H5BA 1_555 1_555
C7BA C2BA 1_555 1_555
C5BA N3BA 1_555 1_555
H1BA N3BA 1_555 1_555
C8O N4O 1_555 1_555
H2O N4O 1_555 1_555
C9O C3O 1_555 1_555
C10O C3O 1_555 1_555
C8P N4P 1_555 1_555
H2P N4P 1_555 1_555
C9P C3P 1_555 1_555
C10P C3P 1_555 1_555
C8B N4B 1_555 1_555
H2B N4B 1_555 1_555
C9B C3B 1_555 1_555
C10B C3B 1_555 1_555
H3BA C6BA 1_555 1_555
H4BA C6BA 1_555 1_555
C12BA C5BA 1_555 1_555
C13O C8O 1_555 1_555
H7O C10O 1_555 1_555
H6O C10O 1_555 1_555
H8O C10O 1_555 1_555
C13P C8P 1_555 1_555
C7CA C9P 1_555 1_555
H6P C10P 1_555 1_555
H7P C10P 1_555 1_555
H8P C10P 1_555 1_555
C13B C8B 1_555 1_555
C7S C9B 1_555 1_555
H8B C10B 1_555 1_555
H6B C10B 1_555 1_555
H7B C10B 1_555 1_555
H11BA C12BA 1_555 1_555
H12BA C12BA 1_555 1_555
H10BA C12BA 1_555 1_555
H14O C13O 1_555 1_555
H15O C13O 1_555 1_555
H13O C13O 1_555 1_555
H14P C13P 1_555 1_555
H15P C13P 1_555 1_555
H13P C13P 1_555 1_555
C2CA C7CA 1_555 1_555
C5CA C7CA 1_555 1_555
H13B C13B 1_555 1_555
H14B C13B 1_555 1_555
H15B C13B 1_555 1_555
C5S C7S 1_555 1_555
C2S C7S 1_555 1_555
N1CA C2CA 1_555 1_555
C6CA C2CA 1_555 1_555
C12CA C5CA 1_555 1_555
N3CA C5CA 1_555 1_555
C12S C5S 1_555 1_555
N3S C5S 1_555 1_555
C6S C2S 1_555 1_555
N1S C2S 1_555 1_555
Mn1DA N1CA 1_555 1_555
H4CA C6CA 1_555 1_555
H3CA C6CA 1_555 1_555
H5CA C6CA 1_555 1_555
H10CA C12CA 1_555 1_555
H11CA C12CA 1_555 1_555
H12CA C12CA 1_555 1_555
H1CA N3CA 1_555 1_555
H10S C12S 1_555 1_555
H11S C12S 1_555 1_555
H12S C12S 1_555 1_555
H1S N3S 1_555 1_555
H4S C6S 1_555 1_555
H5S C6S 1_555 1_555
H3S C6S 1_555 1_555
Mn1S_2 N1S 1_555 1_555
C5 C7 1_555 1_555
C8 C9 1_555 1_555
C8Q C9Q 1_555 1_555
C4A C11B 1_555 1_555
C4P C11O 1_555 1_555
N4S N2S 1_555 1_555
N1T N3T 1_555 1_555
N1AA N3AA 1_555 1_555
C7BA C5BA 1_555 1_555
C7BA C9O 1_555 1_555
C8O C9O 1_555 1_555
C8P C9P 1_555 1_555
C8B C9B 1_555 1_555
N1CA N3CA 1_555 1_555
N3S N1S 1_555 1_555

#END
