
#######################################################################
#
#                 Cambridge Crystallographic Data Centre
#                                CCDC 
#
#######################################################################
#
# If this CIF has been generated from an entry in the Cambridge 
# Structural Database, then it will include bibliographic, chemical, 
# crystal, experimental, refinement or atomic coordinate data resulting 
# from the CCDC's data processing and validation procedures.
#
#######################################################################

data_LUKHOQ
_chemical_formula_moiety         '(C78 H90 N24 Ni3 O12)n'
_symmetry_cell_setting           rhombohedral
_symmetry_space_group_name_H-M   'R -3 c'
_symmetry_Int_Tables_number      167
_space_group_name_Hall           '-R 3 2"c'
loop_
_symmetry_equiv_pos_site_id
_symmetry_equiv_pos_as_xyz
1 x,y,z
2 -y,x-y,z
3 -x+y,-x,z
4 y,x,1/2-z
5 -x,-x+y,1/2-z
6 x-y,-y,1/2-z
7 2/3+x,1/3+y,1/3+z
8 2/3-y,1/3+x-y,1/3+z
9 2/3-x+y,1/3-x,1/3+z
10 2/3+y,1/3+x,5/6-z
11 2/3-x,1/3-x+y,5/6-z
12 2/3+x-y,1/3-y,5/6-z
13 1/3+x,2/3+y,2/3+z
14 1/3-y,2/3+x-y,2/3+z
15 1/3-x+y,2/3-x,2/3+z
16 1/3+y,2/3+x,1/6-z
17 1/3-x,2/3-x+y,1/6-z
18 1/3+x-y,2/3-y,1/6-z
19 -x,-y,-z
20 y,-x+y,-z
21 x-y,x,-z
22 -y,-x,1/2+z
23 x,x-y,1/2+z
24 -x+y,y,1/2+z
25 1/3-x,2/3-y,2/3-z
26 1/3+y,2/3-x+y,2/3-z
27 1/3+x-y,2/3+x,2/3-z
28 1/3-y,2/3-x,1/6+z
29 1/3+x,2/3+x-y,1/6+z
30 1/3-x+y,2/3+y,1/6+z
31 2/3-x,1/3-y,1/3-z
32 2/3+y,1/3-x+y,1/3-z
33 2/3+x-y,1/3+x,1/3-z
34 2/3-y,1/3-x,5/6+z
35 2/3+x,1/3+x-y,5/6+z
36 2/3-x+y,1/3+y,5/6+z
_cell_length_a                   19.6880(15)
_cell_length_b                   19.6880(15)
_cell_length_c                   48.637(5)
_cell_angle_alpha                90
_cell_angle_beta                 90
_cell_angle_gamma                120
_cell_volume                     16326.8
loop_
_atom_site_label
_atom_site_type_symbol
_atom_site_fract_x
_atom_site_fract_y
_atom_site_fract_z
Ni1 Ni 0.14439(2) 0.3333 0.0833
O1 O 0.09007(10) 0.21306(10) 0.09257(4)
O2 O -0.04042(11) 0.16307(11) 0.09412(4)
N1 N 0.39413(13) 0.41784(18) 0.21934(4)
N2 N 0.23069(12) 0.35010(13) 0.11215(4)
N3 N 0.37550(14) 0.34349(19) 0.21445(5)
H1 H 0.3848 0.3148 0.2260
N4 N 0.30501(13) 0.40912(13) 0.10667(5)
H2 H 0.3200 0.4327 0.0906
C1 C 0.02077(15) 0.15711(15) 0.09363(5)
C2 C 0.00986(15) 0.07549(15) 0.09369(5)
C3 C -0.06518(15) 0.00975(15) 0.09365(5)
H3 H -0.1088 0.0163 0.0936
C4 C 0.43690(18) 0.48809(19) 0.12735(7)
H4 H 0.4674 0.4630 0.1245
H5 H 0.4525 0.5170 0.1443
H6 H 0.4454 0.5233 0.1124
C5 C 0.35282(17) 0.42799(16) 0.12875(6)
C6 C 0.30715(16) 0.37922(16) 0.14992(5)
C7 C 0.23208(16) 0.33101(16) 0.13835(5)
C8 C 0.16219(17) 0.26460(17) 0.15157(6)
H7 H 0.1174 0.2709 0.1489
H8 H 0.1717 0.2640 0.1709
H9 H 0.1524 0.2161 0.1435
C9 C 0.37380(18) 0.51816(25) 0.19446(6)
H10 H 0.4246 0.5584 0.2004
H11 H 0.3660 0.5271 0.1756
H12 H 0.3342 0.5192 0.2057
C10 C 0.36837(16) 0.44004(23) 0.19705(5)
C11 C 0.33494(16) 0.37770(16) 0.17782(5)
C12 C 0.34087(17) 0.31720(23) 0.19004(6)
C13 C 0.3163(2) 0.2367(3) 0.17995(7)
H13 H 0.2674 0.1998 0.1884
H14 H 0.3100 0.2349 0.1604
H15 H 0.3557 0.2235 0.1847
O1A O -0.21306(10) -0.12299(14) 0.09257(4)
O2A O -0.16307(11) -0.20349(16) 0.09412(4)
C1A C -0.15711(15) -0.13634(21) 0.09363(5)
C2A C -0.07549(15) -0.06563(21) 0.09369(5)
C3A C -0.00975(15) -0.07493(21) 0.09365(5)
H3A H -0.0163 -0.1251 0.0936
O1B O 0.12299(14) -0.09007(10) 0.09257(4)
O2B O 0.20349(16) 0.04042(11) 0.09412(4)
C1B C 0.13634(21) -0.02077(15) 0.09363(5)
C2B C 0.06563(21) -0.00986(15) 0.09369(5)
C3B C 0.07493(21) 0.06518(15) 0.09365(5)
H3B H 0.1251 0.1088 0.0936
Ni1A Ni -0.3333 -0.18891(2) 0.0833
N1A N -0.41784(18) -0.02371(22) 0.21934(4)
N2A N -0.35010(13) -0.11941(18) 0.11215(4)
N3A N -0.34349(19) 0.03201(24) 0.21445(5)
H1A H -0.3148 0.0700 0.2260
N4A N -0.40912(13) -0.10411(18) 0.10667(5)
H2A H -0.4327 -0.1127 0.0906
C4A C -0.48809(19) -0.05119(26) 0.12735(7)
H4A H -0.4630 0.0044 0.1245
H5A H -0.5170 -0.0645 0.1443
H6A H -0.5233 -0.0779 0.1124
C5A C -0.42799(16) -0.07517(23) 0.12875(6)
C6A C -0.37922(16) -0.07207(23) 0.14992(5)
C7A C -0.33101(16) -0.09893(23) 0.13835(5)
C8A C -0.26460(17) -0.10241(24) 0.15157(6)
H7A H -0.2709 -0.1535 0.1489
H8A H -0.2640 -0.0923 0.1709
H9A H -0.2161 -0.0637 0.1435
C9A C -0.51816(25) -0.14436(31) 0.19446(6)
H10A H -0.5584 -0.1338 0.2004
H11A H -0.5271 -0.1611 0.1756
H12A H -0.5192 -0.1850 0.2057
C10A C -0.44004(23) -0.07167(28) 0.19705(5)
C11A C -0.37770(16) -0.04276(23) 0.17782(5)
C12A C -0.31720(23) 0.02367(29) 0.19004(6)
C13A C -0.2367(3) 0.0796(4) 0.17995(7)
H13A H -0.1998 0.0676 0.1884
H14A H -0.2349 0.0751 0.1604
H15A H -0.2235 0.1322 0.1847
Ni1B Ni 0.18891(2) -0.14439(2) 0.0833
N1B N 0.02371(22) -0.39413(13) 0.21934(4)
N2B N 0.11941(18) -0.23069(12) 0.11215(4)
N3B N -0.03201(24) -0.37550(14) 0.21445(5)
H1B H -0.0700 -0.3848 0.2260
N4B N 0.10411(18) -0.30501(13) 0.10667(5)
H2B H 0.1127 -0.3200 0.0906
C4B C 0.05119(26) -0.43690(18) 0.12735(7)
H4B H -0.0044 -0.4674 0.1245
H5B H 0.0645 -0.4525 0.1443
H6B H 0.0779 -0.4454 0.1124
C5B C 0.07517(23) -0.35282(17) 0.12875(6)
C6B C 0.07207(23) -0.30715(16) 0.14992(5)
C7B C 0.09893(23) -0.23208(16) 0.13835(5)
C8B C 0.10241(24) -0.16219(17) 0.15157(6)
H7B H 0.1535 -0.1174 0.1489
H8B H 0.0923 -0.1717 0.1709
H9B H 0.0637 -0.1524 0.1435
C9B C 0.14436(31) -0.37380(18) 0.19446(6)
H10B H 0.1338 -0.4246 0.2004
H11B H 0.1611 -0.3660 0.1756
H12B H 0.1850 -0.3342 0.2057
C10B C 0.07167(28) -0.36837(16) 0.19705(5)
C11B C 0.04276(23) -0.33494(16) 0.17782(5)
C12B C -0.02367(29) -0.34087(17) 0.19004(6)
C13B C -0.0796(4) -0.3163(2) 0.17995(7)
H13B H -0.0676 -0.2674 0.1884
H14B H -0.0751 -0.3100 0.1604
H15B H -0.1322 -0.3557 0.1847
N1EA N 0.08451(18) 0.35704(22) 0.11399(4)
N2EA N 0.01677(13) 0.45274(18) 0.22118(4)
N3EA N 0.01016(19) 0.30132(24) 0.11888(5)
H1EA H -0.0185 0.2633 0.1073
N4EA N 0.07579(13) 0.43744(18) 0.22666(5)
H2EA H 0.0994 0.4460 0.2427
C4EA C 0.15476(19) 0.38452(26) 0.20598(7)
H4EA H 0.1297 0.3289 0.2088
H5EA H 0.1837 0.3978 0.1890
H6EA H 0.1900 0.4112 0.2209
C5EA C 0.09466(16) 0.40850(23) 0.20458(6)
C6EA C 0.04589(16) 0.40540(23) 0.18341(5)
C7EA C -0.00232(16) 0.43226(23) 0.19498(5)
C8EA C -0.06873(17) 0.43574(24) 0.18176(6)
H7EA H -0.0624 0.4868 0.1844
H8EA H -0.0693 0.4256 0.1624
H9EA H -0.1172 0.3970 0.1898
C9EA C 0.18483(25) 0.47769(31) 0.13887(6)
H10EA H 0.2251 0.4671 0.1329
H11EA H 0.1938 0.4944 0.1577
H12EA H 0.1859 0.5183 0.1276
C10EA C 0.10671(23) 0.40500(28) 0.13628(5)
C11EA C 0.04437(16) 0.37609(23) 0.15551(5)
C12EA C -0.01613(23) 0.30966(29) 0.14329(6)
C13EA C -0.0966(3) 0.2537(4) 0.15338(7)
H13EA H -0.1335 0.2657 0.1449
H14EA H -0.0984 0.2582 0.1729
H15EA H -0.1098 0.2011 0.1486
N1FA N -0.35704(22) -0.27254(13) 0.11399(4)
N2FA N -0.45274(18) -0.43598(12) 0.22118(4)
N3FA N -0.30132(24) -0.29117(14) 0.11888(5)
H1FA H -0.2633 -0.2819 0.1073
N4FA N -0.43744(18) -0.36166(13) 0.22666(5)
H2FA H -0.4460 -0.3467 0.2427
C4FA C -0.38452(26) -0.22977(18) 0.20598(7)
H4FA H -0.3289 -0.1993 0.2088
H5FA H -0.3978 -0.2142 0.1890
H6FA H -0.4112 -0.2213 0.2209
C5FA C -0.40850(23) -0.31385(17) 0.20458(6)
C6FA C -0.40540(23) -0.35952(16) 0.18341(5)
C7FA C -0.43226(23) -0.43459(16) 0.19498(5)
C8FA C -0.43574(24) -0.50448(17) 0.18176(6)
H7FA H -0.4868 -0.5493 0.1844
H8FA H -0.4256 -0.4950 0.1624
H9FA H -0.3970 -0.5143 0.1898
C9FA C -0.47769(31) -0.29287(18) 0.13887(6)
H10FA H -0.4671 -0.2421 0.1329
H11FA H -0.4944 -0.3007 0.1577
H12FA H -0.5183 -0.3325 0.1276
C10FA C -0.40500(28) -0.29830(16) 0.13628(5)
C11FA C -0.37609(23) -0.33173(16) 0.15551(5)
C12FA C -0.30966(29) -0.32580(17) 0.14329(6)
C13FA C -0.2537(4) -0.3504(2) 0.15338(7)
H13FA H -0.2657 -0.3993 0.1449
H14FA H -0.2582 -0.3567 0.1729
H15FA H -0.2011 -0.3110 0.1486
N1HA N 0.06080(13) 0.30962(22) 0.05267(4)
N2HA N -0.10264(12) 0.21392(18) -0.05452(4)
N3HA N 0.04217(14) 0.36534(24) 0.04778(5)
H1HA H 0.0515 0.4033 0.0593
N4HA N -0.02832(13) 0.22922(18) -0.06000(5)
H2HA H -0.0133 0.2206 -0.0761
C4HA C 0.10357(18) 0.28214(26) -0.03932(7)
H4HA H 0.1341 0.3377 -0.0422
H5HA H 0.1192 0.2688 -0.0224
H6HA H 0.1121 0.2554 -0.0543
C5HA C 0.01949(17) 0.25816(23) -0.03792(6)
C6HA C -0.02618(16) 0.26126(23) -0.01675(5)
C7HA C -0.10125(16) 0.23440(23) -0.02832(5)
C8HA C -0.17114(17) 0.23092(24) -0.01510(6)
H7HA H -0.2159 0.1798 -0.0178
H8HA H -0.1616 0.2410 0.0042
H9HA H -0.1809 0.2696 -0.0232
C9HA C 0.04047(18) 0.18897(31) 0.02779(6)
H10HA H 0.0913 0.1995 0.0337
H11HA H 0.0327 0.1722 0.0089
H12HA H 0.0009 0.1483 0.0390
C10HA C 0.03504(16) 0.26166(28) 0.03038(5)
C11HA C 0.00161(16) 0.29057(23) 0.01115(5)
C12HA C 0.00754(17) 0.35700(29) 0.02337(6)
C13HA C -0.0170(2) 0.4129(4) 0.01328(7)
H13HA H -0.0659 0.4009 0.0217
H14HA H -0.0233 0.4084 -0.0063
H15HA H 0.0224 0.4655 0.0180
O1Q O 0.21034(14) 0.45361(10) 0.07410(4)
O2Q O 0.12984(16) 0.50360(11) 0.07255(4)
C1Q C 0.19699(21) 0.50956(15) 0.07304(5)
C2Q C 0.26770(21) 0.59118(15) 0.07298(5)
C3Q C 0.25840(21) 0.65692(15) 0.07302(5)
H3Q H 0.2082 0.6504 0.0731
O1P O 0.24326(10) 0.78966(14) 0.07410(4)
O2P O 0.37375(11) 0.87016(16) 0.07255(4)
C1P C 0.31256(15) 0.80301(21) 0.07304(5)
C2P C 0.32347(15) 0.73230(21) 0.07298(5)
C3P C 0.39851(15) 0.74160(21) 0.07302(5)
H3P H 0.4421 0.7918 0.0731
O1O O 0.54639(10) 0.75674(10) 0.07410(4)
O2O O 0.49640(11) 0.62625(11) 0.07255(4)
C1O C 0.49044(15) 0.68744(15) 0.07304(5)
C2O C 0.40882(15) 0.67653(15) 0.07298(5)
C3O C 0.34308(15) 0.60149(15) 0.07302(5)
H3O H 0.3496 0.5579 0.0731
Ni1A_2 Ni 0.6667 0.81109(2) 0.0833
Ni1B_2 Ni 0.18891(2) 0.85561(2) 0.0833
Ni1T Ni -0.18891(2) 0.14439(2) -0.0833
Ni1DA Ni -0.47772(2) 0.0000 0.2500
Ni1EA Ni -0.0000 -0.47776(2) 0.2500
Ni1EA_2 Ni -0.0000 0.52224(2) 0.2500
Ni1FA Ni -0.52224(2) -0.52228(2) 0.2500
Ni1FA_2 Ni 0.47776(2) 0.47772(2) 0.2500
O1O_2 O -0.45361(10) -0.24326(10) 0.07410(4)
O1P_2 O 0.24326(10) -0.21034(14) 0.07410(4)
N1DA N 0.27254(13) -0.08451(18) 0.11399(4)
N1GA N 0.24883(18) -0.06080(13) 0.05267(4)
N1IA N -0.30962(22) -0.24883(18) 0.05267(4)
N2O N -0.31657(13) -0.10264(12) 0.05452(4)
N2P N 0.10264(12) -0.21392(18) 0.05452(4)
N2Q N 0.21392(18) 0.31657(13) 0.05452(4)
loop_
_geom_bond_atom_site_label_1
_geom_bond_atom_site_label_2
_geom_bond_site_symmetry_1
_geom_bond_site_symmetry_2
Ni1 O1 1_555 1_555
O1 C1 1_555 1_555
O2 C1 1_555 1_555
N1 N3 1_555 1_555
N2 Ni1 1_555 1_555
N3 H1 1_555 1_555
N4 N2 1_555 1_555
H2 N4 1_555 1_555
C1 C2 1_555 1_555
C2 C3 1_555 1_555
C3 H3 1_555 1_555
C4 H4 1_555 1_555
H5 C4 1_555 1_555
H6 C4 1_555 1_555
C5 N4 1_555 1_555
C6 C5 1_555 1_555
C7 N2 1_555 1_555
C8 C7 1_555 1_555
H7 C8 1_555 1_555
H8 C8 1_555 1_555
H9 C8 1_555 1_555
C9 H10 1_555 1_555
H11 C9 1_555 1_555
H12 C9 1_555 1_555
C10 N1 1_555 1_555
C11 C6 1_555 1_555
C12 N3 1_555 1_555
C13 C12 1_555 1_555
H13 C13 1_555 1_555
H14 C13 1_555 1_555
H15 C13 1_555 1_555
O1A C1A 1_555 1_555
O2A C1A 1_555 1_555
C1A C2A 1_555 1_555
C2A C3 1_555 1_555
C3A C2A 1_555 1_555
H3A C3A 1_555 1_555
O1B C1B 1_555 1_555
O2B C1B 1_555 1_555
C1B C2B 1_555 1_555
C2B C3A 1_555 1_555
C3B C2 1_555 1_555
H3B C3B 1_555 1_555
Ni1A O1A 1_555 1_555
N1A N3A 1_555 1_555
N2A Ni1A 1_555 1_555
N3A H1A 1_555 1_555
N4A N2A 1_555 1_555
H2A N4A 1_555 1_555
C4A H4A 1_555 1_555
H5A C4A 1_555 1_555
H6A C4A 1_555 1_555
C5A N4A 1_555 1_555
C6A C5A 1_555 1_555
C7A N2A 1_555 1_555
C8A C7A 1_555 1_555
H7A C8A 1_555 1_555
H8A C8A 1_555 1_555
H9A C8A 1_555 1_555
C9A H10A 1_555 1_555
H11A C9A 1_555 1_555
H12A C9A 1_555 1_555
C10A N1A 1_555 1_555
C11A C6A 1_555 1_555
C12A N3A 1_555 1_555
C13A C12A 1_555 1_555
H13A C13A 1_555 1_555
H14A C13A 1_555 1_555
H15A C13A 1_555 1_555
Ni1B O1B 1_555 1_555
N1B N3B 1_555 1_555
N2B Ni1B 1_555 1_555
N3B H1B 1_555 1_555
N4B N2B 1_555 1_555
H2B N4B 1_555 1_555
C4B H4B 1_555 1_555
H5B C4B 1_555 1_555
H6B C4B 1_555 1_555
C5B N4B 1_555 1_555
C6B C5B 1_555 1_555
C7B N2B 1_555 1_555
C8B C7B 1_555 1_555
H7B C8B 1_555 1_555
H8B C8B 1_555 1_555
H9B C8B 1_555 1_555
C9B H10B 1_555 1_555
H11B C9B 1_555 1_555
H12B C9B 1_555 1_555
C10B N1B 1_555 1_555
C11B C6B 1_555 1_555
C12B N3B 1_555 1_555
C13B C12B 1_555 1_555
H13B C13B 1_555 1_555
H14B C13B 1_555 1_555
H15B C13B 1_555 1_555
N1EA Ni1 1_555 1_555
N2EA N4EA 1_555 1_555
N3EA N1EA 1_555 1_555
H1EA N3EA 1_555 1_555
N4EA H2EA 1_555 1_555
C4EA H4EA 1_555 1_555
H5EA C4EA 1_555 1_555
H6EA C4EA 1_555 1_555
C5EA N4EA 1_555 1_555
C6EA C5EA 1_555 1_555
C7EA N2EA 1_555 1_555
C8EA C7EA 1_555 1_555
H7EA C8EA 1_555 1_555
H8EA C8EA 1_555 1_555
H9EA C8EA 1_555 1_555
C9EA H10EA 1_555 1_555
H11EA C9EA 1_555 1_555
H12EA C9EA 1_555 1_555
C10EA N1EA 1_555 1_555
C11EA C6EA 1_555 1_555
C12EA N3EA 1_555 1_555
C13EA C12EA 1_555 1_555
H13EA C13EA 1_555 1_555
H14EA C13EA 1_555 1_555
H15EA C13EA 1_555 1_555
N1FA Ni1A 1_555 1_555
N2FA N4FA 1_555 1_555
N3FA N1FA 1_555 1_555
H1FA N3FA 1_555 1_555
N4FA H2FA 1_555 1_555
C4FA H4FA 1_555 1_555
H5FA C4FA 1_555 1_555
H6FA C4FA 1_555 1_555
C5FA N4FA 1_555 1_555
C6FA C5FA 1_555 1_555
C7FA N2FA 1_555 1_555
C8FA C7FA 1_555 1_555
H7FA C8FA 1_555 1_555
H8FA C8FA 1_555 1_555
H9FA C8FA 1_555 1_555
C9FA H10FA 1_555 1_555
H11FA C9FA 1_555 1_555
H12FA C9FA 1_555 1_555
C10FA N1FA 1_555 1_555
C11FA C6FA 1_555 1_555
C12FA N3FA 1_555 1_555
C13FA C12FA 1_555 1_555
H13FA C13FA 1_555 1_555
H14FA C13FA 1_555 1_555
H15FA C13FA 1_555 1_555
N1HA Ni1 1_555 1_555
N2HA N4HA 1_555 1_555
N3HA N1HA 1_555 1_555
H1HA N3HA 1_555 1_555
N4HA H2HA 1_555 1_555
C4HA H4HA 1_555 1_555
H5HA C4HA 1_555 1_555
H6HA C4HA 1_555 1_555
C5HA N4HA 1_555 1_555
C6HA C5HA 1_555 1_555
C7HA N2HA 1_555 1_555
C8HA C7HA 1_555 1_555
H7HA C8HA 1_555 1_555
H8HA C8HA 1_555 1_555
H9HA C8HA 1_555 1_555
C9HA H10HA 1_555 1_555
H11HA C9HA 1_555 1_555
H12HA C9HA 1_555 1_555
C10HA N1HA 1_555 1_555
C11HA C6HA 1_555 1_555
C12HA N3HA 1_555 1_555
C13HA C12HA 1_555 1_555
H13HA C13HA 1_555 1_555
H14HA C13HA 1_555 1_555
H15HA C13HA 1_555 1_555
O1Q Ni1 1_555 1_555
O2Q C1Q 1_555 1_555
C1Q O1Q 1_555 1_555
C2Q C1Q 1_555 1_555
C3Q C2Q 1_555 1_555
H3Q C3Q 1_555 1_555
O1P C1P 1_555 1_555
O2P C1P 1_555 1_555
C1P C2P 1_555 1_555
C2P C3Q 1_555 1_555
C3P C2P 1_555 1_555
H3P C3P 1_555 1_555
O1O C1O 1_555 1_555
O2O C1O 1_555 1_555
C1O C2O 1_555 1_555
C2O C3P 1_555 1_555
C3O C2Q 1_555 1_555
H3O C3O 1_555 1_555
Ni1A_2 O1O 1_555 1_555
Ni1B_2 O1P 1_555 1_555
Ni1T N2HA 1_555 1_555
Ni1DA N1A 1_555 1_555
Ni1EA N1B 1_555 1_555
Ni1EA_2 N2EA 1_555 1_555
Ni1FA N2FA 1_555 1_555
Ni1FA_2 N1 1_555 1_555
O1O_2 Ni1A 1_555 1_555
O1P_2 Ni1B 1_555 1_555
N1DA Ni1B 1_555 1_555
N1GA Ni1B 1_555 1_555
N1IA Ni1A 1_555 1_555
N2O Ni1A 1_555 1_555
N2P Ni1B 1_555 1_555
N2Q Ni1 1_555 1_555
C4 C5 1_555 1_555
C6 C7 1_555 1_555
C9 C10 1_555 1_555
C10 C11 1_555 1_555
C11 C12 1_555 1_555
C2B C3B 1_555 1_555
C4A C5A 1_555 1_555
C6A C7A 1_555 1_555
C9A C10A 1_555 1_555
C10A C11A 1_555 1_555
C11A C12A 1_555 1_555
C4B C5B 1_555 1_555
C6B C7B 1_555 1_555
C9B C10B 1_555 1_555
C10B C11B 1_555 1_555
C11B C12B 1_555 1_555
C4EA C5EA 1_555 1_555
C6EA C7EA 1_555 1_555
C9EA C10EA 1_555 1_555
C10EA C11EA 1_555 1_555
C11EA C12EA 1_555 1_555
C4FA C5FA 1_555 1_555
C6FA C7FA 1_555 1_555
C9FA C10FA 1_555 1_555
C10FA C11FA 1_555 1_555
C11FA C12FA 1_555 1_555
C4HA C5HA 1_555 1_555
C6HA C7HA 1_555 1_555
C9HA C10HA 1_555 1_555
C10HA C11HA 1_555 1_555
C11HA C12HA 1_555 1_555
C2O C3O 1_555 1_555

#END
