
#######################################################################
#
#                 Cambridge Crystallographic Data Centre
#                                CCDC 
#
#######################################################################
#
# If this CIF has been generated from an entry in the Cambridge 
# Structural Database, then it will include bibliographic, chemical, 
# crystal, experimental, refinement or atomic coordinate data resulting 
# from the CCDC's data processing and validation procedures.
#
#######################################################################

data_KUKPUD
_chemical_formula_moiety         'C52 H40 Cl6 Cu12 N18 O8'
_symmetry_cell_setting           orthorhombic
_symmetry_space_group_name_H-M   'C m m m'
_symmetry_Int_Tables_number      65
_space_group_name_Hall           '-C 2 2'
loop_
_symmetry_equiv_pos_site_id
_symmetry_equiv_pos_as_xyz
1 x,y,z
2 -x,-y,z
3 x,-y,-z
4 -x,y,-z
5 1/2+x,1/2+y,z
6 1/2-x,1/2-y,z
7 1/2+x,1/2-y,-z
8 1/2-x,1/2+y,-z
9 -x,-y,-z
10 x,y,-z
11 -x,y,z
12 x,-y,z
13 1/2-x,1/2-y,-z
14 1/2+x,1/2+y,-z
15 1/2-x,1/2+y,z
16 1/2+x,1/2-y,z
_cell_length_a                   7.0918(3)
_cell_length_b                   28.8888(15)
_cell_length_c                   19.0752(6)
_cell_angle_alpha                90
_cell_angle_beta                 90
_cell_angle_gamma                90
_cell_volume                     3908
loop_
_atom_site_label
_atom_site_type_symbol
_atom_site_fract_x
_atom_site_fract_y
_atom_site_fract_z
Cu1 Cu 0.2500 0.2500 0.5000
Cu2 Cu 0.1881(3) 0.0000 0.0000
Cl1 Cl 0.5000 0.18201(6) 0.5000
N1 N 0.0970(4) 0.21746(11) 0.42564(16)
N2 N 0.0000 0.17595(19) 0.3389(3)
C1 C 0.1500(6) 0.19191(15) 0.3729(2)
H1 H 0.2745 0.1858 0.3608
C2 C -0.0000 0.1468(3) 0.2767(4)
C3 C 0.0000 0.0906(4) 0.1600(5)
C4 C 0.158(2) 0.0911(5) 0.2015(7)
H2 H 0.2604 0.0723 0.1910
C5 C 0.161(2) 0.1211(5) 0.2615(7)
H3 H 0.2676 0.1233 0.2895
C6 C 0.142(2) 0.1486(5) 0.2314(6)
H4 H 0.2371 0.1705 0.2370
C7 C 0.148(2) 0.1177(5) 0.1741(8)
H5 H 0.2510 0.1179 0.1441
C8 C -0.0000 0.0560(4) 0.0911(6)
O1 O 0.1581(11) 0.0468(2) 0.0746(3)
Cl2 Cl 0.5000 0.0000 0.0000
N1J N -0.0970(4) 0.21746(11) 0.42564(16)
C1J C -0.1500(6) 0.19191(15) 0.3729(2)
H1J H -0.2745 0.1858 0.3608
C4J C -0.158(2) 0.0911(5) 0.2015(7)
H2J H -0.2604 0.0723 0.1910
C5J C -0.161(2) 0.1211(5) 0.2615(7)
H3J H -0.2676 0.1233 0.2895
C6J C -0.142(2) 0.1486(5) 0.2314(6)
H4J H -0.2371 0.1705 0.2370
C7J C -0.148(2) 0.1177(5) 0.1741(8)
H5J H -0.2510 0.1179 0.1441
O1J O -0.1581(11) 0.0468(2) 0.0746(3)
Cu1A Cu -0.2500 -0.2500 0.5000
Cu2A Cu -0.1881(3) 0.0000 0.0000
N1A N -0.0970(4) -0.21746(11) 0.42564(16)
N2A N 0.0000 -0.17595(19) 0.3389(3)
C1A C -0.1500(6) -0.19191(15) 0.3729(2)
H1A H -0.2745 -0.1858 0.3608
C2A C -0.0000 -0.1468(3) 0.2767(4)
C3A C 0.0000 -0.0906(4) 0.1600(5)
C4A C -0.158(2) -0.0911(5) 0.2015(7)
H2A H -0.2604 -0.0723 0.1910
C5A C -0.161(2) -0.1211(5) 0.2615(7)
H3A H -0.2676 -0.1233 0.2895
C6A C -0.142(2) -0.1486(5) 0.2314(6)
H4A H -0.2371 -0.1705 0.2370
C7A C -0.148(2) -0.1177(5) 0.1741(8)
H5A H -0.2510 -0.1179 0.1441
C8A C 0.0000 -0.0560(4) 0.0911(6)
O1A O -0.1581(11) -0.0468(2) 0.0746(3)
N1K N 0.0970(4) -0.21746(11) 0.42564(16)
C1K C 0.1500(6) -0.19191(15) 0.3729(2)
H1K H 0.2745 -0.1858 0.3608
C4K C 0.158(2) -0.0911(5) 0.2015(7)
H2K H 0.2604 -0.0723 0.1910
C5K C 0.161(2) -0.1211(5) 0.2615(7)
H3K H 0.2676 -0.1233 0.2895
C6K C 0.142(2) -0.1486(5) 0.2314(6)
H4K H 0.2371 -0.1705 0.2370
C7K C 0.148(2) -0.1177(5) 0.1741(8)
H5K H 0.2510 -0.1179 0.1441
O1K O 0.1581(11) -0.0468(2) 0.0746(3)
N1B N 0.0970(4) -0.21746(11) -0.42564(16)
N2B N -0.0000 -0.17595(19) -0.3389(3)
C1B C 0.1500(6) -0.19191(15) -0.3729(2)
H1B H 0.2745 -0.1858 -0.3608
C2B C 0.0000 -0.1468(3) -0.2767(4)
C3B C 0.0000 -0.0906(4) -0.1600(5)
C4B C 0.158(2) -0.0911(5) -0.2015(7)
H2B H 0.2604 -0.0723 -0.1910
C5B C 0.161(2) -0.1211(5) -0.2615(7)
H3B H 0.2676 -0.1233 -0.2895
C6B C 0.142(2) -0.1486(5) -0.2314(6)
H4B H 0.2371 -0.1705 -0.2370
C7B C 0.148(2) -0.1177(5) -0.1741(8)
H5B H 0.2510 -0.1179 -0.1441
C8B C 0.0000 -0.0560(4) -0.0911(6)
O1B O 0.1581(11) -0.0468(2) -0.0746(3)
N1H N -0.0970(4) -0.21746(11) -0.42564(16)
C1H C -0.1500(6) -0.19191(15) -0.3729(2)
H1H H -0.2745 -0.1858 -0.3608
C4H C -0.158(2) -0.0911(5) -0.2015(7)
H2H H -0.2604 -0.0723 -0.1910
C5H C -0.161(2) -0.1211(5) -0.2615(7)
H3H H -0.2676 -0.1233 -0.2895
C6H C -0.142(2) -0.1486(5) -0.2314(6)
H4H H -0.2371 -0.1705 -0.2370
C7H C -0.148(2) -0.1177(5) -0.1741(8)
H5H H -0.2510 -0.1179 -0.1441
O1H O -0.1581(11) -0.0468(2) -0.0746(3)
N1C N -0.0970(4) 0.21746(11) -0.42564(16)
N2C N 0.0000 0.17595(19) -0.3389(3)
C1C C -0.1500(6) 0.19191(15) -0.3729(2)
H1C H -0.2745 0.1858 -0.3608
C2C C 0.0000 0.1468(3) -0.2767(4)
C3C C 0.0000 0.0906(4) -0.1600(5)
C4C C -0.158(2) 0.0911(5) -0.2015(7)
H2C H -0.2604 0.0723 -0.1910
C5C C -0.161(2) 0.1211(5) -0.2615(7)
H3C H -0.2676 0.1233 -0.2895
C6C C -0.142(2) 0.1486(5) -0.2314(6)
H4C H -0.2371 0.1705 -0.2370
C7C C -0.148(2) 0.1177(5) -0.1741(8)
H5C H -0.2510 0.1179 -0.1441
C8C C 0.0000 0.0560(4) -0.0911(6)
O1C O -0.1581(11) 0.0468(2) -0.0746(3)
N1I N 0.0970(4) 0.21746(11) -0.42564(16)
C1I C 0.1500(6) 0.19191(15) -0.3729(2)
H1I H 0.2745 0.1858 -0.3608
C4I C 0.158(2) 0.0911(5) -0.2015(7)
H2I H 0.2604 0.0723 -0.1910
C5I C 0.161(2) 0.1211(5) -0.2615(7)
H3I H 0.2676 0.1233 -0.2895
C6I C 0.142(2) 0.1486(5) -0.2314(6)
H4I H 0.2371 0.1705 -0.2370
C7I C 0.148(2) 0.1177(5) -0.1741(8)
H5I H 0.2510 0.1179 -0.1441
O1I O 0.1581(11) 0.0468(2) -0.0746(3)
Cl1E Cl -0.0000 0.31799(6) 0.5000
Cu1_2 Cu 0.2500 0.2500 -0.5000
Cu1A_2 Cu -0.2500 -0.2500 -0.5000
Cu1B Cu 0.2500 -0.2500 -0.5000
Cu1B_2 Cu 0.2500 -0.2500 0.5000
Cu1C Cu -0.2500 0.2500 -0.5000
Cu1C_2 Cu -0.2500 0.2500 0.5000
Cu1C_3 Cu 0.7500 0.2500 0.5000
Cu2A_2 Cu 0.8119(3) 0.0000 0.0000
Cl1A Cl -0.5000 -0.18201(6) 0.5000
Cl1D Cl 0.0000 -0.31799(6) 0.5000
N1D N -0.4030(4) -0.28254(11) 0.42564(16)
N1E N 0.4030(4) 0.28254(11) 0.42564(16)
N1H_2 N -0.0970(4) -0.21746(11) 0.57436(16)
N1I_2 N 0.0970(4) 0.21746(11) 0.57436(16)
N1L N 0.4030(4) 0.28254(11) 0.57436(16)
N1M N -0.4030(4) -0.28254(11) 0.57436(16)
Cl2_2 Cl -0.5000 0.0000 0.0000
loop_
_geom_bond_atom_site_label_1
_geom_bond_atom_site_label_2
_geom_bond_site_symmetry_1
_geom_bond_site_symmetry_2
Cu1 Cl1 1_555 1_555
Cu2 O1 1_555 1_555
Cl1 Cu1C_3 1_555 1_555
N1 Cu1 1_555 1_555
N2 C1 1_555 1_555
C1 N1 1_555 1_555
H1 C1 1_555 1_555
C2 N2 1_555 1_555
C3 C4 1_555 1_555
C4 H2 1_555 1_555
C5 C2 1_555 1_555
H3 C5 1_555 1_555
C6 C2 1_555 1_555
H4 C6 1_555 1_555
C7 C3 1_555 1_555
H5 C7 1_555 1_555
C8 C3 1_555 1_555
O1 C8 1_555 1_555
Cl2 Cu2 1_555 1_555
N1J N1 1_555 1_555
C1J N2 1_555 1_555
H1J C1J 1_555 1_555
C4J C3 1_555 1_555
H2J C4J 1_555 1_555
C5J C2 1_555 1_555
H3J C5J 1_555 1_555
C6J C2 1_555 1_555
H4J C6J 1_555 1_555
C7J C3 1_555 1_555
H5J C7J 1_555 1_555
O1J C8 1_555 1_555
Cu1A N1A 1_555 1_555
Cu2A O1J 1_555 1_555
N1A C1A 1_555 1_555
N2A C1A 1_555 1_555
C1A H1A 1_555 1_555
C2A N2A 1_555 1_555
C3A C4A 1_555 1_555
C4A H2A 1_555 1_555
C5A C2A 1_555 1_555
H3A C5A 1_555 1_555
C6A C2A 1_555 1_555
H4A C6A 1_555 1_555
C7A C3A 1_555 1_555
H5A C7A 1_555 1_555
C8A C3A 1_555 1_555
O1A Cu2A 1_555 1_555
N1K N1A 1_555 1_555
C1K N2A 1_555 1_555
H1K C1K 1_555 1_555
C4K C3A 1_555 1_555
H2K C4K 1_555 1_555
C5K C2A 1_555 1_555
H3K C5K 1_555 1_555
C6K C2A 1_555 1_555
H4K C6K 1_555 1_555
C7K C3A 1_555 1_555
H5K C7K 1_555 1_555
O1K Cu2 1_555 1_555
N1B C1B 1_555 1_555
N2B C1B 1_555 1_555
C1B H1B 1_555 1_555
C2B N2B 1_555 1_555
C3B C4B 1_555 1_555
C4B H2B 1_555 1_555
C5B C2B 1_555 1_555
H3B C5B 1_555 1_555
C6B C2B 1_555 1_555
H4B C6B 1_555 1_555
C7B C3B 1_555 1_555
H5B C7B 1_555 1_555
C8B C3B 1_555 1_555
O1B Cu2 1_555 1_555
N1H N1B 1_555 1_555
C1H N2B 1_555 1_555
H1H C1H 1_555 1_555
C4H C3B 1_555 1_555
H2H C4H 1_555 1_555
C5H C2B 1_555 1_555
H3H C5H 1_555 1_555
C6H C2B 1_555 1_555
H4H C6H 1_555 1_555
C7H C3B 1_555 1_555
H5H C7H 1_555 1_555
O1H Cu2A 1_555 1_555
N1C C1C 1_555 1_555
N2C C1C 1_555 1_555
C1C H1C 1_555 1_555
C2C N2C 1_555 1_555
C3C C4C 1_555 1_555
C4C H2C 1_555 1_555
C5C C2C 1_555 1_555
H3C C5C 1_555 1_555
C6C C2C 1_555 1_555
H4C C6C 1_555 1_555
C7C C3C 1_555 1_555
H5C C7C 1_555 1_555
C8C C3C 1_555 1_555
O1C Cu2A 1_555 1_555
N1I N1C 1_555 1_555
C1I N2C 1_555 1_555
H1I C1I 1_555 1_555
C4I C3C 1_555 1_555
H2I C4I 1_555 1_555
C5I C2C 1_555 1_555
H3I C5I 1_555 1_555
C6I C2C 1_555 1_555
H4I C6I 1_555 1_555
C7I C3C 1_555 1_555
H5I C7I 1_555 1_555
O1I Cu2 1_555 1_555
Cl1E Cu1 1_555 1_555
Cu1_2 N1I 1_555 1_555
Cu1A_2 N1H 1_555 1_555
Cu1B N1B 1_555 1_555
Cu1B_2 N1K 1_555 1_555
Cu1C N1C 1_555 1_555
Cu1C_2 N1J 1_555 1_555
Cu2A_2 Cl2 1_555 1_555
Cl1A Cu1A 1_555 1_555
Cl1D Cu1A 1_555 1_555
N1D Cu1A 1_555 1_555
N1E Cu1 1_555 1_555
N1H_2 Cu1A 1_555 1_555
N1I_2 Cu1 1_555 1_555
N1L Cu1 1_555 1_555
N1M Cu1A 1_555 1_555
Cl2_2 Cu2A 1_555 1_555
C4 C5 1_555 1_555
C6 C7 1_555 1_555
N1J C1J 1_555 1_555
C4J C5J 1_555 1_555
C6J C7J 1_555 1_555
C4A C5A 1_555 1_555
C6A C7A 1_555 1_555
C8A O1A 1_555 1_555
C8A O1K 1_555 1_555
N1K C1K 1_555 1_555
C4K C5K 1_555 1_555
C6K C7K 1_555 1_555
C4B C5B 1_555 1_555
C6B C7B 1_555 1_555
C8B O1B 1_555 1_555
C8B O1H 1_555 1_555
N1H C1H 1_555 1_555
C4H C5H 1_555 1_555
C6H C7H 1_555 1_555
C4C C5C 1_555 1_555
C6C C7C 1_555 1_555
C8C O1C 1_555 1_555
C8C O1I 1_555 1_555
N1I C1I 1_555 1_555
C4I C5I 1_555 1_555
C6I C7I 1_555 1_555
Cl1E Cu1C_2 1_555 1_555
Cu1B_2 Cl1D 1_555 1_555

#END
