
#######################################################################
#
#                 Cambridge Crystallographic Data Centre
#                                CCDC 
#
#######################################################################
#
# If this CIF has been generated from an entry in the Cambridge 
# Structural Database, then it will include bibliographic, chemical, 
# crystal, experimental, refinement or atomic coordinate data resulting 
# from the CCDC's data processing and validation procedures.
#
#######################################################################

data_GIRYIR
_chemical_formula_moiety         '(C40 H34 N6 O17 Zn3)n'
_symmetry_cell_setting           monoclinic
_symmetry_space_group_name_H-M   'C 2/c'
_symmetry_Int_Tables_number      15
_space_group_name_Hall           '-C 2yc'
loop_
_symmetry_equiv_pos_site_id
_symmetry_equiv_pos_as_xyz
1 x,y,z
2 -x,y,1/2-z
3 1/2+x,1/2+y,z
4 1/2-x,1/2+y,1/2-z
5 -x,-y,-z
6 x,-y,1/2+z
7 1/2-x,1/2-y,-z
8 1/2+x,1/2-y,1/2+z
_cell_length_a                   15.7066(13)
_cell_length_b                   25.077(2)
_cell_length_c                   13.4867(11)
_cell_angle_alpha                90
_cell_angle_beta                 124.6280(10)
_cell_angle_gamma                90
_cell_volume                     4371.08
loop_
_atom_site_label
_atom_site_type_symbol
_atom_site_fract_x
_atom_site_fract_y
_atom_site_fract_z
_atom_site_U_iso_or_equiv
_atom_site_thermal_displace_type
Zn1 Zn 0.5000 0.0000 0.0000 0.0274 Uani
Zn2 Zn 0.31486(6) 0.05141(2) -0.27458(6) 0.0306 Uani
O1 O 0.7509(3) 0.06069(14) -0.0502(4) 0.0394 Uani
O2 O 0.6249(4) 0.11766(16) -0.0972(4) 0.0500 Uani
O3 O 0.6582(3) 0.02857(14) 0.0832(4) 0.0357 Uani
O4 O 0.7630(3) 0.01213(14) 0.2807(4) 0.0396 Uani
O5 O 0.9768(5) 0.1605(3) 0.5347(5) 0.1100 Uani
O6 O 1.0184(5) 0.2232(2) 0.4658(5) 0.0871 Uani
O7 O 0.4557(3) 0.03781(13) -0.1569(3) 0.0320 Uani
H1 H 0.4948 0.0611 -0.1572 0.1000 Uiso
N1 N 0.9711(5) 0.1827(2) 0.4523(6) 0.0529 Uani
N2 N 0.4595(4) 0.07024(16) 0.0591(4) 0.0321 Uani
N3 N 0.2477(4) 0.38581(16) 0.2385(4) 0.0335 Uani
C1 C 0.7754(4) 0.1175(2) 0.1033(5) 0.0286 Uani
C2 C 0.7908(4) 0.0903(2) 0.2029(5) 0.0285 Uani
C3 C 0.8575(5) 0.1110(2) 0.3183(6) 0.0368 Uani
H2 H 0.8705 0.0925 0.3852 0.0440 Uiso
C4 C 0.9037(5) 0.1595(2) 0.3315(6) 0.0365 Uani
C5 C 0.8881(5) 0.1881(2) 0.2361(6) 0.0417 Uani
H3 H 0.9201 0.2209 0.2478 0.0510 Uiso
C6 C 0.8227(5) 0.1666(2) 0.1207(6) 0.0400 Uani
H4 H 0.8107 0.1855 0.0545 0.0490 Uiso
C7 C 0.7087(6) 0.0969(2) -0.0249(6) 0.0378 Uani
C8 C 0.7327(5) 0.0392(2) 0.1865(6) 0.0318 Uani
C9 C 0.4805(5) 0.1205(2) 0.0445(5) 0.0321 Uani
H5 H 0.5195 0.1255 0.0131 0.0380 Uiso
C10 C 0.4479(5) 0.1646(2) 0.0733(5) 0.0359 Uani
H6 H 0.4661 0.1985 0.0632 0.0430 Uiso
C11 C 0.3872(5) 0.1587(2) 0.1179(5) 0.0336 Uani
C12 C 0.3651(5) 0.1064(2) 0.1325(5) 0.0375 Uani
H7 H 0.3253 0.1003 0.1626 0.0450 Uiso
C13 C 0.4016(5) 0.0641(2) 0.1026(5) 0.0366 Uani
H8 H 0.3857 0.0298 0.1130 0.0440 Uiso
C14 C 0.3487(5) 0.2033(2) 0.1526(5) 0.0398 Uani
H9 H 0.3079 0.1947 0.1799 0.0480 Uiso
C15 C 0.3665(5) 0.2546(2) 0.1488(5) 0.0384 Uani
H10 H 0.4082 0.2633 0.1225 0.0450 Uiso
C16 C 0.3065(5) 0.3927(2) 0.1973(6) 0.0436 Uani
H11 H 0.3219 0.4274 0.1878 0.0520 Uiso
C17 C 0.3456(5) 0.3511(2) 0.1679(6) 0.0413 Uani
H12 H 0.3853 0.3582 0.1382 0.0490 Uiso
C18 C 0.3265(5) 0.2992(2) 0.1821(5) 0.0338 Uani
C19 C 0.2663(5) 0.2914(2) 0.2271(6) 0.0451 Uani
H13 H 0.2518 0.2571 0.2395 0.0540 Uiso
C20 C 0.2286(5) 0.3350(2) 0.2528(6) 0.0421 Uani
H14 H 0.1879 0.3290 0.2816 0.0510 Uiso
Zn2A Zn 0.68514(6) 0.05141(2) -0.22542(6) 0.0306 Uani
O1A O 0.2491(3) 0.06069(14) -0.4498(4) 0.0394 Uani
O2A O 0.3751(4) 0.11766(16) -0.4028(4) 0.0500 Uani
O3A O 0.3418(3) 0.02857(14) -0.5832(4) 0.0357 Uani
O4A O 0.2370(3) 0.01213(14) -0.7807(4) 0.0396 Uani
O5A O 0.0232(5) 0.1605(3) -1.0347(5) 0.1100 Uani
O6A O -0.0184(5) 0.2232(2) -0.9658(5) 0.0871 Uani
O7A O 0.5443(3) 0.03781(13) -0.3431(3) 0.0320 Uani
H1A H 0.5052 0.0611 -0.3428 0.1000 Uiso
N1A N 0.0289(5) 0.1827(2) -0.9523(6) 0.0529 Uani
C1A C 0.2246(4) 0.1175(2) -0.6033(5) 0.0286 Uani
C2A C 0.2092(4) 0.0903(2) -0.7029(5) 0.0285 Uani
C3A C 0.1425(5) 0.1110(2) -0.8183(6) 0.0368 Uani
H2A H 0.1295 0.0925 -0.8852 0.0440 Uiso
C4A C 0.0963(5) 0.1595(2) -0.8315(6) 0.0365 Uani
C5A C 0.1119(5) 0.1881(2) -0.7361(6) 0.0417 Uani
H3A H 0.0799 0.2209 -0.7478 0.0510 Uiso
C6A C 0.1773(5) 0.1666(2) -0.6207(6) 0.0400 Uani
H4A H 0.1893 0.1855 -0.5545 0.0490 Uiso
C7A C 0.2913(6) 0.0969(2) -0.4751(6) 0.0378 Uani
C8A C 0.2673(5) 0.0392(2) -0.6865(6) 0.0318 Uani
N2D N 0.5405(4) -0.07024(16) -0.0591(4) 0.0321 Uani
N3D N 0.7523(4) -0.38581(16) -0.2385(4) 0.0335 Uani
C9D C 0.5195(5) -0.1205(2) -0.0445(5) 0.0321 Uani
H5D H 0.4805 -0.1255 -0.0131 0.0380 Uiso
C10D C 0.5521(5) -0.1646(2) -0.0733(5) 0.0359 Uani
H6D H 0.5339 -0.1985 -0.0632 0.0430 Uiso
C11D C 0.6128(5) -0.1587(2) -0.1179(5) 0.0336 Uani
C12D C 0.6349(5) -0.1064(2) -0.1325(5) 0.0375 Uani
H7D H 0.6747 -0.1003 -0.1626 0.0450 Uiso
C13D C 0.5984(5) -0.0641(2) -0.1026(5) 0.0366 Uani
H8D H 0.6143 -0.0298 -0.1130 0.0440 Uiso
C14D C 0.6513(5) -0.2033(2) -0.1526(5) 0.0398 Uani
H9D H 0.6921 -0.1947 -0.1799 0.0480 Uiso
C15D C 0.6335(5) -0.2546(2) -0.1488(5) 0.0384 Uani
H10D H 0.5918 -0.2633 -0.1225 0.0450 Uiso
C16D C 0.6935(5) -0.3927(2) -0.1973(6) 0.0436 Uani
H11D H 0.6781 -0.4274 -0.1878 0.0520 Uiso
C17D C 0.6544(5) -0.3511(2) -0.1679(6) 0.0413 Uani
H12D H 0.6147 -0.3582 -0.1382 0.0490 Uiso
C18D C 0.6735(5) -0.2992(2) -0.1821(5) 0.0338 Uani
C19D C 0.7337(5) -0.2914(2) -0.2271(6) 0.0451 Uani
H13D H 0.7482 -0.2571 -0.2395 0.0540 Uiso
C20D C 0.7714(5) -0.3350(2) -0.2528(6) 0.0421 Uani
H14D H 0.8121 -0.3290 -0.2816 0.0510 Uiso
Zn1A Zn 0.5000 0.0000 -0.5000 0.0274 Uani
Zn2B Zn 0.81486(6) -0.44859(2) -0.27458(6) 0.0306 Uani
Zn2D Zn 0.68514(6) -0.05141(2) 0.27458(6) 0.0306 Uani
Zn2E Zn 0.31486(6) -0.05141(2) -0.77458(6) 0.0306 Uani
Zn2F Zn 0.18514(6) 0.44859(2) 0.27458(6) 0.0306 Uani
O3D O 0.3418(3) -0.02857(14) -0.0832(4) 0.0357 Uani
O4D O 0.2370(3) -0.01213(14) -0.2807(4) 0.0396 Uani
O4E O 0.7630(3) -0.01213(14) -0.2193(4) 0.0396 Uani
O7D O 0.5443(3) -0.03781(13) 0.1569(3) 0.0320 Uani
N3F N 0.2523(4) 0.11419(16) -0.2385(4) 0.0335 Uani
N3G N 0.7477(4) 0.11419(16) -0.2615(4) 0.0335 Uani
O8 O 0.5000 0.1998(3) 0.7500 0.0705 Uani
H15 H 0.4635 0.1796 0.6892 0.1300 Uiso
H15A H 0.5365 0.1796 0.8108 0.1300 Uiso
O9 O 0.0721(7) 1.0088(3) 0.8686(8) 0.2100 Uani
H16 H 0.0429 1.0106 0.9056 0.3150 Uiso
H17 H 0.1258 0.9900 0.9137 0.3150 Uiso
O10 O 0.0000 -0.0000 1.0000 0.1976 Uani
H18 H 0.0556 0.0148 1.0467 0.2930 Uiso
H18D H -0.0556 -0.0148 0.9533 0.2930 Uiso
loop_
_atom_site_aniso_label
_atom_site_aniso_U_11
_atom_site_aniso_U_22
_atom_site_aniso_U_33
_atom_site_aniso_U_23
_atom_site_aniso_U_13
_atom_site_aniso_U_12
Zn1 0.0351(7) 0.0280(5) 0.0253(6) 0.0005(4) 0.0209(6) 0.0016(4)
Zn2 0.0390(5) 0.0308(4) 0.0293(5) 0.0022(3) 0.0237(4) 0.0046(3)
O1 0.050(3) 0.046(2) 0.033(3) -0.0063(19) 0.030(3) -0.001(2)
O2 0.051(3) 0.044(3) 0.039(3) 0.006(2) 0.016(3) 0.004(2)
O3 0.035(3) 0.047(2) 0.025(3) -0.005(2) 0.017(3) -0.011(2)
O4 0.049(3) 0.039(2) 0.029(3) 0.0051(19) 0.021(3) -0.007(2)
O5 0.133(6) 0.154(6) 0.043(4) -0.040(4) 0.050(4) -0.083(5)
O6 0.101(5) 0.077(4) 0.067(4) -0.034(3) 0.038(4) -0.045(4)
O7 0.036(3) 0.034(2) 0.031(3) 0.0071(17) 0.022(2) 0.0023(18)
N1 0.054(5) 0.069(4) 0.042(4) -0.022(3) 0.031(4) -0.023(3)
N2 0.046(4) 0.031(3) 0.029(3) -0.001(2) 0.027(3) 0.004(2)
N3 0.040(3) 0.032(3) 0.037(3) 0.001(2) 0.027(3) 0.006(2)
C1 0.034(4) 0.032(3) 0.024(4) -0.003(2) 0.019(3) -0.006(3)
C2 0.034(4) 0.034(3) 0.027(4) -0.005(3) 0.023(4) -0.002(3)
C3 0.036(4) 0.046(4) 0.027(4) -0.006(3) 0.017(4) -0.005(3)
C4 0.033(4) 0.049(4) 0.033(4) -0.017(3) 0.022(4) -0.013(3)
C5 0.039(5) 0.044(4) 0.042(5) -0.014(3) 0.023(4) -0.014(3)
C6 0.057(5) 0.035(3) 0.037(5) 0.000(3) 0.032(4) -0.010(3)
C7 0.051(5) 0.036(3) 0.040(5) 0.005(3) 0.034(4) -0.009(3)
C8 0.042(5) 0.027(3) 0.043(5) -0.004(3) 0.034(4) 0.000(3)
C9 0.050(4) 0.032(3) 0.030(4) -0.005(3) 0.032(4) -0.005(3)
C10 0.050(5) 0.028(3) 0.037(4) -0.002(3) 0.029(4) -0.001(3)
C11 0.043(4) 0.031(3) 0.027(4) -0.002(3) 0.020(4) 0.002(3)
C12 0.048(4) 0.043(3) 0.040(4) -0.006(3) 0.036(4) -0.002(3)
C13 0.050(5) 0.034(3) 0.041(4) 0.001(3) 0.035(4) -0.001(3)
C14 0.041(4) 0.041(4) 0.045(5) -0.002(3) 0.029(4) 0.006(3)
C15 0.044(5) 0.044(4) 0.036(4) -0.002(3) 0.028(4) 0.005(3)
C16 0.064(5) 0.037(3) 0.054(5) -0.001(3) 0.048(5) 0.003(3)
C17 0.054(5) 0.041(4) 0.051(5) 0.001(3) 0.043(4) 0.002(3)
C18 0.037(4) 0.033(3) 0.032(4) 0.002(3) 0.020(4) 0.010(3)
C19 0.059(5) 0.034(3) 0.055(5) -0.005(3) 0.040(4) 0.001(3)
C20 0.047(5) 0.042(4) 0.051(5) -0.002(3) 0.036(4) -0.003(3)
Zn2A 0.039 0.0308 0.0293 -0.0022 0.0237 -0.0046
O1A 0.05 0.046 0.033 0.0063 0.03 0.001
O2A 0.051 0.044 0.039 -0.006 0.016 -0.004
O3A 0.035 0.047 0.025 0.005 0.017 0.011
O4A 0.049 0.039 0.029 -0.0051 0.021 0.007
O5A 0.133 0.154 0.043 0.04 0.05 0.083
O6A 0.101 0.077 0.067 0.034 0.038 0.045
O7A 0.036 0.034 0.031 -0.0071 0.022 -0.0023
N1A 0.054 0.069 0.042 0.022 0.031 0.023
C1A 0.034 0.032 0.024 0.003 0.019 0.006
C2A 0.034 0.034 0.027 0.005 0.023 0.002
C3A 0.036 0.046 0.027 0.006 0.017 0.005
C4A 0.033 0.049 0.033 0.017 0.022 0.013
C5A 0.039 0.044 0.042 0.014 0.023 0.014
C6A 0.057 0.035 0.037 0 0.032 0.01
C7A 0.051 0.036 0.04 -0.005 0.034 0.009
C8A 0.042 0.027 0.043 0.004 0.034 0
N2D 0.046 0.031 0.029 -0.001 0.027 0.004
N3D 0.04 0.032 0.037 0.001 0.027 0.006
C9D 0.05 0.032 0.03 -0.005 0.032 -0.005
C10D 0.05 0.028 0.037 -0.002 0.029 -0.001
C11D 0.043 0.031 0.027 -0.002 0.02 0.002
C12D 0.048 0.043 0.04 -0.006 0.036 -0.002
C13D 0.05 0.034 0.041 0.001 0.035 -0.001
C14D 0.041 0.041 0.045 -0.002 0.029 0.006
C15D 0.044 0.044 0.036 -0.002 0.028 0.005
C16D 0.064 0.037 0.054 -0.001 0.048 0.003
C17D 0.054 0.041 0.051 0.001 0.043 0.002
C18D 0.037 0.033 0.032 0.002 0.02 0.01
C19D 0.059 0.034 0.055 -0.005 0.04 0.001
C20D 0.047 0.042 0.051 -0.002 0.036 -0.003
Zn1A 0.0351 0.028 0.0253 -0.0005 0.0209 -0.0016
Zn2B 0.039 0.0308 0.0293 0.0022 0.0237 0.0046
Zn2D 0.039 0.0308 0.0293 0.0022 0.0237 0.0046
Zn2E 0.039 0.0308 0.0293 -0.0022 0.0237 -0.0046
Zn2F 0.039 0.0308 0.0293 0.0022 0.0237 0.0046
O3D 0.035 0.047 0.025 -0.005 0.017 -0.011
O4D 0.049 0.039 0.029 0.0051 0.021 -0.007
O4E 0.049 0.039 0.029 -0.0051 0.021 0.007
O7D 0.036 0.034 0.031 0.0071 0.022 0.0023
N3F 0.04 0.032 0.037 0.001 0.027 0.006
N3G 0.04 0.032 0.037 -0.001 0.027 -0.006
O8 0.061(5) 0.042(4) 0.089(6) 0.000 0.031(5) 0.000
O9 0.159(9) 0.195(8) 0.231(11) 0.072(8) 0.084(8) 0.061(7)
O10 0.109(18) 0.34(3) 0.16(2) -0.19(2) 0.086(17) -0.17(2)
loop_
_geom_bond_atom_site_label_1
_geom_bond_atom_site_label_2
_geom_bond_site_symmetry_1
_geom_bond_site_symmetry_2
Zn1 O3 1_555 1_555
Zn2 O7 1_555 1_555
O1 C7 1_555 1_555
O2 C7 1_555 1_555
O3 C8 1_555 1_555
O4 C8 1_555 1_555
O5 N1 1_555 1_555
O6 N1 1_555 1_555
O7 Zn1 1_555 1_555
H1 O7 1_555 1_555
N1 C4 1_555 1_555
N2 Zn1 1_555 1_555
N3 C16 1_555 1_555
C1 C2 1_555 1_555
C2 C3 1_555 1_555
C3 H2 1_555 1_555
C4 C3 1_555 1_555
C5 C4 1_555 1_555
H3 C5 1_555 1_555
C6 C1 1_555 1_555
H4 C6 1_555 1_555
C7 C1 1_555 1_555
C8 C2 1_555 1_555
C9 N2 1_555 1_555
H5 C9 1_555 1_555
C10 C9 1_555 1_555
H6 C10 1_555 1_555
C11 C10 1_555 1_555
C12 C11 1_555 1_555
H7 C12 1_555 1_555
C13 N2 1_555 1_555
H8 C13 1_555 1_555
C14 C11 1_555 1_555
H9 C14 1_555 1_555
C15 C14 1_555 1_555
H10 C15 1_555 1_555
C16 H11 1_555 1_555
C17 C16 1_555 1_555
H12 C17 1_555 1_555
C18 C15 1_555 1_555
C19 C18 1_555 1_555
H13 C19 1_555 1_555
C20 N3 1_555 1_555
H14 C20 1_555 1_555
O8 H15 1_555 1_555
O9 H16 1_555 1_555
H17 O9 1_555 1_555
O10 H18 1_555 1_555
Zn2A O1 1_555 1_555
O1A Zn2 1_555 1_555
O2A C7A 1_555 1_555
O3A C8A 1_555 1_555
O4A C8A 1_555 1_555
O5A N1A 1_555 1_555
O6A N1A 1_555 1_555
O7A Zn2A 1_555 1_555
H1A O7A 1_555 1_555
N1A C4A 1_555 1_555
C1A C2A 1_555 1_555
C2A C3A 1_555 1_555
C3A H2A 1_555 1_555
C4A C3A 1_555 1_555
C5A C4A 1_555 1_555
H3A C5A 1_555 1_555
C6A C1A 1_555 1_555
H4A C6A 1_555 1_555
C7A O1A 1_555 1_555
C8A C2A 1_555 1_555
N2D Zn1 1_555 1_555
N3D C16D 1_555 1_555
C9D N2D 1_555 1_555
H5D C9D 1_555 1_555
C10D C9D 1_555 1_555
H6D C10D 1_555 1_555
C11D C10D 1_555 1_555
C12D C11D 1_555 1_555
H7D C12D 1_555 1_555
C13D N2D 1_555 1_555
H8D C13D 1_555 1_555
C14D C11D 1_555 1_555
H9D C14D 1_555 1_555
C15D C14D 1_555 1_555
H10D C15D 1_555 1_555
C16D H11D 1_555 1_555
C17D C16D 1_555 1_555
H12D C17D 1_555 1_555
C18D C15D 1_555 1_555
C19D C18D 1_555 1_555
H13D C19D 1_555 1_555
C20D N3D 1_555 1_555
H14D C20D 1_555 1_555
Zn1A O3A 1_555 1_555
Zn2B N3D 1_555 1_555
Zn2D O4 1_555 1_555
Zn2E O4A 1_555 1_555
Zn2F N3 1_555 1_555
O3D Zn1 1_555 1_555
O4D Zn2 1_555 1_555
O4E Zn2A 1_555 1_555
O7D Zn1 1_555 1_555
N3F Zn2 1_555 1_555
N3G Zn2A 1_555 1_555
H15A O8 1_555 1_555
H18D O10 1_555 1_555
C5 C6 1_555 1_555
C12 C13 1_555 1_555
C17 C18 1_555 1_555
C19 C20 1_555 1_555
O7A Zn1A 1_555 1_555
C1A C7A 1_555 1_555
C5A C6A 1_555 1_555
C12D C13D 1_555 1_555
C17D C18D 1_555 1_555
C19D C20D 1_555 1_555
Zn2D O7D 1_555 1_555

#END
