
#######################################################################
#
#                 Cambridge Crystallographic Data Centre
#                                CCDC 
#
#######################################################################
#
# If this CIF has been generated from an entry in the Cambridge 
# Structural Database, then it will include bibliographic, chemical, 
# crystal, experimental, refinement or atomic coordinate data resulting 
# from the CCDC's data processing and validation procedures.
#
#######################################################################

data_GIRYEN
_chemical_formula_moiety         '(C44 H42 N6 O17 Zn3)n'
_symmetry_cell_setting           monoclinic
_symmetry_space_group_name_H-M   'C 2/c'
_symmetry_Int_Tables_number      15
_space_group_name_Hall           '-C 2yc'
loop_
_symmetry_equiv_pos_site_id
_symmetry_equiv_pos_as_xyz
1 x,y,z
2 -x,y,1/2-z
3 1/2+x,1/2+y,z
4 1/2-x,1/2+y,1/2-z
5 -x,-y,-z
6 x,-y,1/2+z
7 1/2-x,1/2-y,-z
8 1/2+x,1/2-y,1/2+z
_cell_length_a                   16.205(6)
_cell_length_b                   24.834(8)
_cell_length_c                   13.514(5)
_cell_angle_alpha                90
_cell_angle_beta                 124.244(3)
_cell_angle_gamma                90
_cell_volume                     4495.73
loop_
_atom_site_label
_atom_site_type_symbol
_atom_site_fract_x
_atom_site_fract_y
_atom_site_fract_z
_atom_site_U_iso_or_equiv
_atom_site_thermal_displace_type
C1 C 0.9778(8) 0.9936(6) 0.1445(11) 0.1557 Uani
H1 H 0.9815 1.0264 0.1084 0.1860 Uiso
H2 H 1.0165 0.9660 0.1373 0.1860 Uiso
C2 C 1.0189(19) 1.0033(6) 0.2780(13) 0.1732 Uani
H3 H 0.9903 1.0356 0.2853 0.2600 Uiso
H4 H 1.0902 1.0069 0.3234 0.2600 Uiso
H5 H 1.0017 0.9733 0.3079 0.2600 Uiso
O1 O 0.8768(5) 0.9768(3) 0.0864(7) 0.1360 Uani
H6 H 0.8384 1.0004 0.0357 0.2040 Uiso
Zn1 Zn 0.5000 0.0000 0.0000 0.0233 Uani
Zn2 Zn 0.322511(19) 0.052506(10) -0.27160(2) 0.0271 Uani
O2 O 0.74207(13) 0.06221(7) -0.05421(14) 0.0385 Uani
O3 O 0.62419(14) 0.12105(8) -0.09242(16) 0.0500 Uani
O4 O 0.65123(12) 0.02988(6) 0.08091(13) 0.0340 Uani
O5 O 0.75197(13) 0.01222(7) 0.27671(14) 0.0400 Uani
O6 O 0.9700(2) 0.15628(15) 0.5361(2) 0.1151 Uani
O7 O 1.0160(2) 0.21801(11) 0.4691(2) 0.0974 Uani
O8 O 0.45881(12) 0.03861(6) -0.15488(13) 0.0298 Uani
H7 H 0.4975 0.0616 -0.1552 0.0610 Uiso
N1 N 0.96730(19) 0.17845(11) 0.4549(2) 0.0570 Uani
N2 N 0.45984(14) 0.07047(7) 0.05932(16) 0.0294 Uani
N3 N 0.23892(15) 0.38414(7) 0.23500(17) 0.0321 Uani
C3 C 0.77125(17) 0.11771(9) 0.10448(19) 0.0289 Uani
C4 C 0.78330(17) 0.08986(9) 0.20186(19) 0.0277 Uani
C5 C 0.84886(18) 0.10949(10) 0.3174(2) 0.0349 Uani
H8 H 0.8584 0.0911 0.3830 0.0420 Uiso
C6 C 0.89959(18) 0.15690(10) 0.3328(2) 0.0383 Uani
C7 C 0.8885(2) 0.18572(10) 0.2387(2) 0.0428 Uani
H9 H 0.9232 0.2177 0.2517 0.0510 Uiso
C8 C 0.8241(2) 0.16546(10) 0.1244(2) 0.0402 Uani
H10 H 0.8157 0.1840 0.0596 0.0480 Uiso
C9 C 0.70465(18) 0.09846(9) -0.02403(19) 0.0322 Uani
C10 C 0.72341(17) 0.03987(8) 0.18355(19) 0.0266 Uani
C11 C 0.47972(18) 0.12112(9) 0.04483(19) 0.0312 Uani
H11 H 0.5178 0.1265 0.0138 0.0370 Uiso
C12 C 0.44626(19) 0.16581(9) 0.0739(2) 0.0342 Uani
H12 H 0.4622 0.2003 0.0628 0.0410 Uiso
C13 C 0.38821(18) 0.15869(9) 0.1200(2) 0.0331 Uani
C14 C 0.36784(19) 0.10600(10) 0.1342(2) 0.0367 Uani
H13 H 0.3294 0.0993 0.1643 0.0440 Uiso
C15 C 0.40453(19) 0.06363(9) 0.1038(2) 0.0349 Uani
H14 H 0.3903 0.0287 0.1146 0.0420 Uiso
C16 C 0.34849(19) 0.20299(10) 0.1539(2) 0.0396 Uani
H15 H 0.3082 0.1935 0.1799 0.0480 Uiso
C17 C 0.36448(19) 0.25486(10) 0.1509(2) 0.0386 Uani
H16 H 0.4059 0.2646 0.1267 0.0460 Uiso
C18 C 0.2946(2) 0.39267(10) 0.1915(2) 0.0393 Uani
H17 H 0.3054 0.4280 0.1784 0.0470 Uiso
C19 C 0.3364(2) 0.35165(10) 0.1654(2) 0.0412 Uani
H18 H 0.3746 0.3597 0.1357 0.0490 Uiso
C20 C 0.32190(18) 0.29875(10) 0.1829(2) 0.0345 Uani
C21 C 0.2651(2) 0.28988(10) 0.2298(3) 0.0458 Uani
H19 H 0.2544 0.2550 0.2453 0.0550 Uiso
C22 C 0.2250(2) 0.33299(10) 0.2530(2) 0.0440 Uani
H20 H 0.1862 0.3262 0.2826 0.0530 Uiso
Zn2A Zn 0.677489(19) 0.052506(10) -0.22840(2) 0.0271 Uani
O2A O 0.25793(13) 0.06221(7) -0.44579(14) 0.0385 Uani
O3A O 0.37581(14) 0.12105(8) -0.40758(16) 0.0500 Uani
O4A O 0.34877(12) 0.02988(6) -0.58091(13) 0.0340 Uani
O5A O 0.24803(13) 0.01222(7) -0.77671(14) 0.0400 Uani
O6A O 0.0300(2) 0.15628(15) -1.0361(2) 0.1151 Uani
O7A O -0.0160(2) 0.21801(11) -0.9691(2) 0.0974 Uani
O8A O 0.54119(12) 0.03861(6) -0.34512(13) 0.0298 Uani
H7A H 0.5025 0.0616 -0.3448 0.0610 Uiso
N1A N 0.03270(19) 0.17845(11) -0.9549(2) 0.0570 Uani
C3A C 0.22875(17) 0.11771(9) -0.60448(19) 0.0289 Uani
C4A C 0.21670(17) 0.08986(9) -0.70186(19) 0.0277 Uani
C5A C 0.15114(18) 0.10949(10) -0.8174(2) 0.0349 Uani
H8A H 0.1416 0.0911 -0.8830 0.0420 Uiso
C6A C 0.10041(18) 0.15690(10) -0.8328(2) 0.0383 Uani
C7A C 0.1115(2) 0.18572(10) -0.7387(2) 0.0428 Uani
H9A H 0.0768 0.2177 -0.7517 0.0510 Uiso
C8A C 0.1759(2) 0.16546(10) -0.6244(2) 0.0402 Uani
H10A H 0.1843 0.1840 -0.5596 0.0480 Uiso
C9A C 0.29535(18) 0.09846(9) -0.47597(19) 0.0322 Uani
C10A C 0.27659(17) 0.03987(8) -0.68355(19) 0.0266 Uani
N2D N 0.54016(14) -0.07047(7) -0.05932(16) 0.0294 Uani
N3D N 0.76108(15) -0.38414(7) -0.23500(17) 0.0321 Uani
C11D C 0.52028(18) -0.12112(9) -0.04483(19) 0.0312 Uani
H11D H 0.4822 -0.1265 -0.0138 0.0370 Uiso
C12D C 0.55374(19) -0.16581(9) -0.0739(2) 0.0342 Uani
H12D H 0.5378 -0.2003 -0.0628 0.0410 Uiso
C13D C 0.61179(18) -0.15869(9) -0.1200(2) 0.0331 Uani
C14D C 0.63216(19) -0.10600(10) -0.1342(2) 0.0367 Uani
H13D H 0.6706 -0.0993 -0.1643 0.0440 Uiso
C15D C 0.59547(19) -0.06363(9) -0.1038(2) 0.0349 Uani
H14D H 0.6097 -0.0287 -0.1146 0.0420 Uiso
C16D C 0.65151(19) -0.20299(10) -0.1539(2) 0.0396 Uani
H15D H 0.6918 -0.1935 -0.1799 0.0480 Uiso
C17D C 0.63552(19) -0.25486(10) -0.1509(2) 0.0386 Uani
H16D H 0.5941 -0.2646 -0.1267 0.0460 Uiso
C18D C 0.7054(2) -0.39267(10) -0.1915(2) 0.0393 Uani
H17D H 0.6946 -0.4280 -0.1784 0.0470 Uiso
C19D C 0.6636(2) -0.35165(10) -0.1654(2) 0.0412 Uani
H18D H 0.6254 -0.3597 -0.1357 0.0490 Uiso
C20D C 0.67810(18) -0.29875(10) -0.1829(2) 0.0345 Uani
C21D C 0.7349(2) -0.28988(10) -0.2298(3) 0.0458 Uani
H19D H 0.7456 -0.2550 -0.2453 0.0550 Uiso
C22D C 0.7750(2) -0.33299(10) -0.2530(2) 0.0440 Uani
H20D H 0.8138 -0.3262 -0.2826 0.0530 Uiso
Zn1A Zn 0.5000 0.0000 -0.5000 0.0233 Uani
Zn2B Zn 0.822511(19) -0.447494(10) -0.27160(2) 0.0271 Uani
Zn2D Zn 0.677489(19) -0.052506(10) 0.27160(2) 0.0271 Uani
Zn2E Zn 0.322511(19) -0.052506(10) -0.77160(2) 0.0271 Uani
Zn2F Zn 0.177489(19) 0.447494(10) 0.27160(2) 0.0271 Uani
O4D O 0.34877(12) -0.02988(6) -0.08091(13) 0.0340 Uani
O5D O 0.24803(13) -0.01222(7) -0.27671(14) 0.0400 Uani
O5E O 0.75197(13) -0.01222(7) -0.22329(14) 0.0400 Uani
O8D O 0.54119(12) -0.03861(6) 0.15488(13) 0.0298 Uani
N3F N 0.26108(15) 0.11586(7) -0.23500(17) 0.0321 Uani
N3G N 0.73892(15) 0.11586(7) -0.26500(17) 0.0321 Uani
O9 O 0.5000 0.20238(11) 0.7500 0.0684 Uani
H21 H 0.4636 0.1823 0.6895 0.0790 Uiso
H21A H 0.5364 0.1823 0.8105 0.0790 Uiso
C1A C 1.0222(8) 0.9936(6) 0.3555(11) 0.1557 Uani
H1A H 1.0185 1.0264 0.3916 0.1860 Uiso
H2A H 0.9835 0.9660 0.3627 0.1860 Uiso
C2A C 0.9811(19) 1.0033(6) 0.2220(13) 0.1732 Uani
H3A H 1.0097 1.0356 0.2147 0.2600 Uiso
H4A H 0.9098 1.0069 0.1766 0.2600 Uiso
H5A H 0.9983 0.9733 0.1921 0.2600 Uiso
O1A O 1.1232(5) 0.9768(3) 0.4136(7) 0.1360 Uani
H6A H 1.1616 1.0004 0.4643 0.2040 Uiso
loop_
_atom_site_aniso_label
_atom_site_aniso_U_11
_atom_site_aniso_U_22
_atom_site_aniso_U_33
_atom_site_aniso_U_23
_atom_site_aniso_U_13
_atom_site_aniso_U_12
C1 0.110(6) 0.153(9) 0.180(9) 0.012(7) 0.067(7) 0.003(6)
C2 0.138(10) 0.203(10) 0.210(9) -0.020(9) 0.117(7) -0.019(8)
O1 0.090(4) 0.124(5) 0.175(6) 0.087(4) 0.063(4) 0.014(3)
Zn1 0.02948(19) 0.01907(18) 0.02407(18) -0.00047(13) 0.01669(15) 0.00065(13)
Zn2 0.03459(16) 0.02274(14) 0.02764(14) 0.00229(9) 0.01971(12) 0.00457(10)
O2 0.0488(10) 0.0409(10) 0.0298(8) -0.0075(7) 0.0245(8) -0.0050(8)
O3 0.0480(11) 0.0448(11) 0.0406(10) 0.0073(8) 0.0149(9) 0.0048(9)
O4 0.0356(9) 0.0371(9) 0.0292(8) -0.0050(7) 0.0182(7) -0.0137(7)
O5 0.0460(10) 0.0345(9) 0.0333(9) 0.0051(7) 0.0186(8) -0.0090(8)
O6 0.130(3) 0.167(3) 0.0490(14) -0.0491(17) 0.0508(16) -0.094(2)
O7 0.107(2) 0.0830(19) 0.0732(16) -0.0381(14) 0.0331(15) -0.0587(17)
O8 0.0335(8) 0.0286(8) 0.0307(8) 0.0067(6) 0.0202(7) 0.0031(7)
N1 0.0548(15) 0.0662(17) 0.0487(14) -0.0285(13) 0.0283(12) -0.0245(13)
N2 0.0398(11) 0.0231(9) 0.0311(9) -0.0005(8) 0.0234(9) 0.0025(8)
N3 0.0373(11) 0.0279(10) 0.0343(10) -0.0004(8) 0.0220(9) 0.0062(8)
C3 0.0331(12) 0.0258(11) 0.0324(11) -0.0044(9) 0.0213(10) -0.0032(9)
C4 0.0307(11) 0.0265(11) 0.0303(11) -0.0047(9) 0.0198(10) -0.0023(9)
C5 0.0384(13) 0.0384(13) 0.0323(12) -0.0083(10) 0.0226(11) -0.0070(10)
C6 0.0375(13) 0.0417(14) 0.0394(13) -0.0198(11) 0.0238(11) -0.0123(11)
C7 0.0466(15) 0.0318(13) 0.0557(16) -0.0127(12) 0.0322(13) -0.0154(11)
C8 0.0507(15) 0.0324(13) 0.0438(14) -0.0031(11) 0.0304(13) -0.0121(11)
C9 0.0416(14) 0.0284(12) 0.0284(11) 0.0005(9) 0.0207(11) -0.0098(10)
C10 0.0328(12) 0.0228(11) 0.0302(11) -0.0029(9) 0.0214(10) -0.0001(9)
C11 0.0411(13) 0.0269(11) 0.0321(11) -0.0004(9) 0.0246(11) -0.0005(9)
C12 0.0462(14) 0.0211(11) 0.0357(12) -0.0004(9) 0.0232(11) 0.0011(10)
C13 0.0371(13) 0.0297(12) 0.0320(11) -0.0016(9) 0.0192(11) 0.0061(10)
C14 0.0443(14) 0.0343(13) 0.0453(13) -0.0010(11) 0.0335(12) 0.0031(11)
C15 0.0485(15) 0.0252(12) 0.0426(13) 0.0002(10) 0.0327(12) 0.0007(10)
C16 0.0440(15) 0.0349(13) 0.0457(14) -0.0023(11) 0.0288(12) 0.0058(11)
C17 0.0439(14) 0.0348(13) 0.0418(13) -0.0012(11) 0.0269(12) 0.0086(11)
C18 0.0515(15) 0.0277(12) 0.0497(14) -0.0008(11) 0.0351(13) 0.0024(11)
C19 0.0508(16) 0.0346(14) 0.0554(15) -0.0011(11) 0.0403(14) 0.0029(11)
C20 0.0360(13) 0.0332(13) 0.0331(12) -0.0025(10) 0.0188(11) 0.0072(10)
C21 0.0644(18) 0.0246(12) 0.0654(17) 0.0021(12) 0.0468(16) 0.0055(12)
C22 0.0601(17) 0.0331(14) 0.0594(16) 0.0011(12) 0.0462(15) 0.0037(12)
Zn2A 0.03459 0.02274 0.02764 -0.00229 0.01971 -0.00457
O2A 0.0488 0.0409 0.0298 0.0075 0.0245 0.005
O3A 0.048 0.0448 0.0406 -0.0073 0.0149 -0.0048
O4A 0.0356 0.0371 0.0292 0.005 0.0182 0.0137
O5A 0.046 0.0345 0.0333 -0.0051 0.0186 0.009
O6A 0.13 0.167 0.049 0.0491 0.0508 0.094
O7A 0.107 0.083 0.0732 0.0381 0.0331 0.0587
O8A 0.0335 0.0286 0.0307 -0.0067 0.0202 -0.0031
N1A 0.0548 0.0662 0.0487 0.0285 0.0283 0.0245
C3A 0.0331 0.0258 0.0324 0.0044 0.0213 0.0032
C4A 0.0307 0.0265 0.0303 0.0047 0.0198 0.0023
C5A 0.0384 0.0384 0.0323 0.0083 0.0226 0.007
C6A 0.0375 0.0417 0.0394 0.0198 0.0238 0.0123
C7A 0.0466 0.0318 0.0557 0.0127 0.0322 0.0154
C8A 0.0507 0.0324 0.0438 0.0031 0.0304 0.0121
C9A 0.0416 0.0284 0.0284 -0.0005 0.0207 0.0098
C10A 0.0328 0.0228 0.0302 0.0029 0.0214 0.0001
N2D 0.0398 0.0231 0.0311 -0.0005 0.0234 0.0025
N3D 0.0373 0.0279 0.0343 -0.0004 0.022 0.0062
C11D 0.0411 0.0269 0.0321 -0.0004 0.0246 -0.0005
C12D 0.0462 0.0211 0.0357 -0.0004 0.0232 0.0011
C13D 0.0371 0.0297 0.032 -0.0016 0.0192 0.0061
C14D 0.0443 0.0343 0.0453 -0.001 0.0335 0.0031
C15D 0.0485 0.0252 0.0426 0.0002 0.0327 0.0007
C16D 0.044 0.0349 0.0457 -0.0023 0.0288 0.0058
C17D 0.0439 0.0348 0.0418 -0.0012 0.0269 0.0086
C18D 0.0515 0.0277 0.0497 -0.0008 0.0351 0.0024
C19D 0.0508 0.0346 0.0554 -0.0011 0.0403 0.0029
C20D 0.036 0.0332 0.0331 -0.0025 0.0188 0.0072
C21D 0.0644 0.0246 0.0654 0.0021 0.0468 0.0055
C22D 0.0601 0.0331 0.0594 0.0011 0.0462 0.0037
Zn1A 0.02948 0.01907 0.02407 0.00047 0.01669 -0.00065
Zn2B 0.03459 0.02274 0.02764 0.00229 0.01971 0.00457
Zn2D 0.03459 0.02274 0.02764 0.00229 0.01971 0.00457
Zn2E 0.03459 0.02274 0.02764 -0.00229 0.01971 -0.00457
Zn2F 0.03459 0.02274 0.02764 0.00229 0.01971 0.00457
O4D 0.0356 0.0371 0.0292 -0.005 0.0182 -0.0137
O5D 0.046 0.0345 0.0333 0.0051 0.0186 -0.009
O5E 0.046 0.0345 0.0333 -0.0051 0.0186 0.009
O8D 0.0335 0.0286 0.0307 0.0067 0.0202 0.0031
N3F 0.0373 0.0279 0.0343 -0.0004 0.022 0.0062
N3G 0.0373 0.0279 0.0343 0.0004 0.022 -0.0062
O9 0.0630(19) 0.0301(15) 0.082(2) 0.000 0.0225(18) 0.000
C1A 0.11 0.153 0.18 -0.012 0.067 -0.003
C2A 0.138 0.203 0.21 0.02 0.117 0.019
O1A 0.09 0.124 0.175 -0.087 0.063 -0.014
loop_
_geom_bond_atom_site_label_1
_geom_bond_atom_site_label_2
_geom_bond_site_symmetry_1
_geom_bond_site_symmetry_2
C1 H1 1_555 1_555
H2 C1 1_555 1_555
C2 C1 1_555 1_555
H3 C2 1_555 1_555
H4 C2 1_555 1_555
H5 C2 1_555 1_555
O1 C1 1_555 1_555
H6 O1 1_555 1_555
Zn1 O4 1_555 1_555
Zn2 O8 1_555 1_555
O2 C9 1_555 1_555
O3 C9 1_555 1_555
O4 C10 1_555 1_555
O5 C10 1_555 1_555
O6 N1 1_555 1_555
O7 N1 1_555 1_555
O8 Zn1 1_555 1_555
H7 O8 1_555 1_555
N1 C6 1_555 1_555
N2 Zn1 1_555 1_555
N3 C18 1_555 1_555
C3 C4 1_555 1_555
C4 C5 1_555 1_555
C5 H8 1_555 1_555
C6 C5 1_555 1_555
C7 C6 1_555 1_555
H9 C7 1_555 1_555
C8 C3 1_555 1_555
H10 C8 1_555 1_555
C9 C3 1_555 1_555
C10 C4 1_555 1_555
C11 N2 1_555 1_555
H11 C11 1_555 1_555
C12 C11 1_555 1_555
H12 C12 1_555 1_555
C13 C12 1_555 1_555
C14 C13 1_555 1_555
H13 C14 1_555 1_555
C15 N2 1_555 1_555
H14 C15 1_555 1_555
C16 C13 1_555 1_555
H15 C16 1_555 1_555
C17 C16 1_555 1_555
H16 C17 1_555 1_555
C18 H17 1_555 1_555
C19 C18 1_555 1_555
H18 C19 1_555 1_555
C20 C17 1_555 1_555
C21 C20 1_555 1_555
H19 C21 1_555 1_555
C22 N3 1_555 1_555
H20 C22 1_555 1_555
O9 H21 1_555 1_555
C1A H1A 1_555 1_555
H2A C1A 1_555 1_555
C2A C1A 1_555 1_555
H3A C2A 1_555 1_555
H4A C2A 1_555 1_555
H5A C2A 1_555 1_555
O1A C1A 1_555 1_555
H6A O1A 1_555 1_555
Zn2A O2 1_555 1_555
O2A Zn2 1_555 1_555
O3A C9A 1_555 1_555
O4A C10A 1_555 1_555
O5A C10A 1_555 1_555
O6A N1A 1_555 1_555
O7A N1A 1_555 1_555
O8A Zn2A 1_555 1_555
H7A O8A 1_555 1_555
N1A C6A 1_555 1_555
C3A C4A 1_555 1_555
C4A C5A 1_555 1_555
C5A H8A 1_555 1_555
C6A C5A 1_555 1_555
C7A C6A 1_555 1_555
H9A C7A 1_555 1_555
C8A C3A 1_555 1_555
H10A C8A 1_555 1_555
C9A O2A 1_555 1_555
C10A C4A 1_555 1_555
N2D Zn1 1_555 1_555
N3D C18D 1_555 1_555
C11D N2D 1_555 1_555
H11D C11D 1_555 1_555
C12D C11D 1_555 1_555
H12D C12D 1_555 1_555
C13D C12D 1_555 1_555
C14D C13D 1_555 1_555
H13D C14D 1_555 1_555
C15D N2D 1_555 1_555
H14D C15D 1_555 1_555
C16D C13D 1_555 1_555
H15D C16D 1_555 1_555
C17D C16D 1_555 1_555
H16D C17D 1_555 1_555
C18D H17D 1_555 1_555
C19D C18D 1_555 1_555
H18D C19D 1_555 1_555
C20D C17D 1_555 1_555
C21D C20D 1_555 1_555
H19D C21D 1_555 1_555
C22D N3D 1_555 1_555
H20D C22D 1_555 1_555
Zn1A O4A 1_555 1_555
Zn2B N3D 1_555 1_555
Zn2D O5 1_555 1_555
Zn2E O5A 1_555 1_555
Zn2F N3 1_555 1_555
O4D Zn1 1_555 1_555
O5D Zn2 1_555 1_555
O5E Zn2A 1_555 1_555
O8D Zn1 1_555 1_555
N3F Zn2 1_555 1_555
N3G Zn2A 1_555 1_555
H21A O9 1_555 1_555
C7 C8 1_555 1_555
C14 C15 1_555 1_555
C19 C20 1_555 1_555
C21 C22 1_555 1_555
O8A Zn1A 1_555 1_555
C3A C9A 1_555 1_555
C7A C8A 1_555 1_555
C14D C15D 1_555 1_555
C19D C20D 1_555 1_555
C21D C22D 1_555 1_555
Zn2D O8D 1_555 1_555

#END
