
#######################################################################
#
#                 Cambridge Crystallographic Data Centre
#                                CCDC 
#
#######################################################################
#
# If this CIF has been generated from an entry in the Cambridge 
# Structural Database, then it will include bibliographic, chemical, 
# crystal, experimental, refinement or atomic coordinate data resulting 
# from the CCDC's data processing and validation procedures.
#
#######################################################################

data_UYAQER
_chemical_formula_moiety         '(C26 H20 N10 Zn1)n'
_symmetry_cell_setting           rhombohedral
_symmetry_space_group_name_H-M   'R -3'
_symmetry_Int_Tables_number      148
_space_group_name_Hall           '-R 3'
loop_
_symmetry_equiv_pos_site_id
_symmetry_equiv_pos_as_xyz
1 x,y,z
2 -y,x-y,z
3 -x+y,-x,z
4 2/3+x,1/3+y,1/3+z
5 2/3-y,1/3+x-y,1/3+z
6 2/3-x+y,1/3-x,1/3+z
7 1/3+x,2/3+y,2/3+z
8 1/3-y,2/3+x-y,2/3+z
9 1/3-x+y,2/3-x,2/3+z
10 -x,-y,-z
11 y,-x+y,-z
12 x-y,x,-z
13 1/3-x,2/3-y,2/3-z
14 1/3+y,2/3-x+y,2/3-z
15 1/3+x-y,2/3+x,2/3-z
16 2/3-x,1/3-y,1/3-z
17 2/3+y,1/3-x+y,1/3-z
18 2/3+x-y,1/3+x,1/3-z
_cell_length_a                   27.214(9)
_cell_length_b                   27.214(9)
_cell_length_c                   10.206(6)
_cell_angle_alpha                90
_cell_angle_beta                 90
_cell_angle_gamma                120
_cell_volume                     6545.92
loop_
_atom_site_label
_atom_site_type_symbol
_atom_site_fract_x
_atom_site_fract_y
_atom_site_fract_z
_atom_site_U_iso_or_equiv
_atom_site_thermal_displace_type
Zn1 Zn 0.5000 -0.0000 0.5000 0.0408 Uani
N1 N 0.55916(16) 0.07196(17) 0.3798(4) 0.0404 Uani
N2 N 0.45585(16) -0.01144(17) 0.3326(4) 0.0354 Uani
N3 N 0.40402(16) -0.05076(17) 0.2849(4) 0.0383 Uani
N4 N 0.44913(17) 0.01639(17) 0.1292(4) 0.0388 Uani
N5 N 0.25586(17) -0.12472(18) -0.0763(4) 0.0450 Uani
C1 C 0.6128(2) 0.1103(3) 0.4120(6) 0.0613 Uani
H1 H 0.6261 0.1095 0.4954 0.0740 Uiso
C2 C 0.6481(2) 0.1505(3) 0.3246(6) 0.0743 Uani
H2 H 0.6852 0.1766 0.3480 0.0890 Uiso
C3 C 0.6286(2) 0.1522(3) 0.2037(6) 0.0654 Uani
H3 H 0.6527 0.1797 0.1445 0.0780 Uiso
C4 C 0.5739(2) 0.1143(2) 0.1661(5) 0.0427 Uani
C5 C 0.5402(2) 0.0731(2) 0.2591(5) 0.0339 Uani
C6 C 0.48093(19) 0.0268(2) 0.2364(5) 0.0336 Uani
C7 C 0.4021(2) -0.0329(2) 0.1642(5) 0.0363 Uani
C8 C 0.3532(2) -0.0634(2) 0.0779(5) 0.0347 Uani
C9 C 0.3120(2) -0.1186(2) 0.1084(5) 0.0458 Uani
H4 H 0.3162 -0.1365 0.1817 0.0550 Uiso
C10 C 0.2654(2) -0.1464(2) 0.0302(5) 0.0481 Uani
H5 H 0.2384 -0.1833 0.0534 0.0580 Uiso
C11 C 0.2967(2) -0.0720(2) -0.1075(5) 0.0547 Uani
H6 H 0.2922 -0.0556 -0.1831 0.0660 Uiso
C12 C 0.3446(2) -0.0411(2) -0.0345(5) 0.0521 Uani
H7 H 0.3715 -0.0047 -0.0610 0.0630 Uiso
C13 C 0.5522(2) 0.1160(2) 0.0323(5) 0.0681 Uani
H8 H 0.5815 0.1469 -0.0164 0.1020 Uiso
H9 H 0.5199 0.1211 0.0400 0.1020 Uiso
H10 H 0.5414 0.0809 -0.0124 0.1020 Uiso
Zn1E Zn 0.1667 -0.1667 -0.1667 0.0408 Uani
Zn1H Zn 0.8333 0.1667 1.1667 0.0408 Uani
N1I N 0.44084(16) -0.07196(17) 0.6202(4) 0.0404 Uani
N2I N 0.54415(16) 0.01144(17) 0.6674(4) 0.0354 Uani
N3I N 0.59598(16) 0.05076(17) 0.7151(4) 0.0383 Uani
N4I N 0.55087(17) -0.01639(17) 0.8708(4) 0.0388 Uani
N5I N 0.74414(17) 0.12472(18) 1.0763(4) 0.0450 Uani
N5G N 0.45805(18) 0.04725(25) 0.5904(4) 0.0450 Uani
N5P N 0.54195(18) -0.04725(25) 0.4096(4) 0.0450 Uani
C1I C 0.3872(2) -0.1103(3) 0.5880(6) 0.0613 Uani
H1I H 0.3739 -0.1095 0.5046 0.0740 Uiso
C2I C 0.3519(2) -0.1505(3) 0.6754(6) 0.0743 Uani
H2I H 0.3148 -0.1766 0.6520 0.0890 Uiso
C3I C 0.3714(2) -0.1522(3) 0.7963(6) 0.0654 Uani
H3I H 0.3473 -0.1797 0.8555 0.0780 Uiso
C4I C 0.4261(2) -0.1143(2) 0.8339(5) 0.0427 Uani
C5I C 0.4598(2) -0.0731(2) 0.7409(5) 0.0339 Uani
C6I C 0.51907(19) -0.0268(2) 0.7636(5) 0.0336 Uani
C7I C 0.5979(2) 0.0329(2) 0.8358(5) 0.0363 Uani
C8I C 0.6468(2) 0.0634(2) 0.9221(5) 0.0347 Uani
C9I C 0.6880(2) 0.1186(2) 0.8916(5) 0.0458 Uani
H4I H 0.6838 0.1365 0.8183 0.0550 Uiso
C10I C 0.7346(2) 0.1464(2) 0.9698(5) 0.0481 Uani
H5I H 0.7616 0.1833 0.9466 0.0580 Uiso
C11I C 0.7033(2) 0.0720(2) 1.1075(5) 0.0547 Uani
H6I H 0.7078 0.0556 1.1831 0.0660 Uiso
C12I C 0.6554(2) 0.0411(2) 1.0345(5) 0.0521 Uani
H7I H 0.6285 0.0047 1.0610 0.0630 Uiso
C13I C 0.4478(2) -0.1160(2) 0.9677(5) 0.0681 Uani
H8I H 0.4185 -0.1469 1.0164 0.1020 Uiso
H9I H 0.4801 -0.1211 0.9600 0.1020 Uiso
H10I H 0.4586 -0.0809 1.0124 0.1020 Uiso
loop_
_atom_site_aniso_label
_atom_site_aniso_U_11
_atom_site_aniso_U_22
_atom_site_aniso_U_33
_atom_site_aniso_U_23
_atom_site_aniso_U_13
_atom_site_aniso_U_12
Zn1 0.0339(5) 0.0591(6) 0.0325(5) -0.0105(5) -0.0106(4) 0.0255(5)
N1 0.036(3) 0.055(3) 0.032(3) -0.014(2) -0.013(2) 0.024(2)
N2 0.024(2) 0.049(3) 0.037(3) -0.011(2) -0.010(2) 0.021(2)
N3 0.034(3) 0.060(3) 0.027(3) -0.011(2) -0.012(2) 0.028(2)
N4 0.036(3) 0.046(3) 0.035(3) -0.006(2) -0.015(2) 0.021(2)
N5 0.038(3) 0.047(3) 0.035(3) 0.006(2) -0.010(2) 0.010(2)
C1 0.039(4) 0.075(5) 0.060(4) -0.016(4) -0.021(3) 0.021(3)
C2 0.035(4) 0.091(5) 0.067(5) -0.003(4) -0.018(4) 0.009(4)
C3 0.042(4) 0.078(5) 0.059(4) 0.005(4) -0.006(3) 0.017(4)
C4 0.036(3) 0.051(4) 0.044(4) -0.008(3) -0.004(3) 0.024(3)
C5 0.029(3) 0.048(3) 0.035(3) -0.012(3) -0.006(2) 0.027(3)
C6 0.029(3) 0.046(3) 0.034(3) -0.006(3) -0.003(3) 0.025(3)
C7 0.029(3) 0.045(3) 0.037(3) -0.014(3) -0.011(3) 0.020(3)
C8 0.030(3) 0.046(3) 0.028(3) -0.002(3) -0.005(2) 0.019(3)
C9 0.038(3) 0.058(4) 0.036(3) 0.020(3) -0.009(3) 0.020(3)
C10 0.034(3) 0.055(4) 0.047(4) 0.018(3) -0.004(3) 0.016(3)
C11 0.043(3) 0.052(4) 0.040(4) 0.018(3) -0.019(3) 0.002(3)
C12 0.039(3) 0.046(4) 0.047(4) 0.010(3) -0.019(3) 0.003(3)
C13 0.053(4) 0.077(5) 0.059(4) 0.009(4) -0.009(3) 0.021(4)
Zn1E 0.042 0.0339 0.0325 0.0106 0.0001 0.0084
Zn1H 0.042 0.0339 0.0325 0.0106 0.0001 0.0084
N1I 0.036 0.055 0.032 -0.014 -0.013 0.024
N2I 0.024 0.049 0.037 -0.011 -0.01 0.021
N3I 0.034 0.06 0.027 -0.011 -0.012 0.028
N4I 0.036 0.046 0.035 -0.006 -0.015 0.021
N5I 0.038 0.047 0.035 0.006 -0.01 0.01
N5G 0.047 0.065 0.035 -0.016 -0.006 0.037
N5P 0.047 0.065 0.035 -0.016 -0.006 0.037
C1I 0.039 0.075 0.06 -0.016 -0.021 0.021
C2I 0.035 0.091 0.067 -0.003 -0.018 0.009
C3I 0.042 0.078 0.059 0.005 -0.006 0.017
C4I 0.036 0.051 0.044 -0.008 -0.004 0.024
C5I 0.029 0.048 0.035 -0.012 -0.006 0.027
C6I 0.029 0.046 0.034 -0.006 -0.003 0.025
C7I 0.029 0.045 0.037 -0.014 -0.011 0.02
C8I 0.03 0.046 0.028 -0.002 -0.005 0.019
C9I 0.038 0.058 0.036 0.02 -0.009 0.02
C10I 0.034 0.055 0.047 0.018 -0.004 0.016
C11I 0.043 0.052 0.04 0.018 -0.019 0.002
C12I 0.039 0.046 0.047 0.01 -0.019 0.003
C13I 0.053 0.077 0.059 0.009 -0.009 0.021
loop_
_geom_bond_atom_site_label_1
_geom_bond_atom_site_label_2
_geom_bond_site_symmetry_1
_geom_bond_site_symmetry_2
Zn1 N1 1_555 1_555
N1 C1 1_555 1_555
N2 Zn1 1_555 1_555
N3 N2 1_555 1_555
N4 C6 1_555 1_555
N5 C10 1_555 1_555
C1 H1 1_555 1_555
C2 C1 1_555 1_555
H2 C2 1_555 1_555
C3 C2 1_555 1_555
H3 C3 1_555 1_555
C4 C3 1_555 1_555
C5 N1 1_555 1_555
C6 N2 1_555 1_555
C7 N3 1_555 1_555
C8 C7 1_555 1_555
C9 C8 1_555 1_555
H4 C9 1_555 1_555
C10 C9 1_555 1_555
H5 C10 1_555 1_555
C11 N5 1_555 1_555
H6 C11 1_555 1_555
C12 C8 1_555 1_555
H7 C12 1_555 1_555
C13 C4 1_555 1_555
H8 C13 1_555 1_555
H9 C13 1_555 1_555
H10 C13 1_555 1_555
Zn1E N5 1_555 1_555
Zn1H N5I 1_555 1_555
N1I Zn1 1_555 1_555
N2I Zn1 1_555 1_555
N3I N2I 1_555 1_555
N4I C6I 1_555 1_555
N5I C10I 1_555 1_555
N5G Zn1 1_555 1_555
N5P Zn1 1_555 1_555
C1I N1I 1_555 1_555
H1I C1I 1_555 1_555
C2I C1I 1_555 1_555
H2I C2I 1_555 1_555
C3I C2I 1_555 1_555
H3I C3I 1_555 1_555
C4I C3I 1_555 1_555
C5I N1I 1_555 1_555
C6I N2I 1_555 1_555
C7I N3I 1_555 1_555
C8I C7I 1_555 1_555
C9I C8I 1_555 1_555
H4I C9I 1_555 1_555
C10I C9I 1_555 1_555
H5I C10I 1_555 1_555
C11I N5I 1_555 1_555
H6I C11I 1_555 1_555
C12I C8I 1_555 1_555
H7I C12I 1_555 1_555
C13I C4I 1_555 1_555
H8I C13I 1_555 1_555
H9I C13I 1_555 1_555
H10I C13I 1_555 1_555
N4 C7 1_555 1_555
C4 C5 1_555 1_555
C5 C6 1_555 1_555
C11 C12 1_555 1_555
N4I C7I 1_555 1_555
C4I C5I 1_555 1_555
C5I C6I 1_555 1_555
C11I C12I 1_555 1_555

#END
