
#######################################################################
#
#                 Cambridge Crystallographic Data Centre
#                                CCDC 
#
#######################################################################
#
# If this CIF has been generated from an entry in the Cambridge 
# Structural Database, then it will include bibliographic, chemical, 
# crystal, experimental, refinement or atomic coordinate data resulting 
# from the CCDC's data processing and validation procedures.
#
#######################################################################

data_INIQON
_chemical_formula_moiety         '(C56 H36 Cd3 N2 O12)n'
_symmetry_cell_setting           triclinic
_symmetry_space_group_name_H-M   'P -1'
_symmetry_Int_Tables_number      2
_space_group_name_Hall           '-P 1'
loop_
_symmetry_equiv_pos_site_id
_symmetry_equiv_pos_as_xyz
1 x,y,z
2 -x,-y,-z
_cell_length_a                   9.3767(15)
_cell_length_b                   13.5246(18)
_cell_length_c                   14.0167(14)
_cell_angle_alpha                63.182(3)
_cell_angle_beta                 89.797(3)
_cell_angle_gamma                73.3358(14)
_cell_volume                     1503.18
loop_
_atom_site_label
_atom_site_type_symbol
_atom_site_fract_x
_atom_site_fract_y
_atom_site_fract_z
C1 C 0.0590(4) 0.2925(3) 0.4054(3)
H1 H -0.0507 0.3143 0.4011
C2 C 0.1032(4) 0.2137(3) 0.3526(3)
C3 C 0.2335(5) 0.1249(4) 0.3820(4)
H2 H 0.2998 0.1063 0.4412
C4 C 0.2714(5) 0.0605(4) 0.3264(3)
H3 H 0.3621 -0.0001 0.3482
C5 C 0.1744(4) 0.0868(3) 0.2389(3)
C6 C 0.0396(5) 0.1765(3) 0.2094(3)
H4 H -0.0277 0.1944 0.1510
C7 C 0.0036(5) 0.2396(4) 0.2656(4)
H5 H -0.0876 0.2995 0.2450
C8 C 0.2165(4) 0.0212(3) 0.1734(3)
C9 C 0.1228(4) 0.2228(3) 0.5268(2)
C10 C 0.0505(4) 0.1490(3) 0.5959(3)
H6 H -0.0359 0.1430 0.5696
C11 C 0.1079(4) 0.0844(3) 0.7040(3)
H7 H 0.0595 0.0340 0.7500
C12 C 0.2352(4) 0.0915(3) 0.7468(3)
C13 C 0.3034(4) 0.1669(3) 0.6759(3)
H8 H 0.3890 0.1738 0.7022
C14 C 0.2490(4) 0.2324(3) 0.5670(3)
H9 H 0.2973 0.2828 0.5209
C15 C 0.2864(4) 0.0249(3) 0.8639(3)
C16 C 0.0938(4) 0.4032(3) 0.3486(3)
C17 C 0.0066(4) 0.5016(4) 0.3549(3)
H10 H -0.0710 0.4962 0.3965
C18 C 0.0340(4) 0.6100(3) 0.2989(3)
H11 H -0.0284 0.6753 0.3022
C19 C 0.1499(4) 0.6205(3) 0.2403(3)
C20 C 0.2446(5) 0.5188(4) 0.2399(4)
H12 H 0.3287 0.5217 0.2046
C21 C 0.2132(4) 0.4145(3) 0.2917(3)
H13 H 0.2754 0.3494 0.2880
C22 C 0.1735(4) 0.7364(3) 0.1740(3)
C23 C 0.7367(5) -0.2648(4) 0.0772(4)
H14 H 0.7653 -0.2177 0.1002
C24 C 0.8475(4) -0.3438(4) 0.0596(4)
H15 H 0.9478 -0.3511 0.0738
C25 C 0.8127(4) -0.4107(4) 0.0221(4)
C26 C 0.6582(5) -0.3851(5) -0.0081(5)
H16 H 0.6259 -0.4205 -0.0434
C27 C 0.5590(6) -0.3089(5) 0.0150(5)
H17 H 0.4574 -0.2943 -0.0042
C28 C 0.9276(4) -0.4936(4) -0.0027(4)
H18 H 0.8947 -0.5404 -0.0238
Cd1 Cd 0.40094(3) -0.11913(2) 0.08434(2)
Cd2 Cd 0.0000 0.0000 0.0000
N1 N 0.5945(4) -0.2517(3) 0.0636(3)
O1 O 0.3349(3) -0.0630(3) 0.2090(3)
O2 O 0.1316(4) 0.0574(3) 0.0876(2)
O3 O 0.2234(3) -0.0465(2) 0.9265(2)
O4 O 0.3978(3) 0.0318(2) 0.90491(19)
O5 O 0.0560(3) 0.8217(2) 0.1360(2)
O6 O 0.3051(3) 0.7332(2) 0.1600(2)
C23A C 1.2633(5) -0.7352(4) -0.0772(4)
H14A H 1.2347 -0.7823 -0.1002
C24A C 1.1525(4) -0.6562(4) -0.0596(4)
H15A H 1.0522 -0.6489 -0.0738
C25A C 1.1873(4) -0.5893(4) -0.0221(4)
C26A C 1.3418(5) -0.6149(5) 0.0081(5)
H16A H 1.3741 -0.5795 0.0434
C27A C 1.4410(6) -0.6911(5) -0.0150(5)
H17A H 1.5426 -0.7057 0.0042
C28A C 1.0724(4) -0.5064(4) 0.0027(4)
H18A H 1.1053 -0.4596 0.0238
N1A N 1.4055(4) -0.7483(3) -0.0636(3)
C1A C -0.0590(4) -0.2925(3) -0.4054(3)
H1A H 0.0507 -0.3143 -0.4011
C2A C -0.1032(4) -0.2137(3) -0.3526(3)
C3A C -0.2335(5) -0.1249(4) -0.3820(4)
H2A H -0.2998 -0.1063 -0.4412
C4A C -0.2714(5) -0.0605(4) -0.3264(3)
H3A H -0.3621 0.0001 -0.3482
C5A C -0.1744(4) -0.0868(3) -0.2389(3)
C6A C -0.0396(5) -0.1765(3) -0.2094(3)
H4A H 0.0277 -0.1944 -0.1510
C7A C -0.0036(5) -0.2396(4) -0.2656(4)
H5A H 0.0876 -0.2995 -0.2450
C8A C -0.2165(4) -0.0212(3) -0.1734(3)
C9A C -0.1228(4) -0.2228(3) -0.5268(2)
C10A C -0.0505(4) -0.1490(3) -0.5959(3)
H6A H 0.0359 -0.1430 -0.5696
C11A C -0.1079(4) -0.0844(3) -0.7040(3)
H7A H -0.0595 -0.0340 -0.7500
C12A C -0.2352(4) -0.0915(3) -0.7468(3)
C13A C -0.3034(4) -0.1669(3) -0.6759(3)
H8A H -0.3890 -0.1738 -0.7022
C14A C -0.2490(4) -0.2324(3) -0.5670(3)
H9A H -0.2973 -0.2828 -0.5209
C15A C -0.2864(4) -0.0249(3) -0.8639(3)
C16A C -0.0938(4) -0.4032(3) -0.3486(3)
C17A C -0.0066(4) -0.5016(4) -0.3549(3)
H10A H 0.0710 -0.4962 -0.3965
C18A C -0.0340(4) -0.6100(3) -0.2989(3)
H11A H 0.0284 -0.6753 -0.3022
C19A C -0.1499(4) -0.6205(3) -0.2403(3)
C20A C -0.2446(5) -0.5188(4) -0.2399(4)
H12A H -0.3287 -0.5217 -0.2046
C21A C -0.2132(4) -0.4145(3) -0.2917(3)
H13A H -0.2754 -0.3494 -0.2880
C22A C -0.1735(4) -0.7364(3) -0.1740(3)
Cd1A Cd -0.40094(3) 0.11913(2) -0.08434(2)
O1A O -0.3349(3) 0.0630(3) -0.2090(3)
O2A O -0.1316(4) -0.0574(3) -0.0876(2)
O3A O -0.2234(3) 0.0465(2) -0.9265(2)
O4A O -0.3978(3) -0.0318(2) -0.90491(19)
O5A O -0.0560(3) -0.8217(2) -0.1360(2)
O6A O -0.3051(3) -0.7332(2) -0.1600(2)
Cd1_2 Cd -0.59906(3) -0.11913(2) -0.91566(2)
Cd1_3 Cd 0.40094(3) -0.11913(2) 1.08434(2)
Cd1_4 Cd 0.40094(3) 0.88087(2) 0.08434(2)
Cd1A_2 Cd -0.40094(3) -0.88087(2) -0.08434(2)
Cd1A_3 Cd -0.40094(3) 0.11913(2) -1.08434(2)
Cd1A_4 Cd 0.59906(3) 0.11913(2) 0.91566(2)
Cd1A_5 Cd 1.59906(3) -0.88087(2) -0.08434(2)
Cd2_2 Cd 0.0000 -1.0000 0.0000
Cd2_3 Cd 0.0000 0.0000 -1.0000
Cd2_4 Cd -0.0000 0.0000 1.0000
Cd2_5 Cd -0.0000 1.0000 0.0000
N1A_2 N -0.5945(4) 0.2517(3) -0.0636(3)
O3_2 O 0.2234(3) -0.0465(2) -0.0735(2)
O3A_2 O -0.2234(3) 0.0465(2) 0.0735(2)
O4_2 O -0.6022(3) 0.0318(2) -0.09509(19)
O4_3 O 0.3978(3) 0.0318(2) -0.09509(19)
O4A_2 O -0.3978(3) -0.0318(2) 0.09509(19)
O4A_3 O 0.6022(3) -0.0318(2) 0.09509(19)
O5_2 O 0.0560(3) -0.1783(2) 0.1360(2)
O5A_2 O -0.0560(3) 0.1783(2) -0.1360(2)
O6_2 O 0.3051(3) -0.2668(2) 0.1600(2)
O6A_2 O -0.3051(3) 0.2668(2) -0.1600(2)
loop_
_geom_bond_atom_site_label_1
_geom_bond_atom_site_label_2
_geom_bond_site_symmetry_1
_geom_bond_site_symmetry_2
C1 H1 1_555 1_555
C2 C1 1_555 1_555
C3 C2 1_555 1_555
H2 C3 1_555 1_555
C4 C3 1_555 1_555
H3 C4 1_555 1_555
C5 C4 1_555 1_555
C6 C5 1_555 1_555
H4 C6 1_555 1_555
C7 C2 1_555 1_555
H5 C7 1_555 1_555
C8 C5 1_555 1_555
C9 C1 1_555 1_555
C10 C9 1_555 1_555
H6 C10 1_555 1_555
C11 C10 1_555 1_555
H7 C11 1_555 1_555
C12 C11 1_555 1_555
C13 C12 1_555 1_555
H8 C13 1_555 1_555
C14 C9 1_555 1_555
H9 C14 1_555 1_555
C15 C12 1_555 1_555
C16 C1 1_555 1_555
C17 C16 1_555 1_555
H10 C17 1_555 1_555
C18 C17 1_555 1_555
H11 C18 1_555 1_555
C19 C18 1_555 1_555
C20 C19 1_555 1_555
H12 C20 1_555 1_555
C21 C16 1_555 1_555
H13 C21 1_555 1_555
C22 C19 1_555 1_555
C23 H14 1_555 1_555
C24 C23 1_555 1_555
H15 C24 1_555 1_555
C25 C24 1_555 1_555
C26 C25 1_555 1_555
H16 C26 1_555 1_555
C27 C26 1_555 1_555
H17 C27 1_555 1_555
C28 C25 1_555 1_555
H18 C28 1_555 1_555
Cd1 N1 1_555 1_555
Cd2 O2 1_555 1_555
N1 C23 1_555 1_555
O1 C8 1_555 1_555
O2 C8 1_555 1_555
O3 C15 1_555 1_555
O4 C15 1_555 1_555
O5 C22 1_555 1_555
O6 C22 1_555 1_555
C23A H14A 1_555 1_555
C24A C23A 1_555 1_555
H15A C24A 1_555 1_555
C25A C24A 1_555 1_555
C26A C25A 1_555 1_555
H16A C26A 1_555 1_555
C27A C26A 1_555 1_555
H17A C27A 1_555 1_555
C28A C28 1_555 1_555
H18A C28A 1_555 1_555
N1A C23A 1_555 1_555
C1A H1A 1_555 1_555
C2A C1A 1_555 1_555
C3A C2A 1_555 1_555
H2A C3A 1_555 1_555
C4A C3A 1_555 1_555
H3A C4A 1_555 1_555
C5A C4A 1_555 1_555
C6A C5A 1_555 1_555
H4A C6A 1_555 1_555
C7A C2A 1_555 1_555
H5A C7A 1_555 1_555
C8A C5A 1_555 1_555
C9A C1A 1_555 1_555
C10A C9A 1_555 1_555
H6A C10A 1_555 1_555
C11A C10A 1_555 1_555
H7A C11A 1_555 1_555
C12A C11A 1_555 1_555
C13A C12A 1_555 1_555
H8A C13A 1_555 1_555
C14A C9A 1_555 1_555
H9A C14A 1_555 1_555
C15A C12A 1_555 1_555
C16A C1A 1_555 1_555
C17A C16A 1_555 1_555
H10A C17A 1_555 1_555
C18A C17A 1_555 1_555
H11A C18A 1_555 1_555
C19A C18A 1_555 1_555
C20A C19A 1_555 1_555
H12A C20A 1_555 1_555
C21A C16A 1_555 1_555
H13A C21A 1_555 1_555
C22A C19A 1_555 1_555
Cd1A O1A 1_555 1_555
O1A C8A 1_555 1_555
O2A Cd2 1_555 1_555
O3A C15A 1_555 1_555
O4A C15A 1_555 1_555
O5A C22A 1_555 1_555
O6A C22A 1_555 1_555
Cd1_2 O4A 1_555 1_555
Cd1_3 O3 1_555 1_555
Cd1_4 O6 1_555 1_555
Cd1A_2 O6A 1_555 1_555
Cd1A_3 O3A 1_555 1_555
Cd1A_4 O4 1_555 1_555
Cd1A_5 N1A 1_555 1_555
Cd2_2 O5A 1_555 1_555
Cd2_3 O3A 1_555 1_555
Cd2_4 O3 1_555 1_555
Cd2_5 O5 1_555 1_555
N1A_2 Cd1A 1_555 1_555
O3_2 Cd1 1_555 1_555
O3A_2 Cd2 1_555 1_555
O4_2 Cd1A 1_555 1_555
O4_3 Cd1 1_555 1_555
O4A_2 Cd1A 1_555 1_555
O4A_3 Cd1 1_555 1_555
O5_2 Cd2 1_555 1_555
O5A_2 Cd2 1_555 1_555
O6_2 Cd1 1_555 1_555
O6A_2 Cd1A 1_555 1_555
C6 C7 1_555 1_555
C13 C14 1_555 1_555
C20 C21 1_555 1_555
C27 N1 1_555 1_555
Cd1 O1 1_555 1_555
Cd2 O3_2 1_555 1_555
O4 Cd1_3 1_555 1_555
C25A C28A 1_555 1_555
C27A N1A 1_555 1_555
C6A C7A 1_555 1_555
C8A O2A 1_555 1_555
C13A C14A 1_555 1_555
C20A C21A 1_555 1_555
Cd1A O3A_2 1_555 1_555
O4A Cd1A_3 1_555 1_555

#END
