
#######################################################################
#
#                 Cambridge Crystallographic Data Centre
#                                CCDC 
#
#######################################################################
#
# If this CIF has been generated from an entry in the Cambridge 
# Structural Database, then it will include bibliographic, chemical, 
# crystal, experimental, refinement or atomic coordinate data resulting 
# from the CCDC's data processing and validation procedures.
#
#######################################################################

data_INIQIH
_chemical_formula_moiety         '(C54 H34 Cd3 N2 O12)n'
_symmetry_cell_setting           monoclinic
_symmetry_space_group_name_H-M   'P 2/n'
_symmetry_Int_Tables_number      13
_space_group_name_Hall           '-P 2yac'
loop_
_symmetry_equiv_pos_site_id
_symmetry_equiv_pos_as_xyz
1 x,y,z
2 1/2-x,y,1/2-z
3 -x,-y,-z
4 1/2+x,-y,1/2+z
_cell_length_a                   13.3405(13)
_cell_length_b                   9.3835(12)
_cell_length_c                   23.3073(13)
_cell_angle_alpha                90
_cell_angle_beta                 94.221(3)
_cell_angle_gamma                90
_cell_volume                     2909.71
loop_
_atom_site_label
_atom_site_type_symbol
_atom_site_fract_x
_atom_site_fract_y
_atom_site_fract_z
C1 C 0.5559(3) 0.2778(6) 0.6898(2)
H1 H 0.5547 0.3717 0.7082
C2 C 0.6434(4) 0.2745(5) 0.64977(19)
C3 C 0.6447(4) 0.1883(5) 0.6027(2)
H2 H 0.5921 0.1251 0.5939
C4 C 0.7266(4) 0.1952(6) 0.5671(2)
H3 H 0.7281 0.1349 0.5355
C5 C 0.8031(3) 0.2902(5) 0.5791(2)
C6 C 0.8025(4) 0.3743(6) 0.6276(2)
H4 H 0.8558 0.4358 0.6373
C7 C 0.7212(4) 0.3667(6) 0.6624(2)
H5 H 0.7202 0.4252 0.6946
C8 C 0.8839(4) 0.3053(5) 0.5385(2)
C9 C 0.4552(4) 0.2543(5) 0.6551(2)
C10 C 0.4011(4) 0.3689(6) 0.6378(2)
H6 H 0.4187 0.4549 0.6506
C11 C 0.3070(4) 0.3573(6) 0.6038(2)
H7 H 0.2702 0.4384 0.5929
C12 C 0.2732(4) 0.2268(5) 0.5880(2)
C13 C 0.3258(4) 0.1068(6) 0.6054(2)
H8 H 0.3004 0.0171 0.5955
C14 C 0.4185(4) 0.1197(6) 0.6381(2)
H9 H 0.4555 0.0385 0.6485
C15 C 0.1804(4) 0.2091(5) 0.5473(2)
C16 C 0.5712(3) 0.1611(5) 0.7380(2)
C17 C 0.6259(4) 0.0393(5) 0.7344(2)
H10 H 0.6629 0.0252 0.7026
C18 C 0.6279(4) -0.0658(6) 0.7776(2)
H11 H 0.6626 -0.1507 0.7737
C19 C 0.5765(4) -0.0391(6) 0.8262(2)
C20 C 0.5212(4) 0.0831(6) 0.8317(2)
H12 H 0.4863 0.0989 0.8642
C21 C 0.5187(4) 0.1818(5) 0.7877(2)
H13 H 0.4812 0.2646 0.7910
C22 C 0.5820(4) -0.1460(5) 0.8739(2)
C23 C 0.9049(4) 0.4924(6) 0.3472(2)
H14 H 0.9457 0.5698 0.3577
C24 C 0.8386(4) 0.4950(6) 0.2960(2)
H15 H 0.8357 0.5784 0.2743
C25 C 0.7819(4) 0.3891(6) 0.2775(2)
C26 C 0.7858(4) 0.2642(6) 0.3137(2)
H16 H 0.7469 0.1844 0.3040
C27 C 0.8467(4) 0.2667(6) 0.3615(2)
H17 H 0.8485 0.1863 0.3849
Cd1 Cd 1.02780(2) 0.34841(3) 0.454130(12)
Cd2 Cd 1.0000 0.0000 0.5000
N1 N 0.9058(4) 0.3768(5) 0.37837(19)
O1 O 0.9387(3) 0.4139(4) 0.54132(14)
O2 O 0.9011(2) 0.2045(4) 0.50489(13)
O3 O 0.1580(2) 0.3189(3) 0.51548(13)
O4 O 0.1285(3) 0.1002(4) 0.54932(16)
O5 O 0.6161(3) -0.2672(4) 0.86841(15)
O6 O 0.5370(3) -0.1091(4) 0.92056(16)
C23A C 0.5951(4) 0.4924(6) 0.1528(2)
H14A H 0.5543 0.5698 0.1423
C24A C 0.6614(4) 0.4950(6) 0.2040(2)
H15A H 0.6643 0.5784 0.2257
C25A C 0.7181(4) 0.3891(6) 0.2225(2)
C26A C 0.7142(4) 0.2642(6) 0.1863(2)
H16A H 0.7531 0.1844 0.1960
C27A C 0.6533(4) 0.2667(6) 0.1385(2)
H17A H 0.6515 0.1863 0.1151
N1A N 0.5942(4) 0.3768(5) 0.12163(19)
C1A C 0.9441(3) 0.2778(6) -0.1898(2)
H1A H 0.9453 0.3717 -0.2082
C2A C 0.8566(4) 0.2745(5) -0.14977(19)
C3A C 0.8553(4) 0.1883(5) -0.1027(2)
H2A H 0.9079 0.1251 -0.0939
C4A C 0.7734(4) 0.1952(6) -0.0671(2)
H3A H 0.7719 0.1349 -0.0355
C5A C 0.6969(3) 0.2902(5) -0.0791(2)
C6A C 0.6975(4) 0.3743(6) -0.1276(2)
H4A H 0.6442 0.4358 -0.1373
C7A C 0.7788(4) 0.3667(6) -0.1624(2)
H5A H 0.7798 0.4252 -0.1946
C8A C 0.6161(4) 0.3053(5) -0.0385(2)
C9A C 1.0448(4) 0.2543(5) -0.1551(2)
C10A C 1.0989(4) 0.3689(6) -0.1378(2)
H6A H 1.0813 0.4549 -0.1506
C11A C 1.1930(4) 0.3573(6) -0.1038(2)
H7A H 1.2298 0.4384 -0.0929
C12A C 1.2268(4) 0.2268(5) -0.0880(2)
C13A C 1.1742(4) 0.1068(6) -0.1054(2)
H8A H 1.1996 0.0171 -0.0955
C14A C 1.0815(4) 0.1197(6) -0.1381(2)
H9A H 1.0445 0.0385 -0.1485
C15A C 1.3196(4) 0.2091(5) -0.0473(2)
C16A C 0.9288(3) 0.1611(5) -0.2380(2)
C17A C 0.8741(4) 0.0393(5) -0.2344(2)
H10A H 0.8371 0.0252 -0.2026
C18A C 0.8721(4) -0.0658(6) -0.2776(2)
H11A H 0.8374 -0.1507 -0.2737
C19A C 0.9235(4) -0.0391(6) -0.3262(2)
C20A C 0.9788(4) 0.0831(6) -0.3317(2)
H12A H 1.0137 0.0989 -0.3642
C21A C 0.9813(4) 0.1818(5) -0.2877(2)
H13A H 1.0188 0.2646 -0.2910
C22A C 0.9180(4) -0.1460(5) -0.3739(2)
Cd1A Cd 0.47220(2) 0.34841(3) 0.045870(12)
O1A O 0.5613(3) 0.4139(4) -0.04132(14)
O2A O 0.5989(2) 0.2045(4) -0.00489(13)
O3A O 1.3420(2) 0.3189(3) -0.01548(13)
O4A O 1.3715(3) 0.1002(4) -0.04932(16)
O5A O 0.8839(3) -0.2672(4) -0.36841(15)
O6A O 0.9630(3) -0.1091(4) -0.42056(16)
Cd1_2 Cd 0.02780(2) 0.34841(3) 0.454130(12)
Cd1A_2 Cd 1.47220(2) 0.34841(3) 0.045870(12)
Cd1B Cd 0.97220(2) -0.34841(3) -0.454130(12)
Cd1B_2 Cd 0.97220(2) 0.65159(3) 0.545870(12)
Cd1C Cd 0.52780(2) -0.34841(3) 0.954130(12)
Cd1C_2 Cd 0.52780(2) 0.65159(3) -0.045870(12)
Cd2_2 Cd 0.0000 0.0000 0.5000
Cd2_3 Cd 1.0000 0.0000 -0.5000
Cd2A Cd 0.5000 0.0000 0.0000
Cd2A_2 Cd 0.5000 0.0000 1.0000
Cd2A_3 Cd 1.5000 0.0000 0.0000
O1B O 1.0613(3) 0.5861(4) 0.45868(14)
O1C O 0.4387(3) 0.5861(4) 0.04132(14)
O2B O 1.0989(2) -0.2045(4) 0.49511(13)
O3_2 O 1.1580(2) 0.3189(3) 0.51548(13)
O3A_2 O 0.3420(2) 0.3189(3) -0.01548(13)
O4_2 O 1.1285(3) 0.1002(4) 0.54932(16)
O4B O 0.8715(3) -0.1002(4) 0.45068(16)
O5B O 0.3839(3) 0.2672(4) 0.13159(15)
O5C O 1.1161(3) 0.2672(4) 0.36841(15)
O6A_2 O 0.9630(3) -0.1091(4) 0.57944(16)
O6B O 0.4630(3) 0.1091(4) 0.07944(16)
O6C O 1.0370(3) 0.1091(4) 0.42056(16)
loop_
_geom_bond_atom_site_label_1
_geom_bond_atom_site_label_2
_geom_bond_site_symmetry_1
_geom_bond_site_symmetry_2
C1 H1 1_555 1_555
C2 C1 1_555 1_555
C3 C2 1_555 1_555
H2 C3 1_555 1_555
C4 C3 1_555 1_555
H3 C4 1_555 1_555
C5 C4 1_555 1_555
C6 C5 1_555 1_555
H4 C6 1_555 1_555
C7 C2 1_555 1_555
H5 C7 1_555 1_555
C8 C5 1_555 1_555
C9 C1 1_555 1_555
C10 C9 1_555 1_555
H6 C10 1_555 1_555
C11 C10 1_555 1_555
H7 C11 1_555 1_555
C12 C11 1_555 1_555
C13 C12 1_555 1_555
H8 C13 1_555 1_555
C14 C9 1_555 1_555
H9 C14 1_555 1_555
C15 C12 1_555 1_555
C16 C1 1_555 1_555
C17 C16 1_555 1_555
H10 C17 1_555 1_555
C18 C17 1_555 1_555
H11 C18 1_555 1_555
C19 C18 1_555 1_555
C20 C19 1_555 1_555
H12 C20 1_555 1_555
C21 C16 1_555 1_555
H13 C21 1_555 1_555
C22 C19 1_555 1_555
C23 H14 1_555 1_555
C24 C23 1_555 1_555
H15 C24 1_555 1_555
C25 C24 1_555 1_555
C26 C25 1_555 1_555
H16 C26 1_555 1_555
C27 C26 1_555 1_555
H17 C27 1_555 1_555
Cd1 N1 1_555 1_555
Cd2 O2 1_555 1_555
N1 C23 1_555 1_555
O1 C8 1_555 1_555
O2 C8 1_555 1_555
O3 C15 1_555 1_555
O4 C15 1_555 1_555
O5 C22 1_555 1_555
O6 C22 1_555 1_555
C23A H14A 1_555 1_555
C24A C23A 1_555 1_555
H15A C24A 1_555 1_555
C25A C25 1_555 1_555
C26A C25A 1_555 1_555
H16A C26A 1_555 1_555
C27A C26A 1_555 1_555
H17A C27A 1_555 1_555
N1A C23A 1_555 1_555
C1A H1A 1_555 1_555
C2A C1A 1_555 1_555
C3A C2A 1_555 1_555
H2A C3A 1_555 1_555
C4A C3A 1_555 1_555
H3A C4A 1_555 1_555
C5A C4A 1_555 1_555
C6A C5A 1_555 1_555
H4A C6A 1_555 1_555
C7A C2A 1_555 1_555
H5A C7A 1_555 1_555
C8A C5A 1_555 1_555
C9A C1A 1_555 1_555
C10A C9A 1_555 1_555
H6A C10A 1_555 1_555
C11A C10A 1_555 1_555
H7A C11A 1_555 1_555
C12A C11A 1_555 1_555
C13A C12A 1_555 1_555
H8A C13A 1_555 1_555
C14A C9A 1_555 1_555
H9A C14A 1_555 1_555
C15A C12A 1_555 1_555
C16A C1A 1_555 1_555
C17A C16A 1_555 1_555
H10A C17A 1_555 1_555
C18A C17A 1_555 1_555
H11A C18A 1_555 1_555
C19A C18A 1_555 1_555
C20A C19A 1_555 1_555
H12A C20A 1_555 1_555
C21A C16A 1_555 1_555
H13A C21A 1_555 1_555
C22A C19A 1_555 1_555
Cd1A N1A 1_555 1_555
O1A C8A 1_555 1_555
O2A C8A 1_555 1_555
O3A C15A 1_555 1_555
O4A C15A 1_555 1_555
O5A C22A 1_555 1_555
O6A C22A 1_555 1_555
Cd1_2 O3 1_555 1_555
Cd1A_2 O3A 1_555 1_555
Cd1B O5A 1_555 1_555
Cd1B_2 O1 1_555 1_555
Cd1C O5 1_555 1_555
Cd1C_2 O1A 1_555 1_555
Cd2_2 O4 1_555 1_555
Cd2_3 O6A 1_555 1_555
Cd2A O2A 1_555 1_555
Cd2A_2 O6 1_555 1_555
Cd2A_3 O4A 1_555 1_555
O1B Cd1 1_555 1_555
O1C Cd1A 1_555 1_555
O2B Cd2 1_555 1_555
O3_2 Cd1 1_555 1_555
O3A_2 Cd1A 1_555 1_555
O4_2 Cd2 1_555 1_555
O4B Cd2 1_555 1_555
O5B Cd1A 1_555 1_555
O5C Cd1 1_555 1_555
O6A_2 Cd2 1_555 1_555
O6B Cd1A 1_555 1_555
O6C Cd1 1_555 1_555
C6 C7 1_555 1_555
C13 C14 1_555 1_555
C20 C21 1_555 1_555
C27 N1 1_555 1_555
Cd1 O1 1_555 1_555
Cd1 O2 1_555 1_555
Cd2 O6C 1_555 1_555
O6 Cd1C 1_555 1_555
C24A C25A 1_555 1_555
C27A N1A 1_555 1_555
C6A C7A 1_555 1_555
C13A C14A 1_555 1_555
C20A C21A 1_555 1_555
Cd1A O1A 1_555 1_555
Cd1A O2A 1_555 1_555
O6A Cd1B 1_555 1_555
Cd1B_2 O1B 1_555 1_555
Cd1C_2 O1C 1_555 1_555
Cd2A O6B 1_555 1_555

#END
