
#######################################################################
#
#                 Cambridge Crystallographic Data Centre
#                                CCDC 
#
#######################################################################
#
# If this CIF has been generated from an entry in the Cambridge 
# Structural Database, then it will include bibliographic, chemical, 
# crystal, experimental, refinement or atomic coordinate data resulting 
# from the CCDC's data processing and validation procedures.
#
#######################################################################

data_NOBWEI
_chemical_formula_moiety         'C80 H48 Cu10 N8 O32'
_symmetry_cell_setting           cubic
_symmetry_space_group_name_H-M   'P m -3 m'
_symmetry_Int_Tables_number      221
_space_group_name_Hall           '-P 4 2 3'
loop_
_symmetry_equiv_pos_site_id
_symmetry_equiv_pos_as_xyz
1 x,y,z
2 x,-y,-z
3 -x,-y,z
4 -x,y,-z
5 -y,x,z
6 y,x,-z
7 y,-x,z
8 -y,-x,-z
9 y,z,x
10 -y,-z,x
11 y,-z,-x
12 -y,z,-x
13 -z,y,x
14 -z,-y,-x
15 z,-y,x
16 z,y,-x
17 z,x,y
18 -z,x,-y
19 -z,-x,y
20 z,-x,-y
21 -x,-z,-y
22 -x,z,y
23 x,-z,y
24 x,z,-y
25 -x,-y,-z
26 -x,y,z
27 x,y,-z
28 x,-y,z
29 y,-x,-z
30 -y,-x,z
31 -y,x,-z
32 y,x,z
33 -y,-z,-x
34 y,z,-x
35 -y,z,x
36 y,-z,x
37 z,-y,-x
38 z,y,x
39 -z,y,-x
40 -z,-y,x
41 -z,-x,-y
42 z,-x,y
43 z,x,-y
44 -z,x,y
45 x,z,y
46 x,-z,-y
47 -x,z,-y
48 -x,-z,y
_cell_length_a                   21.753(2)
_cell_length_b                   21.753(2)
_cell_length_c                   21.753(2)
_cell_angle_alpha                90
_cell_angle_beta                 90
_cell_angle_gamma                90
_cell_volume                     10293.4
loop_
_atom_site_label
_atom_site_type_symbol
_atom_site_fract_x
_atom_site_fract_y
_atom_site_fract_z
Cu1 Cu -0.06112(11) 0.5000 0.5000
O1 O -0.1607(6) 0.5000 0.5000
C1 C 0.0000 0.3874(9) 0.485(2)
Cu2 Cu 0.0000 0.0000 0.4444(5)
O2 O 0.0000 0.0000 0.3390(16)
N1 N 0.0000 0.0900(4) 0.4696(9)
C2 C 0.0000 0.1330(7) 0.4147(9)
H1 H 0.0368 0.1246 0.3892
C3 C -0.0550(6) 0.2910(6) 0.4592(10)
H2 H -0.0926 0.3122 0.4655
C4 C -0.0560(6) 0.2296(6) 0.4423(9)
H3 H -0.0938 0.2083 0.4370
C5 C 0.0000 0.2000(6) 0.4332(7)
C6 C 0.0000 0.3219(8) 0.4671(11)
O3 O -0.0517(4) 0.4135(4) 0.487(3)
C7 C 0.0437(7) 0.0933(8) 0.5190(12)
C1C C 0.0000 0.3874(9) 0.515(2)
N1C N 0.0000 0.0900(4) 0.5304(9)
C2C C 0.0000 0.1330(7) 0.5853(9)
H1C H -0.0368 0.1246 0.6108
C3C C 0.0550(6) 0.2910(6) 0.5408(10)
H2C H 0.0926 0.3122 0.5345
C4C C 0.0560(6) 0.2296(6) 0.5577(9)
H3C H 0.0938 0.2083 0.5630
C5C C 0.0000 0.2000(6) 0.5668(7)
C6C C 0.0000 0.3219(8) 0.5329(11)
O3C O 0.0517(4) 0.4135(4) 0.513(3)
C7C C -0.0437(7) 0.0933(8) 0.4810(12)
C1D C -0.3874(9) 0.0000 0.485(2)
N1D N -0.0900(4) 0.0000 0.4696(9)
C2D C -0.1330(7) 0.0000 0.4147(9)
H1D H -0.1246 0.0368 0.3892
C3D C -0.2910(6) -0.0550(6) 0.4592(10)
H2D H -0.3122 -0.0926 0.4655
C4D C -0.2296(6) -0.0560(6) 0.4423(9)
H3D H -0.2083 -0.0938 0.4370
C5D C -0.2000(6) 0.0000 0.4332(7)
C6D C -0.3219(8) 0.0000 0.4671(11)
O3D O -0.4135(4) -0.0517(4) 0.487(3)
C7D C -0.0933(8) 0.0437(7) 0.5190(12)
C1E C 0.3874(9) 0.0000 0.515(2)
N1E N 0.0900(4) 0.0000 0.5304(9)
C2E C 0.1330(7) 0.0000 0.5853(9)
H1E H 0.1246 0.0368 0.6108
C3E C 0.2910(6) -0.0550(6) 0.5408(10)
H2E H 0.3122 -0.0926 0.5345
C4E C 0.2296(6) -0.0560(6) 0.5577(9)
H3E H 0.2083 -0.0938 0.5630
C5E C 0.2000(6) 0.0000 0.5668(7)
C6E C 0.3219(8) 0.0000 0.5329(11)
O3E O 0.4135(4) -0.0517(4) 0.513(3)
C7E C 0.0933(8) 0.0437(7) 0.4810(12)
H1Y H -0.0368 0.1246 0.3892
C3Y C 0.0550(6) 0.2910(6) 0.4592(10)
H2Y H 0.0926 0.3122 0.4655
C4Y C 0.0560(6) 0.2296(6) 0.4423(9)
H3Y H 0.0938 0.2083 0.4370
O3Y O 0.0517(4) 0.4135(4) 0.487(3)
C7Y C -0.0437(7) 0.0933(8) 0.5190(12)
H1Z H 0.0368 0.1246 0.6108
C3Z C -0.0550(6) 0.2910(6) 0.5408(10)
H2Z H -0.0926 0.3122 0.5345
C4Z C -0.0560(6) 0.2296(6) 0.5577(9)
H3Z H -0.0938 0.2083 0.5630
O3Z O -0.0517(4) 0.4135(4) 0.513(3)
C7Z C 0.0437(7) 0.0933(8) 0.4810(12)
C1G C -0.3874(9) 0.0000 0.515(2)
N1G N -0.0900(4) 0.0000 0.5304(9)
C2G C -0.1330(7) 0.0000 0.5853(9)
H1DA H -0.1246 0.0368 0.6108
C3DA C -0.2910(6) -0.0550(6) 0.5408(10)
H2DA H -0.3122 -0.0926 0.5345
C4DA C -0.2296(6) -0.0560(6) 0.5577(9)
H3DA H -0.2083 -0.0938 0.5630
C5G C -0.2000(6) 0.0000 0.5668(7)
C6G C -0.3219(8) 0.0000 0.5329(11)
O3DA O -0.4135(4) -0.0517(4) 0.513(3)
C7DA C -0.0933(8) 0.0437(7) 0.4810(12)
C1F C 0.3874(9) 0.0000 0.485(2)
N1F N 0.0900(4) 0.0000 0.4696(9)
C2F C 0.1330(7) 0.0000 0.4147(9)
H1EA H 0.1246 0.0368 0.3892
C3EA C 0.2910(6) -0.0550(6) 0.4592(10)
H2EA H 0.3122 -0.0926 0.4655
C4EA C 0.2296(6) -0.0560(6) 0.4423(9)
H3EA H 0.2083 -0.0938 0.4370
C5F C 0.2000(6) 0.0000 0.4332(7)
C6F C 0.3219(8) 0.0000 0.4671(11)
O3EA O 0.4135(4) -0.0517(4) 0.487(3)
C7EA C 0.0933(8) 0.0437(7) 0.5190(12)
H1F H 0.1246 -0.0368 0.3892
C3F C 0.2910(6) 0.0550(6) 0.4592(10)
H2F H 0.3122 0.0926 0.4655
C4F C 0.2296(6) 0.0560(6) 0.4423(9)
H3F H 0.2083 0.0938 0.4370
O3F O 0.4135(4) 0.0517(4) 0.487(3)
C7F C 0.0933(8) -0.0437(7) 0.5190(12)
H1G H -0.1246 -0.0368 0.6108
C3G C -0.2910(6) 0.0550(6) 0.5408(10)
H2G H -0.3122 0.0926 0.5345
C4G C -0.2296(6) 0.0560(6) 0.5577(9)
H3G H -0.2083 0.0938 0.5630
O3G O -0.4135(4) 0.0517(4) 0.513(3)
C7G C -0.0933(8) -0.0437(7) 0.4810(12)
C1A C 0.0000 -0.3874(9) 0.515(2)
N1A N 0.0000 -0.0900(4) 0.5304(9)
C2A C 0.0000 -0.1330(7) 0.5853(9)
H1X H -0.0368 -0.1246 0.6108
C3X C 0.0550(6) -0.2910(6) 0.5408(10)
H2X H 0.0926 -0.3122 0.5345
C4X C 0.0560(6) -0.2296(6) 0.5577(9)
H3X H 0.0938 -0.2083 0.5630
C5A C 0.0000 -0.2000(6) 0.5668(7)
C6A C -0.0000 -0.3219(8) 0.5329(11)
O3X O 0.0517(4) -0.4135(4) 0.513(3)
C7X C -0.0437(7) -0.0933(8) 0.4810(12)
C1B C -0.0000 -0.3874(9) 0.485(2)
N1B N 0.0000 -0.0900(4) 0.4696(9)
C2B C 0.0000 -0.1330(7) 0.4147(9)
H1AA H 0.0368 -0.1246 0.3892
C3AA C -0.0550(6) -0.2910(6) 0.4592(10)
H2AA H -0.0926 -0.3122 0.4655
C4AA C -0.0560(6) -0.2296(6) 0.4423(9)
H3AA H -0.0938 -0.2083 0.4370
C5B C 0.0000 -0.2000(6) 0.4332(7)
C6B C 0.0000 -0.3219(8) 0.4671(11)
O3AA O -0.0517(4) -0.4135(4) 0.487(3)
C7AA C 0.0437(7) -0.0933(8) 0.5190(12)
H1BA H 0.1246 -0.0368 0.6108
C3BA C 0.2910(6) 0.0550(6) 0.5408(10)
H2BA H 0.3122 0.0926 0.5345
C4BA C 0.2296(6) 0.0560(6) 0.5577(9)
H3BA H 0.2083 0.0938 0.5630
O3BA O 0.4135(4) 0.0517(4) 0.513(3)
C7BA C 0.0933(8) -0.0437(7) 0.4810(12)
H1CA H -0.1246 -0.0368 0.3892
C3CA C -0.2910(6) 0.0550(6) 0.4592(10)
H2CA H -0.3122 0.0926 0.4655
C4CA C -0.2296(6) 0.0560(6) 0.4423(9)
H3CA H -0.2083 0.0938 0.4370
O3CA O -0.4135(4) 0.0517(4) 0.487(3)
C7CA C -0.0933(8) -0.0437(7) 0.5190(12)
H1A H 0.0368 -0.1246 0.6108
C3A C -0.0550(6) -0.2910(6) 0.5408(10)
H2A H -0.0926 -0.3122 0.5345
C4A C -0.0560(6) -0.2296(6) 0.5577(9)
H3A H -0.0938 -0.2083 0.5630
O3A O -0.0517(4) -0.4135(4) 0.513(3)
C7A C 0.0437(7) -0.0933(8) 0.4810(12)
H1B H -0.0368 -0.1246 0.3892
C3B C 0.0550(6) -0.2910(6) 0.4592(10)
H2B H 0.0926 -0.3122 0.4655
C4B C 0.0560(6) -0.2296(6) 0.4423(9)
H3B H 0.0938 -0.2083 0.4370
O3B O 0.0517(4) -0.4135(4) 0.487(3)
C7B C -0.0437(7) -0.0933(8) 0.5190(12)
Cu2A Cu 0.0000 0.0000 0.5556(5)
O2A O 0.0000 0.0000 0.6610(16)
Cu1B Cu 0.06112(11) 0.5000 0.5000
O1B O 0.1607(6) 0.5000 0.5000
Cu1_2 Cu -0.06112(11) -0.5000 0.5000
Cu1B_2 Cu 0.06112(11) -0.5000 0.5000
Cu1D Cu -0.5000 -0.06112(11) 0.5000
Cu1D_2 Cu 0.5000 -0.06112(11) 0.5000
Cu1F Cu -0.5000 0.06112(11) 0.5000
Cu1F_2 Cu 0.5000 0.06112(11) 0.5000
O3A_2 O -0.0517(4) 0.5865(4) 0.513(3)
O3B_2 O 0.0517(4) 0.5865(4) 0.487(3)
O3T O 0.0517(4) 0.513(3) 0.5865(4)
O3U O 0.0517(4) 0.487(3) 0.4135(4)
O3V O -0.0517(4) 0.513(3) 0.4135(4)
O3W O -0.0517(4) 0.487(3) 0.5865(4)
O3X_2 O 0.0517(4) 0.5865(4) 0.513(3)
O3AA_2 O -0.0517(4) 0.5865(4) 0.487(3)
O3RA O -0.0517(4) 0.487(3) 0.4135(4)
O3SA O -0.0517(4) 0.513(3) 0.5865(4)
O3TA O 0.0517(4) 0.487(3) 0.5865(4)
O3UA O 0.0517(4) 0.513(3) 0.4135(4)
loop_
_geom_bond_atom_site_label_1
_geom_bond_atom_site_label_2
_geom_bond_site_symmetry_1
_geom_bond_site_symmetry_2
Cu1 O1 1_555 1_555
C1 C6 1_555 1_555
Cu2 O2 1_555 1_555
N1 Cu2 1_555 1_555
C2 N1 1_555 1_555
H1 C2 1_555 1_555
C3 H2 1_555 1_555
C4 C3 1_555 1_555
H3 C4 1_555 1_555
C5 C2 1_555 1_555
C6 C3 1_555 1_555
O3 Cu1 1_555 1_555
C7 N1 1_555 1_555
C1C C1 1_555 1_555
N1C Cu2 1_555 1_555
C2C N1C 1_555 1_555
H1C C2C 1_555 1_555
C3C H2C 1_555 1_555
C4C C3C 1_555 1_555
H3C C4C 1_555 1_555
C5C C2C 1_555 1_555
C6C C1 1_555 1_555
O3C C1 1_555 1_555
C7C Cu2 1_555 1_555
C1D C6D 1_555 1_555
N1D Cu2 1_555 1_555
C2D N1D 1_555 1_555
H1D C2D 1_555 1_555
C3D H2D 1_555 1_555
C4D C3D 1_555 1_555
H3D C4D 1_555 1_555
C5D C2D 1_555 1_555
C6D C3D 1_555 1_555
O3D C1D 1_555 1_555
C7D C7C 1_555 1_555
C1E C6E 1_555 1_555
N1E Cu2 1_555 1_555
C2E N1E 1_555 1_555
H1E C2E 1_555 1_555
C3E H2E 1_555 1_555
C4E C3E 1_555 1_555
H3E C4E 1_555 1_555
C5E C2E 1_555 1_555
C6E C3E 1_555 1_555
O3E C1E 1_555 1_555
C7E Cu2 1_555 1_555
H1Y C2 1_555 1_555
C3Y C6 1_555 1_555
H2Y C3Y 1_555 1_555
C4Y C5 1_555 1_555
H3Y C4Y 1_555 1_555
O3Y C1 1_555 1_555
C7Y N1 1_555 1_555
H1Z C2C 1_555 1_555
C3Z C3 1_555 1_555
H2Z C3Z 1_555 1_555
C4Z C5C 1_555 1_555
H3Z C4Z 1_555 1_555
O3Z Cu1 1_555 1_555
C7Z Cu2 1_555 1_555
C1G C1D 1_555 1_555
N1G Cu2 1_555 1_555
C2G N1G 1_555 1_555
H1DA C2G 1_555 1_555
C3DA C3D 1_555 1_555
H2DA C3DA 1_555 1_555
C4DA C3DA 1_555 1_555
H3DA C4DA 1_555 1_555
C5G C2G 1_555 1_555
C6G C1D 1_555 1_555
O3DA C1D 1_555 1_555
C7DA Cu2 1_555 1_555
C1F C1E 1_555 1_555
N1F Cu2 1_555 1_555
C2F N1F 1_555 1_555
H1EA C2F 1_555 1_555
C3EA C3E 1_555 1_555
H2EA C3EA 1_555 1_555
C4EA C3EA 1_555 1_555
H3EA C4EA 1_555 1_555
C5F C2F 1_555 1_555
C6F C1E 1_555 1_555
O3EA C1E 1_555 1_555
C7EA C7 1_555 1_555
H1F C2F 1_555 1_555
C3F C6F 1_555 1_555
H2F C3F 1_555 1_555
C4F C5F 1_555 1_555
H3F C4F 1_555 1_555
O3F C1E 1_555 1_555
C7F N1E 1_555 1_555
H1G C2G 1_555 1_555
C3G C6G 1_555 1_555
H2G C3G 1_555 1_555
C4G C5G 1_555 1_555
H3G C4G 1_555 1_555
O3G C1D 1_555 1_555
C7G Cu2 1_555 1_555
C1A C6A 1_555 1_555
N1A Cu2 1_555 1_555
C2A N1A 1_555 1_555
H1X C2A 1_555 1_555
C3X H2X 1_555 1_555
C4X C3X 1_555 1_555
H3X C4X 1_555 1_555
C5A C2A 1_555 1_555
C6A C3X 1_555 1_555
O3X C1A 1_555 1_555
C7X Cu2 1_555 1_555
C1B C1A 1_555 1_555
N1B Cu2 1_555 1_555
C2B N1B 1_555 1_555
H1AA C2B 1_555 1_555
C3AA H2AA 1_555 1_555
C4AA C3AA 1_555 1_555
H3AA C4AA 1_555 1_555
C5B C2B 1_555 1_555
C6B C1A 1_555 1_555
O3AA C1A 1_555 1_555
C7AA C7F 1_555 1_555
H1BA C2E 1_555 1_555
C3BA C6E 1_555 1_555
H2BA C3BA 1_555 1_555
C4BA C5E 1_555 1_555
H3BA C4BA 1_555 1_555
O3BA C1E 1_555 1_555
C7BA Cu2 1_555 1_555
H1CA C2D 1_555 1_555
C3CA C6D 1_555 1_555
H2CA C3CA 1_555 1_555
C4CA C5D 1_555 1_555
H3CA C4CA 1_555 1_555
O3CA C1D 1_555 1_555
C7CA N1D 1_555 1_555
H1A C2A 1_555 1_555
C3A C6A 1_555 1_555
H2A C3A 1_555 1_555
C4A C5A 1_555 1_555
H3A C4A 1_555 1_555
O3A C1A 1_555 1_555
C7A Cu2 1_555 1_555
H1B C2B 1_555 1_555
C3B C3X 1_555 1_555
H2B C3B 1_555 1_555
C4B C5B 1_555 1_555
H3B C4B 1_555 1_555
O3B C1A 1_555 1_555
C7B C7G 1_555 1_555
Cu2A Cu2 1_555 1_555
O2A Cu2A 1_555 1_555
Cu1B Cu1 1_555 1_555
O1B Cu1B 1_555 1_555
Cu1_2 O3AA 1_555 1_555
Cu1B_2 O3X 1_555 1_555
Cu1D O3D 1_555 1_555
Cu1D_2 O3E 1_555 1_555
Cu1F O3G 1_555 1_555
Cu1F_2 O3F 1_555 1_555
O3A_2 Cu1 1_555 1_555
O3B_2 Cu1B 1_555 1_555
O3T Cu1B 1_555 1_555
O3U Cu1B 1_555 1_555
O3V Cu1 1_555 1_555
O3W Cu1 1_555 1_555
O3X_2 Cu1B 1_555 1_555
O3AA_2 Cu1 1_555 1_555
O3RA Cu1 1_555 1_555
O3SA Cu1 1_555 1_555
O3TA Cu1B 1_555 1_555
O3UA Cu1B 1_555 1_555
C1 O3 1_555 1_555
C1 O3Z 1_555 1_555
N1 N1C 1_555 1_555
N1 C7C 1_555 1_555
N1 C7Z 1_555 1_555
N1 Cu2A 1_555 1_555
C4 C5 1_555 1_555
C6 C1C 1_555 1_555
C6 C6C 1_555 1_555
O3 C1C 1_555 1_555
O3 O3Z 1_555 1_555
C7 N1C 1_555 1_555
C7 C7E 1_555 1_555
C7 C7Z 1_555 1_555
C7 Cu2A 1_555 1_555
C1C C6C 1_555 1_555
C1C O3C 1_555 1_555
C1C O3Y 1_555 1_555
C1C O3Z 1_555 1_555
N1C C7C 1_555 1_555
N1C C7Y 1_555 1_555
N1C C7Z 1_555 1_555
N1C Cu2A 1_555 1_555
C3C C6C 1_555 1_555
C3C C3Y 1_555 1_555
C4C C5C 1_555 1_555
C6C C3Z 1_555 1_555
O3C O3Y 1_555 1_555
O3C Cu1B 1_555 1_555
C7C C7Y 1_555 1_555
C7C C7DA 1_555 1_555
N1D C7D 1_555 1_555
N1D N1G 1_555 1_555
N1D C7DA 1_555 1_555
N1D C7G 1_555 1_555
N1D Cu2A 1_555 1_555
C4D C5D 1_555 1_555
C6D C1G 1_555 1_555
C6D C6G 1_555 1_555
O3D C1G 1_555 1_555
O3D O3DA 1_555 1_555
C7D C7Y 1_555 1_555
C7D N1G 1_555 1_555
C7D C7DA 1_555 1_555
C7D Cu2A 1_555 1_555
N1E C7E 1_555 1_555
N1E N1F 1_555 1_555
N1E C7EA 1_555 1_555
N1E C7BA 1_555 1_555
N1E Cu2A 1_555 1_555
C4E C5E 1_555 1_555
C6E C1F 1_555 1_555
C6E C6F 1_555 1_555
O3E C1F 1_555 1_555
O3E O3EA 1_555 1_555
C7E C7Z 1_555 1_555
C7E N1F 1_555 1_555
C7E C7EA 1_555 1_555
C3Y C4Y 1_555 1_555
O3Y Cu1B 1_555 1_555
C7Y C7DA 1_555 1_555
C7Y Cu2A 1_555 1_555
C3Z C4Z 1_555 1_555
C7Z C7EA 1_555 1_555
C1G C6G 1_555 1_555
C1G O3DA 1_555 1_555
C1G O3G 1_555 1_555
C1G O3CA 1_555 1_555
N1G C7DA 1_555 1_555
N1G C7G 1_555 1_555
N1G C7CA 1_555 1_555
N1G Cu2A 1_555 1_555
C3DA C6G 1_555 1_555
C4DA C5G 1_555 1_555
O3DA Cu1D 1_555 1_555
C1F C6F 1_555 1_555
C1F O3EA 1_555 1_555
C1F O3F 1_555 1_555
C1F O3BA 1_555 1_555
N1F C7EA 1_555 1_555
N1F C7F 1_555 1_555
N1F C7BA 1_555 1_555
N1F Cu2A 1_555 1_555
C3EA C6F 1_555 1_555
C4EA C5F 1_555 1_555
O3EA Cu1D_2 1_555 1_555
C7EA Cu2A 1_555 1_555
C3F C4F 1_555 1_555
C3F C3BA 1_555 1_555
O3F O3BA 1_555 1_555
C7F C7BA 1_555 1_555
C7F C7A 1_555 1_555
C7F Cu2A 1_555 1_555
C3G C4G 1_555 1_555
C3G C3CA 1_555 1_555
O3G O3CA 1_555 1_555
C7G C7X 1_555 1_555
C7G C7CA 1_555 1_555
N1A C7X 1_555 1_555
N1A N1B 1_555 1_555
N1A C7AA 1_555 1_555
N1A C7A 1_555 1_555
N1A C7B 1_555 1_555
N1A Cu2A 1_555 1_555
C4X C5A 1_555 1_555
C6A C1B 1_555 1_555
C6A C6B 1_555 1_555
O3X C1B 1_555 1_555
O3X O3B 1_555 1_555
C7X N1B 1_555 1_555
C7X C7CA 1_555 1_555
C7X C7B 1_555 1_555
C1B C6B 1_555 1_555
C1B O3AA 1_555 1_555
C1B O3A 1_555 1_555
C1B O3B 1_555 1_555
N1B C7AA 1_555 1_555
N1B C7A 1_555 1_555
N1B C7B 1_555 1_555
N1B Cu2A 1_555 1_555
C3AA C6B 1_555 1_555
C3AA C3A 1_555 1_555
C4AA C5B 1_555 1_555
C6B C3B 1_555 1_555
O3AA O3A 1_555 1_555
C7AA C7BA 1_555 1_555
C7AA C7A 1_555 1_555
C7AA Cu2A 1_555 1_555
C3BA C4BA 1_555 1_555
O3BA Cu1F_2 1_555 1_555
C7BA C7A 1_555 1_555
C3CA C4CA 1_555 1_555
O3CA Cu1F 1_555 1_555
C7CA C7B 1_555 1_555
C7CA Cu2A 1_555 1_555
C3A C4A 1_555 1_555
O3A Cu1_2 1_555 1_555
C3B C4B 1_555 1_555
O3B Cu1B_2 1_555 1_555
C7B Cu2A 1_555 1_555
Cu1_2 Cu1B_2 1_555 1_555
Cu1D Cu1F 1_555 1_555
Cu1D_2 Cu1F_2 1_555 1_555
O3A_2 O3AA_2 1_555 1_555
O3B_2 O3X_2 1_555 1_555
O3T O3TA 1_555 1_555
O3U O3UA 1_555 1_555
O3V O3RA 1_555 1_555
O3W O3SA 1_555 1_555

#END
