
#######################################################################
#
#                 Cambridge Crystallographic Data Centre
#                                CCDC 
#
#######################################################################
#
# If this CIF has been generated from an entry in the Cambridge 
# Structural Database, then it will include bibliographic, chemical, 
# crystal, experimental, refinement or atomic coordinate data resulting 
# from the CCDC's data processing and validation procedures.
#
#######################################################################

data_RAVWAO
_chemical_formula_moiety         '(C22 H26 Mg2 O12)n'
_symmetry_cell_setting           rhombohedral
_symmetry_space_group_name_H-M   'R -3'
_symmetry_Int_Tables_number      148
_space_group_name_Hall           '-R 3'
loop_
_symmetry_equiv_pos_site_id
_symmetry_equiv_pos_as_xyz
1 x,y,z
2 -y,x-y,z
3 -x+y,-x,z
4 2/3+x,1/3+y,1/3+z
5 2/3-y,1/3+x-y,1/3+z
6 2/3-x+y,1/3-x,1/3+z
7 1/3+x,2/3+y,2/3+z
8 1/3-y,2/3+x-y,2/3+z
9 1/3-x+y,2/3-x,2/3+z
10 -x,-y,-z
11 y,-x+y,-z
12 x-y,x,-z
13 1/3-x,2/3-y,2/3-z
14 1/3+y,2/3-x+y,2/3-z
15 1/3+x-y,2/3+x,2/3-z
16 2/3-x,1/3-y,1/3-z
17 2/3+y,1/3-x+y,1/3-z
18 2/3+x-y,1/3+x,1/3-z
_cell_length_a                   45.8395
_cell_length_b                   45.8395
_cell_length_c                   6.4739
_cell_angle_alpha                90
_cell_angle_beta                 90
_cell_angle_gamma                120
_cell_volume                     11780.8
loop_
_atom_site_label
_atom_site_type_symbol
_atom_site_fract_x
_atom_site_fract_y
_atom_site_fract_z
C1 C 0.34160 0.29633 0.50090
C2 C 0.33948 0.27014 0.64590
C3 C 0.32881 0.26703 0.85648
Mg1 Mg 0.35126 0.32625 0.11051
O1 O 0.35146 0.29691 0.31562
O2 O 0.33366 0.31751 0.55666
O3 O 0.31860 0.28762 0.94930
O4 O 0.39137 0.33133 -0.01439
C4 C 0.32703 0.24124 0.98052
C5 C 0.33697 0.21922 0.90420
C6 C 0.34794 0.22243 0.69826
C7 C 0.34927 0.24751 0.57097
H1 H 0.31775 0.23845 1.13834
H2 H 0.35821 0.24929 0.41259
H3 H 0.35531 0.20529 0.63574
C8 C 0.33560 0.19262 1.03947
C9 C 0.36490 0.19384 1.11424
C10 C 0.30439 0.16557 1.09331
C11 C 0.39885 0.22303 1.06560
H4 H 0.28205 0.16479 1.03449
H5 H 0.40018 0.24654 1.11787
H6 H 0.41897 0.22088 1.14578
H7 H 0.40359 0.22433 0.89529
C1O C 0.32507 0.03700 1.83243
C2O C 0.32719 0.06319 1.68743
C3O C 0.33786 0.06630 1.47685
Mg1O Mg 0.31541 0.00708 2.22282
Mg1H Mg 0.30832 0.31541 0.77718
Mg1D Mg 0.34042 0.35834 0.44384
Mg1_2 Mg 0.35126 0.32625 1.11051
Mg1N Mg 0.35834 0.01793 1.55616
Mg1J Mg 0.32625 -0.02501 1.88949
Mg1O_2 Mg 0.31541 0.00708 1.22282
O1O O 0.31521 0.03642 2.01771
O2O O 0.33301 0.01582 1.77667
O2D O 0.34916 0.34948 -0.11001
O2H O 0.31718 0.33301 0.22333
O2J O 0.31751 -0.01615 2.44334
O2N O 0.34948 0.00033 2.11001
O3O O 0.34807 0.04571 1.38403
O3_2 O 0.31860 0.28762 -0.05070
O3D O 0.37905 0.36431 0.28263
O3O_2 O 0.34807 0.04571 2.38403
O3J O 0.28762 -0.03098 2.05070
O4O O 0.27530 0.00200 2.34772
C4O C 0.33964 0.09209 1.35281
C5O C 0.32970 0.11411 1.42913
C6O C 0.31873 0.11090 1.63507
C7O C 0.31740 0.08582 1.76236
H1O H 0.34892 0.09488 1.19499
H2O H 0.30846 0.08404 1.92074
H3O H 0.31136 0.12804 1.69759
C8O C 0.33107 0.14071 1.29386
C9O C 0.30177 0.13949 1.21909
C10O C 0.36228 0.16776 1.24002
C11O C 0.26782 0.11030 1.26773
H4O H 0.38462 0.16854 1.29884
H5O H 0.26649 0.08679 1.21546
H6O H 0.24770 0.11245 1.18755
H7O H 0.26308 0.10900 1.43804
O5 O 0.37258 0.43197 0.43141
O6 O 0.23858 0.35365 0.03829
O7 O 0.31527 0.38109 -0.06412
O8 O 0.29457 0.42957 0.33122
loop_
_geom_bond_atom_site_label_1
_geom_bond_atom_site_label_2
_geom_bond_site_symmetry_1
_geom_bond_site_symmetry_2
C1 C2 1_555 1_555
C2 C3 1_555 1_555
C3 O3 1_555 1_555
Mg1 O1 1_555 1_555
O1 C1 1_555 1_555
O2 C1 1_555 1_555
O3 Mg1H 1_555 1_555
O4 Mg1 1_555 1_555
C4 C3 1_555 1_555
C5 C4 1_555 1_555
C6 C5 1_555 1_555
C7 C2 1_555 1_555
H1 C4 1_555 1_555
H2 C7 1_555 1_555
H3 C6 1_555 1_555
C8 C5 1_555 1_555
C9 C8 1_555 1_555
C10 C8 1_555 1_555
C11 C9 1_555 1_555
H4 C10 1_555 1_555
H5 C11 1_555 1_555
H6 C11 1_555 1_555
H7 C11 1_555 1_555
C1O C2O 1_555 1_555
C2O C3O 1_555 1_555
C3O O3O 1_555 1_555
Mg1O O1O 1_555 1_555
Mg1H O2 1_555 1_555
Mg1D O2 1_555 1_555
Mg1_2 O3 1_555 1_555
Mg1N O2O 1_555 1_555
Mg1J O2O 1_555 1_555
Mg1O_2 O3O 1_555 1_555
O1O C1O 1_555 1_555
O2O C1O 1_555 1_555
O2D Mg1 1_555 1_555
O2H Mg1 1_555 1_555
O2J Mg1O 1_555 1_555
O2N Mg1O 1_555 1_555
O3O Mg1N 1_555 1_555
O3_2 Mg1 1_555 1_555
O3D Mg1 1_555 1_555
O3O_2 Mg1O 1_555 1_555
O3J Mg1O 1_555 1_555
O4O Mg1O 1_555 1_555
C4O C3O 1_555 1_555
C5O C4O 1_555 1_555
C6O C5O 1_555 1_555
C7O C2O 1_555 1_555
H1O C4O 1_555 1_555
H2O C7O 1_555 1_555
H3O C6O 1_555 1_555
C8O C5O 1_555 1_555
C9O C10 1_555 1_555
C10O C9 1_555 1_555
C11O C9O 1_555 1_555
H4O C10O 1_555 1_555
H5O C11O 1_555 1_555
H6O C11O 1_555 1_555
H7O C11O 1_555 1_555
C6 C7 1_555 1_555
Mg1D O2H 1_555 1_555
Mg1D O3D 1_555 1_555
Mg1J O2N 1_555 1_555
Mg1J O3J 1_555 1_555
C6O C7O 1_555 1_555
C8O C9O 1_555 1_555
C8O C10O 1_555 1_555

#END
