
#######################################################################
#
#                 Cambridge Crystallographic Data Centre
#                                CCDC 
#
#######################################################################
#
# If this CIF has been generated from an entry in the Cambridge 
# Structural Database, then it will include bibliographic, chemical, 
# crystal, experimental, refinement or atomic coordinate data resulting 
# from the CCDC's data processing and validation procedures.
#
#######################################################################

data_RAVWOC
_chemical_formula_moiety         '(C48 H54 Mg2 O8)n'
_symmetry_cell_setting           rhombohedral
_symmetry_space_group_name_H-M   'R -3'
_symmetry_Int_Tables_number      148
_space_group_name_Hall           '-R 3'
loop_
_symmetry_equiv_pos_site_id
_symmetry_equiv_pos_as_xyz
1 x,y,z
2 -y,x-y,z
3 -x+y,-x,z
4 2/3+x,1/3+y,1/3+z
5 2/3-y,1/3+x-y,1/3+z
6 2/3-x+y,1/3-x,1/3+z
7 1/3+x,2/3+y,2/3+z
8 1/3-y,2/3+x-y,2/3+z
9 1/3-x+y,2/3-x,2/3+z
10 -x,-y,-z
11 y,-x+y,-z
12 x-y,x,-z
13 1/3-x,2/3-y,2/3-z
14 1/3+y,2/3-x+y,2/3-z
15 1/3+x-y,2/3+x,2/3-z
16 2/3-x,1/3-y,1/3-z
17 2/3+y,1/3-x+y,1/3-z
18 2/3+x-y,1/3+x,1/3-z
_cell_length_a                   68.9586
_cell_length_b                   68.9586
_cell_length_c                   6.4618
_cell_angle_alpha                90
_cell_angle_beta                 90
_cell_angle_gamma                120
_cell_volume                     26611
loop_
_atom_site_label
_atom_site_type_symbol
_atom_site_fract_x
_atom_site_fract_y
_atom_site_fract_z
C1 C 0.35861 0.36342 -0.48794
C2 C 0.37640 0.37927 -0.34376
C3 C 0.37816 0.37403 -0.13418
Mg1 Mg 0.33867 0.35024 -0.88088
O1 O 0.35877 0.36949 -0.67392
O2 O 0.34361 0.34430 -0.42982
O3 O 0.36415 0.35333 -0.04318
O4 O 0.33663 0.37464 -1.00983
C4 C 0.39532 0.38996 -0.00877
C5 C 0.41057 0.41132 -0.08341
C6 C 0.40876 0.41677 -0.28855
C7 C 0.39197 0.40101 -0.41715
H1 H 0.32733 0.37768 -0.91332
H2 H 0.39662 0.38555 0.14927
H3 H 0.39100 0.40601 -0.57459
H4 H 0.42046 0.43329 -0.34919
C8 C 0.42789 0.42839 0.05458
C9 C 0.44515 0.42562 0.14318
C10 C 0.46189 0.44310 0.26111
C11 C 0.46223 0.46354 0.28713
C12 C 0.44440 0.46591 0.20508
C13 C 0.42749 0.44828 0.09068
H5 H 0.41408 0.45023 0.02467
C14 C 0.48180 0.48223 0.39390
C15 C 0.47830 0.49048 0.58052
C16 C 0.50389 0.49176 0.31368
H6 H 0.47533 0.44121 0.32710
H7 H 0.46147 0.48299 0.64374
C17 C 0.44675 0.40486 0.10504
C18 C 0.44287 0.48692 0.22787
C19 C 0.50939 0.48401 0.11538
H8 H 0.46267 0.40667 0.16597
H9 H 0.43270 0.39022 0.18317
H10 H 0.45813 0.50115 0.29585
H11 H 0.44041 0.49246 0.07317
H12 H 0.42830 0.48333 0.32766
H13 H 0.51955 0.49874 0.01556
H14 H 0.49437 0.47246 0.02372
H15 H 0.35172 0.38768 -0.98618
C20 C 0.51447 0.46740 0.00089
C21 C 0.53401 0.46404 -0.06898
C22 C 0.52528 0.43761 -0.26955
C23 C 0.54692 0.45403 -0.41150
C24 C 0.54582 0.43943 -0.59708
H16 H 0.52948 0.42649 -0.67380
H17 H 0.56008 0.43560 -0.61352
H18 H 0.54287 0.42377 -0.68444
H19 H 0.54557 0.46904 -0.46729
H20 H 0.56293 0.45996 -0.31729
H21 H 0.50778 0.43170 -0.33414
H22 H 0.51770 0.44811 -0.21404
H23 H 0.54863 0.46418 -0.15342
H24 H 0.54476 0.48294 -0.09311
H25 H 0.50818 0.47488 -0.12168
H26 H 0.50755 0.45112 -0.09118
C1I C 0.64139 0.63658 1.48794
C2I C 0.62360 0.62073 1.34376
C3I C 0.62184 0.62597 1.13418
Mg1I Mg 0.66133 0.64976 1.88088
Mg1H Mg 0.34490 0.32800 -0.21421
Mg1D Mg 0.31643 0.32176 -0.54755
Mg1_2 Mg 0.33867 0.35024 0.11912
Mg1Q Mg 0.65510 0.67200 1.21421
Mg1M Mg 0.68357 0.67824 1.54755
Mg1I_2 Mg 0.66133 0.64976 0.88088
O1I O 0.64123 0.63051 1.67392
O2I O 0.65639 0.65570 1.42982
O2D O 0.32237 0.33264 -1.09649
O2H O 0.33402 0.32306 -0.76315
O2M O 0.67763 0.66736 2.09649
O2Q O 0.66598 0.67694 1.76315
O3I O 0.63585 0.64667 1.04318
O3_2 O 0.36415 0.35333 -1.04318
O3D O 0.31334 0.34415 -0.70985
O3I_2 O 0.63585 0.64667 2.04318
O3M O 0.68666 0.65585 1.70985
O4I O 0.66337 0.62536 2.00983
C4I C 0.60468 0.61004 1.00877
C5I C 0.58943 0.58868 1.08341
C6I C 0.59124 0.58323 1.28855
C7I C 0.60803 0.59899 1.41715
H1I H 0.67267 0.62232 1.91332
H2I H 0.60338 0.61445 0.85073
H3I H 0.60900 0.59399 1.57459
H4I H 0.57954 0.56671 1.34919
C8I C 0.57211 0.57161 0.94542
C9I C 0.55485 0.57438 0.85682
C10I C 0.53811 0.55690 0.73889
C11I C 0.53777 0.53646 0.71287
C12I C 0.55560 0.53409 0.79492
C13I C 0.57251 0.55172 0.90932
H5I H 0.58592 0.54977 0.97533
C14I C 0.51820 0.51777 0.60610
C15I C 0.52170 0.50952 0.41948
C16I C 0.49611 0.50824 0.68632
H6I H 0.52467 0.55879 0.67290
H7I H 0.53853 0.51701 0.35626
C17I C 0.55325 0.59514 0.89496
C18I C 0.55713 0.51308 0.77213
C19I C 0.49061 0.51599 0.88462
H8I H 0.53733 0.59333 0.83403
H9I H 0.56730 0.60978 0.81683
H10I H 0.54187 0.49885 0.70415
H11I H 0.55959 0.50754 0.92683
H12I H 0.57170 0.51667 0.67234
H13I H 0.48045 0.50126 0.98444
H14I H 0.50563 0.52754 0.97628
H15I H 0.64828 0.61232 1.98618
C20I C 0.48553 0.53260 0.99911
C21I C 0.46599 0.53596 1.06898
C22I C 0.47472 0.56239 1.26955
C23I C 0.45308 0.54597 1.41150
C24I C 0.45418 0.56057 1.59708
H16I H 0.47052 0.57351 1.67380
H17I H 0.43992 0.56440 1.61352
H18I H 0.45713 0.57623 1.68444
H19I H 0.45443 0.53096 1.46729
H20I H 0.43707 0.54004 1.31729
H21I H 0.49222 0.56830 1.33414
H22I H 0.48230 0.55189 1.21404
H23I H 0.45137 0.53582 1.15342
H24I H 0.45524 0.51706 1.09311
H25I H 0.49182 0.52512 1.12168
H26I H 0.49245 0.54888 1.09118
loop_
_geom_bond_atom_site_label_1
_geom_bond_atom_site_label_2
_geom_bond_site_symmetry_1
_geom_bond_site_symmetry_2
C1 C2 1_555 1_555
C2 C3 1_555 1_555
C3 O3 1_555 1_555
Mg1 O1 1_555 1_555
O1 C1 1_555 1_555
O2 C1 1_555 1_555
O3 Mg1H 1_555 1_555
O4 Mg1 1_555 1_555
C4 C3 1_555 1_555
C5 C4 1_555 1_555
C6 C5 1_555 1_555
C7 C2 1_555 1_555
H1 O4 1_555 1_555
H2 C4 1_555 1_555
H3 C7 1_555 1_555
H4 C6 1_555 1_555
C8 C5 1_555 1_555
C9 C8 1_555 1_555
C10 C9 1_555 1_555
C11 C10 1_555 1_555
C12 C11 1_555 1_555
C13 C8 1_555 1_555
H5 C13 1_555 1_555
C14 C11 1_555 1_555
C15 C14 1_555 1_555
C16 C14 1_555 1_555
H6 C10 1_555 1_555
H7 C15 1_555 1_555
C17 C9 1_555 1_555
C18 C12 1_555 1_555
C19 C16 1_555 1_555
H8 C17 1_555 1_555
H9 C17 1_555 1_555
H10 C18 1_555 1_555
H11 C18 1_555 1_555
H12 C18 1_555 1_555
H13 C19 1_555 1_555
H14 C19 1_555 1_555
H15 O4 1_555 1_555
C20 C19 1_555 1_555
C21 C20 1_555 1_555
C22 C21 1_555 1_555
C23 C22 1_555 1_555
C24 C23 1_555 1_555
H16 C24 1_555 1_555
H17 C24 1_555 1_555
H18 C24 1_555 1_555
H19 C23 1_555 1_555
H20 C23 1_555 1_555
H21 C22 1_555 1_555
H22 C22 1_555 1_555
H23 C21 1_555 1_555
H24 C21 1_555 1_555
H25 C20 1_555 1_555
H26 C20 1_555 1_555
C1I C2I 1_555 1_555
C2I C3I 1_555 1_555
C3I O3I 1_555 1_555
Mg1I O1I 1_555 1_555
Mg1H O2 1_555 1_555
Mg1D O2 1_555 1_555
Mg1_2 O3 1_555 1_555
Mg1Q O2I 1_555 1_555
Mg1M O2I 1_555 1_555
Mg1I_2 O3I 1_555 1_555
O1I C1I 1_555 1_555
O2I C1I 1_555 1_555
O2D Mg1 1_555 1_555
O2H Mg1 1_555 1_555
O2M Mg1I 1_555 1_555
O2Q Mg1I 1_555 1_555
O3I Mg1Q 1_555 1_555
O3_2 Mg1 1_555 1_555
O3D Mg1 1_555 1_555
O3I_2 Mg1I 1_555 1_555
O3M Mg1I 1_555 1_555
O4I Mg1I 1_555 1_555
C4I C3I 1_555 1_555
C5I C4I 1_555 1_555
C6I C5I 1_555 1_555
C7I C2I 1_555 1_555
H1I O4I 1_555 1_555
H2I C4I 1_555 1_555
H3I C7I 1_555 1_555
H4I C6I 1_555 1_555
C8I C5I 1_555 1_555
C9I C8I 1_555 1_555
C10I C9I 1_555 1_555
C11I C10I 1_555 1_555
C12I C11I 1_555 1_555
C13I C8I 1_555 1_555
H5I C13I 1_555 1_555
C14I C11I 1_555 1_555
C15I C16 1_555 1_555
C16I C15 1_555 1_555
H6I C10I 1_555 1_555
H7I C15I 1_555 1_555
C17I C9I 1_555 1_555
C18I C12I 1_555 1_555
C19I C16I 1_555 1_555
H8I C17I 1_555 1_555
H9I C17I 1_555 1_555
H10I C18I 1_555 1_555
H11I C18I 1_555 1_555
H12I C18I 1_555 1_555
H13I C19I 1_555 1_555
H14I C19I 1_555 1_555
H15I O4I 1_555 1_555
C20I C19I 1_555 1_555
C21I C20I 1_555 1_555
C22I C21I 1_555 1_555
C23I C22I 1_555 1_555
C24I C23I 1_555 1_555
H16I C24I 1_555 1_555
H17I C24I 1_555 1_555
H18I C24I 1_555 1_555
H19I C23I 1_555 1_555
H20I C23I 1_555 1_555
H21I C22I 1_555 1_555
H22I C22I 1_555 1_555
H23I C21I 1_555 1_555
H24I C21I 1_555 1_555
H25I C20I 1_555 1_555
H26I C20I 1_555 1_555
C6 C7 1_555 1_555
C12 C13 1_555 1_555
Mg1D O2H 1_555 1_555
Mg1D O3D 1_555 1_555
Mg1M O2Q 1_555 1_555
Mg1M O3M 1_555 1_555
C6I C7I 1_555 1_555
C12I C13I 1_555 1_555
C14I C15I 1_555 1_555
C14I C16I 1_555 1_555

#END
