
#######################################################################
#
#                 Cambridge Crystallographic Data Centre
#                                CCDC 
#
#######################################################################
#
# If this CIF has been generated from an entry in the Cambridge 
# Structural Database, then it will include bibliographic, chemical, 
# crystal, experimental, refinement or atomic coordinate data resulting 
# from the CCDC's data processing and validation procedures.
#
#######################################################################

data_RAVWES
_chemical_formula_moiety         '(C30 H52 Mg2 O21)n'
_symmetry_cell_setting           rhombohedral
_symmetry_space_group_name_H-M   'R 3'
_symmetry_Int_Tables_number      146
_space_group_name_Hall           'R 3'
loop_
_symmetry_equiv_pos_site_id
_symmetry_equiv_pos_as_xyz
1 x,y,z
2 -y,x-y,z
3 -x+y,-x,z
4 2/3+x,1/3+y,1/3+z
5 2/3-y,1/3+x-y,1/3+z
6 2/3-x+y,1/3-x,1/3+z
7 1/3+x,2/3+y,2/3+z
8 1/3-y,2/3+x-y,2/3+z
9 1/3-x+y,2/3-x,2/3+z
_cell_length_a                   55.6323
_cell_length_b                   55.6323
_cell_length_c                   6.6941
_cell_angle_alpha                90
_cell_angle_beta                 90
_cell_angle_gamma                120
_cell_volume                     17942.2
loop_
_atom_site_label
_atom_site_type_symbol
_atom_site_fract_x
_atom_site_fract_y
_atom_site_fract_z
_atom_site_U_iso_or_equiv
_atom_site_thermal_displace_type
H1 H -0.12166 0.17949 0.07120 0.0000 Uiso
H2 H -0.15038 0.21216 0.66988 0.0000 Uiso
H3 H -0.22127 0.12071 -0.54481 0.0000 Uiso
H4 H -0.25778 0.08504 -0.76591 0.0000 Uiso
H5 H -0.25614 0.06430 -0.04858 0.0000 Uiso
H6 H -0.07682 0.26644 0.38404 0.0000 Uiso
H7 H -0.07450 0.24805 1.10507 0.0000 Uiso
H8 H -0.11088 0.21177 0.88743 0.0000 Uiso
H9 H -0.20467 0.08692 -0.02779 0.0000 Uiso
H10 H -0.18758 0.18426 -0.01776 0.0000 Uiso
C1 C -0.10804 0.20671 0.32796 0.0500 Uiso
C2 C -0.12804 0.18687 0.20512 0.0500 Uiso
C3 C -0.15616 0.17584 0.24520 0.0500 Uiso
C4 C -0.16406 0.18514 0.41198 0.0500 Uiso
C5 C -0.14402 0.20493 0.53500 0.0500 Uiso
C6 C -0.11604 0.21599 0.49335 0.0500 Uiso
C7 C -0.25755 0.08054 -0.60436 0.0500 Uiso
C8 C -0.23745 0.10025 -0.48226 0.0500 Uiso
C9 C -0.23711 0.09496 -0.28253 0.0500 Uiso
C10 C -0.25665 0.06932 -0.20872 0.0500 Uiso
C11 C -0.05555 0.28294 0.66388 0.0500 Uiso
C12 C -0.05468 0.27791 0.86811 0.0500 Uiso
C13 C -0.03278 0.29715 1.00634 0.0500 Uiso
C14 C -0.29998 0.03585 -0.67041 0.0500 Uiso
C15 C -0.27794 0.05476 -0.53153 0.0500 Uiso
C16 C -0.27713 0.04934 -0.32804 0.0500 Uiso
C17 C -0.07586 0.26250 0.54581 0.0500 Uiso
C18 C -0.09521 0.23707 0.62313 0.0500 Uiso
C19 C -0.09486 0.23213 0.82263 0.0500 Uiso
C20 C -0.07485 0.25219 0.94297 0.0500 Uiso
C21 C -0.21627 0.11599 -0.14974 0.0500 Uiso
C22 C -0.20124 0.10858 -0.02411 0.0500 Uiso
C23 C -0.18194 0.12761 0.10674 0.0500 Uiso
C24 C -0.17682 0.15490 0.11030 0.0500 Uiso
C25 C -0.19174 0.16233 -0.01614 0.0500 Uiso
C26 C -0.21182 0.14301 -0.14127 0.0500 Uiso
O1 O -0.00578 0.27818 1.49385 0.0500 Uiso
O2 O -0.03816 0.30802 0.57249 0.0500 Uiso
O3 O -0.01336 0.32040 0.94891 0.0500 Uiso
O4 O -0.03374 0.28982 1.18482 0.0500 Uiso
O5 O -0.29876 0.04324 -0.84904 0.0500 Uiso
O6 O -0.31980 0.01281 -0.61322 0.0500 Uiso
O7 O -0.29501 0.02437 -0.23747 0.0500 Uiso
Mg1 Mg -0.00762 0.31104 1.39760 0.0533 Uiso
O8 O -0.32581 0.05577 -1.15982 0.0500 Uiso
Mg2 Mg -0.32508 0.02237 -1.06240 0.0400 Uiso
C27 C -0.07839 0.21738 0.28159 0.0500 Uiso
C28 C -0.19356 0.17415 0.46343 0.0500 Uiso
C29 C -0.16793 0.11796 0.24528 0.0500 Uiso
C30 C -0.22935 0.15127 -0.25365 0.0500 Uiso
H11 H -0.06520 0.23144 0.40379 0.0000 Uiso
H12 H -0.07301 0.22926 0.13898 0.0000 Uiso
H13 H -0.07450 0.19951 0.26685 0.0000 Uiso
H14 H -0.20381 0.18007 0.34537 0.0000 Uiso
H15 H -0.19502 0.18310 0.60877 0.0000 Uiso
H16 H -0.20428 0.15093 0.47521 0.0000 Uiso
H17 H -0.16052 0.10541 0.16241 0.0000 Uiso
H18 H -0.18293 0.10478 0.36337 0.0000 Uiso
H19 H -0.14974 0.13637 0.31509 0.0000 Uiso
H20 H -0.25047 0.14169 -0.18409 0.0000 Uiso
H21 H -0.23136 0.14392 -0.41051 0.0000 Uiso
H22 H -0.21952 0.17448 -0.25160 0.0000 Uiso
O2G O 0.02531 0.32049 1.23916 0.0500 Uiso
O2_2 O -0.03816 0.30802 1.57249 0.0500 Uiso
O3E O 0.00043 0.34669 1.28224 0.0500 Uiso
O3G O 0.01293 0.33291 1.61558 0.0500 Uiso
O6H O -0.33406 -0.01353 -0.94655 0.0500 Uiso
O6D O -0.34614 0.00072 -1.27989 0.0500 Uiso
O7_2 O -0.29501 0.02437 -1.23747 0.0500 Uiso
O7D O -0.35770 0.01395 -0.90414 0.0500 Uiso
Mg1E Mg -0.01467 0.34095 0.73093 0.0533 Uiso
Mg1G Mg 0.02229 0.34801 1.06427 0.0533 Uiso
Mg1_2 Mg -0.00762 0.31104 0.39760 0.0533 Uiso
Mg2D Mg -0.35570 -0.01412 -0.72907 0.0400 Uiso
Mg2H Mg -0.31922 -0.00825 -0.39573 0.0400 Uiso
Mg2_2 Mg -0.32508 0.02237 -0.06240 0.0400 Uiso
O9 O -0.40571 0.36485 0.13060 0.0700 Uiso
O10 O -0.43075 0.39354 0.74964 0.0700 Uiso
O11 O -0.39713 0.40125 1.02113 0.0700 Uiso
O12 O -0.37447 0.35960 0.27499 0.0700 Uiso
O13 O -0.33103 0.17840 0.55377 0.0700 Uiso
O14 O -0.37697 0.42055 0.54176 0.0700 Uiso
O15 O -0.38102 0.22254 0.71771 0.0700 Uiso
O16 O -0.50672 0.29852 -0.06055 0.0700 Uiso
O17 O -0.44895 0.35736 0.28497 0.0700 Uiso
O18 O -0.39190 0.37022 0.38144 0.0700 Uiso
O19 O -0.49355 0.34662 -0.08575 0.0700 Uiso
O20 O -0.49276 0.34058 0.22281 0.0700 Uiso
O21 O -0.34509 0.51650 0.81368 0.0700 Uiso
loop_
_geom_bond_atom_site_label_1
_geom_bond_atom_site_label_2
_geom_bond_site_symmetry_1
_geom_bond_site_symmetry_2
H1 C2 1_555 1_555
H2 C5 1_555 1_555
H3 C8 1_555 1_555
H4 C7 1_555 1_555
H5 C10 1_555 1_555
H6 C17 1_555 1_555
H7 C20 1_555 1_555
H8 C19 1_555 1_555
H9 C22 1_555 1_555
H10 C25 1_555 1_555
C1 C2 1_555 1_555
C2 C3 1_555 1_555
C3 C4 1_555 1_555
C4 C5 1_555 1_555
C5 C6 1_555 1_555
C6 C1 1_555 1_555
C7 C8 1_555 1_555
C8 C9 1_555 1_555
C9 C10 1_555 1_555
C10 C16 1_555 1_555
C11 C12 1_555 1_555
C12 C13 1_555 1_555
C13 O3 1_555 1_555
C14 C15 1_555 1_555
C15 C7 1_555 1_555
C16 C15 1_555 1_555
C17 C11 1_555 1_555
C18 C6 1_555 1_555
C19 C18 1_555 1_555
C20 C12 1_555 1_555
C21 C9 1_555 1_555
C22 C21 1_555 1_555
C23 C22 1_555 1_555
C24 C3 1_555 1_555
C25 C24 1_555 1_555
C26 C21 1_555 1_555
O1 Mg1 1_555 1_555
O2 C11 1_555 1_555
O3 Mg1E 1_555 1_555
O4 C13 1_555 1_555
O5 C14 1_555 1_555
O6 C14 1_555 1_555
O7 C16 1_555 1_555
Mg1 O4 1_555 1_555
O8 Mg2 1_555 1_555
Mg2 O5 1_555 1_555
C27 C1 1_555 1_555
C28 C4 1_555 1_555
C29 C23 1_555 1_555
C30 C26 1_555 1_555
H11 C27 1_555 1_555
H12 C27 1_555 1_555
H13 C27 1_555 1_555
H14 C28 1_555 1_555
H15 C28 1_555 1_555
H16 C28 1_555 1_555
H17 C29 1_555 1_555
H18 C29 1_555 1_555
H19 C29 1_555 1_555
H20 C30 1_555 1_555
H21 C30 1_555 1_555
H22 C30 1_555 1_555
O2G Mg1 1_555 1_555
O2_2 Mg1 1_555 1_555
O3E Mg1 1_555 1_555
O3G Mg1 1_555 1_555
O6H Mg2 1_555 1_555
O6D Mg2 1_555 1_555
O7_2 Mg2 1_555 1_555
O7D Mg2 1_555 1_555
Mg1E O2 1_555 1_555
Mg1G O3 1_555 1_555
Mg1_2 O2 1_555 1_555
Mg2D O6 1_555 1_555
Mg2H O6 1_555 1_555
Mg2_2 O7 1_555 1_555
C17 C18 1_555 1_555
C19 C20 1_555 1_555
C23 C24 1_555 1_555
C25 C26 1_555 1_555
O7 Mg2H 1_555 1_555
O2G Mg1G 1_555 1_555
O3E Mg1G 1_555 1_555
O6H Mg2D 1_555 1_555
O7D Mg2D 1_555 1_555

#END
