
#######################################################################
#
#                 Cambridge Crystallographic Data Centre
#                                CCDC 
#
#######################################################################
#
# If this CIF has been generated from an entry in the Cambridge 
# Structural Database, then it will include bibliographic, chemical, 
# crystal, experimental, refinement or atomic coordinate data resulting 
# from the CCDC's data processing and validation procedures.
#
#######################################################################

data_RAVWIW
_chemical_formula_moiety         '(C38 H44 Mg2 O13)n'
_symmetry_cell_setting           rhombohedral
_symmetry_space_group_name_H-M   'R 3'
_symmetry_Int_Tables_number      146
_space_group_name_Hall           'R 3'
loop_
_symmetry_equiv_pos_site_id
_symmetry_equiv_pos_as_xyz
1 x,y,z
2 -y,x-y,z
3 -x+y,-x,z
4 2/3+x,1/3+y,1/3+z
5 2/3-y,1/3+x-y,1/3+z
6 2/3-x+y,1/3-x,1/3+z
7 1/3+x,2/3+y,2/3+z
8 1/3-y,2/3+x-y,2/3+z
9 1/3-x+y,2/3-x,2/3+z
_cell_length_a                   66.4154
_cell_length_b                   66.4154
_cell_length_c                   6.8185
_cell_angle_alpha                90
_cell_angle_beta                 90
_cell_angle_gamma                120
_cell_volume                     26047
loop_
_atom_site_label
_atom_site_type_symbol
_atom_site_fract_x
_atom_site_fract_y
_atom_site_fract_z
H1 H -0.16413 0.19250 0.62440
H2 H -0.18976 0.18781 0.50686
H3 H -0.18848 0.16506 0.62870
H4 H -0.09754 0.18196 0.34818
H5 H -0.10935 0.17318 0.59048
H6 H -0.12761 0.16427 0.38246
H7 H -0.10040 0.27651 0.48175
H8 H -0.13069 0.26045 0.48565
H9 H -0.11528 0.26500 0.71045
H10 H -0.12876 0.18467 0.04107
H11 H -0.14406 0.22503 0.34123
H12 H -0.08307 0.21562 0.63996
H13 H -0.24317 0.09830 -0.66334
H14 H -0.27161 0.07071 -0.88067
H15 H -0.27240 0.05326 -0.17614
H16 H -0.06387 0.27980 0.50558
H17 H -0.06182 0.26218 1.20604
H18 H -0.09083 0.23434 0.99355
H19 H -0.25260 0.11716 -0.30933
H20 H -0.19206 0.10762 -0.00246
H21 H -0.20731 0.14804 0.29493
H22 H -0.22028 0.06773 -0.37233
H23 H -0.20551 0.07204 -0.14411
H24 H -0.23582 0.05615 -0.14654
H25 H -0.20853 0.16835 -0.04655
H26 H -0.22653 0.15955 -0.25638
H27 H -0.23863 0.15059 -0.01527
H28 H -0.14753 0.16762 -0.29258
H29 H -0.14632 0.14485 -0.17036
H30 H -0.17192 0.14019 -0.28822
C1 C -0.17891 0.18032 0.53713
C2 C -0.11203 0.17860 0.44414
C3 C -0.11513 0.26185 0.55083
C4 C -0.16338 0.15911 -0.01089
C5 C -0.14592 0.17661 0.09688
C6 C -0.15022 0.18390 0.27561
C7 C -0.09641 0.21766 0.57449
C8 C -0.11332 0.19992 0.46462
C9 C -0.13100 0.20246 0.38304
C10 C -0.13067 0.22305 0.40646
C11 C -0.11388 0.24068 0.51850
C12 C -0.09669 0.23781 0.60516
C13 C -0.27220 0.06610 -0.72815
C14 C -0.25593 0.08221 -0.60359
C15 C -0.25614 0.07771 -0.40364
C16 C -0.27278 0.05695 -0.32937
C17 C -0.04613 0.29254 0.77737
C18 C -0.04530 0.28804 0.98109
C19 C -0.02728 0.30368 1.12049
C20 C -0.30667 0.03017 -0.78629
C21 C -0.28930 0.04494 -0.65646
C22 C -0.28916 0.04044 -0.45200
C23 C -0.06311 0.27610 0.65853
C24 C -0.07926 0.25517 0.73417
C25 C -0.07849 0.25054 0.93252
C26 C -0.06184 0.26672 1.05402
C27 C -0.23902 0.09497 -0.27203
C28 C -0.22202 0.09203 -0.18257
C29 C -0.20536 0.10962 -0.06930
C30 C -0.20504 0.13022 -0.04691
C31 C -0.22263 0.13277 -0.13024
C32 C -0.23936 0.11509 -0.24190
C33 C -0.18584 0.14881 0.06046
C34 C -0.19014 0.15610 0.23913
C35 C -0.17268 0.17360 0.34695
C36 C -0.22083 0.07079 -0.21302
C37 C -0.22401 0.15404 -0.10983
C38 C -0.15714 0.15237 -0.20092
O1 O -0.00585 0.28788 1.61519
O2 O -0.03156 0.31315 0.68665
O3 O -0.01117 0.32278 1.06394
O4 O -0.02819 0.29755 1.29913
O5 O -0.30577 0.03559 -0.96685
O6 O -0.32326 0.01170 -0.72461
O7 O -0.30335 0.02157 -0.37477
O8 O -0.32912 0.04481 -1.26994
Mg1 Mg -0.00665 0.31498 1.51257
Mg2 Mg -0.32698 0.01789 -1.18252
O2G O 0.02018 0.32196 1.35332
O2_2 O -0.03156 0.31315 1.68665
O3E O 0.00062 0.34450 1.39727
O3G O 0.01055 0.33272 1.73061
O6H O -0.33171 -0.01007 -1.05794
O6D O -0.34503 -0.00163 -1.39128
O7_2 O -0.30335 0.02157 -1.37477
O7D O -0.35490 0.00841 -1.04144
Mg1E Mg -0.01170 0.33998 0.84590
Mg1G Mg 0.01835 0.34504 1.17924
Mg1_2 Mg -0.00665 0.31498 0.51257
Mg2D Mg -0.35122 -0.01154 -0.84919
Mg2H Mg -0.32180 -0.00635 -0.51585
Mg2_2 Mg -0.32698 0.01789 -0.18252
O9 O -0.63298 0.30361 0.23271
O10 O -0.05942 0.30468 1.00540
O11 O -0.69351 0.36021 -0.17705
O12 O -0.60427 0.03454 0.46601
O13 O -0.00319 0.28684 0.86569
loop_
_geom_bond_atom_site_label_1
_geom_bond_atom_site_label_2
_geom_bond_site_symmetry_1
_geom_bond_site_symmetry_2
H1 C1 1_555 1_555
H2 C1 1_555 1_555
H3 C1 1_555 1_555
H4 C2 1_555 1_555
H5 C2 1_555 1_555
H6 C2 1_555 1_555
H7 C3 1_555 1_555
H8 C3 1_555 1_555
H9 C3 1_555 1_555
H10 C5 1_555 1_555
H11 C10 1_555 1_555
H12 C7 1_555 1_555
H13 C14 1_555 1_555
H14 C13 1_555 1_555
H15 C16 1_555 1_555
H16 C23 1_555 1_555
H17 C26 1_555 1_555
H18 C25 1_555 1_555
H19 C32 1_555 1_555
H20 C29 1_555 1_555
H21 C34 1_555 1_555
H22 C36 1_555 1_555
H23 C36 1_555 1_555
H24 C36 1_555 1_555
H25 C37 1_555 1_555
H26 C37 1_555 1_555
H27 C37 1_555 1_555
H28 C38 1_555 1_555
H29 C38 1_555 1_555
H30 C38 1_555 1_555
C1 C35 1_555 1_555
C2 C8 1_555 1_555
C3 C11 1_555 1_555
C4 C5 1_555 1_555
C5 C6 1_555 1_555
C6 C9 1_555 1_555
C7 C8 1_555 1_555
C8 C9 1_555 1_555
C9 C10 1_555 1_555
C10 C11 1_555 1_555
C11 C12 1_555 1_555
C12 C7 1_555 1_555
C13 C14 1_555 1_555
C14 C15 1_555 1_555
C15 C16 1_555 1_555
C16 C22 1_555 1_555
C17 C18 1_555 1_555
C18 C19 1_555 1_555
C19 O3 1_555 1_555
C20 C21 1_555 1_555
C21 C13 1_555 1_555
C22 C21 1_555 1_555
C23 C17 1_555 1_555
C24 C12 1_555 1_555
C25 C24 1_555 1_555
C26 C18 1_555 1_555
C27 C15 1_555 1_555
C28 C27 1_555 1_555
C29 C28 1_555 1_555
C30 C29 1_555 1_555
C31 C30 1_555 1_555
C32 C27 1_555 1_555
C33 C4 1_555 1_555
C34 C33 1_555 1_555
C35 C6 1_555 1_555
C36 C28 1_555 1_555
C37 C31 1_555 1_555
C38 C4 1_555 1_555
O1 Mg1 1_555 1_555
O2 C17 1_555 1_555
O3 Mg1E 1_555 1_555
O4 C19 1_555 1_555
O5 C20 1_555 1_555
O6 C20 1_555 1_555
O7 C22 1_555 1_555
O8 Mg2 1_555 1_555
Mg1 O4 1_555 1_555
Mg2 O5 1_555 1_555
O2G Mg1 1_555 1_555
O2_2 Mg1 1_555 1_555
O3E Mg1 1_555 1_555
O3G Mg1 1_555 1_555
O6H Mg2 1_555 1_555
O6D Mg2 1_555 1_555
O7_2 Mg2 1_555 1_555
O7D Mg2 1_555 1_555
Mg1E O2 1_555 1_555
Mg1G O3 1_555 1_555
Mg1_2 O2 1_555 1_555
Mg2D O6 1_555 1_555
Mg2H O6 1_555 1_555
Mg2_2 O7 1_555 1_555
C23 C24 1_555 1_555
C25 C26 1_555 1_555
C30 C33 1_555 1_555
C31 C32 1_555 1_555
C34 C35 1_555 1_555
O7 Mg2H 1_555 1_555
O2G Mg1G 1_555 1_555
O3E Mg1G 1_555 1_555
O6H Mg2D 1_555 1_555
O7D Mg2D 1_555 1_555

#END
