
#######################################################################
#
#                 Cambridge Crystallographic Data Centre
#                                CCDC 
#
#######################################################################
#
# If this CIF has been generated from an entry in the Cambridge 
# Structural Database, then it will include bibliographic, chemical, 
# crystal, experimental, refinement or atomic coordinate data resulting 
# from the CCDC's data processing and validation procedures.
#
#######################################################################

data_RAVWUI
_chemical_formula_moiety         '(C46 H48 O11 Zn2)n'
_symmetry_cell_setting           rhombohedral
_symmetry_space_group_name_H-M   'R 3'
_symmetry_Int_Tables_number      146
_space_group_name_Hall           'R 3'
loop_
_symmetry_equiv_pos_site_id
_symmetry_equiv_pos_as_xyz
1 x,y,z
2 -y,x-y,z
3 -x+y,-x,z
4 2/3+x,1/3+y,1/3+z
5 2/3-y,1/3+x-y,1/3+z
6 2/3-x+y,1/3-x,1/3+z
7 1/3+x,2/3+y,2/3+z
8 1/3-y,2/3+x-y,2/3+z
9 1/3-x+y,2/3-x,2/3+z
_cell_length_a                   78.6433
_cell_length_b                   78.6433
_cell_length_c                   6.8156
_cell_angle_alpha                90
_cell_angle_beta                 90
_cell_angle_gamma                120
_cell_volume                     36505.5
loop_
_atom_site_label
_atom_site_type_symbol
_atom_site_fract_x
_atom_site_fract_y
_atom_site_fract_z
H1 H -0.16875 0.16279 0.72482
H2 H -0.18447 0.15767 0.52026
H3 H -0.17370 0.14288 0.56627
H4 H -0.10262 0.22227 0.08241
H5 H -0.09154 0.20796 0.14283
H6 H -0.10674 0.20214 -0.06834
H7 H -0.12272 0.24703 0.46410
H8 H -0.13711 0.22147 0.43789
H9 H -0.13400 0.23218 0.67706
H10 H -0.05387 0.23038 0.84443
H11 H -0.05600 0.21899 0.61126
H12 H -0.04351 0.24485 0.62647
H13 H -0.13684 0.17487 -0.02236
H14 H -0.18171 0.11957 -0.24565
H15 H -0.08757 0.20480 0.48939
H16 H -0.09576 0.25847 0.73728
H17 H -0.25010 0.07859 -0.82668
H18 H -0.27625 0.05667 -1.03314
H19 H -0.27748 0.04284 -0.32630
H20 H -0.05222 0.28338 0.61889
H21 H -0.04618 0.26975 1.31533
H22 H -0.06924 0.24437 1.10570
H23 H -0.23340 0.06689 -0.47113
H24 H -0.23723 0.11729 -0.09346
H25 H -0.13949 0.19111 0.67341
H26 H -0.19078 0.15143 0.32631
H27 H -0.28288 0.07608 -0.18752
H28 H -0.27091 0.10072 -0.11141
H29 H -0.27765 0.09517 -0.36107
H30 H -0.18930 0.09799 -0.35060
H31 H -0.19587 0.08889 -0.10441
H32 H -0.20483 0.07275 -0.30604
H33 H -0.22363 0.12185 0.36321
H34 H -0.22839 0.13414 0.16638
H35 H -0.23587 0.10884 0.14858
H36 H -0.14022 0.15991 -0.14896
H37 H -0.13903 0.14453 0.04085
H38 H -0.14833 0.13504 -0.19743
C1 C -0.17128 0.15778 0.57027
C2 C -0.10467 0.20751 0.08486
C3 C -0.12672 0.23307 0.53564
C4 C -0.05589 0.23142 0.68470
C5 C -0.13728 0.17828 0.13030
C6 C -0.15360 0.16617 0.24238
C7 C -0.15439 0.17066 0.44157
C8 C -0.18373 0.12578 -0.11467
C9 C -0.12169 0.19475 0.21191
C10 C -0.12253 0.19931 0.41021
C11 C -0.07431 0.23165 0.64899
C12 C -0.08921 0.21668 0.54140
C13 C -0.10654 0.21650 0.50537
C14 C -0.10880 0.23192 0.57355
C15 C -0.09392 0.24681 0.68168
C16 C -0.07687 0.24666 0.72261
C17 C -0.27699 0.05307 -0.87957
C18 C -0.26205 0.06607 -0.76009
C19 C -0.26255 0.06309 -0.55773
C20 C -0.27753 0.04596 -0.48006
C21 C -0.03676 0.29549 0.88755
C22 C -0.03507 0.29208 1.09056
C23 C -0.02073 0.30666 1.22949
C24 C -0.30878 0.02388 -0.94098
C25 C -0.29268 0.03612 -0.80298
C26 C -0.29259 0.03252 -0.59792
C27 C -0.05048 0.28053 0.77054
C28 C -0.06219 0.26210 0.84699
C29 C -0.06034 0.25856 1.04391
C30 C -0.04708 0.27329 1.16385
C31 C -0.25165 0.07845 -0.38876
C32 C -0.23436 0.07769 -0.38569
C33 C -0.21838 0.09043 -0.27159
C34 C -0.21922 0.10522 -0.16787
C35 C -0.23645 0.10609 -0.17354
C36 C -0.25300 0.09215 -0.27116
C37 C -0.20253 0.11980 -0.05059
C38 C -0.20498 0.12881 0.11542
C39 C -0.13887 0.18730 0.52241
C40 C -0.16748 0.14017 -0.01643
C41 C -0.17006 0.14959 0.14393
C42 C -0.18877 0.14393 0.20588
C43 C -0.27214 0.09101 -0.23149
C44 C -0.20109 0.08742 -0.25736
C45 C -0.22437 0.12300 0.20179
C46 C -0.14765 0.14522 -0.08442
O1 O -0.02609 0.31340 0.79637
O2 O -0.00854 0.32362 1.17244
O3 O -0.02086 0.30182 1.40858
O4 O -0.30762 0.02941 -1.11887
O5 O -0.32343 0.00826 -0.88420
O6 O -0.30621 0.01558 -0.50520
Zn1 Zn -0.00361 0.31810 1.62258
Zn2 Zn -0.32652 0.01596 -1.33154
O7 O -0.00386 0.29491 1.72788
O8 O -0.31872 0.04124 -1.45413
O1G O 0.01993 0.32718 1.46304
O1_2 O -0.02609 0.31340 1.79637
O2E O -0.00117 0.34187 1.50577
O2G O 0.00971 0.33451 1.83911
O5H O -0.33498 -0.00990 -1.21753
O5D O -0.34159 0.00164 -1.55087
O6_2 O -0.30621 0.01558 -1.50520
O6D O -0.34891 0.01154 -1.17187
Zn1E Zn -0.01162 0.33694 0.95591
Zn1G Zn 0.01523 0.34496 1.28925
Zn1_2 Zn -0.00361 0.31810 0.62258
Zn2D Zn -0.34929 -0.00915 -0.99821
Zn2H Zn -0.32419 -0.00681 -0.66487
Zn2_2 Zn -0.32652 0.01596 -0.33154
O9 O -0.42658 0.67466 1.57266
O10 O -0.37821 0.54905 1.27061
O11 O -0.59373 0.29306 -1.04756
loop_
_geom_bond_atom_site_label_1
_geom_bond_atom_site_label_2
_geom_bond_site_symmetry_1
_geom_bond_site_symmetry_2
H1 C1 1_555 1_555
H2 C1 1_555 1_555
H3 C1 1_555 1_555
H4 C2 1_555 1_555
H5 C2 1_555 1_555
H6 C2 1_555 1_555
H7 C3 1_555 1_555
H8 C3 1_555 1_555
H9 C3 1_555 1_555
H10 C4 1_555 1_555
H11 C4 1_555 1_555
H12 C4 1_555 1_555
H13 C5 1_555 1_555
H14 C8 1_555 1_555
H15 C12 1_555 1_555
H16 C15 1_555 1_555
H17 C18 1_555 1_555
H18 C17 1_555 1_555
H19 C20 1_555 1_555
H20 C27 1_555 1_555
H21 C30 1_555 1_555
H22 C29 1_555 1_555
H23 C32 1_555 1_555
H24 C35 1_555 1_555
H25 C39 1_555 1_555
H26 C42 1_555 1_555
H27 C43 1_555 1_555
H28 C43 1_555 1_555
H29 C43 1_555 1_555
H30 C44 1_555 1_555
H31 C44 1_555 1_555
H32 C44 1_555 1_555
H33 C45 1_555 1_555
H34 C45 1_555 1_555
H35 C45 1_555 1_555
H36 C46 1_555 1_555
H37 C46 1_555 1_555
H38 C46 1_555 1_555
C1 C7 1_555 1_555
C2 C9 1_555 1_555
C3 C14 1_555 1_555
C4 C11 1_555 1_555
C5 C6 1_555 1_555
C6 C7 1_555 1_555
C7 C39 1_555 1_555
C8 C37 1_555 1_555
C9 C5 1_555 1_555
C10 C9 1_555 1_555
C11 C12 1_555 1_555
C12 C13 1_555 1_555
C13 C10 1_555 1_555
C14 C13 1_555 1_555
C15 C14 1_555 1_555
C16 C11 1_555 1_555
C17 C18 1_555 1_555
C18 C19 1_555 1_555
C19 C20 1_555 1_555
C20 C26 1_555 1_555
C21 C22 1_555 1_555
C22 C23 1_555 1_555
C23 O2 1_555 1_555
C24 C25 1_555 1_555
C25 C17 1_555 1_555
C26 C25 1_555 1_555
C27 C21 1_555 1_555
C28 C16 1_555 1_555
C29 C28 1_555 1_555
C30 C22 1_555 1_555
C31 C19 1_555 1_555
C32 C31 1_555 1_555
C33 C32 1_555 1_555
C34 C33 1_555 1_555
C35 C34 1_555 1_555
C36 C31 1_555 1_555
C37 C34 1_555 1_555
C38 C37 1_555 1_555
C39 C10 1_555 1_555
C40 C8 1_555 1_555
C41 C6 1_555 1_555
C42 C38 1_555 1_555
C43 C36 1_555 1_555
C44 C33 1_555 1_555
C45 C38 1_555 1_555
C46 C40 1_555 1_555
O1 C21 1_555 1_555
O2 Zn1E 1_555 1_555
O3 C23 1_555 1_555
O4 C24 1_555 1_555
O5 C24 1_555 1_555
O6 C26 1_555 1_555
Zn1 O3 1_555 1_555
Zn2 O4 1_555 1_555
O7 Zn1 1_555 1_555
O8 Zn2 1_555 1_555
O1G Zn1 1_555 1_555
O1_2 Zn1 1_555 1_555
O2E Zn1 1_555 1_555
O2G Zn1 1_555 1_555
O5H Zn2 1_555 1_555
O5D Zn2 1_555 1_555
O6_2 Zn2 1_555 1_555
O6D Zn2 1_555 1_555
Zn1E O1 1_555 1_555
Zn1G O2 1_555 1_555
Zn1_2 O1 1_555 1_555
Zn2D O5 1_555 1_555
Zn2H O5 1_555 1_555
Zn2_2 O6 1_555 1_555
C15 C16 1_555 1_555
C27 C28 1_555 1_555
C29 C30 1_555 1_555
C35 C36 1_555 1_555
C40 C41 1_555 1_555
C41 C42 1_555 1_555
O6 Zn2H 1_555 1_555
O1G Zn1G 1_555 1_555
O2E Zn1G 1_555 1_555
O5H Zn2D 1_555 1_555
O6D Zn2D 1_555 1_555

#END
