
#######################################################################
#
#                 Cambridge Crystallographic Data Centre
#                                CCDC 
#
#######################################################################
#
# If this CIF has been generated from an entry in the Cambridge 
# Structural Database, then it will include bibliographic, chemical, 
# crystal, experimental, refinement or atomic coordinate data resulting 
# from the CCDC's data processing and validation procedures.
#
#######################################################################

data_RAVXOD
_chemical_formula_moiety         '(C106 H122 Mg2 O8)n'
_symmetry_cell_setting           rhombohedral
_symmetry_space_group_name_H-M   'R 3'
_symmetry_Int_Tables_number      146
_space_group_name_Hall           'R 3'
loop_
_symmetry_equiv_pos_site_id
_symmetry_equiv_pos_as_xyz
1 x,y,z
2 -y,x-y,z
3 -x+y,-x,z
4 2/3+x,1/3+y,1/3+z
5 2/3-y,1/3+x-y,1/3+z
6 2/3-x+y,1/3-x,1/3+z
7 1/3+x,2/3+y,2/3+z
8 1/3-y,2/3+x-y,2/3+z
9 1/3-x+y,2/3-x,2/3+z
_cell_length_a                   145.0425
_cell_length_b                   145.0425
_cell_length_c                   7.0379
_cell_angle_alpha                90
_cell_angle_beta                 90
_cell_angle_gamma                120
_cell_volume                     128223
loop_
_atom_site_label
_atom_site_type_symbol
_atom_site_fract_x
_atom_site_fract_y
_atom_site_fract_z
H1 H 0.02616 0.35617 1.33117
H2 H 0.10528 0.29781 -0.59816
H3 H 0.10858 0.29670 -0.84137
H4 H 0.11760 0.30822 -0.70146
H5 H 0.09468 0.30219 -0.82198
H6 H 0.10681 0.31222 -0.93507
H7 H 0.11278 0.32261 -0.63531
H8 H 0.10105 0.31242 -0.51285
H9 H 0.08922 0.31593 -0.71782
H10 H 0.10049 0.32484 -0.86179
H11 H 0.10867 0.33732 -0.58639
H12 H 0.09630 0.33577 -0.66588
H13 H 0.10875 0.35934 -0.53244
H14 H 0.10995 0.37211 -0.58679
H15 H 0.12023 0.36934 -0.66351
H16 H 0.11461 0.37172 -0.25080
H17 H 0.12619 0.38135 -0.38102
H18 H 0.13295 0.36863 -0.40564
H19 H 0.12098 0.35828 -0.29700
H20 H 0.12565 0.37033 0.00081
H21 H 0.13784 0.37957 -0.11520
H22 H 0.14029 0.36209 -0.14843
H23 H 0.14444 0.37058 0.05432
H24 H 0.20029 0.32479 0.25313
H25 H 0.19181 0.31164 0.15340
H26 H 0.20595 0.31848 0.11294
H27 H 0.18419 0.34127 -0.50147
H28 H 0.19846 0.34895 -0.52074
H29 H 0.19110 0.33650 -0.64849
H30 H 0.18269 0.32316 0.07893
H31 H 0.20749 0.33650 -0.47009
H32 H 0.16218 0.34629 0.19990
H33 H 0.17615 0.35466 0.14785
H34 H 0.16636 0.35530 -0.00124
H35 H 0.12795 0.35848 0.23034
H36 H 0.13514 0.35209 0.15892
H37 H 0.09117 0.31954 -0.37074
H38 H 0.08829 0.33016 -0.38482
H39 H 0.07490 0.31603 0.08813
H40 H 0.07376 0.31653 -0.16600
H41 H 0.08625 0.31962 -0.05593
H42 H 0.08587 0.36342 0.27623
H43 H 0.09634 0.36948 0.10301
H44 H 0.08308 0.36633 0.03897
H45 H 0.06696 0.32988 0.62247
H46 H 0.06748 0.32517 0.38986
H47 H 0.07813 0.33805 0.47211
H48 H 0.04484 0.35802 0.32615
H49 H 0.05852 0.36668 0.26093
H50 H 0.04911 0.35825 0.08499
H51 H 0.22183 0.33929 -0.00359
H52 H 0.22440 0.31454 -0.45470
H53 H 0.28195 0.33479 -0.95743
H54 H 0.26981 0.31210 -0.38034
H55 H 0.18373 0.34502 0.01728
H56 H 0.10081 0.35827 -0.05618
H57 H 0.06542 0.32640 0.05996
H58 H 0.28448 0.32252 -1.16497
H59 H 0.29941 0.32653 -1.36805
H60 H 0.30433 0.32929 -0.67388
H61 H 0.01980 0.35511 1.51779
H62 H 0.31339 0.31104 -1.85108
H63 H 0.02997 0.33689 0.31988
H64 H 0.03450 0.34207 1.01318
H65 H 0.04969 0.34576 0.81745
H66 H 0.26923 0.34044 -0.38803
H67 H 0.23393 0.30845 -0.27246
H68 H 0.15069 0.32129 -0.34521
H69 H 0.06498 0.35476 0.03944
H70 H 0.05227 0.33249 0.62120
H71 H 0.11027 0.35209 0.12632
H72 H 0.11265 0.32724 -0.32490
H73 H 0.27909 0.30331 -0.46614
H74 H 0.28142 0.30322 -0.71677
H75 H 0.29206 0.31217 -0.56177
H76 H 0.25626 0.32911 -0.79562
H77 H 0.26706 0.34197 -0.71582
H78 H 0.26721 0.33727 -0.95028
H79 H 0.25174 0.30053 -0.37155
H80 H 0.23844 0.29732 -0.43364
H81 H 0.24885 0.30347 -0.60786
H82 H 0.24830 0.34707 -0.27229
H83 H 0.26079 0.35021 -0.16169
H84 H 0.25967 0.35072 -0.41586
H85 H 0.24631 0.33660 0.05609
H86 H 0.24331 0.34714 0.04215
H87 H 0.19945 0.31436 -0.48751
H88 H 0.20672 0.30805 -0.55885
H89 H 0.16807 0.31102 -0.32662
H90 H 0.15827 0.31164 -0.47566
H91 H 0.17224 0.32002 -0.52779
H92 H 0.12696 0.32992 0.14151
H93 H 0.15179 0.34318 -0.40725
H94 H 0.14331 0.32984 0.32011
H95 H 0.13591 0.31740 0.19241
H96 H 0.15018 0.32503 0.17321
H97 H 0.12861 0.34799 -0.44160
H98 H 0.14275 0.35477 -0.48192
H99 H 0.13423 0.34164 -0.58170
H100 H 0.19025 0.29587 -0.38290
H101 H 0.19435 0.30436 -0.18013
H102 H 0.19694 0.28696 -0.21335
H103 H 0.20911 0.29626 -0.32933
H104 H 0.21370 0.30829 -0.03151
H105 H 0.20176 0.29789 0.07712
H106 H 0.20864 0.28527 0.05256
H107 H 0.22019 0.29494 -0.07774
H108 H 0.21454 0.29729 0.33500
H109 H 0.22488 0.29460 0.25819
H110 H 0.22599 0.30734 0.20386
H111 H 0.23831 0.33091 0.33715
H112 H 0.22591 0.32929 0.25799
H113 H 0.23403 0.34176 0.53350
H114 H 0.24528 0.35073 0.38952
H115 H 0.23338 0.35416 0.18484
H116 H 0.22168 0.34391 0.30715
H117 H 0.22758 0.35428 0.60707
H118 H 0.23970 0.36437 0.49434
H119 H 0.21676 0.35824 0.37336
H120 H 0.22571 0.36974 0.51379
H121 H 0.22906 0.36869 0.27060
H122 H 0.30723 0.31082 -1.66668
C1 C 0.10905 0.30238 -0.73007
C2 C 0.10325 0.30817 -0.79783
C3 C 0.10420 0.31647 -0.65145
C4 C 0.09791 0.32189 -0.71550
C5 C 0.09993 0.33153 -0.59221
C6 C 0.11449 0.36804 -0.54779
C7 C 0.12049 0.37267 -0.36185
C8 C 0.12660 0.36702 -0.29968
C9 C 0.13174 0.37095 -0.10292
C10 C 0.13728 0.36486 -0.02869
C11 C 0.19895 0.31961 0.12785
C12 C 0.19154 0.34069 -0.51366
C13 C 0.18809 0.32602 -0.04162
C14 C 0.19710 0.32475 -0.04280
C15 C 0.20404 0.32835 -0.20135
C16 C 0.20200 0.33348 -0.35138
C17 C 0.19304 0.33485 -0.34954
C18 C 0.18593 0.33092 -0.19355
C19 C 0.16810 0.34984 0.08306
C20 C 0.13024 0.35544 0.10416
C21 C 0.09486 0.32831 -0.39244
C22 C 0.07911 0.32045 -0.04260
C23 C 0.08772 0.36354 0.12280
C24 C 0.06936 0.33242 0.47308
C25 C 0.05142 0.35865 0.23606
C26 C 0.23159 0.33263 -0.09264
C27 C 0.22243 0.33371 -0.09710
C28 C 0.21419 0.31972 -0.33313
C29 C 0.22388 0.31978 -0.35050
C30 C 0.27922 0.32971 -0.83257
C31 C 0.27083 0.32920 -0.72516
C32 C 0.28016 0.31675 -0.62518
C33 C 0.27238 0.31696 -0.50751
C34 C 0.21367 0.32721 -0.21220
C35 C 0.23276 0.32619 -0.23284
C36 C 0.26775 0.32322 -0.55420
C37 C 0.28411 0.32374 -0.78319
C38 C 0.17650 0.33986 -0.06162
C39 C 0.16752 0.34113 -0.04332
C40 C 0.15813 0.33430 -0.14612
C41 C 0.08510 0.35252 0.05869
C42 C 0.09313 0.35123 -0.02854
C43 C 0.09188 0.34102 -0.06116
C44 C 0.08161 0.33190 -0.02851
C45 C 0.07325 0.33336 0.03670
C46 C 0.07509 0.34339 0.09670
C47 C 0.30071 0.32684 -1.21725
C48 C 0.29205 0.32451 -1.10061
C49 C 0.29312 0.32493 -0.90325
C50 C 0.30318 0.32796 -0.82444
C51 C 0.02203 0.33644 0.58060
C52 C 0.02318 0.33789 0.78225
C53 C 0.01470 0.33709 0.91512
C54 C 0.31864 0.32983 -1.26739
C55 C 0.31076 0.32944 -1.14183
C56 C 0.31205 0.33043 -0.93992
C57 C 0.03099 0.33856 0.47022
C58 C 0.04106 0.34212 0.55311
C59 C 0.04207 0.34329 0.74986
C60 C 0.03329 0.34114 0.86184
C61 C 0.25961 0.32346 -0.42690
C62 C 0.26142 0.33345 -0.36491
C63 C 0.25303 0.33486 -0.29935
C64 C 0.24279 0.32570 -0.26700
C65 C 0.24159 0.31551 -0.30015
C66 C 0.24963 0.31429 -0.38870
C67 C 0.17629 0.33201 -0.18182
C68 C 0.16690 0.32517 -0.28455
C69 C 0.15793 0.32646 -0.26626
C70 C 0.05024 0.34333 0.43881
C71 C 0.06687 0.34374 0.21992
C72 C 0.10187 0.34047 -0.09544
C73 C 0.12087 0.33929 -0.11630
C74 C 0.06230 0.34997 0.16740
C75 C 0.05438 0.35024 0.27991
C76 C 0.06363 0.33789 0.39215
C77 C 0.05512 0.33745 0.49490
C78 C 0.11075 0.34683 0.02213
C79 C 0.12042 0.34682 0.00465
C80 C 0.11209 0.33284 -0.23138
C81 C 0.10297 0.33400 -0.23580
C82 C 0.28340 0.30845 -0.58991
C83 C 0.26503 0.33472 -0.80031
C84 C 0.24704 0.30330 -0.45411
C85 C 0.25547 0.34628 -0.28525
C86 C 0.23969 0.33838 0.06389
C87 C 0.20439 0.31106 -0.43270
C88 C 0.16632 0.31647 -0.41092
C89 C 0.14851 0.33542 -0.13475
C90 C 0.14139 0.33151 0.02113
C91 C 0.13246 0.33293 0.02282
C92 C 0.13046 0.33809 -0.12723
C93 C 0.13740 0.34165 -0.28573
C94 C 0.14638 0.34033 -0.28679
C95 C 0.14285 0.32565 0.18532
C96 C 0.13558 0.34681 -0.45643
C97 C 0.19739 0.30162 -0.29986
C98 C 0.20300 0.29560 -0.22561
C99 C 0.20813 0.29955 -0.02884
C100 C 0.21430 0.29396 0.03334
C101 C 0.22029 0.29862 0.21924
C102 C 0.23464 0.33512 0.26373
C103 C 0.23660 0.34473 0.38722
C104 C 0.23025 0.35009 0.32338
C105 C 0.23114 0.35835 0.46997
C106 C 0.22529 0.36410 0.40230
O1 O 0.01927 0.35523 1.37765
O2 O 0.01214 0.33174 0.48638
O3 O 0.00529 0.33410 0.85502
O4 O 0.01713 0.33965 1.09048
O5 O 0.31649 0.32786 -1.44506
O6 O 0.32772 0.33187 -1.20323
O7 O 0.32120 0.33398 -0.86050
O8 O 0.31407 0.31155 -1.71095
Mg1 Mg 0.00821 0.34027 1.30282
Mg2 Mg 0.32529 0.32681 -1.65744
O2G O 0.00159 0.34707 1.15305
O2_2 O 0.01214 0.33174 1.48638
O3E O -0.00452 0.32804 1.18835
O3G O -0.00077 0.33786 1.52169
O6H O 0.33748 0.33895 -1.53656
O6D O 0.33480 0.32918 -1.86990
O7_2 O 0.32120 0.33398 -1.86050
O7D O 0.33269 0.32055 -1.52717
Mg1_2 Mg 0.00821 0.34027 0.30282
Mg1G Mg -0.00694 0.33461 0.96949
Mg1E Mg -0.00127 0.32512 0.63615
Mg2D Mg 0.33986 0.33181 -1.32411
Mg2H Mg 0.33485 0.34138 -0.99077
Mg2_2 Mg 0.32529 0.32681 -0.65744
loop_
_geom_bond_atom_site_label_1
_geom_bond_atom_site_label_2
_geom_bond_site_symmetry_1
_geom_bond_site_symmetry_2
H1 O1 1_555 1_555
H2 C1 1_555 1_555
H3 C1 1_555 1_555
H4 C1 1_555 1_555
H5 C2 1_555 1_555
H6 C2 1_555 1_555
H7 C3 1_555 1_555
H8 C3 1_555 1_555
H9 C4 1_555 1_555
H10 C4 1_555 1_555
H11 C5 1_555 1_555
H12 C5 1_555 1_555
H13 C6 1_555 1_555
H14 C6 1_555 1_555
H15 C6 1_555 1_555
H16 C7 1_555 1_555
H17 C7 1_555 1_555
H18 C8 1_555 1_555
H19 C8 1_555 1_555
H20 C9 1_555 1_555
H21 C9 1_555 1_555
H22 C10 1_555 1_555
H23 C10 1_555 1_555
H24 C11 1_555 1_555
H25 C11 1_555 1_555
H26 C11 1_555 1_555
H27 C12 1_555 1_555
H28 C12 1_555 1_555
H29 C12 1_555 1_555
H30 C13 1_555 1_555
H31 C16 1_555 1_555
H32 C19 1_555 1_555
H33 C19 1_555 1_555
H34 C19 1_555 1_555
H35 C20 1_555 1_555
H36 C20 1_555 1_555
H37 C21 1_555 1_555
H38 C21 1_555 1_555
H39 C22 1_555 1_555
H40 C22 1_555 1_555
H41 C22 1_555 1_555
H42 C23 1_555 1_555
H43 C23 1_555 1_555
H44 C23 1_555 1_555
H45 C24 1_555 1_555
H46 C24 1_555 1_555
H47 C24 1_555 1_555
H48 C25 1_555 1_555
H49 C25 1_555 1_555
H50 C25 1_555 1_555
H51 C27 1_555 1_555
H52 C29 1_555 1_555
H53 C30 1_555 1_555
H54 C33 1_555 1_555
H55 C38 1_555 1_555
H56 C42 1_555 1_555
H57 C45 1_555 1_555
H58 C48 1_555 1_555
H59 C47 1_555 1_555
H60 C50 1_555 1_555
H61 O1 1_555 1_555
H62 O8 1_555 1_555
H63 C57 1_555 1_555
H64 C60 1_555 1_555
H65 C59 1_555 1_555
H66 C62 1_555 1_555
H67 C65 1_555 1_555
H68 C69 1_555 1_555
H69 C74 1_555 1_555
H70 C77 1_555 1_555
H71 C78 1_555 1_555
H72 C80 1_555 1_555
H73 C82 1_555 1_555
H74 C82 1_555 1_555
H75 C82 1_555 1_555
H76 C83 1_555 1_555
H77 C83 1_555 1_555
H78 C83 1_555 1_555
H79 C84 1_555 1_555
H80 C84 1_555 1_555
H81 C84 1_555 1_555
H82 C85 1_555 1_555
H83 C85 1_555 1_555
H84 C85 1_555 1_555
H85 C86 1_555 1_555
H86 C86 1_555 1_555
H87 C87 1_555 1_555
H88 C87 1_555 1_555
H89 C88 1_555 1_555
H90 C88 1_555 1_555
H91 C88 1_555 1_555
H92 C91 1_555 1_555
H93 C94 1_555 1_555
H94 C95 1_555 1_555
H95 C95 1_555 1_555
H96 C95 1_555 1_555
H97 C96 1_555 1_555
H98 C96 1_555 1_555
H99 C96 1_555 1_555
H100 C97 1_555 1_555
H101 C97 1_555 1_555
H102 C98 1_555 1_555
H103 C98 1_555 1_555
H104 C99 1_555 1_555
H105 C99 1_555 1_555
H106 C100 1_555 1_555
H107 C100 1_555 1_555
H108 C101 1_555 1_555
H109 C101 1_555 1_555
H110 C101 1_555 1_555
H111 C102 1_555 1_555
H112 C102 1_555 1_555
H113 C103 1_555 1_555
H114 C103 1_555 1_555
H115 C104 1_555 1_555
H116 C104 1_555 1_555
H117 C105 1_555 1_555
H118 C105 1_555 1_555
H119 C106 1_555 1_555
H120 C106 1_555 1_555
H121 C106 1_555 1_555
H122 O8 1_555 1_555
C1 C2 1_555 1_555
C2 C3 1_555 1_555
C3 C4 1_555 1_555
C4 C5 1_555 1_555
C5 C21 1_555 1_555
C6 C7 1_555 1_555
C7 C8 1_555 1_555
C8 C9 1_555 1_555
C9 C10 1_555 1_555
C10 C20 1_555 1_555
C11 C14 1_555 1_555
C12 C17 1_555 1_555
C13 C14 1_555 1_555
C14 C15 1_555 1_555
C15 C16 1_555 1_555
C16 C17 1_555 1_555
C17 C18 1_555 1_555
C18 C13 1_555 1_555
C19 C39 1_555 1_555
C20 C79 1_555 1_555
C21 C81 1_555 1_555
C22 C44 1_555 1_555
C23 C41 1_555 1_555
C24 C76 1_555 1_555
C25 C75 1_555 1_555
C26 C27 1_555 1_555
C27 C34 1_555 1_555
C28 C29 1_555 1_555
C29 C35 1_555 1_555
C30 C31 1_555 1_555
C31 C36 1_555 1_555
C32 C33 1_555 1_555
C33 C36 1_555 1_555
C34 C15 1_555 1_555
C35 C26 1_555 1_555
C36 C61 1_555 1_555
C37 C30 1_555 1_555
C38 C39 1_555 1_555
C39 C40 1_555 1_555
C40 C69 1_555 1_555
C41 C42 1_555 1_555
C42 C43 1_555 1_555
C43 C44 1_555 1_555
C44 C45 1_555 1_555
C45 C46 1_555 1_555
C46 C41 1_555 1_555
C47 C48 1_555 1_555
C48 C49 1_555 1_555
C49 C37 1_555 1_555
C50 C49 1_555 1_555
C51 C52 1_555 1_555
C52 C53 1_555 1_555
C53 O3 1_555 1_555
C54 C55 1_555 1_555
C55 C47 1_555 1_555
C56 C50 1_555 1_555
C57 C51 1_555 1_555
C58 C57 1_555 1_555
C59 C58 1_555 1_555
C60 C52 1_555 1_555
C61 C62 1_555 1_555
C62 C63 1_555 1_555
C63 C64 1_555 1_555
C64 C35 1_555 1_555
C65 C64 1_555 1_555
C66 C61 1_555 1_555
C67 C18 1_555 1_555
C68 C67 1_555 1_555
C69 C68 1_555 1_555
C70 C58 1_555 1_555
C71 C46 1_555 1_555
C72 C43 1_555 1_555
C73 C79 1_555 1_555
C74 C71 1_555 1_555
C75 C70 1_555 1_555
C76 C71 1_555 1_555
C77 C70 1_555 1_555
C78 C72 1_555 1_555
C79 C78 1_555 1_555
C80 C73 1_555 1_555
C81 C72 1_555 1_555
C82 C32 1_555 1_555
C83 C31 1_555 1_555
C84 C66 1_555 1_555
C85 C63 1_555 1_555
C86 C26 1_555 1_555
C87 C28 1_555 1_555
C88 C68 1_555 1_555
C89 C40 1_555 1_555
C90 C89 1_555 1_555
C91 C90 1_555 1_555
C92 C73 1_555 1_555
C93 C92 1_555 1_555
C94 C89 1_555 1_555
C95 C90 1_555 1_555
C96 C93 1_555 1_555
C97 C87 1_555 1_555
C98 C97 1_555 1_555
C99 C98 1_555 1_555
C100 C99 1_555 1_555
C101 C100 1_555 1_555
C102 C86 1_555 1_555
C103 C102 1_555 1_555
C104 C103 1_555 1_555
C105 C104 1_555 1_555
C106 C105 1_555 1_555
O1 Mg1 1_555 1_555
O2 C51 1_555 1_555
O3 Mg1G 1_555 1_555
O4 C53 1_555 1_555
O5 C54 1_555 1_555
O6 C54 1_555 1_555
O7 C56 1_555 1_555
O8 Mg2 1_555 1_555
Mg1 O4 1_555 1_555
Mg2 O5 1_555 1_555
O2G Mg1 1_555 1_555
O2_2 Mg1 1_555 1_555
O3E Mg1 1_555 1_555
O3G Mg1 1_555 1_555
O6H Mg2 1_555 1_555
O6D Mg2 1_555 1_555
O7_2 Mg2 1_555 1_555
O7D Mg2 1_555 1_555
Mg1_2 O2 1_555 1_555
Mg1G O2G 1_555 1_555
Mg1E O2 1_555 1_555
Mg2D O6 1_555 1_555
Mg2H O6 1_555 1_555
Mg2_2 O7 1_555 1_555
C28 C34 1_555 1_555
C32 C37 1_555 1_555
C38 C67 1_555 1_555
C55 C56 1_555 1_555
C59 C60 1_555 1_555
C65 C66 1_555 1_555
C74 C75 1_555 1_555
C76 C77 1_555 1_555
C80 C81 1_555 1_555
C91 C92 1_555 1_555
C93 C94 1_555 1_555
O3 Mg1E 1_555 1_555
O7 Mg2H 1_555 1_555
O3E Mg1G 1_555 1_555
O6H Mg2D 1_555 1_555
O7D Mg2D 1_555 1_555

#END
