
#######################################################################
#
#                 Cambridge Crystallographic Data Centre
#                                CCDC 
#
#######################################################################
#
# If this CIF has been generated from an entry in the Cambridge 
# Structural Database, then it will include bibliographic, chemical, 
# crystal, experimental, refinement or atomic coordinate data resulting 
# from the CCDC's data processing and validation procedures.
#
#######################################################################

data_RAVXIX
_chemical_formula_moiety         '(C80 H86 Mg2 O8)n'
_symmetry_cell_setting           rhombohedral
_symmetry_space_group_name_H-M   'R 3'
_symmetry_Int_Tables_number      146
_space_group_name_Hall           'R 3'
loop_
_symmetry_equiv_pos_site_id
_symmetry_equiv_pos_as_xyz
1 x,y,z
2 -y,x-y,z
3 -x+y,-x,z
4 2/3+x,1/3+y,1/3+z
5 2/3-y,1/3+x-y,1/3+z
6 2/3-x+y,1/3-x,1/3+z
7 1/3+x,2/3+y,2/3+z
8 1/3-y,2/3+x-y,2/3+z
9 1/3-x+y,2/3-x,2/3+z
_cell_length_a                   113.7741
_cell_length_b                   113.7741
_cell_length_c                   6.9435
_cell_angle_alpha                90
_cell_angle_beta                 90
_cell_angle_gamma                120
_cell_volume                     77838.8
loop_
_atom_site_label
_atom_site_type_symbol
_atom_site_fract_x
_atom_site_fract_y
_atom_site_fract_z
H1 H -0.09808 0.19712 0.44183
H2 H -0.08137 0.20719 0.35785
H3 H -0.09438 0.20933 0.25489
H4 H -0.09283 0.18360 0.22634
H5 H -0.08646 0.19637 0.04693
H6 H -0.10805 0.17944 -0.05980
H7 H -0.10933 0.19362 0.00744
H8 H -0.11921 0.18287 0.32564
H9 H -0.11761 0.16872 0.26019
H10 H -0.13288 0.16415 -0.01828
H11 H -0.13359 0.17877 0.03527
H12 H -0.14103 0.16504 0.39294
H13 H -0.14702 0.15185 0.22605
H14 H -0.15243 0.18088 0.78954
H15 H -0.15735 0.16877 0.60015
H16 H -0.14258 0.17329 0.73064
H17 H -0.11901 0.22408 0.06972
H18 H -0.10472 0.22616 0.20274
H19 H -0.11214 0.21345 0.02626
H20 H -0.12076 0.24265 0.57966
H21 H -0.11411 0.24352 0.34236
H22 H -0.12738 0.22811 0.43421
H23 H -0.07999 0.23169 1.03935
H24 H -0.08431 0.21688 0.90607
H25 H -0.07037 0.23218 0.83079
H26 H -0.09350 0.26307 1.18445
H27 H -0.09771 0.26117 0.93373
H28 H -0.09924 0.24730 1.07162
H29 H -0.03132 0.27897 0.96908
H30 H -0.03899 0.26150 0.92589
H31 H -0.03646 0.27258 0.72971
H32 H -0.19653 0.13367 0.27694
H33 H -0.20745 0.13135 -0.41663
H34 H -0.26237 0.05422 -0.87654
H35 H -0.27309 0.07744 -0.37136
H36 H -0.16787 0.14462 0.08764
H37 H -0.10147 0.21002 0.68621
H38 H -0.09498 0.25525 0.62272
H39 H -0.27922 0.05617 -1.12440
H40 H -0.29523 0.03925 -1.33403
H41 H -0.29820 0.03193 -0.63283
H42 H -0.00489 0.30085 1.92101
H43 H -0.32872 0.03172 -1.56936
H44 H -0.03644 0.30008 0.94880
H45 H -0.03610 0.29232 1.64675
H46 H -0.05236 0.27498 1.44317
H47 H -0.23906 0.07601 -0.28443
H48 H -0.23295 0.12110 -0.34682
H49 H -0.16653 0.18673 0.25149
H50 H -0.06115 0.25347 0.69984
H51 H -0.07078 0.27741 1.20703
H52 H -0.12696 0.19994 0.75608
H53 H -0.13782 0.19767 0.06234
H54 H -0.29799 0.05759 -0.41547
H55 H -0.29457 0.07006 -0.59437
H56 H -0.30220 0.05304 -0.66383
H57 H -0.23416 0.08408 -0.72570
H58 H -0.23615 0.06989 -0.59148
H59 H -0.23974 0.06851 -0.84404
H60 H -0.26387 0.09886 -0.49494
H61 H -0.24995 0.11421 -0.56918
H62 H -0.25414 0.09944 -0.70256
H63 H -0.20677 0.10330 -0.09554
H64 H -0.21994 0.08784 -0.00388
H65 H -0.21329 0.08879 -0.24133
H66 H -0.22225 0.11774 0.31260
H67 H -0.22950 0.10496 0.13671
H68 H -0.21515 0.10730 0.27046
H69 H -0.19192 0.15803 -0.39087
H70 H -0.17713 0.16259 -0.26095
H71 H -0.18204 0.15049 -0.45048
H72 H -0.18741 0.17948 0.11387
H73 H -0.19338 0.16633 -0.05358
H74 H -0.20080 0.15255 0.30406
H75 H -0.20158 0.16713 0.35742
H76 H -0.21686 0.16250 0.07895
H77 H -0.21516 0.14841 0.01318
H78 H -0.22503 0.13759 0.33099
H79 H -0.22641 0.15171 0.39868
H80 H -0.24795 0.13471 0.29141
H81 H -0.24162 0.14752 0.11256
H82 H -0.23989 0.12189 0.08272
H83 H -0.25296 0.12395 -0.01994
H84 H -0.23625 0.13413 -0.10365
C1 C -0.09193 0.20194 0.31279
C2 C -0.09415 0.19155 0.16026
C3 C -0.10784 0.18555 0.06465
C4 C -0.11915 0.17677 0.20310
C5 C -0.13261 0.17065 0.10112
C6 C -0.14415 0.16246 0.24072
C7 C -0.14877 0.17718 0.67067
C8 C -0.11433 0.21882 0.13857
C9 C -0.11810 0.23727 0.47277
C10 C -0.08048 0.22768 0.89254
C11 C -0.09320 0.25814 1.04914
C12 C -0.03909 0.27065 0.88447
C13 C -0.21065 0.12231 0.05624
C14 C -0.19894 0.13315 0.12534
C15 C -0.19385 0.14309 -0.19329
C16 C -0.20513 0.13187 -0.26471
C17 C -0.26468 0.05939 -0.76687
C18 C -0.25438 0.06952 -0.66068
C19 C -0.28099 0.06267 -0.59475
C20 C -0.27071 0.07244 -0.48263
C21 C -0.19061 0.14364 0.00386
C22 C -0.21348 0.12133 -0.14321
C23 C -0.25740 0.07621 -0.51682
C24 C -0.27792 0.05590 -0.73684
C25 C -0.16754 0.15383 0.12390
C26 C -0.15596 0.16432 0.20341
C27 C -0.15569 0.17628 0.25035
C28 C -0.08927 0.23053 0.76590
C29 C -0.10003 0.21992 0.67257
C30 C -0.10934 0.22175 0.56931
C31 C -0.10774 0.23461 0.55785
C32 C -0.09643 0.24536 0.63807
C33 C -0.08736 0.24347 0.74693
C34 C -0.29632 0.03730 -1.18170
C35 C -0.28710 0.04716 -1.06153
C36 C -0.28810 0.04551 -0.86215
C37 C -0.29813 0.03360 -0.78492
C38 C -0.02628 0.30855 1.21456
C39 C -0.02603 0.30654 1.41756
C40 C -0.01562 0.31603 1.55346
C41 C -0.31718 0.01693 -1.23436
C42 C -0.30692 0.02547 -1.10716
C43 C -0.30744 0.02349 -0.90355
C44 C -0.03587 0.29832 1.10017
C45 C -0.04512 0.28612 1.18002
C46 C -0.04509 0.28426 1.37823
C47 C -0.03574 0.29430 1.49459
C48 C -0.24677 0.08769 -0.40972
C49 C -0.23770 0.08587 -0.29963
C50 C -0.22645 0.09666 -0.21881
C51 C -0.22496 0.10947 -0.22994
C52 C -0.23431 0.11123 -0.33348
C53 C -0.24496 0.10060 -0.42809
C54 C -0.17872 0.15508 0.08875
C55 C -0.17845 0.16703 0.13575
C56 C -0.16687 0.17752 0.21520
C57 C -0.05554 0.27560 1.05984
C58 C -0.07652 0.25497 0.85068
C59 C -0.12087 0.20994 0.48264
C60 C -0.14380 0.18771 0.33542
C61 C -0.06328 0.25866 0.81125
C62 C -0.05278 0.26861 0.91774
C63 C -0.07924 0.26183 0.99537
C64 C -0.06872 0.27212 1.09632
C65 C -0.12926 0.19943 0.60414
C66 C -0.14058 0.18824 0.53264
C67 C -0.13542 0.19818 0.21398
C68 C -0.12369 0.20897 0.28314
C69 C -0.29473 0.06060 -0.56626
C70 C -0.24032 0.07322 -0.70796
C71 C -0.25374 0.10341 -0.55577
C72 C -0.21601 0.09410 -0.13415
C73 C -0.21994 0.11242 0.20088
C74 C -0.18570 0.15417 -0.33133
C75 C -0.19026 0.16888 0.09871
C76 C -0.20182 0.16065 0.23809
C77 C -0.21527 0.15448 0.13586
C78 C -0.22657 0.14564 0.27404
C79 C -0.24026 0.13958 0.17824
C80 C -0.24241 0.12925 0.02523
O1 O -0.00214 0.30695 2.03259
O2 O -0.01822 0.32066 1.12195
O3 O -0.00634 0.32721 1.49498
O4 O -0.01606 0.31263 1.73017
O5 O -0.31643 0.01992 -1.41321
O6 O -0.32725 0.00651 -1.17101
O7 O -0.31596 0.01259 -0.82476
O8 O -0.33011 0.02691 -1.69244
Mg1 Mg -0.00347 0.32263 1.94292
Mg2 Mg -0.32937 0.01050 -1.62598
O2G O 0.01267 0.32779 1.78862
O2_2 O -0.01822 0.32066 2.12195
O3E O 0.00022 0.33967 1.82831
O3G O 0.00612 0.33312 2.16165
O6H O -0.33291 -0.00608 -1.50434
O6D O -0.33984 -0.00043 -1.83768
O7_2 O -0.31596 0.01259 -1.82476
O7D O -0.34592 0.00478 -1.49143
Mg1E Mg -0.00723 0.33680 1.27625
Mg1G Mg 0.01070 0.34057 1.60959
Mg1_2 Mg -0.00347 0.32263 0.94292
Mg2D Mg -0.34383 -0.00654 -1.29265
Mg2H Mg -0.32680 -0.00396 -0.95931
Mg2_2 Mg -0.32937 0.01050 -0.62598
loop_
_geom_bond_atom_site_label_1
_geom_bond_atom_site_label_2
_geom_bond_site_symmetry_1
_geom_bond_site_symmetry_2
H1 C1 1_555 1_555
H2 C1 1_555 1_555
H3 C1 1_555 1_555
H4 C2 1_555 1_555
H5 C2 1_555 1_555
H6 C3 1_555 1_555
H7 C3 1_555 1_555
H8 C4 1_555 1_555
H9 C4 1_555 1_555
H10 C5 1_555 1_555
H11 C5 1_555 1_555
H12 C6 1_555 1_555
H13 C6 1_555 1_555
H14 C7 1_555 1_555
H15 C7 1_555 1_555
H16 C7 1_555 1_555
H17 C8 1_555 1_555
H18 C8 1_555 1_555
H19 C8 1_555 1_555
H20 C9 1_555 1_555
H21 C9 1_555 1_555
H22 C9 1_555 1_555
H23 C10 1_555 1_555
H24 C10 1_555 1_555
H25 C10 1_555 1_555
H26 C11 1_555 1_555
H27 C11 1_555 1_555
H28 C11 1_555 1_555
H29 C12 1_555 1_555
H30 C12 1_555 1_555
H31 C12 1_555 1_555
H32 C14 1_555 1_555
H33 C16 1_555 1_555
H34 C17 1_555 1_555
H35 C20 1_555 1_555
H36 C25 1_555 1_555
H37 C29 1_555 1_555
H38 C32 1_555 1_555
H39 C35 1_555 1_555
H40 C34 1_555 1_555
H41 C37 1_555 1_555
H42 O1 1_555 1_555
H43 O8 1_555 1_555
H44 C44 1_555 1_555
H45 C47 1_555 1_555
H46 C46 1_555 1_555
H47 C49 1_555 1_555
H48 C52 1_555 1_555
H49 C56 1_555 1_555
H50 C61 1_555 1_555
H51 C64 1_555 1_555
H52 C65 1_555 1_555
H53 C67 1_555 1_555
H54 C69 1_555 1_555
H55 C69 1_555 1_555
H56 C69 1_555 1_555
H57 C70 1_555 1_555
H58 C70 1_555 1_555
H59 C70 1_555 1_555
H60 C71 1_555 1_555
H61 C71 1_555 1_555
H62 C71 1_555 1_555
H63 C72 1_555 1_555
H64 C72 1_555 1_555
H65 C72 1_555 1_555
H66 C73 1_555 1_555
H67 C73 1_555 1_555
H68 C73 1_555 1_555
H69 C74 1_555 1_555
H70 C74 1_555 1_555
H71 C74 1_555 1_555
H72 C75 1_555 1_555
H73 C75 1_555 1_555
H74 C76 1_555 1_555
H75 C76 1_555 1_555
H76 C77 1_555 1_555
H77 C77 1_555 1_555
H78 C78 1_555 1_555
H79 C78 1_555 1_555
H80 C79 1_555 1_555
H81 C79 1_555 1_555
H82 C80 1_555 1_555
H83 C80 1_555 1_555
H84 C80 1_555 1_555
C1 C2 1_555 1_555
C2 C3 1_555 1_555
C3 C4 1_555 1_555
C4 C5 1_555 1_555
C5 C6 1_555 1_555
C6 C26 1_555 1_555
C7 C66 1_555 1_555
C8 C68 1_555 1_555
C9 C31 1_555 1_555
C10 C28 1_555 1_555
C11 C63 1_555 1_555
C12 C62 1_555 1_555
C13 C14 1_555 1_555
C14 C21 1_555 1_555
C15 C16 1_555 1_555
C16 C22 1_555 1_555
C17 C18 1_555 1_555
C18 C23 1_555 1_555
C19 C20 1_555 1_555
C20 C23 1_555 1_555
C21 C15 1_555 1_555
C22 C13 1_555 1_555
C23 C48 1_555 1_555
C24 C17 1_555 1_555
C25 C26 1_555 1_555
C26 C27 1_555 1_555
C27 C56 1_555 1_555
C28 C29 1_555 1_555
C29 C30 1_555 1_555
C30 C31 1_555 1_555
C31 C32 1_555 1_555
C32 C33 1_555 1_555
C33 C28 1_555 1_555
C34 C35 1_555 1_555
C35 C36 1_555 1_555
C36 C24 1_555 1_555
C37 C36 1_555 1_555
C38 C39 1_555 1_555
C39 C40 1_555 1_555
C40 O3 1_555 1_555
C41 C42 1_555 1_555
C42 C34 1_555 1_555
C43 C37 1_555 1_555
C44 C38 1_555 1_555
C45 C44 1_555 1_555
C46 C45 1_555 1_555
C47 C39 1_555 1_555
C48 C49 1_555 1_555
C49 C50 1_555 1_555
C50 C51 1_555 1_555
C51 C22 1_555 1_555
C52 C51 1_555 1_555
C53 C48 1_555 1_555
C54 C21 1_555 1_555
C55 C54 1_555 1_555
C56 C55 1_555 1_555
C57 C45 1_555 1_555
C58 C33 1_555 1_555
C59 C30 1_555 1_555
C60 C27 1_555 1_555
C61 C58 1_555 1_555
C62 C57 1_555 1_555
C63 C58 1_555 1_555
C64 C57 1_555 1_555
C65 C59 1_555 1_555
C66 C60 1_555 1_555
C67 C60 1_555 1_555
C68 C59 1_555 1_555
C69 C19 1_555 1_555
C70 C18 1_555 1_555
C71 C53 1_555 1_555
C72 C50 1_555 1_555
C73 C13 1_555 1_555
C74 C15 1_555 1_555
C75 C55 1_555 1_555
C76 C75 1_555 1_555
C77 C76 1_555 1_555
C78 C77 1_555 1_555
C79 C78 1_555 1_555
C80 C79 1_555 1_555
O1 Mg1 1_555 1_555
O2 C38 1_555 1_555
O3 Mg1E 1_555 1_555
O4 C40 1_555 1_555
O5 C41 1_555 1_555
O6 C41 1_555 1_555
O7 C43 1_555 1_555
O8 Mg2 1_555 1_555
Mg1 O4 1_555 1_555
Mg2 O5 1_555 1_555
O2G Mg1 1_555 1_555
O2_2 Mg1 1_555 1_555
O3E Mg1 1_555 1_555
O3G Mg1 1_555 1_555
O6H Mg2 1_555 1_555
O6D Mg2 1_555 1_555
O7_2 Mg2 1_555 1_555
O7D Mg2 1_555 1_555
Mg1E O2 1_555 1_555
Mg1G O3 1_555 1_555
Mg1_2 O2 1_555 1_555
Mg2D O6 1_555 1_555
Mg2H O6 1_555 1_555
Mg2_2 O7 1_555 1_555
C19 C24 1_555 1_555
C25 C54 1_555 1_555
C42 C43 1_555 1_555
C46 C47 1_555 1_555
C52 C53 1_555 1_555
C61 C62 1_555 1_555
C63 C64 1_555 1_555
C65 C66 1_555 1_555
C67 C68 1_555 1_555
O7 Mg2H 1_555 1_555
O2G Mg1G 1_555 1_555
O3E Mg1G 1_555 1_555
O6H Mg2D 1_555 1_555
O7D Mg2D 1_555 1_555

#END
