
#######################################################################
#
#                 Cambridge Crystallographic Data Centre
#                                CCDC 
#
#######################################################################
#
# If this CIF has been generated from an entry in the Cambridge 
# Structural Database, then it will include bibliographic, chemical, 
# crystal, experimental, refinement or atomic coordinate data resulting 
# from the CCDC's data processing and validation procedures.
#
#######################################################################

data_RAVXET
_chemical_formula_moiety         '(C66 H74 Mg2 O16)n'
_symmetry_cell_setting           rhombohedral
_symmetry_space_group_name_H-M   'R -3'
_symmetry_Int_Tables_number      148
_space_group_name_Hall           '-R 3'
loop_
_symmetry_equiv_pos_site_id
_symmetry_equiv_pos_as_xyz
1 x,y,z
2 -y,x-y,z
3 -x+y,-x,z
4 2/3+x,1/3+y,1/3+z
5 2/3-y,1/3+x-y,1/3+z
6 2/3-x+y,1/3-x,1/3+z
7 1/3+x,2/3+y,2/3+z
8 1/3-y,2/3+x-y,2/3+z
9 1/3-x+y,2/3-x,2/3+z
10 -x,-y,-z
11 y,-x+y,-z
12 x-y,x,-z
13 1/3-x,2/3-y,2/3-z
14 1/3+y,2/3-x+y,2/3-z
15 1/3+x-y,2/3+x,2/3-z
16 2/3-x,1/3-y,1/3-z
17 2/3+y,1/3-x+y,1/3-z
18 2/3+x-y,1/3+x,1/3-z
_cell_length_a                   94.3977
_cell_length_b                   94.3977
_cell_length_c                   6.7315
_cell_angle_alpha                90
_cell_angle_beta                 90
_cell_angle_gamma                120
_cell_volume                     51947.6
loop_
_atom_site_label
_atom_site_type_symbol
_atom_site_fract_x
_atom_site_fract_y
_atom_site_fract_z
C1 C 0.64609 0.64395 0.68325
C2 C 0.63294 0.63251 0.54413
C3 C 0.63245 0.63593 0.33688
Mg1 Mg 0.66233 0.65465 1.07091
O1 O 0.64533 0.64051 0.86981
O2 O 0.65830 0.65702 0.61668
O3 O 0.64290 0.65124 0.24735
O4 O 0.66333 0.63478 1.16402
C4 C 0.62008 0.62397 0.21523
C5 C 0.60859 0.60848 0.29024
C6 C 0.60876 0.60532 0.49446
C7 C 0.62085 0.61706 0.61893
C8 C 0.55683 0.55798 -0.19509
C9 C 0.54098 0.55500 -0.14719
C10 C 0.52683 0.54181 -0.23214
C11 C 0.52836 0.53017 -0.35273
C12 C 0.54423 0.53292 -0.39329
C13 C 0.55841 0.54709 -0.32781
C14 C 0.51382 0.51482 -0.43139
C15 C 0.51332 0.50943 -0.63019
C16 C 0.50070 0.50497 -0.30244
C17 C 0.59618 0.59576 0.15539
C18 C 0.57123 0.57168 -0.09104
C19 C 0.58172 0.56800 0.02013
C20 C 0.59455 0.57998 0.13670
C21 C 0.57403 0.58798 -0.08843
C22 C 0.58613 0.59966 0.03913
C23 C 0.60683 0.57599 0.22898
C24 C 0.56479 0.59359 -0.22150
C25 C 0.57471 0.55020 -0.40868
C26 C 0.51059 0.54093 -0.19257
O5 O 0.52654 0.51879 -0.76138
C27 C 0.53148 0.50961 -0.88738
C28 C 0.55018 0.51819 -0.89910
O6 O 0.55459 0.50934 -1.03164
C29 C 0.57166 0.51519 -1.01889
C30 C 0.57579 0.50463 -1.15305
O7 O 0.57234 0.50649 -1.35425
C31 C 0.57122 0.49353 -1.47473
C32 C 0.55368 0.48321 -1.55459
O8 O 0.54247 0.47632 -1.39293
C33 C 0.53178 0.48282 -1.38616
H1 H 0.66266 0.63478 1.31192
H2 H 0.61926 0.62689 0.06088
H3 H 0.59952 0.59372 0.55809
H4 H 0.62086 0.61381 0.77414
H5 H 0.53964 0.56323 -0.04483
H6 H 0.54562 0.52385 -0.47609
H7 H 0.50140 0.50847 -0.14699
H8 H 0.57996 0.55568 0.01471
H9 H 0.58779 0.61195 0.04681
H10 H 0.61946 0.58523 0.18014
H11 H 0.60452 0.56364 0.18231
H12 H 0.60621 0.57603 0.39426
H13 H 0.55738 0.58437 -0.33739
H14 H 0.57370 0.60499 -0.30177
H15 H 0.55656 0.59626 -0.12909
H16 H 0.57432 0.55023 -0.57478
H17 H 0.57706 0.54026 -0.36061
H18 H 0.58513 0.56221 -0.36111
H19 H 0.50586 0.53538 -0.04315
H20 H 0.50139 0.53376 -0.30930
H21 H 0.51216 0.55348 -0.19501
H22 H 0.52651 0.50883 -1.03991
H23 H 0.52691 0.49686 -0.83132
H24 H 0.55510 0.51860 -0.74676
H25 H 0.55492 0.53092 -0.95437
H26 H 0.57531 0.51419 -0.86333
H27 H 0.57889 0.52826 -1.06722
H28 H 0.56827 0.49164 -1.10031
H29 H 0.58909 0.50867 -1.13714
H30 H 0.57972 0.49905 -1.60360
H31 H 0.57495 0.48530 -1.39849
H32 H 0.55099 0.49085 -1.65921
H33 H 0.55301 0.47296 -1.64526
H34 H 0.53875 0.49646 -1.37279
H35 H 0.52378 0.47910 -1.52082
H36 H 0.52373 0.47783 -1.25262
H37 H 0.65942 0.62226 1.21900
C1I C 0.35391 0.35605 -1.68325
C2I C 0.36706 0.36749 -1.54413
C3I C 0.36755 0.36407 -1.33688
Mg1I Mg 0.33767 0.34535 -2.07091
Mg1G Mg 0.67868 0.67435 0.73758
Mg1E Mg 0.65899 0.67100 0.40424
Mg1_2 Mg 0.66233 0.65465 0.07091
Mg1P Mg 0.32132 0.32565 -1.73758
Mg1N Mg 0.34101 0.32900 -1.40424
Mg1I_2 Mg 0.33767 0.34535 -1.07091
O1I O 0.35467 0.35949 -1.86981
O2I O 0.34170 0.34298 -1.61668
O2E O 0.66539 0.67503 0.95001
O2G O 0.67631 0.66795 1.28335
O2N O 0.33461 0.32497 -1.95001
O2P O 0.32369 0.33205 -2.28335
O3I O 0.35710 0.34876 -1.24735
O3_2 O 0.64290 0.65124 1.24735
O3G O 0.68209 0.65833 0.91402
O3I_2 O 0.35710 0.34876 -2.24735
O3P O 0.31791 0.34167 -1.91402
O4I O 0.33667 0.36522 -2.16402
C4I C 0.37992 0.37603 -1.21523
C5I C 0.39141 0.39152 -1.29024
C6I C 0.39124 0.39468 -1.49446
C7I C 0.37915 0.38294 -1.61893
C8I C 0.44317 0.44202 -0.80491
C9I C 0.45902 0.44500 -0.85281
C10I C 0.47317 0.45819 -0.76786
C11I C 0.47164 0.46983 -0.64727
C12I C 0.45577 0.46708 -0.60671
C13I C 0.44159 0.45291 -0.67219
C14I C 0.48618 0.48518 -0.56861
C15I C 0.48668 0.49057 -0.36981
C16I C 0.49930 0.49503 -0.69756
C17I C 0.40382 0.40424 -1.15539
C18I C 0.42877 0.42832 -0.90896
C19I C 0.41828 0.43200 -1.02013
C20I C 0.40545 0.42002 -1.13670
C21I C 0.42597 0.41202 -0.91157
C22I C 0.41387 0.40034 -1.03913
C23I C 0.39317 0.42401 -1.22898
C24I C 0.43521 0.40641 -0.77850
C25I C 0.42529 0.44980 -0.59132
C26I C 0.48941 0.45907 -0.80743
O5I O 0.47346 0.48121 -0.23862
C27I C 0.46852 0.49039 -0.11262
C28I C 0.44982 0.48181 -0.10090
O6I O 0.44541 0.49066 0.03164
C29I C 0.42834 0.48481 0.01889
C30I C 0.42421 0.49537 0.15305
O7I O 0.42766 0.49351 0.35425
C31I C 0.42878 0.50647 0.47473
C32I C 0.44632 0.51679 0.55459
O8I O 0.45753 0.52368 0.39293
C33I C 0.46822 0.51718 0.38616
H1I H 0.33734 0.36522 -2.31192
H2I H 0.38074 0.37311 -1.06088
H3I H 0.40048 0.40628 -1.55809
H4I H 0.37914 0.38619 -1.77414
H5I H 0.46036 0.43677 -0.95517
H6I H 0.45438 0.47615 -0.52391
H7I H 0.49860 0.49153 -0.85301
H8I H 0.42004 0.44432 -1.01471
H9I H 0.41221 0.38805 -1.04681
H10I H 0.38054 0.41477 -1.18014
H11I H 0.39548 0.43636 -1.18231
H12I H 0.39379 0.42397 -1.39426
H13I H 0.44262 0.41563 -0.66261
H14I H 0.42630 0.39501 -0.69823
H15I H 0.44344 0.40374 -0.87091
H16I H 0.42568 0.44977 -0.42522
H17I H 0.42294 0.45974 -0.63939
H18I H 0.41487 0.43779 -0.63889
H19I H 0.49414 0.46462 -0.95685
H20I H 0.49861 0.46624 -0.69070
H21I H 0.48784 0.44652 -0.80499
H22I H 0.47349 0.49117 0.03991
H23I H 0.47309 0.50314 -0.16868
H24I H 0.44490 0.48140 -0.25324
H25I H 0.44508 0.46908 -0.04563
H26I H 0.42469 0.48581 -0.13667
H27I H 0.42111 0.47174 0.06722
H28I H 0.43173 0.50836 0.10031
H29I H 0.41091 0.49133 0.13714
H30I H 0.42028 0.50095 0.60360
H31I H 0.42505 0.51470 0.39849
H32I H 0.44901 0.50915 0.65921
H33I H 0.44699 0.52704 0.64526
H34I H 0.46125 0.50354 0.37279
H35I H 0.47622 0.52090 0.52082
H36I H 0.47627 0.52217 0.25262
H37I H 0.34058 0.37774 -2.21900
loop_
_geom_bond_atom_site_label_1
_geom_bond_atom_site_label_2
_geom_bond_site_symmetry_1
_geom_bond_site_symmetry_2
C1 C2 1_555 1_555
C2 C3 1_555 1_555
C3 O3 1_555 1_555
Mg1 O1 1_555 1_555
O1 C1 1_555 1_555
O2 C1 1_555 1_555
O3 Mg1E 1_555 1_555
O4 Mg1 1_555 1_555
C4 C3 1_555 1_555
C5 C4 1_555 1_555
C6 C5 1_555 1_555
C7 C2 1_555 1_555
C8 C9 1_555 1_555
C9 C10 1_555 1_555
C10 C11 1_555 1_555
C11 C12 1_555 1_555
C12 C13 1_555 1_555
C13 C8 1_555 1_555
C14 C11 1_555 1_555
C15 C14 1_555 1_555
C16 C14 1_555 1_555
C17 C5 1_555 1_555
C18 C8 1_555 1_555
C19 C18 1_555 1_555
C20 C17 1_555 1_555
C21 C18 1_555 1_555
C22 C17 1_555 1_555
C23 C20 1_555 1_555
C24 C21 1_555 1_555
C25 C13 1_555 1_555
C26 C10 1_555 1_555
O5 C15 1_555 1_555
C27 O5 1_555 1_555
C28 C27 1_555 1_555
O6 C28 1_555 1_555
C29 O6 1_555 1_555
C30 C29 1_555 1_555
O7 C30 1_555 1_555
C31 O7 1_555 1_555
C32 C31 1_555 1_555
O8 C32 1_555 1_555
C33 O8 1_555 1_555
H1 O4 1_555 1_555
H2 C4 1_555 1_555
H3 C6 1_555 1_555
H4 C7 1_555 1_555
H5 C9 1_555 1_555
H6 C12 1_555 1_555
H7 C16 1_555 1_555
H8 C19 1_555 1_555
H9 C22 1_555 1_555
H10 C23 1_555 1_555
H11 C23 1_555 1_555
H12 C23 1_555 1_555
H13 C24 1_555 1_555
H14 C24 1_555 1_555
H15 C24 1_555 1_555
H16 C25 1_555 1_555
H17 C25 1_555 1_555
H18 C25 1_555 1_555
H19 C26 1_555 1_555
H20 C26 1_555 1_555
H21 C26 1_555 1_555
H22 C27 1_555 1_555
H23 C27 1_555 1_555
H24 C28 1_555 1_555
H25 C28 1_555 1_555
H26 C29 1_555 1_555
H27 C29 1_555 1_555
H28 C30 1_555 1_555
H29 C30 1_555 1_555
H30 C31 1_555 1_555
H31 C31 1_555 1_555
H32 C32 1_555 1_555
H33 C32 1_555 1_555
H34 C33 1_555 1_555
H35 C33 1_555 1_555
H36 C33 1_555 1_555
H37 O4 1_555 1_555
C1I C2I 1_555 1_555
C2I C3I 1_555 1_555
C3I O3I 1_555 1_555
Mg1I O1I 1_555 1_555
Mg1G O2 1_555 1_555
Mg1E O2 1_555 1_555
Mg1_2 O3 1_555 1_555
Mg1P O2I 1_555 1_555
Mg1N O2I 1_555 1_555
Mg1I_2 O3I 1_555 1_555
O1I C1I 1_555 1_555
O2I C1I 1_555 1_555
O2E Mg1 1_555 1_555
O2G Mg1 1_555 1_555
O2N Mg1I 1_555 1_555
O2P Mg1I 1_555 1_555
O3I Mg1N 1_555 1_555
O3_2 Mg1 1_555 1_555
O3G Mg1 1_555 1_555
O3I_2 Mg1I 1_555 1_555
O3P Mg1I 1_555 1_555
O4I Mg1I 1_555 1_555
C4I C3I 1_555 1_555
C5I C4I 1_555 1_555
C6I C5I 1_555 1_555
C7I C2I 1_555 1_555
C8I C9I 1_555 1_555
C9I C10I 1_555 1_555
C10I C11I 1_555 1_555
C11I C12I 1_555 1_555
C12I C13I 1_555 1_555
C13I C8I 1_555 1_555
C14I C11I 1_555 1_555
C15I C16 1_555 1_555
C16I C15 1_555 1_555
C17I C5I 1_555 1_555
C18I C8I 1_555 1_555
C19I C18I 1_555 1_555
C20I C17I 1_555 1_555
C21I C18I 1_555 1_555
C22I C17I 1_555 1_555
C23I C20I 1_555 1_555
C24I C21I 1_555 1_555
C25I C13I 1_555 1_555
C26I C10I 1_555 1_555
O5I C15I 1_555 1_555
C27I O5I 1_555 1_555
C28I C27I 1_555 1_555
O6I C28I 1_555 1_555
C29I O6I 1_555 1_555
C30I C29I 1_555 1_555
O7I C30I 1_555 1_555
C31I O7I 1_555 1_555
C32I C31I 1_555 1_555
O8I C32I 1_555 1_555
C33I O8I 1_555 1_555
H1I O4I 1_555 1_555
H2I C4I 1_555 1_555
H3I C6I 1_555 1_555
H4I C7I 1_555 1_555
H5I C9I 1_555 1_555
H6I C12I 1_555 1_555
H7I C16I 1_555 1_555
H8I C19I 1_555 1_555
H9I C22I 1_555 1_555
H10I C23I 1_555 1_555
H11I C23I 1_555 1_555
H12I C23I 1_555 1_555
H13I C24I 1_555 1_555
H14I C24I 1_555 1_555
H15I C24I 1_555 1_555
H16I C25I 1_555 1_555
H17I C25I 1_555 1_555
H18I C25I 1_555 1_555
H19I C26I 1_555 1_555
H20I C26I 1_555 1_555
H21I C26I 1_555 1_555
H22I C27I 1_555 1_555
H23I C27I 1_555 1_555
H24I C28I 1_555 1_555
H25I C28I 1_555 1_555
H26I C29I 1_555 1_555
H27I C29I 1_555 1_555
H28I C30I 1_555 1_555
H29I C30I 1_555 1_555
H30I C31I 1_555 1_555
H31I C31I 1_555 1_555
H32I C32I 1_555 1_555
H33I C32I 1_555 1_555
H34I C33I 1_555 1_555
H35I C33I 1_555 1_555
H36I C33I 1_555 1_555
H37I O4I 1_555 1_555
C6 C7 1_555 1_555
C19 C20 1_555 1_555
C21 C22 1_555 1_555
Mg1G O2E 1_555 1_555
Mg1G O3G 1_555 1_555
Mg1P O2N 1_555 1_555
Mg1P O3P 1_555 1_555
C6I C7I 1_555 1_555
C14I C15I 1_555 1_555
C14I C16I 1_555 1_555
C19I C20I 1_555 1_555
C21I C22I 1_555 1_555

#END
