
#######################################################################
#
#                 Cambridge Crystallographic Data Centre
#                                CCDC 
#
#######################################################################
#
# If this CIF has been generated from an entry in the Cambridge 
# Structural Database, then it will include bibliographic, chemical, 
# crystal, experimental, refinement or atomic coordinate data resulting 
# from the CCDC's data processing and validation procedures.
#
#######################################################################

data_RAVXAP
_chemical_formula_moiety         '(C64 H82 Mg2 O14)n'
_symmetry_cell_setting           rhombohedral
_symmetry_space_group_name_H-M   'R 3'
_symmetry_Int_Tables_number      146
_space_group_name_Hall           'R 3'
loop_
_symmetry_equiv_pos_site_id
_symmetry_equiv_pos_as_xyz
1 x,y,z
2 -y,x-y,z
3 -x+y,-x,z
4 2/3+x,1/3+y,1/3+z
5 2/3-y,1/3+x-y,1/3+z
6 2/3-x+y,1/3-x,1/3+z
7 1/3+x,2/3+y,2/3+z
8 1/3-y,2/3+x-y,2/3+z
9 1/3-x+y,2/3-x,2/3+z
_cell_length_a                   91.9600
_cell_length_b                   91.9600
_cell_length_c                   6.9878
_cell_angle_alpha                90
_cell_angle_beta                 90
_cell_angle_gamma                120
_cell_volume                     51176.3
loop_
_atom_site_label
_atom_site_type_symbol
_atom_site_fract_x
_atom_site_fract_y
_atom_site_fract_z
H1 H -0.01170 0.29115 1.71963
H2 H -0.07636 0.20451 -0.14012
H3 H -0.09234 0.19337 -0.31483
H4 H -0.09160 0.21080 -0.18710
H5 H -0.09827 0.19445 0.11165
H6 H -0.09790 0.17760 -0.01058
H7 H -0.12664 0.16944 0.03099
H8 H -0.12236 0.17395 -0.21399
H9 H -0.12315 0.19964 -0.19288
H10 H -0.11999 0.20112 0.05724
H11 H -0.14847 0.17420 0.08779
H12 H -0.15173 0.17563 -0.15788
H13 H -0.15665 0.19798 -0.12004
H14 H -0.14190 0.20755 0.06219
H15 H -0.16246 0.23511 0.55147
H16 H -0.17055 0.22038 0.36138
H17 H -0.17480 0.21317 0.60270
H18 H -0.09211 0.23090 0.50877
H19 H -0.10458 0.20828 0.51686
H20 H -0.10163 0.21927 0.29986
H21 H -0.11701 0.26890 0.53204
H22 H -0.09605 0.28357 0.45809
H23 H -0.10651 0.26276 0.36110
H24 H -0.08052 0.23360 1.04837
H25 H -0.06215 0.25400 1.04587
H26 H -0.07871 0.24896 1.21529
H27 H -0.24859 0.08105 -0.50354
H28 H -0.26939 0.10080 0.02507
H29 H -0.18251 0.16881 -0.05039
H30 H -0.13407 0.19627 0.35260
H31 H -0.13565 0.24337 0.66868
H32 H -0.27285 0.07692 -0.73072
H33 H -0.29022 0.05333 -0.93166
H34 H -0.29150 0.04521 -0.24600
H35 H -0.00768 0.29588 1.93274
H36 H -0.34237 0.02908 -1.37880
H37 H -0.04859 0.29791 0.78766
H38 H -0.05443 0.29303 1.47728
H39 H -0.07726 0.27381 1.28045
H40 H -0.22396 0.10657 0.10554
H41 H -0.22146 0.16142 0.03545
H42 H -0.17693 0.18703 0.61252
H43 H -0.10338 0.22849 0.85896
H44 H -0.07964 0.28914 0.73078
H45 H -0.30178 0.06313 -0.14534
H46 H -0.29740 0.08329 -0.06222
H47 H -0.30031 0.07871 -0.30926
H48 H -0.21585 0.10670 -0.22622
H49 H -0.22137 0.10333 -0.47015
H50 H -0.21902 0.12182 -0.35661
H51 H -0.24678 0.14935 -0.13474
H52 H -0.24867 0.13292 -0.28849
H53 H -0.26130 0.12813 -0.07757
H54 H -0.19895 0.11863 0.27948
H55 H -0.18429 0.13971 0.20651
H56 H -0.19577 0.13611 0.42287
H57 H -0.21834 0.14956 0.49038
H58 H -0.20326 0.15823 0.67227
H59 H -0.22285 0.16836 0.71897
H60 H -0.20357 0.18566 0.64683
H61 H -0.22399 0.18840 0.47743
H62 H -0.21562 0.18030 0.30682
H63 H -0.24045 0.15101 0.36599
H64 H -0.24870 0.15961 0.53219
H65 H -0.24142 0.17088 0.11599
H66 H -0.26106 0.15391 0.19758
H67 H -0.26388 0.17378 0.42040
H68 H -0.24484 0.19094 0.32158
H69 H -0.26308 0.17935 0.17634
H70 H -0.33599 0.03638 -1.17735
C1 C -0.08970 0.19985 -0.17695
C2 C -0.10101 0.18777 -0.02531
C3 C -0.11979 0.17975 -0.07204
C4 C -0.12626 0.19229 -0.06083
C5 C -0.14534 0.18315 -0.03080
C6 C -0.15205 0.19521 0.01198
C7 C -0.16526 0.22243 0.50541
C8 C -0.10346 0.21977 0.45306
C9 C -0.10482 0.27014 0.49093
C10 C -0.07595 0.24718 1.06852
C11 C -0.25314 0.08544 -0.38868
C12 C -0.24172 0.09921 -0.28167
C13 C -0.27646 0.08325 -0.20492
C14 C -0.26490 0.09647 -0.09078
C15 C -0.24760 0.10464 -0.12880
C16 C -0.27042 0.07731 -0.35183
C17 C -0.18139 0.17314 0.09327
C18 C -0.16637 0.18721 0.15241
C19 C -0.16487 0.19257 0.34212
C20 C -0.11940 0.22022 0.48665
C21 C -0.13430 0.20688 0.41504
C22 C -0.14941 0.20713 0.41957
C23 C -0.14970 0.22086 0.50567
C24 C -0.13510 0.23350 0.59170
C25 C -0.11987 0.23348 0.58245
C26 C -0.29117 0.05120 -0.78227
C27 C -0.28113 0.06483 -0.66731
C28 C -0.28175 0.06294 -0.47252
C29 C -0.29205 0.04703 -0.39500
C30 C -0.03633 0.30868 1.04905
C31 C -0.03745 0.30705 1.24927
C32 C -0.02296 0.31619 1.38074
C33 C -0.31472 0.02235 -0.84013
C34 C -0.30243 0.03527 -0.70708
C35 C -0.30247 0.03319 -0.50762
C36 C -0.04959 0.29681 0.93825
C37 C -0.06414 0.28375 1.01945
C38 C -0.06584 0.28324 1.21444
C39 C -0.05269 0.29454 1.32724
C40 C -0.23580 0.11947 -0.01573
C41 C -0.22353 0.11852 0.09212
C42 C -0.21022 0.13294 0.17318
C43 C -0.20945 0.14854 0.14991
C44 C -0.22219 0.14937 0.05151
C45 C -0.23549 0.13496 -0.03072
C46 C -0.19479 0.16423 0.21760
C47 C -0.19343 0.16970 0.40515
C48 C -0.17829 0.18344 0.46588
C49 C -0.07781 0.27080 0.90155
C50 C -0.10509 0.24671 0.68593
C51 C -0.09806 0.24171 0.82924
C52 C -0.08420 0.25345 0.93305
C53 C -0.09816 0.26403 0.64734
C54 C -0.08468 0.27586 0.75671
C55 C -0.29499 0.07670 -0.17837
C56 C -0.22345 0.10827 -0.33673
C57 C -0.24876 0.13643 -0.13948
C58 C -0.19657 0.13172 0.27632
C59 C -0.20782 0.16153 0.54360
C60 C -0.21426 0.17355 0.59788
C61 C -0.22320 0.17715 0.43733
C62 C -0.24105 0.16243 0.40220
C63 C -0.24987 0.16595 0.23980
C64 C -0.25573 0.17828 0.29389
O1 O -0.01494 0.29560 1.82864
O2 O -0.02340 0.32251 0.95497
O3 O -0.00880 0.32758 1.31907
O4 O -0.02486 0.31198 1.55515
O5 O -0.31429 0.02614 -1.01493
O6 O -0.32583 0.00801 -0.77941
O7 O -0.31117 0.01766 -0.41565
O8 O -0.33255 0.03314 -1.29461
Mg1 Mg -0.00814 0.31957 1.76678
Mg2 Mg -0.32992 0.01327 -1.22818
O2G O 0.01082 0.32076 1.62164
O2_2 O -0.02340 0.32251 1.95497
O3E O 0.00305 0.34213 1.65240
O3G O 0.00575 0.33029 1.98574
O6H O -0.33283 -0.00750 -1.11274
O6D O -0.34134 -0.00051 -1.44608
O7_2 O -0.31117 0.01766 -1.41565
O7D O -0.35099 0.00450 -1.08232
Mg1E Mg -0.00562 0.34147 1.10011
Mg1G Mg 0.01376 0.33896 1.43345
Mg1_2 Mg -0.00814 0.31957 0.76678
Mg2D Mg -0.34660 -0.00986 -0.89485
Mg2H Mg -0.32348 -0.00341 -0.56151
Mg2_2 Mg -0.32992 0.01327 -0.22818
O9 O -0.71834 0.28734 0.95401
O10 O -0.82040 0.35927 1.26583
O11 O -0.52365 0.54914 -1.96049
O12 O -0.26862 0.68770 0.39873
O13 O -0.69202 0.27417 0.38375
O14 O -0.47502 0.58720 0.44185
loop_
_geom_bond_atom_site_label_1
_geom_bond_atom_site_label_2
_geom_bond_site_symmetry_1
_geom_bond_site_symmetry_2
H1 O1 1_555 1_555
H2 C1 1_555 1_555
H3 C1 1_555 1_555
H4 C1 1_555 1_555
H5 C2 1_555 1_555
H6 C2 1_555 1_555
H7 C3 1_555 1_555
H8 C3 1_555 1_555
H9 C4 1_555 1_555
H10 C4 1_555 1_555
H11 C5 1_555 1_555
H12 C5 1_555 1_555
H13 C6 1_555 1_555
H14 C6 1_555 1_555
H15 C7 1_555 1_555
H16 C7 1_555 1_555
H17 C7 1_555 1_555
H18 C8 1_555 1_555
H19 C8 1_555 1_555
H20 C8 1_555 1_555
H21 C9 1_555 1_555
H22 C9 1_555 1_555
H23 C9 1_555 1_555
H24 C10 1_555 1_555
H25 C10 1_555 1_555
H26 C10 1_555 1_555
H27 C11 1_555 1_555
H28 C14 1_555 1_555
H29 C17 1_555 1_555
H30 C21 1_555 1_555
H31 C24 1_555 1_555
H32 C27 1_555 1_555
H33 C26 1_555 1_555
H34 C29 1_555 1_555
H35 O1 1_555 1_555
H36 O8 1_555 1_555
H37 C36 1_555 1_555
H38 C39 1_555 1_555
H39 C38 1_555 1_555
H40 C41 1_555 1_555
H41 C44 1_555 1_555
H42 C48 1_555 1_555
H43 C51 1_555 1_555
H44 C54 1_555 1_555
H45 C55 1_555 1_555
H46 C55 1_555 1_555
H47 C55 1_555 1_555
H48 C56 1_555 1_555
H49 C56 1_555 1_555
H50 C56 1_555 1_555
H51 C57 1_555 1_555
H52 C57 1_555 1_555
H53 C57 1_555 1_555
H54 C58 1_555 1_555
H55 C58 1_555 1_555
H56 C58 1_555 1_555
H57 C59 1_555 1_555
H58 C59 1_555 1_555
H59 C60 1_555 1_555
H60 C60 1_555 1_555
H61 C61 1_555 1_555
H62 C61 1_555 1_555
H63 C62 1_555 1_555
H64 C62 1_555 1_555
H65 C63 1_555 1_555
H66 C63 1_555 1_555
H67 C64 1_555 1_555
H68 C64 1_555 1_555
H69 C64 1_555 1_555
H70 O8 1_555 1_555
C1 C2 1_555 1_555
C2 C3 1_555 1_555
C3 C4 1_555 1_555
C4 C5 1_555 1_555
C5 C6 1_555 1_555
C6 C18 1_555 1_555
C7 C23 1_555 1_555
C8 C20 1_555 1_555
C9 C53 1_555 1_555
C10 C52 1_555 1_555
C11 C12 1_555 1_555
C12 C15 1_555 1_555
C13 C14 1_555 1_555
C14 C15 1_555 1_555
C15 C40 1_555 1_555
C16 C11 1_555 1_555
C17 C18 1_555 1_555
C18 C19 1_555 1_555
C19 C22 1_555 1_555
C20 C21 1_555 1_555
C21 C22 1_555 1_555
C22 C23 1_555 1_555
C23 C24 1_555 1_555
C24 C25 1_555 1_555
C25 C20 1_555 1_555
C26 C27 1_555 1_555
C27 C28 1_555 1_555
C28 C16 1_555 1_555
C29 C28 1_555 1_555
C30 C31 1_555 1_555
C31 C32 1_555 1_555
C32 O3 1_555 1_555
C33 C34 1_555 1_555
C34 C26 1_555 1_555
C35 C29 1_555 1_555
C36 C30 1_555 1_555
C37 C36 1_555 1_555
C38 C37 1_555 1_555
C39 C31 1_555 1_555
C40 C41 1_555 1_555
C41 C42 1_555 1_555
C42 C43 1_555 1_555
C43 C44 1_555 1_555
C44 C45 1_555 1_555
C45 C40 1_555 1_555
C46 C17 1_555 1_555
C47 C46 1_555 1_555
C48 C19 1_555 1_555
C49 C37 1_555 1_555
C50 C25 1_555 1_555
C51 C50 1_555 1_555
C52 C49 1_555 1_555
C53 C50 1_555 1_555
C54 C49 1_555 1_555
C55 C13 1_555 1_555
C56 C12 1_555 1_555
C57 C45 1_555 1_555
C58 C42 1_555 1_555
C59 C47 1_555 1_555
C60 C59 1_555 1_555
C61 C60 1_555 1_555
C62 C61 1_555 1_555
C63 C62 1_555 1_555
C64 C63 1_555 1_555
O1 Mg1 1_555 1_555
O2 C30 1_555 1_555
O3 Mg1E 1_555 1_555
O4 C32 1_555 1_555
O5 C33 1_555 1_555
O6 C33 1_555 1_555
O7 C35 1_555 1_555
O8 Mg2 1_555 1_555
Mg1 O4 1_555 1_555
Mg2 O5 1_555 1_555
O2G Mg1 1_555 1_555
O2_2 Mg1 1_555 1_555
O3E Mg1 1_555 1_555
O3G Mg1 1_555 1_555
O6H Mg2 1_555 1_555
O6D Mg2 1_555 1_555
O7_2 Mg2 1_555 1_555
O7D Mg2 1_555 1_555
Mg1E O2 1_555 1_555
Mg1G O3 1_555 1_555
Mg1_2 O2 1_555 1_555
Mg2D O6 1_555 1_555
Mg2H O6 1_555 1_555
Mg2_2 O7 1_555 1_555
C13 C16 1_555 1_555
C34 C35 1_555 1_555
C38 C39 1_555 1_555
C43 C46 1_555 1_555
C47 C48 1_555 1_555
C51 C52 1_555 1_555
C53 C54 1_555 1_555
O7 Mg2H 1_555 1_555
O2G Mg1G 1_555 1_555
O3E Mg1G 1_555 1_555
O6H Mg2D 1_555 1_555
O7D Mg2D 1_555 1_555

#END
