
#######################################################################
#
#                 Cambridge Crystallographic Data Centre
#                                CCDC 
#
#######################################################################
#
# If this CIF has been generated from an entry in the Cambridge 
# Structural Database, then it will include bibliographic, chemical, 
# crystal, experimental, refinement or atomic coordinate data resulting 
# from the CCDC's data processing and validation procedures.
#
#######################################################################

data_EVAKIV
_chemical_formula_moiety         '(C25 H25 Cl6 Cu1 N8 O12 1-)n'
_symmetry_cell_setting           cubic
_symmetry_space_group_name_H-M   'I -4 3 m'
_symmetry_Int_Tables_number      217
_space_group_name_Hall           'I -4 2 3'
loop_
_symmetry_equiv_pos_site_id
_symmetry_equiv_pos_as_xyz
1 x,y,z
2 -x,-y,z
3 -x,y,-z
4 x,-y,-z
5 z,x,y
6 z,-x,-y
7 -z,-x,y
8 -z,x,-y
9 y,z,x
10 -y,z,-x
11 y,-z,-x
12 -y,-z,x
13 y,x,z
14 -y,-x,z
15 y,-x,-z
16 -y,x,-z
17 x,z,y
18 -x,z,-y
19 -x,-z,y
20 x,-z,-y
21 z,y,x
22 z,-y,-x
23 -z,y,-x
24 -z,-y,x
25 1/2+x,1/2+y,1/2+z
26 1/2-x,1/2-y,1/2+z
27 1/2-x,1/2+y,1/2-z
28 1/2+x,1/2-y,1/2-z
29 1/2+z,1/2+x,1/2+y
30 1/2+z,1/2-x,1/2-y
31 1/2-z,1/2-x,1/2+y
32 1/2-z,1/2+x,1/2-y
33 1/2+y,1/2+z,1/2+x
34 1/2-y,1/2+z,1/2-x
35 1/2+y,1/2-z,1/2-x
36 1/2-y,1/2-z,1/2+x
37 1/2+y,1/2+x,1/2+z
38 1/2-y,1/2-x,1/2+z
39 1/2+y,1/2-x,1/2-z
40 1/2-y,1/2+x,1/2-z
41 1/2+x,1/2+z,1/2+y
42 1/2-x,1/2+z,1/2-y
43 1/2-x,1/2-z,1/2+y
44 1/2+x,1/2-z,1/2-y
45 1/2+z,1/2+y,1/2+x
46 1/2+z,1/2-y,1/2-x
47 1/2-z,1/2+y,1/2-x
48 1/2-z,1/2-y,1/2+x
_cell_length_a                   23.7035(14)
_cell_length_b                   23.7035(14)
_cell_length_c                   23.7035(14)
_cell_angle_alpha                90
_cell_angle_beta                 90
_cell_angle_gamma                90
_cell_volume                     13318
loop_
_atom_site_label
_atom_site_type_symbol
_atom_site_fract_x
_atom_site_fract_y
_atom_site_fract_z
_atom_site_U_iso_or_equiv
_atom_site_thermal_displace_type
Cu1 Cu -0.2500 -0.5000 0.0000 0.0379 Uani
N1 N -0.1997(2) -0.5365(2) 0.0588(3) 0.0350 Uani
N2 N -0.2111(3) -0.5937(3) 0.0687(3) 0.0430 Uani
C1 C -0.1826(3) -0.6197(3) 0.1083(3) 0.0400 Uani
C2 C -0.1406(3) -0.5929(5) 0.1406(3) 0.0357 Uani
C3 C -0.1290(3) -0.5371(4) 0.1290(3) 0.0300 Uani
C4 C -0.1609(3) -0.5096(3) 0.0868(3) 0.0293 Uani
C5 C -0.1497(3) -0.4491(3) 0.0744(3) 0.0393 Uani
H1 H -0.1839(3) -0.4311(3) 0.0623(3) 0.0800 Uiso
H2 H -0.1226(3) -0.4460(3) 0.0445(3) 0.0800 Uiso
C6 C -0.1264(3) -0.4190(4) 0.1264(3) 0.0367 Uani
H3 H -0.1550(3) -0.4192(4) 0.1550(3) 0.0800 Uiso
H4 H -0.1176(3) -0.3805(4) 0.1177(3) 0.0800 Uiso
C7 C -0.1961(4) -0.6808(3) 0.1212(4) 0.0593 Uani
H5 H -0.2051(4) -0.7001(3) 0.0868(4) 0.0800 Uiso
H6 H -0.2290(4) -0.6819(3) 0.1449(4) 0.0800 Uiso
C8 C -0.1497(7) -0.7118(6) 0.1497(7) 0.1047 Uani
H7 H -0.1218(7) -0.7214(6) 0.1219(7) 0.0800 Uiso
H8 H -0.1644(7) -0.7465(6) 0.1644(7) 0.0800 Uiso
N1C N -0.1997(2) -0.4635(2) -0.0588(3) 0.0350 Uani
N1OA N -0.3003(2) -0.4412(3) 0.0365(2) 0.0350 Uani
N1PA N -0.3003(2) -0.5588(3) -0.0365(2) 0.0350 Uani
C1V C -0.1083(3) -0.6197(3) 0.1826(3) 0.0400 Uani
C4V C -0.0868(3) -0.5096(3) 0.1609(3) 0.0293 Uani
C5V C -0.0744(3) -0.4491(3) 0.1497(3) 0.0393 Uani
C7V C -0.1212(4) -0.6808(3) 0.1961(4) 0.0593 Uani
N2PA N -0.2889(3) -0.5687(3) -0.0937(3) 0.0430 Uani
C4PA C -0.3391(3) -0.5868(3) -0.0096(3) 0.0293 Uani
N2V N -0.0687(3) -0.5937(3) 0.2111(3) 0.0430 Uani
N1V N -0.0588(3) -0.5365(2) 0.1997(2) 0.0350 Uani
H1V H -0.0623(3) -0.4311(3) 0.1839(3) 0.0800 Uiso
H2V H -0.0445(3) -0.4460(3) 0.1226(3) 0.0800 Uiso
H5V H -0.0868(4) -0.7001(3) 0.2051(4) 0.0800 Uiso
H6V H -0.1449(4) -0.6819(3) 0.2290(4) 0.0800 Uiso
Cu1U Cu 0.0000 -0.5000 0.2500 0.0379 Uani
C3BA C -0.3710(3) -0.6290(3) -0.0371(4) 0.0300 Uani
C5PA C -0.3503(3) -0.5744(3) 0.0509(3) 0.0393 Uani
C1PA C -0.3174(3) -0.6083(3) -0.1197(3) 0.0400 Uani
C2BA C -0.3594(3) -0.6406(3) -0.0929(5) 0.0357 Uani
C4BA C -0.4132(3) -0.6609(3) -0.0096(3) 0.0293 Uani
C7PA C -0.3039(4) -0.6212(4) -0.1808(3) 0.0593 Uani
H5PA H -0.2949(4) -0.5868(4) -0.2001(3) 0.0800 Uiso
H6PA H -0.2710(4) -0.6449(4) -0.1819(3) 0.0800 Uiso
C8BA C -0.3503(7) -0.6497(7) -0.2118(6) 0.1047 Uani
N1BA N -0.4412(3) -0.6997(2) -0.0365(2) 0.0350 Uani
C5BA C -0.4256(3) -0.6497(3) 0.0509(3) 0.0393 Uani
H1BA H -0.4377(3) -0.6839(3) 0.0689(3) 0.0800 Uiso
H2BA H -0.4555(3) -0.6226(3) 0.0540(3) 0.0800 Uiso
C6BA C -0.3736(3) -0.6264(3) 0.0810(4) 0.0367 Uani
Cu1M Cu -0.5000 -0.7500 0.0000 0.0379 Uani
N2BA N -0.4313(3) -0.7111(3) -0.0937(3) 0.0430 Uani
C7BA C -0.3788(4) -0.6961(4) -0.1808(3) 0.0593 Uani
H7BA H -0.3781(7) -0.6218(7) -0.2214(6) 0.0800 Uiso
H8BA H -0.3356(7) -0.6644(7) -0.2465(6) 0.0800 Uiso
C1BA C -0.3917(3) -0.6826(3) -0.1197(3) 0.0400 Uani
H5BA H -0.4132(4) -0.7051(4) -0.2001(3) 0.0800 Uiso
H6BA H -0.3551(4) -0.7290(4) -0.1819(3) 0.0800 Uiso
H1PA H -0.3161(3) -0.5623(3) 0.0689(3) 0.0800 Uiso
H2PA H -0.3774(3) -0.5445(3) 0.0540(3) 0.0800 Uiso
H3BA H -0.3450(3) -0.6550(3) 0.0808(4) 0.0800 Uiso
H4BA H -0.3823(3) -0.6176(3) 0.1195(4) 0.0800 Uiso
Cl1 Cl 0.0000 -0.5000 0.0000 0.0483 Uani
O1 O -0.0351(3) -0.5342(4) 0.0351(3) 0.0670 Uani
O1A O 0.0351(3) -0.4658(4) 0.0351(3) 0.0670 Uani
O1B O 0.0351(3) -0.5342(4) -0.0351(3) 0.0670 Uani
O1C O -0.0351(3) -0.4658(4) -0.0351(3) 0.0670 Uani
Cl2 Cl -0.2763(3) -0.7237(3) 0.2763(3) 0.1120 Uani
O2 O -0.2400(6) -0.7600(6) 0.2400(6) 0.1700 Uani
O3 O -0.3104(5) -0.6896(5) 0.2407(7) 0.1373 Uani
O3F O -0.2407(7) -0.6896(5) 0.3104(5) 0.1373 Uani
O3I O -0.3104(5) -0.7593(7) 0.3104(5) 0.1373 Uani
Cl3 Cl -0.3752(13) -0.3752(13) 0.3752(13) 0.4000 Uiso
O4 O -0.4089(12) -0.3357(19) 0.4089(12) 0.4000 Uiso
O5 O -0.3398(13) -0.3398(13) 0.3398(13) 0.4000 Uiso
O4G O -0.4089(12) -0.4089(12) 0.3357(19) 0.4000 Uiso
O4J O -0.3357(19) -0.4089(12) 0.4089(12) 0.4000 Uiso
C9 C -0.2642(5) -0.5542(7) 0.2642(5) 0.1010 Uani
Cl4 Cl -0.3065(2) -0.5116(6) 0.3065(2) 0.2183 Uani
Cl5 Cl -0.1942(2) -0.5414(2) 0.2781(2) 0.1263 Uani
Cl5V Cl -0.2781(2) -0.5414(2) 0.1942(2) 0.1263 Uani
loop_
_atom_site_aniso_label
_atom_site_aniso_U_11
_atom_site_aniso_U_22
_atom_site_aniso_U_33
_atom_site_aniso_U_23
_atom_site_aniso_U_13
_atom_site_aniso_U_12
Cu1 0.0334(8) 0.0401(6) 0.0401(6) 0.000 0.000 0.000
N1 0.036(3) 0.029(3) 0.040(3) -0.002(3) 0.002(3) -0.006(2)
N2 0.041(4) 0.038(3) 0.050(4) -0.003(3) 0.000(3) -0.006(3)
C1 0.039(4) 0.036(4) 0.045(4) 0.002(3) -0.002(3) -0.009(3)
C2 0.033(4) 0.041(6) 0.033(4) 0.005(3) 0.000(4) -0.005(3)
C3 0.031(3) 0.028(5) 0.031(3) -0.002(3) 0.000(4) 0.002(3)
C4 0.028(3) 0.028(4) 0.032(3) -0.005(3) -0.001(3) 0.001(3)
C5 0.036(4) 0.032(4) 0.050(5) 0.004(3) -0.010(3) 0.000(3)
C6 0.041(4) 0.028(6) 0.041(4) 0.000(3) -0.011(5) 0.000(3)
C7 0.073(6) 0.037(4) 0.068(6) 0.006(4) -0.017(5) -0.011(4)
C8 0.138(10) 0.038(8) 0.138(10) 0.022(7) -0.024(13) -0.022(7)
N1C 0.036 0.029 0.04 -0.002 -0.002 0.006
N1OA 0.036 0.04 0.029 0.002 -0.006 -0.002
N1PA 0.036 0.04 0.029 0.002 0.006 0.002
C1V 0.045 0.036 0.039 0.009 -0.002 -0.002
C4V 0.032 0.028 0.028 -0.001 -0.001 0.005
C5V 0.05 0.032 0.036 0 -0.01 -0.004
C7V 0.068 0.037 0.073 0.011 -0.017 -0.006
N2PA 0.041 0.05 0.038 0.003 0.006 0
C4PA 0.028 0.032 0.028 0.005 -0.001 -0.001
N2V 0.05 0.038 0.041 0.006 0 0.003
N1V 0.04 0.029 0.036 0.006 0.002 0.002
Cu1U 0.0401 0.0401 0.0334 0 0 0
C3BA 0.031 0.031 0.028 0.002 -0.002 0
C5PA 0.036 0.05 0.032 -0.004 0 -0.01
C1PA 0.039 0.045 0.036 -0.002 0.009 -0.002
C2BA 0.033 0.033 0.041 -0.005 0.005 0
C4BA 0.032 0.028 0.028 0.001 -0.005 -0.001
C7PA 0.073 0.068 0.037 -0.006 0.011 -0.017
C8BA 0.138 0.138 0.038 -0.022 0.022 -0.024
N1BA 0.04 0.036 0.029 -0.006 -0.002 0.002
C5BA 0.05 0.036 0.032 0 0.004 -0.01
C6BA 0.041 0.041 0.028 0 0 -0.011
Cu1M 0.0401 0.0334 0.0401 0 0 0
N2BA 0.05 0.041 0.038 -0.006 -0.003 0
C7BA 0.068 0.073 0.037 -0.011 0.006 -0.017
C1BA 0.045 0.039 0.036 -0.009 0.002 -0.002
Cl1 0.045(2) 0.055(3) 0.045(2) 0.000 0.000 0.000
O1 0.071(4) 0.059(5) 0.071(4) 0.010(3) 0.012(5) -0.010(3)
O1A 0.071 0.059 0.071 -0.01 -0.012 -0.01
O1B 0.071 0.059 0.071 -0.01 0.012 0.01
O1C 0.071 0.059 0.071 0.01 -0.012 0.01
Cl2 0.112(3) 0.112(3) 0.112(3) 0.040(4) -0.040(4) -0.040(4)
O2 0.170(13) 0.170(13) 0.170(13) -0.030(13) 0.030(13) 0.030(13)
O3 0.146(8) 0.146(8) 0.120(11) 0.040(7) -0.040(7) 0.013(10)
O3F 0.12 0.146 0.146 -0.013 -0.04 -0.04
O3I 0.146 0.12 0.146 0.04 0.013 -0.04
C9 0.117(9) 0.069(10) 0.117(9) 0.001(6) 0.018(12) -0.001(6)
Cl4 0.154(4) 0.347(14) 0.154(4) -0.057(5) 0.048(5) 0.057(5)
Cl5 0.085(2) 0.175(4) 0.119(3) -0.043(3) -0.004(2) 0.005(2)
Cl5V 0.119 0.175 0.085 -0.005 -0.004 0.043
loop_
_geom_bond_atom_site_label_1
_geom_bond_atom_site_label_2
_geom_bond_site_symmetry_1
_geom_bond_site_symmetry_2
Cu1 N1 1_555 1_555
N1 N2 1_555 1_555
N2 C1 1_555 1_555
C1 C2 1_555 1_555
C2 C3 1_555 1_555
C3 C4 1_555 1_555
C4 N1 1_555 1_555
C5 C4 1_555 1_555
H1 C5 1_555 1_555
H2 C5 1_555 1_555
C6 C5 1_555 1_555
H3 C6 1_555 1_555
H4 C6 1_555 1_555
C7 C1 1_555 1_555
H5 C7 1_555 1_555
H6 C7 1_555 1_555
C8 C7 1_555 1_555
H7 C8 1_555 1_555
H8 C8 1_555 1_555
Cl1 O1 1_555 1_555
Cl2 O2 1_555 1_555
O3 Cl2 1_555 1_555
Cl3 O4 1_555 1_555
O5 Cl3 1_555 1_555
C9 Cl4 1_555 1_555
Cl5 C9 1_555 1_555
N1C Cu1 1_555 1_555
N1OA Cu1 1_555 1_555
N1PA Cu1 1_555 1_555
C1V C2 1_555 1_555
C4V C3 1_555 1_555
C5V C6 1_555 1_555
C7V C8 1_555 1_555
O1A Cl1 1_555 1_555
O1B Cl1 1_555 1_555
O1C Cl1 1_555 1_555
O3F Cl2 1_555 1_555
O3I Cl2 1_555 1_555
O4G Cl3 1_555 1_555
O4J Cl3 1_555 1_555
Cl5V C9 1_555 1_555
N2PA N1PA 1_555 1_555
C4PA N1PA 1_555 1_555
N2V C1V 1_555 1_555
N1V C4V 1_555 1_555
H1V C5V 1_555 1_555
H2V C5V 1_555 1_555
H5V C7V 1_555 1_555
H6V C7V 1_555 1_555
Cu1U N1V 1_555 1_555
C3BA C4PA 1_555 1_555
C5PA C4PA 1_555 1_555
C1PA N2PA 1_555 1_555
C2BA C3BA 1_555 1_555
C4BA C3BA 1_555 1_555
C7PA C1PA 1_555 1_555
H5PA C7PA 1_555 1_555
H6PA C7PA 1_555 1_555
C8BA C7PA 1_555 1_555
N1BA C4BA 1_555 1_555
C5BA C4BA 1_555 1_555
H1BA C5BA 1_555 1_555
H2BA C5BA 1_555 1_555
C6BA C5PA 1_555 1_555
Cu1M N1BA 1_555 1_555
N2BA N1BA 1_555 1_555
C7BA C8BA 1_555 1_555
H7BA C8BA 1_555 1_555
H8BA C8BA 1_555 1_555
C1BA C2BA 1_555 1_555
H5BA C7BA 1_555 1_555
H6BA C7BA 1_555 1_555
H1PA C5PA 1_555 1_555
H2PA C5PA 1_555 1_555
H3BA C6BA 1_555 1_555
H4BA C6BA 1_555 1_555
C1V C7V 1_555 1_555
C4V C5V 1_555 1_555
N2V N1V 1_555 1_555
C1PA C2BA 1_555 1_555
C5BA C6BA 1_555 1_555
N2BA C1BA 1_555 1_555
C7BA C1BA 1_555 1_555

#END
