
#######################################################################
#
#                 Cambridge Crystallographic Data Centre
#                                CCDC 
#
#######################################################################
#
# If this CIF has been generated from an entry in the Cambridge 
# Structural Database, then it will include bibliographic, chemical, 
# crystal, experimental, refinement or atomic coordinate data resulting 
# from the CCDC's data processing and validation procedures.
#
#######################################################################

data_LADHEF
_chemical_formula_moiety         '(C32 H32 N14 O16 Zn5)n'
_symmetry_cell_setting           monoclinic
_symmetry_space_group_name_H-M   'C 2/c'
_symmetry_Int_Tables_number      15
_space_group_name_Hall           '-C 2yc'
loop_
_symmetry_equiv_pos_site_id
_symmetry_equiv_pos_as_xyz
1 x,y,z
2 -x,y,1/2-z
3 1/2+x,1/2+y,z
4 1/2-x,1/2+y,1/2-z
5 -x,-y,-z
6 x,-y,1/2+z
7 1/2-x,1/2-y,-z
8 1/2+x,1/2-y,1/2+z
_cell_length_a                   21.1921(14)
_cell_length_b                   14.4955(9)
_cell_length_c                   19.0457(12)
_cell_angle_alpha                90
_cell_angle_beta                 97.5470(10)
_cell_angle_gamma                90
_cell_volume                     5799.97
loop_
_atom_site_label
_atom_site_type_symbol
_atom_site_fract_x
_atom_site_fract_y
_atom_site_fract_z
Zn1 Zn 0.0000 0.89308(3) 0.7500
Zn2 Zn 0.170239(13) 0.894062(19) 0.774434(15)
Zn3 Zn 0.089569(14) 0.197479(19) 0.560218(14)
O1 O 0.06053(8) 0.78793(12) 0.70886(10)
O2 O 0.16652(9) 0.77351(12) 0.72772(10)
O3 O 0.08550(10) 0.31836(13) 0.60641(11)
O4 O 0.09079(16) 0.38408(15) 0.50279(12)
O5 O 0.22086(10) 0.38647(14) 0.61420(14)
O6 O 0.24807(9) 0.45528(14) 0.71722(11)
O7 O -0.01552(9) 0.18666(15) 0.54220(10)
O8 O 0.19056(9) 0.20919(12) 0.57889(10)
H1 H 0.2169 0.2622 0.5950
H2 H 0.2249 0.1700 0.5706
N1 N 0.05795(10) 0.87853(14) 0.84724(11)
N2 N 0.12345(10) 0.87868(15) 0.85775(11)
N3 N 0.09043(10) 0.84508(14) 0.95999(11)
N4 N 0.05604(9) 0.99183(14) 0.70470(11)
N5 N 0.12121(10) 0.98707(14) 0.71085(11)
N6 N 0.08961(10) 1.09637(14) 0.63287(11)
C1 C 0.11035(13) 0.74453(17) 0.70530(14)
C2 C 0.10596(13) 0.65098(19) 0.67160(15)
C3 C 0.05052(14) 0.6244(2) 0.62901(17)
H3 H 0.0157 0.6640 0.6230
C4 C 0.04705(15) 0.5398(2) 0.59572(17)
H4 H 0.0099 0.5229 0.5670
C5 C 0.09861(14) 0.47933(19) 0.60456(15)
C6 C 0.15355(13) 0.50399(18) 0.64902(14)
C7 C 0.15692(13) 0.59021(17) 0.68176(14)
H5 H 0.1938 0.6072 0.7108
C8 C 0.09178(14) 0.38729(19) 0.56758(16)
C9 C 0.21106(12) 0.44253(18) 0.66002(15)
C10 C 0.04060(12) 0.85838(17) 0.90937(13)
H6 H -0.0016 0.8538 0.9174
C11 C 0.14077(13) 0.85807(18) 0.92468(13)
H7 H 0.1829 0.8530 0.9453
C12 C 0.03934(13) 1.05750(17) 0.65815(13)
H8 H -0.0026 1.0752 0.6442
C13 C 0.13929(13) 1.05042(18) 0.66788(13)
H9 H 0.1815 1.0620 0.6624
N7 N -0.1184(2) 0.2243(4) 0.5063(3)
C14 C -0.0581(3) 0.2387(5) 0.5295(4)
H10 H -0.0472 0.3004 0.5374
C15 C -0.1646(3) 0.2967(5) 0.4910(4)
H11 H -0.1436 0.3555 0.4948
H12 H -0.1950 0.2939 0.5241
H13 H -0.1862 0.2891 0.4438
C16 C -0.1406(4) 0.1301(5) 0.4973(5)
H14 H -0.1072 0.0887 0.5160
H15 H -0.1526 0.1176 0.4479
H16 H -0.1767 0.1215 0.5222
Zn2A Zn -0.170239(13) 0.894062(19) 0.725566(15)
Zn2C Zn 0.329761(13) 0.394062(19) 0.725566(15)
Zn2B Zn -0.329761(13) 0.394062(19) 0.774434(15)
Zn3A Zn -0.089569(14) 0.197479(19) 0.939782(14)
Zn3E Zn 0.089569(14) 0.802521(19) 1.060218(14)
Zn3_2 Zn 0.089569(14) 1.197479(19) 0.560218(14)
Zn3D Zn -0.089569(14) 0.802521(19) 0.439782(14)
Zn3A_2 Zn -0.089569(14) 1.197479(19) 0.939782(14)
O1A O -0.06053(8) 0.78793(12) 0.79114(10)
O2A O -0.16652(9) 0.77351(12) 0.77228(10)
O3A O -0.08550(10) 0.31836(13) 0.89359(11)
O4A O -0.09079(16) 0.38408(15) 0.99721(12)
O5A O -0.22086(10) 0.38647(14) 0.88580(14)
O6A O -0.24807(9) 0.45528(14) 0.78278(11)
O6C O 0.25193(9) 0.95528(14) 0.78278(11)
O6B O -0.25193(9) 0.95528(14) 0.71722(11)
O7A O 0.01552(9) 0.18666(15) 0.95780(10)
O8A O -0.19056(9) 0.20919(12) 0.92111(10)
H1A H -0.2169 0.2622 0.9050
H2A H -0.2249 0.1700 0.9294
N1A N -0.05795(10) 0.87853(14) 0.65276(11)
N2A N -0.12345(10) 0.87868(15) 0.64225(11)
N3A N -0.09043(10) 0.84508(14) 0.54001(11)
N3E N 0.09043(10) 0.15492(14) 0.45999(11)
N3D N -0.09043(10) 0.15492(14) 1.04001(11)
N4A N -0.05604(9) 0.99183(14) 0.79530(11)
N5A N -0.12121(10) 0.98707(14) 0.78915(11)
N6A N -0.08961(10) 1.09637(14) 0.86713(11)
N6_2 N 0.08961(10) 0.09637(14) 0.63287(11)
N6A_2 N -0.08961(10) 0.09637(14) 0.86713(11)
C1A C -0.11035(13) 0.74453(17) 0.79470(14)
C2A C -0.10596(13) 0.65098(19) 0.82840(15)
C3A C -0.05052(14) 0.6244(2) 0.87099(17)
H3A H -0.0157 0.6640 0.8770
C4A C -0.04705(15) 0.5398(2) 0.90428(17)
H4A H -0.0099 0.5229 0.9330
C5A C -0.09861(14) 0.47933(19) 0.89544(15)
C6A C -0.15355(13) 0.50399(18) 0.85098(14)
C7A C -0.15692(13) 0.59021(17) 0.81824(14)
H5A H -0.1938 0.6072 0.7892
C8A C -0.09178(14) 0.38729(19) 0.93242(16)
C9A C -0.21106(12) 0.44253(18) 0.83998(15)
C10A C -0.04060(12) 0.85838(17) 0.59063(13)
H6A H 0.0016 0.8538 0.5826
C11A C -0.14077(13) 0.85807(18) 0.57532(13)
H7A H -0.1829 0.8530 0.5547
C12A C -0.03934(13) 1.05750(17) 0.84185(13)
H8A H 0.0026 1.0752 0.8558
C13A C -0.13929(13) 1.05042(18) 0.83212(13)
H9A H -0.1815 1.0620 0.8376
N7A N 0.1184(2) 0.2243(4) 0.9937(3)
C14A C 0.0581(3) 0.2387(5) 0.9705(4)
H10A H 0.0472 0.3004 0.9626
C15A C 0.1646(3) 0.2967(5) 1.0090(4)
H11A H 0.1436 0.3555 1.0052
H12A H 0.1950 0.2939 0.9759
H13A H 0.1862 0.2891 1.0562
C16A C 0.1406(4) 0.1301(5) 1.0027(5)
H14A H 0.1072 0.0887 0.9840
H15A H 0.1526 0.1176 1.0521
H16A H 0.1767 0.1215 0.9778
loop_
_geom_bond_atom_site_label_1
_geom_bond_atom_site_label_2
_geom_bond_site_symmetry_1
_geom_bond_site_symmetry_2
Zn1 O1 1_555 1_555
Zn2 O2 1_555 1_555
Zn3 O3 1_555 1_555
O1 C1 1_555 1_555
O2 C1 1_555 1_555
O3 C8 1_555 1_555
O4 C8 1_555 1_555
O5 C9 1_555 1_555
O6 C9 1_555 1_555
O7 Zn3 1_555 1_555
O8 Zn3 1_555 1_555
H1 O8 1_555 1_555
H2 O8 1_555 1_555
N1 Zn1 1_555 1_555
N2 Zn2 1_555 1_555
N3 C10 1_555 1_555
N4 Zn1 1_555 1_555
N5 Zn2 1_555 1_555
N6 C12 1_555 1_555
C1 C2 1_555 1_555
C2 C3 1_555 1_555
C3 H3 1_555 1_555
C4 C3 1_555 1_555
H4 C4 1_555 1_555
C5 C4 1_555 1_555
C6 C5 1_555 1_555
C7 C2 1_555 1_555
H5 C7 1_555 1_555
C8 C5 1_555 1_555
C9 C6 1_555 1_555
C10 N1 1_555 1_555
H6 C10 1_555 1_555
C11 N2 1_555 1_555
H7 C11 1_555 1_555
C12 N4 1_555 1_555
H8 C12 1_555 1_555
C13 N5 1_555 1_555
H9 C13 1_555 1_555
N7 C14 1_555 1_555
C14 O7 1_555 1_555
H10 C14 1_555 1_555
C15 N7 1_555 1_555
H11 C15 1_555 1_555
H12 C15 1_555 1_555
H13 C15 1_555 1_555
C16 N7 1_555 1_555
H14 C16 1_555 1_555
H15 C16 1_555 1_555
H16 C16 1_555 1_555
Zn2A O2A 1_555 1_555
Zn2C O6 1_555 1_555
Zn2B O6A 1_555 1_555
Zn3A O3A 1_555 1_555
Zn3E N3 1_555 1_555
Zn3_2 N6 1_555 1_555
Zn3D N3A 1_555 1_555
Zn3A_2 N6A 1_555 1_555
O1A Zn1 1_555 1_555
O2A C1A 1_555 1_555
O3A C8A 1_555 1_555
O4A C8A 1_555 1_555
O5A C9A 1_555 1_555
O6A C9A 1_555 1_555
O6C Zn2 1_555 1_555
O6B Zn2A 1_555 1_555
O7A Zn3A 1_555 1_555
O8A Zn3A 1_555 1_555
H1A O8A 1_555 1_555
H2A O8A 1_555 1_555
N1A Zn1 1_555 1_555
N2A Zn2A 1_555 1_555
N3A C10A 1_555 1_555
N3E Zn3 1_555 1_555
N3D Zn3A 1_555 1_555
N4A Zn1 1_555 1_555
N5A Zn2A 1_555 1_555
N6A C12A 1_555 1_555
N6_2 Zn3 1_555 1_555
N6A_2 Zn3A 1_555 1_555
C1A O1A 1_555 1_555
C2A C1A 1_555 1_555
C3A C2A 1_555 1_555
H3A C3A 1_555 1_555
C4A C3A 1_555 1_555
H4A C4A 1_555 1_555
C5A C4A 1_555 1_555
C6A C5A 1_555 1_555
C7A C2A 1_555 1_555
H5A C7A 1_555 1_555
C8A C5A 1_555 1_555
C9A C6A 1_555 1_555
C10A N1A 1_555 1_555
H6A C10A 1_555 1_555
C11A N2A 1_555 1_555
H7A C11A 1_555 1_555
C12A N4A 1_555 1_555
H8A C12A 1_555 1_555
C13A N5A 1_555 1_555
H9A C13A 1_555 1_555
N7A C14A 1_555 1_555
C14A O7A 1_555 1_555
H10A C14A 1_555 1_555
C15A N7A 1_555 1_555
H11A C15A 1_555 1_555
H12A C15A 1_555 1_555
H13A C15A 1_555 1_555
C16A N7A 1_555 1_555
H14A C16A 1_555 1_555
H15A C16A 1_555 1_555
H16A C16A 1_555 1_555
N1 N2 1_555 1_555
N3 C11 1_555 1_555
N4 N5 1_555 1_555
N6 C13 1_555 1_555
C6 C7 1_555 1_555
N1A N2A 1_555 1_555
N3A C11A 1_555 1_555
N4A N5A 1_555 1_555
N6A C13A 1_555 1_555
C6A C7A 1_555 1_555

#END
