
#######################################################################
#
#                 Cambridge Crystallographic Data Centre
#                                CCDC 
#
#######################################################################
#
# If this CIF has been generated from an entry in the Cambridge 
# Structural Database, then it will include bibliographic, chemical, 
# crystal, experimental, refinement or atomic coordinate data resulting 
# from the CCDC's data processing and validation procedures.
#
#######################################################################

data_LADHIJ
_chemical_formula_moiety         '(C42 H63 N11 O18 Zn4)n'
_symmetry_cell_setting           monoclinic
_symmetry_space_group_name_H-M   'P 21/c'
_symmetry_Int_Tables_number      14
_space_group_name_Hall           '-P 2ybc'
loop_
_symmetry_equiv_pos_site_id
_symmetry_equiv_pos_as_xyz
1 x,y,z
2 -x,1/2+y,1/2-z
3 -x,-y,-z
4 x,1/2-y,1/2+z
_cell_length_a                   14.8858(11)
_cell_length_b                   23.0550(18)
_cell_length_c                   17.7834(14)
_cell_angle_alpha                90
_cell_angle_beta                 108.9050(10)
_cell_angle_gamma                90
_cell_volume                     5773.9
loop_
_atom_site_label
_atom_site_type_symbol
_atom_site_fract_x
_atom_site_fract_y
_atom_site_fract_z
C1 C 0.4667(9) 0.7541(8) 0.0925(8)
H1 H 0.4611 0.7505 0.0373
H2 H 0.5255 0.7371 0.1246
H3 H 0.4657 0.7944 0.1058
C2 C -0.0976(8) 0.9513(5) 0.0489(7)
H4 H -0.1044 0.9644 -0.0038
H5 H -0.1064 0.9834 0.0802
H6 H -0.1444 0.9220 0.0466
C3 C 0.3900(7) 0.7252(6) 0.1067(7)
H7 H 0.3909 0.7341 0.1602
H8 H 0.3992 0.6837 0.1039
C4 C -0.0019(7) 0.9267(4) 0.0856(5)
H9 H 0.0010 0.9077 0.1350
H10 H 0.0442 0.9580 0.0982
C5 C 0.3498(5) 0.9746(3) -0.0458(5)
H11 H 0.3102 1.0074 -0.0452
H12 H 0.3828 0.9814 -0.0832
H13 H 0.3950 0.9692 0.0063
C6 C 0.2884(5) 0.9205(3) -0.0699(4)
H14 H 0.3260 0.8896 -0.0817
H15 H 0.2360 0.9287 -0.1178
C7 C 0.2492(5) 0.9002(3) -0.0050(4)
H16 H 0.3011 0.8889 0.0418
H17 H 0.2150 0.9317 0.0097
C8 C 0.0863(4) 0.7695(3) -0.0155(4)
H18 H 0.1135 0.7473 -0.0492
H19 H 0.0301 0.7889 -0.0498
N1 N 0.1577(4) 0.8153(2) 0.0283(3)
C33 C 0.1836(5) 0.8496(3) -0.0345(4)
H32 H 0.2130 0.8233 -0.0623
H33 H 0.1255 0.8638 -0.0730
C34 C 0.1164(5) 0.8547(3) 0.0766(4)
H34 H 0.1072 0.8322 0.1196
H35 H 0.1628 0.8846 0.1004
C35 C 0.2462(5) 0.7873(4) 0.0861(4)
H36 H 0.2292 0.7698 0.1292
H37 H 0.2924 0.8175 0.1088
C36 C 0.0567(5) 0.7277(3) 0.0387(4)
H38 H 0.0334 0.7494 0.0754
H39 H 0.1111 0.7050 0.0695
C37 C -0.0213(5) 0.6873(3) -0.0116(5)
H40 H -0.0063 0.6754 -0.0585
H41 H -0.0236 0.6527 0.0189
C38 C 0.0240(6) 0.8838(4) 0.0325(5)
H42 H -0.0257 0.8549 0.0145
H43 H 0.0298 0.9036 -0.0138
C40 C -0.1159(6) 0.7163(5) -0.0363(6)
H47 H -0.1314 0.7274 0.0101
H48 H -0.1632 0.6900 -0.0677
H49 H -0.1140 0.7501 -0.0671
C42 C 0.2932(7) 0.7408(6) 0.0492(6)
H50 H 0.2534 0.7065 0.0368
H51 H 0.3000 0.7554 0.0001
O1 O 0.5944(9) 0.0542(7) 0.5392(10)
O2 O 0.8107(6) 0.4058(3) 0.9036(5)
O3 O 0.3504(4) 0.3601(3) 0.8544(4)
C9 C 0.6498(4) 1.0816(2) 0.7622(4)
H20 H 0.6258 1.1192 0.7577
C10 C 0.8571(3) 1.0054(2) 0.7319(4)
C11 C 0.7703(3) 1.0151(2) 0.7549(3)
C12 C 0.7324(4) 1.0709(2) 0.7460(4)
H21 H 0.7631 1.1009 0.7292
C13 C 0.7224(3) 0.9706(2) 0.7779(3)
H22 H 0.7475 0.9333 0.7839
C14 C 0.6014(3) 1.0369(2) 0.7852(3)
Zn1 Zn 0.55487(4) 0.82018(2) 0.84723(3)
Zn2 Zn 0.81050(4) 0.79939(2) 1.19252(3)
Zn3 Zn 0.63302(4) 0.60235(2) 0.68819(3)
Zn4 Zn 0.00145(4) 0.96277(2) 0.70098(4)
O6 O 0.4158(2) 0.82035(15) 0.8121(2)
O7 O -0.0315(2) 0.83853(15) 0.6882(2)
O8 O -0.0619(2) 0.73971(17) 0.7891(2)
O9 O -0.0532(2) 0.70281(16) 0.6780(3)
O10 O 0.5348(3) 0.94151(17) 0.8558(2)
O11 O 0.5102(3) 1.0873(2) 0.8503(3)
O12 O 0.6038(3) 0.88142(16) 0.7931(3)
O13 O 0.7941(2) 0.71328(16) 1.1437(2)
N2 N 0.8360(3) 0.88788(18) 1.2321(3)
N3 N 0.7086(3) 0.82410(19) 1.0872(3)
N4 N 0.6479(3) 0.67503(18) 0.7545(3)
N5 N 0.7656(3) 0.92924(18) 1.2252(3)
O14 O 0.9008(2) 0.95720(16) 0.7512(3)
N6 N 0.6221(3) 0.75494(18) 0.8127(3)
O15 O 0.0909(3) 0.89791(16) 0.7296(3)
N7 N 0.6115(3) 0.83082(19) 0.9634(3)
O16 O 0.8832(3) 1.04309(18) 0.6949(3)
N8 N 0.7170(3) 0.71496(18) 0.7542(3)
O17 O 0.4409(3) 0.73246(17) 0.8633(3)
N9 N 0.6396(3) 0.86449(18) 1.0844(3)
O18 O 0.4326(3) 1.03624(19) 0.7470(3)
N10 N 0.9025(3) 0.97404(19) 1.2652(3)
N11 N -0.0606(4) 0.9581(2) 0.5862(3)
C15 C 0.6378(3) 0.9810(2) 0.7921(3)
C16 C 0.5943(3) 0.7006(2) 0.7900(3)
H23 H 0.5423 0.6829 0.7985
C17 C 0.8079(3) 0.9786(2) 1.2444(3)
H24 H 0.7762 1.0135 1.2439
C18 C 0.9158(3) 0.9170(2) 1.2571(3)
H25 H 0.9754 0.9000 1.2679
C19 C 0.1207(3) 0.7984(2) 0.7541(3)
C20 C 0.2177(3) 0.8075(2) 0.7744(3)
H26 H 0.2399 0.8434 0.7644
C21 C 0.6988(3) 0.7619(2) 0.7888(3)
H27 H 0.7345 0.7957 0.7960
C22 C 0.6884(3) 0.8047(2) 1.0140(3)
H28 H 0.7234 0.7763 0.9989
C23 C 0.0531(3) 0.8477(2) 0.7206(3)
C24 C 0.5845(3) 0.8669(2) 1.0109(3)
H29 H 0.5320 0.8912 0.9932
C25 C 0.5870(3) 0.9318(2) 0.8162(3)
C26 C 0.1503(3) 0.7010(2) 0.8036(3)
H30 H 0.1278 0.6651 0.8132
C27 C 0.2817(3) 0.7644(2) 0.8092(3)
C28 C 0.0867(3) 0.7442(2) 0.7665(3)
C29 C 0.2471(3) 0.7110(2) 0.8264(3)
H31 H 0.2893 0.6823 0.8532
C30 C -0.0166(3) 0.7292(2) 0.7429(3)
C31 C 0.3865(3) 0.7720(2) 0.8303(3)
C32 C 0.5096(4) 1.0525(3) 0.7963(4)
C39 C -0.1897(7) 0.9360(5) 0.4858(5)
H44 H -0.2308 0.9691 0.4738
H45 H -0.2269 0.9012 0.4715
H46 H -0.1460 0.9381 0.4563
C41 C -0.1431(7) 0.9351(4) 0.5605(5)
Zn2C Zn -0.18950(4) 0.70061(2) 0.69252(3)
Zn2C_2 Zn 0.81050(4) 0.70061(2) 0.69252(3)
Zn3A Zn 0.36698(4) 1.10235(2) 0.81181(3)
Zn3C Zn 0.63302(4) 0.89765(2) 1.18819(3)
Zn4_2 Zn 1.00145(4) 0.96277(2) 0.70098(4)
Zn4B Zn 0.99855(4) 1.03723(2) 1.29902(4)
O8C O 0.9381(2) 0.76029(17) 1.2891(2)
O9C O 0.9468(2) 0.79719(16) 1.1780(3)
O11A O 0.4898(3) 0.5873(2) 0.6497(3)
N5C N 0.7656(3) 0.57076(18) 0.7252(3)
O14_2 O -0.0992(2) 0.95720(16) 0.7512(3)
O16_2 O -0.1168(3) 1.04309(18) 0.6949(3)
N8C N 0.7170(3) 0.78504(18) 1.2542(3)
N9C N 0.6396(3) 0.63551(18) 0.5844(3)
O18A O 0.5674(3) 0.53624(19) 0.7530(3)
N10B N 0.0975(3) 1.02596(19) 0.7348(3)
O4 O 0.6574(3) 0.4252(2) 0.7731(3)
O5 O 0.1053(4) 0.3510(2) 0.6610(3)
loop_
_geom_bond_atom_site_label_1
_geom_bond_atom_site_label_2
_geom_bond_site_symmetry_1
_geom_bond_site_symmetry_2
C1 H1 1_555 1_555
H2 C1 1_555 1_555
H3 C1 1_555 1_555
C2 H4 1_555 1_555
H5 C2 1_555 1_555
H6 C2 1_555 1_555
C3 C1 1_555 1_555
H7 C3 1_555 1_555
H8 C3 1_555 1_555
C4 C2 1_555 1_555
H9 C4 1_555 1_555
H10 C4 1_555 1_555
C5 H11 1_555 1_555
H12 C5 1_555 1_555
H13 C5 1_555 1_555
C6 C5 1_555 1_555
H14 C6 1_555 1_555
H15 C6 1_555 1_555
C7 C6 1_555 1_555
H16 C7 1_555 1_555
H17 C7 1_555 1_555
C8 H18 1_555 1_555
H19 C8 1_555 1_555
N1 C8 1_555 1_555
C9 H20 1_555 1_555
C10 C11 1_555 1_555
C11 C12 1_555 1_555
C12 C9 1_555 1_555
H21 C12 1_555 1_555
C13 C11 1_555 1_555
H22 C13 1_555 1_555
C14 C9 1_555 1_555
Zn1 O6 1_555 1_555
Zn2 O13 1_555 1_555
Zn3 N4 1_555 1_555
Zn4 O15 1_555 1_555
O6 C31 1_555 1_555
O7 C23 1_555 1_555
O8 C30 1_555 1_555
O9 C30 1_555 1_555
O10 C25 1_555 1_555
O11 C32 1_555 1_555
O12 Zn1 1_555 1_555
N2 Zn2 1_555 1_555
N3 Zn2 1_555 1_555
N4 N8 1_555 1_555
N5 N2 1_555 1_555
O14 C10 1_555 1_555
N6 Zn1 1_555 1_555
O15 C23 1_555 1_555
N7 Zn1 1_555 1_555
O16 C10 1_555 1_555
N8 C21 1_555 1_555
O17 C31 1_555 1_555
N9 N3 1_555 1_555
O18 C32 1_555 1_555
N10 C17 1_555 1_555
N11 Zn4 1_555 1_555
C15 C13 1_555 1_555
C16 N4 1_555 1_555
H23 C16 1_555 1_555
C17 N5 1_555 1_555
H24 C17 1_555 1_555
C18 N2 1_555 1_555
H25 C18 1_555 1_555
C19 C20 1_555 1_555
C20 H26 1_555 1_555
C21 N6 1_555 1_555
H27 C21 1_555 1_555
C22 N3 1_555 1_555
H28 C22 1_555 1_555
C23 C19 1_555 1_555
C24 N7 1_555 1_555
H29 C24 1_555 1_555
C25 O12 1_555 1_555
C26 H30 1_555 1_555
C27 C20 1_555 1_555
C28 C19 1_555 1_555
C29 C26 1_555 1_555
H31 C29 1_555 1_555
C30 C28 1_555 1_555
C31 C27 1_555 1_555
C32 C14 1_555 1_555
C33 C7 1_555 1_555
H32 C33 1_555 1_555
H33 C33 1_555 1_555
C34 N1 1_555 1_555
H34 C34 1_555 1_555
H35 C34 1_555 1_555
C35 N1 1_555 1_555
H36 C35 1_555 1_555
H37 C35 1_555 1_555
C36 C8 1_555 1_555
H38 C36 1_555 1_555
H39 C36 1_555 1_555
C37 C36 1_555 1_555
H40 C37 1_555 1_555
H41 C37 1_555 1_555
C38 C4 1_555 1_555
H42 C38 1_555 1_555
H43 C38 1_555 1_555
C39 H44 1_555 1_555
H45 C39 1_555 1_555
H46 C39 1_555 1_555
C40 C37 1_555 1_555
H47 C40 1_555 1_555
H48 C40 1_555 1_555
H49 C40 1_555 1_555
C41 N11 1_555 1_555
C42 C3 1_555 1_555
H50 C42 1_555 1_555
H51 C42 1_555 1_555
Zn2C O8 1_555 1_555
Zn2C_2 N8 1_555 1_555
Zn3A O11 1_555 1_555
Zn3C N5 1_555 1_555
Zn4_2 O14 1_555 1_555
Zn4B N10 1_555 1_555
O8C Zn2 1_555 1_555
O9C Zn2 1_555 1_555
O11A Zn3 1_555 1_555
N5C Zn3 1_555 1_555
O14_2 Zn4 1_555 1_555
O16_2 Zn4 1_555 1_555
N8C Zn2 1_555 1_555
N9C Zn3 1_555 1_555
O18A Zn3 1_555 1_555
N10B Zn4 1_555 1_555
N1 C33 1_555 1_555
C14 C15 1_555 1_555
O9 Zn2C 1_555 1_555
N6 C16 1_555 1_555
N7 C22 1_555 1_555
O16 Zn4_2 1_555 1_555
N9 C24 1_555 1_555
N9 Zn3C 1_555 1_555
O18 Zn3A 1_555 1_555
N10 C18 1_555 1_555
C15 C25 1_555 1_555
C26 C28 1_555 1_555
C27 C29 1_555 1_555
C34 C38 1_555 1_555
C35 C42 1_555 1_555
C39 C41 1_555 1_555

#END
