
#######################################################################
#
#                 Cambridge Crystallographic Data Centre
#                                CCDC 
#
#######################################################################
#
# If this CIF has been generated from an entry in the Cambridge 
# Structural Database, then it will include bibliographic, chemical, 
# crystal, experimental, refinement or atomic coordinate data resulting 
# from the CCDC's data processing and validation procedures.
#
#######################################################################

data_XOTZIR
_chemical_formula_moiety         '(C81 H73 N1 O22 Yb2)n'
_symmetry_cell_setting           triclinic
_symmetry_space_group_name_H-M   'P -1'
_symmetry_Int_Tables_number      2
_space_group_name_Hall           '-P 1'
loop_
_symmetry_equiv_pos_site_id
_symmetry_equiv_pos_as_xyz
1 x,y,z
2 -x,-y,-z
_cell_length_a                   8.811(2)
_cell_length_b                   10.951(3)
_cell_length_c                   21.944(5)
_cell_angle_alpha                77.152(5)
_cell_angle_beta                 87.703(5)
_cell_angle_gamma                78.251(6)
_cell_volume                     2021.07
loop_
_atom_site_label
_atom_site_type_symbol
_atom_site_fract_x
_atom_site_fract_y
_atom_site_fract_z
Yb1 Yb 0.2868(2) 0.4658(4) 0.49518(7)
O1 O 0.1350(19) 0.376(2) 0.5765(6)
C1 C 0.008(3) 0.422(3) 0.5975(8)
C2 C -0.015(3) 0.371(2) 0.6692(8)
O2 O -0.088(2) 0.5071(18) 0.5680(6)
O3 O -0.5318(12) 0.2141(10) 0.9236(4)
C3 C -0.137(2) 0.4356(18) 0.6963(7)
H1 H -0.2005 0.5092 0.6729
O4 O -0.0862(12) 0.1061(10) 1.1080(4)
C4 C -0.165(2) 0.3916(14) 0.7592(6)
H2 H -0.2463 0.4379 0.7791
C5 C -0.0762(18) 0.2814(13) 0.7925(6)
O5 O -0.697(3) -0.311(3) 1.4275(7)
C6 C 0.048(2) 0.2199(17) 0.7628(7)
H3 H 0.1124 0.1459 0.7855
O6 O -0.4643(15) -0.2821(12) 1.4550(6)
C7 C 0.079(2) 0.264(2) 0.7018(8)
H4 H 0.1636 0.2213 0.6822
O7 O 0.571(3) 0.4594(18) 0.4345(9)
C8 C -0.105(2) 0.2284(14) 0.8595(7)
H5 H -0.0204 0.1791 0.8845
O8 O 0.398(2) 0.360(2) 0.4070(8)
C9 C -0.2431(18) 0.2474(13) 0.8855(6)
H6 H -0.3279 0.2916 0.8595
C10 C -0.2732(18) 0.2043(13) 0.9521(6)
C11 C -0.4247(18) 0.1875(13) 0.9702(6)
C12 C -0.4569(16) 0.1460(13) 1.0342(6)
H7 H -0.5583 0.1371 1.0463
C13 C -0.3446(18) 0.1186(12) 1.0788(6)
C14 C -0.1932(18) 0.1357(13) 1.0603(7)
C15 C -0.1640(18) 0.1761(12) 0.9970(6)
H8 H -0.0623 0.1842 0.9849
C16 C -0.3743(18) 0.0692(14) 1.1455(7)
H9 H -0.3028 0.0754 1.1747
C17 C -0.4962(17) 0.0157(13) 1.1678(7)
H10 H -0.5704 0.0141 1.1385
C18 C -0.5236(19) -0.0399(15) 1.2333(6)
C19 C -0.638(2) -0.1092(16) 1.2468(7)
H11 H -0.7026 -0.1128 1.2145
C20 C -0.659(2) -0.1747(17) 1.3074(7)
H12 H -0.7406 -0.2199 1.3154
C21 C -0.568(2) -0.1751(18) 1.3545(6)
C22 C -0.453(2) -0.1033(18) 1.3417(7)
H13 H -0.3872 -0.1003 1.3738
C23 C -0.435(2) -0.0368(16) 1.2819(7)
H14 H -0.3584 0.0131 1.2742
C24 C -0.581(2) -0.259(2) 1.4204(9)
C25 C -0.6867(16) 0.2003(15) 0.9390(7)
H15 H -0.7484 0.2216 0.9011
H16 H -0.7303 0.2573 0.9662
H17 H -0.6870 0.1127 0.9604
C26 C 0.0685(18) 0.1206(16) 1.0907(7)
H18 H 0.1332 0.0975 1.1279
H19 H 0.0678 0.2088 1.0701
H20 H 0.1093 0.0654 1.0624
C27 C 0.503(3) 0.416(3) 0.3970(12)
C28 C 0.577(2) 0.413(2) 0.3316(9)
C29 C 0.670(2) 0.488(2) 0.3109(8)
H21 H 0.6939 0.5384 0.3373
C30 C 0.739(2) 0.500(2) 0.2535(9)
H22 H 0.8082 0.5562 0.2419
C31 C 0.7062(19) 0.4330(18) 0.2145(7)
C32 C 0.614(2) 0.3484(18) 0.2356(8)
H23 H 0.5958 0.2940 0.2102
C33 C 0.547(2) 0.340(2) 0.2932(9)
H24 H 0.4790 0.2833 0.3063
C34 C 0.777(2) 0.4369(18) 0.1507(8)
H25 H 0.7242 0.3994 0.1257
C35 C 0.880(3) 0.4747(15) 0.1254(8)
H26 H 0.9396 0.5065 0.1505
C36 C 0.937(2) 0.4828(14) 0.0592(7)
C37 C 1.096(2) 0.4787(14) 0.0515(7)
C38 C 0.8419(18) 0.5052(14) 0.0092(8)
O9 O 0.182(5) 0.619(3) 0.522(2)
C39 C 1.363(4) 0.462(3) 0.0884(18)
O10 O 1.2000(17) 0.4626(14) 0.0995(6)
O7A O 1.429(3) 0.5406(18) -0.4345(9)
O8A O 1.602(2) 0.640(2) -0.4070(8)
C27A C 1.497(3) 0.584(3) -0.3970(12)
C28A C 1.423(2) 0.587(2) -0.3316(9)
C29A C 1.330(2) 0.512(2) -0.3109(8)
H21A H 1.3061 0.4616 -0.3373
C30A C 1.261(2) 0.500(2) -0.2535(9)
H22A H 1.1918 0.4438 -0.2419
C31A C 1.2938(19) 0.5670(18) -0.2145(7)
C32A C 1.386(2) 0.6516(18) -0.2356(8)
H23A H 1.4042 0.7060 -0.2102
C33A C 1.453(2) 0.660(2) -0.2932(9)
H24A H 1.5210 0.7167 -0.3063
C34A C 1.223(2) 0.5631(18) -0.1507(8)
H25A H 1.2758 0.6006 -0.1257
C35A C 1.120(3) 0.5253(15) -0.1254(8)
H26A H 1.0604 0.4935 -0.1505
C36A C 1.063(2) 0.5172(14) -0.0592(7)
C37A C 0.904(2) 0.5213(14) -0.0515(7)
C38A C 1.1581(18) 0.4948(14) -0.0092(8)
C39A C 0.637(4) 0.538(3) -0.0884(18)
O10A O 0.8000(17) 0.5374(14) -0.0995(6)
Yb1A Yb -0.2868(2) -0.4658(4) 1.50482(7)
O1A O -0.1350(19) -0.376(2) 1.4235(6)
C1A C -0.008(3) -0.422(3) 1.4025(8)
C2A C 0.015(3) -0.371(2) 1.3308(8)
O2A O 0.088(2) -0.5071(18) 1.4320(6)
O3A O 0.5318(12) -0.2141(10) 1.0764(4)
C3A C 0.137(2) -0.4356(18) 1.3037(7)
H1A H 0.2005 -0.5092 1.3271
O4A O 0.0862(12) -0.1061(10) 0.8920(4)
C4A C 0.165(2) -0.3916(14) 1.2408(6)
H2A H 0.2463 -0.4379 1.2209
C5A C 0.0762(18) -0.2814(13) 1.2075(6)
O5A O 0.697(3) 0.311(3) 0.5725(7)
C6A C -0.048(2) -0.2199(17) 1.2372(7)
H3A H -0.1124 -0.1459 1.2145
O6A O 0.4643(15) 0.2821(12) 0.5450(6)
C7A C -0.079(2) -0.264(2) 1.2982(8)
H4A H -0.1636 -0.2213 1.3178
C8A C 0.105(2) -0.2284(14) 1.1405(7)
H5A H 0.0204 -0.1791 1.1155
C9A C 0.2431(18) -0.2474(13) 1.1145(6)
H6A H 0.3279 -0.2916 1.1405
C10A C 0.2732(18) -0.2043(13) 1.0479(6)
C11A C 0.4247(18) -0.1875(13) 1.0298(6)
C12A C 0.4569(16) -0.1460(13) 0.9658(6)
H7A H 0.5583 -0.1371 0.9537
C13A C 0.3446(18) -0.1186(12) 0.9212(6)
C14A C 0.1932(18) -0.1357(13) 0.9397(7)
C15A C 0.1640(18) -0.1761(12) 1.0030(6)
H8A H 0.0623 -0.1842 1.0151
C16A C 0.3743(18) -0.0692(14) 0.8545(7)
H9A H 0.3028 -0.0754 0.8253
C17A C 0.4962(17) -0.0157(13) 0.8322(7)
H10A H 0.5704 -0.0141 0.8615
C18A C 0.5236(19) 0.0399(15) 0.7667(6)
C19A C 0.638(2) 0.1092(16) 0.7532(7)
H11A H 0.7026 0.1128 0.7855
C20A C 0.659(2) 0.1747(17) 0.6926(7)
H12A H 0.7406 0.2199 0.6846
C21A C 0.568(2) 0.1751(18) 0.6455(6)
C22A C 0.453(2) 0.1033(18) 0.6583(7)
H13A H 0.3872 0.1003 0.6262
C23A C 0.435(2) 0.0368(16) 0.7181(7)
H14A H 0.3584 -0.0131 0.7258
C24A C 0.581(2) 0.259(2) 0.5796(9)
C25A C 0.6867(16) -0.2003(15) 1.0610(7)
H15A H 0.7484 -0.2216 1.0989
H16A H 0.7303 -0.2573 1.0338
H17A H 0.6870 -0.1127 1.0396
C26A C -0.0685(18) -0.1206(16) 0.9093(7)
H18A H -0.1332 -0.0975 0.8721
H19A H -0.0678 -0.2088 0.9299
H20A H -0.1093 -0.0654 0.9376
O9A O -0.182(5) -0.619(3) 1.478(2)
Yb1_2 Yb -0.7132(2) -0.5342(4) 1.49518(7)
Yb1_3 Yb 0.2868(2) -0.5342(4) 1.49518(7)
Yb1_4 Yb 1.2868(2) 0.4658(4) -0.50482(7)
Yb1A_2 Yb -0.2868(2) 0.5342(4) 0.50482(7)
Yb1A_3 Yb 0.7132(2) 0.5342(4) 0.50482(7)
Yb1A_4 Yb 1.7132(2) 0.5342(4) -0.49518(7)
O2_2 O -0.088(2) -0.4929(18) 1.5680(6)
O2A_2 O 0.088(2) 0.4929(18) 0.4320(6)
O5_2 O 0.303(3) 0.689(3) 0.4275(7)
O5A_2 O -0.303(3) -0.689(3) 1.5725(7)
O7_2 O -0.429(3) -0.5406(18) 1.4345(9)
O7A_2 O -0.571(3) -0.4594(18) 1.5655(9)
O7A_3 O 0.429(3) 0.5406(18) 0.5655(9)
O8A_2 O -0.398(2) -0.360(2) 1.5930(8)
O11 O 0.196(3) 0.211(2) 0.4938(12)
O12 O -0.083(5) 0.067(4) 0.305(2)
N1 N 0.087(3) 0.196(3) 0.2892(15)
C40 C 0.129(7) 0.169(6) 0.356(3)
C41 C 0.175(4) 0.258(3) 0.2295(16)
C42 C 0.000(5) 0.124(4) 0.266(2)
loop_
_geom_bond_atom_site_label_1
_geom_bond_atom_site_label_2
_geom_bond_site_symmetry_1
_geom_bond_site_symmetry_2
Yb1 O1 1_555 1_555
O1 C1 1_555 1_555
C1 C2 1_555 1_555
C2 C3 1_555 1_555
O2 C1 1_555 1_555
O3 C11 1_555 1_555
C3 H1 1_555 1_555
O4 C14 1_555 1_555
C4 C3 1_555 1_555
H2 C4 1_555 1_555
C5 C4 1_555 1_555
O5 C24 1_555 1_555
C6 C5 1_555 1_555
H3 C6 1_555 1_555
O6 C24 1_555 1_555
C7 C2 1_555 1_555
H4 C7 1_555 1_555
O7 Yb1 1_555 1_555
C8 C5 1_555 1_555
H5 C8 1_555 1_555
O8 Yb1 1_555 1_555
C9 C8 1_555 1_555
H6 C9 1_555 1_555
C10 C9 1_555 1_555
C11 C10 1_555 1_555
C12 C11 1_555 1_555
H7 C12 1_555 1_555
C13 C12 1_555 1_555
C14 C13 1_555 1_555
C15 C10 1_555 1_555
H8 C15 1_555 1_555
C16 C13 1_555 1_555
H9 C16 1_555 1_555
C17 C16 1_555 1_555
H10 C17 1_555 1_555
C18 C17 1_555 1_555
C19 C18 1_555 1_555
H11 C19 1_555 1_555
C20 C19 1_555 1_555
H12 C20 1_555 1_555
C21 C20 1_555 1_555
C22 C21 1_555 1_555
H13 C22 1_555 1_555
C23 C18 1_555 1_555
H14 C23 1_555 1_555
C24 C21 1_555 1_555
C25 O3 1_555 1_555
H15 C25 1_555 1_555
H16 C25 1_555 1_555
H17 C25 1_555 1_555
C26 O4 1_555 1_555
H18 C26 1_555 1_555
H19 C26 1_555 1_555
H20 C26 1_555 1_555
C27 O7 1_555 1_555
C28 C27 1_555 1_555
C29 C28 1_555 1_555
H21 C29 1_555 1_555
C30 C29 1_555 1_555
H22 C30 1_555 1_555
C31 C30 1_555 1_555
C32 C31 1_555 1_555
H23 C32 1_555 1_555
C33 C28 1_555 1_555
H24 C33 1_555 1_555
C34 C31 1_555 1_555
H25 C34 1_555 1_555
C35 C34 1_555 1_555
H26 C35 1_555 1_555
C36 C35 1_555 1_555
C37 C36 1_555 1_555
C38 C36 1_555 1_555
O9 Yb1 1_555 1_555
C39 O10 1_555 1_555
O10 C37 1_555 1_555
O12 C42 1_555 1_555
N1 C40 1_555 1_555
C41 N1 1_555 1_555
C42 N1 1_555 1_555
O7A C27A 1_555 1_555
O8A C27A 1_555 1_555
C27A C28A 1_555 1_555
C28A C29A 1_555 1_555
C29A H21A 1_555 1_555
C30A C29A 1_555 1_555
H22A C30A 1_555 1_555
C31A C30A 1_555 1_555
C32A C31A 1_555 1_555
H23A C32A 1_555 1_555
C33A C28A 1_555 1_555
H24A C33A 1_555 1_555
C34A C31A 1_555 1_555
H25A C34A 1_555 1_555
C35A C34A 1_555 1_555
H26A C35A 1_555 1_555
C36A C35A 1_555 1_555
C37A C38 1_555 1_555
C38A C37 1_555 1_555
C39A O10A 1_555 1_555
O10A C37A 1_555 1_555
Yb1A O6 1_555 1_555
O1A Yb1A 1_555 1_555
C1A O1A 1_555 1_555
C2A C1A 1_555 1_555
O2A C1A 1_555 1_555
O3A C11A 1_555 1_555
C3A C2A 1_555 1_555
H1A C3A 1_555 1_555
O4A C14A 1_555 1_555
C4A C3A 1_555 1_555
H2A C4A 1_555 1_555
C5A C4A 1_555 1_555
O5A C24A 1_555 1_555
C6A C5A 1_555 1_555
H3A C6A 1_555 1_555
O6A Yb1 1_555 1_555
C7A C2A 1_555 1_555
H4A C7A 1_555 1_555
C8A C5A 1_555 1_555
H5A C8A 1_555 1_555
C9A C8A 1_555 1_555
H6A C9A 1_555 1_555
C10A C9A 1_555 1_555
C11A C10A 1_555 1_555
C12A C11A 1_555 1_555
H7A C12A 1_555 1_555
C13A C12A 1_555 1_555
C14A C13A 1_555 1_555
C15A C10A 1_555 1_555
H8A C15A 1_555 1_555
C16A C13A 1_555 1_555
H9A C16A 1_555 1_555
C17A C16A 1_555 1_555
H10A C17A 1_555 1_555
C18A C17A 1_555 1_555
C19A C18A 1_555 1_555
H11A C19A 1_555 1_555
C20A C19A 1_555 1_555
H12A C20A 1_555 1_555
C21A C20A 1_555 1_555
C22A C21A 1_555 1_555
H13A C22A 1_555 1_555
C23A C18A 1_555 1_555
H14A C23A 1_555 1_555
C24A O6A 1_555 1_555
C25A O3A 1_555 1_555
H15A C25A 1_555 1_555
H16A C25A 1_555 1_555
H17A C25A 1_555 1_555
C26A O4A 1_555 1_555
H18A C26A 1_555 1_555
H19A C26A 1_555 1_555
H20A C26A 1_555 1_555
O9A Yb1A 1_555 1_555
Yb1_2 O5 1_555 1_555
Yb1_3 O2A 1_555 1_555
Yb1_4 O7A 1_555 1_555
Yb1A_2 O2 1_555 1_555
Yb1A_3 O7 1_555 1_555
Yb1A_4 O7A 1_555 1_555
O2_2 Yb1A 1_555 1_555
O2A_2 Yb1 1_555 1_555
O5_2 Yb1 1_555 1_555
O5A_2 Yb1A 1_555 1_555
O7_2 Yb1A 1_555 1_555
O7A_2 Yb1A 1_555 1_555
O7A_3 Yb1 1_555 1_555
O8A_2 Yb1A 1_555 1_555
C6 C7 1_555 1_555
O8 C27 1_555 1_555
C14 C15 1_555 1_555
C22 C23 1_555 1_555
C32 C33 1_555 1_555
O8A Yb1A_4 1_555 1_555
C32A C33A 1_555 1_555
C36A C37A 1_555 1_555
C36A C38A 1_555 1_555
O5A Yb1A_3 1_555 1_555
C6A C7A 1_555 1_555
C14A C15A 1_555 1_555
C21A C24A 1_555 1_555
C22A C23A 1_555 1_555
Yb1_2 O7_2 1_555 1_555
Yb1_2 O7A_2 1_555 1_555
Yb1A_3 O7A_3 1_555 1_555

#END
