
#######################################################################
#
#                 Cambridge Crystallographic Data Centre
#                                CCDC 
#
#######################################################################
#
# If this CIF has been generated from an entry in the Cambridge 
# Structural Database, then it will include bibliographic, chemical, 
# crystal, experimental, refinement or atomic coordinate data resulting 
# from the CCDC's data processing and validation procedures.
#
#######################################################################

data_HASMIZ
_chemical_formula_moiety         '(C18 H13 Co1 N3 O4)n'
_symmetry_cell_setting           monoclinic
_symmetry_space_group_name_H-M   'P 21/c'
_symmetry_Int_Tables_number      14
_space_group_name_Hall           '-P 2ybc'
loop_
_symmetry_equiv_pos_site_id
_symmetry_equiv_pos_as_xyz
1 x,y,z
2 -x,1/2+y,1/2-z
3 -x,-y,-z
4 x,1/2-y,1/2+z
_cell_length_a                   11.3737(4)
_cell_length_b                   17.9058(8)
_cell_length_c                   17.6013(7)
_cell_angle_alpha                90
_cell_angle_beta                 99.234(4)
_cell_angle_gamma                90
_cell_volume                     3538.14
loop_
_atom_site_label
_atom_site_type_symbol
_atom_site_fract_x
_atom_site_fract_y
_atom_site_fract_z
Co1 Co 0.03434(12) 0.07795(8) -0.07561(7)
O1 O 0.0625(5) 0.1045(3) 0.0359(3)
O2 O -0.0334(5) 0.0293(3) 0.1062(3)
O3 O 0.0318(5) 0.3027(3) 0.3955(3)
O4 O 0.0111(4) 0.3888(4) 0.3034(3)
N1 N -0.004(2) 0.0552(11) 0.2518(17)
H1 H 0.0015 0.0188 0.2191
H2 H -0.0113 0.0449 0.2998
H3 H 0.0533 0.2453 0.0990
N2 N 0.2237(6) 0.0764(4) -0.0733(4)
N3 N 0.8408(5) 0.0822(3) -0.0781(3)
C1 C 0.0074(8) 0.1513(5) 0.1531(5)
C2 C -0.0029(6) 0.1333(5) 0.2262(5)
C3 C 0.0049(7) 0.1869(4) 0.2844(4)
H4 H 0.0027 0.1735 0.3364
C4 C 0.0162(7) 0.2606(6) 0.2627(5)
C5 C 0.0347(9) 0.2796(5) 0.1890(6)
H5 H 0.0486 0.3301 0.1764
C6 C 0.0328(8) 0.2248(6) 0.1351(5)
C7 C 0.0154(8) 0.0855(6) 0.0963(7)
C8 C 0.0192(7) 0.3230(5) 0.3268(6)
C9 C 0.4698(7) 0.0780(4) -0.0742(4)
C10 C 0.4210(8) 0.1195(5) -0.0208(5)
H6 H 0.4712 0.1491 0.0157
C11 C 0.3009(6) 0.1181(4) -0.0202(4)
H7 H 0.2693 0.1464 0.0175
C12 C 0.2715(6) 0.0358(5) -0.1262(5)
H8 H 0.2208 0.0066 -0.1628
C13 C 0.3905(8) 0.0364(7) -0.1273(7)
H9 H 0.4211 0.0077 -0.1651
C14 C 0.5912(5) 0.0794(3) -0.0760(3)
C15 C 0.6751(7) 0.1285(5) -0.0324(5)
H10 H 0.6449 0.1644 -0.0007
C16 C 0.7968(5) 0.1282(4) -0.0324(5)
H11 H 0.8476 0.1610 0.0004
C17 C 0.7716(6) 0.0322(5) -0.1243(4)
H12 H 0.8054 -0.0004 -0.1575
C18 C 0.6505(7) 0.0308(5) -0.1209(6)
H13 H 0.6036 -0.0057 -0.1512
Co1B Co -0.03434(12) -0.07795(8) 0.07561(7)
Co1C Co 0.03434(12) 0.42205(8) 0.42439(7)
Co1_2 Co 1.03434(12) 0.07795(8) -0.07561(7)
O2B O 0.0334(5) -0.0293(3) -0.1062(3)
O3C O 0.0318(5) 0.1973(3) -0.1045(3)
O4C O 0.0111(4) 0.1112(4) -0.1966(3)
N3_2 N -0.1592(5) 0.0822(3) -0.0781(3)
loop_
_geom_bond_atom_site_label_1
_geom_bond_atom_site_label_2
_geom_bond_site_symmetry_1
_geom_bond_site_symmetry_2
Co1 O1 1_555 1_555
O1 C7 1_555 1_555
O2 C7 1_555 1_555
O3 C8 1_555 1_555
O4 C8 1_555 1_555
N1 H1 1_555 1_555
H2 N1 1_555 1_555
H3 C6 1_555 1_555
N2 Co1 1_555 1_555
N3 C16 1_555 1_555
C1 C2 1_555 1_555
C2 N1 1_555 1_555
C3 C2 1_555 1_555
H4 C3 1_555 1_555
C4 C3 1_555 1_555
C5 C4 1_555 1_555
H5 C5 1_555 1_555
C6 C1 1_555 1_555
C7 C1 1_555 1_555
C8 C4 1_555 1_555
C9 C10 1_555 1_555
C10 H6 1_555 1_555
C11 N2 1_555 1_555
H7 C11 1_555 1_555
C12 N2 1_555 1_555
H8 C12 1_555 1_555
C13 C9 1_555 1_555
H9 C13 1_555 1_555
C14 C9 1_555 1_555
C15 C14 1_555 1_555
H10 C15 1_555 1_555
C16 C15 1_555 1_555
H11 C16 1_555 1_555
C17 N3 1_555 1_555
H12 C17 1_555 1_555
C18 C14 1_555 1_555
H13 C18 1_555 1_555
Co1B O2 1_555 1_555
Co1C O3 1_555 1_555
Co1_2 N3 1_555 1_555
O2B Co1 1_555 1_555
O3C Co1 1_555 1_555
O4C Co1 1_555 1_555
N3_2 Co1 1_555 1_555
O4 Co1C 1_555 1_555
C5 C6 1_555 1_555
C10 C11 1_555 1_555
C12 C13 1_555 1_555
C17 C18 1_555 1_555

#END
