
#######################################################################
#
#                 Cambridge Crystallographic Data Centre
#                                CCDC 
#
#######################################################################
#
# If this CIF has been generated from an entry in the Cambridge 
# Structural Database, then it will include bibliographic, chemical, 
# crystal, experimental, refinement or atomic coordinate data resulting 
# from the CCDC's data processing and validation procedures.
#
#######################################################################

data_ECIYEU02
_chemical_formula_moiety         '(C2 H9 Al3 N1 O13 P3)n'
_symmetry_cell_setting           orthorhombic
_symmetry_space_group_name_H-M   'P b c a'
_symmetry_Int_Tables_number      61
_space_group_name_Hall           '-P 2ac 2ab'
loop_
_symmetry_equiv_pos_site_id
_symmetry_equiv_pos_as_xyz
1 x,y,z
2 1/2-x,-y,1/2+z
3 1/2+x,1/2-y,-z
4 -x,1/2+y,1/2-z
5 -x,-y,-z
6 1/2+x,y,1/2-z
7 1/2-x,1/2+y,z
8 x,1/2-y,1/2+z
_cell_length_a                   13.678(2)
_cell_length_b                   10.318(3)
_cell_length_c                   17.357(3)
_cell_angle_alpha                90
_cell_angle_beta                 90
_cell_angle_gamma                90
_cell_volume                     2449.59
loop_
_atom_site_label
_atom_site_type_symbol
_atom_site_fract_x
_atom_site_fract_y
_atom_site_fract_z
P1 P 0.93297(6) 0.63141(8) 0.42190(5)
P2 P 0.96420(7) 0.12616(8) 0.33245(5)
P3 P 1.25318(7) 0.37177(8) 0.29446(5)
Al1 Al 1.06149(7) 0.37418(9) 0.39302(6)
Al2 Al 0.98219(8) 0.3276(1) 0.19928(6)
Al3 Al 0.73927(8) 0.12920(9) 0.30503(6)
O1 O 1.0126(2) 0.4031(2) 0.2917(1)
O2 O 0.8537(2) 0.1355(3) 0.3475(2)
O3 O 1.0128(2) 0.2141(2) 0.39224(1)
O4 O 1.3532(2) 0.3226(2) 0.3175(1)
O5 O 1.1881(2) 0.3703(2) 0.3651(1)
O6 O 0.8428(2) 0.5854(2) 0.3768(1)
O7 O 1.0126(2) 0.5296(2) 0.4162(1)
O8 O 0.9023(2) 0.6523(3) 0.5049(1)
O9 O 0.9675(2) 0.7590(2) 0.3880(1)
O10 O 0.9984(2) -0.0109(2) 0.3471(1)
O11 O 1.2094(2) 0.2825(2) 0.2318(1)
O12 O 1.2603(2) 0.5101(2) 0.2649(1)
O13 O 0.9890(2) 0.1670(2) 0.2497(1)
O8D O 1.0977(2) 0.3477(3) 0.4951(1)
O4E O 0.8532(2) 0.3226(2) 0.1825(1)
O9C O 1.0325(2) 0.2590(2) 0.1120(1)
O10C O 1.0016(2) 0.4891(2) 0.1529(1)
O6F O 0.6572(2) 0.0854(2) 0.3768(1)
O11E O 0.7094(2) 0.2825(2) 0.2682(1)
O12C O 0.7397(2) 0.0101(2) 0.2351(1)
Al2E Al 1.48219(8) 0.3276(1) 0.30072(6)
Al3F Al 0.76073(8) 0.62920(9) 0.30503(6)
Al1D Al 0.93851(7) 0.62582(9) 0.60698(6)
Al2C Al 1.01781(8) 0.8276(1) 0.30072(6)
Al2C_2 Al 1.01781(8) -0.1724(1) 0.30072(6)
Al3E Al 1.23927(8) 0.12920(9) 0.19497(6)
Al3C Al 1.26073(8) 0.62920(9) 0.19497(6)
C1 C 1.1307(9) 0.0398(9) 0.4977(4)
C2 C 1.307(1) 0.202(3) 0.5015(7)
N1 N 1.223(1) 0.104(1) 0.4783(7)
H1 H 1.140(1) -0.0524(9) 0.497(3)
H2 H 1.082(1) 0.063(5) 0.461(2)
H3 H 1.110(2) 0.066(4) 0.548(1)
H4 H 1.34(1) 0.17(1) 0.546(8)
H5 H 1.279(2) 0.285(6) 0.51(1)
H6 H 1.352(9) 0.21(2) 0.460(5)
H7 H 1.259(1) 0.034(1) 0.4666(7)
H8 H 1.206(1) 0.137(1) 0.4321(7)
loop_
_geom_bond_atom_site_label_1
_geom_bond_atom_site_label_2
_geom_bond_site_symmetry_1
_geom_bond_site_symmetry_2
P1 O6 1_555 1_555
P2 O2 1_555 1_555
P3 O4 1_555 1_555
Al1 O1 1_555 1_555
Al2 O1 1_555 1_555
Al3 O2 1_555 1_555
O3 P2 1_555 1_555
O4 Al2E 1_555 1_555
O5 P3 1_555 1_555
O6 Al3F 1_555 1_555
O7 P1 1_555 1_555
O8 P1 1_555 1_555
O9 P1 1_555 1_555
O10 P2 1_555 1_555
O11 P3 1_555 1_555
O12 P3 1_555 1_555
O13 P2 1_555 1_555
C1 N1 1_555 1_555
C2 N1 1_555 1_555
N1 H7 1_555 1_555
H1 C1 1_555 1_555
H2 C1 1_555 1_555
H3 C1 1_555 1_555
H4 C2 1_555 1_555
H5 C2 1_555 1_555
H6 C2 1_555 1_555
H8 N1 1_555 1_555
O8D Al1 1_555 1_555
O4E Al2 1_555 1_555
O9C Al2 1_555 1_555
O10C Al2 1_555 1_555
O6F Al3 1_555 1_555
O11E Al3 1_555 1_555
O12C Al3 1_555 1_555
Al1D O8 1_555 1_555
Al2C O9 1_555 1_555
Al2C_2 O10 1_555 1_555
Al3E O11 1_555 1_555
Al3C O12 1_555 1_555
Al1 O3 1_555 1_555
Al1 O5 1_555 1_555
Al1 O7 1_555 1_555
Al2 O13 1_555 1_555

#END
