
#######################################################################
#
#                 Cambridge Crystallographic Data Centre
#                                CCDC 
#
#######################################################################
#
# If this CIF has been generated from an entry in the Cambridge 
# Structural Database, then it will include bibliographic, chemical, 
# crystal, experimental, refinement or atomic coordinate data resulting 
# from the CCDC's data processing and validation procedures.
#
#######################################################################

data_VETTIY
_chemical_formula_moiety         'C8 H1 Cd4 N7 O27 S1 2-'
_symmetry_cell_setting           cubic
_symmetry_space_group_name_H-M   'F -4 3 m'
_symmetry_Int_Tables_number      216
_space_group_name_Hall           'F -4 2 3'
loop_
_symmetry_equiv_pos_site_id
_symmetry_equiv_pos_as_xyz
1 x,y,z
2 y,-x,-z
3 x,-y,-z
4 z,x,y
5 -x,-y,z
6 -y,-x,z
7 x,-z,-y
8 -y,x,-z
9 -x,y,-z
10 -z,-x,y
11 y,x,z
12 -x,z,-y
13 z,-x,-y
14 x,z,y
15 -z,x,-y
16 -x,-z,y
17 y,z,x
18 z,-y,-x
19 -z,-y,x
20 y,-z,-x
21 z,y,x
22 -y,z,-x
23 -y,-z,x
24 -z,y,-x
25 x,1/2+y,1/2+z
26 y,1/2-x,1/2-z
27 x,1/2-y,1/2-z
28 z,1/2+x,1/2+y
29 -x,1/2-y,1/2+z
30 -y,1/2-x,1/2+z
31 x,1/2-z,1/2-y
32 -y,1/2+x,1/2-z
33 -x,1/2+y,1/2-z
34 -z,1/2-x,1/2+y
35 y,1/2+x,1/2+z
36 -x,1/2+z,1/2-y
37 z,1/2-x,1/2-y
38 x,1/2+z,1/2+y
39 -z,1/2+x,1/2-y
40 -x,1/2-z,1/2+y
41 y,1/2+z,1/2+x
42 z,1/2-y,1/2-x
43 -z,1/2-y,1/2+x
44 y,1/2-z,1/2-x
45 z,1/2+y,1/2+x
46 -y,1/2+z,1/2-x
47 -y,1/2-z,1/2+x
48 -z,1/2+y,1/2-x
49 1/2+x,y,1/2+z
50 1/2+y,-x,1/2-z
51 1/2+x,-y,1/2-z
52 1/2+z,x,1/2+y
53 1/2-x,-y,1/2+z
54 1/2-y,-x,1/2+z
55 1/2+x,-z,1/2-y
56 1/2-y,x,1/2-z
57 1/2-x,y,1/2-z
58 1/2-z,-x,1/2+y
59 1/2+y,x,1/2+z
60 1/2-x,z,1/2-y
61 1/2+z,-x,1/2-y
62 1/2+x,z,1/2+y
63 1/2-z,x,1/2-y
64 1/2-x,-z,1/2+y
65 1/2+y,z,1/2+x
66 1/2+z,-y,1/2-x
67 1/2-z,-y,1/2+x
68 1/2+y,-z,1/2-x
69 1/2+z,y,1/2+x
70 1/2-y,z,1/2-x
71 1/2-y,-z,1/2+x
72 1/2-z,y,1/2-x
73 1/2+x,1/2+y,z
74 1/2+y,1/2-x,-z
75 1/2+x,1/2-y,-z
76 1/2+z,1/2+x,y
77 1/2-x,1/2-y,z
78 1/2-y,1/2-x,z
79 1/2+x,1/2-z,-y
80 1/2-y,1/2+x,-z
81 1/2-x,1/2+y,-z
82 1/2-z,1/2-x,y
83 1/2+y,1/2+x,z
84 1/2-x,1/2+z,-y
85 1/2+z,1/2-x,-y
86 1/2+x,1/2+z,y
87 1/2-z,1/2+x,-y
88 1/2-x,1/2-z,y
89 1/2+y,1/2+z,x
90 1/2+z,1/2-y,-x
91 1/2-z,1/2-y,x
92 1/2+y,1/2-z,-x
93 1/2+z,1/2+y,x
94 1/2-y,1/2+z,-x
95 1/2-y,1/2-z,x
96 1/2-z,1/2+y,-x
_cell_length_a                   20.3386(4)
_cell_length_b                   20.3386(4)
_cell_length_c                   20.3386(4)
_cell_angle_alpha                90
_cell_angle_beta                 90
_cell_angle_gamma                90
_cell_volume                     8413.24
loop_
_atom_site_label
_atom_site_type_symbol
_atom_site_fract_x
_atom_site_fract_y
_atom_site_fract_z
_atom_site_U_iso_or_equiv
_atom_site_thermal_displace_type
Cd1 Cd 0.17337(3) 0.17337(3) 0.32663(3) 0.0306 Uani
Cd2 Cd 0.2500 0.2500 0.7500 0.0208 Uani
Cd3 Cd 0.14400(3) 0.14400(3) 0.64400(3) 0.0347 Uani
O2 O 0.2500 0.2500 0.3609(5) 0.0373 Uani
O3 O 0.1998(9) 0.1998(9) 0.4370(18) 0.0743 Uani
O4 O 0.2298(7) 0.2298(7) 0.6453(10) 0.0637 Uani
O5 O 0.2145(8) 0.2145(8) 0.5818(10) 0.0630 Uani
N1 N 0.1829(7) 0.1829(7) 0.4371(9) 0.0273 Uani
N2 N 0.1691(6) 0.1691(6) 0.5443(8) 0.0373 Uani
C1 C 0.1444(8) 0.1444(8) 0.4879(9) 0.0340 Uani
H1 H 0.1124 0.1124 0.4818 0.0410 Uiso
C2 C 0.2241(7) 0.2241(7) 0.4671(10) 0.0320 Uani
C3 C 0.2181(9) 0.2181(9) 0.5337(14) 0.0497 Uani
C4 C 0.2634(6) 0.2634(6) 0.4205(11) 0.0303 Uani
C5 C 0.2500 0.2500 0.5891(8) 0.0413 Uani
Cd1JA Cd 0.32663(3) 0.32663(3) 0.32663(3) 0.0306 Uani
O2DA O 0.2500 0.1391(5) 0.2500 0.0373 Uani
O2JB O 0.1391(5) 0.2500 0.2500 0.0373 Uani
O3JB O 0.0630(18) 0.1998(9) 0.3002(9) 0.0743 Uani
O3DA O 0.1998(9) 0.0630(18) 0.3002(9) 0.0743 Uani
O3XB O 0.3002(9) 0.3002(9) 0.4370(18) 0.0743 Uani
O4F O 0.2298(7) 0.3547(10) 0.7702(7) 0.0637 Uani
O4N O 0.3547(10) 0.2298(7) 0.7702(7) 0.0637 Uani
O4Y O 0.2298(7) 0.2702(7) 0.8547(10) 0.0637 Uani
O4GA O 0.3547(10) 0.2702(7) 0.7298(7) 0.0637 Uani
O4KA O 0.2298(7) 0.1453(10) 0.7298(7) 0.0637 Uani
O4YA O 0.1453(10) 0.2298(7) 0.7298(7) 0.0637 Uani
O4CB O 0.2702(7) 0.2298(7) 0.8547(10) 0.0637 Uani
O4KB O 0.2702(7) 0.3547(10) 0.7298(7) 0.0637 Uani
O4XB O 0.2702(7) 0.2702(7) 0.6453(10) 0.0637 Uani
O4EC O 0.2702(7) 0.1453(10) 0.7702(7) 0.0637 Uani
O4FC O 0.1453(10) 0.2702(7) 0.7702(7) 0.0637 Uani
O5KA O 0.2145(8) 0.0818(10) 0.7145(8) 0.0630 Uani
O5YA O 0.0818(10) 0.2145(8) 0.7145(8) 0.0630 Uani
O5XB O 0.2855(8) 0.2855(8) 0.5818(10) 0.0630 Uani
N1DA N 0.1829(7) 0.0629(9) 0.3171(7) 0.0273 Uani
N1JB N 0.0629(9) 0.1829(7) 0.3171(7) 0.0273 Uani
N1XB N 0.3171(7) 0.3171(7) 0.4371(9) 0.0273 Uani
N2KA N 0.1691(6) 0.0443(8) 0.6691(6) 0.0373 Uani
N2YA N 0.0443(8) 0.1691(6) 0.6691(6) 0.0373 Uani
C2XB C 0.2759(7) 0.2759(7) 0.4671(10) 0.0320 Uani
C3XB C 0.2819(9) 0.2819(9) 0.5337(14) 0.0497 Uani
C4XB C 0.2366(6) 0.2366(6) 0.4205(11) 0.0303 Uani
S1 S 0.0000 0.0000 0.5000 0.0358 Uani
O1 O 0.04255(16) 0.04255(16) 0.45745(16) 0.2620 Uani
O1A O 0.04255(16) -0.04255(16) 0.54255(16) 0.2620 Uani
O1D O -0.04255(16) -0.04255(16) 0.45745(16) 0.2620 Uani
O1G O -0.04255(16) 0.04255(16) 0.54255(16) 0.2620 Uani
loop_
_atom_site_aniso_label
_atom_site_aniso_U_11
_atom_site_aniso_U_22
_atom_site_aniso_U_33
_atom_site_aniso_U_23
_atom_site_aniso_U_13
_atom_site_aniso_U_12
Cd1 0.0306(3) 0.0306(3) 0.0306(3) -0.0012(2) -0.0012(2) 0.0012(2)
Cd2 0.0208(4) 0.0208(4) 0.0208(4) 0.000 0.000 0.000
Cd3 0.0347(3) 0.0347(3) 0.0347(3) 0.0003(3) 0.0003(3) 0.0003(3)
O2 0.044(3) 0.044(3) 0.024(4) 0.000 0.000 -0.014(4)
O3 0.075 0.075 0.073 0.006 0.006 -0.033
O4 0.072(6) 0.072(6) 0.047(7) 0.006(5) 0.006(5) -0.028(7)
O5 0.076 0.076 0.037 0.001 0.001 -0.02
N1 0.035(5) 0.035(5) 0.012(5) 0.000(4) 0.000(4) -0.012(6)
N2 0.043(5) 0.043(5) 0.026(6) -0.001(4) -0.001(4) -0.009(7)
C1 0.038(5) 0.038(5) 0.026(7) -0.007(4) -0.007(4) 0.000(7)
C2 0.035(5) 0.035(5) 0.026(7) -0.002(4) -0.002(4) -0.007(7)
C3 0.053(6) 0.053(6) 0.043(9) -0.002(5) -0.002(5) -0.015(8)
C4 0.029(5) 0.029(5) 0.033(7) -0.002(4) -0.002(4) -0.009(6)
C5 0.046(5) 0.046(5) 0.032(6) 0.000 0.000 -0.012(6)
Cd1JA 0.0306 0.0306 0.0306 0.0012 0.0012 0.0012
O2DA 0.044 0.024 0.044 0 0.014 0
O2JB 0.024 0.044 0.044 0.014 0 0
O3JB 0.073 0.075 0.075 0.033 0.006 -0.006
O3DA 0.075 0.073 0.075 0.006 0.033 -0.006
O3XB 0.075(9) 0.075(9) 0.073(11) -0.006(6) -0.006(6) -0.033(8)
O4F 0.072 0.047 0.072 0.006 0.028 -0.006
O4N 0.047 0.072 0.072 0.028 0.006 -0.006
O4Y 0.072 0.072 0.047 0.006 -0.006 0.028
O4GA 0.047 0.072 0.072 0.028 -0.006 0.006
O4KA 0.072 0.047 0.072 0.006 -0.028 0.006
O4YA 0.047 0.072 0.072 -0.028 0.006 0.006
O4CB 0.072 0.072 0.047 -0.006 0.006 0.028
O4KB 0.072 0.047 0.072 -0.006 0.028 0.006
O4XB 0.072 0.072 0.047 -0.006 -0.006 -0.028
O4EC 0.072 0.047 0.072 -0.006 -0.028 -0.006
O4FC 0.047 0.072 0.072 -0.028 -0.006 -0.006
O5KA 0.076 0.037 0.076 0.001 -0.02 0.001
O5YA 0.037 0.076 0.076 -0.02 0.001 0.001
O5XB 0.076(6) 0.076(6) 0.037(7) -0.001(5) -0.001(5) -0.020(8)
N1DA 0.035 0.012 0.035 0 0.012 0
N1JB 0.012 0.035 0.035 0.012 0 0
N1XB 0.035 0.035 0.012 0 0 -0.012
N2KA 0.043 0.026 0.043 -0.001 -0.009 -0.001
N2YA 0.026 0.043 0.043 -0.009 -0.001 -0.001
C2XB 0.035 0.035 0.026 0.002 0.002 -0.007
C3XB 0.053 0.053 0.043 0.002 0.002 -0.015
C4XB 0.029 0.029 0.033 0.002 0.002 -0.009
S1 0.0358(16) 0.0358(16) 0.0358(16) 0.000 0.000 0.000
O1 0.262(10) 0.262(10) 0.262(10) 0.000(6) 0.000(6) 0.000(6)
O1A 0.262 0.262 0.262 0 0 0
O1D 0.262 0.262 0.262 0 0 0
O1G 0.262 0.262 0.262 0 0 0
loop_
_geom_bond_atom_site_label_1
_geom_bond_atom_site_label_2
_geom_bond_site_symmetry_1
_geom_bond_site_symmetry_2
S1 O1 1_555 1_555
Cd1 O2 1_555 1_555
Cd2 O4 1_555 1_555
Cd3 O4 1_555 1_555
O2 C4 1_555 1_555
O3 Cd1 1_555 1_555
O4 O5 1_555 1_555
O5 Cd3 1_555 1_555
N1 Cd1 1_555 1_555
N2 Cd3 1_555 1_555
C1 N1 1_555 1_555
H1 C1 1_555 1_555
C2 O3 1_555 1_555
C3 O5 1_555 1_555
C4 C2 1_555 1_555
C5 O4 1_555 1_555
O1A S1 1_555 1_555
O1D S1 1_555 1_555
O1G S1 1_555 1_555
Cd1JA O2 1_555 1_555
O2DA Cd1 1_555 1_555
O2JB Cd1 1_555 1_555
O3JB Cd1 1_555 1_555
O3DA Cd1 1_555 1_555
O3XB C4 1_555 1_555
O4F Cd2 1_555 1_555
O4N Cd2 1_555 1_555
O4Y Cd2 1_555 1_555
O4GA Cd2 1_555 1_555
O4KA Cd2 1_555 1_555
O4YA Cd2 1_555 1_555
O4CB Cd2 1_555 1_555
O4KB Cd2 1_555 1_555
O4XB Cd2 1_555 1_555
O4EC Cd2 1_555 1_555
O4FC Cd2 1_555 1_555
O5KA Cd3 1_555 1_555
O5YA Cd3 1_555 1_555
O5XB C5 1_555 1_555
N1DA Cd1 1_555 1_555
N1JB Cd1 1_555 1_555
N1XB C4 1_555 1_555
N2KA Cd3 1_555 1_555
N2YA Cd3 1_555 1_555
C2XB C2 1_555 1_555
C3XB C5 1_555 1_555
C4XB O2 1_555 1_555
Cd3 O4KA 1_555 1_555
Cd3 O4YA 1_555 1_555
O3 N1 1_555 1_555
O3 C4XB 1_555 1_555
O4 O4XB 1_555 1_555
O5 N2 1_555 1_555
O5 C5 1_555 1_555
N1 C2 1_555 1_555
N1 C4XB 1_555 1_555
N2 C1 1_555 1_555
N2 C3 1_555 1_555
C2 C3 1_555 1_555
C2 C4XB 1_555 1_555
C3 C5 1_555 1_555
C4 C2XB 1_555 1_555
C4 C4XB 1_555 1_555
C5 O4XB 1_555 1_555
Cd1JA O3XB 1_555 1_555
Cd1JA N1XB 1_555 1_555
O3JB N1JB 1_555 1_555
O3DA N1DA 1_555 1_555
O3XB N1XB 1_555 1_555
O3XB C2XB 1_555 1_555
O4F O4KB 1_555 1_555
O4N O4GA 1_555 1_555
O4Y O4CB 1_555 1_555
O4KA O4EC 1_555 1_555
O4KA O5KA 1_555 1_555
O4YA O4FC 1_555 1_555
O4YA O5YA 1_555 1_555
O4XB O5XB 1_555 1_555
O5KA N2KA 1_555 1_555
O5YA N2YA 1_555 1_555
O5XB C3XB 1_555 1_555
N1XB C2XB 1_555 1_555
C2XB C3XB 1_555 1_555
C2XB C4XB 1_555 1_555

#END
