
#######################################################################
#
#                 Cambridge Crystallographic Data Centre
#                                CCDC 
#
#######################################################################
#
# If this CIF has been generated from an entry in the Cambridge 
# Structural Database, then it will include bibliographic, chemical, 
# crystal, experimental, refinement or atomic coordinate data resulting 
# from the CCDC's data processing and validation procedures.
#
#######################################################################

data_MOYNIY
_chemical_formula_moiety         '(C46 H52 Cd2 O10)n'
_symmetry_cell_setting           monoclinic
_symmetry_space_group_name_H-M   'C 2/c'
_symmetry_Int_Tables_number      15
_space_group_name_Hall           '-C 2yc'
loop_
_symmetry_equiv_pos_site_id
_symmetry_equiv_pos_as_xyz
1 x,y,z
2 -x,y,1/2-z
3 1/2+x,1/2+y,z
4 1/2-x,1/2+y,1/2-z
5 -x,-y,-z
6 x,-y,1/2+z
7 1/2-x,1/2-y,-z
8 1/2+x,1/2-y,1/2+z
_cell_length_a                   20.5511(12)
_cell_length_b                   21.5004(13)
_cell_length_c                   14.0681(8)
_cell_angle_alpha                90
_cell_angle_beta                 130.5470(10)
_cell_angle_gamma                90
_cell_volume                     4723.44
loop_
_atom_site_label
_atom_site_type_symbol
_atom_site_fract_x
_atom_site_fract_y
_atom_site_fract_z
Cd1 Cd 1.0000 0.04131(2) 0.2500
Cd2 Cd 1.0000 0.0000 0.0000
O1 O 0.8725(3) -0.0222(2) 0.1446(4)
O2 O 0.9528(3) -0.04031(17) 0.0961(4)
O3 O 0.5882(3) -0.3824(2) -0.6080(4)
O4 O 0.4928(2) -0.41085(16) -0.5913(3)
O5 O 1.1378(3) -0.0199(3) 0.1739(4)
C1 C 0.8346(4) -0.1279(3) -0.0882(5)
H1 H 0.8750 -0.1125 -0.0924
C2 C 0.8288(4) -0.1042(3) -0.0013(5)
C3 C 0.7685(4) -0.1277(3) 0.0050(6)
H2 H 0.7649 -0.1111 0.0625
C4 C 0.7135(4) -0.1758(3) -0.0737(6)
H3 H 0.6745 -0.1923 -0.0677
C5 C 0.6020(4) -0.2851(3) -0.2893(6)
H4 H 0.5821 -0.2819 -0.2461
C6 C 0.5659(4) -0.3273(3) -0.3855(6)
H5 H 0.5221 -0.3532 -0.4061
C7 C 0.5944(3) -0.3317(3) -0.4527(5)
C8 C 0.6617(4) -0.2939(3) -0.4201(6)
H6 H 0.6814 -0.2968 -0.4636
C9 C 0.7744(6) -0.2076(5) -0.2673(10)
C10 C 0.7785(4) -0.1752(3) -0.1685(5)
C11 C 0.7184(4) -0.1987(3) -0.1621(5)
C12 C 0.6687(4) -0.2471(3) -0.2575(5)
C13 C 0.6988(4) -0.2520(3) -0.3223(6)
C14 C 0.8875(4) -0.0524(2) 0.0848(5)
C15 C 0.5567(3) -0.3777(2) -0.5568(5)
C16 C 0.8601(6) -0.2462(5) -0.2033(10)
H7 H 0.8538 -0.2693 -0.2681
H8 H 0.9067 -0.2169 -0.1679
C17 C 0.8841(6) -0.2888(5) -0.1075(10)
H9 H 0.8367 -0.3167 -0.1397
H10 H 0.8965 -0.2659 -0.0379
C18 C 0.9630(6) -0.3270(5) -0.0612(10)
H11 H 0.9768 -0.3558 0.0018
H12 H 1.0106 -0.2996 -0.0263
H13 H 0.9510 -0.3495 -0.1300
C19 C 0.7611(6) -0.1641(5) -0.3635(10)
H14 H 0.8098 -0.1362 -0.3211
H15 H 0.7599 -0.1886 -0.4225
C20 C 0.6850(6) -0.1277(5) -0.4314(10)
H16 H 0.6863 -0.1021 -0.3734
H17 H 0.6358 -0.1551 -0.4737
C21 C 0.6748(6) -0.0843(5) -0.5316(10)
H18 H 0.6232 -0.0603 -0.5747
H19 H 0.6717 -0.1096 -0.5906
H20 H 0.7231 -0.0569 -0.4900
C22 C 1.2128(9) -0.0317(7) 0.1907(14)
C23 C 1.2999(18) -0.0217(15) 0.283(3)
Cd1B Cd 0.5000 -0.45869(2) -0.7500
Cd1B_2 Cd 1.5000 0.54131(2) 1.2500
Cd2C Cd 0.5000 -0.5000 -0.5000
Cd2B Cd 1.5000 0.5000 1.0000
Cd2A Cd 1.0000 0.0000 0.5000
O1B O 1.3725(3) 0.4778(2) 1.1446(4)
O1A O 1.1275(3) -0.0222(2) 0.3554(4)
O2B O 1.4528(3) 0.45969(17) 1.0961(4)
O2A O 1.0472(3) -0.04031(17) 0.4039(4)
O2D O 1.0472(3) 0.04031(17) -0.0961(4)
O3B O 1.0882(3) 0.1176(2) 0.3920(4)
O3C O 0.9118(3) 0.1176(2) 0.1080(4)
O4B O 0.9928(2) 0.08915(16) 0.4087(3)
O4C O 1.0072(2) 0.08915(16) 0.0913(3)
O4G O 0.9928(2) -0.08915(16) -0.0913(3)
O5D O 0.8622(3) 0.0199(3) -0.1739(4)
C1B C 1.3346(4) 0.3721(3) 0.9118(5)
H1B H 1.3750 0.3875 0.9076
C2B C 1.3288(4) 0.3958(3) 0.9987(5)
C3B C 1.2685(4) 0.3723(3) 1.0050(6)
H2B H 1.2649 0.3889 1.0625
C4B C 1.2135(4) 0.3242(3) 0.9263(6)
H3B H 1.1745 0.3077 0.9323
C5B C 1.1020(4) 0.2149(3) 0.7107(6)
H4B H 1.0821 0.2181 0.7539
C6B C 1.0659(4) 0.1727(3) 0.6145(6)
H5B H 1.0221 0.1468 0.5939
C7B C 1.0944(3) 0.1683(3) 0.5473(5)
C8B C 1.1617(4) 0.2061(3) 0.5799(6)
H6B H 1.1814 0.2032 0.5364
C9B C 1.2744(6) 0.2924(5) 0.7327(10)
C10B C 1.2785(4) 0.3248(3) 0.8315(5)
C11B C 1.2184(4) 0.3013(3) 0.8379(5)
C12B C 1.1687(4) 0.2529(3) 0.7425(5)
C13B C 1.1988(4) 0.2480(3) 0.6777(6)
C14B C 1.3875(4) 0.4476(2) 1.0848(5)
C15B C 1.0567(3) 0.1223(2) 0.4432(5)
C16B C 1.3601(6) 0.2538(5) 0.7967(10)
H7B H 1.3538 0.2307 0.7319
H8B H 1.4067 0.2831 0.8321
C17B C 1.3841(6) 0.2112(5) 0.8925(10)
H9B H 1.3367 0.1833 0.8603
H10B H 1.3965 0.2341 0.9621
C18B C 1.4630(6) 0.1730(5) 0.9388(10)
H11B H 1.4768 0.1442 1.0018
H12B H 1.5106 0.2004 0.9737
H13B H 1.4510 0.1505 0.8700
C19B C 1.2611(6) 0.3359(5) 0.6365(10)
H14B H 1.3098 0.3638 0.6789
H15B H 1.2599 0.3114 0.5775
C20B C 1.1850(6) 0.3723(5) 0.5686(10)
H16B H 1.1863 0.3979 0.6266
H17B H 1.1358 0.3449 0.5263
C21B C 1.1748(6) 0.4157(5) 0.4684(10)
H18B H 1.1232 0.4397 0.4253
H19B H 1.1717 0.3904 0.4094
H20B H 1.2231 0.4431 0.5100
C22D C 0.7872(9) 0.0317(7) -0.1907(14)
C23D C 0.7001(18) 0.0217(15) -0.283(3)
loop_
_geom_bond_atom_site_label_1
_geom_bond_atom_site_label_2
_geom_bond_site_symmetry_1
_geom_bond_site_symmetry_2
Cd1 O1 1_555 1_555
Cd2 O2 1_555 1_555
O1 C14 1_555 1_555
O2 Cd1 1_555 1_555
O3 C15 1_555 1_555
O4 C15 1_555 1_555
O5 Cd2 1_555 1_555
C1 H1 1_555 1_555
C2 C1 1_555 1_555
C3 C2 1_555 1_555
H2 C3 1_555 1_555
C4 C3 1_555 1_555
H3 C4 1_555 1_555
C5 H4 1_555 1_555
C6 C5 1_555 1_555
H5 C6 1_555 1_555
C7 C6 1_555 1_555
C8 C7 1_555 1_555
H6 C8 1_555 1_555
C9 C10 1_555 1_555
C10 C1 1_555 1_555
C11 C4 1_555 1_555
C12 C5 1_555 1_555
C13 C8 1_555 1_555
C14 O2 1_555 1_555
C15 C7 1_555 1_555
C16 C9 1_555 1_555
H7 C16 1_555 1_555
H8 C16 1_555 1_555
C17 C16 1_555 1_555
H9 C17 1_555 1_555
H10 C17 1_555 1_555
C18 C17 1_555 1_555
H11 C18 1_555 1_555
H12 C18 1_555 1_555
H13 C18 1_555 1_555
C19 C9 1_555 1_555
H14 C19 1_555 1_555
H15 C19 1_555 1_555
C20 C19 1_555 1_555
H16 C20 1_555 1_555
H17 C20 1_555 1_555
C21 C20 1_555 1_555
H18 C21 1_555 1_555
H19 C21 1_555 1_555
H20 C21 1_555 1_555
C22 O5 1_555 1_555
C23 C22 1_555 1_555
Cd1B O3 1_555 1_555
Cd1B_2 O1B 1_555 1_555
Cd2C O4 1_555 1_555
Cd2B O2B 1_555 1_555
Cd2A O2A 1_555 1_555
O1B C14B 1_555 1_555
O1A Cd1 1_555 1_555
O2B Cd1B_2 1_555 1_555
O2A Cd1 1_555 1_555
O2D Cd2 1_555 1_555
O3B Cd1 1_555 1_555
O3C Cd1 1_555 1_555
O4B Cd1 1_555 1_555
O4C Cd1 1_555 1_555
O4G Cd2 1_555 1_555
O5D Cd2 1_555 1_555
C1B H1B 1_555 1_555
C2B C1B 1_555 1_555
C3B C2B 1_555 1_555
H2B C3B 1_555 1_555
C4B C3B 1_555 1_555
H3B C4B 1_555 1_555
C5B H4B 1_555 1_555
C6B C5B 1_555 1_555
H5B C6B 1_555 1_555
C7B C6B 1_555 1_555
C8B C7B 1_555 1_555
H6B C8B 1_555 1_555
C9B C10B 1_555 1_555
C10B C1B 1_555 1_555
C11B C4B 1_555 1_555
C12B C5B 1_555 1_555
C13B C8B 1_555 1_555
C14B O2B 1_555 1_555
C15B O3B 1_555 1_555
C16B C9B 1_555 1_555
H7B C16B 1_555 1_555
H8B C16B 1_555 1_555
C17B C16B 1_555 1_555
H9B C17B 1_555 1_555
H10B C17B 1_555 1_555
C18B C17B 1_555 1_555
H11B C18B 1_555 1_555
H12B C18B 1_555 1_555
H13B C18B 1_555 1_555
C19B C9B 1_555 1_555
H14B C19B 1_555 1_555
H15B C19B 1_555 1_555
C20B C19B 1_555 1_555
H16B C20B 1_555 1_555
H17B C20B 1_555 1_555
C21B C20B 1_555 1_555
H18B C21B 1_555 1_555
H19B C21B 1_555 1_555
H20B C21B 1_555 1_555
C22D O5D 1_555 1_555
C23D C22D 1_555 1_555
Cd2 O4C 1_555 1_555
O4 Cd1B 1_555 1_555
C2 C14 1_555 1_555
C9 C13 1_555 1_555
C10 C11 1_555 1_555
C11 C12 1_555 1_555
C12 C13 1_555 1_555
Cd2A O4B 1_555 1_555
O4B C15B 1_555 1_555
C2B C14B 1_555 1_555
C7B C15B 1_555 1_555
C9B C13B 1_555 1_555
C10B C11B 1_555 1_555
C11B C12B 1_555 1_555
C12B C13B 1_555 1_555

#END
