
#######################################################################
#
#                 Cambridge Crystallographic Data Centre
#                                CCDC 
#
#######################################################################
#
# If this CIF has been generated from an entry in the Cambridge 
# Structural Database, then it will include bibliographic, chemical, 
# crystal, experimental, refinement or atomic coordinate data resulting 
# from the CCDC's data processing and validation procedures.
#
#######################################################################

data_MOYNEU
_chemical_formula_moiety         '(C42 H40 O8 Zn2)n'
_symmetry_cell_setting           orthorhombic
_symmetry_space_group_name_H-M   'P n n a'
_symmetry_Int_Tables_number      52
_space_group_name_Hall           '-P 2a 2bc'
loop_
_symmetry_equiv_pos_site_id
_symmetry_equiv_pos_as_xyz
1 x,y,z
2 1/2-x,-y,z
3 x,1/2-y,1/2-z
4 1/2-x,1/2+y,1/2-z
5 -x,-y,-z
6 1/2+x,y,-z
7 -x,1/2+y,1/2+z
8 1/2+x,1/2-y,1/2+z
_cell_length_a                   16.429(5)
_cell_length_b                   11.675(5)
_cell_length_c                   20.934(5)
_cell_angle_alpha                90
_cell_angle_beta                 90
_cell_angle_gamma                90
_cell_volume                     4015.32
loop_
_atom_site_label
_atom_site_type_symbol
_atom_site_fract_x
_atom_site_fract_y
_atom_site_fract_z
Zn1 Zn 0.2500 0.5000 0.67305(5)
Zn2 Zn 0.23031(13) 0.2500 0.7500
O1 O 0.2053(5) 0.3932(8) 0.6094(3)
O2 O 0.2240(5) 0.2257(8) 0.6584(3)
O3 O -0.1766(5) 0.1093(8) 0.2332(3)
O4 O -0.1508(4) -0.0795(8) 0.2421(3)
C1 C 0.1107(5) 0.2937(8) 0.5162(4)
H1 H 0.1059 0.3726 0.5209
C2 C 0.1580(5) 0.2296(8) 0.5582(3)
C3 C 0.1697(6) 0.1138(9) 0.5509(4)
H2 H 0.2016 0.0748 0.5804
C4 C 0.1347(6) 0.0527(9) 0.4999(5)
H3 H 0.1441 -0.0250 0.4933
C5 C 0.0232(8) -0.0329(11) 0.3808(5)
H4 H 0.0532 -0.0944 0.3965
C6 C -0.0343(8) -0.0453(15) 0.3319(6)
H5 H -0.0429 -0.1174 0.3143
C7 C -0.0796(7) 0.0488(15) 0.3086(5)
C8 C -0.0670(6) 0.1581(14) 0.3326(5)
H6 H -0.0948 0.2205 0.3156
C9 C 0.0114(7) 0.2833(10) 0.4175(5)
C10 C 0.0708(5) 0.2366(8) 0.4670(4)
C11 C 0.0843(6) 0.1186(9) 0.4594(4)
C12 C 0.0327(6) 0.0802(11) 0.4047(4)
C13 C -0.0113(6) 0.1727(11) 0.3832(4)
C14 C 0.1987(5) 0.2862(8) 0.6129(3)
C15 C -0.1421(7) 0.0281(12) 0.2527(7)
C16 C -0.0609(7) 0.3502(11) 0.4493(6)
H7 H -0.0391 0.4130 0.4743
H8 H -0.0950 0.3825 0.4161
C17 C -0.1117(8) 0.2757(12) 0.4915(7)
H9 H -0.0768 0.2318 0.5198
H10 H -0.1428 0.2224 0.4657
C18 C -0.1716(8) 0.3523(13) 0.5324(7)
H11 H -0.2037 0.3042 0.5597
H12 H -0.2068 0.3944 0.5043
H13 H -0.1407 0.4049 0.5579
C19 C 0.0521(11) 0.3708(16) 0.3732(7)
H14 H 0.0122 0.3981 0.3426
H15 H 0.0699 0.4359 0.3983
C20 C 0.1223(11) 0.3237(17) 0.3384(7)
H16 H 0.1070 0.2546 0.3156
H17 H 0.1661 0.3053 0.3677
C21 C 0.1506(10) 0.4226(17) 0.2887(7)
H18 H 0.1954 0.3951 0.2636
H19 H 0.1671 0.4894 0.3121
H20 H 0.1060 0.4417 0.2611
Zn1F Zn -0.2500 0.0000 0.17305(5)
Zn1F_2 Zn 0.7500 1.0000 0.17305(5)
Zn2E Zn -0.26969(13) 0.2500 0.2500
Zn2D Zn -0.23031(13) -0.2500 0.2500
Zn2A Zn 0.26969(13) 0.7500 0.7500
Zn2D_2 Zn 0.76969(13) 0.7500 0.2500
Zn2E_2 Zn 0.73031(13) 1.2500 0.2500
O1A O 0.2947(5) 0.6068(8) 0.6094(3)
O2A O 0.2760(5) 0.7743(8) 0.6584(3)
O2B O 0.2240(5) 0.2743(8) 0.8416(3)
O3A O 0.6766(5) 0.8907(8) 0.2332(3)
O3F O 0.1766(5) 0.6093(8) 0.7332(3)
O3G O 0.3234(5) 0.3907(8) 0.7332(3)
O3E O 0.3234(5) 0.1093(8) 0.7668(3)
O4A O 0.6508(4) 1.0795(8) 0.2421(3)
O4F O 0.1508(4) 0.4205(8) 0.7421(3)
O4G O 0.3492(4) 0.5795(8) 0.7421(3)
O4D O 0.1508(4) 0.0795(8) 0.7579(3)
C1A C 0.3893(5) 0.7063(8) 0.5162(4)
H1A H 0.3941 0.6274 0.5209
C2A C 0.3420(5) 0.7704(8) 0.5582(3)
C3A C 0.3303(6) 0.8862(9) 0.5509(4)
H2A H 0.2984 0.9252 0.5804
C4A C 0.3653(6) 0.9473(9) 0.4999(5)
H3A H 0.3559 1.0250 0.4933
C5A C 0.4768(8) 1.0329(11) 0.3808(5)
H4A H 0.4468 1.0944 0.3965
C6A C 0.5343(8) 1.0453(15) 0.3319(6)
H5A H 0.5429 1.1174 0.3143
C7A C 0.5796(7) 0.9512(15) 0.3086(5)
C8A C 0.5670(6) 0.8419(14) 0.3326(5)
H6A H 0.5948 0.7795 0.3156
C9A C 0.4886(7) 0.7167(10) 0.4175(5)
C10A C 0.4292(5) 0.7634(8) 0.4670(4)
C11A C 0.4157(6) 0.8814(9) 0.4594(4)
C12A C 0.4673(6) 0.9198(11) 0.4047(4)
C13A C 0.5113(6) 0.8273(11) 0.3832(4)
C14A C 0.3013(5) 0.7138(8) 0.6129(3)
C15A C 0.6421(7) 0.9719(12) 0.2527(7)
C16A C 0.5609(7) 0.6498(11) 0.4493(6)
H7A H 0.5391 0.5870 0.4743
H8A H 0.5950 0.6175 0.4161
C17A C 0.6117(8) 0.7243(12) 0.4915(7)
H9A H 0.5768 0.7682 0.5198
H10A H 0.6428 0.7776 0.4657
C18A C 0.6716(8) 0.6477(13) 0.5324(7)
H11A H 0.7037 0.6958 0.5597
H12A H 0.7068 0.6056 0.5043
H13A H 0.6407 0.5951 0.5579
C19A C 0.4479(11) 0.6292(16) 0.3732(7)
H14A H 0.4878 0.6019 0.3426
H15A H 0.4301 0.5641 0.3983
C20A C 0.3777(11) 0.6763(17) 0.3384(7)
H16A H 0.3930 0.7454 0.3156
H17A H 0.3339 0.6947 0.3677
C21A C 0.3494(10) 0.5774(17) 0.2887(7)
H18A H 0.3046 0.6049 0.2636
H19A H 0.3329 0.5106 0.3121
H20A H 0.3940 0.5583 0.2611
loop_
_geom_bond_atom_site_label_1
_geom_bond_atom_site_label_2
_geom_bond_site_symmetry_1
_geom_bond_site_symmetry_2
Zn1 O1 1_555 1_555
Zn2 O2 1_555 1_555
O1 C14 1_555 1_555
O2 C14 1_555 1_555
O3 C15 1_555 1_555
O4 C15 1_555 1_555
C1 H1 1_555 1_555
C2 C1 1_555 1_555
C3 C2 1_555 1_555
H2 C3 1_555 1_555
C4 C3 1_555 1_555
H3 C4 1_555 1_555
C5 H4 1_555 1_555
C6 C5 1_555 1_555
H5 C6 1_555 1_555
C7 C6 1_555 1_555
C8 C7 1_555 1_555
H6 C8 1_555 1_555
C9 C10 1_555 1_555
C10 C1 1_555 1_555
C11 C4 1_555 1_555
C12 C5 1_555 1_555
C13 C8 1_555 1_555
C14 C2 1_555 1_555
C15 C7 1_555 1_555
C16 C9 1_555 1_555
H7 C16 1_555 1_555
H8 C16 1_555 1_555
C17 C16 1_555 1_555
H9 C17 1_555 1_555
H10 C17 1_555 1_555
C18 C17 1_555 1_555
H11 C18 1_555 1_555
H12 C18 1_555 1_555
H13 C18 1_555 1_555
C19 C9 1_555 1_555
H14 C19 1_555 1_555
H15 C19 1_555 1_555
C20 C19 1_555 1_555
H16 C20 1_555 1_555
H17 C20 1_555 1_555
C21 C20 1_555 1_555
H18 C21 1_555 1_555
H19 C21 1_555 1_555
H20 C21 1_555 1_555
Zn1F O3 1_555 1_555
Zn1F_2 O3A 1_555 1_555
Zn2E O3 1_555 1_555
Zn2D O4 1_555 1_555
Zn2A O2A 1_555 1_555
Zn2D_2 O3A 1_555 1_555
Zn2E_2 O4A 1_555 1_555
O1A Zn1 1_555 1_555
O2A C14A 1_555 1_555
O2B Zn2 1_555 1_555
O3A C15A 1_555 1_555
O3F Zn1 1_555 1_555
O3G Zn1 1_555 1_555
O3E Zn2 1_555 1_555
O4A Zn1F_2 1_555 1_555
O4F Zn1 1_555 1_555
O4G Zn1 1_555 1_555
O4D Zn2 1_555 1_555
C1A H1A 1_555 1_555
C2A C1A 1_555 1_555
C3A C2A 1_555 1_555
H2A C3A 1_555 1_555
C4A C3A 1_555 1_555
H3A C4A 1_555 1_555
C5A H4A 1_555 1_555
C6A C5A 1_555 1_555
H5A C6A 1_555 1_555
C7A C6A 1_555 1_555
C8A C7A 1_555 1_555
H6A C8A 1_555 1_555
C9A C10A 1_555 1_555
C10A C1A 1_555 1_555
C11A C4A 1_555 1_555
C12A C5A 1_555 1_555
C13A C8A 1_555 1_555
C14A O1A 1_555 1_555
C15A O4A 1_555 1_555
C16A C9A 1_555 1_555
H7A C16A 1_555 1_555
H8A C16A 1_555 1_555
C17A C16A 1_555 1_555
H9A C17A 1_555 1_555
H10A C17A 1_555 1_555
C18A C17A 1_555 1_555
H11A C18A 1_555 1_555
H12A C18A 1_555 1_555
H13A C18A 1_555 1_555
C19A C9A 1_555 1_555
H14A C19A 1_555 1_555
H15A C19A 1_555 1_555
C20A C19A 1_555 1_555
H16A C20A 1_555 1_555
H17A C20A 1_555 1_555
C21A C20A 1_555 1_555
H18A C21A 1_555 1_555
H19A C21A 1_555 1_555
H20A C21A 1_555 1_555
Zn2 O3G 1_555 1_555
Zn2 O4F 1_555 1_555
O4 Zn1F 1_555 1_555
C9 C13 1_555 1_555
C10 C11 1_555 1_555
C11 C12 1_555 1_555
C12 C13 1_555 1_555
Zn2A O3F 1_555 1_555
Zn2A O4G 1_555 1_555
C2A C14A 1_555 1_555
C7A C15A 1_555 1_555
C9A C13A 1_555 1_555
C10A C11A 1_555 1_555
C11A C12A 1_555 1_555
C12A C13A 1_555 1_555

#END
