
#######################################################################
#
#                 Cambridge Crystallographic Data Centre
#                                CCDC 
#
#######################################################################
#
# If this CIF has been generated from an entry in the Cambridge 
# Structural Database, then it will include bibliographic, chemical, 
# crystal, experimental, refinement or atomic coordinate data resulting 
# from the CCDC's data processing and validation procedures.
#
#######################################################################

data_RUVMAX
_chemical_formula_moiety         '(C39 H38 N12 O16 Zn3)n'
_symmetry_cell_setting           monoclinic
_symmetry_space_group_name_H-M   'C 2/c'
_symmetry_Int_Tables_number      15
_space_group_name_Hall           '-C 2yc'
loop_
_symmetry_equiv_pos_site_id
_symmetry_equiv_pos_as_xyz
1 x,y,z
2 -x,y,1/2-z
3 1/2+x,1/2+y,z
4 1/2-x,1/2+y,1/2-z
5 -x,-y,-z
6 x,-y,1/2+z
7 1/2-x,1/2-y,-z
8 1/2+x,1/2-y,1/2+z
_cell_length_a                   18.206(4)
_cell_length_b                   18.320(4)
_cell_length_c                   14.765(3)
_cell_angle_alpha                90
_cell_angle_beta                 92.16(3)
_cell_angle_gamma                90
_cell_volume                     4921.13
loop_
_atom_site_label
_atom_site_type_symbol
_atom_site_fract_x
_atom_site_fract_y
_atom_site_fract_z
_atom_site_U_iso_or_equiv
_atom_site_thermal_displace_type
Zn1 Zn 0.17266(5) 0.23850(5) 0.22551(6) 0.0209 Uani
Zn2 Zn 0.5000 0.11826(6) 0.2500 0.0190 Uani
O1 O 0.1842(3) 0.2209(3) 0.3759(3) 0.0252 Uani
O2 O 0.2583(3) 0.1656(3) 0.4769(4) 0.0246 Uani
H1 H 0.301(7) 0.143(6) 0.491(8) 0.1000 Uiso
O3 O 0.4800(3) 0.1114(3) 0.3916(3) 0.0230 Uani
O4 O 0.3864(3) 0.1180(3) 0.4836(3) 0.0266 Uani
O5 O 0.6550(3) -0.3810(3) 0.2198(4) 0.0266 Uani
O6 O 0.5674(3) -0.4634(3) 0.2395(4) 0.0379 Uani
H2 H 0.5000 -0.463(8) 0.2500 0.1000 Uiso
O7 O 0.1883(3) 0.3499(3) 0.2406(4) 0.0271 Uani
N1 N 0.2847(3) 0.2133(3) 0.2437(4) 0.0223 Uani
N2 N 0.3992(3) 0.1652(3) 0.2489(4) 0.0187 Uani
N3 N 0.3414(3) 0.2463(3) -0.0829(4) 0.0216 Uani
N4 N 0.5604(3) -0.2679(3) 0.2432(4) 0.0195 Uani
N5 N 0.5000 0.0058(4) 0.2500 0.0210 Uani
N6 N 0.2312(4) 0.4513(4) 0.3123(5) 0.0384 Uani
C1 C 0.3459(4) 0.1985(4) 0.1977(5) 0.0182 Uani
C2 C 0.3012(4) 0.1880(4) 0.3295(5) 0.0209 Uani
C3 C 0.3697(4) 0.1597(4) 0.3338(5) 0.0190 Uani
C4 C 0.2442(4) 0.1921(4) 0.3976(5) 0.0218 Uani
C5 C 0.4148(4) 0.1272(4) 0.4089(5) 0.0198 Uani
C6 C 0.3644(4) 0.1813(4) -0.0517(5) 0.0229 Uani
H3 H 0.3779 0.1458 -0.0929 0.1000 Uiso
C7 C 0.3685(4) 0.1657(4) 0.0375(5) 0.0269 Uani
H4 H 0.3843 0.1196 0.0562 0.1000 Uiso
C8 C 0.3499(4) 0.2164(4) 0.1015(5) 0.0230 Uani
C9 C 0.3292(4) 0.2848(4) 0.0694(5) 0.0227 Uani
H5 H 0.3174 0.3216 0.1097 0.1000 Uiso
C10 C 0.3262(4) 0.2979(4) -0.0225(5) 0.0228 Uani
H6 H 0.3132 0.3442 -0.0432 0.1000 Uiso
C11 C 0.5000 -0.2274(5) 0.2500 0.0183 Uani
C12 C 0.5380(4) -0.3379(4) 0.2444(5) 0.0222 Uani
C13 C 0.5902(4) -0.3970(4) 0.2344(5) 0.0241 Uani
C14 C 0.5239(4) -0.0332(4) 0.3231(5) 0.0244 Uani
H7 H 0.5392 -0.0079 0.3750 0.1000 Uiso
C15 C 0.5269(4) -0.1083(4) 0.3248(5) 0.0213 Uani
H8 H 0.5465 -0.1328 0.3754 0.1000 Uiso
C16 C 0.5000 -0.1467(5) 0.2500 0.0155 Uani
C17 C 0.2169(4) 0.3817(5) 0.3057(6) 0.0309 Uani
H9 H 0.2298 0.3531 0.3559 0.1000 Uiso
C18 C 0.2629(8) 0.4857(6) 0.3926(7) 0.0766 Uani
H10 H 0.2691 0.5369 0.3816 0.1000 Uiso
H11 H 0.3098 0.4640 0.4076 0.1000 Uiso
H12 H 0.2308 0.4790 0.4421 0.1000 Uiso
C19 C 0.2121(7) 0.4985(6) 0.2381(10) 0.0838 Uani
H13 H 0.2257 0.5477 0.2535 0.1000 Uiso
H14 H 0.1600 0.4962 0.2253 0.1000 Uiso
H15 H 0.2376 0.4834 0.1855 0.1000 Uiso
Zn1A Zn 0.82734(5) 0.23850(5) 0.27449(6) 0.0209 Uani
Zn1B Zn 0.67266(5) -0.26150(5) 0.22551(6) 0.0209 Uani
Zn1F Zn 0.32734(5) 0.26150(5) -0.22551(6) 0.0209 Uani
Zn1C Zn 0.32734(5) -0.26150(5) 0.27449(6) 0.0209 Uani
Zn1G Zn 0.67266(5) 0.26150(5) 0.72551(6) 0.0209 Uani
O1A O 0.8158(3) 0.2209(3) 0.1241(3) 0.0252 Uani
O2A O 0.7417(3) 0.1656(3) 0.0231(4) 0.0246 Uani
H1A H 0.699(7) 0.143(6) 0.009(8) 0.1000 Uiso
O3A O 0.5200(3) 0.1114(3) 0.1084(3) 0.0230 Uani
O4A O 0.6136(3) 0.1180(3) 0.0164(3) 0.0266 Uani
O5A O 0.3450(3) -0.3810(3) 0.2802(4) 0.0266 Uani
O5B O 0.1550(3) 0.1190(3) 0.2198(4) 0.0266 Uani
O5C O 0.8450(3) 0.1190(3) 0.2802(4) 0.0266 Uani
O6A O 0.4326(3) -0.4634(3) 0.2605(4) 0.0379 Uani
O7A O 0.8117(3) 0.3499(3) 0.2594(4) 0.0271 Uani
N1A N 0.7153(3) 0.2133(3) 0.2563(4) 0.0223 Uani
N2A N 0.6008(3) 0.1652(3) 0.2511(4) 0.0187 Uani
N3A N 0.6586(3) 0.2463(3) 0.5829(4) 0.0216 Uani
N3F N 0.1586(3) 0.2537(3) 0.0829(4) 0.0216 Uani
N3G N 0.8414(3) 0.2537(3) 0.4171(4) 0.0216 Uani
N4A N 0.4396(3) -0.2679(3) 0.2568(4) 0.0195 Uani
N4B N 0.0604(3) 0.2321(3) 0.2432(4) 0.0195 Uani
N4C N 0.9396(3) 0.2321(3) 0.2568(4) 0.0195 Uani
N6A N 0.7688(4) 0.4513(4) 0.1877(5) 0.0384 Uani
C1A C 0.6541(4) 0.1985(4) 0.3023(5) 0.0182 Uani
C2A C 0.6988(4) 0.1880(4) 0.1705(5) 0.0209 Uani
C3A C 0.6303(4) 0.1597(4) 0.1662(5) 0.0190 Uani
C4A C 0.7558(4) 0.1921(4) 0.1024(5) 0.0218 Uani
C5A C 0.5852(4) 0.1272(4) 0.0911(5) 0.0198 Uani
C6A C 0.6356(4) 0.1813(4) 0.5517(5) 0.0229 Uani
H3A H 0.6221 0.1458 0.5929 0.1000 Uiso
C7A C 0.6315(4) 0.1657(4) 0.4625(5) 0.0269 Uani
H4A H 0.6157 0.1196 0.4438 0.1000 Uiso
C8A C 0.6501(4) 0.2164(4) 0.3985(5) 0.0230 Uani
C9A C 0.6708(4) 0.2848(4) 0.4306(5) 0.0227 Uani
H5A H 0.6826 0.3216 0.3903 0.1000 Uiso
C10A C 0.6738(4) 0.2979(4) 0.5225(5) 0.0228 Uani
H6A H 0.6868 0.3442 0.5432 0.1000 Uiso
C12A C 0.4620(4) -0.3379(4) 0.2556(5) 0.0222 Uani
C13A C 0.4098(4) -0.3970(4) 0.2656(5) 0.0241 Uani
C14A C 0.4761(4) -0.0332(4) 0.1769(5) 0.0244 Uani
H7A H 0.4608 -0.0079 0.1250 0.1000 Uiso
C15A C 0.4731(4) -0.1083(4) 0.1752(5) 0.0213 Uani
H8A H 0.4535 -0.1328 0.1246 0.1000 Uiso
C17A C 0.7831(4) 0.3817(5) 0.1943(6) 0.0309 Uani
H9A H 0.7702 0.3531 0.1441 0.1000 Uiso
C18A C 0.7371(8) 0.4857(6) 0.1074(7) 0.0766 Uani
H10A H 0.7309 0.5369 0.1184 0.1000 Uiso
H11A H 0.6902 0.4640 0.0924 0.1000 Uiso
H12A H 0.7692 0.4790 0.0579 0.1000 Uiso
C19A C 0.7879(7) 0.4985(6) 0.2619(10) 0.0838 Uani
H13A H 0.7743 0.5477 0.2465 0.1000 Uiso
H14A H 0.8400 0.4962 0.2747 0.1000 Uiso
H15A H 0.7624 0.4834 0.3145 0.1000 Uiso
O8 O 0.0604(5) 0.0745(5) 1.0142(7) 0.0991 Uani
N7 N -0.0288(6) 0.1405(6) 0.9412(8) 0.0839 Uani
C20 C 0.0124(11) 0.0841(9) 0.9501(11) 0.1219 Uani
H16 H 0.0070 0.0475 0.9067 0.1000 Uiso
C21 C -0.0803(8) 0.1442(6) 0.8693(9) 0.0839 Uani
H17 H -0.1081 0.1885 0.8736 0.1000 Uiso
H18 H -0.1128 0.1031 0.8716 0.1000 Uiso
H19 H -0.0555 0.1436 0.8131 0.1000 Uiso
C22 C -0.0268(7) 0.2011(6) 1.0008(9) 0.0839 Uani
H20 H -0.0628 0.2364 0.9805 0.1000 Uiso
H21 H 0.0212 0.2229 1.0013 0.1000 Uiso
H22 H -0.0374 0.1852 1.0608 0.1000 Uiso
O9 O 0.1681(10) 0.0302(10) 0.9015(13) 0.1009 Uani
loop_
_atom_site_aniso_label
_atom_site_aniso_U_11
_atom_site_aniso_U_22
_atom_site_aniso_U_33
_atom_site_aniso_U_23
_atom_site_aniso_U_13
_atom_site_aniso_U_12
Zn1 0.0136(5) 0.0272(5) 0.0220(5) 0.0038(4) 0.0035(4) 0.0014(4)
Zn2 0.0129(6) 0.0235(7) 0.0206(7) 0.000 0.0012(5) 0.000
O1 0.019(3) 0.032(3) 0.025(3) 0.003(2) 0.005(2) 0.006(2)
O2 0.023(3) 0.033(3) 0.018(3) 0.004(2) 0.005(2) 0.008(2)
O3 0.019(3) 0.027(3) 0.023(3) -0.004(2) -0.001(2) 0.000(2)
O4 0.026(3) 0.040(3) 0.014(3) 0.000(2) 0.004(2) 0.004(2)
O5 0.021 0.033 0.026 0.003 0.003 0.007
O6 0.026 0.028 0.061 0.002 0.02 0.002
O7 0.019(3) 0.029(3) 0.033(4) 0.003(3) -0.002(3) -0.004(2)
N1 0.015(3) 0.025(4) 0.027(4) 0.007(3) 0.003(3) 0.000(3)
N2 0.015(3) 0.025(3) 0.016(4) -0.001(3) 0.000(3) -0.001(3)
N3 0.010(3) 0.035(4) 0.020(4) 0.001(3) 0.004(3) 0.002(3)
N4 0.014 0.018 0.027 0.005 0.006 0.004
N5 0.019 0.019 0.025 0 0.001 0
N6 0.035(4) 0.026(4) 0.055(5) 0.002(4) 0.011(4) -0.008(3)
C1 0.013(4) 0.025(4) 0.017(4) -0.002(3) 0.005(3) 0.002(3)
C2 0.023(4) 0.030(4) 0.010(4) 0.010(3) 0.004(3) 0.002(3)
C3 0.018(4) 0.019(4) 0.020(4) -0.001(3) 0.000(3) 0.003(3)
C4 0.019(4) 0.027(4) 0.020(5) -0.004(3) 0.007(3) -0.001(3)
C5 0.017(4) 0.019(4) 0.023(4) -0.003(3) -0.005(3) 0.002(3)
C6 0.015(4) 0.031(5) 0.023(5) -0.001(4) 0.004(3) 0.006(3)
C7 0.019(4) 0.039(5) 0.023(5) 0.010(4) 0.004(3) 0.003(3)
C8 0.013(4) 0.040(5) 0.016(4) 0.001(4) 0.001(3) -0.002(3)
C9 0.014(4) 0.032(5) 0.022(5) 0.000(4) 0.001(3) 0.003(3)
C10 0.017(4) 0.030(4) 0.022(5) -0.010(3) 0.007(3) -0.004(3)
C11 0.01 0.022 0.023 0 0.002 0
C12 0.017 0.02 0.03 0.002 0.006 0.002
C13 0.017 0.029 0.027 0.006 0.009 0.001
C14 0.023 0.026 0.024 0.003 -0.001 -0.004
C15 0.019 0.024 0.021 0.002 0.001 -0.002
C16 0.009 0.023 0.015 0 0.008 0
C17 0.027(5) 0.035(5) 0.031(5) 0.001(4) 0.007(4) -0.005(4)
C18 0.130(12) 0.051(7) 0.050(7) -0.013(6) 0.019(7) -0.044(7)
C19 0.073(8) 0.037(6) 0.137(12) 0.027(7) -0.054(8) -0.013(6)
Zn1A 0.0136 0.0272 0.022 -0.0038 0.0035 -0.0014
Zn1B 0.0136 0.0272 0.022 0.0038 0.0035 0.0014
Zn1F 0.0136 0.0272 0.022 0.0038 0.0035 0.0014
Zn1C 0.0136 0.0272 0.022 -0.0038 0.0035 -0.0014
Zn1G 0.0136 0.0272 0.022 -0.0038 0.0035 -0.0014
O1A 0.019 0.032 0.025 -0.003 0.005 -0.006
O2A 0.023 0.033 0.018 -0.004 0.005 -0.008
O3A 0.019 0.027 0.023 0.004 -0.001 0
O4A 0.026 0.04 0.014 0 0.004 -0.004
O5A 0.021 0.033 0.026 -0.003 0.003 -0.007
O5B 0.021(3) 0.033(3) 0.026(3) 0.003(3) 0.003(2) 0.007(2)
O5C 0.021 0.033 0.026 -0.003 0.003 -0.007
O6A 0.026 0.028 0.061 -0.002 0.02 -0.002
O7A 0.019 0.029 0.033 -0.003 -0.002 0.004
N1A 0.015 0.025 0.027 -0.007 0.003 0
N2A 0.015 0.025 0.016 0.001 0 0.001
N3A 0.01 0.035 0.02 -0.001 0.004 -0.002
N3F 0.01 0.035 0.02 0.001 0.004 0.002
N3G 0.01 0.035 0.02 -0.001 0.004 -0.002
N4A 0.014 0.018 0.027 -0.005 0.006 -0.004
N4B 0.014(3) 0.018(3) 0.027(4) 0.005(3) 0.006(3) 0.004(3)
N4C 0.014 0.018 0.027 -0.005 0.006 -0.004
N6A 0.035 0.026 0.055 -0.002 0.011 0.008
C1A 0.013 0.025 0.017 0.002 0.005 -0.002
C2A 0.023 0.03 0.01 -0.01 0.004 -0.002
C3A 0.018 0.019 0.02 0.001 0 -0.003
C4A 0.019 0.027 0.02 0.004 0.007 0.001
C5A 0.017 0.019 0.023 0.003 -0.005 -0.002
C6A 0.015 0.031 0.023 0.001 0.004 -0.006
C7A 0.019 0.039 0.023 -0.01 0.004 -0.003
C8A 0.013 0.04 0.016 -0.001 0.001 0.002
C9A 0.014 0.032 0.022 0 0.001 -0.003
C10A 0.017 0.03 0.022 0.01 0.007 0.004
C12A 0.017 0.02 0.03 -0.002 0.006 -0.002
C13A 0.017 0.029 0.027 -0.006 0.009 -0.001
C14A 0.023 0.026 0.024 -0.003 -0.001 0.004
C15A 0.019 0.024 0.021 -0.002 0.001 0.002
C17A 0.027 0.035 0.031 -0.001 0.007 0.005
C18A 0.13 0.051 0.05 0.013 0.019 0.044
C19A 0.073 0.037 0.137 -0.027 -0.054 0.013
O8 0.101(7) 0.074(6) 0.121(9) 0.016(6) -0.013(7) -0.013(5)
N7 0.104(6) 0.055(4) 0.090(6) -0.003(4) -0.033(4) -0.002(4)
C20 0.166(18) 0.101(13) 0.093(13) 0.002(10) -0.069(12) -0.026(12)
C21 0.104(6) 0.055(4) 0.090(6) -0.003(4) -0.033(4) -0.002(4)
C22 0.104(6) 0.055(4) 0.090(6) -0.003(4) -0.033(4) -0.002(4)
O9 0.091(14) 0.100(14) 0.109(16) -0.006(11) -0.031(11) -0.009(11)
loop_
_geom_bond_atom_site_label_1
_geom_bond_atom_site_label_2
_geom_bond_site_symmetry_1
_geom_bond_site_symmetry_2
Zn1 O1 1_555 1_555
Zn2 O3 1_555 1_555
O1 C4 1_555 1_555
O2 H1 1_555 1_555
O3 C5 1_555 1_555
O4 C5 1_555 1_555
O5 C13 1_555 1_555
O6 H2 1_555 1_555
H2 O6A 1_555 1_555
O7 Zn1 1_555 1_555
N1 Zn1 1_555 1_555
N2 Zn2 1_555 1_555
N3 C6 1_555 1_555
N4 C11 1_555 1_555
N5 Zn2 1_555 1_555
N6 C17 1_555 1_555
C1 N1 1_555 1_555
C2 N1 1_555 1_555
C3 N2 1_555 1_555
C4 O2 1_555 1_555
C5 C3 1_555 1_555
C6 H3 1_555 1_555
C7 C6 1_555 1_555
H4 C7 1_555 1_555
C8 C1 1_555 1_555
C9 C8 1_555 1_555
H5 C9 1_555 1_555
C10 N3 1_555 1_555
H6 C10 1_555 1_555
C11 C16 1_555 1_555
C12 N4 1_555 1_555
C13 O6 1_555 1_555
C14 N5 1_555 1_555
H7 C14 1_555 1_555
C15 C14 1_555 1_555
H8 C15 1_555 1_555
C16 C15 1_555 1_555
C17 O7 1_555 1_555
H9 C17 1_555 1_555
C18 N6 1_555 1_555
H10 C18 1_555 1_555
H11 C18 1_555 1_555
H12 C18 1_555 1_555
C19 N6 1_555 1_555
H13 C19 1_555 1_555
H14 C19 1_555 1_555
H15 C19 1_555 1_555
O8 C20 1_555 1_555
N7 C20 1_555 1_555
C20 H16 1_555 1_555
C21 N7 1_555 1_555
H17 C21 1_555 1_555
H18 C21 1_555 1_555
H19 C21 1_555 1_555
C22 N7 1_555 1_555
H20 C22 1_555 1_555
H21 C22 1_555 1_555
H22 C22 1_555 1_555
Zn1A O1A 1_555 1_555
Zn1B O5 1_555 1_555
Zn1F N3 1_555 1_555
Zn1C O5A 1_555 1_555
Zn1G N3A 1_555 1_555
O1A C4A 1_555 1_555
O2A H1A 1_555 1_555
O3A Zn2 1_555 1_555
O4A C5A 1_555 1_555
O5A C13A 1_555 1_555
O5B Zn1 1_555 1_555
O5C Zn1A 1_555 1_555
O6A C13A 1_555 1_555
O7A Zn1A 1_555 1_555
N1A Zn1A 1_555 1_555
N2A Zn2 1_555 1_555
N3A C6A 1_555 1_555
N3F Zn1 1_555 1_555
N3G Zn1A 1_555 1_555
N4A C11 1_555 1_555
N4B Zn1 1_555 1_555
N4C Zn1A 1_555 1_555
N6A C17A 1_555 1_555
C1A N1A 1_555 1_555
C2A N1A 1_555 1_555
C3A N2A 1_555 1_555
C4A O2A 1_555 1_555
C5A O3A 1_555 1_555
C6A H3A 1_555 1_555
C7A C6A 1_555 1_555
H4A C7A 1_555 1_555
C8A C1A 1_555 1_555
C9A C8A 1_555 1_555
H5A C9A 1_555 1_555
C10A N3A 1_555 1_555
H6A C10A 1_555 1_555
C12A C12 1_555 1_555
C13A C12A 1_555 1_555
C14A N5 1_555 1_555
H7A C14A 1_555 1_555
C15A C16 1_555 1_555
H8A C15A 1_555 1_555
C17A O7A 1_555 1_555
H9A C17A 1_555 1_555
C18A N6A 1_555 1_555
H10A C18A 1_555 1_555
H11A C18A 1_555 1_555
H12A C18A 1_555 1_555
C19A N6A 1_555 1_555
H13A C19A 1_555 1_555
H14A C19A 1_555 1_555
H15A C19A 1_555 1_555
N2 C1 1_555 1_555
N4 Zn1B 1_555 1_555
C2 C3 1_555 1_555
C2 C4 1_555 1_555
C7 C8 1_555 1_555
C9 C10 1_555 1_555
C12 C13 1_555 1_555
Zn1C N4A 1_555 1_555
N2A C1A 1_555 1_555
N4A C12A 1_555 1_555
C2A C3A 1_555 1_555
C2A C4A 1_555 1_555
C3A C5A 1_555 1_555
C7A C8A 1_555 1_555
C9A C10A 1_555 1_555
C14A C15A 1_555 1_555

#END
