
#######################################################################
#
#                 Cambridge Crystallographic Data Centre
#                                CCDC 
#
#######################################################################
#
# If this CIF has been generated from an entry in the Cambridge 
# Structural Database, then it will include bibliographic, chemical, 
# crystal, experimental, refinement or atomic coordinate data resulting 
# from the CCDC's data processing and validation procedures.
#
#######################################################################

data_ZISYAD
_chemical_formula_moiety         '(C45 H32 Cu2 I2 N4)n'
_symmetry_cell_setting           tetragonal
_symmetry_space_group_name_H-M   'I -4 2 d'
_symmetry_Int_Tables_number      122
_space_group_name_Hall           'I -4 2bw'
loop_
_symmetry_equiv_pos_site_id
_symmetry_equiv_pos_as_xyz
1 x,y,z
2 x,1/2-y,1/4-z
3 -x,-y,z
4 -x,1/2+y,1/4-z
5 1/2-y,-x,3/4+z
6 -y,x,-z
7 y,-x,-z
8 1/2+y,x,3/4+z
9 1/2+x,1/2+y,1/2+z
10 1/2+x,-y,3/4-z
11 1/2-x,1/2-y,1/2+z
12 1/2-x,y,3/4-z
13 -y,1/2-x,1/4+z
14 1/2-y,1/2+x,1/2-z
15 1/2+y,1/2-x,1/2-z
16 y,1/2+x,1/4+z
_cell_length_a                   27.0500(12)
_cell_length_b                   27.0500(12)
_cell_length_c                   7.1110(3)
_cell_angle_alpha                90
_cell_angle_beta                 90
_cell_angle_gamma                90
_cell_volume                     5203.14
loop_
_atom_site_label
_atom_site_type_symbol
_atom_site_fract_x
_atom_site_fract_y
_atom_site_fract_z
I1 I 0.19693(3) 0.2500 0.1250
Cu1 Cu 0.2500 0.19980(4) -0.1250
N1 N 0.2988(3) 0.1581(2) 0.0296(10)
C1 C 0.3232(4) 0.1192(4) -0.0416(15)
H1 H 0.3167 0.1091 -0.1672
C2 C 0.3580(4) 0.0930(4) 0.0651(13)
H2 H 0.3762 0.0666 0.0107
C3 C 0.3653(3) 0.1061(3) 0.2497(10)
C4 C 0.3381(5) 0.1442(5) 0.3190(16)
H3 H 0.3430 0.1542 0.4457
C5 C 0.3035(6) 0.1688(5) 0.2113(17)
H4 H 0.2831 0.1933 0.2669
C6 C 0.3999(2) 0.0794(2) 0.3776(12)
C7 C 0.4260(3) 0.1047(3) 0.5163(10)
H5 H 0.4215 0.1393 0.5290
C8 C 0.4578(3) 0.0807(2) 0.6347(13)
H6 H 0.4751 0.0989 0.7280
C9 C 0.4651(2) 0.0298(2) 0.6202(11)
C10 C 0.4399(2) 0.0050(3) 0.4768(9)
H7 H 0.4455 -0.0295 0.4609
C11 C 0.4075(3) 0.0285(2) 0.3580(11)
H8 H 0.3904 0.0104 0.2637
C12 C 0.5000 0.0000 0.7500
N1B N 0.7012(3) -0.1581(2) 0.0296(10)
C1B C 0.6768(4) -0.1192(4) -0.0416(15)
H1B H 0.6833 -0.1091 -0.1672
C2B C 0.6420(4) -0.0930(4) 0.0651(13)
H2B H 0.6238 -0.0666 0.0107
C3B C 0.6347(3) -0.1061(3) 0.2497(10)
C4B C 0.6619(5) -0.1442(5) 0.3190(16)
H3B H 0.6570 -0.1542 0.4457
C5B C 0.6965(6) -0.1688(5) 0.2113(17)
H4B H 0.7169 -0.1933 0.2669
C6B C 0.6001(2) -0.0794(2) 0.3776(12)
C7B C 0.5740(3) -0.1047(3) 0.5163(10)
H5B H 0.5785 -0.1393 0.5290
C8B C 0.5422(3) -0.0807(2) 0.6347(13)
H6B H 0.5249 -0.0989 0.7280
C9B C 0.5349(2) -0.0298(2) 0.6202(11)
C10B C 0.5601(2) -0.0050(3) 0.4768(9)
H7B H 0.5545 0.0295 0.4609
C11B C 0.5925(3) -0.0285(2) 0.3580(11)
H8B H 0.6096 -0.0104 0.2637
N1M N 0.3419(2) -0.2012(3) 1.4704(10)
C1M C 0.3808(4) -0.1768(4) 1.5416(15)
H1M H 0.3909 -0.1833 1.6672
C2M C 0.4070(4) -0.1420(4) 1.4349(13)
H2M H 0.4334 -0.1238 1.4893
C3M C 0.3939(3) -0.1347(3) 1.2503(10)
C4M C 0.3558(5) -0.1619(5) 1.1810(16)
H3M H 0.3458 -0.1570 1.0543
C5M C 0.3312(5) -0.1965(6) 1.2887(17)
H4M H 0.3067 -0.2169 1.2331
C6M C 0.4206(2) -0.1001(2) 1.1224(12)
C7M C 0.3953(3) -0.0740(3) 0.9837(10)
H5M H 0.3607 -0.0785 0.9710
C8M C 0.4193(2) -0.0422(3) 0.8653(13)
H6M H 0.4011 -0.0249 0.7720
C9M C 0.4702(2) -0.0349(2) 0.8798(11)
C10M C 0.4950(3) -0.0601(2) 1.0232(9)
H7M H 0.5295 -0.0545 1.0391
C11M C 0.4715(2) -0.0925(3) 1.1420(11)
H8M H 0.4896 -0.1096 1.2363
N1N N 0.6581(2) 0.2012(3) 1.4704(10)
C1N C 0.6192(4) 0.1768(4) 1.5416(15)
H1N H 0.6091 0.1833 1.6672
C2N C 0.5930(4) 0.1420(4) 1.4349(13)
H2N H 0.5666 0.1238 1.4893
C3N C 0.6061(3) 0.1347(3) 1.2503(10)
C4N C 0.6442(5) 0.1619(5) 1.1810(16)
H3N H 0.6542 0.1570 1.0543
C5N C 0.6688(5) 0.1965(6) 1.2887(17)
H4N H 0.6933 0.2169 1.2331
C6N C 0.5794(2) 0.1001(2) 1.1224(12)
C7N C 0.6047(3) 0.0740(3) 0.9837(10)
H5N H 0.6393 0.0785 0.9710
C8N C 0.5807(2) 0.0422(3) 0.8653(13)
H6N H 0.5989 0.0249 0.7720
C9N C 0.5298(2) 0.0349(2) 0.8798(11)
C10N C 0.5050(3) 0.0601(2) 1.0232(9)
H7N H 0.4705 0.0545 1.0391
C11N C 0.5285(2) 0.0925(3) 1.1420(11)
H8N H 0.5104 0.1096 1.2363
Cu1A Cu 0.2500 0.30020(4) 0.3750
I1J I 0.30307(3) 0.2500 -0.3750
I1J_2 I 0.30307(3) 0.2500 0.6250
Cu1A_2 Cu 0.2500 0.30020(4) -0.6250
Cu1B Cu 0.7500 -0.19980(4) -0.1250
Cu1D Cu 0.30020(4) -0.2500 1.6250
Cu1G Cu 0.69980(4) 0.2500 1.6250
N1A N 0.2988(3) 0.3419(2) 0.2204(10)
N1J N 0.2012(3) 0.3419(2) 0.5296(10)
N1K N 0.2012(3) 0.1581(2) -0.2796(10)
loop_
_geom_bond_atom_site_label_1
_geom_bond_atom_site_label_2
_geom_bond_site_symmetry_1
_geom_bond_site_symmetry_2
I1 Cu1 1_555 1_555
Cu1 N1 1_555 1_555
N1 C1 1_555 1_555
C1 H1 1_555 1_555
C2 C1 1_555 1_555
H2 C2 1_555 1_555
C3 C2 1_555 1_555
C4 C3 1_555 1_555
H3 C4 1_555 1_555
C5 N1 1_555 1_555
H4 C5 1_555 1_555
C6 C3 1_555 1_555
C7 C6 1_555 1_555
H5 C7 1_555 1_555
C8 C7 1_555 1_555
H6 C8 1_555 1_555
C9 C8 1_555 1_555
C10 C9 1_555 1_555
H7 C10 1_555 1_555
C11 C6 1_555 1_555
H8 C11 1_555 1_555
C12 C9 1_555 1_555
N1B C1B 1_555 1_555
C1B H1B 1_555 1_555
C2B C1B 1_555 1_555
H2B C2B 1_555 1_555
C3B C2B 1_555 1_555
C4B C3B 1_555 1_555
H3B C4B 1_555 1_555
C5B N1B 1_555 1_555
H4B C5B 1_555 1_555
C6B C3B 1_555 1_555
C7B C6B 1_555 1_555
H5B C7B 1_555 1_555
C8B C7B 1_555 1_555
H6B C8B 1_555 1_555
C9B C12 1_555 1_555
C10B C9B 1_555 1_555
H7B C10B 1_555 1_555
C11B C6B 1_555 1_555
H8B C11B 1_555 1_555
N1M C1M 1_555 1_555
C1M H1M 1_555 1_555
C2M C1M 1_555 1_555
H2M C2M 1_555 1_555
C3M C2M 1_555 1_555
C4M C3M 1_555 1_555
H3M C4M 1_555 1_555
C5M N1M 1_555 1_555
H4M C5M 1_555 1_555
C6M C3M 1_555 1_555
C7M C6M 1_555 1_555
H5M C7M 1_555 1_555
C8M C7M 1_555 1_555
H6M C8M 1_555 1_555
C9M C12 1_555 1_555
C10M C9M 1_555 1_555
H7M C10M 1_555 1_555
C11M C6M 1_555 1_555
H8M C11M 1_555 1_555
N1N C1N 1_555 1_555
C1N H1N 1_555 1_555
C2N C1N 1_555 1_555
H2N C2N 1_555 1_555
C3N C2N 1_555 1_555
C4N C3N 1_555 1_555
H3N C4N 1_555 1_555
C5N N1N 1_555 1_555
H4N C5N 1_555 1_555
C6N C3N 1_555 1_555
C7N C6N 1_555 1_555
H5N C7N 1_555 1_555
C8N C7N 1_555 1_555
H6N C8N 1_555 1_555
C9N C12 1_555 1_555
C10N C9N 1_555 1_555
H7N C10N 1_555 1_555
C11N C6N 1_555 1_555
H8N C11N 1_555 1_555
Cu1A I1 1_555 1_555
I1J Cu1 1_555 1_555
I1J_2 Cu1A 1_555 1_555
Cu1A_2 I1J 1_555 1_555
Cu1B N1B 1_555 1_555
Cu1D N1M 1_555 1_555
Cu1G N1N 1_555 1_555
N1A Cu1A 1_555 1_555
N1J Cu1A 1_555 1_555
N1K Cu1 1_555 1_555
C4 C5 1_555 1_555
C10 C11 1_555 1_555
C4B C5B 1_555 1_555
C8B C9B 1_555 1_555
C10B C11B 1_555 1_555
C4M C5M 1_555 1_555
C8M C9M 1_555 1_555
C10M C11M 1_555 1_555
C4N C5N 1_555 1_555
C8N C9N 1_555 1_555
C10N C11N 1_555 1_555

#END
