
#######################################################################
#
#                 Cambridge Crystallographic Data Centre
#                                CCDC 
#
#######################################################################
#
# If this CIF has been generated from an entry in the Cambridge 
# Structural Database, then it will include bibliographic, chemical, 
# crystal, experimental, refinement or atomic coordinate data resulting 
# from the CCDC's data processing and validation procedures.
#
#######################################################################

data_QAMHAQ
_chemical_formula_moiety         '(C30 H18 N4 O8 Zn2)n'
_symmetry_cell_setting           monoclinic
_symmetry_space_group_name_H-M   'P 21/m'
_symmetry_Int_Tables_number      11
_space_group_name_Hall           '-P 2yb'
loop_
_symmetry_equiv_pos_site_id
_symmetry_equiv_pos_as_xyz
1 x,y,z
2 -x,1/2+y,-z
3 -x,-y,-z
4 x,1/2-y,z
_cell_length_a                   16.235(8)
_cell_length_b                   9.365(5)
_cell_length_c                   16.264(8)
_cell_angle_alpha                90
_cell_angle_beta                 116.786(7)
_cell_angle_gamma                90
_cell_volume                     2207.45
loop_
_atom_site_label
_atom_site_type_symbol
_atom_site_fract_x
_atom_site_fract_y
_atom_site_fract_z
Zn1 Zn 0.29943(5) 0.42944(8) -0.29942(5)
C1 C -0.0951(5) 0.2500 0.0969(5)
C2 C -0.0015(5) 0.2500 0.1424(5)
C3 C -0.1421(5) 0.2500 -0.0007(6)
C4 C 0.0588(5) 0.2500 -0.0574(5)
C5 C 0.0484(5) 0.2500 0.0913(5)
C6 C -0.2443(5) 0.2500 -0.0510(5)
C7 C 0.0479(5) 0.2500 0.2431(5)
C8 C 0.0045(5) 0.2500 -0.0049(5)
C9 C -0.0906(5) 0.2500 -0.0498(5)
C10 C -0.4340(6) 0.2500 -0.1534(6)
C11 C 0.1552(6) 0.2500 0.4343(7)
O1 O -0.5765(3) 0.3655(7) -0.2328(6)
C12 C -0.5367(6) 0.2500 -0.2110(6)
C13 C 0.2094(6) 0.2500 0.5374(6)
C14 C 0.1592(6) 0.2500 -0.1595(6)
C15 C 0.1345(6) 0.3750(7) -0.1333(6)
H1 H 0.1511 0.4615 -0.1497
C16 C 0.0851(6) 0.3747(7) -0.0828(6)
H2 H 0.0694 0.4613 -0.0657
C17 C 0.2142(6) 0.2500 -0.2146(6)
C18 C -0.2874(8) 0.3624(17) -0.1151(11)
H3 H -0.2527 0.4309 -0.1269
C19 C 0.1133(10) 0.3689(13) 0.2881(8)
H4 H 0.1232 0.4373 0.2520
C20 C -0.3857(9) 0.3663(17) -0.1605(12)
H5 H -0.4167 0.4461 -0.1943
C21 C 0.1605(11) 0.3793(19) 0.3843(11)
H6 H 0.1925 0.4609 0.4144
N1 N -0.1334(11) 0.2500 -0.1451(14)
C22 C 0.2994(4) 0.7500 -0.2998(4)
O2 O 0.3220(15) 0.6362(17) -0.1644(11)
N2 N 0.3059(8) 0.6299(12) -0.3173(9)
N3 N 0.3137(14) 0.7500 -0.1964(12)
C23 C 0.4220(13) 0.6819(18) -0.2852(15)
O3 O 0.2343(5) 0.3695(6) -0.2336(5)
O4 O 0.2319(5) 0.3652(7) 0.5771(4)
O1C O -0.5765(3) 0.1345(7) -0.2328(6)
C15C C 0.1345(6) 0.1250(7) -0.1333(6)
H1C H 0.1511 0.0385 -0.1497
C16C C 0.0851(6) 0.1253(7) -0.0828(6)
H2C H 0.0694 0.0387 -0.0657
C18C C -0.2874(8) 0.1376(17) -0.1151(11)
H3C H -0.2527 0.0691 -0.1269
C19C C 0.1133(10) 0.1311(13) 0.2881(8)
H4C H 0.1232 0.0627 0.2520
C20C C -0.3857(9) 0.1337(17) -0.1605(12)
H5C H -0.4167 0.0539 -0.1943
C21C C 0.1605(11) 0.1207(19) 0.3843(11)
H6C H 0.1925 0.0391 0.4144
O3C O 0.2343(5) 0.1305(6) -0.2336(5)
O4C O 0.2319(5) 0.1348(7) 0.5771(4)
O2C O 0.3220(15) 0.8638(17) -0.1644(11)
N2C N 0.3059(8) 0.8701(12) -0.3173(9)
C23C C 0.4220(13) 0.8181(18) -0.2852(15)
Zn1C Zn 0.29943(5) 0.07056(8) -0.29942(5)
Zn1_2 Zn -0.70057(5) 0.42944(8) -0.29942(5)
Zn1_3 Zn 0.29943(5) 0.42944(8) 0.70058(5)
Zn1C_2 Zn -0.70057(5) 0.07056(8) -0.29942(5)
Zn1C_3 Zn 0.29943(5) 0.07056(8) 0.70058(5)
Zn1C_4 Zn 0.29943(5) 1.07056(8) -0.29942(5)
O1_2 O 0.4235(3) 0.3655(7) -0.2328(6)
O1C_2 O 0.4235(3) 0.1345(7) -0.2328(6)
N2C_2 N 0.3059(8) -0.1299(12) -0.3173(9)
O4_2 O 0.2319(5) 0.3652(7) -0.4229(4)
O4C_2 O 0.2319(5) 0.1348(7) -0.4229(4)
loop_
_geom_bond_atom_site_label_1
_geom_bond_atom_site_label_2
_geom_bond_site_symmetry_1
_geom_bond_site_symmetry_2
Zn1 N2 1_555 1_555
C1 C2 1_555 1_555
C2 C5 1_555 1_555
C3 C1 1_555 1_555
C4 C8 1_555 1_555
C5 C8 1_555 1_555
C6 C3 1_555 1_555
C7 C2 1_555 1_555
C8 C9 1_555 1_555
C9 C3 1_555 1_555
C10 C12 1_555 1_555
C11 C13 1_555 1_555
O1 C12 1_555 1_555
C12 O1C 1_555 1_555
C13 O4 1_555 1_555
C14 C15 1_555 1_555
C15 H1 1_555 1_555
C16 C4 1_555 1_555
H2 C16 1_555 1_555
C17 C14 1_555 1_555
C18 C6 1_555 1_555
H3 C18 1_555 1_555
C19 C7 1_555 1_555
H4 C19 1_555 1_555
C20 C10 1_555 1_555
H5 C20 1_555 1_555
C21 C11 1_555 1_555
H6 C21 1_555 1_555
N1 C9 1_555 1_555
C22 N2 1_555 1_555
O2 N3 1_555 1_555
N2 C23 1_555 1_555
N3 C22 1_555 1_555
C23 C23C 1_555 1_555
O3 Zn1 1_555 1_555
O4 Zn1_3 1_555 1_555
O1C Zn1C_2 1_555 1_555
C15C C14 1_555 1_555
H1C C15C 1_555 1_555
C16C C4 1_555 1_555
H2C C16C 1_555 1_555
C18C C6 1_555 1_555
H3C C18C 1_555 1_555
C19C C7 1_555 1_555
H4C C19C 1_555 1_555
C20C C10 1_555 1_555
H5C C20C 1_555 1_555
C21C C11 1_555 1_555
H6C C21C 1_555 1_555
O3C C17 1_555 1_555
O4C C13 1_555 1_555
O2C N3 1_555 1_555
N2C C22 1_555 1_555
C23C N2C 1_555 1_555
Zn1C O3C 1_555 1_555
Zn1_2 O1 1_555 1_555
Zn1C_3 O4C 1_555 1_555
Zn1C_4 N2C 1_555 1_555
O1_2 Zn1 1_555 1_555
O1C_2 Zn1C 1_555 1_555
N2C_2 Zn1C 1_555 1_555
O4_2 Zn1 1_555 1_555
O4C_2 Zn1C 1_555 1_555
C15 C16 1_555 1_555
C17 O3 1_555 1_555
C18 C20 1_555 1_555
C19 C21 1_555 1_555
C15C C16C 1_555 1_555
C18C C20C 1_555 1_555
C19C C21C 1_555 1_555

#END
