
#######################################################################
#
#                 Cambridge Crystallographic Data Centre
#                                CCDC 
#
#######################################################################
#
# If this CIF has been generated from an entry in the Cambridge 
# Structural Database, then it will include bibliographic, chemical, 
# crystal, experimental, refinement or atomic coordinate data resulting 
# from the CCDC's data processing and validation procedures.
#
#######################################################################

data_TEQVOC
_chemical_formula_moiety         'C61 H65 Ba7 O38 Zn9'
_symmetry_cell_setting           monoclinic
_symmetry_space_group_name_H-M   'C m'
_symmetry_Int_Tables_number      8
_space_group_name_Hall           'C -2y'
loop_
_symmetry_equiv_pos_site_id
_symmetry_equiv_pos_as_xyz
1 x,y,z
2 x,-y,z
3 1/2+x,1/2+y,z
4 1/2+x,1/2-y,z
_cell_length_a                   18.1400(10)
_cell_length_b                   31.2496(19)
_cell_length_c                   6.8627(4)
_cell_angle_alpha                90
_cell_angle_beta                 106.350(6)
_cell_angle_gamma                90
_cell_volume                     3732.92
loop_
_atom_site_label
_atom_site_type_symbol
_atom_site_fract_x
_atom_site_fract_y
_atom_site_fract_z
Ba1 Ba 0.687041(17) 0.295776(9) 1.18308(3)
Zn1 Zn 0.74191(3) 0.369171(19) 0.82235(9)
Zn2 Zn 0.81381(3) 0.266064(19) 0.82009(8)
O1 O 0.7026(2) 0.38552(11) 1.1915(7)
O2 O 0.7520(2) 0.42190(13) 0.9808(6)
O3 O 0.7859(3) 0.38881(17) 0.6032(7)
H1 H 0.8101 0.4128 0.6363
H2 H 0.7497 0.3926 0.4913
O4 O 0.79513(19) 0.31901(11) 0.9577(5)
O5 O 0.7268(2) 0.24360(13) 1.6015(6)
O6 O 0.6589(2) 0.25860(14) 1.8166(6)
O7 O 0.3326(2) 0.18264(14) 1.4199(7)
O8 O 0.3953(2) 0.22211(13) 1.6867(6)
O9 O 0.5308(3) 0.2769(3) 1.0122(9)
H3 H 0.5023 0.2996 1.0143
H4 H 0.5159 0.2562 1.0805
O10 O 0.6284(2) 0.32863(14) 1.4693(6)
O11 O 0.6321(2) 0.35756(14) 1.7674(6)
O12 O 0.3745(2) 0.27100(12) 1.0437(6)
O13 O 0.2770(2) 0.27295(13) 1.1795(7)
C1 C 0.7182(3) 0.41962(18) 1.1208(8)
C2 C 0.6947(4) 0.46155(15) 1.1942(10)
C3 C 0.7211(5) 0.5000 1.1371(11)
H5 H 0.7562 0.5000 1.0611
C4 C 0.6413(3) 0.46201(18) 1.3049(8)
H6 H 0.6235 0.4362 1.3416
C5 C 0.6138(5) 0.5000 1.3621(12)
C6 C 0.5532(5) 0.5000 1.4781(14)
C7 C 0.4780(8) 0.5161(5) 1.338(2)
H10 H 0.5904 0.5539 1.6392
C9 C 0.5807(10) 0.5305(7) 1.668(3)
H13 H 0.6231 0.5176 1.7666
H14 H 0.5391 0.5351 1.7263
C10 C 0.6652(3) 0.24129(17) 1.6607(8)
C11 C 0.5995(3) 0.21627(17) 1.5347(8)
C12 C 0.5292(3) 0.22002(18) 1.5765(8)
H16 H 0.5238 0.2395 1.6739
C13 C 0.4671(3) 0.19525(17) 1.4759(8)
C14 C 0.3917(3) 0.20055(17) 1.5280(8)
C15 C 0.4755(3) 0.16541(18) 1.3331(8)
H17 H 0.4341 0.1481 1.2692
C16 C 0.5445(3) 0.16081(18) 1.2833(8)
C17 C 0.5538(4) 0.1281(2) 1.1321(11)
C18 C 0.4803(7) 0.1206(4) 0.9644(16)
H18 H 0.4559 0.1476 0.9205
H19 H 0.4920 0.1067 0.8520
H20 H 0.4463 0.1029 1.0143
C19 C 0.5754(7) 0.0865(4) 1.2407(17)
H21 H 0.5453 0.0822 1.3338
H22 H 0.5660 0.0635 1.1438
H23 H 0.6290 0.0870 1.3143
C20 C 0.6160(7) 0.1402(4) 1.0328(17)
H24 H 0.6644 0.1428 1.1351
H25 H 0.6198 0.1185 0.9371
H26 H 0.6032 0.1671 0.9635
C21 C 0.6061(3) 0.18709(18) 1.3841(8)
H27 H 0.6523 0.1852 1.3508
C22 C 0.5958(3) 0.34150(18) 1.5936(9)
C23 C 0.5098(3) 0.33915(18) 1.5475(8)
C24 C 0.4689(3) 0.31440(17) 1.3896(8)
H28 H 0.4944 0.2995 1.3109
C25 C 0.3890(3) 0.31140(18) 1.3458(8)
C26 C 0.3429(3) 0.28304(19) 1.1801(8)
C27 C 0.3524(3) 0.33482(17) 1.4657(8)
H29 H 0.2994 0.3327 1.4384
C28 C 0.3920(3) 0.36084(18) 1.6226(9)
C29 C 0.4729(3) 0.36240(18) 1.6646(8)
H30 H 0.5015 0.3791 1.7714
C30 C 0.3504(3) 0.3889(2) 1.7390(11)
C31 C 0.2798(5) 0.3674(3) 1.7722(15)
H31 H 0.2928 0.3388 1.8216
H32 H 0.2622 0.3833 1.8699
H33 H 0.2399 0.3663 1.6460
C32 C 0.3239(5) 0.4291(3) 1.6127(14)
H34 H 0.2825 0.4220 1.4954
H35 H 0.3066 0.4499 1.6929
H36 H 0.3659 0.4407 1.5703
C33 C 0.4005(5) 0.4023(3) 1.9477(14)
H37 H 0.4420 0.4198 1.9326
H38 H 0.3702 0.4182 2.0169
H39 H 0.4209 0.3773 2.0253
Ba1A Ba 0.687041(17) 0.704224(9) 1.18308(3)
Ba1_2 Ba 0.687041(17) 0.295776(9) 2.18308(3)
Ba1C Ba 0.187041(17) 0.204224(9) 1.18308(3)
Ba1_3 Ba 0.687041(17) 0.295776(9) 0.18308(3)
Ba1C_2 Ba 0.187041(17) 0.204224(9) 0.18308(3)
Ba1C_3 Ba 1.187041(17) 0.204224(9) 1.18308(3)
Zn1A Zn 0.74191(3) 0.630829(19) 0.82235(9)
Zn1_2 Zn 0.74191(3) 0.369171(19) 1.82235(9)
Zn1C Zn 1.24191(3) 0.130829(19) 1.82235(9)
Zn2_2 Zn 0.81381(3) 0.266064(19) 1.82009(8)
Zn2C Zn 0.31381(3) 0.233936(19) 1.82009(8)
Zn2C_2 Zn 0.31381(3) 0.233936(19) 0.82009(8)
Zn2A Zn 0.81381(3) 0.733936(19) 0.82009(8)
O1A O 0.7026(2) 0.61448(11) 1.1915(7)
O2A O 0.7520(2) 0.57810(13) 0.9808(6)
O3A O 0.7859(3) 0.61119(17) 0.6032(7)
H1A H 0.8101 0.5872 0.6363
H2A H 0.7497 0.6074 0.4913
O4A O 0.79513(19) 0.68099(11) 0.9577(5)
O4_2 O 0.79513(19) 0.31901(11) 1.9577(5)
O5_2 O 0.7268(2) 0.24360(13) 0.6015(6)
O5A O 0.7268(2) 0.75640(13) 1.6015(6)
O6_2 O 0.6589(2) 0.25860(14) 0.8166(6)
O6A O 0.6589(2) 0.74140(14) 0.8166(6)
O7_2 O 0.3326(2) 0.18264(14) 0.4199(7)
O7C O 0.8326(2) 0.31736(14) 1.4199(7)
O7B O 0.8326(2) 0.68264(14) 1.4199(7)
O8_2 O 0.3953(2) 0.22211(13) 0.6867(6)
O8C O 0.8953(2) 0.27789(13) 0.6867(6)
O8C_2 O 0.8953(2) 0.27789(13) 1.6867(6)
O9A O 0.5308(3) 0.7231(3) 1.0122(9)
H3A H 0.5023 0.7004 1.0143
H4A H 0.5159 0.7438 1.0805
O10C O 1.1284(2) 0.17137(14) 1.4693(6)
O10A O 0.6284(2) 0.67137(14) 1.4693(6)
O11C O 1.1321(2) 0.14244(14) 1.7674(6)
O11_2 O 0.6321(2) 0.35756(14) 0.7674(6)
O11A O 0.6321(2) 0.64244(14) 0.7674(6)
O12C O 0.8745(2) 0.22900(12) 1.0437(6)
O12C_2 O 0.8745(2) 0.22900(12) 2.0437(6)
O13C O 0.7770(2) 0.22705(13) 1.1795(7)
O13B O 0.7770(2) 0.77295(13) 1.1795(7)
C1A C 0.7182(3) 0.58038(18) 1.1208(8)
C2A C 0.6947(4) 0.53845(15) 1.1942(10)
C4A C 0.6413(3) 0.53799(18) 1.3049(8)
H6A H 0.6235 0.5638 1.3416
C7A C 0.4780(8) 0.4839(5) 1.338(2)
H10A H 0.5904 0.4461 1.6392
C9A C 0.5807(10) 0.4695(7) 1.668(3)
H13A H 0.6231 0.4824 1.7666
H14A H 0.5391 0.4649 1.7263
C10_2 C 0.6652(3) 0.24129(17) 0.6607(8)
C11_2 C 0.5995(3) 0.21627(17) 0.5347(8)
C12_2 C 0.5292(3) 0.22002(18) 0.5765(8)
H16_2 H 0.5238 0.2395 0.6739
C13_2 C 0.4671(3) 0.19525(17) 0.4759(8)
C14_2 C 0.3917(3) 0.20055(17) 0.5280(8)
C15_2 C 0.4755(3) 0.16541(18) 0.3331(8)
H17_2 H 0.4341 0.1481 0.2692
C16_2 C 0.5445(3) 0.16081(18) 0.2833(8)
C17_2 C 0.5538(4) 0.1281(2) 0.1321(11)
C18_2 C 0.4803(7) 0.1206(4) -0.0356(16)
H18_2 H 0.4559 0.1476 -0.0795
H19_2 H 0.4920 0.1067 -0.1480
H20_2 H 0.4463 0.1029 0.0143
C19_2 C 0.5754(7) 0.0865(4) 0.2407(17)
H21_2 H 0.5453 0.0822 0.3338
H22_2 H 0.5660 0.0635 0.1438
H23_2 H 0.6290 0.0870 0.3143
C20_2 C 0.6160(7) 0.1402(4) 0.0328(17)
H24_2 H 0.6644 0.1428 0.1351
H25_2 H 0.6198 0.1185 -0.0629
H26_2 H 0.6032 0.1671 -0.0365
C21_2 C 0.6061(3) 0.18709(18) 0.3841(8)
H27_2 H 0.6523 0.1852 0.3508
C22C C 1.0958(3) 0.15850(18) 1.5936(9)
C23C C 1.0098(3) 0.16085(18) 1.5475(8)
C24C C 0.9689(3) 0.18560(17) 1.3896(8)
H28C H 0.9944 0.2005 1.3109
C25C C 0.8890(3) 0.18860(18) 1.3458(8)
C26C C 0.8429(3) 0.21696(19) 1.1801(8)
C27C C 0.8524(3) 0.16518(17) 1.4657(8)
H29C H 0.7994 0.1673 1.4384
C28C C 0.8920(3) 0.13916(18) 1.6226(9)
C29C C 0.9729(3) 0.13760(18) 1.6646(8)
H30C H 1.0015 0.1209 1.7714
C30C C 0.8504(3) 0.1111(2) 1.7390(11)
C31C C 0.7798(5) 0.1326(3) 1.7722(15)
H31C H 0.7928 0.1612 1.8216
H32C H 0.7622 0.1167 1.8699
H33C H 0.7399 0.1337 1.6460
C32C C 0.8239(5) 0.0709(3) 1.6127(14)
H34C H 0.7825 0.0780 1.4954
H35C H 0.8066 0.0501 1.6929
H36C H 0.8659 0.0593 1.5703
C33C C 0.9005(5) 0.0977(3) 1.9477(14)
H37C H 0.9420 0.0802 1.9326
H38C H 0.8702 0.0818 2.0169
H39C H 0.9209 0.1227 2.0253
loop_
_geom_bond_atom_site_label_1
_geom_bond_atom_site_label_2
_geom_bond_site_symmetry_1
_geom_bond_site_symmetry_2
Ba1 O1 1_555 1_555
Zn1 O2 1_555 1_555
Zn2 O4 1_555 1_555
O1 C1 1_555 1_555
O2 C1 1_555 1_555
O3 Zn1 1_555 1_555
H1 O3 1_555 1_555
H2 O3 1_555 1_555
O4 Ba1 1_555 1_555
O5 Ba1 1_555 1_555
O6 C10 1_555 1_555
O7 C14 1_555 1_555
O8 C14 1_555 1_555
O9 Ba1 1_555 1_555
H3 O9 1_555 1_555
H4 O9 1_555 1_555
O10 Ba1 1_555 1_555
O11 C22 1_555 1_555
O12 C26 1_555 1_555
O13 C26 1_555 1_555
C1 C2 1_555 1_555
C2 C3 1_555 1_555
C3 H5 1_555 1_555
C4 C2 1_555 1_555
H6 C4 1_555 1_555
C5 C4 1_555 1_555
C6 C5 1_555 1_555
C7 C6 1_555 1_555
H10 C9 1_555 1_555
C9 C6 1_555 1_555
H13 C9 1_555 1_555
H14 C9 1_555 1_555
C10 O5 1_555 1_555
C11 C10 1_555 1_555
C12 C11 1_555 1_555
H16 C12 1_555 1_555
C13 C12 1_555 1_555
C14 C13 1_555 1_555
C15 C13 1_555 1_555
H17 C15 1_555 1_555
C16 C15 1_555 1_555
C17 C16 1_555 1_555
C18 C17 1_555 1_555
H18 C18 1_555 1_555
H19 C18 1_555 1_555
H20 C18 1_555 1_555
C19 C17 1_555 1_555
H21 C19 1_555 1_555
H22 C19 1_555 1_555
H23 C19 1_555 1_555
C20 C17 1_555 1_555
H24 C20 1_555 1_555
H25 C20 1_555 1_555
H26 C20 1_555 1_555
C21 C11 1_555 1_555
H27 C21 1_555 1_555
C22 O10 1_555 1_555
C23 C22 1_555 1_555
C24 C23 1_555 1_555
H28 C24 1_555 1_555
C25 C24 1_555 1_555
C26 C25 1_555 1_555
C27 C25 1_555 1_555
H29 C27 1_555 1_555
C28 C27 1_555 1_555
C29 C23 1_555 1_555
H30 C29 1_555 1_555
C30 C28 1_555 1_555
C31 C30 1_555 1_555
H31 C31 1_555 1_555
H32 C31 1_555 1_555
H33 C31 1_555 1_555
C32 C30 1_555 1_555
H34 C32 1_555 1_555
H35 C32 1_555 1_555
H36 C32 1_555 1_555
C33 C30 1_555 1_555
H37 C33 1_555 1_555
H38 C33 1_555 1_555
H39 C33 1_555 1_555
Ba1A O1A 1_555 1_555
Ba1_2 O6 1_555 1_555
Ba1C O7 1_555 1_555
Ba1_3 O5_2 1_555 1_555
Ba1C_2 O7_2 1_555 1_555
Ba1C_3 O10C 1_555 1_555
Zn1A O2A 1_555 1_555
Zn1_2 O11 1_555 1_555
Zn1C O11C 1_555 1_555
Zn2_2 O5 1_555 1_555
Zn2C O8 1_555 1_555
Zn2C_2 O12 1_555 1_555
Zn2A O4A 1_555 1_555
O1A C1A 1_555 1_555
O2A C1A 1_555 1_555
O3A Zn1A 1_555 1_555
H1A O3A 1_555 1_555
H2A O3A 1_555 1_555
O4A Ba1A 1_555 1_555
O4_2 Ba1_2 1_555 1_555
O5_2 Zn2 1_555 1_555
O5A Ba1A 1_555 1_555
O6_2 Ba1 1_555 1_555
O6A Ba1A 1_555 1_555
O7_2 C14_2 1_555 1_555
O7C Ba1 1_555 1_555
O7B Ba1A 1_555 1_555
O8_2 Zn2C_2 1_555 1_555
O8C Zn2 1_555 1_555
O8C_2 Zn2_2 1_555 1_555
O9A Ba1A 1_555 1_555
H3A O9A 1_555 1_555
H4A O9A 1_555 1_555
O10C C22C 1_555 1_555
O10A Ba1A 1_555 1_555
O11C C22C 1_555 1_555
O11_2 Zn1 1_555 1_555
O11A Zn1A 1_555 1_555
O12C Zn2 1_555 1_555
O12C_2 Zn2_2 1_555 1_555
O13C Ba1 1_555 1_555
O13B Ba1A 1_555 1_555
C1A C2A 1_555 1_555
C2A C3 1_555 1_555
C4A C5 1_555 1_555
H6A C4A 1_555 1_555
C7A C6 1_555 1_555
H10A C9A 1_555 1_555
C9A C6 1_555 1_555
H13A C9A 1_555 1_555
H14A C9A 1_555 1_555
C10_2 O5_2 1_555 1_555
C11_2 C10_2 1_555 1_555
C12_2 C11_2 1_555 1_555
H16_2 C12_2 1_555 1_555
C13_2 C12_2 1_555 1_555
C14_2 O8_2 1_555 1_555
C15_2 C13_2 1_555 1_555
H17_2 C15_2 1_555 1_555
C16_2 C15_2 1_555 1_555
C17_2 C16_2 1_555 1_555
C18_2 C17_2 1_555 1_555
H18_2 C18_2 1_555 1_555
H19_2 C18_2 1_555 1_555
H20_2 C18_2 1_555 1_555
C19_2 C17_2 1_555 1_555
H21_2 C19_2 1_555 1_555
H22_2 C19_2 1_555 1_555
H23_2 C19_2 1_555 1_555
C20_2 C17_2 1_555 1_555
H24_2 C20_2 1_555 1_555
H25_2 C20_2 1_555 1_555
H26_2 C20_2 1_555 1_555
C21_2 C11_2 1_555 1_555
H27_2 C21_2 1_555 1_555
C22C C23C 1_555 1_555
C23C C24C 1_555 1_555
C24C H28C 1_555 1_555
C25C C24C 1_555 1_555
C26C O12C 1_555 1_555
C27C C25C 1_555 1_555
H29C C27C 1_555 1_555
C28C C27C 1_555 1_555
C29C C23C 1_555 1_555
H30C C29C 1_555 1_555
C30C C28C 1_555 1_555
C31C C30C 1_555 1_555
H31C C31C 1_555 1_555
H32C C31C 1_555 1_555
H33C C31C 1_555 1_555
C32C C30C 1_555 1_555
H34C C32C 1_555 1_555
H35C C32C 1_555 1_555
H36C C32C 1_555 1_555
C33C C30C 1_555 1_555
H37C C33C 1_555 1_555
H38C C33C 1_555 1_555
H39C C33C 1_555 1_555
Zn1 O4 1_555 1_555
O13 Ba1C 1_555 1_555
C7 C7A 1_555 1_555
C16 C21 1_555 1_555
C28 C29 1_555 1_555
Zn1A O4A 1_555 1_555
Zn1_2 O4_2 1_555 1_555
Zn2_2 O4_2 1_555 1_555
O6_2 C10_2 1_555 1_555
O13C C26C 1_555 1_555
C2A C4A 1_555 1_555
C13_2 C14_2 1_555 1_555
C16_2 C21_2 1_555 1_555
C25C C26C 1_555 1_555
C28C C29C 1_555 1_555

#END
