
#######################################################################
#
#                 Cambridge Crystallographic Data Centre
#                                CCDC 
#
#######################################################################
#
# If this CIF has been generated from an entry in the Cambridge 
# Structural Database, then it will include bibliographic, chemical, 
# crystal, experimental, refinement or atomic coordinate data resulting 
# from the CCDC's data processing and validation procedures.
#
#######################################################################

data_TOCJAY
_chemical_formula_moiety         '(C46 H26 N10 O13 Zn4)n'
_symmetry_cell_setting           cubic
_symmetry_space_group_name_H-M   'I a -3 d'
_symmetry_Int_Tables_number      230
_space_group_name_Hall           '-I 4bd 2c 3'
loop_
_symmetry_equiv_pos_site_id
_symmetry_equiv_pos_as_xyz
1 x,y,z
2 1/2-x,-y,1/2+z
3 -x,1/2+y,1/2-z
4 1/2+x,1/2-y,-z
5 z,x,y
6 1/2+z,1/2-x,-y
7 1/2-z,-x,1/2+y
8 -z,1/2+x,1/2-y
9 y,z,x
10 -y,1/2+z,1/2-x
11 1/2+y,1/2-z,-x
12 1/2-y,-z,1/2+x
13 3/4+y,1/4+x,1/4-z
14 3/4-y,3/4-x,3/4-z
15 1/4+y,1/4-x,3/4+z
16 1/4-y,3/4+x,1/4+z
17 3/4+x,1/4+z,1/4-y
18 1/4-x,3/4+z,1/4+y
19 3/4-x,3/4-z,3/4-y
20 1/4+x,1/4-z,3/4+y
21 3/4+z,1/4+y,1/4-x
22 1/4+z,1/4-y,3/4+x
23 1/4-z,3/4+y,1/4+x
24 3/4-z,3/4-y,3/4-x
25 1/2+x,1/2+y,1/2+z
26 -x,1/2-y,z
27 1/2-x,y,-z
28 x,-y,1/2-z
29 1/2+z,1/2+x,1/2+y
30 z,-x,1/2-y
31 -z,1/2-x,y
32 1/2-z,x,-y
33 1/2+y,1/2+z,1/2+x
34 1/2-y,z,-x
35 y,-z,1/2-x
36 -y,1/2-z,x
37 1/4+y,3/4+x,3/4-z
38 1/4-y,1/4-x,1/4-z
39 3/4+y,3/4-x,1/4+z
40 3/4-y,1/4+x,3/4+z
41 1/4+x,3/4+z,3/4-y
42 3/4-x,1/4+z,3/4+y
43 1/4-x,1/4-z,1/4-y
44 3/4+x,3/4-z,1/4+y
45 1/4+z,3/4+y,3/4-x
46 3/4+z,3/4-y,1/4+x
47 3/4-z,1/4+y,3/4+x
48 1/4-z,1/4-y,1/4-x
49 -x,-y,-z
50 1/2+x,y,1/2-z
51 x,1/2-y,1/2+z
52 1/2-x,1/2+y,z
53 -z,-x,-y
54 1/2-z,1/2+x,y
55 1/2+z,x,1/2-y
56 z,1/2-x,1/2+y
57 -y,-z,-x
58 y,1/2-z,1/2+x
59 1/2-y,1/2+z,x
60 1/2+y,z,1/2-x
61 1/4-y,3/4-x,3/4+z
62 1/4+y,1/4+x,1/4+z
63 3/4-y,3/4+x,1/4-z
64 3/4+y,1/4-x,3/4-z
65 1/4-x,3/4-z,3/4+y
66 3/4+x,1/4-z,3/4-y
67 1/4+x,1/4+z,1/4+y
68 3/4-x,3/4+z,1/4-y
69 1/4-z,3/4-y,3/4+x
70 3/4-z,3/4+y,1/4-x
71 3/4+z,1/4-y,3/4-x
72 1/4+z,1/4+y,1/4+x
73 1/2-x,1/2-y,1/2-z
74 x,1/2+y,-z
75 1/2+x,-y,z
76 -x,y,1/2+z
77 1/2-z,1/2-x,1/2-y
78 -z,x,1/2+y
79 z,1/2+x,-y
80 1/2+z,-x,y
81 1/2-y,1/2-z,1/2-x
82 1/2+y,-z,x
83 -y,z,1/2+x
84 y,1/2+z,-x
85 3/4-y,1/4-x,1/4+z
86 3/4+y,3/4+x,3/4+z
87 1/4-y,1/4+x,3/4-z
88 1/4+y,3/4-x,1/4-z
89 3/4-x,1/4-z,1/4+y
90 1/4+x,3/4-z,1/4-y
91 3/4+x,3/4+z,3/4+y
92 1/4-x,1/4+z,3/4-y
93 3/4-z,1/4-y,1/4+x
94 1/4-z,1/4+y,3/4-x
95 1/4+z,3/4-y,1/4-x
96 3/4+z,3/4+y,3/4+x
_cell_length_a                   62.039(5)
_cell_length_b                   62.039(5)
_cell_length_c                   62.039(5)
_cell_angle_alpha                90
_cell_angle_beta                 90
_cell_angle_gamma                90
_cell_volume                     238778
loop_
_atom_site_label
_atom_site_type_symbol
_atom_site_fract_x
_atom_site_fract_y
_atom_site_fract_z
_atom_site_U_iso_or_equiv
_atom_site_thermal_displace_type
O1 O 0.43109(8) 0.19168(7) 0.13465(9) 0.1777 Uani
C1 C 0.41599(14) 0.18801(16) 0.14738(15) 0.1787 Uani
O2 O 0.40536(10) 0.20277(9) 0.15510(12) 0.2377 Uani
C2 C 0.41049(13) 0.16474(13) 0.15292(14) 0.1713 Uani
C3 C 0.42117(13) 0.14831(15) 0.14334(13) 0.1883 Uani
H1 H 0.4324 0.1508 0.1337 0.2260 Uiso
C4 C 0.41439(11) 0.12675(17) 0.14863(12) 0.1713 Uani
C5 C 0.38776(16) 0.13991(15) 0.17367(16) 0.2390 Uani
H2 H 0.3765 0.1377 0.1832 0.2870 Uiso
C6 C 0.39447(15) 0.16008(14) 0.16807(15) 0.2317 Uani
H3 H 0.3879 0.1717 0.1749 0.2780 Uiso
O3 O 0.40870(8) 0.23963(8) 0.11093(10) 0.1793 Uani
C7 C 0.39650(16) 0.22938(17) 0.09915(16) 0.2097 Uani
O4 O 0.39840(11) 0.20945(11) 0.09755(14) 0.2840 Uani
C8 C 0.37882(13) 0.24106(18) 0.08579(12) 0.2250 Uani
C9 C 0.37761(15) 0.26174(17) 0.08345(17) 0.2517 Uani
H4 H 0.3880 0.2709 0.0892 0.3020 Uiso
C10 C 0.35910(19) 0.26997(18) 0.0714(2) 0.2713 Uani
C11 C 0.3582(2) 0.28985(19) 0.0656(2) 0.3527 Uani
H5 H 0.3693 0.2994 0.0689 0.4230 Uiso
C12 C 0.3405(2) 0.29643(17) 0.0544(2) 0.3280 Uani
H6 H 0.3388 0.3111 0.0520 0.3940 Uiso
C13 C 0.32528(18) 0.2830(2) 0.0467(2) 0.2777 Uani
C14 C 0.3286(2) 0.2627(2) 0.0474(2) 0.3413 Uani
H7 H 0.3199 0.2529 0.0400 0.4100 Uiso
C15 C 0.3460(2) 0.2562(2) 0.0598(3) 0.3203 Uani
C16 C 0.3460(2) 0.2356(2) 0.0645(3) 0.3907 Uani
H8 H 0.3347 0.2267 0.0602 0.4690 Uiso
C17 C 0.36325(18) 0.22740(17) 0.0759(2) 0.3593 Uani
H9 H 0.3647 0.2125 0.0772 0.4310 Uiso
O5 O 0.29363(13) 0.28475(14) 0.02567(16) 0.2780 Uani
C18 C 0.3079(2) 0.2951(2) 0.0330(2) 0.2397 Uani
O6 O 0.30958(11) 0.31490(13) 0.03036(14) 0.2530 Uani
C19 C 0.46244(15) 0.27500(17) 0.14999(16) 0.1670 Uani
N1 N 0.47030(10) 0.29621(10) 0.14845(11) 0.1600 Uani
C20 C 0.48469(12) 0.29585(14) 0.16480(15) 0.1607 Uani
H10 H 0.4931 0.3079 0.1676 0.1930 Uiso
N2 N 0.48692(11) 0.27820(11) 0.17705(11) 0.1657 Uani
C21 C 0.47298(14) 0.26423(19) 0.16831(16) 0.1637 Uani
N3 N 0.46924(10) 0.24358(11) 0.17490(10) 0.1587 Uani
C22 C 0.45475(12) 0.23386(13) 0.16133(14) 0.1550 Uani
H11 H 0.4520 0.2194 0.1642 0.1860 Uiso
N4 N 0.44419(10) 0.24199(11) 0.14492(12) 0.1673 Uani
C23 C 0.44783(16) 0.26465(18) 0.13950(17) 0.1757 Uani
N5 N 0.43646(9) 0.27364(9) 0.12329(10) 0.1773 Uani
H12 H 0.4388 0.2868 0.1196 0.2120 Uiso
H13 H 0.4268 0.2662 0.1166 0.2120 Uiso
Zn1 Zn 0.429822(13) 0.220914(13) 0.124153(16) 0.1547 Uani
Zn2 Zn 0.488472(16) 0.227435(15) 0.197075(16) 0.1706 Uani
O7 O 0.5000 0.2500 0.21502(10) 0.1807 Uani
O1U O 0.38465(9) 0.05832(7) 0.18109(8) 0.1777 Uani
C1U C 0.39738(15) 0.06199(16) 0.16599(14) 0.1787 Uani
O2U O 0.40510(12) 0.04723(9) 0.15536(10) 0.2377 Uani
C2U C 0.40292(14) 0.08526(13) 0.16049(13) 0.1713 Uani
C3U C 0.39334(13) 0.10169(15) 0.17117(13) 0.1883 Uani
H1U H 0.3837 0.0992 0.1824 0.2260 Uiso
C4U C 0.39863(12) 0.12325(17) 0.16439(11) 0.1713 Uani
C5U C 0.42367(16) 0.11009(15) 0.13776(16) 0.2390 Uani
H2U H 0.4332 0.1123 0.1265 0.2870 Uiso
C6U C 0.41807(15) 0.08992(14) 0.14447(15) 0.2317 Uani
H3U H 0.4249 0.0783 0.1379 0.2780 Uiso
O3U O 0.36093(10) 0.01037(8) 0.15870(8) 0.1793 Uani
C7U C 0.34915(16) 0.02062(17) 0.14650(16) 0.2097 Uani
O4U O 0.34755(14) 0.04055(11) 0.14840(11) 0.2840 Uani
C8U C 0.33579(12) 0.00894(18) 0.12882(13) 0.2250 Uani
C9U C 0.33345(17) -0.01174(17) 0.12761(15) 0.2517 Uani
H4U H 0.3392 -0.0209 0.1380 0.3020 Uiso
C10U C 0.3214(2) -0.01997(18) 0.10910(19) 0.2713 Uani
C11U C 0.3156(2) -0.03985(19) 0.1082(2) 0.3527 Uani
H5U H 0.3189 -0.0494 0.1193 0.4230 Uiso
C12U C 0.3044(2) -0.04643(17) 0.0905(2) 0.3280 Uani
H6U H 0.3020 -0.0611 0.0888 0.3940 Uiso
C13U C 0.2967(2) -0.0330(2) 0.07528(18) 0.2777 Uani
C14U C 0.2974(2) -0.0127(2) 0.0786(2) 0.3413 Uani
H7U H 0.2900 -0.0029 0.0699 0.4100 Uiso
C15U C 0.3098(3) -0.0062(2) 0.0960(2) 0.3203 Uani
C16U C 0.3145(3) 0.0144(2) 0.0960(2) 0.3907 Uani
H8U H 0.3102 0.0233 0.0847 0.4690 Uiso
C17U C 0.3259(2) 0.02260(17) 0.11325(18) 0.3593 Uani
H9U H 0.3272 0.0375 0.1147 0.4310 Uiso
O5U O 0.27567(16) -0.03475(14) 0.04363(13) 0.2780 Uani
C18U C 0.2830(2) -0.0451(2) 0.0579(2) 0.2397 Uani
O6U O 0.28036(14) -0.06490(13) 0.05958(11) 0.2530 Uani
C19U C 0.39999(16) -0.02500(17) 0.21244(15) 0.1670 Uani
N1U N 0.39845(11) -0.04621(10) 0.22030(10) 0.1600 Uani
C20U C 0.41480(15) -0.04585(14) 0.23469(12) 0.1607 Uani
H10U H 0.4176 -0.0579 0.2431 0.1930 Uiso
N2U N 0.42705(11) -0.02820(11) 0.23692(11) 0.1657 Uani
C21U C 0.41831(16) -0.01423(19) 0.22298(14) 0.1637 Uani
N3U N 0.42490(10) 0.00642(11) 0.21924(10) 0.1587 Uani
C22U C 0.41133(14) 0.01614(13) 0.20475(12) 0.1550 Uani
H11U H 0.4142 0.0306 0.2020 0.1860 Uiso
N4U N 0.39492(12) 0.00801(11) 0.19419(10) 0.1673 Uani
C23U C 0.38950(17) -0.01465(18) 0.19783(16) 0.1757 Uani
N5U N 0.37329(10) -0.02364(9) 0.18646(9) 0.1773 Uani
H12U H 0.3696 -0.0368 0.1888 0.2120 Uiso
H13U H 0.3666 -0.0162 0.1768 0.2120 Uiso
Zn1U Zn 0.374153(16) 0.029086(13) 0.179822(13) 0.1547 Uani
Zn2U Zn 0.447075(16) 0.022565(15) 0.238472(16) 0.1706 Uani
O5JB O 0.46525(14) 0.04363(13) 0.22433(16) 0.2780 Uani
O5XB O 0.47433(16) 0.20637(13) 0.21525(14) 0.2780 Uani
N1JB N 0.45379(10) 0.22030(10) 0.10155(11) 0.1600 Uani
N1XB N 0.35155(11) 0.02970(10) 0.20379(10) 0.1600 Uani
N2Y N 0.51308(11) 0.22180(11) 0.17705(11) 0.1657 Uani
N2RA N 0.42705(11) 0.02820(11) 0.26308(11) 0.1657 Uani
Zn1AB Zn 0.375847(16) -0.070178(13) 0.220914(13) 0.1547 Uani
Zn1IC Zn 0.470914(13) 0.320178(13) 0.125847(16) 0.1547 Uani
Zn2Y Zn 0.511528(16) 0.272565(15) 0.197075(16) 0.1706 Uani
Zn2RA Zn 0.447075(16) -0.022565(15) 0.261528(16) 0.1706 Uani
Zn2OB Zn 0.261528(16) -0.052925(16) 0.022565(15) 0.1706 Uani
Zn2BC Zn 0.272565(15) 0.302925(16) 0.011528(16) 0.1706 Uani
O7U O 0.46502(10) 0.0000 0.2500 0.1807 Uani
loop_
_atom_site_aniso_label
_atom_site_aniso_U_11
_atom_site_aniso_U_22
_atom_site_aniso_U_33
_atom_site_aniso_U_23
_atom_site_aniso_U_13
_atom_site_aniso_U_12
O1 0.129(4) 0.136(4) 0.268(6) 0.048(3) -0.013(3) -0.028(3)
C1 0.121(8) 0.140(7) 0.275(11) 0.047(7) 0.008(6) -0.010(6)
O2 0.212(6) 0.134(5) 0.367(8) 0.043(5) 0.076(5) 0.006(4)
C2 0.148(7) 0.133(6) 0.233(9) 0.034(6) 0.006(5) -0.021(6)
C3 0.183(8) 0.138(7) 0.244(9) 0.030(7) 0.015(6) 0.000(6)
C4 0.193(8) 0.128(7) 0.193(8) 0.008(8) 0.002(6) -0.005(8)
C5 0.299(12) 0.140(8) 0.278(11) 0.019(8) 0.099(9) -0.034(8)
C6 0.258(10) 0.131(7) 0.306(11) 0.026(7) 0.101(8) -0.012(7)
O3 0.122(4) 0.170(4) 0.246(6) 0.028(4) -0.012(3) 0.015(3)
C7 0.159(9) 0.197(9) 0.273(12) 0.027(9) -0.046(6) 0.015(8)
O4 0.245(7) 0.194(5) 0.413(9) -0.005(7) -0.121(6) 0.017(6)
C8 0.147(7) 0.238(10) 0.290(10) 0.050(9) -0.050(6) 0.037(7)
C9 0.200(9) 0.240(9) 0.315(11) 0.024(9) -0.013(7) 0.067(8)
C10 0.243(11) 0.282(10) 0.289(12) 0.061(10) -0.006(7) 0.134(9)
C11 0.293(13) 0.308(11) 0.457(17) 0.047(13) -0.092(10) 0.100(11)
C12 0.241(14) 0.359(11) 0.384(16) 0.067(12) -0.063(11) 0.150(10)
C13 0.183(10) 0.377(14) 0.273(12) 0.073(12) 0.010(7) 0.108(10)
C14 0.263(12) 0.384(12) 0.377(15) 0.073(13) -0.042(9) 0.114(11)
C15 0.250(13) 0.354(11) 0.357(16) 0.096(13) -0.060(9) 0.061(11)
C16 0.321(14) 0.367(12) 0.484(17) 0.085(15) -0.198(12) 0.010(13)
C17 0.260(12) 0.311(10) 0.507(17) 0.058(11) -0.207(11) 0.001(9)
O5 0.231(8) 0.297(7) 0.306(9) 0.049(7) -0.057(6) 0.050(6)
C18 0.255(14) 0.289(13) 0.175(10) 0.027(12) -0.003(9) 0.064(10)
O6 0.209(6) 0.293(8) 0.257(7) 0.047(7) -0.028(4) 0.042(6)
C19 0.158(8) 0.140(7) 0.203(8) -0.010(6) 0.004(5) 0.000(5)
N1 0.132(5) 0.125(5) 0.223(6) 0.001(5) -0.002(4) 0.008(4)
C20 0.128(6) 0.131(6) 0.223(9) 0.017(6) 0.000(5) 0.009(5)
N2 0.186(7) 0.125(6) 0.186(6) 0.014(4) 0.008(5) -0.002(5)
C21 0.131(7) 0.170(8) 0.190(8) 0.017(6) 0.021(5) -0.007(6)
N3 0.136(5) 0.152(5) 0.188(6) -0.001(5) 0.011(4) -0.013(4)
C22 0.117(7) 0.147(7) 0.201(8) -0.013(5) 0.024(4) 0.003(5)
N4 0.129(5) 0.138(5) 0.235(7) 0.020(5) -0.010(4) -0.010(4)
C23 0.171(9) 0.150(7) 0.206(9) -0.015(6) -0.010(6) -0.019(6)
N5 0.175(6) 0.146(5) 0.211(6) 0.008(4) -0.028(5) 0.001(4)
Zn1 0.1180(8) 0.1219(8) 0.2241(11) 0.0150(6) -0.0044(7) -0.0055(5)
Zn2 0.1709(9) 0.1422(9) 0.1987(10) 0.0099(7) 0.0140(7) -0.0019(6)
O7 0.198(6) 0.162(5) 0.182(5) 0.000 0.000 -0.006(4)
O1U 0.268 0.136 0.129 0.028 -0.013 -0.048
C1U 0.275 0.14 0.121 0.01 0.008 -0.047
O2U 0.367 0.134 0.212 -0.006 0.076 -0.043
C2U 0.233 0.133 0.148 0.021 0.006 -0.034
C3U 0.244 0.138 0.183 0 0.015 -0.03
C4U 0.193 0.128 0.193 0.005 0.002 -0.008
C5U 0.278 0.14 0.299 0.034 0.099 -0.019
C6U 0.306 0.131 0.258 0.012 0.101 -0.026
O3U 0.246 0.17 0.122 -0.015 -0.012 -0.028
C7U 0.273 0.197 0.159 -0.015 -0.046 -0.027
O4U 0.413 0.194 0.245 -0.017 -0.121 0.005
C8U 0.29 0.238 0.147 -0.037 -0.05 -0.05
C9U 0.315 0.24 0.2 -0.067 -0.013 -0.024
C10U 0.289 0.282 0.243 -0.134 -0.006 -0.061
C11U 0.457 0.308 0.293 -0.1 -0.092 -0.047
C12U 0.384 0.359 0.241 -0.15 -0.063 -0.067
C13U 0.273 0.377 0.183 -0.108 0.01 -0.073
C14U 0.377 0.384 0.263 -0.114 -0.042 -0.073
C15U 0.357 0.354 0.25 -0.061 -0.06 -0.096
C16U 0.484 0.367 0.321 -0.01 -0.198 -0.085
C17U 0.507 0.311 0.26 -0.001 -0.207 -0.058
O5U 0.306 0.297 0.231 -0.05 -0.057 -0.049
C18U 0.175 0.289 0.255 -0.064 -0.003 -0.027
O6U 0.257 0.293 0.209 -0.042 -0.028 -0.047
C19U 0.203 0.14 0.158 0 0.004 0.01
N1U 0.223 0.125 0.132 -0.008 -0.002 -0.001
C20U 0.223 0.131 0.128 -0.009 0 -0.017
N2U 0.186 0.125 0.186 0.002 0.008 -0.014
C21U 0.19 0.17 0.131 0.007 0.021 -0.017
N3U 0.188 0.152 0.136 0.013 0.011 0.001
C22U 0.201 0.147 0.117 -0.003 0.024 0.013
N4U 0.235 0.138 0.129 0.01 -0.01 -0.02
C23U 0.206 0.15 0.171 0.019 -0.01 0.015
N5U 0.211 0.146 0.175 -0.001 -0.028 -0.008
Zn1U 0.2241 0.1219 0.118 0.0055 -0.0044 -0.015
Zn2U 0.1987 0.1422 0.1709 0.0019 0.014 -0.0099
O5JB 0.297 0.231 0.306 0.057 0.049 -0.05
O5XB 0.306 0.231 0.297 0.05 0.049 -0.057
N1JB 0.125 0.132 0.223 0.002 0.001 -0.008
N1XB 0.223 0.132 0.125 0.008 0.001 -0.002
N2Y 0.186 0.125 0.186 -0.014 -0.008 -0.002
N2RA 0.186 0.125 0.186 0.002 -0.008 0.014
Zn1AB 0.2241 0.118 0.1219 -0.0055 -0.015 0.0044
Zn1IC 0.1219 0.118 0.2241 -0.0044 -0.015 0.0055
Zn2Y 0.1709 0.1422 0.1987 -0.0099 -0.014 -0.0019
Zn2RA 0.1987 0.1422 0.1709 0.0019 -0.014 0.0099
Zn2OB 0.1709 0.1987 0.1422 -0.0099 -0.0019 -0.014
Zn2BC 0.1422 0.1987 0.1709 0.014 -0.0019 0.0099
O7U 0.182 0.162 0.198 0.006 0 0
loop_
_geom_bond_atom_site_label_1
_geom_bond_atom_site_label_2
_geom_bond_site_symmetry_1
_geom_bond_site_symmetry_2
O1 C1 1_555 1_555
C1 O2 1_555 1_555
C2 C1 1_555 1_555
C3 C2 1_555 1_555
H1 C3 1_555 1_555
C4 C3 1_555 1_555
C5 H2 1_555 1_555
C6 C2 1_555 1_555
H3 C6 1_555 1_555
O3 C7 1_555 1_555
C7 O4 1_555 1_555
C8 C7 1_555 1_555
C9 C8 1_555 1_555
H4 C9 1_555 1_555
C10 C9 1_555 1_555
C11 C10 1_555 1_555
H5 C11 1_555 1_555
C12 C11 1_555 1_555
H6 C12 1_555 1_555
C13 C12 1_555 1_555
C14 C13 1_555 1_555
H7 C14 1_555 1_555
C15 C10 1_555 1_555
C16 C15 1_555 1_555
H8 C16 1_555 1_555
C17 C8 1_555 1_555
H9 C17 1_555 1_555
O5 C18 1_555 1_555
C18 C13 1_555 1_555
O6 C18 1_555 1_555
C19 N1 1_555 1_555
N1 C20 1_555 1_555
C20 H10 1_555 1_555
N2 C20 1_555 1_555
C21 C19 1_555 1_555
N3 C21 1_555 1_555
C22 N3 1_555 1_555
H11 C22 1_555 1_555
N4 C22 1_555 1_555
C23 C19 1_555 1_555
N5 C23 1_555 1_555
H12 N5 1_555 1_555
H13 N5 1_555 1_555
Zn1 O1 1_555 1_555
Zn2 N3 1_555 1_555
O7 Zn2 1_555 1_555
O1U C1U 1_555 1_555
C1U O2U 1_555 1_555
C2U C1U 1_555 1_555
C3U C2U 1_555 1_555
H1U C3U 1_555 1_555
C4U C4 1_555 1_555
C5U C4 1_555 1_555
H2U C5U 1_555 1_555
C6U C2U 1_555 1_555
H3U C6U 1_555 1_555
O3U C7U 1_555 1_555
C7U O4U 1_555 1_555
C8U C7U 1_555 1_555
C9U C8U 1_555 1_555
H4U C9U 1_555 1_555
C10U C9U 1_555 1_555
C11U C10U 1_555 1_555
H5U C11U 1_555 1_555
C12U C11U 1_555 1_555
H6U C12U 1_555 1_555
C13U C12U 1_555 1_555
C14U C13U 1_555 1_555
H7U C14U 1_555 1_555
C15U C10U 1_555 1_555
C16U C15U 1_555 1_555
H8U C16U 1_555 1_555
C17U C8U 1_555 1_555
H9U C17U 1_555 1_555
O5U C18U 1_555 1_555
C18U C13U 1_555 1_555
O6U C18U 1_555 1_555
C19U N1U 1_555 1_555
N1U C20U 1_555 1_555
C20U H10U 1_555 1_555
N2U C20U 1_555 1_555
C21U C19U 1_555 1_555
N3U C21U 1_555 1_555
C22U N3U 1_555 1_555
H11U C22U 1_555 1_555
N4U C22U 1_555 1_555
C23U C19U 1_555 1_555
N5U C23U 1_555 1_555
H12U N5U 1_555 1_555
H13U N5U 1_555 1_555
Zn1U O1U 1_555 1_555
Zn2U N3U 1_555 1_555
O5JB Zn2U 1_555 1_555
O5XB Zn2 1_555 1_555
N1JB Zn1 1_555 1_555
N1XB Zn1U 1_555 1_555
N2Y Zn2 1_555 1_555
N2RA Zn2U 1_555 1_555
Zn1AB N1U 1_555 1_555
Zn1IC N1 1_555 1_555
Zn2Y N2 1_555 1_555
Zn2RA N2U 1_555 1_555
Zn2OB O5U 1_555 1_555
Zn2BC O5 1_555 1_555
O7U Zn2U 1_555 1_555
C5 C6 1_555 1_555
C5 C4U 1_555 1_555
O3 Zn1 1_555 1_555
C14 C15 1_555 1_555
C16 C17 1_555 1_555
N2 C21 1_555 1_555
N4 C23 1_555 1_555
N4 Zn1 1_555 1_555
O7 Zn2Y 1_555 1_555
C3U C4U 1_555 1_555
C5U C6U 1_555 1_555
O3U Zn1U 1_555 1_555
C14U C15U 1_555 1_555
C16U C17U 1_555 1_555
N2U C21U 1_555 1_555
N4U C23U 1_555 1_555
N4U Zn1U 1_555 1_555
Zn2RA O7U 1_555 1_555

#END
