
#######################################################################
#
#                 Cambridge Crystallographic Data Centre
#                                CCDC 
#
#######################################################################
#
# If this CIF has been generated from an entry in the Cambridge 
# Structural Database, then it will include bibliographic, chemical, 
# crystal, experimental, refinement or atomic coordinate data resulting 
# from the CCDC's data processing and validation procedures.
#
#######################################################################

data_HISGIB
_chemical_formula_moiety         '(C17 H17 Cs1 N1 O8 S1)n'
_symmetry_cell_setting           triclinic
_symmetry_space_group_name_H-M   'P -1'
_symmetry_Int_Tables_number      2
_space_group_name_Hall           '-P 1'
loop_
_symmetry_equiv_pos_site_id
_symmetry_equiv_pos_as_xyz
1 x,y,z
2 -x,-y,-z
_cell_length_a                   6.0544(2)
_cell_length_b                   12.4991(3)
_cell_length_c                   14.7539(5)
_cell_angle_alpha                114.4620(10)
_cell_angle_beta                 93.2130(10)
_cell_angle_gamma                100.1770(10)
_cell_volume                     989.826
loop_
_atom_site_label
_atom_site_type_symbol
_atom_site_fract_x
_atom_site_fract_y
_atom_site_fract_z
Cs1 Cs -0.22922(2) -0.306976(11) 0.124054(9)
S1 S 0.34417(8) -0.03081(4) 0.20551(3)
O1 O 0.1022(2) -0.04350(14) 0.19562(12)
O2 O 0.4356(3) -0.13679(13) 0.16177(11)
O3 O 0.6495(3) 0.39751(14) 0.04323(12)
O4 O 0.9768(3) 0.34402(15) 0.05781(13)
O5 O 0.6114(3) 0.29963(17) 0.70295(12)
O6 O 0.9181(3) 0.22160(19) 0.67343(13)
O7 O 0.2018(3) -0.42867(14) 0.11659(11)
H1 H 0.2381 -0.4231 0.0636
H2 H 0.1309 -0.5010 0.1009
C1 C 0.7677(4) 0.33446(18) 0.06175(15)
C2 C 0.6531(3) 0.23927(17) 0.09263(14)
C3 C 0.7620(3) 0.14883(19) 0.08925(16)
H3 H 0.9002 0.1452 0.0648
C4 C 0.4443(4) 0.24306(19) 0.12662(16)
H4 H 0.3679 0.3012 0.1261
C5 C 0.6677(3) 0.06447(18) 0.12170(16)
H5 H 0.7404 0.0038 0.1191
C6 C 0.4618(3) 0.07201(17) 0.15837(14)
C7 C 0.3490(3) 0.16028(19) 0.16152(16)
H6 H 0.2116 0.1642 0.1866
C8 C 0.4533(3) 0.04352(16) 0.33516(14)
C9 C 0.6619(4) 0.02956(19) 0.36737(16)
H7 H 0.7416 -0.0199 0.3218
C10 C 0.7487(3) 0.0908(2) 0.46862(16)
H8 H 0.8880 0.0823 0.4914
C11 C 0.6297(3) 0.16452(18) 0.53632(15)
C12 C 0.4212(4) 0.1775(2) 0.50331(15)
H9 H 0.3409 0.2263 0.5491
C13 C 0.3325(4) 0.1175(2) 0.40177(15)
H10 H 0.1942 0.1269 0.3789
C14 C 0.7348(4) 0.2308(2) 0.64461(16)
Cs1_2 Cs 0.77078(2) -0.306976(11) 0.124054(9)
Cs1_3 Cs 0.77078(2) 0.693024(11) 0.124054(9)
Cs1A Cs 0.22922(2) 0.306976(11) -0.124054(9)
Cs1A_2 Cs 0.22922(2) 0.306976(11) 0.875946(9)
Cs1A_3 Cs 1.22922(2) 0.306976(11) -0.124054(9)
Cs1A_4 Cs 1.22922(2) 0.306976(11) 0.875946(9)
O2_2 O -0.5644(3) -0.13679(13) 0.16177(11)
O3_2 O -0.3505(3) -0.60249(14) 0.04323(12)
O3A O -0.6495(3) -0.39751(14) -0.04323(12)
O4A O 0.0232(3) -0.34402(15) -0.05781(13)
O5A O -0.6114(3) -0.29963(17) 0.29705(12)
O6A O 0.0819(3) -0.22160(19) 0.32657(13)
O7_2 O -0.7982(3) -0.42867(14) 0.11659(11)
O8 O 0.0566(8) 0.2958(4) 0.3603(3)
N1 N -0.1489(5) 0.4270(2) 0.3603(2)
C15 C -0.1224(11) 0.3313(5) 0.3740(5)
H11 H -0.2389 0.2906 0.3941
C16 C 0.0371(16) 0.4891(8) 0.3333(6)
H12 H 0.1306 0.4344 0.2996
H13 H 0.1249 0.5543 0.3929
H14 H -0.0188 0.5203 0.2893
C17 C -0.3526(17) 0.4716(9) 0.3783(8)
H15 H -0.3208 0.5471 0.4373
H16 H -0.4653 0.4145 0.3881
H17 H -0.4078 0.4832 0.3215
loop_
_geom_bond_atom_site_label_1
_geom_bond_atom_site_label_2
_geom_bond_site_symmetry_1
_geom_bond_site_symmetry_2
Cs1 O1 1_555 1_555
S1 O1 1_555 1_555
O2 S1 1_555 1_555
O3 C1 1_555 1_555
O4 C1 1_555 1_555
O5 C14 1_555 1_555
O6 C14 1_555 1_555
O7 Cs1 1_555 1_555
H1 O7 1_555 1_555
H2 O7 1_555 1_555
C1 C2 1_555 1_555
C2 C3 1_555 1_555
C3 H3 1_555 1_555
C4 C2 1_555 1_555
H4 C4 1_555 1_555
C5 C3 1_555 1_555
H5 C5 1_555 1_555
C6 S1 1_555 1_555
C7 C4 1_555 1_555
H6 C7 1_555 1_555
C8 S1 1_555 1_555
C9 C8 1_555 1_555
H7 C9 1_555 1_555
C10 C9 1_555 1_555
H8 C10 1_555 1_555
C11 C10 1_555 1_555
C12 C11 1_555 1_555
H9 C12 1_555 1_555
C13 C8 1_555 1_555
H10 C13 1_555 1_555
C14 C11 1_555 1_555
O8 C15 1_555 1_555
N1 C15 1_555 1_555
C15 H11 1_555 1_555
C16 N1 1_555 1_555
H12 C16 1_555 1_555
H13 C16 1_555 1_555
H14 C16 1_555 1_555
C17 N1 1_555 1_555
H15 C17 1_555 1_555
H16 C17 1_555 1_555
H17 C17 1_555 1_555
Cs1_2 O2 1_555 1_555
Cs1_3 O3 1_555 1_555
Cs1A O3 1_555 1_555
Cs1A_2 O5 1_555 1_555
Cs1A_3 O4 1_555 1_555
Cs1A_4 O6 1_555 1_555
O2_2 Cs1 1_555 1_555
O3_2 Cs1 1_555 1_555
O3A Cs1 1_555 1_555
O4A Cs1 1_555 1_555
O5A Cs1 1_555 1_555
O6A Cs1 1_555 1_555
O7_2 Cs1 1_555 1_555
O7 Cs1_2 1_555 1_555
C5 C6 1_555 1_555
C6 C7 1_555 1_555
C12 C13 1_555 1_555

#END
