
#######################################################################
#
#                 Cambridge Crystallographic Data Centre
#                                CCDC 
#
#######################################################################
#
# If this CIF has been generated from an entry in the Cambridge 
# Structural Database, then it will include bibliographic, chemical, 
# crystal, experimental, refinement or atomic coordinate data resulting 
# from the CCDC's data processing and validation procedures.
#
#######################################################################

data_BAPVEW
_chemical_formula_moiety         '(C52 H49 Mn2 N9 O14)n'
_symmetry_cell_setting           monoclinic
_symmetry_space_group_name_H-M   'P 21/n'
_symmetry_Int_Tables_number      14
_space_group_name_Hall           '-P 2yn'
loop_
_symmetry_equiv_pos_site_id
_symmetry_equiv_pos_as_xyz
1 x,y,z
2 1/2-x,1/2+y,1/2-z
3 -x,-y,-z
4 1/2+x,1/2-y,1/2+z
_cell_length_a                   13.4938(4)
_cell_length_b                   8.7231(3)
_cell_length_c                   22.5819(6)
_cell_angle_alpha                90
_cell_angle_beta                 95.3654(11)
_cell_angle_gamma                90
_cell_volume                     2646.42
loop_
_atom_site_label
_atom_site_type_symbol
_atom_site_fract_x
_atom_site_fract_y
_atom_site_fract_z
C1 C -0.01783(7) 0.59639(11) 0.29104(5)
H1 H -0.0543 0.6694 0.2666
C2 C 0.08485(7) 0.59166(12) 0.29026(5)
H2 H 0.1182 0.6596 0.2659
C3 C 0.13745(7) 0.48387(11) 0.32637(4)
C4 C 0.08678(7) 0.38939(12) 0.36279(5)
H3 H 0.1216 0.3181 0.3888
C5 C -0.01594(7) 0.40173(12) 0.36020(4)
H4 H -0.0510 0.3361 0.3845
C6 C 0.38822(7) 0.49008(11) 0.29133(4)
C7 C 0.43942(7) 0.54205(12) 0.24445(4)
H5 H 0.4047 0.5859 0.2100
C8 C 0.54241(7) 0.52824(11) 0.24925(4)
H6 H 0.5776 0.5635 0.2174
C9 C 0.54340(7) 0.41177(12) 0.34101(4)
H7 H 0.5796 0.3644 0.3742
C10 C 0.44088(7) 0.42065(12) 0.34009(4)
H8 H 0.4074 0.3805 0.3718
C11 C 0.76926(6) 0.35949(9) 0.18594(4)
C12 C 0.79965(7) 0.38094(10) 0.12332(4)
H9 H 0.7890 0.2837 0.1010
H10 H 0.7569 0.4603 0.1026
C13 C 0.90768(7) 0.42831(10) 0.12349(4)
C14 C 0.93803(8) 0.53297(12) 0.08222(4)
H11 H 0.8898 0.5806 0.0549
C15 C 1.03830(8) 0.56827(13) 0.08072(5)
H12 H 1.0576 0.6394 0.0521
C16 C 1.11096(7) 0.50128(11) 0.12042(4)
C17 C 1.08071(7) 0.39692(12) 0.16166(5)
H13 H 1.1289 0.3495 0.1891
C18 C 0.98045(7) 0.36146(12) 0.16305(5)
H14 H 0.9612 0.2901 0.1916
C19 C 1.21978(8) 0.54021(14) 0.11805(5)
H15 H 1.2292 0.6523 0.1227
H16 H 1.2598 0.4890 0.1513
C20 C 1.25533(8) 0.48928(14) 0.05978(5)
C21 C 0.75460(6) 0.43378(10) 0.45364(4)
C22 C 0.71780(8) 0.50661(11) 0.50921(4)
H17 H 0.7452 0.4498 0.5450
H18 H 0.7413 0.6140 0.5130
C23 C 0.60526(7) 0.50295(10) 0.50493(4)
C24 C 0.54951(8) 0.62107(11) 0.47661(4)
H19 H 0.5829 0.7048 0.4603
C25 C 0.44597(8) 0.61880(11) 0.47173(4)
H20 H 0.4098 0.7008 0.4523
Mn1 Mn 0.76268(2) 0.48804(2) 0.31346(2)
N1 N -0.06798(6) 0.50252(9) 0.32474(4)
N2 N 0.24253(6) 0.46082(11) 0.32931(4)
N3 N 0.28271(6) 0.51459(11) 0.28620(4)
N4 N 0.59431(6) 0.46695(9) 0.29721(3)
O1 O 0.77262(5) 0.47789(7) 0.21897(3)
O2 O 0.74330(5) 0.23084(7) 0.20314(3)
O3 O 1.26899(7) 0.57585(11) 0.01955(4)
O4 O 1.26557(7) 0.33858(10) 0.05726(4)
H21 H 1.2727(14) 0.313(2) 0.0210(5)
O5 O 0.75523(5) 0.51772(8) 0.40846(3)
O6 O 0.77905(6) 0.29361(8) 0.45515(3)
O7 O 0.77487(6) 0.24761(8) 0.33636(3)
H22 H 0.7727(13) 0.233(2) 0.3738(9)
H23 H 0.7573(13) 0.167(2) 0.3184(8)
C21B C 0.24540(6) 0.56622(10) 0.54636(4)
C22B C 0.28220(8) 0.49339(11) 0.49079(4)
H17B H 0.2548 0.5502 0.4550
H18B H 0.2587 0.3860 0.4870
C23B C 0.39474(7) 0.49705(10) 0.49507(4)
C24B C 0.45049(8) 0.37893(11) 0.52339(4)
H19B H 0.4171 0.2952 0.5397
C25B C 0.55403(8) 0.38120(11) 0.52827(4)
H20B H 0.5902 0.2992 0.5477
O5B O 0.24477(5) 0.48228(8) 0.59154(3)
O6B O 0.22095(6) 0.70639(8) 0.54485(3)
C1B C 1.01783(7) 0.40361(11) 0.70896(5)
H1B H 1.0543 0.3306 0.7334
C2B C 0.91515(7) 0.40834(12) 0.70974(5)
H2B H 0.8818 0.3404 0.7341
C3B C 0.86255(7) 0.51613(11) 0.67363(4)
C4B C 0.91322(7) 0.61061(12) 0.63721(5)
H3B H 0.8784 0.6819 0.6112
C5B C 1.01594(7) 0.59827(12) 0.63980(4)
H4B H 1.0510 0.6639 0.6155
C6B C 0.61178(7) 0.50992(11) 0.70867(4)
C7B C 0.56058(7) 0.45795(12) 0.75555(4)
H5B H 0.5953 0.4141 0.7900
C8B C 0.45759(7) 0.47176(11) 0.75075(4)
H6B H 0.4224 0.4365 0.7826
C9B C 0.45660(7) 0.58823(12) 0.65899(4)
H7B H 0.4204 0.6356 0.6258
C10B C 0.55912(7) 0.57935(12) 0.65991(4)
H8B H 0.5926 0.6195 0.6282
C11B C 0.23074(6) 0.64051(9) 0.81406(4)
C12B C 0.20035(7) 0.61906(10) 0.87668(4)
H9B H 0.2110 0.7163 0.8990
H10B H 0.2431 0.5397 0.8974
C13B C 0.09232(7) 0.57169(10) 0.87651(4)
C14B C 0.06197(8) 0.46703(12) 0.91778(4)
H11B H 0.1102 0.4194 0.9451
C15B C -0.03830(8) 0.43173(13) 0.91928(5)
H12B H -0.0576 0.3606 0.9479
C16B C -0.11096(7) 0.49872(11) 0.87958(4)
C17B C -0.08071(7) 0.60308(12) 0.83834(5)
H13B H -0.1289 0.6505 0.8109
C18B C 0.01955(7) 0.63854(12) 0.83695(5)
H14B H 0.0388 0.7099 0.8084
C19B C -0.21978(8) 0.45979(14) 0.88195(5)
H15B H -0.2292 0.3477 0.8773
H16B H -0.2598 0.5110 0.8487
C20B C -0.25533(8) 0.51072(14) 0.94022(5)
Mn1B Mn 0.23732(2) 0.51196(2) 0.68654(2)
N1B N 1.06798(6) 0.49748(9) 0.67526(4)
N2B N 0.75747(6) 0.53918(11) 0.67069(4)
N3B N 0.71729(6) 0.48541(11) 0.71380(4)
N4B N 0.40569(6) 0.53305(9) 0.70279(3)
O1B O 0.22738(5) 0.52211(7) 0.78103(3)
O2B O 0.25670(5) 0.76916(7) 0.79686(3)
O3B O -0.26899(7) 0.42415(11) 0.98045(4)
O4B O -0.26557(7) 0.66142(10) 0.94274(4)
H21B H -0.2727(14) 0.687(2) 0.9790(5)
O7B O 0.22513(6) 0.75239(8) 0.66364(3)
H22B H 0.2273(13) 0.767(2) 0.6262(9)
H23B H 0.2427(13) 0.833(2) 0.6816(8)
Mn1_2 Mn -0.23732(2) 0.48804(2) 0.31346(2)
Mn1A Mn 0.73732(2) -0.01196(2) 0.18654(2)
Mn1B_2 Mn 1.23732(2) 0.51196(2) 0.68654(2)
Mn1C Mn 0.26268(2) 1.01196(2) 0.81346(2)
N1_2 N 0.93202(6) 0.50252(9) 0.32474(4)
N1B_2 N 0.06798(6) 0.49748(9) 0.67526(4)
O2A O 0.75670(5) 0.73084(7) 0.29686(3)
O2C O 0.24330(5) 0.26916(7) 0.70314(3)
C27 C 0.51693(10) 0.41491(16) 0.07590(6)
C28 C 0.53815(12) 0.27540(17) 0.04400(7)
H27 H 0.4755 0.2259 0.0293
H28 H 0.5772 0.2054 0.0709
H29 H 0.5760 0.3011 0.0104
N5 N 0.49956(12) 0.52460(17) 0.10038(6)
loop_
_geom_bond_atom_site_label_1
_geom_bond_atom_site_label_2
_geom_bond_site_symmetry_1
_geom_bond_site_symmetry_2
C1 H1 1_555 1_555
C2 C1 1_555 1_555
H2 C2 1_555 1_555
C3 C2 1_555 1_555
C4 C3 1_555 1_555
H3 C4 1_555 1_555
C5 C4 1_555 1_555
H4 C5 1_555 1_555
C6 C7 1_555 1_555
C7 H5 1_555 1_555
C8 C7 1_555 1_555
H6 C8 1_555 1_555
C9 H7 1_555 1_555
C10 C6 1_555 1_555
H8 C10 1_555 1_555
C11 C12 1_555 1_555
C12 H9 1_555 1_555
H10 C12 1_555 1_555
C13 C12 1_555 1_555
C14 C13 1_555 1_555
H11 C14 1_555 1_555
C15 C14 1_555 1_555
H12 C15 1_555 1_555
C16 C15 1_555 1_555
C17 C16 1_555 1_555
H13 C17 1_555 1_555
C18 C13 1_555 1_555
H14 C18 1_555 1_555
C19 C16 1_555 1_555
H15 C19 1_555 1_555
H16 C19 1_555 1_555
C20 C19 1_555 1_555
C21 C22 1_555 1_555
C22 H17 1_555 1_555
H18 C22 1_555 1_555
C23 C22 1_555 1_555
C24 C23 1_555 1_555
H19 C24 1_555 1_555
C25 C24 1_555 1_555
H20 C25 1_555 1_555
Mn1 N4 1_555 1_555
N1 C1 1_555 1_555
N2 C3 1_555 1_555
N3 C6 1_555 1_555
N4 C8 1_555 1_555
O1 C11 1_555 1_555
O2 C11 1_555 1_555
O3 C20 1_555 1_555
O4 C20 1_555 1_555
H21 O4 1_555 1_555
O5 C21 1_555 1_555
O6 C21 1_555 1_555
O7 Mn1 1_555 1_555
H22 O7 1_555 1_555
H23 O7 1_555 1_555
C27 C28 1_555 1_555
C28 H27 1_555 1_555
H28 C28 1_555 1_555
H29 C28 1_555 1_555
N5 C27 1_555 1_555
C21B C22B 1_555 1_555
C22B H17B 1_555 1_555
H18B C22B 1_555 1_555
C23B C25 1_555 1_555
C24B C23B 1_555 1_555
H19B C24B 1_555 1_555
C25B C23 1_555 1_555
H20B C25B 1_555 1_555
O5B C21B 1_555 1_555
O6B C21B 1_555 1_555
C1B H1B 1_555 1_555
C2B C1B 1_555 1_555
H2B C2B 1_555 1_555
C3B C2B 1_555 1_555
C4B C3B 1_555 1_555
H3B C4B 1_555 1_555
C5B C4B 1_555 1_555
H4B C5B 1_555 1_555
C6B C7B 1_555 1_555
C7B H5B 1_555 1_555
C8B C7B 1_555 1_555
H6B C8B 1_555 1_555
C9B H7B 1_555 1_555
C10B C6B 1_555 1_555
H8B C10B 1_555 1_555
C11B C12B 1_555 1_555
C12B H9B 1_555 1_555
H10B C12B 1_555 1_555
C13B C12B 1_555 1_555
C14B C13B 1_555 1_555
H11B C14B 1_555 1_555
C15B C14B 1_555 1_555
H12B C15B 1_555 1_555
C16B C15B 1_555 1_555
C17B C16B 1_555 1_555
H13B C17B 1_555 1_555
C18B C13B 1_555 1_555
H14B C18B 1_555 1_555
C19B C16B 1_555 1_555
H15B C19B 1_555 1_555
H16B C19B 1_555 1_555
C20B C19B 1_555 1_555
Mn1B O5B 1_555 1_555
N1B C1B 1_555 1_555
N2B C3B 1_555 1_555
N3B C6B 1_555 1_555
N4B C8B 1_555 1_555
O1B C11B 1_555 1_555
O2B C11B 1_555 1_555
O3B C20B 1_555 1_555
O4B C20B 1_555 1_555
H21B O4B 1_555 1_555
O7B Mn1B 1_555 1_555
H22B O7B 1_555 1_555
H23B O7B 1_555 1_555
Mn1_2 N1 1_555 1_555
Mn1A O2 1_555 1_555
Mn1B_2 N1B 1_555 1_555
Mn1C O2B 1_555 1_555
N1_2 Mn1 1_555 1_555
N1B_2 Mn1B 1_555 1_555
O2A Mn1 1_555 1_555
O2C Mn1B 1_555 1_555
C5 N1 1_555 1_555
C9 C10 1_555 1_555
C9 N4 1_555 1_555
C17 C18 1_555 1_555
Mn1 O1 1_555 1_555
Mn1 O5 1_555 1_555
N2 N3 1_555 1_555
C22B C23B 1_555 1_555
C24B C25B 1_555 1_555
C5B N1B 1_555 1_555
C9B C10B 1_555 1_555
C9B N4B 1_555 1_555
C17B C18B 1_555 1_555
Mn1B N4B 1_555 1_555
Mn1B O1B 1_555 1_555
N2B N3B 1_555 1_555

#END
