
#######################################################################
#
#                 Cambridge Crystallographic Data Centre
#                                CCDC 
#
#######################################################################
#
# If this CIF has been generated from an entry in the Cambridge 
# Structural Database, then it will include bibliographic, chemical, 
# crystal, experimental, refinement or atomic coordinate data resulting 
# from the CCDC's data processing and validation procedures.
#
#######################################################################

data_WASTUG
_chemical_formula_moiety         '(C9 H60 La2 Mo6 O54 P1)n'
_symmetry_cell_setting           orthorhombic
_symmetry_space_group_name_H-M   'P 21 21 2'
_symmetry_Int_Tables_number      18
_space_group_name_Hall           'P 2 2ab'
loop_
_symmetry_equiv_pos_site_id
_symmetry_equiv_pos_as_xyz
1 x,y,z
2 -x,-y,z
3 1/2-x,1/2+y,-z
4 1/2+x,1/2-y,-z
_cell_length_a                   20.5144(3)
_cell_length_b                   21.7012(4)
_cell_length_c                   12.16550(10)
_cell_angle_alpha                90
_cell_angle_beta                 90
_cell_angle_gamma                90
_cell_volume                     5415.92
loop_
_atom_site_label
_atom_site_type_symbol
_atom_site_fract_x
_atom_site_fract_y
_atom_site_fract_z
_atom_site_U_iso_or_equiv
_atom_site_thermal_displace_type
La1 La 0.19017(3) 0.53228(2) 0.57413(5) 0.0330 Uani
La2 La -0.00601(4) 0.67651(3) 1.00249(5) 0.0479 Uani
Mo1 Mo -0.00495(4) 0.55926(3) 0.50642(7) 0.0308 Uani
Mo2 Mo -0.10108(4) 0.63135(4) 0.71618(8) 0.0343 Uani
Mo3 Mo 0.06461(4) 0.65793(4) 0.69594(7) 0.0342 Uani
Mo4 Mo 0.14915(4) 0.59446(4) 0.87806(7) 0.0355 Uani
Mo5 Mo -0.06261(5) 0.49098(4) 1.06777(7) 0.0363 Uani
Mo6 Mo -0.15879(4) 0.56437(4) 0.86157(8) 0.0367 Uani
P1 P -0.0000 0.5000 0.7895(3) 0.0281 Uani
O1 O -0.0069(4) 0.5742(3) 0.3712(5) 0.0437 Uani
O2 O 0.0707(3) 0.5053(3) 0.5312(5) 0.0340 Uani
O3 O 0.0551(3) 0.6278(3) 0.5569(6) 0.0343 Uani
O4 O -0.0793(3) 0.6196(3) 0.5503(5) 0.0330 Uani
O5 O -0.0079(3) 0.5581(3) 0.7158(5) 0.0297 Uani
O6 O -0.1579(3) 0.6866(3) 0.6970(6) 0.0473 Uani
O7 O 0.1472(3) 0.4469(3) 0.7039(5) 0.0353 Uani
O8 O -0.0884(3) 0.6259(3) 0.8753(6) 0.0400 Uani
O9 O -0.0193(3) 0.6837(3) 0.7178(6) 0.0387 Uani
O10 O 0.1065(4) 0.7237(3) 0.6775(6) 0.0467 Uani
O11 O 0.0701(3) 0.6470(3) 0.8574(5) 0.0363 Uani
O12 O 0.1334(3) 0.5948(3) 0.7182(6) 0.0363 Uani
O13 O 0.2078(3) 0.6475(3) 0.8975(6) 0.0503 Uani
O14 O 0.1942(3) 0.5224(3) 0.8619(6) 0.0397 Uani
O15 O 0.1193(4) 0.5804(3) 1.0193(6) 0.0417 Uani
O16 O -0.0608(3) 0.4941(3) 0.8646(5) 0.0320 Uani
O17 O -0.0778(4) 0.4896(3) 1.2033(6) 0.0503 Uani
O18 O -0.0106(3) 0.5649(3) 1.0432(5) 0.0370 Uani
O19 O -0.1410(3) 0.5456(3) 1.0259(5) 0.0373 Uani
O20 O -0.2285(4) 0.6039(3) 0.8763(7) 0.0527 Uani
O21 O -0.1055(4) 0.6525(3) 1.1217(7) 0.0560 Uani
O22 O -0.0738(5) 0.7500(4) 1.1302(8) 0.0810 Uani
O23 O -0.2287(4) 0.8905(3) 1.3383(6) 0.0460 Uani
O24 O -0.2897(4) 0.8519(3) 1.4720(6) 0.0460 Uani
O25 O -0.1951(4) 0.5736(3) 1.4824(6) 0.0443 Uani
O26 O -0.2874(4) 0.6235(4) 1.5357(9) 0.0867 Uani
O27 O 0.1590(4) 0.5554(4) 0.3732(6) 0.0540 Uani
O28 O 0.2910(4) 0.5370(4) 0.4451(8) 0.0760 Uani
O29 O 0.2870(4) 0.4763(3) 0.6650(7) 0.0533 Uani
O30 O 0.0353(5) 0.6584(4) 1.2018(7) 0.0707 Uani
O31 O -0.0450(10) 0.7676(5) 0.8952(9) 0.1783 Uani
O32 O 0.0889(7) 0.7476(6) 1.0418(10) 0.1450 Uani
C1 C -0.1561(6) 0.7147(5) 1.2569(9) 0.0473 Uani
C2 C -0.1802(5) 0.7733(4) 1.2812(9) 0.0440 Uani
H1 H -0.1669 0.8069 1.2393 0.0530 Uiso
C3 C -0.2240(5) 0.7821(4) 1.3672(8) 0.0347 Uani
C4 C -0.2419(5) 0.7312(5) 1.4329(10) 0.0440 Uani
H2 H -0.2697 0.7365 1.4925 0.0530 Uiso
C5 C -0.2177(5) 0.6735(5) 1.4077(9) 0.0433 Uani
C6 C -0.1750(5) 0.6648(4) 1.3217(8) 0.0427 Uani
H3 H -0.1589 0.6256 1.3067 0.0510 Uiso
C7 C -0.1118(6) 0.7051(6) 1.1621(9) 0.0520 Uani
C8 C -0.2493(5) 0.8449(5) 1.3950(9) 0.0403 Uani
C9 C -0.2353(6) 0.6181(5) 1.4819(10) 0.0530 Uani
La1C La -0.30983(3) 0.96772(2) 1.42587(5) 0.0330 Uani
La1A La -0.19017(3) 0.46772(2) 1.57413(5) 0.0330 Uani
Mo1A Mo 0.00495(4) 0.44074(3) 0.50642(7) 0.0308 Uani
Mo2A Mo 0.10108(4) 0.36865(4) 0.71618(8) 0.0343 Uani
Mo5A Mo 0.06261(5) 0.50902(4) 1.06777(7) 0.0363 Uani
Mo6A Mo 0.15879(4) 0.43563(4) 0.86157(8) 0.0367 Uani
O2A O -0.0707(3) 0.4947(3) 0.5312(5) 0.0340 Uani
O5A O 0.0079(3) 0.4419(3) 0.7158(5) 0.0297 Uani
O7A O -0.1472(3) 0.5531(3) 0.7039(5) 0.0353 Uani
O14A O -0.1942(3) 0.4776(3) 0.8619(6) 0.0397 Uani
O15A O -0.1193(4) 0.4196(3) 1.0193(6) 0.0417 Uani
O16A O 0.0608(3) 0.5059(3) 0.8646(5) 0.0320 Uani
O18A O 0.0106(3) 0.4351(3) 1.0432(5) 0.0370 Uani
O23C O 0.2713(4) 0.6095(3) 0.6617(6) 0.0460 Uani
O24C O 0.2103(4) 0.6481(3) 0.5280(6) 0.0460 Uani
O25A O 0.1951(4) 0.4264(3) 0.4824(6) 0.0443 Uani
O33 O 0.231(4) 0.736(4) 1.140(8) 0.2000 Uiso
O34 O 0.1879(16) 0.7812(15) 0.899(3) 0.1410 Uiso
O35 O -0.0426(12) 0.7471(10) 0.474(2) 0.1153 Uani
O36 O 0.3424(12) 0.5689(14) 0.865(3) 0.1523 Uani
O37 O 0.096(3) 0.854(3) 1.169(5) 0.1120 Uiso
O38 O 0.1053(8) 0.7080(6) 1.3765(11) 0.1360 Uani
O39 O 0.2010(10) 0.6265(12) 0.1944(16) 0.1100 Uani
O40 O 0.4151(18) 0.3476(16) 0.457(3) 0.1780 Uiso
O41 O -0.1911(19) 0.8352(18) 0.668(3) 0.1930 Uiso
O42 O -0.0225(15) 0.8294(14) 0.287(3) 0.1767 Uani
O43 O -0.0351(19) 0.8206(19) 0.676(4) 0.2150 Uiso
O44 O -0.279(3) 0.492(3) 1.109(5) 0.1290 Uiso
O46 O 0.3088(14) 0.2901(13) 0.733(2) 0.1320 Uiso
O47 O 0.411(3) 0.566(2) 0.619(5) 0.1270 Uiso
O48 O 0.394(5) 0.593(5) 0.034(11) 0.2900 Uiso
O50 O 0.142(5) 0.909(5) 0.945(9) 0.1200 Uiso
O52 O 0.466(4) 0.400(4) -0.013(9) 0.2500 Uiso
O54 O 0.323(3) 0.468(3) 0.253(6) 0.1700 Uiso
O55 O 0.317(7) 0.600(6) 0.125(11) 0.1600 Uiso
O59 O -0.0000 1.0000 0.148(16) 0.1800 Uiso
loop_
_atom_site_aniso_label
_atom_site_aniso_U_11
_atom_site_aniso_U_22
_atom_site_aniso_U_33
_atom_site_aniso_U_23
_atom_site_aniso_U_13
_atom_site_aniso_U_12
La1 0.0350(3) 0.0278(3) 0.0361(3) -0.0057(2) 0.0014(3) -0.0029(2)
La2 0.0650(4) 0.0344(3) 0.0442(4) -0.0106(3) 0.0180(4) -0.0061(3)
Mo1 0.0350(4) 0.0263(4) 0.0311(4) 0.0008(4) 0.0013(4) -0.0015(3)
Mo2 0.0407(5) 0.0267(4) 0.0356(5) 0.0018(4) 0.0052(4) 0.0029(4)
Mo3 0.0423(5) 0.0251(4) 0.0351(5) -0.0021(4) 0.0049(4) -0.0035(4)
Mo4 0.0421(5) 0.0311(4) 0.0334(5) -0.0046(4) 0.0013(4) -0.0055(4)
Mo5 0.0478(5) 0.0319(4) 0.0292(4) 0.0011(4) 0.0015(4) -0.0029(4)
Mo6 0.0435(5) 0.0310(4) 0.0355(5) 0.0019(4) 0.0065(4) 0.0011(4)
P1 0.0343(18) 0.0216(15) 0.0283(17) 0.000 0.000 0.0021(14)
O1 0.058(5) 0.040(4) 0.033(4) 0.002(3) -0.001(4) -0.007(3)
O2 0.034(4) 0.031(3) 0.037(4) -0.003(3) 0.000(3) -0.001(3)
O3 0.034(4) 0.030(3) 0.039(4) -0.002(3) 0.006(3) -0.005(3)
O4 0.044(4) 0.022(3) 0.033(4) 0.007(3) 0.001(3) 0.003(3)
O5 0.033(3) 0.025(3) 0.031(3) -0.003(3) 0.004(3) 0.006(3)
O6 0.051(5) 0.036(4) 0.055(5) 0.008(3) 0.007(4) 0.006(3)
O7 0.034(4) 0.038(4) 0.034(4) -0.003(3) -0.003(3) 0.004(3)
O8 0.052(4) 0.029(3) 0.039(4) -0.002(3) 0.003(3) -0.004(3)
O9 0.045(4) 0.024(3) 0.047(4) -0.001(3) 0.001(3) -0.001(3)
O10 0.060(5) 0.030(4) 0.050(5) -0.006(3) 0.005(4) -0.006(3)
O11 0.044(4) 0.030(3) 0.035(4) -0.005(3) 0.000(3) -0.001(3)
O12 0.042(4) 0.032(3) 0.035(4) -0.005(3) 0.004(3) -0.001(3)
O13 0.047(5) 0.048(4) 0.056(5) -0.015(4) 0.000(4) -0.014(3)
O14 0.040(4) 0.035(4) 0.044(4) -0.004(3) -0.001(3) -0.002(3)
O15 0.056(4) 0.038(4) 0.031(4) -0.005(3) -0.001(3) -0.008(3)
O16 0.035(4) 0.031(3) 0.030(3) 0.002(3) 0.003(3) -0.005(3)
O17 0.060(5) 0.054(5) 0.037(4) 0.002(4) 0.005(4) -0.004(4)
O18 0.043(4) 0.029(3) 0.039(4) -0.001(3) 0.006(3) -0.003(3)
O19 0.046(4) 0.042(4) 0.024(3) 0.002(3) 0.005(3) -0.001(3)
O20 0.060(5) 0.043(4) 0.055(5) 0.006(4) 0.006(4) 0.017(4)
O21 0.066 0.044 0.058 -0.018 0.031 -0.007
O22 0.125 0.044 0.074 0.001 0.05 0.003
O23 0.055 0.032 0.051 -0.003 0.006 0.008
O24 0.056 0.038 0.044 0.002 0.018 0.012
O25 0.054 0.03 0.049 0.004 -0.004 0.01
O26 0.065 0.067 0.128 0.039 0.042 0.022
O27 0.056(5) 0.065(5) 0.041(4) 0.000(4) -0.007(4) -0.011(4)
O28 0.054(5) 0.083(6) 0.091(7) -0.011(5) 0.024(5) 0.000(5)
O29 0.047(5) 0.042(4) 0.071(5) -0.001(4) -0.009(4) 0.005(3)
O30 0.107(7) 0.059(5) 0.046(5) -0.005(4) -0.004(5) -0.008(5)
O31 0.43(3) 0.048(6) 0.057(7) 0.013(5) 0.005(11) 0.059(10)
O32 0.170(14) 0.159(11) 0.106(10) -0.072(9) 0.044(9) -0.107(11)
C1 0.059 0.039 0.044 -0.011 0.016 0.011
C2 0.062 0.028 0.042 0.004 0.006 0.002
C3 0.044 0.027 0.033 0.001 -0.003 0.004
C4 0.038 0.045 0.049 0.01 0.003 0.008
C5 0.042 0.038 0.05 0.009 -0.005 0.006
C6 0.069 0.023 0.036 -0.002 0.004 0.003
C7 0.06 0.054 0.042 0.008 0.006 0.007
C8 0.043 0.039 0.039 0.006 -0.006 0.001
C9 0.065 0.049 0.045 0.013 0 -0.018
La1C 0.035 0.0278 0.0361 -0.0057 -0.0014 0.0029
La1A 0.035 0.0278 0.0361 0.0057 -0.0014 -0.0029
Mo1A 0.035 0.0263 0.0311 -0.0008 -0.0013 -0.0015
Mo2A 0.0407 0.0267 0.0356 -0.0018 -0.0052 0.0029
Mo5A 0.0478 0.0319 0.0292 -0.0011 -0.0015 -0.0029
Mo6A 0.0435 0.031 0.0355 -0.0019 -0.0065 0.0011
O2A 0.034 0.031 0.037 0.003 0 -0.001
O5A 0.033 0.025 0.031 0.003 -0.004 0.006
O7A 0.034 0.038 0.034 0.003 0.003 0.004
O14A 0.04 0.035 0.044 0.004 0.001 -0.002
O15A 0.056 0.038 0.031 0.005 0.001 -0.008
O16A 0.035 0.031 0.03 -0.002 -0.003 -0.005
O18A 0.043 0.029 0.039 0.001 -0.006 -0.003
O23C 0.055(5) 0.032(4) 0.051(5) -0.003(3) -0.006(4) -0.008(3)
O24C 0.056(5) 0.038(4) 0.044(4) 0.002(3) -0.018(4) -0.012(3)
O25A 0.054 0.03 0.049 -0.004 0.004 0.01
O35 0.14(2) 0.106(16) 0.100(18) 0.057(14) -0.059(16) -0.051(15)
O36 0.077(17) 0.16(2) 0.22(3) 0.04(2) -0.06(2) 0.005(16)
O38 0.196(15) 0.109(9) 0.103(9) 0.050(8) -0.040(10) -0.032(9)
O39 0.098(16) 0.18(2) 0.052(12) 0.002(14) -0.011(11) -0.089(17)
O42 0.14(3) 0.14(3) 0.25(4) -0.09(3) 0.01(3) -0.03(2)
loop_
_geom_bond_atom_site_label_1
_geom_bond_atom_site_label_2
_geom_bond_site_symmetry_1
_geom_bond_site_symmetry_2
La1 O2 1_555 1_555
La2 O8 1_555 1_555
Mo1 O1 1_555 1_555
Mo2 Mo6 1_555 1_555
Mo3 O3 1_555 1_555
Mo4 O11 1_555 1_555
Mo5 O16 1_555 1_555
Mo6 O8 1_555 1_555
P1 O5 1_555 1_555
O2 Mo1 1_555 1_555
O3 Mo1 1_555 1_555
O4 Mo1 1_555 1_555
O5 Mo2 1_555 1_555
O6 Mo2 1_555 1_555
O7 La1 1_555 1_555
O8 Mo2 1_555 1_555
O9 Mo2 1_555 1_555
O10 Mo3 1_555 1_555
O11 La2 1_555 1_555
O12 La1 1_555 1_555
O13 Mo4 1_555 1_555
O14 Mo4 1_555 1_555
O15 Mo4 1_555 1_555
O16 P1 1_555 1_555
O17 Mo5 1_555 1_555
O18 La2 1_555 1_555
O19 Mo5 1_555 1_555
O20 Mo6 1_555 1_555
O21 La2 1_555 1_555
O22 La2 1_555 1_555
O23 C8 1_555 1_555
O24 C8 1_555 1_555
O25 C9 1_555 1_555
O26 C9 1_555 1_555
O27 La1 1_555 1_555
O28 La1 1_555 1_555
O29 La1 1_555 1_555
O30 La2 1_555 1_555
O31 La2 1_555 1_555
O32 La2 1_555 1_555
C1 C2 1_555 1_555
C2 H1 1_555 1_555
C3 C2 1_555 1_555
C4 C3 1_555 1_555
H2 C4 1_555 1_555
C5 C4 1_555 1_555
C6 C1 1_555 1_555
H3 C6 1_555 1_555
C7 O21 1_555 1_555
C8 C3 1_555 1_555
C9 C5 1_555 1_555
La1C O23 1_555 1_555
La1A O25 1_555 1_555
Mo1A Mo1 1_555 1_555
Mo2A O7 1_555 1_555
Mo5A Mo5 1_555 1_555
Mo6A O7 1_555 1_555
O2A Mo1 1_555 1_555
O5A P1 1_555 1_555
O7A Mo2 1_555 1_555
O14A Mo6 1_555 1_555
O15A Mo5 1_555 1_555
O16A P1 1_555 1_555
O18A Mo5 1_555 1_555
O23C La1 1_555 1_555
O24C La1 1_555 1_555
O25A La1 1_555 1_555
Mo2 O4 1_555 1_555
Mo3 O9 1_555 1_555
Mo3 O11 1_555 1_555
Mo3 O12 1_555 1_555
Mo4 O12 1_555 1_555
Mo5 O18 1_555 1_555
Mo6 O19 1_555 1_555
Mo6 O7A 1_555 1_555
O2 Mo1A 1_555 1_555
O14 Mo6A 1_555 1_555
O15 Mo5A 1_555 1_555
O18 Mo5A 1_555 1_555
O22 C7 1_555 1_555
O24 La1C 1_555 1_555
C1 C7 1_555 1_555
C5 C6 1_555 1_555
Mo1A O2A 1_555 1_555
Mo2A Mo6A 1_555 1_555
Mo2A O5A 1_555 1_555
Mo5A O16A 1_555 1_555
Mo5A O18A 1_555 1_555

#END
