
#######################################################################
#
#                 Cambridge Crystallographic Data Centre
#                                CCDC 
#
#######################################################################
#
# If this CIF has been generated from an entry in the Cambridge 
# Structural Database, then it will include bibliographic, chemical, 
# crystal, experimental, refinement or atomic coordinate data resulting 
# from the CCDC's data processing and validation procedures.
#
#######################################################################

data_WASVES
_chemical_formula_moiety         'C18 H40 La4 Mo12 O84 P1'
_symmetry_cell_setting           triclinic
_symmetry_space_group_name_H-M   'P -1'
_symmetry_Int_Tables_number      2
_space_group_name_Hall           '-P 1'
loop_
_symmetry_equiv_pos_site_id
_symmetry_equiv_pos_as_xyz
1 x,y,z
2 -x,-y,-z
_cell_length_a                   12.3192(2)
_cell_length_b                   12.3654(2)
_cell_length_c                   25.1114(4)
_cell_angle_alpha                81.8970(10)
_cell_angle_beta                 85.3890(10)
_cell_angle_gamma                88.5640(10)
_cell_volume                     3774.45
loop_
_atom_site_label
_atom_site_type_symbol
_atom_site_fract_x
_atom_site_fract_y
_atom_site_fract_z
O66 O 0.8334(6) 0.8772(6) 1.0097(3)
O67 O 0.1431(6) 0.3645(6) 0.4673(3)
O68 O 0.2625(6) 0.3643(6) 0.3671(3)
O69 O 0.3643(5) 0.0329(6) 0.5752(3)
O70 O 0.7381(6) 0.7317(7) 0.0934(3)
O71 O 0.3611(6) 0.3121(6) 0.1358(4)
O72 O 0.2838(7) 0.9246(8) 0.9794(4)
O73 O 0.7273(7) 0.3128(8) 0.0583(4)
O74 O 0.5509(6) 0.1148(7) 0.2004(5)
O75 O 0.9363(8) 0.2948(8) 0.4413(4)
O76 O 0.5658(8) 0.9510(12) 0.0935(5)
O77 O 0.5479(12) 0.2050(11) 0.1020(6)
O78 O 0.5739(13) 0.7827(13) 0.9941(6)
O79 O 0.5803(12) 0.4798(12) 0.2134(9)
O80 O 0.4637(11) 0.2519(11) 0.3707(6)
O81 O 0.3360(11) 0.4669(12) 0.9113(12)
O82 O 0.2238(11) 0.8061(13) 0.6056(6)
O83 O 0.6705(17) 0.3212(17) 0.4090(8)
O87 O 0.6593(14) 0.291(2) 0.2287(14)
La1 La 0.27676(4) 0.90525(4) 0.41475(2)
La2 La 0.00624(5) 1.18199(4) 0.16090(2)
La3 La 0.30049(4) 0.67076(4) 0.13712(2)
La4 La -0.21774(4) 0.65936(5) 0.35019(2)
Mo1 Mo 0.06410(6) 1.10159(6) 0.32857(3)
Mo2 Mo -0.04261(6) 0.87134(6) 0.40716(3)
Mo3 Mo -0.17012(6) 0.98123(6) 0.29297(3)
Mo4 Mo 0.23883(6) 1.10502(6) 0.26152(3)
Mo5 Mo 0.37934(6) 0.85521(6) 0.24966(3)
Mo6 Mo 0.25758(6) 0.99352(6) 0.14084(3)
Mo7 Mo 0.04991(6) 0.87902(6) 0.11087(3)
Mo8 Mo -0.17019(6) 0.89604(6) 0.20442(3)
Mo9 Mo -0.02650(6) 0.64606(6) 0.19656(3)
Mo10 Mo 0.07397(6) 0.55745(6) 0.27751(3)
Mo11 Mo 0.31457(6) 0.67649(6) 0.30801(3)
Mo12 Mo 0.08915(6) 0.65185(6) 0.39910(3)
P1 P 0.08829(17) 0.84908(17) 0.26466(9)
O1 O 0.0744(5) 1.2205(4) 0.3520(2)
O2 O 0.0860(4) 1.1347(4) 0.2499(2)
O3 O 0.2049(5) 1.0315(4) 0.3338(2)
O4 O -0.0965(4) 1.1070(4) 0.3176(2)
O5 O 0.0220(4) 1.0048(4) 0.3992(2)
O6 O 0.0195(4) 0.9158(4) 0.3028(2)
O7 O -0.0870(5) 0.8542(4) 0.4729(2)
O8 O -0.1644(4) 0.9133(4) 0.3718(2)
O9 O 0.1062(4) 0.8072(4) 0.4068(2)
O10 O -0.0551(4) 0.7235(4) 0.3873(2)
O11 O -0.2938(5) 1.0327(4) 0.2955(2)
O12 O -0.1077(4) 1.0310(4) 0.2197(2)
O13 O -0.1884(4) 0.8295(4) 0.2796(2)
O14 O 0.2909(5) 1.2273(4) 0.2677(3)
O15 O 0.3793(4) 1.0179(4) 0.2604(2)
O16 O 0.2522(4) 1.1098(4) 0.1810(2)
O17 O 0.1916(4) 0.9156(4) 0.2395(2)
O18 O 0.5148(4) 0.8322(4) 0.2496(2)
O19 O 0.3258(4) 0.8264(4) 0.3253(2)
O20 O 0.3224(4) 0.7209(4) 0.2285(2)
O21 O 0.3706(4) 0.9191(5) 0.1697(2)
O22 O 0.3118(4) 1.0480(4) 0.0794(2)
O23 O 0.0993(4) 1.0183(4) 0.1341(2)
O24 O 0.2019(4) 0.8500(4) 0.1276(2)
O25 O 0.0574(5) 0.9072(5) 0.0432(2)
O26 O 0.0250(4) 0.7322(4) 0.1248(2)
O27 O -0.0890(4) 0.9273(4) 0.1311(2)
O28 O 0.0186(4) 0.8280(4) 0.2172(2)
O29 O -0.2929(5) 0.9341(5) 0.1863(2)
O30 O -0.1678(4) 0.7380(4) 0.1881(2)
O31 O -0.0728(4) 0.5329(4) 0.1741(2)
O32 O 0.1261(4) 0.6194(4) 0.2058(2)
O33 O -0.0687(4) 0.6269(4) 0.2742(2)
O34 O 0.0527(5) 0.4247(4) 0.2733(2)
O35 O 0.0484(4) 0.5514(4) 0.3580(2)
O36 O 0.2366(4) 0.5371(4) 0.2923(2)
O37 O 0.1245(4) 0.7382(4) 0.2952(2)
O38 O 0.4312(4) 0.6161(4) 0.3197(2)
O39 O 0.2332(4) 0.6443(4) 0.3803(2)
O40 O 0.0716(4) 0.5881(4) 0.4634(2)
O41 O 0.2983(4) 0.7190(4) 0.4796(2)
O42 O 0.4375(4) 0.7667(4) 0.4218(2)
O43 O 0.1203(5) 1.2546(5) 0.0770(2)
O44 O 0.2557(5) 1.3582(6) 0.0349(3)
O45 O 0.1813(4) 0.5226(4) 0.1093(2)
O46 O 0.2027(5) 0.6662(4) 0.0485(2)
O47 O -0.2905(5) 0.7006(5) 0.4437(3)
O48 O -0.3996(4) 0.7769(4) 0.5061(3)
C1 C 0.1618(7) 0.5777(7) 0.0634(3)
C2 C 0.0777(6) 0.5357(6) 0.0289(3)
C3 C 0.0760(6) 0.4248(6) 0.0231(3)
C4 C 0.0053(6) 0.6098(7) 0.0056(4)
H1 H 0.0104 0.6834 0.0091
C5 C 0.1606(8) 1.3401(7) 0.0471(4)
C6 C 0.5591(7) 0.5967(6) 0.4883(4)
C7 C 0.3879(7) 0.5017(6) 0.4923(4)
H2 H 0.3139 0.5025 0.4872
C8 C 0.4482(6) 0.5991(6) 0.4807(4)
C9 C 0.3886(7) 0.7018(7) 0.4599(4)
C10 C -0.3707(7) 0.7005(7) 0.4787(3)
O49 O 0.4445(5) 1.0129(5) 0.3670(2)
O50 O 0.4035(5) 0.9300(5) 0.4890(2)
O51 O 0.2528(5) 1.1042(5) 0.4400(3)
O52 O 0.1507(5) 0.9123(6) 0.5037(3)
O53 O -0.1234(6) 1.1395(6) 0.0923(4)
O54 O 0.1106(5) 1.3432(5) 0.1775(3)
O55 O -0.1162(5) 1.2680(5) 0.2356(3)
O56 O -0.1081(5) 1.3523(5) 0.1228(3)
O57 O 0.4052(5) 0.7988(5) 0.0598(3)
O58 O 0.4195(6) 0.5468(6) 0.0776(3)
O59 O 0.3459(5) 0.4897(5) 0.1991(3)
O60 O 0.5091(5) 0.6799(7) 0.1558(3)
O61 O -0.3803(5) 0.5288(5) 0.3717(3)
O62 O -0.3896(5) 0.7783(5) 0.3476(2)
O63 O -0.3109(5) 0.6314(5) 0.2636(3)
O64 O -0.1811(8) 0.4468(9) 0.3309(7)
O65 O -0.1635(9) 0.5013(8) 0.4251(6)
C3A C -0.0760(6) 0.5752(6) -0.0231(3)
C3_2 C 0.0760(6) 1.4248(6) 0.0231(3)
C4A C -0.0053(6) 0.3902(7) -0.0056(4)
C5_2 C 0.1606(8) 0.3401(7) 0.0471(4)
C6A C 0.4409(7) 0.4033(6) 0.5117(4)
C6_2 C -0.4409(7) 0.5967(6) 0.4883(4)
C7A C 0.6121(7) 0.4983(6) 0.5077(4)
C10_2 C 0.6293(7) 0.7005(7) 0.4787(3)
loop_
_geom_bond_atom_site_label_1
_geom_bond_atom_site_label_2
_geom_bond_site_symmetry_1
_geom_bond_site_symmetry_2
La1 O3 1_555 1_555
La2 O2 1_555 1_555
La3 O20 1_555 1_555
La4 O10 1_555 1_555
Mo1 Mo4 1_555 1_555
Mo2 O5 1_555 1_555
Mo3 Mo8 1_555 1_555
Mo4 O2 1_555 1_555
Mo5 Mo11 1_555 1_555
Mo6 O16 1_555 1_555
Mo7 O23 1_555 1_555
Mo8 O12 1_555 1_555
Mo9 Mo10 1_555 1_555
Mo10 O32 1_555 1_555
Mo11 O19 1_555 1_555
Mo12 O9 1_555 1_555
P1 O6 1_555 1_555
O1 Mo1 1_555 1_555
O2 Mo1 1_555 1_555
O3 Mo1 1_555 1_555
O4 Mo1 1_555 1_555
O5 Mo1 1_555 1_555
O6 Mo3 1_555 1_555
O7 Mo2 1_555 1_555
O8 Mo2 1_555 1_555
O9 La1 1_555 1_555
O10 Mo2 1_555 1_555
O11 Mo3 1_555 1_555
O12 La2 1_555 1_555
O13 La4 1_555 1_555
O14 Mo4 1_555 1_555
O15 Mo4 1_555 1_555
O16 Mo4 1_555 1_555
O17 Mo5 1_555 1_555
O18 Mo5 1_555 1_555
O19 La1 1_555 1_555
O20 Mo5 1_555 1_555
O21 Mo5 1_555 1_555
O22 Mo6 1_555 1_555
O23 La2 1_555 1_555
O24 La3 1_555 1_555
O25 Mo7 1_555 1_555
O26 Mo7 1_555 1_555
O27 Mo7 1_555 1_555
O28 Mo8 1_555 1_555
O29 Mo8 1_555 1_555
O30 Mo8 1_555 1_555
O31 Mo9 1_555 1_555
O32 La3 1_555 1_555
O33 La4 1_555 1_555
O34 Mo10 1_555 1_555
O35 Mo10 1_555 1_555
O36 Mo10 1_555 1_555
O37 Mo10 1_555 1_555
O38 Mo11 1_555 1_555
O39 Mo11 1_555 1_555
O40 Mo12 1_555 1_555
O41 La1 1_555 1_555
O42 La1 1_555 1_555
O43 La2 1_555 1_555
O44 C5 1_555 1_555
O45 La3 1_555 1_555
O46 La3 1_555 1_555
O47 La4 1_555 1_555
O48 C10 1_555 1_555
C1 O45 1_555 1_555
C2 C1 1_555 1_555
C3 C2 1_555 1_555
C4 C2 1_555 1_555
H1 C4 1_555 1_555
C5 O43 1_555 1_555
C6 C8 1_555 1_555
C7 H2 1_555 1_555
C8 C7 1_555 1_555
C9 O41 1_555 1_555
C10 O47 1_555 1_555
O49 La1 1_555 1_555
O50 La1 1_555 1_555
O51 La1 1_555 1_555
O52 La1 1_555 1_555
O53 La2 1_555 1_555
O54 La2 1_555 1_555
O55 La2 1_555 1_555
O56 La2 1_555 1_555
O57 La3 1_555 1_555
O58 La3 1_555 1_555
O59 La3 1_555 1_555
O60 La3 1_555 1_555
O61 La4 1_555 1_555
O62 La4 1_555 1_555
O63 La4 1_555 1_555
O64 La4 1_555 1_555
O65 La4 1_555 1_555
C3A C4 1_555 1_555
C3_2 C5 1_555 1_555
C4A C3 1_555 1_555
C5_2 C3 1_555 1_555
C6A C7 1_555 1_555
C6_2 C10 1_555 1_555
C7A C6 1_555 1_555
C10_2 C6 1_555 1_555
Mo2 O9 1_555 1_555
Mo3 O4 1_555 1_555
Mo3 O8 1_555 1_555
Mo3 O12 1_555 1_555
Mo3 O13 1_555 1_555
Mo4 O3 1_555 1_555
Mo5 O15 1_555 1_555
Mo5 O19 1_555 1_555
Mo6 O21 1_555 1_555
Mo6 O23 1_555 1_555
Mo6 O24 1_555 1_555
Mo7 O24 1_555 1_555
Mo8 O13 1_555 1_555
Mo8 O27 1_555 1_555
Mo9 O26 1_555 1_555
Mo9 O28 1_555 1_555
Mo9 O30 1_555 1_555
Mo9 O32 1_555 1_555
Mo9 O33 1_555 1_555
Mo10 O33 1_555 1_555
Mo11 O20 1_555 1_555
Mo11 O36 1_555 1_555
Mo11 O37 1_555 1_555
Mo12 O10 1_555 1_555
Mo12 O35 1_555 1_555
Mo12 O39 1_555 1_555
P1 O17 1_555 1_555
P1 O28 1_555 1_555
P1 O37 1_555 1_555
O42 C9 1_555 1_555
O46 C1 1_555 1_555
C8 C9 1_555 1_555

#END
