
#######################################################################
#
#                 Cambridge Crystallographic Data Centre
#                                CCDC 
#
#######################################################################
#
# If this CIF has been generated from an entry in the Cambridge 
# Structural Database, then it will include bibliographic, chemical, 
# crystal, experimental, refinement or atomic coordinate data resulting 
# from the CCDC's data processing and validation procedures.
#
#######################################################################

data_OMICOD
_chemical_formula_moiety         '(C17 H26 N10 O9 Zn1)n'
_symmetry_cell_setting           orthorhombic
_symmetry_space_group_name_H-M   'P b c a'
_symmetry_Int_Tables_number      61
_space_group_name_Hall           '-P 2ac 2ab'
loop_
_symmetry_equiv_pos_site_id
_symmetry_equiv_pos_as_xyz
1 x,y,z
2 1/2-x,-y,1/2+z
3 1/2+x,1/2-y,-z
4 -x,1/2+y,1/2-z
5 -x,-y,-z
6 1/2+x,y,1/2-z
7 1/2-x,1/2+y,z
8 x,1/2-y,1/2+z
_cell_length_a                   18.295(5)
_cell_length_b                   14.541(5)
_cell_length_c                   18.655(5)
_cell_angle_alpha                90
_cell_angle_beta                 90
_cell_angle_gamma                90
_cell_volume                     4962.74
loop_
_atom_site_label
_atom_site_type_symbol
_atom_site_fract_x
_atom_site_fract_y
_atom_site_fract_z
Zn1 Zn -0.27371(2) 0.37430(3) 0.451580(19)
C1 C -0.20239(16) 0.2878(2) 0.57885(16)
H1 H -0.1683 0.3349 0.5834
C2 C -0.29166(19) 0.2034(2) 0.54095(19)
H2 H -0.3305 0.1819 0.5135
C3 C -0.26484(17) 0.1626(2) 0.60034(19)
H3 H -0.2817 0.1086 0.6214
C4 C -0.16677(16) 0.2003(2) 0.69007(16)
H4 H -0.1659 0.2575 0.7169
H5 H -0.1935 0.1558 0.7186
C5 C -0.08714(14) 0.16596(19) 0.68242(14)
C6 C -0.05509(16) 0.1589(2) 0.75931(15)
H6 H -0.0448 0.2205 0.7765
H7 H -0.0090 0.1260 0.7569
C7 C -0.15165(16) 0.1552(2) 0.85266(15)
H8 H -0.1602 0.2182 0.8525
C8 C -0.10472(19) 0.0207(2) 0.82776(18)
H9 H -0.0761 -0.0256 0.8079
C9 C -0.1570(2) 0.0108(2) 0.87829(19)
H10 H -0.1708 -0.0445 0.8994
C10 C -0.04100(15) 0.23997(19) 0.64377(15)
H11 H -0.0505 0.2990 0.6662
H12 H -0.0572 0.2440 0.5944
C11 C 0.08679(18) 0.2585(2) 0.69362(17)
H13 H 0.0756 0.2933 0.7339
C12 C 0.15372(18) 0.2319(3) 0.67183(17)
H14 H 0.1974 0.2457 0.6950
C13 C 0.07672(16) 0.1785(2) 0.59496(16)
H15 H 0.0566 0.1491 0.5553
C14 C -0.08107(16) 0.06990(19) 0.64855(14)
H16 H -0.1010 0.0257 0.6822
H17 H -0.0296 0.0557 0.6427
C15 C -0.16350(17) -0.0133(2) 0.56677(16)
H18 H -0.1803 -0.0536 0.6018
C16 C -0.1043(2) 0.0985(2) 0.51431(16)
H19 H -0.0736 0.1484 0.5061
C17 C -0.1452(2) 0.0534(2) 0.46494(17)
H20 H -0.1478 0.0676 0.4164
N1 N -0.25185(15) 0.28257(18) 0.52750(14)
N2 N -0.20785(13) 0.21613(18) 0.62354(14)
N3 N -0.10214(13) 0.11278(17) 0.81138(12)
N4 N -0.18667(14) 0.09565(18) 0.89362(13)
N5 N 0.03816(13) 0.22358(17) 0.64421(12)
N6 N 0.14752(14) 0.18091(19) 0.60980(13)
N7 N -0.11735(14) 0.05582(17) 0.57901(12)
N8 N -0.18225(15) -0.01703(18) 0.49853(13)
Zn1G Zn -0.27371(2) 0.12570(3) 0.951580(19)
Zn1F Zn -0.22629(2) -0.12570(3) 0.451580(19)
Zn1B Zn 0.22629(2) 0.12570(3) 0.548420(19)
N4G N -0.18667(14) 0.40435(18) 0.39362(13)
N6B N -0.35248(14) 0.31909(19) 0.39020(13)
N8F N -0.31775(15) 0.48297(18) 0.49853(13)
O1 O -0.29593(19) 0.6145(2) 0.29455(17)
O2 O -0.2105(2) 0.6137(3) 0.21597(18)
O3 O -0.2730(2) 0.4919(2) 0.2345(3)
N9 N -0.26013(19) 0.5725(2) 0.24827(19)
O4 O -0.0217(3) 0.2598(3) -0.0888(3)
O5 O -0.0001(3) 0.3612(3) -0.1713(2)
O6 O 0.0485(4) 0.3657(5) -0.0704(3)
N10 N 0.0105(2) 0.3268(3) -0.1116(2)
O7 O 0.0405(3) 0.1196(3) 0.0009(3)
H21 H 0.003(3) 0.087(5) 0.013(5)
H22 H 0.027(4) 0.168(4) -0.025(4)
O8 O -0.0788(3) 0.0378(3) 0.0840(3)
H23 H -0.111(4) 0.031(5) 0.118(4)
H24 H -0.062(5) -0.016(3) 0.071(4)
O9 O -0.0697(3) 0.4908(4) -0.2590(3)
H25 H -0.115(2) 0.499(6) -0.247(5)
H26 H -0.051(4) 0.443(5) -0.236(5)
loop_
_geom_bond_atom_site_label_1
_geom_bond_atom_site_label_2
_geom_bond_site_symmetry_1
_geom_bond_site_symmetry_2
Zn1 N1 1_555 1_555
C1 H1 1_555 1_555
C2 H2 1_555 1_555
C3 C2 1_555 1_555
H3 C3 1_555 1_555
C4 H4 1_555 1_555
H5 C4 1_555 1_555
C5 C4 1_555 1_555
C6 C5 1_555 1_555
H6 C6 1_555 1_555
H7 C6 1_555 1_555
C7 H8 1_555 1_555
C8 H9 1_555 1_555
C9 C8 1_555 1_555
H10 C9 1_555 1_555
C10 C5 1_555 1_555
H11 C10 1_555 1_555
H12 C10 1_555 1_555
C11 H13 1_555 1_555
C12 C11 1_555 1_555
H14 C12 1_555 1_555
C13 H15 1_555 1_555
C14 C5 1_555 1_555
H16 C14 1_555 1_555
H17 C14 1_555 1_555
C15 H18 1_555 1_555
C16 H19 1_555 1_555
C17 C16 1_555 1_555
H20 C17 1_555 1_555
N1 C1 1_555 1_555
N2 C1 1_555 1_555
N3 C6 1_555 1_555
N4 C7 1_555 1_555
N5 C10 1_555 1_555
N6 C12 1_555 1_555
N7 C14 1_555 1_555
N8 C15 1_555 1_555
O1 N9 1_555 1_555
O2 N9 1_555 1_555
O3 N9 1_555 1_555
O4 N10 1_555 1_555
O5 N10 1_555 1_555
O6 N10 1_555 1_555
O7 H21 1_555 1_555
H22 O7 1_555 1_555
O8 H23 1_555 1_555
H24 O8 1_555 1_555
O9 H25 1_555 1_555
H26 O9 1_555 1_555
Zn1G N4 1_555 1_555
Zn1F N8 1_555 1_555
Zn1B N6 1_555 1_555
N4G Zn1 1_555 1_555
N6B Zn1 1_555 1_555
N8F Zn1 1_555 1_555
C2 N1 1_555 1_555
C3 N2 1_555 1_555
C4 N2 1_555 1_555
C7 N3 1_555 1_555
C8 N3 1_555 1_555
C9 N4 1_555 1_555
C11 N5 1_555 1_555
C13 N5 1_555 1_555
C13 N6 1_555 1_555
C15 N7 1_555 1_555
C16 N7 1_555 1_555
C17 N8 1_555 1_555

#END
