
#######################################################################
#
#                 Cambridge Crystallographic Data Centre
#                                CCDC 
#
#######################################################################
#
# If this CIF has been generated from an entry in the Cambridge 
# Structural Database, then it will include bibliographic, chemical, 
# crystal, experimental, refinement or atomic coordinate data resulting 
# from the CCDC's data processing and validation procedures.
#
#######################################################################

data_ERULEK
_chemical_formula_moiety         '(C55 H57 N9 O15 Zn2)n'
_symmetry_cell_setting           monoclinic
_symmetry_space_group_name_H-M   'C 2/c'
_symmetry_Int_Tables_number      15
_space_group_name_Hall           '-C 2yc'
loop_
_symmetry_equiv_pos_site_id
_symmetry_equiv_pos_as_xyz
1 x,y,z
2 -x,y,1/2-z
3 1/2+x,1/2+y,z
4 1/2-x,1/2+y,1/2-z
5 -x,-y,-z
6 x,-y,1/2+z
7 1/2-x,1/2-y,-z
8 1/2+x,1/2-y,1/2+z
_cell_length_a                   24.0967(4)
_cell_length_b                   18.4666(3)
_cell_length_c                   37.6140(7)
_cell_angle_alpha                90
_cell_angle_beta                 94.2641(16)
_cell_angle_gamma                90
_cell_volume                     16691.3
loop_
_atom_site_label
_atom_site_type_symbol
_atom_site_fract_x
_atom_site_fract_y
_atom_site_fract_z
Zn1 Zn 0.601311(17) 0.36800(2) 0.676267(12)
Zn2 Zn 0.591709(17) 0.36853(2) 0.597360(12)
O1 O 0.14739(10) -0.04910(14) 0.60581(7)
O2 O 0.65652(11) 0.29990(15) 0.60734(7)
O3 O 0.53844(11) 0.28528(15) 0.60461(7)
O4 O 1.02976(10) -0.06442(14) 0.61128(7)
O5 O 0.16534(11) -0.06730(15) 0.66438(7)
O6 O 0.53423(10) 0.30402(14) 0.66362(7)
O7 O 1.04774(10) -0.04537(15) 0.66997(7)
O8 O 0.65247(11) 0.28318(16) 0.66629(8)
N1 N 0.10680(14) 0.13054(18) 0.22981(8)
N2 N 0.52419(15) 0.38115(18) 0.49320(9)
N3 N 0.57516(13) 0.38053(17) 0.54454(8)
N4 N 0.35271(15) 0.3288(2) 0.35194(9)
N5 N 0.30670(16) 0.2985(2) 0.33492(9)
N6 N 0.31398(17) 0.2642(2) 0.39240(9)
C1 C 0.93034(15) 0.0091(2) 0.61083(10)
H1 H 0.9370 -0.0200 0.5914
C2 C 0.22545(15) 0.0088(2) 0.63475(10)
C3 C 1.01933(14) -0.03703(18) 0.64039(10)
N7 N 0.13085(18) 0.1412(3) 0.28694(10)
C4 C 0.96863(14) 0.0109(2) 0.64023(10)
C5 C 0.23572(17) 0.0487(2) 0.60527(11)
H2 H 0.2107 0.0471 0.5852
C6 C 0.17531(14) -0.03943(19) 0.63494(10)
C7 C 0.26276(19) 0.0119(3) 0.66476(11)
H3 H 0.2556 -0.0146 0.6850
C8 C 0.32169(16) 0.0948(2) 0.63449(11)
C9 C 0.67298(15) 0.2724(2) 0.63685(11)
C10 C 0.48118(18) 0.3632(2) 0.46638(11)
C11 C 0.51763(14) 0.2750(2) 0.63431(10)
C12 C 0.35584(19) 0.3070(2) 0.38631(11)
C13 C 0.56602(19) 0.4308(3) 0.49052(11)
H4 H 0.5720 0.4594 0.4708
C14 C 0.31031(19) 0.0537(3) 0.66485(11)
H5 H 0.3350 0.0549 0.6850
C15 C 0.59691(18) 0.4301(2) 0.52219(11)
H6 H 0.6280 0.4588 0.5279
C16 C 0.1598(2) 0.1623(3) 0.31994(11)
C17 C 0.72298(16) 0.2233(2) 0.63703(11)
C18 C 0.46457(17) 0.4144(2) 0.44085(10)
H7 H 0.4804 0.4604 0.4414
C19 C 0.40023(19) 0.3290(2) 0.41318(11)
C20 C 0.37290(18) 0.1394(2) 0.63470(11)
C21 C 0.42378(19) 0.3956(3) 0.41433(11)
H8 H 0.4124 0.4295 0.3970
C22 C 0.28332(18) 0.0915(3) 0.60505(12)
H9 H 0.2895 0.1185 0.5848
C23 C 0.88183(16) 0.0506(2) 0.61013(11)
H10 H 0.8563 0.0489 0.5904
C24 C 0.46849(15) 0.2261(2) 0.63441(10)
C25 C 0.7486(2) 0.2095(3) 0.60607(12)
H11 H 0.7334 0.2284 0.5846
C26 C 0.28479(19) 0.2599(2) 0.35992(10)
C27 C 0.87170(16) 0.0947(3) 0.63898(11)
C28 C 0.44532(19) 0.1956(3) 0.60292(11)
H12 H 0.4617 0.2043 0.5817
C29 C 0.82012(18) 0.1393(2) 0.63852(12)
C30 C 0.53115(17) 0.3528(2) 0.52621(11)
H13 H 0.5079 0.3179 0.5351
C31 C 0.1599(2) 0.1579(4) 0.38288(12)
H14 H 0.1439 0.1444 0.4036
C32 C 0.44363(18) 0.2115(3) 0.66605(11)
H15 H 0.4592 0.2303 0.6874
C33 C 0.3984(2) 0.1525(3) 0.60265(11)
H16 H 0.3836 0.1321 0.5814
C34 C 0.14088(17) 0.1588(2) 0.25431(10)
H17 H 0.1701 0.1890 0.2491
C35 C 0.20806(19) 0.2013(3) 0.32157(11)
H18 H 0.2238 0.2156 0.3008
C36 C 0.2330(2) 0.2189(3) 0.35455(11)
C37 C 0.95918(18) 0.0543(2) 0.66917(11)
H19 H 0.9849 0.0554 0.6889
C38 C 0.7964(2) 0.1681(3) 0.60650(12)
H20 H 0.8129 0.1593 0.5854
C39 C 0.4576(2) 0.2957(3) 0.46614(13)
H21 H 0.4692 0.2617 0.4833
C40 C 0.4164(2) 0.2789(3) 0.44000(13)
H22 H 0.3991 0.2339 0.4402
C41 C 0.1363(2) 0.1403(3) 0.35104(13)
H23 H 0.1038 0.1129 0.3494
C42 C 0.91127(19) 0.0962(3) 0.66874(12)
H24 H 0.9051 0.1255 0.6882
C43 C 0.39667(19) 0.1698(3) 0.66598(11)
H25 H 0.3804 0.1617 0.6873
C44 C 0.7937(2) 0.1523(3) 0.66964(13)
H26 H 0.8085 0.1330 0.6911
C45 C 0.2067(3) 0.1951(4) 0.38420(12)
H27 H 0.2235 0.2064 0.4066
C46 C 0.7458(2) 0.1936(3) 0.66913(13)
H28 H 0.7287 0.2017 0.6901
C47 C 0.0884(3) 0.0671(5) 0.2477(2)
H29 H 0.0683 0.0292 0.2367
C48 C 0.1045(4) 0.0705(6) 0.2829(2)
H30 H 0.0999 0.0358 0.3004
C49 C 0.3906(3) 0.3723(4) 0.33187(17)
H31 H 0.3776 0.4214 0.3304
H32 H 0.3919 0.3528 0.3083
H33 H 0.4273 0.3712 0.3438
Zn1B Zn 0.101311(17) -0.13200(2) 0.676267(12)
Zn1B_2 Zn 1.101311(17) -0.13200(2) 0.676267(12)
Zn1G Zn 0.101311(17) 0.13200(2) 0.176267(12)
Zn2B Zn 0.091709(17) -0.13147(2) 0.597360(12)
Zn2B_2 Zn 1.091709(17) -0.13147(2) 0.597360(12)
O1B O 0.64739(10) 0.45090(14) 0.60581(7)
O4B O 0.52976(10) 0.43558(14) 0.61128(7)
O5B O 0.66534(11) 0.43270(15) 0.66438(7)
O7B O 0.54774(10) 0.45463(15) 0.66997(7)
N1G N 0.60680(14) 0.36946(18) 0.72981(8)
N8 N 0.6656(3) 0.6608(4) 0.48380(13)
C50 C 0.6353(5) 0.6171(7) 0.4646(2)
H34 H 0.6104 0.6363 0.4470
C51 C 0.6613(6) 0.7385(7) 0.4752(3)
H35 H 0.6947 0.7541 0.4650
H36 H 0.6566 0.7655 0.4965
H37 H 0.6300 0.7465 0.4584
O9 O 0.6371(6) 0.5510(6) 0.46826(18)
C52 C 0.6991(5) 0.6410(6) 0.5140(2)
H38 H 0.6840 0.6608 0.5348
H39 H 0.7360 0.6593 0.5122
H40 H 0.7003 0.5891 0.5158
N9 N 0.7542(5) 0.5725(4) 0.7545(2)
O10 O 0.8074(4) 0.6734(4) 0.74303(14)
C53 C 0.7580(5) 0.6341(5) 0.7412(2)
H41 H 0.7264 0.6546 0.7296
C54 C 0.6997(7) 0.5346(6) 0.7518(3)
H42 H 0.6702 0.5696 0.7508
H43 H 0.6971 0.5041 0.7723
H44 H 0.6967 0.5055 0.7306
C55 C 0.8065(10) 0.5363(11) 0.7726(5)
H45 H 0.8299 0.5195 0.7548
H46 H 0.7956 0.4960 0.7867
H47 H 0.8265 0.5708 0.7878
O11 O 0.4978(5) 0.8317(4) 0.4778(2)
O12 O 0.3916(6) 0.2909(7) 0.2463(2)
H48 H 0.3993 0.2828 0.2250
H49 H 0.3625 0.2676 0.2507
O13 O 0.4977(8) 0.3592(16) 0.2468(7)
O14 O 0.7767(4) 0.3469(6) 0.7354(5)
O15 O 0.3081(6) 0.0604(7) 0.4016(5)
loop_
_geom_bond_atom_site_label_1
_geom_bond_atom_site_label_2
_geom_bond_site_symmetry_1
_geom_bond_site_symmetry_2
Zn1 O6 1_555 1_555
Zn2 O2 1_555 1_555
O1 C6 1_555 1_555
O2 C9 1_555 1_555
O3 Zn2 1_555 1_555
O4 C3 1_555 1_555
O5 C6 1_555 1_555
O6 C11 1_555 1_555
O7 C3 1_555 1_555
O8 Zn1 1_555 1_555
N1 C34 1_555 1_555
N2 C10 1_555 1_555
N3 Zn2 1_555 1_555
N4 N5 1_555 1_555
N5 C26 1_555 1_555
N6 C12 1_555 1_555
C1 H1 1_555 1_555
C2 C5 1_555 1_555
C3 C4 1_555 1_555
N7 C16 1_555 1_555
C4 C1 1_555 1_555
C5 H2 1_555 1_555
C6 C2 1_555 1_555
C7 C2 1_555 1_555
H3 C7 1_555 1_555
C8 C14 1_555 1_555
C9 O8 1_555 1_555
C10 C18 1_555 1_555
C11 O3 1_555 1_555
C12 N4 1_555 1_555
C13 N2 1_555 1_555
H4 C13 1_555 1_555
C14 C7 1_555 1_555
H5 C14 1_555 1_555
C15 N3 1_555 1_555
H6 C15 1_555 1_555
C16 C35 1_555 1_555
C17 C9 1_555 1_555
C18 H7 1_555 1_555
C19 C12 1_555 1_555
C20 C8 1_555 1_555
C21 C18 1_555 1_555
H8 C21 1_555 1_555
C22 C5 1_555 1_555
H9 C22 1_555 1_555
C23 C1 1_555 1_555
H10 C23 1_555 1_555
C24 C11 1_555 1_555
C25 C17 1_555 1_555
H11 C25 1_555 1_555
C26 N6 1_555 1_555
C27 C23 1_555 1_555
C28 C24 1_555 1_555
H12 C28 1_555 1_555
C29 C27 1_555 1_555
C30 N2 1_555 1_555
H13 C30 1_555 1_555
C31 H14 1_555 1_555
C32 C24 1_555 1_555
H15 C32 1_555 1_555
C33 C20 1_555 1_555
H16 C33 1_555 1_555
C34 N7 1_555 1_555
H17 C34 1_555 1_555
C35 H18 1_555 1_555
C36 C26 1_555 1_555
C37 C4 1_555 1_555
H19 C37 1_555 1_555
C38 C25 1_555 1_555
H20 C38 1_555 1_555
C39 C10 1_555 1_555
H21 C39 1_555 1_555
C40 C19 1_555 1_555
H22 C40 1_555 1_555
C41 C16 1_555 1_555
H23 C41 1_555 1_555
C42 C27 1_555 1_555
H24 C42 1_555 1_555
C43 C20 1_555 1_555
H25 C43 1_555 1_555
C44 C29 1_555 1_555
H26 C44 1_555 1_555
C45 C31 1_555 1_555
H27 C45 1_555 1_555
C46 C17 1_555 1_555
H28 C46 1_555 1_555
C47 N1 1_555 1_555
H29 C47 1_555 1_555
C48 N7 1_555 1_555
H30 C48 1_555 1_555
C49 N4 1_555 1_555
H31 C49 1_555 1_555
H32 C49 1_555 1_555
H33 C49 1_555 1_555
N8 C50 1_555 1_555
C50 H34 1_555 1_555
C51 N8 1_555 1_555
H35 C51 1_555 1_555
H36 C51 1_555 1_555
H37 C51 1_555 1_555
O9 C50 1_555 1_555
C52 N8 1_555 1_555
H38 C52 1_555 1_555
H39 C52 1_555 1_555
H40 C52 1_555 1_555
N9 C53 1_555 1_555
O10 C53 1_555 1_555
C53 H41 1_555 1_555
C54 N9 1_555 1_555
H42 C54 1_555 1_555
H43 C54 1_555 1_555
H44 C54 1_555 1_555
C55 N9 1_555 1_555
H45 C55 1_555 1_555
H46 C55 1_555 1_555
H47 C55 1_555 1_555
O12 H48 1_555 1_555
H49 O12 1_555 1_555
Zn1B O5 1_555 1_555
Zn1B_2 O7 1_555 1_555
Zn1G N1 1_555 1_555
Zn2B O1 1_555 1_555
Zn2B_2 O4 1_555 1_555
O1B Zn2 1_555 1_555
O4B Zn2 1_555 1_555
O5B Zn1 1_555 1_555
O7B Zn1 1_555 1_555
N1G Zn1 1_555 1_555
N3 C30 1_555 1_555
C8 C22 1_555 1_555
C13 C15 1_555 1_555
C19 C21 1_555 1_555
C28 C33 1_555 1_555
C29 C38 1_555 1_555
C31 C41 1_555 1_555
C32 C43 1_555 1_555
C35 C36 1_555 1_555
C36 C45 1_555 1_555
C37 C42 1_555 1_555
C39 C40 1_555 1_555
C44 C46 1_555 1_555
C47 C48 1_555 1_555

#END
