
#######################################################################
#
#                 Cambridge Crystallographic Data Centre
#                                CCDC 
#
#######################################################################
#
# If this CIF has been generated from an entry in the Cambridge 
# Structural Database, then it will include bibliographic, chemical, 
# crystal, experimental, refinement or atomic coordinate data resulting 
# from the CCDC's data processing and validation procedures.
#
#######################################################################

data_TADYII
_chemical_formula_moiety         '(C35 H69 N21 Ni2 O2 W1)n'
_symmetry_cell_setting           tetragonal
_symmetry_space_group_name_H-M   'I 41/a'
_symmetry_Int_Tables_number      88
_space_group_name_Hall           '-I 4ad'
loop_
_symmetry_equiv_pos_site_id
_symmetry_equiv_pos_as_xyz
1 x,y,z
2 3/4-y,1/4+x,1/4+z
3 1/2-x,-y,1/2+z
4 3/4+y,3/4-x,3/4+z
5 1/2+x,1/2+y,1/2+z
6 1/4-y,3/4+x,3/4+z
7 -x,1/2-y,z
8 1/4+y,1/4-x,1/4+z
9 -x,-y,-z
10 1/4+y,3/4-x,3/4-z
11 1/2+x,y,1/2-z
12 1/4-y,1/4+x,1/4-z
13 1/2-x,1/2-y,1/2-z
14 3/4+y,1/4-x,1/4-z
15 x,1/2+y,-z
16 3/4-y,3/4+x,3/4-z
_cell_length_a                   19.1573(9)
_cell_length_b                   19.1573(9)
_cell_length_c                   16.6532(15)
_cell_angle_alpha                90
_cell_angle_beta                 90
_cell_angle_gamma                90
_cell_volume                     6111.76
loop_
_atom_site_label
_atom_site_type_symbol
_atom_site_fract_x
_atom_site_fract_y
_atom_site_fract_z
_atom_site_U_iso_or_equiv
_atom_site_thermal_displace_type
C1 C 0.4757(2) 0.64628(19) 0.0845(2) 0.0240 Uani
C2 C 0.56679(19) 0.7323(2) 0.0214(2) 0.0256 Uani
C3 C 0.3585(2) 0.4557(2) 0.0228(3) 0.0343 Uani
H1 H 0.3412 0.4996 0.0438 0.0410 Uiso
H2 H 0.3247 0.4195 0.0353 0.0410 Uiso
C4 C 0.4299(2) 0.4479(2) 0.1468(3) 0.0333 Uani
H3 H 0.4175 0.4957 0.1596 0.0400 Uiso
H4 H 0.3953 0.4178 0.1715 0.0400 Uiso
C5 C 0.5525(2) 0.4832(2) 0.1689(3) 0.0333 Uani
H5 H 0.5915 0.4719 0.2038 0.0400 Uiso
H6 H 0.5359 0.5293 0.1836 0.0400 Uiso
C6 C 0.3686(2) 0.4609(2) -0.0678(3) 0.0367 Uani
H7 H 0.3250 0.4736 -0.0935 0.0440 Uiso
H8 H 0.3837 0.4163 -0.0892 0.0440 Uiso
C7 C 0.5129(3) 0.3581(2) 0.1635(3) 0.0380 Uani
H9 H 0.5277 0.3544 0.1079 0.0450 Uiso
H10 H 0.4706 0.3307 0.1697 0.0450 Uiso
C8 C 0.5690(3) 0.3282(3) 0.2168(3) 0.0477 Uani
H11 H 0.5733 0.2790 0.2070 0.0570 Uiso
H12 H 0.5567 0.3357 0.2721 0.0570 Uiso
H13 H 0.6126 0.3507 0.2055 0.0570 Uiso
N1 N 0.46630(18) 0.59071(17) 0.05997(19) 0.0278 Uani
N2 N 0.60242(18) 0.72063(17) -0.03395(19) 0.0285 Uani
N3 N 0.42649(19) 0.43876(18) 0.0594(2) 0.0314 Uani
H21 H 0.4361 0.3933 0.0483 0.0380 Uiso
N4 N 0.49701(18) 0.43284(19) 0.18210(18) 0.0305 Uani
N5 N 0.42235(18) 0.51509(18) -0.0837(2) 0.0289 Uani
H22 H 0.4025 0.5573 -0.0733 0.0350 Uiso
Ni1 Ni 0.5000 0.5000 0.0000 0.0255 Uani
W1 W 0.5000 0.7500 0.1250 0.0203 Uani
C1F C 0.5243(2) 0.85372(19) 0.0845(2) 0.0240 Uani
C1K C 0.60372(19) 0.7257(2) 0.1655(2) 0.0240 Uani
C1M C 0.39628(19) 0.7743(2) 0.1655(2) 0.0240 Uani
C2M C 0.4823(2) 0.68321(19) 0.2286(2) 0.0256 Uani
C2K C 0.5177(2) 0.81679(19) 0.2286(2) 0.0256 Uani
C2F C 0.43321(19) 0.7677(2) 0.0214(2) 0.0256 Uani
C3H C 0.6415(2) 0.5443(2) -0.0228(3) 0.0343 Uani
C3F C 0.6415(2) 1.0443(2) 0.0228(3) 0.0343 Uani
C3N C 0.3585(2) 0.9557(2) -0.0228(3) 0.0343 Uani
H1H H 0.6588 0.5004 -0.0438 0.0410 Uiso
H1F H 0.6588 1.0004 0.0438 0.0410 Uiso
H1N H 0.3412 0.9996 -0.0438 0.0410 Uiso
H2H H 0.6753 0.5805 -0.0353 0.0410 Uiso
H2F H 0.6753 1.0805 0.0353 0.0410 Uiso
H2N H 0.3247 0.9195 -0.0353 0.0410 Uiso
C4H C 0.5701(2) 0.5521(2) -0.1468(3) 0.0333 Uani
C4F C 0.5701(2) 1.0521(2) 0.1468(3) 0.0333 Uani
C4N C 0.4299(2) 0.9479(2) -0.1468(3) 0.0333 Uani
H3H H 0.5825 0.5043 -0.1596 0.0400 Uiso
H3F H 0.5825 1.0043 0.1596 0.0400 Uiso
H3N H 0.4175 0.9957 -0.1596 0.0400 Uiso
H4H H 0.6047 0.5822 -0.1715 0.0400 Uiso
H4F H 0.6047 1.0822 0.1715 0.0400 Uiso
H4N H 0.3953 0.9178 -0.1715 0.0400 Uiso
C5H C 0.4475(2) 0.5168(2) -0.1689(3) 0.0333 Uani
C5F C 0.4475(2) 1.0168(2) 0.1689(3) 0.0333 Uani
C5N C 0.5525(2) 0.9832(2) -0.1689(3) 0.0333 Uani
H5H H 0.4085 0.5281 -0.2038 0.0400 Uiso
H5F H 0.4085 1.0281 0.2038 0.0400 Uiso
H5N H 0.5915 0.9719 -0.2038 0.0400 Uiso
H6H H 0.4641 0.4707 -0.1836 0.0400 Uiso
H6F H 0.4641 0.9707 0.1836 0.0400 Uiso
H6N H 0.5359 1.0293 -0.1836 0.0400 Uiso
C6H C 0.6314(2) 0.5391(2) 0.0678(3) 0.0367 Uani
C6F C 0.6314(2) 1.0391(2) -0.0678(3) 0.0367 Uani
C6N C 0.3686(2) 0.9609(2) 0.0678(3) 0.0367 Uani
H7H H 0.6750 0.5264 0.0935 0.0440 Uiso
H7F H 0.6750 1.0264 -0.0935 0.0440 Uiso
H7N H 0.3250 0.9736 0.0935 0.0440 Uiso
H8H H 0.6163 0.5837 0.0892 0.0440 Uiso
H8F H 0.6163 1.0837 -0.0892 0.0440 Uiso
H8N H 0.3837 0.9163 0.0892 0.0440 Uiso
C7H C 0.4871(3) 0.6419(2) -0.1635(3) 0.0380 Uani
C7F C 0.4871(3) 1.1419(2) 0.1635(3) 0.0380 Uani
C7N C 0.5129(3) 0.8581(2) -0.1635(3) 0.0380 Uani
H9H H 0.4723 0.6456 -0.1079 0.0450 Uiso
H9F H 0.4723 1.1456 0.1079 0.0450 Uiso
H9N H 0.5277 0.8544 -0.1079 0.0450 Uiso
H10H H 0.5294 0.6693 -0.1697 0.0450 Uiso
H10F H 0.5294 1.1693 0.1697 0.0450 Uiso
H10N H 0.4706 0.8307 -0.1697 0.0450 Uiso
C8H C 0.4310(3) 0.6718(3) -0.2168(3) 0.0477 Uani
C8F C 0.4310(3) 1.1718(3) 0.2168(3) 0.0477 Uani
C8N C 0.5690(3) 0.8282(3) -0.2168(3) 0.0477 Uani
H11H H 0.4267 0.7210 -0.2070 0.0570 Uiso
H11F H 0.4267 1.2210 0.2070 0.0570 Uiso
H11N H 0.5733 0.7790 -0.2070 0.0570 Uiso
H12H H 0.4433 0.6643 -0.2721 0.0570 Uiso
H12F H 0.4433 1.1643 0.2721 0.0570 Uiso
H12N H 0.5567 0.8357 -0.2721 0.0570 Uiso
H13H H 0.3874 0.6493 -0.2055 0.0570 Uiso
H13F H 0.3874 1.1493 0.2055 0.0570 Uiso
H13N H 0.6126 0.8507 -0.2055 0.0570 Uiso
N1F N 0.53370(18) 0.90929(17) 0.05997(19) 0.0278 Uani
N1K N 0.65929(17) 0.71630(18) 0.19003(19) 0.0278 Uani
N1M N 0.34071(17) 0.78370(18) 0.19003(19) 0.0278 Uani
N1H N 0.53370(18) 0.40929(17) -0.05997(19) 0.0278 Uani
N1N N 0.46630(18) 1.09071(17) -0.05997(19) 0.0278 Uani
N2M N 0.47063(17) 0.64758(18) 0.28395(19) 0.0285 Uani
N2K N 0.52937(17) 0.85242(18) 0.28395(19) 0.0285 Uani
N2F N 0.39758(18) 0.77937(17) -0.03395(19) 0.0285 Uani
N3H N 0.57351(19) 0.56124(18) -0.0594(2) 0.0314 Uani
N3F N 0.57351(19) 1.06124(18) 0.0594(2) 0.0314 Uani
N3N N 0.42649(19) 0.93876(18) -0.0594(2) 0.0314 Uani
H21H H 0.5639 0.6067 -0.0483 0.0380 Uiso
H21F H 0.5639 1.1067 0.0483 0.0380 Uiso
H21N H 0.4361 0.8933 -0.0483 0.0380 Uiso
N4H N 0.50299(18) 0.56716(19) -0.18210(18) 0.0305 Uani
N4F N 0.50299(18) 1.06716(19) 0.18210(18) 0.0305 Uani
N4N N 0.49701(18) 0.93284(19) -0.18210(18) 0.0305 Uani
N5H N 0.57765(18) 0.48491(18) 0.0837(2) 0.0289 Uani
N5F N 0.57765(18) 0.98491(18) -0.0837(2) 0.0289 Uani
N5N N 0.42235(18) 1.01509(18) 0.0837(2) 0.0289 Uani
H22H H 0.5975 0.4427 0.0733 0.0350 Uiso
H22F H 0.5975 0.9427 -0.0733 0.0350 Uiso
H22N H 0.4025 1.0573 0.0733 0.0350 Uiso
Ni1F Ni 0.5000 1.0000 0.0000 0.0255 Uani
Ni1G Ni 0.7500 0.7500 0.2500 0.0255 Uani
Ni1A Ni 0.2500 0.7500 0.2500 0.0255 Uani
C9 C 0.4768(3) 0.4734(3) 0.3849(3) 0.0380 Uani
H14 H 0.4588 0.5156 0.3617 0.0570 Uiso
H15 H 0.4549 0.4655 0.4359 0.0570 Uiso
H16 H 0.4672 0.4349 0.3497 0.0570 Uiso
C10 C 0.5879(2) 0.4244(3) 0.4398(3) 0.0393 Uani
H17 H 0.5876 0.3825 0.4083 0.0590 Uiso
H18 H 0.5644 0.4161 0.4898 0.0590 Uiso
H19 H 0.6353 0.4381 0.4502 0.0590 Uiso
C11 C 0.5863(3) 0.5335(3) 0.3638(3) 0.0380 Uani
H20 H 0.5599 0.5679 0.3387 0.0460 Uiso
N6 N 0.5521(2) 0.4801(2) 0.3960(2) 0.0364 Uani
O1 O 0.65028(19) 0.54127(18) 0.36460(18) 0.0363 Uani
O2 O 0.68040(19) 0.51356(18) 0.54468(19) 0.0452 Uani
H23 H 0.6610 0.5261 0.5011 0.0540 Uiso
H24 H 0.7225 0.5276 0.5451 0.0540 Uiso
loop_
_atom_site_aniso_label
_atom_site_aniso_U_11
_atom_site_aniso_U_22
_atom_site_aniso_U_33
_atom_site_aniso_U_23
_atom_site_aniso_U_13
_atom_site_aniso_U_12
C1 0.0256(19) 0.0175(18) 0.0290(18) 0.0005(14) 0.0060(13) 0.0030(13)
C2 0.019 0.0314 0.0265 -0.0039 0.0026 -0.004
C3 0.029(2) 0.032(2) 0.042(2) -0.0089(18) -0.0013(17) -0.0046(16)
C4 0.034(2) 0.035(2) 0.031(2) 0.0054(19) 0.0044(19) 0.0068(18)
C5 0.034(2) 0.031(2) 0.0349(19) -0.0056(16) -0.0054(17) 0.0078(18)
C6 0.034 0.033 0.043 -0.0064 -0.0128 -0.0017
C7 0.050(3) 0.031(2) 0.033(2) 0.0047(16) -0.0002(18) 0.0063(19)
C8 0.053(3) 0.040(3) 0.050(3) 0.009(2) -0.010(2) 0.012(2)
N1 0.0304(17) 0.0187(16) 0.0343(16) 0.0007(13) 0.0012(13) -0.0030(13)
N2 0.0328 0.0217 0.0311 0.0012 0.0054 -0.0088
N3 0.039(2) 0.0249(17) 0.0302(16) 0.0005(13) 0.0060(14) -0.0009(15)
N4 0.0318(18) 0.0334(18) 0.0263(16) 0.0052(13) -0.0048(13) 0.0030(14)
N5 0.0285 0.0212 0.0371 -0.0049 -0.0014 0.0045
Ni1 0.0275(4) 0.0202(3) 0.0288(4) -0.0018(2) -0.0017(2) -0.0004(3)
W1 0.01774(15) 0.01774(15) 0.0254(2) 0.000 0.000 0.000
C1F 0.0256 0.0175 0.029 -0.0005 -0.006 0.003
C1K 0.0175 0.0256 0.029 -0.006 0.0005 -0.003
C1M 0.0175 0.0256 0.029 0.006 -0.0005 -0.003
C2M 0.0314 0.019 0.0265 0.0026 0.0039 0.004
C2K 0.0314 0.019 0.0265 -0.0026 -0.0039 0.004
C2F 0.0190(16) 0.0314(19) 0.0265(16) 0.0039(14) -0.0026(14) -0.0040(15)
C3H 0.029 0.032 0.042 -0.0089 -0.0013 -0.0046
C3F 0.029 0.032 0.042 0.0089 0.0013 -0.0046
C3N 0.029 0.032 0.042 0.0089 0.0013 -0.0046
C4H 0.034 0.035 0.031 0.0054 0.0044 0.0068
C4F 0.034 0.035 0.031 -0.0054 -0.0044 0.0068
C4N 0.034 0.035 0.031 -0.0054 -0.0044 0.0068
C5H 0.034 0.031 0.0349 -0.0056 -0.0054 0.0078
C5F 0.034 0.031 0.0349 0.0056 0.0054 0.0078
C5N 0.034 0.031 0.0349 0.0056 0.0054 0.0078
C6H 0.034(2) 0.033(2) 0.043(2) -0.0064(17) -0.0128(17) -0.0017(17)
C6F 0.034 0.033 0.043 0.0064 0.0128 -0.0017
C6N 0.034 0.033 0.043 0.0064 0.0128 -0.0017
C7H 0.05 0.031 0.033 0.0047 -0.0002 0.0063
C7F 0.05 0.031 0.033 -0.0047 0.0002 0.0063
C7N 0.05 0.031 0.033 -0.0047 0.0002 0.0063
C8H 0.053 0.04 0.05 0.009 -0.01 0.012
C8F 0.053 0.04 0.05 -0.009 0.01 0.012
C8N 0.053 0.04 0.05 -0.009 0.01 0.012
N1F 0.0304 0.0187 0.0343 -0.0007 -0.0012 -0.003
N1K 0.0187 0.0304 0.0343 -0.0012 0.0007 0.003
N1M 0.0187 0.0304 0.0343 0.0012 -0.0007 0.003
N1H 0.0304 0.0187 0.0343 0.0007 0.0012 -0.003
N1N 0.0304 0.0187 0.0343 -0.0007 -0.0012 -0.003
N2M 0.0217 0.0328 0.0311 0.0054 -0.0012 0.0088
N2K 0.0217 0.0328 0.0311 -0.0054 0.0012 0.0088
N2F 0.0328(18) 0.0217(16) 0.0311(17) -0.0012(12) -0.0054(14) -0.0088(13)
N3H 0.039 0.0249 0.0302 0.0005 0.006 -0.0009
N3F 0.039 0.0249 0.0302 -0.0005 -0.006 -0.0009
N3N 0.039 0.0249 0.0302 -0.0005 -0.006 -0.0009
N4H 0.0318 0.0334 0.0263 0.0052 -0.0048 0.003
N4F 0.0318 0.0334 0.0263 -0.0052 0.0048 0.003
N4N 0.0318 0.0334 0.0263 -0.0052 0.0048 0.003
N5H 0.0285(18) 0.0212(16) 0.0371(18) -0.0049(13) -0.0014(14) 0.0045(13)
N5F 0.0285 0.0212 0.0371 0.0049 0.0014 0.0045
N5N 0.0285 0.0212 0.0371 0.0049 0.0014 0.0045
Ni1F 0.0275 0.0202 0.0288 0.0018 0.0017 -0.0004
Ni1G 0.0202 0.0275 0.0288 0.0017 -0.0018 0.0004
Ni1A 0.0202 0.0275 0.0288 -0.0017 0.0018 0.0004
C9 0.040(3) 0.045(3) 0.029(2) 0.0038(18) 0.0060(17) 0.004(2)
C10 0.038(2) 0.039(2) 0.041(2) 0.0067(19) 0.0063(18) 0.0070(19)
C11 0.039(3) 0.040(3) 0.035(2) 0.0106(19) -0.0135(19) -0.006(2)
N6 0.034(2) 0.038(2) 0.0371(16) 0.0126(17) 0.0008(17) 0.0022(16)
O1 0.0324(19) 0.0324(18) 0.0441(15) 0.0102(13) 0.0066(12) 0.0052(14)
O2 0.0464(19) 0.0401(18) 0.0491(18) 0.0077(14) -0.0032(15) 0.0023(15)
loop_
_geom_bond_atom_site_label_1
_geom_bond_atom_site_label_2
_geom_bond_site_symmetry_1
_geom_bond_site_symmetry_2
C1 N1 1_555 1_555
C2 N2 1_555 1_555
C3 H1 1_555 1_555
H2 C3 1_555 1_555
C4 H3 1_555 1_555
H4 C4 1_555 1_555
C5 H5 1_555 1_555
H6 C5 1_555 1_555
C6 C3 1_555 1_555
H7 C6 1_555 1_555
H8 C6 1_555 1_555
C7 H9 1_555 1_555
H10 C7 1_555 1_555
C8 C7 1_555 1_555
H11 C8 1_555 1_555
H12 C8 1_555 1_555
H13 C8 1_555 1_555
C9 H14 1_555 1_555
H15 C9 1_555 1_555
H16 C9 1_555 1_555
C10 H17 1_555 1_555
H18 C10 1_555 1_555
H19 C10 1_555 1_555
C11 H20 1_555 1_555
N1 Ni1 1_555 1_555
N3 C3 1_555 1_555
H21 N3 1_555 1_555
N4 C4 1_555 1_555
N5 C6 1_555 1_555
H22 N5 1_555 1_555
N6 C9 1_555 1_555
Ni1 N3 1_555 1_555
O1 C11 1_555 1_555
O2 H23 1_555 1_555
H24 O2 1_555 1_555
W1 C1 1_555 1_555
C1F W1 1_555 1_555
C1K W1 1_555 1_555
C1M W1 1_555 1_555
C2M W1 1_555 1_555
C2K W1 1_555 1_555
C2F W1 1_555 1_555
C3H H1H 1_555 1_555
C3F H1F 1_555 1_555
C3N H1N 1_555 1_555
H2H C3H 1_555 1_555
H2F C3F 1_555 1_555
H2N C3N 1_555 1_555
C4H H3H 1_555 1_555
C4F H3F 1_555 1_555
C4N H3N 1_555 1_555
H4H C4H 1_555 1_555
H4F C4F 1_555 1_555
H4N C4N 1_555 1_555
C5H N5 1_555 1_555
C5F H5F 1_555 1_555
C5N H5N 1_555 1_555
H5H C5H 1_555 1_555
H6H C5H 1_555 1_555
H6F C5F 1_555 1_555
H6N C5N 1_555 1_555
C6H C3H 1_555 1_555
C6F C3F 1_555 1_555
C6N C3N 1_555 1_555
H7H C6H 1_555 1_555
H7F C6F 1_555 1_555
H7N C6N 1_555 1_555
H8H C6H 1_555 1_555
H8F C6F 1_555 1_555
H8N C6N 1_555 1_555
C7H H9H 1_555 1_555
C7F H9F 1_555 1_555
C7N H9N 1_555 1_555
H10H C7H 1_555 1_555
H10F C7F 1_555 1_555
H10N C7N 1_555 1_555
C8H C7H 1_555 1_555
C8F C7F 1_555 1_555
C8N C7N 1_555 1_555
H11H C8H 1_555 1_555
H11F C8F 1_555 1_555
H11N C8N 1_555 1_555
H12H C8H 1_555 1_555
H12F C8F 1_555 1_555
H12N C8N 1_555 1_555
H13H C8H 1_555 1_555
H13F C8F 1_555 1_555
H13N C8N 1_555 1_555
N1F C1F 1_555 1_555
N1K C1K 1_555 1_555
N1M C1M 1_555 1_555
N1H Ni1 1_555 1_555
N1N Ni1F 1_555 1_555
N2M C2M 1_555 1_555
N2K C2K 1_555 1_555
N2F C2F 1_555 1_555
N3H Ni1 1_555 1_555
N3F C3F 1_555 1_555
N3N C3N 1_555 1_555
H21H N3H 1_555 1_555
H21F N3F 1_555 1_555
H21N N3N 1_555 1_555
N4H C4H 1_555 1_555
N4F C4F 1_555 1_555
N4N C4N 1_555 1_555
N5H C5 1_555 1_555
N5F C5N 1_555 1_555
N5N C5F 1_555 1_555
H22H N5H 1_555 1_555
H22F N5F 1_555 1_555
H22N N5N 1_555 1_555
Ni1F N1F 1_555 1_555
Ni1G N1K 1_555 1_555
Ni1A N1M 1_555 1_555
C2 W1 1_555 1_555
C4 N3 1_555 1_555
C5 N4 1_555 1_555
C7 N4 1_555 1_555
C10 N6 1_555 1_555
C11 N6 1_555 1_555
N5 Ni1 1_555 1_555
Ni1 N5H 1_555 1_555
C3H N3H 1_555 1_555
C4H N3H 1_555 1_555
C4F N3F 1_555 1_555
C4N N3N 1_555 1_555
C5H N4H 1_555 1_555
C5F N4F 1_555 1_555
C5N N4N 1_555 1_555
C6H N5H 1_555 1_555
C6F N5F 1_555 1_555
C6N N5N 1_555 1_555
C7H N4H 1_555 1_555
C7F N4F 1_555 1_555
C7N N4N 1_555 1_555
N3F Ni1F 1_555 1_555
N3N Ni1F 1_555 1_555
N5F Ni1F 1_555 1_555
N5N Ni1F 1_555 1_555

#END
