
#######################################################################
#
#                 Cambridge Crystallographic Data Centre
#                                CCDC 
#
#######################################################################
#
# If this CIF has been generated from an entry in the Cambridge 
# Structural Database, then it will include bibliographic, chemical, 
# crystal, experimental, refinement or atomic coordinate data resulting 
# from the CCDC's data processing and validation procedures.
#
#######################################################################

data_TADYEE
_chemical_formula_moiety         '(C35 H71 Mo1 N21 Ni2 O7)n'
_symmetry_cell_setting           monoclinic
_symmetry_space_group_name_H-M   'C 2/c'
_symmetry_Int_Tables_number      15
_space_group_name_Hall           '-C 2yc'
loop_
_symmetry_equiv_pos_site_id
_symmetry_equiv_pos_as_xyz
1 x,y,z
2 -x,y,1/2-z
3 1/2+x,1/2+y,z
4 1/2-x,1/2+y,1/2-z
5 -x,-y,-z
6 x,-y,1/2+z
7 1/2-x,1/2-y,-z
8 1/2+x,1/2-y,1/2+z
_cell_length_a                   17.267(2)
_cell_length_b                   25.080(3)
_cell_length_c                   16.686(5)
_cell_angle_alpha                90
_cell_angle_beta                 119.747(3)
_cell_angle_gamma                90
_cell_volume                     6273.77
loop_
_atom_site_label
_atom_site_type_symbol
_atom_site_fract_x
_atom_site_fract_y
_atom_site_fract_z
_atom_site_U_iso_or_equiv
_atom_site_thermal_displace_type
C1 C 0.9157(2) 0.81805(15) 0.1441(2) 0.0430 Uani
C2 C 0.9117(2) 0.83286(16) 0.2862(3) 0.0412 Uani
C3 C 1.0179(2) 0.91207(16) 0.3706(3) 0.0462 Uani
C4 C 1.1107(2) 0.92542(16) 0.2982(3) 0.0453 Uani
C5 C 0.6710(3) 0.83553(16) 0.0524(3) 0.0475 Uani
H1 H 0.7248 0.8531 0.0985 0.0570 Uiso
H2 H 0.6210 0.8595 0.0343 0.0570 Uiso
C6 C 0.7158(3) 0.86244(16) -0.0663(3) 0.0495 Uani
H3 H 0.7751 0.8722 -0.0180 0.0590 Uiso
H4 H 0.6788 0.8940 -0.0810 0.0590 Uiso
C7 C 0.7930(2) 0.80722(15) -0.1348(3) 0.0446 Uani
H5 H 0.7987 0.8048 -0.1897 0.0540 Uiso
H6 H 0.8499 0.8187 -0.0840 0.0540 Uiso
C8 C 0.6565(3) 0.78526(16) 0.0897(3) 0.0481 Uani
H7 H 0.6006 0.7692 0.0443 0.0580 Uiso
H8 H 0.6525 0.7929 0.1445 0.0580 Uiso
C9 C 1.0795(2) 0.93114(15) 0.6437(3) 0.0441 Uani
H9 H 1.0677 0.9061 0.5955 0.0530 Uiso
H10 H 1.1221 0.9160 0.7020 0.0530 Uiso
C10 C 1.1966(2) 0.97628(15) 0.6266(3) 0.0404 Uani
H11 H 1.1937 0.9461 0.5889 0.0490 Uiso
H12 H 1.2445 0.9704 0.6893 0.0490 Uiso
C11 C 1.1576(3) 1.03725(16) 0.4878(3) 0.0467 Uani
H13 H 1.1866 1.0647 0.4711 0.0560 Uiso
H14 H 1.1549 1.0051 0.4542 0.0560 Uiso
C12 C 0.9940(2) 0.94585(17) 0.6403(3) 0.0491 Uani
H15 H 0.9778 0.9203 0.6722 0.0590 Uiso
H16 H 0.9981 0.9807 0.6660 0.0590 Uiso
C13 C 0.6384(2) 0.83230(15) -0.2329(3) 0.0432 Uani
H17 H 0.6515 0.8041 -0.2643 0.0520 Uiso
H18 H 0.5979 0.8178 -0.2140 0.0520 Uiso
C14 C 0.5916(2) 0.87709(15) -0.3008(3) 0.0476 Uani
H19 H 0.6302 0.8904 -0.3231 0.0570 Uiso
H20 H 0.5806 0.9061 -0.2693 0.0570 Uiso
C15 C 1.2321(2) 1.07544(14) 0.6413(2) 0.0366 Uani
H21 H 1.2319 1.1044 0.6027 0.0440 Uiso
H22 H 1.1848 1.0824 0.6551 0.0440 Uiso
C16 C 1.3191(2) 1.07650(15) 0.7297(3) 0.0437 Uani
H23 H 1.3666 1.0639 0.7196 0.0520 Uiso
H24 H 1.3162 1.0535 0.7749 0.0520 Uiso
Mo1 Mo 1.0000 0.871293(16) 0.2500 0.0345 Uani
N1 N 0.86863(19) 0.78969(12) 0.0836(2) 0.0442 Uani
N2 N 0.8656(2) 0.81038(13) 0.3023(2) 0.0429 Uani
N3 N 1.02673(19) 0.93651(13) 0.4334(2) 0.0402 Uani
N4 N 1.1657(2) 0.95500(13) 0.3194(2) 0.0460 Uani
N5 N 0.6794(2) 0.82098(13) -0.0269(2) 0.0490 Uani
H36 H 0.6231 0.8135 -0.0729 0.0590 Uiso
N6 N 0.7215(2) 0.84763(14) -0.1502(2) 0.0527 Uani
N7 N 0.7312(2) 0.74706(12) 0.1133(2) 0.0445 Uani
H37 H 0.7812 0.7592 0.1638 0.0530 Uiso
N8 N 1.10884(18) 0.98352(11) 0.6246(2) 0.0358 Uani
H38 H 1.1145 1.0082 0.6672 0.0430 Uiso
N9 N 1.2115(2) 1.02672(13) 0.5888(2) 0.0443 Uani
N10 N 0.9354(2) 0.94522(13) 0.5400(2) 0.0446 Uani
H39 H 0.9349 0.9124 0.5166 0.0530 Uiso
Ni1 Ni 0.7500 0.7500 0.0000 0.0378 Uani
Ni2 Ni 1.0000 1.0000 0.5000 0.0351 Uani
O1 O 0.51542(18) 0.86184(12) -0.3716(2) 0.0561 Uani
H40 H 0.4684 0.8770 -0.3640 0.0670 Uiso
O2 O 1.33537(16) 1.12818(10) 0.76130(18) 0.0441 Uani
H41 H 1.2861 1.1395 0.7685 0.0530 Uiso
C1A C 1.0843(2) 0.81805(15) 0.3559(2) 0.0430 Uani
C2A C 1.0883(2) 0.83286(16) 0.2138(3) 0.0412 Uani
C3A C 0.9821(2) 0.91207(16) 0.1294(3) 0.0462 Uani
C4A C 0.8893(2) 0.92542(16) 0.2018(3) 0.0453 Uani
C5F C 0.8290(3) 0.66447(16) -0.0524(3) 0.0475 Uani
H1F H 0.7752 0.6469 -0.0985 0.0570 Uiso
H2F H 0.8790 0.6405 -0.0343 0.0570 Uiso
C6F C 0.7842(3) 0.63756(16) 0.0663(3) 0.0495 Uani
H3F H 0.7249 0.6278 0.0180 0.0590 Uiso
H4F H 0.8212 0.6060 0.0810 0.0590 Uiso
C7F C 0.7070(2) 0.69278(15) 0.1348(3) 0.0446 Uani
H5F H 0.7013 0.6952 0.1897 0.0540 Uiso
H6F H 0.6501 0.6813 0.0840 0.0540 Uiso
C8F C 0.8435(3) 0.71474(16) -0.0897(3) 0.0481 Uani
H7F H 0.8994 0.7308 -0.0443 0.0580 Uiso
H8F H 0.8475 0.7071 -0.1445 0.0580 Uiso
C9D C 0.9205(2) 1.06886(15) 0.3563(3) 0.0441 Uani
H9D H 0.9323 1.0939 0.4045 0.0530 Uiso
H10D H 0.8779 1.0840 0.2980 0.0530 Uiso
C10D C 0.8034(2) 1.02372(15) 0.3734(3) 0.0404 Uani
H11D H 0.8063 1.0539 0.4111 0.0490 Uiso
H12D H 0.7555 1.0296 0.3107 0.0490 Uiso
C11D C 0.8424(3) 0.96275(16) 0.5122(3) 0.0467 Uani
H13D H 0.8134 0.9353 0.5289 0.0560 Uiso
H14D H 0.8451 0.9949 0.5458 0.0560 Uiso
C12D C 1.0060(2) 1.05415(17) 0.3597(3) 0.0491 Uani
H15D H 1.0222 1.0797 0.3278 0.0590 Uiso
H16D H 1.0019 1.0193 0.3340 0.0590 Uiso
C13F C 0.8616(2) 0.66770(15) 0.2329(3) 0.0432 Uani
H17F H 0.8485 0.6959 0.2643 0.0520 Uiso
H18F H 0.9021 0.6822 0.2140 0.0520 Uiso
C14F C 0.9084(2) 0.62291(15) 0.3008(3) 0.0476 Uani
H19F H 0.8698 0.6096 0.3231 0.0570 Uiso
H20F H 0.9194 0.5939 0.2693 0.0570 Uiso
C15D C 0.7679(2) 0.92456(14) 0.3587(2) 0.0366 Uani
H21D H 0.7681 0.8956 0.3973 0.0440 Uiso
H22D H 0.8152 0.9176 0.3449 0.0440 Uiso
C16D C 0.6809(2) 0.92350(15) 0.2703(3) 0.0437 Uani
H23D H 0.6334 0.9361 0.2804 0.0520 Uiso
H24D H 0.6838 0.9465 0.2251 0.0520 Uiso
N1A N 1.13137(19) 0.78969(12) 0.4164(2) 0.0442 Uani
N1F N 0.63137(19) 0.71031(12) -0.0836(2) 0.0442 Uani
N2A N 1.1344(2) 0.81038(13) 0.1977(2) 0.0429 Uani
N3A N 0.97327(19) 0.93651(13) 0.0666(2) 0.0402 Uani
N3D N 0.97327(19) 1.06349(13) 0.5666(2) 0.0402 Uani
N4A N 0.8343(2) 0.95500(13) 0.1806(2) 0.0460 Uani
N5F N 0.8206(2) 0.67902(13) 0.0269(2) 0.0490 Uani
H36F H 0.8769 0.6865 0.0729 0.0590 Uiso
N6F N 0.7785(2) 0.65237(14) 0.1502(2) 0.0527 Uani
N7F N 0.7688(2) 0.75294(12) -0.1133(2) 0.0445 Uani
H37F H 0.7188 0.7408 -0.1638 0.0530 Uiso
N8D N 0.89116(18) 1.01648(11) 0.3754(2) 0.0358 Uani
H38D H 0.8855 0.9918 0.3328 0.0430 Uiso
N9D N 0.7885(2) 0.97328(13) 0.4112(2) 0.0443 Uani
N10D N 1.0646(2) 1.05478(13) 0.4600(2) 0.0446 Uani
H39D H 1.0651 1.0876 0.4834 0.0530 Uiso
Ni1A Ni 1.2500 0.7500 0.5000 0.0378 Uani
Ni2A Ni 1.0000 1.0000 0.0000 0.0351 Uani
O1F O 0.98458(18) 0.63816(12) 0.3716(2) 0.0561 Uani
H40F H 1.0316 0.6230 0.3640 0.0670 Uiso
O2D O 0.66463(16) 0.87182(10) 0.23870(18) 0.0441 Uani
H41D H 0.7139 0.8605 0.2315 0.0530 Uiso
C17 C 0.5658(2) 0.89279(15) 0.4761(3) 0.0406 Uani
H25 H 0.5375 0.8859 0.5121 0.0610 Uiso
H26 H 0.6115 0.8667 0.4902 0.0610 Uiso
H27 H 0.5223 0.8909 0.4116 0.0610 Uiso
C18 C 0.6901(3) 0.95671(17) 0.5893(3) 0.0557 Uani
H28 H 0.7180 0.9235 0.6174 0.0830 Uiso
H29 H 0.6751 0.9757 0.6296 0.0830 Uiso
H30 H 0.7305 0.9777 0.5785 0.0830 Uiso
C19 C 0.5611(3) 0.99309(17) 0.4434(3) 0.0510 Uani
H31 H 0.5048 0.9887 0.3920 0.0610 Uiso
N11 N 0.6057(2) 0.94590(15) 0.4978(2) 0.0564 Uani
O5 O 0.59359(16) 1.03805(11) 0.46094(18) 0.0491 Uani
O3 O 0.9507(3) 0.7254(2) 0.4359(4) 0.0471 Uani
H42 H 0.9257 0.7506 0.3973 0.0570 Uiso
H43 H 0.9724 0.7030 0.4142 0.0710 Uiso
O4 O 0.7619(3) 0.8285(2) 0.6161(4) 0.0467 Uani
H44 H 0.7326 0.8172 0.5609 0.0560 Uiso
H45 H 0.7574 0.8064 0.6521 0.0560 Uiso
loop_
_atom_site_aniso_label
_atom_site_aniso_U_11
_atom_site_aniso_U_22
_atom_site_aniso_U_33
_atom_site_aniso_U_23
_atom_site_aniso_U_13
_atom_site_aniso_U_12
C1 0.0448(19) 0.042(2) 0.0315(19) -0.0024(16) 0.0108(15) -0.0035(16)
C2 0.0462(19) 0.046(2) 0.0345(18) -0.0153(16) 0.0224(16) -0.0102(17)
C3 0.047(2) 0.042(2) 0.036(2) -0.0087(17) 0.0103(16) -0.0117(16)
C4 0.0405(19) 0.051(2) 0.0347(19) -0.0056(17) 0.0112(16) -0.0043(17)
C5 0.0475 0.043 0.045 0.0036 0.0177 0.0096
C6 0.047 0.049 0.042 -0.0015 0.0142 0.0085
C7 0.0464 0.049 0.043 -0.0215 0.0257 -0.0184
C8 0.048(2) 0.044(2) 0.046(2) -0.0038(17) 0.0186(17) -0.0040(17)
C9 0.0435 0.041 0.037 0.0037 0.0118 -0.004
C10 0.0469 0.0384 0.0389 -0.0102 0.0235 -0.0148
C11 0.056 0.04 0.047 0.0133 0.0277 0.0105
C12 0.0435(19) 0.049(2) 0.043(2) 0.0022(17) 0.0124(17) -0.0026(16)
C13 0.0404 0.041 0.048 -0.0096 0.0218 -0.0045
C14 0.045 0.04 0.048 -0.0183 0.0157 -0.0155
C15 0.0409 0.037 0.0384 -0.0063 0.0246 -0.0002
C16 0.0454 0.042 0.044 -0.0037 0.0225 -0.0141
Mo1 0.0349(2) 0.0328(2) 0.0326(2) 0.000 0.01440(17) 0.000
N1 0.0361(14) 0.0396(17) 0.0442(18) -0.0091(14) 0.0102(13) -0.0070(13)
N2 0.0421(15) 0.0460(18) 0.0397(17) -0.0130(14) 0.0195(14) -0.0115(14)
N3 0.0438(15) 0.0405(17) 0.0410(18) -0.0029(14) 0.0245(14) -0.0102(13)
N4 0.0432(16) 0.0416(17) 0.0406(17) -0.0037(14) 0.0113(14) -0.0017(14)
N5 0.0455 0.0465 0.0389 -0.0028 0.0086 0.0003
N6 0.0481 0.049 0.0463 -0.0129 0.0122 -0.0151
N7 0.0447(16) 0.0453(18) 0.0428(18) -0.0096(14) 0.0212(14) -0.0133(14)
N8 0.0366 0.034 0.035 0.0054 0.0164 0.0077
N9 0.0431 0.0454 0.0459 -0.0109 0.0232 -0.0153
N10 0.0475(16) 0.0402(17) 0.0521(19) -0.0128(14) 0.0293(15) -0.0176(13)
Ni1 0.0352(3) 0.0342(3) 0.0343(3) -0.0108(3) 0.0098(3) -0.0103(2)
Ni2 0.0349(3) 0.0337(3) 0.0342(3) 0.0091(3) 0.0152(3) 0.0101(2)
O1 0.0513 0.0514 0.0507 -0.0147 0.0139 -0.0153
O2 0.0477 0.0432 0.0488 -0.0032 0.0296 -0.0093
C1A 0.0448 0.042 0.0315 0.0024 0.0108 0.0035
C2A 0.0462 0.046 0.0345 0.0153 0.0224 0.0102
C3A 0.047 0.042 0.036 0.0087 0.0103 0.0117
C4A 0.0405 0.051 0.0347 0.0056 0.0112 0.0043
C5F 0.0475(19) 0.043(2) 0.045(2) 0.0036(17) 0.0177(17) 0.0096(17)
C6F 0.047(2) 0.049(2) 0.042(2) -0.0015(18) 0.0142(17) 0.0085(17)
C7F 0.0464(19) 0.049(2) 0.043(2) -0.0215(17) 0.0257(17) -0.0184(16)
C8F 0.048 0.044 0.046 -0.0038 0.0186 -0.004
C9D 0.0435(19) 0.041(2) 0.0370(19) 0.0037(16) 0.0118(16) -0.0040(15)
C10D 0.0469(19) 0.0384(19) 0.0389(19) -0.0102(15) 0.0235(16) -0.0148(16)
C11D 0.056(2) 0.040(2) 0.047(2) 0.0133(17) 0.0277(18) 0.0105(17)
C12D 0.0435 0.049 0.043 0.0022 0.0124 -0.0026
C13F 0.0404(17) 0.041(2) 0.048(2) -0.0096(17) 0.0218(16) -0.0045(15)
C14F 0.0450(19) 0.040(2) 0.048(2) -0.0183(17) 0.0157(17) -0.0155(16)
C15D 0.0409(17) 0.0370(19) 0.0384(19) -0.0063(14) 0.0246(15) -0.0002(14)
C16D 0.0454(19) 0.042(2) 0.044(2) -0.0037(16) 0.0225(17) -0.0141(16)
N1A 0.0361 0.0396 0.0442 0.0091 0.0102 0.007
N1F 0.0361 0.0396 0.0442 -0.0091 0.0102 -0.007
N2A 0.0421 0.046 0.0397 0.013 0.0195 0.0115
N3A 0.0438 0.0405 0.041 0.0029 0.0245 0.0102
N3D 0.0438 0.0405 0.041 -0.0029 0.0245 -0.0102
N4A 0.0432 0.0416 0.0406 0.0037 0.0113 0.0017
N5F 0.0455(16) 0.0465(19) 0.0389(17) -0.0028(15) 0.0086(14) 0.0003(14)
N6F 0.0481(17) 0.049(2) 0.0463(19) -0.0129(16) 0.0122(15) -0.0151(15)
N7F 0.0447 0.0453 0.0428 -0.0096 0.0212 -0.0133
N8D 0.0366(14) 0.0340(15) 0.0350(16) 0.0054(12) 0.0164(13) 0.0077(11)
N9D 0.0431(15) 0.0454(18) 0.0459(18) -0.0109(15) 0.0232(14) -0.0153(14)
N10D 0.0475 0.0402 0.0521 -0.0128 0.0293 -0.0176
Ni1A 0.0352 0.0342 0.0343 0.0108 0.0098 0.0103
Ni2A 0.0349 0.0337 0.0342 -0.0091 0.0152 -0.0101
O1F 0.0513(15) 0.0514(17) 0.0507(17) -0.0147(13) 0.0139(13) -0.0153(13)
O2D 0.0477(13) 0.0432(15) 0.0488(15) -0.0032(12) 0.0296(12) -0.0093(11)
C17 0.0430(18) 0.045(2) 0.046(2) 0.0058(16) 0.0313(17) -0.0033(15)
C18 0.054(2) 0.047(2) 0.044(2) 0.0139(19) 0.0076(18) 0.0101(18)
C19 0.046(2) 0.052(2) 0.043(2) -0.0020(18) 0.0129(17) -0.0168(18)
N11 0.0491(17) 0.058(2) 0.049(2) -0.0161(17) 0.0144(16) -0.0103(16)
O5 0.0445(13) 0.0488(16) 0.0483(16) -0.0140(13) 0.0186(12) -0.0219(12)
O3 0.043(3) 0.047(3) 0.053(3) -0.002(3) 0.025(2) -0.008(2)
O4 0.049(3) 0.047(3) 0.043(3) 0.013(2) 0.022(2) 0.010(2)
loop_
_geom_bond_atom_site_label_1
_geom_bond_atom_site_label_2
_geom_bond_site_symmetry_1
_geom_bond_site_symmetry_2
C1 Mo1 1_555 1_555
C2 Mo1 1_555 1_555
C3 Mo1 1_555 1_555
C4 Mo1 1_555 1_555
C5 H1 1_555 1_555
H2 C5 1_555 1_555
C6 H3 1_555 1_555
H4 C6 1_555 1_555
C7 H5 1_555 1_555
H6 C7 1_555 1_555
C8 C5 1_555 1_555
H7 C8 1_555 1_555
H8 C8 1_555 1_555
C9 H9 1_555 1_555
H10 C9 1_555 1_555
C10 H11 1_555 1_555
H12 C10 1_555 1_555
C11 H13 1_555 1_555
H14 C11 1_555 1_555
C12 C9 1_555 1_555
H15 C12 1_555 1_555
H16 C12 1_555 1_555
C13 H17 1_555 1_555
H18 C13 1_555 1_555
C14 C13 1_555 1_555
H19 C14 1_555 1_555
H20 C14 1_555 1_555
C15 H21 1_555 1_555
H22 C15 1_555 1_555
C16 C15 1_555 1_555
H23 C16 1_555 1_555
H24 C16 1_555 1_555
C17 H25 1_555 1_555
H26 C17 1_555 1_555
H27 C17 1_555 1_555
C18 H28 1_555 1_555
H29 C18 1_555 1_555
H30 C18 1_555 1_555
C19 H31 1_555 1_555
Mo1 C1A 1_555 1_555
N1 C1 1_555 1_555
N2 C2 1_555 1_555
N3 C3 1_555 1_555
N4 C4 1_555 1_555
N5 C5 1_555 1_555
H36 N5 1_555 1_555
N6 C6 1_555 1_555
N7 C8 1_555 1_555
H37 N7 1_555 1_555
N8 C9 1_555 1_555
H38 N8 1_555 1_555
N9 C10 1_555 1_555
N10 C12 1_555 1_555
H39 N10 1_555 1_555
N11 C17 1_555 1_555
Ni1 N1 1_555 1_555
Ni2 N3 1_555 1_555
O1 C14 1_555 1_555
H40 O1 1_555 1_555
O2 C16 1_555 1_555
H41 O2 1_555 1_555
O3 H42 1_555 1_555
H43 O3 1_555 1_555
O4 H44 1_555 1_555
H45 O4 1_555 1_555
O5 C19 1_555 1_555
C1A N1A 1_555 1_555
C2A Mo1 1_555 1_555
C3A Mo1 1_555 1_555
C4A Mo1 1_555 1_555
C5F H1F 1_555 1_555
H2F C5F 1_555 1_555
C6F H3F 1_555 1_555
H4F C6F 1_555 1_555
C7F N7 1_555 1_555
H5F C7F 1_555 1_555
H6F C7F 1_555 1_555
C8F C5F 1_555 1_555
H7F C8F 1_555 1_555
H8F C8F 1_555 1_555
C9D H9D 1_555 1_555
H10D C9D 1_555 1_555
C10D H11D 1_555 1_555
H12D C10D 1_555 1_555
C11D N10 1_555 1_555
H13D C11D 1_555 1_555
H14D C11D 1_555 1_555
C12D C9D 1_555 1_555
H15D C12D 1_555 1_555
H16D C12D 1_555 1_555
C13F H17F 1_555 1_555
H18F C13F 1_555 1_555
C14F C13F 1_555 1_555
H19F C14F 1_555 1_555
H20F C14F 1_555 1_555
C15D H21D 1_555 1_555
H22D C15D 1_555 1_555
C16D C15D 1_555 1_555
H23D C16D 1_555 1_555
H24D C16D 1_555 1_555
N1A Ni1A 1_555 1_555
N1F Ni1 1_555 1_555
N2A C2A 1_555 1_555
N3A C3A 1_555 1_555
N3D Ni2 1_555 1_555
N4A C4A 1_555 1_555
N5F Ni1 1_555 1_555
H36F N5F 1_555 1_555
N6F C6F 1_555 1_555
N7F C7 1_555 1_555
H37F N7F 1_555 1_555
N8D Ni2 1_555 1_555
H38D N8D 1_555 1_555
N9D C10D 1_555 1_555
N10D C11 1_555 1_555
H39D N10D 1_555 1_555
Ni2A N3A 1_555 1_555
O1F C14F 1_555 1_555
H40F O1F 1_555 1_555
O2D C16D 1_555 1_555
H41D O2D 1_555 1_555
C6 N5 1_555 1_555
C7 N6 1_555 1_555
C10 N8 1_555 1_555
C11 N9 1_555 1_555
C13 N6 1_555 1_555
C15 N9 1_555 1_555
C18 N11 1_555 1_555
C19 N11 1_555 1_555
N5 Ni1 1_555 1_555
N7 Ni1 1_555 1_555
N8 Ni2 1_555 1_555
N10 Ni2 1_555 1_555
Ni1 N7F 1_555 1_555
Ni2 N10D 1_555 1_555
C5F N5F 1_555 1_555
C6F N5F 1_555 1_555
C7F N6F 1_555 1_555
C8F N7F 1_555 1_555
C9D N8D 1_555 1_555
C10D N8D 1_555 1_555
C11D N9D 1_555 1_555
C12D N10D 1_555 1_555
C13F N6F 1_555 1_555
C15D N9D 1_555 1_555

#END
