
#######################################################################
#
#                 Cambridge Crystallographic Data Centre
#                                CCDC 
#
#######################################################################
#
# If this CIF has been generated from an entry in the Cambridge 
# Structural Database, then it will include bibliographic, chemical, 
# crystal, experimental, refinement or atomic coordinate data resulting 
# from the CCDC's data processing and validation procedures.
#
#######################################################################

data_BIWHAQ
_chemical_formula_moiety         '(C8 H23 N2 O9 P2 Sn3 1+)n'
_symmetry_cell_setting           orthorhombic
_symmetry_space_group_name_H-M   'P b c a'
_symmetry_Int_Tables_number      61
_space_group_name_Hall           '-P 2ac 2ab'
loop_
_symmetry_equiv_pos_site_id
_symmetry_equiv_pos_as_xyz
1 x,y,z
2 1/2-x,-y,1/2+z
3 1/2+x,1/2-y,-z
4 -x,1/2+y,1/2-z
5 -x,-y,-z
6 1/2+x,y,1/2-z
7 1/2-x,1/2+y,z
8 x,1/2-y,1/2+z
_cell_length_a                   10.390(1)
_cell_length_b                   16.087(1)
_cell_length_c                   18.717(1)
_cell_angle_alpha                90
_cell_angle_beta                 90
_cell_angle_gamma                90
_cell_volume                     3128.43
loop_
_atom_site_label
_atom_site_type_symbol
_atom_site_fract_x
_atom_site_fract_y
_atom_site_fract_z
Sn1 Sn 0.5095(1) -0.2460(1) 0.1520(1)
Sn2 Sn 0.6518(1) -0.6484(1) 0.0641(1)
Sn3 Sn 0.3074(1) -0.6146(1) 0.0676(1)
P1 P 0.5166(3) -0.4479(2) 0.0928(2)
P2 P 0.2504(3) -0.1951(2) 0.2434(2)
O1 O 0.3397(8) -0.2685(6) 0.2136(5)
O2 O 0.1123(7) -0.2348(6) 0.2480(5)
O3 O 0.5371(8) -0.3843(6) 0.1585(5)
O4 O 0.4709(10) -0.6843(7) 0.1051(7)
O5 O 0.6269(8) -0.5150(6) 0.0960(5)
O6 O 0.2916(9) -0.1658(6) 0.3188(5)
O7 O 0.5218(8) -0.3947(6) 0.0213(5)
O8 O 0.3845(8) -0.4913(6) 0.1027(5)
O9 O 0.2507(8) -0.1180(5) 0.1899(4)
O2E O 0.6123(7) -0.2348(6) 0.2520(5)
Sn1E Sn 0.0095(1) -0.2460(1) 0.3480(1)
O6C O 0.7084(9) -0.6658(6) 0.1812(5)
O7D O 0.4782(8) -0.6053(6) -0.0213(5)
O9F O 0.2493(8) -0.6180(5) 0.1899(4)
Sn2C Sn 0.3482(1) -0.1484(1) 0.4359(1)
Sn2D Sn 0.3482(1) -0.3516(1) -0.0641(1)
Sn3D Sn 0.6926(1) -0.3854(1) -0.0676(1)
Sn3F Sn 0.1926(1) -0.1146(1) 0.0676(1)
N1 N 0.2772(10) -0.4483(7) 0.2572(6)
C1 C 0.3849(14) -0.4692(10) 0.3057(8)
C2 C 0.4131(17) -0.3952(10) 0.3588(8)
C3 C 0.5119(16) -0.4182(11) 0.4166(8)
C4 C 0.4680(14) -0.4981(11) 0.4635(8)
C4D C 0.5320(14) -0.5019(11) 0.5365(8)
C3D C 0.4881(16) -0.5818(11) 0.5834(8)
C2D C 0.5869(17) -0.6048(10) 0.6412(8)
C1D C 0.6151(14) -0.5308(10) 0.6943(8)
N1D N 0.7228(10) -0.5517(7) 0.7428(6)
loop_
_geom_bond_atom_site_label_1
_geom_bond_atom_site_label_2
_geom_bond_site_symmetry_1
_geom_bond_site_symmetry_2
Sn1 O1 1_555 1_555
Sn2 O4 1_555 1_555
Sn3 O4 1_555 1_555
P1 O3 1_555 1_555
P2 O1 1_555 1_555
O2 P2 1_555 1_555
O3 Sn1 1_555 1_555
O5 Sn2 1_555 1_555
O6 P2 1_555 1_555
O7 P1 1_555 1_555
O8 Sn3 1_555 1_555
O9 P2 1_555 1_555
N1 C1 1_555 1_555
C1 C2 1_555 1_555
C2 C3 1_555 1_555
C3 C4 1_555 1_555
C4 C4D 1_555 1_555
O2E Sn1 1_555 1_555
Sn1E O2 1_555 1_555
O6C Sn2 1_555 1_555
O7D Sn2 1_555 1_555
O9F Sn3 1_555 1_555
Sn2C O6 1_555 1_555
Sn2D O7 1_555 1_555
Sn3D O7 1_555 1_555
Sn3F O9 1_555 1_555
C4D C3D 1_555 1_555
C3D C2D 1_555 1_555
C2D C1D 1_555 1_555
C1D N1D 1_555 1_555
Sn3 O7D 1_555 1_555
P1 O5 1_555 1_555
P1 O8 1_555 1_555

#END
