
#######################################################################
#
#                 Cambridge Crystallographic Data Centre
#                                CCDC 
#
#######################################################################
#
# If this CIF has been generated from an entry in the Cambridge 
# Structural Database, then it will include bibliographic, chemical, 
# crystal, experimental, refinement or atomic coordinate data resulting 
# from the CCDC's data processing and validation procedures.
#
#######################################################################

data_GUZVOO
_chemical_formula_moiety         'C12 H22 Co5 F12 N5 O22'
_symmetry_cell_setting           tetragonal
_symmetry_space_group_name_H-M   'I 41/a m d'
_symmetry_Int_Tables_number      141
_space_group_name_Hall           '-I 4bd 2'
loop_
_symmetry_equiv_pos_site_id
_symmetry_equiv_pos_as_xyz
1 x,y,z
2 1/2-x,-y,1/2+z
3 1/4-y,3/4+x,1/4+z
4 1/4+y,1/4-x,3/4+z
5 1/2-x,y,1/2-z
6 x,-y,-z
7 1/4+y,3/4+x,1/4-z
8 1/4-y,1/4-x,3/4-z
9 1/2+x,1/2+y,1/2+z
10 -x,1/2-y,z
11 3/4-y,1/4+x,3/4+z
12 3/4+y,3/4-x,1/4+z
13 -x,1/2+y,-z
14 1/2+x,1/2-y,1/2-z
15 3/4+y,1/4+x,3/4-z
16 3/4-y,3/4-x,1/4-z
17 -x,-y,-z
18 1/2+x,y,1/2-z
19 3/4+y,1/4-x,3/4-z
20 3/4-y,3/4+x,1/4-z
21 1/2+x,-y,1/2+z
22 -x,y,z
23 3/4-y,1/4-x,3/4+z
24 3/4+y,3/4+x,1/4+z
25 1/2-x,1/2-y,1/2-z
26 x,1/2+y,-z
27 1/4+y,3/4-x,1/4-z
28 1/4-y,1/4+x,3/4-z
29 x,1/2-y,z
30 1/2-x,1/2+y,1/2+z
31 1/4-y,3/4-x,1/4+z
32 1/4+y,1/4+x,3/4+z
_cell_length_a                   17.726(2)
_cell_length_b                   17.726(2)
_cell_length_c                   38.491(5)
_cell_angle_alpha                90
_cell_angle_beta                 90
_cell_angle_gamma                90
_cell_volume                     12094.3
loop_
_atom_site_label
_atom_site_type_symbol
_atom_site_fract_x
_atom_site_fract_y
_atom_site_fract_z
_atom_site_U_iso_or_equiv
_atom_site_thermal_displace_type
O9 O 0.1280(3) 0.4564(3) 0.03038(14) 0.0760 Uani
H7 H 0.1592 0.4484 0.0154 0.1140 Uiso
H8 H 0.0974 0.4933 0.0300 0.1140 Uiso
O10 O 0.6134(6) 0.7500 0.2180(3) 0.1160 Uani
H9 H 0.6243 0.7081 0.2253 0.1740 Uiso
H9BA H 0.6243 0.7919 0.2253 0.1740 Uiso
O11 O 0.5723(5) 0.3584(5) 0.0900(3) 0.1817 Uani
H10 H 0.5733 0.3158 0.0980 0.2730 Uiso
H11 H 0.6036 0.3756 0.0997 0.2730 Uiso
O12 O 0.5000 0.7500 0.2736(16) 0.6100 Uani
H12 H 0.5401 0.7500 0.2855 0.9180 Uiso
H12I H 0.4599 0.7500 0.2855 0.9180 Uiso
O13 O 0.5816(17) 0.8359(17) 0.3318(9) 0.8100 Uani
H13 H 0.5695 0.8749 0.3217 1.2160 Uiso
H14 H 0.5837 0.8516 0.3518 1.2160 Uiso
C1 C 0.2594(3) 0.6525(3) 0.01200(12) 0.0273 Uani
C2 C 0.2759(3) 0.7108(3) 0.03835(12) 0.0233 Uani
C3 C 0.3146(5) 0.7500 0.08741(18) 0.0317 Uani
C4 C 0.3423(6) 0.7500 0.1241(2) 0.0560 Uani
C5 C 0.4007(3) 0.5299(3) 0.13182(12) 0.0263 Uani
C6 C 0.4609(3) 0.5491(3) 0.10622(12) 0.0263 Uani
C7 C 0.5000 0.5859(4) 0.05670(18) 0.0270 Uani
C8 C 0.5000 0.6155(6) 0.0204(2) 0.0597 Uani
Co1 Co 0.31579(4) 0.56676(4) 0.070053(16) 0.0254 Uani
Co2 Co 0.5000 0.51855(6) 0.19757(2) 0.0292 Uani
F1 F 0.3476(6) 0.6867(4) 0.1387(2) 0.0547 Uani
F2 F 0.2997(6) 0.7968(6) 0.1431(2) 0.0797 Uani
F3 F 0.4098(6) 0.7815(5) 0.1271(2) 0.0933 Uani
F4 F 0.5607(5) 0.6288(7) 0.0072(2) 0.0743 Uani
F5 F 0.4576(5) 0.5717(6) -0.0005(2) 0.0773 Uani
F6 F 0.4564(6) 0.6785(5) 0.0184(3) 0.0790 Uani
N1 N 0.3009(3) 0.6862(2) 0.06969(11) 0.0287 Uani
N2 N 0.4367(2) 0.5725(2) 0.07441(11) 0.0267 Uani
O1 O 0.2800(2) 0.58603(19) 0.01933(9) 0.0323 Uani
O2 O 0.2249(2) 0.6673(2) -0.01587(9) 0.0354 Uani
O3 O 0.33419(19) 0.5362(2) 0.12097(9) 0.0297 Uani
O4 O 0.4154(2) 0.5084(2) 0.16203(9) 0.0376 Uani
O5 O 0.3234(2) 0.4513(2) 0.05341(10) 0.0387 Uani
H1 H 0.3247 0.4128 0.0666 0.0580 Uiso
H2 H 0.3374 0.4374 0.0333 0.0580 Uiso
O6 O 0.2002(2) 0.5413(3) 0.08270(10) 0.0447 Uani
H3 H 0.1947 0.5136 0.0998 0.0670 Uiso
H4 H 0.1724 0.5231 0.0675 0.0670 Uiso
O7 O 0.5000 0.6384(3) 0.19072(19) 0.0520 Uani
H5 H 0.5396 0.6560 0.1982 0.0780 Uiso
O8 O 0.5000 0.3974(4) 0.20403(17) 0.0543 Uani
H6 H 0.4646 0.3791 0.1932 0.0810 Uiso
C1BA C 0.2594(3) 0.8475(3) 0.01200(12) 0.0273 Uani
C2BA C 0.2759(3) 0.7892(3) 0.03835(12) 0.0233 Uani
F1BA F 0.3476(6) 0.8133(4) 0.1387(2) 0.0547 Uani
F2BA F 0.2997(6) 0.7032(6) 0.1431(2) 0.0797 Uani
F3BA F 0.4098(6) 0.7185(5) 0.1271(2) 0.0933 Uani
N1BA N 0.3009(3) 0.8138(2) 0.06969(11) 0.0287 Uani
O1BA O 0.2800(2) 0.91397(19) 0.01933(9) 0.0323 Uani
O2BA O 0.2249(2) 0.8327(2) -0.01587(9) 0.0354 Uani
C5U C 0.5993(3) 0.5299(3) 0.13182(12) 0.0263 Uani
C6U C 0.5391(3) 0.5491(3) 0.10622(12) 0.0263 Uani
F4U F 0.4393(5) 0.6288(7) 0.0072(2) 0.0743 Uani
F5U F 0.5424(5) 0.5717(6) -0.0005(2) 0.0773 Uani
F6U F 0.5436(6) 0.6785(5) 0.0184(3) 0.0790 Uani
N2U N 0.5633(2) 0.5725(2) 0.07441(11) 0.0267 Uani
O3U O 0.66581(19) 0.5362(2) 0.12097(9) 0.0297 Uani
O4U O 0.5846(2) 0.5084(2) 0.16203(9) 0.0376 Uani
H5U H 0.4604 0.6560 0.1982 0.0780 Uiso
H6U H 0.5354 0.3791 0.1932 0.0810 Uiso
Co1U Co 0.68421(4) 0.56676(4) 0.070053(16) 0.0254 Uani
O5U O 0.6766(2) 0.4513(2) 0.05341(10) 0.0387 Uani
H1U H 0.6753 0.4128 0.0666 0.0580 Uiso
H2U H 0.6626 0.4374 0.0333 0.0580 Uiso
O6U O 0.7998(2) 0.5413(3) 0.08270(10) 0.0447 Uani
H3U H 0.8053 0.5136 0.0998 0.0670 Uiso
H4U H 0.8276 0.5231 0.0675 0.0670 Uiso
Co1BA Co 0.31579(4) 0.93324(4) 0.070053(16) 0.0254 Uani
Co2J Co 0.23145(6) 0.7500 -0.05243(2) 0.0292 Uani
N1U N 0.6991(3) 0.6862(2) 0.06969(11) 0.0287 Uani
O1U O 0.7200(2) 0.58603(19) 0.01933(9) 0.0323 Uani
O2K O 0.4173(2) 0.5251(2) 0.23413(9) 0.0354 Uani
O2DA O 0.5827(2) 0.5251(2) 0.23413(9) 0.0354 Uani
loop_
_atom_site_aniso_label
_atom_site_aniso_U_11
_atom_site_aniso_U_22
_atom_site_aniso_U_33
_atom_site_aniso_U_23
_atom_site_aniso_U_13
_atom_site_aniso_U_12
O9 0.062(4) 0.093(4) 0.073(4) -0.019(3) 0.001(3) 0.014(3)
O10 0.116(9) 0.112(8) 0.120(8) 0.000 -0.019(7) 0.000
O11 0.147(8) 0.102(7) 0.296(14) -0.014(8) 0.046(9) -0.006(6)
O12 0.55(12) 0.82(16) 0.46(9) 0.000 0.000 0.000
O13 0.46(4) 0.63(5) 1.34(11) 0.61(7) -0.26(5) -0.25(3)
C1 0.036(3) 0.028(3) 0.018(2) 0.002(2) -0.002(2) -0.004(2)
C2 0.030(3) 0.022(2) 0.018(2) 0.0005(19) -0.005(2) -0.001(2)
C3 0.048(5) 0.028(4) 0.019(3) 0.000 -0.006(3) 0.000
C4 0.084(5) 0.046(4) 0.038(4) 0.000 -0.023(4) 0.000
C5 0.026(3) 0.030(3) 0.023(2) 0.004(2) -0.002(2) -0.005(2)
C6 0.030(3) 0.029(3) 0.020(2) 0.003(2) 0.000(2) 0.002(2)
C7 0.029(4) 0.030(4) 0.022(3) 0.009(3) 0.000 0.000
C8 0.061(5) 0.078(5) 0.040(4) 0.022(4) 0.000 0.000
Co1 0.0315(4) 0.0239(4) 0.0209(4) 0.0033(3) -0.0051(3) -0.0009(3)
Co2 0.0214(5) 0.0470(7) 0.0193(5) 0.0107(4) 0.000 0.000
F1 0.100(6) 0.033(4) 0.031(4) 0.005(3) -0.027(4) 0.004(4)
F2 0.111(6) 0.087(6) 0.041(4) -0.022(4) -0.012(5) 0.027(5)
F3 0.100(5) 0.104(6) 0.076(5) 0.009(4) -0.051(4) -0.038(5)
F4 0.056(4) 0.118(6) 0.049(5) 0.043(5) 0.014(4) -0.006(5)
F5 0.104(6) 0.089(5) 0.039(4) 0.007(4) -0.024(4) -0.020(5)
F6 0.102(6) 0.073(5) 0.062(5) 0.037(4) 0.005(4) 0.033(4)
N1 0.039(3) 0.022(2) 0.025(2) 0.0016(17) -0.0098(19) -0.0005(19)
N2 0.025(2) 0.030(2) 0.025(2) 0.0051(18) -0.0038(17) -0.0008(17)
O1 0.051(2) 0.0222(19) 0.0238(18) 0.0003(15) -0.0073(17) 0.0025(17)
O2 0.059(3) 0.0254(19) 0.0218(18) 0.0011(15) -0.0148(18) -0.0037(18)
O3 0.0213(18) 0.045(2) 0.0227(17) 0.0063(16) -0.0021(14) -0.0019(16)
O4 0.027(2) 0.066(3) 0.0198(18) 0.0120(18) -0.0027(15) -0.0068(19)
O5 0.058(3) 0.026(2) 0.032(2) 0.0009(17) -0.0031(19) -0.0010(18)
O6 0.040(2) 0.059(3) 0.035(2) 0.004(2) -0.0031(18) -0.003(2)
O7 0.043(4) 0.048(4) 0.065(4) 0.007(3) 0.000 0.000
O8 0.050(4) 0.051(4) 0.062(4) 0.011(3) 0.000 0.000
C1BA 0.036 0.028 0.018 -0.002 -0.002 0.004
C2BA 0.03 0.022 0.018 -0.0005 -0.005 0.001
F1BA 0.1 0.033 0.031 -0.005 -0.027 -0.004
F2BA 0.111 0.087 0.041 0.022 -0.012 -0.027
F3BA 0.1 0.104 0.076 -0.009 -0.051 0.038
N1BA 0.039 0.022 0.025 -0.0016 -0.0098 0.0005
O1BA 0.051 0.0222 0.0238 -0.0003 -0.0073 -0.0025
O2BA 0.059 0.0254 0.0218 -0.0011 -0.0148 0.0037
C5U 0.026 0.03 0.023 0.004 0.002 0.005
C6U 0.03 0.029 0.02 0.003 0 -0.002
F4U 0.056 0.118 0.049 0.043 -0.014 0.006
F5U 0.104 0.089 0.039 0.007 0.024 0.02
F6U 0.102 0.073 0.062 0.037 -0.005 -0.033
N2U 0.025 0.03 0.025 0.0051 0.0038 0.0008
O3U 0.0213 0.045 0.0227 0.0063 0.0021 0.0019
O4U 0.027 0.066 0.0198 0.012 0.0027 0.0068
Co1U 0.0315 0.0239 0.0209 0.0033 0.0051 0.0009
O5U 0.058 0.026 0.032 0.0009 0.0031 0.001
O6U 0.04 0.059 0.035 0.004 0.0031 0.003
Co1BA 0.0315 0.0239 0.0209 -0.0033 -0.0051 0.0009
Co2J 0.047 0.0214 0.0193 0 -0.0107 0
N1U 0.039 0.022 0.025 0.0016 0.0098 0.0005
O1U 0.051 0.0222 0.0238 0.0003 0.0073 -0.0025
O2K 0.0254 0.059 0.0218 0.0148 0.0011 0.0037
O2DA 0.0254 0.059 0.0218 0.0148 -0.0011 -0.0037
loop_
_geom_bond_atom_site_label_1
_geom_bond_atom_site_label_2
_geom_bond_site_symmetry_1
_geom_bond_site_symmetry_2
C1 C2 1_555 1_555
C2 N1 1_555 1_555
C3 C4 1_555 1_555
C4 F1 1_555 1_555
C5 C6 1_555 1_555
C6 N2 1_555 1_555
C7 C8 1_555 1_555
C8 F4 1_555 1_555
Co1 N1 1_555 1_555
Co2 O4 1_555 1_555
F2 C4 1_555 1_555
F3 C4 1_555 1_555
F5 C8 1_555 1_555
F6 C8 1_555 1_555
N1 C3 1_555 1_555
N2 C7 1_555 1_555
O1 C1 1_555 1_555
O2 C1 1_555 1_555
O3 C5 1_555 1_555
O4 C5 1_555 1_555
O5 Co1 1_555 1_555
H1 O5 1_555 1_555
H2 O5 1_555 1_555
O6 Co1 1_555 1_555
H3 O6 1_555 1_555
H4 O6 1_555 1_555
O7 Co2 1_555 1_555
H5 O7 1_555 1_555
O8 Co2 1_555 1_555
H6 O8 1_555 1_555
O9 H7 1_555 1_555
H8 O9 1_555 1_555
O10 H9 1_555 1_555
O11 H10 1_555 1_555
H11 O11 1_555 1_555
O12 H12 1_555 1_555
O13 H13 1_555 1_555
H14 O13 1_555 1_555
C1BA C2BA 1_555 1_555
C2BA C2 1_555 1_555
F1BA C4 1_555 1_555
F2BA C4 1_555 1_555
F3BA C4 1_555 1_555
N1BA C3 1_555 1_555
O1BA C1BA 1_555 1_555
O2BA C1BA 1_555 1_555
C5U C6U 1_555 1_555
C6U C6 1_555 1_555
F4U C8 1_555 1_555
F5U C8 1_555 1_555
F6U C8 1_555 1_555
N2U C7 1_555 1_555
O3U C5U 1_555 1_555
O4U Co2 1_555 1_555
H5U O7 1_555 1_555
H6U O8 1_555 1_555
Co1U N2U 1_555 1_555
O5U Co1U 1_555 1_555
H1U O5U 1_555 1_555
H2U O5U 1_555 1_555
O6U Co1U 1_555 1_555
H3U O6U 1_555 1_555
H4U O6U 1_555 1_555
Co1BA N1BA 1_555 1_555
Co2J O2 1_555 1_555
N1U Co1U 1_555 1_555
O1U Co1U 1_555 1_555
O2K Co2 1_555 1_555
O2DA Co2 1_555 1_555
H9BA O10 1_555 1_555
H12I O12 1_555 1_555
Co1 N2 1_555 1_555
Co1 O1 1_555 1_555
Co1 O3 1_555 1_555
C2BA N1BA 1_555 1_555
O1BA Co1BA 1_555 1_555
O2BA Co2J 1_555 1_555
C5U O4U 1_555 1_555
C6U N2U 1_555 1_555
O3U Co1U 1_555 1_555

#END
