
#######################################################################
#
#                 Cambridge Crystallographic Data Centre
#                                CCDC 
#
#######################################################################
#
# If this CIF has been generated from an entry in the Cambridge 
# Structural Database, then it will include bibliographic, chemical, 
# crystal, experimental, refinement or atomic coordinate data resulting 
# from the CCDC's data processing and validation procedures.
#
#######################################################################

data_QEPZOB
_chemical_formula_moiety         '(C47 H50 Cu3 N4 O10)n'
_symmetry_cell_setting           monoclinic
_symmetry_space_group_name_H-M   'P 21/c'
_symmetry_Int_Tables_number      14
_space_group_name_Hall           '-P 2ybc'
loop_
_symmetry_equiv_pos_site_id
_symmetry_equiv_pos_as_xyz
1 x,y,z
2 -x,1/2+y,1/2-z
3 -x,-y,-z
4 x,1/2-y,1/2+z
_cell_length_a                   12.770(3)
_cell_length_b                   30.195(7)
_cell_length_c                   16.428(4)
_cell_angle_alpha                90
_cell_angle_beta                 108.083(4)
_cell_angle_gamma                90
_cell_volume                     6021.6
loop_
_atom_site_label
_atom_site_type_symbol
_atom_site_fract_x
_atom_site_fract_y
_atom_site_fract_z
_atom_site_U_iso_or_equiv
_atom_site_thermal_displace_type
N1 N 0.6170(6) 0.2964(2) 0.7238(5) 0.0341 Uani
C1 C 0.6496(7) 0.2902(2) 0.6514(4) 0.0385 Uani
H1 H 0.6338 0.3116 0.6086 0.0460 Uiso
C2 C 0.7057(8) 0.2519(3) 0.6428(5) 0.0386 Uani
H2 H 0.7275 0.2478 0.5943 0.0460 Uiso
C3 C 0.7293(7) 0.2199(2) 0.7066(5) 0.0440 Uani
C4 C 0.6968(8) 0.2261(2) 0.7791(5) 0.0602 Uani
H3 H 0.7126 0.2046 0.8219 0.0720 Uiso
C5 C 0.6407(8) 0.2644(3) 0.7877(4) 0.0491 Uani
H4 H 0.6189 0.2685 0.8362 0.0590 Uiso
C6 C 0.9652(11) 0.2112(4) 0.7193(9) 0.0425 Uani
H5 H 1.0390 0.2014 0.7263 0.0640 Uiso
H6 H 0.9636 0.2271 0.7695 0.0640 Uiso
H7 H 0.9410 0.2303 0.6703 0.0640 Uiso
C7 C 0.7777(6) 0.17593(19) 0.6949(6) 0.0338 Uani
C8 C 0.8898(6) 0.1716(2) 0.7065(6) 0.0338 Uani
C9 C 0.9361(5) 0.1298(3) 0.7087(6) 0.0338 Uani
C10 C 0.8703(6) 0.09228(19) 0.6993(6) 0.0338 Uani
C11 C 0.7582(6) 0.0966(2) 0.6877(6) 0.0338 Uani
C12 C 0.7119(5) 0.1384(3) 0.6855(6) 0.0338 Uani
C13 C 0.9195(12) 0.0455(4) 0.7053(9) 0.0465 Uani
H8 H 0.8619 0.0239 0.6971 0.0700 Uiso
H9 H 0.9728 0.0414 0.7607 0.0700 Uiso
H10 H 0.9546 0.0418 0.6618 0.0700 Uiso
C14 C 0.5879(11) 0.1438(4) 0.6601(10) 0.0441 Uani
H11 H 0.5701 0.1746 0.6620 0.0660 Uiso
H12 H 0.5600 0.1276 0.6992 0.0660 Uiso
H13 H 0.5550 0.1327 0.6031 0.0660 Uiso
C15 C 0.5478(6) 0.0023(3) 0.6258(4) 0.0351 Uani
H14 H 0.5026 -0.0115 0.5769 0.0420 Uiso
N2 N 0.5445(6) -0.0109(2) 0.7061(4) 0.0351 Uani
C16 C 0.6122(7) 0.0096(3) 0.7793(3) 0.0351 Uani
H15 H 0.6099 0.0009 0.8330 0.0420 Uiso
C17 C 0.6832(6) 0.0432(3) 0.7723(4) 0.0351 Uani
H16 H 0.7285 0.0570 0.8213 0.0420 Uiso
C18 C 0.6866(6) 0.0564(2) 0.6921(5) 0.0351 Uani
C19 C 0.6189(7) 0.0359(3) 0.6188(4) 0.0351 Uani
H17 H 0.6212 0.0447 0.5651 0.0420 Uiso
C20 C 1.2168(6) 0.1210(3) 0.6769(4) 0.0326 Uani
C21 C 1.2855(4) 0.1224(3) 0.7611(5) 0.0326 Uani
C22 C 1.2405(6) 0.1250(3) 0.8279(3) 0.0326 Uani
C23 C 1.1268(6) 0.1263(3) 0.8105(4) 0.0326 Uani
C24 C 1.0581(4) 0.1249(3) 0.7262(5) 0.0326 Uani
C25 C 1.1032(6) 0.1223(3) 0.6594(3) 0.0326 Uani
C26 C 1.4111(12) 0.1192(5) 0.7852(10) 0.0594 Uani
H18 H 1.4427 0.1210 0.8463 0.0890 Uiso
H19 H 1.4383 0.1432 0.7590 0.0890 Uiso
H20 H 1.4310 0.0915 0.7654 0.0890 Uiso
C27 C 1.0758(10) 0.1275(5) 0.8832(8) 0.0336 Uani
H21 H 1.1333 0.1285 0.9372 0.0500 Uiso
H22 H 1.0317 0.1015 0.8807 0.0500 Uiso
H23 H 1.0304 0.1534 0.8774 0.0500 Uiso
C28 C 1.0256(11) 0.1240(5) 0.5676(8) 0.0450 Uani
H24 H 1.0676 0.1217 0.5284 0.0670 Uiso
H25 H 0.9860 0.1515 0.5584 0.0670 Uiso
H26 H 0.9743 0.0998 0.5582 0.0670 Uiso
N3 N 1.3406(7) 0.1162(2) 0.4622(4) 0.0415 Uani
C29 C 1.3144(7) 0.0769(2) 0.4954(5) 0.0415 Uani
H27 H 1.3223 0.0500 0.4703 0.0500 Uiso
C30 C 1.2764(7) 0.0778(2) 0.5660(5) 0.0415 Uani
H28 H 1.2589 0.0515 0.5882 0.0500 Uiso
C31 C 1.2647(8) 0.1180(3) 0.6034(4) 0.0415 Uani
C32 C 1.2909(7) 0.1573(2) 0.5702(5) 0.0415 Uani
H29 H 1.2830 0.1842 0.5953 0.0500 Uiso
C33 C 1.3289(7) 0.1564(2) 0.4996(5) 0.0415 Uani
H30 H 1.3464 0.1827 0.4774 0.0500 Uiso
N4 N 1.4403(6) 0.1455(2) 1.0883(3) 0.0402 Uani
C34 C 1.4398(6) 0.1041(2) 1.0511(4) 0.0402 Uani
H31 H 1.4822 0.0812 1.0827 0.0480 Uiso
C35 C 1.3760(7) 0.0970(2) 0.9667(5) 0.0402 Uani
H32 H 1.3757 0.0693 0.9418 0.0480 Uiso
C36 C 1.3127(7) 0.1312(3) 0.9195(4) 0.0402 Uani
C37 C 1.3132(7) 0.1725(2) 0.9568(5) 0.0402 Uani
H33 H 1.2708 0.1954 0.9252 0.0480 Uiso
C38 C 1.3770(7) 0.1797(2) 1.0412(5) 0.0402 Uani
H34 H 1.3773 0.2074 1.0661 0.0480 Uiso
C39 C 0.2095(13) 0.0107(5) 0.7899(10) 0.0522 Uani
H35 H 0.1587 0.0116 0.7329 0.0780 Uiso
H36 H 0.2225 0.0402 0.8123 0.0780 Uiso
H37 H 0.1790 -0.0069 0.8257 0.0780 Uiso
C40 C 0.3180(12) -0.0097(4) 0.7878(11) 0.0398 Uani
C41 C 1.0693(15) 0.0632(6) 0.1910(12) 0.0837 Uani
H38 H 1.0429 0.0626 0.1296 0.1250 Uiso
H39 H 1.0622 0.0343 0.2130 0.1250 Uiso
H40 H 1.0267 0.0841 0.2117 0.1250 Uiso
C42 C 1.1925(14) 0.0774(6) 0.2214(12) 0.0665 Uani
C43 C 0.2673(13) 0.2515(4) 0.7450(9) 0.0501 Uani
H41 H 0.2973 0.2335 0.7093 0.0750 Uiso
H42 H 0.1907 0.2570 0.7161 0.0750 Uiso
H43 H 0.2751 0.2363 0.7979 0.0750 Uiso
C44 C 0.3270(13) 0.2939(5) 0.7629(10) 0.0501 Uani
C45 C 0.7392(15) 0.3876(6) 0.7501(12) 0.0785 Uani
H44 H 0.7556 0.3579 0.7372 0.1180 Uiso
H45 H 0.7905 0.3965 0.8038 0.1180 Uiso
H46 H 0.7450 0.4071 0.7057 0.1180 Uiso
C46 C 1.7178(11) 0.1449(4) 0.4708(8) 0.0418 Uani
H47 H 1.7048 0.1763 0.4692 0.0630 Uiso
H48 H 1.7528 0.1358 0.5290 0.0630 Uiso
H49 H 1.7648 0.1379 0.4369 0.0630 Uiso
C47 C 1.6110(12) 0.1212(5) 0.4359(8) 0.0353 Uani
Cu1 Cu 0.51410(13) 0.34458(5) 0.73053(9) 0.0293 Uani
Cu2 Cu 1.38046(13) 0.11563(5) 0.35399(10) 0.0330 Uani
Cu3 Cu 0.44655(13) -0.05925(5) 0.71960(9) 0.0278 Uani
O1 O 0.4035(8) 0.2984(3) 0.7303(6) 0.0501 Uani
O2 O 0.3010(8) 0.3212(3) 0.8078(6) 0.0501 Uani
O3 O 0.6269(7) 0.3893(3) 0.7558(5) 0.0283 Uani
O4 O 0.4348(7) 0.3957(3) 0.7566(5) 0.0294 Uani
O5 O 1.5211(9) 0.1450(3) 0.4123(6) 0.0451 Uani
O6 O 1.6098(7) 0.0797(3) 0.4322(5) 0.0309 Uani
O7 O 1.2438(8) 0.0811(3) 0.3011(6) 0.0496 Uani
O8 O 0.3256(7) -0.0193(3) 0.7140(6) 0.0333 Uani
O9 O 1.2356(8) 0.0836(3) 0.1576(6) 0.0527 Uani
O10 O 0.3960(8) -0.0145(3) 0.8553(6) 0.0439 Uani
N4C N 0.4403(6) 0.3545(2) 0.5883(3) 0.0402 Uani
Cu1C Cu 1.51410(13) 0.15542(5) 1.23053(9) 0.0293 Uani
Cu2C Cu 0.38046(13) 0.38437(5) 0.85399(10) 0.0330 Uani
Cu3A Cu 0.55345(13) 0.44075(5) 0.78040(9) 0.0278 Uani
Cu3B Cu 1.55345(13) 0.05925(5) 0.28040(9) 0.0278 Uani
O2C O 1.3010(8) 0.1788(3) 0.3078(6) 0.0501 Uani
O3A O 0.3731(7) -0.1107(3) 0.7442(5) 0.0283 Uani
O4C O 1.4348(7) 0.1043(3) 0.2566(5) 0.0294 Uani
O4A O 0.5652(7) -0.1043(3) 0.7434(5) 0.0294 Uani
O6B O 0.3902(7) -0.0797(3) 0.5678(5) 0.0309 Uani
loop_
_atom_site_aniso_label
_atom_site_aniso_U_11
_atom_site_aniso_U_22
_atom_site_aniso_U_33
_atom_site_aniso_U_23
_atom_site_aniso_U_13
_atom_site_aniso_U_12
N1 0.039(7) 0.032(7) 0.035(7) 0.010(5) 0.017(6) 0.006(5)
C1 0.073(11) 0.027(8) 0.038(9) 0.005(6) 0.050(8) 0.008(7)
C2 0.059(10) 0.029(8) 0.043(9) 0.005(7) 0.038(8) 0.013(7)
C3 0.032(9) 0.073(11) 0.030(9) -0.002(8) 0.014(7) 0.007(8)
C4 0.108(14) 0.038(10) 0.050(11) 0.012(8) 0.047(10) 0.006(10)
C5 0.087(12) 0.024(8) 0.040(9) -0.007(7) 0.025(8) 0.026(8)
C6 0.046(9) 0.014(7) 0.066(11) -0.012(7) 0.015(8) -0.010(7)
C7 0.041(3) 0.032(3) 0.034(3) -0.004(3) 0.020(3) -0.002(3)
C8 0.041(3) 0.032(3) 0.034(3) -0.004(3) 0.020(3) -0.002(3)
C9 0.041(3) 0.032(3) 0.034(3) -0.004(3) 0.020(3) -0.002(3)
C10 0.041(3) 0.032(3) 0.034(3) -0.004(3) 0.020(3) -0.002(3)
C11 0.041(3) 0.032(3) 0.034(3) -0.004(3) 0.020(3) -0.002(3)
C12 0.041(3) 0.032(3) 0.034(3) -0.004(3) 0.020(3) -0.002(3)
C13 0.047(9) 0.041(9) 0.055(10) 0.004(7) 0.021(8) 0.014(7)
C14 0.047(9) 0.016(8) 0.076(11) 0.012(7) 0.029(8) -0.004(6)
C15 0.046(4) 0.038(3) 0.024(3) 0.003(2) 0.015(3) -0.009(3)
N2 0.046(4) 0.038(3) 0.024(3) 0.003(2) 0.015(3) -0.009(3)
C16 0.046(4) 0.038(3) 0.024(3) 0.003(2) 0.015(3) -0.009(3)
C17 0.046(4) 0.038(3) 0.024(3) 0.003(2) 0.015(3) -0.009(3)
C18 0.046(4) 0.038(3) 0.024(3) 0.003(2) 0.015(3) -0.009(3)
C19 0.046(4) 0.038(3) 0.024(3) 0.003(2) 0.015(3) -0.009(3)
C20 0.043(3) 0.036(3) 0.024(3) -0.002(3) 0.018(2) 0.000(3)
C21 0.043(3) 0.036(3) 0.024(3) -0.002(3) 0.018(2) 0.000(3)
C22 0.043(3) 0.036(3) 0.024(3) -0.002(3) 0.018(2) 0.000(3)
C23 0.043(3) 0.036(3) 0.024(3) -0.002(3) 0.018(2) 0.000(3)
C24 0.043(3) 0.036(3) 0.024(3) -0.002(3) 0.018(2) 0.000(3)
C25 0.043(3) 0.036(3) 0.024(3) -0.002(3) 0.018(2) 0.000(3)
C26 0.056(11) 0.087(13) 0.040(10) 0.014(9) 0.022(8) -0.004(9)
C27 0.037(8) 0.054(9) 0.017(7) 0.011(6) 0.019(6) 0.002(7)
C28 0.041(9) 0.071(11) 0.028(9) -0.004(7) 0.018(7) 0.006(8)
N3 0.055(4) 0.048(3) 0.031(3) 0.008(3) 0.027(3) 0.006(3)
C29 0.055(4) 0.048(3) 0.031(3) 0.008(3) 0.027(3) 0.006(3)
C30 0.055(4) 0.048(3) 0.031(3) 0.008(3) 0.027(3) 0.006(3)
C31 0.055(4) 0.048(3) 0.031(3) 0.008(3) 0.027(3) 0.006(3)
C32 0.055(4) 0.048(3) 0.031(3) 0.008(3) 0.027(3) 0.006(3)
C33 0.055(4) 0.048(3) 0.031(3) 0.008(3) 0.027(3) 0.006(3)
N4 0.049(4) 0.049(4) 0.027(3) 0.004(2) 0.018(3) -0.007(3)
C34 0.049(4) 0.049(4) 0.027(3) 0.004(2) 0.018(3) -0.007(3)
C35 0.049(4) 0.049(4) 0.027(3) 0.004(2) 0.018(3) -0.007(3)
C36 0.049(4) 0.049(4) 0.027(3) 0.004(2) 0.018(3) -0.007(3)
C37 0.049(4) 0.049(4) 0.027(3) 0.004(2) 0.018(3) -0.007(3)
C38 0.049(4) 0.049(4) 0.027(3) 0.004(2) 0.018(3) -0.007(3)
C39 0.075 0.031 0.069 -0.005 0.049 0.013
C40 0.049 0.028 0.043 0.003 0.015 0.002
C41 0.089 0.088 0.077 0.026 0.03 -0.014
C42 0.055 0.084 0.058 0.019 0.014 0.008
C43 0.066(4) 0.049(4) 0.046(4) -0.012(3) 0.033(3) -0.017(3)
C44 0.066(4) 0.049(4) 0.046(4) -0.012(3) 0.033(3) -0.017(3)
C45 0.075(14) 0.097(15) 0.070(14) 0.009(11) 0.032(11) 0.009(11)
C46 0.049 0.055 0.022 -0.01 0.012 -0.02
C47 0.046 0.035 0.02 0.015 0.003 0.01
Cu1 0.0442(11) 0.0303(10) 0.0197(10) -0.0048(7) 0.0192(8) 0.0033(8)
Cu2 0.0421 0.0383 0.0262 0.0044 0.0218 0.0023
Cu3 0.0399 0.0269 0.0221 0.0018 0.0175 -0.0022
O1 0.066(4) 0.049(4) 0.046(4) -0.012(3) 0.033(3) -0.017(3)
O2 0.066(4) 0.049(4) 0.046(4) -0.012(3) 0.033(3) -0.017(3)
O3 0.035(5) 0.031(5) 0.020(5) 0.005(4) 0.010(4) 0.009(4)
O4 0.039(5) 0.033(5) 0.024(5) -0.001(4) 0.021(4) 0.006(4)
O5 0.072 0.042 0.024 0.001 0.019 -0.011
O6 0.047 0.035 0.012 0.007 0.011 -0.005
O7 0.058 0.07 0.028 0.003 0.024 -0.01
O8 0.04 0.024 0.044 0.001 0.025 0.006
O9 0.056 0.064 0.039 -0.009 0.016 -0.015
O10 0.054 0.045 0.043 0.004 0.03 0.01
N4C 0.049 0.049 0.027 -0.004 0.018 0.007
Cu1C 0.0442 0.0303 0.0197 0.0048 0.0192 -0.0033
Cu2C 0.0421(11) 0.0383(11) 0.0262(10) -0.0044(7) 0.0218(8) -0.0023(8)
Cu3A 0.0399(11) 0.0269(10) 0.0221(10) -0.0018(7) 0.0175(7) 0.0022(7)
Cu3B 0.0399 0.0269 0.0221 0.0018 0.0175 -0.0022
O2C 0.066 0.049 0.046 0.012 0.033 0.017
O3A 0.035 0.031 0.02 -0.005 0.01 -0.009
O4C 0.039 0.033 0.024 0.001 0.021 -0.006
O4A 0.039 0.033 0.024 0.001 0.021 -0.006
O6B 0.047 0.035 0.012 0.007 0.011 -0.005
loop_
_geom_bond_atom_site_label_1
_geom_bond_atom_site_label_2
_geom_bond_site_symmetry_1
_geom_bond_site_symmetry_2
N1 C1 1_555 1_555
C1 H1 1_555 1_555
C2 C1 1_555 1_555
H2 C2 1_555 1_555
C3 C2 1_555 1_555
C4 C3 1_555 1_555
H3 C4 1_555 1_555
C5 N1 1_555 1_555
H4 C5 1_555 1_555
C6 H5 1_555 1_555
H6 C6 1_555 1_555
H7 C6 1_555 1_555
C7 C3 1_555 1_555
C8 C6 1_555 1_555
C9 C8 1_555 1_555
C10 C9 1_555 1_555
C11 C10 1_555 1_555
C12 C7 1_555 1_555
C13 C10 1_555 1_555
H8 C13 1_555 1_555
H9 C13 1_555 1_555
H10 C13 1_555 1_555
C14 C12 1_555 1_555
H11 C14 1_555 1_555
H12 C14 1_555 1_555
H13 C14 1_555 1_555
C15 H14 1_555 1_555
N2 C15 1_555 1_555
C16 N2 1_555 1_555
H15 C16 1_555 1_555
C17 C16 1_555 1_555
H16 C17 1_555 1_555
C18 C11 1_555 1_555
C19 C15 1_555 1_555
H17 C19 1_555 1_555
C20 C21 1_555 1_555
C21 C22 1_555 1_555
C22 C23 1_555 1_555
C23 C24 1_555 1_555
C24 C9 1_555 1_555
C25 C20 1_555 1_555
C26 C21 1_555 1_555
H18 C26 1_555 1_555
H19 C26 1_555 1_555
H20 C26 1_555 1_555
C27 C23 1_555 1_555
H21 C27 1_555 1_555
H22 C27 1_555 1_555
H23 C27 1_555 1_555
C28 C25 1_555 1_555
H24 C28 1_555 1_555
H25 C28 1_555 1_555
H26 C28 1_555 1_555
N3 C29 1_555 1_555
C29 H27 1_555 1_555
C30 C29 1_555 1_555
H28 C30 1_555 1_555
C31 C20 1_555 1_555
C32 C31 1_555 1_555
H29 C32 1_555 1_555
C33 N3 1_555 1_555
H30 C33 1_555 1_555
N4 C34 1_555 1_555
C34 H31 1_555 1_555
C35 C34 1_555 1_555
H32 C35 1_555 1_555
C36 C22 1_555 1_555
C37 C36 1_555 1_555
H33 C37 1_555 1_555
C38 N4 1_555 1_555
H34 C38 1_555 1_555
C39 H35 1_555 1_555
H36 C39 1_555 1_555
H37 C39 1_555 1_555
C40 C39 1_555 1_555
C41 H38 1_555 1_555
H39 C41 1_555 1_555
H40 C41 1_555 1_555
C42 C41 1_555 1_555
C43 H41 1_555 1_555
H42 C43 1_555 1_555
H43 C43 1_555 1_555
C44 C43 1_555 1_555
C45 H44 1_555 1_555
H45 C45 1_555 1_555
H46 C45 1_555 1_555
C46 H47 1_555 1_555
H48 C46 1_555 1_555
H49 C46 1_555 1_555
C47 C46 1_555 1_555
Cu1 N1 1_555 1_555
Cu2 N3 1_555 1_555
Cu3 N2 1_555 1_555
O1 C44 1_555 1_555
O2 C44 1_555 1_555
O3 C45 1_555 1_555
O4 Cu1 1_555 1_555
O5 C47 1_555 1_555
O6 C47 1_555 1_555
O7 C42 1_555 1_555
O8 C40 1_555 1_555
O9 C42 1_555 1_555
O10 C40 1_555 1_555
N4C Cu1 1_555 1_555
Cu1C N4 1_555 1_555
Cu2C O2 1_555 1_555
Cu3A O3 1_555 1_555
Cu3B O6 1_555 1_555
O2C Cu2 1_555 1_555
O3A Cu3 1_555 1_555
O4C Cu2 1_555 1_555
O4A Cu3 1_555 1_555
O6B Cu3 1_555 1_555
C4 C5 1_555 1_555
C7 C8 1_555 1_555
C11 C12 1_555 1_555
C17 C18 1_555 1_555
C18 C19 1_555 1_555
C24 C25 1_555 1_555
C30 C31 1_555 1_555
C32 C33 1_555 1_555
C35 C36 1_555 1_555
C37 C38 1_555 1_555
Cu1 O1 1_555 1_555
Cu1 O3 1_555 1_555
Cu2 O5 1_555 1_555
Cu2 O7 1_555 1_555
Cu3 O8 1_555 1_555
O4 Cu2C 1_555 1_555
O4 Cu3A 1_555 1_555
Cu3B O4C 1_555 1_555

#END
