
#######################################################################
#
#                 Cambridge Crystallographic Data Centre
#                                CCDC 
#
#######################################################################
#
# If this CIF has been generated from an entry in the Cambridge 
# Structural Database, then it will include bibliographic, chemical, 
# crystal, experimental, refinement or atomic coordinate data resulting 
# from the CCDC's data processing and validation procedures.
#
#######################################################################

data_ZALLAC
_chemical_formula_moiety         'C66 H52 Eu11 O27'
_symmetry_cell_setting           cubic
_symmetry_space_group_name_H-M   'F m -3 m'
_symmetry_Int_Tables_number      225
_space_group_name_Hall           '-F 4 2 3'
loop_
_symmetry_equiv_pos_site_id
_symmetry_equiv_pos_as_xyz
1 x,y,z
2 -y,x,z
3 -x,-y,z
4 y,-x,z
5 x,-z,y
6 x,-y,-z
7 x,z,-y
8 z,y,-x
9 -x,y,-z
10 -z,y,x
11 z,x,y
12 y,z,x
13 -y,-z,x
14 z,-x,-y
15 -y,z,-x
16 -z,-x,y
17 -z,x,-y
18 y,-z,-x
19 y,x,-z
20 -y,-x,-z
21 -x,z,y
22 -x,-z,-y
23 z,-y,x
24 -z,-y,-x
25 x,1/2+y,1/2+z
26 -y,1/2+x,1/2+z
27 -x,1/2-y,1/2+z
28 y,1/2-x,1/2+z
29 x,1/2-z,1/2+y
30 x,1/2-y,1/2-z
31 x,1/2+z,1/2-y
32 z,1/2+y,1/2-x
33 -x,1/2+y,1/2-z
34 -z,1/2+y,1/2+x
35 z,1/2+x,1/2+y
36 y,1/2+z,1/2+x
37 -y,1/2-z,1/2+x
38 z,1/2-x,1/2-y
39 -y,1/2+z,1/2-x
40 -z,1/2-x,1/2+y
41 -z,1/2+x,1/2-y
42 y,1/2-z,1/2-x
43 y,1/2+x,1/2-z
44 -y,1/2-x,1/2-z
45 -x,1/2+z,1/2+y
46 -x,1/2-z,1/2-y
47 z,1/2-y,1/2+x
48 -z,1/2-y,1/2-x
49 1/2+x,y,1/2+z
50 1/2-y,x,1/2+z
51 1/2-x,-y,1/2+z
52 1/2+y,-x,1/2+z
53 1/2+x,-z,1/2+y
54 1/2+x,-y,1/2-z
55 1/2+x,z,1/2-y
56 1/2+z,y,1/2-x
57 1/2-x,y,1/2-z
58 1/2-z,y,1/2+x
59 1/2+z,x,1/2+y
60 1/2+y,z,1/2+x
61 1/2-y,-z,1/2+x
62 1/2+z,-x,1/2-y
63 1/2-y,z,1/2-x
64 1/2-z,-x,1/2+y
65 1/2-z,x,1/2-y
66 1/2+y,-z,1/2-x
67 1/2+y,x,1/2-z
68 1/2-y,-x,1/2-z
69 1/2-x,z,1/2+y
70 1/2-x,-z,1/2-y
71 1/2+z,-y,1/2+x
72 1/2-z,-y,1/2-x
73 1/2+x,1/2+y,z
74 1/2-y,1/2+x,z
75 1/2-x,1/2-y,z
76 1/2+y,1/2-x,z
77 1/2+x,1/2-z,y
78 1/2+x,1/2-y,-z
79 1/2+x,1/2+z,-y
80 1/2+z,1/2+y,-x
81 1/2-x,1/2+y,-z
82 1/2-z,1/2+y,x
83 1/2+z,1/2+x,y
84 1/2+y,1/2+z,x
85 1/2-y,1/2-z,x
86 1/2+z,1/2-x,-y
87 1/2-y,1/2+z,-x
88 1/2-z,1/2-x,y
89 1/2-z,1/2+x,-y
90 1/2+y,1/2-z,-x
91 1/2+y,1/2+x,-z
92 1/2-y,1/2-x,-z
93 1/2-x,1/2+z,y
94 1/2-x,1/2-z,-y
95 1/2+z,1/2-y,x
96 1/2-z,1/2-y,-x
97 -x,-y,-z
98 y,-x,-z
99 x,y,-z
100 -y,x,-z
101 -x,z,-y
102 -x,y,z
103 -x,-z,y
104 -z,-y,x
105 x,-y,z
106 z,-y,-x
107 -z,-x,-y
108 -y,-z,-x
109 y,z,-x
110 -z,x,y
111 y,-z,x
112 z,x,-y
113 z,-x,y
114 -y,z,x
115 -y,-x,z
116 y,x,z
117 x,-z,-y
118 x,z,y
119 -z,y,-x
120 z,y,x
121 -x,1/2-y,1/2-z
122 y,1/2-x,1/2-z
123 x,1/2+y,1/2-z
124 -y,1/2+x,1/2-z
125 -x,1/2+z,1/2-y
126 -x,1/2+y,1/2+z
127 -x,1/2-z,1/2+y
128 -z,1/2-y,1/2+x
129 x,1/2-y,1/2+z
130 z,1/2-y,1/2-x
131 -z,1/2-x,1/2-y
132 -y,1/2-z,1/2-x
133 y,1/2+z,1/2-x
134 -z,1/2+x,1/2+y
135 y,1/2-z,1/2+x
136 z,1/2+x,1/2-y
137 z,1/2-x,1/2+y
138 -y,1/2+z,1/2+x
139 -y,1/2-x,1/2+z
140 y,1/2+x,1/2+z
141 x,1/2-z,1/2-y
142 x,1/2+z,1/2+y
143 -z,1/2+y,1/2-x
144 z,1/2+y,1/2+x
145 1/2-x,-y,1/2-z
146 1/2+y,-x,1/2-z
147 1/2+x,y,1/2-z
148 1/2-y,x,1/2-z
149 1/2-x,z,1/2-y
150 1/2-x,y,1/2+z
151 1/2-x,-z,1/2+y
152 1/2-z,-y,1/2+x
153 1/2+x,-y,1/2+z
154 1/2+z,-y,1/2-x
155 1/2-z,-x,1/2-y
156 1/2-y,-z,1/2-x
157 1/2+y,z,1/2-x
158 1/2-z,x,1/2+y
159 1/2+y,-z,1/2+x
160 1/2+z,x,1/2-y
161 1/2+z,-x,1/2+y
162 1/2-y,z,1/2+x
163 1/2-y,-x,1/2+z
164 1/2+y,x,1/2+z
165 1/2+x,-z,1/2-y
166 1/2+x,z,1/2+y
167 1/2-z,y,1/2-x
168 1/2+z,y,1/2+x
169 1/2-x,1/2-y,-z
170 1/2+y,1/2-x,-z
171 1/2+x,1/2+y,-z
172 1/2-y,1/2+x,-z
173 1/2-x,1/2+z,-y
174 1/2-x,1/2+y,z
175 1/2-x,1/2-z,y
176 1/2-z,1/2-y,x
177 1/2+x,1/2-y,z
178 1/2+z,1/2-y,-x
179 1/2-z,1/2-x,-y
180 1/2-y,1/2-z,-x
181 1/2+y,1/2+z,-x
182 1/2-z,1/2+x,y
183 1/2+y,1/2-z,x
184 1/2+z,1/2+x,-y
185 1/2+z,1/2-x,y
186 1/2-y,1/2+z,x
187 1/2-y,1/2-x,z
188 1/2+y,1/2+x,z
189 1/2+x,1/2-z,-y
190 1/2+x,1/2+z,y
191 1/2-z,1/2+y,-x
192 1/2+z,1/2+y,x
_cell_length_a                   27.5460(11)
_cell_length_b                   27.5460(11)
_cell_length_c                   27.5460(11)
_cell_angle_alpha                90
_cell_angle_beta                 90
_cell_angle_gamma                90
_cell_volume                     20901.4
loop_
_atom_site_label
_atom_site_type_symbol
_atom_site_fract_x
_atom_site_fract_y
_atom_site_fract_z
Eu1 Eu 0.39912(2) 0.5000 0.5000
O1 O 0.36364(16) 0.42235(17) 0.5000
O2 O 0.45377(9) 0.45377(9) 0.45377(9)
H1 H 0.4360 0.4360 0.4360
C1 C 0.3790(3) 0.3790(3) 0.5000
C2 C 0.3403(3) 0.3403(3) 0.5000
C3 C 0.2698(4) 0.2698(4) 0.5000
C4 C 0.2578(5) 0.3171(4) 0.4850(4)
H2 H 0.2255 0.3241 0.4738
C5 C 0.2920(4) 0.3543(4) 0.4855(4)
H3 H 0.2837 0.3872 0.4773
O1R O 0.42235(17) 0.36364(16) 0.5000
C4R C 0.3171(4) 0.2578(5) 0.5150(4)
H2R H 0.3241 0.2255 0.5262
C5R C 0.3543(4) 0.2920(4) 0.5145(4)
H3R H 0.3872 0.2837 0.5227
O1VB O 0.13636(16) 0.07765(17) 0.5000
C1VB C 0.1210(3) 0.1210(3) 0.5000
C2VB C 0.1597(3) 0.1597(3) 0.5000
C3VB C 0.2302(4) 0.2302(4) 0.5000
C4VB C 0.2422(5) 0.1829(4) 0.4850(4)
H2VB H 0.2745 0.1759 0.4738
C5VB C 0.2080(4) 0.1457(4) 0.4855(4)
H3VB H 0.2163 0.1128 0.4773
O1MC O 0.07765(17) 0.13636(16) 0.5000
C4MC C 0.1829(4) 0.2422(5) 0.5150(4)
H2MC H 0.1759 0.2745 0.5262
C5MC C 0.1457(4) 0.2080(4) 0.5145(4)
H3MC H 0.1128 0.2163 0.5227
C4TC C 0.2578(5) 0.3171(4) 0.5150(4)
H2TC H 0.2255 0.3241 0.5262
C5TC C 0.2920(4) 0.3543(4) 0.5145(4)
H3TC H 0.2837 0.3872 0.5227
C4KD C 0.3171(4) 0.2578(5) 0.4850(4)
H2KD H 0.3241 0.2255 0.4738
C5KD C 0.3543(4) 0.2920(4) 0.4855(4)
H3KD H 0.3872 0.2837 0.4773
C4LF C 0.2422(5) 0.1829(4) 0.5150(4)
H2LF H 0.2745 0.1759 0.5262
C5LF C 0.2080(4) 0.1457(4) 0.5145(4)
H3LF H 0.2163 0.1128 0.5227
C4DG C 0.1829(4) 0.2422(5) 0.4850(4)
H2DG H 0.1759 0.2745 0.4738
C5DG C 0.1457(4) 0.2080(4) 0.4855(4)
H3DG H 0.1128 0.2163 0.4773
Eu1A Eu 0.5000 0.39912(2) 0.5000
O1A O 0.57765(17) 0.36364(16) 0.5000
O2A O 0.54623(9) 0.45377(9) 0.45377(9)
H1A H 0.5640 0.4360 0.4360
C1A C 0.6210(3) 0.3790(3) 0.5000
C2A C 0.6597(3) 0.3403(3) 0.5000
C3A C 0.7302(4) 0.2698(4) 0.5000
C4A C 0.6829(4) 0.2578(5) 0.4850(4)
H2A H 0.6759 0.2255 0.4738
C5A C 0.6457(4) 0.2920(4) 0.4855(4)
H3A H 0.6128 0.2837 0.4773
O1H O 0.63636(16) 0.42235(17) 0.5000
C4H C 0.7422(5) 0.3171(4) 0.5150(4)
H2H H 0.7745 0.3241 0.5262
C5H C 0.7080(4) 0.3543(4) 0.5145(4)
H3H H 0.7163 0.3872 0.5227
O1WB O 0.92235(17) 0.13636(16) 0.5000
C1WB C 0.8790(3) 0.1210(3) 0.5000
C2WB C 0.8403(3) 0.1597(3) 0.5000
C3WB C 0.7698(4) 0.2302(4) 0.5000
C4WB C 0.8171(4) 0.2422(5) 0.4850(4)
H2WB H 0.8241 0.2745 0.4738
C5WB C 0.8543(4) 0.2080(4) 0.4855(4)
H3WB H 0.8872 0.2163 0.4773
O1YB O 0.86364(16) 0.07765(17) 0.5000
C4YB C 0.7578(5) 0.1829(4) 0.5150(4)
H2YB H 0.7255 0.1759 0.5262
C5YB C 0.7920(4) 0.1457(4) 0.5145(4)
H3YB H 0.7837 0.1128 0.5227
C4UC C 0.6829(4) 0.2578(5) 0.5150(4)
H2UC H 0.6759 0.2255 0.5262
C5UC C 0.6457(4) 0.2920(4) 0.5145(4)
H3UC H 0.6128 0.2837 0.5227
C4WC C 0.7422(5) 0.3171(4) 0.4850(4)
H2WC H 0.7745 0.3241 0.4738
C5WC C 0.7080(4) 0.3543(4) 0.4855(4)
H3WC H 0.7163 0.3872 0.4773
C4MF C 0.8171(4) 0.2422(5) 0.5150(4)
H2MF H 0.8241 0.2745 0.5262
C5MF C 0.8543(4) 0.2080(4) 0.5145(4)
H3MF H 0.8872 0.2163 0.5227
C4TF C 0.7578(5) 0.1829(4) 0.4850(4)
H2TF H 0.7255 0.1759 0.4738
C5TF C 0.7920(4) 0.1457(4) 0.4855(4)
H3TF H 0.7837 0.1128 0.4773
Eu1B Eu 0.60088(2) 0.5000 0.5000
O1B O 0.63636(16) 0.57765(17) 0.5000
O2B O 0.54623(9) 0.54623(9) 0.45377(9)
H1B H 0.5640 0.5640 0.4360
C1B C 0.6210(3) 0.6210(3) 0.5000
C2B C 0.6597(3) 0.6597(3) 0.5000
C3B C 0.7302(4) 0.7302(4) 0.5000
C4B C 0.7422(5) 0.6829(4) 0.4850(4)
H2B H 0.7745 0.6759 0.4738
C5B C 0.7080(4) 0.6457(4) 0.4855(4)
H3B H 0.7163 0.6128 0.4773
O1S O 0.57765(17) 0.63636(16) 0.5000
C4S C 0.6829(4) 0.7422(5) 0.5150(4)
H2S H 0.6759 0.7745 0.5262
C5S C 0.6457(4) 0.7080(4) 0.5145(4)
H3S H 0.6128 0.7163 0.5227
O1TB O 0.86364(16) 0.92235(17) 0.5000
C1TB C 0.8790(3) 0.8790(3) 0.5000
C2TB C 0.8403(3) 0.8403(3) 0.5000
C3TB C 0.7698(4) 0.7698(4) 0.5000
C4TB C 0.7578(5) 0.8171(4) 0.4850(4)
H2TB H 0.7255 0.8241 0.4738
C5TB C 0.7920(4) 0.8543(4) 0.4855(4)
H3TB H 0.7837 0.8872 0.4773
O1LC O 0.92235(17) 0.86364(16) 0.5000
C4LC C 0.8171(4) 0.7578(5) 0.5150(4)
H2LC H 0.8241 0.7255 0.5262
C5LC C 0.8543(4) 0.7920(4) 0.5145(4)
H3LC H 0.8872 0.7837 0.5227
C4RC C 0.7422(5) 0.6829(4) 0.5150(4)
H2RC H 0.7745 0.6759 0.5262
C5RC C 0.7080(4) 0.6457(4) 0.5145(4)
H3RC H 0.7163 0.6128 0.5227
C4JD C 0.6829(4) 0.7422(5) 0.4850(4)
H2JD H 0.6759 0.7745 0.4738
C5JD C 0.6457(4) 0.7080(4) 0.4855(4)
H3JD H 0.6128 0.7163 0.4773
C4NF C 0.7578(5) 0.8171(4) 0.5150(4)
H2NF H 0.7255 0.8241 0.5262
C5NF C 0.7920(4) 0.8543(4) 0.5145(4)
H3NF H 0.7837 0.8872 0.5227
C4EG C 0.8171(4) 0.7578(5) 0.4850(4)
H2EG H 0.8241 0.7255 0.4738
C5EG C 0.8543(4) 0.7920(4) 0.4855(4)
H3EG H 0.8872 0.7837 0.4773
O2C O 0.45377(9) 0.54623(9) 0.45377(9)
H1C H 0.4360 0.5640 0.4360
Eu1C Eu 0.5000 0.60088(2) 0.5000
Eu1I Eu 0.5000 0.5000 0.39912(2)
Eu1TB Eu 0.89912(2) 0.0000 0.5000
Eu1TB_2 Eu 0.89912(2) 1.0000 0.5000
Eu1UB Eu 1.0000 0.89912(2) 0.5000
Eu1VB Eu 0.10088(2) 0.0000 0.5000
Eu1WB Eu 0.0000 0.10088(2) 0.5000
Eu1WB_2 Eu 1.0000 0.10088(2) 0.5000
O1D O 0.36364(16) 0.5000 0.42235(17)
O1E O 0.36364(16) 0.57765(17) 0.5000
O1F O 0.36364(16) 0.5000 0.57765(17)
O1J O 0.5000 0.36364(16) 0.42235(17)
O1P O 0.5000 0.36364(16) 0.57765(17)
O1T O 0.63636(16) 0.5000 0.42235(17)
O1U O 0.63636(16) 0.5000 0.57765(17)
O2E O 0.45377(9) 0.54623(9) 0.54623(9)
O2F O 0.45377(9) 0.45377(9) 0.54623(9)
O2H O 0.54623(9) 0.45377(9) 0.54623(9)
O2S O 0.54623(9) 0.54623(9) 0.54623(9)
loop_
_geom_bond_atom_site_label_1
_geom_bond_atom_site_label_2
_geom_bond_site_symmetry_1
_geom_bond_site_symmetry_2
Eu1 O1 1_555 1_555
O1 C1 1_555 1_555
O2 Eu1 1_555 1_555
H1 O2 1_555 1_555
C1 C2 1_555 1_555
C2 C5 1_555 1_555
C3 C4 1_555 1_555
C4 H2 1_555 1_555
C5 C4 1_555 1_555
H3 C5 1_555 1_555
O1R C1 1_555 1_555
C4R C3 1_555 1_555
H2R C4R 1_555 1_555
C5R C2 1_555 1_555
H3R C5R 1_555 1_555
O1VB C1VB 1_555 1_555
C1VB C2VB 1_555 1_555
C2VB C5VB 1_555 1_555
C3VB C3 1_555 1_555
C4VB C3VB 1_555 1_555
H2VB C4VB 1_555 1_555
C5VB C4VB 1_555 1_555
H3VB C5VB 1_555 1_555
O1MC C1VB 1_555 1_555
C4MC C3VB 1_555 1_555
H2MC C4MC 1_555 1_555
C5MC C2VB 1_555 1_555
H3MC C5MC 1_555 1_555
C4TC C3 1_555 1_555
H2TC C4TC 1_555 1_555
C5TC C2 1_555 1_555
H3TC H3 1_555 1_555
C4KD C3 1_555 1_555
H2KD C4KD 1_555 1_555
C5KD C2 1_555 1_555
H3KD H3R 1_555 1_555
C4LF C3VB 1_555 1_555
H2LF C4LF 1_555 1_555
C5LF C2VB 1_555 1_555
H3LF H3VB 1_555 1_555
C4DG C3VB 1_555 1_555
H2DG C4DG 1_555 1_555
C5DG C2VB 1_555 1_555
H3DG H3MC 1_555 1_555
Eu1A O2 1_555 1_555
O1A Eu1A 1_555 1_555
O2A Eu1A 1_555 1_555
H1A O2A 1_555 1_555
C1A O1A 1_555 1_555
C2A C1A 1_555 1_555
C3A C4A 1_555 1_555
C4A H2A 1_555 1_555
C5A C2A 1_555 1_555
H3A C5A 1_555 1_555
O1H C1A 1_555 1_555
C4H C3A 1_555 1_555
H2H C4H 1_555 1_555
C5H C2A 1_555 1_555
H3H C5H 1_555 1_555
O1WB C1WB 1_555 1_555
C1WB C2WB 1_555 1_555
C2WB C5WB 1_555 1_555
C3WB C3A 1_555 1_555
C4WB C3WB 1_555 1_555
H2WB C4WB 1_555 1_555
C5WB C4WB 1_555 1_555
H3WB C5WB 1_555 1_555
O1YB C1WB 1_555 1_555
C4YB C3WB 1_555 1_555
H2YB C4YB 1_555 1_555
C5YB C2WB 1_555 1_555
H3YB C5YB 1_555 1_555
C4UC C3A 1_555 1_555
H2UC C4UC 1_555 1_555
C5UC C2A 1_555 1_555
H3UC H3A 1_555 1_555
C4WC C3A 1_555 1_555
H2WC C4WC 1_555 1_555
C5WC C2A 1_555 1_555
H3WC H3H 1_555 1_555
C4MF C3WB 1_555 1_555
H2MF C4MF 1_555 1_555
C5MF C2WB 1_555 1_555
H3MF H3WB 1_555 1_555
C4TF C3WB 1_555 1_555
H2TF C4TF 1_555 1_555
C5TF C2WB 1_555 1_555
H3TF H3YB 1_555 1_555
Eu1B O2A 1_555 1_555
O1B Eu1B 1_555 1_555
O2B Eu1B 1_555 1_555
H1B O2B 1_555 1_555
C1B O1B 1_555 1_555
C2B C1B 1_555 1_555
C3B C4B 1_555 1_555
C4B H2B 1_555 1_555
C5B C2B 1_555 1_555
H3B C5B 1_555 1_555
O1S C1B 1_555 1_555
C4S C3B 1_555 1_555
H2S C4S 1_555 1_555
C5S C2B 1_555 1_555
H3S C5S 1_555 1_555
O1TB C1TB 1_555 1_555
C1TB C2TB 1_555 1_555
C2TB C5TB 1_555 1_555
C3TB C3B 1_555 1_555
C4TB C3TB 1_555 1_555
H2TB C4TB 1_555 1_555
C5TB C4TB 1_555 1_555
H3TB C5TB 1_555 1_555
O1LC C1TB 1_555 1_555
C4LC C3TB 1_555 1_555
H2LC C4LC 1_555 1_555
C5LC C2TB 1_555 1_555
H3LC C5LC 1_555 1_555
C4RC C3B 1_555 1_555
H2RC C4RC 1_555 1_555
C5RC C2B 1_555 1_555
H3RC H3B 1_555 1_555
C4JD C3B 1_555 1_555
H2JD C4JD 1_555 1_555
C5JD C2B 1_555 1_555
H3JD H3S 1_555 1_555
C4NF C3TB 1_555 1_555
H2NF C4NF 1_555 1_555
C5NF C2TB 1_555 1_555
H3NF H3TB 1_555 1_555
C4EG C3TB 1_555 1_555
H2EG C4EG 1_555 1_555
C5EG C2TB 1_555 1_555
H3EG H3LC 1_555 1_555
O2C Eu1 1_555 1_555
H1C O2C 1_555 1_555
Eu1C O2B 1_555 1_555
Eu1I O2 1_555 1_555
Eu1TB O1YB 1_555 1_555
Eu1TB_2 O1TB 1_555 1_555
Eu1UB O1LC 1_555 1_555
Eu1VB O1VB 1_555 1_555
Eu1WB O1MC 1_555 1_555
Eu1WB_2 O1WB 1_555 1_555
O1D Eu1 1_555 1_555
O1E Eu1 1_555 1_555
O1F Eu1 1_555 1_555
O1J Eu1A 1_555 1_555
O1P Eu1A 1_555 1_555
O1T Eu1B 1_555 1_555
O1U Eu1B 1_555 1_555
O2E Eu1 1_555 1_555
O2F Eu1 1_555 1_555
O2H Eu1A 1_555 1_555
O2S Eu1B 1_555 1_555
C4 C4TC 1_555 1_555
C4 C5TC 1_555 1_555
C5 C4TC 1_555 1_555
C5 C5TC 1_555 1_555
O1R Eu1A 1_555 1_555
C4R C5R 1_555 1_555
C4R C4KD 1_555 1_555
C4R C5KD 1_555 1_555
C5R C4KD 1_555 1_555
C5R C5KD 1_555 1_555
C4VB C4LF 1_555 1_555
C4VB C5LF 1_555 1_555
C5VB C4LF 1_555 1_555
C5VB C5LF 1_555 1_555
C4MC C5MC 1_555 1_555
C4MC C4DG 1_555 1_555
C4MC C5DG 1_555 1_555
C5MC C4DG 1_555 1_555
C5MC C5DG 1_555 1_555
C4TC C5TC 1_555 1_555
C5TC H3TC 1_555 1_555
C4KD C5KD 1_555 1_555
C5KD H3KD 1_555 1_555
C4LF C5LF 1_555 1_555
C5LF H3LF 1_555 1_555
C4DG C5DG 1_555 1_555
C5DG H3DG 1_555 1_555
Eu1A O2F 1_555 1_555
O2A Eu1I 1_555 1_555
C4A C5A 1_555 1_555
C4A C4UC 1_555 1_555
C4A C5UC 1_555 1_555
C5A C4UC 1_555 1_555
C5A C5UC 1_555 1_555
O1H Eu1B 1_555 1_555
C4H C5H 1_555 1_555
C4H C4WC 1_555 1_555
C4H C5WC 1_555 1_555
C5H C4WC 1_555 1_555
C5H C5WC 1_555 1_555
C4WB C4MF 1_555 1_555
C4WB C5MF 1_555 1_555
C5WB C4MF 1_555 1_555
C5WB C5MF 1_555 1_555
C4YB C5YB 1_555 1_555
C4YB C4TF 1_555 1_555
C4YB C5TF 1_555 1_555
C5YB C4TF 1_555 1_555
C5YB C5TF 1_555 1_555
C4UC C5UC 1_555 1_555
C5UC H3UC 1_555 1_555
C4WC C5WC 1_555 1_555
C5WC H3WC 1_555 1_555
C4MF C5MF 1_555 1_555
C5MF H3MF 1_555 1_555
C4TF C5TF 1_555 1_555
C5TF H3TF 1_555 1_555
Eu1B O2H 1_555 1_555
O2B Eu1I 1_555 1_555
C4B C5B 1_555 1_555
C4B C4RC 1_555 1_555
C4B C5RC 1_555 1_555
C5B C4RC 1_555 1_555
C5B C5RC 1_555 1_555
O1S Eu1C 1_555 1_555
C4S C5S 1_555 1_555
C4S C4JD 1_555 1_555
C4S C5JD 1_555 1_555
C5S C4JD 1_555 1_555
C5S C5JD 1_555 1_555
C4TB C4NF 1_555 1_555
C4TB C5NF 1_555 1_555
C5TB C4NF 1_555 1_555
C5TB C5NF 1_555 1_555
C4LC C5LC 1_555 1_555
C4LC C4EG 1_555 1_555
C4LC C5EG 1_555 1_555
C5LC C4EG 1_555 1_555
C5LC C5EG 1_555 1_555
C4RC C5RC 1_555 1_555
C5RC H3RC 1_555 1_555
C4JD C5JD 1_555 1_555
C5JD H3JD 1_555 1_555
C4NF C5NF 1_555 1_555
C5NF H3NF 1_555 1_555
C4EG C5EG 1_555 1_555
C5EG H3EG 1_555 1_555
O2C Eu1C 1_555 1_555
O2C Eu1I 1_555 1_555
Eu1C O2E 1_555 1_555
Eu1C O2S 1_555 1_555

#END
