
#######################################################################
#
#                 Cambridge Crystallographic Data Centre
#                                CCDC 
#
#######################################################################
#
# If this CIF has been generated from an entry in the Cambridge 
# Structural Database, then it will include bibliographic, chemical, 
# crystal, experimental, refinement or atomic coordinate data resulting 
# from the CCDC's data processing and validation procedures.
#
#######################################################################

data_BEGDEY
_chemical_formula_moiety         'C64 Cu8 N8 O24 Zn1'
_symmetry_cell_setting           tetragonal
_symmetry_space_group_name_H-M   'I 4/m m m'
_symmetry_Int_Tables_number      139
_space_group_name_Hall           '-I 4 2'
loop_
_symmetry_equiv_pos_site_id
_symmetry_equiv_pos_as_xyz
1 x,y,z
2 -x,-y,z
3 x,-y,-z
4 -x,y,-z
5 -y,-x,-z
6 y,x,-z
7 y,-x,z
8 -y,x,z
9 1/2+x,1/2+y,1/2+z
10 1/2-x,1/2-y,1/2+z
11 1/2+x,1/2-y,1/2-z
12 1/2-x,1/2+y,1/2-z
13 1/2-y,1/2-x,1/2-z
14 1/2+y,1/2+x,1/2-z
15 1/2+y,1/2-x,1/2+z
16 1/2-y,1/2+x,1/2+z
17 -x,-y,-z
18 x,y,-z
19 -x,y,z
20 x,-y,z
21 y,x,z
22 -y,-x,z
23 -y,x,-z
24 y,-x,-z
25 1/2-x,1/2-y,1/2-z
26 1/2+x,1/2+y,1/2-z
27 1/2-x,1/2+y,1/2+z
28 1/2+x,1/2-y,1/2+z
29 1/2+y,1/2+x,1/2+z
30 1/2-y,1/2-x,1/2+z
31 1/2-y,1/2+x,1/2-z
32 1/2+y,1/2-x,1/2-z
_cell_length_a                   18.6992(11)
_cell_length_b                   18.6992(11)
_cell_length_c                   35.768(3)
_cell_angle_alpha                90
_cell_angle_beta                 90
_cell_angle_gamma                90
_cell_volume                     12506.6
loop_
_atom_site_label
_atom_site_type_symbol
_atom_site_fract_x
_atom_site_fract_y
_atom_site_fract_z
_atom_site_U_iso_or_equiv
_atom_site_thermal_displace_type
Zn1 Zn 0.28898(13) 0.0000 1.0000 0.1205 Uani
N1 N 0.3499(7) 0.0312(6) 0.9597(2) 0.0760 Uani
N2 N 0.2172(8) 0.0403(6) 0.9595(2) 0.0943 Uani
C1 C 0.4467(17) 0.077(2) 1.0000 0.1803 Uani
C2 C 0.4176(10) 0.0634(9) 0.9651(3) 0.0903 Uani
C3 C 0.4530(12) 0.0715(12) 0.9300(5) 0.1563 Uani
C4 C 0.4052(10) 0.0566(10) 0.9031(3) 0.1003 Uani
C5 C 0.3397(11) 0.0284(7) 0.9204(3) 0.0940 Uani
C6 C 0.2818(6) -0.0000 0.9038(2) 0.0720 Uani
C7 C 0.2244(10) 0.0311(7) 0.9207(3) 0.0910 Uani
C8 C 0.1710(15) 0.0593(10) 0.9024(4) 0.1520 Uani
C9 C 0.1106(10) 0.0777(10) 0.9325(3) 0.1283 Uani
C10 C 0.1447(13) 0.0638(12) 0.9656(3) 0.1410 Uani
C11 C 0.1100(12) 0.095(3) 1.0000 0.2723 Uani
C12 C 0.2796(5) 0.0000 0.8619(2) 0.0697 Uani
C13 C 0.2768(4) 0.0641(4) 0.84220(15) 0.0767 Uani
C14 C 0.2694(3) 0.0651(3) 0.80345(13) 0.0603 Uani
C15 C 0.2617(5) -0.0000 0.78412(19) 0.0563 Uani
C16 C 0.2634(4) 0.1315(4) 0.78342(14) 0.0620 Uani
O1 O 0.2886(2) 0.1866(2) 0.79941(10) 0.0651 Uani
O2 O 0.2361(2) 0.1322(2) 0.75151(10) 0.0640 Uani
O3 O 0.3350(3) 0.3350(3) 0.82404(15) 0.0893 Uani
Cu1 Cu 0.28238(3) 0.28238(3) 0.77844(2) 0.0473 Uani
N1S N 0.3499(7) -0.0312(6) 0.9597(2) 0.0760 Uani
N1B N 0.3499(7) -0.0312(6) 1.0403(2) 0.0760 Uani
N1Q N 0.3499(7) 0.0312(6) 1.0403(2) 0.0760 Uani
N2S N 0.2172(8) -0.0403(6) 0.9595(2) 0.0943 Uani
N2B N 0.2172(8) -0.0403(6) 1.0405(2) 0.0943 Uani
N2Q N 0.2172(8) 0.0403(6) 1.0405(2) 0.0943 Uani
C1B C 0.4467(17) -0.077(2) 1.0000 0.1803 Uani
C2Q C 0.4176(10) 0.0634(9) 1.0349(3) 0.0903 Uani
C2B C 0.4176(10) -0.0634(9) 1.0349(3) 0.0903 Uani
C2S C 0.4176(10) -0.0634(9) 0.9651(3) 0.0903 Uani
C3R C 0.5470(12) 0.0715(12) 0.9300(5) 0.1563 Uani
C3B C 0.4530(12) -0.0715(12) 1.0700(5) 0.1563 Uani
C3P C 0.5470(12) -0.0715(12) 1.0700(5) 0.1563 Uani
C3Q C 0.4530(12) 0.0715(12) 1.0700(5) 0.1563 Uani
C3C C 0.5470(12) 0.0715(12) 1.0700(5) 0.1563 Uani
C3S C 0.4530(12) -0.0715(12) 0.9300(5) 0.1563 Uani
C3A C 0.5470(12) -0.0715(12) 0.9300(5) 0.1563 Uani
C4B C 0.4052(10) -0.0566(10) 1.0969(3) 0.1003 Uani
C4Q C 0.4052(10) 0.0566(10) 1.0969(3) 0.1003 Uani
C4S C 0.4052(10) -0.0566(10) 0.9031(3) 0.1003 Uani
C5S C 0.3397(11) -0.0284(7) 0.9204(3) 0.0940 Uani
C5B C 0.3397(11) -0.0284(7) 1.0796(3) 0.0940 Uani
C5Q C 0.3397(11) 0.0284(7) 1.0796(3) 0.0940 Uani
C6B C 0.2818(6) -0.0000 1.0962(2) 0.0720 Uani
C7S C 0.2244(10) -0.0311(7) 0.9207(3) 0.0910 Uani
C7B C 0.2244(10) -0.0311(7) 1.0793(3) 0.0910 Uani
C7Q C 0.2244(10) 0.0311(7) 1.0793(3) 0.0910 Uani
C8B C 0.1710(15) -0.0593(10) 1.0976(4) 0.1520 Uani
C8Q C 0.1710(15) 0.0593(10) 1.0976(4) 0.1520 Uani
C8S C 0.1710(15) -0.0593(10) 0.9024(4) 0.1520 Uani
C9T C 0.0777(10) 0.1106(10) 0.9325(3) 0.1283 Uani
C9B C 0.1106(10) -0.0777(10) 1.0675(3) 0.1283 Uani
C9W C 0.0777(10) -0.1106(10) 1.0675(3) 0.1283 Uani
C9Q C 0.1106(10) 0.0777(10) 1.0675(3) 0.1283 Uani
C9E C 0.0777(10) 0.1106(10) 1.0675(3) 0.1283 Uani
C9S C 0.1106(10) -0.0777(10) 0.9325(3) 0.1283 Uani
C9F C 0.0777(10) -0.1106(10) 0.9325(3) 0.1283 Uani
C10Q C 0.1447(13) 0.0638(12) 1.0344(3) 0.1410 Uani
C10B C 0.1447(13) -0.0638(12) 1.0344(3) 0.1410 Uani
C10S C 0.1447(13) -0.0638(12) 0.9656(3) 0.1410 Uani
C11E C 0.095(3) 0.1100(12) 1.0000 0.2723 Uani
C11B C 0.1100(12) -0.095(3) 1.0000 0.2723 Uani
C11F C 0.095(3) -0.1100(12) 1.0000 0.2723 Uani
C12B C 0.2796(5) -0.0000 1.1381(2) 0.0697 Uani
C13S C 0.2768(4) -0.0641(4) 0.84220(15) 0.0767 Uani
C13B C 0.2768(4) -0.0641(4) 1.15780(15) 0.0767 Uani
C13Q C 0.2768(4) 0.0641(4) 1.15780(15) 0.0767 Uani
C14S C 0.2694(3) -0.0651(3) 0.80345(13) 0.0603 Uani
C14B C 0.2694(3) -0.0651(3) 1.19655(13) 0.0603 Uani
C14Q C 0.2694(3) 0.0651(3) 1.19655(13) 0.0603 Uani
C15B C 0.2617(5) 0.0000 1.21588(19) 0.0563 Uani
C16B C 0.2634(4) -0.1315(4) 1.21658(14) 0.0620 Uani
C16Q C 0.2634(4) 0.1315(4) 1.21658(14) 0.0620 Uani
C16S C 0.2634(4) -0.1315(4) 0.78342(14) 0.0620 Uani
O1T O 0.1866(2) 0.2886(2) 0.79941(10) 0.0651 Uani
O1B O 0.2886(2) -0.1866(2) 1.20059(10) 0.0651 Uani
O1W O 0.1866(2) -0.2886(2) 1.20059(10) 0.0651 Uani
O1Q O 0.2886(2) 0.1866(2) 1.20059(10) 0.0651 Uani
O1E O 0.1866(2) 0.2886(2) 1.20059(10) 0.0651 Uani
O1S O 0.2886(2) -0.1866(2) 0.79941(10) 0.0651 Uani
O1F O 0.1866(2) -0.2886(2) 0.79941(10) 0.0651 Uani
O2L O 0.3678(2) 0.2639(2) 0.74849(10) 0.0640 Uani
O2X O 0.2639(2) 0.3678(2) 0.74849(10) 0.0640 Uani
O2B O 0.2361(2) -0.1322(2) 1.24849(10) 0.0640 Uani
O2O O 0.3678(2) -0.2639(2) 1.25151(10) 0.0640 Uani
O2Z O 0.2639(2) -0.3678(2) 1.25151(10) 0.0640 Uani
O2Q O 0.2361(2) 0.1322(2) 1.24849(10) 0.0640 Uani
O2CA O 0.3678(2) 0.2639(2) 1.25151(10) 0.0640 Uani
O2I O 0.2639(2) 0.3678(2) 1.25151(10) 0.0640 Uani
O2S O 0.2361(2) -0.1322(2) 0.75151(10) 0.0640 Uani
O2DA O 0.3678(2) -0.2639(2) 0.74849(10) 0.0640 Uani
O2K O 0.2639(2) -0.3678(2) 0.74849(10) 0.0640 Uani
O3B O 0.3350(3) -0.3350(3) 1.17596(15) 0.0893 Uani
O3E O 0.3350(3) 0.3350(3) 1.17596(15) 0.0893 Uani
O3F O 0.3350(3) -0.3350(3) 0.82404(15) 0.0893 Uani
Cu1L Cu 0.21762(3) 0.21762(3) 0.72156(2) 0.0473 Uani
Cu1B Cu 0.28238(3) -0.28238(3) 1.22156(2) 0.0473 Uani
Cu1O Cu 0.21762(3) -0.21762(3) 1.27844(2) 0.0473 Uani
Cu1E Cu 0.28238(3) 0.28238(3) 1.22156(2) 0.0473 Uani
Cu1I Cu 0.21762(3) 0.21762(3) 1.27844(2) 0.0473 Uani
Cu1F Cu 0.28238(3) -0.28238(3) 0.77844(2) 0.0473 Uani
Cu1K Cu 0.21762(3) -0.21762(3) 0.72156(2) 0.0473 Uani
loop_
_atom_site_aniso_label
_atom_site_aniso_U_11
_atom_site_aniso_U_22
_atom_site_aniso_U_33
_atom_site_aniso_U_23
_atom_site_aniso_U_13
_atom_site_aniso_U_12
Zn1 0.148(2) 0.188(2) 0.0256(7) 0.000 0.000 0.000
N1 0.109(8) 0.093(8) 0.026(4) 0.000(4) -0.001(5) -0.007(6)
N2 0.172 0.086 0.025 0.005 0.009 0.045
C1 0.19(3) 0.29(5) 0.061(13) 0.000 0.000 -0.15(3)
C2 0.136(14) 0.113(12) 0.022(5) 0.007(6) 0.015(7) 0.004(11)
C3 0.19(2) 0.18(2) 0.099(12) -0.019(13) 0.113(14) -0.053(16)
C4 0.119(13) 0.148(14) 0.034(6) -0.003(8) 0.035(7) -0.033(11)
C5 0.168(16) 0.077(10) 0.037(5) 0.011(5) -0.013(8) 0.029(9)
C6 0.135(9) 0.050(5) 0.031(4) 0.000 -0.012(5) 0.000
C7 0.168(15) 0.077(8) 0.028(5) -0.002(5) -0.014(7) 0.058(9)
C8 0.31(3) 0.103(13) 0.043(7) 0.004(8) -0.027(12) 0.111(17)
C9 0.177(17) 0.169(16) 0.039(6) 0.001(8) -0.014(8) 0.110(15)
C10 0.21(2) 0.179(18) 0.034(6) 0.011(8) 0.023(9) 0.148(16)
C11 0.76 0.037 0.02 0 0 0
C12 0.126(8) 0.054(5) 0.029(3) 0.000 0.010(4) 0.000
C13 0.132(7) 0.063(4) 0.035(3) 0.002(3) 0.002(3) -0.004(4)
C14 0.090(5) 0.065(4) 0.026(2) -0.002(2) 0.003(2) 0.000(3)
C15 0.076(5) 0.067(5) 0.026(3) 0.000 0.010(3) 0.000
C16 0.081(4) 0.069(4) 0.036(3) -0.007(3) 0.018(3) 0.002(3)
O1 0.101(3) 0.063(3) 0.0313(18) 0.0070(18) -0.0084(19) -0.018(2)
O2 0.097 0.061 0.034 0.0059 0.0027 -0.007
O3 0.109(3) 0.109(3) 0.050(3) -0.027(2) -0.027(2) -0.007(4)
Cu1 0.0607(5) 0.0607(5) 0.0205(4) -0.0014(2) -0.0014(2) -0.0102(4)
N1S 0.109 0.093 0.026 0 -0.001 0.007
N1B 0.109 0.093 0.026 0 0.001 0.007
N1Q 0.109 0.093 0.026 0 0.001 -0.007
N2S 0.172 0.086 0.025 -0.005 0.009 -0.045
N2B 0.172 0.086 0.025 0.005 -0.009 -0.045
N2Q 0.172 0.086 0.025 -0.005 -0.009 0.045
C1B 0.19 0.29 0.061 0 0 0.15
C2Q 0.136 0.113 0.022 -0.007 -0.015 0.004
C2B 0.136 0.113 0.022 0.007 -0.015 -0.004
C2S 0.136 0.113 0.022 -0.007 0.015 -0.004
C3R 0.19 0.18 0.099 -0.019 -0.113 0.053
C3B 0.19 0.18 0.099 -0.019 -0.113 0.053
C3P 0.19 0.18 0.099 -0.019 0.113 -0.053
C3Q 0.19 0.18 0.099 0.019 -0.113 -0.053
C3C 0.19 0.18 0.099 0.019 0.113 0.053
C3S 0.19 0.18 0.099 0.019 0.113 0.053
C3A 0.19 0.18 0.099 0.019 -0.113 -0.053
C4B 0.119 0.148 0.034 -0.003 -0.035 0.033
C4Q 0.119 0.148 0.034 0.003 -0.035 -0.033
C4S 0.119 0.148 0.034 0.003 0.035 0.033
C5S 0.168 0.077 0.037 -0.011 -0.013 -0.029
C5B 0.168 0.077 0.037 0.011 0.013 -0.029
C5Q 0.168 0.077 0.037 -0.011 0.013 0.029
C6B 0.135 0.05 0.031 0 0.012 0
C7S 0.168 0.077 0.028 0.002 -0.014 -0.058
C7B 0.168 0.077 0.028 -0.002 0.014 -0.058
C7Q 0.168 0.077 0.028 0.002 0.014 0.058
C8B 0.31 0.103 0.043 0.004 0.027 -0.111
C8Q 0.31 0.103 0.043 -0.004 0.027 0.111
C8S 0.31 0.103 0.043 -0.004 -0.027 -0.111
C9T 0.169 0.177 0.039 -0.014 0.001 0.11
C9B 0.177 0.169 0.039 0.001 0.014 -0.11
C9W 0.169 0.177 0.039 -0.014 -0.001 -0.11
C9Q 0.177 0.169 0.039 -0.001 0.014 0.11
C9E 0.169 0.177 0.039 0.014 -0.001 0.11
C9S 0.177 0.169 0.039 -0.001 -0.014 -0.11
C9F 0.169 0.177 0.039 0.014 0.001 -0.11
C10Q 0.21 0.179 0.034 -0.011 -0.023 0.148
C10B 0.21 0.179 0.034 0.011 -0.023 -0.148
C10S 0.21 0.179 0.034 -0.011 0.023 -0.148
C11E 0.037(11) 0.76(9) 0.020(6) 0.000 0.000 0.00(3)
C11B 0.76 0.037 0.02 0 0 0
C11F 0.037 0.76 0.02 0 0 0
C12B 0.126 0.054 0.029 0 -0.01 0
C13S 0.132 0.063 0.035 -0.002 0.002 0.004
C13B 0.132 0.063 0.035 0.002 -0.002 0.004
C13Q 0.132 0.063 0.035 -0.002 -0.002 -0.004
C14S 0.09 0.065 0.026 0.002 0.003 0
C14B 0.09 0.065 0.026 -0.002 -0.003 0
C14Q 0.09 0.065 0.026 0.002 -0.003 0
C15B 0.076 0.067 0.026 0 -0.01 0
C16B 0.081 0.069 0.036 -0.007 -0.018 -0.002
C16Q 0.081 0.069 0.036 0.007 -0.018 0.002
C16S 0.081 0.069 0.036 0.007 0.018 -0.002
O1T 0.063 0.101 0.0313 -0.0084 0.007 -0.018
O1B 0.101 0.063 0.0313 0.007 0.0084 0.018
O1W 0.063 0.101 0.0313 -0.0084 -0.007 0.018
O1Q 0.101 0.063 0.0313 -0.007 0.0084 -0.018
O1E 0.063 0.101 0.0313 0.0084 -0.007 -0.018
O1S 0.101 0.063 0.0313 -0.007 -0.0084 0.018
O1F 0.063 0.101 0.0313 0.0084 0.007 0.018
O2L 0.061 0.097 0.034 0.0027 0.0059 -0.007
O2X 0.097 0.061 0.034 0.0059 0.0027 -0.007
O2B 0.097 0.061 0.034 0.0059 -0.0027 0.007
O2O 0.061 0.097 0.034 0.0027 -0.0059 0.007
O2Z 0.097 0.061 0.034 0.0059 -0.0027 0.007
O2Q 0.097 0.061 0.034 -0.0059 -0.0027 -0.007
O2CA 0.061 0.097 0.034 -0.0027 -0.0059 -0.007
O2I 0.097 0.061 0.034 -0.0059 -0.0027 -0.007
O2S 0.097 0.061 0.034 -0.0059 0.0027 0.007
O2DA 0.061 0.097 0.034 -0.0027 0.0059 0.007
O2K 0.097 0.061 0.034 -0.0059 0.0027 0.007
O3B 0.109 0.109 0.05 -0.027 0.027 0.007
O3E 0.109 0.109 0.05 0.027 0.027 -0.007
O3F 0.109 0.109 0.05 0.027 -0.027 0.007
Cu1L 0.0607 0.0607 0.0205 -0.0014 -0.0014 -0.0102
Cu1B 0.0607 0.0607 0.0205 -0.0014 0.0014 0.0102
Cu1O 0.0607 0.0607 0.0205 -0.0014 0.0014 0.0102
Cu1E 0.0607 0.0607 0.0205 0.0014 0.0014 -0.0102
Cu1I 0.0607 0.0607 0.0205 0.0014 0.0014 -0.0102
Cu1F 0.0607 0.0607 0.0205 0.0014 -0.0014 0.0102
Cu1K 0.0607 0.0607 0.0205 0.0014 -0.0014 0.0102
loop_
_geom_bond_atom_site_label_1
_geom_bond_atom_site_label_2
_geom_bond_site_symmetry_1
_geom_bond_site_symmetry_2
Zn1 N1 1_555 1_555
N1 C2 1_555 1_555
N2 Zn1 1_555 1_555
C1 C2 1_555 1_555
C2 C3 1_555 1_555
C3 C4 1_555 1_555
C4 C5 1_555 1_555
C5 N1 1_555 1_555
C6 C5 1_555 1_555
C7 N2 1_555 1_555
C8 C7 1_555 1_555
C9 C8 1_555 1_555
C10 N2 1_555 1_555
C11 C10 1_555 1_555
C12 C6 1_555 1_555
C13 C12 1_555 1_555
C14 C13 1_555 1_555
C15 C14 1_555 1_555
C16 C14 1_555 1_555
O1 C16 1_555 1_555
O2 C16 1_555 1_555
O3 Cu1 1_555 1_555
Cu1 O1 1_555 1_555
N1S Zn1 1_555 1_555
N1B Zn1 1_555 1_555
N1Q Zn1 1_555 1_555
N2S Zn1 1_555 1_555
N2B Zn1 1_555 1_555
N2Q Zn1 1_555 1_555
C1B C2B 1_555 1_555
C2Q C1 1_555 1_555
C2B N1B 1_555 1_555
C2S N1S 1_555 1_555
C3R C3 1_555 1_555
C3B C2B 1_555 1_555
C3P C3B 1_555 1_555
C3Q C2Q 1_555 1_555
C3C C3Q 1_555 1_555
C3S C2S 1_555 1_555
C3A C3S 1_555 1_555
C4B C3B 1_555 1_555
C4Q C3Q 1_555 1_555
C4S C3S 1_555 1_555
C5S C5 1_555 1_555
C5B N1B 1_555 1_555
C5Q N1Q 1_555 1_555
C6B C5B 1_555 1_555
C7S C6 1_555 1_555
C7B N2B 1_555 1_555
C7Q N2Q 1_555 1_555
C8B C7B 1_555 1_555
C8Q C7Q 1_555 1_555
C8S C7S 1_555 1_555
C9T C9 1_555 1_555
C9B C8B 1_555 1_555
C9W C9B 1_555 1_555
C9Q C8Q 1_555 1_555
C9E C9Q 1_555 1_555
C9S C8S 1_555 1_555
C9F C9S 1_555 1_555
C10Q C11 1_555 1_555
C10B N2B 1_555 1_555
C10S N2S 1_555 1_555
C11E C11 1_555 1_555
C11B C10B 1_555 1_555
C11F C11B 1_555 1_555
C12B C6B 1_555 1_555
C13S C12 1_555 1_555
C13B C12B 1_555 1_555
C13Q C12B 1_555 1_555
C14S C15 1_555 1_555
C14B C13B 1_555 1_555
C14Q C13Q 1_555 1_555
C15B C14B 1_555 1_555
C16B C14B 1_555 1_555
C16Q C14Q 1_555 1_555
C16S C14S 1_555 1_555
O1T Cu1 1_555 1_555
O1B C16B 1_555 1_555
O1W Cu1B 1_555 1_555
O1Q C16Q 1_555 1_555
O1E Cu1E 1_555 1_555
O1S C16S 1_555 1_555
O1F Cu1F 1_555 1_555
O2L Cu1 1_555 1_555
O2X Cu1 1_555 1_555
O2B C16B 1_555 1_555
O2O Cu1B 1_555 1_555
O2Z Cu1B 1_555 1_555
O2Q C16Q 1_555 1_555
O2CA Cu1E 1_555 1_555
O2I Cu1E 1_555 1_555
O2S C16S 1_555 1_555
O2DA Cu1F 1_555 1_555
O2K Cu1F 1_555 1_555
O3B Cu1B 1_555 1_555
O3E Cu1E 1_555 1_555
O3F Cu1F 1_555 1_555
Cu1L O2 1_555 1_555
Cu1B O1B 1_555 1_555
Cu1O O2B 1_555 1_555
Cu1E O1Q 1_555 1_555
Cu1I O2Q 1_555 1_555
Cu1F O1S 1_555 1_555
Cu1K O2S 1_555 1_555
N1 N1S 1_555 1_555
N2 N2S 1_555 1_555
C6 C7 1_555 1_555
C6 C5S 1_555 1_555
C7 C7S 1_555 1_555
C9 C10 1_555 1_555
N1S C5S 1_555 1_555
N1B N1Q 1_555 1_555
N1Q C2Q 1_555 1_555
N2S C7S 1_555 1_555
N2B N2Q 1_555 1_555
N2Q C10Q 1_555 1_555
C1B C2S 1_555 1_555
C4B C5B 1_555 1_555
C4Q C5Q 1_555 1_555
C4S C5S 1_555 1_555
C5B C5Q 1_555 1_555
C5Q C6B 1_555 1_555
C6B C7B 1_555 1_555
C6B C7Q 1_555 1_555
C7B C7Q 1_555 1_555
C9B C10B 1_555 1_555
C9Q C10Q 1_555 1_555
C9S C10S 1_555 1_555
C10S C11B 1_555 1_555
C13S C14S 1_555 1_555
C14Q C15B 1_555 1_555

#END
