
#######################################################################
#
#                 Cambridge Crystallographic Data Centre
#                                CCDC 
#
#######################################################################
#
# If this CIF has been generated from an entry in the Cambridge 
# Structural Database, then it will include bibliographic, chemical, 
# crystal, experimental, refinement or atomic coordinate data resulting 
# from the CCDC's data processing and validation procedures.
#
#######################################################################

data_OPAGIX
_chemical_formula_moiety         '(C14 H20 Mg2 N2 O10)n'
_symmetry_cell_setting           rhombohedral
_symmetry_space_group_name_H-M   'R -3'
_symmetry_Int_Tables_number      148
_space_group_name_Hall           '-R 3'
loop_
_symmetry_equiv_pos_site_id
_symmetry_equiv_pos_as_xyz
1 x,y,z
2 -y,x-y,z
3 -x+y,-x,z
4 2/3+x,1/3+y,1/3+z
5 2/3-y,1/3+x-y,1/3+z
6 2/3-x+y,1/3-x,1/3+z
7 1/3+x,2/3+y,2/3+z
8 1/3-y,2/3+x-y,2/3+z
9 1/3-x+y,2/3-x,2/3+z
10 -x,-y,-z
11 y,-x+y,-z
12 x-y,x,-z
13 1/3-x,2/3-y,2/3-z
14 1/3+y,2/3-x+y,2/3-z
15 1/3+x-y,2/3+x,2/3-z
16 2/3-x,1/3-y,1/3-z
17 2/3+y,1/3-x+y,1/3-z
18 2/3+x-y,1/3+x,1/3-z
_cell_length_a                   25.865(4)
_cell_length_b                   25.865(4)
_cell_length_c                   6.9110(14)
_cell_angle_alpha                90
_cell_angle_beta                 90
_cell_angle_gamma                120
_cell_volume                     4004.02
loop_
_atom_site_label
_atom_site_type_symbol
_atom_site_fract_x
_atom_site_fract_y
_atom_site_fract_z
Mg1 Mg 0.36753(5) 0.05163(5) 0.02431(14)
O1 O 0.36014(10) -0.01006(10) -0.1847(3)
O2 O 0.58446(10) -0.02200(11) -0.1705(3)
O3 O 0.40422(10) -0.03114(11) -0.4218(3)
C1 C 0.40271(14) -0.01629(15) -0.2500(4)
C2 C 0.45271(16) -0.00601(16) -0.1154(5)
C3 C 0.49744(16) -0.01499(16) -0.1903(5)
H1 H 0.4954 -0.0249 -0.3235
C4 C 0.54503(16) -0.01047(16) -0.0827(5)
O4 O 0.44244(12) 0.12166(12) -0.1033(4)
N1 N 0.4872(2) 0.1753(2) -0.3756(7)
C5 C 0.4608(3) 0.1276(4) -0.2720(11)
H2 H 0.4545 0.0921 -0.3335
C6 C 0.5038(5) 0.1765(6) -0.5755(14)
H3 H 0.5467 0.2042 -0.5905
H4 H 0.4815 0.1897 -0.6565
H5 H 0.4944 0.1364 -0.6152
C7 C 0.4926(6) 0.2321(5) -0.2841(16)
H6 H 0.4769 0.2502 -0.3741
H7 H 0.5346 0.2606 -0.2566
H8 H 0.4696 0.2217 -0.1634
O1I O 0.63986(10) 0.01006(10) 0.1847(3)
O2I O 0.41554(10) 0.02200(11) 0.1705(3)
O3I O 0.59578(10) 0.03114(11) 0.4218(3)
C1I C 0.59729(14) 0.01629(15) 0.2500(4)
C2I C 0.54729(16) 0.00601(16) 0.1154(5)
C3I C 0.50256(16) 0.01499(16) 0.1903(5)
H1I H 0.5046 0.0249 0.3235
C4I C 0.45497(16) 0.01047(16) 0.0827(5)
Mg1I Mg 0.63247(5) -0.05163(5) -0.02431(14)
O4I O 0.55756(12) -0.12166(12) 0.1033(4)
N1I N 0.5128(2) -0.1753(2) 0.3756(7)
C5I C 0.5392(3) -0.1276(4) 0.2720(11)
H2I H 0.5455 -0.0921 0.3335
C6I C 0.4962(5) -0.1765(6) 0.5755(14)
H3I H 0.4533 -0.2042 0.5905
H4I H 0.5185 -0.1897 0.6565
H5I H 0.5056 -0.1364 0.6152
C7I C 0.5074(6) -0.2321(5) 0.2841(16)
H6I H 0.5231 -0.2502 0.3741
H7I H 0.4654 -0.2606 0.2566
H8I H 0.5304 -0.2217 0.1634
Mg1E Mg 0.35077(7) -0.03420(5) -0.64236(14)
Mg1E_2 Mg 0.35077(7) -0.03420(5) 0.35764(14)
Mg1G Mg 0.28170(5) -0.01743(7) -0.30902(14)
Mg1P Mg 0.71830(5) 0.01743(7) 0.30902(14)
Mg1N Mg 0.64923(7) 0.03420(5) -0.35764(14)
Mg1N_2 Mg 0.64923(7) 0.03420(5) 0.64236(14)
O1E O 0.29647(14) -0.02681(10) 0.1486(3)
O1N O 0.70353(14) 0.02681(10) -0.1486(3)
O2D O 0.68867(11) -0.06021(15) 0.1628(3)
O2M O 0.31133(11) 0.06021(15) -0.1628(3)
O3G O 0.36447(11) 0.10203(15) 0.2449(3)
O3P O 0.63553(11) -0.10203(15) -0.2449(3)
O5 O 0.6667 0.3333 -0.6667
O6 O 0.6667 0.3333 -0.336(5)
loop_
_geom_bond_atom_site_label_1
_geom_bond_atom_site_label_2
_geom_bond_site_symmetry_1
_geom_bond_site_symmetry_2
Mg1 O1 1_555 1_555
O1 C1 1_555 1_555
O2 C4 1_555 1_555
O3 C1 1_555 1_555
C1 C2 1_555 1_555
C2 C3 1_555 1_555
C3 H1 1_555 1_555
C4 C3 1_555 1_555
O4 Mg1 1_555 1_555
N1 C5 1_555 1_555
C5 O4 1_555 1_555
H2 C5 1_555 1_555
C6 N1 1_555 1_555
H3 C6 1_555 1_555
H4 C6 1_555 1_555
H5 C6 1_555 1_555
C7 N1 1_555 1_555
H6 C7 1_555 1_555
H7 C7 1_555 1_555
H8 C7 1_555 1_555
O1I C1I 1_555 1_555
O2I Mg1 1_555 1_555
O3I C1I 1_555 1_555
C1I C2I 1_555 1_555
C2I C4 1_555 1_555
C3I C2I 1_555 1_555
H1I C3I 1_555 1_555
C4I C2 1_555 1_555
Mg1I O2 1_555 1_555
O4I Mg1I 1_555 1_555
N1I C5I 1_555 1_555
C5I O4I 1_555 1_555
H2I C5I 1_555 1_555
C6I N1I 1_555 1_555
H3I C6I 1_555 1_555
H4I C6I 1_555 1_555
H5I C6I 1_555 1_555
C7I N1I 1_555 1_555
H6I C7I 1_555 1_555
H7I C7I 1_555 1_555
H8I C7I 1_555 1_555
Mg1E O3 1_555 1_555
Mg1E_2 O2I 1_555 1_555
Mg1G O1 1_555 1_555
Mg1P O1I 1_555 1_555
Mg1N O2 1_555 1_555
Mg1N_2 O3I 1_555 1_555
O1E Mg1 1_555 1_555
O1N Mg1I 1_555 1_555
O2D Mg1I 1_555 1_555
O2M Mg1 1_555 1_555
O3G Mg1 1_555 1_555
O3P Mg1I 1_555 1_555
O1I Mg1I 1_555 1_555
O2I C4I 1_555 1_555
C3I C4I 1_555 1_555
Mg1E_2 O1E 1_555 1_555
Mg1G O2M 1_555 1_555
Mg1P O2D 1_555 1_555
Mg1N O1N 1_555 1_555

#END
