
#######################################################################
#
#                 Cambridge Crystallographic Data Centre
#                                CCDC 
#
#######################################################################
#
# If this CIF has been generated from an entry in the Cambridge 
# Structural Database, then it will include bibliographic, chemical, 
# crystal, experimental, refinement or atomic coordinate data resulting 
# from the CCDC's data processing and validation procedures.
#
#######################################################################

data_FANPAO
_chemical_formula_moiety         '(C36 H20 N20 O16 Zn4)n'
_symmetry_cell_setting           orthorhombic
_symmetry_space_group_name_H-M   'A b a 2'
_symmetry_Int_Tables_number      41
_space_group_name_Hall           'A 2 -2ab'
loop_
_symmetry_equiv_pos_site_id
_symmetry_equiv_pos_as_xyz
1 x,y,z
2 -x,-y,z
3 1/2-x,y,1/2+z
4 1/2+x,-y,1/2+z
5 x,1/2+y,1/2+z
6 -x,1/2-y,1/2+z
7 1/2-x,1/2+y,z
8 1/2+x,1/2-y,z
_cell_length_a                   17.8735(9)
_cell_length_b                   20.9554(14)
_cell_length_c                   20.7462(13)
_cell_angle_alpha                90
_cell_angle_beta                 90
_cell_angle_gamma                90
_cell_volume                     7770.41
loop_
_atom_site_label
_atom_site_type_symbol
_atom_site_fract_x
_atom_site_fract_y
_atom_site_fract_z
O1 O 0.9424(5) 0.7453(5) 0.9476(5)
C1 C 0.9576(8) 0.7854(10) 0.9071(8)
Zn1 Zn 0.52676(6) 0.80370(6) 0.97684(13)
Zn2 Zn 0.000000 1.000000 1.27974(9)
Zn3 Zn 0.500000 1.000000 1.17260(9)
O2 O 0.0856(5) 0.9634(5) 1.2391(4)
O3 O 0.0027(5) 0.9023(6) 1.1825(5)
O4 O 0.0911(6) 0.7413(5) 1.0328(5)
O5 O 0.9349(8) 0.9508(8) 0.7273(8)
O6 O 1.0238(7) 0.7924(7) 0.8803(8)
O7 O 0.1982(7) 0.7508(8) 0.9922(8)
O8 O 0.8382(11) 0.9994(10) 0.7410(10)
N1 N 0.4593(6) 0.9302(6) 1.1150(6)
N2 N 0.4777(6) 0.8624(5) 1.0444(5)
N3 N 0.5659(7) 0.8620(6) 0.9069(6)
N4 N 0.5516(6) 0.9317(6) 0.8377(6)
N5 N 0.6959(8) 0.8491(8) 0.8980(8)
H1 H 0.692890 0.820495 0.928924
N6 N 0.3351(9) 0.9079(9) 1.1455(9)
H2 H 0.340110 0.932990 1.179264
N7 N 0.5083(7) 0.9076(6) 1.0737(6)
H3 H 0.554200 0.921704 1.067693
N8 N 0.4074(8) 0.8510(7) 1.0618(7)
N9 N 0.5151(8) 0.8933(7) 0.8789(7)
H4 H 0.466533 0.890558 0.885046
N10 N 0.6219(6) 0.9215(6) 0.8327(6)
C2 C 0.0693(8) 0.9227(7) 1.1952(8)
C3 C 0.1325(7) 0.8887(8) 1.1607(8)
C4 C 0.3966(9) 0.8971(8) 1.1107(8)
C5 C 0.2632(10) 0.8833(9) 1.1340(8)
C6 C 0.6338(7) 0.8745(7) 0.8807(7)
C7 C 0.2046(8) 0.9103(8) 1.1663(8)
H5 H 0.214287 0.945549 1.193796
C8 C 0.1172(9) 0.8443(7) 1.1126(8)
H6 H 0.066745 0.833249 1.103541
C9 C 0.2448(10) 0.8408(9) 1.0842(10)
H7 H 0.282153 0.828571 1.054034
C10 C 0.1734(10) 0.8164(11) 1.0780(11)
C11 C 0.7878(7) 0.9075(6) 0.8293(6)
H8 H 0.750313 0.936067 0.814402
C12 C 0.7685(7) 0.8611(6) 0.8742(7)
C13 C 0.8251(6) 0.8239(7) 0.9008(7)
H9 H 0.812815 0.795308 0.934709
C14 C 0.9112(9) 0.8735(8) 0.8331(8)
H10 H 0.960923 0.878861 0.817834
C15 C 0.8564(8) 0.9131(7) 0.8067(7)
C16 C 0.8995(6) 0.8270(7) 0.8797(7)
C17 C 0.8759(9) 0.9570(8) 0.7556(8)
C18 C 0.1569(9) 0.7632(8) 1.0295(8)
O1A O -0.9424(5) 1.2547(5) 0.9476(5)
C1A C -0.9576(8) 1.2146(10) 0.9071(8)
Zn1A Zn -0.52676(6) 1.19630(6) 0.97684(13)
O2A O -0.0856(5) 1.0366(5) 1.2391(4)
O3A O -0.0027(5) 1.0977(6) 1.1825(5)
O4A O -0.0911(6) 1.2587(5) 1.0328(5)
O5A O -0.9349(8) 1.0492(8) 0.7273(8)
O6A O -1.0238(7) 1.2076(7) 0.8803(8)
O7A O -0.1982(7) 1.2492(8) 0.9922(8)
O8A O -0.8382(11) 1.0006(10) 0.7410(10)
N1A N -0.4593(6) 1.0698(6) 1.1150(6)
N2A N -0.4777(6) 1.1376(5) 1.0444(5)
N3A N -0.5659(7) 1.1380(6) 0.9069(6)
N4A N -0.5516(6) 1.0683(6) 0.8377(6)
N5A N -0.6959(8) 1.1509(8) 0.8980(8)
H1A H -0.692890 1.179505 0.928924
N6A N -0.3351(9) 1.0921(9) 1.1455(9)
H2A H -0.340110 1.067010 1.179264
N7A N -0.5083(7) 1.0924(6) 1.0737(6)
H3A H -0.554200 1.078296 1.067693
N8A N -0.4074(8) 1.1490(7) 1.0618(7)
N9A N -0.5151(8) 1.1067(7) 0.8789(7)
H4A H -0.466533 1.109442 0.885046
N10A N -0.6219(6) 1.0785(6) 0.8327(6)
C2A C -0.0693(8) 1.0773(7) 1.1952(8)
C3A C -0.1325(7) 1.1113(8) 1.1607(8)
C4A C -0.3966(9) 1.1029(8) 1.1107(8)
C5A C -0.2632(10) 1.1167(9) 1.1340(8)
C6A C -0.6338(7) 1.1255(7) 0.8807(7)
C7A C -0.2046(8) 1.0897(8) 1.1663(8)
H5A H -0.214287 1.054451 1.193796
C8A C -0.1172(9) 1.1557(7) 1.1126(8)
H6A H -0.066745 1.166751 1.103541
C9A C -0.2448(10) 1.1592(9) 1.0842(10)
H7A H -0.282153 1.171429 1.054034
C10A C -0.1734(10) 1.1836(11) 1.0780(11)
C11A C -0.7878(7) 1.0925(6) 0.8293(6)
H8A H -0.750313 1.063933 0.814402
C12A C -0.7685(7) 1.1389(6) 0.8742(7)
C13A C -0.8251(6) 1.1761(7) 0.9008(7)
H9A H -0.812815 1.204692 0.934709
C14A C -0.9112(9) 1.1265(8) 0.8331(8)
H10A H -0.960923 1.121139 0.817834
C15A C -0.8564(8) 1.0869(7) 0.8067(7)
C16A C -0.8995(6) 1.1730(7) 0.8797(7)
C17A C -0.8759(9) 1.0430(8) 0.7556(8)
C18A C -0.1569(9) 1.2368(8) 1.0295(8)
O1F O -0.4424(5) 1.2453(5) 0.9476(5)
O1G O 0.4424(5) 0.7547(5) 0.9476(5)
Zn1F Zn -1.02676(6) 1.30370(6) 0.97684(13)
Zn1F_2 Zn -0.02676(6) 1.30370(6) 0.97684(13)
Zn1G Zn 0.02676(6) 0.69630(6) 0.97684(13)
Zn1G_2 Zn 1.02676(6) 0.69630(6) 0.97684(13)
Zn2B Zn -0.500000 1.000000 0.77974(9)
Zn2B_2 Zn 0.500000 1.000000 0.77974(9)
Zn3_2 Zn -0.500000 1.000000 1.17260(9)
Zn3B Zn -1.000000 1.000000 0.67260(9)
Zn3B_2 Zn 1.000000 1.000000 0.67260(9)
O4F O -0.5911(6) 1.2413(5) 1.0328(5)
O4G O 0.5911(6) 0.7587(5) 1.0328(5)
O5B O 0.5651(8) 0.9508(8) 1.2273(8)
O5C O 0.4349(8) 1.0492(8) 1.2273(8)
N1A_2 N 0.5407(6) 1.0698(6) 1.1150(6)
N4B N -0.0516(6) 0.9317(6) 1.3377(6)
N4C N 0.0516(6) 1.0683(6) 1.3377(6)
loop_
_geom_bond_atom_site_label_1
_geom_bond_atom_site_label_2
_geom_bond_site_symmetry_1
_geom_bond_site_symmetry_2
O1 C1 1_555 1_555
C1 O6 1_555 1_555
Zn1 N2 1_555 1_555
Zn2 O2 1_555 1_555
Zn3 N1 1_555 1_555
O2 C2 1_555 1_555
O3 C2 1_555 1_555
O4 C18 1_555 1_555
O5 C17 1_555 1_555
O7 C18 1_555 1_555
O8 C17 1_555 1_555
N1 N7 1_555 1_555
N2 N7 1_555 1_555
N3 Zn1 1_555 1_555
N4 N9 1_555 1_555
N5 H1 1_555 1_555
N6 H2 1_555 1_555
N7 H3 1_555 1_555
N8 N2 1_555 1_555
N9 N3 1_555 1_555
H4 N9 1_555 1_555
N10 N4 1_555 1_555
C2 C3 1_555 1_555
C3 C7 1_555 1_555
C4 N1 1_555 1_555
C5 N6 1_555 1_555
C6 N3 1_555 1_555
C7 C5 1_555 1_555
H5 C7 1_555 1_555
C8 C3 1_555 1_555
H6 C8 1_555 1_555
C9 C5 1_555 1_555
H7 C9 1_555 1_555
C10 C8 1_555 1_555
C11 H8 1_555 1_555
C12 N5 1_555 1_555
C13 C12 1_555 1_555
H9 C13 1_555 1_555
C14 H10 1_555 1_555
C15 C11 1_555 1_555
C16 C1 1_555 1_555
C17 C15 1_555 1_555
C18 C10 1_555 1_555
O1A C1A 1_555 1_555
C1A O6A 1_555 1_555
Zn1A N2A 1_555 1_555
O2A Zn2 1_555 1_555
O3A C2A 1_555 1_555
O4A C18A 1_555 1_555
O5A C17A 1_555 1_555
O7A C18A 1_555 1_555
O8A C17A 1_555 1_555
N1A N7A 1_555 1_555
N2A N7A 1_555 1_555
N3A Zn1A 1_555 1_555
N4A N9A 1_555 1_555
N5A H1A 1_555 1_555
N6A H2A 1_555 1_555
N7A H3A 1_555 1_555
N8A N2A 1_555 1_555
N9A N3A 1_555 1_555
H4A N9A 1_555 1_555
N10A N4A 1_555 1_555
C2A O2A 1_555 1_555
C3A C2A 1_555 1_555
C4A N1A 1_555 1_555
C5A N6A 1_555 1_555
C6A N3A 1_555 1_555
C7A C3A 1_555 1_555
H5A C7A 1_555 1_555
C8A C3A 1_555 1_555
H6A C8A 1_555 1_555
C9A C5A 1_555 1_555
H7A C9A 1_555 1_555
C10A C8A 1_555 1_555
C11A H8A 1_555 1_555
C12A N5A 1_555 1_555
C13A C12A 1_555 1_555
H9A C13A 1_555 1_555
C14A H10A 1_555 1_555
C15A C11A 1_555 1_555
C16A C1A 1_555 1_555
C17A C15A 1_555 1_555
C18A C10A 1_555 1_555
O1F Zn1A 1_555 1_555
O1G Zn1 1_555 1_555
Zn1F O1A 1_555 1_555
Zn1F_2 O4A 1_555 1_555
Zn1G O4 1_555 1_555
Zn1G_2 O1 1_555 1_555
Zn2B N4A 1_555 1_555
Zn2B_2 N4 1_555 1_555
Zn3_2 N1A 1_555 1_555
Zn3B O5A 1_555 1_555
Zn3B_2 O5 1_555 1_555
O4F Zn1A 1_555 1_555
O4G Zn1 1_555 1_555
O5B Zn3 1_555 1_555
O5C Zn3 1_555 1_555
N1A_2 Zn3 1_555 1_555
N4B Zn2 1_555 1_555
N4C Zn2 1_555 1_555
N5 C6 1_555 1_555
N6 C4 1_555 1_555
N8 C4 1_555 1_555
N10 C6 1_555 1_555
C9 C10 1_555 1_555
C11 C12 1_555 1_555
C13 C16 1_555 1_555
C14 C15 1_555 1_555
C14 C16 1_555 1_555
N5A C6A 1_555 1_555
N6A C4A 1_555 1_555
N8A C4A 1_555 1_555
N10A C6A 1_555 1_555
C5A C7A 1_555 1_555
C9A C10A 1_555 1_555
C11A C12A 1_555 1_555
C13A C16A 1_555 1_555
C14A C15A 1_555 1_555
C14A C16A 1_555 1_555

#END
