
#######################################################################
#
#                 Cambridge Crystallographic Data Centre
#                                CCDC 
#
#######################################################################
#
# If this CIF has been generated from an entry in the Cambridge 
# Structural Database, then it will include bibliographic, chemical, 
# crystal, experimental, refinement or atomic coordinate data resulting 
# from the CCDC's data processing and validation procedures.
#
#######################################################################

data_BIQRIE
_chemical_formula_moiety         '(C8 H20 Ga2 N2 O13 P3 1+)n'
_symmetry_cell_setting           monoclinic
_symmetry_space_group_name_H-M   'C 2/c'
_symmetry_Int_Tables_number      15
_space_group_name_Hall           '-C 2yc'
loop_
_symmetry_equiv_pos_site_id
_symmetry_equiv_pos_as_xyz
1 x,y,z
2 -x,y,1/2-z
3 1/2+x,1/2+y,z
4 1/2-x,1/2+y,1/2-z
5 -x,-y,-z
6 x,-y,1/2+z
7 1/2-x,1/2-y,-z
8 1/2+x,1/2-y,1/2+z
_cell_length_a                   23.4617(17)
_cell_length_b                   8.1170(6)
_cell_length_c                   16.8976(12)
_cell_angle_alpha                90
_cell_angle_beta                 112.8730(10)
_cell_angle_gamma                90
_cell_volume                     2964.92
loop_
_atom_site_label
_atom_site_type_symbol
_atom_site_fract_x
_atom_site_fract_y
_atom_site_fract_z
C1 C 0.15688(11) 1.4146(3) 0.59499(15)
C2 C 0.12966(10) 1.3338(3) 0.65494(15)
Ga1 Ga 0.161191(11) 0.65777(3) 0.711483(16)
Ga2 Ga 0.103426(11) 1.11589(3) 0.515236(15)
H1 H 0.0362(19) 0.943(5) 0.638(3)
H2 H 0.264(2) 0.852(5) 0.646(3)
H3 H 0.207(2) 1.160(5) 0.429(3)
H4 H 0.1653(18) 0.993(5) 0.289(2)
O1 O 0.13498(8) 1.2757(2) 0.30273(11)
O2 O 0.10490(8) 1.0977(2) 0.40196(10)
O3 O 0.25834(8) 1.1053(2) 0.70480(12)
O4 O 0.18264(7) 1.0090(2) 0.56160(10)
O5 O -0.02749(7) 0.7616(2) 0.53099(11)
O6 O 0.07846(8) 0.6854(2) 0.62644(12)
O7 O 0.10801(8) 1.1928(2) 0.63627(10)
O8 O 0.18869(8) 0.8735(2) 0.69915(11)
O9 O 0.06183(8) 0.9147(2) 0.51774(11)
O10 O 0.15153(8) 1.3340(2) 0.52977(10)
O11 O 0.18142(8) 1.5527(2) 0.61679(11)
O12 O 0.13175(8) 1.4183(2) 0.71860(10)
O13 O 0.16113(14) 0.9727(3) 0.32202(17)
P1 P 0.03783(3) 0.82632(8) 0.57785(4)
P2 P 0.22415(3) 0.95907(7) 0.65173(4)
P3 P 0.15274(3) 1.13455(8) 0.36571(4)
Ga1_2 Ga 0.161191(11) 1.65777(3) 0.711483(16)
Ga1C Ga 0.338809(11) 1.15777(3) 0.788517(16)
Ga1E Ga 0.161191(11) 1.34223(3) 0.211483(16)
Ga2D Ga -0.103426(11) 0.88411(3) 0.484764(15)
O1E O 0.13498(8) 0.7243(2) 0.80273(11)
O3C O 0.24166(8) 0.6053(2) 0.79520(12)
O5D O 0.02749(7) 1.2384(2) 0.46901(11)
O11_2 O 0.18142(8) 0.5527(2) 0.61679(11)
O12_2 O 0.13175(8) 0.4183(2) 0.71860(10)
C3 C 0.02096(16) 0.5075(4) 0.7965(3)
C4 C 0.10677(18) 0.3569(5) 0.9090(2)
H5 H 0.1347 0.4482 0.9186
H6 H 0.1298 0.2557 0.9202
H7 H 0.0851 0.3655 0.9468
C5 C 0.02098(17) 0.2097(4) 0.7966(2)
H8 H 0.084(2) 0.364(5) 0.789(3)
H9 H 0.001(2) 0.495(6) 0.838(3)
H10 H -0.002(2) 0.219(6) 0.837(3)
H11 H 0.046(2) 0.599(6) 0.802(3)
H12 H 0.046(2) 0.120(6) 0.804(3)
N1 N 0.06122(12) 0.3588(3) 0.81789(17)
C3A C -0.02096(16) 0.5075(4) 0.7035(3)
C4A C -0.10677(18) 0.3569(5) 0.5910(2)
H5A H -0.1347 0.4482 0.5814
H6A H -0.1298 0.2557 0.5798
H7A H -0.0851 0.3655 0.5532
C5A C -0.02098(17) 0.2097(4) 0.7034(2)
H8A H -0.084(2) 0.364(5) 0.711(3)
H9A H -0.001(2) 0.495(6) 0.662(3)
H10A H 0.002(2) 0.219(6) 0.663(3)
H11A H -0.046(2) 0.599(6) 0.698(3)
H12A H -0.046(2) 0.120(6) 0.696(3)
N1A N -0.06122(12) 0.3588(3) 0.68211(17)
loop_
_geom_bond_atom_site_label_1
_geom_bond_atom_site_label_2
_geom_bond_site_symmetry_1
_geom_bond_site_symmetry_2
C1 C2 1_555 1_555
C2 O7 1_555 1_555
Ga1 O6 1_555 1_555
Ga2 O2 1_555 1_555
H1 P1 1_555 1_555
H2 P2 1_555 1_555
H3 P3 1_555 1_555
H4 O13 1_555 1_555
O1 P3 1_555 1_555
O2 P3 1_555 1_555
O3 P2 1_555 1_555
O4 Ga2 1_555 1_555
O5 P1 1_555 1_555
O6 P1 1_555 1_555
O7 Ga2 1_555 1_555
O8 Ga1 1_555 1_555
O9 Ga2 1_555 1_555
O10 C1 1_555 1_555
O11 C1 1_555 1_555
O12 C2 1_555 1_555
O13 P3 1_555 1_555
P1 O9 1_555 1_555
P2 O4 1_555 1_555
C3 H9 1_555 1_555
C4 H5 1_555 1_555
H6 C4 1_555 1_555
H7 C4 1_555 1_555
C5 H10 1_555 1_555
H8 N1 1_555 1_555
H11 C3 1_555 1_555
H12 C5 1_555 1_555
N1 C3 1_555 1_555
Ga1_2 O11 1_555 1_555
Ga1C O3 1_555 1_555
Ga1E O1 1_555 1_555
Ga2D O5 1_555 1_555
O1E Ga1 1_555 1_555
O3C Ga1 1_555 1_555
O5D Ga2 1_555 1_555
O11_2 Ga1 1_555 1_555
O12_2 Ga1 1_555 1_555
C3A C3 1_555 1_555
C4A H5A 1_555 1_555
H6A C4A 1_555 1_555
H7A C4A 1_555 1_555
C5A C5 1_555 1_555
H8A N1A 1_555 1_555
H9A C3A 1_555 1_555
H10A C5A 1_555 1_555
H11A C3A 1_555 1_555
H12A C5A 1_555 1_555
N1A C3A 1_555 1_555
Ga2 O10 1_555 1_555
O8 P2 1_555 1_555
O12 Ga1_2 1_555 1_555
C4 N1 1_555 1_555
C5 N1 1_555 1_555
C4A N1A 1_555 1_555
C5A N1A 1_555 1_555

#END
