
#######################################################################
#
#                 Cambridge Crystallographic Data Centre
#                                CCDC 
#
#######################################################################
#
# If this CIF has been generated from an entry in the Cambridge 
# Structural Database, then it will include bibliographic, chemical, 
# crystal, experimental, refinement or atomic coordinate data resulting 
# from the CCDC's data processing and validation procedures.
#
#######################################################################

data_JIXWUJ02
_chemical_formula_moiety         '(C14 H18 Mn6 O25)n'
_symmetry_cell_setting           monoclinic
_symmetry_space_group_name_H-M   'P 21/n'
_symmetry_Int_Tables_number      14
_space_group_name_Hall           '-P 2yn'
loop_
_symmetry_equiv_pos_site_id
_symmetry_equiv_pos_as_xyz
1 x,y,z
2 1/2-x,1/2+y,1/2-z
3 -x,-y,-z
4 1/2+x,1/2-y,1/2+z
_cell_length_a                   11.6575(14)
_cell_length_b                   10.1053(11)
_cell_length_c                   14.8790(16)
_cell_angle_alpha                90
_cell_angle_beta                 91.633(3)
_cell_angle_gamma                90
_cell_volume                     1752.07
loop_
_atom_site_label
_atom_site_type_symbol
_atom_site_fract_x
_atom_site_fract_y
_atom_site_fract_z
Mn1 Mn 1.0000 0.5000 0.0000
Mn2 Mn 0.5000 0.5000 0.0000
Mn3 Mn 0.73947(4) 0.59944(4) 0.31509(3)
Mn4 Mn 1.24317(4) 0.58462(4) -0.13117(3)
O1 O 1.09858(18) 0.6626(2) -0.06021(14)
O2 O 0.68612(18) 0.5288(2) 0.02157(13)
O3 O 0.85165(18) 0.5760(2) 0.19750(13)
O4 O 0.62704(18) 0.4981(2) 0.21960(13)
O5 O 0.5190(2) 0.2876(2) 0.00203(16)
O6 O 0.69174(18) 0.7919(2) 0.25249(13)
O7 O 1.10660(19) 0.8796(2) -0.09064(14)
O8 O 0.65347(18) 0.2367(2) 0.10685(13)
O9 O 0.46123(19) 0.4977(2) 0.14117(14)
O10 O 0.6842(2) 0.9247(2) 0.13167(14)
O11 O 1.0129(2) 0.6116(2) 0.12341(17)
O12 O 0.8462(2) 0.6074(2) -0.03776(17)
C1 C 0.9477(2) 0.6310(3) 0.1860(2)
C2 C 0.6694(2) 0.8172(3) 0.1700(2)
C3 C 0.5735(2) 0.2081(3) 0.0495(2)
C4 C 0.5186(2) 0.5092(3) 0.2117(2)
C5 C 1.0654(2) 0.7823(3) -0.0527(2)
C6 C 0.7412(2) 0.6028(3) -0.0322(2)
H1 H 1.0188 0.7822 -0.0223
H2 H 0.5540 0.1131 0.0421
H3 H 0.6457 0.7490 0.1344
H4 H 0.4781 0.5130 0.2704
H5 H 0.6919 0.6642 -0.0727
H6 H 0.9794 0.6817 0.2319
Mn2_2 Mn 1.5000 0.5000 0.0000
Mn3B Mn 1.26053(4) 0.40056(4) -0.31509(3)
Mn3C Mn 1.23947(4) 0.90056(4) -0.18491(3)
Mn3A Mn 0.76053(4) 0.09944(4) 0.18491(3)
Mn3A_2 Mn 0.76053(4) 1.09944(4) 0.18491(3)
Mn3C_2 Mn 0.23947(4) 0.90056(4) -0.18491(3)
Mn3B_2 Mn 0.26053(4) 0.40056(4) -0.31509(3)
Mn4B Mn 0.75683(4) 0.41538(4) 0.13117(3)
Mn4C Mn 0.74317(4) 0.91538(4) 0.36883(3)
Mn4_2 Mn 0.24317(4) 0.58462(4) -0.13117(3)
O1B O 0.90142(18) 0.3374(2) 0.06021(14)
O2B O 1.31388(18) 0.4712(2) -0.02157(13)
O2B_2 O 0.31388(18) 0.4712(2) -0.02157(13)
O3B O 1.14835(18) 0.4240(2) -0.19750(13)
O4B O 0.37296(18) 0.5019(2) -0.21960(13)
O4B_2 O 1.37296(18) 0.5019(2) -0.21960(13)
O5B O 0.4810(2) 0.7124(2) -0.00203(16)
O6A O 0.80826(18) 0.2919(2) 0.24751(13)
O6C O 1.19174(18) 0.7081(2) -0.24751(13)
O6B O 1.30826(18) 0.2081(2) -0.25249(13)
O7B O 0.89340(19) 0.1204(2) 0.09064(14)
O7C O 0.60660(19) 0.6204(2) 0.40936(14)
O7A O 1.39340(19) 0.3796(2) -0.40936(14)
O8B O 0.34653(18) 0.7633(2) -0.10685(13)
O8A O 0.84653(18) 0.7367(2) 0.39315(13)
O8B_2 O 1.34653(18) 0.7633(2) -0.10685(13)
O8C O 1.15347(18) 0.2633(2) -0.39315(13)
O9B O 0.53877(19) 0.5023(2) -0.14117(14)
O10A O 0.8158(2) 0.4247(2) 0.36833(14)
O10C O 1.1842(2) 0.5753(2) -0.36833(14)
O11B O 0.9871(2) 0.3884(2) -0.12341(17)
O12B O 1.1538(2) 0.3926(2) 0.03776(17)
C1B C 1.0523(2) 0.3690(3) -0.1860(2)
C2A C 0.8306(2) 0.3172(3) 0.3300(2)
C3B C 0.4265(2) 0.7919(3) -0.0495(2)
C4B C 0.4814(2) 0.4908(3) -0.2117(2)
C5B C 0.9346(2) 0.2177(3) 0.0527(2)
C6B C 1.2588(2) 0.3972(3) 0.0322(2)
H1B H 0.9812 0.2178 0.0223
H2B H 0.4460 0.8869 -0.0421
H3A H 0.8543 0.2490 0.3656
H4B H 0.5219 0.4870 -0.2704
H5B H 1.3081 0.3358 0.0727
H6B H 1.0206 0.3183 -0.2319
O13 O 0.1520(10) 0.2434(12) 0.2088(7)
C7 C 0.1374(10) 0.3337(15) 0.2812(8)
C8 C 0.145(2) 0.466(3) 0.323(2)
loop_
_geom_bond_atom_site_label_1
_geom_bond_atom_site_label_2
_geom_bond_site_symmetry_1
_geom_bond_site_symmetry_2
Mn1 O1 1_555 1_555
Mn2 O2 1_555 1_555
Mn3 O3 1_555 1_555
Mn4 O1 1_555 1_555
O1 C5 1_555 1_555
O2 C6 1_555 1_555
O3 C1 1_555 1_555
O4 Mn3 1_555 1_555
O5 Mn2 1_555 1_555
O6 Mn3 1_555 1_555
O7 C5 1_555 1_555
O8 C3 1_555 1_555
O9 Mn2 1_555 1_555
O10 C2 1_555 1_555
O11 Mn1 1_555 1_555
O12 Mn1 1_555 1_555
C1 O11 1_555 1_555
C2 O6 1_555 1_555
C3 O5 1_555 1_555
C4 O4 1_555 1_555
C5 H1 1_555 1_555
C6 O12 1_555 1_555
H2 C3 1_555 1_555
H3 C2 1_555 1_555
H4 C4 1_555 1_555
H5 C6 1_555 1_555
H6 C1 1_555 1_555
O13 C7 1_555 1_555
C7 C8 1_555 1_555
Mn2_2 O2B 1_555 1_555
Mn3B O3B 1_555 1_555
Mn3C O7 1_555 1_555
Mn3A O8 1_555 1_555
Mn3A_2 O10 1_555 1_555
Mn3C_2 O8B 1_555 1_555
Mn3B_2 O4B 1_555 1_555
Mn4B O2 1_555 1_555
Mn4C O6 1_555 1_555
Mn4_2 O2B_2 1_555 1_555
O1B Mn1 1_555 1_555
O2B Mn4 1_555 1_555
O2B_2 Mn2 1_555 1_555
O3B Mn4 1_555 1_555
O4B Mn4_2 1_555 1_555
O4B_2 Mn4 1_555 1_555
O5B Mn2 1_555 1_555
O6A Mn3A 1_555 1_555
O6C Mn4 1_555 1_555
O6B Mn3B 1_555 1_555
O7B Mn3A 1_555 1_555
O7C Mn3 1_555 1_555
O7A Mn3B 1_555 1_555
O8B Mn4_2 1_555 1_555
O8A Mn3 1_555 1_555
O8B_2 Mn4 1_555 1_555
O8C Mn3B 1_555 1_555
O9B Mn2 1_555 1_555
O10A Mn3 1_555 1_555
O10C Mn3B 1_555 1_555
O11B Mn1 1_555 1_555
O12B Mn1 1_555 1_555
C1B O3B 1_555 1_555
C2A O6A 1_555 1_555
C3B O5B 1_555 1_555
C4B O4B 1_555 1_555
C5B O1B 1_555 1_555
C6B O2B 1_555 1_555
H1B C5B 1_555 1_555
H2B C3B 1_555 1_555
H3A C2A 1_555 1_555
H4B C4B 1_555 1_555
H5B C6B 1_555 1_555
H6B C1B 1_555 1_555
O3 Mn4B 1_555 1_555
O4 Mn4B 1_555 1_555
O8 Mn4B 1_555 1_555
O9 C4 1_555 1_555
Mn3B O4B_2 1_555 1_555
Mn3C O6C 1_555 1_555
Mn3C O8B_2 1_555 1_555
Mn4B O1B 1_555 1_555
Mn4B O6A 1_555 1_555
Mn4C O8A 1_555 1_555
O7B C5B 1_555 1_555
O8B C3B 1_555 1_555
O9B C4B 1_555 1_555
O10A C2A 1_555 1_555
O11B C1B 1_555 1_555
O12B C6B 1_555 1_555

#END
