
#######################################################################
#
#                 Cambridge Crystallographic Data Centre
#                                CCDC 
#
#######################################################################
#
# If this CIF has been generated from an entry in the Cambridge 
# Structural Database, then it will include bibliographic, chemical, 
# crystal, experimental, refinement or atomic coordinate data resulting 
# from the CCDC's data processing and validation procedures.
#
#######################################################################

data_JIXWUJ01
_chemical_formula_moiety         '(C14 H18 Mn6 O25)n'
_symmetry_cell_setting           monoclinic
_symmetry_space_group_name_H-M   'P 21/n'
_symmetry_Int_Tables_number      14
_space_group_name_Hall           '-P 2yn'
loop_
_symmetry_equiv_pos_site_id
_symmetry_equiv_pos_as_xyz
1 x,y,z
2 1/2-x,1/2+y,1/2-z
3 -x,-y,-z
4 1/2+x,1/2-y,1/2+z
_cell_length_a                   11.6829(13)
_cell_length_b                   10.1309(11)
_cell_length_c                   14.8952(16)
_cell_angle_alpha                90
_cell_angle_beta                 91.625(3)
_cell_angle_gamma                90
_cell_volume                     1762.26
loop_
_atom_site_label
_atom_site_type_symbol
_atom_site_fract_x
_atom_site_fract_y
_atom_site_fract_z
Mn1 Mn 1.0000 0.5000 0.0000
Mn2 Mn 0.5000 0.5000 0.0000
Mn3 Mn 1.23950(3) 0.89867(3) -0.18548(2)
Mn4 Mn 0.75677(3) 0.41653(3) 0.13100(2)
O1 O 0.68613(12) 0.52822(16) 0.02107(10)
O2 O 1.19315(12) 0.70559(13) -0.24786(9)
O3 O 0.65345(12) 0.23793(14) 0.10680(10)
O4 O 1.09860(12) 0.66155(14) -0.06071(10)
O5 O 0.62729(12) 0.50101(14) 0.21877(10)
O6 O 0.46234(13) 0.4993(2) 0.14108(11)
O7 O 1.10696(13) 0.87724(16) -0.09201(11)
O8 O 1.01220(14) 0.6110(2) 0.12352(12)
O9 O 0.85137(12) 0.57686(14) 0.19706(10)
O10 O 1.18484(16) 0.57301(16) -0.36791(11)
O11 O 0.51868(14) 0.28848(17) 0.00334(12)
O12 O 0.84630(13) 0.60539(19) -0.03742(12)
C1 C 0.9479(2) 0.6307(2) 0.18587(16)
C2 C 1.1702(2) 0.6802(2) -0.32965(14)
C3 C 0.5737(2) 0.2096(2) 0.05064(16)
C4 C 1.0655(2) 0.7804(2) -0.05405(16)
C5 C 0.51960(19) 0.5114(2) 0.21084(14)
C6 C 0.74220(19) 0.6007(2) -0.03280(16)
H1 H 1.1381 0.7518 -0.3706
H2 H 0.5533 0.1144 0.0428
H3 H 0.6915 0.6598 -0.0761
H4 H 1.0050 0.7967 -0.0103
H5 H 0.9759 0.6906 0.2329
H6 H 0.4810 0.5187 0.2668
Mn2_2 Mn 1.5000 0.5000 0.0000
Mn3B Mn 0.76050(3) 0.10133(3) 0.18548(2)
Mn3C Mn 0.73950(3) 0.60133(3) 0.31452(2)
Mn3A Mn 1.26050(3) 0.39867(3) -0.31452(2)
Mn3A_2 Mn 0.26050(3) 0.39867(3) -0.31452(2)
Mn3_2 Mn 0.23950(3) 0.89867(3) -0.18548(2)
Mn3A_3 Mn 1.26050(3) 1.39867(3) -0.31452(2)
Mn4B Mn 1.24323(3) 0.58347(3) -0.13100(2)
Mn4B_2 Mn 0.24323(3) 0.58347(3) -0.13100(2)
Mn4C Mn 1.25677(3) 1.08347(3) -0.36900(2)
O1B O 1.31387(12) 0.47178(16) -0.02107(10)
O1B_2 O 0.31387(12) 0.47178(16) -0.02107(10)
O2A O 1.30685(12) 1.20559(13) -0.25214(9)
O2B O 0.80685(12) 0.29441(13) 0.24786(9)
O3B O 0.34655(12) 0.76207(14) -0.10680(10)
O3B_2 O 1.34655(12) 0.76207(14) -0.10680(10)
O4B O 0.90140(12) 0.33845(14) 0.06071(10)
O5B O 0.37271(12) 0.49899(14) -0.21877(10)
O5C O 1.12729(12) 0.99899(14) -0.28123(10)
O5A O 0.87271(12) 0.00101(14) 0.28123(10)
O5B_2 O 1.37271(12) 0.49899(14) -0.21877(10)
O6B O 0.53766(13) 0.5007(2) -0.14108(11)
O7B O 0.89304(13) 0.12276(16) 0.09201(11)
O8B O 0.98780(14) 0.3890(2) -0.12352(12)
O9B O 1.14863(12) 0.42314(14) -0.19706(10)
O9C O 1.35137(12) 0.92314(14) -0.30294(10)
O9A O 0.64863(12) 0.07686(14) 0.30294(10)
O10A O 1.31516(16) 1.07301(16) -0.13209(11)
O10C O 0.68484(16) -0.07301(16) 0.13209(11)
O11B O 0.48132(14) 0.71152(17) -0.00334(12)
O12B O 1.15370(13) 0.39461(19) 0.03742(12)
C1B C 1.0521(2) 0.3693(2) -0.18587(16)
C2A C 1.3298(2) 1.1802(2) -0.17035(14)
C3B C 0.4263(2) 0.7904(2) -0.05064(16)
C4B C 0.9345(2) 0.2196(2) 0.05405(16)
C5B C 0.48040(19) 0.4886(2) -0.21084(14)
C6B C 1.25780(19) 0.3993(2) 0.03280(16)
H1A H 1.3619 1.2518 -0.1294
H2B H 0.4467 0.8856 -0.0428
H3B H 1.3085 0.3402 0.0761
H4B H 0.9950 0.2033 0.0103
H5B H 1.0241 0.3094 -0.2329
H6B H 0.5190 0.4813 -0.2668
O13 O 0.1322(18) 0.280(2) 0.2291(15)
C7 C 0.1601(15) 0.3741(17) 0.2974(13)
C8 C 0.269(2) 0.343(2) 0.3411(15)
H7 H 0.1643 0.4591 0.2708
H8 H 0.1007 0.3732 0.3397
H9 H 0.2556 0.2874 0.3909
H10 H 0.3032 0.4232 0.3616
H11 H 0.3183 0.3003 0.3009
loop_
_geom_bond_atom_site_label_1
_geom_bond_atom_site_label_2
_geom_bond_site_symmetry_1
_geom_bond_site_symmetry_2
Mn1 O4 1_555 1_555
Mn2 O1 1_555 1_555
Mn3 O2 1_555 1_555
Mn4 O1 1_555 1_555
O1 C6 1_555 1_555
O2 C2 1_555 1_555
O3 Mn4 1_555 1_555
O4 C4 1_555 1_555
O5 Mn4 1_555 1_555
O6 Mn2 1_555 1_555
O7 Mn3 1_555 1_555
O8 Mn1 1_555 1_555
O9 Mn4 1_555 1_555
O10 C2 1_555 1_555
O11 Mn2 1_555 1_555
O12 Mn1 1_555 1_555
C1 O8 1_555 1_555
C2 H1 1_555 1_555
C3 O3 1_555 1_555
C4 O7 1_555 1_555
C5 O5 1_555 1_555
C6 O12 1_555 1_555
H2 C3 1_555 1_555
H3 C6 1_555 1_555
H4 C4 1_555 1_555
H5 C1 1_555 1_555
H6 C5 1_555 1_555
O13 C7 1_555 1_555
C7 C8 1_555 1_555
C8 H9 1_555 1_555
H7 C7 1_555 1_555
H8 C7 1_555 1_555
H10 C8 1_555 1_555
H11 C8 1_555 1_555
Mn2_2 O1B 1_555 1_555
Mn3B O3 1_555 1_555
Mn3C O5 1_555 1_555
Mn3A O10 1_555 1_555
Mn3A_2 O5B 1_555 1_555
Mn3_2 O3B 1_555 1_555
Mn3A_3 O2A 1_555 1_555
Mn4B O2 1_555 1_555
Mn4B_2 O1B_2 1_555 1_555
Mn4C O2A 1_555 1_555
O1B Mn4B 1_555 1_555
O1B_2 Mn2 1_555 1_555
O2A C2A 1_555 1_555
O2B Mn4 1_555 1_555
O3B Mn4B_2 1_555 1_555
O3B_2 Mn3 1_555 1_555
O4B Mn1 1_555 1_555
O5B Mn4B_2 1_555 1_555
O5C Mn3 1_555 1_555
O5A Mn3B 1_555 1_555
O5B_2 Mn3A 1_555 1_555
O6B Mn2 1_555 1_555
O7B Mn3B 1_555 1_555
O8B Mn1 1_555 1_555
O9B Mn3A 1_555 1_555
O9C Mn3 1_555 1_555
O9A Mn3B 1_555 1_555
O10A Mn3 1_555 1_555
O10C Mn3B 1_555 1_555
O11B Mn2 1_555 1_555
O12B Mn1 1_555 1_555
C1B O8B 1_555 1_555
C2A O10A 1_555 1_555
C3B O3B 1_555 1_555
C4B O4B 1_555 1_555
C5B O5B 1_555 1_555
C6B O1B 1_555 1_555
H1A C2A 1_555 1_555
H2B C3B 1_555 1_555
H3B C6B 1_555 1_555
H4B C4B 1_555 1_555
H5B C1B 1_555 1_555
H6B C5B 1_555 1_555
Mn4 O4B 1_555 1_555
O4 Mn4B 1_555 1_555
O6 C5 1_555 1_555
O9 C1 1_555 1_555
O9 Mn3C 1_555 1_555
O11 C3 1_555 1_555
Mn3B O2B 1_555 1_555
Mn4B O3B_2 1_555 1_555
Mn4B O5B_2 1_555 1_555
Mn4B O9B 1_555 1_555
Mn4C O5C 1_555 1_555
Mn4C O9C 1_555 1_555
O6B C5B 1_555 1_555
O7B C4B 1_555 1_555
O9B C1B 1_555 1_555
O11B C3B 1_555 1_555
O12B C6B 1_555 1_555

#END
