
#######################################################################
#
#                 Cambridge Crystallographic Data Centre
#                                CCDC 
#
#######################################################################
#
# If this CIF has been generated from an entry in the Cambridge 
# Structural Database, then it will include bibliographic, chemical, 
# crystal, experimental, refinement or atomic coordinate data resulting 
# from the CCDC's data processing and validation procedures.
#
#######################################################################

data_KIPJIE
_chemical_formula_moiety         '(C38 H30 Ce2 F12 O24)n'
_symmetry_cell_setting           monoclinic
_symmetry_space_group_name_H-M   'P 21/c'
_symmetry_Int_Tables_number      14
_space_group_name_Hall           '-P 2ybc'
loop_
_symmetry_equiv_pos_site_id
_symmetry_equiv_pos_as_xyz
1 x,y,z
2 -x,1/2+y,1/2-z
3 -x,-y,-z
4 x,1/2-y,1/2+z
_cell_length_a                   7.3524(2)
_cell_length_b                   29.1642(14)
_cell_length_c                   23.1750(11)
_cell_angle_alpha                90
_cell_angle_beta                 90.772(3)
_cell_angle_gamma                90
_cell_volume                     4968.89
loop_
_atom_site_label
_atom_site_type_symbol
_atom_site_fract_x
_atom_site_fract_y
_atom_site_fract_z
Ce1 Ce 0.20971(4) 0.701498(11) 0.333091(15)
Ce2 Ce 0.70663(4) 0.736342(12) 0.260969(14)
O1 O 0.3333(6) 0.62453(17) 0.2998(3)
O2 O 0.5777(5) 0.66761(14) 0.31371(19)
O3 O 0.9395(5) 0.67359(14) 0.26118(18)
O4 O 0.9818(5) 0.63311(15) 0.34084(19)
O5 O 1.0186(7) 0.34476(19) 0.3491(2)
O6 O 1.0548(7) 0.42006(18) 0.3429(2)
H1 H 1.0852 0.4204 0.3801
O7 O 0.9322(6) 0.27055(15) 0.2197(2)
O8 O 1.1694(6) 0.31600(16) 0.2339(2)
O9 O -0.1505(5) 0.72968(14) 0.36189(19)
O10 O 0.0966(6) 0.75768(19) 0.4055(2)
O11 O -0.5131(6) 0.76441(15) 0.33404(19)
O12 O -0.5537(6) 0.72595(16) 0.4145(2)
O13 O -0.1167(5) 0.75770(15) 0.66920(18)
O14 O 0.1572(6) 0.73076(15) 0.6474(2)
H2 H 0.1008 0.7078 0.6571
O15 O 0.3341(6) 0.78790(16) 0.73582(18)
O16 O 0.5619(6) 0.81175(17) 0.6834(2)
O17 O 0.2210(12) 0.6546(3) 0.4260(4)
O18 O 0.5160(7) 0.79337(18) 0.2036(3)
H3 H 0.3950 0.7887 0.2041
H4 H 0.5183 0.8165 0.1797
F1 F 0.6015(6) 0.48152(15) 0.11241(18)
F2 F 0.3489(6) 0.44836(14) 0.1308(2)
F3 F 0.3784(7) 0.52060(15) 0.1452(2)
F4 F 0.2259(5) 0.48706(15) 0.2411(2)
F5 F 0.4181(6) 0.46297(15) 0.3057(2)
F6 F 0.3144(5) 0.41701(15) 0.2400(2)
F7 F -0.2999(5) 0.95613(12) 0.51674(16)
F8 F -0.3067(5) 0.90992(13) 0.58891(15)
F9 F -0.0961(4) 0.96046(12) 0.58453(15)
F10 F -0.0575(5) 0.93424(15) 0.42956(16)
F11 F 0.1144(5) 0.96101(12) 0.49636(16)
F12 F 0.1780(5) 0.89670(13) 0.45771(15)
C1 C 0.5355(8) 0.4717(2) 0.2110(3)
C2 C 0.6284(7) 0.5167(2) 0.2316(3)
C3 C 0.5338(7) 0.5524(2) 0.2568(3)
H5 H 0.4097 0.5489 0.2626
C4 C 0.6161(7) 0.5928(2) 0.2738(3)
C5 C 0.8061(7) 0.59792(19) 0.2670(3)
C6 C 0.9013(7) 0.5634(2) 0.2399(3)
H6 H 1.0252 0.5670 0.2336
C7 C 0.8150(8) 0.5232(2) 0.2216(3)
H7 H 0.8810 0.5006 0.2028
C8 C 0.5025(8) 0.6305(2) 0.2979(3)
C9 C 0.9120(7) 0.6374(2) 0.2922(3)
C10 C 0.6614(7) 0.4297(2) 0.2142(3)
C11 C 0.7747(8) 0.4244(2) 0.2634(3)
H8 H 0.7779 0.4471 0.2916
C12 C 0.8819(8) 0.3852(2) 0.2699(3)
C13 C 0.8794(8) 0.3510(2) 0.2276(3)
C14 C 0.7661(8) 0.3563(2) 0.1792(3)
H9 H 0.7638 0.3338 0.1508
C15 C 0.6565(8) 0.3949(2) 0.1731(3)
H10 H 0.5792 0.3976 0.1412
C16 C 0.9923(8) 0.3822(2) 0.3239(3)
C17 C 1.0024(8) 0.3098(2) 0.2280(3)
C18 C 0.4655(10) 0.4806(2) 0.1485(4)
C19 C 0.3711(8) 0.4598(2) 0.2497(4)
C20 C -0.0769(7) 0.8962(2) 0.5210(2)
C21 C -0.1915(7) 0.86107(19) 0.4872(2)
C22 C -0.0978(7) 0.8251(2) 0.4603(2)
H11 H 0.0275 0.8229 0.4657
C23 C -0.1853(7) 0.7930(2) 0.4262(2)
C24 C -0.3763(8) 0.7940(2) 0.4210(3)
C25 C -0.4698(7) 0.8281(2) 0.4490(3)
H12 H -0.5960 0.8289 0.4463
C26 C -0.3792(7) 0.8613(2) 0.4812(3)
H13 H -0.4459 0.8842 0.4992
C27 C -0.0745(8) 0.7576(2) 0.3965(3)
C28 C -0.4848(7) 0.7582(2) 0.3880(3)
C29 C 0.0448(7) 0.8729(2) 0.5670(2)
C30 C -0.0109(7) 0.8328(2) 0.5927(2)
H14 H -0.1239 0.8205 0.5829
C31 C 0.0994(7) 0.8102(2) 0.6330(3)
C32 C 0.2673(7) 0.8295(2) 0.6496(2)
C33 C 0.3174(8) 0.8716(2) 0.6269(3)
H15 H 0.4243 0.8856 0.6396
C34 C 0.2090(8) 0.8933(2) 0.5852(2)
H16 H 0.2454 0.9211 0.5695
C35 C 0.0376(8) 0.7638(2) 0.6530(3)
C36 C 0.3950(7) 0.8082(2) 0.6920(3)
C37 C -0.1960(7) 0.9315(2) 0.5533(3)
C38 C 0.0406(8) 0.9224(2) 0.4755(2)
Ce1_2 Ce -0.79029(4) 0.701498(11) 0.333091(15)
Ce1_3 Ce 1.20971(4) 0.701498(11) 0.333091(15)
Ce1A Ce 0.79029(4) 0.201498(11) 0.166909(15)
Ce1C Ce 0.20971(4) 0.798502(11) 0.833091(15)
Ce2_2 Ce -0.29337(4) 0.736342(12) 0.260969(14)
Ce2A Ce 1.29337(4) 0.236342(12) 0.239031(14)
Ce2C Ce -0.29337(4) 0.763658(12) 0.760969(14)
Ce2C_2 Ce 0.70663(4) 0.763658(12) 0.760969(14)
O3_2 O -0.0605(5) 0.67359(14) 0.26118(18)
O4_2 O -0.0182(5) 0.63311(15) 0.34084(19)
O7A O 0.0678(6) 0.77055(15) 0.2803(2)
O7A_2 O 1.0678(6) 0.77055(15) 0.2803(2)
O8A O 0.8306(6) 0.81600(16) 0.2661(2)
O9_2 O 0.8495(5) 0.72968(14) 0.36189(19)
O11_2 O 0.4869(6) 0.76441(15) 0.33404(19)
O12_2 O 0.4463(6) 0.72595(16) 0.4145(2)
O13C O 0.8833(5) 0.74230(15) 0.16920(18)
O15C O 0.3341(6) 0.71210(16) 0.23582(18)
O16C O 0.5619(6) 0.68825(17) 0.1834(2)
O19 O 0.2560(19) 0.7432(5) 0.5210(6)
H17 H 0.1730 0.7375 0.4890
H18 H 0.2692 0.7152 0.5314
O20 O -0.4041(15) 0.7624(4) 0.5693(5)
H19 H -0.4437 0.7339 0.5782
H20 H -0.3989 0.7760 0.6055
O21 O 0.7102(15) 0.6494(4) 0.4385(4)
O22 O 1.165(4) 0.5494(8) 0.3876(11)
O23 O 1.128(2) 0.2971(6) 0.4629(8)
O24 O 1.1489(7) 0.3714(2) 0.4485(2)
loop_
_geom_bond_atom_site_label_1
_geom_bond_atom_site_label_2
_geom_bond_site_symmetry_1
_geom_bond_site_symmetry_2
Ce1 O1 1_555 1_555
Ce2 O2 1_555 1_555
O1 C8 1_555 1_555
O2 Ce1 1_555 1_555
O3 Ce2 1_555 1_555
O4 C9 1_555 1_555
O5 C16 1_555 1_555
O6 H1 1_555 1_555
O7 C17 1_555 1_555
O8 C17 1_555 1_555
O9 Ce1 1_555 1_555
O10 Ce1 1_555 1_555
O11 C28 1_555 1_555
O12 C28 1_555 1_555
O13 C35 1_555 1_555
O14 H2 1_555 1_555
O15 C36 1_555 1_555
O16 C36 1_555 1_555
O17 Ce1 1_555 1_555
O18 Ce2 1_555 1_555
H3 O18 1_555 1_555
H4 O18 1_555 1_555
F1 C18 1_555 1_555
F2 C18 1_555 1_555
F3 C18 1_555 1_555
F4 C19 1_555 1_555
F5 C19 1_555 1_555
F6 C19 1_555 1_555
F7 C37 1_555 1_555
F8 C37 1_555 1_555
F9 C37 1_555 1_555
F10 C38 1_555 1_555
F11 C38 1_555 1_555
F12 C38 1_555 1_555
C1 C2 1_555 1_555
C2 C3 1_555 1_555
C3 H5 1_555 1_555
C4 C3 1_555 1_555
C5 C4 1_555 1_555
C6 C5 1_555 1_555
H6 C6 1_555 1_555
C7 C2 1_555 1_555
H7 C7 1_555 1_555
C8 O2 1_555 1_555
C9 O3 1_555 1_555
C10 C1 1_555 1_555
C11 C10 1_555 1_555
H8 C11 1_555 1_555
C12 C11 1_555 1_555
C13 C12 1_555 1_555
C14 C13 1_555 1_555
H9 C14 1_555 1_555
C15 C10 1_555 1_555
H10 C15 1_555 1_555
C16 O6 1_555 1_555
C17 C13 1_555 1_555
C18 C1 1_555 1_555
C19 C1 1_555 1_555
C20 C21 1_555 1_555
C21 C22 1_555 1_555
C22 H11 1_555 1_555
C23 C22 1_555 1_555
C24 C23 1_555 1_555
C25 C24 1_555 1_555
H12 C25 1_555 1_555
C26 C21 1_555 1_555
H13 C26 1_555 1_555
C27 O9 1_555 1_555
C28 C24 1_555 1_555
C29 C20 1_555 1_555
C30 C29 1_555 1_555
H14 C30 1_555 1_555
C31 C30 1_555 1_555
C32 C31 1_555 1_555
C33 C32 1_555 1_555
H15 C33 1_555 1_555
C34 C29 1_555 1_555
H16 C34 1_555 1_555
C35 O14 1_555 1_555
C36 C32 1_555 1_555
C37 C20 1_555 1_555
C38 C20 1_555 1_555
O19 H17 1_555 1_555
H18 O19 1_555 1_555
O20 H19 1_555 1_555
H20 O20 1_555 1_555
Ce1_2 O11 1_555 1_555
Ce1_3 O3 1_555 1_555
Ce1A O7 1_555 1_555
Ce1C O15 1_555 1_555
Ce2_2 O9 1_555 1_555
Ce2A O7 1_555 1_555
Ce2C O13 1_555 1_555
Ce2C_2 O15 1_555 1_555
O3_2 Ce1 1_555 1_555
O4_2 Ce1 1_555 1_555
O7A Ce1 1_555 1_555
O7A_2 Ce2 1_555 1_555
O8A Ce2 1_555 1_555
O9_2 Ce2 1_555 1_555
O11_2 Ce1 1_555 1_555
O12_2 Ce1 1_555 1_555
O13C Ce2 1_555 1_555
O15C Ce1 1_555 1_555
O16C Ce2 1_555 1_555
Ce2 O11_2 1_555 1_555
Ce2 O15C 1_555 1_555
O4 Ce1_3 1_555 1_555
O8 Ce2A 1_555 1_555
O10 C27 1_555 1_555
O11 Ce2_2 1_555 1_555
O12 Ce1_2 1_555 1_555
O16 Ce2C_2 1_555 1_555
C4 C8 1_555 1_555
C5 C9 1_555 1_555
C6 C7 1_555 1_555
C12 C16 1_555 1_555
C14 C15 1_555 1_555
C23 C27 1_555 1_555
C25 C26 1_555 1_555
C31 C35 1_555 1_555
C33 C34 1_555 1_555
Ce1_3 O7A_2 1_555 1_555
Ce1_3 O9_2 1_555 1_555
Ce2_2 O3_2 1_555 1_555
Ce2_2 O7A 1_555 1_555

#END
