
#######################################################################
#
#                 Cambridge Crystallographic Data Centre
#                                CCDC 
#
#######################################################################
#
# If this CIF has been generated from an entry in the Cambridge 
# Structural Database, then it will include bibliographic, chemical, 
# crystal, experimental, refinement or atomic coordinate data resulting 
# from the CCDC's data processing and validation procedures.
#
#######################################################################

data_DEPXUS
_chemical_formula_moiety         '(C76 H48 Cu1 Eu4 N4 O30 1-)n'
_symmetry_cell_setting           monoclinic
_symmetry_space_group_name_H-M   'C 2/c'
_symmetry_Int_Tables_number      15
_space_group_name_Hall           '-C 2yc'
loop_
_symmetry_equiv_pos_site_id
_symmetry_equiv_pos_as_xyz
1 x,y,z
2 1/2+x,1/2+y,z
3 -x,y,1/2-z
4 1/2-x,1/2+y,1/2-z
5 -x,-y,-z
6 1/2-x,1/2-y,-z
7 x,-y,1/2+z
8 1/2+x,1/2-y,1/2+z
_cell_length_a                   26.4064(3)
_cell_length_b                   14.4412(3)
_cell_length_c                   25.3777(7)
_cell_angle_alpha                90
_cell_angle_beta                 113.3330(10)
_cell_angle_gamma                90
_cell_volume                     8886.09
loop_
_atom_site_label
_atom_site_type_symbol
_atom_site_fract_x
_atom_site_fract_y
_atom_site_fract_z
Eu1 Eu 0.33476(3) -0.41568(4) 0.30170(3)
Eu2 Eu 0.28645(3) -0.63605(4) 0.18990(3)
O1 O 0.2441(4) -0.3673(6) 0.2832(4)
O2 O 0.3703(3) -0.5640(5) 0.2661(4)
O3 O 0.2359(4) -0.5199(6) 0.1182(4)
O4 O 0.4146(4) -0.4339(6) 0.2738(4)
O5 O 0.2823(4) -0.4523(6) 0.2011(5)
C2 C 0.4571(5) -0.6670(8) 0.2555(6)
H1 H 0.4281 -0.6997 0.2588
C3 C 0.5000 -0.5226(11) 0.2500
H2 H 0.5000 -0.4582 0.2500
C4 C 0.5000 -0.7128(12) 0.2500
H3 H 0.5000 -0.7772 0.2500
C6 C 0.4574(5) -0.5712(8) 0.2561(5)
C7 C 0.2499(6) -0.4478(8) 0.1478(7)
C8 C 0.4119(5) -0.5198(8) 0.2658(5)
C12 C 0.1636(5) -0.6825(7) 0.2055(5)
O6 O 0.3402(4) -0.3554(6) 0.3928(4)
O7 O 0.1853(4) -0.0419(5) 0.1462(4)
O8 O 0.3443(4) -0.3841(6) 0.6415(4)
O9 O 0.1726(4) -0.2804(5) 0.2786(4)
O10 O 0.4132(4) -0.4327(7) 0.3964(4)
O11 O 0.2403(4) -0.7285(6) 0.1056(4)
H7 H 0.2609 -0.7363 0.0888
O12 O 0.1958(4) -0.6695(5) 0.1807(4)
C15 C 0.2005(5) -0.1980(7) 0.1291(6)
O13 O 0.3250(5) -0.2737(8) 0.5755(5)
C16 C 0.1573(5) -0.4417(8) 0.2597(6)
C17 C 0.1942(5) -0.3567(8) 0.2755(6)
C18 C 0.3972(5) -0.4221(9) 0.4828(6)
C19 C 0.3705(5) -0.3758(8) 0.5125(6)
H8 H 0.3462 -0.3281 0.4944
C20 C 0.1735(5) -0.5182(7) 0.2386(6)
H9 H 0.2055 -0.5157 0.2316
C21 C 0.3475(6) -0.3477(9) 0.5971(7)
C22 C 0.2253(5) -0.2814(8) 0.1545(6)
H10 H 0.2416 -0.2861 0.1943
C23 C 0.3839(5) -0.4024(9) 0.4209(6)
C24 C 0.1090(6) -0.4429(9) 0.2689(6)
H11 H 0.0968 -0.3898 0.2810
C25 C 0.1429(5) -0.5998(8) 0.2274(6)
C26 C 0.2259(6) -0.3559(9) 0.1214(6)
C27 C 0.3792(6) -0.3990(9) 0.5682(6)
C28 C 0.0965(6) -0.6041(9) 0.2395(7)
H12 H 0.0767 -0.6591 0.2343
C29 C 0.0793(5) -0.5245(9) 0.2597(6)
H13 H 0.0475 -0.5266 0.2671
C30 C 0.4346(6) -0.4919(10) 0.5103(7)
H14 H 0.4525 -0.5235 0.4908
C31 C 0.4165(6) -0.4697(10) 0.5953(6)
H15 H 0.4223 -0.4872 0.6325
C32 C 0.1766(7) -0.1908(9) 0.0708(6)
H16 H 0.1595 -0.1359 0.0537
C33 C 0.4452(6) -0.5145(11) 0.5666(7)
H17 H 0.4713 -0.5595 0.5854
C34 C 0.2029(7) -0.3488(8) 0.0623(7)
H18 H 0.2041 -0.3986 0.0396
C35 C 0.1777(7) -0.2657(10) 0.0370(7)
H19 H 0.1617 -0.2606 -0.0027
O14 O 0.2176(4) -0.1341(6) 0.2204(4)
C49 C 0.2016(5) -0.1182(8) 0.1679(6)
O15 O 0.1474(4) -0.7621(6) 0.2134(4)
Eu1C Eu 0.16524(3) 0.08432(4) 0.19830(3)
Eu1C_2 Eu 0.16524(3) -0.91568(4) 0.19830(3)
Eu1B Eu 0.66524(3) -0.41568(4) 0.19830(3)
Eu1F Eu 0.33476(3) -0.58432(4) -0.19830(3)
Eu2B Eu 0.71355(3) -0.63605(4) 0.31010(3)
Eu2F Eu 0.28645(3) -0.36395(4) 0.68990(3)
Eu2C Eu 0.21355(3) -0.13605(4) 0.31010(3)
Eu2C_2 Eu 0.21355(3) -1.13605(4) 0.31010(3)
Eu2_2 Eu 0.28645(3) 0.36395(4) 0.18990(3)
O1C O 0.2559(4) 0.1327(6) 0.2168(4)
O2B O 0.6297(3) -0.5640(5) 0.2339(4)
O2C O 0.1297(3) -0.0640(5) 0.2339(4)
O3C O 0.2641(4) -1.0199(6) 0.3818(4)
O3B O 0.7641(4) -0.5199(6) 0.3818(4)
O4B O 0.5854(4) -0.4339(6) 0.2262(4)
O4C O 0.0854(4) 0.0661(6) 0.2262(4)
O5C O 0.2177(4) -0.9523(6) 0.2989(5)
O5C_2 O 0.2177(4) 0.0477(6) 0.2989(5)
O5B O 0.7177(4) -0.4523(6) 0.2989(5)
C2B C 0.5429(5) -0.6670(8) 0.2445(6)
H1B H 0.5719 -0.6997 0.2412
C6B C 0.5426(5) -0.5712(8) 0.2439(5)
C7C C 0.2501(6) -0.9478(8) 0.3522(7)
C8B C 0.5881(5) -0.5198(8) 0.2342(5)
C12C C 0.3364(5) -0.1825(7) 0.2945(5)
O6F O 0.3402(4) -0.6446(6) -0.1072(4)
O6C O 0.1598(4) 0.1446(6) 0.1072(4)
O7C O 0.3147(4) -0.5419(5) 0.3538(4)
O8F O 0.3443(4) -0.6159(6) 0.1415(4)
O8D O 0.6557(4) -0.6159(6) 0.3585(4)
O9C O 0.3274(4) 0.2196(5) 0.2214(4)
O9C_2 O 0.3274(4) -0.7804(5) 0.2214(4)
O9A O 0.6726(4) -0.7804(5) 0.2786(4)
O10F O 0.4132(4) -0.5673(7) -0.1036(4)
O10C O 0.0868(4) 0.0673(7) 0.1036(4)
O11B O 0.7597(4) -0.7285(6) 0.3944(4)
H7B H 0.7391 -0.7363 0.4112
O12C O 0.3042(4) -0.1695(5) 0.3193(4)
O12B O 0.8042(4) -0.6695(5) 0.3193(4)
C15C C 0.2995(5) -0.6980(7) 0.3709(6)
O13F O 0.3250(5) -0.7263(8) 0.0755(5)
C16C C 0.3427(5) 0.0583(8) 0.2403(6)
C17C C 0.3058(5) 0.1433(8) 0.2245(6)
C18F C 0.3972(5) -0.5779(9) -0.0172(6)
C19F C 0.3705(5) -0.6242(8) 0.0125(6)
H8F H 0.3462 -0.6719 -0.0056
C20C C 0.3265(5) -0.0182(7) 0.2614(6)
H9C H 0.2945 -0.0157 0.2684
C21F C 0.3475(6) -0.6523(9) 0.0971(7)
C22C C 0.2747(5) -0.7814(8) 0.3455(6)
H10C H 0.2584 -0.7861 0.3057
C23F C 0.3839(5) -0.5976(9) -0.0791(6)
C24C C 0.3910(6) 0.0571(9) 0.2311(6)
H11C H 0.4032 0.1102 0.2190
C25C C 0.3571(5) -0.0998(8) 0.2726(6)
C26C C 0.2741(6) -0.8559(9) 0.3786(6)
C27F C 0.3792(6) -0.6010(9) 0.0682(6)
C28C C 0.4035(6) -0.1041(9) 0.2605(7)
H12C H 0.4233 -0.1591 0.2657
C29C C 0.4207(5) -0.0245(9) 0.2403(6)
H13C H 0.4525 -0.0266 0.2329
C30F C 0.4346(6) -0.5081(10) 0.0103(7)
H14F H 0.4525 -0.4765 -0.0092
C31F C 0.4165(6) -0.5303(10) 0.0953(6)
H15F H 0.4223 -0.5128 0.1325
C32C C 0.3234(7) -0.6908(9) 0.4292(6)
H16C H 0.3405 -0.6359 0.4463
C33F C 0.4452(6) -0.4855(11) 0.0666(7)
H17F H 0.4713 -0.4405 0.0854
C34C C 0.2971(7) -0.8488(8) 0.4377(7)
H18C H 0.2959 -0.8986 0.4604
C35C C 0.3223(7) -0.7657(10) 0.4630(7)
H19C H 0.3383 -0.7606 0.5027
O14C O 0.2824(4) -0.6341(6) 0.2796(4)
O14A O 0.7176(4) -0.6341(6) 0.2204(4)
C49C C 0.2984(5) -0.6182(8) 0.3321(6)
O15C O 0.3526(4) -0.2621(6) 0.2866(4)
O15_2 O 0.1474(4) 0.2379(6) 0.2134(4)
Cu1 Cu 0.55983(8) -0.02639(14) 0.42187(10)
N1 N 0.5134(5) 0.0889(9) 0.4014(5)
C1 C 0.6574(6) -0.0701(9) 0.4078(7)
C5 C 0.4643(6) 0.0816(11) 0.4064(7)
N2 N 0.4978(6) -0.0676(9) 0.4431(6)
N3 N 0.5697(5) -0.1403(10) 0.3762(6)
C9 C 0.6717(6) 0.0618(9) 0.4660(7)
H4 H 0.6597 0.1018 0.4874
N4 N 0.6390(5) -0.0111(8) 0.4384(6)
C10 C 0.7406(7) 0.0208(14) 0.4314(8)
H5 H 0.7741 0.0320 0.4284
C11 C 0.7217(6) 0.0776(11) 0.4632(7)
H6 H 0.7432 0.1273 0.4830
C13 C 0.4529(6) -0.0115(11) 0.4226(7)
C14 C 0.6222(7) -0.1499(10) 0.3827(7)
C36 C 0.4289(8) 0.1548(15) 0.3978(9)
H20 H 0.3947 0.1462 0.3995
C37 C 0.5345(8) -0.2107(12) 0.3528(8)
H21 H 0.4982 -0.2044 0.3491
C38 C 0.4915(9) -0.1523(13) 0.4604(8)
H22 H 0.5224 -0.1903 0.4750
C39 C 0.4424(10) -0.1870(16) 0.4580(9)
H23 H 0.4395 -0.2473 0.4692
C40 C 0.3993(9) -0.1310(19) 0.4389(9)
H24 H 0.3657 -0.1518 0.4381
C41 C 0.4028(7) -0.0443(15) 0.4206(8)
H25 H 0.3717 -0.0067 0.4068
C42 C 0.7078(7) -0.0536(12) 0.4040(8)
H26 H 0.7196 -0.0935 0.3824
C43 C 0.5275(8) 0.1748(13) 0.3921(8)
H27 H 0.5617 0.1824 0.3902
C44 C 0.4444(9) 0.2412(15) 0.3865(10)
H28 H 0.4204 0.2912 0.3800
C45 C 0.6403(8) -0.2283(13) 0.3645(8)
H29 H 0.6768 -0.2346 0.3690
C46 C 0.5492(10) -0.2899(15) 0.3344(8)
H30 H 0.5240 -0.3375 0.3191
C47 C 0.4950(9) 0.2533(14) 0.3850(9)
H31 H 0.5072 0.3114 0.3794
C48 C 0.6019(12) -0.2979(15) 0.3391(10)
H32 H 0.6126 -0.3506 0.3251
loop_
_geom_bond_atom_site_label_1
_geom_bond_atom_site_label_2
_geom_bond_site_symmetry_1
_geom_bond_site_symmetry_2
Eu1 O1 1_555 1_555
Eu2 O2 1_555 1_555
Cu1 N1 1_555 1_555
N1 C5 1_555 1_555
O1 C17 1_555 1_555
O2 Eu1 1_555 1_555
O3 Eu2 1_555 1_555
O4 Eu1 1_555 1_555
O5 Eu1 1_555 1_555
C1 N4 1_555 1_555
C2 H1 1_555 1_555
C3 H2 1_555 1_555
C4 C2 1_555 1_555
H3 C4 1_555 1_555
C5 C13 1_555 1_555
C6 C2 1_555 1_555
C7 O3 1_555 1_555
C8 O2 1_555 1_555
N2 Cu1 1_555 1_555
N3 Cu1 1_555 1_555
C9 H4 1_555 1_555
N4 Cu1 1_555 1_555
C10 H5 1_555 1_555
C11 C9 1_555 1_555
H6 C11 1_555 1_555
C12 O12 1_555 1_555
C13 N2 1_555 1_555
C14 C1 1_555 1_555
O6 Eu1 1_555 1_555
O7 C49 1_555 1_555
O8 C21 1_555 1_555
O9 C17 1_555 1_555
O10 Eu1 1_555 1_555
O11 Eu2 1_555 1_555
H7 O11 1_555 1_555
O12 Eu2 1_555 1_555
C15 C22 1_555 1_555
O13 C21 1_555 1_555
C16 C17 1_555 1_555
C18 C19 1_555 1_555
C19 H8 1_555 1_555
C20 C16 1_555 1_555
H9 C20 1_555 1_555
C21 C27 1_555 1_555
C22 H10 1_555 1_555
C23 O6 1_555 1_555
C24 C16 1_555 1_555
H11 C24 1_555 1_555
C25 C12 1_555 1_555
C26 C7 1_555 1_555
C27 C19 1_555 1_555
C28 C25 1_555 1_555
H12 C28 1_555 1_555
C29 C24 1_555 1_555
H13 C29 1_555 1_555
C30 C18 1_555 1_555
H14 C30 1_555 1_555
C31 C27 1_555 1_555
H15 C31 1_555 1_555
C32 C15 1_555 1_555
H16 C32 1_555 1_555
C33 C30 1_555 1_555
H17 C33 1_555 1_555
C34 C26 1_555 1_555
H18 C34 1_555 1_555
C35 C32 1_555 1_555
H19 C35 1_555 1_555
C36 C5 1_555 1_555
H20 C36 1_555 1_555
C37 N3 1_555 1_555
H21 C37 1_555 1_555
C38 N2 1_555 1_555
H22 C38 1_555 1_555
C39 C38 1_555 1_555
H23 C39 1_555 1_555
C40 C39 1_555 1_555
H24 C40 1_555 1_555
C41 C13 1_555 1_555
H25 C41 1_555 1_555
C42 C1 1_555 1_555
H26 C42 1_555 1_555
C43 N1 1_555 1_555
H27 C43 1_555 1_555
C44 C36 1_555 1_555
H28 C44 1_555 1_555
C45 C14 1_555 1_555
H29 C45 1_555 1_555
C46 C37 1_555 1_555
H30 C46 1_555 1_555
C47 C43 1_555 1_555
H31 C47 1_555 1_555
C48 C45 1_555 1_555
H32 C48 1_555 1_555
O14 C49 1_555 1_555
C49 C15 1_555 1_555
O15 C12 1_555 1_555
Eu1C O7 1_555 1_555
Eu1C_2 O15 1_555 1_555
Eu1B O2B 1_555 1_555
Eu1F O6F 1_555 1_555
Eu2B O2B 1_555 1_555
Eu2F O8 1_555 1_555
Eu2C O9 1_555 1_555
Eu2C_2 O3C 1_555 1_555
Eu2_2 O9C 1_555 1_555
O1C Eu1C 1_555 1_555
O2B C8B 1_555 1_555
O2C Eu1C 1_555 1_555
O3C C7C 1_555 1_555
O3B Eu2B 1_555 1_555
O4B Eu1B 1_555 1_555
O4C Eu1C 1_555 1_555
O5C Eu1C_2 1_555 1_555
O5C_2 Eu1C 1_555 1_555
O5B Eu1B 1_555 1_555
C2B C4 1_555 1_555
H1B C2B 1_555 1_555
C6B C3 1_555 1_555
C7C O5C 1_555 1_555
C8B O4B 1_555 1_555
C12C O12C 1_555 1_555
O6F C23F 1_555 1_555
O6C Eu1C 1_555 1_555
O7C Eu1 1_555 1_555
O8F Eu2 1_555 1_555
O8D Eu2B 1_555 1_555
O9C C17C 1_555 1_555
O9C_2 Eu2 1_555 1_555
O9A Eu2B 1_555 1_555
O10F Eu1F 1_555 1_555
O10C Eu1C 1_555 1_555
O11B Eu2B 1_555 1_555
H7B O11B 1_555 1_555
O12C Eu2C 1_555 1_555
O12B Eu2B 1_555 1_555
C15C C22C 1_555 1_555
O13F C21F 1_555 1_555
C16C C17C 1_555 1_555
C17C O1C 1_555 1_555
C18F C19F 1_555 1_555
C19F H8F 1_555 1_555
C20C C16C 1_555 1_555
H9C C20C 1_555 1_555
C21F O8F 1_555 1_555
C22C H10C 1_555 1_555
C23F O10F 1_555 1_555
C24C C16C 1_555 1_555
H11C C24C 1_555 1_555
C25C C12C 1_555 1_555
C26C C7C 1_555 1_555
C27F C19F 1_555 1_555
C28C C25C 1_555 1_555
H12C C28C 1_555 1_555
C29C C24C 1_555 1_555
H13C C29C 1_555 1_555
C30F C18F 1_555 1_555
H14F C30F 1_555 1_555
C31F C27F 1_555 1_555
H15F C31F 1_555 1_555
C32C C15C 1_555 1_555
H16C C32C 1_555 1_555
C33F C30F 1_555 1_555
H17F C33F 1_555 1_555
C34C C26C 1_555 1_555
H18C C34C 1_555 1_555
C35C C32C 1_555 1_555
H19C C35C 1_555 1_555
O14C Eu2 1_555 1_555
O14A Eu2B 1_555 1_555
C49C O7C 1_555 1_555
O15C Eu1 1_555 1_555
O15_2 Eu1C 1_555 1_555
Eu2 O5 1_555 1_555
O4 C8 1_555 1_555
O5 C7 1_555 1_555
C3 C6 1_555 1_555
C6 C8 1_555 1_555
N3 C14 1_555 1_555
C9 N4 1_555 1_555
C10 C11 1_555 1_555
C10 C42 1_555 1_555
O10 C23 1_555 1_555
C18 C23 1_555 1_555
C20 C25 1_555 1_555
C22 C26 1_555 1_555
C28 C29 1_555 1_555
C31 C33 1_555 1_555
C34 C35 1_555 1_555
C40 C41 1_555 1_555
C44 C47 1_555 1_555
C46 C48 1_555 1_555
O14 Eu2C 1_555 1_555
Eu2B O5B 1_555 1_555
Eu2C O2C 1_555 1_555
Eu2C O5C_2 1_555 1_555
Eu2C_2 O5C 1_555 1_555
C2B C6B 1_555 1_555
C6B C8B 1_555 1_555
C12C O15C 1_555 1_555
C15C C49C 1_555 1_555
C18F C23F 1_555 1_555
C20C C25C 1_555 1_555
C21F C27F 1_555 1_555
C22C C26C 1_555 1_555
C28C C29C 1_555 1_555
C31F C33F 1_555 1_555
C34C C35C 1_555 1_555
O14C C49C 1_555 1_555

#END
