
#######################################################################
#
#                 Cambridge Crystallographic Data Centre
#                                CCDC 
#
#######################################################################
#
# If this CIF has been generated from an entry in the Cambridge 
# Structural Database, then it will include bibliographic, chemical, 
# crystal, experimental, refinement or atomic coordinate data resulting 
# from the CCDC's data processing and validation procedures.
#
#######################################################################

data_DEPYAZ
_chemical_formula_moiety         '(C76 H48 Cu1 N4 Nd4 O30 1-)n'
_symmetry_cell_setting           monoclinic
_symmetry_space_group_name_H-M   'C 2/c'
_symmetry_Int_Tables_number      15
_space_group_name_Hall           '-C 2yc'
loop_
_symmetry_equiv_pos_site_id
_symmetry_equiv_pos_as_xyz
1 x,y,z
2 1/2+x,1/2+y,z
3 -x,y,1/2-z
4 1/2-x,1/2+y,1/2-z
5 -x,-y,-z
6 1/2-x,1/2-y,-z
7 x,-y,1/2+z
8 1/2+x,1/2-y,1/2+z
_cell_length_a                   26.4938(2)
_cell_length_b                   14.52140(10)
_cell_length_c                   25.6071(4)
_cell_angle_alpha                90
_cell_angle_beta                 114.2850(10)
_cell_angle_gamma                90
_cell_volume                     8979.97
loop_
_atom_site_label
_atom_site_type_symbol
_atom_site_fract_x
_atom_site_fract_y
_atom_site_fract_z
Nd1 Nd 0.21414(2) -0.13261(4) 0.31003(2)
Nd2 Nd 0.16455(2) 0.08841(4) 0.19715(2)
O1 O 0.1280(3) -0.0591(5) 0.2334(3)
O2 O 0.2187(3) 0.0535(5) 0.3000(3)
O3 O 0.2832(3) 0.3710(5) 0.2812(3)
C1 C 0.0000 -0.0202(9) 0.2500
H1 H 0.0000 0.0439 0.2500
C2 C 0.3012(4) 0.3059(7) 0.3714(4)
O4 O 0.0824(3) 0.0703(5) 0.2236(3)
O5 O 0.2672(4) -0.0132(5) 0.3831(3)
O6 O 0.0848(3) -0.0743(6) 0.6003(3)
O7 O 0.2620(3) -0.2265(5) 0.3963(3)
H2 H 0.2415 -0.2346 0.4126
O8 O 0.1589(3) -0.1480(5) 0.6046(3)
O9 O 0.1768(4) -0.2244(7) 0.4252(4)
O10 O 0.3296(3) 0.2222(5) 0.2231(4)
O11 O 0.3063(3) -0.1642(5) 0.3195(3)
C3 C 0.1532(5) -0.1514(9) 0.4030(5)
C4 C 0.2532(5) 0.0576(8) 0.3537(5)
C5 C 0.2765(4) 0.2215(7) 0.3461(4)
H3 H 0.2597 0.2161 0.3064
C6 C 0.0426(4) -0.0663(7) 0.2430(4)
O12 O 0.1559(3) -0.1146(5) 0.3594(3)
C7 C 0.2770(4) 0.1473(7) 0.3798(4)
C8 C 0.1292(4) -0.1270(8) 0.4865(5)
H4 H 0.1539 -0.1740 0.5051
C9 C 0.1011(4) -0.0812(7) 0.5153(4)
C10 C 0.1142(4) -0.1027(7) 0.5764(4)
C11 C 0.1206(5) -0.1031(8) 0.4310(5)
C12 C 0.0871(4) -0.0133(7) 0.2336(4)
C13 C 0.0838(5) -0.0326(9) 0.4041(5)
H5 H 0.0786 -0.0145 0.3674
C14 C 0.0411(5) -0.1615(8) 0.2441(5)
H6 H 0.0697 -0.1942 0.2406
C16 C 0.0544(6) 0.0115(10) 0.4313(6)
H7 H 0.0287 0.0569 0.4121
O13 O 0.2577(3) 0.1379(5) 0.2179(3)
O14 O 0.3546(3) -0.2569(5) 0.2874(3)
O15 O 0.3173(4) 0.4612(5) 0.3564(4)
C18 C 0.3573(4) -0.0941(7) 0.2724(4)
C19 C 0.3433(4) 0.0627(7) 0.2403(5)
C20 C 0.3078(4) 0.1473(8) 0.2263(5)
C21 C 0.3285(4) -0.0147(7) 0.2627(4)
H8 H 0.2977 -0.0116 0.2714
C22 C 0.3009(4) 0.3843(7) 0.3344(5)
C23 C 0.3266(5) 0.3119(8) 0.4301(5)
H9 H 0.3440 0.3663 0.4474
C24 C 0.3381(4) -0.1770(7) 0.2948(4)
C25 C 0.4038(5) -0.1010(8) 0.2605(5)
H10 H 0.4235 -0.1558 0.2663
C26 C 0.0636(5) -0.0121(8) 0.4864(5)
H11 H 0.0444 0.0185 0.5046
C27 C 0.3912(5) 0.0594(8) 0.2302(6)
H12 H 0.4036 0.1112 0.2176
C28 C 0.0000 -0.2094(12) 0.2500
H13 H 0.0000 -0.2734 0.2500
C30 C 0.3020(6) 0.1566(8) 0.4386(5)
H15 H 0.3022 0.1068 0.4616
C31 C 0.4198(6) -0.0234(9) 0.2395(6)
H16 H 0.4508 -0.0270 0.2314
C32 C 0.3262(7) 0.2372(9) 0.4638(5)
H17 H 0.3425 0.2422 0.5035
Nd1B Nd -0.21414(2) -0.13261(4) 0.18997(2)
Nd1C Nd 0.28586(2) 0.36739(4) 0.18997(2)
Nd1C_2 Nd 0.28586(2) -0.63261(4) 0.18997(2)
Nd1F Nd 0.21414(2) 0.13261(4) -0.18997(2)
Nd1_2 Nd 0.21414(2) 0.86739(4) 0.31003(2)
Nd2B Nd -0.16455(2) 0.08841(4) 0.30285(2)
Nd2F Nd 0.16455(2) -0.08841(4) 0.69715(2)
Nd2C Nd 0.33545(2) -0.41159(4) 0.30285(2)
Nd2C_2 Nd 0.33545(2) 0.58841(4) 0.30285(2)
O1B O -0.1280(3) -0.0591(5) 0.2666(3)
O1C O 0.3720(3) 0.4409(5) 0.2666(3)
O2C O 0.2813(3) -0.4465(5) 0.2000(3)
O2B O -0.2187(3) 0.0535(5) 0.2000(3)
O2C_2 O 0.2813(3) 0.5535(5) 0.2000(3)
O3C O 0.2168(3) -0.1290(5) 0.2188(3)
O3A O -0.2168(3) -0.1290(5) 0.2812(3)
C2C C 0.1988(4) -0.1941(7) 0.1286(4)
O4B O -0.0824(3) 0.0703(5) 0.2764(3)
O4C O 0.4176(3) 0.5703(5) 0.2764(3)
O5C O 0.2328(4) -0.5132(5) 0.1169(3)
O5B O -0.2672(4) -0.0132(5) 0.1169(3)
O6F O 0.0848(3) 0.0743(6) 0.1003(3)
O6E O 0.4152(3) 0.5743(6) 0.3997(3)
O7B O -0.2620(3) -0.2265(5) 0.1037(3)
H2B H -0.2415 -0.2346 0.0874
O8F O 0.1589(3) 0.1480(5) 0.1046(3)
O8E O 0.3411(3) 0.6480(5) 0.3954(3)
O9F O 0.1768(4) 0.2244(7) -0.0748(4)
O10C O 0.1704(3) -0.2778(5) 0.2769(4)
O10A O -0.1704(3) -0.2778(5) 0.2231(4)
O10C_2 O 0.1704(3) 0.7222(5) 0.2769(4)
O11B O -0.3063(3) -0.1642(5) 0.1805(3)
O11C O 0.1937(3) 0.3358(5) 0.1805(3)
C3F C 0.1532(5) 0.1514(9) -0.0970(5)
C4C C 0.2468(5) -0.4424(8) 0.1463(5)
C5C C 0.2235(4) -0.2785(7) 0.1539(4)
H3C H 0.2403 -0.2839 0.1936
C6B C -0.0426(4) -0.0663(7) 0.2570(4)
O12F O 0.1559(3) 0.1146(5) -0.1406(3)
O12B O -0.1559(3) -0.1146(5) 0.1406(3)
C7C C 0.2230(4) -0.3527(7) 0.1202(4)
C8F C 0.1292(4) 0.1270(8) -0.0135(5)
H4F H 0.1539 0.1740 0.0051
C9F C 0.1011(4) 0.0812(7) 0.0153(4)
C10F C 0.1142(4) 0.1027(7) 0.0764(4)
C11F C 0.1206(5) 0.1031(8) -0.0690(5)
C12B C -0.0871(4) -0.0133(7) 0.2664(4)
C13F C 0.0838(5) 0.0326(9) -0.0959(5)
H5F H 0.0786 0.0145 -0.1326
C14B C -0.0411(5) -0.1615(8) 0.2559(5)
H6B H -0.0697 -0.1942 0.2594
C16F C 0.0544(6) -0.0115(10) -0.0687(6)
H7F H 0.0287 -0.0569 -0.0879
O13C O 0.2423(3) 0.6379(5) 0.2821(3)
O14C O 0.1454(3) 0.2431(5) 0.2126(3)
O14_2 O 0.3546(3) 0.7431(5) 0.2874(3)
O15C O 0.1827(4) -0.0388(5) 0.1436(4)
C18C C 0.1427(4) 0.4059(7) 0.2276(4)
C19C C 0.1567(4) 0.5627(7) 0.2597(5)
C20C C 0.1922(4) 0.6473(8) 0.2737(5)
C21C C 0.1715(4) 0.4853(7) 0.2373(4)
H8C H 0.2023 0.4884 0.2286
C22C C 0.1991(4) -0.1157(7) 0.1656(5)
C23C C 0.1734(5) -0.1881(8) 0.0699(5)
H9C H 0.1560 -0.1337 0.0526
C24C C 0.1619(4) 0.3230(7) 0.2052(4)
C25C C 0.0962(5) 0.3990(8) 0.2395(5)
H10C H 0.0765 0.3442 0.2337
C26F C 0.0636(5) 0.0121(8) -0.0136(5)
H11F H 0.0444 -0.0185 0.0046
C27C C 0.1088(5) 0.5594(8) 0.2698(6)
H12C H 0.0964 0.6112 0.2824
C30C C 0.1980(6) -0.3434(8) 0.0614(5)
H15C H 0.1978 -0.3932 0.0384
C31C C 0.0802(6) 0.4766(9) 0.2605(6)
H16C H 0.0492 0.4730 0.2686
C32C C 0.1738(7) -0.2628(9) 0.0362(5)
H17C H 0.1575 -0.2578 -0.0035
Cu1 Cu 0.43908(7) -0.02818(13) 0.07871(8)
N1 N 0.4860(4) 0.0887(8) 0.0993(5)
N2 N 0.3590(4) -0.0107(7) 0.0608(4)
N3 N 0.4297(4) -0.1412(8) 0.1234(4)
N4 N 0.4999(5) -0.0689(8) 0.0575(5)
C15 C 0.5343(6) 0.0783(11) 0.0946(6)
C17 C 0.5446(5) -0.0134(11) 0.0767(5)
C29 C 0.3266(5) 0.0592(9) 0.0355(6)
H14 H 0.3387 0.0991 0.0146
C33 C 0.5955(6) -0.0428(14) 0.0784(6)
H18 H 0.6260 -0.0037 0.0918
C34 C 0.3416(6) -0.0689(9) 0.0908(6)
C35 C 0.3772(6) -0.1492(9) 0.1187(5)
C36 C 0.5058(7) -0.1545(11) 0.0399(7)
H19 H 0.4757 -0.1944 0.0275
C37 C 0.2768(6) 0.0782(10) 0.0372(6)
H20 H 0.2556 0.1283 0.0175
C38 C 0.2592(6) 0.0217(13) 0.0684(8)
H21 H 0.2258 0.0326 0.0712
C39 C 0.5558(8) -0.1847(15) 0.0398(8)
H22 H 0.5582 -0.2428 0.0257
C40 C 0.4650(7) -0.2118(11) 0.1465(6)
H23 H 0.5010 -0.2069 0.1495
C41 C 0.4718(7) 0.1735(11) 0.1098(7)
H24 H 0.4380 0.1806 0.1124
C42 C 0.6000(8) -0.1300(16) 0.0600(7)
H25 H 0.6338 -0.1507 0.0616
C43 C 0.4496(9) -0.2905(13) 0.1656(7)
H26 H 0.4749 -0.3378 0.1818
C44 C 0.2921(6) -0.0529(12) 0.0964(7)
H27 H 0.2812 -0.0920 0.1186
C45 C 0.3602(7) -0.2293(11) 0.1359(7)
H28 H 0.3236 -0.2367 0.1308
C46 C 0.5694(7) 0.1521(15) 0.1040(8)
H29 H 0.6041 0.1435 0.1038
C47 C 0.5044(8) 0.2499(12) 0.1168(7)
H30 H 0.4927 0.3074 0.1235
C48 C 0.5537(8) 0.2396(16) 0.1139(8)
H31 H 0.5768 0.2900 0.1185
C49 C 0.3983(11) -0.2977(12) 0.1606(9)
H32 H 0.3877 -0.3504 0.1742
loop_
_geom_bond_atom_site_label_1
_geom_bond_atom_site_label_2
_geom_bond_site_symmetry_1
_geom_bond_site_symmetry_2
Nd1 O1 1_555 1_555
Nd2 O1 1_555 1_555
Cu1 N1 1_555 1_555
N1 C15 1_555 1_555
O1 C12 1_555 1_555
O2 Nd1 1_555 1_555
O3 C22 1_555 1_555
C1 H1 1_555 1_555
C2 C5 1_555 1_555
O4 Nd2 1_555 1_555
O5 Nd1 1_555 1_555
O6 C10 1_555 1_555
O7 Nd1 1_555 1_555
H2 O7 1_555 1_555
O8 C10 1_555 1_555
O9 C3 1_555 1_555
O10 C20 1_555 1_555
O11 Nd1 1_555 1_555
C3 O12 1_555 1_555
C4 O2 1_555 1_555
C5 H3 1_555 1_555
C6 C1 1_555 1_555
O12 Nd1 1_555 1_555
C7 C4 1_555 1_555
C8 H4 1_555 1_555
C9 C8 1_555 1_555
N2 Cu1 1_555 1_555
C10 C9 1_555 1_555
C11 C3 1_555 1_555
C12 O4 1_555 1_555
C13 C11 1_555 1_555
H5 C13 1_555 1_555
N3 Cu1 1_555 1_555
N4 Cu1 1_555 1_555
C14 C6 1_555 1_555
H6 C14 1_555 1_555
C15 C17 1_555 1_555
C16 C13 1_555 1_555
H7 C16 1_555 1_555
C17 N4 1_555 1_555
O13 Nd2 1_555 1_555
O14 C24 1_555 1_555
O15 C22 1_555 1_555
C18 C21 1_555 1_555
C19 C20 1_555 1_555
C20 O13 1_555 1_555
C21 C19 1_555 1_555
H8 C21 1_555 1_555
C22 C2 1_555 1_555
C23 C2 1_555 1_555
H9 C23 1_555 1_555
C24 O11 1_555 1_555
C25 C18 1_555 1_555
H10 C25 1_555 1_555
C26 C9 1_555 1_555
H11 C26 1_555 1_555
C27 C19 1_555 1_555
H12 C27 1_555 1_555
C28 C14 1_555 1_555
H13 C28 1_555 1_555
C29 N2 1_555 1_555
H14 C29 1_555 1_555
C30 C7 1_555 1_555
H15 C30 1_555 1_555
C31 C25 1_555 1_555
H16 C31 1_555 1_555
C32 C23 1_555 1_555
H17 C32 1_555 1_555
C33 C17 1_555 1_555
H18 C33 1_555 1_555
C34 N2 1_555 1_555
C35 N3 1_555 1_555
C36 N4 1_555 1_555
H19 C36 1_555 1_555
C37 C29 1_555 1_555
H20 C37 1_555 1_555
C38 C37 1_555 1_555
H21 C38 1_555 1_555
C39 C36 1_555 1_555
H22 C39 1_555 1_555
C40 N3 1_555 1_555
H23 C40 1_555 1_555
C41 N1 1_555 1_555
H24 C41 1_555 1_555
C42 C33 1_555 1_555
H25 C42 1_555 1_555
C43 C40 1_555 1_555
H26 C43 1_555 1_555
C44 C34 1_555 1_555
H27 C44 1_555 1_555
C45 C35 1_555 1_555
H28 C45 1_555 1_555
C46 C15 1_555 1_555
H29 C46 1_555 1_555
C47 C41 1_555 1_555
H30 C47 1_555 1_555
C48 C46 1_555 1_555
H31 C48 1_555 1_555
C49 C43 1_555 1_555
H32 C49 1_555 1_555
Nd1B O1B 1_555 1_555
Nd1C O3 1_555 1_555
Nd1C_2 O2C 1_555 1_555
Nd1F O12F 1_555 1_555
Nd1_2 O10C_2 1_555 1_555
Nd2B O1B 1_555 1_555
Nd2F O6 1_555 1_555
Nd2C O14 1_555 1_555
Nd2C_2 O15 1_555 1_555
O1B C12B 1_555 1_555
O1C Nd1C 1_555 1_555
O2C Nd2C 1_555 1_555
O2B Nd1B 1_555 1_555
O2C_2 Nd1C 1_555 1_555
O3C Nd1 1_555 1_555
O3A Nd1B 1_555 1_555
C2C C5C 1_555 1_555
O4B Nd2B 1_555 1_555
O4C Nd2C_2 1_555 1_555
O5C Nd1C_2 1_555 1_555
O5B Nd1B 1_555 1_555
O6F Nd2 1_555 1_555
O6E Nd2C_2 1_555 1_555
O7B Nd1B 1_555 1_555
H2B O7B 1_555 1_555
O8F Nd2 1_555 1_555
O8E Nd2C_2 1_555 1_555
O9F C3F 1_555 1_555
O10C Nd1 1_555 1_555
O10A Nd1B 1_555 1_555
O10C_2 C20C 1_555 1_555
O11B Nd1B 1_555 1_555
O11C Nd1C 1_555 1_555
C3F O12F 1_555 1_555
C4C O2C 1_555 1_555
C5C H3C 1_555 1_555
C6B C1 1_555 1_555
O12B Nd1B 1_555 1_555
C7C C4C 1_555 1_555
C8F H4F 1_555 1_555
C9F C8F 1_555 1_555
C10F O6F 1_555 1_555
C11F C3F 1_555 1_555
C12B O4B 1_555 1_555
C13F C11F 1_555 1_555
H5F C13F 1_555 1_555
C14B C28 1_555 1_555
H6B C14B 1_555 1_555
C16F C13F 1_555 1_555
H7F C16F 1_555 1_555
O13C Nd2C_2 1_555 1_555
O14C Nd2 1_555 1_555
O14_2 Nd2C_2 1_555 1_555
O15C Nd2 1_555 1_555
C18C C21C 1_555 1_555
C19C C20C 1_555 1_555
C20C O13C 1_555 1_555
C21C C19C 1_555 1_555
H8C C21C 1_555 1_555
C22C O3C 1_555 1_555
C23C C2C 1_555 1_555
H9C C23C 1_555 1_555
C24C O11C 1_555 1_555
C25C C18C 1_555 1_555
H10C C25C 1_555 1_555
C26F C9F 1_555 1_555
H11F C26F 1_555 1_555
C27C C19C 1_555 1_555
H12C C27C 1_555 1_555
C30C C7C 1_555 1_555
H15C C30C 1_555 1_555
C31C C25C 1_555 1_555
H16C C31C 1_555 1_555
C32C C23C 1_555 1_555
H17C C32C 1_555 1_555
Nd2 O2 1_555 1_555
O5 C4 1_555 1_555
O8 Nd2F 1_555 1_555
O10 Nd1C 1_555 1_555
C5 C7 1_555 1_555
C6 C12 1_555 1_555
C8 C11 1_555 1_555
C16 C26 1_555 1_555
C18 C24 1_555 1_555
C27 C31 1_555 1_555
C30 C32 1_555 1_555
C34 C35 1_555 1_555
C38 C44 1_555 1_555
C39 C42 1_555 1_555
C45 C49 1_555 1_555
C47 C48 1_555 1_555
Nd2B O2B 1_555 1_555
Nd2C_2 O1C 1_555 1_555
Nd2C_2 O2C_2 1_555 1_555
C2C C22C 1_555 1_555
O5C C4C 1_555 1_555
O8F C10F 1_555 1_555
C5C C7C 1_555 1_555
C6B C12B 1_555 1_555
C6B C14B 1_555 1_555
C8F C11F 1_555 1_555
C9F C10F 1_555 1_555
C16F C26F 1_555 1_555
O14C C24C 1_555 1_555
O15C C22C 1_555 1_555
C18C C24C 1_555 1_555
C27C C31C 1_555 1_555
C30C C32C 1_555 1_555

#END
