
#######################################################################
#
#                 Cambridge Crystallographic Data Centre
#                                CCDC 
#
#######################################################################
#
# If this CIF has been generated from an entry in the Cambridge 
# Structural Database, then it will include bibliographic, chemical, 
# crystal, experimental, refinement or atomic coordinate data resulting 
# from the CCDC's data processing and validation procedures.
#
#######################################################################

data_ZINDAD
_chemical_formula_moiety         '(C54 H42 N12 O33 Zn6)n'
_symmetry_cell_setting           tetragonal
_symmetry_space_group_name_H-M   'I 4/m'
_symmetry_Int_Tables_number      87
_space_group_name_Hall           '-I 4'
loop_
_symmetry_equiv_pos_site_id
_symmetry_equiv_pos_as_xyz
1 x,y,z
2 -x,-y,z
3 -y,x,z
4 y,-x,z
5 1/2+x,1/2+y,1/2+z
6 1/2-x,1/2-y,1/2+z
7 1/2-y,1/2+x,1/2+z
8 1/2+y,1/2-x,1/2+z
9 -x,-y,-z
10 x,y,-z
11 y,-x,-z
12 -y,x,-z
13 1/2-x,1/2-y,1/2-z
14 1/2+x,1/2+y,1/2-z
15 1/2+y,1/2-x,1/2-z
16 1/2-y,1/2+x,1/2-z
_cell_length_a                   26.855(4)
_cell_length_b                   26.855(4)
_cell_length_c                   38.127(8)
_cell_angle_alpha                90
_cell_angle_beta                 90
_cell_angle_gamma                90
_cell_volume                     27496.9
loop_
_atom_site_label
_atom_site_type_symbol
_atom_site_fract_x
_atom_site_fract_y
_atom_site_fract_z
_atom_site_U_iso_or_equiv
_atom_site_thermal_displace_type
Zn1 Zn 0.45035(2) -0.209596(18) 0.0000 0.0370 Uani
Zn2 Zn 0.119046(13) 0.170901(13) 0.355307(9) 0.0367 Uani
Zn3 Zn 0.43272(2) -0.100089(18) 0.0000 0.0363 Uani
Zn4 Zn 0.163397(13) 0.235652(13) 0.299090(9) 0.0359 Uani
O1 O 0.38455(10) -0.12291(9) 0.03775(6) 0.0572 Uani
O2 O 0.4161(2) -0.02856(14) 0.0000 0.0957 Uani
O3 O 0.39755(11) -0.20455(10) 0.03716(7) 0.0658 Uani
O4 O 0.4632(2) -0.28136(14) 0.0000 0.1013 Uani
O5 O 0.08139(13) 0.13471(13) 0.39194(8) 0.0893 Uani
O6 O 0.32108(12) -0.31146(10) 0.12502(7) 0.0684 Uani
O7 O 0.20250(13) 0.26717(12) 0.26052(8) 0.0867 Uani
O8 O 0.27684(11) -0.27831(10) 0.16783(6) 0.0649 Uani
O9 O 0.23237(9) -0.09337(9) 0.27908(7) 0.0551 Uani
O10 O 0.17976(11) -0.06424(9) 0.31954(6) 0.0633 Uani
O11 O 0.14545(11) 0.11391(10) 0.32629(6) 0.0631 Uani
O12 O 0.17119(10) 0.16386(9) 0.28341(7) 0.0587 Uani
O13 O 0.35947(10) 0.21002(9) 0.16730(7) 0.0593 Uani
O14 O 0.39569(11) 0.25918(10) 0.12801(8) 0.0675 Uani
O15 O 0.50064(12) 0.18595(11) 0.03718(8) 0.0734 Uani
O16 O 0.51219(10) 0.10479(10) 0.03702(7) 0.0644 Uani
N1 N 0.33021(14) -0.03018(12) 0.12907(9) 0.0686 Uani
N2 N 0.27114(15) -0.02075(12) 0.17477(9) 0.0731 Uani
N3 N 0.31622(16) 0.04970(11) 0.15428(9) 0.0737 Uani
N4 N 0.28283(15) -0.09563(12) 0.14984(9) 0.0730 Uani
H1 H 0.2589 -0.1034 0.1638 0.0800 Uiso
N5 N 0.26228(17) 0.05756(12) 0.19987(10) 0.0872 Uani
H2 H 0.2671 0.0889 0.1965 0.0800 Uiso
N6 N 0.37570(15) 0.03672(12) 0.11084(9) 0.0731 Uani
H3 H 0.3893 0.0146 0.0977 0.0800 Uiso
C1 C 0.29644(17) -0.04727(14) 0.15048(10) 0.0650 Uani
C2 C 0.28311(18) 0.02715(15) 0.17548(11) 0.0710 Uani
C3 C 0.33937(18) 0.01925(14) 0.13260(10) 0.0687 Uani
C4 C 0.30206(17) -0.13561(14) 0.12962(10) 0.0617 Uani
C5 C 0.32900(16) -0.13013(14) 0.09890(10) 0.0577 Uani
H4 H 0.3353 -0.0985 0.0900 0.0800 Uiso
C6 C 0.34649(14) -0.17148(13) 0.08154(9) 0.0500 Uani
C7 C 0.33737(15) -0.21910(13) 0.09441(9) 0.0527 Uani
H5 H 0.3495 -0.2469 0.0826 0.0800 Uiso
C8 C 0.30980(15) -0.22489(13) 0.12535(9) 0.0520 Uani
C9 C 0.29227(17) -0.18356(14) 0.14259(9) 0.0607 Uani
H6 H 0.2738 -0.1874 0.1630 0.0800 Uiso
C10 C 0.37814(14) -0.16591(13) 0.04940(8) 0.0462 Uani
C11 C 0.30217(16) -0.27580(14) 0.14057(9) 0.0533 Uani
C12 C 0.23421(16) 0.04589(14) 0.22962(10) 0.0597 Uani
C13 C 0.23176(15) -0.00164(13) 0.24425(10) 0.0580 Uani
H7 H 0.2468 -0.0284 0.2330 0.0800 Uiso
C14 C 0.20638(13) -0.00872(13) 0.27596(9) 0.0475 Uani
C15 C 0.18414(13) 0.03079(13) 0.29281(8) 0.0437 Uani
H8 H 0.1675 0.0257 0.3139 0.0800 Uiso
C16 C 0.18655(13) 0.07770(13) 0.27846(9) 0.0480 Uani
C17 C 0.21217(15) 0.08505(13) 0.24709(10) 0.0520 Uani
H9 H 0.2144 0.1170 0.2378 0.0800 Uiso
C18 C 0.20606(14) -0.05967(13) 0.29257(9) 0.0465 Uani
C19 C 0.16616(13) 0.12187(14) 0.29728(9) 0.0477 Uani
C20 C 0.39458(16) 0.08551(13) 0.10653(10) 0.0567 Uani
C21 C 0.37867(15) 0.12665(14) 0.12599(10) 0.0550 Uani
H10 H 0.3551 0.1230 0.1437 0.0800 Uiso
C22 C 0.39874(13) 0.17323(13) 0.11846(9) 0.0493 Uani
C23 C 0.43407(14) 0.17937(13) 0.09228(9) 0.0527 Uani
H11 H 0.4465 0.2108 0.0870 0.0800 Uiso
C24 C 0.45069(14) 0.13734(14) 0.07399(9) 0.0507 Uani
C25 C 0.43045(15) 0.09117(13) 0.08103(9) 0.0553 Uani
H12 H 0.4412 0.0635 0.0684 0.0800 Uiso
C26 C 0.38301(13) 0.21779(14) 0.13951(10) 0.0503 Uani
C27 C 0.49077(14) 0.14349(14) 0.04726(9) 0.0507 Uani
Zn2A Zn 0.880954(13) -0.170901(13) 0.355307(9) 0.0367 Uani
Zn4A Zn 0.836603(13) -0.235652(13) 0.299090(9) 0.0359 Uani
O1A O 0.61545(10) 0.12291(9) 0.03775(6) 0.0572 Uani
O3A O 0.60245(11) 0.20455(10) 0.03716(7) 0.0658 Uani
O5A O 0.91861(13) -0.13471(13) 0.39194(8) 0.0893 Uani
O6A O 0.67892(12) 0.31146(10) 0.12502(7) 0.0684 Uani
O7A O 0.79750(13) -0.26717(12) 0.26052(8) 0.0867 Uani
O8A O 0.72316(11) 0.27831(10) 0.16783(6) 0.0649 Uani
O9A O 0.76763(9) 0.09337(9) 0.27908(7) 0.0551 Uani
O10A O 0.82024(11) 0.06424(9) 0.31954(6) 0.0633 Uani
O11A O 0.85455(11) -0.11391(10) 0.32629(6) 0.0631 Uani
O12A O 0.82881(10) -0.16386(9) 0.28341(7) 0.0587 Uani
O13A O 0.64053(10) -0.21002(9) 0.16730(7) 0.0593 Uani
O14A O 0.60431(11) -0.25918(10) 0.12801(8) 0.0675 Uani
O15A O 0.49936(12) -0.18595(11) 0.03718(8) 0.0734 Uani
O16A O 0.48781(10) -0.10479(10) 0.03702(7) 0.0644 Uani
N1A N 0.66979(14) 0.03018(12) 0.12907(9) 0.0686 Uani
N2A N 0.72886(15) 0.02075(12) 0.17477(9) 0.0731 Uani
N3A N 0.68378(16) -0.04970(11) 0.15428(9) 0.0737 Uani
N4A N 0.71717(15) 0.09563(12) 0.14984(9) 0.0730 Uani
H1A H 0.7411 0.1034 0.1638 0.0800 Uiso
N5A N 0.73772(17) -0.05756(12) 0.19987(10) 0.0872 Uani
H2A H 0.7329 -0.0889 0.1965 0.0800 Uiso
N6A N 0.62430(15) -0.03672(12) 0.11084(9) 0.0731 Uani
H3A H 0.6107 -0.0146 0.0977 0.0800 Uiso
C1A C 0.70356(17) 0.04727(14) 0.15048(10) 0.0650 Uani
C2A C 0.71689(18) -0.02715(15) 0.17548(11) 0.0710 Uani
C3A C 0.66063(18) -0.01925(14) 0.13260(10) 0.0687 Uani
C4A C 0.69794(17) 0.13561(14) 0.12962(10) 0.0617 Uani
C5A C 0.67100(16) 0.13013(14) 0.09890(10) 0.0577 Uani
H4A H 0.6647 0.0985 0.0900 0.0800 Uiso
C6A C 0.65351(14) 0.17148(13) 0.08154(9) 0.0500 Uani
C7A C 0.66263(15) 0.21910(13) 0.09441(9) 0.0527 Uani
H5A H 0.6505 0.2469 0.0826 0.0800 Uiso
C8A C 0.69020(15) 0.22489(13) 0.12535(9) 0.0520 Uani
C9A C 0.70773(17) 0.18356(14) 0.14259(9) 0.0607 Uani
H6A H 0.7262 0.1874 0.1630 0.0800 Uiso
C10A C 0.62186(14) 0.16591(13) 0.04940(8) 0.0462 Uani
C11A C 0.69783(16) 0.27580(14) 0.14057(9) 0.0533 Uani
C12A C 0.76579(16) -0.04589(14) 0.22962(10) 0.0597 Uani
C13A C 0.76824(15) 0.00164(13) 0.24425(10) 0.0580 Uani
H7A H 0.7532 0.0284 0.2330 0.0800 Uiso
C14A C 0.79362(13) 0.00872(13) 0.27596(9) 0.0475 Uani
C15A C 0.81586(13) -0.03079(13) 0.29281(8) 0.0437 Uani
H8A H 0.8325 -0.0257 0.3139 0.0800 Uiso
C16A C 0.81345(13) -0.07770(13) 0.27846(9) 0.0480 Uani
C17A C 0.78783(15) -0.08505(13) 0.24709(10) 0.0520 Uani
H9A H 0.7856 -0.1170 0.2378 0.0800 Uiso
C18A C 0.79394(14) 0.05967(13) 0.29257(9) 0.0465 Uani
C19A C 0.83384(13) -0.12187(14) 0.29728(9) 0.0477 Uani
C20A C 0.60542(16) -0.08551(13) 0.10653(10) 0.0567 Uani
C21A C 0.62133(15) -0.12665(14) 0.12599(10) 0.0550 Uani
H10A H 0.6449 -0.1230 0.1437 0.0800 Uiso
C22A C 0.60126(13) -0.17323(13) 0.11846(9) 0.0493 Uani
C23A C 0.56593(14) -0.17937(13) 0.09228(9) 0.0527 Uani
H11A H 0.5535 -0.2108 0.0870 0.0800 Uiso
C24A C 0.54931(14) -0.13734(14) 0.07399(9) 0.0507 Uani
C25A C 0.56955(15) -0.09117(13) 0.08103(9) 0.0553 Uani
H12A H 0.5588 -0.0635 0.0684 0.0800 Uiso
C26A C 0.61699(13) -0.21779(14) 0.13951(10) 0.0503 Uani
C27A C 0.50923(14) -0.14349(14) 0.04726(9) 0.0507 Uani
Zn1A Zn 0.54965(2) 0.209596(18) 0.0000 0.0370 Uani
Zn2B Zn 0.829099(13) 0.119046(13) 0.355307(9) 0.0367 Uani
Zn2C Zn 0.170901(13) -0.119046(13) 0.355307(9) 0.0367 Uani
Zn2L Zn 0.380954(13) 0.329099(13) 0.144693(9) 0.0367 Uani
Zn2M Zn 0.619046(13) -0.329099(13) 0.144693(9) 0.0367 Uani
Zn2N Zn 0.670901(13) 0.380954(13) 0.144693(9) 0.0367 Uani
Zn2O Zn 0.329099(13) -0.380954(13) 0.144693(9) 0.0367 Uani
Zn3A Zn 0.56728(2) 0.100089(18) 0.0000 0.0363 Uani
Zn4B Zn 0.764348(13) 0.163397(13) 0.299090(9) 0.0359 Uani
Zn4C Zn 0.235652(13) -0.163397(13) 0.299090(9) 0.0359 Uani
Zn4L Zn 0.336603(13) 0.264348(13) 0.200910(9) 0.0359 Uani
Zn4M Zn 0.663397(13) -0.264348(13) 0.200910(9) 0.0359 Uani
Zn4N Zn 0.735652(13) 0.336603(13) 0.200910(9) 0.0359 Uani
Zn4O Zn 0.264348(13) -0.336603(13) 0.200910(9) 0.0359 Uani
O1I O 0.38455(10) -0.12291(9) -0.03775(6) 0.0572 Uani
O3I O 0.39755(11) -0.20455(10) -0.03716(7) 0.0658 Uani
O6N O 0.18854(10) 0.17892(12) 0.37498(7) 0.0684 Uani
O6O O 0.81146(10) -0.17892(12) 0.37498(7) 0.0684 Uani
O8N O 0.22169(10) 0.22316(11) 0.33217(6) 0.0649 Uani
O8O O 0.77831(10) -0.22316(11) 0.33217(6) 0.0649 Uani
O9B O 0.09337(9) 0.23237(9) 0.27908(7) 0.0551 Uani
O9C O 0.90663(9) -0.23237(9) 0.27908(7) 0.0551 Uani
O10B O 0.06424(9) 0.17976(11) 0.31954(6) 0.0633 Uani
O10C O 0.93576(9) -0.17976(11) 0.31954(6) 0.0633 Uani
O13L O 0.14053(10) 0.28998(9) 0.33270(7) 0.0593 Uani
O13M O 0.85947(10) -0.28998(9) 0.33270(7) 0.0593 Uani
O14L O 0.10431(11) 0.24082(10) 0.37199(8) 0.0675 Uani
O14M O 0.89569(11) -0.24082(10) 0.37199(8) 0.0675 Uani
O15H O 0.49936(12) -0.18595(11) -0.03718(8) 0.0734 Uani
O16H O 0.48781(10) -0.10479(10) -0.03702(7) 0.0644 Uani
O17 O 0.45313(15) 0.96786(13) 0.08842(9) 0.1010 Uani
O18 O 0.0000 0.0000 0.3990(3) 0.0637 Uani
O19 O 0.2086(2) 0.8667(2) 0.19925(15) 0.1347 Uani
loop_
_atom_site_aniso_label
_atom_site_aniso_U_11
_atom_site_aniso_U_22
_atom_site_aniso_U_33
_atom_site_aniso_U_23
_atom_site_aniso_U_13
_atom_site_aniso_U_12
Zn1 0.0476(3) 0.0214(3) 0.0420(3) 0.000 0.000 -0.0011(2)
Zn2 0.0330(2) 0.0333(2) 0.0439(2) 0.00792(15) 0.00703(15) 0.00238(15)
Zn3 0.0465(3) 0.0221(3) 0.0404(3) 0.000 0.000 0.0001(2)
Zn4 0.0315(2) 0.0318(2) 0.0443(2) 0.00665(14) 0.00533(14) 0.00227(15)
O1 0.0683(18) 0.0479(16) 0.0555(15) 0.0049(11) 0.0167(12) -0.0013(13)
O2 0.154(5) 0.027(2) 0.106(3) 0.000 0.000 0.003(3)
O3 0.088(2) 0.0420(15) 0.0675(17) -0.0039(12) 0.0289(15) -0.0020(14)
O4 0.134(5) 0.024(2) 0.146(4) 0.000 0.000 0.014(2)
O5 0.108(3) 0.084(2) 0.076(2) 0.0191(17) 0.0366(18) -0.025(2)
O6 0.093(2) 0.0378(15) 0.0743(17) 0.0043(13) 0.0198(16) 0.0023(15)
O7 0.096(3) 0.074(2) 0.090(2) 0.0373(17) 0.0277(18) 0.0015(18)
O8 0.090(2) 0.0481(16) 0.0565(16) 0.0035(12) 0.0178(14) -0.0147(15)
O9 0.0521(16) 0.0392(14) 0.0741(16) 0.0079(12) 0.0136(12) 0.0041(12)
O10 0.086(2) 0.0422(15) 0.0618(16) 0.0041(12) 0.0212(15) -0.0029(14)
O11 0.079(2) 0.0504(16) 0.0598(15) 0.0018(12) 0.0219(14) 0.0146(14)
O12 0.0634(17) 0.0335(14) 0.0791(17) -0.0003(12) 0.0206(14) 0.0051(12)
O13 0.0658(18) 0.0429(15) 0.0691(17) -0.0081(12) 0.0112(14) 0.0078(13)
O14 0.0715(19) 0.0351(15) 0.096(2) -0.0077(14) 0.0273(16) 0.0000(13)
O15 0.083(2) 0.0536(18) 0.0835(19) 0.0014(15) 0.0351(16) -0.0050(16)
O16 0.0646(18) 0.0546(17) 0.0741(17) -0.0081(13) 0.0259(14) -0.0063(14)
N1 0.095(3) 0.0409(18) 0.070(2) -0.0037(15) 0.0410(19) -0.0085(18)
N2 0.107(3) 0.0403(19) 0.072(2) -0.0059(15) 0.044(2) -0.0097(19)
N3 0.107(3) 0.0380(18) 0.076(2) -0.0036(16) 0.051(2) -0.0037(19)
N4 0.111(3) 0.0349(18) 0.073(2) -0.0087(15) 0.047(2) -0.0125(19)
N5 0.136(4) 0.0276(17) 0.098(3) -0.0018(16) 0.071(3) -0.004(2)
N6 0.102(3) 0.0403(18) 0.077(2) -0.0102(16) 0.049(2) -0.0152(19)
C1 0.091(3) 0.038(2) 0.066(2) -0.0063(17) 0.035(2) -0.009(2)
C2 0.094(4) 0.039(2) 0.080(3) -0.0002(19) 0.041(2) -0.005(2)
C3 0.103(4) 0.035(2) 0.068(2) -0.0011(18) 0.035(2) -0.007(2)
C4 0.089(3) 0.036(2) 0.060(2) -0.0029(16) 0.025(2) -0.011(2)
C5 0.078(3) 0.040(2) 0.055(2) 0.0019(16) 0.0216(19) -0.0073(19)
C6 0.060(2) 0.040(2) 0.050(2) 0.0001(15) 0.0100(16) -0.0030(17)
C7 0.062(2) 0.041(2) 0.055(2) -0.0019(16) 0.0039(17) -0.0003(18)
C8 0.064(2) 0.040(2) 0.052(2) 0.0026(15) 0.0119(17) -0.0134(18)
C9 0.083(3) 0.042(2) 0.057(2) -0.0049(16) 0.022(2) -0.014(2)
C10 0.055(2) 0.044(2) 0.0395(18) -0.0024(15) 0.0023(15) -0.0078(17)
C11 0.071(3) 0.039(2) 0.050(2) 0.0002(16) 0.0036(18) -0.0102(19)
C12 0.073(3) 0.038(2) 0.068(2) -0.0008(17) 0.030(2) -0.0060(19)
C13 0.071(3) 0.037(2) 0.066(2) -0.0072(17) 0.027(2) -0.0028(18)
C14 0.046(2) 0.0404(19) 0.056(2) -0.0024(15) 0.0063(16) -0.0049(16)
C15 0.0407(19) 0.0408(19) 0.0497(19) 0.0005(14) 0.0057(14) -0.0007(15)
C16 0.044(2) 0.042(2) 0.058(2) 0.0019(15) 0.0091(16) 0.0001(16)
C17 0.061(2) 0.0329(18) 0.062(2) -0.0031(15) 0.0190(18) -0.0024(16)
C18 0.047(2) 0.0355(19) 0.057(2) 0.0007(15) -0.0013(16) -0.0079(16)
C19 0.0392(19) 0.047(2) 0.057(2) -0.0027(16) 0.0061(16) 0.0037(16)
C20 0.072(3) 0.035(2) 0.063(2) 0.0002(16) 0.0217(19) -0.0030(18)
C21 0.063(3) 0.043(2) 0.059(2) -0.0007(16) 0.0179(18) 0.0016(18)
C22 0.047(2) 0.041(2) 0.060(2) -0.0042(16) 0.0110(16) -0.0004(16)
C23 0.051(2) 0.042(2) 0.065(2) -0.0030(16) 0.0067(17) -0.0032(17)
C24 0.054(2) 0.047(2) 0.051(2) -0.0040(16) 0.0113(16) -0.0049(17)
C25 0.066(3) 0.040(2) 0.060(2) -0.0071(16) 0.0193(18) -0.0017(18)
C26 0.039(2) 0.043(2) 0.069(2) -0.0084(17) 0.0031(17) 0.0050(16)
C27 0.049(2) 0.049(2) 0.054(2) -0.0031(17) 0.0063(16) -0.0030(18)
Zn2A 0.033 0.0333 0.0439 -0.00792 -0.00703 0.00238
Zn4A 0.0315 0.0318 0.0443 -0.00665 -0.00533 0.00227
O1A 0.0683 0.0479 0.0555 -0.0049 -0.0167 -0.0013
O3A 0.088 0.042 0.0675 0.0039 -0.0289 -0.002
O5A 0.108 0.084 0.076 -0.0191 -0.0366 -0.025
O6A 0.093 0.0378 0.0743 -0.0043 -0.0198 0.0023
O7A 0.096 0.074 0.09 -0.0373 -0.0277 0.0015
O8A 0.09 0.0481 0.0565 -0.0035 -0.0178 -0.0147
O9A 0.0521 0.0392 0.0741 -0.0079 -0.0136 0.0041
O10A 0.086 0.0422 0.0618 -0.0041 -0.0212 -0.0029
O11A 0.079 0.0504 0.0598 -0.0018 -0.0219 0.0146
O12A 0.0634 0.0335 0.0791 0.0003 -0.0206 0.0051
O13A 0.0658 0.0429 0.0691 0.0081 -0.0112 0.0078
O14A 0.0715 0.0351 0.096 0.0077 -0.0273 0
O15A 0.083 0.0536 0.0835 -0.0014 -0.0351 -0.005
O16A 0.0646 0.0546 0.0741 0.0081 -0.0259 -0.0063
N1A 0.095 0.0409 0.07 0.0037 -0.041 -0.0085
N2A 0.107 0.0403 0.072 0.0059 -0.044 -0.0097
N3A 0.107 0.038 0.076 0.0036 -0.051 -0.0037
N4A 0.111 0.0349 0.073 0.0087 -0.047 -0.0125
N5A 0.136 0.0276 0.098 0.0018 -0.071 -0.004
N6A 0.102 0.0403 0.077 0.0102 -0.049 -0.0152
C1A 0.091 0.038 0.066 0.0063 -0.035 -0.009
C2A 0.094 0.039 0.08 0.0002 -0.041 -0.005
C3A 0.103 0.035 0.068 0.0011 -0.035 -0.007
C4A 0.089 0.036 0.06 0.0029 -0.025 -0.011
C5A 0.078 0.04 0.055 -0.0019 -0.0216 -0.0073
C6A 0.06 0.04 0.05 -0.0001 -0.01 -0.003
C7A 0.062 0.041 0.055 0.0019 -0.0039 -0.0003
C8A 0.064 0.04 0.052 -0.0026 -0.0119 -0.0134
C9A 0.083 0.042 0.057 0.0049 -0.022 -0.014
C10A 0.055 0.044 0.0395 0.0024 -0.0023 -0.0078
C11A 0.071 0.039 0.05 -0.0002 -0.0036 -0.0102
C12A 0.073 0.038 0.068 0.0008 -0.03 -0.006
C13A 0.071 0.037 0.066 0.0072 -0.027 -0.0028
C14A 0.046 0.0404 0.056 0.0024 -0.0063 -0.0049
C15A 0.0407 0.0408 0.0497 -0.0005 -0.0057 -0.0007
C16A 0.044 0.042 0.058 -0.0019 -0.0091 0.0001
C17A 0.061 0.0329 0.062 0.0031 -0.019 -0.0024
C18A 0.047 0.0355 0.057 -0.0007 0.0013 -0.0079
C19A 0.0392 0.047 0.057 0.0027 -0.0061 0.0037
C20A 0.072 0.035 0.063 -0.0002 -0.0217 -0.003
C21A 0.063 0.043 0.059 0.0007 -0.0179 0.0016
C22A 0.047 0.041 0.06 0.0042 -0.011 -0.0004
C23A 0.051 0.042 0.065 0.003 -0.0067 -0.0032
C24A 0.054 0.047 0.051 0.004 -0.0113 -0.0049
C25A 0.066 0.04 0.06 0.0071 -0.0193 -0.0017
C26A 0.039 0.043 0.069 0.0084 -0.0031 0.005
C27A 0.049 0.049 0.054 0.0031 -0.0063 -0.003
Zn1A 0.0476 0.0214 0.042 0 0 -0.0011
Zn2B 0.0333 0.033 0.0439 0.00703 -0.00792 -0.00238
Zn2C 0.0333 0.033 0.0439 -0.00703 0.00792 -0.00238
Zn2L 0.033 0.0333 0.0439 0.00792 0.00703 0.00238
Zn2M 0.033 0.0333 0.0439 -0.00792 -0.00703 0.00238
Zn2N 0.0333 0.033 0.0439 0.00703 -0.00792 -0.00238
Zn2O 0.0333 0.033 0.0439 -0.00703 0.00792 -0.00238
Zn3A 0.0465 0.0221 0.0404 0 0 0.0001
Zn4B 0.0318 0.0315 0.0443 0.00533 -0.00665 -0.00227
Zn4C 0.0318 0.0315 0.0443 -0.00533 0.00665 -0.00227
Zn4L 0.0315 0.0318 0.0443 0.00665 0.00533 0.00227
Zn4M 0.0315 0.0318 0.0443 -0.00665 -0.00533 0.00227
Zn4N 0.0318 0.0315 0.0443 0.00533 -0.00665 -0.00227
Zn4O 0.0318 0.0315 0.0443 -0.00533 0.00665 -0.00227
O1I 0.0683 0.0479 0.0555 -0.0049 -0.0167 -0.0013
O3I 0.088 0.042 0.0675 0.0039 -0.0289 -0.002
O6N 0.0378 0.093 0.0743 0.0198 -0.0043 -0.0023
O6O 0.0378 0.093 0.0743 -0.0198 0.0043 -0.0023
O8N 0.0481 0.09 0.0565 0.0178 -0.0035 0.0147
O8O 0.0481 0.09 0.0565 -0.0178 0.0035 0.0147
O9B 0.0392 0.0521 0.0741 0.0136 -0.0079 -0.0041
O9C 0.0392 0.0521 0.0741 -0.0136 0.0079 -0.0041
O10B 0.0422 0.086 0.0618 0.0212 -0.0041 0.0029
O10C 0.0422 0.086 0.0618 -0.0212 0.0041 0.0029
O13L 0.0658 0.0429 0.0691 -0.0081 0.0112 0.0078
O13M 0.0658 0.0429 0.0691 0.0081 -0.0112 0.0078
O14L 0.0715 0.0351 0.096 -0.0077 0.0273 0
O14M 0.0715 0.0351 0.096 0.0077 -0.0273 0
O15H 0.083 0.0536 0.0835 0.0014 0.0351 -0.005
O16H 0.0646 0.0546 0.0741 -0.0081 0.0259 -0.0063
O17 0.121(3) 0.073(2) 0.109(3) -0.0267(19) 0.008(2) 0.024(2)
O18 0.045(4) 0.045(4) 0.101(8) 0.000 0.000 0.000
O19 0.165(6) 0.087(4) 0.152(5) 0.033(3) 0.113(4) 0.019(4)
loop_
_geom_bond_atom_site_label_1
_geom_bond_atom_site_label_2
_geom_bond_site_symmetry_1
_geom_bond_site_symmetry_2
Zn1 O3 1_555 1_555
Zn2 O5 1_555 1_555
Zn3 O1 1_555 1_555
Zn4 O7 1_555 1_555
O1 C10 1_555 1_555
O2 Zn3 1_555 1_555
O3 C10 1_555 1_555
O4 Zn1 1_555 1_555
O6 C11 1_555 1_555
O8 C11 1_555 1_555
O9 C18 1_555 1_555
O10 C18 1_555 1_555
O11 Zn2 1_555 1_555
O12 Zn4 1_555 1_555
O13 C26 1_555 1_555
O14 C26 1_555 1_555
O15 C27 1_555 1_555
O16 C27 1_555 1_555
N1 C1 1_555 1_555
N2 C1 1_555 1_555
N3 C2 1_555 1_555
N4 H1 1_555 1_555
N5 H2 1_555 1_555
N6 H3 1_555 1_555
C1 N4 1_555 1_555
C2 N2 1_555 1_555
C3 N1 1_555 1_555
C4 N4 1_555 1_555
C5 C4 1_555 1_555
H4 C5 1_555 1_555
C6 C5 1_555 1_555
C7 C6 1_555 1_555
H5 C7 1_555 1_555
C8 C7 1_555 1_555
C9 C4 1_555 1_555
H6 C9 1_555 1_555
C10 C6 1_555 1_555
C11 C8 1_555 1_555
C12 N5 1_555 1_555
C13 C12 1_555 1_555
H7 C13 1_555 1_555
C14 C13 1_555 1_555
C15 C14 1_555 1_555
H8 C15 1_555 1_555
C16 C15 1_555 1_555
C17 C12 1_555 1_555
H9 C17 1_555 1_555
C18 C14 1_555 1_555
C19 O11 1_555 1_555
C20 N6 1_555 1_555
C21 C20 1_555 1_555
H10 C21 1_555 1_555
C22 C21 1_555 1_555
C23 C22 1_555 1_555
H11 C23 1_555 1_555
C24 C23 1_555 1_555
C25 C20 1_555 1_555
H12 C25 1_555 1_555
C26 C22 1_555 1_555
C27 C24 1_555 1_555
Zn2A O5A 1_555 1_555
Zn4A O7A 1_555 1_555
O1A C10A 1_555 1_555
O3A C10A 1_555 1_555
O6A C11A 1_555 1_555
O8A C11A 1_555 1_555
O9A C18A 1_555 1_555
O10A C18A 1_555 1_555
O11A Zn2A 1_555 1_555
O12A Zn4A 1_555 1_555
O13A C26A 1_555 1_555
O14A C26A 1_555 1_555
O15A Zn1 1_555 1_555
O16A Zn3 1_555 1_555
N1A C1A 1_555 1_555
N2A C1A 1_555 1_555
N3A C2A 1_555 1_555
N4A H1A 1_555 1_555
N5A H2A 1_555 1_555
N6A H3A 1_555 1_555
C1A N4A 1_555 1_555
C2A N2A 1_555 1_555
C3A N1A 1_555 1_555
C4A N4A 1_555 1_555
C5A C4A 1_555 1_555
H4A C5A 1_555 1_555
C6A C5A 1_555 1_555
C7A C6A 1_555 1_555
H5A C7A 1_555 1_555
C8A C7A 1_555 1_555
C9A C4A 1_555 1_555
H6A C9A 1_555 1_555
C10A C6A 1_555 1_555
C11A C8A 1_555 1_555
C12A N5A 1_555 1_555
C13A C12A 1_555 1_555
H7A C13A 1_555 1_555
C14A C13A 1_555 1_555
C15A C14A 1_555 1_555
H8A C15A 1_555 1_555
C16A C15A 1_555 1_555
C17A C12A 1_555 1_555
H9A C17A 1_555 1_555
C18A C14A 1_555 1_555
C19A O11A 1_555 1_555
C20A N6A 1_555 1_555
C21A C20A 1_555 1_555
H10A C21A 1_555 1_555
C22A C21A 1_555 1_555
C23A C22A 1_555 1_555
H11A C23A 1_555 1_555
C24A C23A 1_555 1_555
C25A C20A 1_555 1_555
H12A C25A 1_555 1_555
C26A C22A 1_555 1_555
C27A O15A 1_555 1_555
Zn1A O15 1_555 1_555
Zn2B O10A 1_555 1_555
Zn2C O10 1_555 1_555
Zn2L O14 1_555 1_555
Zn2M O14A 1_555 1_555
Zn2N O6A 1_555 1_555
Zn2O O6 1_555 1_555
Zn3A O16 1_555 1_555
Zn4B O9A 1_555 1_555
Zn4C O9 1_555 1_555
Zn4L O13 1_555 1_555
Zn4M O13A 1_555 1_555
Zn4N O8A 1_555 1_555
Zn4O O8 1_555 1_555
O1I Zn3 1_555 1_555
O3I Zn1 1_555 1_555
O6N Zn2 1_555 1_555
O6O Zn2A 1_555 1_555
O8N Zn4 1_555 1_555
O8O Zn4A 1_555 1_555
O9B Zn4 1_555 1_555
O9C Zn4A 1_555 1_555
O10B Zn2 1_555 1_555
O10C Zn2A 1_555 1_555
O13L Zn4 1_555 1_555
O13M Zn4A 1_555 1_555
O14L Zn2 1_555 1_555
O14M Zn2A 1_555 1_555
O15H Zn1 1_555 1_555
O16H Zn3 1_555 1_555
O12 C19 1_555 1_555
N3 C3 1_555 1_555
N5 C2 1_555 1_555
N6 C3 1_555 1_555
C8 C9 1_555 1_555
C16 C17 1_555 1_555
C16 C19 1_555 1_555
C24 C25 1_555 1_555
O1A Zn3A 1_555 1_555
O3A Zn1A 1_555 1_555
O12A C19A 1_555 1_555
O16A C27A 1_555 1_555
N3A C3A 1_555 1_555
N5A C2A 1_555 1_555
N6A C3A 1_555 1_555
C8A C9A 1_555 1_555
C16A C17A 1_555 1_555
C16A C19A 1_555 1_555
C24A C25A 1_555 1_555
C24A C27A 1_555 1_555

#END
