
#######################################################################
#
#                 Cambridge Crystallographic Data Centre
#                                CCDC 
#
#######################################################################
#
# If this CIF has been generated from an entry in the Cambridge 
# Structural Database, then it will include bibliographic, chemical, 
# crystal, experimental, refinement or atomic coordinate data resulting 
# from the CCDC's data processing and validation procedures.
#
#######################################################################

data_XEDPON
_chemical_formula_moiety         '(C28 H24 N16 O8 Zn4)n'
_symmetry_cell_setting           tetragonal
_symmetry_space_group_name_H-M   'I -4'
_symmetry_Int_Tables_number      82
_space_group_name_Hall           'I -4'
loop_
_symmetry_equiv_pos_site_id
_symmetry_equiv_pos_as_xyz
1 x,y,z
2 y,-x,-z
3 -x,-y,z
4 -y,x,-z
5 1/2+x,1/2+y,1/2+z
6 1/2+y,1/2-x,1/2-z
7 1/2-x,1/2-y,1/2+z
8 1/2-y,1/2+x,1/2-z
_cell_length_a                   15.02(3)
_cell_length_b                   15.02(3)
_cell_length_c                   9.570(19)
_cell_angle_alpha                90
_cell_angle_beta                 90
_cell_angle_gamma                90
_cell_volume                     2159
loop_
_atom_site_label
_atom_site_type_symbol
_atom_site_fract_x
_atom_site_fract_y
_atom_site_fract_z
_atom_site_U_iso_or_equiv
_atom_site_thermal_displace_type
Zn1 Zn -0.32137(6) -0.15392(5) -0.45684(9) 0.0260 Uani
N1 N -0.3190(5) -0.2033(5) -0.2621(7) 0.0300 Uani
C1 C -0.2485(5) -0.2429(6) -0.2010(10) 0.0273 Uani
H1 H -0.1917 -0.2422 -0.2398 0.0330 Uiso
N2 N -0.2669(4) -0.2830(4) -0.0806(7) 0.0277 Uani
C2 C -0.3556(5) -0.2711(5) -0.0612(8) 0.0237 Uani
N3 N -0.4038(4) -0.2992(4) 0.0467(8) 0.0307 Uani
C3 C -0.4884(5) -0.2750(6) 0.0420(10) 0.0327 Uani
H2 H -0.5255 -0.2947 0.1134 0.0390 Uiso
N4 N -0.5252(4) -0.2236(5) -0.0594(8) 0.0330 Uani
C4 C -0.4770(5) -0.1957(6) -0.1689(9) 0.0300 Uani
H3 H -0.5022 -0.1615 -0.2396 0.0360 Uiso
C5 C -0.3869(5) -0.2204(5) -0.1722(8) 0.0257 Uani
O1 O -0.4267(12) -0.1892(12) -0.572(3) 0.1610 Uiso
O2 O -0.4769(12) -0.0794(12) -0.444(2) 0.1530 Uiso
C6 C -0.4797(13) -0.1287(17) -0.549(3) 0.1580 Uiso
C7 C -0.5707(14) -0.133(2) -0.628(3) 0.1520 Uiso
H4 H -0.6042 -0.0801 -0.6099 0.2270 Uiso
H5 H -0.6037 -0.1842 -0.5964 0.2270 Uiso
H6 H -0.5601 -0.1385 -0.7268 0.2270 Uiso
Zn1E Zn -0.65392(5) -0.17863(6) -0.04316(9) 0.0260 Uani
Zn1G Zn -0.34608(5) 0.17863(6) -0.04316(9) 0.0260 Uani
Zn1B Zn -0.67863(6) 0.15392(5) -0.45684(9) 0.0260 Uani
Zn1A Zn -0.15392(5) 0.32137(6) -0.54316(9) 0.0260 Uani
Zn1C Zn -0.84608(5) -0.32137(6) -0.54316(9) 0.0260 Uani
Zn1D Zn -0.82137(6) 0.34608(5) 0.04316(9) 0.0260 Uani
Zn1F Zn -0.17863(6) -0.34608(5) 0.04316(9) 0.0260 Uani
N1E N -0.7033(5) -0.1810(5) -0.2379(7) 0.0300 Uani
N1G N -0.2967(5) 0.1810(5) -0.2379(7) 0.0300 Uani
N1B N -0.6810(5) 0.2033(5) -0.2621(7) 0.0300 Uani
C1E C -0.7429(6) -0.2515(5) -0.2990(10) 0.0273 Uani
C1G C -0.2571(6) 0.2515(5) -0.2990(10) 0.0273 Uani
C1B C -0.7515(5) 0.2429(6) -0.2010(10) 0.0273 Uani
H1E H -0.7422 -0.3083 -0.2602 0.0330 Uiso
H1G H -0.2578 0.3083 -0.2602 0.0330 Uiso
H1B H -0.8083 0.2422 -0.2398 0.0330 Uiso
N2E N -0.7830(4) -0.2331(4) -0.4194(7) 0.0277 Uani
N2G N -0.2170(4) 0.2331(4) -0.4194(7) 0.0277 Uani
N2B N -0.7331(4) 0.2830(4) -0.0806(7) 0.0277 Uani
N2A N -0.2830(4) 0.2669(4) 0.0806(7) 0.0277 Uani
N2C N -0.7170(4) -0.2669(4) 0.0806(7) 0.0277 Uani
N2D N -0.7669(4) 0.2170(4) -0.5806(7) 0.0277 Uani
N2F N -0.2331(4) -0.2170(4) -0.5806(7) 0.0277 Uani
C2E C -0.7711(5) -0.1444(5) -0.4388(8) 0.0237 Uani
C2G C -0.2289(5) 0.1444(5) -0.4388(8) 0.0237 Uani
C2B C -0.6444(5) 0.2711(5) -0.0612(8) 0.0237 Uani
N3E N -0.7992(4) -0.0962(4) -0.5467(8) 0.0307 Uani
N3G N -0.2008(4) 0.0962(4) -0.5467(8) 0.0307 Uani
N3B N -0.5962(4) 0.2992(4) 0.0467(8) 0.0307 Uani
C3E C -0.7750(6) -0.0116(5) -0.5420(10) 0.0327 Uani
C3G C -0.2250(6) 0.0116(5) -0.5420(10) 0.0327 Uani
C3B C -0.5116(5) 0.2750(6) 0.0420(10) 0.0327 Uani
H2E H -0.7947 0.0255 -0.6134 0.0390 Uiso
H2G H -0.2053 -0.0255 -0.6134 0.0390 Uiso
H2B H -0.4745 0.2947 0.1134 0.0390 Uiso
N4E N -0.7236(5) 0.0252(4) -0.4406(8) 0.0330 Uani
N4G N -0.2764(5) -0.0252(4) -0.4406(8) 0.0330 Uani
N4B N -0.4748(4) 0.2236(5) -0.0594(8) 0.0330 Uani
C4E C -0.6957(6) -0.0230(5) -0.3311(9) 0.0300 Uani
C4G C -0.3043(6) 0.0230(5) -0.3311(9) 0.0300 Uani
C4B C -0.5230(5) 0.1957(6) -0.1689(9) 0.0300 Uani
H3E H -0.6615 0.0022 -0.2604 0.0360 Uiso
H3G H -0.3385 -0.0022 -0.2604 0.0360 Uiso
H3B H -0.4978 0.1615 -0.2396 0.0360 Uiso
C5E C -0.7204(5) -0.1131(5) -0.3278(8) 0.0257 Uani
C5G C -0.2796(5) 0.1131(5) -0.3278(8) 0.0257 Uani
C5B C -0.6131(5) 0.2204(5) -0.1722(8) 0.0257 Uani
O1E O -0.6892(12) -0.0733(12) 0.072(3) 0.1610 Uiso
O1G O -0.3108(12) 0.0733(12) 0.072(3) 0.1610 Uiso
O1B O -0.5733(12) 0.1892(12) -0.572(3) 0.1610 Uiso
O2E O -0.5794(12) -0.0231(12) -0.056(2) 0.1530 Uiso
O2G O -0.4206(12) 0.0231(12) -0.056(2) 0.1530 Uiso
O2B O -0.5231(12) 0.0794(12) -0.444(2) 0.1530 Uiso
C6E C -0.6287(17) -0.0203(13) 0.049(3) 0.1580 Uiso
C6G C -0.3713(17) 0.0203(13) 0.049(3) 0.1580 Uiso
C6B C -0.5203(13) 0.1287(17) -0.549(3) 0.1580 Uiso
C7E C -0.633(2) 0.0707(14) 0.128(3) 0.1520 Uiso
C7G C -0.367(2) -0.0707(14) 0.128(3) 0.1520 Uiso
C7B C -0.4293(14) 0.133(2) -0.628(3) 0.1520 Uiso
H4E H -0.5801 0.1042 0.1099 0.2270 Uiso
H4G H -0.4199 -0.1042 0.1099 0.2270 Uiso
H4B H -0.3958 0.0801 -0.6099 0.2270 Uiso
H5E H -0.6842 0.1037 0.0964 0.2270 Uiso
H5G H -0.3158 -0.1037 0.0964 0.2270 Uiso
H5B H -0.3963 0.1842 -0.5964 0.2270 Uiso
H6E H -0.6385 0.0601 0.2268 0.2270 Uiso
H6G H -0.3615 -0.0601 0.2268 0.2270 Uiso
H6B H -0.4399 0.1385 -0.7268 0.2270 Uiso
loop_
_atom_site_aniso_label
_atom_site_aniso_U_11
_atom_site_aniso_U_22
_atom_site_aniso_U_33
_atom_site_aniso_U_23
_atom_site_aniso_U_13
_atom_site_aniso_U_12
Zn1 0.0314(5) 0.0250(5) 0.0215(5) 0.0011(3) 0.0023(3) 0.0027(3)
N1 0.034(3) 0.030(3) 0.026(3) 0.004(3) 0.001(3) 0.000(3)
C1 0.022(3) 0.027(4) 0.033(4) 0.000(3) -0.005(3) 0.003(3)
N2 0.021(3) 0.031(3) 0.031(4) 0.003(3) -0.002(2) 0.001(2)
C2 0.023(3) 0.024(3) 0.024(4) 0.003(3) -0.001(3) 0.000(3)
N3 0.027(3) 0.036(3) 0.029(4) 0.015(3) -0.001(3) -0.004(2)
C3 0.030(4) 0.048(4) 0.020(4) 0.010(4) 0.004(3) 0.001(3)
N4 0.026(3) 0.043(4) 0.030(4) 0.012(3) -0.006(3) 0.002(3)
C4 0.026(4) 0.035(4) 0.029(4) 0.009(3) -0.003(3) 0.000(3)
C5 0.028(4) 0.026(4) 0.023(4) 0.005(3) 0.001(3) 0.004(3)
Zn1E 0.025 0.0314 0.0215 0.0023 -0.0011 -0.0027
Zn1G 0.025 0.0314 0.0215 -0.0023 0.0011 -0.0027
Zn1B 0.0314 0.025 0.0215 -0.0011 -0.0023 0.0027
Zn1A 0.025 0.0314 0.0215 0.0023 -0.0011 -0.0027
Zn1C 0.025 0.0314 0.0215 -0.0023 0.0011 -0.0027
Zn1D 0.0314 0.025 0.0215 0.0011 0.0023 0.0027
Zn1F 0.0314 0.025 0.0215 -0.0011 -0.0023 0.0027
N1E 0.03 0.034 0.026 0.001 -0.004 0
N1G 0.03 0.034 0.026 -0.001 0.004 0
N1B 0.034 0.03 0.026 -0.004 -0.001 0
C1E 0.027 0.022 0.033 -0.005 0 -0.003
C1G 0.027 0.022 0.033 0.005 0 -0.003
C1B 0.022 0.027 0.033 0 0.005 0.003
N2E 0.031 0.021 0.031 -0.002 -0.003 -0.001
N2G 0.031 0.021 0.031 0.002 0.003 -0.001
N2B 0.021 0.031 0.031 -0.003 0.002 0.001
N2A 0.031 0.021 0.031 -0.002 -0.003 -0.001
N2C 0.031 0.021 0.031 0.002 0.003 -0.001
N2D 0.021 0.031 0.031 0.003 -0.002 0.001
N2F 0.021 0.031 0.031 -0.003 0.002 0.001
C2E 0.024 0.023 0.024 -0.001 -0.003 0
C2G 0.024 0.023 0.024 0.001 0.003 0
C2B 0.023 0.024 0.024 -0.003 0.001 0
N3E 0.036 0.027 0.029 -0.001 -0.015 0.004
N3G 0.036 0.027 0.029 0.001 0.015 0.004
N3B 0.027 0.036 0.029 -0.015 0.001 -0.004
C3E 0.048 0.03 0.02 0.004 -0.01 -0.001
C3G 0.048 0.03 0.02 -0.004 0.01 -0.001
C3B 0.03 0.048 0.02 -0.01 -0.004 0.001
N4E 0.043 0.026 0.03 -0.006 -0.012 -0.002
N4G 0.043 0.026 0.03 0.006 0.012 -0.002
N4B 0.026 0.043 0.03 -0.012 0.006 0.002
C4E 0.035 0.026 0.029 -0.003 -0.009 0
C4G 0.035 0.026 0.029 0.003 0.009 0
C4B 0.026 0.035 0.029 -0.009 0.003 0
C5E 0.026 0.028 0.023 0.001 -0.005 -0.004
C5G 0.026 0.028 0.023 -0.001 0.005 -0.004
C5B 0.028 0.026 0.023 -0.005 -0.001 0.004
loop_
_geom_bond_atom_site_label_1
_geom_bond_atom_site_label_2
_geom_bond_site_symmetry_1
_geom_bond_site_symmetry_2
Zn1 N1 1_555 1_555
N1 C1 1_555 1_555
C1 H1 1_555 1_555
N2 C1 1_555 1_555
C2 N2 1_555 1_555
N3 C2 1_555 1_555
C3 N3 1_555 1_555
H2 C3 1_555 1_555
N4 C3 1_555 1_555
C4 N4 1_555 1_555
H3 C4 1_555 1_555
C5 N1 1_555 1_555
O1 Zn1 1_555 1_555
O2 C6 1_555 1_555
C6 O1 1_555 1_555
C7 C6 1_555 1_555
H4 C7 1_555 1_555
H5 C7 1_555 1_555
H6 C7 1_555 1_555
Zn1E N4 1_555 1_555
Zn1G N1G 1_555 1_555
Zn1B N1B 1_555 1_555
Zn1A N2G 1_555 1_555
Zn1C N2E 1_555 1_555
Zn1D N2B 1_555 1_555
Zn1F N2 1_555 1_555
N1E Zn1E 1_555 1_555
N1G C1G 1_555 1_555
N1B C1B 1_555 1_555
C1E N1E 1_555 1_555
C1G H1G 1_555 1_555
C1B H1B 1_555 1_555
H1E C1E 1_555 1_555
N2E C1E 1_555 1_555
N2G C1G 1_555 1_555
N2B C1B 1_555 1_555
N2A Zn1G 1_555 1_555
N2C Zn1E 1_555 1_555
N2D Zn1B 1_555 1_555
N2F Zn1 1_555 1_555
C2E N2E 1_555 1_555
C2G N2G 1_555 1_555
C2B N2B 1_555 1_555
N3E C2E 1_555 1_555
N3G C2G 1_555 1_555
N3B C2B 1_555 1_555
C3E N3E 1_555 1_555
C3G N3G 1_555 1_555
C3B N3B 1_555 1_555
H2E C3E 1_555 1_555
H2G C3G 1_555 1_555
H2B C3B 1_555 1_555
N4E Zn1B 1_555 1_555
N4G Zn1 1_555 1_555
N4B Zn1G 1_555 1_555
C4E N4E 1_555 1_555
C4G N4G 1_555 1_555
C4B N4B 1_555 1_555
H3E C4E 1_555 1_555
H3G C4G 1_555 1_555
H3B C4B 1_555 1_555
C5E N1E 1_555 1_555
C5G N1G 1_555 1_555
C5B N1B 1_555 1_555
O1E Zn1E 1_555 1_555
O1G Zn1G 1_555 1_555
O1B Zn1B 1_555 1_555
O2E C6E 1_555 1_555
O2G C6G 1_555 1_555
O2B C6B 1_555 1_555
C6E O1E 1_555 1_555
C6G O1G 1_555 1_555
C6B O1B 1_555 1_555
C7E C6E 1_555 1_555
C7G C6G 1_555 1_555
C7B C6B 1_555 1_555
H4E C7E 1_555 1_555
H4G C7G 1_555 1_555
H4B C7B 1_555 1_555
H5E C7E 1_555 1_555
H5G C7G 1_555 1_555
H5B C7B 1_555 1_555
H6E C7E 1_555 1_555
H6G C7G 1_555 1_555
H6B C7B 1_555 1_555
C2 C5 1_555 1_555
C4 C5 1_555 1_555
C2E C5E 1_555 1_555
C2G C5G 1_555 1_555
C2B C5B 1_555 1_555
C3E N4E 1_555 1_555
C3G N4G 1_555 1_555
C3B N4B 1_555 1_555
C4E C5E 1_555 1_555
C4G C5G 1_555 1_555
C4B C5B 1_555 1_555

#END
