
#######################################################################
#
#                 Cambridge Crystallographic Data Centre
#                                CCDC 
#
#######################################################################
#
# If this CIF has been generated from an entry in the Cambridge 
# Structural Database, then it will include bibliographic, chemical, 
# crystal, experimental, refinement or atomic coordinate data resulting 
# from the CCDC's data processing and validation procedures.
#
#######################################################################

data_XEDPIH
_chemical_formula_moiety         '(C23 H19 Br4 N17 O1 Zn4)n'
_symmetry_cell_setting           monoclinic
_symmetry_space_group_name_H-M   'P 21/n'
_symmetry_Int_Tables_number      14
_space_group_name_Hall           '-P 2yn'
loop_
_symmetry_equiv_pos_site_id
_symmetry_equiv_pos_as_xyz
1 x,y,z
2 1/2-x,1/2+y,1/2-z
3 -x,-y,-z
4 1/2+x,1/2-y,1/2+z
_cell_length_a                   13.636(7)
_cell_length_b                   10.209(5)
_cell_length_c                   14.124(7)
_cell_angle_alpha                90
_cell_angle_beta                 91.568(9)
_cell_angle_gamma                90
_cell_volume                     1965.46
loop_
_atom_site_label
_atom_site_type_symbol
_atom_site_fract_x
_atom_site_fract_y
_atom_site_fract_z
_atom_site_U_iso_or_equiv
_atom_site_thermal_displace_type
Zn1 Zn 0.66254(5) 0.08513(6) 0.67327(4) 0.0169 Uani
Zn2 Zn 0.69209(5) 0.50397(6) 0.34538(4) 0.0167 Uani
Br1 Br 0.50471(5) -0.00700(7) 0.67659(6) 0.0363 Uani
Br2 Br 0.72864(6) 0.59107(7) 0.49590(5) 0.0380 Uani
N1 N 0.7072(4) 0.1003(5) 0.5360(4) 0.0231 Uani
N2 N 0.7564(4) -0.0155(5) 0.3975(4) 0.0230 Uani
N3 N 0.7639(4) 0.1210(4) 0.2579(3) 0.0167 Uani
N4 N 0.7249(4) 0.3149(5) 0.3272(3) 0.0200 Uani
N5 N 0.4579(4) 0.4894(5) 0.6771(4) 0.0224 Uani
N6 N 0.5980(4) 0.6037(5) 0.7408(4) 0.0244 Uani
N7 N 0.7397(3) 0.4651(4) 0.7657(3) 0.0177 Uani
N8 N 0.6719(4) 0.2735(4) 0.7135(4) 0.0194 Uani
C1 C 0.7339(5) -0.0095(6) 0.4886(4) 0.0243 Uani
H1 H 0.7368 -0.0889 0.5236 0.0290 Uiso
C2 C 0.7499(4) 0.0988(5) 0.3524(4) 0.0173 Uani
C3 C 0.7479(5) 0.2520(6) 0.2481(5) 0.0214 Uani
H2 H 0.7528 0.2956 0.1890 0.0260 Uiso
C4 C 0.7247(4) 0.2178(5) 0.3957(4) 0.0180 Uani
C5 C 0.7029(5) 0.2154(6) 0.4898(4) 0.0223 Uani
H3 H 0.6851 0.2934 0.5218 0.0270 Uiso
C6 C 0.5054(5) 0.5982(6) 0.7091(5) 0.0267 Uani
H4 H 0.4692 0.6777 0.7089 0.0320 Uiso
C7 C 0.6446(4) 0.4889(6) 0.7375(4) 0.0187 Uani
C8 C 0.7512(5) 0.3356(6) 0.7496(4) 0.0191 Uani
H5 H 0.8113 0.2915 0.7628 0.0230 Uiso
C9 C 0.6018(4) 0.3709(5) 0.7055(4) 0.0197 Uani
C10 C 0.5058(4) 0.3747(6) 0.6736(4) 0.0206 Uani
H6 H 0.4741 0.2982 0.6497 0.0250 Uiso
Zn1B Zn 0.33746(5) 0.91487(6) 0.32673(4) 0.0169 Uani
Zn1A Zn 0.83746(5) 0.58513(6) 0.82673(4) 0.0169 Uani
Zn1C Zn 0.16254(5) 0.41487(6) 0.17327(4) 0.0169 Uani
Zn2B Zn 0.30791(5) 0.49603(6) 0.65462(4) 0.0167 Uani
Zn2A Zn 0.80791(5) 0.00397(6) 0.15462(4) 0.0167 Uani
Zn2C Zn 0.19209(5) 0.99603(6) 0.84538(4) 0.0167 Uani
Br1B Br 0.49529(5) 1.00700(7) 0.32341(6) 0.0363 Uani
Br2B Br 0.27136(6) 0.40893(7) 0.50410(5) 0.0380 Uani
N1B N 0.2928(4) 0.8997(5) 0.4640(4) 0.0231 Uani
N2B N 0.2436(4) 1.0155(5) 0.6025(4) 0.0230 Uani
N3B N 0.2361(4) 0.8790(4) 0.7421(3) 0.0167 Uani
N3A N 0.7361(4) 0.6210(4) 0.2421(3) 0.0167 Uani
N3C N 0.2639(4) 0.3790(4) 0.7579(3) 0.0167 Uani
N4B N 0.2751(4) 0.6851(5) 0.6728(3) 0.0200 Uani
N5B N 0.5421(4) 0.5106(5) 0.3229(4) 0.0224 Uani
N6B N 0.4020(4) 0.3963(5) 0.2592(4) 0.0244 Uani
N7B N 0.2603(3) 0.5349(4) 0.2343(3) 0.0177 Uani
N7A N 0.7603(3) -0.0349(4) 0.7343(3) 0.0177 Uani
N7C N 0.2397(3) 1.0349(4) 0.2657(3) 0.0177 Uani
N8B N 0.3281(4) 0.7265(4) 0.2865(4) 0.0194 Uani
C1B C 0.2661(5) 1.0095(6) 0.5114(4) 0.0243 Uani
H1B H 0.2632 1.0889 0.4764 0.0290 Uiso
C2B C 0.2501(4) 0.9012(5) 0.6476(4) 0.0173 Uani
C3B C 0.2521(5) 0.7480(6) 0.7519(5) 0.0214 Uani
H2B H 0.2472 0.7044 0.8110 0.0260 Uiso
C4B C 0.2753(4) 0.7822(5) 0.6043(4) 0.0180 Uani
C5B C 0.2971(5) 0.7846(6) 0.5102(4) 0.0223 Uani
H3B H 0.3149 0.7066 0.4782 0.0270 Uiso
C6B C 0.4946(5) 0.4018(6) 0.2909(5) 0.0267 Uani
H4B H 0.5308 0.3223 0.2911 0.0320 Uiso
C7B C 0.3554(4) 0.5111(6) 0.2625(4) 0.0187 Uani
C8B C 0.2488(5) 0.6644(6) 0.2504(4) 0.0191 Uani
H5B H 0.1887 0.7085 0.2372 0.0230 Uiso
C9B C 0.3982(4) 0.6291(5) 0.2945(4) 0.0197 Uani
C10B C 0.4942(4) 0.6253(6) 0.3264(4) 0.0206 Uani
H6B H 0.5259 0.7018 0.3503 0.0250 Uiso
O1 O 0.5085(19) 0.430(3) 0.904(2) 0.1350 Uiso
N9 N 0.4821(10) 0.2442(15) 0.9853(10) 0.0470 Uiso
C11 C 0.4915(19) 0.377(3) 0.985(2) 0.0860 Uiso
H7 H 0.4858 0.4281 1.0410 0.1030 Uiso
C12 C 0.4839(14) 0.1734(18) 0.9024(13) 0.0520 Uiso
H8 H 0.4647 0.2300 0.8491 0.0780 Uiso
H9 H 0.4380 0.0998 0.9060 0.0780 Uiso
H10 H 0.5504 0.1399 0.8933 0.0780 Uiso
C13 C 0.4664(14) 0.1848(19) 1.0754(13) 0.0560 Uiso
H11 H 0.4018 0.2104 1.0979 0.0830 Uiso
H12 H 0.5173 0.2141 1.1209 0.0830 Uiso
H13 H 0.4693 0.0893 1.0691 0.0830 Uiso
loop_
_atom_site_aniso_label
_atom_site_aniso_U_11
_atom_site_aniso_U_22
_atom_site_aniso_U_33
_atom_site_aniso_U_23
_atom_site_aniso_U_13
_atom_site_aniso_U_12
Zn1 0.0223(3) 0.0103(3) 0.0179(3) 0.0001(3) -0.0015(2) 0.0000(3)
Zn2 0.0222(3) 0.0102(3) 0.0177(3) 0.0010(3) 0.0014(2) 0.0008(2)
Br1 0.0250(3) 0.0332(4) 0.0504(4) 0.0043(3) -0.0056(3) -0.0080(3)
Br2 0.0626(5) 0.0300(4) 0.0212(3) -0.0050(3) -0.0036(3) -0.0033(3)
N1 0.035(3) 0.011(2) 0.023(3) -0.001(2) -0.003(2) 0.001(2)
N2 0.037(3) 0.011(2) 0.021(2) -0.001(2) 0.002(2) 0.004(2)
N3 0.024(2) 0.011(2) 0.015(2) 0.0000(18) 0.0004(19) 0.0012(18)
N4 0.029(3) 0.013(2) 0.018(2) 0.0000(19) 0.002(2) 0.000(2)
N5 0.021(2) 0.015(2) 0.031(3) 0.001(2) -0.001(2) 0.001(2)
N6 0.023(3) 0.014(2) 0.036(3) -0.001(2) -0.002(2) 0.003(2)
N7 0.019(2) 0.015(2) 0.019(2) -0.0015(18) -0.0010(19) 0.0002(18)
N8 0.022(2) 0.010(2) 0.026(3) 0.0001(19) -0.002(2) 0.0027(19)
C1 0.038(4) 0.019(3) 0.016(3) 0.001(2) 0.003(2) 0.002(3)
C2 0.020(3) 0.014(3) 0.018(3) -0.002(2) 0.001(2) 0.003(2)
C3 0.026(3) 0.014(3) 0.024(3) 0.003(2) -0.001(2) 0.003(2)
C4 0.023(3) 0.013(3) 0.018(3) 0.003(2) 0.002(2) 0.001(2)
C5 0.033(3) 0.013(3) 0.021(3) -0.002(2) 0.000(3) 0.002(2)
C6 0.027(3) 0.012(3) 0.041(4) -0.002(3) 0.000(3) 0.004(2)
C7 0.024(3) 0.014(3) 0.018(3) -0.003(2) -0.001(2) 0.000(2)
C8 0.023(3) 0.013(2) 0.021(3) -0.002(2) -0.004(2) 0.001(2)
C9 0.027(3) 0.012(3) 0.020(3) 0.000(2) 0.001(2) 0.000(2)
C10 0.023(3) 0.015(3) 0.024(3) -0.004(2) 0.004(2) 0.000(2)
Zn1B 0.0223 0.0103 0.0179 0.0001 -0.0015 0
Zn1A 0.0223 0.0103 0.0179 -0.0001 -0.0015 0
Zn1C 0.0223 0.0103 0.0179 -0.0001 -0.0015 0
Zn2B 0.0222 0.0102 0.0177 0.001 0.0014 0.0008
Zn2A 0.0222 0.0102 0.0177 -0.001 0.0014 -0.0008
Zn2C 0.0222 0.0102 0.0177 -0.001 0.0014 -0.0008
Br1B 0.025 0.0332 0.0504 0.0043 -0.0056 -0.008
Br2B 0.0626 0.03 0.0212 -0.005 -0.0036 -0.0033
N1B 0.035 0.011 0.023 -0.001 -0.003 0.001
N2B 0.037 0.011 0.021 -0.001 0.002 0.004
N3B 0.024 0.011 0.015 0 0.0004 0.0012
N3A 0.024 0.011 0.015 0 0.0004 -0.0012
N3C 0.024 0.011 0.015 0 0.0004 -0.0012
N4B 0.029 0.013 0.018 0 0.002 0
N5B 0.021 0.015 0.031 0.001 -0.001 0.001
N6B 0.023 0.014 0.036 -0.001 -0.002 0.003
N7B 0.019 0.015 0.019 -0.0015 -0.001 0.0002
N7A 0.019 0.015 0.019 0.0015 -0.001 -0.0002
N7C 0.019 0.015 0.019 0.0015 -0.001 -0.0002
N8B 0.022 0.01 0.026 0.0001 -0.002 0.0027
C1B 0.038 0.019 0.016 0.001 0.003 0.002
C2B 0.02 0.014 0.018 -0.002 0.001 0.003
C3B 0.026 0.014 0.024 0.003 -0.001 0.003
C4B 0.023 0.013 0.018 0.003 0.002 0.001
C5B 0.033 0.013 0.021 -0.002 0 0.002
C6B 0.027 0.012 0.041 -0.002 0 0.004
C7B 0.024 0.014 0.018 -0.003 -0.001 0
C8B 0.023 0.013 0.021 -0.002 -0.004 0.001
C9B 0.027 0.012 0.02 0 0.001 0
C10B 0.023 0.015 0.024 -0.004 0.004 0
loop_
_geom_bond_atom_site_label_1
_geom_bond_atom_site_label_2
_geom_bond_site_symmetry_1
_geom_bond_site_symmetry_2
Zn1 Br1 1_555 1_555
Zn2 Br2 1_555 1_555
O1 C11 1_555 1_555
N1 Zn1 1_555 1_555
N2 C1 1_555 1_555
N3 C2 1_555 1_555
N4 Zn2 1_555 1_555
N5 C6 1_555 1_555
N6 C6 1_555 1_555
N7 C7 1_555 1_555
N8 Zn1 1_555 1_555
N9 C11 1_555 1_555
C1 N1 1_555 1_555
H1 C1 1_555 1_555
C2 N2 1_555 1_555
C3 N3 1_555 1_555
H2 C3 1_555 1_555
C4 N4 1_555 1_555
C5 N1 1_555 1_555
H3 C5 1_555 1_555
C6 H4 1_555 1_555
C7 N6 1_555 1_555
C8 N7 1_555 1_555
H5 C8 1_555 1_555
C9 N8 1_555 1_555
C10 N5 1_555 1_555
H6 C10 1_555 1_555
C11 H7 1_555 1_555
C12 N9 1_555 1_555
H8 C12 1_555 1_555
H9 C12 1_555 1_555
H10 C12 1_555 1_555
C13 N9 1_555 1_555
H11 C13 1_555 1_555
H12 C13 1_555 1_555
H13 C13 1_555 1_555
Zn1B Br1B 1_555 1_555
Zn1A N7 1_555 1_555
Zn1C N7B 1_555 1_555
Zn2B N5 1_555 1_555
Zn2A N3 1_555 1_555
Zn2C N3B 1_555 1_555
Br2B Zn2B 1_555 1_555
N1B Zn1B 1_555 1_555
N2B C1B 1_555 1_555
N3B C2B 1_555 1_555
N3A Zn2 1_555 1_555
N3C Zn2B 1_555 1_555
N4B Zn2B 1_555 1_555
N5B Zn2 1_555 1_555
N6B C6B 1_555 1_555
N7B C7B 1_555 1_555
N7A Zn1 1_555 1_555
N7C Zn1B 1_555 1_555
N8B Zn1B 1_555 1_555
C1B N1B 1_555 1_555
H1B C1B 1_555 1_555
C2B N2B 1_555 1_555
C3B N3B 1_555 1_555
H2B C3B 1_555 1_555
C4B N4B 1_555 1_555
C5B N1B 1_555 1_555
H3B C5B 1_555 1_555
C6B N5B 1_555 1_555
H4B C6B 1_555 1_555
C7B N6B 1_555 1_555
C8B N7B 1_555 1_555
H5B C8B 1_555 1_555
C9B N8B 1_555 1_555
C10B N5B 1_555 1_555
H6B C10B 1_555 1_555
N4 C3 1_555 1_555
N8 C8 1_555 1_555
C2 C4 1_555 1_555
C4 C5 1_555 1_555
C7 C9 1_555 1_555
C9 C10 1_555 1_555
N4B C3B 1_555 1_555
N8B C8B 1_555 1_555
C2B C4B 1_555 1_555
C4B C5B 1_555 1_555
C7B C9B 1_555 1_555
C9B C10B 1_555 1_555

#END
