
#######################################################################
#
#                 Cambridge Crystallographic Data Centre
#                                CCDC 
#
#######################################################################
#
# If this CIF has been generated from an entry in the Cambridge 
# Structural Database, then it will include bibliographic, chemical, 
# crystal, experimental, refinement or atomic coordinate data resulting 
# from the CCDC's data processing and validation procedures.
#
#######################################################################

data_XEDPED
_chemical_formula_moiety         '(C20 H16 N10 O5 Zn2)n'
_symmetry_cell_setting           hexagonal
_symmetry_space_group_name_H-M   'P 63/m m c'
_symmetry_Int_Tables_number      194
_space_group_name_Hall           '-P 6c 2c'
loop_
_symmetry_equiv_pos_site_id
_symmetry_equiv_pos_as_xyz
1 x,y,z
2 -y,x-y,z
3 -x+y,-x,z
4 -x,-y,1/2+z
5 y,-x+y,1/2+z
6 x-y,x,1/2+z
7 y,x,-z
8 x-y,-y,-z
9 -x,-x+y,-z
10 -y,-x,1/2-z
11 -x+y,y,1/2-z
12 x,x-y,1/2-z
13 -x,-y,-z
14 y,-x+y,-z
15 x-y,x,-z
16 x,y,1/2-z
17 -y,x-y,1/2-z
18 -x+y,-x,1/2-z
19 -y,-x,z
20 -x+y,y,z
21 x,x-y,z
22 y,x,1/2+z
23 x-y,-y,1/2+z
24 -x,-x+y,1/2+z
_cell_length_a                   26.884(10)
_cell_length_b                   26.884(10)
_cell_length_c                   18.121(10)
_cell_angle_alpha                90
_cell_angle_beta                 90
_cell_angle_gamma                120
_cell_volume                     11342.3
loop_
_atom_site_label
_atom_site_type_symbol
_atom_site_fract_x
_atom_site_fract_y
_atom_site_fract_z
_atom_site_U_iso_or_equiv
_atom_site_thermal_displace_type
Zn1 Zn 0.11057(7) 0.44222(9) 0.58395(11) 0.0692 Uani
C1 C 0.2225(5) 0.4449(9) 0.5814(8) 0.0671 Uani
H1 H 0.2249 0.4498 0.6335 0.0810 Uiso
N1 N 0.1790(5) 0.4413(5) 0.5417(6) 0.0702 Uani
C2 C 0.1912(6) 0.4356(7) 0.4722(8) 0.0797 Uani
C3 C 0.1655(9) 0.4330(10) 0.4071(7) 0.1126 Uani
H2 H 0.1291 0.4307 0.4057 0.1340 Uiso
C4 C 0.1918(10) 0.4338(14) 0.3458(11) 0.1491 Uani
H3 H 0.1749 0.4345 0.3000 0.1810 Uiso
C5 C 0.0000 0.3874(7) 0.5000 0.0658 Uani
H4 H 0.0000 0.4228 0.5000 0.0790 Uiso
N2 N 0.0412(5) 0.3792(5) 0.5287(7) 0.0791 Uani
C6 C 0.0253(6) 0.3231(6) 0.5208(9) 0.0796 Uani
C7 C 0.0519(9) 0.2939(9) 0.5344(11) 0.1090 Uani
H5 H 0.0898 0.3122 0.5539 0.1310 Uiso
C8 C 0.0230(11) 0.2370(8) 0.5194(13) 0.1242 Uani
H6 H 0.0372 0.2134 0.5382 0.1470 Uiso
N3 N 0.0945(5) 0.4118(5) 0.6885(6) 0.0683 Uani
C9 C 0.0513(7) 0.3632(7) 0.7126(8) 0.0902 Uani
H7 H 0.0243 0.3329 0.6823 0.1090 Uiso
C10 C 0.1209(8) 0.4402(8) 0.7500 0.0571 Uani
N4 N 0.1706(6) 0.4963(7) 0.7500 0.0578 Uani
O1 O 0.1888(4) 0.5181(4) 0.6897(5) 0.0756 Uani
N5 N 0.1225(6) 0.5198(5) 0.5541(8) 0.0859 Uani
C11 C 0.1609(15) 0.5546(12) 0.5064(18) 0.2267 Uani
H8 H 0.1848 0.5459 0.4768 0.2670 Uiso
C12 C 0.0992(8) 0.5496(4) 0.5811(13) 0.0916 Uani
N6 N 0.0543(11) 0.5272(6) 0.635(2) 0.1862 Uani
O2 O 0.0387(11) 0.4768(10) 0.6537(19) 0.2827 Uani
Zn1S Zn 0.33165(11) 0.44222(9) 0.58395(11) 0.0692 Uani
Zn1H Zn -0.11057(7) 0.33165(11) 0.41605(11) 0.0692 Uani
Zn1O Zn 0.11057(7) 0.44222(9) 0.91605(11) 0.0692 Uani
Zn1T Zn 0.11057(7) 0.66835(11) 0.58395(11) 0.0692 Uani
N1S N 0.2623(7) 0.4413(5) 0.5417(6) 0.0702 Uani
C2S C 0.2444(9) 0.4356(7) 0.4722(8) 0.0797 Uani
C3S C 0.2675(13) 0.4330(10) 0.4071(7) 0.1126 Uani
H2S H 0.3016 0.4307 0.4057 0.1340 Uiso
C4S C 0.2420(17) 0.4338(14) 0.3458(11) 0.1491 Uani
H3S H 0.2596 0.4345 0.3000 0.1810 Uiso
N2H N -0.0412(5) 0.3380(7) 0.4713(7) 0.0791 Uani
N2S N 0.3380(7) 0.3792(5) 0.5287(7) 0.0791 Uani
C6H C -0.0253(6) 0.2978(8) 0.4792(9) 0.0796 Uani
C7H C -0.0519(9) 0.2420(13) 0.4656(11) 0.1090 Uani
H5H H -0.0898 0.2224 0.4461 0.1310 Uiso
C8H C -0.0230(11) 0.2140(14) 0.4806(13) 0.1242 Uani
H6H H -0.0372 0.1762 0.4618 0.1470 Uiso
N3O N 0.0945(5) 0.4118(5) 0.8115(6) 0.0683 Uani
N3S N 0.3173(7) 0.4118(5) 0.6885(6) 0.0683 Uani
C9O C 0.0513(7) 0.3632(7) 0.7874(8) 0.0902 Uani
H7O H 0.0243 0.3329 0.8177 0.1090 Uiso
O1O O 0.1888(4) 0.5181(4) 0.8103(5) 0.0756 Uani
N5T N 0.1225(6) 0.6027(8) 0.5541(8) 0.0859 Uani
N5S N 0.3973(8) 0.5198(5) 0.5541(8) 0.0859 Uani
C11T C 0.1609(15) 0.6063(19) 0.5064(18) 0.2267 Uani
H8T H 0.1848 0.6389 0.4768 0.2670 Uiso
O2T O 0.0387(11) 0.5619(15) 0.6537(19) 0.2827 Uani
O3 O 0.1956(5) 0.3912(11) 0.7500 0.1002 Uani
loop_
_atom_site_aniso_label
_atom_site_aniso_U_11
_atom_site_aniso_U_22
_atom_site_aniso_U_33
_atom_site_aniso_U_23
_atom_site_aniso_U_13
_atom_site_aniso_U_12
Zn1 0.0531(12) 0.0844(15) 0.0732(14) -0.0084(9) -0.0175(8) 0.0367(10)
C1 0.086(10) 0.100(15) 0.020(7) -0.025(9) -0.013(4) 0.050(8)
N1 0.075(7) 0.092(9) 0.048(6) -0.027(6) -0.030(6) 0.045(7)
C2 0.082(10) 0.107(12) 0.051(7) -0.022(8) -0.014(7) 0.048(9)
C3 0.129(15) 0.22(2) 0.035(7) -0.053(10) -0.044(8) 0.122(16)
C4 0.151(18) 0.28(3) 0.086(13) 0.000(16) -0.029(12) 0.16(2)
C5 0.051(10) 0.065(9) 0.076(12) -0.011(5) -0.023(9) 0.025(5)
N2 0.076(8) 0.057(7) 0.092(9) -0.010(6) -0.045(7) 0.024(6)
C6 0.076(10) 0.052(8) 0.100(11) -0.026(7) -0.050(9) 0.024(7)
C7 0.118(14) 0.111(14) 0.127(15) -0.003(12) -0.063(12) 0.079(13)
C8 0.19(2) 0.070(11) 0.134(17) -0.041(10) -0.090(15) 0.081(13)
N3 0.056(7) 0.070(8) 0.081(8) 0.000(7) -0.006(6) 0.033(6)
C9 0.102(12) 0.071(10) 0.072(9) -0.001(8) -0.012(8) 0.024(10)
C10 0.063(12) 0.069(12) 0.034(8) 0.000 0.000 0.029(10)
N4 0.063(10) 0.083(11) 0.044(8) 0.000 0.000 0.049(9)
O1 0.083(7) 0.084(7) 0.056(5) -0.007(5) -0.008(5) 0.039(6)
N5 0.084(9) 0.074(8) 0.103(9) -0.016(8) -0.036(8) 0.042(8)
C11 0.28(4) 0.18(2) 0.24(3) 0.11(2) 0.20(3) 0.13(2)
C12 0.061(13) 0.055(9) 0.16(2) -0.025(7) -0.049(14) 0.030(6)
N6 0.105(19) 0.111(16) 0.34(4) 0.073(12) 0.15(2) 0.052(9)
O2 0.22(2) 0.177(19) 0.50(4) 0.16(2) 0.24(3) 0.136(18)
Zn1S 0.0641 0.0844 0.0732 -0.0084 0.0091 0.0477
Zn1H 0.0531 0.0641 0.0732 -0.0091 -0.0175 0.0164
Zn1O 0.0531 0.0844 0.0732 0.0084 0.0175 0.0367
Zn1T 0.0531 0.0641 0.0732 -0.0091 -0.0175 0.0164
N1S 0.077 0.092 0.048 -0.027 0.003 0.047
C2S 0.093 0.107 0.051 -0.022 -0.008 0.059
C3S 0.105 0.22 0.035 -0.053 -0.009 0.098
C4S 0.111 0.28 0.086 0 0.029 0.12
N2H 0.076 0.085 0.092 -0.035 -0.045 0.052
N2S 0.085 0.057 0.092 -0.01 0.035 0.033
C6H 0.076 0.08 0.1 -0.024 -0.05 0.052
C7H 0.118 0.071 0.127 -0.06 -0.063 0.039
C8H 0.19 0.098 0.134 -0.049 -0.09 0.109
N3O 0.056 0.07 0.081 0 0.006 0.033
N3S 0.06 0.07 0.081 0 0.006 0.037
C9O 0.102 0.071 0.072 0.001 0.012 0.024
O1O 0.083 0.084 0.056 0.007 0.008 0.039
N5T 0.084 0.074 0.103 -0.02 -0.036 0.042
N5S 0.074 0.074 0.103 -0.016 0.02 0.032
C11T 0.28 0.2 0.24 0.09 0.2 0.15
O2T 0.22 0.125 0.5 0.08 0.24 0.084
O3 0.090(11) 0.117(18) 0.102(16) 0.000 0.000 0.058(9)
loop_
_geom_bond_atom_site_label_1
_geom_bond_atom_site_label_2
_geom_bond_site_symmetry_1
_geom_bond_site_symmetry_2
Zn1 N1 1_555 1_555
C1 H1 1_555 1_555
N1 C1 1_555 1_555
C2 N1 1_555 1_555
C3 C2 1_555 1_555
H2 C3 1_555 1_555
C4 C3 1_555 1_555
H3 C4 1_555 1_555
C5 H4 1_555 1_555
N2 Zn1 1_555 1_555
C6 N2 1_555 1_555
C7 C6 1_555 1_555
H5 C7 1_555 1_555
C8 C7 1_555 1_555
H6 C8 1_555 1_555
N3 Zn1 1_555 1_555
C9 N3 1_555 1_555
H7 C9 1_555 1_555
C10 N3 1_555 1_555
N4 C10 1_555 1_555
O1 N4 1_555 1_555
N5 Zn1 1_555 1_555
C11 N5 1_555 1_555
H8 C11 1_555 1_555
C12 N5 1_555 1_555
N6 C12 1_555 1_555
O2 N6 1_555 1_555
Zn1S N1S 1_555 1_555
Zn1H N2H 1_555 1_555
Zn1O N3O 1_555 1_555
Zn1T N5T 1_555 1_555
N1S C1 1_555 1_555
C2S C2 1_555 1_555
C3S C2S 1_555 1_555
H2S C3S 1_555 1_555
C4S C4 1_555 1_555
H3S C4S 1_555 1_555
N2H C5 1_555 1_555
N2S Zn1S 1_555 1_555
C6H C6 1_555 1_555
C7H C6H 1_555 1_555
H5H C7H 1_555 1_555
C8H C8 1_555 1_555
H6H C8H 1_555 1_555
N3O C10 1_555 1_555
N3S Zn1S 1_555 1_555
C9O C9 1_555 1_555
H7O C9O 1_555 1_555
O1O N4 1_555 1_555
N5T C12 1_555 1_555
N5S Zn1S 1_555 1_555
C11T C11 1_555 1_555
H8T C11T 1_555 1_555
O2T N6 1_555 1_555
C5 N2 1_555 1_555
N1S C2S 1_555 1_555
C3S C4S 1_555 1_555
N2H C6H 1_555 1_555
C7H C8H 1_555 1_555
N3O C9O 1_555 1_555
N5T C11T 1_555 1_555

#END
