
#######################################################################
#
#                 Cambridge Crystallographic Data Centre
#                                CCDC 
#
#######################################################################
#
# If this CIF has been generated from an entry in the Cambridge 
# Structural Database, then it will include bibliographic, chemical, 
# crystal, experimental, refinement or atomic coordinate data resulting 
# from the CCDC's data processing and validation procedures.
#
#######################################################################

data_BIBMEG
_chemical_formula_moiety         '(C60 H56 Mo8 N18 O40 S1 Zn3)n'
_symmetry_cell_setting           triclinic
_symmetry_space_group_name_H-M   'P -1'
_symmetry_Int_Tables_number      2
_space_group_name_Hall           '-P 1'
loop_
_symmetry_equiv_pos_site_id
_symmetry_equiv_pos_as_xyz
1 x,y,z
2 -x,-y,-z
_cell_length_a                   16.9940(3)
_cell_length_b                   18.9140(4)
_cell_length_c                   18.9480(8)
_cell_angle_alpha                108.314(3)
_cell_angle_beta                 106.718(2)
_cell_angle_gamma                109.066(2)
_cell_volume                     4920.6
loop_
_atom_site_label
_atom_site_type_symbol
_atom_site_fract_x
_atom_site_fract_y
_atom_site_fract_z
Zn1 Zn 0.94087(11) 0.78929(10) 0.14184(10)
Zn2 Zn 1.17716(14) 0.93525(13) 0.25885(15)
Zn3 Zn 0.58440(10) -0.16280(7) 0.19279(8)
C1 C 0.6620(7) 0.3847(6) 0.3986(7)
C2 C 0.7165(8) 0.4158(7) 0.3624(7)
C3 C 0.7895(10) 0.4947(9) 0.4077(8)
C4 C 0.830(2) 0.5310(18) 0.4915(19)
C5 C 0.7623(12) 0.5061(10) 0.5281(9)
C6 C 0.6832(9) 0.4311(7) 0.4811(8)
C7 C 0.5797(8) 0.2993(7) 0.3484(7)
C8 C 0.4341(9) 0.2403(8) 0.2365(8)
C9 C 0.4017(12) 0.1622(9) 0.2354(10)
C10 C 0.303(2) 0.103(2) 0.180(2)
C11 C 0.252(3) 0.119(2) 0.117(2)
C12 C 0.3059(9) 0.1866(8) 0.1074(7)
C13 C 0.3852(8) 0.2525(7) 0.1728(7)
H1 H 0.4063 0.3053 0.1745
C14 C 0.178(2) 0.1695(19) -0.0117(19)
C15 C 0.3136(7) 0.2405(6) 0.0064(6)
C16 C 0.6938(10) 0.3656(8) 0.2748(8)
H2 H 0.6295 0.3470 0.2400
H3 H 0.7321 0.3995 0.2569
C17 C 0.6813(11) 0.2337(8) 0.1914(9)
C18 C 0.6582(14) 0.2438(10) 0.1205(10)
C19 C 0.606(3) 0.092(2) 0.031(2)
C20 C 0.6549(14) 0.0948(9) 0.1143(11)
C21 C 0.6825(13) 0.1598(9) 0.1892(9)
H4 H 0.7017 0.1545 0.2376
C22 C 0.6157(12) -0.0239(8) 0.1501(9)
C23 C 0.7209(19) -0.0117(17) 0.1051(17)
C24 C 0.8511(10) 0.5383(11) 0.3731(10)
C25 C 1.0090(10) 0.5878(10) 0.4025(9)
C26 C 1.0921(12) 0.5990(11) 0.4569(13)
H5 H 1.0941 0.5670 0.4854
C27 C 1.1744(11) 0.6624(12) 0.4665(12)
H6 H 1.2315 0.6721 0.5026
C28 C 1.1722(10) 0.7092(10) 0.4247(10)
H7 H 1.2264 0.7498 0.4314
C29 C 1.0881(9) 0.6946(9) 0.3730(8)
C30 C 1.0063(9) 0.6366(9) 0.3631(8)
H8 H 0.9500 0.6308 0.3299
C31 C 1.0114(9) 0.7242(10) 0.2613(9)
C32 C 1.1556(9) 0.8128(9) 0.3398(11)
H9 H 1.2157 0.8394 0.3811
C33 C 0.9946(16) 0.7619(11) 0.5972(12)
C34 C 1.0792(17) 0.7789(13) 0.5982(12)
H10 H 1.0933 0.7354 0.5780
C35 C 1.1460(14) 0.8633(12) 0.6302(11)
H11 H 1.2049 0.8763 0.6331
C36 C 1.1196(11) 0.9281(14) 0.6581(11)
H12 H 1.1597 0.9841 0.6770
C37 C 1.0355(13) 0.9050(10) 0.6560(11)
C38 C 0.9701(13) 0.8243(9) 0.6253(11)
H13 H 0.9116 0.8120 0.6233
C39 C 0.7944(18) 0.5574(12) 0.6230(11)
H14 H 0.8509 0.6091 0.6465
H15 H 0.7470 0.5709 0.6329
C40 C 0.797(2) 0.5122(16) 0.7299(14)
C41 C 0.788(2) 0.5798(14) 0.7761(14)
H16 H 0.7924 0.6221 0.7600
C42 C 0.771(2) 0.587(2) 0.844(2)
H17 H 0.7683 0.6330 0.8767
C43 C 0.758(2) 0.509(2) 0.860(2)
H18 H 0.7484 0.5080 0.9053
C44 C 0.7606(18) 0.4393(14) 0.8065(13)
C45 C 0.7773(17) 0.4399(14) 0.7410(13)
H19 H 0.7754 0.3928 0.7038
C46 C 0.6900(18) 0.3393(17) 0.8546(15)
H20 H 0.6559 0.3638 0.8730
C47 C 0.7813(19) 0.3167(16) 0.8027(17)
H21 H 0.8230 0.3206 0.7796
C48 C 0.4768(8) 0.3759(6) 0.6604(6)
C49 C 0.5209(9) 0.3788(7) 0.6108(7)
H22 H 0.5360 0.3363 0.5894
C50 C 0.5426(10) 0.4463(7) 0.5930(8)
C51 C 0.5198(10) 0.5079(8) 0.6255(9)
H23 H 0.5353 0.5537 0.6141
C52 C 0.6222(10) 0.3997(8) 0.5204(9)
H24 H 0.5718 0.3445 0.4810
H25 H 0.6579 0.3956 0.5678
C53 C 0.4745(11) 0.5036(8) 0.6744(9)
H26 H 0.4594 0.5461 0.6955
C54 C 0.4512(9) 0.4364(7) 0.6927(8)
H27 H 0.4197 0.4321 0.7253
C55 C 0.4083(9) 0.2227(6) 0.6150(7)
H28 H 0.3938 0.2070 0.5594
C56 C 0.4572(9) 0.2974(7) 0.7435(7)
H29 H 0.4825 0.3430 0.7948
N1 N 0.259(4) 0.196(3) 0.034(3)
N2 N 0.1704(6) 0.2042(7) -0.0619(6)
N3 N 0.2564(5) 0.2432(5) -0.0548(5)
N4 N 0.6760(15) 0.0276(12) 0.1277(14)
N5 N 0.6298(8) -0.0884(6) 0.1416(6)
N6 N 0.7108(16) -0.0760(12) 0.1226(16)
N7 N 1.0846(7) 0.7424(7) 0.3276(7)
N8 N 1.1253(8) 0.8369(8) 0.2839(9)
N9 N 1.029(3) 0.791(3) 0.255(2)
N10 N 0.7453(12) 0.3724(11) 0.8226(12)
N11 N 0.6874(14) 0.2703(11) 0.8581(13)
N12 N 0.7445(15) 0.2561(14) 0.8231(13)
N13 N 0.4477(7) 0.3019(5) 0.6732(5)
N14 N 0.4253(7) 0.2186(5) 0.7294(5)
N15 N 0.3930(6) 0.1706(5) 0.6468(5)
O1 O 0.5061(16) 0.3106(14) 0.3005(14)
O2 O 0.7101(8) 0.2957(6) 0.2686(6)
O3 O 0.936(4) 0.517(3) 0.388(3)
O4 O 0.8097(15) 0.5033(12) 0.6575(10)
O5 O 0.5871(8) 0.4551(6) 0.5451(6)
N16 N 1.0134(8) 0.9720(7) 0.6914(7)
C57 C 1.0743(8) 1.0526(8) 0.7564(9)
N17 N 1.0219(8) 1.0937(7) 0.7737(7)
N18 N 0.9285(6) 1.0385(7) 0.7194(8)
C58 C 0.9233(7) 0.9633(7) 0.6685(7)
H30 H 0.8696 0.9160 0.6269
C59 C 0.608(3) 0.165(2) 0.035(2)
O6 O 0.912(2) 0.6819(18) 0.5728(18)
C60 C 0.9237(19) 0.6062(15) 0.5458(19)
Mo1 Mo 0.41913(5) 0.46244(5) 0.03582(5)
Mo2 Mo 0.46223(6) 0.63887(5) 0.00092(5)
Mo3 Mo 0.28643(6) 0.29055(5) -0.14504(5)
Mo4 Mo 0.69520(6) 0.53675(5) 0.15104(5)
O7 O 0.3957(5) 0.4254(4) 0.1018(4)
O8 O 0.3029(4) 0.4100(4) -0.0575(4)
O9 O 0.4365(5) 0.5662(4) 0.0783(4)
O10 O 0.5471(4) 0.4844(4) 0.0615(4)
O11 O 0.4142(4) 0.3523(4) -0.0471(4)
O12 O 0.1677(5) 0.2507(4) -0.1858(4)
O13 O 0.3088(5) 0.2095(4) -0.1891(4)
O14 O 0.8125(5) 0.5792(5) 0.1930(5)
O15 O 0.3341(4) 0.5669(4) -0.0608(4)
O16 O 0.4807(5) 0.7232(4) 0.0855(4)
O17 O 0.4779(5) 0.6767(4) -0.0666(4)
O18 O 0.3187(4) 0.3590(4) -0.1940(4)
O19 O 0.6646(5) 0.4993(4) 0.2148(4)
Mo5 Mo 0.54195(5) 0.08982(5) 0.59111(5)
Mo6 Mo 0.39674(6) 0.07041(5) 0.41989(5)
Mo7 Mo 0.42336(6) -0.08928(5) 0.61177(5)
Mo8 Mo 0.32998(6) 0.03035(5) 0.58724(5)
O20 O 0.3274(5) 0.0506(4) 0.6827(5)
O21 O 0.3800(5) -0.1936(4) 0.5565(5)
O22 O 0.4083(6) -0.0772(5) 0.6993(5)
O23 O 0.3169(5) -0.0775(4) 0.5490(4)
O24 O 0.4768(5) 0.0512(4) 0.6478(4)
O25 O 0.2275(5) 0.0170(5) 0.5244(5)
O26 O 0.6384(4) 0.0737(4) 0.6247(4)
O27 O 0.5232(4) 0.0638(4) 0.4779(4)
O28 O 0.5833(5) 0.1958(4) 0.6381(4)
O29 O 0.3992(4) 0.0618(4) 0.5208(4)
O30 O 0.4449(5) 0.0569(4) 0.3407(4)
O31 O 0.4362(5) 0.1761(4) 0.4599(4)
O32 O 0.2797(5) 0.0304(5) 0.3586(5)
O33 O 0.4751(6) -0.1338(5) 0.1896(4)
O34 O 1.2460(14) 0.8954(10) 0.2001(9)
O35 O 0.8829(7) 0.6593(6) 0.0679(6)
O36 O 1.1368(15) 0.9640(14) 0.1662(13)
O37 O 1.0270(11) 0.8184(10) 0.0899(10)
O38 O 1.1404(18) 0.8741(16) 0.0452(15)
O39 O 1.027(2) 0.9260(19) 0.0366(19)
S1 S 1.0789(6) 0.8924(5) 0.0791(5)
Zn1A Zn 0.05913(11) 0.21071(10) -0.14184(10)
Zn1A_2 Zn 1.05913(11) 1.21071(10) 0.85816(10)
Zn2_2 Zn 0.17716(14) -0.06475(13) 0.25885(15)
Zn2A Zn 0.82284(14) 1.06475(13) 0.74115(15)
Zn3_2 Zn 0.58440(10) 0.83720(7) 0.19279(8)
Zn3A Zn 0.41560(10) 0.16280(7) -0.19279(8)
Zn3A_2 Zn 0.41560(10) 0.16280(7) 0.80721(8)
N2A N 0.8296(6) 0.7958(7) 0.0619(6)
N14A N 0.5747(7) -0.2186(5) 0.2706(5)
N17A N 0.9781(8) 0.9063(7) 0.2263(7)
N18A N 1.0715(6) 0.9615(7) 0.2806(8)
Mo1A Mo 0.58087(5) 0.53756(5) -0.03582(5)
Mo2A Mo 0.53777(6) 0.36113(5) -0.00092(5)
Mo4A Mo 0.30480(6) 0.46325(5) -0.15104(5)
O8A O 0.6971(4) 0.5900(4) 0.0575(4)
O10A O 0.4529(4) 0.5156(4) -0.0615(4)
O11A O 0.5858(4) 0.6477(4) 0.0471(4)
O12A O 0.8323(5) 0.7493(4) 0.1858(4)
O13A O 0.6912(5) -0.2095(4) 0.1891(4)
O15A O 0.6659(4) 0.4331(4) 0.0608(4)
O16_2 O 0.4807(5) -0.2768(4) 0.0855(4)
O18A O 0.6813(4) 0.6410(4) 0.1940(4)
Mo5A Mo 0.45805(5) -0.08982(5) 0.40889(5)
Mo6A Mo 0.60326(6) -0.07041(5) 0.58011(5)
Mo7A Mo 0.57664(6) 0.08928(5) 0.38823(5)
O20A O 0.6726(5) -0.0506(4) 0.3173(5)
O26A O 0.3616(4) -0.0737(4) 0.3753(4)
O27A O 0.4768(4) -0.0638(4) 0.5221(4)
O30A O 0.5551(5) -0.0569(4) 0.6593(4)
O32_2 O 1.2797(5) 1.0304(5) 0.3586(5)
O40 O 0.924(5) 0.916(4) 0.812(4)
loop_
_geom_bond_atom_site_label_1
_geom_bond_atom_site_label_2
_geom_bond_site_symmetry_1
_geom_bond_site_symmetry_2
Zn1 N9 1_555 1_555
Zn2 N8 1_555 1_555
Zn3 N5 1_555 1_555
C1 C2 1_555 1_555
C2 C3 1_555 1_555
C3 C4 1_555 1_555
C4 C5 1_555 1_555
C5 C6 1_555 1_555
C6 C1 1_555 1_555
C7 C1 1_555 1_555
C8 C9 1_555 1_555
C9 C10 1_555 1_555
C10 C11 1_555 1_555
C11 C12 1_555 1_555
C12 C13 1_555 1_555
C13 C8 1_555 1_555
H1 C13 1_555 1_555
C14 N1 1_555 1_555
C15 N1 1_555 1_555
C16 C2 1_555 1_555
H2 C16 1_555 1_555
H3 C16 1_555 1_555
C17 C18 1_555 1_555
C18 C59 1_555 1_555
C19 C20 1_555 1_555
C20 C21 1_555 1_555
C21 C17 1_555 1_555
H4 C21 1_555 1_555
C22 N4 1_555 1_555
C23 N4 1_555 1_555
C24 C3 1_555 1_555
C25 C26 1_555 1_555
C26 H5 1_555 1_555
C27 C26 1_555 1_555
H6 C27 1_555 1_555
C28 C27 1_555 1_555
H7 C28 1_555 1_555
C29 C28 1_555 1_555
C30 C25 1_555 1_555
H8 C30 1_555 1_555
C31 N7 1_555 1_555
C32 H9 1_555 1_555
C33 C34 1_555 1_555
C34 H10 1_555 1_555
C35 C34 1_555 1_555
H11 C35 1_555 1_555
C36 C35 1_555 1_555
H12 C36 1_555 1_555
C37 C36 1_555 1_555
C38 C33 1_555 1_555
H13 C38 1_555 1_555
C39 C5 1_555 1_555
H14 C39 1_555 1_555
H15 C39 1_555 1_555
C40 C41 1_555 1_555
C41 H16 1_555 1_555
C42 C41 1_555 1_555
H17 C42 1_555 1_555
C43 C42 1_555 1_555
H18 C43 1_555 1_555
C44 C43 1_555 1_555
C45 C40 1_555 1_555
H19 C45 1_555 1_555
C46 H20 1_555 1_555
C47 H21 1_555 1_555
C48 C49 1_555 1_555
C49 H22 1_555 1_555
C50 C49 1_555 1_555
C51 C50 1_555 1_555
H23 C51 1_555 1_555
C52 C6 1_555 1_555
H24 C52 1_555 1_555
H25 C52 1_555 1_555
C53 C51 1_555 1_555
H26 C53 1_555 1_555
C54 C48 1_555 1_555
H27 C54 1_555 1_555
C55 H28 1_555 1_555
C56 H29 1_555 1_555
N1 C12 1_555 1_555
N2 C14 1_555 1_555
N3 C15 1_555 1_555
N4 C20 1_555 1_555
N5 C22 1_555 1_555
N6 C23 1_555 1_555
N7 C29 1_555 1_555
N8 C32 1_555 1_555
N9 C31 1_555 1_555
N10 C44 1_555 1_555
N11 C46 1_555 1_555
N12 C47 1_555 1_555
N13 C48 1_555 1_555
N14 C56 1_555 1_555
N15 C55 1_555 1_555
O1 C7 1_555 1_555
O2 C16 1_555 1_555
O3 C24 1_555 1_555
O4 C39 1_555 1_555
O5 C50 1_555 1_555
N16 C37 1_555 1_555
C57 N16 1_555 1_555
N17 C57 1_555 1_555
N18 N17 1_555 1_555
C58 N16 1_555 1_555
H30 C58 1_555 1_555
C59 C19 1_555 1_555
O6 C33 1_555 1_555
C60 C4 1_555 1_555
Mo1 O7 1_555 1_555
Mo2 O9 1_555 1_555
Mo3 N3 1_555 1_555
Mo4 O10 1_555 1_555
O8 Mo1 1_555 1_555
O9 Mo1 1_555 1_555
O10 Mo1 1_555 1_555
O11 Mo1 1_555 1_555
O12 Mo3 1_555 1_555
O13 Mo3 1_555 1_555
O14 Mo4 1_555 1_555
O15 Mo2 1_555 1_555
O16 Mo2 1_555 1_555
O17 Mo2 1_555 1_555
O18 Mo3 1_555 1_555
O19 Mo4 1_555 1_555
Mo5 O24 1_555 1_555
Mo6 O27 1_555 1_555
Mo7 O21 1_555 1_555
Mo8 N15 1_555 1_555
O20 Mo8 1_555 1_555
O22 Mo7 1_555 1_555
O23 Mo7 1_555 1_555
O24 Mo7 1_555 1_555
O25 Mo8 1_555 1_555
O26 Mo5 1_555 1_555
O27 Mo5 1_555 1_555
O28 Mo5 1_555 1_555
O29 Mo5 1_555 1_555
O30 Mo6 1_555 1_555
O31 Mo6 1_555 1_555
O32 Mo6 1_555 1_555
O33 Zn3 1_555 1_555
O34 Zn2 1_555 1_555
O35 Zn1 1_555 1_555
O36 Zn2 1_555 1_555
O37 Zn1 1_555 1_555
O38 S1 1_555 1_555
O39 S1 1_555 1_555
S1 O36 1_555 1_555
Zn1A N2 1_555 1_555
Zn1A_2 N17 1_555 1_555
Zn2_2 O32 1_555 1_555
Zn2A N18 1_555 1_555
Zn3_2 O16 1_555 1_555
Zn3A O13 1_555 1_555
Zn3A_2 N14 1_555 1_555
N2A Zn1 1_555 1_555
N14A Zn3 1_555 1_555
N17A Zn1 1_555 1_555
N18A Zn2 1_555 1_555
Mo1A O10 1_555 1_555
Mo2A O10 1_555 1_555
Mo4A O8 1_555 1_555
O8A Mo4 1_555 1_555
O10A Mo1 1_555 1_555
O11A Mo2 1_555 1_555
O12A Zn1 1_555 1_555
O13A Zn3 1_555 1_555
O15A Mo4 1_555 1_555
O16_2 Zn3 1_555 1_555
O18A Mo4 1_555 1_555
Mo5A O27 1_555 1_555
Mo6A O26 1_555 1_555
Mo7A O27 1_555 1_555
O20A Zn3 1_555 1_555
O26A Mo6 1_555 1_555
O27A Mo5 1_555 1_555
O30A Mo7 1_555 1_555
O32_2 Zn2 1_555 1_555
C8 O1 1_555 1_555
C17 O2 1_555 1_555
C25 O3 1_555 1_555
C29 C30 1_555 1_555
C32 N7 1_555 1_555
C37 C38 1_555 1_555
C40 O4 1_555 1_555
C44 C45 1_555 1_555
C46 N10 1_555 1_555
C47 N10 1_555 1_555
C52 O5 1_555 1_555
C53 C54 1_555 1_555
C55 N13 1_555 1_555
C56 N13 1_555 1_555
N2 N3 1_555 1_555
N5 N6 1_555 1_555
N8 N9 1_555 1_555
N11 N12 1_555 1_555
N14 N15 1_555 1_555
N18 C58 1_555 1_555
O6 C60 1_555 1_555
Mo2 O10A 1_555 1_555
Mo3 O8 1_555 1_555
Mo3 O11 1_555 1_555
O11 Mo2A 1_555 1_555
O12 Zn1A 1_555 1_555
O15 Mo4A 1_555 1_555
O18 Mo4A 1_555 1_555
Mo6 O29 1_555 1_555
Mo7 O27A 1_555 1_555
Mo8 O23 1_555 1_555
Mo8 O24 1_555 1_555
Mo8 O29 1_555 1_555
O20 Zn3A_2 1_555 1_555
O30 Mo7A 1_555 1_555
O37 S1 1_555 1_555
N17A N18A 1_555 1_555
Mo1A O8A 1_555 1_555
Mo1A O10A 1_555 1_555
Mo1A O11A 1_555 1_555
Mo2A O15A 1_555 1_555
Mo4A O10A 1_555 1_555
Mo5A O26A 1_555 1_555
Mo5A O27A 1_555 1_555
Mo6A O27A 1_555 1_555
Mo6A O30A 1_555 1_555

#END
