
#######################################################################
#
#                 Cambridge Crystallographic Data Centre
#                                CCDC 
#
#######################################################################
#
# If this CIF has been generated from an entry in the Cambridge 
# Structural Database, then it will include bibliographic, chemical, 
# crystal, experimental, refinement or atomic coordinate data resulting 
# from the CCDC's data processing and validation procedures.
#
#######################################################################

data_BIBMIK
_chemical_formula_moiety         '(C120 H110 Mo8 N36 O44 Zn4)n'
_symmetry_cell_setting           triclinic
_symmetry_space_group_name_H-M   'P -1'
_symmetry_Int_Tables_number      2
_space_group_name_Hall           '-P 1'
loop_
_symmetry_equiv_pos_site_id
_symmetry_equiv_pos_as_xyz
1 x,y,z
2 -x,-y,-z
_cell_length_a                   12.5680(3)
_cell_length_b                   13.5900(4)
_cell_length_c                   25.6800(8)
_cell_angle_alpha                80.498(3)
_cell_angle_beta                 76.872(2)
_cell_angle_gamma                76.607(2)
_cell_volume                     4125.94
loop_
_atom_site_label
_atom_site_type_symbol
_atom_site_fract_x
_atom_site_fract_y
_atom_site_fract_z
Zn1 Zn 0.60778(7) -0.60243(7) 0.34702(3)
Zn2 Zn 0.68580(9) -0.63429(9) 0.20043(4)
Mo1 Mo 0.43830(4) -0.76158(4) 0.45327(2)
Mo2 Mo 0.45190(7) -0.79870(6) 0.58894(3)
Mo3 Mo 0.34895(4) -0.99265(5) 0.51630(2)
Mo4 Mo 0.52476(4) -1.05934(5) 0.62524(2)
C1 C 0.0719(5) -1.0314(5) 0.4532(3)
C2 C 0.0487(5) -0.9299(5) 0.4615(3)
C3 C -0.0257(5) -0.8977(5) 0.5079(3)
C4 C 0.1499(6) -1.0651(6) 0.4015(3)
H1 H 0.1570 -1.0052 0.3756
H2 H 0.2232 -1.0952 0.4094
C5 C 0.1084(5) -0.8545(5) 0.4232(3)
H3 H 0.1138 -0.8004 0.4422
H4 H 0.1833 -0.8881 0.4079
C6 C -0.0605(5) -0.7853(6) 0.5129(3)
H5 H -0.0704 -0.7474 0.4783
H6 H -0.1307 -0.7715 0.5383
C7 C 0.0259(6) -1.1052(6) 0.3525(3)
C8 C -0.0063(7) -1.1851(8) 0.3347(4)
H7 H 0.0306 -1.2525 0.3402
C9 C -0.0998(9) -1.1561(10) 0.3077(5)
H8 H -0.1234 -1.2055 0.2945
C10 C -0.1528(8) -1.0587(9) 0.3013(4)
H9 H -0.2157 -1.0415 0.2858
C11 C -0.1162(6) -0.9867(6) 0.3170(3)
C12 C -0.0289(6) -1.0053(6) 0.3437(3)
H10 H -0.0078 -0.9528 0.3554
C13 C -0.1841(7) -0.8307(8) 0.2577(4)
H11 H -0.1557 -0.8588 0.2255
C14 C -0.2287(5) -0.8120(6) 0.3419(3)
H12 H -0.2376 -0.8252 0.3792
C15 C 0.0972(6) -0.7598(5) 0.3362(3)
C16 C 0.0397(7) -0.7280(7) 0.2947(4)
H13 H -0.0314 -0.7410 0.2988
C17 C 0.0872(9) -0.6762(9) 0.2462(5)
H14 H 0.0474 -0.6552 0.2186
C18 C 0.1938(8) -0.6561(8) 0.2393(4)
H15 H 0.2274 -0.6236 0.2071
C19 C 0.2475(6) -0.6868(7) 0.2828(3)
C20 C 0.2024(6) -0.7384(6) 0.3305(3)
H16 H 0.2416 -0.7586 0.3584
C21 C 0.4387(7) -0.6694(7) 0.2350(3)
H17 H 0.4346 -0.6851 0.2017
C22 C 0.3967(5) -0.6388(6) 0.3171(3)
H18 H 0.3564 -0.6288 0.3516
C23 C 0.0039(6) -0.6614(6) 0.5489(3)
C24 C -0.1001(6) -0.5997(6) 0.5625(4)
H19 H -0.1634 -0.6198 0.5585
C25 C -0.1102(8) -0.5098(8) 0.5816(5)
H20 H -0.1810 -0.4704 0.5914
C26 C -0.0191(7) -0.4752(8) 0.5871(4)
H21 H -0.0268 -0.4121 0.5986
C27 C 0.0833(6) -0.5378(6) 0.5748(3)
C28 C 0.0956(6) -0.6279(6) 0.5556(3)
H22 H 0.1666 -0.6678 0.5469
C29 C 0.2757(7) -0.5059(7) 0.5414(4)
H23 H 0.2881 -0.5324 0.5089
C30 C 0.1996(7) -0.4574(7) 0.6181(4)
H24 H 0.1482 -0.4426 0.6495
C31 C 0.9028(7) -0.0258(9) -0.0052(4)
C32 C 0.9454(7) -0.0619(8) 0.0409(4)
C33 C 1.0416(8) -0.0352(9) 0.0468(4)
C34 C 0.8004(9) -0.0596(10) -0.0126(5)
H25 H 0.7790 -0.0266 -0.0462
H26 H 0.8157 -0.1328 -0.0131
C35 C 0.6221(7) -0.0729(9) 0.0378(5)
C36 C 0.5405(10) -0.0578(11) 0.0840(5)
C37 C 0.4445(9) -0.0970(12) 0.0919(4)
C38 C 0.4302(8) -0.1515(10) 0.0535(5)
C39 C 0.5118(10) -0.1667(9) 0.0073(5)
C40 C 0.6078(8) -0.1274(9) -0.0005(4)
C41 C 0.8891(8) -0.1295(8) 0.0862(4)
H27 H 0.8411 -0.1626 0.0733
H28 H 0.9442 -0.1816 0.1016
C42 C 0.7495(7) -0.1001(7) 0.1665(3)
C43 C 0.6707(7) -0.0298(7) 0.1959(4)
H29 H 0.6721 0.0391 0.1874
C44 C 0.5914(7) -0.0606(8) 0.2370(4)
H30 H 0.5376 -0.0125 0.2556
C45 C 0.5904(7) -0.1663(8) 0.2517(3)
H31 H 0.5380 -0.1891 0.2801
C46 C 0.6695(7) -0.2314(6) 0.2222(3)
C47 C 0.7533(7) -0.2035(7) 0.1805(3)
H32 H 0.8089 -0.2519 0.1630
C48 C 0.6907(8) -0.4092(8) 0.2019(4)
H33 H 0.7068 -0.3956 0.1646
C49 C 0.6503(7) -0.3902(7) 0.2856(3)
H34 H 0.6298 -0.3598 0.3172
C50 C 1.0956(9) -0.0805(9) 0.0983(5)
H35 H 1.0570 -0.1321 0.1200
H36 H 1.1734 -0.1119 0.0872
C51 C 1.1475(5) -0.0292(5) 0.1675(2)
C52 C 1.1626(6) 0.0542(4) 0.1878(3)
H37 H 1.1338 0.1199 0.1736
C53 C 1.2209(6) 0.0393(4) 0.2294(3)
H38 H 1.2310 0.0951 0.2430
C54 C 1.2640(5) -0.0589(5) 0.2507(2)
H39 H 1.3030 -0.0689 0.2785
C55 C 1.2489(5) -0.1423(4) 0.2303(2)
C56 C 1.1906(5) -0.1274(5) 0.1888(2)
H40 H 1.1805 -0.1831 0.1752
N1 N -0.1718(5) -0.8804(5) 0.3056(3)
N2 N -0.2399(5) -0.7390(6) 0.2612(3)
N3 N -0.2672(5) -0.7268(5) 0.3154(3)
N4 N 0.3565(5) -0.6650(5) 0.2775(3)
N5 N 0.5287(5) -0.6483(6) 0.2466(3)
N6 N 0.5002(5) -0.6296(5) 0.2994(3)
N7 N 0.1811(5) -0.5028(5) 0.5780(3)
N8 N 0.3491(6) -0.4679(6) 0.5561(3)
N9 N 0.2988(5) -0.4381(5) 0.6057(3)
N10 N 0.6725(6) -0.3409(6) 0.2362(3)
N11 N 0.6824(6) -0.4991(6) 0.2292(3)
N12 N 0.6619(6) -0.4887(6) 0.2829(3)
O1 O 0.1154(4) -1.1361(4) 0.3773(2)
O2 O 0.0452(4) -0.8125(4) 0.3806(2)
O3 O 0.0260(4) -0.7547(4) 0.5315(2)
O4 O 0.7151(8) -0.0313(8) 0.0311(4)
O5 O 0.8232(5) -0.0627(5) 0.1265(3)
O6 O 1.0867(6) -0.0042(7) 0.1272(4)
O7 O 0.5447(4) -0.7138(4) 0.4084(2)
O8 O 0.3832(3) -0.8223(3) 0.40601(18)
O9 O 0.3325(4) -0.6594(4) 0.4597(2)
O10 O 0.482(2) -0.7555(18) 0.5185(9)
O11 O 0.3426(4) -0.8599(4) 0.5160(2)
O12 O 0.3336(6) -0.7153(6) 0.6102(3)
O13 O 0.3702(4) -1.0216(4) 0.4499(2)
O14 O 0.2243(5) -1.0221(5) 0.5494(2)
O15 O 0.4578(3) -1.0748(4) 0.55019(18)
O16 O 0.4262(5) -0.9266(4) 0.6179(2)
O17 O 0.4305(4) -1.1166(4) 0.6705(2)
O18 O 0.6108(4) -1.0384(4) 0.6621(2)
N13 N 1.2972(6) -0.2380(5) 0.2488(3)
C57 C 1.3136(6) -0.2707(5) 0.3023(2)
H41 H 1.2938 -0.2305 0.3304
N14 N 1.3655(8) -0.3755(5) 0.3056(3)
N15 N 1.3812(11) -0.4076(6) 0.2540(4)
C58 C 1.3390(9) -0.3227(8) 0.2189(3)
N16 N 0.415(2) -0.203(3) -0.1086(15)
N17 N 0.528(2) -0.2521(19) -0.1242(9)
C59 C 0.581(2) -0.264(2) -0.0795(12)
C60 C 0.390(6) -0.161(5) -0.062(2)
N18 N 0.490(2) -0.186(2) -0.0451(12)
O19 O 0.8244(18) -0.6239(19) 0.1509(10)
O20 O 0.5321(12) -0.7742(10) 0.6221(5)
O21 O 0.4683(5) -0.4952(5) 0.3795(3)
O22 O 0.685(3) -0.755(3) 0.1569(15)
C1A C -0.0719(5) -0.9686(5) 0.5468(3)
C2A C -0.0487(5) -1.0701(5) 0.5385(3)
C3A C 0.0257(5) -1.1023(5) 0.4921(3)
C4A C -0.1499(6) -0.9349(6) 0.5985(3)
H1A H -0.1570 -0.9948 0.6244
H2A H -0.2232 -0.9048 0.5906
C5A C -0.1084(5) -1.1455(5) 0.5768(3)
H3A H -0.1138 -1.1996 0.5578
H4A H -0.1833 -1.1119 0.5921
C6A C 0.0605(5) -1.2147(6) 0.4871(3)
H5A H 0.0704 -1.2526 0.5217
H6A H 0.1307 -1.2285 0.4617
C7A C -0.0259(6) -0.8948(6) 0.6475(3)
C8A C 0.0063(7) -0.8149(8) 0.6653(4)
H7A H -0.0306 -0.7475 0.6598
C9A C 0.0998(9) -0.8439(10) 0.6923(5)
H8A H 0.1234 -0.7945 0.7055
C10A C 0.1528(8) -0.9413(9) 0.6987(4)
H9A H 0.2157 -0.9585 0.7142
C11A C 0.1162(6) -1.0133(6) 0.6830(3)
C12A C 0.0289(6) -0.9947(6) 0.6563(3)
H10A H 0.0078 -1.0472 0.6446
C13A C 0.1841(7) -1.1693(8) 0.7423(4)
H11A H 0.1557 -1.1412 0.7745
C14A C 0.2287(5) -1.1880(6) 0.6581(3)
H12A H 0.2376 -1.1748 0.6208
C15A C -0.0972(6) -1.2402(5) 0.6638(3)
C16A C -0.0397(7) -1.2720(7) 0.7053(4)
H13A H 0.0314 -1.2590 0.7012
C17A C -0.0872(9) -1.3238(9) 0.7538(5)
H14A H -0.0474 -1.3448 0.7814
C18A C -0.1938(8) -1.3439(8) 0.7607(4)
H15A H -0.2274 -1.3764 0.7929
C19A C -0.2475(6) -1.3132(7) 0.7172(3)
C20A C -0.2024(6) -1.2616(6) 0.6695(3)
H16A H -0.2416 -1.2414 0.6416
C21A C -0.4387(7) -1.3306(7) 0.7650(3)
H17A H -0.4346 -1.3149 0.7983
C22A C -0.3967(5) -1.3612(6) 0.6829(3)
H18A H -0.3564 -1.3712 0.6484
C23A C -0.0039(6) -1.3386(6) 0.4511(3)
C24A C 0.1001(6) -1.4003(6) 0.4375(4)
H19A H 0.1634 -1.3802 0.4415
C25A C 0.1102(8) -1.4902(8) 0.4184(5)
H20A H 0.1810 -1.5296 0.4086
C26A C 0.0191(7) -1.5248(8) 0.4129(4)
H21A H 0.0268 -1.5879 0.4014
C27A C -0.0833(6) -1.4622(6) 0.4252(3)
C28A C -0.0956(6) -1.3721(6) 0.4444(3)
H22A H -0.1666 -1.3322 0.4531
C29A C -0.2757(7) -1.4941(7) 0.4586(4)
H23A H -0.2881 -1.4676 0.4911
C30A C -0.1996(7) -1.5426(7) 0.3819(4)
H24A H -0.1482 -1.5574 0.3505
N1A N 0.1718(5) -1.1196(5) 0.6944(3)
N2A N 0.2399(5) -1.2610(6) 0.7388(3)
N3A N 0.2672(5) -1.2732(5) 0.6846(3)
N4A N -0.3565(5) -1.3350(5) 0.7225(3)
N5A N -0.5287(5) -1.3517(6) 0.7534(3)
N6A N -0.5002(5) -1.3704(5) 0.7006(3)
N7A N -0.1811(5) -1.4972(5) 0.4220(3)
N8A N -0.3491(6) -1.5321(6) 0.4439(3)
N9A N -0.2988(5) -1.5619(5) 0.3943(3)
O1A O -0.1154(4) -0.8639(4) 0.6227(2)
O2A O -0.0452(4) -1.1875(4) 0.6194(2)
O3A O -0.0260(4) -1.2453(4) 0.4685(2)
C31A C 1.0972(7) 0.0258(9) 0.0052(4)
C32A C 1.0546(7) 0.0619(8) -0.0409(4)
C33A C 0.9584(8) 0.0352(9) -0.0468(4)
C34A C 1.1996(9) 0.0596(10) 0.0126(5)
H25A H 1.2210 0.0266 0.0462
H26A H 1.1843 0.1328 0.0131
C35A C 1.3779(7) 0.0729(9) -0.0378(5)
C36A C 1.4595(10) 0.0578(11) -0.0840(5)
C37A C 1.5555(9) 0.0970(12) -0.0919(4)
C38A C 1.5698(8) 0.1515(10) -0.0535(5)
C39A C 1.4882(10) 0.1667(9) -0.0073(5)
C40A C 1.3922(8) 0.1274(9) 0.0005(4)
C41A C 1.1109(8) 0.1295(8) -0.0862(4)
H27A H 1.1589 0.1626 -0.0733
H28A H 1.0558 0.1816 -0.1016
C42A C 1.2505(7) 0.1001(7) -0.1665(3)
C43A C 1.3293(7) 0.0298(7) -0.1959(4)
H29A H 1.3279 -0.0391 -0.1874
C44A C 1.4086(7) 0.0606(8) -0.2370(4)
H30A H 1.4624 0.0125 -0.2556
C45A C 1.4096(7) 0.1663(8) -0.2517(3)
H31A H 1.4620 0.1891 -0.2801
C46A C 1.3305(7) 0.2314(6) -0.2222(3)
C47A C 1.2467(7) 0.2035(7) -0.1805(3)
H32A H 1.1911 0.2519 -0.1630
C48A C 1.3093(8) 0.4092(8) -0.2019(4)
H33A H 1.2932 0.3956 -0.1646
C49A C 1.3497(7) 0.3902(7) -0.2856(3)
H34A H 1.3702 0.3598 -0.3172
C50A C 0.9044(9) 0.0805(9) -0.0983(5)
H35A H 0.9430 0.1321 -0.1200
H36A H 0.8266 0.1119 -0.0872
C51A C 0.8525(5) 0.0292(5) -0.1675(2)
C52A C 0.8374(6) -0.0542(4) -0.1878(3)
H37A H 0.8662 -0.1199 -0.1736
C53A C 0.7791(6) -0.0393(4) -0.2294(3)
H38A H 0.7690 -0.0951 -0.2430
C54A C 0.7360(5) 0.0589(5) -0.2507(2)
H39A H 0.6970 0.0689 -0.2785
C55A C 0.7511(5) 0.1423(4) -0.2303(2)
C56A C 0.8094(5) 0.1274(5) -0.1888(2)
H40A H 0.8195 0.1831 -0.1752
N10A N 1.3275(6) 0.3409(6) -0.2362(3)
N11A N 1.3176(6) 0.4991(6) -0.2292(3)
N12A N 1.3381(6) 0.4887(6) -0.2829(3)
O4A O 1.2849(8) 0.0313(8) -0.0311(4)
O5A O 1.1768(5) 0.0627(5) -0.1265(3)
O6A O 0.9133(6) 0.0042(7) -0.1272(4)
N13A N 0.7028(6) 0.2380(5) -0.2488(3)
C57A C 0.6864(6) 0.2707(5) -0.3023(2)
H41A H 0.7062 0.2305 -0.3304
N14A N 0.6345(8) 0.3755(5) -0.3056(3)
N15A N 0.6188(11) 0.4076(6) -0.2540(4)
C58A C 0.6610(9) 0.3227(8) -0.2189(3)
N16A N 1.585(2) 0.203(3) 0.1086(15)
N17A N 1.472(2) 0.2521(19) 0.1242(9)
C59A C 1.419(2) 0.264(2) 0.0795(12)
C60A C 1.610(6) 0.161(5) 0.062(2)
N18A N 1.510(2) 0.186(2) 0.0451(12)
Zn1A Zn -0.60778(7) -1.39757(7) 0.65298(3)
Zn2A Zn -0.68580(9) -1.36571(9) 0.79957(4)
Mo1A Mo -0.43830(4) -1.23842(4) 0.54673(2)
Mo2A Mo -0.45190(7) -1.20130(6) 0.41106(3)
Mo3A Mo -0.34895(4) -1.00735(5) 0.48370(2)
Mo4A Mo -0.52476(4) -0.94066(5) 0.37476(2)
O7A O -0.5447(4) -1.2862(4) 0.5916(2)
O8A O -0.3832(3) -1.1777(3) 0.59399(18)
O9A O -0.3325(4) -1.3406(4) 0.5403(2)
O10A O -0.482(2) -1.2445(18) 0.4815(9)
O11A O -0.3426(4) -1.1401(4) 0.4840(2)
O12A O -0.3336(6) -1.2847(6) 0.3898(3)
O13A O -0.3702(4) -0.9784(4) 0.5501(2)
O14A O -0.2243(5) -0.9779(5) 0.4506(2)
O15A O -0.4578(3) -0.9252(4) 0.44981(18)
O16A O -0.4262(5) -1.0734(4) 0.3821(2)
O17A O -0.4305(4) -0.8834(4) 0.3295(2)
O18A O -0.6108(4) -0.9616(4) 0.3379(2)
O19A O -0.8244(18) -1.3761(19) 0.8491(10)
O20A O -0.5321(12) -1.2258(10) 0.3779(5)
O21A O -0.4683(5) -1.5048(5) 0.6205(3)
O22A O -0.685(3) -1.245(3) 0.8431(15)
Zn1_2 Zn -0.39222(7) -1.60243(7) 0.34702(3)
Zn1_3 Zn -0.39222(7) -0.60243(7) 0.34702(3)
Zn1A_2 Zn 0.39222(7) -1.39757(7) 0.65298(3)
Zn1A_3 Zn 0.39222(7) -0.39757(7) 0.65298(3)
Zn1A_4 Zn 1.39222(7) 0.60243(7) -0.34702(3)
Zn2_2 Zn -0.31420(9) -0.63429(9) 0.20043(4)
Zn2A_2 Zn 0.31420(9) -1.36571(9) 0.79957(4)
Zn2A_3 Zn 1.31420(9) 0.63429(9) -0.20043(4)
Mo1_2 Mo -0.56170(4) -0.76158(4) 0.45327(2)
Mo1A_2 Mo 0.56170(4) -1.23842(4) 0.54673(2)
Mo4_2 Mo -0.47524(4) -1.05934(5) 0.62524(2)
Mo4A_2 Mo 0.47524(4) -0.94066(5) 0.37476(2)
N2_2 N 0.7601(5) -0.7390(6) 0.2612(3)
N2A_2 N -0.7601(5) -1.2610(6) 0.7388(3)
N3_2 N 0.7328(5) -0.7268(5) 0.3154(3)
N3A_2 N -0.7328(5) -1.2732(5) 0.6846(3)
N9_2 N -0.7012(5) -1.4381(5) 0.6057(3)
N9A_2 N 0.7012(5) -0.5619(5) 0.3943(3)
N11A_2 N -0.6824(6) -1.5009(6) 0.7708(3)
N12A_2 N -0.6619(6) -1.5113(6) 0.7171(3)
O8_2 O -0.6168(3) -0.8223(3) 0.40601(18)
O8A_2 O 0.6168(3) -1.1777(3) 0.59399(18)
O13_2 O -0.6298(4) -1.0216(4) 0.4499(2)
O13A_2 O 0.6298(4) -0.9784(4) 0.5501(2)
O15_2 O -0.5422(3) -1.0748(4) 0.55019(18)
O15A_2 O 0.5422(3) -0.9252(4) 0.44981(18)
loop_
_geom_bond_atom_site_label_1
_geom_bond_atom_site_label_2
_geom_bond_site_symmetry_1
_geom_bond_site_symmetry_2
Zn1 N6 1_555 1_555
Zn2 N5 1_555 1_555
Mo1 O7 1_555 1_555
Mo2 O10 1_555 1_555
Mo3 O11 1_555 1_555
Mo4 O15 1_555 1_555
C1 C2 1_555 1_555
C2 C3 1_555 1_555
C3 C6 1_555 1_555
C4 C1 1_555 1_555
H1 C4 1_555 1_555
H2 C4 1_555 1_555
C5 C2 1_555 1_555
H3 C5 1_555 1_555
H4 C5 1_555 1_555
C6 H5 1_555 1_555
H6 C6 1_555 1_555
C7 C8 1_555 1_555
C8 H7 1_555 1_555
C9 C8 1_555 1_555
H8 C9 1_555 1_555
C10 C9 1_555 1_555
H9 C10 1_555 1_555
C11 C10 1_555 1_555
C12 C7 1_555 1_555
H10 C12 1_555 1_555
C13 H11 1_555 1_555
C14 H12 1_555 1_555
C15 C16 1_555 1_555
C16 H13 1_555 1_555
C17 C16 1_555 1_555
H14 C17 1_555 1_555
C18 C17 1_555 1_555
H15 C18 1_555 1_555
C19 C18 1_555 1_555
C20 C15 1_555 1_555
H16 C20 1_555 1_555
C21 H17 1_555 1_555
C22 H18 1_555 1_555
C23 C24 1_555 1_555
C24 H19 1_555 1_555
C25 C24 1_555 1_555
H20 C25 1_555 1_555
C26 C25 1_555 1_555
H21 C26 1_555 1_555
C27 C26 1_555 1_555
C28 C23 1_555 1_555
H22 C28 1_555 1_555
C29 H23 1_555 1_555
C30 H24 1_555 1_555
C31 C32 1_555 1_555
C32 C33 1_555 1_555
C33 C50 1_555 1_555
C34 C31 1_555 1_555
H25 C34 1_555 1_555
H26 C34 1_555 1_555
C35 C36 1_555 1_555
C36 C37 1_555 1_555
C37 C38 1_555 1_555
C38 C39 1_555 1_555
C39 C40 1_555 1_555
C40 C35 1_555 1_555
C41 C32 1_555 1_555
H27 C41 1_555 1_555
H28 C41 1_555 1_555
C42 C43 1_555 1_555
C43 H29 1_555 1_555
C44 C43 1_555 1_555
H30 C44 1_555 1_555
C45 C44 1_555 1_555
H31 C45 1_555 1_555
C46 C45 1_555 1_555
C47 C42 1_555 1_555
H32 C47 1_555 1_555
C48 H33 1_555 1_555
C49 H34 1_555 1_555
C50 H35 1_555 1_555
H36 C50 1_555 1_555
C51 C52 1_555 1_555
C52 H37 1_555 1_555
C53 C52 1_555 1_555
H38 C53 1_555 1_555
C54 C53 1_555 1_555
H39 C54 1_555 1_555
C55 C54 1_555 1_555
C56 C51 1_555 1_555
H40 C56 1_555 1_555
N1 C11 1_555 1_555
N2 C13 1_555 1_555
N3 C14 1_555 1_555
N4 C19 1_555 1_555
N5 C21 1_555 1_555
N6 C22 1_555 1_555
N7 C27 1_555 1_555
N8 C29 1_555 1_555
N9 C30 1_555 1_555
N10 C46 1_555 1_555
N11 Zn2 1_555 1_555
N12 Zn1 1_555 1_555
O1 C4 1_555 1_555
O2 C5 1_555 1_555
O3 C6 1_555 1_555
O4 C34 1_555 1_555
O5 C41 1_555 1_555
O6 C50 1_555 1_555
O7 Zn1 1_555 1_555
O8 Mo1 1_555 1_555
O9 Mo1 1_555 1_555
O10 Mo1 1_555 1_555
O11 Mo1 1_555 1_555
O12 Mo2 1_555 1_555
O13 Mo3 1_555 1_555
O14 Mo3 1_555 1_555
O15 Mo3 1_555 1_555
O16 Mo2 1_555 1_555
O17 Mo4 1_555 1_555
O18 Mo4 1_555 1_555
N13 C55 1_555 1_555
C57 N13 1_555 1_555
H41 C57 1_555 1_555
N14 C57 1_555 1_555
N15 N14 1_555 1_555
C58 N13 1_555 1_555
N16 N17 1_555 1_555
N17 C59 1_555 1_555
C59 N18 1_555 1_555
C60 N16 1_555 1_555
N18 C39 1_555 1_555
O19 Zn2 1_555 1_555
O20 Mo2 1_555 1_555
O21 Zn1 1_555 1_555
O22 Zn2 1_555 1_555
C1A C3 1_555 1_555
C2A C1A 1_555 1_555
C3A C1 1_555 1_555
C4A C1A 1_555 1_555
H1A C4A 1_555 1_555
H2A C4A 1_555 1_555
C5A C2A 1_555 1_555
H3A C5A 1_555 1_555
H4A C5A 1_555 1_555
C6A C3A 1_555 1_555
H5A C6A 1_555 1_555
H6A C6A 1_555 1_555
C7A C8A 1_555 1_555
C8A H7A 1_555 1_555
C9A C8A 1_555 1_555
H8A C9A 1_555 1_555
C10A C9A 1_555 1_555
H9A C10A 1_555 1_555
C11A C10A 1_555 1_555
C12A C7A 1_555 1_555
H10A C12A 1_555 1_555
C13A H11A 1_555 1_555
C14A H12A 1_555 1_555
C15A C16A 1_555 1_555
C16A H13A 1_555 1_555
C17A C16A 1_555 1_555
H14A C17A 1_555 1_555
C18A C17A 1_555 1_555
H15A C18A 1_555 1_555
C19A C18A 1_555 1_555
C20A C15A 1_555 1_555
H16A C20A 1_555 1_555
C21A H17A 1_555 1_555
C22A H18A 1_555 1_555
C23A C24A 1_555 1_555
C24A H19A 1_555 1_555
C25A C24A 1_555 1_555
H20A C25A 1_555 1_555
C26A C25A 1_555 1_555
H21A C26A 1_555 1_555
C27A C26A 1_555 1_555
C28A C23A 1_555 1_555
H22A C28A 1_555 1_555
C29A H23A 1_555 1_555
C30A H24A 1_555 1_555
N1A C11A 1_555 1_555
N2A C13A 1_555 1_555
N3A C14A 1_555 1_555
N4A C19A 1_555 1_555
N5A C21A 1_555 1_555
N6A C22A 1_555 1_555
N7A C27A 1_555 1_555
N8A C29A 1_555 1_555
N9A C30A 1_555 1_555
O1A C4A 1_555 1_555
O2A C5A 1_555 1_555
O3A C6A 1_555 1_555
C31A C33 1_555 1_555
C32A C31A 1_555 1_555
C33A C31 1_555 1_555
C34A C31A 1_555 1_555
H25A C34A 1_555 1_555
H26A C34A 1_555 1_555
C35A C36A 1_555 1_555
C36A C37A 1_555 1_555
C37A C38A 1_555 1_555
C38A C39A 1_555 1_555
C39A C40A 1_555 1_555
C40A C35A 1_555 1_555
C41A C32A 1_555 1_555
H27A C41A 1_555 1_555
H28A C41A 1_555 1_555
C42A C43A 1_555 1_555
C43A H29A 1_555 1_555
C44A C43A 1_555 1_555
H30A C44A 1_555 1_555
C45A C44A 1_555 1_555
H31A C45A 1_555 1_555
C46A C45A 1_555 1_555
C47A C42A 1_555 1_555
H32A C47A 1_555 1_555
C48A H33A 1_555 1_555
C49A H34A 1_555 1_555
C50A C33A 1_555 1_555
H35A C50A 1_555 1_555
H36A C50A 1_555 1_555
C51A C52A 1_555 1_555
C52A H37A 1_555 1_555
C53A C52A 1_555 1_555
H38A C53A 1_555 1_555
C54A C53A 1_555 1_555
H39A C54A 1_555 1_555
C55A C54A 1_555 1_555
C56A C51A 1_555 1_555
H40A C56A 1_555 1_555
N10A C46A 1_555 1_555
N11A C48A 1_555 1_555
N12A C49A 1_555 1_555
O4A C34A 1_555 1_555
O5A C41A 1_555 1_555
O6A C50A 1_555 1_555
N13A C55A 1_555 1_555
C57A N13A 1_555 1_555
H41A C57A 1_555 1_555
N14A C57A 1_555 1_555
N15A N14A 1_555 1_555
C58A N13A 1_555 1_555
N16A N17A 1_555 1_555
N17A C59A 1_555 1_555
C59A N18A 1_555 1_555
C60A N16A 1_555 1_555
N18A C39A 1_555 1_555
Zn1A N6A 1_555 1_555
Zn2A N5A 1_555 1_555
Mo1A O7A 1_555 1_555
Mo2A O10A 1_555 1_555
Mo3A O11A 1_555 1_555
Mo4A O15A 1_555 1_555
O7A Zn1A 1_555 1_555
O8A Mo1A 1_555 1_555
O9A Mo1A 1_555 1_555
O10A Mo1A 1_555 1_555
O11A Mo1A 1_555 1_555
O12A Mo2A 1_555 1_555
O13A Mo3A 1_555 1_555
O14A Mo3A 1_555 1_555
O15A Mo3A 1_555 1_555
O16A Mo2A 1_555 1_555
O17A Mo4A 1_555 1_555
O18A Mo4A 1_555 1_555
O19A Zn2A 1_555 1_555
O20A Mo2A 1_555 1_555
O21A Zn1A 1_555 1_555
O22A Zn2A 1_555 1_555
Zn1_2 N9A 1_555 1_555
Zn1_3 N3 1_555 1_555
Zn1A_2 N3A 1_555 1_555
Zn1A_3 N9 1_555 1_555
Zn1A_4 N12A 1_555 1_555
Zn2_2 N2 1_555 1_555
Zn2A_2 N2A 1_555 1_555
Zn2A_3 N11A 1_555 1_555
Mo1_2 O15A 1_555 1_555
Mo1A_2 O15 1_555 1_555
Mo4_2 O8A 1_555 1_555
Mo4A_2 O8 1_555 1_555
N2_2 Zn2 1_555 1_555
N2A_2 Zn2A 1_555 1_555
N3_2 Zn1 1_555 1_555
N3A_2 Zn1A 1_555 1_555
N9_2 Zn1A 1_555 1_555
N9A_2 Zn1 1_555 1_555
N11A_2 Zn2A 1_555 1_555
N12A_2 Zn1A 1_555 1_555
O8_2 Mo4A 1_555 1_555
O8A_2 Mo4 1_555 1_555
O13_2 Mo4A 1_555 1_555
O13A_2 Mo4 1_555 1_555
O15_2 Mo1A 1_555 1_555
O15A_2 Mo1 1_555 1_555
Mo4 O16 1_555 1_555
C7 O1 1_555 1_555
C11 C12 1_555 1_555
C13 N1 1_555 1_555
C14 N1 1_555 1_555
C15 O2 1_555 1_555
C19 C20 1_555 1_555
C21 N4 1_555 1_555
C22 N4 1_555 1_555
C23 O3 1_555 1_555
C27 C28 1_555 1_555
C29 N7 1_555 1_555
C30 N7 1_555 1_555
C35 O4 1_555 1_555
C42 O5 1_555 1_555
C46 C47 1_555 1_555
C48 N10 1_555 1_555
C48 N11 1_555 1_555
C49 N10 1_555 1_555
C49 N12 1_555 1_555
C51 O6 1_555 1_555
C55 C56 1_555 1_555
N2 N3 1_555 1_555
N5 N6 1_555 1_555
N8 N9 1_555 1_555
N11 N12 1_555 1_555
O13 Mo4A_2 1_555 1_555
N15 C58 1_555 1_555
C60 N18 1_555 1_555
C2A C3A 1_555 1_555
C7A O1A 1_555 1_555
C11A C12A 1_555 1_555
C13A N1A 1_555 1_555
C14A N1A 1_555 1_555
C15A O2A 1_555 1_555
C19A C20A 1_555 1_555
C21A N4A 1_555 1_555
C22A N4A 1_555 1_555
C23A O3A 1_555 1_555
C27A C28A 1_555 1_555
C29A N7A 1_555 1_555
C30A N7A 1_555 1_555
N2A N3A 1_555 1_555
N5A N6A 1_555 1_555
N8A N9A 1_555 1_555
C32A C33A 1_555 1_555
C35A O4A 1_555 1_555
C42A O5A 1_555 1_555
C46A C47A 1_555 1_555
C48A N10A 1_555 1_555
C49A N10A 1_555 1_555
C51A O6A 1_555 1_555
C55A C56A 1_555 1_555
N11A N12A 1_555 1_555
N15A C58A 1_555 1_555
C60A N18A 1_555 1_555
Mo4A O16A 1_555 1_555
O13A Mo4_2 1_555 1_555
Mo1_2 O8_2 1_555 1_555
Mo1A_2 O8A_2 1_555 1_555
Mo4_2 O15_2 1_555 1_555
Mo4A_2 O15A_2 1_555 1_555
N2_2 N3_2 1_555 1_555
N2A_2 N3A_2 1_555 1_555
N11A_2 N12A_2 1_555 1_555

#END
