
#######################################################################
#
#                 Cambridge Crystallographic Data Centre
#                                CCDC 
#
#######################################################################
#
# If this CIF has been generated from an entry in the Cambridge 
# Structural Database, then it will include bibliographic, chemical, 
# crystal, experimental, refinement or atomic coordinate data resulting 
# from the CCDC's data processing and validation procedures.
#
#######################################################################

data_MIHLIZ
_chemical_formula_moiety         '(C48 H31 N4 O10 Pr1)n'
_symmetry_cell_setting           triclinic
_symmetry_space_group_name_H-M   'P -1'
_symmetry_Int_Tables_number      2
_space_group_name_Hall           '-P 1'
loop_
_symmetry_equiv_pos_site_id
_symmetry_equiv_pos_as_xyz
1 x,y,z
2 -x,-y,-z
_cell_length_a                   9.6357(2)
_cell_length_b                   13.9203(3)
_cell_length_c                   17.2875(5)
_cell_angle_alpha                98.1574(9)
_cell_angle_beta                 89.7511(9)
_cell_angle_gamma                89.1062(16)
_cell_volume                     2295.01
loop_
_atom_site_label
_atom_site_type_symbol
_atom_site_fract_x
_atom_site_fract_y
_atom_site_fract_z
Pr1 Pr -0.27000(2) 0.398402(17) 0.513079(12)
C1 C -0.1701(4) 0.1139(3) 1.0443(2)
C2 C -0.1564(4) 0.2072(3) 1.0169(2)
H1 H -0.1089 0.2621 1.0424
C3 C -0.2243(4) 0.2009(3) 0.9483(2)
H2 H -0.2335 0.2501 0.9157
C4 C -0.2812(4) 0.1026(3) 0.9340(2)
C5 C -0.3606(4) 0.0699(3) 0.8689(2)
C6 C -0.4139(4) -0.0243(3) 0.8523(2)
C7 C -0.5019(4) -0.0608(3) 0.7889(3)
H3 H -0.5367 -0.0250 0.7501
C8 C -0.5270(4) -0.1549(3) 0.7937(2)
H4 H -0.5815 -0.1970 0.7584
C9 C -0.4578(4) -0.1806(3) 0.8610(2)
C10 C -0.4554(4) -0.2718(3) 0.8860(2)
C11 C -0.3830(4) -0.2965(3) 0.9511(2)
C12 C -0.3771(4) -0.3933(3) 0.9719(2)
H5 H -0.4270 -0.4480 0.9482
C13 C -0.2860(4) -0.3909(3) 1.0323(2)
H6 H -0.2588 -0.4437 1.0584
C14 C -0.2394(4) -0.2923(3) 1.0485(2)
C15 C -0.1466(4) -0.2596(3) 1.1089(2)
C16 C -0.1130(4) -0.1618(3) 1.1325(2)
C17 C -0.0209(4) -0.1248(3) 1.1947(2)
H7 H 0.0280 -0.1623 1.2278
C18 C -0.0163(4) -0.0267(3) 1.1976(2)
H8 H 0.0344 0.0166 1.2340
C19 C -0.1010(4) -0.0002(3) 1.1362(2)
C20 C -0.1099(4) 0.0926(3) 1.1142(2)
N1 N -0.2432(3) 0.0512(2) 0.99294(18)
N2 N -0.3906(3) -0.0991(2) 0.89453(18)
H10 H -0.3400 -0.0955 0.9370
N3 N -0.3004(3) -0.2349(2) 0.99932(17)
N4 N -0.1594(3) -0.0829(2) 1.09980(17)
H12 H -0.2184 -0.0854 1.0609
C21 C -0.3909(4) 0.1398(3) 0.8120(2)
C22 C -0.4722(4) 0.2227(3) 0.8348(2)
H13 H -0.5165 0.2317 0.8846
C23 C -0.4890(5) 0.2926(3) 0.7850(3)
H14 H -0.5441 0.3491 0.8012
C24 C -0.4259(4) 0.2800(3) 0.7123(2)
H15 H -0.4367 0.3281 0.6789
C25 C -0.3463(4) 0.1965(3) 0.6881(2)
C26 C -0.3308(4) 0.1266(3) 0.7382(2)
H16 H -0.2782 0.0691 0.7213
C27 C -0.2797(5) 0.1830(4) 0.6084(3)
O1 O -0.2334(5) 0.0983(3) 0.5811(2)
H17 H -0.2121 0.0968 0.5338
O2 O -0.2795(4) 0.2526(2) 0.57053(17)
C28 C -0.5356(4) -0.3484(3) 0.8368(2)
C29 C -0.6613(4) -0.3805(3) 0.8631(2)
H18 H -0.6905 -0.3597 0.9154
C30 C -0.7447(4) -0.4426(3) 0.8137(2)
H19 H -0.8304 -0.4636 0.8324
C31 C -0.7027(4) -0.4736(3) 0.7376(2)
H20 H -0.7614 -0.5132 0.7029
C32 C -0.5736(4) -0.4465(3) 0.7119(2)
C33 C -0.4906(4) -0.3845(3) 0.7611(2)
H21 H -0.4026 -0.3665 0.7433
C34 C -0.5266(4) -0.4829(3) 0.6300(2)
O3 O -0.4004(2) -0.5057(2) 0.61909(14)
O4 O -0.6165(3) -0.4899(2) 0.57668(15)
C35 C -0.0697(4) -0.3303(3) 1.1509(2)
C36 C 0.0319(4) -0.3910(3) 1.1111(2)
H22 H 0.0394 -0.3960 1.0558
C37 C 0.1220(4) -0.4439(3) 1.1517(2)
H23 H 0.1903 -0.4853 1.1239
C38 C 0.1138(4) -0.4373(3) 1.2324(2)
H24 H 0.1806 -0.4697 1.2602
C39 C 0.0068(4) -0.3828(3) 1.2722(2)
C40 C -0.0850(4) -0.3299(3) 1.2315(2)
H25 H -0.1585 -0.2932 1.2589
C41 C -0.0086(4) -0.3791(3) 1.3595(2)
O5 O 0.0881(3) -0.4154(2) 1.39509(15)
O6 O -0.1178(3) -0.3424(2) 1.39152(16)
C42 C -0.0479(4) 0.1735(3) 1.1682(2)
C43 C 0.0658(4) 0.2253(3) 1.1476(2)
H26 H 0.1090 0.2073 1.0980
C44 C 0.1168(4) 0.3026(3) 1.1983(2)
H27 H 0.1947 0.3368 1.1833
C45 C 0.0549(4) 0.3303(3) 1.2709(2)
H28 H 0.0895 0.3839 1.3051
C46 C -0.0576(4) 0.2797(3) 1.2934(2)
C47 C -0.1082(4) 0.2009(3) 1.2425(2)
H29 H -0.1842 0.1655 1.2584
C48 C -0.1286(4) 0.3121(3) 1.3697(2)
O7 O -0.0757(3) 0.3806(2) 1.41593(15)
O8 O -0.2396(3) 0.2727(2) 1.38773(16)
O9 O -0.1777(3) 0.56768(19) 0.52073(14)
H30 H -0.1572 0.5971 0.4785
H31 H -0.0933 0.5851 0.5415
O10 O -0.5137(3) 0.3326(3) 0.49191(19)
H32 H -0.5813 0.3817 0.5126
H33 H -0.5011 0.2803 0.5184
Pr1_2 Pr -0.27000(2) -0.601598(17) 0.513079(12)
Pr1A Pr -0.73000(2) -0.398402(17) 0.486921(12)
Pr1A_2 Pr 0.27000(2) -0.398402(17) 1.486921(12)
Pr1_3 Pr -0.27000(2) 0.398402(17) 1.513079(12)
O3_2 O -0.4004(2) 0.4943(2) 0.61909(14)
O4A O -0.3835(3) 0.4899(2) 0.42332(15)
O5A O -0.0881(3) 0.4154(2) 0.60491(15)
O7_2 O -0.0757(3) 0.3806(2) 0.41593(15)
O8_2 O -0.2396(3) 0.2727(2) 0.38773(16)
loop_
_geom_bond_atom_site_label_1
_geom_bond_atom_site_label_2
_geom_bond_site_symmetry_1
_geom_bond_site_symmetry_2
Pr1 O2 1_555 1_555
C1 C2 1_555 1_555
C2 H1 1_555 1_555
C3 C2 1_555 1_555
H2 C3 1_555 1_555
C4 C3 1_555 1_555
C5 C4 1_555 1_555
C6 C5 1_555 1_555
C7 C6 1_555 1_555
H3 C7 1_555 1_555
C8 C7 1_555 1_555
H4 C8 1_555 1_555
C9 C8 1_555 1_555
C10 C9 1_555 1_555
C11 C10 1_555 1_555
C12 C11 1_555 1_555
H5 C12 1_555 1_555
C13 C12 1_555 1_555
H6 C13 1_555 1_555
C14 C13 1_555 1_555
C15 C14 1_555 1_555
C16 C15 1_555 1_555
C17 C16 1_555 1_555
H7 C17 1_555 1_555
C18 C17 1_555 1_555
H8 C18 1_555 1_555
C19 C18 1_555 1_555
C20 C1 1_555 1_555
N1 C1 1_555 1_555
N2 C6 1_555 1_555
H10 N2 1_555 1_555
N3 C11 1_555 1_555
N4 C16 1_555 1_555
H12 N4 1_555 1_555
C21 C5 1_555 1_555
C22 C21 1_555 1_555
H13 C22 1_555 1_555
C23 C22 1_555 1_555
H14 C23 1_555 1_555
C24 C23 1_555 1_555
H15 C24 1_555 1_555
C25 C24 1_555 1_555
C26 C21 1_555 1_555
H16 C26 1_555 1_555
C27 C25 1_555 1_555
O1 C27 1_555 1_555
H17 O1 1_555 1_555
O2 C27 1_555 1_555
C28 C10 1_555 1_555
C29 C28 1_555 1_555
H18 C29 1_555 1_555
C30 C29 1_555 1_555
H19 C30 1_555 1_555
C31 C30 1_555 1_555
H20 C31 1_555 1_555
C32 C31 1_555 1_555
C33 C28 1_555 1_555
H21 C33 1_555 1_555
C34 C32 1_555 1_555
O3 C34 1_555 1_555
O4 C34 1_555 1_555
C35 C15 1_555 1_555
C36 C35 1_555 1_555
H22 C36 1_555 1_555
C37 C36 1_555 1_555
H23 C37 1_555 1_555
C38 C37 1_555 1_555
H24 C38 1_555 1_555
C39 C38 1_555 1_555
C40 C35 1_555 1_555
H25 C40 1_555 1_555
C41 C39 1_555 1_555
O5 C41 1_555 1_555
O6 C41 1_555 1_555
C42 C20 1_555 1_555
C43 C42 1_555 1_555
H26 C43 1_555 1_555
C44 C43 1_555 1_555
H27 C44 1_555 1_555
C45 C44 1_555 1_555
H28 C45 1_555 1_555
C46 C45 1_555 1_555
C47 C42 1_555 1_555
H29 C47 1_555 1_555
C48 C46 1_555 1_555
O7 C48 1_555 1_555
O8 C48 1_555 1_555
O9 Pr1 1_555 1_555
H30 O9 1_555 1_555
H31 O9 1_555 1_555
O10 Pr1 1_555 1_555
H32 O10 1_555 1_555
H33 O10 1_555 1_555
Pr1_2 O3 1_555 1_555
Pr1A O4 1_555 1_555
Pr1A_2 O5 1_555 1_555
Pr1_3 O7 1_555 1_555
O3_2 Pr1 1_555 1_555
O4A Pr1 1_555 1_555
O5A Pr1 1_555 1_555
O7_2 Pr1 1_555 1_555
O8_2 Pr1 1_555 1_555
C4 N1 1_555 1_555
C9 N2 1_555 1_555
C14 N3 1_555 1_555
C19 C20 1_555 1_555
C19 N4 1_555 1_555
C25 C26 1_555 1_555
C32 C33 1_555 1_555
C39 C40 1_555 1_555
C46 C47 1_555 1_555
O8 Pr1_3 1_555 1_555

#END
