
#######################################################################
#
#                 Cambridge Crystallographic Data Centre
#                                CCDC 
#
#######################################################################
#
# If this CIF has been generated from an entry in the Cambridge 
# Structural Database, then it will include bibliographic, chemical, 
# crystal, experimental, refinement or atomic coordinate data resulting 
# from the CCDC's data processing and validation procedures.
#
#######################################################################

data_MIHLAR
_chemical_formula_moiety         '(C48 H31 La1 N4 O10)n'
_symmetry_cell_setting           monoclinic
_symmetry_space_group_name_H-M   'P 21/c'
_symmetry_Int_Tables_number      14
_space_group_name_Hall           '-P 2ybc'
loop_
_symmetry_equiv_pos_site_id
_symmetry_equiv_pos_as_xyz
1 x,y,z
2 -x,1/2+y,1/2-z
3 -x,-y,-z
4 x,1/2-y,1/2+z
_cell_length_a                   13.8138(2)
_cell_length_b                   33.7925(7)
_cell_length_c                   9.8548(3)
_cell_angle_alpha                90
_cell_angle_beta                 92.8627(13)
_cell_angle_gamma                90
_cell_volume                     4594.51
loop_
_atom_site_label
_atom_site_type_symbol
_atom_site_fract_x
_atom_site_fract_y
_atom_site_fract_z
La1 La 0.979807(17) 0.248954(7) 0.73592(2)
C1 C 0.6225(3) 0.53230(12) 0.7626(4)
C2 C 0.7169(3) 0.52468(13) 0.7105(5)
H1 H 0.7720 0.5415 0.7176
C3 C 0.7109(3) 0.48899(12) 0.6501(5)
H2 H 0.7617 0.4755 0.6076
C4 C 0.6128(3) 0.47495(12) 0.6622(4)
C5 C 0.5789(3) 0.43843(12) 0.6125(4)
C6 C 0.4812(3) 0.42658(12) 0.6041(4)
C7 C 0.4409(3) 0.39397(12) 0.5300(5)
H3 H 0.4766 0.3738 0.4876
C8 C 0.3435(3) 0.39651(12) 0.5297(5)
H4 H 0.2987 0.3791 0.4841
C9 C 0.3191(3) 0.43031(12) 0.6112(5)
C10 C 0.2259(3) 0.44343(12) 0.6378(4)
C11 C 0.2057(3) 0.47492(12) 0.7245(5)
C12 C 0.1113(3) 0.48414(12) 0.7692(5)
H5 H 0.0525 0.4713 0.7407
C13 C 0.1206(3) 0.51399(12) 0.8583(5)
H6 H 0.0702 0.5259 0.9063
C14 C 0.2215(3) 0.52450(11) 0.8673(4)
C15 C 0.2601(3) 0.55645(11) 0.9419(4)
C16 C 0.3566(3) 0.56941(13) 0.9417(4)
C17 C 0.3972(3) 0.60320(13) 1.0130(5)
H7 H 0.3634 0.6205 1.0701
C18 C 0.4912(3) 0.60595(13) 0.9846(5)
H8 H 0.5355 0.6256 1.0182
C19 C 0.5131(3) 0.57385(12) 0.8940(4)
C20 C 0.6026(3) 0.56542(12) 0.8425(4)
N1 N 0.5596(2) 0.50221(9) 0.7285(4)
N2 N 0.4051(2) 0.44770(10) 0.6564(4)
N3 N 0.2729(2) 0.49967(9) 0.7855(4)
N4 N 0.4300(2) 0.55225(10) 0.8712(4)
C21 C 0.6502(3) 0.40962(12) 0.5593(4)
C22 C 0.7000(3) 0.41838(12) 0.4419(5)
H9 H 0.6855 0.4420 0.3926
C23 C 0.7708(3) 0.39257(12) 0.3973(4)
H10 H 0.8045 0.3988 0.3184
C24 C 0.7920(3) 0.35800(12) 0.4677(4)
H11 H 0.8406 0.3407 0.4369
C25 C 0.7436(3) 0.34837(12) 0.5819(5)
C26 C 0.6725(3) 0.37410(12) 0.6265(4)
H12 H 0.6385 0.3673 0.7046
C27 C 0.7708(3) 0.31141(12) 0.6651(5)
O1 O 0.7226(2) 0.30320(8) 0.7650(3)
O2 O 0.8421(2) 0.29112(8) 0.6256(3)
C28 C 0.1447(3) 0.42254(12) 0.5618(5)
C29 C 0.0913(3) 0.44339(12) 0.4610(5)
H13 H 0.0981 0.4713 0.4544
C30 C 0.0288(3) 0.42350(13) 0.3709(5)
H14 H -0.0060 0.4377 0.3011
C31 C 0.0165(3) 0.38293(12) 0.3815(5)
H15 H -0.0226 0.3692 0.3149
C32 C 0.0609(3) 0.36253(12) 0.4886(4)
C33 C 0.1251(3) 0.38246(11) 0.5791(4)
H16 H 0.1557 0.3685 0.6532
C34 C 0.0408(3) 0.31914(12) 0.5063(5)
O3 O 0.0654(2) 0.30343(8) 0.6198(3)
O4 O -0.0015(2) 0.30136(8) 0.4080(3)
C35 C 0.1922(3) 0.58097(12) 1.0203(4)
C36 C 0.1522(3) 0.56676(13) 1.1375(5)
H17 H 0.1651 0.5404 1.1667
C37 C 0.0933(3) 0.59102(12) 1.2124(5)
H18 H 0.0677 0.5812 1.2935
C38 C 0.0713(3) 0.62924(12) 1.1708(4)
H19 H 0.0308 0.6456 1.2222
C39 C 0.1095(3) 0.64321(11) 1.0530(4)
C40 C 0.1698(3) 0.61951(12) 0.9785(4)
H20 H 0.1961 0.6297 0.8983
C41 C 0.0851(3) 0.68391(12) 0.9996(5)
O5 O 0.0387(2) 0.70692(8) 1.0748(3)
O6 O 0.1097(2) 0.69338(8) 0.8834(3)
C42 C 0.6867(3) 0.59198(12) 0.8839(5)
C43 C 0.7524(3) 0.57879(13) 0.9839(5)
H21 H 0.7425 0.5538 1.0252
C44 C 0.8329(3) 0.60130(13) 1.0255(5)
H22 H 0.8768 0.5921 1.0958
C45 C 0.8482(3) 0.63746(13) 0.9629(5)
H23 H 0.9035 0.6527 0.9901
C46 C 0.7847(3) 0.65159(12) 0.8620(5)
C47 C 0.7029(3) 0.62845(12) 0.8226(4)
H24 H 0.6584 0.6378 0.7534
C48 C 0.8037(3) 0.69018(13) 0.7945(5)
O7 O 0.8765(2) 0.71063(8) 0.8462(3)
O8 O 0.7536(3) 0.70072(10) 0.6928(4)
O9 O 1.1430(2) 0.26430(8) 0.8789(3)
H25 H 1.1853 0.2417 0.8771
H26 H 1.1286 0.2701 0.9713
O10 O 0.8122(2) 0.23551(8) 0.8494(3)
H27 H 0.7737 0.2592 0.8456
H28 H 0.8246 0.2279 0.9428
La1_2 La -0.020193(17) 0.248954(7) 0.73592(2)
La1C La -0.020193(17) 0.251046(7) 0.23592(2)
La1B La 0.020193(17) 0.751046(7) 1.26408(2)
La1A La 0.020193(17) 0.748954(7) 0.76408(2)
La1A_2 La 1.020193(17) 0.748954(7) 0.76408(2)
O3_2 O 1.0654(2) 0.30343(8) 0.6198(3)
O4C O 0.9985(2) 0.19864(8) 0.9080(3)
O5B O 0.9613(2) 0.29308(8) 0.9252(3)
O6A O 0.8903(2) 0.19338(8) 0.6166(3)
O7A O 1.1235(2) 0.21063(8) 0.6538(3)
loop_
_geom_bond_atom_site_label_1
_geom_bond_atom_site_label_2
_geom_bond_site_symmetry_1
_geom_bond_site_symmetry_2
La1 O2 1_555 1_555
C1 C2 1_555 1_555
C2 H1 1_555 1_555
C3 C2 1_555 1_555
H2 C3 1_555 1_555
C4 C3 1_555 1_555
C5 C4 1_555 1_555
C6 C5 1_555 1_555
C7 C6 1_555 1_555
H3 C7 1_555 1_555
C8 C7 1_555 1_555
H4 C8 1_555 1_555
C9 C8 1_555 1_555
C10 C9 1_555 1_555
C11 C10 1_555 1_555
C12 C11 1_555 1_555
H5 C12 1_555 1_555
C13 C12 1_555 1_555
H6 C13 1_555 1_555
C14 C13 1_555 1_555
C15 C14 1_555 1_555
C16 C15 1_555 1_555
C17 C16 1_555 1_555
H7 C17 1_555 1_555
C18 C17 1_555 1_555
H8 C18 1_555 1_555
C19 C18 1_555 1_555
C20 C1 1_555 1_555
N1 C1 1_555 1_555
N2 C6 1_555 1_555
N3 C11 1_555 1_555
N4 C16 1_555 1_555
C21 C5 1_555 1_555
C22 C21 1_555 1_555
H9 C22 1_555 1_555
C23 C22 1_555 1_555
H10 C23 1_555 1_555
C24 C23 1_555 1_555
H11 C24 1_555 1_555
C25 C24 1_555 1_555
C26 C21 1_555 1_555
H12 C26 1_555 1_555
C27 C25 1_555 1_555
O1 C27 1_555 1_555
O2 C27 1_555 1_555
C28 C10 1_555 1_555
C29 C28 1_555 1_555
H13 C29 1_555 1_555
C30 C29 1_555 1_555
H14 C30 1_555 1_555
C31 C30 1_555 1_555
H15 C31 1_555 1_555
C32 C31 1_555 1_555
C33 C28 1_555 1_555
H16 C33 1_555 1_555
C34 C32 1_555 1_555
O3 C34 1_555 1_555
O4 C34 1_555 1_555
C35 C15 1_555 1_555
C36 C35 1_555 1_555
H17 C36 1_555 1_555
C37 C36 1_555 1_555
H18 C37 1_555 1_555
C38 C37 1_555 1_555
H19 C38 1_555 1_555
C39 C38 1_555 1_555
C40 C35 1_555 1_555
H20 C40 1_555 1_555
C41 C39 1_555 1_555
O5 C41 1_555 1_555
O6 C41 1_555 1_555
C42 C20 1_555 1_555
C43 C42 1_555 1_555
H21 C43 1_555 1_555
C44 C43 1_555 1_555
H22 C44 1_555 1_555
C45 C44 1_555 1_555
H23 C45 1_555 1_555
C46 C45 1_555 1_555
C47 C42 1_555 1_555
H24 C47 1_555 1_555
C48 C46 1_555 1_555
O7 C48 1_555 1_555
O8 C48 1_555 1_555
O9 La1 1_555 1_555
H25 O9 1_555 1_555
H26 O9 1_555 1_555
O10 La1 1_555 1_555
H27 O10 1_555 1_555
H28 O10 1_555 1_555
La1_2 O3 1_555 1_555
La1C O4 1_555 1_555
La1B O5 1_555 1_555
La1A O6 1_555 1_555
La1A_2 O7 1_555 1_555
O3_2 La1 1_555 1_555
O4C La1 1_555 1_555
O5B La1 1_555 1_555
O6A La1 1_555 1_555
O7A La1 1_555 1_555
C4 N1 1_555 1_555
C9 N2 1_555 1_555
C14 N3 1_555 1_555
C19 C20 1_555 1_555
C19 N4 1_555 1_555
C25 C26 1_555 1_555
C32 C33 1_555 1_555
C39 C40 1_555 1_555
C46 C47 1_555 1_555

#END
