
#######################################################################
#
#                 Cambridge Crystallographic Data Centre
#                                CCDC 
#
#######################################################################
#
# If this CIF has been generated from an entry in the Cambridge 
# Structural Database, then it will include bibliographic, chemical, 
# crystal, experimental, refinement or atomic coordinate data resulting 
# from the CCDC's data processing and validation procedures.
#
#######################################################################

data_MIHLUL
_chemical_formula_moiety         '(C104 H60 Dy4 N8 O36)n'
_symmetry_cell_setting           monoclinic
_symmetry_space_group_name_H-M   'P 21/c'
_symmetry_Int_Tables_number      14
_space_group_name_Hall           '-P 2ybc'
loop_
_symmetry_equiv_pos_site_id
_symmetry_equiv_pos_as_xyz
1 x,y,z
2 -x,1/2+y,1/2-z
3 -x,-y,-z
4 x,1/2-y,1/2+z
_cell_length_a                   18.6144(4)
_cell_length_b                   27.9022(9)
_cell_length_c                   11.7735(8)
_cell_angle_alpha                90
_cell_angle_beta                 100.0847(13)
_cell_angle_gamma                90
_cell_volume                     6020.48
loop_
_atom_site_label
_atom_site_type_symbol
_atom_site_fract_x
_atom_site_fract_y
_atom_site_fract_z
Dy1 Dy 0.04463(3) 0.282993(18) 0.54493(4)
Dy2 Dy -0.00099(3) -0.032436(19) 0.24889(4)
C1 C 0.5830(6) 0.2240(4) 0.4704(9)
C2 C 0.5689(6) 0.2630(4) 0.5438(9)
H1 H 0.5959 0.2920 0.5550
C3 C 0.5111(6) 0.2516(4) 0.5944(9)
H2 H 0.4901 0.2711 0.6462
C4 C 0.4881(7) 0.2054(4) 0.5556(10)
C5 C 0.4289(6) 0.1807(4) 0.5878(9)
C6 C 0.4074(6) 0.1330(4) 0.5542(9)
C7 C 0.3534(6) 0.1052(4) 0.6023(10)
H3 H 0.3290 0.1155 0.6624
C8 C 0.3441(6) 0.0633(4) 0.5485(9)
H4 H 0.3109 0.0386 0.5597
C9 C 0.3967(6) 0.0633(4) 0.4666(9)
C10 C 0.4054(6) 0.0238(4) 0.3926(9)
C11 C 0.4620(6) 0.0208(4) 0.3285(9)
C12 C 0.4779(6) -0.0193(4) 0.2619(9)
H5 H 0.4519 -0.0487 0.2547
C13 C 0.5352(7) -0.0089(4) 0.2109(9)
H6 H 0.5567 -0.0298 0.1627
C14 C 0.5580(7) 0.0383(4) 0.2413(10)
C15 C 0.6145(6) 0.0656(4) 0.2114(9)
C16 C 0.6337(6) 0.1127(4) 0.2415(9)
C17 C 0.6912(6) 0.1382(4) 0.1978(9)
H7 H 0.7183 0.1273 0.1416
C18 C 0.6979(6) 0.1798(4) 0.2527(9)
H8 H 0.7324 0.2042 0.2452
C19 C 0.6436(6) 0.1816(4) 0.3255(9)
C20 C 0.6347(5) 0.2209(4) 0.3987(9)
N1 N 0.5322(5) 0.1881(3) 0.4815(7)
H9 H 0.5289 0.1598 0.4478
N2 N 0.4334(4) 0.1060(3) 0.4752(7)
N3 N 0.5117(5) 0.0560(3) 0.3139(8)
H11 H 0.5140 0.0848 0.3449
N4 N 0.6040(5) 0.1406(3) 0.3161(7)
C21 C 0.3839(5) 0.2065(4) 0.6601(9)
C22 C 0.3124(6) 0.2196(4) 0.6104(9)
H13 H 0.2929 0.2088 0.5347
C23 C 0.2685(7) 0.2485(4) 0.6704(9)
C24 C 0.2972(7) 0.2634(5) 0.7806(11)
H14 H 0.2694 0.2834 0.8217
C25 C 0.3663(7) 0.2491(6) 0.8311(11)
H15 H 0.3848 0.2586 0.9082
C26 C 0.4091(7) 0.2217(4) 0.7725(11)
H16 H 0.4568 0.2129 0.8096
C27 C 0.1937(6) 0.2621(4) 0.6161(9)
O1 O 0.1630(4) 0.2969(3) 0.6610(6)
O2 O 0.1618(4) 0.2404(3) 0.5291(6)
C28 C 0.3544(6) -0.0178(4) 0.3915(8)
C29 C 0.2801(7) -0.0083(4) 0.3539(9)
H17 H 0.2636 0.0226 0.3278
C30 C 0.2307(6) -0.0468(4) 0.3564(8)
C31 C 0.2568(7) -0.0916(4) 0.3932(8)
H18 H 0.2227 -0.1166 0.3970
C32 C 0.3289(6) -0.1014(4) 0.4239(9)
H19 H 0.3452 -0.1332 0.4427
C33 C 0.3791(7) -0.0635(4) 0.4273(9)
H20 H 0.4296 -0.0689 0.4539
C34 C 0.1496(6) -0.0375(4) 0.3190(9)
O3 O 0.1274(4) -0.0052(3) 0.2443(6)
O4 O 0.1071(4) -0.0636(3) 0.3623(6)
C35 C 0.6596(7) 0.0396(4) 0.1388(10)
C36 C 0.7309(6) 0.0247(4) 0.1868(10)
H21 H 0.7498 0.0314 0.2655
C37 C 0.7743(6) 0.0000(4) 0.1198(9)
C38 C 0.7485(7) -0.0087(5) 0.0055(10)
H22 H 0.7788 -0.0244 -0.0400
C39 C 0.6795(8) 0.0050(5) -0.0437(11)
H23 H 0.6616 -0.0020 -0.1225
C40 C 0.6346(6) 0.0295(5) 0.0226(11)
H24 H 0.5869 0.0392 -0.0124
C41 C 0.8506(6) -0.0141(4) 0.1780(10)
O5 O 0.8814(4) -0.0492(3) 0.1334(7)
O6 O 0.8828(4) 0.0080(3) 0.2613(6)
C42 C 0.6866(6) 0.2618(4) 0.4022(9)
C43 C 0.7607(6) 0.2581(4) 0.4453(9)
H25 H 0.7794 0.2292 0.4814
C44 C 0.8075(6) 0.2956(4) 0.4367(10)
C45 C 0.7850(7) 0.3378(4) 0.3935(9)
H26 H 0.8183 0.3632 0.3888
C46 C 0.7096(7) 0.3435(4) 0.3548(10)
H27 H 0.6922 0.3737 0.3248
C47 C 0.6607(7) 0.3079(4) 0.3582(10)
H28 H 0.6101 0.3133 0.3320
C48 C 0.8893(6) 0.2868(4) 0.4773(9)
O7 O 0.9312(4) 0.3136(2) 0.4301(6)
O8 O 0.9134(4) 0.2572(3) 0.5542(6)
O9 O -0.0133(4) 0.0333(2) 0.1213(6)
C49 C -0.0100(5) 0.0253(3) 0.0180(9)
O10 O -0.0211(4) 0.0563(2) -0.0633(5)
O11 O 0.0243(4) 0.0323(2) 0.3823(6)
C50 C 0.0152(6) 0.0253(3) 0.4833(9)
O12 O 0.0318(4) 0.0546(2) 0.5669(6)
O13 O 0.0604(4) 0.2187(2) 0.6756(5)
C51 C 0.0565(6) 0.2260(3) 0.7774(10)
O14 O 0.0729(4) 0.1959(2) 0.8623(6)
O15 O 0.0172(3) 0.2819(2) 0.9102(6)
C52 C 0.0262(6) 0.2762(4) 0.8111(8)
O16 O 0.0181(4) 0.3062(2) 0.7323(6)
O17 O -0.0094(4) -0.1168(3) 0.2568(5)
H29 H -0.0275 -0.1318 0.1766
H30 H 0.0409 -0.1319 0.2868
O18 O 0.0541(4) 0.3659(2) 0.5512(5)
H31 H 0.0889 0.3757 0.6208
H32 H 0.0057 0.3798 0.5548
Dy1_2 Dy -0.95537(3) 0.282993(18) 0.54493(4)
Dy1_3 Dy 1.04463(3) 0.282993(18) 0.54493(4)
Dy1C Dy 0.04463(3) 0.217007(18) 1.04493(4)
Dy1C_2 Dy 0.04463(3) 0.217007(18) 0.04493(4)
Dy2_2 Dy -1.00099(3) -0.032436(19) 0.24889(4)
Dy2_3 Dy 0.99901(3) -0.032436(19) 0.24889(4)
Dy2B Dy 0.00099(3) 0.032436(19) -0.24889(4)
Dy2B_2 Dy 0.00099(3) 0.032436(19) 0.75111(4)
C1_2 C -0.4170(6) 0.2240(4) 0.4704(9)
C2_2 C -0.4311(6) 0.2630(4) 0.5438(9)
H1_2 H -0.4041 0.2920 0.5550
C3_2 C -0.4889(6) 0.2516(4) 0.5944(9)
H2_2 H -0.5099 0.2711 0.6462
C4_2 C -0.5119(7) 0.2054(4) 0.5556(10)
C5_2 C -0.5711(6) 0.1807(4) 0.5878(9)
C6_2 C -0.5926(6) 0.1330(4) 0.5542(9)
C7_2 C -0.6466(6) 0.1052(4) 0.6023(10)
H3_2 H -0.6710 0.1155 0.6624
C8_2 C -0.6559(6) 0.0633(4) 0.5485(9)
H4_2 H -0.6891 0.0386 0.5597
C9_2 C -0.6033(6) 0.0633(4) 0.4666(9)
C10_2 C -0.5946(6) 0.0238(4) 0.3926(9)
C11_2 C -0.5380(6) 0.0208(4) 0.3285(9)
C12_2 C -0.5221(6) -0.0193(4) 0.2619(9)
H5_2 H -0.5481 -0.0487 0.2547
C13_2 C -0.4648(7) -0.0089(4) 0.2109(9)
H6_2 H -0.4433 -0.0298 0.1627
C14_2 C -0.4420(7) 0.0383(4) 0.2413(10)
C15_2 C -0.3855(6) 0.0656(4) 0.2114(9)
C16_2 C -0.3663(6) 0.1127(4) 0.2415(9)
C17_2 C -0.3088(6) 0.1382(4) 0.1978(9)
H7_2 H -0.2817 0.1273 0.1416
C18_2 C -0.3021(6) 0.1798(4) 0.2527(9)
H8_2 H -0.2676 0.2042 0.2452
C19_2 C -0.3564(6) 0.1816(4) 0.3255(9)
C20_2 C -0.3653(5) 0.2209(4) 0.3987(9)
N1_2 N -0.4678(5) 0.1881(3) 0.4815(7)
H9_2 H -0.4711 0.1598 0.4478
N2_2 N -0.5666(4) 0.1060(3) 0.4752(7)
N3_2 N -0.4883(5) 0.0560(3) 0.3139(8)
H11_2 H -0.4860 0.0848 0.3449
N4_2 N -0.3960(5) 0.1406(3) 0.3161(7)
C21_2 C -0.6161(5) 0.2065(4) 0.6601(9)
C22_2 C -0.6876(6) 0.2196(4) 0.6104(9)
H13_2 H -0.7071 0.2088 0.5347
C23_2 C -0.7315(7) 0.2485(4) 0.6704(9)
C24_2 C -0.7028(7) 0.2634(5) 0.7806(11)
H14_2 H -0.7306 0.2834 0.8217
C25_2 C -0.6337(7) 0.2491(6) 0.8311(11)
H15_2 H -0.6152 0.2586 0.9082
C26_2 C -0.5909(7) 0.2217(4) 0.7725(11)
H16_2 H -0.5432 0.2129 0.8096
C27_2 C -0.8063(6) 0.2621(4) 0.6161(9)
O1_2 O -0.8370(4) 0.2969(3) 0.6610(6)
O2_2 O -0.8382(4) 0.2404(3) 0.5291(6)
C28_2 C -0.6456(6) -0.0178(4) 0.3915(8)
C29_2 C -0.7199(7) -0.0083(4) 0.3539(9)
H17_2 H -0.7364 0.0226 0.3278
C30_2 C -0.7693(6) -0.0468(4) 0.3564(8)
C31_2 C -0.7432(7) -0.0916(4) 0.3932(8)
H18_2 H -0.7773 -0.1166 0.3970
C32_2 C -0.6711(6) -0.1014(4) 0.4239(9)
H19_2 H -0.6548 -0.1332 0.4427
C33_2 C -0.6209(7) -0.0635(4) 0.4273(9)
H20_2 H -0.5704 -0.0689 0.4539
C34_2 C -0.8504(6) -0.0375(4) 0.3190(9)
O3_2 O -0.8726(4) -0.0052(3) 0.2443(6)
O4_2 O -0.8929(4) -0.0636(3) 0.3623(6)
C35_2 C -0.3404(7) 0.0396(4) 0.1388(10)
C36_2 C -0.2691(6) 0.0247(4) 0.1868(10)
H21_2 H -0.2502 0.0314 0.2655
C37_2 C -0.2257(6) 0.0000(4) 0.1198(9)
C38_2 C -0.2515(7) -0.0087(5) 0.0055(10)
H22_2 H -0.2212 -0.0244 -0.0400
C39_2 C -0.3205(8) 0.0050(5) -0.0437(11)
H23_2 H -0.3384 -0.0020 -0.1225
C40_2 C -0.3654(6) 0.0295(5) 0.0226(11)
H24_2 H -0.4131 0.0392 -0.0124
C41_2 C -0.1494(6) -0.0141(4) 0.1780(10)
O5_2 O -0.1186(4) -0.0492(3) 0.1334(7)
O5_3 O -1.1186(4) -0.0492(3) 0.1334(7)
O6_2 O -0.1172(4) 0.0080(3) 0.2613(6)
O6_3 O -1.1172(4) 0.0080(3) 0.2613(6)
C42_2 C -0.3134(6) 0.2618(4) 0.4022(9)
C43_2 C -0.2393(6) 0.2581(4) 0.4453(9)
H25_2 H -0.2206 0.2292 0.4814
C44_2 C -0.1925(6) 0.2956(4) 0.4367(10)
C45_2 C -0.2150(7) 0.3378(4) 0.3935(9)
H26_2 H -0.1817 0.3632 0.3888
C46_2 C -0.2904(7) 0.3435(4) 0.3548(10)
H27_2 H -0.3078 0.3737 0.3248
C47_2 C -0.3393(7) 0.3079(4) 0.3582(10)
H28_2 H -0.3899 0.3133 0.3320
C48_2 C -0.1107(6) 0.2868(4) 0.4773(9)
O7_2 O -0.0688(4) 0.3136(2) 0.4301(6)
O7_3 O -1.0688(4) 0.3136(2) 0.4301(6)
O8_2 O -0.0866(4) 0.2572(3) 0.5542(6)
O8_3 O -1.0866(4) 0.2572(3) 0.5542(6)
O9B O 0.0133(4) -0.0333(2) -0.1213(6)
O9_2 O -1.0133(4) 0.0333(2) 0.1213(6)
C49B C 0.0100(5) -0.0253(3) -0.0180(9)
O10B O 0.0211(4) -0.0563(2) 0.0633(5)
O10B_2 O -0.9789(4) -0.0563(2) 0.0633(5)
O11B O -0.0243(4) -0.0323(2) 0.6177(6)
O11_2 O -0.9757(4) 0.0323(2) 0.3823(6)
C50B C -0.0152(6) -0.0253(3) 0.5167(9)
O12B O -0.0318(4) -0.0546(2) 0.4331(6)
O12B_2 O -1.0318(4) -0.0546(2) 0.4331(6)
O13C O 0.0604(4) 0.2813(2) 0.1756(5)
O13_2 O -0.9396(4) 0.2187(2) 0.6756(5)
C51C C 0.0565(6) 0.2740(3) 0.2774(10)
O14C O 0.0729(4) 0.3041(2) 0.3623(6)
O14C_2 O -0.9271(4) 0.3041(2) 0.3623(6)
O15C O 0.0172(3) 0.2181(2) 0.4102(6)
O15C_2 O -0.9828(3) 0.2181(2) 0.4102(6)
C52C C 0.0262(6) 0.2238(4) 0.3111(8)
O16C O 0.0181(4) 0.1938(2) 0.2323(6)
O16_2 O -0.9819(4) 0.3062(2) 0.7323(6)
O17_2 O -1.0094(4) -0.1168(3) 0.2568(5)
H29_2 H -1.0275 -0.1318 0.1766
H30_2 H -0.9591 -0.1319 0.2868
O18_2 O -0.9459(4) 0.3659(2) 0.5512(5)
H31_2 H -0.9111 0.3757 0.6208
H32_2 H -0.9943 0.3798 0.5548
loop_
_geom_bond_atom_site_label_1
_geom_bond_atom_site_label_2
_geom_bond_site_symmetry_1
_geom_bond_site_symmetry_2
Dy1 O1 1_555 1_555
Dy2 O3 1_555 1_555
C1 C2 1_555 1_555
C2 H1 1_555 1_555
C3 C2 1_555 1_555
H2 C3 1_555 1_555
C4 C3 1_555 1_555
C5 C4 1_555 1_555
C6 C5 1_555 1_555
C7 C6 1_555 1_555
H3 C7 1_555 1_555
C8 C7 1_555 1_555
H4 C8 1_555 1_555
C9 C8 1_555 1_555
C10 C9 1_555 1_555
C11 C10 1_555 1_555
C12 C11 1_555 1_555
H5 C12 1_555 1_555
C13 C12 1_555 1_555
H6 C13 1_555 1_555
C14 C13 1_555 1_555
C15 C14 1_555 1_555
C16 C15 1_555 1_555
C17 C16 1_555 1_555
H7 C17 1_555 1_555
C18 C17 1_555 1_555
H8 C18 1_555 1_555
C19 C18 1_555 1_555
C20 C1 1_555 1_555
N1 C1 1_555 1_555
H9 N1 1_555 1_555
N2 C6 1_555 1_555
N3 C11 1_555 1_555
H11 N3 1_555 1_555
N4 C16 1_555 1_555
C21 C5 1_555 1_555
C22 C21 1_555 1_555
H13 C22 1_555 1_555
C23 C22 1_555 1_555
C24 C23 1_555 1_555
H14 C24 1_555 1_555
C25 C24 1_555 1_555
H15 C25 1_555 1_555
C26 C21 1_555 1_555
H16 C26 1_555 1_555
C27 C23 1_555 1_555
O1 C27 1_555 1_555
O2 Dy1 1_555 1_555
C28 C10 1_555 1_555
C29 C28 1_555 1_555
H17 C29 1_555 1_555
C30 C29 1_555 1_555
C31 C30 1_555 1_555
H18 C31 1_555 1_555
C32 C31 1_555 1_555
H19 C32 1_555 1_555
C33 C28 1_555 1_555
H20 C33 1_555 1_555
C34 C30 1_555 1_555
O3 C34 1_555 1_555
O4 Dy2 1_555 1_555
C35 C15 1_555 1_555
C36 C35 1_555 1_555
H21 C36 1_555 1_555
C37 C36 1_555 1_555
C38 C37 1_555 1_555
H22 C38 1_555 1_555
C39 C38 1_555 1_555
H23 C39 1_555 1_555
C40 C35 1_555 1_555
H24 C40 1_555 1_555
C41 C37 1_555 1_555
O5 C41 1_555 1_555
O6 C41 1_555 1_555
C42 C20 1_555 1_555
C43 C42 1_555 1_555
H25 C43 1_555 1_555
C44 C43 1_555 1_555
C45 C44 1_555 1_555
H26 C45 1_555 1_555
C46 C45 1_555 1_555
H27 C46 1_555 1_555
C47 C42 1_555 1_555
H28 C47 1_555 1_555
C48 C44 1_555 1_555
O7 C48 1_555 1_555
O8 C48 1_555 1_555
O9 Dy2 1_555 1_555
C49 O9 1_555 1_555
O10 C49 1_555 1_555
O11 Dy2 1_555 1_555
C50 O11 1_555 1_555
O12 C50 1_555 1_555
O13 Dy1 1_555 1_555
C51 O13 1_555 1_555
O14 C51 1_555 1_555
O15 C52 1_555 1_555
C52 C51 1_555 1_555
O16 Dy1 1_555 1_555
O17 Dy2 1_555 1_555
H29 O17 1_555 1_555
H30 O17 1_555 1_555
O18 Dy1 1_555 1_555
H31 O18 1_555 1_555
H32 O18 1_555 1_555
Dy1_2 O1_2 1_555 1_555
Dy1_3 O7 1_555 1_555
Dy1C O14 1_555 1_555
Dy1C_2 O13C 1_555 1_555
Dy2_2 O3_2 1_555 1_555
Dy2_3 O5 1_555 1_555
Dy2B O10 1_555 1_555
Dy2B_2 O12 1_555 1_555
C1_2 C2_2 1_555 1_555
C2_2 H1_2 1_555 1_555
C3_2 C2_2 1_555 1_555
H2_2 C3_2 1_555 1_555
C4_2 C3_2 1_555 1_555
C5_2 C4_2 1_555 1_555
C6_2 C5_2 1_555 1_555
C7_2 C6_2 1_555 1_555
H3_2 C7_2 1_555 1_555
C8_2 C7_2 1_555 1_555
H4_2 C8_2 1_555 1_555
C9_2 C8_2 1_555 1_555
C10_2 C9_2 1_555 1_555
C11_2 C10_2 1_555 1_555
C12_2 C11_2 1_555 1_555
H5_2 C12_2 1_555 1_555
C13_2 C12_2 1_555 1_555
H6_2 C13_2 1_555 1_555
C14_2 C13_2 1_555 1_555
C15_2 C14_2 1_555 1_555
C16_2 C15_2 1_555 1_555
C17_2 C16_2 1_555 1_555
H7_2 C17_2 1_555 1_555
C18_2 C17_2 1_555 1_555
H8_2 C18_2 1_555 1_555
C19_2 C18_2 1_555 1_555
C20_2 C1_2 1_555 1_555
N1_2 C1_2 1_555 1_555
H9_2 N1_2 1_555 1_555
N2_2 C6_2 1_555 1_555
N3_2 C11_2 1_555 1_555
H11_2 N3_2 1_555 1_555
N4_2 C16_2 1_555 1_555
C21_2 C5_2 1_555 1_555
C22_2 C21_2 1_555 1_555
H13_2 C22_2 1_555 1_555
C23_2 C22_2 1_555 1_555
C24_2 C23_2 1_555 1_555
H14_2 C24_2 1_555 1_555
C25_2 C24_2 1_555 1_555
H15_2 C25_2 1_555 1_555
C26_2 C21_2 1_555 1_555
H16_2 C26_2 1_555 1_555
C27_2 C23_2 1_555 1_555
O1_2 C27_2 1_555 1_555
O2_2 Dy1_2 1_555 1_555
C28_2 C10_2 1_555 1_555
C29_2 C28_2 1_555 1_555
H17_2 C29_2 1_555 1_555
C30_2 C29_2 1_555 1_555
C31_2 C30_2 1_555 1_555
H18_2 C31_2 1_555 1_555
C32_2 C31_2 1_555 1_555
H19_2 C32_2 1_555 1_555
C33_2 C28_2 1_555 1_555
H20_2 C33_2 1_555 1_555
C34_2 C30_2 1_555 1_555
O3_2 C34_2 1_555 1_555
O4_2 Dy2_2 1_555 1_555
C35_2 C15_2 1_555 1_555
C36_2 C35_2 1_555 1_555
H21_2 C36_2 1_555 1_555
C37_2 C36_2 1_555 1_555
C38_2 C37_2 1_555 1_555
H22_2 C38_2 1_555 1_555
C39_2 C38_2 1_555 1_555
H23_2 C39_2 1_555 1_555
C40_2 C35_2 1_555 1_555
H24_2 C40_2 1_555 1_555
C41_2 C37_2 1_555 1_555
O5_2 Dy2 1_555 1_555
O5_3 Dy2_2 1_555 1_555
O6_2 Dy2 1_555 1_555
O6_3 Dy2_2 1_555 1_555
C42_2 C20_2 1_555 1_555
C43_2 C42_2 1_555 1_555
H25_2 C43_2 1_555 1_555
C44_2 C43_2 1_555 1_555
C45_2 C44_2 1_555 1_555
H26_2 C45_2 1_555 1_555
C46_2 C45_2 1_555 1_555
H27_2 C46_2 1_555 1_555
C47_2 C42_2 1_555 1_555
H28_2 C47_2 1_555 1_555
C48_2 C44_2 1_555 1_555
O7_2 Dy1 1_555 1_555
O7_3 Dy1_2 1_555 1_555
O8_2 Dy1 1_555 1_555
O8_3 Dy1_2 1_555 1_555
O9B Dy2B 1_555 1_555
O9_2 Dy2_2 1_555 1_555
C49B C49 1_555 1_555
O10B Dy2 1_555 1_555
O10B_2 Dy2_2 1_555 1_555
O11B Dy2B_2 1_555 1_555
O11_2 Dy2_2 1_555 1_555
C50B C50 1_555 1_555
O12B Dy2 1_555 1_555
O12B_2 Dy2_2 1_555 1_555
O13C C51C 1_555 1_555
O13_2 Dy1_2 1_555 1_555
C51C O14C 1_555 1_555
O14C Dy1 1_555 1_555
O14C_2 Dy1_2 1_555 1_555
O15C Dy1 1_555 1_555
O15C_2 Dy1_2 1_555 1_555
C52C C51C 1_555 1_555
O16C Dy1C_2 1_555 1_555
O16_2 Dy1_2 1_555 1_555
O17_2 Dy2_2 1_555 1_555
H29_2 O17_2 1_555 1_555
H30_2 O17_2 1_555 1_555
O18_2 Dy1_2 1_555 1_555
H31_2 O18_2 1_555 1_555
H32_2 O18_2 1_555 1_555
C4 N1 1_555 1_555
C9 N2 1_555 1_555
C14 N3 1_555 1_555
C19 C20 1_555 1_555
C19 N4 1_555 1_555
C25 C26 1_555 1_555
C27 O2 1_555 1_555
C32 C33 1_555 1_555
C34 O4 1_555 1_555
C39 C40 1_555 1_555
O6 Dy2_3 1_555 1_555
C46 C47 1_555 1_555
O8 Dy1_3 1_555 1_555
O15 Dy1C 1_555 1_555
C52 O16 1_555 1_555
C4_2 N1_2 1_555 1_555
C9_2 N2_2 1_555 1_555
C14_2 N3_2 1_555 1_555
C19_2 C20_2 1_555 1_555
C19_2 N4_2 1_555 1_555
C25_2 C26_2 1_555 1_555
C27_2 O2_2 1_555 1_555
C32_2 C33_2 1_555 1_555
C34_2 O4_2 1_555 1_555
C39_2 C40_2 1_555 1_555
C41_2 O5_2 1_555 1_555
C41_2 O6_2 1_555 1_555
C46_2 C47_2 1_555 1_555
C48_2 O7_2 1_555 1_555
C48_2 O8_2 1_555 1_555
O9B C49B 1_555 1_555
C49B O10B 1_555 1_555
O11B C50B 1_555 1_555
C50B O12B 1_555 1_555
O15C C52C 1_555 1_555
C52C O16C 1_555 1_555

#END
