
#######################################################################
#
#                 Cambridge Crystallographic Data Centre
#                                CCDC 
#
#######################################################################
#
# If this CIF has been generated from an entry in the Cambridge 
# Structural Database, then it will include bibliographic, chemical, 
# crystal, experimental, refinement or atomic coordinate data resulting 
# from the CCDC's data processing and validation procedures.
#
#######################################################################

data_QOVWOP
_chemical_formula_moiety         '(C40 H32 Cd2 N6 O10)n'
_symmetry_cell_setting           monoclinic
_symmetry_space_group_name_H-M   'C 2/c'
_symmetry_Int_Tables_number      15
_space_group_name_Hall           '-C 2yc'
loop_
_symmetry_equiv_pos_site_id
_symmetry_equiv_pos_as_xyz
1 x,y,z
2 -x,y,1/2-z
3 1/2+x,1/2+y,z
4 1/2-x,1/2+y,1/2-z
5 -x,-y,-z
6 x,-y,1/2+z
7 1/2-x,1/2-y,-z
8 1/2+x,1/2-y,1/2+z
_cell_length_a                   11.979(2)
_cell_length_b                   18.789(4)
_cell_length_c                   18.662(5)
_cell_angle_alpha                90
_cell_angle_beta                 96.494(2)
_cell_angle_gamma                90
_cell_volume                     4173.37
loop_
_atom_site_label
_atom_site_type_symbol
_atom_site_fract_x
_atom_site_fract_y
_atom_site_fract_z
_atom_site_U_iso_or_equiv
_atom_site_thermal_displace_type
C1 C 0.6242(4) 0.1270(2) 0.4317(2) 0.0414 Uani
H1 H 0.6981 0.1355 0.4233 0.0500 Uiso
C2 C 0.5415(4) 0.1330(3) 0.3748(2) 0.0415 Uani
H2 H 0.5600 0.1455 0.3293 0.0500 Uiso
C3 C 0.4306(3) 0.12032(17) 0.3852(2) 0.0284 Uani
C4 C 0.4091(3) 0.1010(2) 0.4547(2) 0.0330 Uani
H3 H 0.3362 0.0915 0.4644 0.0400 Uiso
C5 C 0.4974(3) 0.0964(2) 0.5084(2) 0.0358 Uani
H4 H 0.4820 0.0834 0.5543 0.0430 Uiso
C6 C 0.3412(3) 0.13040(19) 0.32466(19) 0.0284 Uani
C7 C 0.3398(3) 0.19322(19) 0.28454(19) 0.0303 Uani
H5 H 0.3938 0.2279 0.2973 0.0360 Uiso
C8 C 0.2598(3) 0.2048(2) 0.22624(19) 0.0325 Uani
C9 C 0.1780(3) 0.1536(2) 0.2077(2) 0.0387 Uani
H6 H 0.1241 0.1608 0.1684 0.0470 Uiso
C10 C 0.1770(3) 0.0920(2) 0.2479(2) 0.0387 Uani
H7 H 0.1209 0.0583 0.2362 0.0460 Uiso
C11 C 0.2583(3) 0.07942(19) 0.30532(19) 0.0306 Uani
C12 C 0.2580(3) 0.00833(19) 0.34251(18) 0.0312 Uani
C13 C 0.2633(3) 0.2701(2) 0.1808(2) 0.0357 Uani
C14 C 0.4663(3) 0.3169(2) 0.0318(2) 0.0388 Uani
H8 H 0.4614 0.2772 0.0610 0.0470 Uiso
C15 C 0.5292(4) 0.3925(2) -0.0422(3) 0.0420 Uani
H9 H 0.5734 0.4151 -0.0732 0.0510 Uiso
C16 C 0.4294(3) 0.4146(2) -0.0235(2) 0.0398 Uani
H10 H 0.3927 0.4562 -0.0397 0.0480 Uiso
C17 C 0.6534(3) 0.2882(2) -0.0046(2) 0.0360 Uani
C18 C 0.6731(3) 0.2478(2) -0.0644(2) 0.0380 Uani
C19 C 0.7264(3) 0.2904(2) 0.0578(2) 0.0386 Uani
H11 H 0.7084 0.3179 0.0963 0.0460 Uiso
C20 C 0.5923(4) 0.2440(3) -0.1315(3) 0.0528 Uani
H12 H 0.5183 0.2341 -0.1189 0.0790 Uiso
H13 H 0.6149 0.2068 -0.1620 0.0790 Uiso
H14 H 0.5918 0.2886 -0.1565 0.0790 Uiso
Cd1 Cd 0.24791(2) 0.382910(13) 0.089830(13) 0.0272 Uani
N1 N 0.6046(3) 0.10961(16) 0.49813(17) 0.0318 Uani
N2 N 0.5519(3) 0.32968(17) -0.00611(19) 0.0364 Uani
N3 N 0.3900(3) 0.36683(18) 0.02291(18) 0.0349 Uani
O1 O 0.3412(2) -0.03127(15) 0.34348(16) 0.0435 Uani
O2 O 0.1733(3) -0.00902(16) 0.37063(19) 0.0535 Uani
O3 O 0.3363(3) 0.31684(18) 0.19709(19) 0.0598 Uani
O4 O 0.1947(3) 0.27532(18) 0.12561(17) 0.0545 Uani
C14F C 1.0337(3) 0.1831(2) -0.0318(2) 0.0388 Uani
H8F H 1.0386 0.2228 -0.0610 0.0470 Uiso
C15F C 0.9708(4) 0.1075(2) 0.0422(3) 0.0420 Uani
H9F H 0.9266 0.0849 0.0732 0.0510 Uiso
C16F C 1.0706(3) 0.0854(2) 0.0235(2) 0.0398 Uani
H10F H 1.1073 0.0438 0.0397 0.0480 Uiso
C17F C 0.8466(3) 0.2118(2) 0.0046(2) 0.0360 Uani
C18F C 0.8269(3) 0.2522(2) 0.0644(2) 0.0380 Uani
C19F C 0.7736(3) 0.2096(2) -0.0578(2) 0.0386 Uani
H11F H 0.7916 0.1821 -0.0963 0.0460 Uiso
C20F C 0.9077(4) 0.2560(3) 0.1315(3) 0.0528 Uani
H12F H 0.9817 0.2659 0.1189 0.0790 Uiso
H13F H 0.8851 0.2932 0.1620 0.0790 Uiso
H14F H 0.9082 0.2114 0.1565 0.0790 Uiso
N2F N 0.9481(3) 0.17032(17) 0.00611(19) 0.0364 Uani
N3F N 1.1100(3) 0.13317(18) -0.02291(18) 0.0349 Uani
C1F C 0.8758(4) 0.3730(2) -0.4317(2) 0.0414 Uani
H1F H 0.8019 0.3645 -0.4233 0.0500 Uiso
C2F C 0.9585(4) 0.3670(3) -0.3748(2) 0.0415 Uani
H2F H 0.9400 0.3545 -0.3293 0.0500 Uiso
C3F C 1.0694(3) 0.37968(17) -0.3852(2) 0.0284 Uani
C4F C 1.0909(3) 0.3990(2) -0.4547(2) 0.0330 Uani
H3F H 1.1638 0.4085 -0.4644 0.0400 Uiso
C5F C 1.0026(3) 0.4036(2) -0.5084(2) 0.0358 Uani
H4F H 1.0180 0.4166 -0.5543 0.0430 Uiso
C6F C 1.1588(3) 0.36960(19) -0.32466(19) 0.0284 Uani
C7F C 1.1602(3) 0.30678(19) -0.28454(19) 0.0303 Uani
H5F H 1.1062 0.2721 -0.2973 0.0360 Uiso
C8F C 1.2402(3) 0.2952(2) -0.22624(19) 0.0325 Uani
C9F C 1.3220(3) 0.3464(2) -0.2077(2) 0.0387 Uani
H6F H 1.3759 0.3392 -0.1684 0.0470 Uiso
C10F C 1.3230(3) 0.4080(2) -0.2479(2) 0.0387 Uani
H7F H 1.3791 0.4417 -0.2362 0.0460 Uiso
C11F C 1.2417(3) 0.42058(19) -0.30532(19) 0.0306 Uani
C12F C 1.2420(3) 0.49167(19) -0.34251(18) 0.0312 Uani
C13F C 1.2367(3) 0.2299(2) -0.1808(2) 0.0357 Uani
Cd1F Cd 1.25209(2) 0.117090(13) -0.089830(13) 0.0272 Uani
N1F N 0.8954(3) 0.39039(16) -0.49813(17) 0.0318 Uani
O1F O 1.1588(2) 0.53127(15) -0.34348(16) 0.0435 Uani
O2F O 1.3267(3) 0.50902(16) -0.37063(19) 0.0535 Uani
O3F O 1.1637(3) 0.18316(18) -0.19709(19) 0.0598 Uani
O4F O 1.3053(3) 0.22468(18) -0.12561(17) 0.0545 Uani
Cd1A Cd 0.75209(2) 0.382910(13) -0.589830(13) 0.0272 Uani
Cd1C Cd 0.25209(2) -0.117090(13) 0.410170(13) 0.0272 Uani
Cd1E Cd 1.24791(2) 0.617090(13) -0.410170(13) 0.0272 Uani
Cd1G Cd 0.74791(2) 0.117090(13) 0.589830(13) 0.0272 Uani
N1A N 1.3954(3) 0.10961(16) 0.00187(17) 0.0318 Uani
N1G N 0.1046(3) 0.39039(16) -0.00187(17) 0.0318 Uani
O1C O 0.1588(2) 0.46873(15) 0.15652(16) 0.0435 Uani
O1E O 1.3412(2) 0.03127(15) -0.15652(16) 0.0435 Uani
O2C O 0.3267(3) 0.49098(16) 0.12937(19) 0.0535 Uani
O2E O 1.1733(3) 0.00902(16) -0.12937(19) 0.0535 Uani
O5 O 0.7702(12) 0.4660(5) 0.1075(7) 0.1639 Uani
H15 H 0.819(3) 0.463(7) 0.143(3) 0.2900 Uiso
H16 H 0.7053(16) 0.464(5) 0.117(3) 0.1000 Uiso
O6 O 0.4139(6) 0.4097(6) 0.3193(4) 0.1346 Uani
H17 H 0.457(5) 0.4405(17) 0.338(4) 0.1200 Uiso
H18 H 0.439(5) 0.3689(10) 0.323(3) 0.0600 Uiso
loop_
_atom_site_aniso_label
_atom_site_aniso_U_11
_atom_site_aniso_U_22
_atom_site_aniso_U_33
_atom_site_aniso_U_23
_atom_site_aniso_U_13
_atom_site_aniso_U_12
C1 0.029(2) 0.059(3) 0.036(2) 0.0082(18) 0.0022(17) -0.0080(17)
C2 0.035(2) 0.060(3) 0.0298(19) 0.0118(18) 0.0048(16) -0.0059(19)
C3 0.032(2) 0.0251(18) 0.0275(18) 0.0022(12) 0.0003(15) -0.0001(13)
C4 0.0279(18) 0.043(2) 0.0282(18) 0.0039(16) 0.0035(14) -0.0018(16)
C5 0.037(2) 0.046(2) 0.0247(17) 0.0017(16) 0.0051(15) -0.0028(18)
C6 0.0294(18) 0.0301(17) 0.0255(17) 0.0024(14) 0.0016(14) 0.0045(14)
C7 0.0337(19) 0.0267(17) 0.0310(17) -0.0005(14) 0.0059(15) 0.0006(14)
C8 0.0349(19) 0.0331(19) 0.0301(17) 0.0042(15) 0.0069(15) 0.0111(15)
C9 0.036(2) 0.042(2) 0.036(2) 0.0053(16) -0.0048(16) 0.0046(16)
C10 0.036(2) 0.035(2) 0.043(2) 0.0029(17) -0.0044(17) -0.0021(17)
C11 0.0320(18) 0.0308(18) 0.0287(17) 0.0009(14) 0.0026(14) 0.0035(14)
C12 0.036(2) 0.0312(19) 0.0264(18) -0.0010(14) 0.0038(15) -0.0013(15)
C13 0.038(2) 0.034(2) 0.0363(19) 0.0080(16) 0.0089(16) 0.0126(17)
C14 0.032(2) 0.034(2) 0.053(2) 0.0108(17) 0.0158(17) 0.0064(16)
C15 0.036(2) 0.038(2) 0.054(3) 0.0124(18) 0.0142(19) 0.0037(17)
C16 0.036(2) 0.033(2) 0.051(2) 0.0097(17) 0.0071(17) 0.0071(16)
C17 0.0262(18) 0.0321(19) 0.052(2) 0.0070(16) 0.0146(16) 0.0065(15)
C18 0.0286(18) 0.041(2) 0.046(2) 0.0072(17) 0.0115(16) 0.0039(16)
C19 0.0319(19) 0.040(2) 0.046(2) 0.0014(17) 0.0141(17) 0.0061(16)
C20 0.036(2) 0.070(3) 0.052(3) -0.002(2) 0.0032(19) 0.008(2)
Cd1 0.0255(2) 0.0272(2) 0.0285(2) 0.00005(8) 0.00159(12) 0.00461(8)
N1 0.0304(17) 0.0355(17) 0.0287(16) 0.0009(12) -0.0006(13) -0.0051(12)
N2 0.0273(15) 0.0353(17) 0.0483(19) 0.0070(14) 0.0120(14) 0.0075(13)
N3 0.0278(16) 0.0344(16) 0.0434(18) 0.0011(14) 0.0086(13) 0.0052(13)
O1 0.0402(15) 0.0353(14) 0.0561(17) 0.0145(13) 0.0100(13) 0.0057(12)
O2 0.0534(19) 0.0423(17) 0.070(2) 0.0170(15) 0.0295(16) 0.0093(14)
O3 0.072(2) 0.0457(18) 0.0573(19) 0.0199(15) -0.0118(17) -0.0071(16)
O4 0.0544(19) 0.0527(19) 0.0529(18) 0.0255(15) -0.0096(15) 0.0006(15)
C14F 0.032 0.034 0.053 0.0108 0.0158 0.0064
C15F 0.036 0.038 0.054 0.0124 0.0142 0.0037
C16F 0.036 0.033 0.051 0.0097 0.0071 0.0071
C17F 0.0262 0.0321 0.052 0.007 0.0146 0.0065
C18F 0.0286 0.041 0.046 0.0072 0.0115 0.0039
C19F 0.0319 0.04 0.046 0.0014 0.0141 0.0061
C20F 0.036 0.07 0.052 -0.002 0.0032 0.008
N2F 0.0273 0.0353 0.0483 0.007 0.012 0.0075
N3F 0.0278 0.0344 0.0434 0.0011 0.0086 0.0052
C1F 0.029 0.059 0.036 0.0082 0.0022 -0.008
C2F 0.035 0.06 0.0298 0.0118 0.0048 -0.0059
C3F 0.032 0.0251 0.0275 0.0022 0.0003 -0.0001
C4F 0.0279 0.043 0.0282 0.0039 0.0035 -0.0018
C5F 0.037 0.046 0.0247 0.0017 0.0051 -0.0028
C6F 0.0294 0.0301 0.0255 0.0024 0.0016 0.0045
C7F 0.0337 0.0267 0.031 -0.0005 0.0059 0.0006
C8F 0.0349 0.0331 0.0301 0.0042 0.0069 0.0111
C9F 0.036 0.042 0.036 0.0053 -0.0048 0.0046
C10F 0.036 0.035 0.043 0.0029 -0.0044 -0.0021
C11F 0.032 0.0308 0.0287 0.0009 0.0026 0.0035
C12F 0.036 0.0312 0.0264 -0.001 0.0038 -0.0013
C13F 0.038 0.034 0.0363 0.008 0.0089 0.0126
Cd1F 0.0255 0.0272 0.0285 5e-05 0.00159 0.00461
N1F 0.0304 0.0355 0.0287 0.0009 -0.0006 -0.0051
O1F 0.0402 0.0353 0.0561 0.0145 0.01 0.0057
O2F 0.0534 0.0423 0.07 0.017 0.0295 0.0093
O3F 0.072 0.0457 0.0573 0.0199 -0.0118 -0.0071
O4F 0.0544 0.0527 0.0529 0.0255 -0.0096 0.0006
Cd1A 0.0255 0.0272 0.0285 -5e-05 0.00159 -0.00461
Cd1C 0.0255 0.0272 0.0285 -5e-05 0.00159 -0.00461
Cd1E 0.0255 0.0272 0.0285 -5e-05 0.00159 -0.00461
Cd1G 0.0255 0.0272 0.0285 -5e-05 0.00159 -0.00461
N1A 0.0304 0.0355 0.0287 -0.0009 -0.0006 0.0051
N1G 0.0304 0.0355 0.0287 -0.0009 -0.0006 0.0051
O1C 0.0402 0.0353 0.0561 -0.0145 0.01 -0.0057
O1E 0.0402 0.0353 0.0561 -0.0145 0.01 -0.0057
O2C 0.0534 0.0423 0.07 -0.017 0.0295 -0.0093
O2E 0.0534 0.0423 0.07 -0.017 0.0295 -0.0093
O5 0.177(8) 0.107(6) 0.221(10) -0.014(6) 0.081(10) -0.001(7)
O6 0.112(5) 0.170(7) 0.118(5) -0.003(6) -0.004(4) 0.031(6)
loop_
_geom_bond_atom_site_label_1
_geom_bond_atom_site_label_2
_geom_bond_site_symmetry_1
_geom_bond_site_symmetry_2
C1 H1 1_555 1_555
C2 C1 1_555 1_555
H2 C2 1_555 1_555
C3 C2 1_555 1_555
C4 C3 1_555 1_555
H3 C4 1_555 1_555
C5 C4 1_555 1_555
H4 C5 1_555 1_555
C6 C3 1_555 1_555
C7 C6 1_555 1_555
H5 C7 1_555 1_555
C8 C7 1_555 1_555
C9 C8 1_555 1_555
H6 C9 1_555 1_555
C10 C9 1_555 1_555
H7 C10 1_555 1_555
C11 C6 1_555 1_555
C12 C11 1_555 1_555
C13 C8 1_555 1_555
C14 H8 1_555 1_555
C15 H9 1_555 1_555
C16 C15 1_555 1_555
H10 C16 1_555 1_555
C17 C18 1_555 1_555
C18 C20 1_555 1_555
C19 C17 1_555 1_555
H11 C19 1_555 1_555
C20 H12 1_555 1_555
H13 C20 1_555 1_555
H14 C20 1_555 1_555
Cd1 N3 1_555 1_555
N1 C1 1_555 1_555
N2 C14 1_555 1_555
N3 C14 1_555 1_555
O1 C12 1_555 1_555
O2 C12 1_555 1_555
O3 C13 1_555 1_555
O4 C13 1_555 1_555
O5 H15 1_555 1_555
H16 O5 1_555 1_555
O6 H17 1_555 1_555
H18 O6 1_555 1_555
C14F H8F 1_555 1_555
C15F H9F 1_555 1_555
C16F C15F 1_555 1_555
H10F C16F 1_555 1_555
C17F C18F 1_555 1_555
C18F C19 1_555 1_555
C19F C18 1_555 1_555
H11F C19F 1_555 1_555
C20F C18F 1_555 1_555
H12F C20F 1_555 1_555
H13F C20F 1_555 1_555
H14F C20F 1_555 1_555
N2F C14F 1_555 1_555
N3F C14F 1_555 1_555
C1F H1F 1_555 1_555
C2F C1F 1_555 1_555
H2F C2F 1_555 1_555
C3F C2F 1_555 1_555
C4F C3F 1_555 1_555
H3F C4F 1_555 1_555
C5F C4F 1_555 1_555
H4F C5F 1_555 1_555
C6F C3F 1_555 1_555
C7F C6F 1_555 1_555
H5F C7F 1_555 1_555
C8F C7F 1_555 1_555
C9F C8F 1_555 1_555
H6F C9F 1_555 1_555
C10F C9F 1_555 1_555
H7F C10F 1_555 1_555
C11F C6F 1_555 1_555
C12F C11F 1_555 1_555
C13F C8F 1_555 1_555
Cd1F N3F 1_555 1_555
N1F C1F 1_555 1_555
O1F C12F 1_555 1_555
O2F C12F 1_555 1_555
O3F C13F 1_555 1_555
O4F C13F 1_555 1_555
Cd1A N1F 1_555 1_555
Cd1C O1 1_555 1_555
Cd1E O1F 1_555 1_555
Cd1G N1 1_555 1_555
N1A Cd1F 1_555 1_555
N1G Cd1 1_555 1_555
O1C Cd1 1_555 1_555
O1E Cd1F 1_555 1_555
O2C Cd1 1_555 1_555
O2E Cd1F 1_555 1_555
C5 N1 1_555 1_555
C10 C11 1_555 1_555
C15 N2 1_555 1_555
C16 N3 1_555 1_555
C17 N2 1_555 1_555
Cd1 O3 1_555 1_555
Cd1 O4 1_555 1_555
O2 Cd1C 1_555 1_555
C15F N2F 1_555 1_555
C16F N3F 1_555 1_555
C17F C19F 1_555 1_555
C17F N2F 1_555 1_555
C5F N1F 1_555 1_555
C10F C11F 1_555 1_555
Cd1F O3F 1_555 1_555
Cd1F O4F 1_555 1_555
O2F Cd1E 1_555 1_555

#END
