
#######################################################################
#
#                 Cambridge Crystallographic Data Centre
#                                CCDC 
#
#######################################################################
#
# If this CIF has been generated from an entry in the Cambridge 
# Structural Database, then it will include bibliographic, chemical, 
# crystal, experimental, refinement or atomic coordinate data resulting 
# from the CCDC's data processing and validation procedures.
#
#######################################################################

data_VURYIR
_chemical_formula_moiety         '(C26 H16 Cu2 N6 O10)n'
_symmetry_cell_setting           monoclinic
_symmetry_space_group_name_H-M   'P 21/c'
_symmetry_Int_Tables_number      14
_space_group_name_Hall           '-P 2ybc'
loop_
_symmetry_equiv_pos_site_id
_symmetry_equiv_pos_as_xyz
1 x,y,z
2 -x,1/2+y,1/2-z
3 -x,-y,-z
4 x,1/2-y,1/2+z
_cell_length_a                   4.713(1)
_cell_length_b                   26.797(4)
_cell_length_c                   11.101(2)
_cell_angle_alpha                90
_cell_angle_beta                 96.52(2)
_cell_angle_gamma                90
_cell_volume                     1392.92
loop_
_atom_site_label
_atom_site_type_symbol
_atom_site_fract_x
_atom_site_fract_y
_atom_site_fract_z
_atom_site_U_iso_or_equiv
_atom_site_thermal_displace_type
Cu1 Cu 0.612(2) 0.1806(4) 0.8800(8) 0.0118 Uiso
O1 O 0.467 0.1648 0.7417 0.0118 Uiso
O2 O 0.211 0.1934 0.5796 0.0118 Uiso
O3 O -0.119(8) 0.288(1) 0.512(3) 0.0118 Uiso
O4 O 0.245 0.3057 0.4659 0.0118 Uiso
N1 N 0.584 0.2478 0.8365 0.0118 Uiso
N2 N 0.3942 0.3312 0.7275 0.0118 Uiso
N3 N 0.7433 0.1126 0.943 0.0118 Uiso
C1 C 0.3491 0.1975 0.6792 0.0118 Uiso
C2 C 0.4137 0.2476 0.7313 0.0118 Uiso
C3 C 0.6654 0.29 0.8891 0.0118 Uiso
C4 C 0.5666 0.3312 0.8303 0.0118 Uiso
C5 C 0.3148 0.2896 0.6765 0.0118 Uiso
C6 C 0.1316 0.295 0.5577 0.0118 Uiso
C7 C 0.887 0.0886 0.8639 0.0118 Uiso
C8 C 0.6941 0.0906 1.0467 0.0118 Uiso
C9 C 0.7855 0.0442 1.0751 0.0118 Uiso
C10 C 0.9861 0.0421 0.8851 0.0118 Uiso
C11 C 0.9369 0.0188 0.9922 0.0118 Uiso
C12 C 0.7271 0.0236 1.1844 0.0118 Uiso
C13 C 1.1337 0.0193 0.7991 0.0118 Uiso
H1 H 0.786 0.2913 0.9637 0.0118 Uiso
H2 H 0.6241 0.3626 0.8647 0.0118 Uiso
H3 H 0.9201 0.1048 0.7907 0.0118 Uiso
H4 H 0.5914 0.1083 1.1019 0.0118 Uiso
H5 H 0.6072 0.0379 1.2384 0.0118 Uiso
H6 H 1.1353 0.0355 0.7231 0.0118 Uiso
Cu1C Cu 1.612(2) 0.3194(4) 1.3800(8) 0.0118 Uiso
Cu1C_2 Cu -0.388(2) 0.3194(4) 0.3800(8) 0.0118 Uiso
Cu1C_3 Cu 0.612(2) 0.3194(4) 0.3800(8) 0.0118 Uiso
Cu1B Cu 1.388(2) -0.1806(4) 1.1200(8) 0.0118 Uiso
Cu1_2 Cu 1.612(2) 0.1806(4) 0.8800(8) 0.0118 Uiso
O1C O 1.467 0.3352 1.2417 0.0118 Uiso
O2C O 1.211 0.3066 1.0796 0.0118 Uiso
O3C O 0.881(8) 0.212(1) 1.012(3) 0.0118 Uiso
O3_2 O 1.881(8) 0.288(1) 1.512(3) 0.0118 Uiso
O4C O 1.245 0.1943 0.9659 0.0118 Uiso
O4C_2 O 0.245 0.1943 0.9659 0.0118 Uiso
O4_2 O 1.245 0.3057 1.4659 0.0118 Uiso
N1C N 1.584 0.2522 1.3365 0.0118 Uiso
N2C N 1.3942 0.1688 1.2275 0.0118 Uiso
N3B N 1.2567 -0.1126 1.057 0.0118 Uiso
N3C N 1.7433 0.3874 1.443 0.0118 Uiso
C1C C 1.3491 0.3025 1.1792 0.0118 Uiso
C2C C 1.4137 0.2524 1.2313 0.0118 Uiso
C3C C 1.6654 0.21 1.3891 0.0118 Uiso
C4C C 1.5666 0.1688 1.3303 0.0118 Uiso
C5C C 1.3148 0.2104 1.1765 0.0118 Uiso
C6C C 1.1316 0.205 1.0577 0.0118 Uiso
C7B C 1.113 -0.0886 1.1361 0.0118 Uiso
C8B C 1.3059 -0.0906 0.9533 0.0118 Uiso
C9B C 1.2145 -0.0442 0.9249 0.0118 Uiso
C10B C 1.0139 -0.0421 1.1149 0.0118 Uiso
C11B C 1.0631 -0.0188 1.0078 0.0118 Uiso
C12B C 1.2729 -0.0236 0.8156 0.0118 Uiso
C13B C 0.8663 -0.0193 1.2009 0.0118 Uiso
H1C H 1.786 0.2087 1.4637 0.0118 Uiso
H2C H 1.6241 0.1374 1.3647 0.0118 Uiso
H3B H 1.0799 -0.1048 1.2093 0.0118 Uiso
H4B H 1.4086 -0.1083 0.8981 0.0118 Uiso
H5B H 1.3928 -0.0379 0.7616 0.0118 Uiso
H6B H 0.8647 -0.0355 1.2769 0.0118 Uiso
O5 O 0.79(1) 0.592(2) -0.072(3) 0.0551 Uiso
O6 O 1.35(1) 0.566(1) 0.015(3) 0.0551 Uiso
loop_
_geom_bond_atom_site_label_1
_geom_bond_atom_site_label_2
_geom_bond_site_symmetry_1
_geom_bond_site_symmetry_2
Cu1 O1 1_555 1_555
O1 C1 1_555 1_555
O2 C1 1_555 1_555
O3 C6 1_555 1_555
O4 C6 1_555 1_555
N1 Cu1 1_555 1_555
N2 C4 1_555 1_555
N3 Cu1 1_555 1_555
C1 C2 1_555 1_555
C2 N1 1_555 1_555
C3 N1 1_555 1_555
C4 C3 1_555 1_555
C5 N2 1_555 1_555
C6 C5 1_555 1_555
C7 N3 1_555 1_555
C8 N3 1_555 1_555
C9 C8 1_555 1_555
C10 C7 1_555 1_555
C11 C9 1_555 1_555
C12 C9 1_555 1_555
C13 C10 1_555 1_555
H1 C3 1_555 1_555
H2 C4 1_555 1_555
H3 C7 1_555 1_555
H4 C8 1_555 1_555
H5 C12 1_555 1_555
H6 C13 1_555 1_555
Cu1C O1C 1_555 1_555
Cu1C_2 O3 1_555 1_555
Cu1C_3 O4 1_555 1_555
Cu1B N3B 1_555 1_555
Cu1_2 O4C 1_555 1_555
O1C C1C 1_555 1_555
O2C C1C 1_555 1_555
O3C Cu1 1_555 1_555
O3_2 Cu1C 1_555 1_555
O4C C6C 1_555 1_555
O4C_2 Cu1 1_555 1_555
O4_2 Cu1C 1_555 1_555
N1C Cu1C 1_555 1_555
N2C C4C 1_555 1_555
N3B C7B 1_555 1_555
N3C Cu1C 1_555 1_555
C1C C2C 1_555 1_555
C2C N1C 1_555 1_555
C3C N1C 1_555 1_555
C4C C3C 1_555 1_555
C5C N2C 1_555 1_555
C6C O3C 1_555 1_555
C7B C10B 1_555 1_555
C8B N3B 1_555 1_555
C9B C8B 1_555 1_555
C10B C11B 1_555 1_555
C11B C11 1_555 1_555
C12B C13 1_555 1_555
C13B C12 1_555 1_555
H1C C3C 1_555 1_555
H2C C4C 1_555 1_555
H3B C7B 1_555 1_555
H4B C8B 1_555 1_555
H5B C12B 1_555 1_555
H6B C13B 1_555 1_555
C2 C5 1_555 1_555
C10 C11 1_555 1_555
C2C C5C 1_555 1_555
C5C C6C 1_555 1_555
C9B C11B 1_555 1_555
C9B C12B 1_555 1_555
C10B C13B 1_555 1_555

#END
