
#######################################################################
#
#                 Cambridge Crystallographic Data Centre
#                                CCDC 
#
#######################################################################
#
# If this CIF has been generated from an entry in the Cambridge 
# Structural Database, then it will include bibliographic, chemical, 
# crystal, experimental, refinement or atomic coordinate data resulting 
# from the CCDC's data processing and validation procedures.
#
#######################################################################

data_VURYOX
_chemical_formula_moiety         '(C22 H18 Cu2 N8 O11)n'
_symmetry_cell_setting           monoclinic
_symmetry_space_group_name_H-M   'P 21/c'
_symmetry_Int_Tables_number      14
_space_group_name_Hall           '-P 2ybc'
loop_
_symmetry_equiv_pos_site_id
_symmetry_equiv_pos_as_xyz
1 x,y,z
2 -x,1/2+y,1/2-z
3 -x,-y,-z
4 x,1/2-y,1/2+z
_cell_length_a                   4.7083(4)
_cell_length_b                   31.011(2)
_cell_length_c                   10.980(1)
_cell_angle_alpha                90
_cell_angle_beta                 96.145(8)
_cell_angle_gamma                90
_cell_volume                     1593.97
loop_
_atom_site_label
_atom_site_type_symbol
_atom_site_fract_x
_atom_site_fract_y
_atom_site_fract_z
_atom_site_U_iso_or_equiv
_atom_site_thermal_displace_type
Cu1 Cu 0.48127 0.19383 0.60274 0.0101 Uiso
O1 O 0.6866 0.17576 0.75195 0.0152 Uiso
O2 O 0.95618 0.20001 0.93269 0.0152 Uiso
O3 O 1.31758 0.29141 0.98993 0.0152 Uiso
O4 O 0.87309 0.29684 1.02189 0.0152 Uiso
N1 N 0.5605 0.2519 0.666 0.0152 Uiso
N2 N 0.7767 0.3257 0.7736 0.0152 Uiso
N3 N 0.39312 0.13212 0.5394 0.0152 Uiso
N4 N 0.12225 0.00417 0.52095 0.0152 Uiso
C1 C 0.7835 0.2053 0.823 0.0152 Uiso
C2 C 0.7326 0.2507 0.7706 0.0152 Uiso
C3 C 0.4905 0.2902 0.6133 0.0152 Uiso
C4 C 0.6025 0.3267 0.6714 0.0152 Uiso
C5 C 0.8448 0.2879 0.8247 0.0152 Uiso
C6 C 1.0317 0.2916 0.9428 0.0152 Uiso
C7 C 0.25366 0.11447 0.63058 0.0152 Uiso
C8 C 0.43503 0.11045 0.44962 0.0152 Uiso
C9 C 0.32379 0.0693 0.43598 0.0152 Uiso
C10 C 0.14719 0.07418 0.61817 0.0152 Uiso
C11 C 0.18901 0.05188 0.52409 0.0152 Uiso
H1 H 0.37 0.292 0.539 0.0078 Uiso
H2 H 0.55 0.354 0.636 0.0078 Uiso
H3 H 0.23 0.1306 0.703 0.0078 Uiso
H4 H 0.5442 0.122 0.3893 0.0078 Uiso
H5 H 0.3438 0.0534 0.3634 0.0078 Uiso
H6 H 0.0414 0.0624 0.6793 0.0078 Uiso
Cu1C Cu -0.51873 0.30617 0.10274 0.0101 Uiso
Cu1C_2 Cu 1.48127 0.30617 1.10274 0.0101 Uiso
Cu1C_3 Cu 0.48127 0.30617 1.10274 0.0101 Uiso
Cu1B Cu -0.48127 -0.19383 0.39726 0.0101 Uiso
Cu1_2 Cu -0.51873 0.19383 0.60274 0.0101 Uiso
O1C O -0.3134 0.32424 0.25195 0.0152 Uiso
O2C O -0.04382 0.29999 0.43269 0.0152 Uiso
O3C O 0.31758 0.20859 0.48993 0.0152 Uiso
O3_2 O -0.68242 0.29141 -0.01007 0.0152 Uiso
O4C O -0.12691 0.20316 0.52189 0.0152 Uiso
O4C_2 O 0.87309 0.20316 0.52189 0.0152 Uiso
O4_2 O -0.12691 0.29684 0.02189 0.0152 Uiso
N1C N -0.4395 0.2481 0.166 0.0152 Uiso
N2C N -0.2233 0.1743 0.2736 0.0152 Uiso
N3B N -0.39312 -0.13212 0.4606 0.0152 Uiso
N3C N -0.60688 0.36788 0.0394 0.0152 Uiso
N4B N -0.12225 -0.00417 0.47905 0.0152 Uiso
C1C C -0.2165 0.2947 0.323 0.0152 Uiso
C2C C -0.2674 0.2493 0.2706 0.0152 Uiso
C3C C -0.5095 0.2098 0.1133 0.0152 Uiso
C4C C -0.3975 0.1733 0.1714 0.0152 Uiso
C5C C -0.1552 0.2121 0.3247 0.0152 Uiso
C6C C 0.0317 0.2084 0.4428 0.0152 Uiso
C7B C -0.25366 -0.11447 0.36942 0.0152 Uiso
C8B C -0.43503 -0.11045 0.55038 0.0152 Uiso
C9B C -0.32379 -0.0693 0.56402 0.0152 Uiso
C10B C -0.14719 -0.07418 0.38183 0.0152 Uiso
C11B C -0.18901 -0.05188 0.47591 0.0152 Uiso
H1C H -0.63 0.208 0.039 0.0078 Uiso
H2C H -0.45 0.146 0.136 0.0078 Uiso
H3B H -0.23 -0.1306 0.297 0.0078 Uiso
H4B H -0.5442 -0.122 0.6107 0.0078 Uiso
H5B H -0.3438 -0.0534 0.6366 0.0078 Uiso
H6B H -0.0414 -0.0624 0.3207 0.0078 Uiso
O5 O 0.53(1) 0.928(1) 1.059(3) 0.1317 Uiso
O6 O 0.730(6) 1.014(1) 0.142(3) 0.1317 Uiso
O7 O -0.003(8) 1.081(1) -0.023(3) 0.1317 Uiso
loop_
_geom_bond_atom_site_label_1
_geom_bond_atom_site_label_2
_geom_bond_site_symmetry_1
_geom_bond_site_symmetry_2
Cu1 O1 1_555 1_555
O1 C1 1_555 1_555
O2 C1 1_555 1_555
O3 C6 1_555 1_555
O4 C6 1_555 1_555
N1 Cu1 1_555 1_555
N2 C4 1_555 1_555
N3 Cu1 1_555 1_555
N4 C11 1_555 1_555
C1 C2 1_555 1_555
C2 N1 1_555 1_555
C3 N1 1_555 1_555
C4 C3 1_555 1_555
C5 N2 1_555 1_555
C6 C5 1_555 1_555
C7 N3 1_555 1_555
C8 N3 1_555 1_555
C9 C8 1_555 1_555
C10 C7 1_555 1_555
C11 C9 1_555 1_555
H1 C3 1_555 1_555
H2 C4 1_555 1_555
H3 C7 1_555 1_555
H4 C8 1_555 1_555
H5 C9 1_555 1_555
H6 C10 1_555 1_555
Cu1C O1C 1_555 1_555
Cu1C_2 O3 1_555 1_555
Cu1C_3 O4 1_555 1_555
Cu1B N3B 1_555 1_555
Cu1_2 O4C 1_555 1_555
O1C C1C 1_555 1_555
O2C C1C 1_555 1_555
O3C Cu1 1_555 1_555
O3_2 Cu1C 1_555 1_555
O4C C6C 1_555 1_555
O4C_2 Cu1 1_555 1_555
O4_2 Cu1C 1_555 1_555
N1C Cu1C 1_555 1_555
N2C C4C 1_555 1_555
N3B C7B 1_555 1_555
N3C Cu1C 1_555 1_555
N4B N4 1_555 1_555
C1C C2C 1_555 1_555
C2C N1C 1_555 1_555
C3C N1C 1_555 1_555
C4C C3C 1_555 1_555
C5C N2C 1_555 1_555
C6C O3C 1_555 1_555
C7B C10B 1_555 1_555
C8B N3B 1_555 1_555
C9B C8B 1_555 1_555
C10B C11B 1_555 1_555
C11B N4B 1_555 1_555
H1C C3C 1_555 1_555
H2C C4C 1_555 1_555
H3B C7B 1_555 1_555
H4B C8B 1_555 1_555
H5B C9B 1_555 1_555
H6B C10B 1_555 1_555
C2 C5 1_555 1_555
C10 C11 1_555 1_555
C2C C5C 1_555 1_555
C5C C6C 1_555 1_555
C9B C11B 1_555 1_555

#END
