
#######################################################################
#
#                 Cambridge Crystallographic Data Centre
#                                CCDC 
#
#######################################################################
#
# If this CIF has been generated from an entry in the Cambridge 
# Structural Database, then it will include bibliographic, chemical, 
# crystal, experimental, refinement or atomic coordinate data resulting 
# from the CCDC's data processing and validation procedures.
#
#######################################################################

data_KIVDUQ
_chemical_formula_moiety         '(C30 H20 K1 La3 O30)n'
_symmetry_cell_setting           triclinic
_symmetry_space_group_name_H-M   'P -1'
_symmetry_Int_Tables_number      2
_space_group_name_Hall           '-P 1'
loop_
_symmetry_equiv_pos_site_id
_symmetry_equiv_pos_as_xyz
1 x,y,z
2 -x,-y,-z
_cell_length_a                   10.872(2)
_cell_length_b                   16.737(3)
_cell_length_c                   17.380(3)
_cell_angle_alpha                114.48(3)
_cell_angle_beta                 92.95(3)
_cell_angle_gamma                99.63(3)
_cell_volume                     2811.87
loop_
_atom_site_label
_atom_site_type_symbol
_atom_site_fract_x
_atom_site_fract_y
_atom_site_fract_z
O1 O 0.8188(3) -0.0087(2) 1.0515(2)
O2 O 0.4635(3) 0.2382(2) 1.0383(2)
O3 O 0.3043(3) 0.1773(2) 1.0880(2)
C1 C 0.4148(4) 0.1874(3) 1.0708(3)
C2 C 0.4928(4) 0.1321(3) 1.0895(3)
O4 O 0.9288(3) -0.0731(3) 0.8880(3)
La1 La 1.08260(2) 0.140788(18) 1.012613(17)
La2 La 1.37069(2) 0.343641(18) 0.996114(19)
La3 La 1.43860(3) -0.135172(19) 0.405779(18)
C3 C 1.2616(5) -0.0264(3) 0.6440(3)
O5 O 0.9926(3) 0.2527(2) 0.9681(2)
O6 O 0.6118(3) 0.1365(2) 1.0663(2)
O7 O 0.8410(3) 0.3592(2) 0.9470(2)
O8 O 0.8523(3) 0.1226(2) 1.0403(2)
O9 O 1.2260(3) 0.1657(2) 0.9127(2)
O10 O 0.6000(3) 0.3724(2) 0.9703(2)
O11 O 1.1537(3) 0.3276(2) 0.9318(2)
O12 O 0.9350(3) 0.0520(2) 0.8726(2)
O13 O 0.7591(3) -0.0355(2) 0.7326(2)
O14 O 1.3752(3) 0.2118(2) 0.8511(2)
O15 O 1.2199(3) 0.3280(2) 1.0936(2)
O16 O 1.3824(3) 0.0020(2) 0.5454(2)
O17 O 1.2961(3) 0.4808(2) 1.2370(2)
O18 O 0.6251(3) 0.4949(2) 0.9462(2)
O19 O 1.0786(4) 0.2738(2) 1.1558(2)
C4 C 1.1941(6) 0.4201(4) 1.2336(4)
O20 O 1.5114(3) 0.4358(2) 1.1445(2)
C5 C 0.6620(4) 0.4291(3) 0.9506(3)
O21 O 1.3083(3) 0.0589(2) 0.7040(2)
C6 C 1.2492(4) 0.0671(3) 0.7743(3)
C7 C 0.7878(4) 0.0614(3) 1.0550(3)
O22 O 1.3724(3) 0.3906(3) 0.8688(2)
C8 C 0.9607(4) 0.3649(3) 0.9248(3)
C9 C 0.6617(4) 0.0735(3) 1.0804(3)
C10 C 1.0413(4) 0.3101(3) 0.9438(3)
O23 O 0.6258(4) 0.0221(2) 0.6396(2)
O24 O 1.2741(4) -0.1348(2) 0.5087(2)
C11 C 1.1632(5) 0.3350(4) 1.1560(3)
C12 C 0.7904(4) 0.4194(3) 0.9282(3)
O25 O 1.6306(4) -0.2079(3) 0.3577(3)
O26 O 0.5546(3) -0.1198(2) 0.5396(2)
C13 C 1.1694(5) -0.0106(3) 0.7587(3)
H1 H 1.1195 -0.0222 0.7963
C14 C 1.2860(4) 0.1530(3) 0.8502(3)
O27 O 1.3936(4) 0.7070(2) 1.3829(2)
C15 C 0.9819(5) 0.4256(4) 0.8926(4)
H2 H 1.0552 0.4415 0.8724
C16 C 0.8979(4) -0.0307(4) 0.8480(3)
C17 C 0.8724(4) 0.4606(3) 0.8950(4)
H3 H 0.8597 0.5040 0.8769
C18 C 0.6177(5) -0.0621(4) 0.6081(3)
C19 C 0.4673(5) 0.0695(4) 1.1190(4)
H4 H 0.3938 0.0543 1.1394
C20 C 0.6891(5) -0.0964(3) 0.6581(3)
C21 C 0.8153(5) -0.0820(4) 0.7675(3)
C22 C 1.1770(5) -0.0705(4) 0.6744(4)
H5 H 1.1320 -0.1293 0.6451
C23 C 1.3089(5) -0.0540(3) 0.5611(3)
C24 C 0.7826(6) -0.1704(4) 0.7183(4)
H6 H 0.8073 -0.2159 0.7288
O28 O 1.2107(4) -0.2029(3) 0.3245(3)
C25 C 0.5775(5) 0.0304(4) 1.1128(4)
H7 H 0.5886 -0.0153 1.1281
O29 O 1.4317(4) -0.2035(3) 0.2431(2)
C26 C 1.2056(8) 0.5451(5) 1.3489(5)
H8 H 1.1876 0.5873 1.3998
O30 O 1.4959(4) 0.6183(3) 1.2846(3)
C27 C 1.2994(6) 0.5566(4) 1.3081(4)
C28 C 0.7006(6) -0.1802(4) 0.6451(4)
H9 H 0.6632 -0.2336 0.5984
C29 C 1.1363(8) 0.4562(5) 1.3013(5)
H10 H 1.0646 0.4286 1.3148
C30 C 1.4067(6) 0.6330(4) 1.3261(4)
K1 K 0.73014(12) 0.25633(10) 1.01824(11)
O1A O 1.1812(3) 0.0087(2) 0.9485(2)
O2_2 O 1.4635(3) 0.2382(2) 1.0383(2)
O3_2 O 1.3043(3) 0.1773(2) 1.0880(2)
O4A O 1.0712(3) 0.0731(3) 1.1120(3)
La1_2 La 0.08260(2) 0.140788(18) 1.012613(17)
La1A La 0.91740(2) -0.140788(18) 0.987387(17)
La2_2 La 0.37069(2) 0.343641(18) 0.996114(19)
La2A La 0.62931(2) 0.656359(18) 1.003886(19)
La3_2 La 0.43860(3) -0.135172(19) 0.405779(18)
La3_3 La 1.43860(3) 0.864828(19) 1.405779(18)
La3A La 0.56140(3) 0.135172(19) 0.594221(18)
La3A_2 La 1.56140(3) 0.135172(19) 0.594221(18)
O10_2 O 1.6000(3) 0.3724(2) 0.9703(2)
O16A O 1.6176(3) -0.0020(2) 0.4546(2)
O18A O 1.3749(3) 0.5051(2) 1.0538(2)
O23A O 1.3742(4) -0.0221(2) 0.3604(2)
O26_2 O 1.5546(3) -0.1198(2) 0.5396(2)
O27_2 O 1.3936(4) -0.2930(2) 0.3829(2)
loop_
_geom_bond_atom_site_label_1
_geom_bond_atom_site_label_2
_geom_bond_site_symmetry_1
_geom_bond_site_symmetry_2
O1 C7 1_555 1_555
O2 C1 1_555 1_555
O3 C1 1_555 1_555
C1 C2 1_555 1_555
C2 O6 1_555 1_555
O4 C16 1_555 1_555
La1 O5 1_555 1_555
La2 O9 1_555 1_555
La3 O16 1_555 1_555
C3 O21 1_555 1_555
O5 C10 1_555 1_555
O6 C9 1_555 1_555
O7 C8 1_555 1_555
O8 La1 1_555 1_555
O9 La1 1_555 1_555
O10 C5 1_555 1_555
O11 La2 1_555 1_555
O12 La1 1_555 1_555
O13 C20 1_555 1_555
O14 La2 1_555 1_555
O15 La1 1_555 1_555
O16 C23 1_555 1_555
O17 C4 1_555 1_555
O18 C5 1_555 1_555
O19 La1 1_555 1_555
C4 C11 1_555 1_555
O20 La2 1_555 1_555
C5 C12 1_555 1_555
O21 C6 1_555 1_555
C6 C13 1_555 1_555
C7 O8 1_555 1_555
O22 La2 1_555 1_555
C8 C10 1_555 1_555
C9 C7 1_555 1_555
C10 O11 1_555 1_555
O23 C18 1_555 1_555
O24 La3 1_555 1_555
C11 O15 1_555 1_555
C12 O7 1_555 1_555
O25 La3 1_555 1_555
O26 C18 1_555 1_555
C13 H1 1_555 1_555
C14 O9 1_555 1_555
O27 C30 1_555 1_555
C15 C8 1_555 1_555
H2 C15 1_555 1_555
C16 O12 1_555 1_555
C17 C12 1_555 1_555
H3 C17 1_555 1_555
C18 C20 1_555 1_555
C19 C2 1_555 1_555
H4 C19 1_555 1_555
C20 C28 1_555 1_555
C21 O13 1_555 1_555
C22 C3 1_555 1_555
H5 C22 1_555 1_555
C23 C3 1_555 1_555
C24 C21 1_555 1_555
H6 C24 1_555 1_555
O28 La3 1_555 1_555
C25 C9 1_555 1_555
H7 C25 1_555 1_555
O29 La3 1_555 1_555
C26 H8 1_555 1_555
O30 C30 1_555 1_555
C27 O17 1_555 1_555
C28 C24 1_555 1_555
H9 C28 1_555 1_555
C29 C4 1_555 1_555
H10 C29 1_555 1_555
C30 C27 1_555 1_555
K1 O2 1_555 1_555
O1A La1 1_555 1_555
O2_2 La2 1_555 1_555
O3_2 La1 1_555 1_555
O4A La1 1_555 1_555
La1_2 O3 1_555 1_555
La1A O1 1_555 1_555
La2_2 O2 1_555 1_555
La2A O18 1_555 1_555
La3_2 O26 1_555 1_555
La3_3 O27 1_555 1_555
La3A O23 1_555 1_555
La3A_2 O16 1_555 1_555
O10_2 La2 1_555 1_555
O16A La3 1_555 1_555
O18A La2 1_555 1_555
O23A La3 1_555 1_555
O26_2 La3 1_555 1_555
O27_2 La3 1_555 1_555
O4 La1A 1_555 1_555
La2 O15 1_555 1_555
O5 K1 1_555 1_555
O6 K1 1_555 1_555
O7 K1 1_555 1_555
O8 K1 1_555 1_555
O10 K1 1_555 1_555
O10 La2_2 1_555 1_555
O14 C14 1_555 1_555
O19 C11 1_555 1_555
C6 C14 1_555 1_555
O24 C23 1_555 1_555
C13 C22 1_555 1_555
C15 C17 1_555 1_555
C16 C21 1_555 1_555
C19 C25 1_555 1_555
C26 C27 1_555 1_555
C26 C29 1_555 1_555
La3A_2 O16A 1_555 1_555

#END
