
#######################################################################
#
#                 Cambridge Crystallographic Data Centre
#                                CCDC 
#
#######################################################################
#
# If this CIF has been generated from an entry in the Cambridge 
# Structural Database, then it will include bibliographic, chemical, 
# crystal, experimental, refinement or atomic coordinate data resulting 
# from the CCDC's data processing and validation procedures.
#
#######################################################################

data_NEVJEF
_chemical_formula_moiety         '(C34 H36 Cd4 N4 O23)n'
_symmetry_cell_setting           monoclinic
_symmetry_space_group_name_H-M   'P 2/c'
_symmetry_Int_Tables_number      13
_space_group_name_Hall           '-P 2yc'
loop_
_symmetry_equiv_pos_site_id
_symmetry_equiv_pos_as_xyz
1 x,y,z
2 -x,y,1/2-z
3 -x,-y,-z
4 x,-y,1/2+z
_cell_length_a                   18.0861(6)
_cell_length_b                   14.2083(3)
_cell_length_c                   19.2980(5)
_cell_angle_alpha                90
_cell_angle_beta                 97.836(2)
_cell_angle_gamma                90
_cell_volume                     4912.75
loop_
_atom_site_label
_atom_site_type_symbol
_atom_site_fract_x
_atom_site_fract_y
_atom_site_fract_z
Cd1 Cd 0.16340(2) 0.79502(3) 0.437160(19)
O1 O 0.2333(2) 0.8484(3) 0.54851(19)
N1 N 0.3234(2) 0.9709(3) 0.6520(2)
C1 C 0.1905(3) 0.9191(4) 0.5528(3)
Cd2 Cd 0.32912(2) 0.79813(3) 0.624455(19)
O2 O 0.1485(2) 0.9485(3) 0.50154(19)
N2 N 0.4376(2) 0.5740(3) 0.8929(2)
C2 C 0.1867(3) 0.9650(3) 0.6227(2)
Cd3 Cd 0.51193(2) 0.86648(3) 1.02204(2)
O3 O 0.0954(3) 1.1080(6) 0.8337(3)
N3 N 0.2815(2) 0.7578(3) 0.8673(3)
C3 C 0.1159(3) 0.9828(4) 0.6395(3)
H1 H 0.0736 0.9667 0.6069
Cd4 Cd 0.400257(19) 0.72986(2) 0.835553(18)
O4 O 0.2156(3) 1.1218(4) 0.8559(3)
N4 N -0.0531(3) 0.7809(3) 1.0188(3)
C4 C 0.1053(4) 1.0231(5) 0.7024(3)
H2 H 0.0565 1.0361 0.7128
O5 O 0.4098(2) 0.8908(3) 0.5632(2)
C5 C 0.1677(4) 1.0442(4) 0.7502(3)
O6 O 0.4179(2) 1.0187(3) 0.50077(18)
C6 C 0.1582(5) 1.0945(5) 0.8185(3)
O7 O 0.3652(2) 0.8214(2) 0.73912(18)
C7 C 0.2390(3) 1.0267(4) 0.7345(3)
H3 H 0.2810 1.0413 0.7680
O8 O 0.4185(2) 0.9114(3) 0.82254(19)
C8 C 0.2499(3) 0.9885(3) 0.6710(2)
O9 O 0.4235(3) 0.7526(3) 1.0634(2)
C9 C 0.3396(3) 1.0261(3) 0.5905(2)
H4 H 0.3616 1.0874 0.6065
H5 H 0.2924 1.0386 0.5595
O10 O 0.4402(2) 0.7585(2) 0.95331(18)
C10 C 0.3931(3) 0.9747(3) 0.5493(2)
O11 O 0.1923(3) 0.3654(4) 1.0135(3)
C11 C 0.3852(3) 0.9814(3) 0.7098(3)
H6 H 0.3787 1.0411 0.7348
H7 H 0.4329 0.9852 0.6903
O12 O 0.2510(3) 0.3170(3) 0.9294(3)
C12 C 0.3890(3) 0.9011(4) 0.7612(3)
O13 O 0.5277(2) 0.7077(3) 0.8424(2)
C13 C 0.4145(3) 0.7174(4) 1.0039(3)
O14 O 0.6208(2) 0.6807(3) 0.9261(2)
C14 C 0.3724(3) 0.6264(3) 0.9913(3)
O15 O 0.3457(2) 0.6104(3) 0.7678(2)
C15 C 0.3192(4) 0.6099(4) 1.0357(3)
H8 H 0.3134 0.6540 1.0716
O16 O 0.3509(4) 0.4624(4) 0.7357(4)
C16 C 0.2748(4) 0.5308(4) 1.0285(3)
H9 H 0.2384 0.5209 1.0589
O17 O 0.2487(3) 0.6864(3) 0.6608(2)
C17 C 0.2834(3) 0.4664(4) 0.9775(3)
O18 O 0.1007(6) 0.6782(8) 0.3483(6)
C18 C 0.2379(3) 0.3769(4) 0.9720(3)
O19 O 0.5921(3) 0.7501(4) 1.0649(3)
C19 C 0.3360(3) 0.4815(3) 0.9326(3)
H10 H 0.3406 0.4371 0.8966
O20 O 0.5237(3) 0.9213(3) 1.1323(2)
C20 C 0.3824(3) 0.5602(3) 0.9391(3)
C21 C 0.5145(3) 0.5874(4) 0.9278(3)
H11 H 0.5423 0.5277 0.9258
H12 H 0.5131 0.6024 0.9777
C22 C 0.5559(3) 0.6650(3) 0.8953(3)
C23 C 0.4361(3) 0.5094(4) 0.8329(3)
H13 H 0.4325 0.4439 0.8497
H14 H 0.4837 0.5153 0.8133
C24 C 0.3719(4) 0.5272(4) 0.7749(3)
C25 C 0.2637(3) 0.8365(4) 0.8995(3)
H15 H 0.2986 0.8868 0.9040
C26 C 0.1976(4) 0.8484(5) 0.9264(4)
H16 H 0.1863 0.9068 0.9466
C27 C 0.1474(3) 0.7733(4) 0.9236(4)
C28 C 0.1663(3) 0.6917(5) 0.8914(4)
H17 H 0.1337 0.6390 0.8881
C29 C 0.2327(3) 0.6871(4) 0.8639(4)
H18 H 0.2443 0.6305 0.8415
C30 C 0.0680(4) 0.8394(6) 1.0082(4)
H19 H 0.1061 0.8833 1.0242
C31 C 0.0023(4) 0.8379(7) 1.0380(5)
H20 H -0.0026 0.8811 1.0747
C32 C -0.0466(5) 0.7282(7) 0.9632(6)
H21 H -0.0878 0.6899 0.9452
C33 C 0.0156(5) 0.7257(8) 0.9304(6)
H22 H 0.0162 0.6879 0.8898
C34 C 0.0777(3) 0.7780(4) 0.9561(4)
Cd1A Cd -0.16340(2) 0.79502(3) 1.062840(19)
Cd1C Cd 0.16340(2) 0.20498(3) 0.937160(19)
Cd1C_2 Cd 0.16340(2) 1.20498(3) 0.937160(19)
Cd2A Cd 0.67088(2) 0.79813(3) 0.875545(19)
Cd3A Cd 0.48807(2) 0.86648(3) 0.47796(2)
Cd3C Cd 0.51193(2) 1.13352(3) 0.52204(2)
O3C O 0.0954(3) 0.8920(6) 0.3337(3)
O4C O 0.2156(3) 0.8782(4) 0.3559(3)
N4A N 0.0531(3) 0.7809(3) 0.4812(3)
O5A O 0.5902(2) 0.8908(3) 0.9368(2)
O6A O 0.5821(2) 1.0187(3) 0.99923(18)
O6C O 0.4179(2) 0.9813(3) 1.00077(18)
O11C O 0.1923(3) 0.6346(4) 0.5135(3)
O12C O 0.2510(3) 0.6830(3) 0.4294(3)
O14A O 0.3792(2) 0.6807(3) 0.5739(2)
O21 O 0.5000 0.8192(5) 1.2500
O22 O 0.3913(8) 0.2935(7) 0.6951(4)
O23 O 0.3356(5) 1.2087(9) 0.8078(5)
loop_
_geom_bond_atom_site_label_1
_geom_bond_atom_site_label_2
_geom_bond_site_symmetry_1
_geom_bond_site_symmetry_2
Cd1 O1 1_555 1_555
O1 C1 1_555 1_555
N1 Cd2 1_555 1_555
C1 O2 1_555 1_555
Cd2 O1 1_555 1_555
O2 Cd1 1_555 1_555
N2 Cd4 1_555 1_555
C2 C1 1_555 1_555
Cd3 O9 1_555 1_555
O3 C6 1_555 1_555
N3 Cd4 1_555 1_555
C3 C2 1_555 1_555
H1 C3 1_555 1_555
Cd4 O7 1_555 1_555
O4 C6 1_555 1_555
N4 C31 1_555 1_555
C4 C3 1_555 1_555
H2 C4 1_555 1_555
O5 Cd2 1_555 1_555
C5 C4 1_555 1_555
O6 C10 1_555 1_555
C6 C5 1_555 1_555
O7 Cd2 1_555 1_555
C7 C5 1_555 1_555
H3 C7 1_555 1_555
O8 Cd4 1_555 1_555
C8 N1 1_555 1_555
O9 C13 1_555 1_555
C9 N1 1_555 1_555
H4 C9 1_555 1_555
H5 C9 1_555 1_555
O10 Cd3 1_555 1_555
C10 O5 1_555 1_555
O11 C18 1_555 1_555
C11 N1 1_555 1_555
H6 C11 1_555 1_555
H7 C11 1_555 1_555
O12 C18 1_555 1_555
C12 O7 1_555 1_555
O13 Cd4 1_555 1_555
C13 O10 1_555 1_555
O14 C22 1_555 1_555
C14 C13 1_555 1_555
O15 Cd4 1_555 1_555
C15 C14 1_555 1_555
H8 C15 1_555 1_555
O16 C24 1_555 1_555
C16 C15 1_555 1_555
H9 C16 1_555 1_555
O17 Cd2 1_555 1_555
C17 C16 1_555 1_555
O18 Cd1 1_555 1_555
C18 C17 1_555 1_555
O19 Cd3 1_555 1_555
C19 C17 1_555 1_555
H10 C19 1_555 1_555
O20 Cd3 1_555 1_555
C20 N2 1_555 1_555
C21 N2 1_555 1_555
H11 C21 1_555 1_555
H12 C21 1_555 1_555
C22 O13 1_555 1_555
C23 N2 1_555 1_555
H13 C23 1_555 1_555
H14 C23 1_555 1_555
C24 O15 1_555 1_555
C25 N3 1_555 1_555
H15 C25 1_555 1_555
C26 C25 1_555 1_555
H16 C26 1_555 1_555
C27 C26 1_555 1_555
C28 C27 1_555 1_555
H17 C28 1_555 1_555
C29 N3 1_555 1_555
H18 C29 1_555 1_555
C30 H19 1_555 1_555
C31 C30 1_555 1_555
H20 C31 1_555 1_555
C32 N4 1_555 1_555
H21 C32 1_555 1_555
C33 C32 1_555 1_555
H22 C33 1_555 1_555
C34 C27 1_555 1_555
Cd1A N4 1_555 1_555
Cd1C O11 1_555 1_555
Cd1C_2 O3 1_555 1_555
Cd2A O14 1_555 1_555
Cd3A O5 1_555 1_555
Cd3C O6 1_555 1_555
O3C Cd1 1_555 1_555
O4C Cd1 1_555 1_555
N4A Cd1 1_555 1_555
O5A Cd3 1_555 1_555
O6A Cd3 1_555 1_555
O6C Cd3 1_555 1_555
O11C Cd1 1_555 1_555
O12C Cd1 1_555 1_555
O14A Cd2 1_555 1_555
C2 C8 1_555 1_555
Cd4 O10 1_555 1_555
O4 Cd1C_2 1_555 1_555
O6 Cd3A 1_555 1_555
C7 C8 1_555 1_555
O8 C12 1_555 1_555
C9 C10 1_555 1_555
C11 C12 1_555 1_555
O12 Cd1C 1_555 1_555
C14 C20 1_555 1_555
C19 C20 1_555 1_555
C21 C22 1_555 1_555
C23 C24 1_555 1_555
C28 C29 1_555 1_555
C30 C34 1_555 1_555
C33 C34 1_555 1_555
Cd2A O5A 1_555 1_555

#END
