
#######################################################################
#
#                 Cambridge Crystallographic Data Centre
#                                CCDC 
#
#######################################################################
#
# If this CIF has been generated from an entry in the Cambridge 
# Structural Database, then it will include bibliographic, chemical, 
# crystal, experimental, refinement or atomic coordinate data resulting 
# from the CCDC's data processing and validation procedures.
#
#######################################################################

data_OTATOT
_chemical_formula_moiety         '(C31 H28 N2 O10 Tb1)n'
_symmetry_cell_setting           orthorhombic
_symmetry_space_group_name_H-M   'P c c n'
_symmetry_Int_Tables_number      56
_space_group_name_Hall           '-P 2ab 2ac'
loop_
_symmetry_equiv_pos_site_id
_symmetry_equiv_pos_as_xyz
1 x,y,z
2 1/2-x,1/2-y,z
3 -x,1/2+y,1/2-z
4 1/2+x,-y,1/2-z
5 -x,-y,-z
6 1/2+x,1/2+y,-z
7 x,1/2-y,1/2+z
8 1/2-x,y,1/2+z
_cell_length_a                   17.7423(5)
_cell_length_b                   19.7457(5)
_cell_length_c                   10.0389(3)
_cell_angle_alpha                90
_cell_angle_beta                 90
_cell_angle_gamma                90
_cell_volume                     3516.97
loop_
_atom_site_label
_atom_site_type_symbol
_atom_site_fract_x
_atom_site_fract_y
_atom_site_fract_z
_atom_site_U_iso_or_equiv
_atom_site_thermal_displace_type
O1 O 0.21973(9) 0.67141(8) 0.62685(17) 0.0357 Uani
Tb1 Tb 0.2500 0.7500 0.968620(15) 0.0208 Uani
C1 C 0.20450(12) 0.63659(11) 0.7280(2) 0.0250 Uani
C2 C 0.19288(12) 0.56196(11) 0.7048(2) 0.0251 Uani
C3 C 0.15409(14) 0.52241(12) 0.7966(3) 0.0354 Uani
H1 H 0.1368 0.5413 0.8758 0.0420 Uiso
C4 C 0.14145(17) 0.45453(14) 0.7690(3) 0.0488 Uani
H2 H 0.1146 0.4281 0.8292 0.0590 Uiso
C5 C 0.21967(14) 0.53235(12) 0.5892(3) 0.0354 Uani
H3 H 0.2461 0.5584 0.5278 0.0420 Uiso
C6 C 0.20743(16) 0.46442(13) 0.5644(3) 0.0474 Uani
H4 H 0.2259 0.4449 0.4868 0.0570 Uiso
C7 C 0.16824(16) 0.42593(13) 0.6537(3) 0.0533 Uani
H5 H 0.1597 0.3803 0.6363 0.0640 Uiso
C8 C 0.43682(14) 0.64528(12) 1.0033(3) 0.0342 Uani
H6 H 0.4377 0.6855 1.0516 0.0410 Uiso
C9 C 0.43802(13) 0.52938(11) 0.8582(3) 0.0372 Uani
H7 H 0.4384 0.4906 0.8057 0.0450 Uiso
C10 C 0.47864(13) 0.52990(11) 0.9758(2) 0.0284 Uani
C11 C 0.39727(14) 0.58452(12) 0.8170(3) 0.0357 Uani
H8 H 0.3705 0.5827 0.7374 0.0430 Uiso
C12 C 0.47745(14) 0.59010(12) 1.0471(3) 0.0353 Uani
H9 H 0.5046 0.5933 1.1260 0.0420 Uiso
N1 N 0.39598(10) 0.64111(9) 0.89115(19) 0.0263 Uani
O2 O 0.19829(9) 0.65990(8) 0.84359(18) 0.0352 Uani
O3 O 0.35540(8) 0.69477(7) 0.85085(17) 0.0305 Uani
O4 O 0.36614(10) 0.78461(9) 1.0785(2) 0.0314 Uani
H16 H 0.3630(12) 0.7893(13) 1.1567(17) 0.0320 Uiso
H17 H 0.3954(13) 0.8138(11) 1.053(3) 0.0470 Uiso
O1G O 0.28027(9) 0.67141(8) 1.12685(17) 0.0357 Uani
O1F O 0.21973(9) 0.82859(8) 1.12685(17) 0.0357 Uani
O1A O 0.28027(9) 0.82859(8) 0.62685(17) 0.0357 Uani
Tb1F Tb 0.2500 0.7500 0.468620(15) 0.0208 Uani
Tb1D Tb 0.7500 0.2500 1.031380(15) 0.0208 Uani
C1A C 0.29550(12) 0.86341(11) 0.7280(2) 0.0250 Uani
C2A C 0.30712(12) 0.93804(11) 0.7048(2) 0.0251 Uani
C3A C 0.34591(14) 0.97759(12) 0.7966(3) 0.0354 Uani
H1A H 0.3632 0.9587 0.8758 0.0420 Uiso
C4A C 0.35855(17) 1.04547(14) 0.7690(3) 0.0488 Uani
H2A H 0.3854 1.0719 0.8292 0.0590 Uiso
C5A C 0.28033(14) 0.96765(12) 0.5892(3) 0.0354 Uani
H3A H 0.2539 0.9416 0.5278 0.0420 Uiso
C6A C 0.29257(16) 1.03558(13) 0.5644(3) 0.0474 Uani
H4A H 0.2741 1.0551 0.4868 0.0570 Uiso
C7A C 0.33176(16) 1.07407(13) 0.6537(3) 0.0533 Uani
H5A H 0.3403 1.1197 0.6363 0.0640 Uiso
C8D C 0.56318(14) 0.35472(12) 0.9967(3) 0.0342 Uani
H6D H 0.5623 0.3145 0.9484 0.0410 Uiso
C9D C 0.56198(13) 0.47062(11) 1.1418(3) 0.0372 Uani
H7D H 0.5616 0.5094 1.1943 0.0450 Uiso
C10D C 0.52136(13) 0.47010(11) 1.0242(2) 0.0284 Uani
C11D C 0.60273(14) 0.41548(12) 1.1830(3) 0.0357 Uani
H8D H 0.6295 0.4173 1.2626 0.0430 Uiso
C12D C 0.52255(14) 0.40990(12) 0.9529(3) 0.0353 Uani
H9D H 0.4954 0.4067 0.8740 0.0420 Uiso
N1D N 0.60402(10) 0.35889(9) 1.10885(19) 0.0263 Uani
O2A O 0.30171(9) 0.84010(8) 0.84359(18) 0.0352 Uani
O3D O 0.64460(8) 0.30523(7) 1.14915(17) 0.0305 Uani
O3A O 0.14460(8) 0.80523(7) 0.85085(17) 0.0305 Uani
O4A O 0.13386(10) 0.71539(9) 1.0785(2) 0.0314 Uani
H16A H 0.1370(12) 0.7107(13) 1.1567(17) 0.0320 Uiso
H17A H 0.1046(13) 0.6862(11) 1.053(3) 0.0470 Uiso
C13 C 0.01566(16) 0.39874(14) 0.0550(3) 0.0441 Uani
C14 C 0.05533(14) 0.34891(13) 0.1422(3) 0.0429 Uani
C15 C 0.01877(17) 0.28942(15) 0.1802(3) 0.0534 Uani
H10 H -0.0290 0.2800 0.1468 0.0640 Uiso
C16 C 0.12699(16) 0.36174(16) 0.1919(3) 0.0616 Uani
H11 H 0.1518 0.4014 0.1683 0.0740 Uiso
C17 C 0.1616(2) 0.3162(2) 0.2759(4) 0.0850 Uani
H12 H 0.2103 0.3244 0.3061 0.1020 Uiso
C18 C 0.0524(2) 0.24457(16) 0.2662(4) 0.0673 Uani
H13 H 0.0273 0.2053 0.2915 0.0800 Uiso
C19 C 0.1239(2) 0.25815(18) 0.3153(5) 0.0837 Uani
H14 H 0.1466 0.2283 0.3747 0.1010 Uiso
O5 O 0.03914(11) 0.46024(9) 0.0656(2) 0.0539 Uani
H15 H 0.0150 0.4846 0.0151 0.0810 Uiso
O6 O -0.03642(13) 0.38192(11) -0.0185(2) 0.0635 Uani
loop_
_atom_site_aniso_label
_atom_site_aniso_U_11
_atom_site_aniso_U_22
_atom_site_aniso_U_33
_atom_site_aniso_U_23
_atom_site_aniso_U_13
_atom_site_aniso_U_12
O1 0.0452(10) 0.0287(9) 0.0331(13) 0.0092(8) 0.0005(8) -0.0036(7)
Tb1 0.02961(9) 0.01686(8) 0.01588(10) 0.000 0.000 0.00147(7)
C1 0.0229(13) 0.0256(13) 0.0265(16) 0.0009(11) -0.0004(10) -0.0002(10)
C2 0.0305(13) 0.0218(12) 0.0231(16) 0.0008(10) -0.0039(10) -0.0004(10)
C3 0.0461(16) 0.0316(15) 0.0285(18) 0.0026(11) 0.0030(11) -0.0043(12)
C4 0.0611(19) 0.0293(16) 0.056(2) 0.0098(13) 0.0037(15) -0.0138(14)
C5 0.0420(14) 0.0325(14) 0.0316(18) -0.0039(12) 0.0044(13) -0.0008(11)
C6 0.0578(19) 0.0374(16) 0.047(2) -0.0169(14) 0.0043(15) 0.0044(14)
C7 0.067(2) 0.0229(14) 0.070(3) -0.0080(15) -0.0028(17) -0.0044(13)
C8 0.0407 0.0293 0.0326 -0.0084 -0.0085 0.0067
C9 0.0517 0.027 0.0329 -0.0064 -0.0063 0.0113
C10 0.0305 0.0277 0.0269 0.0008 0.002 0.0036
C11 0.0502 0.0334 0.0234 -0.0049 -0.0097 0.0071
C12 0.0403 0.0377 0.0278 -0.0061 -0.0126 0.009
N1 0.0289 0.028 0.0219 0.0029 0.0014 0.0044
O2 0.0456(10) 0.0323(9) 0.0278(12) -0.0087(8) 0.0039(8) -0.0056(8)
O3 0.0388 0.0288 0.0239 0.0025 -0.0006 0.0137
O4 0.0404 0.0332 0.0205 -0.0022 0.0035 -0.0075
O1G 0.0452 0.0287 0.0331 0.0092 -0.0005 0.0036
O1F 0.0452 0.0287 0.0331 -0.0092 0.0005 0.0036
O1A 0.0452 0.0287 0.0331 -0.0092 -0.0005 -0.0036
Tb1F 0.02961 0.01686 0.01588 0 0 -0.00147
Tb1D 0.02961 0.01686 0.01588 0 0 0.00147
C1A 0.0229 0.0256 0.0265 -0.0009 0.0004 -0.0002
C2A 0.0305 0.0218 0.0231 -0.0008 0.0039 -0.0004
C3A 0.0461 0.0316 0.0285 -0.0026 -0.003 -0.0043
C4A 0.0611 0.0293 0.056 -0.0098 -0.0037 -0.0138
C5A 0.042 0.0325 0.0316 0.0039 -0.0044 -0.0008
C6A 0.0578 0.0374 0.047 0.0169 -0.0043 0.0044
C7A 0.067 0.0229 0.07 0.008 0.0028 -0.0044
C8D 0.0407 0.0293 0.0326 -0.0084 -0.0085 0.0067
C9D 0.0517 0.027 0.0329 -0.0064 -0.0063 0.0113
C10D 0.0305 0.0277 0.0269 0.0008 0.002 0.0036
C11D 0.0502 0.0334 0.0234 -0.0049 -0.0097 0.0071
C12D 0.0403 0.0377 0.0278 -0.0061 -0.0126 0.009
N1D 0.0289 0.028 0.0219 0.0029 0.0014 0.0044
O2A 0.0456 0.0323 0.0278 0.0087 -0.0039 -0.0056
O3D 0.0388 0.0288 0.0239 0.0025 -0.0006 0.0137
O3A 0.0388(9) 0.0288(9) 0.0239(11) -0.0025(7) 0.0006(7) 0.0137(8)
O4A 0.0404(11) 0.0332(10) 0.0205(13) 0.0022(9) -0.0035(8) -0.0075(9)
C13 0.0512(18) 0.0461(18) 0.035(2) -0.0135(13) 0.0127(13) -0.0147(14)
C14 0.0465(17) 0.0411(16) 0.041(2) -0.0119(13) 0.0142(13) -0.0062(13)
C15 0.0550(19) 0.0492(19) 0.056(2) -0.0052(16) 0.0069(15) -0.0095(15)
C16 0.0448(18) 0.055(2) 0.085(3) -0.0049(17) 0.0112(16) -0.0039(16)
C17 0.047(2) 0.073(3) 0.135(4) 0.005(2) -0.008(2) 0.004(2)
C18 0.069(2) 0.054(2) 0.079(3) 0.0041(18) 0.0100(19) -0.0050(18)
C19 0.072(3) 0.072(3) 0.107(4) 0.013(2) -0.004(2) 0.020(2)
O5 0.0659(13) 0.0436(12) 0.0522(15) -0.0034(10) -0.0119(10) -0.0170(10)
O6 0.0805(15) 0.0551(13) 0.0548(17) -0.0018(10) -0.0191(12) -0.0305(12)
loop_
_geom_bond_atom_site_label_1
_geom_bond_atom_site_label_2
_geom_bond_site_symmetry_1
_geom_bond_site_symmetry_2
O1 C1 1_555 1_555
Tb1 O2 1_555 1_555
C1 C2 1_555 1_555
C2 C3 1_555 1_555
C3 H1 1_555 1_555
C4 C3 1_555 1_555
H2 C4 1_555 1_555
C5 C2 1_555 1_555
H3 C5 1_555 1_555
C6 C5 1_555 1_555
H4 C6 1_555 1_555
C7 C4 1_555 1_555
H5 C7 1_555 1_555
C8 H6 1_555 1_555
C9 H7 1_555 1_555
C10 C9 1_555 1_555
C11 C9 1_555 1_555
H8 C11 1_555 1_555
C12 C8 1_555 1_555
H9 C12 1_555 1_555
N1 C8 1_555 1_555
C13 C14 1_555 1_555
C14 C15 1_555 1_555
C15 H10 1_555 1_555
C16 C14 1_555 1_555
H11 C16 1_555 1_555
C17 C16 1_555 1_555
H12 C17 1_555 1_555
C18 C15 1_555 1_555
H13 C18 1_555 1_555
C19 C17 1_555 1_555
H14 C19 1_555 1_555
O2 C1 1_555 1_555
O3 Tb1 1_555 1_555
O4 Tb1 1_555 1_555
O5 C13 1_555 1_555
H15 O5 1_555 1_555
O6 C13 1_555 1_555
H16 O4 1_555 1_555
H17 O4 1_555 1_555
O1G Tb1 1_555 1_555
O1F Tb1 1_555 1_555
O1A Tb1F 1_555 1_555
Tb1F O1 1_555 1_555
Tb1D O3D 1_555 1_555
C1A O1A 1_555 1_555
C2A C1A 1_555 1_555
C3A C2A 1_555 1_555
H1A C3A 1_555 1_555
C4A C3A 1_555 1_555
H2A C4A 1_555 1_555
C5A C2A 1_555 1_555
H3A C5A 1_555 1_555
C6A C5A 1_555 1_555
H4A C6A 1_555 1_555
C7A C4A 1_555 1_555
H5A C7A 1_555 1_555
C8D H6D 1_555 1_555
C9D H7D 1_555 1_555
C10D C10 1_555 1_555
C11D C9D 1_555 1_555
H8D C11D 1_555 1_555
C12D C8D 1_555 1_555
H9D C12D 1_555 1_555
N1D C8D 1_555 1_555
O2A Tb1 1_555 1_555
O3D N1D 1_555 1_555
O3A Tb1 1_555 1_555
O4A Tb1 1_555 1_555
H16A O4A 1_555 1_555
H17A O4A 1_555 1_555
C6 C7 1_555 1_555
C10 C12 1_555 1_555
C11 N1 1_555 1_555
N1 O3 1_555 1_555
C18 C19 1_555 1_555
C1A O2A 1_555 1_555
C6A C7A 1_555 1_555
C9D C10D 1_555 1_555
C10D C12D 1_555 1_555
C11D N1D 1_555 1_555

#END
