
#######################################################################
#
#                 Cambridge Crystallographic Data Centre
#                                CCDC 
#
#######################################################################
#
# If this CIF has been generated from an entry in the Cambridge 
# Structural Database, then it will include bibliographic, chemical, 
# crystal, experimental, refinement or atomic coordinate data resulting 
# from the CCDC's data processing and validation procedures.
#
#######################################################################

data_BAMMUA
_chemical_formula_moiety         '(C36 H60 Cu8 N18 O12 2+)n'
_symmetry_cell_setting           hexagonal
_symmetry_space_group_name_H-M   'P 63 2 2'
_symmetry_Int_Tables_number      182
_space_group_name_Hall           'P 6c 2c'
loop_
_symmetry_equiv_pos_site_id
_symmetry_equiv_pos_as_xyz
1 x,y,z
2 -x,-y,1/2+z
3 -y,x-y,z
4 -x+y,-x,z
5 x-y,x,1/2+z
6 y,-x+y,1/2+z
7 x-y,-y,-z
8 -x,-x+y,-z
9 y,x,-z
10 -y,-x,1/2-z
11 x,x-y,1/2-z
12 -x+y,y,1/2-z
_cell_length_a                   19.613(3)
_cell_length_b                   19.613(3)
_cell_length_c                   13.849(3)
_cell_angle_alpha                90
_cell_angle_beta                 90
_cell_angle_gamma                120
_cell_volume                     4613.57
loop_
_atom_site_label
_atom_site_type_symbol
_atom_site_fract_x
_atom_site_fract_y
_atom_site_fract_z
_atom_site_U_iso_or_equiv
_atom_site_thermal_displace_type
Cu1 Cu 0.666667 0.333333 0.60127(12) 0.0632 Uani
Cu2 Cu 0.52268(9) 0.26134(4) 0.750000 0.0662 Uani
Cu3 Cu 0.46153(12) 0.000000 0.500000 0.0991 Uani
N1 N 0.5919(5) 0.2202(5) 0.6002(5) 0.0719 Uani
N2 N 0.5258(5) 0.1920(4) 0.6607(5) 0.0672 Uani
C1 C 0.5797(9) 0.1629(6) 0.5442(6) 0.0810 Uani
N3 N 0.5074(5) 0.0946(5) 0.5645(6) 0.0818 Uani
C2 C 0.4794(7) 0.1184(6) 0.6371(7) 0.0789 Uani
C3 C 0.4010(9) 0.0602(9) 0.6724(11) 0.1860 Uani
H1 H 0.373767 0.023820 0.619029 0.2230 Uiso
C4 C 0.6341(10) 0.1679(10) 0.4742(8) 0.1492 Uani
H2 H 0.676585 0.222058 0.485021 0.1790 Uiso
O1 O 0.3973(9) 0.0139(10) 0.7532(13) 0.3071 Uani
H3 H 0.430167 0.000054 0.747107 0.4610 Uiso
C5 C 0.3543(11) 0.1007(11) 0.696(2) 0.3171 Uani
H4 H 0.303040 0.062461 0.719377 0.4770 Uiso
H5 H 0.381346 0.139769 0.745268 0.4770 Uiso
H6 H 0.348955 0.125558 0.639308 0.4770 Uiso
C6 C 0.6148(12) 0.1735(12) 0.3693(9) 0.2084 Uani
H7 H 0.656003 0.176597 0.328740 0.3110 Uiso
H8 H 0.565865 0.127669 0.352453 0.3110 Uiso
H9 H 0.610528 0.219723 0.360404 0.3110 Uiso
O2 O 0.6774(10) 0.1277(11) 0.4778(10) 0.2746 Uani
H10 H 0.652044 0.084670 0.451580 0.4120 Uiso
Cu2B Cu 0.73866(4) 0.26134(10) 0.750000 0.0662 Uani
Cu3B Cu 1.000000 0.46153(12) 0.500000 0.0991 Uani
N1B N 0.7798(5) 0.3717(7) 0.6002(5) 0.0719 Uani
N2B N 0.8080(4) 0.3338(6) 0.6607(5) 0.0672 Uani
C1B C 0.8371(6) 0.4168(11) 0.5442(6) 0.0810 Uani
N3B N 0.9054(5) 0.4128(7) 0.5645(6) 0.0818 Uani
C2B C 0.8816(6) 0.3610(9) 0.6371(7) 0.0789 Uani
C3B C 0.9398(9) 0.3408(13) 0.6724(11) 0.1860 Uani
H1B H 0.976180 0.349947 0.619029 0.2230 Uiso
C4B C 0.8321(10) 0.4662(14) 0.4742(8) 0.1492 Uani
H2B H 0.777942 0.454527 0.485021 0.1790 Uiso
O1B O 0.9861(10) 0.3834(13) 0.7532(13) 0.3071 Uani
H3B H 0.999946 0.430113 0.747107 0.4610 Uiso
C5B C 0.8993(11) 0.2536(16) 0.696(2) 0.3171 Uani
H4B H 0.937539 0.240579 0.719377 0.4770 Uiso
H5B H 0.860231 0.241577 0.745268 0.4770 Uiso
H6B H 0.874442 0.223397 0.639308 0.4770 Uiso
C6B C 0.8265(12) 0.4413(17) 0.3693(9) 0.2084 Uani
H7B H 0.823403 0.479406 0.328740 0.3110 Uiso
H8B H 0.872331 0.438196 0.352453 0.3110 Uiso
H9B H 0.780277 0.390805 0.360404 0.3110 Uiso
O2B O 0.8723(11) 0.5497(15) 0.4778(10) 0.2746 Uani
H10B H 0.915330 0.567374 0.451580 0.4120 Uiso
Cu2C Cu 0.73866(10) 0.47732(9) 0.750000 0.0662 Uani
Cu3C Cu 0.53847(12) 0.53847(12) 0.500000 0.0991 Uani
N1C N 0.6283(7) 0.4081(5) 0.6002(5) 0.0719 Uani
N2C N 0.6662(6) 0.4742(5) 0.6607(5) 0.0672 Uani
C1C C 0.5832(11) 0.4203(9) 0.5442(6) 0.0810 Uani
N3C N 0.5872(7) 0.4926(5) 0.5645(6) 0.0818 Uani
C2C C 0.6390(9) 0.5206(7) 0.6371(7) 0.0789 Uani
C3C C 0.6592(13) 0.5990(9) 0.6724(11) 0.1860 Uani
H1C H 0.650053 0.626233 0.619029 0.2230 Uiso
C4C C 0.5338(14) 0.3659(10) 0.4742(8) 0.1492 Uani
H2C H 0.545473 0.323415 0.485021 0.1790 Uiso
O1C O 0.6166(13) 0.6027(9) 0.7532(13) 0.3071 Uani
H3C H 0.569887 0.569833 0.747107 0.4610 Uiso
C5C C 0.7464(16) 0.6457(11) 0.696(2) 0.3171 Uani
H4C H 0.759421 0.696960 0.719377 0.4770 Uiso
H5C H 0.758423 0.618654 0.745268 0.4770 Uiso
H6C H 0.776603 0.651045 0.639308 0.4770 Uiso
C6C C 0.5587(17) 0.3852(12) 0.3693(9) 0.2084 Uani
H7C H 0.520594 0.343997 0.328740 0.3110 Uiso
H8C H 0.561804 0.434135 0.352453 0.3110 Uiso
H9C H 0.609195 0.389472 0.360404 0.3110 Uiso
O2C O 0.4503(15) 0.3226(10) 0.4778(10) 0.2746 Uani
H10C H 0.432626 0.347956 0.451580 0.4120 Uiso
Cu1I Cu 0.666667 0.333333 0.89873(12) 0.0632 Uani
N1I N 0.7798(5) 0.4081(5) 0.8998(5) 0.0719 Uani
N2I N 0.8080(4) 0.4742(5) 0.8393(5) 0.0672 Uani
C1I C 0.8371(6) 0.4203(9) 0.9558(6) 0.0810 Uani
N3I N 0.9054(5) 0.4926(5) 0.9355(6) 0.0818 Uani
C2I C 0.8816(6) 0.5206(7) 0.8629(7) 0.0789 Uani
C3I C 0.9398(9) 0.5990(9) 0.8276(11) 0.1860 Uani
H1I H 0.976180 0.626233 0.880971 0.2230 Uiso
C4I C 0.8321(10) 0.3659(10) 1.0258(8) 0.1492 Uani
H2I H 0.777942 0.323415 1.014979 0.1790 Uiso
O1I O 0.9861(10) 0.6027(9) 0.7468(13) 0.3071 Uani
H3I H 0.999946 0.569833 0.752893 0.4610 Uiso
C5I C 0.8993(11) 0.6457(11) 0.804(2) 0.3171 Uani
H4I H 0.937539 0.696960 0.780623 0.4770 Uiso
H5I H 0.860231 0.618654 0.754732 0.4770 Uiso
H6I H 0.874442 0.651045 0.860692 0.4770 Uiso
C6I C 0.8265(12) 0.3852(12) 1.1307(9) 0.2084 Uani
H7I H 0.823403 0.343997 1.171260 0.3110 Uiso
H8I H 0.872331 0.434135 1.147547 0.3110 Uiso
H9I H 0.780277 0.389472 1.139596 0.3110 Uiso
O2I O 0.8723(11) 0.3226(10) 1.0222(10) 0.2746 Uani
H10I H 0.915330 0.347956 1.048420 0.4120 Uiso
N1J N 0.5919(5) 0.3717(7) 0.8998(5) 0.0719 Uani
N2J N 0.5258(5) 0.3338(6) 0.8393(5) 0.0672 Uani
C1J C 0.5797(9) 0.4168(11) 0.9558(6) 0.0810 Uani
N3J N 0.5074(5) 0.4128(7) 0.9355(6) 0.0818 Uani
C2J C 0.4794(7) 0.3610(9) 0.8629(7) 0.0789 Uani
C3J C 0.4010(9) 0.3408(13) 0.8276(11) 0.1860 Uani
H1J H 0.373767 0.349947 0.880971 0.2230 Uiso
C4J C 0.6341(10) 0.4662(14) 1.0258(8) 0.1492 Uani
H2J H 0.676585 0.454527 1.014979 0.1790 Uiso
O1J O 0.3973(9) 0.3834(13) 0.7468(13) 0.3071 Uani
H3J H 0.430167 0.430113 0.752893 0.4610 Uiso
C5J C 0.3543(11) 0.2536(16) 0.804(2) 0.3171 Uani
H4J H 0.303040 0.240579 0.780623 0.4770 Uiso
H5J H 0.381346 0.241577 0.754732 0.4770 Uiso
H6J H 0.348955 0.223397 0.860692 0.4770 Uiso
C6J C 0.6148(12) 0.4413(17) 1.1307(9) 0.2084 Uani
H7J H 0.656003 0.479406 1.171260 0.3110 Uiso
H8J H 0.565865 0.438196 1.147547 0.3110 Uiso
H9J H 0.610528 0.390805 1.139596 0.3110 Uiso
O2J O 0.6774(10) 0.5497(15) 1.0222(10) 0.2746 Uani
H10J H 0.652044 0.567374 1.048420 0.4120 Uiso
N1K N 0.6283(7) 0.2202(5) 0.8998(5) 0.0719 Uani
N2K N 0.6662(6) 0.1920(4) 0.8393(5) 0.0672 Uani
C1K C 0.5832(11) 0.1629(6) 0.9558(6) 0.0810 Uani
N3K N 0.5872(7) 0.0946(5) 0.9355(6) 0.0818 Uani
C2K C 0.6390(9) 0.1184(6) 0.8629(7) 0.0789 Uani
C3K C 0.6592(13) 0.0602(9) 0.8276(11) 0.1860 Uani
H1K H 0.650053 0.023820 0.880971 0.2230 Uiso
C4K C 0.5338(14) 0.1679(10) 1.0258(8) 0.1492 Uani
H2K H 0.545473 0.222058 1.014979 0.1790 Uiso
O1K O 0.6166(13) 0.0139(10) 0.7468(13) 0.3071 Uani
H3K H 0.569887 0.000054 0.752893 0.4610 Uiso
C5K C 0.7464(16) 0.1007(11) 0.804(2) 0.3171 Uani
H4K H 0.759421 0.062461 0.780623 0.4770 Uiso
H5K H 0.758423 0.139769 0.754732 0.4770 Uiso
H6K H 0.776603 0.125558 0.860692 0.4770 Uiso
C6K C 0.5587(17) 0.1735(12) 1.1307(9) 0.2084 Uani
H7K H 0.520594 0.176597 1.171260 0.3110 Uiso
H8K H 0.561804 0.127669 1.147547 0.3110 Uiso
H9K H 0.609195 0.219723 1.139596 0.3110 Uiso
O2K O 0.4503(15) 0.1277(11) 1.0222(10) 0.2746 Uani
H10K H 0.432626 0.084670 1.048420 0.4120 Uiso
Cu3A Cu 0.53847(12) 0.000000 1.000000 0.0991 Uani
Cu3D Cu 0.46153(12) 0.46153(12) 1.000000 0.0991 Uani
Cu3E Cu 1.000000 0.53847(12) 1.000000 0.0991 Uani
N3F N 0.4128(7) -0.0946(5) 0.4355(6) 0.0818 Uani
N3G N 0.4926(5) 0.5872(7) 0.4355(6) 0.0818 Uani
N3H N 1.0946(5) 0.5074(5) 0.4355(6) 0.0818 Uani
loop_
_atom_site_aniso_label
_atom_site_aniso_U_11
_atom_site_aniso_U_22
_atom_site_aniso_U_33
_atom_site_aniso_U_23
_atom_site_aniso_U_13
_atom_site_aniso_U_12
Cu1 0.0676(7) 0.0676(7) 0.0543(10) 0.000 0.000 0.0338(3)
Cu2 0.0721(9) 0.0692(7) 0.0582(9) -0.0142(9) 0.000 0.0360(5)
Cu3 0.1271(14) 0.0713(11) 0.0801(12) -0.0309(11) -0.0155(5) 0.0356(6)
N1 0.082(6) 0.066(4) 0.061(4) -0.016(4) 0.004(4) 0.032(4)
N2 0.069(5) 0.061(5) 0.059(5) -0.011(4) -0.001(4) 0.023(4)
C1 0.122(11) 0.082(6) 0.063(5) -0.015(5) -0.019(8) 0.069(9)
N3 0.087(6) 0.083(6) 0.064(5) -0.016(4) -0.003(4) 0.034(5)
C2 0.081(7) 0.067(7) 0.066(6) -0.008(5) 0.002(6) 0.020(6)
C3 0.110(10) 0.175(14) 0.226(15) 0.121(12) 0.049(11) 0.036(9)
C4 0.216(15) 0.189(15) 0.097(8) -0.002(10) 0.058(10) 0.142(12)
O1 0.227(13) 0.314(18) 0.320(18) 0.213(16) 0.046(15) 0.090(13)
C5 0.203(18) 0.35(2) 0.41(3) 0.14(2) 0.08(2) 0.147(15)
C6 0.25(2) 0.30(2) 0.112(9) 0.019(15) 0.044(12) 0.165(17)
O2 0.315(17) 0.380(19) 0.253(14) -0.017(16) 0.036(14) 0.267(15)
Cu2B 0.0692 0.0693 0.0582 0.0142 0.0142 0.0332
Cu3B 0.0713 0.1272 0.0801 0.0154 0.0309 0.0357
N1B 0.066 0.084 0.061 0.02 0.016 0.034
N2B 0.061 0.084 0.059 0.01 0.011 0.038
C1B 0.082 0.066 0.063 -0.004 0.015 0.013
N3B 0.083 0.102 0.064 0.013 0.016 0.049
C2B 0.067 0.108 0.066 0.01 0.008 0.047
C3B 0.175 0.213 0.226 -0.072 -0.121 0.139
C4B 0.189 0.121 0.097 0.06 0.002 0.047
O1B 0.314 0.361 0.32 -0.167 -0.213 0.224
C5B 0.35 0.259 0.41 -0.06 -0.14 0.203
C6B 0.3 0.22 0.112 0.025 -0.019 0.135
O2B 0.38 0.161 0.253 0.053 0.017 0.113
Cu2C 0.0693 0.0721 0.0582 0 -0.0142 0.0361
Cu3C 0.1272 0.1271 0.0801 0.0155 -0.0154 0.0915
N1C 0.084 0.082 0.061 -0.004 -0.02 0.05
N2C 0.084 0.069 0.059 0.001 -0.01 0.046
C1C 0.066 0.122 0.063 0.019 0.004 0.053
N3C 0.102 0.087 0.064 0.003 -0.013 0.053
C2C 0.108 0.081 0.066 -0.002 -0.01 0.061
C3C 0.213 0.11 0.226 -0.049 0.072 0.074
C4C 0.121 0.216 0.097 -0.058 -0.06 0.074
O1C 0.361 0.227 0.32 -0.046 0.167 0.137
C5C 0.259 0.203 0.41 -0.08 0.06 0.056
C6C 0.22 0.25 0.112 -0.044 -0.025 0.085
O2C 0.161 0.315 0.253 -0.036 -0.053 0.048
Cu1I 0.0676 0.0676 0.0543 0 0 0.0338
N1I 0.066 0.082 0.061 0.004 -0.016 0.032
N2I 0.061 0.069 0.059 -0.001 -0.011 0.023
C1I 0.082 0.122 0.063 -0.019 -0.015 0.069
N3I 0.083 0.087 0.064 -0.003 -0.016 0.034
C2I 0.067 0.081 0.066 0.002 -0.008 0.02
C3I 0.175 0.11 0.226 0.049 0.121 0.036
C4I 0.189 0.216 0.097 0.058 -0.002 0.142
O1I 0.314 0.227 0.32 0.046 0.213 0.09
C5I 0.35 0.203 0.41 0.08 0.14 0.147
C6I 0.3 0.25 0.112 0.044 0.019 0.165
O2I 0.38 0.315 0.253 0.036 -0.017 0.267
N1J 0.082 0.084 0.061 -0.02 -0.004 0.05
N2J 0.069 0.084 0.059 -0.01 0.001 0.046
C1J 0.122 0.066 0.063 0.004 0.019 0.053
N3J 0.087 0.102 0.064 -0.013 0.003 0.053
C2J 0.081 0.108 0.066 -0.01 -0.002 0.061
C3J 0.11 0.213 0.226 0.072 -0.049 0.074
C4J 0.216 0.121 0.097 -0.06 -0.058 0.074
O1J 0.227 0.361 0.32 0.167 -0.046 0.137
C5J 0.203 0.259 0.41 0.06 -0.08 0.056
C6J 0.25 0.22 0.112 -0.025 -0.044 0.085
O2J 0.315 0.161 0.253 -0.053 -0.036 0.048
N1K 0.084 0.066 0.061 0.016 0.02 0.034
N2K 0.084 0.061 0.059 0.011 0.01 0.038
C1K 0.066 0.082 0.063 0.015 -0.004 0.013
N3K 0.102 0.083 0.064 0.016 0.013 0.049
C2K 0.108 0.067 0.066 0.008 0.01 0.047
C3K 0.213 0.175 0.226 -0.121 -0.072 0.139
C4K 0.121 0.189 0.097 0.002 0.06 0.047
O1K 0.361 0.314 0.32 -0.213 -0.167 0.224
C5K 0.259 0.35 0.41 -0.14 -0.06 0.203
C6K 0.22 0.3 0.112 -0.019 0.025 0.135
O2K 0.161 0.38 0.253 0.017 0.053 0.113
Cu3A 0.1271 0.0713 0.0801 0.0309 0.0155 0.0356
Cu3D 0.1272 0.1271 0.0801 -0.0155 0.0154 0.0915
Cu3E 0.0713 0.1272 0.0801 -0.0154 -0.0309 0.0357
N3F 0.102 0.083 0.064 -0.016 -0.013 0.049
N3G 0.087 0.102 0.064 0.013 -0.003 0.053
N3H 0.083 0.087 0.064 0.003 0.016 0.034
loop_
_geom_bond_atom_site_label_1
_geom_bond_atom_site_label_2
_geom_bond_site_symmetry_1
_geom_bond_site_symmetry_2
Cu1 N1 1_555 1_555
Cu2 N2 1_555 1_555
Cu3 N3 1_555 1_555
N1 N2 1_555 1_555
N2 C2 1_555 1_555
C1 N1 1_555 1_555
N3 C1 1_555 1_555
C2 N3 1_555 1_555
C3 C2 1_555 1_555
H1 C3 1_555 1_555
C4 C1 1_555 1_555
H2 C4 1_555 1_555
O1 C3 1_555 1_555
H3 O1 1_555 1_555
C5 C3 1_555 1_555
H4 C5 1_555 1_555
H5 C5 1_555 1_555
H6 C5 1_555 1_555
C6 C4 1_555 1_555
H7 C6 1_555 1_555
H8 C6 1_555 1_555
H9 C6 1_555 1_555
O2 C4 1_555 1_555
H10 O2 1_555 1_555
Cu2B N2B 1_555 1_555
Cu3B N3B 1_555 1_555
N1B Cu1 1_555 1_555
N2B N1B 1_555 1_555
C1B N1B 1_555 1_555
N3B C1B 1_555 1_555
C2B N2B 1_555 1_555
C3B C2B 1_555 1_555
H1B C3B 1_555 1_555
C4B C1B 1_555 1_555
H2B C4B 1_555 1_555
O1B C3B 1_555 1_555
H3B O1B 1_555 1_555
C5B C3B 1_555 1_555
H4B C5B 1_555 1_555
H5B C5B 1_555 1_555
H6B C5B 1_555 1_555
C6B C4B 1_555 1_555
H7B C6B 1_555 1_555
H8B C6B 1_555 1_555
H9B C6B 1_555 1_555
O2B C4B 1_555 1_555
H10B O2B 1_555 1_555
Cu2C N2C 1_555 1_555
Cu3C N3C 1_555 1_555
N1C Cu1 1_555 1_555
N2C N1C 1_555 1_555
C1C N1C 1_555 1_555
N3C C1C 1_555 1_555
C2C N2C 1_555 1_555
C3C C2C 1_555 1_555
H1C C3C 1_555 1_555
C4C C1C 1_555 1_555
H2C C4C 1_555 1_555
O1C C3C 1_555 1_555
H3C O1C 1_555 1_555
C5C C3C 1_555 1_555
H4C C5C 1_555 1_555
H5C C5C 1_555 1_555
H6C C5C 1_555 1_555
C6C C4C 1_555 1_555
H7C C6C 1_555 1_555
H8C C6C 1_555 1_555
H9C C6C 1_555 1_555
O2C C4C 1_555 1_555
H10C O2C 1_555 1_555
Cu1I N1I 1_555 1_555
N1I N2I 1_555 1_555
N2I Cu2C 1_555 1_555
C1I N1I 1_555 1_555
N3I C1I 1_555 1_555
C2I N2I 1_555 1_555
C3I C2I 1_555 1_555
H1I C3I 1_555 1_555
C4I C1I 1_555 1_555
H2I C4I 1_555 1_555
O1I C3I 1_555 1_555
H3I O1I 1_555 1_555
C5I C3I 1_555 1_555
H4I C5I 1_555 1_555
H5I C5I 1_555 1_555
H6I C5I 1_555 1_555
C6I C4I 1_555 1_555
H7I C6I 1_555 1_555
H8I C6I 1_555 1_555
H9I C6I 1_555 1_555
O2I C4I 1_555 1_555
H10I O2I 1_555 1_555
N1J Cu1I 1_555 1_555
N2J Cu2 1_555 1_555
C1J N1J 1_555 1_555
N3J C1J 1_555 1_555
C2J N2J 1_555 1_555
C3J C2J 1_555 1_555
H1J C3J 1_555 1_555
C4J C1J 1_555 1_555
H2J C4J 1_555 1_555
O1J C3J 1_555 1_555
H3J O1J 1_555 1_555
C5J C3J 1_555 1_555
H4J C5J 1_555 1_555
H5J C5J 1_555 1_555
H6J C5J 1_555 1_555
C6J C4J 1_555 1_555
H7J C6J 1_555 1_555
H8J C6J 1_555 1_555
H9J C6J 1_555 1_555
O2J C4J 1_555 1_555
H10J O2J 1_555 1_555
N1K Cu1I 1_555 1_555
N2K Cu2B 1_555 1_555
C1K N1K 1_555 1_555
N3K C1K 1_555 1_555
C2K N2K 1_555 1_555
C3K C2K 1_555 1_555
H1K C3K 1_555 1_555
C4K C1K 1_555 1_555
H2K C4K 1_555 1_555
O1K C3K 1_555 1_555
H3K O1K 1_555 1_555
C5K C3K 1_555 1_555
H4K C5K 1_555 1_555
H5K C5K 1_555 1_555
H6K C5K 1_555 1_555
C6K C4K 1_555 1_555
H7K C6K 1_555 1_555
H8K C6K 1_555 1_555
H9K C6K 1_555 1_555
O2K C4K 1_555 1_555
H10K O2K 1_555 1_555
Cu3A N3K 1_555 1_555
Cu3D N3J 1_555 1_555
Cu3E N3I 1_555 1_555
N3F Cu3 1_555 1_555
N3G Cu3C 1_555 1_555
N3H Cu3B 1_555 1_555
N3B C2B 1_555 1_555
N3C C2C 1_555 1_555
N3I C2I 1_555 1_555
N1J N2J 1_555 1_555
N3J C2J 1_555 1_555
N1K N2K 1_555 1_555
N3K C2K 1_555 1_555

#END
