
#######################################################################
#
#                 Cambridge Crystallographic Data Centre
#                                CCDC 
#
#######################################################################
#
# If this CIF has been generated from an entry in the Cambridge 
# Structural Database, then it will include bibliographic, chemical, 
# crystal, experimental, refinement or atomic coordinate data resulting 
# from the CCDC's data processing and validation procedures.
#
#######################################################################

data_BAMNEL
_chemical_formula_moiety         '(C48 H84 Cu8 N18 2+)n'
_symmetry_cell_setting           hexagonal
_symmetry_space_group_name_H-M   'P 63 2 2'
_symmetry_Int_Tables_number      182
_space_group_name_Hall           'P 6c 2c'
loop_
_symmetry_equiv_pos_site_id
_symmetry_equiv_pos_as_xyz
1 x,y,z
2 -x,-y,1/2+z
3 -y,x-y,z
4 -x+y,-x,z
5 x-y,x,1/2+z
6 y,-x+y,1/2+z
7 x-y,-y,-z
8 -x,-x+y,-z
9 y,x,-z
10 -y,-x,1/2-z
11 x,x-y,1/2-z
12 -x+y,y,1/2-z
_cell_length_a                   19.603(5)
_cell_length_b                   19.603(5)
_cell_length_c                   13.939(5)
_cell_angle_alpha                90
_cell_angle_beta                 90
_cell_angle_gamma                120
_cell_volume                     4638.82
loop_
_atom_site_label
_atom_site_type_symbol
_atom_site_fract_x
_atom_site_fract_y
_atom_site_fract_z
_atom_site_U_iso_or_equiv
_atom_site_thermal_displace_type
Cu1 Cu 0.666667 0.333333 0.60138(9) 0.0599 Uani
Cu2 Cu 0.73834(3) 0.26166(3) 0.750000 0.0625 Uani
Cu3 Cu 1.000000 0.45958(9) 0.500000 0.0936 Uani
N1 N 0.8075(3) 0.3328(4) 0.6611(4) 0.0627 Uani
N2 N 0.7796(3) 0.3703(3) 0.6010(4) 0.0651 Uani
N3 N 0.9033(4) 0.4090(4) 0.5641(5) 0.0781 Uani
C1 C 0.8377(4) 0.4157(7) 0.5443(5) 0.0797 Uani
C2 C 0.8816(5) 0.3567(5) 0.6366(5) 0.0733 Uani
C3 C 0.9295(5) 0.3339(7) 0.6885(8) 0.1213 Uani
H1 H 0.894626 0.295523 0.736116 0.1450 Uiso
C4 C 0.8232(7) 0.4649(6) 0.4730(5) 0.1463 Uani
H2 H 0.769656 0.455807 0.481890 0.1750 Uiso
C5 C 0.8318(8) 0.4428(7) 0.3711(7) 0.1751 Uani
H3 H 0.796883 0.387416 0.361658 0.2630 Uiso
H4 H 0.818795 0.471969 0.326677 0.2630 Uiso
H5 H 0.885142 0.455053 0.360690 0.2630 Uiso
C6 C 1.0016(8) 0.3934(7) 0.7440(10) 0.2129 Uani
H6 H 1.026150 0.367130 0.774042 0.3200 Uiso
H7 H 1.038232 0.432919 0.700750 0.3200 Uiso
H8 H 0.985979 0.417890 0.792155 0.3200 Uiso
C7 C 0.8812(8) 0.5528(6) 0.4768(8) 0.1733 Uani
H9 H 0.879984 0.572558 0.539436 0.2600 Uiso
H10 H 0.933287 0.562308 0.463666 0.2600 Uiso
H11 H 0.866940 0.579224 0.429652 0.2600 Uiso
C8 C 0.9609(7) 0.2909(8) 0.6283(10) 0.2148 Uani
H12 H 0.992518 0.277449 0.667790 0.3230 Uiso
H13 H 0.917534 0.243800 0.602372 0.3230 Uiso
H14 H 0.992350 0.324433 0.576866 0.3230 Uiso
Cu2B Cu 0.73834(3) 0.47668(4) 0.750000 0.0625 Uani
Cu3B Cu 0.54042(9) 0.540420(90) 0.500000 0.0936 Uani
N1B N 0.6672(4) 0.4747(5) 0.6611(4) 0.0627 Uani
N2B N 0.6297(3) 0.4093(4) 0.6010(4) 0.0651 Uani
N3B N 0.5910(4) 0.4943(6) 0.5641(5) 0.0781 Uani
C1B C 0.5843(7) 0.4220(8) 0.5443(5) 0.0797 Uani
C2B C 0.6433(5) 0.5249(7) 0.6366(5) 0.0733 Uani
C3B C 0.6661(7) 0.5956(9) 0.6885(8) 0.1213 Uani
H1B H 0.704477 0.599103 0.736116 0.1450 Uiso
C4B C 0.5351(6) 0.3583(9) 0.4730(5) 0.1463 Uani
H2B H 0.544193 0.313849 0.481890 0.1750 Uiso
C5B C 0.5572(7) 0.3890(11) 0.3711(7) 0.1751 Uani
H3B H 0.612584 0.409467 0.361658 0.2630 Uiso
H4B H 0.528031 0.346826 0.326677 0.2630 Uiso
H5B H 0.544947 0.430089 0.360690 0.2630 Uiso
C6B C 0.6066(7) 0.6082(11) 0.7440(10) 0.2129 Uani
H6B H 0.632870 0.659020 0.774042 0.3200 Uiso
H7B H 0.567081 0.605313 0.700750 0.3200 Uiso
H8B H 0.582110 0.568089 0.792155 0.3200 Uiso
C7B C 0.4472(6) 0.3284(10) 0.4768(8) 0.1733 Uani
H9B H 0.427442 0.307426 0.539436 0.2600 Uiso
H10B H 0.437692 0.370979 0.463666 0.2600 Uiso
H11B H 0.420776 0.287716 0.429652 0.2600 Uiso
C8B C 0.7091(8) 0.6700(11) 0.6283(10) 0.2148 Uani
H12B H 0.722551 0.715069 0.667790 0.3230 Uiso
H13B H 0.756200 0.673734 0.602372 0.3230 Uiso
H14B H 0.675567 0.667917 0.576866 0.3230 Uiso
Cu2C Cu 0.52332(4) 0.26166(3) 0.750000 0.0625 Uani
Cu3C Cu 0.459580(90) -0.000000 0.500000 0.0936 Uani
N1C N 0.5253(5) 0.1925(3) 0.6611(4) 0.0627 Uani
N2C N 0.5907(4) 0.2204(3) 0.6010(4) 0.0651 Uani
N3C N 0.5057(6) 0.0967(4) 0.5641(5) 0.0781 Uani
C1C C 0.5780(8) 0.1623(4) 0.5443(5) 0.0797 Uani
C2C C 0.4751(7) 0.1184(5) 0.6366(5) 0.0733 Uani
C3C C 0.4044(9) 0.0705(5) 0.6885(8) 0.1213 Uani
H1C H 0.400897 0.105374 0.736116 0.1450 Uiso
C4C C 0.6417(9) 0.1768(7) 0.4730(5) 0.1463 Uani
H2C H 0.686151 0.230344 0.481890 0.1750 Uiso
C5C C 0.6110(11) 0.1682(8) 0.3711(7) 0.1751 Uani
H3C H 0.590533 0.203117 0.361658 0.2630 Uiso
H4C H 0.653174 0.181205 0.326677 0.2630 Uiso
H5C H 0.569911 0.114858 0.360690 0.2630 Uiso
C6C C 0.3918(11) -0.0016(8) 0.7440(10) 0.2129 Uani
H6C H 0.340980 -0.026150 0.774042 0.3200 Uiso
H7C H 0.394687 -0.038232 0.700750 0.3200 Uiso
H8C H 0.431911 0.014021 0.792155 0.3200 Uiso
C7C C 0.6716(10) 0.1188(8) 0.4768(8) 0.1733 Uani
H9C H 0.692574 0.120016 0.539436 0.2600 Uiso
H10C H 0.629021 0.066713 0.463666 0.2600 Uiso
H11C H 0.712284 0.133060 0.429652 0.2600 Uiso
C8C C 0.3300(11) 0.0391(7) 0.6283(10) 0.2148 Uani
H12C H 0.284931 0.007482 0.667790 0.3230 Uiso
H13C H 0.326266 0.082466 0.602372 0.3230 Uiso
H14C H 0.332083 0.007650 0.576866 0.3230 Uiso
Cu1I Cu 0.666667 0.333333 0.89862(9) 0.0599 Uani
N1I N 0.6672(4) 0.1925(3) 0.8389(4) 0.0627 Uani
N2I N 0.6297(3) 0.2204(3) 0.8990(4) 0.0651 Uani
N3I N 0.5910(4) 0.0967(4) 0.9359(5) 0.0781 Uani
C1I C 0.5843(7) 0.1623(4) 0.9557(5) 0.0797 Uani
C2I C 0.6433(5) 0.1184(5) 0.8634(5) 0.0733 Uani
C3I C 0.6661(7) 0.0705(5) 0.8115(8) 0.1213 Uani
H1I H 0.704477 0.105374 0.763884 0.1450 Uiso
C4I C 0.5351(6) 0.1768(7) 1.0270(5) 0.1463 Uani
H2I H 0.544193 0.230344 1.018110 0.1750 Uiso
C5I C 0.5572(7) 0.1682(8) 1.1289(7) 0.1751 Uani
H3I H 0.612584 0.203117 1.138342 0.2630 Uiso
H4I H 0.528031 0.181205 1.173323 0.2630 Uiso
H5I H 0.544947 0.114858 1.139310 0.2630 Uiso
C6I C 0.6066(7) -0.0016(8) 0.7560(10) 0.2129 Uani
H6I H 0.632870 -0.026150 0.725958 0.3200 Uiso
H7I H 0.567081 -0.038232 0.799250 0.3200 Uiso
H8I H 0.582110 0.014021 0.707845 0.3200 Uiso
C7I C 0.4472(6) 0.1188(8) 1.0232(8) 0.1733 Uani
H9I H 0.427442 0.120016 0.960564 0.2600 Uiso
H10I H 0.437692 0.066713 1.036334 0.2600 Uiso
H11I H 0.420776 0.133060 1.070348 0.2600 Uiso
C8I C 0.7091(8) 0.0391(7) 0.8717(10) 0.2148 Uani
H12I H 0.722551 0.007482 0.832210 0.3230 Uiso
H13I H 0.756200 0.082466 0.897628 0.3230 Uiso
H14I H 0.675567 0.007650 0.923134 0.3230 Uiso
N1J N 0.8075(3) 0.4747(5) 0.8389(4) 0.0627 Uani
N2J N 0.7796(3) 0.4093(4) 0.8990(4) 0.0651 Uani
N3J N 0.9033(4) 0.4943(6) 0.9359(5) 0.0781 Uani
C1J C 0.8377(4) 0.4220(8) 0.9557(5) 0.0797 Uani
C2J C 0.8816(5) 0.5249(7) 0.8634(5) 0.0733 Uani
C3J C 0.9295(5) 0.5956(9) 0.8115(8) 0.1213 Uani
H1J H 0.894626 0.599103 0.763884 0.1450 Uiso
C4J C 0.8232(7) 0.3583(9) 1.0270(5) 0.1463 Uani
H2J H 0.769656 0.313849 1.018110 0.1750 Uiso
C5J C 0.8318(8) 0.3890(11) 1.1289(7) 0.1751 Uani
H3J H 0.796883 0.409467 1.138342 0.2630 Uiso
H4J H 0.818795 0.346826 1.173323 0.2630 Uiso
H5J H 0.885142 0.430089 1.139310 0.2630 Uiso
C6J C 1.0016(8) 0.6082(11) 0.7560(10) 0.2129 Uani
H6J H 1.026150 0.659020 0.725958 0.3200 Uiso
H7J H 1.038232 0.605313 0.799250 0.3200 Uiso
H8J H 0.985979 0.568089 0.707845 0.3200 Uiso
C7J C 0.8812(8) 0.3284(10) 1.0232(8) 0.1733 Uani
H9J H 0.879984 0.307426 0.960564 0.2600 Uiso
H10J H 0.933287 0.370979 1.036334 0.2600 Uiso
H11J H 0.866940 0.287716 1.070348 0.2600 Uiso
C8J C 0.9609(7) 0.6700(11) 0.8717(10) 0.2148 Uani
H12J H 0.992518 0.715069 0.832210 0.3230 Uiso
H13J H 0.917534 0.673734 0.897628 0.3230 Uiso
H14J H 0.992350 0.667917 0.923134 0.3230 Uiso
N1K N 0.5253(5) 0.3328(4) 0.8389(4) 0.0627 Uani
N2K N 0.5907(4) 0.3703(3) 0.8990(4) 0.0651 Uani
N3K N 0.5057(6) 0.4090(4) 0.9359(5) 0.0781 Uani
C1K C 0.5780(8) 0.4157(7) 0.9557(5) 0.0797 Uani
C2K C 0.4751(7) 0.3567(5) 0.8634(5) 0.0733 Uani
C3K C 0.4044(9) 0.3339(7) 0.8115(8) 0.1213 Uani
H1K H 0.400897 0.295523 0.763884 0.1450 Uiso
C4K C 0.6417(9) 0.4649(6) 1.0270(5) 0.1463 Uani
H2K H 0.686151 0.455807 1.018110 0.1750 Uiso
C5K C 0.6110(11) 0.4428(7) 1.1289(7) 0.1751 Uani
H3K H 0.590533 0.387416 1.138342 0.2630 Uiso
H4K H 0.653174 0.471969 1.173323 0.2630 Uiso
H5K H 0.569911 0.455053 1.139310 0.2630 Uiso
C6K C 0.3918(11) 0.3934(7) 0.7560(10) 0.2129 Uani
H6K H 0.340980 0.367130 0.725958 0.3200 Uiso
H7K H 0.394687 0.432919 0.799250 0.3200 Uiso
H8K H 0.431911 0.417890 0.707845 0.3200 Uiso
C7K C 0.6716(10) 0.5528(6) 1.0232(8) 0.1733 Uani
H9K H 0.692574 0.572558 0.960564 0.2600 Uiso
H10K H 0.629021 0.562308 1.036334 0.2600 Uiso
H11K H 0.712284 0.579224 1.070348 0.2600 Uiso
C8K C 0.3300(11) 0.2909(8) 0.8717(10) 0.2148 Uani
H12K H 0.284931 0.277449 0.832210 0.3230 Uiso
H13K H 0.326266 0.243800 0.897628 0.3230 Uiso
H14K H 0.332083 0.324433 0.923134 0.3230 Uiso
Cu3A Cu 1.000000 0.54042(9) 1.000000 0.0936 Uani
Cu3D Cu 0.540420(90) -0.000000 1.000000 0.0936 Uani
Cu3E Cu 0.45958(9) 0.459580(90) 1.000000 0.0936 Uani
N3F N 0.4943(6) 0.5910(4) 0.4359(5) 0.0781 Uani
N3G N 1.0967(4) 0.5057(6) 0.4359(5) 0.0781 Uani
N3H N 0.4090(4) -0.0967(4) 0.4359(5) 0.0781 Uani
loop_
_atom_site_aniso_label
_atom_site_aniso_U_11
_atom_site_aniso_U_22
_atom_site_aniso_U_33
_atom_site_aniso_U_23
_atom_site_aniso_U_13
_atom_site_aniso_U_12
Cu1 0.0656(5) 0.0656(5) 0.0485(7) 0.000 0.000 0.0328(3)
Cu2 0.0664(5) 0.0664(5) 0.0543(7) 0.0147(7) 0.0147(7) 0.0329(5)
Cu3 0.0686(9) 0.1202(10) 0.0748(9) 0.0161(4) 0.0322(8) 0.0343(4)
N1 0.057(4) 0.069(4) 0.056(3) 0.007(3) 0.010(3) 0.027(3)
N2 0.062(3) 0.071(4) 0.054(3) 0.020(3) 0.007(3) 0.027(3)
N3 0.067(4) 0.100(5) 0.065(4) 0.019(4) 0.019(3) 0.040(4)
C1 0.073(5) 0.093(7) 0.059(4) 0.010(5) 0.021(4) 0.031(6)
C2 0.061(5) 0.091(6) 0.060(5) -0.002(4) 0.004(4) 0.032(4)
C3 0.090(7) 0.159(10) 0.152(9) -0.009(7) -0.020(6) 0.090(7)
C4 0.195(12) 0.169(9) 0.067(6) 0.074(6) 0.026(7) 0.085(9)
C5 0.265(15) 0.218(14) 0.088(7) 0.004(9) -0.005(10) 0.155(12)
C6 0.237(14) 0.196(13) 0.196(12) -0.041(13) -0.098(14) 0.101(12)
C7 0.252(15) 0.154(10) 0.136(10) 0.019(10) -0.001(11) 0.118(10)
C8 0.195(14) 0.260(17) 0.243(16) -0.067(13) -0.028(12) 0.154(13)
Cu2B 0.0664 0.067 0.0543 0 -0.0147 0.0335
Cu3B 0.1202 0.1202 0.0748 0.0161 -0.0161 0.0859
N1B 0.069 0.072 0.056 0.003 -0.007 0.042
N2B 0.071 0.079 0.054 -0.013 -0.02 0.044
N3B 0.1 0.087 0.065 0 -0.019 0.06
C1B 0.093 0.104 0.059 0.011 -0.01 0.062
C2B 0.091 0.088 0.06 0.006 0.002 0.059
C3B 0.159 0.069 0.152 -0.011 0.009 0.069
C4B 0.169 0.194 0.067 -0.048 -0.074 0.084
C5B 0.218 0.173 0.088 -0.009 -0.004 0.063
C6B 0.196 0.231 0.196 -0.057 0.041 0.095
C7B 0.154 0.17 0.136 -0.02 -0.019 0.036
C8B 0.26 0.147 0.243 0.039 0.067 0.106
Cu2C 0.067 0.0664 0.0543 -0.0147 0 0.0335
Cu3C 0.1202 0.0686 0.0748 -0.0322 -0.0161 0.0343
N1C 0.072 0.057 0.056 -0.01 -0.003 0.03
N2C 0.079 0.062 0.054 -0.007 0.013 0.035
N3C 0.087 0.067 0.065 -0.019 0 0.027
C1C 0.104 0.073 0.059 -0.021 -0.011 0.042
C2C 0.088 0.061 0.06 -0.004 -0.006 0.029
C3C 0.069 0.09 0.152 0.02 0.011 0
C4C 0.194 0.195 0.067 -0.026 0.048 0.11
C5C 0.173 0.265 0.088 0.005 0.009 0.11
C6C 0.231 0.237 0.196 0.098 0.057 0.136
C7C 0.17 0.252 0.136 0.001 0.02 0.134
C8C 0.147 0.195 0.243 0.028 -0.039 0.041
Cu1I 0.0656 0.0656 0.0485 0 0 0.0328
N1I 0.069 0.057 0.056 0.01 0.007 0.027
N2I 0.071 0.062 0.054 0.007 0.02 0.027
N3I 0.1 0.067 0.065 0.019 0.019 0.04
C1I 0.093 0.073 0.059 0.021 0.01 0.031
C2I 0.091 0.061 0.06 0.004 -0.002 0.032
C3I 0.159 0.09 0.152 -0.02 -0.009 0.09
C4I 0.169 0.195 0.067 0.026 0.074 0.085
C5I 0.218 0.265 0.088 -0.005 0.004 0.155
C6I 0.196 0.237 0.196 -0.098 -0.041 0.101
C7I 0.154 0.252 0.136 -0.001 0.019 0.118
C8I 0.26 0.195 0.243 -0.028 -0.067 0.154
N1J 0.057 0.072 0.056 -0.003 -0.01 0.03
N2J 0.062 0.079 0.054 0.013 -0.007 0.035
N3J 0.067 0.087 0.065 0 -0.019 0.027
C1J 0.073 0.104 0.059 -0.011 -0.021 0.042
C2J 0.061 0.088 0.06 -0.006 -0.004 0.029
C3J 0.09 0.069 0.152 0.011 0.02 0
C4J 0.195 0.194 0.067 0.048 -0.026 0.11
C5J 0.265 0.173 0.088 0.009 0.005 0.11
C6J 0.237 0.231 0.196 0.057 0.098 0.136
C7J 0.252 0.17 0.136 0.02 0.001 0.134
C8J 0.195 0.147 0.243 -0.039 0.028 0.041
N1K 0.072 0.069 0.056 -0.007 0.003 0.042
N2K 0.079 0.071 0.054 -0.02 -0.013 0.044
N3K 0.087 0.1 0.065 -0.019 0 0.06
C1K 0.104 0.093 0.059 -0.01 0.011 0.062
C2K 0.088 0.091 0.06 0.002 0.006 0.059
C3K 0.069 0.159 0.152 0.009 -0.011 0.069
C4K 0.194 0.169 0.067 -0.074 -0.048 0.084
C5K 0.173 0.218 0.088 -0.004 -0.009 0.063
C6K 0.231 0.196 0.196 0.041 -0.057 0.095
C7K 0.17 0.154 0.136 -0.019 -0.02 0.036
C8K 0.147 0.26 0.243 0.067 0.039 0.106
Cu3A 0.0686 0.1202 0.0748 -0.0161 -0.0322 0.0343
Cu3D 0.1202 0.0686 0.0748 0.0322 0.0161 0.0343
Cu3E 0.1202 0.1202 0.0748 -0.0161 0.0161 0.0859
N3F 0.087 0.1 0.065 0.019 0 0.06
N3G 0.067 0.087 0.065 0 0.019 0.027
N3H 0.1 0.067 0.065 -0.019 -0.019 0.04
loop_
_geom_bond_atom_site_label_1
_geom_bond_atom_site_label_2
_geom_bond_site_symmetry_1
_geom_bond_site_symmetry_2
Cu1 N2 1_555 1_555
Cu2 N1 1_555 1_555
Cu3 N3 1_555 1_555
N1 N2 1_555 1_555
N2 C1 1_555 1_555
N3 C1 1_555 1_555
C1 C4 1_555 1_555
C2 N1 1_555 1_555
C3 C2 1_555 1_555
H1 C3 1_555 1_555
C4 H2 1_555 1_555
C5 C4 1_555 1_555
H3 C5 1_555 1_555
H4 C5 1_555 1_555
H5 C5 1_555 1_555
C6 C3 1_555 1_555
H6 C6 1_555 1_555
H7 C6 1_555 1_555
H8 C6 1_555 1_555
C7 C4 1_555 1_555
H9 C7 1_555 1_555
H10 C7 1_555 1_555
H11 C7 1_555 1_555
C8 C3 1_555 1_555
H12 C8 1_555 1_555
H13 C8 1_555 1_555
H14 C8 1_555 1_555
Cu2B N1B 1_555 1_555
Cu3B N3B 1_555 1_555
N1B N2B 1_555 1_555
N2B Cu1 1_555 1_555
N3B C1B 1_555 1_555
C1B N2B 1_555 1_555
C2B N1B 1_555 1_555
C3B C2B 1_555 1_555
H1B C3B 1_555 1_555
C4B C1B 1_555 1_555
H2B C4B 1_555 1_555
C5B C4B 1_555 1_555
H3B C5B 1_555 1_555
H4B C5B 1_555 1_555
H5B C5B 1_555 1_555
C6B C3B 1_555 1_555
H6B C6B 1_555 1_555
H7B C6B 1_555 1_555
H8B C6B 1_555 1_555
C7B C4B 1_555 1_555
H9B C7B 1_555 1_555
H10B C7B 1_555 1_555
H11B C7B 1_555 1_555
C8B C3B 1_555 1_555
H12B C8B 1_555 1_555
H13B C8B 1_555 1_555
H14B C8B 1_555 1_555
Cu2C N1C 1_555 1_555
Cu3C N3C 1_555 1_555
N1C N2C 1_555 1_555
N2C Cu1 1_555 1_555
N3C C1C 1_555 1_555
C1C N2C 1_555 1_555
C2C N1C 1_555 1_555
C3C C2C 1_555 1_555
H1C C3C 1_555 1_555
C4C C1C 1_555 1_555
H2C C4C 1_555 1_555
C5C C4C 1_555 1_555
H3C C5C 1_555 1_555
H4C C5C 1_555 1_555
H5C C5C 1_555 1_555
C6C C3C 1_555 1_555
H6C C6C 1_555 1_555
H7C C6C 1_555 1_555
H8C C6C 1_555 1_555
C7C C4C 1_555 1_555
H9C C7C 1_555 1_555
H10C C7C 1_555 1_555
H11C C7C 1_555 1_555
C8C C3C 1_555 1_555
H12C C8C 1_555 1_555
H13C C8C 1_555 1_555
H14C C8C 1_555 1_555
Cu1I N2I 1_555 1_555
N1I Cu2 1_555 1_555
N2I N1I 1_555 1_555
N3I C1I 1_555 1_555
C1I N2I 1_555 1_555
C2I N1I 1_555 1_555
C3I C2I 1_555 1_555
H1I C3I 1_555 1_555
C4I C1I 1_555 1_555
H2I C4I 1_555 1_555
C5I C4I 1_555 1_555
H3I C5I 1_555 1_555
H4I C5I 1_555 1_555
H5I C5I 1_555 1_555
C6I C3I 1_555 1_555
H6I C6I 1_555 1_555
H7I C6I 1_555 1_555
H8I C6I 1_555 1_555
C7I C4I 1_555 1_555
H9I C7I 1_555 1_555
H10I C7I 1_555 1_555
H11I C7I 1_555 1_555
C8I C3I 1_555 1_555
H12I C8I 1_555 1_555
H13I C8I 1_555 1_555
H14I C8I 1_555 1_555
N1J Cu2B 1_555 1_555
N2J Cu1I 1_555 1_555
N3J C1J 1_555 1_555
C1J N2J 1_555 1_555
C2J N1J 1_555 1_555
C3J C2J 1_555 1_555
H1J C3J 1_555 1_555
C4J C1J 1_555 1_555
H2J C4J 1_555 1_555
C5J C4J 1_555 1_555
H3J C5J 1_555 1_555
H4J C5J 1_555 1_555
H5J C5J 1_555 1_555
C6J C3J 1_555 1_555
H6J C6J 1_555 1_555
H7J C6J 1_555 1_555
H8J C6J 1_555 1_555
C7J C4J 1_555 1_555
H9J C7J 1_555 1_555
H10J C7J 1_555 1_555
H11J C7J 1_555 1_555
C8J C3J 1_555 1_555
H12J C8J 1_555 1_555
H13J C8J 1_555 1_555
H14J C8J 1_555 1_555
N1K Cu2C 1_555 1_555
N2K Cu1I 1_555 1_555
N3K C1K 1_555 1_555
C1K N2K 1_555 1_555
C2K N1K 1_555 1_555
C3K C2K 1_555 1_555
H1K C3K 1_555 1_555
C4K C1K 1_555 1_555
H2K C4K 1_555 1_555
C5K C4K 1_555 1_555
H3K C5K 1_555 1_555
H4K C5K 1_555 1_555
H5K C5K 1_555 1_555
C6K C3K 1_555 1_555
H6K C6K 1_555 1_555
H7K C6K 1_555 1_555
H8K C6K 1_555 1_555
C7K C4K 1_555 1_555
H9K C7K 1_555 1_555
H10K C7K 1_555 1_555
H11K C7K 1_555 1_555
C8K C3K 1_555 1_555
H12K C8K 1_555 1_555
H13K C8K 1_555 1_555
H14K C8K 1_555 1_555
Cu3A N3J 1_555 1_555
Cu3D N3I 1_555 1_555
Cu3E N3K 1_555 1_555
N3F Cu3B 1_555 1_555
N3G Cu3 1_555 1_555
N3H Cu3C 1_555 1_555
N3 C2 1_555 1_555
N3B C2B 1_555 1_555
N3C C2C 1_555 1_555
N3I C2I 1_555 1_555
N1J N2J 1_555 1_555
N3J C2J 1_555 1_555
N1K N2K 1_555 1_555
N3K C2K 1_555 1_555

#END
