
#######################################################################
#
#                 Cambridge Crystallographic Data Centre
#                                CCDC 
#
#######################################################################
#
# If this CIF has been generated from an entry in the Cambridge 
# Structural Database, then it will include bibliographic, chemical, 
# crystal, experimental, refinement or atomic coordinate data resulting 
# from the CCDC's data processing and validation procedures.
#
#######################################################################

data_BAMNAH
_chemical_formula_moiety         '(C48 H84 Cu8 N18 2+)n'
_symmetry_cell_setting           hexagonal
_symmetry_space_group_name_H-M   'P 63 2 2'
_symmetry_Int_Tables_number      182
_space_group_name_Hall           'P 6c 2c'
loop_
_symmetry_equiv_pos_site_id
_symmetry_equiv_pos_as_xyz
1 x,y,z
2 -x,-y,1/2+z
3 -y,x-y,z
4 -x+y,-x,z
5 x-y,x,1/2+z
6 y,-x+y,1/2+z
7 x-y,-y,-z
8 -x,-x+y,-z
9 y,x,-z
10 -y,-x,1/2-z
11 x,x-y,1/2-z
12 -x+y,y,1/2-z
_cell_length_a                   19.593(4)
_cell_length_b                   19.593(4)
_cell_length_c                   13.927(3)
_cell_angle_alpha                90
_cell_angle_beta                 90
_cell_angle_gamma                120
_cell_volume                     4630.1
loop_
_atom_site_label
_atom_site_type_symbol
_atom_site_fract_x
_atom_site_fract_y
_atom_site_fract_z
_atom_site_U_iso_or_equiv
_atom_site_thermal_displace_type
Cu1 Cu 0.666667 0.333333 0.10146(9) 0.0591 Uani
Cu2 Cu 0.73831(3) 0.26169(3) 0.250000 0.0619 Uani
Cu3 Cu 0.54023(9) 0.000000 0.000000 0.0930 Uani
N1 N 0.6292(4) 0.2198(3) 0.1013(4) 0.0659 Uani
N2 N 0.6670(4) 0.1924(3) 0.1610(4) 0.0607 Uani
C1 C 0.5841(7) 0.1618(4) 0.0448(5) 0.0751 Uani
N3 N 0.5902(4) 0.0968(4) 0.0638(5) 0.0802 Uani
C2 C 0.6424(5) 0.1186(5) 0.1372(5) 0.0733 Uani
C3 C 0.6661(7) 0.0704(5) 0.1893(8) 0.1143 Uani
H1 H 0.703829 0.104446 0.238117 0.1370 Uiso
C4 C 0.5378(6) 0.1770(7) -0.0277(6) 0.1393 Uani
H2 H 0.548670 0.231221 -0.019325 0.1670 Uiso
C5 C 0.6053(7) -0.0034(8) 0.2410(10) 0.2072 Uani
H3 H 0.631079 -0.028273 0.271789 0.3110 Uiso
H4 H 0.578838 0.010529 0.288446 0.3110 Uiso
H5 H 0.567538 -0.039200 0.195517 0.3110 Uiso
C6 C 0.5582(7) 0.1678(9) -0.1303(7) 0.1774 Uani
H6 H 0.526569 0.178298 -0.173876 0.2670 Uiso
H7 H 0.612928 0.204278 -0.142025 0.2670 Uiso
H8 H 0.547891 0.114951 -0.139888 0.2670 Uiso
C7 C 0.4492(6) 0.1222(9) -0.0233(8) 0.1811 Uani
H9 H 0.424289 0.136333 -0.072530 0.2720 Uiso
H10 H 0.437370 0.068837 -0.032931 0.2720 Uiso
H11 H 0.430000 0.126697 0.038436 0.2720 Uiso
C8 C 0.7093(8) 0.0406(7) 0.1268(10) 0.2079 Uani
H12 H 0.723734 0.008903 0.164879 0.3120 Uiso
H13 H 0.675481 0.009360 0.075335 0.3120 Uiso
H14 H 0.755897 0.084566 0.100777 0.3120 Uiso
Cu2B Cu 0.73831(3) 0.47662(4) 0.250000 0.0619 Uani
Cu3B Cu 1.000000 0.540230(90) 0.000000 0.0930 Uani
N1B N 0.7802(3) 0.4094(5) 0.1013(4) 0.0659 Uani
N2B N 0.8076(3) 0.4746(5) 0.1610(4) 0.0607 Uani
C1B C 0.8382(4) 0.4223(8) 0.0448(5) 0.0751 Uani
N3B N 0.9032(4) 0.4934(6) 0.0638(5) 0.0802 Uani
C2B C 0.8814(5) 0.5238(7) 0.1372(5) 0.0733 Uani
C3B C 0.9296(5) 0.5957(9) 0.1893(8) 0.1143 Uani
H1B H 0.895554 0.599383 0.238117 0.1370 Uiso
C4B C 0.8230(7) 0.3608(9) -0.0277(6) 0.1393 Uani
H2B H 0.768779 0.317449 -0.019325 0.1670 Uiso
C5B C 1.0034(8) 0.6087(11) 0.2410(10) 0.2072 Uani
H3B H 1.028273 0.659352 0.271789 0.3110 Uiso
H4B H 0.989471 0.568309 0.288446 0.3110 Uiso
H5B H 1.039200 0.606738 0.195517 0.3110 Uiso
C6B C 0.8322(9) 0.3904(11) -0.1303(7) 0.1774 Uani
H6B H 0.821702 0.348271 -0.173876 0.2670 Uiso
H7B H 0.795722 0.408650 -0.142025 0.2670 Uiso
H8B H 0.885049 0.432940 -0.139888 0.2670 Uiso
C7B C 0.8778(9) 0.3270(11) -0.0233(8) 0.1811 Uani
H9B H 0.863667 0.287956 -0.072530 0.2720 Uiso
H10B H 0.931163 0.368533 -0.032931 0.2720 Uiso
H11B H 0.873303 0.303303 0.038436 0.2720 Uiso
C8B C 0.9594(7) 0.6687(11) 0.1268(10) 0.2079 Uani
H12B H 0.991097 0.714831 0.164879 0.3120 Uiso
H13B H 0.990640 0.666121 0.075335 0.3120 Uiso
H14B H 0.915434 0.671331 0.100777 0.3120 Uiso
Cu2C Cu 0.52338(4) 0.26169(3) 0.250000 0.0619 Uani
Cu3C Cu 0.459770(90) 0.45977(9) 0.000000 0.0930 Uani
N1C N 0.5906(5) 0.3708(4) 0.1013(4) 0.0659 Uani
N2C N 0.5254(5) 0.3330(4) 0.1610(4) 0.0607 Uani
C1C C 0.5777(8) 0.4159(7) 0.0448(5) 0.0751 Uani
N3C N 0.5066(6) 0.4098(4) 0.0638(5) 0.0802 Uani
C2C C 0.4762(7) 0.3576(5) 0.1372(5) 0.0733 Uani
C3C C 0.4043(9) 0.3339(7) 0.1893(8) 0.1143 Uani
H1C H 0.400617 0.296171 0.238117 0.1370 Uiso
C4C C 0.6392(9) 0.4622(6) -0.0277(6) 0.1393 Uani
H2C H 0.682551 0.451330 -0.019325 0.1670 Uiso
C5C C 0.3913(11) 0.3947(7) 0.2410(10) 0.2072 Uani
H3C H 0.340648 0.368921 0.271789 0.3110 Uiso
H4C H 0.431691 0.421162 0.288446 0.3110 Uiso
H5C H 0.393262 0.432462 0.195517 0.3110 Uiso
C6C C 0.6096(11) 0.4418(7) -0.1303(7) 0.1774 Uani
H6C H 0.651729 0.473431 -0.173876 0.2670 Uiso
H7C H 0.591350 0.387072 -0.142025 0.2670 Uiso
H8C H 0.567060 0.452109 -0.139888 0.2670 Uiso
C7C C 0.6730(11) 0.5508(6) -0.0233(8) 0.1811 Uani
H9C H 0.712044 0.575711 -0.072530 0.2720 Uiso
H10C H 0.631467 0.562630 -0.032931 0.2720 Uiso
H11C H 0.696697 0.570000 0.038436 0.2720 Uiso
C8C C 0.3313(11) 0.2907(8) 0.1268(10) 0.2079 Uani
H12C H 0.285169 0.276266 0.164879 0.3120 Uiso
H13C H 0.333879 0.324519 0.075335 0.3120 Uiso
H14C H 0.328669 0.244103 0.100777 0.3120 Uiso
Cu1I Cu 0.666667 0.333333 0.39854(9) 0.0591 Uani
N1I N 0.7802(3) 0.3708(4) 0.3987(4) 0.0659 Uani
N2I N 0.8076(3) 0.3330(4) 0.3390(4) 0.0607 Uani
C1I C 0.8382(4) 0.4159(7) 0.4552(5) 0.0751 Uani
N3I N 0.9032(4) 0.4098(4) 0.4362(5) 0.0802 Uani
C2I C 0.8814(5) 0.3576(5) 0.3628(5) 0.0733 Uani
C3I C 0.9296(5) 0.3339(7) 0.3107(8) 0.1143 Uani
H1I H 0.895554 0.296171 0.261883 0.1370 Uiso
C4I C 0.8230(7) 0.4622(6) 0.5277(6) 0.1393 Uani
H2I H 0.768779 0.451330 0.519325 0.1670 Uiso
C5I C 1.0034(8) 0.3947(7) 0.2590(10) 0.2072 Uani
H3I H 1.028273 0.368921 0.228211 0.3110 Uiso
H4I H 0.989471 0.421162 0.211554 0.3110 Uiso
H5I H 1.039200 0.432462 0.304483 0.3110 Uiso
C6I C 0.8322(9) 0.4418(7) 0.6303(7) 0.1774 Uani
H6I H 0.821702 0.473431 0.673876 0.2670 Uiso
H7I H 0.795722 0.387072 0.642025 0.2670 Uiso
H8I H 0.885049 0.452109 0.639888 0.2670 Uiso
C7I C 0.8778(9) 0.5508(6) 0.5233(8) 0.1811 Uani
H9I H 0.863667 0.575711 0.572530 0.2720 Uiso
H10I H 0.931163 0.562630 0.532931 0.2720 Uiso
H11I H 0.873303 0.570000 0.461564 0.2720 Uiso
C8I C 0.9594(7) 0.2907(8) 0.3732(10) 0.2079 Uani
H12I H 0.991097 0.276266 0.335121 0.3120 Uiso
H13I H 0.990640 0.324519 0.424665 0.3120 Uiso
H14I H 0.915434 0.244103 0.399223 0.3120 Uiso
N1J N 0.6292(4) 0.4094(5) 0.3987(4) 0.0659 Uani
N2J N 0.6670(4) 0.4746(5) 0.3390(4) 0.0607 Uani
C1J C 0.5841(7) 0.4223(8) 0.4552(5) 0.0751 Uani
N3J N 0.5902(4) 0.4934(6) 0.4362(5) 0.0802 Uani
C2J C 0.6424(5) 0.5238(7) 0.3628(5) 0.0733 Uani
C3J C 0.6661(7) 0.5957(9) 0.3107(8) 0.1143 Uani
H1J H 0.703829 0.599383 0.261883 0.1370 Uiso
C4J C 0.5378(6) 0.3608(9) 0.5277(6) 0.1393 Uani
H2J H 0.548670 0.317449 0.519325 0.1670 Uiso
C5J C 0.6053(7) 0.6087(11) 0.2590(10) 0.2072 Uani
H3J H 0.631079 0.659352 0.228211 0.3110 Uiso
H4J H 0.578838 0.568309 0.211554 0.3110 Uiso
H5J H 0.567538 0.606738 0.304483 0.3110 Uiso
C6J C 0.5582(7) 0.3904(11) 0.6303(7) 0.1774 Uani
H6J H 0.526569 0.348271 0.673876 0.2670 Uiso
H7J H 0.612928 0.408650 0.642025 0.2670 Uiso
H8J H 0.547891 0.432940 0.639888 0.2670 Uiso
C7J C 0.4492(6) 0.3270(11) 0.5233(8) 0.1811 Uani
H9J H 0.424289 0.287956 0.572530 0.2720 Uiso
H10J H 0.437370 0.368533 0.532931 0.2720 Uiso
H11J H 0.430000 0.303303 0.461564 0.2720 Uiso
C8J C 0.7093(8) 0.6687(11) 0.3732(10) 0.2079 Uani
H12J H 0.723734 0.714831 0.335121 0.3120 Uiso
H13J H 0.675481 0.666121 0.424665 0.3120 Uiso
H14J H 0.755897 0.671331 0.399223 0.3120 Uiso
N1K N 0.5906(5) 0.2198(3) 0.3987(4) 0.0659 Uani
N2K N 0.5254(5) 0.1924(3) 0.3390(4) 0.0607 Uani
C1K C 0.5777(8) 0.1618(4) 0.4552(5) 0.0751 Uani
N3K N 0.5066(6) 0.0968(4) 0.4362(5) 0.0802 Uani
C2K C 0.4762(7) 0.1186(5) 0.3628(5) 0.0733 Uani
C3K C 0.4043(9) 0.0704(5) 0.3107(8) 0.1143 Uani
H1K H 0.400617 0.104446 0.261883 0.1370 Uiso
C4K C 0.6392(9) 0.1770(7) 0.5277(6) 0.1393 Uani
H2K H 0.682551 0.231221 0.519325 0.1670 Uiso
C5K C 0.3913(11) -0.0034(8) 0.2590(10) 0.2072 Uani
H3K H 0.340648 -0.028273 0.228211 0.3110 Uiso
H4K H 0.431691 0.010529 0.211554 0.3110 Uiso
H5K H 0.393262 -0.039200 0.304483 0.3110 Uiso
C6K C 0.6096(11) 0.1678(9) 0.6303(7) 0.1774 Uani
H6K H 0.651729 0.178298 0.673876 0.2670 Uiso
H7K H 0.591350 0.204278 0.642025 0.2670 Uiso
H8K H 0.567060 0.114951 0.639888 0.2670 Uiso
C7K C 0.6730(11) 0.1222(9) 0.5233(8) 0.1811 Uani
H9K H 0.712044 0.136333 0.572530 0.2720 Uiso
H10K H 0.631467 0.068837 0.532931 0.2720 Uiso
H11K H 0.696697 0.126697 0.461564 0.2720 Uiso
C8K C 0.3313(11) 0.0406(7) 0.3732(10) 0.2079 Uani
H12K H 0.285169 0.008903 0.335121 0.3120 Uiso
H13K H 0.333879 0.009360 0.424665 0.3120 Uiso
H14K H 0.328669 0.084566 0.399223 0.3120 Uiso
Cu3A Cu 0.45977(9) 0.000000 0.500000 0.0930 Uani
Cu3D Cu 0.540230(90) 0.54023(9) 0.500000 0.0930 Uani
Cu3E Cu 1.000000 0.459770(90) 0.500000 0.0930 Uani
N3F N 0.4934(6) -0.0968(4) -0.0638(5) 0.0802 Uani
N3G N 0.4098(4) 0.5066(6) -0.0638(5) 0.0802 Uani
N3H N 1.0968(4) 0.5902(4) -0.0638(5) 0.0802 Uani
loop_
_atom_site_aniso_label
_atom_site_aniso_U_11
_atom_site_aniso_U_22
_atom_site_aniso_U_33
_atom_site_aniso_U_23
_atom_site_aniso_U_13
_atom_site_aniso_U_12
Cu1 0.0647(5) 0.0647(5) 0.0480(7) 0.000 0.000 0.0324(3)
Cu2 0.0653(5) 0.0653(5) 0.0541(7) -0.0151(6) -0.0151(6) 0.0319(5)
Cu3 0.1187(10) 0.0660(9) 0.0767(10) -0.0310(8) -0.0155(4) 0.0330(4)
N1 0.075(4) 0.061(3) 0.055(3) -0.009(3) -0.018(3) 0.029(3)
N2 0.070(4) 0.051(3) 0.054(3) -0.013(3) -0.008(3) 0.025(3)
C1 0.088(6) 0.060(4) 0.064(4) -0.012(3) -0.006(5) 0.027(6)
N3 0.101(5) 0.074(5) 0.062(4) -0.018(3) -0.018(4) 0.041(4)
C2 0.079(5) 0.073(5) 0.060(5) -0.005(4) 0.002(4) 0.032(4)
C3 0.159(10) 0.083(6) 0.135(8) 0.022(6) 0.005(7) 0.086(7)
C4 0.163(9) 0.194(12) 0.070(6) -0.018(7) -0.065(7) 0.096(9)
C5 0.187(13) 0.228(14) 0.195(13) 0.097(13) 0.026(12) 0.095(11)
C6 0.205(14) 0.291(16) 0.091(7) 0.007(11) 0.000(9) 0.165(12)
C7 0.163(10) 0.275(17) 0.126(10) -0.001(12) -0.022(10) 0.125(11)
C8 0.257(17) 0.199(15) 0.209(15) 0.009(12) 0.059(13) 0.145(13)
Cu2B 0.0653 0.0668 0.0541 0 0.0151 0.0334
Cu3B 0.066 0.1187 0.0767 0.0155 0.031 0.033
N1B 0.061 0.078 0.055 -0.009 0.009 0.032
N2B 0.051 0.071 0.054 0.005 0.013 0.026
C1B 0.06 0.094 0.064 0.006 0.012 0.033
N3B 0.074 0.093 0.062 0 0.018 0.033
C2B 0.073 0.088 0.06 0.007 0.005 0.041
C3B 0.083 0.07 0.135 -0.017 -0.022 -0.003
C4B 0.194 0.165 0.07 -0.047 0.018 0.098
C5B 0.228 0.225 0.195 -0.071 -0.097 0.133
C6B 0.291 0.166 0.091 -0.007 -0.007 0.126
C7B 0.275 0.188 0.126 -0.021 0.001 0.15
C8B 0.199 0.166 0.209 0.05 -0.009 0.054
Cu2C 0.0668 0.0653 0.0541 0.0151 0 0.0334
Cu3C 0.1187 0.1187 0.0767 0.0155 -0.0155 0.0857
N1C 0.078 0.075 0.055 0.018 0.009 0.046
N2C 0.071 0.07 0.054 0.008 -0.005 0.045
C1C 0.094 0.088 0.064 0.006 -0.006 0.061
N3C 0.093 0.101 0.062 0.018 0 0.06
C2C 0.088 0.079 0.06 -0.002 -0.007 0.047
C3C 0.07 0.159 0.135 -0.005 0.017 0.073
C4C 0.165 0.163 0.07 0.065 0.047 0.067
C5C 0.225 0.187 0.195 -0.026 0.071 0.092
C6C 0.166 0.205 0.091 0 0.007 0.04
C7C 0.188 0.163 0.126 0.022 0.021 0.038
C8C 0.166 0.257 0.209 -0.059 -0.05 0.112
Cu1I 0.0647 0.0647 0.048 0 0 0.0324
N1I 0.061 0.075 0.055 -0.018 -0.009 0.029
N2I 0.051 0.07 0.054 -0.008 -0.013 0.025
C1I 0.06 0.088 0.064 -0.006 -0.012 0.027
N3I 0.074 0.101 0.062 -0.018 -0.018 0.041
C2I 0.073 0.079 0.06 0.002 -0.005 0.032
C3I 0.083 0.159 0.135 0.005 0.022 0.086
C4I 0.194 0.163 0.07 -0.065 -0.018 0.096
C5I 0.228 0.187 0.195 0.026 0.097 0.095
C6I 0.291 0.205 0.091 0 0.007 0.165
C7I 0.275 0.163 0.126 -0.022 -0.001 0.125
C8I 0.199 0.257 0.209 0.059 0.009 0.145
N1J 0.075 0.078 0.055 0.009 0.018 0.046
N2J 0.07 0.071 0.054 -0.005 0.008 0.045
C1J 0.088 0.094 0.064 -0.006 0.006 0.061
N3J 0.101 0.093 0.062 0 0.018 0.06
C2J 0.079 0.088 0.06 -0.007 -0.002 0.047
C3J 0.159 0.07 0.135 0.017 -0.005 0.073
C4J 0.163 0.165 0.07 0.047 0.065 0.067
C5J 0.187 0.225 0.195 0.071 -0.026 0.092
C6J 0.205 0.166 0.091 0.007 0 0.04
C7J 0.163 0.188 0.126 0.021 0.022 0.038
C8J 0.257 0.166 0.209 -0.05 -0.059 0.112
N1K 0.078 0.061 0.055 0.009 -0.009 0.032
N2K 0.071 0.051 0.054 0.013 0.005 0.026
C1K 0.094 0.06 0.064 0.012 0.006 0.033
N3K 0.093 0.074 0.062 0.018 0 0.033
C2K 0.088 0.073 0.06 0.005 0.007 0.041
C3K 0.07 0.083 0.135 -0.022 -0.017 -0.003
C4K 0.165 0.194 0.07 0.018 -0.047 0.098
C5K 0.225 0.228 0.195 -0.097 -0.071 0.133
C6K 0.166 0.291 0.091 -0.007 -0.007 0.126
C7K 0.188 0.275 0.126 0.001 -0.021 0.15
C8K 0.166 0.199 0.209 -0.009 0.05 0.054
Cu3A 0.1187 0.066 0.0767 0.031 0.0155 0.033
Cu3D 0.1187 0.1187 0.0767 -0.0155 0.0155 0.0857
Cu3E 0.066 0.1187 0.0767 -0.0155 -0.031 0.033
N3F 0.093 0.074 0.062 -0.018 0 0.033
N3G 0.101 0.093 0.062 0 -0.018 0.06
N3H 0.074 0.101 0.062 0.018 0.018 0.041
loop_
_geom_bond_atom_site_label_1
_geom_bond_atom_site_label_2
_geom_bond_site_symmetry_1
_geom_bond_site_symmetry_2
Cu1 N1 1_555 1_555
Cu2 N2 1_555 1_555
Cu3 N3 1_555 1_555
N1 N2 1_555 1_555
N2 C2 1_555 1_555
C1 N1 1_555 1_555
N3 C1 1_555 1_555
C2 N3 1_555 1_555
C3 C2 1_555 1_555
H1 C3 1_555 1_555
C4 C1 1_555 1_555
H2 C4 1_555 1_555
C5 C3 1_555 1_555
H3 C5 1_555 1_555
H4 C5 1_555 1_555
H5 C5 1_555 1_555
C6 C4 1_555 1_555
H6 C6 1_555 1_555
H7 C6 1_555 1_555
H8 C6 1_555 1_555
C7 C4 1_555 1_555
H9 C7 1_555 1_555
H10 C7 1_555 1_555
H11 C7 1_555 1_555
C8 C3 1_555 1_555
H12 C8 1_555 1_555
H13 C8 1_555 1_555
H14 C8 1_555 1_555
Cu2B N2B 1_555 1_555
Cu3B N3B 1_555 1_555
N1B Cu1 1_555 1_555
N2B N1B 1_555 1_555
C1B N1B 1_555 1_555
N3B C1B 1_555 1_555
C2B N2B 1_555 1_555
C3B C2B 1_555 1_555
H1B C3B 1_555 1_555
C4B C1B 1_555 1_555
H2B C4B 1_555 1_555
C5B C3B 1_555 1_555
H3B C5B 1_555 1_555
H4B C5B 1_555 1_555
H5B C5B 1_555 1_555
C6B C4B 1_555 1_555
H6B C6B 1_555 1_555
H7B C6B 1_555 1_555
H8B C6B 1_555 1_555
C7B C4B 1_555 1_555
H9B C7B 1_555 1_555
H10B C7B 1_555 1_555
H11B C7B 1_555 1_555
C8B C3B 1_555 1_555
H12B C8B 1_555 1_555
H13B C8B 1_555 1_555
H14B C8B 1_555 1_555
Cu2C N2C 1_555 1_555
Cu3C N3C 1_555 1_555
N1C Cu1 1_555 1_555
N2C N1C 1_555 1_555
C1C N1C 1_555 1_555
N3C C1C 1_555 1_555
C2C N2C 1_555 1_555
C3C C2C 1_555 1_555
H1C C3C 1_555 1_555
C4C C1C 1_555 1_555
H2C C4C 1_555 1_555
C5C C3C 1_555 1_555
H3C C5C 1_555 1_555
H4C C5C 1_555 1_555
H5C C5C 1_555 1_555
C6C C4C 1_555 1_555
H6C C6C 1_555 1_555
H7C C6C 1_555 1_555
H8C C6C 1_555 1_555
C7C C4C 1_555 1_555
H9C C7C 1_555 1_555
H10C C7C 1_555 1_555
H11C C7C 1_555 1_555
C8C C3C 1_555 1_555
H12C C8C 1_555 1_555
H13C C8C 1_555 1_555
H14C C8C 1_555 1_555
Cu1I N1I 1_555 1_555
N1I N2I 1_555 1_555
N2I Cu2 1_555 1_555
C1I N1I 1_555 1_555
N3I C1I 1_555 1_555
C2I N2I 1_555 1_555
C3I C2I 1_555 1_555
H1I C3I 1_555 1_555
C4I C1I 1_555 1_555
H2I C4I 1_555 1_555
C5I C3I 1_555 1_555
H3I C5I 1_555 1_555
H4I C5I 1_555 1_555
H5I C5I 1_555 1_555
C6I C4I 1_555 1_555
H6I C6I 1_555 1_555
H7I C6I 1_555 1_555
H8I C6I 1_555 1_555
C7I C4I 1_555 1_555
H9I C7I 1_555 1_555
H10I C7I 1_555 1_555
H11I C7I 1_555 1_555
C8I C3I 1_555 1_555
H12I C8I 1_555 1_555
H13I C8I 1_555 1_555
H14I C8I 1_555 1_555
N1J Cu1I 1_555 1_555
N2J Cu2B 1_555 1_555
C1J N1J 1_555 1_555
N3J C1J 1_555 1_555
C2J N2J 1_555 1_555
C3J C2J 1_555 1_555
H1J C3J 1_555 1_555
C4J C1J 1_555 1_555
H2J C4J 1_555 1_555
C5J C3J 1_555 1_555
H3J C5J 1_555 1_555
H4J C5J 1_555 1_555
H5J C5J 1_555 1_555
C6J C4J 1_555 1_555
H6J C6J 1_555 1_555
H7J C6J 1_555 1_555
H8J C6J 1_555 1_555
C7J C4J 1_555 1_555
H9J C7J 1_555 1_555
H10J C7J 1_555 1_555
H11J C7J 1_555 1_555
C8J C3J 1_555 1_555
H12J C8J 1_555 1_555
H13J C8J 1_555 1_555
H14J C8J 1_555 1_555
N1K Cu1I 1_555 1_555
N2K Cu2C 1_555 1_555
C1K N1K 1_555 1_555
N3K C1K 1_555 1_555
C2K N2K 1_555 1_555
C3K C2K 1_555 1_555
H1K C3K 1_555 1_555
C4K C1K 1_555 1_555
H2K C4K 1_555 1_555
C5K C3K 1_555 1_555
H3K C5K 1_555 1_555
H4K C5K 1_555 1_555
H5K C5K 1_555 1_555
C6K C4K 1_555 1_555
H6K C6K 1_555 1_555
H7K C6K 1_555 1_555
H8K C6K 1_555 1_555
C7K C4K 1_555 1_555
H9K C7K 1_555 1_555
H10K C7K 1_555 1_555
H11K C7K 1_555 1_555
C8K C3K 1_555 1_555
H12K C8K 1_555 1_555
H13K C8K 1_555 1_555
H14K C8K 1_555 1_555
Cu3A N3K 1_555 1_555
Cu3D N3J 1_555 1_555
Cu3E N3I 1_555 1_555
N3F Cu3 1_555 1_555
N3G Cu3C 1_555 1_555
N3H Cu3B 1_555 1_555
N3B C2B 1_555 1_555
N3C C2C 1_555 1_555
N3I C2I 1_555 1_555
N1J N2J 1_555 1_555
N3J C2J 1_555 1_555
N1K N2K 1_555 1_555
N3K C2K 1_555 1_555

#END
