
#######################################################################
#
#                 Cambridge Crystallographic Data Centre
#                                CCDC 
#
#######################################################################
#
# If this CIF has been generated from an entry in the Cambridge 
# Structural Database, then it will include bibliographic, chemical, 
# crystal, experimental, refinement or atomic coordinate data resulting 
# from the CCDC's data processing and validation procedures.
#
#######################################################################

data_EHUFAP
_chemical_formula_moiety         '(C12 H8 Cu1 N4)n'
_symmetry_cell_setting           trigonal
_symmetry_space_group_name_H-M   'P -3 c 1'
_symmetry_Int_Tables_number      165
_space_group_name_Hall           '-P 3 2"c'
loop_
_symmetry_equiv_pos_site_id
_symmetry_equiv_pos_as_xyz
1 x,y,z
2 -y,x-y,z
3 -x+y,-x,z
4 y,x,1/2-z
5 x-y,-y,1/2-z
6 -x,-x+y,1/2-z
7 -x,-y,-z
8 y,-x+y,-z
9 x-y,x,-z
10 -y,-x,1/2+z
11 -x+y,y,1/2+z
12 x,x-y,1/2+z
_cell_length_a                   15.1399(10)
_cell_length_b                   15.1399(10)
_cell_length_c                   8.9784(12)
_cell_angle_alpha                90
_cell_angle_beta                 90
_cell_angle_gamma                120
_cell_volume                     1782.28
loop_
_atom_site_label
_atom_site_type_symbol
_atom_site_fract_x
_atom_site_fract_y
_atom_site_fract_z
_atom_site_U_iso_or_equiv
_atom_site_thermal_displace_type
Cu1 Cu 0.24677(3) 1.0000 1.2500 0.0134 Uani
C1 C 0.3949(3) 0.9622(3) 0.9812(4) 0.0229 Uani
C2 C 0.4435(3) 0.9155(4) 0.9193(6) 0.0608 Uani
H1 H 0.4063 0.8572 0.8620 0.0730 Uiso
C3 C 0.4535(3) 1.0468(4) 1.0599(6) 0.0596 Uani
H2 H 0.4236 1.0816 1.1022 0.0720 Uiso
C4 C 0.2845(2) 0.9195(2) 0.9581(4) 0.0184 Uani
C5 C 0.2254(2) 0.8695(3) 0.8380(4) 0.0228 Uani
H3 H 0.2492 0.8573 0.7493 0.0280 Uiso
C6 C 0.1277(2) 0.8724(2) 1.0059(3) 0.0167 Uani
H4 H 0.0698 0.8625 1.0563 0.0200 Uiso
N1 N 0.22068(19) 0.92073(19) 1.0659(3) 0.0149 Uani
N2 N 0.12510(19) 0.8396(2) 0.8677(3) 0.0190 Uani
Cu1G Cu -0.0000 0.75323(3) 0.7500 0.0134 Uani
Cu1A Cu 1.0000 1.24677(3) 1.2500 0.0134 Uani
Cu1F Cu 0.75323(3) 1.0000 0.7500 0.0134 Uani
C1F C 0.6051(3) 1.0378(3) 1.0188(4) 0.0229 Uani
C2F C 0.5565(3) 1.0845(4) 1.0807(6) 0.0608 Uani
H1F H 0.5937 1.1428 1.1380 0.0730 Uiso
C3F C 0.5465(3) 0.9532(4) 0.9401(6) 0.0596 Uani
H2F H 0.5764 0.9184 0.8978 0.0720 Uiso
C4F C 0.7155(2) 1.0805(2) 1.0419(4) 0.0184 Uani
C5F C 0.7746(2) 1.1305(3) 1.1620(4) 0.0228 Uani
H3F H 0.7508 1.1427 1.2507 0.0280 Uiso
C6F C 0.8723(2) 1.1276(2) 0.9941(3) 0.0167 Uani
H4F H 0.9302 1.1375 0.9437 0.0200 Uiso
N1F N 0.77932(19) 1.07927(19) 0.9341(3) 0.0149 Uani
N1D N 0.29995(27) 1.07927(19) 1.4341(3) 0.0149 Uani
N2F N 0.87490(19) 1.1604(2) 1.1323(3) 0.0190 Uani
N2H N 0.28550(28) 1.12510(19) 1.1323(3) 0.0190 Uani
N2I N 0.1604(2) 0.87490(19) 1.3677(3) 0.0190 Uani
loop_
_atom_site_aniso_label
_atom_site_aniso_U_11
_atom_site_aniso_U_22
_atom_site_aniso_U_33
_atom_site_aniso_U_23
_atom_site_aniso_U_13
_atom_site_aniso_U_12
Cu1 0.0161(3) 0.0103(3) 0.0119(3) 0.0001(2) 0.00004(11) 0.00517(16)
C1 0.0171(18) 0.027(2) 0.023(2) -0.0062(16) -0.0020(15) 0.0099(16)
C2 0.023(2) 0.065(3) 0.089(4) -0.055(3) -0.017(2) 0.018(2)
C3 0.025(2) 0.071(3) 0.088(4) -0.051(3) -0.014(2) 0.028(2)
C4 0.0126(17) 0.0209(19) 0.0202(19) -0.0034(14) -0.0010(14) 0.0073(15)
C5 0.0141(18) 0.032(2) 0.021(2) -0.0015(16) 0.0031(14) 0.0105(16)
C6 0.0130(17) 0.0158(17) 0.0185(18) -0.0018(14) 0.0029(14) 0.0052(14)
N1 0.0145(15) 0.0136(14) 0.0145(15) -0.0018(11) -0.0021(11) 0.0054(12)
N2 0.0119(14) 0.0211(16) 0.0196(15) -0.0024(12) -0.0018(12) 0.0049(13)
Cu1G 0.0103 0.01606 0.0119 -6e-05 -0.0001 0.00513
Cu1A 0.0103 0.01606 0.0119 -6e-05 -0.0001 0.00513
Cu1F 0.0161 0.0103 0.0119 0.0001 4e-05 0.00517
C1F 0.0171 0.027 0.023 -0.0062 -0.002 0.0099
C2F 0.023 0.065 0.089 -0.055 -0.017 0.018
C3F 0.025 0.071 0.088 -0.051 -0.014 0.028
C4F 0.0126 0.0209 0.0202 -0.0034 -0.001 0.0073
C5F 0.0141 0.032 0.021 -0.0015 0.0031 0.0105
C6F 0.013 0.0158 0.0185 -0.0018 0.0029 0.0052
N1F 0.0145 0.0136 0.0145 -0.0018 -0.0021 0.0054
N1D 0.0173 0.0136 0.0145 -0.0018 0.0003 0.0082
N2F 0.0119 0.0211 0.0196 -0.0024 -0.0018 0.0049
N2H 0.0232 0.0119 0.0196 0.0018 -0.0006 0.007
N2I 0.0211 0.0119 0.0196 0.0018 0.0024 0.0049
loop_
_geom_bond_atom_site_label_1
_geom_bond_atom_site_label_2
_geom_bond_site_symmetry_1
_geom_bond_site_symmetry_2
Cu1 N1 1_555 1_555
C1 C2 1_555 1_555
C2 H1 1_555 1_555
C3 C1 1_555 1_555
H2 C3 1_555 1_555
C4 C1 1_555 1_555
C5 C4 1_555 1_555
H3 C5 1_555 1_555
C6 H4 1_555 1_555
N1 C4 1_555 1_555
N2 C5 1_555 1_555
Cu1G N2 1_555 1_555
Cu1A N2F 1_555 1_555
Cu1F N1F 1_555 1_555
C1F C2F 1_555 1_555
C2F C3 1_555 1_555
H1F C2F 1_555 1_555
C3F C2 1_555 1_555
H2F C3F 1_555 1_555
C4F C1F 1_555 1_555
C5F C4F 1_555 1_555
H3F C5F 1_555 1_555
C6F H4F 1_555 1_555
N1F C4F 1_555 1_555
N1D Cu1 1_555 1_555
N2F C5F 1_555 1_555
N2H Cu1 1_555 1_555
N2I Cu1 1_555 1_555
C6 N1 1_555 1_555
C6 N2 1_555 1_555
C1F C3F 1_555 1_555
C6F N1F 1_555 1_555
C6F N2F 1_555 1_555

#END
