
#######################################################################
#
#                 Cambridge Crystallographic Data Centre
#                                CCDC 
#
#######################################################################
#
# If this CIF has been generated from an entry in the Cambridge 
# Structural Database, then it will include bibliographic, chemical, 
# crystal, experimental, refinement or atomic coordinate data resulting 
# from the CCDC's data processing and validation procedures.
#
#######################################################################

data_CEXHOD
_chemical_formula_moiety         '(C84 H60 Ag2 B2 Co2 F8 N18)n'
_symmetry_cell_setting           monoclinic
_symmetry_space_group_name_H-M   'P 21/c'
_symmetry_Int_Tables_number      14
_space_group_name_Hall           '-P 2ybc'
loop_
_symmetry_equiv_pos_site_id
_symmetry_equiv_pos_as_xyz
1 x,y,z
2 -x,1/2+y,1/2-z
3 -x,-y,-z
4 x,1/2-y,1/2+z
_cell_length_a                   33.41(2)
_cell_length_b                   26.932(16)
_cell_length_c                   12.365(8)
_cell_angle_alpha                90
_cell_angle_beta                 91.533(10)
_cell_angle_gamma                90
_cell_volume                     11122
loop_
_atom_site_label
_atom_site_type_symbol
_atom_site_fract_x
_atom_site_fract_y
_atom_site_fract_z
Ag1 Ag 0.638574(13) 0.280534(16) 0.22189(4)
Ag2 Ag 0.142680(13) 0.277520(17) 0.74792(4)
Co1 Co 0.38671(2) 0.43014(3) 0.46820(8)
Co2 Co 0.88616(2) 0.43224(3) 0.51814(8)
C1 C 0.45542(18) 0.4695(2) 0.5936(6)
H1 H 0.4390 0.4919 0.6318
C2 C 0.49633(19) 0.4654(2) 0.6098(7)
H2 H 0.5123 0.4839 0.6602
C3 C 0.50974(19) 0.4299(2) 0.5399(7)
H3 H 0.5365 0.4188 0.5328
C4 C 0.47491(19) 0.4130(2) 0.4797(7)
C5 C 0.4723(2) 0.3738(2) 0.4049(7)
C6 C 0.43742(18) 0.3539(2) 0.3593(7)
C7 C 0.4330(2) 0.3128(3) 0.2877(7)
H4 H 0.4540 0.2940 0.2571
C8 C 0.3933(2) 0.3057(3) 0.2715(8)
H5 H 0.3807 0.2805 0.2291
C9 C 0.3738(2) 0.3442(3) 0.3319(8)
H6 H 0.3456 0.3485 0.3337
C10 C 0.51070(18) 0.3532(2) 0.3650(6)
C11 C 0.52202(18) 0.3038(2) 0.3877(6)
H7 H 0.5058 0.2832 0.4309
C12 C 0.55729(19) 0.2859(2) 0.3456(6)
H8 H 0.5648 0.2525 0.3606
C13 C 0.53667(19) 0.3818(2) 0.3043(7)
H9 H 0.5307 0.4156 0.2884
C14 C 0.5710(2) 0.3602(2) 0.2679(7)
H10 H 0.5888 0.3800 0.2275
C15 C 0.6433(2) -0.0166(2) -0.1579(6)
H11 H 0.6442 -0.0463 -0.1991
C16 C 0.6564(2) 0.0301(3) -0.1966(7)
H12 H 0.6656 0.0375 -0.2668
C17 C 0.6527(2) 0.0624(3) -0.1112(6)
H13 H 0.6598 0.0965 -0.1099
C18 C 0.6360(2) 0.0343(2) -0.0239(6)
C19 C 0.6255(2) 0.0515(2) 0.0770(6)
C20 C 0.60867(19) 0.0248(2) 0.1567(5)
C21 C 0.5977(2) 0.0414(2) 0.2641(6)
H14 H 0.6007 0.0739 0.2929
C22 C 0.5822(2) 0.0002(2) 0.3159(7)
H15 H 0.5715 -0.0007 0.3863
C23 C 0.5853(2) -0.0389(2) 0.2455(7)
H16 H 0.5771 -0.0716 0.2628
C24 C 0.6335(2) 0.1053(2) 0.1016(6)
C25 C 0.6617(2) 0.1208(2) 0.1764(5)
H17 H 0.6781 0.0968 0.2122
C26 C 0.6670(2) 0.1702(2) 0.2013(6)
H18 H 0.6865 0.1793 0.2547
C27 C 0.6126(2) 0.1429(2) 0.0444(5)
H19 H 0.5947 0.1345 -0.0137
C28 C 0.6182(2) 0.1918(2) 0.0724(5)
H20 H 0.6030 0.2166 0.0356
C29 C 0.3165(2) 0.4485(3) 0.3256(5)
H21 H 0.3320 0.4653 0.2738
C30 C 0.2741(2) 0.4423(3) 0.3162(7)
H22 H 0.2569 0.4539 0.2594
C31 C 0.2632(2) 0.4154(3) 0.4082(7)
H23 H 0.2370 0.4056 0.4270
C32 C 0.29985(19) 0.4058(3) 0.4677(6)
C33 C 0.30385(18) 0.3774(3) 0.5610(6)
C34 C 0.34062(18) 0.3658(2) 0.6130(6)
C35 C 0.3468(2) 0.3350(3) 0.7066(7)
H24 H 0.3268 0.3186 0.7463
C36 C 0.3868(2) 0.3338(2) 0.7273(7)
H25 H 0.4004 0.3155 0.7827
C37 C 0.40448(19) 0.3651(2) 0.6510(7)
H26 H 0.4324 0.3714 0.6472
C38 C 0.26684(19) 0.3541(3) 0.6053(7)
C39 C 0.2539(2) 0.3679(3) 0.7049(7)
H27 H 0.2677 0.3924 0.7468
C40 C 0.2196(2) 0.3447(3) 0.7424(7)
H28 H 0.2109 0.3534 0.8124
C41 C 0.2451(2) 0.3192(4) 0.5438(7)
H29 H 0.2529 0.3105 0.4729
C42 C 0.21187(19) 0.2976(3) 0.5896(6)
H30 H 0.1983 0.2720 0.5503
C43 C 0.91898(19) 0.4554(3) 0.7375(6)
H31 H 0.9277 0.4223 0.7494
C44 C 0.9224(2) 0.4933(3) 0.8128(6)
H32 H 0.9340 0.4908 0.8835
C45 C 0.9059(2) 0.5354(2) 0.7659(6)
H33 H 0.9033 0.5671 0.7988
C46 C 0.89332(18) 0.5219(2) 0.6581(5)
C47 C 0.87500(17) 0.5523(2) 0.5816(5)
C48 C 0.86339(17) 0.5380(2) 0.4767(5)
C49 C 0.84553(19) 0.5682(3) 0.3945(6)
H34 H 0.8392 0.6025 0.3996
C50 C 0.83934(19) 0.5384(3) 0.3073(6)
H35 H 0.8271 0.5477 0.2401
C51 C 0.85427(18) 0.4917(3) 0.3345(6)
H36 H 0.8542 0.4641 0.2868
C52 C 0.86706(18) 0.6046(2) 0.6146(5)
C53 C 0.84020(18) 0.6165(2) 0.6909(5)
H37 H 0.8248 0.5917 0.7253
C54 C 0.83602(18) 0.6670(2) 0.7171(5)
H38 H 0.8175 0.6750 0.7713
C55 C 0.88860(19) 0.6434(2) 0.5640(6)
H39 H 0.9075 0.6366 0.5100
C56 C 0.88059(18) 0.6917(2) 0.5973(5)
H40 H 0.8942 0.7182 0.5633
C57 C 0.89815(18) 0.3705(2) 0.3272(6)
H41 H 0.9263 0.3754 0.3303
C58 C 0.8772(2) 0.3410(3) 0.2485(8)
H42 H 0.8886 0.3231 0.1906
C59 C 0.8377(2) 0.3437(3) 0.2729(6)
H43 H 0.8164 0.3270 0.2361
C60 C 0.83414(17) 0.3751(2) 0.3607(6)
C61 C 0.79965(18) 0.3873(3) 0.4180(6)
C62 C 0.79808(18) 0.4115(2) 0.5144(6)
C63 C 0.7638(2) 0.4221(3) 0.5784(7)
H44 H 0.7367 0.4155 0.5586
C64 C 0.7773(2) 0.4435(3) 0.6731(7)
H45 H 0.7616 0.4539 0.7318
C65 C 0.81916(19) 0.4469(2) 0.6660(7)
H46 H 0.8362 0.4600 0.7218
C66 C 0.76139(17) 0.3674(2) 0.3708(6)
C67 C 0.7408(2) 0.3308(3) 0.4270(6)
H47 H 0.7505 0.3196 0.4957
C68 C 0.70591(18) 0.3109(2) 0.3808(7)
H48 H 0.6917 0.2868 0.4206
C69 C 0.74589(19) 0.3827(3) 0.2705(6)
H49 H 0.7588 0.4076 0.2299
C70 C 0.71092(17) 0.3602(2) 0.2316(6)
H50 H 0.7000 0.3709 0.1638
C71 C 0.95265(18) 0.4723(2) 0.3950(7)
H51 H 0.9355 0.4950 0.3574
C72 C 0.99447(18) 0.4686(2) 0.3788(7)
H52 H 1.0098 0.4872 0.3292
C73 C 1.00794(19) 0.4336(2) 0.4477(6)
H53 H 1.0350 0.4233 0.4573
C74 C 0.97424(17) 0.4145(2) 0.5047(6)
C75 C 0.97292(18) 0.3741(2) 0.5740(7)
C76 C 0.93865(19) 0.3528(2) 0.6152(7)
C77 C 0.9347(2) 0.3094(3) 0.6810(7)
H54 H 0.9559 0.2891 0.7082
C78 C 0.8955(2) 0.3027(3) 0.6974(9)
H55 H 0.8838 0.2764 0.7366
C79 C 0.8749(2) 0.3425(3) 0.6449(8)
H56 H 0.8467 0.3476 0.6455
C80 C 1.01194(19) 0.3510(2) 0.6141(6)
C81 C 1.03889(17) 0.3794(2) 0.6758(6)
H57 H 1.0333 0.4131 0.6922
C82 C 1.07433(19) 0.3570(3) 0.7129(6)
H58 H 1.0924 0.3761 0.7566
C83 C 1.02269(18) 0.3031(2) 0.5841(7)
H59 H 1.0061 0.2838 0.5366
C84 C 1.05832(17) 0.2846(2) 0.6261(7)
H60 H 1.0652 0.2514 0.6086
N1 N 0.44178(15) 0.43805(16) 0.5177(6)
N2 N 0.39932(15) 0.37201(17) 0.3831(5)
N3 N 0.58077(15) 0.31298(19) 0.2860(5)
N4 N 0.62976(15) -0.01439(18) -0.0573(5)
N5 N 0.60098(15) -0.02691(17) 0.1504(5)
N6 N 0.64514(16) 0.20574(18) 0.1518(5)
N7 N 0.33188(15) 0.42754(18) 0.4173(5)
N8 N 0.37661(14) 0.38450(16) 0.5846(5)
N9 N 0.19802(16) 0.3106(3) 0.6853(5)
N10 N 0.90142(14) 0.47210(18) 0.6446(5)
N11 N 0.86862(14) 0.4907(2) 0.4359(5)
N12 N 0.85470(14) 0.70295(19) 0.6750(4)
N13 N 0.87263(14) 0.39013(17) 0.3956(5)
N14 N 0.83204(15) 0.4299(2) 0.5730(6)
N15 N 0.69155(14) 0.32393(19) 0.2848(4)
N16 N 0.94018(14) 0.44034(19) 0.4686(6)
N17 N 0.90054(16) 0.37131(18) 0.5952(6)
N18 N 1.08414(14) 0.31072(19) 0.6905(5)
B1 B 0.6307(2) 0.3324(2) -0.0377(5)
F1 F 0.64616(14) 0.28686(15) -0.0615(4)
F2 F 0.6020(3) 0.3493(4) -0.1099(10)
F3 F 0.66234(19) 0.3675(2) -0.0579(6)
F4 F 0.6237(3) 0.3426(3) 0.0664(6)
B3 B 0.1461(3) 0.3428(4) 1.0076(8)
F9 F 0.1869(3) 0.3432(4) 1.0191(11)
F12 F 0.1358(3) 0.3807(4) 1.0669(7)
F14 F 0.1476(3) 0.2899(3) 1.0395(8)
F15 F 0.1318(5) 0.3380(6) 0.9001(9)
Ag2A Ag 0.857320(13) 0.777520(17) 0.75208(4)
Ag2_2 Ag 1.142680(13) 0.277520(17) 0.74792(4)
Co1A Co 0.61329(2) -0.06986(3) 0.03180(8)
N4A N 0.37024(15) 0.48561(18) 0.5573(5)
N5A N 0.39902(15) 0.47309(17) 0.3496(5)
N12A N 0.14530(14) 0.20295(19) 0.8250(4)
N18_2 N 0.08414(14) 0.31072(19) 0.6905(5)
loop_
_geom_bond_atom_site_label_1
_geom_bond_atom_site_label_2
_geom_bond_site_symmetry_1
_geom_bond_site_symmetry_2
Ag1 N3 1_555 1_555
Ag2 N9 1_555 1_555
Co1 N1 1_555 1_555
Co2 N10 1_555 1_555
C1 H1 1_555 1_555
C2 C1 1_555 1_555
H2 C2 1_555 1_555
C3 C2 1_555 1_555
H3 C3 1_555 1_555
C4 C3 1_555 1_555
C5 C4 1_555 1_555
C6 C5 1_555 1_555
C7 C6 1_555 1_555
H4 C7 1_555 1_555
C8 C7 1_555 1_555
H5 C8 1_555 1_555
C9 C8 1_555 1_555
H6 C9 1_555 1_555
C10 C5 1_555 1_555
C11 C10 1_555 1_555
H7 C11 1_555 1_555
C12 C11 1_555 1_555
H8 C12 1_555 1_555
C13 C10 1_555 1_555
H9 C13 1_555 1_555
C14 C13 1_555 1_555
H10 C14 1_555 1_555
C15 H11 1_555 1_555
C16 C15 1_555 1_555
H12 C16 1_555 1_555
C17 C16 1_555 1_555
H13 C17 1_555 1_555
C18 C17 1_555 1_555
C19 C18 1_555 1_555
C20 C19 1_555 1_555
C21 C20 1_555 1_555
H14 C21 1_555 1_555
C22 C21 1_555 1_555
H15 C22 1_555 1_555
C23 C22 1_555 1_555
H16 C23 1_555 1_555
C24 C19 1_555 1_555
C25 C24 1_555 1_555
H17 C25 1_555 1_555
C26 C25 1_555 1_555
H18 C26 1_555 1_555
C27 C24 1_555 1_555
H19 C27 1_555 1_555
C28 C27 1_555 1_555
H20 C28 1_555 1_555
C29 H21 1_555 1_555
C30 C29 1_555 1_555
H22 C30 1_555 1_555
C31 C30 1_555 1_555
H23 C31 1_555 1_555
C32 C31 1_555 1_555
C33 C32 1_555 1_555
C34 C33 1_555 1_555
C35 C34 1_555 1_555
H24 C35 1_555 1_555
C36 C35 1_555 1_555
H25 C36 1_555 1_555
C37 C36 1_555 1_555
H26 C37 1_555 1_555
C38 C33 1_555 1_555
C39 C38 1_555 1_555
H27 C39 1_555 1_555
C40 C39 1_555 1_555
H28 C40 1_555 1_555
C41 C38 1_555 1_555
H29 C41 1_555 1_555
C42 C41 1_555 1_555
H30 C42 1_555 1_555
C43 H31 1_555 1_555
C44 C43 1_555 1_555
H32 C44 1_555 1_555
C45 C44 1_555 1_555
H33 C45 1_555 1_555
C46 C45 1_555 1_555
C47 C46 1_555 1_555
C48 C47 1_555 1_555
C49 C48 1_555 1_555
H34 C49 1_555 1_555
C50 C49 1_555 1_555
H35 C50 1_555 1_555
C51 C50 1_555 1_555
H36 C51 1_555 1_555
C52 C47 1_555 1_555
C53 C52 1_555 1_555
H37 C53 1_555 1_555
C54 C53 1_555 1_555
H38 C54 1_555 1_555
C55 C52 1_555 1_555
H39 C55 1_555 1_555
C56 C55 1_555 1_555
H40 C56 1_555 1_555
C57 H41 1_555 1_555
C58 C57 1_555 1_555
H42 C58 1_555 1_555
C59 C58 1_555 1_555
H43 C59 1_555 1_555
C60 C59 1_555 1_555
C61 C60 1_555 1_555
C62 C61 1_555 1_555
C63 C62 1_555 1_555
H44 C63 1_555 1_555
C64 C63 1_555 1_555
H45 C64 1_555 1_555
C65 C64 1_555 1_555
H46 C65 1_555 1_555
C66 C61 1_555 1_555
C67 C66 1_555 1_555
H47 C67 1_555 1_555
C68 C67 1_555 1_555
H48 C68 1_555 1_555
C69 C66 1_555 1_555
H49 C69 1_555 1_555
C70 C69 1_555 1_555
H50 C70 1_555 1_555
C71 H51 1_555 1_555
C72 C71 1_555 1_555
H52 C72 1_555 1_555
C73 C72 1_555 1_555
H53 C73 1_555 1_555
C74 C73 1_555 1_555
C75 C74 1_555 1_555
C76 C75 1_555 1_555
C77 C76 1_555 1_555
H54 C77 1_555 1_555
C78 C77 1_555 1_555
H55 C78 1_555 1_555
C79 C78 1_555 1_555
H56 C79 1_555 1_555
C80 C75 1_555 1_555
C81 C80 1_555 1_555
H57 C81 1_555 1_555
C82 C81 1_555 1_555
H58 C82 1_555 1_555
C83 C80 1_555 1_555
H59 C83 1_555 1_555
C84 C83 1_555 1_555
H60 C84 1_555 1_555
N1 C1 1_555 1_555
N2 Co1 1_555 1_555
N3 C12 1_555 1_555
N4 C15 1_555 1_555
N5 C20 1_555 1_555
N6 Ag1 1_555 1_555
N7 Co1 1_555 1_555
N8 Co1 1_555 1_555
N9 C40 1_555 1_555
N10 C43 1_555 1_555
N11 Co2 1_555 1_555
N12 C54 1_555 1_555
N13 Co2 1_555 1_555
N14 Co2 1_555 1_555
N15 Ag1 1_555 1_555
N16 Co2 1_555 1_555
N17 Co2 1_555 1_555
N18 C82 1_555 1_555
B1 F1 1_555 1_555
F2 B1 1_555 1_555
F3 B1 1_555 1_555
F4 Ag1 1_555 1_555
B3 F9 1_555 1_555
F12 B3 1_555 1_555
F14 B3 1_555 1_555
F15 Ag2 1_555 1_555
Ag2A N12 1_555 1_555
Ag2_2 N18 1_555 1_555
Co1A N4 1_555 1_555
N4A Co1 1_555 1_555
N5A Co1 1_555 1_555
N12A Ag2 1_555 1_555
N18_2 Ag2 1_555 1_555
C4 N1 1_555 1_555
C6 N2 1_555 1_555
C9 N2 1_555 1_555
C14 N3 1_555 1_555
C18 N4 1_555 1_555
C23 N5 1_555 1_555
C26 N6 1_555 1_555
C28 N6 1_555 1_555
C29 N7 1_555 1_555
C32 N7 1_555 1_555
C34 N8 1_555 1_555
C37 N8 1_555 1_555
C42 N9 1_555 1_555
C46 N10 1_555 1_555
C48 N11 1_555 1_555
C51 N11 1_555 1_555
C56 N12 1_555 1_555
C57 N13 1_555 1_555
C60 N13 1_555 1_555
C62 N14 1_555 1_555
C65 N14 1_555 1_555
C68 N15 1_555 1_555
C70 N15 1_555 1_555
C71 N16 1_555 1_555
C74 N16 1_555 1_555
C76 N17 1_555 1_555
C79 N17 1_555 1_555
C84 N18 1_555 1_555
N5 Co1A 1_555 1_555
B1 F4 1_555 1_555
B3 F15 1_555 1_555

#END
