
#######################################################################
#
#                 Cambridge Crystallographic Data Centre
#                                CCDC 
#
#######################################################################
#
# If this CIF has been generated from an entry in the Cambridge 
# Structural Database, then it will include bibliographic, chemical, 
# crystal, experimental, refinement or atomic coordinate data resulting 
# from the CCDC's data processing and validation procedures.
#
#######################################################################

data_CEXJOF
_chemical_formula_moiety         'C58 H38 Ag1 Fe3 N13'
_symmetry_cell_setting           orthorhombic
_symmetry_space_group_name_H-M   'F d d d'
_symmetry_Int_Tables_number      70
_space_group_name_Hall           '-F 2uv 2vw'
loop_
_symmetry_equiv_pos_site_id
_symmetry_equiv_pos_as_xyz
1 x,y,z
2 x,1/2+y,1/2+z
3 x,1/4-y,1/4-z
4 1/2+x,y,1/2+z
5 1/4-x,y,1/4-z
6 1/2+x,1/2+y,z
7 1/4-x,1/4-y,z
8 3/4-x,3/4-y,z
9 3/4-x,y,3/4-z
10 x,3/4-y,3/4-z
11 3/4-x,1/4-y,1/2+z
12 3/4-x,1/2+y,1/4-z
13 1/4-x,3/4-y,1/2+z
14 1/2+x,3/4-y,1/4-z
15 1/4-x,1/2+y,3/4-z
16 1/2+x,1/4-y,3/4-z
17 -x,-y,-z
18 -x,1/2-y,1/2-z
19 -x,3/4+y,3/4+z
20 1/2-x,-y,1/2-z
21 3/4+x,-y,3/4+z
22 1/2-x,1/2-y,-z
23 3/4+x,3/4+y,-z
24 1/4+x,1/4+y,-z
25 1/4+x,-y,1/4+z
26 -x,1/4+y,1/4+z
27 1/4+x,3/4+y,1/2-z
28 1/4+x,1/2-y,3/4+z
29 3/4+x,1/4+y,1/2-z
30 1/2-x,1/4+y,3/4+z
31 3/4+x,1/2-y,1/4+z
32 1/2-x,3/4+y,1/4+z
_cell_length_a                   24.601(5)
_cell_length_b                   16.546(4)
_cell_length_c                   65.775(14)
_cell_angle_alpha                90
_cell_angle_beta                 90
_cell_angle_gamma                90
_cell_volume                     26773.6
loop_
_atom_site_label
_atom_site_type_symbol
_atom_site_fract_x
_atom_site_fract_y
_atom_site_fract_z
Ag1 Ag 0.3750 0.3750 0.095674(8)
Fe1 Fe 0.6250 0.1250 -0.003610(11)
C1 C 0.51365(17) 0.1521(3) -0.01810(6)
H1 H 0.5208 0.1246 -0.0305
C2 C 0.46271(18) 0.1836(3) -0.01257(6)
H2 H 0.4301 0.1805 -0.0202
C3 C 0.46927(17) 0.2204(3) 0.00638(6)
H3 H 0.4421 0.2476 0.0140
C4 C 0.52397(16) 0.2091(3) 0.01185(5)
C5 C 0.55170(19) 0.2382(3) 0.02907(6)
C6 C 0.60724(17) 0.2371(3) 0.03215(5)
C7 C 0.63634(17) 0.2752(3) 0.04797(6)
H4 H 0.6213 0.3026 0.0593
C8 C 0.6898(2) 0.2651(3) 0.04386(6)
H5 H 0.7194 0.2852 0.0517
C9 C 0.69366(18) 0.2189(3) 0.02562(5)
H6 H 0.7268 0.2034 0.0193
C10 C 0.51564(18) 0.2731(4) 0.04540(6)
C11 C 0.4908(2) 0.3455(4) 0.04334(8)
H7 H 0.4986 0.3785 0.0319
C12 C 0.4534(3) 0.3720(4) 0.05807(8)
H8 H 0.4361 0.4227 0.0562
C13 C 0.4651(2) 0.2566(4) 0.07689(6)
C14 C 0.4509(3) 0.2065(6) 0.09466(8)
H9 H 0.4225 0.2225 0.1036
C15 C 0.4819(4) 0.1299(6) 0.09841(11)
H10 H 0.4764 0.0993 0.1105
C16 C 0.5159(3) 0.1068(4) 0.08502(9)
H11 H 0.5331 0.0561 0.0870
C17 C 0.5294(3) 0.1502(5) 0.06789(8)
H12 H 0.5562 0.1286 0.0590
C18 C 0.50430(19) 0.2290(4) 0.06259(6)
C19 C 0.40343(17) 0.2177(4) 0.22863(7)
H13 H 0.4071 0.1946 0.2418
C20 C 0.41000(18) 0.1725(3) 0.21031(7)
H14 H 0.4190 0.1169 0.2089
C21 C 0.40017(17) 0.2282(4) 0.19508(7)
H15 H 0.4014 0.2177 0.1809
C22 C 0.38813(15) 0.3021(3) 0.20401(6)
C23 C 0.3750 0.3750 0.19477(8)
C24 C 0.3750 0.3750 0.17153(8)
C25 C 0.3271 0.3672 0.1612
C26 C 0.3302 0.3699 0.1395
C28 C 0.2765 0.3594 0.1288
H18 H 0.2758 0.3599 0.1143
C29 C 0.2281 0.3490 0.1393
H19 H 0.1955 0.3466 0.1315
C30 C 0.2240 0.3421 0.1598
H20 H 0.1904 0.3326 0.1666
C31 C 0.2757 0.3504 0.1707
H21 H 0.2752 0.3443 0.1850
N1 N 0.55080(13) 0.1659(2) -0.00361(4)
N2 N 0.64382(13) 0.2002(2) 0.01853(4)
N3 N 0.44164(18) 0.3304(4) 0.07410(6)
N4 N 0.39188(13) 0.2940(3) 0.22560(5)
N5 N 0.3750 0.3750 0.12934(7)
Fe1Y Fe 0.3750 0.3750 0.246390(11)
Fe1E Fe 0.1250 0.6250 -0.003610(11)
C1G C 0.23635(17) 0.5979(3) -0.01810(6)
H1G H 0.2292 0.6254 -0.0305
C2G C 0.28729(18) 0.5664(3) -0.01257(6)
H2G H 0.3199 0.5695 -0.0202
C3G C 0.28073(17) 0.5296(3) 0.00638(6)
H3G H 0.3079 0.5024 0.0140
C4G C 0.22603(16) 0.5409(3) 0.01185(5)
C5G C 0.19830(19) 0.5118(3) 0.02907(6)
C6G C 0.14276(17) 0.5129(3) 0.03215(5)
C7G C 0.11366(17) 0.4748(3) 0.04797(6)
H4G H 0.1287 0.4474 0.0593
C8G C 0.0602(2) 0.4849(3) 0.04386(6)
H5G H 0.0306 0.4648 0.0517
C9G C 0.05634(18) 0.5311(3) 0.02562(5)
H6G H 0.0232 0.5466 0.0193
C10G C 0.23436(18) 0.4769(4) 0.04540(6)
C11G C 0.2592(2) 0.4045(4) 0.04334(8)
H7G H 0.2514 0.3715 0.0319
C12G C 0.2966(3) 0.3780(4) 0.05807(8)
H8G H 0.3139 0.3273 0.0562
C13G C 0.2849(2) 0.4934(4) 0.07689(6)
C14G C 0.2991(3) 0.5435(6) 0.09466(8)
H9G H 0.3275 0.5275 0.1036
C15G C 0.2681(4) 0.6201(6) 0.09841(11)
H10G H 0.2736 0.6507 0.1105
C16G C 0.2341(3) 0.6432(4) 0.08502(9)
H11G H 0.2169 0.6939 0.0870
C17G C 0.2206(3) 0.5998(5) 0.06789(8)
H12G H 0.1938 0.6214 0.0590
C18G C 0.24570(19) 0.5210(4) 0.06259(6)
C19G C 0.34657(17) 0.5323(4) 0.22863(7)
H13G H 0.3429 0.5554 0.2418
C20G C 0.34000(18) 0.5775(3) 0.21031(7)
H14G H 0.3310 0.6331 0.2089
C21G C 0.34983(17) 0.5218(4) 0.19508(7)
H15G H 0.3486 0.5323 0.1809
C22G C 0.36187(15) 0.4479(3) 0.20401(6)
C25G C 0.4229 0.3828 0.1612
C26G C 0.4198 0.3801 0.1395
C28G C 0.4735 0.3906 0.1288
H18G H 0.4742 0.3901 0.1143
C29G C 0.5219 0.4010 0.1393
H19G H 0.5545 0.4034 0.1315
C30G C 0.5260 0.4079 0.1598
H20G H 0.5596 0.4174 0.1666
C31G C 0.4743 0.3996 0.1707
H21G H 0.4748 0.4057 0.1850
N1G N 0.19920(13) 0.5841(2) -0.00361(4)
N1F N 0.69920(13) 0.0841(2) -0.00361(4)
N2G N 0.10618(13) 0.5498(2) 0.01853(4)
N2F N 0.60618(13) 0.0498(2) 0.01853(4)
N3G N 0.30836(18) 0.4196(4) 0.07410(6)
N4G N 0.35812(13) 0.4560(3) 0.22560(5)
N4AA N 0.64188(13) 0.2060(3) -0.02440(5)
N4R N 0.60812(13) 0.0440(3) -0.02440(5)
loop_
_geom_bond_atom_site_label_1
_geom_bond_atom_site_label_2
_geom_bond_site_symmetry_1
_geom_bond_site_symmetry_2
Ag1 N3 1_555 1_555
Fe1 N1 1_555 1_555
C1 H1 1_555 1_555
C2 C1 1_555 1_555
H2 C2 1_555 1_555
C3 C2 1_555 1_555
H3 C3 1_555 1_555
C4 C3 1_555 1_555
C5 C4 1_555 1_555
C6 C5 1_555 1_555
C7 C6 1_555 1_555
H4 C7 1_555 1_555
C8 C7 1_555 1_555
H5 C8 1_555 1_555
C9 C8 1_555 1_555
H6 C9 1_555 1_555
C10 C5 1_555 1_555
C11 C10 1_555 1_555
H7 C11 1_555 1_555
C12 C11 1_555 1_555
H8 C12 1_555 1_555
C13 C14 1_555 1_555
C14 H9 1_555 1_555
C15 C14 1_555 1_555
H10 C15 1_555 1_555
C16 C15 1_555 1_555
H11 C16 1_555 1_555
C17 C16 1_555 1_555
H12 C17 1_555 1_555
C18 C10 1_555 1_555
C19 H13 1_555 1_555
C20 C19 1_555 1_555
H14 C20 1_555 1_555
C21 C20 1_555 1_555
H15 C21 1_555 1_555
C22 C21 1_555 1_555
C23 C22 1_555 1_555
C24 C23 1_555 1_555
C25 C24 1_555 1_555
C26 C25 1_555 1_555
C28 C26 1_555 1_555
H18 C28 1_555 1_555
C29 C28 1_555 1_555
H19 C29 1_555 1_555
C30 C29 1_555 1_555
H20 C30 1_555 1_555
C31 C25 1_555 1_555
H21 C31 1_555 1_555
N1 C1 1_555 1_555
N2 Fe1 1_555 1_555
N3 C12 1_555 1_555
N4 C19 1_555 1_555
N5 Ag1 1_555 1_555
Fe1Y N4 1_555 1_555
Fe1E N1G 1_555 1_555
C1G H1G 1_555 1_555
C2G C1G 1_555 1_555
H2G C2G 1_555 1_555
C3G C2G 1_555 1_555
H3G C3G 1_555 1_555
C4G C3G 1_555 1_555
C5G C4G 1_555 1_555
C6G C5G 1_555 1_555
C7G C6G 1_555 1_555
H4G C7G 1_555 1_555
C8G C7G 1_555 1_555
H5G C8G 1_555 1_555
C9G C8G 1_555 1_555
H6G C9G 1_555 1_555
C10G C5G 1_555 1_555
C11G C10G 1_555 1_555
H7G C11G 1_555 1_555
C12G C11G 1_555 1_555
H8G C12G 1_555 1_555
C13G C14G 1_555 1_555
C14G H9G 1_555 1_555
C15G C14G 1_555 1_555
H10G C15G 1_555 1_555
C16G C15G 1_555 1_555
H11G C16G 1_555 1_555
C17G C16G 1_555 1_555
H12G C17G 1_555 1_555
C18G C10G 1_555 1_555
C19G H13G 1_555 1_555
C20G C19G 1_555 1_555
H14G C20G 1_555 1_555
C21G C20G 1_555 1_555
H15G C21G 1_555 1_555
C22G C23 1_555 1_555
C25G C24 1_555 1_555
C26G N5 1_555 1_555
C28G C26G 1_555 1_555
H18G C28G 1_555 1_555
C29G C28G 1_555 1_555
H19G C29G 1_555 1_555
C30G C29G 1_555 1_555
H20G C30G 1_555 1_555
C31G C25G 1_555 1_555
H21G C31G 1_555 1_555
N1G C1G 1_555 1_555
N1F Fe1 1_555 1_555
N2G Fe1E 1_555 1_555
N2F Fe1 1_555 1_555
N3G Ag1 1_555 1_555
N4G Fe1Y 1_555 1_555
N4AA Fe1 1_555 1_555
N4R Fe1 1_555 1_555
C4 N1 1_555 1_555
C6 N2 1_555 1_555
C9 N2 1_555 1_555
C13 C18 1_555 1_555
C13 N3 1_555 1_555
C17 C18 1_555 1_555
C22 N4 1_555 1_555
C26 N5 1_555 1_555
C30 C31 1_555 1_555
C4G N1G 1_555 1_555
C6G N2G 1_555 1_555
C9G N2G 1_555 1_555
C12G N3G 1_555 1_555
C13G C18G 1_555 1_555
C13G N3G 1_555 1_555
C17G C18G 1_555 1_555
C19G N4G 1_555 1_555
C21G C22G 1_555 1_555
C22G N4G 1_555 1_555
C25G C26G 1_555 1_555
C30G C31G 1_555 1_555

#END
