
#######################################################################
#
#                 Cambridge Crystallographic Data Centre
#                                CCDC 
#
#######################################################################
#
# If this CIF has been generated from an entry in the Cambridge 
# Structural Database, then it will include bibliographic, chemical, 
# crystal, experimental, refinement or atomic coordinate data resulting 
# from the CCDC's data processing and validation procedures.
#
#######################################################################

data_KESBUG
_chemical_formula_moiety         '(C42 H30 Ag1 B1 Co1 F4 N9)n'
_symmetry_cell_setting           orthorhombic
_symmetry_space_group_name_H-M   'P b c n'
_symmetry_Int_Tables_number      60
_space_group_name_Hall           '-P 2n 2ab'
loop_
_symmetry_equiv_pos_site_id
_symmetry_equiv_pos_as_xyz
1 x,y,z
2 1/2-x,1/2-y,1/2+z
3 -x,y,1/2-z
4 1/2+x,1/2-y,-z
5 -x,-y,-z
6 1/2+x,1/2+y,1/2-z
7 x,-y,1/2+z
8 1/2-x,1/2+y,z
_cell_length_a                   26.939(6)
_cell_length_b                   12.335(3)
_cell_length_c                   33.458(7)
_cell_angle_alpha                90
_cell_angle_beta                 90
_cell_angle_gamma                90
_cell_volume                     11117.8
loop_
_atom_site_label
_atom_site_type_symbol
_atom_site_fract_x
_atom_site_fract_y
_atom_site_fract_z
_atom_site_U_iso_or_equiv
_atom_site_thermal_displace_type
Ag1 Ag 0.778890(17) 0.26124(4) 0.639867(15) 0.0721 Uani
Co1 Co 0.43123(3) 0.47744(7) 0.61377(3) 0.0660 Uani
C1 C 0.4883(2) 0.6649(6) 0.64419(19) 0.0743 Uani
H1 H 0.4600 0.7107 0.6440 0.0890 Uiso
C2 C 0.5354(2) 0.6976(6) 0.6582(2) 0.0867 Uani
H2 H 0.5441 0.7661 0.6691 0.1040 Uiso
C3 C 0.5652(2) 0.6119(5) 0.6530(2) 0.0833 Uani
H3 H 0.5996 0.6091 0.6592 0.1000 Uiso
C4 C 0.5367(2) 0.5260(5) 0.63676(18) 0.0683 Uani
C5 C 0.5525(2) 0.4210(5) 0.62579(18) 0.0627 Uani
C6 C 0.5239(2) 0.3430(5) 0.60873(18) 0.0623 Uani
C7 C 0.5391(2) 0.2369(5) 0.59610(19) 0.0690 Uani
H4 H 0.5715 0.2069 0.5979 0.0830 Uiso
C8 C 0.4970(2) 0.1867(6) 0.5808(2) 0.0770 Uani
H5 H 0.4948 0.1153 0.5703 0.0920 Uiso
C9 C 0.4591(2) 0.2613(5) 0.5839(2) 0.0727 Uani
H6 H 0.4262 0.2471 0.5751 0.0870 Uiso
C10 C 0.6058(2) 0.3948(5) 0.63340(19) 0.0650 Uani
C11 C 0.6192(2) 0.3176(5) 0.66072(19) 0.0647 Uani
H7 H 0.5947 0.2822 0.6764 0.0780 Uiso
C12 C 0.6678(2) 0.2919(5) 0.66528(19) 0.0630 Uani
H8 H 0.6762 0.2384 0.6846 0.0750 Uiso
C13 C 0.6913(2) 0.4158(5) 0.6190(2) 0.0687 Uani
H9 H 0.7169 0.4525 0.6050 0.0830 Uiso
C14 C 0.6441(2) 0.4469(6) 0.6119(2) 0.0747 Uani
H10 H 0.6368 0.5022 0.5930 0.0900 Uiso
C15 C 0.9708(2) -0.1019(5) 0.45432(19) 0.0647 Uani
H11 H 0.9933 -0.1410 0.4379 0.0770 Uiso
C16 C 0.9661(2) -0.1148(6) 0.4959(2) 0.0720 Uani
H12 H 0.9842 -0.1642 0.5121 0.0860 Uiso
C17 C 0.9318(2) -0.0453(6) 0.5085(2) 0.0720 Uani
H13 H 0.9213 -0.0345 0.5353 0.0870 Uiso
C18 C 0.9139(2) 0.0091(6) 0.4745(2) 0.0720 Uani
C19 C 0.8733(2) 0.0863(6) 0.4721(2) 0.0683 Uani
C20 C 0.8538(2) 0.1255(6) 0.4377(2) 0.0703 Uani
C21 C 0.8115(3) 0.1967(7) 0.4337(2) 0.0940 Uani
H14 H 0.7924 0.2274 0.4548 0.1130 Uiso
C22 C 0.8044(3) 0.2111(8) 0.3938(3) 0.1060 Uani
H15 H 0.7787 0.2515 0.3814 0.1270 Uiso
C23 C 0.8431(3) 0.1537(7) 0.3743(2) 0.0917 Uani
H16 H 0.8478 0.1518 0.3462 0.1100 Uiso
C24 C 0.8515(2) 0.1203(5) 0.51064(19) 0.0697 Uani
C25 C 0.8807(2) 0.1876(6) 0.5375(2) 0.0823 Uani
H17 H 0.9142 0.2054 0.5314 0.0990 Uiso
C26 C 0.8588(2) 0.2250(6) 0.5722(2) 0.0783 Uani
H18 H 0.8783 0.2669 0.5901 0.0940 Uiso
C27 C 0.7857(2) 0.1376(6) 0.55750(19) 0.0700 Uani
H19 H 0.7530 0.1179 0.5651 0.0840 Uiso
C28 C 0.80412(19) 0.0960(5) 0.52260(18) 0.0653 Uani
H20 H 0.7840 0.0500 0.5066 0.0780 Uiso
C29 C 0.8683(2) 0.1675(6) 0.9010(2) 0.0810 Uani
H21 H 0.8754 0.1659 0.9288 0.0980 Uiso
C30 C 0.8370(3) 0.2431(6) 0.8828(3) 0.0963 Uani
H22 H 0.8187 0.2995 0.8953 0.1150 Uiso
C31 C 0.8385(3) 0.2180(6) 0.8426(2) 0.0887 Uani
H23 H 0.8208 0.2539 0.8219 0.1060 Uiso
C32 C 0.8711(2) 0.1294(6) 0.8378(2) 0.0803 Uani
C33 C 0.8813(2) 0.0739(6) 0.8023(2) 0.0800 Uani
C34 C 0.9080(2) -0.0199(6) 0.7992(2) 0.0790 Uani
C35 C 0.9161(3) -0.0816(6) 0.7636(2) 0.0847 Uani
H24 H 0.9053 -0.0641 0.7373 0.1020 Uiso
C36 C 0.9427(3) -0.1716(6) 0.7751(2) 0.0900 Uani
H25 H 0.9552 -0.2271 0.7582 0.1080 Uiso
C37 C 0.9479(2) -0.1653(5) 0.8167(2) 0.0743 Uani
H26 H 0.9641 -0.2187 0.8325 0.0900 Uiso
C38 C 0.8585(3) 0.1209(7) 0.7645(2) 0.0890 Uani
C39 C 0.8215(3) 0.0596(7) 0.7436(2) 0.0993 Uani
H27 H 0.8114 -0.0098 0.7528 0.1190 Uiso
C40 C 0.8011(3) 0.1045(8) 0.7096(2) 0.0997 Uani
H28 H 0.7756 0.0661 0.6960 0.1200 Uiso
C41 C 0.8501(4) 0.2583(6) 0.7148(2) 0.0987 Uani
H29 H 0.8593 0.3269 0.7042 0.1180 Uiso
C42 C 0.8725(3) 0.2211(7) 0.7502(2) 0.1027 Uani
H30 H 0.8966 0.2636 0.7638 0.1230 Uiso
N1 N 0.48802(17) 0.5630(4) 0.63123(14) 0.0653 Uani
N2 N 0.47287(15) 0.3557(5) 0.60028(15) 0.0670 Uani
N3 N 0.70480(17) 0.3372(4) 0.64432(15) 0.0600 Uani
N4 N 0.93912(16) -0.0265(4) 0.44143(14) 0.0607 Uani
N5 N 0.87147(18) 0.1037(5) 0.40012(17) 0.0827 Uani
N6 N 0.81114(19) 0.2050(4) 0.58192(16) 0.0707 Uani
N7 N 0.88714(16) 0.0972(4) 0.87432(14) 0.0627 Uani
N8 N 0.92802(18) -0.0786(4) 0.83121(15) 0.0693 Uani
N9 N 0.8154(3) 0.1974(7) 0.69556(19) 0.0933 Uani
B1 B 0.8360(4) 0.5188(8) 0.6351(3) 0.1110 Uani
F1 F 0.8472(5) 0.5969(11) 0.6069(3) 0.1370 Uani
F2 F 0.7889(3) 0.5514(10) 0.6458(3) 0.0927 Uani
F3 F 0.8348(7) 0.4258(10) 0.6218(7) 0.2467 Uani
F4 F 0.8648(5) 0.5441(12) 0.6664(4) 0.1517 Uani
Co1C Co 0.93123(3) 0.02256(7) 0.38623(3) 0.0660 Uani
Co1E Co 0.93123(3) -0.02256(7) 0.88623(3) 0.0660 Uani
N4C N 0.43912(16) 0.5265(4) 0.55857(14) 0.0607 Uani
N5C N 0.37147(18) 0.3963(5) 0.59988(17) 0.0827 Uani
N7E N 0.38714(16) 0.5972(4) 0.62568(14) 0.0627 Uani
N8E N 0.42802(18) 0.4214(4) 0.66879(15) 0.0693 Uani
loop_
_atom_site_aniso_label
_atom_site_aniso_U_11
_atom_site_aniso_U_22
_atom_site_aniso_U_33
_atom_site_aniso_U_23
_atom_site_aniso_U_13
_atom_site_aniso_U_12
Ag1 0.0518(3) 0.0947(4) 0.0698(3) 0.0085(3) 0.0051(2) 0.0325(2)
Co1 0.0375(4) 0.0923(7) 0.0682(6) -0.0159(5) -0.0078(4) 0.0260(4)
C1 0.051(4) 0.089(5) 0.083(5) -0.030(4) -0.013(3) 0.021(3)
C2 0.071(5) 0.073(5) 0.116(6) -0.036(4) -0.025(4) 0.021(4)
C3 0.062(4) 0.079(5) 0.109(5) -0.040(4) -0.029(4) 0.014(4)
C4 0.048(3) 0.080(4) 0.077(4) -0.025(4) -0.018(3) 0.030(3)
C5 0.036(3) 0.078(4) 0.074(4) -0.022(3) -0.009(3) 0.017(3)
C6 0.045(3) 0.067(4) 0.075(4) -0.008(3) -0.005(3) 0.018(3)
C7 0.051(4) 0.067(4) 0.089(5) -0.007(3) -0.007(3) 0.021(3)
C8 0.056(4) 0.078(5) 0.097(5) -0.021(4) -0.014(3) 0.003(3)
C9 0.047(3) 0.074(5) 0.097(5) -0.016(4) -0.013(3) 0.015(3)
C10 0.050(4) 0.067(4) 0.078(4) -0.023(3) -0.014(3) 0.018(3)
C11 0.046(3) 0.073(4) 0.075(4) -0.011(3) -0.002(3) 0.013(3)
C12 0.046(3) 0.060(4) 0.083(4) 0.001(3) -0.007(3) 0.008(3)
C13 0.051(4) 0.077(4) 0.078(4) 0.004(4) -0.006(3) 0.009(3)
C14 0.050(4) 0.099(5) 0.075(5) -0.003(4) -0.014(3) 0.027(4)
C15 0.03 0.094 0.07 -0.024 -0.003 -0.013
C16 0.04 0.091 0.085 -0.016 -0.001 -0.027
C17 0.034 0.098 0.084 -0.036 0.01 -0.026
C18 0.045 0.101 0.07 -0.007 0.004 -0.034
C19 0.037 0.095 0.073 -0.013 0.014 -0.025
C20 0.03 0.107 0.074 -0.022 0.004 -0.012
C21 0.059 0.137 0.086 0.005 0.019 -0.011
C22 0.053 0.163 0.102 0.011 0.004 -0.007
C23 0.05 0.145 0.08 -0.006 0.007 -0.009
C24 0.039 0.086 0.084 -0.014 0.014 -0.006
C25 0.046 0.125 0.076 -0.019 0.018 -0.023
C26 0.047 0.097 0.091 -0.022 0.012 -0.01
C27 0.04 0.108 0.062 0.007 0.009 -0.009
C28 0.031 0.092 0.073 -0.005 0.001 -0.007
C29 0.041 0.121 0.081 -0.013 -0.005 0.026
C30 0.06 0.117 0.112 -0.017 -0.025 0.045
C31 0.081 0.1 0.085 -0.01 -0.025 0.036
C32 0.069 0.099 0.073 0.005 -0.002 0.037
C33 0.069 0.099 0.072 0.008 -0.01 0.03
C34 0.065 0.092 0.08 0.021 0.012 0.018
C35 0.089 0.098 0.067 0.012 0.015 0.026
C36 0.089 0.087 0.094 -0.001 0.017 0.022
C37 0.062 0.072 0.089 0.012 0.011 0.017
C38 0.11 0.085 0.072 0.013 -0.009 0.03
C39 0.123 0.091 0.084 0 -0.017 0.039
C40 0.11 0.113 0.076 0.014 -0.012 0.036
C41 0.134 0.082 0.08 0.008 -0.002 0.04
C42 0.121 0.093 0.094 0 -0.019 0.041
N1 0.057(3) 0.080(4) 0.059(3) -0.023(3) -0.013(2) 0.029(3)
N2 0.028(2) 0.093(4) 0.080(3) -0.029(3) -0.008(2) 0.017(2)
N3 0.040(3) 0.063(3) 0.077(3) -0.004(3) -0.011(2) 0.016(2)
N4 0.039 0.081 0.062 -0.025 0.009 -0.027
N5 0.031 0.14 0.077 -0.001 0.001 -0.013
N6 0.061 0.078 0.073 -0.007 0.01 0.001
N7 0.042 0.086 0.06 0.006 -0.002 0.03
N8 0.068 0.073 0.067 0.007 0.011 0.021
N9 0.093 0.112 0.075 -0.01 -0.016 0.051
B1 0.098 0.109 0.126 0.008 0.011 -0.021
F1 0.121 0.174 0.116 -0.019 0.031 -0.099
F2 0.068 0.091 0.119 -0.018 -0.018 -0.035
F3 0.22 0.13 0.39 -0.182 0.22 -0.11
F4 0.125 0.187 0.143 0.026 -0.02 0.085
Co1C 0.0375 0.0923 0.0682 -0.0159 0.0078 -0.026
Co1E 0.0375 0.0923 0.0682 0.0159 0.0078 0.026
N4C 0.039(3) 0.081(4) 0.062(3) -0.025(3) -0.009(2) 0.027(2)
N5C 0.031(3) 0.140(5) 0.077(4) -0.001(4) -0.001(3) 0.013(3)
N7E 0.042(3) 0.086(4) 0.060(3) -0.006(3) 0.002(2) 0.030(2)
N8E 0.068(3) 0.073(3) 0.067(3) -0.007(3) -0.011(3) 0.021(3)
loop_
_geom_bond_atom_site_label_1
_geom_bond_atom_site_label_2
_geom_bond_site_symmetry_1
_geom_bond_site_symmetry_2
Ag1 N3 1_555 1_555
Co1 N1 1_555 1_555
C1 H1 1_555 1_555
C2 C1 1_555 1_555
H2 C2 1_555 1_555
C3 C2 1_555 1_555
H3 C3 1_555 1_555
C4 C3 1_555 1_555
C5 C4 1_555 1_555
C6 C5 1_555 1_555
C7 C6 1_555 1_555
H4 C7 1_555 1_555
C8 C7 1_555 1_555
H5 C8 1_555 1_555
C9 C8 1_555 1_555
H6 C9 1_555 1_555
C10 C5 1_555 1_555
C11 C10 1_555 1_555
H7 C11 1_555 1_555
C12 C11 1_555 1_555
H8 C12 1_555 1_555
C13 H9 1_555 1_555
C14 C10 1_555 1_555
H10 C14 1_555 1_555
C15 H11 1_555 1_555
C16 C15 1_555 1_555
H12 C16 1_555 1_555
C17 C16 1_555 1_555
H13 C17 1_555 1_555
C18 C17 1_555 1_555
C19 C18 1_555 1_555
C20 C19 1_555 1_555
C21 C20 1_555 1_555
H14 C21 1_555 1_555
C22 C21 1_555 1_555
H15 C22 1_555 1_555
C23 C22 1_555 1_555
H16 C23 1_555 1_555
C24 C19 1_555 1_555
C25 C24 1_555 1_555
H17 C25 1_555 1_555
C26 C25 1_555 1_555
H18 C26 1_555 1_555
C27 H19 1_555 1_555
C28 C24 1_555 1_555
H20 C28 1_555 1_555
C29 H21 1_555 1_555
C30 C29 1_555 1_555
H22 C30 1_555 1_555
C31 C30 1_555 1_555
H23 C31 1_555 1_555
C32 C31 1_555 1_555
C33 C32 1_555 1_555
C34 C33 1_555 1_555
C35 C34 1_555 1_555
H24 C35 1_555 1_555
C36 C35 1_555 1_555
H25 C36 1_555 1_555
C37 C36 1_555 1_555
H26 C37 1_555 1_555
C38 C33 1_555 1_555
C39 C38 1_555 1_555
H27 C39 1_555 1_555
C40 C39 1_555 1_555
H28 C40 1_555 1_555
C41 H29 1_555 1_555
C42 C38 1_555 1_555
H30 C42 1_555 1_555
N1 C1 1_555 1_555
N2 Co1 1_555 1_555
N3 C12 1_555 1_555
N4 C15 1_555 1_555
N5 C20 1_555 1_555
N6 Ag1 1_555 1_555
N7 C29 1_555 1_555
N8 C34 1_555 1_555
N9 Ag1 1_555 1_555
B1 F1 1_555 1_555
F2 B1 1_555 1_555
F3 Ag1 1_555 1_555
F4 B1 1_555 1_555
Co1C N4 1_555 1_555
Co1E N7 1_555 1_555
N4C Co1 1_555 1_555
N5C Co1 1_555 1_555
N7E Co1 1_555 1_555
N8E Co1 1_555 1_555
C4 N1 1_555 1_555
C6 N2 1_555 1_555
C9 N2 1_555 1_555
C13 C14 1_555 1_555
C13 N3 1_555 1_555
C18 N4 1_555 1_555
C23 N5 1_555 1_555
C26 N6 1_555 1_555
C27 C28 1_555 1_555
C27 N6 1_555 1_555
C32 N7 1_555 1_555
C37 N8 1_555 1_555
C40 N9 1_555 1_555
C41 C42 1_555 1_555
C41 N9 1_555 1_555
N5 Co1C 1_555 1_555
N8 Co1E 1_555 1_555
B1 F3 1_555 1_555

#END
