
#######################################################################
#
#                 Cambridge Crystallographic Data Centre
#                                CCDC 
#
#######################################################################
#
# If this CIF has been generated from an entry in the Cambridge 
# Structural Database, then it will include bibliographic, chemical, 
# crystal, experimental, refinement or atomic coordinate data resulting 
# from the CCDC's data processing and validation procedures.
#
#######################################################################

data_KESBOA
_chemical_formula_moiety         '(C43 H30 Ag1 Co1 F3 N9 O3 S1)n'
_symmetry_cell_setting           orthorhombic
_symmetry_space_group_name_H-M   'P b c n'
_symmetry_Int_Tables_number      60
_space_group_name_Hall           '-P 2n 2ab'
loop_
_symmetry_equiv_pos_site_id
_symmetry_equiv_pos_as_xyz
1 x,y,z
2 1/2-x,1/2-y,1/2+z
3 -x,y,1/2-z
4 1/2+x,1/2-y,-z
5 -x,-y,-z
6 1/2+x,1/2+y,1/2-z
7 x,-y,1/2+z
8 1/2-x,1/2+y,z
_cell_length_a                   26.813(3)
_cell_length_b                   12.6035(12)
_cell_length_c                   33.472(3)
_cell_angle_alpha                90
_cell_angle_beta                 90
_cell_angle_gamma                90
_cell_volume                     11311.4
loop_
_atom_site_label
_atom_site_type_symbol
_atom_site_fract_x
_atom_site_fract_y
_atom_site_fract_z
Ag1 Ag 0.279990(14) 0.75796(4) 0.637554(11)
Co1 Co 0.43192(2) 0.51444(5) 0.385271(16)
C1 C 0.3445(2) 0.6487(5) 0.37275(14)
H1 H 0.3488 0.6472 0.3446
C2 C 0.3069(3) 0.7080(5) 0.39299(18)
H2 H 0.2813 0.7496 0.3811
C3 C 0.3147(2) 0.6934(4) 0.43241(16)
H3 H 0.2965 0.7253 0.4536
C4 C 0.35539(18) 0.6212(4) 0.43654(13)
C5 C 0.37612(18) 0.5805(4) 0.47181(12)
C6 C 0.41516(18) 0.5078(4) 0.47369(13)
C7 C 0.4326(2) 0.4535(4) 0.50809(13)
H4 H 0.4214 0.4638 0.5347
C8 C 0.4681(2) 0.3840(4) 0.49592(14)
H5 H 0.4861 0.3354 0.5121
C9 C 0.47285(18) 0.3984(4) 0.45429(14)
H6 H 0.4960 0.3611 0.4380
C10 C 0.35377(19) 0.6189(4) 0.50963(13)
C11 C 0.38113(19) 0.6829(4) 0.53525(14)
H7 H 0.4148 0.6997 0.5292
C12 C 0.35927(18) 0.7224(4) 0.56974(14)
H8 H 0.3783 0.7671 0.5867
C13 C 0.2863(2) 0.6371(5) 0.55534(15)
H9 H 0.2531 0.6194 0.5628
C14 C 0.3043(2) 0.5978(5) 0.52062(14)
H10 H 0.2836 0.5561 0.5038
C15 C 0.44977(18) 0.3554(5) 0.81348(14)
H11 H 0.4703 0.3073 0.8278
C16 C 0.43920(18) 0.3477(5) 0.77232(14)
H12 H 0.4506 0.2945 0.7544
C17 C 0.40950(18) 0.4314(5) 0.76336(14)
H13 H 0.3967 0.4480 0.7376
C18 C 0.40070(16) 0.4902(4) 0.79892(13)
C19 C 0.37193(17) 0.5800(4) 0.80436(12)
C20 C 0.36488(15) 0.6341(4) 0.84001(13)
C21 C 0.33414(19) 0.7234(4) 0.84736(16)
H14 H 0.3140 0.7591 0.8283
C22 C 0.3387(2) 0.7490(4) 0.88682(16)
H15 H 0.3229 0.8059 0.9005
C23 C 0.37159(18) 0.6734(4) 0.90299(14)
H16 H 0.3813 0.6716 0.9303
C24 C 0.34631(19) 0.6213(4) 0.76775(14)
C25 C 0.31233(19) 0.5633(4) 0.74679(15)
H17 H 0.3028 0.4950 0.7561
C26 C 0.29154(19) 0.6029(5) 0.71204(14)
H18 H 0.2680 0.5609 0.6979
C27 C 0.3357(2) 0.7547(6) 0.71872(17)
H19 H 0.3439 0.8232 0.7089
C28 C 0.3580(2) 0.7223(5) 0.75338(16)
H20 H 0.3807 0.7670 0.7672
C29 C -0.01090(18) 1.1725(4) 0.64313(13)
H21 H -0.0398 1.2161 0.6439
C30 C 0.03683(19) 1.2062(4) 0.65436(16)
H22 H 0.0459 1.2750 0.6635
C31 C 0.06763(19) 1.1221(4) 0.64972(14)
H23 H 0.1024 1.1208 0.6552
C32 C 0.03874(16) 1.0364(4) 0.63530(12)
C33 C 0.05492(17) 0.9349(4) 0.62534(13)
C34 C 0.02492(17) 0.8560(4) 0.60942(13)
C35 C 0.0410(2) 0.7531(4) 0.59773(14)
H24 H 0.0741 0.7263 0.5991
C36 C -0.0003(2) 0.6997(4) 0.58406(15)
H25 H -0.0016 0.6291 0.5742
C37 C -0.0405(2) 0.7719(4) 0.58778(14)
H26 H -0.0738 0.7560 0.5803
C38 C 0.10826(17) 0.9089(4) 0.63229(15)
C39 C 0.12199(17) 0.8395(4) 0.66214(14)
H27 H 0.0977 0.8121 0.6800
C40 C 0.17155(19) 0.8100(4) 0.66589(14)
H28 H 0.1802 0.7615 0.6865
C41 C 0.1944(2) 0.9170(5) 0.61517(18)
H29 H 0.2198 0.9460 0.5987
C42 C 0.1459(2) 0.9518(5) 0.60941(17)
H30 H 0.1387 1.0045 0.5900
N1 N 0.37260(14) 0.5958(3) 0.39854(11)
N2 N 0.44088(14) 0.4710(3) 0.44059(10)
N3 N 0.31271(16) 0.6998(4) 0.57980(12)
N4 N 0.42683(14) 0.4402(3) 0.82972(10)
N5 N 0.38737(13) 0.6059(3) 0.87602(10)
N6 N 0.30343(17) 0.6973(4) 0.69792(12)
N7 N -0.01087(13) 1.0712(3) 0.63123(10)
N8 N -0.02635(14) 0.8636(3) 0.60283(10)
N9 N 0.20741(14) 0.8456(3) 0.64243(12)
S1 S 0.33920(6) 1.02245(13) 0.63318(5)
O1 O 0.3125(3) 1.0442(6) 0.6688(2)
O2 O 0.3407(4) 1.1135(7) 0.6056(3)
O3 O 0.3302(6) 0.9249(10) 0.6154(5)
C43 C 0.4017(5) 1.0181(11) 0.6500(6)
F1 F 0.4339(4) 0.9988(7) 0.6209(5)
F2 F 0.4167(3) 1.1043(6) 0.6679(3)
F3 F 0.4069(3) 0.9397(7) 0.6795(5)
Co1F Co 0.43192(2) 0.48556(5) 0.885271(16)
Co1C Co -0.06808(2) 0.98556(5) 0.614729(16)
N4F N 0.42683(14) 0.5598(3) 0.32972(10)
N5F N 0.38737(13) 0.3941(3) 0.37602(10)
N7C N 0.48913(13) 0.4288(3) 0.36877(10)
N8C N 0.47365(14) 0.6364(3) 0.39717(10)
loop_
_geom_bond_atom_site_label_1
_geom_bond_atom_site_label_2
_geom_bond_site_symmetry_1
_geom_bond_site_symmetry_2
Ag1 N3 1_555 1_555
Co1 N1 1_555 1_555
C1 H1 1_555 1_555
C2 C1 1_555 1_555
H2 C2 1_555 1_555
C3 C2 1_555 1_555
H3 C3 1_555 1_555
C4 C3 1_555 1_555
C5 C4 1_555 1_555
C6 C5 1_555 1_555
C7 C6 1_555 1_555
H4 C7 1_555 1_555
C8 C7 1_555 1_555
H5 C8 1_555 1_555
C9 C8 1_555 1_555
H6 C9 1_555 1_555
C10 C5 1_555 1_555
C11 C10 1_555 1_555
H7 C11 1_555 1_555
C12 C11 1_555 1_555
H8 C12 1_555 1_555
C13 H9 1_555 1_555
C14 C10 1_555 1_555
H10 C14 1_555 1_555
C15 H11 1_555 1_555
C16 C15 1_555 1_555
H12 C16 1_555 1_555
C17 C16 1_555 1_555
H13 C17 1_555 1_555
C18 C17 1_555 1_555
C19 C18 1_555 1_555
C20 C19 1_555 1_555
C21 C20 1_555 1_555
H14 C21 1_555 1_555
C22 C21 1_555 1_555
H15 C22 1_555 1_555
C23 C22 1_555 1_555
H16 C23 1_555 1_555
C24 C19 1_555 1_555
C25 C24 1_555 1_555
H17 C25 1_555 1_555
C26 C25 1_555 1_555
H18 C26 1_555 1_555
C27 H19 1_555 1_555
C28 C24 1_555 1_555
H20 C28 1_555 1_555
C29 H21 1_555 1_555
C30 C29 1_555 1_555
H22 C30 1_555 1_555
C31 C30 1_555 1_555
H23 C31 1_555 1_555
C32 C31 1_555 1_555
C33 C32 1_555 1_555
C34 C33 1_555 1_555
C35 C34 1_555 1_555
H24 C35 1_555 1_555
C36 C35 1_555 1_555
H25 C36 1_555 1_555
C37 C36 1_555 1_555
H26 C37 1_555 1_555
C38 C33 1_555 1_555
C39 C38 1_555 1_555
H27 C39 1_555 1_555
C40 C39 1_555 1_555
H28 C40 1_555 1_555
C41 H29 1_555 1_555
C42 C38 1_555 1_555
H30 C42 1_555 1_555
N1 C1 1_555 1_555
N2 Co1 1_555 1_555
N3 C12 1_555 1_555
N4 C15 1_555 1_555
N5 C20 1_555 1_555
N6 Ag1 1_555 1_555
N7 C29 1_555 1_555
N8 C34 1_555 1_555
N9 Ag1 1_555 1_555
S1 O1 1_555 1_555
O2 S1 1_555 1_555
O3 Ag1 1_555 1_555
C43 S1 1_555 1_555
F1 C43 1_555 1_555
F2 C43 1_555 1_555
F3 C43 1_555 1_555
Co1F N4 1_555 1_555
Co1C N7 1_555 1_555
N4F Co1 1_555 1_555
N5F Co1 1_555 1_555
N7C Co1 1_555 1_555
N8C Co1 1_555 1_555
C4 N1 1_555 1_555
C6 N2 1_555 1_555
C9 N2 1_555 1_555
C13 C14 1_555 1_555
C13 N3 1_555 1_555
C18 N4 1_555 1_555
C23 N5 1_555 1_555
C26 N6 1_555 1_555
C27 C28 1_555 1_555
C27 N6 1_555 1_555
C32 N7 1_555 1_555
C37 N8 1_555 1_555
C40 N9 1_555 1_555
C41 C42 1_555 1_555
C41 N9 1_555 1_555
N5 Co1F 1_555 1_555
N8 Co1C 1_555 1_555
S1 O3 1_555 1_555

#END
