
#######################################################################
#
#                 Cambridge Crystallographic Data Centre
#                                CCDC 
#
#######################################################################
#
# If this CIF has been generated from an entry in the Cambridge 
# Structural Database, then it will include bibliographic, chemical, 
# crystal, experimental, refinement or atomic coordinate data resulting 
# from the CCDC's data processing and validation procedures.
#
#######################################################################

data_CAZKOF
_chemical_formula_moiety         'C18 H9 O12 Zn6'
_symmetry_cell_setting           rhombohedral
_symmetry_space_group_name_H-M   'R -3 m'
_symmetry_Int_Tables_number      166
_space_group_name_Hall           '-R 3 2"'
loop_
_symmetry_equiv_pos_site_id
_symmetry_equiv_pos_as_xyz
1 x,y,z
2 -y,x-y,z
3 -x+y,-x,z
4 x-y,-y,-z
5 -x,-x+y,-z
6 y,x,-z
7 2/3+x,1/3+y,1/3+z
8 2/3-y,1/3+x-y,1/3+z
9 2/3-x+y,1/3-x,1/3+z
10 2/3+x-y,1/3-y,1/3-z
11 2/3-x,1/3-x+y,1/3-z
12 2/3+y,1/3+x,1/3-z
13 1/3+x,2/3+y,2/3+z
14 1/3-y,2/3+x-y,2/3+z
15 1/3-x+y,2/3-x,2/3+z
16 1/3+x-y,2/3-y,2/3-z
17 1/3-x,2/3-x+y,2/3-z
18 1/3+y,2/3+x,2/3-z
19 -x,-y,-z
20 y,-x+y,-z
21 x-y,x,-z
22 -x+y,y,z
23 x,x-y,z
24 -y,-x,z
25 1/3-x,2/3-y,2/3-z
26 1/3+y,2/3-x+y,2/3-z
27 1/3+x-y,2/3+x,2/3-z
28 1/3-x+y,2/3+y,2/3+z
29 1/3+x,2/3+x-y,2/3+z
30 1/3-y,2/3-x,2/3+z
31 2/3-x,1/3-y,1/3-z
32 2/3+y,1/3-x+y,1/3-z
33 2/3+x-y,1/3+x,1/3-z
34 2/3-x+y,1/3+y,1/3+z
35 2/3+x,1/3+x-y,1/3+z
36 2/3-y,1/3-x,1/3+z
_cell_length_a                   23.5302(8)
_cell_length_b                   23.5302(8)
_cell_length_c                   31.5110(14)
_cell_angle_alpha                90
_cell_angle_beta                 90
_cell_angle_gamma                120
_cell_volume                     15109.3
loop_
_atom_site_label
_atom_site_type_symbol
_atom_site_fract_x
_atom_site_fract_y
_atom_site_fract_z
_atom_site_U_iso_or_equiv
_atom_site_thermal_displace_type
Zn1 Zn 0.711351(18) 0.422703(16) 0.179483(10) 0.0143 Uani
C1 C 0.82226(20) 0.64453(18) 0.01211(12) 0.0417 Uani
C2 C 0.85068(20) 0.70135(18) -0.01793(12) 0.0400 Uani
Zn2 Zn 0.6667 0.3333 0.097245(17) 0.0136 Uani
C3 C 0.79073(23) 0.5815(2) -0.00383(14) 0.0887 Uani
H1 H 0.7875 0.5750 -0.0337 0.1070 Uiso
C4 C 0.9134(5) 0.7375(3) -0.0236(2) 0.0407 Uani
C5 C 0.76393(23) 0.5279(2) 0.02276(14) 0.0806 Uani
H3 H 0.7425 0.4850 0.0111 0.0970 Uiso
C6 C 0.9427(6) 0.7883(4) -0.0529(2) 0.0398 Uani
C7 C 0.76792(19) 0.53584(17) 0.06549(11) 0.0316 Uani
C8 C 0.90204(19) 0.80409(17) -0.07605(11) 0.0293 Uani
C9 C 0.79938(19) 0.59875(17) 0.08189(11) 0.0324 Uani
H5 H 0.8026 0.6051 0.1118 0.0390 Uiso
C11 C 0.82593(19) 0.65185(17) 0.05550(11) 0.0327 Uani
O1 O 0.85792(15) 0.71584(13) 0.06900(9) 0.0638 Uani
O2 O 0.9406(4) 0.6804(2) -0.03473(15) 0.0561 Uani
C13 C 0.8773(11) 0.7261(3) 0.11408(18) 0.0796 Uani
C14 C 0.9967(6) 0.6950(4) -0.0594(2) 0.0640 Uani
H10 H 1.0309 0.7407 -0.0545 0.0960 Uiso
H11 H 1.0133 0.6658 -0.0511 0.0960 Uiso
H12 H 0.9848 0.6886 -0.0895 0.0960 Uiso
C15 C 0.73869(17) 0.47739(15) 0.09413(10) 0.0249 Uani
C16 C 0.92921(18) 0.85842(16) -0.10749(10) 0.0239 Uani
O3 O 0.74338(11) 0.48676(10) 0.13351(7) 0.0246 Uani
O4 O 0.98721(9) 0.87945(8) -0.12003(6) 0.0356 Uani
O5 O 0.71093(12) 0.42185(11) 0.07617(8) 0.0351 Uani
O6 O 0.6667 0.3333 0.15856(10) 0.0123 Uani
Zn1N Zn 1.044685(24) 0.955316(18) -0.153850(10) 0.0143 Uani
Zn1B Zn 0.711352(24) 0.288649(18) 0.179483(10) 0.0143 Uani
Zn1A Zn 0.577297(16) 0.288648(24) 0.179483(10) 0.0143 Uani
Zn1CA Zn 0.910630(16) 0.955316(18) -0.153850(10) 0.0143 Uani
C4U C 0.8241(6) 0.7375(3) -0.0236(2) 0.0407 Uani
C6U C 0.8456(7) 0.7883(4) -0.0529(2) 0.0398 Uani
O2U O 0.7398(4) 0.6804(2) -0.03473(15) 0.0561 Uani
C13U C 0.8488(11) 0.7261(3) 0.11408(18) 0.0796 Uani
C14U C 0.6983(7) 0.6950(4) -0.0594(2) 0.0640 Uani
H10U H 0.7098 0.7407 -0.0545 0.0960 Uiso
H11U H 0.6525 0.6658 -0.0511 0.0960 Uiso
H12U H 0.7038 0.6886 -0.0895 0.0960 Uiso
O4U O 0.89224(12) 0.87945(8) -0.12003(6) 0.0356 Uani
O4G O 0.78722(8) 0.44109(12) 0.21330(6) 0.0356 Uani
O4HA O 0.65388(9) 0.44109(12) 0.21330(6) 0.0356 Uani
O5A O 0.57815(11) 0.28908(16) 0.07617(8) 0.0351 Uani
O5B O 0.71092(16) 0.28907(12) 0.07617(8) 0.0351 Uani
loop_
_atom_site_aniso_label
_atom_site_aniso_U_11
_atom_site_aniso_U_22
_atom_site_aniso_U_33
_atom_site_aniso_U_23
_atom_site_aniso_U_13
_atom_site_aniso_U_12
Zn1 0.01722 0.01339 0.01108 -0.00036 -0.00018 0.00669
C1 0.0621 0.0215 0.028 0.0127 0.0063 0.0108
C2 0.058 0.025 0.026 0.0149 0.0075 0.0125
Zn2 0.0150(2) 0.0150(2) 0.0107(3) 0.000 0.000 0.00750(10)
C3 0.1716 0.024 0.021 0.0098 0.0049 0.0118
C4 0.036 0.037 0.042 0.02 -0.005 0.013
C5 0.1514 0.02 0.027 -0.0004 -0.0002 0.0102
C6 0.032 0.027 0.046 0.02 -0.003 0.004
C7 0.0446 0.019 0.0226 0.0104 0.0052 0.0095
C8 0.0342 0.0229 0.027 0.0131 0.0065 0.0115
C9 0.0468 0.029 0.0154 0.0045 0.0023 0.0145
C11 0.0436 0.0147 0.0303 0.0083 0.0041 0.0074
O1 0.1111 0.0167 0.0322 0.009 0.0045 0.0084
O2 0.067 0.051 0.067 0.039 0.023 0.042
C13 0.116 0.034 0.032 -0.002 0.007 -0.005
C14 0.068 0.066 0.084 0.034 0.027 0.053
C15 0.0314 0.0151 0.0227 0.009 0.0045 0.0075
C16 0.0279 0.019 0.0219 0.0073 0.0037 0.0095
O3 0.0363 0.0127 0.0169 0.0049 0.0025 0.0063
O4 0.0339 0.0314 0.0451 0.0261 0.0185 0.0191
O5 0.0565 0.0135 0.0209 0.0069 0.0034 0.0067
O6 0.0167(11) 0.0167(11) 0.0035(14) 0.000 0.000 0.0083(5)
Zn1N 0.01723 0.01722 0.01108 0.00018 -0.00018 0.01053
Zn1B 0.01723 0.01722 0.01108 0.00018 -0.00018 0.01053
Zn1A 0.01339(19) 0.01723(16) 0.01108(17) 0.00018(6) 0.00036(12) 0.00670(9)
Zn1CA 0.01339 0.01723 0.01108 0.00018 0.00036 0.0067
C4U 0.047 0.037 0.042 0.02 0.025 0.024
C6U 0.051 0.027 0.046 0.02 0.023 0.023
O2U 0.034 0.051 0.067 0.039 0.016 0.009
C13U 0.16 0.034 0.032 -0.002 -0.009 0.039
C14U 0.028 0.066 0.084 0.034 0.007 0.013
O4U 0.0271 0.0314 0.0451 0.0261 0.0076 0.0123
O4G 0.0314 0.0271 0.0451 -0.0076 -0.0261 0.0123
O4HA 0.0339 0.0271 0.0451 -0.0076 0.0185 0.0148
O5A 0.0135(12) 0.0566(14) 0.0209(12) -0.0035(5) -0.0069(9) 0.0068(6)
O5B 0.0566 0.0565 0.0209 -0.0034 0.0035 0.0498
loop_
_geom_bond_atom_site_label_1
_geom_bond_atom_site_label_2
_geom_bond_site_symmetry_1
_geom_bond_site_symmetry_2
Zn1 O3 1_555 1_555
C1 C2 1_555 1_555
C2 C4 1_555 1_555
Zn2 O5 1_555 1_555
C3 C1 1_555 1_555
H1 C3 1_555 1_555
C4 C6 1_555 1_555
C5 C3 1_555 1_555
H3 C5 1_555 1_555
C6 C8 1_555 1_555
C7 C5 1_555 1_555
C8 C16 1_555 1_555
C9 C7 1_555 1_555
H5 C9 1_555 1_555
C11 C1 1_555 1_555
O1 C11 1_555 1_555
O2 C4 1_555 1_555
C13 O1 1_555 1_555
C14 O2 1_555 1_555
H10 C14 1_555 1_555
H11 C14 1_555 1_555
H12 C14 1_555 1_555
C15 C7 1_555 1_555
C16 O4 1_555 1_555
O3 C15 1_555 1_555
O4 Zn1N 1_555 1_555
O5 C15 1_555 1_555
O6 Zn1 1_555 1_555
Zn1B O6 1_555 1_555
Zn1A O6 1_555 1_555
Zn1CA O4U 1_555 1_555
C4U C2 1_555 1_555
C6U C8 1_555 1_555
O2U C4U 1_555 1_555
C13U O1 1_555 1_555
C14U O2U 1_555 1_555
H10U C14U 1_555 1_555
H11U C14U 1_555 1_555
H12U C14U 1_555 1_555
O4U C16 1_555 1_555
O4G Zn1 1_555 1_555
O4HA Zn1 1_555 1_555
O5A Zn2 1_555 1_555
O5B Zn2 1_555 1_555
Zn2 O6 1_555 1_555
C9 C11 1_555 1_555
C13 C13U 1_555 1_555
C4U C6U 1_555 1_555

#END
