
#######################################################################
#
#                 Cambridge Crystallographic Data Centre
#                                CCDC 
#
#######################################################################
#
# If this CIF has been generated from an entry in the Cambridge 
# Structural Database, then it will include bibliographic, chemical, 
# crystal, experimental, refinement or atomic coordinate data resulting 
# from the CCDC's data processing and validation procedures.
#
#######################################################################

data_OGAGAF
_chemical_formula_moiety         '(C19 H22 N2 O8 P2 Zn2)n'
_symmetry_cell_setting           orthorhombic
_symmetry_space_group_name_H-M   'P 21 21 21'
_symmetry_Int_Tables_number      19
_space_group_name_Hall           'P 2ac 2ab'
loop_
_symmetry_equiv_pos_site_id
_symmetry_equiv_pos_as_xyz
1 x,y,z
2 1/2-x,-y,1/2+z
3 -x,1/2+y,1/2-z
4 1/2+x,1/2-y,-z
_cell_length_a                   9.6299(2)
_cell_length_b                   9.76980(10)
_cell_length_c                   24.5639(4)
_cell_angle_alpha                90
_cell_angle_beta                 90
_cell_angle_gamma                90
_cell_volume                     2311.03
loop_
_atom_site_label
_atom_site_type_symbol
_atom_site_fract_x
_atom_site_fract_y
_atom_site_fract_z
C1 C 0.2983(2) 0.0789(2) 0.92611(8)
H1 H 0.2501 0.151 0.9438
C2 C 0.2485(2) 0.0309(2) 0.87729(9)
H2 H 0.1679 0.0712 0.8618
C3 C 0.3141(2) -0.0748(2) 0.85046(8)
C4 C 0.4325(2) -0.1280(2) 0.87541(8)
H3 H 0.4822 -0.2007 0.8587
C5 C 0.4771(2) -0.0755(2) 0.92399(8)
H4 H 0.5576 -0.1138 0.9403
C6 C 0.2656(2) -0.1292(2) 0.79669(7)
H5 H 0.1647 -0.1126 0.793
H6 H 0.281 -0.2294 0.7956
C7 C 0.3411(2) -0.0628(2) 0.74894(8)
H7 H 0.4425 -0.0733 0.754
H8 H 0.3198 0.0363 0.7483
C8 C 0.2988(2) -0.1267(2) 0.69463(7)
H9 H 0.317 -0.2264 0.696
H10 H 0.1978 -0.1137 0.6893
C9 C 0.3745(2) -0.0669(2) 0.64669(8)
C10 C 0.3099(2) 0.0181(2) 0.60994(9)
H11 H 0.215 0.0415 0.6149
C11 C 0.3817(2) 0.0696(2) 0.56592(8)
H12 H 0.3346 0.1276 0.541
C12 C 0.5786(2) -0.0427(2) 0.59270(9)
H13 H 0.6734 -0.0653 0.5868
C13 C 0.5126(2) -0.0970(2) 0.63738(8)
H14 H 0.5618 -0.1549 0.6617
N1 N 0.41257(17) 0.02734(17) 0.94964(7)
N2 N 0.51625(18) 0.04007(16) 0.55722(6)
O1 O 0.39535(15) 0.24796(16) 1.05414(6)
O2 O 0.55725(15) -0.01771(14) 1.07331(6)
O3 O 0.17477(14) 0.30755(14) 1.00586(6)
O4 O 0.30834(15) 0.48949(14) 1.05686(6)
O5 O 0.70183(14) -0.20078(15) 1.02731(6)
O6 O 0.44865(14) -0.23743(15) 1.04490(7)
P1 P 0.27020(5) 0.33854(5) 1.05300(2)
H19 H 0.1983(11) 0.3097(4) 1.0980(7)
P2 P 0.58055(5) -0.17008(6) 1.06401(2)
H20 H 0.6099(5) -0.2233(8) 1.1115(7)
Zn1 Zn 0.49983(2) 0.11249(2) 1.016817(8)
Zn2 Zn 0.63126(2) 0.12070(2) 0.497180(9)
O3C O 0.67477(14) 0.19245(14) 0.99414(6)
O4B O 0.69166(15) -0.01051(14) 0.44314(6)
O5A O 0.79817(14) 0.20078(15) 0.52731(6)
O6B O 0.55135(14) 0.26257(15) 0.45510(7)
Zn1C Zn -0.00017(2) 0.38751(2) 0.983183(8)
Zn2B Zn 0.36874(2) 0.62070(2) 1.002820(9)
Zn2A Zn 0.86874(2) -0.12070(2) 0.997180(9)
Zn2B_2 Zn 0.36874(2) -0.37930(2) 1.002820(9)
C14 C 0.3215(2) 0.5716(2) 0.19462(8)
C15 C 0.3021(2) 0.6271(2) 0.24585(8)
H15 H 0.2439 0.7048 0.2503
C16 C 0.3672(2) 0.5699(2) 0.29059(8)
C17 C 0.4487(2) 0.4529(2) 0.28424(9)
H16 H 0.493 0.4123 0.3148
C18 C 0.4642(2) 0.3972(2) 0.23294(9)
H17 H 0.5192 0.3172 0.2286
C19 C 0.4018(2) 0.4546(2) 0.18782(9)
H18 H 0.4135 0.415 0.1528
O7 O 0.25906(16) 0.63590(17) 0.15197(6)
O8 O 0.35156(15) 0.63298(16) 0.33939(6)
H21 H 0.281(3) 0.589(3) 0.1204(11)
H22 H 0.395(3) 0.586(3) 0.3631(10)
loop_
_geom_bond_atom_site_label_1
_geom_bond_atom_site_label_2
_geom_bond_site_symmetry_1
_geom_bond_site_symmetry_2
C1 H1 1_555 1_555
C2 C1 1_555 1_555
H2 C2 1_555 1_555
C3 C2 1_555 1_555
C4 C3 1_555 1_555
H3 C4 1_555 1_555
C5 C4 1_555 1_555
H4 C5 1_555 1_555
C6 C3 1_555 1_555
H5 C6 1_555 1_555
H6 C6 1_555 1_555
C7 C6 1_555 1_555
H7 C7 1_555 1_555
H8 C7 1_555 1_555
C8 C7 1_555 1_555
H9 C8 1_555 1_555
H10 C8 1_555 1_555
C9 C8 1_555 1_555
C10 C9 1_555 1_555
H11 C10 1_555 1_555
C11 C10 1_555 1_555
H12 C11 1_555 1_555
C12 H13 1_555 1_555
C13 C9 1_555 1_555
H14 C13 1_555 1_555
C14 C15 1_555 1_555
C15 H15 1_555 1_555
C16 C15 1_555 1_555
C17 C16 1_555 1_555
H16 C17 1_555 1_555
C18 C17 1_555 1_555
H17 C18 1_555 1_555
C19 C14 1_555 1_555
H18 C19 1_555 1_555
N1 C1 1_555 1_555
N2 C11 1_555 1_555
O1 P1 1_555 1_555
O2 P2 1_555 1_555
O3 P1 1_555 1_555
O4 P1 1_555 1_555
O5 P2 1_555 1_555
O6 P2 1_555 1_555
O7 C14 1_555 1_555
O8 C16 1_555 1_555
P1 H19 1_555 1_555
P2 H20 1_555 1_555
Zn1 N1 1_555 1_555
Zn2 N2 1_555 1_555
H21 O7 1_555 1_555
H22 O8 1_555 1_555
O3C Zn1 1_555 1_555
O4B Zn2 1_555 1_555
O5A Zn2 1_555 1_555
O6B Zn2 1_555 1_555
Zn1C O3 1_555 1_555
Zn2B O4 1_555 1_555
Zn2A O5 1_555 1_555
Zn2B_2 O6 1_555 1_555
C5 N1 1_555 1_555
C12 C13 1_555 1_555
C12 N2 1_555 1_555
C18 C19 1_555 1_555
O1 Zn1 1_555 1_555
O2 Zn1 1_555 1_555

#END
