
#######################################################################
#
#                 Cambridge Crystallographic Data Centre
#                                CCDC 
#
#######################################################################
#
# If this CIF has been generated from an entry in the Cambridge 
# Structural Database, then it will include bibliographic, chemical, 
# crystal, experimental, refinement or atomic coordinate data resulting 
# from the CCDC's data processing and validation procedures.
#
#######################################################################

data_OGAGEJ
_chemical_formula_moiety         '(C25 H26 N4 O12 P2 Zn2)n'
_symmetry_cell_setting           monoclinic
_symmetry_space_group_name_H-M   'P 21/n'
_symmetry_Int_Tables_number      14
_space_group_name_Hall           '-P 2yn'
loop_
_symmetry_equiv_pos_site_id
_symmetry_equiv_pos_as_xyz
1 x,y,z
2 1/2-x,1/2+y,1/2-z
3 -x,-y,-z
4 1/2+x,1/2-y,1/2+z
_cell_length_a                   10.3340(9)
_cell_length_b                   28.4469(16)
_cell_length_c                   11.7505(11)
_cell_angle_alpha                90
_cell_angle_beta                 117.350(11)
_cell_angle_gamma                90
_cell_volume                     3068.16
loop_
_atom_site_label
_atom_site_type_symbol
_atom_site_fract_x
_atom_site_fract_y
_atom_site_fract_z
_atom_site_U_iso_or_equiv
_atom_site_thermal_displace_type
C1 C 0.56318(19) 0.85642(6) 0.90982(17) 0.0187 Uani
C2 C 0.5077(2) 0.81105(7) 0.90081(18) 0.0240 Uani
H1 H 0.4435 0.7984 0.8194 0.0290 Uiso
C3 C 0.5460(2) 0.78464(7) 1.01020(19) 0.0262 Uani
H2 H 0.5085 0.7538 1.0049 0.0310 Uiso
C4 C 0.6397(2) 0.80379(7) 1.12732(18) 0.0229 Uani
C5 C 0.6953(2) 0.84853(7) 1.13844(18) 0.0239 Uani
H3 H 0.7592 0.8609 1.2203 0.0290 Uiso
C6 C 0.65715(19) 0.87532(6) 1.02922(17) 0.0215 Uani
H4 H 0.6946 0.9062 1.0355 0.0260 Uiso
N1 N 0.68023(19) 0.77596(7) 1.24314(17) 0.0335 Uani
O1 O 0.52306(14) 0.88032(4) 0.79967(12) 0.0222 Uani
H23 H 0.5547 0.908 0.8164 0.0330 Uiso
O2 O 0.61800(18) 0.73872(6) 1.23529(16) 0.0516 Uani
O3 O 0.77606(19) 0.79153(6) 1.34523(15) 0.0491 Uani
C7 C 1.07893(18) 0.95508(6) 1.38773(17) 0.0189 Uani
C8 C 1.0242(2) 0.92331(7) 1.28591(17) 0.0217 Uani
H5 H 0.9578 0.9337 1.2024 0.0260 Uiso
C9 C 1.0663(2) 0.87691(7) 1.30638(17) 0.0231 Uani
H6 H 1.0299 0.8553 1.2371 0.0280 Uiso
C10 C 1.16187(19) 0.86196(6) 1.42856(18) 0.0206 Uani
C11 C 1.2156(2) 0.89268(7) 1.53176(18) 0.0225 Uani
H7 H 1.2797 0.8818 1.6154 0.0270 Uiso
C12 C 1.1740(2) 0.93936(7) 1.51057(17) 0.0231 Uani
H8 H 1.2105 0.9609 1.5802 0.0280 Uiso
N2 N 1.20977(18) 0.81306(6) 1.44916(16) 0.0270 Uani
O4 O 1.04564(14) 1.00103(4) 1.37445(12) 0.0241 Uani
H24 H 1.00000 1.0077 1.2962 0.0360 Uiso
O5 O 1.28832(16) 0.79972(5) 1.55878(14) 0.0356 Uani
O6 O 1.17094(19) 0.78706(5) 1.35600(15) 0.0434 Uani
C13 C 1.01210(18) 1.15833(6) 1.00183(16) 0.0156 Uani
H9 H 1.1035 1.1429 1.0327 0.0190 Uiso
C14 C 1.00724(19) 1.20599(6) 0.98273(16) 0.0168 Uani
H10 H 1.0939 1.2228 1.0006 0.0200 Uiso
C15 C 0.87439(19) 1.22965(6) 0.93693(17) 0.0182 Uani
C16 C 0.7522(2) 1.20268(6) 0.91281(19) 0.0230 Uani
H11 H 0.6593 1.2172 0.8807 0.0280 Uiso
C17 C 0.76538(19) 1.15487(6) 0.93527(18) 0.0216 Uani
H12 H 0.6806 1.1372 0.9192 0.0260 Uiso
C18 C 0.8692(2) 1.28203(6) 0.91621(19) 0.0237 Uani
H13 H 0.9186 1.2892 0.8633 0.0280 Uiso
H14 H 0.9256 1.2974 1.0004 0.0280 Uiso
C19 C 0.71825(19) 1.30379(6) 0.85226(17) 0.0185 Uani
H15 H 0.6706 1.2992 0.9078 0.0220 Uiso
H16 H 0.6588 1.2875 0.77 0.0220 Uiso
C20 C 0.7232(2) 1.35660(6) 0.82689(16) 0.0193 Uani
H17 H 0.6227 1.3682 0.7743 0.0230 Uiso
H18 H 0.7779 1.3614 0.7772 0.0230 Uiso
C21 C 0.79389(19) 1.38495(5) 0.94843(16) 0.0158 Uani
C22 C 0.94207(19) 1.39548(6) 1.00735(17) 0.0192 Uani
H19 H 1.0014 1.3849 0.9702 0.0230 Uiso
C23 C 1.00287(19) 1.42112(6) 1.11904(17) 0.0196 Uani
H20 H 1.1045 1.4274 1.1583 0.0240 Uiso
C24 C 0.78037(19) 1.42808(6) 1.11744(17) 0.0187 Uani
H21 H 0.7227 1.4399 1.1549 0.0220 Uiso
C25 C 0.71329(19) 1.40196(6) 1.00698(17) 0.0192 Uani
H22 H 0.6119 1.3956 0.9708 0.0230 Uiso
N3 N 0.89360(15) 1.13233(5) 0.97899(13) 0.0153 Uani
N4 N 0.92398(15) 1.43771(5) 1.17496(13) 0.0156 Uani
O7 O 0.61493(12) 1.05875(4) 0.98603(11) 0.0173 Uani
O8 O 0.87417(12) 1.04005(4) 1.14389(11) 0.0175 Uani
O9 O 0.80506(13) 1.02896(4) 0.84896(11) 0.0165 Uani
O10 O 0.61405(12) 0.96879(4) 0.81816(12) 0.0185 Uani
O11 O 0.87526(12) 0.94508(4) 0.93197(12) 0.0188 Uani
O12 O 0.67382(13) 1.00162(5) 1.17110(12) 0.0239 Uani
P1 P 0.71720(5) 1.045109(16) 1.12297(4) 0.0150 Uani
H25 H 0.71671(5) 1.0794(5) 1.1942(10) 0.0180 Uiso
P2 P 0.76622(5) 0.977129(15) 0.83037(4) 0.0145 Uani
H26 H 0.76158(8) 0.96546(17) 0.7273(15) 0.0170 Uiso
Zn1 Zn 0.91740(2) 1.062329(6) 1.007669(18) 0.0136 Uani
Zn2 Zn 1.00371(2) 1.477940(7) 1.334250(19) 0.0149 Uani
O7C O 1.11493(12) 1.44125(4) 1.48603(11) 0.0173 Uani
O10C O 1.11405(12) 1.53121(4) 1.31816(12) 0.0185 Uani
O11B O 1.12474(12) 1.05492(4) 1.06803(12) 0.0188 Uani
O12A O 0.82618(13) 1.50162(5) 1.32890(12) 0.0239 Uani
Zn1B Zn 1.08260(2) 0.937671(6) 0.992331(18) 0.0136 Uani
Zn2C Zn 0.50371(2) 1.022060(7) 0.834250(19) 0.0149 Uani
Zn2A Zn 0.49629(2) 0.977940(7) 1.165750(19) 0.0149 Uani
loop_
_atom_site_aniso_label
_atom_site_aniso_U_11
_atom_site_aniso_U_22
_atom_site_aniso_U_33
_atom_site_aniso_U_23
_atom_site_aniso_U_13
_atom_site_aniso_U_12
C1 0.0152(8) 0.0205(9) 0.0208(9) 0.0008(7) 0.0086(7) 0.0024(7)
C2 0.0247(10) 0.0234(9) 0.0206(10) -0.0033(8) 0.0075(8) -0.0067(8)
C3 0.0246(10) 0.0228(10) 0.0306(11) 0.0018(8) 0.0121(9) -0.0036(8)
C4 0.0175(9) 0.0310(10) 0.0209(10) 0.0058(8) 0.0093(8) 0.0048(8)
C5 0.0162(9) 0.0308(10) 0.0199(10) -0.0039(8) 0.0042(8) 0.0011(8)
C6 0.0164(9) 0.0197(9) 0.0256(10) -0.0032(7) 0.0072(8) -0.0010(7)
N1 0.0271(9) 0.0440(11) 0.0299(10) 0.0111(8) 0.0136(8) 0.0082(8)
O1 0.0233(7) 0.0173(6) 0.0225(7) 0.0006(5) 0.0075(6) -0.0036(5)
O2 0.0424(10) 0.0595(11) 0.0440(10) 0.0263(9) 0.0123(8) -0.0093(9)
O3 0.0521(11) 0.0549(11) 0.0244(9) 0.0063(8) 0.0039(8) 0.0082(9)
C7 0.0132(8) 0.0253(9) 0.0183(9) 0.0027(7) 0.0073(7) 0.0009(7)
C8 0.0163(9) 0.0311(10) 0.0148(9) 0.0017(7) 0.0047(7) -0.0051(7)
C9 0.0212(9) 0.0327(10) 0.0165(9) -0.0044(8) 0.0096(8) -0.0062(8)
C10 0.0181(9) 0.0220(9) 0.0242(10) -0.0012(7) 0.0118(8) -0.0002(7)
C11 0.0196(9) 0.0277(10) 0.0174(9) 0.0012(8) 0.0061(8) 0.0030(8)
C12 0.0222(9) 0.0261(10) 0.0164(9) -0.0024(8) 0.0050(8) 0.0020(8)
N2 0.0275(9) 0.0269(9) 0.0319(10) -0.0029(7) 0.0181(8) -0.0009(7)
O4 0.0228(7) 0.0251(7) 0.0180(7) 0.0028(5) 0.0039(6) 0.0035(6)
O5 0.0326(8) 0.0294(8) 0.0328(9) 0.0007(6) 0.0046(7) 0.0080(6)
O6 0.0720(12) 0.0287(8) 0.0338(9) -0.0088(7) 0.0280(9) -0.0011(8)
C13 0.0143(8) 0.0170(8) 0.0151(8) -0.0002(7) 0.0065(7) 0.0001(6)
C14 0.0173(9) 0.0151(8) 0.0167(9) -0.0010(7) 0.0067(7) -0.0031(7)
C15 0.0220(9) 0.0130(8) 0.0202(9) -0.0003(7) 0.0103(8) -0.0006(7)
C16 0.0170(9) 0.0171(9) 0.0341(11) 0.0026(8) 0.0110(8) 0.0030(7)
C17 0.0151(8) 0.0190(9) 0.0303(11) 0.0017(8) 0.0101(8) -0.0001(7)
C18 0.0244(10) 0.0125(8) 0.0337(11) 0.0013(8) 0.0130(9) -0.0010(7)
C19 0.0222(9) 0.0137(8) 0.0166(9) -0.0015(7) 0.0063(8) -0.0007(7)
C20 0.0253 0.0141 0.014 0.0001 0.0051 0.0015
C21 0.0212 0.0093 0.0139 0.0019 0.0054 0.0011
C22 0.0211 0.0193 0.0204 -0.0036 0.0124 0.0005
C23 0.0157 0.0198 0.0233 -0.0043 0.0089 -0.0006
C24 0.0156 0.0197 0.022 -0.004 0.0097 -0.0012
C25 0.0135 0.0182 0.0225 -0.0023 0.0053 -0.001
N3 0.0166(7) 0.0129(7) 0.0170(7) 0.0004(6) 0.0082(6) 0.0002(6)
N4 0.0142 0.0158 0.0163 -0.0007 0.0066 0.0001
O7 0.0160(6) 0.0176(6) 0.0163(6) 0.0024(5) 0.0058(5) 0.0023(5)
O8 0.0121(6) 0.0213(6) 0.0182(6) 0.0043(5) 0.0063(5) 0.0001(5)
O9 0.0170(6) 0.0139(6) 0.0181(6) -0.0014(5) 0.0077(5) -0.0022(5)
O10 0.0128(6) 0.0151(6) 0.0250(7) 0.0008(5) 0.0065(5) -0.0001(5)
O11 0.0134(6) 0.0149(6) 0.0287(7) 0.0042(5) 0.0103(5) 0.0019(5)
O12 0.0134 0.0303 0.0273 0.0121 0.0087 0.0006
P1 0.0123(2) 0.0176(2) 0.0150(2) 0.00146(17) 0.00620(18) 0.00080(17)
P2 0.0130(2) 0.0133(2) 0.0172(2) -0.00147(17) 0.00691(18) -0.00106(16)
Zn1 0.01189(9) 0.01111(9) 0.01755(10) 0.00125(8) 0.00654(8) 0.00021(7)
Zn2 0.0114 0.01683 0.0155 -0.00411 0.00534 -0.00078
O7C 0.016 0.0176 0.0163 -0.0024 0.0058 -0.0023
O10C 0.0128 0.0151 0.025 -0.0008 0.0065 0.0001
O11B 0.0134 0.0149 0.0287 0.0042 0.0103 0.0019
O12A 0.0134 0.0303 0.0273 -0.0121 0.0087 -0.0006
Zn1B 0.01189 0.01111 0.01755 0.00125 0.00654 0.00021
Zn2C 0.01140(9) 0.01683(10) 0.01550(10) 0.00411(8) 0.00534(8) 0.00078(8)
Zn2A 0.0114 0.01683 0.0155 0.00411 0.00534 0.00078
loop_
_geom_bond_atom_site_label_1
_geom_bond_atom_site_label_2
_geom_bond_site_symmetry_1
_geom_bond_site_symmetry_2
C1 C2 1_555 1_555
C2 H1 1_555 1_555
C3 C2 1_555 1_555
H2 C3 1_555 1_555
C4 C3 1_555 1_555
C5 C4 1_555 1_555
H3 C5 1_555 1_555
C6 C1 1_555 1_555
H4 C6 1_555 1_555
C7 C8 1_555 1_555
C8 H5 1_555 1_555
C9 C8 1_555 1_555
H6 C9 1_555 1_555
C10 C9 1_555 1_555
C11 C10 1_555 1_555
H7 C11 1_555 1_555
C12 C7 1_555 1_555
H8 C12 1_555 1_555
C13 H9 1_555 1_555
C14 C13 1_555 1_555
H10 C14 1_555 1_555
C15 C14 1_555 1_555
C16 C15 1_555 1_555
H11 C16 1_555 1_555
C17 C16 1_555 1_555
H12 C17 1_555 1_555
C18 C15 1_555 1_555
H13 C18 1_555 1_555
H14 C18 1_555 1_555
C19 C18 1_555 1_555
H15 C19 1_555 1_555
H16 C19 1_555 1_555
C20 C19 1_555 1_555
H17 C20 1_555 1_555
H18 C20 1_555 1_555
C21 C20 1_555 1_555
C22 C21 1_555 1_555
H19 C22 1_555 1_555
C23 C22 1_555 1_555
H20 C23 1_555 1_555
C24 H21 1_555 1_555
C25 C21 1_555 1_555
H22 C25 1_555 1_555
N1 C4 1_555 1_555
N2 C10 1_555 1_555
N3 C13 1_555 1_555
N4 C23 1_555 1_555
O1 C1 1_555 1_555
H23 O1 1_555 1_555
O2 N1 1_555 1_555
O3 N1 1_555 1_555
O4 C7 1_555 1_555
H24 O4 1_555 1_555
O5 N2 1_555 1_555
O6 N2 1_555 1_555
O7 P1 1_555 1_555
O8 P1 1_555 1_555
O9 P2 1_555 1_555
O10 P2 1_555 1_555
O11 P2 1_555 1_555
O12 P1 1_555 1_555
P1 H25 1_555 1_555
P2 H26 1_555 1_555
Zn1 N3 1_555 1_555
Zn2 N4 1_555 1_555
O7C Zn2 1_555 1_555
O10C Zn2 1_555 1_555
O11B Zn1 1_555 1_555
O12A Zn2 1_555 1_555
Zn1B O11 1_555 1_555
Zn2C O7 1_555 1_555
Zn2A O12 1_555 1_555
C5 C6 1_555 1_555
C11 C12 1_555 1_555
C17 N3 1_555 1_555
C24 C25 1_555 1_555
C24 N4 1_555 1_555
O8 Zn1 1_555 1_555
O9 Zn1 1_555 1_555
O10 Zn2C 1_555 1_555

#END
