
#######################################################################
#
#                 Cambridge Crystallographic Data Centre
#                                CCDC 
#
#######################################################################
#
# If this CIF has been generated from an entry in the Cambridge 
# Structural Database, then it will include bibliographic, chemical, 
# crystal, experimental, refinement or atomic coordinate data resulting 
# from the CCDC's data processing and validation procedures.
#
#######################################################################

data_BAKFAV
_chemical_formula_moiety         '(C2 H18 N6 O13 P4 Zn3)n'
_symmetry_cell_setting           triclinic
_symmetry_space_group_name_H-M   'P -1'
_symmetry_Int_Tables_number      2
_space_group_name_Hall           '-P 1'
loop_
_symmetry_equiv_pos_site_id
_symmetry_equiv_pos_as_xyz
1 x,y,z
2 -x,-y,-z
_cell_length_a                   7.5121(3)
_cell_length_b                   8.9927(4)
_cell_length_c                   15.1530(6)
_cell_angle_alpha                90.2560(10)
_cell_angle_beta                 93.3910(10)
_cell_angle_gamma                111.0910(10)
_cell_volume                     953.036
loop_
_atom_site_label
_atom_site_type_symbol
_atom_site_fract_x
_atom_site_fract_y
_atom_site_fract_z
Zn1 Zn 0.71013(5) 0.55275(4) 0.39358(3)
Zn2 Zn 1.05751(5) 0.20090(4) 0.25163(2)
Zn3 Zn 0.65745(5) 0.58168(4) 0.12443(2)
P1 P 0.68142(12) 0.28896(10) 0.24210(6)
H1 H 0.4974 0.2011 0.2381
P2 P 0.94959(11) 0.81271(9) 0.26678(6)
H2 H 1.0636 0.7497 0.2314
P3 P 0.73099(11) 0.50873(10) 0.60678(6)
H3 H 0.8346 0.4335 0.6459
P4 P 1.21545(12) 0.39577(10) 0.07689(6)
H4 H 1.0645 0.4384 0.0743
O1 O 0.7276(4) 0.3718(3) 0.33167(19)
O2 O 0.7119(5) 0.3978(4) 0.16459(19)
O3 O 0.7876(4) 0.1738(3) 0.23301(17)
O4 O 1.0583(4) 0.9897(3) 0.27443(19)
O5 O 0.9133(4) 0.7442(3) 0.35820(17)
O6 O 0.7693(4) 0.7665(3) 0.20520(17)
O7 O 0.7816(5) 0.6650(4) 0.6564(2)
O8 O 0.7882(5) 0.5329(6) 0.5145(2)
O9 O 0.5231(4) 0.4021(3) 0.6133(3)
O10 O 1.1763(4) 0.2593(3) 0.13988(18)
O11 O 1.2274(5) 0.3365(3) -0.01533(19)
O12 O 1.3859(4) 0.5420(3) 0.1071(2)
O9A O 0.4769(4) 0.5979(3) 0.3867(3)
O4_2 O 1.0583(4) -0.0103(3) 0.27443(19)
O7A O 1.2184(5) 0.3350(4) 0.3436(2)
O11A O 0.7726(5) 0.6635(3) 0.01533(19)
O12_2 O 0.3859(4) 0.5420(3) 0.1071(2)
Zn2_2 Zn 1.05751(5) 1.20090(4) 0.25163(2)
Zn2A Zn 0.94249(5) 0.79910(4) 0.74837(2)
Zn1A Zn 0.28987(5) 0.44725(4) 0.60642(3)
Zn3A Zn 1.34255(5) 0.41832(4) -0.12443(2)
Zn3_2 Zn 1.65745(5) 0.58168(4) 0.12443(2)
O13 O 0.4333(5) 0.8266(4) 0.2239(2)
C1 C 0.2640(5) 0.9286(4) 0.0146(2)
N1 N 0.3001(5) 0.7963(4) 0.0013(2)
H5 H 0.3346 0.7440 0.0500
H6 H 0.2915 0.7540 -0.0571
N2 N 0.2183(5) 1.0026(4) -0.0536(2)
H7 H 0.1941 1.0979 -0.0441
H8 H 0.2096 0.9603 -0.1119
N3 N 0.2759(5) 0.9874(4) 0.0953(2)
H9 H 0.2517 1.0828 0.1047
H10 H 0.3087 0.9345 0.1442
C2 C 0.7325(5) 0.0161(4) 0.4737(2)
N4 N 0.7577(7) -0.0725(5) 0.5386(3)
H11 H 0.8371 -0.0238 0.5897
H12 H 0.6964 -0.1851 0.5343
N5 N 0.6200(5) -0.0524(4) 0.4026(3)
H13 H 0.6007 0.0112 0.3558
H14 H 0.5590 -0.1651 0.3985
N6 N 0.8171(5) 0.1719(4) 0.4795(3)
H15 H 0.8966 0.2208 0.5306
H16 H 0.7988 0.2358 0.4326
loop_
_geom_bond_atom_site_label_1
_geom_bond_atom_site_label_2
_geom_bond_site_symmetry_1
_geom_bond_site_symmetry_2
Zn1 O1 1_555 1_555
Zn2 O3 1_555 1_555
Zn3 O2 1_555 1_555
P1 H1 1_555 1_555
P2 H2 1_555 1_555
P3 H3 1_555 1_555
P4 H4 1_555 1_555
O1 P1 1_555 1_555
O2 P1 1_555 1_555
O3 P1 1_555 1_555
O4 P2 1_555 1_555
O5 Zn1 1_555 1_555
O6 Zn3 1_555 1_555
O7 P3 1_555 1_555
O8 Zn1 1_555 1_555
O9 P3 1_555 1_555
O10 Zn2 1_555 1_555
O11 P4 1_555 1_555
O12 P4 1_555 1_555
C1 N1 1_555 1_555
N1 H5 1_555 1_555
H6 N1 1_555 1_555
N2 C1 1_555 1_555
H7 N2 1_555 1_555
H8 N2 1_555 1_555
N3 C1 1_555 1_555
H9 N3 1_555 1_555
H10 N3 1_555 1_555
C2 N4 1_555 1_555
N4 H11 1_555 1_555
H12 N4 1_555 1_555
N5 C2 1_555 1_555
H13 N5 1_555 1_555
H14 N5 1_555 1_555
N6 C2 1_555 1_555
H15 N6 1_555 1_555
H16 N6 1_555 1_555
O9A Zn1 1_555 1_555
O4_2 Zn2 1_555 1_555
O7A Zn2 1_555 1_555
O11A Zn3 1_555 1_555
O12_2 Zn3 1_555 1_555
Zn2_2 O4 1_555 1_555
Zn2A O7 1_555 1_555
Zn1A O9 1_555 1_555
Zn3A O11 1_555 1_555
Zn3_2 O12 1_555 1_555
P2 O5 1_555 1_555
P2 O6 1_555 1_555
P3 O8 1_555 1_555
P4 O10 1_555 1_555

#END
