
#######################################################################
#
#                 Cambridge Crystallographic Data Centre
#                                CCDC 
#
#######################################################################
#
# If this CIF has been generated from an entry in the Cambridge 
# Structural Database, then it will include bibliographic, chemical, 
# crystal, experimental, refinement or atomic coordinate data resulting 
# from the CCDC's data processing and validation procedures.
#
#######################################################################

data_CAHQAG
_chemical_formula_moiety         '(C39 H40 Mn2 N4 O16)n'
_symmetry_cell_setting           triclinic
_symmetry_space_group_name_H-M   'P -1'
_symmetry_Int_Tables_number      2
_space_group_name_Hall           '-P 1'
loop_
_symmetry_equiv_pos_site_id
_symmetry_equiv_pos_as_xyz
1 x,y,z
2 -x,-y,-z
_cell_length_a                   10.2909(9)
_cell_length_b                   10.6550(10)
_cell_length_c                   11.4221(11)
_cell_angle_alpha                79.594(2)
_cell_angle_beta                 75.334(2)
_cell_angle_gamma                61.9060(10)
_cell_volume                     1066.09
loop_
_atom_site_label
_atom_site_type_symbol
_atom_site_fract_x
_atom_site_fract_y
_atom_site_fract_z
Mn1 Mn 0.55889(8) 0.35795(8) 0.19134(7)
N1 N 0.3533(5) 0.3329(5) 0.2749(4)
N2 N -0.0105(5) 0.1359(6) 0.4987(5)
O1 O 0.5174(4) 0.3489(3) 0.0169(3)
O2 O 0.5469(4) 0.4188(3) -0.1785(3)
O3 O 1.1926(4) -0.2697(3) -0.1348(3)
O4 O 1.2887(4) -0.1213(4) -0.2136(3)
O5 O -0.1540(5) 0.3624(5) 0.4328(5)
O6 O 0.5843(4) 0.3782(5) 0.3738(3)
H1 H 0.5453 0.3511 0.4422
H2 H 0.6647 0.3774 0.3814
C1 C 0.4971(5) 0.1008(5) -0.0943(4)
H3 H 0.4945 0.1687 -0.1587
C2 C 0.6223(5) 0.0326(4) -0.0391(4)
C3 C 0.6218(5) -0.0690(5) 0.0550(4)
H4 H 0.7045 -0.1170 0.0926
C4 C 0.5881(5) 0.3331(5) -0.0897(4)
C5 C 1.1769(5) -0.1452(5) -0.1674(4)
C6 C 0.7373(5) 0.2036(5) -0.1143(4)
C7 C 0.7537(5) 0.0651(5) -0.0841(4)
C8 C 0.8987(5) -0.0467(5) -0.1016(4)
H5 H 0.9117 -0.1397 -0.0804
C9 C 1.0234(5) -0.0232(5) -0.1497(4)
C10 C 1.0053(5) 0.1152(5) -0.1826(4)
H6 H 1.0882 0.1325 -0.2157
C11 C 0.8621(5) 0.2268(5) -0.1655(4)
H7 H 0.8492 0.3196 -0.1889
C12 C 0.264(3) 0.393(2) 0.380(3)
H8 H 0.2846 0.4541 0.4127
C13 C 0.146(2) 0.367(2) 0.4391(18)
H9 H 0.0909 0.4042 0.5136
C14 C 0.1066(7) 0.2810(6) 0.3829(5)
C15 C 0.2029(18) 0.218(2) 0.2839(11)
H10 H 0.1879 0.1541 0.2496
C16 C 0.3229(18) 0.246(2) 0.2320(11)
H11 H 0.3863 0.2000 0.1628
C17 C -0.0288(7) 0.2607(8) 0.4406(6)
C18 C -0.1383(7) 0.1070(7) 0.5581(6)
H12 H -0.2314 0.1929 0.5531
H13 H -0.1343 0.0774 0.6430
C19 C 0.1333(7) 0.0071(7) 0.5026(6)
H14 H 0.1437 -0.0250 0.5862
H15 H 0.2159 0.0290 0.4621
N1A N -0.3533(5) -0.3329(5) 0.7251(4)
N2A N 0.0105(5) -0.1359(6) 0.5013(5)
O5A O 0.1540(5) -0.3624(5) 0.5672(5)
C12A C -0.264(3) -0.393(2) 0.620(3)
H8A H -0.2846 -0.4541 0.5873
C13A C -0.146(2) -0.367(2) 0.5609(18)
H9A H -0.0909 -0.4042 0.4864
C14A C -0.1066(7) -0.2810(6) 0.6171(5)
C15A C -0.2029(18) -0.218(2) 0.7161(11)
H10A H -0.1879 -0.1541 0.7504
C16A C -0.3229(18) -0.246(2) 0.7680(11)
H11A H -0.3863 -0.2000 0.8372
C17A C 0.0288(7) -0.2607(8) 0.5594(6)
C18A C 0.1383(7) -0.1070(7) 0.4419(6)
H12A H 0.2314 -0.1929 0.4469
H13A H 0.1343 -0.0774 0.3570
C19A C -0.1333(7) -0.0071(7) 0.4974(6)
H14A H -0.1437 0.0250 0.4138
H15A H -0.2159 -0.0290 0.5379
O1A O 0.4826(4) -0.3489(3) -0.0169(3)
O2A O 0.4531(4) -0.4188(3) 0.1785(3)
O3A O -0.1926(4) 0.2697(3) 0.1348(3)
O4A O -0.2887(4) 0.1213(4) 0.2136(3)
C1A C 0.5029(5) -0.1008(5) 0.0943(4)
H3A H 0.5055 -0.1687 0.1587
C2A C 0.3777(5) -0.0326(4) 0.0391(4)
C3A C 0.3782(5) 0.0690(5) -0.0550(4)
H4A H 0.2955 0.1170 -0.0926
C4A C 0.4119(5) -0.3331(5) 0.0897(4)
C5A C -0.1769(5) 0.1452(5) 0.1674(4)
C6A C 0.2627(5) -0.2036(5) 0.1143(4)
C7A C 0.2463(5) -0.0651(5) 0.0841(4)
C8A C 0.1013(5) 0.0467(5) 0.1016(4)
H5A H 0.0883 0.1397 0.0804
C9A C -0.0234(5) 0.0232(5) 0.1497(4)
C10A C -0.0053(5) -0.1152(5) 0.1826(4)
H6A H -0.0882 -0.1325 0.2157
C11A C 0.1379(5) -0.2268(5) 0.1655(4)
H7A H 0.1508 -0.3196 0.1889
Mn1A Mn -0.55889(8) -0.35795(8) 0.80866(7)
O6A O -0.5843(4) -0.3782(5) 0.6262(3)
H1A H -0.5453 -0.3511 0.5578
H2A H -0.6647 -0.3774 0.6186
Mn1_2 Mn -0.44111(8) 0.35795(8) 0.19134(7)
Mn1_3 Mn 0.55889(8) -0.64205(8) 0.19134(7)
Mn1A_2 Mn 0.44111(8) -0.35795(8) -0.19134(7)
Mn1A_3 Mn 0.44111(8) 0.64205(8) -0.19134(7)
Mn1A_4 Mn 1.44111(8) -0.35795(8) -0.19134(7)
O1A_2 O -0.5174(4) -0.3489(3) 0.9831(3)
O2_2 O -0.4531(4) -0.5812(3) 0.8215(3)
O2A_2 O 0.4531(4) 0.5812(3) 0.1785(3)
O3_2 O -0.8074(4) -0.2697(3) 0.8652(3)
O3A_2 O 0.8074(4) 0.2697(3) 0.1348(3)
O4_2 O -0.7113(4) -0.1213(4) 0.7864(3)
O4A_2 O 0.7113(4) 0.1213(4) 0.2136(3)
O7 O 0.4930(8) 0.2894(8) 0.6051(6)
H20 H 0.4963 0.2103 0.5966
H21 H 0.4060 0.3406 0.6440
O8 O 0.4145(8) 0.0514(8) 0.6151(6)
H22 H 0.3817 -0.0045 0.6598
H23 H 0.4640 0.0144 0.5482
O9 O 0.7948(8) 0.6172(8) 0.2700(8)
H24 H 0.8270 0.5317 0.3009
H25 H 0.7284 0.6709 0.3242
O10 O 0.1964(12) 0.4772(11) 0.9851(12)
H26 H 0.2238 0.5403 0.9661
C24 C 0.1011(16) 0.5026(16) 0.9371(14)
H27 H 0.1039 0.4154 0.9225
H28 H 0.1127 0.5559 0.8612
H29 H 0.0066 0.5580 0.9872
loop_
_geom_bond_atom_site_label_1
_geom_bond_atom_site_label_2
_geom_bond_site_symmetry_1
_geom_bond_site_symmetry_2
Mn1 N1 1_555 1_555
N1 C12 1_555 1_555
N2 C17 1_555 1_555
O1 Mn1 1_555 1_555
O2 C4 1_555 1_555
O3 C5 1_555 1_555
O4 C5 1_555 1_555
O5 C17 1_555 1_555
O6 Mn1 1_555 1_555
H1 O6 1_555 1_555
H2 O6 1_555 1_555
C1 H3 1_555 1_555
C2 C1 1_555 1_555
C3 C2 1_555 1_555
H4 C3 1_555 1_555
C4 O1 1_555 1_555
C5 C9 1_555 1_555
C6 C4 1_555 1_555
C7 C2 1_555 1_555
C8 C7 1_555 1_555
H5 C8 1_555 1_555
C9 C8 1_555 1_555
C10 C9 1_555 1_555
H6 C10 1_555 1_555
C11 C6 1_555 1_555
H7 C11 1_555 1_555
C12 H8 1_555 1_555
C13 C12 1_555 1_555
H9 C13 1_555 1_555
C14 C13 1_555 1_555
C15 C14 1_555 1_555
H10 C15 1_555 1_555
C16 N1 1_555 1_555
H11 C16 1_555 1_555
C17 C14 1_555 1_555
C18 N2 1_555 1_555
H12 C18 1_555 1_555
H13 C18 1_555 1_555
C19 N2 1_555 1_555
H14 C19 1_555 1_555
H15 C19 1_555 1_555
O7 H20 1_555 1_555
H21 O7 1_555 1_555
O8 H22 1_555 1_555
H23 O8 1_555 1_555
O9 H24 1_555 1_555
H25 O9 1_555 1_555
O10 H26 1_555 1_555
C24 O10 1_555 1_555
H27 C24 1_555 1_555
H28 C24 1_555 1_555
H29 C24 1_555 1_555
N1A C12A 1_555 1_555
N2A C17A 1_555 1_555
O5A C17A 1_555 1_555
C12A H8A 1_555 1_555
C13A C12A 1_555 1_555
H9A C13A 1_555 1_555
C14A C13A 1_555 1_555
C15A C14A 1_555 1_555
H10A C15A 1_555 1_555
C16A N1A 1_555 1_555
H11A C16A 1_555 1_555
C17A C14A 1_555 1_555
C18A C19 1_555 1_555
H12A C18A 1_555 1_555
H13A C18A 1_555 1_555
C19A C18 1_555 1_555
H14A C19A 1_555 1_555
H15A C19A 1_555 1_555
O1A C4A 1_555 1_555
O2A C4A 1_555 1_555
O3A C5A 1_555 1_555
O4A C5A 1_555 1_555
C1A C3 1_555 1_555
H3A C1A 1_555 1_555
C2A C1A 1_555 1_555
C3A C1 1_555 1_555
H4A C3A 1_555 1_555
C4A C6A 1_555 1_555
C5A C9A 1_555 1_555
C6A C7A 1_555 1_555
C7A C2A 1_555 1_555
C8A C7A 1_555 1_555
H5A C8A 1_555 1_555
C9A C8A 1_555 1_555
C10A C9A 1_555 1_555
H6A C10A 1_555 1_555
C11A C6A 1_555 1_555
H7A C11A 1_555 1_555
Mn1A N1A 1_555 1_555
O6A Mn1A 1_555 1_555
H1A O6A 1_555 1_555
H2A O6A 1_555 1_555
Mn1_2 O3A 1_555 1_555
Mn1_3 O2A 1_555 1_555
Mn1A_2 O1A 1_555 1_555
Mn1A_3 O2 1_555 1_555
Mn1A_4 O3 1_555 1_555
O1A_2 Mn1A 1_555 1_555
O2_2 Mn1A 1_555 1_555
O2A_2 Mn1 1_555 1_555
O3_2 Mn1A 1_555 1_555
O3A_2 Mn1 1_555 1_555
O4_2 Mn1A 1_555 1_555
O4A_2 Mn1 1_555 1_555
O4 Mn1A_4 1_555 1_555
C6 C7 1_555 1_555
C10 C11 1_555 1_555
C15 C16 1_555 1_555
N2A C18A 1_555 1_555
N2A C19A 1_555 1_555
C15A C16A 1_555 1_555
O4A Mn1_2 1_555 1_555
C2A C3A 1_555 1_555
C10A C11A 1_555 1_555

#END
