
#######################################################################
#
#                 Cambridge Crystallographic Data Centre
#                                CCDC 
#
#######################################################################
#
# If this CIF has been generated from an entry in the Cambridge 
# Structural Database, then it will include bibliographic, chemical, 
# crystal, experimental, refinement or atomic coordinate data resulting 
# from the CCDC's data processing and validation procedures.
#
#######################################################################

data_QIYBUX
_chemical_formula_moiety         '(C54 H72 Ag2 F12 N8 O2 P2 Si4)n'
_symmetry_cell_setting           orthorhombic
_symmetry_space_group_name_H-M   'P 21 21 21'
_symmetry_Int_Tables_number      19
_space_group_name_Hall           'P 2ac 2ab'
loop_
_symmetry_equiv_pos_site_id
_symmetry_equiv_pos_as_xyz
1 x,y,z
2 1/2-x,-y,1/2+z
3 -x,1/2+y,1/2-z
4 1/2+x,1/2-y,-z
_cell_length_a                   17.6352(2)
_cell_length_b                   18.5555(2)
_cell_length_c                   20.3311(3)
_cell_angle_alpha                90
_cell_angle_beta                 90
_cell_angle_gamma                90
_cell_volume                     6652.94
loop_
_atom_site_label
_atom_site_type_symbol
_atom_site_fract_x
_atom_site_fract_y
_atom_site_fract_z
_atom_site_U_iso_or_equiv
_atom_site_thermal_displace_type
Ag1 Ag 0.32277(2) -0.12595(2) -1.14778(2) 0.0442 Uani
Si1 Si 0.46335(11) -0.32016(9) -1.41824(9) 0.0515 Uani
Si2 Si -0.07150(9) -0.17416(9) -1.13395(8) 0.0422 Uani
N1 N 0.3623(3) -0.1980(3) -1.2357(2) 0.0473 Uani
N2 N 0.6072(3) -0.5236(2) -1.3574(2) 0.0410 Uani
N3 N 0.1931(2) -0.1366(2) -1.1394(2) 0.0427 Uani
N4 N -0.1368(3) -0.3037(3) -0.9438(2) 0.0473 Uani
C1 C 0.5355(4) -0.5279(3) -1.3754(3) 0.0543 Uani
H1 H 0.5127 -0.5743 -1.3767 0.0650 Uiso
C2 C 0.4912(4) -0.4692(4) -1.3926(3) 0.0593 Uani
H2 H 0.4399 -0.4759 -1.4053 0.0710 Uiso
C3 C 0.5218(4) -0.4012(3) -1.3910(3) 0.0453 Uani
C4 C 0.5949(4) -0.3961(3) -1.3721(4) 0.0567 Uani
H3 H 0.6186 -0.3501 -1.3705 0.0680 Uiso
C5 C 0.6361(3) -0.4572(3) -1.3549(3) 0.0557 Uani
H4 H 0.6871 -0.4514 -1.3408 0.0670 Uiso
C6 C 0.3875(5) -0.3490(4) -1.4763(4) 0.0813 Uani
H5 H 0.3581 -0.3892 -1.4569 0.0970 Uiso
H6 H 0.3523 -0.3084 -1.4845 0.0970 Uiso
C7 C 0.4244(6) -0.3739(5) -1.5427(4) 0.1170 Uani
H7 H 0.3845 -0.3893 -1.5732 0.1400 Uiso
H8 H 0.4590 -0.4142 -1.5343 0.1400 Uiso
H9 H 0.4527 -0.3337 -1.5621 0.1400 Uiso
C8 C 0.5289(5) -0.2533(4) -1.4560(4) 0.0840 Uani
H10 H 0.4999 -0.2111 -1.4705 0.1010 Uiso
H11 H 0.5544 -0.2752 -1.4939 0.1010 Uiso
H12 H 0.5668 -0.2385 -1.4235 0.1010 Uiso
C9 C 0.4213(3) -0.2763(3) -1.3437(3) 0.0407 Uani
C10 C 0.3550(3) -0.2368(3) -1.3472(3) 0.0533 Uani
H13 H 0.3277 -0.2354 -1.3874 0.0640 Uiso
C11 C 0.3278(4) -0.1996(3) -1.2934(3) 0.0533 Uani
H14 H 0.2817 -0.1736 -1.2981 0.0640 Uiso
C12 C 0.4268(4) -0.2361(4) -1.2317(3) 0.0663 Uani
H15 H 0.4529 -0.2370 -1.1909 0.0800 Uiso
C13 C 0.4569(4) -0.2738(4) -1.2831(3) 0.0620 Uani
H16 H 0.5034 -0.2988 -1.2771 0.0750 Uiso
C14 C 0.1624(3) -0.2022(3) -1.1420(3) 0.0420 Uani
H17 H 0.1955 -0.2424 -1.1450 0.0500 Uiso
C15 C 0.0854(3) -0.2152(3) -1.1406(3) 0.0423 Uani
H18 H 0.0671 -0.2633 -1.1430 0.0510 Uiso
C16 C 0.0341(3) -0.1576(3) -1.1356(2) 0.0377 Uani
C17 C 0.0670(3) -0.0898(3) -1.1310(3) 0.0403 Uani
H19 H 0.0356 -0.0486 -1.1259 0.0480 Uiso
C18 C 0.1439(3) -0.0815(3) -1.1336(3) 0.0487 Uani
H20 H 0.1638 -0.0340 -1.1311 0.0580 Uiso
C19 C -0.0986(5) -0.2293(5) -1.2059(3) 0.0723 Uani
H21 H -0.0605 -0.2679 -1.2121 0.0870 Uiso
H22 H -0.1480 -0.2526 -1.1971 0.0870 Uiso
C20 C -0.1046(7) -0.1855(8) -1.2695(5) 0.1470 Uani
H23 H -0.1189 -0.2174 -1.3059 0.1760 Uiso
H24 H -0.0555 -0.1630 -1.2791 0.1760 Uiso
H25 H -0.1432 -0.1479 -1.2642 0.1760 Uiso
C21 C -0.1234(4) -0.0866(4) -1.1328(4) 0.0793 Uani
H26 H -0.1118 -0.0595 -1.1730 0.0950 Uiso
H27 H -0.1076 -0.0585 -1.0943 0.0950 Uiso
H28 H -0.1781 -0.0957 -1.1305 0.0950 Uiso
C22 C -0.0944(3) -0.2257(3) -1.0568(3) 0.0387 Uani
C23 C -0.0430(3) -0.2539(3) -1.0148(3) 0.0490 Uani
H29 H 0.0095 -0.2484 -1.0240 0.0590 Uiso
C24 C -0.0647(4) -0.2904(3) -0.9587(3) 0.0503 Uani
H30 H -0.0264 -0.3069 -0.9294 0.0600 Uiso
C25 C -0.1866(4) -0.2775(4) -0.9851(4) 0.0650 Uani
H31 H -0.2385 -0.2852 -0.9751 0.0780 Uiso
C26 C -0.1705(4) -0.2398(3) -1.0415(3) 0.0567 Uani
H32 H -0.2101 -0.2237 -1.0695 0.0680 Uiso
Ag1B Ag 0.67723(2) -0.62595(2) -1.35222(2) 0.0442 Uani
Ag1C Ag -0.17723(2) -0.37405(2) -0.85222(2) 0.0442 Uani
N2B N 0.3928(3) -0.0236(2) -1.1426(2) 0.0410 Uani
N4C N 0.3632(3) -0.1963(3) -1.0562(2) 0.0473 Uani
Ag2 Ag -0.16212(3) -0.88011(2) -0.15445(2) 0.0490 Uani
Si3 Si -0.13904(11) -0.50231(9) -0.14040(11) 0.0624 Uani
Si4 Si -0.46438(10) -0.97594(10) -0.35886(9) 0.0542 Uani
N5 N -0.1387(3) -0.7559(2) -0.1405(2) 0.0417 Uani
N6 N 0.0608(3) -0.4112(3) -0.2710(2) 0.0463 Uani
N7 N -0.2623(3) -0.9148(3) -0.2173(2) 0.0467 Uani
N8 N -0.3663(3) -1.0822(3) -0.5501(2) 0.0460 Uani
C27 C -0.1682(3) -0.7179(3) -0.0908(3) 0.0450 Uani
H33 H -0.1907 -0.7433 -0.0552 0.0540 Uiso
C28 C -0.1676(3) -0.6434(3) -0.0887(3) 0.0440 Uani
H34 H -0.1903 -0.6191 -0.0526 0.0530 Uiso
C29 C -0.1340(3) -0.6039(3) -0.1389(3) 0.0420 Uani
C30 C -0.1020(4) -0.6439(3) -0.1892(3) 0.0527 Uani
H35 H -0.0776 -0.6197 -0.2245 0.0630 Uiso
C31 C -0.1051(4) -0.7189(4) -0.1891(3) 0.0553 Uani
H36 H -0.0826 -0.7446 -0.2244 0.0660 Uiso
C32 C -0.2353(5) -0.4827(4) -0.1824(7) 0.1263 Uani
H37 H -0.2326 -0.4979 -0.2291 0.1520 Uiso
H38 H -0.2753 -0.5116 -0.1607 0.1520 Uiso
C33 C -0.2572(7) -0.4017(8) -0.1793(8) 0.1747 Uani
H39 H -0.3060 -0.3944 -0.2012 0.2100 Uiso
H40 H -0.2182 -0.3729 -0.2013 0.2100 Uiso
H41 H -0.2612 -0.3866 -0.1332 0.2100 Uiso
C34 C -0.1260(6) -0.4676(4) -0.0529(4) 0.1040 Uani
H42 H -0.0753 -0.4807 -0.0370 0.1250 Uiso
H43 H -0.1644 -0.4893 -0.0242 0.1250 Uiso
H44 H -0.1314 -0.4151 -0.0524 0.1250 Uiso
C35 C -0.0596(3) -0.4668(3) -0.1936(3) 0.0440 Uani
C36 C 0.0150(4) -0.4744(4) -0.1758(3) 0.0693 Uani
H45 H 0.0272 -0.4986 -0.1360 0.0830 Uiso
C37 C 0.0725(4) -0.4476(4) -0.2147(3) 0.0693 Uani
H46 H 0.1234 -0.4552 -0.2009 0.0830 Uiso
C38 C -0.0115(4) -0.4030(4) -0.2877(3) 0.0517 Uani
H47 H -0.0230 -0.3766 -0.3265 0.0620 Uiso
C39 C -0.0708(4) -0.4306(3) -0.2516(3) 0.0470 Uani
H48 H -0.1211 -0.4244 -0.2673 0.0560 Uiso
C40 C -0.2768(3) -0.8796(4) -0.2725(3) 0.0540 Uani
H49 H -0.2448 -0.8402 -0.2835 0.0650 Uiso
C41 C -0.3355(4) -0.8963(3) -0.3155(3) 0.0543 Uani
H50 H -0.3426 -0.8684 -0.3542 0.0650 Uiso
C42 C -0.3835(4) -0.9529(4) -0.3022(3) 0.0500 Uani
C43 C -0.3668(4) -0.9901(4) -0.2446(3) 0.0583 Uani
H51 H -0.3973 -1.0305 -0.2333 0.0700 Uiso
C44 C -0.3083(4) -0.9713(4) -0.2033(3) 0.0613 Uani
H52 H -0.3001 -0.9983 -0.1642 0.0730 Uiso
C45 C -0.5140(4) -0.8918(4) -0.3827(4) 0.0730 Uani
H53 H -0.5363 -0.8704 -0.3425 0.0880 Uiso
H54 H -0.4756 -0.8575 -0.3995 0.0880 Uiso
C46 C -0.5774(5) -0.8986(6) -0.4348(5) 0.1060 Uani
H55 H -0.5994 -0.8509 -0.4433 0.1270 Uiso
H56 H -0.6170 -0.9311 -0.4185 0.1270 Uiso
H57 H -0.5561 -0.9180 -0.4756 0.1270 Uiso
C47 C -0.5292(4) -1.0411(5) -0.3192(4) 0.0783 Uani
H58 H -0.5011 -1.0850 -0.3080 0.0940 Uiso
H59 H -0.5705 -1.0531 -0.3495 0.0940 Uiso
H60 H -0.5502 -1.0198 -0.2791 0.0940 Uiso
C48 C -0.4229(3) -1.0189(3) -0.4343(3) 0.0487 Uani
C49 C -0.4681(4) -1.0581(4) -0.4764(3) 0.0543 Uani
H61 H -0.5202 -1.0650 -0.4662 0.0650 Uiso
C50 C -0.4391(4) -1.0870(4) -0.5326(3) 0.0550 Uani
H62 H -0.4727 -1.1121 -0.5611 0.0660 Uiso
C51 C -0.3223(4) -1.0461(4) -0.5103(3) 0.0650 Uani
H63 H -0.2703 -1.0412 -0.5217 0.0780 Uiso
C52 C -0.3471(4) -1.0143(4) -0.4521(3) 0.0630 Uani
H64 H -0.3123 -0.9895 -0.4246 0.0750 Uiso
Ag2A Ag -0.33788(3) -1.11989(2) -0.65445(2) 0.0490 Uani
Ag2B Ag 0.16212(3) -0.38011(2) -0.34555(2) 0.0490 Uani
N6B N -0.0608(3) -0.9112(3) -0.2290(2) 0.0463 Uani
N8A N -0.1337(3) -0.9178(3) -0.0501(2) 0.0460 Uani
P1 P -0.17275(10) -0.36332(10) -0.43774(8) 0.0558 Uani
F1 F -0.1107(3) -0.3054(2) -0.4173(3) 0.0930 Uani
F2 F -0.1128(2) -0.4253(2) -0.4233(2) 0.0760 Uani
F3 F -0.1459(2) -0.3592(3) -0.51234(19) 0.0837 Uani
F4 F -0.2003(2) -0.3678(3) -0.36340(18) 0.0847 Uani
F5 F -0.2331(2) -0.4233(3) -0.4575(2) 0.0817 Uani
F6 F -0.2316(3) -0.3017(3) -0.4529(3) 0.0993 Uani
P2 P -0.15282(11) -0.89187(10) -0.48198(11) 0.0677 Uani
F7 F -0.1601(3) -0.9704(2) -0.4530(4) 0.1267 Uani
F8 F -0.1460(2) -0.8105(2) -0.5083(2) 0.0873 Uani
F9 F -0.2331(5) -0.8789(4) -0.4591(6) 0.2120 Uani
F10 F -0.1232(8) -0.8663(3) -0.4167(4) 0.2483 Uani
F11 F -0.0745(4) -0.9054(4) -0.5027(7) 0.2423 Uani
F12 F -0.1918(6) -0.9174(5) -0.5425(4) 0.2340 Uani
O1 O -0.2957(7) -0.2294(7) -0.3320(6) 0.2130 Uani
H65 H -0.2513 -0.2408 -0.3213 0.2560 Uiso
C53 C -0.2948(13) -0.1609(8) -0.3651(12) 0.3040 Uani
H66 H -0.3430 -0.1538 -0.3882 0.3630 Uiso
H67 H -0.2531 -0.1600 -0.3970 0.3630 Uiso
H68 H -0.2877 -0.1223 -0.3328 0.3630 Uiso
O2 O -0.1230(15) -0.8214(13) -0.6653(9) 0.3987 Uani
H69 H -0.0805 -0.8410 -0.6710 0.4760 Uiso
C54 C -0.1315(16) -0.764(2) -0.7100(16) 0.4733 Uani
H70 H -0.1786 -0.7384 -0.7004 0.5690 Uiso
H71 H -0.1334 -0.7834 -0.7549 0.5690 Uiso
H72 H -0.0884 -0.7313 -0.7058 0.5690 Uiso
loop_
_atom_site_aniso_label
_atom_site_aniso_U_11
_atom_site_aniso_U_22
_atom_site_aniso_U_33
_atom_site_aniso_U_23
_atom_site_aniso_U_13
_atom_site_aniso_U_12
Ag1 0.0475(2) 0.0427(2) 0.0423(2) 0.0010(2) -0.0001(2) -0.0054(2)
Si1 0.0683(12) 0.0424(9) 0.0437(9) 0.0013(8) 0.0063(9) 0.0151(9)
Si2 0.0443(9) 0.0436(8) 0.0388(8) 0.0066(7) 0.0026(7) -0.0018(8)
N1 0.052(3) 0.044(3) 0.046(3) 0.000(2) 0.000(2) 0.009(3)
N2 0.040(2) 0.039(2) 0.044(3) 0.000(2) 0.007(2) 0.002(2)
N3 0.046(3) 0.041(3) 0.041(2) -0.003(2) -0.001(2) -0.004(2)
N4 0.049(3) 0.049(3) 0.044(3) 0.008(2) 0.008(2) 0.004(3)
C1 0.047(4) 0.033(3) 0.083(5) 0.000(3) -0.002(3) -0.004(3)
C2 0.051(4) 0.048(4) 0.079(5) -0.003(3) -0.008(4) 0.002(3)
C3 0.055(4) 0.044(3) 0.037(3) 0.000(2) 0.010(3) 0.009(3)
C4 0.049(4) 0.033(3) 0.088(5) -0.003(3) 0.001(3) -0.003(3)
C5 0.045(3) 0.051(3) 0.071(4) 0.004(4) -0.002(3) -0.005(3)
C6 0.114(7) 0.067(5) 0.063(5) -0.016(4) -0.030(5) 0.039(5)
C7 0.177(10) 0.108(7) 0.066(5) -0.005(6) -0.012(6) 0.069(8)
C8 0.097(6) 0.064(5) 0.091(6) 0.017(4) 0.042(5) 0.025(5)
C9 0.042(3) 0.034(3) 0.046(3) 0.001(3) 0.005(3) 0.002(2)
C10 0.052(4) 0.067(4) 0.041(3) -0.005(3) -0.007(3) 0.018(3)
C11 0.053(4) 0.059(4) 0.048(3) -0.009(3) -0.009(3) 0.021(3)
C12 0.077(5) 0.084(5) 0.038(3) -0.007(3) -0.011(3) 0.035(4)
C13 0.056(4) 0.075(5) 0.055(4) -0.006(4) -0.006(3) 0.033(4)
C14 0.043(3) 0.040(3) 0.043(3) 0.003(2) -0.002(3) 0.004(3)
C15 0.051(3) 0.033(3) 0.043(3) -0.001(3) 0.003(3) -0.006(3)
C16 0.039(3) 0.043(3) 0.031(3) 0.006(2) -0.001(2) -0.002(3)
C17 0.043(3) 0.036(3) 0.042(3) -0.002(2) 0.005(3) 0.007(3)
C18 0.055(4) 0.035(3) 0.056(4) -0.005(3) 0.002(3) -0.004(3)
C19 0.075(5) 0.101(6) 0.041(4) -0.011(4) 0.004(3) -0.023(5)
C20 0.127(9) 0.250(16) 0.064(6) -0.009(8) 0.003(6) -0.041(10)
C21 0.071(5) 0.060(4) 0.107(7) 0.032(5) 0.012(5) 0.019(4)
C22 0.039(3) 0.035(3) 0.042(3) 0.004(2) 0.011(3) 0.007(3)
C23 0.038(3) 0.055(4) 0.054(4) 0.012(3) 0.008(3) 0.003(3)
C24 0.051(4) 0.051(4) 0.049(4) 0.015(3) -0.010(3) 0.011(3)
C25 0.044(4) 0.084(5) 0.067(4) 0.029(4) 0.013(4) 0.009(4)
C26 0.041(4) 0.067(4) 0.062(4) 0.023(3) 0.015(3) 0.016(3)
Ag1B 0.0475 0.0427 0.0423 -0.001 -0.0001 0.0054
Ag1C 0.0475 0.0427 0.0423 0.001 0.0001 0.0054
N2B 0.04 0.039 0.044 0 0.007 -0.002
N4C 0.049 0.049 0.044 0.008 -0.008 -0.004
Ag2 0.0556(3) 0.0501(2) 0.0413(2) -0.0020(2) -0.0070(2) 0.0003(2)
Si3 0.0681(12) 0.0419(9) 0.0772(13) 0.0021(10) 0.0331(11) 0.0041(9)
Si4 0.0479(9) 0.0733(12) 0.0415(9) -0.0096(9) 0.0037(8) -0.0097(9)
N5 0.046(3) 0.045(2) 0.034(2) 0.002(2) 0.001(2) -0.003(2)
N6 0.046(3) 0.053(3) 0.040(3) 0.010(2) -0.001(2) -0.004(2)
N7 0.048(3) 0.049(3) 0.043(3) 0.002(2) -0.003(2) -0.003(2)
N8 0.054(3) 0.045(3) 0.039(3) -0.003(2) 0.002(2) -0.011(2)
C27 0.051(4) 0.048(3) 0.036(3) 0.001(2) 0.001(3) -0.004(3)
C28 0.047(3) 0.045(3) 0.040(3) -0.003(2) 0.011(3) -0.001(3)
C29 0.040(3) 0.047(3) 0.039(3) 0.001(3) 0.005(2) -0.003(3)
C30 0.065(4) 0.049(4) 0.044(3) -0.001(3) 0.015(3) -0.005(3)
C31 0.070(4) 0.055(4) 0.041(3) 0.000(3) 0.014(3) 0.001(3)
C32 0.076(6) 0.055(5) 0.248(14) 0.060(7) 0.072(7) 0.027(4)
C33 0.111(9) 0.192(15) 0.221(16) 0.012(13) 0.047(10) -0.014(10)
C34 0.166(9) 0.054(4) 0.092(6) -0.027(4) 0.076(6) -0.023(5)
C35 0.050(4) 0.033(3) 0.049(3) -0.001(3) 0.003(3) -0.004(3)
C36 0.067(5) 0.088(5) 0.053(4) 0.034(4) -0.002(4) 0.001(4)
C37 0.054(4) 0.091(6) 0.063(4) 0.031(4) -0.015(4) -0.009(4)
C38 0.054(4) 0.064(4) 0.037(3) 0.010(3) -0.002(3) 0.003(3)
C39 0.042(3) 0.057(4) 0.042(3) 0.004(3) 0.000(3) 0.004(3)
C40 0.057(4) 0.060(4) 0.045(3) 0.006(3) -0.002(3) -0.019(4)
C41 0.057(4) 0.066(4) 0.040(3) 0.004(3) -0.006(3) -0.012(4)
C42 0.055(4) 0.056(4) 0.039(3) -0.013(3) 0.002(3) -0.002(3)
C43 0.059(4) 0.053(4) 0.063(4) 0.005(3) -0.010(3) -0.020(3)
C44 0.067(4) 0.061(4) 0.056(4) 0.010(3) 0.003(3) -0.020(4)
C45 0.070(5) 0.082(5) 0.067(4) -0.016(4) -0.012(4) 0.017(4)
C46 0.086(6) 0.134(9) 0.098(7) -0.010(6) -0.031(5) 0.028(6)
C47 0.059(4) 0.119(7) 0.057(4) -0.006(5) 0.011(4) -0.023(5)
C48 0.048(4) 0.059(4) 0.039(3) -0.003(3) 0.007(3) -0.012(3)
C49 0.044(4) 0.070(4) 0.049(4) -0.012(3) 0.007(3) -0.016(3)
C50 0.051(4) 0.067(4) 0.047(3) -0.017(3) 0.002(3) -0.026(3)
C51 0.051(4) 0.082(5) 0.062(4) -0.022(4) 0.014(4) -0.011(4)
C52 0.049(4) 0.080(5) 0.060(4) -0.023(4) 0.000(3) -0.019(4)
Ag2A 0.0556 0.0501 0.0413 0.002 0.007 0.0003
Ag2B 0.0556 0.0501 0.0413 0.002 -0.007 -0.0003
N6B 0.046 0.053 0.04 -0.01 -0.001 0.004
N8A 0.054 0.045 0.039 0.003 -0.002 -0.011
P1 0.0481(9) 0.0654(11) 0.0539(9) 0.0217(8) -0.0111(8) -0.0048(9)
F1 0.093(3) 0.074(3) 0.112(4) 0.027(3) -0.018(3) -0.028(3)
F2 0.063(3) 0.072(3) 0.093(3) 0.022(2) -0.018(2) 0.004(2)
F3 0.079(3) 0.109(4) 0.063(2) 0.030(2) 0.008(2) -0.003(3)
F4 0.074(3) 0.127(4) 0.053(2) 0.018(3) -0.0030(19) -0.004(3)
F5 0.067(3) 0.104(3) 0.074(3) 0.015(3) -0.022(2) -0.032(2)
F6 0.100(3) 0.100(4) 0.098(4) 0.025(3) -0.018(3) 0.046(3)
P2 0.0523(11) 0.0551(11) 0.0958(14) -0.0170(10) -0.0043(11) 0.0050(9)
F7 0.093(4) 0.049(2) 0.238(7) -0.001(3) -0.062(4) -0.004(3)
F8 0.070(3) 0.080(3) 0.112(4) 0.025(3) 0.006(3) -0.008(3)
F9 0.165(7) 0.128(6) 0.343(13) 0.104(8) 0.151(8) 0.063(6)
F10 0.538(19) 0.067(4) 0.140(6) 0.004(4) -0.127(9) -0.051(7)
F11 0.080(4) 0.106(5) 0.541(19) -0.014(7) 0.112(7) 0.002(4)
F12 0.305(12) 0.250(10) 0.147(7) 0.013(7) -0.089(8) -0.178(9)
O1 0.224(11) 0.202(11) 0.213(12) -0.012(9) -0.005(9) 0.051(9)
C53 0.45(4) 0.102(11) 0.36(3) 0.028(17) -0.09(3) 0.077(17)
O2 0.51(3) 0.47(3) 0.216(17) -0.088(18) 0.18(2) -0.26(3)
C54 0.28(3) 0.81(9) 0.33(4) 0.09(5) -0.08(3) -0.33(5)
loop_
_geom_bond_atom_site_label_1
_geom_bond_atom_site_label_2
_geom_bond_site_symmetry_1
_geom_bond_site_symmetry_2
Ag1 N1 1_555 1_555
Si1 C3 1_555 1_555
Si2 C16 1_555 1_555
N1 C11 1_555 1_555
N2 C1 1_555 1_555
N3 Ag1 1_555 1_555
N4 C24 1_555 1_555
C1 H1 1_555 1_555
C2 C1 1_555 1_555
H2 C2 1_555 1_555
C3 C2 1_555 1_555
C4 C3 1_555 1_555
H3 C4 1_555 1_555
C5 N2 1_555 1_555
H4 C5 1_555 1_555
C6 Si1 1_555 1_555
H5 C6 1_555 1_555
H6 C6 1_555 1_555
C7 C6 1_555 1_555
H7 C7 1_555 1_555
H8 C7 1_555 1_555
H9 C7 1_555 1_555
C8 Si1 1_555 1_555
H10 C8 1_555 1_555
H11 C8 1_555 1_555
H12 C8 1_555 1_555
C9 Si1 1_555 1_555
C10 C9 1_555 1_555
H13 C10 1_555 1_555
C11 C10 1_555 1_555
H14 C11 1_555 1_555
C12 N1 1_555 1_555
H15 C12 1_555 1_555
C13 C9 1_555 1_555
H16 C13 1_555 1_555
C14 N3 1_555 1_555
H17 C14 1_555 1_555
C15 C14 1_555 1_555
H18 C15 1_555 1_555
C16 C15 1_555 1_555
C17 C16 1_555 1_555
H19 C17 1_555 1_555
C18 N3 1_555 1_555
H20 C18 1_555 1_555
C19 Si2 1_555 1_555
H21 C19 1_555 1_555
H22 C19 1_555 1_555
C20 C19 1_555 1_555
H23 C20 1_555 1_555
H24 C20 1_555 1_555
H25 C20 1_555 1_555
C21 Si2 1_555 1_555
H26 C21 1_555 1_555
H27 C21 1_555 1_555
H28 C21 1_555 1_555
C22 Si2 1_555 1_555
C23 C22 1_555 1_555
H29 C23 1_555 1_555
C24 C23 1_555 1_555
H30 C24 1_555 1_555
C25 N4 1_555 1_555
H31 C25 1_555 1_555
C26 C22 1_555 1_555
H32 C26 1_555 1_555
Ag2 N5 1_555 1_555
Si3 C29 1_555 1_555
Si4 C42 1_555 1_555
N5 C27 1_555 1_555
N6 C37 1_555 1_555
N7 Ag2 1_555 1_555
N8 C50 1_555 1_555
C27 H33 1_555 1_555
C28 C27 1_555 1_555
H34 C28 1_555 1_555
C29 C28 1_555 1_555
C30 C29 1_555 1_555
H35 C30 1_555 1_555
C31 N5 1_555 1_555
H36 C31 1_555 1_555
C32 Si3 1_555 1_555
H37 C32 1_555 1_555
H38 C32 1_555 1_555
C33 C32 1_555 1_555
H39 C33 1_555 1_555
H40 C33 1_555 1_555
H41 C33 1_555 1_555
C34 Si3 1_555 1_555
H42 C34 1_555 1_555
H43 C34 1_555 1_555
H44 C34 1_555 1_555
C35 Si3 1_555 1_555
C36 C35 1_555 1_555
H45 C36 1_555 1_555
C37 C36 1_555 1_555
H46 C37 1_555 1_555
C38 N6 1_555 1_555
H47 C38 1_555 1_555
C39 C35 1_555 1_555
H48 C39 1_555 1_555
C40 N7 1_555 1_555
H49 C40 1_555 1_555
C41 C40 1_555 1_555
H50 C41 1_555 1_555
C42 C41 1_555 1_555
C43 C42 1_555 1_555
H51 C43 1_555 1_555
C44 N7 1_555 1_555
H52 C44 1_555 1_555
C45 Si4 1_555 1_555
H53 C45 1_555 1_555
H54 C45 1_555 1_555
C46 C45 1_555 1_555
H55 C46 1_555 1_555
H56 C46 1_555 1_555
H57 C46 1_555 1_555
C47 Si4 1_555 1_555
H58 C47 1_555 1_555
H59 C47 1_555 1_555
H60 C47 1_555 1_555
C48 Si4 1_555 1_555
C49 C48 1_555 1_555
H61 C49 1_555 1_555
C50 C49 1_555 1_555
H62 C50 1_555 1_555
C51 N8 1_555 1_555
H63 C51 1_555 1_555
C52 C48 1_555 1_555
H64 C52 1_555 1_555
P1 F1 1_555 1_555
F2 P1 1_555 1_555
F3 P1 1_555 1_555
F4 P1 1_555 1_555
F5 P1 1_555 1_555
F6 P1 1_555 1_555
P2 F7 1_555 1_555
F8 P2 1_555 1_555
F9 P2 1_555 1_555
F10 P2 1_555 1_555
F11 P2 1_555 1_555
F12 P2 1_555 1_555
O1 H65 1_555 1_555
C53 O1 1_555 1_555
H66 C53 1_555 1_555
H67 C53 1_555 1_555
H68 C53 1_555 1_555
O2 H69 1_555 1_555
C54 O2 1_555 1_555
H70 C54 1_555 1_555
H71 C54 1_555 1_555
H72 C54 1_555 1_555
Ag1B N2 1_555 1_555
Ag1C N4 1_555 1_555
N2B Ag1 1_555 1_555
N4C Ag1 1_555 1_555
Ag2A N8 1_555 1_555
Ag2B N6 1_555 1_555
N6B Ag2 1_555 1_555
N8A Ag2 1_555 1_555
C4 C5 1_555 1_555
C12 C13 1_555 1_555
C17 C18 1_555 1_555
C25 C26 1_555 1_555
C30 C31 1_555 1_555
C38 C39 1_555 1_555
C43 C44 1_555 1_555
C51 C52 1_555 1_555

#END
