
#######################################################################
#
#                 Cambridge Crystallographic Data Centre
#                                CCDC 
#
#######################################################################
#
# If this CIF has been generated from an entry in the Cambridge 
# Structural Database, then it will include bibliographic, chemical, 
# crystal, experimental, refinement or atomic coordinate data resulting 
# from the CCDC's data processing and validation procedures.
#
#######################################################################

data_QIYCIM
_chemical_formula_moiety         '(C56 H72 Ag2 F12 N8 O2 P2 Si4)n'
_symmetry_cell_setting           orthorhombic
_symmetry_space_group_name_H-M   'P 21 21 21'
_symmetry_Int_Tables_number      19
_space_group_name_Hall           'P 2ac 2ab'
loop_
_symmetry_equiv_pos_site_id
_symmetry_equiv_pos_as_xyz
1 x,y,z
2 1/2-x,-y,1/2+z
3 -x,1/2+y,1/2-z
4 1/2+x,1/2-y,-z
_cell_length_a                   18.1935(5)
_cell_length_b                   18.5759(5)
_cell_length_c                   20.2044(5)
_cell_angle_alpha                90
_cell_angle_beta                 90
_cell_angle_gamma                90
_cell_volume                     6828.29
loop_
_atom_site_label
_atom_site_type_symbol
_atom_site_fract_x
_atom_site_fract_y
_atom_site_fract_z
_atom_site_U_iso_or_equiv
_atom_site_thermal_displace_type
Ag1 Ag 0.33750(5) 1.35848(5) 0.65273(4) 0.0684 Uani
Si1 Si -0.04598(17) 1.32993(17) 0.63028(17) 0.0643 Uani
Si2 Si 0.4745(2) 1.1728(2) 0.92781(19) 0.0887 Uani
N1 N 0.2108(5) 1.3537(5) 0.6401(5) 0.0707 Uani
N2 N -0.1165(6) 1.2197(6) 0.4306(5) 0.0863 Uani
N3 N 0.3740(5) 1.2919(5) 0.7444(5) 0.0680 Uani
N4 N 0.6023(5) 0.9645(5) 0.8602(5) 0.0647 Uani
C1 C -0.1638(7) 1.2558(8) 0.4687(7) 0.0983 Uani
H1 H -0.2135 1.2597 0.4546 0.1180 Uiso
C2 C -0.1436(7) 1.2880(7) 0.5283(7) 0.0873 Uani
H2 H -0.1799 1.3099 0.5554 0.1050 Uiso
C3 C -0.0722(6) 1.2882(6) 0.5475(6) 0.0640 Uani
C4 C -0.0241(8) 1.2541(9) 0.5091(7) 0.1030 Uani
H3 H 0.0261 1.2520 0.5221 0.1240 Uiso
C5 C -0.0460(7) 1.2212(10) 0.4497(9) 0.1240 Uani
H4 H -0.0098 1.1995 0.4224 0.1490 Uiso
C6 C -0.0798(7) 1.2707(8) 0.6991(8) 0.1010 Uani
H5 H -0.1142 1.2332 0.6830 0.1210 Uiso
H6 H -0.0390 1.2479 0.7237 0.1210 Uiso
C7 C -0.1216(17) 1.3322(15) 0.7430(13) 0.2153 Uani
H7 H -0.1692 1.3122 0.7581 0.2600 Uiso
H8 H -0.0916 1.3417 0.7830 0.2600 Uiso
C8 C -0.1351(17) 1.3973(15) 0.7121(13) 0.2153 Uani
H9 H -0.1234 1.4361 0.7440 0.2600 Uiso
H10 H -0.1885 1.4001 0.7029 0.2600 Uiso
C9 C -0.0952(7) 1.4131(7) 0.6493(8) 0.0983 Uani
H11 H -0.0605 1.4536 0.6553 0.1180 Uiso
H12 H -0.1302 1.4254 0.6134 0.1180 Uiso
C10 C 0.0565(6) 1.3389(6) 0.6334(5) 0.0593 Uani
C11 C 0.1032(7) 1.2815(7) 0.6384(6) 0.0777 Uani
H13 H 0.0834 1.2341 0.6383 0.0930 Uiso
C12 C 0.1782(6) 1.2904(5) 0.6438(7) 0.0710 Uani
H14 H 0.2079 1.2490 0.6505 0.0850 Uiso
C13 C 0.1660(7) 1.4111(7) 0.6318(6) 0.0837 Uani
H15 H 0.1880 1.4573 0.6290 0.1010 Uiso
C14 C 0.0935(7) 1.4070(6) 0.6273(6) 0.0730 Uani
H16 H 0.0656 1.4495 0.6200 0.0880 Uiso
C15 C 0.4298(12) 1.2468(12) 0.7386(8) 0.1787 Uani
H17 H 0.4531 1.2403 0.6970 0.2120 Uiso
C16 C 0.4547(10) 1.2082(10) 0.7950(7) 0.1293 Uani
H18 H 0.4909 1.1721 0.7883 0.1550 Uiso
C17 C 0.4329(6) 1.2181(6) 0.8515(6) 0.0640 Uani
C18 C 0.3771(7) 1.2666(6) 0.8586(6) 0.0810 Uani
H19 H 0.3573 1.2775 0.9009 0.0970 Uiso
C19 C 0.3504(8) 1.2988(7) 0.8026(6) 0.0890 Uani
H20 H 0.3095 1.3300 0.8083 0.1070 Uiso
C20 C 0.4047(13) 1.1474(12) 0.9922(10) 0.1630 Uani
H21 H 0.3661 1.1848 0.9949 0.1960 Uiso
H22 H 0.3810 1.1012 0.9801 0.1960 Uiso
C21 C 0.4414(18) 1.1404(19) 1.0554(8) 0.2983 Uani
H23 H 0.4053 1.1278 1.0895 0.3590 Uiso
H24 H 0.4649 1.1862 1.0669 0.3590 Uiso
H25 H 0.4788 1.1026 1.0526 0.3590 Uiso
C22 C 0.5402(10) 1.2376(9) 0.9654(10) 0.1317 Uani
H26 H 0.5104 1.2701 0.9935 0.1580 Uiso
H27 H 0.5712 1.2091 0.9960 0.1580 Uiso
C23 C 0.5908(12) 1.2842(11) 0.9281(11) 0.1630 Uani
H28 H 0.6182 1.3147 0.9590 0.1960 Uiso
H29 H 0.5626 1.3146 0.8976 0.1960 Uiso
H30 H 0.6252 1.2543 0.9028 0.1960 Uiso
C24 C 0.5237(7) 1.0900(7) 0.8999(6) 0.0753 Uani
C25 C 0.5981(7) 1.0876(8) 0.8843(9) 0.1033 Uani
H31 H 0.6257 1.1309 0.8868 0.1240 Uiso
C26 C 0.6324(8) 1.0278(8) 0.8660(8) 0.0960 Uani
H32 H 0.6834 1.0315 0.8563 0.1150 Uiso
C27 C 0.5318(6) 0.9633(7) 0.8735(7) 0.0813 Uani
H33 H 0.5066 0.9186 0.8703 0.0980 Uiso
C28 C 0.4907(7) 1.0260(7) 0.8927(7) 0.0817 Uani
H34 H 0.4393 1.0219 0.9003 0.0980 Uiso
Ag1B Ag 0.66250(5) 0.85848(5) 0.84727(4) 0.0684 Uani
Ag1C Ag -0.16250(5) 1.14152(5) 0.34727(4) 0.0684 Uani
N2C N 0.3835(6) 1.2803(6) 0.5694(5) 0.0863 Uani
N4B N 0.3977(5) 1.4645(5) 0.6398(5) 0.0647 Uani
Ag2 Ag 0.84052(6) 1.63000(5) 0.65805(5) 0.0840 Uani
Si3 Si 0.5503(4) 1.5073(7) 0.8545(4) 0.2710 Uani
Si4 Si 1.1338(2) 1.5071(2) 0.86095(19) 0.0830 Uani
N5 N 0.7402(5) 1.5886(6) 0.7157(5) 0.0713 Uani
N6 N 0.6316(7) 1.4184(7) 1.0555(5) 0.0933 Uani
N7 N 0.9387(6) 1.5987(6) 0.7316(5) 0.0803 Uani
N8 N 1.1478(6) 1.2521(5) 0.8516(5) 0.0790 Uani
C29 C 0.7032(8) 1.5298(8) 0.6965(8) 0.0990 Uani
H35 H 0.7139 1.5087 0.6547 0.1190 Uiso
C30 C 0.6494(9) 1.4991(9) 0.7365(12) 0.1273 Uani
H36 H 0.6251 1.4561 0.7235 0.1520 Uiso
C31 C 0.6313(10) 1.5339(13) 0.7984(10) 0.1337 Uani
C32 C 0.6745(8) 1.5850(14) 0.8152(7) 0.1613 Uani
H37 H 0.6706 1.6036 0.8589 0.1920 Uiso
C33 C 0.7252(7) 1.6139(10) 0.7748(9) 0.1123 Uani
H38 H 0.7515 1.6549 0.7898 0.1350 Uiso
C34 C 0.4842(8) 1.4537(18) 0.8196(8) 0.2037 Uani
H39 H 0.4968 1.4472 0.7723 0.2460 Uiso
H40 H 0.4872 1.4057 0.8408 0.2460 Uiso
C35 C 0.4161(17) 1.4751(18) 0.823(2) 0.3000 Uani
H41 H 0.3931 1.4604 0.8651 0.3580 Uiso
H42 H 0.3869 1.4555 0.7856 0.3580 Uiso
C36 C 0.4234(13) 1.5653(17) 0.818(2) 0.3000 Uani
H43 H 0.4390 1.5796 0.7726 0.3580 Uiso
H44 H 0.3755 1.5882 0.8273 0.3580 Uiso
C37 C 0.4799(8) 1.5883(13) 0.8677(11) 0.1637 Uani
H45 H 0.4598 1.5895 0.9132 0.1950 Uiso
H46 H 0.5020 1.6355 0.8566 0.1950 Uiso
C38 C 0.5881(9) 1.4673(16) 0.9313(10) 0.1707 Uani
C39 C 0.6576(10) 1.4732(13) 0.9533(7) 0.1523 Uani
H47 H 0.6917 1.5006 0.9281 0.1840 Uiso
C40 C 0.6817(8) 1.4406(11) 1.0119(7) 0.1183 Uani
H48 H 0.7327 1.4344 1.0203 0.1420 Uiso
C41 C 0.5633(8) 1.4207(8) 1.0365(7) 0.0953 Uani
H49 H 0.5274 1.4054 1.0675 0.1150 Uiso
C42 C 0.5382(8) 1.4434(10) 0.9755(7) 0.1113 Uani
H50 H 0.4874 1.4421 0.9650 0.1340 Uiso
C43 C 1.0073(8) 1.6030(7) 0.7113(6) 0.0813 Uani
H51 H 1.0176 1.6267 0.6707 0.0980 Uiso
C44 C 1.0654(8) 1.5738(8) 0.7477(7) 0.0890 Uani
H52 H 1.1133 1.5759 0.7292 0.1070 Uiso
C45 C 1.0570(6) 1.5420(6) 0.8092(5) 0.0580 Uani
C46 C 0.9838(9) 1.5396(10) 0.8295(7) 0.1063 Uani
H53 H 0.9709 1.5173 0.8702 0.1280 Uiso
C47 C 0.9303(8) 1.5698(10) 0.7899(8) 0.1093 Uani
H54 H 0.8817 1.5695 0.8072 0.1310 Uiso
C48 C 1.1233(10) 1.5402(10) 0.9500(8) 0.1173 Uani
H55 H 1.0806 1.5728 0.9549 0.1410 Uiso
H56 H 1.1186 1.4997 0.9815 0.1410 Uiso
C49 C 1.196(2) 1.5806(14) 0.9592(13) 0.2833 Uani
H57 H 1.1995 1.5991 1.0045 0.3390 Uiso
H58 H 1.1988 1.6209 0.9279 0.3390 Uiso
H59 H 1.2374 1.5476 0.9509 0.3390 Uiso
C50 C 1.2251(9) 1.5444(11) 0.8326(15) 0.1847 Uani
H60 H 1.2609 1.5423 0.8695 0.2210 Uiso
H61 H 1.2444 1.5147 0.7958 0.2210 Uiso
C51 C 1.216(4) 1.629(2) 0.808(2) 0.5467 Uani
H62 H 1.2645 1.6505 0.8020 0.6560 Uiso
H63 H 1.1879 1.6560 0.8406 0.6560 Uiso
H64 H 1.1896 1.6297 0.7652 0.6560 Uiso
C52 C 1.1368(7) 1.4042(7) 0.8576(5) 0.0740 Uani
C53 C 1.1783(6) 1.3656(8) 0.9027(6) 0.0817 Uani
H65 H 1.2039 1.3902 0.9369 0.0980 Uiso
C54 C 1.1825(8) 1.2954(8) 0.8985(7) 0.0890 Uani
H66 H 1.2121 1.2717 0.9306 0.1070 Uiso
C55 C 1.1073(8) 1.2899(7) 0.8110(7) 0.0863 Uani
H67 H 1.0825 1.2649 0.7766 0.1040 Uiso
C56 C 1.0982(8) 1.3618(9) 0.8142(6) 0.0967 Uani
H68 H 1.0638 1.3839 0.7854 0.1160 Uiso
Ag2A Ag 0.65948(6) 1.37000(5) 1.15805(5) 0.0840 Uani
Ag2B Ag 1.15948(6) 1.13000(5) 0.84195(5) 0.0840 Uani
N6A N 0.8684(7) 1.5816(7) 0.5555(5) 0.0933 Uani
N8B N 0.8522(6) 1.7521(5) 0.6484(5) 0.0790 Uani
F1 F 0.7237(8) 0.8028(7) -0.5472(8) 0.2170 Uani
F2 F 0.7285(5) 0.9263(6) -0.5410(4) 0.1393 Uani
F3 F 0.6147(5) 0.9261(5) -0.5835(5) 0.1197 Uani
F4 F 0.6390(7) 0.8594(9) -0.4962(5) 0.1973 Uani
F5 F 0.7037(6) 0.8832(9) -0.6372(5) 0.1853 Uani
F6 F 0.6159(8) 0.8092(6) -0.5973(7) 0.1933 Uani
P1 P 0.6719(2) 0.8661(2) -0.5673(2) 0.0990 Uani
F7 F 0.6579(5) 1.4760(4) 0.4620(10) 0.2397 Uani
F8 F 0.6658(6) 1.3138(6) 0.5144(5) 0.1503 Uani
F9 F 0.6440(11) 1.4302(11) 0.5540(8) 0.3403 Uani
F10 F 0.6748(11) 1.3701(11) 0.4176(8) 0.3403 Uani
F11 F 0.7400(6) 1.4027(7) 0.4989(11) 0.3503 Uani
F12 F 0.5813(5) 1.3896(7) 0.4752(9) 0.2343 Uani
P2 P 0.6609(3) 1.3964(3) 0.4905(3) 0.1180 Uani
O1 O 0.613(2) 1.313(3) 0.6621(14) 0.5100 Uani
H69 H 0.5703 1.3084 0.6771 0.6110 Uiso
H70 H 0.6116 1.3356 0.6261 0.6110 Uiso
O2 O 0.627(2) 1.327(3) 0.7962(14) 0.5100 Uani
H71 H 0.5854 1.3447 0.7895 0.6110 Uiso
H72 H 0.6232 1.2838 0.8073 0.6110 Uiso
loop_
_atom_site_aniso_label
_atom_site_aniso_U_11
_atom_site_aniso_U_22
_atom_site_aniso_U_33
_atom_site_aniso_U_23
_atom_site_aniso_U_13
_atom_site_aniso_U_12
Ag1 0.0604(5) 0.0699(5) 0.0750(5) 0.0019(4) 0.0000(5) -0.0036(5)
Si1 0.0518(16) 0.0600(17) 0.081(2) -0.0053(15) -0.0096(15) 0.0020(14)
Si2 0.108(3) 0.081(2) 0.077(2) -0.0053(19) -0.011(2) 0.034(2)
N1 0.056(5) 0.075(6) 0.081(6) 0.014(5) -0.013(5) 0.003(5)
N2 0.076(7) 0.099(8) 0.084(7) -0.030(6) -0.023(6) 0.015(6)
N3 0.065(6) 0.072(6) 0.067(6) 0.001(5) 0.002(5) 0.006(5)
N4 0.056(6) 0.061(6) 0.077(6) -0.001(5) 0.002(5) -0.011(4)
C1 0.060(8) 0.121(11) 0.114(11) -0.040(9) -0.016(8) 0.026(8)
C2 0.076(9) 0.102(9) 0.084(9) -0.020(8) -0.022(7) 0.016(7)
C3 0.062(7) 0.062(7) 0.068(7) -0.015(6) -0.015(6) 0.007(6)
C4 0.067(9) 0.134(12) 0.108(11) -0.065(10) -0.021(8) 0.030(8)
C5 0.055(8) 0.163(16) 0.154(15) -0.110(13) -0.019(9) 0.029(9)
C6 0.065(8) 0.107(11) 0.131(12) 0.020(9) 0.021(8) -0.004(8)
C7 0.26(2) 0.21(2) 0.176(18) 0.000(15) 0.082(16) 0.126(19)
C8 0.26(2) 0.21(2) 0.176(18) 0.000(15) 0.082(16) 0.126(19)
C9 0.098(10) 0.069(8) 0.128(12) -0.023(9) -0.026(10) 0.015(7)
C10 0.054(6) 0.069(7) 0.055(6) 0.001(5) -0.001(5) -0.003(5)
C11 0.069(8) 0.069(7) 0.095(10) 0.020(7) -0.007(7) -0.003(6)
C12 0.055(7) 0.043(6) 0.115(10) 0.002(6) 0.001(7) 0.015(5)
C13 0.057(7) 0.082(8) 0.112(10) 0.020(7) 0.008(7) -0.014(7)
C14 0.073(8) 0.052(7) 0.094(9) 0.005(6) -0.017(6) 0.015(6)
C15 0.23(2) 0.23(2) 0.076(10) -0.014(13) 0.007(12) 0.18(2)
C16 0.135(14) 0.175(16) 0.078(10) 0.024(10) -0.002(9) 0.122(13)
C17 0.072(7) 0.071(7) 0.049(7) 0.000(6) -0.013(6) 0.007(6)
C18 0.086(8) 0.077(8) 0.080(9) 0.006(7) 0.035(7) 0.035(7)
C19 0.097(10) 0.103(9) 0.067(8) 0.022(7) 0.032(8) 0.043(8)
C20 0.181(15) 0.123(11) 0.185(16) -0.024(10) -0.012(12) 0.032(11)
C21 0.38(4) 0.45(5) 0.065(11) 0.02(2) -0.014(18) 0.29(4)
C22 0.116(14) 0.102(12) 0.177(18) -0.047(13) 0.005(13) 0.005(11)
C23 0.181(15) 0.123(11) 0.185(16) -0.024(10) -0.012(12) 0.032(11)
C24 0.085(9) 0.062(8) 0.079(8) 0.001(6) -0.017(7) 0.008(7)
C25 0.061(9) 0.073(9) 0.176(15) 0.022(9) 0.003(9) -0.003(7)
C26 0.074(8) 0.077(9) 0.137(13) 0.003(9) 0.013(8) 0.016(8)
C27 0.056(8) 0.073(8) 0.115(10) -0.002(7) -0.002(7) -0.009(6)
C28 0.064(8) 0.068(8) 0.113(10) 0.000(7) -0.001(7) 0.002(7)
Ag1B 0.0604 0.0699 0.075 -0.0019 0 0.0036
Ag1C 0.0604 0.0699 0.075 0.0019 0 0.0036
N2C 0.076 0.099 0.084 -0.03 0.023 -0.015
N4B 0.056 0.061 0.077 0.001 0.002 0.011
Ag2 0.0803(6) 0.0966(7) 0.0751(6) 0.0092(5) 0.0086(6) -0.0084(6)
Si3 0.120(5) 0.509(17) 0.184(6) 0.214(10) -0.077(5) -0.170(8)
Si4 0.084(2) 0.079(2) 0.086(3) -0.0200(19) -0.016(2) 0.0051(18)
N5 0.065(6) 0.083(7) 0.066(6) -0.004(5) -0.003(5) -0.016(5)
N6 0.092(8) 0.122(9) 0.066(6) 0.016(6) -0.012(6) -0.055(7)
N7 0.072(7) 0.108(8) 0.061(6) 0.002(6) 0.007(5) 0.003(6)
N8 0.090(7) 0.084(6) 0.063(6) 0.000(6) 0.006(6) 0.020(6)
C29 0.094(11) 0.095(10) 0.108(11) -0.007(9) -0.038(9) -0.016(9)
C30 0.082(12) 0.110(13) 0.19(2) 0.025(13) -0.026(13) -0.051(10)
C31 0.088(12) 0.19(2) 0.123(15) 0.047(14) -0.053(11) -0.040(13)
C32 0.075(10) 0.34(3) 0.069(9) -0.009(13) 0.002(7) -0.121(15)
C33 0.056(8) 0.162(16) 0.119(12) -0.034(12) -0.003(8) -0.034(9)
C34 0.041(8) 0.48(5) 0.090(11) 0.089(19) -0.015(8) -0.043(16)
C35 0.19(2) 0.22(2) 0.49(4) -0.12(3) -0.03(2) 0.07(2)
C36 0.19(2) 0.22(2) 0.49(4) -0.12(3) -0.03(2) 0.07(2)
C37 0.054(9) 0.25(2) 0.187(19) 0.12(2) 0.026(11) 0.037(12)
C38 0.084(12) 0.29(3) 0.138(16) 0.101(18) -0.048(11) -0.099(15)
C39 0.118(14) 0.26(2) 0.079(10) 0.058(13) -0.010(10) -0.113(16)
C40 0.072(9) 0.206(19) 0.077(9) 0.043(11) -0.011(7) -0.039(10)
C41 0.073(9) 0.128(12) 0.085(10) 0.011(9) 0.004(8) -0.026(9)
C42 0.083(10) 0.172(16) 0.079(9) 0.045(10) -0.015(8) -0.057(10)
C43 0.091(10) 0.096(9) 0.057(7) 0.013(7) -0.007(7) -0.002(8)
C44 0.080(9) 0.106(11) 0.081(9) -0.009(8) 0.014(8) -0.024(8)
C45 0.071(7) 0.061(6) 0.042(6) -0.005(5) 0.000(5) -0.005(5)
C46 0.101(11) 0.143(13) 0.075(9) 0.034(9) 0.019(8) 0.000(10)
C47 0.064(9) 0.149(14) 0.115(13) 0.045(11) 0.009(9) 0.010(9)
C48 0.135(12) 0.108(10) 0.109(11) -0.030(9) -0.010(9) 0.023(10)
C49 0.48(6) 0.17(2) 0.20(3) -0.08(2) -0.14(3) -0.07(3)
C50 0.065(10) 0.139(16) 0.35(4) 0.04(2) -0.034(16) -0.029(10)
C51 1.08(17) 0.31(5) 0.25(4) 0.09(4) -0.12(7) -0.40(8)
C52 0.089(8) 0.092(8) 0.041(6) -0.012(6) 0.000(6) 0.027(7)
C53 0.071(8) 0.108(11) 0.066(7) 0.002(7) -0.025(6) 0.017(8)
C54 0.092(10) 0.078(9) 0.097(10) -0.004(8) -0.022(8) 0.001(7)
C55 0.105(10) 0.069(8) 0.085(9) -0.011(7) -0.039(8) 0.008(7)
C56 0.118(12) 0.103(11) 0.069(8) -0.016(8) -0.036(8) 0.031(9)
Ag2A 0.0803 0.0966 0.0751 -0.0092 -0.0086 -0.0084
Ag2B 0.0803 0.0966 0.0751 -0.0092 0.0086 0.0084
N6A 0.092 0.122 0.066 -0.016 0.012 -0.055
N8B 0.09 0.084 0.063 0 0.006 -0.02
F1 0.206(13) 0.175(11) 0.270(16) 0.009(11) -0.122(13) 0.091(10)
F2 0.136(8) 0.188(10) 0.094(6) 0.040(6) -0.046(6) -0.044(7)
F3 0.104(6) 0.117(7) 0.138(7) 0.023(6) -0.026(5) -0.008(5)
F4 0.163(11) 0.293(16) 0.136(9) 0.132(10) 0.044(7) 0.012(11)
F5 0.131(8) 0.331(18) 0.094(6) 0.031(9) -0.008(6) -0.024(10)
F6 0.214(13) 0.128(9) 0.238(14) 0.062(9) -0.097(11) -0.051(9)
P1 0.084(3) 0.105(3) 0.108(3) 0.039(2) -0.029(2) -0.011(3)
F7 0.111(8) 0.068(5) 0.54(3) 0.012(10) -0.084(14) -0.001(6)
F8 0.129(8) 0.170(10) 0.152(8) 0.047(7) 0.031(7) 0.023(8)
F9 0.51(3) 0.314(17) 0.197(11) -0.077(12) -0.015(15) 0.24(2)
F10 0.51(3) 0.314(17) 0.197(11) -0.077(12) -0.015(15) 0.24(2)
F11 0.149(13) 0.142(10) 0.76(6) 0.03(2) -0.16(2) 0.027(10)
F12 0.085(7) 0.258(17) 0.36(2) 0.159(16) -0.054(10) -0.052(9)
P2 0.075(3) 0.114(3) 0.165(4) -0.046(3) -0.008(3) 0.011(3)
O1 0.59(5) 0.72(6) 0.22(2) -0.02(3) 0.10(3) -0.23(4)
O2 0.59(5) 0.72(6) 0.22(2) -0.02(3) 0.10(3) -0.23(4)
loop_
_geom_bond_atom_site_label_1
_geom_bond_atom_site_label_2
_geom_bond_site_symmetry_1
_geom_bond_site_symmetry_2
Ag1 N1 1_555 1_555
Si1 C3 1_555 1_555
Si2 C17 1_555 1_555
N1 C12 1_555 1_555
N2 C1 1_555 1_555
N3 Ag1 1_555 1_555
N4 C26 1_555 1_555
C1 H1 1_555 1_555
C2 C1 1_555 1_555
H2 C2 1_555 1_555
C3 C2 1_555 1_555
C4 C3 1_555 1_555
H3 C4 1_555 1_555
C5 N2 1_555 1_555
H4 C5 1_555 1_555
C6 Si1 1_555 1_555
H5 C6 1_555 1_555
H6 C6 1_555 1_555
C7 C6 1_555 1_555
H7 C7 1_555 1_555
H8 C7 1_555 1_555
C8 C7 1_555 1_555
H9 C8 1_555 1_555
H10 C8 1_555 1_555
C9 Si1 1_555 1_555
H11 C9 1_555 1_555
H12 C9 1_555 1_555
C10 Si1 1_555 1_555
C11 C10 1_555 1_555
H13 C11 1_555 1_555
C12 C11 1_555 1_555
H14 C12 1_555 1_555
C13 N1 1_555 1_555
H15 C13 1_555 1_555
C14 C10 1_555 1_555
H16 C14 1_555 1_555
C15 N3 1_555 1_555
H17 C15 1_555 1_555
C16 C15 1_555 1_555
H18 C16 1_555 1_555
C17 C16 1_555 1_555
C18 C17 1_555 1_555
H19 C18 1_555 1_555
C19 N3 1_555 1_555
H20 C19 1_555 1_555
C20 Si2 1_555 1_555
H21 C20 1_555 1_555
H22 C20 1_555 1_555
C21 C20 1_555 1_555
H23 C21 1_555 1_555
H24 C21 1_555 1_555
H25 C21 1_555 1_555
C22 Si2 1_555 1_555
H26 C22 1_555 1_555
H27 C22 1_555 1_555
C23 C22 1_555 1_555
H28 C23 1_555 1_555
H29 C23 1_555 1_555
H30 C23 1_555 1_555
C24 Si2 1_555 1_555
C25 C24 1_555 1_555
H31 C25 1_555 1_555
C26 C25 1_555 1_555
H32 C26 1_555 1_555
C27 N4 1_555 1_555
H33 C27 1_555 1_555
C28 C24 1_555 1_555
H34 C28 1_555 1_555
Ag2 N5 1_555 1_555
Si3 C31 1_555 1_555
Si4 C45 1_555 1_555
N5 C29 1_555 1_555
N6 C40 1_555 1_555
N7 Ag2 1_555 1_555
N8 C54 1_555 1_555
C29 H35 1_555 1_555
C30 C29 1_555 1_555
H36 C30 1_555 1_555
C31 C30 1_555 1_555
C32 C31 1_555 1_555
H37 C32 1_555 1_555
C33 N5 1_555 1_555
H38 C33 1_555 1_555
C34 Si3 1_555 1_555
H39 C34 1_555 1_555
H40 C34 1_555 1_555
C35 C34 1_555 1_555
H41 C35 1_555 1_555
H42 C35 1_555 1_555
C36 C35 1_555 1_555
H43 C36 1_555 1_555
H44 C36 1_555 1_555
C37 Si3 1_555 1_555
H45 C37 1_555 1_555
H46 C37 1_555 1_555
C38 Si3 1_555 1_555
C39 C38 1_555 1_555
H47 C39 1_555 1_555
C40 C39 1_555 1_555
H48 C40 1_555 1_555
C41 N6 1_555 1_555
H49 C41 1_555 1_555
C42 C38 1_555 1_555
H50 C42 1_555 1_555
C43 N7 1_555 1_555
H51 C43 1_555 1_555
C44 C43 1_555 1_555
H52 C44 1_555 1_555
C45 C44 1_555 1_555
C46 C45 1_555 1_555
H53 C46 1_555 1_555
C47 N7 1_555 1_555
H54 C47 1_555 1_555
C48 Si4 1_555 1_555
H55 C48 1_555 1_555
H56 C48 1_555 1_555
C49 C48 1_555 1_555
H57 C49 1_555 1_555
H58 C49 1_555 1_555
H59 C49 1_555 1_555
C50 Si4 1_555 1_555
H60 C50 1_555 1_555
H61 C50 1_555 1_555
C51 C50 1_555 1_555
H62 C51 1_555 1_555
H63 C51 1_555 1_555
H64 C51 1_555 1_555
C52 Si4 1_555 1_555
C53 C52 1_555 1_555
H65 C53 1_555 1_555
C54 C53 1_555 1_555
H66 C54 1_555 1_555
C55 N8 1_555 1_555
H67 C55 1_555 1_555
C56 C52 1_555 1_555
H68 C56 1_555 1_555
F1 P1 1_555 1_555
F2 P1 1_555 1_555
F3 P1 1_555 1_555
F4 P1 1_555 1_555
F5 P1 1_555 1_555
F6 P1 1_555 1_555
F7 P2 1_555 1_555
F8 P2 1_555 1_555
F9 P2 1_555 1_555
F10 P2 1_555 1_555
F11 P2 1_555 1_555
F12 P2 1_555 1_555
O1 H69 1_555 1_555
H70 O1 1_555 1_555
O2 H71 1_555 1_555
H72 O2 1_555 1_555
Ag1B N4 1_555 1_555
Ag1C N2 1_555 1_555
N2C Ag1 1_555 1_555
N4B Ag1 1_555 1_555
Ag2A N6 1_555 1_555
Ag2B N8 1_555 1_555
N6A Ag2 1_555 1_555
N8B Ag2 1_555 1_555
C4 C5 1_555 1_555
C8 C9 1_555 1_555
C13 C14 1_555 1_555
C18 C19 1_555 1_555
C27 C28 1_555 1_555
C32 C33 1_555 1_555
C36 C37 1_555 1_555
C41 C42 1_555 1_555
C46 C47 1_555 1_555
C55 C56 1_555 1_555

#END
