
#######################################################################
#
#                 Cambridge Crystallographic Data Centre
#                                CCDC 
#
#######################################################################
#
# If this CIF has been generated from an entry in the Cambridge 
# Structural Database, then it will include bibliographic, chemical, 
# crystal, experimental, refinement or atomic coordinate data resulting 
# from the CCDC's data processing and validation procedures.
#
#######################################################################

data_QIYCAE
_chemical_formula_moiety         '(C58 H72 Ag2 F12 N8 O2 P2 Si4)n'
_symmetry_cell_setting           orthorhombic
_symmetry_space_group_name_H-M   'P 21 21 21'
_symmetry_Int_Tables_number      19
_space_group_name_Hall           'P 2ac 2ab'
loop_
_symmetry_equiv_pos_site_id
_symmetry_equiv_pos_as_xyz
1 x,y,z
2 1/2-x,-y,1/2+z
3 -x,1/2+y,1/2-z
4 1/2+x,1/2-y,-z
_cell_length_a                   18.3100(3)
_cell_length_b                   18.3527(3)
_cell_length_c                   20.2954(3)
_cell_angle_alpha                90
_cell_angle_beta                 90
_cell_angle_gamma                90
_cell_volume                     6820.02
loop_
_atom_site_label
_atom_site_type_symbol
_atom_site_fract_x
_atom_site_fract_y
_atom_site_fract_z
_atom_site_U_iso_or_equiv
_atom_site_thermal_displace_type
Ag1 Ag 0.15932(3) 0.85647(3) 0.65114(3) 0.0488 Uani
Si1 Si 0.53967(12) 0.83228(11) 0.62889(10) 0.0443 Uani
Si2 Si 0.0356(2) 0.66895(16) 0.92963(13) 0.0877 Uani
N1 N 0.2837(3) 0.8529(3) 0.6379(3) 0.0487 Uani
N2 N 0.6109(4) 0.7280(4) 0.4284(3) 0.0567 Uani
N3 N 0.1226(4) 0.7959(3) 0.7453(3) 0.0493 Uani
N4 N -0.0956(4) 0.4621(3) 0.8628(3) 0.0467 Uani
C1 C 0.3262(4) 0.9131(4) 0.6307(4) 0.0563 Uani
H1 H 0.3036 0.9596 0.6283 0.0680 Uiso
C2 C 0.4010(4) 0.9087(4) 0.6270(4) 0.0527 Uani
H2 H 0.4284 0.9523 0.6214 0.0630 Uiso
C3 C 0.4375(4) 0.8437(4) 0.6311(3) 0.0457 Uani
C4 C 0.3925(4) 0.7822(4) 0.6368(4) 0.0483 Uani
H3 H 0.4138 0.7351 0.6385 0.0580 Uiso
C5 C 0.3178(4) 0.7893(4) 0.6400(4) 0.0520 Uani
H4 H 0.2892 0.7464 0.6440 0.0620 Uiso
C6 C 0.5417(5) 0.7292(5) 0.4466(4) 0.0620 Uani
H5 H 0.5070 0.7060 0.4189 0.0740 Uiso
C7 C 0.5162(5) 0.7627(5) 0.5047(4) 0.0560 Uani
H6 H 0.4655 0.7624 0.5149 0.0680 Uiso
C8 C 0.5650(4) 0.7958(4) 0.5464(4) 0.0433 Uani
C9 C 0.6373(5) 0.7958(5) 0.5248(4) 0.0630 Uani
H7 H 0.6735 0.8195 0.5505 0.0760 Uiso
C10 C 0.6569(5) 0.7626(5) 0.4678(4) 0.0607 Uani
H8 H 0.7069 0.7642 0.4554 0.0730 Uiso
C11 C 0.5730(5) 0.7734(5) 0.6975(4) 0.0700 Uani
H9 H 0.5318 0.7493 0.7203 0.0840 Uiso
H10 H 0.6070 0.7357 0.6810 0.0840 Uiso
C12 C 0.6113(9) 0.8253(10) 0.7424(6) 0.1413 Uani
H11 H 0.5767 0.8410 0.7771 0.1700 Uiso
H12 H 0.6520 0.7993 0.7643 0.1700 Uiso
C13 C 0.6398(7) 0.8883(7) 0.7108(7) 0.1120 Uani
H13 H 0.6890 0.8770 0.6935 0.1340 Uiso
H14 H 0.6451 0.9276 0.7438 0.1340 Uiso
C14 C 0.5919(5) 0.9156(5) 0.6543(5) 0.0680 Uani
H15 H 0.6221 0.9343 0.6175 0.0820 Uiso
H16 H 0.5585 0.9546 0.6693 0.0820 Uiso
C15 C 0.0604(5) 0.7578(5) 0.7432(4) 0.0627 Uani
H17 H 0.0337 0.7569 0.7031 0.0750 Uiso
C16 C 0.0332(5) 0.7199(5) 0.7962(4) 0.0607 Uani
H18 H -0.0112 0.6935 0.7918 0.0730 Uiso
C17 C 0.0697(4) 0.7198(4) 0.8560(4) 0.0460 Uani
C18 C 0.1329(4) 0.7612(4) 0.8585(4) 0.0527 Uani
H19 H 0.1602 0.7644 0.8982 0.0630 Uiso
C19 C 0.1560(5) 0.7977(4) 0.8026(4) 0.0520 Uani
H20 H 0.1991 0.8263 0.8059 0.0620 Uiso
C20 C -0.1275(5) 0.5268(4) 0.8696(4) 0.0603 Uani
H21 H -0.1785 0.5304 0.8616 0.0730 Uiso
C21 C -0.0906(5) 0.5884(4) 0.8877(4) 0.0630 Uani
H22 H -0.1164 0.6331 0.8915 0.0760 Uiso
C22 C -0.0158(6) 0.5868(5) 0.9005(4) 0.0613 Uani
C23 C 0.0153(5) 0.5208(5) 0.8928(4) 0.0597 Uani
H23 H 0.0663 0.5157 0.9001 0.0710 Uiso
C24 C -0.0247(5) 0.4602(4) 0.8747(4) 0.0570 Uani
H24 H 0.0000 0.4149 0.8706 0.0680 Uiso
C25 C -0.0342(10) 0.7289(10) 0.9813(8) 0.1573 Uani
H25 H -0.0400 0.7783 0.9623 0.1890 Uiso
H26 H -0.0826 0.7052 0.9848 0.1890 Uiso
C26 C 0.0025(10) 0.7310(10) 1.0432(9) 0.1640 Uani
H27 H -0.0343 0.7370 1.0785 0.1970 Uiso
H28 H 0.0349 0.7742 1.0442 0.1970 Uiso
C27 C 0.0468(7) 0.6650(6) 1.0574(5) 0.0937 Uani
H29 H 0.0142 0.6228 1.0648 0.1120 Uiso
H30 H 0.0760 0.6728 1.0978 0.1120 Uiso
C28 C 0.1006(9) 0.6486(9) 0.9958(7) 0.1410 Uani
H31 H 0.1172 0.5973 0.9948 0.1690 Uiso
H32 H 0.1434 0.6816 0.9950 0.1690 Uiso
Ag1B Ag -0.15932(3) 0.35647(3) 0.84886(3) 0.0488 Uani
Ag1C Ag 0.65932(3) 0.64353(3) 0.34886(3) 0.0488 Uani
N2C N 0.1109(4) 0.7720(4) 0.5716(3) 0.0567 Uani
N4B N 0.0956(4) 0.9621(3) 0.6372(3) 0.0467 Uani
Ag2 Ag 0.33853(3) 0.62509(3) 0.84612(3) 0.0550 Uani
Si3 Si 0.37575(13) 1.00795(13) 0.86529(10) 0.0493 Uani
Si4 Si 0.04669(12) 0.50959(12) 0.64992(12) 0.0498 Uani
N5 N 0.3476(4) 0.7523(3) 0.8533(3) 0.0563 Uani
N6 N 0.5653(4) 1.0966(4) 0.7305(3) 0.0490 Uani
N7 N 0.2393(3) 0.5843(4) 0.7877(3) 0.0483 Uani
N8 N 0.1306(4) 0.4183(4) 0.4474(3) 0.0597 Uani
C29 C 0.3205(4) 0.7927(4) 0.9035(4) 0.0570 Uani
H33 H 0.2953 0.7680 0.9378 0.0680 Uiso
C30 C 0.3270(4) 0.8663(4) 0.9083(4) 0.0507 Uani
H34 H 0.3052 0.8911 0.9443 0.0610 Uiso
C31 C 0.3660(4) 0.9063(4) 0.8601(3) 0.0463 Uani
C32 C 0.3950(4) 0.8633(5) 0.8086(3) 0.0537 Uani
H35 H 0.4222 0.8859 0.7744 0.0640 Uiso
C33 C 0.3844(5) 0.7890(5) 0.8076(4) 0.0627 Uani
H36 H 0.4046 0.7623 0.7719 0.0750 Uiso
C34 C 0.4945(5) 1.1007(5) 0.7127(4) 0.0573 Uani
H37 H 0.4831 1.1234 0.6720 0.0680 Uiso
C35 C 0.4378(4) 1.0740(5) 0.7500(4) 0.0520 Uani
H38 H 0.3890 1.0791 0.7348 0.0620 Uiso
C36 C 0.4511(4) 1.0399(4) 0.8093(4) 0.0473 Uani
C37 C 0.5245(4) 1.0358(5) 0.8283(4) 0.0560 Uani
H39 H 0.5377 1.0130 0.8686 0.0680 Uiso
C38 C 0.5770(5) 1.0649(5) 0.7882(4) 0.0577 Uani
H40 H 0.6261 1.0622 0.8030 0.0690 Uiso
C39 C 0.2861(5) 1.0548(5) 0.8502(5) 0.0663 Uani
H41 H 0.2902 1.0910 0.8142 0.0800 Uiso
H42 H 0.2474 1.0193 0.8391 0.0800 Uiso
C40 C 0.2713(9) 1.0912(11) 0.9155(7) 0.1833 Uani
H43 H 0.2686 1.1444 0.9073 0.2210 Uiso
H44 H 0.2221 1.0756 0.9301 0.2210 Uiso
C41 C 0.3172(7) 1.0808(7) 0.9659(6) 0.1057 Uani
H45 H 0.2900 1.0553 1.0013 0.1270 Uiso
H46 H 0.3311 1.1292 0.9834 0.1270 Uiso
C42 C 0.3865(6) 1.0386(5) 0.9530(4) 0.0653 Uani
H47 H 0.3908 0.9963 0.9831 0.0780 Uiso
H48 H 0.4301 1.0700 0.9582 0.0780 Uiso
C43 C 0.2033(4) 0.5219(4) 0.7993(4) 0.0560 Uani
H49 H 0.2168 0.4935 0.8365 0.0680 Uiso
C44 C 0.1475(5) 0.4974(4) 0.7593(4) 0.0547 Uani
H50 H 0.1241 0.4526 0.7695 0.0660 Uiso
C45 C 0.1247(4) 0.5366(4) 0.7043(4) 0.0477 Uani
C46 C 0.1626(5) 0.6026(4) 0.6940(4) 0.0623 Uani
H51 H 0.1497 0.6333 0.6581 0.0750 Uiso
C47 C 0.2186(5) 0.6228(5) 0.7361(4) 0.0613 Uani
H52 H 0.2436 0.6671 0.7273 0.0740 Uiso
C48 C 0.0603(6) 0.4195(7) 0.4638(5) 0.0967 Uani
H53 H 0.0258 0.4003 0.4336 0.1160 Uiso
C49 C 0.0351(5) 0.4474(7) 0.5232(5) 0.0990 Uani
H54 H -0.0158 0.4469 0.5323 0.1190 Uiso
C50 C 0.0824(4) 0.4758(5) 0.5690(4) 0.0540 Uani
C51 C 0.1542(5) 0.4766(6) 0.5494(4) 0.0720 Uani
H55 H 0.1902 0.4967 0.5777 0.0860 Uiso
C52 C 0.1746(5) 0.4486(6) 0.4893(4) 0.0750 Uani
H56 H 0.2247 0.4518 0.4776 0.0900 Uiso
C53 C -0.0220(5) 0.5848(4) 0.6400(5) 0.0667 Uani
H57 H -0.0011 0.6328 0.6519 0.0800 Uiso
H58 H -0.0416 0.5868 0.5946 0.0800 Uiso
C54 C -0.0809(5) 0.5599(5) 0.6902(5) 0.0757 Uani
H59 H -0.0653 0.5727 0.7355 0.0910 Uiso
H60 H -0.1276 0.5852 0.6810 0.0910 Uiso
C55 C -0.0914(5) 0.4801(5) 0.6849(5) 0.0713 Uani
H61 H -0.1149 0.4680 0.6424 0.0860 Uiso
H62 H -0.1235 0.4628 0.7209 0.0860 Uiso
C56 C -0.0174(4) 0.4431(5) 0.6895(4) 0.0557 Uani
H63 H -0.0175 0.3961 0.6656 0.0670 Uiso
H64 H -0.0037 0.4342 0.7360 0.0670 Uiso
Ag2A Ag 0.16147(3) 0.37491(3) 0.34612(3) 0.0550 Uani
Ag2B Ag 0.66147(3) 1.12509(3) 0.65388(3) 0.0550 Uani
N6B N 0.4347(4) 0.5966(4) 0.7695(3) 0.0490 Uani
N8A N 0.3694(4) 0.5817(4) 0.9474(3) 0.0597 Uani
P1 P 0.18379(14) 0.86724(14) 0.07431(13) 0.0713 Uani
F1 F 0.2256(4) 0.9325(3) 0.0418(3) 0.0933 Uani
F2 F 0.1145(4) 0.9164(4) 0.0850(3) 0.1127 Uani
F3 F 0.2133(3) 0.8929(4) 0.1443(3) 0.1083 Uani
F4 F 0.1435(5) 0.8013(4) 0.1102(3) 0.1350 Uani
F5 F 0.1548(5) 0.8418(4) 0.0056(3) 0.1163 Uani
F6 F 0.2535(4) 0.8198(4) 0.0638(4) 0.1327 Uani
P2 P 0.15976(18) 0.39287(15) 0.01279(17) 0.0863 Uani
F7 F 0.1505(4) 0.4745(3) 0.0330(5) 0.1660 Uani
F8 F 0.1113(8) 0.3970(7) -0.0495(7) 0.2497 Uani
F9 F 0.0893(5) 0.3778(6) 0.0463(8) 0.2363 Uani
F10 F 0.2061(7) 0.3824(4) 0.0728(5) 0.2277 Uani
F11 F 0.2249(6) 0.4106(5) -0.0318(7) 0.2083 Uani
F12 F 0.1700(4) 0.3094(3) -0.0054(3) 0.1040 Uani
O1 O 0.1495(11) 0.2593(10) 0.8286(14) 0.4067 Uani
H65 H 0.1935 0.2720 0.8307 0.4870 Uiso
C57 C 0.1101(11) 0.3147(11) 0.8237(12) 0.1890 Uani
H66 H 0.0771 0.3173 0.8617 0.2270 Uiso
H67 H 0.0814 0.3119 0.7831 0.2270 Uiso
H68 H 0.1409 0.3583 0.8226 0.2270 Uiso
O2 O 0.3208(13) 0.7416(12) 0.1843(12) 0.3767 Uani
H69 H 0.3144 0.7339 0.2247 0.4490 Uiso
C58 C 0.323(3) 0.6822(18) 0.154(2) 0.4033 Uani
H70 H 0.3605 0.6840 0.1202 0.4860 Uiso
H71 H 0.2750 0.6733 0.1335 0.4860 Uiso
H72 H 0.3335 0.6429 0.1853 0.4860 Uiso
loop_
_atom_site_aniso_label
_atom_site_aniso_U_11
_atom_site_aniso_U_22
_atom_site_aniso_U_33
_atom_site_aniso_U_23
_atom_site_aniso_U_13
_atom_site_aniso_U_12
Ag1 0.0471(3) 0.0502(3) 0.0491(3) 0.0049(3) 0.0013(3) 0.0003(3)
Si1 0.0429(12) 0.0439(12) 0.0461(12) -0.0009(9) 0.0018(9) -0.0001(10)
Si2 0.143(3) 0.0743(19) 0.0457(15) 0.0026(13) 0.0062(17) -0.064(2)
N1 0.044(4) 0.050(4) 0.052(4) 0.006(3) -0.004(3) -0.003(3)
N2 0.054(5) 0.059(5) 0.057(4) -0.008(4) 0.007(4) -0.007(4)
N3 0.052(4) 0.047(4) 0.049(4) -0.002(3) 0.006(3) -0.014(3)
N4 0.055(4) 0.040(3) 0.045(4) -0.003(3) 0.010(3) -0.005(3)
C1 0.051(6) 0.053(5) 0.065(5) 0.007(4) 0.001(4) 0.005(4)
C2 0.044(5) 0.043(4) 0.071(6) 0.012(4) 0.011(4) -0.005(4)
C3 0.050(5) 0.045(5) 0.042(4) -0.002(3) 0.008(3) 0.006(4)
C4 0.049(5) 0.041(4) 0.055(5) -0.002(4) 0.006(4) 0.004(4)
C5 0.054(5) 0.049(4) 0.053(5) 0.013(4) -0.002(4) -0.013(4)
C6 0.047(5) 0.076(6) 0.063(6) -0.013(5) 0.006(4) -0.010(5)
C7 0.051(5) 0.064(6) 0.053(5) -0.011(4) 0.019(4) -0.009(4)
C8 0.038(4) 0.043(4) 0.049(5) 0.001(4) 0.000(4) 0.001(4)
C9 0.051(6) 0.076(6) 0.062(6) -0.015(5) 0.014(4) -0.020(4)
C10 0.040(5) 0.083(6) 0.059(5) -0.010(4) 0.008(4) -0.016(5)
C11 0.070(6) 0.080(7) 0.060(6) 0.022(5) 0.000(5) 0.007(5)
C12 0.125(12) 0.218(19) 0.081(9) 0.017(11) -0.039(8) -0.014(13)
C13 0.082(9) 0.100(9) 0.154(12) -0.046(9) -0.048(8) -0.004(7)
C14 0.067(6) 0.063(5) 0.074(6) -0.017(5) 0.000(5) -0.019(4)
C15 0.075(7) 0.064(6) 0.049(5) 0.008(4) -0.015(5) -0.011(5)
C16 0.055(6) 0.062(6) 0.065(6) 0.001(4) 0.003(5) -0.021(4)
C17 0.056(5) 0.034(4) 0.048(5) -0.002(4) 0.011(4) -0.003(3)
C18 0.055(5) 0.053(4) 0.050(5) 0.011(4) -0.004(4) -0.013(4)
C19 0.047(5) 0.055(5) 0.054(5) 0.005(4) 0.003(4) -0.003(4)
C20 0.050(5) 0.052(5) 0.079(6) -0.005(4) 0.011(4) 0.000(4)
C21 0.078(7) 0.037(5) 0.074(6) 0.000(4) 0.016(5) -0.007(5)
C22 0.086(7) 0.062(6) 0.036(4) 0.013(4) 0.008(4) -0.025(5)
C23 0.045(5) 0.066(6) 0.068(6) 0.008(5) 0.003(4) -0.012(5)
C24 0.057(6) 0.041(5) 0.073(6) 0.005(4) 0.014(4) 0.009(4)
C25 0.163(8) 0.162(8) 0.147(8) -0.016(6) 0.019(6) -0.023(6)
C26 0.148(8) 0.179(9) 0.165(8) 0.008(6) -0.002(6) -0.023(6)
C27 0.103(6) 0.100(6) 0.078(5) 0.014(5) 0.006(5) -0.026(5)
C28 0.155(8) 0.120(7) 0.148(8) 0.020(6) -0.004(6) -0.041(6)
Ag1B 0.0471 0.0502 0.0491 -0.0049 0.0013 -0.0003
Ag1C 0.0471 0.0502 0.0491 0.0049 -0.0013 -0.0003
N2C 0.054 0.059 0.057 -0.008 -0.007 0.007
N4B 0.055 0.04 0.045 0.003 0.01 0.005
Ag2 0.0529(4) 0.0624(4) 0.0497(3) -0.0044(3) -0.0044(3) -0.0076(3)
Si3 0.0539(13) 0.0542(13) 0.0398(13) -0.0041(10) 0.0018(10) -0.0054(11)
Si4 0.0466(12) 0.0573(13) 0.0455(12) 0.0015(12) -0.0014(11) -0.0119(10)
N5 0.069(4) 0.055(4) 0.045(4) -0.005(3) 0.007(4) -0.009(4)
N6 0.048(4) 0.056(4) 0.043(4) 0.001(3) -0.005(3) 0.000(3)
N7 0.039(4) 0.061(4) 0.045(4) -0.002(3) -0.002(3) -0.009(3)
N8 0.054(4) 0.078(5) 0.047(4) -0.006(4) 0.002(3) -0.025(4)
C29 0.061(6) 0.054(5) 0.056(5) 0.010(4) 0.009(4) -0.006(4)
C30 0.052(5) 0.053(5) 0.047(4) -0.009(4) 0.008(4) -0.005(4)
C31 0.049(4) 0.054(4) 0.036(4) 0.000(3) -0.001(3) -0.005(3)
C32 0.066(5) 0.063(6) 0.032(4) 0.006(4) 0.015(4) -0.004(4)
C33 0.079(6) 0.068(6) 0.041(5) -0.013(4) 0.008(4) 0.001(5)
C34 0.062(6) 0.069(6) 0.041(4) 0.008(4) -0.004(4) 0.017(5)
C35 0.037(5) 0.075(6) 0.044(5) -0.005(4) -0.006(4) -0.003(4)
C36 0.057(5) 0.044(4) 0.041(4) -0.004(3) 0.004(4) 0.009(4)
C37 0.051(5) 0.069(6) 0.048(5) 0.016(4) -0.009(4) -0.003(4)
C38 0.040(5) 0.076(6) 0.057(5) 0.007(5) -0.008(4) 0.001(4)
C39 0.064(6) 0.059(5) 0.076(6) 0.000(5) 0.007(5) 0.007(4)
C40 0.150(14) 0.29(2) 0.110(12) -0.076(14) -0.012(10) 0.133(15)
C41 0.143(12) 0.102(9) 0.072(8) -0.041(7) 0.013(8) 0.005(8)
C42 0.086(7) 0.067(6) 0.043(5) -0.012(4) 0.007(5) -0.012(5)
C43 0.054(5) 0.054(5) 0.060(5) 0.014(4) -0.005(4) -0.008(4)
C44 0.051(5) 0.046(4) 0.067(5) 0.011(4) -0.008(4) -0.017(4)
C45 0.049(5) 0.056(5) 0.038(4) 0.002(4) 0.001(4) -0.011(4)
C46 0.062(5) 0.068(5) 0.057(5) 0.019(4) -0.015(5) -0.027(5)
C47 0.059(5) 0.069(6) 0.056(5) 0.014(5) -0.013(4) -0.020(5)
C48 0.061(7) 0.173(12) 0.056(6) -0.045(7) 0.002(5) -0.048(7)
C49 0.047(6) 0.181(12) 0.069(7) -0.048(7) 0.011(5) -0.035(7)
C50 0.056(5) 0.059(5) 0.047(5) 0.004(4) -0.002(4) -0.017(4)
C51 0.044(5) 0.123(8) 0.049(5) -0.016(5) -0.003(4) -0.027(6)
C52 0.048(6) 0.128(8) 0.049(5) -0.016(5) 0.005(4) -0.009(6)
C53 0.075(6) 0.055(5) 0.070(6) 0.005(5) -0.004(5) -0.014(4)
C54 0.055(6) 0.075(7) 0.097(8) -0.011(6) 0.009(5) -0.002(5)
C55 0.055(6) 0.078(7) 0.081(7) 0.000(5) 0.008(5) 0.000(5)
C56 0.052(5) 0.059(5) 0.056(5) 0.005(4) -0.001(4) -0.009(4)
Ag2A 0.0529 0.0624 0.0497 0.0044 0.0044 -0.0076
Ag2B 0.0529 0.0624 0.0497 0.0044 -0.0044 0.0076
N6B 0.048 0.056 0.043 -0.001 -0.005 0
N8A 0.054 0.078 0.047 0.006 -0.002 -0.025
P1 0.0783(18) 0.0664(16) 0.0692(16) -0.0254(13) 0.0243(13) -0.0277(14)
F1 0.119(5) 0.084(4) 0.077(4) -0.013(3) 0.035(4) -0.041(4)
F2 0.082(4) 0.142(6) 0.114(5) -0.036(5) 0.032(4) -0.004(4)
F3 0.116(5) 0.138(5) 0.071(4) -0.019(4) 0.020(4) -0.047(4)
F4 0.189(8) 0.106(5) 0.110(5) 0.002(4) 0.025(5) -0.080(5)
F5 0.133(6) 0.134(5) 0.082(4) -0.038(4) 0.007(4) -0.055(5)
F6 0.141(6) 0.106(5) 0.151(7) -0.020(5) 0.032(5) 0.032(5)
P2 0.0561(16) 0.0729(18) 0.130(2) 0.0111(16) -0.0085(19) 0.0113(16)
F7 0.117(6) 0.057(4) 0.324(12) 0.010(5) 0.027(7) 0.010(4)
F8 0.262(13) 0.243(13) 0.244(13) 0.009(10) -0.097(11) 0.155(11)
F9 0.124(7) 0.155(8) 0.43(2) -0.142(11) 0.128(10) -0.053(6)
F10 0.361(15) 0.090(5) 0.232(10) -0.057(6) -0.219(11) 0.075(7)
F11 0.158(9) 0.111(7) 0.356(16) -0.013(9) 0.120(10) -0.045(6)
F12 0.096(5) 0.079(4) 0.137(5) -0.019(4) -0.027(4) 0.005(4)
O1 0.36(3) 0.28(2) 0.58(4) -0.09(3) 0.21(3) -0.03(2)
C57 0.144(13) 0.198(15) 0.225(16) 0.084(14) 0.028(12) 0.011(12)
O2 0.27(2) 0.43(4) 0.43(4) 0.22(3) -0.05(2) 0.03(3)
C58 0.44(3) 0.36(3) 0.41(3) -0.026(19) 0.012(19) 0.02(2)
loop_
_geom_bond_atom_site_label_1
_geom_bond_atom_site_label_2
_geom_bond_site_symmetry_1
_geom_bond_site_symmetry_2
Ag1 N1 1_555 1_555
Si1 C3 1_555 1_555
Si2 C17 1_555 1_555
N1 C1 1_555 1_555
N2 C6 1_555 1_555
N3 Ag1 1_555 1_555
N4 C20 1_555 1_555
C1 H1 1_555 1_555
C2 C1 1_555 1_555
H2 C2 1_555 1_555
C3 C2 1_555 1_555
C4 C3 1_555 1_555
H3 C4 1_555 1_555
C5 N1 1_555 1_555
H4 C5 1_555 1_555
C6 H5 1_555 1_555
C7 C6 1_555 1_555
H6 C7 1_555 1_555
C8 Si1 1_555 1_555
C9 C8 1_555 1_555
H7 C9 1_555 1_555
C10 N2 1_555 1_555
H8 C10 1_555 1_555
C11 Si1 1_555 1_555
H9 C11 1_555 1_555
H10 C11 1_555 1_555
C12 C11 1_555 1_555
H11 C12 1_555 1_555
H12 C12 1_555 1_555
C13 C12 1_555 1_555
H13 C13 1_555 1_555
H14 C13 1_555 1_555
C14 Si1 1_555 1_555
H15 C14 1_555 1_555
H16 C14 1_555 1_555
C15 N3 1_555 1_555
H17 C15 1_555 1_555
C16 C15 1_555 1_555
H18 C16 1_555 1_555
C17 C16 1_555 1_555
C18 C17 1_555 1_555
H19 C18 1_555 1_555
C19 N3 1_555 1_555
H20 C19 1_555 1_555
C20 H21 1_555 1_555
C21 C20 1_555 1_555
H22 C21 1_555 1_555
C22 Si2 1_555 1_555
C23 C22 1_555 1_555
H23 C23 1_555 1_555
C24 N4 1_555 1_555
H24 C24 1_555 1_555
C25 Si2 1_555 1_555
H25 C25 1_555 1_555
H26 C25 1_555 1_555
C26 C25 1_555 1_555
H27 C26 1_555 1_555
H28 C26 1_555 1_555
C27 C26 1_555 1_555
H29 C27 1_555 1_555
H30 C27 1_555 1_555
C28 Si2 1_555 1_555
H31 C28 1_555 1_555
H32 C28 1_555 1_555
Ag2 N5 1_555 1_555
Si3 C31 1_555 1_555
Si4 C45 1_555 1_555
N5 C29 1_555 1_555
N6 C34 1_555 1_555
N7 Ag2 1_555 1_555
N8 C48 1_555 1_555
C29 H33 1_555 1_555
C30 C29 1_555 1_555
H34 C30 1_555 1_555
C31 C30 1_555 1_555
C32 C31 1_555 1_555
H35 C32 1_555 1_555
C33 N5 1_555 1_555
H36 C33 1_555 1_555
C34 H37 1_555 1_555
C35 C34 1_555 1_555
H38 C35 1_555 1_555
C36 Si3 1_555 1_555
C37 C36 1_555 1_555
H39 C37 1_555 1_555
C38 N6 1_555 1_555
H40 C38 1_555 1_555
C39 Si3 1_555 1_555
H41 C39 1_555 1_555
H42 C39 1_555 1_555
C40 C39 1_555 1_555
H43 C40 1_555 1_555
H44 C40 1_555 1_555
C41 C40 1_555 1_555
H45 C41 1_555 1_555
H46 C41 1_555 1_555
C42 Si3 1_555 1_555
H47 C42 1_555 1_555
H48 C42 1_555 1_555
C43 N7 1_555 1_555
H49 C43 1_555 1_555
C44 C43 1_555 1_555
H50 C44 1_555 1_555
C45 C44 1_555 1_555
C46 C45 1_555 1_555
H51 C46 1_555 1_555
C47 N7 1_555 1_555
H52 C47 1_555 1_555
C48 H53 1_555 1_555
C49 C48 1_555 1_555
H54 C49 1_555 1_555
C50 Si4 1_555 1_555
C51 C50 1_555 1_555
H55 C51 1_555 1_555
C52 N8 1_555 1_555
H56 C52 1_555 1_555
C53 Si4 1_555 1_555
H57 C53 1_555 1_555
H58 C53 1_555 1_555
C54 C53 1_555 1_555
H59 C54 1_555 1_555
H60 C54 1_555 1_555
C55 C54 1_555 1_555
H61 C55 1_555 1_555
H62 C55 1_555 1_555
C56 Si4 1_555 1_555
H63 C56 1_555 1_555
H64 C56 1_555 1_555
P1 F1 1_555 1_555
F2 P1 1_555 1_555
F3 P1 1_555 1_555
F4 P1 1_555 1_555
F5 P1 1_555 1_555
F6 P1 1_555 1_555
P2 F7 1_555 1_555
F8 P2 1_555 1_555
F9 P2 1_555 1_555
F10 P2 1_555 1_555
F11 P2 1_555 1_555
F12 P2 1_555 1_555
O1 H65 1_555 1_555
C57 O1 1_555 1_555
H66 C57 1_555 1_555
H67 C57 1_555 1_555
H68 C57 1_555 1_555
O2 H69 1_555 1_555
C58 O2 1_555 1_555
H70 C58 1_555 1_555
H71 C58 1_555 1_555
H72 C58 1_555 1_555
Ag1B N4 1_555 1_555
Ag1C N2 1_555 1_555
N2C Ag1 1_555 1_555
N4B Ag1 1_555 1_555
Ag2A N8 1_555 1_555
Ag2B N6 1_555 1_555
N6B Ag2 1_555 1_555
N8A Ag2 1_555 1_555
C4 C5 1_555 1_555
C7 C8 1_555 1_555
C9 C10 1_555 1_555
C13 C14 1_555 1_555
C18 C19 1_555 1_555
C21 C22 1_555 1_555
C23 C24 1_555 1_555
C27 C28 1_555 1_555
C32 C33 1_555 1_555
C35 C36 1_555 1_555
C37 C38 1_555 1_555
C41 C42 1_555 1_555
C46 C47 1_555 1_555
C49 C50 1_555 1_555
C51 C52 1_555 1_555
C55 C56 1_555 1_555

#END
