
#######################################################################
#
#                 Cambridge Crystallographic Data Centre
#                                CCDC 
#
#######################################################################
#
# If this CIF has been generated from an entry in the Cambridge 
# Structural Database, then it will include bibliographic, chemical, 
# crystal, experimental, refinement or atomic coordinate data resulting 
# from the CCDC's data processing and validation procedures.
#
#######################################################################

data_AQAJEI
_chemical_formula_moiety         '(C24 H18 N7 O6 Zn1)n'
_symmetry_cell_setting           orthorhombic
_symmetry_space_group_name_H-M   'P b c n'
_symmetry_Int_Tables_number      60
_space_group_name_Hall           '-P 2n 2ab'
loop_
_symmetry_equiv_pos_site_id
_symmetry_equiv_pos_as_xyz
1 x,y,z
2 1/2-x,1/2-y,1/2+z
3 -x,y,1/2-z
4 1/2+x,1/2-y,-z
5 -x,-y,-z
6 1/2+x,1/2+y,1/2-z
7 x,-y,1/2+z
8 1/2-x,1/2+y,z
_cell_length_a                   19.7665(9)
_cell_length_b                   15.8012(8)
_cell_length_c                   16.9680(8)
_cell_angle_alpha                90
_cell_angle_beta                 90
_cell_angle_gamma                90
_cell_volume                     5299.69
loop_
_atom_site_label
_atom_site_type_symbol
_atom_site_fract_x
_atom_site_fract_y
_atom_site_fract_z
_atom_site_U_iso_or_equiv
_atom_site_thermal_displace_type
C3 C 0.8802(11) 0.2225(13) 0.8851(12) 0.1610 Uani
H1 H 0.8489 0.2697 0.8831 0.1930 Uiso
H2 H 0.8702 0.1875 0.8396 0.1930 Uiso
C4 C 0.9539(12) 0.2619(16) 0.8697(16) 0.1857 Uani
O2 O 0.8596(6) 0.1684(7) 0.9602(8) 0.1337 Uani
H3 H 0.8396 0.1256 0.9460 0.2010 Uiso
C5 C 0.1470(4) 0.4248(4) 1.2037(4) 0.0317 Uani
H4 H 0.1172 0.4198 1.2459 0.0380 Uiso
C6 C 0.2297(4) 0.4009(4) 1.1259(4) 0.0293 Uani
H5 H 0.2679 0.3777 1.1024 0.0350 Uiso
C7 C 0.2178(3) 0.2975(4) 1.2347(4) 0.0273 Uani
C8 C 0.2137(3) 0.2987(4) 1.3162(4) 0.0307 Uani
H6 H 0.2024 0.3484 1.3425 0.0370 Uiso
C9 C 0.2265(4) 0.2256(4) 1.3580(4) 0.0323 Uani
H7 H 0.2230 0.2256 1.4126 0.0390 Uiso
C10 C 0.2448(4) 0.1518(4) 1.3187(4) 0.0310 Uani
C11 C 0.2494(5) 0.1513(5) 1.2372(4) 0.0407 Uani
H8 H 0.2618 0.1020 1.2110 0.0480 Uiso
C12 C 0.2355(4) 0.2251(5) 1.1942(4) 0.0370 Uani
H9 H 0.2381 0.2252 1.1395 0.0440 Uiso
C13 C 0.2598(4) 0.0720(4) 1.3646(4) 0.0313 Uani
C14 C 0.0939(4) 0.6422(5) 0.9816(5) 0.0337 Uani
H10 H 0.1147 0.6873 1.0072 0.0410 Uiso
C15 C 0.0204(4) 0.5641(5) 0.9220(5) 0.0440 Uani
H11 H -0.0198 0.5457 0.8991 0.0530 Uiso
C16 C -0.0216(4) 0.7060(5) 0.9637(5) 0.0373 Uani
C17 C -0.0866(4) 0.6839(5) 0.9807(4) 0.0347 Uani
H12 H -0.0985 0.6274 0.9871 0.0420 Uiso
C18 C -0.1344(4) 0.7473(5) 0.9881(4) 0.0357 Uani
H13 H -0.1788 0.7331 1.0009 0.0430 Uiso
C19 C -0.1176(4) 0.8307(5) 0.9770(5) 0.0397 Uani
C20 C -0.0512(5) 0.8526(6) 0.9588(7) 0.0630 Uani
H14 H -0.0395 0.9092 0.9520 0.0750 Uiso
C21 C -0.0027(4) 0.7902(5) 0.9509(7) 0.0610 Uani
H15 H 0.0415 0.8039 0.9373 0.0730 Uiso
C22 C -0.1701(4) 0.8997(6) 0.9831(5) 0.0453 Uani
N2 N 0.1431(3) 0.4827(4) 1.1508(3) 0.0337 Uani
N3 N 0.1972(3) 0.4673(3) 1.1000(3) 0.0263 Uani
N4 N 0.2002(3) 0.3714(3) 1.1908(3) 0.0277 Uani
N5 N 0.0760(3) 0.5189(4) 0.9263(4) 0.0390 Uani
N6 N 0.1229(3) 0.5695(4) 0.9655(3) 0.0283 Uani
N7 N 0.0291(3) 0.6415(4) 0.9555(4) 0.0313 Uani
O3 O 0.2633(4) 0.0036(3) 1.3307(3) 0.0537 Uani
O4 O 0.2689(2) 0.0826(3) 1.4380(3) 0.0307 Uani
O5 O -0.2300(3) 0.8753(4) 0.9981(3) 0.0410 Uani
O6 O -0.1547(4) 0.9745(4) 0.9756(5) 0.0733 Uani
Zn1 Zn 0.21462(4) 0.52288(4) 0.99343(4) 0.0220 Uani
O4A O 0.2311(2) 0.4174(3) 0.9380(3) 0.0307 Uani
O5C O 0.2700(3) 0.6247(4) 1.0019(3) 0.0410 Uani
Zn1A Zn 0.28538(4) -0.02288(4) 1.49343(4) 0.0220 Uani
Zn1C Zn -0.28538(4) 0.97712(4) 1.00657(4) 0.0220 Uani
C1 C 0.5344(9) 0.2303(10) 0.7506(12) 0.0690 Uani
C2 C 0.5574(13) 0.3624(16) 0.7426(14) 0.1773 Uani
N1 N 0.5000 0.3044(9) 0.7500 0.0787 Uani
O1 O 0.5000 0.1599(8) 0.7500 0.0800 Uani
C1B C 0.4656(9) 0.2303(10) 0.7494(12) 0.0690 Uani
C2B C 0.4426(13) 0.3624(16) 0.7574(14) 0.1773 Uani
loop_
_atom_site_aniso_label
_atom_site_aniso_U_11
_atom_site_aniso_U_22
_atom_site_aniso_U_33
_atom_site_aniso_U_23
_atom_site_aniso_U_13
_atom_site_aniso_U_12
C3 0.162(11) 0.148(11) 0.173(11) -0.016(9) -0.004(9) 0.017(9)
C4 0.184(12) 0.197(13) 0.176(12) -0.008(9) 0.010(9) -0.007(9)
O2 0.127(9) 0.092(8) 0.182(11) -0.017(8) -0.036(9) -0.023(7)
C5 0.037 0.031 0.027 0.007 0.006 0.01
C6 0.03 0.034 0.024 0.004 0 0.005
C7 0.031 0.026 0.025 0.006 -0.002 0.005
C8 0.04 0.026 0.026 -0.002 -0.006 0.008
C9 0.046 0.031 0.02 0.004 -0.004 0.001
C10 0.04 0.027 0.026 0.004 -0.003 0.005
C11 0.065 0.028 0.029 -0.003 0.008 0.016
C12 0.053 0.04 0.018 0.002 0.001 0.012
C13 0.035 0.028 0.031 0.003 -0.002 0.005
C14 0.025 0.028 0.048 -0.003 0 0.002
C15 0.032 0.048 0.052 -0.019 -0.017 0.012
C16 0.031 0.039 0.042 0.003 0.005 0.013
C17 0.034 0.031 0.039 0.001 -0.001 0.006
C18 0.033 0.042 0.032 0.006 -0.001 0.012
C19 0.035 0.04 0.044 0.008 0.003 0.016
C20 0.049 0.034 0.106 0.021 0.017 0.011
C21 0.035 0.041 0.107 0.023 0.024 0.008
C22 0.041 0.05 0.045 -0.001 0.004 0.023
N2 0.037 0.034 0.03 0.004 0.005 0.009
N3 0.029 0.027 0.023 0.001 0.004 0.001
N4 0.036 0.024 0.023 0.003 -0.001 0.005
N5 0.032 0.034 0.051 -0.015 -0.011 0.009
N6 0.031 0.026 0.028 0 -0.002 0.003
N7 0.025 0.032 0.037 0 -0.003 0.008
O3 0.093 0.026 0.042 0.003 -0.005 0.011
O4 0.041 0.025 0.026 0.006 -0.003 0.004
O5 0.046 0.04 0.037 0 0.005 0.015
O6 0.051 0.037 0.132 0.012 0.024 0.018
Zn1 0.0236 0.0187 0.0238 0.0001 -0.0008 0.0006
O4A 0.041 0.025 0.026 -0.006 0.003 0.004
O5C 0.046 0.04 0.037 0 -0.005 -0.015
Zn1A 0.0236 0.0187 0.0238 -0.0001 0.0008 0.0006
Zn1C 0.0236 0.0187 0.0238 0.0001 0.0008 -0.0006
C1 0.065(14) 0.090(16) 0.052(12) -0.004(12) -0.004(10) 0.036(13)
C2 0.163 0.194 0.175 -0.016 0.003 -0.035
N1 0.063(9) 0.080(9) 0.093(10) 0.000 -0.009(7) 0.000
O1 0.059(7) 0.085(8) 0.096(9) 0.000 -0.018(6) 0.000
C1B 0.065 0.09 0.052 0.004 -0.004 -0.036
C2B 0.163(11) 0.194(12) 0.175(12) 0.016(9) 0.003(9) 0.035(9)
loop_
_geom_bond_atom_site_label_1
_geom_bond_atom_site_label_2
_geom_bond_site_symmetry_1
_geom_bond_site_symmetry_2
C1 N1 1_555 1_555
C2 N1 1_555 1_555
N1 C1B 1_555 1_555
O1 C1 1_555 1_555
C3 H1 1_555 1_555
H2 C3 1_555 1_555
C4 C3 1_555 1_555
O2 C3 1_555 1_555
H3 O2 1_555 1_555
C5 H4 1_555 1_555
C6 H5 1_555 1_555
C7 C8 1_555 1_555
C8 H6 1_555 1_555
C9 C8 1_555 1_555
H7 C9 1_555 1_555
C10 C9 1_555 1_555
C11 C10 1_555 1_555
H8 C11 1_555 1_555
C12 C7 1_555 1_555
H9 C12 1_555 1_555
C13 C10 1_555 1_555
C14 H10 1_555 1_555
C15 H11 1_555 1_555
C16 C17 1_555 1_555
C17 H12 1_555 1_555
C18 C17 1_555 1_555
H13 C18 1_555 1_555
C19 C18 1_555 1_555
C20 C19 1_555 1_555
H14 C20 1_555 1_555
C21 C16 1_555 1_555
H15 C21 1_555 1_555
C22 C19 1_555 1_555
N2 C5 1_555 1_555
N3 C6 1_555 1_555
N4 C5 1_555 1_555
N5 C15 1_555 1_555
N6 C14 1_555 1_555
N7 C14 1_555 1_555
O3 C13 1_555 1_555
O4 C13 1_555 1_555
O5 C22 1_555 1_555
O6 C22 1_555 1_555
Zn1 N3 1_555 1_555
C1B C1 1_555 1_555
C2B N1 1_555 1_555
O4A Zn1 1_555 1_555
O5C Zn1 1_555 1_555
Zn1A O4 1_555 1_555
Zn1C O5 1_555 1_555
O1 C1B 1_555 1_555
C6 N4 1_555 1_555
C7 N4 1_555 1_555
C11 C12 1_555 1_555
C15 N7 1_555 1_555
C16 N7 1_555 1_555
C20 C21 1_555 1_555
N2 N3 1_555 1_555
N5 N6 1_555 1_555
N6 Zn1 1_555 1_555

#END
