
#######################################################################
#
#                 Cambridge Crystallographic Data Centre
#                                CCDC 
#
#######################################################################
#
# If this CIF has been generated from an entry in the Cambridge 
# Structural Database, then it will include bibliographic, chemical, 
# crystal, experimental, refinement or atomic coordinate data resulting 
# from the CCDC's data processing and validation procedures.
#
#######################################################################

data_OROKEN
_chemical_formula_moiety         '(C20 H24 Cl12 Cu2 N11 Nb6 S6 1-)n'
_symmetry_cell_setting           monoclinic
_symmetry_space_group_name_H-M   'P 21/n'
_symmetry_Int_Tables_number      14
_space_group_name_Hall           '-P 2yn'
loop_
_symmetry_equiv_pos_site_id
_symmetry_equiv_pos_as_xyz
1 x,y,z
2 1/2-x,1/2+y,1/2-z
3 -x,-y,-z
4 1/2+x,1/2-y,1/2+z
_cell_length_a                   12.3431(3)
_cell_length_b                   12.9544(3)
_cell_length_c                   19.3934(5)
_cell_angle_alpha                90
_cell_angle_beta                 91.944(1)
_cell_angle_gamma                90
_cell_volume                     3099.17
loop_
_atom_site_label
_atom_site_type_symbol
_atom_site_fract_x
_atom_site_fract_y
_atom_site_fract_z
Nb1 Nb 0.10101(3) 0.89969(3) 0.05461(2)
Cl1 Cl -0.02715(10) 0.75622(9) 0.06822(7)
N1 N 0.2118(3) 0.7941(3) 0.1135(2)
Nb2 Nb 0.12477(3) 1.10701(3) -0.00399(2)
Cl2 Cl 0.17676(10) 0.80728(9) -0.04338(7)
Nb3 Nb -0.04800(3) 1.06401(3) 0.09113(2)
Cl3 Cl 0.26537(9) 1.00714(9) 0.05895(6)
Cl4 Cl 0.06079(10) 0.95721(10) 0.17169(6)
C1 C 0.2793(4) 0.7526(4) 0.1458(3)
N2 N 0.2606(3) 1.2180(3) -0.0083(2)
Cl5 Cl 0.20176(9) 1.05008(9) -0.11279(6)
Cl6 Cl 0.09085(10) 1.20022(10) 0.10345(7)
N3 N -0.1012(3) 1.1338(4) 0.1881(2)
S1 S 0.37418(10) 0.69596(11) 0.19265(7)
C2 C 0.3408(4) 1.2625(4) -0.0160(2)
C3 C -0.1358(4) 1.1758(4) 0.2348(3)
Cu1 Cu 0.51976(5) 0.76125(5) 0.13537(3)
S2 S 0.45543(11) 1.32258(11) -0.02826(7)
S3 S -0.18408(11) 1.23879(13) 0.29988(8)
N4 N 0.5165(4) 0.9126(4) 0.1164(3)
C4 C 0.5291(4) 0.9968(4) 0.1022(3)
C5 C 0.5434(5) 1.1039(4) 0.0833(4)
H1 H 0.6028 1.1339 0.1115
H2 H 0.4764 1.1421 0.0911
H3 H 0.5608 1.1083 0.0344
Nb1B Nb -0.10101(3) 1.10031(3) -0.05461(2)
Cl1B Cl 0.02715(10) 1.24378(9) -0.06822(7)
N1B N -0.2118(3) 1.2059(3) -0.1135(2)
Nb2B Nb -0.12477(3) 0.89299(3) 0.00399(2)
Cl2B Cl -0.17676(10) 1.19272(9) 0.04338(7)
Nb3B Nb 0.04800(3) 0.93599(3) -0.09113(2)
Cl3B Cl -0.26537(9) 0.99286(9) -0.05895(6)
Cl4B Cl -0.06079(10) 1.04279(10) -0.17169(6)
C1B C -0.2793(4) 1.2474(4) -0.1458(3)
N2B N -0.2606(3) 0.7820(3) 0.0083(2)
Cl5B Cl -0.20176(9) 0.94992(9) 0.11279(6)
Cl6B Cl -0.09085(10) 0.79978(10) -0.10345(7)
S1B S -0.37418(10) 1.30404(11) -0.19265(7)
C2B C -0.3408(4) 0.7375(4) 0.0160(2)
S2B S -0.45543(11) 0.67742(11) 0.02826(7)
N3B N 0.1012(3) 0.8662(4) -0.1881(2)
C3B C 0.1358(4) 0.8242(4) -0.2348(3)
S3B S 0.18408(11) 0.76121(13) -0.29988(8)
Cu1B Cu -0.51976(5) 1.23875(5) -0.13537(3)
N4B N -0.5165(4) 1.0874(4) -0.1164(3)
C4B C -0.5291(4) 1.0032(4) -0.1022(3)
C5B C -0.5434(5) 0.8961(4) -0.0833(4)
H1B H -0.6028 0.8661 -0.1115
H2B H -0.4764 0.8579 -0.0911
H3B H -0.5608 0.8917 -0.0344
Cu1_2 Cu -0.48024(5) 0.76125(5) 0.13537(3)
Cu1A Cu -0.01976(5) 1.26125(5) 0.36463(3)
Cu1B_2 Cu 0.48024(5) 1.23875(5) -0.13537(3)
Cu1C Cu 0.01976(5) 0.73875(5) -0.36463(3)
S2_2 S -0.54457(11) 1.32258(11) -0.02826(7)
S2B_2 S 0.54457(11) 0.67742(11) 0.02826(7)
S3A S 0.68408(11) 0.73879(13) 0.20012(8)
S3C S -0.68408(11) 1.26121(13) -0.20012(8)
N5 N 0.1183(7) 0.7872(6) 0.3250(4)
C6 C 0.0615(8) 0.8566(7) 0.3377(4)
C7 C -0.0037(8) 0.9442(7) 0.3537(5)
H4 H -0.0172 0.9447 0.4032
H5 H -0.0729 0.9402 0.3275
H6 H 0.0344 1.0075 0.3413
N6 N 0.5791(4) 0.9850(4) 0.3145(3)
N7 N 0.4155(4) 0.9919(4) 0.2766(2)
C8 C 0.4901(5) 0.9302(5) 0.3014(3)
H7 H 0.4822 0.8582 0.3088
C9 C 0.4563(7) 1.0889(5) 0.2706(4)
H8 H 0.4194 1.1478 0.2524
C10 C 0.5581(7) 1.0852(5) 0.2952(4)
H9 H 0.6072 1.1416 0.2989
C11 C 0.3055(6) 0.9629(7) 0.2563(4)
H10 H 0.2557 1.0183 0.2684
H11 H 0.2859 0.8994 0.2803
H12 H 0.3007 0.9512 0.2063
C12 C 0.6788(7) 0.9434(9) 0.3479(5)
H13 H 0.7391 0.9573 0.3169
H14 H 0.6706 0.8675 0.3505
C13 C 0.7128(10) 0.9804(10) 0.4177(8)
H15 H 0.7743 0.9385 0.4360
H16 H 0.7366 1.0532 0.4153
C14 C 0.6332(7) 0.9728(6) 0.4574(6)
H17 H 0.5996 0.9036 0.4531
H18 H 0.5776 1.0255 0.4455
C15 C 0.6855(10) 0.9923(7) 0.5415(5)
H19 H 0.6391 0.9577 0.5743
H20 H 0.6878 1.0665 0.5515
H21 H 0.7590 0.9638 0.5457
loop_
_geom_bond_atom_site_label_1
_geom_bond_atom_site_label_2
_geom_bond_site_symmetry_1
_geom_bond_site_symmetry_2
Nb1 Cl1 1_555 1_555
Cl1 Nb2B 1_555 1_555
N1 Nb1 1_555 1_555
Nb2 Nb1 1_555 1_555
Cl2 Nb1 1_555 1_555
Nb3 Nb1 1_555 1_555
Cl3 Nb1 1_555 1_555
Cl4 Nb1 1_555 1_555
C1 N1 1_555 1_555
N2 Nb2 1_555 1_555
Cl5 Nb2 1_555 1_555
Cl6 Nb2 1_555 1_555
N3 Nb3 1_555 1_555
S1 C1 1_555 1_555
C2 N2 1_555 1_555
C3 N3 1_555 1_555
Cu1 S1 1_555 1_555
S2 C2 1_555 1_555
S3 C3 1_555 1_555
N4 Cu1 1_555 1_555
C4 N4 1_555 1_555
C5 C4 1_555 1_555
H1 C5 1_555 1_555
H2 C5 1_555 1_555
H3 C5 1_555 1_555
N5 C6 1_555 1_555
C6 C7 1_555 1_555
C7 H4 1_555 1_555
H5 C7 1_555 1_555
H6 C7 1_555 1_555
N6 C8 1_555 1_555
N7 C8 1_555 1_555
C8 H7 1_555 1_555
C9 N7 1_555 1_555
H8 C9 1_555 1_555
C10 N6 1_555 1_555
H9 C10 1_555 1_555
C11 N7 1_555 1_555
H10 C11 1_555 1_555
H11 C11 1_555 1_555
H12 C11 1_555 1_555
C12 N6 1_555 1_555
H13 C12 1_555 1_555
H14 C12 1_555 1_555
C13 C12 1_555 1_555
H15 C13 1_555 1_555
H16 C13 1_555 1_555
C14 C13 1_555 1_555
H17 C14 1_555 1_555
H18 C14 1_555 1_555
C15 C14 1_555 1_555
H19 C15 1_555 1_555
H20 C15 1_555 1_555
H21 C15 1_555 1_555
Nb1B Nb2 1_555 1_555
Cl1B Nb2 1_555 1_555
N1B Nb1B 1_555 1_555
Nb2B Nb1 1_555 1_555
Cl2B Nb3 1_555 1_555
Nb3B Nb1 1_555 1_555
Cl3B Nb1B 1_555 1_555
Cl4B Nb1B 1_555 1_555
C1B N1B 1_555 1_555
N2B Nb2B 1_555 1_555
Cl5B Nb3 1_555 1_555
Cl6B Nb2B 1_555 1_555
S1B C1B 1_555 1_555
C2B N2B 1_555 1_555
S2B C2B 1_555 1_555
N3B Nb3B 1_555 1_555
C3B N3B 1_555 1_555
S3B C3B 1_555 1_555
Cu1B S1B 1_555 1_555
N4B Cu1B 1_555 1_555
C4B N4B 1_555 1_555
C5B C4B 1_555 1_555
H1B C5B 1_555 1_555
H2B C5B 1_555 1_555
H3B C5B 1_555 1_555
Cu1_2 S2B 1_555 1_555
Cu1A S3 1_555 1_555
Cu1B_2 S2 1_555 1_555
Cu1C S3B 1_555 1_555
S2_2 Cu1B 1_555 1_555
S2B_2 Cu1 1_555 1_555
S3A Cu1 1_555 1_555
S3C Cu1B 1_555 1_555
Nb2 Nb3 1_555 1_555
Nb2 Cl3 1_555 1_555
Nb2 Nb3B 1_555 1_555
Cl2 Nb3B 1_555 1_555
Nb3 Cl4 1_555 1_555
Nb3 Cl6 1_555 1_555
Nb3 Nb1B 1_555 1_555
Nb3 Nb2B 1_555 1_555
Cl5 Nb3B 1_555 1_555
C9 C10 1_555 1_555
Nb1B Cl1B 1_555 1_555
Nb1B Nb2B 1_555 1_555
Nb1B Cl2B 1_555 1_555
Nb1B Nb3B 1_555 1_555
Nb2B Nb3B 1_555 1_555
Nb2B Cl3B 1_555 1_555
Nb2B Cl5B 1_555 1_555
Nb3B Cl4B 1_555 1_555
Nb3B Cl6B 1_555 1_555

#END
