
#######################################################################
#
#                 Cambridge Crystallographic Data Centre
#                                CCDC 
#
#######################################################################
#
# If this CIF has been generated from an entry in the Cambridge 
# Structural Database, then it will include bibliographic, chemical, 
# crystal, experimental, refinement or atomic coordinate data resulting 
# from the CCDC's data processing and validation procedures.
#
#######################################################################

data_GUPBOJ03
_chemical_formula_moiety         '(C8 H10 Cd1 N4)n'
_symmetry_cell_setting           cubic
_symmetry_space_group_name_H-M   'I m 3 m'
_symmetry_Int_Tables_number      229
_space_group_name_Hall           '-I 4 2 3'
loop_
_symmetry_equiv_pos_site_id
_symmetry_equiv_pos_as_xyz
1 x,y,z
2 -x,-y,z
3 -x,y,-z
4 x,-y,-z
5 z,x,y
6 z,-x,-y
7 -z,-x,y
8 -z,x,-y
9 y,z,x
10 -y,z,-x
11 y,-z,-x
12 -y,-z,x
13 y,x,-z
14 -y,-x,-z
15 y,-x,z
16 -y,x,z
17 x,z,-y
18 -x,z,y
19 -x,-z,-y
20 x,-z,y
21 z,y,-x
22 z,-y,x
23 -z,y,x
24 -z,-y,-x
25 1/2+x,1/2+y,1/2+z
26 1/2-x,1/2-y,1/2+z
27 1/2-x,1/2+y,1/2-z
28 1/2+x,1/2-y,1/2-z
29 1/2+z,1/2+x,1/2+y
30 1/2+z,1/2-x,1/2-y
31 1/2-z,1/2-x,1/2+y
32 1/2-z,1/2+x,1/2-y
33 1/2+y,1/2+z,1/2+x
34 1/2-y,1/2+z,1/2-x
35 1/2+y,1/2-z,1/2-x
36 1/2-y,1/2-z,1/2+x
37 1/2+y,1/2+x,1/2-z
38 1/2-y,1/2-x,1/2-z
39 1/2+y,1/2-x,1/2+z
40 1/2-y,1/2+x,1/2+z
41 1/2+x,1/2+z,1/2-y
42 1/2-x,1/2+z,1/2+y
43 1/2-x,1/2-z,1/2-y
44 1/2+x,1/2-z,1/2+y
45 1/2+z,1/2+y,1/2-x
46 1/2+z,1/2-y,1/2+x
47 1/2-z,1/2+y,1/2+x
48 1/2-z,1/2-y,1/2-x
49 -x,-y,-z
50 x,y,-z
51 x,-y,z
52 -x,y,z
53 -z,-x,-y
54 -z,x,y
55 z,x,-y
56 z,-x,y
57 -y,-z,-x
58 y,-z,x
59 -y,z,x
60 y,z,-x
61 -y,-x,z
62 y,x,z
63 -y,x,-z
64 y,-x,-z
65 -x,-z,y
66 x,-z,-y
67 x,z,y
68 -x,z,-y
69 -z,-y,x
70 -z,y,-x
71 z,-y,-x
72 z,y,x
73 1/2-x,1/2-y,1/2-z
74 1/2+x,1/2+y,1/2-z
75 1/2+x,1/2-y,1/2+z
76 1/2-x,1/2+y,1/2+z
77 1/2-z,1/2-x,1/2-y
78 1/2-z,1/2+x,1/2+y
79 1/2+z,1/2+x,1/2-y
80 1/2+z,1/2-x,1/2+y
81 1/2-y,1/2-z,1/2-x
82 1/2+y,1/2-z,1/2+x
83 1/2-y,1/2+z,1/2+x
84 1/2+y,1/2+z,1/2-x
85 1/2-y,1/2-x,1/2+z
86 1/2+y,1/2+x,1/2+z
87 1/2-y,1/2+x,1/2-z
88 1/2+y,1/2-x,1/2-z
89 1/2-x,1/2-z,1/2+y
90 1/2+x,1/2-z,1/2-y
91 1/2+x,1/2+z,1/2+y
92 1/2-x,1/2+z,1/2-y
93 1/2-z,1/2-y,1/2+x
94 1/2-z,1/2+y,1/2-x
95 1/2+z,1/2-y,1/2-x
96 1/2+z,1/2+y,1/2+x
_cell_length_a                   30.5539(5)
_cell_length_b                   30.5539
_cell_length_c                   30.5539
_cell_angle_alpha                90
_cell_angle_beta                 90
_cell_angle_gamma                90
_cell_volume                     28523.3
loop_
_atom_site_label
_atom_site_type_symbol
_atom_site_fract_x
_atom_site_fract_y
_atom_site_fract_z
Cd1 Cd 0.7500 0.60413(2) 0.10413(2)
N1 N 0.7287(3) 0.5375(3) 0.1168(3)
N2 N 0.8089(3) 0.6199(4) 0.1376(4)
C1 C 0.7480(4) 0.5000 0.1052(5)
C2 C 0.6935(5) 0.5231(4) 0.1397(7)
H1 H 0.6722 0.5412 0.1534
C3 C 0.7948(9) 0.5000 0.0873(12)
C4 C 0.8216(4) 0.6087(6) 0.1784(4)
C5 C 0.8518(6) 0.6112(6) 0.1138(7)
H2 H 0.8557 0.6066 0.0833
C6 C 0.7817(8) 0.5917(16) 0.2183(8)
N1XA N 0.7287(3) 0.4625(3) 0.1168(3)
C2XA C 0.6935(5) 0.4769(4) 0.1397(7)
H1XA H 0.6722 0.4588 0.1534
N2QB N 0.8624(4) 0.6199(4) 0.1911(3)
C5QB C 0.8862(7) 0.6112(6) 0.1482(6)
H2QB H 0.9167 0.6066 0.1443
Cd1XA Cd 0.7500 0.39587(2) 0.10413(2)
Cd1QB Cd 0.89587(2) 0.60413(2) 0.2500
N1OA N 0.7713(3) 0.6168(3) 0.0375(3)
N2OA N 0.6911(3) 0.6376(4) 0.1199(4)
loop_
_geom_bond_atom_site_label_1
_geom_bond_atom_site_label_2
_geom_bond_site_symmetry_1
_geom_bond_site_symmetry_2
Cd1 N1 1_555 1_555
N1 C1 1_555 1_555
N2 Cd1 1_555 1_555
C1 C3 1_555 1_555
C2 N1 1_555 1_555
H1 C2 1_555 1_555
C4 N2 1_555 1_555
C5 N2 1_555 1_555
H2 C5 1_555 1_555
C6 C4 1_555 1_555
N1XA C1 1_555 1_555
C2XA C2 1_555 1_555
H1XA C2XA 1_555 1_555
N2QB C4 1_555 1_555
C5QB C5 1_555 1_555
H2QB C5QB 1_555 1_555
Cd1XA N1XA 1_555 1_555
Cd1QB N2QB 1_555 1_555
N1OA Cd1 1_555 1_555
N2OA Cd1 1_555 1_555
N1XA C2XA 1_555 1_555
N2QB C5QB 1_555 1_555

#END
