
#######################################################################
#
#                 Cambridge Crystallographic Data Centre
#                                CCDC 
#
#######################################################################
#
# If this CIF has been generated from an entry in the Cambridge 
# Structural Database, then it will include bibliographic, chemical, 
# crystal, experimental, refinement or atomic coordinate data resulting 
# from the CCDC's data processing and validation procedures.
#
#######################################################################

data_BUWLUC
_chemical_formula_moiety         '(C33 H52 Fe1 N10 O37 Pr4 2+)n'
_symmetry_cell_setting           monoclinic
_symmetry_space_group_name_H-M   'I 2'
_symmetry_Int_Tables_number      5
_space_group_name_Hall           'I 2y'
loop_
_symmetry_equiv_pos_site_id
_symmetry_equiv_pos_as_xyz
1 x,y,z
2 -x,y,-z
3 1/2+x,1/2+y,1/2+z
4 1/2-x,1/2+y,1/2-z
_cell_length_a                   13.976(3)
_cell_length_b                   13.976(3)
_cell_length_c                   17.531(4)
_cell_angle_alpha                90
_cell_angle_beta                 90.00(3)
_cell_angle_gamma                90
_cell_volume                     3424.31
loop_
_atom_site_label
_atom_site_type_symbol
_atom_site_fract_x
_atom_site_fract_y
_atom_site_fract_z
Pr1 Pr 0.28526(2) 0.60751(3) 0.249799(17)
Pr2 Pr 0.5000 0.89265(3) 0.5000
Pr3 Pr -0.0000 0.82225(3) 0.5000
C1 C 0.4590(4) 0.7246(5) 0.3505(4)
C2 C 0.5202(4) 0.6623(5) 0.2989(4)
C3 C 0.6193(4) 0.6640(5) 0.3027(4)
H1 H 0.6513 0.7011 0.3386
C4 C 0.6686(4) 0.6074(7) 0.2503(4)
H2 H 0.7352 0.6079 0.2498
C5 C 0.6194(4) 0.5509(5) 0.1993(4)
H3 H 0.6516 0.5130 0.1641
C6 C 0.5208(4) 0.5522(5) 0.2021(4)
C7 C 0.4597(5) 0.4895(5) 0.1506(4)
C8 C 0.3816(4) 1.0666(5) 0.4005(4)
C9 C 0.4445(4) 1.1278(5) 0.4517(4)
C10 C 0.4437(5) 1.2273(5) 0.4480(4)
H4 H 0.4066 1.2590 0.4119
C11 C 0.5000 1.2788(8) 0.5000
H5 H 0.5000 1.3453 0.5000
C12 C -0.0000 0.4398(9) 0.5000
H6 H 0.0000 0.3733 0.5000
C13 C 0.0562(5) 0.4880(5) 0.4483(4)
H7 H 0.0933 0.4553 0.4128
C14 C 0.0553(4) 0.5870(5) 0.4511(4)
C15 C 0.1174(4) 0.6491(5) 0.3998(4)
H8 H 0.309(5) 0.459(6) 0.369(5)
H9 H 0.145(6) 0.413(10) 0.227(7)
H10 H 0.352(10) 0.665(4) 0.137(9)
H11 H 0.180(6) 0.767(8) 0.3045(14)
H12 H -0.115(11) 0.804(7) 0.373(7)
H13 H 0.657(6) 0.790(7) 0.5540(13)
H14 H 0.315(5) 0.763(5) 0.134(5)
H15 H 0.147(7) 0.780(14) 0.231(8)
H16 H 0.676(6) 0.7429(17) 0.509(6)
N1 N 0.4712(3) 0.6067(5) 0.2500(3)
N2 N 0.5000 1.0778(6) 0.5000
N3 N 0.0000 0.6374(6) 0.5000
O1 O 0.3686(3) 0.7181(4) 0.3418(3)
O2 O 0.5024(4) 0.7778(5) 0.3960(3)
O3 O 0.3700(3) 0.4959(4) 0.1582(3)
O4 O 0.5041(4) 0.4351(5) 0.1048(3)
O5 O 0.3516(4) 0.4935(5) 0.3504(3)
O6 O 0.1920(5) 0.4442(5) 0.2409(4)
O7 O 0.3281(3) 1.1113(5) 0.3550(3)
O8 O 0.3526(4) 0.7215(6) 0.1502(4)
O9 O 0.1707(4) 0.6045(5) 0.3541(3)
O10 O 0.1940(5) 0.7700(5) 0.2584(4)
O11 O 0.1629(4) 0.9144(5) 0.4905(3)
O12 O 0.1111(4) 0.7385(4) 0.4075(3)
O13 O -0.1142(4) 0.7557(5) 0.4003(4)
O14 O 0.3888(4) 0.9775(4) 0.4080(3)
O15 O 0.6127(4) 0.9581(5) 0.3988(3)
O16 O 0.6633(4) 0.8008(5) 0.5076(4)
C8A C 0.6184(4) 1.0666(5) 0.5995(4)
C9A C 0.5555(4) 1.1278(5) 0.5483(4)
C10A C 0.5563(5) 1.2273(5) 0.5520(4)
H4A H 0.5934 1.2590 0.5881
O14A O 0.6112(4) 0.9775(4) 0.5920(3)
O7A O 0.6719(3) 1.1113(5) 0.6450(3)
C13A C -0.0562(5) 0.4880(5) 0.5517(4)
H7A H -0.0933 0.4553 0.5872
C14A C -0.0553(4) 0.5870(5) 0.5489(4)
C15A C -0.1174(4) 0.6491(5) 0.6002(4)
O9A O -0.1707(4) 0.6045(5) 0.6459(3)
O12A O -0.1111(4) 0.7385(4) 0.5925(3)
Pr1A Pr -0.28526(2) 0.60751(3) 0.750201(17)
C1A C -0.4590(4) 0.7246(5) 0.6495(4)
C2A C -0.5202(4) 0.6623(5) 0.7011(4)
C3A C -0.6193(4) 0.6640(5) 0.6973(4)
H1A H -0.6513 0.7011 0.6614
C4A C -0.6686(4) 0.6074(7) 0.7497(4)
H2A H -0.7352 0.6079 0.7502
C5A C -0.6194(4) 0.5509(5) 0.8007(4)
H3A H -0.6516 0.5130 0.8359
C6A C -0.5208(4) 0.5522(5) 0.7979(4)
C7A C -0.4597(5) 0.4895(5) 0.8494(4)
H8A H -0.309(5) 0.459(6) 0.631(5)
H9A H -0.145(6) 0.413(10) 0.773(7)
H10A H -0.352(10) 0.665(4) 0.863(9)
H11A H -0.180(6) 0.767(8) 0.6955(14)
H12A H 0.115(11) 0.804(7) 0.627(7)
H14A H -0.315(5) 0.763(5) 0.866(5)
H15A H -0.147(7) 0.780(14) 0.769(8)
N1A N -0.4712(3) 0.6067(5) 0.7500(3)
O1A O -0.3686(3) 0.7181(4) 0.6582(3)
O2A O -0.5024(4) 0.7778(5) 0.6040(3)
O3A O -0.3700(3) 0.4959(4) 0.8418(3)
O4A O -0.5041(4) 0.4351(5) 0.8952(3)
O5A O -0.3516(4) 0.4935(5) 0.6496(3)
O6A O -0.1920(5) 0.4442(5) 0.7591(4)
O8A O -0.3526(4) 0.7215(6) 0.8498(4)
O10A O -0.1940(5) 0.7700(5) 0.7416(4)
O11A O -0.1629(4) 0.9144(5) 0.5095(3)
O13A O 0.1142(4) 0.7557(5) 0.5997(4)
H13A H 0.343(6) 0.790(7) 0.4460(13)
H16A H 0.324(6) 0.7429(17) 0.491(6)
O16A O 0.3367(4) 0.8008(5) 0.4924(4)
O15A O 0.3873(4) 0.9581(5) 0.6012(3)
Pr1B Pr 0.78526(2) 1.10751(3) 0.749799(17)
Pr1C Pr 0.21474(2) 1.10751(3) 0.250201(17)
Pr2_2 Pr -0.5000 0.89265(3) 0.5000
Pr3B Pr -0.5000 0.32225(3) 1.0000
Pr3B_2 Pr 0.5000 0.32225(3) 0.0000
O2A_2 O 0.4976(4) 0.7778(5) 0.6040(3)
O4B O 0.0041(4) 0.9351(5) 0.6048(3)
O4C O -0.0041(4) 0.9351(5) 0.3952(3)
O7B O -0.1719(3) 0.6113(5) 0.8550(3)
O7C O 0.1719(3) 0.6113(5) 0.1450(3)
Fe1 Fe 0.74910(7) 0.35696(8) 0.37503(6)
C16 C 0.8736(5) 0.3087(6) 0.3721(4)
C17 C 0.7007(5) 0.2325(6) 0.3791(4)
C18 C 0.6265(5) 0.4068(5) 0.3718(4)
C19 C 0.7990(5) 0.4814(6) 0.3787(4)
C20 C 0.7503(5) 0.3568(6) 0.2639(4)
N4 N 0.7507(5) 0.3564(6) 0.4855(4)
N5 N 0.6713(5) 0.1581(6) 0.3829(5)
N6 N 0.5504(5) 0.4367(7) 0.3672(5)
N7 N 0.7498(5) 0.3575(5) 0.1988(4)
N8 N 0.8292(6) 0.5575(6) 0.3833(5)
N9 N 0.9513(5) 0.2800(7) 0.3668(5)
O17 O 0.7506(4) 0.3580(6) 0.5523(4)
O18 O 0.1182(11) 0.1186(12) 0.5013(7)
O19 O 0.9903(7) 0.7410(10) 0.2465(5)
O20 O 0.6105(11) 0.5907(12) 0.5001(7)
O21 O 0.9832(10) 0.5137(13) 0.2500(8)
loop_
_geom_bond_atom_site_label_1
_geom_bond_atom_site_label_2
_geom_bond_site_symmetry_1
_geom_bond_site_symmetry_2
Pr1 N1 1_555 1_555
Pr2 N2 1_555 1_555
Pr3 N3 1_555 1_555
C1 C2 1_555 1_555
C2 C3 1_555 1_555
C3 H1 1_555 1_555
C4 C3 1_555 1_555
H2 C4 1_555 1_555
C5 C4 1_555 1_555
H3 C5 1_555 1_555
C6 C5 1_555 1_555
C7 C6 1_555 1_555
C8 C9 1_555 1_555
C9 C10 1_555 1_555
C10 H4 1_555 1_555
C11 C10 1_555 1_555
H5 C11 1_555 1_555
C12 H6 1_555 1_555
C13 C12 1_555 1_555
H7 C13 1_555 1_555
C14 C13 1_555 1_555
C15 C14 1_555 1_555
H8 O5 1_555 1_555
H9 O6 1_555 1_555
H10 O8 1_555 1_555
H11 O10 1_555 1_555
H12 O13 1_555 1_555
H13 O16 1_555 1_555
H14 O8 1_555 1_555
H15 O10 1_555 1_555
H16 O16 1_555 1_555
N1 C2 1_555 1_555
N2 C9 1_555 1_555
N3 C14 1_555 1_555
O1 Pr1 1_555 1_555
O2 Pr2 1_555 1_555
O3 Pr1 1_555 1_555
O4 C7 1_555 1_555
O5 Pr1 1_555 1_555
O6 Pr1 1_555 1_555
O7 C8 1_555 1_555
O8 Pr1 1_555 1_555
O9 Pr1 1_555 1_555
O10 Pr1 1_555 1_555
O11 Pr3 1_555 1_555
O12 Pr3 1_555 1_555
O13 Pr3 1_555 1_555
O14 Pr2 1_555 1_555
O15 Pr2 1_555 1_555
O16 Pr2 1_555 1_555
Fe1 C16 1_555 1_555
C16 N9 1_555 1_555
C17 Fe1 1_555 1_555
C18 Fe1 1_555 1_555
C19 Fe1 1_555 1_555
C20 Fe1 1_555 1_555
N4 Fe1 1_555 1_555
N5 C17 1_555 1_555
N6 C18 1_555 1_555
N7 C20 1_555 1_555
N8 C19 1_555 1_555
O17 N4 1_555 1_555
C8A C9A 1_555 1_555
C9A N2 1_555 1_555
C10A C11 1_555 1_555
H4A C10A 1_555 1_555
O14A Pr2 1_555 1_555
O7A C8A 1_555 1_555
C13A C12 1_555 1_555
H7A C13A 1_555 1_555
C14A N3 1_555 1_555
C15A C14A 1_555 1_555
O9A C15A 1_555 1_555
O12A Pr3 1_555 1_555
Pr1A O9A 1_555 1_555
C1A C2A 1_555 1_555
C2A C3A 1_555 1_555
C3A H1A 1_555 1_555
C4A C3A 1_555 1_555
H2A C4A 1_555 1_555
C5A C4A 1_555 1_555
H3A C5A 1_555 1_555
C6A C5A 1_555 1_555
C7A C6A 1_555 1_555
H8A O5A 1_555 1_555
H9A O6A 1_555 1_555
H10A O8A 1_555 1_555
H11A O10A 1_555 1_555
H12A O13A 1_555 1_555
H14A O8A 1_555 1_555
H15A O10A 1_555 1_555
N1A Pr1A 1_555 1_555
O1A Pr1A 1_555 1_555
O2A C1A 1_555 1_555
O3A Pr1A 1_555 1_555
O4A C7A 1_555 1_555
O5A Pr1A 1_555 1_555
O6A Pr1A 1_555 1_555
O8A Pr1A 1_555 1_555
O10A Pr1A 1_555 1_555
O11A Pr3 1_555 1_555
O13A Pr3 1_555 1_555
H13A O16A 1_555 1_555
H16A O16A 1_555 1_555
O16A Pr2 1_555 1_555
O15A Pr2 1_555 1_555
Pr1B O7A 1_555 1_555
Pr1C O7 1_555 1_555
Pr2_2 O2A 1_555 1_555
Pr3B O4A 1_555 1_555
Pr3B_2 O4 1_555 1_555
O2A_2 Pr2 1_555 1_555
O4B Pr3 1_555 1_555
O4C Pr3 1_555 1_555
O7B Pr1A 1_555 1_555
O7C Pr1 1_555 1_555
C1 O1 1_555 1_555
C1 O2 1_555 1_555
C6 N1 1_555 1_555
C7 O3 1_555 1_555
C8 O14 1_555 1_555
C15 O9 1_555 1_555
C15 O12 1_555 1_555
C8A O14A 1_555 1_555
C9A C10A 1_555 1_555
C13A C14A 1_555 1_555
C15A O12A 1_555 1_555
C1A O1A 1_555 1_555
C2A N1A 1_555 1_555
C6A N1A 1_555 1_555
C7A O3A 1_555 1_555

#END
