
#######################################################################
#
#                 Cambridge Crystallographic Data Centre
#                                CCDC 
#
#######################################################################
#
# If this CIF has been generated from an entry in the Cambridge 
# Structural Database, then it will include bibliographic, chemical, 
# crystal, experimental, refinement or atomic coordinate data resulting 
# from the CCDC's data processing and validation procedures.
#
#######################################################################

data_BUWMAJ
_chemical_formula_moiety         '(C34 H52 Fe1 N10 Nd4 O36 2+)n'
_symmetry_cell_setting           monoclinic
_symmetry_space_group_name_H-M   'I 2'
_symmetry_Int_Tables_number      5
_space_group_name_Hall           'I 2y'
loop_
_symmetry_equiv_pos_site_id
_symmetry_equiv_pos_as_xyz
1 x,y,z
2 -x,y,-z
3 1/2+x,1/2+y,1/2+z
4 1/2-x,1/2+y,1/2-z
_cell_length_a                   13.936(3)
_cell_length_b                   13.936(3)
_cell_length_c                   17.469(4)
_cell_angle_alpha                90
_cell_angle_beta                 90.00(3)
_cell_angle_gamma                90
_cell_volume                     3392.69
loop_
_atom_site_label
_atom_site_type_symbol
_atom_site_fract_x
_atom_site_fract_y
_atom_site_fract_z
Nd1 Nd 0.5000 0.96231(2) 0.5000
Nd2 Nd 0.285468(15) 0.67676(2) 0.749812(13)
Nd3 Nd 0.0000 0.89133(2) 0.5000
N1 N 0.0000 0.7060(4) 0.5000
N2 N 0.4706(2) 0.6773(4) 0.7503(2)
O1 O 0.3673(3) 0.5646(3) 0.8418(2)
O2 O 0.1726(2) 0.6737(3) 0.6450(2)
O3 O 0.3683(3) 0.7883(3) 0.6584(2)
O4 O 0.5036(3) 0.8499(3) 0.6052(2)
O5 O 0.1118(3) 0.5440(3) 0.9078(2)
O6 O 0.5025(3) 0.5056(3) 0.8967(2)
O7 O 0.1714(3) 0.6802(4) 0.8536(2)
O8 O 0.6134(3) 1.0276(3) 0.5999(2)
O9 O -0.1629(3) 0.9832(3) 0.4929(2)
O10 O 0.1929(3) 0.5141(3) 0.7572(3)
O11 O 0.1928(3) 0.8389(3) 0.7416(2)
O12 O 0.3382(3) 0.8688(3) 0.5085(2)
O13 O 0.1122(3) 0.8087(3) 0.5918(2)
C1 C 0.0560(3) 0.6571(3) 0.5484(3)
C2 C 0.5203(3) 0.7329(3) 0.7014(3)
O14 O 0.3514(3) 0.5624(3) 0.6502(2)
O15 O 0.3503(3) 0.7911(3) 0.8499(2)
C3 C 0.5194(3) 0.6215(3) 0.7988(3)
C4 C 0.6689(3) 0.6773(5) 0.7507(3)
H1 H 0.7356 0.6777 0.7511
C5 C 0.1190(3) 0.7186(4) 0.5996(3)
C6 C 0.6182(3) 0.6202(4) 0.8017(3)
H2 H 0.6502 0.5820 0.8371
C7 C 0.4595(4) 0.7958(4) 0.6502(3)
C8 C 0.6191(3) 0.7333(4) 0.6994(3)
H3 H 0.6517 0.7708 0.6639
C9 C 0.1182(3) 0.6345(4) 0.8999(3)
N3 N 0.0000 0.6463(4) 1.0000
C10 C 0.0558(3) 0.6971(3) 0.9510(3)
C11 C 0.0555(3) 0.7958(3) 0.9484(3)
H4 H 0.0921 0.8286 0.9124
C12 C 0.0000 0.8445(6) 1.0000
H5 H -0.0000 0.9113 1.0000
C13 C 0.0000 0.5070(6) 0.5000
H6 H 0.0000 0.4403 0.5000
C14 C 0.4578(3) 0.5580(3) 0.8504(3)
C15 C 0.0564(4) 0.5571(4) 0.5517(3)
H7 H 0.0936 0.5249 0.5876
O16 O -0.1129(3) 0.8266(3) 0.6006(3)
O2A O -0.1726(2) 0.6737(3) 0.3550(2)
O13A O -0.1122(3) 0.8087(3) 0.4082(2)
C1A C -0.0560(3) 0.6571(3) 0.4516(3)
C5A C -0.1190(3) 0.7186(4) 0.4004(3)
C15A C -0.0564(4) 0.5571(4) 0.4483(3)
H7A H -0.0936 0.5249 0.4124
O5A O -0.1118(3) 0.5440(3) 1.0922(2)
O7A O -0.1714(3) 0.6802(4) 1.1464(2)
C9A C -0.1182(3) 0.6345(4) 1.1001(3)
C10A C -0.0558(3) 0.6971(3) 1.0490(3)
C11A C -0.0555(3) 0.7958(3) 1.0516(3)
H4A H -0.0921 0.8286 1.0876
Nd2A Nd -0.285468(15) 0.67676(2) 0.250188(13)
N2A N -0.4706(2) 0.6773(4) 0.2497(2)
O1A O -0.3673(3) 0.5646(3) 0.1582(2)
O3A O -0.3683(3) 0.7883(3) 0.3416(2)
O4A O -0.5036(3) 0.8499(3) 0.3948(2)
O6A O -0.5025(3) 0.5056(3) 0.1033(2)
O9A O 0.1629(3) 0.9832(3) 0.5071(2)
O10A O -0.1929(3) 0.5141(3) 0.2428(3)
O11A O -0.1928(3) 0.8389(3) 0.2584(2)
C2A C -0.5203(3) 0.7329(3) 0.2986(3)
O14A O -0.3514(3) 0.5624(3) 0.3498(2)
O15A O -0.3503(3) 0.7911(3) 0.1501(2)
C3A C -0.5194(3) 0.6215(3) 0.2012(3)
C4A C -0.6689(3) 0.6773(5) 0.2493(3)
H1A H -0.7356 0.6777 0.2489
C6A C -0.6182(3) 0.6202(4) 0.1983(3)
H2A H -0.6502 0.5820 0.1629
C7A C -0.4595(4) 0.7958(4) 0.3498(3)
C8A C -0.6191(3) 0.7333(4) 0.3006(3)
H3A H -0.6517 0.7708 0.3361
C14A C -0.4578(3) 0.5580(3) 0.1496(3)
O16A O 0.1129(3) 0.8266(3) 0.3994(3)
O8A O 0.3866(3) 1.0276(3) 0.4001(2)
O12A O 0.6618(3) 0.8688(3) 0.4915(2)
Nd1_2 Nd -0.5000 0.96231(2) 0.5000
Nd1B Nd 0.0000 0.46231(2) 1.0000
Nd2A_2 Nd -0.285468(15) 0.67676(2) 1.250188(13)
Nd3B Nd -0.5000 0.39133(2) 0.0000
Nd3B_2 Nd 0.5000 0.39133(2) 1.0000
O4A_2 O 0.4964(3) 0.8499(3) 0.3948(2)
O5B O 0.6118(3) 1.0440(3) 0.4078(2)
O5C O 0.3882(3) 1.0440(3) 0.5922(2)
O6B O 0.0025(3) 1.0056(3) 0.3967(2)
O6C O -0.0025(3) 1.0056(3) 0.6033(2)
O7A_2 O -0.1714(3) 0.6802(4) 0.1464(2)
N3B N 0.5000 1.1463(4) 0.5000
Fe1 Fe 0.74901(6) 0.92725(6) 0.87499(4)
C16 C 0.7511(4) 0.9261(4) 0.9867(3)
C17 C 0.7496(4) 0.9266(5) 0.7636(3)
C18 C 0.7980(4) 0.8035(4) 0.8788(3)
C19 C 0.6254(4) 0.8785(4) 0.8719(3)
N4 N 0.9512(4) 1.0037(4) 0.8658(3)
N5 N 0.7500(4) 0.9267(4) 0.6988(3)
N6 N 0.7506(4) 0.9272(4) 1.0515(3)
N7 N 0.5502(4) 0.8496(4) 0.8664(3)
N8 N 0.6714(4) 1.1272(4) 0.8833(3)
C20 C 0.8739(4) 0.9754(4) 0.8708(3)
C21 C 0.7016(4) 1.0500(4) 0.8787(3)
N9 N 0.8280(4) 0.7260(4) 0.8832(3)
O17 O 0.9877(6) 0.5571(12) 0.7481(4)
O18 O 0.9868(7) 0.7940(14) 0.7505(5)
O19 O 0.3826(9) 0.6668(8) 0.4985(4)
O20 O 0.8902(10) 0.1934(8) 0.4963(5)
loop_
_geom_bond_atom_site_label_1
_geom_bond_atom_site_label_2
_geom_bond_site_symmetry_1
_geom_bond_site_symmetry_2
Nd1 O4 1_555 1_555
Nd2 N2 1_555 1_555
Nd3 N1 1_555 1_555
N1 C1 1_555 1_555
N2 C2 1_555 1_555
O1 Nd2 1_555 1_555
O2 Nd2 1_555 1_555
O3 Nd2 1_555 1_555
O4 C7 1_555 1_555
O5 C9 1_555 1_555
O6 C14 1_555 1_555
O7 Nd2 1_555 1_555
O8 Nd1 1_555 1_555
O9 Nd3 1_555 1_555
O10 Nd2 1_555 1_555
O11 Nd2 1_555 1_555
O12 Nd1 1_555 1_555
O13 Nd3 1_555 1_555
C1 C5 1_555 1_555
C2 C7 1_555 1_555
O14 Nd2 1_555 1_555
O15 Nd2 1_555 1_555
C3 N2 1_555 1_555
C4 H1 1_555 1_555
C5 O2 1_555 1_555
C6 C3 1_555 1_555
H2 C6 1_555 1_555
C7 O3 1_555 1_555
C8 C2 1_555 1_555
H3 C8 1_555 1_555
C9 O7 1_555 1_555
N3 C10 1_555 1_555
C10 C9 1_555 1_555
C11 C10 1_555 1_555
H4 C11 1_555 1_555
C12 C11 1_555 1_555
H5 C12 1_555 1_555
C13 H6 1_555 1_555
C14 O1 1_555 1_555
C15 C1 1_555 1_555
H7 C15 1_555 1_555
O16 Nd3 1_555 1_555
Fe1 C16 1_555 1_555
C16 N6 1_555 1_555
C17 Fe1 1_555 1_555
C18 Fe1 1_555 1_555
C19 Fe1 1_555 1_555
N4 C20 1_555 1_555
N5 C17 1_555 1_555
N7 C19 1_555 1_555
N8 C21 1_555 1_555
C20 Fe1 1_555 1_555
C21 Fe1 1_555 1_555
N9 C18 1_555 1_555
O2A C5A 1_555 1_555
O13A Nd3 1_555 1_555
C1A N1 1_555 1_555
C5A O13A 1_555 1_555
C15A C13 1_555 1_555
H7A C15A 1_555 1_555
O5A C9A 1_555 1_555
O7A C9A 1_555 1_555
C9A C10A 1_555 1_555
C10A N3 1_555 1_555
C11A C12 1_555 1_555
H4A C11A 1_555 1_555
Nd2A O2A 1_555 1_555
N2A Nd2A 1_555 1_555
O1A Nd2A 1_555 1_555
O3A Nd2A 1_555 1_555
O4A C7A 1_555 1_555
O6A C14A 1_555 1_555
O9A Nd3 1_555 1_555
O10A Nd2A 1_555 1_555
O11A Nd2A 1_555 1_555
C2A N2A 1_555 1_555
O14A Nd2A 1_555 1_555
O15A Nd2A 1_555 1_555
C3A N2A 1_555 1_555
C4A H1A 1_555 1_555
C6A C3A 1_555 1_555
H2A C6A 1_555 1_555
C7A O3A 1_555 1_555
C8A C2A 1_555 1_555
H3A C8A 1_555 1_555
C14A O1A 1_555 1_555
O16A Nd3 1_555 1_555
O8A Nd1 1_555 1_555
O12A Nd1 1_555 1_555
Nd1_2 O4A 1_555 1_555
Nd1B O5 1_555 1_555
Nd2A_2 O7A 1_555 1_555
Nd3B O6A 1_555 1_555
Nd3B_2 O6 1_555 1_555
O4A_2 Nd1 1_555 1_555
O5B Nd1 1_555 1_555
O5C Nd1 1_555 1_555
O6B Nd3 1_555 1_555
O6C Nd3 1_555 1_555
O7A_2 Nd2A 1_555 1_555
N3B Nd1 1_555 1_555
O13 C5 1_555 1_555
C3 C14 1_555 1_555
C4 C6 1_555 1_555
C4 C8 1_555 1_555
N3 Nd1B 1_555 1_555
C13 C15 1_555 1_555
C1A C5A 1_555 1_555
C1A C15A 1_555 1_555
O5A Nd1B 1_555 1_555
C10A C11A 1_555 1_555
C2A C7A 1_555 1_555
C3A C14A 1_555 1_555
C4A C6A 1_555 1_555
C4A C8A 1_555 1_555

#END
