
#######################################################################
#
#                 Cambridge Crystallographic Data Centre
#                                CCDC 
#
#######################################################################
#
# If this CIF has been generated from an entry in the Cambridge 
# Structural Database, then it will include bibliographic, chemical, 
# crystal, experimental, refinement or atomic coordinate data resulting 
# from the CCDC's data processing and validation procedures.
#
#######################################################################

data_UCOJAZ
_chemical_formula_moiety         '(C64 H47 I6 N13 O3 Zn3)n'
_symmetry_cell_setting           orthorhombic
_symmetry_space_group_name_H-M   'P b c a'
_symmetry_Int_Tables_number      61
_space_group_name_Hall           '-P 2ac 2ab'
loop_
_symmetry_equiv_pos_site_id
_symmetry_equiv_pos_as_xyz
1 x,y,z
2 1/2-x,-y,1/2+z
3 -x,1/2+y,1/2-z
4 1/2+x,1/2-y,-z
5 -x,-y,-z
6 1/2+x,y,1/2-z
7 x,1/2-y,1/2+z
8 1/2-x,1/2+y,z
_cell_length_a                   27.249(6)
_cell_length_b                   13.798(3)
_cell_length_c                   44.834(10)
_cell_angle_alpha                90
_cell_angle_beta                 90
_cell_angle_gamma                90
_cell_volume                     16856.8
loop_
_atom_site_label
_atom_site_type_symbol
_atom_site_fract_x
_atom_site_fract_y
_atom_site_fract_z
_atom_site_U_iso_or_equiv
_atom_site_thermal_displace_type
C1 C 0.2540(7) 0.7261(11) 0.1746(5) 0.0820 Uani
C2 C 0.2066(9) 0.7347(12) 0.1847(6) 0.1063 Uani
H1 H 0.2012 0.7534 0.2048 0.1280 Uiso
C3 C 0.1665(9) 0.7172(15) 0.1668(7) 0.1373 Uani
C4 C 0.1755(10) 0.687(3) 0.1373(7) 0.1210 Uani
H2 H 0.1487 0.6698 0.1248 0.1450 Uiso
C5 C 0.2231(11) 0.682(2) 0.1264(6) 0.1307 Uani
H3 H 0.2286 0.6650 0.1061 0.1570 Uiso
C6 C 0.2643(8) 0.702(2) 0.1455(6) 0.1010 Uani
C7 C 0.3146(8) 0.694(2) 0.1367(5) 0.0963 Uani
C8 C 0.3286(9) 0.6663(18) 0.1079(5) 0.0850 Uani
H4 H 0.3037 0.6537 0.0936 0.1020 Uiso
C9 C 0.3773(10) 0.6564(18) 0.0993(5) 0.0790 Uani
H5 H 0.3848 0.6379 0.0794 0.0950 Uiso
C10 C 0.4151(9) 0.6735(16) 0.1194(6) 0.0860 Uani
H6 H 0.4486 0.6676 0.1137 0.1030 Uiso
C11 C 0.4019(9) 0.700(2) 0.1489(6) 0.1077 Uani
H7 H 0.4271 0.7126 0.1630 0.1290 Uiso
C12 C 0.3526(8) 0.708(2) 0.1580(5) 0.0850 Uani
C13 C 0.3374(9) 0.734(2) 0.1882(4) 0.0880 Uani
C14 C 0.3745(9) 0.748(3) 0.2103(6) 0.1170 Uani
H8 H 0.4077 0.7325 0.2059 0.1400 Uiso
C15 C 0.3619(11) 0.784(3) 0.2380(6) 0.1177 Uani
H9 H 0.3865 0.7997 0.2523 0.1410 Uiso
C16 C 0.3120(11) 0.796(2) 0.2447(5) 0.0987 Uani
H10 H 0.3038 0.8226 0.2637 0.1190 Uiso
C17 C 0.2744(9) 0.7737(15) 0.2258(5) 0.0813 Uani
H11 H 0.2411 0.7764 0.2318 0.0980 Uiso
C18 C 0.2889(9) 0.745(2) 0.1952(5) 0.0953 Uani
C19 C 0.1170(9) 0.723(3) 0.1791(9) 0.1797 Uani
H12 H 0.1170 0.7429 0.1994 0.2150 Uiso
C20 C 0.0733(10) 0.708(3) 0.1692(11) 0.1923 Uani
H13 H 0.0700 0.6803 0.1499 0.2290 Uiso
C21 C 0.0277(12) 0.730(3) 0.1860(11) 0.1973 Uani
H14 H 0.0285 0.7599 0.2051 0.2330 Uiso
C22 C -0.0145(13) 0.706(4) 0.1727(14) 0.1993 Uani
H15 H -0.0141 0.6766 0.1535 0.2380 Uiso
H16 H -0.0449 0.7188 0.1823 0.2380 Uiso
C23 C -0.0166(10) 0.4819(13) 0.2921(6) 0.1373 Uani
H17 H -0.0147 0.4809 0.3133 0.1640 Uiso
C24 C 0.0224(10) 0.4779(12) 0.2725(6) 0.1357 Uani
C25 C -0.0601(11) 0.4880(14) 0.2747(6) 0.1340 Uani
C26 C 0.0047(10) 0.4921(19) 0.2410(5) 0.1347 Uani
C27 C -0.0789(11) 0.482(2) 0.2181(6) 0.1543 Uani
H18 H -0.0609 0.4856 0.1992 0.2310 Uiso
H19 H -0.1032 0.5345 0.2189 0.2310 Uiso
H20 H -0.0957 0.4195 0.2195 0.2310 Uiso
C28 C 0.0861(10) 0.466(2) 0.3083(7) 0.1517 Uani
H21 H 0.1219 0.4603 0.3092 0.2270 Uiso
H22 H 0.0710 0.4109 0.3185 0.2270 Uiso
H23 H 0.0759 0.5264 0.3182 0.2270 Uiso
N1 N -0.0464(8) 0.4918(16) 0.2417(5) 0.1337 Uani
O1 O -0.0993(6) 0.4910(13) 0.2822(4) 0.1453 Uani
O2 O 0.0313(9) 0.4797(19) 0.2214(5) 0.2040 Uani
O3 O 0.0702(7) 0.4678(13) 0.2771(5) 0.1437 Uani
Zn1 Zn -0.02770(5) 0.37979(11) 0.08698(4) 0.0525 Uani
Zn2 Zn 0.45626(6) 0.35246(12) 0.08557(4) 0.0544 Uani
Zn3 Zn 0.24397(6) 0.67948(10) 0.31961(3) 0.0466 Uani
I1 I -0.00646(4) 0.29932(7) 0.03699(3) 0.0730 Uani
I2 I -0.07780(5) 0.29738(10) 0.12680(4) 0.1103 Uani
I3 I 0.52350(4) 0.44071(12) 0.11397(3) 0.0945 Uani
I4 I 0.44274(6) 0.17024(9) 0.08017(4) 0.1137 Uani
I5 I 0.19625(4) 0.83529(7) 0.31055(3) 0.0701 Uani
I6 I 0.33578(4) 0.69078(9) 0.33048(2) 0.0734 Uani
C29 C 0.0802(5) 0.4132(11) 0.0929(3) 0.0540 Uani
H24 H 0.0796 0.4063 0.0718 0.0650 Uiso
C30 C 0.1249(4) 0.4222(8) 0.1075(3) 0.0473 Uani
H25 H 0.1546 0.4125 0.0967 0.0570 Uiso
C31 C 0.1268(4) 0.4449(8) 0.1372(3) 0.0447 Uani
C32 C 0.0831(5) 0.4526(9) 0.1522(3) 0.0473 Uani
H26 H 0.0826 0.4690 0.1728 0.0570 Uiso
C33 C 0.0403(5) 0.4363(8) 0.1372(3) 0.0520 Uani
H27 H 0.0105 0.4411 0.1481 0.0620 Uiso
C34 C 0.3914(4) 0.4256(9) 0.1324(2) 0.0427 Uani
H28 H 0.4221 0.4312 0.1422 0.0510 Uiso
C35 C 0.3493(4) 0.4471(8) 0.1482(3) 0.0413 Uani
H29 H 0.3514 0.4676 0.1684 0.0500 Uiso
C36 C 0.3038(4) 0.4384(8) 0.1343(2) 0.0360 Uani
C37 C 0.3032(4) 0.4071(10) 0.1041(2) 0.0443 Uani
H30 H 0.2734 0.3967 0.0935 0.0530 Uiso
C38 C 0.3494(5) 0.3925(9) 0.0910(3) 0.0460 Uani
H31 H 0.3503 0.3772 0.0704 0.0550 Uiso
C39 C 0.1891(5) 0.5894(9) 0.2693(3) 0.0487 Uani
H32 H 0.1613 0.6108 0.2803 0.0580 Uiso
C40 C 0.1815(5) 0.5517(9) 0.2406(3) 0.0453 Uani
H33 H 0.1495 0.5473 0.2323 0.0550 Uiso
C41 C 0.2228(5) 0.5208(8) 0.2246(2) 0.0423 Uani
C42 C 0.2681(4) 0.5291(8) 0.2390(3) 0.0410 Uani
H34 H 0.2970 0.5094 0.2288 0.0490 Uiso
C43 C 0.2718(5) 0.5641(8) 0.2667(3) 0.0440 Uani
H35 H 0.3034 0.5652 0.2757 0.0530 Uiso
C44 C 0.1740(4) 0.4561(7) 0.1521(3) 0.0383 Uani
C45 C 0.2561(4) 0.4554(7) 0.1502(2) 0.0350 Uani
C46 C 0.2190(5) 0.4933(8) 0.1934(3) 0.0407 Uani
C47 C -0.0700(6) 1.1342(9) -0.0215(3) 0.0613 Uani
H36 H -0.0722 1.2026 -0.0233 0.0740 Uiso
C48 C -0.0866(6) 1.0928(9) 0.0056(3) 0.0587 Uani
H37 H -0.1013 1.1303 0.0209 0.0700 Uiso
C49 C -0.0797(4) 0.9937(9) 0.0082(3) 0.0450 Uani
C50 C -0.0587(5) 0.9403(9) -0.0142(2) 0.0460 Uani
H38 H -0.0539 0.8725 -0.0120 0.0550 Uiso
C51 C -0.0441(5) 0.9904(9) -0.0412(3) 0.0523 Uani
H39 H -0.0288 0.9555 -0.0570 0.0630 Uiso
C52 C -0.2098(6) 1.0060(10) 0.1484(3) 0.0673 Uani
H40 H -0.2259 0.9736 0.1643 0.0810 Uiso
C53 C -0.1868(7) 0.9500(9) 0.1255(3) 0.0730 Uani
H41 H -0.1874 0.8812 0.1267 0.0880 Uiso
C54 C -0.1641(5) 0.9936(9) 0.1019(3) 0.0530 Uani
C55 C -0.1666(7) 1.0930(9) 0.1021(4) 0.0757 Uani
H42 H -0.1542 1.1275 0.0854 0.0910 Uiso
C56 C -0.1863(6) 1.1444(9) 0.1254(4) 0.0753 Uani
H43 H -0.1838 1.2131 0.1254 0.0900 Uiso
C57 C -0.0509(5) 0.5522(11) 0.0497(3) 0.0637 Uani
H44 H -0.0323 0.5182 0.0351 0.0760 Uiso
C58 C -0.0680(6) 0.6437(9) 0.0437(3) 0.0567 Uani
H45 H -0.0645 0.6694 0.0241 0.0680 Uiso
C59 C -0.0911(5) 0.7009(9) 0.0662(3) 0.0507 Uani
C60 C -0.0985(6) 0.6529(10) 0.0938(4) 0.0667 Uani
H46 H -0.1149 0.6863 0.1094 0.0800 Uiso
C61 C -0.0830(5) 0.5604(9) 0.0986(3) 0.0560 Uani
H47 H -0.0881 0.5312 0.1175 0.0670 Uiso
C62 C -0.0978(5) 0.9401(9) 0.0342(3) 0.0527 Uani
C63 C -0.1398(5) 0.9402(10) 0.0786(2) 0.0510 Uani
C64 C -0.1048(5) 0.8039(10) 0.0617(3) 0.0597 Uani
N2 N 0.0373(4) 0.4139(6) 0.1082(2) 0.0453 Uani
N3 N 0.3912(3) 0.3986(7) 0.1052(2) 0.0383 Uani
N4 N 0.2349(4) 0.5970(7) 0.2823(2) 0.0440 Uani
N5 N 0.2150(3) 0.4425(6) 0.1361(2) 0.0400 Uani
N6 N 0.2609(3) 0.4784(7) 0.17937(19) 0.0353 Uani
N7 N 0.1744(3) 0.4840(7) 0.1814(2) 0.0393 Uani
N8 N -0.0522(3) 1.0872(9) -0.0440(2) 0.0490 Uani
N9 N -0.2091(4) 1.0994(7) 0.1481(2) 0.0500 Uani
N10 N -0.0605(4) 0.5097(8) 0.0768(2) 0.0487 Uani
N11 N -0.1225(4) 0.9939(7) 0.0549(2) 0.0497 Uani
N12 N -0.1323(4) 0.8453(8) 0.0824(2) 0.0493 Uani
N13 N -0.0866(5) 0.8453(8) 0.0375(2) 0.0580 Uani
Zn2C Zn -0.04374(6) 1.14754(12) -0.08557(4) 0.0544 Uani
Zn3B Zn -0.24397(6) 1.17948(10) 0.18039(3) 0.0466 Uani
N8C N 0.4478(3) 0.4128(9) 0.0440(2) 0.0490 Uani
N9B N 0.2091(4) 0.5994(7) 0.3519(2) 0.0500 Uani
loop_
_atom_site_aniso_label
_atom_site_aniso_U_11
_atom_site_aniso_U_22
_atom_site_aniso_U_33
_atom_site_aniso_U_23
_atom_site_aniso_U_13
_atom_site_aniso_U_12
C1 0.111 0.047 0.088 0.023 0.007 -0.016
C2 0.117 0.084 0.118 0.035 0 -0.015
C3 0.149 0.13 0.133 0.027 0.003 0.002
C4 0.134 0.101 0.128 0.027 0.012 0.001
C5 0.145 0.098 0.149 0.022 0.012 0.001
C6 0.115 0.072 0.116 0.027 0.007 -0.011
C7 0.124 0.049 0.116 0.022 -0.001 -0.003
C8 0.108 0.043 0.104 0.019 -0.016 0.006
C9 0.111 0.051 0.075 0.016 0 -0.005
C10 0.122 0.032 0.104 0.019 0.02 -0.006
C11 0.136 0.074 0.113 -0.022 0.018 0.001
C12 0.096 0.055 0.104 0.004 0.003 -0.008
C13 0.117 0.065 0.082 0.016 0.008 -0.005
C14 0.124 0.115 0.112 0 0.01 0.001
C15 0.145 0.101 0.107 0.013 0.006 0.019
C16 0.133 0.057 0.106 0.027 0.017 0.013
C17 0.125 0.025 0.094 0.026 -0.013 0.004
C18 0.126 0.043 0.117 0.022 -0.003 -0.006
C19 0.189 0.17 0.18 0.039 -0.01 0.001
C20 0.187 0.19 0.2 0.014 -0.004 0.001
C21 0.192 0.19 0.21 0.009 -0.004 0.02
C22 0.188 0.2 0.21 -0.011 0.003 0.016
C23 0.129 0.163 0.12 0.04 0.025 -0.004
C24 0.123 0.153 0.131 0.041 0.02 0.006
C25 0.112 0.172 0.118 -0.01 0.021 0.004
C26 0.135 0.162 0.107 0.042 0.042 0.01
C27 0.161 0.168 0.134 0.014 -0.024 0.025
C28 0.128 0.163 0.164 0.056 -0.008 -0.024
N1 0.116 0.155 0.13 -0.013 0.022 0.028
O1 0.102 0.188 0.146 -0.024 0.057 -0.014
O2 0.203 0.268 0.141 0.009 0.06 0.03
O3 0.123 0.139 0.169 0.012 0.013 -0.015
Zn1 0.0425(8) 0.0382(8) 0.0769(11) -0.0098(7) 0.0057(7) 0.0010(6)
Zn2 0.0485(9) 0.0555(10) 0.0592(9) 0.0065(7) 0.0056(7) 0.0139(7)
Zn3 0.0654 0.0345 0.04 0.0061 0.0072 -0.004
I1 0.0694(7) 0.0581(6) 0.0916(8) -0.0402(5) -0.0053(5) 0.0097(5)
I2 0.0909(10) 0.0828(9) 0.1573(14) 0.0063(9) 0.0476(9) -0.0262(7)
I3 0.0539(7) 0.1437(13) 0.0859(8) -0.0009(8) -0.0023(5) 0.0083(7)
I4 0.1256(12) 0.0568(7) 0.1586(14) 0.0215(8) 0.0392(10) 0.0311(7)
I5 0.0899 0.0381 0.0823 0.0173 0.0117 0.0055
I6 0.0729 0.087 0.0602 -0.0203 -0.0069 -0.0039
C29 0.044(7) 0.075(9) 0.043(7) -0.001(6) -0.002(6) 0.012(7)
C30 0.043(7) 0.037(7) 0.062(8) -0.018(6) 0.019(6) 0.009(5)
C31 0.039(7) 0.029(6) 0.066(8) 0.001(5) 0.004(6) 0.010(5)
C32 0.059(8) 0.039(7) 0.044(7) 0.003(5) 0.010(6) 0.005(6)
C33 0.062(8) 0.022(6) 0.072(9) 0.004(6) 0.015(7) 0.003(5)
C34 0.043(7) 0.049(7) 0.036(7) 0.005(5) 0.001(5) -0.006(6)
C35 0.035(6) 0.028(6) 0.061(8) -0.002(5) -0.003(5) 0.002(5)
C36 0.041(6) 0.036(6) 0.031(6) 0.001(5) -0.007(5) 0.001(5)
C37 0.042(7) 0.069(9) 0.022(5) -0.004(5) -0.005(5) 0.009(6)
C38 0.048(7) 0.051(7) 0.039(6) -0.005(5) 0.010(6) 0.008(6)
C39 0.070(9) 0.036(6) 0.040(7) 0.008(5) 0.020(6) 0.008(6)
C40 0.059(8) 0.038(7) 0.039(6) -0.001(5) 0.008(6) -0.009(6)
C41 0.061(8) 0.039(6) 0.027(6) 0.016(5) 0.001(5) 0.002(6)
C42 0.043(7) 0.026(5) 0.054(7) 0.016(5) 0.000(6) -0.004(5)
C43 0.049(7) 0.042(7) 0.041(7) 0.006(5) 0.000(6) 0.007(6)
C44 0.047(7) 0.015(5) 0.053(7) 0.009(5) 0.009(6) 0.002(5)
C45 0.053(7) 0.023(5) 0.029(5) -0.004(4) 0.003(5) 0.000(5)
C46 0.055(8) 0.028(6) 0.039(6) -0.003(5) 0.004(6) -0.002(5)
C47 0.088 0.029 0.067 -0.003 -0.009 -0.005
C48 0.084 0.037 0.055 -0.007 -0.004 -0.016
C49 0.049 0.051 0.035 -0.006 -0.004 0.007
C50 0.068 0.035 0.035 -0.011 -0.001 0.011
C51 0.064 0.042 0.051 -0.017 -0.02 0.005
C52 0.113 0.052 0.037 -0.004 0.018 -0.014
C53 0.136 0.016 0.067 -0.022 0.025 0.005
C54 0.074 0.044 0.041 -0.001 -0.014 0.011
C55 0.13 0.022 0.075 -0.011 0.05 -0.014
C56 0.107 0.026 0.093 0.002 0.061 0.007
C57 0.07 0.06 0.061 -0.018 0.011 0.021
C58 0.089 0.033 0.048 0 0.008 0.011
C59 0.051 0.046 0.055 -0.015 -0.013 0.002
C60 0.085 0.042 0.073 -0.016 0.013 0.018
C61 0.056 0.041 0.071 0.008 0.001 0.006
C62 0.049 0.044 0.065 -0.005 0.001 -0.005
C63 0.077 0.057 0.019 -0.011 0.004 0.014
C64 0.058 0.055 0.066 -0.016 -0.028 0.005
N2 0.042(6) 0.022(5) 0.072(7) -0.016(5) 0.013(5) 0.001(4)
N3 0.037(5) 0.038(5) 0.040(5) 0.010(4) 0.004(4) -0.002(4)
N4 0.054(6) 0.051(6) 0.027(5) 0.010(4) 0.000(5) 0.001(5)
N5 0.047(6) 0.029(5) 0.044(5) 0.007(4) -0.005(5) -0.001(4)
N6 0.039(5) 0.036(5) 0.031(5) 0.004(4) 0.002(4) 0.003(4)
N7 0.044(6) 0.031(5) 0.043(5) -0.002(4) 0.001(4) -0.005(4)
N8 0.034 0.077 0.036 -0.01 -0.009 -0.016
N9 0.082 0.033 0.035 0.004 0.013 -0.003
N10 0.043 0.044 0.059 -0.015 0.006 -0.006
N11 0.07 0.041 0.038 -0.007 -0.006 0.007
N12 0.061 0.048 0.039 -0.016 0.007 0.012
N13 0.094 0.048 0.032 -0.008 0.014 0.003
Zn2C 0.0485 0.0555 0.0592 0.0065 -0.0056 -0.0139
Zn3B 0.0654 0.0345 0.04 -0.0061 0.0072 0.004
N8C 0.034(5) 0.077(8) 0.036(5) -0.010(5) 0.009(4) 0.016(5)
N9B 0.082 0.033 0.035 -0.004 0.013 0.003
loop_
_geom_bond_atom_site_label_1
_geom_bond_atom_site_label_2
_geom_bond_site_symmetry_1
_geom_bond_site_symmetry_2
C1 C2 1_555 1_555
C2 H1 1_555 1_555
C3 C2 1_555 1_555
C4 C3 1_555 1_555
H2 C4 1_555 1_555
C5 C4 1_555 1_555
H3 C5 1_555 1_555
C6 C1 1_555 1_555
C7 C6 1_555 1_555
C8 C7 1_555 1_555
H4 C8 1_555 1_555
C9 C8 1_555 1_555
H5 C9 1_555 1_555
C10 C9 1_555 1_555
H6 C10 1_555 1_555
C11 C10 1_555 1_555
H7 C11 1_555 1_555
C12 C7 1_555 1_555
C13 C12 1_555 1_555
C14 C13 1_555 1_555
H8 C14 1_555 1_555
C15 C14 1_555 1_555
H9 C15 1_555 1_555
C16 C15 1_555 1_555
H10 C16 1_555 1_555
C17 C16 1_555 1_555
H11 C17 1_555 1_555
C18 C1 1_555 1_555
C19 C3 1_555 1_555
H12 C19 1_555 1_555
C20 C19 1_555 1_555
H13 C20 1_555 1_555
C21 C20 1_555 1_555
H14 C21 1_555 1_555
C22 C21 1_555 1_555
H15 C22 1_555 1_555
H16 C22 1_555 1_555
C23 H17 1_555 1_555
C24 C23 1_555 1_555
C25 C23 1_555 1_555
C26 C24 1_555 1_555
C27 H18 1_555 1_555
H19 C27 1_555 1_555
H20 C27 1_555 1_555
C28 H21 1_555 1_555
H22 C28 1_555 1_555
H23 C28 1_555 1_555
N1 C25 1_555 1_555
O1 C25 1_555 1_555
O2 C26 1_555 1_555
O3 C24 1_555 1_555
Zn1 I1 1_555 1_555
Zn2 I3 1_555 1_555
Zn3 I5 1_555 1_555
I2 Zn1 1_555 1_555
I4 Zn2 1_555 1_555
I6 Zn3 1_555 1_555
C29 H24 1_555 1_555
C30 C29 1_555 1_555
H25 C30 1_555 1_555
C31 C30 1_555 1_555
C32 C31 1_555 1_555
H26 C32 1_555 1_555
C33 C32 1_555 1_555
H27 C33 1_555 1_555
C34 H28 1_555 1_555
C35 C34 1_555 1_555
H29 C35 1_555 1_555
C36 C35 1_555 1_555
C37 C36 1_555 1_555
H30 C37 1_555 1_555
C38 C37 1_555 1_555
H31 C38 1_555 1_555
C39 H32 1_555 1_555
C40 C39 1_555 1_555
H33 C40 1_555 1_555
C41 C40 1_555 1_555
C42 C41 1_555 1_555
H34 C42 1_555 1_555
C43 C42 1_555 1_555
H35 C43 1_555 1_555
C44 C31 1_555 1_555
C45 C36 1_555 1_555
C46 C41 1_555 1_555
C47 H36 1_555 1_555
C48 C47 1_555 1_555
H37 C48 1_555 1_555
C49 C48 1_555 1_555
C50 C49 1_555 1_555
H38 C50 1_555 1_555
C51 C50 1_555 1_555
H39 C51 1_555 1_555
C52 H40 1_555 1_555
C53 C52 1_555 1_555
H41 C53 1_555 1_555
C54 C53 1_555 1_555
C55 C54 1_555 1_555
H42 C55 1_555 1_555
C56 C55 1_555 1_555
H43 C56 1_555 1_555
C57 H44 1_555 1_555
C58 C57 1_555 1_555
H45 C58 1_555 1_555
C59 C58 1_555 1_555
C60 C59 1_555 1_555
H46 C60 1_555 1_555
C61 C60 1_555 1_555
H47 C61 1_555 1_555
C62 C49 1_555 1_555
C63 C54 1_555 1_555
C64 C59 1_555 1_555
N2 Zn1 1_555 1_555
N3 Zn2 1_555 1_555
N4 Zn3 1_555 1_555
N5 C44 1_555 1_555
N6 C45 1_555 1_555
N7 C44 1_555 1_555
N8 C47 1_555 1_555
N9 C52 1_555 1_555
N10 Zn1 1_555 1_555
N11 C62 1_555 1_555
N12 C63 1_555 1_555
N13 C62 1_555 1_555
Zn2C N8 1_555 1_555
Zn3B N9 1_555 1_555
N8C Zn2 1_555 1_555
N9B Zn3 1_555 1_555
C5 C6 1_555 1_555
C11 C12 1_555 1_555
C13 C18 1_555 1_555
C17 C18 1_555 1_555
C26 N1 1_555 1_555
C27 N1 1_555 1_555
C28 O3 1_555 1_555
C29 N2 1_555 1_555
C33 N2 1_555 1_555
C34 N3 1_555 1_555
C38 N3 1_555 1_555
C39 N4 1_555 1_555
C43 N4 1_555 1_555
C45 N5 1_555 1_555
C46 N6 1_555 1_555
C46 N7 1_555 1_555
C51 N8 1_555 1_555
C56 N9 1_555 1_555
C57 N10 1_555 1_555
C61 N10 1_555 1_555
C63 N11 1_555 1_555
C64 N12 1_555 1_555
C64 N13 1_555 1_555

#END
