
#######################################################################
#
#                 Cambridge Crystallographic Data Centre
#                                CCDC 
#
#######################################################################
#
# If this CIF has been generated from an entry in the Cambridge 
# Structural Database, then it will include bibliographic, chemical, 
# crystal, experimental, refinement or atomic coordinate data resulting 
# from the CCDC's data processing and validation procedures.
#
#######################################################################

data_XANMIJ
_chemical_formula_moiety         '(C20 H12 Cl6 Co3 N16)n'
_symmetry_cell_setting           monoclinic
_symmetry_space_group_name_H-M   'C 2/m'
_symmetry_Int_Tables_number      12
_space_group_name_Hall           '-C 2y'
loop_
_symmetry_equiv_pos_site_id
_symmetry_equiv_pos_as_xyz
1 x,y,z
2 1/2+x,1/2+y,z
3 -x,y,-z
4 1/2-x,1/2+y,-z
5 -x,-y,-z
6 1/2-x,1/2-y,-z
7 x,-y,z
8 1/2+x,1/2-y,z
_cell_length_a                   17.856(2)
_cell_length_b                   20.231(2)
_cell_length_c                   7.0472(7)
_cell_angle_alpha                90
_cell_angle_beta                 103.150(2)
_cell_angle_gamma                90
_cell_volume                     2479.01
loop_
_atom_site_label
_atom_site_type_symbol
_atom_site_fract_x
_atom_site_fract_y
_atom_site_fract_z
Co1 Co 0.0000 0.0000 0.0000
Co2 Co 0.2500 0.2500 0.5000
Cl1 Cl -0.07688(4) 0.0000 0.23578(9)
Cl2 Cl 0.1494(2) 0.32592(17) 0.3957(3)
N1 N 0.17178(12) 0.17535(9) 0.3662(2)
C1 C 0.16389(14) 0.16645(12) 0.1723(3)
C2 C 0.11546(14) 0.11867(11) 0.0719(3)
H1 H 0.1113 0.1141 -0.0614
N2 N 0.07434(10) 0.07870(8) 0.1601(2)
C3 C 0.08231(13) 0.08773(11) 0.3511(3)
H2 H 0.0548 0.0609 0.4181
C4 C 0.13037(15) 0.13598(12) 0.4527(3)
H3 H 0.1337 0.1409 0.5855
C5 C 0.20967(15) 0.21045(12) 0.0787(3)
N3 N 0.25467(13) 0.25452(9) 0.1933(3)
N4 N 0.20399(12) 0.20419(10) -0.1140(2)
Co1A Co 0.5000 0.5000 0.0000
Co1A_2 Co 0.5000 -0.5000 0.0000
Co2_2 Co 0.2500 0.2500 -0.5000
Co2F Co 0.2500 -0.2500 0.5000
Co2F_2 Co 0.2500 -0.2500 -0.5000
Cl1D Cl 0.07688(4) -0.0000 -0.23578(9)
Cl2E Cl 0.3506(2) 0.17408(17) 0.6043(3)
Cl2E_2 Cl 0.3506(2) 0.17408(17) -0.3957(3)
Cl2_2 Cl 0.1494(2) 0.32592(17) -0.6043(3)
N1E N 0.32822(12) 0.32465(9) -0.3662(2)
N1F N 0.17178(12) -0.17535(9) 0.3662(2)
N1C N 0.32822(12) -0.32465(9) -0.3662(2)
N1E_2 N 0.32822(12) 0.32465(9) 0.6338(2)
N1_2 N 0.17178(12) 0.17535(9) -0.6338(2)
C1E C 0.33611(14) 0.33355(12) -0.1723(3)
C1F C 0.16389(14) -0.16645(12) 0.1723(3)
C1C C 0.33611(14) -0.33355(12) -0.1723(3)
C2E C 0.38454(14) 0.38133(11) -0.0719(3)
C2F C 0.11546(14) -0.11867(11) 0.0719(3)
C2C C 0.38454(14) -0.38133(11) -0.0719(3)
H1E H 0.3887 0.3859 0.0614
H1F H 0.1113 -0.1141 -0.0614
H1C H 0.3887 -0.3859 0.0614
N2E N 0.42566(10) 0.42130(8) -0.1601(2)
N2F N 0.07434(10) -0.07870(8) 0.1601(2)
N2C N 0.42566(10) -0.42130(8) -0.1601(2)
N2D N -0.07434(10) -0.07870(8) -0.1601(2)
N2B N -0.07434(10) 0.07870(8) -0.1601(2)
C3E C 0.41769(13) 0.41227(11) -0.3511(3)
C3F C 0.08231(13) -0.08773(11) 0.3511(3)
C3C C 0.41769(13) -0.41227(11) -0.3511(3)
H2E H 0.4452 0.4391 -0.4181
H2F H 0.0548 -0.0609 0.4181
H2C H 0.4452 -0.4391 -0.4181
C4E C 0.36963(15) 0.36402(12) -0.4527(3)
C4F C 0.13037(15) -0.13598(12) 0.4527(3)
C4C C 0.36963(15) -0.36402(12) -0.4527(3)
H3E H 0.3663 0.3591 -0.5855
H3F H 0.1337 -0.1409 0.5855
H3C H 0.3663 -0.3591 -0.5855
C5E C 0.29033(15) 0.28955(12) -0.0787(3)
C5F C 0.20967(15) -0.21045(12) 0.0787(3)
C5C C 0.29033(15) -0.28955(12) -0.0787(3)
N3E N 0.24533(13) 0.24548(9) -0.1933(3)
N3F N 0.25467(13) -0.25452(9) 0.1933(3)
N3C N 0.24533(13) -0.24548(9) -0.1933(3)
N3E_2 N 0.24533(13) 0.24548(9) 0.8067(3)
N3_2 N 0.25467(13) 0.25452(9) -0.8067(3)
N4E N 0.29601(12) 0.29581(10) 0.1140(2)
N4F N 0.20399(12) -0.20419(10) -0.1140(2)
N4C N 0.29601(12) -0.29581(10) 0.1140(2)
loop_
_geom_bond_atom_site_label_1
_geom_bond_atom_site_label_2
_geom_bond_site_symmetry_1
_geom_bond_site_symmetry_2
Co1 Cl1 1_555 1_555
Co2 Cl2 1_555 1_555
N1 Co2 1_555 1_555
C1 N1 1_555 1_555
C2 C1 1_555 1_555
H1 C2 1_555 1_555
N2 Co1 1_555 1_555
C3 N2 1_555 1_555
H2 C3 1_555 1_555
C4 N1 1_555 1_555
H3 C4 1_555 1_555
C5 C1 1_555 1_555
N3 Co2 1_555 1_555
N4 C5 1_555 1_555
Co1A N2E 1_555 1_555
Co1A_2 N2C 1_555 1_555
Co2_2 Cl2E_2 1_555 1_555
Co2F N1F 1_555 1_555
Co2F_2 N1C 1_555 1_555
Cl1D Co1 1_555 1_555
Cl2E Co2 1_555 1_555
Cl2_2 Co2_2 1_555 1_555
N1E Co2_2 1_555 1_555
N1F C1F 1_555 1_555
N1C C1C 1_555 1_555
N1E_2 Co2 1_555 1_555
N1_2 Co2_2 1_555 1_555
C1E N1E 1_555 1_555
C1F C2F 1_555 1_555
C1C C2C 1_555 1_555
C2E C1E 1_555 1_555
C2F H1F 1_555 1_555
C2C H1C 1_555 1_555
H1E C2E 1_555 1_555
N2E C2E 1_555 1_555
N2F Co1 1_555 1_555
N2C C2C 1_555 1_555
N2D Co1 1_555 1_555
N2B Co1 1_555 1_555
C3E N2E 1_555 1_555
C3F N2F 1_555 1_555
C3C N2C 1_555 1_555
H2E C3E 1_555 1_555
H2F C3F 1_555 1_555
H2C C3C 1_555 1_555
C4E N1E 1_555 1_555
C4F N1F 1_555 1_555
C4C N1C 1_555 1_555
H3E C4E 1_555 1_555
H3F C4F 1_555 1_555
H3C C4C 1_555 1_555
C5E C1E 1_555 1_555
C5F C1F 1_555 1_555
C5C C1C 1_555 1_555
N3E N4 1_555 1_555
N3F Co2F 1_555 1_555
N3C Co2F_2 1_555 1_555
N3E_2 Co2 1_555 1_555
N3_2 Co2_2 1_555 1_555
N4E N3 1_555 1_555
N4F C5F 1_555 1_555
N4C C5C 1_555 1_555
C2 N2 1_555 1_555
C3 C4 1_555 1_555
C5 N3 1_555 1_555
Co2_2 N3E 1_555 1_555
C2F N2F 1_555 1_555
C3E C4E 1_555 1_555
C3F C4F 1_555 1_555
C3C C4C 1_555 1_555
C5E N3E 1_555 1_555
C5E N4E 1_555 1_555
C5F N3F 1_555 1_555
C5C N3C 1_555 1_555
N3F N4C 1_555 1_555
N3C N4F 1_555 1_555

#END
