
#######################################################################
#
#                 Cambridge Crystallographic Data Centre
#                                CCDC 
#
#######################################################################
#
# If this CIF has been generated from an entry in the Cambridge 
# Structural Database, then it will include bibliographic, chemical, 
# crystal, experimental, refinement or atomic coordinate data resulting 
# from the CCDC's data processing and validation procedures.
#
#######################################################################

data_IDIWUN
_chemical_formula_moiety         '(C33 H29 N1 O11 Zn3)n'
_symmetry_cell_setting           monoclinic
_symmetry_space_group_name_H-M   'C 2/c'
_symmetry_Int_Tables_number      15
_space_group_name_Hall           '-C 2yc'
loop_
_symmetry_equiv_pos_site_id
_symmetry_equiv_pos_as_xyz
1 x,y,z
2 x,-y,1/2+z
3 1/2+x,1/2+y,z
4 1/2+x,1/2-y,1/2+z
5 -x,-y,-z
6 -x,y,1/2-z
7 1/2-x,1/2-y,-z
8 1/2-x,1/2+y,1/2-z
_cell_length_a                   23.118(1)
_cell_length_b                   20.9192(5)
_cell_length_c                   12.0021(5)
_cell_angle_alpha                90
_cell_angle_beta                 111.627(2)
_cell_angle_gamma                90
_cell_volume                     5395.73
loop_
_atom_site_label
_atom_site_type_symbol
_atom_site_fract_x
_atom_site_fract_y
_atom_site_fract_z
O6 O -0.1659(4) -0.0129(5) 0.1835(8)
N1 N -0.2420(5) 0.0073(8) 0.0024(10)
C15 C -0.1832(7) 0.0094(10) 0.081(1)
C16 C -0.2903(9) -0.0215(10) 0.034(2)
C17 C -0.305(1) -0.084(1) -0.015(2)
C18 C -0.2589(8) 0.0330(9) -0.118(2)
C19 C -0.2929(9) 0.095(1) -0.133(2)
H9 H -0.1529 0.0292 0.0565
H10 H -0.2768 -0.0238 0.1187
H11 H -0.3266 0.0043 0.0037
H12 H -0.3375 -0.1016 0.0062
H13 H -0.3177 -0.0825 -0.0994
H14 H -0.2691 -0.1108 0.0170
H15 H -0.2221 0.0395 -0.1342
H16 H -0.2849 0.0030 -0.1736
H17 H -0.2673 0.1255 -0.0775
H18 H -0.3029 0.1104 -0.2121
H19 H -0.3301 0.0890 -0.1176
Zn1 Zn 0.0000 0.0000 0.0000
Zn2 Zn -0.0000 0.0709(2) 0.2500
Zn3 Zn 0.0000 -0.0682(2) 0.2500
O1 O 0.0378(3) 0.0004(6) 0.1855(6)
O2 O -0.0660(5) 0.1246(6) 0.144(1)
O3 O -0.0413(5) 0.0898(5) -0.0130(9)
O4 O -0.4418(4) 0.3759(5) -0.6339(9)
O5 O -0.4193(4) 0.4567(5) -0.5028(8)
C1 C -0.0719(7) 0.1232(8) 0.028(1)
C2 C -0.1206(7) 0.1669(8) -0.047(1)
C3 C -0.1500(8) 0.2114(9) -0.006(2)
C4 C -0.1964(9) 0.2508(9) -0.079(2)
C5 C -0.2137(7) 0.2453(9) -0.206(1)
C6 C -0.1849(8) 0.1991(9) -0.248(2)
C7 C -0.1376(8) 0.1607(8) -0.173(2)
C8 C -0.2645(8) 0.2865(8) -0.287(1)
C9 C -0.2740(8) 0.3491(9) -0.258(1)
C10 C -0.3230(7) 0.3856(8) -0.338(1)
C11 C -0.3599(7) 0.3611(8) -0.447(1)
C12 C -0.3500(9) 0.300(1) -0.475(2)
C13 C -0.3032(9) 0.2611(9) -0.400(2)
C14 C -0.4093(8) 0.4020(8) -0.532(1)
H1 H -0.1381 0.2159 0.0786
H2 H -0.2163 0.2810 -0.0459
H3 H -0.1979 0.1931 -0.3323
H4 H -0.1169 0.1309 -0.2054
H5 H -0.2475 0.3673 -0.1845
H6 H -0.3304 0.4277 -0.3167
H7 H -0.3765 0.2834 -0.5496
H8 H -0.2973 0.2190 -0.4233
H20 H 0.0820 0.0003 0.2177
O1D O -0.0378(3) -0.0004(6) -0.1855(6)
H20D H -0.0820 -0.0003 -0.2177
O2D O 0.0660(5) -0.1246(6) -0.144(1)
O3D O 0.0413(5) -0.0898(5) 0.0130(9)
O4D O 0.4418(4) -0.3759(5) 0.6339(9)
O5D O 0.4193(4) -0.4567(5) 0.5028(8)
C1D C 0.0719(7) -0.1232(8) -0.028(1)
C2D C 0.1206(7) -0.1669(8) 0.047(1)
C3D C 0.1500(8) -0.2114(9) 0.006(2)
C4D C 0.1964(9) -0.2508(9) 0.079(2)
C5D C 0.2137(7) -0.2453(9) 0.206(1)
C6D C 0.1849(8) -0.1991(9) 0.248(2)
C7D C 0.1376(8) -0.1607(8) 0.173(2)
C8D C 0.2645(8) -0.2865(8) 0.287(1)
C9D C 0.2740(8) -0.3491(9) 0.258(1)
C10D C 0.3230(7) -0.3856(8) 0.338(1)
C11D C 0.3599(7) -0.3611(8) 0.447(1)
C12D C 0.3500(9) -0.300(1) 0.475(2)
C13D C 0.3032(9) -0.2611(9) 0.400(2)
C14D C 0.4093(8) -0.4020(8) 0.532(1)
H1D H 0.1381 -0.2159 -0.0786
H2D H 0.2163 -0.2810 0.0459
H3D H 0.1979 -0.1931 0.3323
H4D H 0.1169 -0.1309 0.2054
H5D H 0.2475 -0.3673 0.1845
H6D H 0.3304 -0.4277 0.3167
H7D H 0.3765 -0.2834 0.5496
H8D H 0.2973 -0.2190 0.4233
O5C O 0.0807(4) 0.0433(5) -0.0028(8)
O5G O -0.0807(4) -0.0433(5) 0.0028(8)
O1E O -0.0378(3) 0.0004(6) 0.3145(6)
O2E O 0.0660(5) 0.1246(6) 0.356(1)
O4B O 0.0582(4) -0.1241(5) 0.3661(9)
O4G O -0.0582(4) -0.1241(5) 0.1339(9)
Zn3B Zn -0.5000 0.4318(2) -0.7500
Zn1C Zn -0.5000 0.5000 -0.5000
Zn2A Zn 0.0000 -0.0709(2) -0.2500
Zn3A Zn 0.0000 0.0682(2) -0.2500
Zn3C Zn 0.5000 -0.4318(2) 0.7500
Zn1C_2 Zn 0.5000 -0.5000 0.5000
H20E H -0.0820 0.0003 0.2823
loop_
_geom_bond_atom_site_label_1
_geom_bond_atom_site_label_2
_geom_bond_site_symmetry_1
_geom_bond_site_symmetry_2
Zn1 O1 1_555 1_555
Zn2 O1 1_555 1_555
Zn3 O1 1_555 1_555
O1 H20 1_555 1_555
O2 Zn2 1_555 1_555
O3 Zn1 1_555 1_555
O4 C14 1_555 1_555
O5 C14 1_555 1_555
O6 C15 1_555 1_555
N1 C15 1_555 1_555
C1 O2 1_555 1_555
C2 C1 1_555 1_555
C3 C2 1_555 1_555
C4 C3 1_555 1_555
C5 C4 1_555 1_555
C6 C5 1_555 1_555
C7 C2 1_555 1_555
C8 C5 1_555 1_555
C9 C8 1_555 1_555
C10 C9 1_555 1_555
C11 C10 1_555 1_555
C12 C11 1_555 1_555
C13 C8 1_555 1_555
C14 C11 1_555 1_555
C15 H9 1_555 1_555
C16 N1 1_555 1_555
C17 C16 1_555 1_555
C18 N1 1_555 1_555
C19 C18 1_555 1_555
H1 C3 1_555 1_555
H2 C4 1_555 1_555
H3 C6 1_555 1_555
H4 C7 1_555 1_555
H5 C9 1_555 1_555
H6 C10 1_555 1_555
H7 C12 1_555 1_555
H8 C13 1_555 1_555
H10 C16 1_555 1_555
H11 C16 1_555 1_555
H12 C17 1_555 1_555
H13 C17 1_555 1_555
H14 C17 1_555 1_555
H15 C18 1_555 1_555
H16 C18 1_555 1_555
H17 C19 1_555 1_555
H18 C19 1_555 1_555
H19 C19 1_555 1_555
O1D Zn1 1_555 1_555
H20D O1D 1_555 1_555
O2D C1D 1_555 1_555
O3D Zn1 1_555 1_555
O4D C14D 1_555 1_555
O5D C14D 1_555 1_555
C1D O3D 1_555 1_555
C2D C1D 1_555 1_555
C3D C2D 1_555 1_555
C4D C3D 1_555 1_555
C5D C4D 1_555 1_555
C6D C5D 1_555 1_555
C7D C2D 1_555 1_555
C8D C5D 1_555 1_555
C9D C8D 1_555 1_555
C10D C9D 1_555 1_555
C11D C10D 1_555 1_555
C12D C11D 1_555 1_555
C13D C8D 1_555 1_555
C14D C11D 1_555 1_555
H1D C3D 1_555 1_555
H2D C4D 1_555 1_555
H3D C6D 1_555 1_555
H4D C7D 1_555 1_555
H5D C9D 1_555 1_555
H6D C10D 1_555 1_555
H7D C12D 1_555 1_555
H8D C13D 1_555 1_555
O5C Zn1 1_555 1_555
O5G Zn1 1_555 1_555
O1E Zn2 1_555 1_555
O2E Zn2 1_555 1_555
O4B Zn3 1_555 1_555
O4G Zn3 1_555 1_555
Zn3B O4 1_555 1_555
Zn1C O5 1_555 1_555
Zn2A O1D 1_555 1_555
Zn3A O1D 1_555 1_555
Zn3C O4D 1_555 1_555
Zn1C_2 O5D 1_555 1_555
H20E O1E 1_555 1_555
Zn3 O1E 1_555 1_555
O3 C1 1_555 1_555
C6 C7 1_555 1_555
C12 C13 1_555 1_555
O2D Zn2A 1_555 1_555
C6D C7D 1_555 1_555
C12D C13D 1_555 1_555

#END
