
#######################################################################
#
#                 Cambridge Crystallographic Data Centre
#                                CCDC 
#
#######################################################################
#
# If this CIF has been generated from an entry in the Cambridge 
# Structural Database, then it will include bibliographic, chemical, 
# crystal, experimental, refinement or atomic coordinate data resulting 
# from the CCDC's data processing and validation procedures.
#
#######################################################################

data_IDIXAU
_chemical_formula_moiety         '(C29 H27 N1 O12 Zn3)n'
_symmetry_cell_setting           monoclinic
_symmetry_space_group_name_H-M   'C 2/c'
_symmetry_Int_Tables_number      15
_space_group_name_Hall           '-C 2yc'
loop_
_symmetry_equiv_pos_site_id
_symmetry_equiv_pos_as_xyz
1 x,y,z
2 1/2+x,1/2+y,z
3 x,-y,1/2+z
4 1/2+x,1/2-y,1/2+z
5 -x,-y,-z
6 1/2-x,1/2-y,-z
7 -x,y,1/2-z
8 1/2-x,1/2+y,1/2-z
_cell_length_a                   20.1658(15)
_cell_length_b                   18.5518(14)
_cell_length_c                   12.1580(9)
_cell_angle_alpha                90
_cell_angle_beta                 95.3310(10)
_cell_angle_gamma                90
_cell_volume                     4528.78
loop_
_atom_site_label
_atom_site_type_symbol
_atom_site_fract_x
_atom_site_fract_y
_atom_site_fract_z
Zn1 Zn 0.0000 0.0000 0.0000
Zn2 Zn 0.0000 -0.07877(6) 0.2500
Zn3 Zn 0.0000 0.07785(6) 0.2500
O1 O 0.0381(2) -0.0007(3) 0.1615(3)
H1 H 0.0788(10) -0.010(4) 0.162(6)
O2 O -0.0517(3) -0.1000(3) 0.0079(4)
O3 O -0.0711(2) -0.1353(3) 0.1773(4)
O4 O 0.0671(2) -0.1385(3) -0.1732(4)
O5 O 0.0873(2) -0.0556(3) -0.0399(4)
C1 C -0.0850(4) -0.1329(4) 0.0730(6)
C2 C -0.1452(4) -0.1745(4) 0.0290(6)
C3 C -0.1812(4) -0.2131(4) 0.0990(6)
H2 H -0.1672 -0.2141 0.1758
C4 C -0.2393(4) -0.2517(5) 0.0579(6)
C5 C -0.1652(4) -0.1732(5) -0.0865(6)
H3 H -0.1393 -0.1479 -0.1353
C6 C -0.2776(5) -0.2911(5) 0.1271(7)
H4 H -0.2639 -0.2933 0.2040
C7 C 0.0987(4) -0.1150(4) -0.0865(6)
C8 C 0.1572(4) -0.1587(4) -0.0397(6)
C9 C 0.1959(4) -0.1355(5) 0.0580(6)
H5 H 0.1844 -0.0924 0.0938
C10 C 0.2495(4) -0.1751(5) 0.1005(6)
H6 H 0.2745 -0.1591 0.1660
C11 C 0.1755(4) -0.2206(4) -0.0899(6)
H7 H 0.1495 -0.2367 -0.1544
C12 C 0.2683(4) -0.2386(4) 0.0497(6)
C4E C -0.2607(4) -0.2483(5) -0.0579(6)
C3E C -0.3188(4) -0.2869(4) -0.0990(6)
C2E C -0.3548(4) -0.3255(4) -0.0290(6)
C1E C -0.4150(4) -0.3671(4) -0.0730(6)
O2E O -0.4483(3) -0.4000(3) -0.0079(4)
O3E O -0.4289(2) -0.3647(3) -0.1773(4)
C5E C -0.3348(4) -0.3268(5) 0.0865(6)
H3E H -0.3607 -0.3521 0.1353
H2E H -0.3328 -0.2859 -0.1758
C6E C -0.2224(5) -0.2089(5) -0.1271(7)
H4E H -0.2361 -0.2067 -0.2040
C11E C 0.3245(4) -0.2794(4) 0.0899(6)
C8E C 0.3428(4) -0.3413(4) 0.0397(6)
C7E C 0.4013(4) -0.3850(4) 0.0865(6)
O4E O 0.4329(2) -0.3615(3) 0.1732(4)
O5E O 0.4127(2) -0.4444(3) 0.0399(4)
C9E C 0.3041(4) -0.3645(5) -0.0580(6)
H5E H 0.3156 -0.4076 -0.0938
C10E C 0.2505(4) -0.3249(5) -0.1005(6)
H6E H 0.2255 -0.3409 -0.1660
C12E C 0.2317(4) -0.2614(4) -0.0497(6)
H7E H 0.3505 -0.2633 0.1544
O1D O -0.0381(2) 0.0007(3) -0.1615(3)
H1D H -0.0788(10) 0.010(4) -0.162(6)
O2D O 0.0517(3) 0.1000(3) -0.0079(4)
O5D O -0.0873(2) 0.0556(3) 0.0399(4)
O1F O -0.0381(2) -0.0007(3) 0.3385(3)
O3F O 0.0711(2) -0.1353(3) 0.3227(4)
O4B O 0.0671(2) 0.1385(3) 0.3268(4)
O4D O -0.0671(2) 0.1385(3) 0.1732(4)
Zn3B Zn -0.0000 -0.07785(6) -0.2500
Zn1A Zn -0.5000 -0.5000 0.0000
Zn2C Zn -0.5000 -0.42123(6) -0.2500
Zn3A Zn 0.5000 -0.42215(6) 0.2500
Zn1A_2 Zn 0.5000 -0.5000 0.0000
Zn2B Zn 0.0000 0.07877(6) -0.2500
H1F H -0.0788(10) -0.010(4) 0.338(6)
O6 O 0.1727(3) 0.0116(3) 0.2157(5)
N1 N 0.2579(4) 0.0008(5) 0.3452(7)
H8 H 0.165(5) -0.043(5) 0.359(8)
C13 C 0.1953(4) -0.0085(5) 0.3062(7)
C14 C 0.2831(7) -0.0269(8) 0.4612(10)
H9 H 0.3009 0.0143 0.5066
H10 H 0.2451 -0.0473 0.4969
C15 C 0.3366(8) -0.0835(8) 0.4588(15)
H11 H 0.3506 -0.0992 0.5343
H12 H 0.3748 -0.0633 0.4253
H13 H 0.3190 -0.1249 0.4151
C16 C 0.3052(7) 0.0350(12) 0.2744(15)
H14 H 0.2812 0.0507 0.2037
H15 H 0.3400 -0.0000 0.2579
C17 C 0.3375(14) 0.1006(16) 0.336(3)
H16 H 0.3690 0.1235 0.2902
H17 H 0.3612 0.0847 0.4058
H18 H 0.3029 0.1353 0.3512
O8 O 0.477(3) 0.178(2) -0.171(5)
loop_
_geom_bond_atom_site_label_1
_geom_bond_atom_site_label_2
_geom_bond_site_symmetry_1
_geom_bond_site_symmetry_2
Zn1 O1 1_555 1_555
Zn2 O1 1_555 1_555
Zn3 O1 1_555 1_555
O1 H1 1_555 1_555
O2 Zn1 1_555 1_555
O3 Zn2 1_555 1_555
O4 C7 1_555 1_555
O5 Zn1 1_555 1_555
C1 O2 1_555 1_555
C2 C1 1_555 1_555
C3 C2 1_555 1_555
H2 C3 1_555 1_555
C4 C3 1_555 1_555
C5 C2 1_555 1_555
H3 C5 1_555 1_555
C6 C4 1_555 1_555
H4 C6 1_555 1_555
C7 O5 1_555 1_555
C8 C7 1_555 1_555
C9 C8 1_555 1_555
H5 C9 1_555 1_555
C10 C9 1_555 1_555
H6 C10 1_555 1_555
C11 C8 1_555 1_555
H7 C11 1_555 1_555
C12 C10 1_555 1_555
O6 C13 1_555 1_555
N1 C13 1_555 1_555
H8 C13 1_555 1_555
C14 N1 1_555 1_555
H9 C14 1_555 1_555
H10 C14 1_555 1_555
C15 C14 1_555 1_555
H11 C15 1_555 1_555
H12 C15 1_555 1_555
H13 C15 1_555 1_555
C16 N1 1_555 1_555
H14 C16 1_555 1_555
H15 C16 1_555 1_555
C17 C16 1_555 1_555
H16 C17 1_555 1_555
H17 C17 1_555 1_555
H18 C17 1_555 1_555
C4E C4 1_555 1_555
C3E C4E 1_555 1_555
C2E C3E 1_555 1_555
C1E C2E 1_555 1_555
O2E C1E 1_555 1_555
O3E C1E 1_555 1_555
C5E C6 1_555 1_555
H3E C5E 1_555 1_555
H2E C3E 1_555 1_555
C6E C5 1_555 1_555
H4E C6E 1_555 1_555
C11E C12 1_555 1_555
C8E C11E 1_555 1_555
C7E C8E 1_555 1_555
O4E C7E 1_555 1_555
O5E C7E 1_555 1_555
C9E C8E 1_555 1_555
H5E C9E 1_555 1_555
C10E C9E 1_555 1_555
H6E C10E 1_555 1_555
C12E C11 1_555 1_555
H7E C11E 1_555 1_555
O1D Zn1 1_555 1_555
H1D O1D 1_555 1_555
O2D Zn1 1_555 1_555
O5D Zn1 1_555 1_555
O1F Zn2 1_555 1_555
O3F Zn2 1_555 1_555
O4B Zn3 1_555 1_555
O4D Zn3 1_555 1_555
Zn3B O4 1_555 1_555
Zn1A O2E 1_555 1_555
Zn2C O3E 1_555 1_555
Zn3A O4E 1_555 1_555
Zn1A_2 O5E 1_555 1_555
Zn2B O1D 1_555 1_555
H1F O1F 1_555 1_555
Zn3 O1F 1_555 1_555
O3 C1 1_555 1_555
C12 C12E 1_555 1_555
C4E C6E 1_555 1_555
C2E C5E 1_555 1_555
C10E C12E 1_555 1_555
O1D Zn3B 1_555 1_555

#END
