
#######################################################################
#
#                 Cambridge Crystallographic Data Centre
#                                CCDC 
#
#######################################################################
#
# If this CIF has been generated from an entry in the Cambridge 
# Structural Database, then it will include bibliographic, chemical, 
# crystal, experimental, refinement or atomic coordinate data resulting 
# from the CCDC's data processing and validation procedures.
#
#######################################################################

data_GOSRIP
_chemical_formula_moiety         '(C8 H38 F4 Fe5 N6 O29 P7)n'
_symmetry_cell_setting           monoclinic
_symmetry_space_group_name_H-M   'P 21/n'
_symmetry_Int_Tables_number      14
_space_group_name_Hall           '-P 2yn'
loop_
_symmetry_equiv_pos_site_id
_symmetry_equiv_pos_as_xyz
1 x,y,z
2 1/2+x,1/2-y,1/2+z
3 -x,-y,-z
4 1/2-x,1/2+y,1/2-z
_cell_length_a                   9.670(2)
_cell_length_b                   15.618(3)
_cell_length_c                   22.563(5)
_cell_angle_alpha                90
_cell_angle_beta                 90.82(3)
_cell_angle_gamma                90
_cell_volume                     3407.25
loop_
_atom_site_label
_atom_site_type_symbol
_atom_site_fract_x
_atom_site_fract_y
_atom_site_fract_z
Fe1 Fe -0.49043(13) 0.10349(8) 0.20052(6)
Fe2 Fe -0.22409(13) 0.22710(8) 0.27903(6)
Fe3 Fe -0.27418(13) 0.38969(8) 0.15461(6)
Fe4 Fe -0.61019(13) 0.43868(9) 0.08407(6)
Fe5 Fe -0.78381(13) -0.03022(8) 0.25668(6)
P1 P -0.8474(4) 0.2846(2) 0.0823(2)
P2 P -0.7254(2) 0.0077(2) 0.11797(11)
P3 P -0.2052(2) 0.1866(2) 0.14414(11)
P4 P -0.5049(2) 0.3146(2) 0.20677(10)
P5 P -0.3207(2) 0.4153(2) 0.01439(10)
P6 P -0.4611(2) -0.09507(15) 0.24384(10)
P7 P -0.0465(2) 0.0591(2) 0.32322(10)
O1 O -0.6171(7) 0.0756(4) 0.1344(3)
O2 O -0.4168(6) -0.0151(4) 0.2081(3)
F1 F -0.3676(6) 0.1362(4) 0.2686(2)
O3 O -0.3451(6) 0.1388(4) 0.1430(3)
O4 O -0.5653(6) 0.2247(4) 0.2028(3)
F2 F -0.6467(5) 0.0705(3) 0.2573(2)
F3 F -0.3122(5) 0.2638(3) 0.3511(2)
O5 O -0.1018(6) 0.1518(4) 0.3263(2)
O6 O -0.1360(6) 0.1864(4) 0.2050(3)
O7 O -0.4072(6) -0.1745(4) 0.2105(3)
O8 O -0.3513(6) 0.3131(4) 0.2295(3)
O9 O -0.4039(6) -0.0933(4) 0.3076(3)
O10 O -0.2515(6) 0.4375(4) 0.0758(3)
O11 O -0.1660(6) -0.0023(4) 0.3065(3)
O12 O -0.2206(6) 0.2759(4) 0.1182(3)
O13 O -0.4903(6) 0.3581(4) 0.1448(3)
O14 O 0.0103(6) 0.0381(4) 0.3858(3)
O15 O -0.4769(6) 0.4043(4) 0.0239(3)
O16 O -0.2854(6) 0.4910(4) -0.0264(3)
O17 O -0.7207(6) 0.3346(4) 0.0597(3)
F4 F -0.7567(5) -0.0447(3) 0.3462(2)
O18 O -0.6191(6) -0.1024(4) 0.2464(3)
O19 O -0.8185(6) -0.0131(4) 0.1707(3)
O20 O -0.5934(6) 0.3681(4) 0.2480(3)
O21 O 0.0694(6) 0.0536(4) 0.2772(3)
O22 O -0.9696(9) 0.3483(7) 0.0772(5)
H1 H -1.0394(9) 0.3262(7) 0.0906(5)
O23 O -0.8756(12) 0.2041(6) 0.0490(6)
O24 O -0.8310(12) 0.2606(10) 0.1486(5)
H2 H -0.9025(12) 0.2382(10) 0.1600(5)
O25 O -0.6614(7) -0.0718(5) 0.0918(3)
O26 O -0.8193(7) 0.0454(5) 0.0667(3)
H3 H -0.8573(7) 0.0891(5) 0.0783(3)
O27 O -0.1086(6) 0.1337(4) 0.1014(3)
H4 H -0.1433(6) 0.1327(4) 0.0680(3)
O28 O -0.2614(7) 0.3334(4) -0.0126(3)
H5 H -0.2745(7) 0.2931(4) 0.0099(3)
O7C O -0.0928(6) 0.3255(4) 0.2895(3)
O9C O -0.0961(6) 0.4067(4) 0.1924(3)
O11C O -0.3340(6) 0.4977(4) 0.1935(3)
O14C O -0.5103(6) 0.5381(4) 0.1142(3)
O16B O -0.7146(6) 0.5090(4) 0.0264(3)
F4C F -0.7433(5) 0.4553(3) 0.1538(2)
O20C O -0.9066(6) -0.1319(4) 0.2520(3)
O21_2 O -0.9306(6) 0.0536(4) 0.2772(3)
Fe2C Fe -0.27591(13) -0.27290(8) 0.22097(6)
Fe3C Fe -0.22582(13) -0.11031(8) 0.34539(6)
Fe4C Fe 0.11019(13) -0.06132(9) 0.41593(6)
Fe4B Fe -0.38981(13) 0.56132(9) -0.08407(6)
Fe4C_2 Fe -0.88981(13) -0.06132(9) 0.41593(6)
Fe5C Fe -0.71619(13) 0.46978(8) 0.24332(6)
Fe5_2 Fe 0.21619(13) -0.03022(8) 0.25668(6)
N1 N 0.3846(10) -0.4451(7) 0.6581(4)
H6 H 0.4735(10) -0.4348(7) 0.6660(4)
H7 H 0.3638(10) -0.4981(7) 0.6694(4)
H8 H 0.3326(10) -0.4080(7) 0.6778(4)
N2 N 0.1091(8) -0.3837(5) 0.5903(3)
H9 H 0.0601(8) -0.3849(5) 0.6218(3)
C1 C 0.0233(12) -0.3428(8) 0.4914(4)
H10 H 0.0483(12) -0.3989(8) 0.4752(4)
C2 C 0.0994(11) -0.3127(6) 0.5477(4)
H11 H 0.1914(11) -0.2931(6) 0.5379(4)
H12 H 0.0498(11) -0.2652(6) 0.5653(4)
C3 C 0.2068(9) -0.4527(6) 0.5763(5)
H13 H 0.2027(9) -0.4629(6) 0.5339(5)
H14 H 0.1764(9) -0.5046(6) 0.5957(5)
C4 C 0.3581(9) -0.4360(7) 0.5943(4)
H15 H 0.4168(9) -0.4757(7) 0.5733(4)
H16 H 0.3832(9) -0.3785(7) 0.5823(4)
N6 N -0.0091(18) -0.2765(9) 0.4506(6)
H33 H 0.0145(18) -0.2407(9) 0.4236(6)
H35 H 0.1480(98) -0.3568(64) 0.6228(45)
N3 N 0.3198(8) 0.7198(5) 0.2256(3)
H17 H 0.4026(8) 0.7411(5) 0.2350(3)
H18 H 0.3217(8) 0.6630(5) 0.2289(3)
H19 H 0.2570(8) 0.7410(5) 0.2501(3)
N4 N 0.1472(8) 0.6229(5) 0.1186(4)
H20 H 0.1914(8) 0.6255(5) 0.0838(4)
H21 H 0.1975(8) 0.5893(5) 0.1431(4)
N5 N -0.2170(8) 0.6171(5) 0.0660(4)
H22 H -0.2621(8) 0.6414(5) 0.0357(4)
H23 H -0.2393(8) 0.6434(5) 0.0995(4)
H24 H -0.2404(8) 0.5620(5) 0.0682(4)
C5 C -0.0687(9) 0.6242(8) 0.0570(4)
H25 H -0.0434(9) 0.6841(8) 0.0540(4)
H26 H -0.0446(9) 0.5963(8) 0.0202(4)
C6 C 0.0115(9) 0.5827(6) 0.1086(4)
H27 H -0.0424(9) 0.5874(6) 0.1444(4)
H28 H 0.0244(9) 0.5223(6) 0.1002(4)
C7 C 0.1415(9) 0.7095(6) 0.1441(4)
H29 H 0.0800(9) 0.7089(6) 0.1777(4)
H30 H 0.1027(9) 0.7483(6) 0.1147(4)
C8 C 0.2835(9) 0.7434(6) 0.1645(4)
H31 H 0.3536(9) 0.7212(6) 0.1383(4)
H32 H 0.2838(9) 0.8053(6) 0.1611(4)
O29 O -0.3327(18) -0.3334(10) 0.5106(7)
loop_
_geom_bond_atom_site_label_1
_geom_bond_atom_site_label_2
_geom_bond_site_symmetry_1
_geom_bond_site_symmetry_2
Fe1 O1 1_555 1_555
Fe2 F1 1_555 1_555
Fe3 O8 1_555 1_555
Fe4 O13 1_555 1_555
Fe5 F2 1_555 1_555
P1 O17 1_555 1_555
P2 O1 1_555 1_555
P3 O3 1_555 1_555
P4 O4 1_555 1_555
P5 O10 1_555 1_555
P6 O2 1_555 1_555
P7 O5 1_555 1_555
O2 Fe1 1_555 1_555
F1 Fe1 1_555 1_555
O3 Fe1 1_555 1_555
O4 Fe1 1_555 1_555
F2 Fe1 1_555 1_555
F3 Fe2 1_555 1_555
O5 Fe2 1_555 1_555
O6 Fe2 1_555 1_555
O7 P6 1_555 1_555
O8 Fe2 1_555 1_555
O9 P6 1_555 1_555
O10 Fe3 1_555 1_555
O11 P7 1_555 1_555
O12 Fe3 1_555 1_555
O13 Fe3 1_555 1_555
O14 P7 1_555 1_555
O15 Fe4 1_555 1_555
O16 P5 1_555 1_555
O17 Fe4 1_555 1_555
F4 Fe5 1_555 1_555
O18 Fe5 1_555 1_555
O19 Fe5 1_555 1_555
O20 P4 1_555 1_555
O21 P7 1_555 1_555
O22 P1 1_555 1_555
H1 O22 1_555 1_555
O23 P1 1_555 1_555
O24 P1 1_555 1_555
H2 O24 1_555 1_555
O25 P2 1_555 1_555
O26 P2 1_555 1_555
H3 O26 1_555 1_555
O27 P3 1_555 1_555
H4 O27 1_555 1_555
O28 P5 1_555 1_555
H5 O28 1_555 1_555
N1 H6 1_555 1_555
H7 N1 1_555 1_555
H8 N1 1_555 1_555
N2 H9 1_555 1_555
C1 H10 1_555 1_555
C2 N2 1_555 1_555
H11 C2 1_555 1_555
H12 C2 1_555 1_555
C3 N2 1_555 1_555
H13 C3 1_555 1_555
H14 C3 1_555 1_555
C4 N1 1_555 1_555
H15 C4 1_555 1_555
H16 C4 1_555 1_555
N3 H17 1_555 1_555
H18 N3 1_555 1_555
H19 N3 1_555 1_555
N4 H20 1_555 1_555
H21 N4 1_555 1_555
N5 H22 1_555 1_555
H23 N5 1_555 1_555
H24 N5 1_555 1_555
C5 N5 1_555 1_555
H25 C5 1_555 1_555
H26 C5 1_555 1_555
C6 N4 1_555 1_555
H27 C6 1_555 1_555
H28 C6 1_555 1_555
C7 N4 1_555 1_555
H29 C7 1_555 1_555
H30 C7 1_555 1_555
C8 N3 1_555 1_555
H31 C8 1_555 1_555
H32 C8 1_555 1_555
N6 C1 1_555 1_555
H33 N6 1_555 1_555
H35 N2 1_555 1_555
O7C Fe2 1_555 1_555
O9C Fe3 1_555 1_555
O11C Fe3 1_555 1_555
O14C Fe4 1_555 1_555
O16B Fe4 1_555 1_555
F4C Fe4 1_555 1_555
O20C Fe5 1_555 1_555
O21_2 Fe5 1_555 1_555
Fe2C O7 1_555 1_555
Fe3C O9 1_555 1_555
Fe4C O14 1_555 1_555
Fe4B O16 1_555 1_555
Fe4C_2 F4 1_555 1_555
Fe5C O20 1_555 1_555
Fe5_2 O21 1_555 1_555
P2 O19 1_555 1_555
P3 O6 1_555 1_555
P3 O12 1_555 1_555
P4 O8 1_555 1_555
P4 O13 1_555 1_555
P5 O15 1_555 1_555
P6 O18 1_555 1_555
O11 Fe3C 1_555 1_555
C1 C2 1_555 1_555
C3 C4 1_555 1_555
C5 C6 1_555 1_555
C7 C8 1_555 1_555
F4C Fe5C 1_555 1_555

#END
