
#######################################################################
#
#                 Cambridge Crystallographic Data Centre
#                                CCDC 
#
#######################################################################
#
# If this CIF has been generated from an entry in the Cambridge 
# Structural Database, then it will include bibliographic, chemical, 
# crystal, experimental, refinement or atomic coordinate data resulting 
# from the CCDC's data processing and validation procedures.
#
#######################################################################

data_RUPNEW
_chemical_formula_moiety         'C28 Al10 N12 O27'
_symmetry_cell_setting           tetragonal
_symmetry_space_group_name_H-M   'I 4/m m m'
_symmetry_Int_Tables_number      139
_space_group_name_Hall           '-I 4 2'
loop_
_symmetry_equiv_pos_site_id
_symmetry_equiv_pos_as_xyz
1 x,y,z
2 -y,x,z
3 x,-y,-z
4 -x,-y,z
5 y,x,-z
6 y,-x,z
7 -x,y,-z
8 -y,-x,-z
9 1/2+x,1/2+y,1/2+z
10 1/2-y,1/2+x,1/2+z
11 1/2+x,1/2-y,1/2-z
12 1/2-x,1/2-y,1/2+z
13 1/2+y,1/2+x,1/2-z
14 1/2+y,1/2-x,1/2+z
15 1/2-x,1/2+y,1/2-z
16 1/2-y,1/2-x,1/2-z
17 -x,-y,-z
18 y,-x,-z
19 -x,y,z
20 x,y,-z
21 -y,-x,z
22 -y,x,-z
23 x,-y,z
24 y,x,z
25 1/2-x,1/2-y,1/2-z
26 1/2+y,1/2-x,1/2-z
27 1/2-x,1/2+y,1/2+z
28 1/2+x,1/2+y,1/2-z
29 1/2-y,1/2-x,1/2+z
30 1/2-y,1/2+x,1/2-z
31 1/2+x,1/2-y,1/2+z
32 1/2+y,1/2+x,1/2+z
_cell_length_a                   18.35166(11)
_cell_length_b                   18.35166(11)
_cell_length_c                   17.77203(13)
_cell_angle_alpha                90
_cell_angle_beta                 90
_cell_angle_gamma                90
_cell_volume                     5985.33
loop_
_atom_site_label
_atom_site_type_symbol
_atom_site_fract_x
_atom_site_fract_y
_atom_site_fract_z
Al1 Al 0.07866(15) 0.20660(15) 0.00000
O1 O 0.11024(24) 0.11024(24) 0.00000
O2 O 0.00000 0.19291(24) 0.06616(24)
C1 C 0.00000 0.18470(49) 0.14796(48)
O3 O 0.06052(26) 0.31030(25) 0.00000
C2 C 0.00000 0.34196(45) 0.00000
C3 C 0.00000 0.42527(42) 0.00000
C4 C 0.06769(33) 0.46344(19) 0.00000
N1 N 0.14358(76) 0.43184(90) 0.00000
O4 O 0.14248(18) 0.22844(19) 0.07969(17)
C5 C 0.19687(31) 0.19687(31) 0.10774(43)
C6 C 0.22431(29) 0.22431(29) 0.18267(31)
C7 C 0.28636(28) 0.18974(28) 0.21580(18)
N2 N 0.34055(71) 0.13892(83) 0.18266(56)
O3B O 0.06052(26) 0.68970(25) 0.00000
C2B C 0.00000 0.65804(45) 0.00000
C3B C 0.00000 0.57473(42) 0.00000
C4B C 0.06769(33) 0.53656(19) 0.00000
N1B N 0.14358(76) 0.56816(90) 0.00000
O3C O -0.06052(26) 0.68970(25) 0.00000
C4C C -0.06769(33) 0.53656(19) 0.00000
N1C N -0.14358(76) 0.56816(90) 0.00000
O3F O -0.06052(26) 0.31030(25) 0.00000
C4F C -0.06769(33) 0.46344(19) 0.00000
N1F N -0.14358(76) 0.43184(90) 0.00000
O4O O 0.27156(19) 0.35752(18) 0.42031(17)
C5O C 0.30313(31) 0.30313(31) 0.39226(43)
C6O C 0.27569(29) 0.27569(29) 0.31733(31)
C7O C 0.31026(28) 0.21364(28) 0.28420(18)
N2O N 0.36108(83) 0.15945(71) 0.31734(56)
O4W O 0.22844(19) 0.14248(18) 0.07969(17)
C7W C 0.18974(28) 0.28636(28) 0.21580(18)
N2W N 0.13892(83) 0.34055(71) 0.18266(56)
O4X O 0.35752(18) 0.27156(19) 0.42031(17)
C7X C 0.21364(28) 0.31026(28) 0.28420(18)
N2X N 0.15945(71) 0.36108(83) 0.31734(56)
Al1B Al 0.07866(15) 0.79340(15) 0.00000
O1B O 0.11024(24) 0.88976(24) 0.00000
O2B O 0.00000 0.80709(24) -0.06616(24)
C1B C -0.00000 0.81530(49) -0.14796(48)
O4B O 0.14248(18) 0.77156(19) -0.07969(17)
C5B C 0.19687(31) 0.80313(31) -0.10774(43)
C6B C 0.22431(29) 0.77569(29) -0.18267(31)
C7B C 0.28636(28) 0.81026(28) -0.21580(18)
N2B N 0.34055(71) 0.86108(83) -0.18266(56)
O4I O 0.27156(19) 0.64248(18) -0.42031(17)
C5I C 0.30313(31) 0.69687(31) -0.39226(43)
C6I C 0.27569(29) 0.72431(29) -0.31733(31)
C7I C 0.31026(28) 0.78636(28) -0.28420(18)
N2I N 0.36108(83) 0.84055(71) -0.31734(56)
O4Q O 0.22844(19) 0.85752(18) -0.07969(17)
C7Q C 0.18974(28) 0.71364(28) -0.21580(18)
N2Q N 0.13892(83) 0.65945(71) -0.18266(56)
O4Z O 0.35752(18) 0.72844(19) -0.42031(17)
C7Z C 0.21364(28) 0.68974(28) -0.28420(18)
N2Z N 0.15945(71) 0.63892(83) -0.31734(56)
Al1C Al -0.07866(15) 0.79340(15) 0.00000
O2C O 0.00000 0.80709(24) 0.06616(24)
C1C C 0.00000 0.81530(49) 0.14796(48)
Al1E Al 0.20660(15) 0.92134(15) 0.00000
O2F O 0.00000 0.19291(24) -0.06616(24)
C1F C 0.00000 0.18470(49) -0.14796(48)
Al1D Al 0.20660(15) 0.07866(15) 0.00000
Al1F Al -0.07866(15) 0.20660(15) 0.00000
Al1I Al 0.29340(15) 0.57866(15) -0.50000
Al1K Al 0.42134(15) 0.29340(15) 0.50000
Al1N Al 0.42134(15) 0.70660(15) -0.50000
Al1O Al 0.29340(15) 0.42134(15) 0.50000
O1C O -0.11024(24) 0.88976(24) 0.00000
O2D O 0.19291(24) 1.00000 -0.06616(24)
O2E O 0.19291(24) 1.00000 0.06616(24)
O3E O 0.31030(25) 0.93948(26) 0.00000
O4C O -0.14248(18) 0.77156(19) 0.07969(17)
O4E O 0.22844(19) 0.85752(18) 0.07969(17)
O4P O -0.14248(18) 0.77156(19) -0.07969(17)
O4S O 0.14248(18) 0.22844(19) -0.07969(17)
O4V O 0.14248(18) 0.77156(19) 0.07969(17)
loop_
_geom_bond_atom_site_label_1
_geom_bond_atom_site_label_2
_geom_bond_site_symmetry_1
_geom_bond_site_symmetry_2
Al1 O1 1_555 1_555
O1 Al1D 1_555 1_555
O2 Al1 1_555 1_555
C1 O2 1_555 1_555
O3 Al1 1_555 1_555
C2 O3 1_555 1_555
C3 C2 1_555 1_555
C4 C3 1_555 1_555
N1 C4 1_555 1_555
O4 Al1 1_555 1_555
C5 O4 1_555 1_555
C6 C5 1_555 1_555
C7 C6 1_555 1_555
N2 C7 1_555 1_555
O3B C2B 1_555 1_555
C2B C3B 1_555 1_555
C3B C4B 1_555 1_555
C4B C4 1_555 1_555
N1B C4B 1_555 1_555
O3C C2B 1_555 1_555
C4C C3B 1_555 1_555
N1C C4C 1_555 1_555
O3F C2 1_555 1_555
C4F C3 1_555 1_555
N1F C4F 1_555 1_555
O4O C5O 1_555 1_555
C5O C6O 1_555 1_555
C6O C7O 1_555 1_555
C7O C7 1_555 1_555
N2O C7O 1_555 1_555
O4W C5 1_555 1_555
C7W C6 1_555 1_555
N2W C7W 1_555 1_555
O4X C5O 1_555 1_555
C7X C6O 1_555 1_555
N2X C7X 1_555 1_555
Al1B O3B 1_555 1_555
O1B Al1B 1_555 1_555
O2B Al1B 1_555 1_555
C1B O2B 1_555 1_555
O4B Al1B 1_555 1_555
C5B O4B 1_555 1_555
C6B C5B 1_555 1_555
C7B C6B 1_555 1_555
N2B C7B 1_555 1_555
O4I C5I 1_555 1_555
C5I C6I 1_555 1_555
C6I C7I 1_555 1_555
C7I C7B 1_555 1_555
N2I C7I 1_555 1_555
O4Q C5B 1_555 1_555
C7Q C6B 1_555 1_555
N2Q C7Q 1_555 1_555
O4Z C5I 1_555 1_555
C7Z C6I 1_555 1_555
N2Z C7Z 1_555 1_555
Al1C O3C 1_555 1_555
O2C Al1B 1_555 1_555
C1C O2C 1_555 1_555
Al1E O1B 1_555 1_555
O2F Al1 1_555 1_555
C1F O2F 1_555 1_555
Al1D O4W 1_555 1_555
Al1F O2 1_555 1_555
Al1I O4I 1_555 1_555
Al1K O4X 1_555 1_555
Al1N O4Z 1_555 1_555
Al1O O4O 1_555 1_555
O1C Al1C 1_555 1_555
O2D Al1E 1_555 1_555
O2E Al1E 1_555 1_555
O3E Al1E 1_555 1_555
O4C Al1C 1_555 1_555
O4E Al1E 1_555 1_555
O4P Al1C 1_555 1_555
O4S Al1 1_555 1_555
O4V Al1B 1_555 1_555
C4C C4F 1_555 1_555
O3F Al1F 1_555 1_555
C7W C7X 1_555 1_555
O2B Al1C 1_555 1_555
O4Q Al1E 1_555 1_555
C7Q C7Z 1_555 1_555
Al1C O2C 1_555 1_555
O2F Al1F 1_555 1_555

#END
