
#######################################################################
#
#                 Cambridge Crystallographic Data Centre
#                                CCDC 
#
#######################################################################
#
# If this CIF has been generated from an entry in the Cambridge 
# Structural Database, then it will include bibliographic, chemical, 
# crystal, experimental, refinement or atomic coordinate data resulting 
# from the CCDC's data processing and validation procedures.
#
#######################################################################

data_XEXNEV
_chemical_formula_moiety         '(C52 H30 Co2 F12 N4 O8)n'
_symmetry_cell_setting           monoclinic
_symmetry_space_group_name_H-M   'P 2/c'
_symmetry_Int_Tables_number      13
_space_group_name_Hall           '-P 2yc'
loop_
_symmetry_equiv_pos_site_id
_symmetry_equiv_pos_as_xyz
1 x,y,z
2 -x,y,1/2-z
3 -x,-y,-z
4 x,-y,1/2+z
_cell_length_a                   14.909(3)
_cell_length_b                   7.1963(15)
_cell_length_c                   24.592(5)
_cell_angle_alpha                90
_cell_angle_beta                 104.312(2)
_cell_angle_gamma                90
_cell_volume                     2556.58
loop_
_atom_site_label
_atom_site_type_symbol
_atom_site_fract_x
_atom_site_fract_y
_atom_site_fract_z
Co1 Co 0.56072(5) 1.33825(10) 0.51165(3)
N1 N 0.6795(3) 1.1851(6) 0.54011(19)
N2 N 0.7923(3) 0.9855(7) 0.5445(2)
O1 O 0.4840(3) 1.2027(6) 0.44439(17)
O2 O 0.3886(3) 1.4462(6) 0.42993(18)
O3 O 0.4763(3) 0.7319(6) 0.06100(17)
O4 O 0.3840(3) 0.4835(6) 0.04354(17)
C1 C 0.4146(4) 1.2885(8) 0.4173(2)
C2 C 0.3575(4) 1.2009(8) 0.3647(2)
C3 C 0.3802(4) 1.0262(8) 0.3473(2)
H1 H 0.4307 0.9619 0.3689
C4 C 0.3288(4) 0.9486(8) 0.2986(2)
H2 H 0.3464 0.8340 0.2871
C5 C 0.2514(4) 1.0360(8) 0.2659(2)
C6 C 0.2279(4) 1.2097(8) 0.2834(3)
H3 H 0.1763 1.2722 0.2624
C7 C 0.2808(4) 1.2888(9) 0.3316(3)
H4 H 0.2645 1.4054 0.3423
C8 C 0.1362(4) 0.7868(9) 0.2390(3)
C9 C 0.1909(4) 0.9340(8) 0.2147(2)
C10 C 0.1215(4) 1.0611(10) 0.1754(3)
C11 C 0.2505(4) 0.8452(8) 0.1785(2)
C12 C 0.3185(4) 0.9526(9) 0.1646(2)
H5 H 0.3297 1.0719 0.1793
C13 C 0.3704(4) 0.8854(8) 0.1291(2)
H6 H 0.4149 0.9610 0.1197
C14 C 0.3568(4) 0.7085(8) 0.1077(2)
C15 C 0.2884(4) 0.5985(9) 0.1218(3)
H7 H 0.2776 0.4788 0.1073
C16 C 0.2365(4) 0.6664(9) 0.1570(3)
H8 H 0.1918 0.5914 0.1664
C17 C 0.4109(4) 0.6342(8) 0.0682(2)
C18 C 0.7064(4) 1.0362(8) 0.5184(3)
H9 H 0.6698 0.9724 0.4880
C19 C 0.7512(4) 1.2270(10) 0.5853(3)
H10 H 0.7520 1.3258 0.6098
C20 C 0.8197(5) 1.1046(11) 0.5888(3)
H11 H 0.8754 1.1011 0.6161
C21 C 0.8487(4) 0.8397(9) 0.5307(3)
C22 C 0.8657(14) 0.6933(18) 0.5585(9)
H12 H 0.8378 0.6715 0.5878
C23 C 0.9275(14) 0.5601(17) 0.5456(9)
H13 H 0.9395 0.4552 0.5684
C24 C 0.9673(4) 0.5706(9) 0.5066(3)
C25 C 0.9482(11) 0.7193(18) 0.4793(5)
H14 H 0.9731 0.7385 0.4486
C26 C 0.8918(11) 0.8558(18) 0.4928(5)
H15 H 0.8854 0.9665 0.4727
F1 F 0.0963(2) 0.8626(6) 0.27691(15)
F2 F 0.1904(3) 0.6506(5) 0.26510(16)
F3 F 0.0681(2) 0.7071(6) 0.20019(16)
F4 F 0.0785(3) 0.9745(6) 0.12819(15)
F5 F 0.1620(3) 1.2098(5) 0.16013(16)
F6 F 0.0539(2) 1.1229(6) 0.19841(16)
N1B N 1.3205(3) -0.1851(6) 0.45989(19)
N2B N 1.2077(3) 0.0145(7) 0.4555(2)
C18B C 1.2936(4) -0.0362(8) 0.4816(3)
H9B H 1.3302 0.0276 0.5120
C19B C 1.2488(4) -0.2270(10) 0.4147(3)
H10B H 1.2480 -0.3258 0.3902
C20B C 1.1803(5) -0.1046(11) 0.4112(3)
H11B H 1.1246 -0.1011 0.3839
C21B C 1.1513(4) 0.1603(9) 0.4693(3)
C22B C 1.1343(14) 0.3067(18) 0.4415(9)
H12B H 1.1622 0.3285 0.4122
C23B C 1.0725(14) 0.4399(17) 0.4544(9)
H13B H 1.0605 0.5448 0.4316
C24B C 1.0327(4) 0.4294(9) 0.4934(3)
C25B C 1.0518(11) 0.2807(18) 0.5207(5)
H14B H 1.0269 0.2615 0.5514
C26B C 1.1082(11) 0.1442(18) 0.5072(5)
H15B H 1.1146 0.0335 0.5273
Co1B Co 0.43928(5) 1.66175(10) 0.48835(3)
O1B O 0.5160(3) 1.7973(6) 0.55561(17)
O2B O 0.6114(3) 1.5538(6) 0.57007(18)
O3B O 0.5237(3) 2.2681(6) 0.93900(17)
O4B O 0.6160(3) 2.5165(6) 0.95646(17)
C1B C 0.5854(4) 1.7115(8) 0.5827(2)
C2B C 0.6425(4) 1.7991(8) 0.6353(2)
C3B C 0.6198(4) 1.9738(8) 0.6527(2)
H1B H 0.5693 2.0381 0.6311
C4B C 0.6712(4) 2.0514(8) 0.7014(2)
H2B H 0.6536 2.1660 0.7129
C5B C 0.7486(4) 1.9640(8) 0.7341(2)
C6B C 0.7721(4) 1.7903(8) 0.7166(3)
H3B H 0.8237 1.7278 0.7376
C7B C 0.7192(4) 1.7112(9) 0.6684(3)
H4B H 0.7355 1.5946 0.6577
C8B C 0.8638(4) 2.2132(9) 0.7610(3)
C9B C 0.8091(4) 2.0660(8) 0.7853(2)
C10B C 0.8785(4) 1.9389(10) 0.8246(3)
C11B C 0.7495(4) 2.1548(8) 0.8215(2)
C12B C 0.6815(4) 2.0474(9) 0.8354(2)
H5B H 0.6703 1.9281 0.8207
C13B C 0.6296(4) 2.1146(8) 0.8709(2)
H6B H 0.5851 2.0390 0.8803
C14B C 0.6432(4) 2.2915(8) 0.8923(2)
C15B C 0.7116(4) 2.4015(9) 0.8782(3)
H7B H 0.7224 2.5212 0.8927
C16B C 0.7635(4) 2.3336(9) 0.8430(3)
H8B H 0.8082 2.4086 0.8336
C17B C 0.5891(4) 2.3658(8) 0.9318(2)
F1B F 0.9037(2) 2.1374(6) 0.72309(15)
F2B F 0.8096(3) 2.3494(5) 0.73490(16)
F3B F 0.9319(2) 2.2929(6) 0.79981(16)
F4B F 0.9215(3) 2.0255(6) 0.87181(15)
F5B F 0.8380(3) 1.7902(5) 0.83987(16)
F6B F 0.9461(2) 1.8771(6) 0.80159(16)
Co1A Co 0.43928(5) 0.33825(10) -0.01165(3)
Co1A_2 Co 0.43928(5) 2.33825(10) 0.98835(3)
Co1B_2 Co 1.43928(5) -0.33825(10) 0.48835(3)
Co1C Co 0.56072(5) 0.66175(10) 0.01165(3)
Co1C_2 Co 0.56072(5) 2.66175(10) 1.01165(3)
N1B_2 N 0.3205(3) 1.8149(6) 0.45989(19)
O3A O 0.5237(3) 1.7319(6) 0.43900(17)
O3C O 0.4763(3) 1.2681(6) 0.56100(17)
O4A O 0.6160(3) 1.4835(6) 0.45646(17)
O4C O 0.3840(3) 1.5165(6) 0.54354(17)
loop_
_geom_bond_atom_site_label_1
_geom_bond_atom_site_label_2
_geom_bond_site_symmetry_1
_geom_bond_site_symmetry_2
Co1 N1 1_555 1_555
N1 C18 1_555 1_555
N2 C18 1_555 1_555
O1 Co1 1_555 1_555
O2 C1 1_555 1_555
O3 C17 1_555 1_555
O4 C17 1_555 1_555
C1 O1 1_555 1_555
C2 C1 1_555 1_555
C3 C2 1_555 1_555
H1 C3 1_555 1_555
C4 C3 1_555 1_555
H2 C4 1_555 1_555
C5 C4 1_555 1_555
C6 C5 1_555 1_555
H3 C6 1_555 1_555
C7 C2 1_555 1_555
H4 C7 1_555 1_555
C8 C9 1_555 1_555
C9 C5 1_555 1_555
C10 C9 1_555 1_555
C11 C9 1_555 1_555
C12 C11 1_555 1_555
H5 C12 1_555 1_555
C13 C12 1_555 1_555
H6 C13 1_555 1_555
C14 C13 1_555 1_555
C15 C14 1_555 1_555
H7 C15 1_555 1_555
C16 C11 1_555 1_555
H8 C16 1_555 1_555
C17 C14 1_555 1_555
C18 H9 1_555 1_555
C19 N1 1_555 1_555
H10 C19 1_555 1_555
C20 N2 1_555 1_555
H11 C20 1_555 1_555
C21 N2 1_555 1_555
C22 C21 1_555 1_555
H12 C22 1_555 1_555
C23 C22 1_555 1_555
H13 C23 1_555 1_555
C24 C23 1_555 1_555
C25 C24 1_555 1_555
H14 C25 1_555 1_555
C26 C21 1_555 1_555
H15 C26 1_555 1_555
F1 C8 1_555 1_555
F2 C8 1_555 1_555
F3 C8 1_555 1_555
F4 C10 1_555 1_555
F5 C10 1_555 1_555
F6 C10 1_555 1_555
N1B C18B 1_555 1_555
N2B C18B 1_555 1_555
C18B H9B 1_555 1_555
C19B N1B 1_555 1_555
H10B C19B 1_555 1_555
C20B N2B 1_555 1_555
H11B C20B 1_555 1_555
C21B N2B 1_555 1_555
C22B C21B 1_555 1_555
H12B C22B 1_555 1_555
C23B C22B 1_555 1_555
H13B C23B 1_555 1_555
C24B C24 1_555 1_555
C25B C24B 1_555 1_555
H14B C25B 1_555 1_555
C26B C21B 1_555 1_555
H15B C26B 1_555 1_555
Co1B Co1 1_555 1_555
O1B Co1B 1_555 1_555
O2B Co1 1_555 1_555
O3B C17B 1_555 1_555
O4B C17B 1_555 1_555
C1B O1B 1_555 1_555
C2B C1B 1_555 1_555
C3B C2B 1_555 1_555
H1B C3B 1_555 1_555
C4B C3B 1_555 1_555
H2B C4B 1_555 1_555
C5B C4B 1_555 1_555
C6B C5B 1_555 1_555
H3B C6B 1_555 1_555
C7B C2B 1_555 1_555
H4B C7B 1_555 1_555
C8B C9B 1_555 1_555
C9B C5B 1_555 1_555
C10B C9B 1_555 1_555
C11B C9B 1_555 1_555
C12B C11B 1_555 1_555
H5B C12B 1_555 1_555
C13B C12B 1_555 1_555
H6B C13B 1_555 1_555
C14B C13B 1_555 1_555
C15B C14B 1_555 1_555
H7B C15B 1_555 1_555
C16B C11B 1_555 1_555
H8B C16B 1_555 1_555
C17B C14B 1_555 1_555
F1B C8B 1_555 1_555
F2B C8B 1_555 1_555
F3B C8B 1_555 1_555
F4B C10B 1_555 1_555
F5B C10B 1_555 1_555
F6B C10B 1_555 1_555
Co1A O4 1_555 1_555
Co1A_2 O3B 1_555 1_555
Co1B_2 N1B 1_555 1_555
Co1C O3 1_555 1_555
Co1C_2 O4B 1_555 1_555
N1B_2 Co1B 1_555 1_555
O3A Co1B 1_555 1_555
O3C Co1 1_555 1_555
O4A Co1 1_555 1_555
O4C Co1B 1_555 1_555
O2 Co1B 1_555 1_555
C6 C7 1_555 1_555
C15 C16 1_555 1_555
C19 C20 1_555 1_555
C25 C26 1_555 1_555
C19B C20B 1_555 1_555
C23B C24B 1_555 1_555
C25B C26B 1_555 1_555
O2B C1B 1_555 1_555
C6B C7B 1_555 1_555
C15B C16B 1_555 1_555
Co1A Co1C 1_555 1_555
Co1A_2 Co1C_2 1_555 1_555

#END
