
#######################################################################
#
#                 Cambridge Crystallographic Data Centre
#                                CCDC 
#
#######################################################################
#
# If this CIF has been generated from an entry in the Cambridge 
# Structural Database, then it will include bibliographic, chemical, 
# crystal, experimental, refinement or atomic coordinate data resulting 
# from the CCDC's data processing and validation procedures.
#
#######################################################################

data_QIZMIX
_chemical_formula_moiety         '(C142 H100 N18 O30 Zn8)n'
_symmetry_cell_setting           monoclinic
_symmetry_space_group_name_H-M   'P 21/c'
_symmetry_Int_Tables_number      14
_space_group_name_Hall           '-P 2ybc'
loop_
_symmetry_equiv_pos_site_id
_symmetry_equiv_pos_as_xyz
1 x,y,z
2 -x,1/2+y,1/2-z
3 -x,-y,-z
4 x,1/2-y,1/2+z
_cell_length_a                   26.713(3)
_cell_length_b                   10.1860(6)
_cell_length_c                   26.764(3)
_cell_angle_alpha                90
_cell_angle_beta                 114.765(12)
_cell_angle_gamma                90
_cell_volume                     6612.71
loop_
_atom_site_label
_atom_site_type_symbol
_atom_site_fract_x
_atom_site_fract_y
_atom_site_fract_z
Zn1 Zn 0.17446(3) -0.06977(8) 0.61666(3)
Zn2 Zn 0.29979(4) -0.03396(8) 0.67957(4)
Zn3 Zn 0.20651(3) 0.11668(8) 0.71472(3)
Zn4 Zn 0.24511(3) -0.18549(8) 0.74090(4)
C1 C 0.1682(3) -0.4348(7) 0.5581(3)
C2 C 0.1787(3) -0.5483(6) 0.5892(3)
H1 H 0.1929 -0.5426 0.6273
C3 C 0.1685(3) -0.6691(6) 0.5645(3)
C4 C 0.1478(3) -0.6777(7) 0.5081(3)
H2 H 0.1410 -0.7597 0.4912
C5 C 0.1371(3) -0.5660(7) 0.4764(3)
C6 C 0.1472(3) -0.4438(7) 0.5023(3)
H3 H 0.1395 -0.3676 0.4812
C7 C 0.1768(3) -0.3043(7) 0.5868(3)
C8 C 0.1786(3) -0.7901(7) 0.5998(3)
C9 C 0.1026(3) -0.6806(7) 0.3912(3)
H4 H 0.0773 -0.7293 0.4017
H5 H 0.1352 -0.7341 0.3996
C10 C 0.0759(3) -0.6515(7) 0.3312(3)
C11 C 0.0429(3) -0.7440(7) 0.2954(3)
H6 H 0.0364 -0.8235 0.3086
C12 C 0.0195(3) -0.7190(7) 0.2395(3)
H7 H -0.0030 -0.7824 0.2156
C13 C 0.0285(3) -0.6031(6) 0.2183(3)
C14 C 0.0610(3) -0.5107(7) 0.2558(3)
H8 H 0.0672 -0.4304 0.2429
C15 C 0.0841(3) -0.5334(7) 0.3108(3)
H9 H 0.1055 -0.4689 0.3349
C16 C 0.0009(3) -0.5759(6) 0.1585(3)
C17 C -0.0550(3) -0.5944(8) 0.1328(3)
H10 H -0.0736 -0.6256 0.1531
C18 C -0.0845(3) -0.5679(9) 0.0775(4)
H11 H -0.1223 -0.5829 0.0605
C19 C -0.0572(3) -0.5189(9) 0.0480(3)
H12 H -0.0766 -0.4999 0.0108
C20 C -0.0020(3) -0.4981(7) 0.0730(3)
H13 H 0.0157 -0.4636 0.0525
C21 C 0.0285(3) -0.5264(6) 0.1277(3)
C22 C 0.0903(3) -0.5111(7) 0.1497(3)
C23 C 0.3577(3) 0.5758(7) 0.7107(3)
C24 C 0.3383(3) 0.4566(7) 0.7190(3)
H14 H 0.3110 0.4544 0.7320
C25 C 0.3582(3) 0.3411(7) 0.7086(3)
C26 C 0.3997(3) 0.3454(7) 0.6899(4)
H15 H 0.4137 0.2675 0.6827
C27 C 0.4200(4) 0.4632(8) 0.6819(4)
C28 C 0.3988(3) 0.5801(7) 0.6931(4)
H16 H 0.4128 0.6606 0.6885
C29 C 0.3318(3) 0.6981(7) 0.7198(3)
C30 C 0.3346(3) 0.2137(7) 0.7154(3)
C31 C 0.4871(4) 0.3621(9) 0.6573(5)
H17 H 0.4607 0.3020 0.6315
H18 H 0.5055 0.3179 0.6924
C32 C 0.5287(3) 0.4052(8) 0.6360(4)
C33 C 0.5239(3) 0.3629(8) 0.5865(4)
H19 H 0.4939 0.3113 0.5650
C34 C 0.5629(3) 0.3951(8) 0.5672(4)
H20 H 0.5589 0.3657 0.5329
C35 C 0.6076(3) 0.4707(7) 0.5990(3)
C36 C 0.6117(3) 0.5164(8) 0.6485(3)
H21 H 0.6408 0.5715 0.6693
C37 C 0.5735(4) 0.4824(8) 0.6681(4)
H22 H 0.5777 0.5107 0.7026
C38 C 0.6492(3) 0.5086(7) 0.5778(3)
C39 C 0.6309(3) 0.5497(8) 0.5238(3)
H23 H 0.5933 0.5493 0.5016
C40 C 0.6666(4) 0.5915(9) 0.5014(4)
H24 H 0.6531 0.6175 0.4648
C41 C 0.7223(4) 0.5938(10) 0.5342(4)
H25 H 0.7466 0.6222 0.5197
C42 C 0.7420(3) 0.5546(8) 0.5878(4)
H26 H 0.7797 0.5571 0.6100
C43 C 0.7053(3) 0.5107(7) 0.6093(3)
C44 C 0.7314(3) 0.4617(7) 0.6673(3)
C45 C 0.0093(3) -0.4970(9) 0.5292(3)
C46 C 0.0224(5) -0.6076(11) 0.5639(5)
H27 H 0.0188 -0.6900 0.5477
C47 C 0.0395(5) -0.6019(10) 0.6185(5)
H28 H 0.0481 -0.6794 0.6387
C48 C 0.0444(3) -0.4878(8) 0.6446(4)
C49 C 0.0333(4) -0.3765(9) 0.6130(4)
H29 H 0.0381 -0.2951 0.6302
C50 C 0.0158(4) -0.3812(9) 0.5581(4)
H30 H 0.0077 -0.3026 0.5386
C51 C 0.0637(3) -0.4846(8) 0.7058(4)
H31 H 0.0336 -0.4577 0.7148
H32 H 0.0754 -0.5716 0.7208
C52 C 0.1597(3) -0.2528(8) 0.7825(4)
H33 H 0.1745 -0.1921 0.8109
C53 C 0.1497(3) -0.3662(8) 0.7154(3)
H34 H 0.1539 -0.4057 0.6861
C54 C 0.1674(3) 0.2868(8) 0.7845(4)
H35 H 0.1347 0.2398 0.7739
C55 C 0.2433(3) 0.3527(8) 0.7887(3)
H36 H 0.2750 0.3648 0.7828
C56 C 0.2666(3) 0.5102(8) 0.8670(4)
H37 H 0.2589 0.5060 0.8993
H38 H 0.2582 0.5982 0.8519
C57 C 0.3259(3) 0.4800(8) 0.8825(4)
C58 C 0.3596(4) 0.5693(9) 0.8739(4)
H39 H 0.3459 0.6513 0.8594
C59 C 0.4146(4) 0.5381(9) 0.8869(4)
H40 H 0.4370 0.5995 0.8804
C60 C 0.4364(4) 0.4176(8) 0.9093(4)
C61 C 0.4015(4) 0.3291(8) 0.9176(4)
H41 H 0.4147 0.2469 0.9322
C62 C 0.3476(4) 0.3606(8) 0.9047(4)
H42 H 0.3252 0.2994 0.9111
C63 C 0.4948(4) 0.3847(9) 0.9269(4)
C64 C 0.5358(4) 0.4724(9) 0.9566(4)
H43 H 0.5266 0.5564 0.9635
C65 C 0.5907(4) 0.4358(11) 0.9764(4)
H44 H 0.6178 0.4966 0.9961
C66 C 0.6062(4) 0.3140(10) 0.9678(4)
C67 C 0.5649(4) 0.2296(9) 0.9357(4)
H45 H 0.5746 0.1480 0.9269
C68 C 0.5107(4) 0.2604(9) 0.9165(4)
H46 H 0.4841 0.1991 0.8965
C69 C 0.6658(3) 0.2774(11) 0.9913(4)
H47 H 0.6823 0.2940 1.0306
H48 H 0.6693 0.1845 0.9856
C70 C 0.7323(5) 0.5103(12) 0.9459(5)
H49 H 0.7504 0.5897 0.9485
C71 C 0.6916(4) 0.3376(10) 0.9163(4)
H50 H 0.6746 0.2666 0.8938
N1 N 0.2035(2) 0.2717(6) 0.7606(2)
N2 N 0.1838(3) 0.3738(7) 0.8234(3)
N3 N 0.2328(3) 0.4146(6) 0.8262(3)
N4 N 0.7155(3) 0.4348(7) 0.9020(3)
N5 N 0.7209(4) 0.4625(11) 0.9863(4)
N6 N 0.6949(3) 0.3533(9) 0.9653(3)
N7 N 0.1825(2) -0.2774(6) 0.7472(3)
N8 N 0.1158(3) -0.3189(7) 0.7743(3)
N9 N 0.1095(2) -0.3927(6) 0.7301(3)
O1 O 0.1955(2) -0.3005(5) 0.6373(2)
O2 O 0.1647(2) -0.2012(5) 0.5587(2)
O3 O 0.1963(2) -0.7709(5) 0.6492(2)
O4 O 0.1677(2) -0.8999(4) 0.57667(19)
O5 O 0.12162(18) -0.5845(5) 0.18677(19)
O6 O 0.10548(19) -0.4253(5) 0.1256(2)
O7 O 0.1173(2) -0.5619(5) 0.4210(2)
O8 O 0.3465(2) 0.1144(5) 0.6935(3)
O9 O 0.3050(2) 0.2077(5) 0.7401(2)
O10 O 0.29827(19) 0.6851(5) 0.7398(2)
O11 O 0.3449(2) 0.8042(5) 0.7047(2)
O12 O 0.7122(2) 0.3591(5) 0.6789(2)
O13 O 0.7718(2) 0.5207(6) 0.7014(2)
O14 O 0.4599(3) 0.4778(5) 0.6634(3)
O15 O 0.23391(16) -0.0405(4) 0.69011(18)
C45B C -0.0093(3) -0.5030(9) 0.4708(3)
C46B C -0.0224(5) -0.3924(11) 0.4361(5)
H27B H -0.0188 -0.3100 0.4523
C47B C -0.0395(5) -0.3981(10) 0.3815(5)
H28B H -0.0481 -0.3206 0.3613
C48B C -0.0444(3) -0.5122(8) 0.3554(4)
C49B C -0.0333(4) -0.6235(9) 0.3870(4)
H29B H -0.0381 -0.7049 0.3698
C50B C -0.0158(4) -0.6188(9) 0.4419(4)
H30B H -0.0077 -0.6974 0.4614
C51B C -0.0637(3) -0.5154(8) 0.2942(4)
H31B H -0.0336 -0.5423 0.2852
H32B H -0.0754 -0.4284 0.2792
C52B C -0.1597(3) -0.7472(8) 0.2175(4)
H33B H -0.1745 -0.8079 0.1891
C53B C -0.1497(3) -0.6338(8) 0.2846(3)
H34B H -0.1539 -0.5943 0.3139
N7B N -0.1825(2) -0.7226(6) 0.2528(3)
N8B N -0.1158(3) -0.6811(7) 0.2257(3)
N9B N -0.1095(2) -0.6073(6) 0.2699(3)
Zn1B Zn -0.17446(3) -0.93023(8) 0.38334(3)
Zn2B Zn -0.29979(4) -0.96604(8) 0.32043(4)
Zn3B Zn -0.20651(3) -1.11668(8) 0.28528(3)
Zn4B Zn -0.24511(3) -0.81451(8) 0.25910(4)
C1B C -0.1682(3) -0.5652(7) 0.4419(3)
C2B C -0.1787(3) -0.4517(6) 0.4108(3)
H1B H -0.1929 -0.4574 0.3727
C3B C -0.1685(3) -0.3309(6) 0.4355(3)
C4B C -0.1478(3) -0.3223(7) 0.4919(3)
H2B H -0.1410 -0.2403 0.5088
C5B C -0.1371(3) -0.4340(7) 0.5236(3)
C6B C -0.1472(3) -0.5562(7) 0.4977(3)
H3B H -0.1395 -0.6324 0.5188
C7B C -0.1768(3) -0.6957(7) 0.4132(3)
C8B C -0.1786(3) -0.2099(7) 0.4002(3)
C9B C -0.1026(3) -0.3194(7) 0.6088(3)
H4B H -0.0773 -0.2707 0.5983
H5B H -0.1352 -0.2659 0.6004
C10B C -0.0759(3) -0.3485(7) 0.6688(3)
C11B C -0.0429(3) -0.2560(7) 0.7046(3)
H6B H -0.0364 -0.1765 0.6914
C12B C -0.0195(3) -0.2810(7) 0.7605(3)
H7B H 0.0030 -0.2176 0.7844
C13B C -0.0285(3) -0.3969(6) 0.7817(3)
C14B C -0.0610(3) -0.4893(7) 0.7442(3)
H8B H -0.0672 -0.5696 0.7571
C15B C -0.0841(3) -0.4666(7) 0.6892(3)
H9B H -0.1055 -0.5311 0.6651
C16B C -0.0009(3) -0.4241(6) 0.8415(3)
C17B C 0.0550(3) -0.4056(8) 0.8672(3)
H10B H 0.0736 -0.3744 0.8469
C18B C 0.0845(3) -0.4321(9) 0.9225(4)
H11B H 0.1223 -0.4171 0.9395
C19B C 0.0572(3) -0.4811(9) 0.9520(3)
H12B H 0.0766 -0.5001 0.9892
C20B C 0.0020(3) -0.5019(7) 0.9270(3)
H13B H -0.0157 -0.5364 0.9475
C21B C -0.0285(3) -0.4736(6) 0.8723(3)
C22B C -0.0903(3) -0.4889(7) 0.8503(3)
C23B C -0.3577(3) -1.5758(7) 0.2893(3)
C24B C -0.3383(3) -1.4566(7) 0.2810(3)
H14B H -0.3110 -1.4544 0.2680
C25B C -0.3582(3) -1.3411(7) 0.2914(3)
C26B C -0.3997(3) -1.3454(7) 0.3101(4)
H15B H -0.4137 -1.2675 0.3173
C27B C -0.4200(4) -1.4632(8) 0.3181(4)
C28B C -0.3988(3) -1.5801(7) 0.3069(4)
H16B H -0.4128 -1.6606 0.3115
C29B C -0.3318(3) -1.6981(7) 0.2802(3)
C30B C -0.3346(3) -1.2137(7) 0.2846(3)
C31B C -0.4871(4) -1.3621(9) 0.3427(5)
H17B H -0.4607 -1.3020 0.3685
H18B H -0.5055 -1.3179 0.3076
C32B C -0.5287(3) -1.4052(8) 0.3640(4)
C33B C -0.5239(3) -1.3629(8) 0.4135(4)
H19B H -0.4939 -1.3113 0.4350
C34B C -0.5629(3) -1.3951(8) 0.4328(4)
H20B H -0.5589 -1.3657 0.4671
C35B C -0.6076(3) -1.4707(7) 0.4010(3)
C36B C -0.6117(3) -1.5164(8) 0.3515(3)
H21B H -0.6408 -1.5715 0.3307
C37B C -0.5735(4) -1.4824(8) 0.3319(4)
H22B H -0.5777 -1.5107 0.2974
C38B C -0.6492(3) -1.5086(7) 0.4222(3)
C39B C -0.6309(3) -1.5497(8) 0.4762(3)
H23B H -0.5933 -1.5493 0.4984
C40B C -0.6666(4) -1.5915(9) 0.4986(4)
H24B H -0.6531 -1.6175 0.5352
C41B C -0.7223(4) -1.5938(10) 0.4658(4)
H25B H -0.7466 -1.6222 0.4803
C42B C -0.7420(3) -1.5546(8) 0.4122(4)
H26B H -0.7797 -1.5571 0.3900
C43B C -0.7053(3) -1.5107(7) 0.3907(3)
C44B C -0.7314(3) -1.4617(7) 0.3327(3)
C54B C -0.1674(3) -1.2868(8) 0.2155(4)
H35B H -0.1347 -1.2398 0.2261
C55B C -0.2433(3) -1.3527(8) 0.2113(3)
H36B H -0.2750 -1.3648 0.2172
C56B C -0.2666(3) -1.5102(8) 0.1330(4)
H37B H -0.2589 -1.5060 0.1007
H38B H -0.2582 -1.5982 0.1481
C57B C -0.3259(3) -1.4800(8) 0.1175(4)
C58B C -0.3596(4) -1.5693(9) 0.1261(4)
H39B H -0.3459 -1.6513 0.1406
C59B C -0.4146(4) -1.5381(9) 0.1131(4)
H40B H -0.4370 -1.5995 0.1196
C60B C -0.4364(4) -1.4176(8) 0.0907(4)
C61B C -0.4015(4) -1.3291(8) 0.0824(4)
H41B H -0.4147 -1.2469 0.0678
C62B C -0.3476(4) -1.3606(8) 0.0953(4)
H42B H -0.3252 -1.2994 0.0889
C63B C -0.4948(4) -1.3847(9) 0.0731(4)
C64B C -0.5358(4) -1.4724(9) 0.0434(4)
H43B H -0.5266 -1.5564 0.0365
C65B C -0.5907(4) -1.4358(11) 0.0236(4)
H44B H -0.6178 -1.4966 0.0039
C66B C -0.6062(4) -1.3140(10) 0.0322(4)
C67B C -0.5649(4) -1.2296(9) 0.0643(4)
H45B H -0.5746 -1.1480 0.0731
C68B C -0.5107(4) -1.2604(9) 0.0835(4)
H46B H -0.4841 -1.1991 0.1035
C69B C -0.6658(3) -1.2774(11) 0.0087(4)
H47B H -0.6823 -1.2940 -0.0306
H48B H -0.6693 -1.1845 0.0144
C70B C -0.7323(5) -1.5103(12) 0.0541(5)
H49B H -0.7504 -1.5897 0.0515
C71B C -0.6916(4) -1.3376(10) 0.0837(4)
H50B H -0.6746 -1.2666 0.1062
N1B N -0.2035(2) -1.2717(6) 0.2394(2)
N2B N -0.1838(3) -1.3738(7) 0.1766(3)
N3B N -0.2328(3) -1.4146(6) 0.1738(3)
N4B N -0.7155(3) -1.4348(7) 0.0980(3)
N5B N -0.7209(4) -1.4625(11) 0.0137(4)
N6B N -0.6949(3) -1.3533(9) 0.0347(3)
O1B O -0.1955(2) -0.6995(5) 0.3627(2)
O2B O -0.1647(2) -0.7988(5) 0.4413(2)
O3B O -0.1963(2) -0.2291(5) 0.3508(2)
O4B O -0.1677(2) -0.1001(4) 0.42333(19)
O5B O -0.12162(18) -0.4155(5) 0.81323(19)
O6B O -0.10548(19) -0.5747(5) 0.8744(2)
O7B O -0.1173(2) -0.4381(5) 0.5790(2)
O8B O -0.3465(2) -1.1144(5) 0.3065(3)
O9B O -0.3050(2) -1.2077(5) 0.2599(2)
O10B O -0.29827(19) -1.6851(5) 0.2602(2)
O11B O -0.3449(2) -1.8042(5) 0.2953(2)
O12B O -0.7122(2) -1.3591(5) 0.3211(2)
O13B O -0.7718(2) -1.5207(6) 0.2986(2)
O14B O -0.4599(3) -1.4778(5) 0.3366(3)
O15B O -0.23391(16) -0.9595(4) 0.30989(18)
Zn1_2 Zn 0.17446(3) -1.06977(8) 0.61666(3)
Zn1A Zn -0.17446(3) -0.56977(8) 0.88334(3)
Zn1B_2 Zn -0.17446(3) 0.06977(8) 0.38334(3)
Zn1C Zn 0.17446(3) -0.43023(8) 0.11666(3)
Zn2_2 Zn 0.29979(4) 0.96604(8) 0.67957(4)
Zn2A Zn 0.70021(4) 0.46604(8) 0.82043(4)
Zn2B_2 Zn -0.29979(4) -1.96604(8) 0.32043(4)
Zn2C Zn -0.70021(4) -1.46604(8) 0.17957(4)
Zn3_2 Zn 0.20651(3) -0.88332(8) 0.71472(3)
Zn3A Zn -0.20651(3) -0.38332(8) 0.78528(3)
Zn3A_2 Zn 0.79349(3) 0.61668(8) 0.78528(3)
Zn3B_2 Zn -0.20651(3) -0.11668(8) 0.28528(3)
Zn3C Zn -0.79349(3) -1.61668(8) 0.21472(3)
Zn3C_2 Zn 0.20651(3) -0.61668(8) 0.21472(3)
Zn4_2 Zn 0.24511(3) 0.81451(8) 0.74090(4)
Zn4A Zn 0.75489(3) 0.31451(8) 0.75910(4)
Zn4B_2 Zn -0.24511(3) -1.81451(8) 0.25910(4)
Zn4C Zn -0.75489(3) -1.31451(8) 0.24090(4)
N4A N 0.2845(3) -0.0652(7) 0.5980(3)
N4C N -0.2845(3) -0.9348(7) 0.4020(3)
O3_2 O 0.1963(2) 0.2291(5) 0.6492(2)
O3B_2 O -0.1963(2) -1.2291(5) 0.3508(2)
O4_2 O 0.1677(2) 0.1001(4) 0.57667(19)
O4B_2 O -0.1677(2) -1.1001(4) 0.42333(19)
O5A O -0.12162(18) -1.0845(5) 0.31323(19)
O5C O 0.12162(18) 0.0845(5) 0.68677(19)
O6A O -0.10548(19) -0.9253(5) 0.3744(2)
O6C O 0.10548(19) -0.0747(5) 0.6256(2)
O10_2 O 0.29827(19) -0.3149(5) 0.7398(2)
O10B_2 O -0.29827(19) -0.6851(5) 0.2602(2)
O11_2 O 0.3449(2) -0.1958(5) 0.7047(2)
O11B_2 O -0.3449(2) -0.8042(5) 0.2953(2)
O12A O 0.2878(2) -0.1409(5) 0.8211(2)
O12C O -0.2878(2) -0.8591(5) 0.1789(2)
O13A O 0.2282(2) 0.0207(6) 0.7986(2)
O13C O -0.2282(2) -1.0207(6) 0.2014(2)
loop_
_geom_bond_atom_site_label_1
_geom_bond_atom_site_label_2
_geom_bond_site_symmetry_1
_geom_bond_site_symmetry_2
Zn1 O1 1_555 1_555
Zn2 O8 1_555 1_555
Zn3 N1 1_555 1_555
Zn4 N7 1_555 1_555
C1 C2 1_555 1_555
C2 H1 1_555 1_555
C3 C2 1_555 1_555
C4 C3 1_555 1_555
H2 C4 1_555 1_555
C5 C4 1_555 1_555
C6 C1 1_555 1_555
H3 C6 1_555 1_555
C7 C1 1_555 1_555
C8 C3 1_555 1_555
C9 H4 1_555 1_555
H5 C9 1_555 1_555
C10 C9 1_555 1_555
C11 C10 1_555 1_555
H6 C11 1_555 1_555
C12 C11 1_555 1_555
H7 C12 1_555 1_555
C13 C12 1_555 1_555
C14 C13 1_555 1_555
H8 C14 1_555 1_555
C15 C10 1_555 1_555
H9 C15 1_555 1_555
C16 C13 1_555 1_555
C17 C16 1_555 1_555
H10 C17 1_555 1_555
C18 C17 1_555 1_555
H11 C18 1_555 1_555
C19 C18 1_555 1_555
H12 C19 1_555 1_555
C20 C19 1_555 1_555
H13 C20 1_555 1_555
C21 C16 1_555 1_555
C22 C21 1_555 1_555
C23 C24 1_555 1_555
C24 H14 1_555 1_555
C25 C24 1_555 1_555
C26 C25 1_555 1_555
H15 C26 1_555 1_555
C27 C26 1_555 1_555
C28 C23 1_555 1_555
H16 C28 1_555 1_555
C29 C23 1_555 1_555
C30 C25 1_555 1_555
C31 H17 1_555 1_555
H18 C31 1_555 1_555
C32 C31 1_555 1_555
C33 C32 1_555 1_555
H19 C33 1_555 1_555
C34 C33 1_555 1_555
H20 C34 1_555 1_555
C35 C34 1_555 1_555
C36 C35 1_555 1_555
H21 C36 1_555 1_555
C37 C32 1_555 1_555
H22 C37 1_555 1_555
C38 C35 1_555 1_555
C39 C38 1_555 1_555
H23 C39 1_555 1_555
C40 C39 1_555 1_555
H24 C40 1_555 1_555
C41 C40 1_555 1_555
H25 C41 1_555 1_555
C42 C41 1_555 1_555
H26 C42 1_555 1_555
C43 C38 1_555 1_555
C44 C43 1_555 1_555
C45 C46 1_555 1_555
C46 H27 1_555 1_555
C47 C46 1_555 1_555
H28 C47 1_555 1_555
C48 C47 1_555 1_555
C49 C48 1_555 1_555
H29 C49 1_555 1_555
C50 C45 1_555 1_555
H30 C50 1_555 1_555
C51 C48 1_555 1_555
H31 C51 1_555 1_555
H32 C51 1_555 1_555
C52 H33 1_555 1_555
C53 H34 1_555 1_555
C54 H35 1_555 1_555
C55 H36 1_555 1_555
C56 H37 1_555 1_555
H38 C56 1_555 1_555
C57 C56 1_555 1_555
C58 C57 1_555 1_555
H39 C58 1_555 1_555
C59 C58 1_555 1_555
H40 C59 1_555 1_555
C60 C59 1_555 1_555
C61 C60 1_555 1_555
H41 C61 1_555 1_555
C62 C57 1_555 1_555
H42 C62 1_555 1_555
C63 C60 1_555 1_555
C64 C63 1_555 1_555
H43 C64 1_555 1_555
C65 C64 1_555 1_555
H44 C65 1_555 1_555
C66 C65 1_555 1_555
C67 C66 1_555 1_555
H45 C67 1_555 1_555
C68 C63 1_555 1_555
H46 C68 1_555 1_555
C69 C66 1_555 1_555
H47 C69 1_555 1_555
H48 C69 1_555 1_555
C70 H49 1_555 1_555
C71 H50 1_555 1_555
N1 C54 1_555 1_555
N2 C54 1_555 1_555
N3 C55 1_555 1_555
N4 C70 1_555 1_555
N5 C70 1_555 1_555
N6 C69 1_555 1_555
N7 C52 1_555 1_555
N8 C52 1_555 1_555
N9 C51 1_555 1_555
O1 C7 1_555 1_555
O2 Zn1 1_555 1_555
O3 C8 1_555 1_555
O4 C8 1_555 1_555
O5 C22 1_555 1_555
O6 C22 1_555 1_555
O7 C5 1_555 1_555
O8 C30 1_555 1_555
O9 C30 1_555 1_555
O10 C29 1_555 1_555
O11 C29 1_555 1_555
O12 C44 1_555 1_555
O13 C44 1_555 1_555
O14 C27 1_555 1_555
O15 Zn1 1_555 1_555
C45B C45 1_555 1_555
C46B C45B 1_555 1_555
H27B C46B 1_555 1_555
C47B C46B 1_555 1_555
H28B C47B 1_555 1_555
C48B C47B 1_555 1_555
C49B C48B 1_555 1_555
H29B C49B 1_555 1_555
C50B C45B 1_555 1_555
H30B C50B 1_555 1_555
C51B C48B 1_555 1_555
H31B C51B 1_555 1_555
H32B C51B 1_555 1_555
C52B H33B 1_555 1_555
C53B H34B 1_555 1_555
N7B C52B 1_555 1_555
N8B C52B 1_555 1_555
N9B C51B 1_555 1_555
Zn1B O1B 1_555 1_555
Zn2B O8B 1_555 1_555
Zn3B N1B 1_555 1_555
Zn4B N7B 1_555 1_555
C1B C2B 1_555 1_555
C2B H1B 1_555 1_555
C3B C2B 1_555 1_555
C4B C3B 1_555 1_555
H2B C4B 1_555 1_555
C5B C4B 1_555 1_555
C6B C1B 1_555 1_555
H3B C6B 1_555 1_555
C7B C1B 1_555 1_555
C8B C3B 1_555 1_555
C9B H4B 1_555 1_555
H5B C9B 1_555 1_555
C10B C9B 1_555 1_555
C11B C10B 1_555 1_555
H6B C11B 1_555 1_555
C12B C11B 1_555 1_555
H7B C12B 1_555 1_555
C13B C12B 1_555 1_555
C14B C13B 1_555 1_555
H8B C14B 1_555 1_555
C15B C10B 1_555 1_555
H9B C15B 1_555 1_555
C16B C13B 1_555 1_555
C17B C16B 1_555 1_555
H10B C17B 1_555 1_555
C18B C17B 1_555 1_555
H11B C18B 1_555 1_555
C19B C18B 1_555 1_555
H12B C19B 1_555 1_555
C20B C19B 1_555 1_555
H13B C20B 1_555 1_555
C21B C16B 1_555 1_555
C22B C21B 1_555 1_555
C23B C24B 1_555 1_555
C24B H14B 1_555 1_555
C25B C24B 1_555 1_555
C26B C25B 1_555 1_555
H15B C26B 1_555 1_555
C27B C26B 1_555 1_555
C28B C23B 1_555 1_555
H16B C28B 1_555 1_555
C29B C23B 1_555 1_555
C30B C25B 1_555 1_555
C31B H17B 1_555 1_555
H18B C31B 1_555 1_555
C32B C31B 1_555 1_555
C33B C32B 1_555 1_555
H19B C33B 1_555 1_555
C34B C33B 1_555 1_555
H20B C34B 1_555 1_555
C35B C34B 1_555 1_555
C36B C35B 1_555 1_555
H21B C36B 1_555 1_555
C37B C32B 1_555 1_555
H22B C37B 1_555 1_555
C38B C35B 1_555 1_555
C39B C38B 1_555 1_555
H23B C39B 1_555 1_555
C40B C39B 1_555 1_555
H24B C40B 1_555 1_555
C41B C40B 1_555 1_555
H25B C41B 1_555 1_555
C42B C41B 1_555 1_555
H26B C42B 1_555 1_555
C43B C38B 1_555 1_555
C44B C43B 1_555 1_555
C54B H35B 1_555 1_555
C55B H36B 1_555 1_555
C56B H37B 1_555 1_555
H38B C56B 1_555 1_555
C57B C56B 1_555 1_555
C58B C57B 1_555 1_555
H39B C58B 1_555 1_555
C59B C58B 1_555 1_555
H40B C59B 1_555 1_555
C60B C59B 1_555 1_555
C61B C60B 1_555 1_555
H41B C61B 1_555 1_555
C62B C57B 1_555 1_555
H42B C62B 1_555 1_555
C63B C60B 1_555 1_555
C64B C63B 1_555 1_555
H43B C64B 1_555 1_555
C65B C64B 1_555 1_555
H44B C65B 1_555 1_555
C66B C65B 1_555 1_555
C67B C66B 1_555 1_555
H45B C67B 1_555 1_555
C68B C63B 1_555 1_555
H46B C68B 1_555 1_555
C69B C66B 1_555 1_555
H47B C69B 1_555 1_555
H48B C69B 1_555 1_555
C70B H49B 1_555 1_555
C71B H50B 1_555 1_555
N1B C54B 1_555 1_555
N2B C54B 1_555 1_555
N3B C55B 1_555 1_555
N4B C70B 1_555 1_555
N5B C70B 1_555 1_555
N6B C69B 1_555 1_555
O1B C7B 1_555 1_555
O2B Zn1B 1_555 1_555
O3B C8B 1_555 1_555
O4B C8B 1_555 1_555
O5B C22B 1_555 1_555
O6B C22B 1_555 1_555
O7B C5B 1_555 1_555
O8B C30B 1_555 1_555
O9B C30B 1_555 1_555
O10B C29B 1_555 1_555
O11B C29B 1_555 1_555
O12B C44B 1_555 1_555
O13B C44B 1_555 1_555
O14B C27B 1_555 1_555
O15B Zn1B 1_555 1_555
Zn1_2 O4 1_555 1_555
Zn1A O6B 1_555 1_555
Zn1B_2 O4B 1_555 1_555
Zn1C O6 1_555 1_555
Zn2_2 O11 1_555 1_555
Zn2A N4 1_555 1_555
Zn2B_2 O11B 1_555 1_555
Zn2C N4B 1_555 1_555
Zn3_2 O3 1_555 1_555
Zn3A O5B 1_555 1_555
Zn3A_2 O13 1_555 1_555
Zn3B_2 O3B 1_555 1_555
Zn3C O13B 1_555 1_555
Zn3C_2 O5 1_555 1_555
Zn4_2 O10 1_555 1_555
Zn4A O12 1_555 1_555
Zn4B_2 O10B 1_555 1_555
Zn4C O12B 1_555 1_555
N4A Zn2 1_555 1_555
N4C Zn2B 1_555 1_555
O3_2 Zn3 1_555 1_555
O3B_2 Zn3B 1_555 1_555
O4_2 Zn1 1_555 1_555
O4B_2 Zn1B 1_555 1_555
O5A Zn3B 1_555 1_555
O5C Zn3 1_555 1_555
O6A Zn1B 1_555 1_555
O6C Zn1 1_555 1_555
O10_2 Zn4 1_555 1_555
O10B_2 Zn4B 1_555 1_555
O11_2 Zn2 1_555 1_555
O11B_2 Zn2B 1_555 1_555
O12A Zn4 1_555 1_555
O12C Zn4B 1_555 1_555
O13A Zn3 1_555 1_555
O13C Zn3B 1_555 1_555
Zn2 O15 1_555 1_555
Zn3 O15 1_555 1_555
Zn4 O15 1_555 1_555
C5 C6 1_555 1_555
C7 O2 1_555 1_555
C9 O7 1_555 1_555
C14 C15 1_555 1_555
C20 C21 1_555 1_555
C27 C28 1_555 1_555
C31 O14 1_555 1_555
C36 C37 1_555 1_555
C42 C43 1_555 1_555
C49 C50 1_555 1_555
C53 N7 1_555 1_555
C53 N9 1_555 1_555
C55 N1 1_555 1_555
C56 N3 1_555 1_555
C61 C62 1_555 1_555
C67 C68 1_555 1_555
C71 N4 1_555 1_555
C71 N6 1_555 1_555
N2 N3 1_555 1_555
N5 N6 1_555 1_555
N8 N9 1_555 1_555
C49B C50B 1_555 1_555
C53B N7B 1_555 1_555
C53B N9B 1_555 1_555
N8B N9B 1_555 1_555
Zn2B O15B 1_555 1_555
Zn3B O15B 1_555 1_555
Zn4B O15B 1_555 1_555
C5B C6B 1_555 1_555
C7B O2B 1_555 1_555
C9B O7B 1_555 1_555
C14B C15B 1_555 1_555
C20B C21B 1_555 1_555
C27B C28B 1_555 1_555
C31B O14B 1_555 1_555
C36B C37B 1_555 1_555
C42B C43B 1_555 1_555
C55B N1B 1_555 1_555
C56B N3B 1_555 1_555
C61B C62B 1_555 1_555
C67B C68B 1_555 1_555
C71B N4B 1_555 1_555
C71B N6B 1_555 1_555
N2B N3B 1_555 1_555
N5B N6B 1_555 1_555

#END
