
#######################################################################
#
#                 Cambridge Crystallographic Data Centre
#                                CCDC 
#
#######################################################################
#
# If this CIF has been generated from an entry in the Cambridge 
# Structural Database, then it will include bibliographic, chemical, 
# crystal, experimental, refinement or atomic coordinate data resulting 
# from the CCDC's data processing and validation procedures.
#
#######################################################################

data_PUFRUF
_chemical_formula_moiety         'C124 H72 N2 O46 Zn18'
_symmetry_cell_setting           tetragonal
_symmetry_space_group_name_H-M   'P 42/m n m'
_symmetry_Int_Tables_number      136
_space_group_name_Hall           '-P 4n 2n'
loop_
_symmetry_equiv_pos_site_id
_symmetry_equiv_pos_as_xyz
1 x,y,z
2 1/2-y,1/2+x,1/2+z
3 -x,-y,z
4 1/2+y,1/2-x,1/2+z
5 1/2+x,1/2-y,1/2-z
6 y,x,-z
7 1/2-x,1/2+y,1/2-z
8 -y,-x,-z
9 -x,-y,-z
10 1/2+y,1/2-x,1/2-z
11 x,y,-z
12 1/2-y,1/2+x,1/2-z
13 1/2-x,1/2+y,1/2+z
14 -y,-x,z
15 1/2+x,1/2-y,1/2+z
16 y,x,z
_cell_length_a                   34.989(7)
_cell_length_b                   34.989(7)
_cell_length_c                   10.274(2)
_cell_angle_alpha                90
_cell_angle_beta                 90
_cell_angle_gamma                90
_cell_volume                     12577.7
loop_
_atom_site_label
_atom_site_type_symbol
_atom_site_fract_x
_atom_site_fract_y
_atom_site_fract_z
C1 C 0.19290(14) 1.09886(11) 0.2613(4)
C2 C 0.20181(14) 1.07740(12) 0.3823(4)
C3 C 0.19636(18) 1.09609(15) 0.5000
H1 H 0.1895 1.1218 0.5000
C4 C 0.21475(14) 1.04006(13) 0.3839(4)
H2 H 0.2189 1.0277 0.3051
C5 C 0.2211(2) 1.02013(19) 0.5000
C6 C 0.2367(3) 0.9823(2) 0.5000
C7 C 0.2631(4) 0.9691(4) 0.5921(13)
H3 H 0.2714 0.9867 0.6581
C8 C 0.2720(5) 0.9298(4) 0.5965(15)
H4 H 0.2882 0.9213 0.6662
C9 C 0.2648(4) 0.9066(3) 0.5000
C10 C 0.27918(16) 0.8671(2) 0.5000
C11 C 0.29133(16) 0.8470(2) 0.3960
H5 H 0.2925 0.8604 0.3181
C12 C 0.30233(16) 0.8090(2) 0.3890
H6 H 0.3083 0.7979 0.3091
C13 C 0.30433(16) 0.7880(2) 0.5000
C14 C 0.31533(16) 0.7500(2) 0.5000
C15 C 0.0817(3) 1.0817(3) 0.0000
C16 C 0.0562(3) 1.0384(3) 0.0000
C17 C 0.0733(6) 1.0023(6) 0.0000
H7 H 0.1000 1.0000 0.0000
C18 C 0.0162(6) 1.0467(6) 0.0000
H8 H 0.0162 1.0727 0.0000
C19 C -0.0076(5) 1.0178(5) 0.0000
C20 C -0.0239(5) 1.0467(5) 0.0000
H9 H -0.0489 1.0560 0.0000
O1 O 0.19017(12) 1.13328(10) 0.2675(3)
O2 O 0.18991(11) 1.07842(10) 0.1574(3)
O3 O 0.11270(13) 1.06961(13) 0.0000
O4 O 0.32252(13) 0.73607(13) 0.4074
O5 O 0.15179(9) 1.15179(9) 0.0000
Zn1 Zn 0.177299(11) 1.177299(11) 0.14659(5)
Zn2 Zn 0.16350(2) 1.098505(18) 0.0000
C21 C 0.2302(4) 0.9566(4) 0.5925(13)
H10 H 0.2174 0.9675 0.6662
C22 C 0.2382(5) 0.9169(4) 0.5983(15)
H11 H 0.2320 0.9068 0.6817
C1J C 0.19290(14) 1.09886(11) 0.7387(4)
C2J C 0.20181(14) 1.07740(12) 0.6177(4)
C4J C 0.21475(14) 1.04006(13) 0.6161(4)
H2J H 0.2189 1.0277 0.6949
C7J C 0.2631(4) 0.9691(4) 0.4079(13)
H3J H 0.2714 0.9867 0.3419
C8J C 0.2720(5) 0.9298(4) 0.4035(15)
H4J H 0.2882 0.9213 0.3338
C11J C 0.29133(16) 0.8470(2) 0.6040
H5J H 0.2925 0.8604 0.6819
C12J C 0.30233(16) 0.8090(2) 0.6110
H6J H 0.3083 0.7979 0.6909
O1J O 0.19017(12) 1.13328(10) 0.7325(3)
O2J O 0.18991(11) 1.07842(10) 0.8426(3)
O4J O 0.32252(13) 0.73607(13) 0.5926
C21J C 0.2302(4) 0.9566(4) 0.4075(13)
H10J H 0.2174 0.9675 0.3338
C22J C 0.2382(5) 0.9169(4) 0.4017(15)
H11J H 0.2320 0.9068 0.3183
C15B C -0.0817(3) 0.9183(3) 0.0000
C16B C -0.0562(3) 0.9616(3) 0.0000
C17B C -0.0733(6) 0.9977(6) 0.0000
H7B H -0.1000 1.0000 0.0000
C18B C -0.0162(6) 0.9533(6) 0.0000
H8B H -0.0162 0.9273 0.0000
C19B C 0.0076(5) 0.9822(5) 0.0000
C20B C 0.0239(5) 0.9533(5) 0.0000
H9B H 0.0489 0.9440 0.0000
O3B O -0.11270(13) 0.93039(13) 0.0000
C16E C 0.0384(3) 1.0562(3) 0.0000
C17E C 0.0023(6) 1.0733(6) 0.0000
H7E H -0.0000 1.1000 0.0000
C18E C 0.0467(6) 1.0162(6) 0.0000
H8E H 0.0727 1.0162 0.0000
C19E C 0.0178(5) 0.9924(5) 0.0000
C20E C 0.0467(5) 0.9761(5) 0.0000
H9E H 0.0560 0.9511 0.0000
O3E O 0.06961(13) 1.11270(13) 0.0000
C16G C -0.0384(3) 0.9438(3) 0.0000
C17G C -0.0023(6) 0.9267(6) 0.0000
H7G H 0.0000 0.9000 0.0000
C18G C -0.0467(6) 0.9838(6) 0.0000
H8G H -0.0727 0.9838 0.0000
C19G C -0.0178(5) 1.0076(5) 0.0000
C20G C -0.0467(5) 1.0239(5) 0.0000
H9G H -0.0560 1.0489 0.0000
O3G O -0.06961(13) 0.88730(13) 0.0000
C1B C -0.19290(14) 0.90114(11) 0.2613(4)
C2B C -0.20181(14) 0.92260(12) 0.3823(4)
C3B C -0.19636(18) 0.90391(15) 0.5000
H1B H -0.1895 0.8782 0.5000
C4B C -0.21475(14) 0.95994(13) 0.3839(4)
H2B H -0.2189 0.9723 0.3051
C5B C -0.2211(2) 0.97987(19) 0.5000
C6B C -0.2367(3) 1.0177(2) 0.5000
C7B C -0.2631(4) 1.0309(4) 0.5921(13)
H3B H -0.2714 1.0133 0.6581
C8B C -0.2720(5) 1.0702(4) 0.5965(15)
H4B H -0.2882 1.0787 0.6662
C9B C -0.2648(4) 1.0934(3) 0.5000
C10B C -0.27918(16) 1.1329(2) 0.5000
C11B C -0.29133(16) 1.1530(2) 0.3960
H5B H -0.2925 1.1396 0.3181
C12B C -0.30233(16) 1.1910(2) 0.3890
H6B H -0.3083 1.2021 0.3091
C13B C -0.30433(16) 1.2120(2) 0.5000
C14B C -0.31533(16) 1.2500(2) 0.5000
O1B O -0.19017(12) 0.86672(10) 0.2675(3)
O2B O -0.18991(11) 0.92158(10) 0.1574(3)
O4B O -0.32252(13) 1.26393(13) 0.4074
O5B O -0.15179(9) 0.84821(9) 0.0000
Zn1B Zn -0.177299(11) 0.822701(11) 0.14659(5)
Zn2B Zn -0.16350(2) 0.901495(18) 0.0000
C21B C -0.2302(4) 1.0434(4) 0.5925(13)
H10B H -0.2174 1.0325 0.6662
C22B C -0.2382(5) 1.0831(4) 0.5983(15)
H11B H -0.2320 1.0932 0.6817
C1H C -0.19290(14) 0.90114(11) 0.7387(4)
C2H C -0.20181(14) 0.92260(12) 0.6177(4)
C4H C -0.21475(14) 0.95994(13) 0.6161(4)
H2H H -0.2189 0.9723 0.6949
C7H C -0.2631(4) 1.0309(4) 0.4079(13)
H3H H -0.2714 1.0133 0.3419
C8H C -0.2720(5) 1.0702(4) 0.4035(15)
H4H H -0.2882 1.0787 0.3338
C11H C -0.29133(16) 1.1530(2) 0.6040
H5H H -0.2925 1.1396 0.6819
C12H C -0.30233(16) 1.1910(2) 0.6110
H6H H -0.3083 1.2021 0.6909
O1H O -0.19017(12) 0.86672(10) 0.7325(3)
O2H O -0.18991(11) 0.92158(10) 0.8426(3)
O4H O -0.32252(13) 1.26393(13) 0.5926
C21H C -0.2302(4) 1.0434(4) 0.4075(13)
H10H H -0.2174 1.0325 0.3338
C22H C -0.2382(5) 1.0831(4) 0.4017(15)
H11H H -0.2320 1.0932 0.3183
Zn1E Zn 0.177299(11) 1.177299(11) -0.14659(5)
Zn2E Zn 0.098505(18) 1.16350(2) 0.0000
Zn1G Zn -0.177299(11) 0.822701(11) -0.14659(5)
Zn2G Zn -0.098505(18) 0.83650(2) 0.0000
C1M C -0.09886(11) 0.80710(14) 0.2613(4)
C2M C -0.07740(12) 0.79819(14) 0.3823(4)
C3G C -0.09609(15) 0.80364(18) 0.5000
H1G H -0.1218 0.8105 0.5000
C4M C -0.04006(13) 0.78525(14) 0.3839(4)
H2M H -0.0277 0.7811 0.3051
C5G C -0.02013(19) 0.7789(2) 0.5000
C6G C 0.0177(2) 0.7633(3) 0.5000
C7M C 0.0309(4) 0.7369(4) 0.5921(13)
H3M H 0.0133 0.7286 0.6581
C8M C 0.0702(4) 0.7280(5) 0.5965(15)
H4M H 0.0787 0.7118 0.6662
C9G C 0.0934(3) 0.7352(4) 0.5000
C10G C 0.1329(2) 0.72082(16) 0.5000
C11M C 0.1530(2) 0.70867(16) 0.3960
H5M H 0.1396 0.7075 0.3181
C12M C 0.1910(2) 0.69767(16) 0.3890
H6M H 0.2021 0.6917 0.3091
C13G C 0.2120(2) 0.69567(16) 0.5000
C14G C 0.2500(2) 0.68467(16) 0.5000
O1M O -0.13328(10) 0.80983(12) 0.2675(3)
O2M O -0.07842(10) 0.81009(11) 0.1574(3)
O4M O 0.26393(13) 0.67748(13) 0.4074
C21M C 0.0434(4) 0.7698(4) 0.5925(13)
H10M H 0.0325 0.7826 0.6662
C22M C 0.0831(4) 0.7618(5) 0.5983(15)
H11M H 0.0932 0.7680 0.6817
C1G C -0.09886(11) 0.80710(14) 0.7387(4)
C2G C -0.07740(12) 0.79819(14) 0.6177(4)
C4G C -0.04006(13) 0.78525(14) 0.6161(4)
H2G H -0.0277 0.7811 0.6949
C7G C 0.0309(4) 0.7369(4) 0.4079(13)
H3G H 0.0133 0.7286 0.3419
C8G C 0.0702(4) 0.7280(5) 0.4035(15)
H4G H 0.0787 0.7118 0.3338
C11G C 0.1530(2) 0.70867(16) 0.6040
H5G H 0.1396 0.7075 0.6819
C12G C 0.1910(2) 0.69767(16) 0.6110
H6G H 0.2021 0.6917 0.6909
O1G O -0.13328(10) 0.80983(12) 0.7325(3)
O2G O -0.07842(10) 0.81009(11) 0.8426(3)
O4G O 0.26393(13) 0.67748(13) 0.5926
C21G C 0.0434(4) 0.7698(4) 0.4075(13)
H10G H 0.0325 0.7826 0.3338
C22G C 0.0831(4) 0.7618(5) 0.4017(15)
H11G H 0.0932 0.7680 0.3183
C1O C 0.09886(11) 1.19290(14) 0.2613(4)
C2O C 0.07740(12) 1.20181(14) 0.3823(4)
C3E C 0.09609(15) 1.19636(18) 0.5000
H1E H 0.1218 1.1895 0.5000
C4O C 0.04006(13) 1.21475(14) 0.3839(4)
H2O H 0.0277 1.2189 0.3051
C5E C 0.02013(19) 1.2211(2) 0.5000
C6E C -0.0177(2) 1.2367(3) 0.5000
C7O C -0.0309(4) 1.2631(4) 0.5921(13)
H3O H -0.0133 1.2714 0.6581
C8O C -0.0702(4) 1.2720(5) 0.5965(15)
H4O H -0.0787 1.2882 0.6662
C9E C -0.0934(3) 1.2648(4) 0.5000
C10E C -0.1329(2) 1.27918(16) 0.5000
C11O C -0.1530(2) 1.29133(16) 0.3960
H5O H -0.1396 1.2925 0.3181
C12O C -0.1910(2) 1.30233(16) 0.3890
H6O H -0.2021 1.3083 0.3091
C13E C -0.2120(2) 1.30433(16) 0.5000
C14E C -0.2500(2) 1.31533(16) 0.5000
O1O O 0.13328(10) 1.19017(12) 0.2675(3)
O2O O 0.07842(10) 1.18991(11) 0.1574(3)
O4O O -0.26393(13) 1.32252(13) 0.4074
C21O C -0.0434(4) 1.2302(4) 0.5925(13)
H10O H -0.0325 1.2174 0.6662
C22O C -0.0831(4) 1.2382(5) 0.5983(15)
H11O H -0.0932 1.2320 0.6817
C1E C 0.09886(11) 1.19290(14) 0.7387(4)
C2E C 0.07740(12) 1.20181(14) 0.6177(4)
C4E C 0.04006(13) 1.21475(14) 0.6161(4)
H2E H 0.0277 1.2189 0.6949
C7E C -0.0309(4) 1.2631(4) 0.4079(13)
H3E H -0.0133 1.2714 0.3419
C8E C -0.0702(4) 1.2720(5) 0.4035(15)
H4E H -0.0787 1.2882 0.3338
C11E C -0.1530(2) 1.29133(16) 0.6040
H5E H -0.1396 1.2925 0.6819
C12E C -0.1910(2) 1.30233(16) 0.6110
H6E H -0.2021 1.3083 0.6909
O1E O 0.13328(10) 1.19017(12) 0.7325(3)
O2E O 0.07842(10) 1.18991(11) 0.8426(3)
O4E O -0.26393(13) 1.32252(13) 0.5926
C21E C -0.0434(4) 1.2302(4) 0.4075(13)
H10E H -0.0325 1.2174 0.3338
C22E C -0.0831(4) 1.2382(5) 0.4017(15)
H11E H -0.0932 1.2320 0.3183
O1E_2 O 0.13328(10) 1.19017(12) -0.2675(3)
O1G_2 O -0.13328(10) 0.80983(12) -0.2675(3)
O1H_2 O -0.19017(12) 0.86672(10) -0.2675(3)
O1J_2 O 0.19017(12) 1.13328(10) -0.2675(3)
O2E_2 O 0.07842(10) 1.18991(11) -0.1574(3)
O2G_2 O -0.07842(10) 0.81009(11) -0.1574(3)
O2H_2 O -0.18991(11) 0.92158(10) -0.1574(3)
O2J_2 O 0.18991(11) 1.07842(10) -0.1574(3)
O4A O -0.23607(13) 0.82252(13) -0.0926
O4C O 0.23607(13) 1.17748(13) -0.0926
O4D O -0.17748(13) 0.76393(13) 0.0926
O4F O 0.17748(13) 1.23607(13) 0.0926
O4I O 0.23607(13) 1.17748(13) 0.0926
O4K O -0.23607(13) 0.82252(13) 0.0926
O4L O 0.17748(13) 1.23607(13) -0.0926
O4N O -0.17748(13) 0.76393(13) -0.0926
Zn1A Zn 0.322701(11) 0.677299(11) 0.64659(5)
Zn1C Zn -0.322701(11) 1.322701(11) 0.64659(5)
Zn1D Zn -0.322701(11) 1.322701(11) 0.35341(5)
Zn1E_2 Zn 0.177299(11) 1.177299(11) 0.85341(5)
Zn1F Zn 0.322701(11) 0.677299(11) 0.35341(5)
Zn1G_2 Zn -0.177299(11) 0.822701(11) 0.85341(5)
Zn2_2 Zn 0.16350(2) 1.098505(18) 1.0000
Zn2B_2 Zn -0.16350(2) 0.901495(18) 1.0000
Zn2E_2 Zn 0.098505(18) 1.16350(2) 1.0000
Zn2G_2 Zn -0.098505(18) 0.83650(2) 1.0000
C23 C 0.2240(5) 0.8230(5) 0.5000
N1 N 0.2081(5) 0.7918(4) 0.4986(15)
C23G C 0.1770(5) 0.7760(5) 0.5000
N1G N 0.2082(4) 0.7919(5) 0.5014(15)
loop_
_geom_bond_atom_site_label_1
_geom_bond_atom_site_label_2
_geom_bond_site_symmetry_1
_geom_bond_site_symmetry_2
C1 C2 1_555 1_555
C2 C3 1_555 1_555
C3 H1 1_555 1_555
C4 C2 1_555 1_555
H2 C4 1_555 1_555
C5 C4 1_555 1_555
C6 C5 1_555 1_555
C7 C6 1_555 1_555
H3 C7 1_555 1_555
C8 C7 1_555 1_555
H4 C8 1_555 1_555
C9 C8 1_555 1_555
C10 C9 1_555 1_555
C11 C10 1_555 1_555
H5 C11 1_555 1_555
C12 C11 1_555 1_555
H6 C12 1_555 1_555
C13 C12 1_555 1_555
C14 C13 1_555 1_555
C15 C16 1_555 1_555
C16 C17 1_555 1_555
C17 H7 1_555 1_555
C18 C16 1_555 1_555
H8 C18 1_555 1_555
C19 C18 1_555 1_555
C20 H9 1_555 1_555
O1 C1 1_555 1_555
O2 C1 1_555 1_555
O3 C15 1_555 1_555
O4 C14 1_555 1_555
O5 Zn1 1_555 1_555
Zn1 O1 1_555 1_555
Zn2 O2 1_555 1_555
C21 C6 1_555 1_555
H10 C21 1_555 1_555
C22 C9 1_555 1_555
H11 C22 1_555 1_555
C23 N1 1_555 1_555
N1 C23G 1_555 1_555
C1J C2J 1_555 1_555
C2J C3 1_555 1_555
C4J C5 1_555 1_555
H2J C4J 1_555 1_555
C7J C6 1_555 1_555
H3J C7J 1_555 1_555
C8J C9 1_555 1_555
H4J C8J 1_555 1_555
C11J C10 1_555 1_555
H5J C11J 1_555 1_555
C12J C13 1_555 1_555
H6J C12J 1_555 1_555
O1J C1J 1_555 1_555
O2J C1J 1_555 1_555
O4J C14 1_555 1_555
C21J C6 1_555 1_555
H10J C21J 1_555 1_555
C22J C9 1_555 1_555
H11J C22J 1_555 1_555
C15B C16B 1_555 1_555
C16B C17B 1_555 1_555
C17B H7B 1_555 1_555
C18B C16B 1_555 1_555
H8B C18B 1_555 1_555
C19B C19 1_555 1_555
C20B H9B 1_555 1_555
O3B C15B 1_555 1_555
C16E C15 1_555 1_555
C17E C20 1_555 1_555
H7E C17E 1_555 1_555
C18E C16E 1_555 1_555
H8E C18E 1_555 1_555
C19E C20B 1_555 1_555
C20E C17 1_555 1_555
H9E C20E 1_555 1_555
O3E C15 1_555 1_555
C16G C15B 1_555 1_555
C17G C20B 1_555 1_555
H7G C17G 1_555 1_555
C18G C16G 1_555 1_555
H8G C18G 1_555 1_555
C19G C20 1_555 1_555
C20G C19 1_555 1_555
H9G C20G 1_555 1_555
O3G C15B 1_555 1_555
C1B C2B 1_555 1_555
C2B C3B 1_555 1_555
C3B H1B 1_555 1_555
C4B C2B 1_555 1_555
H2B C4B 1_555 1_555
C5B C4B 1_555 1_555
C6B C5B 1_555 1_555
C7B C6B 1_555 1_555
H3B C7B 1_555 1_555
C8B C7B 1_555 1_555
H4B C8B 1_555 1_555
C9B C8B 1_555 1_555
C10B C9B 1_555 1_555
C11B C10B 1_555 1_555
H5B C11B 1_555 1_555
C12B C11B 1_555 1_555
H6B C12B 1_555 1_555
C13B C12B 1_555 1_555
C14B C13B 1_555 1_555
O1B C1B 1_555 1_555
O2B C1B 1_555 1_555
O4B C14B 1_555 1_555
O5B Zn1B 1_555 1_555
Zn1B O1B 1_555 1_555
Zn2B O3B 1_555 1_555
C21B C6B 1_555 1_555
H10B C21B 1_555 1_555
C22B C9B 1_555 1_555
H11B C22B 1_555 1_555
C1H C2H 1_555 1_555
C2H C3B 1_555 1_555
C4H C5B 1_555 1_555
H2H C4H 1_555 1_555
C7H C6B 1_555 1_555
H3H C7H 1_555 1_555
C8H C9B 1_555 1_555
H4H C8H 1_555 1_555
C11H C10B 1_555 1_555
H5H C11H 1_555 1_555
C12H C13B 1_555 1_555
H6H C12H 1_555 1_555
O1H C1H 1_555 1_555
O2H C1H 1_555 1_555
O4H C14B 1_555 1_555
C21H C6B 1_555 1_555
H10H C21H 1_555 1_555
C22H C9B 1_555 1_555
H11H C22H 1_555 1_555
Zn1E O5 1_555 1_555
Zn2E O5 1_555 1_555
Zn1G O5B 1_555 1_555
Zn2G O3G 1_555 1_555
C1M C2M 1_555 1_555
C2M C3G 1_555 1_555
C3G H1G 1_555 1_555
C4M C2M 1_555 1_555
H2M C4M 1_555 1_555
C5G C4M 1_555 1_555
C6G C5G 1_555 1_555
C7M C6G 1_555 1_555
H3M C7M 1_555 1_555
C8M C7M 1_555 1_555
H4M C8M 1_555 1_555
C9G C8M 1_555 1_555
C10G C9G 1_555 1_555
C11M C10G 1_555 1_555
H5M C11M 1_555 1_555
C12M C11M 1_555 1_555
H6M C12M 1_555 1_555
C13G C12M 1_555 1_555
C14G C13G 1_555 1_555
O1M Zn1B 1_555 1_555
O2M Zn2G 1_555 1_555
O4M C14G 1_555 1_555
C21M C6G 1_555 1_555
H10M C21M 1_555 1_555
C22M C9G 1_555 1_555
H11M C22M 1_555 1_555
C1G C2G 1_555 1_555
C2G C3G 1_555 1_555
C4G C5G 1_555 1_555
H2G C4G 1_555 1_555
C7G C6G 1_555 1_555
H3G C7G 1_555 1_555
C8G C9G 1_555 1_555
H4G C8G 1_555 1_555
C11G C10G 1_555 1_555
H5G C11G 1_555 1_555
C12G C13G 1_555 1_555
H6G C12G 1_555 1_555
O1G C1G 1_555 1_555
O2G C1G 1_555 1_555
O4G C14G 1_555 1_555
C21G C6G 1_555 1_555
H10G C21G 1_555 1_555
C22G C9G 1_555 1_555
H11G C22G 1_555 1_555
C1O C2O 1_555 1_555
C2O C3E 1_555 1_555
C3E H1E 1_555 1_555
C4O C2O 1_555 1_555
H2O C4O 1_555 1_555
C5E C4O 1_555 1_555
C6E C5E 1_555 1_555
C7O C6E 1_555 1_555
H3O C7O 1_555 1_555
C8O C7O 1_555 1_555
H4O C8O 1_555 1_555
C9E C8O 1_555 1_555
C10E C9E 1_555 1_555
C11O C10E 1_555 1_555
H5O C11O 1_555 1_555
C12O C11O 1_555 1_555
H6O C12O 1_555 1_555
C13E C12O 1_555 1_555
C14E C13E 1_555 1_555
O1O Zn1 1_555 1_555
O2O Zn2E 1_555 1_555
O4O C14E 1_555 1_555
C21O C6E 1_555 1_555
H10O C21O 1_555 1_555
C22O C9E 1_555 1_555
H11O C22O 1_555 1_555
C1E C2E 1_555 1_555
C2E C3E 1_555 1_555
C4E C5E 1_555 1_555
H2E C4E 1_555 1_555
C7E C6E 1_555 1_555
H3E C7E 1_555 1_555
C8E C9E 1_555 1_555
H4E C8E 1_555 1_555
C11E C10E 1_555 1_555
H5E C11E 1_555 1_555
C12E C13E 1_555 1_555
H6E C12E 1_555 1_555
O1E C1E 1_555 1_555
O2E C1E 1_555 1_555
O4E C14E 1_555 1_555
C21E C6E 1_555 1_555
H10E C21E 1_555 1_555
C22E C9E 1_555 1_555
H11E C22E 1_555 1_555
O1E_2 Zn1E 1_555 1_555
O1G_2 Zn1G 1_555 1_555
O1H_2 Zn1G 1_555 1_555
O1J_2 Zn1E 1_555 1_555
O2E_2 Zn2E 1_555 1_555
O2G_2 Zn2G 1_555 1_555
O2H_2 Zn2B 1_555 1_555
O2J_2 Zn2 1_555 1_555
O4A Zn1G 1_555 1_555
O4C Zn1E 1_555 1_555
O4D Zn1B 1_555 1_555
O4F Zn1 1_555 1_555
O4I Zn1 1_555 1_555
O4K Zn1B 1_555 1_555
O4L Zn1E 1_555 1_555
O4N Zn1G 1_555 1_555
Zn1A O4J 1_555 1_555
Zn1C O4H 1_555 1_555
Zn1D O4B 1_555 1_555
Zn1E_2 O1J 1_555 1_555
Zn1F O4 1_555 1_555
Zn1G_2 O1H 1_555 1_555
Zn2_2 O2J 1_555 1_555
Zn2B_2 O2H 1_555 1_555
Zn2E_2 O2E 1_555 1_555
Zn2G_2 O2G 1_555 1_555
C23G N1G 1_555 1_555
N1G C23 1_555 1_555
O3 Zn2 1_555 1_555
O5 Zn2 1_555 1_555
C21 C22 1_555 1_555
C2J C4J 1_555 1_555
C7J C8J 1_555 1_555
C11J C12J 1_555 1_555
C21J C22J 1_555 1_555
C17B C20G 1_555 1_555
C18B C19B 1_555 1_555
C19B C20E 1_555 1_555
C16E C17E 1_555 1_555
C18E C19E 1_555 1_555
C19E C19G 1_555 1_555
O3E Zn2E 1_555 1_555
C16G C17G 1_555 1_555
C18G C19G 1_555 1_555
O2B Zn2B 1_555 1_555
O5B Zn2B 1_555 1_555
O5B Zn2G 1_555 1_555
C21B C22B 1_555 1_555
C2H C4H 1_555 1_555
C7H C8H 1_555 1_555
C11H C12H 1_555 1_555
C21H C22H 1_555 1_555
C1M O1M 1_555 1_555
C1M O2M 1_555 1_555
O4M Zn1F 1_555 1_555
C21M C22M 1_555 1_555
C2G C4G 1_555 1_555
C7G C8G 1_555 1_555
C11G C12G 1_555 1_555
O1G Zn1G_2 1_555 1_555
O4G Zn1A 1_555 1_555
C21G C22G 1_555 1_555
C1O O1O 1_555 1_555
C1O O2O 1_555 1_555
O4O Zn1D 1_555 1_555
C21O C22O 1_555 1_555
C2E C4E 1_555 1_555
C7E C8E 1_555 1_555
C11E C12E 1_555 1_555
O1E Zn1E_2 1_555 1_555
O4E Zn1C 1_555 1_555
C21E C22E 1_555 1_555

#END
