
#######################################################################
#
#                 Cambridge Crystallographic Data Centre
#                                CCDC 
#
#######################################################################
#
# If this CIF has been generated from an entry in the Cambridge 
# Structural Database, then it will include bibliographic, chemical, 
# crystal, experimental, refinement or atomic coordinate data resulting 
# from the CCDC's data processing and validation procedures.
#
#######################################################################

data_PUFSEQ
_chemical_formula_moiety         '(C100 H60 N1 O30 Zn8 1-)n'
_symmetry_cell_setting           monoclinic
_symmetry_space_group_name_H-M   'P 21/n'
_symmetry_Int_Tables_number      14
_space_group_name_Hall           '-P 2yn'
loop_
_symmetry_equiv_pos_site_id
_symmetry_equiv_pos_as_xyz
1 x,y,z
2 1/2-x,1/2+y,1/2-z
3 -x,-y,-z
4 1/2+x,1/2-y,1/2+z
_cell_length_a                   10.292(2)
_cell_length_b                   36.424(7)
_cell_length_c                   34.381(7)
_cell_angle_alpha                90
_cell_angle_beta                 90.86(3)
_cell_angle_gamma                90
_cell_volume                     12887.2
loop_
_atom_site_label
_atom_site_type_symbol
_atom_site_fract_x
_atom_site_fract_y
_atom_site_fract_z
C1 C 0.2843(5) 0.59311(17) 0.26541(18)
C2 C 0.1601(5) 0.57126(17) 0.26200(18)
C3 C 0.0400(5) 0.59004(17) 0.26410(17)
H1 H 0.0388 0.6161 0.2657
C4 C -0.0748(5) 0.57082(17) 0.26387(18)
C5 C -0.0710(6) 0.53286(17) 0.25866(19)
H2 H -0.1502 0.5194 0.2582
C6 C 0.0447(6) 0.51422(19) 0.2542(2)
C7 C 0.1585(6) 0.53335(18) 0.25783(19)
H3 H 0.2385 0.5204 0.2575
C8 C -0.1976(5) 0.59069(16) 0.27087(18)
C9 C 0.0435(7) 0.4747(2) 0.2496(2)
C10 C -0.0534(10) 0.4555(3) 0.2269(3)
H4 H -0.1201 0.4695 0.2139
C11 C -0.0543(11) 0.4195(3) 0.2232(4)
H5 H -0.1235 0.4084 0.2083
C12 C 0.0385(8) 0.3968(2) 0.2394(3)
C13 C 0.1424(12) 0.4121(4) 0.2539(4)
H6 H 0.2149 0.3981 0.2629
C14 C 0.1400(12) 0.4520(4) 0.2554(4)
H7 H 0.2210 0.4633 0.2615
C15 C 0.0355(8) 0.3549(2) 0.2351(3)
C16 C -0.0829(8) 0.3371(2) 0.2281(3)
H8 H -0.1618 0.3506 0.2283
C17 C -0.0845(8) 0.3003(2) 0.2212(3)
H9 H -0.1648 0.2888 0.2147
C18 C 0.0288(7) 0.2788(2) 0.2232(2)
C19 C 0.1447(8) 0.2967(2) 0.2308(3)
H10 H 0.2228 0.2829 0.2328
C20 C 0.1492(8) 0.3344(2) 0.2356(3)
H11 H 0.2305 0.3463 0.2394
C21 C 0.0189(8) 0.2375(2) 0.2185(2)
C22 C 0.5404(7) 0.5850(2) 0.3842(2)
C23 C 0.5295(8) 0.5596(3) 0.4191(3)
C24 C 0.5181(8) 0.5227(3) 0.4147(3)
H12 H 0.5156 0.5125 0.3893
C25 C 0.5098(9) 0.4990(3) 0.4477(3)
H13 H 0.5059 0.4731 0.4442
C26 C 0.5077(9) 0.5129(3) 0.4825(3)
C27 C 0.5124(9) 0.5500(3) 0.4891(3)
H14 H 0.5092 0.5596 0.5148
C28 C 0.5222(9) 0.5736(3) 0.4562(3)
H15 H 0.5238 0.5994 0.4599
C29 C 0.8100(5) 0.69102(16) 0.35594(18)
C30 C 0.9380(5) 0.69926(17) 0.37709(19)
C31 C 1.0507(5) 0.69164(16) 0.35908(18)
H16 H 1.0500 0.6833 0.3329
C32 C 1.1697(5) 0.69615(17) 0.37963(19)
C33 C 1.1689(6) 0.71185(18) 0.41639(19)
H17 H 1.2489 0.7163 0.4297
C34 C 1.0560(6) 0.72097(19) 0.4336(2)
C35 C 0.9394(6) 0.71398(17) 0.41444(18)
H18 H 0.8598 0.7193 0.4269
C36 C 1.2908(6) 0.68396(18) 0.35976(19)
C37 C 1.0593(7) 0.7369(2) 0.4737(2)
C38 C 1.1518(10) 0.7269(3) 0.5009(3)
H19 H 1.2206 0.7112 0.4923
C39 C 1.1558(10) 0.7384(3) 0.5379(3)
H20 H 1.2175 0.7280 0.5560
C40 C 1.0649(7) 0.7650(2) 0.5500(2)
C41 C 0.9656(12) 0.7735(4) 0.5245(4)
H21 H 0.8895 0.7857 0.5338
C42 C 0.9628(12) 0.7561(4) 0.4877(4)
H22 H 0.8791 0.7535 0.4753
C43 C 1.0673(7) 0.7808(2) 0.5896(2)
C44 C 1.1874(7) 0.7816(2) 0.6096(2)
H23 H 1.2648 0.7739 0.5973
C45 C 1.1895(8) 0.7942(2) 0.6484(3)
H24 H 1.2686 0.7933 0.6630
C46 C 1.0801(7) 0.8076(2) 0.6654(2)
C47 C 0.9604(8) 0.8073(2) 0.6447(3)
H25 H 0.8825 0.8150 0.6567
C48 C 0.9594(8) 0.7956(2) 0.6067(3)
H26 H 0.8814 0.7979 0.5917
C49 C 1.0826(7) 0.8200(2) 0.7070(2)
O1 O 0.5457(3) 0.64563(10) 0.30575(11)
O2 O 0.3843(4) 0.57545(11) 0.27445(12)
O3 O 0.2759(3) 0.62711(11) 0.25998(11)
O4 O -0.1953(4) 0.62598(11) 0.26884(13)
O5 O -0.3006(4) 0.57257(11) 0.27609(12)
O6 O -0.0866(5) 0.22514(15) 0.20790(16)
O7 O 0.1216(5) 0.22017(15) 0.22685(17)
O8 O 0.5387(4) 0.57032(13) 0.35221(14)
O9 O 0.5468(4) 0.61756(14) 0.39230(14)
O10 O 0.7097(4) 0.68748(11) 0.37500(12)
O11 O 0.8196(4) 0.68770(11) 0.31929(12)
O12 O 1.2808(4) 0.66830(13) 0.32807(14)
O13 O 1.3986(4) 0.68889(11) 0.37830(12)
O14 O 1.1856(5) 0.81462(14) 0.72613(15)
O15 O 0.9851(5) 0.83394(14) 0.72083(15)
Zn1 Zn 0.39647(6) 0.666801(17) 0.277212(19)
Zn2 Zn 0.54609(6) 0.593692(18) 0.30014(2)
Zn3 Zn 0.68961(6) 0.671394(17) 0.280309(19)
Zn4 Zn 0.54835(6) 0.662903(19) 0.35828(2)
C22B C 0.4596(7) 0.4150(2) 0.6158(2)
C23B C 0.4705(8) 0.4404(3) 0.5809(3)
C24B C 0.4819(8) 0.4773(3) 0.5853(3)
H12B H 0.4844 0.4875 0.6107
C25B C 0.4902(9) 0.5010(3) 0.5523(3)
H13B H 0.4941 0.5269 0.5558
C26B C 0.4923(9) 0.4871(3) 0.5175(3)
C27B C 0.4876(9) 0.4500(3) 0.5109(3)
H14B H 0.4908 0.4404 0.4852
C28B C 0.4778(9) 0.4264(3) 0.5438(3)
H15B H 0.4762 0.4006 0.5401
O8B O 0.4613(4) 0.42968(13) 0.64779(14)
O9B O 0.4532(4) 0.38244(14) 0.60770(14)
C1B C 0.7157(5) 0.40689(17) 0.73459(18)
C2B C 0.8399(5) 0.42874(17) 0.73800(18)
C3B C 0.9600(5) 0.40996(17) 0.73590(17)
H1B H 0.9612 0.3839 0.7343
C4B C 1.0748(5) 0.42918(17) 0.73613(18)
C5B C 1.0710(6) 0.46714(17) 0.74134(19)
H2B H 1.1502 0.4806 0.7418
C6B C 0.9553(6) 0.48578(19) 0.7458(2)
C7B C 0.8415(6) 0.46665(18) 0.74217(19)
H3B H 0.7615 0.4796 0.7425
C8B C 1.1976(5) 0.40931(16) 0.72913(18)
C9B C 0.9565(7) 0.5253(2) 0.7504(2)
C10B C 1.0534(10) 0.5445(3) 0.7731(3)
H4B H 1.1201 0.5305 0.7861
C11B C 1.0543(11) 0.5805(3) 0.7768(4)
H5B H 1.1235 0.5916 0.7917
C12B C 0.9615(8) 0.6032(2) 0.7606(3)
C13B C 0.8576(12) 0.5879(4) 0.7461(4)
H6B H 0.7851 0.6019 0.7371
C14B C 0.8600(12) 0.5480(4) 0.7446(4)
H7B H 0.7790 0.5367 0.7385
C15B C 0.9645(8) 0.6451(2) 0.7649(3)
C16B C 1.0829(8) 0.6629(2) 0.7719(3)
H8B H 1.1618 0.6494 0.7717
C17B C 1.0845(8) 0.6997(2) 0.7788(3)
H9B H 1.1648 0.7112 0.7853
C18B C 0.9712(7) 0.7212(2) 0.7768(2)
C19B C 0.8553(8) 0.7033(2) 0.7692(3)
H10B H 0.7772 0.7171 0.7672
C20B C 0.8508(8) 0.6656(2) 0.7644(3)
H11B H 0.7695 0.6537 0.7606
C21B C 0.9811(8) 0.7625(2) 0.7815(2)
C29B C 0.1900(5) 0.30898(16) 0.64406(18)
C30B C 0.0620(5) 0.30074(17) 0.62291(19)
C31B C -0.0507(5) 0.30836(16) 0.64092(18)
H16B H -0.0500 0.3167 0.6671
C32B C -0.1697(5) 0.30385(17) 0.62037(19)
C33B C -0.1689(6) 0.28815(18) 0.58361(19)
H17B H -0.2489 0.2837 0.5703
C34B C -0.0560(6) 0.27903(19) 0.5664(2)
C35B C 0.0606(6) 0.28602(17) 0.58556(18)
H18B H 0.1402 0.2807 0.5731
C36B C -0.2908(6) 0.31604(18) 0.64024(19)
C37B C -0.0593(7) 0.2631(2) 0.5263(2)
C38B C -0.1518(10) 0.2731(3) 0.4991(3)
H19B H -0.2206 0.2888 0.5077
C39B C -0.1558(10) 0.2616(3) 0.4621(3)
H20B H -0.2175 0.2720 0.4440
C40B C -0.0649(7) 0.2350(2) 0.4500(2)
C41B C 0.0344(12) 0.2265(4) 0.4755(4)
H21B H 0.1105 0.2143 0.4662
C42B C 0.0372(12) 0.2439(4) 0.5123(4)
H22B H 0.1209 0.2465 0.5247
C43B C -0.0673(7) 0.2192(2) 0.4104(2)
C44B C -0.1874(7) 0.2184(2) 0.3904(2)
H23B H -0.2648 0.2261 0.4027
C45B C -0.1895(8) 0.2058(2) 0.3516(3)
H24B H -0.2686 0.2067 0.3370
C46B C -0.0801(7) 0.1924(2) 0.3346(2)
C47B C 0.0396(8) 0.1927(2) 0.3553(3)
H25B H 0.1175 0.1850 0.3433
C48B C 0.0406(8) 0.2044(2) 0.3933(3)
H26B H 0.1186 0.2021 0.4083
C49B C -0.0826(7) 0.1800(2) 0.2930(2)
O1B O 0.4543(3) 0.35437(10) 0.69425(11)
O2B O 0.6157(4) 0.42455(11) 0.72555(12)
O3B O 0.7241(3) 0.37289(11) 0.74002(11)
O4B O 1.1953(4) 0.37402(11) 0.73116(13)
O5B O 1.3006(4) 0.42743(11) 0.72391(12)
O6B O 1.0866(5) 0.77486(15) 0.79210(16)
O7B O 0.8784(5) 0.77983(15) 0.77315(17)
O10B O 0.2903(4) 0.31252(11) 0.62500(12)
O11B O 0.1804(4) 0.31230(11) 0.68071(12)
O12B O -0.2808(4) 0.33170(13) 0.67193(14)
O13B O -0.3986(4) 0.31111(11) 0.62170(12)
O14B O -0.1856(5) 0.18538(14) 0.27387(15)
O15B O 0.0149(5) 0.16606(14) 0.27917(15)
Zn1B Zn 0.60353(6) 0.333199(17) 0.722788(19)
Zn2B Zn 0.45391(6) 0.406308(18) 0.69986(2)
Zn3B Zn 0.31039(6) 0.328606(17) 0.719691(19)
Zn4B Zn 0.45165(6) 0.337097(19) 0.64172(2)
O4_2 O 0.8047(4) 0.62598(11) 0.26884(13)
O4B_2 O 0.1953(4) 0.37402(11) 0.73116(13)
O5_2 O 0.6994(4) 0.57257(11) 0.27609(12)
O5B_2 O 0.3006(4) 0.42743(11) 0.72391(12)
O6A O 0.5866(5) 0.72514(15) 0.29210(16)
O6C O 0.4134(5) 0.27486(15) 0.70790(16)
O7A O 0.3784(5) 0.72017(15) 0.27315(17)
O7C O 0.6216(5) 0.27983(15) 0.72685(17)
O12_2 O 0.2808(4) 0.66830(13) 0.32807(14)
O12B_2 O 0.7192(4) 0.33170(13) 0.67193(14)
O13_2 O 0.3986(4) 0.68889(11) 0.37830(12)
O13B_2 O 0.6014(4) 0.31111(11) 0.62170(12)
O14A O 0.3144(5) 0.31462(14) 0.77387(15)
O14C O 0.6856(5) 0.68538(14) 0.22613(15)
O15A O 0.5149(5) 0.33394(14) 0.77917(15)
O15C O 0.4851(5) 0.66606(14) 0.22083(15)
Zn1_2 Zn 1.39647(6) 0.666801(17) 0.277212(19)
Zn1A Zn 0.10353(6) 0.166801(17) 0.222788(19)
Zn1B_2 Zn -0.39647(6) 0.333199(17) 0.722788(19)
Zn1C Zn 0.89647(6) 0.833199(17) 0.777212(19)
Zn2_2 Zn -0.45391(6) 0.593692(18) 0.30014(2)
Zn2B_2 Zn 1.45391(6) 0.406308(18) 0.69986(2)
Zn3_2 Zn -0.31039(6) 0.671394(17) 0.280309(19)
Zn3A Zn -0.18961(6) 0.171394(17) 0.219691(19)
Zn3B_2 Zn 1.31039(6) 0.328606(17) 0.719691(19)
Zn3C Zn 1.18961(6) 0.828606(17) 0.780309(19)
Zn4_2 Zn 1.54835(6) 0.662903(19) 0.35828(2)
Zn4B_2 Zn -0.54835(6) 0.337097(19) 0.64172(2)
C58 C 0.1765(16) 0.5739(4) 0.3782(4)
H35 H 0.1675 0.5992 0.3854
H36 H 0.2297 0.5614 0.3972
H37 H 0.2166 0.5723 0.3532
C59 C -0.0656(16) 0.5879(4) 0.3720(4)
H38 H -0.1443 0.5780 0.3609
H39 H -0.0743 0.5900 0.3997
H40 H -0.0496 0.6117 0.3612
N1 N 0.0456(16) 0.5629(4) 0.3631(4)
H41 H 0.0272 0.5405 0.3728
H42 H 0.0501 0.5606 0.3371
loop_
_geom_bond_atom_site_label_1
_geom_bond_atom_site_label_2
_geom_bond_site_symmetry_1
_geom_bond_site_symmetry_2
C1 C2 1_555 1_555
C2 C3 1_555 1_555
C3 H1 1_555 1_555
C4 C3 1_555 1_555
C5 C4 1_555 1_555
H2 C5 1_555 1_555
C6 C5 1_555 1_555
C7 C2 1_555 1_555
H3 C7 1_555 1_555
C8 C4 1_555 1_555
C9 C6 1_555 1_555
C10 C9 1_555 1_555
H4 C10 1_555 1_555
C11 C10 1_555 1_555
H5 C11 1_555 1_555
C12 C11 1_555 1_555
C13 C12 1_555 1_555
H6 C13 1_555 1_555
C14 C9 1_555 1_555
H7 C14 1_555 1_555
C15 C12 1_555 1_555
C16 C15 1_555 1_555
H8 C16 1_555 1_555
C17 C16 1_555 1_555
H9 C17 1_555 1_555
C18 C17 1_555 1_555
C19 C18 1_555 1_555
H10 C19 1_555 1_555
C20 C15 1_555 1_555
H11 C20 1_555 1_555
C21 C18 1_555 1_555
C22 C23 1_555 1_555
C23 C24 1_555 1_555
C24 H12 1_555 1_555
C25 C24 1_555 1_555
H13 C25 1_555 1_555
C26 C25 1_555 1_555
C27 C26 1_555 1_555
H14 C27 1_555 1_555
C28 C23 1_555 1_555
H15 C28 1_555 1_555
C29 C30 1_555 1_555
C30 C31 1_555 1_555
C31 H16 1_555 1_555
C32 C31 1_555 1_555
C33 C32 1_555 1_555
H17 C33 1_555 1_555
C34 C33 1_555 1_555
C35 C30 1_555 1_555
H18 C35 1_555 1_555
C36 C32 1_555 1_555
C37 C34 1_555 1_555
C38 C37 1_555 1_555
H19 C38 1_555 1_555
C39 C38 1_555 1_555
H20 C39 1_555 1_555
C40 C39 1_555 1_555
C41 C40 1_555 1_555
H21 C41 1_555 1_555
C42 C37 1_555 1_555
H22 C42 1_555 1_555
C43 C40 1_555 1_555
C44 C43 1_555 1_555
H23 C44 1_555 1_555
C45 C44 1_555 1_555
H24 C45 1_555 1_555
C46 C45 1_555 1_555
C47 C46 1_555 1_555
H25 C47 1_555 1_555
C48 C43 1_555 1_555
H26 C48 1_555 1_555
C49 C46 1_555 1_555
O1 Zn1 1_555 1_555
O2 C1 1_555 1_555
O3 C1 1_555 1_555
O4 C8 1_555 1_555
O5 C8 1_555 1_555
O6 C21 1_555 1_555
O7 C21 1_555 1_555
O8 C22 1_555 1_555
O9 C22 1_555 1_555
O10 C29 1_555 1_555
O11 C29 1_555 1_555
O12 C36 1_555 1_555
O13 C36 1_555 1_555
O14 C49 1_555 1_555
O15 C49 1_555 1_555
Zn1 O3 1_555 1_555
Zn2 O1 1_555 1_555
Zn3 O1 1_555 1_555
Zn4 O1 1_555 1_555
C58 H35 1_555 1_555
H36 C58 1_555 1_555
H37 C58 1_555 1_555
C59 H38 1_555 1_555
H39 C59 1_555 1_555
H40 C59 1_555 1_555
N1 C58 1_555 1_555
H41 N1 1_555 1_555
H42 N1 1_555 1_555
C22B C23B 1_555 1_555
C23B C24B 1_555 1_555
C24B H12B 1_555 1_555
C25B C24B 1_555 1_555
H13B C25B 1_555 1_555
C26B C26 1_555 1_555
C27B C26B 1_555 1_555
H14B C27B 1_555 1_555
C28B C23B 1_555 1_555
H15B C28B 1_555 1_555
O8B C22B 1_555 1_555
O9B C22B 1_555 1_555
C1B C2B 1_555 1_555
C2B C3B 1_555 1_555
C3B H1B 1_555 1_555
C4B C3B 1_555 1_555
C5B C4B 1_555 1_555
H2B C5B 1_555 1_555
C6B C5B 1_555 1_555
C7B C2B 1_555 1_555
H3B C7B 1_555 1_555
C8B C4B 1_555 1_555
C9B C6B 1_555 1_555
C10B C9B 1_555 1_555
H4B C10B 1_555 1_555
C11B C10B 1_555 1_555
H5B C11B 1_555 1_555
C12B C11B 1_555 1_555
C13B C12B 1_555 1_555
H6B C13B 1_555 1_555
C14B C9B 1_555 1_555
H7B C14B 1_555 1_555
C15B C12B 1_555 1_555
C16B C15B 1_555 1_555
H8B C16B 1_555 1_555
C17B C16B 1_555 1_555
H9B C17B 1_555 1_555
C18B C17B 1_555 1_555
C19B C18B 1_555 1_555
H10B C19B 1_555 1_555
C20B C15B 1_555 1_555
H11B C20B 1_555 1_555
C21B C18B 1_555 1_555
C29B C30B 1_555 1_555
C30B C31B 1_555 1_555
C31B H16B 1_555 1_555
C32B C31B 1_555 1_555
C33B C32B 1_555 1_555
H17B C33B 1_555 1_555
C34B C33B 1_555 1_555
C35B C30B 1_555 1_555
H18B C35B 1_555 1_555
C36B C32B 1_555 1_555
C37B C34B 1_555 1_555
C38B C37B 1_555 1_555
H19B C38B 1_555 1_555
C39B C38B 1_555 1_555
H20B C39B 1_555 1_555
C40B C39B 1_555 1_555
C41B C40B 1_555 1_555
H21B C41B 1_555 1_555
C42B C37B 1_555 1_555
H22B C42B 1_555 1_555
C43B C40B 1_555 1_555
C44B C43B 1_555 1_555
H23B C44B 1_555 1_555
C45B C44B 1_555 1_555
H24B C45B 1_555 1_555
C46B C45B 1_555 1_555
C47B C46B 1_555 1_555
H25B C47B 1_555 1_555
C48B C43B 1_555 1_555
H26B C48B 1_555 1_555
C49B C46B 1_555 1_555
O1B Zn1B 1_555 1_555
O2B C1B 1_555 1_555
O3B C1B 1_555 1_555
O4B C8B 1_555 1_555
O5B C8B 1_555 1_555
O6B C21B 1_555 1_555
O7B C21B 1_555 1_555
O10B C29B 1_555 1_555
O11B C29B 1_555 1_555
O12B C36B 1_555 1_555
O13B C36B 1_555 1_555
O14B C49B 1_555 1_555
O15B C49B 1_555 1_555
Zn1B O3B 1_555 1_555
Zn2B O8B 1_555 1_555
Zn3B O1B 1_555 1_555
Zn4B O9B 1_555 1_555
O4_2 Zn3 1_555 1_555
O4B_2 Zn3B 1_555 1_555
O5_2 Zn2 1_555 1_555
O5B_2 Zn2B 1_555 1_555
O6A Zn3 1_555 1_555
O6C Zn3B 1_555 1_555
O7A Zn1 1_555 1_555
O7C Zn1B 1_555 1_555
O12_2 Zn1 1_555 1_555
O12B_2 Zn1B 1_555 1_555
O13_2 Zn4 1_555 1_555
O13B_2 Zn4B 1_555 1_555
O14A Zn3B 1_555 1_555
O14C Zn3 1_555 1_555
O15A Zn1B 1_555 1_555
O15C Zn1 1_555 1_555
Zn1_2 O12 1_555 1_555
Zn1A O7 1_555 1_555
Zn1B_2 O12B 1_555 1_555
Zn1C O15 1_555 1_555
Zn2_2 O5 1_555 1_555
Zn2B_2 O5B 1_555 1_555
Zn3_2 O4 1_555 1_555
Zn3A O6 1_555 1_555
Zn3B_2 O4B 1_555 1_555
Zn3C O14 1_555 1_555
Zn4_2 O13 1_555 1_555
Zn4B_2 O13B 1_555 1_555
C6 C7 1_555 1_555
C13 C14 1_555 1_555
C19 C20 1_555 1_555
C27 C28 1_555 1_555
C34 C35 1_555 1_555
C41 C42 1_555 1_555
C47 C48 1_555 1_555
O2 Zn2 1_555 1_555
O8 Zn2 1_555 1_555
O9 Zn4 1_555 1_555
O10 Zn4 1_555 1_555
O11 Zn3 1_555 1_555
C59 N1 1_555 1_555
C25B C26B 1_555 1_555
C27B C28B 1_555 1_555
C6B C7B 1_555 1_555
C13B C14B 1_555 1_555
C19B C20B 1_555 1_555
C34B C35B 1_555 1_555
C41B C42B 1_555 1_555
C47B C48B 1_555 1_555
O1B Zn2B 1_555 1_555
O1B Zn4B 1_555 1_555
O2B Zn2B 1_555 1_555
O6B Zn3C 1_555 1_555
O7B Zn1C 1_555 1_555
O10B Zn4B 1_555 1_555
O11B Zn3B 1_555 1_555
O14B Zn3A 1_555 1_555
O15B Zn1A 1_555 1_555

#END
