
#######################################################################
#
#                 Cambridge Crystallographic Data Centre
#                                CCDC 
#
#######################################################################
#
# If this CIF has been generated from an entry in the Cambridge 
# Structural Database, then it will include bibliographic, chemical, 
# crystal, experimental, refinement or atomic coordinate data resulting 
# from the CCDC's data processing and validation procedures.
#
#######################################################################

data_PUGTAO
_chemical_formula_moiety         '(C76 H50 N1 O30 Zn8 2-)n'
_symmetry_cell_setting           orthorhombic
_symmetry_space_group_name_H-M   'P n n m'
_symmetry_Int_Tables_number      58
_space_group_name_Hall           '-P 2 2n'
loop_
_symmetry_equiv_pos_site_id
_symmetry_equiv_pos_as_xyz
1 x,y,z
2 -x,-y,z
3 1/2+x,1/2-y,1/2-z
4 1/2-x,1/2+y,1/2-z
5 -x,-y,-z
6 x,y,-z
7 1/2-x,1/2+y,1/2+z
8 1/2+x,1/2-y,1/2+z
_cell_length_a                   27.474(5)
_cell_length_b                   27.701(5)
_cell_length_c                   10.377(2)
_cell_angle_alpha                90
_cell_angle_beta                 90
_cell_angle_gamma                90
_cell_volume                     7897.49
loop_
_atom_site_label
_atom_site_type_symbol
_atom_site_fract_x
_atom_site_fract_y
_atom_site_fract_z
C28 C 0.3458(3) 0.0854(3) 0.0000
H13 H 0.3526 0.1133 -0.0534
H14 H 0.3629 0.0576 -0.0340
H15 H 0.3566 0.0916 0.0874
C29 C 0.2722(3) 0.1182(3) 0.0000
H16 H 0.2690 0.1300 0.0876
H17 H 0.2402 0.1116 -0.0353
H18 H 0.2884 0.1424 -0.0523
N1 N 0.2990(3) 0.0769(3) 0.0000
H19 H 0.2912 0.0591 0.0709
H13E H 0.3526 0.1133 0.0534
H14E H 0.3629 0.0576 0.0340
H15E H 0.3566 0.0916 -0.0874
H16E H 0.2690 0.1300 -0.0876
H17E H 0.2402 0.1116 0.0353
H18E H 0.2884 0.1424 0.0523
H19E H 0.2912 0.0591 -0.0709
C1 C 0.3423(2) 0.4021(2) 0.5000
C2 C 0.3892(2) 0.4343(2) 0.5000
C3 C 0.3878(2) 0.4841(2) 0.5000
H1 H 0.3577 0.5002 0.5000
C4 C 0.4309(2) 0.5105(2) 0.5000
H2 H 0.4298 0.5444 0.5000
C5 C 0.4752(2) 0.4871(2) 0.5000
C6 C 0.4765(2) 0.4372(2) 0.5000
H3 H 0.5066 0.4211 0.5000
C7 C 0.4335(2) 0.4108(2) 0.5000
H4 H 0.4346 0.3769 0.5000
C8 C 0.2006(2) 0.4093(2) 0.2423(6)
C9 C 0.1962(3) 0.4108(3) 0.0000
H5 H 0.1877 0.3779 0.0000
C10 C 0.2030(2) 0.4369(2) 0.1179(6)
C11 C 0.2154(2) 0.4859(2) 0.1184(7)
H6 H 0.2190 0.5026 0.1968
C12 C 0.2224(4) 0.5100(3) 0.0000
C13 C 0.2351(4) 0.5623(4) 0.0000
C14 C 0.2483(4) 0.5856(3) 0.1034(10)
H7 H 0.2475 0.5685 0.1816
C15 C 0.2629(4) 0.6315(3) 0.1083(10)
H8 H 0.2712 0.6449 0.1887
C16 C 0.2664(4) 0.6600(4) 0.0000
C17 C 0.2805(4) 0.7110(3) 0.0000
C18 C 0.3043(3) 0.2803(3) 0.2395(8)
C19 C 0.3056(3) 0.2765(4) 0.0000
H9 H 0.2734 0.2879 0.0000
C20 C 0.3286(2) 0.2683(3) 0.1192(7)
C21 C 0.3781(2) 0.2549(3) 0.1132(8)
H10 H 0.3954 0.2511 0.1906
C22 C 0.4016(3) 0.2472(4) 0.0000
C23 C 0.4558(4) 0.2338(4) 0.0000
C24 C 0.4804(3) 0.2329(3) 0.1247(9)
H11 H 0.4651 0.2398 0.2036
C25 C 0.5308(3) 0.2204(3) 0.1117(9)
H12 H 0.5489 0.2182 0.1882
C26 C 0.5551(4) 0.2115(4) 0.0000
C27 C 0.6071(3) 0.2017(3) 0.0000
O1 O 0.23536(16) 0.33224(19) 0.5000
O2 O 0.21384(19) 0.43195(16) 0.3441(4)
O3 O 0.18650(15) 0.36698(14) 0.2418(4)
O4 O 0.2903(3) 0.7304(2) -0.1057(7)
O5 O 0.3060(3) 0.4275(3) 0.5000
O6 O 0.3473(3) 0.3609(3) 0.5000
O7 O 0.3234(2) 0.2717(2) 0.3431(5)
O8 O 0.2610(2) 0.2985(2) 0.2266(7)
O9 O 0.6300(2) 0.19966(19) -0.1123(7)
Zn1 Zn 0.30053(3) 0.30589(3) 0.5000
Zn2 Zn 0.20094(2) 0.30395(2) 0.34810(7)
Zn3 Zn 0.23761(3) 0.40083(3) 0.5000
C1A C 0.6577(2) 0.5979(2) 0.5000
C2A C 0.6108(2) 0.5657(2) 0.5000
C3A C 0.6122(2) 0.5159(2) 0.5000
H1A H 0.6423 0.4998 0.5000
C4A C 0.5691(2) 0.4895(2) 0.5000
H2A H 0.5702 0.4556 0.5000
C5A C 0.5248(2) 0.5129(2) 0.5000
C6A C 0.5235(2) 0.5628(2) 0.5000
H3A H 0.4934 0.5789 0.5000
C7A C 0.5665(2) 0.5892(2) 0.5000
H4A H 0.5654 0.6231 0.5000
O5A O 0.6940(3) 0.5725(3) 0.5000
O6A O 0.6527(3) 0.6391(3) 0.5000
C8E C 0.2006(2) 0.4093(2) -0.2423(6)
C10E C 0.2030(2) 0.4369(2) -0.1179(6)
C11E C 0.2154(2) 0.4859(2) -0.1184(7)
H6E H 0.2190 0.5026 -0.1968
C14E C 0.2483(4) 0.5856(3) -0.1034(10)
H7E H 0.2475 0.5685 -0.1816
C15E C 0.2629(4) 0.6315(3) -0.1083(10)
H8E H 0.2712 0.6449 -0.1887
O2E O 0.21384(19) 0.43195(16) -0.3441(4)
O3E O 0.18650(15) 0.36698(14) -0.2418(4)
O4E O 0.2903(3) 0.7304(2) 0.1057(7)
C18E C 0.3043(3) 0.2803(3) -0.2395(8)
C20E C 0.3286(2) 0.2683(3) -0.1192(7)
C21E C 0.3781(2) 0.2549(3) -0.1132(8)
H10E H 0.3954 0.2511 -0.1906
C24E C 0.4804(3) 0.2329(3) -0.1247(9)
H11E H 0.4651 0.2398 -0.2036
C25E C 0.5308(3) 0.2204(3) -0.1117(9)
H12E H 0.5489 0.2182 -0.1882
O7E O 0.3234(2) 0.2717(2) -0.3431(5)
O8E O 0.2610(2) 0.2985(2) -0.2266(7)
O9E O 0.6300(2) 0.19966(19) 0.1123(7)
C8A C 0.7994(2) 0.5907(2) 0.2423(6)
C9A C 0.8038(3) 0.5892(3) 0.0000
H5A H 0.8123 0.6221 0.0000
C10A C 0.7970(2) 0.5631(2) 0.1179(6)
C11A C 0.7846(2) 0.5141(2) 0.1184(7)
H6A H 0.7810 0.4974 0.1968
C12A C 0.7776(4) 0.4900(3) 0.0000
C13A C 0.7649(4) 0.4377(4) 0.0000
C14A C 0.7517(4) 0.4144(3) 0.1034(10)
H7A H 0.7525 0.4315 0.1816
C15A C 0.7371(4) 0.3685(3) 0.1083(10)
H8A H 0.7288 0.3551 0.1887
C16A C 0.7336(4) 0.3400(4) 0.0000
C17A C 0.7195(4) 0.2890(3) 0.0000
C18A C 0.6957(3) 0.7197(3) 0.2395(8)
C19A C 0.6944(3) 0.7235(4) 0.0000
H9A H 0.7266 0.7121 0.0000
C20A C 0.6714(2) 0.7317(3) 0.1192(7)
C21A C 0.6219(2) 0.7451(3) 0.1132(8)
H10A H 0.6046 0.7489 0.1906
C22A C 0.5984(3) 0.7528(4) 0.0000
C23A C 0.5442(4) 0.7662(4) 0.0000
C24A C 0.5196(3) 0.7671(3) 0.1247(9)
H11A H 0.5349 0.7602 0.2036
C25A C 0.4692(3) 0.7796(3) 0.1117(9)
H12A H 0.4511 0.7818 0.1882
C26A C 0.4449(4) 0.7885(4) 0.0000
C27A C 0.3929(3) 0.7983(3) 0.0000
O1A O 0.76464(16) 0.66776(19) 0.5000
O2A O 0.78616(19) 0.56805(16) 0.3441(4)
O3A O 0.81350(15) 0.63302(14) 0.2418(4)
O4A O 0.7097(3) 0.2696(2) -0.1057(7)
O7A O 0.6766(2) 0.7283(2) 0.3431(5)
O8A O 0.7390(2) 0.7015(2) 0.2266(7)
O9A O 0.3700(2) 0.80034(19) -0.1123(7)
Zn1A Zn 0.69947(3) 0.69411(3) 0.5000
Zn2A Zn 0.79906(2) 0.69605(2) 0.34810(7)
Zn3A Zn 0.76239(3) 0.59917(3) 0.5000
C8D C 0.7994(2) 0.5907(2) -0.2423(6)
C10D C 0.7970(2) 0.5631(2) -0.1179(6)
C11D C 0.7846(2) 0.5141(2) -0.1184(7)
H6D H 0.7810 0.4974 -0.1968
C14D C 0.7517(4) 0.4144(3) -0.1034(10)
H7D H 0.7525 0.4315 -0.1816
C15D C 0.7371(4) 0.3685(3) -0.1083(10)
H8D H 0.7288 0.3551 -0.1887
O2D O 0.78616(19) 0.56805(16) -0.3441(4)
O3D O 0.81350(15) 0.63302(14) -0.2418(4)
O4D O 0.7097(3) 0.2696(2) 0.1057(7)
C18D C 0.6957(3) 0.7197(3) -0.2395(8)
C20D C 0.6714(2) 0.7317(3) -0.1192(7)
C21D C 0.6219(2) 0.7451(3) -0.1132(8)
H10D H 0.6046 0.7489 -0.1906
C24D C 0.5196(3) 0.7671(3) -0.1247(9)
H11D H 0.5349 0.7602 -0.2036
C25D C 0.4692(3) 0.7796(3) -0.1117(9)
H12D H 0.4511 0.7818 -0.1882
O7D O 0.6766(2) 0.7283(2) -0.3431(5)
O8D O 0.7390(2) 0.7015(2) -0.2266(7)
O9D O 0.3700(2) 0.80034(19) 0.1123(7)
Zn2D Zn 0.79906(2) 0.69605(2) -0.34810(7)
Zn2E Zn 0.20094(2) 0.30395(2) -0.34810(7)
O1_2 O 0.23536(16) 0.33224(19) -0.5000
O1A_2 O 0.76464(16) 0.66776(19) -0.5000
O2D_2 O 0.78616(19) 0.56805(16) 0.6559(4)
O2E_2 O 0.21384(19) 0.43195(16) 0.6559(4)
O4B O 0.7903(3) 0.7696(2) -0.3943(7)
O4C O 0.2097(3) 0.2304(2) -0.3943(7)
O4F O 0.2097(3) 0.2304(2) 0.3943(7)
O4G O 0.7903(3) 0.7696(2) 0.3943(7)
O7D_2 O 0.6766(2) 0.7283(2) 0.6569(5)
O7E_2 O 0.3234(2) 0.2717(2) 0.6569(5)
O9B O 0.1300(2) 0.30034(19) -0.3877(7)
O9C O 0.8700(2) 0.69966(19) -0.3877(7)
O9F O 0.8700(2) 0.69966(19) 0.3877(7)
O9G O 0.1300(2) 0.30034(19) 0.3877(7)
Zn1_2 Zn 0.30053(3) 0.30589(3) -0.5000
Zn1A_2 Zn 0.69947(3) 0.69411(3) -0.5000
Zn2B Zn 0.70094(2) 0.19605(2) 0.15190(7)
Zn2C Zn 0.29906(2) 0.80395(2) 0.15190(7)
Zn2D_2 Zn 0.79906(2) 0.69605(2) 0.65190(7)
Zn2E_2 Zn 0.20094(2) 0.30395(2) 0.65190(7)
Zn2F Zn 0.29906(2) 0.80395(2) -0.15190(7)
Zn2G Zn 0.70094(2) 0.19605(2) -0.15190(7)
Zn3_2 Zn 0.23761(3) 0.40083(3) -0.5000
Zn3A_2 Zn 0.76239(3) 0.59917(3) -0.5000
loop_
_geom_bond_atom_site_label_1
_geom_bond_atom_site_label_2
_geom_bond_site_symmetry_1
_geom_bond_site_symmetry_2
C1 C2 1_555 1_555
C2 C3 1_555 1_555
C3 H1 1_555 1_555
C4 C3 1_555 1_555
H2 C4 1_555 1_555
C5 C4 1_555 1_555
C6 C5 1_555 1_555
H3 C6 1_555 1_555
C7 C2 1_555 1_555
H4 C7 1_555 1_555
C8 C10 1_555 1_555
C9 H5 1_555 1_555
C10 C9 1_555 1_555
C11 C10 1_555 1_555
H6 C11 1_555 1_555
C12 C11 1_555 1_555
C13 C12 1_555 1_555
C14 C13 1_555 1_555
H7 C14 1_555 1_555
C15 C14 1_555 1_555
H8 C15 1_555 1_555
C16 C15 1_555 1_555
C17 C16 1_555 1_555
C18 C20 1_555 1_555
C19 H9 1_555 1_555
C20 C19 1_555 1_555
C21 C20 1_555 1_555
H10 C21 1_555 1_555
C22 C21 1_555 1_555
C23 C22 1_555 1_555
C24 C23 1_555 1_555
H11 C24 1_555 1_555
C25 C24 1_555 1_555
H12 C25 1_555 1_555
C26 C25 1_555 1_555
C27 C26 1_555 1_555
O1 Zn1 1_555 1_555
O2 C8 1_555 1_555
O3 C8 1_555 1_555
O4 C17 1_555 1_555
O5 C1 1_555 1_555
O6 C1 1_555 1_555
O7 C18 1_555 1_555
O8 C18 1_555 1_555
O9 C27 1_555 1_555
Zn1 O6 1_555 1_555
Zn2 O1 1_555 1_555
Zn3 O1 1_555 1_555
C28 H13 1_555 1_555
H14 C28 1_555 1_555
H15 C28 1_555 1_555
C29 H16 1_555 1_555
H17 C29 1_555 1_555
H18 C29 1_555 1_555
N1 C28 1_555 1_555
H19 N1 1_555 1_555
C1A C2A 1_555 1_555
C2A C3A 1_555 1_555
C3A H1A 1_555 1_555
C4A C3A 1_555 1_555
H2A C4A 1_555 1_555
C5A C5 1_555 1_555
C6A C5A 1_555 1_555
H3A C6A 1_555 1_555
C7A C2A 1_555 1_555
H4A C7A 1_555 1_555
O5A C1A 1_555 1_555
O6A C1A 1_555 1_555
C8E C10E 1_555 1_555
C10E C9 1_555 1_555
C11E C12 1_555 1_555
H6E C11E 1_555 1_555
C14E C13 1_555 1_555
H7E C14E 1_555 1_555
C15E C16 1_555 1_555
H8E C15E 1_555 1_555
O2E C8E 1_555 1_555
O3E C8E 1_555 1_555
O4E C17 1_555 1_555
C18E C20E 1_555 1_555
C20E C19 1_555 1_555
C21E C22 1_555 1_555
H10E C21E 1_555 1_555
C24E C23 1_555 1_555
H11E C24E 1_555 1_555
C25E C26 1_555 1_555
H12E C25E 1_555 1_555
O7E C18E 1_555 1_555
O8E C18E 1_555 1_555
O9E C27 1_555 1_555
C8A C10A 1_555 1_555
C9A H5A 1_555 1_555
C10A C9A 1_555 1_555
C11A C10A 1_555 1_555
H6A C11A 1_555 1_555
C12A C11A 1_555 1_555
C13A C12A 1_555 1_555
C14A C13A 1_555 1_555
H7A C14A 1_555 1_555
C15A C14A 1_555 1_555
H8A C15A 1_555 1_555
C16A C15A 1_555 1_555
C17A C16A 1_555 1_555
C18A C20A 1_555 1_555
C19A H9A 1_555 1_555
C20A C19A 1_555 1_555
C21A C20A 1_555 1_555
H10A C21A 1_555 1_555
C22A C21A 1_555 1_555
C23A C22A 1_555 1_555
C24A C23A 1_555 1_555
H11A C24A 1_555 1_555
C25A C24A 1_555 1_555
H12A C25A 1_555 1_555
C26A C25A 1_555 1_555
C27A C26A 1_555 1_555
O1A Zn1A 1_555 1_555
O2A C8A 1_555 1_555
O3A C8A 1_555 1_555
O4A C17A 1_555 1_555
O7A C18A 1_555 1_555
O8A C18A 1_555 1_555
O9A C27A 1_555 1_555
Zn1A O6A 1_555 1_555
Zn2A O1A 1_555 1_555
Zn3A O5A 1_555 1_555
C8D C10D 1_555 1_555
C10D C9A 1_555 1_555
C11D C12A 1_555 1_555
H6D C11D 1_555 1_555
C14D C13A 1_555 1_555
H7D C14D 1_555 1_555
C15D C16A 1_555 1_555
H8D C15D 1_555 1_555
O2D C8D 1_555 1_555
O3D C8D 1_555 1_555
O4D C17A 1_555 1_555
C18D C20D 1_555 1_555
C20D C19A 1_555 1_555
C21D C22A 1_555 1_555
H10D C21D 1_555 1_555
C24D C23A 1_555 1_555
H11D C24D 1_555 1_555
C25D C26A 1_555 1_555
H12D C25D 1_555 1_555
O7D C18D 1_555 1_555
O8D C18D 1_555 1_555
O9D C27A 1_555 1_555
Zn2D O3D 1_555 1_555
Zn2E O3E 1_555 1_555
O1_2 Zn2E 1_555 1_555
O1A_2 Zn2D 1_555 1_555
O2D_2 Zn3A 1_555 1_555
O2E_2 Zn3 1_555 1_555
O4B Zn2D 1_555 1_555
O4C Zn2E 1_555 1_555
O4F Zn2 1_555 1_555
O4G Zn2A 1_555 1_555
O7D_2 Zn1A 1_555 1_555
O7E_2 Zn1 1_555 1_555
O9B Zn2E 1_555 1_555
O9C Zn2D 1_555 1_555
O9F Zn2A 1_555 1_555
O9G Zn2 1_555 1_555
Zn1_2 O7E 1_555 1_555
Zn1A_2 O7D 1_555 1_555
Zn2B O9E 1_555 1_555
Zn2C O4E 1_555 1_555
Zn2D_2 O1A 1_555 1_555
Zn2E_2 O1 1_555 1_555
Zn2F O4 1_555 1_555
Zn2G O9 1_555 1_555
Zn3_2 O2E 1_555 1_555
Zn3A_2 O2D 1_555 1_555
H13E C28 1_555 1_555
H14E C28 1_555 1_555
H15E C28 1_555 1_555
H16E C29 1_555 1_555
H17E C29 1_555 1_555
H18E C29 1_555 1_555
H19E N1 1_555 1_555
C6 C7 1_555 1_555
O2 Zn3 1_555 1_555
O3 Zn2 1_555 1_555
O5 Zn3 1_555 1_555
O7 Zn1 1_555 1_555
O8 Zn2 1_555 1_555
C29 N1 1_555 1_555
C4A C5A 1_555 1_555
C6A C7A 1_555 1_555
C10E C11E 1_555 1_555
C14E C15E 1_555 1_555
C20E C21E 1_555 1_555
C24E C25E 1_555 1_555
O8E Zn2E 1_555 1_555
O1A Zn3A 1_555 1_555
O2A Zn3A 1_555 1_555
O3A Zn2A 1_555 1_555
O4A Zn2G 1_555 1_555
O7A Zn1A 1_555 1_555
O8A Zn2A 1_555 1_555
O9A Zn2F 1_555 1_555
C10D C11D 1_555 1_555
C14D C15D 1_555 1_555
O4D Zn2B 1_555 1_555
C20D C21D 1_555 1_555
C24D C25D 1_555 1_555
O8D Zn2D 1_555 1_555
O9D Zn2C 1_555 1_555
O1_2 Zn1_2 1_555 1_555
O1_2 Zn3_2 1_555 1_555
O1A_2 Zn1A_2 1_555 1_555
O1A_2 Zn3A_2 1_555 1_555

#END
