
#######################################################################
#
#                 Cambridge Crystallographic Data Centre
#                                CCDC 
#
#######################################################################
#
# If this CIF has been generated from an entry in the Cambridge 
# Structural Database, then it will include bibliographic, chemical, 
# crystal, experimental, refinement or atomic coordinate data resulting 
# from the CCDC's data processing and validation procedures.
#
#######################################################################

data_EJIDUW01
_chemical_formula_moiety         '(C18 H38 Nd2 O19)n'
_symmetry_cell_setting           triclinic
_symmetry_space_group_name_H-M   'P -1'
_symmetry_Int_Tables_number      2
_space_group_name_Hall           '-P 1'
loop_
_symmetry_equiv_pos_site_id
_symmetry_equiv_pos_as_xyz
1 x,y,z
2 -x,-y,-z
_cell_length_a                   9.1820(1)
_cell_length_b                   9.6870(1)
_cell_length_c                   10.6390(2)
_cell_angle_alpha                106.807(1)
_cell_angle_beta                 95.625(1)
_cell_angle_gamma                118.060(1)
_cell_volume                     768.105
loop_
_atom_site_label
_atom_site_type_symbol
_atom_site_fract_x
_atom_site_fract_y
_atom_site_fract_z
Nd1 Nd 0.76502(2) 0.54498(2) 0.018200(17)
O1 O 0.7626(4) 0.6380(4) 0.2662(3)
O2 O 0.5084(4) 0.5343(4) 0.1329(3)
O3 O 0.9379(4) 0.4507(4) 0.1105(3)
O4 O 1.1246(4) 0.3823(4) 0.1696(3)
O5 O 0.3082(4) -0.2718(3) 0.1699(3)
O6 O 0.4544(4) -0.2373(3) 0.0179(3)
C1 C 0.6071(5) 0.5984(5) 0.2521(4)
C2 C 0.5408(5) 0.6204(6) 0.3755(4)
H1 H 0.4235 0.5992 0.3486
H2 H 0.6159 0.7379 0.4432
C3 C 0.5372(6) 0.4952(6) 0.4396(4)
H3 H 0.4677 0.3786 0.3695
H4 H 0.6556 0.5204 0.4697
C4 C 1.0093(5) 0.4150(5) 0.1924(4)
C5 C 0.9585(5) 0.4142(5) 0.3228(4)
H5 H 1.0186 0.3742 0.3713
H6 H 0.9970 0.5314 0.3824
C6 C 0.7649(5) 0.3017(5) 0.2993(4)
H7 H 0.7052 0.3427 0.2519
H8 H 0.7403 0.3130 0.3891
C7 C 0.6924(5) 0.1154(5) 0.2155(4)
H9 H 0.7205 0.1029 0.1270
H10 H 0.7454 0.0707 0.2650
C8 C 0.4975(6) 0.0145(6) 0.1904(5)
H11 H 0.4787 0.0502 0.2832
H12 H 0.4533 0.0560 0.1371
C9 C 0.4168(5) -0.1749(5) 0.1223(4)
O7 O 1.0501(4) 0.7961(4) 0.1471(3)
H13 H 1.088(8) 0.886(8) 0.175(6)
H14 H 1.136(8) 0.793(7) 0.164(6)
O8 O 0.7731(4) 0.8097(4) 0.0378(3)
H15 H 0.874(7) 0.923(7) 0.102(6)
H16 H 0.715(8) 0.824(8) 0.023(6)
Nd1A Nd 0.23498(2) 0.45502(2) 0.981800(17)
Nd1A_2 Nd 0.23498(2) 0.45502(2) -0.018200(17)
Nd1A_3 Nd 1.23498(2) 0.45502(2) -0.018200(17)
Nd1A_4 Nd 0.23498(2) -0.54498(2) -0.018200(17)
Nd1_2 Nd 0.76502(2) 0.54498(2) 1.018200(17)
Nd1_3 Nd -0.23498(2) -0.45502(2) 0.018200(17)
O1A O 0.2374(4) 0.3620(4) 0.7338(3)
O2A O 0.4916(4) 0.4657(4) 0.8671(3)
O2A_2 O 0.4916(4) 0.4657(4) -0.1329(3)
O2_2 O 0.5084(4) 0.5343(4) 1.1329(3)
O3A O 0.0621(4) 0.5493(4) 0.8895(3)
O3A_2 O 0.0621(4) -0.4507(4) -0.1105(3)
O4A O 0.8754(4) 0.6177(4) -0.1696(3)
O4_2 O 0.1246(4) 0.3823(4) 1.1696(3)
O4A_2 O -0.1246(4) -0.3823(4) -0.1696(3)
O5A O 0.6918(4) 0.2718(3) -0.1699(3)
O5_2 O 0.3082(4) 0.7282(3) 1.1699(3)
O6A O 0.5456(4) 0.2373(3) -0.0179(3)
O6_2 O 0.4544(4) 0.7627(3) 1.0179(3)
C1A C 0.3929(5) 0.4016(5) 0.7479(4)
C2A C 0.4592(5) 0.3796(6) 0.6245(4)
H1A H 0.5765 0.4008 0.6514
H2A H 0.3841 0.2621 0.5568
C3A C 0.4628(6) 0.5048(6) 0.5604(4)
H3A H 0.5323 0.6214 0.6305
H4A H 0.3444 0.4796 0.5303
C4A C -0.0093(5) -0.4150(5) -0.1924(4)
C5A C 0.0415(5) -0.4142(5) -0.3228(4)
H5A H -0.0186 -0.3742 -0.3713
H6A H 0.0030 -0.5314 -0.3824
C6A C 0.2351(5) -0.3017(5) -0.2993(4)
H7A H 0.2948 -0.3427 -0.2519
H8A H 0.2597 -0.3130 -0.3891
C7A C 0.3076(5) -0.1154(5) -0.2155(4)
H9A H 0.2795 -0.1029 -0.1270
H10A H 0.2546 -0.0707 -0.2650
C8A C 0.5025(6) -0.0145(6) -0.1904(5)
H11A H 0.5213 -0.0502 -0.2832
H12A H 0.5467 -0.0560 -0.1371
C9A C 0.5832(5) 0.1749(5) -0.1223(4)
O7A O -0.0501(4) 0.2039(4) 0.8529(3)
H13A H -0.088(8) 0.114(8) 0.825(6)
H14A H -0.136(8) 0.207(7) 0.836(6)
O8A O 0.2269(4) 0.1903(4) 0.9622(3)
H15A H 0.126(7) 0.077(7) 0.898(6)
H16A H 0.285(8) 0.176(8) 0.977(6)
O9 O 0.6794(4) 0.1222(4) 0.5478(3)
H17 H 0.6799 0.1682 0.6194
H18 H 0.5742 0.0390 0.5047
O10 O 0.0690(4) 0.0994(4) 0.2383(3)
H19 H 0.0455 0.1285 0.3185
H20 H 0.0999 0.1832 0.2206
O11 O 0.9868(4) 0.1366(4) 0.4940(3)
H21 H 1.0557 0.2077 0.5617
H22 H 0.8905 0.1330 0.5011
loop_
_geom_bond_atom_site_label_1
_geom_bond_atom_site_label_2
_geom_bond_site_symmetry_1
_geom_bond_site_symmetry_2
Nd1 O1 1_555 1_555
O1 C1 1_555 1_555
O2 Nd1 1_555 1_555
O3 Nd1 1_555 1_555
O4 C4 1_555 1_555
O5 C9 1_555 1_555
O6 C9 1_555 1_555
C1 O2 1_555 1_555
C2 C1 1_555 1_555
H1 C2 1_555 1_555
H2 C2 1_555 1_555
C3 C2 1_555 1_555
H3 C3 1_555 1_555
H4 C3 1_555 1_555
C4 O3 1_555 1_555
C5 C4 1_555 1_555
H5 C5 1_555 1_555
H6 C5 1_555 1_555
C6 C5 1_555 1_555
H7 C6 1_555 1_555
H8 C6 1_555 1_555
C7 C6 1_555 1_555
H9 C7 1_555 1_555
H10 C7 1_555 1_555
C8 C7 1_555 1_555
H11 C8 1_555 1_555
H12 C8 1_555 1_555
C9 C8 1_555 1_555
O7 Nd1 1_555 1_555
H13 O7 1_555 1_555
H14 O7 1_555 1_555
O8 Nd1 1_555 1_555
H15 O8 1_555 1_555
H16 O8 1_555 1_555
O9 H17 1_555 1_555
H18 O9 1_555 1_555
O10 H19 1_555 1_555
H20 O10 1_555 1_555
O11 H21 1_555 1_555
H22 O11 1_555 1_555
Nd1A O1A 1_555 1_555
Nd1A_2 O2 1_555 1_555
Nd1A_3 O4 1_555 1_555
Nd1A_4 O5 1_555 1_555
Nd1_2 O2A 1_555 1_555
Nd1_3 O4A_2 1_555 1_555
O1A C1A 1_555 1_555
O2A Nd1A 1_555 1_555
O2A_2 Nd1 1_555 1_555
O2_2 Nd1A 1_555 1_555
O3A Nd1A 1_555 1_555
O3A_2 Nd1A_4 1_555 1_555
O4A Nd1 1_555 1_555
O4_2 Nd1A 1_555 1_555
O4A_2 C4A 1_555 1_555
O5A Nd1 1_555 1_555
O5_2 Nd1A 1_555 1_555
O6A Nd1 1_555 1_555
O6_2 Nd1A 1_555 1_555
C1A O2A 1_555 1_555
C2A C1A 1_555 1_555
H1A C2A 1_555 1_555
H2A C2A 1_555 1_555
C3A C3 1_555 1_555
H3A C3A 1_555 1_555
H4A C3A 1_555 1_555
C4A O3A_2 1_555 1_555
C5A C4A 1_555 1_555
H5A C5A 1_555 1_555
H6A C5A 1_555 1_555
C6A C5A 1_555 1_555
H7A C6A 1_555 1_555
H8A C6A 1_555 1_555
C7A C6A 1_555 1_555
H9A C7A 1_555 1_555
H10A C7A 1_555 1_555
C8A C7A 1_555 1_555
H11A C8A 1_555 1_555
H12A C8A 1_555 1_555
C9A O5A 1_555 1_555
O7A Nd1A 1_555 1_555
H13A O7A 1_555 1_555
H14A O7A 1_555 1_555
O8A Nd1A 1_555 1_555
H15A O8A 1_555 1_555
H16A O8A 1_555 1_555
O6 Nd1A_4 1_555 1_555
Nd1A_2 O2A_2 1_555 1_555
Nd1_2 O2_2 1_555 1_555
O6A C9A 1_555 1_555
C2A C3A 1_555 1_555
C8A C9A 1_555 1_555

#END
