
#######################################################################
#
#                 Cambridge Crystallographic Data Centre
#                                CCDC 
#
#######################################################################
#
# If this CIF has been generated from an entry in the Cambridge 
# Structural Database, then it will include bibliographic, chemical, 
# crystal, experimental, refinement or atomic coordinate data resulting 
# from the CCDC's data processing and validation procedures.
#
#######################################################################

data_DAMYOI
_chemical_formula_moiety         '(C64 H50 O21 Tm3)n'
_symmetry_cell_setting           monoclinic
_symmetry_space_group_name_H-M   'C c'
_symmetry_Int_Tables_number      9
_space_group_name_Hall           'C -2yc'
loop_
_symmetry_equiv_pos_site_id
_symmetry_equiv_pos_as_xyz
1 x,y,z
2 x,-y,1/2+z
3 1/2+x,1/2+y,z
4 1/2+x,1/2-y,1/2+z
_cell_length_a                   30.4920(8)
_cell_length_b                   15.9861(7)
_cell_length_c                   25.7022(13)
_cell_angle_alpha                90
_cell_angle_beta                 89.991(3)
_cell_angle_gamma                90
_cell_volume                     12528.5
loop_
_atom_site_label
_atom_site_type_symbol
_atom_site_fract_x
_atom_site_fract_y
_atom_site_fract_z
Tm1 Tm 0.49989(7) 0.59772(6) 0.06366(11)
Tm2 Tm 0.50043(9) 0.70806(9) 0.25111(12)
Tm3 Tm 0.49970(8) 0.56909(6) 0.43751(11)
O1 O 0.5145(12) 0.753(2) 0.0540(12)
O2 O 0.5030(7) 0.5668(10) 0.2374(6)
O3 O 0.5253(8) 0.8406(15) 0.2275(9)
O4 O 0.4754(8) 0.8227(16) 0.3012(9)
O5 O 0.5056(13) 0.715(2) 0.4395(12)
O6 O 0.4472(6) 0.6982(8) 0.1987(6)
O7 O 0.4574(6) 0.6425(8) 0.1232(7)
C1 C 0.4334(5) 0.6787(5) 0.1550(5)
C2 C 0.3865(5) 0.7006(8) 0.1418(7)
C3 C 0.3590(6) 0.7405(10) 0.1756(8)
H1 H 0.3693 0.7553 0.2084
C4 C 0.3151(6) 0.7598(12) 0.1617(8)
H2 H 0.2969 0.7870 0.1854
C5 C 0.2995(6) 0.7391(11) 0.1144(8)
C6 C 0.3258(6) 0.6997(11) 0.0803(9)
H3 H 0.3152 0.6850 0.0476
C7 C 0.3698(6) 0.6805(10) 0.0942(8)
H4 H 0.3876 0.6535 0.0701
C8 C 0.2527(6) 0.7626(14) 0.1036(11)
H5 H 0.2398 0.7324 0.0767
O8 O 0.5490(5) 0.7206(8) 0.1837(5)
O9 O 0.5555(5) 0.6210(7) 0.1217(5)
C9 C 0.5684(4) 0.6787(6) 0.1502(3)
C10 C 0.6160(4) 0.7043(9) 0.1442(5)
C11 C 0.6333(6) 0.7674(10) 0.1736(7)
H6 H 0.6158 0.7950 0.1978
C12 C 0.6780(6) 0.7909(11) 0.1677(7)
H7 H 0.6898 0.8336 0.1878
C13 C 0.7030(6) 0.7507(10) 0.1324(7)
C14 C 0.6871(6) 0.6884(11) 0.1027(7)
H8 H 0.7049 0.6615 0.0785
C15 C 0.6424(5) 0.6649(11) 0.1090(6)
H9 H 0.6310 0.6218 0.0889
C16 C 0.7499(6) 0.7781(14) 0.1280(9)
H10 H 0.7570 0.8204 0.1514
O10 O 0.0408(6) 0.9784(9) 0.0633(7)
O11 O 0.0455(6) 0.8764(10) 0.0054(5)
C17 C 0.0595(4) 0.9181(7) 0.0427(4)
C18 C 0.1035(4) 0.8920(10) 0.0645(6)
C19 C 0.1214(6) 0.9344(12) 0.1055(7)
H11 H 0.1070 0.9797 0.1205
C20 C 0.1629(6) 0.9073(13) 0.1244(8)
H12 H 0.1756 0.9354 0.1523
C21 C 0.1843(6) 0.8421(11) 0.1031(8)
C22 C 0.1666(6) 0.8002(13) 0.0628(8)
H13 H 0.1814 0.7552 0.0480
C23 C 0.1252(6) 0.8258(12) 0.0431(8)
H14 H 0.1128 0.7972 0.0153
C24 C 0.2280(7) 0.8150(15) 0.1241(10)
H15 H 0.2374 0.8395 0.1550
O12 O 0.5463(6) 0.5975(10) -0.0075(5)
O13 O 0.5556(6) 0.5203(9) -0.0800(6)
C25 C 0.5657(4) 0.5740(6) -0.0472(4)
C26 C 0.6087(4) 0.6186(10) -0.0570(7)
C27 C 0.6248(6) 0.6793(12) -0.0250(8)
H16 H 0.6090 0.6947 0.0044
C28 C 0.6654(6) 0.7193(14) -0.0357(9)
H17 H 0.6755 0.7605 -0.0131
C29 C 0.6898(7) 0.6995(12) -0.0777(8)
C30 C 0.6747(7) 0.6397(13) -0.1099(9)
H18 H 0.6909 0.6247 -0.1392
C31 C 0.6340(6) 0.5998(13) -0.0992(8)
H19 H 0.6242 0.5588 -0.1221
C32 C 0.7323(7) 0.7453(16) -0.0856(11)
H20 H 0.7392 0.7933 -0.0669
O14 O 0.5549(6) 0.6771(10) 0.3039(5)
O15 O 0.5505(6) 0.5934(9) 0.3713(6)
C33 C 0.5702(4) 0.6447(6) 0.3438(4)
C34 C 0.6160(4) 0.6740(9) 0.3564(6)
C35 C 0.6378(5) 0.7307(11) 0.3261(8)
H21 H 0.6239 0.7523 0.2968
C36 C 0.6810(6) 0.7577(13) 0.3381(8)
H22 H 0.6957 0.7961 0.3173
C37 C 0.6997(6) 0.7253(11) 0.3811(8)
C38 C 0.6792(5) 0.6694(12) 0.4117(8)
H23 H 0.6934 0.6483 0.4410
C39 C 0.6361(5) 0.6424(11) 0.3995(7)
H24 H 0.6217 0.6038 0.4206
C40 C 0.7453(6) 0.7508(15) 0.3966(10)
H25 H 0.7491 0.7501 0.4325
O16 O 0.9521(7) 0.8124(10) -0.1875(6)
O17 O 0.9507(7) 0.8851(9) -0.1143(7)
C41 C 0.9343(5) 0.8379(6) -0.1471(5)
C42 C 0.8880(5) 0.8076(9) -0.1379(8)
C43 C 0.8692(7) 0.7554(12) -0.1736(9)
H26 H 0.8848 0.7389 -0.2029
C44 C 0.8257(7) 0.7264(14) -0.1657(9)
H27 H 0.8127 0.6910 -0.1899
C45 C 0.8033(7) 0.7502(12) -0.1231(9)
C46 C 0.8211(7) 0.8016(13) -0.0873(9)
H28 H 0.8052 0.8176 -0.0581
C47 C 0.8646(7) 0.8309(13) -0.0951(8)
H29 H 0.8773 0.8664 -0.0707
C48 C 0.7576(7) 0.7156(16) -0.1186(11)
H30 H 0.7485 0.6725 -0.1403
O18 O 0.9607(5) 0.9456(8) 0.4295(6)
O19 O 0.9539(5) 0.8630(9) 0.5001(5)
C49 C 0.9425(4) 0.8929(6) 0.4576(4)
C50 C 0.8995(4) 0.8609(8) 0.4359(6)
C51 C 0.8845(5) 0.8903(11) 0.3894(7)
H31 H 0.9004 0.9299 0.3709
C52 C 0.8440(5) 0.8596(12) 0.3696(8)
H32 H 0.8334 0.8791 0.3380
C53 C 0.8213(5) 0.8024(11) 0.3968(7)
C54 C 0.8366(6) 0.7737(12) 0.4425(8)
H33 H 0.8205 0.7339 0.4606
C55 C 0.8768(5) 0.8026(10) 0.4638(7)
H34 H 0.8872 0.7826 0.4954
C56 C 0.7788(6) 0.7724(15) 0.3736(10)
H35 H 0.7778 0.7698 0.3375
O20 O 0.9544(6) 0.9140(10) 0.0010(5)
O21 O 0.9537(6) 0.9889(9) 0.0755(7)
C57 C 0.9400(4) 0.9364(7) 0.0440(4)
C58 C 0.8986(4) 0.8926(10) 0.0618(8)
C59 C 0.8810(6) 0.8337(13) 0.0296(9)
H36 H 0.8942 0.8210 -0.0021
C60 C 0.8420(7) 0.7921(14) 0.0454(10)
H37 H 0.8301 0.7518 0.0235
C61 C 0.8216(7) 0.8082(13) 0.0907(9)
C62 C 0.8389(7) 0.8663(14) 0.1225(10)
H38 H 0.8253 0.8786 0.1540
C63 C 0.8779(6) 0.9091(13) 0.1078(9)
H39 H 0.8896 0.9491 0.1301
C64 C 0.7808(7) 0.7581(17) 0.1010(12)
H40 H 0.7791 0.7061 0.0849
Tm1B Tm -0.00011(7) 1.09772(6) 0.06366(11)
Tm1B_2 Tm 0.99989(7) 1.09772(6) 0.06366(11)
Tm1C Tm 0.99989(7) 0.90228(6) 0.56366(11)
Tm2C Tm 1.00043(9) 0.79194(9) -0.24889(12)
Tm3A Tm 0.49970(8) 0.43091(6) -0.06249(11)
Tm3B Tm 0.99970(8) 1.06909(6) 0.43751(11)
Tm3C Tm -0.00030(8) 0.93091(6) -0.06249(11)
Tm3C_2 Tm 0.99970(8) 0.93091(6) -0.06249(11)
O10B O 0.5408(6) 0.4784(9) 0.0633(7)
O11C O 0.5455(6) 0.6236(10) 0.5054(5)
O13A O 0.5556(6) 0.4797(9) 0.4200(6)
O16C O 0.4521(7) 0.6876(10) 0.3125(6)
O17C O 0.4507(7) 0.6149(9) 0.3857(7)
O18B O 0.4607(5) 0.4456(8) 0.4295(6)
O19C O 0.4539(5) 0.6370(9) 0.0001(5)
O20C O 0.4544(6) 0.5860(10) 0.5010(5)
O21B O 0.4537(6) 0.4889(9) 0.0755(7)
loop_
_geom_bond_atom_site_label_1
_geom_bond_atom_site_label_2
_geom_bond_site_symmetry_1
_geom_bond_site_symmetry_2
Tm1 O1 1_555 1_555
Tm2 O2 1_555 1_555
Tm3 O5 1_555 1_555
O3 Tm2 1_555 1_555
O4 Tm2 1_555 1_555
O6 Tm2 1_555 1_555
O7 Tm1 1_555 1_555
C1 O6 1_555 1_555
C2 C1 1_555 1_555
C3 C2 1_555 1_555
H1 C3 1_555 1_555
C4 C3 1_555 1_555
H2 C4 1_555 1_555
C5 C4 1_555 1_555
C6 C5 1_555 1_555
H3 C6 1_555 1_555
C7 C2 1_555 1_555
H4 C7 1_555 1_555
C8 C5 1_555 1_555
H5 C8 1_555 1_555
O8 Tm2 1_555 1_555
O9 Tm1 1_555 1_555
C9 O8 1_555 1_555
C10 C9 1_555 1_555
C11 C10 1_555 1_555
H6 C11 1_555 1_555
C12 C11 1_555 1_555
H7 C12 1_555 1_555
C13 C12 1_555 1_555
C14 C13 1_555 1_555
H8 C14 1_555 1_555
C15 C10 1_555 1_555
H9 C15 1_555 1_555
C16 C13 1_555 1_555
H10 C16 1_555 1_555
O10 C17 1_555 1_555
O11 C17 1_555 1_555
C17 C18 1_555 1_555
C18 C19 1_555 1_555
C19 H11 1_555 1_555
C20 C19 1_555 1_555
H12 C20 1_555 1_555
C21 C20 1_555 1_555
C22 C21 1_555 1_555
H13 C22 1_555 1_555
C23 C18 1_555 1_555
H14 C23 1_555 1_555
C24 C8 1_555 1_555
H15 C24 1_555 1_555
O12 Tm1 1_555 1_555
O13 C25 1_555 1_555
C25 O12 1_555 1_555
C26 C25 1_555 1_555
C27 C26 1_555 1_555
H16 C27 1_555 1_555
C28 C27 1_555 1_555
H17 C28 1_555 1_555
C29 C28 1_555 1_555
C30 C29 1_555 1_555
H18 C30 1_555 1_555
C31 C26 1_555 1_555
H19 C31 1_555 1_555
C32 C29 1_555 1_555
H20 C32 1_555 1_555
O14 Tm2 1_555 1_555
O15 Tm3 1_555 1_555
C33 O14 1_555 1_555
C34 C33 1_555 1_555
C35 C34 1_555 1_555
H21 C35 1_555 1_555
C36 C35 1_555 1_555
H22 C36 1_555 1_555
C37 C36 1_555 1_555
C38 C37 1_555 1_555
H23 C38 1_555 1_555
C39 C34 1_555 1_555
H24 C39 1_555 1_555
C40 C37 1_555 1_555
H25 C40 1_555 1_555
O16 C41 1_555 1_555
O17 C41 1_555 1_555
C41 C42 1_555 1_555
C42 C43 1_555 1_555
C43 H26 1_555 1_555
C44 C43 1_555 1_555
H27 C44 1_555 1_555
C45 C44 1_555 1_555
C46 C45 1_555 1_555
H28 C46 1_555 1_555
C47 C42 1_555 1_555
H29 C47 1_555 1_555
C48 C32 1_555 1_555
H30 C48 1_555 1_555
O18 C49 1_555 1_555
O19 C49 1_555 1_555
C49 C50 1_555 1_555
C50 C51 1_555 1_555
C51 H31 1_555 1_555
C52 C51 1_555 1_555
H32 C52 1_555 1_555
C53 C52 1_555 1_555
C54 C53 1_555 1_555
H33 C54 1_555 1_555
C55 C50 1_555 1_555
H34 C55 1_555 1_555
C56 C40 1_555 1_555
H35 C56 1_555 1_555
O20 C57 1_555 1_555
O21 C57 1_555 1_555
C57 C58 1_555 1_555
C58 C59 1_555 1_555
C59 H36 1_555 1_555
C60 C59 1_555 1_555
H37 C60 1_555 1_555
C61 C60 1_555 1_555
C62 C61 1_555 1_555
H38 C62 1_555 1_555
C63 C58 1_555 1_555
H39 C63 1_555 1_555
C64 C16 1_555 1_555
H40 C64 1_555 1_555
Tm1B O10 1_555 1_555
Tm1B_2 O21 1_555 1_555
Tm1C O19 1_555 1_555
Tm2C O16 1_555 1_555
Tm3A O13 1_555 1_555
Tm3B O18 1_555 1_555
Tm3C O11 1_555 1_555
Tm3C_2 O17 1_555 1_555
O10B Tm1 1_555 1_555
O11C Tm3 1_555 1_555
O13A Tm3 1_555 1_555
O16C Tm2 1_555 1_555
O17C Tm3 1_555 1_555
O18B Tm3 1_555 1_555
O19C Tm1 1_555 1_555
O20C Tm3 1_555 1_555
O21B Tm1 1_555 1_555
O7 C1 1_555 1_555
C6 C7 1_555 1_555
O9 C9 1_555 1_555
C14 C15 1_555 1_555
C21 C24 1_555 1_555
C22 C23 1_555 1_555
C30 C31 1_555 1_555
O15 C33 1_555 1_555
C38 C39 1_555 1_555
C45 C48 1_555 1_555
C46 C47 1_555 1_555
C53 C56 1_555 1_555
C54 C55 1_555 1_555
O20 Tm3C_2 1_555 1_555
C61 C64 1_555 1_555
C62 C63 1_555 1_555

#END
