
#######################################################################
#
#                 Cambridge Crystallographic Data Centre
#                                CCDC 
#
#######################################################################
#
# If this CIF has been generated from an entry in the Cambridge 
# Structural Database, then it will include bibliographic, chemical, 
# crystal, experimental, refinement or atomic coordinate data resulting 
# from the CCDC's data processing and validation procedures.
#
#######################################################################

data_DAMYUO
_chemical_formula_moiety         '(C64 H50 Er3 O21)n'
_symmetry_cell_setting           monoclinic
_symmetry_space_group_name_H-M   'C c'
_symmetry_Int_Tables_number      9
_space_group_name_Hall           'C -2yc'
loop_
_symmetry_equiv_pos_site_id
_symmetry_equiv_pos_as_xyz
1 x,y,z
2 x,-y,1/2+z
3 1/2+x,1/2+y,z
4 1/2+x,1/2-y,1/2+z
_cell_length_a                   30.6196(11)
_cell_length_b                   16.0904(9)
_cell_length_c                   25.8822(17)
_cell_angle_alpha                90
_cell_angle_beta                 90.008(4)
_cell_angle_gamma                90
_cell_volume                     12751.7
loop_
_atom_site_label
_atom_site_type_symbol
_atom_site_fract_x
_atom_site_fract_y
_atom_site_fract_z
Er1 Er 0.49945(10) 0.58923(7) 0.06281(12)
Er2 Er 0.49910(11) 0.71497(7) 0.25029(14)
Er3 Er 0.49900(10) 0.57758(7) 0.43718(12)
O1 O 0.5194(10) 0.7357(19) 0.0491(11)
O2 O 0.5012(7) 0.5733(10) 0.2407(7)
O3 O 0.5294(8) 0.8461(14) 0.2284(10)
O4 O 0.4777(8) 0.8339(15) 0.2990(9)
O5 O 0.5122(11) 0.7277(18) 0.4446(11)
O6 O 0.4489(7) 0.7032(9) 0.1967(7)
O7 O 0.4564(7) 0.6512(9) 0.1185(7)
C1 C 0.4346(6) 0.6834(5) 0.1536(6)
C2 C 0.3867(6) 0.6988(8) 0.1409(8)
C3 C 0.3591(7) 0.7344(12) 0.1765(9)
H1 H 0.3696 0.7497 0.2088
C4 C 0.3144(8) 0.7479(14) 0.1637(10)
H2 H 0.2959 0.7718 0.1880
C5 C 0.2983(7) 0.7266(13) 0.1166(10)
C6 C 0.3261(7) 0.6916(13) 0.0819(10)
H3 H 0.3153 0.6767 0.0496
C7 C 0.3710(7) 0.6767(12) 0.0930(9)
H4 H 0.3893 0.6527 0.0684
C8 C 0.2516(8) 0.7420(17) 0.1045(14)
H5 H 0.2376 0.7003 0.0859
O8 O 0.5476(6) 0.7125(9) 0.1844(5)
O9 O 0.5545(6) 0.6142(8) 0.1235(5)
C9 C 0.5675(4) 0.6719(6) 0.1512(3)
C10 C 0.6150(5) 0.6973(9) 0.1441(6)
C11 C 0.6309(6) 0.7614(11) 0.1740(7)
H6 H 0.6128 0.7877 0.1977
C12 C 0.6752(6) 0.7872(12) 0.1686(8)
H7 H 0.6867 0.8300 0.1885
C13 C 0.7001(6) 0.7466(11) 0.1331(7)
C14 C 0.6848(6) 0.6836(12) 0.1032(8)
H8 H 0.7031 0.6580 0.0793
C15 C 0.6406(6) 0.6570(11) 0.1084(7)
H9 H 0.6295 0.6139 0.0883
C16 C 0.7456(6) 0.7781(16) 0.1304(10)
H10 H 0.7477 0.8229 0.1530
O10 O 0.0443(7) 0.9810(10) 0.0740(7)
O11 O 0.0428(7) 0.8877(12) 0.0098(6)
C17 C 0.0590(4) 0.9229(7) 0.0478(4)
C18 C 0.1033(5) 0.8880(12) 0.0634(8)
C19 C 0.1247(8) 0.9222(16) 0.1050(10)
H11 H 0.1117 0.9659 0.1228
C20 C 0.1663(8) 0.8925(17) 0.1215(11)
H12 H 0.1801 0.9164 0.1498
C21 C 0.1856(8) 0.8289(16) 0.0956(11)
C22 C 0.1644(8) 0.7953(17) 0.0545(11)
H13 H 0.1777 0.7517 0.0368
C23 C 0.1228(8) 0.8237(15) 0.0371(10)
H14 H 0.1092 0.7993 0.0088
C24 C 0.2289(9) 0.802(2) 0.1156(14)
H15 H 0.2407 0.8371 0.1407
O12 O 0.5466(7) 0.5933(10) -0.0052(5)
O13 O 0.5517(6) 0.5217(9) -0.0808(6)
C25 C 0.5631(4) 0.5715(6) -0.0468(4)
C26 C 0.6060(4) 0.6150(10) -0.0589(8)
C27 C 0.6221(7) 0.6720(12) -0.0242(9)
H16 H 0.6068 0.6837 0.0060
C28 C 0.6624(7) 0.7130(14) -0.0349(9)
H17 H 0.6732 0.7514 -0.0113
C29 C 0.6854(7) 0.6972(14) -0.0788(9)
C30 C 0.6694(7) 0.6409(14) -0.1130(9)
H18 H 0.6850 0.6296 -0.1431
C31 C 0.6291(7) 0.5989(13) -0.1035(9)
H19 H 0.6185 0.5607 -0.1273
C32 C 0.7269(7) 0.7437(17) -0.0857(12)
H20 H 0.7304 0.7943 -0.0689
O14 O 0.5529(5) 0.6755(9) 0.3054(5)
O15 O 0.5542(6) 0.5992(8) 0.3751(6)
C33 C 0.5711(4) 0.6492(6) 0.3448(4)
C34 C 0.6168(4) 0.6821(8) 0.3551(6)
C35 C 0.6387(6) 0.7377(11) 0.3241(7)
H21 H 0.6251 0.7578 0.2945
C36 C 0.6817(6) 0.7654(12) 0.3364(8)
H22 H 0.6961 0.8030 0.3151
C37 C 0.7012(6) 0.7358(11) 0.3798(7)
C38 C 0.6798(5) 0.6809(11) 0.4106(8)
H23 H 0.6936 0.6614 0.4403
C39 C 0.6368(5) 0.6524(10) 0.3989(7)
H24 H 0.6227 0.6147 0.4204
C40 C 0.7458(6) 0.7616(15) 0.3956(10)
H25 H 0.7504 0.7593 0.4311
O16 O 0.9464(8) 0.8086(10) -0.1945(7)
O17 O 0.9533(7) 0.8699(9) -0.1179(7)
C41 C 0.9334(5) 0.8299(6) -0.1513(6)
C42 C 0.8870(5) 0.8023(9) -0.1390(9)
C43 C 0.8649(7) 0.7576(13) -0.1760(10)
H26 H 0.8786 0.7454 -0.2071
C44 C 0.8213(7) 0.7295(15) -0.1675(11)
H27 H 0.8067 0.6995 -0.1928
C45 C 0.8014(7) 0.7471(15) -0.1219(10)
C46 C 0.8234(8) 0.7912(15) -0.0854(11)
H28 H 0.8095 0.8028 -0.0542
C47 C 0.8670(7) 0.8203(13) -0.0927(10)
H29 H 0.8813 0.8503 -0.0672
C48 C 0.7561(8) 0.7179(19) -0.1125(13)
H30 H 0.7488 0.6703 -0.1309
O18 O 0.9582(5) 0.9568(8) 0.4323(6)
O19 O 0.9525(5) 0.8718(9) 0.4990(5)
C49 C 0.9396(4) 0.9022(6) 0.4578(4)
C50 C 0.8968(4) 0.8706(9) 0.4354(6)
C51 C 0.8827(6) 0.9046(11) 0.3895(7)
H31 H 0.8987 0.9456 0.3727
C52 C 0.8425(6) 0.8745(12) 0.3689(8)
H32 H 0.8318 0.8961 0.3381
C53 C 0.8198(6) 0.8145(12) 0.3943(8)
C54 C 0.8343(6) 0.7814(12) 0.4394(8)
H33 H 0.8181 0.7404 0.4559
C55 C 0.8744(5) 0.8097(11) 0.4614(8)
H34 H 0.8848 0.7877 0.4923
C56 C 0.7782(6) 0.7857(15) 0.3710(10)
H35 H 0.7762 0.7857 0.3351
O20 O 0.9540(6) 0.9023(11) 0.0025(5)
O21 O 0.9526(6) 0.9865(9) 0.0723(7)
C57 C 0.9393(4) 0.9304(7) 0.0436(4)
C58 C 0.8974(4) 0.8886(11) 0.0620(8)
C59 C 0.8798(6) 0.8254(13) 0.0330(9)
H36 H 0.8929 0.8076 0.0025
C60 C 0.8406(7) 0.7881(15) 0.0516(10)
H37 H 0.8280 0.7452 0.0326
C61 C 0.8208(7) 0.8131(15) 0.0959(10)
C62 C 0.8387(7) 0.8756(15) 0.1241(10)
H38 H 0.8254 0.8931 0.1545
C63 C 0.8780(7) 0.9147(14) 0.1071(9)
H39 H 0.8904 0.9574 0.1263
C64 C 0.7801(7) 0.7694(19) 0.1112(13)
H40 H 0.7831 0.7137 0.1022
Er1B Er -0.00055(10) 1.08923(7) 0.06281(12)
Er1B_2 Er 0.99945(10) 1.08923(7) 0.06281(12)
Er1C Er 0.99945(10) 0.91077(7) 0.56281(12)
Er2C Er 0.99910(11) 0.78503(7) -0.24971(14)
Er3A Er 0.49900(10) 0.42242(7) -0.06282(12)
Er3B Er 0.99900(10) 1.07758(7) 0.43718(12)
Er3C Er -0.00100(10) 0.92242(7) -0.06282(12)
Er3C_2 Er 0.99900(10) 0.92242(7) -0.06282(12)
O10B O 0.5443(7) 0.4810(10) 0.0740(7)
O11C O 0.5428(7) 0.6123(12) 0.5098(6)
O13A O 0.5517(6) 0.4783(9) 0.4192(6)
O16C O 0.4464(8) 0.6914(10) 0.3055(7)
O17C O 0.4533(7) 0.6301(9) 0.3821(7)
O18B O 0.4582(5) 0.4568(8) 0.4323(6)
O19C O 0.4525(5) 0.6282(9) -0.0010(5)
O20C O 0.4540(6) 0.5977(11) 0.5025(5)
O21B O 0.4526(6) 0.4865(9) 0.0723(7)
loop_
_geom_bond_atom_site_label_1
_geom_bond_atom_site_label_2
_geom_bond_site_symmetry_1
_geom_bond_site_symmetry_2
Er1 O1 1_555 1_555
Er2 O2 1_555 1_555
Er3 O5 1_555 1_555
O3 Er2 1_555 1_555
O4 Er2 1_555 1_555
O6 Er2 1_555 1_555
O7 Er1 1_555 1_555
C1 O6 1_555 1_555
C2 C1 1_555 1_555
C3 C2 1_555 1_555
H1 C3 1_555 1_555
C4 C3 1_555 1_555
H2 C4 1_555 1_555
C5 C4 1_555 1_555
C6 C5 1_555 1_555
H3 C6 1_555 1_555
C7 C2 1_555 1_555
H4 C7 1_555 1_555
C8 C5 1_555 1_555
H5 C8 1_555 1_555
O8 Er2 1_555 1_555
O9 Er1 1_555 1_555
C9 O8 1_555 1_555
C10 C9 1_555 1_555
C11 C10 1_555 1_555
H6 C11 1_555 1_555
C12 C11 1_555 1_555
H7 C12 1_555 1_555
C13 C12 1_555 1_555
C14 C13 1_555 1_555
H8 C14 1_555 1_555
C15 C10 1_555 1_555
H9 C15 1_555 1_555
C16 C13 1_555 1_555
H10 C16 1_555 1_555
O10 C17 1_555 1_555
O11 C17 1_555 1_555
C17 C18 1_555 1_555
C18 C19 1_555 1_555
C19 H11 1_555 1_555
C20 C19 1_555 1_555
H12 C20 1_555 1_555
C21 C20 1_555 1_555
C22 C21 1_555 1_555
H13 C22 1_555 1_555
C23 C18 1_555 1_555
H14 C23 1_555 1_555
C24 C8 1_555 1_555
H15 C24 1_555 1_555
O12 Er1 1_555 1_555
O13 C25 1_555 1_555
C25 O12 1_555 1_555
C26 C25 1_555 1_555
C27 C26 1_555 1_555
H16 C27 1_555 1_555
C28 C27 1_555 1_555
H17 C28 1_555 1_555
C29 C28 1_555 1_555
C30 C29 1_555 1_555
H18 C30 1_555 1_555
C31 C26 1_555 1_555
H19 C31 1_555 1_555
C32 C29 1_555 1_555
H20 C32 1_555 1_555
O14 Er2 1_555 1_555
O15 Er3 1_555 1_555
C33 O14 1_555 1_555
C34 C33 1_555 1_555
C35 C34 1_555 1_555
H21 C35 1_555 1_555
C36 C35 1_555 1_555
H22 C36 1_555 1_555
C37 C36 1_555 1_555
C38 C37 1_555 1_555
H23 C38 1_555 1_555
C39 C34 1_555 1_555
H24 C39 1_555 1_555
C40 C37 1_555 1_555
H25 C40 1_555 1_555
O16 C41 1_555 1_555
O17 C41 1_555 1_555
C41 C42 1_555 1_555
C42 C43 1_555 1_555
C43 H26 1_555 1_555
C44 C43 1_555 1_555
H27 C44 1_555 1_555
C45 C44 1_555 1_555
C46 C45 1_555 1_555
H28 C46 1_555 1_555
C47 C42 1_555 1_555
H29 C47 1_555 1_555
C48 C32 1_555 1_555
H30 C48 1_555 1_555
O18 C49 1_555 1_555
O19 C49 1_555 1_555
C49 C50 1_555 1_555
C50 C51 1_555 1_555
C51 H31 1_555 1_555
C52 C51 1_555 1_555
H32 C52 1_555 1_555
C53 C52 1_555 1_555
C54 C53 1_555 1_555
H33 C54 1_555 1_555
C55 C50 1_555 1_555
H34 C55 1_555 1_555
C56 C40 1_555 1_555
H35 C56 1_555 1_555
O20 C57 1_555 1_555
O21 C57 1_555 1_555
C57 C58 1_555 1_555
C58 C59 1_555 1_555
C59 H36 1_555 1_555
C60 C59 1_555 1_555
H37 C60 1_555 1_555
C61 C60 1_555 1_555
C62 C61 1_555 1_555
H38 C62 1_555 1_555
C63 C58 1_555 1_555
H39 C63 1_555 1_555
C64 C16 1_555 1_555
H40 C64 1_555 1_555
Er1B O10 1_555 1_555
Er1B_2 O21 1_555 1_555
Er1C O19 1_555 1_555
Er2C O16 1_555 1_555
Er3A O13 1_555 1_555
Er3B O18 1_555 1_555
Er3C O11 1_555 1_555
Er3C_2 O17 1_555 1_555
O10B Er1 1_555 1_555
O11C Er3 1_555 1_555
O13A Er3 1_555 1_555
O16C Er2 1_555 1_555
O17C Er3 1_555 1_555
O18B Er3 1_555 1_555
O19C Er1 1_555 1_555
O20C Er3 1_555 1_555
O21B Er1 1_555 1_555
O7 C1 1_555 1_555
C6 C7 1_555 1_555
O9 C9 1_555 1_555
C14 C15 1_555 1_555
C21 C24 1_555 1_555
C22 C23 1_555 1_555
C30 C31 1_555 1_555
O15 C33 1_555 1_555
C38 C39 1_555 1_555
C45 C48 1_555 1_555
C46 C47 1_555 1_555
C53 C56 1_555 1_555
C54 C55 1_555 1_555
O20 Er3C_2 1_555 1_555
C61 C64 1_555 1_555
C62 C63 1_555 1_555

#END
