
#######################################################################
#
#                 Cambridge Crystallographic Data Centre
#                                CCDC 
#
#######################################################################
#
# If this CIF has been generated from an entry in the Cambridge 
# Structural Database, then it will include bibliographic, chemical, 
# crystal, experimental, refinement or atomic coordinate data resulting 
# from the CCDC's data processing and validation procedures.
#
#######################################################################

data_ANEHEI
_chemical_formula_moiety         '(C70 H82 N30 O24 Zn8)n'
_symmetry_cell_setting           triclinic
_symmetry_space_group_name_H-M   'P -1'
_symmetry_Int_Tables_number      2
_space_group_name_Hall           '-P 1'
loop_
_symmetry_equiv_pos_site_id
_symmetry_equiv_pos_as_xyz
1 x,y,z
2 -x,-y,-z
_cell_length_a                   14.9215(10)
_cell_length_b                   15.3226(13)
_cell_length_c                   15.9840(13)
_cell_angle_alpha                72.669(7)
_cell_angle_beta                 63.676(7)
_cell_angle_gamma                63.788(7)
_cell_volume                     2914.96
loop_
_atom_site_label
_atom_site_type_symbol
_atom_site_fract_x
_atom_site_fract_y
_atom_site_fract_z
Zn1 Zn 1.69815(8) 0.10632(8) 0.15399(7)
Zn2 Zn 1.21081(8) -0.00400(7) 0.39022(7)
Zn3 Zn 1.31402(8) 0.09747(8) 0.48442(6)
Zn4 Zn 0.84251(8) 0.34088(7) 0.35260(7)
C1 C 1.2787(7) -0.0219(7) 0.6673(6)
H1 H 1.2954 0.0234 0.6799
C2 C 1.2478(7) -0.0825(7) 0.5779(8)
C3 C 1.2270(9) -0.1624(8) 0.6421(8)
C4 C 1.2311(9) -0.1670(7) 0.7271(7)
C5 C 1.2097(7) -0.1746(7) 0.5254(8)
C6 C 1.1472(9) 0.2945(8) 0.5075(8)
H2 H 1.1922 0.2981 0.5312
C7 C 1.1105(6) 0.2094(6) 0.4454(5)
C8 C 1.0194(7) 0.2904(7) 0.4382(6)
C9 C 0.9958(9) 0.3761(8) 0.4710(7)
C10 C 1.0286(6) 0.1721(6) 0.3865(7)
H3 H 1.0141 0.1357 0.3600
C11 C 1.3666(8) -0.0281(7) 0.2053(6)
H4 H 1.3200 -0.0529 0.2050
C12 C 1.4169(6) 0.0325(6) 0.2827(6)
C13 C 1.5016(7) 0.0400(7) 0.2044(6)
C14 C 1.5183(8) 0.0168(8) 0.1194(7)
C15 C 1.4957(7) 0.0982(7) 0.3132(6)
H5 H 1.5111 0.1278 0.3455
C16 C 1.0701(8) -0.1409(8) 0.3180(7)
H6 H 1.0194 -0.1514 0.3816
C17 C 1.0088(10) -0.0671(11) 0.2664(7)
H7 H 0.9764 -0.0065 0.2935
H8 H 0.9513 -0.0854 0.2732
C18 C 1.0750(12) -0.0481(9) 0.1585(9)
H9 H 1.0291 0.0041 0.1271
H10 H 1.1331 -0.0294 0.1497
C19 C 1.1198(8) -0.1449(9) 0.1182(7)
H11 H 1.0595 -0.1625 0.1289
C20 C 1.1873(11) -0.2231(8) 0.1699(7)
H12 H 1.2462 -0.2057 0.1611
H13 H 1.2172 -0.2843 0.1444
C21 C 1.1210(11) -0.2372(10) 0.2760(7)
H14 H 1.0652 -0.2592 0.2851
H15 H 1.1672 -0.2871 0.3083
C22 C 1.1519(10) -0.1136(11) 0.3286(8)
C23 C 1.1797(8) -0.1328(8) 0.0167(7)
C24 C 1.4742(8) 0.2023(7) 0.5755(7)
H16 H 1.5378 0.1419 0.5684
C25 C 1.4552(10) 0.2390(8) 0.6611(7)
H17 H 1.4311 0.1950 0.7163
H18 H 1.5225 0.2375 0.6573
C26 C 1.3743(10) 0.3406(7) 0.6729(7)
H19 H 1.3688 0.3617 0.7271
H20 H 1.3046 0.3415 0.6838
C27 C 1.4076(10) 0.4107(8) 0.5848(8)
H21 H 1.4784 0.4073 0.5756
C28 C 1.4190(9) 0.3770(7) 0.4997(7)
H22 H 1.4405 0.4216 0.4439
H23 H 1.3506 0.3775 0.5073
C29 C 1.5042(8) 0.2721(8) 0.4876(8)
H24 H 1.5093 0.2500 0.4343
H25 H 1.5737 0.2727 0.4753
C30 C 1.3826(7) 0.1724(7) 0.5847(7)
C31 C 1.3312(9) 0.5136(7) 0.6011(8)
C32 C 0.9562(13) 0.4858(13) 0.0978(8)
H26 H 0.9325 0.5550 0.1043
C33 C 0.8995(11) 0.4875(12) 0.0467(9)
H27 H 0.8233 0.5195 0.0795
H28 H 0.9123 0.4207 0.0430
C34 C 1.0663(12) 0.4573(15) 0.0553(10)
H29 H 1.0973 0.3872 0.0525
H30 H 1.0939 0.4708 0.0928
C35 C 0.9253(11) 0.4373(11) 0.1972(9)
N1 N 1.2603(6) -0.0941(5) 0.7330(5)
N2 N 1.2743(5) -0.0110(6) 0.5816(5)
N3 N 1.2009(6) -0.2217(5) 0.6129(6)
N4 N 1.2348(6) -0.0926(5) 0.5019(6)
N5 N 1.2020(7) -0.2428(6) 0.7950(6)
H31 H 1.2441 -0.2696 0.8268
H32 H 1.1367 -0.2176 0.8333
N6 N 1.0681(7) 0.3717(7) 0.5054(7)
N7 N 1.1769(6) 0.2077(6) 0.4809(5)
N8 N 0.9678(6) 0.2636(6) 0.4011(5)
N9 N 1.1138(6) 0.1355(5) 0.4131(5)
N10 N 0.9164(7) 0.4563(6) 0.4651(8)
H33 H 0.9077 0.5082 0.4827
H34 H 0.8721 0.4578 0.4435
N11 N 1.4478(7) -0.0213(8) 0.1235(5)
N12 N 1.3463(6) -0.0032(5) 0.2864(5)
N13 N 1.5560(6) 0.0815(6) 0.2254(4)
N14 N 1.4103(5) 0.0699(5) 0.3537(4)
N15 N 1.5909(7) 0.0292(8) 0.0376(5)
H35 H 1.5936 0.0139 -0.0112
H36 H 1.6361 0.0528 0.0325
O1 O 1.1477(6) -0.1383(6) -0.0408(5)
O2 O 1.2666(6) -0.1148(7) -0.0147(5)
O3 O 1.1244(6) -0.0408(6) 0.3548(6)
O4 O 1.2485(7) -0.1824(6) 0.3196(6)
O5 O 1.4012(5) 0.1418(5) 0.5115(4)
O6 O 1.3022(6) 0.1779(5) 0.6571(5)
O7 O 1.2676(5) 0.5582(4) 0.5547(4)
O8 O 1.3179(5) 0.5494(5) 0.6678(5)
O9 O 0.9138(6) 0.3512(6) 0.2119(5)
O10 O 0.9036(7) 0.4738(7) 0.2670(6)
O11 O 1.7763(6) -0.0520(5) 0.1499(5)
H37 H 1.7518 -0.0972 0.1940
H38 H 1.8374 -0.0835 0.1048
O12 O 1.6063(6) 0.2574(6) 0.1590(6)
C32A C 1.0438(13) 0.5142(13) -0.0978(8)
H26A H 1.0675 0.4450 -0.1043
C33A C 1.1005(11) 0.5125(12) -0.0467(9)
H27A H 1.1767 0.4805 -0.0795
H28A H 1.0877 0.5793 -0.0430
C34A C 0.9337(12) 0.5427(15) -0.0553(10)
H29A H 0.9027 0.6128 -0.0525
H30A H 0.9061 0.5292 -0.0928
C35A C 1.0747(11) 0.5627(11) -0.1972(9)
O9A O 1.0862(6) 0.6488(6) -0.2119(5)
O10A O 1.0964(7) 0.5262(7) -0.2670(6)
Zn1A Zn 0.30185(8) -0.10632(8) 0.84601(7)
Zn2A Zn 0.78919(8) 0.00400(7) 0.60978(7)
Zn3A Zn 0.68598(8) -0.09747(8) 0.51558(6)
Zn4A Zn 1.15749(8) -0.34088(7) 0.64740(7)
C1A C 0.7213(7) 0.0219(7) 0.3327(6)
H1A H 0.7046 -0.0234 0.3201
C2A C 0.7522(7) 0.0825(7) 0.4221(8)
C3A C 0.7730(9) 0.1624(8) 0.3579(8)
C4A C 0.7689(9) 0.1670(7) 0.2729(7)
C5A C 0.7903(7) 0.1746(7) 0.4746(8)
C6A C 0.8528(9) -0.2945(8) 0.4925(8)
H2A H 0.8078 -0.2981 0.4688
C7A C 0.8895(6) -0.2094(6) 0.5546(5)
C8A C 0.9806(7) -0.2904(7) 0.5618(6)
C9A C 1.0042(9) -0.3761(8) 0.5290(7)
C10A C 0.9714(6) -0.1721(6) 0.6135(7)
H3A H 0.9859 -0.1357 0.6400
C11A C 0.6334(8) 0.0281(7) 0.7947(6)
H4A H 0.6800 0.0529 0.7950
C12A C 0.5831(6) -0.0325(6) 0.7173(6)
C13A C 0.4984(7) -0.0400(7) 0.7956(6)
C14A C 0.4817(8) -0.0168(8) 0.8806(7)
C15A C 0.5043(7) -0.0982(7) 0.6868(6)
H5A H 0.4889 -0.1278 0.6545
C16A C 0.9299(8) 0.1409(8) 0.6820(7)
H6A H 0.9806 0.1514 0.6184
C17A C 0.9912(10) 0.0671(11) 0.7336(7)
H7A H 1.0236 0.0065 0.7065
H8A H 1.0487 0.0854 0.7268
C18A C 0.9250(12) 0.0481(9) 0.8415(9)
H9A H 0.9709 -0.0041 0.8729
H10A H 0.8669 0.0294 0.8503
C19A C 0.8802(8) 0.1449(9) 0.8818(7)
H11A H 0.9405 0.1625 0.8711
C20A C 0.8127(11) 0.2231(8) 0.8301(7)
H12A H 0.7538 0.2057 0.8389
H13A H 0.7828 0.2843 0.8556
C21A C 0.8790(11) 0.2372(10) 0.7240(7)
H14A H 0.9348 0.2592 0.7149
H15A H 0.8328 0.2871 0.6917
C22A C 0.8481(10) 0.1136(11) 0.6714(8)
C23A C 0.8203(8) 0.1328(8) 0.9833(7)
C24A C 0.5258(8) -0.2023(7) 0.4245(7)
H16A H 0.4622 -0.1419 0.4316
C25A C 0.5448(10) -0.2390(8) 0.3389(7)
H17A H 0.5689 -0.1950 0.2837
H18A H 0.4775 -0.2375 0.3427
C26A C 0.6257(10) -0.3406(7) 0.3271(7)
H19A H 0.6312 -0.3617 0.2729
H20A H 0.6954 -0.3415 0.3162
C27A C 0.5924(10) -0.4107(8) 0.4152(8)
H21A H 0.5216 -0.4073 0.4244
C28A C 0.5810(9) -0.3770(7) 0.5003(7)
H22A H 0.5595 -0.4216 0.5561
H23A H 0.6494 -0.3775 0.4927
C29A C 0.4958(8) -0.2721(8) 0.5124(8)
H24A H 0.4907 -0.2500 0.5657
H25A H 0.4263 -0.2727 0.5247
C30A C 0.6174(7) -0.1724(7) 0.4153(7)
C31A C 0.6688(9) -0.5136(7) 0.3989(8)
N1A N 0.7397(6) 0.0941(5) 0.2670(5)
N2A N 0.7257(5) 0.0110(6) 0.4184(5)
N3A N 0.7991(6) 0.2217(5) 0.3871(6)
N4A N 0.7652(6) 0.0926(5) 0.4981(6)
N5A N 0.7980(7) 0.2428(6) 0.2050(6)
H31A H 0.7559 0.2696 0.1732
H32A H 0.8633 0.2176 0.1667
N6A N 0.9319(7) -0.3717(7) 0.4946(7)
N7A N 0.8231(6) -0.2077(6) 0.5191(5)
N8A N 1.0322(6) -0.2636(6) 0.5989(5)
N9A N 0.8862(6) -0.1355(5) 0.5869(5)
N10A N 1.0836(7) -0.4563(6) 0.5349(8)
H33A H 1.0923 -0.5082 0.5173
H34A H 1.1279 -0.4578 0.5565
N11A N 0.5522(7) 0.0213(8) 0.8765(5)
N12A N 0.6537(6) 0.0032(5) 0.7136(5)
N13A N 0.4440(6) -0.0815(6) 0.7746(4)
N14A N 0.5897(5) -0.0699(5) 0.6463(4)
N15A N 0.4091(7) -0.0292(8) 0.9624(5)
H35A H 0.4064 -0.0139 1.0112
H36A H 0.3639 -0.0528 0.9675
O1A O 0.8523(6) 0.1383(6) 1.0408(5)
O2A O 0.7334(6) 0.1148(7) 1.0147(5)
O3A O 0.8756(6) 0.0408(6) 0.6452(6)
O4A O 0.7515(7) 0.1824(6) 0.6804(6)
O5A O 0.5988(5) -0.1418(5) 0.4885(4)
O6A O 0.6978(6) -0.1779(5) 0.3429(5)
O7A O 0.7324(5) -0.5582(4) 0.4453(4)
O8A O 0.6821(5) -0.5494(5) 0.3322(5)
O11A O 0.2237(6) 0.0520(5) 0.8501(5)
H37A H 0.2482 0.0972 0.8060
H38A H 0.1626 0.0835 0.8952
O12A O 0.3937(6) -0.2574(6) 0.8410(6)
Zn1_2 Zn 0.69815(8) 0.10632(8) 0.15399(7)
Zn1_3 Zn 0.69815(8) 0.10632(8) 1.15399(7)
Zn1A_2 Zn 1.30185(8) -0.10632(8) -0.15399(7)
Zn1A_3 Zn 1.30185(8) -0.10632(8) 0.84601(7)
Zn4_2 Zn 0.84251(8) -0.65912(7) 0.35260(7)
Zn4A_2 Zn 1.15749(8) 0.65912(7) -0.35260(7)
Zn4A_3 Zn 1.15749(8) 0.65912(7) 0.64740(7)
N1_2 N 0.2603(6) -0.0941(5) 0.7330(5)
N1A_2 N 1.7397(6) 0.0941(5) 0.2670(5)
O1_2 O 0.1477(6) -0.1383(6) 0.9592(5)
O1A_2 O 1.8523(6) 0.1383(6) 0.0408(5)
O2_2 O 0.2666(6) -0.1148(7) 0.9853(5)
O2A_2 O 1.7334(6) 0.1148(7) 0.0147(5)
O7_2 O 1.2676(5) -0.4418(4) 0.5547(4)
O7A_2 O 0.7324(5) 0.4418(4) 0.4453(4)
O8_2 O 1.3179(5) -0.4506(5) 0.6678(5)
O8A_2 O 0.6821(5) 0.4506(5) 0.3322(5)
O9A_2 O 1.0862(6) -0.3512(6) 0.7881(5)
O10A_2 O 1.0964(7) -0.4738(7) 0.7330(6)
loop_
_geom_bond_atom_site_label_1
_geom_bond_atom_site_label_2
_geom_bond_site_symmetry_1
_geom_bond_site_symmetry_2
Zn1 N13 1_555 1_555
Zn2 N4 1_555 1_555
Zn3 N2 1_555 1_555
Zn4 N8 1_555 1_555
C1 H1 1_555 1_555
C2 C3 1_555 1_555
C3 C4 1_555 1_555
C4 N1 1_555 1_555
C5 N3 1_555 1_555
C6 H2 1_555 1_555
C7 C8 1_555 1_555
C8 C9 1_555 1_555
C9 N6 1_555 1_555
C10 H3 1_555 1_555
C11 H4 1_555 1_555
C12 C13 1_555 1_555
C13 C14 1_555 1_555
C14 N11 1_555 1_555
C15 H5 1_555 1_555
C16 H6 1_555 1_555
C17 C16 1_555 1_555
H7 C17 1_555 1_555
H8 C17 1_555 1_555
C18 C17 1_555 1_555
H9 C18 1_555 1_555
H10 C18 1_555 1_555
C19 C18 1_555 1_555
H11 C19 1_555 1_555
C20 C19 1_555 1_555
H12 C20 1_555 1_555
H13 C20 1_555 1_555
C21 C16 1_555 1_555
H14 C21 1_555 1_555
H15 C21 1_555 1_555
C22 C16 1_555 1_555
C23 C19 1_555 1_555
C24 H16 1_555 1_555
C25 C24 1_555 1_555
H17 C25 1_555 1_555
H18 C25 1_555 1_555
C26 C25 1_555 1_555
H19 C26 1_555 1_555
H20 C26 1_555 1_555
C27 C26 1_555 1_555
H21 C27 1_555 1_555
C28 C27 1_555 1_555
H22 C28 1_555 1_555
H23 C28 1_555 1_555
C29 C24 1_555 1_555
H24 C29 1_555 1_555
H25 C29 1_555 1_555
C30 C24 1_555 1_555
C31 C27 1_555 1_555
C32 H26 1_555 1_555
C33 C32 1_555 1_555
H27 C33 1_555 1_555
H28 C33 1_555 1_555
C34 C32 1_555 1_555
H29 C34 1_555 1_555
H30 C34 1_555 1_555
C35 C32 1_555 1_555
N1 C1 1_555 1_555
N2 C1 1_555 1_555
N3 C3 1_555 1_555
N4 C2 1_555 1_555
N5 C4 1_555 1_555
H31 N5 1_555 1_555
H32 N5 1_555 1_555
N6 C6 1_555 1_555
N7 Zn3 1_555 1_555
N8 C8 1_555 1_555
N9 Zn2 1_555 1_555
N10 C9 1_555 1_555
H33 N10 1_555 1_555
H34 N10 1_555 1_555
N11 C11 1_555 1_555
N12 Zn2 1_555 1_555
N13 C13 1_555 1_555
N14 Zn3 1_555 1_555
N15 C14 1_555 1_555
H35 N15 1_555 1_555
H36 N15 1_555 1_555
O1 C23 1_555 1_555
O2 C23 1_555 1_555
O3 Zn2 1_555 1_555
O4 C22 1_555 1_555
O5 Zn3 1_555 1_555
O6 C30 1_555 1_555
O7 C31 1_555 1_555
O8 C31 1_555 1_555
O9 Zn4 1_555 1_555
O10 Zn4 1_555 1_555
O11 Zn1 1_555 1_555
H37 O11 1_555 1_555
H38 O11 1_555 1_555
O12 Zn1 1_555 1_555
C32A H26A 1_555 1_555
C33A C34 1_555 1_555
H27A C33A 1_555 1_555
H28A C33A 1_555 1_555
C34A C33 1_555 1_555
H29A C34A 1_555 1_555
H30A C34A 1_555 1_555
C35A C32A 1_555 1_555
O9A C35A 1_555 1_555
O10A C35A 1_555 1_555
Zn1A N13A 1_555 1_555
Zn2A N4A 1_555 1_555
Zn3A N2A 1_555 1_555
Zn4A N3 1_555 1_555
C1A H1A 1_555 1_555
C2A C3A 1_555 1_555
C3A C4A 1_555 1_555
C4A N1A 1_555 1_555
C5A N3A 1_555 1_555
C6A H2A 1_555 1_555
C7A C8A 1_555 1_555
C8A C9A 1_555 1_555
C9A N6A 1_555 1_555
C10A H3A 1_555 1_555
C11A H4A 1_555 1_555
C12A C13A 1_555 1_555
C13A C14A 1_555 1_555
C14A N11A 1_555 1_555
C15A H5A 1_555 1_555
C16A H6A 1_555 1_555
C17A C16A 1_555 1_555
H7A C17A 1_555 1_555
H8A C17A 1_555 1_555
C18A C17A 1_555 1_555
H9A C18A 1_555 1_555
H10A C18A 1_555 1_555
C19A C18A 1_555 1_555
H11A C19A 1_555 1_555
C20A C19A 1_555 1_555
H12A C20A 1_555 1_555
H13A C20A 1_555 1_555
C21A C16A 1_555 1_555
H14A C21A 1_555 1_555
H15A C21A 1_555 1_555
C22A C16A 1_555 1_555
C23A C19A 1_555 1_555
C24A H16A 1_555 1_555
C25A C24A 1_555 1_555
H17A C25A 1_555 1_555
H18A C25A 1_555 1_555
C26A C25A 1_555 1_555
H19A C26A 1_555 1_555
H20A C26A 1_555 1_555
C27A C26A 1_555 1_555
H21A C27A 1_555 1_555
C28A C27A 1_555 1_555
H22A C28A 1_555 1_555
H23A C28A 1_555 1_555
C29A C24A 1_555 1_555
H24A C29A 1_555 1_555
H25A C29A 1_555 1_555
C30A C24A 1_555 1_555
C31A C27A 1_555 1_555
N1A C1A 1_555 1_555
N2A C1A 1_555 1_555
N3A Zn4 1_555 1_555
N4A C2A 1_555 1_555
N5A C4A 1_555 1_555
H31A N5A 1_555 1_555
H32A N5A 1_555 1_555
N6A C6A 1_555 1_555
N7A Zn3A 1_555 1_555
N8A Zn4A 1_555 1_555
N9A Zn2A 1_555 1_555
N10A C9A 1_555 1_555
H33A N10A 1_555 1_555
H34A N10A 1_555 1_555
N11A C11A 1_555 1_555
N12A Zn2A 1_555 1_555
N13A C13A 1_555 1_555
N14A Zn3A 1_555 1_555
N15A C14A 1_555 1_555
H35A N15A 1_555 1_555
H36A N15A 1_555 1_555
O1A C23A 1_555 1_555
O2A C23A 1_555 1_555
O3A Zn2A 1_555 1_555
O4A C22A 1_555 1_555
O5A Zn3A 1_555 1_555
O6A C30A 1_555 1_555
O7A C31A 1_555 1_555
O8A C31A 1_555 1_555
O11A Zn1A 1_555 1_555
H37A O11A 1_555 1_555
H38A O11A 1_555 1_555
O12A Zn1A 1_555 1_555
Zn1_2 N1A 1_555 1_555
Zn1_3 O1A 1_555 1_555
Zn1A_2 O1 1_555 1_555
Zn1A_3 N1 1_555 1_555
Zn4_2 O7A 1_555 1_555
Zn4A_2 O9A 1_555 1_555
Zn4A_3 O7 1_555 1_555
N1_2 Zn1A 1_555 1_555
N1A_2 Zn1 1_555 1_555
O1_2 Zn1A 1_555 1_555
O1A_2 Zn1 1_555 1_555
O2_2 Zn1A 1_555 1_555
O2A_2 Zn1 1_555 1_555
O7_2 Zn4A 1_555 1_555
O7A_2 Zn4 1_555 1_555
O8_2 Zn4A 1_555 1_555
O8A_2 Zn4 1_555 1_555
O9A_2 Zn4A 1_555 1_555
O10A_2 Zn4A 1_555 1_555
C2 N2 1_555 1_555
C5 N4 1_555 1_555
C6 N7 1_555 1_555
C7 N7 1_555 1_555
C7 N9 1_555 1_555
C10 N8 1_555 1_555
C10 N9 1_555 1_555
C11 N12 1_555 1_555
C12 N12 1_555 1_555
C12 N14 1_555 1_555
C15 N13 1_555 1_555
C15 N14 1_555 1_555
C20 C21 1_555 1_555
C22 O3 1_555 1_555
C28 C29 1_555 1_555
C30 O5 1_555 1_555
C35 O9 1_555 1_555
C35 O10 1_555 1_555
O2 Zn1A_2 1_555 1_555
O8 Zn4A_3 1_555 1_555
C32A C33A 1_555 1_555
C32A C34A 1_555 1_555
O10A Zn4A_2 1_555 1_555
C2A N2A 1_555 1_555
C3A N3A 1_555 1_555
C5A N4A 1_555 1_555
C6A N7A 1_555 1_555
C7A N7A 1_555 1_555
C7A N9A 1_555 1_555
C8A N8A 1_555 1_555
C10A N8A 1_555 1_555
C10A N9A 1_555 1_555
C11A N12A 1_555 1_555
C12A N12A 1_555 1_555
C12A N14A 1_555 1_555
C15A N13A 1_555 1_555
C15A N14A 1_555 1_555
C20A C21A 1_555 1_555
C22A O3A 1_555 1_555
C28A C29A 1_555 1_555
C30A O5A 1_555 1_555
O2A Zn1_3 1_555 1_555
O8A Zn4_2 1_555 1_555

#END
