
#######################################################################
#
#                 Cambridge Crystallographic Data Centre
#                                CCDC 
#
#######################################################################
#
# If this CIF has been generated from an entry in the Cambridge 
# Structural Database, then it will include bibliographic, chemical, 
# crystal, experimental, refinement or atomic coordinate data resulting 
# from the CCDC's data processing and validation procedures.
#
#######################################################################

data_AGIREP
_chemical_formula_moiety         'C62 H36 N2 O62 Zn25'
_symmetry_cell_setting           orthorhombic
_symmetry_space_group_name_H-M   'I b a m'
_symmetry_Int_Tables_number      72
_space_group_name_Hall           '-I 2 2c'
loop_
_symmetry_equiv_pos_site_id
_symmetry_equiv_pos_as_xyz
1 x,y,z
2 -x,-y,z
3 1/2-x,1/2+y,-z
4 1/2+x,1/2-y,-z
5 1/2+x,1/2+y,1/2+z
6 1/2-x,1/2-y,1/2+z
7 -x,y,1/2-z
8 x,-y,1/2-z
9 -x,-y,-z
10 x,y,-z
11 1/2+x,1/2-y,z
12 1/2-x,1/2+y,z
13 1/2-x,1/2-y,1/2-z
14 1/2+x,1/2+y,1/2-z
15 x,-y,1/2+z
16 -x,y,1/2+z
_cell_length_a                   44.665(7)
_cell_length_b                   19.739(3)
_cell_length_c                   29.107(5)
_cell_angle_alpha                90
_cell_angle_beta                 90
_cell_angle_gamma                90
_cell_volume                     25662
loop_
_atom_site_label
_atom_site_type_symbol
_atom_site_fract_x
_atom_site_fract_y
_atom_site_fract_z
Zn1 Zn 0.092954(14) 0.29870(3) 0.5000
Zn2 Zn 0.10426(2) 0.13665(5) 0.5000
Zn3 Zn 0.115707(13) 0.75813(3) 0.43493(2)
Zn4 Zn 0.075815(15) 0.66093(3) 0.5000
Zn5 Zn 0.032900(16) 0.0000 0.7500
Zn6 Zn 0.232448(10) 0.57505(2) 0.253103(15)
O1 O 0.11035(9) 0.36583(17) 0.45303(14)
O2 O 0.14199(13) 0.3141(2) 0.4099(2)
O3 O 0.20118(8) 0.44660(17) 0.29740(12)
O4 O 0.20013(8) 0.55994(17) 0.30056(12)
O5 O 0.13302(9) 0.67334(16) 0.41247(15)
O6 O 0.10102(9) 0.60950(17) 0.45063(15)
O7 O -0.02401(9) 0.07475(19) 0.70199(13)
O8 O 0.02552(9) 0.06893(19) 0.70016(13)
O9 O 0.07663(16) 0.1720(4) 0.5662(3)
O10 O 0.06051(8) 0.2738(2) 0.54675(13)
O11 O -0.04910(8) 0.29400(18) 0.54937(13)
O12 O -0.07593(8) 0.2237(2) 0.59268(15)
O13 O 0.3447(2) 0.3084(5) 0.3617(3)
O14 O 0.36263(9) 0.34196(17) 0.42755(16)
O15 O 0.36915(9) 0.58712(18) 0.45013(16)
O16 O 0.34668(14) 0.6565(3) 0.4027(2)
O17 O 0.26407(8) 0.55963(16) 0.30446(12)
O18 O 0.26450(8) 0.44800(17) 0.29336(13)
O19 O 0.10423(14) 0.7481(3) 0.5000
O20 O 0.12199(9) 0.22384(18) 0.5000
O21 O 0.23136(8) 0.67317(16) 0.24278(14)
O22 O 0.07712(14) 0.0000 0.7500
O23 O 0.0696(2) 0.0846(5) 0.5000
O24 O 0.04659(12) 0.5773(2) 0.5000
C1 C 0.13989(11) 0.4322(2) 0.40499(16)
C2 C 0.16082(11) 0.4370(2) 0.36971(16)
H1 H 0.1692 0.3975 0.3580
C3 C 0.16941(11) 0.4986(2) 0.35168(16)
C4 C 0.15703(11) 0.5577(2) 0.36955(17)
H2 H 0.1630 0.5996 0.3581
C5 C 0.13586(11) 0.5547(2) 0.40433(17)
C6 C 0.12703(11) 0.4915(2) 0.42153(18)
H3 H 0.1124 0.4892 0.4442
C7 C 0.13094(12) 0.3664(2) 0.42598(18)
C8 C 0.19194(9) 0.5025(2) 0.31329(16)
C9 C 0.12194(11) 0.6179(2) 0.42530(18)
C10 C 0.00216(11) 0.1435(3) 0.64976(17)
C11 C 0.02949(12) 0.1631(3) 0.6307(2)
H4 H 0.0472 0.1447 0.6420
C12 C 0.03054(12) 0.2100(3) 0.5950(2)
C13 C 0.00397(12) 0.2389(3) 0.57935(19)
H5 H 0.0047 0.2712 0.5561
C14 C -0.02323(10) 0.2207(3) 0.59755(17)
C15 C -0.02420(11) 0.1724(3) 0.63260(18)
H6 H -0.0426 0.1593 0.6447
C16 C 0.00131(11) 0.0918(2) 0.68707(16)
C17 C 0.05972(13) 0.2278(3) 0.5727(2)
C18 C -0.05123(11) 0.2484(2) 0.57725(17)
C19 C 0.33091(12) 0.4194(2) 0.3897(2)
C20 C 0.34325(11) 0.4749(2) 0.41229(19)
H7 H 0.3580 0.4687 0.4344
C21 C 0.33320(11) 0.5399(2) 0.40145(17)
C22 C 0.31037(10) 0.5487(2) 0.36990(16)
H8 H 0.3037 0.5922 0.3630
C23 C 0.29727(11) 0.4932(2) 0.34839(17)
C24 C 0.30817(13) 0.4283(2) 0.3585(2)
H9 H 0.2999 0.3908 0.3440
C25 C 0.34440(19) 0.3504(3) 0.3973(3)
C26 C 0.34848(11) 0.5987(2) 0.42398(18)
C27 C 0.27337(10) 0.5020(2) 0.31305(17)
C28 C 0.21405(14) 0.7190(3) 0.2559(2)
C29 C 0.2102(2) 0.7257(5) 0.3075(3)
H10 H 0.2219 0.6917 0.3227
H11 H 0.1894 0.7199 0.3153
H12 H 0.2167 0.7698 0.3171
C30 C 0.2035(3) 0.7493(5) 0.1807(4)
H13 H 0.2150 0.7090 0.1754
H14 H 0.2137 0.7875 0.1676
H15 H 0.1841 0.7447 0.1668
C31 C 0.1835(2) 0.8214(5) 0.2446(3)
H16 H 0.1841 0.8255 0.2775
H17 H 0.1631 0.8182 0.2346
H18 H 0.1927 0.8604 0.2309
N1 N 0.19994(14) 0.7597(3) 0.2305(2)
Zn7 Zn 0.12685(2) 0.22542(5) 0.42951(3)
O7A O 0.02401(9) -0.07475(19) 0.70199(13)
O8A O -0.02552(9) -0.06893(19) 0.70016(13)
O9A O -0.07663(16) -0.1720(4) 0.5662(3)
O10A O -0.06051(8) -0.2738(2) 0.54675(13)
O11A O 0.04910(8) -0.29400(18) 0.54937(13)
O12A O 0.07593(8) -0.2237(2) 0.59268(15)
C10A C -0.00216(11) -0.1435(3) 0.64976(17)
C11A C -0.02949(12) -0.1631(3) 0.6307(2)
H4A H -0.0472 -0.1447 0.6420
C12A C -0.03054(12) -0.2100(3) 0.5950(2)
C13A C -0.00397(12) -0.2389(3) 0.57935(19)
H5A H -0.0047 -0.2712 0.5561
C14A C 0.02323(10) -0.2207(3) 0.59755(17)
C15A C 0.02420(11) -0.1724(3) 0.63260(18)
H6A H 0.0426 -0.1593 0.6447
C16A C -0.00131(11) -0.0918(2) 0.68707(16)
C17A C -0.05972(13) -0.2278(3) 0.5727(2)
C18A C 0.05123(11) -0.2484(2) 0.57725(17)
Zn3I Zn 0.115707(13) 0.75813(3) 0.56507(2)
Zn6I Zn 0.232448(10) 0.57505(2) 0.746897(15)
O1I O 0.11035(9) 0.36583(17) 0.54697(14)
O2I O 0.14199(13) 0.3141(2) 0.5901(2)
O3I O 0.20118(8) 0.44660(17) 0.70260(12)
O4I O 0.20013(8) 0.55994(17) 0.69944(12)
O5I O 0.13302(9) 0.67334(16) 0.58753(15)
O6I O 0.10102(9) 0.60950(17) 0.54937(15)
O13I O 0.3447(2) 0.3084(5) 0.6383(3)
O14I O 0.36263(9) 0.34196(17) 0.57245(16)
O15I O 0.36915(9) 0.58712(18) 0.54987(16)
O16I O 0.34668(14) 0.6565(3) 0.5973(2)
O17I O 0.26407(8) 0.55963(16) 0.69554(12)
O18I O 0.26450(8) 0.44800(17) 0.70664(13)
O21I O 0.23136(8) 0.67317(16) 0.75722(14)
C1I C 0.13989(11) 0.4322(2) 0.59501(16)
C2I C 0.16082(11) 0.4370(2) 0.63029(16)
H1I H 0.1692 0.3975 0.6420
C3I C 0.16941(11) 0.4986(2) 0.64832(16)
C4I C 0.15703(11) 0.5577(2) 0.63045(17)
H2I H 0.1630 0.5996 0.6419
C5I C 0.13586(11) 0.5547(2) 0.59567(17)
C6I C 0.12703(11) 0.4915(2) 0.57847(18)
H3I H 0.1124 0.4892 0.5558
C7I C 0.13094(12) 0.3664(2) 0.57402(18)
C8I C 0.19194(9) 0.5025(2) 0.68671(16)
C9I C 0.12194(11) 0.6179(2) 0.57470(18)
C19I C 0.33091(12) 0.4194(2) 0.6103(2)
C20I C 0.34325(11) 0.4749(2) 0.58771(19)
H7I H 0.3580 0.4687 0.5656
C21I C 0.33320(11) 0.5399(2) 0.59855(17)
C22I C 0.31037(10) 0.5487(2) 0.63010(16)
H8I H 0.3037 0.5922 0.6370
C23I C 0.29727(11) 0.4932(2) 0.65161(17)
C24I C 0.30817(13) 0.4283(2) 0.6415(2)
H9I H 0.2999 0.3908 0.6560
C25I C 0.34440(19) 0.3504(3) 0.6027(3)
C26I C 0.34848(11) 0.5987(2) 0.57602(18)
C27I C 0.27337(10) 0.5020(2) 0.68695(17)
C28I C 0.21405(14) 0.7190(3) 0.7441(2)
C29I C 0.2102(2) 0.7257(5) 0.6925(3)
H10I H 0.2219 0.6917 0.6773
H11I H 0.1894 0.7199 0.6847
H12I H 0.2167 0.7698 0.6829
C30I C 0.2035(3) 0.7493(5) 0.8193(4)
H13I H 0.2150 0.7090 0.8246
H14I H 0.2137 0.7875 0.8324
H15I H 0.1841 0.7447 0.8332
C31I C 0.1835(2) 0.8214(5) 0.7554(3)
H16I H 0.1841 0.8255 0.7225
H17I H 0.1631 0.8182 0.7654
H18I H 0.1927 0.8604 0.7691
N1I N 0.19994(14) 0.7597(3) 0.7695(2)
Zn7I Zn 0.12685(2) 0.22542(5) 0.57049(3)
Zn1A Zn -0.092954(14) -0.29870(3) 0.5000
Zn2A Zn -0.10426(2) -0.13665(5) 0.5000
Zn2B Zn 0.39574(2) 0.63665(5) 0.5000
Zn3B Zn 0.384293(13) 0.25813(3) 0.56507(2)
Zn3H Zn -0.115707(13) 0.24187(3) 0.56507(2)
Zn3I_2 Zn 0.115707(13) -0.24187(3) 0.56507(2)
Zn3K Zn 0.384293(13) 0.25813(3) 0.43493(2)
Zn4_2 Zn 0.075815(15) -0.33907(3) 0.5000
Zn4A Zn -0.075815(15) 0.33907(3) 0.5000
Zn5A Zn -0.032900(16) 0.0000 0.7500
Zn6G Zn 0.232448(10) 0.42495(2) 0.246897(15)
Zn6N Zn 0.232448(10) 0.42495(2) 0.753103(15)
O3G O 0.20118(8) 0.55340(17) 0.20260(12)
O3N O 0.20118(8) 0.55340(17) 0.79740(12)
O7F O 0.02401(9) 0.07475(19) 0.79801(13)
O8G O 0.02552(9) -0.06893(19) 0.79984(13)
O9I O 0.07663(16) 0.1720(4) 0.4338(3)
O10I O 0.06051(8) 0.2738(2) 0.45325(13)
O11A_2 O 0.04910(8) 0.70600(18) 0.54937(13)
O11H O 0.04910(8) 0.70600(18) 0.45063(13)
O12A_2 O 0.07593(8) 0.7763(2) 0.59268(15)
O12H O 0.07593(8) 0.7763(2) 0.40732(15)
O14B O 0.13737(9) 0.84196(17) 0.57245(16)
O14K O 0.13737(9) 0.84196(17) 0.42755(16)
O15B O 0.13085(9) 0.08712(18) 0.54987(16)
O15K O 0.13085(9) 0.08712(18) 0.45013(16)
O16B O 0.15332(14) 0.1565(3) 0.5973(2)
O16K O 0.15332(14) 0.1565(3) 0.4027(2)
O18G O 0.26450(8) 0.55200(17) 0.20664(13)
O18N O 0.26450(8) 0.55200(17) 0.79336(13)
Zn7B Zn 0.37315(2) 0.72542(5) 0.57049(3)
Zn7H Zn -0.12685(2) -0.22542(5) 0.57049(3)
Zn7K Zn 0.37315(2) 0.72542(5) 0.42951(3)
O25 O 0.1914(2) 0.2550(4) 0.5000
loop_
_geom_bond_atom_site_label_1
_geom_bond_atom_site_label_2
_geom_bond_site_symmetry_1
_geom_bond_site_symmetry_2
Zn1 O1 1_555 1_555
Zn2 O9 1_555 1_555
Zn3 O5 1_555 1_555
Zn4 O6 1_555 1_555
Zn5 O8 1_555 1_555
Zn6 O4 1_555 1_555
O1 C7 1_555 1_555
O2 C7 1_555 1_555
O3 C8 1_555 1_555
O4 C8 1_555 1_555
O5 C9 1_555 1_555
O6 C9 1_555 1_555
O7 C16 1_555 1_555
O8 C16 1_555 1_555
O9 C17 1_555 1_555
O10 Zn1 1_555 1_555
O11 C18 1_555 1_555
O12 C18 1_555 1_555
O13 C25 1_555 1_555
O14 C25 1_555 1_555
O15 C26 1_555 1_555
O16 C26 1_555 1_555
O17 Zn6 1_555 1_555
O18 C27 1_555 1_555
O19 Zn3 1_555 1_555
O20 Zn1 1_555 1_555
O21 Zn6 1_555 1_555
O22 Zn5 1_555 1_555
O23 Zn2 1_555 1_555
O24 Zn4 1_555 1_555
C1 C2 1_555 1_555
C2 H1 1_555 1_555
C3 C2 1_555 1_555
C4 C3 1_555 1_555
H2 C4 1_555 1_555
C5 C4 1_555 1_555
C6 C1 1_555 1_555
H3 C6 1_555 1_555
C7 C1 1_555 1_555
C8 C3 1_555 1_555
C9 C5 1_555 1_555
C10 C11 1_555 1_555
C11 H4 1_555 1_555
C12 C11 1_555 1_555
C13 C12 1_555 1_555
H5 C13 1_555 1_555
C14 C13 1_555 1_555
C15 C10 1_555 1_555
H6 C15 1_555 1_555
C16 C10 1_555 1_555
C17 O10 1_555 1_555
C18 C14 1_555 1_555
C19 C20 1_555 1_555
C20 H7 1_555 1_555
C21 C20 1_555 1_555
C22 C21 1_555 1_555
H8 C22 1_555 1_555
C23 C22 1_555 1_555
C24 C19 1_555 1_555
H9 C24 1_555 1_555
C25 C19 1_555 1_555
C26 C21 1_555 1_555
C27 O17 1_555 1_555
C28 O21 1_555 1_555
C29 C28 1_555 1_555
H10 C29 1_555 1_555
H11 C29 1_555 1_555
H12 C29 1_555 1_555
C30 H13 1_555 1_555
H14 C30 1_555 1_555
H15 C30 1_555 1_555
C31 H16 1_555 1_555
H17 C31 1_555 1_555
H18 C31 1_555 1_555
N1 C28 1_555 1_555
Zn7 O2 1_555 1_555
O7A Zn5 1_555 1_555
O8A C16A 1_555 1_555
O9A C17A 1_555 1_555
O10A C17A 1_555 1_555
O11A C18A 1_555 1_555
O12A C18A 1_555 1_555
C10A C11A 1_555 1_555
C11A H4A 1_555 1_555
C12A C11A 1_555 1_555
C13A C12A 1_555 1_555
H5A C13A 1_555 1_555
C14A C13A 1_555 1_555
C15A C10A 1_555 1_555
H6A C15A 1_555 1_555
C16A O7A 1_555 1_555
C17A C12A 1_555 1_555
C18A C14A 1_555 1_555
Zn3I O19 1_555 1_555
Zn6I O4I 1_555 1_555
O1I Zn1 1_555 1_555
O2I C7I 1_555 1_555
O3I C8I 1_555 1_555
O4I C8I 1_555 1_555
O5I Zn3I 1_555 1_555
O6I Zn4 1_555 1_555
O13I C25I 1_555 1_555
O14I C25I 1_555 1_555
O15I C26I 1_555 1_555
O16I C26I 1_555 1_555
O17I Zn6I 1_555 1_555
O18I C27I 1_555 1_555
O21I Zn6I 1_555 1_555
C1I C2I 1_555 1_555
C2I H1I 1_555 1_555
C3I C2I 1_555 1_555
C4I C3I 1_555 1_555
H2I C4I 1_555 1_555
C5I C4I 1_555 1_555
C6I C1I 1_555 1_555
H3I C6I 1_555 1_555
C7I O1I 1_555 1_555
C8I C3I 1_555 1_555
C9I O5I 1_555 1_555
C19I C20I 1_555 1_555
C20I H7I 1_555 1_555
C21I C20I 1_555 1_555
C22I C21I 1_555 1_555
H8I C22I 1_555 1_555
C23I C22I 1_555 1_555
C24I C19I 1_555 1_555
H9I C24I 1_555 1_555
C25I C19I 1_555 1_555
C26I C21I 1_555 1_555
C27I O17I 1_555 1_555
C28I O21I 1_555 1_555
C29I C28I 1_555 1_555
H10I C29I 1_555 1_555
H11I C29I 1_555 1_555
H12I C29I 1_555 1_555
C30I H13I 1_555 1_555
H14I C30I 1_555 1_555
H15I C30I 1_555 1_555
C31I H16I 1_555 1_555
H17I C31I 1_555 1_555
H18I C31I 1_555 1_555
N1I C28I 1_555 1_555
Zn7I O9 1_555 1_555
Zn1A O10A 1_555 1_555
Zn2A O9A 1_555 1_555
Zn2B O15 1_555 1_555
Zn3B O14I 1_555 1_555
Zn3H O12 1_555 1_555
Zn3I_2 O12A 1_555 1_555
Zn3K O14 1_555 1_555
Zn4_2 O11A 1_555 1_555
Zn4A O11 1_555 1_555
Zn5A O7 1_555 1_555
Zn6G O3 1_555 1_555
Zn6N O3I 1_555 1_555
O3G Zn6 1_555 1_555
O3N Zn6I 1_555 1_555
O7F Zn5 1_555 1_555
O8G Zn5 1_555 1_555
O9I Zn2 1_555 1_555
O10I Zn1 1_555 1_555
O11A_2 Zn4 1_555 1_555
O11H Zn4 1_555 1_555
O12A_2 Zn3I 1_555 1_555
O12H Zn3 1_555 1_555
O14B Zn3I 1_555 1_555
O14K Zn3 1_555 1_555
O15B Zn2 1_555 1_555
O15K Zn2 1_555 1_555
O16B Zn7I 1_555 1_555
O16K Zn7 1_555 1_555
O18G Zn6 1_555 1_555
O18N Zn6I 1_555 1_555
Zn7B O16I 1_555 1_555
Zn7H O9A 1_555 1_555
Zn7K O16 1_555 1_555
Zn2 O20 1_555 1_555
Zn4 O19 1_555 1_555
O18 Zn6G 1_555 1_555
O20 Zn7 1_555 1_555
O20 Zn7I 1_555 1_555
C5 C6 1_555 1_555
C12 C17 1_555 1_555
C14 C15 1_555 1_555
C23 C24 1_555 1_555
C23 C27 1_555 1_555
C30 N1 1_555 1_555
C31 N1 1_555 1_555
Zn7 O9I 1_555 1_555
O8A Zn5A 1_555 1_555
C10A C16A 1_555 1_555
C14A C15A 1_555 1_555
O2I Zn7I 1_555 1_555
O6I C9I 1_555 1_555
O15I Zn2B 1_555 1_555
O18I Zn6N 1_555 1_555
C1I C7I 1_555 1_555
C5I C6I 1_555 1_555
C5I C9I 1_555 1_555
C23I C24I 1_555 1_555
C23I C27I 1_555 1_555
C30I N1I 1_555 1_555
C31I N1I 1_555 1_555

#END
