
#######################################################################
#
#                 Cambridge Crystallographic Data Centre
#                                CCDC 
#
#######################################################################
#
# If this CIF has been generated from an entry in the Cambridge 
# Structural Database, then it will include bibliographic, chemical, 
# crystal, experimental, refinement or atomic coordinate data resulting 
# from the CCDC's data processing and validation procedures.
#
#######################################################################

data_SUSMIE
_chemical_formula_moiety         '(C40 H42 N10 Ni3 O16 P4)n'
_symmetry_cell_setting           triclinic
_symmetry_space_group_name_H-M   'P -1'
_symmetry_Int_Tables_number      2
_space_group_name_Hall           '-P 1'
loop_
_symmetry_equiv_pos_site_id
_symmetry_equiv_pos_as_xyz
1 x,y,z
2 -x,-y,-z
_cell_length_a                   8.944(7)
_cell_length_b                   10.776(9)
_cell_length_c                   13.789(11)
_cell_angle_alpha                68.768(9)
_cell_angle_beta                 78.142(9)
_cell_angle_gamma                79.991(9)
_cell_volume                     1205.13
loop_
_atom_site_label
_atom_site_type_symbol
_atom_site_fract_x
_atom_site_fract_y
_atom_site_fract_z
Ni1 Ni 0.5000 0.5000 1.0000
Ni2 Ni 0.31062(8) 0.90013(7) 0.14913(5)
N1 N -0.0923(6) 1.0200(5) -0.1956(4)
N2 N 0.1480(6) 0.9283(5) -0.1870(4)
N3 N 0.3609(6) 0.8147(5) 0.3022(4)
N4 N 0.4844(6) 0.5553(5) 0.8376(4)
O1 O 0.2666(4) 0.9721(4) -0.0111(3)
H1 H 0.2259 1.0488 -0.0454
O2 O 0.5892(5) 0.6767(4) -0.0318(3)
O3 O 0.5324(4) 0.8403(4) 0.0725(3)
O4 O 0.6131(5) 0.9231(4) -0.1276(3)
O5 O 0.0387(5) 0.7512(4) 0.0402(3)
H2 H 0.0247 0.7488 -0.0182
O6 O 0.2759(5) 0.5909(4) 0.0237(3)
O7 O 0.2342(5) 0.7231(4) 0.1548(3)
P1 P 0.53205(17) 0.81894(14) -0.03231(11)
P2 P 0.21761(17) 0.71696(15) 0.04987(11)
C1 C 0.3240(6) 0.8571(5) -0.0469(4)
C2 C 0.3061(7) 0.8955(6) -0.1629(4)
H3 H 0.3622 0.9721 -0.2036
H4 H 0.3548 0.8218 -0.1869
C3 C 0.0335(7) 1.0123(6) -0.1564(5)
H5 H 0.0420 1.0590 -0.1131
C4 C -0.0549(8) 0.9369(8) -0.2550(6)
H6 H -0.1210 0.9219 -0.2926
C5 C 0.0931(8) 0.8799(8) -0.2507(6)
H7 H 0.1460 0.8204 -0.2841
C6 C 0.3478(9) 0.6877(7) 0.3587(5)
H8 H 0.3244 0.6330 0.3263
C7 C 0.3670(10) 0.6305(8) 0.4646(6)
H9 H 0.3499 0.5418 0.5019
C8 C 0.4115(8) 0.7068(7) 0.5135(5)
C9 C 0.4230(10) 0.8412(8) 0.4545(6)
H10 H 0.4493 0.8973 0.4846
C10 C 0.3957(9) 0.8923(8) 0.3515(6)
H11 H 0.4013 0.9831 0.3146
C11 C 0.3718(8) 0.5156(7) 0.8079(5)
H12 H 0.3082 0.4561 0.8589
C12 C 0.3473(9) 0.5606(7) 0.7034(5)
H13 H 0.2687 0.5305 0.6857
C13 C 0.4402(8) 0.6506(7) 0.6254(5)
C14 C 0.5575(9) 0.6889(7) 0.6567(5)
H14 H 0.6225 0.7485 0.6072
C15 C 0.5784(8) 0.6386(7) 0.7616(5)
H15 H 0.6601 0.6632 0.7803
Ni2A Ni -0.31062(8) 1.09987(7) -0.14913(5)
N1A N 0.0923(6) 0.9800(5) 0.1956(4)
N2A N -0.1480(6) 1.0717(5) 0.1870(4)
N3A N -0.3609(6) 1.1853(5) -0.3022(4)
N4A N -0.4844(6) 1.4447(5) -0.8376(4)
O1A O -0.2666(4) 1.0279(4) 0.0111(3)
H1A H -0.2259 0.9512 0.0454
O2A O -0.5892(5) 1.3233(4) 0.0318(3)
O3A O -0.5324(4) 1.1597(4) -0.0725(3)
O4A O -0.6131(5) 1.0769(4) 0.1276(3)
O5A O -0.0387(5) 1.2488(4) -0.0402(3)
H2A H -0.0247 1.2512 0.0182
O6A O -0.2759(5) 1.4091(4) -0.0237(3)
O7A O -0.2342(5) 1.2769(4) -0.1548(3)
P1A P -0.53205(17) 1.18106(14) 0.03231(11)
P2A P -0.21761(17) 1.28304(15) -0.04987(11)
C1A C -0.3240(6) 1.1429(5) 0.0469(4)
C2A C -0.3061(7) 1.1045(6) 0.1629(4)
H3A H -0.3622 1.0279 0.2036
H4A H -0.3548 1.1782 0.1869
C3A C -0.0335(7) 0.9877(6) 0.1564(5)
H5A H -0.0420 0.9410 0.1131
C4A C 0.0549(8) 1.0631(8) 0.2550(6)
H6A H 0.1210 1.0781 0.2926
C5A C -0.0931(8) 1.1201(8) 0.2507(6)
H7A H -0.1460 1.1796 0.2841
C6A C -0.3478(9) 1.3123(7) -0.3587(5)
H8A H -0.3244 1.3670 -0.3263
C7A C -0.3670(10) 1.3695(8) -0.4646(6)
H9A H -0.3499 1.4582 -0.5019
C8A C -0.4115(8) 1.2932(7) -0.5135(5)
C9A C -0.4230(10) 1.1588(8) -0.4545(6)
H10A H -0.4493 1.1027 -0.4846
C10A C -0.3957(9) 1.1077(8) -0.3515(6)
H11A H -0.4013 1.0169 -0.3146
C11A C -0.3718(8) 1.4844(7) -0.8079(5)
H12A H -0.3082 1.5439 -0.8589
C12A C -0.3473(9) 1.4394(7) -0.7034(5)
H13A H -0.2687 1.4695 -0.6857
C13A C -0.4402(8) 1.3494(7) -0.6254(5)
C14A C -0.5575(9) 1.3111(7) -0.6567(5)
H14A H -0.6225 1.2515 -0.6072
C15A C -0.5784(8) 1.3614(7) -0.7616(5)
H15A H -0.6601 1.3368 -0.7803
Ni1_2 Ni -0.5000 1.5000 -1.0000
Ni1_3 Ni -0.5000 1.5000 0.0000
Ni1_4 Ni 0.5000 0.5000 0.0000
Ni2_2 Ni -0.68938(8) 0.90013(7) 0.14913(5)
Ni2A_2 Ni 0.68938(8) 1.09987(7) -0.14913(5)
N4A_2 N 0.5156(6) 0.4447(5) 1.1624(4)
O2_2 O 0.5892(5) 0.6767(4) 0.9682(3)
O2A_2 O 0.4108(5) 0.3233(4) 1.0318(3)
O4_2 O -0.3869(5) 0.9231(4) -0.1276(3)
O4A_2 O 0.3869(5) 1.0769(4) 0.1276(3)
O6_2 O 0.2759(5) 0.5909(4) 1.0237(3)
O6A_2 O 0.7241(5) 0.4091(4) 0.9763(3)
O8 O 0.7592(11) 0.7369(9) 0.2191(7)
H16 H 0.8501 0.7275 0.1870
H17 H 0.7105 0.8046 0.1792
O9 O -0.0821(7) 0.6338(6) -0.0587(5)
H18 H -0.1798 0.6467 -0.0502
H19 H -0.0270 0.5701 -0.0760
N5 N 0.0703(12) 0.2232(9) 0.4078(10)
C16 C 0.0475(11) 0.3526(12) 0.3373(7)
H20 H 0.0485 0.3665 0.2665
C17 C 0.0233(12) 0.4612(8) 0.3724(7)
H21 H 0.0080 0.5478 0.3252
C18 C 0.0219(12) 0.4405(9) 0.4781(8)
C19 C 0.0446(13) 0.3111(11) 0.5487(6)
H22 H 0.0437 0.2972 0.6194
C20 C 0.0689(13) 0.2024(8) 0.5135(9)
H23 H 0.0841 0.1159 0.5607
N5A N -0.0703(12) 0.7768(9) 0.5922(10)
C16A C -0.0475(11) 0.6474(12) 0.6627(7)
H20A H -0.0485 0.6335 0.7335
C17A C -0.0233(12) 0.5388(8) 0.6276(7)
H21A H -0.0080 0.4522 0.6748
C18A C -0.0219(12) 0.5595(9) 0.5219(8)
C19A C -0.0446(13) 0.6889(11) 0.4513(6)
H22A H -0.0437 0.7028 0.3806
C20A C -0.0689(13) 0.7976(8) 0.4865(9)
H23A H -0.0841 0.8841 0.4393
loop_
_geom_bond_atom_site_label_1
_geom_bond_atom_site_label_2
_geom_bond_site_symmetry_1
_geom_bond_site_symmetry_2
Ni1 N4 1_555 1_555
Ni2 N3 1_555 1_555
N1 C3 1_555 1_555
N2 C2 1_555 1_555
N3 C6 1_555 1_555
N4 C11 1_555 1_555
O1 Ni2 1_555 1_555
H1 O1 1_555 1_555
O2 P1 1_555 1_555
O3 Ni2 1_555 1_555
O4 P1 1_555 1_555
O5 H2 1_555 1_555
O6 P2 1_555 1_555
O7 Ni2 1_555 1_555
P1 O3 1_555 1_555
P2 O5 1_555 1_555
C1 O1 1_555 1_555
C2 C1 1_555 1_555
H3 C2 1_555 1_555
H4 C2 1_555 1_555
C3 N2 1_555 1_555
H5 C3 1_555 1_555
C4 N1 1_555 1_555
H6 C4 1_555 1_555
C5 N2 1_555 1_555
H7 C5 1_555 1_555
C6 H8 1_555 1_555
C7 C6 1_555 1_555
H9 C7 1_555 1_555
C8 C7 1_555 1_555
C9 C8 1_555 1_555
H10 C9 1_555 1_555
C10 N3 1_555 1_555
H11 C10 1_555 1_555
C11 H12 1_555 1_555
C12 C11 1_555 1_555
H13 C12 1_555 1_555
C13 C8 1_555 1_555
C14 C13 1_555 1_555
H14 C14 1_555 1_555
C15 N4 1_555 1_555
H15 C15 1_555 1_555
O8 H16 1_555 1_555
H17 O8 1_555 1_555
O9 H18 1_555 1_555
H19 O9 1_555 1_555
N5 C16 1_555 1_555
C16 H20 1_555 1_555
C17 C16 1_555 1_555
H21 C17 1_555 1_555
C18 C17 1_555 1_555
C19 C18 1_555 1_555
H22 C19 1_555 1_555
C20 N5 1_555 1_555
H23 C20 1_555 1_555
Ni2A N1 1_555 1_555
N1A Ni2 1_555 1_555
N2A C2A 1_555 1_555
N3A Ni2A 1_555 1_555
N4A C11A 1_555 1_555
O1A Ni2A 1_555 1_555
H1A O1A 1_555 1_555
O2A P1A 1_555 1_555
O3A Ni2A 1_555 1_555
O4A P1A 1_555 1_555
O5A H2A 1_555 1_555
O6A P2A 1_555 1_555
O7A Ni2A 1_555 1_555
P1A O3A 1_555 1_555
P2A O5A 1_555 1_555
C1A O1A 1_555 1_555
C2A C1A 1_555 1_555
H3A C2A 1_555 1_555
H4A C2A 1_555 1_555
C3A N1A 1_555 1_555
H5A C3A 1_555 1_555
C4A N1A 1_555 1_555
H6A C4A 1_555 1_555
C5A N2A 1_555 1_555
H7A C5A 1_555 1_555
C6A N3A 1_555 1_555
H8A C6A 1_555 1_555
C7A C6A 1_555 1_555
H9A C7A 1_555 1_555
C8A C7A 1_555 1_555
C9A C8A 1_555 1_555
H10A C9A 1_555 1_555
C10A N3A 1_555 1_555
H11A C10A 1_555 1_555
C11A H12A 1_555 1_555
C12A C11A 1_555 1_555
H13A C12A 1_555 1_555
C13A C8A 1_555 1_555
C14A C13A 1_555 1_555
H14A C14A 1_555 1_555
C15A N4A 1_555 1_555
H15A C15A 1_555 1_555
Ni1_2 N4A 1_555 1_555
Ni1_3 O2A 1_555 1_555
Ni1_4 O2 1_555 1_555
Ni2_2 O4A 1_555 1_555
Ni2A_2 O4 1_555 1_555
N4A_2 Ni1 1_555 1_555
O2_2 Ni1 1_555 1_555
O2A_2 Ni1 1_555 1_555
O4_2 Ni2A 1_555 1_555
O4A_2 Ni2 1_555 1_555
O6_2 Ni1 1_555 1_555
O6A_2 Ni1 1_555 1_555
N5A C16A 1_555 1_555
C16A H20A 1_555 1_555
C17A C16A 1_555 1_555
H21A C17A 1_555 1_555
C18A C18 1_555 1_555
C19A C18A 1_555 1_555
H22A C19A 1_555 1_555
C20A N5A 1_555 1_555
H23A C20A 1_555 1_555
O6 Ni1_4 1_555 1_555
O7 P2 1_555 1_555
P1 C1 1_555 1_555
P2 C1 1_555 1_555
C4 C5 1_555 1_555
C9 C10 1_555 1_555
C12 C13 1_555 1_555
C14 C15 1_555 1_555
C19 C20 1_555 1_555
N2A C3A 1_555 1_555
O6A Ni1_3 1_555 1_555
O7A P2A 1_555 1_555
P1A C1A 1_555 1_555
P2A C1A 1_555 1_555
C4A C5A 1_555 1_555
C9A C10A 1_555 1_555
C12A C13A 1_555 1_555
C14A C15A 1_555 1_555
C17A C18A 1_555 1_555
C19A C20A 1_555 1_555

#END
