
#######################################################################
#
#                 Cambridge Crystallographic Data Centre
#                                CCDC 
#
#######################################################################
#
# If this CIF has been generated from an entry in the Cambridge 
# Structural Database, then it will include bibliographic, chemical, 
# crystal, experimental, refinement or atomic coordinate data resulting 
# from the CCDC's data processing and validation procedures.
#
#######################################################################

data_KASRAZ
_chemical_formula_moiety         '(C49 H61 Cd2 N3 O13)n'
_symmetry_cell_setting           monoclinic
_symmetry_space_group_name_H-M   'P 21/c'
_symmetry_Int_Tables_number      14
_space_group_name_Hall           '-P 2ybc'
loop_
_symmetry_equiv_pos_site_id
_symmetry_equiv_pos_as_xyz
1 x,y,z
2 -x,1/2+y,1/2-z
3 -x,-y,-z
4 x,1/2-y,1/2+z
_cell_length_a                   11.4137(16)
_cell_length_b                   16.592(2)
_cell_length_c                   26.041(3)
_cell_angle_alpha                90
_cell_angle_beta                 95.290(3)
_cell_angle_gamma                90
_cell_volume                     4910.54
loop_
_atom_site_label
_atom_site_type_symbol
_atom_site_fract_x
_atom_site_fract_y
_atom_site_fract_z
C1 C 0.6125(5) 0.8103(4) 0.2876(2)
C2 C 0.7251(5) 0.7879(4) 0.2855(2)
C3 C 0.7883(5) 0.7945(4) 0.2381(2)
C4 C 0.7914(5) 0.8661(4) 0.2106(2)
H1 H 0.7496 0.9117 0.2214
C5 C 0.8541(5) 0.8721(4) 0.1679(2)
H2 H 0.8568 0.9219 0.1501
C6 C 0.9132(5) 0.8058(4) 0.1509(2)
C7 C 0.9101(7) 0.7341(4) 0.1781(3)
H3 H 0.9516 0.6884 0.1674
C8 C 0.8470(7) 0.7289(4) 0.2209(3)
H4 H 0.8443 0.6791 0.2388
C9 C 0.5550(5) 0.8120(4) 0.3367(2)
C10 C 0.6072(6) 0.8501(4) 0.3800(2)
H5 H 0.6820 0.8749 0.3787
C11 C 0.5525(6) 0.8529(5) 0.4253(2)
H6 H 0.5897 0.8797 0.4547
C12 C 0.4436(5) 0.8167(4) 0.4280(2)
C13 C 0.3910(6) 0.7785(4) 0.3843(2)
H7 H 0.3170 0.7527 0.3855
C14 C 0.4456(6) 0.7778(4) 0.3394(2)
H8 H 0.4070 0.7532 0.3095
C15 C 0.5333(5) 0.8326(4) 0.2409(2)
C16 C 0.5132(6) 0.7794(4) 0.2005(2)
H9 H 0.5551 0.7299 0.2012
C17 C 0.4324(6) 0.7970(4) 0.1586(2)
H10 H 0.4191 0.7593 0.1312
C18 C 0.3719(5) 0.8684(4) 0.1566(2)
C19 C 0.3939(6) 0.9236(4) 0.1972(2)
H11 H 0.3543 0.9740 0.1962
C20 C 0.4737(6) 0.9041(4) 0.2386(2)
H12 H 0.4873 0.9414 0.2662
C21 C 0.7960(5) 0.7505(4) 0.3304(2)
C22 C 0.9063(5) 0.7808(4) 0.3479(2)
H13 H 0.9360 0.8270 0.3319
C23 C 0.9725(5) 0.7443(4) 0.3883(2)
H14 H 1.0468 0.7662 0.4005
C24 C 0.9317(5) 0.6759(4) 0.4113(2)
C25 C 0.8217(5) 0.6453(4) 0.3938(2)
H15 H 0.7928 0.5987 0.4096
C26 C 0.7538(5) 0.6823(4) 0.3534(2)
H16 H 0.6788 0.6610 0.3417
C27 C 1.0037(5) 0.6345(4) 0.4539(2)
C28 C 0.2839(5) 0.8887(4) 0.1130(2)
C29 C 0.9838(5) 0.8133(4) 0.1053(2)
C30 C 0.3814(6) 0.8204(4) 0.4764(2)
C31 C 0.2522(13) 0.5619(9) 0.0971(7)
C32 C -0.0596(11) 0.6105(8) 0.0180(5)
H17 H -0.0528 0.6092 0.0562
H18 H -0.0796 0.5554 0.0055
C33 C -0.1540(12) 0.6645(10) 0.0002(5)
H19 H -0.1265 0.7203 0.0037
H20 H -0.2206 0.6566 0.0208
H21 H -0.1789 0.6532 -0.0361
C34 C 0.2803(9) 0.9930(10) -0.0362(4)
H22 H 0.2346 0.9540 -0.0559
C35 C 0.4187(15) 1.0949(9) -0.0411(5)
H23 H 0.5022 1.0926 -0.0485
H24 H 0.4183 1.0881 -0.0033
C36 C 0.3799(15) 1.1767(10) -0.0523(7)
H25 H 0.3637 1.1834 -0.0896
H26 H 0.4416 1.2145 -0.0393
H27 H 0.3081 1.1875 -0.0355
C37 C 0.3938(9) 0.9971(9) -0.1145(4)
H28 H 0.3242 0.9684 -0.1309
H29 H 0.4104 1.0432 -0.1368
C38 C 0.4876(12) 0.9464(8) -0.1107(6)
H30 H 0.5482 0.9672 -0.0850
H31 H 0.5197 0.9426 -0.1442
H32 H 0.4625 0.8929 -0.1002
Cd1 Cd 0.11409(4) 0.94113(3) 0.039220(15)
Cd2 Cd 0.16817(4) 0.73388(3) 0.036935(16)
N1 N 0.3667(7) 1.0280(8) -0.0628(3)
O1 O 0.2721(4) 0.8421(3) 0.07458(15)
O2 O 0.2242(4) 0.9519(3) 0.11599(18)
O3 O 0.9784(4) 0.8781(3) 0.08122(16)
O4 O 1.0446(4) 0.7515(3) 0.09542(17)
O5 O 0.2893(4) 0.7808(3) 0.47662(17)
O6 O 0.4260(5) 0.8628(5) 0.5125(2)
C39 C 0.170(2) 0.5461(13) 0.1292(11)
O7 O 0.9802(4) 0.5635(3) 0.46502(16)
O8 O 1.0882(4) 0.6705(3) 0.47771(15)
O9 O 0.2861(4) 0.6416(3) 0.08522(17)
O10 O 0.0514(5) 0.6328(4) 0.0012(2)
O11 O 0.2556(5) 1.0003(4) -0.0001(2)
Cd1_2 Cd 1.11409(4) 0.94113(3) 0.039220(15)
Cd1A Cd 0.88591(4) 0.44113(3) 0.460780(15)
Cd1C Cd 1.11409(4) 0.55887(3) 0.539220(15)
Cd2_2 Cd 1.16817(4) 0.73388(3) 0.036935(16)
Cd2C Cd 0.16817(4) 0.76612(3) 0.536935(16)
Cd2C_2 Cd 1.16817(4) 0.76612(3) 0.536935(16)
O3_2 O -0.0216(4) 0.8781(3) 0.08122(16)
O4_2 O 0.0446(4) 0.7515(3) 0.09542(17)
O5C O 0.2893(4) 0.7192(3) -0.02338(17)
O7A O 0.0198(4) 1.0635(3) 0.03498(16)
O7C O -0.0198(4) 0.9365(3) -0.03498(16)
O8C O 0.0882(4) 0.8295(3) -0.02229(15)
N2 N 0.2291(19) 0.8480(12) 0.7519(8)
C40 C 0.176(3) 0.8616(18) 0.7975(12)
C41 C 0.185(2) 0.7873(14) 0.7097(9)
C42 C 0.158(2) 0.7030(14) 0.7366(10)
C43 C 0.339(2) 0.877(2) 0.7260(12)
C44 C 0.414(3) 0.929(2) 0.7695(15)
O12 O 0.081(2) 0.9160(13) 0.7944(12)
N3 N 0.2280(11) 0.5264(7) 0.8652(6)
C45 C 0.1840(12) 0.5494(7) 0.9103(7)
C46 C 0.3512(19) 0.487(2) 0.8865(12)
C47 C 0.376(2) 0.4699(19) 0.9495(12)
C48 C 0.1437(19) 0.5231(14) 0.8125(9)
C49 C 0.1518(17) 0.6106(15) 0.7848(9)
O13 O 0.0863(7) 0.5788(4) 0.9094(3)
loop_
_geom_bond_atom_site_label_1
_geom_bond_atom_site_label_2
_geom_bond_site_symmetry_1
_geom_bond_site_symmetry_2
C1 C2 1_555 1_555
C2 C3 1_555 1_555
C3 C4 1_555 1_555
C4 H1 1_555 1_555
C5 C4 1_555 1_555
H2 C5 1_555 1_555
C6 C5 1_555 1_555
C7 C6 1_555 1_555
H3 C7 1_555 1_555
C8 C3 1_555 1_555
H4 C8 1_555 1_555
C9 C1 1_555 1_555
C10 C9 1_555 1_555
H5 C10 1_555 1_555
C11 C10 1_555 1_555
H6 C11 1_555 1_555
C12 C11 1_555 1_555
C13 C12 1_555 1_555
H7 C13 1_555 1_555
C14 C9 1_555 1_555
H8 C14 1_555 1_555
C15 C1 1_555 1_555
C16 C15 1_555 1_555
H9 C16 1_555 1_555
C17 C16 1_555 1_555
H10 C17 1_555 1_555
C18 C17 1_555 1_555
C19 C18 1_555 1_555
H11 C19 1_555 1_555
C20 C15 1_555 1_555
H12 C20 1_555 1_555
C21 C2 1_555 1_555
C22 C21 1_555 1_555
H13 C22 1_555 1_555
C23 C22 1_555 1_555
H14 C23 1_555 1_555
C24 C23 1_555 1_555
C25 C24 1_555 1_555
H15 C25 1_555 1_555
C26 C21 1_555 1_555
H16 C26 1_555 1_555
C27 C24 1_555 1_555
C28 C18 1_555 1_555
C29 C6 1_555 1_555
C30 C12 1_555 1_555
C31 C39 1_555 1_555
C32 H17 1_555 1_555
H18 C32 1_555 1_555
C33 C32 1_555 1_555
H19 C33 1_555 1_555
H20 C33 1_555 1_555
H21 C33 1_555 1_555
C34 H22 1_555 1_555
C35 H23 1_555 1_555
H24 C35 1_555 1_555
C36 C35 1_555 1_555
H25 C36 1_555 1_555
H26 C36 1_555 1_555
H27 C36 1_555 1_555
C37 H28 1_555 1_555
H29 C37 1_555 1_555
C38 C37 1_555 1_555
H30 C38 1_555 1_555
H31 C38 1_555 1_555
H32 C38 1_555 1_555
Cd1 O1 1_555 1_555
Cd2 O1 1_555 1_555
N1 C34 1_555 1_555
O1 C28 1_555 1_555
O2 C28 1_555 1_555
O3 C29 1_555 1_555
O4 C29 1_555 1_555
O5 C30 1_555 1_555
O6 C30 1_555 1_555
O7 C27 1_555 1_555
O8 C27 1_555 1_555
O9 C31 1_555 1_555
O10 C32 1_555 1_555
O11 C34 1_555 1_555
N2 C40 1_555 1_555
C40 O12 1_555 1_555
C41 N2 1_555 1_555
C42 C41 1_555 1_555
C43 N2 1_555 1_555
C44 C43 1_555 1_555
N3 C45 1_555 1_555
C45 O13 1_555 1_555
C46 N3 1_555 1_555
C47 C46 1_555 1_555
C48 N3 1_555 1_555
C49 C48 1_555 1_555
Cd1_2 O3 1_555 1_555
Cd1A O7 1_555 1_555
Cd1C O7 1_555 1_555
Cd2_2 O4 1_555 1_555
Cd2C O5 1_555 1_555
Cd2C_2 O8 1_555 1_555
O3_2 Cd1 1_555 1_555
O4_2 Cd2 1_555 1_555
O5C Cd2 1_555 1_555
O7A Cd1 1_555 1_555
O7C Cd1 1_555 1_555
O8C Cd1 1_555 1_555
C7 C8 1_555 1_555
C13 C14 1_555 1_555
C19 C20 1_555 1_555
C25 C26 1_555 1_555
C35 N1 1_555 1_555
C37 N1 1_555 1_555
Cd1 O2 1_555 1_555
Cd1 O11 1_555 1_555
Cd2 O9 1_555 1_555
Cd2 O10 1_555 1_555
Cd2 O8C 1_555 1_555
O8 Cd1C 1_555 1_555

#END
