
#######################################################################
#
#                 Cambridge Crystallographic Data Centre
#                                CCDC 
#
#######################################################################
#
# If this CIF has been generated from an entry in the Cambridge 
# Structural Database, then it will include bibliographic, chemical, 
# crystal, experimental, refinement or atomic coordinate data resulting 
# from the CCDC's data processing and validation procedures.
#
#######################################################################

data_KASRED
_chemical_formula_moiety         '(C47 H57 Cd2 N3 O13)n'
_symmetry_cell_setting           monoclinic
_symmetry_space_group_name_H-M   'P 21/c'
_symmetry_Int_Tables_number      14
_space_group_name_Hall           '-P 2ybc'
loop_
_symmetry_equiv_pos_site_id
_symmetry_equiv_pos_as_xyz
1 x,y,z
2 -x,1/2+y,1/2-z
3 -x,-y,-z
4 x,1/2-y,1/2+z
_cell_length_a                   11.4917(18)
_cell_length_b                   18.524(3)
_cell_length_c                   25.727(4)
_cell_angle_alpha                90
_cell_angle_beta                 96.280(3)
_cell_angle_gamma                90
_cell_volume                     5443.7
loop_
_atom_site_label
_atom_site_type_symbol
_atom_site_fract_x
_atom_site_fract_y
_atom_site_fract_z
C1 C 0.4634(4) 0.7113(2) 0.19187(16)
C2 C 0.5755(4) 0.7313(3) 0.18992(16)
C3 C 0.6468(4) 0.7668(3) 0.23472(16)
C4 C 0.6110(5) 0.8307(3) 0.2550(3)
H1 H 0.5396 0.8522 0.2405
C5 C 0.6773(6) 0.8639(3) 0.2959(3)
H2 H 0.6512 0.9082 0.3092
C6 C 0.7808(4) 0.8339(2) 0.31772(16)
C7 C 0.8182(4) 0.7707(3) 0.29734(19)
H3 H 0.8893 0.7491 0.3121
C8 C 0.7530(4) 0.7382(3) 0.2556(2)
H4 H 0.7815 0.6955 0.2409
C9 C 0.4051(4) 0.7132(3) 0.24092(16)
C10 C 0.4541(4) 0.6778(3) 0.28546(19)
H5 H 0.5274 0.6541 0.2856
C11 C 0.3954(4) 0.6769(4) 0.3301(2)
H6 H 0.4298 0.6525 0.3605
C12 C 0.2886(4) 0.7105(3) 0.33126(18)
C13 C 0.2409(4) 0.7465(3) 0.28698(19)
H7 H 0.1684 0.7710 0.2872
C14 C 0.2981(4) 0.7471(3) 0.24227(19)
H8 H 0.2631 0.7712 0.2119
C15 C 0.3870(3) 0.6845(2) 0.14526(16)
C16 C 0.3282(4) 0.6197(3) 0.14800(16)
H9 H 0.3388 0.5922 0.1794
C17 C 0.2541(4) 0.5939(3) 0.10597(16)
H10 H 0.2159 0.5488 0.1085
C18 C 0.2358(3) 0.6340(2) 0.06020(16)
C19 C 0.2941(4) 0.6995(3) 0.05682(18)
H11 H 0.2818 0.7274 0.0257
C20 C 0.3704(4) 0.7242(3) 0.09886(18)
H12 H 0.4114 0.7683 0.0960
C21 C 0.6396(3) 0.7187(3) 0.14348(16)
C22 C 0.7027(4) 0.7740(3) 0.12308(19)
H13 H 0.7017 0.8210 0.1379
C23 C 0.7671(4) 0.7614(3) 0.08141(19)
H14 H 0.8083 0.8000 0.0674
C24 C 0.7715(4) 0.6935(2) 0.06026(16)
C25 C 0.7079(4) 0.6375(2) 0.08016(16)
H15 H 0.7094 0.5905 0.0654
C26 C 0.6427(4) 0.6505(2) 0.12125(16)
H16 H 0.5993 0.6123 0.1345
C27 C 0.1507(3) 0.6078(2) 0.01634(15)
C28 C 0.2253(5) 0.7087(4) 0.3796(2)
C29 C 0.8483(4) 0.8697(2) 0.36323(16)
C30 C 0.8473(4) 0.6784(3) 0.01758(16)
C31 C 0.080(4) 0.8732(13) 0.0244(11)
C32 C 0.083(3) 0.8707(14) 0.1197(9)
C33 C 0.221(3) 0.894(3) 0.1306(19)
C34 C -0.073(3) 0.9849(17) 0.0726(14)
C35 C -0.177(3) 0.974(2) 0.1004(17)
C36 C -0.2014(11) 0.8660(8) -0.0743(6)
C37 C -0.3006(14) 0.863(2) -0.1108(12)
Cd1 Cd 0.03830(2) 0.437333(16) 0.053664(10)
Cd2 Cd 0.02417(3) 0.750423(17) -0.058283(12)
N3 N 0.025(2) 0.9172(11) 0.0654(9)
O1 O 0.1047(3) 0.54629(17) 0.01959(11)
O2 O 0.1238(2) 0.64754(17) -0.02319(11)
O3 O 0.8666(3) 0.61228(18) 0.00880(12)
O4 O 0.8860(3) 0.7305(2) -0.00529(14)
O5 O 0.2758(5) 0.6869(7) 0.4205(2)
O6 O 0.1265(4) 0.7327(2) 0.37582(16)
O7 O 0.9389(3) 0.83982(17) 0.38560(11)
O8 O 0.8141(3) 0.92922(19) 0.37857(15)
O9 O -0.0767(3) 0.51500(18) 0.09225(12)
O10 O -0.0982(4) 0.8420(2) -0.09024(16)
O11 O 0.1128(7) 0.8271(3) -0.0001(3)
Cd1B Cd -0.03830(2) 0.562667(16) -0.053664(10)
Cd1B_2 Cd 0.96170(2) 0.562667(16) -0.053664(10)
Cd1A Cd 0.96170(2) 0.937333(16) 0.446336(10)
Cd2_2 Cd 1.02417(3) 0.750423(17) -0.058283(12)
Cd2C Cd 0.02417(3) 0.749577(17) 0.441717(12)
Cd2C_2 Cd 1.02417(3) 0.749577(17) 0.441717(12)
O1B O -0.1047(3) 0.45371(17) -0.01959(11)
O2B O -0.1238(2) 0.35246(17) 0.02319(11)
O3B O 0.1334(3) 0.38772(18) -0.00880(12)
O4_2 O -0.1140(3) 0.7305(2) -0.00529(14)
O6C O 0.1265(4) 0.7673(2) -0.12418(16)
O7A O 0.0611(3) 0.33982(17) 0.11440(11)
O7C O -0.0611(3) 0.66018(17) -0.11440(11)
O8A O 0.1859(3) 0.42922(19) 0.12143(15)
C38 C 0.0139(5) 0.1008(3) 0.2088(2)
H17 H -0.0493 0.1323 0.1976
C39 C -0.0551(5) 0.1048(4) 0.2948(2)
H18 H -0.0702 0.0651 0.3190
H19 H -0.1305 0.1181 0.2748
C40 C -0.0079(6) 0.1685(4) 0.3259(3)
H20 H 0.0677 0.1559 0.3452
H21 H -0.0629 0.1823 0.3507
H22 H 0.0024 0.2089 0.3023
C41 C 0.1211(6) 0.0320(4) 0.2785(2)
H23 H 0.1493 0.0462 0.3148
H24 H 0.1868 0.0378 0.2570
C42 C 0.0841(8) -0.0470(4) 0.2778(3)
H25 H 0.0149 -0.0524 0.2967
H26 H 0.1482 -0.0764 0.2949
H27 H 0.0654 -0.0631 0.2416
N1 N 0.0259(4) 0.0795(3) 0.25857(18)
O12 O 0.0788(4) 0.0825(2) 0.17644(17)
C43 C 0.3299(5) 0.9053(3) 0.4050(2)
C44 C 0.4968(9) 0.9586(7) 0.3659(4)
C45 C 0.4494(10) 0.9701(7) 0.3107(4)
C48 C 0.4941(10) 0.8285(7) 0.3994(5)
C49 C 0.4844(13) 0.8262(8) 0.4564(5)
N2 N 0.4348(8) 0.8980(5) 0.3899(4)
O13 O 0.2844(4) 0.9633(2) 0.39244(17)
loop_
_geom_bond_atom_site_label_1
_geom_bond_atom_site_label_2
_geom_bond_site_symmetry_1
_geom_bond_site_symmetry_2
C1 C2 1_555 1_555
C2 C3 1_555 1_555
C3 C4 1_555 1_555
C4 H1 1_555 1_555
C5 C4 1_555 1_555
H2 C5 1_555 1_555
C6 C5 1_555 1_555
C7 C6 1_555 1_555
H3 C7 1_555 1_555
C8 C3 1_555 1_555
H4 C8 1_555 1_555
C9 C1 1_555 1_555
C10 C9 1_555 1_555
H5 C10 1_555 1_555
C11 C10 1_555 1_555
H6 C11 1_555 1_555
C12 C11 1_555 1_555
C13 C12 1_555 1_555
H7 C13 1_555 1_555
C14 C9 1_555 1_555
H8 C14 1_555 1_555
C15 C1 1_555 1_555
C16 C15 1_555 1_555
H9 C16 1_555 1_555
C17 C16 1_555 1_555
H10 C17 1_555 1_555
C18 C17 1_555 1_555
C19 C18 1_555 1_555
H11 C19 1_555 1_555
C20 C15 1_555 1_555
H12 C20 1_555 1_555
C21 C2 1_555 1_555
C22 C21 1_555 1_555
H13 C22 1_555 1_555
C23 C22 1_555 1_555
H14 C23 1_555 1_555
C24 C23 1_555 1_555
C25 C24 1_555 1_555
H15 C25 1_555 1_555
C26 C21 1_555 1_555
H16 C26 1_555 1_555
C27 C18 1_555 1_555
C28 C12 1_555 1_555
C29 C6 1_555 1_555
C30 C24 1_555 1_555
C31 N3 1_555 1_555
C32 C33 1_555 1_555
C34 C35 1_555 1_555
C36 C37 1_555 1_555
C38 H17 1_555 1_555
C39 H18 1_555 1_555
H19 C39 1_555 1_555
C40 C39 1_555 1_555
H20 C40 1_555 1_555
H21 C40 1_555 1_555
H22 C40 1_555 1_555
C41 H23 1_555 1_555
H24 C41 1_555 1_555
C42 C41 1_555 1_555
H25 C42 1_555 1_555
H26 C42 1_555 1_555
H27 C42 1_555 1_555
C43 N2 1_555 1_555
C44 C45 1_555 1_555
C48 C49 1_555 1_555
Cd1 O1 1_555 1_555
Cd2 O2 1_555 1_555
N1 C38 1_555 1_555
N2 C44 1_555 1_555
N3 C32 1_555 1_555
O1 C27 1_555 1_555
O2 C27 1_555 1_555
O3 C30 1_555 1_555
O4 C30 1_555 1_555
O5 C28 1_555 1_555
O6 C28 1_555 1_555
O7 C29 1_555 1_555
O8 C29 1_555 1_555
O9 Cd1 1_555 1_555
O10 C36 1_555 1_555
O11 C31 1_555 1_555
O12 C38 1_555 1_555
O13 C43 1_555 1_555
Cd1B O1 1_555 1_555
Cd1B_2 O3 1_555 1_555
Cd1A O7 1_555 1_555
Cd2_2 O4 1_555 1_555
Cd2C O6 1_555 1_555
Cd2C_2 O7 1_555 1_555
O1B Cd1 1_555 1_555
O2B Cd1 1_555 1_555
O3B Cd1 1_555 1_555
O4_2 Cd2 1_555 1_555
O6C Cd2 1_555 1_555
O7A Cd1 1_555 1_555
O7C Cd2 1_555 1_555
O8A Cd1 1_555 1_555
C7 C8 1_555 1_555
C13 C14 1_555 1_555
C19 C20 1_555 1_555
C25 C26 1_555 1_555
C34 N3 1_555 1_555
C39 N1 1_555 1_555
C41 N1 1_555 1_555
C48 N2 1_555 1_555
Cd2 O10 1_555 1_555
Cd2 O11 1_555 1_555
O2 Cd1B 1_555 1_555
O8 Cd1A 1_555 1_555
Cd1B O1B 1_555 1_555
Cd1B O7C 1_555 1_555

#END
