
#######################################################################
#
#                 Cambridge Crystallographic Data Centre
#                                CCDC 
#
#######################################################################
#
# If this CIF has been generated from an entry in the Cambridge 
# Structural Database, then it will include bibliographic, chemical, 
# crystal, experimental, refinement or atomic coordinate data resulting 
# from the CCDC's data processing and validation procedures.
#
#######################################################################

data_MOTKAI
_chemical_formula_moiety         '(C4 H14 Al2 F2 O9 P2)n'
_symmetry_cell_setting           monoclinic
_symmetry_space_group_name_H-M   'P 21/m'
_symmetry_Int_Tables_number      11
_space_group_name_Hall           '-P 2yb'
loop_
_symmetry_equiv_pos_site_id
_symmetry_equiv_pos_as_xyz
1 x,y,z
2 -x,1/2+y,-z
3 -x,-y,-z
4 x,1/2-y,z
_cell_length_a                   4.93921(26)
_cell_length_b                   12.1867(4)
_cell_length_c                   10.7830(5)
_cell_angle_alpha                90
_cell_angle_beta                 94.7665(33)
_cell_angle_gamma                90
_cell_volume                     646.813
loop_
_atom_site_label
_atom_site_type_symbol
_atom_site_fract_x
_atom_site_fract_y
_atom_site_fract_z
_atom_site_U_iso_or_equiv
_atom_site_thermal_displace_type
Al1 Al -1.0000 0.5000 0.0000 0.0335 Uiso
Al2 Al -0.7565(19) 0.2500 -0.1014(7) 0.0335 Uiso
P1 P -1.4641(12) 0.5140(5) 0.1813(4) 0.0335 Uiso
F1 F -0.9337(17) 0.3533(4) -0.0163(6) 0.0226 Uiso
O1 O -1.2981(12) 0.4588(7) 0.0837(6) 0.0226 Uiso
O2 O -1.3927(20) 0.6368(6) 0.1889(7) 0.0226 Uiso
O3 O -1.7740(15) 0.5071(12) 0.1438(5) 0.0226 Uiso
O4 O -0.4725(27) 0.2500 0.0326(9) 0.0226 Uiso
O5 O -1.0728(23) 0.2500 -0.2179(10) 0.0226 Uiso
C1 C -1.5296(27) 0.5221(12) 0.4322(5) 0.0226 Uiso
C2 C -1.3832(30) 0.4634(10) 0.3334(9) 0.0226 Uiso
Al1_2 Al -2.0000 0.5000 0.0000 0.0335 Uiso
Al1_3 Al -2.0000 0.5000 1.0000 0.0335 Uiso
Al1_4 Al -1.0000 0.5000 1.0000 0.0335 Uiso
Al2B Al -1.2435(19) 0.7500 0.1014(7) 0.0335 Uiso
Al2_2 Al -1.7565(19) 0.2500 0.8986(7) 0.0335 Uiso
P1B P -1.5359(12) 0.4860(5) 0.8187(4) 0.0335 Uiso
F1B F -1.0663(17) 0.6467(4) 0.0163(6) 0.0226 Uiso
F1C F -0.9337(17) 0.1467(4) -0.0163(6) 0.0226 Uiso
O1B O -1.7019(12) 0.5412(7) 0.9163(6) 0.0226 Uiso
O1B_2 O -0.7019(12) 0.5412(7) -0.0837(6) 0.0226 Uiso
O2B O -1.6073(20) 0.3632(6) 0.8111(7) 0.0226 Uiso
O2B_2 O -0.6073(20) 0.3632(6) -0.1889(7) 0.0226 Uiso
O2A O -0.6073(20) 0.1368(6) -0.1889(7) 0.0226 Uiso
O3B O -1.2260(15) 0.4929(12) 0.8562(5) 0.0226 Uiso
O3_2 O -0.7740(15) 0.5071(12) 0.1438(5) 0.0226 Uiso
O3B_2 O -1.2260(15) 0.4929(12) -0.1438(5) 0.0226 Uiso
C1B C -1.4704(27) 0.4779(12) 0.5678(5) 0.0226 Uiso
C2B C -1.6168(30) 0.5366(10) 0.6666(9) 0.0226 Uiso
O6 O -0.028(18) 0.2500 0.236(5) 0.0226 Uiso
loop_
_geom_bond_atom_site_label_1
_geom_bond_atom_site_label_2
_geom_bond_site_symmetry_1
_geom_bond_site_symmetry_2
Al1 F1 1_555 1_555
Al2 F1 1_555 1_555
P1 O1 1_555 1_555
O1 Al1 1_555 1_555
O2 P1 1_555 1_555
O3 P1 1_555 1_555
O4 Al2 1_555 1_555
O5 Al2 1_555 1_555
C1 C2 1_555 1_555
C2 P1 1_555 1_555
Al1_2 O3 1_555 1_555
Al1_3 O1B 1_555 1_555
Al1_4 O3B 1_555 1_555
Al2B O2 1_555 1_555
Al2_2 O2B 1_555 1_555
P1B O1B 1_555 1_555
F1B Al1 1_555 1_555
F1C Al2 1_555 1_555
O1B_2 Al1 1_555 1_555
O2B P1B 1_555 1_555
O2B_2 Al2 1_555 1_555
O2A Al2 1_555 1_555
O3B P1B 1_555 1_555
O3_2 Al1 1_555 1_555
O3B_2 Al1 1_555 1_555
C1B C1 1_555 1_555
C2B P1B 1_555 1_555
Al2B F1B 1_555 1_555
C1B C2B 1_555 1_555

#END
