
#######################################################################
#
#                 Cambridge Crystallographic Data Centre
#                                CCDC 
#
#######################################################################
#
# If this CIF has been generated from an entry in the Cambridge 
# Structural Database, then it will include bibliographic, chemical, 
# crystal, experimental, refinement or atomic coordinate data resulting 
# from the CCDC's data processing and validation procedures.
#
#######################################################################

data_IPIJEY
_chemical_formula_moiety         '(C28 H25 N9 O6 Zn2)n'
_symmetry_cell_setting           orthorhombic
_symmetry_space_group_name_H-M   'P b c a'
_symmetry_Int_Tables_number      61
_space_group_name_Hall           '-P 2ac 2ab'
loop_
_symmetry_equiv_pos_site_id
_symmetry_equiv_pos_as_xyz
1 x,y,z
2 1/2-x,-y,1/2+z
3 1/2+x,1/2-y,-z
4 -x,1/2+y,1/2-z
5 -x,-y,-z
6 1/2+x,y,1/2-z
7 1/2-x,1/2+y,z
8 x,1/2-y,1/2+z
_cell_length_a                   18.580(4)
_cell_length_b                   9.962(2)
_cell_length_c                   32.732(8)
_cell_angle_alpha                90
_cell_angle_beta                 90
_cell_angle_gamma                90
_cell_volume                     6058.5
loop_
_atom_site_label
_atom_site_type_symbol
_atom_site_fract_x
_atom_site_fract_y
_atom_site_fract_z
_atom_site_U_iso_or_equiv
_atom_site_thermal_displace_type
Zn1 Zn 0.080698(18) 0.27461(3) 0.058596(8) 0.0368 Uani
Zn2 Zn 0.064300(11) 0.02828(2) 0.218912(7) 0.0195 Uani
O1 O 0.15914(8) 0.00156(17) 0.24001(6) 0.0373 Uani
O2 O -0.00977(12) 0.3939(2) 0.06896(7) 0.0523 Uani
H1 H -0.0489 0.3453 0.0696 0.0780 Uiso
H2 H -0.0147 0.4531 0.0494 0.0780 Uiso
O3 O 0.17325(10) -0.1760(2) 0.20044(7) 0.0497 Uani
O4 O -0.06182(13) -0.38805(19) 0.02699(6) 0.0573 Uani
O5 O -0.04453(13) -0.20054(19) -0.00712(6) 0.0517 Uani
N1 N 0.14542(13) 0.4030(2) 0.09246(7) 0.0427 Uani
N2 N 0.19015(14) 0.2225(2) 0.03979(7) 0.0472 Uani
N3 N 0.05760(12) 0.12564(19) 0.09857(6) 0.0337 Uani
N4 N 0.07054(11) 0.14159(19) 0.13808(6) 0.0318 Uani
N5 N 0.05257(11) 0.03129(18) 0.15851(6) 0.0286 Uani
N6 N 0.44534(9) -0.27662(18) 0.23467(6) 0.0253 Uani
N7 N 0.50436(10) -0.21716(17) 0.24718(6) 0.0271 Uani
N8 N 0.49020(9) -0.09167(17) 0.25846(6) 0.0261 Uani
C1 C 0.2086(2) 0.1289(4) 0.01243(10) 0.0654 Uani
H3 H 0.1725 0.0807 -0.0007 0.0780 Uiso
C2 C 0.2793(3) 0.1015(5) 0.00306(13) 0.0820 Uani
H4 H 0.2907 0.0357 -0.0160 0.0990 Uiso
C3 C 0.3318(3) 0.1718(5) 0.02205(15) 0.0900 Uani
H5 H 0.3800 0.1554 0.0160 0.1080 Uiso
C4 C 0.3136(2) 0.2667(4) 0.05004(14) 0.0750 Uani
H6 H 0.3493 0.3153 0.0634 0.0900 Uiso
C5 C 0.24212(18) 0.2910(3) 0.05865(9) 0.0496 Uani
C6 C 0.21660(17) 0.3913(3) 0.08866(9) 0.0460 Uani
C7 C 0.2630(2) 0.4684(4) 0.11187(11) 0.0643 Uani
H7 H 0.3126 0.4582 0.1093 0.0770 Uiso
C8 C 0.2353(2) 0.5592(4) 0.13847(11) 0.0730 Uani
H8 H 0.2660 0.6136 0.1536 0.0880 Uiso
C9 C 0.1634(2) 0.5708(3) 0.14301(10) 0.0678 Uani
H9 H 0.1439 0.6314 0.1616 0.0810 Uiso
C10 C 0.1194(2) 0.4901(3) 0.11933(10) 0.0559 Uani
H10 H 0.0698 0.4973 0.1224 0.0670 Uiso
C11 C 0.02949(13) -0.0001(2) 0.09312(7) 0.0298 Uani
C12 C 0.00680(14) -0.0668(2) 0.05807(7) 0.0354 Uani
H11 H 0.0085 -0.0257 0.0326 0.0430 Uiso
C13 C -0.01813(14) -0.1953(2) 0.06252(7) 0.0350 Uani
C14 C -0.04309(15) -0.2698(2) 0.02500(8) 0.0387 Uani
C15 C -0.02043(16) -0.2564(2) 0.10121(8) 0.0411 Uani
H12 H -0.0374 -0.3439 0.1033 0.0490 Uiso
C16 C 0.00147(16) -0.1917(2) 0.13587(8) 0.0397 Uani
H13 H -0.0004 -0.2330 0.1613 0.0480 Uiso
C17 C 0.02683(13) -0.0602(2) 0.13121(7) 0.0290 Uani
C18 C 0.19630(11) -0.0913(2) 0.22382(8) 0.0297 Uani
C19 C 0.27520(11) -0.0880(2) 0.23485(7) 0.0288 Uani
C20 C 0.30405(12) 0.0299(2) 0.25218(9) 0.0381 Uani
H14 H 0.2734 0.1011 0.2580 0.0460 Uiso
C21 C 0.37572(12) 0.0425(2) 0.26062(9) 0.0385 Uani
H15 H 0.3950 0.1217 0.2710 0.0460 Uiso
C22 C 0.41850(11) -0.0697(2) 0.25292(7) 0.0272 Uani
C23 C 0.38985(11) -0.1874(2) 0.23717(7) 0.0242 Uani
C24 C 0.31716(11) -0.1961(2) 0.22659(7) 0.0276 Uani
H16 H 0.2983 -0.2727 0.2144 0.0330 Uiso
Zn1D Zn -0.080698(18) -0.27461(3) -0.058596(8) 0.0368 Uani
Zn2E Zn 0.564300(11) 0.02828(2) 0.281088(7) 0.0195 Uani
Zn2F Zn 0.435700(11) -0.47172(2) 0.218912(7) 0.0195 Uani
O5D O 0.04453(13) 0.20054(19) 0.00712(6) 0.0517 Uani
N6F N 0.05466(9) 0.22338(18) 0.23467(6) 0.0253 Uani
N8E N -0.00980(9) -0.09167(17) 0.24154(6) 0.0261 Uani
O6 O 0.6343(2) 0.7821(6) 0.08973(15) 0.1690 Uani
N9 N 0.7316(3) 0.7585(7) 0.12683(18) 0.1530 Uani
C25 C 0.7748(6) 0.7692(14) 0.1626(3) 0.2733 Uani
H17 H 0.8048 0.8474 0.1606 0.4120 Uiso
H18 H 0.8045 0.6907 0.1651 0.4120 Uiso
H19 H 0.7443 0.7767 0.1861 0.4120 Uiso
C26 C 0.7707(6) 0.6971(14) 0.0910(3) 0.2983 Uani
H20 H 0.7997 0.7643 0.0780 0.4460 Uiso
H21 H 0.7363 0.6625 0.0719 0.4460 Uiso
H22 H 0.8009 0.6255 0.1005 0.4460 Uiso
C27 C 0.6656(4) 0.7899(9) 0.1217(2) 0.1453 Uani
C28 C 0.6228(6) 0.8427(12) 0.1582(3) 0.2393 Uani
H23 H 0.5877 0.9065 0.1489 0.3590 Uiso
H24 H 0.6550 0.8854 0.1771 0.3590 Uiso
H25 H 0.5989 0.7693 0.1715 0.3590 Uiso
loop_
_atom_site_aniso_label
_atom_site_aniso_U_11
_atom_site_aniso_U_22
_atom_site_aniso_U_33
_atom_site_aniso_U_23
_atom_site_aniso_U_13
_atom_site_aniso_U_12
Zn1 0.05607(19) 0.02567(14) 0.02866(15) 0.00052(11) -0.00971(12) -0.01322(12)
Zn2 0.01429(11) 0.01841(12) 0.02581(13) -0.00125(9) 0.00064(8) -0.00124(8)
O1 0.0188(7) 0.0331(9) 0.0600(11) -0.0087(8) -0.0065(7) 0.0042(6)
O2 0.0611(13) 0.0384(10) 0.0574(13) 0.0093(9) -0.0088(10) -0.0045(9)
O3 0.0263(9) 0.0441(11) 0.0787(14) -0.0220(10) -0.0155(9) 0.0016(8)
O4 0.0986(18) 0.0264(9) 0.0468(11) -0.0007(8) -0.0246(11) -0.0145(10)
O5 0.0874(15) 0.0366(10) 0.0310(10) 0.0013(8) -0.0201(10) -0.0196(10)
N1 0.0571(14) 0.0315(11) 0.0395(12) -0.0040(9) -0.0087(10) -0.0111(10)
N2 0.0611(16) 0.0434(13) 0.0372(12) 0.0016(10) -0.0010(11) -0.0026(11)
N3 0.0509(13) 0.0253(9) 0.0250(9) 0.0002(7) -0.0059(9) -0.0085(9)
N4 0.0427(11) 0.0254(9) 0.0272(10) 0.0000(8) -0.0031(8) -0.0049(8)
N5 0.0380(10) 0.0218(9) 0.0261(9) -0.0001(7) -0.0035(8) -0.0034(8)
N6 0.0204(8) 0.0198(8) 0.0356(10) -0.0055(7) -0.0018(7) -0.0001(7)
N7 0.0198(8) 0.0229(9) 0.0386(10) -0.0043(8) -0.0023(7) 0.0003(7)
N8 0.0163(8) 0.0211(8) 0.0410(11) -0.0050(8) -0.0037(7) -0.0005(7)
C1 0.087(3) 0.059(2) 0.0502(19) -0.0080(15) 0.0037(18) 0.0036(19)
C2 0.104(3) 0.078(3) 0.064(2) -0.005(2) 0.022(2) 0.021(3)
C3 0.079(3) 0.102(3) 0.089(3) 0.007(3) 0.024(3) 0.013(3)
C4 0.057(2) 0.082(3) 0.086(3) 0.008(2) 0.0044(19) -0.008(2)
C5 0.0575(18) 0.0468(16) 0.0444(16) 0.0110(13) -0.0012(13) -0.0081(14)
C6 0.0560(17) 0.0420(15) 0.0400(14) 0.0082(12) -0.0102(12) -0.0150(13)
C7 0.066(2) 0.064(2) 0.063(2) 0.0046(17) -0.0219(17) -0.0227(18)
C8 0.099(3) 0.062(2) 0.058(2) -0.0026(17) -0.033(2) -0.031(2)
C9 0.107(3) 0.0451(17) 0.0513(19) -0.0160(15) -0.0174(19) -0.0111(19)
C10 0.070(2) 0.0422(16) 0.0554(18) -0.0148(14) -0.0109(16) -0.0047(15)
C11 0.0398(13) 0.0217(10) 0.0280(11) 0.0006(8) -0.0055(9) -0.0046(9)
C12 0.0486(14) 0.0310(12) 0.0267(12) 0.0023(9) -0.0091(10) -0.0059(11)
C13 0.0468(14) 0.0278(11) 0.0304(12) -0.0019(9) -0.0098(10) -0.0033(10)
C14 0.0523(15) 0.0291(12) 0.0346(13) -0.0031(10) -0.0118(11) -0.0056(11)
C15 0.0638(17) 0.0224(11) 0.0370(13) 0.0025(10) -0.0085(12) -0.0112(11)
C16 0.0619(17) 0.0275(12) 0.0298(12) 0.0044(10) -0.0060(11) -0.0082(11)
C17 0.0356(12) 0.0254(11) 0.0260(11) -0.0012(8) -0.0034(9) -0.0013(9)
C18 0.0200(10) 0.0235(11) 0.0455(13) 0.0019(9) -0.0052(9) 0.0003(8)
C19 0.0173(10) 0.0248(10) 0.0443(13) 0.0002(9) -0.0040(9) 0.0003(8)
C20 0.0204(11) 0.0247(11) 0.0692(18) -0.0106(11) -0.0054(11) 0.0055(9)
C21 0.0228(11) 0.0250(11) 0.0678(18) -0.0145(11) -0.0064(11) 0.0016(9)
C22 0.0190(10) 0.0226(10) 0.0399(12) -0.0038(9) -0.0027(8) -0.0006(8)
C23 0.0201(10) 0.0203(9) 0.0323(11) -0.0027(8) -0.0023(8) 0.0007(8)
C24 0.0213(10) 0.0204(10) 0.0411(13) -0.0043(9) -0.0048(9) -0.0015(8)
Zn1D 0.05607 0.02567 0.02866 0.00052 -0.00971 -0.01322
Zn2E 0.01429 0.01841 0.02581 0.00125 -0.00064 -0.00124
Zn2F 0.01429 0.01841 0.02581 -0.00125 -0.00064 0.00124
O5D 0.0874 0.0366 0.031 0.0013 -0.0201 -0.0196
N6F 0.0204 0.0198 0.0356 -0.0055 0.0018 0.0001
N8E 0.0163 0.0211 0.041 0.005 0.0037 -0.0005
O6 0.113(3) 0.268(6) 0.126(4) 0.038(4) -0.013(3) 0.056(4)
N9 0.129(4) 0.229(5) 0.101(3) 0.050(3) -0.018(3) 0.006(4)
C25 0.218(11) 0.47(2) 0.132(7) 0.063(10) -0.079(7) -0.048(12)
C26 0.244(12) 0.52(2) 0.131(7) 0.028(11) 0.021(8) 0.183(14)
C27 0.119(4) 0.218(6) 0.099(3) 0.063(4) -0.005(4) -0.004(5)
C28 0.283(13) 0.321(14) 0.114(6) 0.014(8) 0.062(7) 0.029(11)
loop_
_geom_bond_atom_site_label_1
_geom_bond_atom_site_label_2
_geom_bond_site_symmetry_1
_geom_bond_site_symmetry_2
Zn1 O2 1_555 1_555
Zn2 O1 1_555 1_555
O1 C18 1_555 1_555
O2 H1 1_555 1_555
H2 O2 1_555 1_555
O3 C18 1_555 1_555
O4 C14 1_555 1_555
O5 C14 1_555 1_555
N1 Zn1 1_555 1_555
N2 Zn1 1_555 1_555
N3 Zn1 1_555 1_555
N4 N3 1_555 1_555
N5 Zn2 1_555 1_555
N6 N7 1_555 1_555
N7 N8 1_555 1_555
N8 C22 1_555 1_555
C1 N2 1_555 1_555
H3 C1 1_555 1_555
C2 C1 1_555 1_555
H4 C2 1_555 1_555
C3 C2 1_555 1_555
H5 C3 1_555 1_555
C4 C3 1_555 1_555
H6 C4 1_555 1_555
C5 N2 1_555 1_555
C6 N1 1_555 1_555
C7 C6 1_555 1_555
H7 C7 1_555 1_555
C8 C7 1_555 1_555
H8 C8 1_555 1_555
C9 C8 1_555 1_555
H9 C9 1_555 1_555
C10 N1 1_555 1_555
H10 C10 1_555 1_555
C11 N3 1_555 1_555
C12 C11 1_555 1_555
H11 C12 1_555 1_555
C13 C12 1_555 1_555
C14 C13 1_555 1_555
C15 C13 1_555 1_555
H12 C15 1_555 1_555
C16 C15 1_555 1_555
H13 C16 1_555 1_555
C17 N5 1_555 1_555
C18 C19 1_555 1_555
C19 C20 1_555 1_555
C20 H14 1_555 1_555
C21 C20 1_555 1_555
H15 C21 1_555 1_555
C22 C21 1_555 1_555
C23 N6 1_555 1_555
C24 C19 1_555 1_555
H16 C24 1_555 1_555
O6 C27 1_555 1_555
N9 C25 1_555 1_555
C25 H17 1_555 1_555
H18 C25 1_555 1_555
H19 C25 1_555 1_555
C26 N9 1_555 1_555
H20 C26 1_555 1_555
H21 C26 1_555 1_555
H22 C26 1_555 1_555
C27 N9 1_555 1_555
C28 C27 1_555 1_555
H23 C28 1_555 1_555
H24 C28 1_555 1_555
H25 C28 1_555 1_555
Zn1D O5 1_555 1_555
Zn2E N8 1_555 1_555
Zn2F N6 1_555 1_555
O5D Zn1 1_555 1_555
N6F Zn2 1_555 1_555
N8E Zn2 1_555 1_555
N4 N5 1_555 1_555
C4 C5 1_555 1_555
C5 C6 1_555 1_555
C9 C10 1_555 1_555
C11 C17 1_555 1_555
C16 C17 1_555 1_555
C22 C23 1_555 1_555
C23 C24 1_555 1_555

#END
