
#######################################################################
#
#                 Cambridge Crystallographic Data Centre
#                                CCDC 
#
#######################################################################
#
# If this CIF has been generated from an entry in the Cambridge 
# Structural Database, then it will include bibliographic, chemical, 
# crystal, experimental, refinement or atomic coordinate data resulting 
# from the CCDC's data processing and validation procedures.
#
#######################################################################

data_FOWTOC
_chemical_formula_moiety         '(C40 H40 Cl1 N6 Nd1 O10)n'
_symmetry_cell_setting           tetragonal
_symmetry_space_group_name_H-M   'P 43 21 2'
_symmetry_Int_Tables_number      96
_space_group_name_Hall           'P 4nw 2abw'
loop_
_symmetry_equiv_pos_site_id
_symmetry_equiv_pos_as_xyz
1 x,y,z
2 -x,-y,1/2+z
3 1/2-y,1/2+x,3/4+z
4 1/2+y,1/2-x,1/4+z
5 1/2-x,1/2+y,3/4-z
6 1/2+x,1/2-y,1/4-z
7 y,x,-z
8 -y,-x,1/2-z
_cell_length_a                   18.1041(2)
_cell_length_b                   18.1041(2)
_cell_length_c                   16.4374(5)
_cell_angle_alpha                90
_cell_angle_beta                 90
_cell_angle_gamma                90
_cell_volume                     5387.5
loop_
_atom_site_label
_atom_site_type_symbol
_atom_site_fract_x
_atom_site_fract_y
_atom_site_fract_z
_atom_site_U_iso_or_equiv
_atom_site_thermal_displace_type
C1 C 0.2061(3) 0.4084(3) 1.0454(3) 0.0410 Uani
C2 C 0.1576(4) 0.4072(4) 1.1124(4) 0.0520 Uani
H1 H 0.1428 0.3623 1.1347 0.0620 Uiso
C3 C 0.1321(4) 0.4730(4) 1.1451(5) 0.0697 Uani
H2 H 0.0993 0.4713 1.1886 0.0840 Uiso
C4 C 0.1536(5) 0.5407(5) 1.1155(5) 0.0813 Uani
H3 H 0.1358 0.5838 1.1391 0.0980 Uiso
C5 C 0.2002(4) 0.5440(4) 1.0526(4) 0.0660 Uani
H4 H 0.2152 0.5900 1.0335 0.0790 Uiso
C6 C 0.2275(3) 0.4792(3) 1.0141(4) 0.0430 Uani
C7 C 0.2795(4) 0.4855(3) 0.9505(3) 0.0450 Uani
H5 H 0.2915 0.5327 0.9325 0.0540 Uiso
C8 C 0.3710(4) 0.4348(4) 0.8524(4) 0.0467 Uani
H6 H 0.3885 0.4859 0.8493 0.0560 Uiso
C9 C 0.4348(4) 0.3856(5) 0.8794(5) 0.0647 Uani
H7 H 0.4545 0.4045 0.9302 0.0770 Uiso
H8 H 0.4161 0.3363 0.8897 0.0770 Uiso
C10 C 0.4947(5) 0.3810(5) 0.8197(5) 0.0803 Uani
H9 H 0.5174 0.4292 0.8135 0.0960 Uiso
H10 H 0.5322 0.3470 0.8392 0.0960 Uiso
C11 C 0.4670(5) 0.3557(4) 0.7408(6) 0.0907 Uani
H11 H 0.4482 0.3057 0.7462 0.1090 Uiso
H12 H 0.5072 0.3549 0.7019 0.1090 Uiso
C12 C 0.4047(4) 0.4065(4) 0.7087(4) 0.0630 Uani
H13 H 0.4245 0.4552 0.6974 0.0750 Uiso
H14 H 0.3850 0.3865 0.6584 0.0750 Uiso
C13 C 0.3434(4) 0.4123(3) 0.7716(3) 0.0490 Uani
H15 H 0.3214 0.3631 0.7774 0.0590 Uiso
C14 C 0.2233(4) 0.4395(3) 0.7119(4) 0.0513 Uani
H16 H 0.2147 0.3889 0.7128 0.0620 Uiso
C15 C 0.1669(4) 0.4841(4) 0.6765(4) 0.0530 Uani
C16 C 0.1049(5) 0.4492(5) 0.6413(5) 0.0700 Uani
H17 H 0.1008 0.3981 0.6442 0.0840 Uiso
C17 C 0.0526(4) 0.4874(5) 0.6044(5) 0.0767 Uani
H18 H 0.0133 0.4634 0.5794 0.0920 Uiso
C18 C 0.0570(4) 0.5636(5) 0.6035(5) 0.0657 Uani
H19 H 0.0196 0.5907 0.5787 0.0790 Uiso
C19 C 0.1153(4) 0.6000(5) 0.6382(4) 0.0600 Uani
H20 H 0.1162 0.6513 0.6359 0.0720 Uiso
C20 C 0.1732(3) 0.5638(3) 0.6768(3) 0.0407 Uani
Cl1 Cl 0.10581(8) 0.10581(8) 1.0000 0.0554 Uani
Nd1 Nd 0.216636(15) 0.216636(15) 1.0000 0.0350 Uani
N1 N 0.3118(3) 0.4299(3) 0.9154(3) 0.0413 Uani
N2 N 0.2855(3) 0.4619(2) 0.7429(3) 0.0427 Uani
N3 N 0.2353(3) 0.2222(3) 0.8177(3) 0.0527 Uani
O1 O 0.2323(2) 0.34849(18) 1.0137(2) 0.0404 Uani
O2 O 0.2288(2) 0.5969(2) 0.7091(2) 0.0450 Uani
O3 O 0.2410(3) 0.2789(2) 0.8590(2) 0.0557 Uani
O4 O 0.2214(3) 0.1627(2) 0.8552(2) 0.0580 Uani
O5 O 0.2648(8) 0.2252(10) 0.7430(12) 0.0710 Uani
C1F C 0.4084(3) 0.2061(3) 0.9546(3) 0.0410 Uani
C2F C 0.4072(4) 0.1576(4) 0.8876(4) 0.0520 Uani
H1F H 0.3623 0.1428 0.8653 0.0620 Uiso
C3F C 0.4730(4) 0.1321(4) 0.8549(5) 0.0697 Uani
H2F H 0.4713 0.0993 0.8114 0.0840 Uiso
C4F C 0.5407(5) 0.1536(5) 0.8845(5) 0.0813 Uani
H3F H 0.5838 0.1358 0.8609 0.0980 Uiso
C5F C 0.5440(4) 0.2002(4) 0.9474(4) 0.0660 Uani
H4F H 0.5900 0.2152 0.9665 0.0790 Uiso
C6F C 0.4792(3) 0.2275(3) 0.9859(4) 0.0430 Uani
C7F C 0.4855(3) 0.2795(4) 1.0495(3) 0.0450 Uani
H5F H 0.5327 0.2915 1.0675 0.0540 Uiso
C8F C 0.4348(4) 0.3710(4) 1.1476(4) 0.0467 Uani
H6F H 0.4859 0.3885 1.1507 0.0560 Uiso
C9F C 0.3856(5) 0.4348(4) 1.1206(5) 0.0647 Uani
H7F H 0.4045 0.4545 1.0698 0.0770 Uiso
H8F H 0.3363 0.4161 1.1103 0.0770 Uiso
C10F C 0.3810(5) 0.4947(5) 1.1803(5) 0.0803 Uani
H9F H 0.4292 0.5174 1.1865 0.0960 Uiso
H10F H 0.3470 0.5322 1.1608 0.0960 Uiso
C11F C 0.3557(4) 0.4670(5) 1.2592(6) 0.0907 Uani
H11F H 0.3057 0.4482 1.2538 0.1090 Uiso
H12F H 0.3549 0.5072 1.2981 0.1090 Uiso
C12F C 0.4065(4) 0.4047(4) 1.2913(4) 0.0630 Uani
H13F H 0.4552 0.4245 1.3026 0.0750 Uiso
H14F H 0.3865 0.3850 1.3416 0.0750 Uiso
C13F C 0.4123(3) 0.3434(4) 1.2284(3) 0.0490 Uani
H15F H 0.3631 0.3214 1.2226 0.0590 Uiso
C14F C 0.4395(3) 0.2233(4) 1.2881(4) 0.0513 Uani
H16F H 0.3889 0.2147 1.2872 0.0620 Uiso
C15F C 0.4841(4) 0.1669(4) 1.3235(4) 0.0530 Uani
C16F C 0.4492(5) 0.1049(5) 1.3587(5) 0.0700 Uani
H17F H 0.3981 0.1008 1.3558 0.0840 Uiso
C17F C 0.4874(5) 0.0526(4) 1.3956(5) 0.0767 Uani
H18F H 0.4634 0.0133 1.4206 0.0920 Uiso
C18F C 0.5636(5) 0.0570(4) 1.3965(5) 0.0657 Uani
H19F H 0.5907 0.0196 1.4213 0.0790 Uiso
C19F C 0.6000(5) 0.1153(4) 1.3618(4) 0.0600 Uani
H20F H 0.6513 0.1162 1.3641 0.0720 Uiso
C20F C 0.5638(3) 0.1732(3) 1.3232(3) 0.0407 Uani
N1F N 0.4299(3) 0.3118(3) 1.0846(3) 0.0413 Uani
N2F N 0.4619(2) 0.2855(3) 1.2571(3) 0.0427 Uani
N3F N 0.2222(3) 0.2353(3) 1.1823(3) 0.0527 Uani
O1F O 0.34849(18) 0.2323(2) 0.9863(2) 0.0404 Uani
O2F O 0.5969(2) 0.2288(2) 1.2909(2) 0.0450 Uani
O3F O 0.2789(2) 0.2410(3) 1.1410(2) 0.0557 Uani
O4F O 0.1627(2) 0.2214(3) 1.1448(2) 0.0580 Uani
O5F O 0.2252(10) 0.2648(8) 1.2570(12) 0.0710 Uani
Nd1B Nd 0.283364(15) 0.716636(15) 0.7500 0.0350 Uani
Nd1C Nd 0.716636(15) 0.283364(15) 1.2500 0.0350 Uani
O2C O 0.0969(2) 0.2712(2) 0.9591(2) 0.0450 Uani
O2D O 0.2712(2) 0.0969(2) 1.0409(2) 0.0450 Uani
loop_
_atom_site_aniso_label
_atom_site_aniso_U_11
_atom_site_aniso_U_22
_atom_site_aniso_U_33
_atom_site_aniso_U_23
_atom_site_aniso_U_13
_atom_site_aniso_U_12
C1 0.038(3) 0.039(3) 0.046(3) -0.005(2) 0.003(3) -0.006(3)
C2 0.051(4) 0.042(4) 0.063(4) -0.006(3) 0.012(3) 0.000(3)
C3 0.061(5) 0.059(5) 0.089(5) -0.021(4) 0.020(4) 0.002(4)
C4 0.083(6) 0.055(5) 0.106(6) -0.028(5) 0.022(5) 0.011(4)
C5 0.078(6) 0.038(4) 0.082(5) -0.008(3) 0.003(4) 0.003(4)
C6 0.041(3) 0.026(3) 0.062(4) 0.000(3) 0.006(3) 0.006(2)
C7 0.039(3) 0.038(3) 0.058(3) 0.005(3) -0.001(3) -0.004(3)
C8 0.041(4) 0.042(4) 0.057(4) 0.020(3) 0.007(3) -0.003(3)
C9 0.045(4) 0.072(5) 0.077(5) 0.035(4) 0.008(3) 0.002(4)
C10 0.059(5) 0.095(7) 0.087(5) 0.039(5) 0.021(4) 0.027(4)
C11 0.078(6) 0.063(5) 0.131(8) 0.019(6) 0.050(6) 0.034(4)
C12 0.075(5) 0.053(4) 0.061(4) 0.015(3) 0.005(4) 0.018(3)
C13 0.055(4) 0.034(3) 0.058(4) 0.010(3) 0.004(3) 0.007(3)
C14 0.058(4) 0.038(3) 0.058(3) -0.007(3) 0.005(3) -0.009(3)
C15 0.061(4) 0.049(4) 0.049(3) -0.008(3) -0.006(3) -0.007(3)
C16 0.065(5) 0.057(5) 0.088(5) 0.001(4) -0.012(4) -0.025(4)
C17 0.051(5) 0.084(6) 0.095(6) -0.016(5) -0.016(4) -0.020(4)
C18 0.049(4) 0.077(6) 0.071(5) 0.004(4) -0.008(4) -0.002(4)
C19 0.044(4) 0.065(5) 0.071(4) -0.001(4) -0.002(3) 0.000(4)
C20 0.037(3) 0.042(3) 0.043(3) -0.006(3) 0.002(3) 0.000(3)
Cl1 0.0335(6) 0.0335(6) 0.0993(16) -0.0065(9) 0.0065(9) -0.0003(8)
Nd1 0.02983(16) 0.02983(16) 0.0453(2) -0.00192(15) 0.00192(15) -0.00281(17)
N1 0.040(3) 0.037(3) 0.047(3) 0.005(2) 0.003(2) 0.000(2)
N2 0.052(3) 0.033(2) 0.043(2) 0.001(2) -0.002(3) 0.000(2)
N3 0.068(4) 0.045(3) 0.045(3) -0.009(3) 0.008(2) -0.002(3)
O1 0.050(2) 0.0223(17) 0.049(2) -0.0080(17) 0.0167(18) -0.0005(16)
O2 0.036(2) 0.038(2) 0.061(2) -0.0091(18) -0.0021(19) 0.0011(18)
O3 0.073(3) 0.038(2) 0.056(2) -0.008(2) 0.008(2) -0.002(2)
O4 0.084(3) 0.038(2) 0.052(2) -0.009(2) 0.002(2) -0.012(2)
O5 0.084(8) 0.066(6) 0.063(6) -0.004(5) 0.009(7) -0.002(7)
C1F 0.039 0.038 0.046 -0.003 0.005 -0.006
C2F 0.042 0.051 0.063 -0.012 0.006 0
C3F 0.059 0.061 0.089 -0.02 0.021 0.002
C4F 0.055 0.083 0.106 -0.022 0.028 0.011
C5F 0.038 0.078 0.082 -0.003 0.008 0.003
C6F 0.026 0.041 0.062 -0.006 0 0.006
C7F 0.038 0.039 0.058 0.001 -0.005 -0.004
C8F 0.042 0.041 0.057 -0.007 -0.02 -0.003
C9F 0.072 0.045 0.077 -0.008 -0.035 0.002
C10F 0.095 0.059 0.087 -0.021 -0.039 0.027
C11F 0.063 0.078 0.131 -0.05 -0.019 0.034
C12F 0.053 0.075 0.061 -0.005 -0.015 0.018
C13F 0.034 0.055 0.058 -0.004 -0.01 0.007
C14F 0.038 0.058 0.058 -0.005 0.007 -0.009
C15F 0.049 0.061 0.049 0.006 0.008 -0.007
C16F 0.057 0.065 0.088 0.012 -0.001 -0.025
C17F 0.084 0.051 0.095 0.016 0.016 -0.02
C18F 0.077 0.049 0.071 0.008 -0.004 -0.002
C19F 0.065 0.044 0.071 0.002 0.001 0
C20F 0.042 0.037 0.043 -0.002 0.006 0
N1F 0.037 0.04 0.047 -0.003 -0.005 0
N2F 0.033 0.052 0.043 0.002 -0.001 0
N3F 0.045 0.068 0.045 -0.008 0.009 -0.002
O1F 0.0223 0.05 0.049 -0.0167 0.008 -0.0005
O2F 0.038 0.036 0.061 0.0021 0.0091 0.0011
O3F 0.038 0.073 0.056 -0.008 0.008 -0.002
O4F 0.038 0.084 0.052 -0.002 0.009 -0.012
O5F 0.066 0.084 0.063 -0.009 0.004 -0.002
Nd1B 0.02983 0.02983 0.0453 0.00192 0.00192 0.00281
Nd1C 0.02983 0.02983 0.0453 -0.00192 -0.00192 0.00281
O2C 0.038 0.036 0.061 0.0021 -0.0091 -0.0011
O2D 0.036 0.038 0.061 0.0091 -0.0021 -0.0011
loop_
_geom_bond_atom_site_label_1
_geom_bond_atom_site_label_2
_geom_bond_site_symmetry_1
_geom_bond_site_symmetry_2
C1 C2 1_555 1_555
C2 H1 1_555 1_555
C3 C2 1_555 1_555
H2 C3 1_555 1_555
C4 C3 1_555 1_555
H3 C4 1_555 1_555
C5 C4 1_555 1_555
H4 C5 1_555 1_555
C6 C1 1_555 1_555
C7 C6 1_555 1_555
H5 C7 1_555 1_555
C8 H6 1_555 1_555
C9 C8 1_555 1_555
H7 C9 1_555 1_555
H8 C9 1_555 1_555
C10 C9 1_555 1_555
H9 C10 1_555 1_555
H10 C10 1_555 1_555
C11 C10 1_555 1_555
H11 C11 1_555 1_555
H12 C11 1_555 1_555
C12 C11 1_555 1_555
H13 C12 1_555 1_555
H14 C12 1_555 1_555
C13 C8 1_555 1_555
H15 C13 1_555 1_555
C14 H16 1_555 1_555
C15 C14 1_555 1_555
C16 C15 1_555 1_555
H17 C16 1_555 1_555
C17 C16 1_555 1_555
H18 C17 1_555 1_555
C18 C17 1_555 1_555
H19 C18 1_555 1_555
C19 C18 1_555 1_555
H20 C19 1_555 1_555
C20 C15 1_555 1_555
Cl1 Nd1 1_555 1_555
Nd1 O1 1_555 1_555
N1 C7 1_555 1_555
N2 C13 1_555 1_555
N3 O3 1_555 1_555
O1 C1 1_555 1_555
O2 C20 1_555 1_555
O3 Nd1 1_555 1_555
O4 Nd1 1_555 1_555
O5 N3 1_555 1_555
C1F C2F 1_555 1_555
C2F H1F 1_555 1_555
C3F C2F 1_555 1_555
H2F C3F 1_555 1_555
C4F C3F 1_555 1_555
H3F C4F 1_555 1_555
C5F C4F 1_555 1_555
H4F C5F 1_555 1_555
C6F C1F 1_555 1_555
C7F C6F 1_555 1_555
H5F C7F 1_555 1_555
C8F H6F 1_555 1_555
C9F C8F 1_555 1_555
H7F C9F 1_555 1_555
H8F C9F 1_555 1_555
C10F C9F 1_555 1_555
H9F C10F 1_555 1_555
H10F C10F 1_555 1_555
C11F C10F 1_555 1_555
H11F C11F 1_555 1_555
H12F C11F 1_555 1_555
C12F C11F 1_555 1_555
H13F C12F 1_555 1_555
H14F C12F 1_555 1_555
C13F C8F 1_555 1_555
H15F C13F 1_555 1_555
C14F H16F 1_555 1_555
C15F C14F 1_555 1_555
C16F C15F 1_555 1_555
H17F C16F 1_555 1_555
C17F C16F 1_555 1_555
H18F C17F 1_555 1_555
C18F C17F 1_555 1_555
H19F C18F 1_555 1_555
C19F C18F 1_555 1_555
H20F C19F 1_555 1_555
C20F C15F 1_555 1_555
N1F C7F 1_555 1_555
N2F C13F 1_555 1_555
N3F O3F 1_555 1_555
O1F Nd1 1_555 1_555
O2F C20F 1_555 1_555
O3F Nd1 1_555 1_555
O4F Nd1 1_555 1_555
O5F N3F 1_555 1_555
Nd1B O2 1_555 1_555
Nd1C O2F 1_555 1_555
O2C Nd1 1_555 1_555
O2D Nd1 1_555 1_555
C5 C6 1_555 1_555
C8 N1 1_555 1_555
C12 C13 1_555 1_555
C14 N2 1_555 1_555
C19 C20 1_555 1_555
N3 O4 1_555 1_555
C1F O1F 1_555 1_555
C5F C6F 1_555 1_555
C8F N1F 1_555 1_555
C12F C13F 1_555 1_555
C14F N2F 1_555 1_555
C19F C20F 1_555 1_555
N3F O4F 1_555 1_555

#END
