
#######################################################################
#
#                 Cambridge Crystallographic Data Centre
#                                CCDC 
#
#######################################################################
#
# If this CIF has been generated from an entry in the Cambridge 
# Structural Database, then it will include bibliographic, chemical, 
# crystal, experimental, refinement or atomic coordinate data resulting 
# from the CCDC's data processing and validation procedures.
#
#######################################################################

data_FOXHUX
_chemical_formula_moiety         '(C40 H44 Cl1 La1 N6 O10)n'
_symmetry_cell_setting           tetragonal
_symmetry_space_group_name_H-M   'P 43 21 2'
_symmetry_Int_Tables_number      96
_space_group_name_Hall           'P 4nw 2abw'
loop_
_symmetry_equiv_pos_site_id
_symmetry_equiv_pos_as_xyz
1 x,y,z
2 -x,-y,1/2+z
3 1/2-y,1/2+x,3/4+z
4 1/2+y,1/2-x,1/4+z
5 1/2-x,1/2+y,3/4-z
6 1/2+x,1/2-y,1/4-z
7 y,x,-z
8 -y,-x,1/2-z
_cell_length_a                   18.1798(2)
_cell_length_b                   18.1798(2)
_cell_length_c                   16.4174(3)
_cell_angle_alpha                90
_cell_angle_beta                 90
_cell_angle_gamma                90
_cell_volume                     5426.03
loop_
_atom_site_label
_atom_site_type_symbol
_atom_site_fract_x
_atom_site_fract_y
_atom_site_fract_z
_atom_site_U_iso_or_equiv
_atom_site_thermal_displace_type
O1 O 0.2626(10) 0.2243(5) 0.7413(6) 0.0750 Uiso
C1 C 0.2059(3) 0.4085(3) 1.0452(3) 0.0437 Uani
C2 C 0.1573(4) 0.4098(4) 1.1113(4) 0.0610 Uani
H1 H 0.1407 0.3655 1.1329 0.0730 Uiso
C3 C 0.1339(4) 0.4729(4) 1.1441(5) 0.0760 Uani
H2 H 0.1025 0.4708 1.1887 0.0910 Uiso
C4 C 0.1541(5) 0.5400(4) 1.1153(5) 0.0917 Uani
H3 H 0.1354 0.5827 1.1386 0.1100 Uiso
C5 C 0.2017(4) 0.5439(4) 1.0522(5) 0.0733 Uani
H4 H 0.2174 0.5896 1.0337 0.0880 Uiso
C6 C 0.2280(3) 0.4794(3) 1.0141(4) 0.0473 Uani
C7 C 0.2797(3) 0.4847(3) 0.9500(3) 0.0497 Uani
H5 H 0.2921 0.5316 0.9319 0.0590 Uiso
C8 C 0.3702(3) 0.4329(4) 0.8528(4) 0.0523 Uani
H6 H 0.3870 0.4840 0.8490 0.0630 Uiso
C9 C 0.4341(4) 0.3859(5) 0.8809(5) 0.0743 Uani
H7 H 0.4530 0.4059 0.9314 0.0890 Uiso
H8 H 0.4161 0.3367 0.8921 0.0890 Uiso
C10 C 0.4962(5) 0.3808(6) 0.8203(6) 0.1003 Uani
H9 H 0.5189 0.4287 0.8135 0.1200 Uiso
H10 H 0.5333 0.3469 0.8400 0.1200 Uiso
C11 C 0.4673(5) 0.3553(4) 0.7429(7) 0.1037 Uani
H11 H 0.4487 0.3056 0.7496 0.1240 Uiso
H12 H 0.5069 0.3537 0.7034 0.1240 Uiso
C12 C 0.4037(4) 0.4056(4) 0.7089(4) 0.0723 Uani
H13 H 0.4226 0.4544 0.6976 0.0870 Uiso
H14 H 0.3848 0.3850 0.6586 0.0870 Uiso
C13 C 0.3424(3) 0.4101(3) 0.7721(4) 0.0547 Uani
H15 H 0.3205 0.3611 0.7777 0.0660 Uiso
C14 C 0.2236(4) 0.4376(3) 0.7127(4) 0.0637 Uani
H16 H 0.2150 0.3873 0.7150 0.0760 Uiso
C15 C 0.1674(4) 0.4810(4) 0.6767(4) 0.0573 Uani
C16 C 0.1062(4) 0.4472(4) 0.6425(5) 0.0773 Uani
H17 H 0.1026 0.3962 0.6452 0.0930 Uiso
C17 C 0.0527(5) 0.4843(6) 0.6062(5) 0.0923 Uani
H18 H 0.0137 0.4594 0.5821 0.1110 Uiso
C18 C 0.0552(4) 0.5602(5) 0.6045(5) 0.0780 Uani
H19 H 0.0169 0.5867 0.5811 0.0940 Uiso
C19 C 0.1160(4) 0.5974(4) 0.6380(4) 0.0637 Uani
H20 H 0.1180 0.6484 0.6347 0.0760 Uiso
C20 C 0.1728(3) 0.5603(3) 0.6758(3) 0.0497 Uani
Cl1 Cl 0.10338(7) 0.10338(7) 1.0000 0.0636 Uani
La1 La 0.215199(16) 0.215199(16) 1.0000 0.0395 Uani
N1 N 0.3112(3) 0.4292(3) 0.9145(3) 0.0493 Uani
N2 N 0.2856(3) 0.4602(2) 0.7426(3) 0.0497 Uani
N3 N 0.2342(3) 0.2224(3) 0.8148(3) 0.0703 Uani
O2 O 0.2321(2) 0.34906(18) 1.0147(2) 0.0486 Uani
O3 O 0.2289(2) 0.5939(2) 0.7094(2) 0.0507 Uani
O4 O 0.2397(2) 0.2790(2) 0.8560(2) 0.0620 Uani
O5 O 0.2207(3) 0.1625(2) 0.8513(2) 0.0673 Uani
O1F O 0.2243(5) 0.2626(10) 1.2587(6) 0.0750 Uiso
C1F C 0.4085(3) 0.2059(3) 0.9548(3) 0.0437 Uani
C2F C 0.4098(4) 0.1573(4) 0.8887(4) 0.0610 Uani
H1F H 0.3655 0.1407 0.8671 0.0730 Uiso
C3F C 0.4729(4) 0.1339(4) 0.8559(5) 0.0760 Uani
H2F H 0.4708 0.1025 0.8113 0.0910 Uiso
C4F C 0.5400(4) 0.1541(5) 0.8847(5) 0.0917 Uani
H3F H 0.5827 0.1354 0.8614 0.1100 Uiso
C5F C 0.5439(4) 0.2017(4) 0.9478(5) 0.0733 Uani
H4F H 0.5896 0.2174 0.9663 0.0880 Uiso
C6F C 0.4794(3) 0.2280(3) 0.9859(4) 0.0473 Uani
C7F C 0.4847(3) 0.2797(3) 1.0500(3) 0.0497 Uani
H5F H 0.5316 0.2921 1.0681 0.0590 Uiso
C8F C 0.4329(4) 0.3702(3) 1.1472(4) 0.0523 Uani
H6F H 0.4840 0.3870 1.1510 0.0630 Uiso
C9F C 0.3859(5) 0.4341(4) 1.1191(5) 0.0743 Uani
H7F H 0.4059 0.4530 1.0686 0.0890 Uiso
H8F H 0.3367 0.4161 1.1079 0.0890 Uiso
C10F C 0.3808(6) 0.4962(5) 1.1797(6) 0.1003 Uani
H9F H 0.4287 0.5189 1.1865 0.1200 Uiso
H10F H 0.3469 0.5333 1.1600 0.1200 Uiso
C11F C 0.3553(4) 0.4673(5) 1.2571(7) 0.1037 Uani
H11F H 0.3056 0.4487 1.2504 0.1240 Uiso
H12F H 0.3537 0.5069 1.2966 0.1240 Uiso
C12F C 0.4056(4) 0.4037(4) 1.2911(4) 0.0723 Uani
H13F H 0.4544 0.4226 1.3024 0.0870 Uiso
H14F H 0.3850 0.3848 1.3414 0.0870 Uiso
C13F C 0.4101(3) 0.3424(3) 1.2279(4) 0.0547 Uani
H15F H 0.3611 0.3205 1.2223 0.0660 Uiso
C14F C 0.4376(3) 0.2236(4) 1.2873(4) 0.0637 Uani
H16F H 0.3873 0.2150 1.2850 0.0760 Uiso
C15F C 0.4810(4) 0.1674(4) 1.3233(4) 0.0573 Uani
C16F C 0.4472(4) 0.1062(4) 1.3575(5) 0.0773 Uani
H17F H 0.3962 0.1026 1.3548 0.0930 Uiso
C17F C 0.4843(6) 0.0527(5) 1.3938(5) 0.0923 Uani
H18F H 0.4594 0.0137 1.4179 0.1110 Uiso
C18F C 0.5602(5) 0.0552(4) 1.3955(5) 0.0780 Uani
H19F H 0.5867 0.0169 1.4189 0.0940 Uiso
C19F C 0.5974(4) 0.1160(4) 1.3620(4) 0.0637 Uani
H20F H 0.6484 0.1180 1.3653 0.0760 Uiso
C20F C 0.5603(3) 0.1728(3) 1.3242(3) 0.0497 Uani
N1F N 0.4292(3) 0.3112(3) 1.0855(3) 0.0493 Uani
N2F N 0.4602(2) 0.2856(3) 1.2574(3) 0.0497 Uani
N3F N 0.2224(3) 0.2342(3) 1.1852(3) 0.0703 Uani
O2F O 0.34906(18) 0.2321(2) 0.9853(2) 0.0486 Uani
O3F O 0.5939(2) 0.2289(2) 1.2906(2) 0.0507 Uani
O4F O 0.2790(2) 0.2397(2) 1.1440(2) 0.0620 Uani
O5F O 0.1625(2) 0.2207(3) 1.1487(2) 0.0673 Uani
La1B La 0.284801(16) 0.715199(16) 0.7500 0.0395 Uani
La1C La 0.715199(16) 0.284801(16) 1.2500 0.0395 Uani
O3C O 0.0939(2) 0.2711(2) 0.9594(2) 0.0507 Uani
O3D O 0.2711(2) 0.0939(2) 1.0406(2) 0.0507 Uani
loop_
_atom_site_aniso_label
_atom_site_aniso_U_11
_atom_site_aniso_U_22
_atom_site_aniso_U_33
_atom_site_aniso_U_23
_atom_site_aniso_U_13
_atom_site_aniso_U_12
C1 0.036(3) 0.042(3) 0.053(3) -0.004(3) 0.004(3) -0.002(2)
C2 0.058(4) 0.049(4) 0.076(4) -0.004(4) 0.013(4) -0.002(3)
C3 0.071(5) 0.068(5) 0.089(5) -0.020(5) 0.020(4) 0.002(4)
C4 0.105(7) 0.061(5) 0.109(6) -0.011(5) 0.027(6) 0.027(5)
C5 0.079(5) 0.046(4) 0.095(5) -0.014(4) 0.012(5) 0.005(4)
C6 0.047(3) 0.033(3) 0.062(3) 0.005(3) 0.000(3) 0.009(2)
C7 0.048(3) 0.040(3) 0.061(3) 0.010(3) -0.002(3) 0.001(3)
C8 0.046(3) 0.047(4) 0.064(4) 0.020(3) 0.010(3) 0.002(3)
C9 0.044(4) 0.091(5) 0.088(5) 0.030(5) 0.007(4) 0.004(4)
C10 0.075(6) 0.120(8) 0.106(6) 0.061(6) 0.020(6) 0.027(5)
C11 0.086(6) 0.068(5) 0.157(8) 0.031(7) 0.055(7) 0.041(4)
C12 0.090(5) 0.053(4) 0.074(4) 0.015(4) 0.010(4) 0.016(3)
C13 0.064(4) 0.035(3) 0.065(4) 0.006(3) 0.008(3) 0.007(3)
C14 0.087(5) 0.044(3) 0.060(3) -0.007(3) 0.004(4) -0.011(4)
C15 0.066(4) 0.054(4) 0.052(3) -0.007(3) -0.006(3) -0.012(3)
C16 0.078(5) 0.064(5) 0.090(5) 0.006(4) -0.026(5) -0.019(4)
C17 0.094(6) 0.094(7) 0.089(5) -0.012(6) -0.012(5) -0.041(5)
C18 0.059(4) 0.102(7) 0.073(5) 0.008(5) -0.010(4) -0.011(4)
C19 0.055(4) 0.057(4) 0.079(4) 0.004(4) -0.008(4) -0.009(3)
C20 0.052(4) 0.053(4) 0.044(3) -0.002(3) 0.002(3) -0.006(3)
Cl1 0.0394(6) 0.0394(6) 0.1119(17) -0.0077(11) 0.0077(11) -0.0059(8)
La1 0.03467(16) 0.03467(16) 0.0492(2) -0.00209(18) 0.00209(18) -0.00340(18)
N1 0.049(3) 0.045(3) 0.054(3) 0.002(2) 0.001(2) 0.002(2)
N2 0.058(3) 0.044(2) 0.047(2) 0.000(2) 0.005(4) 0.001(2)
N3 0.098(5) 0.068(4) 0.045(2) -0.009(3) 0.011(3) -0.001(3)
O2 0.055(2) 0.0297(18) 0.061(2) -0.004(2) 0.012(2) -0.0040(16)
O3 0.044(2) 0.045(2) 0.063(2) -0.004(2) -0.004(2) -0.0015(18)
O4 0.081(3) 0.046(2) 0.059(2) -0.004(2) 0.007(2) -0.001(2)
O5 0.103(4) 0.039(2) 0.060(2) -0.005(2) 0.004(3) -0.016(2)
C1F 0.042 0.036 0.053 -0.004 0.004 -0.002
C2F 0.049 0.058 0.076 -0.013 0.004 -0.002
C3F 0.068 0.071 0.089 -0.02 0.02 0.002
C4F 0.061 0.105 0.109 -0.027 0.011 0.027
C5F 0.046 0.079 0.095 -0.012 0.014 0.005
C6F 0.033 0.047 0.062 0 -0.005 0.009
C7F 0.04 0.048 0.061 0.002 -0.01 0.001
C8F 0.047 0.046 0.064 -0.01 -0.02 0.002
C9F 0.091 0.044 0.088 -0.007 -0.03 0.004
C10F 0.12 0.075 0.106 -0.02 -0.061 0.027
C11F 0.068 0.086 0.157 -0.055 -0.031 0.041
C12F 0.053 0.09 0.074 -0.01 -0.015 0.016
C13F 0.035 0.064 0.065 -0.008 -0.006 0.007
C14F 0.044 0.087 0.06 -0.004 0.007 -0.011
C15F 0.054 0.066 0.052 0.006 0.007 -0.012
C16F 0.064 0.078 0.09 0.026 -0.006 -0.019
C17F 0.094 0.094 0.089 0.012 0.012 -0.041
C18F 0.102 0.059 0.073 0.01 -0.008 -0.011
C19F 0.057 0.055 0.079 0.008 -0.004 -0.009
C20F 0.053 0.052 0.044 -0.002 0.002 -0.006
N1F 0.045 0.049 0.054 -0.001 -0.002 0.002
N2F 0.044 0.058 0.047 -0.005 0 0.001
N3F 0.068 0.098 0.045 -0.011 0.009 -0.001
O2F 0.0297 0.055 0.061 -0.012 0.004 -0.004
O3F 0.045 0.044 0.063 0.004 0.004 -0.0015
O4F 0.046 0.081 0.059 -0.007 0.004 -0.001
O5F 0.039 0.103 0.06 -0.004 0.005 -0.016
La1B 0.03467 0.03467 0.0492 0.00209 0.00209 0.0034
La1C 0.03467 0.03467 0.0492 -0.00209 -0.00209 0.0034
O3C 0.045 0.044 0.063 0.004 -0.004 0.0015
O3D 0.044 0.045 0.063 0.004 -0.004 0.0015
loop_
_geom_bond_atom_site_label_1
_geom_bond_atom_site_label_2
_geom_bond_site_symmetry_1
_geom_bond_site_symmetry_2
O1 N3 1_555 1_555
C1 C2 1_555 1_555
C2 H1 1_555 1_555
C3 C2 1_555 1_555
H2 C3 1_555 1_555
C4 C3 1_555 1_555
H3 C4 1_555 1_555
C5 C4 1_555 1_555
H4 C5 1_555 1_555
C6 C1 1_555 1_555
C7 C6 1_555 1_555
H5 C7 1_555 1_555
C8 H6 1_555 1_555
C9 C8 1_555 1_555
H7 C9 1_555 1_555
H8 C9 1_555 1_555
C10 C9 1_555 1_555
H9 C10 1_555 1_555
H10 C10 1_555 1_555
C11 C10 1_555 1_555
H11 C11 1_555 1_555
H12 C11 1_555 1_555
C12 C11 1_555 1_555
H13 C12 1_555 1_555
H14 C12 1_555 1_555
C13 C8 1_555 1_555
H15 C13 1_555 1_555
C14 H16 1_555 1_555
C15 C14 1_555 1_555
C16 C15 1_555 1_555
H17 C16 1_555 1_555
C17 C16 1_555 1_555
H18 C17 1_555 1_555
C18 C17 1_555 1_555
H19 C18 1_555 1_555
C19 C18 1_555 1_555
H20 C19 1_555 1_555
C20 C15 1_555 1_555
Cl1 La1 1_555 1_555
La1 O2 1_555 1_555
N1 C7 1_555 1_555
N2 C13 1_555 1_555
N3 O4 1_555 1_555
O2 C1 1_555 1_555
O3 C20 1_555 1_555
O4 La1 1_555 1_555
O5 La1 1_555 1_555
O1F N3F 1_555 1_555
C1F C2F 1_555 1_555
C2F H1F 1_555 1_555
C3F C2F 1_555 1_555
H2F C3F 1_555 1_555
C4F C3F 1_555 1_555
H3F C4F 1_555 1_555
C5F C4F 1_555 1_555
H4F C5F 1_555 1_555
C6F C1F 1_555 1_555
C7F C6F 1_555 1_555
H5F C7F 1_555 1_555
C8F H6F 1_555 1_555
C9F C8F 1_555 1_555
H7F C9F 1_555 1_555
H8F C9F 1_555 1_555
C10F C9F 1_555 1_555
H9F C10F 1_555 1_555
H10F C10F 1_555 1_555
C11F C10F 1_555 1_555
H11F C11F 1_555 1_555
H12F C11F 1_555 1_555
C12F C11F 1_555 1_555
H13F C12F 1_555 1_555
H14F C12F 1_555 1_555
C13F C8F 1_555 1_555
H15F C13F 1_555 1_555
C14F H16F 1_555 1_555
C15F C14F 1_555 1_555
C16F C15F 1_555 1_555
H17F C16F 1_555 1_555
C17F C16F 1_555 1_555
H18F C17F 1_555 1_555
C18F C17F 1_555 1_555
H19F C18F 1_555 1_555
C19F C18F 1_555 1_555
H20F C19F 1_555 1_555
C20F C15F 1_555 1_555
N1F C7F 1_555 1_555
N2F C13F 1_555 1_555
N3F O4F 1_555 1_555
O2F La1 1_555 1_555
O3F C20F 1_555 1_555
O4F La1 1_555 1_555
O5F La1 1_555 1_555
La1B O3 1_555 1_555
La1C O3F 1_555 1_555
O3C La1 1_555 1_555
O3D La1 1_555 1_555
C5 C6 1_555 1_555
C8 N1 1_555 1_555
C12 C13 1_555 1_555
C14 N2 1_555 1_555
C19 C20 1_555 1_555
N3 O5 1_555 1_555
C1F O2F 1_555 1_555
C5F C6F 1_555 1_555
C8F N1F 1_555 1_555
C12F C13F 1_555 1_555
C14F N2F 1_555 1_555
C19F C20F 1_555 1_555
N3F O5F 1_555 1_555

#END
