
#######################################################################
#
#                 Cambridge Crystallographic Data Centre
#                                CCDC 
#
#######################################################################
#
# If this CIF has been generated from an entry in the Cambridge 
# Structural Database, then it will include bibliographic, chemical, 
# crystal, experimental, refinement or atomic coordinate data resulting 
# from the CCDC's data processing and validation procedures.
#
#######################################################################

data_QAJJOB
_chemical_formula_moiety         '(C6 H22 F2 In4 N2 O20 P4)n'
_symmetry_cell_setting           monoclinic
_symmetry_space_group_name_H-M   'P 21/n'
_symmetry_Int_Tables_number      14
_space_group_name_Hall           '-P 2yn'
loop_
_symmetry_equiv_pos_site_id
_symmetry_equiv_pos_as_xyz
1 x,y,z
2 1/2+x,1/2-y,1/2+z
3 -x,-y,-z
4 1/2-x,1/2+y,1/2-z
_cell_length_a                   10.3161(4)
_cell_length_b                   12.7490(3)
_cell_length_c                   17.9127(6)
_cell_angle_alpha                90
_cell_angle_beta                 102.476(2)
_cell_angle_gamma                90
_cell_volume                     2300.25
loop_
_atom_site_label
_atom_site_type_symbol
_atom_site_fract_x
_atom_site_fract_y
_atom_site_fract_z
In1 In 0.75400(4) 0.57256(3) 0.22234(2)
In2 In 1.03099(4) 0.38353(3) 0.29213(2)
In3 In 0.55673(4) 0.52146(3) 0.37411(2)
In4 In 0.13290(4) 0.64767(3) 0.07780(2)
P1 P 0.43480(14) 0.61622(11) 0.19238(8)
P2 P 0.77958(14) 0.84016(11) 0.20084(8)
P3 P 1.29745(14) 0.41037(11) 0.44159(8)
P4 P 0.91912(14) 0.45375(11) 0.10785(8)
F1 F 0.7127(3) 0.5939(3) 0.33215(19)
F2 F 0.9518(3) 0.5377(2) 0.28222(19)
O1 O 1.3263(4) 0.2950(3) 0.4668(2)
O2 O 0.3191(4) 0.5832(3) 0.1271(2)
O3 O 0.4422(4) 0.5404(3) 0.2600(2)
O4 O 1.3864(4) 0.4417(3) 0.3865(2)
O5 O 0.8210(4) 0.5420(3) 0.1206(2)
O6 O 1.1508(4) 0.4208(3) 0.4005(2)
O7 O 0.5624(4) 0.6122(3) 0.1616(2)
O8 O -0.0741(4) 0.7051(3) 0.0636(2)
O9 O 0.6324(4) 0.8407(3) 0.1607(2)
O10 O 0.8611(4) 0.4016(3) 0.0319(2)
O11 O 0.8254(4) 0.7290(3) 0.2301(2)
O12 O 0.8645(4) 0.8711(3) 0.1425(2)
O13 O 0.9392(4) 0.3717(3) 0.1723(2)
O14 O 1.3260(4) 0.4797(3) 0.5132(2)
O15 O 0.8076(4) 0.9158(3) 0.2687(2)
O16 O 0.4077(4) 0.7277(3) 0.2186(2)
O17 O 1.0549(4) 0.5037(3) 0.1077(2)
O18 O 0.4988(4) 0.6838(3) 0.3967(2)
O19 O 0.1418(4) 0.7269(4) 0.1933(3)
O20 O 1.2010(4) 0.4310(3) 0.2415(2)
O15C O 0.6924(4) 0.4158(3) 0.2313(2)
O9C O 0.8676(4) 0.3407(3) 0.3393(2)
O16C O 1.0923(4) 0.2277(3) 0.2814(2)
O4_2 O 0.3864(4) 0.4417(3) 0.3865(2)
O12C O 0.6355(4) 0.3711(3) 0.3575(2)
O14B O 0.6740(4) 0.5203(3) 0.4868(2)
O1C O 0.1737(4) 0.7950(3) 0.0332(2)
O10B O 0.1389(4) 0.5984(3) -0.0319(2)
O17_2 O 0.0549(4) 0.5037(3) 0.1077(2)
In4C In 1.36710(4) 0.14767(3) 0.42220(2)
In3_2 In 1.55673(4) 0.52146(3) 0.37411(2)
In2C In 0.46901(4) 0.88353(3) 0.20787(2)
In4B In 0.86710(4) 0.35233(3) -0.07780(2)
In3C In 0.94327(4) 1.02146(3) 0.12589(2)
In3B In 1.44327(4) 0.47854(3) 0.62589(2)
In1C In 0.74600(4) 1.07256(3) 0.27766(2)
In4_2 In 1.13290(4) 0.64767(3) 0.07780(2)
N1 N 0.4898(7) 0.7476(6) -0.1249(4)
H1 H 0.4512 0.7631 -0.1743
N2 N 0.5951(7) 0.7094(5) 0.0099(4)
H2 H 0.6337 0.6948 0.0595
C1 C 0.5697(13) 0.8434(8) -0.0878(6)
H3 H 0.6351 0.8631 -0.1169
H4 H 0.5108 0.9025 -0.0871
C2 C 0.6349(10) 0.8157(7) -0.0109(5)
H5 H 0.6124 0.8668 0.0244
H6 H 0.7303 0.8176 -0.0063
C3 C 0.4464(9) 0.7110(8) -0.0007(5)
H7 H 0.4156 0.6443 0.0150
H8 H 0.4203 0.7658 0.0306
C4 C 0.3865(8) 0.7304(8) -0.0821(5)
H9 H 0.3326 0.6707 -0.1032
H10 H 0.3294 0.7916 -0.0867
C5 C 0.5778(10) 0.6637(10) -0.1236(5)
H11 H 0.6506 0.6849 -0.1466
H12 H 0.5322 0.6055 -0.1529
C6 C 0.6318(11) 0.6293(7) -0.0408(5)
H13 H 0.5942 0.5620 -0.0316
H14 H 0.7276 0.6222 -0.0312
loop_
_geom_bond_atom_site_label_1
_geom_bond_atom_site_label_2
_geom_bond_site_symmetry_1
_geom_bond_site_symmetry_2
In1 F1 1_555 1_555
In2 F2 1_555 1_555
In3 F1 1_555 1_555
In4 O2 1_555 1_555
P1 O2 1_555 1_555
P2 O9 1_555 1_555
P3 O1 1_555 1_555
P4 O5 1_555 1_555
F2 In1 1_555 1_555
O1 In4C 1_555 1_555
O3 In3 1_555 1_555
O4 P3 1_555 1_555
O5 In1 1_555 1_555
O6 In2 1_555 1_555
O7 In1 1_555 1_555
O8 In4 1_555 1_555
O9 In2C 1_555 1_555
O10 P4 1_555 1_555
O11 In1 1_555 1_555
O12 P2 1_555 1_555
O13 In2 1_555 1_555
O14 P3 1_555 1_555
O15 P2 1_555 1_555
O16 P1 1_555 1_555
O17 P4 1_555 1_555
O18 In3 1_555 1_555
O19 In4 1_555 1_555
O20 In2 1_555 1_555
N1 H1 1_555 1_555
N2 H2 1_555 1_555
C1 N1 1_555 1_555
H3 C1 1_555 1_555
H4 C1 1_555 1_555
C2 N2 1_555 1_555
H5 C2 1_555 1_555
H6 C2 1_555 1_555
C3 N2 1_555 1_555
H7 C3 1_555 1_555
H8 C3 1_555 1_555
C4 N1 1_555 1_555
H9 C4 1_555 1_555
H10 C4 1_555 1_555
C5 N1 1_555 1_555
H11 C5 1_555 1_555
H12 C5 1_555 1_555
C6 N2 1_555 1_555
H13 C6 1_555 1_555
H14 C6 1_555 1_555
O15C In1 1_555 1_555
O9C In2 1_555 1_555
O16C In2 1_555 1_555
O4_2 In3 1_555 1_555
O12C In3 1_555 1_555
O14B In3 1_555 1_555
O1C In4 1_555 1_555
O10B In4 1_555 1_555
O17_2 In4 1_555 1_555
In3_2 O4 1_555 1_555
In2C O16 1_555 1_555
In4B O10 1_555 1_555
In3C O12 1_555 1_555
In3B O14 1_555 1_555
In1C O15 1_555 1_555
In4_2 O17 1_555 1_555
P1 O3 1_555 1_555
P1 O7 1_555 1_555
P2 O11 1_555 1_555
P3 O6 1_555 1_555
P4 O13 1_555 1_555
C1 C2 1_555 1_555
C3 C4 1_555 1_555
C5 C6 1_555 1_555

#END
