
#######################################################################
#
#                 Cambridge Crystallographic Data Centre
#                                CCDC 
#
#######################################################################
#
# If this CIF has been generated from an entry in the Cambridge 
# Structural Database, then it will include bibliographic, chemical, 
# crystal, experimental, refinement or atomic coordinate data resulting 
# from the CCDC's data processing and validation procedures.
#
#######################################################################

data_TEBSAW
_chemical_formula_moiety         '(C12 H24 N16 O2 S2 Zn2)n'
_symmetry_cell_setting           monoclinic
_symmetry_space_group_name_H-M   'P 21/n'
_symmetry_Int_Tables_number      14
_space_group_name_Hall           '-P 2yn'
loop_
_symmetry_equiv_pos_site_id
_symmetry_equiv_pos_as_xyz
1 x,y,z
2 1/2-x,1/2+y,1/2-z
3 -x,-y,-z
4 1/2+x,1/2-y,1/2+z
_cell_length_a                   13.9806(5)
_cell_length_b                   10.7868(4)
_cell_length_c                   17.9066(7)
_cell_angle_alpha                90
_cell_angle_beta                 111.6050(10)
_cell_angle_gamma                90
_cell_volume                     2510.7
loop_
_atom_site_label
_atom_site_type_symbol
_atom_site_fract_x
_atom_site_fract_y
_atom_site_fract_z
_atom_site_U_iso_or_equiv
_atom_site_thermal_displace_type
Zn1 Zn 0.730576(14) 0.278111(16) 0.823694(10) 0.0104 Uani
Zn2 Zn 0.240751(14) 0.233049(16) 0.669473(10) 0.0103 Uani
N1 N 0.40285(11) 0.27129(12) 0.70635(8) 0.0139 Uani
N2 N 0.42532(11) 0.39408(12) 0.70614(8) 0.0167 Uani
N3 N 0.52462(11) 0.40875(12) 0.73707(8) 0.0159 Uani
N4 N 0.57015(11) 0.29621(12) 0.75834(8) 0.0134 Uani
C1 C 0.49327(12) 0.21344(14) 0.73823(9) 0.0125 Uani
C2 C 0.50764(13) 0.07642(15) 0.74692(10) 0.0182 Uani
H1 H 0.4403 0.0358 0.7296 0.0270 Uiso
H2 H 0.5469 0.0560 0.8033 0.0270 Uiso
H3 H 0.5452 0.0475 0.7136 0.0270 Uiso
N5 N 0.76096(10) 0.45201(12) 0.79759(8) 0.0123 Uani
N6 N 0.79788(11) 0.53612(12) 0.85811(8) 0.0155 Uani
N7 N 0.79717(11) 0.64526(12) 0.82713(8) 0.0151 Uani
N8 N 0.75932(10) 0.63464(12) 0.74576(8) 0.0122 Uani
C3 C 0.73728(12) 0.51541(14) 0.72896(9) 0.0116 Uani
C4 C 0.69495(14) 0.46209(15) 0.64658(10) 0.0184 Uani
H4 H 0.6328 0.5076 0.6143 0.0280 Uiso
H5 H 0.6778 0.3746 0.6496 0.0280 Uiso
H6 H 0.7464 0.4689 0.6216 0.0280 Uiso
N9 N 0.24890(10) 0.05019(12) 0.69698(8) 0.0122 Uani
N10 N 0.21551(11) -0.03620(12) 0.63782(8) 0.0181 Uani
N11 N 0.22453(12) -0.14553(13) 0.67065(8) 0.0178 Uani
N12 N 0.26397(10) -0.13265(12) 0.75172(8) 0.0119 Uani
C5 C 0.27799(12) -0.01163(14) 0.76619(9) 0.0125 Uani
C6 C 0.31977(16) 0.04512(16) 0.84720(10) 0.0267 Uani
H7 H 0.2644 0.0545 0.8680 0.0400 Uiso
H8 H 0.3488 0.1267 0.8438 0.0400 Uiso
H9 H 0.3737 -0.0083 0.8833 0.0400 Uiso
N13 N 0.71732(10) 0.24404(12) 0.93029(8) 0.0123 Uani
N14 N 0.64150(11) 0.16576(13) 0.93158(8) 0.0159 Uani
N15 N 0.64137(11) 0.16143(13) 1.00387(8) 0.0156 Uani
N16 N 0.71730(10) 0.23703(12) 1.05183(8) 0.0123 Uani
C7 C 0.76321(12) 0.28619(14) 1.00511(9) 0.0119 Uani
C8 C 0.85102(13) 0.37467(16) 1.03276(9) 0.0171 Uani
H10 H 0.9156 0.3285 1.0561 0.0260 Uiso
H11 H 0.8430 0.4302 1.0734 0.0260 Uiso
H12 H 0.8522 0.4236 0.9870 0.0260 Uiso
S1 S 0.00072(3) 0.16828(4) 0.55929(2) 0.0177 Uani
O1 O 0.07339(9) 0.22167(11) 0.63832(7) 0.0178 Uani
C9 C -0.06865(16) 0.04728(19) 0.58459(12) 0.0305 Uani
H13 H -0.0217 -0.0212 0.6097 0.0460 Uiso
H14 H -0.1234 0.0175 0.5358 0.0460 Uiso
H15 H -0.0990 0.0790 0.6222 0.0460 Uiso
C10 C -0.09997(16) 0.2791(2) 0.52336(12) 0.0322 Uani
H16 H -0.1313 0.2913 0.5636 0.0480 Uiso
H17 H -0.1522 0.2492 0.4732 0.0480 Uiso
H18 H -0.0719 0.3580 0.5135 0.0480 Uiso
S2 S 0.99195(3) 0.30267(4) 0.87935(3) 0.0191 Uani
O2 O 0.90242(9) 0.24404(10) 0.89441(7) 0.0170 Uani
C11 C 0.99334(19) 0.23759(19) 0.78833(14) 0.0355 Uani
H19 H 0.9926 0.1469 0.7917 0.0530 Uiso
H20 H 1.0557 0.2643 0.7800 0.0530 Uiso
H21 H 0.9326 0.2657 0.7433 0.0530 Uiso
C12 C 1.10320(18) 0.2283(3) 0.94781(19) 0.0653 Uani
H22 H 1.1097 0.2474 1.0030 0.0980 Uiso
H23 H 1.1643 0.2580 0.9388 0.0980 Uiso
H24 H 1.0969 0.1384 0.9393 0.0980 Uiso
Zn1A Zn 0.769424(14) 0.778111(16) 0.676306(10) 0.0104 Uani
Zn2A Zn 0.259249(14) -0.266951(16) 0.830527(10) 0.0103 Uani
Zn2C Zn 0.740751(14) 0.266951(16) 1.169473(10) 0.0103 Uani
N8A N 0.74068(10) 0.13464(12) 0.75424(8) 0.0122 Uani
N12A N 0.23603(10) 0.36735(12) 0.74828(8) 0.0119 Uani
N16C N 0.21730(10) 0.26297(12) 0.55183(8) 0.0123 Uani
loop_
_atom_site_aniso_label
_atom_site_aniso_U_11
_atom_site_aniso_U_22
_atom_site_aniso_U_33
_atom_site_aniso_U_23
_atom_site_aniso_U_13
_atom_site_aniso_U_12
Zn1 0.01375(10) 0.00917(9) 0.00897(9) -0.00058(6) 0.00500(7) -0.00095(6)
Zn2 0.01346(10) 0.00906(9) 0.00830(9) 0.00020(6) 0.00404(7) 0.00027(6)
N1 0.0159(7) 0.0109(6) 0.0151(7) 0.0001(5) 0.0058(5) 0.0004(5)
N2 0.0155(7) 0.0121(6) 0.0224(7) 0.0008(5) 0.0068(6) -0.0003(5)
N3 0.0160(7) 0.0135(6) 0.0182(7) 0.0000(5) 0.0064(6) 0.0013(5)
N4 0.0155(7) 0.0107(6) 0.0143(7) 0.0001(5) 0.0060(5) 0.0008(5)
C1 0.0125(7) 0.0137(7) 0.0107(7) -0.0017(6) 0.0036(6) -0.0008(6)
C2 0.0150(8) 0.0128(7) 0.0234(9) -0.0019(6) 0.0031(7) 0.0000(6)
N5 0.0137(6) 0.0122(6) 0.0109(6) 0.0001(5) 0.0044(5) -0.0014(5)
N6 0.0201(7) 0.0125(6) 0.0130(7) 0.0003(5) 0.0051(5) -0.0022(5)
N7 0.0197(7) 0.0136(6) 0.0115(6) 0.0011(5) 0.0053(5) -0.0016(5)
N8 0.0141(6) 0.0122(6) 0.0108(6) 0.0005(5) 0.0050(5) 0.0000(5)
C3 0.0105(7) 0.0127(7) 0.0125(7) 0.0020(6) 0.0052(6) 0.0001(6)
C4 0.0276(9) 0.0143(7) 0.0127(8) -0.0011(6) 0.0067(7) -0.0023(7)
N9 0.0135(7) 0.0106(6) 0.0116(6) -0.0003(5) 0.0036(5) -0.0009(5)
N10 0.0261(8) 0.0125(6) 0.0133(7) 0.0003(5) 0.0046(6) -0.0030(6)
N11 0.0267(8) 0.0124(6) 0.0129(7) 0.0004(5) 0.0056(6) -0.0026(6)
N12 0.0132(6) 0.0111(6) 0.0115(6) -0.0003(5) 0.0047(5) -0.0003(5)
C5 0.0131(7) 0.0108(7) 0.0137(7) 0.0015(6) 0.0049(6) -0.0002(6)
C6 0.0471(12) 0.0146(8) 0.0137(8) -0.0011(6) 0.0057(8) -0.0038(8)
N13 0.0125(7) 0.0138(6) 0.0109(6) -0.0010(5) 0.0048(5) -0.0012(5)
N14 0.0173(7) 0.0182(7) 0.0132(7) -0.0015(5) 0.0067(5) -0.0046(5)
N15 0.0167(7) 0.0188(7) 0.0115(6) -0.0023(5) 0.0053(5) -0.0047(5)
N16 0.0126(7) 0.0138(6) 0.0105(6) -0.0012(5) 0.0043(5) -0.0011(5)
C7 0.0130(7) 0.0117(7) 0.0111(7) -0.0002(5) 0.0045(6) 0.0017(6)
C8 0.0184(8) 0.0216(8) 0.0117(7) -0.0016(6) 0.0060(6) -0.0077(7)
S1 0.0161(2) 0.0243(2) 0.01257(19) -0.00199(15) 0.00506(15) -0.00372(16)
O1 0.0152(6) 0.0252(6) 0.0121(6) -0.0021(5) 0.0041(5) -0.0017(5)
C9 0.0321(11) 0.0354(11) 0.0250(10) -0.0020(8) 0.0116(8) -0.0151(9)
C10 0.0238(10) 0.0400(12) 0.0241(10) 0.0020(8) -0.0013(8) 0.0069(9)
S2 0.0166(2) 0.0210(2) 0.0208(2) 0.00083(16) 0.00815(17) -0.00248(16)
O2 0.0150(6) 0.0204(6) 0.0167(6) 0.0019(5) 0.0072(5) -0.0008(5)
C11 0.0508(14) 0.0296(10) 0.0426(13) -0.0080(9) 0.0366(11) -0.0071(9)
C12 0.0168(12) 0.107(3) 0.0663(19) 0.0449(17) 0.0085(12) 0.0119(13)
Zn1A 0.01375 0.00917 0.00897 0.00058 0.005 0.00095
Zn2A 0.01346 0.00906 0.0083 -0.0002 0.00404 -0.00027
Zn2C 0.01346 0.00906 0.0083 -0.0002 0.00404 -0.00027
N8A 0.0141 0.0122 0.0108 -0.0005 0.005 0
N12A 0.0132 0.0111 0.0115 0.0003 0.0047 0.0003
N16C 0.0126 0.0138 0.0105 0.0012 0.0043 0.0011
loop_
_geom_bond_atom_site_label_1
_geom_bond_atom_site_label_2
_geom_bond_site_symmetry_1
_geom_bond_site_symmetry_2
Zn1 N4 1_555 1_555
Zn2 N1 1_555 1_555
N1 N2 1_555 1_555
N2 N3 1_555 1_555
N3 N4 1_555 1_555
N4 C1 1_555 1_555
C1 N1 1_555 1_555
C2 C1 1_555 1_555
H1 C2 1_555 1_555
H2 C2 1_555 1_555
H3 C2 1_555 1_555
N5 Zn1 1_555 1_555
N6 N5 1_555 1_555
N7 N6 1_555 1_555
N8 N7 1_555 1_555
C3 N5 1_555 1_555
C4 C3 1_555 1_555
H4 C4 1_555 1_555
H5 C4 1_555 1_555
H6 C4 1_555 1_555
N9 Zn2 1_555 1_555
N10 N9 1_555 1_555
N11 N10 1_555 1_555
N12 N11 1_555 1_555
C5 N9 1_555 1_555
C6 C5 1_555 1_555
H7 C6 1_555 1_555
H8 C6 1_555 1_555
H9 C6 1_555 1_555
N13 Zn1 1_555 1_555
N14 N13 1_555 1_555
N15 N14 1_555 1_555
N16 N15 1_555 1_555
C7 N13 1_555 1_555
C8 C7 1_555 1_555
H10 C8 1_555 1_555
H11 C8 1_555 1_555
H12 C8 1_555 1_555
S1 O1 1_555 1_555
O1 Zn2 1_555 1_555
C9 S1 1_555 1_555
H13 C9 1_555 1_555
H14 C9 1_555 1_555
H15 C9 1_555 1_555
C10 S1 1_555 1_555
H16 C10 1_555 1_555
H17 C10 1_555 1_555
H18 C10 1_555 1_555
S2 O2 1_555 1_555
O2 Zn1 1_555 1_555
C11 S2 1_555 1_555
H19 C11 1_555 1_555
H20 C11 1_555 1_555
H21 C11 1_555 1_555
C12 S2 1_555 1_555
H22 C12 1_555 1_555
H23 C12 1_555 1_555
H24 C12 1_555 1_555
Zn1A N8 1_555 1_555
Zn2A N12 1_555 1_555
Zn2C N16 1_555 1_555
N8A Zn1 1_555 1_555
N12A Zn2 1_555 1_555
N16C Zn2 1_555 1_555
N8 C3 1_555 1_555
N12 C5 1_555 1_555
N16 C7 1_555 1_555

#END
