
#######################################################################
#
#                 Cambridge Crystallographic Data Centre
#                                CCDC 
#
#######################################################################
#
# If this CIF has been generated from an entry in the Cambridge 
# Structural Database, then it will include bibliographic, chemical, 
# crystal, experimental, refinement or atomic coordinate data resulting 
# from the CCDC's data processing and validation procedures.
#
#######################################################################

data_NICZAA
_chemical_formula_moiety         'C12 H15 Cd1 F1 N8 O3 1-'
_symmetry_cell_setting           rhombohedral
_symmetry_space_group_name_H-M   'R -3 m'
_symmetry_Int_Tables_number      166
_space_group_name_Hall           '-R 3 2"'
loop_
_symmetry_equiv_pos_site_id
_symmetry_equiv_pos_as_xyz
1 x,y,z
2 -y,x-y,z
3 -x+y,-x,z
4 y,x,-z
5 2/3+x,1/3+y,1/3+z
6 2/3-y,1/3+x-y,1/3+z
7 2/3-x+y,1/3-x,1/3+z
8 2/3+y,1/3+x,1/3-z
9 1/3+x,2/3+y,2/3+z
10 1/3+y,2/3+x,2/3-z
11 -x+y,y,z
12 x,x-y,z
13 2/3+y,1/3-x+y,1/3-z
14 2/3+x-y,1/3+x,1/3-z
15 2/3-x+y,1/3+y,1/3+z
16 2/3+x,1/3+x-y,1/3+z
17 1/3-x+y,2/3+y,2/3+z
18 1/3+x,2/3+x-y,2/3+z
19 -x,-y,-z
20 y,-x+y,-z
21 x-y,x,-z
22 -y,-x,z
23 1/3-x,2/3-y,2/3-z
24 1/3+y,2/3-x+y,2/3-z
25 1/3+x-y,2/3+x,2/3-z
26 1/3-y,2/3-x,2/3+z
27 2/3-x,1/3-y,1/3-z
28 2/3-y,1/3-x,1/3+z
29 x-y,-y,-z
30 -x,-x+y,-z
31 1/3-y,2/3+x-y,2/3+z
32 1/3-x+y,2/3-x,2/3+z
33 1/3+x-y,2/3-y,2/3-z
34 1/3-x,2/3-x+y,2/3-z
35 2/3+x-y,1/3-y,1/3-z
36 2/3-x,1/3-x+y,1/3-z
_cell_length_a                   11.958(2)
_cell_length_b                   11.958(2)
_cell_length_c                   25.035(3)
_cell_angle_alpha                90
_cell_angle_beta                 90
_cell_angle_gamma                120.00
_cell_volume                     3100.24
loop_
_atom_site_label
_atom_site_type_symbol
_atom_site_fract_x
_atom_site_fract_y
_atom_site_fract_z
_atom_site_U_iso_or_equiv
_atom_site_thermal_displace_type
F1 F 0.6667 0.3333 0.1386(4) 0.0563 Uani
O1 O 0.4540(5) 0.9079(10) -0.0422(4) 0.1084 Uani
O2 O 0.7892(5) 0.5785(10) 0.1196(5) 0.1167 Uani
O3 O 0.3333 0.6667 -0.0077(9) 0.1238 Uani
Cd1 Cd 0.0000 0.0000 0.0000 0.0125 Uani
N1 N 0.0944(3) 0.1887(5) 0.0507(2) 0.0335 Uani
C1 C 0.1054(3) 0.2108(6) 0.1028(3) 0.0364 Uani
H1 H 0.0553(3) 0.1489(6) 0.1292(3) 0.0160 Uiso
N2 N 0.1994(6) 0.3357(6) 0.1133(2) 0.0222 Uani
C2 C 0.1799(12) 0.3071(9) 0.0275(3) 0.0418 Uani
H2 H 0.1947(12) 0.3212(9) -0.0098(3) 0.0160 Uiso
C3 C 0.2398(10) 0.4007(9) 0.0657(3) 0.0386 Uani
H3 H 0.2967(10) 0.4905(9) 0.0604(3) 0.0160 Uiso
C4 C 0.2413(8) 0.3912(8) 0.1671(3) 0.0236 Uani
H4 H 0.3106(8) 0.3752(8) 0.1796(3) 0.0290 Uiso
H5 H 0.1678(8) 0.3481(8) 0.1922(3) 0.0290 Uiso
C5 C 0.2903(7) 0.5344(6) 0.1669(3) 0.0148 Uani
N1A N -0.1887(5) -0.0943(6) 0.0507(2) 0.0335 Uani
N1B N 0.0943(6) -0.0944(3) 0.0507(2) 0.0335 Uani
N1C N 0.1887(5) 0.0944(3) -0.0507(2) 0.0335 Uani
N1R N -0.0944(3) -0.1887(5) -0.0507(2) 0.0335 Uani
N1T N -0.0943(6) 0.0944(3) -0.0507(2) 0.0335 Uani
C2J C 0.1272(15) 0.3071(9) 0.0275(3) 0.0418 Uani
H1J H 0.0936(7) 0.1489(6) 0.1292(3) 0.0160 Uiso
N2J N 0.1363(8) 0.3357(6) 0.1133(2) 0.0222 Uani
C3J C 0.1609(13) 0.4007(9) 0.0657(3) 0.0386 Uani
C4J C 0.1499(11) 0.3912(8) 0.1671(3) 0.0236 Uani
H2J H 0.1265(15) 0.3212(9) -0.0098(3) 0.0160 Uiso
H5J H 0.1803(11) 0.3481(8) 0.1922(3) 0.0290 Uiso
C5J C 0.2441(9) 0.5344(6) 0.1669(3) 0.0148 Uani
H4IA H 0.3561(8) 0.3979(11) 0.1537(3) 0.0290 Uiso
C5L C 0.2011(6) 0.5774(9) 0.1664(3) 0.0148 Uani
C5M C 0.4226(9) 0.6236(7) 0.1664(3) 0.0148 Uani
C5IA C 0.3764(7) 0.5774(9) 0.1664(3) 0.0148 Uani
loop_
_atom_site_aniso_label
_atom_site_aniso_U_11
_atom_site_aniso_U_22
_atom_site_aniso_U_33
_atom_site_aniso_U_23
_atom_site_aniso_U_13
_atom_site_aniso_U_12
F1 0.058(3) 0.058(3) 0.053(5) 0.000 0.000 0.029(2)
O1 0.112(6) 0.085(7) 0.120(8) 0.022(6) 0.011(3) 0.043(3)
O2 0.119(7) 0.074(6) 0.142(9) 0.052(6) 0.026(3) 0.037(3)
O3 0.111(10) 0.111(10) 0.150(19) 0.000 0.000 0.056(5)
Cd1 0.0121(4) 0.0121(4) 0.0132(5) 0.000 0.000 0.0060(2)
N1 0.048(3) 0.019(3) 0.024(3) -0.006(2) -0.0029(10) 0.0097(13)
C1 0.056(4) 0.016(3) 0.024(3) 0.001(2) 0.0007(11) 0.0082(14)
N2 0.027(4) 0.016(3) 0.020(3) -0.001(2) 0.000(2) 0.008(2)
C2 0.066(12) 0.026(4) 0.020(3) 0.001(3) 0.002(4) 0.013(4)
C3 0.059(6) 0.021(4) 0.025(4) -0.001(3) 0.002(4) 0.012(4)
C4 0.032(4) 0.020(4) 0.016(3) 0.000(3) -0.007(3) 0.011(3)
C5 0.017(6) 0.016(3) 0.011(2) 0.001(2) -0.003(3) 0.008(2)
N1A 0.019 0.0476 0.024 0.0031 0.006 0.0093
N1B 0.0476 0.048 0.024 0.0029 -0.0031 0.0383
N1C 0.019 0.048 0.024 0.0029 0.006 0.0097
N1R 0.0476 0.019 0.024 -0.006 -0.0031 0.0093
N1T 0.048 0.0476 0.024 0.0031 -0.0029 0.0383
C2J 0.066 0.026 0.02 0.001 -0.001 0.013
N2J 0.027 0.016 0.02 -0.001 -0.001 0.008
C3J 0.056 0.021 0.025 -0.001 -0.003 0.009
C4J 0.03 0.02 0.016 0 0.007 0.009
C5J 0.017 0.016 0.011 0.001 0.004 0.008
C5L 0.016 0.017 0.011 -0.004 -0.001 0.008
C5M 0.017 0.017 0.011 0.003 0.004 0.009
C5IA 0.017 0.017 0.011 -0.004 -0.003 0.009
loop_
_geom_bond_atom_site_label_1
_geom_bond_atom_site_label_2
_geom_bond_site_symmetry_1
_geom_bond_site_symmetry_2
Cd1 N1 1_555 1_555
N1 C1 1_555 1_555
C1 H1 1_555 1_555
H1 H1J 1_555 1_555
N2 C1 1_555 1_555
C2 N1 1_555 1_555
H2 C2 1_555 1_555
C3 N2 1_555 1_555
H3 C3 1_555 1_555
C4 N2 1_555 1_555
H4 C4 1_555 1_555
H5 C4 1_555 1_555
C5 C4 1_555 1_555
N1A Cd1 1_555 1_555
N1B Cd1 1_555 1_555
N1C Cd1 1_555 1_555
N1R Cd1 1_555 1_555
N1T Cd1 1_555 1_555
C2J N1 1_555 1_555
H1J C1 1_555 1_555
N2J C1 1_555 1_555
C3J N2 1_555 1_555
C4J N2 1_555 1_555
H2J C2 1_555 1_555
H5J C4 1_555 1_555
C5J C4 1_555 1_555
H4IA H4 1_555 1_555
C5L C5 1_555 1_555
C5M C5 1_555 1_555
C5IA C5 1_555 1_555
N2 N2J 1_555 1_555
C2 C2J 1_555 1_555
C2 C3 1_555 1_555
C2 C3J 1_555 1_555
H2 C2J 1_555 1_555
H2 H2J 1_555 1_555
C3 N2J 1_555 1_555
C3 C2J 1_555 1_555
C3 C3J 1_555 1_555
C4 N2J 1_555 1_555
C4 C4J 1_555 1_555
H5 C4J 1_555 1_555
H5 H5J 1_555 1_555
C5 C4J 1_555 1_555
C5 C5J 1_555 1_555
C2J H2J 1_555 1_555
C2J C3J 1_555 1_555
N2J C3J 1_555 1_555
N2J C4J 1_555 1_555
C4J H5J 1_555 1_555
C4J C5J 1_555 1_555
C5J C5IA 1_555 1_555
C5J C5L 1_555 1_555
C5M C5IA 1_555 1_555

#END
