
#######################################################################
#
#                 Cambridge Crystallographic Data Centre
#                                CCDC 
#
#######################################################################
#
# If this CIF has been generated from an entry in the Cambridge 
# Structural Database, then it will include bibliographic, chemical, 
# crystal, experimental, refinement or atomic coordinate data resulting 
# from the CCDC's data processing and validation procedures.
#
#######################################################################

data_FOCREW
_chemical_formula_moiety         '(C38 H35 Nd1 O12)n'
_symmetry_cell_setting           triclinic
_symmetry_space_group_name_H-M   'P -1'
_symmetry_Int_Tables_number      2
_space_group_name_Hall           '-P 1'
loop_
_symmetry_equiv_pos_site_id
_symmetry_equiv_pos_as_xyz
1 x,y,z
2 -x,-y,-z
_cell_length_a                   10.55610(10)
_cell_length_b                   10.53780(10)
_cell_length_c                   16.8962(11)
_cell_angle_alpha                83.205(6)
_cell_angle_beta                 76.425(5)
_cell_angle_gamma                69.971(5)
_cell_volume                     1715.02
loop_
_atom_site_label
_atom_site_type_symbol
_atom_site_fract_x
_atom_site_fract_y
_atom_site_fract_z
Nd1 Nd 0.37227(2) 0.39760(2) 0.48162(2)
O1 O 0.4137(3) 0.6063(3) 0.43769(16)
O2 O 0.1346(3) 0.5648(3) 0.48602(19)
O3 O 0.4021(5) 0.1688(4) 0.4320(2)
O4 O 0.5231(3) 0.2163(3) 0.55784(17)
O5 O 0.5949(3) 0.3375(3) 0.39126(16)
O6 O 0.2949(3) 0.5137(3) 0.60928(16)
O7 O 0.3137(3) 0.4118(3) 0.34296(16)
O8 O 0.2220(3) 0.2908(3) 0.57916(17)
C1 C 0.0843(19) 0.7180(16) 0.5052(12)
H1 H 0.3325 0.1394 0.4581
H2 H 0.4037 0.1744 0.3786
C2 C 0.2895(4) 0.3931(4) 0.2787(2)
H3 H 0.1578 0.7403 0.5219
H4 H 0.0616 0.7748 0.4562
C3 C -0.0452(17) 0.7452(18) 0.5751(10)
C4 C 0.3932(4) 0.3012(4) 0.2161(2)
O9 O 0.1726(3) 0.4532(4) 0.2572(2)
H5 H -0.1163 0.7204 0.5585
H6 H -0.0804 0.8413 0.5870
H7 H -0.0208 0.6910 0.6239
C5 C 0.3522(4) 0.2698(4) 0.1505(2)
C6 C 0.5301(4) 0.2453(4) 0.2236(2)
H8 H 0.118(5) 0.502(5) 0.290(3)
H9 H 0.2587 0.3076 0.1454
C7 C 0.4477(4) 0.1832(4) 0.0926(2)
H10 H 0.5581 0.2647 0.2691
C8 C 0.6260(4) 0.1609(4) 0.1644(2)
H11 H 0.4186 0.1619 0.0482
C9 C 0.5863(4) 0.1267(4) 0.0985(2)
H12 H 0.7199 0.1258 0.1687
C10 C 0.6865(4) 0.0431(4) 0.0316(2)
C11 C 0.7909(4) -0.0804(4) 0.0429(2)
C12 C 0.6774(4) 0.0917(4) -0.0480(2)
C13 C 0.8103(4) -0.1447(4) 0.1245(2)
C14 C 0.8802(4) -0.1435(4) -0.0262(2)
C15 C 0.7658(4) 0.0274(4) -0.1169(2)
H13 H 0.6063 0.1739 -0.0556
C16 C 0.7011(4) -0.1600(5) 0.1854(3)
C17 C 0.9414(4) -0.1916(4) 0.1417(2)
C18 C 0.8726(4) -0.0933(4) -0.1060(2)
H14 H 0.9509 -0.2261 -0.0188
C19 C 0.7353(4) 0.0881(4) -0.1976(2)
H15 H 0.6109 -0.1308 0.1746
C20 C 0.7218(4) -0.2171(5) 0.2613(3)
C21 C 0.9631(4) -0.2522(4) 0.2169(2)
H16 H 1.0174 -0.1819 0.1012
C22 C 0.9805(4) -0.1685(4) -0.1741(2)
C23 C 0.7294(4) 0.0109(4) -0.2569(2)
C24 C 0.6968(4) 0.2282(4) -0.2114(2)
C25 C 0.8542(4) -0.2650(4) 0.2781(2)
H17 H 0.6454 -0.2238 0.3024
H18 H 1.0541 -0.2855 0.2267
C26 C 1.0504(4) -0.0995(4) -0.2352(2)
C27 C 1.0185(4) -0.3089(4) -0.1766(2)
C28 C 0.6826(4) 0.0708(4) -0.3267(2)
H19 H 0.7579 -0.0848 -0.2495
H20 H 0.7007 0.2827 -0.1716
C29 C 0.6532(4) 0.2894(4) -0.2820(2)
C30 C 0.8761(4) -0.3242(4) 0.3610(2)
H21 H 1.0242 -0.0038 -0.2356
C31 C 1.1568(4) -0.1700(4) -0.2949(2)
H22 H 0.9735 -0.3574 -0.1352
C32 C 1.1218(4) -0.3781(4) -0.2391(2)
C33 C 0.6442(4) 0.2114(4) -0.3398(2)
H23 H 0.6765 0.0164 -0.3658
H24 H 0.6295 0.3846 -0.2907
O10 O 0.9945(3) -0.4040(3) 0.36627(17)
C34 C 1.1920(4) -0.3099(4) -0.2981(2)
H25 H 1.2066 -0.1228 -0.3342
H26 H 1.1444 -0.4732 -0.2412
C35 C 0.5826(4) 0.2768(4) -0.4116(2)
C36 C 1.3072(4) -0.3843(4) -0.3653(2)
O1A O 0.5863(3) 0.3937(3) 0.56231(16)
O8A O 0.7780(3) -0.2908(3) 0.42084(17)
Nd1A Nd 0.62773(2) -0.39760(2) 0.51838(2)
O4_2 O 0.5231(3) 0.2163(3) -0.44216(17)
O1A_2 O 0.5863(3) 0.3937(3) -0.43769(16)
Nd1A_2 Nd 0.62773(2) 0.60240(2) -0.48162(2)
O5A O 1.4051(3) -0.3375(3) -0.39126(16)
O6_2 O 1.2949(3) -0.4863(3) -0.39072(16)
Nd1_2 Nd 0.37227(2) 0.39760(2) -0.51838(2)
Nd1A_3 Nd 1.62773(2) -0.39760(2) -0.48162(2)
Nd1_3 Nd 1.37227(2) -0.60240(2) -0.51838(2)
O14 O 0.3391(9) 0.0010(8) 0.5700(5)
O18 O 0.9074(11) 0.4824(11) -0.0135(7)
C41 C 0.7753(15) 0.5379(15) 0.0369(9)
C42 C 0.690(3) 0.450(3) 0.022(2)
loop_
_geom_bond_atom_site_label_1
_geom_bond_atom_site_label_2
_geom_bond_site_symmetry_1
_geom_bond_site_symmetry_2
Nd1 O1 1_555 1_555
O2 Nd1 1_555 1_555
O3 Nd1 1_555 1_555
O4 Nd1 1_555 1_555
O5 Nd1 1_555 1_555
O6 Nd1 1_555 1_555
O7 Nd1 1_555 1_555
O8 Nd1 1_555 1_555
C1 O2 1_555 1_555
H1 O3 1_555 1_555
H2 O3 1_555 1_555
C2 O7 1_555 1_555
H3 C1 1_555 1_555
H4 C1 1_555 1_555
C3 C1 1_555 1_555
C4 C2 1_555 1_555
O9 C2 1_555 1_555
H5 C3 1_555 1_555
H6 C3 1_555 1_555
H7 C3 1_555 1_555
C5 C4 1_555 1_555
C6 C4 1_555 1_555
H8 O9 1_555 1_555
H9 C5 1_555 1_555
C7 C5 1_555 1_555
H10 C6 1_555 1_555
C8 C6 1_555 1_555
H11 C7 1_555 1_555
C9 C7 1_555 1_555
H12 C8 1_555 1_555
C10 C9 1_555 1_555
C11 C10 1_555 1_555
C12 C10 1_555 1_555
C13 C11 1_555 1_555
C14 C11 1_555 1_555
C15 C12 1_555 1_555
H13 C12 1_555 1_555
C16 C13 1_555 1_555
C17 C13 1_555 1_555
C18 C14 1_555 1_555
H14 C14 1_555 1_555
C19 C15 1_555 1_555
H15 C16 1_555 1_555
C20 C16 1_555 1_555
C21 C17 1_555 1_555
H16 C17 1_555 1_555
C22 C18 1_555 1_555
C23 C19 1_555 1_555
C24 C19 1_555 1_555
C25 C20 1_555 1_555
H17 C20 1_555 1_555
H18 C21 1_555 1_555
C26 C22 1_555 1_555
C27 C22 1_555 1_555
C28 C23 1_555 1_555
H19 C23 1_555 1_555
H20 C24 1_555 1_555
C29 C24 1_555 1_555
C30 C25 1_555 1_555
H21 C26 1_555 1_555
C31 C26 1_555 1_555
H22 C27 1_555 1_555
C32 C27 1_555 1_555
C33 C28 1_555 1_555
H23 C28 1_555 1_555
H24 C29 1_555 1_555
O10 C30 1_555 1_555
C34 C31 1_555 1_555
H25 C31 1_555 1_555
H26 C32 1_555 1_555
C35 C33 1_555 1_555
C36 C34 1_555 1_555
O18 C41 1_555 1_555
C41 C42 1_555 1_555
O1A Nd1 1_555 1_555
O8A C30 1_555 1_555
Nd1A O8A 1_555 1_555
O4_2 C35 1_555 1_555
O1A_2 C35 1_555 1_555
Nd1A_2 O1A_2 1_555 1_555
O5A C36 1_555 1_555
O6_2 C36 1_555 1_555
Nd1_2 O4_2 1_555 1_555
Nd1A_3 O5A 1_555 1_555
Nd1_3 O6_2 1_555 1_555
C8 C9 1_555 1_555
C15 C18 1_555 1_555
C21 C25 1_555 1_555
C29 C33 1_555 1_555
C32 C34 1_555 1_555
O1A_2 Nd1_2 1_555 1_555

#END
