
#######################################################################
#
#                 Cambridge Crystallographic Data Centre
#                                CCDC 
#
#######################################################################
#
# If this CIF has been generated from an entry in the Cambridge 
# Structural Database, then it will include bibliographic, chemical, 
# crystal, experimental, refinement or atomic coordinate data resulting 
# from the CCDC's data processing and validation procedures.
#
#######################################################################

data_FOCZEE
_chemical_formula_moiety         '(C34 H19 Nd1 O8)n'
_symmetry_cell_setting           triclinic
_symmetry_space_group_name_H-M   'P -1'
_symmetry_Int_Tables_number      2
_space_group_name_Hall           '-P 1'
loop_
_symmetry_equiv_pos_site_id
_symmetry_equiv_pos_as_xyz
1 x,y,z
2 -x,-y,-z
_cell_length_a                   9.6812(6)
_cell_length_b                   12.2892(7)
_cell_length_c                   15.7406(10)
_cell_angle_alpha                88.977(2)
_cell_angle_beta                 77.463(2)
_cell_angle_gamma                69.750(2)
_cell_volume                     1711.72
loop_
_atom_site_label
_atom_site_type_symbol
_atom_site_fract_x
_atom_site_fract_y
_atom_site_fract_z
Nd1 Nd 0.29837(2) 0.97316(2) 0.51569(2)
O1 O 0.1586(3) 0.8666(2) 0.60666(18)
O2 O 0.0149(3) 0.7628(2) 0.59312(18)
H1 H -0.0139 0.8130 0.5577
O3 O 0.2557(3) 0.0531(2) 0.66238(18)
O4 O 0.4615(3) 0.0820(2) 0.59129(18)
O5 O 0.3040(3) 0.1368(2) 1.43780(18)
O6 O 0.5175(3) 0.1745(2) 1.42478(17)
O7 O 0.1972(3) 0.9047(2) 1.40907(18)
O8 O -0.0312(3) 0.8899(2) 1.45652(17)
C1 C 0.2294(4) 0.5437(3) 0.9382(2)
C2 C 0.2695(4) 0.4226(3) 0.9438(2)
C3 C 0.2904(4) 0.3760(3) 1.0231(2)
H2 H 0.3203 0.2940 1.0258
C4 C 0.2702(4) 0.4423(3) 1.0991(2)
C5 C 0.2250(4) 0.5634(3) 1.0951(2)
C6 C 0.2080(4) 0.6097(3) 1.0142(2)
H3 H 0.1800 0.6916 1.0111
C7 C 0.2005(4) 0.6037(3) 0.8575(2)
C8 C 0.1218(4) 0.5710(3) 0.8039(3)
H4 H 0.0883 0.5074 0.8180
C9 C 0.0924(4) 0.6300(3) 0.7306(2)
H5 H 0.0380 0.6074 0.6950
C10 C 0.1423(4) 0.7231(3) 0.7084(2)
C11 C 0.2207(4) 0.7572(3) 0.7609(3)
H6 H 0.2551 0.8202 0.7462
C12 C 0.2482(4) 0.6979(3) 0.8352(3)
H7 H 0.3003 0.7218 0.8715
C13 C 0.1081(4) 0.7898(3) 0.6319(3)
C14 C 0.2956(4) 0.3395(3) 0.8690(2)
C15 C 0.4041(4) 0.3283(3) 0.7932(3)
H8 H 0.4627 0.3772 0.7865
C16 C 0.4287(5) 0.2468(3) 0.7267(3)
H9 H 0.5078 0.2373 0.6766
C17 C 0.3394(4) 0.1791(3) 0.7327(2)
C18 C 0.2277(4) 0.1903(3) 0.8084(3)
H10 H 0.1649 0.1448 0.8130
C19 C 0.2077(4) 0.2681(3) 0.8772(3)
H11 H 0.1348 0.2729 0.9295
C20 C 0.3534(4) 0.0981(3) 0.6585(2)
C21 C 0.3016(4) 0.3786(3) 1.1789(2)
C22 C 0.2585(4) 0.2830(3) 1.1981(3)
H12 H 0.2083 0.2590 1.1605
C23 C 0.2863(4) 0.2220(3) 1.2700(3)
H13 H 0.2525 0.1584 1.2827
C24 C 0.3636(4) 0.2527(3) 1.3245(2)
C25 C 0.4134(4) 0.3449(3) 1.3043(2)
H14 H 0.4704 0.3646 1.3396
C26 C 0.3811(4) 0.4087(3) 1.2330(2)
H15 H 0.4131 0.4734 1.2210
C27 C 0.3974(4) 0.1833(3) 1.4023(2)
C28 C 0.1862(4) 0.6453(3) 1.1718(2)
C29 C 0.0875(4) 0.6368(3) 1.2484(2)
H16 H 0.0454 0.5771 1.2517
C30 C 0.0498(4) 0.7148(3) 1.3203(2)
H17 H -0.0219 0.7105 1.3709
C31 C 0.1166(4) 0.7990(3) 1.3182(2)
C32 C 0.2151(4) 0.8083(3) 1.2415(3)
H18 H 0.2609 0.8657 1.2390
C33 C 0.2462(4) 0.7342(3) 1.1690(3)
H19 H 0.3095 0.7439 1.1163
C34 C 0.0926(4) 0.8712(3) 1.3996(2)
Nd1_2 Nd 0.29837(2) -0.02684(2) 0.51569(2)
Nd1_3 Nd 0.29837(2) -0.02684(2) 1.51569(2)
Nd1_4 Nd 0.29837(2) 0.97316(2) 1.51569(2)
Nd1A Nd -0.29837(2) 1.02684(2) 1.48431(2)
Nd1A_2 Nd 0.70163(2) 0.02684(2) 0.48431(2)
Nd1A_3 Nd 0.70163(2) 0.02684(2) 1.48431(2)
O3_2 O 0.2557(3) 1.0531(2) 0.66238(18)
O4_2 O 0.4615(3) 1.0820(2) 0.59129(18)
O4A O 0.5385(3) 0.9180(2) 0.40871(18)
O5_2 O 0.3040(3) 1.1368(2) 0.43780(18)
O6A O 0.4825(3) 0.8255(2) 0.57522(17)
O7_2 O 0.1972(3) 0.9047(2) 0.40907(18)
O8A O 0.0312(3) 1.1101(2) 0.54348(17)
loop_
_geom_bond_atom_site_label_1
_geom_bond_atom_site_label_2
_geom_bond_site_symmetry_1
_geom_bond_site_symmetry_2
Nd1 O1 1_555 1_555
O1 C13 1_555 1_555
O2 H1 1_555 1_555
O3 C20 1_555 1_555
O4 C20 1_555 1_555
O5 C27 1_555 1_555
O6 C27 1_555 1_555
O7 C34 1_555 1_555
O8 C34 1_555 1_555
C1 C2 1_555 1_555
C2 C3 1_555 1_555
C3 H2 1_555 1_555
C4 C3 1_555 1_555
C5 C4 1_555 1_555
C6 C1 1_555 1_555
H3 C6 1_555 1_555
C7 C1 1_555 1_555
C8 C7 1_555 1_555
H4 C8 1_555 1_555
C9 C8 1_555 1_555
H5 C9 1_555 1_555
C10 C9 1_555 1_555
C11 C10 1_555 1_555
H6 C11 1_555 1_555
C12 C7 1_555 1_555
H7 C12 1_555 1_555
C13 O2 1_555 1_555
C14 C2 1_555 1_555
C15 C14 1_555 1_555
H8 C15 1_555 1_555
C16 C15 1_555 1_555
H9 C16 1_555 1_555
C17 C16 1_555 1_555
C18 C17 1_555 1_555
H10 C18 1_555 1_555
C19 C14 1_555 1_555
H11 C19 1_555 1_555
C20 C17 1_555 1_555
C21 C4 1_555 1_555
C22 C21 1_555 1_555
H12 C22 1_555 1_555
C23 C22 1_555 1_555
H13 C23 1_555 1_555
C24 C23 1_555 1_555
C25 C24 1_555 1_555
H14 C25 1_555 1_555
C26 C21 1_555 1_555
H15 C26 1_555 1_555
C27 C24 1_555 1_555
C28 C5 1_555 1_555
C29 C28 1_555 1_555
H16 C29 1_555 1_555
C30 C29 1_555 1_555
H17 C30 1_555 1_555
C31 C30 1_555 1_555
C32 C31 1_555 1_555
H18 C32 1_555 1_555
C33 C28 1_555 1_555
H19 C33 1_555 1_555
C34 C31 1_555 1_555
Nd1_2 O3 1_555 1_555
Nd1_3 O5 1_555 1_555
Nd1_4 O7 1_555 1_555
Nd1A O8 1_555 1_555
Nd1A_2 O4 1_555 1_555
Nd1A_3 O6 1_555 1_555
O3_2 Nd1 1_555 1_555
O4_2 Nd1 1_555 1_555
O4A Nd1 1_555 1_555
O5_2 Nd1 1_555 1_555
O6A Nd1 1_555 1_555
O7_2 Nd1 1_555 1_555
O8A Nd1 1_555 1_555
O4 Nd1_2 1_555 1_555
C5 C6 1_555 1_555
C10 C13 1_555 1_555
C11 C12 1_555 1_555
C18 C19 1_555 1_555
C25 C26 1_555 1_555
C32 C33 1_555 1_555

#END
