
#######################################################################
#
#                 Cambridge Crystallographic Data Centre
#                                CCDC 
#
#######################################################################
#
# If this CIF has been generated from an entry in the Cambridge 
# Structural Database, then it will include bibliographic, chemical, 
# crystal, experimental, refinement or atomic coordinate data resulting 
# from the CCDC's data processing and validation procedures.
#
#######################################################################

data_FOFDAH
_chemical_formula_moiety         '(C36 H33 Ce1 O13)n'
_symmetry_cell_setting           triclinic
_symmetry_space_group_name_H-M   'P -1'
_symmetry_Int_Tables_number      2
_space_group_name_Hall           '-P 1'
loop_
_symmetry_equiv_pos_site_id
_symmetry_equiv_pos_as_xyz
1 x,y,z
2 -x,-y,-z
_cell_length_a                   10.57830(10)
_cell_length_b                   10.42710(10)
_cell_length_c                   16.9210(11)
_cell_angle_alpha                83.158(6)
_cell_angle_beta                 76.314(5)
_cell_angle_gamma                70.023(5)
_cell_volume                     1702.8
loop_
_atom_site_label
_atom_site_type_symbol
_atom_site_fract_x
_atom_site_fract_y
_atom_site_fract_z
Ce1 Ce 0.37416(2) 0.89457(2) 0.981789(11)
O1 O 0.4205(3) 0.6601(3) 0.92374(17)
H1 H 0.494(3) 0.598(3) 0.934(2)
H2 H 0.426(4) 0.665(3) 0.8714(8)
O2 O 0.1663(3) 0.9559(4) 0.75827(19)
H3 H 0.128(6) 0.996(6) 0.785(4)
O3 O 0.3076(3) 0.9115(3) 0.84407(14)
O4 O 0.7793(2) 0.2206(2) 0.92440(14)
O5 O 0.9928(3) 0.1014(3) 0.86819(15)
O6 O 1.4035(3) 0.1559(3) 0.11215(14)
O7 O 1.2944(2) 0.0056(3) 0.11323(14)
O8 O 0.5869(2) 0.8894(2) 0.06084(14)
O9 O 0.5304(3) 0.7065(3) 0.05623(15)
C1 C 0.6851(4) 0.5466(4) 0.5318(2)
C2 C 0.7880(4) 0.4220(4) 0.5445(2)
C3 C 0.8783(3) 0.3559(4) 0.4761(2)
H4 H 0.9468 0.2744 0.4841
C4 C 0.8719(4) 0.4050(4) 0.3961(2)
C5 C 0.7665(4) 0.5273(4) 0.3837(2)
C6 C 0.6767(4) 0.5942(4) 0.4522(2)
H5 H 0.6074 0.6751 0.4441
C7 C 0.5844(4) 0.6329(4) 0.5978(2)
C8 C 0.6229(4) 0.6703(4) 0.6632(2)
H6 H 0.7148 0.6375 0.6672
C9 C 0.5271(4) 0.7546(4) 0.7215(2)
H7 H 0.5543 0.7770 0.7650
C10 C 0.3890(4) 0.8064(3) 0.7155(2)
C11 C 0.3491(4) 0.7725(4) 0.6502(2)
H8 H 0.2577 0.8082 0.6452
C12 C 0.4454(4) 0.6859(4) 0.5928(2)
H9 H 0.4175 0.6622 0.5500
C13 C 0.2846(4) 0.8964(4) 0.7789(2)
C14 C 0.8078(4) 0.3591(4) 0.6268(2)
C15 C 0.6981(4) 0.3500(4) 0.6893(2)
H10 H 0.6094 0.3805 0.6796
C16 C 0.7195(4) 0.2960(4) 0.7656(2)
H11 H 0.6447 0.2944 0.8073
C17 C 0.8521(4) 0.2439(3) 0.7806(2)
C18 C 0.9620(4) 0.2501(4) 0.7180(2)
H12 H 1.0512 0.2151 0.7269
C19 C 0.9394(4) 0.3081(4) 0.6426(2)
H13 H 1.0139 0.3130 0.6016
C20 C 0.8761(4) 0.1840(4) 0.8632(2)
C21 C 0.9803(4) 0.3285(4) 0.32844(19)
C22 C 1.0188(4) 0.1861(4) 0.3271(2)
H14 H 0.9752 0.1386 0.3683
C23 C 1.1206(4) 0.1155(4) 0.2653(2)
H15 H 1.1414 0.0216 0.2634
C24 C 1.1925(3) 0.1840(4) 0.2057(2)
C25 C 1.1575(4) 0.3246(4) 0.2077(2)
H16 H 1.2058 0.3710 0.1687
C26 C 1.0509(4) 0.3965(4) 0.2676(2)
H17 H 1.0262 0.4912 0.2672
C27 C 1.3059(4) 0.1087(4) 0.13871(19)
C28 C 0.7358(3) 0.5870(4) 0.3026(2)
C29 C 0.7345(4) 0.5063(4) 0.2425(2)
H18 H 0.7654 0.4117 0.2497
C30 C 0.6882(4) 0.5649(4) 0.1730(2)
H19 H 0.6843 0.5096 0.1350
C31 C 0.6467(3) 0.7071(4) 0.1589(2)
C32 C 0.6532(4) 0.7879(4) 0.2174(2)
H20 H 0.6289 0.8821 0.2084
C33 C 0.6953(4) 0.7288(4) 0.2882(2)
H21 H 0.6967 0.7840 0.3270
C34 C 0.5860(3) 0.7707(4) 0.0871(2)
O10 O 0.1323(3) 1.0673(3) 0.98932(16)
H22 H 0.120(7) 1.150(5) 0.969(9)
H23 H 0.066(8) 1.066(10) 1.031(6)
Ce1_2 Ce 0.37416(2) 0.89457(2) -0.018211(11)
Ce1_3 Ce 1.37416(2) -0.10543(2) -0.018211(11)
Ce1A Ce 0.62584(2) 0.10543(2) 1.018211(11)
Ce1A_2 Ce 0.62584(2) 1.10543(2) 0.018211(11)
Ce1A_3 Ce 1.62584(2) 0.10543(2) 0.018211(11)
O4A O 0.2207(2) 0.7794(2) 1.07560(14)
O6A O 0.5965(3) 0.8441(3) 0.88785(14)
O7_2 O 0.2944(2) 1.0056(3) 1.11323(14)
O8_2 O 0.5869(2) 0.8894(2) 1.06084(14)
O8A O 0.4131(2) 1.1106(2) 0.93916(14)
O9_2 O 0.5304(3) 0.7065(3) 1.05623(15)
O11 O 0.6757(4) 0.5040(4) 0.9369(3)
H24 H 0.720(7) 0.511(7) 0.978(4)
H25 H 0.650(7) 0.400(7) 0.950(4)
O12 O 0.4841(7) 0.9689(9) 0.4246(4)
H26 H 0.4868 0.9810 0.4711
C35 C 0.3501(9) 0.9647(11) 0.4233(6)
H27 H 0.3296 0.9987 0.3703
H28 H 0.3519 0.8705 0.4305
C36 C 0.2420(8) 1.0432(11) 0.4848(6)
H29 H 0.1835 1.1209 0.4595
H30 H 0.2813 1.0736 0.5216
H31 H 0.1890 0.9875 0.5142
O13 O 0.1300(15) 1.3531(15) 1.0152(10)
loop_
_geom_bond_atom_site_label_1
_geom_bond_atom_site_label_2
_geom_bond_site_symmetry_1
_geom_bond_site_symmetry_2
Ce1 O1 1_555 1_555
O1 H1 1_555 1_555
H2 O1 1_555 1_555
O2 H3 1_555 1_555
O3 Ce1 1_555 1_555
O4 C20 1_555 1_555
O5 C20 1_555 1_555
O6 C27 1_555 1_555
O7 C27 1_555 1_555
O8 C34 1_555 1_555
O9 C34 1_555 1_555
C1 C2 1_555 1_555
C2 C3 1_555 1_555
C3 H4 1_555 1_555
C4 C3 1_555 1_555
C5 C4 1_555 1_555
C6 C1 1_555 1_555
H5 C6 1_555 1_555
C7 C1 1_555 1_555
C8 C7 1_555 1_555
H6 C8 1_555 1_555
C9 C8 1_555 1_555
H7 C9 1_555 1_555
C10 C9 1_555 1_555
C11 C10 1_555 1_555
H8 C11 1_555 1_555
C12 C7 1_555 1_555
H9 C12 1_555 1_555
C13 O2 1_555 1_555
C14 C2 1_555 1_555
C15 C14 1_555 1_555
H10 C15 1_555 1_555
C16 C15 1_555 1_555
H11 C16 1_555 1_555
C17 C16 1_555 1_555
C18 C17 1_555 1_555
H12 C18 1_555 1_555
C19 C14 1_555 1_555
H13 C19 1_555 1_555
C20 C17 1_555 1_555
C21 C4 1_555 1_555
C22 C21 1_555 1_555
H14 C22 1_555 1_555
C23 C22 1_555 1_555
H15 C23 1_555 1_555
C24 C23 1_555 1_555
C25 C24 1_555 1_555
H16 C25 1_555 1_555
C26 C21 1_555 1_555
H17 C26 1_555 1_555
C27 C24 1_555 1_555
C28 C5 1_555 1_555
C29 C28 1_555 1_555
H18 C29 1_555 1_555
C30 C29 1_555 1_555
H19 C30 1_555 1_555
C31 C30 1_555 1_555
C32 C31 1_555 1_555
H20 C32 1_555 1_555
C33 C28 1_555 1_555
H21 C33 1_555 1_555
C34 C31 1_555 1_555
O10 Ce1 1_555 1_555
H22 O10 1_555 1_555
H23 O10 1_555 1_555
O11 H24 1_555 1_555
H25 O11 1_555 1_555
O12 H26 1_555 1_555
C35 O12 1_555 1_555
H27 C35 1_555 1_555
H28 C35 1_555 1_555
C36 C35 1_555 1_555
H29 C36 1_555 1_555
H30 C36 1_555 1_555
H31 C36 1_555 1_555
Ce1_2 O8 1_555 1_555
Ce1_3 O7 1_555 1_555
Ce1A O4 1_555 1_555
Ce1A_2 O8 1_555 1_555
Ce1A_3 O6 1_555 1_555
O4A Ce1 1_555 1_555
O6A Ce1 1_555 1_555
O7_2 Ce1 1_555 1_555
O8_2 Ce1 1_555 1_555
O8A Ce1 1_555 1_555
O9_2 Ce1 1_555 1_555
O3 C13 1_555 1_555
O9 Ce1_2 1_555 1_555
C5 C6 1_555 1_555
C10 C13 1_555 1_555
C11 C12 1_555 1_555
C18 C19 1_555 1_555
C25 C26 1_555 1_555
C32 C33 1_555 1_555

#END
