
#######################################################################
#
#                 Cambridge Crystallographic Data Centre
#                                CCDC 
#
#######################################################################
#
# If this CIF has been generated from an entry in the Cambridge 
# Structural Database, then it will include bibliographic, chemical, 
# crystal, experimental, refinement or atomic coordinate data resulting 
# from the CCDC's data processing and validation procedures.
#
#######################################################################

data_ZILBED
_chemical_formula_moiety         '(C57 H74 Co2 N4 O20)n'
_symmetry_cell_setting           monoclinic
_symmetry_space_group_name_H-M   'P n'
_symmetry_Int_Tables_number      7
_space_group_name_Hall           'P -2yac'
loop_
_symmetry_equiv_pos_site_id
_symmetry_equiv_pos_as_xyz
1 x,y,z
2 1/2+x,-y,1/2+z
_cell_length_a                   17.0218(5)
_cell_length_b                   10.5990(3)
_cell_length_c                   18.3064(5)
_cell_angle_alpha                90
_cell_angle_beta                 106.0730(10)
_cell_angle_gamma                90
_cell_volume                     3173.63
loop_
_atom_site_label
_atom_site_type_symbol
_atom_site_fract_x
_atom_site_fract_y
_atom_site_fract_z
Co1 Co 0.88120(8) 0.46505(3) 0.39724(8)
Co2 Co 1.13118(9) 0.49991(12) 1.14716(8)
O1 O 0.8051(3) 0.3193(5) 0.4250(3)
O2 O 0.9569(3) 0.3205(5) 0.3692(3)
O3 O 0.8033(3) 0.4642(5) 0.2900(3)
O4 O 1.0012(3) 0.5175(5) 1.1289(3)
O5 O 0.9602(3) 0.4623(5) 0.5048(3)
O6 O 1.2614(3) 0.4843(5) 1.1649(3)
O7 O 1.1255(3) 0.3102(5) 1.1594(3)
O8 O 1.1372(3) 0.6905(4) 1.1356(3)
N1 N 0.6526(4) 0.4744(6) -0.2327(3)
N2 N 0.9499(3) -0.3881(6) 1.3628(3)
N3 N 1.3132(3) 1.3896(5) 0.9322(3)
N4 N 1.1091(3) 0.4722(6) 1.0254(3)
O9 O 1.0269(3) 0.2821(6) 0.5154(3)
O10 O 1.0119(3) 0.7335(6) 1.0627(3)
O11 O 1.2510(3) 0.2594(5) 1.2307(3)
O12 O 0.7363(3) 0.2784(6) 0.2812(3)
C1 C 1.0326(5) 0.5118(8) 0.6593(4)
H1 H 1.0261 0.5843 0.6276
C2 C 1.1232(5) 1.0241(8) 0.9610(4)
H2 H 1.0992 1.0548 0.9111
C3 C 0.6366(4) 0.5367(7) -0.1118(4)
H3 H 0.6123 0.5938 -0.0844
C4 C 1.0869(4) 0.7565(7) 1.0881(4)
C5 C 1.1756(4) 0.2387(7) 1.2062(4)
C6 C 1.0766(4) 0.4369(7) 0.8675(4)
C7 C 1.0671(4) -0.0770(7) 1.2860(4)
C8 C 1.1956(5) 1.0777(7) 1.0066(4)
C9 C 1.0017(4) 0.3755(8) 0.5416(4)
C10 C 0.7572(4) 0.3774(7) 0.2516(4)
C11 C 1.0645(4) 0.3776(7) 0.9901(4)
H4 H 1.0439 0.3188 1.0195
C12 C 1.0256(4) 0.3928(7) 0.6275(4)
C13 C 0.6999(4) 0.3751(8) -0.1961(4)
H5 H 0.7220 0.3183 -0.2253
C14 C 1.1237(4) 0.8754(7) 1.0611(4)
C15 C 1.1406(4) 0.1304(7) 1.2343(4)
C16 C 0.6222(4) 0.5504(7) -0.1896(4)
H6 H 0.5884 0.6183 -0.2137
C17 C 1.1252(5) 0.5404(8) 0.9048(4)
H7 H 1.1472 0.5997 0.8768
C18 C 0.6846(4) 0.4430(8) -0.0747(4)
C19 C 1.0614(4) 0.4204(9) 0.7844(4)
C20 C 1.2308(5) 1.0257(7) 1.0802(4)
H8 H 1.2791 1.0622 1.1124
C21 C 1.0456(4) 0.3591(8) 0.9109(4)
H9 H 1.0109 0.2914 0.8880
C22 C 0.7341(4) 0.3921(8) 0.1670(4)
C23 C 0.7160(5) 0.3553(8) -0.1201(4)
H10 H 0.7475 0.2846 -0.0970
C24 C 1.0678(5) 0.0800(7) 1.1895(5)
H11 H 1.0420 0.1160 1.1414
C25 C 1.2346(4) 1.1872(7) 0.9805(4)
C26 C 1.0490(5) 0.5258(8) 0.7372(5)
H12 H 1.0519 0.6079 0.7587
C27 C 1.0272(4) -0.1839(7) 1.3138(4)
C28 C 0.7077(5) 0.3017(8) 0.0419(4)
H13 H 0.6996 0.2289 0.0104
C29 C 0.7023(4) 0.4241(7) 0.0092(4)
C30 C 1.1967(4) 0.9262(7) 1.1044(4)
H14 H 1.2231 0.8897 1.1524
C31 C 0.7111(5) 0.5281(8) 0.0572(4)
H15 H 0.7028 0.6106 0.0361
C32 C 1.0316(5) -0.0265(7) 1.2161(4)
H16 H 0.9826 -0.0621 1.1848
C33 C 1.0569(6) 0.3038(8) 0.7538(4)
H17 H 1.0644 0.2322 0.7862
C34 C 0.9515(4) -0.3823(7) 1.2900(4)
H18 H 0.9256 -0.4464 1.2553
C35 C 1.1398(4) 0.5525(8) 0.9836(4)
H19 H 1.1730 0.6204 1.0086
C36 C 1.0274(5) -0.1969(7) 1.3892(4)
H20 H 1.0553 -0.1376 1.4263
C37 C 1.2733(5) 1.2794(7) 1.0303(5)
H21 H 1.2745 1.2754 1.0824
C38 C 0.7320(5) 0.5126(8) 0.1361(4)
H22 H 0.7447 0.5840 0.1686
C39 C 1.0861(5) 0.9226(7) 0.9909(5)
H23 H 1.0355 0.8883 0.9619
C40 C 0.9850(5) -0.3007(8) 1.4102(4)
H24 H 0.9823 -0.3061 1.4613
C41 C 0.9912(5) -0.2821(8) 1.2648(5)
H25 H 0.9936 -0.2808 1.2136
C42 C 1.2381(5) 1.1962(8) 0.9045(4)
H26 H 1.2153 1.1314 0.8691
C43 C 0.7251(5) 0.2893(9) 0.1209(5)
H27 H 0.7307 0.2074 0.1428
C44 C 1.0414(5) 0.2860(8) 0.6756(4)
H28 H 1.0415 0.2037 0.6550
C45 C 1.3260(3) 0.5710(4) 1.1908(3)
H29 H 1.3067 0.6562 1.1743
H30 H 1.3712 0.5486 1.1698
H31 H 1.3450 0.5683 1.2465
C46 C 1.1766(5) 0.0707(9) 1.3056(5)
H32 H 1.2266 0.1026 1.3373
C47 C 1.2736(4) 1.2958(7) 0.8828(4)
H33 H 1.2716 1.3031 0.8306
C48 C 1.1419(6) -0.0287(9) 1.3288(5)
H34 H 1.1688 -0.0675 1.3759
C49 C 0.9420(5) 0.2197(9) 0.3173(5)
H35 H 0.8957 0.1699 0.3233
H36 H 0.9907 0.1660 0.3270
H37 H 0.9293 0.2529 0.2653
C50 C 0.8221(6) 0.2169(8) 0.4774(5)
H38 H 0.8450 0.1464 0.4554
H39 H 0.7714 0.1899 0.4883
H40 H 0.8616 0.2441 0.5247
C51 C 0.9297(9) 0.407(2) 1.0961(9)
H41 H 0.9009 0.4246 1.0429
H42 H 0.8906 0.4070 1.1266
H43 H 0.9558 0.3237 1.0997
C52 C 1.3099(5) 1.3770(7) 1.0036(4)
H44 H 1.3349 1.4408 1.0388
Co1_2 Co 0.88120(8) -0.53495(3) 1.39724(8)
Co1A Co 1.38120(8) 1.53495(3) 0.89724(8)
Co2A Co 0.63118(9) 0.50009(12) -0.35284(8)
N1A N 1.1526(4) 0.5256(6) 1.2673(3)
N2_2 N 0.9499(3) 0.6119(6) 0.3628(3)
N3A N 0.8132(3) 0.6104(5) 0.4322(3)
O13 O 1.0351(6) -0.1267(14) 1.5734(7)
H45 H 1.0658 -0.1062 1.6161
C53 C 0.9568(6) -0.0775(15) 1.5649(14)
H46 H 0.9511 -0.0526 1.6148
H47 H 0.9158 -0.1418 1.5426
H48 H 0.9485 -0.0036 1.5314
O14 O 1.3313(4) -0.0653(9) 1.4476(4)
H49 H 1.3443 0.0104 1.4438
C54 C 1.3955(6) -0.1277(15) 1.4976(9)
H50 H 1.4187 -0.0740 1.5419
H51 H 1.4377 -0.1469 1.4721
H52 H 1.3755 -0.2064 1.5141
C55 C 0.5940(6) 0.1691(10) 0.2198(6)
O15 O 0.6494(6) 0.0433(10) 0.2657(6)
O16 O 0.9001(13) 0.1274(19) 0.8289(12)
O17 O 1.3890(10) 0.0905(16) 0.5389(9)
C56 C 1.3324(15) 0.158(3) 0.5161(15)
O18 O 0.8900(11) -0.2069(17) 0.8422(10)
O19 O 1.1406(5) 0.0900(9) 0.5640(5)
O20 O 1.2219(9) 0.1095(16) 0.7140(9)
C57 C 1.3060(11) 0.064(2) 0.7308(11)
loop_
_geom_bond_atom_site_label_1
_geom_bond_atom_site_label_2
_geom_bond_site_symmetry_1
_geom_bond_site_symmetry_2
Co1 O1 1_555 1_555
Co2 O4 1_555 1_555
O1 C50 1_555 1_555
O2 Co1 1_555 1_555
O3 Co1 1_555 1_555
O4 C51 1_555 1_555
O5 Co1 1_555 1_555
O6 Co2 1_555 1_555
O7 Co2 1_555 1_555
O8 Co2 1_555 1_555
N1 C13 1_555 1_555
N2 C34 1_555 1_555
N3 C47 1_555 1_555
N4 Co2 1_555 1_555
O9 C9 1_555 1_555
O10 C4 1_555 1_555
O11 C5 1_555 1_555
O12 C10 1_555 1_555
C1 H1 1_555 1_555
C2 H2 1_555 1_555
C3 H3 1_555 1_555
C4 O8 1_555 1_555
C5 O7 1_555 1_555
C6 C17 1_555 1_555
C7 C27 1_555 1_555
C8 C2 1_555 1_555
C9 O5 1_555 1_555
C10 O3 1_555 1_555
C11 N4 1_555 1_555
H4 C11 1_555 1_555
C12 C1 1_555 1_555
C13 H5 1_555 1_555
C14 C4 1_555 1_555
C15 C5 1_555 1_555
C16 N1 1_555 1_555
H6 C16 1_555 1_555
C17 H7 1_555 1_555
C18 C3 1_555 1_555
C19 C6 1_555 1_555
C20 C8 1_555 1_555
H8 C20 1_555 1_555
C21 C6 1_555 1_555
H9 C21 1_555 1_555
C22 C10 1_555 1_555
C23 C13 1_555 1_555
H10 C23 1_555 1_555
C24 C15 1_555 1_555
H11 C24 1_555 1_555
C25 C8 1_555 1_555
C26 C1 1_555 1_555
H12 C26 1_555 1_555
C27 C36 1_555 1_555
C28 H13 1_555 1_555
C29 C18 1_555 1_555
C30 C14 1_555 1_555
H14 C30 1_555 1_555
C31 C29 1_555 1_555
H15 C31 1_555 1_555
C32 C7 1_555 1_555
H16 C32 1_555 1_555
C33 C19 1_555 1_555
H17 C33 1_555 1_555
C34 H18 1_555 1_555
C35 N4 1_555 1_555
H19 C35 1_555 1_555
C36 H20 1_555 1_555
C37 C25 1_555 1_555
H21 C37 1_555 1_555
C38 C22 1_555 1_555
H22 C38 1_555 1_555
C39 C2 1_555 1_555
H23 C39 1_555 1_555
C40 N2 1_555 1_555
H24 C40 1_555 1_555
C41 C27 1_555 1_555
H25 C41 1_555 1_555
C42 C25 1_555 1_555
H26 C42 1_555 1_555
C43 C22 1_555 1_555
H27 C43 1_555 1_555
C44 C12 1_555 1_555
H28 C44 1_555 1_555
C45 O6 1_555 1_555
H29 C45 1_555 1_555
H30 C45 1_555 1_555
H31 C45 1_555 1_555
C46 C15 1_555 1_555
H32 C46 1_555 1_555
C47 C42 1_555 1_555
H33 C47 1_555 1_555
C48 C7 1_555 1_555
H34 C48 1_555 1_555
C49 O2 1_555 1_555
H35 C49 1_555 1_555
H36 C49 1_555 1_555
H37 C49 1_555 1_555
C50 H38 1_555 1_555
H39 C50 1_555 1_555
H40 C50 1_555 1_555
C51 H41 1_555 1_555
H42 C51 1_555 1_555
H43 C51 1_555 1_555
C52 N3 1_555 1_555
H44 C52 1_555 1_555
O13 H45 1_555 1_555
C53 O13 1_555 1_555
H46 C53 1_555 1_555
H47 C53 1_555 1_555
H48 C53 1_555 1_555
O14 H49 1_555 1_555
C54 O14 1_555 1_555
H50 C54 1_555 1_555
H51 C54 1_555 1_555
H52 C54 1_555 1_555
C55 O15 1_555 1_555
O17 C56 1_555 1_555
O20 C57 1_555 1_555
Co1_2 N2 1_555 1_555
Co1A N3 1_555 1_555
Co2A N1 1_555 1_555
N1A Co2 1_555 1_555
N2_2 Co1 1_555 1_555
N3A Co1 1_555 1_555
C3 C16 1_555 1_555
C9 C12 1_555 1_555
C11 C21 1_555 1_555
C14 C39 1_555 1_555
C17 C35 1_555 1_555
C18 C23 1_555 1_555
C19 C26 1_555 1_555
C20 C30 1_555 1_555
C24 C32 1_555 1_555
C28 C29 1_555 1_555
C28 C43 1_555 1_555
C31 C38 1_555 1_555
C33 C44 1_555 1_555
C34 C41 1_555 1_555
C36 C40 1_555 1_555
C37 C52 1_555 1_555
C46 C48 1_555 1_555

#END
