
#######################################################################
#
#                 Cambridge Crystallographic Data Centre
#                                CCDC 
#
#######################################################################
#
# If this CIF has been generated from an entry in the Cambridge 
# Structural Database, then it will include bibliographic, chemical, 
# crystal, experimental, refinement or atomic coordinate data resulting 
# from the CCDC's data processing and validation procedures.
#
#######################################################################

data_NIMTEJ
_chemical_formula_moiety         '(C28 H18 Ce2 Cu2 N4 O17)n'
_symmetry_cell_setting           monoclinic
_symmetry_space_group_name_H-M   'C 2/c'
_symmetry_Int_Tables_number      15
_space_group_name_Hall           '-C 2yc'
loop_
_symmetry_equiv_pos_site_id
_symmetry_equiv_pos_as_xyz
1 x,y,z
2 1/2+x,1/2+y,z
3 -x,y,1/2-z
4 1/2-x,1/2+y,1/2-z
5 -x,-y,-z
6 1/2-x,1/2-y,-z
7 x,-y,1/2+z
8 1/2+x,1/2-y,1/2+z
_cell_length_a                   21.1765(3)
_cell_length_b                   9.3410(3)
_cell_length_c                   17.3954(5)
_cell_angle_alpha                90
_cell_angle_beta                 106.4530(10)
_cell_angle_gamma                90
_cell_volume                     3300.08
loop_
_atom_site_label
_atom_site_type_symbol
_atom_site_fract_x
_atom_site_fract_y
_atom_site_fract_z
Ce1 Ce 0.01380(5) 0.68367(11) 0.07305(6)
Cu1 Cu 0.33504(16) 0.4296(5) -0.1359(2)
C1 C -0.0409(9) 0.356(2) 0.1186(11)
C2 C -0.0743(9) 0.2768(19) 0.1737(10)
C3 C -0.1007(10) 0.362(2) 0.2228(12)
H1 H -0.0986 0.4612 0.2204
C4 C -0.1307(11) 0.296(3) 0.2759(14)
H2 H -0.1488 0.3517 0.3084
C5 C -0.1110(13) 0.075(2) 0.2303(18)
H3 H -0.1154 -0.0241 0.2317
C6 C -0.0821(11) 0.133(2) 0.1776(13)
H4 H -0.0673 0.0735 0.1434
C7 C 0.1281(8) 0.520(2) 0.0500(10)
C8 C 0.1846(9) 0.489(2) 0.0140(11)
C9 C 0.1766(10) 0.385(3) -0.0431(15)
H5 H 0.1402 0.3251 -0.0549
C10 C 0.2238(10) 0.372(3) -0.0827(16)
H6 H 0.2181 0.3005 -0.1212
C11 C 0.2843(13) 0.551(3) -0.0134(19)
H7 H 0.3210 0.6104 -0.0023
C12 C 0.2404(11) 0.571(3) 0.0308(15)
H8 H 0.2486 0.6384 0.0716
C13 C 0.0357(8) 1.0159(18) 0.0238(10)
C14 C 0.0401(8) 0.7419(18) 0.2694(11)
N1 N -0.1334(8) 0.155(2) 0.2802(10)
N2 N 0.2780(8) 0.455(2) -0.0698(11)
O2 O -0.0184(7) 0.4725(15) 0.1351(7)
O3 O -0.0393(7) 0.2776(13) 0.0569(8)
O4 O 0.1360(6) 0.6230(17) 0.0995(8)
O5 O 0.0755(6) 0.4493(13) 0.0278(7)
O6 O 0.0641(7) 0.9265(14) 0.0763(7)
O7 O 0.0614(6) 1.1289(14) 0.0040(8)
O8 O 0.0721(6) 0.7247(13) 0.2203(7)
O9 O 0.0588(6) 0.7664(16) 0.3426(7)
Ce1D Ce -0.01380(5) 0.31633(11) -0.07305(6)
Ce1D_2 Ce -0.01380(5) 1.31633(11) -0.07305(6)
Ce1B Ce -0.01380(5) 0.68367(11) 0.42695(6)
Cu1C Cu 0.16496(16) 0.9296(5) -0.3641(2)
Cu1G Cu -0.16496(16) 0.0704(5) 0.3641(2)
Cu1D Cu -0.33504(16) 0.5704(5) 0.1359(2)
C1D C 0.0409(9) 0.644(2) -0.1186(11)
C2D C 0.0743(9) 0.7232(19) -0.1737(10)
C3D C 0.1007(10) 0.638(2) -0.2228(12)
H1D H 0.0986 0.5388 -0.2204
C4D C 0.1307(11) 0.704(3) -0.2759(14)
H2D H 0.1488 0.6483 -0.3084
C5D C 0.1110(13) 0.925(2) -0.2303(18)
H3D H 0.1154 1.0241 -0.2317
C6D C 0.0821(11) 0.867(2) -0.1776(13)
H4D H 0.0673 0.9265 -0.1434
C7D C -0.1281(8) 0.480(2) -0.0500(10)
C8D C -0.1846(9) 0.511(2) -0.0140(11)
C9D C -0.1766(10) 0.615(3) 0.0431(15)
H5D H -0.1402 0.6749 0.0549
C10D C -0.2238(10) 0.628(3) 0.0827(16)
H6D H -0.2181 0.6995 0.1212
C11D C -0.2843(13) 0.449(3) 0.0134(19)
H7D H -0.3210 0.3896 0.0023
C12D C -0.2404(11) 0.429(3) -0.0308(15)
H8D H -0.2486 0.3616 -0.0716
C13D C -0.0357(8) 0.9841(18) -0.0238(10)
C14B C -0.0401(8) 0.7419(18) 0.2306(11)
N1D N 0.1334(8) 0.845(2) -0.2802(10)
N1G N 0.3666(8) 0.345(2) -0.2198(10)
N1C N -0.3666(8) 0.655(2) 0.2198(10)
N2D N -0.2780(8) 0.545(2) 0.0698(11)
O2D O 0.0184(7) 0.5275(15) -0.1351(7)
O2B O 0.0184(7) 0.4725(15) 0.3649(7)
O3D O 0.0393(7) 0.7224(13) -0.0569(8)
O3F O -0.0393(7) 0.7224(13) 0.5569(8)
O4D O -0.1360(6) 0.3770(17) -0.0995(8)
O4B O -0.1360(6) 0.6230(17) 0.4005(8)
O5D O -0.0755(6) 0.5507(13) -0.0278(7)
O5F O 0.0755(6) 0.5507(13) 0.5278(7)
O5B O -0.0755(6) 0.4493(13) 0.4722(7)
O6D O -0.0641(7) 1.0735(14) -0.0763(7)
O6B O -0.0641(7) 0.9265(14) 0.4237(7)
O7D O -0.0614(6) 0.8711(14) -0.0040(8)
O7F O 0.0614(6) 0.8711(14) 0.5040(8)
O8B O -0.0721(6) 0.7247(13) 0.2797(7)
O9B O -0.0588(6) 0.7664(16) 0.1574(7)
O1 O -0.2063(11) 0.807(3) 0.2660(14)
loop_
_geom_bond_atom_site_label_1
_geom_bond_atom_site_label_2
_geom_bond_site_symmetry_1
_geom_bond_site_symmetry_2
Ce1 O2 1_555 1_555
Cu1 N2 1_555 1_555
C1 C2 1_555 1_555
C2 C3 1_555 1_555
C3 H1 1_555 1_555
C4 C3 1_555 1_555
H2 C4 1_555 1_555
C5 H3 1_555 1_555
C6 C2 1_555 1_555
H4 C6 1_555 1_555
C7 C8 1_555 1_555
C8 C9 1_555 1_555
C9 H5 1_555 1_555
C10 C9 1_555 1_555
H6 C10 1_555 1_555
C11 H7 1_555 1_555
C12 C8 1_555 1_555
H8 C12 1_555 1_555
C13 O6 1_555 1_555
C14 O8 1_555 1_555
N1 C4 1_555 1_555
N2 C10 1_555 1_555
O2 C1 1_555 1_555
O3 C1 1_555 1_555
O4 Ce1 1_555 1_555
O5 Ce1 1_555 1_555
O6 Ce1 1_555 1_555
O7 C13 1_555 1_555
O8 Ce1 1_555 1_555
O9 C14 1_555 1_555
Ce1D O3 1_555 1_555
Ce1D_2 O7 1_555 1_555
Ce1B O9 1_555 1_555
Cu1C N1D 1_555 1_555
Cu1G N1 1_555 1_555
Cu1D N1C 1_555 1_555
C1D C2D 1_555 1_555
C2D C3D 1_555 1_555
C3D H1D 1_555 1_555
C4D C3D 1_555 1_555
H2D C4D 1_555 1_555
C5D H3D 1_555 1_555
C6D C2D 1_555 1_555
H4D C6D 1_555 1_555
C7D C8D 1_555 1_555
C8D C9D 1_555 1_555
C9D H5D 1_555 1_555
C10D C9D 1_555 1_555
H6D C10D 1_555 1_555
C11D H7D 1_555 1_555
C12D C8D 1_555 1_555
H8D C12D 1_555 1_555
C13D C13 1_555 1_555
C14B C14 1_555 1_555
N1D C4D 1_555 1_555
N1G Cu1 1_555 1_555
N2D Cu1D 1_555 1_555
O2D Ce1D 1_555 1_555
O2B Ce1B 1_555 1_555
O3D Ce1 1_555 1_555
O3F Ce1B 1_555 1_555
O4D Ce1D 1_555 1_555
O4B Ce1B 1_555 1_555
O5D Ce1 1_555 1_555
O5F Ce1B 1_555 1_555
O5B Ce1B 1_555 1_555
O6D Ce1D_2 1_555 1_555
O6B Ce1B 1_555 1_555
O7D Ce1 1_555 1_555
O7F Ce1B 1_555 1_555
O8B Ce1B 1_555 1_555
O9B Ce1 1_555 1_555
C5 C6 1_555 1_555
C5 N1 1_555 1_555
C7 O4 1_555 1_555
C7 O5 1_555 1_555
C11 C12 1_555 1_555
C11 N2 1_555 1_555
O5 Ce1D 1_555 1_555
Ce1D O5D 1_555 1_555
C1D O2D 1_555 1_555
C1D O3D 1_555 1_555
C5D C6D 1_555 1_555
C5D N1D 1_555 1_555
C7D O4D 1_555 1_555
C7D O5D 1_555 1_555
C10D N2D 1_555 1_555
C11D C12D 1_555 1_555
C11D N2D 1_555 1_555
C13D O6D 1_555 1_555
C13D O7D 1_555 1_555
C14B O8B 1_555 1_555
C14B O9B 1_555 1_555

#END
