
#######################################################################
#
#                 Cambridge Crystallographic Data Centre
#                                CCDC 
#
#######################################################################
#
# If this CIF has been generated from an entry in the Cambridge 
# Structural Database, then it will include bibliographic, chemical, 
# crystal, experimental, refinement or atomic coordinate data resulting 
# from the CCDC's data processing and validation procedures.
#
#######################################################################

data_POBJIB
_chemical_formula_moiety         '(C4 H4 Be3 N4 O12 P4 2-)n'
_symmetry_cell_setting           monoclinic
_symmetry_space_group_name_H-M   'C 2/c'
_symmetry_Int_Tables_number      15
_space_group_name_Hall           '-C 2yc'
loop_
_symmetry_equiv_pos_site_id
_symmetry_equiv_pos_as_xyz
1 x,y,z
2 -x,y,1/2-z
3 1/2+x,1/2+y,z
4 1/2-x,1/2+y,1/2-z
5 -x,-y,-z
6 x,-y,1/2+z
7 1/2-x,1/2-y,-z
8 1/2+x,1/2-y,1/2+z
_cell_length_a                   8.7350(3)
_cell_length_b                   15.1704(6)
_cell_length_c                   13.0851(4)
_cell_angle_alpha                90
_cell_angle_beta                 101.223(5)
_cell_angle_gamma                90
_cell_volume                     1700.79
loop_
_atom_site_label
_atom_site_type_symbol
_atom_site_fract_x
_atom_site_fract_y
_atom_site_fract_z
C1 C 0.5237(12) 0.1492(6) 0.0465(8)
C2 C 0.5363(11) 0.0564(8) 0.0758(9)
N1 N 0.6514(9) 0.1951(6) 0.0132(6)
N2 N 0.5735(13) 0.0115(10) -0.0057(12)
C1D C 0.4763(12) -0.1492(6) -0.0465(8)
C2D C 0.4637(11) -0.0564(8) -0.0758(9)
N1D N 0.3486(9) -0.1951(6) -0.0132(6)
N2D N 0.4265(13) -0.0115(10) 0.0057(12)
P1 P 0.05972(11) 0.09744(5) 0.11929(6)
H1 H 0.2029 0.0787 0.2030
O1 O 0.1223(3) 0.10665(18) 0.01898(19)
O2 O -0.0548(3) 0.02280(18) 0.1188(2)
O3 O -0.0125(4) 0.18452(19) 0.1446(2)
Be1 Be 0.0562(5) 0.0824(3) -0.1032(3)
Be2 Be 0.0000 0.2427(3) 0.2500
O4 O 0.3193(4) 0.3712(3) 0.1631(2)
O5 O 0.3845(4) 0.3739(2) 0.3610(2)
O6 O 0.1163(8) 0.3233(4) 0.2659(5)
P2 P 0.27300(13) 0.35670(10) 0.26239(8)
H2 H 0.1645 0.4420 0.2609
P1A P -0.05972(11) 0.09744(5) 0.38071(6)
H1A H -0.2029 0.0787 0.2970
O1A O -0.1223(3) 0.10665(18) 0.48102(19)
O2A O 0.0548(3) 0.02280(18) 0.3812(2)
O3A O 0.0125(4) 0.18452(19) 0.3554(2)
Be1A Be -0.0562(5) 0.0824(3) 0.6032(3)
O4A O -0.3193(4) 0.3712(3) 0.3369(2)
O5A O -0.3845(4) 0.3739(2) 0.1390(2)
O6A O -0.1163(8) 0.3233(4) 0.2341(5)
P2A P -0.27300(13) 0.35670(10) 0.23761(8)
H2A H -0.1645 0.4420 0.2391
O2D O 0.0548(3) -0.02280(18) -0.1188(2)
O2E O -0.0548(3) -0.02280(18) 0.6188(2)
Be1D Be -0.0562(5) -0.0824(3) 0.1032(3)
Be1E Be 0.0562(5) -0.0824(3) 0.3968(3)
Be1F Be -0.5562(5) 0.4176(3) 0.1032(3)
Be1F_2 Be 0.4438(5) 0.4176(3) 0.1032(3)
Be1G Be -0.4438(5) 0.4176(3) 0.3968(3)
Be1G_2 Be 0.5562(5) 0.4176(3) 0.3968(3)
O4F O 0.1807(4) 0.1288(3) -0.1631(2)
O4G O -0.1807(4) 0.1288(3) 0.6631(2)
O5F O 0.1155(4) 0.1261(2) 0.6390(2)
O5G O -0.1155(4) 0.1261(2) -0.1390(2)
loop_
_geom_bond_atom_site_label_1
_geom_bond_atom_site_label_2
_geom_bond_site_symmetry_1
_geom_bond_site_symmetry_2
P1 H1 1_555 1_555
O1 P1 1_555 1_555
O2 P1 1_555 1_555
O3 P1 1_555 1_555
Be1 O1 1_555 1_555
Be2 O3 1_555 1_555
O4 P2 1_555 1_555
O5 P2 1_555 1_555
O6 Be2 1_555 1_555
P2 O6 1_555 1_555
H2 P2 1_555 1_555
C1 C2 1_555 1_555
C2 N2 1_555 1_555
N1 C1 1_555 1_555
N2 C2D 1_555 1_555
P1A H1A 1_555 1_555
O1A P1A 1_555 1_555
O2A P1A 1_555 1_555
O3A Be2 1_555 1_555
Be1A O1A 1_555 1_555
O4A P2A 1_555 1_555
O5A P2A 1_555 1_555
O6A Be2 1_555 1_555
P2A O6A 1_555 1_555
H2A P2A 1_555 1_555
O2D Be1 1_555 1_555
O2E Be1A 1_555 1_555
Be1D O2 1_555 1_555
Be1E O2A 1_555 1_555
Be1F O5A 1_555 1_555
Be1F_2 O4 1_555 1_555
Be1G O4A 1_555 1_555
Be1G_2 O5 1_555 1_555
O4F Be1 1_555 1_555
O4G Be1A 1_555 1_555
O5F Be1A 1_555 1_555
O5G Be1 1_555 1_555
C1D C2D 1_555 1_555
C2D N2D 1_555 1_555
N1D C1D 1_555 1_555
N2D C2 1_555 1_555
N2 N2D 1_555 1_555
P1A O3A 1_555 1_555

#END
