
#######################################################################
#
#                 Cambridge Crystallographic Data Centre
#                                CCDC 
#
#######################################################################
#
# If this CIF has been generated from an entry in the Cambridge 
# Structural Database, then it will include bibliographic, chemical, 
# crystal, experimental, refinement or atomic coordinate data resulting 
# from the CCDC's data processing and validation procedures.
#
#######################################################################

data_QOQBEE
_chemical_formula_moiety         'C100 H72 Co11 N11 O17 1-'
_symmetry_cell_setting           tetragonal
_symmetry_space_group_name_H-M   'I 4/m m m'
_symmetry_Int_Tables_number      139
_space_group_name_Hall           '-I 4 2'
loop_
_symmetry_equiv_pos_site_id
_symmetry_equiv_pos_as_xyz
1 x,y,z
2 -x,-y,z
3 -y,x,z
4 y,-x,z
5 -x,y,-z
6 x,-y,-z
7 y,x,-z
8 -y,-x,-z
9 1/2+x,1/2+y,1/2+z
10 1/2-x,1/2-y,1/2+z
11 1/2-y,1/2+x,1/2+z
12 1/2+y,1/2-x,1/2+z
13 1/2-x,1/2+y,1/2-z
14 1/2+x,1/2-y,1/2-z
15 1/2+y,1/2+x,1/2-z
16 1/2-y,1/2-x,1/2-z
17 -x,-y,-z
18 x,y,-z
19 y,-x,-z
20 -y,x,-z
21 x,-y,z
22 -x,y,z
23 -y,-x,z
24 y,x,z
25 1/2-x,1/2-y,1/2-z
26 1/2+x,1/2+y,1/2-z
27 1/2+y,1/2-x,1/2-z
28 1/2-y,1/2+x,1/2-z
29 1/2+x,1/2-y,1/2+z
30 1/2-x,1/2+y,1/2+z
31 1/2-y,1/2-x,1/2+z
32 1/2+y,1/2+x,1/2+z
_cell_length_a                   16.6007(2)
_cell_length_b                   16.6007(2)
_cell_length_c                   24.6892(5)
_cell_angle_alpha                90
_cell_angle_beta                 90
_cell_angle_gamma                90
_cell_volume                     6803.93
loop_
_atom_site_label
_atom_site_type_symbol
_atom_site_fract_x
_atom_site_fract_y
_atom_site_fract_z
N4 N 0.2858(2) 0.0000 0.1749(4)
O2 O 0.25036(18) -0.06373(11) 0.1798(3)
O3 O 0.35785(18) 0.0000 0.1640(4)
O2T O 0.25036(18) 0.06373(11) 0.1798(3)
Co1 Co 1.5000 -0.5000 -0.05278(2)
Co2 Co 1.0000 0.0000 0.0000
O1 O 1.41443(6) -0.41443(6) -0.04498(6)
N1 N 1.00000(13) -0.1185 0.0000
N2 N 1.0000 0.0000 -0.08026(11)
N3 N 1.0000 -0.0000 -0.36479(13)
C1 C 1.06499(11) -0.16908(12) 0.0000
C2 C 1.03942(12) -0.25156(13) 0.0000
H1 H 1.0734 -0.2976 0.0000
C3 C 1.14462(12) -0.14462(12) 0.0000
C4 C 1.20941(12) -0.20941(12) 0.0000
C5 C 1.23847(11) -0.23847(11) 0.04737(12)
H2 H 1.2180 -0.2180 0.0805
C6 C 1.29714(10) -0.29714(10) 0.04854(11)
H3 H 1.3170 -0.3170 0.0821
C7 C 1.32680(12) -0.32680(12) 0.0000
C8 C 1.38980(11) -0.38980(11) 0.0000
C9 C 0.95182(18) 0.04818(18) -0.10826(18)
H4 H 0.9169 0.0831 -0.0889
C10 C 0.94997(17) 0.05003(17) -0.16130(19)
H5 H 0.9139 0.0861 -0.1786
C11 C 1.0000 0.0000 -0.19400(18)
C12 C 1.0000 -0.0000 -0.25311(18)
C13 C 0.9332(3) -0.0212(5) -0.2829(2)
H6 H 0.8854 -0.0366 -0.2644
C14 C 0.9338(3) 0.0206(4) -0.3382(2)
H7 H 0.8866 -0.0351 -0.3577
Co1D Co 1.5000 -0.5000 0.05278(2)
Co1L Co 1.0000 0.0000 -0.44722(2)
Co1D_2 Co 1.5000 0.5000 0.05278(2)
Co1_2 Co 1.5000 0.5000 -0.05278(2)
Co1D_3 Co 0.5000 0.5000 0.05278(2)
Co1_3 Co 0.5000 0.5000 -0.05278(2)
Co1D_4 Co 0.5000 -0.5000 0.05278(2)
Co1_4 Co 0.5000 -0.5000 -0.05278(2)
Co1H Co 1.0000 0.0000 0.44722(2)
O1G O 1.41443(6) -0.41443(6) 0.04498(6)
O1E O 1.41443(6) 0.41443(6) 0.04498(6)
O1B O 1.41443(6) 0.41443(6) -0.04498(6)
O1F O 0.58557(6) 0.41443(6) 0.04498(6)
O1A O 0.58557(6) 0.41443(6) -0.04498(6)
O1D O 0.58557(6) -0.41443(6) 0.04498(6)
O1C O 0.58557(6) -0.41443(6) -0.04498(6)
O1A_2 O 1.58557(6) -0.58557(6) -0.04498(6)
O1B_2 O 1.41443(6) -0.58557(6) -0.04498(6)
O1C_2 O 1.58557(6) -0.41443(6) -0.04498(6)
O1F_2 O 1.58557(6) -0.58557(6) 0.04498(6)
O1D_2 O 1.58557(6) -0.41443(6) 0.04498(6)
O1E_2 O 1.41443(6) -0.58557(6) 0.04498(6)
N1C N 0.8815 0.00000(13) 0.0000
N1A N 1.00000(13) 0.1185 0.0000
N1B N 1.1185 0.00000(13) 0.0000
N2D N 1.0000 0.0000 0.08026(11)
N3D N 1.0000 0.0000 0.36479(13)
N3L N 1.5000 -0.5000 -0.13521(13)
N3H N 1.5000 -0.5000 0.13521(13)
C1D C 0.93501(11) -0.16908(12) 0.0000
C1C C 0.83092(12) -0.06499(11) 0.0000
C1F C 0.83092(12) 0.06499(11) 0.0000
C1A C 0.93501(11) 0.16908(12) 0.0000
C1E C 1.06499(11) 0.16908(12) 0.0000
C1B C 1.16908(12) 0.06499(11) 0.0000
C1G C 1.16908(12) -0.06499(11) 0.0000
C2D C 0.96058(12) -0.25156(13) 0.0000
C2F C 0.74844(13) 0.03942(12) 0.0000
C2C C 0.74844(13) -0.03942(12) 0.0000
C2E C 1.03942(12) 0.25156(13) 0.0000
C2A C 0.96058(12) 0.25156(13) 0.0000
C2G C 1.25156(13) -0.03942(12) 0.0000
C2B C 1.25156(13) 0.03942(12) 0.0000
H1D H 0.9266 -0.2976 0.0000
H1C H 0.7024 -0.0734 0.0000
H1F H 0.7024 0.0734 0.0000
H1A H 0.9266 0.2976 0.0000
H1E H 1.0734 0.2976 0.0000
H1B H 1.2976 0.0734 0.0000
H1G H 1.2976 -0.0734 0.0000
C3C C 0.85538(12) -0.14462(12) 0.0000
C3A C 0.85538(12) 0.14462(12) 0.0000
C3B C 1.14462(12) 0.14462(12) 0.0000
C4B C 1.20941(12) 0.20941(12) 0.0000
C4A C 0.79059(12) 0.20941(12) 0.0000
C4C C 0.79059(12) -0.20941(12) 0.0000
C5E C 1.23847(11) 0.23847(11) -0.04737(12)
C5B C 1.23847(11) 0.23847(11) 0.04737(12)
C5F C 0.76153(11) 0.23847(11) -0.04737(12)
C5A C 0.76153(11) 0.23847(11) 0.04737(12)
C5D C 0.76153(11) -0.23847(11) -0.04737(12)
C5C C 0.76153(11) -0.23847(11) 0.04737(12)
C5G C 1.23847(11) -0.23847(11) -0.04737(12)
H2E H 1.2180 0.2180 -0.0805
H2B H 1.2180 0.2180 0.0805
H2F H 0.7820 0.2180 -0.0805
H2A H 0.7820 0.2180 0.0805
H2D H 0.7820 -0.2180 -0.0805
H2C H 0.7820 -0.2180 0.0805
H2G H 1.2180 -0.2180 -0.0805
C6E C 1.29714(10) 0.29714(10) -0.04854(11)
C6B C 1.29714(10) 0.29714(10) 0.04854(11)
C6F C 0.70286(10) 0.29714(10) -0.04854(11)
C6A C 0.70286(10) 0.29714(10) 0.04854(11)
C6D C 0.70286(10) -0.29714(10) -0.04854(11)
C6C C 0.70286(10) -0.29714(10) 0.04854(11)
C6G C 1.29714(10) -0.29714(10) -0.04854(11)
H3E H 1.3170 0.3170 -0.0821
H3B H 1.3170 0.3170 0.0821
H3F H 0.6830 0.3170 -0.0821
H3A H 0.6830 0.3170 0.0821
H3D H 0.6830 -0.3170 -0.0821
H3C H 0.6830 -0.3170 0.0821
H3G H 1.3170 -0.3170 -0.0821
C7B C 1.32680(12) 0.32680(12) 0.0000
C7A C 0.67320(12) 0.32680(12) 0.0000
C7C C 0.67320(12) -0.32680(12) 0.0000
C8B C 1.38980(11) 0.38980(11) 0.0000
C8A C 0.61020(11) 0.38980(11) 0.0000
C8C C 0.61020(11) -0.38980(11) 0.0000
C9C C 1.04818(18) 0.04818(18) -0.10826(18)
C9A C 1.04818(18) -0.04818(18) -0.10826(18)
C9B C 0.95182(18) -0.04818(18) -0.10826(18)
C9D C 1.04818(18) 0.04818(18) 0.10826(18)
C9G C 0.95182(18) 0.04818(18) 0.10826(18)
C9E C 0.95182(18) -0.04818(18) 0.10826(18)
C9F C 1.04818(18) -0.04818(18) 0.10826(18)
H4A H 1.0831 -0.0831 -0.0889
H4B H 0.9169 -0.0831 -0.0889
H4C H 1.0831 0.0831 -0.0889
H4D H 1.0831 0.0831 0.0889
H4E H 0.9169 -0.0831 0.0889
H4F H 1.0831 -0.0831 0.0889
H4G H 0.9169 0.0831 0.0889
C10C C 1.05003(17) 0.05003(17) -0.16130(19)
C10A C 1.05003(17) -0.05003(17) -0.16130(19)
C10B C 0.94997(17) -0.05003(17) -0.16130(19)
C10D C 1.05003(17) 0.05003(17) 0.16130(19)
C10G C 0.94997(17) 0.05003(17) 0.16130(19)
C10E C 0.94997(17) -0.05003(17) 0.16130(19)
C10F C 1.05003(17) -0.05003(17) 0.16130(19)
H5A H 1.0861 -0.0861 -0.1786
H5C H 1.0861 0.0861 -0.1786
H5B H 0.9139 -0.0861 -0.1786
H5D H 1.0861 0.0861 0.1786
H5E H 0.9139 -0.0861 0.1786
H5G H 0.9139 0.0861 0.1786
H5F H 1.0861 -0.0861 0.1786
C11D C 1.0000 0.0000 0.19400(18)
C12D C 1.0000 0.0000 0.25311(18)
C13C C 0.9788(5) 0.0668(3) -0.2829(2)
C13A C 1.0668(3) 0.0212(5) -0.2829(2)
C13B C 1.0212(5) -0.0668(3) -0.2829(2)
C13T C 0.9332(3) 0.0212(5) -0.2829(2)
C13W C 0.9788(5) -0.0668(3) -0.2829(2)
C13U C 1.0668(3) -0.0212(5) -0.2829(2)
C13V C 1.0212(5) 0.0668(3) -0.2829(2)
C13D C 1.0668(3) -0.0212(5) 0.2829(2)
C13G C 1.0212(5) 0.0668(3) 0.2829(2)
C13E C 0.9332(3) 0.0212(5) 0.2829(2)
C13F C 0.9788(5) -0.0668(3) 0.2829(2)
C13P C 1.0668(3) 0.0212(5) 0.2829(2)
C13S C 1.0212(5) -0.0668(3) 0.2829(2)
C13Q C 0.9332(3) -0.0212(5) 0.2829(2)
C13R C 0.9788(5) 0.0668(3) 0.2829(2)
H6A H 1.1146 0.0366 -0.2644
H6T H 0.8854 0.0366 -0.2644
H6U H 1.1146 -0.0366 -0.2644
H6V H 1.0366 0.1146 -0.2644
H6B H 1.0366 -0.1146 -0.2644
H6W H 0.9634 -0.1146 -0.2644
H6C H 0.9634 0.1146 -0.2644
H6D H 1.1146 -0.0366 0.2644
H6E H 0.8854 0.0366 0.2644
H6P H 1.1146 0.0366 0.2644
H6Q H 0.8854 -0.0366 0.2644
H6R H 0.9634 0.1146 0.2644
H6F H 0.9634 -0.1146 0.2644
H6S H 1.0366 -0.1146 0.2644
H6G H 1.0366 0.1146 0.2644
C14A C 1.0662(3) -0.0206(4) -0.3382(2)
C14B C 0.9794(4) -0.0662(3) -0.3382(2)
C14C C 1.0206(4) 0.0662(3) -0.3382(2)
C14T C 0.9338(3) -0.0206(4) -0.3382(2)
C14U C 1.0662(3) 0.0206(4) -0.3382(2)
C14W C 1.0206(4) -0.0662(3) -0.3382(2)
C14V C 0.9794(4) 0.0662(3) -0.3382(2)
C14D C 1.0662(3) 0.0206(4) 0.3382(2)
C14E C 0.9338(3) -0.0206(4) 0.3382(2)
C14F C 1.0206(4) -0.0662(3) 0.3382(2)
C14G C 0.9794(4) 0.0662(3) 0.3382(2)
C14P C 1.0662(3) -0.0206(4) 0.3382(2)
C14Q C 0.9338(3) 0.0206(4) 0.3382(2)
C14S C 0.9794(4) -0.0662(3) 0.3382(2)
C14R C 1.0206(4) 0.0662(3) 0.3382(2)
H7B H 1.0351 -0.1134 -0.3577
H7W H 0.9649 -0.1134 -0.3577
H7T H 0.8866 0.0351 -0.3577
H7C H 0.9649 0.1134 -0.3577
H7V H 1.0351 0.1134 -0.3577
H7U H 1.1134 -0.0351 -0.3577
H7A H 1.1134 0.0351 -0.3577
H7D H 1.1134 -0.0351 0.3577
H7F H 0.9649 -0.1134 0.3577
H7S H 1.0351 -0.1134 0.3577
H7P H 1.1134 0.0351 0.3577
H7G H 1.0351 0.1134 0.3577
H7R H 0.9649 0.1134 0.3577
H7Q H 0.8866 -0.0351 0.3577
H7E H 0.8866 0.0351 0.3577
loop_
_geom_bond_atom_site_label_1
_geom_bond_atom_site_label_2
_geom_bond_site_symmetry_1
_geom_bond_site_symmetry_2
Co1 O1 1_555 1_555
Co2 N1 1_555 1_555
O1 C8 1_555 1_555
N1 C1 1_555 1_555
N2 Co2 1_555 1_555
N3 C14 1_555 1_555
C1 C2 1_555 1_555
C2 H1 1_555 1_555
C3 C1 1_555 1_555
C4 C3 1_555 1_555
C5 C4 1_555 1_555
H2 C5 1_555 1_555
C6 C5 1_555 1_555
H3 C6 1_555 1_555
C7 C6 1_555 1_555
C8 C7 1_555 1_555
C9 N2 1_555 1_555
H4 C9 1_555 1_555
C10 C9 1_555 1_555
H5 C10 1_555 1_555
C11 C10 1_555 1_555
C12 C11 1_555 1_555
C13 C12 1_555 1_555
H6 C13 1_555 1_555
C14 C13 1_555 1_555
H7 C14 1_555 1_555
N4 O2 1_555 1_555
O3 N4 1_555 1_555
Co1D O1G 1_555 1_555
Co1L N3 1_555 1_555
Co1D_2 O1E 1_555 1_555
Co1_2 O1B 1_555 1_555
Co1D_3 O1F 1_555 1_555
Co1_3 O1A 1_555 1_555
Co1D_4 O1D 1_555 1_555
Co1_4 O1C 1_555 1_555
Co1H N3D 1_555 1_555
O1G C8 1_555 1_555
O1E C8B 1_555 1_555
O1B C8B 1_555 1_555
O1F C8A 1_555 1_555
O1A C8A 1_555 1_555
O1D C8C 1_555 1_555
O1C C8C 1_555 1_555
O1A_2 Co1 1_555 1_555
O1B_2 Co1 1_555 1_555
O1C_2 Co1 1_555 1_555
O1F_2 Co1D 1_555 1_555
O1D_2 Co1D 1_555 1_555
O1E_2 Co1D 1_555 1_555
N1C Co2 1_555 1_555
N1A Co2 1_555 1_555
N1B Co2 1_555 1_555
N2D Co2 1_555 1_555
N3D C14D 1_555 1_555
N3L Co1 1_555 1_555
N3H Co1D 1_555 1_555
C1D N1 1_555 1_555
C1C N1C 1_555 1_555
C1F N1C 1_555 1_555
C1A N1A 1_555 1_555
C1E N1A 1_555 1_555
C1B N1B 1_555 1_555
C1G C3 1_555 1_555
C2D C2 1_555 1_555
C2F C1F 1_555 1_555
C2C C1C 1_555 1_555
C2E C1E 1_555 1_555
C2A C1A 1_555 1_555
C2G C1G 1_555 1_555
C2B C1B 1_555 1_555
H1D C2D 1_555 1_555
H1C C2C 1_555 1_555
H1F C2F 1_555 1_555
H1A C2A 1_555 1_555
H1E C2E 1_555 1_555
H1B C2B 1_555 1_555
H1G C2G 1_555 1_555
C3C C1D 1_555 1_555
C3A C1F 1_555 1_555
C3B C1E 1_555 1_555
C4B C3B 1_555 1_555
C4A C3A 1_555 1_555
C4C C3C 1_555 1_555
C5E C4B 1_555 1_555
C5B C4B 1_555 1_555
C5F C4A 1_555 1_555
C5A C4A 1_555 1_555
C5D C4C 1_555 1_555
C5C C4C 1_555 1_555
C5G C4 1_555 1_555
H2E C5E 1_555 1_555
H2B C5B 1_555 1_555
H2F C5F 1_555 1_555
H2A C5A 1_555 1_555
H2D C5D 1_555 1_555
H2C C5C 1_555 1_555
H2G C5G 1_555 1_555
C6E C5E 1_555 1_555
C6B C5B 1_555 1_555
C6F C5F 1_555 1_555
C6A C5A 1_555 1_555
C6D C5D 1_555 1_555
C6C C5C 1_555 1_555
C6G C7 1_555 1_555
H3E C6E 1_555 1_555
H3B C6B 1_555 1_555
H3F C6F 1_555 1_555
H3A C6A 1_555 1_555
H3D C6D 1_555 1_555
H3C C6C 1_555 1_555
H3G C6G 1_555 1_555
C7B C6E 1_555 1_555
C7A C6F 1_555 1_555
C7C C6D 1_555 1_555
C8B C7B 1_555 1_555
C8A C7A 1_555 1_555
C8C C7C 1_555 1_555
C9C N2 1_555 1_555
C9A N2 1_555 1_555
C9B N2 1_555 1_555
C9D N2D 1_555 1_555
C9G N2D 1_555 1_555
C9E N2D 1_555 1_555
C9F N2D 1_555 1_555
H4A C9A 1_555 1_555
H4B C9B 1_555 1_555
H4C C9C 1_555 1_555
H4D C9D 1_555 1_555
H4E C9E 1_555 1_555
H4F C9F 1_555 1_555
H4G C9G 1_555 1_555
C10C C10 1_555 1_555
C10A C11 1_555 1_555
C10B C10 1_555 1_555
C10D C9D 1_555 1_555
C10G C9G 1_555 1_555
C10E C9E 1_555 1_555
C10F C9F 1_555 1_555
H5A C10A 1_555 1_555
H5C C10C 1_555 1_555
H5B C10B 1_555 1_555
H5D C10D 1_555 1_555
H5E C10E 1_555 1_555
H5G C10G 1_555 1_555
H5F C10F 1_555 1_555
C11D C10D 1_555 1_555
C12D C11D 1_555 1_555
C13C C12 1_555 1_555
C13A C12 1_555 1_555
C13B C12 1_555 1_555
C13T C12 1_555 1_555
C13W C12 1_555 1_555
C13U C12 1_555 1_555
C13V C12 1_555 1_555
C13D C12D 1_555 1_555
C13G C12D 1_555 1_555
C13E C12D 1_555 1_555
C13F C12D 1_555 1_555
C13P C12D 1_555 1_555
C13S C12D 1_555 1_555
C13Q C12D 1_555 1_555
C13R C12D 1_555 1_555
H6A C13A 1_555 1_555
H6T C13T 1_555 1_555
H6U C13U 1_555 1_555
H6V C13V 1_555 1_555
H6B C13B 1_555 1_555
H6W C13W 1_555 1_555
H6C C13C 1_555 1_555
H6D C13D 1_555 1_555
H6E C13E 1_555 1_555
H6P C13P 1_555 1_555
H6Q C13Q 1_555 1_555
H6R C13R 1_555 1_555
H6F C13F 1_555 1_555
H6S C13S 1_555 1_555
H6G C13G 1_555 1_555
C14A N3 1_555 1_555
C14B N3 1_555 1_555
C14C N3 1_555 1_555
C14T N3 1_555 1_555
C14U N3 1_555 1_555
C14W N3 1_555 1_555
C14V N3 1_555 1_555
C14D C13D 1_555 1_555
C14E N3D 1_555 1_555
C14F N3D 1_555 1_555
C14G N3D 1_555 1_555
C14P N3D 1_555 1_555
C14Q N3D 1_555 1_555
C14S N3D 1_555 1_555
C14R N3D 1_555 1_555
H7B C14B 1_555 1_555
H7W C14B 1_555 1_555
H7T C14 1_555 1_555
H7C C14C 1_555 1_555
H7V C14C 1_555 1_555
H7U C14A 1_555 1_555
H7A C14A 1_555 1_555
H7D C14D 1_555 1_555
H7F C14F 1_555 1_555
H7S C14F 1_555 1_555
H7P C14D 1_555 1_555
H7G C14G 1_555 1_555
H7R C14G 1_555 1_555
H7Q C14E 1_555 1_555
H7E C14E 1_555 1_555
O2T N4 1_555 1_555
C9 C9C 1_555 1_555
C9 C9B 1_555 1_555
C11 C10C 1_555 1_555
C11 C10B 1_555 1_555
C13 C13C 1_555 1_555
C13 C13B 1_555 1_555
C13 C13T 1_555 1_555
C13 C13W 1_555 1_555
C13 C14B 1_555 1_555
C13 C14T 1_555 1_555
C14 C13C 1_555 1_555
C14 C13T 1_555 1_555
C14 C14B 1_555 1_555
C14 C14C 1_555 1_555
C14 C14T 1_555 1_555
C14 C14V 1_555 1_555
H7 C14T 1_555 1_555
N1B C1G 1_555 1_555
C1D C2D 1_555 1_555
C1C C3C 1_555 1_555
C1A C3A 1_555 1_555
C1B C3B 1_555 1_555
C2F C2C 1_555 1_555
C2E C2A 1_555 1_555
C2G C2B 1_555 1_555
C5G C6G 1_555 1_555
C6B C7B 1_555 1_555
C6A C7A 1_555 1_555
C6C C7C 1_555 1_555
C9C C9A 1_555 1_555
C9C C10C 1_555 1_555
C9A C9B 1_555 1_555
C9A C10A 1_555 1_555
C9B C10B 1_555 1_555
C9D C9G 1_555 1_555
C9D C9F 1_555 1_555
C9G C9E 1_555 1_555
C9E C9F 1_555 1_555
C10C C10A 1_555 1_555
C10A C10B 1_555 1_555
C10D C10G 1_555 1_555
C10D C10F 1_555 1_555
C10G C10E 1_555 1_555
C10G C11D 1_555 1_555
C10E C10F 1_555 1_555
C10E C11D 1_555 1_555
C10F C11D 1_555 1_555
C13C C13A 1_555 1_555
C13C C13T 1_555 1_555
C13C C13V 1_555 1_555
C13C C14C 1_555 1_555
C13C C14V 1_555 1_555
C13A C13B 1_555 1_555
C13A C13U 1_555 1_555
C13A C13V 1_555 1_555
C13A C14A 1_555 1_555
C13A C14C 1_555 1_555
C13A C14U 1_555 1_555
C13B C13W 1_555 1_555
C13B C13U 1_555 1_555
C13B C14A 1_555 1_555
C13B C14B 1_555 1_555
C13B C14W 1_555 1_555
C13T C13W 1_555 1_555
C13T C13V 1_555 1_555
C13T C14T 1_555 1_555
C13T C14V 1_555 1_555
C13W C13U 1_555 1_555
C13W C14B 1_555 1_555
C13W C14T 1_555 1_555
C13W C14W 1_555 1_555
C13U C13V 1_555 1_555
C13U C14A 1_555 1_555
C13U C14U 1_555 1_555
C13U C14W 1_555 1_555
C13V C14C 1_555 1_555
C13V C14U 1_555 1_555
C13V C14V 1_555 1_555
C13D C13G 1_555 1_555
C13D C13F 1_555 1_555
C13D C13P 1_555 1_555
C13D C13S 1_555 1_555
C13D C14F 1_555 1_555
C13D C14P 1_555 1_555
C13G C13E 1_555 1_555
C13G C13P 1_555 1_555
C13G C13R 1_555 1_555
C13G C14D 1_555 1_555
C13G C14G 1_555 1_555
C13G C14R 1_555 1_555
C13E C13F 1_555 1_555
C13E C13Q 1_555 1_555
C13E C13R 1_555 1_555
C13E C14E 1_555 1_555
C13E C14G 1_555 1_555
C13E C14Q 1_555 1_555
C13F C13S 1_555 1_555
C13F C13Q 1_555 1_555
C13F C14E 1_555 1_555
C13F C14F 1_555 1_555
C13F C14S 1_555 1_555
C13P C13S 1_555 1_555
C13P C13R 1_555 1_555
C13P C14D 1_555 1_555
C13P C14P 1_555 1_555
C13P C14R 1_555 1_555
C13S C13Q 1_555 1_555
C13S C14F 1_555 1_555
C13S C14P 1_555 1_555
C13S C14S 1_555 1_555
C13Q C13R 1_555 1_555
C13Q C14E 1_555 1_555
C13Q C14Q 1_555 1_555
C13Q C14S 1_555 1_555
C13R C14G 1_555 1_555
C13R C14Q 1_555 1_555
C13R C14R 1_555 1_555
C14A C14B 1_555 1_555
C14A C14C 1_555 1_555
C14A C14U 1_555 1_555
C14A C14W 1_555 1_555
C14B C14T 1_555 1_555
C14B C14W 1_555 1_555
C14C C14U 1_555 1_555
C14C C14V 1_555 1_555
C14T C14W 1_555 1_555
C14T C14V 1_555 1_555
C14T H7T 1_555 1_555
C14U C14W 1_555 1_555
C14U C14V 1_555 1_555
C14U H7U 1_555 1_555
C14U H7A 1_555 1_555
C14W H7B 1_555 1_555
C14W H7W 1_555 1_555
C14V H7C 1_555 1_555
C14V H7V 1_555 1_555
C14D C14F 1_555 1_555
C14D C14G 1_555 1_555
C14D C14P 1_555 1_555
C14D C14R 1_555 1_555
C14E C14F 1_555 1_555
C14E C14G 1_555 1_555
C14E C14Q 1_555 1_555
C14E C14S 1_555 1_555
C14F C14P 1_555 1_555
C14F C14S 1_555 1_555
C14G C14Q 1_555 1_555
C14G C14R 1_555 1_555
C14P C14S 1_555 1_555
C14P C14R 1_555 1_555
C14P H7D 1_555 1_555
C14P H7P 1_555 1_555
C14Q C14S 1_555 1_555
C14Q C14R 1_555 1_555
C14Q H7Q 1_555 1_555
C14Q H7E 1_555 1_555
C14S H7F 1_555 1_555
C14S H7S 1_555 1_555
C14R H7G 1_555 1_555
C14R H7R 1_555 1_555

#END
