
#######################################################################
#
#                 Cambridge Crystallographic Data Centre
#                                CCDC 
#
#######################################################################
#
# If this CIF has been generated from an entry in the Cambridge 
# Structural Database, then it will include bibliographic, chemical, 
# crystal, experimental, refinement or atomic coordinate data resulting 
# from the CCDC's data processing and validation procedures.
#
#######################################################################

data_EKOPUQ
_chemical_formula_moiety         '(C49 H48 Ca1 Cd2 O16 2-)n'
_symmetry_cell_setting           tetragonal
_symmetry_space_group_name_H-M   'P 4/m'
_symmetry_Int_Tables_number      83
_space_group_name_Hall           '-P 4'
loop_
_symmetry_equiv_pos_site_id
_symmetry_equiv_pos_as_xyz
1 x,y,z
2 -x,-y,z
3 -y,x,z
4 y,-x,z
5 -x,-y,-z
6 x,y,-z
7 y,-x,-z
8 -y,x,-z
_cell_length_a                   19.8227(6)
_cell_length_b                   19.8227(6)
_cell_length_c                   9.9593(5)
_cell_angle_alpha                90
_cell_angle_beta                 90
_cell_angle_gamma                90
_cell_volume                     3913.4
loop_
_atom_site_label
_atom_site_type_symbol
_atom_site_fract_x
_atom_site_fract_y
_atom_site_fract_z
C21 C 0.264(2) -0.7981(16) 0.5000
Cd1 Cd -0.07081(3) -0.65752(3) 0.0000
Ca1 Ca 0.0000 -0.5000 0.0000
O1 O 0.0481(3) -0.6041(3) 0.0000
O2 O 0.0329(3) -0.7131(3) 0.0000
O3 O 0.3398(3) -0.8126(3) 0.0000
O4 O 0.2419(3) -0.8613(3) 0.0000
O5 O 0.0737(2) -0.4463(2) 0.1440(4)
O6 O 0.0699(2) -0.3474(2) 0.2419(5)
C1 C 0.0710(4) -0.6626(4) 0.0000
C2 C 0.2775(4) -0.8096(5) 0.0000
C3 C 0.0752(3) -0.4102(3) 0.2489(6)
C4 C 0.1459(4) -0.6709(4) 0.0000
C5 C 0.1746(4) -0.7359(4) 0.0000
H3 H 0.1474 -0.7742 0.0000
C6 C 0.2442(4) -0.7414(4) 0.0000
C7 C 0.2835(4) -0.6830(4) 0.0000
H4 H 0.3303 -0.6870 0.0000
C8 C 0.2555(4) -0.6199(4) 0.0000
C9 C 0.1864(4) -0.6144(4) 0.0000
H5 H 0.1666 -0.5719 0.0000
C10 C 0.3009(5) -0.5546(5) 0.0000
C11 C 0.2822(9) -0.5133(10) -0.1255(16)
H6 H 0.3091 -0.4731 -0.1285
H7 H 0.2353 -0.5013 -0.1217
H8 H 0.2905 -0.5398 -0.2045
C12 C 0.3723(12) -0.5745(7) 0.0000
H9 H 0.4002 -0.5349 0.0000
H10 H 0.3817 -0.6009 -0.0787
C13 C 0.0776(4) -0.4103(4) 0.5000
H11 H 0.0661 -0.3648 0.5000
C14 C 0.0861(3) -0.4442(3) 0.3794(6)
C15 C 0.1049(3) -0.5120(3) 0.3806(6)
H12 H 0.1105 -0.5343 0.2992
C16 C 0.1155(5) -0.5477(4) 0.5000
C17 C 0.1426(6) -0.6187(6) 0.5000
C18 C 0.2180(7) -0.6180(10) 0.5000
H13 H 0.2345 -0.6635 0.5000
H14 H 0.2339 -0.5950 0.5787
C19 C 0.1193(9) -0.6559(5) 0.6169(13)
H15 H 0.1372 -0.7009 0.6146
H16 H 0.0709 -0.6579 0.6164
H17 H 0.1343 -0.6336 0.6971
Cd1A Cd 0.07081(3) -0.34248(3) 0.0000
Cd1C Cd 0.34248(3) -0.92919(3) 0.0000
Cd1A_2 Cd 0.07081(3) -0.34248(3) 1.0000
Cd1B Cd -0.34248(3) -0.07081(3) 0.0000
Cd1_2 Cd -0.07081(3) -0.65752(3) 1.0000
Ca1_2 Ca 0.0000 -0.5000 1.0000
O1A O -0.0481(3) -0.3959(3) 0.0000
O2A O -0.0329(3) -0.2869(3) 0.0000
O3A O -0.3398(3) -0.1874(3) 0.0000
O3B O -0.1874(3) -0.6602(3) 0.0000
O3C O 0.1874(3) -0.3398(3) 0.0000
O4A O -0.2419(3) -0.1387(3) 0.0000
O4B O -0.1387(3) -0.7581(3) 0.0000
O4C O 0.1387(3) -0.2419(3) 0.0000
O5E O 0.0737(2) -0.4463(2) 0.8560(4)
O5A O -0.0737(2) -0.5537(2) 0.1440(4)
O5D O -0.0737(2) -0.5537(2) 0.8560(4)
O5D_2 O -0.0737(2) -0.5537(2) -0.1440(4)
O5E_2 O 0.0737(2) -0.4463(2) -0.1440(4)
O6E O 0.0699(2) -0.3474(2) 0.7581(5)
O6A O -0.0699(2) -0.6526(2) 0.2419(5)
O6D O -0.0699(2) -0.6526(2) 0.7581(5)
O6D_2 O -0.0699(2) -0.6526(2) -0.2419(5)
O6E_2 O 0.0699(2) -0.3474(2) -0.2419(5)
C1A C -0.0710(4) -0.3374(4) 0.0000
C2A C -0.2775(4) -0.1904(5) 0.0000
C3E C 0.0752(3) -0.4102(3) 0.7511(6)
C3A C -0.0752(3) -0.5898(3) 0.2489(6)
C3D C -0.0752(3) -0.5898(3) 0.7511(6)
C4A C -0.1459(4) -0.3291(4) 0.0000
C5A C -0.1746(4) -0.2641(4) 0.0000
H3A H -0.1474 -0.2258 0.0000
C6A C -0.2442(4) -0.2586(4) 0.0000
C7A C -0.2835(4) -0.3170(4) 0.0000
H4A H -0.3303 -0.3130 0.0000
C8A C -0.2555(4) -0.3801(4) 0.0000
C9A C -0.1864(4) -0.3856(4) 0.0000
H5A H -0.1666 -0.4281 0.0000
C10A C -0.3009(5) -0.4454(5) 0.0000
C11E C 0.2822(9) -0.5133(10) 0.1255(16)
C11A C -0.2822(9) -0.4867(10) -0.1255(16)
C11D C -0.2822(9) -0.4867(10) 0.1255(16)
H6E H 0.3091 -0.4731 0.1285
H6A H -0.3091 -0.5269 -0.1285
H6D H -0.3091 -0.5269 0.1285
H7E H 0.2353 -0.5013 0.1217
H7A H -0.2353 -0.4987 -0.1217
H7D H -0.2353 -0.4987 0.1217
H8E H 0.2905 -0.5398 0.2045
H8A H -0.2905 -0.4602 -0.2045
H8D H -0.2905 -0.4602 0.2045
C12A C -0.3723(12) -0.4255(7) 0.0000
H9A H -0.4002 -0.4651 0.0000
H10E H 0.3817 -0.6009 0.0787
H10A H -0.3817 -0.3991 -0.0787
H10D H -0.3817 -0.3991 0.0787
C13A C -0.0776(4) -0.5897(4) 0.5000
H11A H -0.0661 -0.6352 0.5000
C14E C 0.0861(3) -0.4442(3) 0.6206(6)
C14A C -0.0861(3) -0.5558(3) 0.3794(6)
C14D C -0.0861(3) -0.5558(3) 0.6206(6)
C15E C 0.1049(3) -0.5120(3) 0.6194(6)
C15A C -0.1049(3) -0.4880(3) 0.3806(6)
C15D C -0.1049(3) -0.4880(3) 0.6194(6)
H12E H 0.1105 -0.5343 0.7008
H12A H -0.1105 -0.4657 0.2992
H12D H -0.1105 -0.4657 0.7008
C16A C -0.1155(5) -0.4523(4) 0.5000
C17A C -0.1426(6) -0.3813(6) 0.5000
C18A C -0.2180(7) -0.3820(10) 0.5000
H13A H -0.2345 -0.3365 0.5000
H14E H 0.2339 -0.5950 0.4213
H14A H -0.2339 -0.4050 0.5787
H14D H -0.2339 -0.4050 0.4213
C19E C 0.1193(9) -0.6559(5) 0.3831(13)
C19A C -0.1193(9) -0.3441(5) 0.6169(13)
C19D C -0.1193(9) -0.3441(5) 0.3831(13)
H15E H 0.1372 -0.7009 0.3854
H15A H -0.1372 -0.2991 0.6146
H15D H -0.1372 -0.2991 0.3854
H16E H 0.0709 -0.6579 0.3836
H16A H -0.0709 -0.3421 0.6164
H16D H -0.0709 -0.3421 0.3836
H17E H 0.1343 -0.6336 0.3029
H17A H -0.1343 -0.3664 0.6971
H17D H -0.1343 -0.3664 0.3029
loop_
_geom_bond_atom_site_label_1
_geom_bond_atom_site_label_2
_geom_bond_site_symmetry_1
_geom_bond_site_symmetry_2
Cd1 O1 1_555 1_555
Ca1 O1 1_555 1_555
O1 C1 1_555 1_555
O2 Cd1 1_555 1_555
O3 C2 1_555 1_555
O4 C2 1_555 1_555
O5 Ca1 1_555 1_555
O6 C3 1_555 1_555
C1 O2 1_555 1_555
C2 C6 1_555 1_555
C3 O5 1_555 1_555
C4 C1 1_555 1_555
C5 C4 1_555 1_555
H3 C5 1_555 1_555
C6 C5 1_555 1_555
C7 C6 1_555 1_555
H4 C7 1_555 1_555
C8 C7 1_555 1_555
C9 C4 1_555 1_555
H5 C9 1_555 1_555
C10 C8 1_555 1_555
C11 C10 1_555 1_555
H6 C11 1_555 1_555
H7 C11 1_555 1_555
H8 C11 1_555 1_555
C12 C10 1_555 1_555
H9 C12 1_555 1_555
H10 C12 1_555 1_555
C13 H11 1_555 1_555
C14 C3 1_555 1_555
C15 C14 1_555 1_555
H12 C15 1_555 1_555
C16 C15 1_555 1_555
C17 C16 1_555 1_555
C18 C17 1_555 1_555
H13 C18 1_555 1_555
H14 C18 1_555 1_555
C19 C17 1_555 1_555
H15 C19 1_555 1_555
H16 C19 1_555 1_555
H17 C19 1_555 1_555
Cd1A O5 1_555 1_555
Cd1C O3 1_555 1_555
Cd1A_2 O5E 1_555 1_555
Cd1B O3A 1_555 1_555
Cd1_2 O5D 1_555 1_555
Ca1_2 O5E 1_555 1_555
O1A Ca1 1_555 1_555
O2A Cd1A 1_555 1_555
O3A C2A 1_555 1_555
O3B Cd1 1_555 1_555
O3C Cd1A 1_555 1_555
O4A Cd1B 1_555 1_555
O4B Cd1 1_555 1_555
O4C Cd1A 1_555 1_555
O5E C3E 1_555 1_555
O5A Cd1 1_555 1_555
O5D Ca1_2 1_555 1_555
O5D_2 Cd1 1_555 1_555
O5E_2 Ca1 1_555 1_555
O6E Cd1A_2 1_555 1_555
O6A Cd1 1_555 1_555
O6D Cd1_2 1_555 1_555
O6D_2 Cd1 1_555 1_555
O6E_2 Cd1A 1_555 1_555
C1A O1A 1_555 1_555
C2A O4A 1_555 1_555
C3E O6E 1_555 1_555
C3A O5A 1_555 1_555
C3D O5D 1_555 1_555
C4A C1A 1_555 1_555
C5A C4A 1_555 1_555
H3A C5A 1_555 1_555
C6A C2A 1_555 1_555
C7A C6A 1_555 1_555
H4A C7A 1_555 1_555
C8A C7A 1_555 1_555
C9A C4A 1_555 1_555
H5A C9A 1_555 1_555
C10A C8A 1_555 1_555
C11E C10 1_555 1_555
C11A C10A 1_555 1_555
C11D C10A 1_555 1_555
H6E C11E 1_555 1_555
H6A C11A 1_555 1_555
H6D C11D 1_555 1_555
H7E C11E 1_555 1_555
H7A C11A 1_555 1_555
H7D C11D 1_555 1_555
H8E C11E 1_555 1_555
H8A C11A 1_555 1_555
H8D C11D 1_555 1_555
C12A C10A 1_555 1_555
H9A C12A 1_555 1_555
H10E C12 1_555 1_555
H10A C12A 1_555 1_555
H10D C12A 1_555 1_555
C13A H11A 1_555 1_555
C14E C13 1_555 1_555
C14A C3A 1_555 1_555
C14D C3D 1_555 1_555
C15E C16 1_555 1_555
C15A C14A 1_555 1_555
C15D C14D 1_555 1_555
H12E C15E 1_555 1_555
H12A C15A 1_555 1_555
H12D C15D 1_555 1_555
C16A C15A 1_555 1_555
C17A C16A 1_555 1_555
C18A C17A 1_555 1_555
H13A C18A 1_555 1_555
H14E C18 1_555 1_555
H14A C18A 1_555 1_555
H14D C18A 1_555 1_555
C19E C17 1_555 1_555
C19A C17A 1_555 1_555
C19D C17A 1_555 1_555
H15E C19E 1_555 1_555
H15A C19A 1_555 1_555
H15D C19D 1_555 1_555
H16E C19E 1_555 1_555
H16A C19A 1_555 1_555
H16D C19D 1_555 1_555
H17E C19E 1_555 1_555
H17A C19A 1_555 1_555
H17D C19D 1_555 1_555
Ca1 O5A 1_555 1_555
Ca1 O5D_2 1_555 1_555
O4 Cd1C 1_555 1_555
O6 Cd1A 1_555 1_555
C8 C9 1_555 1_555
C13 C14 1_555 1_555
Cd1A O1A 1_555 1_555
Cd1A O5E_2 1_555 1_555
O2A C1A 1_555 1_555
O6A C3A 1_555 1_555
O6D C3D 1_555 1_555
C3E C14E 1_555 1_555
C5A C6A 1_555 1_555
C8A C9A 1_555 1_555
C13A C14A 1_555 1_555
C13A C14D 1_555 1_555
C14E C15E 1_555 1_555
C15D C16A 1_555 1_555

#END
