
#######################################################################
#
#                 Cambridge Crystallographic Data Centre
#                                CCDC 
#
#######################################################################
#
# If this CIF has been generated from an entry in the Cambridge 
# Structural Database, then it will include bibliographic, chemical, 
# crystal, experimental, refinement or atomic coordinate data resulting 
# from the CCDC's data processing and validation procedures.
#
#######################################################################

data_EKOPOK
_chemical_formula_moiety         '(C16 H12 Ca1 Cd1 O12)n'
_symmetry_cell_setting           tetragonal
_symmetry_space_group_name_H-M   'I -4 c 2'
_symmetry_Int_Tables_number      120
_space_group_name_Hall           'I -4 -2c'
loop_
_symmetry_equiv_pos_site_id
_symmetry_equiv_pos_as_xyz
1 x,y,z
2 -x,-y,z
3 y,-x,-z
4 -y,x,-z
5 x,-y,1/2+z
6 -x,y,1/2+z
7 y,x,1/2-z
8 -y,-x,1/2-z
9 1/2+x,1/2+y,1/2+z
10 1/2-x,1/2-y,1/2+z
11 1/2+y,1/2-x,1/2-z
12 1/2-y,1/2+x,1/2-z
13 1/2+x,1/2-y,z
14 1/2-x,1/2+y,z
15 1/2+y,1/2+x,-z
16 1/2-y,1/2-x,-z
_cell_length_a                   19.6226(4)
_cell_length_b                   19.6226(4)
_cell_length_c                   14.2086(6)
_cell_angle_alpha                90
_cell_angle_beta                 90
_cell_angle_gamma                90
_cell_volume                     5470.97
loop_
_atom_site_label
_atom_site_type_symbol
_atom_site_fract_x
_atom_site_fract_y
_atom_site_fract_z
_atom_site_U_iso_or_equiv
_atom_site_thermal_displace_type
Cd1 Cd -0.267766(10) 0.232234(10) 0.0000 0.0226 Uani
Ca1 Ca -0.29746(3) 0.29746(3) -0.2500 0.0248 Uani
O1 O -0.34116(13) 0.22991(14) -0.1262(2) 0.0298 Uani
O2 O -0.39717(13) 0.22086(16) 0.0063(3) 0.0392 Uani
O3 O -0.65550(15) 0.26864(17) -0.0359(2) 0.0402 Uani
O4 O -0.70288(14) 0.22128(19) -0.1603(2) 0.0430 Uani
O5 O -0.5046(2) 0.1753(2) -0.3797(2) 0.0601 Uani
H1 H -0.5362 0.1906 -0.4110 0.0900 Uiso
O6 O -0.3257(2) 0.3857(3) -0.1484(5) 0.0977 Uani
H2 H -0.3479 0.4212 -0.1637 0.1170 Uiso
H3 H -0.3106 0.3770 -0.0937 0.1460 Uiso
C1 C -0.39670(19) 0.2224(2) -0.0818(2) 0.0276 Uani
C2 C -0.65189(19) 0.2385(2) -0.1149(3) 0.0307 Uani
C3 C -0.46075(18) 0.2167(2) -0.1379(3) 0.0293 Uani
C4 C -0.4554(2) 0.1974(2) -0.2326(3) 0.0351 Uani
H4 H -0.4129 0.1877 -0.2583 0.0420 Uiso
C5 C -0.5133(2) 0.1927(2) -0.2878(3) 0.0368 Uani
C6 C -0.57678(19) 0.2060(2) -0.2493(3) 0.0350 Uani
H5 H -0.6157 0.2019 -0.2862 0.0420 Uiso
C7 C -0.58237(19) 0.2256(2) -0.1551(3) 0.0300 Uani
C8 C -0.5241(2) 0.2303(2) -0.0992(3) 0.0322 Uani
H6 H -0.5278 0.2425 -0.0361 0.0390 Uiso
Cd1B Cd -0.767766(10) 0.267766(10) 0.0000 0.0226 Uani
Cd1C Cd -0.232234(10) -0.267766(10) 0.0000 0.0226 Uani
Ca1K Ca -0.79746(3) 0.20254(3) -0.2500 0.0248 Uani
Ca1I Ca -0.20254(3) 0.20254(3) 0.2500 0.0248 Uani
Ca1C Ca -0.29746(3) -0.29746(3) 0.2500 0.0248 Uani
O1N O -0.27009(14) 0.15884(13) 0.1262(2) 0.0298 Uani
O1G O -0.22991(14) 0.34116(13) -0.3738(2) 0.0298 Uani
O2N O -0.27914(16) 0.10283(13) -0.0063(3) 0.0392 Uani
O3N O -0.23136(17) -0.15550(15) 0.0359(2) 0.0402 Uani
O3C O -0.26864(17) 0.34450(15) 0.0359(2) 0.0402 Uani
O3L O -0.15550(15) 0.23136(17) -0.0359(2) 0.0402 Uani
O4N O -0.27872(19) -0.20288(14) 0.1603(2) 0.0430 Uani
O4J O -0.27872(19) 0.20288(14) -0.3397(2) 0.0430 Uani
O4L O -0.20288(14) 0.27872(19) -0.1603(2) 0.0430 Uani
O5N O -0.3247(2) -0.0046(2) 0.3797(2) 0.0601 Uani
H1N H -0.3094 -0.0362 0.4110 0.0900 Uiso
O6G O -0.3857(3) 0.3257(2) -0.3516(5) 0.0977 Uani
H2G H -0.4212 0.3479 -0.3363 0.1170 Uiso
H3G H -0.3770 0.3106 -0.4063 0.1460 Uiso
C1N C -0.2776(2) 0.10330(19) 0.0818(2) 0.0276 Uani
C2N C -0.2615(2) -0.15189(19) 0.1149(3) 0.0307 Uani
C3N C -0.2833(2) 0.03925(18) 0.1379(3) 0.0293 Uani
C4N C -0.3026(2) 0.0446(2) 0.2326(3) 0.0351 Uani
H4N H -0.3123 0.0871 0.2583 0.0420 Uiso
C5N C -0.3073(2) -0.0133(2) 0.2878(3) 0.0368 Uani
C6N C -0.2940(2) -0.07678(19) 0.2493(3) 0.0350 Uani
H5N H -0.2981 -0.1157 0.2862 0.0420 Uiso
C7N C -0.2744(2) -0.08237(19) 0.1551(3) 0.0300 Uani
C8N C -0.2697(2) -0.0241(2) 0.0992(3) 0.0322 Uani
H6N H -0.2575 -0.0278 0.0361 0.0390 Uiso
loop_
_atom_site_aniso_label
_atom_site_aniso_U_11
_atom_site_aniso_U_22
_atom_site_aniso_U_33
_atom_site_aniso_U_23
_atom_site_aniso_U_13
_atom_site_aniso_U_12
Cd1 0.02537(13) 0.02537(13) 0.01720(16) 0.00298(11) -0.00298(11) -0.00418(10)
Ca1 0.0287 0.0287 0.0169 0.0019 0.0019 0.0002
O1 0.0174(11) 0.0496(18) 0.0224(12) 0.0060(9) -0.0018(10) -0.0056(10)
O2 0.0251(11) 0.0749(18) 0.0176(13) 0.0003(16) -0.0034(13) -0.0048(11)
O3 0.0236(14) 0.062(2) 0.0350(14) -0.0093(13) 0.0110(12) 0.0024(12)
O4 0.0189(13) 0.074(2) 0.0360(14) -0.0016(14) -0.0016(11) 0.0011(14)
O5 0.0374(16) 0.122(3) 0.0210(14) -0.0128(17) -0.0062(12) 0.019(2)
O6 0.125 0.055 0.113 -0.022 0.038 0.026
C1 0.0223(17) 0.0411(19) 0.0194(17) 0.0015(14) -0.0013(13) -0.0021(14)
C2 0.0188(16) 0.046(2) 0.0274(18) 0.0039(14) 0.0016(14) 0.0029(13)
C3 0.0221(16) 0.047(2) 0.0187(16) 0.0019(15) -0.0019(13) -0.0037(15)
C4 0.0223(16) 0.064(3) 0.0191(17) 0.0032(16) 0.0051(12) 0.0017(17)
C5 0.0286(19) 0.064(3) 0.0178(15) -0.0036(17) -0.0010(14) 0.0067(18)
C6 0.0239(16) 0.060(2) 0.0212(16) 0.0011(18) -0.0040(16) 0.0009(16)
C7 0.0188(16) 0.047(2) 0.0241(17) 0.0010(14) 0.0007(13) 0.0010(14)
C8 0.0247(18) 0.053(2) 0.0189(17) 0.0004(15) -0.0012(14) 0.0002(15)
Cd1B 0.02537 0.02537 0.0172 -0.00298 -0.00298 0.00418
Cd1C 0.02537 0.02537 0.0172 0.00298 0.00298 0.00418
Ca1K 0.0287(3) 0.0287(3) 0.0169(4) -0.0019(3) 0.0019(3) -0.0002(4)
Ca1I 0.0287 0.0287 0.0169 -0.0019 -0.0019 0.0002
Ca1C 0.0287 0.0287 0.0169 -0.0019 0.0019 -0.0002
O1N 0.0496 0.0174 0.0224 0.0018 -0.006 -0.0056
O1G 0.0496 0.0174 0.0224 -0.0018 0.006 -0.0056
O2N 0.0749 0.0251 0.0176 0.0034 -0.0003 -0.0048
O3N 0.062 0.0236 0.035 -0.011 0.0093 0.0024
O3C 0.062 0.0236 0.035 -0.011 -0.0093 -0.0024
O3L 0.0236 0.062 0.035 0.0093 0.011 -0.0024
O4N 0.074 0.0189 0.036 0.0016 0.0016 0.0011
O4J 0.074 0.0189 0.036 -0.0016 0.0016 -0.0011
O4L 0.0189 0.074 0.036 0.0016 -0.0016 -0.0011
O5N 0.122 0.0374 0.021 0.0062 0.0128 0.019
O6G 0.055 0.125 0.113 0.038 -0.022 0.026
C1N 0.0411 0.0223 0.0194 0.0013 -0.0015 -0.0021
C2N 0.046 0.0188 0.0274 -0.0016 -0.0039 0.0029
C3N 0.047 0.0221 0.0187 0.0019 -0.0019 -0.0037
C4N 0.064 0.0223 0.0191 -0.0051 -0.0032 0.0017
C5N 0.064 0.0286 0.0178 0.001 0.0036 0.0067
C6N 0.06 0.0239 0.0212 0.004 -0.0011 0.0009
C7N 0.047 0.0188 0.0241 -0.0007 -0.001 0.001
C8N 0.053 0.0247 0.0189 0.0012 -0.0004 0.0002
loop_
_geom_bond_atom_site_label_1
_geom_bond_atom_site_label_2
_geom_bond_site_symmetry_1
_geom_bond_site_symmetry_2
Cd1 O1 1_555 1_555
Ca1 O1 1_555 1_555
O1 C1 1_555 1_555
O2 Cd1 1_555 1_555
O3 C2 1_555 1_555
O4 C2 1_555 1_555
O5 H1 1_555 1_555
O6 Ca1 1_555 1_555
H2 O6 1_555 1_555
H3 O6 1_555 1_555
C1 O2 1_555 1_555
C2 C7 1_555 1_555
C3 C1 1_555 1_555
C4 C3 1_555 1_555
H4 C4 1_555 1_555
C5 O5 1_555 1_555
C6 C5 1_555 1_555
H5 C6 1_555 1_555
C7 C6 1_555 1_555
C8 C3 1_555 1_555
H6 C8 1_555 1_555
Cd1B O3 1_555 1_555
Cd1C O3N 1_555 1_555
Ca1K O4 1_555 1_555
Ca1I O1N 1_555 1_555
Ca1C O4N 1_555 1_555
O1N Cd1 1_555 1_555
O1G Ca1 1_555 1_555
O2N Cd1 1_555 1_555
O3N C2N 1_555 1_555
O3C Cd1 1_555 1_555
O3L Cd1 1_555 1_555
O4N C2N 1_555 1_555
O4J Ca1 1_555 1_555
O4L Ca1 1_555 1_555
O5N H1N 1_555 1_555
O6G Ca1 1_555 1_555
H2G O6G 1_555 1_555
H3G O6G 1_555 1_555
C1N O1N 1_555 1_555
C2N C7N 1_555 1_555
C3N C1N 1_555 1_555
C4N C3N 1_555 1_555
H4N C4N 1_555 1_555
C5N O5N 1_555 1_555
C6N C5N 1_555 1_555
H5N C6N 1_555 1_555
C7N C6N 1_555 1_555
C8N C3N 1_555 1_555
H6N C8N 1_555 1_555
C4 C5 1_555 1_555
C7 C8 1_555 1_555
O2N C1N 1_555 1_555
C4N C5N 1_555 1_555
C7N C8N 1_555 1_555

#END
