
#######################################################################
#
#                 Cambridge Crystallographic Data Centre
#                                CCDC 
#
#######################################################################
#
# If this CIF has been generated from an entry in the Cambridge 
# Structural Database, then it will include bibliographic, chemical, 
# crystal, experimental, refinement or atomic coordinate data resulting 
# from the CCDC's data processing and validation procedures.
#
#######################################################################

data_OMOVET
_chemical_formula_moiety         '(C36 H44 N22 O12 S2 Zn5)n'
_symmetry_cell_setting           tetragonal
_symmetry_space_group_name_H-M   'I -4 2 d'
_symmetry_Int_Tables_number      122
_space_group_name_Hall           'I -4 2bw'
loop_
_symmetry_equiv_pos_site_id
_symmetry_equiv_pos_as_xyz
1 x,y,z
2 -x,-y,z
3 x,1/2-y,1/4-z
4 -x,1/2+y,1/4-z
5 y,1/2+x,1/4+z
6 -y,1/2-x,1/4+z
7 -y,x,-z
8 y,-x,-z
9 1/2+x,1/2+y,1/2+z
10 1/2-x,1/2-y,1/2+z
11 1/2+x,-y,3/4-z
12 1/2-x,y,3/4-z
13 1/2+y,x,3/4+z
14 1/2-y,-x,3/4+z
15 1/2-y,1/2+x,1/2-z
16 1/2+y,1/2-x,1/2-z
_cell_length_a                   18.760(5)
_cell_length_b                   18.760(5)
_cell_length_c                   17.999(5)
_cell_angle_alpha                90
_cell_angle_beta                 90
_cell_angle_gamma                90
_cell_volume                     6334.52
loop_
_atom_site_label
_atom_site_type_symbol
_atom_site_fract_x
_atom_site_fract_y
_atom_site_fract_z
_atom_site_U_iso_or_equiv
_atom_site_thermal_displace_type
C1 C -0.0966(5) -0.1997(4) -0.2372(5) 0.0413 Uani
C2 C -0.1196(4) -0.2259(4) -0.3120(4) 0.0383 Uani
C3 C -0.1860(5) -0.2352(6) -0.3388(5) 0.0593 Uani
H1 H -0.2272 -0.2234 -0.3128 0.0710 Uiso
C4 C 0.0358(5) -0.2243(5) -0.0346(5) 0.0453 Uani
H2 H 0.0278 -0.2674 -0.0588 0.0540 Uiso
C5 C 0.0845(5) -0.2121(5) 0.0195(5) 0.0467 Uani
H3 H 0.1158 -0.2455 0.0393 0.0560 Uiso
C6 C -0.0221(7) -0.0299(5) -0.2297(4) 0.0603 Uani
H4 H -0.0402 -0.0527 -0.2715 0.0720 Uiso
C7 C -0.1609(18) -0.3804(17) 0.0229(17) 0.1833 Uani
C8 C -0.1222(11) -0.2551(11) 0.0136(12) 0.0560 Uiso
H5 H -0.1087 -0.2169 0.0435 0.0670 Uiso
C9 C -0.0991(16) -0.3203(17) 0.1212(18) 0.0860 Uiso
H6 H -0.1058 -0.3683 0.1383 0.1300 Uiso
H7 H -0.1245 -0.2881 0.1530 0.1300 Uiso
H8 H -0.0492 -0.3088 0.1221 0.1300 Uiso
N1 N -0.1254(11) -0.3138(11) 0.0467(12) 0.0700 Uiso
N2 N 0.0293(3) -0.1136(3) -0.0010(3) 0.0287 Uani
N3 N 0.0010(4) -0.1620(3) -0.0470(3) 0.0343 Uani
N4 N 0.0797(3) -0.1444(4) 0.0392(4) 0.0353 Uani
N5 N -0.0000 -0.0000 -0.1185(4) 0.0323 Uani
N6 N -0.0336(4) -0.0484(4) -0.1602(3) 0.0413 Uani
O1 O -0.0378(4) -0.2092(5) -0.2154(4) 0.0673 Uani
O2 O -0.1430(3) -0.1670(3) -0.1995(3) 0.0460 Uani
O3 O -0.1342(5) -0.2390(4) -0.0539(4) 0.0710 Uani
S1 S -0.05726(16) -0.2500 -0.3750 0.0621 Uani
Zn1 Zn 0.0000 0.0000 0.0000 0.0243 Uani
Zn2 Zn -0.08407(5) -0.13850(5) -0.11167(5) 0.0397 Uani
C1B C -0.0966(5) -0.3003(4) -0.5128(5) 0.0413 Uani
C2B C -0.1196(4) -0.2741(4) -0.4380(4) 0.0383 Uani
C3B C -0.1860(5) -0.2648(6) -0.4112(5) 0.0593 Uani
H1B H -0.2272 -0.2766 -0.4372 0.0710 Uiso
O1B O -0.0378(4) -0.2908(5) -0.5346(4) 0.0673 Uani
O2B O -0.1430(3) -0.3330(3) -0.5505(3) 0.0460 Uani
C6A C 0.0221(7) 0.0299(5) -0.2297(4) 0.0603 Uani
H4A H 0.0402 0.0527 -0.2715 0.0720 Uiso
N6A N 0.0336(4) 0.0484(4) -0.1602(3) 0.0413 Uani
C1A C 0.0966(5) 0.1997(4) -0.2372(5) 0.0413 Uani
C2A C 0.1196(4) 0.2259(4) -0.3120(4) 0.0383 Uani
C3A C 0.1860(5) 0.2352(6) -0.3388(5) 0.0593 Uani
H1A H 0.2272 0.2234 -0.3128 0.0710 Uiso
C4A C -0.0358(5) 0.2243(5) -0.0346(5) 0.0453 Uani
H2A H -0.0278 0.2674 -0.0588 0.0540 Uiso
C5A C -0.0845(5) 0.2121(5) 0.0195(5) 0.0467 Uani
H3A H -0.1158 0.2455 0.0393 0.0560 Uiso
C7A C 0.1609(18) 0.3804(17) 0.0229(17) 0.1833 Uani
C8A C 0.1222(11) 0.2551(11) 0.0136(12) 0.0560 Uiso
H5A H 0.1087 0.2169 0.0435 0.0670 Uiso
C9A C 0.0991(16) 0.3203(17) 0.1212(18) 0.0860 Uiso
H6A H 0.1058 0.3683 0.1383 0.1300 Uiso
H7A H 0.1245 0.2881 0.1530 0.1300 Uiso
H8A H 0.0492 0.3088 0.1221 0.1300 Uiso
N1A N 0.1254(11) 0.3138(11) 0.0467(12) 0.0700 Uiso
N2A N -0.0293(3) 0.1136(3) -0.0010(3) 0.0287 Uani
N3A N -0.0010(4) 0.1620(3) -0.0470(3) 0.0343 Uani
N4A N -0.0797(3) 0.1444(4) 0.0392(4) 0.0353 Uani
O1A O 0.0378(4) 0.2092(5) -0.2154(4) 0.0673 Uani
O2A O 0.1430(3) 0.1670(3) -0.1995(3) 0.0460 Uani
O3A O 0.1342(5) 0.2390(4) -0.0539(4) 0.0710 Uani
S1A S 0.05726(16) 0.2500 -0.3750 0.0621 Uani
Zn2A Zn 0.08407(5) 0.13850(5) -0.11167(5) 0.0397 Uani
C1C C 0.0966(5) 0.3003(4) -0.5128(5) 0.0413 Uani
C2C C 0.1196(4) 0.2741(4) -0.4380(4) 0.0383 Uani
C3C C 0.1860(5) 0.2648(6) -0.4112(5) 0.0593 Uani
H1C H 0.2272 0.2766 -0.4372 0.0710 Uiso
O1C O 0.0378(4) 0.2908(5) -0.5346(4) 0.0673 Uani
O2C O 0.1430(3) 0.3330(3) -0.5505(3) 0.0460 Uani
C4F C 0.2243(5) 0.0358(5) 0.0346(5) 0.0453 Uani
H2F H 0.2674 0.0278 0.0588 0.0540 Uiso
C5F C 0.2121(5) 0.0845(5) -0.0195(5) 0.0467 Uani
H3F H 0.2455 0.1158 -0.0393 0.0560 Uiso
C6F C 0.0299(5) -0.0221(7) 0.2297(4) 0.0603 Uani
H4F H 0.0527 -0.0402 0.2715 0.0720 Uiso
C7F C 0.3804(17) -0.1609(18) -0.0229(17) 0.1833 Uani
C8F C 0.2551(11) -0.1222(11) -0.0136(12) 0.0560 Uiso
H5F H 0.2169 -0.1087 -0.0435 0.0670 Uiso
C9F C 0.3203(17) -0.0991(16) -0.1212(18) 0.0860 Uiso
H6F H 0.3683 -0.1058 -0.1383 0.1300 Uiso
H7F H 0.2881 -0.1245 -0.1530 0.1300 Uiso
H8F H 0.3088 -0.0492 -0.1221 0.1300 Uiso
N1F N 0.3138(11) -0.1254(11) -0.0467(12) 0.0700 Uiso
N2F N 0.1136(3) 0.0293(3) 0.0010(3) 0.0287 Uani
N3F N 0.1620(3) 0.0010(4) 0.0470(3) 0.0343 Uani
N4F N 0.1444(4) 0.0797(3) -0.0392(4) 0.0353 Uani
N5F N 0.0000 0.0000 0.1185(4) 0.0323 Uani
N6F N 0.0484(4) -0.0336(4) 0.1602(3) 0.0413 Uani
O3F O 0.2390(4) -0.1342(5) 0.0539(4) 0.0710 Uani
Zn2F Zn 0.13850(5) -0.08407(5) 0.11167(5) 0.0397 Uani
C6G C -0.0299(5) 0.0221(7) 0.2297(4) 0.0603 Uani
H4G H -0.0527 0.0402 0.2715 0.0720 Uiso
N6G N -0.0484(4) 0.0336(4) 0.1602(3) 0.0413 Uani
C4G C -0.2243(5) -0.0358(5) 0.0346(5) 0.0453 Uani
H2G H -0.2674 -0.0278 0.0588 0.0540 Uiso
C5G C -0.2121(5) -0.0845(5) -0.0195(5) 0.0467 Uani
H3G H -0.2455 -0.1158 -0.0393 0.0560 Uiso
C7G C -0.3804(17) 0.1609(18) -0.0229(17) 0.1833 Uani
C8G C -0.2551(11) 0.1222(11) -0.0136(12) 0.0560 Uiso
H5G H -0.2169 0.1087 -0.0435 0.0670 Uiso
C9G C -0.3203(17) 0.0991(16) -0.1212(18) 0.0860 Uiso
H6G H -0.3683 0.1058 -0.1383 0.1300 Uiso
H7G H -0.2881 0.1245 -0.1530 0.1300 Uiso
H8G H -0.3088 0.0492 -0.1221 0.1300 Uiso
N1G N -0.3138(11) 0.1254(11) -0.0467(12) 0.0700 Uiso
N2G N -0.1136(3) -0.0293(3) 0.0010(3) 0.0287 Uani
N3G N -0.1620(3) -0.0010(4) 0.0470(3) 0.0343 Uani
N4G N -0.1444(4) -0.0797(3) -0.0392(4) 0.0353 Uani
O3G O -0.2390(4) 0.1342(5) 0.0539(4) 0.0710 Uani
Zn2G Zn -0.13850(5) 0.08407(5) 0.11167(5) 0.0397 Uani
O1F O 0.2092(5) -0.0378(4) 0.2154(4) 0.0673 Uani
O1G O -0.2092(5) 0.0378(4) 0.2154(4) 0.0673 Uani
O2F O 0.1670(3) -0.1430(3) 0.1995(3) 0.0460 Uani
O2G O -0.1670(3) 0.1430(3) 0.1995(3) 0.0460 Uani
Zn2B Zn -0.08407(5) -0.36150(5) -0.63833(5) 0.0397 Uani
Zn2C Zn 0.08407(5) 0.36150(5) -0.63833(5) 0.0397 Uani
loop_
_atom_site_aniso_label
_atom_site_aniso_U_11
_atom_site_aniso_U_22
_atom_site_aniso_U_33
_atom_site_aniso_U_23
_atom_site_aniso_U_13
_atom_site_aniso_U_12
C1 0.048(5) 0.045(4) 0.031(4) -0.013(3) -0.007(4) 0.002(3)
C2 0.041(4) 0.046(4) 0.028(4) -0.016(3) 0.001(3) 0.007(3)
C3 0.040(4) 0.102(8) 0.036(5) -0.043(5) 0.006(4) -0.007(5)
C4 0.064(5) 0.031(4) 0.041(4) -0.009(3) 0.001(4) 0.010(4)
C5 0.047(4) 0.048(5) 0.045(4) 0.006(4) 0.002(4) 0.021(4)
C6 0.113(9) 0.056(5) 0.012(3) -0.010(3) -0.011(4) -0.009(5)
C7 0.19(3) 0.19(3) 0.17(2) -0.04(2) -0.07(2) 0.03(2)
N2 0.035(3) 0.034(3) 0.017(3) 0.002(2) -0.005(2) -0.001(2)
N3 0.047(3) 0.036(3) 0.020(3) -0.004(2) -0.006(3) -0.003(3)
N4 0.039(3) 0.042(3) 0.025(3) 0.007(3) -0.004(2) 0.006(3)
N5 0.043(4) 0.044(4) 0.010(4) 0.000 0.000 -0.007(4)
N6 0.059(4) 0.049(4) 0.016(3) -0.006(3) -0.004(3) 0.001(3)
O1 0.058(4) 0.083(5) 0.061(4) -0.034(4) -0.024(4) 0.007(4)
O2 0.052(3) 0.060(4) 0.026(3) -0.020(3) -0.003(2) 0.000(3)
O3 0.096(6) 0.057(4) 0.060(5) 0.010(3) -0.026(4) -0.008(4)
S1 0.0333(14) 0.099(3) 0.054(2) -0.050(2) 0.000 0.000
Zn1 0.0328(5) 0.0328(5) 0.0074(6) 0.000 0.000 0.000
Zn2 0.0492(6) 0.0478(5) 0.0221(4) -0.0117(3) -0.0110(4) -0.0010(4)
C1B 0.048 0.045 0.031 -0.013 0.007 -0.002
C2B 0.041 0.046 0.028 -0.016 -0.001 -0.007
C3B 0.04 0.102 0.036 -0.043 -0.006 0.007
O1B 0.058 0.083 0.061 -0.034 0.024 -0.007
O2B 0.052 0.06 0.026 -0.02 0.003 0
C6A 0.113 0.056 0.012 0.01 0.011 -0.009
N6A 0.059 0.049 0.016 0.006 0.004 0.001
C1A 0.048 0.045 0.031 0.013 0.007 0.002
C2A 0.041 0.046 0.028 0.016 -0.001 0.007
C3A 0.04 0.102 0.036 0.043 -0.006 -0.007
C4A 0.064 0.031 0.041 0.009 -0.001 0.01
C5A 0.047 0.048 0.045 -0.006 -0.002 0.021
C7A 0.19 0.19 0.17 0.04 0.07 0.03
N2A 0.035 0.034 0.017 -0.002 0.005 -0.001
N3A 0.047 0.036 0.02 0.004 0.006 -0.003
N4A 0.039 0.042 0.025 -0.007 0.004 0.006
O1A 0.058 0.083 0.061 0.034 0.024 0.007
O2A 0.052 0.06 0.026 0.02 0.003 0
O3A 0.096 0.057 0.06 -0.01 0.026 -0.008
S1A 0.0333 0.099 0.054 0.05 0 0
Zn2A 0.0492 0.0478 0.0221 0.0117 0.011 -0.001
C1C 0.048 0.045 0.031 0.013 -0.007 -0.002
C2C 0.041 0.046 0.028 0.016 0.001 -0.007
C3C 0.04 0.102 0.036 0.043 0.006 0.007
O1C 0.058 0.083 0.061 0.034 -0.024 -0.007
O2C 0.052 0.06 0.026 0.02 -0.003 0
C4F 0.031 0.064 0.041 -0.001 -0.009 -0.01
C5F 0.048 0.047 0.045 -0.002 0.006 -0.021
C6F 0.056 0.113 0.012 0.011 -0.01 0.009
C7F 0.19 0.19 0.17 0.07 -0.04 -0.03
N2F 0.034 0.035 0.017 0.005 0.002 0.001
N3F 0.036 0.047 0.02 0.006 -0.004 0.003
N4F 0.042 0.039 0.025 0.004 0.007 -0.006
N5F 0.044 0.043 0.01 0 0 0.007
N6F 0.049 0.059 0.016 0.004 -0.006 -0.001
O3F 0.057 0.096 0.06 0.026 0.01 0.008
Zn2F 0.0478 0.0492 0.0221 0.011 -0.0117 0.001
C6G 0.056 0.113 0.012 -0.011 0.01 0.009
N6G 0.049 0.059 0.016 -0.004 0.006 -0.001
C4G 0.031 0.064 0.041 0.001 0.009 -0.01
C5G 0.048 0.047 0.045 0.002 -0.006 -0.021
C7G 0.19 0.19 0.17 -0.07 0.04 -0.03
N2G 0.034 0.035 0.017 -0.005 -0.002 0.001
N3G 0.036 0.047 0.02 -0.006 0.004 0.003
N4G 0.042 0.039 0.025 -0.004 -0.007 -0.006
O3G 0.057 0.096 0.06 -0.026 -0.01 0.008
Zn2G 0.0478 0.0492 0.0221 -0.011 0.0117 0.001
O1F 0.083 0.058 0.061 0.024 -0.034 -0.007
O1G 0.083 0.058 0.061 -0.024 0.034 -0.007
O2F 0.06 0.052 0.026 0.003 -0.02 0
O2G 0.06 0.052 0.026 -0.003 0.02 0
Zn2B 0.0492 0.0478 0.0221 -0.0117 0.011 0.001
Zn2C 0.0492 0.0478 0.0221 0.0117 -0.011 0.001
loop_
_geom_bond_atom_site_label_1
_geom_bond_atom_site_label_2
_geom_bond_site_symmetry_1
_geom_bond_site_symmetry_2
C1 C2 1_555 1_555
C2 C3 1_555 1_555
C3 H1 1_555 1_555
C4 H2 1_555 1_555
C5 C4 1_555 1_555
H3 C5 1_555 1_555
C6 H4 1_555 1_555
C7 N1 1_555 1_555
C8 H5 1_555 1_555
C9 H6 1_555 1_555
H7 C9 1_555 1_555
H8 C9 1_555 1_555
N1 C8 1_555 1_555
N2 N3 1_555 1_555
N3 C4 1_555 1_555
N4 C5 1_555 1_555
N5 N6 1_555 1_555
N6 C6 1_555 1_555
O1 C1 1_555 1_555
O2 C1 1_555 1_555
O3 C8 1_555 1_555
S1 C2 1_555 1_555
Zn1 N2 1_555 1_555
Zn2 N3 1_555 1_555
C1B C2B 1_555 1_555
C2B S1 1_555 1_555
C3B C3 1_555 1_555
H1B C3B 1_555 1_555
O1B C1B 1_555 1_555
O2B C1B 1_555 1_555
C6A C6 1_555 1_555
H4A C6A 1_555 1_555
N6A N5 1_555 1_555
C1A C2A 1_555 1_555
C2A C3A 1_555 1_555
C3A H1A 1_555 1_555
C4A H2A 1_555 1_555
C5A C4A 1_555 1_555
H3A C5A 1_555 1_555
C7A N1A 1_555 1_555
C8A H5A 1_555 1_555
C9A H6A 1_555 1_555
H7A C9A 1_555 1_555
H8A C9A 1_555 1_555
N1A C8A 1_555 1_555
N2A Zn1 1_555 1_555
N3A C4A 1_555 1_555
N4A C5A 1_555 1_555
O1A C1A 1_555 1_555
O2A C1A 1_555 1_555
O3A C8A 1_555 1_555
S1A C2A 1_555 1_555
Zn2A N6A 1_555 1_555
C1C C2C 1_555 1_555
C2C S1A 1_555 1_555
C3C C3A 1_555 1_555
H1C C3C 1_555 1_555
O1C C1C 1_555 1_555
O2C C1C 1_555 1_555
C4F H2F 1_555 1_555
C5F C4F 1_555 1_555
H3F C5F 1_555 1_555
C6F H4F 1_555 1_555
C7F N1F 1_555 1_555
C8F H5F 1_555 1_555
C9F H6F 1_555 1_555
H7F C9F 1_555 1_555
H8F C9F 1_555 1_555
N1F C8F 1_555 1_555
N2F Zn1 1_555 1_555
N3F C4F 1_555 1_555
N4F Zn2A 1_555 1_555
N5F Zn1 1_555 1_555
N6F C6F 1_555 1_555
O3F C8F 1_555 1_555
Zn2F N4 1_555 1_555
C6G C6F 1_555 1_555
H4G C6G 1_555 1_555
N6G N5F 1_555 1_555
C4G H2G 1_555 1_555
C5G C4G 1_555 1_555
H3G C5G 1_555 1_555
C7G N1G 1_555 1_555
C8G H5G 1_555 1_555
C9G H6G 1_555 1_555
H7G C9G 1_555 1_555
H8G C9G 1_555 1_555
N1G C8G 1_555 1_555
N2G Zn1 1_555 1_555
N3G C4G 1_555 1_555
N4G Zn2 1_555 1_555
O3G C8G 1_555 1_555
Zn2G N4A 1_555 1_555
O1F Zn2F 1_555 1_555
O1G Zn2G 1_555 1_555
O2F Zn2F 1_555 1_555
O2G Zn2G 1_555 1_555
Zn2B O1B 1_555 1_555
Zn2C O1C 1_555 1_555
C9 N1 1_555 1_555
N2 N4 1_555 1_555
N5 Zn1 1_555 1_555
N6 Zn2 1_555 1_555
O1 Zn2 1_555 1_555
O2 Zn2 1_555 1_555
O3 Zn2 1_555 1_555
C2B C3B 1_555 1_555
O2B Zn2B 1_555 1_555
C6A N6A 1_555 1_555
C9A N1A 1_555 1_555
N2A N3A 1_555 1_555
N2A N4A 1_555 1_555
N3A Zn2A 1_555 1_555
O1A Zn2A 1_555 1_555
O2A Zn2A 1_555 1_555
O3A Zn2A 1_555 1_555
C2C C3C 1_555 1_555
O2C Zn2C 1_555 1_555
C5F N4F 1_555 1_555
C9F N1F 1_555 1_555
N2F N3F 1_555 1_555
N2F N4F 1_555 1_555
N3F Zn2F 1_555 1_555
N5F N6F 1_555 1_555
N6F Zn2F 1_555 1_555
O3F Zn2F 1_555 1_555
C6G N6G 1_555 1_555
N6G Zn2G 1_555 1_555
C5G N4G 1_555 1_555
C9G N1G 1_555 1_555
N2G N3G 1_555 1_555
N2G N4G 1_555 1_555
N3G Zn2G 1_555 1_555
O3G Zn2G 1_555 1_555

#END
