
#######################################################################
#
#                 Cambridge Crystallographic Data Centre
#                                CCDC 
#
#######################################################################
#
# If this CIF has been generated from an entry in the Cambridge 
# Structural Database, then it will include bibliographic, chemical, 
# crystal, experimental, refinement or atomic coordinate data resulting 
# from the CCDC's data processing and validation procedures.
#
#######################################################################

data_OMOWEU
_chemical_formula_moiety         '(C66 H36 N18 O24 S3 Zn8 2-)n'
_symmetry_cell_setting           trigonal
_symmetry_space_group_name_H-M   'P -3 c 1'
_symmetry_Int_Tables_number      165
_space_group_name_Hall           '-P 3 2"c'
loop_
_symmetry_equiv_pos_site_id
_symmetry_equiv_pos_as_xyz
1 x,y,z
2 -y,x-y,z
3 -x+y,-x,z
4 x-y,-y,1/2-z
5 -x,-x+y,1/2-z
6 y,x,1/2-z
7 -x,-y,-z
8 y,-x+y,-z
9 x-y,x,-z
10 -x+y,y,1/2+z
11 x,x-y,1/2+z
12 -y,-x,1/2+z
_cell_length_a                   18.748(4)
_cell_length_b                   18.748
_cell_length_c                   31.892(6)
_cell_angle_alpha                90
_cell_angle_beta                 90
_cell_angle_gamma                120
_cell_volume                     9707.83
loop_
_atom_site_label
_atom_site_type_symbol
_atom_site_fract_x
_atom_site_fract_y
_atom_site_fract_z
_atom_site_U_iso_or_equiv
_atom_site_thermal_displace_type
Zn1 Zn 1.0000 -0.0000 0.11972(2) 0.0291 Uani
Zn2 Zn 0.98562(9) 0.17379(8) 0.08019(4) 0.0333 Uiso
N1 N 0.8953(6) 0.0566(5) 0.0681(3) 0.0360 Uiso
N2 N 0.9018(6) -0.0081(5) 0.0813(3) 0.0260 Uiso
N3 N 0.8360(6) -0.0778(6) 0.0672(3) 0.0400 Uiso
C1 C 0.7883(7) -0.0540(7) 0.0465(4) 0.0470 Uiso
H1 H 0.7367 -0.0895 0.0353 0.0570 Uiso
C2 C 0.8261(7) 0.0269(7) 0.0447(4) 0.0430 Uiso
H2 H 0.8084 0.0581 0.0300 0.0510 Uiso
S1 S 1.0000 0.1111(6) 0.2500 0.0354 Uani
C3 C 0.9869(6) 0.1683(7) 0.2118(3) 0.0532 Uani
C4 C 0.9761(7) 0.2287(7) 0.2293(3) 0.0602 Uani
H3 H 0.9693 0.2687 0.2124 0.0720 Uiso
C5 C 0.9938(15) 0.1488(11) 0.1669(3) 0.0494 Uani
O1 O 0.997(2) 0.0851(13) 0.1598(6) 0.0443 Uani
O2 O 0.9807(6) 0.1909(7) 0.1404(3) 0.0546 Uani
C6 C 1.0446(8) 0.4396(7) 0.0237(5) 0.1520 Uiso
H4 H 1.0955 0.4479 0.0325 0.1830 Uiso
C7 C 0.9785(9) 0.3654(8) 0.0254(4) 0.1200 Uiso
C8 C 0.9009(9) 0.3506(9) 0.0118(5) 0.1650 Uiso
H5 H 0.8542 0.2992 0.0155 0.1980 Uiso
C9 C 0.8957(9) 0.4157(8) -0.0076(6) 0.1760 Uiso
H6 H 0.8469 0.4063 -0.0200 0.2110 Uiso
C10 C 0.9634(6) 0.4922(7) -0.0078(6) 0.1500 Uiso
C11 C 0.9778(9) 0.2911(8) 0.0451(5) 0.1100 Uiso
O3 O 0.9070(7) 0.2301(6) 0.0523(3) 0.1100 Uiso
O4 O 1.0387(6) 0.2881(6) 0.0504(3) 0.0800 Uiso
C3D C 1.0131(6) 0.1814(9) 0.2882(3) 0.0532 Uani
C4D C 1.0239(7) 0.2526(10) 0.2707(3) 0.0602 Uani
H3D H 1.0307 0.2994 0.2876 0.0720 Uiso
C5D C 1.0062(15) 0.1550(19) 0.3331(3) 0.0494 Uani
O1D O 1.003(2) 0.0881(24) 0.3402(6) 0.0443 Uani
O2D O 1.0193(6) 0.2102(9) 0.3596(3) 0.0546 Uani
C6F C 0.9554(8) 0.5604(7) -0.0237(5) 0.1520 Uiso
H4F H 0.9045 0.5521 -0.0325 0.1830 Uiso
C7F C 1.0215(9) 0.6346(8) -0.0254(4) 0.1200 Uiso
C8F C 1.0991(9) 0.6494(9) -0.0118(5) 0.1650 Uiso
H5F H 1.1458 0.7008 -0.0155 0.1980 Uiso
C9F C 1.1043(9) 0.5843(8) 0.0076(6) 0.1760 Uiso
H6F H 1.1531 0.5937 0.0200 0.2110 Uiso
C10F C 1.0366(6) 0.5078(7) 0.0078(6) 0.1500 Uiso
C11F C 1.0222(9) 0.7089(8) -0.0451(5) 0.1100 Uiso
O3F O 1.0930(7) 0.7699(6) -0.0523(3) 0.1100 Uiso
O4F O 0.9613(6) 0.7119(6) -0.0504(3) 0.0800 Uiso
Zn2A Zn 0.82621(8) -0.18817(12) 0.08019(4) 0.0333 Uiso
N1A N 0.9434(5) -0.1613(8) 0.0681(3) 0.0360 Uiso
N2A N 1.0081(5) -0.0901(8) 0.0813(3) 0.0260 Uiso
N3A N 1.0778(6) -0.0862(8) 0.0672(3) 0.0400 Uiso
C1A C 1.0540(7) -0.1577(10) 0.0465(4) 0.0470 Uiso
H1A H 1.0895 -0.1738 0.0353 0.0570 Uiso
C2A C 0.9731(7) -0.2008(10) 0.0447(4) 0.0430 Uiso
H2A H 0.9419 -0.2497 0.0300 0.0510 Uiso
S1A S 0.8889(6) -0.1111(6) 0.2500 0.0354 Uani
C3A C 0.8317(7) -0.1814(9) 0.2118(3) 0.0532 Uani
C4A C 0.7713(7) -0.2526(10) 0.2293(3) 0.0602 Uani
H3A H 0.7313 -0.2994 0.2124 0.0720 Uiso
C5A C 0.8512(11) -0.1550(19) 0.1669(3) 0.0494 Uani
O1A O 0.9149(13) -0.0881(24) 0.1598(6) 0.0443 Uani
O2A O 0.8091(7) -0.2102(9) 0.1404(3) 0.0546 Uani
C6A C 0.5604(7) -0.3950(11) 0.0237(5) 0.1520 Uiso
H4A H 0.5521 -0.3524 0.0325 0.1830 Uiso
C7A C 0.6346(8) -0.3869(12) 0.0254(4) 0.1200 Uiso
C8A C 0.6494(9) -0.4497(13) 0.0118(5) 0.1650 Uiso
H5A H 0.7008 -0.4450 0.0155 0.1980 Uiso
C9A C 0.5843(8) -0.5200(12) -0.0076(6) 0.1760 Uiso
H6A H 0.5937 -0.5594 -0.0200 0.2110 Uiso
C10A C 0.5078(7) -0.5288(9) -0.0078(6) 0.1500 Uiso
C11A C 0.7089(8) -0.3133(12) 0.0451(5) 0.1100 Uiso
O3A O 0.7699(6) -0.3231(9) 0.0523(3) 0.1100 Uiso
O4A O 0.7119(6) -0.2494(8) 0.0504(3) 0.0800 Uiso
C3C C 0.8186(9) -0.1683(7) 0.2882(3) 0.0532 Uani
C4C C 0.7474(10) -0.2287(7) 0.2707(3) 0.0602 Uani
H3C H 0.7006 -0.2687 0.2876 0.0720 Uiso
C5C C 0.8450(19) -0.1488(11) 0.3331(3) 0.0494 Uani
O1C O 0.9119(24) -0.0851(13) 0.3402(6) 0.0443 Uani
O2C O 0.7898(9) -0.1909(7) 0.3596(3) 0.0546 Uani
C6G C 0.4396(7) -0.6050(11) -0.0237(5) 0.1520 Uiso
H4G H 0.4479 -0.6476 -0.0325 0.1830 Uiso
C7G C 0.3654(8) -0.6131(12) -0.0254(4) 0.1200 Uiso
C8G C 0.3506(9) -0.5503(13) -0.0118(5) 0.1650 Uiso
H5G H 0.2992 -0.5550 -0.0155 0.1980 Uiso
C9G C 0.4157(8) -0.4800(12) 0.0076(6) 0.1760 Uiso
H6G H 0.4063 -0.4406 0.0200 0.2110 Uiso
C10G C 0.4922(7) -0.4712(9) 0.0078(6) 0.1500 Uiso
C11G C 0.2911(8) -0.6867(12) -0.0451(5) 0.1100 Uiso
O3G O 0.2301(6) -0.6769(9) -0.0523(3) 0.1100 Uiso
O4G O 0.2881(6) -0.7506(8) -0.0504(3) 0.0800 Uiso
Zn2B Zn 1.18817(12) 0.01438(9) 0.08019(4) 0.0333 Uiso
N1B N 1.1613(8) 0.1047(6) 0.0681(3) 0.0360 Uiso
N2B N 1.0901(8) 0.0982(6) 0.0813(3) 0.0260 Uiso
N3B N 1.0862(8) 0.1640(6) 0.0672(3) 0.0400 Uiso
C1B C 1.1577(10) 0.2117(7) 0.0465(4) 0.0470 Uiso
H1B H 1.1738 0.2633 0.0353 0.0570 Uiso
C2B C 1.2008(10) 0.1739(7) 0.0447(4) 0.0430 Uiso
H2B H 1.2497 0.1916 0.0300 0.0510 Uiso
S1B S 1.1111(6) 0.0000 0.2500 0.0354 Uani
C3B C 1.1814(9) 0.0131(6) 0.2118(3) 0.0532 Uani
C4B C 1.2526(10) 0.0239(7) 0.2293(3) 0.0602 Uani
H3B H 1.2994 0.0307 0.2124 0.0720 Uiso
C5B C 1.1550(19) 0.0062(15) 0.1669(3) 0.0494 Uani
O1B O 1.0881(24) 0.003(2) 0.1598(6) 0.0443 Uani
O2B O 1.2102(9) 0.0193(6) 0.1404(3) 0.0546 Uani
C6B C 1.3950(11) -0.0446(8) 0.0237(5) 0.1520 Uiso
H4B H 1.3524 -0.0955 0.0325 0.1830 Uiso
C7B C 1.3869(12) 0.0215(9) 0.0254(4) 0.1200 Uiso
C8B C 1.4497(13) 0.0991(9) 0.0118(5) 0.1650 Uiso
H5B H 1.4450 0.1458 0.0155 0.1980 Uiso
C9B C 1.5200(12) 0.1043(9) -0.0076(6) 0.1760 Uiso
H6B H 1.5594 0.1531 -0.0200 0.2110 Uiso
C10B C 1.5288(9) 0.0366(6) -0.0078(6) 0.1500 Uiso
C11B C 1.3133(12) 0.0222(9) 0.0451(5) 0.1100 Uiso
O3B O 1.3231(9) 0.0930(7) 0.0523(3) 0.1100 Uiso
O4B O 1.2494(8) -0.0387(6) 0.0504(3) 0.0800 Uiso
C3E C 1.1683(7) -0.0131(6) 0.2882(3) 0.0532 Uani
C4E C 1.2287(7) -0.0239(7) 0.2707(3) 0.0602 Uani
H3E H 1.2687 -0.0307 0.2876 0.0720 Uiso
C5E C 1.1488(11) -0.0062(15) 0.3331(3) 0.0494 Uani
O1E O 1.0851(13) -0.003(2) 0.3402(6) 0.0443 Uani
O2E O 1.1909(7) -0.0193(6) 0.3596(3) 0.0546 Uani
C6H C 1.6050(11) 0.0446(8) -0.0237(5) 0.1520 Uiso
H4H H 1.6476 0.0955 -0.0325 0.1830 Uiso
C7H C 1.6131(12) -0.0215(9) -0.0254(4) 0.1200 Uiso
C8H C 1.5503(13) -0.0991(9) -0.0118(5) 0.1650 Uiso
H5H H 1.5550 -0.1458 -0.0155 0.1980 Uiso
C9H C 1.4800(12) -0.1043(9) 0.0076(6) 0.1760 Uiso
H6H H 1.4406 -0.1531 0.0200 0.2110 Uiso
C10H C 1.4712(9) -0.0366(6) 0.0078(6) 0.1500 Uiso
C11H C 1.6867(12) -0.0222(9) -0.0451(5) 0.1100 Uiso
O3H O 1.6769(9) -0.0930(7) -0.0523(3) 0.1100 Uiso
O4H O 1.7506(8) 0.0387(6) -0.0504(3) 0.0800 Uiso
Zn1C Zn 1.0000 -0.0000 0.38028(2) 0.0291 Uani
Zn2C Zn 0.81183(12) -0.17379(8) 0.41981(4) 0.0333 Uiso
N1C N 0.8387(8) -0.0566(5) 0.4319(3) 0.0360 Uiso
N2C N 0.9099(8) 0.0081(5) 0.4187(3) 0.0260 Uiso
N3C N 0.9138(8) 0.0778(6) 0.4328(3) 0.0400 Uiso
C1C C 0.8423(10) 0.0540(7) 0.4535(4) 0.0470 Uiso
H1C H 0.8262 0.0895 0.4647 0.0570 Uiso
C2C C 0.7992(10) -0.0269(7) 0.4553(4) 0.0430 Uiso
H2C H 0.7503 -0.0581 0.4700 0.0510 Uiso
Zn2D Zn 1.01438(9) 0.18817(12) 0.41981(4) 0.0333 Uiso
N1D N 1.1047(6) 0.1613(8) 0.4319(3) 0.0360 Uiso
N2D N 1.0982(6) 0.0901(8) 0.4187(3) 0.0260 Uiso
N3D N 1.1640(6) 0.0862(8) 0.4328(3) 0.0400 Uiso
C1D C 1.2117(7) 0.1577(10) 0.4535(4) 0.0470 Uiso
H1D H 1.2633 0.1738 0.4647 0.0570 Uiso
C2D C 1.1739(7) 0.2008(10) 0.4553(4) 0.0430 Uiso
H2D H 1.1916 0.2497 0.4700 0.0510 Uiso
Zn2E Zn 1.17379(8) -0.01438(9) 0.41981(4) 0.0333 Uiso
N1E N 1.0566(5) -0.1047(6) 0.4319(3) 0.0360 Uiso
N2E N 0.9919(5) -0.0982(6) 0.4187(3) 0.0260 Uiso
N3E N 0.9222(6) -0.1640(6) 0.4328(3) 0.0400 Uiso
C1E C 0.9460(7) -0.2117(7) 0.4535(4) 0.0470 Uiso
H1E H 0.9105 -0.2633 0.4647 0.0570 Uiso
C2E C 1.0269(7) -0.1739(7) 0.4553(4) 0.0430 Uiso
H2E H 1.0581 -0.1916 0.4700 0.0510 Uiso
Zn2F Zn 1.01438(9) 0.82621(8) -0.08019(4) 0.0333 Uiso
Zn2G Zn 0.17379(8) -0.81183(12) -0.08019(4) 0.0333 Uiso
Zn2H Zn 1.81183(12) -0.01438(9) -0.08019(4) 0.0333 Uiso
O3C O 0.6769(9) -0.2301(6) 0.4477(3) 0.1100 Uiso
O3D O 1.0930(7) 0.3231(9) 0.4477(3) 0.1100 Uiso
O3E O 1.2301(6) -0.0930(7) 0.4477(3) 0.1100 Uiso
O4C O 0.7506(8) -0.2881(6) 0.4496(3) 0.0800 Uiso
O4D O 0.9613(6) 0.2494(8) 0.4496(3) 0.0800 Uiso
O4E O 1.2881(6) 0.0387(6) 0.4496(3) 0.0800 Uiso
loop_
_atom_site_aniso_label
_atom_site_aniso_U_11
_atom_site_aniso_U_22
_atom_site_aniso_U_33
_atom_site_aniso_U_23
_atom_site_aniso_U_13
_atom_site_aniso_U_12
Zn1 0.0300(3) 0.0300(3) 0.0272(4) 0.000 0.000 0.01500(16)
S1 0.078(4) 0.028(3) 0.017(3) -0.0003(15) -0.001(3) 0.039(2)
C3 0.088(5) 0.034(4) 0.049(4) 0.015(3) -0.002(4) 0.039(4)
C4 0.098(7) 0.037(5) 0.058(4) 0.014(4) -0.002(5) 0.043(5)
C5 0.082(5) 0.039(4) 0.031(3) 0.003(3) 0.000(3) 0.033(4)
O1 0.075(5) 0.040(4) 0.033(4) -0.009(4) 0.005(4) 0.040(5)
O2 0.089(6) 0.049(5) 0.025(3) 0.003(3) -0.001(4) 0.034(5)
C3D 0.088 0.044 0.049 -0.017 -0.002 0.049
C4D 0.098 0.049 0.058 -0.016 -0.002 0.055
C5D 0.082 0.055 0.031 -0.003 0 0.049
O1D 0.075 0.035 0.033 0.014 0.005 0.035
O2D 0.089 0.07 0.025 -0.004 -0.001 0.055
S1A 0.028 0.028 0.017 -0.0007 0.0003 -0.011
C3A 0.034 0.044 0.049 -0.017 -0.015 -0.005
C4A 0.037 0.049 0.058 -0.016 -0.014 -0.006
C5A 0.039 0.055 0.031 -0.003 -0.003 0.006
O1A 0.04 0.035 0.033 0.014 0.009 7.14532e-18
O2A 0.049 0.07 0.025 -0.004 -0.003 0.015
C3C 0.044 0.034 0.049 0.015 0.017 -0.005
C4C 0.049 0.037 0.058 0.014 0.016 -0.006
C5C 0.055 0.039 0.031 0.003 0.003 0.006
O1C 0.035 0.04 0.033 -0.009 -0.014 7.14532e-18
O2C 0.07 0.049 0.025 0.003 0.004 0.015
S1B 0.028 0.078 0.017 0.001 0.0007 0.039
C3B 0.044 0.088 0.049 0.002 0.017 0.049
C4B 0.049 0.098 0.058 0.002 0.016 0.055
C5B 0.055 0.082 0.031 0 0.003 0.049
O1B 0.035 0.075 0.033 -0.005 -0.014 0.035
O2B 0.07 0.089 0.025 0.001 0.004 0.055
C3E 0.034 0.088 0.049 0.002 -0.015 0.039
C4E 0.037 0.098 0.058 0.002 -0.014 0.043
C5E 0.039 0.082 0.031 0 -0.003 0.033
O1E 0.04 0.075 0.033 -0.005 0.009 0.04
O2E 0.049 0.089 0.025 0.001 -0.003 0.034
Zn1C 0.03 0.03 0.0272 0 0 0.015
loop_
_geom_bond_atom_site_label_1
_geom_bond_atom_site_label_2
_geom_bond_site_symmetry_1
_geom_bond_site_symmetry_2
Zn1 N2 1_555 1_555
Zn2 N1 1_555 1_555
N1 N2 1_555 1_555
N2 N3 1_555 1_555
N3 C1 1_555 1_555
C1 H1 1_555 1_555
C2 N1 1_555 1_555
H2 C2 1_555 1_555
S1 C3 1_555 1_555
C3 C4 1_555 1_555
C4 H3 1_555 1_555
C5 C3 1_555 1_555
O1 Zn1 1_555 1_555
O2 Zn2 1_555 1_555
C6 H4 1_555 1_555
C7 C6 1_555 1_555
C8 C7 1_555 1_555
H5 C8 1_555 1_555
C9 C8 1_555 1_555
H6 C9 1_555 1_555
C10 C9 1_555 1_555
C11 C7 1_555 1_555
O3 Zn2 1_555 1_555
O4 Zn2 1_555 1_555
C3D S1 1_555 1_555
C4D C4 1_555 1_555
H3D C4D 1_555 1_555
C5D C3D 1_555 1_555
O1D C5D 1_555 1_555
O2D C5D 1_555 1_555
C6F C10 1_555 1_555
H4F C6F 1_555 1_555
C7F C6F 1_555 1_555
C8F C7F 1_555 1_555
H5F C8F 1_555 1_555
C9F C8F 1_555 1_555
H6F C9F 1_555 1_555
C10F C6 1_555 1_555
C11F C7F 1_555 1_555
O3F C11F 1_555 1_555
O4F C11F 1_555 1_555
Zn2A N3 1_555 1_555
N1A Zn2A 1_555 1_555
N2A Zn1 1_555 1_555
N3A N2A 1_555 1_555
C1A N3A 1_555 1_555
H1A C1A 1_555 1_555
C2A N1A 1_555 1_555
H2A C2A 1_555 1_555
S1A C3A 1_555 1_555
C3A C4A 1_555 1_555
C4A H3A 1_555 1_555
C5A C3A 1_555 1_555
O1A Zn1 1_555 1_555
O2A Zn2A 1_555 1_555
C6A H4A 1_555 1_555
C7A C6A 1_555 1_555
C8A C7A 1_555 1_555
H5A C8A 1_555 1_555
C9A C8A 1_555 1_555
H6A C9A 1_555 1_555
C10A C9A 1_555 1_555
C11A C7A 1_555 1_555
O3A Zn2A 1_555 1_555
O4A Zn2A 1_555 1_555
C3C S1A 1_555 1_555
C4C C4A 1_555 1_555
H3C C4C 1_555 1_555
C5C C3C 1_555 1_555
O1C C5C 1_555 1_555
O2C C5C 1_555 1_555
C6G C10A 1_555 1_555
H4G C6G 1_555 1_555
C7G C6G 1_555 1_555
C8G C7G 1_555 1_555
H5G C8G 1_555 1_555
C9G C8G 1_555 1_555
H6G C9G 1_555 1_555
C10G C6A 1_555 1_555
C11G C7G 1_555 1_555
O3G C11G 1_555 1_555
O4G C11G 1_555 1_555
Zn2B N3A 1_555 1_555
N1B Zn2B 1_555 1_555
N2B Zn1 1_555 1_555
N3B Zn2 1_555 1_555
C1B N3B 1_555 1_555
H1B C1B 1_555 1_555
C2B N1B 1_555 1_555
H2B C2B 1_555 1_555
S1B C3B 1_555 1_555
C3B C4B 1_555 1_555
C4B H3B 1_555 1_555
C5B C3B 1_555 1_555
O1B Zn1 1_555 1_555
O2B Zn2B 1_555 1_555
C6B H4B 1_555 1_555
C7B C6B 1_555 1_555
C8B C7B 1_555 1_555
H5B C8B 1_555 1_555
C9B C8B 1_555 1_555
H6B C9B 1_555 1_555
C10B C9B 1_555 1_555
C11B C7B 1_555 1_555
O3B Zn2B 1_555 1_555
O4B Zn2B 1_555 1_555
C3E S1B 1_555 1_555
C4E C4B 1_555 1_555
H3E C4E 1_555 1_555
C5E C3E 1_555 1_555
O1E C5E 1_555 1_555
O2E C5E 1_555 1_555
C6H C10B 1_555 1_555
H4H C6H 1_555 1_555
C7H C6H 1_555 1_555
C8H C7H 1_555 1_555
H5H C8H 1_555 1_555
C9H C8H 1_555 1_555
H6H C9H 1_555 1_555
C10H C6B 1_555 1_555
C11H C7H 1_555 1_555
O3H C11H 1_555 1_555
O4H C11H 1_555 1_555
Zn1C O1D 1_555 1_555
Zn2C O2C 1_555 1_555
N1C Zn2C 1_555 1_555
N2C Zn1C 1_555 1_555
N3C N2C 1_555 1_555
C1C N3C 1_555 1_555
H1C C1C 1_555 1_555
C2C N1C 1_555 1_555
H2C C2C 1_555 1_555
Zn2D O2D 1_555 1_555
N1D Zn2D 1_555 1_555
N2D Zn1C 1_555 1_555
N3D N2D 1_555 1_555
C1D N3D 1_555 1_555
H1D C1D 1_555 1_555
C2D N1D 1_555 1_555
H2D C2D 1_555 1_555
Zn2E O2E 1_555 1_555
N1E Zn2E 1_555 1_555
N2E Zn1C 1_555 1_555
N3E Zn2C 1_555 1_555
C1E N3E 1_555 1_555
H1E C1E 1_555 1_555
C2E N1E 1_555 1_555
H2E C2E 1_555 1_555
Zn2F O3F 1_555 1_555
Zn2G O3G 1_555 1_555
Zn2H O3H 1_555 1_555
O3C Zn2C 1_555 1_555
O3D Zn2D 1_555 1_555
O3E Zn2E 1_555 1_555
O4C Zn2C 1_555 1_555
O4D Zn2D 1_555 1_555
O4E Zn2E 1_555 1_555
C1 C2 1_555 1_555
C5 O1 1_555 1_555
C5 O2 1_555 1_555
C10 C10F 1_555 1_555
C11 O3 1_555 1_555
C11 O4 1_555 1_555
C3D C4D 1_555 1_555
C9F C10F 1_555 1_555
O4F Zn2F 1_555 1_555
N1A N2A 1_555 1_555
C1A C2A 1_555 1_555
C5A O1A 1_555 1_555
C5A O2A 1_555 1_555
C10A C10G 1_555 1_555
C11A O3A 1_555 1_555
C11A O4A 1_555 1_555
C3C C4C 1_555 1_555
O1C Zn1C 1_555 1_555
C9G C10G 1_555 1_555
O4G Zn2G 1_555 1_555
N1B N2B 1_555 1_555
N2B N3B 1_555 1_555
C1B C2B 1_555 1_555
C5B O1B 1_555 1_555
C5B O2B 1_555 1_555
C10B C10H 1_555 1_555
C11B O3B 1_555 1_555
C11B O4B 1_555 1_555
C3E C4E 1_555 1_555
O1E Zn1C 1_555 1_555
C9H C10H 1_555 1_555
O4H Zn2H 1_555 1_555
N1C N2C 1_555 1_555
N3C Zn2D 1_555 1_555
C1C C2C 1_555 1_555
N1D N2D 1_555 1_555
N3D Zn2E 1_555 1_555
C1D C2D 1_555 1_555
N1E N2E 1_555 1_555
N2E N3E 1_555 1_555
C1E C2E 1_555 1_555

#END
