
#######################################################################
#
#                 Cambridge Crystallographic Data Centre
#                                CCDC 
#
#######################################################################
#
# If this CIF has been generated from an entry in the Cambridge 
# Structural Database, then it will include bibliographic, chemical, 
# crystal, experimental, refinement or atomic coordinate data resulting 
# from the CCDC's data processing and validation procedures.
#
#######################################################################

data_OMIMEE
_chemical_formula_moiety         '(C54 H54 Cu12 Mo12 N24 O84 P1 1-)n'
_symmetry_cell_setting           cubic
_symmetry_space_group_name_H-M   'F m -3 m'
_symmetry_Int_Tables_number      225
_space_group_name_Hall           '-F 4 2 3'
loop_
_symmetry_equiv_pos_site_id
_symmetry_equiv_pos_as_xyz
1 x,y,z
2 -x,-y,z
3 -x,y,-z
4 x,-y,-z
5 z,x,y
6 z,-x,-y
7 -z,-x,y
8 -z,x,-y
9 y,z,x
10 -y,z,-x
11 y,-z,-x
12 -y,-z,x
13 y,x,-z
14 -y,-x,-z
15 y,-x,z
16 -y,x,z
17 x,z,-y
18 -x,z,y
19 -x,-z,-y
20 x,-z,y
21 z,y,-x
22 z,-y,x
23 -z,y,x
24 -z,-y,-x
25 x,1/2+y,1/2+z
26 -x,1/2-y,1/2+z
27 -x,1/2+y,1/2-z
28 x,1/2-y,1/2-z
29 z,1/2+x,1/2+y
30 z,1/2-x,1/2-y
31 -z,1/2-x,1/2+y
32 -z,1/2+x,1/2-y
33 y,1/2+z,1/2+x
34 -y,1/2+z,1/2-x
35 y,1/2-z,1/2-x
36 -y,1/2-z,1/2+x
37 y,1/2+x,1/2-z
38 -y,1/2-x,1/2-z
39 y,1/2-x,1/2+z
40 -y,1/2+x,1/2+z
41 x,1/2+z,1/2-y
42 -x,1/2+z,1/2+y
43 -x,1/2-z,1/2-y
44 x,1/2-z,1/2+y
45 z,1/2+y,1/2-x
46 z,1/2-y,1/2+x
47 -z,1/2+y,1/2+x
48 -z,1/2-y,1/2-x
49 1/2+x,y,1/2+z
50 1/2-x,-y,1/2+z
51 1/2-x,y,1/2-z
52 1/2+x,-y,1/2-z
53 1/2+z,x,1/2+y
54 1/2+z,-x,1/2-y
55 1/2-z,-x,1/2+y
56 1/2-z,x,1/2-y
57 1/2+y,z,1/2+x
58 1/2-y,z,1/2-x
59 1/2+y,-z,1/2-x
60 1/2-y,-z,1/2+x
61 1/2+y,x,1/2-z
62 1/2-y,-x,1/2-z
63 1/2+y,-x,1/2+z
64 1/2-y,x,1/2+z
65 1/2+x,z,1/2-y
66 1/2-x,z,1/2+y
67 1/2-x,-z,1/2-y
68 1/2+x,-z,1/2+y
69 1/2+z,y,1/2-x
70 1/2+z,-y,1/2+x
71 1/2-z,y,1/2+x
72 1/2-z,-y,1/2-x
73 1/2+x,1/2+y,z
74 1/2-x,1/2-y,z
75 1/2-x,1/2+y,-z
76 1/2+x,1/2-y,-z
77 1/2+z,1/2+x,y
78 1/2+z,1/2-x,-y
79 1/2-z,1/2-x,y
80 1/2-z,1/2+x,-y
81 1/2+y,1/2+z,x
82 1/2-y,1/2+z,-x
83 1/2+y,1/2-z,-x
84 1/2-y,1/2-z,x
85 1/2+y,1/2+x,-z
86 1/2-y,1/2-x,-z
87 1/2+y,1/2-x,z
88 1/2-y,1/2+x,z
89 1/2+x,1/2+z,-y
90 1/2-x,1/2+z,y
91 1/2-x,1/2-z,-y
92 1/2+x,1/2-z,y
93 1/2+z,1/2+y,-x
94 1/2+z,1/2-y,x
95 1/2-z,1/2+y,x
96 1/2-z,1/2-y,-x
97 -x,-y,-z
98 x,y,-z
99 x,-y,z
100 -x,y,z
101 -z,-x,-y
102 -z,x,y
103 z,x,-y
104 z,-x,y
105 -y,-z,-x
106 y,-z,x
107 -y,z,x
108 y,z,-x
109 -y,-x,z
110 y,x,z
111 -y,x,-z
112 y,-x,-z
113 -x,-z,y
114 x,-z,-y
115 x,z,y
116 -x,z,-y
117 -z,-y,x
118 -z,y,-x
119 z,-y,-x
120 z,y,x
121 -x,1/2-y,1/2-z
122 x,1/2+y,1/2-z
123 x,1/2-y,1/2+z
124 -x,1/2+y,1/2+z
125 -z,1/2-x,1/2-y
126 -z,1/2+x,1/2+y
127 z,1/2+x,1/2-y
128 z,1/2-x,1/2+y
129 -y,1/2-z,1/2-x
130 y,1/2-z,1/2+x
131 -y,1/2+z,1/2+x
132 y,1/2+z,1/2-x
133 -y,1/2-x,1/2+z
134 y,1/2+x,1/2+z
135 -y,1/2+x,1/2-z
136 y,1/2-x,1/2-z
137 -x,1/2-z,1/2+y
138 x,1/2-z,1/2-y
139 x,1/2+z,1/2+y
140 -x,1/2+z,1/2-y
141 -z,1/2-y,1/2+x
142 -z,1/2+y,1/2-x
143 z,1/2-y,1/2-x
144 z,1/2+y,1/2+x
145 1/2-x,-y,1/2-z
146 1/2+x,y,1/2-z
147 1/2+x,-y,1/2+z
148 1/2-x,y,1/2+z
149 1/2-z,-x,1/2-y
150 1/2-z,x,1/2+y
151 1/2+z,x,1/2-y
152 1/2+z,-x,1/2+y
153 1/2-y,-z,1/2-x
154 1/2+y,-z,1/2+x
155 1/2-y,z,1/2+x
156 1/2+y,z,1/2-x
157 1/2-y,-x,1/2+z
158 1/2+y,x,1/2+z
159 1/2-y,x,1/2-z
160 1/2+y,-x,1/2-z
161 1/2-x,-z,1/2+y
162 1/2+x,-z,1/2-y
163 1/2+x,z,1/2+y
164 1/2-x,z,1/2-y
165 1/2-z,-y,1/2+x
166 1/2-z,y,1/2-x
167 1/2+z,-y,1/2-x
168 1/2+z,y,1/2+x
169 1/2-x,1/2-y,-z
170 1/2+x,1/2+y,-z
171 1/2+x,1/2-y,z
172 1/2-x,1/2+y,z
173 1/2-z,1/2-x,-y
174 1/2-z,1/2+x,y
175 1/2+z,1/2+x,-y
176 1/2+z,1/2-x,y
177 1/2-y,1/2-z,-x
178 1/2+y,1/2-z,x
179 1/2-y,1/2+z,x
180 1/2+y,1/2+z,-x
181 1/2-y,1/2-x,z
182 1/2+y,1/2+x,z
183 1/2-y,1/2+x,-z
184 1/2+y,1/2-x,-z
185 1/2-x,1/2-z,y
186 1/2+x,1/2-z,-y
187 1/2+x,1/2+z,y
188 1/2-x,1/2+z,-y
189 1/2-z,1/2-y,x
190 1/2-z,1/2+y,-x
191 1/2+z,1/2-y,-x
192 1/2+z,1/2+y,x
_cell_length_a                   44.5993(3)
_cell_length_b                   44.5993(3)
_cell_length_c                   44.5993(3)
_cell_angle_alpha                90
_cell_angle_beta                 90
_cell_angle_gamma                90
_cell_volume                     88712.4
loop_
_atom_site_label
_atom_site_type_symbol
_atom_site_fract_x
_atom_site_fract_y
_atom_site_fract_z
Cu1 Cu 0.168543(16) 0.168543(16) 0.0000
Cu2 Cu 0.126518(16) 0.126518(16) 0.0000
Cu3 Cu 0.32380(4) 0.12316(4) 0.17620(4)
O5 O 0.15135(9) 0.10802(9) 0.03108(9)
O6 O 0.18690(9) 0.14347(9) 0.03101(9)
O7 O 0.3348(2) 0.1652(2) 0.1652(2)
C1 C 0.2571(3) 0.1168(2) 0.1168(2)
C2 C 0.22913(19) 0.10368(16) 0.10368(16)
C3 C 0.21623(14) 0.11636(13) 0.07836(14)
H1 H 0.2253 0.1327 0.0692
C4 C 0.19003(12) 0.10476(12) 0.06677(12)
C5 C 0.17726(17) 0.07999(12) 0.07999(12)
H2 H 0.1597 0.0721 0.0721
C6 C 0.17511(12) 0.12013(12) 0.04084(12)
N1 N 0.27022(15) 0.10595(15) 0.14066(16)
N2 N 0.29273(15) 0.12504(15) 0.14520(16)
O8 O 0.20268(13) 0.20268(13) 0.0000
O9 O 0.09217(14) 0.09217(14) 0.0000
O10 O 0.2935(4) 0.1014(6) 0.2065(4)
O11 O 0.3490(6) 0.0872(10) 0.1510(6)
O5JD O 0.15135(9) 0.03108(9) 0.10802(9)
O6JD O 0.18690(9) 0.03101(9) 0.14347(9)
C3JD C 0.21623(14) 0.07836(14) 0.11636(13)
H1JD H 0.2253 0.0692 0.1327
C4JD C 0.19003(12) 0.06677(12) 0.10476(12)
C6JD C 0.17511(12) 0.04084(12) 0.12013(12)
N1JD N 0.27022(15) 0.14066(16) 0.10595(15)
N2JD N 0.29273(15) 0.14520(16) 0.12504(15)
Cu1D Cu 0.0000 0.168543(16) 0.168543(16)
Cu2D Cu 0.0000 0.126518(16) 0.126518(16)
Cu3D Cu 0.17620(4) 0.32380(4) 0.12316(4)
O5D O 0.03108(9) 0.15135(9) 0.10802(9)
O6D O 0.03101(9) 0.18690(9) 0.14347(9)
O7D O 0.1652(2) 0.3348(2) 0.1652(2)
C1D C 0.1168(2) 0.2571(3) 0.1168(2)
C2D C 0.10368(16) 0.22913(19) 0.10368(16)
C3D C 0.07836(14) 0.21623(14) 0.11636(13)
H1D H 0.0692 0.2253 0.1327
C4D C 0.06677(12) 0.19003(12) 0.10476(12)
C5D C 0.07999(12) 0.17726(17) 0.07999(12)
H2D H 0.0721 0.1597 0.0721
C6D C 0.04084(12) 0.17511(12) 0.12013(12)
N1D N 0.14066(16) 0.27022(15) 0.10595(15)
N2D N 0.14520(16) 0.29273(15) 0.12504(15)
O8D O 0.0000 0.20268(13) 0.20268(13)
O9D O 0.0000 0.09217(14) 0.09217(14)
O10D O 0.2065(4) 0.2935(4) 0.1014(6)
O11D O 0.1510(6) 0.3490(6) 0.0872(10)
O5ED O 0.10802(9) 0.15135(9) 0.03108(9)
O6ED O 0.14347(9) 0.18690(9) 0.03101(9)
C3ED C 0.11636(13) 0.21623(14) 0.07836(14)
H1ED H 0.1327 0.2253 0.0692
C4ED C 0.10476(12) 0.19003(12) 0.06677(12)
C6ED C 0.12013(12) 0.17511(12) 0.04084(12)
N1ED N 0.10595(15) 0.27022(15) 0.14066(16)
N2ED N 0.12504(15) 0.29273(15) 0.14520(16)
Cu1H Cu 0.168543(16) 0.0000 0.168543(16)
Cu2H Cu 0.126518(16) 0.0000 0.126518(16)
Cu3H Cu 0.12316(4) 0.17620(4) 0.32380(4)
O5H O 0.10802(9) 0.03108(9) 0.15135(9)
O6H O 0.14347(9) 0.03101(9) 0.18690(9)
C1H C 0.1168(2) 0.1168(2) 0.2571(3)
C2H C 0.10368(16) 0.10368(16) 0.22913(19)
C3H C 0.11636(13) 0.07836(14) 0.21623(14)
H1H H 0.1327 0.0692 0.2253
C4H C 0.10476(12) 0.06677(12) 0.19003(12)
C5H C 0.07999(12) 0.07999(12) 0.17726(17)
H2H H 0.0721 0.0721 0.1597
C6H C 0.12013(12) 0.04084(12) 0.17511(12)
N1H N 0.10595(15) 0.14066(16) 0.27022(15)
N2H N 0.12504(15) 0.14520(16) 0.29273(15)
O8H O 0.20268(13) 0.0000 0.20268(13)
O9H O 0.09217(14) 0.0000 0.09217(14)
O10H O 0.1014(6) 0.2065(4) 0.2935(4)
O11H O 0.0872(10) 0.1510(6) 0.3490(6)
O5OD O 0.03108(9) 0.10802(9) 0.15135(9)
O6OD O 0.03101(9) 0.14347(9) 0.18690(9)
C3OD C 0.07836(14) 0.11636(13) 0.21623(14)
H1OD H 0.0692 0.1327 0.2253
C4OD C 0.06677(12) 0.10476(12) 0.19003(12)
C6OD C 0.04084(12) 0.12013(12) 0.17511(12)
N1OD N 0.14066(16) 0.10595(15) 0.27022(15)
N2OD N 0.14520(16) 0.12504(15) 0.29273(15)
Cu3L Cu 0.12316(4) 0.32380(4) -0.17620(4)
O5L O 0.10802(9) 0.15135(9) -0.03108(9)
O6L O 0.14347(9) 0.18690(9) -0.03101(9)
C1L C 0.1168(2) 0.2571(3) -0.1168(2)
C2L C 0.10368(16) 0.22913(19) -0.10368(16)
C3L C 0.11636(13) 0.21623(14) -0.07836(14)
H1L H 0.1327 0.2253 -0.0692
C4L C 0.10476(12) 0.19003(12) -0.06677(12)
C5L C 0.07999(12) 0.17726(17) -0.07999(12)
H2L H 0.0721 0.1597 -0.0721
C6L C 0.12013(12) 0.17511(12) -0.04084(12)
N1L N 0.10595(15) 0.27022(15) -0.14066(16)
N2L N 0.12504(15) 0.29273(15) -0.14520(16)
O10L O 0.1014(6) 0.2935(4) -0.2065(4)
O11L O 0.0872(10) 0.3490(6) -0.1510(6)
O5XC O 0.03108(9) 0.15135(9) -0.10802(9)
O6XC O 0.03101(9) 0.18690(9) -0.14347(9)
C3XC C 0.07836(14) 0.21623(14) -0.11636(13)
H1XC H 0.0692 0.2253 -0.1327
C4XC C 0.06677(12) 0.19003(12) -0.10476(12)
C6XC C 0.04084(12) 0.17511(12) -0.12013(12)
N1XC N 0.14066(16) 0.27022(15) -0.10595(15)
N2XC N 0.14520(16) 0.29273(15) -0.12504(15)
Cu3P Cu 0.32380(4) 0.17620(4) -0.12316(4)
O5P O 0.15135(9) 0.03108(9) -0.10802(9)
O6P O 0.18690(9) 0.03101(9) -0.14347(9)
C1P C 0.2571(3) 0.1168(2) -0.1168(2)
C2P C 0.22913(19) 0.10368(16) -0.10368(16)
C3P C 0.21623(14) 0.07836(14) -0.11636(13)
H1P H 0.2253 0.0692 -0.1327
C4P C 0.19003(12) 0.06677(12) -0.10476(12)
C5P C 0.17726(17) 0.07999(12) -0.07999(12)
H2P H 0.1597 0.0721 -0.0721
C6P C 0.17511(12) 0.04084(12) -0.12013(12)
N1P N 0.27022(15) 0.14066(16) -0.10595(15)
N2P N 0.29273(15) 0.14520(16) -0.12504(15)
O10P O 0.2935(4) 0.2065(4) -0.1014(6)
O11P O 0.3490(6) 0.1510(6) -0.0872(10)
O5SC O 0.15135(9) 0.10802(9) -0.03108(9)
O6SC O 0.18690(9) 0.14347(9) -0.03101(9)
C3SC C 0.21623(14) 0.11636(13) -0.07836(14)
H1SC H 0.2253 0.1327 -0.0692
C4SC C 0.19003(12) 0.10476(12) -0.06677(12)
C6SC C 0.17511(12) 0.12013(12) -0.04084(12)
N1SC N 0.27022(15) 0.10595(15) -0.14066(16)
N2SC N 0.29273(15) 0.12504(15) -0.14520(16)
Cu3S Cu 0.32380(4) -0.17620(4) 0.12316(4)
O5S O 0.15135(9) -0.03108(9) 0.10802(9)
O6S O 0.18690(9) -0.03101(9) 0.14347(9)
C1S C 0.2571(3) -0.1168(2) 0.1168(2)
C2S C 0.22913(19) -0.10368(16) 0.10368(16)
C3S C 0.21623(14) -0.07836(14) 0.11636(13)
H1S H 0.2253 -0.0692 0.1327
C4S C 0.19003(12) -0.06677(12) 0.10476(12)
C5S C 0.17726(17) -0.07999(12) 0.07999(12)
H2S H 0.1597 -0.0721 0.0721
C6S C 0.17511(12) -0.04084(12) 0.12013(12)
N1S N 0.27022(15) -0.14066(16) 0.10595(15)
N2S N 0.29273(15) -0.14520(16) 0.12504(15)
O10S O 0.2935(4) -0.2065(4) 0.1014(6)
O11S O 0.3490(6) -0.1510(6) 0.0872(10)
O5TC O 0.15135(9) -0.10802(9) 0.03108(9)
O6TC O 0.18690(9) -0.14347(9) 0.03101(9)
C3TC C 0.21623(14) -0.11636(13) 0.07836(14)
H1TC H 0.2253 -0.1327 0.0692
C4TC C 0.19003(12) -0.10476(12) 0.06677(12)
C6TC C 0.17511(12) -0.12013(12) 0.04084(12)
N1TC N 0.27022(15) -0.10595(15) 0.14066(16)
N2TC N 0.29273(15) -0.12504(15) 0.14520(16)
Cu1C Cu 0.168543(16) -0.168543(16) 0.0000
Cu1G Cu 0.0000 0.168543(16) -0.168543(16)
Cu1J Cu 0.168543(16) -0.0000 -0.168543(16)
Cu2C Cu 0.126518(16) -0.126518(16) 0.0000
Cu2G Cu 0.0000 0.126518(16) -0.126518(16)
Cu2J Cu 0.126518(16) -0.0000 -0.126518(16)
Cu3HA Cu 0.12316(4) 0.32380(4) 0.17620(4)
Cu3XA Cu 0.17620(4) 0.12316(4) 0.32380(4)
Cu3EB Cu 0.37684(4) 0.17620(4) 0.17620(4)
Cu3RB Cu 0.32380(4) 0.12316(4) -0.17620(4)
Cu3SB Cu 0.32380(4) -0.12316(4) 0.17620(4)
Cu3UB Cu 0.17620(4) 0.37684(4) 0.17620(4)
Cu3ZB Cu 0.32380(4) 0.17620(4) 0.12316(4)
Cu3LC Cu 0.17620(4) 0.32380(4) -0.12316(4)
O5V O -0.03108(9) 0.10802(9) 0.15135(9)
O5WC O -0.03108(9) 0.15135(9) 0.10802(9)
O5AD O 0.10802(9) -0.03108(9) 0.15135(9)
O6V O -0.03101(9) 0.14347(9) 0.18690(9)
O6WC O -0.03101(9) 0.18690(9) 0.14347(9)
O6AD O 0.14347(9) -0.03101(9) 0.18690(9)
O7H O 0.1652(2) 0.1652(2) 0.3348(2)
O7L O 0.1652(2) 0.3348(2) -0.1652(2)
O7P O 0.3348(2) 0.1652(2) -0.1652(2)
O7S O 0.3348(2) -0.1652(2) 0.1652(2)
N2YD N 0.12504(15) 0.35480(16) -0.20727(15)
N2EE N 0.12504(15) 0.20727(15) 0.35480(16)
N2IF N 0.35480(16) 0.12504(15) 0.20727(15)
N2PF N 0.35480(16) 0.20727(15) -0.12504(15)
N2QF N 0.35480(16) -0.20727(15) 0.12504(15)
N2BG N 0.20727(15) 0.35480(16) 0.12504(15)
Mo1 Mo 0.30621(3) 0.24794(4) 0.19379(3)
O1 O 0.2696(3) 0.2304(3) 0.2304(3)
O2 O 0.3154(3) 0.2745(2) 0.2255(2)
O3 O 0.3323(2) 0.2561(4) 0.1677(2)
O4 O 0.2830(2) 0.2170(2) 0.1732(3)
P1 P 0.2500 0.2500 0.2500
O2HA O 0.2745(2) 0.2745(2) 0.1846(3)
O4ZB O 0.3268(3) 0.2170(2) 0.2170(2)
Mo1EB Mo 0.25206(4) 0.19379(3) 0.19379(3)
Mo1ZB Mo 0.30621(3) 0.19379(3) 0.24794(4)
Mo1CB Mo 0.30621(3) 0.30621(3) 0.25206(4)
Mo1HA Mo 0.24794(4) 0.30621(3) 0.19379(3)
O1D O 0.2304(3) 0.2696(3) 0.2304(3)
O1H O 0.2304(3) 0.2304(3) 0.2696(3)
O1AA O 0.2696(3) 0.2696(3) 0.2696(3)
O2CA O 0.2255(2) 0.1846(3) 0.2255(2)
O2EB O 0.2255(2) 0.2255(2) 0.1846(3)
O3EB O 0.2439(4) 0.1677(2) 0.1677(2)
O4EB O 0.2830(2) 0.1732(3) 0.2170(2)
O2AA O 0.3154(3) 0.2255(2) 0.2745(2)
O2ZB O 0.2745(2) 0.1846(3) 0.2745(2)
O3ZB O 0.3323(2) 0.1677(2) 0.2561(4)
O2CB O 0.2745(2) 0.3154(3) 0.2255(2)
O3CB O 0.3323(2) 0.3323(2) 0.2439(4)
O4CB O 0.3268(3) 0.2830(2) 0.2830(2)
O4EC O 0.2830(2) 0.3268(3) 0.2830(2)
O3HA O 0.2561(4) 0.3323(2) 0.1677(2)
O4HA O 0.2170(2) 0.3268(3) 0.2170(2)
O4UB O 0.2170(2) 0.2830(2) 0.1732(3)
Mo1D Mo 0.19379(3) 0.30621(3) 0.24794(4)
Mo1UB Mo 0.19379(3) 0.25206(4) 0.19379(3)
Mo1H Mo 0.24794(4) 0.19379(3) 0.30621(3)
Mo1CA Mo 0.19379(3) 0.19379(3) 0.25206(4)
Mo1XA Mo 0.19379(3) 0.24794(4) 0.30621(3)
Mo1AA Mo 0.30621(3) 0.25206(4) 0.30621(3)
Mo1EC Mo 0.25206(4) 0.30621(3) 0.30621(3)
O2D O 0.2255(2) 0.3154(3) 0.2745(2)
O3D O 0.1677(2) 0.3323(2) 0.2561(4)
O4D O 0.1732(3) 0.2830(2) 0.2170(2)
O2XA O 0.1846(3) 0.2745(2) 0.2745(2)
O2UB O 0.1846(3) 0.2255(2) 0.2255(2)
O3UB O 0.1677(2) 0.2439(4) 0.1677(2)
O2H O 0.2745(2) 0.2255(2) 0.3154(3)
O3H O 0.2561(4) 0.1677(2) 0.3323(2)
O4H O 0.2170(2) 0.1732(3) 0.2830(2)
O4XA O 0.2170(2) 0.2170(2) 0.3268(3)
O3CA O 0.1677(2) 0.1677(2) 0.2439(4)
O4CA O 0.1732(3) 0.2170(2) 0.2830(2)
O3XA O 0.1677(2) 0.2561(4) 0.3323(2)
O2EC O 0.2255(2) 0.2745(2) 0.3154(3)
O3AA O 0.3323(2) 0.2439(4) 0.3323(2)
O4AA O 0.2830(2) 0.2830(2) 0.3268(3)
O3EC O 0.2439(4) 0.3323(2) 0.3323(2)
loop_
_geom_bond_atom_site_label_1
_geom_bond_atom_site_label_2
_geom_bond_site_symmetry_1
_geom_bond_site_symmetry_2
Mo1 O1 1_555 1_555
O1 P1 1_555 1_555
O2 Mo1 1_555 1_555
O3 Mo1 1_555 1_555
O4 Mo1 1_555 1_555
P1 O1D 1_555 1_555
Cu1 Cu2 1_555 1_555
Cu2 O5 1_555 1_555
Cu3 O7 1_555 1_555
O5 C6 1_555 1_555
O6 Cu1 1_555 1_555
O7 Cu3EB 1_555 1_555
C1 C2 1_555 1_555
C2 C3 1_555 1_555
C3 H1 1_555 1_555
C4 C3 1_555 1_555
C5 C4 1_555 1_555
H2 C5 1_555 1_555
C6 O6 1_555 1_555
N1 C1 1_555 1_555
N2 Cu3 1_555 1_555
O8 Cu1 1_555 1_555
O9 Cu2 1_555 1_555
O10 Cu3 1_555 1_555
O11 Cu3 1_555 1_555
O2HA Mo1 1_555 1_555
O4ZB Mo1 1_555 1_555
Mo1EB O1 1_555 1_555
Mo1ZB O1 1_555 1_555
Mo1CB O2 1_555 1_555
Mo1HA O2HA 1_555 1_555
O1D Mo1HA 1_555 1_555
O1H P1 1_555 1_555
O1AA P1 1_555 1_555
O2CA Mo1EB 1_555 1_555
O2EB Mo1EB 1_555 1_555
O3EB Mo1EB 1_555 1_555
O4EB Mo1EB 1_555 1_555
O2AA Mo1ZB 1_555 1_555
O2ZB Mo1ZB 1_555 1_555
O3ZB Mo1ZB 1_555 1_555
O2CB Mo1CB 1_555 1_555
O3CB Mo1CB 1_555 1_555
O4CB Mo1CB 1_555 1_555
O4EC Mo1CB 1_555 1_555
O3HA Mo1HA 1_555 1_555
O4HA Mo1HA 1_555 1_555
O4UB Mo1HA 1_555 1_555
Mo1D O1D 1_555 1_555
Mo1UB O1D 1_555 1_555
Mo1H O1H 1_555 1_555
Mo1CA O1H 1_555 1_555
Mo1XA O1H 1_555 1_555
Mo1AA O1AA 1_555 1_555
Mo1EC O1AA 1_555 1_555
O2D Mo1D 1_555 1_555
O3D Mo1D 1_555 1_555
O4D Mo1D 1_555 1_555
O2XA Mo1D 1_555 1_555
O2UB Mo1UB 1_555 1_555
O3UB Mo1UB 1_555 1_555
O2H Mo1H 1_555 1_555
O3H Mo1H 1_555 1_555
O4H Mo1H 1_555 1_555
O4XA Mo1H 1_555 1_555
O3CA Mo1CA 1_555 1_555
O4CA Mo1CA 1_555 1_555
O3XA Mo1XA 1_555 1_555
O2EC Mo1XA 1_555 1_555
O3AA Mo1AA 1_555 1_555
O4AA Mo1AA 1_555 1_555
O3EC Mo1EC 1_555 1_555
O5JD C6JD 1_555 1_555
O6JD C6JD 1_555 1_555
C3JD C2 1_555 1_555
H1JD C3JD 1_555 1_555
C4JD C5 1_555 1_555
C6JD C4JD 1_555 1_555
N1JD C1 1_555 1_555
N2JD N2 1_555 1_555
Cu1D Cu2D 1_555 1_555
Cu2D O5D 1_555 1_555
Cu3D O7D 1_555 1_555
O5D C6D 1_555 1_555
O6D Cu1D 1_555 1_555
O7D Cu3HA 1_555 1_555
C1D C2D 1_555 1_555
C2D C3D 1_555 1_555
C3D H1D 1_555 1_555
C4D C3D 1_555 1_555
C5D C4D 1_555 1_555
H2D C5D 1_555 1_555
C6D O6D 1_555 1_555
N1D C1D 1_555 1_555
N2D Cu3D 1_555 1_555
O8D Cu1D 1_555 1_555
O9D Cu2D 1_555 1_555
O10D Cu3D 1_555 1_555
O11D Cu3D 1_555 1_555
O5ED Cu2 1_555 1_555
O6ED Cu1 1_555 1_555
C3ED C2D 1_555 1_555
H1ED C3ED 1_555 1_555
C4ED C5D 1_555 1_555
C6ED O5ED 1_555 1_555
N1ED C1D 1_555 1_555
N2ED N2D 1_555 1_555
Cu1H O6JD 1_555 1_555
Cu2H O5JD 1_555 1_555
Cu3H N2H 1_555 1_555
O5H Cu2H 1_555 1_555
O6H Cu1H 1_555 1_555
C1H C2H 1_555 1_555
C2H C3H 1_555 1_555
C3H H1H 1_555 1_555
C4H C3H 1_555 1_555
C5H C4H 1_555 1_555
H2H C5H 1_555 1_555
C6H O5H 1_555 1_555
N1H C1H 1_555 1_555
N2H N1H 1_555 1_555
O8H Cu1H 1_555 1_555
O9H Cu2H 1_555 1_555
O10H Cu3H 1_555 1_555
O11H Cu3H 1_555 1_555
O5OD Cu2D 1_555 1_555
O6OD Cu1D 1_555 1_555
C3OD C2H 1_555 1_555
H1OD C3OD 1_555 1_555
C4OD C5H 1_555 1_555
C6OD O5OD 1_555 1_555
N1OD C1H 1_555 1_555
N2OD N2H 1_555 1_555
Cu3L N2L 1_555 1_555
O5L Cu2 1_555 1_555
O6L Cu1 1_555 1_555
C1L C2L 1_555 1_555
C2L C3L 1_555 1_555
C3L H1L 1_555 1_555
C4L C3L 1_555 1_555
C5L C4L 1_555 1_555
H2L C5L 1_555 1_555
C6L O5L 1_555 1_555
N1L C1L 1_555 1_555
N2L N1L 1_555 1_555
O10L Cu3L 1_555 1_555
O11L Cu3L 1_555 1_555
O5XC C6XC 1_555 1_555
O6XC C6XC 1_555 1_555
C3XC C2L 1_555 1_555
H1XC C3XC 1_555 1_555
C4XC C5L 1_555 1_555
C6XC C4XC 1_555 1_555
N1XC C1L 1_555 1_555
N2XC N2L 1_555 1_555
Cu3P N2P 1_555 1_555
O5P C6P 1_555 1_555
O6P C6P 1_555 1_555
C1P C2P 1_555 1_555
C2P C3P 1_555 1_555
C3P H1P 1_555 1_555
C4P C3P 1_555 1_555
C5P C4P 1_555 1_555
H2P C5P 1_555 1_555
C6P C4P 1_555 1_555
N1P C1P 1_555 1_555
N2P N1P 1_555 1_555
O10P Cu3P 1_555 1_555
O11P Cu3P 1_555 1_555
O5SC Cu2 1_555 1_555
O6SC Cu1 1_555 1_555
C3SC C2P 1_555 1_555
H1SC C3SC 1_555 1_555
C4SC C5P 1_555 1_555
C6SC O5SC 1_555 1_555
N1SC C1P 1_555 1_555
N2SC N2P 1_555 1_555
Cu3S N2S 1_555 1_555
O5S Cu2H 1_555 1_555
O6S Cu1H 1_555 1_555
C1S C2S 1_555 1_555
C2S C3S 1_555 1_555
C3S H1S 1_555 1_555
C4S C3S 1_555 1_555
C5S C4S 1_555 1_555
H2S C5S 1_555 1_555
C6S O5S 1_555 1_555
N1S C1S 1_555 1_555
N2S N1S 1_555 1_555
O10S Cu3S 1_555 1_555
O11S Cu3S 1_555 1_555
O5TC C6TC 1_555 1_555
O6TC C6TC 1_555 1_555
C3TC C2S 1_555 1_555
H1TC C3TC 1_555 1_555
C4TC C5S 1_555 1_555
C6TC C4TC 1_555 1_555
N1TC C1S 1_555 1_555
N2TC N2S 1_555 1_555
Cu1C O6TC 1_555 1_555
Cu1G O6XC 1_555 1_555
Cu1J O6P 1_555 1_555
Cu2C O5TC 1_555 1_555
Cu2G O5XC 1_555 1_555
Cu2J O5P 1_555 1_555
Cu3HA N2ED 1_555 1_555
Cu3XA N2OD 1_555 1_555
Cu3RB N2SC 1_555 1_555
Cu3SB N2TC 1_555 1_555
Cu3UB O7D 1_555 1_555
Cu3ZB O7 1_555 1_555
Cu3LC N2XC 1_555 1_555
O5V Cu2D 1_555 1_555
O5WC Cu2D 1_555 1_555
O5AD Cu2H 1_555 1_555
O6V Cu1D 1_555 1_555
O6WC Cu1D 1_555 1_555
O6AD Cu1H 1_555 1_555
O7H Cu3H 1_555 1_555
O7L Cu3L 1_555 1_555
O7P Cu3P 1_555 1_555
O7S Cu3S 1_555 1_555
N2YD Cu3L 1_555 1_555
N2EE Cu3H 1_555 1_555
N2IF Cu3 1_555 1_555
N2PF Cu3P 1_555 1_555
N2QF Cu3S 1_555 1_555
N2BG Cu3D 1_555 1_555
O4 Mo1EB 1_555 1_555
C4 C6 1_555 1_555
N1 N2 1_555 1_555
O4ZB Mo1ZB 1_555 1_555
Mo1ZB O4EB 1_555 1_555
Mo1CB O1AA 1_555 1_555
Mo1HA O2CB 1_555 1_555
O2CA Mo1CA 1_555 1_555
O2EB Mo1UB 1_555 1_555
O2AA Mo1AA 1_555 1_555
O2ZB Mo1H 1_555 1_555
O4CB Mo1AA 1_555 1_555
O4EC Mo1EC 1_555 1_555
O4HA Mo1D 1_555 1_555
O4UB Mo1UB 1_555 1_555
Mo1UB O4D 1_555 1_555
Mo1CA O2UB 1_555 1_555
Mo1CA O4H 1_555 1_555
Mo1XA O2XA 1_555 1_555
Mo1XA O4XA 1_555 1_555
Mo1XA O4CA 1_555 1_555
Mo1AA O2H 1_555 1_555
Mo1EC O2D 1_555 1_555
Mo1EC O2EC 1_555 1_555
Mo1EC O4AA 1_555 1_555
C3JD C4JD 1_555 1_555
N1JD N2JD 1_555 1_555
N2JD Cu3ZB 1_555 1_555
C4D C6D 1_555 1_555
N1D N2D 1_555 1_555
O6ED C6ED 1_555 1_555
C3ED C4ED 1_555 1_555
C4ED C6ED 1_555 1_555
N1ED N2ED 1_555 1_555
Cu1H Cu2H 1_555 1_555
O6H C6H 1_555 1_555
C4H C6H 1_555 1_555
O6OD C6OD 1_555 1_555
C3OD C4OD 1_555 1_555
C4OD C6OD 1_555 1_555
N1OD N2OD 1_555 1_555
O6L C6L 1_555 1_555
C4L C6L 1_555 1_555
C3XC C4XC 1_555 1_555
N1XC N2XC 1_555 1_555
O6SC C6SC 1_555 1_555
C3SC C4SC 1_555 1_555
C4SC C6SC 1_555 1_555
N1SC N2SC 1_555 1_555
O6S C6S 1_555 1_555
C4S C6S 1_555 1_555
C3TC C4TC 1_555 1_555
N1TC N2TC 1_555 1_555
Cu1C Cu2C 1_555 1_555
Cu1G Cu2G 1_555 1_555
Cu1J Cu2J 1_555 1_555
Cu3XA O7H 1_555 1_555
Cu3RB O7P 1_555 1_555
Cu3SB O7S 1_555 1_555
Cu3LC O7L 1_555 1_555

#END
