
#######################################################################
#
#                 Cambridge Crystallographic Data Centre
#                                CCDC 
#
#######################################################################
#
# If this CIF has been generated from an entry in the Cambridge 
# Structural Database, then it will include bibliographic, chemical, 
# crystal, experimental, refinement or atomic coordinate data resulting 
# from the CCDC's data processing and validation procedures.
#
#######################################################################

data_OMITUB
_chemical_formula_moiety         '(C54 H54 Cu12 Mo12 N24 O84 Si1 2-)n'
_symmetry_cell_setting           cubic
_symmetry_space_group_name_H-M   'F m -3 m'
_symmetry_Int_Tables_number      225
_space_group_name_Hall           '-F 4 2 3'
loop_
_symmetry_equiv_pos_site_id
_symmetry_equiv_pos_as_xyz
1 x,y,z
2 -x,-y,z
3 x,-y,-z
4 -x,y,-z
5 z,x,y
6 y,z,x
7 -z,-x,y
8 -y,z,-x
9 z,-x,-y
10 -y,-z,x
11 -z,x,-y
12 y,-z,-x
13 -y,-x,-z
14 y,x,-z
15 y,-x,z
16 -y,x,z
17 -x,-z,-y
18 -z,-y,-x
19 x,z,-y
20 -z,y,x
21 x,-z,y
22 z,y,-x
23 -x,z,y
24 z,-y,x
25 x,1/2+y,1/2+z
26 -x,1/2-y,1/2+z
27 x,1/2-y,1/2-z
28 -x,1/2+y,1/2-z
29 z,1/2+x,1/2+y
30 y,1/2+z,1/2+x
31 -z,1/2-x,1/2+y
32 -y,1/2+z,1/2-x
33 z,1/2-x,1/2-y
34 -y,1/2-z,1/2+x
35 -z,1/2+x,1/2-y
36 y,1/2-z,1/2-x
37 -y,1/2-x,1/2-z
38 y,1/2+x,1/2-z
39 y,1/2-x,1/2+z
40 -y,1/2+x,1/2+z
41 -x,1/2-z,1/2-y
42 -z,1/2-y,1/2-x
43 x,1/2+z,1/2-y
44 -z,1/2+y,1/2+x
45 x,1/2-z,1/2+y
46 z,1/2+y,1/2-x
47 -x,1/2+z,1/2+y
48 z,1/2-y,1/2+x
49 1/2+x,y,1/2+z
50 1/2-x,-y,1/2+z
51 1/2+x,-y,1/2-z
52 1/2-x,y,1/2-z
53 1/2+z,x,1/2+y
54 1/2+y,z,1/2+x
55 1/2-z,-x,1/2+y
56 1/2-y,z,1/2-x
57 1/2+z,-x,1/2-y
58 1/2-y,-z,1/2+x
59 1/2-z,x,1/2-y
60 1/2+y,-z,1/2-x
61 1/2-y,-x,1/2-z
62 1/2+y,x,1/2-z
63 1/2+y,-x,1/2+z
64 1/2-y,x,1/2+z
65 1/2-x,-z,1/2-y
66 1/2-z,-y,1/2-x
67 1/2+x,z,1/2-y
68 1/2-z,y,1/2+x
69 1/2+x,-z,1/2+y
70 1/2+z,y,1/2-x
71 1/2-x,z,1/2+y
72 1/2+z,-y,1/2+x
73 1/2+x,1/2+y,z
74 1/2-x,1/2-y,z
75 1/2+x,1/2-y,-z
76 1/2-x,1/2+y,-z
77 1/2+z,1/2+x,y
78 1/2+y,1/2+z,x
79 1/2-z,1/2-x,y
80 1/2-y,1/2+z,-x
81 1/2+z,1/2-x,-y
82 1/2-y,1/2-z,x
83 1/2-z,1/2+x,-y
84 1/2+y,1/2-z,-x
85 1/2-y,1/2-x,-z
86 1/2+y,1/2+x,-z
87 1/2+y,1/2-x,z
88 1/2-y,1/2+x,z
89 1/2-x,1/2-z,-y
90 1/2-z,1/2-y,-x
91 1/2+x,1/2+z,-y
92 1/2-z,1/2+y,x
93 1/2+x,1/2-z,y
94 1/2+z,1/2+y,-x
95 1/2-x,1/2+z,y
96 1/2+z,1/2-y,x
97 -x,-y,-z
98 x,y,-z
99 -x,y,z
100 x,-y,z
101 -z,-x,-y
102 -y,-z,-x
103 z,x,-y
104 y,-z,x
105 -z,x,y
106 y,z,-x
107 z,-x,y
108 -y,z,x
109 y,x,z
110 -y,-x,z
111 -y,x,-z
112 y,-x,-z
113 x,z,y
114 z,y,x
115 -x,-z,y
116 z,-y,-x
117 -x,z,-y
118 -z,-y,x
119 x,-z,-y
120 -z,y,-x
121 -x,1/2-y,1/2-z
122 x,1/2+y,1/2-z
123 -x,1/2+y,1/2+z
124 x,1/2-y,1/2+z
125 -z,1/2-x,1/2-y
126 -y,1/2-z,1/2-x
127 z,1/2+x,1/2-y
128 y,1/2-z,1/2+x
129 -z,1/2+x,1/2+y
130 y,1/2+z,1/2-x
131 z,1/2-x,1/2+y
132 -y,1/2+z,1/2+x
133 y,1/2+x,1/2+z
134 -y,1/2-x,1/2+z
135 -y,1/2+x,1/2-z
136 y,1/2-x,1/2-z
137 x,1/2+z,1/2+y
138 z,1/2+y,1/2+x
139 -x,1/2-z,1/2+y
140 z,1/2-y,1/2-x
141 -x,1/2+z,1/2-y
142 -z,1/2-y,1/2+x
143 x,1/2-z,1/2-y
144 -z,1/2+y,1/2-x
145 1/2-x,-y,1/2-z
146 1/2+x,y,1/2-z
147 1/2-x,y,1/2+z
148 1/2+x,-y,1/2+z
149 1/2-z,-x,1/2-y
150 1/2-y,-z,1/2-x
151 1/2+z,x,1/2-y
152 1/2+y,-z,1/2+x
153 1/2-z,x,1/2+y
154 1/2+y,z,1/2-x
155 1/2+z,-x,1/2+y
156 1/2-y,z,1/2+x
157 1/2+y,x,1/2+z
158 1/2-y,-x,1/2+z
159 1/2-y,x,1/2-z
160 1/2+y,-x,1/2-z
161 1/2+x,z,1/2+y
162 1/2+z,y,1/2+x
163 1/2-x,-z,1/2+y
164 1/2+z,-y,1/2-x
165 1/2-x,z,1/2-y
166 1/2-z,-y,1/2+x
167 1/2+x,-z,1/2-y
168 1/2-z,y,1/2-x
169 1/2-x,1/2-y,-z
170 1/2+x,1/2+y,-z
171 1/2-x,1/2+y,z
172 1/2+x,1/2-y,z
173 1/2-z,1/2-x,-y
174 1/2-y,1/2-z,-x
175 1/2+z,1/2+x,-y
176 1/2+y,1/2-z,x
177 1/2-z,1/2+x,y
178 1/2+y,1/2+z,-x
179 1/2+z,1/2-x,y
180 1/2-y,1/2+z,x
181 1/2+y,1/2+x,z
182 1/2-y,1/2-x,z
183 1/2-y,1/2+x,-z
184 1/2+y,1/2-x,-z
185 1/2+x,1/2+z,y
186 1/2+z,1/2+y,x
187 1/2-x,1/2-z,y
188 1/2+z,1/2-y,-x
189 1/2-x,1/2+z,-y
190 1/2-z,1/2-y,x
191 1/2+x,1/2-z,-y
192 1/2-z,1/2+y,-x
_cell_length_a                   44.614(5)
_cell_length_b                   44.614(5)
_cell_length_c                   44.614(5)
_cell_angle_alpha                90
_cell_angle_beta                 90
_cell_angle_gamma                90
_cell_volume                     88800.1
loop_
_atom_site_label
_atom_site_type_symbol
_atom_site_fract_x
_atom_site_fract_y
_atom_site_fract_z
Mo1 Mo 0.19440(2) 0.25295(3) -0.19440(2)
O8 O 0.18420(18) 0.22594(15) -0.22594(15)
O9 O 0.1735(2) 0.28364(15) -0.21636(15)
O10 O 0.22919(18) 0.27081(18) -0.22919(18)
O11 O 0.16842(14) 0.2450(2) -0.16842(14)
Si1 Si 0.2500 0.2500 -0.2500
O10J O 0.22919(18) 0.22919(18) -0.27081(18)
O10K O 0.27081(18) 0.22919(18) -0.22919(18)
O10CA O 0.27081(18) 0.27081(18) -0.27081(18)
Mo1J Mo 0.19440(2) 0.19440(2) -0.25295(3)
O8J O 0.22594(15) 0.18420(18) -0.22594(15)
O9J O 0.21636(15) 0.1735(2) -0.28364(15)
O11J O 0.16842(14) 0.16842(14) -0.2450(2)
Mo1K Mo 0.25295(3) 0.19440(2) -0.19440(2)
O8K O 0.22594(15) 0.22594(15) -0.18420(18)
O9K O 0.28364(15) 0.21636(15) -0.1735(2)
O11K O 0.2450(2) 0.16842(14) -0.16842(14)
Mo1Z Mo 0.19440(2) 0.24705(3) -0.30560(2)
O8Z O 0.18420(18) 0.27406(15) -0.27406(15)
O9Z O 0.1735(2) 0.21636(15) -0.28364(15)
O11Z O 0.16842(14) 0.2550(2) -0.33158(14)
Mo1CA Mo 0.25295(3) 0.30560(2) -0.30560(2)
O8CA O 0.22594(15) 0.27406(15) -0.31580(18)
O9CA O 0.28364(15) 0.28364(15) -0.3265(2)
O11CA O 0.2450(2) 0.33158(14) -0.33158(14)
Mo1DA Mo 0.19440(2) 0.30560(2) -0.24705(3)
O8DA O 0.22594(15) 0.31580(18) -0.27406(15)
O9DA O 0.21636(15) 0.3265(2) -0.21636(15)
O11DA O 0.16842(14) 0.33158(14) -0.2550(2)
Mo1YA Mo 0.30560(2) 0.25295(3) -0.30560(2)
O8YA O 0.31580(18) 0.22594(15) -0.27406(15)
O9YA O 0.3265(2) 0.28364(15) -0.28364(15)
O11YA O 0.33158(14) 0.2450(2) -0.33158(14)
Mo1ZA Mo 0.30560(2) 0.19440(2) -0.24705(3)
O8ZA O 0.27406(15) 0.18420(18) -0.27406(15)
O9ZA O 0.28364(15) 0.1735(2) -0.21636(15)
O11ZA O 0.33158(14) 0.16842(14) -0.2550(2)
Mo1EB Mo 0.24705(3) 0.19440(2) -0.30560(2)
O8EB O 0.27406(15) 0.22594(15) -0.31580(18)
O9EB O 0.21636(15) 0.21636(15) -0.3265(2)
O11EB O 0.2550(2) 0.16842(14) -0.33158(14)
Mo1UB Mo 0.30560(2) 0.24705(3) -0.19440(2)
O8UB O 0.31580(18) 0.27406(15) -0.22594(15)
O9UB O 0.3265(2) 0.21636(15) -0.21636(15)
O11UB O 0.33158(14) 0.2550(2) -0.16842(14)
Mo1AC Mo 0.24705(3) 0.30560(2) -0.19440(2)
O8AC O 0.27406(15) 0.27406(15) -0.18420(18)
O9AC O 0.21636(15) 0.28364(15) -0.1735(2)
O11AC O 0.2550(2) 0.33158(14) -0.16842(14)
Mo1BC Mo 0.30560(2) 0.30560(2) -0.25295(3)
O8BC O 0.27406(15) 0.31580(18) -0.22594(15)
O9BC O 0.28364(15) 0.3265(2) -0.28364(15)
O11BC O 0.33158(14) 0.33158(14) -0.2450(2)
Cu1 Cu 0.168383(17) 0.168383(17) 0.0000
Cu2 Cu 0.126469(17) 0.126469(17) 0.0000
Cu3 Cu 0.17617(3) 0.32383(3) -0.12286(3)
O1 O 0.14347(8) 0.18687(8) -0.03088(9)
O2 O 0.10798(8) 0.15137(9) -0.03085(8)
O3 O 0.20279(13) 0.20279(13) 0.0000
N1 N 0.14507(13) 0.29264(12) -0.12482(12)
C1 C 0.11995(12) 0.17485(12) -0.04087(11)
N2 N 0.14086(14) 0.27017(12) -0.10615(12)
O4 O 0.09252(14) 0.09252(14) 0.0000
O5 O 0.16519(17) 0.33481(17) -0.16519(17)
C2 C 0.10498(11) 0.18976(11) -0.06683(11)
O6 O 0.1999(4) 0.3001(4) -0.0939(4)
C3 C 0.11638(12) 0.21607(13) -0.07867(13)
H1 H 0.1326 0.2254 -0.0694
C4 C 0.10395(14) 0.22840(18) -0.10395(14)
C5 C 0.08002(12) 0.17697(18) -0.08002(12)
H2 H 0.0720 0.1595 -0.0720
C6 C 0.11683(16) 0.2568(2) -0.11683(16)
O7 O 0.1483(4) 0.3517(4) -0.0930(6)
O1OD O 0.03088(9) 0.18687(8) -0.14347(8)
O2OD O 0.03085(8) 0.15137(9) -0.10798(8)
N1OD N 0.12482(12) 0.29264(12) -0.14507(13)
C1OD C 0.04087(11) 0.17485(12) -0.11995(12)
N2OD N 0.10615(12) 0.27017(12) -0.14086(14)
C2OD C 0.06683(11) 0.18976(11) -0.10498(11)
C3OD C 0.07867(13) 0.21607(13) -0.11638(12)
H1OD H 0.0694 0.2254 -0.1326
Cu1J Cu 0.0000 0.168383(17) -0.168383(17)
Cu2J Cu 0.0000 0.126469(17) -0.126469(17)
Cu3J Cu 0.12286(3) 0.17617(3) -0.32383(3)
O1J O 0.03088(9) 0.14347(8) -0.18687(8)
O2J O 0.03085(8) 0.10798(8) -0.15137(9)
O3J O 0.0000 0.20279(13) -0.20279(13)
N1J N 0.12482(12) 0.14507(13) -0.29264(12)
C1J C 0.04087(11) 0.11995(12) -0.17485(12)
N2J N 0.10615(12) 0.14086(14) -0.27017(12)
O4J O 0.0000 0.09252(14) -0.09252(14)
O5J O 0.16519(17) 0.16519(17) -0.33481(17)
C2J C 0.06683(11) 0.10498(11) -0.18976(11)
O6J O 0.0939(4) 0.1999(4) -0.3001(4)
C3J C 0.07867(13) 0.11638(12) -0.21607(13)
H1J H 0.0694 0.1326 -0.2254
C4J C 0.10395(14) 0.10395(14) -0.22840(18)
C5J C 0.08002(12) 0.08002(12) -0.17697(18)
H2J H 0.0720 0.0720 -0.1595
C6J C 0.11683(16) 0.11683(16) -0.2568(2)
O7J O 0.0930(6) 0.1483(4) -0.3517(4)
O1ND O 0.14347(8) 0.03088(9) -0.18687(8)
O2ND O 0.10798(8) 0.03085(8) -0.15137(9)
N1ND N 0.14507(13) 0.12482(12) -0.29264(12)
C1ND C 0.11995(12) 0.04087(11) -0.17485(12)
N2ND N 0.14086(14) 0.10615(12) -0.27017(12)
C2ND C 0.10498(11) 0.06683(11) -0.18976(11)
C3ND C 0.11638(12) 0.07867(13) -0.21607(13)
H1ND H 0.1326 0.0694 -0.2254
Cu1K Cu 0.168383(17) 0.0000 -0.168383(17)
Cu2K Cu 0.126469(17) 0.0000 -0.126469(17)
Cu3K Cu 0.32383(3) 0.12286(3) -0.17617(3)
O1K O 0.18687(8) 0.03088(9) -0.14347(8)
O2K O 0.15137(9) 0.03085(8) -0.10798(8)
O3K O 0.20279(13) 0.0000 -0.20279(13)
N1K N 0.29264(12) 0.12482(12) -0.14507(13)
C1K C 0.17485(12) 0.04087(11) -0.11995(12)
N2K N 0.27017(12) 0.10615(12) -0.14086(14)
O4K O 0.09252(14) 0.0000 -0.09252(14)
C2K C 0.18976(11) 0.06683(11) -0.10498(11)
O6K O 0.3001(4) 0.0939(4) -0.1999(4)
C3K C 0.21607(13) 0.07867(13) -0.11638(12)
H1K H 0.2254 0.0694 -0.1326
C4K C 0.22840(18) 0.10395(14) -0.10395(14)
C5K C 0.17697(18) 0.08002(12) -0.08002(12)
H2K H 0.1595 0.0720 -0.0720
C6K C 0.2568(2) 0.11683(16) -0.11683(16)
O7K O 0.3517(4) 0.0930(6) -0.1483(4)
O1DD O 0.18687(8) 0.14347(8) -0.03088(9)
O2DD O 0.15137(9) 0.10798(8) -0.03085(8)
N1DD N 0.29264(12) 0.14507(13) -0.12482(12)
C1DD C 0.17485(12) 0.11995(12) -0.04087(11)
N2DD N 0.27017(12) 0.14086(14) -0.10615(12)
C2DD C 0.18976(11) 0.10498(11) -0.06683(11)
C3DD C 0.21607(13) 0.11638(12) -0.07867(13)
H1DD H 0.2254 0.1326 -0.0694
Cu3M Cu 0.32383(3) 0.17617(3) 0.12286(3)
O1M O 0.18687(8) 0.14347(8) 0.03088(9)
O2M O 0.15137(9) 0.10798(8) 0.03085(8)
N1M N 0.29264(12) 0.14507(13) 0.12482(12)
C1M C 0.17485(12) 0.11995(12) 0.04087(11)
N2M N 0.27017(12) 0.14086(14) 0.10615(12)
C2M C 0.18976(11) 0.10498(11) 0.06683(11)
O6M O 0.3001(4) 0.1999(4) 0.0939(4)
C3M C 0.21607(13) 0.11638(12) 0.07867(13)
H1M H 0.2254 0.1326 0.0694
C4M C 0.22840(18) 0.10395(14) 0.10395(14)
C5M C 0.17697(18) 0.08002(12) 0.08002(12)
H2M H 0.1595 0.0720 0.0720
C6M C 0.2568(2) 0.11683(16) 0.11683(16)
O7M O 0.3517(4) 0.1483(4) 0.0930(6)
O1YC O 0.18687(8) 0.03088(9) 0.14347(8)
O2YC O 0.15137(9) 0.03085(8) 0.10798(8)
N1YC N 0.29264(12) 0.12482(12) 0.14507(13)
C1YC C 0.17485(12) 0.04087(11) 0.11995(12)
N2YC N 0.27017(12) 0.10615(12) 0.14086(14)
C2YC C 0.18976(11) 0.06683(11) 0.10498(11)
C3YC C 0.21607(13) 0.07867(13) 0.11638(12)
H1YC H 0.2254 0.0694 0.1326
Cu3P Cu -0.17617(3) 0.12286(3) -0.32383(3)
O1P O -0.14347(8) 0.03088(9) -0.18687(8)
O2P O -0.10798(8) 0.03085(8) -0.15137(9)
N1P N -0.14507(13) 0.12482(12) -0.29264(12)
C1P C -0.11995(12) 0.04087(11) -0.17485(12)
N2P N -0.14086(14) 0.10615(12) -0.27017(12)
C2P C -0.10498(11) 0.06683(11) -0.18976(11)
O6P O -0.1999(4) 0.0939(4) -0.3001(4)
C3P C -0.11638(12) 0.07867(13) -0.21607(13)
H1P H -0.1326 0.0694 -0.2254
C4P C -0.10395(14) 0.10395(14) -0.22840(18)
C5P C -0.08002(12) 0.08002(12) -0.17697(18)
H2P H -0.0720 0.0720 -0.1595
C6P C -0.11683(16) 0.11683(16) -0.2568(2)
O7P O -0.1483(4) 0.0930(6) -0.3517(4)
O1XC O -0.03088(9) 0.14347(8) -0.18687(8)
O2XC O -0.03085(8) 0.10798(8) -0.15137(9)
N1XC N -0.12482(12) 0.14507(13) -0.29264(12)
C1XC C -0.04087(11) 0.11995(12) -0.17485(12)
N2XC N -0.10615(12) 0.14086(14) -0.27017(12)
C2XC C -0.06683(11) 0.10498(11) -0.18976(11)
C3XC C -0.07867(13) 0.11638(12) -0.21607(13)
H1XC H -0.0694 0.1326 -0.2254
Cu3S Cu 0.12286(3) 0.32383(3) 0.17617(3)
O1S O 0.03088(9) 0.18687(8) 0.14347(8)
O2S O 0.03085(8) 0.15137(9) 0.10798(8)
N1S N 0.12482(12) 0.29264(12) 0.14507(13)
C1S C 0.04087(11) 0.17485(12) 0.11995(12)
N2S N 0.10615(12) 0.27017(12) 0.14086(14)
C2S C 0.06683(11) 0.18976(11) 0.10498(11)
O6S O 0.0939(4) 0.3001(4) 0.1999(4)
C3S C 0.07867(13) 0.21607(13) 0.11638(12)
H1S H 0.0694 0.2254 0.1326
C4S C 0.10395(14) 0.22840(18) 0.10395(14)
C5S C 0.08002(12) 0.17697(18) 0.08002(12)
H2S H 0.0720 0.1595 0.0720
C6S C 0.11683(16) 0.2568(2) 0.11683(16)
O7S O 0.0930(6) 0.3517(4) 0.1483(4)
O1SC O 0.14347(8) 0.18687(8) 0.03088(9)
O2SC O 0.10798(8) 0.15137(9) 0.03085(8)
N1SC N 0.14507(13) 0.29264(12) 0.12482(12)
C1SC C 0.11995(12) 0.17485(12) 0.04087(11)
N2SC N 0.14086(14) 0.27017(12) 0.10615(12)
C2SC C 0.10498(11) 0.18976(11) 0.06683(11)
C3SC C 0.11638(12) 0.21607(13) 0.07867(13)
H1SC H 0.1326 0.2254 0.0694
Cu1D Cu -0.0000 0.168383(17) 0.168383(17)
Cu1E Cu 0.168383(17) -0.0000 0.168383(17)
Cu1G Cu -0.168383(17) 0.0000 -0.168383(17)
Cu2D Cu 0.0000 0.126469(17) 0.126469(17)
Cu2E Cu 0.126469(17) 0.0000 0.126469(17)
Cu2G Cu -0.126469(17) 0.0000 -0.126469(17)
Cu3Z Cu 0.17617(3) 0.17617(3) -0.37714(3)
Cu3DA Cu 0.12286(3) 0.32383(3) -0.17617(3)
Cu3UA Cu -0.12286(3) 0.17617(3) -0.32383(3)
Cu3EB Cu 0.17617(3) 0.12286(3) -0.32383(3)
Cu3LB Cu 0.32383(3) 0.12286(3) 0.17617(3)
Cu3UB Cu 0.32383(3) 0.17617(3) -0.12286(3)
Cu3AC Cu 0.17617(3) 0.37714(3) -0.17617(3)
Cu3FC Cu 0.17617(3) 0.32383(3) 0.12286(3)
O1R O 0.14347(8) -0.03088(9) -0.18687(8)
O1U O -0.03088(9) 0.18687(8) -0.14347(8)
O1AD O 0.18687(8) -0.03088(9) -0.14347(8)
O2R O 0.10798(8) -0.03085(8) -0.15137(9)
O2U O -0.03085(8) 0.15137(9) -0.10798(8)
O2AD O 0.15137(9) -0.03085(8) -0.10798(8)
N1TD N 0.12482(12) 0.35493(13) 0.20736(12)
N1KE N 0.12482(12) 0.20736(12) -0.35493(13)
N1UE N -0.20736(12) 0.12482(12) -0.35493(13)
N1FF N 0.35493(13) 0.12482(12) -0.20736(12)
N1LF N 0.35493(13) 0.20736(12) 0.12482(12)
N1YF N 0.20736(12) 0.35493(13) -0.12482(12)
O5K O 0.33481(17) 0.16519(17) -0.16519(17)
O5M O 0.33481(17) 0.16519(17) 0.16519(17)
O5P O -0.16519(17) 0.16519(17) -0.33481(17)
O5S O 0.16519(17) 0.33481(17) 0.16519(17)
loop_
_geom_bond_atom_site_label_1
_geom_bond_atom_site_label_2
_geom_bond_site_symmetry_1
_geom_bond_site_symmetry_2
Cu1 Cu2 1_555 1_555
Cu2 O2 1_555 1_555
Cu3 N1 1_555 1_555
O1 Cu1 1_555 1_555
O2 C1 1_555 1_555
O3 Cu1 1_555 1_555
N1 N2 1_555 1_555
C1 O1 1_555 1_555
N2 C6 1_555 1_555
O4 Cu2 1_555 1_555
O5 Cu3 1_555 1_555
C2 C1 1_555 1_555
O6 Cu3 1_555 1_555
C3 C2 1_555 1_555
H1 C3 1_555 1_555
C4 C3 1_555 1_555
C5 C2 1_555 1_555
H2 C5 1_555 1_555
C6 C4 1_555 1_555
O7 Cu3 1_555 1_555
Mo1 O8 1_555 1_555
O8 Mo1J 1_555 1_555
O9 Mo1 1_555 1_555
O10 Mo1 1_555 1_555
O11 Mo1 1_555 1_555
Si1 O10 1_555 1_555
O1OD C1OD 1_555 1_555
O2OD C1OD 1_555 1_555
N1OD N1 1_555 1_555
C1OD C2OD 1_555 1_555
N2OD C6 1_555 1_555
C2OD C5 1_555 1_555
C3OD C4 1_555 1_555
H1OD C3OD 1_555 1_555
Cu1J O1OD 1_555 1_555
Cu2J O2OD 1_555 1_555
Cu3J N1J 1_555 1_555
O1J Cu1J 1_555 1_555
O2J Cu2J 1_555 1_555
O3J Cu1J 1_555 1_555
N1J N2J 1_555 1_555
C1J O1J 1_555 1_555
N2J C6J 1_555 1_555
O4J Cu2J 1_555 1_555
O5J Cu3J 1_555 1_555
C2J C1J 1_555 1_555
O6J Cu3J 1_555 1_555
C3J C2J 1_555 1_555
H1J C3J 1_555 1_555
C4J C3J 1_555 1_555
C5J C2J 1_555 1_555
H2J C5J 1_555 1_555
C6J C4J 1_555 1_555
O7J Cu3J 1_555 1_555
O1ND C1ND 1_555 1_555
O2ND C1ND 1_555 1_555
N1ND N1J 1_555 1_555
C1ND C2ND 1_555 1_555
N2ND C6J 1_555 1_555
C2ND C5J 1_555 1_555
C3ND C4J 1_555 1_555
H1ND C3ND 1_555 1_555
Cu1K O1ND 1_555 1_555
Cu2K O2ND 1_555 1_555
Cu3K N1K 1_555 1_555
O1K Cu1K 1_555 1_555
O2K Cu2K 1_555 1_555
O3K Cu1K 1_555 1_555
N1K N2K 1_555 1_555
C1K O1K 1_555 1_555
N2K C6K 1_555 1_555
O4K Cu2K 1_555 1_555
C2K C1K 1_555 1_555
O6K Cu3K 1_555 1_555
C3K C2K 1_555 1_555
H1K C3K 1_555 1_555
C4K C3K 1_555 1_555
C5K C2K 1_555 1_555
H2K C5K 1_555 1_555
C6K C4K 1_555 1_555
O7K Cu3K 1_555 1_555
O1DD Cu1 1_555 1_555
O2DD Cu2 1_555 1_555
N1DD N1K 1_555 1_555
C1DD O1DD 1_555 1_555
N2DD C6K 1_555 1_555
C2DD C5K 1_555 1_555
C3DD C4K 1_555 1_555
H1DD C3DD 1_555 1_555
Cu3M N1M 1_555 1_555
O1M Cu1 1_555 1_555
O2M Cu2 1_555 1_555
N1M N2M 1_555 1_555
C1M O1M 1_555 1_555
N2M C6M 1_555 1_555
C2M C1M 1_555 1_555
O6M Cu3M 1_555 1_555
C3M C2M 1_555 1_555
H1M C3M 1_555 1_555
C4M C3M 1_555 1_555
C5M C2M 1_555 1_555
H2M C5M 1_555 1_555
C6M C4M 1_555 1_555
O7M Cu3M 1_555 1_555
O1YC C1YC 1_555 1_555
O2YC C1YC 1_555 1_555
N1YC N1M 1_555 1_555
C1YC C2YC 1_555 1_555
N2YC C6M 1_555 1_555
C2YC C5M 1_555 1_555
C3YC C4M 1_555 1_555
H1YC C3YC 1_555 1_555
Cu3P N1P 1_555 1_555
O1P C1P 1_555 1_555
O2P C1P 1_555 1_555
N1P N2P 1_555 1_555
C1P C2P 1_555 1_555
N2P C6P 1_555 1_555
C2P C3P 1_555 1_555
O6P Cu3P 1_555 1_555
C3P H1P 1_555 1_555
C4P C3P 1_555 1_555
C5P C2P 1_555 1_555
H2P C5P 1_555 1_555
C6P C4P 1_555 1_555
O7P Cu3P 1_555 1_555
O1XC Cu1J 1_555 1_555
O2XC Cu2J 1_555 1_555
N1XC N1P 1_555 1_555
C1XC O1XC 1_555 1_555
N2XC C6P 1_555 1_555
C2XC C5P 1_555 1_555
C3XC C4P 1_555 1_555
H1XC C3XC 1_555 1_555
Cu3S N1S 1_555 1_555
O1S C1S 1_555 1_555
O2S C1S 1_555 1_555
N1S N2S 1_555 1_555
C1S C2S 1_555 1_555
N2S C6S 1_555 1_555
C2S C3S 1_555 1_555
O6S Cu3S 1_555 1_555
C3S H1S 1_555 1_555
C4S C3S 1_555 1_555
C5S C2S 1_555 1_555
H2S C5S 1_555 1_555
C6S C4S 1_555 1_555
O7S Cu3S 1_555 1_555
O1SC Cu1 1_555 1_555
O2SC Cu2 1_555 1_555
N1SC N1S 1_555 1_555
C1SC O1SC 1_555 1_555
N2SC C6S 1_555 1_555
C2SC C5S 1_555 1_555
C3SC C4S 1_555 1_555
H1SC C3SC 1_555 1_555
Cu1D O1S 1_555 1_555
Cu1E O1YC 1_555 1_555
Cu1G O1P 1_555 1_555
Cu2D O2S 1_555 1_555
Cu2E O2YC 1_555 1_555
Cu2G O2P 1_555 1_555
Cu3Z O5J 1_555 1_555
Cu3DA O5 1_555 1_555
Cu3UA N1XC 1_555 1_555
Cu3EB O5J 1_555 1_555
Cu3LB N1YC 1_555 1_555
Cu3UB N1DD 1_555 1_555
Cu3AC O5 1_555 1_555
Cu3FC N1SC 1_555 1_555
O1R Cu1K 1_555 1_555
O1U Cu1J 1_555 1_555
O1AD Cu1K 1_555 1_555
O2R Cu2K 1_555 1_555
O2U Cu2J 1_555 1_555
O2AD Cu2K 1_555 1_555
N1TD Cu3S 1_555 1_555
N1KE Cu3J 1_555 1_555
N1UE Cu3P 1_555 1_555
N1FF Cu3K 1_555 1_555
N1LF Cu3M 1_555 1_555
N1YF Cu3 1_555 1_555
O5K Cu3K 1_555 1_555
O5M Cu3M 1_555 1_555
O5P Cu3P 1_555 1_555
O5S Cu3S 1_555 1_555
O10J Si1 1_555 1_555
O10K Si1 1_555 1_555
O10CA Si1 1_555 1_555
Mo1J O10J 1_555 1_555
O8J Mo1J 1_555 1_555
O9J Mo1J 1_555 1_555
O11J Mo1J 1_555 1_555
Mo1K O10K 1_555 1_555
O8K Mo1 1_555 1_555
O9K Mo1K 1_555 1_555
O11K Mo1K 1_555 1_555
Mo1Z O10J 1_555 1_555
O8Z Mo1Z 1_555 1_555
O9Z Mo1J 1_555 1_555
O11Z Mo1Z 1_555 1_555
Mo1CA O10CA 1_555 1_555
O8CA Mo1Z 1_555 1_555
O9CA Mo1CA 1_555 1_555
O11CA Mo1CA 1_555 1_555
Mo1DA O9 1_555 1_555
O8DA Mo1CA 1_555 1_555
O9DA Mo1DA 1_555 1_555
O11DA Mo1DA 1_555 1_555
Mo1YA O10CA 1_555 1_555
O8YA Mo1YA 1_555 1_555
O9YA Mo1YA 1_555 1_555
O11YA Mo1YA 1_555 1_555
Mo1ZA O10K 1_555 1_555
O8ZA Mo1ZA 1_555 1_555
O9ZA Mo1K 1_555 1_555
O11ZA Mo1ZA 1_555 1_555
Mo1EB O10J 1_555 1_555
O8EB Mo1YA 1_555 1_555
O9EB Mo1Z 1_555 1_555
O11EB Mo1EB 1_555 1_555
Mo1UB O10K 1_555 1_555
O8UB Mo1UB 1_555 1_555
O9UB Mo1ZA 1_555 1_555
O11UB Mo1UB 1_555 1_555
Mo1AC O10 1_555 1_555
O8AC Mo1UB 1_555 1_555
O9AC Mo1 1_555 1_555
O11AC Mo1AC 1_555 1_555
Mo1BC O10CA 1_555 1_555
O8BC Mo1AC 1_555 1_555
O9BC Mo1CA 1_555 1_555
O11BC Mo1BC 1_555 1_555
O10 Mo1DA 1_555 1_555
N1OD N2OD 1_555 1_555
N1OD Cu3DA 1_555 1_555
C2OD C3OD 1_555 1_555
Cu1J Cu2J 1_555 1_555
O2J C1J 1_555 1_555
N1ND N2ND 1_555 1_555
N1ND Cu3EB 1_555 1_555
C2ND C3ND 1_555 1_555
Cu1K Cu2K 1_555 1_555
O2K C1K 1_555 1_555
O2DD C1DD 1_555 1_555
N1DD N2DD 1_555 1_555
C1DD C2DD 1_555 1_555
C2DD C3DD 1_555 1_555
O2M C1M 1_555 1_555
N1YC N2YC 1_555 1_555
C2YC C3YC 1_555 1_555
O2XC C1XC 1_555 1_555
N1XC N2XC 1_555 1_555
C1XC C2XC 1_555 1_555
C2XC C3XC 1_555 1_555
O2SC C1SC 1_555 1_555
N1SC N2SC 1_555 1_555
C1SC C2SC 1_555 1_555
C2SC C3SC 1_555 1_555
Cu1D Cu2D 1_555 1_555
Cu1E Cu2E 1_555 1_555
Cu1G Cu2G 1_555 1_555
Cu3UA O5P 1_555 1_555
Cu3LB O5M 1_555 1_555
Cu3UB O5K 1_555 1_555
Cu3FC O5S 1_555 1_555
O8J Mo1K 1_555 1_555
O9J Mo1EB 1_555 1_555
Mo1K O8K 1_555 1_555
O9K Mo1UB 1_555 1_555
Mo1Z O9Z 1_555 1_555
O8Z Mo1DA 1_555 1_555
Mo1CA O8CA 1_555 1_555
O9CA Mo1YA 1_555 1_555
Mo1DA O8DA 1_555 1_555
O9DA Mo1AC 1_555 1_555
O8YA Mo1ZA 1_555 1_555
O9YA Mo1BC 1_555 1_555
Mo1ZA O9ZA 1_555 1_555
O8ZA Mo1EB 1_555 1_555
Mo1EB O8EB 1_555 1_555
Mo1EB O9EB 1_555 1_555
Mo1UB O9UB 1_555 1_555
O8UB Mo1BC 1_555 1_555
Mo1AC O8AC 1_555 1_555
Mo1AC O9AC 1_555 1_555
Mo1BC O8BC 1_555 1_555
Mo1BC O9BC 1_555 1_555

#END
