
#######################################################################
#
#                 Cambridge Crystallographic Data Centre
#                                CCDC 
#
#######################################################################
#
# If this CIF has been generated from an entry in the Cambridge 
# Structural Database, then it will include bibliographic, chemical, 
# crystal, experimental, refinement or atomic coordinate data resulting 
# from the CCDC's data processing and validation procedures.
#
#######################################################################

data_PACHUZ
_chemical_formula_moiety         '(C38 H26 F12 N6 O11 Zn3)n'
_symmetry_cell_setting           monoclinic
_symmetry_space_group_name_H-M   'C 2/c'
_symmetry_Int_Tables_number      15
_space_group_name_Hall           '-C 2yc'
loop_
_symmetry_equiv_pos_site_id
_symmetry_equiv_pos_as_xyz
1 x,y,z
2 -x,y,1/2-z
3 1/2+x,1/2+y,z
4 1/2-x,1/2+y,1/2-z
5 -x,-y,-z
6 x,-y,1/2+z
7 1/2-x,1/2-y,-z
8 1/2+x,1/2-y,1/2+z
_cell_length_a                   36.4551(9)
_cell_length_b                   18.1156(4)
_cell_length_c                   14.1588(4)
_cell_angle_alpha                90
_cell_angle_beta                 93.8165(13)
_cell_angle_gamma                90
_cell_volume                     9329.82
loop_
_atom_site_label
_atom_site_type_symbol
_atom_site_fract_x
_atom_site_fract_y
_atom_site_fract_z
_atom_site_U_iso_or_equiv
_atom_site_thermal_displace_type
Zn1 Zn 0.20871(2) 0.89220(3) 1.06614(3) 0.0237 Uani
Zn2 Zn 0.31649(2) 0.34436(3) 0.19901(4) 0.0272 Uani
Zn3 Zn 0.31873(18) 0.6767(5) 0.2312(7) 0.0213 Uani
O1 O 0.24320(8) 0.89613(15) 0.9686(2) 0.0324 Uani
F1 F 0.50938(7) 0.09370(15) -0.1330(2) 0.0465 Uani
N1 N 0.31415(9) 0.56897(17) 0.2587(2) 0.0289 Uani
C1 C 0.29964(12) 0.5397(2) 0.3348(3) 0.0324 Uani
H1 H 0.2911 0.5676 0.3838 0.0390 Uiso
N2 N 0.31415(8) 0.44752(16) 0.2500(2) 0.0253 Uani
N3 N 0.29886(9) 0.46744(17) 0.3330(2) 0.0282 Uani
F2 F 0.55042(8) 0.07570(17) 0.0281(2) 0.0566 Uani
C2 C 0.32297(11) 0.5091(2) 0.2085(3) 0.0278 Uani
H2 H 0.3340 0.5111 0.1512 0.0330 Uiso
C3 C 0.31548(10) 0.8972(2) 0.5689(3) 0.0269 Uani
H3 H 0.2958 0.9151 0.6008 0.0320 Uiso
C4 C 0.31022(11) 0.8380(2) 0.5081(3) 0.0301 Uani
H4 H 0.2875 0.8146 0.5017 0.0360 Uiso
C5 C 0.42830(11) 0.2281(2) 0.1566(3) 0.0339 Uani
H5 H 0.4159 0.2094 0.2066 0.0410 Uiso
C6 C 0.64517(11) 0.3297(2) -0.0292(3) 0.0306 Uani
C7 C 0.35011(10) 0.9307(2) 0.5833(3) 0.0243 Uani
C8 C 0.59229(11) 0.2575(2) -0.1030(3) 0.0319 Uani
H6 H 0.6040 0.2570 -0.1595 0.0380 Uiso
C9 C 0.47736(10) 0.2177(2) 0.0512(3) 0.0309 Uani
C10 C 0.60779(10) 0.2957(2) -0.0270(3) 0.0336 Uani
C11 C 0.37818(10) 0.9060(2) 0.5292(3) 0.0302 Uani
H7 H 0.4011 0.9286 0.5362 0.0360 Uiso
C12 C 0.33891(10) 0.8128(2) 0.4562(2) 0.0252 Uani
C13 C 0.38189(12) 0.3292(3) 0.1413(3) 0.0409 Uani
O2 O 0.37206(11) 0.3902(2) 0.1080(3) 0.0653 Uani
C14 C 0.54118(10) 0.2218(2) -0.0137(3) 0.0308 Uani
C15 C 0.45812(11) 0.1898(2) 0.1250(3) 0.0340 Uani
H8 H 0.4653 0.1452 0.1534 0.0410 Uiso
C16 C 0.50727(10) 0.1736(2) 0.0031(3) 0.0305 Uani
C17 C 0.37245(11) 0.8483(2) 0.4648(3) 0.0312 Uani
H9 H 0.3912 0.8337 0.4275 0.0370 Uiso
C18 C 0.58943(13) 0.2988(3) 0.0571(3) 0.0484 Uani
H10 H 0.5997 0.3247 0.1091 0.0580 Uiso
C19 C 0.41678(11) 0.2936(2) 0.1149(3) 0.0364 Uani
C20 C 0.46668(13) 0.2860(2) 0.0128(4) 0.0446 Uani
H11 H 0.4801 0.3069 -0.0342 0.0530 Uiso
C21 C 0.43655(15) 0.3229(3) 0.0437(4) 0.0507 Uani
H12 H 0.4295 0.3678 0.0166 0.0610 Uiso
C22 C 0.55938(11) 0.2195(2) -0.0968(3) 0.0332 Uani
H13 H 0.5495 0.1925 -0.1485 0.0400 Uiso
O3 O 0.36189(8) 0.29197(17) 0.1944(2) 0.0429 Uani
N4 N 0.27800(9) 0.28921(17) 0.2685(2) 0.0282 Uani
O4 O 0.65768(8) 0.3621(2) 0.0442(2) 0.0512 Uani
O5 O 0.66302(8) 0.32298(18) -0.0997(2) 0.0408 Uani
O6 O 0.28747(8) 0.34698(16) 0.0732(2) 0.0358 Uani
H14 H 0.2672 0.3230 0.0761 0.0540 Uiso
H15 H 0.3000 0.3271 0.0304 0.0540 Uiso
N5 N 0.22640(9) 0.22915(17) 0.2934(2) 0.0284 Uani
F3 F 0.40265(7) 0.92877(16) 0.7397(2) 0.0480 Uani
F4 F 0.31564(7) 1.07555(14) 0.56332(18) 0.0419 Uani
F5 F 0.49631(8) 0.05488(14) 0.0722(2) 0.0513 Uani
F6 F 0.42063(7) 1.01525(18) 0.6511(2) 0.0539 Uani
C23 C 0.32315(10) 0.9220(2) 0.7761(3) 0.0274 Uani
H16 H 0.3375 0.8822 0.7598 0.0330 Uiso
O7 O 0.30900(9) 0.70085(15) 0.40814(19) 0.0381 Uani
C24 C 0.27628(10) 0.9720(2) 0.8691(2) 0.0241 Uani
C25 C 0.29796(11) 0.9128(2) 0.8433(3) 0.0280 Uani
H17 H 0.2954 0.8670 0.8717 0.0340 Uiso
C26 C 0.52128(12) 0.1079(2) 0.0636(3) 0.0385 Uani
F7 F 0.37089(8) 1.06831(15) 0.5225(2) 0.0529 Uani
F8 F 0.53219(8) 0.12888(17) 0.1516(2) 0.0523 Uani
O8 O 0.23177(8) 1.01546(17) 0.9720(2) 0.0390 Uani
C27 C 0.25264(11) 0.2430(2) 0.2332(3) 0.0306 Uani
H18 H 0.2529 0.2223 0.1731 0.0370 Uiso
C28 C 0.35539(10) 0.9950(2) 0.6548(3) 0.0247 Uani
N6 N 0.26752(9) 0.30841(17) 0.3575(2) 0.0300 Uani
C29 C 0.39422(11) 0.9951(3) 0.7066(3) 0.0377 Uani
C30 C 0.30681(10) 1.0492(2) 0.7605(3) 0.0282 Uani
H19 H 0.3101 1.0955 0.7339 0.0340 Uiso
C31 C 0.33211(11) 0.7494(2) 0.3894(3) 0.0281 Uani
C32 C 0.55626(12) 0.2630(3) 0.0622(3) 0.0468 Uani
H20 H 0.5438 0.2665 0.1172 0.0560 Uiso
C33 C 0.35036(12) 1.0672(2) 0.5960(3) 0.0356 Uani
C34 C 0.24859(10) 0.9621(2) 0.9403(3) 0.0272 Uani
C35 C 0.32747(9) 0.9901(2) 0.7321(2) 0.0229 Uani
F9 F 0.48058(7) 0.19666(16) -0.15266(19) 0.0496 Uani
F10 F 0.35925(8) 1.12750(14) 0.6482(2) 0.0505 Uani
F11 F 0.45695(7) 0.10866(17) -0.0756(2) 0.0532 Uani
F12 F 0.39580(7) 1.04140(18) 0.7796(2) 0.0542 Uani
C36 C 0.28143(10) 1.0403(2) 0.8278(3) 0.0277 Uani
H21 H 0.2676 1.0806 0.8455 0.0330 Uiso
C37 C 0.23674(11) 0.2711(2) 0.3687(3) 0.0294 Uani
H22 H 0.2237 0.2737 0.4230 0.0350 Uiso
O9 O 0.34874(8) 0.74795(15) 0.3142(2) 0.0350 Uani
C38 C 0.48874(11) 0.1428(3) -0.0901(3) 0.0387 Uani
Zn1B Zn 0.70871(2) 0.39220(3) 0.06614(3) 0.0237 Uani
Zn1C Zn 0.29129(2) 0.39220(3) 0.43386(3) 0.0237 Uani
Zn3C Zn 0.18127(18) 0.1767(5) 0.2688(7) 0.0213 Uani
Zn3D Zn 0.68127(18) 0.3233(5) -0.2312(7) 0.0213 Uani
N3C N 0.20114(9) 0.96744(17) 1.1670(2) 0.0282 Uani
O4B O 0.15768(8) 0.8621(2) 1.0442(2) 0.0512 Uani
O5D O 0.33698(8) 0.67702(18) 0.0997(2) 0.0408 Uani
N5C N 0.27360(9) 0.72915(17) 0.2066(2) 0.0284 Uani
N6C N 0.23248(9) 0.80841(17) 1.1425(2) 0.0300 Uani
O11 O 0.5899(5) 0.5283(7) 0.3827(17) 0.2616 Uani
O12 O 0.3861(8) 0.5255(15) 0.417(2) 0.2699 Uani
loop_
_atom_site_aniso_label
_atom_site_aniso_U_11
_atom_site_aniso_U_22
_atom_site_aniso_U_33
_atom_site_aniso_U_23
_atom_site_aniso_U_13
_atom_site_aniso_U_12
Zn1 0.0272(3) 0.0258(3) 0.0190(3) -0.00252(17) 0.00820(18) -0.00378(18)
Zn2 0.0315(3) 0.0234(3) 0.0282(3) -0.00095(19) 0.0134(2) 0.00560(19)
Zn3 0.026(2) 0.0186(9) 0.0205(8) -0.0009(5) 0.0104(16) 0.0028(16)
O1 0.0340(15) 0.0358(15) 0.0291(15) -0.0002(11) 0.0153(11) -0.0045(11)
F1 0.0406(14) 0.0505(15) 0.0502(16) -0.0226(12) 0.0158(12) -0.0062(11)
N1 0.0421(18) 0.0254(15) 0.0206(16) 0.0012(12) 0.0122(13) 0.0033(13)
C1 0.054(2) 0.0232(18) 0.0218(19) -0.0008(14) 0.0155(17) 0.0050(17)
N2 0.0317(16) 0.0244(15) 0.0210(15) -0.0009(12) 0.0105(12) 0.0051(12)
N3 0.0403 0.0248 0.0206 0.0008 0.0098 0.0026
F2 0.0425(15) 0.0601(18) 0.070(2) 0.0035(14) 0.0241(14) 0.0232(13)
C2 0.038(2) 0.0242(18) 0.0221(18) -0.0011(14) 0.0098(15) 0.0014(15)
C3 0.0237(18) 0.0333(19) 0.0246(19) -0.0057(15) 0.0080(14) -0.0030(14)
C4 0.0263(19) 0.0326(19) 0.032(2) -0.0047(16) 0.0071(15) -0.0103(15)
C5 0.0276(19) 0.039(2) 0.037(2) -0.0037(17) 0.0174(16) -0.0020(17)
C6 0.028(2) 0.035(2) 0.030(2) -0.0057(16) 0.0120(16) -0.0023(16)
C7 0.0280(18) 0.0268(18) 0.0185(18) -0.0020(13) 0.0046(13) -0.0035(14)
C8 0.030(2) 0.040(2) 0.027(2) -0.0057(16) 0.0108(15) -0.0006(16)
C9 0.0194(18) 0.038(2) 0.036(2) -0.0053(16) 0.0076(15) -0.0033(15)
C10 0.0201(18) 0.045(2) 0.037(2) -0.0102(17) 0.0116(15) -0.0043(16)
C11 0.0247(18) 0.041(2) 0.026(2) -0.0077(16) 0.0090(14) -0.0060(16)
C12 0.034(2) 0.0247(17) 0.0169(18) -0.0010(13) 0.0028(14) 0.0009(15)
C13 0.037(2) 0.043(2) 0.044(3) -0.0120(19) 0.0135(19) 0.0038(19)
O2 0.061(2) 0.046(2) 0.094(3) 0.0089(19) 0.043(2) 0.0219(17)
C14 0.0204(18) 0.039(2) 0.034(2) -0.0067(17) 0.0098(15) -0.0039(16)
C15 0.0257(19) 0.041(2) 0.036(2) 0.0001(17) 0.0084(16) 0.0028(16)
C16 0.0175(17) 0.038(2) 0.037(2) -0.0047(17) 0.0090(15) -0.0007(15)
C17 0.0260(19) 0.040(2) 0.029(2) -0.0086(16) 0.0117(15) 0.0008(16)
C18 0.038(2) 0.072(3) 0.037(3) -0.024(2) 0.0168(19) -0.018(2)
C19 0.029(2) 0.037(2) 0.045(2) -0.0115(18) 0.0161(17) -0.0010(17)
C20 0.042(2) 0.036(2) 0.059(3) 0.005(2) 0.028(2) 0.0035(19)
C21 0.053(3) 0.035(2) 0.068(3) 0.010(2) 0.033(3) 0.009(2)
C22 0.030(2) 0.042(2) 0.028(2) -0.0103(17) 0.0058(15) -0.0040(17)
O3 0.0319(15) 0.0453(17) 0.054(2) -0.0016(14) 0.0211(13) 0.0100(13)
N4 0.0330(17) 0.0263(15) 0.0272(17) 0.0006(12) 0.0155(13) 0.0037(13)
O4 0.0272(15) 0.079(2) 0.049(2) -0.0263(18) 0.0150(13) -0.0223(15)
O5 0.0322 0.0587 0.0338 -0.0073 0.0194 -0.0098
O6 0.0428(16) 0.0389(15) 0.0274(15) 0.0015(11) 0.0152(12) 0.0042(12)
N5 0.0369 0.0253 0.0242 0.0001 0.0113 0.0011
F3 0.0314(13) 0.0632(18) 0.0483(16) -0.0054(13) -0.0065(11) 0.0115(12)
F4 0.0463(14) 0.0452(14) 0.0344(14) 0.0087(10) 0.0053(11) 0.0062(11)
F5 0.0490(15) 0.0387(14) 0.0688(19) 0.0005(12) 0.0239(13) 0.0003(12)
F6 0.0264(13) 0.080(2) 0.0569(17) -0.0183(15) 0.0148(11) -0.0185(12)
C23 0.0305(19) 0.0266(18) 0.026(2) -0.0038(14) 0.0082(15) 0.0057(15)
O7 0.0620(19) 0.0304(14) 0.0225(14) -0.0036(11) 0.0077(13) -0.0106(13)
C24 0.0228(17) 0.0301(18) 0.0198(17) -0.0015(14) 0.0048(13) -0.0024(14)
C25 0.035(2) 0.0267(18) 0.0230(19) 0.0021(14) 0.0081(15) -0.0024(15)
C26 0.031(2) 0.040(2) 0.046(3) -0.0047(18) 0.0137(18) 0.0061(17)
F7 0.0672(18) 0.0481(15) 0.0479(16) 0.0070(12) 0.0381(14) -0.0061(13)
F8 0.0426(15) 0.0692(18) 0.0450(16) 0.0034(14) 0.0027(12) 0.0129(13)
O8 0.0437(17) 0.0451(17) 0.0305(15) 0.0046(12) 0.0195(12) 0.0152(13)
C27 0.040(2) 0.0286(19) 0.025(2) -0.0023(15) 0.0148(16) 0.0022(16)
C28 0.0275(19) 0.0267(18) 0.0206(17) -0.0051(14) 0.0059(14) -0.0045(14)
N6 0.0373 0.0273 0.0269 -0.0017 0.0144 0.0008
C29 0.027(2) 0.052(3) 0.035(2) -0.0160(19) 0.0079(17) -0.0071(18)
C30 0.0317(19) 0.0261(18) 0.028(2) -0.0004(15) 0.0109(15) -0.0020(15)
C31 0.036(2) 0.0248(18) 0.0237(19) -0.0010(14) 0.0029(15) 0.0000(15)
C32 0.031(2) 0.075(3) 0.037(3) -0.020(2) 0.0217(18) -0.014(2)
C33 0.048(2) 0.033(2) 0.028(2) 0.0003(16) 0.0183(18) -0.0111(18)
C34 0.0216(17) 0.040(2) 0.0201(18) 0.0001(15) 0.0030(13) -0.0010(15)
C35 0.0211(17) 0.0264(18) 0.0218(18) -0.0041(13) 0.0060(13) -0.0044(13)
F9 0.0438(15) 0.0653(17) 0.0391(15) -0.0038(13) -0.0014(11) 0.0042(13)
F10 0.0661(18) 0.0299(12) 0.0583(17) -0.0087(11) 0.0249(14) -0.0216(12)
F11 0.0310(14) 0.0717(19) 0.0581(18) -0.0188(14) 0.0114(12) -0.0191(12)
F12 0.0381(14) 0.076(2) 0.0480(17) -0.0349(15) -0.0013(11) -0.0069(13)
C36 0.0264(18) 0.0270(18) 0.031(2) -0.0029(15) 0.0120(15) 0.0055(15)
C37 0.039 0.0277 0.023 0.0004 0.0138 -0.0006
O9 0.0406(16) 0.0387(15) 0.0270(15) -0.0096(11) 0.0118(12) -0.0057(12)
C38 0.025(2) 0.046(2) 0.046(3) -0.007(2) 0.0088(17) -0.0037(17)
Zn1B 0.0272 0.0258 0.019 -0.00252 0.0082 -0.00378
Zn1C 0.0272 0.0258 0.019 0.00252 0.0082 0.00378
Zn3C 0.026 0.0186 0.0205 0.0009 0.0104 -0.0028
Zn3D 0.026 0.0186 0.0205 -0.0009 0.0104 0.0028
N3C 0.0403 0.0248 0.0206 -0.0008 0.0098 -0.0026
O4B 0.0272 0.079 0.049 -0.0263 0.015 -0.0223
O5D 0.0322 0.0587 0.0338 -0.0073 0.0194 -0.0098
N5C 0.0369 0.0253 0.0242 -0.0001 0.0113 -0.0011
N6C 0.0373 0.0273 0.0269 0.0017 0.0144 -0.0008
O11 0.25(2) 0.099(9) 0.45(4) 0.023(14) 0.13(2) -0.007(10)
O12 0.27(3) 0.25(3) 0.27(3) 0.03(2) -0.13(2) -0.13(2)
loop_
_geom_bond_atom_site_label_1
_geom_bond_atom_site_label_2
_geom_bond_site_symmetry_1
_geom_bond_site_symmetry_2
Zn1 O1 1_555 1_555
Zn2 N2 1_555 1_555
Zn3 N1 1_555 1_555
O1 C34 1_555 1_555
F1 C38 1_555 1_555
N1 C1 1_555 1_555
C1 H1 1_555 1_555
N2 N3 1_555 1_555
N3 C1 1_555 1_555
F2 C26 1_555 1_555
C2 N1 1_555 1_555
H2 C2 1_555 1_555
C3 H3 1_555 1_555
C4 C3 1_555 1_555
H4 C4 1_555 1_555
C5 H5 1_555 1_555
C6 C10 1_555 1_555
C7 C3 1_555 1_555
C8 H6 1_555 1_555
C9 C15 1_555 1_555
C10 C8 1_555 1_555
C11 C7 1_555 1_555
H7 C11 1_555 1_555
C12 C4 1_555 1_555
C13 O2 1_555 1_555
C14 C16 1_555 1_555
C15 C5 1_555 1_555
H8 C15 1_555 1_555
C16 C9 1_555 1_555
C17 C11 1_555 1_555
H9 C17 1_555 1_555
C18 C10 1_555 1_555
H10 C18 1_555 1_555
C19 C5 1_555 1_555
C20 C9 1_555 1_555
H11 C20 1_555 1_555
C21 C19 1_555 1_555
H12 C21 1_555 1_555
C22 C8 1_555 1_555
H13 C22 1_555 1_555
O3 Zn2 1_555 1_555
N4 Zn2 1_555 1_555
O4 C6 1_555 1_555
O5 C6 1_555 1_555
O6 Zn2 1_555 1_555
H14 O6 1_555 1_555
H15 O6 1_555 1_555
N5 C27 1_555 1_555
F3 C29 1_555 1_555
F4 C33 1_555 1_555
F5 C26 1_555 1_555
F6 C29 1_555 1_555
C23 H16 1_555 1_555
O7 C31 1_555 1_555
C24 C25 1_555 1_555
C25 C23 1_555 1_555
H17 C25 1_555 1_555
C26 C16 1_555 1_555
F7 C33 1_555 1_555
F8 C26 1_555 1_555
O8 C34 1_555 1_555
C27 N4 1_555 1_555
H18 C27 1_555 1_555
C28 C7 1_555 1_555
N6 N4 1_555 1_555
C29 C28 1_555 1_555
C30 H19 1_555 1_555
C31 C12 1_555 1_555
C32 C14 1_555 1_555
H20 C32 1_555 1_555
C33 C28 1_555 1_555
C34 C24 1_555 1_555
C35 C23 1_555 1_555
F9 C38 1_555 1_555
F10 C33 1_555 1_555
F11 C38 1_555 1_555
F12 C29 1_555 1_555
C36 C24 1_555 1_555
H21 C36 1_555 1_555
C37 N5 1_555 1_555
H22 C37 1_555 1_555
O9 Zn3 1_555 1_555
C38 C16 1_555 1_555
Zn1B O4 1_555 1_555
Zn1C N3 1_555 1_555
Zn3C N5 1_555 1_555
Zn3D O5 1_555 1_555
N3C Zn1 1_555 1_555
O4B Zn1 1_555 1_555
O5D Zn3 1_555 1_555
N5C Zn3 1_555 1_555
N6C Zn1 1_555 1_555
N2 C2 1_555 1_555
C12 C17 1_555 1_555
C13 C19 1_555 1_555
C13 O3 1_555 1_555
C14 C22 1_555 1_555
C18 C32 1_555 1_555
C20 C21 1_555 1_555
C28 C35 1_555 1_555
N6 C37 1_555 1_555
N6 Zn1C 1_555 1_555
C30 C35 1_555 1_555
C30 C36 1_555 1_555
C31 O9 1_555 1_555

#END
