
#######################################################################
#
#                 Cambridge Crystallographic Data Centre
#                                CCDC 
#
#######################################################################
#
# If this CIF has been generated from an entry in the Cambridge 
# Structural Database, then it will include bibliographic, chemical, 
# crystal, experimental, refinement or atomic coordinate data resulting 
# from the CCDC's data processing and validation procedures.
#
#######################################################################

data_PEJRAZ
_chemical_formula_moiety         '(C45 H34 Co2 N4 O12)n'
_symmetry_cell_setting           orthorhombic
_symmetry_space_group_name_H-M   'P c c n'
_symmetry_Int_Tables_number      56
_space_group_name_Hall           '-P 2ab 2ac'
loop_
_symmetry_equiv_pos_site_id
_symmetry_equiv_pos_as_xyz
1 x,y,z
2 1/2-x,1/2-y,z
3 1/2+x,-y,1/2-z
4 -x,1/2+y,1/2-z
5 -x,-y,-z
6 1/2+x,1/2+y,-z
7 1/2-x,y,1/2+z
8 x,1/2-y,1/2+z
_cell_length_a                   20.131(2)
_cell_length_b                   24.767(3)
_cell_length_c                   26.928(3)
_cell_angle_alpha                90
_cell_angle_beta                 90
_cell_angle_gamma                90
_cell_volume                     13425.9
loop_
_atom_site_label
_atom_site_type_symbol
_atom_site_fract_x
_atom_site_fract_y
_atom_site_fract_z
Co1 Co 0.55306(4) -0.17926(3) -0.00643(3)
Co2 Co 0.44631(3) -0.24609(3) 0.00472(3)
O1 O 0.33124(18) 0.00884(15) 0.18656(13)
O2 O 0.5153(2) -0.12424(18) 0.04425(17)
O3 O 0.42831(19) -0.18235(14) 0.05281(14)
O4 O 0.2820(2) 0.0990(2) 0.31247(16)
O5 O 0.4080(3) 0.2729(2) 0.4527(2)
O6 O 0.4969(2) 0.21962(17) 0.43856(13)
O7 O 0.2227(2) -0.02647(19) 0.31110(17)
O8 O 0.09505(19) -0.19999(16) 0.45213(12)
O9 O 0.00582(19) -0.14495(16) 0.44540(16)
O10 O 0.17357(19) 0.06641(14) 0.19004(14)
O11 O -0.00914(18) 0.20365(14) 0.04126(13)
O12 O 0.0753(2) 0.26121(16) 0.05433(16)
N1 N 0.6363(3) -0.1363(2) -0.0258(2)
N2 N 0.7046(3) -0.0692(2) -0.0347(2)
N3 N 0.8645(3) 0.2106(2) -0.0244(2)
N4 N 0.8032(4) 0.1422(3) -0.0391(3)
C1 C 0.6427(3) -0.0848(3) -0.0259(3)
H1 H 0.6078 -0.0609 -0.0202
C2 C 0.6961(3) -0.1570(3) -0.0368(3)
H2 H 0.7058 -0.1936 -0.0395
C3 C 0.7408(3) -0.1158(3) -0.0432(3)
H3 H 0.7856 -0.1186 -0.0515
C4 C 0.7286(3) -0.0161(2) -0.0386(2)
C5 C 0.7068(6) 0.0181(4) -0.0025(4)
H4 H 0.6788 0.0062 0.0227
C6 C 0.7289(7) 0.0745(4) -0.0049(4)
H5 H 0.7106 0.1019 0.0143
C7 C 0.7768(5) 0.0822(4) -0.0366(5)
C8 C 0.7961(4) 0.0512(5) -0.0727(4)
H6 H 0.8249 0.0631 -0.0973
C9 C 0.7717(3) 0.0004(3) -0.0722(2)
H7 H 0.7859 -0.0238 -0.0964
C10 C 0.8488(3) 0.1637(2) -0.0196(2)
H8 H 0.8749 0.1427 0.0014
C11 C 0.8555(6) 0.2081(3) -0.0814(5)
H9 H 0.8724 0.2330 -0.1040
C12 C 0.8200(5) 0.1652(5) -0.0930(4)
H10 H 0.8080 0.1520 -0.1240
C13 C 0.2532(2) 0.0376(2) 0.24904(19)
C14 C 0.2771(3) -0.0086(2) 0.21732(18)
H11 H 0.2916 -0.0381 0.2384
H12 H 0.2410 -0.0215 0.1966
C15 C 0.3595(3) -0.0297(2) 0.1575(2)
C16 C 0.4156(3) -0.0148(3) 0.1306(2)
H13 H 0.4321 0.0201 0.1335
C17 C 0.4455(3) -0.0492(2) 0.1013(2)
H14 H 0.4835 -0.0380 0.0845
C18 C 0.4243(3) -0.0990(2) 0.0944(2)
C19 C 0.3697(3) -0.1159(2) 0.1217(2)
H15 H 0.3553 -0.1515 0.1189
C20 C 0.3361(3) -0.0811(2) 0.1530(2)
H16 H 0.2987 -0.0924 0.1704
C21 C 0.4578(3) -0.1398(2) 0.06104(19)
C22 C 0.3076(3) 0.0564(2) 0.28207(18)
H17 H 0.3230 0.0268 0.3027
H18 H 0.3446 0.0694 0.2624
C23 C 0.3220(3) 0.1266(3) 0.3414(2)
C24 C 0.2913(4) 0.1687(3) 0.3688(3)
H19 H 0.2457 0.1735 0.3661
C25 C 0.3277(4) 0.2034(3) 0.3997(3)
H20 H 0.3066 0.2306 0.4174
C26 C 0.3946(3) 0.1963(2) 0.4032(2)
C27 C 0.4301(3) 0.1565(3) 0.3741(2)
H21 H 0.4762 0.1546 0.3735
C28 C 0.3900(3) 0.1208(2) 0.3466(2)
H22 H 0.4104 0.0917 0.3311
C29 C 0.4368(3) 0.2346(3) 0.4368(2)
C30 C 0.1952(3) 0.0144(2) 0.2821(2)
H23 H 0.1768 0.0425 0.3030
H24 H 0.1601 0.0000 0.2613
C31 C 0.1796(3) -0.0577(2) 0.3381(2)
C32 C 0.2053(4) -0.1042(3) 0.3587(3)
H25 H 0.2495 -0.1131 0.3525
C33 C 0.1695(3) -0.1365(3) 0.3869(2)
H26 H 0.1884 -0.1681 0.3992
C34 C 0.1063(3) -0.1246(2) 0.39815(19)
C35 C 0.0795(3) -0.0779(2) 0.3785(2)
H27 H 0.0360 -0.0683 0.3862
C36 C 0.1170(3) -0.0452(3) 0.3474(2)
H28 H 0.0981 -0.0147 0.3332
C37 C 0.0685(3) -0.1582(2) 0.4311(2)
C38 C 0.2293(3) 0.0855(2) 0.2176(2)
H29 H 0.2165 0.1155 0.2388
H30 H 0.2642 0.0975 0.1954
C39 C 0.1430(3) 0.1045(2) 0.16035(19)
C40 C 0.1682(3) 0.1572(2) 0.1545(2)
H31 H 0.2062 0.1676 0.1716
C41 C 0.1372(3) 0.1934(2) 0.1239(2)
H32 H 0.1544 0.2280 0.1202
C42 C 0.0769(3) 0.1777(2) 0.09679(19)
C43 C 0.0536(3) 0.1259(2) 0.1053(2)
H33 H 0.0148 0.1155 0.0892
C44 C 0.0841(3) 0.0882(2) 0.1363(2)
H34 H 0.0664 0.0539 0.1409
C45 C 0.0475(3) 0.2153(3) 0.0642(2)
Co1C Co 0.44694(4) 0.32074(3) 0.50643(3)
Co1F Co -0.05306(4) -0.17926(3) 0.49357(3)
Co1E Co 0.05306(4) 0.32074(3) 0.00643(3)
Co2C Co 0.55369(3) 0.25391(3) 0.49528(3)
Co2F Co 0.05369(3) -0.24609(3) 0.50472(3)
Co2E Co -0.05369(3) 0.25391(3) -0.00472(3)
Co2E_2 Co 0.94631(3) 0.25391(3) -0.00472(3)
O5C O 0.5920(3) -0.2271(2) 0.0473(2)
O6C O 0.5031(2) -0.28038(17) 0.06144(13)
O8F O 0.40495(19) -0.19999(16) -0.04787(12)
O9F O 0.49418(19) -0.14495(16) -0.05460(16)
O11E O 0.49086(18) -0.29635(14) -0.04126(13)
O12E O 0.5753(2) -0.23879(16) -0.05433(16)
N3E N 0.3645(3) -0.2894(2) 0.0244(2)
loop_
_geom_bond_atom_site_label_1
_geom_bond_atom_site_label_2
_geom_bond_site_symmetry_1
_geom_bond_site_symmetry_2
Co1 O2 1_555 1_555
Co2 O3 1_555 1_555
O1 C14 1_555 1_555
O2 C21 1_555 1_555
O3 C21 1_555 1_555
O4 C22 1_555 1_555
O5 C29 1_555 1_555
O6 C29 1_555 1_555
O7 C30 1_555 1_555
O8 C37 1_555 1_555
O9 C37 1_555 1_555
O10 C38 1_555 1_555
O11 C45 1_555 1_555
O12 C45 1_555 1_555
N1 Co1 1_555 1_555
N2 C1 1_555 1_555
N3 C10 1_555 1_555
N4 C7 1_555 1_555
C1 N1 1_555 1_555
H1 C1 1_555 1_555
C2 N1 1_555 1_555
H2 C2 1_555 1_555
C3 N2 1_555 1_555
H3 C3 1_555 1_555
C4 N2 1_555 1_555
C5 C4 1_555 1_555
H4 C5 1_555 1_555
C6 C5 1_555 1_555
H5 C6 1_555 1_555
C7 C6 1_555 1_555
C8 C7 1_555 1_555
H6 C8 1_555 1_555
C9 C4 1_555 1_555
H7 C9 1_555 1_555
C10 N4 1_555 1_555
H8 C10 1_555 1_555
C11 N3 1_555 1_555
H9 C11 1_555 1_555
C12 N4 1_555 1_555
H10 C12 1_555 1_555
C13 C14 1_555 1_555
C14 H11 1_555 1_555
H12 C14 1_555 1_555
C15 O1 1_555 1_555
C16 C15 1_555 1_555
H13 C16 1_555 1_555
C17 C16 1_555 1_555
H14 C17 1_555 1_555
C18 C17 1_555 1_555
C19 C18 1_555 1_555
H15 C19 1_555 1_555
C20 C15 1_555 1_555
H16 C20 1_555 1_555
C21 C18 1_555 1_555
C22 C13 1_555 1_555
H17 C22 1_555 1_555
H18 C22 1_555 1_555
C23 O4 1_555 1_555
C24 C23 1_555 1_555
H19 C24 1_555 1_555
C25 C24 1_555 1_555
H20 C25 1_555 1_555
C26 C25 1_555 1_555
C27 C26 1_555 1_555
H21 C27 1_555 1_555
C28 C23 1_555 1_555
H22 C28 1_555 1_555
C29 C26 1_555 1_555
C30 C13 1_555 1_555
H23 C30 1_555 1_555
H24 C30 1_555 1_555
C31 O7 1_555 1_555
C32 C31 1_555 1_555
H25 C32 1_555 1_555
C33 C32 1_555 1_555
H26 C33 1_555 1_555
C34 C33 1_555 1_555
C35 C34 1_555 1_555
H27 C35 1_555 1_555
C36 C31 1_555 1_555
H28 C36 1_555 1_555
C37 C34 1_555 1_555
C38 C13 1_555 1_555
H29 C38 1_555 1_555
H30 C38 1_555 1_555
C39 O10 1_555 1_555
C40 C39 1_555 1_555
H31 C40 1_555 1_555
C41 C40 1_555 1_555
H32 C41 1_555 1_555
C42 C41 1_555 1_555
C43 C42 1_555 1_555
H33 C43 1_555 1_555
C44 C39 1_555 1_555
H34 C44 1_555 1_555
C45 C42 1_555 1_555
Co1C O5 1_555 1_555
Co1F O9 1_555 1_555
Co1E O12 1_555 1_555
Co2C O6 1_555 1_555
Co2F O8 1_555 1_555
Co2E O11 1_555 1_555
Co2E_2 N3 1_555 1_555
O5C Co1 1_555 1_555
O6C Co2 1_555 1_555
O8F Co2 1_555 1_555
O9F Co1 1_555 1_555
O11E Co2 1_555 1_555
O12E Co1 1_555 1_555
N3E Co2 1_555 1_555
C2 C3 1_555 1_555
C8 C9 1_555 1_555
C11 C12 1_555 1_555
C19 C20 1_555 1_555
C27 C28 1_555 1_555
C35 C36 1_555 1_555
C43 C44 1_555 1_555

#END
