
#######################################################################
#
#                 Cambridge Crystallographic Data Centre
#                                CCDC 
#
#######################################################################
#
# If this CIF has been generated from an entry in the Cambridge 
# Structural Database, then it will include bibliographic, chemical, 
# crystal, experimental, refinement or atomic coordinate data resulting 
# from the CCDC's data processing and validation procedures.
#
#######################################################################

data_MIXXOI
_chemical_formula_moiety         'C62 H92 Cd7 N31 O8 2-'
_symmetry_cell_setting           triclinic
_symmetry_space_group_name_H-M   'P -1'
_symmetry_Int_Tables_number      2
_space_group_name_Hall           '-P 1'
loop_
_symmetry_equiv_pos_site_id
_symmetry_equiv_pos_as_xyz
1 x,y,z
2 -x,-y,-z
_cell_length_a                   10.9960(10)
_cell_length_b                   14.0189(13)
_cell_length_c                   14.0271(14)
_cell_angle_alpha                61.9000(10)
_cell_angle_beta                 80.5850(10)
_cell_angle_gamma                85.441(2)
_cell_volume                     1881.72
loop_
_atom_site_label
_atom_site_type_symbol
_atom_site_fract_x
_atom_site_fract_y
_atom_site_fract_z
N13 N 0.6209(10) 0.1150(6) 0.6982(6)
O1 O 0.5976(9) 0.0241(6) 0.7197(6)
O2 O 0.5483(7) 0.1858(5) 0.6585(6)
O3 O 0.7138(7) 0.1294(7) 0.7240(8)
N14 N 0.1560(9) 0.8523(7) 0.8400(7)
O4 O 0.2215(12) 0.8010(9) 0.9073(7)
O5 O 0.0545(14) 0.8265(16) 0.8479(16)
O6 O 0.1936(13) 0.9346(10) 0.7675(11)
O10 O 0.2927(5) 0.1388(4) 0.6836(4)
H45 H 0.3701 0.1426 0.6807
H46 H 0.2729 0.0728 0.7108
O11 O 0.2043(7) 0.1222(5) 0.1421(6)
H47 H 0.2383 0.0755 0.1957
H48 H 0.1275 0.1242 0.1632
Cd1 Cd 0.25080(3) 0.47396(2) 0.27573(3)
N1 N 0.3361(3) 0.4550(3) 0.5889(3)
N2 N 0.2955(3) 0.4888(3) 0.4277(3)
N3 N 0.1685(4) 0.4954(3) 0.9599(3)
N4 N 0.2087(4) 0.4579(3) 1.1227(3)
N5 N 0.0172(4) 0.1846(3) 0.5110(3)
N6 N 0.1057(3) 0.3387(3) 0.3906(3)
N7 N 0.5386(4) 0.2080(3) 0.3604(3)
N8 N 0.4050(3) 0.3405(3) 0.3002(3)
N9 N -0.0087(4) 0.7581(3) 0.1757(3)
N10 N 0.0980(3) 0.6092(3) 0.2518(3)
N11 N 0.4664(4) 0.7766(3) 0.0472(3)
N12 N 0.3853(3) 0.6154(3) 0.1483(3)
C1 C 0.2960(4) 0.4151(4) 0.5300(4)
H1 H 0.2714 0.3438 0.5579
C2 C 0.3367(4) 0.5811(4) 0.4218(4)
H2 H 0.3452 0.6478 0.3594
C3 C 0.3632(4) 0.5613(4) 0.5199(4)
H3 H 0.3938 0.6103 0.5373
C4 C 0.2156(4) 0.5319(4) 1.0188(4)
H4 H 0.2489 0.6005 0.9904
C5 C 0.1540(5) 0.3700(4) 1.1283(4)
H5 H 0.1368 0.3047 1.1913
C6 C 0.1296(5) 0.3924(4) 1.0298(4)
H6 H 0.0929 0.3464 1.0121
C7 C 0.3494(5) 0.3951(4) 0.7057(4)
H7 H 0.4293 0.4113 0.7152
H8 H 0.3472 0.3182 0.7287
C8 C 0.2506(4) 0.4214(4) 0.7785(4)
H9 H 0.2547 0.3680 0.8537
H10 H 0.1708 0.4142 0.7616
C9 C 0.2583(4) 0.5330(4) 0.7694(4)
H11 H 0.3379 0.5402 0.7866
H12 H 0.2543 0.5864 0.6942
C10 C 0.1587(5) 0.5583(4) 0.8424(4)
H13 H 0.1622 0.6347 0.8214
H14 H 0.0790 0.5443 0.8305
C11 C 0.1222(5) 0.2349(4) 0.4535(4)
H15 H 0.1985 0.2006 0.4573
C12 C -0.0194(5) 0.3533(4) 0.4109(4)
H16 H -0.0602 0.4191 0.3788
C13 C -0.0739(5) 0.2591(4) 0.4837(4)
H17 H -0.1576 0.2474 0.5100
C14 C 0.0020(6) 0.0694(4) 0.5913(4)
H18 H -0.0571 0.0630 0.6535
H19 H 0.0802 0.0409 0.6171
C15 C -0.0415(7) 0.0022(5) 0.5448(5)
H20 H -0.0557 -0.0710 0.6031
H21 H -0.1200 0.0309 0.5198
C16 C 0.4600(4) 0.2736(4) 0.3846(4)
H22 H 0.4457 0.2723 0.4524
C17 C 0.4533(5) 0.3156(4) 0.2183(4)
H23 H 0.4327 0.3500 0.1479
C18 C 0.5351(5) 0.2340(4) 0.2542(4)
H24 H 0.5801 0.2019 0.2147
C19 C 0.6132(5) 0.1216(4) 0.4353(5)
H25 H 0.6132 0.1307 0.4996
H26 H 0.6977 0.1276 0.3996
C20 C 0.5645(5) 0.0099(4) 0.4697(5)
H27 H 0.5665 0.0008 0.4051
H28 H 0.6189 -0.0440 0.5158
C21 C 0.0651(4) 0.6848(4) 0.1599(4)
H29 H 0.0900 0.6871 0.0922
C22 C 0.0420(4) 0.6354(4) 0.3312(4)
H30 H 0.0486 0.5966 0.4052
C23 C -0.0245(5) 0.7268(4) 0.2841(4)
H31 H -0.0722 0.7618 0.3195
C24 C -0.0599(5) 0.8551(4) 0.0903(4)
H32 H -0.1386 0.8731 0.1208
H33 H -0.0739 0.8402 0.0321
C25 C 0.0265(5) 0.9500(4) 0.0442(5)
H34 H 0.1052 0.9320 0.0137
H35 H 0.0404 0.9649 0.1023
C26 C 0.3763(5) 0.7173(4) 0.1258(4)
H36 H 0.3150 0.7452 0.1599
C27 C 0.4865(5) 0.6102(4) 0.0792(4)
H37 H 0.5155 0.5477 0.0755
C28 C 0.5376(5) 0.7083(4) 0.0179(4)
H38 H 0.6077 0.7260 -0.0342
C29 C 0.4916(7) 0.8923(5) 0.0017(6)
H39 H 0.5244 0.9200 -0.0750
H40 H 0.4141 0.9291 0.0063
C30 C 0.5755(11) 0.9193(9) 0.0538(10)
H41 H 0.6489 0.8748 0.0592
H42 H 0.5372 0.9018 0.1275
C31 C 0.6136(14) 1.0373(11) -0.0053(14)
H43 H 0.6783 1.0476 0.0284
H44 H 0.6462 1.0571 -0.0808
N5A N -0.0172(4) -0.1846(3) 0.4890(3)
N6A N -0.1057(3) -0.3387(3) 0.6094(3)
C11A C -0.1222(5) -0.2349(4) 0.5465(4)
H15A H -0.1985 -0.2006 0.5427
C12A C 0.0194(5) -0.3533(4) 0.5891(4)
H16A H 0.0602 -0.4191 0.6212
C13A C 0.0739(5) -0.2591(4) 0.5163(4)
H17A H 0.1576 -0.2474 0.4900
C14A C -0.0020(6) -0.0694(4) 0.4087(4)
H18A H 0.0571 -0.0630 0.3465
H19A H -0.0802 -0.0409 0.3829
C15A C 0.0415(7) -0.0022(5) 0.4552(5)
H20A H 0.0557 0.0710 0.3969
H21A H 0.1200 -0.0309 0.4802
N7A N 0.4614(4) -0.2080(3) 0.6396(3)
N8A N 0.5950(3) -0.3405(3) 0.6998(3)
C16A C 0.5400(4) -0.2736(4) 0.6154(4)
H22A H 0.5543 -0.2723 0.5476
C17A C 0.5467(5) -0.3156(4) 0.7817(4)
H23A H 0.5673 -0.3500 0.8521
C18A C 0.4649(5) -0.2340(4) 0.7458(4)
H24A H 0.4199 -0.2019 0.7853
C19A C 0.3868(5) -0.1216(4) 0.5647(5)
H25A H 0.3868 -0.1307 0.5004
H26A H 0.3023 -0.1276 0.6004
C20A C 0.4355(5) -0.0099(4) 0.5303(5)
H27A H 0.4335 -0.0008 0.5949
H28A H 0.3811 0.0440 0.4842
N9A N 0.0087(4) 1.2419(3) -0.1757(3)
N10A N -0.0980(3) 1.3908(3) -0.2518(3)
C21A C -0.0651(4) 1.3152(4) -0.1599(4)
H29A H -0.0900 1.3129 -0.0922
C22A C -0.0420(4) 1.3646(4) -0.3312(4)
H30A H -0.0486 1.4034 -0.4052
C23A C 0.0245(5) 1.2732(4) -0.2841(4)
H31A H 0.0722 1.2382 -0.3195
C24A C 0.0599(5) 1.1449(4) -0.0903(4)
H32A H 0.1386 1.1269 -0.1208
H33A H 0.0739 1.1598 -0.0321
C25A C -0.0265(5) 1.0500(4) -0.0442(5)
H34A H -0.1052 1.0680 -0.0137
H35A H -0.0404 1.0351 -0.1023
N11A N 0.5336(4) 1.2234(3) -0.0472(3)
N12A N 0.6147(3) 1.3846(3) -0.1483(3)
C26A C 0.6237(5) 1.2827(4) -0.1258(4)
H36A H 0.6850 1.2548 -0.1599
C27A C 0.5135(5) 1.3898(4) -0.0792(4)
H37A H 0.4845 1.4523 -0.0755
C28A C 0.4624(5) 1.2917(4) -0.0179(4)
H38A H 0.3923 1.2740 0.0342
C29A C 0.5084(7) 1.1077(5) -0.0017(6)
H39A H 0.4756 1.0800 0.0750
H40A H 0.5859 1.0709 -0.0063
C30A C 0.4245(11) 1.0807(9) -0.0538(10)
H41A H 0.3511 1.1252 -0.0592
H42A H 0.4628 1.0982 -0.1275
C31A C 0.3864(14) 0.9627(11) 0.0053(14)
H43A H 0.3217 0.9524 -0.0284
H44A H 0.3538 0.9429 0.0808
Cd1A Cd -0.25080(3) -0.47396(2) 0.72427(3)
N1A N -0.3361(3) -0.4550(3) 0.4111(3)
N2A N -0.2955(3) -0.4888(3) 0.5723(3)
N3A N -0.1685(4) -0.4954(3) 0.0401(3)
N4A N -0.2087(4) -0.4579(3) -0.1227(3)
C1A C -0.2960(4) -0.4151(4) 0.4700(4)
H1A H -0.2714 -0.3438 0.4421
C2A C -0.3367(4) -0.5811(4) 0.5782(4)
H2A H -0.3452 -0.6478 0.6406
C3A C -0.3632(4) -0.5613(4) 0.4801(4)
H3A H -0.3938 -0.6103 0.4627
C4A C -0.2156(4) -0.5319(4) -0.0188(4)
H4A H -0.2489 -0.6005 0.0096
C5A C -0.1540(5) -0.3700(4) -0.1283(4)
H5A H -0.1368 -0.3047 -0.1913
C6A C -0.1296(5) -0.3924(4) -0.0298(4)
H6A H -0.0929 -0.3464 -0.0121
C7A C -0.3494(5) -0.3951(4) 0.2943(4)
H7A H -0.4293 -0.4113 0.2848
H8A H -0.3472 -0.3182 0.2713
C8A C -0.2506(4) -0.4214(4) 0.2215(4)
H9A H -0.2547 -0.3680 0.1463
H10A H -0.1708 -0.4142 0.2384
C9A C -0.2583(4) -0.5330(4) 0.2306(4)
H11A H -0.3379 -0.5402 0.2134
H12A H -0.2543 -0.5864 0.3058
C10A C -0.1587(5) -0.5583(4) 0.1576(4)
H13A H -0.1622 -0.6347 0.1786
H14A H -0.0790 -0.5443 0.1695
Cd1_2 Cd 0.25080(3) 0.47396(2) 1.27573(3)
Cd1A_2 Cd -0.25080(3) -0.47396(2) -0.27573(3)
Cd1A_3 Cd -0.25080(3) 1.52604(2) -0.27573(3)
Cd1A_4 Cd 0.74920(3) -0.47396(2) 0.72427(3)
Cd1A_5 Cd 0.74920(3) 1.52604(2) -0.27573(3)
N4_2 N 0.2087(4) 0.4579(3) 0.1227(3)
N4A_2 N -0.2087(4) -0.4579(3) 0.8773(3)
N8A_2 N -0.4050(3) -0.3405(3) 0.6998(3)
N10A_2 N -0.0980(3) -0.6092(3) 0.7482(3)
N12A_2 N -0.3853(3) -0.6154(3) 0.8517(3)
loop_
_geom_bond_atom_site_label_1
_geom_bond_atom_site_label_2
_geom_bond_site_symmetry_1
_geom_bond_site_symmetry_2
Cd1 N2 1_555 1_555
N1 C1 1_555 1_555
N2 C1 1_555 1_555
N3 C4 1_555 1_555
N4 C4 1_555 1_555
N5 C11 1_555 1_555
N6 Cd1 1_555 1_555
N7 C16 1_555 1_555
N8 Cd1 1_555 1_555
N9 C21 1_555 1_555
N10 Cd1 1_555 1_555
N11 C26 1_555 1_555
N12 Cd1 1_555 1_555
C1 H1 1_555 1_555
C2 N2 1_555 1_555
H2 C2 1_555 1_555
C3 N1 1_555 1_555
H3 C3 1_555 1_555
C4 H4 1_555 1_555
C5 N4 1_555 1_555
H5 C5 1_555 1_555
C6 N3 1_555 1_555
H6 C6 1_555 1_555
C7 N1 1_555 1_555
H7 C7 1_555 1_555
H8 C7 1_555 1_555
C8 C7 1_555 1_555
H9 C8 1_555 1_555
H10 C8 1_555 1_555
C9 C8 1_555 1_555
H11 C9 1_555 1_555
H12 C9 1_555 1_555
C10 N3 1_555 1_555
H13 C10 1_555 1_555
H14 C10 1_555 1_555
C11 N6 1_555 1_555
H15 C11 1_555 1_555
C12 N6 1_555 1_555
H16 C12 1_555 1_555
C13 N5 1_555 1_555
H17 C13 1_555 1_555
C14 N5 1_555 1_555
H18 C14 1_555 1_555
H19 C14 1_555 1_555
C15 C14 1_555 1_555
H20 C15 1_555 1_555
H21 C15 1_555 1_555
C16 N8 1_555 1_555
H22 C16 1_555 1_555
C17 N8 1_555 1_555
H23 C17 1_555 1_555
C18 N7 1_555 1_555
H24 C18 1_555 1_555
C19 N7 1_555 1_555
H25 C19 1_555 1_555
H26 C19 1_555 1_555
C20 C19 1_555 1_555
H27 C20 1_555 1_555
H28 C20 1_555 1_555
C21 N10 1_555 1_555
H29 C21 1_555 1_555
C22 N10 1_555 1_555
H30 C22 1_555 1_555
C23 N9 1_555 1_555
H31 C23 1_555 1_555
C24 N9 1_555 1_555
H32 C24 1_555 1_555
H33 C24 1_555 1_555
C25 C24 1_555 1_555
H34 C25 1_555 1_555
H35 C25 1_555 1_555
C26 N12 1_555 1_555
H36 C26 1_555 1_555
C27 N12 1_555 1_555
H37 C27 1_555 1_555
C28 N11 1_555 1_555
H38 C28 1_555 1_555
C29 N11 1_555 1_555
H39 C29 1_555 1_555
H40 C29 1_555 1_555
C30 C29 1_555 1_555
H41 C30 1_555 1_555
H42 C30 1_555 1_555
C31 C30 1_555 1_555
H43 C31 1_555 1_555
H44 C31 1_555 1_555
N13 O1 1_555 1_555
O2 N13 1_555 1_555
O3 N13 1_555 1_555
N14 O4 1_555 1_555
O5 N14 1_555 1_555
O6 N14 1_555 1_555
O10 H45 1_555 1_555
H46 O10 1_555 1_555
O11 H47 1_555 1_555
H48 O11 1_555 1_555
N5A C11A 1_555 1_555
N6A C11A 1_555 1_555
C11A H15A 1_555 1_555
C12A N6A 1_555 1_555
H16A C12A 1_555 1_555
C13A N5A 1_555 1_555
H17A C13A 1_555 1_555
C14A N5A 1_555 1_555
H18A C14A 1_555 1_555
H19A C14A 1_555 1_555
C15A C15 1_555 1_555
H20A C15A 1_555 1_555
H21A C15A 1_555 1_555
N7A C16A 1_555 1_555
N8A C16A 1_555 1_555
C16A H22A 1_555 1_555
C17A N8A 1_555 1_555
H23A C17A 1_555 1_555
C18A N7A 1_555 1_555
H24A C18A 1_555 1_555
C19A N7A 1_555 1_555
H25A C19A 1_555 1_555
H26A C19A 1_555 1_555
C20A C20 1_555 1_555
H27A C20A 1_555 1_555
H28A C20A 1_555 1_555
N9A C21A 1_555 1_555
N10A C21A 1_555 1_555
C21A H29A 1_555 1_555
C22A N10A 1_555 1_555
H30A C22A 1_555 1_555
C23A N9A 1_555 1_555
H31A C23A 1_555 1_555
C24A N9A 1_555 1_555
H32A C24A 1_555 1_555
H33A C24A 1_555 1_555
C25A C25 1_555 1_555
H34A C25A 1_555 1_555
H35A C25A 1_555 1_555
N11A C26A 1_555 1_555
N12A C26A 1_555 1_555
C26A H36A 1_555 1_555
C27A N12A 1_555 1_555
H37A C27A 1_555 1_555
C28A N11A 1_555 1_555
H38A C28A 1_555 1_555
C29A C31 1_555 1_555
H39A C29A 1_555 1_555
H40A C31 1_555 1_555
C30A C29A 1_555 1_555
H41A C30A 1_555 1_555
H42A C30A 1_555 1_555
C31A C29 1_555 1_555
H43A C31A 1_555 1_555
H44A C31A 1_555 1_555
Cd1A N6A 1_555 1_555
N1A C1A 1_555 1_555
N2A Cd1A 1_555 1_555
N3A C4A 1_555 1_555
N4A C4A 1_555 1_555
C1A N2A 1_555 1_555
H1A C1A 1_555 1_555
C2A N2A 1_555 1_555
H2A C2A 1_555 1_555
C3A N1A 1_555 1_555
H3A C3A 1_555 1_555
C4A H4A 1_555 1_555
C5A N4A 1_555 1_555
H5A C5A 1_555 1_555
C6A N3A 1_555 1_555
H6A C6A 1_555 1_555
C7A N1A 1_555 1_555
H7A C7A 1_555 1_555
H8A C7A 1_555 1_555
C8A C7A 1_555 1_555
H9A C8A 1_555 1_555
H10A C8A 1_555 1_555
C9A C8A 1_555 1_555
H11A C9A 1_555 1_555
H12A C9A 1_555 1_555
C10A N3A 1_555 1_555
H13A C10A 1_555 1_555
H14A C10A 1_555 1_555
Cd1_2 N4 1_555 1_555
Cd1A_2 N4A 1_555 1_555
Cd1A_3 N10A 1_555 1_555
Cd1A_4 N8A 1_555 1_555
Cd1A_5 N12A 1_555 1_555
N4_2 Cd1 1_555 1_555
N4A_2 Cd1A 1_555 1_555
N8A_2 Cd1A 1_555 1_555
N10A_2 Cd1A 1_555 1_555
N12A_2 Cd1A 1_555 1_555
C2 C3 1_555 1_555
C5 C6 1_555 1_555
C9 C10 1_555 1_555
C12 C13 1_555 1_555
C17 C18 1_555 1_555
C22 C23 1_555 1_555
C27 C28 1_555 1_555
H40 C31A 1_555 1_555
C12A C13A 1_555 1_555
C14A C15A 1_555 1_555
C17A C18A 1_555 1_555
C19A C20A 1_555 1_555
C22A C23A 1_555 1_555
C24A C25A 1_555 1_555
N11A C29A 1_555 1_555
C27A C28A 1_555 1_555
C29A H40A 1_555 1_555
C30A C31A 1_555 1_555
C2A C3A 1_555 1_555
C5A C6A 1_555 1_555
C9A C10A 1_555 1_555

#END
