
#######################################################################
#
#                 Cambridge Crystallographic Data Centre
#                                CCDC 
#
#######################################################################
#
# If this CIF has been generated from an entry in the Cambridge 
# Structural Database, then it will include bibliographic, chemical, 
# crystal, experimental, refinement or atomic coordinate data resulting 
# from the CCDC's data processing and validation procedures.
#
#######################################################################

data_TIFDOB
_chemical_formula_moiety         '(C61 H56 F24 Mn2 N4 O12)n'
_symmetry_cell_setting           tetragonal
_symmetry_space_group_name_H-M   'P 41 21 2'
_symmetry_Int_Tables_number      92
_space_group_name_Hall           'P 4abw 2nw'
loop_
_symmetry_equiv_pos_site_id
_symmetry_equiv_pos_as_xyz
1 x,y,z
2 -x,-y,1/2+z
3 1/2-y,1/2+x,1/4+z
4 1/2+y,1/2-x,3/4+z
5 1/2-x,1/2+y,1/4-z
6 1/2+x,1/2-y,3/4-z
7 y,x,-z
8 -y,-x,1/2-z
_cell_length_a                   20.1716(5)
_cell_length_b                   20.1716(5)
_cell_length_c                   41.2300(17)
_cell_angle_alpha                90
_cell_angle_beta                 90
_cell_angle_gamma                90
_cell_volume                     16776.2
loop_
_atom_site_label
_atom_site_type_symbol
_atom_site_fract_x
_atom_site_fract_y
_atom_site_fract_z
_atom_site_U_iso_or_equiv
_atom_site_thermal_displace_type
Mn1 Mn -0.04727(2) 0.27277(2) 0.108270(10) 0.0648 Uani
Mn2 Mn 0.44920(2) 0.263998(19) 0.119728(10) 0.0620 Uani
O1 O -0.07237(8) 0.26930(8) 0.15780(4) 0.0634 Uani
O2 O 0.36375(8) 0.20960(8) 0.10823(4) 0.0646 Uani
O3 O 0.28815(8) 0.36891(8) 0.35456(4) 0.0684 Uani
O4 O 0.18424(8) -0.07408(8) 0.32710(4) 0.0623 Uani
O5 O -0.03585(10) 0.27327(10) 0.05690(4) 0.0898 Uani
O6 O -0.09546(10) 0.36487(9) 0.09898(4) 0.0867 Uani
O7 O 0.04173(10) 0.32764(9) 0.11978(5) 0.0875 Uani
O8 O 0.02318(8) 0.19306(8) 0.10631(5) 0.0769 Uani
O9 O 0.40526(10) 0.33457(9) 0.15060(4) 0.0796 Uani
O10 O 0.46042(10) 0.20989(9) 0.16338(4) 0.0863 Uani
O11 O 0.53647(10) 0.32339(9) 0.12558(5) 0.0858 Uani
O12 O 0.51877(9) 0.19597(9) 0.09984(5) 0.0780 Uani
N1 N -0.04728(10) 0.30328(10) 0.18166(5) 0.0640 Uani
N2 N 0.34386(10) 0.15430(9) 0.12052(5) 0.0571 Uani
N3 N 0.32497(10) 0.34784(10) 0.33109(5) 0.0633 Uani
N4 N 0.13234(9) -0.04683(10) 0.31472(5) 0.0543 Uani
C1 C 0.18914(11) 0.18619(10) 0.23633(5) 0.0409 Uani
C2 C 0.12536(10) 0.21929(10) 0.22346(5) 0.0400 Uani
C3 C 0.10595(12) 0.28466(11) 0.23008(6) 0.0590 Uani
H1 H 0.1313 0.3095 0.2445 0.0710 Uiso
C4 C 0.05265(12) 0.31277(11) 0.21661(6) 0.0552 Uani
H2 H 0.0429 0.3570 0.2207 0.0660 Uiso
C5 C 0.01187(11) 0.27571(12) 0.19645(5) 0.0486 Uani
C6 C 0.02844(11) 0.21177(11) 0.18912(5) 0.0450 Uani
H3 H 0.0015 0.1871 0.1754 0.0540 Uiso
C7 C 0.08415(12) 0.18388(11) 0.20182(6) 0.0487 Uani
H4 H 0.0953 0.1407 0.1962 0.0580 Uiso
C8 C -0.08284(13) 0.36488(14) 0.19307(7) 0.0831 Uani
C9 C -0.04410(19) 0.42461(14) 0.18277(10) 0.1321 Uani
H5 H -0.0010 0.4235 0.1927 0.1980 Uiso
H6 H -0.0671 0.4640 0.1894 0.1980 Uiso
H7 H -0.0394 0.4246 0.1596 0.1980 Uiso
C10 C -0.15514(15) 0.36042(17) 0.17840(8) 0.1180 Uani
H8 H -0.1527 0.3619 0.1552 0.1770 Uiso
H9 H -0.1811 0.3971 0.1861 0.1770 Uiso
H10 H -0.1755 0.3196 0.1851 0.1770 Uiso
C11 C -0.09274(17) 0.3621(2) 0.23070(8) 0.1427 Uani
H11 H -0.0504 0.3647 0.2412 0.2140 Uiso
H12 H -0.1141 0.3213 0.2365 0.2140 Uiso
H13 H -0.1198 0.3988 0.2375 0.2140 Uiso
C12 C 0.23067(11) 0.17198(10) 0.20588(5) 0.0385 Uani
C13 C 0.25339(12) 0.11217(11) 0.19562(6) 0.0506 Uani
H14 H 0.2429 0.0747 0.2077 0.0610 Uiso
C14 C 0.29080(11) 0.10475(11) 0.16841(6) 0.0506 Uani
H15 H 0.3071 0.0630 0.1631 0.0610 Uiso
C15 C 0.30487(11) 0.15767(11) 0.14866(5) 0.0449 Uani
C16 C 0.28207(12) 0.21901(11) 0.15790(6) 0.0533 Uani
H16 H 0.2914 0.2561 0.1453 0.0640 Uiso
C17 C 0.24544(11) 0.22524(11) 0.18586(5) 0.0466 Uani
H17 H 0.2299 0.2670 0.1916 0.0560 Uiso
C18 C 0.36403(14) 0.09140(13) 0.10211(7) 0.0719 Uani
C19 C 0.41998(14) 0.05879(14) 0.12248(8) 0.0885 Uani
H18 H 0.4031 0.0474 0.1435 0.1330 Uiso
H19 H 0.4561 0.0894 0.1248 0.1330 Uiso
H20 H 0.4353 0.0195 0.1117 0.1330 Uiso
C20 C 0.39141(16) 0.10983(17) 0.06805(7) 0.1037 Uani
H21 H 0.3569 0.1300 0.0554 0.1550 Uiso
H22 H 0.4067 0.0705 0.0573 0.1550 Uiso
H23 H 0.4276 0.1404 0.0704 0.1550 Uiso
C21 C 0.30310(13) 0.04543(14) 0.09803(8) 0.0867 Uani
H24 H 0.2860 0.0339 0.1190 0.1300 Uiso
H25 H 0.3161 0.0059 0.0867 0.1300 Uiso
H26 H 0.2695 0.0680 0.0858 0.1300 Uiso
C22 C 0.22697(10) 0.23057(11) 0.26074(5) 0.0433 Uani
C23 C 0.28938(10) 0.25534(12) 0.25509(6) 0.0572 Uani
H27 H 0.3102 0.2462 0.2355 0.0690 Uiso
C24 C 0.32200(11) 0.29379(13) 0.27807(6) 0.0611 Uani
H28 H 0.3643 0.3096 0.2736 0.0730 Uiso
C25 C 0.29275(12) 0.30888(11) 0.30737(6) 0.0507 Uani
C26 C 0.22906(11) 0.28550(10) 0.31316(6) 0.0487 Uani
H29 H 0.2075 0.2963 0.3324 0.0580 Uiso
C27 C 0.19890(11) 0.24766(11) 0.29120(6) 0.0453 Uani
H30 H 0.1569 0.2314 0.2961 0.0540 Uiso
C28 C 0.39953(13) 0.36896(14) 0.33077(8) 0.0947 Uani
C29 C 0.41277(15) 0.39614(16) 0.36594(7) 0.1023 Uani
H31 H 0.4581 0.4103 0.3677 0.1530 Uiso
H32 H 0.4044 0.3617 0.3815 0.1530 Uiso
H33 H 0.3839 0.4330 0.3701 0.1530 Uiso
C30 C 0.41164(15) 0.42100(15) 0.30459(8) 0.1040 Uani
H34 H 0.4029 0.4021 0.2837 0.1560 Uiso
H35 H 0.4569 0.4356 0.3056 0.1560 Uiso
H36 H 0.3827 0.4581 0.3081 0.1560 Uiso
C31 C 0.44183(16) 0.30541(16) 0.32574(10) 0.1397 Uani
H37 H 0.4343 0.2882 0.3043 0.2100 Uiso
H38 H 0.4294 0.2727 0.3415 0.2100 Uiso
H39 H 0.4879 0.3160 0.3282 0.2100 Uiso
C32 C 0.17194(10) 0.12336(10) 0.25656(5) 0.0369 Uani
C33 C 0.22250(11) 0.08108(11) 0.26691(5) 0.0451 Uani
H40 H 0.2661 0.0908 0.2613 0.0540 Uiso
C34 C 0.20968(11) 0.02523(11) 0.28519(5) 0.0482 Uani
H41 H 0.2441 -0.0032 0.2909 0.0580 Uiso
C35 C 0.14408(12) 0.01131(11) 0.29525(5) 0.0462 Uani
C36 C 0.09438(11) 0.05545(11) 0.28588(6) 0.0520 Uani
H42 H 0.0511 0.0483 0.2929 0.0620 Uiso
C37 C 0.10783(11) 0.10911(10) 0.26659(5) 0.0415 Uani
H43 H 0.0733 0.1366 0.2601 0.0500 Uiso
C38 C 0.06510(12) -0.07788(13) 0.32287(6) 0.0686 Uani
C39 C 0.02831(14) -0.03392(15) 0.34687(7) 0.0883 Uani
H44 H 0.0541 -0.0295 0.3663 0.1330 Uiso
H45 H -0.0138 -0.0536 0.3520 0.1330 Uiso
H46 H 0.0214 0.0090 0.3374 0.1330 Uiso
C40 C 0.02664(14) -0.08712(16) 0.29111(7) 0.1043 Uani
H47 H -0.0158 -0.1066 0.2957 0.1570 Uiso
H48 H 0.0512 -0.1158 0.2769 0.1570 Uiso
H49 H 0.0205 -0.0448 0.2809 0.1570 Uiso
C41 C 0.07676(15) -0.14422(14) 0.33723(7) 0.0913 Uani
H50 H 0.1008 -0.1395 0.3572 0.1370 Uiso
H51 H 0.1020 -0.1708 0.3224 0.1370 Uiso
H52 H 0.0350 -0.1653 0.3414 0.1370 Uiso
C42 C -0.0279(2) 0.3091(2) 0.00223(9) 0.1610 Uani
C43 C -0.04582(15) 0.32095(16) 0.03732(8) 0.0895 Uani
C44 C -0.07079(16) 0.38317(16) 0.04355(8) 0.0950 Uani
H53 H -0.0718 0.4145 0.0270 0.1140 Uiso
C45 C -0.09396(15) 0.39945(15) 0.07347(8) 0.0873 Uani
C46 C -0.1370(2) 0.46690(16) 0.08502(13) 0.2318 Uani
C47 C 0.14899(19) 0.36441(18) 0.12332(11) 0.1370 Uani
C48 C 0.10233(14) 0.31035(14) 0.11646(8) 0.0834 Uani
C49 C 0.12267(15) 0.24859(15) 0.10712(9) 0.0977 Uani
H54 H 0.1676 0.2425 0.1030 0.1170 Uiso
C50 C 0.08327(14) 0.19706(14) 0.10353(7) 0.0731 Uani
C51 C 0.11693(15) 0.13114(18) 0.09570(13) 0.1446 Uani
C52 C 0.3924(2) 0.40819(19) 0.19210(9) 0.1507 Uani
C53 C 0.41373(15) 0.33973(14) 0.18015(8) 0.0877 Uani
C54 C 0.44008(15) 0.29327(14) 0.20153(7) 0.0859 Uani
H55 H 0.4440 0.3036 0.2234 0.1030 Uiso
C55 C 0.45992(15) 0.23354(15) 0.19067(8) 0.0902 Uani
C56 C 0.4797(2) 0.1898(2) 0.21476(12) 0.1607 Uani
C57 C 0.6453(2) 0.35461(19) 0.12984(11) 0.1417 Uani
C58 C 0.59638(15) 0.30708(13) 0.12095(8) 0.0784 Uani
C59 C 0.62018(15) 0.25155(14) 0.11097(9) 0.0943 Uani
H56 H 0.6659 0.2457 0.1113 0.1130 Uiso
C60 C 0.58104(14) 0.20020(14) 0.09982(7) 0.0790 Uani
C61 C 0.6249(2) 0.13551(19) 0.09251(13) 0.3410 Uani
F1 F -0.0741(2) 0.27247(19) -0.01093(6) 0.2731 Uani
F2 F 0.02299(14) 0.2804(2) -0.00206(6) 0.2953 Uani
F3 F -0.02974(16) 0.35808(17) -0.01694(6) 0.2340 Uani
F4 F -0.1952(2) 0.45902(16) 0.08251(15) 0.3503 Uani
F5 F -0.1025(3) 0.49981(12) 0.09690(9) 0.3548 Uani
F6 F -0.1303(2) 0.50210(12) 0.05467(8) 0.2555 Uani
F7 F 0.14136(14) 0.38648(13) 0.15412(8) 0.2313 Uani
F8 F 0.21039(12) 0.35044(12) 0.11837(11) 0.2447 Uani
F9 F 0.14231(13) 0.41599(10) 0.10543(7) 0.1667 Uani
F10 F 0.14173(14) 0.10132(11) 0.12225(8) 0.2112 Uani
F11 F 0.08091(12) 0.08850(11) 0.08530(9) 0.2459 Uani
F12 F 0.17077(12) 0.13858(13) 0.07901(8) 0.2101 Uani
F13 F 0.4247(2) 0.45240(12) 0.18232(8) 0.2811 Uani
F14 F 0.33866(18) 0.43082(18) 0.17919(10) 0.4250 Uani
F15 F 0.3913(2) 0.41458(12) 0.22139(6) 0.2610 Uani
F16 F 0.4381(2) 0.14250(16) 0.22175(9) 0.3060 Uani
F17 F 0.48789(18) 0.20766(16) 0.24564(6) 0.2559 Uani
F18 F 0.52438(16) 0.14853(18) 0.21086(7) 0.2827 Uani
F19 F 0.64594(15) 0.40665(13) 0.10862(9) 0.2351 Uani
F20 F 0.63527(14) 0.38697(14) 0.15580(7) 0.2343 Uani
F21 F 0.70673(11) 0.34277(13) 0.13052(9) 0.2207 Uani
F22 F 0.59825(17) 0.08442(11) 0.09851(8) 0.2265 Uani
F23 F 0.58013(19) 0.11958(14) 0.05789(10) 0.3350 Uani
F24 F 0.66334(13) 0.14508(14) 0.06883(10) 0.2895 Uani
O3C O -0.13109(8) 0.21185(8) 0.10456(4) 0.0684 Uani
O4C O 0.42592(8) 0.31576(8) 0.07710(4) 0.0623 Uani
Mn1B Mn 0.22723(2) 0.45273(2) 0.358270(10) 0.0648 Uani
Mn2B Mn 0.236002(19) -0.05080(2) 0.369728(10) 0.0620 Uani
loop_
_atom_site_aniso_label
_atom_site_aniso_U_11
_atom_site_aniso_U_22
_atom_site_aniso_U_33
_atom_site_aniso_U_23
_atom_site_aniso_U_13
_atom_site_aniso_U_12
Mn1 0.0738(2) 0.0734(3) 0.0473(2) -0.0005(2) -0.0143(2) 0.0126(2)
Mn2 0.0736(2) 0.0630(2) 0.0495(2) 0.0039(2) 0.0155(2) 0.0009(2)
O1 0.0738(10) 0.0778(11) 0.0386(9) -0.0011(9) -0.0185(8) 0.0101(9)
O2 0.0781(11) 0.0645(10) 0.0511(11) 0.0156(9) 0.0167(9) -0.0067(9)
O3 0.0936(12) 0.0689(11) 0.0428(10) -0.0262(9) 0.0019(9) -0.0070(10)
O4 0.0657(10) 0.0692(11) 0.0521(11) 0.0120(9) -0.0063(9) 0.0050(9)
O5 0.1098(14) 0.1178(15) 0.0417(11) 0.0055(11) 0.0012(10) 0.0203(13)
O6 0.1353(15) 0.0773(12) 0.0475(12) 0.0082(10) -0.0165(11) 0.0318(11)
O7 0.1003(14) 0.0741(12) 0.0882(14) -0.0085(11) -0.0104(12) -0.0101(11)
O8 0.0645(11) 0.0712(11) 0.0949(15) -0.0084(11) -0.0015(11) 0.0150(9)
O9 0.1144(14) 0.0787(12) 0.0456(11) -0.0038(10) 0.0192(11) 0.0093(11)
O10 0.1120(14) 0.0979(14) 0.0490(12) -0.0014(10) 0.0032(11) 0.0064(12)
O11 0.0975(14) 0.0833(12) 0.0766(14) -0.0070(11) 0.0064(12) -0.0007(11)
O12 0.0830(12) 0.0791(12) 0.0719(13) 0.0152(10) 0.0276(10) 0.0130(10)
N1 0.0720(13) 0.0779(14) 0.0420(13) -0.0030(11) -0.0073(11) 0.0111(12)
N2 0.0829(14) 0.0497(11) 0.0388(12) -0.0029(10) 0.0058(11) -0.0037(11)
N3 0.0663(13) 0.0668(13) 0.0568(14) -0.0139(12) -0.0104(12) -0.0072(11)
N4 0.0561(11) 0.0628(12) 0.0439(12) 0.0114(11) -0.0126(10) -0.0019(11)
C1 0.0514(14) 0.0400(13) 0.0314(13) -0.0034(11) 0.0004(11) -0.0024(11)
C2 0.0544(13) 0.0435(13) 0.0220(12) 0.0000(10) -0.0020(11) -0.0072(11)
C3 0.0730(16) 0.0486(15) 0.0554(16) -0.0117(13) -0.0204(13) -0.0001(13)
C4 0.0605(15) 0.0501(14) 0.0549(15) -0.0157(12) -0.0248(13) 0.0133(13)
C5 0.0465(13) 0.0634(15) 0.0358(13) 0.0008(12) -0.0044(11) 0.0183(12)
C6 0.0531(14) 0.0482(14) 0.0338(13) 0.0003(11) -0.0169(11) -0.0046(11)
C7 0.0703(16) 0.0377(13) 0.0380(14) 0.0016(11) -0.0061(13) -0.0061(12)
C8 0.0804(17) 0.100(2) 0.069(2) -0.0205(16) -0.0272(15) 0.0527(15)
C9 0.176(3) 0.0552(18) 0.165(4) 0.006(2) -0.023(3) 0.045(2)
C10 0.115(2) 0.150(3) 0.089(3) -0.026(2) -0.022(2) 0.066(2)
C11 0.121(3) 0.247(4) 0.060(2) -0.048(2) -0.006(2) 0.088(3)
C12 0.0499(13) 0.0375(12) 0.0281(12) 0.0000(10) -0.0030(11) -0.0018(11)
C13 0.0744(16) 0.0350(12) 0.0425(15) -0.0015(11) 0.0062(13) -0.0110(12)
C14 0.0658(15) 0.0420(13) 0.0440(15) -0.0089(12) 0.0089(13) 0.0010(12)
C15 0.0559(14) 0.0532(14) 0.0255(13) -0.0041(11) 0.0030(11) -0.0059(12)
C16 0.0756(17) 0.0499(14) 0.0345(14) 0.0032(12) 0.0027(13) 0.0036(13)
C17 0.0611(15) 0.0391(12) 0.0397(14) -0.0061(11) 0.0046(12) -0.0015(12)
C18 0.0888(19) 0.0805(18) 0.0464(17) -0.0162(15) 0.0123(15) -0.0008(16)
C19 0.0795(19) 0.092(2) 0.094(2) -0.007(2) 0.0084(18) 0.0149(18)
C20 0.114(2) 0.135(3) 0.062(2) -0.025(2) 0.0301(19) -0.010(2)
C21 0.090(2) 0.091(2) 0.079(2) -0.0258(18) -0.0093(17) -0.0088(18)
C22 0.0457(13) 0.0490(13) 0.0352(12) 0.0006(11) -0.0065(11) -0.0029(12)
C23 0.0423(14) 0.0860(18) 0.0432(15) -0.0060(14) 0.0074(12) -0.0125(13)
C24 0.0448(14) 0.0840(17) 0.0546(16) -0.0294(14) 0.0056(13) -0.0269(13)
C25 0.0609(15) 0.0489(14) 0.0424(15) -0.0142(12) -0.0128(12) -0.0053(12)
C26 0.0524(14) 0.0548(14) 0.0388(14) -0.0100(12) 0.0101(12) -0.0052(13)
C27 0.0391(12) 0.0572(15) 0.0397(14) -0.0020(12) 0.0015(11) -0.0077(12)
C28 0.0610(17) 0.102(2) 0.121(2) -0.0656(17) -0.0365(17) 0.0053(16)
C29 0.099(2) 0.115(2) 0.093(2) -0.029(2) -0.0401(19) -0.011(2)
C30 0.119(2) 0.097(2) 0.096(3) -0.006(2) 0.013(2) -0.0575(18)
C31 0.080(2) 0.116(2) 0.223(4) -0.081(2) -0.054(2) 0.020(2)
C32 0.0524(13) 0.0363(12) 0.0219(11) -0.0080(10) -0.0047(10) -0.0044(11)
C33 0.0377(12) 0.0613(14) 0.0362(13) 0.0104(12) -0.0065(11) 0.0019(12)
C34 0.0448(13) 0.0605(15) 0.0393(14) 0.0052(12) -0.0095(11) 0.0082(11)
C35 0.0620(15) 0.0503(14) 0.0264(12) 0.0009(11) -0.0046(12) -0.0056(12)
C36 0.0441(13) 0.0662(16) 0.0457(15) 0.0095(13) 0.0020(12) 0.0049(13)
C37 0.0402(13) 0.0461(13) 0.0383(14) 0.0047(11) -0.0003(11) 0.0061(11)
C38 0.0610(16) 0.0819(17) 0.0629(18) 0.0370(14) -0.0042(14) -0.0191(14)
C39 0.0770(19) 0.123(2) 0.065(2) 0.0179(18) 0.0239(16) -0.0144(18)
C40 0.103(2) 0.138(2) 0.072(2) 0.0433(18) -0.0417(17) -0.0664(18)
C41 0.099(2) 0.092(2) 0.083(2) 0.0373(18) -0.0070(19) -0.0216(18)
C42 0.208(4) 0.209(4) 0.066(2) 0.012(3) 0.061(3) 0.041(3)
C43 0.0754(19) 0.120(2) 0.073(2) -0.0127(19) 0.0069(18) -0.0167(19)
C44 0.115(2) 0.099(2) 0.071(2) 0.0128(19) 0.001(2) -0.018(2)
C45 0.104(2) 0.083(2) 0.075(2) 0.0061(17) -0.0418(18) -0.0060(18)
C46 0.270(4) 0.0395(18) 0.386(5) 0.059(3) -0.232(3) -0.025(2)
C47 0.107(3) 0.115(3) 0.189(5) 0.029(3) -0.007(3) 0.006(2)
C48 0.0683(18) 0.090(2) 0.092(2) 0.0154(18) -0.0018(18) -0.0228(17)
C49 0.0760(19) 0.084(2) 0.133(3) 0.006(2) 0.009(2) 0.0189(17)
C50 0.0662(17) 0.0780(18) 0.075(2) -0.0124(16) 0.0023(16) 0.0041(16)
C51 0.0507(19) 0.104(3) 0.279(6) -0.020(3) 0.010(3) 0.0057(19)
C52 0.271(5) 0.107(3) 0.074(2) 0.004(2) 0.069(3) 0.006(3)
C53 0.103(2) 0.080(2) 0.080(2) -0.0239(17) 0.0327(18) -0.0137(17)
C54 0.116(2) 0.091(2) 0.0506(18) 0.0197(16) -0.0075(18) 0.001(2)
C55 0.0856(19) 0.092(2) 0.093(2) 0.0453(18) -0.0093(18) 0.0171(18)
C56 0.176(4) 0.168(4) 0.138(4) -0.018(3) 0.001(3) 0.034(3)
C57 0.135(3) 0.116(3) 0.174(4) -0.020(3) -0.034(3) 0.002(3)
C58 0.097(2) 0.0601(16) 0.078(2) -0.0009(16) 0.0006(18) -0.0102(17)
C59 0.0687(19) 0.0713(19) 0.143(3) 0.008(2) -0.006(2) -0.0117(16)
C60 0.0789(18) 0.0850(19) 0.073(2) 0.0137(16) 0.0236(16) 0.0328(16)
C61 0.445(4) 0.088(2) 0.490(4) -0.119(3) 0.421(3) -0.104(3)
F1 0.386(4) 0.352(4) 0.0813(19) -0.084(2) 0.009(2) -0.020(4)
F2 0.249(2) 0.549(5) 0.0878(18) 0.007(2) 0.0602(16) 0.230(2)
F3 0.290(3) 0.318(3) 0.0939(16) 0.0895(18) 0.0775(18) 0.049(3)
F4 0.289(4) 0.148(2) 0.614(9) -0.039(4) 0.000(5) 0.068(3)
F5 0.696(7) 0.0973(16) 0.271(3) -0.0821(19) -0.231(4) 0.094(3)
F6 0.426(4) 0.1376(18) 0.203(3) 0.0627(19) 0.002(3) 0.105(2)
F7 0.271(2) 0.225(2) 0.198(3) -0.003(2) -0.042(2) -0.1638(17)
F8 0.1243(19) 0.1238(17) 0.486(6) 0.029(3) -0.016(3) -0.0287(16)
F9 0.196(2) 0.0850(12) 0.219(3) 0.0494(15) -0.021(2) -0.0300(14)
F10 0.214(2) 0.1345(16) 0.285(3) 0.063(2) -0.035(2) 0.0676(16)
F11 0.1481(18) 0.1346(15) 0.455(4) -0.1563(19) -0.073(2) 0.0632(14)
F12 0.1773(19) 0.168(2) 0.285(3) 0.025(2) 0.106(2) 0.0682(16)
F13 0.522(5) 0.0844(16) 0.237(3) 0.0116(19) 0.172(3) 0.024(3)
F14 0.438(3) 0.520(3) 0.317(4) -0.265(2) -0.144(3) 0.380(2)
F15 0.545(5) 0.1418(18) 0.0961(18) -0.0397(15) 0.054(2) 0.089(3)
F16 0.393(5) 0.263(3) 0.262(3) 0.183(2) -0.053(3) -0.014(3)
F17 0.448(4) 0.234(3) 0.0858(18) 0.0087(18) -0.081(2) 0.114(3)
F18 0.339(3) 0.387(3) 0.122(2) 0.083(2) 0.013(2) 0.233(2)
F19 0.235(2) 0.1704(19) 0.300(4) 0.016(2) -0.045(3) -0.1090(18)
F20 0.228(2) 0.278(2) 0.197(3) -0.1306(19) 0.031(2) -0.1338(19)
F21 0.0930(16) 0.197(2) 0.372(4) -0.091(3) -0.049(2) 0.0023(17)
F22 0.359(3) 0.0876(14) 0.233(3) 0.0533(16) 0.118(3) 0.0576(19)
F23 0.394(3) 0.196(2) 0.415(4) -0.095(2) 0.154(3) 0.147(2)
F24 0.1786(19) 0.168(2) 0.522(4) -0.107(3) 0.199(2) -0.0046(18)
O3C 0.0689 0.0936 0.0428 -0.0019 -0.0262 0.007
O4C 0.0692 0.0657 0.0521 0.0063 0.012 -0.005
Mn1B 0.0734 0.0738 0.0473 -0.0143 0.0005 -0.0126
Mn2B 0.063 0.0736 0.0495 0.0155 -0.0039 -0.0009
loop_
_geom_bond_atom_site_label_1
_geom_bond_atom_site_label_2
_geom_bond_site_symmetry_1
_geom_bond_site_symmetry_2
Mn1 O1 1_555 1_555
Mn2 O2 1_555 1_555
O1 N1 1_555 1_555
O2 N2 1_555 1_555
O3 N3 1_555 1_555
O4 N4 1_555 1_555
O5 Mn1 1_555 1_555
O6 Mn1 1_555 1_555
O7 Mn1 1_555 1_555
O8 Mn1 1_555 1_555
O9 Mn2 1_555 1_555
O10 Mn2 1_555 1_555
O11 Mn2 1_555 1_555
O12 Mn2 1_555 1_555
N1 C5 1_555 1_555
N2 C15 1_555 1_555
N3 C25 1_555 1_555
N4 C35 1_555 1_555
C1 C2 1_555 1_555
C2 C3 1_555 1_555
C3 H1 1_555 1_555
C4 C3 1_555 1_555
H2 C4 1_555 1_555
C5 C4 1_555 1_555
C6 C5 1_555 1_555
H3 C6 1_555 1_555
C7 C2 1_555 1_555
H4 C7 1_555 1_555
C8 N1 1_555 1_555
C9 C8 1_555 1_555
H5 C9 1_555 1_555
H6 C9 1_555 1_555
H7 C9 1_555 1_555
C10 C8 1_555 1_555
H8 C10 1_555 1_555
H9 C10 1_555 1_555
H10 C10 1_555 1_555
C11 C8 1_555 1_555
H11 C11 1_555 1_555
H12 C11 1_555 1_555
H13 C11 1_555 1_555
C12 C1 1_555 1_555
C13 C12 1_555 1_555
H14 C13 1_555 1_555
C14 C13 1_555 1_555
H15 C14 1_555 1_555
C15 C14 1_555 1_555
C16 C15 1_555 1_555
H16 C16 1_555 1_555
C17 C12 1_555 1_555
H17 C17 1_555 1_555
C18 N2 1_555 1_555
C19 C18 1_555 1_555
H18 C19 1_555 1_555
H19 C19 1_555 1_555
H20 C19 1_555 1_555
C20 C18 1_555 1_555
H21 C20 1_555 1_555
H22 C20 1_555 1_555
H23 C20 1_555 1_555
C21 C18 1_555 1_555
H24 C21 1_555 1_555
H25 C21 1_555 1_555
H26 C21 1_555 1_555
C22 C1 1_555 1_555
C23 C22 1_555 1_555
H27 C23 1_555 1_555
C24 C23 1_555 1_555
H28 C24 1_555 1_555
C25 C24 1_555 1_555
C26 C25 1_555 1_555
H29 C26 1_555 1_555
C27 C22 1_555 1_555
H30 C27 1_555 1_555
C28 N3 1_555 1_555
C29 C28 1_555 1_555
H31 C29 1_555 1_555
H32 C29 1_555 1_555
H33 C29 1_555 1_555
C30 C28 1_555 1_555
H34 C30 1_555 1_555
H35 C30 1_555 1_555
H36 C30 1_555 1_555
C31 C28 1_555 1_555
H37 C31 1_555 1_555
H38 C31 1_555 1_555
H39 C31 1_555 1_555
C32 C1 1_555 1_555
C33 C32 1_555 1_555
H40 C33 1_555 1_555
C34 C33 1_555 1_555
H41 C34 1_555 1_555
C35 C34 1_555 1_555
C36 C35 1_555 1_555
H42 C36 1_555 1_555
C37 C32 1_555 1_555
H43 C37 1_555 1_555
C38 N4 1_555 1_555
C39 C38 1_555 1_555
H44 C39 1_555 1_555
H45 C39 1_555 1_555
H46 C39 1_555 1_555
C40 C38 1_555 1_555
H47 C40 1_555 1_555
H48 C40 1_555 1_555
H49 C40 1_555 1_555
C41 C38 1_555 1_555
H50 C41 1_555 1_555
H51 C41 1_555 1_555
H52 C41 1_555 1_555
C42 C43 1_555 1_555
C43 O5 1_555 1_555
C44 C43 1_555 1_555
H53 C44 1_555 1_555
C45 O6 1_555 1_555
C46 C45 1_555 1_555
C47 C48 1_555 1_555
C48 O7 1_555 1_555
C49 C48 1_555 1_555
H54 C49 1_555 1_555
C50 O8 1_555 1_555
C51 C50 1_555 1_555
C52 C53 1_555 1_555
C53 O9 1_555 1_555
C54 C53 1_555 1_555
H55 C54 1_555 1_555
C55 O10 1_555 1_555
C56 C55 1_555 1_555
C57 C58 1_555 1_555
C58 O11 1_555 1_555
C59 C58 1_555 1_555
H56 C59 1_555 1_555
C60 O12 1_555 1_555
C61 C60 1_555 1_555
F1 C42 1_555 1_555
F2 C42 1_555 1_555
F3 C42 1_555 1_555
F4 C46 1_555 1_555
F5 C46 1_555 1_555
F6 C46 1_555 1_555
F7 C47 1_555 1_555
F8 C47 1_555 1_555
F9 C47 1_555 1_555
F10 C51 1_555 1_555
F11 C51 1_555 1_555
F12 C51 1_555 1_555
F13 C52 1_555 1_555
F14 C52 1_555 1_555
F15 C52 1_555 1_555
F16 C56 1_555 1_555
F17 C56 1_555 1_555
F18 C56 1_555 1_555
F19 C57 1_555 1_555
F20 C57 1_555 1_555
F21 C57 1_555 1_555
F22 C61 1_555 1_555
F23 C61 1_555 1_555
F24 C61 1_555 1_555
O3C Mn1 1_555 1_555
O4C Mn2 1_555 1_555
Mn1B O3 1_555 1_555
Mn2B O4 1_555 1_555
C6 C7 1_555 1_555
C16 C17 1_555 1_555
C26 C27 1_555 1_555
C36 C37 1_555 1_555
C44 C45 1_555 1_555
C49 C50 1_555 1_555
C54 C55 1_555 1_555
C59 C60 1_555 1_555

#END
