
#######################################################################
#
#                 Cambridge Crystallographic Data Centre
#                                CCDC 
#
#######################################################################
#
# If this CIF has been generated from an entry in the Cambridge 
# Structural Database, then it will include bibliographic, chemical, 
# crystal, experimental, refinement or atomic coordinate data resulting 
# from the CCDC's data processing and validation procedures.
#
#######################################################################

data_OVICUS
_chemical_formula_moiety         '(C12 H8 N2 O5 S2 Zn1)n'
_symmetry_cell_setting           monoclinic
_symmetry_space_group_name_H-M   'C 2/c'
_symmetry_Int_Tables_number      15
_space_group_name_Hall           '-C 2yc'
loop_
_symmetry_equiv_pos_site_id
_symmetry_equiv_pos_as_xyz
1 x,y,z
2 -x,y,1/2-z
3 1/2+x,1/2+y,z
4 1/2-x,1/2+y,1/2-z
5 -x,-y,-z
6 x,-y,1/2+z
7 1/2-x,1/2-y,-z
8 1/2+x,1/2-y,1/2+z
_cell_length_a                   21.989(8)
_cell_length_b                   13.251(5)
_cell_length_c                   11.174(4)
_cell_angle_alpha                90
_cell_angle_beta                 97.150(5)
_cell_angle_gamma                90
_cell_volume                     3230.52
loop_
_atom_site_label
_atom_site_type_symbol
_atom_site_fract_x
_atom_site_fract_y
_atom_site_fract_z
_atom_site_U_iso_or_equiv
_atom_site_thermal_displace_type
Zn1 Zn 0.76260(4) -0.26419(5) 0.13439(6) 0.0317 Uani
C1 C 0.7253(3) -0.0647(5) 0.0452(6) 0.0371 Uani
C2 C 0.7108(3) 0.0441(5) 0.0600(6) 0.0352 Uani
C3 C 0.7250(3) 0.0909(5) 0.1703(6) 0.0321 Uani
H1 H 0.7436 0.0531 0.2349 0.0390 Uiso
C4 C 0.6834(4) 0.1011(5) -0.0351(6) 0.0425 Uani
H2 H 0.6742 0.0720 -0.1109 0.0510 Uiso
C5 C 0.6694(4) 0.2006(6) -0.0180(6) 0.0475 Uani
H3 H 0.6501 0.2391 -0.0811 0.0570 Uiso
C6 C 0.6849(3) 0.2424(5) 0.0953(6) 0.0343 Uani
C7 C 0.5461(3) 0.3814(5) -0.0120(6) 0.0383 Uani
N1 N 0.5087(4) 0.3962(8) -0.1103(6) 0.0742 Uani
C8 C 0.4482(4) 0.3699(9) -0.1118(8) 0.0655 Uani
H4 H 0.4210 0.3826 -0.1807 0.0790 Uiso
C9 C 0.4268(4) 0.3253(5) -0.0136(7) 0.0430 Uani
C10 C 0.4691(5) 0.3115(9) 0.0836(11) 0.0790 Uani
H5 H 0.4567 0.2841 0.1533 0.0950 Uiso
C11 C 0.3618(4) 0.2981(6) -0.0142(7) 0.0417 Uani
N2 N 0.7131(3) 0.1892(4) 0.1883(5) 0.0323 Uani
C12 C 0.5294(4) 0.3364(8) 0.0835(9) 0.0763 Uani
H6 H 0.5580 0.3218 0.1497 0.0920 Uiso
O1 O 0.3272(3) 0.3002(5) -0.1134(5) 0.0552 Uani
O2 O 0.3452(3) 0.2749(4) 0.0858(5) 0.0555 Uani
O3 O 0.7221(3) -0.0965(4) -0.0609(4) 0.0524 Uani
O4 O 0.7392(3) -0.1170(4) 0.1383(4) 0.0449 Uani
S1 S 0.62237(9) 0.42394(13) -0.02025(17) 0.0415 Uani
S2 S 0.67032(9) 0.37019(13) 0.13169(16) 0.0403 Uani
Zn1C Zn 0.73740(4) 0.23581(5) 0.36561(6) 0.0317 Uani
Zn1D Zn 0.23740(4) 0.26419(5) -0.13439(6) 0.0317 Uani
Zn1B Zn 0.26260(4) 0.23581(5) 0.13439(6) 0.0317 Uani
Zn1F Zn 0.73740(4) -0.23581(5) -0.13439(6) 0.0317 Uani
N2C N 0.7869(3) -0.3108(4) 0.3117(5) 0.0323 Uani
O1D O 0.6728(3) -0.3002(5) 0.1134(5) 0.0552 Uani
O2B O 0.8452(3) -0.2251(4) 0.0858(5) 0.0555 Uani
O3F O 0.7779(3) -0.4035(4) 0.0609(4) 0.0524 Uani
O5 O 0.521(3) 0.950(4) 0.165(6) 0.6300 Uani
loop_
_atom_site_aniso_label
_atom_site_aniso_U_11
_atom_site_aniso_U_22
_atom_site_aniso_U_33
_atom_site_aniso_U_23
_atom_site_aniso_U_13
_atom_site_aniso_U_12
Zn1 0.0546(6) 0.0194(5) 0.0184(5) 0.0007(3) -0.0064(3) 0.0014(3)
C1 0.057(4) 0.023(3) 0.028(4) -0.001(3) -0.008(3) 0.000(3)
C2 0.052(4) 0.026(3) 0.025(3) 0.000(3) -0.005(3) 0.000(3)
C3 0.050(4) 0.020(3) 0.024(3) 0.002(2) -0.005(3) 0.007(3)
C4 0.072(5) 0.024(4) 0.026(3) -0.003(3) -0.016(3) 0.002(3)
C5 0.079(6) 0.032(4) 0.025(4) 0.000(3) -0.019(4) 0.016(4)
C6 0.053(4) 0.022(3) 0.024(3) 0.000(2) -0.011(3) 0.002(3)
C7 0.043(4) 0.032(4) 0.037(4) 0.000(3) -0.006(3) 0.003(3)
N1 0.076(6) 0.112(7) 0.032(4) -0.008(4) -0.004(4) -0.011(5)
C8 0.054(5) 0.108(8) 0.034(4) -0.017(5) 0.003(4) -0.022(5)
C9 0.058(5) 0.029(4) 0.041(4) -0.004(3) 0.002(3) 0.002(3)
C10 0.064(6) 0.082(8) 0.083(7) 0.049(6) -0.022(5) -0.019(5)
C11 0.052(4) 0.028(4) 0.043(4) -0.002(3) -0.002(4) 0.002(3)
N2 0.050(3) 0.023(3) 0.021(3) -0.003(2) -0.007(2) -0.001(2)
C12 0.049(5) 0.097(8) 0.074(7) 0.053(6) -0.028(5) -0.018(5)
O1 0.054(3) 0.061(4) 0.048(3) 0.005(3) -0.004(3) -0.006(3)
O2 0.068(4) 0.054(4) 0.043(3) -0.002(3) 0.001(3) -0.001(3)
O3 0.109(5) 0.026(3) 0.020(2) -0.005(2) -0.001(3) 0.008(3)
O4 0.080(4) 0.023(2) 0.028(3) -0.0023(19) -0.008(2) 0.011(2)
S1 0.0554(12) 0.0281(10) 0.0376(10) 0.0095(7) -0.0081(8) 0.0016(8)
S2 0.0596(12) 0.0243(9) 0.0318(9) -0.0032(7) -0.0147(8) 0.0078(8)
Zn1C 0.0546 0.0194 0.0184 -0.0007 -0.0064 -0.0014
Zn1D 0.0546 0.0194 0.0184 0.0007 -0.0064 0.0014
Zn1B 0.0546 0.0194 0.0184 0.0007 -0.0064 0.0014
Zn1F 0.0546 0.0194 0.0184 0.0007 -0.0064 0.0014
N2C 0.05 0.023 0.021 0.003 -0.007 0.001
O1D 0.054 0.061 0.048 0.005 -0.004 -0.006
O2B 0.068 0.054 0.043 -0.002 0.001 -0.001
O3F 0.109 0.026 0.02 -0.005 -0.001 0.008
O5 0.63(3) 0.63(3) 0.63(3) -0.0001(10) 0.078(3) 0.0000(10)
loop_
_geom_bond_atom_site_label_1
_geom_bond_atom_site_label_2
_geom_bond_site_symmetry_1
_geom_bond_site_symmetry_2
Zn1 O4 1_555 1_555
C1 C2 1_555 1_555
C2 C3 1_555 1_555
C3 H1 1_555 1_555
C4 C2 1_555 1_555
H2 C4 1_555 1_555
C5 C4 1_555 1_555
H3 C5 1_555 1_555
C6 C5 1_555 1_555
C7 N1 1_555 1_555
N1 C8 1_555 1_555
C8 H4 1_555 1_555
C9 C8 1_555 1_555
C10 C9 1_555 1_555
H5 C10 1_555 1_555
C11 C9 1_555 1_555
N2 C3 1_555 1_555
C12 C7 1_555 1_555
H6 C12 1_555 1_555
O1 C11 1_555 1_555
O2 C11 1_555 1_555
O3 C1 1_555 1_555
O4 C1 1_555 1_555
S1 C7 1_555 1_555
S2 C6 1_555 1_555
Zn1C N2 1_555 1_555
Zn1D O1 1_555 1_555
Zn1B O2 1_555 1_555
Zn1F O3 1_555 1_555
N2C Zn1 1_555 1_555
O1D Zn1 1_555 1_555
O2B Zn1 1_555 1_555
O3F Zn1 1_555 1_555
C6 N2 1_555 1_555
C10 C12 1_555 1_555
S1 S2 1_555 1_555

#END
