
#######################################################################
#
#                 Cambridge Crystallographic Data Centre
#                                CCDC 
#
#######################################################################
#
# If this CIF has been generated from an entry in the Cambridge 
# Structural Database, then it will include bibliographic, chemical, 
# crystal, experimental, refinement or atomic coordinate data resulting 
# from the CCDC's data processing and validation procedures.
#
#######################################################################

data_INIGOD
_chemical_formula_moiety         '(C46 H48 N4 O9 S2 Zn1)n'
_symmetry_cell_setting           cubic
_symmetry_space_group_name_H-M   'I a -3 d'
_symmetry_Int_Tables_number      230
_space_group_name_Hall           '-I 4bd 2c 3'
loop_
_symmetry_equiv_pos_site_id
_symmetry_equiv_pos_as_xyz
1 x,y,z
2 1/2-x,-y,1/2+z
3 -x,1/2+y,1/2-z
4 1/2+x,1/2-y,-z
5 z,x,y
6 1/2+z,1/2-x,-y
7 1/2-z,-x,1/2+y
8 -z,1/2+x,1/2-y
9 y,z,x
10 -y,1/2+z,1/2-x
11 1/2+y,1/2-z,-x
12 1/2-y,-z,1/2+x
13 3/4+y,1/4+x,1/4-z
14 3/4-y,3/4-x,3/4-z
15 1/4+y,1/4-x,3/4+z
16 1/4-y,3/4+x,1/4+z
17 3/4+x,1/4+z,1/4-y
18 1/4-x,3/4+z,1/4+y
19 3/4-x,3/4-z,3/4-y
20 1/4+x,1/4-z,3/4+y
21 3/4+z,1/4+y,1/4-x
22 1/4+z,1/4-y,3/4+x
23 1/4-z,3/4+y,1/4+x
24 3/4-z,3/4-y,3/4-x
25 1/2+x,1/2+y,1/2+z
26 -x,1/2-y,z
27 1/2-x,y,-z
28 x,-y,1/2-z
29 1/2+z,1/2+x,1/2+y
30 z,-x,1/2-y
31 -z,1/2-x,y
32 1/2-z,x,-y
33 1/2+y,1/2+z,1/2+x
34 1/2-y,z,-x
35 y,-z,1/2-x
36 -y,1/2-z,x
37 1/4+y,3/4+x,3/4-z
38 1/4-y,1/4-x,1/4-z
39 3/4+y,3/4-x,1/4+z
40 3/4-y,1/4+x,3/4+z
41 1/4+x,3/4+z,3/4-y
42 3/4-x,1/4+z,3/4+y
43 1/4-x,1/4-z,1/4-y
44 3/4+x,3/4-z,1/4+y
45 1/4+z,3/4+y,3/4-x
46 3/4+z,3/4-y,1/4+x
47 3/4-z,1/4+y,3/4+x
48 1/4-z,1/4-y,1/4-x
49 -x,-y,-z
50 1/2+x,y,1/2-z
51 x,1/2-y,1/2+z
52 1/2-x,1/2+y,z
53 -z,-x,-y
54 1/2-z,1/2+x,y
55 1/2+z,x,1/2-y
56 z,1/2-x,1/2+y
57 -y,-z,-x
58 y,1/2-z,1/2+x
59 1/2-y,1/2+z,x
60 1/2+y,z,1/2-x
61 1/4-y,3/4-x,3/4+z
62 1/4+y,1/4+x,1/4+z
63 3/4-y,3/4+x,1/4-z
64 3/4+y,1/4-x,3/4-z
65 1/4-x,3/4-z,3/4+y
66 3/4+x,1/4-z,3/4-y
67 1/4+x,1/4+z,1/4+y
68 3/4-x,3/4+z,1/4-y
69 1/4-z,3/4-y,3/4+x
70 3/4-z,3/4+y,1/4-x
71 3/4+z,1/4-y,3/4-x
72 1/4+z,1/4+y,1/4+x
73 1/2-x,1/2-y,1/2-z
74 x,1/2+y,-z
75 1/2+x,-y,z
76 -x,y,1/2+z
77 1/2-z,1/2-x,1/2-y
78 -z,x,1/2+y
79 z,1/2+x,-y
80 1/2+z,-x,y
81 1/2-y,1/2-z,1/2-x
82 1/2+y,-z,x
83 -y,z,1/2+x
84 y,1/2+z,-x
85 3/4-y,1/4-x,1/4+z
86 3/4+y,3/4+x,3/4+z
87 1/4-y,1/4+x,3/4-z
88 1/4+y,3/4-x,1/4-z
89 3/4-x,1/4-z,1/4+y
90 1/4+x,3/4-z,1/4-y
91 3/4+x,3/4+z,3/4+y
92 1/4-x,1/4+z,3/4-y
93 3/4-z,1/4-y,1/4+x
94 1/4-z,1/4+y,3/4-x
95 1/4+z,3/4-y,1/4-x
96 3/4+z,3/4+y,3/4+x
_cell_length_a                   42.5590(2)
_cell_length_b                   42.5590(2)
_cell_length_c                   42.5590(2)
_cell_angle_alpha                90
_cell_angle_beta                 90
_cell_angle_gamma                90
_cell_volume                     77085.8
loop_
_atom_site_label
_atom_site_type_symbol
_atom_site_fract_x
_atom_site_fract_y
_atom_site_fract_z
_atom_site_U_iso_or_equiv
_atom_site_thermal_displace_type
Zn1 Zn 0.35920(2) 0.89080(2) 0.1250 0.0652 Uani
C1 C 0.38171(11) 0.86480(11) -0.05009(11) 0.0753 Uani
C2 C 0.38794(10) 0.86715(10) -0.01579(10) 0.0680 Uani
C3 C 0.41473(11) 0.88770(12) -0.00572(10) 0.0823 Uani
H1 H 0.4322 0.8849 -0.0197 0.0990 Uiso
H2 H 0.4212 0.8819 0.0151 0.0990 Uiso
C4 C 0.4044(3) 0.92172(16) -0.0062(2) 0.0913 Uani
C5 C 0.3759(4) 0.9335(3) -0.0007(4) 0.0980 Uani
H3 H 0.3585 0.9212 0.0043 0.1170 Uiso
C6 C 0.3750(3) 0.9683(2) -0.0033(5) 0.1290 Uani
H4 H 0.3571 0.9804 -0.0002 0.1550 Uiso
C7 C 0.4028(3) 0.9802(3) -0.0107(4) 0.2187 Uani
H5 H 0.4067 1.0015 -0.0135 0.2610 Uiso
S1 S 0.43055(15) 0.95123(15) -0.0146(2) 0.1987 Uani
C8 C 0.36982(9) 0.85007(9) 0.00348(10) 0.0650 Uani
H6 H 0.3554 0.8368 -0.0062 0.0780 Uiso
C9 C 0.36984(9) 0.84969(9) 0.03736(10) 0.0630 Uani
C10 C 0.37629(10) 0.87212(9) 0.05945(9) 0.0650 Uani
H7 H 0.3845 0.8919 0.0551 0.0780 Uiso
C11 C 0.35754(10) 0.83201(10) 0.08540(10) 0.0683 Uani
C12 C 0.34240(11) 0.79624(9) 0.04170(12) 0.0750 Uani
C13 C 0.30717(11) 0.80104(9) 0.04071(11) 0.0716 Uani
C14 C 0.29374(10) 0.83087(8) 0.04111(10) 0.0641 Uani
H8 H 0.3067 0.8485 0.0412 0.0770 Uiso
C15 C 0.26170(10) 0.83461(8) 0.04139(9) 0.0644 Uani
H9 H 0.2531 0.8547 0.0417 0.0770 Uiso
C16 C 0.24216(11) 0.80872(9) 0.04117(12) 0.0773 Uani
C17 C 0.25536(13) 0.77899(10) 0.03988(16) 0.1037 Uani
H10 H 0.2424 0.7614 0.0389 0.1250 Uiso
C18 C 0.28732(12) 0.77529(10) 0.04004(16) 0.1027 Uani
H11 H 0.2958 0.7552 0.0397 0.1230 Uiso
C19 C 0.20775(11) 0.81265(10) 0.04316(13) 0.0823 Uani
C20 C 0.34718(12) 0.81112(11) 0.11148(11) 0.0827 Uani
H12 H 0.3291 0.7993 0.1048 0.0990 Uiso
H13 H 0.3411 0.8238 0.1291 0.0990 Uiso
C21 C 0.3737(3) 0.7880(3) 0.1210(3) 0.1103 Uani
H14 H 0.3923 0.7996 0.1273 0.1320 Uiso
H15 H 0.3792 0.7747 0.1033 0.1320 Uiso
C22 C 0.3617(4) 0.7676(3) 0.1487(3) 0.1480 Uani
H16 H 0.3411 0.7593 0.1436 0.1780 Uiso
H17 H 0.3758 0.7499 0.1517 0.1780 Uiso
C23 C 0.3597(7) 0.7864(5) 0.1794(3) 0.2617 Uani
H18 H 0.3523 0.7731 0.1960 0.3900 Uiso
H19 H 0.3802 0.7943 0.1847 0.3900 Uiso
H20 H 0.3455 0.8037 0.1767 0.3900 Uiso
N1 N 0.36888(8) 0.86119(8) 0.08910(8) 0.0671 Uani
N2 N 0.35794(8) 0.82414(7) 0.05469(8) 0.0662 Uani
O1 O 0.40084(8) 0.87671(8) -0.06940(7) 0.0839 Uani
O2 O 0.35741(7) 0.85118(8) -0.06055(7) 0.0785 Uani
O3 O 0.19883(8) 0.84183(6) 0.04485(8) 0.0721 Uani
H21 H 0.1804(10) 0.8474(9) 0.0481(9) 0.0550 Uiso
O4 O 0.18897(9) 0.79078(8) 0.04289(13) 0.1200 Uani
C1KA C 0.38520(11) 0.86829(11) 0.30009(11) 0.0753 Uani
C2KA C 0.38285(10) 0.86206(10) 0.26579(10) 0.0680 Uani
C3KA C 0.36230(12) 0.83527(11) 0.25572(10) 0.0823 Uani
H1KA H 0.3651 0.8178 0.2697 0.0990 Uiso
H2KA H 0.3681 0.8288 0.2349 0.0990 Uiso
C4KA C 0.32828(16) 0.8456(3) 0.2562(2) 0.0913 Uani
C5KA C 0.3165(3) 0.8741(4) 0.2507(4) 0.0980 Uani
H3KA H 0.3288 0.8915 0.2457 0.1170 Uiso
C6KA C 0.2817(2) 0.8750(3) 0.2533(5) 0.1290 Uani
H4KA H 0.2696 0.8929 0.2502 0.1550 Uiso
C7KA C 0.2698(3) 0.8472(3) 0.2607(4) 0.2187 Uani
H5KA H 0.2485 0.8433 0.2635 0.2610 Uiso
S1KA S 0.29877(15) 0.81945(15) 0.2646(2) 0.1987 Uani
C8KA C 0.39993(9) 0.88018(9) 0.24652(10) 0.0650 Uani
H6KA H 0.4132 0.8946 0.2562 0.0780 Uiso
C9KA C 0.40031(9) 0.88016(9) 0.21264(10) 0.0630 Uani
C10KA C 0.37788(9) 0.87371(10) 0.19055(9) 0.0650 Uani
H7KA H 0.3581 0.8655 0.1949 0.0780 Uiso
C11KA C 0.41799(10) 0.89246(10) 0.16460(10) 0.0683 Uani
C12KA C 0.45376(9) 0.90760(11) 0.20830(12) 0.0750 Uani
C13KA C 0.44896(9) 0.94283(11) 0.20929(11) 0.0716 Uani
C14KA C 0.41913(8) 0.95626(10) 0.20889(10) 0.0641 Uani
H8KA H 0.4015 0.9433 0.2088 0.0770 Uiso
C15KA C 0.41539(8) 0.98830(10) 0.20861(9) 0.0644 Uani
H9KA H 0.3953 0.9969 0.2083 0.0770 Uiso
C16KA C 0.44128(9) 1.00784(11) 0.20883(12) 0.0773 Uani
C17KA C 0.47101(10) 0.99464(13) 0.21012(16) 0.1037 Uani
H10KA H 0.4886 1.0076 0.2111 0.1250 Uiso
C18KA C 0.47471(10) 0.96268(12) 0.20996(16) 0.1027 Uani
H11KA H 0.4948 0.9542 0.2103 0.1230 Uiso
C19KA C 0.43735(10) 1.04225(11) 0.20684(13) 0.0823 Uani
C20KA C 0.43888(11) 0.90282(12) 0.13852(11) 0.0827 Uani
H12KA H 0.4507 0.9209 0.1452 0.0990 Uiso
H13KA H 0.4262 0.9089 0.1209 0.0990 Uiso
C21KA C 0.4620(3) 0.8763(3) 0.1290(3) 0.1103 Uani
H14KA H 0.4504 0.8577 0.1227 0.1320 Uiso
H15KA H 0.4753 0.8708 0.1467 0.1320 Uiso
C22KA C 0.4824(3) 0.8883(4) 0.1013(3) 0.1480 Uani
H16KA H 0.4907 0.9089 0.1064 0.1780 Uiso
H17KA H 0.5001 0.8742 0.0983 0.1780 Uiso
C23KA C 0.4636(5) 0.8903(7) 0.0706(3) 0.2617 Uani
H18KA H 0.4769 0.8977 0.0540 0.3900 Uiso
H19KA H 0.4557 0.8698 0.0653 0.3900 Uiso
H20KA H 0.4463 0.9045 0.0733 0.3900 Uiso
N1KA N 0.38881(8) 0.88112(8) 0.16090(8) 0.0671 Uani
N2KA N 0.42586(7) 0.89206(8) 0.19531(8) 0.0662 Uani
O1KA O 0.37329(8) 0.84916(8) 0.31940(7) 0.0839 Uani
O2KA O 0.39882(8) 0.89259(7) 0.31055(7) 0.0785 Uani
O3KA O 0.40817(6) 1.05117(8) 0.20515(8) 0.0721 Uani
H21KA H 0.4026(9) 1.0696(10) 0.2019(9) 0.0550 Uiso
O4KA O 0.45922(8) 1.06103(9) 0.20711(13) 0.1200 Uani
Zn1AB Zn 0.3750 0.85920(2) -0.10920(2) 0.0652 Uani
Zn1OB Zn 0.39080(2) 0.8750 0.35920(2) 0.0652 Uani
O1GB O 0.37671(8) 0.93060(7) 0.09916(8) 0.0839 Uani
O1PB O 0.31940(7) 0.87329(8) 0.15084(8) 0.0839 Uani
O2GB O 0.35118(8) 0.93945(7) 0.14259(7) 0.0785 Uani
O2PB O 0.31055(7) 0.89882(8) 0.10741(7) 0.0785 Uani
O5 O 0.1250 0.77834(9) 0.02834(9) 0.0833 Uani
H36 H 0.1070(7) 0.7856(14) 0.0333(15) 0.1250 Uiso
H36Q H 0.1430(7) 0.7833(15) 0.0356(14) 0.1250 Uiso
loop_
_atom_site_aniso_label
_atom_site_aniso_U_11
_atom_site_aniso_U_22
_atom_site_aniso_U_33
_atom_site_aniso_U_23
_atom_site_aniso_U_13
_atom_site_aniso_U_12
Zn1 0.0707(3) 0.0707(3) 0.0543(4) -0.0003(2) -0.0003(2) -0.0162(3)
C1 0.078(3) 0.079(3) 0.069(3) -0.013(2) 0.014(2) 0.018(2)
C2 0.065(2) 0.071(2) 0.068(2) -0.0110(19) 0.0081(19) 0.0054(19)
C3 0.073(3) 0.099(3) 0.075(3) -0.003(2) 0.008(2) -0.015(2)
C4 0.095(5) 0.092(4) 0.087(4) 0.009(3) 0.000(4) -0.030(3)
C5 0.126(2) 0.0638(16) 0.1042(17) -0.0058(13) -0.0023(14) -0.0044(14)
C6 0.216(16) 0.052(5) 0.119(11) 0.011(6) -0.023(9) -0.036(7)
C7 0.26(2) 0.146(10) 0.25(2) 0.068(11) -0.050(17) -0.117(12)
S1 0.149(3) 0.150(4) 0.297(7) 0.048(4) 0.020(4) -0.068(3)
C8 0.063(2) 0.059(2) 0.073(2) -0.0127(18) 0.0064(19) 0.0054(17)
C9 0.064(2) 0.054(2) 0.071(2) -0.0099(17) 0.0075(18) -0.0013(16)
C10 0.069(2) 0.061(2) 0.065(2) -0.0048(17) 0.0070(18) -0.0121(18)
C11 0.071(2) 0.059(2) 0.075(3) 0.0024(18) 0.001(2) -0.0027(18)
C12 0.077(3) 0.048(2) 0.100(3) -0.011(2) -0.002(2) 0.0005(18)
C13 0.082(3) 0.0439(19) 0.089(3) -0.0047(18) -0.005(2) -0.0001(18)
C14 0.072(2) 0.0433(18) 0.077(2) -0.0013(16) -0.0026(19) -0.0060(16)
C15 0.079(3) 0.0402(17) 0.074(2) -0.0001(16) -0.0012(19) -0.0041(16)
C16 0.075(3) 0.045(2) 0.112(4) 0.004(2) -0.012(2) -0.0097(18)
C17 0.089(3) 0.042(2) 0.180(6) -0.002(3) -0.025(4) -0.014(2)
C18 0.090(3) 0.037(2) 0.181(6) -0.008(3) -0.025(3) 0.000(2)
C19 0.080(3) 0.050(2) 0.117(4) 0.011(2) -0.015(3) -0.013(2)
C20 0.096(3) 0.070(3) 0.082(3) 0.016(2) 0.002(2) -0.010(2)
C21 0.138(6) 0.090(8) 0.103(9) 0.033(6) -0.021(7) -0.006(6)
C22 0.166(8) 0.120(8) 0.158(9) 0.023(7) -0.014(7) 0.008(7)
C23 0.48(4) 0.148(15) 0.157(14) -0.008(11) -0.117(18) 0.065(16)
N1 0.075(2) 0.0643(19) 0.0619(19) 0.0017(15) -0.0001(16) -0.0142(16)
N2 0.072(2) 0.0507(16) 0.076(2) -0.0028(15) 0.0004(16) -0.0022(14)
O1 0.084(2) 0.099(2) 0.0686(18) -0.0056(16) 0.0145(15) 0.0037(17)
O2 0.0749(19) 0.093(2) 0.0676(17) -0.0216(15) 0.0017(14) 0.0101(16)
O3 0.0720(19) 0.0524(15) 0.092(2) 0.0056(13) 0.0054(16) -0.0060(13)
O4 0.081(2) 0.0521(17) 0.227(5) 0.014(2) -0.022(3) -0.0156(16)
C1KA 0.079 0.078 0.069 0.014 -0.013 0.018
C2KA 0.071 0.065 0.068 0.0081 -0.011 0.0054
C3KA 0.099 0.073 0.075 0.008 -0.003 -0.015
C4KA 0.092 0.095 0.087 0 0.009 -0.03
C5KA 0.0638 0.126 0.1042 -0.0023 -0.0058 -0.0044
C6KA 0.052 0.216 0.119 -0.023 0.011 -0.036
C7KA 0.146 0.26 0.25 -0.05 0.068 -0.117
S1KA 0.15 0.149 0.297 0.02 0.048 -0.068
C8KA 0.059 0.063 0.073 0.0064 -0.0127 0.0054
C9KA 0.054 0.064 0.071 0.0075 -0.0099 -0.0013
C10KA 0.061 0.069 0.065 0.007 -0.0048 -0.0121
C11KA 0.059 0.071 0.075 0.001 0.0024 -0.0027
C12KA 0.048 0.077 0.1 -0.002 -0.011 0.0005
C13KA 0.0439 0.082 0.089 -0.005 -0.0047 -0.0001
C14KA 0.0433 0.072 0.077 -0.0026 -0.0013 -0.006
C15KA 0.0402 0.079 0.074 -0.0012 -0.0001 -0.0041
C16KA 0.045 0.075 0.112 -0.012 0.004 -0.0097
C17KA 0.042 0.089 0.18 -0.025 -0.002 -0.014
C18KA 0.037 0.09 0.181 -0.025 -0.008 0
C19KA 0.05 0.08 0.117 -0.015 0.011 -0.013
C20KA 0.07 0.096 0.082 0.002 0.016 -0.01
C21KA 0.09 0.138 0.103 -0.021 0.033 -0.006
C22KA 0.12 0.166 0.158 -0.014 0.023 0.008
C23KA 0.148 0.48 0.157 -0.117 -0.008 0.065
N1KA 0.0643 0.075 0.0619 -0.0001 0.0017 -0.0142
N2KA 0.0507 0.072 0.076 0.0004 -0.0028 -0.0022
O1KA 0.099 0.084 0.0686 0.0145 -0.0056 0.0037
O2KA 0.093 0.0749 0.0676 0.0017 -0.0216 0.0101
O3KA 0.0524 0.072 0.092 0.0054 0.0056 -0.006
O4KA 0.0521 0.081 0.227 -0.022 0.014 -0.0156
Zn1AB 0.0543 0.0707 0.0707 -0.0162 0.0003 0.0003
Zn1OB 0.0707 0.0543 0.0707 0.0003 -0.0162 0.0003
O1GB 0.099 0.0686 0.084 -0.0145 -0.0037 -0.0056
O1PB 0.0686 0.099 0.084 -0.0037 -0.0145 -0.0056
O2GB 0.093 0.0676 0.0749 -0.0017 -0.0101 -0.0216
O2PB 0.0676 0.093 0.0749 -0.0101 -0.0017 -0.0216
O5 0.084(3) 0.0829(19) 0.0829(19) 0.032(2) 0.0086(15) -0.0086(15)
loop_
_geom_bond_atom_site_label_1
_geom_bond_atom_site_label_2
_geom_bond_site_symmetry_1
_geom_bond_site_symmetry_2
Zn1 N1 1_555 1_555
C1 C2 1_555 1_555
C2 C3 1_555 1_555
C3 H1 1_555 1_555
H2 C3 1_555 1_555
C4 C3 1_555 1_555
C5 C4 1_555 1_555
H3 C5 1_555 1_555
C6 C5 1_555 1_555
H4 C6 1_555 1_555
C7 C6 1_555 1_555
H5 C7 1_555 1_555
S1 C4 1_555 1_555
C8 C2 1_555 1_555
H6 C8 1_555 1_555
C9 C8 1_555 1_555
C10 C9 1_555 1_555
H7 C10 1_555 1_555
C11 C20 1_555 1_555
C12 C13 1_555 1_555
C13 C14 1_555 1_555
C14 H8 1_555 1_555
C15 C14 1_555 1_555
H9 C15 1_555 1_555
C16 C15 1_555 1_555
C17 C16 1_555 1_555
H10 C17 1_555 1_555
C18 C13 1_555 1_555
H11 C18 1_555 1_555
C19 C16 1_555 1_555
C20 H12 1_555 1_555
H13 C20 1_555 1_555
C21 C20 1_555 1_555
H14 C21 1_555 1_555
H15 C21 1_555 1_555
C22 C21 1_555 1_555
H16 C22 1_555 1_555
H17 C22 1_555 1_555
C23 C22 1_555 1_555
H18 C23 1_555 1_555
H19 C23 1_555 1_555
H20 C23 1_555 1_555
N1 C10 1_555 1_555
N2 C9 1_555 1_555
O1 C1 1_555 1_555
O2 C1 1_555 1_555
O3 C19 1_555 1_555
H21 O3 1_555 1_555
O4 C19 1_555 1_555
O5 H36 1_555 1_555
C1KA C2KA 1_555 1_555
C2KA C3KA 1_555 1_555
C3KA H1KA 1_555 1_555
H2KA C3KA 1_555 1_555
C4KA C3KA 1_555 1_555
C5KA C4KA 1_555 1_555
H3KA C5KA 1_555 1_555
C6KA C5KA 1_555 1_555
H4KA C6KA 1_555 1_555
C7KA C6KA 1_555 1_555
H5KA C7KA 1_555 1_555
S1KA C4KA 1_555 1_555
C8KA C2KA 1_555 1_555
H6KA C8KA 1_555 1_555
C9KA C8KA 1_555 1_555
C10KA C9KA 1_555 1_555
H7KA C10KA 1_555 1_555
C11KA C20KA 1_555 1_555
C12KA C13KA 1_555 1_555
C13KA C14KA 1_555 1_555
C14KA H8KA 1_555 1_555
C15KA C14KA 1_555 1_555
H9KA C15KA 1_555 1_555
C16KA C15KA 1_555 1_555
C17KA C16KA 1_555 1_555
H10KA C17KA 1_555 1_555
C18KA C13KA 1_555 1_555
H11KA C18KA 1_555 1_555
C19KA C16KA 1_555 1_555
C20KA H12KA 1_555 1_555
H13KA C20KA 1_555 1_555
C21KA C20KA 1_555 1_555
H14KA C21KA 1_555 1_555
H15KA C21KA 1_555 1_555
C22KA C21KA 1_555 1_555
H16KA C22KA 1_555 1_555
H17KA C22KA 1_555 1_555
C23KA C22KA 1_555 1_555
H18KA C23KA 1_555 1_555
H19KA C23KA 1_555 1_555
H20KA C23KA 1_555 1_555
N1KA Zn1 1_555 1_555
N2KA C9KA 1_555 1_555
O1KA C1KA 1_555 1_555
O2KA C1KA 1_555 1_555
O3KA C19KA 1_555 1_555
H21KA O3KA 1_555 1_555
O4KA C19KA 1_555 1_555
Zn1AB O1 1_555 1_555
Zn1OB O1KA 1_555 1_555
O1GB Zn1 1_555 1_555
O1PB Zn1 1_555 1_555
O2GB Zn1 1_555 1_555
O2PB Zn1 1_555 1_555
H36Q O5 1_555 1_555
C7 S1 1_555 1_555
C11 N1 1_555 1_555
C11 N2 1_555 1_555
C12 N2 1_555 1_555
C17 C18 1_555 1_555
O2 Zn1AB 1_555 1_555
C7KA S1KA 1_555 1_555
C10KA N1KA 1_555 1_555
C11KA N1KA 1_555 1_555
C11KA N2KA 1_555 1_555
C12KA N2KA 1_555 1_555
C17KA C18KA 1_555 1_555
O2KA Zn1OB 1_555 1_555

#END
