
#######################################################################
#
#                 Cambridge Crystallographic Data Centre
#                                CCDC 
#
#######################################################################
#
# If this CIF has been generated from an entry in the Cambridge 
# Structural Database, then it will include bibliographic, chemical, 
# crystal, experimental, refinement or atomic coordinate data resulting 
# from the CCDC's data processing and validation procedures.
#
#######################################################################

data_INIGIX
_chemical_formula_moiety         '(C46 H46 N4 Ni1 O8 S2)n'
_symmetry_cell_setting           cubic
_symmetry_space_group_name_H-M   'I a -3 d'
_symmetry_Int_Tables_number      230
_space_group_name_Hall           '-I 4bd 2c 3'
loop_
_symmetry_equiv_pos_site_id
_symmetry_equiv_pos_as_xyz
1 x,y,z
2 1/4-y,3/4+x,1/4+z
3 x,-y,1/2-z
4 z,x,y
5 1/2-x,-y,1/2+z
6 1/4-y,1/4-x,1/4-z
7 1/4+y,3/4+x,3/4-z
8 1/4+z,1/4-y,3/4+x
9 1/4-x,3/4+z,1/4+y
10 1/2-z,x,-y
11 z,-x,1/2-y
12 y,z,x
13 1/4+y,1/4-x,3/4+z
14 1/2-x,y,-z
15 1/2-z,-x,1/2+y
16 1/4-z,1/4-y,1/4-x
17 1/4-x,1/4-z,1/4-y
18 1/4+z,3/4+y,3/4-x
19 1/4+x,3/4+z,3/4-y
20 1/4-z,3/4+y,1/4+x
21 -y,1/2-z,x
22 y,-z,1/2-x
23 1/2-y,z,-x
24 1/4+x,1/4-z,3/4+y
25 1/2+x,1/2+y,1/2+z
26 3/4-y,1/4+x,3/4+z
27 1/2+x,1/2-y,-z
28 1/2+z,1/2+x,1/2+y
29 -x,1/2-y,z
30 3/4-y,3/4-x,3/4-z
31 3/4+y,1/4+x,1/4-z
32 3/4+z,3/4-y,1/4+x
33 3/4-x,1/4+z,3/4+y
34 -z,1/2+x,1/2-y
35 1/2+z,1/2-x,-y
36 1/2+y,1/2+z,1/2+x
37 3/4+y,3/4-x,1/4+z
38 -x,1/2+y,1/2-z
39 -z,1/2-x,y
40 3/4-z,3/4-y,3/4-x
41 3/4-x,3/4-z,3/4-y
42 3/4+z,1/4+y,1/4-x
43 3/4+x,1/4+z,1/4-y
44 3/4-z,1/4+y,3/4+x
45 1/2-y,-z,1/2+x
46 1/2+y,1/2-z,-x
47 -y,1/2+z,1/2-x
48 3/4+x,3/4-z,1/4+y
49 -x,-y,-z
50 3/4+y,1/4-x,3/4-z
51 -x,y,1/2+z
52 -z,-x,-y
53 1/2+x,y,1/2-z
54 3/4+y,3/4+x,3/4+z
55 3/4-y,1/4-x,1/4+z
56 3/4-z,3/4+y,1/4-x
57 3/4+x,1/4-z,3/4-y
58 1/2+z,-x,y
59 -z,x,1/2+y
60 -y,-z,-x
61 3/4-y,3/4+x,1/4-z
62 1/2+x,-y,z
63 1/2+z,x,1/2-y
64 3/4+z,3/4+y,3/4+x
65 3/4+x,3/4+z,3/4+y
66 3/4-z,1/4-y,1/4+x
67 3/4-x,1/4-z,1/4+y
68 3/4+z,1/4-y,3/4-x
69 y,1/2+z,-x
70 -y,z,1/2+x
71 1/2+y,-z,x
72 3/4-x,3/4+z,1/4-y
73 1/2-x,1/2-y,1/2-z
74 1/4+y,3/4-x,1/4-z
75 1/2-x,1/2+y,z
76 1/2-z,1/2-x,1/2-y
77 x,1/2+y,-z
78 1/4+y,1/4+x,1/4+z
79 1/4-y,3/4-x,3/4+z
80 1/4-z,1/4+y,3/4-x
81 1/4+x,3/4-z,1/4-y
82 z,1/2-x,1/2+y
83 1/2-z,1/2+x,y
84 1/2-y,1/2-z,1/2-x
85 1/4-y,1/4+x,3/4-z
86 x,1/2-y,1/2+z
87 z,1/2+x,-y
88 1/4+z,1/4+y,1/4+x
89 1/4+x,1/4+z,1/4+y
90 1/4-z,3/4-y,3/4+x
91 1/4-x,3/4-z,3/4+y
92 1/4+z,3/4-y,1/4-x
93 1/2+y,z,1/2-x
94 1/2-y,1/2+z,x
95 y,1/2-z,1/2+x
96 1/4-x,1/4+z,3/4-y
_cell_length_a                   42.3668(2)
_cell_length_b                   42.3668(2)
_cell_length_c                   42.3668(2)
_cell_angle_alpha                90
_cell_angle_beta                 90
_cell_angle_gamma                90
_cell_volume                     76046.1
loop_
_atom_site_label
_atom_site_type_symbol
_atom_site_fract_x
_atom_site_fract_y
_atom_site_fract_z
_atom_site_U_iso_or_equiv
_atom_site_thermal_displace_type
Ni1 Ni 0.3750 0.64550(2) 0.39550(2) 0.0404 Uani
S1 S 0.37478(4) 0.56280(3) 0.49995(4) 0.0865 Uani
O1 O 0.35803(5) 0.65197(6) 0.44248(5) 0.0446 Uani
O2 O 0.40152(5) 0.62599(6) 0.43311(5) 0.0454 Uani
O3 O 0.19896(5) 0.65965(5) 0.54218(6) 0.0475 Uani
O4 O 0.18921(6) 0.71129(6) 0.54158(11) 0.0808 Uani
N1 N 0.36498(7) 0.63711(7) 0.59189(6) 0.0436 Uani
N2 N 0.35822(6) 0.67654(6) 0.55873(7) 0.0404 Uani
C1 C 0.38248(7) 0.63742(7) 0.45259(7) 0.0399 Uani
C2 C 0.35577(7) 0.66685(8) 0.58905(8) 0.0429 Uani
C3 C 0.38836(7) 0.63468(7) 0.48739(7) 0.0381 Uani
C4 C 0.26215(7) 0.66704(7) 0.54125(7) 0.0404 Uani
H1 H 0.2533 0.6465 0.5405 0.0480 Uiso
C5 C 0.29447(7) 0.67072(7) 0.54244(8) 0.0389 Uani
H2 H 0.3077 0.6526 0.5427 0.0470 Uiso
C6 C 0.37021(7) 0.65182(7) 0.50675(8) 0.0393 Uani
H3 H 0.3562 0.6662 0.4969 0.0470 Uiso
C7 C 0.36935(7) 0.65109(7) 0.54091(8) 0.0397 Uani
C8 C 0.30798(8) 0.70068(7) 0.54329(9) 0.0445 Uani
C9 C 0.37370(7) 0.62728(7) 0.56210(7) 0.0394 Uani
H4 H 0.3816 0.6069 0.5571 0.0470 Uiso
C10 C 0.34338(7) 0.70523(7) 0.54608(9) 0.0439 Uani
H5 H 0.3523 0.7101 0.5251 0.0530 Uiso
H6 H 0.3479 0.7233 0.5602 0.0530 Uiso
C11 C 0.41550(8) 0.61392(8) 0.49696(8) 0.0470 Uani
H7 H 0.4205 0.6177 0.5195 0.0560 Uiso
H8 H 0.4343 0.6197 0.4844 0.0560 Uiso
C12 C 0.24257(7) 0.69323(7) 0.54113(9) 0.0468 Uani
C13 C 0.40845(10) 0.57916(9) 0.49226(9) 0.0579 Uani
C14 C 0.20740(8) 0.68932(8) 0.54168(10) 0.0516 Uani
C15 C 0.28815(9) 0.72700(8) 0.54288(14) 0.0668 Uani
H9 H 0.2970 0.7476 0.5434 0.0800 Uiso
C16 C 0.25554(9) 0.72338(8) 0.54164(14) 0.0673 Uani
H10 H 0.2422 0.7414 0.5411 0.0810 Uiso
C17 C 0.34514(9) 0.68721(8) 0.61566(10) 0.0527 Uani
H11 H 0.3311 0.6748 0.6296 0.0630 Uiso
H12 H 0.3328 0.7052 0.6071 0.0630 Uiso
C18 C 0.37261(14) 0.69986(15) 0.63486(14) 0.0847 Uani
H13 H 0.3846 0.7151 0.6219 0.1020 Uiso
H14 H 0.3869 0.6822 0.6402 0.1020 Uiso
C19 C 0.36161(19) 0.71668(18) 0.6664(2) 0.1083 Uani
H15 H 0.3483 0.7351 0.6609 0.1300 Uiso
H16 H 0.3485 0.7018 0.6787 0.1300 Uiso
C20 C 0.3880(3) 0.7273(3) 0.6861(2) 0.1490 Uani
H17 H 0.3984 0.7454 0.6760 0.2230 Uiso
H18 H 0.4032 0.7101 0.6886 0.2230 Uiso
H19 H 0.3800 0.7337 0.7068 0.2230 Uiso
C21 C 0.43230(8) 0.55315(9) 0.48132(9) 0.0537 Uani
H20 H 0.4541 0.5556 0.4766 0.0650 Uiso
C22 C 0.3847(2) 0.52709(15) 0.49022(18) 0.1243 Uani
H21 H 0.3712 0.5092 0.4914 0.1490 Uiso
C23 C 0.4151(2) 0.5267(2) 0.4802(2) 0.1460 Uani
H22 H 0.4242 0.5077 0.4723 0.1750 Uiso
S1FA S 0.37522(4) 0.74995(4) 0.31280(3) 0.0865 Uani
O1FA O 0.39197(5) 0.69248(5) 0.40197(6) 0.0446 Uani
O2FA O 0.34848(5) 0.68311(5) 0.37599(6) 0.0454 Uani
O3FA O 0.55104(5) 0.79218(6) 0.40965(5) 0.0475 Uani
O4FA O 0.56079(6) 0.79158(11) 0.46129(6) 0.0808 Uani
N1FA N 0.38502(7) 0.84189(6) 0.38711(7) 0.0436 Uani
N2FA N 0.39178(6) 0.80873(7) 0.42654(6) 0.0404 Uani
C1FA C 0.36752(7) 0.70259(7) 0.38742(7) 0.0399 Uani
C2FA C 0.39423(7) 0.83905(8) 0.41685(8) 0.0429 Uani
C3FA C 0.36164(7) 0.73739(7) 0.38468(7) 0.0381 Uani
C4FA C 0.48785(7) 0.79125(7) 0.41704(7) 0.0404 Uani
H1FA H 0.4967 0.7905 0.3965 0.0480 Uiso
C5FA C 0.45553(7) 0.79244(8) 0.42072(7) 0.0389 Uani
H2FA H 0.4423 0.7927 0.4026 0.0470 Uiso
C6FA C 0.37979(7) 0.75675(8) 0.40182(7) 0.0393 Uani
H3FA H 0.3938 0.7469 0.4162 0.0470 Uiso
C7FA C 0.38065(7) 0.79091(8) 0.40109(7) 0.0397 Uani
C8FA C 0.44202(8) 0.79329(9) 0.45068(7) 0.0445 Uani
C9FA C 0.37630(7) 0.81210(7) 0.37728(7) 0.0394 Uani
H4FA H 0.3684 0.8071 0.3569 0.0470 Uiso
C10FA C 0.40662(7) 0.79608(9) 0.45523(7) 0.0439 Uani
H5FA H 0.3977 0.7751 0.4601 0.0530 Uiso
H6FA H 0.4021 0.8102 0.4733 0.0530 Uiso
C11FA C 0.33450(8) 0.74696(8) 0.36392(8) 0.0470 Uani
H7FA H 0.3295 0.7695 0.3677 0.0560 Uiso
H8FA H 0.3157 0.7344 0.3697 0.0560 Uiso
C12FA C 0.50743(7) 0.79113(9) 0.44323(7) 0.0468 Uani
C13FA C 0.34155(10) 0.74226(9) 0.32916(9) 0.0579 Uani
C14FA C 0.54260(8) 0.79168(10) 0.43932(8) 0.0516 Uani
C15FA C 0.46185(9) 0.79288(14) 0.47700(8) 0.0668 Uani
H9FA H 0.4530 0.7934 0.4976 0.0800 Uiso
C16FA C 0.49446(9) 0.79164(14) 0.47338(8) 0.0673 Uani
H10FA H 0.5078 0.7911 0.4914 0.0810 Uiso
C17FA C 0.40486(9) 0.86566(10) 0.43721(8) 0.0527 Uani
H11FA H 0.4189 0.8796 0.4248 0.0630 Uiso
H12FA H 0.4172 0.8571 0.4552 0.0630 Uiso
C18FA C 0.37739(14) 0.88486(14) 0.44986(15) 0.0847 Uani
H13FA H 0.3654 0.8719 0.4651 0.1020 Uiso
H14FA H 0.3631 0.8902 0.4322 0.1020 Uiso
C19FA C 0.38839(19) 0.9164(2) 0.46668(18) 0.1083 Uani
H15FA H 0.4017 0.9109 0.4851 0.1300 Uiso
H16FA H 0.4015 0.9287 0.4518 0.1300 Uiso
C20FA C 0.3620(3) 0.9361(2) 0.4773(3) 0.1490 Uani
H17FA H 0.3516 0.9260 0.4954 0.2230 Uiso
H18FA H 0.3468 0.9386 0.4601 0.2230 Uiso
H19FA H 0.3700 0.9568 0.4837 0.2230 Uiso
C21FA C 0.31770(8) 0.73132(9) 0.30315(9) 0.0537 Uani
H20FA H 0.2959 0.7266 0.3056 0.0650 Uiso
C22FA C 0.3653(2) 0.74022(18) 0.27709(15) 0.1243 Uani
H21FA H 0.3788 0.7414 0.2592 0.1490 Uiso
C23FA C 0.3349(2) 0.7302(2) 0.2767(2) 0.1460 Uani
H22FA H 0.3258 0.7223 0.2577 0.1750 Uiso
Ni1WA Ni 0.39550(2) 0.8750 0.35450(2) 0.0404 Uani
Ni1GB Ni 0.35450(2) 0.60450(2) 0.6250 0.0404 Uani
N1YA N 0.40811(6) 0.63502(7) 0.36289(7) 0.0436 Uani
N1OB N 0.34189(6) 0.61289(7) 0.38502(7) 0.0436 Uani
loop_
_atom_site_aniso_label
_atom_site_aniso_U_11
_atom_site_aniso_U_22
_atom_site_aniso_U_33
_atom_site_aniso_U_23
_atom_site_aniso_U_13
_atom_site_aniso_U_12
Ni1 0.0333(4) 0.0440(3) 0.0440(3) 0.0109(3) -0.00140(18) 0.00140(18)
S1 0.1053(10) 0.0680(7) 0.0861(8) 0.0078(6) -0.0081(7) 0.0025(6)
O1 0.0340(10) 0.0525(12) 0.0473(11) 0.0116(10) 0.0009(8) 0.0024(9)
O2 0.0396(11) 0.0539(12) 0.0426(11) 0.0097(9) 0.0044(9) 0.0077(9)
O3 0.0367(10) 0.0408(11) 0.0651(14) -0.0043(10) 0.0048(10) -0.0015(8)
O4 0.0373(12) 0.0412(13) 0.164(4) -0.0006(17) -0.0048(17) 0.0064(10)
N1 0.0463(13) 0.0428(13) 0.0417(13) -0.0007(11) 0.0050(11) 0.0083(11)
N2 0.0363(12) 0.0334(11) 0.0515(14) 0.0019(10) 0.0038(10) 0.0015(9)
C1 0.0350(13) 0.0407(14) 0.0439(15) 0.0126(12) -0.0003(12) 0.0000(11)
C2 0.0376(13) 0.0415(14) 0.0497(16) -0.0014(13) 0.0002(12) 0.0051(12)
C3 0.0323(12) 0.0422(14) 0.0397(14) 0.0067(11) 0.0036(11) 0.0026(11)
C4 0.0397(14) 0.0328(12) 0.0487(15) 0.0019(11) 0.0059(12) -0.0041(11)
C5 0.0324(13) 0.0334(13) 0.0509(15) 0.0054(11) 0.0028(11) 0.0024(10)
C6 0.0334(13) 0.0380(13) 0.0465(15) 0.0100(12) 0.0013(11) 0.0007(11)
C7 0.0312(12) 0.0413(14) 0.0466(16) 0.0004(12) 0.0028(11) 0.0021(11)
C8 0.0394(15) 0.0338(14) 0.0603(18) 0.0014(12) 0.0038(13) -0.0020(12)
C9 0.0393(14) 0.0394(14) 0.0396(14) 0.0002(11) 0.0017(11) 0.0073(11)
C10 0.0367(14) 0.0355(13) 0.0595(18) 0.0061(13) 0.0017(13) -0.0002(11)
C11 0.0401(14) 0.0546(17) 0.0463(16) 0.0038(14) 0.0017(13) 0.0120(14)
C12 0.0338(14) 0.0365(14) 0.070(2) 0.0021(14) 0.0009(13) 0.0008(11)
C13 0.067(2) 0.0544(19) 0.0524(18) 0.0039(15) -0.0126(16) 0.0237(17)
C14 0.0371(15) 0.0407(16) 0.077(2) -0.0022(15) -0.0016(15) 0.0030(12)
C15 0.0451(18) 0.0293(14) 0.126(4) 0.0061(18) -0.003(2) -0.0046(13)
C16 0.0417(18) 0.0351(15) 0.125(4) 0.0088(19) -0.004(2) 0.0064(13)
C17 0.0580(19) 0.0418(16) 0.0584(19) -0.0114(14) 0.0089(16) 0.0086(14)
C18 0.083(3) 0.092(4) 0.079(3) -0.035(3) -0.002(3) -0.008(3)
C19 0.120(5) 0.090(4) 0.115(5) -0.028(4) 0.014(4) -0.010(4)
C20 0.180(9) 0.165(9) 0.102(5) -0.048(6) 0.008(6) -0.064(8)
C21 0.0484(17) 0.0517(18) 0.061(2) -0.0183(15) 0.0050(15) 0.0280(15)
C22 0.189(9) 0.068(3) 0.116(5) 0.032(3) -0.069(6) -0.028(4)
C23 0.177(9) 0.116(6) 0.145(7) -0.039(5) -0.069(7) 0.086(7)
S1FA 0.1053 0.0861 0.068 0.0078 -0.0025 0.0081
O1FA 0.034 0.0473 0.0525 0.0116 -0.0024 -0.0009
O2FA 0.0396 0.0426 0.0539 0.0097 -0.0077 -0.0044
O3FA 0.0367 0.0651 0.0408 -0.0043 0.0015 -0.0048
O4FA 0.0373 0.164 0.0412 -0.0006 -0.0064 0.0048
N1FA 0.0463 0.0417 0.0428 -0.0007 -0.0083 -0.005
N2FA 0.0363 0.0515 0.0334 0.0019 -0.0015 -0.0038
C1FA 0.035 0.0439 0.0407 0.0126 0 0.0003
C2FA 0.0376 0.0497 0.0415 -0.0014 -0.0051 -0.0002
C3FA 0.0323 0.0397 0.0422 0.0067 -0.0026 -0.0036
C4FA 0.0397 0.0487 0.0328 0.0019 0.0041 -0.0059
C5FA 0.0324 0.0509 0.0334 0.0054 -0.0024 -0.0028
C6FA 0.0334 0.0465 0.038 0.01 -0.0007 -0.0013
C7FA 0.0312 0.0466 0.0413 0.0004 -0.0021 -0.0028
C8FA 0.0394 0.0603 0.0338 0.0014 0.002 -0.0038
C9FA 0.0393 0.0396 0.0394 0.0002 -0.0073 -0.0017
C10FA 0.0367 0.0595 0.0355 0.0061 0.0002 -0.0017
C11FA 0.0401 0.0463 0.0546 0.0038 -0.012 -0.0017
C12FA 0.0338 0.07 0.0365 0.0021 -0.0008 -0.0009
C13FA 0.067 0.0524 0.0544 0.0039 -0.0237 0.0126
C14FA 0.0371 0.077 0.0407 -0.0022 -0.003 0.0016
C15FA 0.0451 0.126 0.0293 0.0061 0.0046 0.003
C16FA 0.0417 0.125 0.0351 0.0088 -0.0064 0.004
C17FA 0.058 0.0584 0.0418 -0.0114 -0.0086 -0.0089
C18FA 0.083 0.079 0.092 -0.035 0.008 0.002
C19FA 0.12 0.115 0.09 -0.028 0.01 -0.014
C20FA 0.18 0.102 0.165 -0.048 0.064 -0.008
C21FA 0.0484 0.061 0.0517 -0.0183 -0.028 -0.005
C22FA 0.189 0.116 0.068 0.032 0.028 0.069
C23FA 0.177 0.145 0.116 -0.039 -0.086 0.069
Ni1WA 0.044 0.0333 0.044 -0.0014 -0.0109 -0.0014
Ni1GB 0.044 0.044 0.0333 -0.0014 0.0014 0.0109
N1YA 0.0417 0.0463 0.0428 0.0083 -0.0007 0.005
N1OB 0.0417 0.0428 0.0463 0.0083 -0.005 0.0007
loop_
_geom_bond_atom_site_label_1
_geom_bond_atom_site_label_2
_geom_bond_site_symmetry_1
_geom_bond_site_symmetry_2
Ni1 O1 1_555 1_555
S1 C13 1_555 1_555
O1 C1 1_555 1_555
O2 Ni1 1_555 1_555
O3 C14 1_555 1_555
O4 C14 1_555 1_555
N1 C2 1_555 1_555
N2 C2 1_555 1_555
C1 O2 1_555 1_555
C2 C17 1_555 1_555
C3 C1 1_555 1_555
C4 H1 1_555 1_555
C5 C4 1_555 1_555
H2 C5 1_555 1_555
C6 C3 1_555 1_555
H3 C6 1_555 1_555
C7 N2 1_555 1_555
C8 C5 1_555 1_555
C9 N1 1_555 1_555
H4 C9 1_555 1_555
C10 N2 1_555 1_555
H5 C10 1_555 1_555
H6 C10 1_555 1_555
C11 C3 1_555 1_555
H7 C11 1_555 1_555
H8 C11 1_555 1_555
C12 C4 1_555 1_555
C13 C11 1_555 1_555
C14 C12 1_555 1_555
C15 C8 1_555 1_555
H9 C15 1_555 1_555
C16 C12 1_555 1_555
H10 C16 1_555 1_555
C17 H11 1_555 1_555
H12 C17 1_555 1_555
C18 C17 1_555 1_555
H13 C18 1_555 1_555
H14 C18 1_555 1_555
C19 C18 1_555 1_555
H15 C19 1_555 1_555
H16 C19 1_555 1_555
C20 C19 1_555 1_555
H17 C20 1_555 1_555
H18 C20 1_555 1_555
H19 C20 1_555 1_555
C21 C13 1_555 1_555
H20 C21 1_555 1_555
C22 S1 1_555 1_555
H21 C22 1_555 1_555
C23 C21 1_555 1_555
H22 C23 1_555 1_555
S1FA C13FA 1_555 1_555
O1FA Ni1 1_555 1_555
O2FA Ni1 1_555 1_555
O3FA C14FA 1_555 1_555
O4FA C14FA 1_555 1_555
N1FA C2FA 1_555 1_555
N2FA C2FA 1_555 1_555
C1FA O1FA 1_555 1_555
C2FA C17FA 1_555 1_555
C3FA C1FA 1_555 1_555
C4FA H1FA 1_555 1_555
C5FA C4FA 1_555 1_555
H2FA C5FA 1_555 1_555
C6FA C3FA 1_555 1_555
H3FA C6FA 1_555 1_555
C7FA N2FA 1_555 1_555
C8FA C5FA 1_555 1_555
C9FA N1FA 1_555 1_555
H4FA C9FA 1_555 1_555
C10FA N2FA 1_555 1_555
H5FA C10FA 1_555 1_555
H6FA C10FA 1_555 1_555
C11FA C3FA 1_555 1_555
H7FA C11FA 1_555 1_555
H8FA C11FA 1_555 1_555
C12FA C4FA 1_555 1_555
C13FA C11FA 1_555 1_555
C14FA C12FA 1_555 1_555
C15FA C8FA 1_555 1_555
H9FA C15FA 1_555 1_555
C16FA C12FA 1_555 1_555
H10FA C16FA 1_555 1_555
C17FA H11FA 1_555 1_555
H12FA C17FA 1_555 1_555
C18FA C17FA 1_555 1_555
H13FA C18FA 1_555 1_555
H14FA C18FA 1_555 1_555
C19FA C18FA 1_555 1_555
H15FA C19FA 1_555 1_555
H16FA C19FA 1_555 1_555
C20FA C19FA 1_555 1_555
H17FA C20FA 1_555 1_555
H18FA C20FA 1_555 1_555
H19FA C20FA 1_555 1_555
C21FA C13FA 1_555 1_555
H20FA C21FA 1_555 1_555
C22FA S1FA 1_555 1_555
H21FA C22FA 1_555 1_555
C23FA C21FA 1_555 1_555
H22FA C23FA 1_555 1_555
Ni1WA N1FA 1_555 1_555
Ni1GB N1 1_555 1_555
N1YA Ni1 1_555 1_555
N1OB Ni1 1_555 1_555
C6 C7 1_555 1_555
C7 C9 1_555 1_555
C8 C10 1_555 1_555
C15 C16 1_555 1_555
C22 C23 1_555 1_555
O2FA C1FA 1_555 1_555
C6FA C7FA 1_555 1_555
C7FA C9FA 1_555 1_555
C8FA C10FA 1_555 1_555
C15FA C16FA 1_555 1_555
C22FA C23FA 1_555 1_555

#END
