
#######################################################################
#
#                 Cambridge Crystallographic Data Centre
#                                CCDC 
#
#######################################################################
#
# If this CIF has been generated from an entry in the Cambridge 
# Structural Database, then it will include bibliographic, chemical, 
# crystal, experimental, refinement or atomic coordinate data resulting 
# from the CCDC's data processing and validation procedures.
#
#######################################################################

data_DEYNIG
_chemical_formula_moiety         '(C10 H12 Cu3 I2 N4 O7)n'
_symmetry_cell_setting           orthorhombic
_symmetry_space_group_name_H-M   'P b c n'
_symmetry_Int_Tables_number      60
_space_group_name_Hall           '-P 2n 2ab'
loop_
_symmetry_equiv_pos_site_id
_symmetry_equiv_pos_as_xyz
1 x,y,z
2 1/2-x,1/2-y,1/2+z
3 -x,y,1/2-z
4 1/2+x,1/2-y,-z
5 -x,-y,-z
6 1/2+x,1/2+y,1/2-z
7 x,-y,1/2+z
8 1/2-x,1/2+y,z
_cell_length_a                   7.6664(16)
_cell_length_b                   31.951(7)
_cell_length_c                   15.481(3)
_cell_angle_alpha                90
_cell_angle_beta                 90
_cell_angle_gamma                90
_cell_volume                     3792.06
loop_
_atom_site_label
_atom_site_type_symbol
_atom_site_fract_x
_atom_site_fract_y
_atom_site_fract_z
_atom_site_U_iso_or_equiv
_atom_site_thermal_displace_type
I1 I 0.26219(14) 0.47671(3) 0.44965(7) 0.0306 Uani
I2 I 0.25562(15) 0.45223(4) 0.17904(7) 0.0328 Uani
Cu1 Cu 0.0856(3) 0.43826(6) 0.32572(14) 0.0300 Uani
Cu2 Cu -0.0781(3) 0.46589(6) 0.46948(15) 0.0305 Uani
Cu3 Cu 0.2509(3) 0.22911(6) 0.37368(15) 0.0334 Uani
O1 O 0.0223(15) 0.2070(4) 0.3988(9) 0.0433 Uani
O2 O 0.4840(15) 0.2541(3) 0.3663(9) 0.0390 Uani
O3 O -0.1110(16) 0.1511(4) 0.4538(10) 0.0553 Uani
O4 O 0.6185(16) 0.3156(4) 0.3536(12) 0.0677 Uani
N1 N 0.3295(17) 0.1724(4) 0.4118(10) 0.0307 Uani
N2 N 0.1718(17) 0.2890(4) 0.3675(10) 0.0273 Uani
C1 C 0.488(2) 0.1553(5) 0.4132(13) 0.0360 Uani
H1 H 0.5829 0.1708 0.3938 0.0430 Uiso
C2 C 0.485(2) 0.2943(5) 0.3598(13) 0.0347 Uani
C3 C 0.021(2) 0.1703(6) 0.4311(12) 0.0320 Uani
N3 N 0.3785(16) 0.0914(4) 0.4681(9) 0.0250 Uani
N4 N 0.1267(16) 0.3744(4) 0.3466(9) 0.0250 Uani
C4 C 0.514(2) 0.1152(5) 0.4428(10) 0.0250 Uani
H2 H 0.6263 0.1043 0.4452 0.0300 Uiso
O5 O 0.2457(18) 0.2188(4) 0.2314(9) 0.0567 Uani
H3 H 0.2711 0.2187 0.1780 0.0850 Uiso
H4 H 0.1490 0.2059 0.2372 0.0850 Uiso
C5 C 0.3107(18) 0.3147(5) 0.3595(10) 0.0177 Uani
C6 C 0.287(2) 0.3574(5) 0.3495(11) 0.0273 Uani
H5 H 0.3843 0.3747 0.3446 0.0330 Uiso
C7 C -0.007(2) 0.3479(5) 0.3576(11) 0.0307 Uani
H6 H -0.1199 0.3588 0.3588 0.0370 Uiso
C8 C 0.013(2) 0.3061(5) 0.3670(12) 0.0297 Uani
H7 H -0.0847 0.2890 0.3731 0.0360 Uiso
C9 C 0.2199(19) 0.1089(5) 0.4670(10) 0.0233 Uani
H8 H 0.1250 0.0942 0.4887 0.0280 Uiso
C10 C 0.1957(19) 0.1481(5) 0.4346(10) 0.0213 Uani
I1D I -0.26219(14) 0.52329(3) 0.55035(7) 0.0306 Uani
I2B I -0.25562(15) 0.45223(4) 0.32096(7) 0.0328 Uani
Cu1B Cu -0.0856(3) 0.43826(6) 0.17428(14) 0.0300 Uani
Cu2B Cu 0.0781(3) 0.46589(6) 0.03052(15) 0.0305 Uani
Cu2C Cu 0.4219(3) 0.03411(6) 0.53052(15) 0.0305 Uani
Cu2D Cu 0.0781(3) 0.53411(6) 0.53052(15) 0.0305 Uani
N3C N -0.1215(16) 0.4086(4) 0.5319(9) 0.0250 Uani
O6 O 0.5000 0.071(2) 0.2500 0.3567 Uani
H9 H 0.3920 0.0710 0.2375 0.4270 Uiso
H9B H 0.6080 0.0710 0.2625 0.4270 Uiso
O7 O 0.0000 0.088(2) 0.2500 0.4033 Uani
H10 H 0.0624 0.0663 0.2402 0.4830 Uiso
H10B H -0.0624 0.0663 0.2598 0.4830 Uiso
loop_
_atom_site_aniso_label
_atom_site_aniso_U_11
_atom_site_aniso_U_22
_atom_site_aniso_U_33
_atom_site_aniso_U_23
_atom_site_aniso_U_13
_atom_site_aniso_U_12
I1 0.0201(6) 0.0287(6) 0.0430(7) -0.0106(5) 0.0009(5) -0.0027(5)
I2 0.0236(6) 0.0414(7) 0.0333(6) 0.0046(5) -0.0006(6) -0.0091(6)
Cu1 0.0298(12) 0.0206(12) 0.0395(13) -0.0004(10) 0.0010(10) 0.0008(9)
Cu2 0.0281(12) 0.0196(12) 0.0438(14) 0.0010(10) 0.0025(10) -0.0013(9)
Cu3 0.0191(11) 0.0175(11) 0.0637(15) 0.0077(10) -0.0032(12) 0.0010(9)
O1 0.025(7) 0.025(7) 0.080(11) 0.020(7) -0.001(7) -0.003(6)
O2 0.019(6) 0.021(7) 0.077(10) 0.004(7) -0.003(7) -0.002(5)
O3 0.024(7) 0.043(9) 0.099(12) 0.036(8) -0.004(8) 0.004(6)
O4 0.018(7) 0.035(9) 0.150(16) 0.002(9) 0.008(9) -0.004(6)
N1 0.020(7) 0.019(8) 0.053(10) 0.010(7) -0.006(7) 0.007(6)
N2 0.023(7) 0.009(7) 0.050(10) 0.001(6) 0.003(7) -0.005(6)
C1 0.017(9) 0.018(10) 0.073(15) 0.005(9) 0.007(9) -0.003(7)
C2 0.021(10) 0.016(10) 0.067(14) 0.001(9) 0.008(9) 0.011(8)
C3 0.019(9) 0.041(12) 0.036(11) 0.012(9) 0.010(8) -0.001(8)
N3 0.014(7) 0.021(8) 0.040(9) -0.004(7) -0.008(6) -0.006(6)
N4 0.019(7) 0.024(8) 0.032(8) -0.002(6) 0.002(6) 0.000(6)
C4 0.011(8) 0.027(10) 0.037(10) 0.014(8) 0.004(7) -0.004(7)
O5 0.052(9) 0.062(9) 0.056(9) 0.008(7) 0.009(8) -0.012(8)
C5 0.006(6) 0.018(7) 0.029(7) 0.001(6) -0.006(6) 0.005(5)
C6 0.016(7) 0.028(7) 0.038(7) -0.002(6) 0.004(6) 0.002(6)
C7 0.025(8) 0.023(8) 0.044(9) -0.003(7) 0.009(7) 0.014(7)
C8 0.009(7) 0.034(9) 0.046(9) -0.010(8) 0.012(7) 0.000(7)
C9 0.010(6) 0.028(7) 0.032(7) 0.004(6) 0.001(6) -0.010(6)
C10 0.014(8) 0.019(9) 0.031(10) -0.001(7) -0.004(7) 0.005(7)
I1D 0.0201 0.0287 0.043 -0.0106 0.0009 -0.0027
I2B 0.0236 0.0414 0.0333 -0.0046 -0.0006 0.0091
Cu1B 0.0298 0.0206 0.0395 0.0004 0.001 -0.0008
Cu2B 0.0281 0.0196 0.0438 -0.001 0.0025 0.0013
Cu2C 0.0281 0.0196 0.0438 0.001 -0.0025 0.0013
Cu2D 0.0281 0.0196 0.0438 0.001 0.0025 -0.0013
N3C 0.014 0.021 0.04 -0.004 0.008 0.006
O6 0.36(4) 0.36(4) 0.35(4) 0.000 0.001(10) 0.000
O7 0.40(4) 0.41(4) 0.40(4) 0.000 -0.003(10) 0.000
loop_
_geom_bond_atom_site_label_1
_geom_bond_atom_site_label_2
_geom_bond_site_symmetry_1
_geom_bond_site_symmetry_2
I1 Cu1 1_555 1_555
I2 Cu1 1_555 1_555
Cu1 N4 1_555 1_555
Cu2 I1 1_555 1_555
Cu3 O1 1_555 1_555
O1 C3 1_555 1_555
O2 Cu3 1_555 1_555
O3 C3 1_555 1_555
O4 C2 1_555 1_555
N1 Cu3 1_555 1_555
N2 Cu3 1_555 1_555
C1 N1 1_555 1_555
H1 C1 1_555 1_555
C2 O2 1_555 1_555
C3 C10 1_555 1_555
N3 C4 1_555 1_555
N4 C6 1_555 1_555
C4 C1 1_555 1_555
H2 C4 1_555 1_555
O5 Cu3 1_555 1_555
H3 O5 1_555 1_555
H4 O5 1_555 1_555
C5 N2 1_555 1_555
C6 C5 1_555 1_555
H5 C6 1_555 1_555
C7 N4 1_555 1_555
H6 C7 1_555 1_555
C8 N2 1_555 1_555
H7 C8 1_555 1_555
C9 N3 1_555 1_555
H8 C9 1_555 1_555
C10 N1 1_555 1_555
O6 H9 1_555 1_555
O7 H10 1_555 1_555
I1D Cu2 1_555 1_555
I2B Cu1 1_555 1_555
Cu1B I2 1_555 1_555
Cu2B I2 1_555 1_555
Cu2C N3 1_555 1_555
Cu2D I1 1_555 1_555
N3C Cu2 1_555 1_555
H9B O6 1_555 1_555
H10B O7 1_555 1_555
Cu2 I2B 1_555 1_555
C2 C5 1_555 1_555
C7 C8 1_555 1_555
C9 C10 1_555 1_555
I1D Cu2D 1_555 1_555
I2B Cu1B 1_555 1_555

#END
