
#######################################################################
#
#                 Cambridge Crystallographic Data Centre
#                                CCDC 
#
#######################################################################
#
# If this CIF has been generated from an entry in the Cambridge 
# Structural Database, then it will include bibliographic, chemical, 
# crystal, experimental, refinement or atomic coordinate data resulting 
# from the CCDC's data processing and validation procedures.
#
#######################################################################

data_DIHYUP
_chemical_formula_moiety         '(C60 H66 Cl3 Cu2 Gd1 N8 O33 4+)n'
_symmetry_cell_setting           monoclinic
_symmetry_space_group_name_H-M   'C 2/c'
_symmetry_Int_Tables_number      15
_space_group_name_Hall           '-C 2yc'
loop_
_symmetry_equiv_pos_site_id
_symmetry_equiv_pos_as_xyz
1 x,y,z
2 1/2+x,1/2+y,z
3 -x,y,1/2-z
4 1/2-x,1/2+y,1/2-z
5 -x,-y,-z
6 1/2-x,1/2-y,-z
7 x,-y,1/2+z
8 1/2+x,1/2-y,1/2+z
_cell_length_a                   27.798(4)
_cell_length_b                   16.200(3)
_cell_length_c                   19.129(3)
_cell_angle_alpha                90
_cell_angle_beta                 98.338(3)
_cell_angle_gamma                90
_cell_volume                     8523.26
loop_
_atom_site_label
_atom_site_type_symbol
_atom_site_fract_x
_atom_site_fract_y
_atom_site_fract_z
Gd1 Gd 0.0000 0.375989(5) 0.2500
Cu1 Cu 0.021798(5) 0.380990(8) 0.072428(8)
O1 O 0.03783(4) 0.37195(7) -0.03686(5)
O2 O -0.00725(4) 0.27159(6) 0.06301(5)
O4 O -0.00800(6) 0.25729(10) 0.17791(9)
O5 O -0.42915(6) 0.10556(10) -0.15544(9)
O7 O -0.45514(3) 0.07305(7) -0.05331(5)
O9 O 0.04752(3) 0.49197(5) 0.09276(5)
O10 O 0.01080(5) 0.50054(10) 0.19137(8)
O11 O 0.41397(3) 0.83481(6) 0.39006(5)
O32 O 0.43004(6) 0.80173(11) 0.28759(9)
N1 N -0.11784(4) 0.03728(7) 0.06301(6)
N2 N -0.28713(4) -0.03025(7) -0.03422(7)
N3 N 0.09851(3) 0.76595(6) 0.19028(6)
N4 N 0.25314(4) 0.76833(7) 0.25876(6)
C1 C -0.02473(4) 0.24119(7) 0.11251(6)
C2 C -0.05563(4) 0.16559(7) 0.09637(7)
C3 C -0.08376(5) 0.13627(8) 0.14512(8)
H1 H -0.0815 0.1600 0.1897
C4 C -0.11497(5) 0.07178(8) 0.12668(8)
H2 H -0.1343 0.0520 0.1588
C5 C -0.08953(6) 0.06268(9) 0.01581(8)
H3 H -0.0913 0.0363 -0.0277
C6 C -0.05811(5) 0.12726(8) 0.03170(7)
H4 H -0.0386 0.1451 -0.0009
C7 C -0.15380(5) -0.02890(9) 0.04347(9)
H5 H -0.1581 -0.0606 0.0851
H6 H -0.1420 -0.0659 0.0099
C8 C -0.20226(5) 0.00813(9) 0.01094(8)
H7 H -0.2152 0.0428 0.0452
H8 H -0.1980 0.0418 -0.0297
C9 C -0.23717(5) -0.06256(9) -0.01156(10)
H9 H -0.2263 -0.0925 -0.0503
H10 H -0.2375 -0.1005 0.0276
C10 C -0.31778(5) -0.02415(8) 0.01306(8)
H11 H -0.3076 -0.0402 0.0595
C11 C -0.36407(5) 0.00548(8) -0.00586(7)
H12 H -0.3852 0.0097 0.0275
C12 C -0.37892(5) 0.02903(8) -0.07532(7)
C13 C -0.34674(5) 0.02158(9) -0.12405(8)
H13 H -0.3562 0.0366 -0.1710
C14 C -0.30098(5) -0.00810(9) -0.10215(8)
H14 H -0.2792 -0.0131 -0.1345
C15 C -0.42939(6) 0.06240(9) -0.09789(7)
C16 C 0.04593(7) 0.52296(9) 0.15042(7)
C17 C 0.06240(5) 0.61060(8) 0.16310(7)
C18 C 0.07724(4) 0.65763(8) 0.10945(7)
H15 H 0.0749 0.6367 0.0638
C19 C 0.09532(4) 0.73518(8) 0.12451(7)
H16 H 0.1055 0.7669 0.0889
C20 C 0.08174(4) 0.72326(8) 0.24224(7)
H17 H 0.0823 0.7468 0.2867
C21 C 0.06385(5) 0.64502(9) 0.22939(7)
H18 H 0.0527 0.6151 0.2653
C22 C 0.12411(4) 0.84594(8) 0.20774(8)
H19 H 0.1197 0.8629 0.2550
H20 H 0.1101 0.8881 0.1749
C23 C 0.17815(5) 0.83774(9) 0.20362(9)
H21 H 0.1830 0.8410 0.1545
H22 H 0.1952 0.8838 0.2284
C24 C 0.20015(4) 0.75777(8) 0.23495(8)
H23 H 0.1842 0.7417 0.2747
H24 H 0.1950 0.7143 0.1998
C25 C 0.28377(5) 0.77504(9) 0.21012(7)
H25 H 0.2720 0.7694 0.1623
C26 C 0.33207(5) 0.79016(9) 0.23156(7)
H26 H 0.3532 0.7948 0.1983
C27 C 0.34934(4) 0.79847(8) 0.30265(7)
C28 C 0.31797(5) 0.78808(8) 0.35177(7)
H27 H 0.3294 0.7910 0.3999
C29 C 0.26938(5) 0.77321(9) 0.32830(7)
H28 H 0.2478 0.7665 0.3608
C30 C 0.40151(4) 0.82319(9) 0.32695(7)
Gd1G Gd -0.5000 0.124011(5) -0.2500
Gd1A Gd 0.5000 0.875989(5) 0.2500
Gd1G_2 Gd 0.5000 0.124011(5) 0.7500
Gd1A_2 Gd -0.5000 0.875989(5) 0.2500
Cu1B Cu -0.021798(5) 0.380990(8) 0.427572(8)
Cu1E Cu -0.521798(5) 0.119010(8) -0.072428(8)
Cu1C Cu 0.478202(5) 0.880990(8) 0.427572(8)
Cu1G Cu 0.521798(5) 0.119010(8) 0.572428(8)
Cu1A Cu -0.478202(5) 0.880990(8) 0.072428(8)
O1B O -0.03783(4) 0.37195(7) 0.53686(5)
O2B O 0.00725(4) 0.27159(6) 0.43699(5)
O4B O 0.00800(6) 0.25729(10) 0.32209(9)
O5B O 0.42915(6) 0.10556(10) 0.65544(9)
O5G O 0.07085(6) 0.39444(10) 0.34456(9)
O5E O -0.07085(6) 0.39444(10) 0.15544(9)
O7B O 0.45514(3) 0.07305(7) 0.55331(5)
O7E O -0.04486(3) 0.42695(7) 0.05331(5)
O7G O 0.04486(3) 0.42695(7) 0.44669(5)
O9B O -0.04752(3) 0.49197(5) 0.40724(5)
O10B O -0.01080(5) 0.50054(10) 0.30863(8)
O11B O -0.41397(3) 0.83481(6) 0.10994(5)
O11C O 0.08603(3) 0.33481(6) 0.10994(5)
O11A O -0.08603(3) 0.33481(6) 0.39006(5)
O32B O -0.43004(6) 0.80173(11) 0.21241(9)
O32A O -0.06996(6) 0.30173(11) 0.28759(9)
O32C O 0.06996(6) 0.30173(11) 0.21241(9)
N1B N 0.11784(4) 0.03728(7) 0.43699(6)
N2B N 0.28713(4) -0.03025(7) 0.53422(7)
N3B N -0.09851(3) 0.76595(6) 0.30972(6)
N4B N -0.25314(4) 0.76833(7) 0.24124(6)
C1B C 0.02473(4) 0.24119(7) 0.38749(6)
C2B C 0.05563(4) 0.16559(7) 0.40363(7)
C3B C 0.08376(5) 0.13627(8) 0.35488(8)
H1B H 0.0815 0.1600 0.3103
C4B C 0.11497(5) 0.07178(8) 0.37332(8)
H2B H 0.1343 0.0520 0.3412
C5B C 0.08953(6) 0.06268(9) 0.48419(8)
H3B H 0.0913 0.0363 0.5277
C6B C 0.05811(5) 0.12726(8) 0.46830(7)
H4B H 0.0386 0.1451 0.5009
C7B C 0.15380(5) -0.02890(9) 0.45653(9)
H5B H 0.1581 -0.0606 0.4149
H6B H 0.1420 -0.0659 0.4901
C8B C 0.20226(5) 0.00813(9) 0.48906(8)
H7B H 0.2152 0.0428 0.4548
H8B H 0.1980 0.0418 0.5297
C9B C 0.23717(5) -0.06256(9) 0.51156(10)
H9B H 0.2263 -0.0925 0.5503
H10B H 0.2375 -0.1005 0.4724
C10B C 0.31778(5) -0.02415(8) 0.48694(8)
H11B H 0.3076 -0.0402 0.4405
C11B C 0.36407(5) 0.00548(8) 0.50586(7)
H12B H 0.3852 0.0097 0.4725
C12B C 0.37892(5) 0.02903(8) 0.57532(7)
C13B C 0.34674(5) 0.02158(9) 0.62405(8)
H13B H 0.3562 0.0366 0.6710
C14B C 0.30098(5) -0.00810(9) 0.60215(8)
H14B H 0.2792 -0.0131 0.6345
C15B C 0.42939(6) 0.06240(9) 0.59789(7)
C16B C -0.04593(7) 0.52296(9) 0.34958(7)
C17B C -0.06240(5) 0.61060(8) 0.33690(7)
C18B C -0.07724(4) 0.65763(8) 0.39055(7)
H15B H -0.0749 0.6367 0.4362
C19B C -0.09532(4) 0.73518(8) 0.37549(7)
H16B H -0.1055 0.7669 0.4111
C20B C -0.08174(4) 0.72326(8) 0.25776(7)
H17B H -0.0823 0.7468 0.2133
C21B C -0.06385(5) 0.64502(9) 0.27061(7)
H18B H -0.0527 0.6151 0.2347
C22B C -0.12411(4) 0.84594(8) 0.29226(8)
H19B H -0.1197 0.8629 0.2450
H20B H -0.1101 0.8881 0.3251
C23B C -0.17815(5) 0.83774(9) 0.29638(9)
H21B H -0.1830 0.8410 0.3455
H22B H -0.1952 0.8838 0.2716
C24B C -0.20015(4) 0.75777(8) 0.26505(8)
H23B H -0.1842 0.7417 0.2253
H24B H -0.1950 0.7143 0.3002
C25B C -0.28377(5) 0.77504(9) 0.28988(7)
H25B H -0.2720 0.7694 0.3377
C26B C -0.33207(5) 0.79016(9) 0.26844(7)
H26B H -0.3532 0.7948 0.3017
C27B C -0.34934(4) 0.79847(8) 0.19735(7)
C28B C -0.31797(5) 0.78808(8) 0.14823(7)
H27B H -0.3294 0.7910 0.1001
C29B C -0.26938(5) 0.77321(9) 0.17170(7)
H28B H -0.2478 0.7665 0.1392
C30B C -0.40151(4) 0.82319(9) 0.17305(7)
Cl1 Cl 0.343846(13) 0.23647(2) 0.068914(18)
O13 O 0.37290(5) 0.16874(7) 0.09700(8)
O14 O 0.36402(6) 0.27021(9) 0.01079(7)
O15 O 0.34326(4) 0.29935(6) 0.12188(5)
O16 O 0.29533(4) 0.21025(8) 0.04445(8)
Cl2 Cl -0.023260(11) 0.87054(2) 0.120053(18)
O17 O -0.01950(4) 0.78262(8) 0.12901(7)
O18 O -0.04510(5) 0.89045(11) 0.04974(7)
O19 O -0.05214(4) 0.90385(8) 0.16917(6)
O20 O 0.02474(4) 0.90540(7) 0.13177(6)
Cl3 Cl -0.24016(2) 0.47251(3) -0.20250(2)
O21 O -0.21264(15) 0.42521(15) -0.15491(13)
O22 O -0.21741(9) 0.53110(15) -0.24170(15)
O23 O -0.25995(9) 0.41869(12) -0.25473(15)
O24 O -0.26678(8) 0.52307(13) -0.16541(10)
O3 O 0.03496(5) 1.06618(8) 0.20305(7)
O6 O -0.34184(8) 0.46712(10) -0.36622(9)
O8 O 0.07949(6) 1.14052(9) 0.09673(8)
loop_
_geom_bond_atom_site_label_1
_geom_bond_atom_site_label_2
_geom_bond_site_symmetry_1
_geom_bond_site_symmetry_2
Gd1 O4 1_555 1_555
Cu1 O1 1_555 1_555
Cl1 O13 1_555 1_555
Cl2 O17 1_555 1_555
Cl3 O21 1_555 1_555
O2 Cu1 1_555 1_555
O4 C1 1_555 1_555
O5 C15 1_555 1_555
O7 C15 1_555 1_555
O9 Cu1 1_555 1_555
O10 Gd1 1_555 1_555
O11 C30 1_555 1_555
O14 Cl1 1_555 1_555
O15 Cl1 1_555 1_555
O16 Cl1 1_555 1_555
O18 Cl2 1_555 1_555
O19 Cl2 1_555 1_555
O20 Cl2 1_555 1_555
O22 Cl3 1_555 1_555
O23 Cl3 1_555 1_555
O24 Cl3 1_555 1_555
O32 C30 1_555 1_555
N1 C4 1_555 1_555
N2 C9 1_555 1_555
N3 C19 1_555 1_555
N4 C24 1_555 1_555
C1 O2 1_555 1_555
C2 C1 1_555 1_555
C3 C2 1_555 1_555
H1 C3 1_555 1_555
C4 C3 1_555 1_555
H2 C4 1_555 1_555
C5 N1 1_555 1_555
H3 C5 1_555 1_555
C6 C2 1_555 1_555
H4 C6 1_555 1_555
C7 N1 1_555 1_555
H5 C7 1_555 1_555
H6 C7 1_555 1_555
C8 C7 1_555 1_555
H7 C8 1_555 1_555
H8 C8 1_555 1_555
C9 C8 1_555 1_555
H9 C9 1_555 1_555
H10 C9 1_555 1_555
C10 N2 1_555 1_555
H11 C10 1_555 1_555
C11 C10 1_555 1_555
H12 C11 1_555 1_555
C12 C11 1_555 1_555
C13 C12 1_555 1_555
H13 C13 1_555 1_555
C14 N2 1_555 1_555
H14 C14 1_555 1_555
C15 C12 1_555 1_555
C16 O9 1_555 1_555
C17 C16 1_555 1_555
C18 C17 1_555 1_555
H15 C18 1_555 1_555
C19 C18 1_555 1_555
H16 C19 1_555 1_555
C20 N3 1_555 1_555
H17 C20 1_555 1_555
C21 C17 1_555 1_555
H18 C21 1_555 1_555
C22 N3 1_555 1_555
H19 C22 1_555 1_555
H20 C22 1_555 1_555
C23 C22 1_555 1_555
H21 C23 1_555 1_555
H22 C23 1_555 1_555
C24 C23 1_555 1_555
H23 C24 1_555 1_555
H24 C24 1_555 1_555
C25 N4 1_555 1_555
H25 C25 1_555 1_555
C26 C25 1_555 1_555
H26 C26 1_555 1_555
C27 C26 1_555 1_555
C28 C27 1_555 1_555
H27 C28 1_555 1_555
C29 N4 1_555 1_555
H28 C29 1_555 1_555
C30 C27 1_555 1_555
Gd1G O5 1_555 1_555
Gd1A O32 1_555 1_555
Gd1G_2 O5B 1_555 1_555
Gd1A_2 O32B 1_555 1_555
Cu1B O1B 1_555 1_555
Cu1E O7 1_555 1_555
Cu1C O11 1_555 1_555
Cu1G O7B 1_555 1_555
Cu1A O11B 1_555 1_555
O2B Cu1B 1_555 1_555
O4B Gd1 1_555 1_555
O5B C15B 1_555 1_555
O5G Gd1 1_555 1_555
O5E Gd1 1_555 1_555
O7B C15B 1_555 1_555
O7E Cu1 1_555 1_555
O7G Cu1B 1_555 1_555
O9B Cu1B 1_555 1_555
O10B Gd1 1_555 1_555
O11B C30B 1_555 1_555
O11C Cu1 1_555 1_555
O11A Cu1B 1_555 1_555
O32B C30B 1_555 1_555
O32A Gd1 1_555 1_555
O32C Gd1 1_555 1_555
N1B C4B 1_555 1_555
N2B C9B 1_555 1_555
N3B C19B 1_555 1_555
N4B C24B 1_555 1_555
C1B O2B 1_555 1_555
C2B C1B 1_555 1_555
C3B C2B 1_555 1_555
H1B C3B 1_555 1_555
C4B C3B 1_555 1_555
H2B C4B 1_555 1_555
C5B N1B 1_555 1_555
H3B C5B 1_555 1_555
C6B C2B 1_555 1_555
H4B C6B 1_555 1_555
C7B N1B 1_555 1_555
H5B C7B 1_555 1_555
H6B C7B 1_555 1_555
C8B C7B 1_555 1_555
H7B C8B 1_555 1_555
H8B C8B 1_555 1_555
C9B C8B 1_555 1_555
H9B C9B 1_555 1_555
H10B C9B 1_555 1_555
C10B N2B 1_555 1_555
H11B C10B 1_555 1_555
C11B C10B 1_555 1_555
H12B C11B 1_555 1_555
C12B C11B 1_555 1_555
C13B C12B 1_555 1_555
H13B C13B 1_555 1_555
C14B N2B 1_555 1_555
H14B C14B 1_555 1_555
C15B C12B 1_555 1_555
C16B O9B 1_555 1_555
C17B C16B 1_555 1_555
C18B C17B 1_555 1_555
H15B C18B 1_555 1_555
C19B C18B 1_555 1_555
H16B C19B 1_555 1_555
C20B N3B 1_555 1_555
H17B C20B 1_555 1_555
C21B C17B 1_555 1_555
H18B C21B 1_555 1_555
C22B N3B 1_555 1_555
H19B C22B 1_555 1_555
H20B C22B 1_555 1_555
C23B C22B 1_555 1_555
H21B C23B 1_555 1_555
H22B C23B 1_555 1_555
C24B C23B 1_555 1_555
H23B C24B 1_555 1_555
H24B C24B 1_555 1_555
C25B N4B 1_555 1_555
H25B C25B 1_555 1_555
C26B C25B 1_555 1_555
H26B C26B 1_555 1_555
C27B C26B 1_555 1_555
C28B C27B 1_555 1_555
H27B C28B 1_555 1_555
C29B N4B 1_555 1_555
H28B C29B 1_555 1_555
C30B C27B 1_555 1_555
O10 C16 1_555 1_555
C5 C6 1_555 1_555
C13 C14 1_555 1_555
C20 C21 1_555 1_555
C28 C29 1_555 1_555
O4B C1B 1_555 1_555
O10B C16B 1_555 1_555
C5B C6B 1_555 1_555
C13B C14B 1_555 1_555
C20B C21B 1_555 1_555
C28B C29B 1_555 1_555

#END
