
#######################################################################
#
#                 Cambridge Crystallographic Data Centre
#                                CCDC 
#
#######################################################################
#
# If this CIF has been generated from an entry in the Cambridge 
# Structural Database, then it will include bibliographic, chemical, 
# crystal, experimental, refinement or atomic coordinate data resulting 
# from the CCDC's data processing and validation procedures.
#
#######################################################################

data_IXECET
_chemical_formula_moiety         '(C24 H2 Al6 N4 Ni1 O25 P6 1-)n'
_symmetry_cell_setting           tetragonal
_symmetry_space_group_name_H-M   'P 4/n'
_symmetry_Int_Tables_number      85
_space_group_name_Hall           '-P 4a'
loop_
_symmetry_equiv_pos_site_id
_symmetry_equiv_pos_as_xyz
1 x,y,z
2 1/2-y,x,z
3 y,1/2-x,z
4 1/2+x,1/2+y,-z
5 -x,-y,-z
6 1/2+y,-x,-z
7 -y,1/2+x,-z
8 1/2-x,1/2-y,z
_cell_length_a                   18.6842(12)
_cell_length_b                   18.6842(12)
_cell_length_c                   9.4080(8)
_cell_angle_alpha                90
_cell_angle_beta                 90
_cell_angle_gamma                90
_cell_volume                     3284.33
loop_
_atom_site_label
_atom_site_type_symbol
_atom_site_fract_x
_atom_site_fract_y
_atom_site_fract_z
P1 P 0.06421(7) -0.05660(7) 0.33485(13)
O1 O 0.0734(2) -0.0812(2) 0.4871(3)
O2 O 0.0584(2) -0.1232(2) 0.2423(3)
O3 O 0.1286(2) -0.0112(2) 0.2933(4)
O4 O -0.0049(2) -0.0151(2) 0.3217(4)
Al1 Al 0.16453(6) 0.04424(6) 0.15671(11)
O5 O 0.1553(2) -0.0007(2) -0.0114(4)
O6 O 0.2560(2) 0.0629(2) 0.1917(4)
O7 O 0.3733(2) 0.1217(2) 0.1555(4)
P2 P 0.33331(7) 0.05057(7) 0.16026(14)
O8 O 0.3422(2) 0.0140(2) 0.0173(4)
O9 O 0.3638(2) 0.0048(2) 0.2781(3)
Al2 Al 0.06542(7) -0.16586(6) 0.08060(12)
O10 O 0.1376(2) -0.1335(2) -0.0173(4)
O11 O 0.2446(2) -0.0806(2) -0.1228(4)
P3 P 0.16652(7) -0.06778(7) -0.09574(13)
O12 O 0.1297(2) -0.0601(2) -0.2395(4)
Al3 Al 0.05063(6) -0.06639(7) 0.66453(12)
O7B O 0.1217(2) 0.1267(2) 0.1555(4)
Al1A Al 0.45576(6) 0.16453(6) 0.15671(11)
Al2E Al 0.33414(6) -0.06542(7) -0.08060(12)
Al3D Al -0.05063(6) 0.06639(7) 0.33547(12)
Al3E Al 0.43361(7) -0.05063(6) 0.33547(12)
Al3_2 Al 0.05063(6) -0.06639(7) -0.33547(12)
O6F O -0.0629(2) -0.2440(2) -0.1917(4)
O7F O -0.1217(2) -0.1267(2) -0.1555(4)
P2F P -0.05057(7) -0.16669(7) -0.16026(14)
O8F O -0.0140(2) -0.1578(2) -0.0173(4)
O9F O -0.0048(2) -0.1362(2) -0.2781(3)
O5F O 0.0007(2) -0.3447(2) 0.0114(4)
O10F O 0.1335(2) -0.3624(2) 0.0173(4)
O11F O 0.0806(2) -0.2554(2) 0.1228(4)
P3F P 0.06778(7) -0.33348(7) 0.09574(13)
O12F O 0.0601(2) -0.3703(2) 0.2395(4)
O4D O 0.0049(2) 0.0151(2) 0.6783(4)
O9F_2 O -0.0048(2) -0.1362(2) 0.7219(3)
O12_2 O 0.1297(2) -0.0601(2) 0.7605(4)
P1A P 0.55660(7) 0.06421(7) 0.33485(13)
O1A O 0.5812(2) 0.0734(2) 0.4871(3)
O2A O 0.6232(2) 0.0584(2) 0.2423(3)
O3A O 0.5112(2) 0.1286(2) 0.2933(4)
O4A O 0.5151(2) -0.0049(2) 0.3217(4)
O5A O 0.5007(2) 0.1553(2) -0.0114(4)
O6A O 0.4371(2) 0.2560(2) 0.1917(4)
O2E O 0.3768(2) -0.0584(2) -0.2423(3)
O10E O 0.3665(2) -0.1376(2) 0.0173(4)
O1E O 0.4188(2) -0.0734(2) 0.5129(3)
O12E O 0.4399(2) -0.1297(2) 0.2395(4)
Al1F Al -0.04424(6) -0.33547(6) -0.15671(11)
Al1D Al -0.16453(6) -0.04424(6) -0.15671(11)
Al2F Al 0.16586(6) -0.43458(7) -0.08060(12)
Al3F Al 0.06639(7) -0.44937(6) 0.33547(12)
Al3A Al 0.56639(7) 0.05063(6) 0.66453(12)
Al2A Al 0.66586(6) 0.06542(7) 0.08060(12)
O13 O 0.1210(12) -0.2502(13) 0.4968(24)
Ni1 Ni 0.2500 0.2500 0.6431(2)
N1 N 0.3249(4) 0.1754(4) 0.6432(8)
C1 C 0.3441(9) 0.1519(9) 0.7846(17)
C2 C 0.3004(10) 0.1021(9) 0.5602(18)
C3 C 0.2900(15) 0.1076(15) 0.6928(28)
C4 C 0.3909(10) 0.2030(10) 0.5519(21)
C5 C 0.2376(17) 0.0946(15) 0.6396(29)
C6 C 0.3432(15) 0.1518(15) 0.4809(32)
C5A C 0.4054(15) 0.2376(17) 0.6396(29)
C2A C 0.3979(9) 0.3004(10) 0.5602(18)
N1A N 0.3246(4) 0.3249(4) 0.6432(8)
C1A C 0.3481(9) 0.3441(9) 0.7846(17)
C3A C 0.3924(15) 0.2900(15) 0.6928(28)
C4A C 0.2970(10) 0.3909(10) 0.5519(21)
C5G C 0.2624(17) 0.4054(15) 0.6396(29)
C2G C 0.1996(10) 0.3979(9) 0.5602(18)
N1G N 0.1751(4) 0.3246(4) 0.6432(8)
C1G C 0.1559(9) 0.3481(9) 0.7846(17)
C3G C 0.2100(15) 0.3924(15) 0.6928(28)
C4G C 0.1091(10) 0.2970(10) 0.5519(21)
C5B C 0.0946(15) 0.2624(17) 0.6396(29)
C2B C 0.1021(9) 0.1996(10) 0.5602(18)
N1B N 0.1754(4) 0.1751(4) 0.6432(8)
C1B C 0.1519(9) 0.1559(9) 0.7846(17)
C3B C 0.1076(15) 0.2100(15) 0.6928(28)
C4B C 0.2030(10) 0.1091(10) 0.5519(21)
C6B C 0.1518(15) 0.1568(15) 0.4809(32)
C6G C 0.1568(15) 0.3482(15) 0.4809(32)
C6A C 0.3482(15) 0.3432(15) 0.4809(32)
loop_
_geom_bond_atom_site_label_1
_geom_bond_atom_site_label_2
_geom_bond_site_symmetry_1
_geom_bond_site_symmetry_2
Ni1 N1 1_555 1_555
N1 C1 1_555 1_555
C1 C3 1_555 1_555
C2 N1 1_555 1_555
C3 N1 1_555 1_555
C4 N1 1_555 1_555
C5 C2 1_555 1_555
C6 N1 1_555 1_555
P1 O1 1_555 1_555
O1 Al3 1_555 1_555
O2 P1 1_555 1_555
O3 P1 1_555 1_555
O4 P1 1_555 1_555
Al1 O3 1_555 1_555
O5 Al1 1_555 1_555
O6 Al1 1_555 1_555
O7 P2 1_555 1_555
P2 O6 1_555 1_555
O8 P2 1_555 1_555
O9 P2 1_555 1_555
Al2 O2 1_555 1_555
O10 Al2 1_555 1_555
O11 P3 1_555 1_555
P3 O5 1_555 1_555
O12 P3 1_555 1_555
Al3 O4D 1_555 1_555
C5A C4 1_555 1_555
C2A C5A 1_555 1_555
N1A Ni1 1_555 1_555
C1A N1A 1_555 1_555
C3A C5A 1_555 1_555
C4A N1A 1_555 1_555
C5G C4A 1_555 1_555
C2G C5G 1_555 1_555
N1G Ni1 1_555 1_555
C1G N1G 1_555 1_555
C3G C5G 1_555 1_555
C4G N1G 1_555 1_555
C5B C4G 1_555 1_555
C2B C5B 1_555 1_555
N1B Ni1 1_555 1_555
C1B N1B 1_555 1_555
C3B C5B 1_555 1_555
C4B C5 1_555 1_555
C6B C2B 1_555 1_555
C6G C2G 1_555 1_555
C6A C2A 1_555 1_555
O7B Al1 1_555 1_555
Al1A O7 1_555 1_555
Al2E O8 1_555 1_555
Al3D O4 1_555 1_555
Al3E O9 1_555 1_555
Al3_2 O12 1_555 1_555
O6F P2F 1_555 1_555
O7F P2F 1_555 1_555
P2F O8F 1_555 1_555
O8F Al2 1_555 1_555
O9F Al3_2 1_555 1_555
O5F P3F 1_555 1_555
O10F P3F 1_555 1_555
O11F Al2 1_555 1_555
P3F O11F 1_555 1_555
O12F P3F 1_555 1_555
O9F_2 Al3 1_555 1_555
O12_2 Al3 1_555 1_555
P1A O1A 1_555 1_555
O1A Al3A 1_555 1_555
O2A P1A 1_555 1_555
O3A Al1A 1_555 1_555
O4A Al3E 1_555 1_555
O5A Al1A 1_555 1_555
O6A Al1A 1_555 1_555
O2E Al2E 1_555 1_555
O10E Al2E 1_555 1_555
O1E Al3E 1_555 1_555
O12E Al3E 1_555 1_555
Al1F O6F 1_555 1_555
Al1D O7F 1_555 1_555
Al2F O10F 1_555 1_555
Al3F O12F 1_555 1_555
Al2A O2A 1_555 1_555
C2 C6 1_555 1_555
C2 C3 1_555 1_555
C3 C5 1_555 1_555
C4 C6 1_555 1_555
O10 P3 1_555 1_555
O11 Al2E 1_555 1_555
C2A N1A 1_555 1_555
C2A C3A 1_555 1_555
N1A C3A 1_555 1_555
N1A C6A 1_555 1_555
C1A C3A 1_555 1_555
C4A C6A 1_555 1_555
C2G N1G 1_555 1_555
C2G C3G 1_555 1_555
N1G C3G 1_555 1_555
N1G C6G 1_555 1_555
C1G C3G 1_555 1_555
C4G C6G 1_555 1_555
C2B N1B 1_555 1_555
C2B C3B 1_555 1_555
N1B C4B 1_555 1_555
N1B C3B 1_555 1_555
N1B C6B 1_555 1_555
C1B C3B 1_555 1_555
C4B C6B 1_555 1_555
P2F O9F 1_555 1_555
O5F Al1F 1_555 1_555
P1A O3A 1_555 1_555
P1A O4A 1_555 1_555

#END
