
#######################################################################
#
#                 Cambridge Crystallographic Data Centre
#                                CCDC 
#
#######################################################################
#
# If this CIF has been generated from an entry in the Cambridge 
# Structural Database, then it will include bibliographic, chemical, 
# crystal, experimental, refinement or atomic coordinate data resulting 
# from the CCDC's data processing and validation procedures.
#
#######################################################################

data_TIXCEK
_chemical_formula_moiety         '(C15 H10 N6 Zn1)n'
_symmetry_cell_setting           tetragonal
_symmetry_space_group_name_H-M   'I 41/a'
_symmetry_Int_Tables_number      88
_space_group_name_Hall           '-I 4ad'
loop_
_symmetry_equiv_pos_site_id
_symmetry_equiv_pos_as_xyz
1 x,y,z
2 1/2-x,-y,1/2+z
3 3/4-y,1/4+x,1/4+z
4 3/4+y,3/4-x,3/4+z
5 1/2+x,1/2+y,1/2+z
6 -x,1/2-y,z
7 1/4-y,3/4+x,3/4+z
8 1/4+y,1/4-x,1/4+z
9 -x,-y,-z
10 1/2+x,y,1/2-z
11 1/4+y,3/4-x,3/4-z
12 1/4-y,1/4+x,1/4-z
13 1/2-x,1/2-y,1/2-z
14 x,1/2+y,-z
15 3/4+y,1/4-x,1/4-z
16 3/4-y,3/4+x,3/4-z
_cell_length_a                   23.4346(12)
_cell_length_b                   23.4346(12)
_cell_length_c                   14.9150(15)
_cell_angle_alpha                90
_cell_angle_beta                 90
_cell_angle_gamma                90
_cell_volume                     8191.03
loop_
_atom_site_label
_atom_site_type_symbol
_atom_site_fract_x
_atom_site_fract_y
_atom_site_fract_z
_atom_site_U_iso_or_equiv
_atom_site_thermal_displace_type
Zn1 Zn 0.375758(14) 1.047272(15) 1.15967(2) 0.0224 Uani
N1 N 0.35815(10) 0.96652(10) 1.19511(16) 0.0269 Uani
N2 N 0.32072(10) 0.90392(10) 1.29173(15) 0.0242 Uani
N3 N 0.19182(10) 0.87030(11) 0.88460(17) 0.0286 Uani
N4 N 0.16938(10) 0.91103(10) 0.75414(15) 0.0252 Uani
N5 N 0.45406(11) 0.93264(12) 0.77357(17) 0.0313 Uani
H1 H 0.4290(18) 0.9327(18) 0.727(2) 0.1500 Uiso
N6 N 0.54150(10) 0.93725(11) 0.82949(16) 0.0305 Uani
C1 C 0.34014(12) 0.91666(12) 1.04850(19) 0.0233 Uani
C2 C 0.29085(12) 0.90662(13) 0.99919(19) 0.0256 Uani
H2 H 0.2562 0.9024 1.0288 0.0310 Uiso
C3 C 0.29262(12) 0.90273(12) 0.90641(18) 0.0219 Uani
C4 C 0.34505(12) 0.90698(12) 0.86329(19) 0.0235 Uani
H3 H 0.3468 0.9023 0.8014 0.0280 Uiso
C5 C 0.39480(12) 0.91812(13) 0.91076(19) 0.0228 Uani
C6 C 0.39145(12) 0.92347(12) 1.00375(19) 0.0250 Uani
H4 H 0.4243 0.9318 1.0363 0.0300 Uiso
C7 C 0.33683(12) 0.92099(12) 1.14707(19) 0.0238 Uani
C8 C 0.23973(12) 0.89811(12) 0.85370(18) 0.0223 Uani
C9 C 0.44950(12) 0.92600(13) 0.86478(19) 0.0244 Uani
C10 C 0.31406(13) 0.88357(13) 1.2066(2) 0.0282 Uani
H5 H 0.2966 0.8492 1.1917 0.0340 Uiso
C11 C 0.34698(13) 0.95347(13) 1.2801(2) 0.0298 Uani
H6 H 0.3568 0.9772 1.3276 0.0360 Uiso
C12 C 0.15127(13) 0.87926(13) 0.8226(2) 0.0307 Uani
H7 H 0.1144 0.8648 0.8270 0.0370 Uiso
C13 C 0.22558(12) 0.92256(13) 0.77450(19) 0.0286 Uani
H8 H 0.2502 0.9440 0.7390 0.0340 Uiso
C14 C 0.50961(13) 0.93953(14) 0.7569(2) 0.0333 Uani
H9 H 0.5243 0.9453 0.6997 0.0400 Uiso
C15 C 0.50308(12) 0.92901(14) 0.8985(2) 0.0310 Uani
H10 H 0.5125 0.9260 0.9589 0.0370 Uiso
Zn1A Zn 0.124242(14) 0.952728(15) 0.65967(2) 0.0224 Uani
Zn1G Zn 0.297272(15) 0.874242(14) 1.40967(2) 0.0224 Uani
Zn1H Zn 0.624242(14) 0.952728(15) 0.84033(2) 0.0224 Uani
N2F N 0.34608(10) 1.07072(10) 1.04173(15) 0.0242 Uani
N4A N 0.33062(10) 1.08897(10) 1.25414(15) 0.0252 Uani
N6H N 0.45850(10) 1.06275(11) 1.17051(16) 0.0305 Uani
loop_
_atom_site_aniso_label
_atom_site_aniso_U_11
_atom_site_aniso_U_22
_atom_site_aniso_U_33
_atom_site_aniso_U_23
_atom_site_aniso_U_13
_atom_site_aniso_U_12
Zn1 0.0185(2) 0.0306(2) 0.0181(2) 0.00118(15) 0.00101(14) -0.00141(15)
N1 0.0313(15) 0.0287(14) 0.0207(14) 0.0035(11) -0.0007(11) -0.0051(12)
N2 0.0307(14) 0.0270(14) 0.0149(13) 0.0025(11) -0.0007(11) -0.0037(12)
N3 0.0240(14) 0.0337(15) 0.0281(14) 0.0052(12) -0.0041(12) -0.0059(12)
N4 0.0175(13) 0.0346(15) 0.0235(14) 0.0055(12) -0.0065(11) 0.0002(11)
N5 0.0206(14) 0.0507(18) 0.0227(15) 0.0043(13) 0.0016(12) -0.0002(13)
N6 0.0179(13) 0.0449(17) 0.0288(15) 0.0043(13) 0.0000(11) -0.0022(12)
C1 0.0247(16) 0.0238(16) 0.0213(16) 0.0031(13) -0.0043(13) -0.0005(13)
C2 0.0207(15) 0.0338(18) 0.0223(17) 0.0002(14) 0.0037(13) -0.0021(14)
C3 0.0225(15) 0.0218(15) 0.0213(16) 0.0023(13) -0.0012(13) -0.0016(13)
C4 0.0236(16) 0.0277(17) 0.0193(15) 0.0011(13) 0.0013(13) 0.0010(14)
C5 0.0178(15) 0.0299(17) 0.0206(16) -0.0016(13) 0.0033(12) 0.0020(13)
C6 0.0203(16) 0.0301(17) 0.0245(17) -0.0011(13) -0.0028(13) -0.0022(14)
C7 0.0197(15) 0.0304(17) 0.0212(16) -0.0005(13) 0.0005(13) -0.0002(14)
C8 0.0185(15) 0.0280(17) 0.0204(16) -0.0006(13) 0.0019(12) -0.0016(13)
C9 0.0232(16) 0.0305(17) 0.0196(16) -0.0011(13) 0.0001(13) -0.0018(14)
C10 0.0281(17) 0.0321(18) 0.0245(17) 0.0009(14) -0.0026(14) -0.0068(14)
C11 0.0359(19) 0.0330(18) 0.0204(17) 0.0023(14) -0.0040(14) -0.0049(15)
C12 0.0221(17) 0.0348(19) 0.0351(19) 0.0058(15) -0.0032(14) -0.0051(15)
C13 0.0214(16) 0.0380(19) 0.0263(17) 0.0048(15) -0.0013(14) -0.0061(15)
C14 0.0271(18) 0.052(2) 0.0207(17) 0.0030(15) 0.0048(14) -0.0015(16)
C15 0.0201(16) 0.054(2) 0.0189(16) 0.0027(15) 0.0005(13) -0.0038(15)
Zn1A 0.0185 0.0306 0.0181 -0.00118 -0.00101 -0.00141
Zn1G 0.0306 0.0185 0.0181 -0.00101 0.00118 0.00141
Zn1H 0.0185 0.0306 0.0181 0.00118 0.00101 -0.00141
N2F 0.027 0.0307 0.0149 -0.0007 -0.0025 0.0037
N4A 0.0175 0.0346 0.0235 -0.0055 0.0065 0.0002
N6H 0.0179 0.0449 0.0288 0.0043 0 -0.0022
loop_
_geom_bond_atom_site_label_1
_geom_bond_atom_site_label_2
_geom_bond_site_symmetry_1
_geom_bond_site_symmetry_2
Zn1 N1 1_555 1_555
N1 C7 1_555 1_555
N2 C10 1_555 1_555
N3 C8 1_555 1_555
N4 C12 1_555 1_555
N5 H1 1_555 1_555
N6 C14 1_555 1_555
C1 C2 1_555 1_555
C2 H2 1_555 1_555
C3 C2 1_555 1_555
C4 C3 1_555 1_555
H3 C4 1_555 1_555
C5 C4 1_555 1_555
C6 C1 1_555 1_555
H4 C6 1_555 1_555
C7 C1 1_555 1_555
C8 C3 1_555 1_555
C9 N5 1_555 1_555
C10 C7 1_555 1_555
H5 C10 1_555 1_555
C11 N1 1_555 1_555
H6 C11 1_555 1_555
C12 N3 1_555 1_555
H7 C12 1_555 1_555
C13 N4 1_555 1_555
H8 C13 1_555 1_555
C14 N5 1_555 1_555
H9 C14 1_555 1_555
C15 N6 1_555 1_555
H10 C15 1_555 1_555
Zn1A N4 1_555 1_555
Zn1G N2 1_555 1_555
Zn1H N6 1_555 1_555
N2F Zn1 1_555 1_555
N4A Zn1 1_555 1_555
N6H Zn1 1_555 1_555
N2 C11 1_555 1_555
C5 C6 1_555 1_555
C5 C9 1_555 1_555
C8 C13 1_555 1_555
C9 C15 1_555 1_555

#END
