
#######################################################################
#
#                 Cambridge Crystallographic Data Centre
#                                CCDC 
#
#######################################################################
#
# If this CIF has been generated from an entry in the Cambridge 
# Structural Database, then it will include bibliographic, chemical, 
# crystal, experimental, refinement or atomic coordinate data resulting 
# from the CCDC's data processing and validation procedures.
#
#######################################################################

data_PEVXAQ
_chemical_formula_moiety         '(C74 H66 N32 Ni4 O25)n'
_symmetry_cell_setting           monoclinic
_symmetry_space_group_name_H-M   'P 21/c'
_symmetry_Int_Tables_number      14
_space_group_name_Hall           '-P 2ybc'
loop_
_symmetry_equiv_pos_site_id
_symmetry_equiv_pos_as_xyz
1 x,y,z
2 -x,1/2+y,1/2-z
3 -x,-y,-z
4 x,1/2-y,1/2+z
_cell_length_a                   16.3181(10)
_cell_length_b                   14.9976(8)
_cell_length_c                   19.6917(11)
_cell_angle_alpha                90
_cell_angle_beta                 98.360(2)
_cell_angle_gamma                90
_cell_volume                     4767.99
loop_
_atom_site_label
_atom_site_type_symbol
_atom_site_fract_x
_atom_site_fract_y
_atom_site_fract_z
Ni1 Ni 0.12095(4) 0.25661(4) 0.24314(3)
Ni2 Ni 0.62485(4) 0.25568(4) 0.76075(3)
O1 O 0.1821(2) 0.2726(3) 0.15476(18)
O2 O 0.2502(2) 0.2508(3) 0.25588(18)
O3 O 0.3176(2) 0.2630(3) 0.1685(2)
O4 O -0.0044(2) 0.2637(3) 0.21743(18)
O5 O 0.0056(2) 0.2873(3) 0.1102(2)
O6 O -0.1143(2) 0.2810(3) 0.1431(2)
O7 O 0.4954(2) 0.2516(3) 0.75200(19)
O8 O 0.5663(2) 0.2932(2) 0.84726(18)
O9 O 0.4310(2) 0.2925(3) 0.8368(2)
O10 O 0.7505(2) 0.2639(3) 0.78680(19)
O11 O 0.7378(2) 0.3095(3) 0.8895(2)
O12 O 0.8575(2) 0.2730(3) 0.8640(2)
N1 N 0.1150(3) 0.2387(3) 0.3458(2)
N2 N 0.3374(3) 0.2426(4) 0.4786(2)
N3 N 0.4074(3) 0.2378(4) 0.5289(2)
N4 N 0.6293(3) 0.2202(3) 0.6609(2)
N5 N 0.1192(3) 0.1191(3) 0.2227(2)
N6 N 0.0134(4) 0.0212(4) 0.0321(3)
N7 N 0.6171(3) 0.3921(3) 0.7287(3)
N8 N 0.5134(4) 0.4800(5) 0.5318(4)
N9 N 0.1260(3) 0.3963(3) 0.2552(2)
N10 N 0.2326(3) 0.5110(4) 0.4362(3)
N11 N 0.2602(3) 0.5518(3) 0.5004(3)
N12 N 0.3687(3) 0.6235(3) 0.7025(2)
N13 N 0.2528(3) 0.2624(3) 0.1921(2)
N14 N -0.0382(3) 0.2773(3) 0.1551(3)
N15 N 0.4955(3) 0.2795(3) 0.8129(2)
N16 N 0.7822(3) 0.2829(3) 0.8483(2)
C1 C 0.0441(3) 0.2391(4) 0.3726(3)
H1 H -0.0069 0.2423 0.3424
C2 C 0.0423(3) 0.2353(4) 0.4419(3)
H2 H -0.0090 0.2341 0.4593
C3 C 0.1164(3) 0.2331(4) 0.4861(3)
H3 H 0.1167 0.2315 0.5343
C4 C 0.1900(3) 0.2333(4) 0.4591(3)
C5 C 0.1868(3) 0.2345(4) 0.3891(3)
H4 H 0.2373 0.2323 0.3704
C6 C 0.2706(3) 0.2307(4) 0.5037(3)
H5 H 0.2728 0.2201 0.5515
C7 C 0.4727(3) 0.2232(4) 0.5029(3)
H6 H 0.4698 0.2156 0.4547
C8 C 0.6999(3) 0.2207(3) 0.6333(3)
H7 H 0.7512 0.2225 0.6631
C9 C 0.7010(3) 0.2186(4) 0.5640(3)
H8 H 0.7521 0.2179 0.5464
C10 C 0.6274(3) 0.2177(4) 0.5203(3)
H9 H 0.6269 0.2166 0.4720
C11 C 0.5535(3) 0.2183(4) 0.5479(3)
C12 C 0.5570(3) 0.2165(4) 0.6180(3)
H10 H 0.5068 0.2126 0.6369
C13 C 0.1537(4) 0.0605(4) 0.2697(3)
H11 H 0.1778 0.0814 0.3137
C14 C 0.1550(5) -0.0298(5) 0.2556(4)
H12 H 0.1781 -0.0702 0.2904
C15 C 0.1234(5) -0.0615(4) 0.1923(4)
H13 H 0.1251 -0.1233 0.1821
C16 C 0.0886(4) -0.0010(4) 0.1433(4)
C17 C 0.0881(3) 0.0892(4) 0.1609(3)
H14 H 0.0644 0.1308 0.1273
C18 C 0.0534(4) -0.0309(5) 0.0740(4)
H15 H 0.0612 -0.0909 0.0609
C19 C 0.6455(4) 0.4526(4) 0.7749(4)
H16 H 0.6672 0.4334 0.8199
C20 C 0.6448(5) 0.5438(5) 0.7601(5)
H17 H 0.6640 0.5857 0.7950
C21 C 0.6165(5) 0.5720(5) 0.6956(5)
H18 H 0.6180 0.6335 0.6844
C22 C 0.5850(4) 0.5094(5) 0.6456(4)
C23 C 0.5860(4) 0.4189(4) 0.6652(4)
H19 H 0.5639 0.3756 0.6324
C24 C 0.5499(5) 0.5338(6) 0.5747(5)
H20 H 0.5552 0.5939 0.5607
C25 C 0.0951(4) 0.4501(4) 0.2038(3)
H21 H 0.0734 0.4244 0.1608
C26 C 0.0935(4) 0.5410(4) 0.2105(3)
H22 H 0.0712 0.5766 0.1724
C27 C 0.1234(4) 0.5810(4) 0.2713(3)
H23 H 0.1215 0.6439 0.2766
C28 C 0.1568(3) 0.5264(4) 0.3253(3)
C29 C 0.1567(3) 0.4345(4) 0.3148(3)
H24 H 0.1796 0.3972 0.3518
C30 C 0.1909(4) 0.5614(4) 0.3934(3)
H25 H 0.1815 0.6217 0.4049
C31 C 0.2964(4) 0.4964(4) 0.5419(3)
H26 H 0.3008 0.4368 0.5264
C32 C 0.3950(4) 0.5557(4) 0.7442(3)
H27 H 0.4179 0.5687 0.7903
C33 C 0.3907(4) 0.4680(4) 0.7236(4)
H28 H 0.4088 0.4217 0.7551
C34 C 0.3602(4) 0.4488(4) 0.6578(3)
H29 H 0.3578 0.3887 0.6424
C35 C 0.3323(4) 0.5173(4) 0.6124(3)
C36 C 0.3379(3) 0.6043(4) 0.6380(3)
H30 H 0.3188 0.6519 0.6080
Ni1B Ni -0.12095(4) -0.25661(4) -0.24314(3)
Ni1A Ni 0.87905(4) -0.24339(4) 1.25686(3)
Ni2A Ni 0.37515(4) 0.75568(4) 0.73925(3)
Ni2B Ni 0.37515(4) 0.74432(4) 0.23925(3)
Ni2B_2 Ni -0.62485(4) -0.25568(4) -0.76075(3)
O1B O -0.1821(2) -0.2726(3) -0.15476(18)
O2B O -0.2502(2) -0.2508(3) -0.25588(18)
O3B O -0.3176(2) -0.2630(3) -0.1685(2)
O4B O 0.0044(2) -0.2637(3) -0.21743(18)
O5B O -0.0056(2) -0.2873(3) -0.1102(2)
O6B O 0.1143(2) -0.2810(3) -0.1431(2)
O7A O 0.5046(2) 0.7516(3) 0.74800(19)
O8A O 0.4337(2) 0.7932(2) 0.65274(18)
O9A O 0.5690(2) 0.7925(3) 0.6632(2)
O10A O 0.2495(2) 0.7639(3) 0.71320(19)
O11A O 0.2622(2) 0.8095(3) 0.6105(2)
O12A O 0.1425(2) 0.7730(3) 0.6360(2)
N1B N -0.1150(3) -0.2387(3) -0.3458(2)
N2B N -0.3374(3) -0.2426(4) -0.4786(2)
N3B N -0.4074(3) -0.2378(4) -0.5289(2)
N4B N -0.6293(3) -0.2202(3) -0.6609(2)
N4A N 0.3707(3) 0.7202(3) 0.8391(2)
N5B N -0.1192(3) -0.1191(3) -0.2227(2)
N6B N -0.0134(4) -0.0212(4) -0.0321(3)
N7B N 0.3829(3) 0.6079(3) 0.2713(3)
N7A N 0.3829(3) 0.8921(3) 0.7713(3)
N8B N 0.4866(4) 0.5200(5) 0.4682(4)
N9A N 0.8740(3) -0.1037(3) 1.2448(2)
N9B N -0.1260(3) -0.3963(3) -0.2552(2)
N10A N 0.7674(3) 0.0110(4) 1.0638(3)
N11A N 0.7398(3) 0.0518(3) 0.9996(3)
N12A N 0.6313(3) 0.1235(3) 0.7975(2)
N13B N -0.2528(3) -0.2624(3) -0.1921(2)
N14B N 0.0382(3) -0.2773(3) -0.1551(3)
N15A N 0.5045(3) 0.7795(3) 0.6871(2)
N16A N 0.2178(3) 0.7829(3) 0.6517(2)
C1B C -0.0441(3) -0.2391(4) -0.3726(3)
H1B H 0.0069 -0.2423 -0.3424
C2B C -0.0423(3) -0.2353(4) -0.4419(3)
H2B H 0.0090 -0.2341 -0.4593
C3B C -0.1164(3) -0.2331(4) -0.4861(3)
H3B H -0.1167 -0.2315 -0.5343
C4B C -0.1900(3) -0.2333(4) -0.4591(3)
C5B C -0.1868(3) -0.2345(4) -0.3891(3)
H4B H -0.2373 -0.2323 -0.3704
C6B C -0.2706(3) -0.2307(4) -0.5037(3)
H5B H -0.2728 -0.2201 -0.5515
C7B C -0.4727(3) -0.2232(4) -0.5029(3)
H6B H -0.4698 -0.2156 -0.4547
C8B C -0.6999(3) -0.2207(3) -0.6333(3)
H7B H -0.7512 -0.2225 -0.6631
C9B C -0.7010(3) -0.2186(4) -0.5640(3)
H8B H -0.7521 -0.2179 -0.5464
C10B C -0.6274(3) -0.2177(4) -0.5203(3)
H9B H -0.6269 -0.2166 -0.4720
C11B C -0.5535(3) -0.2183(4) -0.5479(3)
C12B C -0.5570(3) -0.2165(4) -0.6180(3)
H10B H -0.5068 -0.2126 -0.6369
C13B C -0.1537(4) -0.0605(4) -0.2697(3)
H11B H -0.1778 -0.0814 -0.3137
C14B C -0.1550(5) 0.0298(5) -0.2556(4)
H12B H -0.1781 0.0702 -0.2904
C15B C -0.1234(5) 0.0615(4) -0.1923(4)
H13B H -0.1251 0.1233 -0.1821
C16B C -0.0886(4) 0.0010(4) -0.1433(4)
C17B C -0.0881(3) -0.0892(4) -0.1609(3)
H14B H -0.0644 -0.1308 -0.1273
C18B C -0.0534(4) 0.0309(5) -0.0740(4)
H15B H -0.0612 0.0909 -0.0609
C19B C 0.3545(4) 0.5474(4) 0.2251(4)
H16B H 0.3328 0.5666 0.1801
C20B C 0.3552(5) 0.4562(5) 0.2399(5)
H17B H 0.3360 0.4143 0.2050
C21B C 0.3835(5) 0.4280(5) 0.3044(5)
H18B H 0.3820 0.3665 0.3156
C22B C 0.4150(4) 0.4906(5) 0.3544(4)
C23B C 0.4140(4) 0.5811(4) 0.3348(4)
H19B H 0.4361 0.6244 0.3676
C24B C 0.4501(5) 0.4662(6) 0.4253(5)
H20B H 0.4448 0.4061 0.4393
C25A C 0.9049(4) -0.0499(4) 1.2962(3)
H21A H 0.9266 -0.0756 1.3392
C26A C 0.9065(4) 0.0410(4) 1.2895(3)
H22A H 0.9288 0.0766 1.3276
C27A C 0.8766(4) 0.0810(4) 1.2287(3)
H23A H 0.8785 0.1439 1.2234
C28A C 0.8432(3) 0.0264(4) 1.1747(3)
C29A C 0.8433(3) -0.0655(4) 1.1852(3)
H24A H 0.8204 -0.1028 1.1482
C30A C 0.8091(4) 0.0614(4) 1.1066(3)
H25A H 0.8185 0.1217 1.0951
C31A C 0.7036(4) -0.0036(4) 0.9581(3)
H26A H 0.6992 -0.0632 0.9736
C32A C 0.6050(4) 0.0557(4) 0.7558(3)
H27A H 0.5821 0.0687 0.7097
C33A C 0.6093(4) -0.0320(4) 0.7764(4)
H28A H 0.5912 -0.0783 0.7449
C34A C 0.6398(4) -0.0512(4) 0.8422(3)
H29A H 0.6422 -0.1113 0.8576
C35A C 0.6677(4) 0.0173(4) 0.8876(3)
C36A C 0.6621(3) 0.1043(4) 0.8620(3)
H30A H 0.6812 0.1519 0.8920
O13 O 0.7537(16) 0.5127(19) 1.0656(14)
H31 H 0.7671 0.5758 1.0750
C37 C 0.7838(17) 0.487(3) 1.0042(16)
H32 H 0.7725 0.5354 0.9700
H33 H 0.7532 0.4333 0.9852
C38 C 0.8740(15) 0.4671(19) 1.0148(13)
H34 H 0.8884 0.4123 0.9921
H35 H 0.8880 0.4602 1.0646
H36 H 0.9052 0.5172 0.9995
loop_
_geom_bond_atom_site_label_1
_geom_bond_atom_site_label_2
_geom_bond_site_symmetry_1
_geom_bond_site_symmetry_2
Ni1 O1 1_555 1_555
Ni2 O7 1_555 1_555
O1 N13 1_555 1_555
O2 Ni1 1_555 1_555
O3 N13 1_555 1_555
O4 Ni1 1_555 1_555
O5 N14 1_555 1_555
O6 N14 1_555 1_555
O7 N15 1_555 1_555
O8 Ni2 1_555 1_555
O9 N15 1_555 1_555
O10 Ni2 1_555 1_555
O11 N16 1_555 1_555
O12 N16 1_555 1_555
N1 Ni1 1_555 1_555
N2 N3 1_555 1_555
N3 C7 1_555 1_555
N4 Ni2 1_555 1_555
N5 Ni1 1_555 1_555
N6 C18 1_555 1_555
N7 Ni2 1_555 1_555
N8 C24 1_555 1_555
N9 Ni1 1_555 1_555
N10 N11 1_555 1_555
N11 C31 1_555 1_555
N12 C32 1_555 1_555
N13 O2 1_555 1_555
N14 O4 1_555 1_555
N15 O8 1_555 1_555
N16 O10 1_555 1_555
C1 N1 1_555 1_555
H1 C1 1_555 1_555
C2 C1 1_555 1_555
H2 C2 1_555 1_555
C3 C2 1_555 1_555
H3 C3 1_555 1_555
C4 C3 1_555 1_555
C5 N1 1_555 1_555
H4 C5 1_555 1_555
C6 N2 1_555 1_555
H5 C6 1_555 1_555
C7 H6 1_555 1_555
C8 N4 1_555 1_555
H7 C8 1_555 1_555
C9 C8 1_555 1_555
H8 C9 1_555 1_555
C10 C9 1_555 1_555
H9 C10 1_555 1_555
C11 C7 1_555 1_555
C12 N4 1_555 1_555
H10 C12 1_555 1_555
C13 N5 1_555 1_555
H11 C13 1_555 1_555
C14 C13 1_555 1_555
H12 C14 1_555 1_555
C15 C14 1_555 1_555
H13 C15 1_555 1_555
C16 C15 1_555 1_555
C17 N5 1_555 1_555
H14 C17 1_555 1_555
C18 C16 1_555 1_555
H15 C18 1_555 1_555
C19 N7 1_555 1_555
H16 C19 1_555 1_555
C20 C19 1_555 1_555
H17 C20 1_555 1_555
C21 C20 1_555 1_555
H18 C21 1_555 1_555
C22 C21 1_555 1_555
C23 N7 1_555 1_555
H19 C23 1_555 1_555
C24 C22 1_555 1_555
H20 C24 1_555 1_555
C25 N9 1_555 1_555
H21 C25 1_555 1_555
C26 C25 1_555 1_555
H22 C26 1_555 1_555
C27 C26 1_555 1_555
H23 C27 1_555 1_555
C28 C27 1_555 1_555
C29 N9 1_555 1_555
H24 C29 1_555 1_555
C30 N10 1_555 1_555
H25 C30 1_555 1_555
C31 H26 1_555 1_555
C32 H27 1_555 1_555
C33 C32 1_555 1_555
H28 C33 1_555 1_555
C34 C33 1_555 1_555
H29 C34 1_555 1_555
C35 C31 1_555 1_555
C36 N12 1_555 1_555
H30 C36 1_555 1_555
O13 H31 1_555 1_555
C37 O13 1_555 1_555
H32 C37 1_555 1_555
H33 C37 1_555 1_555
C38 C37 1_555 1_555
H34 C38 1_555 1_555
H35 C38 1_555 1_555
H36 C38 1_555 1_555
Ni1B O1B 1_555 1_555
Ni1A N9A 1_555 1_555
Ni2A N12 1_555 1_555
Ni2B N7B 1_555 1_555
Ni2B_2 N4B 1_555 1_555
O1B N13B 1_555 1_555
O2B Ni1B 1_555 1_555
O3B N13B 1_555 1_555
O4B Ni1B 1_555 1_555
O5B N14B 1_555 1_555
O6B N14B 1_555 1_555
O7A Ni2A 1_555 1_555
O8A Ni2A 1_555 1_555
O9A N15A 1_555 1_555
O10A Ni2A 1_555 1_555
O11A N16A 1_555 1_555
O12A N16A 1_555 1_555
N1B Ni1B 1_555 1_555
N2B N3B 1_555 1_555
N3B C7B 1_555 1_555
N4B C8B 1_555 1_555
N4A Ni2A 1_555 1_555
N5B Ni1B 1_555 1_555
N6B N6 1_555 1_555
N7B C19B 1_555 1_555
N7A Ni2A 1_555 1_555
N8B N8 1_555 1_555
N9A C25A 1_555 1_555
N9B Ni1B 1_555 1_555
N10A N11A 1_555 1_555
N11A C31A 1_555 1_555
N12A Ni2 1_555 1_555
N13B O2B 1_555 1_555
N14B O4B 1_555 1_555
N15A O7A 1_555 1_555
N16A O10A 1_555 1_555
C1B N1B 1_555 1_555
H1B C1B 1_555 1_555
C2B C1B 1_555 1_555
H2B C2B 1_555 1_555
C3B C2B 1_555 1_555
H3B C3B 1_555 1_555
C4B C3B 1_555 1_555
C5B N1B 1_555 1_555
H4B C5B 1_555 1_555
C6B N2B 1_555 1_555
H5B C6B 1_555 1_555
C7B H6B 1_555 1_555
C8B H7B 1_555 1_555
C9B C8B 1_555 1_555
H8B C9B 1_555 1_555
C10B C9B 1_555 1_555
H9B C10B 1_555 1_555
C11B C7B 1_555 1_555
C12B N4B 1_555 1_555
H10B C12B 1_555 1_555
C13B N5B 1_555 1_555
H11B C13B 1_555 1_555
C14B C13B 1_555 1_555
H12B C14B 1_555 1_555
C15B C14B 1_555 1_555
H13B C15B 1_555 1_555
C16B C15B 1_555 1_555
C17B N5B 1_555 1_555
H14B C17B 1_555 1_555
C18B N6B 1_555 1_555
H15B C18B 1_555 1_555
C19B H16B 1_555 1_555
C20B C19B 1_555 1_555
H17B C20B 1_555 1_555
C21B C20B 1_555 1_555
H18B C21B 1_555 1_555
C22B C21B 1_555 1_555
C23B N7B 1_555 1_555
H19B C23B 1_555 1_555
C24B N8B 1_555 1_555
H20B C24B 1_555 1_555
C25A H21A 1_555 1_555
C26A C25A 1_555 1_555
H22A C26A 1_555 1_555
C27A C26A 1_555 1_555
H23A C27A 1_555 1_555
C28A C27A 1_555 1_555
C29A N9A 1_555 1_555
H24A C29A 1_555 1_555
C30A N10A 1_555 1_555
H25A C30A 1_555 1_555
C31A H26A 1_555 1_555
C32A N12A 1_555 1_555
H27A C32A 1_555 1_555
C33A C32A 1_555 1_555
H28A C33A 1_555 1_555
C34A C33A 1_555 1_555
H29A C34A 1_555 1_555
C35A C31A 1_555 1_555
C36A N12A 1_555 1_555
H30A C36A 1_555 1_555
C4 C5 1_555 1_555
C4 C6 1_555 1_555
C10 C11 1_555 1_555
C11 C12 1_555 1_555
C16 C17 1_555 1_555
C22 C23 1_555 1_555
C28 C29 1_555 1_555
C28 C30 1_555 1_555
C34 C35 1_555 1_555
C35 C36 1_555 1_555
O8A N15A 1_555 1_555
C4B C5B 1_555 1_555
C4B C6B 1_555 1_555
C10B C11B 1_555 1_555
C11B C12B 1_555 1_555
C16B C17B 1_555 1_555
C16B C18B 1_555 1_555
C22B C23B 1_555 1_555
C22B C24B 1_555 1_555
C28A C29A 1_555 1_555
C28A C30A 1_555 1_555
C34A C35A 1_555 1_555
C35A C36A 1_555 1_555

#END
