
#######################################################################
#
#                 Cambridge Crystallographic Data Centre
#                                CCDC 
#
#######################################################################
#
# If this CIF has been generated from an entry in the Cambridge 
# Structural Database, then it will include bibliographic, chemical, 
# crystal, experimental, refinement or atomic coordinate data resulting 
# from the CCDC's data processing and validation procedures.
#
#######################################################################

data_XUVQIQ
_chemical_formula_moiety         '(C30 H28 Cd3 N2 O17)n'
_symmetry_cell_setting           monoclinic
_symmetry_space_group_name_H-M   'P 21/m'
_symmetry_Int_Tables_number      11
_space_group_name_Hall           '-P 2yb'
loop_
_symmetry_equiv_pos_site_id
_symmetry_equiv_pos_as_xyz
1 x,y,z
2 -x,1/2+y,-z
3 -x,-y,-z
4 x,1/2-y,z
_cell_length_a                   10.1085(13)
_cell_length_b                   18.918(2)
_cell_length_c                   11.0438(15)
_cell_angle_alpha                90
_cell_angle_beta                 110.984(2)
_cell_angle_gamma                90
_cell_volume                     1971.87
loop_
_atom_site_label
_atom_site_type_symbol
_atom_site_fract_x
_atom_site_fract_y
_atom_site_fract_z
Cd1 Cd 0.66494(3) 0.060262(18) 0.06119(3)
O1 O 0.5568(4) 0.1160(2) 0.1858(4)
O2 O 0.4050(5) 0.0398(3) 0.0659(5)
O3 O 0.7144(6) -0.0275(3) 0.2203(5)
O4 O 0.7019(10) 0.1766(5) 0.9183(9)
O5 O 0.5109(14) 0.1215(6) 0.8890(11)
O6 O -0.0966(4) 0.0497(2) 0.0867(5)
O7 O -0.1391(4) 0.1405(2) 0.1878(4)
C1 C 0.4390(5) 0.0849(3) 0.1511(5)
C2 C 0.3369(5) 0.1066(3) 0.2157(5)
C3 C 0.1939(5) 0.0894(3) 0.1630(5)
C4 C 0.3869(5) 0.1471(3) 0.3285(5)
C5 C 0.1017(5) 0.1152(3) 0.2197(5)
H1 H 0.1602 0.0607 0.0899
C6 C 0.2950(5) 0.1713(3) 0.3874(4)
H2 H 0.4828 0.1581 0.3646
C7 C -0.0533(5) 0.0992(3) 0.1595(5)
C8 C 0.1517(5) 0.1562(3) 0.3319(5)
C9 C 0.3541(5) 0.2137(3) 0.5098(5)
H3 H 0.0890 0.1732 0.3693
C10 C 0.4220(6) 0.1774(3) 0.6272(5)
Cd2 Cd -0.20198(6) 0.2500 0.09910(6)
H4 H 0.4212 0.1282 0.6268
C11 C 0.4903(5) 0.2125(3) 0.7440(5)
O8 O -0.0175(9) 0.2500 0.0304(9)
O9 O -0.3246(7) 0.2500 0.2397(7)
C12 C 0.5618(7) 0.1688(3) 0.8631(5)
C13 C 0.0009(19) 0.2500 -0.058(2)
N1 N 0.1191(13) 0.2500 -0.0935(13)
H5 H -0.0831 0.2500 -0.1293
C14 C 0.2579(18) 0.2500 0.004(2)
C15 C 0.120(3) 0.2500 -0.227(2)
H6 H 0.2992 0.2961 0.0091
O1C O 0.5568(4) 0.3840(2) 0.1858(4)
O2C O 0.4050(5) 0.4602(3) 0.0659(5)
C1C C 0.4390(5) 0.4151(3) 0.1511(5)
C2C C 0.3369(5) 0.3934(3) 0.2157(5)
C3C C 0.1939(5) 0.4106(3) 0.1630(5)
C4C C 0.3869(5) 0.3529(3) 0.3285(5)
C5C C 0.1017(5) 0.3848(3) 0.2197(5)
H1C H 0.1602 0.4393 0.0899
C6C C 0.2950(5) 0.3287(3) 0.3874(4)
H2C H 0.4828 0.3419 0.3646
C7C C -0.0533(5) 0.4008(3) 0.1595(5)
C8C C 0.1517(5) 0.3438(3) 0.3319(5)
C9C C 0.3541(5) 0.2863(3) 0.5098(5)
H3C H 0.0890 0.3268 0.3693
C10C C 0.4220(6) 0.3226(3) 0.6272(5)
H4C H 0.4212 0.3718 0.6268
C11C C 0.4903(5) 0.2875(3) 0.7440(5)
C12C C 0.5618(7) 0.3312(3) 0.8631(5)
O4C O 0.7019(10) 0.3234(5) 0.9183(9)
O5C O 0.5109(14) 0.3785(6) 0.8890(11)
O6C O -0.0966(4) 0.4503(2) 0.0867(5)
O7C O -0.1391(4) 0.3595(2) 0.1878(4)
H6C H 0.2992 0.2039 0.0091
Cd1B Cd 0.33506(3) -0.060262(18) -0.06119(3)
O3B O 0.2856(6) 0.0275(3) -0.2203(5)
Cd1_2 Cd -0.33506(3) 0.060262(18) 0.06119(3)
Cd1_3 Cd 0.66494(3) 0.060262(18) 1.06119(3)
Cd1A Cd 0.33506(3) 0.560262(18) -0.06119(3)
Cd1C Cd -0.33506(3) 0.439738(18) 0.06119(3)
Cd1C_2 Cd 0.66494(3) 0.439738(18) 0.06119(3)
Cd1C_3 Cd 0.66494(3) 0.439738(18) 1.06119(3)
O1B O 0.4432(4) -0.1160(2) -0.1858(4)
O2B O 0.5950(5) -0.0398(3) -0.0659(5)
O4_2 O -0.2981(10) 0.1766(5) -0.0817(9)
O4_3 O 0.7019(10) 0.1766(5) -0.0817(9)
O4B O 0.2981(10) -0.1766(5) 0.0817(9)
O4C_2 O -0.2981(10) 0.3234(5) -0.0817(9)
O5_2 O 0.5109(14) 0.1215(6) -0.1110(11)
O5B O 0.4891(14) -0.1215(6) 0.1110(11)
O6_2 O 0.9034(4) 0.0497(2) 0.0867(5)
O6B O 0.0966(4) -0.0497(2) -0.0867(5)
O7_2 O 0.8609(4) 0.1405(2) 0.1878(4)
O7B O 0.1391(4) -0.1405(2) -0.1878(4)
Cd2_2 Cd 0.79802(6) 0.2500 1.09910(6)
O10 O 0.3387(19) 1.0002(8) 0.5637(13)
N2 N 0.201(2) 0.9273(12) 0.4011(15)
C16 C 0.186(3) 0.9138(13) 0.271(2)
H7 H 0.1648 0.9572 0.2224
H8 H 0.1099 0.8808 0.2332
H9 H 0.2723 0.8943 0.2680
C17 C 0.141(3) 0.9065(14) 0.493(2)
H10 H 0.1466 0.8560 0.5028
H11 H 0.0441 0.9212 0.4650
H12 H 0.1931 0.9282 0.5754
C18 C 0.310(3) 0.9694(12) 0.457(2)
H13 H 0.3710 0.9770 0.4127
loop_
_geom_bond_atom_site_label_1
_geom_bond_atom_site_label_2
_geom_bond_site_symmetry_1
_geom_bond_site_symmetry_2
Cd1 O1 1_555 1_555
O1 C1 1_555 1_555
O2 Cd1 1_555 1_555
O3 Cd1 1_555 1_555
O4 C12 1_555 1_555
O5 C12 1_555 1_555
O6 C7 1_555 1_555
O7 C7 1_555 1_555
C1 O2 1_555 1_555
C2 C1 1_555 1_555
C3 C2 1_555 1_555
C4 C2 1_555 1_555
C5 C3 1_555 1_555
H1 C3 1_555 1_555
C6 C4 1_555 1_555
H2 C4 1_555 1_555
C7 C5 1_555 1_555
C8 C5 1_555 1_555
C9 C6 1_555 1_555
H3 C8 1_555 1_555
C10 C9 1_555 1_555
Cd2 O7 1_555 1_555
H4 C10 1_555 1_555
C11 C10 1_555 1_555
O8 Cd2 1_555 1_555
O9 Cd2 1_555 1_555
C12 C11 1_555 1_555
C13 O8 1_555 1_555
N1 C13 1_555 1_555
H5 C13 1_555 1_555
C14 N1 1_555 1_555
C15 N1 1_555 1_555
H6 C14 1_555 1_555
O10 C18 1_555 1_555
N2 C16 1_555 1_555
C16 H7 1_555 1_555
H8 C16 1_555 1_555
H9 C16 1_555 1_555
C17 N2 1_555 1_555
H10 C17 1_555 1_555
H11 C17 1_555 1_555
H12 C17 1_555 1_555
C18 N2 1_555 1_555
H13 C18 1_555 1_555
O1C C1C 1_555 1_555
O2C C1C 1_555 1_555
C1C C2C 1_555 1_555
C2C C3C 1_555 1_555
C3C C5C 1_555 1_555
C4C C2C 1_555 1_555
C5C C7C 1_555 1_555
H1C C3C 1_555 1_555
C6C C4C 1_555 1_555
H2C C4C 1_555 1_555
C7C O6C 1_555 1_555
C8C C5C 1_555 1_555
C9C C9 1_555 1_555
H3C C8C 1_555 1_555
C10C C9C 1_555 1_555
H4C C10C 1_555 1_555
C11C C11 1_555 1_555
C12C C11C 1_555 1_555
O4C C12C 1_555 1_555
O5C C12C 1_555 1_555
O6C Cd1C 1_555 1_555
O7C Cd2 1_555 1_555
H6C C14 1_555 1_555
Cd1B O2 1_555 1_555
O3B Cd1B 1_555 1_555
Cd1_2 O6 1_555 1_555
Cd1_3 O4 1_555 1_555
Cd1A O2C 1_555 1_555
Cd1C O7C 1_555 1_555
Cd1C_2 O1C 1_555 1_555
Cd1C_3 O4C 1_555 1_555
O1B Cd1B 1_555 1_555
O2B Cd1 1_555 1_555
O4_2 Cd2 1_555 1_555
O4_3 Cd1 1_555 1_555
O4B Cd1B 1_555 1_555
O4C_2 Cd2 1_555 1_555
O5_2 Cd1 1_555 1_555
O5B Cd1B 1_555 1_555
O6_2 Cd1 1_555 1_555
O6B Cd1B 1_555 1_555
O7_2 Cd1 1_555 1_555
O7B Cd1B 1_555 1_555
Cd2_2 O4 1_555 1_555
O5 Cd1_3 1_555 1_555
O7 Cd1_2 1_555 1_555
C6 C8 1_555 1_555
O2C Cd1C_2 1_555 1_555
C6C C8C 1_555 1_555
C6C C9C 1_555 1_555
C7C O7C 1_555 1_555
C10C C11C 1_555 1_555
O4C Cd2_2 1_555 1_555
O5C Cd1C_3 1_555 1_555
Cd1B O2B 1_555 1_555
Cd1_2 O4_2 1_555 1_555
Cd1C O4C_2 1_555 1_555

#END
