
#######################################################################
#
#                 Cambridge Crystallographic Data Centre
#                                CCDC 
#
#######################################################################
#
# If this CIF has been generated from an entry in the Cambridge 
# Structural Database, then it will include bibliographic, chemical, 
# crystal, experimental, refinement or atomic coordinate data resulting 
# from the CCDC's data processing and validation procedures.
#
#######################################################################

data_DUDKOE
_chemical_formula_moiety         '(C75 H81 N15 O33 Zn6)n'
_symmetry_cell_setting           monoclinic
_symmetry_space_group_name_H-M   'I 2/c'
_symmetry_Int_Tables_number      15
_space_group_name_Hall           '-I 2yc'
loop_
_symmetry_equiv_pos_site_id
_symmetry_equiv_pos_as_xyz
1 x,y,z
2 -x,y,1/2-z
3 1/2+x,1/2+y,1/2+z
4 1/2-x,1/2+y,-z
5 -x,-y,-z
6 x,-y,1/2+z
7 1/2-x,1/2-y,1/2-z
8 1/2+x,1/2-y,z
_cell_length_a                   21.7672(5)
_cell_length_b                   19.6330(5)
_cell_length_c                   29.4028(6)
_cell_angle_alpha                90
_cell_angle_beta                 99.478(2)
_cell_angle_gamma                90
_cell_volume                     12393.9
loop_
_atom_site_label
_atom_site_type_symbol
_atom_site_fract_x
_atom_site_fract_y
_atom_site_fract_z
Zn1 Zn 0.691475(16) 0.257519(18) 0.518080(12)
Zn2 Zn 0.807498(16) 0.193177(18) 0.495325(12)
Zn3 Zn 0.523732(16) 0.474809(18) 0.204859(12)
O1 O 0.68018(11) 0.15426(12) 0.50813(9)
O2 O 0.76353(10) 0.10140(12) 0.48887(9)
O3 O 0.66160(11) 0.27171(13) 0.44921(8)
O4 O 0.75053(11) 0.22377(14) 0.43609(8)
O5 O 0.74399(11) 0.23650(13) 0.58012(8)
O6 O 0.82589(12) 0.17717(13) 0.56378(8)
O7 O 0.75934(11) -0.15391(12) 0.48393(9)
O8 O 0.67095(12) -0.20618(12) 0.49316(10)
O9 O 0.61364(12) 0.28121(16) 0.54056(10)
O10 O 0.88287(11) 0.17295(13) 0.46753(9)
O11 O 0.53516(10) 0.39852(12) 0.31810(8)
O12 O 0.57329(10) 0.40721(13) 0.25203(8)
O13 O 0.92975(12) 0.05109(13) 0.75903(8)
O14 O 0.95057(11) 0.04069(13) 0.68712(8)
O15 O 0.57584(12) 0.47450(12) 0.15528(8)
N1 N 0.51286(16) -0.02816(16) 0.49974(17)
N2 N 0.75440(16) 0.23989(19) 0.27015(11)
N3 N 0.77134(17) 0.23037(19) 0.75644(11)
N4 N 0.5548(3) 0.3135(3) 0.59239(19)
N5 N 0.9356(2) 0.1858(3) 0.40494(18)
N6 N 0.6661(2) 0.4583(2) 0.12790(17)
C1 C 0.70864(15) 0.10266(17) 0.49756(12)
C2 C 0.9343(4) 0.2143(5) 0.3590(3)
H1 H 0.8970 0.2406 0.3505
H2 H 0.9350 0.1780 0.3372
H3 H 0.9700 0.2430 0.3589
C3 C 0.67395(16) 0.03624(18) 0.49565(13)
C4 C 0.70371(16) -0.02580(17) 0.49100(12)
H4 H 0.7455 -0.0264 0.4878
C5 C 0.67124(17) -0.08658(18) 0.49115(13)
C6 C 0.60821(17) -0.08540(19) 0.49467(16)
H5 H 0.5863 -0.1260 0.4950
C7 C 0.57807(18) -0.02344(19) 0.49765(18)
C8 C 0.61104(18) 0.03679(19) 0.49888(16)
H6 H 0.5910 0.0780 0.5019
C9 C 0.69953(16) 0.25445(18) 0.42357(12)
C10 C 0.68453(16) 0.27262(18) 0.37339(11)
C11 C 0.72310(18) 0.2489(2) 0.34334(13)
H7 H 0.7564 0.2204 0.3543
C12 C 0.71221(18) 0.2674(2) 0.29740(13)
C13 C 0.66301(17) 0.3107(2) 0.28070(12)
H8 H 0.6562 0.3236 0.2499
C14 C 0.62443(15) 0.33436(18) 0.31005(12)
C15 C 0.63481(16) 0.31455(18) 0.35623(12)
H9 H 0.6081 0.3296 0.3757
C16 C 0.57311(15) 0.38404(17) 0.29166(11)
C17 C 0.79239(16) 0.20134(17) 0.59108(11)
C18 C 0.81168(16) 0.18525(18) 0.64145(12)
C19 C 0.78142(18) 0.2166(2) 0.67370(12)
H10 H 0.7500 0.2482 0.6644
C20 C 0.79853(19) 0.2003(2) 0.72023(12)
C21 C 0.84391(18) 0.1519(2) 0.73400(12)
H11 H 0.8541 0.1403 0.7650
C22 C 0.87440(16) 0.12024(18) 0.70161(11)
C23 C 0.85872(16) 0.13812(18) 0.65553(11)
H12 H 0.8799 0.1184 0.6338
C24 C 0.92229(16) 0.06649(18) 0.71689(12)
C25 C 0.6066(3) 0.3069(3) 0.5767(2)
H13 H 0.6421 0.3239 0.5951
C26 C 0.5484(4) 0.3485(4) 0.6335(3)
H14 H 0.5491 0.3164 0.6582
H15 H 0.5095 0.3727 0.6290
H16 H 0.5821 0.3802 0.6411
C27 C 0.4981(4) 0.2890(6) 0.5669(3)
H17 H 0.4856 0.3178 0.5406
H18 H 0.4665 0.2893 0.5861
H19 H 0.5039 0.2433 0.5567
C28 C 0.8871(3) 0.1984(3) 0.4270(2)
H20 H 0.8552 0.2264 0.4128
C29 C 0.70326(16) -0.15419(18) 0.48899(12)
C30 C 0.9860(3) 0.1467(4) 0.4254(3)
H21 H 1.0051 0.1680 0.4536
H22 H 1.0158 0.1432 0.4048
H23 H 0.9717 0.1021 0.4319
C31 C 0.6313(2) 0.4550(3) 0.16024(19)
H24 H 0.6489 0.4370 0.1887
C32 C 0.7298(3) 0.4341(4) 0.1351(3)
H25 H 0.7343 0.3999 0.1126
H26 H 0.7399 0.4150 0.1655
H27 H 0.7573 0.4715 0.1321
C33 C 0.6451(3) 0.4860(4) 0.0847(2)
H28 H 0.6012 0.4946 0.0814
H29 H 0.6530 0.4546 0.0613
H30 H 0.6667 0.5280 0.0815
O1D O 0.31982(11) -0.15426(12) 0.49187(9)
O2D O 0.23647(10) -0.10140(12) 0.51113(9)
N1D N 0.48714(16) 0.02816(16) 0.50026(17)
C1D C 0.29136(15) -0.10266(17) 0.50244(12)
C3D C 0.32605(16) -0.03624(18) 0.50435(13)
C4D C 0.29629(16) 0.02580(17) 0.50900(12)
H4D H 0.2545 0.0264 0.5122
C5D C 0.32876(17) 0.08658(18) 0.50885(13)
C6D C 0.39179(17) 0.08540(19) 0.50533(16)
H5D H 0.4137 0.1260 0.5050
C7D C 0.42193(18) 0.02344(19) 0.50235(18)
C8D C 0.38896(18) -0.03679(19) 0.50112(16)
H6D H 0.4090 -0.0780 0.4981
O7D O 0.24066(11) 0.15391(12) 0.51607(9)
O8D O 0.32905(12) 0.20618(12) 0.50684(10)
C29D C 0.29674(16) 0.15419(18) 0.51101(12)
O3F O 0.83840(11) 0.22829(13) 0.05079(8)
O4F O 0.74947(11) 0.27623(14) 0.06391(8)
O11F O 0.96484(10) 0.10148(12) 0.18190(8)
O12F O 0.92671(10) 0.09279(13) 0.24797(8)
N2F N 0.74560(16) 0.26011(19) 0.22985(11)
C9F C 0.80047(16) 0.24555(18) 0.07643(12)
C10F C 0.81547(16) 0.22738(18) 0.12661(11)
C11F C 0.77690(18) 0.2511(2) 0.15666(13)
H7F H 0.7436 0.2796 0.1457
C12F C 0.78779(18) 0.2326(2) 0.20260(13)
C13F C 0.83699(17) 0.1893(2) 0.21930(12)
H8F H 0.8438 0.1764 0.2501
C14F C 0.87557(15) 0.16564(18) 0.18995(12)
C15F C 0.86519(16) 0.18545(18) 0.14377(12)
H9F H 0.8919 0.1704 0.1243
C16F C 0.92689(15) 0.11596(17) 0.20834(11)
O5F O 0.75601(11) 0.26350(13) 0.91988(8)
O6F O 0.67411(12) 0.32283(13) 0.93622(8)
N3F N 0.72866(17) 0.26963(19) 0.74356(11)
C17F C 0.70761(16) 0.29866(17) 0.90892(11)
C18F C 0.68832(16) 0.31475(18) 0.85855(12)
C19F C 0.71858(18) 0.2834(2) 0.82630(12)
H10F H 0.7500 0.2518 0.8356
C20F C 0.70147(19) 0.2997(2) 0.77977(12)
C21F C 0.65609(18) 0.3481(2) 0.76600(12)
H11F H 0.6459 0.3597 0.7350
C22F C 0.62560(16) 0.37976(18) 0.79839(11)
C23F C 0.64128(16) 0.36188(18) 0.84447(11)
H12F H 0.6201 0.3816 0.8662
O13F O 0.57025(12) 0.44891(13) 0.74097(8)
O14F O 0.54943(11) 0.45931(13) 0.81288(8)
C24F C 0.57771(16) 0.43351(18) 0.78311(12)
Zn3A Zn 0.476268(16) 0.474809(18) 0.295141(12)
O15A O 0.42416(12) 0.47450(12) 0.34472(8)
N6A N 0.3339(2) 0.4583(2) 0.37210(17)
C31A C 0.3687(2) 0.4550(3) 0.33976(19)
H24A H 0.3511 0.4370 0.3113
C32A C 0.2702(3) 0.4341(4) 0.3649(3)
H25A H 0.2657 0.3999 0.3874
H26A H 0.2601 0.4150 0.3345
H27A H 0.2427 0.4715 0.3679
C33A C 0.3549(3) 0.4860(4) 0.4153(2)
H28A H 0.3988 0.4946 0.4186
H29A H 0.3470 0.4546 0.4387
H30A H 0.3333 0.5280 0.4185
Zn2C Zn 0.692502(16) -0.306823(18) 0.504675(12)
O10C O 0.61713(11) -0.32705(13) 0.53247(9)
N5C N 0.5644(2) -0.3142(3) 0.59506(18)
C2C C 0.5657(4) -0.2857(5) 0.6410(3)
H1C H 0.6030 -0.2594 0.6495
H2C H 0.5650 -0.3220 0.6628
H3C H 0.5300 -0.2570 0.6411
C28C C 0.6129(3) -0.3016(3) 0.5730(2)
H20C H 0.6448 -0.2736 0.5872
C30C C 0.5140(3) -0.3533(4) 0.5746(3)
H21C H 0.4949 -0.3320 0.5464
H22C H 0.4842 -0.3568 0.5952
H23C H 0.5283 -0.3979 0.5681
Zn1C Zn 0.808525(16) -0.242481(18) 0.481920(12)
O9C O 0.88636(12) -0.21879(16) 0.45944(10)
N4C N 0.9452(3) -0.1865(3) 0.40761(19)
C25C C 0.8934(3) -0.1931(3) 0.4233(2)
H13C H 0.8579 -0.1761 0.4049
C26C C 0.9516(4) -0.1515(4) 0.3665(3)
H14C H 0.9509 -0.1836 0.3418
H15C H 0.9905 -0.1273 0.3710
H16C H 0.9179 -0.1198 0.3589
C27C C 1.0019(4) -0.2110(6) 0.4331(3)
H17C H 1.0144 -0.1822 0.4594
H18C H 1.0335 -0.2107 0.4139
H19C H 0.9961 -0.2567 0.4433
Zn1D Zn 0.308525(16) -0.257519(18) 0.481920(12)
Zn1F Zn 0.808525(16) 0.242481(18) -0.018080(12)
Zn1F_2 Zn 0.808525(16) 0.242481(18) 0.981920(12)
Zn1G Zn 0.191475(16) 0.242481(18) 0.518080(12)
Zn2D Zn 0.192502(16) -0.193177(18) 0.504675(12)
Zn2F Zn 0.692502(16) 0.306823(18) 0.004675(12)
Zn2F_2 Zn 0.692502(16) 0.306823(18) 1.004675(12)
Zn2G Zn 0.307498(16) 0.306823(18) 0.495325(12)
Zn3B Zn 1.023732(16) -0.025191(18) 0.704859(12)
Zn3C Zn 0.976268(16) -0.025191(18) 0.795141(12)
Zn3D Zn 0.476268(16) 0.525191(18) 0.795141(12)
Zn3E Zn 0.523732(16) 0.525191(18) 0.704859(12)
Zn3F Zn 0.976268(16) 0.025191(18) 0.295141(12)
Zn3G Zn 1.023732(16) 0.025191(18) 0.204859(12)
O1C O 0.81982(11) -0.34574(12) 0.49187(9)
O2C O 0.73647(10) -0.39860(12) 0.51113(9)
O3C O 0.83840(11) -0.22829(13) 0.55079(8)
O4C O 0.74947(11) -0.27623(14) 0.56391(8)
O5C O 0.75601(11) -0.26350(13) 0.41988(8)
O6C O 0.67411(12) -0.32283(13) 0.43622(8)
O7C O 0.74066(11) 0.34609(12) 0.51607(9)
O8C O 0.82905(12) 0.29382(12) 0.50684(10)
O11A O 0.46484(10) 0.39852(12) 0.18190(8)
O12A O 0.42671(10) 0.40721(13) 0.24797(8)
O13B O 0.42975(12) 0.55109(13) 0.25903(8)
O13C O 0.57025(12) 0.55109(13) 0.24097(8)
O14B O 0.45057(11) 0.54069(13) 0.18712(8)
O14C O 0.54943(11) 0.54069(13) 0.31288(8)
O16 O 0.7770(11) 0.4417(11) 0.2504(6)
N8 N 0.7858(5) 0.4401(5) 0.3294(3)
C36 C 0.8043(10) 0.4186(11) 0.2900(6)
H38 H 0.8365 0.3873 0.2913
C37 C 0.8069(7) 0.4169(10) 0.3732(5)
H39 H 0.8337 0.4505 0.3899
H40 H 0.8297 0.3754 0.3717
H41 H 0.7721 0.4087 0.3887
C38 C 0.7359(7) 0.4868(8) 0.3223(6)
H42 H 0.7002 0.4671 0.3326
H43 H 0.7258 0.4975 0.2901
H44 H 0.7476 0.5278 0.3394
O17 O 0.7099(3) 0.6120(4) 0.1565(2)
N9 N 0.8161(4) 0.6015(5) 0.1753(3)
C39 C 0.7578(6) 0.5965(5) 0.1850(4)
H45 H 0.7526 0.5809 0.2140
C40 C 0.8675(7) 0.5860(10) 0.2094(5)
H46 H 0.9030 0.5761 0.1950
H47 H 0.8579 0.5470 0.2267
H48 H 0.8766 0.6242 0.2298
C41 C 0.8297(8) 0.6200(10) 0.1307(5)
H49 H 0.8325 0.5796 0.1128
H50 H 0.8685 0.6442 0.1342
H51 H 0.7970 0.6486 0.1152
O18 O 0.5676(3) 0.4236(4) 0.5103(2)
N10 N 0.6050(2) 0.47802(19) 0.45229(15)
C42 C 0.6045(3) 0.4283(3) 0.4837(3)
H52 H 0.6350 0.3948 0.4851
C43 C 0.5613(3) 0.5328(3) 0.4470(2)
H53 H 0.5832 0.5753 0.4519
H54 H 0.5338 0.5281 0.4692
H55 H 0.5376 0.5318 0.4165
C44 C 0.6501(3) 0.4796(3) 0.4218(2)
H56 H 0.6786 0.4423 0.4289
H57 H 0.6726 0.5218 0.4257
H58 H 0.6292 0.4757 0.3905
loop_
_geom_bond_atom_site_label_1
_geom_bond_atom_site_label_2
_geom_bond_site_symmetry_1
_geom_bond_site_symmetry_2
Zn1 O1 1_555 1_555
Zn2 O2 1_555 1_555
Zn3 O12 1_555 1_555
O1 C1 1_555 1_555
O2 C1 1_555 1_555
O3 Zn1 1_555 1_555
O4 Zn2 1_555 1_555
O5 Zn1 1_555 1_555
O6 Zn2 1_555 1_555
O7 C29 1_555 1_555
O8 C29 1_555 1_555
O9 Zn1 1_555 1_555
O10 Zn2 1_555 1_555
O11 C16 1_555 1_555
O12 C16 1_555 1_555
O13 C24 1_555 1_555
O14 C24 1_555 1_555
O15 Zn3 1_555 1_555
N1 C7 1_555 1_555
N2 C12 1_555 1_555
N3 C20 1_555 1_555
N4 C25 1_555 1_555
N5 C2 1_555 1_555
N6 C31 1_555 1_555
C1 C3 1_555 1_555
C2 H1 1_555 1_555
H2 C2 1_555 1_555
H3 C2 1_555 1_555
C3 C4 1_555 1_555
C4 H4 1_555 1_555
C5 C4 1_555 1_555
C6 C5 1_555 1_555
H5 C6 1_555 1_555
C7 C6 1_555 1_555
C8 C3 1_555 1_555
H6 C8 1_555 1_555
C9 O3 1_555 1_555
C10 C9 1_555 1_555
C11 C10 1_555 1_555
H7 C11 1_555 1_555
C12 C11 1_555 1_555
C13 C12 1_555 1_555
H8 C13 1_555 1_555
C14 C13 1_555 1_555
C15 C10 1_555 1_555
H9 C15 1_555 1_555
C16 C14 1_555 1_555
C17 O5 1_555 1_555
C18 C17 1_555 1_555
C19 C18 1_555 1_555
H10 C19 1_555 1_555
C20 C19 1_555 1_555
C21 C20 1_555 1_555
H11 C21 1_555 1_555
C22 C21 1_555 1_555
C23 C18 1_555 1_555
H12 C23 1_555 1_555
C24 C22 1_555 1_555
C25 O9 1_555 1_555
H13 C25 1_555 1_555
C26 N4 1_555 1_555
H14 C26 1_555 1_555
H15 C26 1_555 1_555
H16 C26 1_555 1_555
C27 N4 1_555 1_555
H17 C27 1_555 1_555
H18 C27 1_555 1_555
H19 C27 1_555 1_555
C28 O10 1_555 1_555
H20 C28 1_555 1_555
C29 C5 1_555 1_555
C30 N5 1_555 1_555
H21 C30 1_555 1_555
H22 C30 1_555 1_555
H23 C30 1_555 1_555
C31 O15 1_555 1_555
H24 C31 1_555 1_555
C32 N6 1_555 1_555
H25 C32 1_555 1_555
H26 C32 1_555 1_555
H27 C32 1_555 1_555
C33 N6 1_555 1_555
H28 C33 1_555 1_555
H29 C33 1_555 1_555
H30 C33 1_555 1_555
O16 C36 1_555 1_555
N8 C36 1_555 1_555
C36 H38 1_555 1_555
C37 N8 1_555 1_555
H39 C37 1_555 1_555
H40 C37 1_555 1_555
H41 C37 1_555 1_555
C38 N8 1_555 1_555
H42 C38 1_555 1_555
H43 C38 1_555 1_555
H44 C38 1_555 1_555
O17 C39 1_555 1_555
N9 C39 1_555 1_555
C39 H45 1_555 1_555
C40 N9 1_555 1_555
H46 C40 1_555 1_555
H47 C40 1_555 1_555
H48 C40 1_555 1_555
C41 N9 1_555 1_555
H49 C41 1_555 1_555
H50 C41 1_555 1_555
H51 C41 1_555 1_555
O18 C42 1_555 1_555
N10 C42 1_555 1_555
C42 H52 1_555 1_555
C43 N10 1_555 1_555
H53 C43 1_555 1_555
H54 C43 1_555 1_555
H55 C43 1_555 1_555
C44 N10 1_555 1_555
H56 C44 1_555 1_555
H57 C44 1_555 1_555
H58 C44 1_555 1_555
O1D C1D 1_555 1_555
O2D C1D 1_555 1_555
N1D N1 1_555 1_555
C1D C3D 1_555 1_555
C3D C4D 1_555 1_555
C4D H4D 1_555 1_555
C5D C4D 1_555 1_555
C6D C5D 1_555 1_555
H5D C6D 1_555 1_555
C7D N1D 1_555 1_555
C8D C3D 1_555 1_555
H6D C8D 1_555 1_555
O7D C29D 1_555 1_555
O8D C29D 1_555 1_555
C29D C5D 1_555 1_555
O3F C9F 1_555 1_555
O4F C9F 1_555 1_555
O11F C16F 1_555 1_555
O12F C16F 1_555 1_555
N2F N2 1_555 1_555
C9F C10F 1_555 1_555
C10F C11F 1_555 1_555
C11F H7F 1_555 1_555
C12F N2F 1_555 1_555
C13F C12F 1_555 1_555
H8F C13F 1_555 1_555
C14F C13F 1_555 1_555
C15F C10F 1_555 1_555
H9F C15F 1_555 1_555
C16F C14F 1_555 1_555
O5F C17F 1_555 1_555
O6F C17F 1_555 1_555
N3F N3 1_555 1_555
C17F C18F 1_555 1_555
C18F C19F 1_555 1_555
C19F H10F 1_555 1_555
C20F N3F 1_555 1_555
C21F C20F 1_555 1_555
H11F C21F 1_555 1_555
C22F C21F 1_555 1_555
C23F C18F 1_555 1_555
H12F C23F 1_555 1_555
O13F C24F 1_555 1_555
O14F C24F 1_555 1_555
C24F C22F 1_555 1_555
Zn3A O11 1_555 1_555
O15A Zn3A 1_555 1_555
N6A C31A 1_555 1_555
C31A O15A 1_555 1_555
H24A C31A 1_555 1_555
C32A N6A 1_555 1_555
H25A C32A 1_555 1_555
H26A C32A 1_555 1_555
H27A C32A 1_555 1_555
C33A N6A 1_555 1_555
H28A C33A 1_555 1_555
H29A C33A 1_555 1_555
H30A C33A 1_555 1_555
Zn2C O8 1_555 1_555
O10C Zn2C 1_555 1_555
N5C C2C 1_555 1_555
C2C H1C 1_555 1_555
H2C C2C 1_555 1_555
H3C C2C 1_555 1_555
C28C O10C 1_555 1_555
H20C C28C 1_555 1_555
C30C N5C 1_555 1_555
H21C C30C 1_555 1_555
H22C C30C 1_555 1_555
H23C C30C 1_555 1_555
Zn1C O7 1_555 1_555
O9C Zn1C 1_555 1_555
N4C C25C 1_555 1_555
C25C O9C 1_555 1_555
H13C C25C 1_555 1_555
C26C N4C 1_555 1_555
H14C C26C 1_555 1_555
H15C C26C 1_555 1_555
H16C C26C 1_555 1_555
C27C N4C 1_555 1_555
H17C C27C 1_555 1_555
H18C C27C 1_555 1_555
H19C C27C 1_555 1_555
Zn1D O1D 1_555 1_555
Zn1F O3F 1_555 1_555
Zn1F_2 O5F 1_555 1_555
Zn1G O7D 1_555 1_555
Zn2D O2D 1_555 1_555
Zn2F O4F 1_555 1_555
Zn2F_2 O6F 1_555 1_555
Zn2G O8D 1_555 1_555
Zn3B O14 1_555 1_555
Zn3C O13 1_555 1_555
Zn3D O14F 1_555 1_555
Zn3E O13F 1_555 1_555
Zn3F O12F 1_555 1_555
Zn3G O11F 1_555 1_555
O1C Zn1C 1_555 1_555
O2C Zn2C 1_555 1_555
O3C Zn1C 1_555 1_555
O4C Zn2C 1_555 1_555
O5C Zn1C 1_555 1_555
O6C Zn2C 1_555 1_555
O7C Zn1 1_555 1_555
O8C Zn2 1_555 1_555
O11A Zn3 1_555 1_555
O12A Zn3A 1_555 1_555
O13B Zn3A 1_555 1_555
O13C Zn3 1_555 1_555
O14B Zn3 1_555 1_555
O14C Zn3A 1_555 1_555
O4 C9 1_555 1_555
O6 C17 1_555 1_555
N5 C28 1_555 1_555
C7 C8 1_555 1_555
C14 C15 1_555 1_555
C22 C23 1_555 1_555
C6D C7D 1_555 1_555
C7D C8D 1_555 1_555
C11F C12F 1_555 1_555
C14F C15F 1_555 1_555
C19F C20F 1_555 1_555
C22F C23F 1_555 1_555
N5C C28C 1_555 1_555

#END
