
#######################################################################
#
#                 Cambridge Crystallographic Data Centre
#                                CCDC 
#
#######################################################################
#
# If this CIF has been generated from an entry in the Cambridge 
# Structural Database, then it will include bibliographic, chemical, 
# crystal, experimental, refinement or atomic coordinate data resulting 
# from the CCDC's data processing and validation procedures.
#
#######################################################################

data_DUDKAQ
_chemical_formula_moiety         '(C64 H84 Mn4 N12 O24)n'
_symmetry_cell_setting           monoclinic
_symmetry_space_group_name_H-M   'P 21/c'
_symmetry_Int_Tables_number      14
_space_group_name_Hall           '-P 2ybc'
loop_
_symmetry_equiv_pos_site_id
_symmetry_equiv_pos_as_xyz
1 x,y,z
2 -x,1/2+y,1/2-z
3 -x,-y,-z
4 x,1/2-y,1/2+z
_cell_length_a                   14.3400(4)
_cell_length_b                   14.0474(4)
_cell_length_c                   22.1387(7)
_cell_angle_alpha                90
_cell_angle_beta                 100.600(3)
_cell_angle_gamma                90
_cell_volume                     4383.51
loop_
_atom_site_label
_atom_site_type_symbol
_atom_site_fract_x
_atom_site_fract_y
_atom_site_fract_z
Mn1 Mn 0.25708(3) 0.74780(3) 0.238368(19)
Mn2 Mn 0.19008(3) 0.62397(4) 0.35960(2)
O1 O 0.26765(17) 0.65382(19) 0.44897(10)
O2 O 0.30974(15) 0.64865(16) 0.31225(9)
O3 O 0.37251(17) 0.61778(18) 0.23092(10)
O4 O -0.17740(18) 0.27682(19) 0.14936(12)
O5 O -0.16387(18) 0.35437(19) 0.23806(12)
O6 O 0.14626(16) 0.66357(17) 0.19200(10)
O7 O 0.09675(17) 0.6010(2) 0.27382(10)
O8 O 0.0645(6) 0.6127(5) 0.4010(4)
O9 O 0.2128(10) 0.4767(11) 0.3722(6)
O10 O 0.69623(15) 0.31867(16) 0.33731(9)
O11 O 0.61572(16) 0.35106(17) 0.24485(9)
N1 N -0.0291(2) 0.4741(2) 0.00952(13)
N2 N 0.5246(2) 0.4717(2) 0.48822(12)
N3 N 0.2647(4) 0.7692(3) 0.51671(18)
N4 N -0.0790(15) 0.5269(14) 0.3747(8)
N5 N 0.1831(10) 0.3195(10) 0.3649(6)
C1 C 0.3681(2) 0.6031(2) 0.28541(14)
C2 C -0.1474(2) 0.3436(3) 0.18482(15)
C3 C 0.4359(2) 0.5359(2) 0.32360(14)
C4 C 0.4968(2) 0.4797(2) 0.29582(13)
H1 H 0.4914 0.4802 0.2533
C5 C 0.5645(2) 0.4235(2) 0.33117(14)
C6 C 0.5727(2) 0.4230(2) 0.39492(14)
H2 H 0.6190 0.3860 0.4190
C7 C 0.5113(2) 0.4781(2) 0.42254(14)
C8 C 0.4421(2) 0.5339(2) 0.38694(14)
H3 H 0.4004 0.5696 0.4053
C9 C 0.6292(2) 0.3608(2) 0.30221(14)
C10 C 0.0956(2) 0.6087(2) 0.21733(14)
C11 C 0.0283(2) 0.5441(2) 0.17536(14)
C12 C -0.0308(2) 0.4816(2) 0.19918(14)
H4 H -0.0331 0.4829 0.2409
C13 C -0.0863(2) 0.4172(2) 0.16076(15)
C14 C -0.0840(2) 0.4171(3) 0.09834(15)
H5 H -0.1211 0.3740 0.0725
C15 C -0.0266(2) 0.4809(3) 0.07426(15)
C16 C 0.0299(2) 0.5448(2) 0.11278(14)
H6 H 0.0684 0.5876 0.0968
C17 C 0.2989(3) 0.7264(3) 0.47608(19)
C18 C 0.3952(4) 0.7664(4) 0.4579(2)
H7 H 0.4488 0.7371 0.4835
H8 H 0.3983 0.8341 0.4637
H9 H 0.3960 0.7518 0.4156
C19 C 0.3095(6) 0.8501(4) 0.5540(2)
H10 H 0.3758 0.8524 0.5521
H11 H 0.3022 0.8420 0.5959
H12 H 0.2797 0.9084 0.5382
C20 C 0.1786(3) 0.7335(4) 0.5301(2)
H13 H 0.1506 0.6903 0.4983
H14 H 0.1358 0.7854 0.5324
H15 H 0.1910 0.7006 0.5688
C21 C -0.0225(11) 0.6140(9) 0.3771(7)
C22 C -0.1803(10) 0.5333(10) 0.3492(6)
H16 H -0.2000 0.5987 0.3486
H17 H -0.2154 0.4970 0.3742
H18 H -0.1921 0.5085 0.3081
C23 C -0.0448(9) 0.4280(8) 0.3861(7)
H19 H 0.0140 0.4203 0.3717
H20 H -0.0911 0.3847 0.3645
H21 H -0.0350 0.4148 0.4293
C24 C 0.1422(17) 0.2489(16) 0.4196(10)
H22 H 0.0972 0.2843 0.4377
H23 H 0.1947 0.2306 0.4509
H24 H 0.1122 0.1929 0.4000
C25 C 0.0990(18) 0.329(2) 0.3192(12)
H25 H 0.0442 0.3207 0.3379
H26 H 0.0990 0.2821 0.2879
H27 H 0.0973 0.3916 0.3013
C26 C 0.2198(13) 0.3998(14) 0.3862(9)
C27 C 0.271(3) 0.404(4) 0.4624(14)
H28 H 0.2682 0.4678 0.4773
H29 H 0.3362 0.3843 0.4672
H30 H 0.2378 0.3621 0.4853
C28 C -0.0617(7) 0.6815(8) 0.3328(5)
H31 H -0.0114 0.7232 0.3265
H32 H -0.1076 0.7167 0.3503
H33 H -0.0918 0.6550 0.2941
O2B O 0.69026(15) 0.35135(16) 0.68775(9)
O3B O 0.62749(17) 0.38222(18) 0.76908(10)
O10B O 0.30377(15) 0.68133(16) 0.66269(9)
O11B O 0.38428(16) 0.64894(17) 0.75515(9)
N2B N 0.4754(2) 0.5283(2) 0.51178(12)
C1B C 0.6319(2) 0.3969(2) 0.71459(14)
C3B C 0.5641(2) 0.4641(2) 0.67640(14)
C4B C 0.5032(2) 0.5203(2) 0.70418(13)
H1B H 0.5086 0.5198 0.7467
C5B C 0.4355(2) 0.5765(2) 0.66883(14)
C6B C 0.4273(2) 0.5770(2) 0.60508(14)
H2B H 0.3810 0.6140 0.5810
C7B C 0.4887(2) 0.5219(2) 0.57746(14)
C8B C 0.5579(2) 0.4661(2) 0.61306(14)
H3B H 0.5996 0.4304 0.5947
C9B C 0.3708(2) 0.6392(2) 0.69779(14)
O4B O 0.17740(18) 0.72318(19) -0.14936(12)
O5B O 0.16387(18) 0.64563(19) -0.23806(12)
O6B O -0.14626(16) 0.33643(17) -0.19200(10)
O7B O -0.09675(17) 0.3990(2) -0.27382(10)
N1B N 0.0291(2) 0.5259(2) -0.00952(13)
C2B C 0.1474(2) 0.6564(3) -0.18482(15)
C10B C -0.0956(2) 0.3913(2) -0.21733(14)
C11B C -0.0283(2) 0.4559(2) -0.17536(14)
C12B C 0.0308(2) 0.5184(2) -0.19918(14)
H4B H 0.0331 0.5171 -0.2409
C13B C 0.0863(2) 0.5828(2) -0.16076(15)
C14B C 0.0840(2) 0.5829(3) -0.09834(15)
H5B H 0.1211 0.6260 -0.0725
C15B C 0.0266(2) 0.5191(3) -0.07426(15)
C16B C -0.0299(2) 0.4552(2) -0.11278(14)
H6B H -0.0684 0.4124 -0.0968
Mn1B Mn -0.25708(3) 0.25220(3) -0.238368(19)
Mn2B Mn -0.19008(3) 0.37603(4) -0.35960(2)
O1B O -0.26765(17) 0.34618(19) -0.44897(10)
O8B O -0.0645(6) 0.3873(5) -0.4010(4)
O9B O -0.2128(10) 0.5233(11) -0.3722(6)
N3B N -0.2647(4) 0.2308(3) -0.51671(18)
N4B N 0.0790(15) 0.4731(14) -0.3747(8)
N5B N -0.1831(10) 0.6805(10) -0.3649(6)
C17B C -0.2989(3) 0.2736(3) -0.47608(19)
C18B C -0.3952(4) 0.2336(4) -0.4579(2)
H7B H -0.4488 0.2629 -0.4835
H8B H -0.3983 0.1659 -0.4637
H9B H -0.3960 0.2482 -0.4156
C19B C -0.3095(6) 0.1499(4) -0.5540(2)
H10B H -0.3758 0.1476 -0.5521
H11B H -0.3022 0.1580 -0.5959
H12B H -0.2797 0.0916 -0.5382
C20B C -0.1786(3) 0.2665(4) -0.5301(2)
H13B H -0.1506 0.3097 -0.4983
H14B H -0.1358 0.2146 -0.5324
H15B H -0.1910 0.2994 -0.5688
C21B C 0.0225(11) 0.3860(9) -0.3771(7)
C22B C 0.1803(10) 0.4667(10) -0.3492(6)
H16B H 0.2000 0.4013 -0.3486
H17B H 0.2154 0.5030 -0.3742
H18B H 0.1921 0.4915 -0.3081
C23B C 0.0448(9) 0.5720(8) -0.3861(7)
H19B H -0.0140 0.5797 -0.3717
H20B H 0.0911 0.6153 -0.3645
H21B H 0.0350 0.5852 -0.4293
C24B C -0.1422(17) 0.7511(16) -0.4196(10)
H22B H -0.0972 0.7157 -0.4377
H23B H -0.1947 0.7694 -0.4509
H24B H -0.1122 0.8071 -0.4000
C25B C -0.0990(18) 0.671(2) -0.3192(12)
H25B H -0.0442 0.6793 -0.3379
H26B H -0.0990 0.7179 -0.2879
H27B H -0.0973 0.6084 -0.3013
C26B C -0.2198(13) 0.6002(14) -0.3862(9)
C27B C -0.271(3) 0.596(4) -0.4624(14)
H28B H -0.2682 0.5322 -0.4773
H29B H -0.3362 0.6157 -0.4672
H30B H -0.2378 0.6379 -0.4853
C28B C 0.0617(7) 0.3185(8) -0.3328(5)
H31B H 0.0114 0.2768 -0.3265
H32B H 0.1076 0.2833 -0.3503
H33B H 0.0918 0.3450 -0.2941
Mn1A Mn -0.25708(3) 0.24780(3) 0.261632(19)
Mn1A_2 Mn 0.74292(3) 0.24780(3) 0.261632(19)
Mn1B_2 Mn 0.74292(3) 0.25220(3) 0.761632(19)
Mn1C Mn 0.25708(3) 0.75220(3) -0.261632(19)
Mn1C_2 Mn 0.25708(3) 0.75220(3) 0.738368(19)
Mn2A Mn -0.19008(3) 0.12397(4) 0.14040(2)
Mn2B_2 Mn 0.80992(3) 0.37603(4) 0.64040(2)
Mn2C Mn 0.19008(3) 0.87603(4) -0.14040(2)
O2B_2 O -0.30974(15) 0.35135(16) -0.31225(9)
O4A O 0.17740(18) 0.77682(19) 0.35064(12)
O4C O -0.17740(18) 0.22318(19) -0.35064(12)
O5A O 0.16387(18) 0.85437(19) 0.26194(12)
O5C O -0.16387(18) 0.14563(19) -0.26194(12)
O10A O 0.30377(15) 0.81867(16) 0.16269(9)
O10C O -0.30377(15) 0.18133(16) -0.16269(9)
O11A O 0.38428(16) 0.85106(17) 0.25515(9)
O11C O -0.38428(16) 0.14894(17) -0.25515(9)
O12 O 0.2732(7) 0.2410(8) 0.7012(5)
N6 N 0.3373(4) 0.1201(4) 0.6464(3)
C29 C 0.3390(6) 0.2064(6) 0.6609(4)
C30 C 0.4249(7) 0.2650(8) 0.6596(7)
H34 H 0.4327 0.2736 0.6178
H35 H 0.4796 0.2332 0.6822
H36 H 0.4179 0.3259 0.6779
C31 C 0.2479(10) 0.0683(10) 0.6578(9)
H37 H 0.2204 0.1029 0.6876
H38 H 0.2644 0.0053 0.6729
H39 H 0.2028 0.0644 0.6200
C32 C 0.4103(12) 0.0703(11) 0.6250(7)
H40 H 0.4037 0.0791 0.5814
H41 H 0.4060 0.0038 0.6339
H42 H 0.4708 0.0943 0.6451
O13 O 0.4505(12) 0.1143(12) 0.4446(7)
N7 N 0.3774(10) 0.1294(12) 0.3475(7)
C33 C 0.3176(6) 0.0793(6) 0.2976(4)
H43 H 0.2716 0.1225 0.2756
H44 H 0.2856 0.0280 0.3139
H45 H 0.3561 0.0541 0.2701
C34 C 0.4353(13) 0.2142(13) 0.3404(8)
H46 H 0.4908 0.1952 0.3250
H47 H 0.4541 0.2446 0.3796
H48 H 0.3988 0.2578 0.3121
C35 C 0.3808(17) 0.0854(17) 0.3968(11)
C36 C 0.3300(18) -0.0050(17) 0.4012(12)
H49 H 0.3512 -0.0327 0.4410
H50 H 0.3426 -0.0481 0.3700
H51 H 0.2630 0.0071 0.3955
loop_
_geom_bond_atom_site_label_1
_geom_bond_atom_site_label_2
_geom_bond_site_symmetry_1
_geom_bond_site_symmetry_2
Mn1 O2 1_555 1_555
Mn2 O1 1_555 1_555
O1 C17 1_555 1_555
O2 Mn2 1_555 1_555
O3 C1 1_555 1_555
O4 C2 1_555 1_555
O5 C2 1_555 1_555
O6 Mn1 1_555 1_555
O7 Mn2 1_555 1_555
O8 Mn2 1_555 1_555
O9 Mn2 1_555 1_555
O10 C9 1_555 1_555
O11 C9 1_555 1_555
N1 C15 1_555 1_555
N2 C7 1_555 1_555
N3 C17 1_555 1_555
N4 C21 1_555 1_555
N5 C24 1_555 1_555
C1 O2 1_555 1_555
C2 C13 1_555 1_555
C3 C1 1_555 1_555
C4 C3 1_555 1_555
H1 C4 1_555 1_555
C5 C4 1_555 1_555
C6 C5 1_555 1_555
H2 C6 1_555 1_555
C7 C6 1_555 1_555
C8 C3 1_555 1_555
H3 C8 1_555 1_555
C9 C5 1_555 1_555
C10 O6 1_555 1_555
C11 C10 1_555 1_555
C12 C11 1_555 1_555
H4 C12 1_555 1_555
C13 C12 1_555 1_555
C14 C13 1_555 1_555
H5 C14 1_555 1_555
C15 C14 1_555 1_555
C16 C11 1_555 1_555
H6 C16 1_555 1_555
C17 C18 1_555 1_555
C18 H7 1_555 1_555
H8 C18 1_555 1_555
H9 C18 1_555 1_555
C19 N3 1_555 1_555
H10 C19 1_555 1_555
H11 C19 1_555 1_555
H12 C19 1_555 1_555
C20 N3 1_555 1_555
H13 C20 1_555 1_555
H14 C20 1_555 1_555
H15 C20 1_555 1_555
C21 O8 1_555 1_555
C22 N4 1_555 1_555
H16 C22 1_555 1_555
H17 C22 1_555 1_555
H18 C22 1_555 1_555
C23 N4 1_555 1_555
H19 C23 1_555 1_555
H20 C23 1_555 1_555
H21 C23 1_555 1_555
C24 H22 1_555 1_555
H23 C24 1_555 1_555
H24 C24 1_555 1_555
C25 N5 1_555 1_555
H25 C25 1_555 1_555
H26 C25 1_555 1_555
H27 C25 1_555 1_555
C26 O9 1_555 1_555
C27 C26 1_555 1_555
H28 C27 1_555 1_555
H29 C27 1_555 1_555
H30 C27 1_555 1_555
C28 C21 1_555 1_555
H31 C28 1_555 1_555
H32 C28 1_555 1_555
H33 C28 1_555 1_555
O12 C29 1_555 1_555
N6 C29 1_555 1_555
C29 C30 1_555 1_555
C30 H34 1_555 1_555
H35 C30 1_555 1_555
H36 C30 1_555 1_555
C31 N6 1_555 1_555
H37 C31 1_555 1_555
H38 C31 1_555 1_555
H39 C31 1_555 1_555
C32 N6 1_555 1_555
H40 C32 1_555 1_555
H41 C32 1_555 1_555
H42 C32 1_555 1_555
O13 C35 1_555 1_555
N7 C33 1_555 1_555
C33 H43 1_555 1_555
H44 C33 1_555 1_555
H45 C33 1_555 1_555
C34 N7 1_555 1_555
H46 C34 1_555 1_555
H47 C34 1_555 1_555
H48 C34 1_555 1_555
C35 N7 1_555 1_555
C36 C35 1_555 1_555
H49 C36 1_555 1_555
H50 C36 1_555 1_555
H51 C36 1_555 1_555
O2B C1B 1_555 1_555
O3B C1B 1_555 1_555
O10B C9B 1_555 1_555
O11B C9B 1_555 1_555
N2B N2 1_555 1_555
C1B C3B 1_555 1_555
C3B C4B 1_555 1_555
C4B H1B 1_555 1_555
C5B C4B 1_555 1_555
C6B C5B 1_555 1_555
H2B C6B 1_555 1_555
C7B N2B 1_555 1_555
C8B C3B 1_555 1_555
H3B C8B 1_555 1_555
C9B C5B 1_555 1_555
O4B C2B 1_555 1_555
O5B C2B 1_555 1_555
O6B C10B 1_555 1_555
O7B C10B 1_555 1_555
N1B N1 1_555 1_555
C2B C13B 1_555 1_555
C10B C11B 1_555 1_555
C11B C12B 1_555 1_555
C12B H4B 1_555 1_555
C13B C12B 1_555 1_555
C14B C13B 1_555 1_555
H5B C14B 1_555 1_555
C15B N1B 1_555 1_555
C16B C11B 1_555 1_555
H6B C16B 1_555 1_555
Mn1B O6B 1_555 1_555
Mn2B O7B 1_555 1_555
O1B Mn2B 1_555 1_555
O8B Mn2B 1_555 1_555
O9B Mn2B 1_555 1_555
N3B C17B 1_555 1_555
N4B C21B 1_555 1_555
N5B C24B 1_555 1_555
C17B O1B 1_555 1_555
C18B C17B 1_555 1_555
H7B C18B 1_555 1_555
H8B C18B 1_555 1_555
H9B C18B 1_555 1_555
C19B N3B 1_555 1_555
H10B C19B 1_555 1_555
H11B C19B 1_555 1_555
H12B C19B 1_555 1_555
C20B N3B 1_555 1_555
H13B C20B 1_555 1_555
H14B C20B 1_555 1_555
H15B C20B 1_555 1_555
C21B O8B 1_555 1_555
C22B N4B 1_555 1_555
H16B C22B 1_555 1_555
H17B C22B 1_555 1_555
H18B C22B 1_555 1_555
C23B N4B 1_555 1_555
H19B C23B 1_555 1_555
H20B C23B 1_555 1_555
H21B C23B 1_555 1_555
C24B H22B 1_555 1_555
H23B C24B 1_555 1_555
H24B C24B 1_555 1_555
C25B N5B 1_555 1_555
H25B C25B 1_555 1_555
H26B C25B 1_555 1_555
H27B C25B 1_555 1_555
C26B O9B 1_555 1_555
C27B C26B 1_555 1_555
H28B C27B 1_555 1_555
H29B C27B 1_555 1_555
H30B C27B 1_555 1_555
C28B C21B 1_555 1_555
H31B C28B 1_555 1_555
H32B C28B 1_555 1_555
H33B C28B 1_555 1_555
Mn1A O5 1_555 1_555
Mn1A_2 O10 1_555 1_555
Mn1B_2 O2B 1_555 1_555
Mn1C O5B 1_555 1_555
Mn1C_2 O10B 1_555 1_555
Mn2A O4 1_555 1_555
Mn2B_2 O2B 1_555 1_555
Mn2C O4B 1_555 1_555
O2B_2 Mn1B 1_555 1_555
O4A Mn2 1_555 1_555
O4C Mn2B 1_555 1_555
O5A Mn1 1_555 1_555
O5C Mn1B 1_555 1_555
O10A Mn1 1_555 1_555
O10C Mn1B 1_555 1_555
O11A Mn1 1_555 1_555
O11C Mn1B 1_555 1_555
O7 C10 1_555 1_555
O11 Mn1A_2 1_555 1_555
N5 C26 1_555 1_555
C7 C8 1_555 1_555
C15 C16 1_555 1_555
O11B Mn1C_2 1_555 1_555
C6B C7B 1_555 1_555
C7B C8B 1_555 1_555
C14B C15B 1_555 1_555
C15B C16B 1_555 1_555
Mn2B O2B_2 1_555 1_555
N5B C26B 1_555 1_555

#END
