
#######################################################################
#
#                 Cambridge Crystallographic Data Centre
#                                CCDC 
#
#######################################################################
#
# If this CIF has been generated from an entry in the Cambridge 
# Structural Database, then it will include bibliographic, chemical, 
# crystal, experimental, refinement or atomic coordinate data resulting 
# from the CCDC's data processing and validation procedures.
#
#######################################################################

data_FAHQEN
_chemical_formula_moiety         '(C50 H42 N4 Ni3 O16)n'
_symmetry_cell_setting           monoclinic
_symmetry_space_group_name_H-M   'C 2/c'
_symmetry_Int_Tables_number      15
_space_group_name_Hall           '-C 2yc'
loop_
_symmetry_equiv_pos_site_id
_symmetry_equiv_pos_as_xyz
1 x,y,z
2 -x,y,1/2-z
3 1/2+x,1/2+y,z
4 1/2-x,1/2+y,1/2-z
5 -x,-y,-z
6 x,-y,1/2+z
7 1/2-x,1/2-y,-z
8 1/2+x,1/2-y,1/2+z
_cell_length_a                   20.505(2)
_cell_length_b                   10.3482(9)
_cell_length_c                   29.521(4)
_cell_angle_alpha                90
_cell_angle_beta                 113.518(15)
_cell_angle_gamma                90
_cell_volume                     5743.73
loop_
_atom_site_label
_atom_site_type_symbol
_atom_site_fract_x
_atom_site_fract_y
_atom_site_fract_z
Ni1 Ni 0.33655(4) 0.67752(9) 0.16392(3)
Ni2 Ni 0.5000 0.84253(12) 0.2500
O1 O 0.2507(2) 0.7949(5) 0.14907(18)
O2 O 0.3032(3) 0.9848(5) 0.1718(2)
O3 O 0.1552(2) 1.1627(5) 0.26472(17)
O4 O 0.0395(2) 1.1986(5) 0.21910(17)
O5 O 0.0861(3) 0.6678(5) -0.0994(2)
O6 O 0.1689(3) 0.8126(5) -0.09295(17)
O7 O 0.4090(2) 0.8373(5) 0.18528(17)
O8 O 0.4185(2) 0.5425(5) 0.18141(19)
H1 H 0.4296 0.5837 0.2083
H2 H 0.4442 0.5894 0.1928
N1 N 0.2650(3) 0.5263(6) 0.1396(2)
C1 C 0.2495(4) 0.9124(8) 0.1569(2)
C2 C 0.1780(3) 0.9706(7) 0.1476(3)
C3 C 0.1712(3) 1.0329(6) 0.1871(2)
H3 H 0.2105 1.0387 0.2171
C4 C 0.1068(4) 1.0869(7) 0.1829(3)
C5 C 0.1001(4) 1.1546(7) 0.2258(3)
C6 C 0.0499(4) 1.0789(8) 0.1365(3)
H4 H 0.0070 1.1175 0.1324
C7 C 0.0549(4) 1.0176(8) 0.0976(3)
H5 H 0.0155 1.0126 0.0677
C8 C 0.1199(4) 0.9612(7) 0.1025(2)
C9 C 0.1248(4) 0.8968(8) 0.0588(3)
C10 C 0.1813(4) 0.9279(8) 0.0453(3)
H6 H 0.2174 0.9833 0.0646
C11 C 0.1821(4) 0.8753(9) 0.0031(3)
H7 H 0.2205 0.8945 -0.0049
C12 C 0.1300(4) 0.7958(8) -0.0282(2)
C13 C 0.1289(4) 0.7543(8) -0.0767(3)
C14 C 0.0774(4) 0.7605(8) -0.0126(3)
H8 H 0.0430 0.7011 -0.0310
C15 C 0.0746(4) 0.8119(8) 0.0299(2)
H9 H 0.0378 0.7880 0.0390
C16 C 0.2766(5) 0.4164(9) 0.1638(4)
H10 H 0.3158 0.4116 0.1939
C17 C 0.2362(7) 0.3117(13) 0.1485(6)
H11 H 0.2468 0.2352 0.1665
C18 C 0.1788(8) 0.3222(13) 0.1052(7)
H12 H 0.1489 0.2511 0.0939
C19 C 0.1622(7) 0.4338(13) 0.0769(5)
H13 H 0.1227 0.4412 0.0472
C20 C 0.2101(4) 0.5327(8) 0.0969(4)
H14 H 0.2032 0.6092 0.0791
C21 C 0.5586(8) 0.9542(17) 0.1799(6)
H15 H 0.5431 0.8764 0.1633
C22 C 0.5981(10) 1.054(2) 0.1629(8)
H16 H 0.6174 1.0306 0.1403
C23 C 0.6150(12) 1.175(2) 0.2247(9)
H17 H 0.6469 1.2342 0.2457
C24 C 0.5766(8) 1.0853(15) 0.2454(6)
H18 H 0.5741 1.1021 0.2756
C25 C 0.6054(7) 1.1725(10) 0.1799(4)
H19 H 0.6036 1.2457 0.1612
N2 N 0.5474(3) 0.9851(6) 0.2203(2)
H20 H 0.381(3) 0.898(4) 0.186(2)
H21 H 0.409(4) 0.817(7) 0.1573(11)
Ni1A Ni 0.66345(4) 0.67752(9) 0.33608(3)
O1A O 0.7493(2) 0.7949(5) 0.35093(18)
O2A O 0.6968(3) 0.9848(5) 0.3282(2)
O3A O 0.8448(2) 1.1627(5) 0.23528(17)
O4A O 0.9605(2) 1.1986(5) 0.28090(17)
O5A O 0.9139(3) 0.6678(5) 0.5994(2)
O6A O 0.8311(3) 0.8126(5) 0.59295(17)
O7A O 0.5910(2) 0.8373(5) 0.31472(17)
O8A O 0.5815(2) 0.5425(5) 0.31859(19)
H1A H 0.5704 0.5837 0.2917
H2A H 0.5558 0.5894 0.3072
N1A N 0.7350(3) 0.5263(6) 0.3604(2)
C1A C 0.7505(4) 0.9124(8) 0.3431(2)
C2A C 0.8220(3) 0.9706(7) 0.3524(3)
C3A C 0.8288(3) 1.0329(6) 0.3129(2)
H3A H 0.7895 1.0387 0.2829
C4A C 0.8932(4) 1.0869(7) 0.3171(3)
C5A C 0.8999(4) 1.1546(7) 0.2742(3)
C6A C 0.9501(4) 1.0789(8) 0.3635(3)
H4A H 0.9930 1.1175 0.3676
C7A C 0.9451(4) 1.0176(8) 0.4024(3)
H5A H 0.9845 1.0126 0.4323
C8A C 0.8801(4) 0.9612(7) 0.3975(2)
C9A C 0.8752(4) 0.8968(8) 0.4412(3)
C10A C 0.8187(4) 0.9279(8) 0.4547(3)
H6A H 0.7826 0.9833 0.4354
C11A C 0.8179(4) 0.8753(9) 0.4969(3)
H7A H 0.7795 0.8945 0.5049
C12A C 0.8700(4) 0.7958(8) 0.5282(2)
C13A C 0.8711(4) 0.7543(8) 0.5767(3)
C14A C 0.9226(4) 0.7605(8) 0.5126(3)
H8A H 0.9570 0.7011 0.5310
C15A C 0.9254(4) 0.8119(8) 0.4701(2)
H9A H 0.9622 0.7880 0.4610
C16A C 0.7234(5) 0.4164(9) 0.3362(4)
H10A H 0.6842 0.4116 0.3061
C17A C 0.7638(7) 0.3117(13) 0.3515(6)
H11A H 0.7532 0.2352 0.3335
C18A C 0.8212(8) 0.3222(13) 0.3948(7)
H12A H 0.8511 0.2511 0.4061
C19A C 0.8378(7) 0.4338(13) 0.4231(5)
H13A H 0.8773 0.4412 0.4528
C20A C 0.7899(4) 0.5327(8) 0.4031(4)
H14A H 0.7968 0.6092 0.4209
C21A C 0.4414(8) 0.9542(17) 0.3201(6)
H15A H 0.4569 0.8764 0.3367
C22A C 0.4019(10) 1.054(2) 0.3371(8)
H16A H 0.3826 1.0306 0.3597
C23A C 0.3850(12) 1.175(2) 0.2753(9)
H17A H 0.3531 1.2342 0.2543
C24A C 0.4234(8) 1.0853(15) 0.2546(6)
H18A H 0.4259 1.1021 0.2244
C25A C 0.3946(7) 1.1725(10) 0.3201(4)
H19A H 0.3964 1.2457 0.3388
N2A N 0.4526(3) 0.9851(6) 0.2797(2)
H20A H 0.619(3) 0.898(4) 0.314(2)
H21A H 0.591(4) 0.817(7) 0.3427(11)
Ni1B Ni 0.83655(4) 1.17752(9) 0.16392(3)
Ni1C Ni 0.16345(4) 1.17752(9) 0.33608(3)
Ni1F Ni 0.16345(4) 0.82248(9) -0.16392(3)
Ni1G Ni 0.83655(4) 0.82248(9) 0.66392(3)
Ni2B Ni 0.0000 1.34253(12) 0.2500
Ni2B_2 Ni 1.0000 1.34253(12) 0.2500
O3B O 0.6552(2) 0.6627(5) 0.26472(17)
O3C O 0.3448(2) 0.6627(5) 0.23528(17)
O4B O 0.5395(2) 0.6986(5) 0.21910(17)
O4C O 0.4605(2) 0.6986(5) 0.28090(17)
O6F O 0.3311(3) 0.6874(5) 0.09295(17)
O6G O 0.6689(3) 0.6874(5) 0.40705(17)
loop_
_geom_bond_atom_site_label_1
_geom_bond_atom_site_label_2
_geom_bond_site_symmetry_1
_geom_bond_site_symmetry_2
Ni1 O1 1_555 1_555
Ni2 O7 1_555 1_555
O1 C1 1_555 1_555
O2 C1 1_555 1_555
O3 C5 1_555 1_555
O4 C5 1_555 1_555
O5 C13 1_555 1_555
O6 C13 1_555 1_555
O7 Ni1 1_555 1_555
O8 Ni1 1_555 1_555
H1 O8 1_555 1_555
H2 O8 1_555 1_555
N1 Ni1 1_555 1_555
C1 C2 1_555 1_555
C2 C3 1_555 1_555
C3 H3 1_555 1_555
C4 C3 1_555 1_555
C5 C4 1_555 1_555
C6 C4 1_555 1_555
H4 C6 1_555 1_555
C7 C6 1_555 1_555
H5 C7 1_555 1_555
C8 C2 1_555 1_555
C9 C8 1_555 1_555
C10 C9 1_555 1_555
H6 C10 1_555 1_555
C11 C10 1_555 1_555
H7 C11 1_555 1_555
C12 C11 1_555 1_555
C13 C12 1_555 1_555
C14 C12 1_555 1_555
H8 C14 1_555 1_555
C15 C9 1_555 1_555
H9 C15 1_555 1_555
C16 N1 1_555 1_555
H10 C16 1_555 1_555
C17 C16 1_555 1_555
H11 C17 1_555 1_555
C18 C17 1_555 1_555
H12 C18 1_555 1_555
C19 C18 1_555 1_555
H13 C19 1_555 1_555
C20 N1 1_555 1_555
H14 C20 1_555 1_555
C21 H15 1_555 1_555
C22 C21 1_555 1_555
H16 C22 1_555 1_555
C23 H17 1_555 1_555
C24 C23 1_555 1_555
H18 C24 1_555 1_555
C25 C22 1_555 1_555
H19 C25 1_555 1_555
N2 Ni2 1_555 1_555
H20 O7 1_555 1_555
H21 O7 1_555 1_555
Ni1A O1A 1_555 1_555
O1A C1A 1_555 1_555
O2A C1A 1_555 1_555
O3A C5A 1_555 1_555
O4A C5A 1_555 1_555
O5A C13A 1_555 1_555
O6A C13A 1_555 1_555
O7A Ni2 1_555 1_555
O8A Ni1A 1_555 1_555
H1A O8A 1_555 1_555
H2A O8A 1_555 1_555
N1A Ni1A 1_555 1_555
C1A C2A 1_555 1_555
C2A C3A 1_555 1_555
C3A H3A 1_555 1_555
C4A C3A 1_555 1_555
C5A C4A 1_555 1_555
C6A C4A 1_555 1_555
H4A C6A 1_555 1_555
C7A C6A 1_555 1_555
H5A C7A 1_555 1_555
C8A C2A 1_555 1_555
C9A C8A 1_555 1_555
C10A C9A 1_555 1_555
H6A C10A 1_555 1_555
C11A C10A 1_555 1_555
H7A C11A 1_555 1_555
C12A C11A 1_555 1_555
C13A C12A 1_555 1_555
C14A C12A 1_555 1_555
H8A C14A 1_555 1_555
C15A C9A 1_555 1_555
H9A C15A 1_555 1_555
C16A N1A 1_555 1_555
H10A C16A 1_555 1_555
C17A C16A 1_555 1_555
H11A C17A 1_555 1_555
C18A C17A 1_555 1_555
H12A C18A 1_555 1_555
C19A C18A 1_555 1_555
H13A C19A 1_555 1_555
C20A N1A 1_555 1_555
H14A C20A 1_555 1_555
C21A H15A 1_555 1_555
C22A C21A 1_555 1_555
H16A C22A 1_555 1_555
C23A H17A 1_555 1_555
C24A C23A 1_555 1_555
H18A C24A 1_555 1_555
C25A C22A 1_555 1_555
H19A C25A 1_555 1_555
N2A Ni2 1_555 1_555
H20A O7A 1_555 1_555
H21A O7A 1_555 1_555
Ni1B O3A 1_555 1_555
Ni1C O3 1_555 1_555
Ni1F O6 1_555 1_555
Ni1G O6A 1_555 1_555
Ni2B O4 1_555 1_555
Ni2B_2 O4A 1_555 1_555
O3B Ni1A 1_555 1_555
O3C Ni1 1_555 1_555
O4B Ni2 1_555 1_555
O4C Ni2 1_555 1_555
O6F Ni1 1_555 1_555
O6G Ni1A 1_555 1_555
C7 C8 1_555 1_555
C14 C15 1_555 1_555
C19 C20 1_555 1_555
C21 N2 1_555 1_555
C23 C25 1_555 1_555
C24 N2 1_555 1_555
Ni1A O7A 1_555 1_555
C7A C8A 1_555 1_555
C14A C15A 1_555 1_555
C19A C20A 1_555 1_555
C21A N2A 1_555 1_555
C23A C25A 1_555 1_555
C24A N2A 1_555 1_555

#END
