
#######################################################################
#
#                 Cambridge Crystallographic Data Centre
#                                CCDC 
#
#######################################################################
#
# If this CIF has been generated from an entry in the Cambridge 
# Structural Database, then it will include bibliographic, chemical, 
# crystal, experimental, refinement or atomic coordinate data resulting 
# from the CCDC's data processing and validation procedures.
#
#######################################################################

data_FAHQIR
_chemical_formula_moiety         '(C55 H47 Co3 N5 O16)n'
_symmetry_cell_setting           monoclinic
_symmetry_space_group_name_H-M   'C 2/c'
_symmetry_Int_Tables_number      15
_space_group_name_Hall           '-C 2yc'
loop_
_symmetry_equiv_pos_site_id
_symmetry_equiv_pos_as_xyz
1 x,y,z
2 -x,y,1/2-z
3 1/2+x,1/2+y,z
4 1/2-x,1/2+y,1/2-z
5 -x,-y,-z
6 x,-y,1/2+z
7 1/2-x,1/2-y,-z
8 1/2+x,1/2-y,1/2+z
_cell_length_a                   20.600(5)
_cell_length_b                   10.4271(11)
_cell_length_c                   29.646(5)
_cell_angle_alpha                90
_cell_angle_beta                 113.51(2)
_cell_angle_gamma                90
_cell_volume                     5839.31
loop_
_atom_site_label
_atom_site_type_symbol
_atom_site_fract_x
_atom_site_fract_y
_atom_site_fract_z
_atom_site_U_iso_or_equiv
_atom_site_thermal_displace_type
Co1 Co 0.0000 0.65927(12) 0.2500 0.0235 Uani
Co2 Co 0.16514(5) 0.82583(9) 0.33702(4) 0.0243 Uani
O1 O 0.0402(3) 0.8053(4) 0.21925(18) 0.0289 Uani
O2 O 0.1552(3) 0.8441(5) 0.26513(19) 0.0354 Uani
O3 O 0.3022(3) 1.0175(5) 0.1728(2) 0.0441 Uani
O4 O 0.2496(3) 1.2088(5) 0.14893(18) 0.0320 Uani
O5 O 0.0850(3) 1.3292(5) -0.0990(2) 0.0443 Uani
O6 O 0.1694(3) 1.1875(5) -0.09162(19) 0.0395 Uani
O7 O 0.0810(3) 0.9554(5) 0.31836(19) 0.0389 Uani
H1 H 0.0871 1.0112 0.3425 0.0590 Uiso
H2 H 0.0402 0.9154 0.3122 0.0590 Uiso
O8 O 0.0904(3) 0.6623(5) 0.31578(18) 0.0244 Uani
N1 N 0.0503(4) 0.5137(6) 0.2220(2) 0.0366 Uani
N2 N 0.2385(4) 0.9792(6) 0.3628(3) 0.0404 Uani
C1 C 0.1006(4) 0.8506(7) 0.2257(3) 0.0293 Uani
C2 C 0.1073(4) 0.9133(7) 0.1832(3) 0.0259 Uani
C3 C 0.1704(4) 0.9692(6) 0.1871(3) 0.0218 Uani
H3 H 0.2091 0.9648 0.2172 0.0260 Uiso
C4 C 0.1786(4) 1.0312(6) 0.1485(3) 0.0232 Uani
C5 C 0.2492(4) 1.0896(7) 0.1575(3) 0.0270 Uani
C6 C 0.1208(4) 1.0394(7) 0.1026(3) 0.0260 Uani
C7 C 0.0588(4) 0.9817(7) 0.0988(3) 0.0369 Uani
H4 H 0.0203 0.9829 0.0686 0.0440 Uiso
C8 C 0.0512(4) 0.9229(7) 0.1376(3) 0.0353 Uani
H5 H 0.0075 0.8884 0.1334 0.0420 Uiso
C9 C 0.1255(4) 1.1014(7) 0.0589(3) 0.0280 Uani
C10 C 0.1821(5) 1.0716(7) 0.0464(3) 0.0367 Uani
H6 H 0.2184 1.0186 0.0665 0.0440 Uiso
C11 C 0.1840(5) 1.1222(8) 0.0033(3) 0.0369 Uani
H7 H 0.2218 1.1024 -0.0050 0.0450 Uiso
C12 C 0.1299(4) 1.2021(7) -0.0277(3) 0.0297 Uani
C13 C 0.1289(5) 1.2447(8) -0.0761(3) 0.0316 Uani
C14 C 0.0771(5) 1.2336(8) -0.0134(3) 0.0357 Uani
H8 H 0.0416 1.2891 -0.0329 0.0430 Uiso
C15 C 0.0741(4) 1.1855(8) 0.0299(3) 0.0417 Uani
H9 H 0.0376 1.2101 0.0390 0.0500 Uiso
C16 C 0.0728(8) 0.4074(12) 0.2432(5) 0.1092 Uani
H10 H 0.0656 0.3872 0.2714 0.1310 Uiso
C17 C 0.1111(10) 0.3125(16) 0.2240(7) 0.1531 Uani
H11 H 0.1253 0.2321 0.2381 0.1840 Uiso
C18 C 0.1224(10) 0.3513(17) 0.1867(7) 0.1357 Uani
H12 H 0.1480 0.2981 0.1747 0.1630 Uiso
C19 C 0.1010(12) 0.456(2) 0.1655(8) 0.1749 Uani
H13 H 0.1069 0.4788 0.1370 0.2100 Uiso
C20 C 0.0685(8) 0.5355(14) 0.1865(6) 0.1211 Uani
H14 H 0.0582 0.6173 0.1730 0.1460 Uiso
C21 C 0.2925(6) 0.9695(10) 0.4057(4) 0.0682 Uani
H15 H 0.3005 0.8926 0.4229 0.0820 Uiso
C22 C 0.3383(8) 1.0737(14) 0.4258(6) 0.1292 Uani
H16 H 0.3755 1.0675 0.4565 0.1550 Uiso
C23 C 0.3265(9) 1.1856(14) 0.3986(7) 0.1277 Uani
H17 H 0.3583 1.2535 0.4094 0.1550 Uiso
C24 C 0.2694(9) 1.1949(12) 0.3570(6) 0.1158 Uani
H18 H 0.2574 1.2720 0.3400 0.1390 Uiso
C25 C 0.2288(6) 1.0884(9) 0.3400(4) 0.0706 Uani
H19 H 0.1910 1.0942 0.3095 0.0850 Uiso
H20 H 0.083(4) 0.668(6) 0.3423(15) 0.0500 Uiso
H21 H 0.123(3) 0.609(5) 0.316(2) 0.0300 Uiso
Co2A Co -0.16514(5) 0.82583(9) 0.16298(4) 0.0243 Uani
O1A O -0.0402(3) 0.8053(4) 0.28075(18) 0.0289 Uani
O2A O -0.1552(3) 0.8441(5) 0.23487(19) 0.0354 Uani
O3A O -0.3022(3) 1.0175(5) 0.3272(2) 0.0441 Uani
O4A O -0.2496(3) 1.2088(5) 0.35107(18) 0.0320 Uani
O5A O -0.0850(3) 1.3292(5) 0.5990(2) 0.0443 Uani
O6A O -0.1694(3) 1.1875(5) 0.59162(19) 0.0395 Uani
O7A O -0.0810(3) 0.9554(5) 0.18164(19) 0.0389 Uani
H1A H -0.0871 1.0112 0.1575 0.0590 Uiso
H2A H -0.0402 0.9154 0.1878 0.0590 Uiso
O8A O -0.0904(3) 0.6623(5) 0.18422(18) 0.0244 Uani
N1A N -0.0503(4) 0.5137(6) 0.2780(2) 0.0366 Uani
N2A N -0.2385(4) 0.9792(6) 0.1372(3) 0.0404 Uani
C1A C -0.1006(4) 0.8506(7) 0.2743(3) 0.0293 Uani
C2A C -0.1073(4) 0.9133(7) 0.3168(3) 0.0259 Uani
C3A C -0.1704(4) 0.9692(6) 0.3129(3) 0.0218 Uani
H3A H -0.2091 0.9648 0.2828 0.0260 Uiso
C4A C -0.1786(4) 1.0312(6) 0.3515(3) 0.0232 Uani
C5A C -0.2492(4) 1.0896(7) 0.3425(3) 0.0270 Uani
C6A C -0.1208(4) 1.0394(7) 0.3974(3) 0.0260 Uani
C7A C -0.0588(4) 0.9817(7) 0.4012(3) 0.0369 Uani
H4A H -0.0203 0.9829 0.4314 0.0440 Uiso
C8A C -0.0512(4) 0.9229(7) 0.3624(3) 0.0353 Uani
H5A H -0.0075 0.8884 0.3666 0.0420 Uiso
C9A C -0.1255(4) 1.1014(7) 0.4411(3) 0.0280 Uani
C10A C -0.1821(5) 1.0716(7) 0.4536(3) 0.0367 Uani
H6A H -0.2184 1.0186 0.4335 0.0440 Uiso
C11A C -0.1840(5) 1.1222(8) 0.4967(3) 0.0369 Uani
H7A H -0.2218 1.1024 0.5050 0.0450 Uiso
C12A C -0.1299(4) 1.2021(7) 0.5277(3) 0.0297 Uani
C13A C -0.1289(5) 1.2447(8) 0.5761(3) 0.0316 Uani
C14A C -0.0771(5) 1.2336(8) 0.5134(3) 0.0357 Uani
H8A H -0.0416 1.2891 0.5329 0.0430 Uiso
C15A C -0.0741(4) 1.1855(8) 0.4701(3) 0.0417 Uani
H9A H -0.0376 1.2101 0.4610 0.0500 Uiso
C16A C -0.0728(8) 0.4074(12) 0.2568(5) 0.1092 Uani
H10A H -0.0656 0.3872 0.2286 0.1310 Uiso
C17A C -0.1111(10) 0.3125(16) 0.2760(7) 0.1531 Uani
H11A H -0.1253 0.2321 0.2619 0.1840 Uiso
C18A C -0.1224(10) 0.3513(17) 0.3133(7) 0.1357 Uani
H12A H -0.1480 0.2981 0.3253 0.1630 Uiso
C19A C -0.1010(12) 0.456(2) 0.3345(8) 0.1749 Uani
H13A H -0.1069 0.4788 0.3630 0.2100 Uiso
C20A C -0.0685(8) 0.5355(14) 0.3135(6) 0.1211 Uani
H14A H -0.0582 0.6173 0.3270 0.1460 Uiso
C21A C -0.2925(6) 0.9695(10) 0.0943(4) 0.0682 Uani
H15A H -0.3005 0.8926 0.0771 0.0820 Uiso
C22A C -0.3383(8) 1.0737(14) 0.0742(6) 0.1292 Uani
H16A H -0.3755 1.0675 0.0435 0.1550 Uiso
C23A C -0.3265(9) 1.1856(14) 0.1014(7) 0.1277 Uani
H17A H -0.3583 1.2535 0.0906 0.1550 Uiso
C24A C -0.2694(9) 1.1949(12) 0.1430(6) 0.1158 Uani
H18A H -0.2574 1.2720 0.1600 0.1390 Uiso
C25A C -0.2288(6) 1.0884(9) 0.1600(4) 0.0706 Uani
H19A H -0.1910 1.0942 0.1905 0.0850 Uiso
H20A H -0.083(4) 0.668(6) 0.1577(15) 0.0500 Uiso
H21A H -0.123(3) 0.609(5) 0.184(2) 0.0300 Uiso
Co2B Co -0.33486(5) 1.32583(9) 0.33702(4) 0.0243 Uani
Co2C Co 0.33486(5) 1.32583(9) 0.16298(4) 0.0243 Uani
Co2D Co -0.16514(5) 1.17417(9) 0.66298(4) 0.0243 Uani
Co2E Co 0.16514(5) 1.17417(9) -0.16298(4) 0.0243 Uani
O4B O -0.2504(3) 0.7088(5) 0.14893(18) 0.0320 Uani
O4C O 0.2504(3) 0.7088(5) 0.35107(18) 0.0320 Uani
O6D O -0.1694(3) 0.8125(5) 0.09162(19) 0.0395 Uani
O6E O 0.1694(3) 0.8125(5) 0.40838(19) 0.0395 Uani
N3 N -0.0981(6) 1.1424(9) 0.1129(4) 0.0802 Uani
C26 C -0.1372(12) 1.3615(19) 0.0575(8) 0.1646 Uani
H22 H -0.1457 1.4336 0.0375 0.1970 Uiso
C27 C -0.1476(16) 1.379(2) 0.0988(10) 0.0860 Uani
H23 H -0.1729 1.4445 0.1057 0.1030 Uiso
C28 C -0.109(3) 1.136(4) 0.0662(18) 0.1620 Uani
H24 H -0.1140 1.0553 0.0521 0.1960 Uiso
C29 C -0.113(2) 1.238(4) 0.0367(14) 0.1492 Uani
H25 H -0.1025 1.2361 0.0088 0.1790 Uiso
C30 C -0.113(2) 1.279(4) 0.1289(15) 0.1461 Uani
H26 H -0.0957 1.2938 0.1626 0.1760 Uiso
loop_
_atom_site_aniso_label
_atom_site_aniso_U_11
_atom_site_aniso_U_22
_atom_site_aniso_U_33
_atom_site_aniso_U_23
_atom_site_aniso_U_13
_atom_site_aniso_U_12
Co1 0.0182(9) 0.0282(8) 0.0248(8) 0.000 0.0092(7) 0.000
Co2 0.0189(6) 0.0290(6) 0.0257(6) 0.0000(4) 0.0096(5) -0.0003(5)
O1 0.022(3) 0.035(3) 0.031(3) 0.011(2) 0.012(3) 0.001(3)
O2 0.018(3) 0.056(4) 0.033(3) 0.014(3) 0.011(3) 0.003(3)
O3 0.025(4) 0.038(3) 0.067(4) 0.009(3) 0.016(3) -0.002(3)
O4 0.024(3) 0.035(3) 0.032(3) -0.003(2) 0.006(3) -0.008(3)
O5 0.047(4) 0.057(4) 0.032(3) 0.013(3) 0.019(3) 0.020(3)
O6 0.040(4) 0.054(4) 0.027(3) 0.012(3) 0.016(3) 0.007(3)
O7 0.016(3) 0.040(3) 0.055(4) -0.011(3) 0.008(3) 0.001(3)
O8 0.019(3) 0.033(3) 0.022(3) -0.004(2) 0.009(3) 0.006(3)
N1 0.037(4) 0.030(3) 0.039(4) -0.005(3) 0.011(3) 0.009(3)
N2 0.034(5) 0.028(4) 0.058(5) 0.007(4) 0.017(4) -0.006(3)
C1 0.026(5) 0.032(4) 0.037(5) 0.006(4) 0.020(4) 0.001(4)
C2 0.021(5) 0.033(4) 0.027(4) 0.007(3) 0.013(4) -0.005(4)
C3 0.025(5) 0.024(4) 0.017(4) -0.005(3) 0.009(4) -0.012(3)
C4 0.017(4) 0.025(4) 0.034(5) 0.000(3) 0.017(4) -0.006(3)
C5 0.024(5) 0.030(5) 0.030(5) -0.004(4) 0.014(4) -0.012(4)
C6 0.020(5) 0.038(4) 0.024(4) 0.001(3) 0.013(4) -0.005(4)
C7 0.026(5) 0.058(5) 0.016(4) 0.007(4) -0.003(4) -0.012(4)
C8 0.014(5) 0.051(5) 0.041(5) 0.003(4) 0.011(4) -0.007(4)
C9 0.018(5) 0.034(4) 0.028(5) 0.002(3) 0.005(4) -0.003(4)
C10 0.032(6) 0.046(5) 0.029(5) 0.007(4) 0.009(4) 0.006(4)
C11 0.026(5) 0.061(6) 0.023(5) 0.001(4) 0.009(4) 0.002(4)
C12 0.023(5) 0.045(5) 0.015(4) 0.009(4) 0.001(4) -0.009(4)
C13 0.028(5) 0.036(5) 0.027(5) -0.009(4) 0.007(4) -0.012(4)
C14 0.030(5) 0.051(5) 0.030(5) 0.007(4) 0.016(4) 0.004(4)
C15 0.018(5) 0.073(6) 0.037(5) 0.002(5) 0.014(4) 0.009(5)
C16 0.132(9) 0.084(6) 0.108(8) 0.002(6) 0.044(7) 0.027(7)
C17 0.156(11) 0.131(9) 0.164(10) -0.003(8) 0.055(8) 0.044(8)
C18 0.139(10) 0.141(10) 0.139(10) 0.013(8) 0.068(8) 0.058(8)
C19 0.189(12) 0.184(11) 0.186(11) -0.025(9) 0.111(9) 0.023(9)
C20 0.140(10) 0.125(9) 0.145(9) -0.029(7) 0.106(8) -0.002(7)
C21 0.049(8) 0.066(7) 0.077(8) -0.007(6) 0.012(7) -0.022(6)
C22 0.088(13) 0.112(12) 0.143(14) -0.035(11) -0.001(10) -0.059(10)
C23 0.095(14) 0.074(10) 0.20(2) -0.034(11) 0.044(14) -0.062(10)
C24 0.091(13) 0.062(8) 0.169(16) 0.006(9) 0.025(12) -0.047(9)
C25 0.049(8) 0.048(6) 0.103(9) 0.023(6) 0.018(7) -0.012(6)
Co2A 0.0189 0.029 0.0257 0 0.0096 0.0003
O1A 0.022 0.035 0.031 -0.011 0.012 -0.001
O2A 0.018 0.056 0.033 -0.014 0.011 -0.003
O3A 0.025 0.038 0.067 -0.009 0.016 0.002
O4A 0.024 0.035 0.032 0.003 0.006 0.008
O5A 0.047 0.057 0.032 -0.013 0.019 -0.02
O6A 0.04 0.054 0.027 -0.012 0.016 -0.007
O7A 0.016 0.04 0.055 0.011 0.008 -0.001
O8A 0.019 0.033 0.022 0.004 0.009 -0.006
N1A 0.037 0.03 0.039 0.005 0.011 -0.009
N2A 0.034 0.028 0.058 -0.007 0.017 0.006
C1A 0.026 0.032 0.037 -0.006 0.02 -0.001
C2A 0.021 0.033 0.027 -0.007 0.013 0.005
C3A 0.025 0.024 0.017 0.005 0.009 0.012
C4A 0.017 0.025 0.034 0 0.017 0.006
C5A 0.024 0.03 0.03 0.004 0.014 0.012
C6A 0.02 0.038 0.024 -0.001 0.013 0.005
C7A 0.026 0.058 0.016 -0.007 -0.003 0.012
C8A 0.014 0.051 0.041 -0.003 0.011 0.007
C9A 0.018 0.034 0.028 -0.002 0.005 0.003
C10A 0.032 0.046 0.029 -0.007 0.009 -0.006
C11A 0.026 0.061 0.023 -0.001 0.009 -0.002
C12A 0.023 0.045 0.015 -0.009 0.001 0.009
C13A 0.028 0.036 0.027 0.009 0.007 0.012
C14A 0.03 0.051 0.03 -0.007 0.016 -0.004
C15A 0.018 0.073 0.037 -0.002 0.014 -0.009
C16A 0.132 0.084 0.108 -0.002 0.044 -0.027
C17A 0.156 0.131 0.164 0.003 0.055 -0.044
C18A 0.139 0.141 0.139 -0.013 0.068 -0.058
C19A 0.189 0.184 0.186 0.025 0.111 -0.023
C20A 0.14 0.125 0.145 0.029 0.106 0.002
C21A 0.049 0.066 0.077 0.007 0.012 0.022
C22A 0.088 0.112 0.143 0.035 -0.001 0.059
C23A 0.095 0.074 0.2 0.034 0.044 0.062
C24A 0.091 0.062 0.169 -0.006 0.025 0.047
C25A 0.049 0.048 0.103 -0.023 0.018 0.012
Co2B 0.0189 0.029 0.0257 0 0.0096 -0.0003
Co2C 0.0189 0.029 0.0257 0 0.0096 0.0003
Co2D 0.0189 0.029 0.0257 0 0.0096 -0.0003
Co2E 0.0189 0.029 0.0257 0 0.0096 0.0003
O4B 0.024 0.035 0.032 -0.003 0.006 -0.008
O4C 0.024 0.035 0.032 0.003 0.006 0.008
O6D 0.04 0.054 0.027 0.012 0.016 0.007
O6E 0.04 0.054 0.027 -0.012 0.016 -0.007
N3 0.058(7) 0.071(6) 0.095(8) 0.037(6) 0.013(6) 0.000(6)
C26 0.176(12) 0.139(10) 0.167(11) 0.033(8) 0.056(9) 0.017(9)
C27 0.099(12) 0.072(10) 0.083(11) -0.004(8) 0.032(9) 0.018(9)
C28 0.16(2) 0.157(19) 0.166(19) 0.003(10) 0.062(11) 0.001(10)
C29 0.155(16) 0.152(16) 0.143(15) 0.002(10) 0.062(10) 0.002(10)
C30 0.154(15) 0.145(12) 0.143(14) -0.016(9) 0.063(10) 0.009(10)
loop_
_geom_bond_atom_site_label_1
_geom_bond_atom_site_label_2
_geom_bond_site_symmetry_1
_geom_bond_site_symmetry_2
Co1 O1 1_555 1_555
Co2 O2 1_555 1_555
O1 C1 1_555 1_555
O2 C1 1_555 1_555
O3 C5 1_555 1_555
O4 C5 1_555 1_555
O5 C13 1_555 1_555
O6 C13 1_555 1_555
O7 Co2 1_555 1_555
H1 O7 1_555 1_555
H2 O7 1_555 1_555
O8 Co1 1_555 1_555
N1 Co1 1_555 1_555
N2 Co2 1_555 1_555
C1 C2 1_555 1_555
C2 C3 1_555 1_555
C3 H3 1_555 1_555
C4 C3 1_555 1_555
C5 C4 1_555 1_555
C6 C4 1_555 1_555
C7 C6 1_555 1_555
H4 C7 1_555 1_555
C8 C2 1_555 1_555
H5 C8 1_555 1_555
C9 C6 1_555 1_555
C10 C9 1_555 1_555
H6 C10 1_555 1_555
C11 C10 1_555 1_555
H7 C11 1_555 1_555
C12 C11 1_555 1_555
C13 C12 1_555 1_555
C14 C12 1_555 1_555
H8 C14 1_555 1_555
C15 C9 1_555 1_555
H9 C15 1_555 1_555
C16 N1 1_555 1_555
H10 C16 1_555 1_555
C17 C16 1_555 1_555
H11 C17 1_555 1_555
C18 C17 1_555 1_555
H12 C18 1_555 1_555
C19 C18 1_555 1_555
H13 C19 1_555 1_555
C20 N1 1_555 1_555
H14 C20 1_555 1_555
C21 N2 1_555 1_555
H15 C21 1_555 1_555
C22 C21 1_555 1_555
H16 C22 1_555 1_555
C23 C22 1_555 1_555
H17 C23 1_555 1_555
C24 C23 1_555 1_555
H18 C24 1_555 1_555
C25 N2 1_555 1_555
H19 C25 1_555 1_555
H20 O8 1_555 1_555
H21 O8 1_555 1_555
N3 C28 1_555 1_555
C26 H22 1_555 1_555
C27 C26 1_555 1_555
H23 C27 1_555 1_555
C28 H24 1_555 1_555
C29 C26 1_555 1_555
H25 C29 1_555 1_555
C30 N3 1_555 1_555
H26 C30 1_555 1_555
Co2A O2A 1_555 1_555
O1A Co1 1_555 1_555
O2A C1A 1_555 1_555
O3A C5A 1_555 1_555
O4A C5A 1_555 1_555
O5A C13A 1_555 1_555
O6A C13A 1_555 1_555
O7A Co2A 1_555 1_555
H1A O7A 1_555 1_555
H2A O7A 1_555 1_555
O8A Co1 1_555 1_555
N1A Co1 1_555 1_555
N2A Co2A 1_555 1_555
C1A O1A 1_555 1_555
C2A C1A 1_555 1_555
C3A C2A 1_555 1_555
H3A C3A 1_555 1_555
C4A C3A 1_555 1_555
C5A C4A 1_555 1_555
C6A C4A 1_555 1_555
C7A C6A 1_555 1_555
H4A C7A 1_555 1_555
C8A C2A 1_555 1_555
H5A C8A 1_555 1_555
C9A C6A 1_555 1_555
C10A C9A 1_555 1_555
H6A C10A 1_555 1_555
C11A C10A 1_555 1_555
H7A C11A 1_555 1_555
C12A C11A 1_555 1_555
C13A C12A 1_555 1_555
C14A C12A 1_555 1_555
H8A C14A 1_555 1_555
C15A C9A 1_555 1_555
H9A C15A 1_555 1_555
C16A N1A 1_555 1_555
H10A C16A 1_555 1_555
C17A C16A 1_555 1_555
H11A C17A 1_555 1_555
C18A C17A 1_555 1_555
H12A C18A 1_555 1_555
C19A C18A 1_555 1_555
H13A C19A 1_555 1_555
C20A N1A 1_555 1_555
H14A C20A 1_555 1_555
C21A N2A 1_555 1_555
H15A C21A 1_555 1_555
C22A C21A 1_555 1_555
H16A C22A 1_555 1_555
C23A C22A 1_555 1_555
H17A C23A 1_555 1_555
C24A C23A 1_555 1_555
H18A C24A 1_555 1_555
C25A N2A 1_555 1_555
H19A C25A 1_555 1_555
H20A O8A 1_555 1_555
H21A O8A 1_555 1_555
Co2B O4A 1_555 1_555
Co2C O4 1_555 1_555
Co2D O6A 1_555 1_555
Co2E O6 1_555 1_555
O4B Co2A 1_555 1_555
O4C Co2 1_555 1_555
O6D Co2A 1_555 1_555
O6E Co2 1_555 1_555
Co2 O8 1_555 1_555
C7 C8 1_555 1_555
C14 C15 1_555 1_555
C19 C20 1_555 1_555
C24 C25 1_555 1_555
C27 C30 1_555 1_555
C28 C29 1_555 1_555
Co2A O8A 1_555 1_555
C7A C8A 1_555 1_555
C14A C15A 1_555 1_555
C19A C20A 1_555 1_555
C24A C25A 1_555 1_555

#END
