
#######################################################################
#
#                 Cambridge Crystallographic Data Centre
#                                CCDC 
#
#######################################################################
#
# If this CIF has been generated from an entry in the Cambridge 
# Structural Database, then it will include bibliographic, chemical, 
# crystal, experimental, refinement or atomic coordinate data resulting 
# from the CCDC's data processing and validation procedures.
#
#######################################################################

data_LUGLOO
_chemical_formula_moiety         '(C12 H8 Cd2 N16)n'
_symmetry_cell_setting           trigonal
_symmetry_space_group_name_H-M   'P 31 2 1'
_symmetry_Int_Tables_number      152
_space_group_name_Hall           'P 31 2"'
loop_
_symmetry_equiv_pos_site_id
_symmetry_equiv_pos_as_xyz
1 x,y,z
2 -y,x-y,1/3+z
3 -x+y,-x,2/3+z
4 y,x,-z
5 x-y,-y,2/3-z
6 -x,-x+y,1/3-z
_cell_length_a                   13.8325(4)
_cell_length_b                   13.8325(4)
_cell_length_c                   9.0673(4)
_cell_angle_alpha                90
_cell_angle_beta                 90
_cell_angle_gamma                120
_cell_volume                     1502.48
loop_
_atom_site_label
_atom_site_type_symbol
_atom_site_fract_x
_atom_site_fract_y
_atom_site_fract_z
Cd1 Cd 0.36887(3) 0.91417(3) 0.01457(4)
C1 C 0.5122(4) 0.8536(4) 0.4317(5)
N1 N 0.3144(6) 1.0000 -0.1667
N2 N 0.4697(4) 0.8709(4) 0.1826(4)
C2 C 0.4428(4) 0.8595(4) 0.3245(4)
H1 H 0.3763 0.8554 0.3532
C3 C 0.6106(5) 0.8574(5) 0.3863(6)
H2 H 0.6592 0.8545 0.4545
N3 N 0.2554(6) 0.9383(5) 0.2002(6)
C4 C 0.5604(5) 0.8708(5) 0.1406(6)
H3 H 0.5755 0.8743 0.0402
C5 C 0.6334(6) 0.8658(6) 0.2363(6)
H4 H 0.6977 0.8680 0.2018
C6 C 0.4851(4) 0.8441(4) 0.5921(5)
N4 N 0.4985(5) 0.7750(4) 0.6811(4)
N5 N 0.4481(4) 0.9023(3) 0.6640(4)
N6 N 0.4361(4) 0.8661(4) 0.8030(4)
N7 N 0.4641(4) 0.7885(4) 0.8134(4)
N8 N 0.2421(10) 1.0000 -0.1667
N9 N 0.3156(10) 1.0000 0.3333
N10 N 0.1482(9) 1.0000 -0.1667
N3D N 0.3171(8) 1.0617(5) 0.4665(6)
C1A C 0.1464(4) 0.6586(6) -0.2350(5)
N2A N 0.1291(4) 0.5988(6) -0.4841(4)
C2A C 0.1405(4) 0.5833(6) -0.3422(4)
H1A H 0.1446 0.5209 -0.3135
C3A C 0.1426(5) 0.7532(7) -0.2804(6)
H2A H 0.1455 0.8047 -0.2122
C4A C 0.1292(5) 0.6896(7) -0.5261(6)
H3A H 0.1257 0.7012 -0.6265
C5A C 0.1342(6) 0.7676(8) -0.4304(6)
H4A H 0.1320 0.8297 -0.4649
C6A C 0.1559(4) 0.6410(6) -0.0746(5)
N4A N 0.2250(4) 0.7235(6) 0.0144(4)
N5A N 0.0977(3) 0.5458(5) -0.0027(4)
N6A N 0.1339(4) 0.5700(6) 0.1363(4)
N7A N 0.2115(4) 0.6756(6) 0.1467(4)
Cd1D Cd 0.45470(4) 1.08583(3) -0.34790(4)
N5D N 0.5458(5) 1.0977(3) 0.0027(4)
N6_2 N 0.4361(4) 0.8661(4) -0.1970(4)
Cd1B Cd 0.54530(4) 0.63113(3) 0.68124(4)
Cd1D_2 Cd 0.45470(4) 1.08583(3) 0.65210(4)
Cd1_2 Cd 0.36887(3) 0.91417(3) 1.01457(4)
Cd1A Cd 0.08583(3) 0.45470(4) -0.65210(4)
Cd1C Cd -0.08583(3) 0.36887(3) -0.01457(4)
Cd1A_2 Cd 0.08583(3) 0.45470(4) 0.34790(4)
N2D N 0.5988(6) 1.1291(4) -0.5159(4)
N3D_2 N 0.3171(8) 1.0617(5) -0.5335(6)
N4E N 0.5015(5) 1.2765(6) -0.3478(4)
N5_2 N 0.4481(4) 0.9023(3) -0.3360(4)
N6D N 0.5700(6) 1.1339(4) -0.1363(4)
loop_
_geom_bond_atom_site_label_1
_geom_bond_atom_site_label_2
_geom_bond_site_symmetry_1
_geom_bond_site_symmetry_2
Cd1 N1 1_555 1_555
C1 C2 1_555 1_555
N1 N8 1_555 1_555
N2 Cd1 1_555 1_555
C2 N2 1_555 1_555
H1 C2 1_555 1_555
C3 C1 1_555 1_555
H2 C3 1_555 1_555
N3 Cd1 1_555 1_555
C4 N2 1_555 1_555
H3 C4 1_555 1_555
C5 C3 1_555 1_555
H4 C5 1_555 1_555
C6 C1 1_555 1_555
N4 C6 1_555 1_555
N5 C6 1_555 1_555
N6 N5 1_555 1_555
N7 N4 1_555 1_555
N8 N10 1_555 1_555
N9 N3 1_555 1_555
N3D N9 1_555 1_555
C1A C2A 1_555 1_555
N2A C2A 1_555 1_555
C2A H1A 1_555 1_555
C3A C1A 1_555 1_555
H2A C3A 1_555 1_555
C4A N2A 1_555 1_555
H3A C4A 1_555 1_555
C5A C3A 1_555 1_555
H4A C5A 1_555 1_555
C6A C1A 1_555 1_555
N4A Cd1 1_555 1_555
N5A C6A 1_555 1_555
N6A N5A 1_555 1_555
N7A N4A 1_555 1_555
Cd1D N1 1_555 1_555
N5D Cd1 1_555 1_555
N6_2 Cd1 1_555 1_555
Cd1B N4 1_555 1_555
Cd1D_2 N5 1_555 1_555
Cd1_2 N6 1_555 1_555
Cd1A N2A 1_555 1_555
Cd1C N5A 1_555 1_555
Cd1A_2 N6A 1_555 1_555
N2D Cd1D 1_555 1_555
N3D_2 Cd1D 1_555 1_555
N4E Cd1D 1_555 1_555
N5_2 Cd1D 1_555 1_555
N6D Cd1D 1_555 1_555
C4 C5 1_555 1_555
N6 N7 1_555 1_555
N3D Cd1D_2 1_555 1_555
C4A C5A 1_555 1_555
C6A N4A 1_555 1_555
N6A N7A 1_555 1_555
N5D N6D 1_555 1_555
N6_2 N5_2 1_555 1_555

#END
