
#######################################################################
#
#                 Cambridge Crystallographic Data Centre
#                                CCDC 
#
#######################################################################
#
# If this CIF has been generated from an entry in the Cambridge 
# Structural Database, then it will include bibliographic, chemical, 
# crystal, experimental, refinement or atomic coordinate data resulting 
# from the CCDC's data processing and validation procedures.
#
#######################################################################

data_BAFCAP
_chemical_formula_moiety         '(C96 H110 O34 Zn3)n'
_symmetry_cell_setting           triclinic
_symmetry_space_group_name_H-M   'P -1'
_symmetry_Int_Tables_number      2
_space_group_name_Hall           '-P 1'
loop_
_symmetry_equiv_pos_site_id
_symmetry_equiv_pos_as_xyz
1 x,y,z
2 -x,-y,-z
_cell_length_a                   12.0432(11)
_cell_length_b                   15.9322(18)
_cell_length_c                   16.642(2)
_cell_angle_alpha                76.770(10)
_cell_angle_beta                 70.172(10)
_cell_angle_gamma                85.481(9)
_cell_volume                     2924.14
loop_
_atom_site_label
_atom_site_type_symbol
_atom_site_fract_x
_atom_site_fract_y
_atom_site_fract_z
Zn1 Zn 0.67807(7) 0.84075(6) 0.36224(5)
Zn2 Zn 0.5000 1.0000 0.5000
C1 C 0.7498(5) 1.1357(5) 0.1370(4)
H1 H 0.7643 1.0959 0.1827
C2 C 0.6367(5) 1.1431(5) 0.1267(4)
C3 C 0.6169(5) 1.1950(4) 0.0589(4)
C4 C 0.7101(5) 1.2483(4) -0.0008(4)
H2 H 0.6972 1.2865 -0.0481
C5 C 0.8190(5) 1.2460(5) 0.0082(4)
C6 C 0.8354(5) 1.1891(5) 0.0773(4)
C7 C 0.9198(6) 1.3048(4) -0.0564(4)
H3 H 0.9932 1.2713 -0.0651
C8 C 0.9296(8) 1.3807(6) -0.0112(5)
C9 C 0.9282(18) 1.3598(16) 0.0822(12)
C10 C 0.9064(5) 1.3393(5) -0.1441(4)
C11 C 0.8791(5) 1.4250(5) -0.1758(4)
H4 H 0.8622 1.4625 -0.1378
C12 C 0.8755(5) 1.4569(4) -0.2569(5)
C13 C 0.9006(6) 1.3997(5) -0.3149(4)
C14 C 0.9261(6) 1.3149(5) -0.2861(5)
H5 H 0.9418 1.2772 -0.3238
C15 C 0.9288(5) 1.2848(5) -0.2027(5)
C16 C 0.8480(6) 1.5507(5) -0.2886(4)
H6 H 0.8966 1.5660 -0.3504
C17 C 0.8797(7) 1.6146(5) -0.2454(6)
H7 H 0.8537 1.6714 -0.2682
H8 H 0.8366 1.5997 -0.1832
C18 C 1.0108(8) 1.6190(7) -0.2584(9)
H9 H 1.0231 1.6601 -0.2281
H10 H 1.0542 1.6363 -0.3196
H11 H 1.0376 1.5632 -0.2355
C19 C 0.7212(6) 1.5672(5) -0.2864(4)
C20 C 0.6838(8) 1.6439(5) -0.3299(5)
C21 C 0.5660(8) 1.6613(5) -0.3274(5)
H12 H 0.5447 1.7125 -0.3586
C22 C 0.4839(7) 1.5978(5) -0.2757(5)
C23 C 0.5133(6) 1.5213(5) -0.2300(4)
C24 C 0.6327(6) 1.5069(4) -0.2343(4)
H13 H 0.6528 1.4561 -0.2018
C25 C 0.4199(7) 1.4559(5) -0.1699(6)
H14 H 0.3669 1.4528 -0.2027
C26 C 0.3439(7) 1.4911(7) -0.0899(7)
C27 C 0.4286(17) 1.5258(13) -0.0349(11)
C28 C 0.4667(6) 1.3655(5) -0.1505(5)
C29 C 0.4634(5) 1.3204(5) -0.0667(5)
H15 H 0.4335 1.3503 -0.0219
C30 C 0.4988(6) 1.2386(5) -0.0440(4)
C31 C 0.5396(6) 1.1962(4) -0.1113(4)
C32 C 0.5463(6) 1.2352(5) -0.1961(4)
H16 H 0.5756 1.2040 -0.2398
C33 C 0.5107(6) 1.3188(5) -0.2173(5)
C34 C 0.4945(5) 1.2004(4) 0.0462(4)
H17 H 0.4724 1.1401 0.0555
C35 C 0.4033(5) 1.2332(5) 0.1191(4)
H18 H 0.4113 1.2951 0.1091
H19 H 0.4163 1.2074 0.1740
C36 C 0.2786(6) 1.2120(6) 0.1258(6)
H20 H 0.2222 1.2343 0.1725
H21 H 0.2697 1.1506 0.1374
H22 H 0.2654 1.2377 0.0717
C37 C 0.5371(6) 1.0660(5) 0.2720(4)
H23 H 0.4538 1.0646 0.3062
H24 H 0.5726 1.1122 0.2840
C38 C 0.5889(7) 0.9864(6) 0.3021(5)
C39 C 0.9707(7) 1.1357(7) 0.1532(6)
H25 H 1.0527 1.1389 0.1466
H26 H 0.9500 1.0768 0.1602
H27 H 0.9235 1.1568 0.2038
C40 C 0.9650(6) 1.1377(5) -0.2205(5)
H28 H 0.9100 1.1517 -0.2527
H29 H 0.9422 1.0819 -0.1814
C41 C 1.0820(7) 1.1287(6) -0.2830(5)
C42 C 0.9361(9) 1.3738(6) -0.4565(4)
H30 H 0.9337 1.4019 -0.5135
H31 H 0.8832 1.3255 -0.4333
H32 H 1.0149 1.3541 -0.4610
C43 C 0.7406(7) 1.7882(6) -0.3977(5)
H33 H 0.8119 1.8197 -0.4088
H34 H 0.6881 1.7962 -0.3411
C44 C 0.6843(9) 1.8404(8) -0.4626(7)
C45 C 0.3434(13) 1.6867(11) -0.3169(11)
H35 H 0.2607 1.6892 -0.3096
H36 H 0.3884 1.6914 -0.3776
H37 H 0.3635 1.7333 -0.2967
C46 C 0.5823(7) 1.3256(6) -0.3658(5)
H38 H 0.6541 1.3031 -0.3546
H39 H 0.6046 1.3713 -0.4180
C47 C 0.5227(8) 1.2533(6) -0.3835(5)
C48 C 0.6124(8) 1.0609(5) -0.1545(5)
H40 H 0.6338 1.0040 -0.1300
H41 H 0.6794 1.0882 -0.2014
H42 H 0.5493 1.0574 -0.1765
O1 O 0.5473(4) 1.0868(3) 0.1827(3)
O2 O 0.6405(5) 0.9411(4) 0.2496(4)
O3 O 0.5809(5) 0.9636(4) 0.3794(3)
O4 O 0.9505(4) 1.1846(4) 0.0806(3)
O5 O 0.9503(4) 1.2001(4) -0.1680(3)
O6 O 1.0956(5) 1.0800(4) -0.3299(4)
O7 O 1.1617(4) 1.1783(4) -0.2862(3)
O8 O 0.8992(5) 1.4360(4) -0.3972(3)
O9 O 0.7742(5) 1.7010(3) -0.3825(4)
O10 O 0.6867(6) 1.8019(5) -0.5163(4)
O11 O 0.6453(6) 1.9228(6) -0.4602(4)
O12 O 0.3688(5) 1.6090(4) -0.2690(4)
O13 O 0.5143(5) 1.3600(3) -0.2973(3)
O14 O 0.5870(5) 1.2082(5) -0.4304(4)
H43 H 0.5474 1.1721 -0.4364
O15 O 0.4133(4) 1.2497(3) -0.3525(3)
O16 O 0.5754(4) 1.1099(3) -0.0892(3)
O17 O 0.5950(5) 1.1126(5) 0.4536(3)
Zn1A Zn 0.32193(7) 1.15925(6) -0.36224(5)
C1A C 0.2502(5) 0.8643(5) -0.1370(4)
H1A H 0.2357 0.9041 -0.1827
C2A C 0.3633(5) 0.8569(5) -0.1267(4)
C3A C 0.3831(5) 0.8050(4) -0.0589(4)
C4A C 0.2899(5) 0.7517(4) 0.0008(4)
H2A H 0.3028 0.7135 0.0481
C5A C 0.1810(5) 0.7540(5) -0.0082(4)
C6A C 0.1646(5) 0.8109(5) -0.0773(4)
C7A C 0.0802(6) 0.6952(4) 0.0564(4)
H3A H 0.0068 0.7287 0.0651
C8A C 0.0704(8) 0.6193(6) 0.0112(5)
C9A C 0.0718(18) 0.6402(16) -0.0822(12)
C10A C 0.0936(5) 0.6607(5) 0.1441(4)
C11A C 0.1209(5) 0.5750(5) 0.1758(4)
H4A H 0.1378 0.5375 0.1378
C12A C 0.1245(5) 0.5431(4) 0.2569(5)
C13A C 0.0994(6) 0.6003(5) 0.3149(4)
C14A C 0.0739(6) 0.6851(5) 0.2861(5)
H5A H 0.0582 0.7228 0.3238
C15A C 0.0712(5) 0.7152(5) 0.2027(5)
C16A C 0.1520(6) 0.4493(5) 0.2886(4)
H6A H 0.1034 0.4340 0.3504
C17A C 0.1203(7) 0.3854(5) 0.2454(6)
H7A H 0.1463 0.3286 0.2682
H8A H 0.1634 0.4003 0.1832
C18A C -0.0108(8) 0.3810(7) 0.2584(9)
H9A H -0.0231 0.3399 0.2281
H10A H -0.0542 0.3637 0.3196
H11A H -0.0376 0.4368 0.2355
C19A C 0.2788(6) 0.4328(5) 0.2864(4)
C20A C 0.3162(8) 0.3561(5) 0.3299(5)
C21A C 0.4340(8) 0.3387(5) 0.3274(5)
H12A H 0.4553 0.2875 0.3586
C22A C 0.5161(7) 0.4022(5) 0.2757(5)
C23A C 0.4867(6) 0.4787(5) 0.2300(4)
C24A C 0.3673(6) 0.4931(4) 0.2343(4)
H13A H 0.3472 0.5439 0.2018
C25A C 0.5801(7) 0.5441(5) 0.1699(6)
H14A H 0.6331 0.5472 0.2027
C26A C 0.6561(7) 0.5089(7) 0.0899(7)
C27A C 0.5714(17) 0.4742(13) 0.0349(11)
C28A C 0.5333(6) 0.6345(5) 0.1505(5)
C29A C 0.5366(5) 0.6796(5) 0.0667(5)
H15A H 0.5665 0.6497 0.0219
C30A C 0.5012(6) 0.7614(5) 0.0440(4)
C31A C 0.4604(6) 0.8038(4) 0.1113(4)
C32A C 0.4537(6) 0.7648(5) 0.1961(4)
H16A H 0.4244 0.7960 0.2398
C33A C 0.4893(6) 0.6812(5) 0.2173(5)
C34A C 0.5055(5) 0.7996(4) -0.0462(4)
H17A H 0.5276 0.8599 -0.0555
C35A C 0.5967(5) 0.7668(5) -0.1191(4)
H18A H 0.5887 0.7049 -0.1091
H19A H 0.5837 0.7926 -0.1740
C36A C 0.7214(6) 0.7880(6) -0.1258(6)
H20A H 0.7778 0.7657 -0.1725
H21A H 0.7303 0.8494 -0.1374
H22A H 0.7346 0.7623 -0.0717
C37A C 0.4629(6) 0.9340(5) -0.2720(4)
H23A H 0.5462 0.9354 -0.3062
H24A H 0.4274 0.8878 -0.2840
C38A C 0.4111(7) 1.0136(6) -0.3021(5)
C39A C 0.0293(7) 0.8643(7) -0.1532(6)
H25A H -0.0527 0.8611 -0.1466
H26A H 0.0500 0.9232 -0.1602
H27A H 0.0765 0.8432 -0.2038
C40A C 0.0350(6) 0.8623(5) 0.2205(5)
H28A H 0.0900 0.8483 0.2527
H29A H 0.0578 0.9181 0.1814
C41A C -0.0820(7) 0.8713(6) 0.2830(5)
C42A C 0.0639(9) 0.6262(6) 0.4565(4)
H30A H 0.0663 0.5981 0.5135
H31A H 0.1168 0.6745 0.4333
H32A H -0.0149 0.6459 0.4610
C43A C 0.2594(7) 0.2118(6) 0.3977(5)
H33A H 0.1881 0.1803 0.4088
H34A H 0.3119 0.2038 0.3411
C44A C 0.3157(9) 0.1596(8) 0.4626(7)
C45A C 0.6566(13) 0.3133(11) 0.3169(11)
H35A H 0.7393 0.3108 0.3096
H36A H 0.6116 0.3086 0.3776
H37A H 0.6365 0.2667 0.2967
C46A C 0.4177(7) 0.6744(6) 0.3658(5)
H38A H 0.3459 0.6969 0.3546
H39A H 0.3954 0.6287 0.4180
C47A C 0.4773(8) 0.7467(6) 0.3835(5)
C48A C 0.3876(8) 0.9391(5) 0.1545(5)
H40A H 0.3662 0.9960 0.1300
H41A H 0.3206 0.9118 0.2014
H42A H 0.4507 0.9426 0.1765
O1A O 0.4527(4) 0.9132(3) -0.1827(3)
O2A O 0.3595(5) 1.0589(4) -0.2496(4)
O3A O 0.4191(5) 1.0364(4) -0.3794(3)
O4A O 0.0495(4) 0.8154(4) -0.0806(3)
O5A O 0.0497(4) 0.7999(4) 0.1680(3)
O6A O -0.0956(5) 0.9200(4) 0.3299(4)
O7A O -0.1617(4) 0.8217(4) 0.2862(3)
O8A O 0.1008(5) 0.5640(4) 0.3972(3)
O9A O 0.2258(5) 0.2990(3) 0.3825(4)
O10A O 0.3133(6) 0.1981(5) 0.5163(4)
O11A O 0.3547(6) 0.0772(6) 0.4602(4)
O12A O 0.6312(5) 0.3910(4) 0.2690(4)
O13A O 0.4857(5) 0.6400(3) 0.2973(3)
O14A O 0.4130(5) 0.7918(5) 0.4304(4)
H43A H 0.4526 0.8279 0.4364
O15A O 0.5867(4) 0.7503(3) 0.3525(3)
O16A O 0.4246(4) 0.8901(3) 0.0892(3)
O17A O 0.4050(5) 0.8874(5) 0.5464(3)
Zn1_2 Zn -0.32193(7) 0.84075(6) 0.36224(5)
Zn1_3 Zn 0.67807(7) 1.84075(6) -0.63776(5)
Zn1A_2 Zn 0.32193(7) 0.15925(6) 0.63776(5)
Zn1A_3 Zn 1.32193(7) 1.15925(6) -0.36224(5)
Zn2_2 Zn 0.5000 0.0000 0.5000
Zn2_3 Zn 0.5000 1.0000 -0.5000
Zn2_4 Zn 0.5000 2.0000 -0.5000
O3A_2 O 0.4191(5) 1.0364(4) 0.6206(3)
O7_2 O 0.1617(4) 1.1783(4) -0.2862(3)
O7A_2 O 0.8383(4) 0.8217(4) 0.2862(3)
O10_2 O 0.6867(6) 0.8019(5) 0.4837(4)
O10A_2 O 0.3133(6) 1.1981(5) -0.4837(4)
O11_2 O 0.6453(6) 0.9228(6) 0.5398(4)
O11A_2 O 0.3547(6) 1.0772(6) 0.4602(4)
loop_
_geom_bond_atom_site_label_1
_geom_bond_atom_site_label_2
_geom_bond_site_symmetry_1
_geom_bond_site_symmetry_2
Zn1 O2 1_555 1_555
Zn2 O3 1_555 1_555
C1 H1 1_555 1_555
C2 C1 1_555 1_555
C3 C2 1_555 1_555
C4 C3 1_555 1_555
H2 C4 1_555 1_555
C5 C4 1_555 1_555
C6 C1 1_555 1_555
C7 C5 1_555 1_555
H3 C7 1_555 1_555
C8 C7 1_555 1_555
C9 C8 1_555 1_555
C10 C7 1_555 1_555
C11 C10 1_555 1_555
H4 C11 1_555 1_555
C12 C11 1_555 1_555
C13 C12 1_555 1_555
C14 C13 1_555 1_555
H5 C14 1_555 1_555
C15 C10 1_555 1_555
C16 C12 1_555 1_555
H6 C16 1_555 1_555
C17 C16 1_555 1_555
H7 C17 1_555 1_555
H8 C17 1_555 1_555
C18 C17 1_555 1_555
H9 C18 1_555 1_555
H10 C18 1_555 1_555
H11 C18 1_555 1_555
C19 C16 1_555 1_555
C20 C19 1_555 1_555
C21 C20 1_555 1_555
H12 C21 1_555 1_555
C22 C21 1_555 1_555
C23 C22 1_555 1_555
C24 C19 1_555 1_555
H13 C24 1_555 1_555
C25 C23 1_555 1_555
H14 C25 1_555 1_555
C26 C25 1_555 1_555
C27 C26 1_555 1_555
C28 C25 1_555 1_555
C29 C28 1_555 1_555
H15 C29 1_555 1_555
C30 C29 1_555 1_555
C31 C30 1_555 1_555
C32 C31 1_555 1_555
H16 C32 1_555 1_555
C33 C28 1_555 1_555
C34 C3 1_555 1_555
H17 C34 1_555 1_555
C35 C34 1_555 1_555
H18 C35 1_555 1_555
H19 C35 1_555 1_555
C36 C35 1_555 1_555
H20 C36 1_555 1_555
H21 C36 1_555 1_555
H22 C36 1_555 1_555
C37 H23 1_555 1_555
H24 C37 1_555 1_555
C38 C37 1_555 1_555
C39 H25 1_555 1_555
H26 C39 1_555 1_555
H27 C39 1_555 1_555
C40 H28 1_555 1_555
H29 C40 1_555 1_555
C41 C40 1_555 1_555
C42 H30 1_555 1_555
H31 C42 1_555 1_555
H32 C42 1_555 1_555
C43 H33 1_555 1_555
H34 C43 1_555 1_555
C44 C43 1_555 1_555
C45 H35 1_555 1_555
H36 C45 1_555 1_555
H37 C45 1_555 1_555
C46 H38 1_555 1_555
H39 C46 1_555 1_555
C47 C46 1_555 1_555
C48 H40 1_555 1_555
H41 C48 1_555 1_555
H42 C48 1_555 1_555
O1 C2 1_555 1_555
O2 C38 1_555 1_555
O3 Zn1 1_555 1_555
O4 C6 1_555 1_555
O5 C15 1_555 1_555
O6 C41 1_555 1_555
O7 C41 1_555 1_555
O8 C13 1_555 1_555
O9 C20 1_555 1_555
O10 C44 1_555 1_555
O11 C44 1_555 1_555
O12 C22 1_555 1_555
O13 C33 1_555 1_555
O14 C47 1_555 1_555
H43 O14 1_555 1_555
O15 C47 1_555 1_555
O16 C31 1_555 1_555
O17 Zn2 1_555 1_555
Zn1A O15 1_555 1_555
C1A H1A 1_555 1_555
C2A C1A 1_555 1_555
C3A C2A 1_555 1_555
C4A C3A 1_555 1_555
H2A C4A 1_555 1_555
C5A C4A 1_555 1_555
C6A C1A 1_555 1_555
C7A C5A 1_555 1_555
H3A C7A 1_555 1_555
C8A C7A 1_555 1_555
C9A C8A 1_555 1_555
C10A C7A 1_555 1_555
C11A C10A 1_555 1_555
H4A C11A 1_555 1_555
C12A C11A 1_555 1_555
C13A C12A 1_555 1_555
C14A C13A 1_555 1_555
H5A C14A 1_555 1_555
C15A C10A 1_555 1_555
C16A C12A 1_555 1_555
H6A C16A 1_555 1_555
C17A C16A 1_555 1_555
H7A C17A 1_555 1_555
H8A C17A 1_555 1_555
C18A C17A 1_555 1_555
H9A C18A 1_555 1_555
H10A C18A 1_555 1_555
H11A C18A 1_555 1_555
C19A C16A 1_555 1_555
C20A C19A 1_555 1_555
C21A C20A 1_555 1_555
H12A C21A 1_555 1_555
C22A C21A 1_555 1_555
C23A C22A 1_555 1_555
C24A C19A 1_555 1_555
H13A C24A 1_555 1_555
C25A C23A 1_555 1_555
H14A C25A 1_555 1_555
C26A C25A 1_555 1_555
C27A C26A 1_555 1_555
C28A C25A 1_555 1_555
C29A C28A 1_555 1_555
H15A C29A 1_555 1_555
C30A C29A 1_555 1_555
C31A C30A 1_555 1_555
C32A C31A 1_555 1_555
H16A C32A 1_555 1_555
C33A C28A 1_555 1_555
C34A C3A 1_555 1_555
H17A C34A 1_555 1_555
C35A C34A 1_555 1_555
H18A C35A 1_555 1_555
H19A C35A 1_555 1_555
C36A C35A 1_555 1_555
H20A C36A 1_555 1_555
H21A C36A 1_555 1_555
H22A C36A 1_555 1_555
C37A H23A 1_555 1_555
H24A C37A 1_555 1_555
C38A C37A 1_555 1_555
C39A H25A 1_555 1_555
H26A C39A 1_555 1_555
H27A C39A 1_555 1_555
C40A H28A 1_555 1_555
H29A C40A 1_555 1_555
C41A C40A 1_555 1_555
C42A H30A 1_555 1_555
H31A C42A 1_555 1_555
H32A C42A 1_555 1_555
C43A H33A 1_555 1_555
H34A C43A 1_555 1_555
C44A C43A 1_555 1_555
C45A H35A 1_555 1_555
H36A C45A 1_555 1_555
H37A C45A 1_555 1_555
C46A H38A 1_555 1_555
H39A C46A 1_555 1_555
C47A C46A 1_555 1_555
C48A H40A 1_555 1_555
H41A C48A 1_555 1_555
H42A C48A 1_555 1_555
O1A C2A 1_555 1_555
O2A Zn1A 1_555 1_555
O3A Zn1A 1_555 1_555
O4A C6A 1_555 1_555
O5A C15A 1_555 1_555
O6A C41A 1_555 1_555
O7A C41A 1_555 1_555
O8A C13A 1_555 1_555
O9A C20A 1_555 1_555
O10A C44A 1_555 1_555
O11A C44A 1_555 1_555
O12A C22A 1_555 1_555
O13A C33A 1_555 1_555
O14A C47A 1_555 1_555
H43A O14A 1_555 1_555
O15A Zn1 1_555 1_555
O16A C31A 1_555 1_555
O17A Zn2 1_555 1_555
Zn1_2 O7A 1_555 1_555
Zn1_3 O10 1_555 1_555
Zn1A_2 O10A 1_555 1_555
Zn1A_3 O7 1_555 1_555
Zn2_2 O11A 1_555 1_555
Zn2_3 O3A 1_555 1_555
Zn2_4 O11 1_555 1_555
O3A_2 Zn2 1_555 1_555
O7_2 Zn1A 1_555 1_555
O7A_2 Zn1 1_555 1_555
O10_2 Zn1 1_555 1_555
O10A_2 Zn1A 1_555 1_555
O11_2 Zn2 1_555 1_555
O11A_2 Zn2 1_555 1_555
C5 C6 1_555 1_555
C14 C15 1_555 1_555
C23 C24 1_555 1_555
C30 C34 1_555 1_555
C32 C33 1_555 1_555
C37 O1 1_555 1_555
C38 O3 1_555 1_555
C39 O4 1_555 1_555
C40 O5 1_555 1_555
C42 O8 1_555 1_555
C43 O9 1_555 1_555
C45 O12 1_555 1_555
C46 O13 1_555 1_555
C48 O16 1_555 1_555
C5A C6A 1_555 1_555
C14A C15A 1_555 1_555
C23A C24A 1_555 1_555
C30A C34A 1_555 1_555
C32A C33A 1_555 1_555
C37A O1A 1_555 1_555
C38A O2A 1_555 1_555
C38A O3A 1_555 1_555
C39A O4A 1_555 1_555
C40A O5A 1_555 1_555
C42A O8A 1_555 1_555
C43A O9A 1_555 1_555
C45A O12A 1_555 1_555
C46A O13A 1_555 1_555
C47A O15A 1_555 1_555
C48A O16A 1_555 1_555

#END
