
#######################################################################
#
#                 Cambridge Crystallographic Data Centre
#                                CCDC 
#
#######################################################################
#
# If this CIF has been generated from an entry in the Cambridge 
# Structural Database, then it will include bibliographic, chemical, 
# crystal, experimental, refinement or atomic coordinate data resulting 
# from the CCDC's data processing and validation procedures.
#
#######################################################################

data_QUCZEV
_chemical_formula_moiety         '(C20 H22 Cd1 N3 O7)n'
_symmetry_cell_setting           orthorhombic
_symmetry_space_group_name_H-M   'P 21 21 21'
_symmetry_Int_Tables_number      19
_space_group_name_Hall           'P 2ac 2ab'
loop_
_symmetry_equiv_pos_site_id
_symmetry_equiv_pos_as_xyz
1 x,y,z
2 1/2-x,-y,1/2+z
3 -x,1/2+y,1/2-z
4 1/2+x,1/2-y,-z
_cell_length_a                   12.8564(10)
_cell_length_b                   13.0151(5)
_cell_length_c                   23.0858(8)
_cell_angle_alpha                90
_cell_angle_beta                 90
_cell_angle_gamma                90
_cell_volume                     3862.89
loop_
_atom_site_label
_atom_site_type_symbol
_atom_site_fract_x
_atom_site_fract_y
_atom_site_fract_z
_atom_site_U_iso_or_equiv
_atom_site_thermal_displace_type
Cd1 Cd 0.371778(13) 0.149508(12) 0.856790(5) 0.0626 Uani
O1 O 0.35076(14) 0.15514(15) 0.66031(8) 0.0848 Uani
C1 C 0.34832(18) -0.14899(19) 0.53131(8) 0.0661 Uani
H1 H 0.3669 -0.2021 0.5065 0.0790 Uiso
O2 O 0.49843(19) -0.29342(15) 0.56958(8) 0.0931 Uani
O3 O 0.51300(16) -0.21780(15) 0.65295(7) 0.0884 Uani
C2 C 0.4753(2) -0.22455(16) 0.60341(9) 0.0659 Uani
N1 N 0.48268(16) 0.01978(15) 0.82265(7) 0.0647 Uani
C3 C 0.39417(17) -0.14282(16) 0.58541(8) 0.0619 Uani
O4 O 0.16464(17) -0.02105(15) 0.43784(7) 0.0918 Uani
C4 C 0.3694(2) -0.06067(17) 0.62230(8) 0.0664 Uani
H2 H 0.4011 -0.0552 0.6584 0.0800 Uiso
C5 C 0.2251(2) -0.0877(2) 0.45523(9) 0.0706 Uani
C6 C 0.27624(19) -0.07848(17) 0.51373(8) 0.0644 Uani
C7 C 0.27652(19) 0.09890(18) 0.64699(9) 0.0666 Uani
O5 O 0.24688(15) -0.17056(15) 0.42667(7) 0.0826 Uani
O6 O 0.28186(16) 0.25051(17) 0.78375(7) 0.0857 Uani
C8 C 0.2503(2) 0.00168(19) 0.55008(10) 0.0688 Uani
H3 H 0.2008 0.0494 0.5383 0.0830 Uiso
O7 O 0.24859(17) 0.09018(16) 0.78336(8) 0.0839 Uani
C9 C 0.2975(2) 0.01240(17) 0.60470(8) 0.0650 Uani
N2 N 0.1843(2) 0.1105(2) 0.66476(10) 0.0855 Uani
N3 N 0.6015(2) -0.12046(17) 0.78407(10) 0.0968 Uani
C10 C 0.23861(19) 0.1759(2) 0.76264(10) 0.0692 Uani
C11 C 0.5343(2) 0.0574(2) 0.76744(10) 0.0783 Uani
H4 H 0.5778 0.1165 0.7759 0.0940 Uiso
H5 H 0.4817 0.0782 0.7397 0.0940 Uiso
C12 C 0.4246(2) -0.0750(2) 0.81042(13) 0.0828 Uani
H6 H 0.3716 -0.0609 0.7816 0.0990 Uiso
H7 H 0.3901 -0.0979 0.8455 0.0990 Uiso
C13 C 0.6013(3) -0.0300(2) 0.74166(12) 0.0938 Uani
H8 H 0.5729 -0.0516 0.7047 0.1130 Uiso
H9 H 0.6719 -0.0060 0.7354 0.1130 Uiso
C14 C 0.4965(2) -0.1606(2) 0.78819(12) 0.0775 Uiso
H10 H 0.4949 -0.2185 0.8146 0.0930 Uiso
H11 H 0.4732 -0.1839 0.7504 0.0930 Uiso
C15 C 0.6365(3) -0.0866(3) 0.84472(14) 0.0958 Uiso
H12 H 0.6337 -0.1444 0.8712 0.1150 Uiso
H13 H 0.7075 -0.0617 0.8433 0.1150 Uiso
C16 C 0.5662(2) -0.0038(2) 0.86501(14) 0.0857 Uiso
H14 H 0.6067 0.0578 0.8720 0.1030 Uiso
H15 H 0.5348 -0.0244 0.9014 0.1030 Uiso
C17 C 0.1695(2) 0.1967(3) 0.70903(14) 0.0886 Uiso
H16 H 0.1796 0.2654 0.6926 0.1060 Uiso
C18 C 0.0959(2) 0.0458(2) 0.65487(13) 0.0829 Uiso
H17 H 0.1153 -0.0262 0.6543 0.0990 Uiso
H18 H 0.0611 0.0630 0.6189 0.0990 Uiso
C19 C 0.0519(2) 0.1738(2) 0.72631(13) 0.0759 Uiso
H19 H 0.0430 0.1800 0.7679 0.0910 Uiso
H20 H 0.0059 0.2227 0.7075 0.0910 Uiso
C20 C 0.0275(3) 0.0714(3) 0.70794(16) 0.0981 Uiso
H21 H -0.0455 0.0667 0.6977 0.1180 Uiso
H22 H 0.0412 0.0232 0.7390 0.1180 Uiso
Cd1A Cd 0.128222(13) -0.149508(12) 0.356790(5) 0.0626 Uani
Cd1B Cd 0.628222(13) -0.350492(12) 0.643210(5) 0.0626 Uani
O2B O 0.50157(19) 0.20658(15) 0.93042(8) 0.0931 Uani
O3B O 0.48700(16) 0.28220(15) 0.84705(7) 0.0884 Uani
O4A O 0.33536(17) 0.02105(15) 0.93784(7) 0.0918 Uani
O5A O 0.25312(15) 0.17056(15) 0.92667(7) 0.0826 Uani
loop_
_atom_site_aniso_label
_atom_site_aniso_U_11
_atom_site_aniso_U_22
_atom_site_aniso_U_33
_atom_site_aniso_U_23
_atom_site_aniso_U_13
_atom_site_aniso_U_12
Cd1 0.09651(7) 0.05532(5) 0.03603(4) -0.00193(5) 0.01090(6) -0.00424(7)
O1 0.0984(11) 0.0758(8) 0.0801(9) -0.0256(8) -0.0032(8) -0.0104(10)
C1 0.0912(13) 0.0632(9) 0.0440(8) -0.0070(8) -0.0104(8) -0.0064(12)
O2 0.1405(15) 0.0838(10) 0.0550(8) 0.0008(8) -0.0210(10) 0.0277(11)
O3 0.1279(12) 0.0855(10) 0.0517(7) -0.0064(7) -0.0275(8) 0.0387(9)
C2 0.1008(15) 0.0529(9) 0.0441(8) -0.0071(7) -0.0068(10) 0.0049(10)
N1 0.0863(11) 0.0666(9) 0.0411(7) -0.0065(7) 0.0000(7) 0.0047(9)
C3 0.0862(12) 0.0566(9) 0.0428(7) -0.0067(7) -0.0140(7) 0.0020(11)
O4 0.1405(14) 0.0750(10) 0.0600(8) 0.0096(7) -0.0417(8) -0.0042(10)
C4 0.0920(12) 0.0705(10) 0.0366(7) -0.0034(7) -0.0154(9) 0.0036(12)
C5 0.0892(13) 0.0797(13) 0.0429(8) -0.0072(9) -0.0184(9) -0.0104(12)
C6 0.0900(13) 0.0638(10) 0.0395(8) 0.0060(7) -0.0157(8) -0.0083(10)
C7 0.0849(12) 0.0667(10) 0.0483(9) 0.0001(9) -0.0113(10) 0.0028(10)
O5 0.1076(11) 0.0902(11) 0.0500(7) -0.0107(7) -0.0228(7) 0.0046(10)
O6 0.1095(12) 0.0924(11) 0.0551(8) -0.0093(8) -0.0003(9) -0.0244(10)
C8 0.0869(13) 0.0628(11) 0.0566(10) 0.0019(9) -0.0193(10) -0.0013(11)
O7 0.1080(12) 0.0765(10) 0.0673(9) -0.0040(8) -0.0111(9) -0.0011(10)
C9 0.0905(13) 0.0643(10) 0.0402(8) -0.0069(8) -0.0145(9) -0.0019(10)
N2 0.0918(13) 0.1022(15) 0.0626(10) -0.0119(10) -0.0134(10) 0.0025(12)
N3 0.1400(17) 0.0846(11) 0.0658(10) -0.0246(9) -0.0118(12) 0.0516(11)
C10 0.0699(11) 0.0782(14) 0.0595(11) -0.0059(9) 0.0088(9) 0.0017(10)
C11 0.1037(16) 0.0804(14) 0.0509(10) -0.0038(10) 0.0142(11) -0.0147(14)
C12 0.0972(16) 0.0671(12) 0.0842(15) -0.0218(11) 0.0097(13) -0.0145(12)
C13 0.123(2) 0.0842(16) 0.0741(13) -0.0027(12) 0.0334(14) 0.0036(16)
Cd1A 0.09651 0.05532 0.03603 0.00193 -0.0109 -0.00424
Cd1B 0.09651 0.05532 0.03603 0.00193 0.0109 0.00424
O2B 0.1405 0.0838 0.055 -0.0008 -0.021 -0.0277
O3B 0.1279 0.0855 0.0517 0.0064 -0.0275 -0.0387
O4A 0.1405 0.075 0.06 -0.0096 0.0417 -0.0042
O5A 0.1076 0.0902 0.05 0.0107 0.0228 0.0046
loop_
_geom_bond_atom_site_label_1
_geom_bond_atom_site_label_2
_geom_bond_site_symmetry_1
_geom_bond_site_symmetry_2
Cd1 N1 1_555 1_555
O1 C7 1_555 1_555
C1 H1 1_555 1_555
O2 C2 1_555 1_555
O3 C2 1_555 1_555
C2 C3 1_555 1_555
N1 C11 1_555 1_555
C3 C1 1_555 1_555
O4 C5 1_555 1_555
C4 C3 1_555 1_555
H2 C4 1_555 1_555
C5 C6 1_555 1_555
C6 C1 1_555 1_555
C7 C9 1_555 1_555
O5 C5 1_555 1_555
O6 Cd1 1_555 1_555
C8 C6 1_555 1_555
H3 C8 1_555 1_555
O7 Cd1 1_555 1_555
C9 C4 1_555 1_555
N2 C7 1_555 1_555
N3 C13 1_555 1_555
C10 O6 1_555 1_555
C11 H4 1_555 1_555
H5 C11 1_555 1_555
C12 N1 1_555 1_555
H6 C12 1_555 1_555
H7 C12 1_555 1_555
C13 C11 1_555 1_555
H8 C13 1_555 1_555
H9 C13 1_555 1_555
C14 N3 1_555 1_555
H10 C14 1_555 1_555
H11 C14 1_555 1_555
C15 N3 1_555 1_555
H12 C15 1_555 1_555
H13 C15 1_555 1_555
C16 N1 1_555 1_555
H14 C16 1_555 1_555
H15 C16 1_555 1_555
C17 N2 1_555 1_555
H16 C17 1_555 1_555
C18 N2 1_555 1_555
H17 C18 1_555 1_555
H18 C18 1_555 1_555
C19 C17 1_555 1_555
H19 C19 1_555 1_555
H20 C19 1_555 1_555
C20 C18 1_555 1_555
H21 C20 1_555 1_555
H22 C20 1_555 1_555
Cd1A O4 1_555 1_555
Cd1B O2 1_555 1_555
O2B Cd1 1_555 1_555
O3B Cd1 1_555 1_555
O4A Cd1 1_555 1_555
O5A Cd1 1_555 1_555
O3 Cd1B 1_555 1_555
O5 Cd1A 1_555 1_555
C8 C9 1_555 1_555
O7 C10 1_555 1_555
C10 C17 1_555 1_555
C12 C14 1_555 1_555
C15 C16 1_555 1_555
C19 C20 1_555 1_555

#END
