
#######################################################################
#
#                 Cambridge Crystallographic Data Centre
#                                CCDC 
#
#######################################################################
#
# If this CIF has been generated from an entry in the Cambridge 
# Structural Database, then it will include bibliographic, chemical, 
# crystal, experimental, refinement or atomic coordinate data resulting 
# from the CCDC's data processing and validation procedures.
#
#######################################################################

data_QOPDEE
_chemical_formula_moiety         '(C6 H16 Ga2 N2 O16 P4 Zn2)n'
_symmetry_cell_setting           monoclinic
_symmetry_space_group_name_H-M   'P 21/c'
_symmetry_Int_Tables_number      14
_space_group_name_Hall           '-P 2ybc'
loop_
_symmetry_equiv_pos_site_id
_symmetry_equiv_pos_as_xyz
1 x,y,z
2 -x,1/2+y,1/2-z
3 -x,-y,-z
4 x,1/2-y,1/2+z
_cell_length_a                   14.3196(7)
_cell_length_b                   16.2550(8)
_cell_length_c                   8.8552(4)
_cell_angle_alpha                90
_cell_angle_beta                 90.1340(10)
_cell_angle_gamma                90
_cell_volume                     2061.18
loop_
_atom_site_label
_atom_site_type_symbol
_atom_site_fract_x
_atom_site_fract_y
_atom_site_fract_z
Ga1 Ga 0.97318(4) 0.12912(3) 0.58679(6)
Ga2 Ga 1.46346(5) 0.27024(4) 0.36563(8)
Zn1 Zn 1.13163(4) 0.16146(4) 0.19065(7)
Zn2 Zn 1.36469(5) 0.03820(4) 0.42192(8)
P1 P 1.13760(9) 0.03131(8) 0.44737(15)
P2 P 1.02529(10) 0.21227(8) 0.88804(15)
P3 P 1.52757(11) 0.13143(9) 0.58800(18)
P4 P 1.35484(11) 0.15297(10) 0.14662(17)
O1 O 1.0823(3) 0.0666(3) 0.5814(4)
O2 O 1.0979(3) 0.0632(3) 0.2988(5)
O3 O 1.1306(3) -0.0632(2) 0.4524(5)
O4 O 1.2385(3) 0.0567(3) 0.4735(5)
O5 O 1.0532(3) 0.1532(3) 1.0141(5)
O6 O 0.9586(3) 0.1655(3) 0.7838(5)
O7 O 1.1124(3) 0.2398(3) 0.8015(5)
O8 O 0.9716(3) 0.2859(3) 0.9485(5)
O9 O 1.4309(4) 0.0928(4) 0.5802(6)
O10 O 1.5382(4) 0.1982(3) 0.4690(6)
O11 O 1.6056(4) 0.0720(3) 0.5593(8)
O12 O 1.5424(4) 0.1677(4) 0.7449(6)
O13 O 1.2530(3) 0.1457(3) 0.1070(5)
O14 O 1.4099(4) 0.1566(3) -0.0018(6)
O15 O 1.3922(4) 0.0762(3) 0.2261(6)
O16 O 1.3690(4) 0.2283(3) 0.2447(7)
O3B O 0.8694(3) 0.0632(2) 0.5476(5)
O8C O 0.9716(3) 0.2141(3) 0.4485(5)
O12C O 1.5424(4) 0.3323(4) 0.2449(6)
O14C O 1.4099(4) 0.3434(3) 0.4982(6)
O5_2 O 1.0532(3) 0.1532(3) 0.0141(5)
O7C O 1.1124(3) 0.2602(3) 0.3015(5)
O11B O 1.3944(4) -0.0720(3) 0.4407(8)
Ga1B Ga 1.02682(4) -0.12912(3) 0.41321(6)
Zn1_2 Zn 1.13163(4) 0.16146(4) 1.19065(7)
Zn1C Zn 1.13163(4) 0.33854(4) 0.69065(7)
Ga1C Ga 0.97318(4) 0.37088(3) 1.08679(6)
Zn2B Zn 1.63531(5) -0.03820(4) 0.57808(8)
Ga2C Ga 1.46346(5) 0.22976(4) 0.86563(8)
Ga2C_2 Ga 1.46346(5) 0.22976(4) -0.13437(8)
N1 N 1.0782(11) -0.0223(10) 0.889(3)
N2 N 1.2469(5) 0.0860(5) 0.8011(9)
C1 C 1.1733(9) -0.0487(8) 0.903(3)
C2 C 1.2538(8) -0.0085(8) 0.823(2)
C3 C 1.3467(9) -0.0386(9) 0.867(2)
C4 C 1.3491(7) -0.1259(7) 0.8647(17)
C5 C 1.2689(16) -0.1725(13) 0.910(7)
C6 C 1.1760(10) -0.1391(9) 0.876(2)
H1 H 1.2570 0.1446 0.7375
H2 H 1.1951 0.0982 0.7451
H3 H 1.4262 -0.0100 0.8813
H4 H 1.2733 -0.2306 0.9538
H5 H 1.3999 -0.1502 0.8743
loop_
_geom_bond_atom_site_label_1
_geom_bond_atom_site_label_2
_geom_bond_site_symmetry_1
_geom_bond_site_symmetry_2
Ga1 O1 1_555 1_555
Ga2 O10 1_555 1_555
Zn1 O2 1_555 1_555
Zn2 O4 1_555 1_555
P1 O1 1_555 1_555
P2 O5 1_555 1_555
P3 O9 1_555 1_555
P4 O13 1_555 1_555
O2 P1 1_555 1_555
O3 P1 1_555 1_555
O4 P1 1_555 1_555
O5 Zn1_2 1_555 1_555
O6 Ga1 1_555 1_555
O7 P2 1_555 1_555
O8 P2 1_555 1_555
O9 Zn2 1_555 1_555
O10 P3 1_555 1_555
O11 P3 1_555 1_555
O12 P3 1_555 1_555
O13 Zn1 1_555 1_555
O14 P4 1_555 1_555
O15 Zn2 1_555 1_555
O16 Ga2 1_555 1_555
N1 C1 1_555 1_555
N2 C2 1_555 1_555
C1 C2 1_555 1_555
C2 C3 1_555 1_555
C3 C4 1_555 1_555
C4 C5 1_555 1_555
C5 C6 1_555 1_555
C6 C1 1_555 1_555
H1 N2 1_555 1_555
H2 N2 1_555 1_555
H3 C3 1_555 1_555
H4 C5 1_555 1_555
H5 C4 1_555 1_555
O3B Ga1 1_555 1_555
O8C Ga1 1_555 1_555
O12C Ga2 1_555 1_555
O14C Ga2 1_555 1_555
O5_2 Zn1 1_555 1_555
O7C Zn1 1_555 1_555
O11B Zn2 1_555 1_555
Ga1B O3 1_555 1_555
Zn1C O7 1_555 1_555
Ga1C O8 1_555 1_555
Zn2B O11 1_555 1_555
Ga2C O12 1_555 1_555
Ga2C_2 O14 1_555 1_555
P2 O6 1_555 1_555
P4 O15 1_555 1_555
P4 O16 1_555 1_555

#END
