
#######################################################################
#
#                 Cambridge Crystallographic Data Centre
#                                CCDC 
#
#######################################################################
#
# If this CIF has been generated from an entry in the Cambridge 
# Structural Database, then it will include bibliographic, chemical, 
# crystal, experimental, refinement or atomic coordinate data resulting 
# from the CCDC's data processing and validation procedures.
#
#######################################################################

data_QOPDAA
_chemical_formula_moiety         'C6 H16 Ga1 N2 O21 P8 Zn4 2+'
_symmetry_cell_setting           monoclinic
_symmetry_space_group_name_H-M   'C 2/c'
_symmetry_Int_Tables_number      15
_space_group_name_Hall           '-C 2yc'
loop_
_symmetry_equiv_pos_site_id
_symmetry_equiv_pos_as_xyz
1 x,y,z
2 1/2+x,1/2+y,z
3 -x,y,1/2-z
4 1/2-x,1/2+y,1/2-z
5 -x,-y,-z
6 1/2-x,1/2-y,-z
7 x,-y,1/2+z
8 1/2+x,1/2-y,1/2+z
_cell_length_a                   23.5676(15)
_cell_length_b                   10.2415(6)
_cell_length_c                   16.2353(10)
_cell_angle_alpha                90
_cell_angle_beta                 108.1150(10)
_cell_angle_gamma                90
_cell_volume                     3724.44
loop_
_atom_site_label
_atom_site_type_symbol
_atom_site_fract_x
_atom_site_fract_y
_atom_site_fract_z
_atom_site_U_iso_or_equiv
_atom_site_thermal_displace_type
Ga1 Ga 0.29799(3) 0.09083(5) 0.02449(4) 0.0274 Uani
Zn1 Zn 0.12257(3) -0.05671(5) -0.10908(4) 0.0263 Uani
Zn2 Zn 0.19794(3) -0.24612(5) -0.27756(4) 0.0253 Uani
P1 P 0.23336(7) 0.01270(12) -0.17545(8) 0.0252 Uani
P2 P 0.16927(6) -0.15282(12) -0.46332(8) 0.0239 Uani
P3 P 0.16584(7) -0.33448(12) -0.11630(8) 0.0277 Uani
P4 P -0.0009 -0.1235(4) -0.2540 0.0409 Uani
O1 O 0.24862(19) -0.1093(4) -0.2183(3) 0.0360 Uani
O2 O 0.2775(2) 0.0164(4) -0.0841(3) 0.0465 Uani
O3 O 0.24088(19) 0.1330(4) -0.2271(3) 0.0367 Uani
O4 O 0.1688(2) 0.0108(5) -0.1772(3) 0.0492 Uani
O5 O 0.14826(19) -0.1965(4) -0.3872(2) 0.0367 Uani
O6 O 0.1355(2) 0.0280(4) 0.0007(3) 0.0388 Uani
O7 O 0.23705(19) 0.1306(4) 0.0714(3) 0.0384 Uani
O8 O 0.34423(19) 0.2427(3) 0.0342(2) 0.0349 Uani
O9 O 0.14768(19) -0.3102(4) -0.2147(2) 0.0352 Uani
O10 O 0.35024(18) -0.0244(3) 0.1021(2) 0.0321 Uani
O11 O 0.1321(2) -0.2408(4) -0.0758(3) 0.0416 Uani
O12 O 0.23348(19) -0.3128(4) -0.0740(3) 0.0424 Uani
O13 O 0.0414(2) -0.0422(6) -0.1809(4) 0.0674 Uani
O14 O 0.0342(3) -0.2161(9) -0.2926(5) 0.1068 Uani
O3C O 0.25912(19) -0.3670(4) -0.2729(3) 0.0367 Uani
O6F O 0.1355(2) -0.0280(4) -0.4993(3) 0.0388 Uani
O7F O 0.23705(19) -0.1306(4) -0.4286(3) 0.0384 Uani
O8C O 0.15577(19) -0.2573(3) -0.5342(2) 0.0349 Uani
O10E O 0.14976(18) -0.4756(3) -0.1021(2) 0.0321 Uani
P4B P 0.0009 -0.1235(4) -0.2460 0.0409 Uani
O13B O -0.0414(2) -0.0422(6) -0.3191(4) 0.0674 Uani
O14B O -0.0342(3) -0.2161(9) -0.2074(5) 0.1068 Uani
Zn2C Zn 0.30206(3) 0.25388(5) -0.22244(4) 0.0253 Uani
P2F P 0.16927(6) 0.15282(12) 0.03668(8) 0.0239 Uani
P2C P 0.33073(6) 0.34718(12) -0.03668(8) 0.0239 Uani
P3E P 0.33416(7) -0.16552(12) 0.11630(8) 0.0277 Uani
Zn1B Zn -0.12257(3) -0.05671(5) -0.39092(4) 0.0263 Uani
N1 N 0.3439(3) -0.2796(9) 0.8920(4) 0.0744 Uani
N2 N 0.3514(4) -0.1749(12) 0.7286(6) 0.1127 Uani
C1 C 0.3968(4) -0.2761(15) 0.8644(8) 0.1524 Uani
C2 C 0.3976(6) -0.1569(17) 0.8112(7) 0.2172 Uani
C3 C 0.4552(8) -0.083(2) 0.840(2) 0.3862 Uani
C4 C 0.5018(7) -0.139(2) 0.9174(16) 0.2595 Uani
C5 C 0.4834(14) -0.266(2) 0.9477(15) 0.2983 Uani
C6 C 0.4446(8) -0.3760(18) 0.9007(17) 0.5703 Uani
loop_
_atom_site_aniso_label
_atom_site_aniso_U_11
_atom_site_aniso_U_22
_atom_site_aniso_U_33
_atom_site_aniso_U_23
_atom_site_aniso_U_13
_atom_site_aniso_U_12
Ga1 0.0355(4) 0.0207(3) 0.0237(3) 0.00001(19) 0.0058(2) 0.0020(2)
Zn1 0.028 0.0234 0.0256 -0.0021 0.0057 -0.0015
Zn2 0.0377 0.0185 0.0198 -0.00011 0.0089 0.0006
P1 0.035 0.0178 0.0237 -0.0007 0.0103 -0.0043
P2 0.0319 0.0201 0.0195 0.0025 0.0076 0.0014
P3 0.0383 0.02 0.0224 0.002 0.006 0.0002
P4 0.0224 0.063 0.033 -0.014 0.0023 -0.003
O1 0.04 0.0275 0.041 -0.0123 0.0134 -0.0059
O2 0.07 0.039 0.0232 -0.0016 0.004 -0.005
O3 0.043 0.0261 0.038 0.0088 0.0082 -0.0077
O4 0.044 0.048 0.067 0.017 0.034 0.006
O5 0.043 0.042 0.0275 0.0079 0.0144 -0.0031
O6 0.06 0.0252 0.033 -0.0095 0.017 -0.013
O7 0.034 0.049 0.033 0.0016 0.0116 0.0053
O8 0.045 0.0265 0.0269 0.0043 0.0022 -0.0032
O9 0.044 0.035 0.023 0.0013 0.005 -0.0059
O10 0.035(2) 0.0205(16) 0.034(2) 0.0047(14) 0.0008(17) 0.0001(15)
O11 0.061 0.0227 0.043 -0.0016 0.019 0.0024
O12 0.035 0.048 0.039 0.0031 0.0039 -0.0085
O13 0.043 0.073 0.065 -0.015 -0.014 0.012
O14 0.077 0.136 0.087 -0.046 -0.004 0.032
O3C 0.043 0.0261 0.038 -0.0088 0.0082 0.0077
O6F 0.06 0.0252 0.033 0.0095 0.017 0.013
O7F 0.034 0.049 0.033 -0.0016 0.0116 -0.0053
O8C 0.045 0.0265 0.0269 -0.0043 0.0022 0.0032
O10E 0.035 0.0205 0.034 0.0047 0.0008 0.0001
P4B 0.0224 0.063 0.033 0.014 0.0023 0.003
O13B 0.043 0.073 0.065 0.015 -0.014 -0.012
O14B 0.077 0.136 0.087 0.046 -0.004 -0.032
Zn2C 0.0377 0.0185 0.0198 0.00011 0.0089 -0.0006
P2F 0.0319 0.0201 0.0195 -0.0025 0.0076 -0.0014
P2C 0.0319 0.0201 0.0195 -0.0025 0.0076 -0.0014
P3E 0.0383(8) 0.0200(6) 0.0224(6) 0.0020(4) 0.0060(6) 0.0002(5)
Zn1B 0.028 0.0234 0.0256 0.0021 0.0057 0.0015
N1 0.042(4) 0.144(7) 0.037(3) 0.020(4) 0.012(3) -0.008(4)
N2 0.079(6) 0.166(10) 0.079(6) 0.041(6) 0.004(5) -0.007(6)
C1 0.055(7) 0.31(2) 0.091(9) 0.058(12) 0.021(7) -0.036(10)
C2 0.078(9) 0.41(3) 0.142(14) 0.176(19) 0.003(9) -0.027(15)
C3 0.125(18) 0.28(3) 0.65(7) 0.30(4) -0.03(3) -0.02(2)
C4 0.068(9) 0.25(3) 0.39(4) -0.08(3) -0.031(16) -0.058(14)
C5 0.43(5) 0.20(2) 0.148(19) 0.082(18) -0.08(2) 0.07(3)
C6 0.15(2) 1.23(14) 0.44(6) 0.35(8) 0.25(4) 0.16(5)
loop_
_geom_bond_atom_site_label_1
_geom_bond_atom_site_label_2
_geom_bond_site_symmetry_1
_geom_bond_site_symmetry_2
N1 C1 1_555 1_555
N2 C2 1_555 1_555
C1 C2 1_555 1_555
C2 C3 1_555 1_555
C3 C4 1_555 1_555
C4 C5 1_555 1_555
C5 C6 1_555 1_555
C6 C1 1_555 1_555
Ga1 O2 1_555 1_555
Zn1 O4 1_555 1_555
Zn2 O1 1_555 1_555
P1 O1 1_555 1_555
P2 O5 1_555 1_555
P3 O9 1_555 1_555
P4 O13 1_555 1_555
O2 P1 1_555 1_555
O3 P1 1_555 1_555
O4 P1 1_555 1_555
O5 Zn2 1_555 1_555
O6 Zn1 1_555 1_555
O7 Ga1 1_555 1_555
O8 Ga1 1_555 1_555
O9 Zn2 1_555 1_555
O10 Ga1 1_555 1_555
O11 Zn1 1_555 1_555
O12 P3 1_555 1_555
O13 Zn1 1_555 1_555
O14 P4 1_555 1_555
O3C Zn2 1_555 1_555
O6F P2 1_555 1_555
O7F P2 1_555 1_555
O8C P2 1_555 1_555
O10E P3 1_555 1_555
P4B P4 1_555 1_555
O13B P4 1_555 1_555
O14B P4 1_555 1_555
Zn2C O3 1_555 1_555
P2F O6 1_555 1_555
P2C O8 1_555 1_555
P3E O10 1_555 1_555
Zn1B O13B 1_555 1_555
P3 O11 1_555 1_555
O7 P2F 1_555 1_555
O13 P4B 1_555 1_555
O14 P4B 1_555 1_555
P4B O13B 1_555 1_555
P4B O14B 1_555 1_555

#END
