
#######################################################################
#
#                 Cambridge Crystallographic Data Centre
#                                CCDC 
#
#######################################################################
#
# If this CIF has been generated from an entry in the Cambridge 
# Structural Database, then it will include bibliographic, chemical, 
# crystal, experimental, refinement or atomic coordinate data resulting 
# from the CCDC's data processing and validation procedures.
#
#######################################################################

data_HAFTOZ
_chemical_formula_moiety         '(C60 H34 N24 Ni8 O8)n'
_symmetry_cell_setting           cubic
_symmetry_space_group_name_H-M   'F m -3 m'
_symmetry_Int_Tables_number      225
_space_group_name_Hall           '-F 4 2 3'
loop_
_symmetry_equiv_pos_site_id
_symmetry_equiv_pos_as_xyz
1 x,y,z
2 -y,x,z
3 x,-y,-z
4 z,x,y
5 -x,-y,z
6 y,x,-z
7 -x,z,y
8 y,-x,z
9 -x,y,-z
10 -z,-x,y
11 -y,-x,-z
12 x,-z,y
13 z,-x,-y
14 -x,-z,-y
15 -z,x,-y
16 x,z,-y
17 y,z,x
18 z,-y,x
19 -z,y,x
20 z,y,-x
21 y,-z,-x
22 -z,-y,-x
23 -y,z,-x
24 -y,-z,x
25 x,1/2+y,1/2+z
26 -y,1/2+x,1/2+z
27 x,1/2-y,1/2-z
28 z,1/2+x,1/2+y
29 -x,1/2-y,1/2+z
30 y,1/2+x,1/2-z
31 -x,1/2+z,1/2+y
32 y,1/2-x,1/2+z
33 -x,1/2+y,1/2-z
34 -z,1/2-x,1/2+y
35 -y,1/2-x,1/2-z
36 x,1/2-z,1/2+y
37 z,1/2-x,1/2-y
38 -x,1/2-z,1/2-y
39 -z,1/2+x,1/2-y
40 x,1/2+z,1/2-y
41 y,1/2+z,1/2+x
42 z,1/2-y,1/2+x
43 -z,1/2+y,1/2+x
44 z,1/2+y,1/2-x
45 y,1/2-z,1/2-x
46 -z,1/2-y,1/2-x
47 -y,1/2+z,1/2-x
48 -y,1/2-z,1/2+x
49 1/2+x,y,1/2+z
50 1/2-y,x,1/2+z
51 1/2+x,-y,1/2-z
52 1/2+z,x,1/2+y
53 1/2-x,-y,1/2+z
54 1/2+y,x,1/2-z
55 1/2-x,z,1/2+y
56 1/2+y,-x,1/2+z
57 1/2-x,y,1/2-z
58 1/2-z,-x,1/2+y
59 1/2-y,-x,1/2-z
60 1/2+x,-z,1/2+y
61 1/2+z,-x,1/2-y
62 1/2-x,-z,1/2-y
63 1/2-z,x,1/2-y
64 1/2+x,z,1/2-y
65 1/2+y,z,1/2+x
66 1/2+z,-y,1/2+x
67 1/2-z,y,1/2+x
68 1/2+z,y,1/2-x
69 1/2+y,-z,1/2-x
70 1/2-z,-y,1/2-x
71 1/2-y,z,1/2-x
72 1/2-y,-z,1/2+x
73 1/2+x,1/2+y,z
74 1/2-y,1/2+x,z
75 1/2+x,1/2-y,-z
76 1/2+z,1/2+x,y
77 1/2-x,1/2-y,z
78 1/2+y,1/2+x,-z
79 1/2-x,1/2+z,y
80 1/2+y,1/2-x,z
81 1/2-x,1/2+y,-z
82 1/2-z,1/2-x,y
83 1/2-y,1/2-x,-z
84 1/2+x,1/2-z,y
85 1/2+z,1/2-x,-y
86 1/2-x,1/2-z,-y
87 1/2-z,1/2+x,-y
88 1/2+x,1/2+z,-y
89 1/2+y,1/2+z,x
90 1/2+z,1/2-y,x
91 1/2-z,1/2+y,x
92 1/2+z,1/2+y,-x
93 1/2+y,1/2-z,-x
94 1/2-z,1/2-y,-x
95 1/2-y,1/2+z,-x
96 1/2-y,1/2-z,x
97 -x,-y,-z
98 y,-x,-z
99 -x,y,z
100 -z,-x,-y
101 x,y,-z
102 -y,-x,z
103 x,-z,-y
104 -y,x,-z
105 x,-y,z
106 z,x,-y
107 y,x,z
108 -x,z,-y
109 -z,x,y
110 x,z,y
111 z,-x,y
112 -x,-z,y
113 -y,-z,-x
114 -z,y,-x
115 z,-y,-x
116 -z,-y,x
117 -y,z,x
118 z,y,x
119 y,-z,x
120 y,z,-x
121 -x,1/2-y,1/2-z
122 y,1/2-x,1/2-z
123 -x,1/2+y,1/2+z
124 -z,1/2-x,1/2-y
125 x,1/2+y,1/2-z
126 -y,1/2-x,1/2+z
127 x,1/2-z,1/2-y
128 -y,1/2+x,1/2-z
129 x,1/2-y,1/2+z
130 z,1/2+x,1/2-y
131 y,1/2+x,1/2+z
132 -x,1/2+z,1/2-y
133 -z,1/2+x,1/2+y
134 x,1/2+z,1/2+y
135 z,1/2-x,1/2+y
136 -x,1/2-z,1/2+y
137 -y,1/2-z,1/2-x
138 -z,1/2+y,1/2-x
139 z,1/2-y,1/2-x
140 -z,1/2-y,1/2+x
141 -y,1/2+z,1/2+x
142 z,1/2+y,1/2+x
143 y,1/2-z,1/2+x
144 y,1/2+z,1/2-x
145 1/2-x,-y,1/2-z
146 1/2+y,-x,1/2-z
147 1/2-x,y,1/2+z
148 1/2-z,-x,1/2-y
149 1/2+x,y,1/2-z
150 1/2-y,-x,1/2+z
151 1/2+x,-z,1/2-y
152 1/2-y,x,1/2-z
153 1/2+x,-y,1/2+z
154 1/2+z,x,1/2-y
155 1/2+y,x,1/2+z
156 1/2-x,z,1/2-y
157 1/2-z,x,1/2+y
158 1/2+x,z,1/2+y
159 1/2+z,-x,1/2+y
160 1/2-x,-z,1/2+y
161 1/2-y,-z,1/2-x
162 1/2-z,y,1/2-x
163 1/2+z,-y,1/2-x
164 1/2-z,-y,1/2+x
165 1/2-y,z,1/2+x
166 1/2+z,y,1/2+x
167 1/2+y,-z,1/2+x
168 1/2+y,z,1/2-x
169 1/2-x,1/2-y,-z
170 1/2+y,1/2-x,-z
171 1/2-x,1/2+y,z
172 1/2-z,1/2-x,-y
173 1/2+x,1/2+y,-z
174 1/2-y,1/2-x,z
175 1/2+x,1/2-z,-y
176 1/2-y,1/2+x,-z
177 1/2+x,1/2-y,z
178 1/2+z,1/2+x,-y
179 1/2+y,1/2+x,z
180 1/2-x,1/2+z,-y
181 1/2-z,1/2+x,y
182 1/2+x,1/2+z,y
183 1/2+z,1/2-x,y
184 1/2-x,1/2-z,y
185 1/2-y,1/2-z,-x
186 1/2-z,1/2+y,-x
187 1/2+z,1/2-y,-x
188 1/2-z,1/2-y,x
189 1/2-y,1/2+z,x
190 1/2+z,1/2+y,x
191 1/2+y,1/2-z,x
192 1/2+y,1/2+z,-x
_cell_length_a                   26.49080(67)
_cell_length_b                   26.49080(67)
_cell_length_c                   26.49080(67)
_cell_angle_alpha                90
_cell_angle_beta                 90
_cell_angle_gamma                90
_cell_volume                     18590.2
loop_
_atom_site_label
_atom_site_type_symbol
_atom_site_fract_x
_atom_site_fract_y
_atom_site_fract_z
O2 O 0.00000 -0.24787(72) 0.00000
Ni1 Ni 0.05332(12) 0.05332(12) 0.05332(12)
O3 O 0.0915(10) 0.00000 0.00000
H1 H 0.1275 0.00000 0.00000
C1 C 0.000000 0.231450 0.23145
C2 C -0.000000 0.198080 0.19808
C3 C 0.000000 0.160980 0.16098
C4 C 0.041530 0.139640 0.139640
H2 H 0.075640 0.147480 0.147480
N1 N 0.025670 0.105120 0.105120
Ni1A Ni -0.05332(12) 0.05332(12) 0.05332(12)
Ni1Z Ni 0.05332(12) 0.44668(12) 0.44668(12)
Ni1HA Ni -0.05332(12) 0.44668(12) 0.44668(12)
Ni1G Ni 0.05332(12) -0.05332(12) 0.05332(12)
Ni1DB Ni 0.44668(12) 0.05332(12) 0.44668(12)
Ni1FB Ni 0.44668(12) -0.05332(12) 0.44668(12)
Ni1E Ni 0.05332(12) 0.05332(12) -0.05332(12)
Ni1B Ni 0.05332(12) -0.05332(12) -0.05332(12)
Ni1H Ni -0.05332(12) 0.05332(12) -0.05332(12)
Ni1D Ni -0.05332(12) -0.05332(12) 0.05332(12)
Ni1XB Ni 0.44668(12) 0.44668(12) 0.05332(12)
Ni1DC Ni 0.44668(12) 0.44668(12) -0.05332(12)
Ni1AB Ni -0.44668(12) 0.05332(12) 0.44668(12)
Ni1XA Ni -0.44668(12) -0.05332(12) 0.44668(12)
Ni1J Ni -0.05332(12) -0.05332(12) -0.05332(12)
Ni1AC Ni -0.44668(12) 0.44668(12) 0.05332(12)
Ni1VB Ni -0.44668(12) 0.44668(12) -0.05332(12)
Ni1CA Ni 0.05332(12) 0.55332(12) 0.44668(12)
Ni1X Ni 0.05332(12) 0.55332(12) 0.55332(12)
Ni1EA Ni 0.05332(12) 0.44668(12) 0.55332(12)
Ni1BA Ni -0.05332(12) 0.44668(12) 0.55332(12)
Ni1UB Ni 0.44668(12) 0.55332(12) 0.05332(12)
O3A O 0.00000 0.0915(10) 0.00000
O3P O 0.00000 0.00000 0.0915(10)
O3D O -0.0915(10) 0.00000 0.00000
O3X O 0.0915(10) 0.50000 0.50000
O3EA O -0.00000 0.4085(10) 0.50000
O3QA O -0.00000 0.50000 0.4085(10)
O3BA O -0.0915(10) 0.50000 0.50000
O3G O 0.00000 -0.0915(10) 0.00000
O3WA O 0.50000 0.0915(10) 0.50000
O3OB O 0.50000 0.00000 0.4085(10)
O3ZA O 0.4085(10) -0.00000 0.50000
O3CB O 0.50000 -0.0915(10) 0.50000
O3S O 0.00000 0.00000 -0.0915(10)
H1A H -0.00000 0.1275 0.00000
H1P H -0.00000 -0.00000 0.1275
H1D H -0.1275 0.00000 0.00000
H1X H 0.1275 0.50000 0.50000
H1EA H -0.00000 0.3725 0.50000
H1QA H -0.00000 0.50000 0.3725
H1BA H -0.1275 0.50000 0.50000
H1G H 0.00000 -0.1275 0.00000
H1WA H 0.50000 0.1275 0.50000
H1OB H 0.50000 0.00000 0.3725
H1ZA H 0.3725 -0.00000 0.50000
H1CB H 0.50000 -0.1275 0.50000
H1S H 0.00000 0.00000 -0.1275
C1Z C -0.000000 0.268550 0.26855
C1C C 0.23145 0.000000 0.231450
C1FB C 0.268550 -0.000000 0.26855
C1P C 0.231450 0.23145 0.000000
C1OC C 0.26855 0.268550 0.000000
C1A C -0.231450 0.000000 0.23145
C1AB C -0.268550 -0.000000 0.26855
C1R C -0.23145 0.231450 0.000000
C1KC C -0.26855 0.268550 0.000000
C1CA C 0.231450 0.500000 0.26855
C1UB C 0.268550 0.500000 0.23145
C2Z C 0.000000 0.301920 0.30192
C2C C 0.19808 -0.000000 0.198080
C2FB C 0.301920 0.000000 0.30192
C2P C 0.198080 0.19808 0.000000
C2OC C 0.30192 0.301920 0.000000
C2A C -0.198080 -0.000000 0.19808
C2AB C -0.301920 0.000000 0.30192
C2R C -0.19808 0.198080 0.000000
C2KC C -0.30192 0.301920 0.000000
C2CA C 0.198080 0.500000 0.30192
C2UB C 0.301920 0.500000 0.19808
C3Z C 0.000000 0.339020 0.33902
C3C C 0.16098 0.000000 0.160980
C3FB C 0.339020 0.000000 0.33902
C3P C 0.160980 0.16098 0.000000
C3OC C 0.33902 0.339020 0.000000
C3A C -0.160980 0.000000 0.16098
C3AB C -0.339020 0.000000 0.33902
C3R C -0.16098 0.160980 0.000000
C3KC C -0.33902 0.339020 0.000000
C3CA C 0.160980 0.500000 0.33902
C3UB C 0.339020 0.500000 0.16098
C4F C -0.041530 0.139640 0.139640
C4Z C 0.041530 0.360360 0.360360
C4KA C -0.041530 0.360360 0.360360
C4C C 0.139640 0.041530 0.139640
C4G C 0.139640 -0.041530 0.139640
C4JB C 0.360360 0.041530 0.360360
C4FB C 0.360360 -0.041530 0.360360
C4P C 0.139640 0.139640 0.041530
C4S C 0.139640 0.139640 -0.041530
C4QC C 0.360360 0.360360 0.041530
C4OC C 0.360360 0.360360 -0.041530
C4A C -0.139640 0.041530 0.139640
C4I C -0.139640 -0.041530 0.139640
C4AB C -0.360360 0.041530 0.360360
C4HB C -0.360360 -0.041530 0.360360
C4R C -0.139640 0.139640 0.041530
C4V C -0.139640 0.139640 -0.041530
C4KC C -0.360360 0.360360 0.041530
C4NC C -0.360360 0.360360 -0.041530
C4JA C 0.139640 0.458470 0.360360
C4CA C 0.139640 0.541530 0.360360
C4CC C 0.360360 0.458470 0.139640
C4UB C 0.360360 0.541530 0.139640
H2F H -0.075640 0.147480 0.147480
H2Z H 0.075640 0.352520 0.352520
H2KA H -0.075640 0.352520 0.352520
H2C H 0.147480 0.075640 0.147480
H2G H 0.147480 -0.075640 0.147480
H2JB H 0.352520 0.075640 0.352520
H2FB H 0.352520 -0.075640 0.352520
H2P H 0.147480 0.147480 0.075640
H2S H 0.147480 0.147480 -0.075640
H2QC H 0.352520 0.352520 0.075640
H2OC H 0.352520 0.352520 -0.075640
H2A H -0.147480 0.075640 0.147480
H2I H -0.147480 -0.075640 0.147480
H2AB H -0.352520 0.075640 0.352520
H2HB H -0.352520 -0.075640 0.352520
H2R H -0.147480 0.147480 0.075640
H2V H -0.147480 0.147480 -0.075640
H2KC H -0.352520 0.352520 0.075640
H2NC H -0.352520 0.352520 -0.075640
H2JA H 0.147480 0.424360 0.352520
H2CA H 0.147480 0.575640 0.352520
H2CC H 0.352520 0.424360 0.147480
H2UB H 0.352520 0.575640 0.147480
N1F N -0.025670 0.105120 0.105120
N1Z N 0.025670 0.394880 0.394880
N1KA N -0.025670 0.394880 0.394880
N1C N 0.105120 0.025670 0.105120
N1G N 0.105120 -0.025670 0.105120
N1JB N 0.394880 0.025670 0.394880
N1FB N 0.394880 -0.025670 0.394880
N1P N 0.105120 0.105120 0.025670
N1S N 0.105120 0.105120 -0.025670
N1QC N 0.394880 0.394880 0.025670
N1OC N 0.394880 0.394880 -0.025670
N1A N -0.105120 0.025670 0.105120
N1I N -0.105120 -0.025670 0.105120
N1AB N -0.394880 0.025670 0.394880
N1HB N -0.394880 -0.025670 0.394880
N1R N -0.105120 0.105120 0.025670
N1V N -0.105120 0.105120 -0.025670
N1KC N -0.394880 0.394880 0.025670
N1NC N -0.394880 0.394880 -0.025670
N1JA N 0.105120 0.474330 0.394880
N1CA N 0.105120 0.525670 0.394880
N1CC N 0.394880 0.474330 0.105120
N1UB N 0.394880 0.525670 0.105120
N1RA N 0.105120 0.394880 0.474330
N1SA N -0.105120 0.394880 0.474330
N1HA N -0.105120 0.474330 0.394880
N1K N 0.025670 -0.105120 0.105120
N1Q N 0.105120 -0.105120 0.025670
N1RB N 0.394880 0.105120 0.474330
N1DB N 0.474330 0.105120 0.394880
N1IB N 0.474330 -0.105120 0.394880
N1QB N 0.394880 -0.105120 0.474330
N1E N 0.105120 0.025670 -0.105120
N1O N 0.025670 0.105120 -0.105120
O1 O 0.50000 0.00000 0.00000
loop_
_geom_bond_atom_site_label_1
_geom_bond_atom_site_label_2
_geom_bond_site_symmetry_1
_geom_bond_site_symmetry_2
Ni1 O3 1_555 1_555
O3 H1 1_555 1_555
C1 C2 1_555 1_555
C2 C3 1_555 1_555
C3 C4 1_555 1_555
C4 H2 1_555 1_555
N1 Ni1 1_555 1_555
Ni1A O3A 1_555 1_555
Ni1Z O3X 1_555 1_555
Ni1HA O3EA 1_555 1_555
Ni1G O3 1_555 1_555
Ni1DB O3WA 1_555 1_555
Ni1FB O3OB 1_555 1_555
Ni1E O3 1_555 1_555
Ni1B O3 1_555 1_555
Ni1H O3A 1_555 1_555
Ni1D O3P 1_555 1_555
Ni1XB N1QC 1_555 1_555
Ni1DC N1OC 1_555 1_555
Ni1AB N1AB 1_555 1_555
Ni1XA N1HB 1_555 1_555
Ni1J O3D 1_555 1_555
Ni1AC N1KC 1_555 1_555
Ni1VB N1NC 1_555 1_555
Ni1CA O3X 1_555 1_555
Ni1X O3X 1_555 1_555
Ni1EA O3X 1_555 1_555
Ni1BA O3EA 1_555 1_555
Ni1UB N1UB 1_555 1_555
O3A Ni1 1_555 1_555
O3P Ni1 1_555 1_555
O3D Ni1A 1_555 1_555
O3X H1X 1_555 1_555
O3EA Ni1Z 1_555 1_555
O3QA Ni1Z 1_555 1_555
O3BA Ni1HA 1_555 1_555
O3G Ni1G 1_555 1_555
O3WA H1WA 1_555 1_555
O3OB Ni1DB 1_555 1_555
O3ZA Ni1DB 1_555 1_555
O3CB Ni1FB 1_555 1_555
O3S Ni1E 1_555 1_555
H1A O3A 1_555 1_555
H1P O3P 1_555 1_555
H1D O3D 1_555 1_555
H1EA O3EA 1_555 1_555
H1QA O3QA 1_555 1_555
H1BA O3BA 1_555 1_555
H1G O3G 1_555 1_555
H1OB O3OB 1_555 1_555
H1ZA O3ZA 1_555 1_555
H1CB O3CB 1_555 1_555
H1S O3S 1_555 1_555
C1Z C1 1_555 1_555
C1C C1FB 1_555 1_555
C1FB C2FB 1_555 1_555
C1P C1OC 1_555 1_555
C1OC C2OC 1_555 1_555
C1A C1AB 1_555 1_555
C1AB C2AB 1_555 1_555
C1R C1KC 1_555 1_555
C1KC C2KC 1_555 1_555
C1CA C1UB 1_555 1_555
C1UB C2UB 1_555 1_555
C2Z C1Z 1_555 1_555
C2C C1C 1_555 1_555
C2FB C3FB 1_555 1_555
C2P C1P 1_555 1_555
C2OC C3OC 1_555 1_555
C2A C1A 1_555 1_555
C2AB C3AB 1_555 1_555
C2R C1R 1_555 1_555
C2KC C3KC 1_555 1_555
C2CA C1CA 1_555 1_555
C2UB C3UB 1_555 1_555
C3Z C2Z 1_555 1_555
C3C C2C 1_555 1_555
C3FB C4JB 1_555 1_555
C3P C2P 1_555 1_555
C3OC C4QC 1_555 1_555
C3A C2A 1_555 1_555
C3AB C4AB 1_555 1_555
C3R C2R 1_555 1_555
C3KC C4KC 1_555 1_555
C3CA C2CA 1_555 1_555
C3UB C4CC 1_555 1_555
C4F C3 1_555 1_555
C4Z C3Z 1_555 1_555
C4KA C3Z 1_555 1_555
C4C C3C 1_555 1_555
C4G C3C 1_555 1_555
C4JB H2JB 1_555 1_555
C4FB C3FB 1_555 1_555
C4P C3P 1_555 1_555
C4S C3P 1_555 1_555
C4QC H2QC 1_555 1_555
C4OC C3OC 1_555 1_555
C4A C3A 1_555 1_555
C4I C3A 1_555 1_555
C4AB H2AB 1_555 1_555
C4HB C3AB 1_555 1_555
C4R C3R 1_555 1_555
C4V C3R 1_555 1_555
C4KC H2KC 1_555 1_555
C4NC C3KC 1_555 1_555
C4JA C3CA 1_555 1_555
C4CA C3CA 1_555 1_555
C4CC H2CC 1_555 1_555
C4UB C3UB 1_555 1_555
H2F C4F 1_555 1_555
H2Z C4Z 1_555 1_555
H2KA C4KA 1_555 1_555
H2C C4C 1_555 1_555
H2G C4G 1_555 1_555
H2FB C4FB 1_555 1_555
H2P C4P 1_555 1_555
H2S C4S 1_555 1_555
H2OC C4OC 1_555 1_555
H2A C4A 1_555 1_555
H2I C4I 1_555 1_555
H2HB C4HB 1_555 1_555
H2R C4R 1_555 1_555
H2V C4V 1_555 1_555
H2NC C4NC 1_555 1_555
H2JA C4JA 1_555 1_555
H2CA C4CA 1_555 1_555
H2UB C4UB 1_555 1_555
N1F N1 1_555 1_555
N1Z Ni1Z 1_555 1_555
N1KA Ni1HA 1_555 1_555
N1C Ni1 1_555 1_555
N1G Ni1G 1_555 1_555
N1JB Ni1DB 1_555 1_555
N1FB Ni1FB 1_555 1_555
N1P Ni1 1_555 1_555
N1S Ni1E 1_555 1_555
N1QC C4QC 1_555 1_555
N1OC C4OC 1_555 1_555
N1A Ni1A 1_555 1_555
N1I Ni1D 1_555 1_555
N1AB C4AB 1_555 1_555
N1HB C4HB 1_555 1_555
N1R Ni1A 1_555 1_555
N1V Ni1H 1_555 1_555
N1KC C4KC 1_555 1_555
N1NC C4NC 1_555 1_555
N1JA Ni1Z 1_555 1_555
N1CA Ni1CA 1_555 1_555
N1CC Ni1XB 1_555 1_555
N1UB C4UB 1_555 1_555
N1RA Ni1Z 1_555 1_555
N1SA Ni1HA 1_555 1_555
N1HA Ni1HA 1_555 1_555
N1K Ni1G 1_555 1_555
N1Q Ni1G 1_555 1_555
N1RB Ni1DB 1_555 1_555
N1DB Ni1DB 1_555 1_555
N1IB Ni1FB 1_555 1_555
N1QB Ni1FB 1_555 1_555
N1E Ni1E 1_555 1_555
N1O Ni1E 1_555 1_555
C4 N1 1_555 1_555
Ni1A O3P 1_555 1_555
Ni1A N1F 1_555 1_555
Ni1HA O3QA 1_555 1_555
Ni1G O3P 1_555 1_555
Ni1FB O3ZA 1_555 1_555
Ni1E O3A 1_555 1_555
Ni1B O3G 1_555 1_555
Ni1B O3S 1_555 1_555
Ni1H O3D 1_555 1_555
Ni1H O3S 1_555 1_555
Ni1D O3D 1_555 1_555
Ni1D O3G 1_555 1_555
Ni1J O3G 1_555 1_555
Ni1J O3S 1_555 1_555
Ni1CA O3QA 1_555 1_555
Ni1EA O3EA 1_555 1_555
Ni1BA O3BA 1_555 1_555
C4F N1F 1_555 1_555
C4Z N1Z 1_555 1_555
C4KA N1KA 1_555 1_555
C4C N1C 1_555 1_555
C4G N1G 1_555 1_555
C4JB N1JB 1_555 1_555
C4FB N1FB 1_555 1_555
C4P N1P 1_555 1_555
C4S N1S 1_555 1_555
C4A N1A 1_555 1_555
C4I N1I 1_555 1_555
C4R N1R 1_555 1_555
C4V N1V 1_555 1_555
C4JA N1JA 1_555 1_555
C4CA N1CA 1_555 1_555
C4CC N1CC 1_555 1_555
N1Z N1KA 1_555 1_555
N1C N1G 1_555 1_555
N1JB N1FB 1_555 1_555
N1P N1S 1_555 1_555
N1QC N1OC 1_555 1_555
N1A N1I 1_555 1_555
N1AB N1HB 1_555 1_555
N1R N1V 1_555 1_555
N1KC N1NC 1_555 1_555
N1JA N1CA 1_555 1_555
N1CC N1UB 1_555 1_555

#END
