
#######################################################################
#
#                 Cambridge Crystallographic Data Centre
#                                CCDC 
#
#######################################################################
#
# If this CIF has been generated from an entry in the Cambridge 
# Structural Database, then it will include bibliographic, chemical, 
# crystal, experimental, refinement or atomic coordinate data resulting 
# from the CCDC's data processing and validation procedures.
#
#######################################################################

data_ONEYOW
_chemical_formula_moiety         'C122 H84 N8 O34 Zn11'
_symmetry_cell_setting           tetragonal
_symmetry_space_group_name_H-M   'P 43 21 2'
_symmetry_Int_Tables_number      96
_space_group_name_Hall           'P 4nw 2abw'
loop_
_symmetry_equiv_pos_site_id
_symmetry_equiv_pos_as_xyz
1 x,y,z
2 -x,-y,1/2+z
3 1/2-y,1/2+x,3/4+z
4 1/2+y,1/2-x,1/4+z
5 1/2-x,1/2+y,3/4-z
6 1/2+x,1/2-y,1/4-z
7 y,x,-z
8 -y,-x,1/2-z
_cell_length_a                   28.3927(4)
_cell_length_b                   28.3927(4)
_cell_length_c                   20.3756(3)
_cell_angle_alpha                90
_cell_angle_beta                 90
_cell_angle_gamma                90
_cell_volume                     16425.7
loop_
_atom_site_label
_atom_site_type_symbol
_atom_site_fract_x
_atom_site_fract_y
_atom_site_fract_z
Zn1 Zn 0.91649(3) 0.21878(3) 0.35830(5)
Zn2 Zn 0.85203(3) 0.14797(3) 0.2500
N1 N 0.8170(2) 0.3408(2) 0.3611(5)
C1 C 0.7946(6) 0.3338(4) 0.4185(8)
O1 O 0.7527(4) 0.3231(4) 0.4257(5)
O2 O 0.8214(4) 0.3468(3) 0.4700(4)
C2 C 0.8656(5) 0.3602(6) 0.4451(8)
H1 H 0.8895 0.3388 0.4611
H2 H 0.8733 0.3916 0.4604
C3 C 0.8652(3) 0.3596(3) 0.3711(6)
H3 H 0.8887 0.3373 0.3545
C4 C 0.8709(4) 0.4088(4) 0.3362(8)
H4 H 0.8661 0.4053 0.2893
H5 H 0.8476 0.4307 0.3528
C5 C 0.9201(6) 0.4275(5) 0.3495(9)
C6 C 0.9591(5) 0.4072(7) 0.3198(11)
H6 H 0.9547 0.3803 0.2947
C7 C 1.0020(7) 0.4241(9) 0.3252(15)
H7 H 1.0266 0.4096 0.3028
C8 C 1.0106(8) 0.4609(9) 0.3616(16)
H8 H 1.0403 0.4747 0.3620
C9 C 0.9726(8) 0.4796(9) 0.4015(17)
H9 H 0.9779 0.5017 0.4344
C10 C 0.9277(7) 0.4625(6) 0.3873(13)
H10 H 0.9019 0.4774 0.4064
N2 N 0.5487(2) 0.2707(3) 0.0147(4)
C11 C 0.5390(4) 0.2328(4) 0.0521(9)
O3 O 0.5314(4) 0.2303(3) 0.1095(6)
O4 O 0.5407(4) 0.1941(3) 0.0107(8)
C12 C 0.5463(5) 0.2051(5) -0.0503(9)
H11 H 0.5174 0.1998 -0.0744
H12 H 0.5709 0.1860 -0.0697
C13 C 0.5608(4) 0.2607(4) -0.0532(6)
H13 H 0.5396 0.2778 -0.0829
C14 C 0.61138(7) 0.27317(7) -0.06777(12)
H14 H 0.6308 0.2624 -0.0316
H15 H 0.6141 0.3072 -0.0699
C15 C 0.63168(7) 0.25133(7) -0.13443(12)
C16 C 0.65668(7) 0.22055(7) -0.17443(12)
H16 H 0.6707 0.1939 -0.1565
C17 C 0.66067(7) 0.22957(7) -0.24124(12)
H17 H 0.6774 0.2090 -0.2680
C18 C 0.63966(7) 0.26938(7) -0.26806(12)
H18 H 0.6423 0.2754 -0.3128
C19 C 0.61466(7) 0.30017(7) -0.22806(12)
H19 H 0.6006 0.3268 -0.2460
C20 C 0.61066(7) 0.29114(7) -0.16125(12)
H20 H 0.5939 0.3117 -0.1345
N3 N 0.54997(7) 0.59458(7) 0.26601(12)
C21 C 0.51338(7) 0.58440(7) 0.30346(12)
O5 O 0.50871(7) 0.57690(7) 0.36310(12)
O6 O 0.47489(7) 0.61175(7) 0.27451(12)
C22 C 0.49392(7) 0.63803(7) 0.22980(12)
H21 H 0.4779 0.6343 0.1880
H22 H 0.4931 0.6710 0.2424
C23 C 0.53576(7) 0.62313(7) 0.22660(12)
H23 H 0.5298 0.6003 0.1915
C24 C 0.57538(7) 0.65244(7) 0.18713(12)
H24 H 0.6051 0.6434 0.2071
H25 H 0.5703 0.6851 0.1994
C25 C 0.58246(7) 0.62731(7) 0.04491(12)
H26 H 0.5707 0.5968 0.0469
C26 C 0.58672(7) 0.65381(7) 0.10196(12)
C27 C 0.60432(7) 0.69945(7) 0.09902(12)
H27 H 0.6072 0.7172 0.1372
C28 C 0.61764(7) 0.71858(7) 0.03903(12)
H28 H 0.6294 0.7491 0.0371
C29 C 0.61337(7) 0.69207(7) -0.01801(12)
H29 H 0.6223 0.7049 -0.0581
C30 C 0.59578(7) 0.64644(7) -0.01507(12)
H30 H 0.5929 0.6287 -0.0532
O7 O 0.86381(7) 0.25894(7) 0.33655(12)
O8 O 0.84910(7) 0.22131(7) 0.24551(12)
O9 O 0.42541(7) 0.35525(7) -0.00209(12)
O10 O 0.95597(7) 0.26215(7) 0.42199(12)
O11 O 0.46282(7) 0.29232(7) -0.04168(12)
O12 O 0.65126(7) 0.64564(7) 0.39691(12)
O13 O 0.58966(7) 0.66282(7) 0.33677(12)
C31 C 0.61525(7) 0.44039(7) 0.17830(12)
H31 H 0.5881 0.4581 0.1718
C32 C 0.6198(3) 0.3960(3) 0.1488(4)
C33 C 0.6598(3) 0.3689(3) 0.1639(5)
H32 H 0.6624 0.3389 0.1459
C34 C 0.6951(3) 0.3848(3) 0.2044(5)
C35 C 0.6916(4) 0.4298(3) 0.2314(5)
H33 H 0.7154 0.4411 0.2585
C36 C 0.6523(4) 0.4582(3) 0.2182(5)
C37 C 0.7344(3) 0.3531(3) 0.2232(5)
C38 C 0.7476(3) 0.3152(3) 0.1837(5)
H34 H 0.7325 0.3095 0.1440
C39 C 0.7851(3) 0.2852(3) 0.2058(5)
H35 H 0.7942 0.2603 0.1792
C40 C 0.8077(2) 0.2917(2) 0.2637(4)
C41 C 0.7963(3) 0.3302(3) 0.3012(4)
C42 C 0.7586(3) 0.3606(3) 0.2794(4)
H36 H 0.7507 0.3865 0.3051
C43 C 0.5816(3) 0.3782(3) 0.1077(5)
C44 C 0.5386(4) 0.4049(3) 0.0962(6)
H37 H 0.5362 0.4349 0.1140
C45 C 0.5036(3) 0.3890(3) 0.0624(6)
H38 H 0.4770 0.4078 0.0580
C46 C 0.5037(2) 0.3438(3) 0.0316(4)
C47 C 0.5435(3) 0.3176(3) 0.0415(4)
C48 C 0.5818(3) 0.3338(3) 0.0792(4)
H39 H 0.6078 0.3144 0.0851
C49 C 0.6465(4) 0.5055(3) 0.2513(5)
C50 C 0.6777(4) 0.5232(3) 0.2959(6)
H40 H 0.7041 0.5056 0.3071
C51 C 0.6710(4) 0.5656(3) 0.3242(5)
H41 H 0.6946 0.5774 0.3514
C52 C 0.6313(4) 0.5924(3) 0.3148(5)
C53 C 0.5969(5) 0.5720(5) 0.2730(8)
C54 C 0.6062(5) 0.5305(5) 0.2427(8)
H42 H 0.5836 0.5183 0.2144
C55 C 0.8430(3) 0.2542(3) 0.2821(5)
C56 C 0.4609(3) 0.3284(3) -0.0054(5)
C57 C 0.6236(4) 0.6361(3) 0.3536(5)
N4 N 0.9760(10) 0.2897(9) 0.5138(13)
C58 C 0.9486(12) 0.2626(11) 0.4723(14)
C59 C 0.9951(14) 0.3295(14) 0.4862(17)
C60 C 0.967(2) 0.278(2) 0.590(3)
C61 C 1.0440(19) 0.341(2) 0.489(3)
N1C N 0.8408(2) -0.3170(2) 0.6111(5)
C1C C 0.8338(4) -0.2946(6) 0.6685(8)
O1C O 0.8231(4) -0.2527(4) 0.6757(5)
O2C O 0.8468(3) -0.3214(4) 0.7200(4)
C2C C 0.8602(6) -0.3656(5) 0.6951(8)
H1C H 0.8388 -0.3895 0.7111
H2C H 0.8916 -0.3733 0.7104
C3C C 0.8596(3) -0.3652(3) 0.6211(6)
H3C H 0.8373 -0.3887 0.6045
C4C C 0.9088(4) -0.3709(4) 0.5862(8)
H4C H 0.9053 -0.3661 0.5393
H5C H 0.9307 -0.3476 0.6028
C5C C 0.9275(5) -0.4201(6) 0.5995(9)
C6C C 0.9072(7) -0.4591(5) 0.5698(11)
H6C H 0.8803 -0.4547 0.5447
C7C C 0.9241(9) -0.5020(7) 0.5752(15)
H7C H 0.9096 -0.5266 0.5528
C8C C 0.9609(9) -0.5106(8) 0.6116(16)
H8C H 0.9747 -0.5403 0.6120
C9C C 0.9796(9) -0.4726(8) 0.6515(17)
H9C H 1.0017 -0.4779 0.6844
C10C C 0.9625(6) -0.4277(7) 0.6373(13)
H10C H 0.9774 -0.4019 0.6564
N2C N 0.7707(3) -0.0487(2) 0.2647(4)
C11C C 0.7328(4) -0.0390(4) 0.3021(9)
O3C O 0.7303(3) -0.0314(4) 0.3595(6)
O4C O 0.6941(3) -0.0407(4) 0.2607(8)
C12C C 0.7051(5) -0.0463(5) 0.1997(9)
H11C H 0.6998 -0.0174 0.1756
H12C H 0.6860 -0.0709 0.1803
C13C C 0.7607(4) -0.0608(4) 0.1968(6)
H13C H 0.7778 -0.0396 0.1671
C14C C 0.77317(7) -0.11138(7) 0.18223(12)
H14C H 0.7624 -0.1308 0.2184
H15C H 0.8072 -0.1141 0.1801
C15C C 0.75133(7) -0.13168(7) 0.11557(12)
C16C C 0.72055(7) -0.15668(7) 0.07557(12)
H16C H 0.6939 -0.1707 0.0935
C17C C 0.72957(7) -0.16067(7) 0.00876(12)
H17C H 0.7090 -0.1774 -0.0180
C18C C 0.76938(7) -0.13966(7) -0.01806(12)
H18C H 0.7754 -0.1423 -0.0628
C19C C 0.80017(7) -0.11466(7) 0.02194(12)
H19C H 0.8268 -0.1006 0.0040
C20C C 0.79114(7) -0.11066(7) 0.08875(12)
H20C H 0.8117 -0.0939 0.1155
N3C N 1.09458(7) -0.04997(7) 0.51601(12)
C21C C 1.08440(7) -0.01338(7) 0.55346(12)
O5C O 1.07690(7) -0.00871(7) 0.61310(12)
O6C O 1.11175(7) 0.02511(7) 0.52451(12)
C22C C 1.13803(7) 0.00608(7) 0.47980(12)
H21C H 1.1343 0.0221 0.4380
H22C H 1.1710 0.0069 0.4924
C23C C 1.12313(7) -0.03576(7) 0.47660(12)
H23C H 1.1003 -0.0298 0.4415
C24C C 1.15244(7) -0.07538(7) 0.43713(12)
H24C H 1.1434 -0.1051 0.4571
H25C H 1.1851 -0.0703 0.4494
C25C C 1.12731(7) -0.08246(7) 0.29491(12)
H26C H 1.0968 -0.0707 0.2969
C26C C 1.15381(7) -0.08672(7) 0.35196(12)
C27C C 1.19945(7) -0.10432(7) 0.34902(12)
H27C H 1.2172 -0.1072 0.3872
C28C C 1.21858(7) -0.11764(7) 0.28903(12)
H28C H 1.2491 -0.1294 0.2871
C29C C 1.19207(7) -0.11337(7) 0.23199(12)
H29C H 1.2049 -0.1223 0.1919
C30C C 1.14644(7) -0.09578(7) 0.23493(12)
H30C H 1.1287 -0.0929 0.1968
O7C O 0.75894(7) -0.36381(7) 0.58655(12)
O8C O 0.72131(7) -0.34910(7) 0.49551(12)
O9C O 0.85525(7) 0.07459(7) 0.24791(12)
O11C O 0.79232(7) 0.03718(7) 0.20832(12)
O12C O 1.14564(7) -0.15126(7) 0.64691(12)
O13C O 1.16282(7) -0.08966(7) 0.58677(12)
C31C C 0.94039(7) -0.11525(7) 0.42830(12)
H31C H 0.9581 -0.0881 0.4218
C32C C 0.8960(3) -0.1198(3) 0.3988(4)
C33C C 0.8689(3) -0.1598(3) 0.4139(5)
H32C H 0.8389 -0.1624 0.3959
C34C C 0.8848(3) -0.1951(3) 0.4544(5)
C35C C 0.9298(3) -0.1916(4) 0.4814(5)
H33C H 0.9411 -0.2154 0.5085
C36C C 0.9582(3) -0.1523(4) 0.4682(5)
C37C C 0.8531(3) -0.2344(3) 0.4732(5)
C38C C 0.8152(3) -0.2476(3) 0.4337(5)
H34C H 0.8095 -0.2325 0.3940
C39C C 0.7852(3) -0.2851(3) 0.4558(5)
H35C H 0.7603 -0.2942 0.4292
C40C C 0.7917(2) -0.3077(2) 0.5137(4)
C41C C 0.8302(3) -0.2963(3) 0.5512(4)
C42C C 0.8606(3) -0.2586(3) 0.5294(4)
H36C H 0.8865 -0.2507 0.5551
C43C C 0.8782(3) -0.0816(3) 0.3577(5)
C44C C 0.9049(3) -0.0386(4) 0.3462(6)
H37C H 0.9349 -0.0362 0.3640
C45C C 0.8890(3) -0.0036(3) 0.3124(6)
H38C H 0.9078 0.0230 0.3080
C46C C 0.8438(3) -0.0037(2) 0.2816(4)
C47C C 0.8176(3) -0.0435(3) 0.2915(4)
C48C C 0.8338(3) -0.0818(3) 0.3292(4)
H39C H 0.8144 -0.1078 0.3351
C49C C 1.0055(3) -0.1465(4) 0.5013(5)
C50C C 1.0232(3) -0.1777(4) 0.5459(6)
H40C H 1.0056 -0.2041 0.5571
C51C C 1.0656(3) -0.1710(4) 0.5742(5)
H41C H 1.0774 -0.1946 0.6014
C52C C 1.0924(3) -0.1313(4) 0.5648(5)
C53C C 1.0720(5) -0.0969(5) 0.5230(8)
C54C C 1.0305(5) -0.1062(5) 0.4927(8)
H42C H 1.0183 -0.0836 0.4644
C55C C 0.7542(3) -0.3430(3) 0.5321(5)
C56C C 0.8284(3) 0.0391(3) 0.2446(5)
C57C C 1.1361(3) -0.1236(4) 0.6036(5)
Zn1C Zn 0.71878(3) -0.41649(3) 0.60830(5)
O10C O 0.76215(7) -0.45597(7) 0.67199(12)
N4C N 0.7897(9) -0.4760(10) 0.7638(13)
C58C C 0.7626(11) -0.4486(12) 0.7223(14)
C59C C 0.8295(14) -0.4951(14) 0.7362(17)
C60C C 0.778(2) -0.467(2) 0.840(3)
C61C C 0.841(2) -0.5440(19) 0.739(3)
O11E O 0.96282(7) 0.20768(7) 0.29168(12)
O13D O 0.91034(7) 0.16282(7) 0.41323(12)
O12B O 0.85436(7) 0.15126(7) 0.14691(12)
O8G O 0.77869(7) 0.15090(7) 0.25449(12)
O9E O 0.92541(7) 0.14475(7) 0.25209(12)
O12D O 0.84874(7) 0.14564(7) 0.35309(12)
Zn2B Zn 0.35203(3) 0.35203(3) 0.0000
Zn1E Zn 0.41649(3) 0.28122(3) -0.10830(5)
Zn2C Zn 0.64797(3) 0.64797(3) 0.5000
Zn1D Zn 0.58351(3) 0.71878(3) 0.39170(5)
Zn2C_2 Zn 0.64797(3) -0.35203(3) 0.5000
Zn1G Zn 0.78122(3) 0.08351(3) 0.14170(5)
Zn2A Zn 1.14797(3) -0.14797(3) 0.7500
Zn1F Zn 1.21878(3) -0.08351(3) 0.64170(5)
O11G O 0.70768(7) -0.46282(7) 0.54168(12)
O13F O 0.66282(7) -0.41034(7) 0.66323(12)
loop_
_geom_bond_atom_site_label_1
_geom_bond_atom_site_label_2
_geom_bond_site_symmetry_1
_geom_bond_site_symmetry_2
Zn1 O7 1_555 1_555
Zn2 O8 1_555 1_555
N1 C1 1_555 1_555
C1 O1 1_555 1_555
O2 C1 1_555 1_555
C2 O2 1_555 1_555
H1 C2 1_555 1_555
H2 C2 1_555 1_555
C3 N1 1_555 1_555
H3 C3 1_555 1_555
C4 C3 1_555 1_555
H4 C4 1_555 1_555
H5 C4 1_555 1_555
C5 C4 1_555 1_555
C6 C5 1_555 1_555
H6 C6 1_555 1_555
C7 C6 1_555 1_555
H7 C7 1_555 1_555
C8 C7 1_555 1_555
H8 C8 1_555 1_555
C9 C8 1_555 1_555
H9 C9 1_555 1_555
C10 C5 1_555 1_555
H10 C10 1_555 1_555
N2 C11 1_555 1_555
C11 O3 1_555 1_555
O4 C11 1_555 1_555
C12 O4 1_555 1_555
H11 C12 1_555 1_555
H12 C12 1_555 1_555
C13 N2 1_555 1_555
H13 C13 1_555 1_555
C14 C13 1_555 1_555
H14 C14 1_555 1_555
H15 C14 1_555 1_555
C15 C14 1_555 1_555
C16 C15 1_555 1_555
H16 C16 1_555 1_555
C17 C16 1_555 1_555
H17 C17 1_555 1_555
C18 C17 1_555 1_555
H18 C18 1_555 1_555
C19 C18 1_555 1_555
H19 C19 1_555 1_555
C20 C15 1_555 1_555
H20 C20 1_555 1_555
N3 C21 1_555 1_555
C21 O5 1_555 1_555
O6 C21 1_555 1_555
C22 O6 1_555 1_555
H21 C22 1_555 1_555
H22 C22 1_555 1_555
C23 N3 1_555 1_555
H23 C23 1_555 1_555
C24 C23 1_555 1_555
H24 C24 1_555 1_555
H25 C24 1_555 1_555
C25 H26 1_555 1_555
C26 C24 1_555 1_555
C27 C26 1_555 1_555
H27 C27 1_555 1_555
C28 C27 1_555 1_555
H28 C28 1_555 1_555
C29 C28 1_555 1_555
H29 C29 1_555 1_555
C30 C25 1_555 1_555
H30 C30 1_555 1_555
O7 C55 1_555 1_555
O8 C55 1_555 1_555
O9 C56 1_555 1_555
O10 Zn1 1_555 1_555
O11 C56 1_555 1_555
O12 C57 1_555 1_555
O13 C57 1_555 1_555
C31 H31 1_555 1_555
C32 C31 1_555 1_555
C33 C32 1_555 1_555
H32 C33 1_555 1_555
C34 C33 1_555 1_555
C35 C34 1_555 1_555
H33 C35 1_555 1_555
C36 C31 1_555 1_555
C37 C34 1_555 1_555
C38 C37 1_555 1_555
H34 C38 1_555 1_555
C39 C38 1_555 1_555
H35 C39 1_555 1_555
C40 C39 1_555 1_555
C41 N1 1_555 1_555
C42 C37 1_555 1_555
H36 C42 1_555 1_555
C43 C32 1_555 1_555
C44 C43 1_555 1_555
H37 C44 1_555 1_555
C45 C44 1_555 1_555
H38 C45 1_555 1_555
C46 C45 1_555 1_555
C47 N2 1_555 1_555
C48 C43 1_555 1_555
H39 C48 1_555 1_555
C49 C36 1_555 1_555
C50 C49 1_555 1_555
H40 C50 1_555 1_555
C51 C50 1_555 1_555
H41 C51 1_555 1_555
C52 C51 1_555 1_555
C53 N3 1_555 1_555
C54 C49 1_555 1_555
H42 C54 1_555 1_555
C55 C40 1_555 1_555
C56 C46 1_555 1_555
C57 C52 1_555 1_555
N4 C58 1_555 1_555
C58 O10 1_555 1_555
C59 N4 1_555 1_555
C60 N4 1_555 1_555
C61 C59 1_555 1_555
N1C C1C 1_555 1_555
C1C O1C 1_555 1_555
O2C C1C 1_555 1_555
C2C O2C 1_555 1_555
H1C C2C 1_555 1_555
H2C C2C 1_555 1_555
C3C N1C 1_555 1_555
H3C C3C 1_555 1_555
C4C C3C 1_555 1_555
H4C C4C 1_555 1_555
H5C C4C 1_555 1_555
C5C C4C 1_555 1_555
C6C C5C 1_555 1_555
H6C C6C 1_555 1_555
C7C C6C 1_555 1_555
H7C C7C 1_555 1_555
C8C C7C 1_555 1_555
H8C C8C 1_555 1_555
C9C C8C 1_555 1_555
H9C C9C 1_555 1_555
C10C C5C 1_555 1_555
H10C C10C 1_555 1_555
N2C C11C 1_555 1_555
C11C O3C 1_555 1_555
O4C C11C 1_555 1_555
C12C O4C 1_555 1_555
H11C C12C 1_555 1_555
H12C C12C 1_555 1_555
C13C N2C 1_555 1_555
H13C C13C 1_555 1_555
C14C C13C 1_555 1_555
H14C C14C 1_555 1_555
H15C C14C 1_555 1_555
C15C C14C 1_555 1_555
C16C C15C 1_555 1_555
H16C C16C 1_555 1_555
C17C C16C 1_555 1_555
H17C C17C 1_555 1_555
C18C C17C 1_555 1_555
H18C C18C 1_555 1_555
C19C C18C 1_555 1_555
H19C C19C 1_555 1_555
C20C C15C 1_555 1_555
H20C C20C 1_555 1_555
N3C C21C 1_555 1_555
C21C O5C 1_555 1_555
O6C C21C 1_555 1_555
C22C O6C 1_555 1_555
H21C C22C 1_555 1_555
H22C C22C 1_555 1_555
C23C N3C 1_555 1_555
H23C C23C 1_555 1_555
C24C C23C 1_555 1_555
H24C C24C 1_555 1_555
H25C C24C 1_555 1_555
C25C H26C 1_555 1_555
C26C C24C 1_555 1_555
C27C C26C 1_555 1_555
H27C C27C 1_555 1_555
C28C C27C 1_555 1_555
H28C C28C 1_555 1_555
C29C C28C 1_555 1_555
H29C C29C 1_555 1_555
C30C C25C 1_555 1_555
H30C C30C 1_555 1_555
O7C C55C 1_555 1_555
O8C C55C 1_555 1_555
O9C Zn2 1_555 1_555
O11C C56C 1_555 1_555
O12C C57C 1_555 1_555
O13C C57C 1_555 1_555
C31C H31C 1_555 1_555
C32C C31C 1_555 1_555
C33C C32C 1_555 1_555
H32C C33C 1_555 1_555
C34C C33C 1_555 1_555
C35C C34C 1_555 1_555
H33C C35C 1_555 1_555
C36C C31C 1_555 1_555
C37C C34C 1_555 1_555
C38C C37C 1_555 1_555
H34C C38C 1_555 1_555
C39C C38C 1_555 1_555
H35C C39C 1_555 1_555
C40C C39C 1_555 1_555
C41C N1C 1_555 1_555
C42C C37C 1_555 1_555
H36C C42C 1_555 1_555
C43C C32C 1_555 1_555
C44C C43C 1_555 1_555
H37C C44C 1_555 1_555
C45C C44C 1_555 1_555
H38C C45C 1_555 1_555
C46C C45C 1_555 1_555
C47C N2C 1_555 1_555
C48C C43C 1_555 1_555
H39C C48C 1_555 1_555
C49C C36C 1_555 1_555
C50C C49C 1_555 1_555
H40C C50C 1_555 1_555
C51C C50C 1_555 1_555
H41C C51C 1_555 1_555
C52C C51C 1_555 1_555
C53C N3C 1_555 1_555
C54C C49C 1_555 1_555
H42C C54C 1_555 1_555
C55C C40C 1_555 1_555
C56C O9C 1_555 1_555
C57C C52C 1_555 1_555
Zn1C O7C 1_555 1_555
O10C Zn1C 1_555 1_555
N4C C58C 1_555 1_555
C58C O10C 1_555 1_555
C59C N4C 1_555 1_555
C60C N4C 1_555 1_555
C61C C59C 1_555 1_555
O11E Zn1 1_555 1_555
O13D Zn1 1_555 1_555
O12B Zn2 1_555 1_555
O8G Zn2 1_555 1_555
O9E Zn2 1_555 1_555
O12D Zn2 1_555 1_555
Zn2B O9 1_555 1_555
Zn1E O11 1_555 1_555
Zn2C O12 1_555 1_555
Zn1D O13 1_555 1_555
Zn2C_2 O8C 1_555 1_555
Zn1G O11C 1_555 1_555
Zn2A O12C 1_555 1_555
Zn1F O13C 1_555 1_555
O11G Zn1C 1_555 1_555
O13F Zn1C 1_555 1_555
C2 C3 1_555 1_555
C9 C10 1_555 1_555
C12 C13 1_555 1_555
C19 C20 1_555 1_555
C22 C23 1_555 1_555
C25 C26 1_555 1_555
C29 C30 1_555 1_555
C35 C36 1_555 1_555
C40 C41 1_555 1_555
C41 C42 1_555 1_555
C46 C47 1_555 1_555
C47 C48 1_555 1_555
C52 C53 1_555 1_555
C53 C54 1_555 1_555
C2C C3C 1_555 1_555
C9C C10C 1_555 1_555
C12C C13C 1_555 1_555
C19C C20C 1_555 1_555
C22C C23C 1_555 1_555
C25C C26C 1_555 1_555
C29C C30C 1_555 1_555
C35C C36C 1_555 1_555
C40C C41C 1_555 1_555
C41C C42C 1_555 1_555
C46C C47C 1_555 1_555
C46C C56C 1_555 1_555
C47C C48C 1_555 1_555
C52C C53C 1_555 1_555
C53C C54C 1_555 1_555

#END
