
#######################################################################
#
#                 Cambridge Crystallographic Data Centre
#                                CCDC 
#
#######################################################################
#
# If this CIF has been generated from an entry in the Cambridge 
# Structural Database, then it will include bibliographic, chemical, 
# crystal, experimental, refinement or atomic coordinate data resulting 
# from the CCDC's data processing and validation procedures.
#
#######################################################################

data_ONEYIQ
_chemical_formula_moiety         'C108 H114 N12 O38 Zn10'
_symmetry_cell_setting           cubic
_symmetry_space_group_name_H-M   'F 4 3 2'
_symmetry_Int_Tables_number      209
_space_group_name_Hall           'F 4 2 3'
loop_
_symmetry_equiv_pos_site_id
_symmetry_equiv_pos_as_xyz
1 x,y,z
2 x,-y,-z
3 -x,-y,z
4 -x,y,-z
5 -y,x,z
6 y,x,-z
7 y,-x,z
8 -y,-x,-z
9 y,z,x
10 -y,-z,x
11 y,-z,-x
12 -y,z,-x
13 -z,y,x
14 -z,-y,-x
15 z,-y,x
16 z,y,-x
17 z,x,y
18 -z,x,-y
19 -z,-x,y
20 z,-x,-y
21 -x,-z,-y
22 -x,z,y
23 x,-z,y
24 x,z,-y
25 x,1/2+y,1/2+z
26 x,1/2-y,1/2-z
27 -x,1/2-y,1/2+z
28 -x,1/2+y,1/2-z
29 -y,1/2+x,1/2+z
30 y,1/2+x,1/2-z
31 y,1/2-x,1/2+z
32 -y,1/2-x,1/2-z
33 y,1/2+z,1/2+x
34 -y,1/2-z,1/2+x
35 y,1/2-z,1/2-x
36 -y,1/2+z,1/2-x
37 -z,1/2+y,1/2+x
38 -z,1/2-y,1/2-x
39 z,1/2-y,1/2+x
40 z,1/2+y,1/2-x
41 z,1/2+x,1/2+y
42 -z,1/2+x,1/2-y
43 -z,1/2-x,1/2+y
44 z,1/2-x,1/2-y
45 -x,1/2-z,1/2-y
46 -x,1/2+z,1/2+y
47 x,1/2-z,1/2+y
48 x,1/2+z,1/2-y
49 1/2+x,y,1/2+z
50 1/2+x,-y,1/2-z
51 1/2-x,-y,1/2+z
52 1/2-x,y,1/2-z
53 1/2-y,x,1/2+z
54 1/2+y,x,1/2-z
55 1/2+y,-x,1/2+z
56 1/2-y,-x,1/2-z
57 1/2+y,z,1/2+x
58 1/2-y,-z,1/2+x
59 1/2+y,-z,1/2-x
60 1/2-y,z,1/2-x
61 1/2-z,y,1/2+x
62 1/2-z,-y,1/2-x
63 1/2+z,-y,1/2+x
64 1/2+z,y,1/2-x
65 1/2+z,x,1/2+y
66 1/2-z,x,1/2-y
67 1/2-z,-x,1/2+y
68 1/2+z,-x,1/2-y
69 1/2-x,-z,1/2-y
70 1/2-x,z,1/2+y
71 1/2+x,-z,1/2+y
72 1/2+x,z,1/2-y
73 1/2+x,1/2+y,z
74 1/2+x,1/2-y,-z
75 1/2-x,1/2-y,z
76 1/2-x,1/2+y,-z
77 1/2-y,1/2+x,z
78 1/2+y,1/2+x,-z
79 1/2+y,1/2-x,z
80 1/2-y,1/2-x,-z
81 1/2+y,1/2+z,x
82 1/2-y,1/2-z,x
83 1/2+y,1/2-z,-x
84 1/2-y,1/2+z,-x
85 1/2-z,1/2+y,x
86 1/2-z,1/2-y,-x
87 1/2+z,1/2-y,x
88 1/2+z,1/2+y,-x
89 1/2+z,1/2+x,y
90 1/2-z,1/2+x,-y
91 1/2-z,1/2-x,y
92 1/2+z,1/2-x,-y
93 1/2-x,1/2-z,-y
94 1/2-x,1/2+z,y
95 1/2+x,1/2-z,y
96 1/2+x,1/2+z,-y
_cell_length_a                   47.515(2)
_cell_length_b                   47.515(2)
_cell_length_c                   47.515(2)
_cell_angle_alpha                90
_cell_angle_beta                 90
_cell_angle_gamma                90
_cell_volume                     107273
loop_
_atom_site_label
_atom_site_type_symbol
_atom_site_fract_x
_atom_site_fract_y
_atom_site_fract_z
Zn1 Zn 1.000000(6) 0.727807(6) 0.2722
C1 C 0.96136(7) 0.72214(9) 0.22495(10)
O1 O 0.97050(7) 0.71097(7) 0.24700(6)
O2 O 0.96970(7) 0.74444(7) 0.21412(6)
C2 C 0.93743(8) 0.70714(10) 0.21072(10)
C3 C 0.91705(10) 0.69251(10) 0.22619(9)
C4 C 0.89468(9) 0.68021(9) 0.21312(9)
H1 H 0.8813 0.6708 0.2238
C5 C 0.89161(7) 0.68151(9) 0.18376(9)
C6 C 0.91178(9) 0.69613(10) 0.16837(9)
H2 H 0.9101 0.6972 0.1489
C7 C 0.93416(10) 0.70901(11) 0.18129(12)
C8 C 0.85374(9) 0.64487(9) 0.18096(7)
H3 H 0.8613 0.6366 0.1970
C9 C 0.86654(7) 0.66874(9) 0.16971(9)
N1 N 0.91506(10) 0.68904(13) 0.25857(11)
C10 C 0.9279(2) 0.6665(3) 0.2714(2)
O3 O 0.9368(2) 0.6456(2) 0.2605(2)
O4 O 0.93125(16) 0.6719(2) 0.29856(13)
C11 C 0.9232(2) 0.7017(2) 0.30500(17)
H4 H 0.9106 0.7025 0.3210
H5 H 0.9398 0.7129 0.3090
C12 C 0.90896(15) 0.71168(18) 0.27898(15)
H6 H 0.9179 0.7292 0.2726
C13 C 0.87885(19) 0.7163(3) 0.2821(3)
H7 H 0.8720 0.7221 0.2635
C14 C 0.8618(2) 0.6913(3) 0.2902(3)
H8 H 0.8669 0.6755 0.2786
H9 H 0.8422 0.6954 0.2876
H10 H 0.8652 0.6868 0.3096
C15 C 0.8721(4) 0.7408(6) 0.3022(5)
H11 H 0.8521 0.7436 0.3029
H12 H 0.8810 0.7576 0.2955
H13 H 0.8790 0.7364 0.3207
O7 O 1.00268(9) 0.69561(9) 0.29806(14)
N3 N 1.00454(9) 0.66666(9) 0.34152(14)
C22 C 1.00454(9) 0.69546(9) 0.32302(14)
H24 H 1.0017 0.6715 0.2961
C23 C 1.00842(9) 0.67604(9) 0.37123(14)
H25 H 0.9942 0.6701 0.3846
H26 H 1.0148 0.6953 0.3740
C24 C 1.03427(9) 0.65122(9) 0.36265(14)
H27 H 1.0462 0.6482 0.3786
H28 H 1.0453 0.6581 0.3472
H29 H 1.0254 0.6338 0.3574
Zn1EC Zn 0.772193(6) 0.7722 0.000000(6)
Zn1PA Zn 0.7278 0.500000(6) 0.227807(6)
Zn1Y Zn 1.000000(6) 0.772193(6) 0.2278
Zn1J Zn 0.727807(6) 0.7278 0.000000(6)
Zn1MC Zn 0.7722 0.500000(6) 0.272193(6)
Zn1EB Zn 0.772193(6) 0.7278 0.500000(6)
Zn1FA Zn 0.727807(6) 0.7722 0.500000(6)
Zn1Q Zn 0.7278 1.000000(6) 0.272193(6)
Zn1LB Zn 0.7722 1.000000(6) 0.227807(6)
C1EC C 0.77786(9) 0.72495(10) 0.03864(7)
C1PA C 0.77505(10) 0.53864(7) 0.22214(9)
C1Y C 0.96136(7) 0.77786(9) 0.27505(10)
C1EB C 0.77786(9) 0.77505(10) 0.46136(7)
C1Q C 0.77505(10) 0.96136(7) 0.27786(9)
O1EC O 0.78903(7) 0.74700(6) 0.02950(7)
O1PA O 0.75300(6) 0.52950(7) 0.21097(7)
O1Y O 0.97050(7) 0.78903(7) 0.25300(6)
O1EB O 0.78903(7) 0.75300(6) 0.47050(7)
O1Q O 0.75300(6) 0.97050(7) 0.28903(7)
O1T O 1.02950(7) 0.75300(6) 0.28903(7)
O1HC O 0.74700(6) 0.78903(7) -0.02950(7)
O1CA O 0.71097(7) 0.47050(7) 0.25300(6)
O2EC O 0.75556(7) 0.71412(6) 0.03030(7)
O2PA O 0.78588(6) 0.53030(7) 0.24444(7)
O2Y O 0.96970(7) 0.75556(7) 0.28588(6)
O2EB O 0.75556(7) 0.78588(6) 0.46970(7)
O2Q O 0.78588(6) 0.96970(7) 0.25556(7)
O2SA O 1.03030(7) 0.71412(6) 0.24444(7)
O2J O 0.74444(7) 0.78588(6) 0.03030(7)
O2L O 0.78588(6) 0.74444(7) -0.03030(7)
O2MC O 0.71412(6) 0.53030(7) 0.25556(7)
O2XB O 0.75556(7) 0.46970(7) 0.21412(6)
C2EC C 0.79286(10) 0.71072(10) 0.06257(8)
C2PA C 0.78928(10) 0.56257(8) 0.20714(10)
C2Y C 0.93743(8) 0.79286(10) 0.28928(10)
C2EB C 0.79286(10) 0.78928(10) 0.43743(8)
C2Q C 0.78928(10) 0.93743(8) 0.29286(10)
C3EC C 0.80749(10) 0.72619(9) 0.08295(10)
C3PA C 0.77381(9) 0.58295(10) 0.19251(10)
C3Y C 0.91705(10) 0.80749(10) 0.27381(9)
C3EB C 0.80749(10) 0.77381(9) 0.41705(10)
C3Q C 0.77381(9) 0.91705(10) 0.30749(10)
C4EC C 0.81979(9) 0.71312(9) 0.10532(9)
C4PA C 0.78688(9) 0.60532(9) 0.18021(9)
C4Y C 0.89468(9) 0.81979(9) 0.28688(9)
C4EB C 0.81979(9) 0.78688(9) 0.39468(9)
C4Q C 0.78688(9) 0.89468(9) 0.31979(9)
H1EC H 0.8292 0.7238 0.1187
H1PA H 0.7762 0.6187 0.1708
H1Y H 0.8813 0.8292 0.2762
H1EB H 0.8292 0.7762 0.3813
H1Q H 0.7762 0.8813 0.3292
C5EC C 0.81849(9) 0.68376(9) 0.10839(7)
C5PA C 0.81624(9) 0.60839(7) 0.18151(9)
C5Y C 0.89161(7) 0.81849(9) 0.31624(9)
C5EB C 0.81849(9) 0.81624(9) 0.39161(7)
C5Q C 0.81624(9) 0.89161(7) 0.31849(9)
C6EC C 0.80387(10) 0.66837(9) 0.08822(9)
C6PA C 0.83163(9) 0.58822(9) 0.19613(10)
C6Y C 0.91178(9) 0.80387(10) 0.33163(9)
C6EB C 0.80387(10) 0.83163(9) 0.41178(9)
C6Q C 0.83163(9) 0.91178(9) 0.30387(10)
H2EC H 0.8028 0.6489 0.0899
H2PA H 0.8511 0.5899 0.1972
H2Y H 0.9101 0.8028 0.3511
H2EB H 0.8028 0.8511 0.4101
H2Q H 0.8511 0.9101 0.3028
C7EC C 0.79099(11) 0.68129(12) 0.06584(10)
C7PA C 0.81871(12) 0.56584(10) 0.20901(11)
C7Y C 0.93416(10) 0.79099(11) 0.31871(12)
C7EB C 0.79099(11) 0.81871(12) 0.43416(10)
C7Q C 0.81871(12) 0.93416(10) 0.29099(11)
C8EC C 0.85513(9) 0.68096(7) 0.14626(9)
C8PA C 0.81904(7) 0.64626(9) 0.14487(9)
C8Y C 0.85374(9) 0.85513(9) 0.31904(7)
C8EB C 0.85513(9) 0.81904(7) 0.35374(9)
C8Q C 0.81904(7) 0.85374(9) 0.35513(9)
H3EC H 0.8634 0.6970 0.1387
H3PA H 0.8030 0.6387 0.1366
H3Y H 0.8613 0.8634 0.3030
H3EB H 0.8634 0.8030 0.3613
H3Q H 0.8030 0.8613 0.3634
C9EC C 0.83126(9) 0.66971(9) 0.13346(7)
C9PA C 0.83029(9) 0.63346(7) 0.16874(9)
C9Y C 0.86654(7) 0.83126(9) 0.33029(9)
C9EB C 0.83126(9) 0.83029(9) 0.36654(7)
C9Q C 0.83029(9) 0.86654(7) 0.33126(9)
N1EC N 0.81096(13) 0.75857(11) 0.08494(10)
N1PA N 0.74143(11) 0.58494(10) 0.18904(13)
N1Y N 0.91506(10) 0.81096(13) 0.24143(11)
N1EB N 0.81096(13) 0.74143(11) 0.41506(10)
N1Q N 0.74143(11) 0.91506(10) 0.31096(13)
C10EC C 0.8335(3) 0.7714(2) 0.0721(2)
C10PA C 0.7286(2) 0.5721(2) 0.1665(3)
C10Y C 0.9279(2) 0.8335(3) 0.2286(2)
C10EB C 0.8335(3) 0.7286(2) 0.4279(2)
C10Q C 0.7286(2) 0.9279(2) 0.3335(3)
O3EC O 0.8544(2) 0.7605(2) 0.0632(2)
O3PA O 0.7395(2) 0.5632(2) 0.1456(2)
O3Y O 0.9368(2) 0.8544(2) 0.2395(2)
O3EB O 0.8544(2) 0.7395(2) 0.4368(2)
O3Q O 0.7395(2) 0.9368(2) 0.3544(2)
O4EC O 0.8281(2) 0.79856(13) 0.06875(16)
O4PA O 0.70144(13) 0.56875(16) 0.1719(2)
O4Y O 0.93125(16) 0.8281(2) 0.20144(13)
O4EB O 0.8281(2) 0.70144(13) 0.43125(16)
O4Q O 0.70144(13) 0.93125(16) 0.3281(2)
C11EC C 0.7983(2) 0.80500(17) 0.0768(2)
C11PA C 0.69500(17) 0.5768(2) 0.2017(2)
C11Y C 0.9232(2) 0.7983(2) 0.19500(17)
C11EB C 0.7983(2) 0.69500(17) 0.4232(2)
C11Q C 0.69500(17) 0.9232(2) 0.2983(2)
H4EC H 0.7975 0.8210 0.0894
H4PA H 0.6790 0.5894 0.2025
H4Y H 0.9106 0.7975 0.1790
H4EB H 0.7975 0.6790 0.4106
H4Q H 0.6790 0.9106 0.2975
H5EC H 0.7871 0.8090 0.0602
H5PA H 0.6910 0.5602 0.2129
H5Y H 0.9398 0.7871 0.1910
H5EB H 0.7871 0.6910 0.4398
H5Q H 0.6910 0.9398 0.2871
C12EC C 0.78832(18) 0.77898(15) 0.09104(15)
C12PA C 0.72102(15) 0.59104(15) 0.21168(18)
C12Y C 0.90896(15) 0.78832(18) 0.22102(15)
C12EB C 0.78832(18) 0.72102(15) 0.40896(15)
C12Q C 0.72102(15) 0.90896(15) 0.28832(18)
H6EC H 0.7708 0.7726 0.0821
H6PA H 0.7274 0.5821 0.2292
H6Y H 0.9179 0.7708 0.2274
H6EB H 0.7708 0.7274 0.4179
H6Q H 0.7274 0.9179 0.2708
C13EC C 0.7837(3) 0.7821(3) 0.12115(19)
C13PA C 0.7179(3) 0.62115(19) 0.2163(3)
C13Y C 0.87885(19) 0.7837(3) 0.2179(3)
C13EB C 0.7837(3) 0.7179(3) 0.37885(19)
C13Q C 0.7179(3) 0.87885(19) 0.2837(3)
H7EC H 0.7779 0.7635 0.1280
H7PA H 0.7365 0.6280 0.2221
H7Y H 0.8720 0.7779 0.2365
H7EB H 0.7779 0.7365 0.3720
H7Q H 0.7365 0.8720 0.2779
C14EC C 0.8087(3) 0.7902(3) 0.1382(2)
C14PA C 0.7098(3) 0.6382(2) 0.1913(3)
C14Y C 0.8618(2) 0.8087(3) 0.2098(3)
C14EB C 0.8087(3) 0.7098(3) 0.3618(2)
C14Q C 0.7098(3) 0.8618(2) 0.3087(3)
H8EC H 0.8245 0.7786 0.1331
H8PA H 0.7214 0.6331 0.1755
H8Y H 0.8669 0.8245 0.2214
H8EB H 0.8245 0.7214 0.3669
H8Q H 0.7214 0.8669 0.3245
H9EC H 0.8046 0.7876 0.1578
H9PA H 0.7124 0.6578 0.1954
H9Y H 0.8422 0.8046 0.2124
H9EB H 0.8046 0.7124 0.3422
H9Q H 0.7124 0.8422 0.3046
H10EC H 0.8132 0.8096 0.1348
H10PA H 0.6904 0.6348 0.1868
H10Y H 0.8652 0.8132 0.1904
H10EB H 0.8132 0.6904 0.3652
H10Q H 0.6904 0.8652 0.3132
C15EC C 0.7592(6) 0.8022(5) 0.1279(4)
C15PA C 0.6978(5) 0.6279(4) 0.2408(6)
C15Y C 0.8721(4) 0.7592(6) 0.1978(5)
C15EB C 0.7592(6) 0.6978(5) 0.3721(4)
C15Q C 0.6978(5) 0.8721(4) 0.2592(6)
H11EC H 0.7564 0.8029 0.1479
H11PA H 0.6971 0.6479 0.2436
H11Y H 0.8521 0.7564 0.1971
H11EB H 0.7564 0.6971 0.3521
H11Q H 0.6971 0.8521 0.2564
H12EC H 0.7424 0.7955 0.1190
H12PA H 0.7045 0.6190 0.2576
H12Y H 0.8810 0.7424 0.2045
H12EB H 0.7424 0.7045 0.3810
H12Q H 0.7045 0.8810 0.2424
H13EC H 0.7636 0.8207 0.1210
H13PA H 0.6793 0.6210 0.2364
H13Y H 0.8790 0.7636 0.1793
H13EB H 0.7636 0.6793 0.3790
H13Q H 0.6793 0.8790 0.2636
O7T O 0.99732(9) 0.70194(14) 0.30439(9)
O7EC O 0.80439(9) 0.79806(14) -0.00268(9)
O7HC O 0.79806(14) 0.80439(9) 0.00268(9)
O7PA O 0.70194(14) 0.49732(9) 0.19561(9)
O7CA O 0.69561(9) 0.50268(9) 0.20194(14)
N3T N 0.99546(9) 0.65848(14) 0.33334(9)
N3EC N 0.83334(9) 0.84152(14) -0.00454(9)
N3HC N 0.84152(14) 0.83334(9) 0.00454(9)
N3PA N 0.65848(14) 0.49546(9) 0.16666(9)
N3CA N 0.66666(9) 0.50454(9) 0.15848(14)
C22T C 0.99546(9) 0.67698(14) 0.30454(9)
C22EC C 0.80454(9) 0.82302(14) -0.00454(9)
C22HC C 0.82302(14) 0.80454(9) 0.00454(9)
C22PA C 0.67698(14) 0.49546(9) 0.19546(9)
C22CA C 0.69546(9) 0.50454(9) 0.17698(14)
H24T H 0.9983 0.7039 0.3285
H24EC H 0.8285 0.7961 -0.0017
H24HC H 0.7961 0.8285 0.0017
H24PA H 0.7039 0.4983 0.1715
H24CA H 0.6715 0.5017 0.2039
C23T C 0.99158(9) 0.62877(14) 0.32396(9)
C23EC C 0.82396(9) 0.87123(14) -0.00842(9)
C23HC C 0.87123(14) 0.82396(9) 0.00842(9)
C23PA C 0.62877(14) 0.49158(9) 0.17604(9)
C23CA C 0.67604(9) 0.50842(9) 0.12877(14)
H25T H 1.0058 0.6154 0.3299
H25EC H 0.8299 0.8846 0.0058
H25HC H 0.8846 0.8299 -0.0058
H25PA H 0.6154 0.5058 0.1701
H25CA H 0.6701 0.4942 0.1154
H26T H 0.9852 0.6260 0.3047
H26EC H 0.8047 0.8740 -0.0148
H26HC H 0.8740 0.8047 0.0148
H26PA H 0.6260 0.4852 0.1953
H26CA H 0.6953 0.5148 0.1260
C24T C 0.96573(9) 0.63735(14) 0.34878(9)
C24EC C 0.84878(9) 0.86265(14) -0.03427(9)
C24HC C 0.86265(14) 0.84878(9) 0.03427(9)
C24PA C 0.63735(14) 0.46573(9) 0.15122(9)
C24CA C 0.65122(9) 0.53427(9) 0.13735(14)
H27T H 0.9538 0.6214 0.3518
H27EC H 0.8518 0.8786 -0.0462
H27HC H 0.8786 0.8518 0.0462
H27PA H 0.6214 0.4538 0.1482
H27CA H 0.6482 0.5462 0.1214
H28T H 0.9547 0.6528 0.3419
H28EC H 0.8419 0.8472 -0.0453
H28HC H 0.8472 0.8419 0.0453
H28PA H 0.6528 0.4547 0.1581
H28CA H 0.6581 0.5453 0.1528
H29T H 0.9746 0.6426 0.3662
H29EC H 0.8662 0.8574 -0.0254
H29HC H 0.8574 0.8662 0.0254
H29PA H 0.6426 0.4746 0.1338
H29CA H 0.6338 0.5254 0.1426
loop_
_geom_bond_atom_site_label_1
_geom_bond_atom_site_label_2
_geom_bond_site_symmetry_1
_geom_bond_site_symmetry_2
Zn1 O1 1_555 1_555
C1 O1 1_555 1_555
O2 C1 1_555 1_555
C2 C1 1_555 1_555
C3 C2 1_555 1_555
C4 C3 1_555 1_555
H1 C4 1_555 1_555
C5 C4 1_555 1_555
C6 C5 1_555 1_555
H2 C6 1_555 1_555
C7 C2 1_555 1_555
C8 H3 1_555 1_555
C9 C5 1_555 1_555
N1 C3 1_555 1_555
C10 N1 1_555 1_555
O3 C10 1_555 1_555
O4 C10 1_555 1_555
C11 O4 1_555 1_555
H4 C11 1_555 1_555
H5 C11 1_555 1_555
C12 N1 1_555 1_555
H6 C12 1_555 1_555
C13 C12 1_555 1_555
H7 C13 1_555 1_555
C14 C13 1_555 1_555
H8 C14 1_555 1_555
H9 C14 1_555 1_555
H10 C14 1_555 1_555
C15 C13 1_555 1_555
H11 C15 1_555 1_555
H12 C15 1_555 1_555
H13 C15 1_555 1_555
O7 Zn1 1_555 1_555
N3 C22 1_555 1_555
C22 O7 1_555 1_555
H24 O7 1_555 1_555
C23 N3 1_555 1_555
H25 C23 1_555 1_555
H26 C23 1_555 1_555
C24 C23 1_555 1_555
H27 C24 1_555 1_555
H28 C24 1_555 1_555
H29 C24 1_555 1_555
Zn1EC O1EC 1_555 1_555
Zn1PA O1PA 1_555 1_555
Zn1Y O2 1_555 1_555
Zn1J O2EC 1_555 1_555
Zn1MC O2PA 1_555 1_555
Zn1EB O1EB 1_555 1_555
Zn1FA O2EB 1_555 1_555
Zn1Q O1Q 1_555 1_555
Zn1LB O2Q 1_555 1_555
C1EC O1EC 1_555 1_555
C1PA O1PA 1_555 1_555
C1Y O1Y 1_555 1_555
C1EB O1EB 1_555 1_555
C1Q O1Q 1_555 1_555
O1Y Zn1Y 1_555 1_555
O1T Zn1 1_555 1_555
O1HC Zn1EC 1_555 1_555
O1CA Zn1PA 1_555 1_555
O2EC C1EC 1_555 1_555
O2PA C1PA 1_555 1_555
O2Y Zn1 1_555 1_555
O2EB C1EB 1_555 1_555
O2Q C1Q 1_555 1_555
O2SA Zn1 1_555 1_555
O2J Zn1EC 1_555 1_555
O2L Zn1EC 1_555 1_555
O2MC Zn1PA 1_555 1_555
O2XB Zn1PA 1_555 1_555
C2EC C1EC 1_555 1_555
C2PA C1PA 1_555 1_555
C2Y C1Y 1_555 1_555
C2EB C1EB 1_555 1_555
C2Q C1Q 1_555 1_555
C3EC C2EC 1_555 1_555
C3PA C2PA 1_555 1_555
C3Y C2Y 1_555 1_555
C3EB C2EB 1_555 1_555
C3Q C2Q 1_555 1_555
C4EC C3EC 1_555 1_555
C4PA C3PA 1_555 1_555
C4Y C3Y 1_555 1_555
C4EB C3EB 1_555 1_555
C4Q C3Q 1_555 1_555
H1EC C4EC 1_555 1_555
H1PA C4PA 1_555 1_555
H1Y C4Y 1_555 1_555
H1EB C4EB 1_555 1_555
H1Q C4Q 1_555 1_555
C5EC C4EC 1_555 1_555
C5PA C4PA 1_555 1_555
C5Y C4Y 1_555 1_555
C5EB C4EB 1_555 1_555
C5Q C4Q 1_555 1_555
C6EC C5EC 1_555 1_555
C6PA C5PA 1_555 1_555
C6Y C5Y 1_555 1_555
C6EB C5EB 1_555 1_555
C6Q C5Q 1_555 1_555
H2EC C6EC 1_555 1_555
H2PA C6PA 1_555 1_555
H2Y C6Y 1_555 1_555
H2EB C6EB 1_555 1_555
H2Q C6Q 1_555 1_555
C7EC C2EC 1_555 1_555
C7PA C2PA 1_555 1_555
C7Y C2Y 1_555 1_555
C7EB C2EB 1_555 1_555
C7Q C2Q 1_555 1_555
C8EC C9 1_555 1_555
C8PA H3PA 1_555 1_555
C8Y H3Y 1_555 1_555
C8EB H3EB 1_555 1_555
C8Q H3Q 1_555 1_555
H3EC C8EC 1_555 1_555
C9EC C5EC 1_555 1_555
C9PA C8 1_555 1_555
C9Y C5Y 1_555 1_555
C9EB C5EB 1_555 1_555
C9Q C5Q 1_555 1_555
N1EC C3EC 1_555 1_555
N1PA C3PA 1_555 1_555
N1Y C3Y 1_555 1_555
N1EB C3EB 1_555 1_555
N1Q C3Q 1_555 1_555
C10EC N1EC 1_555 1_555
C10PA N1PA 1_555 1_555
C10Y N1Y 1_555 1_555
C10EB N1EB 1_555 1_555
C10Q N1Q 1_555 1_555
O3EC C10EC 1_555 1_555
O3PA C10PA 1_555 1_555
O3Y C10Y 1_555 1_555
O3EB C10EB 1_555 1_555
O3Q C10Q 1_555 1_555
O4EC C10EC 1_555 1_555
O4PA C10PA 1_555 1_555
O4Y C10Y 1_555 1_555
O4EB C10EB 1_555 1_555
O4Q C10Q 1_555 1_555
C11EC O4EC 1_555 1_555
C11PA O4PA 1_555 1_555
C11Y O4Y 1_555 1_555
C11EB O4EB 1_555 1_555
C11Q O4Q 1_555 1_555
H4EC C11EC 1_555 1_555
H4PA C11PA 1_555 1_555
H4Y C11Y 1_555 1_555
H4EB C11EB 1_555 1_555
H4Q C11Q 1_555 1_555
H5EC C11EC 1_555 1_555
H5PA C11PA 1_555 1_555
H5Y C11Y 1_555 1_555
H5EB C11EB 1_555 1_555
H5Q C11Q 1_555 1_555
C12EC N1EC 1_555 1_555
C12PA N1PA 1_555 1_555
C12Y N1Y 1_555 1_555
C12EB N1EB 1_555 1_555
C12Q N1Q 1_555 1_555
H6EC C12EC 1_555 1_555
H6PA C12PA 1_555 1_555
H6Y C12Y 1_555 1_555
H6EB C12EB 1_555 1_555
H6Q C12Q 1_555 1_555
C13EC C12EC 1_555 1_555
C13PA C12PA 1_555 1_555
C13Y C12Y 1_555 1_555
C13EB C12EB 1_555 1_555
C13Q C12Q 1_555 1_555
H7EC C13EC 1_555 1_555
H7PA C13PA 1_555 1_555
H7Y C13Y 1_555 1_555
H7EB C13EB 1_555 1_555
H7Q C13Q 1_555 1_555
C14EC C13EC 1_555 1_555
C14PA C13PA 1_555 1_555
C14Y C13Y 1_555 1_555
C14EB C13EB 1_555 1_555
C14Q C13Q 1_555 1_555
H8EC C14EC 1_555 1_555
H8PA C14PA 1_555 1_555
H8Y C14Y 1_555 1_555
H8EB C14EB 1_555 1_555
H8Q C14Q 1_555 1_555
H9EC C14EC 1_555 1_555
H9PA C14PA 1_555 1_555
H9Y C14Y 1_555 1_555
H9EB C14EB 1_555 1_555
H9Q C14Q 1_555 1_555
H10EC C14EC 1_555 1_555
H10PA C14PA 1_555 1_555
H10Y C14Y 1_555 1_555
H10EB C14EB 1_555 1_555
H10Q C14Q 1_555 1_555
C15EC C13EC 1_555 1_555
C15PA C13PA 1_555 1_555
C15Y C13Y 1_555 1_555
C15EB C13EB 1_555 1_555
C15Q C13Q 1_555 1_555
H11EC C15EC 1_555 1_555
H11PA C15PA 1_555 1_555
H11Y C15Y 1_555 1_555
H11EB C15EB 1_555 1_555
H11Q C15Q 1_555 1_555
H12EC C15EC 1_555 1_555
H12PA C15PA 1_555 1_555
H12Y C15Y 1_555 1_555
H12EB C15EB 1_555 1_555
H12Q C15Q 1_555 1_555
H13EC C15EC 1_555 1_555
H13PA C15PA 1_555 1_555
H13Y C15Y 1_555 1_555
H13EB C15EB 1_555 1_555
H13Q C15Q 1_555 1_555
O7T Zn1 1_555 1_555
O7EC Zn1EC 1_555 1_555
O7HC Zn1EC 1_555 1_555
O7PA Zn1PA 1_555 1_555
O7CA Zn1PA 1_555 1_555
N3T N3 1_555 1_555
N3EC N3HC 1_555 1_555
N3HC C22HC 1_555 1_555
N3PA N3CA 1_555 1_555
N3CA C22CA 1_555 1_555
C22T O7 1_555 1_555
C22EC O7EC 1_555 1_555
C22HC O7EC 1_555 1_555
C22PA O7PA 1_555 1_555
C22CA O7PA 1_555 1_555
H24T C22 1_555 1_555
H24EC O7EC 1_555 1_555
H24HC O7HC 1_555 1_555
H24PA O7PA 1_555 1_555
H24CA O7CA 1_555 1_555
C23T N3T 1_555 1_555
C23EC N3EC 1_555 1_555
C23HC N3HC 1_555 1_555
C23PA N3PA 1_555 1_555
C23CA N3CA 1_555 1_555
H25T C23T 1_555 1_555
H25EC C23EC 1_555 1_555
H25HC C23HC 1_555 1_555
H25PA C23PA 1_555 1_555
H25CA C23CA 1_555 1_555
H26T C23T 1_555 1_555
H26EC C23EC 1_555 1_555
H26HC C23HC 1_555 1_555
H26PA C23PA 1_555 1_555
H26CA C23CA 1_555 1_555
C24T C23T 1_555 1_555
C24EC C23EC 1_555 1_555
C24HC C23HC 1_555 1_555
C24PA C23PA 1_555 1_555
C24CA C23CA 1_555 1_555
H27T C24T 1_555 1_555
H27EC C24EC 1_555 1_555
H27HC C24HC 1_555 1_555
H27PA C24PA 1_555 1_555
H27CA C24CA 1_555 1_555
H28T C24T 1_555 1_555
H28EC C24EC 1_555 1_555
H28HC C24HC 1_555 1_555
H28PA C24PA 1_555 1_555
H28CA C24CA 1_555 1_555
H29T C24T 1_555 1_555
H29EC C24EC 1_555 1_555
H29HC C24HC 1_555 1_555
H29PA C24PA 1_555 1_555
H29CA C24CA 1_555 1_555
C6 C7 1_555 1_555
C8 C9 1_555 1_555
C11 C12 1_555 1_555
O7 O7T 1_555 1_555
C22 O7T 1_555 1_555
C22 C22T 1_555 1_555
H24 C22T 1_555 1_555
C1Y O2Y 1_555 1_555
C5PA C9PA 1_555 1_555
C6EC C7EC 1_555 1_555
C6PA C7PA 1_555 1_555
C6Y C7Y 1_555 1_555
C6EB C7EB 1_555 1_555
C6Q C7Q 1_555 1_555
C8EC C9EC 1_555 1_555
C8PA C9EC 1_555 1_555
C8PA C9PA 1_555 1_555
C8Y C9Y 1_555 1_555
C8Y C9Q 1_555 1_555
C8EB C9Y 1_555 1_555
C8EB C9EB 1_555 1_555
C8Q C9EB 1_555 1_555
C8Q C9Q 1_555 1_555
C11EC C12EC 1_555 1_555
C11PA C12PA 1_555 1_555
C11Y C12Y 1_555 1_555
C11EB C12EB 1_555 1_555
C11Q C12Q 1_555 1_555
O7T C22T 1_555 1_555
O7T H24T 1_555 1_555
O7EC O7HC 1_555 1_555
O7HC C22EC 1_555 1_555
O7HC C22HC 1_555 1_555
O7PA O7CA 1_555 1_555
O7CA C22PA 1_555 1_555
O7CA C22CA 1_555 1_555
N3T C22T 1_555 1_555
N3EC C22EC 1_555 1_555
N3PA C22PA 1_555 1_555
C22EC C22HC 1_555 1_555
C22EC H24HC 1_555 1_555
C22HC H24EC 1_555 1_555
C22PA C22CA 1_555 1_555
C22PA H24CA 1_555 1_555
C22CA H24PA 1_555 1_555

#END
