
#######################################################################
#
#                 Cambridge Crystallographic Data Centre
#                                CCDC 
#
#######################################################################
#
# If this CIF has been generated from an entry in the Cambridge 
# Structural Database, then it will include bibliographic, chemical, 
# crystal, experimental, refinement or atomic coordinate data resulting 
# from the CCDC's data processing and validation procedures.
#
#######################################################################

data_EMIFOW
_chemical_formula_moiety         '(C24 H40 In10 N8 S16 2-)n'
_symmetry_cell_setting           orthorhombic
_symmetry_space_group_name_H-M   'P b c a'
_symmetry_Int_Tables_number      61
_space_group_name_Hall           '-P 2ac 2ab'
loop_
_symmetry_equiv_pos_site_id
_symmetry_equiv_pos_as_xyz
1 x,y,z
2 1/2-x,-y,1/2+z
3 -x,1/2+y,1/2-z
4 1/2+x,1/2-y,-z
5 -x,-y,-z
6 1/2+x,y,1/2-z
7 x,1/2-y,1/2+z
8 1/2-x,1/2+y,z
_cell_length_a                   22.5121(6)
_cell_length_b                   22.6610(6)
_cell_length_c                   33.3409(10)
_cell_angle_alpha                90
_cell_angle_beta                 90
_cell_angle_gamma                90
_cell_volume                     17008.8
loop_
_atom_site_label
_atom_site_type_symbol
_atom_site_fract_x
_atom_site_fract_y
_atom_site_fract_z
_atom_site_U_iso_or_equiv
_atom_site_thermal_displace_type
In1 In -0.08639(5) 0.30102(5) 0.25550(4) 0.0498 Uani
In2 In -0.17794(5) 0.23196(5) 0.33533(3) 0.0411 Uani
In3 In -0.01599(5) 0.31012(5) 0.35687(4) 0.0463 Uani
In4 In -0.02379(5) 0.15883(5) 0.29199(3) 0.0461 Uani
In5 In -0.24730(5) 0.15495(6) 0.42251(4) 0.0507 Uani
In6 In -0.10794(5) 0.23307(5) 0.44854(3) 0.0456 Uani
In7 In 0.04184(5) 0.30150(6) 0.46103(4) 0.0531 Uani
In8 In -0.11473(5) 0.07841(5) 0.38281(3) 0.0441 Uani
In9 In 0.04437(5) 0.15772(5) 0.40710(4) 0.0467 Uani
In10 In 0.03172(6) 0.02362(6) 0.34507(4) 0.0552 Uani
S1 S -0.18898(19) 0.2887(2) 0.27467(14) 0.0550 Uani
S2 S -0.0232(2) 0.3646(2) 0.29535(14) 0.0637 Uani
S3 S -0.0358(2) 0.2137(2) 0.23043(13) 0.0593 Uani
S4 S -0.27447(18) 0.2097(2) 0.36252(14) 0.0583 Uani
S5 S -0.11752(18) 0.29033(19) 0.38451(13) 0.0460 Uani
S6 S 0.0418(2) 0.3674(2) 0.40371(15) 0.0697 Uani
S7 S -0.12550(18) 0.13698(18) 0.31970(12) 0.0437 Uani
S8 S 0.03558(18) 0.21470(19) 0.34316(13) 0.0473 Uani
S9 S 0.0305(2) 0.0695(2) 0.27939(14) 0.0633 Uani
S10 S -0.2050(2) 0.2144(2) 0.47541(14) 0.0647 Uani
S11 S -0.0512(2) 0.2898(2) 0.49613(14) 0.0587 Uani
S12 S -0.2102(2) 0.0565(2) 0.41134(14) 0.0603 Uani
S13 S -0.05716(19) 0.13689(19) 0.43366(13) 0.0473 Uani
S14 S 0.1027(2) 0.2141(2) 0.45404(15) 0.0623 Uani
S15 S -0.0645(2) -0.0130(2) 0.36723(14) 0.0607 Uani
S16 S 0.0955(2) 0.0660(2) 0.39586(15) 0.0663 Uani
N1 N -0.4061(6) 0.1525(6) 0.4937(5) 0.0590 Uani
N2 N -0.3317(6) 0.1379(7) 0.4512(4) 0.0557 Uani
N3 N -0.0979(7) 0.3617(6) 0.2052(4) 0.0580 Uani
N4 N -0.0787(6) 0.4423(6) 0.1703(4) 0.0570 Uani
C1 C -0.3710(12) 0.0921(12) 0.4490(8) 0.1500 Uani
H1 H -0.3671 0.0593 0.4314 0.1820 Uiso
C2 C -0.1467(9) 0.3758(9) 0.1848(6) 0.0837 Uani
H2 H -0.1830 0.3543 0.1849 0.1000 Uiso
C3 C -0.4171(12) 0.0997(12) 0.4759(8) 0.1500 Uani
H3 H -0.4494 0.0738 0.4809 0.1810 Uiso
C4 C -0.3563(7) 0.1727(8) 0.4771(6) 0.0523 Uani
H4 H -0.3400 0.2100 0.4838 0.0630 Uiso
C5 C -0.1358(9) 0.4257(10) 0.1639(7) 0.0913 Uani
H5 H -0.1636 0.4459 0.1475 0.1100 Uiso
C6 C -0.0593(8) 0.4035(9) 0.1964(5) 0.0647 Uani
H6 H -0.0208 0.4054 0.2080 0.0780 Uiso
In7C In -0.45816(5) 0.19850(6) 0.53897(4) 0.0531 Uani
In10B In -0.03172(6) 0.52362(6) 0.15493(4) 0.0552 Uani
N1C N 0.0939(6) 0.3475(6) 0.5063(5) 0.0590 Uani
N4B N 0.0787(6) -0.0577(6) 0.3297(4) 0.0570 Uani
N5 N -0.1432(15) 0.8879(15) 0.2267(11) 0.1880 Uiso
N6 N -0.1180(19) 0.951(2) 0.2718(13) 0.2480 Uiso
C7 C -0.183(3) 0.844(3) 0.2111(16) 0.2600 Uiso
C8 C -0.1476(17) 0.7921(18) 0.2208(12) 0.1760 Uiso
C9 C -0.1377(16) 0.7702(16) 0.2645(12) 0.1740 Uiso
C10 C -0.1145(18) 0.813(2) 0.2924(13) 0.1900 Uiso
C11 C -0.149(2) 0.858(2) 0.3055(15) 0.2290 Uiso
C12 C -0.133(2) 0.899(3) 0.2708(18) 0.2200 Uiso
C13 C -0.1124(17) 1.0017(19) 0.2496(14) 0.1750 Uiso
C14 C -0.104(2) 0.994(3) 0.2088(19) 0.2700 Uiso
C15 C -0.1456(17) 0.9283(18) 0.1885(12) 0.1820 Uiso
N7 N -0.408(2) 0.186(3) 0.9293(17) 0.3100 Uiso
N8 N -0.3797(18) 0.0867(17) 0.9674(11) 0.2360 Uiso
C16 C -0.439(2) 0.232(2) 0.9089(15) 0.2300 Uiso
C17 C -0.4859(17) 0.1992(16) 0.8838(11) 0.1720 Uiso
C18 C -0.5456(18) 0.1720(18) 0.9070(12) 0.1900 Uiso
C19 C -0.5303(18) 0.1235(19) 0.9395(13) 0.1990 Uiso
C20 C -0.4779(15) 0.1287(13) 0.9654(9) 0.1370 Uiso
C21 C -0.4176(16) 0.1391(17) 0.9544(11) 0.1540 Uiso
C22 C -0.308(4) 0.093(3) 0.974(2) 0.3900 Uiso
C23 C -0.293(2) 0.138(2) 0.9286(16) 0.2500 Uiso
C24 C -0.3413(19) 0.1845(18) 0.9128(12) 0.1860 Uiso
loop_
_atom_site_aniso_label
_atom_site_aniso_U_11
_atom_site_aniso_U_22
_atom_site_aniso_U_33
_atom_site_aniso_U_23
_atom_site_aniso_U_13
_atom_site_aniso_U_12
In1 0.0482 0.0546 0.0466 0.0132 -0.0051 -0.0109
In2 0.0355 0.0468 0.0409 0.0009 0.0005 -0.0035
In3 0.0435 0.049 0.0463 0.005 -0.0084 -0.0078
In4 0.0467 0.0536 0.0379 0.0012 0.0063 0.0038
In5 0.0426 0.0636 0.046 -0.0057 0.0132 -0.006
In6 0.0433 0.0527 0.0407 -0.0074 0.0012 -0.0002
In7 0.0507 0.0574 0.0512 -0.004 -0.0167 -0.0015
In8 0.0503 0.0405 0.0414 -0.0015 0.0085 -0.0002
In9 0.0457 0.0497 0.0448 -0.0018 -0.0025 0.0059
In10 0.0653 0.0506 0.0498 -0.0081 0.0042 0.0176
S1 0.046 0.064 0.055 0.017 -0.008 -0.005
S2 0.068 0.064 0.059 0.018 -0.019 -0.023
S3 0.061 0.076 0.041 0.01 0.004 0.002
S4 0.036 0.079 0.06 0.006 0.007 -0.006
S5 0.044 0.049 0.045 -0.003 -0.002 0.001
S6 0.078 0.064 0.067 0.005 -0.027 -0.026
S7 0.045 0.046 0.04 -0.001 0.005 -0.002
S8 0.043 0.054 0.045 0.005 0 -0.001
S9 0.072 0.07 0.048 -0.006 0.013 0.02
S10 0.057 0.087 0.05 -0.024 0.014 -0.016
S11 0.057 0.072 0.047 -0.017 -0.008 -0.004
S12 0.059 0.055 0.067 0 0.021 -0.011
S13 0.051 0.048 0.043 -0.001 0 0.004
S14 0.052 0.068 0.067 -0.008 -0.019 0.006
S15 0.077 0.045 0.06 -0.003 0.007 0.011
S16 0.066 0.066 0.067 -0.014 -0.015 0.024
N1 0.052 0.048 0.077 -0.01 0.024 -0.006
N2 0.046 0.068 0.053 -0.021 0.013 -0.005
N3 0.057 0.068 0.049 0.031 -0.008 -0.021
N4 0.064 0.055 0.052 0.018 -0.01 -0.025
C1 0.15 0.14 0.16 -0.12 0.12 -0.1
C2 0.056 0.091 0.104 0.056 -0.025 -0.038
C3 0.15 0.13 0.17 -0.11 0.12 -0.08
C4 0.042 0.045 0.07 -0.008 0.003 -0.002
C5 0.068 0.09 0.116 0.053 -0.037 -0.031
C6 0.058 0.082 0.054 0.036 -0.015 -0.023
In7C 0.0507 0.0574 0.0512 -0.004 0.0167 0.0015
In10B 0.0653 0.0506 0.0498 0.0081 0.0042 -0.0176
N1C 0.052 0.048 0.077 -0.01 -0.024 0.006
N4B 0.064 0.055 0.052 -0.018 -0.01 0.025
loop_
_geom_bond_atom_site_label_1
_geom_bond_atom_site_label_2
_geom_bond_site_symmetry_1
_geom_bond_site_symmetry_2
In1 S1 1_555 1_555
In2 S1 1_555 1_555
In3 S2 1_555 1_555
In4 S3 1_555 1_555
In5 S4 1_555 1_555
In6 S5 1_555 1_555
In7 S6 1_555 1_555
In8 S7 1_555 1_555
In9 S8 1_555 1_555
In10 S9 1_555 1_555
S2 In1 1_555 1_555
S3 In1 1_555 1_555
S4 In2 1_555 1_555
S5 In2 1_555 1_555
S6 In3 1_555 1_555
S7 In2 1_555 1_555
S8 In3 1_555 1_555
S9 In4 1_555 1_555
S10 In5 1_555 1_555
S11 In6 1_555 1_555
S12 In5 1_555 1_555
S13 In6 1_555 1_555
S14 In7 1_555 1_555
S15 In8 1_555 1_555
S16 In9 1_555 1_555
N1 C3 1_555 1_555
N2 In5 1_555 1_555
N3 In1 1_555 1_555
N4 C5 1_555 1_555
N5 C7 1_555 1_555
N6 C12 1_555 1_555
N7 C16 1_555 1_555
N8 C21 1_555 1_555
C1 N2 1_555 1_555
H1 C1 1_555 1_555
C2 N3 1_555 1_555
H2 C2 1_555 1_555
C3 C1 1_555 1_555
H3 C3 1_555 1_555
C4 N1 1_555 1_555
H4 C4 1_555 1_555
C5 C2 1_555 1_555
H5 C5 1_555 1_555
C6 N3 1_555 1_555
H6 C6 1_555 1_555
C7 C8 1_555 1_555
C8 C9 1_555 1_555
C9 C10 1_555 1_555
C10 C11 1_555 1_555
C11 C12 1_555 1_555
C12 N5 1_555 1_555
C13 N6 1_555 1_555
C14 C13 1_555 1_555
C15 N5 1_555 1_555
C16 C17 1_555 1_555
C17 C18 1_555 1_555
C18 C19 1_555 1_555
C19 C20 1_555 1_555
C20 C21 1_555 1_555
C21 N7 1_555 1_555
C22 N8 1_555 1_555
C23 C22 1_555 1_555
C24 N7 1_555 1_555
In7C N1 1_555 1_555
In10B N4 1_555 1_555
N1C In7 1_555 1_555
N4B In10 1_555 1_555
In3 S5 1_555 1_555
In4 S7 1_555 1_555
In4 S8 1_555 1_555
In6 S10 1_555 1_555
In7 S11 1_555 1_555
In8 S12 1_555 1_555
In8 S13 1_555 1_555
In9 S13 1_555 1_555
In9 S14 1_555 1_555
In10 S15 1_555 1_555
In10 S16 1_555 1_555
N2 C4 1_555 1_555
N4 C6 1_555 1_555
C14 C15 1_555 1_555
C23 C24 1_555 1_555

#END
