
#######################################################################
#
#                 Cambridge Crystallographic Data Centre
#                                CCDC 
#
#######################################################################
#
# If this CIF has been generated from an entry in the Cambridge 
# Structural Database, then it will include bibliographic, chemical, 
# crystal, experimental, refinement or atomic coordinate data resulting 
# from the CCDC's data processing and validation procedures.
#
#######################################################################

data_EMIGOX
_chemical_formula_moiety         '(C58 H20 In20 N11 S32 8-)n'
_symmetry_cell_setting           orthorhombic
_symmetry_space_group_name_H-M   'P 21 21 21'
_symmetry_Int_Tables_number      19
_space_group_name_Hall           'P 2ac 2ab'
loop_
_symmetry_equiv_pos_site_id
_symmetry_equiv_pos_as_xyz
1 x,y,z
2 1/2-x,-y,1/2+z
3 -x,1/2+y,1/2-z
4 1/2+x,1/2-y,-z
_cell_length_a                   21.2772(10)
_cell_length_b                   21.4180(10)
_cell_length_c                   36.0100(17)
_cell_angle_alpha                90
_cell_angle_beta                 90
_cell_angle_gamma                90
_cell_volume                     16410.3
loop_
_atom_site_label
_atom_site_type_symbol
_atom_site_fract_x
_atom_site_fract_y
_atom_site_fract_z
_atom_site_U_iso_or_equiv
_atom_site_thermal_displace_type
In11 In 0.90422(6) 0.43969(7) 0.82318(4) 0.0325 Uani
In12 In 0.89403(6) 0.30634(6) 0.88892(3) 0.0270 Uani
In13 In 1.04847(6) 0.42049(6) 0.88354(4) 0.0286 Uani
In14 In 1.00585(6) 0.30576(7) 0.79535(4) 0.0329 Uani
In15 In 0.90435(6) 0.16689(6) 0.94985(4) 0.0291 Uani
In16 In 1.04725(6) 0.26817(6) 0.95298(3) 0.0281 Uani
In17 In 1.00502(6) 0.15434(6) 0.86565(4) 0.0287 Uani
In18 In 1.18308(6) 0.37657(6) 0.94148(4) 0.0343 Uani
In19 In 1.15837(6) 0.27003(6) 0.85975(4) 0.0307 Uani
In20 In 1.11051(7) 0.16593(7) 0.78272(4) 0.0396 Uani
S17 S 0.8276(2) 0.3856(2) 0.86055(13) 0.0347 Uani
S18 S 0.9822(2) 0.5002(2) 0.85663(15) 0.0393 Uani
S19 S 0.9415(3) 0.3863(3) 0.76773(13) 0.0393 Uani
S20 S 0.8304(2) 0.2467(2) 0.93110(14) 0.0343 Uani
S21 S 0.9822(2) 0.3543(2) 0.92546(12) 0.0263 Uani
S22 S 0.9399(2) 0.2409(2) 0.83806(13) 0.0307 Uani
S23 S 1.1326(2) 0.4691(2) 0.91755(16) 0.0377 Uani
S24 S 1.0924(2) 0.3549(2) 0.83181(13) 0.0297 Uani
S25 S 1.0479(3) 0.2397(4) 0.74682(17) 0.0620 Uani
S26 S 0.9858(2) 0.2010(3) 0.99240(14) 0.0393 Uani
S27 S 0.9372(2) 0.0919(2) 0.90423(15) 0.0363 Uani
S28 S 1.1289(2) 0.3171(3) 0.98882(15) 0.0423 Uani
S29 S 1.0927(2) 0.2036(2) 0.90195(13) 0.0263 Uani
S30 S 1.0516(3) 0.0904(3) 0.81830(18) 0.0530 Uani
S31 S 1.2408(2) 0.3169(3) 0.89591(18) 0.0493 Uani
S32 S 1.2039(2) 0.2083(3) 0.81088(17) 0.0443 Uani
N5 N 0.8540(8) 0.5176(8) 0.7968(4) 0.0373 Uani
N6 N 0.8526(8) 0.6030(8) 0.7607(5) 0.0370 Uani
N7 N 0.8436(7) 0.1109(7) 0.9853(4) 0.0270 Uani
N8 N 0.7616(7) 0.0925(7) 1.0230(4) 0.0303 Uani
C15 C 0.8818(9) 0.5536(10) 0.7718(6) 0.0423 Uani
H11 H 0.9221 0.5434 0.7623 0.0510 Uiso
C16 C 0.7986(9) 0.5487(9) 0.8030(5) 0.0307 Uani
C17 C 0.7510(9) 0.5352(12) 0.8289(5) 0.0457 Uani
H12 H 0.7533 0.5007 0.8454 0.0550 Uiso
C18 C 0.6986(10) 0.5775(13) 0.8284(6) 0.0563 Uani
H13 H 0.6628 0.5680 0.8430 0.0690 Uiso
C19 C 0.6983(12) 0.6330(13) 0.8068(9) 0.0720 Uani
H14 H 0.6673 0.6645 0.8101 0.0870 Uiso
C20 C 0.7453(11) 0.6385(11) 0.7811(6) 0.0523 Uani
H15 H 0.7417 0.6702 0.7628 0.0630 Uiso
C21 C 0.7949(9) 0.6024(9) 0.7802(5) 0.0357 Uani
C22 C 0.7880(9) 0.1301(10) 0.9984(6) 0.0437 Uani
H16 H 0.7689 0.1680 0.9906 0.0530 Uiso
C23 C 0.8586(10) 0.0597(10) 1.0072(6) 0.0407 Uani
C24 C 0.9088(9) 0.0218(9) 1.0056(7) 0.0493 Uani
H17 H 0.9413 0.0279 0.9879 0.0590 Uiso
C25 C 0.9110(11) -0.0273(11) 1.0315(9) 0.0700 Uani
H18 H 0.9471 -0.0533 1.0328 0.0830 Uiso
C26 C 0.8610(12) -0.0378(13) 1.0547(9) 0.0743 Uani
H19 H 0.8631 -0.0714 1.0719 0.0870 Uiso
C27 C 0.8079(10) -0.0013(10) 1.0540(8) 0.0587 Uani
H20 H 0.7734 -0.0100 1.0700 0.0710 Uiso
C28 C 0.8062(9) 0.0478(8) 1.0298(7) 0.0417 Uani
In18C In 0.68308(6) 0.12343(6) 1.05852(4) 0.0343 Uani
In20B In 0.88949(7) 0.66593(7) 0.71728(4) 0.0396 Uani
N6B N 1.1474(8) 0.1030(8) 0.7393(5) 0.0370 Uani
N8C N 1.2616(7) 0.4075(7) 0.9770(4) 0.0303 Uani
N9 N 0.7843(17) 0.5529(16) 0.2205(9) 0.1160 Uiso
C29 C 0.7202(19) 0.5634(18) 0.2107(11) 0.1020 Uiso
C30 C 0.717(3) 0.529(3) 0.1796(16) 0.1600 Uiso
C31 C 0.738(2) 0.465(2) 0.1649(14) 0.1420 Uiso
C32 C 0.8085(15) 0.4698(15) 0.1863(9) 0.0760 Uiso
C33 C 0.857(3) 0.420(4) 0.1836(19) 0.2000 Uiso
C34 C 0.863(3) 0.369(3) 0.2029(17) 0.1700 Uiso
C35 C 0.919(2) 0.393(2) 0.2237(13) 0.1350 Uiso
C36 C 0.908(3) 0.460(3) 0.2403(15) 0.1570 Uiso
C37 C 0.889(3) 0.528(3) 0.2432(18) 0.2200 Uiso
C38 C 0.8190(17) 0.5090(17) 0.2117(10) 0.0890 Uiso
N11 N 0.0351(9) 0.5500(9) 1.0001(5) 0.0530 Uiso
C48 C 0.0488(15) 0.4887(15) 1.0153(9) 0.0760 Uiso
C49 C 0.1124(17) 0.4890(17) 1.0410(10) 0.0950 Uiso
C50 C 0.1598(14) 0.5241(14) 1.0199(8) 0.0730 Uiso
C51 C 0.1407(10) 0.5867(11) 1.0009(6) 0.0450 Uiso
C52 C 0.1903(15) 0.6271(15) 0.9949(9) 0.0790 Uiso
C53 C 0.1948(15) 0.6461(15) 0.9509(9) 0.0810 Uiso
C54 C 0.1457(17) 0.6892(17) 0.9413(10) 0.0950 Uiso
C55 C 0.0770(14) 0.6678(14) 0.9404(8) 0.0750 Uiso
C56 C 0.0591(11) 0.6533(11) 0.9814(7) 0.0510 Uiso
C57 C 0.0799(10) 0.5941(10) 0.9942(6) 0.0450 Uiso
N12 N 0.8519(18) 0.9422(16) 0.8832(8) 0.1243 Uani
C58 C 0.8253(13) 0.9535(13) 0.9222(7) 0.0620 Uiso
C59 C 0.8431(13) 0.8939(13) 0.9496(8) 0.0710 Uiso
C60 C 0.9116(9) 0.8864(9) 0.9461(6) 0.0390 Uiso
C61 C 0.9478(11) 0.9089(11) 0.9175(6) 0.0480 Uiso
C62 C 1.0177(14) 0.8982(14) 0.9223(8) 0.0690 Uiso
C63 C 1.0498(13) 0.8500(13) 0.8954(8) 0.0690 Uiso
C64 C 1.061(2) 0.878(2) 0.8557(13) 0.1410 Uiso
C65 C 0.9995(17) 0.9011(16) 0.8377(10) 0.0890 Uiso
C66 C 0.9678(14) 0.9537(14) 0.8549(8) 0.0740 Uiso
C67 C 0.9237(9) 0.9324(9) 0.8863(6) 0.0370 Uiso
In1 In 0.07272(6) 0.83738(6) 0.05048(3) 0.0277 Uani
In2 In 0.08748(5) 0.68969(6) 0.10546(3) 0.0248 Uani
In3 In -0.07650(6) 0.74481(6) 0.05273(3) 0.0269 Uani
In4 In -0.01041(6) 0.84376(6) 0.14101(3) 0.0267 Uani
In5 In 0.07936(6) 0.54804(6) 0.16271(4) 0.0291 Uani
In6 In -0.07088(6) 0.58353(6) 0.11342(3) 0.0252 Uani
In7 In -0.00943(6) 0.68347(6) 0.20300(3) 0.0277 Uani
In8 In -0.21710(6) 0.64229(6) 0.06845(4) 0.0315 Uani
In9 In -0.17161(6) 0.73661(6) 0.15038(4) 0.0278 Uani
In10 In -0.10281(6) 0.82493(6) 0.22940(4) 0.0331 Uani
S1 S 0.1466(2) 0.7537(2) 0.06327(13) 0.0307 Uani
S2 S -0.0142(2) 0.8066(2) 0.01076(13) 0.0327 Uani
S3 S 0.0499(2) 0.9097(2) 0.10009(13) 0.0330 Uani
S4 S 0.1527(2) 0.6028(2) 0.12320(14) 0.0330 Uani
S5 S -0.0094(2) 0.6537(2) 0.07198(12) 0.0259 Uani
S6 S 0.0551(2) 0.7519(2) 0.16130(12) 0.0263 Uani
S7 S -0.1681(2) 0.7067(3) 0.02044(14) 0.0403 Uani
S8 S -0.1081(2) 0.8057(2) 0.10853(12) 0.0260 Uani
S9 S -0.0431(3) 0.9019(3) 0.19486(15) 0.0457 Uani
S10 S -0.0057(2) 0.4964(2) 0.13042(14) 0.0340 Uani
S11 S 0.0533(3) 0.5959(3) 0.22215(13) 0.0393 Uani
S12 S -0.1616(2) 0.5449(2) 0.08049(14) 0.0343 Uani
S13 S -0.1051(2) 0.6457(2) 0.16851(11) 0.0246 Uani
S14 S -0.0436(3) 0.7401(3) 0.25701(13) 0.0423 Uani
S15 S -0.2639(2) 0.6949(3) 0.12033(15) 0.0393 Uani
S16 S -0.2041(2) 0.7943(3) 0.20448(15) 0.0417 Uani
N1 N 0.1305(7) 0.8872(7) 0.0106(4) 0.0283 Uani
N2 N 0.2022(7) 0.8901(8) -0.0367(5) 0.0357 Uani
N3 N 0.1270(8) 0.4663(7) 0.1849(4) 0.0370 Uani
N4 N 0.1305(8) 0.3836(7) 0.2236(5) 0.0380 Uani
C1 C 0.1789(9) 0.8584(8) -0.0078(5) 0.0323 Uani
H1 H 0.1947 0.8188 -0.0005 0.0390 Uiso
C2 C 0.1224(8) 0.9431(7) -0.0104(5) 0.0237 Uani
C3 C 0.0784(9) 0.9902(10) -0.0056(7) 0.0520 Uani
H2 H 0.0468 0.9872 0.0129 0.0620 Uiso
C4 C 0.0818(12) 1.0409(11) -0.0284(6) 0.0547 Uani
H3 H 0.0559 1.0762 -0.0237 0.0660 Uiso
C5 C 0.1239(14) 1.0414(13) -0.0591(8) 0.0697 Uani
H4 H 0.1224 1.0748 -0.0764 0.0840 Uiso
C6 C 0.1673(11) 0.9931(12) -0.0641(7) 0.0550 Uani
H5 H 0.1952 0.9928 -0.0847 0.0660 Uiso
C7 C 0.1683(8) 0.9450(8) -0.0376(5) 0.0287 Uani
C8 C 0.1042(9) 0.4384(9) 0.2166(5) 0.0357 Uani
H6 H 0.0728 0.4566 0.2319 0.0430 Uiso
C9 C 0.1707(11) 0.3736(10) 0.1944(7) 0.0567 Uani
C10 C 0.2141(13) 0.3218(11) 0.1859(7) 0.0660 Uani
H7 H 0.2172 0.2858 0.2012 0.0780 Uiso
C11 C 0.2494(17) 0.3293(19) 0.1546(10) 0.1010 Uiso
H8 H 0.2747 0.2955 0.1464 0.1210 Uiso
C12 C 0.250(2) 0.382(2) 0.1349(12) 0.1150 Uiso
H9 H 0.2811 0.3872 0.1164 0.1380 Uiso
C13 C 0.2078(13) 0.4298(10) 0.1400(7) 0.0620 Uani
H10 H 0.2057 0.4651 0.1240 0.0760 Uiso
C14 C 0.1696(11) 0.4224(12) 0.1694(6) 0.0533 Uani
In8C In 0.28290(6) 0.85771(6) -0.06845(4) 0.0315 Uani
In10B In 0.10281(6) 0.32493(6) 0.27060(4) 0.0331 Uani
N2C N -0.2978(7) 0.6099(8) 0.0367(5) 0.0357 Uani
N4B N -0.1305(8) 0.8836(7) 0.2764(5) 0.0380 Uani
loop_
_atom_site_aniso_label
_atom_site_aniso_U_11
_atom_site_aniso_U_22
_atom_site_aniso_U_33
_atom_site_aniso_U_23
_atom_site_aniso_U_13
_atom_site_aniso_U_12
In11 0.0310(7) 0.0394(8) 0.0271(7) 0.0066(6) 0.0017(5) 0.0026(6)
In12 0.0253(6) 0.0302(6) 0.0254(6) 0.0014(6) 0.0006(5) 0.0000(5)
In13 0.0282(6) 0.0285(7) 0.0292(7) -0.0014(6) -0.0031(5) -0.0026(5)
In14 0.0339(7) 0.0351(7) 0.0297(7) -0.0043(6) 0.0021(6) 0.0008(6)
In15 0.0270(6) 0.0317(7) 0.0286(7) 0.0004(6) 0.0056(5) -0.0003(5)
In16 0.0315(6) 0.0285(6) 0.0243(6) 0.0011(6) -0.0026(5) -0.0049(5)
In17 0.0293(6) 0.0281(6) 0.0286(6) -0.0067(6) 0.0063(5) -0.0031(5)
In18 0.0321(7) 0.0329(7) 0.0380(8) -0.0019(6) -0.0128(6) -0.0071(6)
In19 0.0282(6) 0.0279(7) 0.0361(7) -0.0047(6) 0.0053(5) -0.0010(5)
In20 0.0392(7) 0.0361(8) 0.0435(8) -0.0134(7) 0.0172(6) -0.0060(6)
S17 0.031(2) 0.046(3) 0.027(2) 0.005(2) 0.0007(19) 0.001(2)
S18 0.040(3) 0.037(3) 0.041(3) 0.007(2) -0.008(2) -0.004(2)
S19 0.052(3) 0.044(3) 0.022(2) 0.004(2) 0.006(2) 0.007(2)
S20 0.028(2) 0.036(3) 0.039(3) 0.004(2) 0.006(2) 0.0016(19)
S21 0.028(2) 0.027(2) 0.024(2) -0.0022(19) -0.0051(17) 0.0012(18)
S22 0.029(2) 0.035(2) 0.028(2) -0.010(2) 0.0025(18) -0.0034(19)
S23 0.034(2) 0.027(2) 0.052(3) 0.003(2) -0.014(2) -0.003(2)
S24 0.030(2) 0.026(2) 0.033(2) -0.003(2) 0.0015(19) -0.0055(18)
S25 0.066(4) 0.075(5) 0.045(3) -0.021(3) -0.006(3) 0.029(4)
S26 0.035(2) 0.051(3) 0.032(3) 0.004(2) 0.000(2) -0.006(2)
S27 0.035(2) 0.028(2) 0.046(3) -0.009(2) 0.015(2) -0.005(2)
S28 0.042(3) 0.048(3) 0.037(3) 0.007(3) -0.018(2) -0.012(2)
S29 0.024(2) 0.024(2) 0.031(2) -0.0011(19) -0.0041(18) 0.0011(17)
S30 0.065(4) 0.033(3) 0.061(4) -0.023(3) 0.041(3) -0.018(3)
S31 0.027(2) 0.055(3) 0.066(4) -0.011(3) -0.005(2) -0.005(2)
S32 0.034(3) 0.045(3) 0.054(3) -0.013(3) 0.015(2) 0.002(2)
N5 0.038(9) 0.046(10) 0.028(8) 0.017(8) 0.022(7) 0.010(8)
N6 0.037(9) 0.039(9) 0.035(9) 0.015(8) -0.002(7) 0.010(7)
N7 0.026(7) 0.030(8) 0.025(8) 0.012(7) -0.001(6) 0.007(6)
N8 0.037(8) 0.023(8) 0.031(8) 0.012(7) 0.021(7) 0.004(6)
C15 0.031(10) 0.047(12) 0.049(13) 0.007(11) 0.003(9) 0.015(9)
C16 0.033(9) 0.038(10) 0.021(9) 0.008(8) 0.008(7) 0.001(8)
C17 0.033(10) 0.082(17) 0.022(10) 0.018(11) 0.015(8) 0.006(11)
C18 0.034(11) 0.09(2) 0.045(13) 0.014(14) 0.008(10) 0.025(12)
C19 0.042(13) 0.064(17) 0.11(2) 0.031(17) 0.012(14) 0.016(12)
C20 0.067(15) 0.060(15) 0.030(11) 0.026(11) 0.011(11) 0.025(12)
C21 0.041(11) 0.033(10) 0.033(11) -0.002(9) 0.006(9) -0.004(9)
C22 0.033(10) 0.040(12) 0.058(14) -0.022(11) 0.002(10) 0.023(9)
C23 0.046(12) 0.035(11) 0.041(12) -0.002(10) 0.016(10) -0.004(9)
C24 0.027(10) 0.034(11) 0.087(17) 0.023(11) 0.035(11) 0.016(8)
C25 0.039(12) 0.041(13) 0.13(3) 0.044(15) 0.007(14) 0.015(10)
C26 0.054(15) 0.069(18) 0.10(2) 0.050(17) 0.010(15) 0.020(13)
C27 0.043(12) 0.044(13) 0.089(19) 0.029(13) 0.042(13) 0.009(10)
C28 0.036(10) 0.011(8) 0.078(16) -0.010(9) 0.027(10) 0.005(7)
In18C 0.0321 0.0329 0.038 -0.0019 0.0128 0.0071
In20B 0.0392 0.0361 0.0435 0.0134 0.0172 0.006
N6B 0.037 0.039 0.035 -0.015 -0.002 -0.01
N8C 0.037 0.023 0.031 0.012 -0.021 -0.004
N12 0.17(3) 0.13(3) 0.073(19) -0.019(19) -0.04(2) 0.06(3)
In1 0.0321(6) 0.0253(6) 0.0256(6) 0.0046(5) 0.0051(5) -0.0013(5)
In2 0.0262(6) 0.0245(6) 0.0236(6) 0.0060(5) 0.0017(5) -0.0002(5)
In3 0.0308(6) 0.0257(6) 0.0242(6) 0.0057(5) -0.0055(5) -0.0052(5)
In4 0.0297(6) 0.0250(6) 0.0255(6) -0.0027(5) 0.0036(5) -0.0029(5)
In5 0.0321(6) 0.0280(6) 0.0272(6) 0.0091(6) 0.0023(5) 0.0040(5)
In6 0.0283(6) 0.0222(6) 0.0252(6) 0.0025(5) -0.0032(5) -0.0019(5)
In7 0.0328(6) 0.0299(7) 0.0205(6) -0.0007(5) -0.0007(5) 0.0002(5)
In8 0.0317(7) 0.0305(7) 0.0323(7) 0.0057(6) -0.0113(6) -0.0068(5)
In9 0.0274(6) 0.0277(6) 0.0282(7) -0.0003(6) -0.0031(5) -0.0026(5)
In10 0.0391(7) 0.0300(7) 0.0301(7) -0.0111(6) 0.0081(6) -0.0072(6)
S1 0.032(2) 0.029(2) 0.031(2) 0.008(2) 0.0097(19) 0.0041(18)
S2 0.038(2) 0.032(2) 0.028(2) 0.010(2) -0.001(2) -0.005(2)
S3 0.044(3) 0.023(2) 0.032(3) -0.004(2) 0.013(2) -0.004(2)
S4 0.031(2) 0.031(2) 0.037(3) 0.012(2) 0.004(2) 0.0056(19)
S5 0.0246(19) 0.022(2) 0.031(2) 0.0020(19) -0.0016(18) -0.0029(17)
S6 0.028(2) 0.027(2) 0.024(2) -0.0009(19) 0.0005(17) -0.0005(17)
S7 0.044(3) 0.045(3) 0.032(3) 0.013(2) -0.016(2) -0.019(2)
S8 0.029(2) 0.020(2) 0.029(2) 0.0073(19) -0.0011(18) -0.0024(17)
S9 0.062(3) 0.037(3) 0.038(3) -0.017(2) 0.025(3) -0.019(3)
S10 0.036(2) 0.024(2) 0.042(3) 0.004(2) -0.006(2) 0.0024(19)
S11 0.052(3) 0.041(3) 0.025(2) 0.002(2) -0.005(2) 0.009(2)
S12 0.035(2) 0.028(2) 0.040(3) 0.000(2) -0.015(2) -0.006(2)
S13 0.029(2) 0.029(2) 0.0158(19) -0.0007(18) -0.0013(16) -0.0009(18)
S14 0.059(3) 0.045(3) 0.023(2) -0.006(2) -0.001(2) 0.006(3)
S15 0.027(2) 0.042(3) 0.049(3) -0.004(3) -0.009(2) -0.005(2)
S16 0.031(2) 0.052(3) 0.042(3) -0.013(3) 0.008(2) -0.005(2)
N1 0.024(7) 0.036(9) 0.025(8) 0.004(7) 0.013(6) -0.002(6)
N2 0.034(8) 0.036(9) 0.037(9) 0.006(8) 0.019(7) -0.006(7)
N3 0.052(10) 0.034(9) 0.025(8) 0.019(7) 0.010(7) 0.007(8)
N4 0.038(9) 0.026(8) 0.050(11) 0.022(8) 0.007(8) 0.015(7)
C1 0.036(10) 0.021(9) 0.040(11) 0.010(8) 0.000(9) -0.003(8)
C2 0.031(9) 0.015(8) 0.025(9) 0.004(7) 0.003(7) 0.004(7)
C3 0.019(9) 0.047(13) 0.090(18) -0.022(13) 0.022(11) 0.010(9)
C4 0.064(15) 0.050(14) 0.050(14) 0.030(12) 0.025(12) 0.031(12)
C5 0.078(19) 0.058(16) 0.073(19) 0.019(15) 0.008(15) 0.022(14)
C6 0.044(13) 0.072(17) 0.049(14) 0.014(13) 0.025(11) 0.007(12)
C7 0.019(8) 0.032(9) 0.035(10) 0.017(8) -0.004(7) 0.012(7)
C8 0.044(11) 0.028(10) 0.035(11) 0.011(9) 0.012(9) 0.012(8)
C9 0.053(13) 0.037(12) 0.080(17) 0.032(12) 0.034(13) 0.029(11)
C10 0.10(2) 0.033(12) 0.065(16) 0.012(12) 0.046(15) 0.020(13)
C13 0.10(2) 0.032(11) 0.054(14) 0.006(11) 0.065(15) 0.011(12)
C14 0.062(14) 0.065(15) 0.033(11) 0.023(11) 0.033(11) 0.023(12)
In8C 0.0317 0.0305 0.0323 0.0057 0.0113 0.0068
In10B 0.0391 0.03 0.0301 0.0111 0.0081 0.0072
N2C 0.034 0.036 0.037 0.006 -0.019 0.006
N4B 0.038 0.026 0.05 -0.022 0.007 -0.015
loop_
_geom_bond_atom_site_label_1
_geom_bond_atom_site_label_2
_geom_bond_site_symmetry_1
_geom_bond_site_symmetry_2
In1 S1 1_555 1_555
In2 S1 1_555 1_555
In3 S2 1_555 1_555
In4 S3 1_555 1_555
In5 S4 1_555 1_555
In6 S5 1_555 1_555
In7 S6 1_555 1_555
In8 S7 1_555 1_555
In9 S8 1_555 1_555
In10 S9 1_555 1_555
In11 S17 1_555 1_555
In12 S17 1_555 1_555
In13 S18 1_555 1_555
In14 S19 1_555 1_555
In15 S20 1_555 1_555
In16 S21 1_555 1_555
In17 S22 1_555 1_555
In18 S23 1_555 1_555
In19 S24 1_555 1_555
In20 S25 1_555 1_555
S2 In1 1_555 1_555
S3 In1 1_555 1_555
S4 In2 1_555 1_555
S5 In2 1_555 1_555
S6 In2 1_555 1_555
S7 In3 1_555 1_555
S8 In3 1_555 1_555
S9 In4 1_555 1_555
S10 In5 1_555 1_555
S11 In5 1_555 1_555
S12 In6 1_555 1_555
S13 In6 1_555 1_555
S14 In7 1_555 1_555
S15 In8 1_555 1_555
S16 In9 1_555 1_555
S18 In11 1_555 1_555
S19 In11 1_555 1_555
S20 In12 1_555 1_555
S21 In12 1_555 1_555
S22 In12 1_555 1_555
S23 In13 1_555 1_555
S24 In13 1_555 1_555
S25 In14 1_555 1_555
S26 In15 1_555 1_555
S27 In15 1_555 1_555
S28 In16 1_555 1_555
S29 In16 1_555 1_555
S30 In17 1_555 1_555
S31 In18 1_555 1_555
S32 In19 1_555 1_555
N1 In1 1_555 1_555
N2 C1 1_555 1_555
N3 In5 1_555 1_555
N4 C8 1_555 1_555
N5 In11 1_555 1_555
N6 C15 1_555 1_555
N7 In15 1_555 1_555
N8 C22 1_555 1_555
N9 C29 1_555 1_555
N11 C48 1_555 1_555
N12 C58 1_555 1_555
C1 N1 1_555 1_555
H1 C1 1_555 1_555
C2 N1 1_555 1_555
C3 C2 1_555 1_555
H2 C3 1_555 1_555
C4 C3 1_555 1_555
H3 C4 1_555 1_555
C5 C4 1_555 1_555
H4 C5 1_555 1_555
C6 C5 1_555 1_555
H5 C6 1_555 1_555
C7 N2 1_555 1_555
C8 N3 1_555 1_555
H6 C8 1_555 1_555
C9 N4 1_555 1_555
C10 C9 1_555 1_555
H7 C10 1_555 1_555
C11 C10 1_555 1_555
H8 C11 1_555 1_555
C12 C11 1_555 1_555
H9 C12 1_555 1_555
C13 C12 1_555 1_555
H10 C13 1_555 1_555
C14 N3 1_555 1_555
C15 N5 1_555 1_555
H11 C15 1_555 1_555
C16 N5 1_555 1_555
C17 C16 1_555 1_555
H12 C17 1_555 1_555
C18 C17 1_555 1_555
H13 C18 1_555 1_555
C19 C18 1_555 1_555
H14 C19 1_555 1_555
C20 C19 1_555 1_555
H15 C20 1_555 1_555
C21 N6 1_555 1_555
C22 N7 1_555 1_555
H16 C22 1_555 1_555
C23 N7 1_555 1_555
C24 C23 1_555 1_555
H17 C24 1_555 1_555
C25 C24 1_555 1_555
H18 C25 1_555 1_555
C26 C25 1_555 1_555
H19 C26 1_555 1_555
C27 C26 1_555 1_555
H20 C27 1_555 1_555
C28 N8 1_555 1_555
C29 C30 1_555 1_555
C30 C31 1_555 1_555
C31 C32 1_555 1_555
C32 C33 1_555 1_555
C33 C34 1_555 1_555
C34 C35 1_555 1_555
C35 C36 1_555 1_555
C36 C37 1_555 1_555
C37 C38 1_555 1_555
C38 N9 1_555 1_555
C48 C49 1_555 1_555
C49 C50 1_555 1_555
C50 C51 1_555 1_555
C51 C52 1_555 1_555
C52 C53 1_555 1_555
C53 C54 1_555 1_555
C54 C55 1_555 1_555
C55 C56 1_555 1_555
C56 C57 1_555 1_555
C57 N11 1_555 1_555
C58 C59 1_555 1_555
C59 C60 1_555 1_555
C60 C61 1_555 1_555
C61 C62 1_555 1_555
C62 C63 1_555 1_555
C63 C64 1_555 1_555
C64 C65 1_555 1_555
C65 C66 1_555 1_555
C66 C67 1_555 1_555
C67 N12 1_555 1_555
In8C N2 1_555 1_555
In10B N4 1_555 1_555
In18C N8 1_555 1_555
In20B N6 1_555 1_555
N2C In8 1_555 1_555
N4B In10 1_555 1_555
N6B In20 1_555 1_555
N8C In18 1_555 1_555
In3 S5 1_555 1_555
In4 S6 1_555 1_555
In4 S8 1_555 1_555
In6 S10 1_555 1_555
In7 S11 1_555 1_555
In7 S13 1_555 1_555
In8 S12 1_555 1_555
In9 S13 1_555 1_555
In9 S15 1_555 1_555
In10 S14 1_555 1_555
In10 S16 1_555 1_555
In13 S21 1_555 1_555
In14 S22 1_555 1_555
In14 S24 1_555 1_555
In16 S26 1_555 1_555
In17 S27 1_555 1_555
In17 S29 1_555 1_555
In18 S28 1_555 1_555
In19 S29 1_555 1_555
In19 S31 1_555 1_555
In20 S30 1_555 1_555
In20 S32 1_555 1_555
C2 C7 1_555 1_555
C6 C7 1_555 1_555
C9 C14 1_555 1_555
C13 C14 1_555 1_555
C16 C21 1_555 1_555
C20 C21 1_555 1_555
C23 C28 1_555 1_555
C27 C28 1_555 1_555
C32 C38 1_555 1_555
C51 C57 1_555 1_555
C61 C67 1_555 1_555

#END
