
#######################################################################
#
#                 Cambridge Crystallographic Data Centre
#                                CCDC 
#
#######################################################################
#
# If this CIF has been generated from an entry in the Cambridge 
# Structural Database, then it will include bibliographic, chemical, 
# crystal, experimental, refinement or atomic coordinate data resulting 
# from the CCDC's data processing and validation procedures.
#
#######################################################################

data_ENISUQ
_chemical_formula_moiety         '(C28 H20 Mn2 O10 Si1)n'
_symmetry_cell_setting           monoclinic
_symmetry_space_group_name_H-M   'I 2/a'
_symmetry_Int_Tables_number      15
_space_group_name_Hall           '-I 2ya'
loop_
_symmetry_equiv_pos_site_id
_symmetry_equiv_pos_as_xyz
1 x,y,z
2 1/2-x,y,-z
3 1/2+x,1/2+y,1/2+z
4 -x,1/2+y,1/2-z
5 -x,-y,-z
6 1/2+x,-y,z
7 1/2-x,1/2-y,1/2-z
8 x,1/2-y,1/2+z
_cell_length_a                   13.0355(18)
_cell_length_b                   22.908(4)
_cell_length_c                   13.882(4)
_cell_angle_alpha                90
_cell_angle_beta                 93.070(19)
_cell_angle_gamma                90
_cell_volume                     4139.46
loop_
_atom_site_label
_atom_site_type_symbol
_atom_site_fract_x
_atom_site_fract_y
_atom_site_fract_z
Mn1 Mn 0.2500 0.185198(15) 0.5000
Mn2 Mn 0.2500 0.2500 0.2500
O1 O 0.09908(12) 0.26003(7) 0.30096(11)
H1 H 0.0951(19) 0.2556(10) 0.3651(3)
H2 H 0.0382(16) 0.2549(17) 0.268(3)
Si1 Si 0.7500 0.45308(2) 0.5000
C1 C 0.63450(13) 0.40472(7) 0.48724(11)
C2 C 0.63126(15) 0.35266(8) 0.53941(13)
H3 H 0.6863 0.3434 0.5844
C3 C 0.54961(15) 0.31423(8) 0.52696(13)
H4 H 0.5495 0.2790 0.5631
C4 C 0.46810(13) 0.32675(7) 0.46218(12)
C5 C 0.46917(15) 0.37857(8) 0.41113(15)
H5 H 0.4134 0.3880 0.3670
C6 C 0.55098(15) 0.41674(8) 0.42395(14)
H6 H 0.5500 0.4522 0.3884
C7 C 0.38071(13) 0.28483(7) 0.44528(12)
O2 O 0.37521(10) 0.24285(5) 0.50439(9)
O3 O 0.31825(10) 0.29333(5) 0.37499(9)
C8 C 0.74331(13) 0.50167(7) 0.60834(12)
C9 C 0.80636(14) 0.55107(7) 0.61633(13)
H7 H 0.8537 0.5585 0.5681
C10 C 0.80106(14) 0.58925(7) 0.69298(13)
H8 H 0.8444 0.6226 0.6970
C11 C 0.73225(14) 0.57888(7) 0.76418(12)
C12 C 0.67015(15) 0.52946(8) 0.75895(13)
H9 H 0.6242 0.5217 0.8082
C13 C 0.67573(15) 0.49137(7) 0.68109(13)
H10 H 0.6328 0.4578 0.6775
C14 C 0.72365(15) 0.62126(7) 0.84515(13)
O4 O 0.77151(11) 0.67004(5) 0.84172(9)
O5 O 0.67406(12) 0.60899(6) 0.91693(9)
Mn1_2 Mn 1.2500 0.185198(15) 0.5000
Mn1B Mn 0.7500 0.685198(15) 0.0000
Mn1B_2 Mn 0.7500 0.685198(15) 1.0000
Mn2A Mn 1.2500 0.2500 0.7500
Mn2B Mn 0.7500 0.7500 0.7500
Mn2C Mn 0.7500 0.7500 0.2500
O1F O 0.40092(12) 0.23997(7) 0.19904(11)
H1F H 0.4049(19) 0.2444(10) 0.1349(3)
H2F H 0.4618(16) 0.2451(17) 0.232(3)
C1A C 0.86550(13) 0.40472(7) 0.51276(11)
C2A C 0.86874(15) 0.35266(8) 0.46059(13)
H3A H 0.8137 0.3434 0.4156
C3A C 0.95039(15) 0.31423(8) 0.47304(13)
H4A H 0.9505 0.2790 0.4369
C4A C 1.03190(13) 0.32675(7) 0.53782(12)
C5A C 1.03083(15) 0.37857(8) 0.58887(15)
H5A H 1.0866 0.3880 0.6330
C6A C 0.94902(15) 0.41674(8) 0.57605(14)
H6A H 0.9500 0.4522 0.6116
C7A C 1.11929(13) 0.28483(7) 0.55472(12)
O2A O 1.12479(10) 0.24285(5) 0.49561(9)
O2A_2 O 0.12479(10) 0.24285(5) 0.49561(9)
O3A O 1.18175(10) 0.29333(5) 0.62501(9)
O3F O 0.18175(10) 0.20667(5) 0.12501(9)
C8A C 0.75669(13) 0.50167(7) 0.39166(12)
C9A C 0.69364(14) 0.55107(7) 0.38367(13)
H7A H 0.6463 0.5585 0.4319
C10A C 0.69894(14) 0.58925(7) 0.30702(13)
H8A H 0.6556 0.6226 0.3030
C11A C 0.76775(14) 0.57888(7) 0.23582(12)
C12A C 0.82985(15) 0.52946(8) 0.24105(13)
H9A H 0.8758 0.5217 0.1918
C13A C 0.82427(15) 0.49137(7) 0.31891(13)
H10A H 0.8672 0.4578 0.3225
C14A C 0.77635(15) 0.62126(7) 0.15485(13)
O4A O 0.72849(11) 0.67004(5) 0.15828(9)
O4B O 0.27151(11) 0.17004(5) 0.34172(9)
O4C O 0.22849(11) 0.17004(5) 0.65828(9)
O4D O 0.22849(11) 0.32996(5) 0.15828(9)
O5A O 0.82594(12) 0.60899(6) 0.08307(9)
O5B O 0.17406(12) 0.10899(6) 0.41693(9)
O5C O 0.32594(12) 0.10899(6) 0.58307(9)
loop_
_geom_bond_atom_site_label_1
_geom_bond_atom_site_label_2
_geom_bond_site_symmetry_1
_geom_bond_site_symmetry_2
Mn1 O2 1_555 1_555
Mn2 O1 1_555 1_555
O1 H1 1_555 1_555
H2 O1 1_555 1_555
Si1 C1 1_555 1_555
C1 C2 1_555 1_555
C2 H3 1_555 1_555
C3 C2 1_555 1_555
H4 C3 1_555 1_555
C4 C3 1_555 1_555
C5 C4 1_555 1_555
H5 C5 1_555 1_555
C6 C1 1_555 1_555
H6 C6 1_555 1_555
C7 C4 1_555 1_555
O2 C7 1_555 1_555
O3 Mn2 1_555 1_555
C8 Si1 1_555 1_555
C9 C8 1_555 1_555
H7 C9 1_555 1_555
C10 C9 1_555 1_555
H8 C10 1_555 1_555
C11 C10 1_555 1_555
C12 C11 1_555 1_555
H9 C12 1_555 1_555
C13 C8 1_555 1_555
H10 C13 1_555 1_555
C14 C11 1_555 1_555
O4 C14 1_555 1_555
O5 C14 1_555 1_555
Mn1_2 O2A 1_555 1_555
Mn1B O4A 1_555 1_555
Mn1B_2 O4 1_555 1_555
Mn2A O3A 1_555 1_555
Mn2B O4 1_555 1_555
Mn2C O4A 1_555 1_555
O1F Mn2 1_555 1_555
H1F O1F 1_555 1_555
H2F O1F 1_555 1_555
C1A Si1 1_555 1_555
C2A C1A 1_555 1_555
H3A C2A 1_555 1_555
C3A C2A 1_555 1_555
H4A C3A 1_555 1_555
C4A C3A 1_555 1_555
C5A C4A 1_555 1_555
H5A C5A 1_555 1_555
C6A C1A 1_555 1_555
H6A C6A 1_555 1_555
C7A C4A 1_555 1_555
O2A C7A 1_555 1_555
O2A_2 Mn1 1_555 1_555
O3A C7A 1_555 1_555
O3F Mn2 1_555 1_555
C8A Si1 1_555 1_555
C9A C8A 1_555 1_555
H7A C9A 1_555 1_555
C10A C9A 1_555 1_555
H8A C10A 1_555 1_555
C11A C10A 1_555 1_555
C12A C11A 1_555 1_555
H9A C12A 1_555 1_555
C13A C8A 1_555 1_555
H10A C13A 1_555 1_555
C14A C11A 1_555 1_555
O4A C14A 1_555 1_555
O4B Mn1 1_555 1_555
O4C Mn1 1_555 1_555
O4D Mn2 1_555 1_555
O5A Mn1B 1_555 1_555
O5B Mn1 1_555 1_555
O5C Mn1 1_555 1_555
Mn2 O4B 1_555 1_555
C5 C6 1_555 1_555
C7 O3 1_555 1_555
C12 C13 1_555 1_555
O5 Mn1B_2 1_555 1_555
C5A C6A 1_555 1_555
C12A C13A 1_555 1_555
C14A O5A 1_555 1_555

#END
