
#######################################################################
#
#                 Cambridge Crystallographic Data Centre
#                                CCDC 
#
#######################################################################
#
# If this CIF has been generated from an entry in the Cambridge 
# Structural Database, then it will include bibliographic, chemical, 
# crystal, experimental, refinement or atomic coordinate data resulting 
# from the CCDC's data processing and validation procedures.
#
#######################################################################

data_ENITOL
_chemical_formula_moiety         '(C56 H32 O16 Si2 Zn3 2-)n'
_symmetry_cell_setting           orthorhombic
_symmetry_space_group_name_H-M   'P n n n'
_symmetry_Int_Tables_number      48
_space_group_name_Hall           '-P 2ab 2bc'
loop_
_symmetry_equiv_pos_site_id
_symmetry_equiv_pos_as_xyz
1 x,y,z
2 1/2-x,1/2-y,z
3 1/2-x,y,1/2-z
4 x,1/2-y,1/2-z
5 -x,-y,-z
6 1/2+x,1/2+y,-z
7 1/2+x,-y,1/2+z
8 -x,1/2+y,1/2+z
_cell_length_a                   14.1529(4)
_cell_length_b                   23.4060(6)
_cell_length_c                   23.8325(6)
_cell_angle_alpha                90
_cell_angle_beta                 90
_cell_angle_gamma                90
_cell_volume                     7894.82
loop_
_atom_site_label
_atom_site_type_symbol
_atom_site_fract_x
_atom_site_fract_y
_atom_site_fract_z
Zn1 Zn 0.56037(3) 0.86158(2) 0.014008(19)
Zn2 Zn 0.0000 0.5000 0.0000
Si1 Si 0.56220(8) 0.51417(5) 0.13967(4)
C1 C 0.5672(7) 0.5859(3) 0.1046(5)
C2 C 0.6545(6) 0.6115(4) 0.0955(5)
H1 H 0.7109 0.5915 0.1044
C3 C 0.6592(6) 0.6664(3) 0.0734(4)
H2 H 0.7188 0.6839 0.0671
C4 C 0.5766(8) 0.6957(2) 0.0604(4)
C5 C 0.4893(6) 0.6701(3) 0.0695(4)
H3 H 0.4328 0.6901 0.0607
C6 C 0.4846(6) 0.6152(4) 0.0917(5)
H4 H 0.4249 0.5977 0.0979
C7 C 0.5810(11) 0.7565(4) 0.0381(5)
O1 O 0.6578(9) 0.7770(3) 0.0240(3)
O2 O 0.5087(9) 0.7852(3) 0.0330(4)
C8 C 0.4461(3) 0.48006(18) 0.12195(16)
C9 C 0.3613(3) 0.5022(2) 0.14417(17)
H5 H 0.3638 0.5284 0.1746
C10 C 0.2744(3) 0.4863(2) 0.12241(18)
H6 H 0.2182 0.5020 0.1377
C11 C 0.2689(3) 0.44834(19) 0.07932(16)
C12 C 0.3524(3) 0.42316(18) 0.05936(18)
H7 H 0.3492 0.3942 0.0315
C13 C 0.4383(3) 0.44000(18) 0.07972(16)
H8 H 0.4941 0.4237 0.0644
C14 C 0.1775(3) 0.4351(2) 0.05089(17)
O3 O 0.1172(2) 0.47463(13) 0.04891(11)
O4 O 0.16721(19) 0.38535(14) 0.03193(12)
C15 C 0.6634(3) 0.47025(17) 0.11388(16)
C16 C 0.7221(3) 0.43890(18) 0.14952(17)
H9 H 0.7080 0.4375 0.1885
C17 C 0.8005(3) 0.40962(17) 0.12934(18)
H10 H 0.8381 0.3871 0.1539
C18 C 0.8230(3) 0.41372(17) 0.07339(17)
C19 C 0.7653(3) 0.44191(18) 0.03730(19)
H11 H 0.7795 0.4423 -0.0017
C20 C 0.6860(3) 0.47002(19) 0.05689(17)
H12 H 0.6462 0.4895 0.0311
C21 C 0.9135(3) 0.38836(19) 0.05274(18)
O5 O 0.9528(2) 0.34899(14) 0.07761(13)
O6 O 0.94840(17) 0.40928(12) 0.00697(11)
C22 C 0.5693(3) 0.52715(18) 0.21657(16)
C23 C 0.6116(3) 0.5764(2) 0.23793(17)
H13 H 0.6398 0.6031 0.2130
C24 C 0.6128(3) 0.5866(2) 0.29557(18)
H14 H 0.6410 0.6206 0.3095
C25 C 0.5736(3) 0.54796(18) 0.33283(16)
C26 C 0.5328(2) 0.49885(19) 0.31217(16)
H15 H 0.5057 0.4721 0.3374
C27 C 0.5306(3) 0.48800(19) 0.25484(17)
H16 H 0.5027 0.4537 0.2414
C28 C 0.5725(3) 0.5609(2) 0.39460(17)
O7 O 0.5857(2) 0.61100(14) 0.40950(11)
O8 O 0.5572(2) 0.51949(13) 0.42631(11)
Zn1D Zn -0.56037(3) 0.13842(2) -0.014008(19)
Zn1E Zn 0.06037(3) 0.36158(2) -0.014008(19)
Zn1E_2 Zn 1.06037(3) 0.36158(2) -0.014008(19)
Zn1C Zn 0.56037(3) 0.63842(2) 0.485992(19)
Zn1A Zn -0.06037(3) 0.63842(2) 0.014008(19)
Zn1A_2 Zn -1.06037(3) 0.63842(2) 0.014008(19)
Zn1G Zn -0.56037(3) 0.36158(2) -0.485992(19)
Zn2_2 Zn 1.0000 0.5000 0.0000
Zn2B Zn 0.5000 0.5000 0.5000
Zn2_3 Zn -1.0000 0.5000 0.0000
Zn2B_2 Zn -0.5000 0.5000 -0.5000
Si1D Si -0.56220(8) 0.48583(5) -0.13967(4)
C1D C -0.5672(7) 0.4141(3) -0.1046(5)
C2D C -0.6545(6) 0.3885(4) -0.0955(5)
H1D H -0.7109 0.4085 -0.1044
C3D C -0.6592(6) 0.3336(3) -0.0734(4)
H2D H -0.7188 0.3161 -0.0671
C4D C -0.5766(8) 0.3043(2) -0.0604(4)
C5D C -0.4893(6) 0.3299(3) -0.0695(4)
H3D H -0.4328 0.3099 -0.0607
C6D C -0.4846(6) 0.3848(4) -0.0917(5)
H4D H -0.4249 0.4023 -0.0979
C7D C -0.5810(11) 0.2435(4) -0.0381(5)
O1D O -0.6578(9) 0.2230(3) -0.0240(3)
O2D O -0.5087(9) 0.2148(3) -0.0330(4)
C8D C -0.4461(3) 0.51994(18) -0.12195(16)
C9D C -0.3613(3) 0.4978(2) -0.14417(17)
H5D H -0.3638 0.4716 -0.1746
C10D C -0.2744(3) 0.5137(2) -0.12241(18)
H6D H -0.2182 0.4980 -0.1377
C11D C -0.2689(3) 0.55166(19) -0.07932(16)
C12D C -0.3524(3) 0.57684(18) -0.05936(18)
H7D H -0.3492 0.6058 -0.0315
C13D C -0.4383(3) 0.56000(18) -0.07972(16)
H8D H -0.4941 0.5763 -0.0644
C14D C -0.1775(3) 0.5649(2) -0.05089(17)
O3D O -0.1172(2) 0.52537(13) -0.04891(11)
O4D O -0.16721(19) 0.61465(14) -0.03193(12)
O4E O 0.66721(19) 0.88535(14) -0.03193(12)
O4A O -0.66721(19) 0.11465(14) 0.03193(12)
C15D C -0.6634(3) 0.52975(17) -0.11388(16)
C16D C -0.7221(3) 0.56110(18) -0.14952(17)
H9D H -0.7080 0.5625 -0.1885
C17D C -0.8005(3) 0.59038(17) -0.12934(18)
H10D H -0.8381 0.6129 -0.1539
C18D C -0.8230(3) 0.58628(17) -0.07339(17)
C19D C -0.7653(3) 0.55809(18) -0.03730(19)
H11D H -0.7795 0.5577 0.0017
C20D C -0.6860(3) 0.52998(19) -0.05689(17)
H12D H -0.6462 0.5105 -0.0311
C21D C -0.9135(3) 0.61164(19) -0.05274(18)
O5D O -0.9528(2) 0.65101(14) -0.07761(13)
O6D O -0.94840(17) 0.59072(12) -0.00697(11)
O6E O 0.44840(17) 0.90928(12) -0.00697(11)
O6_2 O -0.05160(17) 0.40928(12) 0.00697(11)
O6D_2 O 0.05160(17) 0.59072(12) -0.00697(11)
O6A O -0.44840(17) 0.09072(12) 0.00697(11)
C22D C -0.5693(3) 0.47285(18) -0.21657(16)
C23D C -0.6116(3) 0.4236(2) -0.23793(17)
H13D H -0.6398 0.3969 -0.2130
C24D C -0.6128(3) 0.4134(2) -0.29557(18)
H14D H -0.6410 0.3794 -0.3095
C25D C -0.5736(3) 0.45204(18) -0.33283(16)
C26D C -0.5328(2) 0.50115(19) -0.31217(16)
H15D H -0.5057 0.5279 -0.3374
C27D C -0.5306(3) 0.51200(19) -0.25484(17)
H16D H -0.5027 0.5463 -0.2414
C28D C -0.5725(3) 0.4391(2) -0.39460(17)
O7D O -0.5857(2) 0.38900(14) -0.40950(11)
O7C O 0.5857(2) 0.88900(14) 0.09050(11)
O7G O -0.5857(2) 0.11100(14) -0.09050(11)
O8D O -0.5572(2) 0.48051(13) -0.42631(11)
O8B O -0.0572(2) 0.51949(13) 0.07369(11)
O8F O 0.0572(2) 0.48051(13) -0.07369(11)
loop_
_geom_bond_atom_site_label_1
_geom_bond_atom_site_label_2
_geom_bond_site_symmetry_1
_geom_bond_site_symmetry_2
Zn1 O1 1_555 1_555
Zn2 O3 1_555 1_555
Si1 C1 1_555 1_555
C1 C2 1_555 1_555
C2 H1 1_555 1_555
C3 C2 1_555 1_555
H2 C3 1_555 1_555
C4 C3 1_555 1_555
C5 C4 1_555 1_555
H3 C5 1_555 1_555
C6 C1 1_555 1_555
H4 C6 1_555 1_555
C7 C4 1_555 1_555
O1 C7 1_555 1_555
O2 Zn1 1_555 1_555
C8 Si1 1_555 1_555
C9 C8 1_555 1_555
H5 C9 1_555 1_555
C10 C9 1_555 1_555
H6 C10 1_555 1_555
C11 C10 1_555 1_555
C12 C11 1_555 1_555
H7 C12 1_555 1_555
C13 C8 1_555 1_555
H8 C13 1_555 1_555
C14 C11 1_555 1_555
O3 C14 1_555 1_555
O4 C14 1_555 1_555
C15 Si1 1_555 1_555
C16 C15 1_555 1_555
H9 C16 1_555 1_555
C17 C16 1_555 1_555
H10 C17 1_555 1_555
C18 C17 1_555 1_555
C19 C18 1_555 1_555
H11 C19 1_555 1_555
C20 C15 1_555 1_555
H12 C20 1_555 1_555
C21 C18 1_555 1_555
O5 C21 1_555 1_555
O6 C21 1_555 1_555
C22 Si1 1_555 1_555
C23 C22 1_555 1_555
H13 C23 1_555 1_555
C24 C23 1_555 1_555
H14 C24 1_555 1_555
C25 C24 1_555 1_555
C26 C25 1_555 1_555
H15 C26 1_555 1_555
C27 C22 1_555 1_555
H16 C27 1_555 1_555
C28 C25 1_555 1_555
O7 C28 1_555 1_555
O8 C28 1_555 1_555
Zn1D O1D 1_555 1_555
Zn1E O4 1_555 1_555
Zn1E_2 O6 1_555 1_555
Zn1C O7 1_555 1_555
Zn1A O4D 1_555 1_555
Zn1A_2 O6D 1_555 1_555
Zn1G O7D 1_555 1_555
Zn2_2 O6 1_555 1_555
Zn2B O8 1_555 1_555
Zn2_3 O6D 1_555 1_555
Zn2B_2 O8D 1_555 1_555
Si1D C1D 1_555 1_555
C1D C2D 1_555 1_555
C2D H1D 1_555 1_555
C3D C2D 1_555 1_555
H2D C3D 1_555 1_555
C4D C3D 1_555 1_555
C5D C4D 1_555 1_555
H3D C5D 1_555 1_555
C6D C1D 1_555 1_555
H4D C6D 1_555 1_555
C7D C4D 1_555 1_555
O1D C7D 1_555 1_555
O2D Zn1D 1_555 1_555
C8D Si1D 1_555 1_555
C9D C8D 1_555 1_555
H5D C9D 1_555 1_555
C10D C9D 1_555 1_555
H6D C10D 1_555 1_555
C11D C10D 1_555 1_555
C12D C11D 1_555 1_555
H7D C12D 1_555 1_555
C13D C8D 1_555 1_555
H8D C13D 1_555 1_555
C14D C11D 1_555 1_555
O3D Zn2 1_555 1_555
O4D C14D 1_555 1_555
O4E Zn1 1_555 1_555
O4A Zn1D 1_555 1_555
C15D Si1D 1_555 1_555
C16D C15D 1_555 1_555
H9D C16D 1_555 1_555
C17D C16D 1_555 1_555
H10D C17D 1_555 1_555
C18D C17D 1_555 1_555
C19D C18D 1_555 1_555
H11D C19D 1_555 1_555
C20D C15D 1_555 1_555
H12D C20D 1_555 1_555
C21D C18D 1_555 1_555
O5D C21D 1_555 1_555
O6D C21D 1_555 1_555
O6E Zn1 1_555 1_555
O6_2 Zn2 1_555 1_555
O6D_2 Zn2 1_555 1_555
O6A Zn1D 1_555 1_555
C22D Si1D 1_555 1_555
C23D C22D 1_555 1_555
H13D C23D 1_555 1_555
C24D C23D 1_555 1_555
H14D C24D 1_555 1_555
C25D C24D 1_555 1_555
C26D C25D 1_555 1_555
H15D C26D 1_555 1_555
C27D C22D 1_555 1_555
H16D C27D 1_555 1_555
C28D C25D 1_555 1_555
O7D C28D 1_555 1_555
O7C Zn1 1_555 1_555
O7G Zn1D 1_555 1_555
O8D C28D 1_555 1_555
O8B Zn2 1_555 1_555
O8F Zn2 1_555 1_555
C5 C6 1_555 1_555
C7 O2 1_555 1_555
C12 C13 1_555 1_555
C19 C20 1_555 1_555
C26 C27 1_555 1_555
Zn1E O6_2 1_555 1_555
Zn1A O6D_2 1_555 1_555
C5D C6D 1_555 1_555
C7D O2D 1_555 1_555
C12D C13D 1_555 1_555
C14D O3D 1_555 1_555
C19D C20D 1_555 1_555
C26D C27D 1_555 1_555

#END
