
#######################################################################
#
#                 Cambridge Crystallographic Data Centre
#                                CCDC 
#
#######################################################################
#
# If this CIF has been generated from an entry in the Cambridge 
# Structural Database, then it will include bibliographic, chemical, 
# crystal, experimental, refinement or atomic coordinate data resulting 
# from the CCDC's data processing and validation procedures.
#
#######################################################################

data_ENITIF
_chemical_formula_moiety         '(C56 H32 O16 Si2 Zn3 2-)n'
_symmetry_cell_setting           monoclinic
_symmetry_space_group_name_H-M   'C 2/c'
_symmetry_Int_Tables_number      15
_space_group_name_Hall           '-C 2yc'
loop_
_symmetry_equiv_pos_site_id
_symmetry_equiv_pos_as_xyz
1 x,y,z
2 -x,y,1/2-z
3 1/2+x,1/2+y,z
4 1/2-x,1/2+y,1/2-z
5 -x,-y,-z
6 x,-y,1/2+z
7 1/2-x,1/2-y,-z
8 1/2+x,1/2-y,1/2+z
_cell_length_a                   25.205(5)
_cell_length_b                   13.701(4)
_cell_length_c                   25.803(9)
_cell_angle_alpha                90
_cell_angle_beta                 114.49(3)
_cell_angle_gamma                90
_cell_volume                     8108.99
loop_
_atom_site_label
_atom_site_type_symbol
_atom_site_fract_x
_atom_site_fract_y
_atom_site_fract_z
Zn1 Zn 0.48030(3) 0.21095(4) 0.04367(2)
Zn2 Zn 0.5000 0.0000 0.0000
Si1 Si 0.86208(5) 0.20872(8) 0.17279(5)
C1 C 0.78116(14) 0.1846(4) 0.14376(17)
C2 C 0.74607(19) 0.2422(5) 0.1611(3)
H1 H 0.7632 0.2900 0.1899
C3 C 0.68592(18) 0.2300(5) 0.1362(3)
H2 H 0.6619 0.2693 0.1480
C4 C 0.66086(13) 0.1601(3) 0.0939(2)
C5 C 0.69594(18) 0.1025(4) 0.0766(2)
H3 H 0.6788 0.0548 0.0477
C6 C 0.75609(17) 0.1148(4) 0.1015(3)
H4 H 0.7801 0.0754 0.0897
C7 C 0.59385(19) 0.1530(3) 0.06523(18)
O1 O 0.56619(15) 0.2105(3) 0.08180(16)
O2 O 0.57260(12) 0.0887(2) 0.02780(12)
C8 C 0.89747(17) 0.0929(2) 0.16243(17)
C9 C 0.8859(2) 0.0051(3) 0.18278(19)
H5 H 0.8638 0.0047 0.2049
C10 C 0.9068(2) -0.0819(2) 0.1707(2)
H6 H 0.8989 -0.1419 0.1846
C11 C 0.93921(19) -0.0812(2) 0.13833(19)
C12 C 0.9508(2) 0.0065(3) 0.1180(2)
H7 H 0.9729 0.0070 0.0958
C13 C 0.9299(2) 0.0936(2) 0.1300(2)
H8 H 0.9378 0.1535 0.1161
C14 C 0.9592(3) -0.1749(5) 0.1224(3)
O3 O 0.9607(3) -0.2535(4) 0.1466(2)
O4 O 0.9610(4) -0.1712(5) 0.0730(3)
C15 C 0.87664(19) 0.3164(3) 0.13495(19)
C16 C 0.9336(2) 0.3424(4) 0.1444(2)
H9 H 0.9654 0.3053 0.1702
C17 C 0.94436(19) 0.4215(4) 0.1167(2)
H10 H 0.9834 0.4364 0.1230
C18 C 0.89938(18) 0.4793(3) 0.08002(17)
C19 C 0.8420(2) 0.4554(5) 0.0718(2)
H11 H 0.8103 0.4951 0.0481
C20 C 0.8319(2) 0.3738(5) 0.0983(2)
H12 H 0.7928 0.3570 0.0911
C21 C 0.91101(18) 0.5655(3) 0.05133(17)
O5 O 0.96436(12) 0.5749(2) 0.05578(12)
O6 O 0.87249(18) 0.6254(3) 0.02634(19)
C22 C 0.88811(19) 0.2405(3) 0.24982(19)
C23 C 0.8864(2) 0.3361(4) 0.26572(18)
H13 H 0.8727 0.3852 0.2372
C24 C 0.9041(2) 0.3623(3) 0.32206(19)
H14 H 0.9030 0.4290 0.3317
C25 C 0.92332(18) 0.2930(3) 0.36445(17)
C26 C 0.9255(3) 0.1952(4) 0.3495(2)
H15 H 0.9382 0.1460 0.3780
C27 C 0.9089(3) 0.1708(4) 0.2929(2)
H16 H 0.9119 0.1047 0.2832
C28 C 0.94546(18) 0.3222(3) 0.42569(18)
O7 O 0.95165(13) 0.4131(2) 0.43483(12)
O8 O 0.95621(16) 0.2564(2) 0.46263(13)
Zn1D Zn 0.51970(3) -0.21095(4) -0.04367(2)
Zn1B Zn 0.98030(3) -0.28905(4) 0.04367(2)
Zn1B_2 Zn 0.98030(3) 0.71095(4) 0.04367(2)
Zn1C Zn 0.01970(3) -0.28905(4) -0.54367(2)
Zn1F Zn 0.01970(3) -0.71095(4) -0.04367(2)
Zn1F_2 Zn 0.01970(3) 0.28905(4) -0.04367(2)
Zn1G Zn 0.98030(3) 0.28905(4) 0.54367(2)
Zn2B Zn 0.0000 -0.5000 0.0000
Zn2B_2 Zn 1.0000 0.5000 0.0000
Zn2C Zn 0.0000 -0.5000 -0.5000
Zn2C_2 Zn 1.0000 0.5000 0.5000
Si1D Si 0.13792(5) -0.20872(8) -0.17279(5)
C1D C 0.21884(14) -0.1846(4) -0.14376(17)
C2D C 0.25393(19) -0.2422(5) -0.1611(3)
H1D H 0.2368 -0.2900 -0.1899
C3D C 0.31408(18) -0.2300(5) -0.1362(3)
H2D H 0.3381 -0.2693 -0.1480
C4D C 0.33914(13) -0.1601(3) -0.0939(2)
C5D C 0.30406(18) -0.1025(4) -0.0766(2)
H3D H 0.3212 -0.0548 -0.0477
C6D C 0.24391(17) -0.1148(4) -0.1015(3)
H4D H 0.2199 -0.0754 -0.0897
C7D C 0.40615(19) -0.1530(3) -0.06523(18)
O1D O 0.43381(15) -0.2105(3) -0.08180(16)
O2D O 0.42740(12) -0.0887(2) -0.02780(12)
C8D C 0.10253(17) -0.0929(2) -0.16243(17)
C9D C 0.1141(2) -0.0051(3) -0.18278(19)
H5D H 0.1362 -0.0047 -0.2049
C10D C 0.0932(2) 0.0819(2) -0.1707(2)
H6D H 0.1011 0.1419 -0.1846
C11D C 0.06079(19) 0.0812(2) -0.13833(19)
C12D C 0.0492(2) -0.0065(3) -0.1180(2)
H7D H 0.0271 -0.0070 -0.0958
C13D C 0.0701(2) -0.0936(2) -0.1300(2)
H8D H 0.0622 -0.1535 -0.1161
C14D C 0.0408(3) 0.1749(5) -0.1224(3)
O3D O 0.0393(3) 0.2535(4) -0.1466(2)
O4D O 0.0390(4) 0.1712(5) -0.0730(3)
O4B O 0.4610(4) 0.3288(5) 0.0730(3)
O4F O 0.5390(4) -0.3288(5) -0.0730(3)
C15D C 0.12336(19) -0.3164(3) -0.13495(19)
C16D C 0.0664(2) -0.3424(4) -0.1444(2)
H9D H 0.0346 -0.3053 -0.1702
C17D C 0.05564(19) -0.4215(4) -0.1167(2)
H10D H 0.0166 -0.4364 -0.1230
C18D C 0.10062(18) -0.4793(3) -0.08002(17)
C19D C 0.1580(2) -0.4554(5) -0.0718(2)
H11D H 0.1897 -0.4951 -0.0481
C20D C 0.1681(2) -0.3738(5) -0.0983(2)
H12D H 0.2072 -0.3570 -0.0911
C21D C 0.08899(18) -0.5655(3) -0.05133(17)
O5D O 0.03564(12) -0.5749(2) -0.05578(12)
O5B O 0.46436(12) 0.0749(2) 0.05578(12)
O5F O 0.53564(12) -0.0749(2) -0.05578(12)
O6D O 0.12751(18) -0.6254(3) -0.02634(19)
C22D C 0.11189(19) -0.2405(3) -0.24982(19)
C23D C 0.1136(2) -0.3361(4) -0.26572(18)
H13D H 0.1273 -0.3852 -0.2372
C24D C 0.0959(2) -0.3623(3) -0.32206(19)
H14D H 0.0970 -0.4290 -0.3317
C25D C 0.07668(18) -0.2930(3) -0.36445(17)
C26D C 0.0745(3) -0.1952(4) -0.3495(2)
H15D H 0.0618 -0.1460 -0.3780
C27D C 0.0911(3) -0.1708(4) -0.2929(2)
H16D H 0.0881 -0.1047 -0.2832
C28D C 0.05454(18) -0.3222(3) -0.42569(18)
O7D O 0.04835(13) -0.4131(2) -0.43483(12)
O7C O 0.54835(13) -0.0869(2) 0.06517(12)
O7G O 0.45165(13) 0.0869(2) -0.06517(12)
O8D O 0.04379(16) -0.2564(2) -0.46263(13)
O8C O 0.54379(16) -0.2436(2) 0.03737(13)
O8G O 0.45621(16) 0.2436(2) -0.03737(13)
loop_
_geom_bond_atom_site_label_1
_geom_bond_atom_site_label_2
_geom_bond_site_symmetry_1
_geom_bond_site_symmetry_2
Zn1 O1 1_555 1_555
Zn2 O2 1_555 1_555
Si1 C1 1_555 1_555
C1 C2 1_555 1_555
C2 H1 1_555 1_555
C3 C2 1_555 1_555
H2 C3 1_555 1_555
C4 C3 1_555 1_555
C5 C4 1_555 1_555
H3 C5 1_555 1_555
C6 C1 1_555 1_555
H4 C6 1_555 1_555
C7 C4 1_555 1_555
O1 C7 1_555 1_555
O2 C7 1_555 1_555
C8 Si1 1_555 1_555
C9 C8 1_555 1_555
H5 C9 1_555 1_555
C10 C9 1_555 1_555
H6 C10 1_555 1_555
C11 C10 1_555 1_555
C12 C11 1_555 1_555
H7 C12 1_555 1_555
C13 C8 1_555 1_555
H8 C13 1_555 1_555
C14 C11 1_555 1_555
O3 C14 1_555 1_555
O4 C14 1_555 1_555
C15 Si1 1_555 1_555
C16 C15 1_555 1_555
H9 C16 1_555 1_555
C17 C16 1_555 1_555
H10 C17 1_555 1_555
C18 C17 1_555 1_555
C19 C18 1_555 1_555
H11 C19 1_555 1_555
C20 C15 1_555 1_555
H12 C20 1_555 1_555
C21 C18 1_555 1_555
O5 C21 1_555 1_555
O6 C21 1_555 1_555
C22 Si1 1_555 1_555
C23 C22 1_555 1_555
H13 C23 1_555 1_555
C24 C23 1_555 1_555
H14 C24 1_555 1_555
C25 C24 1_555 1_555
C26 C25 1_555 1_555
H15 C26 1_555 1_555
C27 C22 1_555 1_555
H16 C27 1_555 1_555
C28 C25 1_555 1_555
O7 C28 1_555 1_555
O8 C28 1_555 1_555
Zn1D O1D 1_555 1_555
Zn1B O4 1_555 1_555
Zn1B_2 O5 1_555 1_555
Zn1C O8D 1_555 1_555
Zn1F O5D 1_555 1_555
Zn1F_2 O4D 1_555 1_555
Zn1G O8 1_555 1_555
Zn2B O5D 1_555 1_555
Zn2B_2 O5 1_555 1_555
Zn2C O7D 1_555 1_555
Zn2C_2 O7 1_555 1_555
Si1D C1D 1_555 1_555
C1D C2D 1_555 1_555
C2D H1D 1_555 1_555
C3D C2D 1_555 1_555
H2D C3D 1_555 1_555
C4D C3D 1_555 1_555
C5D C4D 1_555 1_555
H3D C5D 1_555 1_555
C6D C1D 1_555 1_555
H4D C6D 1_555 1_555
C7D C4D 1_555 1_555
O1D C7D 1_555 1_555
O2D Zn2 1_555 1_555
C8D Si1D 1_555 1_555
C9D C8D 1_555 1_555
H5D C9D 1_555 1_555
C10D C9D 1_555 1_555
H6D C10D 1_555 1_555
C11D C10D 1_555 1_555
C12D C11D 1_555 1_555
H7D C12D 1_555 1_555
C13D C8D 1_555 1_555
H8D C13D 1_555 1_555
C14D C11D 1_555 1_555
O3D C14D 1_555 1_555
O4D C14D 1_555 1_555
O4B Zn1 1_555 1_555
O4F Zn1D 1_555 1_555
C15D Si1D 1_555 1_555
C16D C15D 1_555 1_555
H9D C16D 1_555 1_555
C17D C16D 1_555 1_555
H10D C17D 1_555 1_555
C18D C17D 1_555 1_555
C19D C18D 1_555 1_555
H11D C19D 1_555 1_555
C20D C15D 1_555 1_555
H12D C20D 1_555 1_555
C21D C18D 1_555 1_555
O5D C21D 1_555 1_555
O5B Zn1 1_555 1_555
O5F Zn2 1_555 1_555
O6D C21D 1_555 1_555
C22D Si1D 1_555 1_555
C23D C22D 1_555 1_555
H13D C23D 1_555 1_555
C24D C23D 1_555 1_555
H14D C24D 1_555 1_555
C25D C24D 1_555 1_555
C26D C25D 1_555 1_555
H15D C26D 1_555 1_555
C27D C22D 1_555 1_555
H16D C27D 1_555 1_555
C28D C25D 1_555 1_555
O7D C28D 1_555 1_555
O7C Zn2 1_555 1_555
O7G Zn2 1_555 1_555
O8D C28D 1_555 1_555
O8C Zn1D 1_555 1_555
O8G Zn1 1_555 1_555
Zn2 O5B 1_555 1_555
C5 C6 1_555 1_555
C12 C13 1_555 1_555
C19 C20 1_555 1_555
C26 C27 1_555 1_555
Zn1D O5F 1_555 1_555
C5D C6D 1_555 1_555
C7D O2D 1_555 1_555
C12D C13D 1_555 1_555
C19D C20D 1_555 1_555
C26D C27D 1_555 1_555

#END
