
#######################################################################
#
#                 Cambridge Crystallographic Data Centre
#                                CCDC 
#
#######################################################################
#
# If this CIF has been generated from an entry in the Cambridge 
# Structural Database, then it will include bibliographic, chemical, 
# crystal, experimental, refinement or atomic coordinate data resulting 
# from the CCDC's data processing and validation procedures.
#
#######################################################################

data_ENITAX
_chemical_formula_moiety         '(C28 H20 Cu2 O10 Si1)n'
_symmetry_cell_setting           tetragonal
_symmetry_space_group_name_H-M   'P 42/m m c'
_symmetry_Int_Tables_number      131
_space_group_name_Hall           '-P 4c 2'
loop_
_symmetry_equiv_pos_site_id
_symmetry_equiv_pos_as_xyz
1 x,y,z
2 -x,-y,z
3 -y,x,1/2+z
4 y,-x,1/2+z
5 -x,y,-z
6 x,-y,-z
7 y,x,1/2-z
8 -y,-x,1/2-z
9 -x,-y,-z
10 x,y,-z
11 y,-x,1/2-z
12 -y,x,1/2-z
13 x,-y,z
14 -x,y,z
15 -y,-x,1/2+z
16 y,x,1/2+z
_cell_length_a                   12.3710(12)
_cell_length_b                   12.3710(12)
_cell_length_c                   24.0689(10)
_cell_angle_alpha                90
_cell_angle_beta                 90
_cell_angle_gamma                90
_cell_volume                     3683.54
loop_
_atom_site_label
_atom_site_type_symbol
_atom_site_fract_x
_atom_site_fract_y
_atom_site_fract_z
Cu1 Cu 0.1074(2) 0.5000 0.0000
Si1 Si 0.0000 0.0000 0.2500
C1 C 0.0000 0.1174(7) 0.2023(3)
C2 C 0.0956(9) 0.1568(8) 0.1817(3)
H1 H 0.1626 0.1300 0.1951
C3 C 0.0932(8) 0.2371(8) 0.1405(3)
H2 H 0.1594 0.2665 0.1273
C4 C 0.0000 0.2732(8) 0.1194(3)
C5 C 0.0000 0.3581(7) 0.0732(3)
O1 O 0.0908(4) 0.3878(5) 0.05683(18)
O2 O 0.2954(12) 0.5000 0.0000
Cu1A Cu -0.1074(2) 0.5000 0.0000
Cu1A_2 Cu -0.1074(2) -0.5000 0.0000
Cu1_2 Cu 0.1074(2) -0.5000 0.0000
Cu1B Cu 0.5000 0.1074(2) 0.5000
Cu1C Cu 0.5000 -0.1074(2) 0.5000
Cu1C_2 Cu -0.5000 -0.1074(2) 0.5000
Cu1B_2 Cu -0.5000 0.1074(2) 0.5000
C1A C 0.0000 -0.1174(7) 0.2023(3)
C1F C 0.1174(7) 0.0000 0.2977(3)
C1G C -0.1174(7) 0.0000 0.2977(3)
C2M C -0.0956(9) 0.1568(8) 0.1817(3)
C2A C -0.0956(9) -0.1568(8) 0.1817(3)
C2L C 0.0956(9) -0.1568(8) 0.1817(3)
C2F C 0.1568(8) 0.0956(9) 0.3183(3)
C2J C 0.1568(8) -0.0956(9) 0.3183(3)
C2G C -0.1568(8) -0.0956(9) 0.3183(3)
C2K C -0.1568(8) 0.0956(9) 0.3183(3)
H1M H -0.1626 0.1300 0.1951
H1A H -0.1626 -0.1300 0.1951
H1L H 0.1626 -0.1300 0.1951
H1F H 0.1300 0.1626 0.3049
H1J H 0.1300 -0.1626 0.3049
H1G H -0.1300 -0.1626 0.3049
H1K H -0.1300 0.1626 0.3049
C3M C -0.0932(8) 0.2371(8) 0.1405(3)
C3A C -0.0932(8) -0.2371(8) 0.1405(3)
C3L C 0.0932(8) -0.2371(8) 0.1405(3)
C3F C 0.2371(8) 0.0932(8) 0.3595(3)
C3J C 0.2371(8) -0.0932(8) 0.3595(3)
C3G C -0.2371(8) -0.0932(8) 0.3595(3)
C3K C -0.2371(8) 0.0932(8) 0.3595(3)
H2M H -0.1594 0.2665 0.1273
H2A H -0.1594 -0.2665 0.1273
H2L H 0.1594 -0.2665 0.1273
H2F H 0.2665 0.1594 0.3727
H2J H 0.2665 -0.1594 0.3727
H2G H -0.2665 -0.1594 0.3727
H2K H -0.2665 0.1594 0.3727
C4A C 0.0000 -0.2732(8) 0.1194(3)
C4F C 0.2732(8) 0.0000 0.3806(3)
C4G C -0.2732(8) 0.0000 0.3806(3)
C5A C 0.0000 -0.3581(7) 0.0732(3)
C5F C 0.3581(7) 0.0000 0.4268(3)
C5G C -0.3581(7) 0.0000 0.4268(3)
O1M O -0.0908(4) 0.3878(5) 0.05683(18)
O1A O -0.0908(4) -0.3878(5) 0.05683(18)
O1L O 0.0908(4) -0.3878(5) 0.05683(18)
O1F O 0.3878(5) 0.0908(4) 0.44317(18)
O1J O 0.3878(5) -0.0908(4) 0.44317(18)
O1G O -0.3878(5) -0.0908(4) 0.44317(18)
O1K O -0.3878(5) 0.0908(4) 0.44317(18)
O1E O 0.0908(4) 0.6122(5) -0.05683(18)
O1I O 0.0908(4) 0.3878(5) -0.05683(18)
O1L_2 O 0.0908(4) 0.6122(5) 0.05683(18)
O1H O -0.0908(4) 0.6122(5) -0.05683(18)
O1D O -0.0908(4) 0.3878(5) -0.05683(18)
O1A_2 O -0.0908(4) 0.6122(5) 0.05683(18)
O2A O -0.2954(12) 0.5000 0.0000
loop_
_geom_bond_atom_site_label_1
_geom_bond_atom_site_label_2
_geom_bond_site_symmetry_1
_geom_bond_site_symmetry_2
Cu1 O1 1_555 1_555
Si1 C1 1_555 1_555
C1 C2 1_555 1_555
C2 H1 1_555 1_555
C3 C2 1_555 1_555
H2 C3 1_555 1_555
C4 C3 1_555 1_555
C5 C4 1_555 1_555
O1 C5 1_555 1_555
O2 Cu1 1_555 1_555
Cu1A O1M 1_555 1_555
Cu1A_2 O1A 1_555 1_555
Cu1_2 O1L 1_555 1_555
Cu1B O1F 1_555 1_555
Cu1C O1J 1_555 1_555
Cu1C_2 O1G 1_555 1_555
Cu1B_2 O1K 1_555 1_555
C1A Si1 1_555 1_555
C1F Si1 1_555 1_555
C1G Si1 1_555 1_555
C2M C1 1_555 1_555
C2A C1A 1_555 1_555
C2L C1A 1_555 1_555
C2F C1F 1_555 1_555
C2J C1F 1_555 1_555
C2G C1G 1_555 1_555
C2K C1G 1_555 1_555
H1M C2M 1_555 1_555
H1A C2A 1_555 1_555
H1L C2L 1_555 1_555
H1F C2F 1_555 1_555
H1J C2J 1_555 1_555
H1G C2G 1_555 1_555
H1K C2K 1_555 1_555
C3M C4 1_555 1_555
C3A C2A 1_555 1_555
C3L C2L 1_555 1_555
C3F C2F 1_555 1_555
C3J C2J 1_555 1_555
C3G C2G 1_555 1_555
C3K C2K 1_555 1_555
H2M C3M 1_555 1_555
H2A C3A 1_555 1_555
H2L C3L 1_555 1_555
H2F C3F 1_555 1_555
H2J C3J 1_555 1_555
H2G C3G 1_555 1_555
H2K C3K 1_555 1_555
C4A C3A 1_555 1_555
C4F C3F 1_555 1_555
C4G C3G 1_555 1_555
C5A C4A 1_555 1_555
C5F C4F 1_555 1_555
C5G C4G 1_555 1_555
O1M C5 1_555 1_555
O1A C5A 1_555 1_555
O1L C5A 1_555 1_555
O1F C5F 1_555 1_555
O1J C5F 1_555 1_555
O1G C5G 1_555 1_555
O1K C5G 1_555 1_555
O1E Cu1 1_555 1_555
O1I Cu1 1_555 1_555
O1L_2 Cu1 1_555 1_555
O1H Cu1A 1_555 1_555
O1D Cu1A 1_555 1_555
O1A_2 Cu1A 1_555 1_555
O2A Cu1A 1_555 1_555
C2M C3M 1_555 1_555
C3L C4A 1_555 1_555
C3J C4F 1_555 1_555
C3K C4G 1_555 1_555

#END
