
#######################################################################
#
#                 Cambridge Crystallographic Data Centre
#                                CCDC 
#
#######################################################################
#
# If this CIF has been generated from an entry in the Cambridge 
# Structural Database, then it will include bibliographic, chemical, 
# crystal, experimental, refinement or atomic coordinate data resulting 
# from the CCDC's data processing and validation procedures.
#
#######################################################################

data_ENITEB
_chemical_formula_moiety         '(C56 H36 Cd3 O18 Si2 2-)n'
_symmetry_cell_setting           orthorhombic
_symmetry_space_group_name_H-M   'C 2 2 21'
_symmetry_Int_Tables_number      20
_space_group_name_Hall           'C 2c 2'
loop_
_symmetry_equiv_pos_site_id
_symmetry_equiv_pos_as_xyz
1 x,y,z
2 -x,-y,1/2+z
3 -x,y,1/2-z
4 x,-y,-z
5 1/2+x,1/2+y,z
6 1/2-x,1/2-y,1/2+z
7 1/2-x,1/2+y,1/2-z
8 1/2+x,1/2-y,-z
_cell_length_a                   15.62062(10)
_cell_length_b                   27.71138(15)
_cell_length_c                   22.84956(14)
_cell_angle_alpha                90
_cell_angle_beta                 90
_cell_angle_gamma                90
_cell_volume                     9890.86
loop_
_atom_site_label
_atom_site_type_symbol
_atom_site_fract_x
_atom_site_fract_y
_atom_site_fract_z
Cd1 Cd 0.264809(18) 0.414381(9) 0.629965(11)
Cd2 Cd 0.26495(3) 0.5000 0.5000
Si1 Si 0.76473(8) 0.40236(3) 0.44897(4)
C1 C 0.6654(2) 0.41641(14) 0.49093(16)
C2 C 0.5865(5) 0.4194(6) 0.4592(3)
H1 H 0.5881 0.4183 0.4176
C3 C 0.5088(6) 0.4240(6) 0.4864(4)
H2 H 0.4570 0.4230 0.4647
C4 C 0.5082(2) 0.43009(13) 0.54744(17)
C5 C 0.5810(4) 0.4255(5) 0.5796(4)
H3 H 0.5784 0.4255 0.6211
C6 C 0.6590(4) 0.4209(5) 0.5512(3)
H4 H 0.7100 0.4209 0.5738
C9 C 0.4220(3) 0.43301(16) 0.5768(2)
O1 O 0.3605(3) 0.45178(15) 0.54990(18)
O2 O 0.41179(18) 0.41423(13) 0.62636(16)
C10 C 0.7690(2) 0.33500(7) 0.43255(14)
C11 C 0.8216(2) 0.31764(10) 0.38823(15)
H5 H 0.8555 0.3394 0.3660
C12 C 0.8246(3) 0.26845(11) 0.37647(16)
H6 H 0.8605 0.2566 0.3462
C13 C 0.7750(3) 0.23663(7) 0.40904(18)
C14 C 0.7224(3) 0.25399(9) 0.45336(18)
H7 H 0.6885 0.2322 0.4756
C15 C 0.7194(2) 0.30318(10) 0.46511(14)
H8 H 0.6834 0.3150 0.4954
C16 C 0.7713(4) 0.18267(18) 0.3960(3)
O3 O 0.7593(3) 0.15320(11) 0.4382(2)
O4 O 0.7858(3) 0.16947(14) 0.3440(2)
C17 C 0.7600(3) 0.43784(11) 0.37930(14)
C18 C 0.7888(7) 0.48588(18) 0.3795(2)
H9 H 0.8142 0.4986 0.4140
C19 C 0.7808(6) 0.51509(19) 0.3305(2)
H10 H 0.7967 0.5482 0.3323
C20 C 0.7493(2) 0.49541(11) 0.27835(13)
C21 C 0.7253(6) 0.44761(17) 0.2763(2)
H11 H 0.7049 0.4340 0.2408
C22 C 0.7312(6) 0.41864(18) 0.3276(2)
H12 H 0.7149 0.3856 0.3261
C25 C 0.7421(3) 0.52657(12) 0.22455(16)
O5 O 0.7376(2) 0.50670(10) 0.17544(11)
O6 O 0.7417(2) 0.57130(9) 0.23020(11)
C26 C 0.86738(14) 0.41693(11) 0.48949(11)
C27 C 0.93662(18) 0.43607(14) 0.45914(9)
H13 H 0.9303 0.4454 0.4194
C28 C 1.01514(15) 0.44156(13) 0.48697(11)
H14 H 1.0625 0.4546 0.4662
C29 C 1.02443(14) 0.42790(11) 0.54516(11)
C30 C 0.95519(17) 0.40876(13) 0.57552(9)
H15 H 0.9615 0.3994 0.6153
C31 C 0.87667(14) 0.40328(12) 0.54768(11)
H16 H 0.8293 0.3902 0.5684
C32 C 1.1110(3) 0.43233(16) 0.5738(2)
O7 O 1.11860(17) 0.41411(15) 0.62477(15)
O8 O 1.1733(2) 0.45010(13) 0.54989(17)
O9 O 0.2698(4) 0.54771(11) 0.57554(15)
Cd1C Cd 0.264809(18) 0.585619(9) 0.370035(11)
Cd1G Cd 0.764809(18) 0.085619(9) 0.370035(11)
Cd1A Cd 0.735191(18) 0.585619(9) 0.129965(11)
Cd1_2 Cd 1.264809(18) 0.414381(9) 0.629965(11)
Cd1D Cd 0.764809(18) 0.914381(9) 0.629965(11)
Cd1B Cd 0.735191(18) 0.414381(9) 0.870035(11)
Cd1C_2 Cd 1.264809(18) 0.585619(9) 0.370035(11)
Cd2_2 Cd 1.26495(3) 0.5000 0.5000
Si1C Si 0.76473(8) 0.59764(3) 0.55103(4)
C1C C 0.6654(2) 0.58359(14) 0.50907(16)
C2C C 0.5865(5) 0.5806(6) 0.5408(3)
H1C H 0.5881 0.5817 0.5824
C3C C 0.5088(6) 0.5760(6) 0.5136(4)
H2C H 0.4570 0.5770 0.5353
C4C C 0.5082(2) 0.56991(13) 0.45256(17)
C5C C 0.5810(4) 0.5745(5) 0.4204(4)
H3C H 0.5784 0.5745 0.3789
C6C C 0.6590(4) 0.5791(5) 0.4488(3)
H4C H 0.7100 0.5791 0.4262
C9C C 0.4220(3) 0.56699(16) 0.4232(2)
O1C O 0.3605(3) 0.54822(15) 0.45010(18)
O2C O 0.41179(18) 0.58577(13) 0.37364(16)
C10C C 0.7690(2) 0.66500(7) 0.56745(14)
C11C C 0.8216(2) 0.68236(10) 0.61177(15)
H5C H 0.8555 0.6606 0.6340
C12C C 0.8246(3) 0.73155(11) 0.62353(16)
H6C H 0.8605 0.7434 0.6538
C13C C 0.7750(3) 0.76337(7) 0.59096(18)
C14C C 0.7224(3) 0.74601(9) 0.54664(18)
H7C H 0.6885 0.7678 0.5244
C15C C 0.7194(2) 0.69682(10) 0.53489(14)
H8C H 0.6834 0.6850 0.5046
C16C C 0.7713(4) 0.81733(18) 0.6040(3)
O3C O 0.7593(3) 0.84680(11) 0.5618(2)
O3G O 0.2593(3) 0.34680(11) 0.5618(2)
O3D O 0.2593(3) 0.65320(11) 0.4382(2)
O4C O 0.7858(3) 0.83053(14) 0.6560(2)
O4G O 0.2858(3) 0.33053(14) 0.6560(2)
O4D O 0.2858(3) 0.66947(14) 0.3440(2)
C17C C 0.7600(3) 0.56216(11) 0.62070(14)
C18C C 0.7888(7) 0.51412(18) 0.6205(2)
H9C H 0.8142 0.5014 0.5860
C19C C 0.7808(6) 0.48491(19) 0.6695(2)
H10C H 0.7967 0.4518 0.6677
C20C C 0.7493(2) 0.50459(11) 0.72165(13)
C21C C 0.7253(6) 0.55239(17) 0.7237(2)
H11C H 0.7049 0.5660 0.7592
C22C C 0.7312(6) 0.58136(18) 0.6724(2)
H12C H 0.7149 0.6144 0.6739
C25C C 0.7421(3) 0.47343(12) 0.77545(16)
O5C O 0.7376(2) 0.49330(10) 0.82456(11)
O5A O 0.2624(2) 0.49330(10) 0.67544(11)
O5B O 0.2624(2) 0.50670(10) 0.32456(11)
O6C O 0.7417(2) 0.42870(9) 0.76980(11)
O6A O 0.2583(2) 0.42870(9) 0.73020(11)
O6B O 0.2583(2) 0.57130(9) 0.26980(11)
C26C C 0.86738(14) 0.58307(11) 0.51051(11)
C27C C 0.93662(18) 0.56393(14) 0.54086(9)
H13C H 0.9303 0.5546 0.5806
C28C C 1.01514(15) 0.55844(13) 0.51303(11)
H14C H 1.0625 0.5454 0.5338
C29C C 1.02443(14) 0.57210(11) 0.45484(11)
C30C C 0.95519(17) 0.59124(13) 0.42448(9)
H15C H 0.9615 0.6006 0.3847
C31C C 0.87667(14) 0.59672(12) 0.45232(11)
H16C H 0.8293 0.6098 0.4316
C32C C 1.1110(3) 0.56767(16) 0.4262(2)
O7C O 1.11860(17) 0.58589(15) 0.37523(15)
O7_2 O 0.11860(17) 0.41411(15) 0.62477(15)
O7C_2 O 0.11860(17) 0.58589(15) 0.37523(15)
O8C O 1.1733(2) 0.54990(13) 0.45011(17)
O8_2 O 0.1733(2) 0.45010(13) 0.54989(17)
O8C_2 O 0.1733(2) 0.54990(13) 0.45011(17)
O9C O 0.2698(4) 0.45229(11) 0.42446(15)
loop_
_geom_bond_atom_site_label_1
_geom_bond_atom_site_label_2
_geom_bond_site_symmetry_1
_geom_bond_site_symmetry_2
Cd1 O1 1_555 1_555
Cd2 O1 1_555 1_555
Si1 C1 1_555 1_555
C1 C2 1_555 1_555
C2 H1 1_555 1_555
C3 C2 1_555 1_555
H2 C3 1_555 1_555
C4 C3 1_555 1_555
C5 C4 1_555 1_555
H3 C5 1_555 1_555
C6 C1 1_555 1_555
H4 C6 1_555 1_555
C9 C4 1_555 1_555
O1 C9 1_555 1_555
O2 Cd1 1_555 1_555
C10 Si1 1_555 1_555
C11 C10 1_555 1_555
H5 C11 1_555 1_555
C12 C11 1_555 1_555
H6 C12 1_555 1_555
C13 C12 1_555 1_555
C14 C13 1_555 1_555
H7 C14 1_555 1_555
C15 C10 1_555 1_555
H8 C15 1_555 1_555
C16 C13 1_555 1_555
O3 C16 1_555 1_555
O4 C16 1_555 1_555
C17 Si1 1_555 1_555
C18 C17 1_555 1_555
H9 C18 1_555 1_555
C19 C18 1_555 1_555
H10 C19 1_555 1_555
C20 C19 1_555 1_555
C21 C20 1_555 1_555
H11 C21 1_555 1_555
C22 C17 1_555 1_555
H12 C22 1_555 1_555
C25 C20 1_555 1_555
O5 C25 1_555 1_555
O6 C25 1_555 1_555
C26 Si1 1_555 1_555
C27 C26 1_555 1_555
H13 C27 1_555 1_555
C28 C27 1_555 1_555
H14 C28 1_555 1_555
C29 C28 1_555 1_555
C30 C29 1_555 1_555
H15 C30 1_555 1_555
C31 C26 1_555 1_555
H16 C31 1_555 1_555
C32 C29 1_555 1_555
O7 C32 1_555 1_555
O8 C32 1_555 1_555
O9 Cd2 1_555 1_555
Cd1C O1C 1_555 1_555
Cd1G O3 1_555 1_555
Cd1A O5 1_555 1_555
Cd1_2 O7 1_555 1_555
Cd1D O3C 1_555 1_555
Cd1B O5C 1_555 1_555
Cd1C_2 O7C 1_555 1_555
Cd2_2 O8 1_555 1_555
Si1C C1C 1_555 1_555
C1C C2C 1_555 1_555
C2C H1C 1_555 1_555
C3C C2C 1_555 1_555
H2C C3C 1_555 1_555
C4C C3C 1_555 1_555
C5C C4C 1_555 1_555
H3C C5C 1_555 1_555
C6C C1C 1_555 1_555
H4C C6C 1_555 1_555
C9C C4C 1_555 1_555
O1C Cd2 1_555 1_555
O2C Cd1C 1_555 1_555
C10C Si1C 1_555 1_555
C11C C10C 1_555 1_555
H5C C11C 1_555 1_555
C12C C11C 1_555 1_555
H6C C12C 1_555 1_555
C13C C12C 1_555 1_555
C14C C13C 1_555 1_555
H7C C14C 1_555 1_555
C15C C10C 1_555 1_555
H8C C15C 1_555 1_555
C16C C13C 1_555 1_555
O3C C16C 1_555 1_555
O3G Cd1 1_555 1_555
O3D Cd1C 1_555 1_555
O4C Cd1D 1_555 1_555
O4G Cd1 1_555 1_555
O4D Cd1C 1_555 1_555
C17C Si1C 1_555 1_555
C18C C17C 1_555 1_555
H9C C18C 1_555 1_555
C19C C18C 1_555 1_555
H10C C19C 1_555 1_555
C20C C19C 1_555 1_555
C21C C20C 1_555 1_555
H11C C21C 1_555 1_555
C22C C17C 1_555 1_555
H12C C22C 1_555 1_555
C25C C20C 1_555 1_555
O5C C25C 1_555 1_555
O5A Cd1 1_555 1_555
O5B Cd1C 1_555 1_555
O6C Cd1B 1_555 1_555
O6A Cd1 1_555 1_555
O6B Cd1C 1_555 1_555
C26C Si1C 1_555 1_555
C27C C26C 1_555 1_555
H13C C27C 1_555 1_555
C28C C27C 1_555 1_555
H14C C28C 1_555 1_555
C29C C28C 1_555 1_555
C30C C29C 1_555 1_555
H15C C30C 1_555 1_555
C31C C26C 1_555 1_555
H16C C31C 1_555 1_555
C32C C29C 1_555 1_555
O7C C32C 1_555 1_555
O7_2 Cd1 1_555 1_555
O7C_2 Cd1C 1_555 1_555
O8C Cd1C_2 1_555 1_555
O8_2 Cd1 1_555 1_555
O8C_2 Cd2 1_555 1_555
O9C Cd2 1_555 1_555
Cd2 O8_2 1_555 1_555
C5 C6 1_555 1_555
C9 O2 1_555 1_555
C14 C15 1_555 1_555
O4 Cd1G 1_555 1_555
C21 C22 1_555 1_555
O6 Cd1A 1_555 1_555
C30 C31 1_555 1_555
O8 Cd1_2 1_555 1_555
Cd1C O8C_2 1_555 1_555
Cd2_2 O8C 1_555 1_555
C5C C6C 1_555 1_555
C9C O1C 1_555 1_555
C9C O2C 1_555 1_555
C14C C15C 1_555 1_555
C16C O4C 1_555 1_555
C21C C22C 1_555 1_555
C25C O6C 1_555 1_555
C30C C31C 1_555 1_555
C32C O8C 1_555 1_555

#END
