
#######################################################################
#
#                 Cambridge Crystallographic Data Centre
#                                CCDC 
#
#######################################################################
#
# If this CIF has been generated from an entry in the Cambridge 
# Structural Database, then it will include bibliographic, chemical, 
# crystal, experimental, refinement or atomic coordinate data resulting 
# from the CCDC's data processing and validation procedures.
#
#######################################################################

data_OTUYEJ
_chemical_formula_moiety         '(C8 H42 As4 Mn7 N12 O2 S13)n'
_symmetry_cell_setting           monoclinic
_symmetry_space_group_name_H-M   'C c'
_symmetry_Int_Tables_number      9
_space_group_name_Hall           'C -2yc'
loop_
_symmetry_equiv_pos_site_id
_symmetry_equiv_pos_as_xyz
1 x,y,z
2 x,-y,1/2+z
3 1/2+x,1/2+y,z
4 1/2+x,1/2-y,1/2+z
_cell_length_a                   14.802(3)
_cell_length_b                   14.780(3)
_cell_length_c                   20.801(4)
_cell_angle_alpha                90
_cell_angle_beta                 90.36(3)
_cell_angle_gamma                90
_cell_volume                     4550.62
loop_
_atom_site_label
_atom_site_type_symbol
_atom_site_fract_x
_atom_site_fract_y
_atom_site_fract_z
_atom_site_U_iso_or_equiv
_atom_site_thermal_displace_type
As1 As 0.54589(11) 0.02503(11) 0.37157(8) 0.0359 Uani
As2 As 0.38037(11) -0.22637(10) 0.12329(7) 0.0341 Uani
As3 As 0.33590(11) 0.23164(10) 0.12136(7) 0.0353 Uani
As4 As 0.09077(10) -0.02067(10) 0.32931(8) 0.0335 Uani
Mn1 Mn 0.47288(15) -0.11094(14) 0.24993(10) 0.0290 Uani
Mn2 Mn 0.44835(15) 0.13526(15) 0.24599(11) 0.0285 Uani
Mn3 Mn 0.31677(17) 0.00072(16) 0.36021(10) 0.0281 Uani
Mn4 Mn 0.22698(15) -0.13461(14) 0.22448(11) 0.0294 Uani
Mn5 Mn 0.35999(16) 0.00260(14) 0.11497(11) 0.0281 Uani
Mn6 Mn 0.20532(14) 0.11259(15) 0.22583(10) 0.0285 Uani
S1 S 0.3385(3) 0.0004(2) 0.23712(19) 0.0183 Uani
S2 S 0.5838(3) 0.0258(3) 0.2667(2) 0.0346 Uani
S3 S 0.4615(3) -0.1011(2) 0.37383(17) 0.0325 Uani
S4 S 0.3620(2) -0.2464(2) 0.22943(18) 0.0328 Uani
S5 S 0.4884(2) -0.1187(2) 0.12509(17) 0.0300 Uani
S6 S 0.4366(3) 0.1298(2) 0.37156(17) 0.0311 Uani
S7 S 0.4618(3) 0.1474(3) 0.12129(18) 0.0340 Uani
S8 S 0.3163(3) 0.2492(2) 0.22787(19) 0.0344 Uani
S9 S 0.2330(3) 0.1234(3) 0.10169(18) 0.0334 Uani
S10 S 0.1966(3) -0.1273(2) 0.34842(18) 0.0327 Uani
S11 S 0.2568(2) -0.1436(3) 0.10105(17) 0.0330 Uani
S12 S 0.0915(2) -0.0212(2) 0.22129(19) 0.0302 Uani
S13 S 0.1717(3) 0.1045(3) 0.34981(18) 0.0338 Uani
N1 N 0.5878(9) -0.2120(7) 0.2595(6) 0.0341 Uani
H1 H 0.6398 -0.1815 0.2539 0.0410 Uiso
H2 H 0.5880 -0.2323 0.3003 0.0410 Uiso
N2 N 0.5902(7) -0.2883(7) 0.2188(6) 0.0294 Uani
H3 H 0.5883 -0.2679 0.1781 0.0350 Uiso
H4 H 0.5388 -0.3195 0.2252 0.0350 Uiso
N3 N 0.5465(8) 0.2512(8) 0.2523(6) 0.0340 Uani
H5 H 0.5168 0.3020 0.2411 0.0410 Uiso
H6 H 0.5630 0.2574 0.2938 0.0410 Uiso
N4 N 0.6266(8) 0.2466(7) 0.2150(6) 0.0330 Uani
H7 H 0.6103 0.2419 0.1734 0.0390 Uiso
H8 H 0.6560 0.1954 0.2257 0.0390 Uiso
N5 N 0.2975(9) 0.0024(8) 0.4691(6) 0.0330 Uani
H9 H 0.2668 0.0528 0.4795 0.0400 Uiso
H10 H 0.2629 -0.0453 0.4799 0.0400 Uiso
N6 N 0.3774(9) -0.0005(8) 0.5073(5) 0.0353 Uani
H11 H 0.4113 0.0479 0.4972 0.0430 Uiso
H12 H 0.4088 -0.0501 0.4960 0.0430 Uiso
Mn4B Mn 0.72698(15) 0.36539(14) 0.22448(11) 0.0294 Uani
Mn5A Mn 0.35999(16) -0.00260(14) 0.61497(11) 0.0281 Uani
Mn6B Mn 0.70532(14) -0.38741(15) 0.22583(10) 0.0285 Uani
N2B N 0.0902(7) 0.2117(7) 0.2188(6) 0.0294 Uani
N4B N 0.1266(8) -0.2534(7) 0.2150(6) 0.0330 Uani
N6A N 0.3774(9) 0.0005(8) 0.0073(5) 0.0353 Uani
Mn7 Mn 0.3406(2) 0.49516(17) 0.48446(16) 0.0502 Uani
N7 N 0.2750(13) 0.6060(13) 0.4238(11) 0.0841 Uani
H13 H 0.2448 0.5807 0.3908 0.1050 Uiso
H14 H 0.2350 0.6366 0.4480 0.1025 Uiso
N8 N 0.4440(14) 0.5977(13) 0.4755(11) 0.0841 Uani
H15 H 0.4716 0.5710 0.4415 0.1050 Uiso
N9 N 0.4614(11) 0.4414(12) 0.5419(8) 0.0731 Uani
H16 H 0.4443 0.4324 0.5829 0.0870 Uiso
H17 H 0.4777 0.3874 0.5256 0.0870 Uiso
N10 N 0.2577(11) 0.5345(10) 0.5738(8) 0.0657 Uani
H18 H 0.2949 0.5396 0.6080 0.0790 Uiso
H19 H 0.2316 0.5887 0.5671 0.0790 Uiso
N11 N 0.2388(14) 0.3883(14) 0.4938(9) 0.0766 Uani
N12 N 0.3642(11) 0.4025(10) 0.3972(8) 0.0676 Uani
H20 H 0.3674 0.4366 0.3614 0.0810 Uiso
H21 H 0.4174 0.3738 0.4021 0.0810 Uiso
C1 C 0.3417(14) 0.6680(16) 0.3993(12) 0.0807 Uani
H22 H 0.3134 0.7266 0.3929 0.1020 Uiso
H23 H 0.3616 0.6465 0.3577 0.1020 Uiso
C2 C 0.4223(17) 0.6800(15) 0.4416(13) 0.0807 Uani
H24 H 0.4736 0.6981 0.4158 0.1020 Uiso
H25 H 0.4107 0.7278 0.4724 0.1020 Uiso
C3 C 0.5227(12) 0.5926(14) 0.5177(10) 0.0811 Uani
H26 H 0.5752 0.6138 0.4944 0.0970 Uiso
H27 H 0.5137 0.6328 0.5539 0.0970 Uiso
C4 C 0.5408(15) 0.5019(12) 0.5418(13) 0.0861 Uani
H28 H 0.5641 0.5066 0.5853 0.1040 Uiso
H29 H 0.5875 0.4747 0.5156 0.1040 Uiso
C5 C 0.1883(16) 0.4679(14) 0.5876(11) 0.0816 Uani
H30 H 0.2071 0.4344 0.6255 0.1000 Uiso
H31 H 0.1334 0.5001 0.5986 0.1000 Uiso
C6 C 0.1661(15) 0.4032(15) 0.5377(11) 0.0816 Uani
H32 H 0.1500 0.3461 0.5576 0.1100 Uiso
H33 H 0.1138 0.4247 0.5139 0.1100 Uiso
C7 C 0.250(3) 0.3114(16) 0.4507(11) 0.0825 Uani
C8 C 0.2926(14) 0.3353(15) 0.3891(9) 0.0825 Uani
O1 O 0.587(3) 0.249(3) 0.4868(17) 0.0959 Uani
O2 O 0.345(3) 0.491(2) 0.728(3) 0.0958 Uani
loop_
_atom_site_aniso_label
_atom_site_aniso_U_11
_atom_site_aniso_U_22
_atom_site_aniso_U_33
_atom_site_aniso_U_23
_atom_site_aniso_U_13
_atom_site_aniso_U_12
As1 0.0312(9) 0.0386(9) 0.0379(9) 0.0007(7) -0.0105(7) -0.0006(7)
As2 0.0379(9) 0.0264(8) 0.0381(9) -0.0099(6) -0.0006(7) 0.0005(6)
As3 0.0424(10) 0.0267(7) 0.0367(9) 0.0086(6) 0.0011(7) -0.0012(6)
As4 0.0233(8) 0.0393(9) 0.0379(8) -0.0013(7) 0.0067(6) -0.0024(7)
Mn1 0.0298(13) 0.0229(11) 0.0343(12) -0.0033(9) -0.0025(10) 0.0056(9)
Mn2 0.0282(12) 0.0266(11) 0.0308(11) 0.0009(9) -0.0015(9) -0.0065(9)
Mn3 0.0291(11) 0.0341(12) 0.0212(11) -0.0016(9) -0.0033(9) -0.0013(8)
Mn4 0.0244(12) 0.0271(11) 0.0366(12) 0.0004(10) 0.0014(10) -0.0032(9)
Mn5 0.0333(12) 0.0295(11) 0.0216(11) -0.0013(8) -0.0003(9) 0.0007(8)
Mn6 0.0250(12) 0.0258(11) 0.0347(12) 0.0022(9) -0.0005(10) 0.0039(9)
S1 0.0196(15) 0.0175(13) 0.0179(14) 0.0007(12) 0.0028(12) -0.0011(12)
S2 0.0272(19) 0.0315(19) 0.045(2) 0.0015(17) 0.0042(17) -0.0030(16)
S3 0.039(2) 0.0285(19) 0.0299(19) 0.0041(15) 0.0018(16) 0.0079(16)
S4 0.032(2) 0.0254(18) 0.041(2) 0.0079(16) 0.0018(17) 0.0006(14)
S5 0.0238(19) 0.0321(19) 0.034(2) -0.0023(15) 0.0037(16) 0.0037(14)
S6 0.035(2) 0.0275(19) 0.0308(19) -0.0031(15) -0.0001(16) -0.0033(15)
S7 0.027(2) 0.041(2) 0.034(2) -0.0010(17) 0.0031(16) -0.0096(16)
S8 0.035(2) 0.0284(19) 0.040(2) -0.0061(16) 0.0047(17) 0.0043(15)
S9 0.031(2) 0.037(2) 0.032(2) -0.0012(16) -0.0047(16) 0.0033(16)
S10 0.038(2) 0.028(2) 0.032(2) 0.0034(15) -0.0022(16) -0.0072(16)
S11 0.027(2) 0.041(2) 0.0308(19) 0.0009(16) -0.0041(16) -0.0028(16)
S12 0.0242(19) 0.0292(18) 0.037(2) -0.0024(15) -0.0056(15) -0.0018(15)
S13 0.037(2) 0.0305(19) 0.034(2) -0.0029(16) -0.0026(17) 0.0019(15)
N1 0.046(8) 0.014(6) 0.042(7) -0.007(5) -0.012(6) 0.005(5)
N2 0.026(6) 0.030(6) 0.032(7) -0.003(5) -0.011(5) 0.012(5)
N3 0.035(7) 0.034(7) 0.033(7) -0.010(5) -0.008(5) -0.003(5)
N4 0.025(6) 0.021(6) 0.053(7) -0.016(5) 0.003(6) -0.007(5)
N5 0.042(8) 0.028(7) 0.029(7) 0.001(5) -0.011(6) 0.004(5)
N6 0.037(8) 0.053(8) 0.016(6) 0.005(5) 0.005(6) 0.007(6)
Mn4B 0.0244 0.0271 0.0366 0.0004 0.0014 -0.0032
Mn5A 0.0333 0.0295 0.0216 0.0013 -0.0003 -0.0007
Mn6B 0.025 0.0258 0.0347 0.0022 -0.0005 0.0039
N2B 0.026 0.03 0.032 -0.003 -0.011 0.012
N4B 0.025 0.021 0.053 -0.016 0.003 -0.007
N6A 0.037 0.053 0.016 -0.005 0.005 -0.007
Mn7 0.0461(15) 0.0502(15) 0.0544(16) 0.0076(13) -0.0014(12) -0.0155(13)
N7 0.099(9) 0.079(8) 0.074(10) 0.017(7) -0.017(8) -0.011(6)
N8 0.099(9) 0.079(8) 0.074(10) 0.017(7) -0.017(8) -0.011(6)
N9 0.076(12) 0.069(11) 0.074(11) 0.014(9) -0.012(9) -0.006(9)
N10 0.082(12) 0.051(9) 0.064(10) 0.004(8) -0.018(9) -0.005(9)
N11 0.082(19) 0.072(18) 0.076(15) -0.024(14) 0.011(15) -0.014(15)
N12 0.058(10) 0.070(11) 0.075(11) -0.010(9) 0.012(9) 0.003(8)
C1 0.099(9) 0.079(8) 0.064(10) 0.027(7) -0.017(8) -0.011(6)
C2 0.099(9) 0.079(8) 0.064(10) 0.027(7) -0.017(8) -0.011(6)
C3 0.056(13) 0.093(17) 0.094(16) 0.035(13) -0.026(12) -0.034(12)
C4 0.10(2) 0.062(14) 0.096(19) -0.009(12) -0.029(15) 0.010(13)
C5 0.096(13) 0.076(11) 0.073(13) -0.021(10) 0.015(11) -0.019(10)
C6 0.096(13) 0.076(11) 0.073(13) -0.021(10) 0.015(11) -0.019(10)
C7 0.082(14) 0.090(13) 0.076(11) -0.023(10) 0.032(10) -0.015(11)
C8 0.082(14) 0.090(13) 0.076(11) -0.023(10) 0.032(10) -0.015(11)
O1 0.10(3) 0.095(4) 0.093(2) -0.010(3) 0.017(3) -0.011(3)
O2 0.09(2) 0.10(2) 0.097(7) -0.018(3) -0.021(4) 0.013(2)
loop_
_geom_bond_atom_site_label_1
_geom_bond_atom_site_label_2
_geom_bond_site_symmetry_1
_geom_bond_site_symmetry_2
As1 S2 1_555 1_555
As2 S4 1_555 1_555
As3 S7 1_555 1_555
As4 S10 1_555 1_555
Mn1 S1 1_555 1_555
Mn2 S1 1_555 1_555
Mn3 S1 1_555 1_555
Mn4 S1 1_555 1_555
Mn5 S1 1_555 1_555
Mn6 S1 1_555 1_555
S2 Mn1 1_555 1_555
S3 As1 1_555 1_555
S4 Mn1 1_555 1_555
S5 As2 1_555 1_555
S6 As1 1_555 1_555
S7 Mn2 1_555 1_555
S8 As3 1_555 1_555
S9 As3 1_555 1_555
S10 Mn3 1_555 1_555
S11 As2 1_555 1_555
S12 As4 1_555 1_555
S13 As4 1_555 1_555
N1 Mn1 1_555 1_555
H1 N1 1_555 1_555
H2 N1 1_555 1_555
N2 N1 1_555 1_555
H3 N2 1_555 1_555
H4 N2 1_555 1_555
N3 Mn2 1_555 1_555
H5 N3 1_555 1_555
H6 N3 1_555 1_555
N4 N3 1_555 1_555
H7 N4 1_555 1_555
H8 N4 1_555 1_555
N5 Mn3 1_555 1_555
H9 N5 1_555 1_555
H10 N5 1_555 1_555
N6 N5 1_555 1_555
H11 N6 1_555 1_555
H12 N6 1_555 1_555
Mn7 N7 1_555 1_555
N7 H13 1_555 1_555
H14 N7 1_555 1_555
N8 Mn7 1_555 1_555
H15 N8 1_555 1_555
N9 Mn7 1_555 1_555
H16 N9 1_555 1_555
H17 N9 1_555 1_555
N10 Mn7 1_555 1_555
H18 N10 1_555 1_555
H19 N10 1_555 1_555
N11 Mn7 1_555 1_555
N12 Mn7 1_555 1_555
H20 N12 1_555 1_555
H21 N12 1_555 1_555
C1 N7 1_555 1_555
H22 C1 1_555 1_555
H23 C1 1_555 1_555
C2 N8 1_555 1_555
H24 C2 1_555 1_555
H25 C2 1_555 1_555
C3 N8 1_555 1_555
H26 C3 1_555 1_555
H27 C3 1_555 1_555
C4 N9 1_555 1_555
H28 C4 1_555 1_555
H29 C4 1_555 1_555
C5 N10 1_555 1_555
H30 C5 1_555 1_555
H31 C5 1_555 1_555
C6 N11 1_555 1_555
H32 C6 1_555 1_555
H33 C6 1_555 1_555
C7 N11 1_555 1_555
C8 N12 1_555 1_555
Mn4B N4 1_555 1_555
Mn5A N6 1_555 1_555
Mn6B N2 1_555 1_555
N2B Mn6 1_555 1_555
N4B Mn4 1_555 1_555
N6A Mn5 1_555 1_555
Mn1 S3 1_555 1_555
Mn1 S5 1_555 1_555
Mn2 S2 1_555 1_555
Mn2 S6 1_555 1_555
Mn2 S8 1_555 1_555
Mn3 S3 1_555 1_555
Mn3 S6 1_555 1_555
Mn3 S13 1_555 1_555
Mn4 S4 1_555 1_555
Mn4 S10 1_555 1_555
Mn4 S11 1_555 1_555
Mn4 S12 1_555 1_555
Mn5 S5 1_555 1_555
Mn5 S7 1_555 1_555
Mn5 S9 1_555 1_555
Mn5 S11 1_555 1_555
Mn6 S8 1_555 1_555
Mn6 S9 1_555 1_555
Mn6 S12 1_555 1_555
Mn6 S13 1_555 1_555
C1 C2 1_555 1_555
C3 C4 1_555 1_555
C5 C6 1_555 1_555
C7 C8 1_555 1_555

#END
