
#######################################################################
#
#                 Cambridge Crystallographic Data Centre
#                                CCDC 
#
#######################################################################
#
# If this CIF has been generated from an entry in the Cambridge 
# Structural Database, then it will include bibliographic, chemical, 
# crystal, experimental, refinement or atomic coordinate data resulting 
# from the CCDC's data processing and validation procedures.
#
#######################################################################

data_YANBAR
_chemical_formula_moiety         '(C15 H19 Co6 N1 O25)n'
_symmetry_cell_setting           monoclinic
_symmetry_space_group_name_H-M   'P 21/n'
_symmetry_Int_Tables_number      14
_space_group_name_Hall           '-P 2yn'
loop_
_symmetry_equiv_pos_site_id
_symmetry_equiv_pos_as_xyz
1 x,y,z
2 1/2-x,1/2+y,1/2-z
3 -x,-y,-z
4 1/2+x,1/2-y,1/2+z
_cell_length_a                   11.3457(7)
_cell_length_b                   10.0117(7)
_cell_length_c                   14.8200(10)
_cell_angle_alpha                90
_cell_angle_beta                 91.3720(10)
_cell_angle_gamma                90
_cell_volume                     1682.92
loop_
_atom_site_label
_atom_site_type_symbol
_atom_site_fract_x
_atom_site_fract_y
_atom_site_fract_z
Co1 Co 0.5000 0.5000 0.5000
Co2 Co 0.0000 0.5000 0.5000
Co3 Co 0.24509(3) 0.42763(4) 0.36592(2)
Co4 Co 0.26055(3) 0.62263(3) 0.19538(2)
O1 O 0.3143(2) 0.5265(2) 0.47710(10)
O2 O 0.1518(2) 0.5967(2) 0.5439(2)
O3 O 0.5413(2) 0.5099(2) 0.36380(10)
O4 O 0.3716(2) 0.5167(2) 0.28540(10)
O5 O 0.4813(2) 0.2949(2) 0.49330(10)
O6 O 0.3432(2) 0.2510(2) 0.38680(10)
O7 O -0.0066(2) 0.6277(2) 0.38920(10)
O8 O 0.1524(2) 0.5900(2) 0.30760(10)
O9 O 0.0984(2) 0.3525(2) 0.43120(10)
O10 O 0.1036(2) 0.1362(2) 0.39340(10)
O11 O 0.1949(2) 0.3116(2) 0.25120(10)
O12 O 0.1936(2) 0.4540(2) 0.13470(10)
C1 C 0.2586(3) 0.5950(3) 0.5345(2)
C2 C 0.4821(3) 0.5279(3) 0.2946(2)
C3 C 0.4237(3) 0.2191(3) 0.4439(2)
C4 C 0.0583(3) 0.6512(3) 0.3258(2)
C5 C 0.0624(3) 0.2335(3) 0.4330(2)
C6 C 0.1788(3) 0.3426(3) 0.1686(2)
H1 H 0.3035 0.6491 0.5731
H2 H 0.5228 0.5523 0.2434
H3 H 0.4410 0.1286 0.4489
H4 H 0.0360 0.7208 0.2875
H5 H -0.0028 0.2170 0.4683
H6 H 0.1534 0.2748 0.1299
Co2_2 Co 1.0000 0.5000 0.5000
Co3B Co 0.75491(3) 0.57237(4) 0.63408(2)
Co3B_2 Co -0.24509(3) 0.57237(4) 0.63408(2)
Co3A Co 0.25491(3) 0.92763(4) 0.13408(2)
Co4B Co 0.73945(3) 0.37737(3) 0.80462(2)
Co4A Co 0.23945(3) 0.12263(3) 0.30462(2)
Co4C Co 0.76055(3) 0.87737(3) 0.69538(2)
Co4B_2 Co -0.26055(3) 0.37737(3) 0.80462(2)
Co4C_2 Co -0.23945(3) 0.87737(3) 0.69538(2)
Co4A_2 Co 0.23945(3) 1.12263(3) 0.30462(2)
O1B O 0.6857(2) 0.4735(2) 0.52290(10)
O2B O 0.8482(2) 0.4033(2) 0.4561(2)
O2B_2 O -0.1518(2) 0.4033(2) 0.4561(2)
O3B O 0.4587(2) 0.4901(2) 0.63620(10)
O4B O 0.6284(2) 0.4833(2) 0.71460(10)
O5B O 0.5187(2) 0.7051(2) 0.50670(10)
O6B O 0.6568(2) 0.7490(2) 0.61320(10)
O6A O 0.1568(2) 0.7510(2) 0.11320(10)
O6C O 0.8432(2) 0.2490(2) 0.88680(10)
O7B O 0.0066(2) 0.3723(2) 0.61080(10)
O8B O -0.1524(2) 0.4100(2) 0.69240(10)
O8B_2 O 0.8476(2) 0.4100(2) 0.69240(10)
O9B O -0.0984(2) 0.6475(2) 0.56880(10)
O9B_2 O 0.9016(2) 0.6475(2) 0.56880(10)
O10B O -0.1036(2) 0.8638(2) 0.60660(10)
O10A O 0.3964(2) 0.6362(2) 0.10660(10)
O10C O 0.6036(2) 0.3638(2) 0.89340(10)
O11A O 0.3051(2) 0.8116(2) 0.24880(10)
O11B O 0.8051(2) 0.6884(2) 0.74880(10)
O11C O 0.6949(2) 0.1884(2) 0.75120(10)
O12A O 0.3064(2) 0.9540(2) 0.36530(10)
O12B O 0.8064(2) 0.5460(2) 0.86530(10)
C1B C 0.7414(3) 0.4050(3) 0.4655(2)
C2B C 0.5179(3) 0.4721(3) 0.7054(2)
C3B C 0.5763(3) 0.7809(3) 0.5561(2)
C4B C -0.0583(3) 0.3488(3) 0.6742(2)
C5B C -0.0624(3) 0.7665(3) 0.5670(2)
C6A C 0.3212(3) 0.8426(3) 0.3314(2)
H1B H 0.6965 0.3509 0.4269
H2B H 0.4772 0.4477 0.7566
H3B H 0.5590 0.8714 0.5511
H4B H -0.0360 0.2792 0.7125
H5B H 0.0028 0.7830 0.5317
H6A H 0.3466 0.7748 0.3701
O13 O 0.3714(5) 0.8617(5) 0.6659(3)
N1 N 0.2888(3) 1.0663(4) 0.6607(2)
C7 C 0.2937(6) 0.9422(9) 0.6307(4)
C8 C 0.3687(9) 1.1130(10) 0.7302(6)
C9 C 0.2078(9) 1.1630(10) 0.6271(7)
H7 H 0.2422 0.9131 0.5850
H8 H 0.3264 1.1648 0.7729
H9 H 0.4289 1.1663 0.7039
H10 H 0.4044 1.0372 0.7603
H11 H 0.1534 1.1214 0.5851
H12 H 0.2498 1.2327 0.5971
H13 H 0.1651 1.2002 0.6763
loop_
_geom_bond_atom_site_label_1
_geom_bond_atom_site_label_2
_geom_bond_site_symmetry_1
_geom_bond_site_symmetry_2
Co1 O1 1_555 1_555
Co2 O2 1_555 1_555
Co3 O1 1_555 1_555
Co4 O4 1_555 1_555
O1 C1 1_555 1_555
O2 C1 1_555 1_555
O3 Co1 1_555 1_555
O4 Co3 1_555 1_555
O5 Co1 1_555 1_555
O6 Co3 1_555 1_555
O7 Co2 1_555 1_555
O8 Co3 1_555 1_555
O9 Co2 1_555 1_555
O10 C5 1_555 1_555
O11 Co3 1_555 1_555
O12 Co4 1_555 1_555
C1 H1 1_555 1_555
C2 O3 1_555 1_555
C3 O5 1_555 1_555
C4 O7 1_555 1_555
C5 O9 1_555 1_555
C6 O11 1_555 1_555
H2 C2 1_555 1_555
H3 C3 1_555 1_555
H4 C4 1_555 1_555
H5 C5 1_555 1_555
H6 C6 1_555 1_555
O13 C7 1_555 1_555
N1 C7 1_555 1_555
C7 H7 1_555 1_555
C8 N1 1_555 1_555
C9 N1 1_555 1_555
H8 C8 1_555 1_555
H9 C8 1_555 1_555
H10 C8 1_555 1_555
H11 C9 1_555 1_555
H12 C9 1_555 1_555
H13 C9 1_555 1_555
Co2_2 O2B 1_555 1_555
Co3B O1B 1_555 1_555
Co3B_2 O8B 1_555 1_555
Co3A O6A 1_555 1_555
Co4B O4B 1_555 1_555
Co4A O6 1_555 1_555
Co4C O6B 1_555 1_555
Co4B_2 O8B 1_555 1_555
Co4C_2 O10B 1_555 1_555
Co4A_2 O12A 1_555 1_555
O1B Co1 1_555 1_555
O2B C1B 1_555 1_555
O2B_2 Co2 1_555 1_555
O3B Co1 1_555 1_555
O4B Co3B 1_555 1_555
O5B Co1 1_555 1_555
O6B Co3B 1_555 1_555
O6A Co4 1_555 1_555
O6C Co4B 1_555 1_555
O7B Co2 1_555 1_555
O8B C4B 1_555 1_555
O8B_2 Co3B 1_555 1_555
O9B Co2 1_555 1_555
O9B_2 Co2_2 1_555 1_555
O10B C5B 1_555 1_555
O10A Co4 1_555 1_555
O10C Co4B 1_555 1_555
O11A Co4 1_555 1_555
O11B Co3B 1_555 1_555
O11C Co4B 1_555 1_555
O12A C6A 1_555 1_555
O12B Co4B 1_555 1_555
C1B O1B 1_555 1_555
C2B O3B 1_555 1_555
C3B O5B 1_555 1_555
C4B O7B 1_555 1_555
C5B O9B 1_555 1_555
C6A O11A 1_555 1_555
H1B C1B 1_555 1_555
H2B C2B 1_555 1_555
H3B C3B 1_555 1_555
H4B C4B 1_555 1_555
H5B C5B 1_555 1_555
H6A C6A 1_555 1_555
Co3 O9 1_555 1_555
Co4 O8 1_555 1_555
O4 C2 1_555 1_555
O6 C3 1_555 1_555
O8 C4 1_555 1_555
O10 Co4A 1_555 1_555
O11 Co4A 1_555 1_555
O12 C6 1_555 1_555
Co3B O9B_2 1_555 1_555
Co3B_2 O9B 1_555 1_555
Co3A O11A 1_555 1_555
Co4B O8B_2 1_555 1_555
Co4C O11B 1_555 1_555
O4B C2B 1_555 1_555
O6B C3B 1_555 1_555

#END
