
#######################################################################
#
#                 Cambridge Crystallographic Data Centre
#                                CCDC 
#
#######################################################################
#
# If this CIF has been generated from an entry in the Cambridge 
# Structural Database, then it will include bibliographic, chemical, 
# crystal, experimental, refinement or atomic coordinate data resulting 
# from the CCDC's data processing and validation procedures.
#
#######################################################################

data_BAKYIY
_chemical_formula_moiety         'C16 H24 Mg7 N5 O23'
_symmetry_cell_setting           orthorhombic
_symmetry_space_group_name_H-M   'C m c m'
_symmetry_Int_Tables_number      63
_space_group_name_Hall           '-C 2c 2'
loop_
_symmetry_equiv_pos_site_id
_symmetry_equiv_pos_as_xyz
1 x,y,z
2 -x,-y,1/2+z
3 -x,y,1/2-z
4 x,-y,-z
5 1/2+x,1/2+y,z
6 1/2-x,1/2-y,1/2+z
7 1/2-x,1/2+y,1/2-z
8 1/2+x,1/2-y,-z
9 -x,-y,-z
10 x,y,1/2-z
11 x,-y,1/2+z
12 -x,y,z
13 1/2-x,1/2-y,-z
14 1/2+x,1/2+y,1/2-z
15 1/2+x,1/2-y,1/2+z
16 1/2-x,1/2+y,z
_cell_length_a                   15.265(3)
_cell_length_b                   16.886(3)
_cell_length_c                   12.480(3)
_cell_angle_alpha                90
_cell_angle_beta                 90
_cell_angle_gamma                90
_cell_volume                     3216.9
loop_
_atom_site_label
_atom_site_type_symbol
_atom_site_fract_x
_atom_site_fract_y
_atom_site_fract_z
O5 O 0.0000 0.3704(4) 0.7500
O6 O 0.2561(3) 0.4765(3) 0.7500
O7 O 0.1420(3) 0.5941(2) 0.7500
O8 O 0.0000 0.3042(3) 0.2500
O9 O 0.0000 0.5384(4) 0.7500
O10 O 0.1066(4) 0.4444(4) 0.9016(6)
Mg1 Mg 0.0000 0.10898(9) 0.2500
Mg2 Mg 0.0000 0.0000 0.0000
O1 O 0.08434(15) 0.14692(12) 0.15395(17)
O2 O 0.09501(13) 0.08589(11) 0.00407(14)
O3 O 0.0000 -0.00075(14) 0.1623(2)
O4 O -0.0000 -0.1236(3) 0.2500
N1 N 0.0000 -0.0427(2) 0.2500
C1 C 0.1176(2) 0.13657(18) 0.0663(2)
C2 C 0.1889(2) 0.1927(2) 0.0307(3)
C3 C 0.2264(2) 0.1891(2) -0.0691(3)
C4 C 0.2111(2) 0.2567(2) 0.0976(3)
H1 H 0.1825 0.2624 0.1630
N2 N 0.2116(3) 0.1201(3) -0.1342(3)
H2 H 0.2421 0.1128 -0.1913
H3 H 0.1723 0.0862 -0.1161
O1L O 0.41566(15) 0.35308(12) -0.15395(17)
O2L O 0.40499(13) 0.41411(11) -0.00407(14)
C1L C 0.3824(2) 0.36343(18) -0.0663(2)
C2L C 0.3111(2) 0.3073(2) -0.0307(3)
C3L C 0.2736(2) 0.3109(2) 0.0691(3)
C4L C 0.2889(2) 0.2433(2) -0.0976(3)
H1L H 0.3175 0.2376 -0.1630
N2L N 0.2884(3) 0.3799(3) 0.1342(3)
H2L H 0.2579 0.3872 0.1913
H3L H 0.3277 0.4138 0.1161
O3B O 0.0000 -0.00075(14) 0.3377(2)
O1B O -0.08434(15) 0.14692(12) 0.34605(17)
O2B O -0.09501(13) 0.08589(11) 0.49593(14)
C1B C -0.1176(2) 0.13657(18) 0.4337(2)
C2B C -0.1889(2) 0.1927(2) 0.4693(3)
C3B C -0.2264(2) 0.1891(2) 0.5691(3)
C4B C -0.2111(2) 0.2567(2) 0.4024(3)
H1B H -0.1825 0.2624 0.3370
N2B N -0.2116(3) 0.1201(3) 0.6342(3)
H2B H -0.2421 0.1128 0.6913
H3B H -0.1723 0.0862 0.6161
O1N O -0.41566(15) 0.35308(12) 0.65395(17)
O2N O -0.40499(13) 0.41411(11) 0.50407(14)
C1N C -0.3824(2) 0.36343(18) 0.5663(2)
C2N C -0.3111(2) 0.3073(2) 0.5307(3)
C3N C -0.2736(2) 0.3109(2) 0.4309(3)
C4N C -0.2889(2) 0.2433(2) 0.5976(3)
H1N H -0.3175 0.2376 0.6630
N2N N -0.2884(3) 0.3799(3) 0.3658(3)
H2N H -0.2579 0.3872 0.3087
H3N H -0.3277 0.4138 0.3839
Mg1E Mg -0.5000 0.39102(9) 0.7500
Mg1E_2 Mg 0.5000 0.39102(9) -0.2500
Mg2A Mg 0.0000 0.0000 0.5000
Mg2D Mg 0.5000 0.5000 0.0000
Mg2E Mg -0.5000 0.5000 0.5000
O1I O 0.08434(15) 0.14692(12) 0.34605(17)
O1K O -0.08434(15) 0.14692(12) 0.15395(17)
O2C O 0.09501(13) -0.08589(11) -0.00407(14)
O2H O -0.09501(13) -0.08589(11) -0.00407(14)
O2K O -0.09501(13) 0.08589(11) 0.00407(14)
O3C O 0.0000 0.00075(14) -0.1623(2)
loop_
_geom_bond_atom_site_label_1
_geom_bond_atom_site_label_2
_geom_bond_site_symmetry_1
_geom_bond_site_symmetry_2
Mg1 O1 1_555 1_555
Mg2 O2 1_555 1_555
O1 C1 1_555 1_555
O2 C1 1_555 1_555
O3 Mg1 1_555 1_555
O4 N1 1_555 1_555
N1 O3 1_555 1_555
C1 C2 1_555 1_555
C2 C3 1_555 1_555
C3 N2 1_555 1_555
C4 C2 1_555 1_555
H1 C4 1_555 1_555
N2 H2 1_555 1_555
H3 N2 1_555 1_555
O1L C1L 1_555 1_555
O2L C1L 1_555 1_555
C1L C2L 1_555 1_555
C2L C3L 1_555 1_555
C3L C4 1_555 1_555
C4L C3 1_555 1_555
H1L C4L 1_555 1_555
N2L C3L 1_555 1_555
H2L N2L 1_555 1_555
H3L N2L 1_555 1_555
O3B Mg1 1_555 1_555
O1B Mg1 1_555 1_555
O2B C1B 1_555 1_555
C1B O1B 1_555 1_555
C2B C1B 1_555 1_555
C3B C2B 1_555 1_555
C4B C2B 1_555 1_555
H1B C4B 1_555 1_555
N2B C3B 1_555 1_555
H2B N2B 1_555 1_555
H3B N2B 1_555 1_555
O1N C1N 1_555 1_555
O2N C1N 1_555 1_555
C1N C2N 1_555 1_555
C2N C3N 1_555 1_555
C3N C4B 1_555 1_555
C4N C3B 1_555 1_555
H1N C4N 1_555 1_555
N2N C3N 1_555 1_555
H2N N2N 1_555 1_555
H3N N2N 1_555 1_555
Mg1E O1N 1_555 1_555
Mg1E_2 O1L 1_555 1_555
Mg2A O3B 1_555 1_555
Mg2D O2L 1_555 1_555
Mg2E O2N 1_555 1_555
O1I Mg1 1_555 1_555
O1K Mg1 1_555 1_555
O2C Mg2 1_555 1_555
O2H Mg2 1_555 1_555
O2K Mg2 1_555 1_555
O3C Mg2 1_555 1_555
Mg2 O3 1_555 1_555
N1 O3B 1_555 1_555
C2L C4L 1_555 1_555
O2B Mg2A 1_555 1_555
C2N C4N 1_555 1_555

#END
