
#######################################################################
#
#                 Cambridge Crystallographic Data Centre
#                                CCDC 
#
#######################################################################
#
# If this CIF has been generated from an entry in the Cambridge 
# Structural Database, then it will include bibliographic, chemical, 
# crystal, experimental, refinement or atomic coordinate data resulting 
# from the CCDC's data processing and validation procedures.
#
#######################################################################

data_HOZDOR
_chemical_formula_moiety         '(C18 H12 Al4 O18 P6)n'
_symmetry_cell_setting           triclinic
_symmetry_space_group_name_H-M   'P -1'
_symmetry_Int_Tables_number      2
_space_group_name_Hall           '-P 1'
loop_
_symmetry_equiv_pos_site_id
_symmetry_equiv_pos_as_xyz
1 x,y,z
2 -x,-y,-z
_cell_length_a                   8.5943(3)
_cell_length_b                   4.97060(14)
_cell_length_c                   19.5499(6)
_cell_angle_alpha                98.870(4)
_cell_angle_beta                 105.9332(19)
_cell_angle_gamma                89.598(3)
_cell_volume                     792.912
loop_
_atom_site_label
_atom_site_type_symbol
_atom_site_fract_x
_atom_site_fract_y
_atom_site_fract_z
_atom_site_U_iso_or_equiv
_atom_site_thermal_displace_type
Al1 Al 0.3590(9) 0.1188(17) 0.2505(5) 0.0101 Uiso
P1 P 0.3881(9) 0.3394(15) 0.6980(3) 0.0101 Uiso
O1 O 0.4776(14) 0.076(2) 0.7161(8) 0.0140 Uiso
O2 O 0.5055(15) 0.587(2) 0.7347(8) 0.0140 Uiso
P2 P 0.1455(4) 0.2294(13) 0.35548(17) 0.0101 Uiso
Al2 Al -0.0432(9) -0.2985(16) 0.2852(4) 0.0101 Uiso
O3 O 0.2422(12) 0.383(3) 0.7300(6) 0.0140 Uiso
P3 P 0.1444(8) -0.4088(17) 0.1722(4) 0.0101 Uiso
O4 O 0.2805(7) 0.119(2) 0.3212(3) 0.0140 Uiso
O5 O -0.0094(8) 0.0420(17) 0.3230(6) 0.0140 Uiso
O6 O -0.0118(10) -0.365(3) 0.1968(6) 0.0140 Uiso
O7 O 0.1939(19) -0.704(2) 0.1826(8) 0.0140 Uiso
C1 C 0.1461(6) 0.1047(16) 0.4855(3) 0.0140 Uiso
C2 C 0.2217(6) 0.2739(11) 0.4526(3) 0.0140 Uiso
C3 C 0.3444(10) 0.4572(13) 0.4941(4) 0.0140 Uiso
C4 C 0.3928(8) 0.4724(18) 0.5692(4) 0.0140 Uiso
C5 C 0.3167(7) 0.3021(16) 0.6023(3) 0.0140 Uiso
C6 C 0.1931(10) 0.1176(15) 0.5604(4) 0.0140 Uiso
C7 C 0.0620(4) -0.4620(10) 0.07448(3) 0.0140 Uiso
C8 C 0.1473(7) -0.608(2) 0.03110(17) 0.0140 Uiso
C9 C -0.0862(7) -0.356(2) 0.04342(15) 0.0140 Uiso
O8 O 0.2703(15) -0.169(3) 0.1884(7) 0.0140 Uiso
O9 O 0.1068(12) 0.5242(14) 0.3394(6) 0.0140 Uiso
H1 H 0.396267 0.573792 0.471482 0.0168 Uiso
H2 H 0.140801 0.000526 0.582777 0.0168 Uiso
H3 H 0.248477 -0.684801 0.052591 0.0168 Uiso
H4 H -0.146269 -0.258583 0.073424 0.0168 Uiso
H5 H 0.061023 -0.021898 0.456427 0.0168 Uiso
H6 H 0.478062 0.599174 0.597952 0.0168 Uiso
P3A P -0.1444(8) -0.5912(17) -0.1722(4) 0.0101 Uiso
O6A O 0.0118(10) -0.635(3) -0.1968(6) 0.0140 Uiso
O7A O -0.1939(19) -0.296(2) -0.1826(8) 0.0140 Uiso
C7A C -0.0620(4) -0.5380(10) -0.07448(3) 0.0140 Uiso
C8A C -0.1473(7) -0.392(2) -0.03110(17) 0.0140 Uiso
C9A C 0.0862(7) -0.644(2) -0.04342(15) 0.0140 Uiso
O8A O -0.2703(15) -0.831(3) -0.1884(7) 0.0140 Uiso
H3A H -0.248477 -0.315199 -0.052591 0.0168 Uiso
H4A H 0.146269 -0.741417 -0.073424 0.0168 Uiso
Al1A Al -0.3590(9) -1.1188(17) -0.2505(5) 0.0101 Uiso
P1A P -0.3881(9) -1.3394(15) -0.6980(3) 0.0101 Uiso
O1A O -0.4776(14) -1.076(2) -0.7161(8) 0.0140 Uiso
O2A O -0.5055(15) -1.587(2) -0.7347(8) 0.0140 Uiso
P2A P -0.1455(4) -1.2294(13) -0.35548(17) 0.0101 Uiso
Al2A Al 0.0432(9) -0.7015(16) -0.2852(4) 0.0101 Uiso
O3A O -0.2422(12) -1.383(3) -0.7300(6) 0.0140 Uiso
O4A O -0.2805(7) -1.119(2) -0.3212(3) 0.0140 Uiso
O5A O 0.0094(8) -1.0420(17) -0.3230(6) 0.0140 Uiso
C1A C -0.1461(6) -1.1047(16) -0.4855(3) 0.0140 Uiso
C2A C -0.2217(6) -1.2739(11) -0.4526(3) 0.0140 Uiso
C3A C -0.3444(10) -1.4572(13) -0.4941(4) 0.0140 Uiso
C4A C -0.3928(8) -1.4724(18) -0.5692(4) 0.0140 Uiso
C5A C -0.3167(7) -1.3021(16) -0.6023(3) 0.0140 Uiso
C6A C -0.1931(10) -1.1176(15) -0.5604(4) 0.0140 Uiso
O9A O -0.1068(12) -1.5242(14) -0.3394(6) 0.0140 Uiso
H1A H -0.396267 -1.573792 -0.471482 0.0168 Uiso
H2A H -0.140801 -1.000526 -0.582777 0.0168 Uiso
H5A H -0.061023 -0.978102 -0.456427 0.0168 Uiso
H6A H -0.478062 -1.599174 -0.597952 0.0168 Uiso
Al1_2 Al -0.6410(9) -1.8812(17) -0.7495(5) 0.0101 Uiso
Al1_3 Al -0.6410(9) -0.8812(17) -0.7495(5) 0.0101 Uiso
Al1_4 Al 0.3590(9) -0.8812(17) 0.2505(5) 0.0101 Uiso
Al1A_2 Al -0.3590(9) -0.1188(17) -0.2505(5) 0.0101 Uiso
Al1A_3 Al 0.6410(9) -0.1188(17) 0.7495(5) 0.0101 Uiso
Al1A_4 Al 0.6410(9) 0.8812(17) 0.7495(5) 0.0101 Uiso
O1_2 O -0.5224(14) -0.924(2) -0.2839(8) 0.0140 Uiso
O1A_2 O 0.5224(14) -0.076(2) 0.2839(8) 0.0140 Uiso
O2_2 O -0.4945(15) -1.413(2) -0.2653(8) 0.0140 Uiso
O2A_2 O 0.4945(15) 0.413(2) 0.2653(8) 0.0140 Uiso
Al2_2 Al -0.0432(9) -1.2985(16) -0.7148(4) 0.0101 Uiso
Al2_3 Al -0.0432(9) 0.7015(16) 0.2852(4) 0.0101 Uiso
Al2A_2 Al 0.0432(9) -1.7015(16) -0.2852(4) 0.0101 Uiso
Al2A_3 Al 0.0432(9) 0.2985(16) 0.7148(4) 0.0101 Uiso
O3_2 O 0.2422(12) -0.617(3) -0.2700(6) 0.0140 Uiso
O3A_2 O -0.2422(12) -0.383(3) 0.2700(6) 0.0140 Uiso
O7_2 O 0.1939(19) 0.296(2) 0.1826(8) 0.0140 Uiso
O7A_2 O -0.1939(19) -1.296(2) -0.1826(8) 0.0140 Uiso
O9_2 O 0.1068(12) -0.4758(14) 0.3394(6) 0.0140 Uiso
O9A_2 O -0.1068(12) -0.5242(14) -0.3394(6) 0.0140 Uiso
loop_
_geom_bond_atom_site_label_1
_geom_bond_atom_site_label_2
_geom_bond_site_symmetry_1
_geom_bond_site_symmetry_2
Al1 O4 1_555 1_555
P1 O1 1_555 1_555
O1 Al1A_3 1_555 1_555
O2 P1 1_555 1_555
P2 O4 1_555 1_555
Al2 O5 1_555 1_555
O3 P1 1_555 1_555
P3 O6 1_555 1_555
O5 P2 1_555 1_555
O6 Al2 1_555 1_555
O7 P3 1_555 1_555
C1 C2 1_555 1_555
C2 P2 1_555 1_555
C3 C2 1_555 1_555
C4 C3 1_555 1_555
C5 P1 1_555 1_555
C6 C1 1_555 1_555
C7 P3 1_555 1_555
C8 C7 1_555 1_555
C9 C7 1_555 1_555
O8 Al1 1_555 1_555
O9 P2 1_555 1_555
H1 C3 1_555 1_555
H2 C6 1_555 1_555
H3 C8 1_555 1_555
H4 C9 1_555 1_555
H5 C1 1_555 1_555
H6 C4 1_555 1_555
P3A O6A 1_555 1_555
O6A Al2A 1_555 1_555
O7A P3A 1_555 1_555
C7A P3A 1_555 1_555
C8A C9 1_555 1_555
C9A C8 1_555 1_555
O8A P3A 1_555 1_555
H3A C8A 1_555 1_555
H4A C9A 1_555 1_555
Al1A O8A 1_555 1_555
P1A O1A 1_555 1_555
O1A Al1_3 1_555 1_555
O2A P1A 1_555 1_555
P2A O4A 1_555 1_555
Al2A O5A 1_555 1_555
O3A P1A 1_555 1_555
O4A Al1A 1_555 1_555
O5A P2A 1_555 1_555
C1A C2A 1_555 1_555
C2A P2A 1_555 1_555
C3A C2A 1_555 1_555
C4A C3A 1_555 1_555
C5A P1A 1_555 1_555
C6A C1A 1_555 1_555
O9A P2A 1_555 1_555
H1A C3A 1_555 1_555
H2A C6A 1_555 1_555
H5A C1A 1_555 1_555
H6A C4A 1_555 1_555
Al1_2 O2A 1_555 1_555
Al1_4 O7 1_555 1_555
Al1A_2 O7A 1_555 1_555
Al1A_4 O2 1_555 1_555
O1_2 Al1A 1_555 1_555
O1A_2 Al1 1_555 1_555
O2_2 Al1A 1_555 1_555
O2A_2 Al1 1_555 1_555
Al2_2 O3A 1_555 1_555
Al2_3 O9 1_555 1_555
Al2A_2 O9A 1_555 1_555
Al2A_3 O3 1_555 1_555
O3_2 Al2A 1_555 1_555
O3A_2 Al2 1_555 1_555
O7_2 Al1 1_555 1_555
O7A_2 Al1A 1_555 1_555
O9_2 Al2 1_555 1_555
O9A_2 Al2A 1_555 1_555
P3 O8 1_555 1_555
C4 C5 1_555 1_555
C5 C6 1_555 1_555
C7A C8A 1_555 1_555
C7A C9A 1_555 1_555
C4A C5A 1_555 1_555
C5A C6A 1_555 1_555

#END
