
#######################################################################
#
#                 Cambridge Crystallographic Data Centre
#                                CCDC 
#
#######################################################################
#
# If this CIF has been generated from an entry in the Cambridge 
# Structural Database, then it will include bibliographic, chemical, 
# crystal, experimental, refinement or atomic coordinate data resulting 
# from the CCDC's data processing and validation procedures.
#
#######################################################################

data_IRELAU
_chemical_formula_moiety         '(C26 H21 N1 O10 Zn2)n'
_symmetry_cell_setting           monoclinic
_symmetry_space_group_name_H-M   'P 21/c'
_symmetry_Int_Tables_number      14
_space_group_name_Hall           '-P 2ybc'
loop_
_symmetry_equiv_pos_site_id
_symmetry_equiv_pos_as_xyz
1 x,y,z
2 -x,1/2+y,1/2-z
3 -x,-y,-z
4 x,1/2-y,1/2+z
_cell_length_a                   12.206(11)
_cell_length_b                   17.833(15)
_cell_length_c                   15.309(13)
_cell_angle_alpha                90
_cell_angle_beta                 111.229(14)
_cell_angle_gamma                90
_cell_volume                     3106.18
loop_
_atom_site_label
_atom_site_type_symbol
_atom_site_fract_x
_atom_site_fract_y
_atom_site_fract_z
O1 O 0.8217(3) 0.45594(18) 0.7820(2)
Zn1 Zn 1.26397(4) 0.37688(3) 1.22924(3)
Zn2 Zn 1.03388(5) 0.48662(3) 1.20590(3)
O2 O 1.1193(3) 0.34222(19) 1.1393(2)
O3 O 0.9956(3) 0.4329(2) 1.0931(2)
O4 O 0.6880(3) 0.52837(17) 0.8012(3)
O5 O 0.3772(3) 0.1991(2) 0.7672(3)
O6 O 0.3500(5) 0.2111(3) 0.6240(3)
O7 O 0.2489(3) 0.3948(2) 0.3491(2)
O8 O 0.0841(3) 0.4511(2) 0.3307(2)
O9 O 0.8612(7) 0.4248(5) 1.2015(5)
O10 O 0.9460(3) 0.5756(2) 1.1952(3)
N1 N 0.8277(5) 0.6698(3) 1.1492(3)
C1 C 1.0316(4) 0.3703(2) 1.0838(3)
C2 C 0.9681(4) 0.3276(2) 1.0007(3)
C3 C 1.0124(4) 0.2634(3) 0.9811(4)
H1 H 1.0860 0.2469 1.0205
C4 C 0.9505(5) 0.2227(3) 0.9045(4)
H2 H 0.9814 0.1785 0.8909
C5 C 0.8438(4) 0.2468(3) 0.8482(3)
H3 H 0.8017 0.2190 0.7954
C6 C 0.7961(4) 0.3113(2) 0.8670(3)
C7 C 0.8602(3) 0.3516(2) 0.9435(3)
H4 H 0.8299 0.3960 0.9572
C8 C 0.6768(4) 0.3322(2) 0.8065(3)
C9 C 0.6452(3) 0.4034(2) 0.7738(3)
C10 C 0.5312(4) 0.4170(3) 0.7179(3)
H5 H 0.5099 0.4656 0.6965
C11 C 0.4489(4) 0.3635(2) 0.6927(3)
C12 C 0.4817(4) 0.2922(2) 0.7283(3)
C13 C 0.5934(4) 0.2793(2) 0.7846(3)
H6 H 0.6137 0.2315 0.8095
C14 C 0.7277(4) 0.4667(2) 0.7888(3)
C15 C 0.3952(4) 0.2297(3) 0.7037(4)
C16 C 0.33290(19) 0.38265(18) 0.63159(16)
C17 C 0.3097(2) 0.38922(17) 0.53609(17)
H7 H 0.3672 0.3766 0.5121
C18 C 0.2006(2) 0.41460(18) 0.47644(14)
C19 C 0.11463(19) 0.4334(2) 0.51231(18)
H8 H 0.0416 0.4504 0.4724
C20 C 0.1378(2) 0.4268(2) 0.60781(19)
H9 H 0.0803 0.4394 0.6318
C21 C 0.2469(2) 0.4015(2) 0.66746(14)
H10 H 0.2624 0.3971 0.7314
C22 C 0.1761(4) 0.4205(2) 0.3782(3)
C23 C 0.8621(5) 0.6057(3) 1.1354(4)
C24 C 0.7978(6) 0.5671(4) 1.0470(4)
H11 H 0.8518 0.5381 1.0282
H12 H 0.7597 0.6035 0.9994
H13 H 0.7398 0.5345 1.0554
C25 C 0.7279(8) 0.7065(5) 1.0877(6)
H14 H 0.7517 0.7447 1.0541
H15 H 0.6854 0.7290 1.1228
H16 H 0.6784 0.6709 1.0441
C26 C 0.8979(8) 0.7113(4) 1.2335(5)
H17 H 0.8548 0.7156 1.2747
H18 H 0.9148 0.7604 1.2161
H19 H 0.9702 0.6850 1.2649
O1B O 1.1783(3) 0.54406(18) 1.2180(2)
Zn1_2 Zn 0.26397(4) 0.37688(3) 0.22924(3)
Zn1B Zn 0.73603(4) 0.62312(3) 0.77076(3)
Zn1C Zn 0.26397(4) 0.12312(3) 0.72924(3)
Zn2_2 Zn 0.03388(5) 0.48662(3) 0.20590(3)
Zn2B Zn 0.96612(5) 0.51338(3) 0.79410(3)
O4B O 1.3120(3) 0.47163(17) 1.1988(3)
O5C O 1.3772(3) 0.3009(2) 1.2672(3)
O7_2 O 1.2489(3) 0.3948(2) 1.3491(2)
O8_2 O 1.0841(3) 0.4511(2) 1.3307(2)
loop_
_geom_bond_atom_site_label_1
_geom_bond_atom_site_label_2
_geom_bond_site_symmetry_1
_geom_bond_site_symmetry_2
O1 C14 1_555 1_555
Zn1 O2 1_555 1_555
Zn2 O3 1_555 1_555
O2 C1 1_555 1_555
O3 C1 1_555 1_555
O4 C14 1_555 1_555
O5 C15 1_555 1_555
O6 C15 1_555 1_555
O7 C22 1_555 1_555
O8 C22 1_555 1_555
O9 Zn2 1_555 1_555
O10 Zn2 1_555 1_555
N1 C23 1_555 1_555
C1 C2 1_555 1_555
C2 C3 1_555 1_555
C3 H1 1_555 1_555
C4 C3 1_555 1_555
H2 C4 1_555 1_555
C5 C4 1_555 1_555
H3 C5 1_555 1_555
C6 C5 1_555 1_555
C7 C2 1_555 1_555
H4 C7 1_555 1_555
C8 C6 1_555 1_555
C9 C8 1_555 1_555
C10 C9 1_555 1_555
H5 C10 1_555 1_555
C11 C10 1_555 1_555
C12 C11 1_555 1_555
C13 C8 1_555 1_555
H6 C13 1_555 1_555
C14 C9 1_555 1_555
C15 C12 1_555 1_555
C16 C11 1_555 1_555
C17 C16 1_555 1_555
H7 C17 1_555 1_555
C18 C17 1_555 1_555
C19 C18 1_555 1_555
H8 C19 1_555 1_555
C20 C19 1_555 1_555
H9 C20 1_555 1_555
C21 C16 1_555 1_555
H10 C21 1_555 1_555
C22 C18 1_555 1_555
C23 O10 1_555 1_555
C24 C23 1_555 1_555
H11 C24 1_555 1_555
H12 C24 1_555 1_555
H13 C24 1_555 1_555
C25 N1 1_555 1_555
H14 C25 1_555 1_555
H15 C25 1_555 1_555
H16 C25 1_555 1_555
C26 N1 1_555 1_555
H17 C26 1_555 1_555
H18 C26 1_555 1_555
H19 C26 1_555 1_555
O1B Zn2 1_555 1_555
Zn1_2 O7 1_555 1_555
Zn1B O4 1_555 1_555
Zn1C O5 1_555 1_555
Zn2_2 O8 1_555 1_555
Zn2B O1 1_555 1_555
O4B Zn1 1_555 1_555
O5C Zn1 1_555 1_555
O7_2 Zn1 1_555 1_555
O8_2 Zn2 1_555 1_555
C6 C7 1_555 1_555
C12 C13 1_555 1_555
C20 C21 1_555 1_555

#END
