
#######################################################################
#
#                 Cambridge Crystallographic Data Centre
#                                CCDC 
#
#######################################################################
#
# If this CIF has been generated from an entry in the Cambridge 
# Structural Database, then it will include bibliographic, chemical, 
# crystal, experimental, refinement or atomic coordinate data resulting 
# from the CCDC's data processing and validation procedures.
#
#######################################################################

data_IKOSOQ
_chemical_formula_moiety         '(C60 H58 Cu2 N12 O31)n'
_symmetry_cell_setting           orthorhombic
_symmetry_space_group_name_H-M   'P b c n'
_symmetry_Int_Tables_number      60
_space_group_name_Hall           '-P 2n 2ab'
loop_
_symmetry_equiv_pos_site_id
_symmetry_equiv_pos_as_xyz
1 x,y,z
2 1/2+x,1/2+y,1/2-z
3 x,-y,1/2+z
4 1/2-x,1/2+y,z
5 -x,-y,-z
6 1/2-x,1/2-y,1/2+z
7 -x,y,1/2-z
8 1/2+x,1/2-y,-z
_cell_length_a                   19.446(4)
_cell_length_b                   25.677(5)
_cell_length_c                   15.778(3)
_cell_angle_alpha                90
_cell_angle_beta                 90
_cell_angle_gamma                90
_cell_volume                     7878.19
loop_
_atom_site_label
_atom_site_type_symbol
_atom_site_fract_x
_atom_site_fract_y
_atom_site_fract_z
C1 C 0.0000 -0.2576(6) 0.2500
C2 C -0.0000 0.2376(6) 0.2500
C3 C 0.0553(6) -0.2233(4) 0.2087(6)
H1 H 0.0955 -0.2476 0.1826
H2 H 0.0330 -0.2010 0.1577
C4 C 0.0881(7) -0.1382(5) 0.2497(6)
C5 C 0.1220(6) -0.1070(4) 0.3164(6)
C6 C 0.1287(6) -0.0534(4) 0.3005(7)
H3 H 0.1056 -0.0360 0.2451
C7 C 0.1652(6) -0.0237(5) 0.3569(7)
H4 H 0.1720 0.0173 0.3443
C8 C 0.1836(6) -0.0948(4) 0.4444(6)
H5 H 0.2037 -0.1109 0.5025
C9 C 0.1492(6) -0.1271(4) 0.3893(6)
H6 H 0.1437 -0.1680 0.4036
C10 C -0.0337(5) -0.2911(4) 0.1815(6)
H7 H -0.0778 -0.3113 0.2071
H8 H -0.0505 -0.2671 0.1293
C11 C 0.0177(6) -0.3431(5) 0.0725(7)
C12 C 0.0739(6) -0.3821(4) 0.0568(7)
C13 C 0.1106(7) -0.4038(5) 0.1233(8)
H9 H 0.0993 -0.3929 0.1880
C14 C 0.1610(7) -0.4389(5) 0.1059(8)
H10 H 0.1894 -0.4560 0.1578
C15 C 0.1416(6) -0.4335(4) -0.0371(7)
H11 H 0.1540 -0.4450 -0.1011
C16 C 0.0898(6) -0.3991(4) -0.0246(7)
H12 H 0.0608 -0.3847 -0.0781
C17 C -0.0386(6) 0.2029(4) 0.3150(7)
H13 H -0.0681 0.2266 0.3582
H14 H -0.0732 0.1766 0.2828
C18 C -0.0062(6) 0.1430(5) 0.4196(8)
C19 C 0.0531(6) 0.1131(4) 0.4538(7)
C20 C 0.0430(6) 0.0692(5) 0.5029(7)
H15 H -0.0080 0.0583 0.5234
C21 C 0.0993(7) 0.0397(5) 0.5252(7)
H16 H 0.0920 0.0046 0.5620
C22 C 0.1736(6) 0.0980(4) 0.4610(8)
H17 H 0.2255 0.1103 0.4473
C23 C 0.1197(6) 0.1281(5) 0.4361(8)
H18 H 0.1291 0.1640 0.4022
C24 C 0.0525(6) 0.2699(4) 0.2973(7)
H19 H 0.0284 0.2901 0.3495
H20 H 0.0927 0.2452 0.3222
C25 C 0.1341(6) 0.3336(4) 0.2660(7)
C26 C 0.1609(5) 0.3710(4) 0.2013(6)
C27 C 0.1333(6) 0.3766(4) 0.1215(8)
H21 H 0.0917 0.3517 0.1014
C28 C 0.1584(6) 0.4136(4) 0.0677(7)
H22 H 0.1354 0.4176 0.0057
C29 C 0.2363(6) 0.4390(5) 0.1662(7)
H23 H 0.2769 0.4652 0.1850
C30 C 0.2150(6) 0.4022(5) 0.2228(7)
H24 H 0.2405 0.3978 0.2832
N1 N 0.1931(5) -0.0446(3) 0.4288(5)
N2 N 0.1768(5) -0.4532(4) 0.0250(6)
N3 N 0.1629(5) 0.0536(3) 0.5019(6)
N4 N 0.2094(5) 0.4443(3) 0.0885(5)
N5 N 0.3380(8) 0.0496(5) 0.3414(7)
N6 N 0.1766(8) -0.0824(5) 0.6727(8)
O1 O 0.0838(4) -0.1888(3) 0.2714(4)
O2 O 0.0673(6) -0.1222(3) 0.1845(6)
O3 O 0.0173(4) -0.3281(3) 0.1530(4)
O4 O -0.0189(4) -0.3266(3) 0.0186(5)
O5 O 0.0130(4) 0.1743(3) 0.3600(5)
O6 O -0.0639(5) 0.1367(4) 0.4411(6)
O7 O 0.0808(3) 0.3069(3) 0.2376(4)
O8 O 0.1603(5) 0.3294(3) 0.3346(5)
O9 O 0.2985(6) 0.0461(4) 0.3955(7)
O10 O 0.3392(8) 0.0114(5) 0.2917(7)
O11 O 0.3780(9) 0.0835(6) 0.3347(8)
O12 O 0.2127(6) -0.1202(4) 0.6462(6)
O13 O 0.1433(8) -0.0874(4) 0.7371(7)
O14 O 0.1774(5) -0.0402(3) 0.6317(5)
Cu1 Cu 0.24403(7) 0.00363(5) 0.50936(8)
C3F C -0.0553(6) -0.2233(4) 0.2913(6)
H1F H -0.0955 -0.2476 0.3174
H2F H -0.0330 -0.2010 0.3423
O1F O -0.0838(4) -0.1888(3) 0.2286(4)
C4F C -0.0881(7) -0.1382(5) 0.2503(6)
C5F C -0.1220(6) -0.1070(4) 0.1836(6)
C6F C -0.1287(6) -0.0534(4) 0.1995(7)
H3F H -0.1056 -0.0360 0.2549
C7F C -0.1652(6) -0.0237(5) 0.1431(7)
H4F H -0.1720 0.0173 0.1557
N1F N -0.1931(5) -0.0446(3) 0.0712(5)
C8F C -0.1836(6) -0.0948(4) 0.0556(6)
H5F H -0.2037 -0.1109 -0.0025
C9F C -0.1492(6) -0.1271(4) 0.1107(6)
H6F H -0.1437 -0.1680 0.0964
O2F O -0.0673(6) -0.1222(3) 0.3155(6)
C10F C 0.0337(5) -0.2911(4) 0.3185(6)
H7F H 0.0778 -0.3113 0.2929
H8F H 0.0505 -0.2671 0.3707
O3F O -0.0173(4) -0.3281(3) 0.3470(4)
C11F C -0.0177(6) -0.3431(5) 0.4275(7)
C12F C -0.0739(6) -0.3821(4) 0.4432(7)
C13F C -0.1106(7) -0.4038(5) 0.3767(8)
H9F H -0.0993 -0.3929 0.3120
C14F C -0.1610(7) -0.4389(5) 0.3941(8)
H10F H -0.1894 -0.4560 0.3422
N2F N -0.1768(5) -0.4532(4) 0.4750(6)
C15F C -0.1416(6) -0.4335(4) 0.5371(7)
H11F H -0.1540 -0.4450 0.6011
C16F C -0.0898(6) -0.3991(4) 0.5246(7)
H12F H -0.0608 -0.3847 0.5781
O4F O 0.0189(4) -0.3266(3) 0.4814(5)
C17F C 0.0386(6) 0.2029(4) 0.1850(7)
H13F H 0.0681 0.2266 0.1418
H14F H 0.0732 0.1766 0.2172
O5F O -0.0130(4) 0.1743(3) 0.1400(5)
C18F C 0.0062(6) 0.1430(5) 0.0804(8)
C19F C -0.0531(6) 0.1131(4) 0.0462(7)
C20F C -0.0430(6) 0.0692(5) -0.0029(7)
H15F H 0.0080 0.0583 -0.0234
C21F C -0.0993(7) 0.0397(5) -0.0252(7)
H16F H -0.0920 0.0046 -0.0620
N3F N -0.1629(5) 0.0536(3) -0.0019(6)
C22F C -0.1736(6) 0.0980(4) 0.0390(8)
H17F H -0.2255 0.1103 0.0527
C23F C -0.1197(6) 0.1281(5) 0.0639(8)
H18F H -0.1291 0.1640 0.0978
O6F O 0.0639(5) 0.1367(4) 0.0589(6)
C24F C -0.0525(6) 0.2699(4) 0.2027(7)
H19F H -0.0284 0.2901 0.1505
H20F H -0.0927 0.2452 0.1778
O7F O -0.0808(3) 0.3069(3) 0.2624(4)
C25F C -0.1341(6) 0.3336(4) 0.2340(7)
C26F C -0.1609(5) 0.3710(4) 0.2987(6)
C27F C -0.1333(6) 0.3766(4) 0.3785(8)
H21F H -0.0917 0.3517 0.3986
C28F C -0.1584(6) 0.4136(4) 0.4323(7)
H22F H -0.1354 0.4176 0.4943
N4F N -0.2094(5) 0.4443(3) 0.4115(5)
C29F C -0.2363(6) 0.4390(5) 0.3338(7)
H23F H -0.2769 0.4652 0.3150
C30F C -0.2150(6) 0.4022(5) 0.2772(7)
H24F H -0.2405 0.3978 0.2168
O8F O -0.1603(5) 0.3294(3) 0.1654(5)
Cu1F Cu -0.24403(7) 0.00363(5) -0.00936(8)
N5F N -0.3380(8) 0.0496(5) 0.1586(7)
O9F O -0.2985(6) 0.0461(4) 0.1045(7)
O10F O -0.3392(8) 0.0114(5) 0.2083(7)
O11F O -0.3780(9) 0.0835(6) 0.1653(8)
N6F N -0.1766(8) -0.0824(5) -0.1727(8)
O12F O -0.2127(6) -0.1202(4) -0.1462(6)
O13F O -0.1433(8) -0.0874(4) -0.2371(7)
O14F O -0.1774(5) -0.0402(3) -0.1317(5)
Cu1E Cu 0.25597(7) -0.50363(5) 0.00936(8)
Cu1E_2 Cu 0.25597(7) 0.49637(5) 0.00936(8)
N2E N 0.3232(5) -0.0468(4) 0.5250(6)
N4E N 0.2906(5) 0.0557(3) 0.5885(5)
Cu1G Cu -0.25597(7) -0.50363(5) 0.49064(8)
Cu1G_2 Cu -0.25597(7) 0.49637(5) 0.49064(8)
N2G N -0.3232(5) -0.0468(4) -0.0250(6)
N4G N -0.2906(5) 0.0557(3) -0.0885(5)
O15 O 0.4925(6) -0.0071(4) 0.1052(7)
O24 O 0.2009(7) -0.2013(5) 0.7734(10)
C31 C 0.2666(10) -0.2143(11) 0.7802(19)
O25 O 0.1618(6) -0.2485(4) 0.0272(7)
C32 C 0.2068(13) -0.2246(10) 0.0697(16)
loop_
_geom_bond_atom_site_label_1
_geom_bond_atom_site_label_2
_geom_bond_site_symmetry_1
_geom_bond_site_symmetry_2
C1 C3 1_555 1_555
C2 C17 1_555 1_555
C3 H1 1_555 1_555
H2 C3 1_555 1_555
C4 C5 1_555 1_555
C5 C6 1_555 1_555
C6 H3 1_555 1_555
C7 C6 1_555 1_555
H4 C7 1_555 1_555
C8 H5 1_555 1_555
C9 C5 1_555 1_555
H6 C9 1_555 1_555
C10 C1 1_555 1_555
H7 C10 1_555 1_555
H8 C10 1_555 1_555
C11 C12 1_555 1_555
C12 C13 1_555 1_555
C13 H9 1_555 1_555
C14 C13 1_555 1_555
H10 C14 1_555 1_555
C15 H11 1_555 1_555
C16 C12 1_555 1_555
H12 C16 1_555 1_555
C17 H13 1_555 1_555
H14 C17 1_555 1_555
C18 C19 1_555 1_555
C19 C20 1_555 1_555
C20 H15 1_555 1_555
C21 C20 1_555 1_555
H16 C21 1_555 1_555
C22 H17 1_555 1_555
C23 C19 1_555 1_555
H18 C23 1_555 1_555
C24 C2 1_555 1_555
H19 C24 1_555 1_555
H20 C24 1_555 1_555
C25 C26 1_555 1_555
C26 C27 1_555 1_555
C27 H21 1_555 1_555
C28 C27 1_555 1_555
H22 C28 1_555 1_555
C29 H23 1_555 1_555
C30 C26 1_555 1_555
H24 C30 1_555 1_555
N1 C7 1_555 1_555
N2 C14 1_555 1_555
N3 C21 1_555 1_555
N4 C28 1_555 1_555
N5 O9 1_555 1_555
N6 O12 1_555 1_555
O1 C3 1_555 1_555
O2 C4 1_555 1_555
O3 C10 1_555 1_555
O4 C11 1_555 1_555
O5 C17 1_555 1_555
O6 C18 1_555 1_555
O7 C24 1_555 1_555
O8 C25 1_555 1_555
O9 Cu1 1_555 1_555
O10 N5 1_555 1_555
O11 N5 1_555 1_555
O13 N6 1_555 1_555
O14 N6 1_555 1_555
Cu1 N1 1_555 1_555
O24 C31 1_555 1_555
O25 C32 1_555 1_555
C3F C1 1_555 1_555
H1F C3F 1_555 1_555
H2F C3F 1_555 1_555
O1F C3F 1_555 1_555
C4F O1F 1_555 1_555
C5F C4F 1_555 1_555
C6F C5F 1_555 1_555
H3F C6F 1_555 1_555
C7F C6F 1_555 1_555
H4F C7F 1_555 1_555
N1F C7F 1_555 1_555
C8F N1F 1_555 1_555
H5F C8F 1_555 1_555
C9F C5F 1_555 1_555
H6F C9F 1_555 1_555
O2F C4F 1_555 1_555
C10F C1 1_555 1_555
H7F C10F 1_555 1_555
H8F C10F 1_555 1_555
O3F C10F 1_555 1_555
C11F O3F 1_555 1_555
C12F C11F 1_555 1_555
C13F C12F 1_555 1_555
H9F C13F 1_555 1_555
C14F C13F 1_555 1_555
H10F C14F 1_555 1_555
N2F C14F 1_555 1_555
C15F N2F 1_555 1_555
H11F C15F 1_555 1_555
C16F C12F 1_555 1_555
H12F C16F 1_555 1_555
O4F C11F 1_555 1_555
C17F C2 1_555 1_555
H13F C17F 1_555 1_555
H14F C17F 1_555 1_555
O5F C17F 1_555 1_555
C18F O5F 1_555 1_555
C19F C18F 1_555 1_555
C20F C19F 1_555 1_555
H15F C20F 1_555 1_555
C21F C20F 1_555 1_555
H16F C21F 1_555 1_555
N3F C21F 1_555 1_555
C22F N3F 1_555 1_555
H17F C22F 1_555 1_555
C23F C19F 1_555 1_555
H18F C23F 1_555 1_555
O6F C18F 1_555 1_555
C24F C2 1_555 1_555
H19F C24F 1_555 1_555
H20F C24F 1_555 1_555
O7F C24F 1_555 1_555
C25F O7F 1_555 1_555
C26F C25F 1_555 1_555
C27F C26F 1_555 1_555
H21F C27F 1_555 1_555
C28F C27F 1_555 1_555
H22F C28F 1_555 1_555
N4F C28F 1_555 1_555
C29F N4F 1_555 1_555
H23F C29F 1_555 1_555
C30F C26F 1_555 1_555
H24F C30F 1_555 1_555
O8F C25F 1_555 1_555
Cu1F N1F 1_555 1_555
N5F O9F 1_555 1_555
O9F Cu1F 1_555 1_555
O10F N5F 1_555 1_555
O11F N5F 1_555 1_555
N6F O12F 1_555 1_555
O13F N6F 1_555 1_555
O14F Cu1F 1_555 1_555
Cu1E N2 1_555 1_555
Cu1E_2 N4 1_555 1_555
N2E Cu1 1_555 1_555
N4E Cu1 1_555 1_555
Cu1G N2F 1_555 1_555
Cu1G_2 N4F 1_555 1_555
N2G Cu1F 1_555 1_555
N4G Cu1F 1_555 1_555
C4 O1 1_555 1_555
C8 N1 1_555 1_555
C8 C9 1_555 1_555
C11 O3 1_555 1_555
C15 N2 1_555 1_555
C15 C16 1_555 1_555
C18 O5 1_555 1_555
C22 N3 1_555 1_555
C22 C23 1_555 1_555
C25 O7 1_555 1_555
C29 N4 1_555 1_555
C29 C30 1_555 1_555
N3 Cu1 1_555 1_555
O14 Cu1 1_555 1_555
C8F C9F 1_555 1_555
C15F C16F 1_555 1_555
N3F Cu1F 1_555 1_555
C22F C23F 1_555 1_555
C29F C30F 1_555 1_555
N6F O14F 1_555 1_555

#END
