
#######################################################################
#
#                 Cambridge Crystallographic Data Centre
#                                CCDC 
#
#######################################################################
#
# If this CIF has been generated from an entry in the Cambridge 
# Structural Database, then it will include bibliographic, chemical, 
# crystal, experimental, refinement or atomic coordinate data resulting 
# from the CCDC's data processing and validation procedures.
#
#######################################################################

data_IKOTEH
_chemical_formula_moiety         '(C87 H72 Cl4 Co2 N12 O24)n'
_symmetry_cell_setting           tetragonal
_symmetry_space_group_name_H-M   'P 42/n'
_symmetry_Int_Tables_number      86
_space_group_name_Hall           '-P 4bc'
loop_
_symmetry_equiv_pos_site_id
_symmetry_equiv_pos_as_xyz
1 x,y,z
2 -y,1/2+x,1/2+z
3 1/2+y,-x,1/2+z
4 1/2+x,1/2+y,-z
5 -x,-y,-z
6 y,1/2-x,1/2-z
7 1/2-y,x,1/2-z
8 1/2-x,1/2-y,z
_cell_length_a                   13.4495(3)
_cell_length_b                   13.4495(3)
_cell_length_c                   25.4130(6)
_cell_angle_alpha                90
_cell_angle_beta                 90
_cell_angle_gamma                90
_cell_volume                     4596.93
loop_
_atom_site_label
_atom_site_type_symbol
_atom_site_fract_x
_atom_site_fract_y
_atom_site_fract_z
C1 C 0.2500 0.7500 0.8651(3)
C2 C 0.1601(4) 0.7257(4) 0.8316(2)
H1 H 0.0982 0.7047 0.8563
H2 H 0.1387 0.7896 0.8085
O1 O 0.0278(12) 0.6361(15) 0.7695(7)
C4 C 0.1271(19) 0.611(3) 0.7576(11)
C5 C 0.1534(4) 0.5280(4) 0.7315(2)
C6 C 0.0878(4) 0.4886(4) 0.6942(2)
H3 H 0.0153 0.5214 0.6884
C7 C 0.1169(4) 0.4077(4) 0.6653(2)
H4 H 0.0656 0.3779 0.6367
C8 C 0.2691(4) 0.4023(4) 0.7065(2)
H5 H 0.3414 0.3685 0.7110
C9 C 0.2460(4) 0.4828(4) 0.7375(2)
H6 H 0.2986 0.5105 0.7661
N1 N 0.2063(3) 0.3634(3) 0.67078(16)
N2 N 0.6427(3) 0.7085(3) 1.05300(16)
O3 O 0.1877(3) 0.6439(3) 0.79740(15)
O4 O 0.3528(3) 0.6817(2) 0.93536(13)
O5 O 0.4571(3) 0.5752(4) 0.89659(19)
Cl1 Cl 0.08274(9) 0.18162(10) 0.61463(6)
Co1 Co 0.2500 0.2500 0.61390(4)
C10 C 0.2741(4) 0.6586(4) 0.8991(2)
H7 H 0.2085 0.6362 0.9206
H8 H 0.2963 0.5975 0.8741
C11 C 0.4375(4) 0.6323(4) 0.9316(2)
C12 C 0.5074(4) 0.6584(4) 0.9751(2)
C13 C 0.6031(4) 0.6202(5) 0.9749(2)
H9 H 0.6269 0.5706 0.9439
C14 C 0.6672(4) 0.6462(4) 1.0145(2)
H10 H 0.7410 0.6145 1.0145
C15 C 0.5492(4) 0.7448(4) 1.0532(2)
H11 H 0.5277 0.7946 1.0846
C16 C 0.4807(4) 0.7215(4) 1.0157(2)
H12 H 0.4065 0.7519 1.0176
C2G C 0.3399(4) 0.7743(4) 0.8316(2)
H1G H 0.4018 0.7953 0.8563
H2G H 0.3613 0.7104 0.8085
O3G O 0.3123(3) 0.8561(3) 0.79740(15)
C4G C 0.3729(19) 0.889(3) 0.7576(11)
O1G O 0.4722(12) 0.8639(15) 0.7695(7)
C5G C 0.3466(4) 0.9720(4) 0.7315(2)
C6G C 0.4122(4) 1.0114(4) 0.6942(2)
H3G H 0.4847 0.9786 0.6884
C7G C 0.3831(4) 1.0923(4) 0.6653(2)
H4G H 0.4344 1.1221 0.6367
N1G N 0.2937(3) 1.1366(3) 0.67078(16)
C8G C 0.2309(4) 1.0977(4) 0.7065(2)
H5G H 0.1586 1.1315 0.7110
C9G C 0.2540(4) 1.0172(4) 0.7375(2)
H6G H 0.2014 0.9895 0.7661
C10G C 0.2259(4) 0.8414(4) 0.8991(2)
O4G O 0.1472(3) 0.8183(2) 0.93536(13)
C11G C 0.0625(4) 0.8677(4) 0.9316(2)
O5G O 0.0429(3) 0.9248(4) 0.89659(19)
C12G C -0.0074(4) 0.8416(4) 0.9751(2)
C13G C -0.1031(4) 0.8798(5) 0.9749(2)
H9G H -0.1269 0.9294 0.9439
C14G C -0.1672(4) 0.8538(4) 1.0145(2)
N2G N -0.1427(3) 0.7915(3) 1.05300(16)
C15G C -0.0492(4) 0.7552(4) 1.0532(2)
H11G H -0.0277 0.7054 1.0846
C16G C 0.0193(4) 0.7785(4) 1.0157(2)
H12G H 0.0935 0.7481 1.0176
H10G H -0.2410 0.8855 1.0145
H7G H 0.2915 0.8638 0.9206
H8G H 0.2037 0.9025 0.8741
C1G C 0.2500 -0.2500 0.8651(3)
C2G_2 C 0.3399(4) -0.2257(4) 0.8316(2)
H1G_2 H 0.4018 -0.2047 0.8563
H2G_2 H 0.3613 -0.2896 0.8085
O1G_2 O 0.4722(12) -0.1361(15) 0.7695(7)
C4G_2 C 0.3729(19) -0.111(3) 0.7576(11)
C5G_2 C 0.3466(4) -0.0280(4) 0.7315(2)
C6G_2 C 0.4122(4) 0.0114(4) 0.6942(2)
H3G_2 H 0.4847 -0.0214 0.6884
C7G_2 C 0.3831(4) 0.0923(4) 0.6653(2)
H4G_2 H 0.4344 0.1221 0.6367
C8G_2 C 0.2309(4) 0.0977(4) 0.7065(2)
H5G_2 H 0.1586 0.1315 0.7110
C9G_2 C 0.2540(4) 0.0172(4) 0.7375(2)
H6G_2 H 0.2014 -0.0105 0.7661
N1G_2 N 0.2937(3) 0.1366(3) 0.67078(16)
N2G_2 N -0.1427(3) -0.2085(3) 1.05300(16)
O3G_2 O 0.3123(3) -0.1439(3) 0.79740(15)
O4G_2 O 0.1472(3) -0.1817(2) 0.93536(13)
O5G_2 O 0.0429(3) -0.0752(4) 0.89659(19)
C10G_2 C 0.2259(4) -0.1586(4) 0.8991(2)
H7G_2 H 0.2915 -0.1362 0.9206
H8G_2 H 0.2037 -0.0975 0.8741
C11G_2 C 0.0625(4) -0.1323(4) 0.9316(2)
C12G_2 C -0.0074(4) -0.1584(4) 0.9751(2)
C13G_2 C -0.1031(4) -0.1202(5) 0.9749(2)
H9G_2 H -0.1269 -0.0706 0.9439
C14G_2 C -0.1672(4) -0.1462(4) 1.0145(2)
H10G_2 H -0.2410 -0.1145 1.0145
C15G_2 C -0.0492(4) -0.2448(4) 1.0532(2)
H11G_2 H -0.0277 -0.2946 1.0846
C16G_2 C 0.0193(4) -0.2215(4) 1.0157(2)
H12G_2 H 0.0935 -0.2519 1.0176
C2_2 C 0.1601(4) -0.2743(4) 0.8316(2)
H1_2 H 0.0982 -0.2953 0.8563
H2_2 H 0.1387 -0.2104 0.8085
O3_2 O 0.1877(3) -0.3561(3) 0.79740(15)
C4_2 C 0.1271(19) -0.389(3) 0.7576(11)
O1_2 O 0.0278(12) -0.3639(15) 0.7695(7)
C5_2 C 0.1534(4) -0.4720(4) 0.7315(2)
C6_2 C 0.0878(4) -0.5114(4) 0.6942(2)
H3_2 H 0.0153 -0.4786 0.6884
C7_2 C 0.1169(4) -0.5923(4) 0.6653(2)
H4_2 H 0.0656 -0.6221 0.6367
N1_2 N 0.2063(3) -0.6366(3) 0.67078(16)
C8_2 C 0.2691(4) -0.5977(4) 0.7065(2)
H5_2 H 0.3414 -0.6315 0.7110
C9_2 C 0.2460(4) -0.5172(4) 0.7375(2)
H6_2 H 0.2986 -0.4895 0.7661
C10_2 C 0.2741(4) -0.3414(4) 0.8991(2)
O4_2 O 0.3528(3) -0.3183(2) 0.93536(13)
C11_2 C 0.4375(4) -0.3677(4) 0.9316(2)
O5_2 O 0.4571(3) -0.4248(4) 0.89659(19)
C12_2 C 0.5074(4) -0.3416(4) 0.9751(2)
C13_2 C 0.6031(4) -0.3798(5) 0.9749(2)
H9_2 H 0.6269 -0.4294 0.9439
C14_2 C 0.6672(4) -0.3538(4) 1.0145(2)
N2_2 N 0.6427(3) -0.2915(3) 1.05300(16)
C15_2 C 0.5492(4) -0.2552(4) 1.0532(2)
H11_2 H 0.5277 -0.2054 1.0846
C16_2 C 0.4807(4) -0.2785(4) 1.0157(2)
H12_2 H 0.4065 -0.2481 1.0176
H10_2 H 0.7410 -0.3855 1.0145
H7_2 H 0.2085 -0.3638 0.9206
H8_2 H 0.2963 -0.4025 0.8741
Cl1G Cl 0.41726(9) 0.31838(10) 0.61463(6)
Co1G Co 0.2500 1.2500 0.61390(4)
Cl1G_2 Cl 0.41726(9) 1.31838(10) 0.61463(6)
Cl1_2 Cl 0.08274(9) 1.18162(10) 0.61463(6)
Co1A Co 0.7500 0.7500 1.11390(4)
N2A N 0.2915(3) 0.1427(3) 0.55300(16)
N2B N 0.2085(3) 0.3573(3) 0.55300(16)
Co1A_2 Co -0.2500 0.7500 1.11390(4)
Co1A_3 Co -0.2500 -0.2500 1.11390(4)
Co1_2 Co 0.2500 -0.7500 0.61390(4)
Co1A_4 Co 0.7500 -0.2500 1.11390(4)
N1_3 N 0.2063(3) 1.3634(3) 0.67078(16)
N2A_2 N 0.2915(3) 1.1427(3) 0.55300(16)
N2B_2 N 0.2085(3) 1.3573(3) 0.55300(16)
C17 C -0.2500 0.7500 0.7500
C18 C -0.2398(8) 0.8413(7) 0.7155(4)
H13 H -0.3050 0.8506 0.6912
H14 H -0.2305 0.9071 0.7394
O6 O -0.1513(5) 0.8246(5) 0.6827(3)
C19 C -0.1478(8) 0.8726(7) 0.6367(4)
O7 O -0.2099(7) 0.9301(6) 0.6221(3)
C20 C -0.0578(8) 0.8485(8) 0.6067(4)
C21 C -0.0474(11) 0.8897(10) 0.5574(4)
H15 H -0.1028 0.9424 0.5444
C22 C 0.0284(13) 0.8678(12) 0.5246(7)
H16 H 0.0310 0.8981 0.4853
N3 N 0.1106(12) 0.7990(12) 0.5447(6)
C23 C 0.0995(10) 0.7636(13) 0.5939(7)
H17 H 0.1575 0.7168 0.6097
C24 C 0.0173(9) 0.7838(9) 0.6254(5)
H18 H 0.0109 0.7504 0.6639
C18E C -0.1587(7) 0.7398(8) 0.7845(4)
H13E H -0.1494 0.8050 0.8088
H14E H -0.0929 0.7305 0.7606
O6E O -0.1754(5) 0.6513(5) 0.8173(3)
C19E C -0.1274(7) 0.6478(8) 0.8633(4)
O7E O -0.0699(6) 0.7099(7) 0.8779(3)
C20E C -0.1515(8) 0.5578(8) 0.8933(4)
C21E C -0.1103(10) 0.5474(11) 0.9426(4)
H15E H -0.0576 0.6028 0.9556
C22E C -0.1322(12) 0.4716(13) 0.9754(7)
H16E H -0.1019 0.4690 1.0147
N3E N -0.2010(12) 0.3894(12) 0.9553(6)
C23E C -0.2364(13) 0.4005(10) 0.9061(7)
H17E H -0.2832 0.3425 0.8903
C24E C -0.2162(9) 0.4827(9) 0.8746(5)
H18E H -0.2496 0.4891 0.8361
C18F C -0.3413(7) 0.7602(8) 0.7845(4)
H13F H -0.3506 0.6950 0.8088
H14F H -0.4071 0.7695 0.7606
O6F O -0.3246(5) 0.8487(5) 0.8173(3)
C19F C -0.3726(7) 0.8522(8) 0.8633(4)
O7F O -0.4301(6) 0.7901(7) 0.8779(3)
C20F C -0.3485(8) 0.9422(8) 0.8933(4)
C21F C -0.3897(10) 0.9526(11) 0.9426(4)
H15F H -0.4424 0.8972 0.9556
C22F C -0.3678(12) 1.0284(13) 0.9754(7)
H16F H -0.3981 1.0310 1.0147
N3F N -0.2990(12) 1.1106(12) 0.9553(6)
C23F C -0.2636(13) 1.0995(10) 0.9061(7)
H17F H -0.2168 1.1575 0.8903
C24F C -0.2838(9) 1.0173(9) 0.8746(5)
H18F H -0.2504 1.0109 0.8361
C18G C -0.2602(8) 0.6587(7) 0.7155(4)
H13G H -0.1950 0.6494 0.6912
H14G H -0.2695 0.5929 0.7394
O6G O -0.3487(5) 0.6754(5) 0.6827(3)
C19G C -0.3522(8) 0.6274(7) 0.6367(4)
O7G O -0.2901(7) 0.5699(6) 0.6221(3)
C20G C -0.4422(8) 0.6515(8) 0.6067(4)
C21G C -0.4526(11) 0.6103(10) 0.5574(4)
H15G H -0.3972 0.5576 0.5444
C22G C -0.5284(13) 0.6322(12) 0.5246(7)
H16G H -0.5310 0.6019 0.4853
N3G N -0.6106(12) 0.7010(12) 0.5447(6)
C23G C -0.5995(10) 0.7364(13) 0.5939(7)
H17G H -0.6575 0.7832 0.6097
C24G C -0.5173(9) 0.7162(9) 0.6254(5)
H18G H -0.5109 0.7496 0.6639
loop_
_geom_bond_atom_site_label_1
_geom_bond_atom_site_label_2
_geom_bond_site_symmetry_1
_geom_bond_site_symmetry_2
C1 C2 1_555 1_555
C2 H1 1_555 1_555
H2 C2 1_555 1_555
O1 C4 1_555 1_555
C4 C5 1_555 1_555
C5 C6 1_555 1_555
C6 H3 1_555 1_555
C7 C6 1_555 1_555
H4 C7 1_555 1_555
C8 H5 1_555 1_555
C9 C5 1_555 1_555
H6 C9 1_555 1_555
N1 C7 1_555 1_555
N2 C14 1_555 1_555
O3 C2 1_555 1_555
O4 C10 1_555 1_555
O5 C11 1_555 1_555
Cl1 Co1 1_555 1_555
Co1 N1 1_555 1_555
C10 C1 1_555 1_555
H7 C10 1_555 1_555
H8 C10 1_555 1_555
C11 O4 1_555 1_555
C12 C11 1_555 1_555
C13 C12 1_555 1_555
H9 C13 1_555 1_555
C14 C13 1_555 1_555
H10 C14 1_555 1_555
C15 N2 1_555 1_555
H11 C15 1_555 1_555
C16 C12 1_555 1_555
H12 C16 1_555 1_555
C17 C18 1_555 1_555
C18 H13 1_555 1_555
H14 C18 1_555 1_555
O6 C18 1_555 1_555
C19 O6 1_555 1_555
O7 C19 1_555 1_555
C20 C19 1_555 1_555
C21 C20 1_555 1_555
H15 C21 1_555 1_555
C22 C21 1_555 1_555
H16 C22 1_555 1_555
N3 C22 1_555 1_555
C23 N3 1_555 1_555
H17 C23 1_555 1_555
C24 C20 1_555 1_555
H18 C24 1_555 1_555
C2G C1 1_555 1_555
H1G C2G 1_555 1_555
H2G C2G 1_555 1_555
O3G C2G 1_555 1_555
C4G O3G 1_555 1_555
O1G C4G 1_555 1_555
C5G C4G 1_555 1_555
C6G C5G 1_555 1_555
H3G C6G 1_555 1_555
C7G C6G 1_555 1_555
H4G C7G 1_555 1_555
N1G C7G 1_555 1_555
C8G N1G 1_555 1_555
H5G C8G 1_555 1_555
C9G C5G 1_555 1_555
H6G C9G 1_555 1_555
C10G C1 1_555 1_555
O4G C10G 1_555 1_555
C11G O4G 1_555 1_555
O5G C11G 1_555 1_555
C12G C11G 1_555 1_555
C13G C12G 1_555 1_555
H9G C13G 1_555 1_555
C14G C13G 1_555 1_555
N2G C14G 1_555 1_555
C15G N2G 1_555 1_555
H11G C15G 1_555 1_555
C16G C12G 1_555 1_555
H12G C16G 1_555 1_555
H10G C14G 1_555 1_555
H7G C10G 1_555 1_555
H8G C10G 1_555 1_555
C18E C17 1_555 1_555
H13E C18E 1_555 1_555
H14E C18E 1_555 1_555
O6E C18E 1_555 1_555
C19E O6E 1_555 1_555
O7E C19E 1_555 1_555
C20E C19E 1_555 1_555
C21E C20E 1_555 1_555
H15E C21E 1_555 1_555
C22E C21E 1_555 1_555
H16E C22E 1_555 1_555
N3E C22E 1_555 1_555
C23E N3E 1_555 1_555
H17E C23E 1_555 1_555
C24E C20E 1_555 1_555
H18E C24E 1_555 1_555
C18F C17 1_555 1_555
H13F C18F 1_555 1_555
H14F C18F 1_555 1_555
O6F C18F 1_555 1_555
C19F O6F 1_555 1_555
O7F C19F 1_555 1_555
C20F C19F 1_555 1_555
C21F C20F 1_555 1_555
H15F C21F 1_555 1_555
C22F C21F 1_555 1_555
H16F C22F 1_555 1_555
N3F C22F 1_555 1_555
C23F N3F 1_555 1_555
H17F C23F 1_555 1_555
C24F C20F 1_555 1_555
H18F C24F 1_555 1_555
C18G C17 1_555 1_555
H13G C18G 1_555 1_555
H14G C18G 1_555 1_555
O6G C18G 1_555 1_555
C19G O6G 1_555 1_555
O7G C19G 1_555 1_555
C20G C19G 1_555 1_555
C21G C20G 1_555 1_555
H15G C21G 1_555 1_555
C22G C21G 1_555 1_555
H16G C22G 1_555 1_555
N3G C22G 1_555 1_555
C23G N3G 1_555 1_555
H17G C23G 1_555 1_555
C24G C20G 1_555 1_555
H18G C24G 1_555 1_555
C1G C2G_2 1_555 1_555
C2G_2 H1G_2 1_555 1_555
H2G_2 C2G_2 1_555 1_555
O1G_2 C4G_2 1_555 1_555
C4G_2 C5G_2 1_555 1_555
C5G_2 C6G_2 1_555 1_555
C6G_2 H3G_2 1_555 1_555
C7G_2 C6G_2 1_555 1_555
H4G_2 C7G_2 1_555 1_555
C8G_2 H5G_2 1_555 1_555
C9G_2 C5G_2 1_555 1_555
H6G_2 C9G_2 1_555 1_555
N1G_2 Co1 1_555 1_555
N2G_2 C14G_2 1_555 1_555
O3G_2 C2G_2 1_555 1_555
O4G_2 C10G_2 1_555 1_555
O5G_2 C11G_2 1_555 1_555
C10G_2 C1G 1_555 1_555
H7G_2 C10G_2 1_555 1_555
H8G_2 C10G_2 1_555 1_555
C11G_2 O4G_2 1_555 1_555
C12G_2 C11G_2 1_555 1_555
C13G_2 C12G_2 1_555 1_555
H9G_2 C13G_2 1_555 1_555
C14G_2 C13G_2 1_555 1_555
H10G_2 C14G_2 1_555 1_555
C15G_2 N2G_2 1_555 1_555
H11G_2 C15G_2 1_555 1_555
C16G_2 C12G_2 1_555 1_555
H12G_2 C16G_2 1_555 1_555
C2_2 C1G 1_555 1_555
H1_2 C2_2 1_555 1_555
H2_2 C2_2 1_555 1_555
O3_2 C2_2 1_555 1_555
C4_2 O3_2 1_555 1_555
O1_2 C4_2 1_555 1_555
C5_2 C4_2 1_555 1_555
C6_2 C5_2 1_555 1_555
H3_2 C6_2 1_555 1_555
C7_2 C6_2 1_555 1_555
H4_2 C7_2 1_555 1_555
N1_2 C7_2 1_555 1_555
C8_2 N1_2 1_555 1_555
H5_2 C8_2 1_555 1_555
C9_2 C5_2 1_555 1_555
H6_2 C9_2 1_555 1_555
C10_2 C1G 1_555 1_555
O4_2 C10_2 1_555 1_555
C11_2 O4_2 1_555 1_555
O5_2 C11_2 1_555 1_555
C12_2 C11_2 1_555 1_555
C13_2 C12_2 1_555 1_555
H9_2 C13_2 1_555 1_555
C14_2 C13_2 1_555 1_555
N2_2 C14_2 1_555 1_555
C15_2 N2_2 1_555 1_555
H11_2 C15_2 1_555 1_555
C16_2 C12_2 1_555 1_555
H12_2 C16_2 1_555 1_555
H10_2 C14_2 1_555 1_555
H7_2 C10_2 1_555 1_555
H8_2 C10_2 1_555 1_555
Cl1G Co1 1_555 1_555
Co1G N1G 1_555 1_555
Cl1G_2 Co1G 1_555 1_555
Cl1_2 Co1G 1_555 1_555
Co1A N2 1_555 1_555
N2A Co1 1_555 1_555
N2B Co1 1_555 1_555
Co1A_2 N2G 1_555 1_555
Co1A_3 N2G_2 1_555 1_555
Co1_2 N1_2 1_555 1_555
Co1A_4 N2_2 1_555 1_555
N1_3 Co1G 1_555 1_555
N2A_2 Co1G 1_555 1_555
N2B_2 Co1G 1_555 1_555
C4 O3 1_555 1_555
C8 N1 1_555 1_555
C8 C9 1_555 1_555
C15 C16 1_555 1_555
C23 C24 1_555 1_555
C8G C9G 1_555 1_555
C15G C16G 1_555 1_555
C23E C24E 1_555 1_555
C23F C24F 1_555 1_555
C23G C24G 1_555 1_555
C4G_2 O3G_2 1_555 1_555
C7G_2 N1G_2 1_555 1_555
C8G_2 N1G_2 1_555 1_555
C8G_2 C9G_2 1_555 1_555
C15G_2 C16G_2 1_555 1_555
C8_2 C9_2 1_555 1_555
C15_2 C16_2 1_555 1_555

#END
