
#######################################################################
#
#                 Cambridge Crystallographic Data Centre
#                                CCDC 
#
#######################################################################
#
# If this CIF has been generated from an entry in the Cambridge 
# Structural Database, then it will include bibliographic, chemical, 
# crystal, experimental, refinement or atomic coordinate data resulting 
# from the CCDC's data processing and validation procedures.
#
#######################################################################

data_QUJWEZ
_chemical_formula_moiety         'C48 H26 N6 O26 S4 U5 2+'
_symmetry_cell_setting           monoclinic
_symmetry_space_group_name_H-M   'C 2/c'
_symmetry_Int_Tables_number      15
_space_group_name_Hall           '-C 2yc'
loop_
_symmetry_equiv_pos_site_id
_symmetry_equiv_pos_as_xyz
1 x,y,z
2 -x,y,1/2-z
3 1/2+x,1/2+y,z
4 1/2-x,1/2+y,1/2-z
5 -x,-y,-z
6 x,-y,1/2+z
7 1/2-x,1/2-y,-z
8 1/2+x,1/2-y,1/2+z
_cell_length_a                   29.8727(16)
_cell_length_b                   7.6518(4)
_cell_length_c                   22.1924(12)
_cell_angle_alpha                90
_cell_angle_beta                 122.8670(10)
_cell_angle_gamma                90
_cell_volume                     4260.76
loop_
_atom_site_label
_atom_site_type_symbol
_atom_site_fract_x
_atom_site_fract_y
_atom_site_fract_z
_atom_site_U_iso_or_equiv
_atom_site_thermal_displace_type
N1 N 0.64995(6) -0.0515(3) 0.11002(9) 0.0356 Uani
H5 H 0.6406(14) -0.098(5) 0.071(2) 0.0140 Uiso
N2 N 0.51948(6) 0.0443(2) 0.06881(8) 0.0287 Uani
N3 N 0.61297(7) -0.1328(2) -0.01964(9) 0.0353 Uani
C13 C 0.70091(8) -0.0366(4) 0.16469(12) 0.0449 Uani
H6 H 0.7280 -0.0934 0.1618 0.0540 Uiso
C14 C 0.71485(9) 0.0593(4) 0.22492(12) 0.0461 Uani
H7 H 0.7511 0.0693 0.2633 0.0550 Uiso
C15 C 0.67514(9) 0.1403(3) 0.22824(12) 0.0424 Uani
H8 H 0.6837 0.2072 0.2692 0.0510 Uiso
C16 C 0.62240(8) 0.1239(3) 0.17132(11) 0.0353 Uani
H9 H 0.5947 0.1783 0.1734 0.0420 Uiso
C17 C 0.61057(7) 0.0275(3) 0.11154(10) 0.0282 Uani
C18 C 0.55393(7) 0.0080(2) 0.04973(10) 0.0271 Uani
C19 C 0.53336(7) -0.0383(3) -0.02276(9) 0.0262 Uani
C20 C 0.56220(7) -0.0806(2) -0.05883(10) 0.0284 Uani
C21 C 0.53660(9) -0.0692(3) -0.13255(11) 0.0423 Uani
H10 H 0.5005 -0.0323 -0.1611 0.0510 Uiso
C22 C 0.56432(9) -0.1121(4) -0.16411(12) 0.0535 Uani
H11 H 0.5473 -0.1035 -0.2147 0.0640 Uiso
C23 C 0.61636(8) -0.1671(4) -0.12261(12) 0.0457 Uani
H12 H 0.6356 -0.1980 -0.1438 0.0550 Uiso
C24 C 0.63968(8) -0.1762(3) -0.04998(12) 0.0430 Uani
H13 H 0.6756 -0.2142 -0.0205 0.0520 Uiso
N1D N 0.35005(6) 0.0515(3) -0.11002(9) 0.0356 Uani
H5D H 0.3594(14) 0.098(5) -0.071(2) 0.0140 Uiso
N2D N 0.48052(6) -0.0443(2) -0.06881(8) 0.0287 Uani
N3D N 0.38703(7) 0.1328(2) 0.01964(9) 0.0353 Uani
C13D C 0.29909(8) 0.0366(4) -0.16469(12) 0.0449 Uani
H6D H 0.2720 0.0934 -0.1618 0.0540 Uiso
C14D C 0.28515(9) -0.0593(4) -0.22492(12) 0.0461 Uani
H7D H 0.2489 -0.0693 -0.2633 0.0550 Uiso
C15D C 0.32486(9) -0.1403(3) -0.22824(12) 0.0424 Uani
H8D H 0.3163 -0.2072 -0.2692 0.0510 Uiso
C16D C 0.37760(8) -0.1239(3) -0.17132(11) 0.0353 Uani
H9D H 0.4053 -0.1783 -0.1734 0.0420 Uiso
C17D C 0.38943(7) -0.0275(3) -0.11154(10) 0.0282 Uani
C18D C 0.44607(7) -0.0080(2) -0.04973(10) 0.0271 Uani
C19D C 0.46664(7) 0.0383(3) 0.02276(9) 0.0262 Uani
C20D C 0.43780(7) 0.0806(2) 0.05883(10) 0.0284 Uani
C21D C 0.46340(9) 0.0692(3) 0.13255(11) 0.0423 Uani
H10D H 0.4995 0.0323 0.1611 0.0510 Uiso
C22D C 0.43568(9) 0.1121(4) 0.16411(12) 0.0535 Uani
H11D H 0.4527 0.1035 0.2147 0.0640 Uiso
C23D C 0.38364(8) 0.1671(4) 0.12261(12) 0.0457 Uani
H12D H 0.3644 0.1980 0.1438 0.0550 Uiso
C24D C 0.36032(8) 0.1762(3) 0.04998(12) 0.0430 Uani
H13D H 0.3244 0.2142 0.0205 0.0520 Uiso
U1 U 0.59010(2) 0.61287(2) 0.23915(2) 0.0247 Uani
S1 S 0.54982(2) 0.51545(7) 0.48184(2) 0.0292 Uani
S2 S 0.76617(4) 0.65947(16) 0.53279(5) 0.0309 Uani
O1 O 0.57895(7) 0.3870(2) 0.23658(9) 0.0538 Uani
O2 O 0.59813(7) 0.8402(2) 0.24033(8) 0.0505 Uani
O3 O 0.57913(5) 0.6428(2) 0.33643(7) 0.0369 Uani
O4 O 0.50236(5) 0.6416(3) 0.32883(7) 0.0482 Uani
O5 O 0.64822(5) 0.4492(2) 0.68882(7) 0.0386 Uani
O6 O 0.56379(5) 0.3892(2) 0.61455(7) 0.0403 Uani
C1 C 0.55171(7) 0.6284(3) 0.36326(9) 0.0262 Uani
C2 C 0.58104(7) 0.5973(3) 0.44192(9) 0.0255 Uani
C3 C 0.63396(8) 0.6242(3) 0.49113(10) 0.0415 Uani
H1 H 0.6577 0.6714 0.4793 0.0500 Uiso
C4 C 0.64985(8) 0.5751(3) 0.56108(10) 0.0415 Uani
H2 H 0.6853 0.5857 0.6016 0.0500 Uiso
C5 C 0.60862(7) 0.5105(3) 0.56400(9) 0.0270 Uani
C6 C 0.60759(7) 0.4453(3) 0.62605(9) 0.0282 Uani
O7 O 0.67337(12) 0.5287(5) 0.33028(15) 0.0366 Uani
O8 O 0.73290(14) 0.3677(5) 0.42232(19) 0.0480 Uani
O9 O 0.82297(12) 0.8734(5) 0.66413(16) 0.0412 Uani
O10 O 0.78276(15) 1.1269(5) 0.61294(19) 0.0495 Uani
C7 C 0.7112(2) 0.5059(8) 0.3948(2) 0.0245 Uani
C8 C 0.72878(16) 0.6697(7) 0.4398(2) 0.0290 Uani
C9 C 0.71777(15) 0.8409(6) 0.41636(19) 0.0348 Uani
H3 H 0.6981 0.8735 0.3672 0.0420 Uiso
C10 C 0.73881(16) 0.9616(6) 0.4731(2) 0.0351 Uani
H4 H 0.7357 1.0848 0.4668 0.0420 Uiso
C11 C 0.76435(16) 0.8807(7) 0.5386(2) 0.0314 Uani
C12 C 0.7920(2) 0.9690(9) 0.6094(3) 0.0397 Uani
S2F S 0.73383(4) 0.84053(16) 0.46721(5) 0.0309 Uani
O7F O 0.82663(12) 0.9713(5) 0.66972(15) 0.0366 Uani
O8F O 0.76710(14) 1.1323(5) 0.57768(19) 0.0480 Uani
O9F O 0.67703(12) 0.6266(5) 0.33587(16) 0.0412 Uani
O10F O 0.71724(15) 0.3731(5) 0.38706(19) 0.0495 Uani
C7F C 0.7888(2) 0.9941(8) 0.6052(2) 0.0245 Uani
C8F C 0.77122(16) 0.8303(7) 0.5602(2) 0.0290 Uani
C9F C 0.78223(15) 0.6591(6) 0.58364(19) 0.0348 Uani
H3F H 0.8019 0.6265 0.6328 0.0420 Uiso
C10F C 0.76119(16) 0.5384(6) 0.5269(2) 0.0351 Uani
H4F H 0.7643 0.4152 0.5332 0.0420 Uiso
C11F C 0.73565(16) 0.6193(7) 0.4614(2) 0.0314 Uani
C12F C 0.7080(2) 0.5310(9) 0.3906(3) 0.0397 Uani
U1A U 0.40990(2) 0.61287(2) 0.26085(2) 0.0247 Uani
S1A S 0.45018(2) 0.51545(7) 0.01816(2) 0.0292 Uani
O1A O 0.42105(7) 0.3870(2) 0.26342(9) 0.0538 Uani
O2A O 0.40187(7) 0.8402(2) 0.25967(8) 0.0505 Uani
O3A O 0.42087(5) 0.6428(2) 0.16357(7) 0.0369 Uani
O4A O 0.49764(5) 0.6416(3) 0.17117(7) 0.0482 Uani
O5A O 0.35178(5) 0.4492(2) -0.18882(7) 0.0386 Uani
O6A O 0.43621(5) 0.3892(2) -0.11455(7) 0.0403 Uani
C1A C 0.44829(7) 0.6284(3) 0.13674(9) 0.0262 Uani
C2A C 0.41896(7) 0.5973(3) 0.05808(9) 0.0255 Uani
C3A C 0.36604(8) 0.6242(3) 0.00887(10) 0.0415 Uani
H1A H 0.3423 0.6714 0.0207 0.0500 Uiso
C4A C 0.35015(8) 0.5751(3) -0.06108(10) 0.0415 Uani
H2A H 0.3147 0.5857 -0.1016 0.0500 Uiso
C5A C 0.39138(7) 0.5105(3) -0.06400(9) 0.0270 Uani
C6A C 0.39241(7) 0.4453(3) -0.12605(9) 0.0282 Uani
U1D U 0.40990(2) 0.38713(2) -0.23915(2) 0.0247 Uani
U1E U 0.59010(2) 0.38713(2) 0.73915(2) 0.0247 Uani
U1F U 0.90990(2) 0.88713(2) 0.76085(2) 0.0247 Uani
O5D O 0.35178(5) 0.5508(2) 0.31118(7) 0.0386 Uani
O5E O 0.64822(5) 0.5508(2) 0.18882(7) 0.0386 Uani
O6D O 0.43621(5) 0.6108(2) 0.38545(7) 0.0403 Uani
O6E O 0.56379(5) 0.6108(2) 0.11455(7) 0.0403 Uani
O7A O 0.32663(12) 0.5287(5) 0.16972(15) 0.0366 Uani
O9G O 0.32297(12) 0.6266(5) 0.16413(16) 0.0412 Uani
loop_
_atom_site_aniso_label
_atom_site_aniso_U_11
_atom_site_aniso_U_22
_atom_site_aniso_U_33
_atom_site_aniso_U_23
_atom_site_aniso_U_13
_atom_site_aniso_U_12
N1 0.0262(7) 0.0510(11) 0.0269(7) -0.0007(8) 0.0127(6) 0.0051(7)
N2 0.0266(7) 0.0328(8) 0.0267(7) -0.0004(6) 0.0145(5) 0.0027(6)
N3 0.0281(7) 0.0452(11) 0.0308(8) -0.0046(7) 0.0148(6) 0.0048(7)
C13 0.0255(9) 0.0663(15) 0.0371(10) 0.0045(11) 0.0133(8) 0.0080(10)
C14 0.0292(10) 0.0653(16) 0.0332(10) -0.0002(11) 0.0101(8) -0.0021(10)
C15 0.0375(10) 0.0528(15) 0.0322(10) -0.0092(9) 0.0159(8) -0.0103(10)
C16 0.0325(9) 0.0399(12) 0.0354(9) -0.0063(8) 0.0196(7) -0.0039(8)
C17 0.0252(8) 0.0309(10) 0.0276(8) 0.0010(7) 0.0138(6) -0.0002(7)
C18 0.0252(8) 0.0276(9) 0.0277(8) 0.0017(7) 0.0138(6) 0.0020(7)
C19 0.0265(8) 0.0273(9) 0.0261(8) 0.0006(7) 0.0152(6) 0.0024(7)
C20 0.0268(8) 0.0297(10) 0.0291(8) -0.0011(7) 0.0155(6) 0.0007(7)
C21 0.0323(9) 0.0647(15) 0.0302(9) 0.0040(10) 0.0171(7) 0.0092(10)
C22 0.0373(10) 0.095(2) 0.0294(9) -0.0026(12) 0.0189(7) 0.0081(12)
C23 0.0357(9) 0.0664(15) 0.0424(10) -0.0151(11) 0.0260(7) -0.0009(10)
C24 0.0300(9) 0.0587(14) 0.0406(10) -0.0113(10) 0.0193(7) 0.0048(10)
N1D 0.0262 0.051 0.0269 -0.0007 0.0127 0.0051
N2D 0.0266 0.0328 0.0267 -0.0004 0.0145 0.0027
N3D 0.0281 0.0452 0.0308 -0.0046 0.0148 0.0048
C13D 0.0255 0.0663 0.0371 0.0045 0.0133 0.008
C14D 0.0292 0.0653 0.0332 -0.0002 0.0101 -0.0021
C15D 0.0375 0.0528 0.0322 -0.0092 0.0159 -0.0103
C16D 0.0325 0.0399 0.0354 -0.0063 0.0196 -0.0039
C17D 0.0252 0.0309 0.0276 0.001 0.0138 -0.0002
C18D 0.0252 0.0276 0.0277 0.0017 0.0138 0.002
C19D 0.0265 0.0273 0.0261 0.0006 0.0152 0.0024
C20D 0.0268 0.0297 0.0291 -0.0011 0.0155 0.0007
C21D 0.0323 0.0647 0.0302 0.004 0.0171 0.0092
C22D 0.0373 0.095 0.0294 -0.0026 0.0189 0.0081
C23D 0.0357 0.0664 0.0424 -0.0151 0.026 -0.0009
C24D 0.03 0.0587 0.0406 -0.0113 0.0193 0.0048
U1 0.02165(3) 0.03901(4) 0.01442(2) 0.00058(3) 0.01051(2) 0.00036(3)
S1 0.02108(18) 0.0492(3) 0.01748(17) 0.00478(18) 0.01051(13) -0.00114(19)
S2 0.0215(4) 0.0476(6) 0.0187(4) 0.0018(4) 0.0078(3) -0.0018(4)
O1 0.0865(9) 0.0383(9) 0.0649(8) 0.0052(7) 0.0595(7) 0.0056(8)
O2 0.0755(9) 0.0436(9) 0.0476(8) -0.0096(7) 0.0432(6) -0.0192(8)
O3 0.0302(6) 0.0655(10) 0.0195(5) 0.0011(6) 0.0164(4) -0.0010(6)
O4 0.0231(6) 0.0969(14) 0.0211(6) 0.0077(7) 0.0098(5) -0.0047(7)
O5 0.0258(6) 0.0711(10) 0.0175(5) 0.0026(6) 0.0109(4) -0.0014(7)
O6 0.0270(6) 0.0755(11) 0.0180(5) 0.0045(6) 0.0120(4) -0.0042(7)
C1 0.0262(7) 0.0356(10) 0.0174(7) -0.0006(7) 0.0123(5) -0.0020(7)
C2 0.0251(7) 0.0384(10) 0.0179(6) -0.0002(7) 0.0148(5) -0.0009(7)
C3 0.0251(8) 0.0784(17) 0.0241(8) 0.0027(10) 0.0154(6) -0.0069(10)
C4 0.0222(8) 0.0789(17) 0.0188(8) 0.0032(9) 0.0082(6) -0.0054(10)
C5 0.0225(7) 0.0419(11) 0.0163(7) -0.0002(7) 0.0103(5) 0.0032(7)
C6 0.0255(8) 0.0412(11) 0.0200(7) 0.0013(7) 0.0137(6) 0.0054(8)
O7 0.0277(13) 0.056(2) 0.0157(12) -0.0027(14) 0.0050(10) 0.0059(15)
O8 0.0392(18) 0.042(2) 0.0382(18) 0.0048(16) 0.0051(14) -0.0014(15)
O9 0.0253(13) 0.072(3) 0.0203(12) -0.0028(15) 0.0084(10) -0.0030(16)
O10 0.0445(18) 0.059(2) 0.0403(17) -0.0142(17) 0.0199(13) -0.0049(17)
C7 0.0152(18) 0.042(3) 0.0083(15) -0.0082(17) 0.0011(12) -0.0059(18)
C8 0.0169(15) 0.053(3) 0.0125(15) 0.0026(17) 0.0049(12) -0.0010(17)
C9 0.0304(18) 0.050(3) 0.0152(15) 0.0021(16) 0.0066(13) -0.0004(18)
C10 0.0303(18) 0.039(2) 0.0310(19) -0.0001(18) 0.0134(14) 0.0026(18)
C11 0.0182(15) 0.054(3) 0.0190(17) -0.0071(19) 0.0082(12) -0.0025(18)
C12 0.0267(19) 0.053(4) 0.053(3) -0.004(3) 0.0304(15) -0.003(2)
S2F 0.0215 0.0476 0.0187 0.0018 0.0078 -0.0018
O7F 0.0277 0.056 0.0157 -0.0027 0.005 0.0059
O8F 0.0392 0.042 0.0382 0.0048 0.0051 -0.0014
O9F 0.0253 0.072 0.0203 -0.0028 0.0084 -0.003
O10F 0.0445 0.059 0.0403 -0.0142 0.0199 -0.0049
C7F 0.0152 0.042 0.0083 -0.0082 0.0011 -0.0059
C8F 0.0169 0.053 0.0125 0.0026 0.0049 -0.001
C9F 0.0304 0.05 0.0152 0.0021 0.0066 -0.0004
C10F 0.0303 0.039 0.031 -0.0001 0.0134 0.0026
C11F 0.0182 0.054 0.019 -0.0071 0.0082 -0.0025
C12F 0.0267 0.053 0.053 -0.004 0.0304 -0.003
U1A 0.02165 0.03901 0.01442 -0.00058 0.01051 -0.00036
S1A 0.02108 0.0492 0.01748 -0.00478 0.01051 0.00114
O1A 0.0865 0.0383 0.0649 -0.0052 0.0595 -0.0056
O2A 0.0755 0.0436 0.0476 0.0096 0.0432 0.0192
O3A 0.0302 0.0655 0.0195 -0.0011 0.0164 0.001
O4A 0.0231 0.0969 0.0211 -0.0077 0.0098 0.0047
O5A 0.0258 0.0711 0.0175 -0.0026 0.0109 0.0014
O6A 0.027 0.0755 0.018 -0.0045 0.012 0.0042
C1A 0.0262 0.0356 0.0174 0.0006 0.0123 0.002
C2A 0.0251 0.0384 0.0179 0.0002 0.0148 0.0009
C3A 0.0251 0.0784 0.0241 -0.0027 0.0154 0.0069
C4A 0.0222 0.0789 0.0188 -0.0032 0.0082 0.0054
C5A 0.0225 0.0419 0.0163 0.0002 0.0103 -0.0032
C6A 0.0255 0.0412 0.02 -0.0013 0.0137 -0.0054
U1D 0.02165 0.03901 0.01442 0.00058 0.01051 0.00036
U1E 0.02165 0.03901 0.01442 -0.00058 0.01051 -0.00036
U1F 0.02165 0.03901 0.01442 0.00058 0.01051 0.00036
O5D 0.0258 0.0711 0.0175 0.0026 0.0109 -0.0014
O5E 0.0258 0.0711 0.0175 -0.0026 0.0109 0.0014
O6D 0.027 0.0755 0.018 0.0045 0.012 -0.0042
O6E 0.027 0.0755 0.018 -0.0045 0.012 0.0042
O7A 0.0277 0.056 0.0157 0.0027 0.005 -0.0059
O9G 0.0253 0.072 0.0203 0.0028 0.0084 0.003
loop_
_geom_bond_atom_site_label_1
_geom_bond_atom_site_label_2
_geom_bond_site_symmetry_1
_geom_bond_site_symmetry_2
U1 O1 1_555 1_555
S1 C2 1_555 1_555
S2 S2F 1_555 1_555
O2 U1 1_555 1_555
O3 U1 1_555 1_555
O4 C1 1_555 1_555
O5 C6 1_555 1_555
O6 C6 1_555 1_555
C1 O3 1_555 1_555
C2 C1 1_555 1_555
C3 C2 1_555 1_555
H1 C3 1_555 1_555
C4 C3 1_555 1_555
H2 C4 1_555 1_555
C5 S1 1_555 1_555
C6 C5 1_555 1_555
O7 U1 1_555 1_555
O8 C7 1_555 1_555
O9 C12 1_555 1_555
O10 C12 1_555 1_555
C7 O7 1_555 1_555
C8 C7 1_555 1_555
C9 C8 1_555 1_555
H3 C9 1_555 1_555
C10 C9 1_555 1_555
H4 C10 1_555 1_555
C11 C10 1_555 1_555
C12 C11 1_555 1_555
N1 H5 1_555 1_555
N2 C18 1_555 1_555
N3 C20 1_555 1_555
C13 N1 1_555 1_555
H6 C13 1_555 1_555
C14 C13 1_555 1_555
H7 C14 1_555 1_555
C15 C14 1_555 1_555
H8 C15 1_555 1_555
C16 C15 1_555 1_555
H9 C16 1_555 1_555
C17 N1 1_555 1_555
C18 C17 1_555 1_555
C19 C18 1_555 1_555
C20 C19 1_555 1_555
C21 C20 1_555 1_555
H10 C21 1_555 1_555
C22 C21 1_555 1_555
H11 C22 1_555 1_555
C23 C22 1_555 1_555
H12 C23 1_555 1_555
C24 N3 1_555 1_555
H13 C24 1_555 1_555
S2F C9 1_555 1_555
O7F O9 1_555 1_555
O8F O10 1_555 1_555
O9F U1 1_555 1_555
O10F O7 1_555 1_555
C7F O9 1_555 1_555
C8F C11 1_555 1_555
C9F S2 1_555 1_555
H3F C9F 1_555 1_555
C10F S2 1_555 1_555
H4F C10F 1_555 1_555
C11F C7 1_555 1_555
C12F O7 1_555 1_555
U1A O4 1_555 1_555
S1A C2A 1_555 1_555
O1A U1A 1_555 1_555
O2A U1A 1_555 1_555
O3A U1A 1_555 1_555
O4A U1 1_555 1_555
O5A C6A 1_555 1_555
O6A C6A 1_555 1_555
C1A O3A 1_555 1_555
C2A C1A 1_555 1_555
C3A C2A 1_555 1_555
H1A C3A 1_555 1_555
C4A C3A 1_555 1_555
H2A C4A 1_555 1_555
C5A S1A 1_555 1_555
C6A C5A 1_555 1_555
U1D O5A 1_555 1_555
U1E O5 1_555 1_555
U1F O9 1_555 1_555
O5D U1A 1_555 1_555
O5E U1 1_555 1_555
O6D U1A 1_555 1_555
O6E U1 1_555 1_555
O7A U1A 1_555 1_555
O9G U1A 1_555 1_555
N1D H5D 1_555 1_555
N2D C19 1_555 1_555
N3D C20D 1_555 1_555
C13D N1D 1_555 1_555
H6D C13D 1_555 1_555
C14D C13D 1_555 1_555
H7D C14D 1_555 1_555
C15D C14D 1_555 1_555
H8D C15D 1_555 1_555
C16D C15D 1_555 1_555
H9D C16D 1_555 1_555
C17D N1D 1_555 1_555
C18D N2D 1_555 1_555
C19D N2 1_555 1_555
C20D C19D 1_555 1_555
C21D C20D 1_555 1_555
H10D C21D 1_555 1_555
C22D C21D 1_555 1_555
H11D C22D 1_555 1_555
C23D C22D 1_555 1_555
H12D C23D 1_555 1_555
C24D N3D 1_555 1_555
H13D C24D 1_555 1_555
O6 U1E 1_555 1_555
C4 C5 1_555 1_555
O7 O9F 1_555 1_555
O8 O10F 1_555 1_555
O8 C12F 1_555 1_555
O10 O7F 1_555 1_555
O10 C7F 1_555 1_555
C7 O9F 1_555 1_555
C7 O10F 1_555 1_555
C8 C11F 1_555 1_555
C8 C12F 1_555 1_555
C10 S2F 1_555 1_555
C11 C7F 1_555 1_555
C12 O7F 1_555 1_555
C12 O8F 1_555 1_555
C12 C8F 1_555 1_555
C16 C17 1_555 1_555
C23 C24 1_555 1_555
O7F C7F 1_555 1_555
O7F U1F 1_555 1_555
O8F C7F 1_555 1_555
O9F C12F 1_555 1_555
O10F C12F 1_555 1_555
C7F C8F 1_555 1_555
C8F C9F 1_555 1_555
C9F C10F 1_555 1_555
C10F C11F 1_555 1_555
C11F C12F 1_555 1_555
O4A C1A 1_555 1_555
O6A U1D 1_555 1_555
C4A C5A 1_555 1_555
O7A O9G 1_555 1_555
C16D C17D 1_555 1_555
C17D C18D 1_555 1_555
C18D C19D 1_555 1_555
C23D C24D 1_555 1_555

#END
