
#######################################################################
#
#                 Cambridge Crystallographic Data Centre
#                                CCDC 
#
#######################################################################
#
# If this CIF has been generated from an entry in the Cambridge 
# Structural Database, then it will include bibliographic, chemical, 
# crystal, experimental, refinement or atomic coordinate data resulting 
# from the CCDC's data processing and validation procedures.
#
#######################################################################

data_POLNAG
_chemical_formula_moiety         '(C24 H32 Cd2 N6 O14)n'
_symmetry_cell_setting           triclinic
_symmetry_space_group_name_H-M   'P -1'
_symmetry_Int_Tables_number      2
_space_group_name_Hall           '-P 1'
loop_
_symmetry_equiv_pos_site_id
_symmetry_equiv_pos_as_xyz
1 x,y,z
2 -x,-y,-z
_cell_length_a                   9.6427(4)
_cell_length_b                   9.9392(8)
_cell_length_c                   9.9832(13)
_cell_angle_alpha                86.303(11)
_cell_angle_beta                 81.118(11)
_cell_angle_gamma                65.262(8)
_cell_volume                     858.572
loop_
_atom_site_label
_atom_site_type_symbol
_atom_site_fract_x
_atom_site_fract_y
_atom_site_fract_z
Cd1 Cd 0.04961(3) 0.27508(3) 0.45850(3)
O1 O -0.0670(4) 0.1228(3) 0.3560(3)
O2 O 0.0845(4) 0.2140(4) 0.2371(3)
O3 O 0.2648(4) 0.3148(4) 0.4211(4)
O4 O 0.1269(3) 0.4744(3) 0.5872(3)
O5 O 0.2162(4) 0.0423(4) 0.5268(4)
N1 N -0.2309(4) 0.3208(4) 0.8570(4)
N2 N -0.2897(4) 0.2396(4) 0.7966(4)
N3 N -0.1142(4) 0.2842(4) 0.6494(3)
C1 C 0.0067(5) 0.1371(4) 0.2457(4)
C2 C 0.0035(5) 0.0650(4) 0.1192(4)
C3 C -0.1013(5) 0.0035(5) 0.1157(4)
H1 H -0.1710 0.0057 0.1948
C4 C 0.1054(5) 0.0608(5) 0.0016(4)
H2 H 0.1778 0.1024 0.0024
C5 C 0.2487(5) 0.4126(5) 0.5040(5)
C6 C 0.3802(5) 0.4557(5) 0.5035(5)
C7 C 0.5045(5) 0.4069(5) 0.3990(5)
H3 H 0.5079 0.3433 0.3303
C8 C 0.3772(5) 0.5479(5) 0.6032(5)
H4 H 0.2927 0.5807 0.6743
C9 C -0.4301(6) 0.5114(6) 1.0127(5)
H5 H -0.4493 0.5510 1.1054
H6 H -0.4168 0.5864 0.9481
C10 C -0.2812(6) 0.3702(6) 0.9978(5)
H7 H -0.1993 0.3887 1.0313
H8 H -0.2975 0.2911 1.0542
C11 C -0.2167(5) 0.2208(5) 0.6735(4)
H9 H -0.2332 0.1676 0.6064
C12 C -0.1271(5) 0.3466(5) 0.7662(4)
H10 H -0.0713 0.4016 0.7833
H11 H 0.284(6) 0.035(6) 0.553(5)
H12 H 0.155(7) 0.005(7) 0.576(6)
Cd1A Cd -0.04961(3) -0.27508(3) -0.45850(3)
Cd1A_2 Cd -0.04961(3) 0.72492(3) 0.54150(3)
Cd1A_3 Cd 0.95039(3) 0.72492(3) 0.54150(3)
Cd1_2 Cd 1.04961(3) 0.27508(3) 0.45850(3)
Cd1A_4 Cd -1.04961(3) 0.72492(3) 1.54150(3)
O1A O 0.0670(4) -0.1228(3) -0.3560(3)
O2A O -0.0845(4) -0.2140(4) -0.2371(3)
O3A O 0.7352(4) 0.6852(4) 0.5789(4)
O3A_2 O -0.2648(4) -0.3148(4) -0.4211(4)
O4A O 0.8731(3) 0.5256(3) 0.4128(3)
O4A_2 O -0.1269(3) 0.5256(3) 0.4128(3)
O4_2 O 0.1269(3) -0.5256(3) -0.4128(3)
O4A_3 O -0.1269(3) -0.4744(3) -0.5872(3)
O5A O -0.2162(4) -0.0423(4) -0.5268(4)
N1A N -0.7691(4) 0.6792(4) 1.1430(4)
N2A N -0.7103(4) 0.7604(4) 1.2034(4)
N3A N -0.8858(4) 0.7158(4) 1.3506(3)
N3A_2 N 0.1142(4) -0.2842(4) -0.6494(3)
C1A C -0.0067(5) -0.1371(4) -0.2457(4)
C2A C -0.0035(5) -0.0650(4) -0.1192(4)
C3A C 0.1013(5) -0.0035(5) -0.1157(4)
H1A H 0.1710 -0.0057 -0.1948
C4A C -0.1054(5) -0.0608(5) -0.0016(4)
H2A H -0.1778 -0.1024 -0.0024
C5A C 0.7513(5) 0.5874(5) 0.4960(5)
C6A C 0.6198(5) 0.5443(5) 0.4965(5)
C7A C 0.4955(5) 0.5931(5) 0.6010(5)
H3A H 0.4921 0.6567 0.6697
C8A C 0.6228(5) 0.4521(5) 0.3968(5)
H4A H 0.7073 0.4193 0.3257
C9A C -0.5699(6) 0.4886(6) 0.9873(5)
H5A H -0.5507 0.4490 0.8946
H6A H -0.5832 0.4136 1.0519
C10A C -0.7188(6) 0.6298(6) 1.0022(5)
H7A H -0.8007 0.6113 0.9687
H8A H -0.7025 0.7089 0.9458
C11A C -0.7833(5) 0.7792(5) 1.3265(4)
H9A H -0.7668 0.8324 1.3936
C12A C -0.8729(5) 0.6534(5) 1.2338(4)
H10A H -0.9287 0.5984 1.2167
H11A H -0.284(6) -0.035(6) -0.553(5)
H12A H -0.155(7) -0.005(7) -0.576(6)
O6 O 0.5119(5) 0.8952(5) 0.1088(5)
O7 O 0.5404(4) 0.0499(5) 0.3250(5)
O9 O 0.7642(9) 0.6729(8) -0.0334(8)
O10 O 0.7995(9) 0.6559(10) 0.1621(8)
loop_
_geom_bond_atom_site_label_1
_geom_bond_atom_site_label_2
_geom_bond_site_symmetry_1
_geom_bond_site_symmetry_2
Cd1 O1 1_555 1_555
O1 C1 1_555 1_555
O2 Cd1 1_555 1_555
O3 Cd1 1_555 1_555
O4 Cd1 1_555 1_555
O5 Cd1 1_555 1_555
N1 N2 1_555 1_555
N2 C11 1_555 1_555
N3 Cd1 1_555 1_555
C1 O2 1_555 1_555
C2 C1 1_555 1_555
C3 C2 1_555 1_555
H1 C3 1_555 1_555
C4 C2 1_555 1_555
H2 C4 1_555 1_555
C5 O3 1_555 1_555
C6 C5 1_555 1_555
C7 C6 1_555 1_555
H3 C7 1_555 1_555
C8 C6 1_555 1_555
H4 C8 1_555 1_555
C9 H5 1_555 1_555
H6 C9 1_555 1_555
C10 N1 1_555 1_555
H7 C10 1_555 1_555
H8 C10 1_555 1_555
C11 N3 1_555 1_555
H9 C11 1_555 1_555
C12 N1 1_555 1_555
H10 C12 1_555 1_555
H11 O5 1_555 1_555
H12 O5 1_555 1_555
Cd1A O1A 1_555 1_555
Cd1A_2 O4 1_555 1_555
Cd1A_3 O3A 1_555 1_555
Cd1_2 O4A 1_555 1_555
Cd1A_4 N3A 1_555 1_555
O1A C1A 1_555 1_555
O2A Cd1A 1_555 1_555
O3A C5A 1_555 1_555
O3A_2 Cd1A 1_555 1_555
O4A Cd1A_3 1_555 1_555
O4A_2 Cd1 1_555 1_555
O4_2 Cd1A 1_555 1_555
O4A_3 Cd1A 1_555 1_555
O5A Cd1A 1_555 1_555
N1A N2A 1_555 1_555
N2A C11A 1_555 1_555
N3A C11A 1_555 1_555
N3A_2 Cd1A 1_555 1_555
C1A O2A 1_555 1_555
C2A C1A 1_555 1_555
C3A C4 1_555 1_555
H1A C3A 1_555 1_555
C4A C3 1_555 1_555
H2A C4A 1_555 1_555
C5A O4A 1_555 1_555
C6A C5A 1_555 1_555
C7A C8 1_555 1_555
H3A C7A 1_555 1_555
C8A C7 1_555 1_555
H4A C8A 1_555 1_555
C9A C9 1_555 1_555
H5A C9A 1_555 1_555
H6A C9A 1_555 1_555
C10A N1A 1_555 1_555
H7A C10A 1_555 1_555
H8A C10A 1_555 1_555
C11A H9A 1_555 1_555
C12A N1A 1_555 1_555
H10A C12A 1_555 1_555
H11A O5A 1_555 1_555
H12A O5A 1_555 1_555
O4 C5 1_555 1_555
N3 C12 1_555 1_555
C9 C10 1_555 1_555
Cd1A_2 O4A_2 1_555 1_555
N3A C12A 1_555 1_555
C2A C3A 1_555 1_555
C2A C4A 1_555 1_555
C6A C7A 1_555 1_555
C6A C8A 1_555 1_555
C9A C10A 1_555 1_555

#END
