
#######################################################################
#
#                 Cambridge Crystallographic Data Centre
#                                CCDC 
#
#######################################################################
#
# If this CIF has been generated from an entry in the Cambridge 
# Structural Database, then it will include bibliographic, chemical, 
# crystal, experimental, refinement or atomic coordinate data resulting 
# from the CCDC's data processing and validation procedures.
#
#######################################################################

data_IPICOA
_chemical_formula_moiety         '(C3 H14 N1 O13 P4 Zn3 1-)n'
_symmetry_cell_setting           orthorhombic
_symmetry_space_group_name_H-M   'P b c n'
_symmetry_Int_Tables_number      60
_space_group_name_Hall           '-P 2n 2ab'
loop_
_symmetry_equiv_pos_site_id
_symmetry_equiv_pos_as_xyz
1 x,y,z
2 1/2-x,1/2-y,1/2+z
3 -x,y,1/2-z
4 1/2+x,1/2-y,-z
5 -x,-y,-z
6 1/2+x,1/2+y,1/2-z
7 x,-y,1/2+z
8 1/2-x,1/2+y,z
_cell_length_a                   9.6083(14)
_cell_length_b                   16.036(2)
_cell_length_c                   14.084(2)
_cell_angle_alpha                90
_cell_angle_beta                 90
_cell_angle_gamma                90
_cell_volume                     2170.04
loop_
_atom_site_label
_atom_site_type_symbol
_atom_site_fract_x
_atom_site_fract_y
_atom_site_fract_z
N1 N 0.2181(4) 0.2164(2) 0.9870(3)
H1 H 0.2604 0.2104 1.0444
H2 H 0.1705 0.2654 0.9857
H3 H 0.2836 0.2163 0.9403
C1 C 0.0480(9) 0.1498(6) 0.8886(6)
H6 H 0.1144 0.1485 0.8340
C2 C 0.1220(9) 0.1475(6) 0.9719(6)
H7 H 0.1755 0.0948 0.9738
H8 H 0.0552 0.1463 1.0254
C3 C -0.0495(9) 0.0742(6) 0.8820(6)
H9 H -0.0997 0.0758 0.8214
H10 H -0.1164 0.0759 0.9345
H11 H 0.0053 0.0228 0.8858
O7 O -0.0355(8) 0.2172(4) 0.8799(5)
Zn1 Zn 0.04010(6) 0.42021(3) 0.89320(4)
Zn2 Zn 0.0000 0.76115(4) 0.7500
O1 O -0.1512(4) 0.3978(3) 0.8617(3)
O2 O -0.3516(6) 0.3235(4) 0.8039(3)
O3 O -0.1646(4) 0.35687(19) 0.6877(2)
O4 O 0.0799(4) 0.5381(2) 0.8878(2)
O5 O -0.0871(4) 0.6266(2) 0.9835(2)
O6 O 0.0595(3) 0.69019(18) 0.8547(2)
P1 P -0.24142(15) 0.38431(8) 0.77600(9)
H4 H -0.280(5) 0.463(3) 0.758(3)
P2 P -0.01714(13) 0.61216(7) 0.88788(8)
H5 H -0.124(5) 0.602(3) 0.828(3)
Zn1B Zn -0.04010(6) 0.42021(3) 0.60680(4)
Zn1D Zn -0.04010(6) 0.57979(3) 1.10680(4)
Zn1F Zn 0.04010(6) 0.57979(3) 0.39320(4)
Zn2E Zn -0.5000 0.26115(4) 0.7500
Zn2E_2 Zn 0.5000 0.26115(4) 0.7500
O1B O 0.1512(4) 0.3978(3) 0.6383(3)
O2B O 0.3516(6) 0.3235(4) 0.6961(3)
O2E O 0.1484(6) 0.8235(4) 0.6961(3)
O2G O -0.1484(6) 0.8235(4) 0.8039(3)
O3B O 0.1646(4) 0.35687(19) 0.8123(2)
O4B O -0.0799(4) 0.5381(2) 0.6122(2)
O5B O 0.0871(4) 0.6266(2) 0.5165(2)
O5D O 0.0871(4) 0.3734(2) 1.0165(2)
O5F O -0.0871(4) 0.3734(2) 0.4835(2)
O6B O -0.0595(3) 0.69019(18) 0.6453(2)
P1B P 0.24142(15) 0.38431(8) 0.72400(9)
H4B H 0.280(5) 0.463(3) 0.742(3)
P2B P 0.01714(13) 0.61216(7) 0.61212(8)
H5B H 0.124(5) 0.602(3) 0.672(3)
loop_
_geom_bond_atom_site_label_1
_geom_bond_atom_site_label_2
_geom_bond_site_symmetry_1
_geom_bond_site_symmetry_2
N1 H1 1_555 1_555
H2 N1 1_555 1_555
H3 N1 1_555 1_555
Zn1 O1 1_555 1_555
Zn2 O6 1_555 1_555
O1 P1 1_555 1_555
O2 P1 1_555 1_555
O3 P1 1_555 1_555
O4 Zn1 1_555 1_555
O5 P2 1_555 1_555
O6 P2 1_555 1_555
P1 H4 1_555 1_555
P2 O4 1_555 1_555
H5 P2 1_555 1_555
C1 H6 1_555 1_555
C2 N1 1_555 1_555
H7 C2 1_555 1_555
H8 C2 1_555 1_555
C3 C1 1_555 1_555
H9 C3 1_555 1_555
H10 C3 1_555 1_555
H11 C3 1_555 1_555
O7 C1 1_555 1_555
Zn1B O3 1_555 1_555
Zn1D O5 1_555 1_555
Zn1F O5B 1_555 1_555
Zn2E O2 1_555 1_555
Zn2E_2 O2B 1_555 1_555
O1B Zn1B 1_555 1_555
O2B P1B 1_555 1_555
O2E Zn2 1_555 1_555
O2G Zn2 1_555 1_555
O3B Zn1 1_555 1_555
O4B Zn1B 1_555 1_555
O5B P2B 1_555 1_555
O5D Zn1 1_555 1_555
O5F Zn1B 1_555 1_555
O6B Zn2 1_555 1_555
P1B O1B 1_555 1_555
H4B P1B 1_555 1_555
P2B O4B 1_555 1_555
H5B P2B 1_555 1_555
C1 C2 1_555 1_555
O3B P1B 1_555 1_555
O6B P2B 1_555 1_555

#END
