
#######################################################################
#
#                 Cambridge Crystallographic Data Centre
#                                CCDC 
#
#######################################################################
#
# If this CIF has been generated from an entry in the Cambridge 
# Structural Database, then it will include bibliographic, chemical, 
# crystal, experimental, refinement or atomic coordinate data resulting 
# from the CCDC's data processing and validation procedures.
#
#######################################################################

data_LIVZOH
_chemical_formula_moiety         '(C38 H30 N4 O14 Zn2)n'
_symmetry_cell_setting           monoclinic
_symmetry_space_group_name_H-M   'P 21/c'
_symmetry_Int_Tables_number      14
_space_group_name_Hall           '-P 2ybc'
loop_
_symmetry_equiv_pos_site_id
_symmetry_equiv_pos_as_xyz
1 x,y,z
2 -x,1/2+y,1/2-z
3 -x,-y,-z
4 x,1/2-y,1/2+z
_cell_length_a                   18.4146(6)
_cell_length_b                   15.8807(5)
_cell_length_c                   17.4536(5)
_cell_angle_alpha                90
_cell_angle_beta                 91.322(2)
_cell_angle_gamma                90
_cell_volume                     5102.72
loop_
_atom_site_label
_atom_site_type_symbol
_atom_site_fract_x
_atom_site_fract_y
_atom_site_fract_z
H1 H 0.778(2) 0.124(3) 0.184(2)
H2 H 0.530(2) 0.351(2) -0.119(2)
O1 O 0.17488(14) 0.16367(14) 0.23363(11)
C1 C 0.16070(17) 0.1682(2) 0.30407(17)
C2 C 0.18934(16) 0.2442(2) 0.34490(15)
C3 C 0.23697(16) 0.2982(2) 0.30848(16)
H3 H 0.2508 0.2862 0.2588
O2 O 0.2503(2) 1.0026(2) 0.21706(17)
C4 C 0.2382(3) 0.9289(4) 0.2110(2)
O3 O 0.50511(13) 0.94795(16) 0.30376(14)
C5 C 0.4940(2) 0.8686(2) 0.30061(18)
C6 C 0.42317(17) 0.8400(2) 0.26790(15)
N1 N 1.05668(15) 0.03428(18) 0.15742(15)
C7 C 1.0366(2) -0.0287(3) 0.1128(3)
H4 H 1.0715 -0.0662 0.0958
C8 C 0.9662(3) -0.0403(4) 0.0909(4)
H5 H 0.9531 -0.0842 0.0582
C9 C 0.9135(3) 0.0151(4) 0.1185(5)
H6 H 0.8646 0.0063 0.1064
C10 C 0.9335(2) 0.0804(3) 0.1622(2)
C11 C 0.8812(2) 0.1442(4) 0.1937(2)
H7 H 0.8766 0.1344 0.2483
H8 H 0.9014 0.2001 0.1872
N2 N 0.80919(18) 0.1419(3) 0.1578(2)
C12 C 0.7944(2) 0.1762(3) 0.0913(2)
C13 C 0.71503(18) 0.1836(3) 0.06722(19)
H9 H 0.6861 0.1539 0.1051
Zn1 Zn 0.162672(18) 0.43741(2) 0.672379(17)
Zn2 Zn 0.39158(2) 0.47197(3) 0.17498(2)
O4 O 0.19863(12) 0.41781(14) 0.56815(11)
O5 O 0.39387(12) 0.59521(14) 0.18689(12)
O6 O 0.32128(13) 0.41053(16) 0.23251(12)
C14 C 0.16888(18) 0.3560(2) 0.53456(16)
C15 C 0.16793(16) 0.2635(2) 0.41813(15)
H10 H 0.1355 0.2284 0.4427
O7 O 0.12638(16) 0.11417(18) 0.33827(13)
C16 C 0.24305(16) 0.3869(2) 0.41871(15)
H11 H 0.2617 0.4341 0.4438
N3 N 0.36330(15) 0.45689(18) 0.06068(14)
O8 O 0.11874(14) 0.31360(16) 0.56218(12)
C17 C 0.19443(16) 0.3349(2) 0.45548(15)
C18 C 0.38053(17) 0.3968(2) -0.06380(17)
O9 O 0.34876(18) 0.4812(2) 0.33862(15)
C19 C 0.40070(17) 0.4096(2) 0.01255(17)
H12 H 0.4428 0.3835 0.0311
C20 C 0.3189(2) 0.4360(3) -0.0899(2)
H13 H 0.3035 0.4293 -0.1406
C21 C 0.3160(2) 0.4258(2) 0.3034(2)
C22 C 1.00580(18) 0.0883(2) 0.17949(18)
H14 H 1.0206 0.1345 0.2087
C23 C 0.26398(17) 0.3688(2) 0.34444(16)
O10 O 0.53904(14) 0.81692(18) 0.32357(15)
O11 O 0.46920(14) 0.21716(19) -0.01858(15)
C24 C 0.41241(17) 0.7563(2) 0.25043(15)
H15 H 0.4509 0.7189 0.2571
C25 C 0.3651(2) 0.8948(2) 0.25476(16)
H16 H 0.3712 0.9520 0.2646
O12 O 0.27501(15) 0.60369(19) 0.20073(17)
N4 N 0.49713(17) 0.3252(2) -0.09384(16)
C26 C 0.34574(17) 0.7257(2) 0.22308(15)
C27 C 0.51589(18) 0.2617(3) -0.04792(18)
C28 C 0.28933(18) 0.7814(2) 0.21313(16)
H17 H 0.2441 0.7617 0.1965
C29 C 0.29854(19) 0.8659(3) 0.22733(17)
C30 C 0.3364(2) 0.6357(2) 0.20281(17)
C31 C 0.4226(2) 0.3421(3) -0.11697(18)
H18 H 0.3974 0.2887 -0.1225
H19 H 0.4224 0.3687 -0.1670
C32 C 0.61413(19) 0.2871(3) 0.04697(18)
H20 H 0.5847 0.2608 0.0857
H21 H 0.6026 0.3467 0.0459
O13 O 0.84333(15) 0.2043(2) 0.05071(18)
C33 C 0.59576(18) 0.2489(2) -0.03003(17)
H22 H 0.6232 0.2795 -0.0687
C34 C 0.6184(2) 0.1576(3) -0.0330(2)
H23 H 0.6101 0.1363 -0.0845
H24 H 0.5887 0.1252 0.0014
C35 C 0.69357(19) 0.2758(3) 0.0682(2)
H25 H 0.7030 0.2988 0.1189
H26 H 0.7229 0.3067 0.0323
C36 C 0.3041(2) 0.4943(3) 0.0337(2)
H27 H 0.2775 0.5283 0.0661
O14 O 0.1781(2) 0.9011(3) 0.1900(2)
C37 C 0.2802(2) 0.4841(3) -0.0427(3)
H28 H 0.2380 0.5106 -0.0603
C38 C 0.6983(2) 0.1459(3) -0.0103(2)
H29 H 0.7098 0.0863 -0.0093
H30 H 0.7284 0.1725 -0.0483
O1C O 0.17488(14) 0.33633(14) 0.73363(11)
O2C O 0.2503(2) 0.4974(2) 0.71706(17)
O3A O 0.49489(13) 0.44795(16) 0.19624(14)
N1C N 0.05668(15) 0.46572(18) 0.65742(15)
Zn1C Zn 0.162672(18) 0.06259(2) 0.172379(17)
Zn1C_2 Zn 0.162672(18) 1.06259(2) 0.172379(17)
Zn1C_3 Zn 1.162672(18) 0.06259(2) 0.172379(17)
Zn2A Zn 0.60842(2) 0.97197(3) 0.32502(2)
loop_
_geom_bond_atom_site_label_1
_geom_bond_atom_site_label_2
_geom_bond_site_symmetry_1
_geom_bond_site_symmetry_2
H1 N2 1_555 1_555
H2 N4 1_555 1_555
O1 C1 1_555 1_555
C1 C2 1_555 1_555
C2 C3 1_555 1_555
C3 H3 1_555 1_555
O2 C4 1_555 1_555
C4 C29 1_555 1_555
O3 C5 1_555 1_555
C5 C6 1_555 1_555
C6 C24 1_555 1_555
N1 C7 1_555 1_555
C7 H4 1_555 1_555
C8 C7 1_555 1_555
H5 C8 1_555 1_555
C9 C8 1_555 1_555
H6 C9 1_555 1_555
C10 C9 1_555 1_555
C11 C10 1_555 1_555
H7 C11 1_555 1_555
H8 C11 1_555 1_555
N2 C11 1_555 1_555
C12 N2 1_555 1_555
C13 C12 1_555 1_555
H9 C13 1_555 1_555
Zn1 O4 1_555 1_555
Zn2 O5 1_555 1_555
O4 C14 1_555 1_555
O5 C30 1_555 1_555
O6 Zn2 1_555 1_555
C14 O8 1_555 1_555
C15 C2 1_555 1_555
H10 C15 1_555 1_555
O7 C1 1_555 1_555
C16 H11 1_555 1_555
N3 Zn2 1_555 1_555
C17 C14 1_555 1_555
C18 C19 1_555 1_555
O9 C21 1_555 1_555
C19 N3 1_555 1_555
H12 C19 1_555 1_555
C20 C18 1_555 1_555
H13 C20 1_555 1_555
C21 O6 1_555 1_555
C22 N1 1_555 1_555
H14 C22 1_555 1_555
C23 C3 1_555 1_555
O10 C5 1_555 1_555
O11 C27 1_555 1_555
C24 H15 1_555 1_555
C25 C6 1_555 1_555
H16 C25 1_555 1_555
O12 C30 1_555 1_555
N4 C27 1_555 1_555
C26 C24 1_555 1_555
C27 C33 1_555 1_555
C28 C26 1_555 1_555
H17 C28 1_555 1_555
C29 C25 1_555 1_555
C30 C26 1_555 1_555
C31 C18 1_555 1_555
H18 C31 1_555 1_555
H19 C31 1_555 1_555
C32 H20 1_555 1_555
H21 C32 1_555 1_555
O13 C12 1_555 1_555
C33 C32 1_555 1_555
H22 C33 1_555 1_555
C34 C33 1_555 1_555
H23 C34 1_555 1_555
H24 C34 1_555 1_555
C35 C13 1_555 1_555
H25 C35 1_555 1_555
H26 C35 1_555 1_555
C36 N3 1_555 1_555
H27 C36 1_555 1_555
O14 C4 1_555 1_555
C37 C20 1_555 1_555
H28 C37 1_555 1_555
C38 C13 1_555 1_555
H29 C38 1_555 1_555
H30 C38 1_555 1_555
O1C Zn1 1_555 1_555
O2C Zn1 1_555 1_555
O3A Zn2 1_555 1_555
N1C Zn1 1_555 1_555
Zn1C O1 1_555 1_555
Zn1C_2 O2 1_555 1_555
Zn1C_3 N1 1_555 1_555
Zn2A O3 1_555 1_555
C10 C22 1_555 1_555
C15 C17 1_555 1_555
C16 C17 1_555 1_555
C16 C23 1_555 1_555
C21 C23 1_555 1_555
N4 C31 1_555 1_555
C28 C29 1_555 1_555
C32 C35 1_555 1_555
C34 C38 1_555 1_555
C36 C37 1_555 1_555

#END
