
#######################################################################
#
#                 Cambridge Crystallographic Data Centre
#                                CCDC 
#
#######################################################################
#
# If this CIF has been generated from an entry in the Cambridge 
# Structural Database, then it will include bibliographic, chemical, 
# crystal, experimental, refinement or atomic coordinate data resulting 
# from the CCDC's data processing and validation procedures.
#
#######################################################################

data_XAKYUE
_chemical_formula_moiety         '(C45 H46 Mn3 N9 O10)n'
_symmetry_cell_setting           tetragonal
_symmetry_space_group_name_H-M   'I 41/a'
_symmetry_Int_Tables_number      88
_space_group_name_Hall           '-I 4ad'
loop_
_symmetry_equiv_pos_site_id
_symmetry_equiv_pos_as_xyz
1 x,y,z
2 3/4-y,1/4+x,1/4+z
3 1/2+x,1/2+y,1/2+z
4 1/4-y,3/4+x,3/4+z
5 1/4+y,1/4-x,1/4+z
6 1/2-x,-y,1/2+z
7 3/4+y,3/4-x,3/4+z
8 -x,1/2-y,z
9 -x,-y,-z
10 1/4+y,3/4-x,3/4-z
11 1/2-x,1/2-y,1/2-z
12 3/4+y,1/4-x,1/4-z
13 3/4-y,3/4+x,3/4-z
14 1/2+x,y,1/2-z
15 1/4-y,1/4+x,1/4-z
16 x,1/2+y,-z
_cell_length_a                   40.6327(3)
_cell_length_b                   40.6327(3)
_cell_length_c                   17.6171(2)
_cell_angle_alpha                90
_cell_angle_beta                 90
_cell_angle_gamma                90
_cell_volume                     29086.1
loop_
_atom_site_label
_atom_site_type_symbol
_atom_site_fract_x
_atom_site_fract_y
_atom_site_fract_z
Mn1 Mn 0.88577(2) 1.02857(2) 1.03374(6)
O1 O 0.84772(13) 1.00876(13) 1.0695(3)
O2 O 0.88373(12) 0.94634(12) 0.8935(3)
O3 O 0.92600(11) 1.04352(12) 0.9865(3)
N1 N 0.89247(13) 0.99279(14) 0.9617(3)
N2 N 0.92293(13) 0.99524(15) 0.9209(4)
N3 N 0.85754(16) 1.05960(15) 0.9474(4)
C1 C 0.83040(17) 0.98358(18) 1.0399(4)
C2 C 0.84194(16) 0.96285(17) 0.9802(4)
C3 C 0.82170(17) 0.93790(18) 0.9534(4)
H1 H 0.8292 0.9244 0.9129
C4 C 0.79045(18) 0.9322(2) 0.9848(5)
H2 H 0.7771 0.9147 0.9667
C5 C 0.7793(2) 0.9526(2) 1.0428(5)
H3 H 0.7579 0.9494 1.0632
C6 C 0.7993(2) 0.9779(2) 1.0718(5)
H4 H 0.7918 0.9911 1.1128
C7 C 0.87425(16) 0.96740(16) 0.9418(4)
C8 C 0.93801(18) 1.02232(18) 0.9372(5)
C9 C 0.9698(3) 1.0301(3) 0.9009(8)
H5 H 0.9790 1.0104 0.8756
H6 H 0.9858 1.0381 0.9390
C10 C 0.9618(6) 1.0582(5) 0.8401(14)
H7 H 0.9554 1.0480 0.7919
H8 H 0.9813 1.0719 0.8323
H9 H 0.9437 1.0719 0.8588
C11 C 0.8653(2) 1.0576(2) 0.8746(5)
H10 H 0.8811 1.0418 0.8589
C12 C 0.8505(3) 1.0786(3) 0.8187(6)
H11 H 0.8559 1.0760 0.7666
C13 C 0.8287(3) 1.1026(3) 0.8406(7)
C14 C 0.8203(3) 1.1036(3) 0.9171(6)
H12 H 0.8043 1.1189 0.9346
C15 C 0.8357(2) 1.0818(2) 0.9687(5)
H13 H 0.8301 1.0832 1.0210
C16 C 0.8155(4) 1.1265(4) 0.7869(7)
H14 H 0.8032 1.1435 0.8155
H15 H 0.8341 1.1376 0.7612
Mn2 Mn 0.92429(2) 0.95450(3) 0.83446(7)
O4 O 0.90217(12) 0.97998(14) 0.7632(3)
O5 O 1.00095(13) 0.97690(15) 0.6859(3)
O6 O 0.95420(12) 0.92973(12) 0.8991(3)
O7 O 0.91310(13) 0.90660(15) 0.7766(4)
N4 N 0.96540(14) 0.96145(15) 0.7800(4)
N5 N 0.99342(13) 0.94661(14) 0.8138(4)
N6 N 0.9112(2) 0.8508(2) 0.7755(7)
C17 C 0.91356(19) 0.9956(2) 0.7006(5)
C18 C 0.9459(2) 0.9941(2) 0.6759(5)
C19 C 0.9548(3) 1.0096(3) 0.6058(7)
H16 H 0.9765 1.0082 0.5864
C20 C 0.9295(3) 1.0274(4) 0.5657(9)
H17 H 0.9344 1.0376 0.5185
C21 C 0.8996(3) 1.0295(4) 0.5944(11)
H18 H 0.8837 1.0420 0.5674
C22 C 0.8901(3) 1.0147(3) 0.6616(6)
H19 H 0.8684 1.0173 0.6809
C23 C 0.97213(17) 0.9769(2) 0.7158(4)
C24 C 0.98435(15) 0.93018(16) 0.8763(4)
C25 C 1.0102(2) 0.9116(2) 0.9188(5)
H20 H 1.0228 0.8981 0.8823
H21 H 1.0256 0.9276 0.9418
C26 C 0.9975(2) 0.8898(3) 0.9796(7)
H22 H 0.9899 0.9032 1.0225
H23 H 1.0152 0.8751 0.9966
H24 H 0.9792 0.8767 0.9600
C27 C 0.9221(3) 0.8786(3) 0.8029(7)
C28 C 0.8856(4) 0.8477(4) 0.7199(10)
H25 H 0.8643 0.8455 0.7456
H26 H 0.8896 0.8282 0.6886
H27 H 0.8853 0.8673 0.6875
C29 C 0.9208(4) 0.8189(3) 0.8131(15)
H28 H 0.9356 0.8235 0.8557
H29 H 0.9319 0.8047 0.7762
H30 H 0.9010 0.8079 0.8320
Mn3 Mn 0.96104(2) 1.03577(3) 1.24719(6)
O8 O 0.95209(13) 1.07654(15) 1.2894(3)
O9 O 0.88430(12) 1.06608(12) 1.1060(3)
O10 O 0.96331(11) 0.99384(12) 1.1949(3)
N7 N 0.92481(14) 1.04108(15) 1.1762(3)
N8 N 0.91866(14) 1.01287(14) 1.1310(3)
N9 N 0.74130(18) 1.1794(2) 0.5855(4)
C30 C 0.92933(18) 1.0983(2) 1.2714(5)
C31 C 0.90683(17) 1.09618(17) 1.2090(4)
C32 C 0.8838(2) 1.12062(19) 1.1981(5)
H31 H 0.8681 1.1181 1.1585
C33 C 0.8826(2) 1.1491(2) 1.2434(7)
H32 H 0.8668 1.1658 1.2342
C34 C 0.9049(2) 1.1519(2) 1.3007(7)
H33 H 0.9045 1.1713 1.3308
C35 C 0.9279(2) 1.1283(3) 1.3175(7)
H34 H 0.9428 1.1313 1.3585
C36 C 0.90554(15) 1.06670(17) 1.1615(4)
C37 C 0.93910(17) 0.98962(18) 1.1464(4)
C38 C 0.9361(2) 0.95691(18) 1.1100(6)
H35 H 0.9529 0.9554 1.0695
H36 H 0.9142 0.9557 1.0853
C39 C 0.9396(3) 0.9282(3) 1.1596(9)
H37 H 0.9209 0.9271 1.1946
H38 H 0.9403 0.9082 1.1287
H39 H 0.9601 0.9301 1.1887
C40 C 0.7705(3) 1.1878(3) 0.6114(7)
H40 H 0.7796 1.2085 0.5976
C41 C 0.7880(4) 1.1669(4) 0.6584(8)
H41 H 0.8093 1.1735 0.6752
C42 C 0.7759(3) 1.1372(5) 0.6815(7)
C43 C 0.7485(3) 1.1283(5) 0.6515(9)
H42 H 0.7405 1.1068 0.6612
C44 C 0.7298(3) 1.1498(4) 0.6039(6)
H43 H 0.7090 1.1428 0.5852
C45 C 0.7942(4) 1.1128(7) 0.7302(11)
H44 H 0.8075 1.0985 0.6966
H45 H 0.7779 1.0985 0.7559
O5H O 0.99905(13) 1.02310(15) 1.3141(3)
N5H N 1.00658(13) 1.05339(14) 1.1862(4)
Mn3H Mn 1.03896(2) 0.96423(3) 0.75281(6)
Mn3A Mn 0.71423(3) 1.21104(2) 0.49719(6)
N9F N 0.9294(2) 1.00870(18) 1.3355(4)
loop_
_geom_bond_atom_site_label_1
_geom_bond_atom_site_label_2
_geom_bond_site_symmetry_1
_geom_bond_site_symmetry_2
Mn1 O1 1_555 1_555
O1 C1 1_555 1_555
O2 C7 1_555 1_555
O3 Mn1 1_555 1_555
N1 Mn1 1_555 1_555
N2 N1 1_555 1_555
N3 Mn1 1_555 1_555
C1 C2 1_555 1_555
C2 C3 1_555 1_555
C3 H1 1_555 1_555
C4 C3 1_555 1_555
H2 C4 1_555 1_555
C5 C4 1_555 1_555
H3 C5 1_555 1_555
C6 C1 1_555 1_555
H4 C6 1_555 1_555
C7 N1 1_555 1_555
C8 O3 1_555 1_555
C9 C8 1_555 1_555
H5 C9 1_555 1_555
H6 C9 1_555 1_555
C10 C9 1_555 1_555
H7 C10 1_555 1_555
H8 C10 1_555 1_555
H9 C10 1_555 1_555
C11 N3 1_555 1_555
H10 C11 1_555 1_555
C12 C11 1_555 1_555
H11 C12 1_555 1_555
C13 C12 1_555 1_555
C14 C13 1_555 1_555
H12 C14 1_555 1_555
C15 N3 1_555 1_555
H13 C15 1_555 1_555
C16 C13 1_555 1_555
H14 C16 1_555 1_555
H15 C16 1_555 1_555
Mn2 O2 1_555 1_555
O4 Mn2 1_555 1_555
O5 C23 1_555 1_555
O6 Mn2 1_555 1_555
O7 Mn2 1_555 1_555
N4 Mn2 1_555 1_555
N5 N4 1_555 1_555
N6 C27 1_555 1_555
C17 O4 1_555 1_555
C18 C17 1_555 1_555
C19 C18 1_555 1_555
H16 C19 1_555 1_555
C20 C19 1_555 1_555
H17 C20 1_555 1_555
C21 C20 1_555 1_555
H18 C21 1_555 1_555
C22 C17 1_555 1_555
H19 C22 1_555 1_555
C23 N4 1_555 1_555
C24 O6 1_555 1_555
C25 C24 1_555 1_555
H20 C25 1_555 1_555
H21 C25 1_555 1_555
C26 C25 1_555 1_555
H22 C26 1_555 1_555
H23 C26 1_555 1_555
H24 C26 1_555 1_555
C27 O7 1_555 1_555
C28 N6 1_555 1_555
H25 C28 1_555 1_555
H26 C28 1_555 1_555
H27 C28 1_555 1_555
C29 N6 1_555 1_555
H28 C29 1_555 1_555
H29 C29 1_555 1_555
H30 C29 1_555 1_555
Mn3 O8 1_555 1_555
O8 C30 1_555 1_555
O9 Mn1 1_555 1_555
O10 Mn3 1_555 1_555
N7 Mn3 1_555 1_555
N8 Mn1 1_555 1_555
N9 C40 1_555 1_555
C30 C31 1_555 1_555
C31 C32 1_555 1_555
C32 H31 1_555 1_555
C33 C32 1_555 1_555
H32 C33 1_555 1_555
C34 C33 1_555 1_555
H33 C34 1_555 1_555
C35 C30 1_555 1_555
H34 C35 1_555 1_555
C36 O9 1_555 1_555
C37 O10 1_555 1_555
C38 C37 1_555 1_555
H35 C38 1_555 1_555
H36 C38 1_555 1_555
C39 C38 1_555 1_555
H37 C39 1_555 1_555
H38 C39 1_555 1_555
H39 C39 1_555 1_555
C40 H40 1_555 1_555
C41 C40 1_555 1_555
H41 C41 1_555 1_555
C42 C41 1_555 1_555
C43 C42 1_555 1_555
H42 C43 1_555 1_555
C44 N9 1_555 1_555
H43 C44 1_555 1_555
C45 C16 1_555 1_555
H44 C45 1_555 1_555
H45 C45 1_555 1_555
O5H Mn3 1_555 1_555
N5H Mn3 1_555 1_555
Mn3H O5 1_555 1_555
Mn3A N9 1_555 1_555
N9F Mn3 1_555 1_555
N2 C8 1_555 1_555
N2 Mn2 1_555 1_555
C2 C7 1_555 1_555
C5 C6 1_555 1_555
C14 C15 1_555 1_555
N5 C24 1_555 1_555
N5 Mn3H 1_555 1_555
C18 C23 1_555 1_555
C21 C22 1_555 1_555
N7 N8 1_555 1_555
N7 C36 1_555 1_555
N8 C37 1_555 1_555
C31 C36 1_555 1_555
C34 C35 1_555 1_555
C42 C45 1_555 1_555
C43 C44 1_555 1_555

#END
