
#######################################################################
#
#                 Cambridge Crystallographic Data Centre
#                                CCDC 
#
#######################################################################
#
# If this CIF has been generated from an entry in the Cambridge 
# Structural Database, then it will include bibliographic, chemical, 
# crystal, experimental, refinement or atomic coordinate data resulting 
# from the CCDC's data processing and validation procedures.
#
#######################################################################

data_XAKZEP
_chemical_formula_moiety         '(C42 H40 Mn3 N9 O10)n'
_symmetry_cell_setting           tetragonal
_symmetry_space_group_name_H-M   'I 41/a'
_symmetry_Int_Tables_number      88
_space_group_name_Hall           '-I 4ad'
loop_
_symmetry_equiv_pos_site_id
_symmetry_equiv_pos_as_xyz
1 x,y,z
2 3/4-y,1/4+x,1/4+z
3 1/2+x,1/2+y,1/2+z
4 1/4-y,3/4+x,3/4+z
5 1/4+y,1/4-x,1/4+z
6 1/2-x,-y,1/2+z
7 3/4+y,3/4-x,3/4+z
8 -x,1/2-y,z
9 -x,-y,-z
10 1/4+y,3/4-x,3/4-z
11 1/2-x,1/2-y,1/2-z
12 3/4+y,1/4-x,1/4-z
13 3/4-y,3/4+x,3/4-z
14 1/2+x,y,1/2-z
15 1/4-y,1/4+x,1/4-z
16 x,1/2+y,-z
_cell_length_a                   39.852(4)
_cell_length_b                   39.852(4)
_cell_length_c                   17.749(2)
_cell_angle_alpha                90
_cell_angle_beta                 90
_cell_angle_gamma                90
_cell_volume                     28188.6
loop_
_atom_site_label
_atom_site_type_symbol
_atom_site_fract_x
_atom_site_fract_y
_atom_site_fract_z
Mn1 Mn 1.077079(11) 0.043359(11) 0.16736(3)
O1 O 1.09929(5) 0.01382(6) 0.23098(15)
O2 O 1.00037(5) 0.02194(6) 0.31686(11)
O3 O 1.04745(5) 0.07064(4) 0.10825(11)
O4 O 1.08857(7) 0.08743(8) 0.2393(2)
N1 N 1.03576(5) 0.03628(6) 0.22209(14)
N2 N 1.00755(5) 0.05250(6) 0.19026(13)
N3 N 1.10579(14) 0.14123(16) 0.2784(3)
C1 C 1.08827(10) -0.00154(10) 0.2913(3)
C2 C 1.11153(12) -0.02251(12) 0.3328(3)
H1 H 1.1333 -0.0257 0.3124
C3 C 1.10414(15) -0.03744(16) 0.3973(4)
H2 H 1.1197 -0.0520 0.4214
C4 C 1.07286(16) -0.03110(16) 0.4287(3)
H3 H 1.0678 -0.0393 0.4776
C5 C 1.04946(11) -0.01325(13) 0.3902(3)
H4 H 1.0274 -0.0118 0.4100
C6 C 1.05657(9) 0.00272(9) 0.3240(2)
C7 C 1.02987(8) 0.02138(8) 0.28650(19)
C8 C 1.01627(8) 0.06966(7) 0.13159(19)
C9 C 0.99039(8) 0.08932(7) 0.08809(18)
H5 H 0.9920 0.0836 0.0345
H6 H 0.9945 0.1134 0.0948
H7 H 0.9679 0.0837 0.1068
C10 C 1.0939(5) 0.1155(5) 0.2243(12)
H8 H 1.0903 0.1224 0.1736
C11 C 1.1154(3) 0.1327(2) 0.3601(5)
H9 H 1.1390 0.1257 0.3619
H10 H 1.1012 0.1143 0.3784
H11 H 1.1122 0.1525 0.3920
C12 C 1.1177(2) 0.17065(18) 0.2492(4)
H12 H 1.1412 0.1678 0.2347
H13 H 1.1159 0.1884 0.2872
H14 H 1.1045 0.1768 0.2047
Mn2 Mn 0.961562(11) 0.034763(12) 0.25363(3)
O5 O 0.95323(5) 0.07658(6) 0.29547(12)
O6 O 0.88524(5) 0.06626(4) 0.11196(11)
O7 O 0.96426(5) -0.00766(5) 0.20187(11)
N4 N 0.92474(6) 0.03981(6) 0.18378(13)
N5 N 0.91988(6) 0.01269(6) 0.13596(15)
N6 N 0.93028(7) 0.00879(8) 0.34372(17)
C13 C 0.92960(9) 0.09945(9) 0.2785(2)
C14 C 0.92744(10) 0.12809(11) 0.3236(2)
H15 H 0.9426 0.1308 0.3644
C15 C 0.90390(13) 0.15240(11) 0.3103(3)
H16 H 0.9036 0.1719 0.3410
C16 C 0.88061(10) 0.14926(9) 0.2533(2)
H17 H 0.8638 0.1658 0.2453
C17 C 0.88286(9) 0.12055(8) 0.2077(2)
H18 H 0.8673 0.1180 0.1676
C18 C 0.90633(7) 0.09625(7) 0.21822(18)
C19 C 0.90549(7) 0.06642(8) 0.16763(18)
C20 C 0.94073(8) -0.01124(8) 0.15187(19)
C21 C 0.93864(10) -0.04424(8) 0.1096(2)
H19 H 0.9461 -0.0625 0.1426
H20 H 0.9531 -0.0433 0.0650
H21 H 0.9154 -0.0482 0.0940
C22 C 0.94100(10) -0.02020(13) 0.3704(3)
H22 H 0.9621 -0.0287 0.3543
C23 C 0.92091(14) -0.03947(17) 0.4244(3)
H23 H 0.9297 -0.0592 0.4470
C24 C 0.88997(14) -0.02874(17) 0.4416(3)
C25 C 0.87942(10) -0.00126(15) 0.4099(3)
H24 H 0.8572 0.0061 0.4202
C26 C 0.89950(9) 0.01820(11) 0.3609(2)
H25 H 0.8907 0.0383 0.3400
C27 C 0.8673(2) -0.0523(4) 0.4878(5)
H26 H 0.8438 -0.0488 0.4717
H27 H 0.8733 -0.0758 0.4755
Mn3 Mn 1.113200(10) -0.028300(10) -0.03967(3)
O8 O 1.15111(4) -0.00753(5) -0.07567(11)
O9 O 1.11773(4) 0.05260(5) 0.10765(12)
O10 O 1.07219(5) -0.04325(5) 0.00546(13)
N7 N 1.10656(5) 0.00757(5) 0.03408(13)
N8 N 1.07665(6) 0.00474(6) 0.07542(14)
N9 N 0.80868(8) -0.10721(7) 0.70531(17)
C28 C 1.16923(7) 0.01763(7) -0.04565(17)
C29 C 1.19993(8) 0.02458(8) -0.07779(18)
H28 H 1.2070 0.0118 -0.1201
C30 C 1.22026(8) 0.04894(9) -0.05111(19)
H29 H 1.2414 0.0528 -0.0743
C31 C 1.21051(7) 0.06861(8) 0.01046(17)
H30 H 1.2248 0.0858 0.0292
C32 C 1.17999(6) 0.06263(7) 0.04300(17)
H31 H 1.1730 0.0759 0.0846
C33 C 1.15867(6) 0.03709(6) 0.01598(15)
C34 C 1.12642(7) 0.03241(7) 0.05398(17)
C35 C 1.06115(8) -0.02198(9) 0.0562(2)
C36 C 1.02609(10) -0.03077(11) 0.0878(3)
H32 H 1.0198 -0.0143 0.1262
H33 H 1.0096 -0.0304 0.0469
H34 H 1.0267 -0.0532 0.1105
C37 C 0.82672(10) -0.08015(9) 0.72553(19)
H35 H 0.8268 -0.0739 0.7772
C38 C 0.84471(14) -0.06138(12) 0.6771(2)
H36 H 0.8549 -0.0409 0.6923
C39 C 0.84756(19) -0.07320(16) 0.6054(3)
C40 C 0.83127(17) -0.10288(15) 0.5831(3)
H37 H 0.8357 -0.1135 0.5363
C41 C 0.80871(15) -0.11527(14) 0.6335(3)
H38 H 0.7921 -0.1305 0.6158
C42 C 0.8686(3) -0.0492(3) 0.5469(3)
H39 H 0.8619 -0.0258 0.5577
H40 H 0.8925 -0.0512 0.5609
O6H O 1.11476(5) -0.06626(4) -0.11196(11)
N5H N 1.08012(6) -0.01269(6) -0.13596(15)
Mn3H Mn 0.886800(10) 0.028300(10) 0.03967(3)
Mn3L Mn 0.778300(10) -0.136800(10) 0.78967(3)
N9I N 1.14279(7) -0.05868(8) 0.04469(17)
loop_
_geom_bond_atom_site_label_1
_geom_bond_atom_site_label_2
_geom_bond_site_symmetry_1
_geom_bond_site_symmetry_2
Mn1 O1 1_555 1_555
O1 C1 1_555 1_555
O2 C7 1_555 1_555
O3 Mn1 1_555 1_555
O4 Mn1 1_555 1_555
N1 Mn1 1_555 1_555
N2 N1 1_555 1_555
N3 C10 1_555 1_555
C1 C2 1_555 1_555
C2 H1 1_555 1_555
C3 C2 1_555 1_555
H2 C3 1_555 1_555
C4 C3 1_555 1_555
H3 C4 1_555 1_555
C5 C4 1_555 1_555
H4 C5 1_555 1_555
C6 C1 1_555 1_555
C7 N1 1_555 1_555
C8 O3 1_555 1_555
C9 C8 1_555 1_555
H5 C9 1_555 1_555
H6 C9 1_555 1_555
H7 C9 1_555 1_555
C10 O4 1_555 1_555
H8 C10 1_555 1_555
C11 N3 1_555 1_555
H9 C11 1_555 1_555
H10 C11 1_555 1_555
H11 C11 1_555 1_555
C12 N3 1_555 1_555
H12 C12 1_555 1_555
H13 C12 1_555 1_555
H14 C12 1_555 1_555
Mn2 O2 1_555 1_555
O5 Mn2 1_555 1_555
O6 C19 1_555 1_555
O7 Mn2 1_555 1_555
N4 Mn2 1_555 1_555
N5 N4 1_555 1_555
N6 Mn2 1_555 1_555
C13 O5 1_555 1_555
C14 C13 1_555 1_555
H15 C14 1_555 1_555
C15 C14 1_555 1_555
H16 C15 1_555 1_555
C16 C15 1_555 1_555
H17 C16 1_555 1_555
C17 C16 1_555 1_555
H18 C17 1_555 1_555
C18 C13 1_555 1_555
C19 N4 1_555 1_555
C20 O7 1_555 1_555
C21 C20 1_555 1_555
H19 C21 1_555 1_555
H20 C21 1_555 1_555
H21 C21 1_555 1_555
C22 N6 1_555 1_555
H22 C22 1_555 1_555
C23 C22 1_555 1_555
H23 C23 1_555 1_555
C24 C23 1_555 1_555
C25 C24 1_555 1_555
H24 C25 1_555 1_555
C26 N6 1_555 1_555
H25 C26 1_555 1_555
C27 C24 1_555 1_555
H26 C27 1_555 1_555
H27 C27 1_555 1_555
Mn3 O8 1_555 1_555
O8 C28 1_555 1_555
O9 Mn1 1_555 1_555
O10 Mn3 1_555 1_555
N7 Mn3 1_555 1_555
N8 Mn1 1_555 1_555
N9 C37 1_555 1_555
C28 C29 1_555 1_555
C29 H28 1_555 1_555
C30 C29 1_555 1_555
H29 C30 1_555 1_555
C31 C30 1_555 1_555
H30 C31 1_555 1_555
C32 C31 1_555 1_555
H31 C32 1_555 1_555
C33 C28 1_555 1_555
C34 O9 1_555 1_555
C35 O10 1_555 1_555
C36 C35 1_555 1_555
H32 C36 1_555 1_555
H33 C36 1_555 1_555
H34 C36 1_555 1_555
C37 H35 1_555 1_555
C38 C37 1_555 1_555
H36 C38 1_555 1_555
C39 C38 1_555 1_555
C40 C39 1_555 1_555
H37 C40 1_555 1_555
C41 N9 1_555 1_555
H38 C41 1_555 1_555
C42 C27 1_555 1_555
H39 C42 1_555 1_555
H40 C42 1_555 1_555
O6H Mn3 1_555 1_555
N5H Mn3 1_555 1_555
Mn3H O6 1_555 1_555
Mn3L N9 1_555 1_555
N9I Mn3 1_555 1_555
N2 C8 1_555 1_555
N2 Mn2 1_555 1_555
C5 C6 1_555 1_555
C6 C7 1_555 1_555
N5 C20 1_555 1_555
N5 Mn3H 1_555 1_555
C17 C18 1_555 1_555
C18 C19 1_555 1_555
C25 C26 1_555 1_555
N7 N8 1_555 1_555
N7 C34 1_555 1_555
N8 C35 1_555 1_555
C32 C33 1_555 1_555
C33 C34 1_555 1_555
C39 C42 1_555 1_555
C40 C41 1_555 1_555

#END
