
#######################################################################
#
#                 Cambridge Crystallographic Data Centre
#                                CCDC 
#
#######################################################################
#
# If this CIF has been generated from an entry in the Cambridge 
# Structural Database, then it will include bibliographic, chemical, 
# crystal, experimental, refinement or atomic coordinate data resulting 
# from the CCDC's data processing and validation procedures.
#
#######################################################################

data_XAKZOZ
_chemical_formula_moiety         '(C42 H40 Mn3 N9 O10)n'
_symmetry_cell_setting           tetragonal
_symmetry_space_group_name_H-M   'I 41/a'
_symmetry_Int_Tables_number      88
_space_group_name_Hall           '-I 4ad'
loop_
_symmetry_equiv_pos_site_id
_symmetry_equiv_pos_as_xyz
1 x,y,z
2 3/4-y,1/4+x,1/4+z
3 1/2+x,1/2+y,1/2+z
4 1/4-y,3/4+x,3/4+z
5 1/4+y,1/4-x,1/4+z
6 1/2-x,-y,1/2+z
7 3/4+y,3/4-x,3/4+z
8 -x,1/2-y,z
9 -x,-y,-z
10 1/4+y,3/4-x,3/4-z
11 1/2-x,1/2-y,1/2-z
12 3/4+y,1/4-x,1/4-z
13 3/4-y,3/4+x,3/4-z
14 1/2+x,y,1/2-z
15 1/4-y,1/4+x,1/4-z
16 x,1/2+y,-z
_cell_length_a                   40.2119(19)
_cell_length_b                   40.2119(19)
_cell_length_c                   17.7703(12)
_cell_angle_alpha                90
_cell_angle_beta                 90
_cell_angle_gamma                90
_cell_volume                     28734.5
loop_
_atom_site_label
_atom_site_type_symbol
_atom_site_fract_x
_atom_site_fract_y
_atom_site_fract_z
Mn1 Mn 0.960467(9) 1.034535(11) 1.24957(2)
O1 O 0.95143(5) 1.07559(5) 1.29229(11)
O2 O 0.88479(4) 1.06586(4) 1.10732(9)
O3 O 0.96314(4) 0.99268(4) 1.19744(10)
N1 N 0.92433(5) 1.04010(5) 1.17891(11)
N2 N 0.91896(5) 1.01247(5) 1.13127(12)
N3 N 0.92916(6) 1.00828(8) 1.33812(14)
C1 C 0.92839(7) 1.09835(8) 1.27507(17)
C2 C 0.92591(9) 1.12581(10) 1.3208(2)
H1 H 0.9408 1.1281 1.3620
C3 C 0.90274(11) 1.14973(10) 1.3088(2)
H2 H 0.9018 1.1683 1.3417
C4 C 0.88031(9) 1.14773(8) 1.2495(2)
H3 H 0.8639 1.1644 1.2421
C5 C 0.88277(7) 1.12036(7) 1.20111(18)
H4 H 0.8683 1.1189 1.1589
C6 C 0.90564(7) 1.09553(7) 1.21339(16)
C7 C 0.90506(6) 1.06588(7) 1.16281(15)
C8 C 0.94005(6) 0.98925(7) 1.14568(16)
C9 C 0.93824(7) 0.95735(7) 1.10397(18)
H5 H 0.9566 0.9561 1.0678
H6 H 0.9170 0.9560 1.0770
H7 H 0.9399 0.9388 1.1395
C10 C 0.89900(9) 1.01886(10) 1.35706(19)
H8 H 0.8912 1.0395 1.3377
C11 C 0.87848(9) 1.00033(13) 1.4049(2)
H9 H 0.8569 1.0087 1.4161
C12 C 0.88738(12) 0.97253(16) 1.4343(3)
C13 C 0.91914(13) 0.96080(14) 1.4145(3)
H10 H 0.9271 0.9403 1.4341
C14 C 0.93898(9) 0.97982(12) 1.3651(2)
H11 H 0.9602 0.9716 1.3511
C15 C 0.86184(14) 0.95552(19) 1.4868(4)
H12 H 0.8463 0.9725 1.5066
H13 H 0.8487 0.9392 1.4574
Mn2 Mn 0.886518(9) 1.028520(9) 1.03526(2)
O4 O 0.84850(4) 1.00817(4) 1.07062(9)
O5 O 0.88346(4) 0.94671(4) 0.89260(10)
O6 O 0.92741(4) 1.04357(4) 0.98982(10)
N4 N 0.89339(4) 0.99306(5) 0.96271(11)
N5 N 0.92364(5) 0.99472(5) 0.92302(12)
N6 N 0.80947(5) 0.89245(5) 1.69981(14)
C16 C 0.83106(6) 0.98287(6) 1.04097(15)
C17 C 0.80020(6) 0.97576(6) 1.07271(15)
H14 H 0.7928 0.9883 1.1148
C18 C 0.78030(7) 0.95114(7) 1.04461(16)
H15 H 0.7591 0.9473 1.0664
C19 C 0.79055(6) 0.93197(6) 0.98570(15)
H16 H 0.7767 0.9147 0.9671
C20 C 0.82089(6) 0.93785(6) 0.95361(14)
H17 H 0.8280 0.9244 0.9126
C21 C 0.84194(6) 0.96344(6) 0.98011(14)
C22 C 0.87404(6) 0.96768(6) 0.94345(15)
C23 C 0.93894(7) 1.02207(7) 0.94336(17)
C24 C 0.97396(7) 1.02872(8) 0.91297(19)
H18 H 0.9798 1.0116 0.8760
H19 H 0.9900 1.0282 0.9546
H20 H 0.9746 1.0507 0.8890
C25 C 0.83020(8) 0.91570(7) 1.72103(17)
H21 H 0.8317 0.9208 1.7731
C26 C 0.84966(10) 0.93280(10) 1.6722(2)
H22 H 0.8634 0.9504 1.6898
C27 C 0.84943(12) 0.92463(11) 1.5972(3)
C28 C 0.82710(11) 0.90064(11) 1.5747(2)
H23 H 0.8255 0.8946 1.5232
C29 C 0.80729(9) 0.88570(8) 1.62682(19)
H24 H 0.7913 0.8699 1.6104
C30 C 0.87538(17) 0.94107(14) 1.5403(3)
H25 H 0.8893 0.9572 1.5682
H26 H 0.8902 0.9235 1.5204
Mn3 Mn 1.075690(9) 1.044530(10) 1.16614(3)
O7 O 1.09827(4) 1.01706(5) 1.23296(13)
O8 O 0.99868(4) 1.02197(5) 1.31329(9)
O9 O 1.04555(4) 1.07057(4) 1.10438(10)
O10 O 1.08708(5) 1.09166(6) 1.22789(17)
N7 N 1.03454(5) 1.03720(5) 1.22009(13)
N8 N 1.00619(5) 1.05241(5) 1.18750(12)
N9 N 1.09580(17) 1.14667(15) 1.2393(6)
C31 C 1.08780(8) 1.00283(9) 1.2935(2)
C32 C 1.11071(10) 0.98320(11) 1.3327(3)
H27 H 1.1324 0.9802 1.3124
C33 C 1.10285(13) 0.96842(13) 1.3986(4)
H28 H 1.1191 0.9554 1.4238
C34 C 1.07117(13) 0.97200(12) 1.4306(3)
H29 H 1.0661 0.9625 1.4782
C35 C 1.04746(9) 0.98984(11) 1.3905(2)
H30 H 1.0255 0.9913 1.4099
C36 C 1.05477(8) 1.00546(8) 1.3232(2)
C37 C 1.02797(7) 1.02222(7) 1.28351(17)
C38 C 1.01426(6) 1.06932(6) 1.12805(16)
C39 C 0.98965(6) 1.08852(6) 1.08481(15)
H31 H 0.9844 1.0768 1.0380
H32 H 0.9693 1.0911 1.1147
H33 H 0.9988 1.1105 1.0730
C40 C 1.08498(15) 1.11671(13) 1.2082(4)
H34 H 1.0738 1.1189 1.1614
C41 C 1.11458(17) 1.1535(3) 1.2829(7)
H35 H 1.1108 1.1404 1.3284
H36 H 1.1370 1.1491 1.2636
H37 H 1.1125 1.1772 1.2948
C42 C 1.0857(4) 1.1809(2) 1.1910(6)
H38 H 1.1018 1.1842 1.1503
H39 H 1.0634 1.1783 1.1696
H40 H 1.0860 1.2001 1.2247
Mn2F Mn 0.778520(9) 0.863482(9) 1.78526(2)
O5H O 1.11654(4) 1.05329(4) 1.10740(10)
N5H N 1.07636(5) 1.00528(5) 1.07698(12)
N6A N 0.85755(5) 1.05947(5) 0.94981(14)
Mn3H Mn 0.924310(9) 0.955470(10) 0.83386(3)
loop_
_geom_bond_atom_site_label_1
_geom_bond_atom_site_label_2
_geom_bond_site_symmetry_1
_geom_bond_site_symmetry_2
Mn1 O1 1_555 1_555
O1 C1 1_555 1_555
O2 C7 1_555 1_555
O3 Mn1 1_555 1_555
N1 Mn1 1_555 1_555
N2 N1 1_555 1_555
N3 Mn1 1_555 1_555
C1 C2 1_555 1_555
C2 H1 1_555 1_555
C3 C2 1_555 1_555
H2 C3 1_555 1_555
C4 C3 1_555 1_555
H3 C4 1_555 1_555
C5 C4 1_555 1_555
H4 C5 1_555 1_555
C6 C1 1_555 1_555
C7 N1 1_555 1_555
C8 O3 1_555 1_555
C9 C8 1_555 1_555
H5 C9 1_555 1_555
H6 C9 1_555 1_555
H7 C9 1_555 1_555
C10 N3 1_555 1_555
H8 C10 1_555 1_555
C11 C10 1_555 1_555
H9 C11 1_555 1_555
C12 C11 1_555 1_555
C13 C12 1_555 1_555
H10 C13 1_555 1_555
C14 N3 1_555 1_555
H11 C14 1_555 1_555
C15 C12 1_555 1_555
H12 C15 1_555 1_555
H13 C15 1_555 1_555
Mn2 O2 1_555 1_555
O4 Mn2 1_555 1_555
O5 C22 1_555 1_555
O6 Mn2 1_555 1_555
N4 Mn2 1_555 1_555
N5 N4 1_555 1_555
N6 C25 1_555 1_555
C16 O4 1_555 1_555
C17 C16 1_555 1_555
H14 C17 1_555 1_555
C18 C17 1_555 1_555
H15 C18 1_555 1_555
C19 C18 1_555 1_555
H16 C19 1_555 1_555
C20 C19 1_555 1_555
H17 C20 1_555 1_555
C21 C16 1_555 1_555
C22 N4 1_555 1_555
C23 O6 1_555 1_555
C24 C23 1_555 1_555
H18 C24 1_555 1_555
H19 C24 1_555 1_555
H20 C24 1_555 1_555
C25 H21 1_555 1_555
C26 C25 1_555 1_555
H22 C26 1_555 1_555
C27 C26 1_555 1_555
C28 C27 1_555 1_555
H23 C28 1_555 1_555
C29 N6 1_555 1_555
H24 C29 1_555 1_555
C30 C15 1_555 1_555
H25 C30 1_555 1_555
H26 C30 1_555 1_555
Mn3 O7 1_555 1_555
O7 C31 1_555 1_555
O8 Mn1 1_555 1_555
O9 Mn3 1_555 1_555
O10 Mn3 1_555 1_555
N7 Mn3 1_555 1_555
N8 Mn1 1_555 1_555
N9 C40 1_555 1_555
C31 C32 1_555 1_555
C32 H27 1_555 1_555
C33 C32 1_555 1_555
H28 C33 1_555 1_555
C34 C33 1_555 1_555
H29 C34 1_555 1_555
C35 C34 1_555 1_555
H30 C35 1_555 1_555
C36 C31 1_555 1_555
C37 O8 1_555 1_555
C38 O9 1_555 1_555
C39 C38 1_555 1_555
H31 C39 1_555 1_555
H32 C39 1_555 1_555
H33 C39 1_555 1_555
C40 O10 1_555 1_555
H34 C40 1_555 1_555
C41 N9 1_555 1_555
H35 C41 1_555 1_555
H36 C41 1_555 1_555
H37 C41 1_555 1_555
C42 N9 1_555 1_555
H38 C42 1_555 1_555
H39 C42 1_555 1_555
H40 C42 1_555 1_555
Mn2F N6 1_555 1_555
O5H Mn3 1_555 1_555
N5H Mn3 1_555 1_555
N6A Mn2 1_555 1_555
Mn3H O5 1_555 1_555
N2 C8 1_555 1_555
N2 Mn2 1_555 1_555
C5 C6 1_555 1_555
C6 C7 1_555 1_555
C13 C14 1_555 1_555
N5 C23 1_555 1_555
N5 Mn3H 1_555 1_555
C20 C21 1_555 1_555
C21 C22 1_555 1_555
C27 C30 1_555 1_555
C28 C29 1_555 1_555
N7 N8 1_555 1_555
N7 C37 1_555 1_555
N8 C38 1_555 1_555
C35 C36 1_555 1_555
C36 C37 1_555 1_555

#END
