
#######################################################################
#
#                 Cambridge Crystallographic Data Centre
#                                CCDC 
#
#######################################################################
#
# If this CIF has been generated from an entry in the Cambridge 
# Structural Database, then it will include bibliographic, chemical, 
# crystal, experimental, refinement or atomic coordinate data resulting 
# from the CCDC's data processing and validation procedures.
#
#######################################################################

data_XALBES
_chemical_formula_moiety         '(C48 H53 Mn3 N10 O11)n'
_symmetry_cell_setting           tetragonal
_symmetry_space_group_name_H-M   'I 41/a'
_symmetry_Int_Tables_number      88
_space_group_name_Hall           '-I 4ad'
loop_
_symmetry_equiv_pos_site_id
_symmetry_equiv_pos_as_xyz
1 x,y,z
2 3/4-y,1/4+x,1/4+z
3 1/2+x,1/2+y,1/2+z
4 1/4-y,3/4+x,3/4+z
5 1/4+y,1/4-x,1/4+z
6 1/2-x,-y,1/2+z
7 3/4+y,3/4-x,3/4+z
8 -x,1/2-y,z
9 -x,-y,-z
10 1/4+y,3/4-x,3/4-z
11 1/2-x,1/2-y,1/2-z
12 3/4+y,1/4-x,1/4-z
13 3/4-y,3/4+x,3/4-z
14 1/2+x,y,1/2-z
15 1/4-y,1/4+x,1/4-z
16 x,1/2+y,-z
_cell_length_a                   40.320(4)
_cell_length_b                   40.320(4)
_cell_length_c                   17.588(3)
_cell_angle_alpha                90
_cell_angle_beta                 90
_cell_angle_gamma                90
_cell_volume                     28592.9
loop_
_atom_site_label
_atom_site_type_symbol
_atom_site_fract_x
_atom_site_fract_y
_atom_site_fract_z
Mn1 Mn 0.778928(19) 0.135435(18) 0.21987(4)
O2 O 0.75858(9) 0.09725(8) 0.1842(2)
O3 O 0.69618(8) 0.13343(8) 0.3597(2)
O4 O 0.79378(8) 0.17585(8) 0.2660(2)
N2 N 0.74299(10) 0.14249(10) 0.2912(2)
N3 N 0.74508(10) 0.17260(9) 0.3317(2)
N4 N 0.80960(11) 0.10717(11) 0.3070(2)
C4 C 0.73354(13) 0.08010(12) 0.2134(3)
C5 C 0.72689(14) 0.04911(13) 0.1831(3)
H8 H 0.7402 0.0412 0.1424
C6 C 0.70219(14) 0.02968(14) 0.2094(3)
H9 H 0.6986 0.0085 0.1873
C7 C 0.68166(15) 0.04050(13) 0.2690(3)
H10 H 0.6640 0.0272 0.2876
C8 C 0.68811(12) 0.07054(12) 0.2987(3)
H11 H 0.6745 0.0779 0.3394
C9 C 0.71326(12) 0.09157(11) 0.2741(3)
C10 C 0.71747(12) 0.12353(12) 0.3095(3)
C11 C 0.77264(13) 0.18777(12) 0.3156(3)
C12 C 0.78082(18) 0.21930(15) 0.3533(5)
H12 H 0.7610 0.2286 0.3787
H13 H 0.7890 0.2356 0.3158
C13 C 0.8109(3) 0.2105(3) 0.4187(7)
H14 H 0.8092 0.1872 0.4342
H15 H 0.8081 0.2248 0.4633
H16 H 0.8328 0.2145 0.3962
C14 C 0.83240(15) 0.08509(14) 0.2855(3)
H17 H 0.8338 0.0794 0.2331
C15 C 0.85393(17) 0.07019(18) 0.3350(4)
H18 H 0.8694 0.0541 0.3173
C16 C 0.85286(16) 0.07904(18) 0.4128(4)
C17 C 0.82891(18) 0.10104(17) 0.4330(4)
H19 H 0.8266 0.1071 0.4849
C18 C 0.80816(15) 0.11463(15) 0.3804(3)
H20 H 0.7920 0.1301 0.3970
C19 C 0.87636(19) 0.0631(2) 0.4681(5)
H21 H 0.8943 0.0521 0.4393
H22 H 0.8866 0.0806 0.4998
Mn2 Mn 0.703953(18) 0.174438(17) 0.41701(4)
O5 O 0.72940(9) 0.15237(8) 0.4888(2)
O6 O 0.72519(9) 0.25282(8) 0.56197(19)
O7 O 0.67904(8) 0.20392(7) 0.35088(18)
O8 O 0.65568(10) 0.16265(9) 0.4738(2)
N5 N 0.71138(9) 0.21612(9) 0.4687(2)
N6 N 0.69558(10) 0.24375(9) 0.4343(2)
N7 N 0.59818(18) 0.1613(2) 0.4736(5)
C20 C 0.74556(14) 0.16437(14) 0.5504(4)
C21 C 0.76523(19) 0.14126(19) 0.5905(5)
H23 H 0.7688 0.1196 0.5709
C22 C 0.7790(3) 0.1508(2) 0.6583(6)
H24 H 0.7911 0.1349 0.6869
C23 C 0.7761(2) 0.1820(2) 0.6864(5)
H25 H 0.7857 0.1878 0.7338
C24 C 0.7584(2) 0.20551(18) 0.6429(4)
H26 H 0.7566 0.2276 0.6611
C25 C 0.74358(14) 0.19726(14) 0.5751(3)
C26 C 0.72598(13) 0.22331(12) 0.5345(3)
C27 C 0.67996(11) 0.23453(11) 0.3729(3)
C28 C 0.66265(13) 0.26075(12) 0.3272(3)
H27 H 0.6795 0.2738 0.2992
H28 H 0.6510 0.2760 0.3624
C29 C 0.6378(2) 0.2471(2) 0.2708(6)
H29 H 0.6489 0.2315 0.2366
H30 H 0.6284 0.2654 0.2411
H31 H 0.6200 0.2357 0.2983
C30 C 0.6293(3) 0.1731(3) 0.4508(6)
H32 H 0.6298 0.1906 0.4146
C31 C 0.59659(18) 0.13464(19) 0.5277(5)
C32 C 0.5694(3) 0.1747(4) 0.4369(9)
H33 H 0.5592 0.1577 0.4049
H34 H 0.5758 0.1937 0.4053
H35 H 0.5534 0.1821 0.4755
Mn3 Mn 0.78738(2) 0.210080(18) 0.00547(4)
O9 O 0.82909(10) 0.20116(9) -0.0337(2)
O10 O 0.81648(8) 0.13356(8) 0.14806(19)
O11 O 0.74505(8) 0.21258(8) 0.05540(19)
N8 N 0.79235(10) 0.17370(9) 0.0782(2)
N9 N 0.76363(10) 0.16807(10) 0.1215(2)
N10 N 0.92748(15) -0.01209(12) 0.6669(3)
C33 C 0.85144(14) 0.17922(13) -0.0146(3)
C34 C 0.88128(18) 0.17768(17) -0.0560(4)
H36 H 0.8847 0.1933 -0.0957
C35 C 0.90571(17) 0.15493(17) -0.0421(5)
H37 H 0.9252 0.1544 -0.0726
C36 C 0.90153(15) 0.13272(16) 0.0173(4)
H38 H 0.9183 0.1168 0.0283
C37 C 0.87247(13) 0.13379(13) 0.0610(3)
H39 H 0.8700 0.1186 0.1018
C38 C 0.84763(12) 0.15605(12) 0.0468(3)
C39 C 0.81764(13) 0.15459(11) 0.0924(3)
C40 C 0.74101(13) 0.18900(13) 0.1062(3)
C41 C 0.70760(13) 0.18637(15) 0.1413(4)
H40 H 0.7058 0.2040 0.1803
H41 H 0.7064 0.1648 0.1682
C42 C 0.67811(18) 0.1888(2) 0.0911(6)
H42 H 0.6786 0.1708 0.0538
H43 H 0.6579 0.1871 0.1219
H44 H 0.6784 0.2102 0.0646
C43 C 0.8986(3) -0.02040(19) 0.6497(5)
H45 H 0.8908 -0.0402 0.6732
C44 C 0.8766(3) -0.00530(19) 0.6023(5)
H46 H 0.8554 -0.0148 0.5930
C45 C 0.8852(3) 0.02220(19) 0.5700(5)
C46 C 0.9162(2) 0.0370(2) 0.5952(5)
H47 H 0.9224 0.0589 0.5809
C47 C 0.9363(2) 0.0175(2) 0.6413(5)
H48 H 0.9575 0.0258 0.6552
C48 C 0.8612(3) 0.0396(2) 0.5161(5)
H49 H 0.8439 0.0509 0.5465
H50 H 0.8501 0.0227 0.4842
O6J O 0.77481(9) 0.24718(8) -0.06197(19)
N6J N 0.80442(10) 0.25625(9) 0.0657(2)
Mn3J Mn 0.71262(2) 0.289920(18) 0.49453(4)
Mn3F Mn 0.960080(18) -0.03738(2) 0.75547(4)
N10A N 0.76209(12) 0.17748(15) -0.0831(3)
O1 O 0.8554(9) 0.3916(8) 0.5837(18)
N1 N 0.8364(3) 0.4013(2) 0.4728(7)
C1 C 0.8049(5) 0.4074(5) 0.4876(10)
H1 H 0.8029 0.4285 0.5148
H2 H 0.7959 0.3895 0.5192
H3 H 0.7924 0.4086 0.4398
C2 C 0.8470(3) 0.4033(3) 0.3940(8)
H4 H 0.8458 0.3812 0.3708
H5 H 0.8699 0.4114 0.3918
H6 H 0.8325 0.4186 0.3663
C3 C 0.8596(5) 0.3926(4) 0.5271(16)
H7 H 0.8812 0.3871 0.5099
loop_
_geom_bond_atom_site_label_1
_geom_bond_atom_site_label_2
_geom_bond_site_symmetry_1
_geom_bond_site_symmetry_2
O1 C3 1_555 1_555
N1 C1 1_555 1_555
C1 H1 1_555 1_555
H2 C1 1_555 1_555
H3 C1 1_555 1_555
C2 N1 1_555 1_555
H4 C2 1_555 1_555
H5 C2 1_555 1_555
H6 C2 1_555 1_555
C3 N1 1_555 1_555
H7 C3 1_555 1_555
Mn1 O2 1_555 1_555
O2 C4 1_555 1_555
O3 C10 1_555 1_555
O4 Mn1 1_555 1_555
N2 Mn1 1_555 1_555
N3 N2 1_555 1_555
N4 Mn1 1_555 1_555
C4 C5 1_555 1_555
C5 H8 1_555 1_555
C6 C5 1_555 1_555
H9 C6 1_555 1_555
C7 C6 1_555 1_555
H10 C7 1_555 1_555
C8 C7 1_555 1_555
H11 C8 1_555 1_555
C9 C4 1_555 1_555
C10 N2 1_555 1_555
C11 O4 1_555 1_555
C12 C11 1_555 1_555
H12 C12 1_555 1_555
H13 C12 1_555 1_555
C13 C12 1_555 1_555
H14 C13 1_555 1_555
H15 C13 1_555 1_555
H16 C13 1_555 1_555
C14 N4 1_555 1_555
H17 C14 1_555 1_555
C15 C14 1_555 1_555
H18 C15 1_555 1_555
C16 C15 1_555 1_555
C17 C16 1_555 1_555
H19 C17 1_555 1_555
C18 N4 1_555 1_555
H20 C18 1_555 1_555
C19 C16 1_555 1_555
H21 C19 1_555 1_555
H22 C19 1_555 1_555
Mn2 O3 1_555 1_555
O5 Mn2 1_555 1_555
O6 C26 1_555 1_555
O7 Mn2 1_555 1_555
O8 Mn2 1_555 1_555
N5 Mn2 1_555 1_555
N6 N5 1_555 1_555
N7 C30 1_555 1_555
C20 O5 1_555 1_555
C21 C20 1_555 1_555
H23 C21 1_555 1_555
C22 C21 1_555 1_555
H24 C22 1_555 1_555
C23 C22 1_555 1_555
H25 C23 1_555 1_555
C24 C23 1_555 1_555
H26 C24 1_555 1_555
C25 C20 1_555 1_555
C26 N5 1_555 1_555
C27 O7 1_555 1_555
C28 C27 1_555 1_555
H27 C28 1_555 1_555
H28 C28 1_555 1_555
C29 C28 1_555 1_555
H29 C29 1_555 1_555
H30 C29 1_555 1_555
H31 C29 1_555 1_555
C30 O8 1_555 1_555
H32 C30 1_555 1_555
C31 N7 1_555 1_555
C32 N7 1_555 1_555
H33 C32 1_555 1_555
H34 C32 1_555 1_555
H35 C32 1_555 1_555
Mn3 O9 1_555 1_555
O9 C33 1_555 1_555
O10 Mn1 1_555 1_555
O11 Mn3 1_555 1_555
N8 Mn3 1_555 1_555
N9 Mn1 1_555 1_555
N10 C43 1_555 1_555
C33 C34 1_555 1_555
C34 H36 1_555 1_555
C35 C34 1_555 1_555
H37 C35 1_555 1_555
C36 C35 1_555 1_555
H38 C36 1_555 1_555
C37 C36 1_555 1_555
H39 C37 1_555 1_555
C38 C33 1_555 1_555
C39 O10 1_555 1_555
C40 O11 1_555 1_555
C41 C40 1_555 1_555
H40 C41 1_555 1_555
H41 C41 1_555 1_555
C42 C41 1_555 1_555
H42 C42 1_555 1_555
H43 C42 1_555 1_555
H44 C42 1_555 1_555
C43 H45 1_555 1_555
C44 C43 1_555 1_555
H46 C44 1_555 1_555
C45 C44 1_555 1_555
C46 C45 1_555 1_555
H47 C46 1_555 1_555
C47 N10 1_555 1_555
H48 C47 1_555 1_555
C48 C19 1_555 1_555
H49 C48 1_555 1_555
H50 C48 1_555 1_555
O6J Mn3 1_555 1_555
N6J Mn3 1_555 1_555
Mn3J O6 1_555 1_555
Mn3F N10 1_555 1_555
N10A Mn3 1_555 1_555
N3 C11 1_555 1_555
N3 Mn2 1_555 1_555
C8 C9 1_555 1_555
C9 C10 1_555 1_555
C17 C18 1_555 1_555
N6 C27 1_555 1_555
N6 Mn3J 1_555 1_555
C24 C25 1_555 1_555
C25 C26 1_555 1_555
N8 N9 1_555 1_555
N8 C39 1_555 1_555
N9 C40 1_555 1_555
C37 C38 1_555 1_555
C38 C39 1_555 1_555
C45 C48 1_555 1_555
C46 C47 1_555 1_555

#END
