
#######################################################################
#
#                 Cambridge Crystallographic Data Centre
#                                CCDC 
#
#######################################################################
#
# If this CIF has been generated from an entry in the Cambridge 
# Structural Database, then it will include bibliographic, chemical, 
# crystal, experimental, refinement or atomic coordinate data resulting 
# from the CCDC's data processing and validation procedures.
#
#######################################################################

data_XALBIW
_chemical_formula_moiety         '(C51 H60 Mn3 N11 O12)n'
_symmetry_cell_setting           tetragonal
_symmetry_space_group_name_H-M   'I 41/a'
_symmetry_Int_Tables_number      88
_space_group_name_Hall           '-I 4ad'
loop_
_symmetry_equiv_pos_site_id
_symmetry_equiv_pos_as_xyz
1 x,y,z
2 3/4-y,1/4+x,1/4+z
3 1/2+x,1/2+y,1/2+z
4 1/4-y,3/4+x,3/4+z
5 1/4+y,1/4-x,1/4+z
6 1/2-x,-y,1/2+z
7 3/4+y,3/4-x,3/4+z
8 -x,1/2-y,z
9 -x,-y,-z
10 1/4+y,3/4-x,3/4-z
11 1/2-x,1/2-y,1/2-z
12 3/4+y,1/4-x,1/4-z
13 3/4-y,3/4+x,3/4-z
14 1/2+x,y,1/2-z
15 1/4-y,1/4+x,1/4-z
16 x,1/2+y,-z
_cell_length_a                   40.6479(16)
_cell_length_b                   40.6479(16)
_cell_length_c                   17.5642(10)
_cell_angle_alpha                90
_cell_angle_beta                 90
_cell_angle_gamma                90
_cell_volume                     29020.5
loop_
_atom_site_label
_atom_site_type_symbol
_atom_site_fract_x
_atom_site_fract_y
_atom_site_fract_z
O2 O 0.839(2) 0.244(2) 0.712(2)
N2 N 0.8529(4) 0.2692(4) 0.8128(6)
C4 C 0.8337(5) 0.2489(4) 0.7827(7)
H8 H 0.8167 0.2382 0.8102
C5 C 0.8860(11) 0.2610(17) 0.741(3)
H9 H 0.8979 0.2410 0.7551
H10 H 0.9012 0.2797 0.7395
H11 H 0.8760 0.2581 0.6905
C6 C 0.8557(4) 0.2793(3) 0.8818(7)
H12 H 0.8527 0.3032 0.8835
H13 H 0.8776 0.2737 0.9011
H14 H 0.8389 0.2687 0.9135
Mn1 Mn 0.795732(13) 0.325349(12) 0.08284(3)
O3 O 0.77014(7) 0.34713(6) 0.01096(16)
O4 O 0.77447(7) 0.24769(6) -0.06376(14)
O5 O 0.82060(6) 0.29606(5) 0.14836(13)
O6 O 0.84379(7) 0.33754(6) 0.02509(16)
N3 N 0.78902(7) 0.28382(6) 0.02932(16)
N4 N 0.80400(7) 0.25644(6) 0.06416(16)
N5 N 0.90001(11) 0.33980(11) 0.0257(3)
C7 C 0.75484(10) 0.33612(10) -0.0490(2)
C8 C 0.73579(14) 0.35855(13) -0.0909(3)
H15 H 0.7333 0.3803 -0.0723
C9 C 0.72087(16) 0.35001(15) -0.1573(4)
H16 H 0.7080 0.3658 -0.1836
C10 C 0.72419(17) 0.31833(17) -0.1874(4)
H17 H 0.7146 0.3128 -0.2350
C11 C 0.74214(15) 0.29474(14) -0.1456(3)
H18 H 0.7440 0.2729 -0.1644
C12 C 0.75706(11) 0.30319(11) -0.0773(2)
C13 C 0.77426(9) 0.27723(9) -0.0354(2)
C14 C 0.81975(8) 0.26528(8) 0.12573(18)
C15 C 0.83773(9) 0.23982(9) 0.1708(2)
H19 H 0.8513 0.2266 0.1354
H20 H 0.8213 0.2249 0.1940
C16 C 0.85989(12) 0.25270(11) 0.2334(3)
H21 H 0.8761 0.2678 0.2116
H22 H 0.8713 0.2342 0.2578
H23 H 0.8466 0.2643 0.2714
C17 C 0.87098(13) 0.32883(13) 0.0503(3)
H24 H 0.8711 0.3131 0.0902
C18 C 0.90304(14) 0.36447(15) -0.0290(4)
H25 H 0.8856 0.3620 -0.0671
H26 H 0.9246 0.3627 -0.0538
H27 H 0.9011 0.3860 -0.0045
C19 C 0.93016(15) 0.3286(2) 0.0620(5)
H28 H 0.9382 0.3456 0.0969
H29 H 0.9469 0.3243 0.0230
H30 H 0.9258 0.3083 0.0905
Mn2 Mn 0.786836(13) 0.210478(12) 0.00360(3)
O7 O 0.82812(7) 0.20146(6) -0.03770(15)
O8 O 0.81642(6) 0.13420(6) 0.14585(13)
O9 O 0.74477(6) 0.21297(6) 0.05525(13)
N6 N 0.79196(7) 0.17442(6) 0.07597(15)
N7 N 0.76351(7) 0.16828(7) 0.12072(16)
N8 N 0.76073(10) 0.17792(9) -0.08360(18)
C20 C 0.85019(10) 0.17855(9) -0.0189(2)
C21 C 0.87883(12) 0.17654(11) -0.0639(3)
H31 H 0.8817 0.1916 -0.1048
C22 C 0.90227(12) 0.15382(12) -0.0505(3)
H32 H 0.9211 0.1529 -0.0825
C23 C 0.89929(11) 0.13137(11) 0.0104(3)
H33 H 0.9159 0.1155 0.0201
C24 C 0.87143(9) 0.13318(9) 0.0555(2)
H34 H 0.8691 0.1183 0.0969
C25 C 0.84675(9) 0.15624(8) 0.0418(2)
C26 C 0.81691(8) 0.15483(8) 0.09086(19)
C27 C 0.74054(9) 0.18933(8) 0.1047(2)
C28 C 0.70752(9) 0.18619(10) 0.1420(3)
H35 H 0.7055 0.2032 0.1820
H36 H 0.7061 0.1644 0.1671
C29 C 0.67894(14) 0.18974(18) 0.0869(4)
H37 H 0.6805 0.2110 0.0607
H38 H 0.6582 0.1886 0.1151
H39 H 0.6797 0.1719 0.0494
C30 C 0.77077(18) 0.14862(13) -0.1017(3)
H40 H 0.7908 0.1414 -0.0794
C31 C 0.7551(2) 0.12676(13) -0.1502(3)
H41 H 0.7647 0.1060 -0.1618
C32 C 0.7270(2) 0.13533(14) -0.1795(3)
C33 C 0.71184(18) 0.16659(16) -0.1559(4)
H42 H 0.6903 0.1725 -0.1714
C34 C 0.73079(15) 0.18697(13) -0.1096(3)
H43 H 0.7224 0.2079 -0.0958
C35 C 0.7070(3) 0.11193(16) -0.2321(5)
H44 H 0.7227 0.0984 -0.2615
H45 H 0.6942 0.0968 -0.1994
Mn3 Mn 0.721180(12) 0.364170(12) 0.28154(3)
O10 O 0.74118(6) 0.40237(6) 0.31741(14)
O11 O 0.80353(6) 0.36609(5) 0.14120(14)
O12 O 0.70615(6) 0.32391(6) 0.23403(14)
N9 N 0.75690(7) 0.35714(6) 0.20965(16)
N10 N 0.75486(7) 0.32707(7) 0.16851(17)
N11 N 0.64248(7) 0.05951(7) -0.44459(17)
C36 C 0.76627(9) 0.41922(8) 0.2873(2)
C37 C 0.77228(10) 0.45042(9) 0.3179(2)
H46 H 0.7588 0.4583 0.3581
C38 C 0.79756(10) 0.47001(9) 0.2908(2)
H47 H 0.8012 0.4911 0.3126
C39 C 0.81728(10) 0.45928(9) 0.2329(2)
H48 H 0.8345 0.4729 0.2144
C40 C 0.81212(9) 0.42862(8) 0.2014(2)
H49 H 0.8260 0.4213 0.1613
C41 C 0.78657(8) 0.40800(8) 0.22762(19)
C42 C 0.78249(8) 0.37567(8) 0.19128(19)
C43 C 0.72740(9) 0.31201(9) 0.1858(2)
C44 C 0.71937(15) 0.28036(13) 0.1495(4)
H50 H 0.7392 0.2706 0.1257
H51 H 0.7106 0.2647 0.1875
C45 C 0.6906(2) 0.2890(2) 0.0827(6)
H52 H 0.7011 0.2997 0.0390
H53 H 0.6800 0.2686 0.0662
H54 H 0.6740 0.3038 0.1044
C46 C 0.63553(11) 0.05821(11) -0.3706(2)
H55 H 0.6201 0.0423 -0.3536
C47 C 0.64944(13) 0.07866(13) -0.3174(3)
H56 H 0.6439 0.0763 -0.2651
C48 C 0.67109(12) 0.10226(14) -0.3395(3)
C49 C 0.67966(12) 0.10338(13) -0.4160(3)
H57 H 0.6956 0.1186 -0.4337
C50 C 0.66454(11) 0.08187(10) -0.4659(2)
H58 H 0.6702 0.0831 -0.5183
C51 C 0.68568(15) 0.12659(17) -0.2827(3)
H59 H 0.6975 0.1440 -0.3109
H60 H 0.6676 0.1372 -0.2539
O8J O 0.68358(6) 0.36580(6) 0.35415(13)
N7J N 0.73649(7) 0.33172(7) 0.37928(16)
Mn3J Mn 0.778820(12) 0.135830(12) 0.21846(3)
Mn3I Mn 0.614170(12) 0.028820(12) -0.53154(3)
N11L N 0.69049(7) 0.39248(7) 0.19459(17)
O1 O 0.6473(3) 0.6076(4) 1.0964(6)
N1 N 0.6653(2) 0.59723(19) 0.9743(5)
C1 C 0.6427(3) 0.6064(2) 1.0259(7)
H1 H 0.6216 0.6125 1.0075
C2 C 0.6958(4) 0.5893(6) 0.9930(7)
H2 H 0.6960 0.5796 1.0440
H3 H 0.7096 0.6090 0.9925
H4 H 0.7044 0.5733 0.9562
C3 C 0.6544(2) 0.5965(2) 0.8985(6)
H5 H 0.6326 0.6067 0.8952
H6 H 0.6530 0.5736 0.8811
H7 H 0.6698 0.6087 0.8663
loop_
_geom_bond_atom_site_label_1
_geom_bond_atom_site_label_2
_geom_bond_site_symmetry_1
_geom_bond_site_symmetry_2
O1 C1 1_555 1_555
N1 C1 1_555 1_555
C1 H1 1_555 1_555
C2 N1 1_555 1_555
H2 C2 1_555 1_555
H3 C2 1_555 1_555
H4 C2 1_555 1_555
C3 N1 1_555 1_555
H5 C3 1_555 1_555
H6 C3 1_555 1_555
H7 C3 1_555 1_555
O2 C4 1_555 1_555
N2 C4 1_555 1_555
C4 H8 1_555 1_555
C5 N2 1_555 1_555
H9 C5 1_555 1_555
H10 C5 1_555 1_555
H11 C5 1_555 1_555
C6 N2 1_555 1_555
H12 C6 1_555 1_555
H13 C6 1_555 1_555
H14 C6 1_555 1_555
Mn1 O3 1_555 1_555
O3 C7 1_555 1_555
O4 C13 1_555 1_555
O5 Mn1 1_555 1_555
O6 Mn1 1_555 1_555
N3 Mn1 1_555 1_555
N4 N3 1_555 1_555
N5 C17 1_555 1_555
C7 C8 1_555 1_555
C8 H15 1_555 1_555
C9 C8 1_555 1_555
H16 C9 1_555 1_555
C10 C9 1_555 1_555
H17 C10 1_555 1_555
C11 C10 1_555 1_555
H18 C11 1_555 1_555
C12 C7 1_555 1_555
C13 N3 1_555 1_555
C14 O5 1_555 1_555
C15 C14 1_555 1_555
H19 C15 1_555 1_555
H20 C15 1_555 1_555
C16 C15 1_555 1_555
H21 C16 1_555 1_555
H22 C16 1_555 1_555
H23 C16 1_555 1_555
C17 O6 1_555 1_555
H24 C17 1_555 1_555
C18 N5 1_555 1_555
H25 C18 1_555 1_555
H26 C18 1_555 1_555
H27 C18 1_555 1_555
C19 N5 1_555 1_555
H28 C19 1_555 1_555
H29 C19 1_555 1_555
H30 C19 1_555 1_555
Mn2 O4 1_555 1_555
O7 Mn2 1_555 1_555
O8 C26 1_555 1_555
O9 Mn2 1_555 1_555
N6 Mn2 1_555 1_555
N7 N6 1_555 1_555
N8 Mn2 1_555 1_555
C20 O7 1_555 1_555
C21 C20 1_555 1_555
H31 C21 1_555 1_555
C22 C21 1_555 1_555
H32 C22 1_555 1_555
C23 C22 1_555 1_555
H33 C23 1_555 1_555
C24 C23 1_555 1_555
H34 C24 1_555 1_555
C25 C20 1_555 1_555
C26 N6 1_555 1_555
C27 O9 1_555 1_555
C28 C27 1_555 1_555
H35 C28 1_555 1_555
H36 C28 1_555 1_555
C29 C28 1_555 1_555
H37 C29 1_555 1_555
H38 C29 1_555 1_555
H39 C29 1_555 1_555
C30 N8 1_555 1_555
H40 C30 1_555 1_555
C31 C30 1_555 1_555
H41 C31 1_555 1_555
C32 C31 1_555 1_555
C33 C32 1_555 1_555
H42 C33 1_555 1_555
C34 N8 1_555 1_555
H43 C34 1_555 1_555
C35 C32 1_555 1_555
H44 C35 1_555 1_555
H45 C35 1_555 1_555
Mn3 O10 1_555 1_555
O10 C36 1_555 1_555
O11 Mn1 1_555 1_555
O12 Mn3 1_555 1_555
N9 Mn3 1_555 1_555
N10 Mn1 1_555 1_555
N11 C46 1_555 1_555
C36 C37 1_555 1_555
C37 H46 1_555 1_555
C38 C37 1_555 1_555
H47 C38 1_555 1_555
C39 C38 1_555 1_555
H48 C39 1_555 1_555
C40 C39 1_555 1_555
H49 C40 1_555 1_555
C41 C36 1_555 1_555
C42 O11 1_555 1_555
C43 O12 1_555 1_555
C44 C43 1_555 1_555
H50 C44 1_555 1_555
H51 C44 1_555 1_555
C45 C44 1_555 1_555
H52 C45 1_555 1_555
H53 C45 1_555 1_555
H54 C45 1_555 1_555
C46 H55 1_555 1_555
C47 C46 1_555 1_555
H56 C47 1_555 1_555
C48 C47 1_555 1_555
C49 C48 1_555 1_555
H57 C49 1_555 1_555
C50 N11 1_555 1_555
H58 C50 1_555 1_555
C51 C35 1_555 1_555
H59 C51 1_555 1_555
H60 C51 1_555 1_555
O8J Mn3 1_555 1_555
N7J Mn3 1_555 1_555
Mn3J O8 1_555 1_555
Mn3I N11 1_555 1_555
N11L Mn3 1_555 1_555
N4 C14 1_555 1_555
N4 Mn2 1_555 1_555
C11 C12 1_555 1_555
C12 C13 1_555 1_555
N7 C27 1_555 1_555
N7 Mn3J 1_555 1_555
C24 C25 1_555 1_555
C25 C26 1_555 1_555
C33 C34 1_555 1_555
N9 N10 1_555 1_555
N9 C42 1_555 1_555
N10 C43 1_555 1_555
C40 C41 1_555 1_555
C41 C42 1_555 1_555
C48 C51 1_555 1_555
C49 C50 1_555 1_555

#END
