
#######################################################################
#
#                 Cambridge Crystallographic Data Centre
#                                CCDC 
#
#######################################################################
#
# If this CIF has been generated from an entry in the Cambridge 
# Structural Database, then it will include bibliographic, chemical, 
# crystal, experimental, refinement or atomic coordinate data resulting 
# from the CCDC's data processing and validation procedures.
#
#######################################################################

data_XALCAP
_chemical_formula_moiety         '(C48 H53 Mn3 N10 O11)n'
_symmetry_cell_setting           tetragonal
_symmetry_space_group_name_H-M   'I 41/a'
_symmetry_Int_Tables_number      88
_space_group_name_Hall           '-I 4ad'
loop_
_symmetry_equiv_pos_site_id
_symmetry_equiv_pos_as_xyz
1 x,y,z
2 3/4-y,1/4+x,1/4+z
3 1/2+x,1/2+y,1/2+z
4 1/4-y,3/4+x,3/4+z
5 1/4+y,1/4-x,1/4+z
6 1/2-x,-y,1/2+z
7 3/4+y,3/4-x,3/4+z
8 -x,1/2-y,z
9 -x,-y,-z
10 1/4+y,3/4-x,3/4-z
11 1/2-x,1/2-y,1/2-z
12 3/4+y,1/4-x,1/4-z
13 3/4-y,3/4+x,3/4-z
14 1/2+x,y,1/2-z
15 1/4-y,1/4+x,1/4-z
16 x,1/2+y,-z
_cell_length_a                   40.609(3)
_cell_length_b                   40.609(3)
_cell_length_c                   17.4132(18)
_cell_angle_alpha                90
_cell_angle_beta                 90
_cell_angle_gamma                90
_cell_volume                     28715.9
loop_
_atom_site_label
_atom_site_type_symbol
_atom_site_fract_x
_atom_site_fract_y
_atom_site_fract_z
_atom_site_U_iso_or_equiv
_atom_site_thermal_displace_type
Mn1 Mn 0.57473(2) 0.54579(2) 0.17267(5) 0.0464 Uani
O2 O 0.59567(10) 0.52093(11) 0.2479(3) 0.0667 Uani
O3 O 0.49550(10) 0.52677(11) 0.3163(2) 0.0587 Uani
O4 O 0.54613(8) 0.57055(9) 0.1037(2) 0.0453 Uani
N2 N 0.53304(10) 0.53971(11) 0.2240(2) 0.0440 Uani
N3 N 0.50602(10) 0.55518(11) 0.1865(2) 0.0410 Uani
O5 O 0.58753(11) 0.59428(11) 0.2290(3) 0.0693 Uani
C4 C 0.58309(18) 0.50559(17) 0.3081(4) 0.0680 Uani
C5 C 0.6039(2) 0.4860(2) 0.3526(5) 0.1007 Uani
H8 H 0.6261 0.4831 0.3368 0.1210 Uiso
C6 C 0.5935(3) 0.4712(3) 0.4172(6) 0.1250 Uani
H9 H 0.6084 0.4574 0.4442 0.1500 Uiso
C7 C 0.5628(3) 0.4750(2) 0.4453(6) 0.1157 Uani
H10 H 0.5564 0.4650 0.4923 0.1380 Uiso
C8 C 0.5404(2) 0.4946(2) 0.4017(5) 0.1000 Uani
H11 H 0.5186 0.4982 0.4201 0.1200 Uiso
C9 C 0.55020(16) 0.50827(16) 0.3328(3) 0.0600 Uani
C10 C 0.52471(16) 0.52594(15) 0.2907(3) 0.0520 Uani
C11 C 0.51574(12) 0.56992(13) 0.1248(3) 0.0400 Uani
C12 C 0.49023(14) 0.58734(15) 0.0766(3) 0.0537 Uani
H12 H 0.4777 0.5706 0.0476 0.0650 Uiso
H13 H 0.4746 0.5986 0.1115 0.0650 Uiso
C13 C 0.5030(3) 0.6116(3) 0.0221(10) 0.2340 Uani
H14 H 0.5083 0.6320 0.0494 0.3490 Uiso
H15 H 0.4863 0.6161 -0.0171 0.3490 Uiso
H16 H 0.5229 0.6029 -0.0024 0.3490 Uiso
N4 N 0.5939(5) 0.6508(3) 0.2380(8) 0.3423 Uani
C14 C 0.5768(4) 0.6168(4) 0.2188(18) 0.6097 Uani
H17 H 0.5555 0.6172 0.1966 0.7310 Uiso
C15 C 0.6084(4) 0.6431(5) 0.3026(8) 0.2807 Uani
H18 H 0.6039 0.6602 0.3409 0.4210 Uiso
H19 H 0.6322 0.6414 0.2943 0.4210 Uiso
H20 H 0.5999 0.6219 0.3210 0.4210 Uiso
C16 C 0.5807(6) 0.6789(4) 0.1943(14) 0.4767 Uani
H21 H 0.5777 0.6977 0.2289 0.7140 Uiso
H22 H 0.5595 0.6729 0.1716 0.7140 Uiso
H23 H 0.5962 0.6849 0.1535 0.7140 Uiso
Mn2 Mn 0.45948(2) 0.53871(2) 0.24546(5) 0.0490 Uani
O6 O 0.44945(10) 0.57965(11) 0.2867(2) 0.0653 Uani
O7 O 0.38430(9) 0.56747(9) 0.0982(2) 0.0500 Uani
O8 O 0.46326(9) 0.49674(10) 0.1939(2) 0.0537 Uani
N5 N 0.42446(11) 0.54324(11) 0.1710(2) 0.0440 Uani
N6 N 0.41930(11) 0.51532(11) 0.1253(3) 0.0487 Uani
N7 N 0.42654(14) 0.51229(19) 0.3313(3) 0.0793 Uani
C17 C 0.42741(15) 0.60147(16) 0.2665(4) 0.0577 Uani
C18 C 0.42438(17) 0.6299(2) 0.3102(4) 0.0827 Uani
H24 H 0.4391 0.6331 0.3519 0.1000 Uiso
C19 C 0.40119(18) 0.65361(18) 0.2963(4) 0.0797 Uani
H25 H 0.3999 0.6725 0.3282 0.0960 Uiso
C20 C 0.37961(18) 0.64984(16) 0.2351(4) 0.0740 Uani
H26 H 0.3631 0.6658 0.2251 0.0890 Uiso
C21 C 0.38269(14) 0.62249(14) 0.1895(3) 0.0527 Uani
H27 H 0.3687 0.6206 0.1459 0.0630 Uiso
C22 C 0.40451(13) 0.59815(14) 0.2033(3) 0.0473 Uani
C23 C 0.40475(13) 0.56864(14) 0.1548(3) 0.0457 Uani
C24 C 0.44041(15) 0.49330(15) 0.1418(3) 0.0527 Uani
C25 C 0.43799(18) 0.45959(15) 0.1031(4) 0.0733 Uani
H28 H 0.4164 0.4580 0.0771 0.0880 Uiso
H29 H 0.4553 0.4581 0.0632 0.0880 Uiso
C26 C 0.4416(4) 0.4309(2) 0.1559(8) 0.1930 Uani
H30 H 0.4602 0.4347 0.1907 0.2890 Uiso
H31 H 0.4456 0.4109 0.1258 0.2890 Uiso
H32 H 0.4213 0.4282 0.1860 0.2890 Uiso
C27 C 0.4347(2) 0.4837(3) 0.3556(5) 0.1190 Uani
H33 H 0.4558 0.4754 0.3420 0.1430 Uiso
C28 C 0.4143(3) 0.4639(3) 0.4012(6) 0.1467 Uani
H34 H 0.4200 0.4421 0.4152 0.1760 Uiso
C29 C 0.3845(2) 0.4789(3) 0.4248(5) 0.1340 Uani
C30 C 0.3762(2) 0.5042(3) 0.3948(5) 0.1420 Uani
H35 H 0.3545 0.5124 0.4024 0.1710 Uiso
C31 C 0.3981(2) 0.5214(3) 0.3491(4) 0.1157 Uani
H36 H 0.3909 0.5420 0.3294 0.1390 Uiso
C32 C 0.3597(3) 0.4606(4) 0.4805(7) 0.1827 Uani
H37 H 0.3478 0.4774 0.5109 0.2190 Uiso
H38 H 0.3433 0.4488 0.4489 0.2190 Uiso
Mn3 Mn 0.61341(2) 0.47063(2) -0.02612(5) 0.0447 Uani
O9 O 0.65079(9) 0.49096(10) -0.0632(2) 0.0567 Uani
O10 O 0.61583(8) 0.55294(9) 0.1149(2) 0.0500 Uani
O11 O 0.57384(9) 0.45515(9) 0.0234(2) 0.0510 Uani
N8 N 0.60647(10) 0.50626(10) 0.0459(2) 0.0417 Uani
N9 N 0.57728(11) 0.50364(11) 0.0882(3) 0.0477 Uani
N10 N 0.30951(12) 0.39233(12) 0.6902(3) 0.0550 Uani
C33 C 0.66838(14) 0.51590(14) -0.0341(3) 0.0490 Uani
C34 C 0.69869(15) 0.52254(16) -0.0655(3) 0.0607 Uani
H39 H 0.7063 0.5094 -0.1071 0.0730 Uiso
C35 C 0.71827(16) 0.54734(17) -0.0391(4) 0.0660 Uani
H40 H 0.7393 0.5509 -0.0617 0.0790 Uiso
C36 C 0.70771(15) 0.56757(16) 0.0210(3) 0.0590 Uani
H41 H 0.7212 0.5849 0.0399 0.0710 Uiso
C37 C 0.67764(14) 0.56169(14) 0.0514(3) 0.0500 Uani
H42 H 0.6702 0.5756 0.0918 0.0600 Uiso
C38 C 0.65678(12) 0.53633(13) 0.0269(3) 0.0410 Uani
C39 C 0.62536(12) 0.53166(13) 0.0642(3) 0.0410 Uani
C40 C 0.56233(13) 0.47625(14) 0.0731(3) 0.0503 Uani
C41 C 0.53178(19) 0.4667(2) 0.1155(5) 0.1037 Uani
H43 H 0.5221 0.4863 0.1407 0.1240 Uiso
H44 H 0.5153 0.4576 0.0794 0.1240 Uiso
C42 C 0.5417(3) 0.4385(3) 0.1815(6) 0.1363 Uani
H45 H 0.5633 0.4437 0.2033 0.2050 Uiso
H46 H 0.5251 0.4386 0.2225 0.2050 Uiso
H47 H 0.5424 0.4167 0.1575 0.2050 Uiso
C43 C 0.33063(16) 0.41481(17) 0.7112(4) 0.0660 Uani
H48 H 0.3313 0.4207 0.7639 0.0790 Uiso
C44 C 0.3520(2) 0.43050(19) 0.6617(4) 0.0893 Uani
H49 H 0.3672 0.4464 0.6805 0.1070 Uiso
C45 C 0.3508(2) 0.4228(2) 0.5835(4) 0.0920 Uani
C46 C 0.3275(2) 0.4002(2) 0.5629(4) 0.0953 Uani
H50 H 0.3252 0.3946 0.5103 0.1140 Uiso
C47 C 0.30792(18) 0.38563(19) 0.6148(4) 0.0767 Uani
H51 H 0.2923 0.3699 0.5975 0.0920 Uiso
C48 C 0.3737(3) 0.4391(2) 0.5291(5) 0.1390 Uani
H52 H 0.3908 0.4508 0.5591 0.1670 Uiso
H53 H 0.3849 0.4219 0.4986 0.1670 Uiso
O7H O 0.61570(9) 0.43253(9) -0.0982(2) 0.0500 Uani
N6H N 0.58070(11) 0.48468(11) -0.1253(3) 0.0487 Uani
Mn3H Mn 0.38659(2) 0.52937(2) 0.02612(5) 0.0447 Uani
Mn3L Mn 0.27937(2) 0.36341(2) 0.77612(5) 0.0447 Uani
N10I N 0.64233(12) 0.44049(12) 0.0598(3) 0.0550 Uani
O1 O 0.3398(17) 0.4094(11) 0.345(2) 1.5633 Uani
N1 N 0.3474(3) 0.4188(4) 0.2219(7) 0.1710 Uani
C1 C 0.3572(4) 0.3961(5) 0.296(2) 0.3520 Uani
H1 H 0.3718 0.3779 0.2994 0.4230 Uiso
C2 C 0.3327(10) 0.4437(7) 0.2540(14) 0.7233 Uani
H2 H 0.3122 0.4362 0.2781 1.0850 Uiso
H3 H 0.3276 0.4603 0.2149 1.0850 Uiso
H4 H 0.3471 0.4533 0.2931 1.0850 Uiso
C3 C 0.3462(4) 0.4062(4) 0.1455(10) 0.2190 Uani
H5 H 0.3685 0.4003 0.1289 0.3280 Uiso
H6 H 0.3373 0.4231 0.1111 0.3280 Uiso
H7 H 0.3321 0.3867 0.1441 0.3280 Uiso
loop_
_atom_site_aniso_label
_atom_site_aniso_U_11
_atom_site_aniso_U_22
_atom_site_aniso_U_33
_atom_site_aniso_U_23
_atom_site_aniso_U_13
_atom_site_aniso_U_12
Mn1 0.0369(5) 0.0453(5) 0.0571(5) -0.0059(4) -0.0067(4) -0.0010(4)
O2 0.046(2) 0.069(3) 0.085(3) 0.006(3) -0.005(2) 0.003(2)
O3 0.045(2) 0.092(3) 0.039(2) 0.009(2) -0.0003(18) -0.006(2)
O4 0.034(2) 0.046(2) 0.056(2) 0.0036(18) -0.0002(17) -0.0018(16)
N2 0.038(3) 0.051(3) 0.043(3) 0.003(2) -0.008(2) -0.007(2)
N3 0.042(3) 0.048(3) 0.033(2) 0.002(2) -0.004(2) 0.006(2)
O5 0.055(3) 0.050(3) 0.103(4) -0.030(2) -0.006(2) -0.003(2)
C4 0.066(5) 0.060(4) 0.078(5) 0.009(4) -0.020(4) -0.005(3)
C5 0.078(6) 0.105(7) 0.119(7) 0.033(6) -0.018(5) 0.002(5)
C6 0.115(9) 0.133(9) 0.127(9) 0.060(7) -0.036(7) 0.012(7)
C7 0.130(9) 0.125(8) 0.092(7) 0.039(6) -0.022(7) 0.006(7)
C8 0.100(6) 0.125(7) 0.075(5) 0.028(5) -0.024(5) -0.019(6)
C9 0.062(4) 0.068(4) 0.050(4) 0.009(3) -0.016(3) -0.012(3)
C10 0.064(4) 0.056(4) 0.036(3) -0.006(3) -0.015(3) -0.009(3)
C11 0.033(3) 0.040(3) 0.047(3) -0.009(2) -0.004(2) -0.001(2)
C12 0.041(3) 0.065(4) 0.055(4) 0.011(3) -0.007(3) -0.001(3)
C13 0.141(10) 0.161(11) 0.40(2) 0.182(14) -0.148(13) -0.057(9)
N4 0.61(4) 0.079(7) 0.338(19) 0.084(11) 0.36(2) 0.095(14)
C14 0.209(18) 0.31(2) 1.31(9) -0.60(4) 0.38(3) -0.182(17)
C15 0.267(17) 0.37(2) 0.205(14) -0.215(16) -0.195(14) 0.257(18)
C16 0.59(5) 0.19(2) 0.65(5) -0.15(3) 0.35(4) -0.24(3)
Mn2 0.0411(5) 0.0684(6) 0.0374(5) -0.0013(4) -0.0008(4) -0.0007(4)
O6 0.054(3) 0.086(3) 0.056(3) -0.030(2) -0.011(2) 0.018(2)
O7 0.049(2) 0.047(2) 0.054(2) -0.0121(18) -0.0096(19) 0.0097(18)
O8 0.049(2) 0.059(3) 0.053(2) 0.009(2) -0.0062(19) 0.0016(19)
N5 0.041(3) 0.053(3) 0.038(2) -0.007(2) -0.002(2) 0.003(2)
N6 0.044(3) 0.046(3) 0.056(3) -0.005(2) -0.008(2) 0.013(2)
N7 0.049(4) 0.130(6) 0.059(4) 0.026(4) 0.002(3) -0.018(4)
C17 0.050(4) 0.065(4) 0.058(4) -0.022(3) 0.004(3) -0.003(3)
C18 0.061(5) 0.114(6) 0.073(5) -0.050(5) -0.012(4) 0.004(4)
C19 0.073(5) 0.077(5) 0.089(5) -0.047(4) -0.020(4) 0.011(4)
C20 0.070(5) 0.054(4) 0.098(5) -0.020(4) -0.009(4) 0.007(3)
C21 0.045(3) 0.053(4) 0.060(4) -0.007(3) -0.005(3) 0.000(3)
C22 0.037(3) 0.060(4) 0.045(3) -0.007(3) 0.002(2) -0.007(3)
C23 0.040(3) 0.054(4) 0.043(3) -0.005(3) -0.005(3) -0.010(3)
C24 0.048(4) 0.051(4) 0.059(4) -0.001(3) -0.001(3) -0.003(3)
C25 0.072(5) 0.052(4) 0.096(5) -0.008(4) -0.036(4) 0.008(3)
C26 0.280(17) 0.067(6) 0.232(14) 0.019(8) -0.133(13) -0.046(8)
C27 0.091(7) 0.166(10) 0.100(7) 0.061(7) 0.004(5) -0.016(7)
C28 0.118(9) 0.189(12) 0.133(9) 0.081(9) 0.012(7) -0.011(8)
C29 0.061(6) 0.243(14) 0.098(7) 0.099(8) 0.006(5) -0.005(7)
C30 0.072(6) 0.254(14) 0.100(7) 0.104(9) -0.012(5) -0.007(7)
C31 0.052(5) 0.219(11) 0.076(5) 0.066(6) 0.002(4) -0.015(6)
C32 0.110(8) 0.278(17) 0.160(10) 0.144(12) -0.020(8) -0.075(10)
Mn3 0.0412 0.0455 0.0473 -0.0076 -0.0074 0.0022
O9 0.051 0.062 0.057 -0.015 -0.0041 -0.005
O10 0.037 0.048 0.065 -0.015 -0.0028 -0.0028
O11 0.047 0.042 0.064 -0.0068 -0.0023 -0.0002
N8 0.034 0.045 0.046 -0.003 0.002 -0.002
N9 0.037 0.045 0.061 -0.014 -0.003 -0.002
N10 0.06 0.062 0.043 0.006 -0.012 -0.024
C33 0.043 0.055 0.049 -0.004 -0.011 -0.001
C34 0.057 0.074 0.051 -0.017 0.006 -0.011
C35 0.052 0.084 0.062 -0.011 0.006 -0.022
C36 0.05 0.072 0.055 -0.012 0.001 -0.018
C37 0.056 0.047 0.047 -0.007 -0.004 0.001
C38 0.034 0.049 0.04 -0.004 -0.009 -0.003
C39 0.033 0.043 0.047 0.004 -0.011 0.001
C40 0.033 0.05 0.068 -0.017 0.007 -0.003
C41 0.074 0.084 0.153 -0.049 0.041 -0.034
C42 0.131 0.123 0.155 0.042 0.055 -0.032
C43 0.08 0.067 0.051 0.016 -0.017 -0.016
C44 0.082 0.115 0.071 0.036 -0.026 -0.041
C45 0.087 0.129 0.06 0.034 -0.013 -0.052
C46 0.113 0.112 0.061 0.014 -0.001 -0.052
C47 0.093 0.082 0.055 0.011 -0.008 -0.042
C48 0.112 0.231 0.074 0.034 -0.012 -0.079
O7H 0.049 0.047 0.054 -0.0121 -0.0096 0.0097
N6H 0.044 0.046 0.056 -0.005 -0.008 0.013
Mn3H 0.0412(5) 0.0455(5) 0.0473(5) -0.0076(4) -0.0074(4) 0.0022(4)
Mn3L 0.0455 0.0412 0.0473 0.0074 -0.0076 -0.0022
N10I 0.062 0.06 0.043 -0.012 -0.006 0.024
O1 1.92(19) 0.97(11) 1.8(2) 0.57(13) 0.94(17) -0.527
N1 0.174(10) 0.200(12) 0.139(9) 0.001(9) -0.034(8) -0.016(9)
C1 0.136(13) 0.24(2) 0.68(5) 0.25(3) -0.01(2) -0.065(13)
C2 1.26(10) 0.54(5) 0.37(3) -0.35(3) -0.58(5) 0.75(6)
C3 0.27(2) 0.165(14) 0.222(17) -0.028(13) -0.099(16) 0.025(13)
loop_
_geom_bond_atom_site_label_1
_geom_bond_atom_site_label_2
_geom_bond_site_symmetry_1
_geom_bond_site_symmetry_2
O1 C1 1_555 1_555
N1 C1 1_555 1_555
C1 H1 1_555 1_555
C2 N1 1_555 1_555
H2 C2 1_555 1_555
H3 C2 1_555 1_555
H4 C2 1_555 1_555
C3 N1 1_555 1_555
H5 C3 1_555 1_555
H6 C3 1_555 1_555
H7 C3 1_555 1_555
Mn1 O2 1_555 1_555
O2 C4 1_555 1_555
O3 C10 1_555 1_555
O4 Mn1 1_555 1_555
N2 Mn1 1_555 1_555
N3 N2 1_555 1_555
O5 Mn1 1_555 1_555
C4 C5 1_555 1_555
C5 H8 1_555 1_555
C6 C5 1_555 1_555
H9 C6 1_555 1_555
C7 C6 1_555 1_555
H10 C7 1_555 1_555
C8 C7 1_555 1_555
H11 C8 1_555 1_555
C9 C4 1_555 1_555
C10 N2 1_555 1_555
C11 O4 1_555 1_555
C12 C11 1_555 1_555
H12 C12 1_555 1_555
H13 C12 1_555 1_555
C13 C12 1_555 1_555
H14 C13 1_555 1_555
H15 C13 1_555 1_555
H16 C13 1_555 1_555
N4 C14 1_555 1_555
C14 O5 1_555 1_555
H17 C14 1_555 1_555
C15 N4 1_555 1_555
H18 C15 1_555 1_555
H19 C15 1_555 1_555
H20 C15 1_555 1_555
C16 N4 1_555 1_555
H21 C16 1_555 1_555
H22 C16 1_555 1_555
H23 C16 1_555 1_555
Mn2 O3 1_555 1_555
O6 Mn2 1_555 1_555
O7 C23 1_555 1_555
O8 Mn2 1_555 1_555
N5 Mn2 1_555 1_555
N6 N5 1_555 1_555
N7 Mn2 1_555 1_555
C17 O6 1_555 1_555
C18 C17 1_555 1_555
H24 C18 1_555 1_555
C19 C18 1_555 1_555
H25 C19 1_555 1_555
C20 C19 1_555 1_555
H26 C20 1_555 1_555
C21 C20 1_555 1_555
H27 C21 1_555 1_555
C22 C17 1_555 1_555
C23 N5 1_555 1_555
C24 O8 1_555 1_555
C25 C24 1_555 1_555
H28 C25 1_555 1_555
H29 C25 1_555 1_555
C26 C25 1_555 1_555
H30 C26 1_555 1_555
H31 C26 1_555 1_555
H32 C26 1_555 1_555
C27 N7 1_555 1_555
H33 C27 1_555 1_555
C28 C27 1_555 1_555
H34 C28 1_555 1_555
C29 C28 1_555 1_555
C30 C29 1_555 1_555
H35 C30 1_555 1_555
C31 N7 1_555 1_555
H36 C31 1_555 1_555
C32 C29 1_555 1_555
H37 C32 1_555 1_555
H38 C32 1_555 1_555
Mn3 O9 1_555 1_555
O9 C33 1_555 1_555
O10 Mn1 1_555 1_555
O11 Mn3 1_555 1_555
N8 Mn3 1_555 1_555
N9 Mn1 1_555 1_555
N10 C43 1_555 1_555
C33 C34 1_555 1_555
C34 H39 1_555 1_555
C35 C34 1_555 1_555
H40 C35 1_555 1_555
C36 C35 1_555 1_555
H41 C36 1_555 1_555
C37 C36 1_555 1_555
H42 C37 1_555 1_555
C38 C33 1_555 1_555
C39 O10 1_555 1_555
C40 O11 1_555 1_555
C41 C40 1_555 1_555
H43 C41 1_555 1_555
H44 C41 1_555 1_555
C42 C41 1_555 1_555
H45 C42 1_555 1_555
H46 C42 1_555 1_555
H47 C42 1_555 1_555
C43 H48 1_555 1_555
C44 C43 1_555 1_555
H49 C44 1_555 1_555
C45 C44 1_555 1_555
C46 C45 1_555 1_555
H50 C46 1_555 1_555
C47 N10 1_555 1_555
H51 C47 1_555 1_555
C48 C32 1_555 1_555
H52 C48 1_555 1_555
H53 C48 1_555 1_555
O7H Mn3 1_555 1_555
N6H Mn3 1_555 1_555
Mn3H O7 1_555 1_555
Mn3L N10 1_555 1_555
N10I Mn3 1_555 1_555
N3 C11 1_555 1_555
N3 Mn2 1_555 1_555
C8 C9 1_555 1_555
C9 C10 1_555 1_555
N6 C24 1_555 1_555
N6 Mn3H 1_555 1_555
C21 C22 1_555 1_555
C22 C23 1_555 1_555
C30 C31 1_555 1_555
N8 N9 1_555 1_555
N8 C39 1_555 1_555
N9 C40 1_555 1_555
C37 C38 1_555 1_555
C38 C39 1_555 1_555
C45 C48 1_555 1_555
C46 C47 1_555 1_555

#END
