
#######################################################################
#
#                 Cambridge Crystallographic Data Centre
#                                CCDC 
#
#######################################################################
#
# If this CIF has been generated from an entry in the Cambridge 
# Structural Database, then it will include bibliographic, chemical, 
# crystal, experimental, refinement or atomic coordinate data resulting 
# from the CCDC's data processing and validation procedures.
#
#######################################################################

data_XALDOE
_chemical_formula_moiety         '(C54 H64 Mn3 N9 O10)n'
_symmetry_cell_setting           tetragonal
_symmetry_space_group_name_H-M   'I 41/a'
_symmetry_Int_Tables_number      88
_space_group_name_Hall           '-I 4ad'
loop_
_symmetry_equiv_pos_site_id
_symmetry_equiv_pos_as_xyz
1 x,y,z
2 3/4-y,1/4+x,1/4+z
3 1/2+x,1/2+y,1/2+z
4 1/4-y,3/4+x,3/4+z
5 1/4+y,1/4-x,1/4+z
6 1/2-x,-y,1/2+z
7 3/4+y,3/4-x,3/4+z
8 -x,1/2-y,z
9 -x,-y,-z
10 1/4+y,3/4-x,3/4-z
11 1/2-x,1/2-y,1/2-z
12 3/4+y,1/4-x,1/4-z
13 3/4-y,3/4+x,3/4-z
14 1/2+x,y,1/2-z
15 1/4-y,1/4+x,1/4-z
16 x,1/2+y,-z
_cell_length_a                   40.873(2)
_cell_length_b                   40.873(2)
_cell_length_c                   17.4993(13)
_cell_angle_alpha                90
_cell_angle_beta                 90
_cell_angle_gamma                90
_cell_volume                     29234.4
loop_
_atom_site_label
_atom_site_type_symbol
_atom_site_fract_x
_atom_site_fract_y
_atom_site_fract_z
Mn1 Mn 1.075986(11) 0.041325(12) 0.18867(3)
O1 O 1.09292(5) 0.01468(6) 0.26578(15)
O2 O 0.99197(5) 0.02572(6) 0.31698(12)
O3 O 1.05152(5) 0.06749(5) 0.11606(13)
O4 O 1.08748(6) 0.08696(6) 0.25551(15)
N1 N 1.03246(6) 0.03722(6) 0.23232(15)
N2 N 1.00740(6) 0.05225(6) 0.18813(15)
N3 N 1.09764(9) 0.14113(8) 0.2645(2)
C1 C 1.07836(9) 0.00218(8) 0.3276(2)
C2 C 1.09760(10) -0.01762(9) 0.3765(3)
H1 H 1.1197 -0.0222 0.3636
C3 C 1.08460(12) -0.03011(11) 0.4421(3)
H2 H 1.0980 -0.0431 0.4744
C4 C 1.05236(12) -0.02434(11) 0.4629(3)
H3 H 1.0439 -0.0326 0.5096
C5 C 1.03305(10) -0.00636(9) 0.4143(2)
H4 H 1.0108 -0.0029 0.4272
C6 C 1.04501(8) 0.00684(8) 0.3470(2)
C7 C 1.02202(8) 0.02408(8) 0.29709(19)
C8 C 1.01993(8) 0.06690(8) 0.12897(19)
C9 C 0.99782(8) 0.08366(9) 0.0728(2)
H5 H 0.9748 0.0808 0.0893
H6 H 1.0003 0.0732 0.0221
C10 C 1.00516(9) 0.12009(10) 0.0656(3)
H7 H 1.0284 0.1229 0.0514
H8 H 0.9917 0.1293 0.0239
C11 C 0.99845(12) 0.13903(10) 0.1387(3)
H9 H 0.9754 0.1355 0.1536
H10 H 1.0124 0.1301 0.1799
C12 C 1.00465(14) 0.17548(12) 0.1320(5)
H11 H 0.9904 0.1846 0.0916
H12 H 1.0276 0.1791 0.1163
C13 C 0.99829(19) 0.19394(14) 0.2067(5)
H13 H 1.0117 0.1845 0.2475
H14 H 0.9751 0.1921 0.2202
H15 H 1.0040 0.2170 0.2000
C14 C 1.08704(10) 0.11411(10) 0.2293(3)
H16 H 1.0784 0.1166 0.1792
C15 C 1.11192(14) 0.14101(13) 0.3371(4)
H17 H 1.1005 0.1567 0.3700
H18 H 1.1350 0.1472 0.3329
H19 H 1.1102 0.1191 0.3593
C16 C 1.09768(16) 0.17228(11) 0.2254(4)
H20 H 1.1184 0.1836 0.2354
H21 H 1.0795 0.1857 0.2441
H22 H 1.0952 0.1687 0.1704
Mn2 Mn 0.958592(11) 0.038331(12) 0.23989(3)
O5 O 0.94947(5) 0.07987(5) 0.27784(14)
O6 O 0.88443(5) 0.06672(5) 0.09100(13)
O7 O 0.96239(5) -0.00316(5) 0.18821(12)
N4 N 0.92515(6) 0.04403(6) 0.16145(14)
N5 N 0.92168(6) 0.01636(6) 0.11300(15)
N6 N 0.92351(7) 0.01249(8) 0.32165(17)
C17 C 0.92603(8) 0.10103(8) 0.2592(2)
C18 C 0.92363(9) 0.12938(9) 0.3034(2)
H23 H 0.9386 0.1328 0.3441
C19 C 0.89990(10) 0.15243(10) 0.2889(3)
H24 H 0.8988 0.1717 0.3191
C20 C 0.87778(9) 0.14772(9) 0.2310(3)
H25 H 0.8608 0.1632 0.2224
C21 C 0.88028(8) 0.12049(8) 0.1855(2)
H26 H 0.8654 0.1178 0.1444
C22 C 0.90401(8) 0.09672(8) 0.1979(2)
C23 C 0.90460(7) 0.06810(7) 0.14707(19)
C24 C 0.94181(8) -0.00656(8) 0.13223(19)
C25 C 0.94088(9) -0.03912(8) 0.0924(2)
H27 H 0.9634 -0.0455 0.0775
H28 H 0.9276 -0.0373 0.0453
C26 C 0.92625(12) -0.06545(9) 0.1441(3)
H29 H 0.9295 -0.0871 0.1201
H30 H 0.9380 -0.0654 0.1935
C27 C 0.89002(12) -0.06030(11) 0.1587(3)
H31 H 0.8785 -0.0598 0.1091
H32 H 0.8870 -0.0387 0.1834
C28 C 0.87422(15) -0.08672(13) 0.2094(4)
H33 H 0.8769 -0.1083 0.1843
H34 H 0.8860 -0.0875 0.2588
C29 C 0.83934(16) -0.08121(19) 0.2243(5)
H35 H 0.8362 -0.0589 0.2436
H36 H 0.8316 -0.0970 0.2624
H37 H 0.8270 -0.0840 0.1768
C30 C 0.93133(11) -0.01810(11) 0.3422(2)
H38 H 0.9521 -0.0265 0.3282
C31 C 0.91012(12) -0.03783(12) 0.3832(3)
H39 H 0.9164 -0.0594 0.3968
C32 C 0.87996(11) -0.02618(15) 0.4041(3)
C33 C 0.87292(10) 0.00545(14) 0.3836(3)
H40 H 0.8527 0.0149 0.3985
C34 C 0.89485(9) 0.02351(11) 0.3419(2)
H41 H 0.8889 0.0451 0.3270
C35 C 0.85716(12) -0.04728(18) 0.4507(4)
H42 H 0.8345 -0.0390 0.4447
H43 H 0.8578 -0.0699 0.4305
Mn3 Mn 1.113020(12) -0.029520(11) -0.01862(3)
O8 O 1.14847(5) -0.00739(5) -0.05899(13)
O9 O 1.11787(5) 0.04792(5) 0.13472(14)
O10 O 1.07554(5) -0.04712(5) 0.03472(13)
N7 N 1.10625(6) 0.00500(6) 0.05589(16)
N8 N 1.07815(6) 0.00056(6) 0.10246(16)
N9 N 0.80770(7) -0.10450(6) 0.68469(17)
C36 C 1.16556(8) 0.01702(8) -0.0287(2)
C37 C 1.19533(9) 0.02491(9) -0.0637(2)
H44 H 1.2021 0.0130 -0.1076
C38 C 1.21517(9) 0.04972(9) -0.0356(2)
H45 H 1.2353 0.0545 -0.0603
C39 C 1.20598(8) 0.06751(8) 0.0276(2)
H46 H 1.2196 0.0845 0.0469
C40 C 1.17682(8) 0.06025(8) 0.0622(2)
H47 H 1.1704 0.0727 0.1055
C41 C 1.15605(7) 0.03521(8) 0.03633(19)
C42 C 1.12531(7) 0.02945(8) 0.0773(2)
C43 C 1.06423(8) -0.02739(8) 0.0862(2)
C44 C 1.03526(9) -0.03853(9) 0.1319(2)
H48 H 1.0255 -0.0196 0.1587
H49 H 1.0185 -0.0477 0.0971
C45 C 1.04554(12) -0.06528(13) 0.1922(3)
H50 H 1.0545 -0.0847 0.1655
H51 H 1.0628 -0.0564 0.2261
C46 C 1.01480(16) -0.0756(2) 0.2412(5)
H52 H 1.0001 -0.0889 0.2087
H53 H 1.0027 -0.0556 0.2560
C47 C 1.0219(3) -0.0931(3) 0.3064(7)
H54 H 1.0326 -0.1141 0.2926
H55 H 1.0371 -0.0805 0.3391
C48 C 0.9877(3) -0.1002(3) 0.3526(7)
H56 H 0.9690 -0.0956 0.3190
H57 H 0.9870 -0.1232 0.3685
H58 H 0.9865 -0.0861 0.3978
C49 C 0.82814(9) -0.08135(9) 0.7078(2)
H59 H 0.8302 -0.0774 0.7611
C50 C 0.84655(10) -0.06271(10) 0.6583(2)
H60 H 0.8605 -0.0460 0.6772
C51 C 0.84454(12) -0.06864(11) 0.5810(2)
C52 C 0.82296(11) -0.09259(11) 0.5569(2)
H61 H 0.8203 -0.0970 0.5040
C53 C 0.80552(10) -0.10988(9) 0.6099(2)
H62 H 0.7911 -0.1265 0.5925
C54 C 0.86476(17) -0.04788(15) 0.5254(3)
H63 H 0.8641 -0.0250 0.5440
H64 H 0.8878 -0.0552 0.5295
O6H O 1.11557(5) -0.06672(5) -0.09100(13)
N5H N 1.07832(6) -0.01636(6) -0.11300(15)
Mn3H Mn 0.886980(12) 0.029520(11) 0.01862(3)
Mn3L Mn 0.779520(11) -0.136980(12) 0.76862(3)
N9I N 1.14550(6) -0.05770(7) 0.06531(17)
loop_
_geom_bond_atom_site_label_1
_geom_bond_atom_site_label_2
_geom_bond_site_symmetry_1
_geom_bond_site_symmetry_2
Mn1 O1 1_555 1_555
O1 C1 1_555 1_555
O2 C7 1_555 1_555
O3 Mn1 1_555 1_555
O4 Mn1 1_555 1_555
N1 Mn1 1_555 1_555
N2 N1 1_555 1_555
N3 C14 1_555 1_555
C1 C2 1_555 1_555
C2 H1 1_555 1_555
C3 C2 1_555 1_555
H2 C3 1_555 1_555
C4 C3 1_555 1_555
H3 C4 1_555 1_555
C5 C4 1_555 1_555
H4 C5 1_555 1_555
C6 C1 1_555 1_555
C7 N1 1_555 1_555
C8 O3 1_555 1_555
C9 C8 1_555 1_555
H5 C9 1_555 1_555
H6 C9 1_555 1_555
C10 C9 1_555 1_555
H7 C10 1_555 1_555
H8 C10 1_555 1_555
C11 C10 1_555 1_555
H9 C11 1_555 1_555
H10 C11 1_555 1_555
C12 C11 1_555 1_555
H11 C12 1_555 1_555
H12 C12 1_555 1_555
C13 C12 1_555 1_555
H13 C13 1_555 1_555
H14 C13 1_555 1_555
H15 C13 1_555 1_555
C14 O4 1_555 1_555
H16 C14 1_555 1_555
C15 N3 1_555 1_555
H17 C15 1_555 1_555
H18 C15 1_555 1_555
H19 C15 1_555 1_555
C16 N3 1_555 1_555
H20 C16 1_555 1_555
H21 C16 1_555 1_555
H22 C16 1_555 1_555
Mn2 O2 1_555 1_555
O5 Mn2 1_555 1_555
O6 C23 1_555 1_555
O7 Mn2 1_555 1_555
N4 Mn2 1_555 1_555
N5 N4 1_555 1_555
N6 Mn2 1_555 1_555
C17 O5 1_555 1_555
C18 C17 1_555 1_555
H23 C18 1_555 1_555
C19 C18 1_555 1_555
H24 C19 1_555 1_555
C20 C19 1_555 1_555
H25 C20 1_555 1_555
C21 C20 1_555 1_555
H26 C21 1_555 1_555
C22 C17 1_555 1_555
C23 N4 1_555 1_555
C24 O7 1_555 1_555
C25 C24 1_555 1_555
H27 C25 1_555 1_555
H28 C25 1_555 1_555
C26 C25 1_555 1_555
H29 C26 1_555 1_555
H30 C26 1_555 1_555
C27 C26 1_555 1_555
H31 C27 1_555 1_555
H32 C27 1_555 1_555
C28 C27 1_555 1_555
H33 C28 1_555 1_555
H34 C28 1_555 1_555
C29 C28 1_555 1_555
H35 C29 1_555 1_555
H36 C29 1_555 1_555
H37 C29 1_555 1_555
C30 N6 1_555 1_555
H38 C30 1_555 1_555
C31 C30 1_555 1_555
H39 C31 1_555 1_555
C32 C31 1_555 1_555
C33 C32 1_555 1_555
H40 C33 1_555 1_555
C34 N6 1_555 1_555
H41 C34 1_555 1_555
C35 C32 1_555 1_555
H42 C35 1_555 1_555
H43 C35 1_555 1_555
Mn3 O8 1_555 1_555
O8 C36 1_555 1_555
O9 Mn1 1_555 1_555
O10 Mn3 1_555 1_555
N7 Mn3 1_555 1_555
N8 Mn1 1_555 1_555
N9 C49 1_555 1_555
C36 C37 1_555 1_555
C37 H44 1_555 1_555
C38 C37 1_555 1_555
H45 C38 1_555 1_555
C39 C38 1_555 1_555
H46 C39 1_555 1_555
C40 C39 1_555 1_555
H47 C40 1_555 1_555
C41 C36 1_555 1_555
C42 O9 1_555 1_555
C43 O10 1_555 1_555
C44 C43 1_555 1_555
H48 C44 1_555 1_555
H49 C44 1_555 1_555
C45 C44 1_555 1_555
H50 C45 1_555 1_555
H51 C45 1_555 1_555
C46 C45 1_555 1_555
H52 C46 1_555 1_555
H53 C46 1_555 1_555
C47 C46 1_555 1_555
H54 C47 1_555 1_555
H55 C47 1_555 1_555
C48 C47 1_555 1_555
H56 C48 1_555 1_555
H57 C48 1_555 1_555
H58 C48 1_555 1_555
C49 H59 1_555 1_555
C50 C49 1_555 1_555
H60 C50 1_555 1_555
C51 C50 1_555 1_555
C52 C51 1_555 1_555
H61 C52 1_555 1_555
C53 N9 1_555 1_555
H62 C53 1_555 1_555
C54 C35 1_555 1_555
H63 C54 1_555 1_555
H64 C54 1_555 1_555
O6H Mn3 1_555 1_555
N5H Mn3 1_555 1_555
Mn3H O6 1_555 1_555
Mn3L N9 1_555 1_555
N9I Mn3 1_555 1_555
N2 C8 1_555 1_555
N2 Mn2 1_555 1_555
C5 C6 1_555 1_555
C6 C7 1_555 1_555
N5 C24 1_555 1_555
N5 Mn3H 1_555 1_555
C21 C22 1_555 1_555
C22 C23 1_555 1_555
C33 C34 1_555 1_555
N7 N8 1_555 1_555
N7 C42 1_555 1_555
N8 C43 1_555 1_555
C40 C41 1_555 1_555
C41 C42 1_555 1_555
C51 C54 1_555 1_555
C52 C53 1_555 1_555

#END
