
#######################################################################
#
#                 Cambridge Crystallographic Data Centre
#                                CCDC 
#
#######################################################################
#
# If this CIF has been generated from an entry in the Cambridge 
# Structural Database, then it will include bibliographic, chemical, 
# crystal, experimental, refinement or atomic coordinate data resulting 
# from the CCDC's data processing and validation procedures.
#
#######################################################################

data_AVIPAX
_chemical_formula_moiety         '(C33 H37 Mg3 N7 O16)n'
_symmetry_cell_setting           monoclinic
_symmetry_space_group_name_H-M   'P 21/n'
_symmetry_Int_Tables_number      14
_space_group_name_Hall           '-P 2yn'
loop_
_symmetry_equiv_pos_site_id
_symmetry_equiv_pos_as_xyz
1 x,y,z
2 1/2-x,1/2+y,1/2-z
3 -x,-y,-z
4 1/2+x,1/2-y,1/2+z
_cell_length_a                   12.3475(5)
_cell_length_b                   11.1929(5)
_cell_length_c                   28.6734(12)
_cell_angle_alpha                90
_cell_angle_beta                 98.8160(10)
_cell_angle_gamma                90
_cell_volume                     3915.97
loop_
_atom_site_label
_atom_site_type_symbol
_atom_site_fract_x
_atom_site_fract_y
_atom_site_fract_z
Mg1 Mg 0.66293(6) 0.82673(7) 0.14012(3)
Mg2 Mg 0.44659(6) 0.54225(6) 0.16609(3)
Mg3 Mg 0.72740(6) 0.71020(7) -0.14158(3)
O1 O 0.39265(14) 0.70799(14) 0.14558(6)
O2 O 0.49453(13) 0.85775(14) 0.12365(5)
O3 O 0.54812(14) 0.52361(14) 0.11683(6)
O4 O 0.65758(14) 0.67299(14) 0.10110(6)
O5 O 0.55203(14) 0.60559(14) 0.22266(6)
O6 O 0.64460(14) 0.76539(15) 0.20420(6)
O7 O 0.68317(13) 0.53789(14) -0.11406(5)
O8 O 0.73479(14) 0.68961(15) -0.06698(6)
O9 O 1.06798(13) 0.74105(14) 0.35745(6)
O10 O 0.98501(14) 0.88070(14) 0.30923(6)
O11 O 0.22804(14) 0.84307(14) 0.29175(6)
O12 O 0.16794(14) 1.03199(14) 0.28969(6)
O13 O 0.68234(14) 0.91415(15) 0.07831(6)
O14 O 0.83315(15) 0.79330(16) 0.15837(6)
O15 O 0.89520(15) 0.70092(18) -0.13045(7)
N1 N 0.80950(17) 0.50816(17) 0.32600(7)
N2 N 0.26259(16) 1.09787(16) 0.16220(7)
N3 N 0.61120(18) 0.33321(18) 0.00050(7)
N4 N 0.62942(18) 0.9186(2) -0.00106(8)
C1 C 0.7261(2) 0.5393(2) 0.29238(8)
H1 H 0.6680 0.4840 0.2841
C2 C 0.7211(2) 0.6494(2) 0.26909(8)
C3 C 0.8056(2) 0.7303(2) 0.28153(8)
H2 H 0.8044 0.8059 0.2664
C4 C 0.89222(19) 0.69959(19) 0.31642(8)
C5 C 0.8901(2) 0.5881(2) 0.33745(8)
H3 H 0.9492 0.5673 0.3613
C6 C 0.63086(19) 0.6756(2) 0.22871(8)
C7 C 0.41756(18) 0.81564(19) 0.14263(7)
C8 C 0.60904(18) 0.5754(2) 0.09238(8)
C9 C 0.69740(19) 0.5854(2) -0.07310(8)
C10 C 0.66880(18) 0.5163(2) -0.03154(8)
C11 C 0.66321(18) 0.5750(2) 0.01072(8)
H4 H 0.6844 0.6564 0.0146
C12 C 0.62641(18) 0.5135(2) 0.04725(8)
C13 C 0.6011(2) 0.3929(2) 0.04010(8)
H5 H 0.5751 0.3504 0.0648
C14 C 0.64290(19) 0.3955(2) -0.03474(8)
H6 H 0.6480 0.3551 -0.0635
C15 C 0.98875(19) 0.78154(19) 0.32890(8)
C16 C 0.21055(19) 0.94451(19) 0.27297(8)
C17 C 0.24769(18) 0.96232(19) 0.22575(8)
C18 C 0.32352(19) 1.01481(19) 0.14411(8)
H7 H 0.3524 1.0339 0.1162
C19 C 0.34630(18) 0.90338(19) 0.16405(8)
C20 C 0.30681(19) 0.87577(19) 0.20555(8)
H8 H 0.3199 0.7995 0.2198
C21 C 0.22571(19) 1.0707(2) 0.20243(8)
H9 H 0.1825 1.1280 0.2157
C22 C 0.6186(2) 0.8865(2) 0.04247(9)
H10 H 0.548(2) 0.836(3) 0.0444(11)
C23 C 0.5492(2) 0.8836(2) -0.04080(9)
H11 H 0.464(3) 0.856(3) -0.0358(12)
H12 H 0.584(3) 0.824(3) -0.0594(12)
H13 H 0.527(3) 0.964(3) -0.0610(12)
C24 C 0.7221(3) 0.9891(5) -0.01061(13)
H14 H 0.693(4) 1.067(3) -0.0211(18)
H15 H 0.761(4) 0.955(5) -0.0381(18)
H16 H 0.784(4) 1.003(4) 0.0211(18)
C25 C 0.8583(6) 0.6903(7) 0.1734(2)
H17 H 0.8027 0.6309 0.1696
N5 N 0.9570(7) 0.6590(9) 0.1942(3)
C26 C 0.9783(6) 0.5394(6) 0.2141(2)
H18 H 1.0557 0.5327 0.2279
H19 H 0.9610 0.4796 0.1891
H20 H 0.9324 0.5257 0.2386
C27 C 1.0472(7) 0.7393(6) 0.2030(3)
H21 H 1.1121 0.6964 0.2184
H22 H 1.0295 0.8040 0.2236
H23 H 1.0620 0.7728 0.1731
C28 C 0.9684(5) 0.7685(6) -0.1127(2)
H24 H 0.9458 0.8470 -0.1061
N6 N 1.0740(8) 0.7466(15) -0.1015(6)
C29 C 1.1175(7) 0.6294(9) -0.1037(5)
H25 H 1.1973 0.6318 -0.0947
H26 H 1.0858 0.5770 -0.0819
H27 H 1.0993 0.5985 -0.1359
C30 C 1.1511(8) 0.8406(8) -0.0832(5)
H28 H 1.2256 0.8079 -0.0776
H29 H 1.1475 0.9058 -0.1062
H30 H 1.1320 0.8711 -0.0535
Mg1A Mg 0.83707(6) 0.32673(7) 0.35988(3)
Mg2B Mg 0.55341(6) 0.45775(6) -0.16609(3)
Mg2A Mg 1.05341(6) 1.04225(6) 0.33391(3)
Mg2A_2 Mg 0.05341(6) 1.04225(6) 0.33391(3)
Mg3C Mg 1.22740(6) 0.78980(7) 0.35842(3)
Mg3C_2 Mg 0.22740(6) 0.78980(7) 0.35842(3)
Mg3B Mg 0.27260(6) 1.28980(7) 0.14158(3)
O7B O 0.31683(13) 0.46211(14) 0.11406(5)
O9C O 0.56798(13) 0.75895(14) -0.14255(6)
O10A O 0.51499(14) 0.38070(14) 0.19077(6)
O11C O 0.72804(14) 0.65693(14) -0.20825(6)
O12A O 0.33206(14) 0.53199(14) 0.21031(6)
N1A N 0.69050(17) 1.00816(17) 0.17400(7)
N2B N 0.73741(16) 0.90213(16) -0.16220(7)
H32 H -0.0850 0.7609 0.0162
C34 C -0.0629(12) 0.8165(16) 0.0285(7)
H38 H -0.0400 0.8848 0.0491
H39 H -0.1368 0.7917 0.0329
C35 C 0.1103(12) 0.729(2) 0.0773(6)
H41 H 0.1120 0.8079 0.0920
H42 H 0.1766 0.7175 0.0629
H43 H 0.1070 0.6672 0.1014
N8 N 0.0119(9) 0.7192(10) 0.0403(5)
C36 C -0.0117(11) 0.6205(11) 0.0139(5)
H44 H -0.0713 0.6217 -0.0114
O17 O 0.0418(8) 0.5307(7) 0.0217(4)
loop_
_geom_bond_atom_site_label_1
_geom_bond_atom_site_label_2
_geom_bond_site_symmetry_1
_geom_bond_site_symmetry_2
Mg1 O2 1_555 1_555
Mg2 O1 1_555 1_555
Mg3 O7 1_555 1_555
O1 C7 1_555 1_555
O2 C7 1_555 1_555
O3 Mg2 1_555 1_555
O4 Mg1 1_555 1_555
O5 Mg2 1_555 1_555
O6 Mg1 1_555 1_555
O7 C9 1_555 1_555
O8 Mg3 1_555 1_555
O9 C15 1_555 1_555
O10 C15 1_555 1_555
O11 C16 1_555 1_555
O12 C16 1_555 1_555
O13 Mg1 1_555 1_555
O14 Mg1 1_555 1_555
O15 Mg3 1_555 1_555
N1 C1 1_555 1_555
N2 C18 1_555 1_555
N3 C13 1_555 1_555
N4 C22 1_555 1_555
C1 H1 1_555 1_555
C2 C1 1_555 1_555
C3 C2 1_555 1_555
H2 C3 1_555 1_555
C4 C3 1_555 1_555
C5 N1 1_555 1_555
H3 C5 1_555 1_555
C6 O5 1_555 1_555
C7 C19 1_555 1_555
C8 O3 1_555 1_555
C9 O8 1_555 1_555
C10 C9 1_555 1_555
C11 C10 1_555 1_555
H4 C11 1_555 1_555
C12 C8 1_555 1_555
C13 C12 1_555 1_555
H5 C13 1_555 1_555
C14 N3 1_555 1_555
H6 C14 1_555 1_555
C15 C4 1_555 1_555
C16 C17 1_555 1_555
C17 C20 1_555 1_555
C18 H7 1_555 1_555
C19 C18 1_555 1_555
C20 C19 1_555 1_555
H8 C20 1_555 1_555
C21 N2 1_555 1_555
H9 C21 1_555 1_555
C22 O13 1_555 1_555
H10 C22 1_555 1_555
C23 N4 1_555 1_555
H11 C23 1_555 1_555
H12 C23 1_555 1_555
H13 C23 1_555 1_555
C24 N4 1_555 1_555
H14 C24 1_555 1_555
H15 C24 1_555 1_555
H16 C24 1_555 1_555
C25 O14 1_555 1_555
H17 C25 1_555 1_555
N5 C25 1_555 1_555
C26 N5 1_555 1_555
H18 C26 1_555 1_555
H19 C26 1_555 1_555
H20 C26 1_555 1_555
C27 N5 1_555 1_555
H21 C27 1_555 1_555
H22 C27 1_555 1_555
H23 C27 1_555 1_555
C28 O15 1_555 1_555
H24 C28 1_555 1_555
N6 C28 1_555 1_555
C29 N6 1_555 1_555
H25 C29 1_555 1_555
H26 C29 1_555 1_555
H27 C29 1_555 1_555
C30 N6 1_555 1_555
H28 C30 1_555 1_555
H29 C30 1_555 1_555
H30 C30 1_555 1_555
H32 C34 1_555 1_555
C34 H38 1_555 1_555
H39 C34 1_555 1_555
C35 H41 1_555 1_555
H42 C35 1_555 1_555
H43 C35 1_555 1_555
N8 C34 1_555 1_555
C36 N8 1_555 1_555
H44 C36 1_555 1_555
O17 C36 1_555 1_555
Mg1A N1 1_555 1_555
Mg2B O7 1_555 1_555
Mg2A O10 1_555 1_555
Mg2A_2 O12 1_555 1_555
Mg3C O9 1_555 1_555
Mg3C_2 O11 1_555 1_555
Mg3B N2 1_555 1_555
O7B Mg2 1_555 1_555
O9C Mg3 1_555 1_555
O10A Mg2 1_555 1_555
O11C Mg3 1_555 1_555
O12A Mg2 1_555 1_555
N1A Mg1 1_555 1_555
N2B Mg3 1_555 1_555
O4 C8 1_555 1_555
O6 C6 1_555 1_555
C2 C6 1_555 1_555
C4 C5 1_555 1_555
C10 C14 1_555 1_555
C11 C12 1_555 1_555
C17 C21 1_555 1_555
C35 N8 1_555 1_555

#END
