
#######################################################################
#
#                 Cambridge Crystallographic Data Centre
#                                CCDC 
#
#######################################################################
#
# If this CIF has been generated from an entry in the Cambridge 
# Structural Database, then it will include bibliographic, chemical, 
# crystal, experimental, refinement or atomic coordinate data resulting 
# from the CCDC's data processing and validation procedures.
#
#######################################################################

data_CESFOW
_chemical_formula_moiety         'C26 H14 Cu8 O16'
_symmetry_cell_setting           rhombohedral
_symmetry_space_group_name_H-M   'R -3 m'
_symmetry_Int_Tables_number      166
_space_group_name_Hall           '-R 3 2"'
loop_
_symmetry_equiv_pos_site_id
_symmetry_equiv_pos_as_xyz
1 x,y,z
2 -y,x-y,z
3 -x+y,-x,z
4 y,x,-z
5 2/3+x,1/3+y,1/3+z
6 2/3-y,1/3+x-y,1/3+z
7 2/3-x+y,1/3-x,1/3+z
8 2/3+y,1/3+x,1/3-z
9 1/3+x,2/3+y,2/3+z
10 1/3+y,2/3+x,2/3-z
11 x-y,-y,-z
12 -x,-x+y,-z
13 1/3-y,2/3+x-y,2/3+z
14 1/3-x+y,2/3-x,2/3+z
15 1/3+x-y,2/3-y,2/3-z
16 1/3-x,2/3-x+y,2/3-z
17 2/3+x-y,1/3-y,1/3-z
18 2/3-x,1/3-x+y,1/3-z
19 -x,-y,-z
20 y,-x+y,-z
21 x-y,x,-z
22 -y,-x,z
23 1/3-x,2/3-y,2/3-z
24 1/3+y,2/3-x+y,2/3-z
25 1/3+x-y,2/3+x,2/3-z
26 1/3-y,2/3-x,2/3+z
27 2/3-x,1/3-y,1/3-z
28 2/3-y,1/3-x,1/3+z
29 -x+y,y,z
30 x,x-y,z
31 2/3+y,1/3-x+y,1/3-z
32 2/3+x-y,1/3+x,1/3-z
33 2/3-x+y,1/3+y,1/3+z
34 2/3+x,1/3+x-y,1/3+z
35 1/3-x+y,2/3+y,2/3+z
36 1/3+x,2/3+x-y,2/3+z
_cell_length_a                   18.6297(11)
_cell_length_b                   18.6297(11)
_cell_length_c                   38.492(2)
_cell_angle_alpha                90
_cell_angle_beta                 90
_cell_angle_gamma                120.00
_cell_volume                     11569.5
loop_
_atom_site_label
_atom_site_type_symbol
_atom_site_fract_x
_atom_site_fract_y
_atom_site_fract_z
Cu1 Cu 0.476462(7) 0.952924(14) 0.028352(6)
C1 C 0.3880(3) 1.2452(2) 0.15541(10)
H1 H 0.4246 1.3001 0.1476
C2 C 0.3644(3) 1.2318(2) 0.18953(10)
H2 H 0.3876 1.2771 0.2053
C3 C 0.35895(19) 1.17947(9) 0.13182(7)
C4 C 0.38770(17) 1.19385(9) 0.09522(7)
C5 C 0.40270(12) 1.13698(11) 0.07782(4)
H3 H 0.3929 1.0878 0.0893
C6 C 0.43196(10) 1.15158(10) 0.04373(4)
C7 C 0.44683(15) 1.22342(8) 0.02669(6)
H4 H 0.4671 1.2335 0.0035
C8 C 0.45303(11) 1.09281(9) 0.02660(4)
O1 O 0.44341(8) 0.88683(15) 0.07652(6)
O2 O 0.44231(8) 1.03113(7) 0.04390(3)
O3 O 0.48237(8) 1.11076(7) -0.00379(3)
Cu1B Cu 0.476462(16) 1.523538(7) 0.028352(6)
Cu1R Cu 0.523538(7) 1.047076(14) -0.028352(6)
Cu1T Cu 0.523538(16) 1.476462(7) -0.028352(6)
Cu1EA Cu 0.190205(16) 0.809795(7) 0.304981(6)
Cu1F Cu 0.143129(16) 0.856871(7) 0.361685(6)
Cu1Z Cu 0.190205(7) 1.380409(14) 0.304981(6)
Cu1D Cu 0.143129(7) 1.286257(14) 0.361685(6)
C1Q C 0.2787(3) 1.1905(4) 0.17792(10)
C1CA C 0.3880(3) 1.1428(4) 0.15541(10)
C1Z C 0.2787(3) 1.0881(2) 0.17792(10)
H1Q H 0.2421 1.2088 0.1857
H1CA H 0.4246 1.1245 0.1476
H1Z H 0.2421 1.0332 0.1857
C2Q C 0.3023(3) 1.2007(4) 0.14380(10)
C2CA C 0.3644(3) 1.1326(4) 0.18953(10)
C2Z C 0.3023(3) 1.1015(2) 0.14380(10)
H2Z H 0.2791 1.0562 0.1280
H2Q H 0.2791 1.2228 0.1280
H2CA H 0.3876 1.1105 0.2053
C3Z C 0.30772(19) 1.15386(9) 0.20151(7)
C4Z C 0.27897(17) 1.13948(9) 0.23811(7)
C5CA C 0.40270(12) 1.26572(16) 0.07782(4)
C5Z C 0.26397(12) 1.19635(11) 0.25551(4)
C5Q C 0.26397(12) 1.06761(16) 0.25551(4)
H3CA H 0.3929 1.3051 0.0893
H3Z H 0.2738 1.2455 0.2440
H3Q H 0.2738 1.0282 0.2440
C6CA C 0.43196(10) 1.28038(14) 0.04373(4)
C6Z C 0.23471(10) 1.18175(10) 0.28960(4)
C6Q C 0.23471(10) 1.05295(14) 0.28960(4)
C7Z C 0.21984(15) 1.10991(8) 0.30664(6)
H4Z H 0.1996 1.0998 0.3298
C8CA C 0.45303(11) 1.36022(14) 0.02660(4)
C8Q C 0.21364(11) 0.97311(14) 0.30673(4)
C8Z C 0.21364(11) 1.24052(9) 0.30673(4)
O1CA O 0.44341(8) 1.55658(17) 0.07652(6)
O2CA O 0.44231(8) 1.41118(11) 0.04390(3)
O2Q O 0.22436(8) 0.92215(11) 0.28943(3)
O2Z O 0.22436(8) 1.30220(7) 0.28943(3)
O2BA O 0.58882(11) 1.03113(7) 0.04390(3)
O2B O 0.58882(11) 1.55769(8) 0.04390(3)
O3CA O 0.48237(8) 1.37161(11) -0.00379(3)
O3Q O 0.18430(8) 0.96172(11) 0.33712(3)
O3Z O 0.18430(8) 1.22257(7) 0.33712(3)
O3R O 0.51763(8) 0.88924(7) 0.00379(3)
O3J O 0.37161(11) 0.88924(7) 0.00379(3)
O3T O 0.37161(11) 1.48237(8) 0.00379(3)
O3K O 0.51763(8) 1.62839(11) 0.00379(3)
loop_
_geom_bond_atom_site_label_1
_geom_bond_atom_site_label_2
_geom_bond_site_symmetry_1
_geom_bond_site_symmetry_2
Cu1 O1 1_555 1_555
C1 H1 1_555 1_555
C2 C1 1_555 1_555
H2 C2 1_555 1_555
C3 C1 1_555 1_555
C4 C3 1_555 1_555
C5 C4 1_555 1_555
H3 C5 1_555 1_555
C6 C5 1_555 1_555
C7 C6 1_555 1_555
H4 C7 1_555 1_555
C8 C6 1_555 1_555
O2 Cu1 1_555 1_555
O3 C8 1_555 1_555
Cu1B O1CA 1_555 1_555
Cu1R O3 1_555 1_555
Cu1T O3CA 1_555 1_555
Cu1EA O2Q 1_555 1_555
Cu1F O3Q 1_555 1_555
Cu1Z O2Z 1_555 1_555
Cu1D O3Z 1_555 1_555
C1Q C2 1_555 1_555
C1CA C3 1_555 1_555
C1Z H1Z 1_555 1_555
H1Q C1Q 1_555 1_555
H1CA C1CA 1_555 1_555
C2Q C1 1_555 1_555
C2CA C1CA 1_555 1_555
C2Z C3 1_555 1_555
H2Z C2Z 1_555 1_555
H2Q C2Q 1_555 1_555
H2CA C2CA 1_555 1_555
C3Z C2 1_555 1_555
C4Z C3Z 1_555 1_555
C5CA C4 1_555 1_555
C5Z C4Z 1_555 1_555
C5Q C4Z 1_555 1_555
H3CA C5CA 1_555 1_555
H3Z C5Z 1_555 1_555
H3Q C5Q 1_555 1_555
C6CA C7 1_555 1_555
C6Z C5Z 1_555 1_555
C6Q C5Q 1_555 1_555
C7Z C6Z 1_555 1_555
H4Z C7Z 1_555 1_555
C8CA C6CA 1_555 1_555
C8Q C6Q 1_555 1_555
C8Z C6Z 1_555 1_555
O2CA Cu1B 1_555 1_555
O2Q C8Q 1_555 1_555
O2Z C8Z 1_555 1_555
O2BA Cu1 1_555 1_555
O2B Cu1B 1_555 1_555
O3CA C8CA 1_555 1_555
O3Q C8Q 1_555 1_555
O3Z C8Z 1_555 1_555
O3R Cu1 1_555 1_555
O3J Cu1 1_555 1_555
O3T Cu1B 1_555 1_555
O3K Cu1B 1_555 1_555
C3 C2Q 1_555 1_555
C8 O2 1_555 1_555
C1Q C2Q 1_555 1_555
C1Q C3Z 1_555 1_555
C1CA C2Z 1_555 1_555
C1Z C2CA 1_555 1_555
C1Z C2Z 1_555 1_555
C1Z C3Z 1_555 1_555
C2CA C3Z 1_555 1_555
C5CA C6CA 1_555 1_555
C6Q C7Z 1_555 1_555
C8CA O2CA 1_555 1_555

#END
