
#######################################################################
#
#                 Cambridge Crystallographic Data Centre
#                                CCDC 
#
#######################################################################
#
# If this CIF has been generated from an entry in the Cambridge 
# Structural Database, then it will include bibliographic, chemical, 
# crystal, experimental, refinement or atomic coordinate data resulting 
# from the CCDC's data processing and validation procedures.
#
#######################################################################

data_CESFIQ
_chemical_formula_moiety         'C36 H22 Cu8 O16'
_symmetry_cell_setting           rhombohedral
_symmetry_space_group_name_H-M   'R -3 m'
_symmetry_Int_Tables_number      166
_space_group_name_Hall           '-R 3 2"'
loop_
_symmetry_equiv_pos_site_id
_symmetry_equiv_pos_as_xyz
1 x,y,z
2 -y,x-y,z
3 -x+y,-x,z
4 y,x,-z
5 2/3+x,1/3+y,1/3+z
6 2/3-y,1/3+x-y,1/3+z
7 2/3-x+y,1/3-x,1/3+z
8 2/3+y,1/3+x,1/3-z
9 1/3+x,2/3+y,2/3+z
10 1/3+y,2/3+x,2/3-z
11 x-y,-y,-z
12 -x,-x+y,-z
13 1/3-y,2/3+x-y,2/3+z
14 1/3-x+y,2/3-x,2/3+z
15 1/3+x-y,2/3-y,2/3-z
16 1/3-x,2/3-x+y,2/3-z
17 2/3+x-y,1/3-y,1/3-z
18 2/3-x,1/3-x+y,1/3-z
19 -x,-y,-z
20 y,-x+y,-z
21 x-y,x,-z
22 -y,-x,z
23 1/3-x,2/3-y,2/3-z
24 1/3+y,2/3-x+y,2/3-z
25 1/3+x-y,2/3+x,2/3-z
26 1/3-y,2/3-x,2/3+z
27 2/3-x,1/3-y,1/3-z
28 2/3-y,1/3-x,1/3+z
29 -x+y,y,z
30 x,x-y,z
31 2/3+y,1/3-x+y,1/3-z
32 2/3+x-y,1/3+x,1/3-z
33 2/3-x+y,1/3+y,1/3+z
34 2/3+x,1/3+x-y,1/3+z
35 1/3-x+y,2/3+y,2/3+z
36 1/3+x,2/3+x-y,2/3+z
_cell_length_a                   18.4335(6)
_cell_length_b                   18.4335(6)
_cell_length_c                   52.364(3)
_cell_angle_alpha                90
_cell_angle_beta                 90
_cell_angle_gamma                120.00
_cell_volume                     15409.2
loop_
_atom_site_label
_atom_site_type_symbol
_atom_site_fract_x
_atom_site_fract_y
_atom_site_fract_z
Cu1 Cu 0.142139(10) 0.857861(10) 0.853873(6)
O1 O 0.10509(9) 0.89491(9) 0.88802(5)
O2 O 0.10685(12) 0.74533(13) 0.86641(3)
O3 O 0.14780(10) 0.70401(11) 0.83170(3)
C1 C 0.0065(2) 0.5033(4) 0.98600(9)
C2 C 0.0408(5) 0.5793(6) 0.97382(15)
H1 H 0.0494 0.6278 0.9832
C3 C 0.0662(4) 0.5900(6) 0.94927(13)
H2 H 0.1014 0.6449 0.9428
C4 C 0.04103(17) 0.5205(3) 0.93333(8)
C5 C -0.0047(5) 0.4470(6) 0.94369(15)
H3 H -0.0232 0.3980 0.9337
C6 C -0.0270(7) 0.5333(8) 0.9700(2)
H4 H -0.0681 0.5455 0.9763
C7 C 0.06263(14) 0.5313(3) 0.90549(7)
C8 C 0.07398(18) 0.60176(18) 0.89246(4)
H5 H 0.0650 0.6419 0.9012
C9 C 0.09820(16) 0.61474(16) 0.86693(4)
C10 C 0.11083(11) 0.5554(2) 0.85455(6)
H6 H 0.1286 0.5643 0.8373
C11 C 0.11849(17) 0.69334(16) 0.85402(4)
Cu1S Cu -0.142139(10) 0.715722(14) 1.146127(6)
Cu1I Cu 0.191194(10) 0.808806(10) 0.812794(6)
Cu1E Cu -0.191194(10) 0.617611(14) 1.187206(6)
Cu1C Cu -0.142139(10) 0.142139(10) 1.146127(6)
Cu1D Cu -0.191194(10) 0.191194(10) 1.187206(6)
Cu1A Cu 0.142139(10) 0.284278(14) 0.853873(6)
Cu1W Cu 0.191194(10) 0.382389(14) 0.812794(6)
O1S O -0.10509(9) 0.78982(13) 1.11198(5)
O2K O -0.10685(12) 0.63848(18) 1.13359(3)
O2R O -0.10685(12) 0.25467(13) 1.13359(3)
O2CA O 0.10685(12) 0.36152(18) 0.86641(3)
O2U O 0.25467(13) 0.89315(12) 0.86641(3)
O2S O -0.25467(13) 0.63848(18) 1.13359(3)
O3K O -0.14780(10) 0.55621(15) 1.16830(3)
O3R O -0.14780(10) 0.29599(11) 1.16830(3)
O3CA O 0.14780(10) 0.44379(15) 0.83170(3)
O3I O 0.03734(11) 0.81447(10) 0.83497(3)
O3V O 0.18553(10) 0.96266(11) 0.83497(3)
O3E O -0.03734(11) 0.77712(15) 1.16503(3)
O3GA O -0.18553(10) 0.77712(15) 1.16503(3)
C1R C -0.0065(2) 0.4967(4) 1.01400(9)
C2R C -0.0408(5) 0.4207(6) 1.02618(15)
C2K C -0.0408(5) 0.5385(8) 1.02618(15)
C2CA C 0.0408(5) 0.4615(8) 0.97382(15)
H1R H -0.0494 0.3722 1.0168
H1K H -0.0494 0.5784 1.0168
H1CA H 0.0494 0.4216 0.9832
C3R C -0.0662(4) 0.4100(6) 1.05073(13)
C3K C -0.0662(4) 0.5238(7) 1.05073(13)
C3CA C 0.0662(4) 0.4762(7) 0.94927(13)
H2R H -0.1014 0.3551 1.0572
H2K H -0.1014 0.5435 1.0572
H2CA H 0.1014 0.4565 0.9428
C4R C -0.04103(17) 0.4795(3) 1.06667(8)
C5R C 0.0047(5) 0.5530(6) 1.05631(15)
C5K C 0.0047(5) 0.4517(8) 1.05631(15)
C5CA C -0.0047(5) 0.5483(8) 0.94369(15)
H3K H 0.0232 0.4212 1.0663
H3R H 0.0232 0.6020 1.0663
H3CA H -0.0232 0.5788 0.9337
C6K C 0.0270(7) 0.5603(11) 1.0300(2)
C6R C 0.0270(7) 0.4667(8) 1.0300(2)
C6CA C -0.0270(7) 0.4397(11) 0.9700(2)
H4K H 0.0681 0.6136 1.0237
H4R H 0.0681 0.4545 1.0237
H4CA H -0.0681 0.3864 0.9763
C7R C -0.06263(14) 0.4687(3) 1.09451(7)
C8R C -0.07398(18) 0.39824(18) 1.10754(4)
C8K C -0.07398(18) 0.52778(25) 1.10754(4)
C8CA C 0.07398(18) 0.47222(25) 0.89246(4)
H5R H -0.0650 0.3581 1.0988
H5K H -0.0650 0.5769 1.0988
H5CA H 0.0650 0.4231 0.9012
C9R C -0.09820(16) 0.38526(16) 1.13307(4)
C9K C -0.09820(16) 0.51654(23) 1.13307(4)
C9CA C 0.09820(16) 0.48346(23) 0.86693(4)
C10R C -0.11083(11) 0.4446(2) 1.14545(6)
H6R H -0.1286 0.4357 1.1627
C11K C -0.11849(17) 0.57485(23) 1.14598(4)
C11R C -0.11849(17) 0.30666(16) 1.14598(4)
C11CA C 0.11849(17) 0.42515(23) 0.85402(4)
loop_
_geom_bond_atom_site_label_1
_geom_bond_atom_site_label_2
_geom_bond_site_symmetry_1
_geom_bond_site_symmetry_2
Cu1 O1 1_555 1_555
O2 Cu1 1_555 1_555
O3 C11 1_555 1_555
C1 C2 1_555 1_555
C2 H1 1_555 1_555
C3 C2 1_555 1_555
H2 C3 1_555 1_555
C4 C3 1_555 1_555
C5 C4 1_555 1_555
H3 C5 1_555 1_555
C6 C1 1_555 1_555
H4 C6 1_555 1_555
C7 C4 1_555 1_555
C8 C7 1_555 1_555
H5 C8 1_555 1_555
C9 C8 1_555 1_555
C10 C9 1_555 1_555
H6 C10 1_555 1_555
C11 O2 1_555 1_555
Cu1S O1S 1_555 1_555
Cu1I O3 1_555 1_555
Cu1E O3K 1_555 1_555
Cu1C O2R 1_555 1_555
Cu1D O3R 1_555 1_555
Cu1A O2CA 1_555 1_555
Cu1W O3CA 1_555 1_555
O2K Cu1S 1_555 1_555
O2R C11R 1_555 1_555
O2CA C11CA 1_555 1_555
O2U Cu1 1_555 1_555
O2S Cu1S 1_555 1_555
O3K C11K 1_555 1_555
O3R C11R 1_555 1_555
O3CA C11CA 1_555 1_555
O3I Cu1 1_555 1_555
O3V Cu1 1_555 1_555
O3E Cu1S 1_555 1_555
O3GA Cu1S 1_555 1_555
C1R C1 1_555 1_555
C2R C1R 1_555 1_555
C2K C1R 1_555 1_555
C2CA C1 1_555 1_555
H1R C2R 1_555 1_555
H1K C2K 1_555 1_555
H1CA C2CA 1_555 1_555
C3R C2R 1_555 1_555
C3K C2K 1_555 1_555
C3CA C4 1_555 1_555
H2R C3R 1_555 1_555
H2K C3K 1_555 1_555
H2CA C3CA 1_555 1_555
C4R C3R 1_555 1_555
C5R C2K 1_555 1_555
C5K C2R 1_555 1_555
C5CA C2 1_555 1_555
H3K C5K 1_555 1_555
H3R C5R 1_555 1_555
H3CA C5CA 1_555 1_555
C6K C1R 1_555 1_555
C6R C1R 1_555 1_555
C6CA C1 1_555 1_555
H4K C6K 1_555 1_555
H4R C6R 1_555 1_555
H4CA C6CA 1_555 1_555
C7R C4R 1_555 1_555
C8R C7R 1_555 1_555
C8K C7R 1_555 1_555
C8CA C7 1_555 1_555
H5R C8R 1_555 1_555
H5K C8K 1_555 1_555
H5CA C8CA 1_555 1_555
C9R C8R 1_555 1_555
C9K C8K 1_555 1_555
C9CA C10 1_555 1_555
C10R C9R 1_555 1_555
H6R C10R 1_555 1_555
C11K O2K 1_555 1_555
C11R C9R 1_555 1_555
C11CA C9CA 1_555 1_555
C2 C6 1_555 1_555
C3 C5CA 1_555 1_555
C4 C5CA 1_555 1_555
C5 C2CA 1_555 1_555
C5 C3CA 1_555 1_555
C5 C6CA 1_555 1_555
C6 C5CA 1_555 1_555
C6 C6CA 1_555 1_555
C9 C11 1_555 1_555
C2R C6R 1_555 1_555
C2K C6K 1_555 1_555
C2CA C3CA 1_555 1_555
C2CA C6CA 1_555 1_555
C3R C5K 1_555 1_555
C3K C4R 1_555 1_555
C3K C5R 1_555 1_555
C4R C5R 1_555 1_555
C4R C5K 1_555 1_555
C5R C6K 1_555 1_555
C5K C6R 1_555 1_555
C6K C6R 1_555 1_555
C8CA C9CA 1_555 1_555
C9K C10R 1_555 1_555
C9K C11K 1_555 1_555

#END
