
#######################################################################
#
#                 Cambridge Crystallographic Data Centre
#                                CCDC 
#
#######################################################################
#
# If this CIF has been generated from an entry in the Cambridge 
# Structural Database, then it will include bibliographic, chemical, 
# crystal, experimental, refinement or atomic coordinate data resulting 
# from the CCDC's data processing and validation procedures.
#
#######################################################################

data_LUXLIA
_chemical_formula_moiety         'C8 H9 Co1 Mo5 N2 O24 P1'
_symmetry_cell_setting           cubic
_symmetry_space_group_name_H-M   'I m -3'
_symmetry_Int_Tables_number      204
_space_group_name_Hall           '-I 2 2 3'
loop_
_symmetry_equiv_pos_site_id
_symmetry_equiv_pos_as_xyz
1 x,y,z
2 -x,-y,z
3 -x,y,-z
4 x,-y,-z
5 z,x,y
6 z,-x,-y
7 -z,-x,y
8 -z,x,-y
9 y,z,x
10 -y,z,-x
11 y,-z,-x
12 -y,-z,x
13 1/2+x,1/2+y,1/2+z
14 1/2-x,1/2-y,1/2+z
15 1/2-x,1/2+y,1/2-z
16 1/2+x,1/2-y,1/2-z
17 1/2+z,1/2+x,1/2+y
18 1/2+z,1/2-x,1/2-y
19 1/2-z,1/2-x,1/2+y
20 1/2-z,1/2+x,1/2-y
21 1/2+y,1/2+z,1/2+x
22 1/2-y,1/2+z,1/2-x
23 1/2+y,1/2-z,1/2-x
24 1/2-y,1/2-z,1/2+x
25 -x,-y,-z
26 x,y,-z
27 x,-y,z
28 -x,y,z
29 -z,-x,-y
30 -z,x,y
31 z,x,-y
32 z,-x,y
33 -y,-z,-x
34 y,-z,x
35 -y,z,x
36 y,z,-x
37 1/2-x,1/2-y,1/2-z
38 1/2+x,1/2+y,1/2-z
39 1/2+x,1/2-y,1/2+z
40 1/2-x,1/2+y,1/2+z
41 1/2-z,1/2-x,1/2-y
42 1/2-z,1/2+x,1/2+y
43 1/2+z,1/2+x,1/2-y
44 1/2+z,1/2-x,1/2+y
45 1/2-y,1/2-z,1/2-x
46 1/2+y,1/2-z,1/2+x
47 1/2-y,1/2+z,1/2+x
48 1/2+y,1/2+z,1/2-x
_cell_length_a                   23.1704(11)
_cell_length_b                   23.1704(11)
_cell_length_c                   23.1704(11)
_cell_angle_alpha                90
_cell_angle_beta                 90
_cell_angle_gamma                90
_cell_volume                     12439.4
loop_
_atom_site_label
_atom_site_type_symbol
_atom_site_fract_x
_atom_site_fract_y
_atom_site_fract_z
_atom_site_U_iso_or_equiv
_atom_site_thermal_displace_type
Co1 Co 0.2500 -0.2500 -0.2500 0.0303 Uani
N1 N 0.32260(10) -0.34867(10) -0.22018(11) 0.0309 Uani
C1 C 0.36143(12) -0.37911(13) -0.25413(14) 0.0353 Uani
H1 H 0.3855 -0.3592 -0.2808 0.0420 Uiso
C2 C 0.36490(13) -0.43710(13) -0.24916(13) 0.0366 Uani
H2 H 0.3937 -0.4572 -0.2702 0.0440 Uiso
C3 C 0.32785(11) -0.46770(12) -0.21442(11) 0.0306 Uani
C4 C 0.28910(12) -0.43818(10) -0.18234(12) 0.0335 Uani
H3 H 0.2616 -0.4583 -0.1595 0.0400 Uiso
C5 C 0.28972(13) -0.37736(10) -0.18299(13) 0.0360 Uani
H4 H 0.2663 -0.3566 -0.1565 0.0430 Uiso
O14 O 0.32405(8) -0.29029(8) -0.22292(8) 0.0297 Uani
C3Z C 0.32785(11) -0.53230(12) -0.21442(11) 0.0306 Uani
O14F O 0.22292(8) -0.32405(8) -0.29029(8) 0.0297 Uani
O14I O 0.29029(8) -0.22292(8) -0.32405(8) 0.0297 Uani
O14JA O 0.17595(8) -0.20971(8) -0.27708(8) 0.0297 Uani
O14PA O 0.27708(8) -0.17595(8) -0.20971(8) 0.0297 Uani
O14SA O 0.20971(8) -0.27708(8) -0.17595(8) 0.0297 Uani
N2 N 0.17174(15) 0.26549(16) 1.0000 0.0370 Uani
C6 C 0.20841(18) 0.29962(18) 1.0000 0.0317 Uani
C7 C 0.25319(18) 0.34806(19) 1.0000 0.0390 Uani
H7 H 0.2842 0.3386 1.0271 0.0470 Uiso
H7Y H 0.2842 0.3386 0.9729 0.0470 Uiso
O15 O 0.16572(12) -0.0000 0.10267(12) 0.0332 Uani
Mo1 Mo 0.34720(2) 0.0000 0.0000 0.0351 Uani
Mo2 Mo 0.423593(13) 0.076982(12) 0.107924(13) 0.0463 Uani
Mo3 Mo 0.5000 0.15318(2) 0.0000 0.0353 Uani
P1 P 0.5000 0.0000 0.0000 0.0365 Uani
O1 O 0.2771(2) 0.0000 0.0000 0.0523 Uani
O2 O 0.38722(8) 0.11239(8) 0.16013(8) 0.0334 Uani
O3 O 0.5000 0.22539(18) 0.0000 0.0387 Uani
O4 O 0.37395(17) 0.05866(17) 0.05460(17) 0.0334 Uiso
O5 O 0.5000 0.0670(2) 0.1189(2) 0.0355 Uiso
O6 O 0.4309(2) 0.0000 0.1287(2) 0.0300 Uiso
O7 O 0.44124(17) 0.15041(18) 0.07145(17) 0.0371 Uiso
O8 O 0.4439(2) 0.0000 0.0349(2) 0.0315 Uiso
Mo2AA Mo 0.576407(13) 0.076982(12) 0.107924(13) 0.0463 Uani
Mo2Z Mo 0.423593(13) -0.076982(12) 0.107924(13) 0.0463 Uani
O4C O 0.37395(17) -0.05866(17) -0.05460(17) 0.0334 Uiso
O4Y O 0.37395(17) 0.05866(17) -0.05460(17) 0.0334 Uiso
O4Z O 0.37395(17) -0.05866(17) 0.05460(17) 0.0334 Uiso
O7B O 0.55876(17) 0.15041(18) -0.07145(17) 0.0371 Uiso
O7Y O 0.44124(17) 0.15041(18) -0.07145(17) 0.0371 Uiso
O7AA O 0.55876(17) 0.15041(18) 0.07145(17) 0.0371 Uiso
O8C O 0.4439(2) 0.0000 -0.0349(2) 0.0315 Uiso
O8A O 0.5561(2) 0.0000 0.0349(2) 0.0315 Uiso
O8B O 0.5561(2) 0.0000 -0.0349(2) 0.0315 Uiso
loop_
_atom_site_aniso_label
_atom_site_aniso_U_11
_atom_site_aniso_U_22
_atom_site_aniso_U_33
_atom_site_aniso_U_23
_atom_site_aniso_U_13
_atom_site_aniso_U_12
Co1 0.0303 0.0303 0.0303 -0.0009 0.0009 0.0009
N1 0.0303 0.0267 0.0356 0.0037 -0.0054 0.0121
C1 0.0245 0.041 0.0405 0.0025 -0.0153 0.004
C2 0.0333 0.0366 0.0398 0.0043 0.011 0.0054
C3 0.0286 0.0337 0.0295 -0.0104 -0.0131 -0.0038
C4 0.0338 0.0338 0.033 0.005 0.0018 -0.0046
C5 0.0407 0.0348 0.0326 -0.0039 -0.0077 -0.0137
O14 0.0292 0.0301 0.0298 0.0029 0.0112 -0.0044
C3Z 0.0286 0.0337 0.0295 0.0104 -0.0131 0.0038
O14F 0.0298 0.0292 0.0301 0.0044 -0.0029 0.0112
O14I 0.0301 0.0298 0.0292 -0.0112 -0.0044 -0.0029
O14JA 0.0292 0.0301 0.0298 0.0029 0.0112 -0.0044
O14PA 0.0298 0.0292 0.0301 0.0044 -0.0029 0.0112
O14SA 0.0301 0.0298 0.0292 -0.0112 -0.0044 -0.0029
N2 0.0317(18) 0.047(2) 0.0323(19) 0.000 0.000 0.0148(15)
C6 0.037(2) 0.034(2) 0.024(2) 0.000 0.000 0.0153(17)
C7 0.033(2) 0.040(2) 0.044(3) 0.000 0.000 -0.006(2)
O15 0.0278(14) 0.0387(16) 0.0330(15) 0.000 -0.0013(12) 0.000
Mo1 0.0371(3) 0.0383(3) 0.0299(3) 0.000 0.000 0.000
Mo2 0.03768(14) 0.04448(15) 0.05677(17) -0.02033(13) 0.02358(13) -0.00301(12)
Mo3 0.0363(3) 0.0359(3) 0.0337(3) 0.000 0.000 0.000
P1 0.0364(11) 0.0334(11) 0.0398(12) 0.000 0.000 0.000
O1 0.048(3) 0.049(3) 0.060(3) 0.000 0.000 0.000
O2 0.0341(10) 0.0331(10) 0.0330(10) -0.0151(8) -0.0120(8) 0.0149(8)
O3 0.040(2) 0.035(2) 0.041(2) 0.000 0.000 0.000
Mo2AA 0.03768 0.04448 0.05677 -0.02033 -0.02358 0.00301
Mo2Z 0.03768 0.04448 0.05677 0.02033 0.02358 0.00301
loop_
_geom_bond_atom_site_label_1
_geom_bond_atom_site_label_2
_geom_bond_site_symmetry_1
_geom_bond_site_symmetry_2
Mo1 O1 1_555 1_555
Mo2 O2 1_555 1_555
Mo3 O3 1_555 1_555
P1 O8 1_555 1_555
O4 Mo1 1_555 1_555
O5 Mo2 1_555 1_555
O6 Mo2 1_555 1_555
O7 Mo2 1_555 1_555
O8 Mo1 1_555 1_555
Co1 O14 1_555 1_555
N1 C1 1_555 1_555
C1 H1 1_555 1_555
C2 C1 1_555 1_555
H2 C2 1_555 1_555
C3 C2 1_555 1_555
C4 C3 1_555 1_555
H3 C4 1_555 1_555
C5 N1 1_555 1_555
H4 C5 1_555 1_555
O14 N1 1_555 1_555
N2 C6 1_555 1_555
C6 C7 1_555 1_555
C7 H7 1_555 1_555
Mo2AA O5 1_555 1_555
Mo2Z O6 1_555 1_555
O4C Mo1 1_555 1_555
O4Y Mo1 1_555 1_555
O4Z Mo1 1_555 1_555
O7B Mo3 1_555 1_555
O7Y Mo3 1_555 1_555
O7AA Mo3 1_555 1_555
O8C Mo1 1_555 1_555
O8A P1 1_555 1_555
O8B P1 1_555 1_555
C3Z C3 1_555 1_555
O14F Co1 1_555 1_555
O14I Co1 1_555 1_555
O14JA Co1 1_555 1_555
O14PA Co1 1_555 1_555
O14SA Co1 1_555 1_555
H7Y C7 1_555 1_555
Mo2 O4 1_555 1_555
Mo3 O7 1_555 1_555
P1 O8C 1_555 1_555
O8 O8C 1_555 1_555
C4 C5 1_555 1_555
Mo2AA O7AA 1_555 1_555
Mo2Z O4Z 1_555 1_555
O8A O8B 1_555 1_555

#END
