
#######################################################################
#
#                 Cambridge Crystallographic Data Centre
#                                CCDC 
#
#######################################################################
#
# If this CIF has been generated from an entry in the Cambridge 
# Structural Database, then it will include bibliographic, chemical, 
# crystal, experimental, refinement or atomic coordinate data resulting 
# from the CCDC's data processing and validation procedures.
#
#######################################################################

data_LUXLUM
_chemical_formula_moiety         '(C32 H34 Co1 N7 O49 P1 W12 1+)n'
_symmetry_cell_setting           cubic
_symmetry_space_group_name_H-M   'I m -3'
_symmetry_Int_Tables_number      204
_space_group_name_Hall           '-I 2 2 3'
loop_
_symmetry_equiv_pos_site_id
_symmetry_equiv_pos_as_xyz
1 x,y,z
2 -x,-y,z
3 -x,y,-z
4 x,-y,-z
5 z,x,y
6 z,-x,-y
7 -z,-x,y
8 -z,x,-y
9 y,z,x
10 -y,z,-x
11 y,-z,-x
12 -y,-z,x
13 1/2+x,1/2+y,1/2+z
14 1/2-x,1/2-y,1/2+z
15 1/2-x,1/2+y,1/2-z
16 1/2+x,1/2-y,1/2-z
17 1/2+z,1/2+x,1/2+y
18 1/2+z,1/2-x,1/2-y
19 1/2-z,1/2-x,1/2+y
20 1/2-z,1/2+x,1/2-y
21 1/2+y,1/2+z,1/2+x
22 1/2-y,1/2+z,1/2-x
23 1/2+y,1/2-z,1/2-x
24 1/2-y,1/2-z,1/2+x
25 -x,-y,-z
26 x,y,-z
27 x,-y,z
28 -x,y,z
29 -z,-x,-y
30 -z,x,y
31 z,x,-y
32 z,-x,y
33 -y,-z,-x
34 y,-z,x
35 -y,z,x
36 y,z,-x
37 1/2-x,1/2-y,1/2-z
38 1/2+x,1/2+y,1/2-z
39 1/2+x,1/2-y,1/2+z
40 1/2-x,1/2+y,1/2+z
41 1/2-z,1/2-x,1/2-y
42 1/2-z,1/2+x,1/2+y
43 1/2+z,1/2+x,1/2-y
44 1/2+z,1/2-x,1/2+y
45 1/2-y,1/2-z,1/2-x
46 1/2+y,1/2-z,1/2+x
47 1/2-y,1/2+z,1/2+x
48 1/2+y,1/2+z,1/2-x
_cell_length_a                   23.1603(12)
_cell_length_b                   23.1603(12)
_cell_length_c                   23.1603(12)
_cell_angle_alpha                90
_cell_angle_beta                 90
_cell_angle_gamma                90
_cell_volume                     12423.2
loop_
_atom_site_label
_atom_site_type_symbol
_atom_site_fract_x
_atom_site_fract_y
_atom_site_fract_z
_atom_site_U_iso_or_equiv
_atom_site_thermal_displace_type
N2 N 0.5000 0.2389(8) 0.3285(11) 0.0517 Uani
C6 C 0.5000 0.1984(8) 0.2921(9) 0.0293 Uani
C7 C 0.5000 0.1543(14) 0.2492(11) 0.0700 Uani
H5 H 0.4743 0.1649 0.2185 0.0830 Uiso
H5AA H 0.5257 0.1649 0.2185 0.0830 Uiso
O2 O 0.0000 -0.1644(11) -0.1021(16) 0.1220 Uani
O3 O 0.1006(6) 0.1006(6) 0.1006(6) 0.0610 Uani
O4 O 0.0000 0.0000 0.0000 0.1400 Uani
W1 W 0.576515(19) 0.10865(2) 0.076887(19) 0.0185 Uani
W2 W 0.65335(3) 0.0000 0.0000 0.0169 Uani
W3 W 0.5000 -0.0000 0.15426(4) 0.0222 Uani
P1 P 0.5000 0.0000 0.0000 0.0100 Uani
O5 O 0.5000 0.0412(8) 0.0553(7) 0.0050 Uiso
O6 O 0.7265(8) 0.0000 0.0000 0.0437 Uani
O7 O 0.6106(5) 0.1615(5) 0.1124(5) 0.0490 Uani
O8 O 0.5000 -0.0000 0.2279(7) 0.0280 Uani
O9 O 0.6373(6) 0.0562(5) 0.0557(4) 0.0507 Uani
O10 O 0.5558(5) 0.0540(6) 0.1352(6) 0.0753 Uani
O11 O 0.5808(7) 0.1361(7) 0.0000 0.0483 Uani
O12 O 0.5000 0.1252(11) 0.0672(11) 0.0240 Uiso
W1C W 0.576515(19) -0.10865(2) -0.076887(19) 0.0185 Uani
W1Y W 0.576515(19) 0.10865(2) -0.076887(19) 0.0185 Uani
W1Z W 0.576515(19) -0.10865(2) 0.076887(19) 0.0185 Uani
W1B W 0.423485(19) 0.10865(2) -0.076887(19) 0.0185 Uani
W1A W 0.423485(19) -0.10865(2) 0.076887(19) 0.0185 Uani
W1AA W 0.423485(19) 0.10865(2) 0.076887(19) 0.0185 Uani
W1X W 0.423485(19) -0.10865(2) -0.076887(19) 0.0185 Uani
W2A W 0.34665(3) 0.0000 0.0000 0.0169 Uani
W3B W 0.5000 0.0000 -0.15426(4) 0.0222 Uani
O5C O 0.5000 -0.0412(8) -0.0553(7) 0.0050 Uiso
O5B O 0.5000 0.0412(8) -0.0553(7) 0.0050 Uiso
O5A O 0.5000 -0.0412(8) 0.0553(7) 0.0050 Uiso
O6A O 0.2735(8) 0.0000 0.0000 0.0437 Uani
O7C O 0.6106(5) -0.1615(5) -0.1124(5) 0.0490 Uani
O7Y O 0.6106(5) 0.1615(5) -0.1124(5) 0.0490 Uani
O7Z O 0.6106(5) -0.1615(5) 0.1124(5) 0.0490 Uani
O7B O 0.3894(5) 0.1615(5) -0.1124(5) 0.0490 Uani
O7A O 0.3894(5) -0.1615(5) 0.1124(5) 0.0490 Uani
O7AA O 0.3894(5) 0.1615(5) 0.1124(5) 0.0490 Uani
O7X O 0.3894(5) -0.1615(5) -0.1124(5) 0.0490 Uani
O8B O 0.5000 0.0000 -0.2279(7) 0.0280 Uani
O9C O 0.6373(6) -0.0562(5) -0.0557(4) 0.0507 Uani
O9Y O 0.6373(6) 0.0562(5) -0.0557(4) 0.0507 Uani
O9Z O 0.6373(6) -0.0562(5) 0.0557(4) 0.0507 Uani
O9B O 0.3627(6) 0.0562(5) -0.0557(4) 0.0507 Uani
O9A O 0.3627(6) -0.0562(5) 0.0557(4) 0.0507 Uani
O9AA O 0.3627(6) 0.0562(5) 0.0557(4) 0.0507 Uani
O9X O 0.3627(6) -0.0562(5) -0.0557(4) 0.0507 Uani
O10C O 0.5558(5) -0.0540(6) -0.1352(6) 0.0753 Uani
O10Y O 0.5558(5) 0.0540(6) -0.1352(6) 0.0753 Uani
O10Z O 0.5558(5) -0.0540(6) 0.1352(6) 0.0753 Uani
O10A O 0.4442(5) -0.0540(6) 0.1352(6) 0.0753 Uani
O10AA O 0.4442(5) 0.0540(6) 0.1352(6) 0.0753 Uani
O10B O 0.4442(5) 0.0540(6) -0.1352(6) 0.0753 Uani
O10X O 0.4442(5) -0.0540(6) -0.1352(6) 0.0753 Uani
O11C O 0.5808(7) -0.1361(7) 0.0000 0.0483 Uani
O11B O 0.4192(7) 0.1361(7) 0.0000 0.0483 Uani
O11A O 0.4192(7) -0.1361(7) 0.0000 0.0483 Uani
O12C O 0.5000 -0.1252(11) -0.0672(11) 0.0240 Uiso
O12B O 0.5000 0.1252(11) -0.0672(11) 0.0240 Uiso
O12A O 0.5000 -0.1252(11) 0.0672(11) 0.0240 Uiso
Co1 Co 0.2500 -0.2500 -0.7500 0.0110 Uani
O1 O 0.1758(4) -0.2759(3) -0.7912(3) 0.0183 Uani
N1 N 0.1747(4) -0.2783(4) -0.8493(3) 0.0120 Uani
C1 C 0.2117(5) -0.3157(4) -0.8767(4) 0.0147 Uani
H1 H 0.2372 -0.3389 -0.8560 0.0180 Uiso
C2 C 0.2095(4) -0.3174(5) -0.9357(4) 0.0143 Uani
H2 H 0.2343 -0.3421 -0.9554 0.0170 Uiso
C3 C 0.1704(4) -0.2825(4) -0.9679(4) 0.0107 Uani
C4 C 0.1351(7) -0.2490(6) -0.9374(6) 0.0353 Uani
H3 H 0.1083 -0.2263 -0.9568 0.0430 Uiso
C5 C 0.1367(5) -0.2468(5) -0.8769(5) 0.0203 Uani
H4 H 0.1112 -0.2233 -0.8567 0.0240 Uiso
Co1M Co 0.2500 -0.2500 -1.2500 0.0110 Uani
Co1O Co -0.2500 -0.2500 -0.7500 0.0110 Uani
Co1N Co 0.2500 0.2500 -0.7500 0.0110 Uani
O1Y O 0.1758(4) -0.2759(3) -1.2088(3) 0.0183 Uani
O1E O 0.2088(3) -0.1758(4) -0.7241(3) 0.0183 Uani
O1BA O -0.2088(3) -0.1758(4) -0.7241(3) 0.0183 Uani
O1K O 0.2759(3) -0.2088(3) -0.8242(4) 0.0183 Uani
O1HA O 0.2759(3) 0.2088(3) -0.8242(4) 0.0183 Uani
O1JA O 0.3242(4) -0.2241(3) -0.7088(3) 0.0183 Uani
O1OA O 0.2912(3) -0.3242(4) -0.7759(3) 0.0183 Uani
O1UA O 0.2241(3) -0.2912(3) -0.6758(4) 0.0183 Uani
N1Y N 0.1747(4) -0.2783(4) -1.1507(3) 0.0120 Uani
N1E N 0.1507(3) -0.1747(4) -0.7217(4) 0.0120 Uani
N1BA N -0.1507(3) -0.1747(4) -0.7217(4) 0.0120 Uani
N1K N 0.2783(4) -0.1507(3) -0.8253(4) 0.0120 Uani
N1HA N 0.2783(4) 0.1507(3) -0.8253(4) 0.0120 Uani
C1Y C 0.2117(5) -0.3157(4) -1.1233(4) 0.0147 Uani
C1E C 0.1233(4) -0.2117(5) -0.6843(4) 0.0147 Uani
C1BA C -0.1233(4) -0.2117(5) -0.6843(4) 0.0147 Uani
C1K C 0.3157(4) -0.1233(4) -0.7883(5) 0.0147 Uani
C1HA C 0.3157(4) 0.1233(4) -0.7883(5) 0.0147 Uani
H1Y H 0.2372 -0.3389 -1.1440 0.0180 Uiso
H1E H 0.1440 -0.2372 -0.6611 0.0180 Uiso
H1BA H -0.1440 -0.2372 -0.6611 0.0180 Uiso
H1K H 0.3389 -0.1440 -0.7628 0.0180 Uiso
H1HA H 0.3389 0.1440 -0.7628 0.0180 Uiso
C2Y C 0.2095(4) -0.3174(5) -1.0643(4) 0.0143 Uani
C2E C 0.0643(4) -0.2095(4) -0.6826(5) 0.0143 Uani
C2BA C -0.0643(4) -0.2095(4) -0.6826(5) 0.0143 Uani
C2K C 0.3174(5) -0.0643(4) -0.7905(4) 0.0143 Uani
C2HA C 0.3174(5) 0.0643(4) -0.7905(4) 0.0143 Uani
H2Y H 0.2343 -0.3421 -1.0446 0.0170 Uiso
H2E H 0.0446 -0.2343 -0.6579 0.0170 Uiso
H2BA H -0.0446 -0.2343 -0.6579 0.0170 Uiso
H2K H 0.3421 -0.0446 -0.7657 0.0170 Uiso
H2HA H 0.3421 0.0446 -0.7657 0.0170 Uiso
C3Y C 0.1704(4) -0.2825(4) -1.0321(4) 0.0107 Uani
C3E C 0.0321(4) -0.1704(4) -0.7175(4) 0.0107 Uani
C3BA C -0.0321(4) -0.1704(4) -0.7175(4) 0.0107 Uani
C3K C 0.2825(4) -0.0321(4) -0.8296(4) 0.0107 Uani
C3HA C 0.2825(4) 0.0321(4) -0.8296(4) 0.0107 Uani
C4Y C 0.1351(7) -0.2490(6) -1.0626(6) 0.0353 Uani
C4E C 0.0626(6) -0.1351(7) -0.7510(6) 0.0353 Uani
C4BA C -0.0626(6) -0.1351(7) -0.7510(6) 0.0353 Uani
C4K C 0.2490(6) -0.0626(6) -0.8649(7) 0.0353 Uani
C4HA C 0.2490(6) 0.0626(6) -0.8649(7) 0.0353 Uani
H3Y H 0.1083 -0.2263 -1.0432 0.0430 Uiso
H3E H 0.0432 -0.1083 -0.7737 0.0430 Uiso
H3BA H -0.0432 -0.1083 -0.7737 0.0430 Uiso
H3K H 0.2263 -0.0432 -0.8917 0.0430 Uiso
H3HA H 0.2263 0.0432 -0.8917 0.0430 Uiso
C5Y C 0.1367(5) -0.2468(5) -1.1231(5) 0.0203 Uani
C5E C 0.1231(5) -0.1367(5) -0.7532(5) 0.0203 Uani
C5BA C -0.1231(5) -0.1367(5) -0.7532(5) 0.0203 Uani
C5K C 0.2468(5) -0.1231(5) -0.8633(5) 0.0203 Uani
C5HA C 0.2468(5) 0.1231(5) -0.8633(5) 0.0203 Uani
H4Y H 0.1112 -0.2233 -1.1433 0.0240 Uiso
H4E H 0.1433 -0.1112 -0.7767 0.0240 Uiso
H4BA H -0.1433 -0.1112 -0.7767 0.0240 Uiso
H4K H 0.2233 -0.1433 -0.8888 0.0240 Uiso
H4HA H 0.2233 0.1433 -0.8888 0.0240 Uiso
loop_
_atom_site_aniso_label
_atom_site_aniso_U_11
_atom_site_aniso_U_22
_atom_site_aniso_U_33
_atom_site_aniso_U_23
_atom_site_aniso_U_13
_atom_site_aniso_U_12
N2 0.030(9) 0.032(9) 0.093(17) -0.020(10) 0.000 0.000
C6 0.021(8) 0.031(9) 0.036(10) 0.011(8) 0.000 0.000
C7 0.055(15) 0.11(2) 0.045(14) 0.049(15) 0.000 0.000
O2 0.16(3) 0.056(15) 0.15(3) -0.035(17) 0.000 0.000
O3 0.061(6) 0.061(6) 0.061(6) 0.002(7) 0.002(7) 0.002(7)
O4 0.14(4) 0.14(4) 0.14(4) 0.000 0.000 0.000
W1 0.0171 0.0194 0.0191 0.00062 -0.00749 -0.00513
W2 0.0068 0.0256 0.0182 0 0 0
W3 0.0203(4) 0.0376(5) 0.0087(4) 0.000 0.000 0.000
P1 0.008(3) 0.016(3) 0.006(3) 0.000 0.000 0.000
O6 0.011 0.105 0.015 0 0 0
O7 0.059 0.034 0.054 -0.011 -0.046 0.005
O8 0.046(11) 0.029(9) 0.009(7) 0.000 0.000 0.000
O9 0.099 0.049 0.004 0.003 0.003 0.044
O10 0.02 0.102 0.104 0.092 0.016 0.018
O11 0.07 0.056 0.019 0 0 0.048
W1C 0.0171 0.0194 0.0191 0.00062 0.00749 0.00513
W1Y 0.0171 0.0194 0.0191 -0.00062 0.00749 -0.00513
W1Z 0.0171 0.0194 0.0191 -0.00062 -0.00749 0.00513
W1B 0.0171 0.0194 0.0191 -0.00062 -0.00749 0.00513
W1A 0.0171 0.0194 0.0191 -0.00062 0.00749 -0.00513
W1AA 0.0171(2) 0.0194(2) 0.0191(2) 0.00062(16) 0.00749(16) 0.00513(16)
W1X 0.0171 0.0194 0.0191 0.00062 -0.00749 -0.00513
W2A 0.0068(4) 0.0256(5) 0.0182(4) 0.000 0.000 0.000
W3B 0.0203 0.0376 0.0087 0 0 0
O6A 0.011(8) 0.105(19) 0.015(8) 0.000 0.000 0.000
O7C 0.059 0.034 0.054 -0.011 0.046 -0.005
O7Y 0.059 0.034 0.054 0.011 0.046 0.005
O7Z 0.059 0.034 0.054 0.011 -0.046 -0.005
O7B 0.059 0.034 0.054 0.011 -0.046 -0.005
O7A 0.059 0.034 0.054 0.011 0.046 0.005
O7AA 0.059(7) 0.034(5) 0.054(6) -0.011(5) 0.046(5) -0.005(5)
O7X 0.059 0.034 0.054 -0.011 -0.046 0.005
O8B 0.046 0.029 0.009 0 0 0
O9C 0.099 0.049 0.004 0.003 -0.003 -0.044
O9Y 0.099 0.049 0.004 -0.003 -0.003 0.044
O9Z 0.099 0.049 0.004 -0.003 0.003 -0.044
O9B 0.099 0.049 0.004 -0.003 0.003 -0.044
O9A 0.099 0.049 0.004 -0.003 -0.003 0.044
O9AA 0.099(9) 0.049(6) 0.004(4) 0.003(4) -0.003(5) -0.044(6)
O9X 0.099 0.049 0.004 0.003 0.003 0.044
O10C 0.02 0.102 0.104 0.092 -0.016 -0.018
O10Y 0.02 0.102 0.104 -0.092 -0.016 0.018
O10Z 0.02 0.102 0.104 -0.092 0.016 -0.018
O10A 0.02 0.102 0.104 -0.092 -0.016 0.018
O10AA 0.020(5) 0.102(9) 0.104(9) 0.092(8) -0.016(6) -0.018(6)
O10B 0.02 0.102 0.104 -0.092 0.016 -0.018
O10X 0.02 0.102 0.104 0.092 0.016 0.018
O11C 0.07 0.056 0.019 0 0 -0.048
O11B 0.070(10) 0.056(9) 0.019(6) 0.000 0.000 -0.048(8)
O11A 0.07 0.056 0.019 0 0 0.048
Co1 0.011 0.011 0.011 -0.0023 0.0023 -0.0023
O1 0.016 0.024 0.015 0.005 0.002 -0.008
N1 0.012 0.015 0.009 -0.002 0.006 -0.007
C1 0.022 0.013 0.009 0 0.001 0.002
C2 0.014 0.021 0.008 -0.009 -0.003 0.001
C3 0.013 0.013 0.006 0.007 0.001 -0.004
C4 0.045 0.031 0.03 -0.004 -0.008 0.01
C5 0.022 0.02 0.019 -0.006 -0.003 0.003
Co1M 0.011 0.011 0.011 0.0023 -0.0023 -0.0023
Co1O 0.011 0.011 0.011 -0.0023 -0.0023 0.0023
Co1N 0.011 0.011 0.011 0.0023 0.0023 0.0023
O1Y 0.016 0.024 0.015 -0.005 -0.002 -0.008
O1E 0.015 0.016 0.024 -0.008 -0.005 -0.002
O1BA 0.015 0.016 0.024 -0.008 0.005 0.002
O1K 0.024 0.015 0.016 -0.002 0.008 0.005
O1HA 0.024 0.015 0.016 0.002 0.008 -0.005
O1JA 0.016 0.024 0.015 0.005 0.002 -0.008
O1OA 0.015 0.016 0.024 -0.008 -0.005 -0.002
O1UA 0.024 0.015 0.016 -0.002 0.008 0.005
N1Y 0.012 0.015 0.009 0.002 -0.006 -0.007
N1E 0.009 0.012 0.015 -0.007 0.002 -0.006
N1BA 0.009 0.012 0.015 -0.007 -0.002 0.006
N1K 0.015 0.009 0.012 -0.006 0.007 -0.002
N1HA 0.015 0.009 0.012 0.006 0.007 0.002
C1Y 0.022 0.013 0.009 0 -0.001 0.002
C1E 0.009 0.022 0.013 0.002 0 -0.001
C1BA 0.009 0.022 0.013 0.002 0 0.001
C1K 0.013 0.009 0.022 -0.001 -0.002 0
C1HA 0.013 0.009 0.022 0.001 -0.002 0
C2Y 0.014 0.021 0.008 0.009 0.003 0.001
C2E 0.008 0.014 0.021 0.001 0.009 0.003
C2BA 0.008 0.014 0.021 0.001 -0.009 -0.003
C2K 0.021 0.008 0.014 0.003 -0.001 -0.009
C2HA 0.021 0.008 0.014 -0.003 -0.001 0.009
C3Y 0.013 0.013 0.006 -0.007 -0.001 -0.004
C3E 0.006 0.013 0.013 -0.004 -0.007 -0.001
C3BA 0.006 0.013 0.013 -0.004 0.007 0.001
C3K 0.013 0.006 0.013 -0.001 0.004 0.007
C3HA 0.013 0.006 0.013 0.001 0.004 -0.007
C4Y 0.045 0.031 0.03 0.004 0.008 0.01
C4E 0.03 0.045 0.031 0.01 0.004 0.008
C4BA 0.03 0.045 0.031 0.01 -0.004 -0.008
C4K 0.031 0.03 0.045 0.008 -0.01 -0.004
C4HA 0.031 0.03 0.045 -0.008 -0.01 0.004
C5Y 0.022 0.02 0.019 0.006 0.003 0.003
C5E 0.019 0.022 0.02 0.003 0.006 0.003
C5BA 0.019 0.022 0.02 0.003 -0.006 -0.003
C5K 0.02 0.019 0.022 0.003 -0.003 -0.006
C5HA 0.02 0.019 0.022 -0.003 -0.003 0.006
loop_
_geom_bond_atom_site_label_1
_geom_bond_atom_site_label_2
_geom_bond_site_symmetry_1
_geom_bond_site_symmetry_2
Co1 O1 1_555 1_555
O1 N1 1_555 1_555
N1 C1 1_555 1_555
C1 H1 1_555 1_555
C2 C1 1_555 1_555
H2 C2 1_555 1_555
C3 C2 1_555 1_555
C4 C3 1_555 1_555
H3 C4 1_555 1_555
C5 N1 1_555 1_555
H4 C5 1_555 1_555
N2 C6 1_555 1_555
C6 C7 1_555 1_555
C7 H5 1_555 1_555
W1 O5 1_555 1_555
W2 O6 1_555 1_555
W3 O5 1_555 1_555
P1 O5 1_555 1_555
O5 W1AA 1_555 1_555
O7 W1 1_555 1_555
O8 W3 1_555 1_555
O9 W1 1_555 1_555
O10 W1 1_555 1_555
O11 W1 1_555 1_555
O12 W1 1_555 1_555
Co1M O1Y 1_555 1_555
Co1O O1BA 1_555 1_555
Co1N O1HA 1_555 1_555
O1Y N1Y 1_555 1_555
O1E Co1 1_555 1_555
O1BA N1BA 1_555 1_555
O1K Co1 1_555 1_555
O1HA N1HA 1_555 1_555
O1JA Co1 1_555 1_555
O1OA Co1 1_555 1_555
O1UA Co1 1_555 1_555
N1Y C1Y 1_555 1_555
N1E O1E 1_555 1_555
N1BA C1BA 1_555 1_555
N1K O1K 1_555 1_555
N1HA C1HA 1_555 1_555
C1Y H1Y 1_555 1_555
C1E N1E 1_555 1_555
C1BA H1BA 1_555 1_555
C1K N1K 1_555 1_555
C1HA H1HA 1_555 1_555
H1E C1E 1_555 1_555
H1K C1K 1_555 1_555
C2Y C1Y 1_555 1_555
C2E C1E 1_555 1_555
C2BA C1BA 1_555 1_555
C2K C1K 1_555 1_555
C2HA C1HA 1_555 1_555
H2Y C2Y 1_555 1_555
H2E C2E 1_555 1_555
H2BA C2BA 1_555 1_555
H2K C2K 1_555 1_555
H2HA C2HA 1_555 1_555
C3Y C3 1_555 1_555
C3E C2E 1_555 1_555
C3BA C2BA 1_555 1_555
C3K C2K 1_555 1_555
C3HA C2HA 1_555 1_555
C4Y C3Y 1_555 1_555
C4E C3E 1_555 1_555
C4BA C3BA 1_555 1_555
C4K C3K 1_555 1_555
C4HA C3HA 1_555 1_555
H3Y C4Y 1_555 1_555
H3E C4E 1_555 1_555
H3BA C4BA 1_555 1_555
H3K C4K 1_555 1_555
H3HA C4HA 1_555 1_555
C5Y N1Y 1_555 1_555
C5E N1E 1_555 1_555
C5BA N1BA 1_555 1_555
C5K N1K 1_555 1_555
C5HA N1HA 1_555 1_555
H4Y C5Y 1_555 1_555
H4E C5E 1_555 1_555
H4BA C5BA 1_555 1_555
H4K C5K 1_555 1_555
H4HA C5HA 1_555 1_555
H5AA C7 1_555 1_555
W1C O5C 1_555 1_555
W1Y O11 1_555 1_555
W1Z O5A 1_555 1_555
W1B O5B 1_555 1_555
W1A O5A 1_555 1_555
W1AA O12 1_555 1_555
W1X O5C 1_555 1_555
W2A O6A 1_555 1_555
W3B O5C 1_555 1_555
O5C P1 1_555 1_555
O5B P1 1_555 1_555
O5A W3 1_555 1_555
O7C W1C 1_555 1_555
O7Y W1Y 1_555 1_555
O7Z W1Z 1_555 1_555
O7B W1B 1_555 1_555
O7A W1A 1_555 1_555
O7AA W1AA 1_555 1_555
O7X W1X 1_555 1_555
O8B W3B 1_555 1_555
O9C W2 1_555 1_555
O9Y W2 1_555 1_555
O9Z W2 1_555 1_555
O9B W1B 1_555 1_555
O9A W1A 1_555 1_555
O9AA W1AA 1_555 1_555
O9X W1X 1_555 1_555
O10C W1C 1_555 1_555
O10Y W1Y 1_555 1_555
O10Z W3 1_555 1_555
O10A W3 1_555 1_555
O10AA W3 1_555 1_555
O10B W1B 1_555 1_555
O10X W1X 1_555 1_555
O11C W1C 1_555 1_555
O11B W1B 1_555 1_555
O11A W1A 1_555 1_555
O12C W1C 1_555 1_555
O12B W1Y 1_555 1_555
O12A W1Z 1_555 1_555
C4 C5 1_555 1_555
W2 O9 1_555 1_555
W3 O10 1_555 1_555
P1 O5A 1_555 1_555
C2Y C3Y 1_555 1_555
C3E C3BA 1_555 1_555
C3K C3HA 1_555 1_555
C4Y C5Y 1_555 1_555
C4E C5E 1_555 1_555
C4BA C5BA 1_555 1_555
C4K C5K 1_555 1_555
C4HA C5HA 1_555 1_555
W1C O9C 1_555 1_555
W1Y O5B 1_555 1_555
W1Y O9Y 1_555 1_555
W1Z O9Z 1_555 1_555
W1Z O10Z 1_555 1_555
W1Z O11C 1_555 1_555
W1B O12B 1_555 1_555
W1A O10A 1_555 1_555
W1A O12A 1_555 1_555
W1AA O10AA 1_555 1_555
W1AA O11B 1_555 1_555
W1X O11A 1_555 1_555
W1X O12C 1_555 1_555
W2A O9B 1_555 1_555
W2A O9A 1_555 1_555
W2A O9AA 1_555 1_555
W2A O9X 1_555 1_555
W3B O5B 1_555 1_555
W3B O10C 1_555 1_555
W3B O10Y 1_555 1_555
W3B O10B 1_555 1_555
W3B O10X 1_555 1_555

#END
