
#######################################################################
#
#                 Cambridge Crystallographic Data Centre
#                                CCDC 
#
#######################################################################
#
# If this CIF has been generated from an entry in the Cambridge 
# Structural Database, then it will include bibliographic, chemical, 
# crystal, experimental, refinement or atomic coordinate data resulting 
# from the CCDC's data processing and validation procedures.
#
#######################################################################

data_LUXLOG
_chemical_formula_moiety         '(C32 H34 Co1 Mo12 N7 O49 P1 1+)n'
_symmetry_cell_setting           cubic
_symmetry_space_group_name_H-M   'I m -3'
_symmetry_Int_Tables_number      204
_space_group_name_Hall           '-I 2 2 3'
loop_
_symmetry_equiv_pos_site_id
_symmetry_equiv_pos_as_xyz
1 x,y,z
2 -x,-y,z
3 -x,y,-z
4 x,-y,-z
5 z,x,y
6 z,-x,-y
7 -z,-x,y
8 -z,x,-y
9 y,z,x
10 -y,z,-x
11 y,-z,-x
12 -y,-z,x
13 1/2+x,1/2+y,1/2+z
14 1/2-x,1/2-y,1/2+z
15 1/2-x,1/2+y,1/2-z
16 1/2+x,1/2-y,1/2-z
17 1/2+z,1/2+x,1/2+y
18 1/2+z,1/2-x,1/2-y
19 1/2-z,1/2-x,1/2+y
20 1/2-z,1/2+x,1/2-y
21 1/2+y,1/2+z,1/2+x
22 1/2-y,1/2+z,1/2-x
23 1/2+y,1/2-z,1/2-x
24 1/2-y,1/2-z,1/2+x
25 -x,-y,-z
26 x,y,-z
27 x,-y,z
28 -x,y,z
29 -z,-x,-y
30 -z,x,y
31 z,x,-y
32 z,-x,y
33 -y,-z,-x
34 y,-z,x
35 -y,z,x
36 y,z,-x
37 1/2-x,1/2-y,1/2-z
38 1/2+x,1/2+y,1/2-z
39 1/2+x,1/2-y,1/2+z
40 1/2-x,1/2+y,1/2+z
41 1/2-z,1/2-x,1/2-y
42 1/2-z,1/2+x,1/2+y
43 1/2+z,1/2+x,1/2-y
44 1/2+z,1/2-x,1/2+y
45 1/2-y,1/2-z,1/2-x
46 1/2+y,1/2-z,1/2+x
47 1/2-y,1/2+z,1/2+x
48 1/2+y,1/2+z,1/2-x
_cell_length_a                   23.1496(7)
_cell_length_b                   23.1496(7)
_cell_length_c                   23.1496(7)
_cell_angle_alpha                90
_cell_angle_beta                 90
_cell_angle_gamma                90
_cell_volume                     12406
loop_
_atom_site_label
_atom_site_type_symbol
_atom_site_fract_x
_atom_site_fract_y
_atom_site_fract_z
_atom_site_U_iso_or_equiv
_atom_site_thermal_displace_type
Mo1 Mo 0.0000 0.34734(3) 0.0000 0.0331 Uani
Mo2 Mo -0.108142(16) 0.423754(18) 0.077023(17) 0.0392 Uani
Mo3 Mo 0.0000 0.5000 0.15339(3) 0.0347 Uani
O1 O -0.0413(4) 0.5000 0.0539(4) 0.0437 Uani
O2 O 0.0000 0.2781(3) 0.0000 0.0453 Uani
O3 O -0.13425(19) 0.42296(18) 0.0000 0.0423 Uani
O4 O -0.0517(4) 0.3756(4) 0.0581(4) 0.0447 Uani
O5 O -0.16035(13) 0.38825(14) 0.11295(14) 0.0449 Uani
O6 O 0.0000 0.5000 0.2297(3) 0.0467 Uani
O7 O -0.1497(4) 0.5000 0.0914(4) 0.0327 Uani
O8 O -0.0707(3) 0.4429(3) 0.1502(3) 0.0410 Uani
P1 P 0.0000 0.5000 0.0000 0.0375 Uani
Mo1A Mo 0.0000 0.65266(3) 0.0000 0.0331 Uani
Mo2B Mo 0.108142(16) 0.423754(18) -0.077023(17) 0.0392 Uani
Mo2Y Mo -0.108142(16) 0.423754(18) -0.077023(17) 0.0392 Uani
Mo2AA Mo 0.108142(16) 0.423754(18) 0.077023(17) 0.0392 Uani
Mo2C Mo -0.108142(16) 0.576246(18) -0.077023(17) 0.0392 Uani
Mo2A Mo 0.108142(16) 0.576246(18) 0.077023(17) 0.0392 Uani
Mo2Z Mo -0.108142(16) 0.576246(18) 0.077023(17) 0.0392 Uani
Mo2X Mo 0.108142(16) 0.576246(18) -0.077023(17) 0.0392 Uani
Mo3B Mo 0.0000 0.5000 -0.15339(3) 0.0347 Uani
O1B O 0.0413(4) 0.5000 -0.0539(4) 0.0437 Uani
O1C O -0.0413(4) 0.5000 -0.0539(4) 0.0437 Uani
O1A O 0.0413(4) 0.5000 0.0539(4) 0.0437 Uani
O2A O 0.0000 0.7219(3) 0.0000 0.0453 Uani
O3B O 0.13425(19) 0.42296(18) 0.0000 0.0423 Uani
O3C O -0.13425(19) 0.57704(18) 0.0000 0.0423 Uani
O3A O 0.13425(19) 0.57704(18) 0.0000 0.0423 Uani
O4B O 0.0517(4) 0.3756(4) -0.0581(4) 0.0447 Uani
O4Y O -0.0517(4) 0.3756(4) -0.0581(4) 0.0447 Uani
O4AA O 0.0517(4) 0.3756(4) 0.0581(4) 0.0447 Uani
O4C O -0.0517(4) 0.6244(4) -0.0581(4) 0.0447 Uani
O4A O 0.0517(4) 0.6244(4) 0.0581(4) 0.0447 Uani
O4Z O -0.0517(4) 0.6244(4) 0.0581(4) 0.0447 Uani
O4X O 0.0517(4) 0.6244(4) -0.0581(4) 0.0447 Uani
O5B O 0.16035(13) 0.38825(14) -0.11295(14) 0.0449 Uani
O5Y O -0.16035(13) 0.38825(14) -0.11295(14) 0.0449 Uani
O5AA O 0.16035(13) 0.38825(14) 0.11295(14) 0.0449 Uani
O5C O -0.16035(13) 0.61175(14) -0.11295(14) 0.0449 Uani
O5A O 0.16035(13) 0.61175(14) 0.11295(14) 0.0449 Uani
O5Z O -0.16035(13) 0.61175(14) 0.11295(14) 0.0449 Uani
O5X O 0.16035(13) 0.61175(14) -0.11295(14) 0.0449 Uani
O6B O 0.0000 0.5000 -0.2297(3) 0.0467 Uani
O7B O 0.1497(4) 0.5000 -0.0914(4) 0.0327 Uani
O7C O -0.1497(4) 0.5000 -0.0914(4) 0.0327 Uani
O7A O 0.1497(4) 0.5000 0.0914(4) 0.0327 Uani
O8B O 0.0707(3) 0.4429(3) -0.1502(3) 0.0410 Uani
O8Y O -0.0707(3) 0.4429(3) -0.1502(3) 0.0410 Uani
O8AA O 0.0707(3) 0.4429(3) 0.1502(3) 0.0410 Uani
O8A O 0.0707(3) 0.5571(3) 0.1502(3) 0.0410 Uani
O8Z O -0.0707(3) 0.5571(3) 0.1502(3) 0.0410 Uani
O8C O -0.0707(3) 0.5571(3) -0.1502(3) 0.0410 Uani
O8X O 0.0707(3) 0.5571(3) -0.1502(3) 0.0410 Uani
O9 O 0.08941(19) 0.1605(2) 0.0000 0.0473 Uani
O10 O 0.10761(15) 0.10761(15) 0.10761(15) 0.0503 Uani
O11 O 0.0000 0.0000 0.0000 0.0360 Uani
C3 C -0.2535(2) 0.3632(2) -0.3779(2) 0.0510 Uani
H2 H -0.2788 0.3875 -0.3584 0.0610 Uiso
C4 C -0.2495(2) 0.36584(19) -0.4361(2) 0.0423 Uani
H3 H -0.2702 0.3940 -0.4558 0.0510 Uiso
C5 C -0.2154(2) 0.3281(2) -0.46712(18) 0.0433 Uani
C6 C -0.1824(2) 0.2910(2) -0.4366(2) 0.0490 Uani
H4 H -0.1573 0.2664 -0.4560 0.0590 Uiso
C7 C -0.18527(18) 0.28900(19) -0.37634(18) 0.0390 Uani
H5 H -0.1626 0.2628 -0.3560 0.0470 Uiso
Co1 Co -0.2500 0.2500 -0.2500 0.0385 Uani
N2 N -0.22036(16) 0.32458(15) -0.34803(16) 0.0403 Uani
O12 O -0.22281(11) 0.32433(13) -0.28980(12) 0.0358 Uani
C3Y C -0.2535(2) 0.3632(2) -0.6221(2) 0.0510 Uani
C3E C -0.3779(2) 0.2535(2) -0.3632(2) 0.0510 Uani
C3BA C -0.6221(2) 0.2535(2) -0.3632(2) 0.0510 Uani
C3K C -0.3632(2) 0.3779(2) -0.2535(2) 0.0510 Uani
C3HA C -0.3632(2) 0.6221(2) -0.2535(2) 0.0510 Uani
H2Y H -0.2788 0.3875 -0.6416 0.0610 Uiso
H2E H -0.3584 0.2788 -0.3875 0.0610 Uiso
H2BA H -0.6416 0.2788 -0.3875 0.0610 Uiso
H2K H -0.3875 0.3584 -0.2788 0.0610 Uiso
H2HA H -0.3875 0.6416 -0.2788 0.0610 Uiso
C4Y C -0.2495(2) 0.36584(19) -0.5639(2) 0.0423 Uani
C4E C -0.4361(2) 0.2495(2) -0.36584(19) 0.0423 Uani
C4BA C -0.5639(2) 0.2495(2) -0.36584(19) 0.0423 Uani
C4K C -0.36584(19) 0.4361(2) -0.2495(2) 0.0423 Uani
C4HA C -0.36584(19) 0.5639(2) -0.2495(2) 0.0423 Uani
H3Y H -0.2702 0.3940 -0.5442 0.0510 Uiso
H3E H -0.4558 0.2702 -0.3940 0.0510 Uiso
H3BA H -0.5442 0.2702 -0.3940 0.0510 Uiso
H3K H -0.3940 0.4558 -0.2702 0.0510 Uiso
H3HA H -0.3940 0.5442 -0.2702 0.0510 Uiso
C5Y C -0.2154(2) 0.3281(2) -0.53288(18) 0.0433 Uani
C5E C -0.46712(18) 0.2154(2) -0.3281(2) 0.0433 Uani
C5BA C -0.53288(18) 0.2154(2) -0.3281(2) 0.0433 Uani
C5K C -0.3281(2) 0.46712(18) -0.2154(2) 0.0433 Uani
C5HA C -0.3281(2) 0.53288(18) -0.2154(2) 0.0433 Uani
C6Y C -0.1824(2) 0.2910(2) -0.5634(2) 0.0490 Uani
C6E C -0.4366(2) 0.1824(2) -0.2910(2) 0.0490 Uani
C6BA C -0.5634(2) 0.1824(2) -0.2910(2) 0.0490 Uani
C6K C -0.2910(2) 0.4366(2) -0.1824(2) 0.0490 Uani
C6HA C -0.2910(2) 0.5634(2) -0.1824(2) 0.0490 Uani
H4Y H -0.1573 0.2664 -0.5440 0.0590 Uiso
H4E H -0.4560 0.1573 -0.2664 0.0590 Uiso
H4BA H -0.5440 0.1573 -0.2664 0.0590 Uiso
H4K H -0.2664 0.4560 -0.1573 0.0590 Uiso
H4HA H -0.2664 0.5440 -0.1573 0.0590 Uiso
C7Y C -0.18527(18) 0.28900(19) -0.62366(18) 0.0390 Uani
C7E C -0.37634(18) 0.18527(18) -0.28900(19) 0.0390 Uani
C7BA C -0.62366(18) 0.18527(18) -0.28900(19) 0.0390 Uani
C7K C -0.28900(19) 0.37634(18) -0.18527(18) 0.0390 Uani
C7HA C -0.28900(19) 0.62366(18) -0.18527(18) 0.0390 Uani
H5Y H -0.1626 0.2628 -0.6440 0.0470 Uiso
H5E H -0.3560 0.1626 -0.2628 0.0470 Uiso
H5BA H -0.6440 0.1626 -0.2628 0.0470 Uiso
H5K H -0.2628 0.3560 -0.1626 0.0470 Uiso
H5HA H -0.2628 0.6440 -0.1626 0.0470 Uiso
Co1M Co -0.2500 0.2500 -0.7500 0.0385 Uani
Co1O Co -0.7500 0.2500 -0.2500 0.0385 Uani
Co1N Co -0.2500 0.7500 -0.2500 0.0385 Uani
N2Y N -0.22036(16) 0.32458(15) -0.65197(16) 0.0403 Uani
N2E N -0.34803(16) 0.22036(16) -0.32458(15) 0.0403 Uani
N2BA N -0.65197(16) 0.22036(16) -0.32458(15) 0.0403 Uani
N2K N -0.32458(15) 0.34803(16) -0.22036(16) 0.0403 Uani
N2HA N -0.32458(15) 0.65197(16) -0.22036(16) 0.0403 Uani
O12Y O -0.22281(11) 0.32433(13) -0.71020(12) 0.0358 Uani
O12E O -0.28980(12) 0.22281(11) -0.32433(13) 0.0358 Uani
O12BA O -0.71020(12) 0.22281(11) -0.32433(13) 0.0358 Uani
O12K O -0.32433(13) 0.28980(12) -0.22281(11) 0.0358 Uani
O12HA O -0.32433(13) 0.71020(12) -0.22281(11) 0.0358 Uani
O12JA O -0.27719(11) 0.17567(13) -0.21020(12) 0.0358 Uani
O12OA O -0.21020(12) 0.27719(11) -0.17567(13) 0.0358 Uani
O12UA O -0.17567(13) 0.21020(12) -0.27719(11) 0.0358 Uani
C1 C -0.0000 0.2064(3) 0.2986(3) 0.0483 Uani
C2 C -0.0000 0.2532(2) 0.3484(3) 0.0393 Uani
H1 H -0.0380 0.2694 0.3521 0.0470 Uiso
N1 N 0.0000 0.1696(3) 0.2624(3) 0.0493 Uani
H1AA H 0.0380 0.2694 0.3521 0.0470 Uiso
loop_
_atom_site_aniso_label
_atom_site_aniso_U_11
_atom_site_aniso_U_22
_atom_site_aniso_U_33
_atom_site_aniso_U_23
_atom_site_aniso_U_13
_atom_site_aniso_U_12
Mo1 0.0327(4) 0.0304(4) 0.0363(4) 0.000 0.000 0.000
Mo2 0.03155 0.0467 0.0393 -0.00232 0.01264 -0.01256
Mo3 0.0396(4) 0.0312(4) 0.0334(4) 0.000 0.000 0.000
O1 0.041 0.049 0.041 0 -0.011 0
O2 0.050(4) 0.046(4) 0.040(3) 0.000 0.000 0.000
O3 0.047 0.041 0.039 0 0 0.0222
O4 0.036 0.048 0.05 -0.015 -0.012 -0.015
O5 0.039 0.0443 0.0514 0.0147 0.0144 -0.0103
O6 0.049(4) 0.047(4) 0.044(4) 0.000 0.000 0.000
O7 0.031 0.035 0.032 0 0.019 0
O8 0.045 0.041 0.037 0.01 0.01 0.002
P1 0.0395(17) 0.0380(17) 0.0351(16) 0.000 0.000 0.000
Mo1A 0.0327 0.0304 0.0363 0 0 0
Mo2B 0.03155 0.0467 0.0393 0.00232 0.01264 0.01256
Mo2Y 0.03155 0.0467 0.0393 0.00232 -0.01264 -0.01256
Mo2AA 0.03155(19) 0.0467(2) 0.0393(2) -0.00232(16) -0.01264(16) 0.01256(16)
Mo2C 0.03155 0.0467 0.0393 -0.00232 -0.01264 0.01256
Mo2A 0.03155 0.0467 0.0393 0.00232 -0.01264 -0.01256
Mo2Z 0.03155 0.0467 0.0393 0.00232 0.01264 0.01256
Mo2X 0.03155 0.0467 0.0393 -0.00232 0.01264 -0.01256
Mo3B 0.0396 0.0312 0.0334 0 0 0
O1B 0.041 0.049 0.041 0 -0.011 0
O1C 0.041 0.049 0.041 0 0.011 0
O1A 0.041(5) 0.049(5) 0.041(5) 0.000 0.011(4) 0.000
O2A 0.05 0.046 0.04 0 0 0
O3B 0.047(2) 0.041(2) 0.039(2) 0.000 0.000 -0.0222(19)
O3C 0.047 0.041 0.039 0 0 -0.0222
O3A 0.047 0.041 0.039 0 0 0.0222
O4B 0.036 0.048 0.05 0.015 -0.012 0.015
O4Y 0.036 0.048 0.05 0.015 0.012 -0.015
O4AA 0.036(4) 0.048(5) 0.050(4) -0.015(4) 0.012(3) 0.015(4)
O4C 0.036 0.048 0.05 -0.015 0.012 0.015
O4A 0.036 0.048 0.05 0.015 0.012 -0.015
O4Z 0.036 0.048 0.05 0.015 -0.012 0.015
O4X 0.036 0.048 0.05 -0.015 -0.012 -0.015
O5B 0.039 0.0443 0.0514 -0.0147 0.0144 0.0103
O5Y 0.039 0.0443 0.0514 -0.0147 -0.0144 -0.0103
O5AA 0.0390(17) 0.0443(17) 0.0514(18) 0.0147(15) -0.0144(14) 0.0103(14)
O5C 0.039 0.0443 0.0514 0.0147 -0.0144 0.0103
O5A 0.039 0.0443 0.0514 -0.0147 -0.0144 -0.0103
O5Z 0.039 0.0443 0.0514 -0.0147 0.0144 0.0103
O5X 0.039 0.0443 0.0514 0.0147 0.0144 -0.0103
O6B 0.049 0.047 0.044 0 0 0
O7B 0.031 0.035 0.032 0 0.019 0
O7C 0.031 0.035 0.032 0 -0.019 0
O7A 0.031(5) 0.035(5) 0.032(5) 0.000 -0.019(4) 0.000
O8B 0.045 0.041 0.037 -0.01 0.01 -0.002
O8Y 0.045 0.041 0.037 -0.01 -0.01 0.002
O8AA 0.045(4) 0.041(3) 0.037(4) 0.010(3) -0.010(3) -0.002(3)
O8A 0.045 0.041 0.037 -0.01 -0.01 0.002
O8Z 0.045 0.041 0.037 -0.01 0.01 -0.002
O8C 0.045 0.041 0.037 0.01 -0.01 -0.002
O8X 0.045 0.041 0.037 0.01 0.01 0.002
O9 0.048(3) 0.042(2) 0.052(3) 0.000 0.000 0.010(2)
O10 0.0503(14) 0.0503(14) 0.0503(14) -0.0003(16) -0.0003(16) -0.0003(16)
O11 0.036(3) 0.036(3) 0.036(3) 0.000 0.000 0.000
C3 0.047 0.053 0.053 0.006 0.001 0.001
C4 0.043 0.032 0.052 0.0003 0.009 0.0103
C5 0.046 0.048 0.036 -0.0067 0.0002 -0.015
C6 0.041 0.056 0.05 -0.001 0.001 0.006
C7 0.034 0.041 0.042 0.0013 -0.0038 0.0025
Co1 0.0385 0.0385 0.0385 -0.0031 0.0031 -0.0031
N2 0.04 0.042 0.039 -0.0032 -0.0006 -0.0128
O12 0.0382 0.0295 0.0398 -0.0006 0.0097 0.0047
C3Y 0.047 0.053 0.053 -0.006 -0.001 0.001
C3E 0.053 0.047 0.053 0.001 -0.006 -0.001
C3BA 0.053 0.047 0.053 0.001 0.006 0.001
C3K 0.053 0.053 0.047 -0.001 -0.001 0.006
C3HA 0.053 0.053 0.047 0.001 -0.001 -0.006
C4Y 0.043 0.032 0.052 -0.0003 -0.009 0.0103
C4E 0.052 0.043 0.032 0.0103 -0.0003 -0.009
C4BA 0.052 0.043 0.032 0.0103 0.0003 0.009
C4K 0.032 0.052 0.043 -0.009 -0.0103 0.0003
C4HA 0.032 0.052 0.043 0.009 -0.0103 -0.0003
C5Y 0.046 0.048 0.036 0.0067 -0.0002 -0.015
C5E 0.036 0.046 0.048 -0.015 0.0067 -0.0002
C5BA 0.036 0.046 0.048 -0.015 -0.0067 0.0002
C5K 0.048 0.036 0.046 -0.0002 0.015 -0.0067
C5HA 0.048 0.036 0.046 0.0002 0.015 0.0067
C6Y 0.041 0.056 0.05 0.001 -0.001 0.006
C6E 0.05 0.041 0.056 0.006 0.001 -0.001
C6BA 0.05 0.041 0.056 0.006 -0.001 0.001
C6K 0.056 0.05 0.041 -0.001 -0.006 -0.001
C6HA 0.056 0.05 0.041 0.001 -0.006 0.001
C7Y 0.034 0.041 0.042 -0.0013 0.0038 0.0025
C7E 0.042 0.034 0.041 0.0025 -0.0013 0.0038
C7BA 0.042 0.034 0.041 0.0025 0.0013 -0.0038
C7K 0.041 0.042 0.034 0.0038 -0.0025 0.0013
C7HA 0.041 0.042 0.034 -0.0038 -0.0025 -0.0013
Co1M 0.0385 0.0385 0.0385 0.0031 -0.0031 -0.0031
Co1O 0.0385 0.0385 0.0385 -0.0031 -0.0031 0.0031
Co1N 0.0385 0.0385 0.0385 0.0031 0.0031 0.0031
N2Y 0.04 0.042 0.039 0.0032 0.0006 -0.0128
N2E 0.039 0.04 0.042 -0.0128 0.0032 0.0006
N2BA 0.039 0.04 0.042 -0.0128 -0.0032 -0.0006
N2K 0.042 0.039 0.04 0.0006 0.0128 -0.0032
N2HA 0.042 0.039 0.04 -0.0006 0.0128 0.0032
O12Y 0.0382 0.0295 0.0398 0.0006 -0.0097 0.0047
O12E 0.0398 0.0382 0.0295 0.0047 0.0006 -0.0097
O12BA 0.0398 0.0382 0.0295 0.0047 -0.0006 0.0097
O12K 0.0295 0.0398 0.0382 -0.0097 -0.0047 -0.0006
O12HA 0.0295 0.0398 0.0382 0.0097 -0.0047 0.0006
O12JA 0.0382 0.0295 0.0398 -0.0006 0.0097 0.0047
O12OA 0.0398 0.0382 0.0295 0.0047 0.0006 -0.0097
O12UA 0.0295 0.0398 0.0382 -0.0097 -0.0047 -0.0006
C1 0.045(4) 0.054(4) 0.046(4) 0.017(3) 0.000 0.000
C2 0.043(4) 0.033(3) 0.042(3) 0.013(3) 0.000 0.000
N1 0.051(4) 0.047(3) 0.050(4) 0.017(3) 0.000 0.000
loop_
_geom_bond_atom_site_label_1
_geom_bond_atom_site_label_2
_geom_bond_site_symmetry_1
_geom_bond_site_symmetry_2
C1 C2 1_555 1_555
C2 H1 1_555 1_555
N1 C1 1_555 1_555
Mo1 O2 1_555 1_555
Mo2 O1 1_555 1_555
Mo3 O1 1_555 1_555
O1 P1 1_555 1_555
O3 Mo2 1_555 1_555
O4 Mo1 1_555 1_555
O5 Mo2 1_555 1_555
O6 Mo3 1_555 1_555
O7 Mo2 1_555 1_555
O8 Mo2 1_555 1_555
P1 O1B 1_555 1_555
C3 H2 1_555 1_555
C4 C3 1_555 1_555
H3 C4 1_555 1_555
C5 C4 1_555 1_555
C6 C5 1_555 1_555
H4 C6 1_555 1_555
C7 C6 1_555 1_555
H5 C7 1_555 1_555
Co1 O12 1_555 1_555
N2 C3 1_555 1_555
O12 N2 1_555 1_555
H1AA C2 1_555 1_555
Mo1A O2A 1_555 1_555
Mo2B O1B 1_555 1_555
Mo2Y O3 1_555 1_555
Mo2AA O1A 1_555 1_555
Mo2C O1C 1_555 1_555
Mo2A O1A 1_555 1_555
Mo2Z O1 1_555 1_555
Mo2X O1B 1_555 1_555
Mo3B O1B 1_555 1_555
O1C P1 1_555 1_555
O1A Mo3 1_555 1_555
O3B Mo2B 1_555 1_555
O3C Mo2C 1_555 1_555
O3A Mo2A 1_555 1_555
O4B Mo1 1_555 1_555
O4Y Mo1 1_555 1_555
O4AA Mo1 1_555 1_555
O4C Mo1A 1_555 1_555
O4A Mo1A 1_555 1_555
O4Z Mo1A 1_555 1_555
O4X Mo1A 1_555 1_555
O5B Mo2B 1_555 1_555
O5Y Mo2Y 1_555 1_555
O5AA Mo2AA 1_555 1_555
O5C Mo2C 1_555 1_555
O5A Mo2A 1_555 1_555
O5Z Mo2Z 1_555 1_555
O5X Mo2X 1_555 1_555
O6B Mo3B 1_555 1_555
O7B Mo2B 1_555 1_555
O7C Mo2Y 1_555 1_555
O7A Mo2AA 1_555 1_555
O8B Mo2B 1_555 1_555
O8Y Mo2Y 1_555 1_555
O8AA Mo3 1_555 1_555
O8A Mo3 1_555 1_555
O8Z Mo3 1_555 1_555
O8C Mo2C 1_555 1_555
O8X Mo2X 1_555 1_555
C3Y H2Y 1_555 1_555
C3E H2E 1_555 1_555
C3BA H2BA 1_555 1_555
C3K H2K 1_555 1_555
C3HA H2HA 1_555 1_555
C4Y C3Y 1_555 1_555
C4E C3E 1_555 1_555
C4BA C3BA 1_555 1_555
C4K C3K 1_555 1_555
C4HA C3HA 1_555 1_555
H3Y C4Y 1_555 1_555
H3E C4E 1_555 1_555
H3BA C4BA 1_555 1_555
H3K C4K 1_555 1_555
H3HA C4HA 1_555 1_555
C5Y C5 1_555 1_555
C5E C4E 1_555 1_555
C5BA C4BA 1_555 1_555
C5K C4K 1_555 1_555
C5HA C4HA 1_555 1_555
C6Y C5Y 1_555 1_555
C6E C5E 1_555 1_555
C6BA C5BA 1_555 1_555
C6K C5K 1_555 1_555
C6HA C5HA 1_555 1_555
H4Y C6Y 1_555 1_555
H4E C6E 1_555 1_555
H4BA C6BA 1_555 1_555
H4K C6K 1_555 1_555
H4HA C6HA 1_555 1_555
C7Y C6Y 1_555 1_555
C7E C6E 1_555 1_555
C7BA C6BA 1_555 1_555
C7K C6K 1_555 1_555
C7HA C6HA 1_555 1_555
H5Y C7Y 1_555 1_555
H5E C7E 1_555 1_555
H5BA C7BA 1_555 1_555
H5K C7K 1_555 1_555
H5HA C7HA 1_555 1_555
Co1M O12Y 1_555 1_555
Co1O O12BA 1_555 1_555
Co1N O12HA 1_555 1_555
N2Y C3Y 1_555 1_555
N2E C3E 1_555 1_555
N2BA C3BA 1_555 1_555
N2K C3K 1_555 1_555
N2HA C3HA 1_555 1_555
O12Y N2Y 1_555 1_555
O12E Co1 1_555 1_555
O12BA N2BA 1_555 1_555
O12K Co1 1_555 1_555
O12HA N2HA 1_555 1_555
O12JA Co1 1_555 1_555
O12OA Co1 1_555 1_555
O12UA Co1 1_555 1_555
Mo2 O4 1_555 1_555
Mo3 O8 1_555 1_555
O7 Mo2Z 1_555 1_555
P1 O1A 1_555 1_555
C7 N2 1_555 1_555
Mo2B O4B 1_555 1_555
Mo2Y O1C 1_555 1_555
Mo2Y O4Y 1_555 1_555
Mo2AA O3B 1_555 1_555
Mo2AA O4AA 1_555 1_555
Mo2AA O8AA 1_555 1_555
Mo2C O4C 1_555 1_555
Mo2C O7C 1_555 1_555
Mo2A O4A 1_555 1_555
Mo2A O7A 1_555 1_555
Mo2A O8A 1_555 1_555
Mo2Z O3C 1_555 1_555
Mo2Z O4Z 1_555 1_555
Mo2Z O8Z 1_555 1_555
Mo2X O3A 1_555 1_555
Mo2X O4X 1_555 1_555
Mo2X O7B 1_555 1_555
Mo3B O1C 1_555 1_555
Mo3B O8B 1_555 1_555
Mo3B O8Y 1_555 1_555
Mo3B O8C 1_555 1_555
Mo3B O8X 1_555 1_555
C4Y C5Y 1_555 1_555
C5E C5BA 1_555 1_555
C5K C5HA 1_555 1_555
C7Y N2Y 1_555 1_555
C7E N2E 1_555 1_555
C7BA N2BA 1_555 1_555
C7K N2K 1_555 1_555
C7HA N2HA 1_555 1_555
N2E O12E 1_555 1_555
N2K O12K 1_555 1_555

#END
