
#######################################################################
#
#                 Cambridge Crystallographic Data Centre
#                                CCDC 
#
#######################################################################
#
# If this CIF has been generated from an entry in the Cambridge 
# Structural Database, then it will include bibliographic, chemical, 
# crystal, experimental, refinement or atomic coordinate data resulting 
# from the CCDC's data processing and validation procedures.
#
#######################################################################

data_SACBUW
_chemical_formula_moiety         '(C18 H12 N6 O4 Zn1)n'
_symmetry_cell_setting           orthorhombic
_symmetry_space_group_name_H-M   'P b c a'
_symmetry_Int_Tables_number      61
_space_group_name_Hall           '-P 2ac 2ab'
loop_
_symmetry_equiv_pos_site_id
_symmetry_equiv_pos_as_xyz
1 x,y,z
2 1/2-x,-y,1/2+z
3 1/2+x,1/2-y,-z
4 -x,1/2+y,1/2-z
5 -x,-y,-z
6 1/2+x,y,1/2-z
7 1/2-x,1/2+y,z
8 x,1/2-y,1/2+z
_cell_length_a                   17.3420(3)
_cell_length_b                   15.8773(2)
_cell_length_c                   18.8550(3)
_cell_angle_alpha                90
_cell_angle_beta                 90
_cell_angle_gamma                90
_cell_volume                     5191.61
loop_
_atom_site_label
_atom_site_type_symbol
_atom_site_fract_x
_atom_site_fract_y
_atom_site_fract_z
_atom_site_U_iso_or_equiv
_atom_site_thermal_displace_type
Zn1 Zn 0.24225(2) 0.01105(2) 0.03270(2) 0.0336 Uani
O1 O 0.69938(14) -0.39620(14) -0.02116(13) 0.0549 Uani
N1 N 0.26991(16) 0.12310(15) -0.16677(13) 0.0429 Uani
N2 N 0.26185(14) 0.05070(16) -0.06951(13) 0.0398 Uani
O2 O 0.60257(17) -0.47981(14) 0.00032(17) 0.0631 Uani
N3 N 0.35167(15) -0.03321(16) 0.05481(14) 0.0439 Uani
C1 C 0.37716(18) -0.1066(2) 0.03356(16) 0.0435 Uani
H1 H 0.3501 -0.1437 0.0046 0.0520 Uiso
O3 O 0.23063(16) 0.36766(18) -0.43272(15) 0.0634 Uani
C2 C 0.50490(19) -0.3418(2) 0.03028(18) 0.0497 Uani
H2 H 0.4824 -0.3950 0.0294 0.0600 Uiso
N4 N 0.44782(15) -0.12047(16) 0.05964(16) 0.0487 Uani
O4 O 0.22450(18) 0.45985(17) -0.34743(18) 0.0707 Uani
N5 N 0.3100(2) 0.00723(16) -0.11496(15) 0.0513 Uani
C3 C 0.57193(19) -0.1824(2) 0.0303(2) 0.0533 Uani
H3 H 0.5938 -0.1289 0.0297 0.0640 Uiso
C4 C 0.23879(18) 0.1194(2) -0.10135(16) 0.0414 Uani
H4 H 0.2060 0.1595 -0.0819 0.0500 Uiso
C5 C 0.49475(17) -0.19326(19) 0.04633(18) 0.0444 Uani
C6 C 0.63066(18) -0.40882(19) -0.00331(16) 0.0442 Uani
C7 C 0.61584(18) -0.2527(2) 0.0149(2) 0.0509 Uani
H5 H 0.6680 -0.2466 0.0049 0.0610 Uiso
C8 C 0.2399(2) 0.3154(2) -0.31554(19) 0.0502 Uani
C9 C 0.58313(17) -0.33245(18) 0.01443(16) 0.0427 Uani
C10 C 0.3141(2) 0.05180(19) -0.17279(16) 0.0506 Uani
H6 H 0.3429 0.0373 -0.2126 0.0610 Uiso
C11 C 0.2449(2) 0.2329(2) -0.3383(2) 0.0537 Uani
H7 H 0.2416 0.2205 -0.3864 0.0640 Uiso
C12 C 0.46098(18) -0.27225(19) 0.0473(2) 0.0502 Uani
H8 H 0.4093 -0.2783 0.0593 0.0600 Uiso
C13 C 0.26067(19) 0.1882(2) -0.21818(16) 0.0448 Uani
N6 N 0.4061(2) 0.0019(2) 0.0979(3) 0.0808 Uani
C14 C 0.2579(2) 0.2715(2) -0.1947(2) 0.0597 Uani
H9 H 0.2635 0.2844 -0.1468 0.0720 Uiso
C15 C 0.2551(2) 0.1678(2) -0.28895(17) 0.0519 Uani
H10 H 0.2580 0.1120 -0.3037 0.0620 Uiso
C16 C 0.23034(19) 0.3866(2) -0.3679(2) 0.0568 Uani
C17 C 0.2467(3) 0.3346(2) -0.2447(2) 0.0624 Uani
H11 H 0.2438 0.3905 -0.2300 0.0750 Uiso
C18 C 0.4632(2) -0.0516(3) 0.0991(3) 0.0873 Uani
H12 H 0.5088 -0.0432 0.1241 0.1050 Uiso
Zn1B Zn 0.74225(2) -0.51105(2) -0.03270(2) 0.0336 Uani
Zn1G Zn 0.24225(2) 0.48895(2) -0.46730(2) 0.0336 Uani
O1B O 0.19938(14) -0.10380(14) 0.02116(13) 0.0549 Uani
O2B O 0.10257(17) -0.02019(14) -0.00032(17) 0.0631 Uani
O3G O 0.23063(16) 0.13234(18) 0.06728(15) 0.0634 Uani
O4G O 0.22450(18) 0.04015(17) 0.15257(18) 0.0707 Uani
loop_
_atom_site_aniso_label
_atom_site_aniso_U_11
_atom_site_aniso_U_22
_atom_site_aniso_U_33
_atom_site_aniso_U_23
_atom_site_aniso_U_13
_atom_site_aniso_U_12
Zn1 0.0404(3) 0.0254(3) 0.0350(3) -0.00019(12) -0.00154(13) 0.00229(13)
O1 0.0531 0.0434 0.0681 0.0094 0.0165 0.0136
N1 0.0601(15) 0.0334(12) 0.0353(12) 0.0031(10) 0.0050(10) 0.0044(11)
N2 0.0516(14) 0.0333(12) 0.0346(11) 0.0019(9) 0.0020(9) 0.0062(10)
O2 0.0638(16) 0.0355(11) 0.090(2) -0.0124(11) 0.0029(14) 0.0061(11)
N3 0.0430(13) 0.0388(12) 0.0498(13) -0.0036(11) -0.0087(11) 0.0067(11)
C1 0.0396(15) 0.0404(15) 0.0506(16) -0.0097(11) -0.0076(11) 0.0073(12)
O3 0.0714 0.0617 0.0572 0.0257 -0.001 -0.0026
C2 0.0445(17) 0.0347(14) 0.070(2) -0.0019(12) 0.0005(13) -0.0019(13)
N4 0.0414(13) 0.0375(12) 0.0671(17) -0.0099(12) -0.0099(11) 0.0064(10)
O4 0.0776 0.0414 0.093 0.0253 0.0059 0.0029
N5 0.0712(19) 0.0391(12) 0.0437(13) 0.0036(10) 0.0082(13) 0.0180(12)
C3 0.0415(16) 0.0334(14) 0.085(2) -0.0050(14) -0.0019(14) -0.0025(13)
C4 0.0548(17) 0.0345(14) 0.0350(13) 0.0008(11) 0.0039(11) 0.0085(12)
C5 0.0392(14) 0.0340(14) 0.0601(17) -0.0045(12) -0.0076(12) 0.0068(12)
C6 0.0466(15) 0.0402(15) 0.0457(15) -0.0019(12) 0.0000(12) 0.0079(13)
C7 0.0361(14) 0.0395(14) 0.077(2) -0.0019(14) 0.0008(14) 0.0012(13)
C8 0.0585(19) 0.0431(17) 0.0491(18) 0.0145(15) 0.0055(13) -0.0014(13)
C9 0.0412(15) 0.0383(14) 0.0485(15) -0.0030(11) 0.0004(11) 0.0053(12)
C10 0.068(2) 0.0441(15) 0.0397(14) 0.0019(11) 0.0105(13) 0.0138(14)
C11 0.076(2) 0.050(2) 0.0352(16) 0.0060(14) 0.0000(13) -0.0015(15)
C12 0.0377(15) 0.0398(16) 0.073(2) -0.0021(14) 0.0049(14) 0.0029(12)
C13 0.0644(19) 0.0327(14) 0.0372(15) 0.0045(12) 0.0038(12) 0.0023(12)
N6 0.063(2) 0.0553(17) 0.124(3) -0.0408(19) -0.040(2) 0.0181(15)
C14 0.104(3) 0.0354(17) 0.0397(18) -0.0005(14) 0.0050(16) 0.0002(15)
C15 0.080(2) 0.0383(16) 0.0374(16) 0.0008(13) 0.0019(14) 0.0008(14)
C16 0.0435 0.059 0.068 0.0274 0.0062 -0.002
C17 0.101(3) 0.0313(16) 0.055(2) 0.0036(15) 0.0086(18) 0.0044(15)
C18 0.061(2) 0.061(2) 0.140(4) -0.048(3) -0.051(3) 0.0231(19)
Zn1B 0.0404 0.0254 0.035 -0.00019 0.00154 -0.00229
Zn1G 0.0404 0.0254 0.035 0.00019 -0.00154 -0.00229
O1B 0.0531 0.0434 0.0681 0.0094 -0.0165 -0.0136
O2B 0.0638 0.0355 0.09 -0.0124 -0.0029 -0.0061
O3G 0.0714 0.0617 0.0572 -0.0257 -0.001 0.0026
O4G 0.0776 0.0414 0.093 -0.0253 0.0059 -0.0029
loop_
_geom_bond_atom_site_label_1
_geom_bond_atom_site_label_2
_geom_bond_site_symmetry_1
_geom_bond_site_symmetry_2
Zn1 N2 1_555 1_555
O1 C6 1_555 1_555
N1 C4 1_555 1_555
N2 N5 1_555 1_555
O2 C6 1_555 1_555
N3 Zn1 1_555 1_555
C1 N3 1_555 1_555
H1 C1 1_555 1_555
O3 C16 1_555 1_555
C2 H2 1_555 1_555
N4 C1 1_555 1_555
O4 C16 1_555 1_555
N5 C10 1_555 1_555
C3 H3 1_555 1_555
C4 N2 1_555 1_555
H4 C4 1_555 1_555
C5 N4 1_555 1_555
C6 C9 1_555 1_555
C7 C3 1_555 1_555
H5 C7 1_555 1_555
C8 C11 1_555 1_555
C9 C2 1_555 1_555
C10 N1 1_555 1_555
H6 C10 1_555 1_555
C11 H7 1_555 1_555
C12 C2 1_555 1_555
H8 C12 1_555 1_555
C13 N1 1_555 1_555
N6 N3 1_555 1_555
C14 C13 1_555 1_555
H9 C14 1_555 1_555
C15 C11 1_555 1_555
H10 C15 1_555 1_555
C16 C8 1_555 1_555
C17 C8 1_555 1_555
H11 C17 1_555 1_555
C18 N4 1_555 1_555
H12 C18 1_555 1_555
Zn1B O1 1_555 1_555
Zn1G O3 1_555 1_555
O1B Zn1 1_555 1_555
O2B Zn1 1_555 1_555
O3G Zn1 1_555 1_555
O4G Zn1 1_555 1_555
O2 Zn1B 1_555 1_555
O4 Zn1G 1_555 1_555
C3 C5 1_555 1_555
C5 C12 1_555 1_555
C7 C9 1_555 1_555
C13 C15 1_555 1_555
N6 C18 1_555 1_555
C14 C17 1_555 1_555

#END
