
#######################################################################
#
#                 Cambridge Crystallographic Data Centre
#                                CCDC 
#
#######################################################################
#
# If this CIF has been generated from an entry in the Cambridge 
# Structural Database, then it will include bibliographic, chemical, 
# crystal, experimental, refinement or atomic coordinate data resulting 
# from the CCDC's data processing and validation procedures.
#
#######################################################################

data_AQODOA
_chemical_formula_moiety         '(C23 H34 Ag2 N8 O7 S2)n'
_symmetry_cell_setting           monoclinic
_symmetry_space_group_name_H-M   'P 21/c'
_symmetry_Int_Tables_number      14
_space_group_name_Hall           '-P 2ybc'
loop_
_symmetry_equiv_pos_site_id
_symmetry_equiv_pos_as_xyz
1 x,y,z
2 -x,1/2+y,1/2-z
3 -x,-y,-z
4 x,1/2-y,1/2+z
_cell_length_a                   6.4420(3)
_cell_length_b                   8.9100(4)
_cell_length_c                   24.4160(13)
_cell_angle_alpha                90
_cell_angle_beta                 97.291(4)
_cell_angle_gamma                90
_cell_volume                     1390.1
loop_
_atom_site_label
_atom_site_type_symbol
_atom_site_fract_x
_atom_site_fract_y
_atom_site_fract_z
Ag1 Ag -0.22426(8) 0.49743(8) 0.30578(3)
S1 S -0.1581(3) 0.8125(2) 0.37855(8)
O1 O -0.0343(9) 0.7015(7) 0.3532(2)
N1 N 0.4734(8) 0.3659(7) 0.3161(2)
O2 O -0.1985(8) 0.9450(6) 0.3444(2)
N2 N 0.2663(9) 0.1510(7) 0.2776(3)
N3 N 0.0955(9) 0.3592(7) 0.3203(2)
O3 O -0.3477(9) 0.7482(7) 0.3949(2)
N4 N 0.3279(10) 0.1878(8) 0.3774(3)
C1 C 0.4444(11) 0.2498(9) 0.2722(3)
H1 H 0.4230 0.2987 0.2365
H2 H 0.5707 0.1898 0.2738
C2 C 0.0041(11) 0.8684(8) 0.4399(3)
C3 C 0.2786(10) 0.4554(8) 0.3134(3)
H3 H 0.2545 0.5064 0.2780
H4 H 0.2944 0.5312 0.3421
C4 C 0.3305(11) 0.8501(9) 0.4983(3)
H5 H 0.4620 0.8061 0.5056
C5 C 0.5044(11) 0.2856(9) 0.3701(3)
H6 H 0.6311 0.2259 0.3722
H7 H 0.5225 0.3586 0.3998
C6 C 0.2706(11) 0.9550(8) 0.5336(3)
H8 H 0.3629 0.9831 0.5643
C7 C 0.1376(12) 0.2790(9) 0.3742(3)
H9 H 0.1522 0.3518 0.4040
H10 H 0.0195 0.2148 0.3790
C8 C 0.0695(11) 1.0223(8) 0.5244(3)
C9 C 0.0753(10) 0.2441(9) 0.2766(3)
H11 H 0.0469 0.2928 0.2409
H12 H -0.0427 0.1796 0.2811
C10 C 0.1958(12) 0.8066(10) 0.4504(3)
H13 H 0.2397 0.7358 0.4263
C11 C 0.3004(12) 0.0780(9) 0.3330(3)
H14 H 0.1814 0.0146 0.3375
H15 H 0.4236 0.0146 0.3352
Ag1B Ag 0.22426(8) 1.50257(8) 0.69422(3)
Ag1_2 Ag 0.77574(8) 0.49743(8) 0.30578(3)
Ag1A Ag 0.22426(8) -0.00257(8) 0.19422(3)
Ag1B_2 Ag -0.77574(8) 1.50257(8) 0.69422(3)
Ag1C Ag -0.22426(8) 2.00257(8) 0.80578(3)
S1B S 0.1581(3) 1.1875(2) 0.62145(8)
O1B O 0.0343(9) 1.2985(7) 0.6468(2)
N1B N -0.4734(8) 1.6341(7) 0.6839(2)
N1_2 N -0.5266(8) 0.3659(7) 0.3161(2)
N1B_2 N 0.5266(8) 1.6341(7) 0.6839(2)
O2B O 0.1985(8) 1.0550(6) 0.6556(2)
N2B N -0.2663(9) 1.8490(7) 0.7224(3)
N2A N -0.2663(9) 0.6510(7) 0.2224(3)
N2C N 0.2663(9) 1.3490(7) 0.7776(3)
N3B N -0.0955(9) 1.6408(7) 0.6797(2)
O3B O 0.3477(9) 1.2518(7) 0.6051(2)
N4B N -0.3279(10) 1.8122(8) 0.6226(3)
C1B C -0.4444(11) 1.7502(9) 0.7278(3)
H1B H -0.4230 1.7013 0.7635
H2B H -0.5707 1.8102 0.7262
C2B C -0.0041(11) 1.1316(8) 0.5601(3)
C3B C -0.2786(10) 1.5446(8) 0.6866(3)
H3B H -0.2545 1.4936 0.7220
H4B H -0.2944 1.4688 0.6579
C4B C -0.3305(11) 1.1499(9) 0.5017(3)
H5B H -0.4620 1.1939 0.4944
C5B C -0.5044(11) 1.7144(9) 0.6299(3)
H6B H -0.6311 1.7741 0.6278
H7B H -0.5225 1.6414 0.6002
C6B C -0.2706(11) 1.0450(8) 0.4664(3)
H8B H -0.3629 1.0169 0.4357
C7B C -0.1376(12) 1.7210(9) 0.6258(3)
H9B H -0.1522 1.6482 0.5960
H10B H -0.0195 1.7852 0.6210
C8B C -0.0695(11) 0.9777(8) 0.4756(3)
C9B C -0.0753(10) 1.7559(9) 0.7234(3)
H11B H -0.0469 1.7072 0.7591
H12B H 0.0427 1.8204 0.7189
C10B C -0.1958(12) 1.1934(10) 0.5496(3)
H13B H -0.2397 1.2642 0.5737
C11B C -0.3004(12) 1.9220(9) 0.6670(3)
H14B H -0.1814 1.9854 0.6625
H15B H -0.4236 1.9854 0.6648
O4 O -0.188(4) 0.527(3) 0.4868(10)
C12 C -0.366(3) 0.544(2) 0.4815(9)
loop_
_geom_bond_atom_site_label_1
_geom_bond_atom_site_label_2
_geom_bond_site_symmetry_1
_geom_bond_site_symmetry_2
Ag1 O1 1_555 1_555
S1 O1 1_555 1_555
N1 C1 1_555 1_555
O2 S1 1_555 1_555
N2 C1 1_555 1_555
N3 Ag1 1_555 1_555
O3 S1 1_555 1_555
N4 C5 1_555 1_555
C1 H1 1_555 1_555
H2 C1 1_555 1_555
C2 S1 1_555 1_555
C3 N1 1_555 1_555
H3 C3 1_555 1_555
H4 C3 1_555 1_555
C4 H5 1_555 1_555
C5 N1 1_555 1_555
H6 C5 1_555 1_555
H7 C5 1_555 1_555
C6 C4 1_555 1_555
H8 C6 1_555 1_555
C7 N3 1_555 1_555
H9 C7 1_555 1_555
H10 C7 1_555 1_555
C8 C6 1_555 1_555
C9 N2 1_555 1_555
H11 C9 1_555 1_555
H12 C9 1_555 1_555
C10 C2 1_555 1_555
H13 C10 1_555 1_555
C11 N2 1_555 1_555
H14 C11 1_555 1_555
H15 C11 1_555 1_555
O4 C12 1_555 1_555
Ag1B O1B 1_555 1_555
Ag1_2 N1 1_555 1_555
Ag1A N2 1_555 1_555
Ag1B_2 N1B 1_555 1_555
Ag1C N2B 1_555 1_555
S1B O1B 1_555 1_555
N1B C1B 1_555 1_555
N1_2 Ag1 1_555 1_555
N1B_2 Ag1B 1_555 1_555
O2B S1B 1_555 1_555
N2B C1B 1_555 1_555
N2A Ag1 1_555 1_555
N2C Ag1B 1_555 1_555
N3B Ag1B 1_555 1_555
O3B S1B 1_555 1_555
N4B C5B 1_555 1_555
C1B H1B 1_555 1_555
H2B C1B 1_555 1_555
C2B C8 1_555 1_555
C3B N1B 1_555 1_555
H3B C3B 1_555 1_555
H4B C3B 1_555 1_555
C4B H5B 1_555 1_555
C5B N1B 1_555 1_555
H6B C5B 1_555 1_555
H7B C5B 1_555 1_555
C6B C4B 1_555 1_555
H8B C6B 1_555 1_555
C7B N3B 1_555 1_555
H9B C7B 1_555 1_555
H10B C7B 1_555 1_555
C8B C2 1_555 1_555
C9B N2B 1_555 1_555
H11B C9B 1_555 1_555
H12B C9B 1_555 1_555
C10B C2B 1_555 1_555
H13B C10B 1_555 1_555
C11B N2B 1_555 1_555
H14B C11B 1_555 1_555
H15B C11B 1_555 1_555
N3 C3 1_555 1_555
N3 C9 1_555 1_555
N4 C7 1_555 1_555
N4 C11 1_555 1_555
C4 C10 1_555 1_555
C8 C8B 1_555 1_555
S1B C2B 1_555 1_555
N3B C3B 1_555 1_555
N3B C9B 1_555 1_555
N4B C7B 1_555 1_555
N4B C11B 1_555 1_555
C4B C10B 1_555 1_555
C6B C8B 1_555 1_555

#END
