
#######################################################################
#
#                 Cambridge Crystallographic Data Centre
#                                CCDC 
#
#######################################################################
#
# If this CIF has been generated from an entry in the Cambridge 
# Structural Database, then it will include bibliographic, chemical, 
# crystal, experimental, refinement or atomic coordinate data resulting 
# from the CCDC's data processing and validation procedures.
#
#######################################################################

data_KEJQAR01
_chemical_formula_moiety         '(C9 H6 Al18 N4 O99 P24 24-)n'
_symmetry_cell_setting           cubic
_symmetry_space_group_name_H-M   'I -4 3 m'
_symmetry_Int_Tables_number      217
_space_group_name_Hall           'I -4 2 3'
loop_
_symmetry_equiv_pos_site_id
_symmetry_equiv_pos_as_xyz
1 x,y,z
2 -x,-y,z
3 -x,y,-z
4 x,-y,-z
5 z,x,y
6 z,-x,-y
7 -z,-x,y
8 -z,x,-y
9 y,z,x
10 -y,z,-x
11 y,-z,-x
12 -y,-z,x
13 y,x,z
14 -y,-x,z
15 y,-x,-z
16 -y,x,-z
17 x,z,y
18 -x,z,-y
19 -x,-z,y
20 x,-z,-y
21 z,y,x
22 z,-y,-x
23 -z,y,-x
24 -z,-y,x
25 1/2+x,1/2+y,1/2+z
26 1/2-x,1/2-y,1/2+z
27 1/2-x,1/2+y,1/2-z
28 1/2+x,1/2-y,1/2-z
29 1/2+z,1/2+x,1/2+y
30 1/2+z,1/2-x,1/2-y
31 1/2-z,1/2-x,1/2+y
32 1/2-z,1/2+x,1/2-y
33 1/2+y,1/2+z,1/2+x
34 1/2-y,1/2+z,1/2-x
35 1/2+y,1/2-z,1/2-x
36 1/2-y,1/2-z,1/2+x
37 1/2+y,1/2+x,1/2+z
38 1/2-y,1/2-x,1/2+z
39 1/2+y,1/2-x,1/2-z
40 1/2-y,1/2+x,1/2-z
41 1/2+x,1/2+z,1/2+y
42 1/2-x,1/2+z,1/2-y
43 1/2-x,1/2-z,1/2+y
44 1/2+x,1/2-z,1/2-y
45 1/2+z,1/2+y,1/2+x
46 1/2+z,1/2-y,1/2-x
47 1/2-z,1/2+y,1/2-x
48 1/2-z,1/2-y,1/2+x
_cell_length_a                   16.77050(10)
_cell_length_b                   16.77050(10)
_cell_length_c                   16.77050(10)
_cell_angle_alpha                90
_cell_angle_beta                 90
_cell_angle_gamma                90
_cell_volume                     4716.7
loop_
_atom_site_label
_atom_site_type_symbol
_atom_site_fract_x
_atom_site_fract_y
_atom_site_fract_z
N1 N 0.80089(15) 0.19911(15) 0.80089(15)
C1 C 0.8223(3) 0.1268(3) 0.7563(3)
C2 C 0.8571(2) 0.14291(14) 0.67330(14)
N2 N 0.80435(13) 0.19565(16) 0.62587(13)
C1M C 0.8732(3) 0.1777(3) 0.7563(3)
C1E C 0.7563(3) 0.1777(3) 0.8732(3)
C1T C 0.7563(3) 0.1268(3) 0.8223(3)
C1K C 0.8732(3) 0.2437(3) 0.8223(3)
C1S C 0.8223(3) 0.2437(3) 0.8732(3)
C2E C 0.67330(14) 0.1429(2) 0.85709(14)
C2K C 0.85709(14) 0.32670(14) 0.8571(2)
N2K N 0.80435(16) 0.37413(13) 0.80435(13)
N2E N 0.62587(13) 0.19565(13) 0.80435(16)
O4 O 1.0000 1.0000 1.0000
O5 O 1.0934(5) 0.0934(5) 0.9066(5)
O6 O 0.7394(5) 0.4462(5) 0.5538(5)
Al1 Al 1.0000 0.5000 0.5000
Al2 Al 1.0000 0.5000 0.7500
P1 P 0.93327(4) 0.37690(3) 0.62310(3)
O1 O 0.84816(14) 0.35684(11) 0.64316(11)
O2 O 0.98002(11) 0.40658(12) 0.69634(10)
O3 O 0.93621(14) 0.44192(9) 0.55808(9)
O2S O 0.98002(11) 0.30366(10) 0.59342(12)
P1A P 1.06673(4) 0.62310(3) 0.62310(3)
O1A O 1.15184(14) 0.64316(11) 0.64316(11)
O2A O 1.01998(11) 0.59342(12) 0.69634(10)
O3A O 1.06379(14) 0.55808(9) 0.55808(9)
O2Q O 1.01998(11) 0.69634(10) 0.59342(12)
P1B P 1.06673(4) 0.37690(3) 0.37690(3)
O1B O 1.15184(14) 0.35684(11) 0.35684(11)
O2B O 1.01998(11) 0.40658(12) 0.30366(10)
O3B O 1.06379(14) 0.44192(9) 0.44192(9)
O2R O 1.01998(11) 0.30366(10) 0.40658(12)
P1C P 0.93327(4) 0.62310(3) 0.37690(3)
O1C O 0.84816(14) 0.64316(11) 0.35684(11)
O2C O 0.98002(11) 0.59342(12) 0.30366(10)
O3C O 0.93621(14) 0.55808(9) 0.44192(9)
O2P O 0.98002(11) 0.69634(10) 0.40658(12)
Al2S Al 1.0000 0.2500 0.5000
Al2Q Al 1.0000 0.7500 0.5000
Al2B Al 1.0000 0.5000 0.2500
P1LA P 0.87690(3) 0.56673(4) 0.87690(3)
O1LA O 0.85684(11) 0.65184(14) 0.85684(11)
O2LA O 0.90658(12) 0.51998(11) 0.80366(10)
O3LA O 0.94192(9) 0.56379(14) 0.94192(9)
O2DA O 0.80366(10) 0.51998(11) 0.90658(12)
P1MA P 1.12310(3) 0.43327(4) 0.87690(3)
O1MA O 1.14316(11) 0.34816(14) 0.85684(11)
O2MA O 1.09342(12) 0.48002(11) 0.80366(10)
O3MA O 1.05808(9) 0.43621(14) 0.94192(9)
O2BA O 1.19634(10) 0.48002(11) 0.90658(12)
P1FA P 0.87690(3) 0.12310(3) 0.43327(4)
O1FA O 0.85684(11) 0.14316(11) 0.34816(14)
O2FA O 0.90658(12) 0.19634(10) 0.48002(11)
O3FA O 0.94192(9) 0.05808(9) 0.43621(14)
O2UA O 0.80366(10) 0.09342(12) 0.48002(11)
P1GA P 1.12310(3) 0.12310(3) 0.56673(4)
O1GA O 1.14316(11) 0.14316(11) 0.65184(14)
O2GA O 1.09342(12) 0.19634(10) 0.51998(11)
O3GA O 1.05808(9) 0.05808(9) 0.56379(14)
O2SA O 1.19634(10) 0.09342(12) 0.51998(11)
P1IA P 1.12310(3) 0.87690(3) 0.43327(4)
O1IA O 1.14316(11) 0.85684(11) 0.34816(14)
O2IA O 1.09342(12) 0.80366(10) 0.48002(11)
O3IA O 1.05808(9) 0.94192(9) 0.43621(14)
O2RA O 1.19634(10) 0.90658(12) 0.48002(11)
P1HA P 0.87690(3) 0.87690(3) 0.56673(4)
O1HA O 0.85684(11) 0.85684(11) 0.65184(14)
O2HA O 0.90658(12) 0.80366(10) 0.51998(11)
O3HA O 0.94192(9) 0.94192(9) 0.56379(14)
O2TA O 0.80366(10) 0.90658(12) 0.51998(11)
P1KA P 1.12310(3) 0.56673(4) 0.12310(3)
O1KA O 1.14316(11) 0.65184(14) 0.14316(11)
O2KA O 1.09342(12) 0.51998(11) 0.19634(10)
O3KA O 1.05808(9) 0.56379(14) 0.05808(9)
O2CA O 1.19634(10) 0.51998(11) 0.09342(12)
P1JA P 0.87690(3) 0.43327(4) 0.12310(3)
O1JA O 0.85684(11) 0.34816(14) 0.14316(11)
O2JA O 0.90658(12) 0.48002(11) 0.19634(10)
O3JA O 0.94192(9) 0.43621(14) 0.05808(9)
O2EA O 0.80366(10) 0.48002(11) 0.09342(12)
Al1LA Al 1.0000 0.5000 1.0000
Al1FA Al 1.0000 0.0000 0.5000
Al1IA Al 1.0000 1.0000 0.5000
Al1KA Al 1.0000 0.5000 0.0000
Al2DA Al 0.7500 0.5000 1.0000
Al2BA Al 1.2500 0.5000 1.0000
Al2UA Al 0.7500 0.0000 0.5000
Al2SA Al 1.2500 0.0000 0.5000
Al2RA Al 1.2500 1.0000 0.5000
Al2TA Al 0.7500 1.0000 0.5000
Al2CA Al 1.2500 0.5000 0.0000
Al2EA Al 0.7500 0.5000 0.0000
P1JA_2 P 0.87690(3) 0.43327(4) 1.12310(3)
O1JA_2 O 0.85684(11) 0.34816(14) 1.14316(11)
O2JA_2 O 0.90658(12) 0.48002(11) 1.19634(10)
O3JA_2 O 0.94192(9) 0.43621(14) 1.05808(9)
O2EA_2 O 0.80366(10) 0.48002(11) 1.09342(12)
P1KA_2 P 1.12310(3) 0.56673(4) 1.12310(3)
O1KA_2 O 1.14316(11) 0.65184(14) 1.14316(11)
O2KA_2 O 1.09342(12) 0.51998(11) 1.19634(10)
O3KA_2 O 1.05808(9) 0.56379(14) 1.05808(9)
O2CA_2 O 1.19634(10) 0.51998(11) 1.09342(12)
P1HA_2 P 0.87690(3) -0.12310(3) 0.56673(4)
O1HA_2 O 0.85684(11) -0.14316(11) 0.65184(14)
O2HA_2 O 0.90658(12) -0.19634(10) 0.51998(11)
O3HA_2 O 0.94192(9) -0.05808(9) 0.56379(14)
O2TA_2 O 0.80366(10) -0.09342(12) 0.51998(11)
P1IA_2 P 1.12310(3) -0.12310(3) 0.43327(4)
O1IA_2 O 1.14316(11) -0.14316(11) 0.34816(14)
O2IA_2 O 1.09342(12) -0.19634(10) 0.48002(11)
O3IA_2 O 1.05808(9) -0.05808(9) 0.43621(14)
O2RA_2 O 1.19634(10) -0.09342(12) 0.48002(11)
P1GA_2 P 1.12310(3) 1.12310(3) 0.56673(4)
O1GA_2 O 1.14316(11) 1.14316(11) 0.65184(14)
O2GA_2 O 1.09342(12) 1.19634(10) 0.51998(11)
O3GA_2 O 1.05808(9) 1.05808(9) 0.56379(14)
O2SA_2 O 1.19634(10) 1.09342(12) 0.51998(11)
P1FA_2 P 0.87690(3) 1.12310(3) 0.43327(4)
O1FA_2 O 0.85684(11) 1.14316(11) 0.34816(14)
O2FA_2 O 0.90658(12) 1.19634(10) 0.48002(11)
O3FA_2 O 0.94192(9) 1.05808(9) 0.43621(14)
O2UA_2 O 0.80366(10) 1.09342(12) 0.48002(11)
P1MA_2 P 1.12310(3) 0.43327(4) -0.12310(3)
O1MA_2 O 1.14316(11) 0.34816(14) -0.14316(11)
O2MA_2 O 1.09342(12) 0.48002(11) -0.19634(10)
O3MA_2 O 1.05808(9) 0.43621(14) -0.05808(9)
O2BA_2 O 1.19634(10) 0.48002(11) -0.09342(12)
P1LA_2 P 0.87690(3) 0.56673(4) -0.12310(3)
O1LA_2 O 0.85684(11) 0.65184(14) -0.14316(11)
O2LA_2 O 0.90658(12) 0.51998(11) -0.19634(10)
O3LA_2 O 0.94192(9) 0.56379(14) -0.05808(9)
O2DA_2 O 0.80366(10) 0.51998(11) -0.09342(12)
P1U P 0.62310(3) 0.62310(3) 1.06673(4)
O1U O 0.64316(11) 0.64316(11) 1.15184(14)
O2U O 0.69634(10) 0.59342(12) 1.01998(11)
O3U O 0.55808(9) 0.55808(9) 1.06379(14)
O2I O 0.59342(12) 0.69634(10) 1.01998(11)
P1T P 0.62310(3) 0.37690(3) 0.93327(4)
O1T O 0.64316(11) 0.35684(11) 0.84816(14)
O2T O 0.69634(10) 0.40658(12) 0.98002(11)
O3T O 0.55808(9) 0.44192(9) 0.93621(14)
O2K O 0.59342(12) 0.30366(10) 0.98002(11)
P1V P 1.37690(3) 0.37690(3) 1.06673(4)
O1V O 1.35684(11) 0.35684(11) 1.15184(14)
O2V O 1.30366(10) 0.40658(12) 1.01998(11)
O3V O 1.44192(9) 0.44192(9) 1.06379(14)
O2J O 1.40658(12) 0.30366(10) 1.01998(11)
P1W P 1.37690(3) 0.62310(3) 0.93327(4)
O1W O 1.35684(11) 0.64316(11) 0.84816(14)
O2W O 1.30366(10) 0.59342(12) 0.98002(11)
O3W O 1.44192(9) 0.55808(9) 0.93621(14)
O2H O 1.40658(12) 0.69634(10) 0.98002(11)
Al1U Al 0.5000 0.5000 1.0000
O2D O 0.69634(10) -0.01998(11) 0.40658(12)
O2E O 0.69634(10) 0.01998(11) 0.59342(12)
O2F O 1.30366(10) 0.01998(11) 0.40658(12)
O2G O 1.30366(10) -0.01998(11) 0.59342(12)
O2F_2 O 1.30366(10) 1.01998(11) 0.40658(12)
O2G_2 O 1.30366(10) 0.98002(11) 0.59342(12)
O2D_2 O 0.69634(10) 0.98002(11) 0.40658(12)
O2E_2 O 0.69634(10) 1.01998(11) 0.59342(12)
O2V_2 O 1.30366(10) 0.40658(12) 0.01998(11)
O2W_2 O 1.30366(10) 0.59342(12) -0.01998(11)
O2T_2 O 0.69634(10) 0.40658(12) -0.01998(11)
O2U_2 O 0.69634(10) 0.59342(12) 0.01998(11)
Al2B_2 Al 1.0000 0.5000 1.2500
Al2P Al 1.0000 -0.2500 0.5000
Al2R Al 1.0000 1.2500 0.5000
Al2_2 Al 1.0000 0.5000 -0.2500
Al2H Al 0.5000 0.7500 1.0000
Al2J Al 0.5000 0.2500 1.0000
Al1H Al 1.5000 0.5000 1.0000
Al2J_2 Al 1.5000 0.2500 1.0000
Al2H_2 Al 1.5000 0.7500 1.0000
O3H O 0.44192(9) 0.55808(9) 0.93621(14)
O3J O 0.44192(9) 0.44192(9) 1.06379(14)
loop_
_geom_bond_atom_site_label_1
_geom_bond_atom_site_label_2
_geom_bond_site_symmetry_1
_geom_bond_site_symmetry_2
Al1 O3 1_555 1_555
Al2 O2 1_555 1_555
P1 O1 1_555 1_555
O2 P1 1_555 1_555
O3 P1 1_555 1_555
N1 C1 1_555 1_555
C1 C2 1_555 1_555
C2 N2 1_555 1_555
O2S P1 1_555 1_555
C1M N1 1_555 1_555
C1E N1 1_555 1_555
C1T N1 1_555 1_555
C1K N1 1_555 1_555
C1S N1 1_555 1_555
C2E C1E 1_555 1_555
C2K C1K 1_555 1_555
N2K C2K 1_555 1_555
N2E C2E 1_555 1_555
P1A O1A 1_555 1_555
O2A Al2 1_555 1_555
O3A Al1 1_555 1_555
O2Q P1A 1_555 1_555
P1B O1B 1_555 1_555
O2B P1B 1_555 1_555
O3B Al1 1_555 1_555
O2R P1B 1_555 1_555
P1C O1C 1_555 1_555
O2C P1C 1_555 1_555
O3C Al1 1_555 1_555
O2P P1C 1_555 1_555
Al2S O2S 1_555 1_555
Al2Q O2Q 1_555 1_555
Al2B O2B 1_555 1_555
P1LA O1LA 1_555 1_555
O2LA Al2 1_555 1_555
O3LA P1LA 1_555 1_555
O2DA P1LA 1_555 1_555
P1MA O1MA 1_555 1_555
O2MA Al2 1_555 1_555
O3MA P1MA 1_555 1_555
O2BA P1MA 1_555 1_555
P1FA O1FA 1_555 1_555
O2FA Al2S 1_555 1_555
O3FA P1FA 1_555 1_555
O2UA P1FA 1_555 1_555
P1GA O1GA 1_555 1_555
O2GA Al2S 1_555 1_555
O3GA P1GA 1_555 1_555
O2SA P1GA 1_555 1_555
P1IA O1IA 1_555 1_555
O2IA Al2Q 1_555 1_555
O3IA P1IA 1_555 1_555
O2RA P1IA 1_555 1_555
P1HA O1HA 1_555 1_555
O2HA Al2Q 1_555 1_555
O3HA P1HA 1_555 1_555
O2TA P1HA 1_555 1_555
P1KA O1KA 1_555 1_555
O2KA Al2B 1_555 1_555
O3KA P1KA 1_555 1_555
O2CA P1KA 1_555 1_555
P1JA O1JA 1_555 1_555
O2JA Al2B 1_555 1_555
O3JA P1JA 1_555 1_555
O2EA P1JA 1_555 1_555
Al1LA O3LA 1_555 1_555
Al1FA O3FA 1_555 1_555
Al1IA O3IA 1_555 1_555
Al1KA O3KA 1_555 1_555
Al2DA O2DA 1_555 1_555
Al2BA O2BA 1_555 1_555
Al2UA O2UA 1_555 1_555
Al2SA O2SA 1_555 1_555
Al2RA O2RA 1_555 1_555
Al2TA O2TA 1_555 1_555
Al2CA O2CA 1_555 1_555
Al2EA O2EA 1_555 1_555
P1JA_2 O1JA_2 1_555 1_555
O2JA_2 P1JA_2 1_555 1_555
O3JA_2 Al1LA 1_555 1_555
O2EA_2 Al2DA 1_555 1_555
P1KA_2 O1KA_2 1_555 1_555
O2KA_2 P1KA_2 1_555 1_555
O3KA_2 Al1LA 1_555 1_555
O2CA_2 Al2BA 1_555 1_555
P1HA_2 O1HA_2 1_555 1_555
O2HA_2 P1HA_2 1_555 1_555
O3HA_2 Al1FA 1_555 1_555
O2TA_2 Al2UA 1_555 1_555
P1IA_2 O1IA_2 1_555 1_555
O2IA_2 P1IA_2 1_555 1_555
O3IA_2 Al1FA 1_555 1_555
O2RA_2 Al2SA 1_555 1_555
P1GA_2 O1GA_2 1_555 1_555
O2GA_2 P1GA_2 1_555 1_555
O3GA_2 Al1IA 1_555 1_555
O2SA_2 Al2RA 1_555 1_555
P1FA_2 O1FA_2 1_555 1_555
O2FA_2 P1FA_2 1_555 1_555
O3FA_2 Al1IA 1_555 1_555
O2UA_2 Al2TA 1_555 1_555
P1MA_2 O1MA_2 1_555 1_555
O2MA_2 P1MA_2 1_555 1_555
O3MA_2 Al1KA 1_555 1_555
O2BA_2 Al2CA 1_555 1_555
P1LA_2 O1LA_2 1_555 1_555
O2LA_2 P1LA_2 1_555 1_555
O3LA_2 Al1KA 1_555 1_555
O2DA_2 Al2EA 1_555 1_555
P1U O1U 1_555 1_555
O2U Al2DA 1_555 1_555
O3U P1U 1_555 1_555
O2I P1U 1_555 1_555
P1T O1T 1_555 1_555
O2T Al2DA 1_555 1_555
O3T P1T 1_555 1_555
O2K P1T 1_555 1_555
P1V O1V 1_555 1_555
O2V Al2BA 1_555 1_555
O3V P1V 1_555 1_555
O2J P1V 1_555 1_555
P1W O1W 1_555 1_555
O2W Al2BA 1_555 1_555
O3W P1W 1_555 1_555
O2H P1W 1_555 1_555
Al1U O3U 1_555 1_555
O2D Al2UA 1_555 1_555
O2E Al2UA 1_555 1_555
O2F Al2SA 1_555 1_555
O2G Al2SA 1_555 1_555
O2F_2 Al2RA 1_555 1_555
O2G_2 Al2RA 1_555 1_555
O2D_2 Al2TA 1_555 1_555
O2E_2 Al2TA 1_555 1_555
O2V_2 Al2CA 1_555 1_555
O2W_2 Al2CA 1_555 1_555
O2T_2 Al2EA 1_555 1_555
O2U_2 Al2EA 1_555 1_555
Al2B_2 O2JA_2 1_555 1_555
Al2P O2HA_2 1_555 1_555
Al2R O2GA_2 1_555 1_555
Al2_2 O2MA_2 1_555 1_555
Al2H O2I 1_555 1_555
Al2J O2K 1_555 1_555
Al1H O3V 1_555 1_555
Al2J_2 O2J 1_555 1_555
Al2H_2 O2H 1_555 1_555
O3H Al1U 1_555 1_555
O3J Al1U 1_555 1_555
C1 C1M 1_555 1_555
C1 C1T 1_555 1_555
C2 C1M 1_555 1_555
C1M C1K 1_555 1_555
C1E C1T 1_555 1_555
C1E C1S 1_555 1_555
C1T C2E 1_555 1_555
C1K C1S 1_555 1_555
C1S C2K 1_555 1_555
P1A O2A 1_555 1_555
P1A O3A 1_555 1_555
P1B O3B 1_555 1_555
O2R Al2S 1_555 1_555
P1C O3C 1_555 1_555
O2C Al2B 1_555 1_555
O2P Al2Q 1_555 1_555
P1LA O2LA 1_555 1_555
P1MA O2MA 1_555 1_555
O3MA Al1LA 1_555 1_555
P1FA O2FA 1_555 1_555
P1GA O2GA 1_555 1_555
O3GA Al1FA 1_555 1_555
P1IA O2IA 1_555 1_555
P1HA O2HA 1_555 1_555
O3HA Al1IA 1_555 1_555
P1KA O2KA 1_555 1_555
P1JA O2JA 1_555 1_555
O3JA Al1KA 1_555 1_555
P1JA_2 O3JA_2 1_555 1_555
P1JA_2 O2EA_2 1_555 1_555
P1KA_2 O3KA_2 1_555 1_555
P1KA_2 O2CA_2 1_555 1_555
O2KA_2 Al2B_2 1_555 1_555
P1HA_2 O2TA_2 1_555 1_555
P1HA_2 O3HA_2 1_555 1_555
P1IA_2 O2RA_2 1_555 1_555
P1IA_2 O3IA_2 1_555 1_555
O2IA_2 Al2P 1_555 1_555
P1GA_2 O3GA_2 1_555 1_555
P1GA_2 O2SA_2 1_555 1_555
P1FA_2 O2UA_2 1_555 1_555
P1FA_2 O3FA_2 1_555 1_555
O2FA_2 Al2R 1_555 1_555
P1MA_2 O3MA_2 1_555 1_555
P1MA_2 O2BA_2 1_555 1_555
P1LA_2 O2DA_2 1_555 1_555
P1LA_2 O3LA_2 1_555 1_555
O2LA_2 Al2_2 1_555 1_555
P1U O2U 1_555 1_555
P1T O2T 1_555 1_555
O3T Al1U 1_555 1_555
P1V O2V 1_555 1_555
P1W O2W 1_555 1_555
O3W Al1H 1_555 1_555

#END
