
#######################################################################
#
#                 Cambridge Crystallographic Data Centre
#                                CCDC 
#
#######################################################################
#
# If this CIF has been generated from an entry in the Cambridge 
# Structural Database, then it will include bibliographic, chemical, 
# crystal, experimental, refinement or atomic coordinate data resulting 
# from the CCDC's data processing and validation procedures.
#
#######################################################################

data_PELRIJ
_chemical_formula_moiety         '(C60 H42 Cu3 N6 O21)n'
_symmetry_cell_setting           cubic
_symmetry_space_group_name_H-M   'P n -3 n'
_symmetry_Int_Tables_number      222
_space_group_name_Hall           '-P 4a 2bc 3'
loop_
_symmetry_equiv_pos_site_id
_symmetry_equiv_pos_as_xyz
1 x,y,z
2 1/2-x,1/2-y,z
3 1/2-x,y,1/2-z
4 x,1/2-y,1/2-z
5 z,x,y
6 z,1/2-x,1/2-y
7 1/2-z,1/2-x,y
8 1/2-z,x,1/2-y
9 y,z,x
10 1/2-y,z,1/2-x
11 y,1/2-z,1/2-x
12 1/2-y,1/2-z,x
13 y,x,1/2-z
14 1/2-y,1/2-x,1/2-z
15 y,1/2-x,z
16 1/2-y,x,z
17 x,z,1/2-y
18 1/2-x,z,y
19 1/2-x,1/2-z,1/2-y
20 x,1/2-z,y
21 z,y,1/2-x
22 z,1/2-y,x
23 1/2-z,y,x
24 1/2-z,1/2-y,1/2-x
25 -x,-y,-z
26 1/2+x,1/2+y,-z
27 1/2+x,-y,1/2+z
28 -x,1/2+y,1/2+z
29 -z,-x,-y
30 -z,1/2+x,1/2+y
31 1/2+z,1/2+x,-y
32 1/2+z,-x,1/2+y
33 -y,-z,-x
34 1/2+y,-z,1/2+x
35 -y,1/2+z,1/2+x
36 1/2+y,1/2+z,-x
37 -y,-x,1/2+z
38 1/2+y,1/2+x,1/2+z
39 -y,1/2+x,-z
40 1/2+y,-x,-z
41 -x,-z,1/2+y
42 1/2+x,-z,-y
43 1/2+x,1/2+z,1/2+y
44 -x,1/2+z,-y
45 -z,-y,1/2+x
46 -z,1/2+y,-x
47 1/2+z,-y,-x
48 1/2+z,1/2+y,1/2+x
_cell_length_a                   32.365(4)
_cell_length_b                   32.365(4)
_cell_length_c                   32.365(4)
_cell_angle_alpha                90
_cell_angle_beta                 90
_cell_angle_gamma                90
_cell_volume                     33902.1
loop_
_atom_site_label
_atom_site_type_symbol
_atom_site_fract_x
_atom_site_fract_y
_atom_site_fract_z
_atom_site_U_iso_or_equiv
_atom_site_thermal_displace_type
Cu1 Cu 0.54042(6) 0.7500 0.2500 0.1515 Uani
O1 O 0.53636(19) 0.71573(19) 0.29672(19) 0.1633 Uani
O2 O 0.4661(2) 0.7154(3) 0.2995(3) 0.2013 Uani
O3 O 0.5669(7) 0.5744(4) 0.4446(5) 0.4157 Uani
O4 O 0.6027(5) 0.7500 0.2500 0.2283 Uani
N1 N 0.5063(3) 0.6104(4) 0.4535(3) 0.2050 Uani
H1 H 0.4859 0.6140 0.4711 0.2460 Uiso
C1 C 0.5021(2) 0.71000(14) 0.30993(16) 0.1423 Uani
C2 C 0.5070(2) 0.68385(14) 0.34870(16) 0.2043 Uani
C3 C 0.5443(2) 0.67044(14) 0.36524(16) 0.2517 Uani
H2 H 0.5696 0.6784 0.3527 0.3000 Uiso
C4 C 0.5445(2) 0.64531(14) 0.40007(16) 0.2330 Uani
H3 H 0.5700 0.6361 0.4114 0.2800 Uiso
C5 C 0.5075(2) 0.63359(14) 0.41835(16) 0.1877 Uani
C6 C 0.4702(2) 0.64700(14) 0.40181(16) 0.2867 Uani
H4 H 0.4448 0.6390 0.4143 0.3450 Uiso
C7 C 0.4699(2) 0.67213(14) 0.36698(16) 0.1887 Uani
H5 H 0.4444 0.6813 0.3557 0.2260 Uiso
C8 C 0.5345(5) 0.5831(5) 0.4615(5) 0.2923 Uani
C9 C 0.5326(5) 0.5566(4) 0.4972(4) 0.2323 Uani
C10 C 0.5008(4) 0.5601(3) 0.5244(4) 0.1957 Uani
H6 H 0.4810 0.5815 0.5211 0.2350 Uiso
Cu1D Cu 0.2500 0.54042(6) 0.7500 0.1515 Uani
Cu1H Cu 0.7500 0.2500 0.54042(6) 0.1515 Uani
Cu1NA Cu 0.45958(6) 0.7500 0.2500 0.1515 Uani
Cu1JA Cu 0.2500 0.45958(6) 0.7500 0.1515 Uani
Cu1SA Cu 0.7500 0.2500 0.45958(6) 0.1515 Uani
Cu1E Cu 0.2500 0.95958(6) -0.2500 0.1515 Uani
Cu1KA Cu 0.2500 1.04042(6) -0.2500 0.1515 Uani
Cu1I Cu 0.7500 1.2500 -0.04042(6) 0.1515 Uani
Cu1RA Cu 0.7500 1.2500 0.04042(6) 0.1515 Uani
O1D O 0.29672(19) 0.53636(19) 0.71573(19) 0.1633 Uani
O1H O 0.71573(19) 0.29672(19) 0.53636(19) 0.1633 Uani
O1C O 0.53636(19) 0.78427(19) 0.20328(19) 0.1633 Uani
O1E O 0.29672(19) 0.96364(19) -0.21573(19) 0.1633 Uani
O1J O 0.71573(19) 1.20328(19) -0.03636(19) 0.1633 Uani
O1G O 0.20328(19) 0.53636(19) 0.78427(19) 0.1633 Uani
O1K O 0.78427(19) 0.20328(19) 0.53636(19) 0.1633 Uani
O2D O 0.2995(3) 0.4661(2) 0.7154(3) 0.2013 Uani
O2H O 0.7154(3) 0.2995(3) 0.4661(2) 0.2013 Uani
O2C O 0.4661(2) 0.7846(3) 0.2005(3) 0.2013 Uani
O2E O 0.2995(3) 1.0339(2) -0.2154(3) 0.2013 Uani
O2J O 0.7154(3) 1.2005(3) 0.0339(2) 0.2013 Uani
O2NA O 0.5339(2) 0.7005(3) 0.2154(3) 0.2013 Uani
O2QA O 0.5339(2) 0.7995(3) 0.2846(3) 0.2013 Uani
O2MA O 0.2154(3) 0.5339(2) 0.7005(3) 0.2013 Uani
O2JA O 0.2846(3) 0.5339(2) 0.7995(3) 0.2013 Uani
O2SA O 0.7005(3) 0.2154(3) 0.5339(2) 0.2013 Uani
O2TA O 0.7995(3) 0.2846(3) 0.5339(2) 0.2013 Uani
O3D O 0.4446(5) 0.5669(7) 0.5744(4) 0.4157 Uani
O3H O 0.5744(4) 0.4446(5) 0.5669(7) 0.4157 Uani
O3C O 0.5669(7) 0.9256(4) 0.0554(5) 0.4157 Uani
O3E O 0.4446(5) 0.9331(7) -0.0744(4) 0.4157 Uani
O3J O 0.5744(4) 1.0554(5) -0.0669(7) 0.4157 Uani
O4D O 0.2500 0.6027(5) 0.7500 0.2283 Uani
O4H O 0.7500 0.2500 0.6027(5) 0.2283 Uani
N1D N 0.4535(3) 0.5063(3) 0.6104(4) 0.2050 Uani
N1H N 0.6104(4) 0.4535(3) 0.5063(3) 0.2050 Uani
N1C N 0.5063(3) 0.8896(4) 0.0465(3) 0.2050 Uani
N1E N 0.4535(3) 0.9937(3) -0.1104(4) 0.2050 Uani
N1J N 0.6104(4) 1.0465(3) -0.0063(3) 0.2050 Uani
H1D H 0.4711 0.4859 0.6140 0.2460 Uiso
H1H H 0.6140 0.4711 0.4859 0.2460 Uiso
H1C H 0.4859 0.8860 0.0289 0.2460 Uiso
H1E H 0.4711 1.0141 -0.1140 0.2460 Uiso
H1J H 0.6140 1.0289 0.0141 0.2460 Uiso
C1D C 0.30993(16) 0.5021(2) 0.71000(14) 0.1423 Uani
C1H C 0.71000(14) 0.30993(16) 0.5021(2) 0.1423 Uani
C1C C 0.5021(2) 0.79000(14) 0.19007(16) 0.1423 Uani
C1E C 0.30993(16) 0.9979(2) -0.21000(14) 0.1423 Uani
C1J C 0.71000(14) 1.19007(16) -0.0021(2) 0.1423 Uani
C2D C 0.34870(16) 0.5070(2) 0.68385(14) 0.2043 Uani
C2H C 0.68385(14) 0.34870(16) 0.5070(2) 0.2043 Uani
C2C C 0.5070(2) 0.81615(14) 0.15130(16) 0.2043 Uani
C2E C 0.34870(16) 0.9930(2) -0.18385(14) 0.2043 Uani
C2J C 0.68385(14) 1.15130(16) -0.0070(2) 0.2043 Uani
C3D C 0.36524(16) 0.5443(2) 0.67044(14) 0.2517 Uani
C3H C 0.67044(14) 0.36524(16) 0.5443(2) 0.2517 Uani
C3C C 0.5443(2) 0.82956(14) 0.13476(16) 0.2517 Uani
C3E C 0.36524(16) 0.9557(2) -0.17044(14) 0.2517 Uani
C3J C 0.67044(14) 1.13476(16) -0.0443(2) 0.2517 Uani
H2D H 0.3527 0.5696 0.6784 0.3000 Uiso
H2H H 0.6784 0.3527 0.5696 0.3000 Uiso
H2C H 0.5696 0.8216 0.1473 0.3000 Uiso
H2E H 0.3527 0.9304 -0.1784 0.3000 Uiso
H2J H 0.6784 1.1473 -0.0696 0.3000 Uiso
C4D C 0.40007(16) 0.5445(2) 0.64531(14) 0.2330 Uani
C4H C 0.64531(14) 0.40007(16) 0.5445(2) 0.2330 Uani
C4C C 0.5445(2) 0.85469(14) 0.09993(16) 0.2330 Uani
C4E C 0.40007(16) 0.9555(2) -0.14531(14) 0.2330 Uani
C4J C 0.64531(14) 1.09993(16) -0.0445(2) 0.2330 Uani
H3D H 0.4114 0.5700 0.6361 0.2800 Uiso
H3H H 0.6361 0.4114 0.5700 0.2800 Uiso
H3C H 0.5700 0.8639 0.0886 0.2800 Uiso
H3E H 0.4114 0.9300 -0.1361 0.2800 Uiso
H3J H 0.6361 1.0886 -0.0700 0.2800 Uiso
C5D C 0.41835(16) 0.5075(2) 0.63359(14) 0.1877 Uani
C5H C 0.63359(14) 0.41835(16) 0.5075(2) 0.1877 Uani
C5C C 0.5075(2) 0.86641(14) 0.08165(16) 0.1877 Uani
C5E C 0.41835(16) 0.9925(2) -0.13359(14) 0.1877 Uani
C5J C 0.63359(14) 1.08165(16) -0.0075(2) 0.1877 Uani
C6D C 0.40181(16) 0.4702(2) 0.64700(14) 0.2867 Uani
C6H C 0.64700(14) 0.40181(16) 0.4702(2) 0.2867 Uani
C6C C 0.4702(2) 0.85300(14) 0.09819(16) 0.2867 Uani
C6E C 0.40181(16) 1.0298(2) -0.14700(14) 0.2867 Uani
C6J C 0.64700(14) 1.09819(16) 0.0298(2) 0.2867 Uani
H4D H 0.4143 0.4448 0.6390 0.3450 Uiso
H4H H 0.6390 0.4143 0.4448 0.3450 Uiso
H4C H 0.4448 0.8610 0.0857 0.3450 Uiso
H4E H 0.4143 1.0552 -0.1390 0.3450 Uiso
H4J H 0.6390 1.0857 0.0552 0.3450 Uiso
C7D C 0.36698(16) 0.4699(2) 0.67213(14) 0.1887 Uani
C7H C 0.67213(14) 0.36698(16) 0.4699(2) 0.1887 Uani
C7C C 0.4699(2) 0.82787(14) 0.13302(16) 0.1887 Uani
C7E C 0.36698(16) 1.0301(2) -0.17213(14) 0.1887 Uani
C7J C 0.67213(14) 1.13302(16) 0.0301(2) 0.1887 Uani
H5D H 0.3557 0.4444 0.6813 0.2260 Uiso
H5H H 0.6813 0.3557 0.4444 0.2260 Uiso
H5C H 0.4444 0.8187 0.1443 0.2260 Uiso
H5E H 0.3557 1.0556 -0.1813 0.2260 Uiso
H5J H 0.6813 1.1443 0.0556 0.2260 Uiso
C8D C 0.4615(5) 0.5345(5) 0.5831(5) 0.2923 Uani
C8H C 0.5831(5) 0.4615(5) 0.5345(5) 0.2923 Uani
C8C C 0.5345(5) 0.9169(5) 0.0385(5) 0.2923 Uani
C8E C 0.4615(5) 0.9655(5) -0.0831(5) 0.2923 Uani
C8J C 0.5831(5) 1.0385(5) -0.0345(5) 0.2923 Uani
C9D C 0.4972(4) 0.5326(5) 0.5566(4) 0.2323 Uani
C9H C 0.5566(4) 0.4972(4) 0.5326(5) 0.2323 Uani
C9C C 0.5326(5) 0.9434(4) 0.0028(4) 0.2323 Uani
C9E C 0.4972(4) 0.9674(5) -0.0566(4) 0.2323 Uani
C9J C 0.5566(4) 1.0028(4) -0.0326(5) 0.2323 Uani
C10D C 0.5244(4) 0.5008(4) 0.5601(3) 0.1957 Uani
C10H C 0.5601(3) 0.5244(4) 0.5008(4) 0.1957 Uani
C10C C 0.5008(4) 0.9399(3) -0.0244(4) 0.1957 Uani
C10E C 0.5244(4) 0.9992(4) -0.0601(3) 0.1957 Uani
C10J C 0.5601(3) 0.9756(4) -0.0008(4) 0.1957 Uani
H6H H 0.5815 0.5211 0.4810 0.2350 Uiso
H6D H 0.5211 0.4810 0.5815 0.2350 Uiso
H6C H 0.4810 0.9185 -0.0211 0.2350 Uiso
H6J H 0.5815 0.9789 0.0190 0.2350 Uiso
H6E H 0.5211 1.0190 -0.0815 0.2350 Uiso
loop_
_atom_site_aniso_label
_atom_site_aniso_U_11
_atom_site_aniso_U_22
_atom_site_aniso_U_33
_atom_site_aniso_U_23
_atom_site_aniso_U_13
_atom_site_aniso_U_12
Cu1 0.186(2) 0.1361(16) 0.1325(16) -0.0122(11) 0.000 0.000
O1 0.141(5) 0.175(6) 0.174(6) 0.101(5) -0.001(4) -0.027(4)
O2 0.145(6) 0.186(7) 0.273(10) -0.023(7) 0.071(6) -0.043(5)
O3 0.69(3) 0.224(12) 0.333(16) 0.162(12) 0.236(19) 0.184(16)
O4 0.272(15) 0.231(12) 0.182(10) 0.019(7) 0.000 0.000
N1 0.162(8) 0.275(13) 0.178(9) 0.033(8) 0.015(7) 0.030(8)
C1 0.202(11) 0.131(7) 0.094(6) -0.009(5) 0.068(7) -0.103(8)
C2 0.334(18) 0.144(8) 0.135(9) 0.012(7) 0.134(11) -0.006(10)
C3 0.36(2) 0.238(15) 0.157(11) 0.042(9) 0.023(11) 0.128(14)
C4 0.323(18) 0.206(13) 0.170(12) 0.029(9) 0.005(11) 0.041(12)
C5 0.254(16) 0.145(9) 0.164(11) 0.029(7) 0.074(10) -0.006(9)
C6 0.158(11) 0.232(16) 0.47(3) 0.000(17) 0.043(15) 0.044(11)
C7 0.265(13) 0.126(8) 0.175(10) 0.061(7) 0.037(8) 0.035(8)
C8 0.31(3) 0.40(3) 0.167(16) 0.015(18) 0.133(17) 0.02(2)
C9 0.34(2) 0.206(14) 0.151(12) -0.087(11) 0.086(13) 0.054(15)
C10 0.258(15) 0.205(12) 0.124(9) 0.025(9) -0.024(10) 0.086(10)
Cu1D 0.1325 0.186 0.1361 0 -0.0122 0
Cu1H 0.1361 0.1325 0.186 0 0 -0.0122
Cu1NA 0.186 0.1325 0.1361 0.0122 0 0
Cu1JA 0.1361 0.186 0.1325 0 0.0122 0
Cu1SA 0.1325 0.1361 0.186 0 0 0.0122
Cu1E 0.1325 0.186 0.1361 0 0.0122 0
Cu1KA 0.1361 0.186 0.1325 0 -0.0122 0
Cu1I 0.1361 0.1325 0.186 0 0 0.0122
Cu1RA 0.1325 0.1361 0.186 0 0 -0.0122
O1D 0.174 0.141 0.175 -0.027 0.101 -0.001
O1H 0.175 0.174 0.141 -0.001 -0.027 0.101
O1C 0.141 0.175 0.174 0.101 0.001 0.027
O1E 0.174 0.141 0.175 -0.027 -0.101 0.001
O1J 0.175 0.174 0.141 -0.001 0.027 -0.101
O1G 0.174 0.141 0.175 0.027 0.101 0.001
O1K 0.175 0.174 0.141 0.001 0.027 0.101
O2D 0.273 0.145 0.186 -0.043 -0.023 0.071
O2H 0.186 0.273 0.145 0.071 -0.043 -0.023
O2C 0.145 0.186 0.273 -0.023 -0.071 0.043
O2E 0.273 0.145 0.186 -0.043 0.023 -0.071
O2J 0.186 0.273 0.145 0.071 0.043 0.023
O2NA 0.145 0.273 0.186 0.023 0.043 0.071
O2QA 0.145 0.273 0.186 0.023 -0.043 -0.071
O2MA 0.186 0.145 0.273 0.071 0.023 0.043
O2JA 0.186 0.145 0.273 -0.071 0.023 -0.043
O2SA 0.273 0.186 0.145 0.043 0.071 0.023
O2TA 0.273 0.186 0.145 -0.043 -0.071 0.023
O3D 0.333 0.69 0.224 0.184 0.162 0.236
O3H 0.224 0.333 0.69 0.236 0.184 0.162
O3C 0.69 0.224 0.333 0.162 -0.236 -0.184
O3E 0.333 0.69 0.224 0.184 -0.162 -0.236
O3J 0.224 0.333 0.69 0.236 -0.184 -0.162
O4D 0.182 0.272 0.231 0 0.019 0
O4H 0.231 0.182 0.272 0 0 0.019
N1D 0.178 0.162 0.275 0.03 0.033 0.015
N1H 0.275 0.178 0.162 0.015 0.03 0.033
N1C 0.162 0.275 0.178 0.033 -0.015 -0.03
N1E 0.178 0.162 0.275 0.03 -0.033 -0.015
N1J 0.275 0.178 0.162 0.015 -0.03 -0.033
C1D 0.094 0.202 0.131 -0.103 -0.009 0.068
C1H 0.131 0.094 0.202 0.068 -0.103 -0.009
C1C 0.202 0.131 0.094 -0.009 -0.068 0.103
C1E 0.094 0.202 0.131 -0.103 0.009 -0.068
C1J 0.131 0.094 0.202 0.068 0.103 0.009
C2D 0.135 0.334 0.144 -0.006 0.012 0.134
C2H 0.144 0.135 0.334 0.134 -0.006 0.012
C2C 0.334 0.144 0.135 0.012 -0.134 0.006
C2E 0.135 0.334 0.144 -0.006 -0.012 -0.134
C2J 0.144 0.135 0.334 0.134 0.006 -0.012
C3D 0.157 0.36 0.238 0.128 0.042 0.023
C3H 0.238 0.157 0.36 0.023 0.128 0.042
C3C 0.36 0.238 0.157 0.042 -0.023 -0.128
C3E 0.157 0.36 0.238 0.128 -0.042 -0.023
C3J 0.238 0.157 0.36 0.023 -0.128 -0.042
C4D 0.17 0.323 0.206 0.041 0.029 0.005
C4H 0.206 0.17 0.323 0.005 0.041 0.029
C4C 0.323 0.206 0.17 0.029 -0.005 -0.041
C4E 0.17 0.323 0.206 0.041 -0.029 -0.005
C4J 0.206 0.17 0.323 0.005 -0.041 -0.029
C5D 0.164 0.254 0.145 -0.006 0.029 0.074
C5H 0.145 0.164 0.254 0.074 -0.006 0.029
C5C 0.254 0.145 0.164 0.029 -0.074 0.006
C5E 0.164 0.254 0.145 -0.006 -0.029 -0.074
C5J 0.145 0.164 0.254 0.074 0.006 -0.029
C6D 0.47 0.158 0.232 0.044 0 0.043
C6H 0.232 0.47 0.158 0.043 0.044 0
C6C 0.158 0.232 0.47 0 -0.043 -0.044
C6E 0.47 0.158 0.232 0.044 0 -0.043
C6J 0.232 0.47 0.158 0.043 -0.044 0
C7D 0.175 0.265 0.126 0.035 0.061 0.037
C7H 0.126 0.175 0.265 0.037 0.035 0.061
C7C 0.265 0.126 0.175 0.061 -0.037 -0.035
C7E 0.175 0.265 0.126 0.035 -0.061 -0.037
C7J 0.126 0.175 0.265 0.037 -0.035 -0.061
C8D 0.167 0.31 0.4 0.02 0.015 0.133
C8H 0.4 0.167 0.31 0.133 0.02 0.015
C8C 0.31 0.4 0.167 0.015 -0.133 -0.02
C8E 0.167 0.31 0.4 0.02 -0.015 -0.133
C8J 0.4 0.167 0.31 0.133 -0.02 -0.015
C9D 0.151 0.34 0.206 0.054 -0.087 0.086
C9H 0.206 0.151 0.34 0.086 0.054 -0.087
C9C 0.34 0.206 0.151 -0.087 -0.086 -0.054
C9E 0.151 0.34 0.206 0.054 0.087 -0.086
C9J 0.206 0.151 0.34 0.086 -0.054 0.087
C10D 0.124 0.258 0.205 0.086 0.025 -0.024
C10H 0.205 0.124 0.258 -0.024 0.086 0.025
C10C 0.258 0.205 0.124 0.025 0.024 -0.086
C10E 0.124 0.258 0.205 0.086 -0.025 0.024
C10J 0.205 0.124 0.258 -0.024 -0.086 -0.025
loop_
_geom_bond_atom_site_label_1
_geom_bond_atom_site_label_2
_geom_bond_site_symmetry_1
_geom_bond_site_symmetry_2
Cu1 O1 1_555 1_555
O1 C1 1_555 1_555
O2 C1 1_555 1_555
O3 C8 1_555 1_555
O4 Cu1 1_555 1_555
N1 H1 1_555 1_555
C1 C2 1_555 1_555
C2 C3 1_555 1_555
C3 H2 1_555 1_555
C4 C3 1_555 1_555
H3 C4 1_555 1_555
C5 N1 1_555 1_555
C6 C5 1_555 1_555
H4 C6 1_555 1_555
C7 C2 1_555 1_555
H5 C7 1_555 1_555
C8 N1 1_555 1_555
C9 C8 1_555 1_555
C10 C9 1_555 1_555
H6 C10 1_555 1_555
Cu1D O1D 1_555 1_555
Cu1H O1H 1_555 1_555
Cu1NA O2 1_555 1_555
Cu1JA O2D 1_555 1_555
Cu1SA O2H 1_555 1_555
Cu1E O1E 1_555 1_555
Cu1KA O2E 1_555 1_555
Cu1I O1J 1_555 1_555
Cu1RA O2J 1_555 1_555
O1D C1D 1_555 1_555
O1H C1H 1_555 1_555
O1C Cu1 1_555 1_555
O1E C1E 1_555 1_555
O1J C1J 1_555 1_555
O1G Cu1D 1_555 1_555
O1K Cu1H 1_555 1_555
O2D C1D 1_555 1_555
O2H C1H 1_555 1_555
O2C Cu1NA 1_555 1_555
O2E C1E 1_555 1_555
O2J C1J 1_555 1_555
O2NA Cu1 1_555 1_555
O2QA Cu1 1_555 1_555
O2MA Cu1D 1_555 1_555
O2JA Cu1D 1_555 1_555
O2SA Cu1H 1_555 1_555
O2TA Cu1H 1_555 1_555
O3D C8D 1_555 1_555
O3H C8H 1_555 1_555
O3C C8C 1_555 1_555
O3E C8E 1_555 1_555
O3J C8J 1_555 1_555
O4D Cu1D 1_555 1_555
O4H Cu1H 1_555 1_555
N1D H1D 1_555 1_555
N1H H1H 1_555 1_555
N1C H1C 1_555 1_555
N1E H1E 1_555 1_555
N1J H1J 1_555 1_555
C1D C2D 1_555 1_555
C1H C2H 1_555 1_555
C1C O1C 1_555 1_555
C1E C2E 1_555 1_555
C1J C2J 1_555 1_555
C2D C3D 1_555 1_555
C2H C3H 1_555 1_555
C2C C1C 1_555 1_555
C2E C3E 1_555 1_555
C2J C3J 1_555 1_555
C3D H2D 1_555 1_555
C3H H2H 1_555 1_555
C3C C2C 1_555 1_555
C3E H2E 1_555 1_555
C3J H2J 1_555 1_555
H2C C3C 1_555 1_555
C4D C3D 1_555 1_555
C4H C3H 1_555 1_555
C4C C3C 1_555 1_555
C4E C3E 1_555 1_555
C4J C3J 1_555 1_555
H3D C4D 1_555 1_555
H3H C4H 1_555 1_555
H3C C4C 1_555 1_555
H3E C4E 1_555 1_555
H3J C4J 1_555 1_555
C5D N1D 1_555 1_555
C5H N1H 1_555 1_555
C5C N1C 1_555 1_555
C5E N1E 1_555 1_555
C5J N1J 1_555 1_555
C6D C5D 1_555 1_555
C6H C5H 1_555 1_555
C6C C5C 1_555 1_555
C6E C5E 1_555 1_555
C6J C5J 1_555 1_555
H4D C6D 1_555 1_555
H4H C6H 1_555 1_555
H4C C6C 1_555 1_555
H4E C6E 1_555 1_555
H4J C6J 1_555 1_555
C7D C2D 1_555 1_555
C7H C2H 1_555 1_555
C7C C2C 1_555 1_555
C7E C2E 1_555 1_555
C7J C2J 1_555 1_555
H5D C7D 1_555 1_555
H5H C7H 1_555 1_555
H5C C7C 1_555 1_555
H5E C7E 1_555 1_555
H5J C7J 1_555 1_555
C8D N1D 1_555 1_555
C8H N1H 1_555 1_555
C8C N1C 1_555 1_555
C8E N1E 1_555 1_555
C8J N1J 1_555 1_555
C9D C10 1_555 1_555
C9H C8H 1_555 1_555
C9C C8C 1_555 1_555
C9E C8E 1_555 1_555
C9J C8J 1_555 1_555
C10D C9D 1_555 1_555
C10H C9 1_555 1_555
C10C C9C 1_555 1_555
C10E C9E 1_555 1_555
C10J C9C 1_555 1_555
H6H C10H 1_555 1_555
H6D C10D 1_555 1_555
H6C C10C 1_555 1_555
H6J C10J 1_555 1_555
H6E C10E 1_555 1_555
C4 C5 1_555 1_555
C6 C7 1_555 1_555
O2C C1C 1_555 1_555
C4D C5D 1_555 1_555
C4H C5H 1_555 1_555
C4C C5C 1_555 1_555
C4E C5E 1_555 1_555
C4J C5J 1_555 1_555
C6D C7D 1_555 1_555
C6H C7H 1_555 1_555
C6C C7C 1_555 1_555
C6E C7E 1_555 1_555
C6J C7J 1_555 1_555
C8D C9D 1_555 1_555
C9H C10D 1_555 1_555
C9H C10H 1_555 1_555
C9E C10C 1_555 1_555
C9J C10E 1_555 1_555
C9J C10J 1_555 1_555

#END
