
#######################################################################
#
#                 Cambridge Crystallographic Data Centre
#                                CCDC 
#
#######################################################################
#
# If this CIF has been generated from an entry in the Cambridge 
# Structural Database, then it will include bibliographic, chemical, 
# crystal, experimental, refinement or atomic coordinate data resulting 
# from the CCDC's data processing and validation procedures.
#
#######################################################################

data_ECODIK
_chemical_formula_moiety         '(C32 H40 Cu4 N8 O13)n'
_symmetry_cell_setting           monoclinic
_symmetry_space_group_name_H-M   'P 21/n'
_symmetry_Int_Tables_number      14
_space_group_name_Hall           '-P 2yn'
loop_
_symmetry_equiv_pos_site_id
_symmetry_equiv_pos_as_xyz
1 x,y,z
2 1/2-x,1/2+y,1/2-z
3 -x,-y,-z
4 1/2+x,1/2-y,1/2+z
_cell_length_a                   12.389(7)
_cell_length_b                   14.146(9)
_cell_length_c                   13.259(7)
_cell_angle_alpha                90
_cell_angle_beta                 112.676(10)
_cell_angle_gamma                90
_cell_volume                     2144.08
loop_
_atom_site_label
_atom_site_type_symbol
_atom_site_fract_x
_atom_site_fract_y
_atom_site_fract_z
C15 C 0.8658(8) 0.3126(9) 0.0333(6)
H14 H 0.8359 0.3718 0.0467
H15 H 0.9073 0.2812 0.1016
H16 H 0.8021 0.2735 -0.0117
C16 C 0.9421(7) 0.3290(9) -0.0203(7)
H17 H 1.0080 0.3678 0.0239
H18 H 0.9020 0.3595 -0.0904
O7 O 0.9830(8) 0.2256(7) -0.0351(6)
H19 H 1.0286 0.2285 -0.0664
N3 N 0.461(2) 0.4895(6) -0.9527(5)
N4 N 0.4655(5) 0.5310(4) -0.8390(4)
H20 H 0.5057 0.5027 -0.7788
H21 H 0.4275 0.5817 -0.8381
C17 C 0.5012(13) 0.4216(4) -0.9891(7)
H22 H 0.5065 0.3560 -0.9851
N3B N 0.539(2) 0.5105(6) -1.0473(5)
N4B N 0.5345(5) 0.4690(4) -1.1610(4)
H20B H 0.4943 0.4973 -1.2212
H21B H 0.5725 0.4183 -1.1619
C17B C 0.4988(13) 0.5784(4) -1.0109(7)
H22B H 0.4935 0.6440 -1.0149
Cu1 Cu 0.83534(3) 0.40738(2) -0.42159(3)
Cu2 Cu 1.47371(3) 0.06816(2) -0.09291(3)
N1 N 1.3447(2) 0.16046(15) -0.16136(19)
C1 C 1.3618(3) 0.2526(2) -0.1299(3)
H1 H 1.4333 0.2699 -0.0763
C2 C 1.2792(3) 0.3204(2) -0.1734(3)
H2 H 1.2939 0.3825 -0.1489
C3 C 1.1744(3) 0.2964(2) -0.2534(2)
C4 C 1.1554(3) 0.2025(2) -0.2855(3)
H3 H 1.0845 0.1836 -0.3389
C5 C 1.2434(3) 0.1375(2) -0.2370(3)
H4 H 1.2301 0.0747 -0.2589
C6 C 1.0801(2) 0.37056(19) -0.3052(2)
O1 O 0.98336(17) 0.33841(13) -0.37684(16)
O2 O 1.10141(18) 0.45367(12) -0.28079(15)
N2 N 0.7790(2) 0.31184(15) -0.34330(19)
C7 C 0.7074(3) 0.3363(2) -0.2954(3)
H5 H 0.6868 0.3997 -0.2970
C8 C 0.6613(3) 0.2734(2) -0.2431(2)
H6 H 0.6129 0.2945 -0.2089
C9 C 0.6882(3) 0.1792(2) -0.2423(2)
C10 C 0.7619(3) 0.1524(2) -0.2938(3)
H7 H 0.7823 0.0893 -0.2952
C11 C 0.8042(3) 0.2202(2) -0.3426(3)
H8 H 0.8532 0.2013 -0.3771
C12 C 0.6383(3) 0.1061(2) -0.1897(2)
O3 O 0.66580(19) 0.02242(13) -0.19025(17)
O4 O 0.56923(17) 0.14028(13) -0.14826(16)
O5 O 0.89141(15) 0.49347(12) -0.50698(14)
C13 C 0.6772(3) 0.5705(3) -0.6115(3)
H9 H 0.6242 0.6099 -0.6679
H10 H 0.7339 0.5438 -0.6362
H11 H 0.7163 0.6077 -0.5472
C14 C 0.6146(10) 0.4977(6) -0.5871(7)
H12 H 0.5631 0.5272 -0.5569
H13 H 0.5649 0.4696 -0.6561
O6 O 0.6688(2) 0.42616(19) -0.5199(2)
Cu1A Cu 0.66466(3) 0.90738(2) -0.07841(3)
Cu1A_2 Cu 0.66466(3) -0.09262(2) -0.07841(3)
Cu1A_3 Cu 1.66466(3) -0.09262(2) -0.07841(3)
Cu1C Cu 1.33534(3) 0.09262(2) 0.07841(3)
Cu2A Cu 1.02629(3) 0.56816(2) -0.40709(3)
Cu2_2 Cu 0.47371(3) 0.06816(2) -0.09291(3)
Cu2C Cu 0.97371(3) 0.43184(2) -0.59291(3)
Cu2A_2 Cu 1.02629(3) -0.43184(2) -0.40709(3)
Cu2B Cu 1.52629(3) -0.06816(2) 0.09291(3)
N1A N 1.1553(2) -0.33954(15) -0.33864(19)
N1A_2 N 1.1553(2) 0.66046(15) -0.33864(19)
C1A C 1.1382(3) -0.2474(2) -0.3701(3)
H1A H 1.0667 -0.2301 -0.4237
C2A C 1.2208(3) -0.1796(2) -0.3266(3)
H2A H 1.2061 -0.1175 -0.3511
C3A C 1.3256(3) -0.2036(2) -0.2466(2)
C4A C 1.3446(3) -0.2975(2) -0.2145(3)
H3A H 1.4155 -0.3164 -0.1611
C5A C 1.2566(3) -0.3625(2) -0.2630(3)
H4A H 1.2699 -0.4253 -0.2411
C6A C 1.4199(2) -0.12944(19) -0.1948(2)
O1A O 1.51664(17) -0.16159(13) -0.12316(16)
O1A_2 O 0.51664(17) 0.83841(13) -0.12316(16)
O2A O 1.39859(18) -0.04633(12) -0.21921(15)
N2A N 0.7210(2) 0.81184(15) -0.15670(19)
C7A C 0.7926(3) 0.8363(2) -0.2046(3)
H5A H 0.8132 0.8997 -0.2030
C8A C 0.8387(3) 0.7734(2) -0.2569(2)
H6A H 0.8871 0.7945 -0.2911
C9A C 0.8118(3) 0.6792(2) -0.2577(2)
C10A C 0.7381(3) 0.6524(2) -0.2062(3)
H7A H 0.7177 0.5893 -0.2048
C11A C 0.6958(3) 0.7202(2) -0.1574(3)
H8A H 0.6468 0.7013 -0.1229
C12A C 0.8617(3) 0.6061(2) -0.3103(2)
O3A O 0.83420(19) 0.52242(13) -0.30975(17)
O3_2 O 0.66580(19) 1.02242(13) -0.19025(17)
O4A O 0.93077(17) 0.64028(13) -0.35174(16)
O4_2 O 1.56923(17) 0.14028(13) -0.14826(16)
O5C O 1.39141(15) 0.00653(12) -0.00698(14)
O5A O 1.60859(15) -0.00653(12) 0.00698(14)
O5A_2 O 0.60859(15) 0.99347(12) 0.00698(14)
O5B O 1.10859(15) 0.50653(12) -0.49302(14)
C13A C 0.8228(3) 1.0705(3) 0.1115(3)
H9A H 0.8758 1.1099 0.1679
H10A H 0.7661 1.0438 0.1362
H11A H 0.7837 1.1077 0.0472
C14A C 0.8854(10) 0.9977(6) 0.0871(7)
H12A H 0.9369 1.0272 0.0569
H13A H 0.9351 0.9696 0.1561
O6A O 0.8312(2) 0.92616(19) 0.0199(2)
loop_
_geom_bond_atom_site_label_1
_geom_bond_atom_site_label_2
_geom_bond_site_symmetry_1
_geom_bond_site_symmetry_2
Cu1 O1 1_555 1_555
Cu2 N1 1_555 1_555
N1 C1 1_555 1_555
C1 H1 1_555 1_555
C2 C1 1_555 1_555
H2 C2 1_555 1_555
C3 C2 1_555 1_555
C4 C3 1_555 1_555
H3 C4 1_555 1_555
C5 N1 1_555 1_555
H4 C5 1_555 1_555
C6 C3 1_555 1_555
O1 C6 1_555 1_555
O2 C6 1_555 1_555
N2 Cu1 1_555 1_555
C7 N2 1_555 1_555
H5 C7 1_555 1_555
C8 C7 1_555 1_555
H6 C8 1_555 1_555
C9 C8 1_555 1_555
C10 C9 1_555 1_555
H7 C10 1_555 1_555
C11 N2 1_555 1_555
H8 C11 1_555 1_555
C12 C9 1_555 1_555
O3 C12 1_555 1_555
O4 C12 1_555 1_555
O5 Cu1 1_555 1_555
C13 H9 1_555 1_555
H10 C13 1_555 1_555
H11 C13 1_555 1_555
C14 C13 1_555 1_555
H12 C14 1_555 1_555
H13 C14 1_555 1_555
O6 Cu1 1_555 1_555
C15 H14 1_555 1_555
H15 C15 1_555 1_555
H16 C15 1_555 1_555
C16 C15 1_555 1_555
H17 C16 1_555 1_555
H18 C16 1_555 1_555
O7 C16 1_555 1_555
H19 O7 1_555 1_555
N3 N4 1_555 1_555
N4 H20 1_555 1_555
H21 N4 1_555 1_555
C17 N3 1_555 1_555
H22 C17 1_555 1_555
Cu1A O1A_2 1_555 1_555
Cu1A_2 O3 1_555 1_555
Cu1A_3 O1A 1_555 1_555
Cu1C O5C 1_555 1_555
Cu2A O2 1_555 1_555
Cu2_2 O4 1_555 1_555
Cu2C O5 1_555 1_555
Cu2A_2 N1A 1_555 1_555
Cu2B O5C 1_555 1_555
N1A C1A 1_555 1_555
N1A_2 Cu2A 1_555 1_555
C1A H1A 1_555 1_555
C2A C1A 1_555 1_555
H2A C2A 1_555 1_555
C3A C2A 1_555 1_555
C4A C3A 1_555 1_555
H3A C4A 1_555 1_555
C5A N1A 1_555 1_555
H4A C5A 1_555 1_555
C6A C3A 1_555 1_555
O1A C6A 1_555 1_555
O2A Cu2 1_555 1_555
N2A Cu1A 1_555 1_555
C7A N2A 1_555 1_555
H5A C7A 1_555 1_555
C8A C7A 1_555 1_555
H6A C8A 1_555 1_555
C9A C8A 1_555 1_555
C10A C9A 1_555 1_555
H7A C10A 1_555 1_555
C11A N2A 1_555 1_555
H8A C11A 1_555 1_555
C12A C9A 1_555 1_555
O3A Cu1 1_555 1_555
O3_2 Cu1A 1_555 1_555
O4A Cu2A 1_555 1_555
O4_2 Cu2 1_555 1_555
O5C Cu2 1_555 1_555
O5A Cu2 1_555 1_555
O5A_2 Cu1A 1_555 1_555
O5B Cu2A 1_555 1_555
C13A H9A 1_555 1_555
H10A C13A 1_555 1_555
H11A C13A 1_555 1_555
C14A C13A 1_555 1_555
H12A C14A 1_555 1_555
H13A C14A 1_555 1_555
O6A Cu1A 1_555 1_555
N3B C17 1_555 1_555
N4B N3B 1_555 1_555
H20B N4B 1_555 1_555
H21B N4B 1_555 1_555
C17B N3 1_555 1_555
H22B C17B 1_555 1_555
C4 C5 1_555 1_555
C10 C11 1_555 1_555
O5 Cu2A 1_555 1_555
C14 O6 1_555 1_555
Cu1A_3 O5A 1_555 1_555
Cu2C O5B 1_555 1_555
Cu2B O5A 1_555 1_555
C4A C5A 1_555 1_555
C6A O2A 1_555 1_555
C10A C11A 1_555 1_555
C12A O3A 1_555 1_555
C12A O4A 1_555 1_555
C14A O6A 1_555 1_555
N3B C17B 1_555 1_555

#END
