
#######################################################################
#
#                 Cambridge Crystallographic Data Centre
#                                CCDC 
#
#######################################################################
#
# If this CIF has been generated from an entry in the Cambridge 
# Structural Database, then it will include bibliographic, chemical, 
# crystal, experimental, refinement or atomic coordinate data resulting 
# from the CCDC's data processing and validation procedures.
#
#######################################################################

data_IGEXOH
_chemical_formula_moiety         '(C5 H17 N1 O10 P2 Zn1)n'
_symmetry_cell_setting           orthorhombic
_symmetry_space_group_name_H-M   'P 21 21 21'
_symmetry_Int_Tables_number      19
_space_group_name_Hall           'P 2ac 2ab'
loop_
_symmetry_equiv_pos_site_id
_symmetry_equiv_pos_as_xyz
1 x,y,z
2 1/2-x,-y,1/2+z
3 1/2+x,1/2-y,-z
4 -x,1/2+y,1/2-z
_cell_length_a                   9.976(4)
_cell_length_b                   10.359(6)
_cell_length_c                   12.980(10)
_cell_angle_alpha                90
_cell_angle_beta                 90
_cell_angle_gamma                90
_cell_volume                     1341.37
loop_
_atom_site_label
_atom_site_type_symbol
_atom_site_fract_x
_atom_site_fract_y
_atom_site_fract_z
Zn1 Zn 0.9715(1) 0.2019(1) 0.6352(1)
P1 P 1.2264(2) 0.2147(2) 0.4965(1)
P2 P 0.8895(2) 0.4399(2) 0.7859(1)
O1 O 0.9357(4) 0.3098(4) 0.7519(3)
O2 O 1.1220(4) 0.2759(4) 0.5657(3)
O3 O 0.9990(4) 0.5259(4) 0.8217(3)
O4 O 1.3122(4) 0.3211(4) 0.4494(3)
O5 O 0.7847(5) 0.4175(4) 0.8698(4)
O6 O 0.8199(5) 0.5137(4) 0.6964(4)
O7 O 1.3107(5) 0.1137(4) 0.5479(4)
O8 O 1.1509(4) 0.1421(4) 0.4062(3)
O3C O 1.0010(4) 0.0259(4) 0.6783(3)
O4B O 0.8122(4) 0.1789(4) 0.5506(3)
Zn1C Zn 1.0285(1) 0.7019(1) 0.8648(1)
Zn1B Zn 1.4715(1) 0.2981(1) 0.3648(1)
C1 C 0.5617(7) -0.0923(8) 0.5784(6)
C2 C 0.6055(8) -0.0789(8) 0.4695(6)
C3 C 0.8194(7) -0.1678(7) 0.5214(6)
C4 C 0.7656(7) -0.1778(8) 0.6289(6)
C5 C 0.8023(12) -0.0476(9) 0.3585(6)
N1 N 0.7537(7) -0.0607(6) 0.4655(4)
O9 O 0.6249(5) -0.1982(5) 0.6258(4)
O10 O 1.4862(5) 0.2090(5) 0.6907(4)
loop_
_geom_bond_atom_site_label_1
_geom_bond_atom_site_label_2
_geom_bond_site_symmetry_1
_geom_bond_site_symmetry_2
Zn1 O1 1_555 1_555
P1 O2 1_555 1_555
P2 O1 1_555 1_555
O2 Zn1 1_555 1_555
O3 P2 1_555 1_555
O4 P1 1_555 1_555
O5 P2 1_555 1_555
O6 P2 1_555 1_555
O7 P1 1_555 1_555
O8 P1 1_555 1_555
C1 C2 1_555 1_555
C2 N1 1_555 1_555
C3 C4 1_555 1_555
C4 O9 1_555 1_555
C5 N1 1_555 1_555
N1 C3 1_555 1_555
O9 C1 1_555 1_555
O3C Zn1 1_555 1_555
O4B Zn1 1_555 1_555
Zn1C O3 1_555 1_555
Zn1B O4 1_555 1_555

#END
