
#######################################################################
#
#                 Cambridge Crystallographic Data Centre
#                                CCDC 
#
#######################################################################
#
# If this CIF has been generated from an entry in the Cambridge 
# Structural Database, then it will include bibliographic, chemical, 
# crystal, experimental, refinement or atomic coordinate data resulting 
# from the CCDC's data processing and validation procedures.
#
#######################################################################

data_HUTZAX01
_chemical_formula_moiety         '(C28 H16 O10 Zn2)n'
_symmetry_cell_setting           trigonal
_symmetry_space_group_name_H-M   'P 32 2 1'
_symmetry_Int_Tables_number      154
_space_group_name_Hall           'P 32 2"'
loop_
_symmetry_equiv_pos_site_id
_symmetry_equiv_pos_as_xyz
1 x,y,z
2 -y,x-y,2/3+z
3 -x+y,-x,1/3+z
4 y,x,-z
5 x-y,-y,1/3-z
6 -x,-x+y,2/3-z
_cell_length_a                   13.298(2)
_cell_length_b                   13.298(2)
_cell_length_c                   29.544(5)
_cell_angle_alpha                90
_cell_angle_beta                 90
_cell_angle_gamma                120
_cell_volume                     4524.52
loop_
_atom_site_label
_atom_site_type_symbol
_atom_site_fract_x
_atom_site_fract_y
_atom_site_fract_z
Zn1 Zn 0.46553(10) 0.46537(10) 0.10652(3)
Zn2 Zn 0.28176(8) 0.44995(9) 0.18455(3)
C1 C 0.5098(8) 0.6461(8) 0.1781(3)
C2 C 0.6010(8) 0.7531(8) 0.1983(3)
C3 C 0.7176(8) 0.7936(8) 0.1869(3)
H1 H 0.7360 0.7537 0.1657
C4 C 0.8037(9) 0.8908(9) 0.2069(3)
H2 H 0.8806 0.9164 0.1991
C5 C 0.7793(9) 0.9518(8) 0.2383(3)
C6 C 0.6664(9) 0.9136(9) 0.2504(4)
H3 H 0.6494 0.9537 0.2720
C7 C 0.5777(9) 0.8152(9) 0.2303(4)
H4 H 0.5012 0.7902 0.2383
C8 C 0.8521(8) 1.1072(8) 0.2914(3)
C9 C 0.8416(11) 1.0609(8) 0.3348(4)
H5 H 0.8375 0.9899 0.3398
C10 C 0.8378(10) 1.1287(8) 0.3703(4)
H6 H 0.8308 1.1017 0.3998
C11 C 0.8439(6) 1.2328(6) 0.3631(2)
C12 C 0.8526(8) 1.2720(8) 0.3197(2)
H7 H 0.8575 1.3432 0.3143
C13 C 0.8541(9) 1.2062(8) 0.2842(3)
H8 H 0.8566 1.2318 0.2547
C14 C 0.8648(6) 1.3125(7) 0.4021(3)
C15 C 0.2539(10) 0.4724(8) 0.0879(3)
C16 C 0.1764(10) 0.4827(8) 0.0534(3)
C17 C 0.0743(10) 0.4731(9) 0.0664(3)
H9 H 0.0562 0.4665 0.0970
C18 C -0.0045(12) 0.4730(12) 0.0352(4)
H10 H -0.0744 0.4662 0.0445
C19 C 0.0244(12) 0.4831(13) -0.0088(4)
C20 C 0.1311(14) 0.5015(13) -0.0226(4)
H11 H 0.1507 0.5133 -0.0531
C21 C 0.2084(13) 0.5025(12) 0.0080(3)
H12 H 0.2809 0.5160 -0.0013
C22 C -0.1092(11) 0.3846(12) -0.0674(4)
C23 C -0.1283(14) 0.2801(15) -0.0531(5)
H13 H -0.0955 0.2741 -0.0262
C24 C -0.1971(13) 0.1818(14) -0.0786(4)
H14 H -0.2138 0.1095 -0.0677
C25 C -0.2411(9) 0.1891(8) -0.1198(3)
C26 C -0.2207(11) 0.3007(11) -0.1337(4)
H15 H -0.2515 0.3089 -0.1609
C27 C -0.1566(11) 0.3942(12) -0.1074(4)
H16 H -0.1443 0.4664 -0.1164
C28 C -0.3125(9) 0.0860(8) -0.1485(3)
O1 O 0.5343(6) 0.6066(7) 0.1454(2)
O2 O 0.4113(6) 0.6018(6) 0.1966(2)
O3 O 0.8710(7) 1.0488(6) 0.2554(3)
O4 O 0.9151(5) 1.4209(5) 0.39358(18)
O5 O 0.8388(6) 1.2732(6) 0.44181(19)
O6 O 0.3510(8) 0.4925(6) 0.0755(2)
O7 O 0.2129(6) 0.4396(6) 0.12640(18)
O8 O -0.0501(8) 0.4846(9) -0.0423(3)
O9 O -0.3350(7) -0.0105(7) -0.1331(2)
O10 O -0.3435(7) 0.1005(6) -0.1864(2)
Zn1B Zn 0.99984(14) 1.53447(10) 0.43985(3)
Zn1A Zn -0.46537(10) 0.00016(14) -0.22681(3)
Zn2E Zn 0.71824(8) 1.16819(12) 0.48212(3)
Zn2A Zn -0.44995(9) -0.16819(12) -0.14878(3)
O4A O 0.5791(5) 0.4942(7) 0.06025(18)
O5E O 0.1612(6) 0.4344(8) 0.22486(19)
O9B O 0.3245(10) 0.3350(7) 0.2002(2)
O10B O 0.4440(9) 0.3435(7) 0.1469(2)
loop_
_geom_bond_atom_site_label_1
_geom_bond_atom_site_label_2
_geom_bond_site_symmetry_1
_geom_bond_site_symmetry_2
Zn1 O1 1_555 1_555
Zn2 O2 1_555 1_555
C1 C2 1_555 1_555
C2 C3 1_555 1_555
C3 H1 1_555 1_555
C4 C3 1_555 1_555
H2 C4 1_555 1_555
C5 C4 1_555 1_555
C6 C5 1_555 1_555
H3 C6 1_555 1_555
C7 C2 1_555 1_555
H4 C7 1_555 1_555
C8 C9 1_555 1_555
C9 H5 1_555 1_555
C10 C9 1_555 1_555
H6 C10 1_555 1_555
C11 C10 1_555 1_555
C12 C11 1_555 1_555
H7 C12 1_555 1_555
C13 C8 1_555 1_555
H8 C13 1_555 1_555
C14 C11 1_555 1_555
C15 C16 1_555 1_555
C16 C17 1_555 1_555
C17 H9 1_555 1_555
C18 C17 1_555 1_555
H10 C18 1_555 1_555
C19 C18 1_555 1_555
C20 C19 1_555 1_555
H11 C20 1_555 1_555
C21 C16 1_555 1_555
H12 C21 1_555 1_555
C22 C23 1_555 1_555
C23 H13 1_555 1_555
C24 C23 1_555 1_555
H14 C24 1_555 1_555
C25 C24 1_555 1_555
C26 C25 1_555 1_555
H15 C26 1_555 1_555
C27 C22 1_555 1_555
H16 C27 1_555 1_555
C28 C25 1_555 1_555
O1 C1 1_555 1_555
O2 C1 1_555 1_555
O3 C5 1_555 1_555
O4 C14 1_555 1_555
O5 C14 1_555 1_555
O6 Zn1 1_555 1_555
O7 Zn2 1_555 1_555
O8 C19 1_555 1_555
O9 C28 1_555 1_555
O10 C28 1_555 1_555
Zn1B O4 1_555 1_555
Zn1A O10 1_555 1_555
Zn2E O5 1_555 1_555
Zn2A O9 1_555 1_555
O4A Zn1 1_555 1_555
O5E Zn2 1_555 1_555
O9B Zn2 1_555 1_555
O10B Zn1 1_555 1_555
C6 C7 1_555 1_555
C8 O3 1_555 1_555
C12 C13 1_555 1_555
C15 O6 1_555 1_555
C15 O7 1_555 1_555
C20 C21 1_555 1_555
C22 O8 1_555 1_555
C26 C27 1_555 1_555

#END
