
#######################################################################
#
#                 Cambridge Crystallographic Data Centre
#                                CCDC 
#
#######################################################################
#
# If this CIF has been generated from an entry in the Cambridge 
# Structural Database, then it will include bibliographic, chemical, 
# crystal, experimental, refinement or atomic coordinate data resulting 
# from the CCDC's data processing and validation procedures.
#
#######################################################################

data_LIQDAS
_chemical_formula_moiety         '(C79 H48 N2 O36 Ti2 Zn6)n'
_symmetry_cell_setting           hexagonal
_symmetry_space_group_name_H-M   'P 63/m'
_symmetry_Int_Tables_number      176
_space_group_name_Hall           '-P 6c'
loop_
_symmetry_equiv_pos_site_id
_symmetry_equiv_pos_as_xyz
1 x,y,z
2 -y,x-y,z
3 -x+y,-x,z
4 -x,-y,1/2+z
5 y,-x+y,1/2+z
6 x-y,x,1/2+z
7 -x,-y,-z
8 y,-x+y,-z
9 x-y,x,-z
10 x,y,1/2-z
11 -y,x-y,1/2-z
12 -x+y,-x,1/2-z
_cell_length_a                   20.171(3)
_cell_length_b                   20.171(3)
_cell_length_c                   26.197(5)
_cell_angle_alpha                90
_cell_angle_beta                 90
_cell_angle_gamma                120
_cell_volume                     9230.75
loop_
_atom_site_label
_atom_site_type_symbol
_atom_site_fract_x
_atom_site_fract_y
_atom_site_fract_z
Zn1 Zn -1.0000 -1.0000 0.624052(15)
Zn2 Zn -1.0000 -1.0000 0.5000
Zn3 Zn -0.62189(3) -0.43463(3) 0.7500
Ti1 Ti -0.6667 -0.3333 0.59294(3)
N1 N -1.0000 -1.0000 0.70179(13)
O1 O -0.94162(12) -0.89015(11) 0.61408(6)
O2 O -1.00635(10) -0.91622(10) 0.54160(6)
O3 O -0.67721(13) -0.50017(12) 0.69112(7)
O4 O -0.64911(11) -0.40054(12) 0.64177(8)
O5 O -0.72753(13) -0.42361(12) 0.55713(7)
O6 O -0.60214(18) -0.33119(18) 0.7500
O7 O -0.5232(2) -0.4360(3) 0.7500
C1 C -0.91861(18) -0.78627(17) 0.56153(8)
C2 C -0.86760(18) -0.73522(17) 0.59568(10)
H1 H -0.8575 -0.7536 0.6264
C3 C -0.82964(17) -0.65601(16) 0.58637(9)
C4 C -0.77812(19) -0.60235(17) 0.62097(10)
H2 H -0.7672 -0.6200 0.6517
C5 C -0.74274(19) -0.52524(18) 0.61215(11)
C6 C -0.75809(17) -0.49778(18) 0.56535(11)
C7 C -0.80854(17) -0.54918(17) 0.53080(11)
H3 H -0.8195 -0.5309 0.5004
C8 C -0.84440(17) -0.62855(16) 0.53956(10)
C9 C -0.8979(2) -0.6840(2) 0.50457(10)
H4 H -0.9083 -0.6671 0.4733
C10 C -0.93385(19) -0.75983(17) 0.51484(11)
H5 H -0.9692 -0.7955 0.4910
C11 C -0.95840(16) -0.86942(16) 0.57250(9)
C12 C -0.68777(18) -0.47189(18) 0.65036(11)
C13 C -0.6667 -0.3333 0.7500
C14 C -1.03657(18) -1.07951(17) 0.72036(9)
H6 H -1.0082 -1.1044 0.7076
H7 H -1.0898 -1.1087 0.7075
C14A C -0.92049(17) -0.95706(25) 0.72036(9)
H6A H -0.8956 -0.9038 0.7076
H7A H -0.8913 -0.9811 0.7075
C14B C -1.04294(25) -0.96343(18) 0.72036(9)
H6B H -1.0962 -0.9918 0.7076
H7B H -1.0189 -0.9102 0.7075
N1I N -1.0000 -1.0000 0.79821(13)
C14I C -1.03657(18) -1.07951(17) 0.77964(9)
H6I H -1.0082 -1.1044 0.7924
H7I H -1.0898 -1.1087 0.7925
C14J C -0.92049(17) -0.95706(25) 0.77964(9)
H6J H -0.8956 -0.9038 0.7924
H7J H -0.8913 -0.9811 0.7925
C14K C -1.04294(25) -0.96343(18) 0.77964(9)
H6K H -1.0962 -0.9918 0.7924
H7K H -1.0189 -0.9102 0.7925
O6A O -0.66881(18) -0.27095(25) 0.7500
O6B O -0.72905(25) -0.39786(18) 0.7500
Zn3A Zn -1.56537(3) -1.18726(4) 0.7500
O1A O -1.10985(11) -1.05147(16) 0.61408(6)
O2A O -1.08378(10) -1.09013(14) 0.54160(6)
O3A O -1.49983(12) -1.17704(18) 0.69112(7)
O4A O -1.59946(12) -1.24857(16) 0.64177(8)
O5A O -1.57639(12) -1.30392(18) 0.55713(7)
O7A O -1.5640(3) -1.0872(4) 0.7500
C1A C -1.21373(17) -1.13234(25) 0.56153(8)
C2A C -1.26478(17) -1.13238(25) 0.59568(10)
H1A H -1.2464 -1.1039 0.6264
C3A C -1.34399(16) -1.17363(23) 0.58637(9)
C4A C -1.39765(17) -1.17577(25) 0.62097(10)
H2A H -1.3800 -1.1472 0.6517
C5A C -1.47476(18) -1.21750(26) 0.61215(11)
C6A C -1.50222(18) -1.26031(25) 0.56535(11)
C7A C -1.45082(17) -1.25936(24) 0.53080(11)
H3A H -1.4691 -1.2886 0.5004
C8A C -1.37145(16) -1.21585(23) 0.53956(10)
C9A C -1.3160(2) -1.2139(3) 0.50457(10)
H4A H -1.3329 -1.2412 0.4733
C10A C -1.24017(17) -1.17402(25) 0.51484(11)
H5A H -1.2045 -1.1737 0.4910
C11A C -1.13058(16) -1.08898(23) 0.57250(9)
C12A C -1.52811(18) -1.21588(25) 0.65036(11)
Zn3B Zn -0.81274(4) -1.37811(3) 0.7500
O1B O -0.94853(16) -1.05838(12) 0.61408(6)
O2B O -0.90987(14) -0.99365(10) 0.54160(6)
O3B O -0.82296(18) -1.32279(13) 0.69112(7)
O4B O -0.75143(16) -1.35089(11) 0.64177(8)
O5B O -0.69608(18) -1.27247(13) 0.55713(7)
O7B O -0.9128(4) -1.4768(2) 0.7500
C1B C -0.86766(25) -1.08139(18) 0.56153(8)
C2B C -0.86762(25) -1.13240(18) 0.59568(10)
H1B H -0.8961 -1.1425 0.6264
C3B C -0.82637(23) -1.17036(17) 0.58637(9)
C4B C -0.82423(25) -1.22188(19) 0.62097(10)
H2B H -0.8528 -1.2328 0.6517
C5B C -0.78250(26) -1.25726(19) 0.61215(11)
C6B C -0.73969(25) -1.24191(17) 0.56535(11)
C7B C -0.74064(24) -1.19146(17) 0.53080(11)
H3B H -0.7114 -1.1805 0.5004
C8B C -0.78415(23) -1.15560(17) 0.53956(10)
C9B C -0.7861(3) -1.1021(2) 0.50457(10)
H4B H -0.7588 -1.0917 0.4733
C10B C -0.82598(25) -1.06615(19) 0.51484(11)
H5B H -0.8263 -1.0308 0.4910
C11B C -0.91102(23) -1.04160(16) 0.57250(9)
C12B C -0.78412(25) -1.31223(18) 0.65036(11)
Zn1F Zn -1.0000 -1.0000 0.375948(15)
Ti1F Ti -1.3333 -1.6667 0.40706(3)
O1F O -1.05838(12) -1.10985(11) 0.38592(6)
O2F O -0.99365(10) -1.08378(10) 0.45840(6)
O3F O -1.32279(13) -1.49983(12) 0.30888(7)
O4F O -1.35089(11) -1.59946(12) 0.35823(8)
O5F O -1.27247(13) -1.57639(12) 0.44287(7)
C1F C -1.08139(18) -1.21373(17) 0.43847(8)
C2F C -1.13240(18) -1.26478(17) 0.40432(10)
H1F H -1.1425 -1.2464 0.3736
C3F C -1.17036(17) -1.34399(16) 0.41363(9)
C4F C -1.22188(19) -1.39765(17) 0.37903(10)
H2F H -1.2328 -1.3800 0.3483
C5F C -1.25726(19) -1.47476(18) 0.38785(11)
C6F C -1.24191(17) -1.50222(18) 0.43465(11)
C7F C -1.19146(17) -1.45082(17) 0.46920(11)
H3F H -1.1805 -1.4691 0.4996
C8F C -1.15560(17) -1.37145(16) 0.46044(10)
C9F C -1.1021(2) -1.3160(2) 0.49543(10)
H4F H -1.0917 -1.3329 0.5267
C10F C -1.06615(19) -1.24017(17) 0.48516(11)
H5F H -1.0308 -1.2045 0.5090
C11F C -1.04160(16) -1.13058(16) 0.42750(9)
C12F C -1.31223(18) -1.52811(18) 0.34964(11)
O1G O -0.89015(11) -0.94853(16) 0.38592(6)
O2G O -0.91622(10) -0.90987(14) 0.45840(6)
O3G O -0.50017(12) -0.82296(18) 0.30888(7)
O4G O -0.40054(12) -0.75143(16) 0.35823(8)
O5G O -0.42361(12) -0.69608(18) 0.44287(7)
C1G C -0.78627(17) -0.86766(25) 0.43847(8)
C2G C -0.73522(17) -0.86762(25) 0.40432(10)
H1G H -0.7536 -0.8961 0.3736
C3G C -0.65601(16) -0.82637(23) 0.41363(9)
C4G C -0.60235(17) -0.82423(25) 0.37903(10)
H2G H -0.6200 -0.8528 0.3483
C5G C -0.52524(18) -0.78250(26) 0.38785(11)
C6G C -0.49778(18) -0.73969(25) 0.43465(11)
C7G C -0.54918(17) -0.74064(24) 0.46920(11)
H3G H -0.5309 -0.7114 0.4996
C8G C -0.62855(16) -0.78415(23) 0.46044(10)
C9G C -0.6840(2) -0.7861(3) 0.49543(10)
H4G H -0.6671 -0.7588 0.5267
C10G C -0.75983(17) -0.82598(25) 0.48516(11)
H5G H -0.7955 -0.8263 0.5090
C11G C -0.86942(16) -0.91102(23) 0.42750(9)
C12G C -0.47189(18) -0.78412(25) 0.34964(11)
O1H O -1.05147(16) -0.94162(12) 0.38592(6)
O2H O -1.09013(14) -1.00635(10) 0.45840(6)
O3H O -1.17704(18) -0.67721(13) 0.30888(7)
O4H O -1.24857(16) -0.64911(11) 0.35823(8)
O5H O -1.30392(18) -0.72753(13) 0.44287(7)
C1H C -1.13234(25) -0.91861(18) 0.43847(8)
C2H C -1.13238(25) -0.86760(18) 0.40432(10)
H1H H -1.1039 -0.8575 0.3736
C3H C -1.17363(23) -0.82964(17) 0.41363(9)
C4H C -1.17577(25) -0.77812(19) 0.37903(10)
H2H H -1.1472 -0.7672 0.3483
C5H C -1.21750(26) -0.74274(19) 0.38785(11)
C6H C -1.26031(25) -0.75809(17) 0.43465(11)
C7H C -1.25936(24) -0.80854(17) 0.46920(11)
H3H H -1.2886 -0.8195 0.4996
C8H C -1.21585(23) -0.84440(17) 0.46044(10)
C9H C -1.2139(3) -0.8979(2) 0.49543(10)
H4H H -1.2412 -0.9083 0.5267
C10H C -1.17402(25) -0.93385(19) 0.48516(11)
H5H H -1.1737 -0.9692 0.5090
C11H C -1.08898(23) -0.95840(16) 0.42750(9)
C12H C -1.21588(25) -0.68777(18) 0.34964(11)
Zn1I Zn -1.0000 -1.0000 0.875948(15)
Zn3A_2 Zn -0.56537(3) -0.18726(4) 0.7500
Zn3B_2 Zn -0.81274(4) -0.37811(3) 0.7500
Zn3C Zn -1.37811(3) -1.56537(3) 0.2500
Zn3D Zn -0.43463(3) -0.81274(4) 0.2500
Zn3E Zn -1.18726(4) -0.62189(3) 0.2500
Ti1_2 Ti -1.6667 -1.3333 0.59294(3)
Ti1_3 Ti -0.6667 -1.3333 0.59294(3)
Ti1F_2 Ti -1.3333 -0.6667 0.40706(3)
Ti1F_3 Ti -0.3333 -0.6667 0.40706(3)
N1F N -1.0000 -1.0000 0.29821(13)
O3I O -0.67721(13) -0.50017(12) 0.80888(7)
O3J O -1.49983(12) -1.17704(18) 0.80888(7)
O3K O -0.82296(18) -1.32279(13) 0.80888(7)
O4A_2 O -0.59946(12) -0.24857(16) 0.64177(8)
O4B_2 O -0.75143(16) -0.35089(11) 0.64177(8)
O4G_2 O -1.40054(12) -1.75143(16) 0.35823(8)
O4H_2 O -1.24857(16) -1.64911(11) 0.35823(8)
O5A_2 O -0.57639(12) -0.30392(18) 0.55713(7)
O5B_2 O -0.69608(18) -0.27247(13) 0.55713(7)
O5G_2 O -1.42361(12) -1.69608(18) 0.44287(7)
O5H_2 O -1.30392(18) -1.72753(13) 0.44287(7)
O6A_2 O -1.66881(18) -1.27095(25) 0.7500
O6B_2 O -0.72905(25) -1.39786(18) 0.7500
loop_
_geom_bond_atom_site_label_1
_geom_bond_atom_site_label_2
_geom_bond_site_symmetry_1
_geom_bond_site_symmetry_2
Zn1 N1 1_555 1_555
Zn2 O2 1_555 1_555
Zn3 O3 1_555 1_555
Ti1 O4 1_555 1_555
N1 C14 1_555 1_555
O1 Zn1 1_555 1_555
O2 C11 1_555 1_555
O3 C12 1_555 1_555
O4 C12 1_555 1_555
O5 Ti1 1_555 1_555
O6 Zn3 1_555 1_555
O7 Zn3 1_555 1_555
C1 C2 1_555 1_555
C2 H1 1_555 1_555
C3 C2 1_555 1_555
C4 C3 1_555 1_555
H2 C4 1_555 1_555
C5 C4 1_555 1_555
C6 O5 1_555 1_555
C7 C6 1_555 1_555
H3 C7 1_555 1_555
C8 C3 1_555 1_555
C9 C8 1_555 1_555
H4 C9 1_555 1_555
C10 C1 1_555 1_555
H5 C10 1_555 1_555
C11 O1 1_555 1_555
C12 C5 1_555 1_555
C13 O6 1_555 1_555
C14 H6 1_555 1_555
H7 C14 1_555 1_555
C14A N1 1_555 1_555
H6A C14A 1_555 1_555
H7A C14A 1_555 1_555
C14B N1 1_555 1_555
H6B C14B 1_555 1_555
H7B C14B 1_555 1_555
N1I C14I 1_555 1_555
C14I C14 1_555 1_555
H6I C14I 1_555 1_555
H7I C14I 1_555 1_555
C14J C14A 1_555 1_555
H6J C14J 1_555 1_555
H7J C14J 1_555 1_555
C14K C14B 1_555 1_555
H6K C14K 1_555 1_555
H7K C14K 1_555 1_555
O6A C13 1_555 1_555
O6B C13 1_555 1_555
Zn3A O3A 1_555 1_555
O1A Zn1 1_555 1_555
O2A Zn2 1_555 1_555
O3A C12A 1_555 1_555
O4A C12A 1_555 1_555
O5A C6A 1_555 1_555
O7A Zn3A 1_555 1_555
C1A C2A 1_555 1_555
C2A H1A 1_555 1_555
C3A C2A 1_555 1_555
C4A C3A 1_555 1_555
H2A C4A 1_555 1_555
C5A C4A 1_555 1_555
C6A C5A 1_555 1_555
C7A C6A 1_555 1_555
H3A C7A 1_555 1_555
C8A C3A 1_555 1_555
C9A C8A 1_555 1_555
H4A C9A 1_555 1_555
C10A C1A 1_555 1_555
H5A C10A 1_555 1_555
C11A O1A 1_555 1_555
C12A C5A 1_555 1_555
Zn3B O3B 1_555 1_555
O1B Zn1 1_555 1_555
O2B Zn2 1_555 1_555
O3B C12B 1_555 1_555
O4B C12B 1_555 1_555
O5B C6B 1_555 1_555
O7B Zn3B 1_555 1_555
C1B C2B 1_555 1_555
C2B H1B 1_555 1_555
C3B C2B 1_555 1_555
C4B C3B 1_555 1_555
H2B C4B 1_555 1_555
C5B C4B 1_555 1_555
C6B C5B 1_555 1_555
C7B C6B 1_555 1_555
H3B C7B 1_555 1_555
C8B C3B 1_555 1_555
C9B C8B 1_555 1_555
H4B C9B 1_555 1_555
C10B C1B 1_555 1_555
H5B C10B 1_555 1_555
C11B O1B 1_555 1_555
C12B C5B 1_555 1_555
Zn1F O1F 1_555 1_555
Ti1F O4F 1_555 1_555
O1F C11F 1_555 1_555
O2F Zn2 1_555 1_555
O3F C12F 1_555 1_555
O4F C12F 1_555 1_555
O5F Ti1F 1_555 1_555
C1F C2F 1_555 1_555
C2F H1F 1_555 1_555
C3F C2F 1_555 1_555
C4F C3F 1_555 1_555
H2F C4F 1_555 1_555
C5F C4F 1_555 1_555
C6F O5F 1_555 1_555
C7F C6F 1_555 1_555
H3F C7F 1_555 1_555
C8F C3F 1_555 1_555
C9F C8F 1_555 1_555
H4F C9F 1_555 1_555
C10F C1F 1_555 1_555
H5F C10F 1_555 1_555
C11F O2F 1_555 1_555
C12F C5F 1_555 1_555
O1G Zn1F 1_555 1_555
O2G Zn2 1_555 1_555
O3G C12G 1_555 1_555
O4G C12G 1_555 1_555
O5G C6G 1_555 1_555
C1G C2G 1_555 1_555
C2G H1G 1_555 1_555
C3G C2G 1_555 1_555
C4G C3G 1_555 1_555
H2G C4G 1_555 1_555
C5G C4G 1_555 1_555
C6G C5G 1_555 1_555
C7G C6G 1_555 1_555
H3G C7G 1_555 1_555
C8G C3G 1_555 1_555
C9G C8G 1_555 1_555
H4G C9G 1_555 1_555
C10G C1G 1_555 1_555
H5G C10G 1_555 1_555
C11G O1G 1_555 1_555
C12G C5G 1_555 1_555
O1H Zn1F 1_555 1_555
O2H Zn2 1_555 1_555
O3H C12H 1_555 1_555
O4H C12H 1_555 1_555
O5H C6H 1_555 1_555
C1H C2H 1_555 1_555
C2H H1H 1_555 1_555
C3H C2H 1_555 1_555
C4H C3H 1_555 1_555
H2H C4H 1_555 1_555
C5H C4H 1_555 1_555
C6H C5H 1_555 1_555
C7H C6H 1_555 1_555
H3H C7H 1_555 1_555
C8H C3H 1_555 1_555
C9H C8H 1_555 1_555
H4H C9H 1_555 1_555
C10H C1H 1_555 1_555
H5H C10H 1_555 1_555
C11H O1H 1_555 1_555
C12H C5H 1_555 1_555
Zn1I N1I 1_555 1_555
Zn3A_2 O6A 1_555 1_555
Zn3B_2 O6B 1_555 1_555
Zn3C O3F 1_555 1_555
Zn3D O3G 1_555 1_555
Zn3E O3H 1_555 1_555
Ti1_2 O4A 1_555 1_555
Ti1_3 O4B 1_555 1_555
Ti1F_2 O4H 1_555 1_555
Ti1F_3 O4G 1_555 1_555
N1F Zn1F 1_555 1_555
O3I Zn3 1_555 1_555
O3J Zn3A 1_555 1_555
O3K Zn3B 1_555 1_555
O4A_2 Ti1 1_555 1_555
O4B_2 Ti1 1_555 1_555
O4G_2 Ti1F 1_555 1_555
O4H_2 Ti1F 1_555 1_555
O5A_2 Ti1 1_555 1_555
O5B_2 Ti1 1_555 1_555
O5G_2 Ti1F 1_555 1_555
O5H_2 Ti1F 1_555 1_555
O6A_2 Zn3A 1_555 1_555
O6B_2 Zn3B 1_555 1_555
C1 C11 1_555 1_555
C5 C6 1_555 1_555
C7 C8 1_555 1_555
C9 C10 1_555 1_555
N1I C14J 1_555 1_555
N1I C14K 1_555 1_555
O2A C11A 1_555 1_555
O5A Ti1_2 1_555 1_555
C1A C11A 1_555 1_555
C7A C8A 1_555 1_555
C9A C10A 1_555 1_555
O2B C11B 1_555 1_555
O5B Ti1_3 1_555 1_555
C1B C11B 1_555 1_555
C7B C8B 1_555 1_555
C9B C10B 1_555 1_555
C1F C11F 1_555 1_555
C5F C6F 1_555 1_555
C7F C8F 1_555 1_555
C9F C10F 1_555 1_555
O2G C11G 1_555 1_555
O5G Ti1F_3 1_555 1_555
C1G C11G 1_555 1_555
C7G C8G 1_555 1_555
C9G C10G 1_555 1_555
O2H C11H 1_555 1_555
O5H Ti1F_2 1_555 1_555
C1H C11H 1_555 1_555
C7H C8H 1_555 1_555
C9H C10H 1_555 1_555

#END
