
#######################################################################
#
#                 Cambridge Crystallographic Data Centre
#                                CCDC 
#
#######################################################################
#
# If this CIF has been generated from an entry in the Cambridge 
# Structural Database, then it will include bibliographic, chemical, 
# crystal, experimental, refinement or atomic coordinate data resulting 
# from the CCDC's data processing and validation procedures.
#
#######################################################################

data_IVOCON
_chemical_formula_moiety         '(C9 H29 N3 O12 P4 Zn3)n'
_symmetry_cell_setting           orthorhombic
_symmetry_space_group_name_H-M   'C m c 21'
_symmetry_Int_Tables_number      36
_space_group_name_Hall           'C 2c -2'
loop_
_symmetry_equiv_pos_site_id
_symmetry_equiv_pos_as_xyz
1 x,y,z
2 -x,-y,1/2+z
3 x,-y,1/2+z
4 -x,y,z
5 1/2+x,1/2+y,z
6 1/2-x,1/2-y,1/2+z
7 1/2+x,1/2-y,1/2+z
8 1/2-x,1/2+y,z
_cell_length_a                   13.7050(3)
_cell_length_b                   10.7337(3)
_cell_length_c                   15.8778(4)
_cell_angle_alpha                90
_cell_angle_beta                 90
_cell_angle_gamma                90
_cell_volume                     2335.71
loop_
_atom_site_label
_atom_site_type_symbol
_atom_site_fract_x
_atom_site_fract_y
_atom_site_fract_z
Zn1 Zn 0.66276(6) 0.65860(9) 0.42976(5)
Zn2 Zn 0.5000 0.38161(13) 0.27572(9)
P1 P 0.84021(12) 0.86257(17) 0.41648(13)
H1 H 0.9123 0.8607 0.4702
P2 P 0.5000 0.6448(2) 0.58089(15)
H2 H 0.5000 0.5273 0.6011
P3 P 0.5000 0.6832(2) 0.28837(15)
H3 H 0.5000 0.7476 0.2191
O1 O 0.7747(4) 0.7637(5) 0.4501(4)
O2 O 0.8832(6) 0.8283(7) 0.3332(5)
O3 O 0.7926(4) 0.9879(5) 0.4164(5)
O4 O 0.5918(4) 0.6769(8) 0.5357(4)
O5 O 0.5000 0.7083(6) 0.6668(4)
O6 O 0.5910(4) 0.7189(7) 0.3334(4)
O7 O 0.5000 0.5572(10) 0.2514(7)
O4C O 0.4082(4) 0.6769(8) 0.5357(4)
O6C O 0.4090(4) 0.7189(7) 0.3334(4)
Zn1C Zn 0.33724(6) 0.65860(9) 0.42976(5)
P1C P 0.15979(12) 0.86257(17) 0.41648(13)
H1C H 0.0877 0.8607 0.4702
O1C O 0.2253(4) 0.7637(5) 0.4501(4)
O2C O 0.1168(6) 0.8283(7) 0.3332(5)
O3C O 0.2074(4) 0.9879(5) 0.4164(5)
Zn1D Zn 0.16276(6) 1.15860(9) 0.42976(5)
Zn1G Zn 0.83724(6) 1.15860(9) 0.42976(5)
Zn2A Zn 0.5000 0.61839(13) 0.77572(9)
Zn2D Zn -0.0000 0.88161(13) 0.27572(9)
Zn2D_2 Zn 1.0000 0.88161(13) 0.27572(9)
O2D O 0.3832(6) 0.3283(7) 0.3332(5)
O2G O 0.6168(6) 0.3283(7) 0.3332(5)
O3D O 0.2926(4) 0.4879(5) 0.4164(5)
O3G O 0.7074(4) 0.4879(5) 0.4164(5)
O5A O 0.5000 0.2917(6) 0.1668(4)
C1 C 0.7462(7) 0.8076(10) 0.6713(8)
H4 H 0.7320 0.7402 0.7091
H5 H 0.8030 0.8513 0.6906
H6 H 0.7580 0.7751 0.6159
C2 C 0.6493(9) 0.9586(11) 0.7504(6)
H7 H 0.5930 1.0117 0.7486
H8 H 0.7063 1.0078 0.7619
H9 H 0.6412 0.8975 0.7939
C3 C 0.6749(6) 0.9845(8) 0.5964(7)
H10 H 0.6867 0.9372 0.5453
H11 H 0.7321 1.0353 0.6071
C4 C 0.5873(6) 1.0690(7) 0.5830(5)
H12 H 0.5761 1.1175 0.6336
H13 H 0.6012 1.1265 0.5374
C5 C 0.5000 0.9622(13) 0.4738(9)
N1 N 0.6608(4) 0.8955(6) 0.6686(5)
H14 H 0.6017 0.8467 0.6578
N2 N 0.5000 0.9990(8) 0.5631(7)
C1C C 0.2538(7) 0.8076(10) 0.6713(8)
H4C H 0.2680 0.7402 0.7091
H5C H 0.1970 0.8513 0.6906
H6C H 0.2420 0.7751 0.6159
C2C C 0.3507(9) 0.9586(11) 0.7504(6)
H7C H 0.4070 1.0117 0.7486
H8C H 0.2937 1.0078 0.7619
H9C H 0.3588 0.8975 0.7939
C3C C 0.3251(6) 0.9845(8) 0.5964(7)
H10C H 0.3133 0.9372 0.5453
H11C H 0.2679 1.0353 0.6071
C4C C 0.4127(6) 1.0690(7) 0.5830(5)
H12C H 0.4239 1.1175 0.6336
H13C H 0.3988 1.1265 0.5374
N1C N 0.3392(4) 0.8955(6) 0.6686(5)
H14C H 0.3983 0.8467 0.6578
loop_
_geom_bond_atom_site_label_1
_geom_bond_atom_site_label_2
_geom_bond_site_symmetry_1
_geom_bond_site_symmetry_2
Zn1 O1 1_555 1_555
Zn2 O7 1_555 1_555
P1 H1 1_555 1_555
P2 H2 1_555 1_555
P3 H3 1_555 1_555
O1 P1 1_555 1_555
O2 P1 1_555 1_555
O3 P1 1_555 1_555
O4 Zn1 1_555 1_555
O5 P2 1_555 1_555
O6 Zn1 1_555 1_555
O7 P3 1_555 1_555
C1 H4 1_555 1_555
H5 C1 1_555 1_555
H6 C1 1_555 1_555
C2 H7 1_555 1_555
H8 C2 1_555 1_555
H9 C2 1_555 1_555
C3 H10 1_555 1_555
H11 C3 1_555 1_555
C4 C3 1_555 1_555
H12 C4 1_555 1_555
H13 C4 1_555 1_555
C5 N2 1_555 1_555
N1 C1 1_555 1_555
H14 N1 1_555 1_555
N2 C4 1_555 1_555
O4C P2 1_555 1_555
O6C P3 1_555 1_555
Zn1C O4C 1_555 1_555
P1C H1C 1_555 1_555
O1C Zn1C 1_555 1_555
O2C P1C 1_555 1_555
O3C P1C 1_555 1_555
Zn1D O3C 1_555 1_555
Zn1G O3 1_555 1_555
Zn2A O5 1_555 1_555
Zn2D O2C 1_555 1_555
Zn2D_2 O2 1_555 1_555
O2D Zn2 1_555 1_555
O2G Zn2 1_555 1_555
O3D Zn1C 1_555 1_555
O3G Zn1 1_555 1_555
O5A Zn2 1_555 1_555
C1C H4C 1_555 1_555
H5C C1C 1_555 1_555
H6C C1C 1_555 1_555
C2C H7C 1_555 1_555
H8C C2C 1_555 1_555
H9C C2C 1_555 1_555
C3C H10C 1_555 1_555
H11C C3C 1_555 1_555
C4C N2 1_555 1_555
H12C C4C 1_555 1_555
H13C C4C 1_555 1_555
N1C C1C 1_555 1_555
H14C N1C 1_555 1_555
P2 O4 1_555 1_555
P3 O6 1_555 1_555
C2 N1 1_555 1_555
C3 N1 1_555 1_555
O6C Zn1C 1_555 1_555
P1C O1C 1_555 1_555
C2C N1C 1_555 1_555
C3C C4C 1_555 1_555
C3C N1C 1_555 1_555

#END
