
#######################################################################
#
#                 Cambridge Crystallographic Data Centre
#                                CCDC 
#
#######################################################################
#
# If this CIF has been generated from an entry in the Cambridge 
# Structural Database, then it will include bibliographic, chemical, 
# crystal, experimental, refinement or atomic coordinate data resulting 
# from the CCDC's data processing and validation procedures.
#
#######################################################################

data_VIWLEU
_chemical_formula_moiety         '(C50 H84 Cu4 O77 Sm4)n'
_symmetry_cell_setting           monoclinic
_symmetry_space_group_name_H-M   'P 21/n'
_symmetry_Int_Tables_number      14
_space_group_name_Hall           '-P 2yn'
loop_
_symmetry_equiv_pos_site_id
_symmetry_equiv_pos_as_xyz
1 x,y,z
2 1/2-x,1/2+y,1/2-z
3 -x,-y,-z
4 1/2+x,1/2-y,1/2+z
_cell_length_a                   10.923(2)
_cell_length_b                   22.771(5)
_cell_length_c                   19.758(4)
_cell_angle_alpha                90
_cell_angle_beta                 99.64(3)
_cell_angle_gamma                90
_cell_volume                     4844.97
loop_
_atom_site_label
_atom_site_type_symbol
_atom_site_fract_x
_atom_site_fract_y
_atom_site_fract_z
Cu1 Cu 0.09079(6) 0.17604(4) 0.89974(4)
Cu2 Cu 0.30485(6) 0.17721(3) 0.65338(3)
Sm1 Sm -0.45921(3) 0.146875(13) 0.400090(15)
Sm2 Sm 0.85334(3) 0.146442(15) 1.147341(18)
C1 C -0.2473(5) 0.2506(3) 0.5861(3)
C2 C -0.2799(5) 0.2805(3) 0.6420(3)
C3 C -0.2073(5) 0.2750(3) 0.7066(3)
H1 H -0.2277 0.2962 0.7434
C4 C -0.1038(5) 0.2380(3) 0.7164(3)
C5 C -0.0712(5) 0.2078(3) 0.6600(3)
C6 C -0.1429(5) 0.2149(3) 0.5953(3)
H2 H -0.1205 0.1955 0.5578
C7 C -0.3158(5) 0.2603(3) 0.5140(3)
C8 C -0.4006(5) 0.3127(3) 0.6374(3)
C9 C -0.0362(5) 0.2294(3) 0.7875(3)
C10 C 0.0460(5) 0.1731(3) 0.6652(3)
C11 C -0.1268(5) -0.0042(3) 0.5014(3)
C12 C -0.0787(6) 0.0458(3) 0.4734(4)
C13 C 0.0492(6) 0.0488(3) 0.4728(4)
H3 H 0.0818 0.0817 0.4544
C14 C -0.2627(5) -0.0101(3) 0.5074(4)
C15 C -0.1584(6) 0.0946(4) 0.4429(5)
C16 C 0.4655(5) 0.2090(3) 0.8923(3)
C17 C 0.4934(5) 0.2409(3) 0.8364(3)
C18 C 0.5943(5) 0.2789(3) 0.8458(3)
H4 H 0.6116 0.3008 0.8088
C19 C 0.6708(5) 0.2850(3) 0.9100(3)
C20 C 0.6412(5) 0.2534(3) 0.9661(3)
C21 C 0.5390(5) 0.2156(3) 0.9567(3)
H5 H 0.5199 0.1945 0.9938
C22 C 0.3523(5) 0.1703(3) 0.8889(3)
C23 C 0.4249(5) 0.2309(3) 0.7651(3)
C24 C 0.7916(5) 0.3177(3) 0.9149(3)
C25 C 0.7110(5) 0.2611(3) 1.0369(3)
O1 O -0.3509(4) 0.2168(2) 0.4777(2)
O2 O -0.3275(4) 0.3128(2) 0.4950(2)
O3 O -0.4945(4) 0.2909(2) 0.5987(2)
O4 O -0.4112(5) 0.3569(2) 0.6734(3)
O5 O -0.0290(4) 0.2715(2) 0.8288(2)
O6 O 0.0067(4) 0.1784(2) 0.8037(2)
O7 O 0.1451(4) 0.2017(2) 0.6803(2)
O8 O 0.0385(5) 0.1195(2) 0.6519(3)
O9 O -0.3315(4) -0.0395(2) 0.4620(3)
O10 O -0.2986(4) 0.0122(3) 0.5595(3)
O11 O -0.2754(4) 0.0903(2) 0.4383(3)
O12 O -0.1075(6) 0.1377(4) 0.4209(8)
O13 O 0.2496(4) 0.1947(2) 0.8683(2)
O14 O 0.3653(5) 0.1191(3) 0.9089(3)
O15 O 0.3879(4) 0.1797(2) 0.7495(2)
O16 O 0.4124(5) 0.2734(2) 0.7239(2)
O17 O 0.8010(4) 0.3626(2) 0.8796(3)
O18 O 0.8851(4) 0.2955(2) 0.9526(2)
O19 O 0.7409(4) 0.2166(2) 1.0731(2)
O20 O 0.7279(4) 0.3135(2) 1.0578(2)
O21 O -0.4747(4) 0.1044(2) 0.5173(2)
O22 O -0.5122(4) 0.0409(2) 0.3893(3)
O23 O -0.4805(6) 0.1096(3) 0.2810(3)
O24 O -0.2847(4) 0.1882(2) 0.3453(3)
O25 O 0.6670(6) 0.1767(3) 1.1977(4)
O26 O 0.8832(11) 0.1049(5) 1.2637(5)
O27 O 0.9249(13) 0.0407(5) 1.1605(6)
O28 O 0.6782(8) 0.0827(4) 1.1036(5)
O29 O 0.8929(7) 0.1043(3) 1.0402(3)
O30 O -0.0722(4) 0.1786(3) 0.9334(3)
O31 O 0.1134(10) 0.0788(3) 0.9064(5)
O32 O 0.2690(5) 0.0806(2) 0.6529(3)
O33 O 0.4726(4) 0.1765(2) 0.6226(2)
C11B C 0.1268(5) 0.0042(3) 0.4986(3)
C12B C 0.0787(6) -0.0458(3) 0.5266(4)
C13B C -0.0492(6) -0.0488(3) 0.5272(4)
H3B H -0.0818 -0.0817 0.5456
C14B C 0.2627(5) 0.0101(3) 0.4926(4)
C15B C 0.1584(6) -0.0946(4) 0.5571(5)
O9B O 0.3315(4) 0.0395(2) 0.5380(3)
O10B O 0.2986(4) -0.0122(3) 0.4405(3)
O11B O 0.2754(4) -0.0903(2) 0.5617(3)
O12B O 0.1075(6) -0.1377(4) 0.5791(8)
Cu1B Cu -0.09079(6) -0.17604(4) 0.10026(4)
Cu2B Cu -0.30485(6) -0.17721(3) 0.34662(3)
Sm1B Sm 0.45921(3) -0.146875(13) 0.599910(15)
Sm2B Sm -0.85334(3) -0.146442(15) -0.147341(18)
C1B C 0.2473(5) -0.2506(3) 0.4139(3)
C2B C 0.2799(5) -0.2805(3) 0.3580(3)
C3B C 0.2073(5) -0.2750(3) 0.2934(3)
H1B H 0.2277 -0.2962 0.2566
C4B C 0.1038(5) -0.2380(3) 0.2836(3)
C5B C 0.0712(5) -0.2078(3) 0.3400(3)
C6B C 0.1429(5) -0.2149(3) 0.4047(3)
H2B H 0.1205 -0.1955 0.4422
C7B C 0.3158(5) -0.2603(3) 0.4860(3)
C8B C 0.4006(5) -0.3127(3) 0.3626(3)
C9B C 0.0362(5) -0.2294(3) 0.2125(3)
C10B C -0.0460(5) -0.1731(3) 0.3348(3)
C16B C -0.4655(5) -0.2090(3) 0.1077(3)
C17B C -0.4934(5) -0.2409(3) 0.1636(3)
C18B C -0.5943(5) -0.2789(3) 0.1542(3)
H4B H -0.6116 -0.3008 0.1912
C19B C -0.6708(5) -0.2850(3) 0.0900(3)
C20B C -0.6412(5) -0.2534(3) 0.0339(3)
C21B C -0.5390(5) -0.2156(3) 0.0433(3)
H5B H -0.5199 -0.1945 0.0062
C22B C -0.3523(5) -0.1703(3) 0.1111(3)
C23B C -0.4249(5) -0.2309(3) 0.2349(3)
C24B C -0.7916(5) -0.3177(3) 0.0851(3)
C25B C -0.7110(5) -0.2611(3) -0.0369(3)
O1B O 0.3509(4) -0.2168(2) 0.5223(2)
O2B O 0.3275(4) -0.3128(2) 0.5050(2)
O3B O 0.4945(4) -0.2909(2) 0.4013(2)
O4B O 0.4112(5) -0.3569(2) 0.3266(3)
O5B O 0.0290(4) -0.2715(2) 0.1712(2)
O6B O -0.0067(4) -0.1784(2) 0.1963(2)
O7B O -0.1451(4) -0.2017(2) 0.3197(2)
O8B O -0.0385(5) -0.1195(2) 0.3481(3)
O13B O -0.2496(4) -0.1947(2) 0.1317(2)
O14B O -0.3653(5) -0.1191(3) 0.0911(3)
O15B O -0.3879(4) -0.1797(2) 0.2505(2)
O16B O -0.4124(5) -0.2734(2) 0.2761(2)
O17B O -0.8010(4) -0.3626(2) 0.1204(3)
O18B O -0.8851(4) -0.2955(2) 0.0474(2)
O19B O -0.7409(4) -0.2166(2) -0.0731(2)
O20B O -0.7279(4) -0.3135(2) -0.0578(2)
O21B O 0.4747(4) -0.1044(2) 0.4827(2)
O22B O 0.5122(4) -0.0409(2) 0.6107(3)
O23B O 0.4805(6) -0.1096(3) 0.7190(3)
O24B O 0.2847(4) -0.1882(2) 0.6547(3)
O25B O -0.6670(6) -0.1767(3) -0.1977(4)
O26B O -0.8832(11) -0.1049(5) -0.2637(5)
O27B O -0.9249(13) -0.0407(5) -0.1605(6)
O28B O -0.6782(8) -0.0827(4) -0.1036(5)
O29B O -0.8929(7) -0.1043(3) -0.0402(3)
O30B O 0.0722(4) -0.1786(3) 0.0666(3)
O31B O -0.1134(10) -0.0788(3) 0.0936(5)
O32B O -0.2690(5) -0.0806(2) 0.3471(3)
O33B O -0.4726(4) -0.1765(2) 0.3774(2)
Cu1A Cu 0.40921(6) -0.32396(4) 0.60026(4)
Cu1C Cu -0.40921(6) 0.32396(4) 0.39974(4)
Cu2A Cu -0.80485(6) -0.32279(3) -0.15338(3)
Cu2C Cu 0.80485(6) 0.32279(3) 1.15338(3)
Sm1A Sm -1.04079(3) -0.353125(13) 0.099910(15)
Sm1A_2 Sm -0.04079(3) -0.353125(13) 0.099910(15)
Sm1C Sm 0.04079(3) 0.353125(13) 0.900090(15)
Sm1C_2 Sm 1.04079(3) 0.353125(13) 0.900090(15)
Sm2A Sm -0.35334(3) -0.353558(15) 0.352659(18)
Sm2A_2 Sm 0.64666(3) -0.353558(15) 0.352659(18)
Sm2C Sm -0.64666(3) 0.353558(15) 0.647341(18)
Sm2C_2 Sm 0.35334(3) 0.353558(15) 0.647341(18)
O2A O -0.1725(4) -0.1872(2) 0.0050(2)
O2C O 0.1725(4) 0.1872(2) 0.9950(2)
O3A O -1.0055(4) -0.2091(2) -0.0987(2)
O3C O 1.0055(4) 0.2091(2) 1.0987(2)
O4A O -1.0888(5) -0.1431(2) -0.1734(3)
O4C O 1.0888(5) 0.1431(2) 1.1734(3)
O5A O 0.5290(4) -0.2285(2) 0.6712(2)
O5C O -0.5290(4) 0.2285(2) 0.3288(2)
O16A O -0.9124(5) -0.2266(2) -0.2239(2)
O16C O 0.9124(5) 0.2266(2) 1.2239(2)
O17A O 0.6990(4) -0.1374(2) 0.6204(3)
O17C O -0.6990(4) 0.1374(2) 0.3796(3)
O18A O 0.6149(4) -0.2045(2) 0.5474(2)
O18C O -0.6149(4) 0.2045(2) 0.4526(2)
O20A O -0.2279(4) -0.1865(2) 0.4422(2)
O20C O 0.2279(4) 0.1865(2) 0.5578(2)
O34 O 0.8315(7) 0.0615(4) 0.6696(4)
O35 O 0.7406(8) 0.1240(5) 0.8606(5)
O36 O 0.6465(9) 0.1142(6) 0.7243(5)
O37 O 0.8803(15) -0.0624(5) 0.6984(7)
O38 O 0.7169(19) -0.0686(10) 0.8215(18)
O39 O 0.885(3) 0.0285(12) 0.8096(13)
O40 O 0.5841(16) 0.0590(8) 0.9345(16)
O41 O 0.5831(19) -0.1101(12) 0.9190(11)
O42 O 0.513(3) 0.0139(10) 0.7623(11)
O43 O 0.110(3) 0.0102(10) 1.0276(13)
O44 O 0.262(4) 0.0379(11) 0.7912(10)
loop_
_geom_bond_atom_site_label_1
_geom_bond_atom_site_label_2
_geom_bond_site_symmetry_1
_geom_bond_site_symmetry_2
Cu1 O5 1_555 1_555
Cu2 O7 1_555 1_555
Sm1 O1 1_555 1_555
Sm2 O19 1_555 1_555
C1 C2 1_555 1_555
C2 C3 1_555 1_555
C3 H1 1_555 1_555
C4 C3 1_555 1_555
C5 C4 1_555 1_555
C6 C1 1_555 1_555
H2 C6 1_555 1_555
C7 C1 1_555 1_555
C8 C2 1_555 1_555
C9 C4 1_555 1_555
C10 C5 1_555 1_555
C11 C12 1_555 1_555
C12 C13 1_555 1_555
C13 H3 1_555 1_555
C14 C11 1_555 1_555
C15 C12 1_555 1_555
C16 C17 1_555 1_555
C17 C18 1_555 1_555
C18 H4 1_555 1_555
C19 C18 1_555 1_555
C20 C19 1_555 1_555
C21 C16 1_555 1_555
H5 C21 1_555 1_555
C22 C16 1_555 1_555
C23 C17 1_555 1_555
C24 C19 1_555 1_555
C25 C20 1_555 1_555
O1 C7 1_555 1_555
O2 C7 1_555 1_555
O3 C8 1_555 1_555
O4 C8 1_555 1_555
O5 C9 1_555 1_555
O6 Cu1 1_555 1_555
O7 C10 1_555 1_555
O8 C10 1_555 1_555
O9 C14 1_555 1_555
O10 C14 1_555 1_555
O11 Sm1 1_555 1_555
O12 C15 1_555 1_555
O13 Cu1 1_555 1_555
O14 C22 1_555 1_555
O15 Cu2 1_555 1_555
O16 Cu2 1_555 1_555
O17 C24 1_555 1_555
O18 C24 1_555 1_555
O19 C25 1_555 1_555
O20 C25 1_555 1_555
O21 Sm1 1_555 1_555
O22 Sm1 1_555 1_555
O23 Sm1 1_555 1_555
O24 Sm1 1_555 1_555
O25 Sm2 1_555 1_555
O26 Sm2 1_555 1_555
O27 Sm2 1_555 1_555
O28 Sm2 1_555 1_555
O29 Sm2 1_555 1_555
O30 Cu1 1_555 1_555
O31 Cu1 1_555 1_555
O32 Cu2 1_555 1_555
O33 Cu2 1_555 1_555
C11B C13 1_555 1_555
C12B C11B 1_555 1_555
C13B C11 1_555 1_555
H3B C13B 1_555 1_555
C14B C11B 1_555 1_555
C15B C12B 1_555 1_555
O9B C14B 1_555 1_555
O10B C14B 1_555 1_555
O11B C15B 1_555 1_555
O12B C15B 1_555 1_555
Cu1B O5B 1_555 1_555
Cu2B O7B 1_555 1_555
Sm1B O11B 1_555 1_555
Sm2B O19B 1_555 1_555
C1B C2B 1_555 1_555
C2B C3B 1_555 1_555
C3B H1B 1_555 1_555
C4B C3B 1_555 1_555
C5B C4B 1_555 1_555
C6B C1B 1_555 1_555
H2B C6B 1_555 1_555
C7B C1B 1_555 1_555
C8B C2B 1_555 1_555
C9B C4B 1_555 1_555
C10B C5B 1_555 1_555
C16B C17B 1_555 1_555
C17B C18B 1_555 1_555
C18B H4B 1_555 1_555
C19B C18B 1_555 1_555
C20B C19B 1_555 1_555
C21B C16B 1_555 1_555
H5B C21B 1_555 1_555
C22B C16B 1_555 1_555
C23B C17B 1_555 1_555
C24B C19B 1_555 1_555
C25B C20B 1_555 1_555
O1B Sm1B 1_555 1_555
O2B C7B 1_555 1_555
O3B C8B 1_555 1_555
O4B C8B 1_555 1_555
O5B C9B 1_555 1_555
O6B Cu1B 1_555 1_555
O7B C10B 1_555 1_555
O8B C10B 1_555 1_555
O13B Cu1B 1_555 1_555
O14B C22B 1_555 1_555
O15B Cu2B 1_555 1_555
O16B Cu2B 1_555 1_555
O17B C24B 1_555 1_555
O18B C24B 1_555 1_555
O19B C25B 1_555 1_555
O20B C25B 1_555 1_555
O21B Sm1B 1_555 1_555
O22B Sm1B 1_555 1_555
O23B Sm1B 1_555 1_555
O24B Sm1B 1_555 1_555
O25B Sm2B 1_555 1_555
O26B Sm2B 1_555 1_555
O27B Sm2B 1_555 1_555
O28B Sm2B 1_555 1_555
O29B Sm2B 1_555 1_555
O30B Cu1B 1_555 1_555
O31B Cu1B 1_555 1_555
O32B Cu2B 1_555 1_555
O33B Cu2B 1_555 1_555
Cu1A O2B 1_555 1_555
Cu1C O2 1_555 1_555
Cu2A O20B 1_555 1_555
Cu2C O20 1_555 1_555
Sm1A O17B 1_555 1_555
Sm1A_2 O5B 1_555 1_555
Sm1C O5 1_555 1_555
Sm1C_2 O17 1_555 1_555
Sm2A O16B 1_555 1_555
Sm2A_2 O3B 1_555 1_555
Sm2C O3 1_555 1_555
Sm2C_2 O16 1_555 1_555
O2A Cu1B 1_555 1_555
O2C Cu1 1_555 1_555
O3A Sm2B 1_555 1_555
O3C Sm2 1_555 1_555
O4A Sm2B 1_555 1_555
O4C Sm2 1_555 1_555
O5A Sm1B 1_555 1_555
O5C Sm1 1_555 1_555
O16A Sm2B 1_555 1_555
O16C Sm2 1_555 1_555
O17A Sm1B 1_555 1_555
O17C Sm1 1_555 1_555
O18A Sm1B 1_555 1_555
O18C Sm1 1_555 1_555
O20A Cu2B 1_555 1_555
O20C Cu2 1_555 1_555
C5 C6 1_555 1_555
C9 O6 1_555 1_555
C15 O11 1_555 1_555
C20 C21 1_555 1_555
C22 O13 1_555 1_555
C23 O15 1_555 1_555
C23 O16 1_555 1_555
O4 Sm2C 1_555 1_555
O18 Sm1C_2 1_555 1_555
C12B C13B 1_555 1_555
C5B C6B 1_555 1_555
C7B O1B 1_555 1_555
C9B O6B 1_555 1_555
C20B C21B 1_555 1_555
C22B O13B 1_555 1_555
C23B O15B 1_555 1_555
C23B O16B 1_555 1_555
O4B Sm2A_2 1_555 1_555
O18B Sm1A 1_555 1_555
Cu1A O5A 1_555 1_555
Cu1C O5C 1_555 1_555
Cu2A O16A 1_555 1_555
Cu2C O16C 1_555 1_555

#END
