
#######################################################################
#
#                 Cambridge Crystallographic Data Centre
#                                CCDC 
#
#######################################################################
#
# If this CIF has been generated from an entry in the Cambridge 
# Structural Database, then it will include bibliographic, chemical, 
# crystal, experimental, refinement or atomic coordinate data resulting 
# from the CCDC's data processing and validation procedures.
#
#######################################################################

data_IGUTUB
_chemical_formula_moiety         '(C27 H23 Cd1 N3 O5)n'
_symmetry_cell_setting           monoclinic
_symmetry_space_group_name_H-M   'P 21/c'
_symmetry_Int_Tables_number      14
_space_group_name_Hall           '-P 2ybc'
loop_
_symmetry_equiv_pos_site_id
_symmetry_equiv_pos_as_xyz
1 x,y,z
2 -x,1/2+y,1/2-z
3 -x,-y,-z
4 x,1/2-y,1/2+z
_cell_length_a                   9.70550(15)
_cell_length_b                   17.8498(3)
_cell_length_c                   14.7845(3)
_cell_angle_alpha                90
_cell_angle_beta                 94.7485(15)
_cell_angle_gamma                90
_cell_volume                     2552.49
loop_
_atom_site_label
_atom_site_type_symbol
_atom_site_fract_x
_atom_site_fract_y
_atom_site_fract_z
Cd1 Cd 0.86833(2) 0.581590(12) 0.519255(14)
O1 O 0.7619(3) 0.54214(16) 0.38438(18)
O2 O 0.6838(3) 0.66640(19) 0.53060(19)
O3 O 0.8397(3) 0.66233(17) 0.64654(19)
O4 O 0.9344(3) 0.46388(19) 0.4031(2)
N1 N 0.9929(3) 0.16497(18) 0.0509(2)
N2 N 0.2464(3) 0.99002(19) 0.9051(2)
C1 C 0.8245(4) 0.48468(19) 0.3632(2)
C2 C 0.7581(4) 0.4373(2) 0.2879(3)
C3 C 0.8296(4) 0.3800(2) 0.2491(2)
H1 H 0.9203 0.3699 0.2709
C4 C 0.7675(4) 0.3372(2) 0.1776(3)
C5 C 0.6304(5) 0.3514(3) 0.1481(4)
H2 H 0.5874 0.3233 0.1009
C6 C 0.5577(6) 0.4068(4) 0.1882(5)
H3 H 0.4651 0.4146 0.1691
C7 C 0.6211(5) 0.4511(3) 0.2566(4)
H4 H 0.5725 0.4899 0.2815
C8 C 1.0088(5) 0.1776(3) 0.1398(3)
H5 H 1.0705 0.1475 0.1749
C9 C 0.9393(5) 0.2326(3) 0.1830(3)
H6 H 0.9557 0.2393 0.2454
C10 C 0.8457(4) 0.2774(2) 0.1340(3)
C11 C 0.8272(6) 0.2636(3) 0.0424(3)
H7 H 0.7642 0.2922 0.0062
C12 C 0.9009(6) 0.2080(3) 0.0035(3)
H8 H 0.8858 0.2002 -0.0587
C13 C 0.7264(4) 0.6843(2) 0.6097(3)
C14 C 0.6377(4) 0.7346(2) 0.6621(3)
C15 C 0.5119(6) 0.7609(4) 0.6247(3)
H9 H 0.4785 0.7452 0.5670
C16 C 0.4353(6) 0.8101(4) 0.6718(3)
H10 H 0.3528 0.8287 0.6440
C17 C 0.4771(4) 0.8325(2) 0.7588(3)
C18 C 0.6007(4) 0.8029(3) 0.7973(3)
H11 H 0.6319 0.8164 0.8563
C19 C 0.6781(4) 0.7541(3) 0.7501(3)
H12 H 0.7591 0.7341 0.7783
C20 C 0.2214(4) 0.9805(3) 0.8155(3)
H13 H 0.1528 1.0095 0.7850
C21 C 0.2913(5) 0.9303(3) 0.7662(3)
H14 H 0.2695 0.9259 0.7040
C22 C 0.3954(4) 0.8859(2) 0.8093(2)
C23 C 0.4206(4) 0.8964(3) 0.9017(3)
H15 H 0.4884 0.8683 0.9342
C24 C 0.3466(4) 0.9479(3) 0.9456(3)
H16 H 0.3674 0.9540 1.0077
Cd1A Cd 0.13167(2) 1.081590(12) 0.980745(14)
Cd1A_2 Cd 1.13167(2) 0.081590(12) -0.019255(14)
Cd1B Cd 1.13167(2) 0.418410(12) 0.480745(14)
O4B O 1.0656(3) 0.53612(19) 0.5969(2)
N1A N 1.0071(3) 0.66497(18) 0.4491(2)
N2A N 0.7536(3) 0.49002(19) 0.5949(2)
O5 O 0.7708(14) 0.4627(6) -0.0473(6)
N3 N 0.8362(9) 0.5724(5) 0.0301(6)
C25 C 0.8050(11) 0.4986(7) 0.0201(8)
H17 H 0.8108 0.4713 0.0738
C26 C 0.8848(19) 0.6065(8) 0.1152(8)
H18 H 0.8533 0.5778 0.1644
H19 H 0.8495 0.6566 0.1176
H20 H 0.9840 0.6078 0.1204
C27 C 0.8319(19) 0.6172(8) -0.0488(9)
H21 H 0.8285 0.5856 -0.1015
H22 H 0.9132 0.6480 -0.0469
H23 H 0.7512 0.6485 -0.0516
loop_
_geom_bond_atom_site_label_1
_geom_bond_atom_site_label_2
_geom_bond_site_symmetry_1
_geom_bond_site_symmetry_2
Cd1 O1 1_555 1_555
O1 C1 1_555 1_555
O2 Cd1 1_555 1_555
O3 Cd1 1_555 1_555
O4 C1 1_555 1_555
N1 C8 1_555 1_555
N2 C20 1_555 1_555
C1 C2 1_555 1_555
C2 C3 1_555 1_555
C3 H1 1_555 1_555
C4 C3 1_555 1_555
C5 C4 1_555 1_555
H2 C5 1_555 1_555
C6 C5 1_555 1_555
H3 C6 1_555 1_555
C7 C2 1_555 1_555
H4 C7 1_555 1_555
C8 H5 1_555 1_555
C9 C8 1_555 1_555
H6 C9 1_555 1_555
C10 C4 1_555 1_555
C11 C10 1_555 1_555
H7 C11 1_555 1_555
C12 N1 1_555 1_555
H8 C12 1_555 1_555
C13 O2 1_555 1_555
C14 C13 1_555 1_555
C15 C14 1_555 1_555
H9 C15 1_555 1_555
C16 C15 1_555 1_555
H10 C16 1_555 1_555
C17 C16 1_555 1_555
C18 C17 1_555 1_555
H11 C18 1_555 1_555
C19 C14 1_555 1_555
H12 C19 1_555 1_555
C20 H13 1_555 1_555
C21 C20 1_555 1_555
H14 C21 1_555 1_555
C22 C17 1_555 1_555
C23 C22 1_555 1_555
H15 C23 1_555 1_555
C24 N2 1_555 1_555
H16 C24 1_555 1_555
O5 C25 1_555 1_555
N3 C25 1_555 1_555
C25 H17 1_555 1_555
C26 N3 1_555 1_555
H18 C26 1_555 1_555
H19 C26 1_555 1_555
H20 C26 1_555 1_555
C27 N3 1_555 1_555
H21 C27 1_555 1_555
H22 C27 1_555 1_555
H23 C27 1_555 1_555
Cd1A N2 1_555 1_555
Cd1A_2 N1 1_555 1_555
Cd1B O4 1_555 1_555
O4B Cd1 1_555 1_555
N1A Cd1 1_555 1_555
N2A Cd1 1_555 1_555
O3 C13 1_555 1_555
C6 C7 1_555 1_555
C9 C10 1_555 1_555
C11 C12 1_555 1_555
C18 C19 1_555 1_555
C21 C22 1_555 1_555
C23 C24 1_555 1_555

#END
