
#######################################################################
#
#                 Cambridge Crystallographic Data Centre
#                                CCDC 
#
#######################################################################
#
# If this CIF has been generated from an entry in the Cambridge 
# Structural Database, then it will include bibliographic, chemical, 
# crystal, experimental, refinement or atomic coordinate data resulting 
# from the CCDC's data processing and validation procedures.
#
#######################################################################

data_XICYAL
_chemical_formula_moiety         '(C139 H94 N30 O33 Zn8)n'
_symmetry_cell_setting           triclinic
_symmetry_space_group_name_H-M   'P -1'
_symmetry_Int_Tables_number      2
_space_group_name_Hall           '-P 1'
loop_
_symmetry_equiv_pos_site_id
_symmetry_equiv_pos_as_xyz
1 x,y,z
2 -x,-y,-z
_cell_length_a                   17.9946(19)
_cell_length_b                   20.490(2)
_cell_length_c                   27.772(3)
_cell_angle_alpha                82.113(2)
_cell_angle_beta                 72.543(2)
_cell_angle_gamma                84.884(2)
_cell_volume                     9663.28
loop_
_atom_site_label
_atom_site_type_symbol
_atom_site_fract_x
_atom_site_fract_y
_atom_site_fract_z
Zn1 Zn 0.92507(4) 1.26758(3) 1.23015(3)
Zn2 Zn 0.32790(4) 0.92911(4) 1.46839(3)
Zn3 Zn 0.38972(4) 0.74144(3) 1.72586(3)
Zn4 Zn -0.05452(4) 0.78924(3) 1.22247(3)
Zn5 Zn -0.37466(4) 0.77725(5) 1.06975(3)
Zn6 Zn 0.79769(4) 1.40082(4) 0.97550(3)
Zn7 Zn 1.08757(4) 1.27917(5) 0.57110(3)
Zn8 Zn 0.41772(4) 1.26196(3) 0.72040(3)
C1 C 0.1325(4) 1.5454(3) 0.8703(2)
H1 H 0.1045 1.5842 0.8801
C2 C 0.2096(3) 1.5460(3) 0.8434(2)
C3 C 0.2507(3) 1.4891(3) 0.8282(2)
H2 H 0.3031 1.4902 0.8097
C4 C 0.2143(3) 1.4305(3) 0.8403(2)
C5 C 0.1361(3) 1.4278(3) 0.8681(2)
H3 H 0.1114 1.3881 0.8766
C6 C 0.0968(3) 1.4854(3) 0.8826(2)
C7 C 0.2403(4) 1.6560(3) 0.8593(2)
H4 H 0.2134 1.6554 0.8936
C8 C 0.2810(4) 1.7044(3) 0.8291(3)
H5 H 0.2869 1.7444 0.8395
C9 C 0.2903(3) 1.6289(3) 0.7835(3)
H6 H 0.3041 1.6048 0.7558
C10 C -0.0193(7) 1.5188(6) 0.9584(5)
H7 H 0.0078 1.5491 0.9696
C11 C -0.0921(8) 1.4983(7) 0.9800(6)
H8 H -0.1292 1.5088 1.0112
C12 C -0.0356(4) 1.4398(3) 0.9176(3)
H9 H -0.0217 1.3998 0.9043
C13 C 0.2923(4) 1.2679(3) 0.8187(3)
H10 H 0.2947 1.2221 0.8248
C14 C 0.2405(4) 1.3058(3) 0.8473(3)
H11 H 0.2010 1.2927 0.8766
C15 C 0.3196(3) 1.3654(3) 0.7842(2)
H12 H 0.3435 1.4014 0.7628
C16 C 0.8189(3) 1.3646(3) 0.7670(2)
H13 H 0.8578 1.3797 0.7777
C17 C 0.8325(3) 1.3500(3) 0.7179(2)
C18 C 0.7753(3) 1.3315(3) 0.7004(2)
H14 H 0.7859 1.3256 0.6663
C19 C 0.7014(3) 1.3214(3) 0.7336(2)
C20 C 0.6848(3) 1.3335(3) 0.7850(2)
H15 H 0.6357 1.3268 0.8080
C21 C 0.7436(3) 1.3555(3) 0.7997(2)
C22 C 0.9428(4) 1.3143(4) 0.6492(3)
H16 H 0.9183 1.2788 0.6442
C23 C 1.0264(4) 1.3849(4) 0.6427(3)
H17 H 1.0718 1.4080 0.6309
C24 C 0.9606(4) 1.4027(4) 0.6835(3)
H18 H 0.9542 1.4364 0.7039
C25 C 0.7802(3) 1.3722(3) 0.8773(2)
H19 H 0.8339 1.3658 0.8637
C26 C 0.6681(4) 1.3893(5) 0.9302(3)
H20 H 0.6296 1.3970 0.9601
C27 C 0.6545(4) 1.3786(5) 0.8862(3)
H21 H 0.6062 1.3787 0.8805
C28 C 0.5653(3) 1.2956(3) 0.7406(2)
H22 H 0.5401 1.3092 0.7723
C29 C 0.6564(4) 1.2737(3) 0.6701(3)
H23 H 0.7043 1.2687 0.6456
C30 C 0.5870(3) 1.2582(3) 0.6666(2)
H24 H 0.5786 1.2422 0.6390
C31 C 1.2693(3) 1.2267(3) 1.1520(2)
H25 H 1.2387 1.2133 1.1339
C32 C 1.3485(3) 1.2345(3) 1.12893(16)
C33 C 1.3944(2) 1.2546(3) 1.1560(2)
H26 H 1.4474 1.2598 1.1406
C34 C 1.3610(3) 1.2668(2) 1.20621(19)
C35 C 1.2818(3) 1.2590(2) 1.22928(15)
H27 H 1.2594 1.2671 1.2629
C36 C 1.2360(2) 1.2389(2) 1.2022(2)
C37 C 1.0969(4) 1.2518(4) 1.2094(3)
H28 H 1.1035 1.2718 1.1764
C38 C 1.1225(9) 1.2273(8) 1.2847(6)
H29 H 1.1481 1.2180 1.3095
C39 C 1.0443(9) 1.2259(7) 1.2909(6)
H30 H 1.0065 1.2133 1.3212
C40 C 1.4794(4) 1.2595(4) 1.2331(3)
H31 H 1.5054 1.2265 1.2135
C41 C 1.3896(5) 1.3327(4) 1.2651(3)
H32 H 1.3437 1.3590 1.2727
C42 C 1.4513(5) 1.3351(4) 1.2833(3)
H33 H 1.4551 1.3641 1.3054
C43 C 1.3486(4) 1.2224(4) 1.0430(3)
H34 H 1.3028 1.2506 1.0440
C44 C 1.4491(15) 1.1739(12) 1.0685(10)
H35 H 1.4830 1.1566 1.0886
C45 C 1.4602(15) 1.1810(13) 1.0167(10)
H36 H 1.5088 1.1716 0.9919
C46 C 0.7812(3) 1.0157(3) 1.3311(2)
H37 H 0.8338 1.0168 1.3130
C47 C 0.7447(3) 0.9573(3) 1.3434(2)
C48 C 0.6651(3) 0.9550(3) 1.3730(2)
H38 H 0.6404 0.9153 1.3830
C49 C 0.6256(3) 1.0141(3) 1.3864(2)
C50 C 0.6624(3) 1.0720(3) 1.3735(2)
H39 H 0.6352 1.1111 1.3833
C51 C 0.7391(3) 1.0728(3) 1.3461(2)
C52 C 0.8251(3) 1.1564(3) 1.2869(2)
H40 H 0.8399 1.1323 1.2592
C53 C 0.7680(4) 1.1836(3) 1.3628(3)
H41 H 0.7373 1.1837 1.3963
C54 C 0.8131(4) 1.2316(3) 1.3334(3)
H42 H 0.8192 1.2713 1.3442
C55 C 0.8463(3) 0.8921(3) 1.2865(2)
H43 H 0.8669 0.9277 1.2632
C56 C 0.8256(4) 0.7956(3) 1.3236(3)
H44 H 0.8300 0.7500 1.3311
C57 C 0.7735(4) 0.8348(3) 1.3519(3)
H45 H 0.7352 0.8221 1.3819
C58 C 0.4926(3) 0.9707(3) 1.4147(2)
H46 H 0.5049 0.9347 1.3962
C59 C 0.5042(3) 1.0592(3) 1.4465(2)
H47 H 0.5248 1.0954 1.4539
C60 C 0.4300(4) 1.0420(3) 1.4643(3)
H48 H 0.3900 1.0641 1.4869
C61 C 0.3697(3) 0.8689(3) 1.2085(2)
C62 C 0.3105(3) 0.8503(3) 1.1925(2)
H49 H 0.3205 0.8405 1.1593
C63 C 0.2356(3) 0.8460(3) 1.2258(2)
C64 C 0.2202(3) 0.8593(3) 1.2754(2)
H50 H 0.1705 0.8547 1.2981
C65 C 0.2806(3) 0.8800(3) 1.2910(2)
C66 C 0.3554(3) 0.8841(3) 1.2577(2)
H51 H 0.3956 0.8970 1.2683
C67 C 0.5050(4) 0.9109(3) 1.1731(3)
H52 H 0.5010 0.9462 1.1917
C68 C 0.5687(4) 0.8880(4) 1.1377(3)
H53 H 0.6174 0.9060 1.1281
C69 C 0.4771(3) 0.8257(3) 1.1409(2)
H54 H 0.4489 0.7937 1.1345
C70 C 0.3165(3) 0.9034(3) 1.3665(2)
H55 H 0.3703 0.8991 1.3525
C71 C 0.1927(7) 0.9015(5) 1.3752(4)
H56 H 0.1449 0.8949 1.3706
C72 C 0.2069(7) 0.9200(5) 1.4179(5)
H57 H 0.1684 0.9323 1.4464
C73 C 0.0984(3) 0.8219(3) 1.2360(2)
H58 H 0.0760 0.8343 1.2685
C74 C 0.1136(4) 0.7866(3) 1.1635(3)
H59 H 0.1023 0.7697 1.1373
C75 C 0.1844(4) 0.8025(4) 1.1621(3)
H60 H 0.2302 0.7994 1.1356
C76 C 0.4215(4) 1.1188(3) 0.7248(2)
C77 C 0.3762(3) 1.0579(3) 0.7452(2)
C78 C 0.2992(4) 1.0626(3) 0.7787(3)
H61 H 0.2764 1.1033 0.7880
C79 C 0.2588(4) 1.0058(4) 0.7971(3)
H62 H 0.2093 1.0082 0.8201
C80 C 0.2904(4) 0.9463(3) 0.7820(2)
H63 H 0.2618 0.9089 0.7949
C81 C 0.3650(3) 0.9403(3) 0.7474(2)
C82 C 0.3981(4) 0.8766(3) 0.7281(3)
C83 C 0.4069(3) 0.9973(3) 0.7295(2)
H64 H 0.4565 0.9945 0.7066
C84 C 0.3986(4) 1.3574(4) 0.6457(3)
C85 C 0.3614(4) 1.3919(3) 0.6077(3)
C86 C 0.3796(4) 1.4570(4) 0.5858(3)
H65 H 0.4178 1.4775 0.5937
C87 C 0.3417(5) 1.4905(4) 0.5530(3)
H66 H 0.3538 1.5337 0.5397
C88 C 0.2871(5) 1.4616(4) 0.5398(3)
H67 H 0.2619 1.4853 0.5176
C89 C 0.2685(4) 1.3977(4) 0.5587(3)
C90 C 0.3069(3) 1.3620(3) 0.5920(3)
H68 H 0.2961 1.3181 0.6037
C91 C 0.2046(5) 1.3647(6) 0.5481(3)
C92 C 0.6764(5) 1.4388(6) 1.0529(3)
C93 C 0.6256(4) 1.4728(4) 1.0952(3)
C94 C 0.5772(5) 1.4412(4) 1.1377(3)
H69 H 0.5767 1.3955 1.1410
C95 C 0.5307(5) 1.4733(5) 1.1748(3)
H70 H 0.5004 1.4502 1.2043
C96 C 0.5276(4) 1.5427(5) 1.1688(3)
H71 H 0.4934 1.5656 1.1939
C97 C 0.5739(4) 1.5762(4) 1.1270(3)
C98 C 0.6270(3) 1.5405(5) 1.0879(3)
H72 H 0.6605 1.5624 1.0591
C99 C 0.5660(4) 1.6493(5) 1.1197(3)
C100 C 0.8790(4) 1.2850(4) 0.9879(4)
C101 C 0.9183(4) 1.2318(4) 1.0178(3)
C102 C 0.9580(4) 1.1773(4) 0.9950(3)
H73 H 0.9602 1.1719 0.9619
C103 C 0.9947(4) 1.1310(4) 1.0237(3)
H74 H 1.0228 1.0948 1.0089
C104 C 0.9900(5) 1.1377(4) 1.0734(3)
H75 H 1.0145 1.1060 1.0916
C105 C 0.9497(4) 1.1906(4) 1.0958(3)
C106 C 0.9138(4) 1.2396(3) 1.0669(3)
H76 H 0.8875 1.2766 1.0814
C107 C 0.9440(4) 1.2000(4) 1.1492(3)
C108 C 0.1988(6) 0.9525(6) 1.5398(3)
C109 C 0.1288(4) 0.9863(7) 1.5795(3)
C110 C 0.0781(5) 0.9421(5) 1.6145(4)
H77 H 0.0861 0.8970 1.6122
C111 C 0.0178(4) 0.9649(5) 1.6515(4)
H78 H -0.0146 0.9364 1.6763
C112 C 0.0063(4) 1.0331(5) 1.6508(3)
H79 H -0.0351 1.0504 1.6756
C113 C 0.0549(4) 1.0762(5) 1.6143(3)
C114 C 0.1175(4) 1.0546(5) 1.5787(3)
H80 H 0.1511 1.0834 1.5551
C115 C 0.0366(5) 1.1471(6) 1.6160(3)
C116 C 0.4069(4) 0.8073(4) 1.4750(3)
C117 C 0.4278(4) 0.7448(4) 1.5030(3)
C118 C 0.4618(5) 0.6918(4) 1.4784(3)
H81 H 0.4735 0.6948 1.4432
C119 C 0.4793(5) 0.6329(4) 1.5058(4)
H82 H 0.5022 0.5966 1.4890
C120 C 0.4619(5) 0.6289(4) 1.5589(3)
H83 H 0.4720 0.5896 1.5775
C121 C 0.4300(4) 0.6829(3) 1.5834(3)
C122 C 0.4138(3) 0.7397(3) 1.5549(2)
H84 H 0.3923 0.7764 1.5715
C123 C 0.4136(4) 0.6818(4) 1.6383(3)
C124 C -0.0463(4) 0.6465(3) 1.2251(3)
C125 C -0.0913(3) 0.5852(3) 1.2460(2)
C126 C -0.1659(4) 0.5883(3) 1.2781(2)
H85 H -0.1895 0.6287 1.2874
C127 C -0.2065(4) 0.5304(4) 1.2969(3)
H86 H -0.2563 0.5327 1.3197
C128 C -0.1747(4) 0.4716(3) 1.2826(3)
H87 H -0.2026 0.4337 1.2949
C129 C -0.1013(4) 0.4679(3) 1.2499(2)
C130 C -0.0593(3) 0.5237(3) 1.2310(2)
H88 H -0.0096 0.5205 1.2083
C131 C -0.0679(4) 0.4012(3) 1.2313(3)
C132 C -0.2611(5) 0.8662(5) 1.0406(3)
C133 C -0.1991(4) 0.9024(4) 1.0538(3)
C134 C -0.1648(3) 0.8759(3) 1.0912(2)
H89 H -0.1782 0.8342 1.1080
C135 C -0.1116(3) 0.9087(3) 1.1043(2)
C136 C -0.0955(4) 0.9732(4) 1.0781(3)
H90 H -0.0608 0.9972 1.0867
C137 C -0.1271(5) 1.0013(4) 1.0418(3)
H91 H -0.1137 1.0429 1.0249
C138 C -0.1801(4) 0.9659(4) 1.0308(3)
H92 H -0.2045 0.9854 1.0068
C139 C -0.0784(4) 0.8831(3) 1.1465(3)
N1 N 0.3434(3) 1.3036(2) 0.77817(19)
N2 N 0.2566(3) 1.3707(2) 0.8247(2)
N3 N 0.2464(3) 1.6067(2) 0.82886(19)
N4 N 0.3126(3) 1.6886(3) 0.7814(2)
N5 N 0.0140(3) 1.4831(3) 0.9112(3)
N6 N -0.1049(3) 1.4541(3) 0.9432(2)
N7 N 0.7466(3) 1.3868(3) 0.9239(2)
N8 N 0.7284(3) 1.3675(3) 0.85095(19)
N9 N 1.0152(3) 1.3296(3) 0.6230(2)
N10 N 0.9092(3) 1.3562(3) 0.6840(2)
N11 N 0.5317(3) 1.2700(2) 0.7105(2)
N12 N 0.6447(3) 1.2980(2) 0.71550(18)
N13 N 1.0282(3) 1.2417(3) 1.2418(2)
N14 N 1.1548(3) 1.2317(4) 1.2270(3)
N15 N 1.4073(3) 1.2853(3) 1.2342(2)
N16 N 1.5082(3) 1.2872(3) 1.2635(2)
N17 N 1.3926(8) 1.2003(7) 1.0032(6)
N18 N 1.3767(7) 1.2026(6) 1.0853(5)
N19 N 0.8484(3) 1.2147(2) 1.2858(2)
N20 N 0.7777(3) 1.1346(2) 1.33212(19)
N21 N 0.7865(2) 0.8972(2) 1.32855(18)
N22 N 0.8720(2) 0.8306(2) 1.28224(17)
N23 N 0.5438(2) 1.0134(2) 1.41528(17)
N24 N 0.4226(3) 0.9859(2) 1.44350(19)
N25 N 0.2841(3) 0.9174(3) 1.4124(2)
N26 N 0.2667(3) 0.8955(3) 1.34081(19)
N27 N 0.1752(3) 0.8247(3) 1.20880(18)
N28 N 0.0609(3) 0.7980(2) 1.20751(19)
N29 N 0.4473(3) 0.8687(3) 1.17490(18)
N30 N 0.5520(3) 0.8345(3) 1.1177(2)
O1 O 0.3669(2) 0.8516(2) 1.50412(16)
O2 O 1.0609(4) 1.2968(4) 0.5040(3)
O3 O 0.4249(2) 0.8184(2) 1.42940(18)
O4 O 0.4202(4) 0.6304(3) 1.6656(2)
O5 O 0.3945(3) 0.7364(2) 1.65678(17)
O6 O 0.2497(3) 0.9879(3) 1.5144(2)
O7 O 0.1931(4) 0.8911(4) 1.5342(2)
O8 O 0.0874(3) 1.1846(3) 1.5831(2)
O9 O -0.0259(3) 1.1678(3) 1.6437(2)
O10 O -0.0868(2) 0.8210(2) 1.16056(15)
O11 O -0.0477(3) 0.9179(2) 1.16574(19)
O12 O -0.2942(4) 0.8941(4) 1.0106(3)
O13 O -0.2738(2) 0.8096(3) 1.06540(19)
O14 O 0.0192(3) 0.6421(2) 1.19550(18)
O15 O -0.0829(3) 0.6984(2) 1.24192(18)
O16 O -0.0024(3) 0.3968(2) 1.2018(2)
O17 O -0.1131(3) 0.35451(19) 1.24799(19)
O18 O 0.7345(3) 1.4648(3) 1.0223(2)
O19 O 0.6573(4) 1.3827(3) 1.0473(2)
O20 O 0.6256(3) 1.6820(2) 1.0903(2)
O21 O 0.5053(3) 1.6808(2) 1.14076(19)
O22 O 0.8355(3) 1.3278(3) 1.01457(19)
O23 O 0.8932(3) 1.2860(3) 0.9426(2)
O24 O 0.9272(3) 1.2595(3) 1.16066(17)
O25 O 0.9559(4) 1.1539(3) 1.1795(2)
O26 O 0.3835(2) 1.1729(2) 0.73916(17)
O27 O 0.4896(2) 1.11470(19) 0.69726(17)
O28 O 0.3545(3) 0.8283(2) 0.74682(19)
O29 O 0.4625(3) 0.8729(2) 0.6990(2)
O30 O 0.1906(2) 1.3053(3) 0.5684(2)
O31 O 0.1655(4) 1.3984(3) 0.5229(3)
O32 O 0.3892(2) 1.2958(2) 0.65843(16)
O33 O 0.4329(3) 1.3908(2) 0.66697(19)
Zn1_2 Zn -0.07493(4) 0.26758(3) 1.23015(3)
Zn3_2 Zn 0.38972(4) 0.74144(3) 0.72586(3)
Zn3_3 Zn 0.38972(4) 1.74144(3) 0.72586(3)
Zn3A Zn 1.61028(4) 1.25856(3) 1.27414(3)
Zn4_2 Zn 0.94548(4) 0.78924(3) 1.22247(3)
Zn5_2 Zn 0.62534(4) 0.77725(5) 1.06975(3)
Zn5_3 Zn 0.62534(4) 1.77725(5) 1.06975(3)
Zn5A Zn 1.37466(4) 1.22275(5) 0.93025(3)
Zn6_2 Zn -0.20231(4) 1.40082(4) 0.97550(3)
Zn7_2 Zn 0.08757(4) 1.27917(5) 0.57110(3)
Zn7_3 Zn 0.08757(4) 1.27917(5) 1.57110(3)
N4_2 N 0.3126(3) 0.6886(3) 1.7814(2)
N6_2 N 0.8951(3) 1.4541(3) 0.9432(2)
N16A N 0.4918(3) 0.7128(3) 1.7365(2)
N17A N -0.3926(8) 0.7997(7) 0.9968(6)
N22_2 N -0.1280(2) 0.8306(2) 1.28224(17)
N30_2 N -0.4480(3) 0.8345(3) 1.1177(2)
O8_2 O 1.0874(3) 1.1846(3) 0.5831(2)
O17_2 O 0.8869(3) 1.35451(19) 1.24799(19)
O20_2 O -0.3744(3) 0.6820(2) 1.0903(2)
O28_2 O 0.3545(3) 0.8283(2) 1.74682(19)
O30_2 O 1.1906(2) 1.3053(3) 0.5684(2)
loop_
_geom_bond_atom_site_label_1
_geom_bond_atom_site_label_2
_geom_bond_site_symmetry_1
_geom_bond_site_symmetry_2
Zn1 N13 1_555 1_555
Zn2 N24 1_555 1_555
Zn3 O5 1_555 1_555
Zn4 N28 1_555 1_555
Zn5 O13 1_555 1_555
Zn6 N7 1_555 1_555
Zn7 N9 1_555 1_555
Zn8 N1 1_555 1_555
C1 H1 1_555 1_555
C2 C1 1_555 1_555
C3 C2 1_555 1_555
H2 C3 1_555 1_555
C4 C3 1_555 1_555
C5 C4 1_555 1_555
H3 C5 1_555 1_555
C6 C1 1_555 1_555
C7 H4 1_555 1_555
C8 C7 1_555 1_555
H5 C8 1_555 1_555
C9 H6 1_555 1_555
C10 H7 1_555 1_555
C11 C10 1_555 1_555
H8 C11 1_555 1_555
C12 H9 1_555 1_555
C13 H10 1_555 1_555
C14 C13 1_555 1_555
H11 C14 1_555 1_555
C15 H12 1_555 1_555
C16 H13 1_555 1_555
C17 C16 1_555 1_555
C18 C17 1_555 1_555
H14 C18 1_555 1_555
C19 C18 1_555 1_555
C20 C19 1_555 1_555
H15 C20 1_555 1_555
C21 C16 1_555 1_555
C22 H16 1_555 1_555
C23 H17 1_555 1_555
C24 C23 1_555 1_555
H18 C24 1_555 1_555
C25 H19 1_555 1_555
C26 H20 1_555 1_555
C27 C26 1_555 1_555
H21 C27 1_555 1_555
C28 H22 1_555 1_555
C29 H23 1_555 1_555
C30 C29 1_555 1_555
H24 C30 1_555 1_555
C31 H25 1_555 1_555
C32 C31 1_555 1_555
C33 C32 1_555 1_555
H26 C33 1_555 1_555
C34 C33 1_555 1_555
C35 C34 1_555 1_555
H27 C35 1_555 1_555
C36 C31 1_555 1_555
C37 H28 1_555 1_555
C38 H29 1_555 1_555
C39 C38 1_555 1_555
H30 C39 1_555 1_555
C40 H31 1_555 1_555
C41 H32 1_555 1_555
C42 C41 1_555 1_555
H33 C42 1_555 1_555
C43 H34 1_555 1_555
C44 H35 1_555 1_555
C45 C44 1_555 1_555
H36 C45 1_555 1_555
C46 H37 1_555 1_555
C47 C46 1_555 1_555
C48 C47 1_555 1_555
H38 C48 1_555 1_555
C49 C48 1_555 1_555
C50 C49 1_555 1_555
H39 C50 1_555 1_555
C51 C46 1_555 1_555
C52 H40 1_555 1_555
C53 H41 1_555 1_555
C54 C53 1_555 1_555
H42 C54 1_555 1_555
C55 H43 1_555 1_555
C56 H44 1_555 1_555
C57 C56 1_555 1_555
H45 C57 1_555 1_555
C58 H46 1_555 1_555
C59 H47 1_555 1_555
C60 C59 1_555 1_555
H48 C60 1_555 1_555
C61 C62 1_555 1_555
C62 H49 1_555 1_555
C63 C62 1_555 1_555
C64 C63 1_555 1_555
H50 C64 1_555 1_555
C65 C64 1_555 1_555
C66 C61 1_555 1_555
H51 C66 1_555 1_555
C67 H52 1_555 1_555
C68 C67 1_555 1_555
H53 C68 1_555 1_555
C69 H54 1_555 1_555
C70 H55 1_555 1_555
C71 H56 1_555 1_555
C72 C71 1_555 1_555
H57 C72 1_555 1_555
C73 H58 1_555 1_555
C74 H59 1_555 1_555
C75 C74 1_555 1_555
H60 C75 1_555 1_555
C76 C77 1_555 1_555
C77 C78 1_555 1_555
C78 H61 1_555 1_555
C79 C78 1_555 1_555
H62 C79 1_555 1_555
C80 C79 1_555 1_555
H63 C80 1_555 1_555
C81 C80 1_555 1_555
C82 C81 1_555 1_555
C83 C77 1_555 1_555
H64 C83 1_555 1_555
C84 C85 1_555 1_555
C85 C86 1_555 1_555
C86 H65 1_555 1_555
C87 C86 1_555 1_555
H66 C87 1_555 1_555
C88 C87 1_555 1_555
H67 C88 1_555 1_555
C89 C88 1_555 1_555
C90 C85 1_555 1_555
H68 C90 1_555 1_555
C91 C89 1_555 1_555
C92 C93 1_555 1_555
C93 C94 1_555 1_555
C94 H69 1_555 1_555
C95 C94 1_555 1_555
H70 C95 1_555 1_555
C96 C95 1_555 1_555
H71 C96 1_555 1_555
C97 C96 1_555 1_555
C98 C93 1_555 1_555
H72 C98 1_555 1_555
C99 C97 1_555 1_555
C100 C101 1_555 1_555
C101 C102 1_555 1_555
C102 H73 1_555 1_555
C103 C102 1_555 1_555
H74 C103 1_555 1_555
C104 C103 1_555 1_555
H75 C104 1_555 1_555
C105 C104 1_555 1_555
C106 C101 1_555 1_555
H76 C106 1_555 1_555
C107 C105 1_555 1_555
C108 C109 1_555 1_555
C109 C110 1_555 1_555
C110 H77 1_555 1_555
C111 C110 1_555 1_555
H78 C111 1_555 1_555
C112 C111 1_555 1_555
H79 C112 1_555 1_555
C113 C112 1_555 1_555
C114 C109 1_555 1_555
H80 C114 1_555 1_555
C115 C113 1_555 1_555
C116 C117 1_555 1_555
C117 C118 1_555 1_555
C118 H81 1_555 1_555
C119 C118 1_555 1_555
H82 C119 1_555 1_555
C120 C119 1_555 1_555
H83 C120 1_555 1_555
C121 C120 1_555 1_555
C122 C117 1_555 1_555
H84 C122 1_555 1_555
C123 C121 1_555 1_555
C124 C125 1_555 1_555
C125 C126 1_555 1_555
C126 H85 1_555 1_555
C127 C126 1_555 1_555
H86 C127 1_555 1_555
C128 C127 1_555 1_555
H87 C128 1_555 1_555
C129 C128 1_555 1_555
C130 C125 1_555 1_555
H88 C130 1_555 1_555
C131 C129 1_555 1_555
C132 C133 1_555 1_555
C133 C134 1_555 1_555
C134 H89 1_555 1_555
C135 C134 1_555 1_555
C136 C135 1_555 1_555
H90 C136 1_555 1_555
C137 C136 1_555 1_555
H91 C137 1_555 1_555
C138 C133 1_555 1_555
H92 C138 1_555 1_555
C139 C135 1_555 1_555
N1 C13 1_555 1_555
N2 C4 1_555 1_555
N3 C2 1_555 1_555
N4 C8 1_555 1_555
N5 C6 1_555 1_555
N6 C11 1_555 1_555
N7 C25 1_555 1_555
N8 C21 1_555 1_555
N9 C22 1_555 1_555
N10 C17 1_555 1_555
N11 Zn8 1_555 1_555
N12 C19 1_555 1_555
N13 C37 1_555 1_555
N14 C36 1_555 1_555
N15 C34 1_555 1_555
N16 C40 1_555 1_555
N17 C43 1_555 1_555
N18 C32 1_555 1_555
N19 Zn1 1_555 1_555
N20 C51 1_555 1_555
N21 C47 1_555 1_555
N22 C55 1_555 1_555
N23 C49 1_555 1_555
N24 C58 1_555 1_555
N25 Zn2 1_555 1_555
N26 C65 1_555 1_555
N27 C63 1_555 1_555
N28 C73 1_555 1_555
N29 C61 1_555 1_555
N30 C68 1_555 1_555
O1 Zn2 1_555 1_555
O2 Zn7 1_555 1_555
O3 C116 1_555 1_555
O4 C123 1_555 1_555
O5 C123 1_555 1_555
O6 Zn2 1_555 1_555
O7 C108 1_555 1_555
O8 C115 1_555 1_555
O9 C115 1_555 1_555
O10 Zn4 1_555 1_555
O11 C139 1_555 1_555
O12 C132 1_555 1_555
O13 C132 1_555 1_555
O14 C124 1_555 1_555
O15 Zn4 1_555 1_555
O16 C131 1_555 1_555
O17 C131 1_555 1_555
O18 Zn6 1_555 1_555
O19 C92 1_555 1_555
O20 C99 1_555 1_555
O21 C99 1_555 1_555
O22 Zn6 1_555 1_555
O23 C100 1_555 1_555
O24 Zn1 1_555 1_555
O25 C107 1_555 1_555
O26 Zn8 1_555 1_555
O27 C76 1_555 1_555
O28 C82 1_555 1_555
O29 C82 1_555 1_555
O30 C91 1_555 1_555
O31 C91 1_555 1_555
O32 Zn8 1_555 1_555
O33 C84 1_555 1_555
Zn1_2 O17 1_555 1_555
Zn3_2 O28 1_555 1_555
Zn3_3 N4 1_555 1_555
Zn3A N16 1_555 1_555
Zn4_2 N22 1_555 1_555
Zn5_2 N30 1_555 1_555
Zn5_3 O20 1_555 1_555
Zn5A N17 1_555 1_555
Zn6_2 N6 1_555 1_555
Zn7_2 O30 1_555 1_555
Zn7_3 O8 1_555 1_555
N4_2 Zn3 1_555 1_555
N6_2 Zn6 1_555 1_555
N16A Zn3 1_555 1_555
N17A Zn5 1_555 1_555
N22_2 Zn4 1_555 1_555
N30_2 Zn5 1_555 1_555
O8_2 Zn7 1_555 1_555
O17_2 Zn1 1_555 1_555
O20_2 Zn5 1_555 1_555
O28_2 Zn3 1_555 1_555
O30_2 Zn7 1_555 1_555
C5 C6 1_555 1_555
C7 N3 1_555 1_555
C9 N3 1_555 1_555
C9 N4 1_555 1_555
C10 N5 1_555 1_555
C12 N5 1_555 1_555
C12 N6 1_555 1_555
C14 N2 1_555 1_555
C15 N1 1_555 1_555
C15 N2 1_555 1_555
C20 C21 1_555 1_555
C22 N10 1_555 1_555
C23 N9 1_555 1_555
C24 N10 1_555 1_555
C25 N8 1_555 1_555
C26 N7 1_555 1_555
C27 N8 1_555 1_555
C28 N11 1_555 1_555
C28 N12 1_555 1_555
C29 N12 1_555 1_555
C30 N11 1_555 1_555
C35 C36 1_555 1_555
C37 N14 1_555 1_555
C38 N14 1_555 1_555
C39 N13 1_555 1_555
C40 N15 1_555 1_555
C41 N15 1_555 1_555
C42 N16 1_555 1_555
C43 N18 1_555 1_555
C44 N18 1_555 1_555
C45 N17 1_555 1_555
C50 C51 1_555 1_555
C52 N19 1_555 1_555
C52 N20 1_555 1_555
C53 N20 1_555 1_555
C54 N19 1_555 1_555
C55 N21 1_555 1_555
C56 N22 1_555 1_555
C57 N21 1_555 1_555
C58 N23 1_555 1_555
C59 N23 1_555 1_555
C60 N24 1_555 1_555
C65 C66 1_555 1_555
C67 N29 1_555 1_555
C69 N29 1_555 1_555
C69 N30 1_555 1_555
C70 N25 1_555 1_555
C70 N26 1_555 1_555
C71 N26 1_555 1_555
C72 N25 1_555 1_555
C73 N27 1_555 1_555
C74 N28 1_555 1_555
C75 N27 1_555 1_555
C76 O26 1_555 1_555
C81 C83 1_555 1_555
C84 O32 1_555 1_555
C89 C90 1_555 1_555
C92 O18 1_555 1_555
C97 C98 1_555 1_555
C100 O22 1_555 1_555
C105 C106 1_555 1_555
C107 O24 1_555 1_555
C108 O6 1_555 1_555
C113 C114 1_555 1_555
C116 O1 1_555 1_555
C121 C122 1_555 1_555
C124 O15 1_555 1_555
C129 C130 1_555 1_555
C137 C138 1_555 1_555
C139 O10 1_555 1_555

#END
