
#######################################################################
#
#                 Cambridge Crystallographic Data Centre
#                                CCDC 
#
#######################################################################
#
# If this CIF has been generated from an entry in the Cambridge 
# Structural Database, then it will include bibliographic, chemical, 
# crystal, experimental, refinement or atomic coordinate data resulting 
# from the CCDC's data processing and validation procedures.
#
#######################################################################

data_UBOGAV
_chemical_formula_moiety         '(C28 H26 Cu2 O31 P4 U3)n'
_symmetry_cell_setting           triclinic
_symmetry_space_group_name_H-M   'P -1'
_symmetry_Int_Tables_number      2
_space_group_name_Hall           '-P 1'
loop_
_symmetry_equiv_pos_site_id
_symmetry_equiv_pos_as_xyz
1 x,y,z
2 -x,-y,-z
_cell_length_a                   9.595(3)
_cell_length_b                   10.330(3)
_cell_length_c                   13.670(4)
_cell_angle_alpha                75.702(3)
_cell_angle_beta                 88.854(4)
_cell_angle_gamma                65.345(3)
_cell_volume                     1187.94
loop_
_atom_site_label
_atom_site_type_symbol
_atom_site_fract_x
_atom_site_fract_y
_atom_site_fract_z
U1 U -0.76581(4) 0.44979(4) -0.99948(3)
U2 U -1.0000 1.0000 -1.0000
P1 P -0.6256(3) 0.6829(3) -0.9134(2)
P2 P -0.9102(3) 1.3114(3) -1.12475(19)
Cu1 Cu -0.90208(14) 0.96519(13) -0.42043(9)
O1 O -0.7284(8) 0.2998(8) -0.8897(5)
O2 O -0.8037(8) 0.5990(7) -1.1085(5)
O3 O -1.0049(8) 0.9315(8) -1.1057(5)
O4 O -0.6872(8) 0.5661(8) -0.9034(6)
O5 O -0.7473(8) 0.8393(8) -0.9586(5)
O6 O -0.4884(8) 0.6541(8) -0.9749(5)
O7 O -0.7439(8) 1.2887(7) -1.1110(5)
O8 O -0.9939(7) 1.4121(7) -1.0542(5)
O9 O -0.9287(8) 1.1674(7) -1.1027(5)
O10 O -0.7297(9) 0.8632(9) -0.4938(6)
O11 O -0.9012(8) 0.9210(8) -0.6265(5)
O12 O -1.1225(9) 1.8540(8) -1.5173(6)
O13 O -0.9463(8) 1.7935(7) -1.3883(5)
O14 O -0.7784(9) 0.9056(9) -0.2687(6)
C1 C -0.5726(11) 0.6771(11) -0.7860(7)
C2 C -0.6747(13) 0.7758(11) -0.7368(8)
H1 H -0.7683 0.8517 -0.7726
C3 C -0.6411(12) 0.7646(11) -0.6345(8)
C4 C -0.5042(13) 0.6591(13) -0.5830(8)
H2 H -0.4798 0.6543 -0.5148
C5 C -0.3990(13) 0.5572(12) -0.6317(8)
H3 H -0.3035 0.4837 -0.5966
C6 C -0.4368(13) 0.5657(13) -0.7305(8)
H4 H -0.3686 0.4938 -0.7618
C7 C -0.7647(11) 0.8563(10) -0.5818(8)
C8 C -0.9916(11) 1.4129(11) -1.2528(7)
C9 C -0.9903(11) 1.5483(10) -1.2938(8)
H5 H -0.9394 1.5840 -1.2556
C10 C -1.0611(11) 1.6331(11) -1.3892(8)
C11 C -1.1445(12) 1.5856(11) -1.4418(8)
H6 H -1.1997 1.6458 -1.5056
C12 C -1.1468(14) 1.4495(13) -1.4006(8)
H7 H -1.2016 1.4162 -1.4378
C13 C -1.0722(12) 1.3621(12) -1.3078(8)
H8 H -1.0745 1.2691 -1.2808
C14 C -1.0413(12) 1.7718(11) -1.4347(8)
U1A U -1.23419(4) 1.55021(4) -1.00052(3)
U1A_2 U -0.23419(4) 0.55021(4) -1.00052(3)
U1_2 U -0.76581(4) 1.44979(4) -0.99948(3)
U1_3 U -1.76581(4) 1.44979(4) -0.99948(3)
U1A_3 U -1.23419(4) 0.55021(4) -1.00052(3)
P1A P -1.3744(3) 1.3171(3) -1.0866(2)
P2A P -1.0898(3) 0.6886(3) -0.87525(19)
Cu1A Cu -1.09792(14) 1.03481(13) -1.57957(9)
Cu1A_2 Cu -1.09792(14) 1.03481(13) -0.57957(9)
Cu1A_3 Cu -1.09792(14) 2.03481(13) -1.57957(9)
Cu1_2 Cu -0.90208(14) 1.96519(13) -1.42043(9)
Cu1_3 Cu -0.90208(14) 0.96519(13) -1.42043(9)
Cu1_4 Cu -0.90208(14) -0.03481(13) -0.42043(9)
Cu1A_4 Cu -1.09792(14) 0.03481(13) -0.57957(9)
O1A O -1.2716(8) 1.7002(8) -1.1103(5)
O2A O -1.1963(8) 1.4010(7) -0.8915(5)
O3A O -0.9951(8) 1.0685(8) -0.8943(5)
O4A O -1.3128(8) 1.4339(8) -1.0966(6)
O5A O -1.2527(8) 1.1607(8) -1.0414(5)
O6A O -1.5116(8) 1.3459(8) -1.0251(5)
O6A_2 O -0.5116(8) 0.3459(8) -1.0251(5)
O6_2 O -1.4884(8) 1.6541(8) -0.9749(5)
O7A O -1.2561(8) 0.7113(7) -0.8890(5)
O7_2 O -0.7439(8) 0.2887(7) -1.1110(5)
O7A_2 O -1.2561(8) 1.7113(7) -0.8890(5)
O8A O -1.0061(7) 0.5879(7) -0.9458(5)
O9A O -1.0713(8) 0.8326(7) -0.8973(5)
O10A O -1.2703(9) 1.1368(9) -1.5062(6)
O11A O -1.0988(8) 1.0790(8) -1.3735(5)
O11A_2 O -1.0988(8) 1.0790(8) -0.3735(5)
O11_2 O -0.9012(8) 0.9210(8) -1.6265(5)
O12A O -0.8775(9) 0.1460(8) -0.4827(6)
O12A_2 O -0.8775(9) 1.1460(8) -0.4827(6)
O12_2 O -1.1225(9) 0.8540(8) -1.5173(6)
O13A O -1.0537(8) 0.2065(7) -0.6117(5)
O13_2 O -0.9463(8) 0.7935(7) -0.3883(5)
O13A_2 O -1.0537(8) 1.2065(7) -1.6117(5)
O14A O -1.2216(9) 1.0944(9) -1.7313(6)
C1A C -1.4274(11) 1.3229(11) -1.2140(7)
C2A C -1.3253(13) 1.2242(11) -1.2632(8)
H1A H -1.2317 1.1483 -1.2274
C3A C -1.3589(12) 1.2354(11) -1.3655(8)
C4A C -1.4958(13) 1.3409(13) -1.4170(8)
H2A H -1.5202 1.3457 -1.4852
C5A C -1.6010(13) 1.4428(12) -1.3683(8)
H3A H -1.6965 1.5163 -1.4034
C6A C -1.5632(13) 1.4343(13) -1.2695(8)
H4A H -1.6314 1.5062 -1.2382
C7A C -1.2353(11) 1.1437(10) -1.4182(8)
C8A C -1.0084(11) 0.5871(11) -0.7472(7)
C9A C -1.0097(11) 0.4517(10) -0.7062(8)
H5A H -1.0606 0.4160 -0.7444
C10A C -0.9389(11) 0.3669(11) -0.6108(8)
C11A C -0.8555(12) 0.4144(11) -0.5582(8)
H6A H -0.8003 0.3542 -0.4944
C12A C -0.8532(14) 0.5505(13) -0.5994(8)
H7A H -0.7984 0.5838 -0.5622
C13A C -0.9278(12) 0.6379(12) -0.6922(8)
H8A H -0.9255 0.7309 -0.7192
C14A C -0.9587(12) 0.2282(11) -0.5653(8)
O15 O -0.360(2) 0.9063(19) -1.3226(14)
O16 O 0.5274(14) -0.2824(13) -0.2868(9)
O17 O -0.5000 1.0000 -1.0000
loop_
_geom_bond_atom_site_label_1
_geom_bond_atom_site_label_2
_geom_bond_site_symmetry_1
_geom_bond_site_symmetry_2
U1 O1 1_555 1_555
U2 O3 1_555 1_555
P1 O4 1_555 1_555
P2 O7 1_555 1_555
Cu1 O10 1_555 1_555
O2 U1 1_555 1_555
O4 U1 1_555 1_555
O5 U2 1_555 1_555
O6 P1 1_555 1_555
O7 U1_2 1_555 1_555
O8 P2 1_555 1_555
O9 U2 1_555 1_555
O10 C7 1_555 1_555
O11 C7 1_555 1_555
O12 C14 1_555 1_555
O13 C14 1_555 1_555
O14 Cu1 1_555 1_555
C1 P1 1_555 1_555
C2 C1 1_555 1_555
H1 C2 1_555 1_555
C3 C2 1_555 1_555
C4 C3 1_555 1_555
H2 C4 1_555 1_555
C5 C4 1_555 1_555
H3 C5 1_555 1_555
C6 C1 1_555 1_555
H4 C6 1_555 1_555
C7 C3 1_555 1_555
C8 P2 1_555 1_555
C9 C8 1_555 1_555
H5 C9 1_555 1_555
C10 C9 1_555 1_555
C11 C10 1_555 1_555
H6 C11 1_555 1_555
C12 C11 1_555 1_555
H7 C12 1_555 1_555
C13 C8 1_555 1_555
H8 C13 1_555 1_555
C14 C10 1_555 1_555
U1A O8 1_555 1_555
U1A_2 O6 1_555 1_555
U1_3 O6A 1_555 1_555
U1A_3 O7A 1_555 1_555
P1A O4A 1_555 1_555
P2A O7A 1_555 1_555
Cu1A O10A 1_555 1_555
Cu1A_2 O11 1_555 1_555
Cu1A_3 O12 1_555 1_555
Cu1_2 O13 1_555 1_555
Cu1_3 O11A 1_555 1_555
Cu1_4 O12A 1_555 1_555
Cu1A_4 O13A 1_555 1_555
O1A U1A 1_555 1_555
O2A U1A 1_555 1_555
O3A U2 1_555 1_555
O4A U1A 1_555 1_555
O5A U2 1_555 1_555
O6A P1A 1_555 1_555
O6A_2 U1 1_555 1_555
O6_2 U1A 1_555 1_555
O7_2 U1 1_555 1_555
O7A_2 U1A 1_555 1_555
O8A U1 1_555 1_555
O9A U2 1_555 1_555
O10A C7A 1_555 1_555
O11A C7A 1_555 1_555
O11A_2 Cu1 1_555 1_555
O11_2 Cu1A 1_555 1_555
O12A C14A 1_555 1_555
O12A_2 Cu1 1_555 1_555
O12_2 Cu1A 1_555 1_555
O13A C14A 1_555 1_555
O13_2 Cu1 1_555 1_555
O13A_2 Cu1A 1_555 1_555
O14A Cu1A 1_555 1_555
C1A P1A 1_555 1_555
C2A C1A 1_555 1_555
H1A C2A 1_555 1_555
C3A C2A 1_555 1_555
C4A C3A 1_555 1_555
H2A C4A 1_555 1_555
C5A C4A 1_555 1_555
H3A C5A 1_555 1_555
C6A C1A 1_555 1_555
H4A C6A 1_555 1_555
C7A C3A 1_555 1_555
C8A P2A 1_555 1_555
C9A C8A 1_555 1_555
H5A C9A 1_555 1_555
C10A C9A 1_555 1_555
C11A C10A 1_555 1_555
H6A C11A 1_555 1_555
C12A C11A 1_555 1_555
H7A C12A 1_555 1_555
C13A C8A 1_555 1_555
H8A C13A 1_555 1_555
C14A C10A 1_555 1_555
P1 O5 1_555 1_555
P2 O9 1_555 1_555
C5 C6 1_555 1_555
C12 C13 1_555 1_555
P1A O5A 1_555 1_555
P2A O8A 1_555 1_555
P2A O9A 1_555 1_555
C5A C6A 1_555 1_555
C12A C13A 1_555 1_555

#END
