
#######################################################################
#
#                 Cambridge Crystallographic Data Centre
#                                CCDC 
#
#######################################################################
#
# If this CIF has been generated from an entry in the Cambridge 
# Structural Database, then it will include bibliographic, chemical, 
# crystal, experimental, refinement or atomic coordinate data resulting 
# from the CCDC's data processing and validation procedures.
#
#######################################################################

data_RABHIH
_chemical_formula_moiety         'C83 H85 Cd16 N63 Ni17'
_symmetry_cell_setting           orthorhombic
_symmetry_space_group_name_H-M   'P b a m'
_symmetry_Int_Tables_number      55
_space_group_name_Hall           '-P 2 2ab'
loop_
_symmetry_equiv_pos_site_id
_symmetry_equiv_pos_as_xyz
1 x,y,z
2 -x,-y,z
3 1/2+x,1/2-y,-z
4 1/2-x,1/2+y,-z
5 -x,-y,-z
6 x,y,-z
7 1/2-x,1/2+y,z
8 1/2+x,1/2-y,z
_cell_length_a                   13.599(2)
_cell_length_b                   27.938(4)
_cell_length_c                   7.610(2)
_cell_angle_alpha                90
_cell_angle_beta                 90
_cell_angle_gamma                90
_cell_volume                     2891.26
loop_
_atom_site_label
_atom_site_type_symbol
_atom_site_fract_x
_atom_site_fract_y
_atom_site_fract_z
C10 C 0.750(3) 0.442(4) 0.5000
N5 N 0.5556(10) 0.4314(4) 0.5000
C11 C 0.636(2) 0.3972(6) 0.5000
C12 C 0.601(2) 0.3453(5) 0.5000
C13 C 0.490(2) 0.3340(5) 0.5000
C14 C 0.3223(15) 0.3503(8) 0.5000
C15 C 0.241(2) 0.3911(7) 0.5000
C16 C 0.268(2) 0.4421(13) 0.5000
C17 C 0.3784(12) 0.4468(5) 0.5000
C18 C 0.4489(13) 0.4161(4) 0.5000
C19 C 0.421(2) 0.3635(5) 0.5000
Cd1 Cd 0.22742(3) 0.23669(2) 0.00000
Ni1 Ni 0.48286(6) 0.20845(3) 0.5000
N1 N 0.3277(3) 0.2053(2) 0.2206(6)
N2 N 0.1309(3) 0.2714(2) -0.2175(6)
N3 N 0.3325(5) 0.3034(2) 0.00000
N4 N 0.1336(5) 0.1658(2) 0.00000
C1 C 0.3866(3) 0.2042(2) 0.3281(5)
C2 C 0.0766(3) 0.2817(2) -0.3249(5)
C3 C 0.2779(7) 0.3512(3) 0.00000
C4 C 0.3498(6) 0.3940(3) 0.00000
C5 C 0.2876(7) 0.4409(3) 0.00000
C6 C 0.3609(8) 0.4852(3) 0.00000
C7 C 0.2974(8) 0.5318(3) 0.00000
C8 C 0.3669(6) 0.5760(3) 0.00000
C9 C 0.1958(6) 0.1219(3) 0.00000
H1 H 0.37481 0.30184 0.10717
H2 H 0.23141 0.35319 0.11789
H3 H 0.39647 0.39277 0.11789
H4 H 0.24098 0.44213 0.11789
H5 H 0.40757 0.48419 0.11789
H6 H 0.25075 0.53256 0.11789
H7 H 0.41354 0.57526 0.11789
H8 H 0.24249 0.12210 -0.11789
H9 H 0.09117 0.16551 -0.10717
C1E C 0.3866(3) 0.2042(2) 0.6719(5)
N1E N 0.3277(3) 0.2053(2) 0.7794(6)
Cd1E Cd 0.22742(3) 0.23669(2) 1.00000
N1_2 N 0.3277(3) 0.2053(2) 1.2206(6)
C1_2 C 0.3866(3) 0.2042(2) 1.3281(5)
Ni1_2 Ni 0.48286(6) 0.20845(3) 1.5000
N2E N 0.1309(3) 0.2714(2) 1.2175(6)
C2E C 0.0766(3) 0.2817(2) 1.3249(5)
Ni1G Ni -0.01714(6) 0.29155(3) 1.5000
C1G C -0.1134(3) 0.2958(2) 1.3281(5)
N1G N -0.1723(3) 0.2947(2) 1.2206(6)
Cd1G Cd -0.27258(3) 0.26331(2) 1.00000
N1B N -0.1723(3) 0.2947(2) 0.7794(6)
C1B C -0.1134(3) 0.2958(2) 0.6719(5)
Ni1B Ni -0.01714(6) 0.29155(3) 0.5000
C1G_2 C -0.1134(3) 0.2958(2) 0.3281(5)
N1G_2 N -0.1723(3) 0.2947(2) 0.2206(6)
Cd1G_2 Cd -0.27258(3) 0.26331(2) 0.00000
C2_2 C 0.0766(3) 0.2817(2) 0.6751(5)
N2_2 N 0.1309(3) 0.2714(2) 0.7825(6)
N3E N 0.3325(5) 0.3034(2) 1.00000
C3E C 0.2779(7) 0.3512(3) 1.00000
C4E C 0.3498(6) 0.3940(3) 1.00000
C5E C 0.2876(7) 0.4409(3) 1.00000
C6E C 0.3609(8) 0.4852(3) 1.00000
C7E C 0.2974(8) 0.5318(3) 1.00000
C8E C 0.3669(6) 0.5760(3) 1.00000
C9F C 0.3042(6) 0.6219(3) 1.00000
N4F N 0.3664(5) 0.6658(2) 1.00000
Cd1F Cd 0.27258(3) 0.73669(2) 1.00000
N1F N 0.1723(3) 0.7053(2) 1.2206(6)
C1F C 0.1134(3) 0.7042(2) 1.3281(5)
Ni1F Ni 0.01714(6) 0.70845(3) 1.5000
C1C C 0.1134(3) 0.7042(2) 1.6719(5)
N1C N 0.1723(3) 0.7053(2) 1.7794(6)
Cd1C Cd 0.27258(3) 0.73669(2) 2.00000
N1F_2 N 0.1723(3) 0.7053(2) 2.2206(6)
C1F_2 C 0.1134(3) 0.7042(2) 2.3281(5)
Ni1F_2 Ni 0.01714(6) 0.70845(3) 2.5000
N2C N 0.3691(3) 0.7714(2) 2.2175(6)
C2C C 0.4234(3) 0.7817(2) 2.3249(5)
Ni1A Ni 0.51714(6) 0.79155(3) 2.5000
C1A C 0.6134(3) 0.7958(2) 2.3281(5)
N1A N 0.6723(3) 0.7947(2) 2.2206(6)
Cd1A Cd 0.77258(3) 0.76331(2) 2.00000
N1D N 0.6723(3) 0.7947(2) 1.7794(6)
C1D C 0.6134(3) 0.7958(2) 1.6719(5)
Ni1D Ni 0.51714(6) 0.79155(3) 1.5000
C1A_2 C 0.6134(3) 0.7958(2) 1.3281(5)
N1A_2 N 0.6723(3) 0.7947(2) 1.2206(6)
Cd1A_2 Cd 0.77258(3) 0.76331(2) 1.00000
C2F C 0.4234(3) 0.7817(2) 1.6751(5)
N2F N 0.3691(3) 0.7714(2) 1.7825(6)
N3C N 0.1675(5) 0.8034(2) 2.00000
C3C C 0.2221(7) 0.8512(3) 2.00000
C4C C 0.1502(6) 0.8940(3) 2.00000
C5C C 0.2124(7) 0.9409(3) 2.00000
C6C C 0.1391(8) 0.9852(3) 2.00000
C7C C 0.2026(8) 1.0318(3) 2.00000
C8C C 0.1331(6) 1.0760(3) 2.00000
C9_2 C 0.1958(6) 1.1219(3) 2.00000
N4_2 N 0.1336(5) 1.1658(2) 2.00000
Cd1_2 Cd 0.22742(3) 1.23669(2) 2.00000
N1_3 N 0.3277(3) 1.2053(2) 2.2206(6)
C1_3 C 0.3866(3) 1.2042(2) 2.3281(5)
Ni1_3 Ni 0.48286(6) 1.20845(3) 2.5000
N1E_2 N 0.3277(3) 1.2053(2) 1.7794(6)
C1E_2 C 0.3866(3) 1.2042(2) 1.6719(5)
Ni1E Ni 0.48286(6) 1.20845(3) 1.5000
N2_3 N 0.1309(3) 1.2714(2) 1.7825(6)
C2_3 C 0.0766(3) 1.2817(2) 1.6751(5)
Ni1B_2 Ni -0.01714(6) 1.29155(3) 1.5000
C1B_2 C -0.1134(3) 1.2958(2) 1.6719(5)
N1B_2 N -0.1723(3) 1.2947(2) 1.7794(6)
Cd1B Cd -0.27258(3) 1.26331(2) 2.00000
C1G_3 C -0.1134(3) 1.2958(2) 1.3281(5)
N1G_3 N -0.1723(3) 1.2947(2) 1.2206(6)
Cd1G_3 Cd -0.27258(3) 1.26331(2) 1.00000
C2E_2 C 0.0766(3) 1.2817(2) 1.3249(5)
N2E_2 N 0.1309(3) 1.2714(2) 1.2175(6)
Cd1E_2 Cd 0.22742(3) 1.23669(2) 1.00000
N1E_3 N 0.3277(3) 1.2053(2) 0.7794(6)
C1E_3 C 0.3866(3) 1.2042(2) 0.6719(5)
Ni1E_2 Ni 0.48286(6) 1.20845(3) 0.5000
N1_4 N 0.3277(3) 1.2053(2) 1.2206(6)
C1_4 C 0.3866(3) 1.2042(2) 1.3281(5)
N2_4 N 0.1309(3) 1.2714(2) 0.7825(6)
N3E_2 N 0.3325(5) 1.3034(2) 1.00000
N4E N 0.1336(5) 1.1658(2) 1.00000
C9E C 0.1958(6) 1.1219(3) 1.00000
C8F C 0.1331(6) 1.0760(3) 1.00000
C7F C 0.2026(8) 1.0318(3) 1.00000
C6F C 0.1391(8) 0.9852(3) 1.00000
C5F C 0.2124(7) 0.9409(3) 1.00000
C4F C 0.1502(6) 0.8940(3) 1.00000
C3F C 0.2221(7) 0.8512(3) 1.00000
N3F N 0.1675(5) 0.8034(2) 1.00000
N1C_2 N 0.1723(3) 0.7053(2) 0.7794(6)
C1C_2 C 0.1134(3) 0.7042(2) 0.6719(5)
Ni1C Ni 0.01714(6) 0.70845(3) 0.5000
N2F_2 N 0.3691(3) 0.7714(2) 0.7825(6)
C2F_2 C 0.4234(3) 0.7817(2) 0.6751(5)
Ni1D_2 Ni 0.51714(6) 0.79155(3) 0.5000
C1D_2 C 0.6134(3) 0.7958(2) 0.6719(5)
N1D_2 N 0.6723(3) 0.7947(2) 0.7794(6)
C1A_3 C 0.6134(3) 0.7958(2) 0.3281(5)
N1A_3 N 0.6723(3) 0.7947(2) 0.2206(6)
Cd1A_3 Cd 0.77258(3) 0.76331(2) 0.00000
C2C_2 C 0.4234(3) 0.7817(2) 0.3249(5)
N2C_2 N 0.3691(3) 0.7714(2) 0.2175(6)
Cd1C_2 Cd 0.27258(3) 0.73669(2) 0.00000
N1C_3 N 0.1723(3) 0.7053(2) -0.2206(6)
C1C_3 C 0.1134(3) 0.7042(2) -0.3281(5)
Ni1C_2 Ni 0.01714(6) 0.70845(3) -0.5000
N1F_3 N 0.1723(3) 0.7053(2) 0.2206(6)
C1F_3 C 0.1134(3) 0.7042(2) 0.3281(5)
N2F_3 N 0.3691(3) 0.7714(2) -0.2175(6)
N3C_2 N 0.1675(5) 0.8034(2) 0.00000
N4C N 0.3664(5) 0.6658(2) 0.00000
C9C C 0.3042(6) 0.6219(3) 0.00000
N1E_4 N 0.3277(3) 0.2053(2) -0.2206(6)
C1E_4 C 0.3866(3) 0.2042(2) -0.3281(5)
Ni1E_3 Ni 0.48286(6) 0.20845(3) -0.5000
N2E_3 N 0.1309(3) 0.2714(2) 0.2175(6)
H1E H 0.37481 0.30184 -0.10717
H2E H 0.23141 0.35319 -0.11789
H3E H 0.39647 0.39277 -0.11789
H4E H 0.24098 0.44213 -0.11789
H5E H 0.40757 0.48419 -0.11789
H6E H 0.25075 0.53256 -0.11789
H7E H 0.41354 0.57526 -0.11789
H8C H 0.25751 0.62210 0.11789
H8F H 0.25751 0.62210 -0.11789
H9C H 0.40883 0.66551 0.10717
H9F H 0.40883 0.66551 -0.10717
N2C_3 N 0.3691(3) 0.7714(2) 1.2175(6)
H1F H 0.12519 0.80184 1.10717
H1C H 0.12519 0.80184 0.89283
H2F H 0.26859 0.85319 1.11789
H2C H 0.26859 0.85319 0.88211
H3F H 0.10353 0.89277 1.11789
H3C H 0.10353 0.89277 0.88211
H4F H 0.25902 0.94213 1.11789
H4C H 0.25902 0.94213 0.88211
H5F H 0.09243 0.98419 1.11789
H5C H 0.09243 0.98419 0.88211
H6F H 0.24925 1.03256 1.11789
H6C H 0.24925 1.03256 0.88211
H7F H 0.08646 1.07526 1.11789
H7C H 0.08646 1.07526 0.88211
H8E H 0.24249 1.12210 1.11789
H8_2 H 0.24249 1.12210 0.88211
H9E H 0.09117 1.16551 1.10717
H9_2 H 0.09117 1.16551 0.89283
N2E_4 N 0.1309(3) 1.2714(2) 2.2175(6)
N3_2 N 0.3325(5) 1.3034(2) 2.00000
H9_3 H 0.09117 1.16551 1.89283
H9E_2 H 0.09117 1.16551 2.10717
H8_3 H 0.24249 1.12210 1.88211
H8E_2 H 0.24249 1.12210 2.11789
H7C_2 H 0.08646 1.07526 1.88211
H7F_2 H 0.08646 1.07526 2.11789
H6C_2 H 0.24925 1.03256 1.88211
H6F_2 H 0.24925 1.03256 2.11789
H5C_2 H 0.09243 0.98419 1.88211
H5F_2 H 0.09243 0.98419 2.11789
H4C_2 H 0.25902 0.94213 1.88211
H4F_2 H 0.25902 0.94213 2.11789
H3C_2 H 0.10353 0.89277 1.88211
H3F_2 H 0.10353 0.89277 2.11789
H2C_2 H 0.26859 0.85319 1.88211
H2F_2 H 0.26859 0.85319 2.11789
H1C_2 H 0.12519 0.80184 1.89283
H1F_2 H 0.12519 0.80184 2.10717
N4C_2 N 0.3664(5) 0.6658(2) 2.00000
C2C_3 C 0.4234(3) 0.7817(2) 1.3249(5)
N2A N 0.8691(3) 0.7286(2) 1.7825(6)
N2D N 0.8691(3) 0.7286(2) 2.2175(6)
N3A N 0.6675(5) 0.6966(2) 2.00000
N4A N 0.8664(5) 0.8342(2) 2.00000
C1D_3 C 0.6134(3) 0.7958(2) 2.6719(5)
N1D_3 N 0.6723(3) 0.7947(2) 2.7794(6)
Cd1D Cd 0.77258(3) 0.76331(2) 3.00000
C2F_3 C 0.4234(3) 0.7817(2) 2.6751(5)
C2D C -0.0766(3) 0.7183(2) 1.3249(5)
C2A C -0.0766(3) 0.7183(2) 1.6751(5)
H9F_2 H 0.40883 0.66551 0.89283
H9C_2 H 0.40883 0.66551 1.10717
H8F_2 H 0.25751 0.62210 0.88211
H8C_2 H 0.25751 0.62210 1.11789
H7E_2 H 0.41354 0.57526 0.88211
H7_2 H 0.41354 0.57526 1.11789
H6E_2 H 0.25075 0.53256 0.88211
H6_2 H 0.25075 0.53256 1.11789
H5E_2 H 0.40757 0.48419 0.88211
H5_2 H 0.40757 0.48419 1.11789
H4E_2 H 0.24098 0.44213 0.88211
H4_2 H 0.24098 0.44213 1.11789
H3E_2 H 0.39647 0.39277 0.88211
H3_2 H 0.39647 0.39277 1.11789
H2E_2 H 0.23141 0.35319 0.88211
H2_2 H 0.23141 0.35319 1.11789
H1E_2 H 0.37481 0.30184 0.89283
H1_2 H 0.37481 0.30184 1.10717
N4E_2 N 0.1336(5) 0.1658(2) 1.00000
C2E_3 C 0.0766(3) 0.2817(2) 0.3249(5)
N2G N -0.3691(3) 0.2286(2) 0.7825(6)
N2B N -0.3691(3) 0.2286(2) 1.2175(6)
N3G N -0.1675(5) 0.1966(2) 1.00000
N4G N -0.3664(5) 0.3342(2) 1.00000
C1B_3 C -0.1134(3) 0.2958(2) 1.6719(5)
N1B_3 N -0.1723(3) 0.2947(2) 1.7794(6)
Cd1B_2 Cd -0.27258(3) 0.26331(2) 2.00000
C2_4 C 0.0766(3) 0.2817(2) 1.6751(5)
C2B C 0.5766(3) 0.2183(2) 0.3249(5)
C2G C 0.5766(3) 0.2183(2) 0.6751(5)
H9E_3 H 0.09117 0.16551 0.10717
Ni1B_3 Ni -0.01714(6) 0.29155(3) -0.5000
C8C_2 C 0.1331(6) 0.0760(3) 0.00000
H8E_3 H 0.24249 0.12210 0.11789
loop_
_geom_bond_atom_site_label_1
_geom_bond_atom_site_label_2
_geom_bond_site_symmetry_1
_geom_bond_site_symmetry_2
Cd1 N1 1_555 1_555
Ni1 C1 1_555 1_555
N1 C1 1_555 1_555
N2 Cd1 1_555 1_555
N3 Cd1 1_555 1_555
N4 Cd1 1_555 1_555
C2 N2 1_555 1_555
C3 N3 1_555 1_555
C4 C3 1_555 1_555
C5 C4 1_555 1_555
C6 C5 1_555 1_555
C7 C6 1_555 1_555
C8 C7 1_555 1_555
C9 N4 1_555 1_555
C10 C11 1_555 1_555
N5 C11 1_555 1_555
C11 C12 1_555 1_555
C12 C13 1_555 1_555
C13 C19 1_555 1_555
C14 C15 1_555 1_555
C15 C16 1_555 1_555
C16 C17 1_555 1_555
C17 C18 1_555 1_555
C18 N5 1_555 1_555
C19 C14 1_555 1_555
H1 N3 1_555 1_555
H2 C3 1_555 1_555
H3 C4 1_555 1_555
H4 C5 1_555 1_555
H5 C6 1_555 1_555
H6 C7 1_555 1_555
H7 C8 1_555 1_555
H8 C9 1_555 1_555
H9 N4 1_555 1_555
C1E Ni1 1_555 1_555
N1E C1E 1_555 1_555
Cd1E N1E 1_555 1_555
N1_2 Cd1E 1_555 1_555
C1_2 N1_2 1_555 1_555
Ni1_2 C1_2 1_555 1_555
N2E Cd1E 1_555 1_555
C2E N2E 1_555 1_555
Ni1G C2E 1_555 1_555
C1G Ni1G 1_555 1_555
N1G C1G 1_555 1_555
Cd1G N1G 1_555 1_555
N1B Cd1G 1_555 1_555
C1B N1B 1_555 1_555
Ni1B C1B 1_555 1_555
C1G_2 Ni1B 1_555 1_555
N1G_2 C1G_2 1_555 1_555
Cd1G_2 N1G_2 1_555 1_555
C2_2 Ni1B 1_555 1_555
N2_2 Cd1E 1_555 1_555
N3E Cd1E 1_555 1_555
C3E N3E 1_555 1_555
C4E C3E 1_555 1_555
C5E C4E 1_555 1_555
C6E C5E 1_555 1_555
C7E C6E 1_555 1_555
C8E C7E 1_555 1_555
C9F C8E 1_555 1_555
N4F C9F 1_555 1_555
Cd1F N4F 1_555 1_555
N1F Cd1F 1_555 1_555
C1F N1F 1_555 1_555
Ni1F C1F 1_555 1_555
C1C Ni1F 1_555 1_555
N1C C1C 1_555 1_555
Cd1C N1C 1_555 1_555
N1F_2 Cd1C 1_555 1_555
C1F_2 N1F_2 1_555 1_555
Ni1F_2 C1F_2 1_555 1_555
N2C Cd1C 1_555 1_555
C2C N2C 1_555 1_555
Ni1A C2C 1_555 1_555
C1A Ni1A 1_555 1_555
N1A C1A 1_555 1_555
Cd1A N1A 1_555 1_555
N1D Cd1A 1_555 1_555
C1D N1D 1_555 1_555
Ni1D C1D 1_555 1_555
C1A_2 Ni1D 1_555 1_555
N1A_2 C1A_2 1_555 1_555
Cd1A_2 N1A_2 1_555 1_555
C2F Ni1D 1_555 1_555
N2F Cd1C 1_555 1_555
N3C Cd1C 1_555 1_555
C3C N3C 1_555 1_555
C4C C3C 1_555 1_555
C5C C4C 1_555 1_555
C6C C5C 1_555 1_555
C7C C6C 1_555 1_555
C8C C7C 1_555 1_555
C9_2 C8C 1_555 1_555
N4_2 C9_2 1_555 1_555
Cd1_2 N4_2 1_555 1_555
N1_3 Cd1_2 1_555 1_555
C1_3 N1_3 1_555 1_555
Ni1_3 C1_3 1_555 1_555
N1E_2 Cd1_2 1_555 1_555
C1E_2 N1E_2 1_555 1_555
Ni1E C1E_2 1_555 1_555
N2_3 Cd1_2 1_555 1_555
C2_3 N2_3 1_555 1_555
Ni1B_2 C2_3 1_555 1_555
C1B_2 Ni1B_2 1_555 1_555
N1B_2 C1B_2 1_555 1_555
Cd1B N1B_2 1_555 1_555
C1G_3 Ni1B_2 1_555 1_555
N1G_3 C1G_3 1_555 1_555
Cd1G_3 N1G_3 1_555 1_555
C2E_2 Ni1B_2 1_555 1_555
N2E_2 C2E_2 1_555 1_555
Cd1E_2 N2E_2 1_555 1_555
N1E_3 Cd1E_2 1_555 1_555
C1E_3 N1E_3 1_555 1_555
Ni1E_2 C1E_3 1_555 1_555
N1_4 Cd1E_2 1_555 1_555
C1_4 Ni1E 1_555 1_555
N2_4 Cd1E_2 1_555 1_555
N3E_2 Cd1E_2 1_555 1_555
N4E Cd1E_2 1_555 1_555
C9E N4E 1_555 1_555
C8F C9E 1_555 1_555
C7F C8F 1_555 1_555
C6F C7F 1_555 1_555
C5F C6F 1_555 1_555
C4F C5F 1_555 1_555
C3F C4F 1_555 1_555
N3F Cd1F 1_555 1_555
N1C_2 Cd1F 1_555 1_555
C1C_2 N1C_2 1_555 1_555
Ni1C C1C_2 1_555 1_555
N2F_2 Cd1F 1_555 1_555
C2F_2 N2F_2 1_555 1_555
Ni1D_2 C2F_2 1_555 1_555
C1D_2 Ni1D_2 1_555 1_555
N1D_2 Cd1A_2 1_555 1_555
C1A_3 Ni1D_2 1_555 1_555
N1A_3 C1A_3 1_555 1_555
Cd1A_3 N1A_3 1_555 1_555
C2C_2 Ni1D_2 1_555 1_555
N2C_2 C2C_2 1_555 1_555
Cd1C_2 N2C_2 1_555 1_555
N1C_3 Cd1C_2 1_555 1_555
C1C_3 N1C_3 1_555 1_555
Ni1C_2 C1C_3 1_555 1_555
N1F_3 Cd1C_2 1_555 1_555
C1F_3 Ni1C 1_555 1_555
N2F_3 Cd1C_2 1_555 1_555
N3C_2 Cd1C_2 1_555 1_555
N4C Cd1C_2 1_555 1_555
C9C C8 1_555 1_555
N1E_4 Cd1 1_555 1_555
C1E_4 N1E_4 1_555 1_555
Ni1E_3 C1E_4 1_555 1_555
N2E_3 Cd1 1_555 1_555
H1E N3 1_555 1_555
H2E C3 1_555 1_555
H3E C4 1_555 1_555
H4E C5 1_555 1_555
H5E C6 1_555 1_555
H6E C7 1_555 1_555
H7E C8 1_555 1_555
H8C C9C 1_555 1_555
H8F C9C 1_555 1_555
H9C N4C 1_555 1_555
H9F N4C 1_555 1_555
N2C_3 Cd1F 1_555 1_555
H1F N3F 1_555 1_555
H1C N3F 1_555 1_555
H2F C3F 1_555 1_555
H2C C3F 1_555 1_555
H3F C4F 1_555 1_555
H3C C4F 1_555 1_555
H4F C5F 1_555 1_555
H4C C5F 1_555 1_555
H5F C6F 1_555 1_555
H5C C6F 1_555 1_555
H6F C7F 1_555 1_555
H6C C7F 1_555 1_555
H7F C8F 1_555 1_555
H7C C8F 1_555 1_555
H8E C9E 1_555 1_555
H8_2 C9E 1_555 1_555
H9E N4E 1_555 1_555
H9_2 N4E 1_555 1_555
N2E_4 Cd1_2 1_555 1_555
N3_2 Cd1_2 1_555 1_555
H9_3 N4_2 1_555 1_555
H9E_2 N4_2 1_555 1_555
H8_3 C9_2 1_555 1_555
H8E_2 C9_2 1_555 1_555
H7C_2 C8C 1_555 1_555
H7F_2 C8C 1_555 1_555
H6C_2 C7C 1_555 1_555
H6F_2 C7C 1_555 1_555
H5C_2 C6C 1_555 1_555
H5F_2 C6C 1_555 1_555
H4C_2 C5C 1_555 1_555
H4F_2 C5C 1_555 1_555
H3C_2 C4C 1_555 1_555
H3F_2 C4C 1_555 1_555
H2C_2 C3C 1_555 1_555
H2F_2 C3C 1_555 1_555
H1C_2 N3C 1_555 1_555
H1F_2 N3C 1_555 1_555
N4C_2 Cd1C 1_555 1_555
C2C_3 Ni1D 1_555 1_555
N2A Cd1A 1_555 1_555
N2D Cd1A 1_555 1_555
N3A Cd1A 1_555 1_555
N4A Cd1A 1_555 1_555
C1D_3 Ni1A 1_555 1_555
N1D_3 C1D_3 1_555 1_555
Cd1D N1D_3 1_555 1_555
C2F_3 Ni1A 1_555 1_555
C2D Ni1F 1_555 1_555
C2A Ni1F 1_555 1_555
H9F_2 N4F 1_555 1_555
H9C_2 N4F 1_555 1_555
H8F_2 C9F 1_555 1_555
H8C_2 C9F 1_555 1_555
H7E_2 C8E 1_555 1_555
H7_2 C8E 1_555 1_555
H6E_2 C7E 1_555 1_555
H6_2 C7E 1_555 1_555
H5E_2 C6E 1_555 1_555
H5_2 C6E 1_555 1_555
H4E_2 C5E 1_555 1_555
H4_2 C5E 1_555 1_555
H3E_2 C4E 1_555 1_555
H3_2 C4E 1_555 1_555
H2E_2 C3E 1_555 1_555
H2_2 C3E 1_555 1_555
H1E_2 N3E 1_555 1_555
H1_2 N3E 1_555 1_555
N4E_2 Cd1E 1_555 1_555
C2E_3 Ni1B 1_555 1_555
N2G Cd1G 1_555 1_555
N2B Cd1G 1_555 1_555
N3G Cd1G 1_555 1_555
N4G Cd1G 1_555 1_555
C1B_3 Ni1G 1_555 1_555
N1B_3 C1B_3 1_555 1_555
Cd1B_2 N1B_3 1_555 1_555
C2_4 Ni1G 1_555 1_555
C2B Ni1 1_555 1_555
C2G Ni1 1_555 1_555
H9E_3 N4 1_555 1_555
Ni1B_3 C2 1_555 1_555
C8C_2 C9 1_555 1_555
H8E_3 C9 1_555 1_555
C18 C19 1_555 1_555
C2_2 N2_2 1_555 1_555
C2F N2F 1_555 1_555
N1_4 C1_4 1_555 1_555
C3F N3F 1_555 1_555
C1D_2 N1D_2 1_555 1_555
N1F_3 C1F_3 1_555 1_555
N4C C9C 1_555 1_555
N2E_3 C2E_3 1_555 1_555
N2C_3 C2C_3 1_555 1_555

#END
