
#######################################################################
#
#                 Cambridge Crystallographic Data Centre
#                                CCDC 
#
#######################################################################
#
# If this CIF has been generated from an entry in the Cambridge 
# Structural Database, then it will include bibliographic, chemical, 
# crystal, experimental, refinement or atomic coordinate data resulting 
# from the CCDC's data processing and validation procedures.
#
#######################################################################

data_RABHAZ
_chemical_formula_moiety         '(C16 H23 Cd1 N7 Ni1)n'
_symmetry_cell_setting           monoclinic
_symmetry_space_group_name_H-M   'P 21/a'
_symmetry_Int_Tables_number      14
_space_group_name_Hall           '-P 2yab'
loop_
_symmetry_equiv_pos_site_id
_symmetry_equiv_pos_as_xyz
1 x,y,z
2 1/2-x,1/2+y,-z
3 -x,-y,-z
4 1/2+x,1/2-y,z
_cell_length_a                   13.736(3)
_cell_length_b                   22.014(4)
_cell_length_c                   7.762(3)
_cell_angle_alpha                90
_cell_angle_beta                 91.04(3)
_cell_angle_gamma                90
_cell_volume                     2346.72
loop_
_atom_site_label
_atom_site_type_symbol
_atom_site_fract_x
_atom_site_fract_y
_atom_site_fract_z
Cd1 Cd 0.17144(2) 0.20196(1) 0.06316(3)
Ni1 Ni 0.42307(4) 0.232208(3) 0.56365(6)
N1 N 0.2842(3) 0.1923(2) 0.2907(5)
N2 N 0.0534(3) 0.2214(3) 0.2773(6)
N3 N 0.0553(3) 0.2190(3) -0.1622(5)
N4 N 0.2903(3) 0.1821(2) -0.1602(5)
N5 N 0.2119(4) 0.3014(2) 0.0053(7)
N6 N 0.1306(3) 0.1029(2) 0.0921(7)
C1 C 0.3377(3) 0.2067(2) 0.3952(5)
C2 C 0.0045(3) 0.2377(2) -0.6106(5)
C3 C 0.0068(3) 0.2388(2) -0.2672(5)
C4 C -0.1594(3) 0.2992(2) -0.2655(5)
C5 C 0.3055(4) 0.3217(3) 0.0723(9)
C6 C 0.3462(5) 0.3783(2) -0.0150(10)
C7 C 0.2883(4) 0.4368(2) 0.0001(7)
C8 C 0.3498(4) 0.4902(8) -0.0628(8)
C9 C 0.3021(3) 0.5533(2) -0.0419(6)
H1 H 0.16062 0.32795 0.05552
H2 H 0.21187 0.30653 -0.12270
H3 H 0.29771 0.33177 0.21021
H4 H 0.35809 0.28458 0.05649
H5 H 0.35243 0.36805 -0.15306
H6 H 0.41901 0.38679 0.04104
H7 H 0.22131 0.43344 -0.07927
H8 H 0.26915 0.44419 0.13548
H9 H 0.41906 0.49019 0.01040
H10 H 0.36406 0.48327 -0.20041
H11 H 0.28229 0.55947 0.09363
H12 H 0.23613 0.55547 -0.12408
H13 H 0.06937 0.09687 0.02249
H14 H 0.11679 0.09659 0.21694
Cd1_2 Cd 0.17144(2) 0.20196(1) -0.93684(3)
N2_2 N 0.0534(3) 0.2214(3) -0.7227(6)
Ni1C Ni -0.07693(4) 0.267792(3) -0.43635(6)
C1C C -0.1623(3) 0.2933(2) -0.6048(5)
N1C N -0.2158(3) 0.3077(2) -0.7093(5)
Cd1C Cd -0.32856(2) 0.29804(1) -0.93684(3)
Cd1A Cd 0.32856(2) 0.70196(1) -0.06316(3)
N6A N 0.3694(3) 0.6029(2) -0.0921(7)
H13A H 0.43063 0.59687 -0.02249
H14A H 0.38321 0.59659 -0.21694
C10 C 0.3427(7) 0.5320(4) 0.4328(12)
C11 C 0.3881(7) 0.4758(4) 0.4213(11)
C12 C 0.3397(6) 0.4205(4) 0.4602(9)
C13 C 0.2426(8) 0.4251(5) 0.5141(9)
C14 C 0.1966(9) 0.4761(6) 0.5383(13)
C15 C 0.2475(9) 0.5346(5) 0.4918(13)
C16 C 0.3943(10) 0.5855(5) 0.3940(18)
N7 N 0.1938(11) 0.3545(7) 0.5594(13)
loop_
_geom_bond_atom_site_label_1
_geom_bond_atom_site_label_2
_geom_bond_site_symmetry_1
_geom_bond_site_symmetry_2
Cd1 N1 1_555 1_555
Ni1 C1 1_555 1_555
N1 C1 1_555 1_555
N2 Cd1 1_555 1_555
N3 Cd1 1_555 1_555
N4 Cd1 1_555 1_555
N5 Cd1 1_555 1_555
N6 Cd1 1_555 1_555
C2 N2_2 1_555 1_555
C3 N3 1_555 1_555
C4 Ni1C 1_555 1_555
C5 N5 1_555 1_555
C6 C5 1_555 1_555
C7 C6 1_555 1_555
C8 C7 1_555 1_555
C9 C8 1_555 1_555
C10 C11 1_555 1_555
C11 C12 1_555 1_555
C12 C13 1_555 1_555
C13 C14 1_555 1_555
C14 C15 1_555 1_555
C15 C10 1_555 1_555
C16 C10 1_555 1_555
N7 C13 1_555 1_555
H1 N5 1_555 1_555
H2 N5 1_555 1_555
H3 C5 1_555 1_555
H4 C5 1_555 1_555
H5 C6 1_555 1_555
H6 C6 1_555 1_555
H7 C7 1_555 1_555
H8 C7 1_555 1_555
H9 C8 1_555 1_555
H10 C8 1_555 1_555
H11 C9 1_555 1_555
H12 C9 1_555 1_555
H13 N6 1_555 1_555
H14 N6 1_555 1_555
Cd1_2 N2_2 1_555 1_555
Ni1C C2 1_555 1_555
C1C Ni1C 1_555 1_555
N1C C1C 1_555 1_555
Cd1C N1C 1_555 1_555
Cd1A N6A 1_555 1_555
N6A C9 1_555 1_555
H13A N6A 1_555 1_555
H14A N6A 1_555 1_555
C3 Ni1C 1_555 1_555

#END
