
#######################################################################
#
#                 Cambridge Crystallographic Data Centre
#                                CCDC 
#
#######################################################################
#
# If this CIF has been generated from an entry in the Cambridge 
# Structural Database, then it will include bibliographic, chemical, 
# crystal, experimental, refinement or atomic coordinate data resulting 
# from the CCDC's data processing and validation procedures.
#
#######################################################################

data_VEXVAW
_chemical_formula_moiety         '(C57 H33 Fe3 N3 O13)n'
_symmetry_cell_setting           rhombohedral
_symmetry_space_group_name_H-M   'R -3 c'
_symmetry_Int_Tables_number      167
_space_group_name_Hall           '-R 3 2"c'
loop_
_symmetry_equiv_pos_site_id
_symmetry_equiv_pos_as_xyz
1 x,y,z
2 -y,x-y,z
3 -x+y,-x,z
4 y,x,1/2-z
5 2/3+x,1/3+y,1/3+z
6 2/3-y,1/3+x-y,1/3+z
7 2/3-x+y,1/3-x,1/3+z
8 2/3+y,1/3+x,5/6-z
9 1/3+x,2/3+y,2/3+z
10 1/3+y,2/3+x,1/6-z
11 x-y,-y,1/2-z
12 -x,-x+y,1/2-z
13 1/3-y,2/3+x-y,2/3+z
14 1/3-x+y,2/3-x,2/3+z
15 1/3+x-y,2/3-y,1/6-z
16 1/3-x,2/3-x+y,1/6-z
17 2/3+x-y,1/3-y,5/6-z
18 2/3-x,1/3-x+y,5/6-z
19 -x,-y,-z
20 y,-x+y,-z
21 x-y,x,-z
22 -y,-x,1/2+z
23 1/3-x,2/3-y,2/3-z
24 1/3+y,2/3-x+y,2/3-z
25 1/3+x-y,2/3+x,2/3-z
26 1/3-y,2/3-x,1/6+z
27 2/3-x,1/3-y,1/3-z
28 2/3-y,1/3-x,5/6+z
29 -x+y,y,1/2+z
30 x,x-y,1/2+z
31 2/3+y,1/3-x+y,1/3-z
32 2/3+x-y,1/3+x,1/3-z
33 2/3-x+y,1/3+y,5/6+z
34 2/3+x,1/3+x-y,5/6+z
35 1/3-x+y,2/3+y,1/6+z
36 1/3+x,2/3+x-y,1/6+z
_cell_length_a                   19.2442(14)
_cell_length_b                   19.2442(14)
_cell_length_c                   45.613(7)
_cell_angle_alpha                90
_cell_angle_beta                 90
_cell_angle_gamma                120.00
_cell_volume                     14629.1
loop_
_atom_site_label
_atom_site_type_symbol
_atom_site_fract_x
_atom_site_fract_y
_atom_site_fract_z
_atom_site_U_iso_or_equiv
_atom_site_thermal_displace_type
N1 N 0.4529(2) 0.3333 0.0833 0.0370 Uani
C1 C 0.4344(2) 0.3688(2) 0.06189(7) 0.0437 Uani
H1 H 0.4723 0.3946 0.0466 0.0530 Uiso
C2 C 0.3623(2) 0.3700(3) 0.06076(9) 0.0579 Uani
C3 C 0.3079(3) 0.3333 0.0833 0.0644 Uani
H2 H 0.2586 0.3333 0.0833 0.0770 Uiso
C4 C 0.32804(19) 0.5303(2) -0.04061(7) 0.0359 Uani
O1 O 0.39255(13) 0.57218(14) -0.05459(5) 0.0406 Uani
O2 O 0.26053(14) 0.52102(14) -0.04746(5) 0.0403 Uani
C5 C 0.3519(3) 0.4196(3) 0.03771(12) 0.0379 Uiso
C6 C 0.4164(3) 0.4892(3) 0.02710(10) 0.0438 Uiso
H3 H 0.4667 0.5118 0.0369 0.0530 Uiso
C7 C 0.4087(3) 0.5263(3) 0.00236(10) 0.0440 Uiso
H4 H 0.4541 0.5732 -0.0050 0.0530 Uiso
C8 C 0.3357(3) 0.4958(3) -0.01172(12) 0.0341 Uiso
C9 C 0.2690(3) 0.4259(3) -0.00109(12) 0.0476 Uiso
H5 H 0.2188 0.4045 -0.0108 0.0570 Uiso
C10 C 0.2765(4) 0.3880(4) 0.02363(12) 0.0528 Uiso
H6 H 0.2312 0.3412 0.0311 0.0630 Uiso
O3 O 0.6667 0.3333 0.0833 0.0334 Uani
Fe1 Fe 0.56783(3) 0.3333 0.0833 0.0307 Uani
N1HA N 0.2137(2) -0.0000 0.2500 0.0370 Uani
N1R N 0.5471(2) 0.6667 -0.0833 0.0370 Uani
C1N C 0.3989(3) 0.2979(2) 0.10478(7) 0.0437 Uani
C1HA C 0.2677(3) 0.0355(2) 0.22856(7) 0.0437 Uani
C1Z C 0.2323(2) -0.0355(2) 0.27144(7) 0.0437 Uani
C1R C 0.5656(2) 0.6312(2) -0.06189(7) 0.0437 Uani
C1FA C 0.6011(3) 0.7021(2) -0.10478(7) 0.0437 Uani
H1N H 0.4110 0.2721 0.1201 0.0530 Uiso
H1HA H 0.2556 0.0613 0.2133 0.0530 Uiso
H1Z H 0.1944 -0.0613 0.2867 0.0530 Uiso
H1R H 0.5277 0.6054 -0.0466 0.0530 Uiso
H1FA H 0.5890 0.7279 -0.1201 0.0530 Uiso
C2N C 0.3256(4) 0.2967(3) 0.10591(9) 0.0579 Uani
C2HA C 0.3410(4) 0.0367(3) 0.22743(9) 0.0579 Uani
C2Z C 0.3044(2) -0.0367(3) 0.27257(9) 0.0579 Uani
C2R C 0.6377(2) 0.6300(3) -0.06076(9) 0.0579 Uani
C2FA C 0.6744(4) 0.7033(3) -0.10591(9) 0.0579 Uani
C3HA C 0.3587(3) -0.0000 0.2500 0.0644 Uani
C3R C 0.6921(3) 0.6667 -0.0833 0.0644 Uani
H2HA H 0.4080 -0.0000 0.2500 0.0770 Uiso
H2R H 0.7414 0.6667 -0.0833 0.0770 Uiso
C4N C 0.13107(28) 0.1364(2) 0.20728(7) 0.0359 Uani
C4HA C 0.53559(28) 0.1970(2) 0.12606(7) 0.0359 Uani
C4Z C 0.33863(19) -0.1970(2) 0.37394(7) 0.0359 Uani
C4R C 0.67196(19) 0.4697(2) 0.04061(7) 0.0359 Uani
C4FA C 0.86893(28) 0.8636(2) -0.20728(7) 0.0359 Uani
O1N O 0.15370(19) 0.09449(14) 0.22126(5) 0.0406 Uani
O1HA O 0.51296(19) 0.23885(14) 0.11208(5) 0.0406 Uani
O1Z O 0.27412(13) -0.23885(14) 0.38792(5) 0.0406 Uani
O1R O 0.60745(13) 0.42782(14) 0.05459(5) 0.0406 Uani
O1FA O 0.84630(19) 0.90551(14) -0.22126(5) 0.0406 Uani
O1D O 0.05922(13) -0.09449(14) 0.27874(5) 0.0406 Uani
O1P O 0.48704(19) 0.76115(14) -0.11208(5) 0.0406 Uani
O2N O 0.07284(20) 0.14565(14) 0.21413(5) 0.0403 Uani
O2HA O 0.59382(20) 0.18769(14) 0.11921(5) 0.0403 Uani
O2Z O 0.40614(14) -0.18769(14) 0.38079(5) 0.0403 Uani
O2R O 0.73947(14) 0.47898(14) 0.04746(5) 0.0403 Uani
O2FA O 0.92716(20) 0.85435(14) -0.21413(5) 0.0403 Uani
O2IA O 0.59386(14) 0.40618(20) 0.11921(5) 0.0403 Uani
O2S O 0.52102(14) 0.26049(20) 0.04746(5) 0.0403 Uani
O2E O 0.14565(14) 0.07284(20) 0.28587(5) 0.0403 Uani
O2O O 0.07280(14) -0.07284(20) 0.21413(5) 0.0403 Uani
O2A O 0.47898(14) 0.73951(20) -0.04746(5) 0.0403 Uani
O2Q O 0.40614(14) 0.59382(20) -0.11921(5) 0.0403 Uani
C5N C 0.2656(4) 0.2471(3) 0.12896(12) 0.0379 Uiso
C5HA C 0.4010(4) 0.0863(3) 0.20438(12) 0.0379 Uiso
C5Z C 0.3148(3) -0.0863(3) 0.29562(12) 0.0379 Uiso
C5R C 0.6481(3) 0.5804(3) -0.03771(12) 0.0379 Uiso
C5FA C 0.7344(4) 0.7529(3) -0.12896(12) 0.0379 Uiso
C6N C 0.2605(4) 0.1775(3) 0.13957(10) 0.0438 Uiso
C6HA C 0.4061(4) 0.1559(3) 0.19377(10) 0.0438 Uiso
C6Z C 0.2503(3) -0.1559(3) 0.30623(10) 0.0438 Uiso
C6R C 0.5836(3) 0.5108(3) -0.02710(10) 0.0438 Uiso
C6FA C 0.7395(4) 0.8225(3) -0.13957(10) 0.0438 Uiso
H3N H 0.2882 0.1549 0.1298 0.0530 Uiso
H3HA H 0.3784 0.1785 0.2036 0.0530 Uiso
H3Z H 0.2000 -0.1785 0.2964 0.0530 Uiso
H3R H 0.5333 0.4882 -0.0369 0.0530 Uiso
H3FA H 0.7118 0.8451 -0.1298 0.0530 Uiso
C7N C 0.2157(4) 0.1404(3) 0.16431(10) 0.0440 Uiso
C7HA C 0.4509(4) 0.1930(3) 0.16903(10) 0.0440 Uiso
C7Z C 0.2580(3) -0.1930(3) 0.33097(10) 0.0440 Uiso
C7R C 0.5913(3) 0.4737(3) -0.00236(10) 0.0440 Uiso
C7FA C 0.7843(4) 0.8596(3) -0.16431(10) 0.0440 Uiso
H4N H 0.2142 0.0935 0.1717 0.0530 Uiso
H4HA H 0.4524 0.2399 0.1617 0.0530 Uiso
H4Z H 0.2126 -0.2399 0.3383 0.0530 Uiso
H4R H 0.5459 0.4268 0.0050 0.0530 Uiso
H4FA H 0.7858 0.9065 -0.1717 0.0530 Uiso
C8N C 0.1732(4) 0.1709(3) 0.17839(12) 0.0341 Uiso
C8HA C 0.4934(4) 0.1625(3) 0.15495(12) 0.0341 Uiso
C8Z C 0.3310(3) -0.1625(3) 0.34505(12) 0.0341 Uiso
C8R C 0.6643(3) 0.5042(3) 0.01172(12) 0.0341 Uiso
C8FA C 0.8268(4) 0.8291(3) -0.17839(12) 0.0341 Uiso
C9N C 0.1764(4) 0.2408(3) 0.16776(12) 0.0476 Uiso
C9HA C 0.4902(4) 0.0926(3) 0.16558(12) 0.0476 Uiso
C9Z C 0.3977(3) -0.0926(3) 0.33442(12) 0.0476 Uiso
C9R C 0.7310(3) 0.5741(3) 0.00109(12) 0.0476 Uiso
C9FA C 0.8236(4) 0.7592(3) -0.16776(12) 0.0476 Uiso
H5N H 0.1476 0.2622 0.1775 0.0570 Uiso
H5HA H 0.5190 0.0712 0.1559 0.0570 Uiso
H5Z H 0.4479 -0.0712 0.3441 0.0570 Uiso
H5R H 0.7812 0.5955 0.0108 0.0570 Uiso
H5FA H 0.8524 0.7378 -0.1775 0.0570 Uiso
C10N C 0.2218(6) 0.2787(4) 0.14304(12) 0.0528 Uiso
C10HA C 0.4448(6) 0.0547(4) 0.19030(12) 0.0528 Uiso
C10Z C 0.3902(4) -0.0547(4) 0.30970(12) 0.0528 Uiso
C10R C 0.7235(4) 0.6120(4) -0.02363(12) 0.0528 Uiso
C10FA C 0.7782(6) 0.7213(4) -0.14304(12) 0.0528 Uiso
H6N H 0.2233 0.3255 0.1356 0.0630 Uiso
H6HA H 0.4433 0.0079 0.1978 0.0630 Uiso
H6Z H 0.4355 -0.0079 0.3022 0.0630 Uiso
H6R H 0.7688 0.6588 -0.0311 0.0630 Uiso
H6FA H 0.7767 0.6745 -0.1356 0.0630 Uiso
O3HA O -0.0001 -0.0000 0.2500 0.0334 Uani
O3FA O 0.3333 0.6666 -0.0834 0.0334 Uani
O3C O 0.3333 -0.3333 0.4167 0.0334 Uani
O3G O 1.0000 1.0000 -0.2500 0.0334 Uani
Fe1HA Fe 0.09880(3) -0.0000 0.2500 0.0307 Uani
Fe1R Fe 0.43217(3) 0.6667 -0.0833 0.0307 Uani
Fe1J Fe 0.23453(3) -0.3333 0.4167 0.0307 Uani
Fe1H Fe 0.90116(3) 1.0000 -0.2500 0.0307 Uani
Fe1GA Fe 0.23450(3) 0.56786(3) -0.0834 0.0307 Uani
Fe1A Fe 0.6667 0.23453(3) 0.0833 0.0307 Uani
Fe1B Fe 0.76547(3) 0.43217(3) 0.0833 0.0307 Uani
Fe1DA Fe -0.0000 0.09880(3) 0.2500 0.0307 Uani
Fe1F Fe 0.43214(3) -0.23450(3) 0.4166 0.0307 Uani
Fe1G Fe 1.0000 0.90116(3) -0.2500 0.0307 Uani
Fe1EA Fe -0.09880(3) -0.09884(3) 0.2500 0.0307 Uani
loop_
_atom_site_aniso_label
_atom_site_aniso_U_11
_atom_site_aniso_U_22
_atom_site_aniso_U_33
_atom_site_aniso_U_23
_atom_site_aniso_U_13
_atom_site_aniso_U_12
N1 0.0424(16) 0.044(2) 0.0252(18) 0.0099(17) 0.0049(8) 0.0220(11)
C1 0.042(2) 0.056(2) 0.0313(17) 0.0129(16) 0.0015(15) 0.0232(18)
C2 0.046(2) 0.079(3) 0.051(2) 0.033(2) 0.0130(18) 0.033(2)
C3 0.054(2) 0.091(5) 0.060(4) 0.048(3) 0.0239(17) 0.045(2)
C4 0.0341(18) 0.0404(18) 0.0336(17) 0.0064(14) 0.0063(14) 0.0189(15)
O1 0.0362(13) 0.0495(14) 0.0409(13) 0.0138(11) 0.0062(10) 0.0250(12)
O2 0.0374(13) 0.0488(14) 0.0345(12) 0.0096(10) 0.0031(10) 0.0214(11)
O3 0.0371(18) 0.0371(18) 0.026(3) 0.000 0.000 0.0185(9)
Fe1 0.0367(3) 0.0343(4) 0.0204(3) 0.0012(3) 0.00062(13) 0.01717(19)
N1HA 0.0424 0.044 0.0252 0.0099 0.0049 0.022
N1R 0.0424 0.044 0.0252 0.0099 0.0049 0.022
C1N 0.0516 0.056 0.0313 0.0129 0.0114 0.0328
C1HA 0.0516 0.056 0.0313 0.0129 0.0114 0.0328
C1Z 0.042 0.056 0.0313 0.0129 0.0015 0.0232
C1R 0.042 0.056 0.0313 0.0129 0.0015 0.0232
C1FA 0.0516 0.056 0.0313 0.0129 0.0114 0.0328
C2N 0.059 0.079 0.051 0.033 0.02 0.046
C2HA 0.059 0.079 0.051 0.033 0.02 0.046
C2Z 0.046 0.079 0.051 0.033 0.013 0.033
C2R 0.046 0.079 0.051 0.033 0.013 0.033
C2FA 0.059 0.079 0.051 0.033 0.02 0.046
C3HA 0.054 0.091 0.06 0.048 0.0239 0.045
C3R 0.054 0.091 0.06 0.048 0.0239 0.045
C4N 0.0367 0.0404 0.0336 0.0064 0.0001 0.0215
C4HA 0.0367 0.0404 0.0336 0.0064 0.0001 0.0215
C4Z 0.0341 0.0404 0.0336 0.0064 0.0063 0.0189
C4R 0.0341 0.0404 0.0336 0.0064 0.0063 0.0189
C4FA 0.0367 0.0404 0.0336 0.0064 0.0001 0.0215
O1N 0.0357 0.0495 0.0409 0.0138 0.0076 0.0245
O1HA 0.0357 0.0495 0.0409 0.0138 0.0076 0.0245
O1Z 0.0362 0.0495 0.0409 0.0138 0.0062 0.025
O1R 0.0362 0.0495 0.0409 0.0138 0.0062 0.025
O1FA 0.0357 0.0495 0.0409 0.0138 0.0076 0.0245
O1D 0.0362 0.0495 0.0409 0.0138 0.0062 0.025
O1P 0.0357 0.0495 0.0409 0.0138 0.0076 0.0245
O2N 0.0434 0.0488 0.0345 0.0096 0.0065 0.0274
O2HA 0.0434 0.0488 0.0345 0.0096 0.0065 0.0274
O2Z 0.0374 0.0488 0.0345 0.0096 0.0031 0.0214
O2R 0.0374 0.0488 0.0345 0.0096 0.0031 0.0214
O2FA 0.0434 0.0488 0.0345 0.0096 0.0065 0.0274
O2IA 0.0374 0.0434 0.0345 -0.0065 0.0031 0.016
O2S 0.0488 0.0434 0.0345 -0.0065 -0.0096 0.0274
O2E 0.0488 0.0434 0.0345 -0.0065 -0.0096 0.0274
O2O 0.0374 0.0434 0.0345 -0.0065 0.0031 0.016
O2A 0.0488 0.0434 0.0345 -0.0065 -0.0096 0.0274
O2Q 0.0374 0.0434 0.0345 -0.0065 0.0031 0.016
O3HA 0.0371 0.0371 0.026 0 0 0.0185
O3FA 0.0371 0.0371 0.026 0 0 0.0185
O3C 0.0371 0.0371 0.026 0 0 0.0185
O3G 0.0371 0.0371 0.026 0 0 0.0185
Fe1HA 0.0367 0.0343 0.0204 0.0012 0.00062 0.01717
Fe1R 0.0367 0.0343 0.0204 0.0012 0.00062 0.01717
Fe1J 0.03666 0.0343 0.0204 0.0012 0.00058 0.01713
Fe1H 0.03666 0.0343 0.0204 0.0012 0.00058 0.01713
Fe1GA 0.03666 0.0367 0.0204 -0.00062 0.00058 0.01953
Fe1A 0.0343 0.03666 0.0204 -0.00058 -0.0012 0.01713
Fe1B 0.03666 0.0367 0.0204 -0.00062 0.00058 0.01953
Fe1DA 0.0343 0.03666 0.0204 -0.00058 -0.0012 0.01713
Fe1F 0.0367 0.03666 0.0204 -0.00058 0.00062 0.01953
Fe1G 0.0343 0.0367 0.0204 -0.00062 -0.0012 0.01717
Fe1EA 0.03666 0.0367 0.0204 -0.00062 0.00058 0.01953
loop_
_geom_bond_atom_site_label_1
_geom_bond_atom_site_label_2
_geom_bond_site_symmetry_1
_geom_bond_site_symmetry_2
N1 C1 1_555 1_555
C1 H1 1_555 1_555
C2 C1 1_555 1_555
C3 C2 1_555 1_555
H2 C3 1_555 1_555
C4 O1 1_555 1_555
O1 Fe1R 1_555 1_555
O2 C4 1_555 1_555
C5 C2 1_555 1_555
C6 C5 1_555 1_555
H3 C6 1_555 1_555
C7 C6 1_555 1_555
H4 C7 1_555 1_555
C8 C4 1_555 1_555
C9 C8 1_555 1_555
H5 C9 1_555 1_555
C10 C5 1_555 1_555
H6 C10 1_555 1_555
O3 Fe1 1_555 1_555
Fe1 N1 1_555 1_555
N1HA C1HA 1_555 1_555
N1R C1R 1_555 1_555
C1N N1 1_555 1_555
C1HA H1HA 1_555 1_555
C1Z N1HA 1_555 1_555
C1R H1R 1_555 1_555
C1FA N1R 1_555 1_555
H1N C1N 1_555 1_555
H1Z C1Z 1_555 1_555
H1FA C1FA 1_555 1_555
C2N C3 1_555 1_555
C2HA C1HA 1_555 1_555
C2Z C1Z 1_555 1_555
C2R C1R 1_555 1_555
C2FA C1FA 1_555 1_555
C3HA C2HA 1_555 1_555
C3R C2R 1_555 1_555
H2HA C3HA 1_555 1_555
H2R C3R 1_555 1_555
C4N O1N 1_555 1_555
C4HA O1HA 1_555 1_555
C4Z O1Z 1_555 1_555
C4R O1R 1_555 1_555
C4FA O1FA 1_555 1_555
O1N Fe1HA 1_555 1_555
O1HA Fe1 1_555 1_555
O1Z Fe1J 1_555 1_555
O1R Fe1 1_555 1_555
O1FA Fe1H 1_555 1_555
O1D Fe1HA 1_555 1_555
O1P Fe1R 1_555 1_555
O2N C4N 1_555 1_555
O2HA C4HA 1_555 1_555
O2Z C4Z 1_555 1_555
O2R C4R 1_555 1_555
O2FA C4FA 1_555 1_555
O2IA Fe1 1_555 1_555
O2S Fe1 1_555 1_555
O2E Fe1HA 1_555 1_555
O2O Fe1HA 1_555 1_555
O2A Fe1R 1_555 1_555
O2Q Fe1R 1_555 1_555
C5N C2N 1_555 1_555
C5HA C2HA 1_555 1_555
C5Z C2Z 1_555 1_555
C5R C2R 1_555 1_555
C5FA C2FA 1_555 1_555
C6N C5N 1_555 1_555
C6HA C5HA 1_555 1_555
C6Z C5Z 1_555 1_555
C6R C5R 1_555 1_555
C6FA C5FA 1_555 1_555
H3N C6N 1_555 1_555
H3HA C6HA 1_555 1_555
H3Z C6Z 1_555 1_555
H3R C6R 1_555 1_555
H3FA C6FA 1_555 1_555
C7N C6N 1_555 1_555
C7HA C6HA 1_555 1_555
C7Z C6Z 1_555 1_555
C7R C6R 1_555 1_555
C7FA C6FA 1_555 1_555
H4N C7N 1_555 1_555
H4HA C7HA 1_555 1_555
H4Z C7Z 1_555 1_555
H4R C7R 1_555 1_555
H4FA C7FA 1_555 1_555
C8N C4N 1_555 1_555
C8HA C4HA 1_555 1_555
C8Z C4Z 1_555 1_555
C8R C4R 1_555 1_555
C8FA C4FA 1_555 1_555
C9N C8N 1_555 1_555
C9HA C8HA 1_555 1_555
C9Z C8Z 1_555 1_555
C9R C8R 1_555 1_555
C9FA C8FA 1_555 1_555
H5N C9N 1_555 1_555
H5HA C9HA 1_555 1_555
H5Z C9Z 1_555 1_555
H5R C9R 1_555 1_555
H5FA C9FA 1_555 1_555
C10N C5N 1_555 1_555
C10HA C5HA 1_555 1_555
C10Z C5Z 1_555 1_555
C10R C5R 1_555 1_555
C10FA C5FA 1_555 1_555
H6N C10N 1_555 1_555
H6HA C10HA 1_555 1_555
H6Z C10Z 1_555 1_555
H6R C10R 1_555 1_555
H6FA C10FA 1_555 1_555
O3HA Fe1HA 1_555 1_555
O3FA Fe1R 1_555 1_555
O3C Fe1J 1_555 1_555
O3G Fe1H 1_555 1_555
Fe1HA N1HA 1_555 1_555
Fe1R N1R 1_555 1_555
Fe1GA O2 1_555 1_555
Fe1A O3 1_555 1_555
Fe1B O3 1_555 1_555
Fe1DA O2N 1_555 1_555
Fe1F O2Z 1_555 1_555
Fe1G O2FA 1_555 1_555
Fe1EA O3HA 1_555 1_555
C7 C8 1_555 1_555
C9 C10 1_555 1_555
C1N C2N 1_555 1_555
C2Z C3HA 1_555 1_555
C2FA C3R 1_555 1_555
O2HA Fe1A 1_555 1_555
O2R Fe1B 1_555 1_555
C7N C8N 1_555 1_555
C7HA C8HA 1_555 1_555
C7Z C8Z 1_555 1_555
C7R C8R 1_555 1_555
C7FA C8FA 1_555 1_555
C9N C10N 1_555 1_555
C9HA C10HA 1_555 1_555
C9Z C10Z 1_555 1_555
C9R C10R 1_555 1_555
C9FA C10FA 1_555 1_555
O3HA Fe1DA 1_555 1_555
O3FA Fe1GA 1_555 1_555
O3C Fe1F 1_555 1_555
O3G Fe1G 1_555 1_555

#END
