
#######################################################################
#
#                 Cambridge Crystallographic Data Centre
#                                CCDC 
#
#######################################################################
#
# If this CIF has been generated from an entry in the Cambridge 
# Structural Database, then it will include bibliographic, chemical, 
# crystal, experimental, refinement or atomic coordinate data resulting 
# from the CCDC's data processing and validation procedures.
#
#######################################################################

data_EXIJEC
_chemical_formula_moiety         '(C39 H23 Eu1 N2 O6)n'
_symmetry_cell_setting           monoclinic
_symmetry_space_group_name_H-M   'C 2/c'
_symmetry_Int_Tables_number      15
_space_group_name_Hall           '-C 2yc'
loop_
_symmetry_equiv_pos_site_id
_symmetry_equiv_pos_as_xyz
1 x,y,z
2 -x,y,1/2-z
3 1/2+x,1/2+y,z
4 1/2-x,1/2+y,1/2-z
5 -x,-y,-z
6 x,-y,1/2+z
7 1/2-x,1/2-y,-z
8 1/2+x,1/2-y,1/2+z
_cell_length_a                   22.5688(18)
_cell_length_b                   25.648(2)
_cell_length_c                   21.2994(18)
_cell_angle_alpha                90
_cell_angle_beta                 112.113(9)
_cell_angle_gamma                90
_cell_volume                     11422.2
loop_
_atom_site_label
_atom_site_type_symbol
_atom_site_fract_x
_atom_site_fract_y
_atom_site_fract_z
Eu1 Eu 0.15307(2) 0.23694(3) 0.44525(2)
O1 O -0.1809(3) 0.2619(3) 0.9404(3)
O2 O 0.0774(3) 0.3048(3) 0.4414(3)
O3 O 0.0560(3) 0.2231(3) 0.4670(4)
O4 O -0.2783(3) 0.2923(3) 0.8928(3)
O5 O -0.3156(4) 0.6596(3) 0.5043(3)
O6 O -0.2116(3) 0.6916(3) 0.5481(4)
C1 C -0.2505(5) 0.3269(5) 0.7863(5)
H1 H -0.2914 0.3305 0.7868
C2 C 0.0061(5) 0.2954(6) 0.5013(5)
C3 C 0.0496(5) 0.2719(6) 0.4672(5)
C4 C 0.0078(5) 0.3491(6) 0.5093(6)
H2 H 0.0344 0.3692 0.4947
C5 C -0.2516(6) 0.6536(6) 0.5377(6)
C6 C -0.1747(5) 0.3433(5) 0.7338(5)
C7 C -0.2068(4) 0.3014(6) 0.8366(5)
C8 C -0.2379(5) 0.3483(5) 0.7333(5)
C9 C -0.0663(5) 0.2904(6) 0.5572(5)
H3 H -0.0912 0.2701 0.5740
N1 N 0.0995(4) 0.2632(7) 0.3199(5)
C10 C -0.1486(5) 0.2952(5) 0.8345(5)
H4 H -0.1182 0.2752 0.8677
C11 C 0.0780(6) 0.1322(9) 0.2458(8)
C12 C -0.1606(5) 0.3659(6) 0.6765(6)
C13 C -0.0298(4) 0.2663(5) 0.5255(5)
H5 H -0.0303 0.2302 0.5211
C14 C -0.1328(5) 0.3181(5) 0.7834(5)
H6 H -0.0911 0.3153 0.7851
C15 C -0.2246(5) 0.2865(5) 0.8920(5)
C16 C 0.0886(5) 0.1688(7) 0.2986(7)
C17 C 0.0791(5) 0.2293(7) 0.2059(8)
C18 C -0.1082(5) 0.3701(6) 0.5954(6)
C19 C -0.1689(5) 0.5858(5) 0.5640(6)
H7 H -0.1420 0.6113 0.5585
N2 N 0.1008(4) 0.1666(5) 0.3643(5)
C20 C -0.0662(6) 0.3434(5) 0.5641(7)
C21 C -0.2549(6) 0.5128(5) 0.5786(6)
H8 H -0.2835 0.4889 0.5841
C22 C -0.1859(5) 0.4175(6) 0.6529(6)
H9 H -0.2135 0.4335 0.6701
C23 C -0.1220(5) 0.3407(5) 0.6483(5)
H10 H -0.1058 0.3075 0.6618
C24 C -0.1689(5) 0.4430(6) 0.6048(6)
C25 C -0.0306(5) 0.3731(5) 0.5393(6)
H11 H -0.0317 0.4093 0.5421
C26 C -0.2720(5) 0.5630(5) 0.5617(6)
H12 H -0.3134 0.5737 0.5548
C27 C -0.2299(6) 0.5980(5) 0.5545(6)
C28 C 0.0907(5) 0.2218(9) 0.2775(6)
C29 C 0.0887(6) 0.0664(8) 0.3423(8)
H13 H 0.0896 0.0329 0.3594
C30 C 0.0970(6) 0.1180(8) 0.3846(8)
H14 H 0.0995 0.1141 0.4290
C31 C 0.0947(6) 0.3122(7) 0.2974(9)
H15 H 0.0987 0.3385 0.3288
C32 C 0.0707(6) 0.2801(7) 0.1840(7)
H16 H 0.0558 0.2858 0.1375
C33 C 0.0838(6) 0.3281(7) 0.2296(7)
H17 H 0.0845 0.3623 0.2154
C34 C 0.0693(8) 0.1389(8) 0.1773(10)
H18 H 0.0616 0.1115 0.1466
C35 C 0.0794(7) 0.0785(9) 0.2733(12)
H19 H 0.0738 0.0507 0.2435
C36 C -0.1328(5) 0.4188(6) 0.5737(6)
H20 H -0.1252 0.4351 0.5385
C37 C -0.1894(6) 0.4976(6) 0.5879(6)
C38 C -0.1465(6) 0.5362(6) 0.5816(7)
H21 H -0.1042 0.5279 0.5893
C39 C 0.0731(9) 0.1893(10) 0.1606(11)
H22 H 0.0717 0.1972 0.1174
Eu1A Eu -0.15307(2) 0.23694(3) 1.05475(2)
Eu1B Eu -0.34693(2) 0.73694(3) 0.44525(2)
Eu1D Eu -0.15307(2) 0.76306(3) 0.55475(2)
Eu1G Eu -0.34693(2) 0.26306(3) 0.94525(2)
O1A O 0.1809(3) 0.2619(3) 0.5596(3)
O4G O 0.2217(3) 0.2077(3) 0.3928(3)
O5B O 0.1844(4) 0.1596(3) 0.5043(3)
O6D O 0.2116(3) 0.3084(3) 0.4519(4)
loop_
_geom_bond_atom_site_label_1
_geom_bond_atom_site_label_2
_geom_bond_site_symmetry_1
_geom_bond_site_symmetry_2
Eu1 O2 1_555 1_555
O1 C15 1_555 1_555
O2 C3 1_555 1_555
O3 Eu1 1_555 1_555
O4 C15 1_555 1_555
O5 C5 1_555 1_555
O6 C5 1_555 1_555
C1 H1 1_555 1_555
C2 C3 1_555 1_555
C3 O3 1_555 1_555
C4 C2 1_555 1_555
H2 C4 1_555 1_555
C5 C27 1_555 1_555
C6 C8 1_555 1_555
C7 C1 1_555 1_555
C8 C1 1_555 1_555
C9 H3 1_555 1_555
N1 Eu1 1_555 1_555
C10 C7 1_555 1_555
H4 C10 1_555 1_555
C11 C16 1_555 1_555
C12 C6 1_555 1_555
C13 C2 1_555 1_555
H5 C13 1_555 1_555
C14 C6 1_555 1_555
H6 C14 1_555 1_555
C15 C7 1_555 1_555
C16 N2 1_555 1_555
C17 C28 1_555 1_555
C18 C20 1_555 1_555
C19 H7 1_555 1_555
N2 Eu1 1_555 1_555
C20 C9 1_555 1_555
C21 H8 1_555 1_555
C22 C12 1_555 1_555
H9 C22 1_555 1_555
C23 C12 1_555 1_555
H10 C23 1_555 1_555
C24 C22 1_555 1_555
C25 C4 1_555 1_555
H11 C25 1_555 1_555
C26 C21 1_555 1_555
H12 C26 1_555 1_555
C27 C19 1_555 1_555
C28 N1 1_555 1_555
C29 H13 1_555 1_555
C30 N2 1_555 1_555
H14 C30 1_555 1_555
C31 N1 1_555 1_555
H15 C31 1_555 1_555
C32 C17 1_555 1_555
H16 C32 1_555 1_555
C33 C31 1_555 1_555
H17 C33 1_555 1_555
C34 C11 1_555 1_555
H18 C34 1_555 1_555
C35 C11 1_555 1_555
H19 C35 1_555 1_555
C36 C18 1_555 1_555
H20 C36 1_555 1_555
C37 C21 1_555 1_555
C38 C19 1_555 1_555
H21 C38 1_555 1_555
C39 C17 1_555 1_555
H22 C39 1_555 1_555
Eu1A O1 1_555 1_555
Eu1B O5 1_555 1_555
Eu1D O6 1_555 1_555
Eu1G O4 1_555 1_555
O1A Eu1 1_555 1_555
O4G Eu1 1_555 1_555
O5B Eu1 1_555 1_555
O6D Eu1 1_555 1_555
C9 C13 1_555 1_555
C10 C14 1_555 1_555
C16 C28 1_555 1_555
C18 C23 1_555 1_555
C20 C25 1_555 1_555
C24 C36 1_555 1_555
C24 C37 1_555 1_555
C26 C27 1_555 1_555
C29 C30 1_555 1_555
C29 C35 1_555 1_555
C32 C33 1_555 1_555
C34 C39 1_555 1_555
C37 C38 1_555 1_555

#END
