
#######################################################################
#
#                 Cambridge Crystallographic Data Centre
#                                CCDC 
#
#######################################################################
#
# If this CIF has been generated from an entry in the Cambridge 
# Structural Database, then it will include bibliographic, chemical, 
# crystal, experimental, refinement or atomic coordinate data resulting 
# from the CCDC's data processing and validation procedures.
#
#######################################################################

data_BEXSOO
_chemical_formula_moiety         'C38 H34 Cd14 N6 O25'
_symmetry_cell_setting           monoclinic
_symmetry_space_group_name_H-M   'C 2/c'
_symmetry_Int_Tables_number      15
_space_group_name_Hall           '-C 2yc'
loop_
_symmetry_equiv_pos_site_id
_symmetry_equiv_pos_as_xyz
1 x,y,z
2 -x,y,1/2-z
3 1/2+x,1/2+y,z
4 1/2-x,1/2+y,1/2-z
5 -x,-y,-z
6 x,-y,1/2+z
7 1/2-x,1/2-y,-z
8 1/2+x,1/2-y,1/2+z
_cell_length_a                   27.6223(7)
_cell_length_b                   10.1486(2)
_cell_length_c                   16.6182(5)
_cell_angle_alpha                90
_cell_angle_beta                 94.7940(10)
_cell_angle_gamma                90
_cell_volume                     4642.24
loop_
_atom_site_label
_atom_site_type_symbol
_atom_site_fract_x
_atom_site_fract_y
_atom_site_fract_z
Cd1 Cd 0.5000 -0.17564(2) 0.2500
Cd2 Cd 0.418210(6) -0.420822(17) 0.156393(11)
O1 O 0.43150(7) -0.15504(18) 0.15887(12)
O2 O 0.36228(7) -0.26266(17) 0.16700(13)
C1 C 0.38657(10) -0.1579(2) 0.16767(17)
C2 C 0.35930(9) -0.0306(2) 0.17786(17)
C3 C 0.38324(10) 0.0895(2) 0.17896(18)
H1 H 0.4173 0.0925 0.1744
C4 C 0.35716(10) 0.2068(2) 0.18680(17)
C5 C 0.38098(10) 0.3390(3) 0.18546(18)
O3 O 0.35442(7) 0.43965(17) 0.18576(14)
O4 O 0.42635(7) 0.34775(19) 0.18106(15)
C6 C 0.30692(10) 0.2009(2) 0.19102(17)
H2 H 0.2890 0.2801 0.1952
C7 C 0.28272(10) 0.0799(2) 0.18914(17)
C8 C 0.30926(9) -0.0351(2) 0.18350(17)
H3 H 0.2932 -0.1178 0.1835
C9 C 0.22824(10) 0.0749(3) 0.18679(18)
H4 H 0.2177 0.0104 0.2265
H5 H 0.2149 0.1625 0.1990
O5 O 0.21215(7) 0.0350(2) 0.10573(13)
C10 C 0.16358(10) 0.0269(3) 0.08580(18)
C11 C 0.12782(10) 0.0640(2) 0.13458(17)
H6 H 0.1358 0.0988 0.1871
C12 C 0.07959(9) 0.0488(3) 0.10414(17)
C13 C 0.03797(9) 0.0937(2) 0.15087(16)
O6 O -0.00381(6) 0.07543(18) 0.12000(12)
O7 O 0.04925(6) 0.15254(16) 0.21676(11)
C14 C 0.06931(10) -0.0016(3) 0.02743(18)
H7 H 0.0363 -0.0131 0.0078
N1 N 0.10411(8) -0.0349(2) -0.02056(14)
C15 C 0.15020(10) -0.0203(3) 0.00833(18)
H8 H 0.1751 -0.0430 -0.0253
O8 O 0.53255(11) -0.0338(3) 0.1705(2)
C16 C 0.4984(3) 0.0946(7) -0.0257(4)
H9 H 0.5351 0.0915 -0.0214
H10 H 0.4874 0.1809 -0.0354
H11 H 0.4881 0.0581 0.0251
N2 N 0.5156(2) 0.1211(6) 0.0828(4)
C17 C 0.4950(3) 0.1877(9) 0.0093(6)
H12 H 0.4890 0.1198 -0.0377
H13 H 0.5186 0.2522 -0.0149
H14 H 0.4649 0.2329 0.0128
C18 C 0.5344(3) 0.2157(7) 0.1474(4)
H15 H 0.5351 0.1724 0.2002
H16 H 0.5130 0.2929 0.1469
H17 H 0.5673 0.2437 0.1374
C19 C 0.5184(3) -0.0050(6) 0.0942(4)
O8D O 0.46745(11) 0.0338(3) -0.1705(2)
C16D C 0.5016(3) -0.0946(7) 0.0257(4)
H9D H 0.4649 -0.0915 0.0214
H10D H 0.5126 -0.1809 0.0354
H11D H 0.5119 -0.0581 -0.0251
N2D N 0.4844(2) -0.1211(6) -0.0828(4)
C17D C 0.5050(3) -0.1877(9) -0.0093(6)
H12D H 0.5110 -0.1198 0.0377
H13D H 0.4814 -0.2522 0.0149
H14D H 0.5351 -0.2329 -0.0128
C18D C 0.4656(3) -0.2157(7) -0.1474(4)
H15D H 0.4649 -0.1724 -0.2002
H16D H 0.4870 -0.2929 -0.1469
H17D H 0.4327 -0.2437 -0.1374
C19D C 0.4816(3) 0.0050(6) -0.0942(4)
Cd2A Cd 0.581790(6) -0.420822(17) 0.343607(11)
O1A O 0.56850(7) -0.15504(18) 0.34113(12)
O2A O 0.63772(7) -0.26266(17) 0.33300(13)
C1A C 0.61343(10) -0.1579(2) 0.33233(17)
C2A C 0.64070(9) -0.0306(2) 0.32214(17)
C3A C 0.61676(10) 0.0895(2) 0.32104(18)
H1A H 0.5827 0.0925 0.3256
C4A C 0.64284(10) 0.2068(2) 0.31320(17)
C5A C 0.61902(10) 0.3390(3) 0.31454(18)
O3A O 0.64558(7) 0.43965(17) 0.31424(14)
O4A O 0.57365(7) 0.34775(19) 0.31894(15)
C6A C 0.69308(10) 0.2009(2) 0.30898(17)
H2A H 0.7110 0.2801 0.3048
C7A C 0.71728(10) 0.0799(2) 0.31086(17)
C8A C 0.69074(9) -0.0351(2) 0.31650(17)
H3A H 0.7068 -0.1178 0.3165
C9A C 0.77176(10) 0.0749(3) 0.31321(18)
H4A H 0.7823 0.0104 0.2735
H5A H 0.7851 0.1625 0.3010
O5A O 0.78785(7) 0.0350(2) 0.39427(13)
C10A C 0.83642(10) 0.0269(3) 0.41420(18)
C11A C 0.87218(10) 0.0640(2) 0.36542(17)
H6A H 0.8642 0.0988 0.3129
C12A C 0.92041(9) 0.0488(3) 0.39586(17)
C13A C 0.96203(9) 0.0937(2) 0.34913(16)
O6A O 1.00381(6) 0.07543(18) 0.38000(12)
O7A O 0.95075(6) 0.15254(16) 0.28324(11)
C14A C 0.93069(10) -0.0016(3) 0.47257(18)
H7A H 0.9637 -0.0131 0.4922
N1A N 0.89589(8) -0.0349(2) 0.52056(14)
C15A C 0.84980(10) -0.0203(3) 0.49167(18)
H8A H 0.8249 -0.0430 0.5253
Cd1B Cd 0.0000 0.32436(2) 0.2500
Cd1B_2 Cd 1.0000 0.32436(2) 0.2500
Cd1D Cd 0.5000 0.17564(2) -0.2500
Cd2_2 Cd 0.418210(6) 0.579178(17) 0.156393(11)
Cd2A_2 Cd 0.581790(6) 0.579178(17) 0.343607(11)
Cd2B Cd -0.081790(6) 0.079178(17) 0.156393(11)
Cd2B_2 Cd 0.918210(6) 0.079178(17) 0.156393(11)
Cd2C Cd 0.081790(6) 0.079178(17) 0.343607(11)
Cd2C_2 Cd 1.081790(6) 0.079178(17) 0.343607(11)
Cd2F Cd 0.081790(6) -0.079178(17) -0.156393(11)
Cd2G Cd 0.918210(6) -0.079178(17) 0.656393(11)
O3_2 O 0.35442(7) -0.56035(17) 0.18576(14)
O3A_2 O 0.64558(7) -0.56035(17) 0.31424(14)
O4_2 O 0.42635(7) -0.65225(19) 0.18106(15)
O4A_2 O 0.57365(7) -0.65225(19) 0.31894(15)
O6B O 0.49619(6) -0.42457(18) 0.12000(12)
O6C O 0.50381(6) -0.42457(18) 0.38000(12)
O7B O 0.54925(6) -0.34746(16) 0.21676(11)
O7C O 0.45075(6) -0.34746(16) 0.28324(11)
N1F N 0.39589(8) -0.4651(2) 0.02056(14)
N1G N 0.60411(8) -0.4651(2) 0.47944(14)
O8A O 0.46745(11) -0.0338(3) 0.3295(2)
loop_
_geom_bond_atom_site_label_1
_geom_bond_atom_site_label_2
_geom_bond_site_symmetry_1
_geom_bond_site_symmetry_2
Cd1 O1 1_555 1_555
Cd2 O1 1_555 1_555
O1 C1 1_555 1_555
O2 Cd2 1_555 1_555
C1 O2 1_555 1_555
C2 C1 1_555 1_555
C3 C2 1_555 1_555
H1 C3 1_555 1_555
C4 C3 1_555 1_555
C5 C4 1_555 1_555
O3 C5 1_555 1_555
O4 C5 1_555 1_555
C6 C4 1_555 1_555
H2 C6 1_555 1_555
C7 C6 1_555 1_555
C8 C2 1_555 1_555
H3 C8 1_555 1_555
C9 C7 1_555 1_555
H4 C9 1_555 1_555
H5 C9 1_555 1_555
O5 C9 1_555 1_555
C10 O5 1_555 1_555
C11 C10 1_555 1_555
H6 C11 1_555 1_555
C12 C11 1_555 1_555
C13 C12 1_555 1_555
O6 C13 1_555 1_555
O7 C13 1_555 1_555
C14 C12 1_555 1_555
H7 C14 1_555 1_555
N1 C14 1_555 1_555
C15 C10 1_555 1_555
H8 C15 1_555 1_555
O8 Cd1 1_555 1_555
C16 H9 1_555 1_555
H10 C16 1_555 1_555
H11 C16 1_555 1_555
N2 H11 1_555 1_555
C17 C16 1_555 1_555
H12 C17 1_555 1_555
H13 C17 1_555 1_555
H14 C17 1_555 1_555
C18 N2 1_555 1_555
H15 C18 1_555 1_555
H16 C18 1_555 1_555
H17 C18 1_555 1_555
C19 O8 1_555 1_555
O8D C19D 1_555 1_555
C16D C19 1_555 1_555
H9D C16D 1_555 1_555
H10D C16D 1_555 1_555
H11D C16D 1_555 1_555
N2D H11D 1_555 1_555
C17D C16D 1_555 1_555
H12D C17D 1_555 1_555
H13D C17D 1_555 1_555
H14D C17D 1_555 1_555
C18D N2D 1_555 1_555
H15D C18D 1_555 1_555
H16D C18D 1_555 1_555
H17D C18D 1_555 1_555
C19D C16 1_555 1_555
Cd2A O1A 1_555 1_555
O1A Cd1 1_555 1_555
O2A Cd2A 1_555 1_555
C1A O1A 1_555 1_555
C2A C1A 1_555 1_555
C3A C2A 1_555 1_555
H1A C3A 1_555 1_555
C4A C3A 1_555 1_555
C5A C4A 1_555 1_555
O3A C5A 1_555 1_555
O4A C5A 1_555 1_555
C6A C4A 1_555 1_555
H2A C6A 1_555 1_555
C7A C6A 1_555 1_555
C8A C2A 1_555 1_555
H3A C8A 1_555 1_555
C9A C7A 1_555 1_555
H4A C9A 1_555 1_555
H5A C9A 1_555 1_555
O5A C9A 1_555 1_555
C10A O5A 1_555 1_555
C11A C10A 1_555 1_555
H6A C11A 1_555 1_555
C12A C11A 1_555 1_555
C13A C12A 1_555 1_555
O6A C13A 1_555 1_555
O7A C13A 1_555 1_555
C14A C12A 1_555 1_555
H7A C14A 1_555 1_555
N1A C14A 1_555 1_555
C15A C10A 1_555 1_555
H8A C15A 1_555 1_555
Cd1B O7 1_555 1_555
Cd1B_2 O7A 1_555 1_555
Cd1D O8D 1_555 1_555
Cd2_2 O3 1_555 1_555
Cd2A_2 O3A 1_555 1_555
Cd2B O6 1_555 1_555
Cd2B_2 O7A 1_555 1_555
Cd2C O7 1_555 1_555
Cd2C_2 O6A 1_555 1_555
Cd2F N1 1_555 1_555
Cd2G N1A 1_555 1_555
O3_2 Cd2 1_555 1_555
O3A_2 Cd2A 1_555 1_555
O4_2 Cd2 1_555 1_555
O4A_2 Cd2A 1_555 1_555
O6B Cd2 1_555 1_555
O6C Cd2A 1_555 1_555
O7B Cd1 1_555 1_555
O7C Cd1 1_555 1_555
N1F Cd2 1_555 1_555
N1G Cd2A 1_555 1_555
O8A Cd1 1_555 1_555
Cd2 O7C 1_555 1_555
O4 Cd2_2 1_555 1_555
C7 C8 1_555 1_555
N1 C15 1_555 1_555
H10 C17 1_555 1_555
H11 C17 1_555 1_555
N2 C17 1_555 1_555
N2 C19 1_555 1_555
H10D C17D 1_555 1_555
H11D C17D 1_555 1_555
N2D C17D 1_555 1_555
N2D C19D 1_555 1_555
Cd2A O7B 1_555 1_555
O2A C1A 1_555 1_555
O4A Cd2A_2 1_555 1_555
C7A C8A 1_555 1_555
N1A C15A 1_555 1_555

#END
