
#######################################################################
#
#                 Cambridge Crystallographic Data Centre
#                                CCDC 
#
#######################################################################
#
# If this CIF has been generated from an entry in the Cambridge 
# Structural Database, then it will include bibliographic, chemical, 
# crystal, experimental, refinement or atomic coordinate data resulting 
# from the CCDC's data processing and validation procedures.
#
#######################################################################

data_KOTSIX
_chemical_formula_moiety         '(C110 H97 N9 O46 Zn6)n'
_symmetry_cell_setting           triclinic
_symmetry_space_group_name_H-M   'P -1'
_symmetry_Int_Tables_number      2
_space_group_name_Hall           '-P 1'
loop_
_symmetry_equiv_pos_site_id
_symmetry_equiv_pos_as_xyz
1 x,y,z
2 -x,-y,-z
_cell_length_a                   15.1690(9)
_cell_length_b                   15.4530(9)
_cell_length_c                   16.4504(8)
_cell_angle_alpha                67.469(2)
_cell_angle_beta                 80.559(2)
_cell_angle_gamma                61.982(7)
_cell_volume                     3143.72
loop_
_atom_site_label
_atom_site_type_symbol
_atom_site_fract_x
_atom_site_fract_y
_atom_site_fract_z
C1 C 0.3824(2) 0.6561(2) 0.5792(2)
C2 C 0.4665(2) 0.6379(2) 0.6219(2)
H1 H 0.4598 0.6435 0.6771
C3 C 0.5594(2) 0.6116(2) 0.5819(2)
H2 H 0.6139 0.5982 0.6119
C4 C 0.5733(2) 0.6045(2) 0.4977(2)
C5 C 0.4881(2) 0.6255(2) 0.4546(2)
H3 H 0.4944 0.6238 0.3979
C6 C 0.3942(2) 0.6488(2) 0.4949(2)
H4 H 0.3404 0.6592 0.4660
C7 C 0.8567(2) 0.4815(2) 0.4709(2)
H5 H 0.9137 0.4357 0.5064
C8 C 0.7613(2) 0.5056(2) 0.5107(2)
H6 H 0.7562 0.4759 0.5712
C9 C 0.6727(2) 0.5769(2) 0.4556(2)
C10 C 0.6872(3) 0.6116(2) 0.3647(2)
H7 H 0.6321 0.6528 0.3264
C11 C 0.7823(2) 0.5855(2) 0.3309(2)
H8 H 0.7888 0.6114 0.2702
C12 C 0.1942(2) 0.7445(2) 0.5732(2)
C13 C 0.1826(3) 0.8302(2) 0.5010(2)
H9 H 0.2346 0.8489 0.4838
C14 C 0.0918(2) 0.8913(2) 0.4514(2)
H10 H 0.0877 0.9455 0.3989
C15 C 0.0066(2) 0.8720(2) 0.4802(2)
C16 C 0.0211(3) 0.7821(2) 0.5559(2)
H11 H -0.0319 0.7654 0.5761
C17 C 0.1130(2) 0.7178(2) 0.6012(2)
H12 H 0.1212 0.6578 0.6495
C18 C -0.1930(2) 1.0397(2) 0.2958(2)
H13 H -0.1965 1.0681 0.2347
C19 C -0.1008(3) 0.9809(3) 0.3389(2)
H14 H -0.0433 0.9716 0.3058
C20 C -0.0915(2) 0.9352(2) 0.4304(2)
C21 C -0.1805(2) 0.9510(2) 0.4785(2)
H15 H -0.1778 0.9215 0.5396
C22 C -0.2724(3) 1.0113(2) 0.4338(2)
H16 H -0.3304 1.0212 0.4663
C23 C 0.2861(2) 0.6232(2) 0.7165(2)
C24 C 0.2165(2) 0.6811(3) 0.7689(2)
H17 H 0.1748 0.7523 0.7436
C25 C 0.2132(2) 0.6266(2) 0.8605(2)
H18 H 0.1668 0.6632 0.8944
C26 C 0.2759(2) 0.5210(2) 0.9017(2)
C27 C 0.3456(2) 0.4686(2) 0.8475(2)
H19 H 0.3896 0.3982 0.8730
C28 C 0.3507(2) 0.5202(2) 0.7544(2)
H20 H 0.3973 0.4837 0.7205
C29 C 0.3277(2) 0.3083(3) 1.1312(2)
H21 H 0.3607 0.2357 1.1566
C30 C 0.3240(3) 0.3583(3) 1.0385(2)
H22 H 0.3552 0.3177 1.0032
C31 C 0.2748(2) 0.4665(2) 0.9994(2)
C32 C 0.2262(3) 0.5254(3) 1.0545(2)
H23 H 0.1912 0.5980 1.0310
C33 C 0.2318(3) 0.4710(2) 1.1474(2)
H24 H 0.1992 0.5085 1.1848
C34 C 1.2574(2) 0.2484(2) 0.4980(2)
C35 C 1.2160(2) 0.2418(2) 0.5810(2)
H25 H 1.1486 0.2844 0.5853
C36 C 1.2744(2) 0.1718(2) 0.65884(19)
C37 C 1.3788(2) 0.1096(2) 0.6515(2)
C38 C 1.4187(2) 0.1124(2) 0.5683(2)
H26 H 1.4855 0.0677 0.5642
C39 C 1.3601(2) 0.1817(2) 0.4889(2)
C40 C 1.1913(2) 0.3368(2) 0.4201(2)
C41 C 1.2241(2) 0.1718(2) 0.7447(2)
C42 C 1.4063(3) 0.1697(2) 0.4038(2)
C43 C 1.0521(2) 0.3979(3) 0.0593(2)
H27 H 1.0858 0.3301 0.0987
C44 C 1.0003(2) 0.4812(2) 0.0913(2)
C45 C 0.9464(3) 0.5836(2) 0.0343(2)
C46 C 1.0088(2) 0.4552(2) 0.1883(2)
C47 C 0.8803(3) 0.6737(2) 0.0632(2)
C48 C 1.5829(2) 0.2886(2) 0.1306(2)
C49 C 1.5434(3) 0.3957(3) 0.0590(2)
C50 C 1.4781(2) 0.4787(2) 0.0893(2)
H28 H 1.4629 0.4642 0.1487
C51 C 1.4353(3) 0.5849(2) 0.0291(2)
C52 C 1.3805(3) 0.6654(3) 0.0718(2)
C53 C 1.4445(2) 0.0359(3) 0.7328(2)
N1 N 0.2875(2) 0.6781(2) 0.62361(18)
N2 N 0.8671(2) 0.5234(2) 0.38237(18)
N3 N -0.2807(2) 1.0563(2) 0.34406(18)
N4 N 0.2836(2) 0.3664(2) 1.18115(19)
H29 H 0.2882 0.3360 1.2374
O1 O 1.09851(17) 0.36601(17) 0.43118(15)
O2 O 1.22613(17) 0.38173(16) 0.35236(15)
O3 O 1.13073(17) 0.21654(16) 0.75086(14)
O4 O 1.28048(18) 0.11874(17) 0.81298(15)
O5 O 1.45515(17) -0.05527(19) 0.76422(15)
H30 H 1.4934 -0.0882 0.8094
O6 O 1.49595(17) 0.06574(17) 0.75795(15)
O7 O 1.49681(17) 0.15338(16) 0.39806(14)
O8 O 1.35647(17) 0.17696(17) 0.34654(16)
O9 O 0.99980(17) 0.52965(17) 0.20821(15)
O10 O 1.02634(17) 0.36799(18) 0.24381(16)
O11 O 0.80267(17) 0.67813(17) 0.10546(15)
O12 O 0.90426(17) 0.74718(17) 0.04158(15)
O13 O 1.53469(18) 0.27796(18) 0.20156(16)
O14 O 1.65930(17) 0.21231(17) 0.11642(15)
O15 O 1.42083(18) 0.65436(17) 0.13895(16)
O16 O 1.30260(18) 0.74335(18) 0.03462(16)
O17 O 1.02883(17) 0.61557(16) 0.33609(15)
H31 H 1.0282 0.6611 0.2766
H32 H 1.0916 0.5894 0.3641
O18 O 0.88875(18) 0.94882(18) 0.06447(16)
H33 H 0.8590 1.0135 0.0160
H34 H 0.9570 0.9094 0.0516
O19 O 0.71280(19) 0.96539(17) -0.01275(15)
H35 H 0.7272 0.9390 -0.0600
H36 H 0.6474 0.9748 0.0089
Zn1 Zn 1.01026(3) 0.49186(3) 0.33552(3)
Zn2 Zn 1.57707(3) 0.13374(3) 0.28983(3)
Zn3 Zn 0.81272(3) 0.86433(3) 0.08376(3)
C43A C 0.9479(2) 0.6021(3) -0.0593(2)
H27A H 0.9142 0.6699 -0.0987
C44A C 0.9997(2) 0.5188(2) -0.0913(2)
C45A C 1.0536(3) 0.4164(2) -0.0343(2)
C46A C 0.9912(2) 0.5448(2) -0.1883(2)
C47A C 1.1197(3) 0.3263(2) -0.0632(2)
O9A O 1.00020(17) 0.47035(17) -0.20821(15)
O10A O 0.97366(17) 0.63201(18) -0.24381(16)
O11A O 1.19733(17) 0.32187(17) -0.10546(15)
O12A O 1.09574(17) 0.25282(17) -0.04158(15)
C48A C 1.4171(2) 0.7114(2) -0.1306(2)
C49A C 1.4566(3) 0.6043(3) -0.0590(2)
C50A C 1.5219(2) 0.5213(2) -0.0893(2)
H28A H 1.5371 0.5358 -0.1487
C51A C 1.5647(3) 0.4151(2) -0.0291(2)
C52A C 1.6195(3) 0.3346(3) -0.0718(2)
O13A O 1.46531(18) 0.72204(18) -0.20156(16)
O14A O 1.34070(17) 0.78769(17) -0.11642(15)
O15A O 1.57917(18) 0.34564(17) -0.13895(16)
O16A O 1.69740(18) 0.25665(18) -0.03462(16)
C1A C 1.6176(2) 0.3439(2) -0.5792(2)
C2A C 1.5335(2) 0.3621(2) -0.6219(2)
H1A H 1.5402 0.3565 -0.6771
C3A C 1.4406(2) 0.3884(2) -0.5819(2)
H2A H 1.3861 0.4018 -0.6119
C4A C 1.4267(2) 0.3955(2) -0.4977(2)
C5A C 1.5119(2) 0.3745(2) -0.4546(2)
H3A H 1.5056 0.3762 -0.3979
C6A C 1.6058(2) 0.3512(2) -0.4949(2)
H4A H 1.6596 0.3408 -0.4660
C7A C 1.1433(2) 0.5185(2) -0.4709(2)
H5A H 1.0863 0.5643 -0.5064
C8A C 1.2387(2) 0.4944(2) -0.5107(2)
H6A H 1.2438 0.5241 -0.5712
C9A C 1.3273(2) 0.4231(2) -0.4556(2)
C10A C 1.3128(3) 0.3884(2) -0.3647(2)
H7A H 1.3679 0.3472 -0.3264
C11A C 1.2177(2) 0.4145(2) -0.3309(2)
H8A H 1.2112 0.3886 -0.2702
C12A C 1.8058(2) 0.2555(2) -0.5732(2)
C13A C 1.8174(3) 0.1698(2) -0.5010(2)
H9A H 1.7654 0.1511 -0.4838
C14A C 1.9082(2) 0.1087(2) -0.4514(2)
H10A H 1.9123 0.0545 -0.3989
C15A C 1.9934(2) 0.1280(2) -0.4802(2)
C16A C 1.9789(3) 0.2179(2) -0.5559(2)
H11A H 2.0319 0.2346 -0.5761
C17A C 1.8870(2) 0.2822(2) -0.6012(2)
H12A H 1.8788 0.3422 -0.6495
C18A C 2.1930(2) -0.0397(2) -0.2958(2)
H13A H 2.1965 -0.0681 -0.2347
C19A C 2.1008(3) 0.0191(3) -0.3389(2)
H14A H 2.0433 0.0284 -0.3058
C20A C 2.0915(2) 0.0648(2) -0.4304(2)
C21A C 2.1805(2) 0.0490(2) -0.4785(2)
H15A H 2.1778 0.0785 -0.5396
C22A C 2.2724(3) -0.0113(2) -0.4338(2)
H16A H 2.3304 -0.0212 -0.4663
C23A C 1.7139(2) 0.3768(2) -0.7165(2)
C24A C 1.7835(2) 0.3189(3) -0.7689(2)
H17A H 1.8252 0.2477 -0.7436
C25A C 1.7868(2) 0.3734(2) -0.8605(2)
H18A H 1.8332 0.3368 -0.8944
C26A C 1.7241(2) 0.4790(2) -0.9017(2)
C27A C 1.6544(2) 0.5314(2) -0.8475(2)
H19A H 1.6104 0.6018 -0.8730
C28A C 1.6493(2) 0.4798(2) -0.7544(2)
H20A H 1.6027 0.5163 -0.7205
C29A C 1.6723(2) 0.6917(3) -1.1312(2)
H21A H 1.6393 0.7643 -1.1566
C30A C 1.6760(3) 0.6417(3) -1.0385(2)
H22A H 1.6448 0.6823 -1.0032
C31A C 1.7252(2) 0.5335(2) -0.9994(2)
C32A C 1.7738(3) 0.4746(3) -1.0545(2)
H23A H 1.8088 0.4020 -1.0310
C33A C 1.7682(3) 0.5290(2) -1.1474(2)
H24A H 1.8008 0.4915 -1.1848
C34A C 0.7426(2) 0.7516(2) -0.4980(2)
C35A C 0.7840(2) 0.7582(2) -0.5810(2)
H25A H 0.8514 0.7156 -0.5853
C36A C 0.7256(2) 0.8282(2) -0.65884(19)
C37A C 0.6212(2) 0.8904(2) -0.6515(2)
C38A C 0.5813(2) 0.8876(2) -0.5683(2)
H26A H 0.5145 0.9323 -0.5642
C39A C 0.6399(2) 0.8183(2) -0.4889(2)
C40A C 0.8087(2) 0.6632(2) -0.4201(2)
C41A C 0.7759(2) 0.8282(2) -0.7447(2)
C42A C 0.5937(3) 0.8303(2) -0.4038(2)
C53A C 0.5555(2) 0.9641(3) -0.7328(2)
N1A N 1.7125(2) 0.3219(2) -0.62361(18)
N2A N 1.1329(2) 0.4766(2) -0.38237(18)
N3A N 2.2807(2) -0.0563(2) -0.34406(18)
N4A N 1.7164(2) 0.6336(2) -1.18115(19)
H29A H 1.7118 0.6640 -1.2374
O1A O 0.90149(17) 0.63399(17) -0.43118(15)
O2A O 0.77387(17) 0.61827(16) -0.35236(15)
O3A O 0.86927(17) 0.78346(16) -0.75086(14)
O4A O 0.71952(18) 0.88126(17) -0.81298(15)
O5A O 0.54485(17) 1.05527(19) -0.76422(15)
H30A H 0.5066 1.0882 -0.8094
O6A O 0.50405(17) 0.93426(17) -0.75795(15)
O7A O 0.50319(17) 0.84662(16) -0.39806(14)
O8A O 0.64353(17) 0.82304(17) -0.34654(16)
O17A O 0.97117(17) 0.38443(16) -0.33609(15)
H31A H 0.9718 0.3389 -0.2766
H32A H 0.9084 0.4106 -0.3641
O18A O 1.11125(18) 0.05118(18) -0.06447(16)
H33A H 1.1410 -0.0135 -0.0160
H34A H 1.0430 0.0906 -0.0516
O19A O 1.28720(19) 0.03461(17) 0.01275(15)
H35A H 1.2728 0.0610 0.0600
H36A H 1.3526 0.0252 -0.0089
Zn1A Zn 0.98974(3) 0.50814(3) -0.33552(3)
Zn2A Zn 0.42293(3) 0.86626(3) -0.28983(3)
Zn3A Zn 1.18728(3) 0.13567(3) -0.08376(3)
N3_2 N 1.7193(2) 0.0563(2) 0.34406(18)
N3A_2 N 0.2807(2) 0.9437(2) -0.34406(18)
O4_2 O 1.28048(18) 0.11874(17) -0.18702(15)
O4A_2 O 0.71952(18) 0.88126(17) 0.18702(15)
O5_2 O 0.45515(17) 0.94473(19) -0.23578(15)
O5A_2 O 1.54485(17) 0.05527(19) 0.23578(15)
O13A_2 O 0.46531(18) 0.72204(18) -0.20156(16)
Zn2_2 Zn -0.42293(3) 1.13374(3) 0.28983(3)
Zn2_3 Zn 0.57707(3) 1.13374(3) -0.71017(3)
Zn2A_2 Zn 1.42293(3) -0.13374(3) 0.71017(3)
Zn2A_3 Zn 1.42293(3) 0.86626(3) -0.28983(3)
Zn2A_4 Zn 2.42293(3) -0.13374(3) -0.28983(3)
Zn3_2 Zn 0.81272(3) 0.86433(3) -0.91624(3)
Zn3A_2 Zn 1.18728(3) 0.13567(3) 0.91624(3)
C54 C -0.0387(3) 0.1194(3) 0.1324(2)
H37 H -0.0315 0.1704 0.0791
H38 H -0.0964 0.1536 0.1629
H39 H -0.0464 0.0684 0.1185
N5 N 0.0516(3) 0.0667(3) 0.1893(3)
C55 C 0.0734(3) 0.1198(3) 0.2386(2)
H40 H 0.1086 0.0687 0.2927
H41 H 0.0117 0.1717 0.2514
H42 H 0.1136 0.1528 0.2030
C56 C 0.1222(3) -0.0399(3) 0.1988(2)
C57 C 0.2159(3) -0.0957(3) 0.2538(2)
H43 H 0.2338 -0.0453 0.2573
H44 H 0.2690 -0.1414 0.2274
H45 H 0.2047 -0.1362 0.3119
O20 O 0.1057(2) -0.08591(19) 0.15857(18)
O21 O 0.8450(3) 0.1360(3) 0.0475(3)
H46 H 0.7889(12) 0.162(4) 0.0704(16)
H47 H 0.849(2) 0.1741(17) -0.0039(11)
O22 O 0.0523(4) 0.7926(4) 0.0968(3)
H48 H 0.0646(15) 0.7541(14) 0.0582(12)
H49 H 0.0219(15) 0.7484(16) 0.1360(12)
O23 O 0.2034(3) 0.1773(3) 0.2736(3)
H50 H 0.219(2) 0.148(3) 0.3276(10)
H51 H 0.2356(17) 0.211(2) 0.2448(15)
O24 O 0.8163(4) 0.3341(4) 0.7343(3)
H52 H 0.8231(12) 0.3514(13) 0.7800(11)
H53 H 0.857(3) 0.2641(13) 0.762(2)
O25 O 0.6572(4) 0.9070(4) 0.8754(3)
H54 H 0.5927(10) 0.9533(19) 0.8822(13)
H55 H 0.6436(13) 0.9193(14) 0.8176(11)
O26 O 0.5571(4) 0.1068(4) 0.0423(3)
O27 O 0.5938(4) 0.8012(3) 0.1240(3)
H56 H 0.6326(19) 0.740(2) 0.157(3)
H57 H 0.6423(13) 0.816(2) 0.116(5)
loop_
_geom_bond_atom_site_label_1
_geom_bond_atom_site_label_2
_geom_bond_site_symmetry_1
_geom_bond_site_symmetry_2
C1 C2 1_555 1_555
C2 H1 1_555 1_555
C3 C2 1_555 1_555
H2 C3 1_555 1_555
C4 C3 1_555 1_555
C5 C4 1_555 1_555
H3 C5 1_555 1_555
C6 C1 1_555 1_555
H4 C6 1_555 1_555
C7 H5 1_555 1_555
C8 C7 1_555 1_555
H6 C8 1_555 1_555
C9 C4 1_555 1_555
C10 C9 1_555 1_555
H7 C10 1_555 1_555
C11 C10 1_555 1_555
H8 C11 1_555 1_555
C12 C13 1_555 1_555
C13 H9 1_555 1_555
C14 C13 1_555 1_555
H10 C14 1_555 1_555
C15 C14 1_555 1_555
C16 C15 1_555 1_555
H11 C16 1_555 1_555
C17 C12 1_555 1_555
H12 C17 1_555 1_555
C18 H13 1_555 1_555
C19 C18 1_555 1_555
H14 C19 1_555 1_555
C20 C15 1_555 1_555
C21 C20 1_555 1_555
H15 C21 1_555 1_555
C22 C21 1_555 1_555
H16 C22 1_555 1_555
C23 C24 1_555 1_555
C24 H17 1_555 1_555
C25 C24 1_555 1_555
H18 C25 1_555 1_555
C26 C25 1_555 1_555
C27 C26 1_555 1_555
H19 C27 1_555 1_555
C28 C23 1_555 1_555
H20 C28 1_555 1_555
C29 H21 1_555 1_555
C30 C29 1_555 1_555
H22 C30 1_555 1_555
C31 C26 1_555 1_555
C32 C31 1_555 1_555
H23 C32 1_555 1_555
C33 C32 1_555 1_555
H24 C33 1_555 1_555
C34 C35 1_555 1_555
C35 H25 1_555 1_555
C36 C35 1_555 1_555
C37 C36 1_555 1_555
C38 C37 1_555 1_555
H26 C38 1_555 1_555
C39 C34 1_555 1_555
C40 C34 1_555 1_555
C41 C36 1_555 1_555
C42 C39 1_555 1_555
C43 H27 1_555 1_555
C44 C43 1_555 1_555
C45 C44 1_555 1_555
C46 C44 1_555 1_555
C47 C45 1_555 1_555
C48 C49 1_555 1_555
C49 C50 1_555 1_555
C50 H28 1_555 1_555
C51 C50 1_555 1_555
C52 C51 1_555 1_555
C53 C37 1_555 1_555
N1 C1 1_555 1_555
N2 C7 1_555 1_555
N3 C18 1_555 1_555
N4 C29 1_555 1_555
H29 N4 1_555 1_555
O1 C40 1_555 1_555
O2 C40 1_555 1_555
O3 C41 1_555 1_555
O4 C41 1_555 1_555
O5 C53 1_555 1_555
H30 O5 1_555 1_555
O6 C53 1_555 1_555
O7 C42 1_555 1_555
O8 C42 1_555 1_555
O9 C46 1_555 1_555
O10 C46 1_555 1_555
O11 C47 1_555 1_555
O12 C47 1_555 1_555
O13 C48 1_555 1_555
O14 C48 1_555 1_555
O15 C52 1_555 1_555
O16 C52 1_555 1_555
O17 H31 1_555 1_555
H32 O17 1_555 1_555
O18 H33 1_555 1_555
H34 O18 1_555 1_555
O19 H35 1_555 1_555
H36 O19 1_555 1_555
Zn1 N2 1_555 1_555
Zn2 O7 1_555 1_555
Zn3 O12 1_555 1_555
C54 H37 1_555 1_555
H38 C54 1_555 1_555
H39 C54 1_555 1_555
N5 C54 1_555 1_555
C55 N5 1_555 1_555
H40 C55 1_555 1_555
H41 C55 1_555 1_555
H42 C55 1_555 1_555
C56 N5 1_555 1_555
C57 C56 1_555 1_555
H43 C57 1_555 1_555
H44 C57 1_555 1_555
H45 C57 1_555 1_555
O20 C56 1_555 1_555
O21 H46 1_555 1_555
H47 O21 1_555 1_555
O22 H48 1_555 1_555
H49 O22 1_555 1_555
O23 H50 1_555 1_555
H51 O23 1_555 1_555
O24 H52 1_555 1_555
H53 O24 1_555 1_555
O25 H54 1_555 1_555
H55 O25 1_555 1_555
O27 H56 1_555 1_555
H57 O27 1_555 1_555
C43A C45 1_555 1_555
H27A C43A 1_555 1_555
C44A C43A 1_555 1_555
C45A C43 1_555 1_555
C46A C44A 1_555 1_555
C47A C45A 1_555 1_555
O9A C46A 1_555 1_555
O10A C46A 1_555 1_555
O11A C47A 1_555 1_555
O12A C47A 1_555 1_555
C48A C49A 1_555 1_555
C49A C51 1_555 1_555
C50A C49A 1_555 1_555
H28A C50A 1_555 1_555
C51A C49 1_555 1_555
C52A C51A 1_555 1_555
O13A C48A 1_555 1_555
O14A C48A 1_555 1_555
O15A C52A 1_555 1_555
O16A C52A 1_555 1_555
C1A C2A 1_555 1_555
C2A H1A 1_555 1_555
C3A C2A 1_555 1_555
H2A C3A 1_555 1_555
C4A C3A 1_555 1_555
C5A C4A 1_555 1_555
H3A C5A 1_555 1_555
C6A C1A 1_555 1_555
H4A C6A 1_555 1_555
C7A H5A 1_555 1_555
C8A C7A 1_555 1_555
H6A C8A 1_555 1_555
C9A C4A 1_555 1_555
C10A C9A 1_555 1_555
H7A C10A 1_555 1_555
C11A C10A 1_555 1_555
H8A C11A 1_555 1_555
C12A C13A 1_555 1_555
C13A H9A 1_555 1_555
C14A C13A 1_555 1_555
H10A C14A 1_555 1_555
C15A C14A 1_555 1_555
C16A C15A 1_555 1_555
H11A C16A 1_555 1_555
C17A C12A 1_555 1_555
H12A C17A 1_555 1_555
C18A H13A 1_555 1_555
C19A C18A 1_555 1_555
H14A C19A 1_555 1_555
C20A C15A 1_555 1_555
C21A C20A 1_555 1_555
H15A C21A 1_555 1_555
C22A C21A 1_555 1_555
H16A C22A 1_555 1_555
C23A C24A 1_555 1_555
C24A H17A 1_555 1_555
C25A C24A 1_555 1_555
H18A C25A 1_555 1_555
C26A C25A 1_555 1_555
C27A C26A 1_555 1_555
H19A C27A 1_555 1_555
C28A C23A 1_555 1_555
H20A C28A 1_555 1_555
C29A H21A 1_555 1_555
C30A C29A 1_555 1_555
H22A C30A 1_555 1_555
C31A C26A 1_555 1_555
C32A C31A 1_555 1_555
H23A C32A 1_555 1_555
C33A C32A 1_555 1_555
H24A C33A 1_555 1_555
C34A C35A 1_555 1_555
C35A H25A 1_555 1_555
C36A C35A 1_555 1_555
C37A C36A 1_555 1_555
C38A C37A 1_555 1_555
H26A C38A 1_555 1_555
C39A C34A 1_555 1_555
C40A C34A 1_555 1_555
C41A C36A 1_555 1_555
C42A C39A 1_555 1_555
C53A C37A 1_555 1_555
N1A C1A 1_555 1_555
N2A C7A 1_555 1_555
N3A C18A 1_555 1_555
N4A C29A 1_555 1_555
H29A N4A 1_555 1_555
O1A C40A 1_555 1_555
O2A C40A 1_555 1_555
O3A C41A 1_555 1_555
O4A C41A 1_555 1_555
O5A C53A 1_555 1_555
H30A O5A 1_555 1_555
O6A C53A 1_555 1_555
O7A C42A 1_555 1_555
O8A C42A 1_555 1_555
O17A H31A 1_555 1_555
H32A O17A 1_555 1_555
O18A H33A 1_555 1_555
H34A O18A 1_555 1_555
O19A H35A 1_555 1_555
H36A O19A 1_555 1_555
Zn1A O9A 1_555 1_555
Zn2A O7A 1_555 1_555
Zn3A O12A 1_555 1_555
N3_2 Zn2 1_555 1_555
N3A_2 Zn2A 1_555 1_555
O4_2 Zn3A 1_555 1_555
O4A_2 Zn3 1_555 1_555
O5_2 Zn2A 1_555 1_555
O5A_2 Zn2 1_555 1_555
O13A_2 Zn2A 1_555 1_555
Zn2_2 N3 1_555 1_555
Zn2_3 O5A 1_555 1_555
Zn2A_2 O5 1_555 1_555
Zn2A_3 O13A 1_555 1_555
Zn2A_4 N3A 1_555 1_555
Zn3_2 O4A 1_555 1_555
Zn3A_2 O4 1_555 1_555
C5 C6 1_555 1_555
C8 C9 1_555 1_555
C11 N2 1_555 1_555
C12 N1 1_555 1_555
C16 C17 1_555 1_555
C19 C20 1_555 1_555
C22 N3 1_555 1_555
C23 N1 1_555 1_555
C27 C28 1_555 1_555
C30 C31 1_555 1_555
C33 N4 1_555 1_555
C38 C39 1_555 1_555
O1 Zn1 1_555 1_555
O9 Zn1 1_555 1_555
O13 Zn2 1_555 1_555
O17 Zn1 1_555 1_555
O18 Zn3 1_555 1_555
O19 Zn3 1_555 1_555
C44A C45A 1_555 1_555
C50A C51A 1_555 1_555
C5A C6A 1_555 1_555
C8A C9A 1_555 1_555
C11A N2A 1_555 1_555
C12A N1A 1_555 1_555
C16A C17A 1_555 1_555
C19A C20A 1_555 1_555
C22A N3A 1_555 1_555
C23A N1A 1_555 1_555
C27A C28A 1_555 1_555
C30A C31A 1_555 1_555
C33A N4A 1_555 1_555
C38A C39A 1_555 1_555
N2A Zn1A 1_555 1_555
O1A Zn1A 1_555 1_555
O17A Zn1A 1_555 1_555
O18A Zn3A 1_555 1_555
O19A Zn3A 1_555 1_555

#END
