
#######################################################################
#
#                 Cambridge Crystallographic Data Centre
#                                CCDC 
#
#######################################################################
#
# If this CIF has been generated from an entry in the Cambridge 
# Structural Database, then it will include bibliographic, chemical, 
# crystal, experimental, refinement or atomic coordinate data resulting 
# from the CCDC's data processing and validation procedures.
#
#######################################################################

data_BUVWOF02
_chemical_formula_moiety         '(C24 H16 Fe1 N10)n'
_symmetry_cell_setting           rhombohedral
_symmetry_space_group_name_H-M   'R -3'
_symmetry_Int_Tables_number      148
_space_group_name_Hall           '-R 3'
loop_
_symmetry_equiv_pos_site_id
_symmetry_equiv_pos_as_xyz
1 x,y,z
2 -y,x-y,z
3 -x+y,-x,z
4 2/3+x,1/3+y,1/3+z
5 2/3-y,1/3+x-y,1/3+z
6 2/3-x+y,1/3-x,1/3+z
7 1/3+x,2/3+y,2/3+z
8 1/3-y,2/3+x-y,2/3+z
9 1/3-x+y,2/3-x,2/3+z
10 -x,-y,-z
11 y,-x+y,-z
12 x-y,x,-z
13 1/3-x,2/3-y,2/3-z
14 1/3+y,2/3-x+y,2/3-z
15 1/3+x-y,2/3+x,2/3-z
16 2/3-x,1/3-y,1/3-z
17 2/3+y,1/3-x+y,1/3-z
18 2/3+x-y,1/3+x,1/3-z
_cell_length_a                   27.8061(17)
_cell_length_b                   27.8061(17)
_cell_length_c                   9.0879(9)
_cell_angle_alpha                90
_cell_angle_beta                 90
_cell_angle_gamma                120
_cell_volume                     6085.19
loop_
_atom_site_label
_atom_site_type_symbol
_atom_site_fract_x
_atom_site_fract_y
_atom_site_fract_z
_atom_site_U_iso_or_equiv
_atom_site_thermal_displace_type
Fe1 Fe 0.8333 0.1667 0.1667 0.0497 Uani
N1 N 0.84896(14) 0.11513(13) 0.0445(4) 0.0598 Uani
N2 N 0.86009(13) 0.21003(12) -0.0158(4) 0.0520 Uani
N3 N 0.86927(14) 0.26032(13) -0.0655(4) 0.0569 Uani
N4 N 0.90192(16) 0.22332(15) -0.2349(5) 0.0656 Uani
N5 N 0.96051(14) 0.42099(14) -0.4207(4) 0.0563 Uani
C1 C 0.8376(2) 0.06314(18) 0.0808(7) 0.0751 Uani
H1 H 0.8216 0.0484 0.1716 0.0900 Uiso
C2 C 0.8494(3) 0.0316(2) -0.0158(7) 0.0929 Uani
H2 H 0.8407 -0.0042 0.0102 0.1120 Uiso
C3 C 0.8737(3) 0.0530(2) -0.1488(8) 0.0913 Uani
H3 H 0.8831 0.0325 -0.2115 0.1100 Uiso
C4 C 0.8843(2) 0.1050(2) -0.1891(7) 0.0772 Uani
H4 H 0.8993 0.1197 -0.2808 0.0930 Uiso
C5 C 0.87186(17) 0.13511(16) -0.0891(5) 0.0584 Uani
C6 C 0.87937(16) 0.19021(15) -0.1182(5) 0.0572 Uani
C7 C 0.89476(16) 0.26612(16) -0.1955(5) 0.0577 Uani
C8 C 0.91495(16) 0.31790(15) -0.2803(5) 0.0557 Uani
C9 C 0.89882(19) 0.35643(17) -0.2449(6) 0.0690 Uani
H5 H 0.8724 0.3483 -0.1718 0.0820 Uiso
C10 C 0.92145(18) 0.40571(17) -0.3165(5) 0.0640 Uani
H6 H 0.9092 0.4303 -0.2920 0.0770 Uiso
C11 C 0.9749(2) 0.38338(18) -0.4587(6) 0.0744 Uani
H7 H 1.0008 0.3922 -0.5336 0.0890 Uiso
C12 C 0.9528(2) 0.33178(18) -0.3911(6) 0.0710 Uani
H8 H 0.9638 0.3068 -0.4213 0.0850 Uiso
Fe1E Fe 1.0001 0.5000 -0.5000 0.0497 Uani
Fe1H Fe 0.6667 -0.1666 0.8334 0.0497 Uani
N1O N 0.81771(14) 0.21820(13) 0.2888(4) 0.0598 Uani
N2O N 0.80658(13) 0.12330(12) 0.3491(4) 0.0520 Uani
N3O N 0.79740(14) 0.07301(13) 0.3988(4) 0.0569 Uani
N4O N 0.76475(16) 0.11001(15) 0.5682(5) 0.0656 Uani
N5O N 0.70616(14) -0.08766(14) 0.7540(4) 0.0563 Uani
N5G N 0.91234(14) 0.20619(20) 0.2460(4) 0.0563 Uani
N5M N 0.75432(14) 0.12715(20) 0.0874(4) 0.0563 Uani
C1O C 0.8291(2) 0.27019(18) 0.2525(7) 0.0751 Uani
H1O H 0.8451 0.2849 0.1617 0.0900 Uiso
C2O C 0.8173(3) 0.3017(2) 0.3491(7) 0.0929 Uani
H2O H 0.8260 0.3375 0.3231 0.1120 Uiso
C3O C 0.7930(3) 0.2803(2) 0.4821(8) 0.0913 Uani
H3O H 0.7836 0.3008 0.5448 0.1100 Uiso
C4O C 0.7824(2) 0.2283(2) 0.5224(7) 0.0772 Uani
H4O H 0.7674 0.2136 0.6141 0.0930 Uiso
C5O C 0.79481(17) 0.19822(16) 0.4224(5) 0.0584 Uani
C6O C 0.78730(16) 0.14312(15) 0.4515(5) 0.0572 Uani
C7O C 0.77191(16) 0.06721(16) 0.5288(5) 0.0577 Uani
C8O C 0.75172(16) 0.01543(15) 0.6136(5) 0.0557 Uani
C9O C 0.76785(19) -0.02310(17) 0.5782(6) 0.0690 Uani
H5O H 0.7943 -0.0150 0.5051 0.0820 Uiso
C10O C 0.74522(18) -0.07238(17) 0.6498(5) 0.0640 Uani
H6O H 0.7575 -0.0970 0.6253 0.0770 Uiso
C11O C 0.6918(2) -0.05005(18) 0.7920(6) 0.0744 Uani
H7O H 0.6659 -0.0589 0.8669 0.0890 Uiso
C12O C 0.7139(2) 0.00155(18) 0.7244(6) 0.0710 Uani
H8O H 0.7029 0.0265 0.7546 0.0850 Uiso
loop_
_atom_site_aniso_label
_atom_site_aniso_U_11
_atom_site_aniso_U_22
_atom_site_aniso_U_33
_atom_site_aniso_U_23
_atom_site_aniso_U_13
_atom_site_aniso_U_12
Fe1 0.0440(5) 0.0379(5) 0.0563(6) 0.0094(3) -0.0133(3) 0.0123(3)
N1 0.0569(19) 0.0376(15) 0.076(2) 0.0102(15) -0.0150(16) 0.0169(14)
N2 0.0491(16) 0.0449(16) 0.056(2) 0.0096(13) -0.0090(14) 0.0190(14)
N3 0.0560(18) 0.0456(17) 0.060(2) 0.0147(14) -0.0038(15) 0.0186(14)
N4 0.072(2) 0.0525(19) 0.068(2) 0.0129(16) 0.0026(17) 0.0280(18)
N5 0.0622(19) 0.0482(17) 0.064(2) 0.0131(15) 0.0187(16) 0.0318(16)
C1 0.082(3) 0.050(2) 0.092(4) 0.012(2) -0.001(3) 0.032(2)
C2 0.107(4) 0.054(3) 0.116(5) 0.013(3) 0.003(4) 0.039(3)
C3 0.099(4) 0.069(3) 0.114(5) -0.008(3) -0.007(4) 0.048(3)
C4 0.085(3) 0.070(3) 0.077(3) 0.007(2) 0.001(3) 0.039(3)
C5 0.056(2) 0.049(2) 0.068(3) 0.0085(18) -0.0071(18) 0.0247(17)
C6 0.049(2) 0.0437(19) 0.066(3) 0.0100(17) -0.0095(18) 0.0135(16)
C7 0.054(2) 0.049(2) 0.063(3) 0.0148(18) -0.0026(18) 0.0204(17)
C8 0.051(2) 0.046(2) 0.064(3) 0.0123(17) 0.0007(17) 0.0196(16)
C9 0.065(2) 0.054(2) 0.083(3) 0.017(2) 0.027(2) 0.026(2)
C10 0.067(3) 0.053(2) 0.076(3) 0.020(2) 0.028(2) 0.033(2)
C11 0.095(3) 0.063(3) 0.082(3) 0.024(2) 0.038(3) 0.052(3)
C12 0.086(3) 0.057(2) 0.081(3) 0.019(2) 0.021(2) 0.044(2)
Fe1E 0.0573 0.044 0.0563 0.0133 0.0227 0.0317
Fe1H 0.0573 0.044 0.0563 0.0133 0.0227 0.0317
N1O 0.0569 0.0376 0.076 0.0102 -0.015 0.0169
N2O 0.0491 0.0449 0.056 0.0096 -0.009 0.019
N3O 0.056 0.0456 0.06 0.0147 -0.0038 0.0186
N4O 0.072 0.0525 0.068 0.0129 0.0026 0.028
N5O 0.0622 0.0482 0.064 0.0131 0.0187 0.0318
N5G 0.0482 0.0468 0.064 0.0056 -0.0131 0.0164
N5M 0.0482 0.0468 0.064 0.0056 -0.0131 0.0164
C1O 0.082 0.05 0.092 0.012 -0.001 0.032
C2O 0.107 0.054 0.116 0.013 0.003 0.039
C3O 0.099 0.069 0.114 -0.008 -0.007 0.048
C4O 0.085 0.07 0.077 0.007 0.001 0.039
C5O 0.056 0.049 0.068 0.0085 -0.0071 0.0247
C6O 0.049 0.0437 0.066 0.01 -0.0095 0.0135
C7O 0.054 0.049 0.063 0.0148 -0.0026 0.0204
C8O 0.051 0.046 0.064 0.0123 0.0007 0.0196
C9O 0.065 0.054 0.083 0.017 0.027 0.026
C10O 0.067 0.053 0.076 0.02 0.028 0.033
C11O 0.095 0.063 0.082 0.024 0.038 0.052
C12O 0.086 0.057 0.081 0.019 0.021 0.044
loop_
_geom_bond_atom_site_label_1
_geom_bond_atom_site_label_2
_geom_bond_site_symmetry_1
_geom_bond_site_symmetry_2
Fe1 N1 1_555 1_555
N1 C1 1_555 1_555
N2 Fe1 1_555 1_555
N3 N2 1_555 1_555
N4 C6 1_555 1_555
N5 C10 1_555 1_555
C1 H1 1_555 1_555
C2 C1 1_555 1_555
H2 C2 1_555 1_555
C3 C2 1_555 1_555
H3 C3 1_555 1_555
C4 C3 1_555 1_555
H4 C4 1_555 1_555
C5 N1 1_555 1_555
C6 N2 1_555 1_555
C7 N3 1_555 1_555
C8 C7 1_555 1_555
C9 C8 1_555 1_555
H5 C9 1_555 1_555
C10 C9 1_555 1_555
H6 C10 1_555 1_555
C11 N5 1_555 1_555
H7 C11 1_555 1_555
C12 C8 1_555 1_555
H8 C12 1_555 1_555
Fe1E N5 1_555 1_555
Fe1H N5O 1_555 1_555
N1O Fe1 1_555 1_555
N2O Fe1 1_555 1_555
N3O N2O 1_555 1_555
N4O C6O 1_555 1_555
N5O C10O 1_555 1_555
N5G Fe1 1_555 1_555
N5M Fe1 1_555 1_555
C1O N1O 1_555 1_555
H1O C1O 1_555 1_555
C2O C1O 1_555 1_555
H2O C2O 1_555 1_555
C3O C2O 1_555 1_555
H3O C3O 1_555 1_555
C4O C3O 1_555 1_555
H4O C4O 1_555 1_555
C5O N1O 1_555 1_555
C6O N2O 1_555 1_555
C7O N3O 1_555 1_555
C8O C7O 1_555 1_555
C9O C8O 1_555 1_555
H5O C9O 1_555 1_555
C10O C9O 1_555 1_555
H6O C10O 1_555 1_555
C11O N5O 1_555 1_555
H7O C11O 1_555 1_555
C12O C8O 1_555 1_555
H8O C12O 1_555 1_555
N4 C7 1_555 1_555
C4 C5 1_555 1_555
C5 C6 1_555 1_555
C11 C12 1_555 1_555
N4O C7O 1_555 1_555
C4O C5O 1_555 1_555
C5O C6O 1_555 1_555
C11O C12O 1_555 1_555

#END
