
#######################################################################
#
#                 Cambridge Crystallographic Data Centre
#                                CCDC 
#
#######################################################################
#
# If this CIF has been generated from an entry in the Cambridge 
# Structural Database, then it will include bibliographic, chemical, 
# crystal, experimental, refinement or atomic coordinate data resulting 
# from the CCDC's data processing and validation procedures.
#
#######################################################################

data_BUVWOF03
_chemical_formula_moiety         '(C24 H16 Fe1 N10)n'
_symmetry_cell_setting           rhombohedral
_symmetry_space_group_name_H-M   'R -3 c'
_symmetry_Int_Tables_number      167
_space_group_name_Hall           '-R 3 2"c'
loop_
_symmetry_equiv_pos_site_id
_symmetry_equiv_pos_as_xyz
1 x,y,z
2 -y,x-y,z
3 -x+y,-x,z
4 y,x,1/2-z
5 x-y,-y,1/2-z
6 -x,-x+y,1/2-z
7 2/3+x,1/3+y,1/3+z
8 2/3-y,1/3+x-y,1/3+z
9 2/3-x+y,1/3-x,1/3+z
10 2/3+y,1/3+x,5/6-z
11 2/3+x-y,1/3-y,5/6-z
12 2/3-x,1/3-x+y,5/6-z
13 1/3+x,2/3+y,2/3+z
14 1/3-y,2/3+x-y,2/3+z
15 1/3-x+y,2/3-x,2/3+z
16 1/3+y,2/3+x,1/6-z
17 1/3+x-y,2/3-y,1/6-z
18 1/3-x,2/3-x+y,1/6-z
19 -x,-y,-z
20 y,-x+y,-z
21 x-y,x,-z
22 -y,-x,1/2+z
23 -x+y,y,1/2+z
24 x,x-y,1/2+z
25 1/3-x,2/3-y,2/3-z
26 1/3+y,2/3-x+y,2/3-z
27 1/3+x-y,2/3+x,2/3-z
28 1/3-y,2/3-x,1/6+z
29 1/3-x+y,2/3+y,1/6+z
30 1/3+x,2/3+x-y,1/6+z
31 2/3-x,1/3-y,1/3-z
32 2/3+y,1/3-x+y,1/3-z
33 2/3+x-y,1/3+x,1/3-z
34 2/3-y,1/3-x,5/6+z
35 2/3-x+y,1/3+y,5/6+z
36 2/3+x,1/3+x-y,5/6+z
_cell_length_a                   29.932(6)
_cell_length_b                   29.932(6)
_cell_length_c                   16.139(4)
_cell_angle_alpha                90
_cell_angle_beta                 90
_cell_angle_gamma                120
_cell_volume                     12522.1
loop_
_atom_site_label
_atom_site_type_symbol
_atom_site_fract_x
_atom_site_fract_y
_atom_site_fract_z
Fe1 Fe -0.0001 0.5000 0.0000
N1 N -0.04657(16) 0.52390(16) -0.0391(3)
N2 N -0.04671(15) 0.55808(16) -0.0935(3)
N3 N 0.1233(2) 0.48003(18) 0.0297(3)
N4 N 0.06315(16) 0.54465(16) -0.0708(3)
N5 N -0.13847(17) 0.63843(15) -0.2451(3)
C1 C 0.0937(2) 0.4986(2) 0.0015(4)
C2 C -0.0922(2) 0.5546(2) -0.0860(4)
C3 C 0.1041(2) 0.5376(2) -0.0591(4)
C4 C -0.1486(3) 0.4343(2) 0.1011(5)
H1 H -0.1758 0.4405 0.0930
C5 C -0.1543(3) 0.3966(3) 0.1555(5)
H2 H -0.1854 0.3764 0.1830
C6 C -0.1132(3) 0.3895(3) 0.1682(5)
H3 H -0.1157 0.3644 0.2050
C7 C -0.0684(2) 0.4196(2) 0.1263(4)
H4 H -0.0403 0.4152 0.1366
C8 C -0.1067(2) 0.5862(2) -0.1374(4)
C9 C -0.1499(3) 0.5886(3) -0.1249(5)
H5 H 0.1703 0.4273 0.0786
C10 C -0.1643(3) 0.6139(2) -0.1791(4)
H6 H 0.1950 0.3863 0.1683
C11 C 0.0948(3) 0.3623(2) 0.2547(4)
H7 H 0.0742 0.3450 0.3000
C12 C 0.0780(3) 0.3872(2) 0.2021(5)
H8 H 0.0465 0.3854 0.2118
Fe1N Fe -0.1666 0.6668 -0.3333
Fe1H Fe 0.1668 0.3334 0.3333
N1R N 0.04657(16) 0.47610(16) 0.0391(3)
N2R N 0.04671(15) 0.44192(16) 0.0935(3)
N3R N -0.1233(2) 0.51997(18) -0.0297(3)
N4R N -0.06315(16) 0.45535(16) 0.0708(3)
N5G N 0.02824(15) 0.55643(23) 0.0882(3)
N5Y N -0.02824(15) 0.44357(23) -0.0882(3)
N5R N 0.13847(17) 0.36157(15) 0.2451(3)
C1R C -0.0937(2) 0.5014(2) -0.0015(4)
C2R C 0.0922(2) 0.4454(2) 0.0860(4)
C3R C -0.1041(2) 0.4624(2) 0.0591(4)
C4R C 0.1486(3) 0.5657(2) -0.1011(5)
H1R H 0.1758 0.5595 -0.0930
C5R C 0.1543(3) 0.6034(3) -0.1555(5)
H2R H 0.1854 0.6236 -0.1830
C6R C 0.1132(3) 0.6105(3) -0.1682(5)
H3R H 0.1157 0.6356 -0.2050
C7R C 0.0684(2) 0.5804(2) -0.1263(4)
H4R H 0.0403 0.5848 -0.1366
C8R C 0.1067(2) 0.4138(2) 0.1374(4)
C9R C 0.1499(3) 0.4114(3) 0.1249(5)
H5R H -0.1703 0.5727 -0.0786
C10R C 0.1643(3) 0.3861(2) 0.1791(4)
H6R H -0.1950 0.6137 -0.1683
C11R C -0.0948(3) 0.6377(2) -0.2547(4)
H7R H -0.0742 0.6550 -0.3000
C12R C -0.0780(3) 0.6128(2) -0.2021(5)
H8R H -0.0465 0.6146 -0.2118
loop_
_geom_bond_atom_site_label_1
_geom_bond_atom_site_label_2
_geom_bond_site_symmetry_1
_geom_bond_site_symmetry_2
Fe1 N1 1_555 1_555
N1 N2 1_555 1_555
N2 C2 1_555 1_555
N3 C1 1_555 1_555
N4 Fe1 1_555 1_555
N5 C10 1_555 1_555
C1 C3 1_555 1_555
C2 C8 1_555 1_555
C3 N4 1_555 1_555
C4 H1 1_555 1_555
C5 C4 1_555 1_555
H2 C5 1_555 1_555
C6 C5 1_555 1_555
H3 C6 1_555 1_555
C7 C6 1_555 1_555
H4 C7 1_555 1_555
C8 C9 1_555 1_555
C9 C10 1_555 1_555
H5 C9R 1_555 1_555
C10 H6R 1_555 1_555
H6 C10R 1_555 1_555
C11 H7 1_555 1_555
C12 C11 1_555 1_555
H8 C12 1_555 1_555
Fe1N N5 1_555 1_555
Fe1H N5R 1_555 1_555
N1R Fe1 1_555 1_555
N2R N1R 1_555 1_555
N3R C2 1_555 1_555
N4R Fe1 1_555 1_555
N5G Fe1 1_555 1_555
N5Y Fe1 1_555 1_555
N5R C11 1_555 1_555
C1R N1 1_555 1_555
C2R N3 1_555 1_555
C3R C4 1_555 1_555
C4R C3 1_555 1_555
H1R C4R 1_555 1_555
C5R C4R 1_555 1_555
H2R C5R 1_555 1_555
C6R C5R 1_555 1_555
H3R C6R 1_555 1_555
C7R N4 1_555 1_555
H4R C7R 1_555 1_555
C8R C12 1_555 1_555
C9R C8R 1_555 1_555
H5R C9 1_555 1_555
C10R N5R 1_555 1_555
C11R N5 1_555 1_555
H7R C11R 1_555 1_555
C12R C8 1_555 1_555
H8R C12R 1_555 1_555
C1 N1R 1_555 1_555
C7 N4R 1_555 1_555
N2R C2R 1_555 1_555
N3R C1R 1_555 1_555
N4R C3R 1_555 1_555
C1R C3R 1_555 1_555
C2R C8R 1_555 1_555
C6R C7R 1_555 1_555
C9R C10R 1_555 1_555
C11R C12R 1_555 1_555

#END
