
#######################################################################
#
#                 Cambridge Crystallographic Data Centre
#                                CCDC 
#
#######################################################################
#
# If this CIF has been generated from an entry in the Cambridge 
# Structural Database, then it will include bibliographic, chemical, 
# crystal, experimental, refinement or atomic coordinate data resulting 
# from the CCDC's data processing and validation procedures.
#
#######################################################################

data_BUVYIB
_chemical_formula_moiety         '(C32 H36 Fe1 N10 O6)n'
_symmetry_cell_setting           rhombohedral
_symmetry_space_group_name_H-M   'R -3'
_symmetry_Int_Tables_number      148
_space_group_name_Hall           '-R 3'
loop_
_symmetry_equiv_pos_site_id
_symmetry_equiv_pos_as_xyz
1 x,y,z
2 -y,x-y,z
3 -x+y,-x,z
4 2/3+x,1/3+y,1/3+z
5 2/3-y,1/3+x-y,1/3+z
6 2/3-x+y,1/3-x,1/3+z
7 1/3+x,2/3+y,2/3+z
8 1/3-y,2/3+x-y,2/3+z
9 1/3-x+y,2/3-x,2/3+z
10 -x,-y,-z
11 y,-x+y,-z
12 x-y,x,-z
13 1/3-x,2/3-y,2/3-z
14 1/3+y,2/3-x+y,2/3-z
15 1/3+x-y,2/3+x,2/3-z
16 2/3-x,1/3-y,1/3-z
17 2/3+y,1/3-x+y,1/3-z
18 2/3+x-y,1/3+x,1/3-z
_cell_length_a                   32.1469(10)
_cell_length_b                   32.1469(10)
_cell_length_c                   11.8998(7)
_cell_angle_alpha                90
_cell_angle_beta                 90
_cell_angle_gamma                120
_cell_volume                     10650
loop_
_atom_site_label
_atom_site_type_symbol
_atom_site_fract_x
_atom_site_fract_y
_atom_site_fract_z
_atom_site_U_iso_or_equiv
_atom_site_thermal_displace_type
Fe1 Fe -0.0000 0.5000 1.0000 0.0238 Uani
N1 N -0.04831(12) 0.43270(11) 0.9714(3) 0.0266 Uani
N2 N -0.05487(12) 0.39854(11) 0.8942(3) 0.0266 Uani
N3 N -0.11388(13) 0.36537(12) 1.0257(3) 0.0328 Uani
N4 N -0.04311(12) 0.48718(12) 1.1349(3) 0.0274 Uani
N5 N -0.14531(12) 0.22701(11) 0.7517(3) 0.0266 Uani
C1 C -0.08350(15) 0.41180(14) 1.0470(3) 0.0290 Uani
C2 C -0.09466(15) 0.35875(14) 0.9302(3) 0.0306 Uani
C3 C -0.08282(14) 0.44205(14) 1.1401(3) 0.0288 Uani
C4 C -0.11730(17) 0.42759(16) 1.2222(4) 0.0402 Uani
H1 H -0.1441 0.3959 1.2220 0.0480 Uiso
C5 C -0.11244(18) 0.45975(17) 1.3051(4) 0.0446 Uani
H2 H -0.1357 0.4509 1.3630 0.0530 Uiso
C6 C -0.07226(18) 0.50569(17) 1.3010(4) 0.0409 Uani
H3 H -0.0679 0.5287 1.3568 0.0490 Uiso
C7 C -0.03925(16) 0.51775(15) 1.2175(3) 0.0309 Uani
H4 H -0.0121 0.5493 1.2172 0.0370 Uiso
C8 C -0.11276(14) 0.31363(14) 0.8697(3) 0.0287 Uani
C9 C -0.09187(14) 0.31185(14) 0.7694(4) 0.0298 Uani
H5 H -0.0659 0.3404 0.7393 0.0360 Uiso
C10 C -0.10827(15) 0.26946(14) 0.7131(3) 0.0315 Uani
H6 H -0.0933 0.2695 0.6442 0.0380 Uiso
C11 C -0.16582(14) 0.22862(14) 0.8495(3) 0.0297 Uani
H7 H -0.1918 0.1996 0.8778 0.0360 Uiso
C12 C -0.15093(15) 0.27019(14) 0.9103(4) 0.0322 Uani
H8 H -0.1663 0.2695 0.9790 0.0380 Uiso
Fe1D Fe 0.1667 0.8333 1.3333 0.0238 Uani
Fe1G Fe -0.1667 0.1667 0.6667 0.0238 Uani
N1I N 0.04831(12) 0.56730(11) 1.0286(3) 0.0266 Uani
N2I N 0.05487(12) 0.60146(11) 1.1058(3) 0.0266 Uani
N3I N 0.11388(13) 0.63463(12) 0.9743(3) 0.0328 Uani
N4I N 0.04311(12) 0.51282(12) 0.8651(3) 0.0274 Uani
N5I N 0.14531(12) 0.77299(11) 1.2483(3) 0.0266 Uani
N5E N 0.03899(16) 0.47864(12) 1.0850(3) 0.0266 Uani
N5N N -0.03899(16) 0.52136(12) 0.9150(3) 0.0266 Uani
C1I C 0.08350(15) 0.58820(14) 0.9530(3) 0.0290 Uani
C2I C 0.09466(15) 0.64125(14) 1.0698(3) 0.0306 Uani
C3I C 0.08282(14) 0.55795(14) 0.8599(3) 0.0288 Uani
C4I C 0.11730(17) 0.57241(16) 0.7778(4) 0.0402 Uani
H1I H 0.1441 0.6041 0.7780 0.0480 Uiso
C5I C 0.11244(18) 0.54025(17) 0.6949(4) 0.0446 Uani
H2I H 0.1357 0.5491 0.6370 0.0530 Uiso
C6I C 0.07226(18) 0.49431(17) 0.6990(4) 0.0409 Uani
H3I H 0.0679 0.4713 0.6432 0.0490 Uiso
C7I C 0.03925(16) 0.48225(15) 0.7825(3) 0.0309 Uani
H4I H 0.0121 0.4507 0.7828 0.0370 Uiso
C8I C 0.11276(14) 0.68637(14) 1.1303(3) 0.0287 Uani
C9I C 0.09187(14) 0.68815(14) 1.2306(4) 0.0298 Uani
H5I H 0.0659 0.6596 1.2607 0.0360 Uiso
C10I C 0.10827(15) 0.73054(14) 1.2869(3) 0.0315 Uani
H6I H 0.0933 0.7305 1.3558 0.0380 Uiso
C11I C 0.16582(14) 0.77138(14) 1.1505(3) 0.0297 Uani
H7I H 0.1918 0.8004 1.1222 0.0360 Uiso
C12I C 0.15093(15) 0.72981(14) 1.0897(4) 0.0322 Uani
H8I H 0.1663 0.7305 1.0210 0.0380 Uiso
O1 O -0.20420(13) 0.30874(14) 1.1388(3) 0.0642 Uani
H9 H -0.1833 0.3314 1.0983 0.0770 Uiso
H10 H -0.2261 0.2888 1.0954 0.0770 Uiso
O2 O -0.24827(18) 0.33330(17) 1.3093(4) 0.0860 Uani
H11 H -0.2744 0.3078 1.3252 0.1030 Uiso
H12 H -0.2335 0.3277 1.2576 0.1030 Uiso
O3 O -0.2788(2) 0.2299(3) 1.0301(6) 0.1272 Uani
O4 O -0.3676(3) 0.2037(4) 0.9458(9) 0.1772 Uani
C13 C -0.3221(4) 0.2068(4) 1.0990(9) 0.1294 Uani
H13 H -0.3141 0.2175 1.1780 0.1550 Uiso
H14 H -0.3362 0.1715 1.0967 0.1550 Uiso
C14 C -0.3582(5) 0.2205(7) 1.0532(10) 0.1743 Uani
H15 H -0.3880 0.2055 1.0987 0.2080 Uiso
H16 H -0.3444 0.2558 1.0544 0.2080 Uiso
C15 C -0.3236(4) 0.2248(6) 0.8758(10) 0.1489 Uani
H17 H -0.3318 0.2112 0.7991 0.1790 Uiso
H18 H -0.3102 0.2600 0.8700 0.1790 Uiso
C16 C -0.2893(3) 0.2156(4) 0.9219(8) 0.1089 Uani
H19 H -0.3012 0.1806 0.9176 0.1310 Uiso
H20 H -0.2596 0.2322 0.8766 0.1310 Uiso
O5 O 0.0124(2) 0.60416(19) 1.4264(4) 0.0906 Uani
O6 O 0.0457(3) 0.6287(3) 1.6434(6) 0.1359 Uani
C17 C -0.0171(3) 0.6039(3) 1.5169(7) 0.1017 Uani
H21 H -0.0417 0.6110 1.4874 0.1210 Uiso
H22 H -0.0339 0.5717 1.5520 0.1210 Uiso
C18 C 0.0117(4) 0.6390(4) 1.5991(8) 0.1076 Uani
H23 H 0.0282 0.6713 1.5641 0.1290 Uiso
H24 H -0.0091 0.6393 1.6603 0.1290 Uiso
C19 C 0.0770(4) 0.6283(4) 1.5508(8) 0.1118 Uani
H25 H 0.0941 0.6600 1.5135 0.1340 Uiso
H26 H 0.1011 0.6205 1.5808 0.1340 Uiso
C20 C 0.0458(4) 0.5922(3) 1.4736(8) 0.1016 Uani
H27 H 0.0650 0.5890 1.4127 0.1220 Uiso
H28 H 0.0282 0.5610 1.5128 0.1220 Uiso
loop_
_atom_site_aniso_label
_atom_site_aniso_U_11
_atom_site_aniso_U_22
_atom_site_aniso_U_33
_atom_site_aniso_U_23
_atom_site_aniso_U_13
_atom_site_aniso_U_12
Fe1 0.0257(5) 0.0206(5) 0.0275(5) -0.0031(3) -0.0041(3) 0.0134(3)
N1 0.0314(18) 0.0235(17) 0.0284(18) -0.0037(13) -0.0044(14) 0.0163(14)
N2 0.0298(17) 0.0191(16) 0.0324(18) -0.0048(13) -0.0041(14) 0.0133(14)
N3 0.0312(19) 0.0265(18) 0.034(2) -0.0044(14) 0.0004(14) 0.0094(15)
N4 0.0302(18) 0.0259(17) 0.0294(18) -0.0044(13) -0.0051(13) 0.0166(15)
N5 0.0255(17) 0.0218(16) 0.0311(18) -0.0010(13) 0.0011(13) 0.0108(14)
C1 0.035(2) 0.024(2) 0.031(2) -0.0040(15) -0.0018(16) 0.0169(18)
C2 0.033(2) 0.026(2) 0.035(2) -0.0025(16) -0.0034(17) 0.0165(18)
C3 0.029(2) 0.026(2) 0.030(2) -0.0013(16) -0.0014(16) 0.0128(17)
C4 0.039(2) 0.033(2) 0.042(3) -0.0008(19) 0.006(2) 0.013(2)
C5 0.049(3) 0.036(2) 0.043(3) -0.006(2) 0.009(2) 0.017(2)
C6 0.049(3) 0.037(2) 0.040(3) -0.0099(19) 0.001(2) 0.024(2)
C7 0.038(2) 0.027(2) 0.032(2) -0.0073(16) -0.0059(17) 0.0194(18)
C8 0.029(2) 0.025(2) 0.032(2) -0.0040(16) -0.0044(16) 0.0134(17)
C9 0.024(2) 0.023(2) 0.038(2) 0.0003(16) 0.0043(16) 0.0084(16)
C10 0.029(2) 0.024(2) 0.033(2) 0.0014(16) 0.0062(16) 0.0069(17)
C11 0.026(2) 0.023(2) 0.034(2) 0.0012(16) 0.0058(16) 0.0077(17)
C12 0.032(2) 0.027(2) 0.033(2) -0.0042(16) 0.0026(17) 0.0114(18)
Fe1D 0.0206 0.0195 0.0275 -0.001 0.0031 0.0072
Fe1G 0.0206 0.0195 0.0275 -0.001 0.0031 0.0072
N1I 0.0314 0.0235 0.0284 -0.0037 -0.0044 0.0163
N2I 0.0298 0.0191 0.0324 -0.0048 -0.0041 0.0133
N3I 0.0312 0.0265 0.034 -0.0044 0.0004 0.0094
N4I 0.0302 0.0259 0.0294 -0.0044 -0.0051 0.0166
N5I 0.0255 0.0218 0.0311 -0.001 0.0011 0.0108
N5E 0.0257 0.0255 0.0311 -0.0011 -0.0021 0.0147
N5N 0.0257 0.0255 0.0311 -0.0011 -0.0021 0.0147
C1I 0.035 0.024 0.031 -0.004 -0.0018 0.0169
C2I 0.033 0.026 0.035 -0.0025 -0.0034 0.0165
C3I 0.029 0.026 0.03 -0.0013 -0.0014 0.0128
C4I 0.039 0.033 0.042 -0.0008 0.006 0.013
C5I 0.049 0.036 0.043 -0.006 0.009 0.017
C6I 0.049 0.037 0.04 -0.0099 0.001 0.024
C7I 0.038 0.027 0.032 -0.0073 -0.0059 0.0194
C8I 0.029 0.025 0.032 -0.004 -0.0044 0.0134
C9I 0.024 0.023 0.038 0.0003 0.0043 0.0084
C10I 0.029 0.024 0.033 0.0014 0.0062 0.0069
C11I 0.026 0.023 0.034 0.0012 0.0058 0.0077
C12I 0.032 0.027 0.033 -0.0042 0.0026 0.0114
O1 0.050(2) 0.055(2) 0.059(2) -0.0104(18) 0.0162(18) 0.0048(19)
O2 0.085(3) 0.075(3) 0.090(4) -0.014(3) 0.026(3) 0.034(3)
O3 0.076(4) 0.138(6) 0.107(5) -0.045(4) 0.000(3) 0.008(4)
O4 0.107(5) 0.241(8) 0.173(7) 0.019(6) -0.001(5) 0.079(5)
C13 0.108(8) 0.128(9) 0.111(8) 0.003(6) 0.024(6) 0.028(7)
C14 0.160(12) 0.30(2) 0.099(9) 0.059(10) 0.066(8) 0.142(14)
C15 0.097(8) 0.241(15) 0.116(9) 0.031(9) 0.030(6) 0.090(9)
C16 0.095(6) 0.121(7) 0.104(7) -0.064(6) -0.035(5) 0.049(6)
O5 0.109(4) 0.082(3) 0.057(3) -0.002(2) 0.013(3) 0.030(3)
O6 0.181(6) 0.160(6) 0.085(4) -0.022(4) -0.034(4) 0.099(5)
C17 0.100(6) 0.091(6) 0.081(6) 0.000(4) 0.007(5) 0.023(5)
C18 0.133(8) 0.124(8) 0.088(6) -0.029(5) -0.026(6) 0.081(7)
C19 0.122(8) 0.115(8) 0.102(7) -0.007(6) -0.014(6) 0.062(7)
C20 0.122(8) 0.077(5) 0.114(7) -0.001(5) 0.007(6) 0.056(6)
loop_
_geom_bond_atom_site_label_1
_geom_bond_atom_site_label_2
_geom_bond_site_symmetry_1
_geom_bond_site_symmetry_2
Fe1 N1 1_555 1_555
N1 N2 1_555 1_555
N2 C2 1_555 1_555
N3 C1 1_555 1_555
N4 Fe1 1_555 1_555
N5 C10 1_555 1_555
C1 N1 1_555 1_555
C2 N3 1_555 1_555
C3 N4 1_555 1_555
C4 C3 1_555 1_555
H1 C4 1_555 1_555
C5 C4 1_555 1_555
H2 C5 1_555 1_555
C6 C5 1_555 1_555
H3 C6 1_555 1_555
C7 N4 1_555 1_555
H4 C7 1_555 1_555
C8 C2 1_555 1_555
C9 C8 1_555 1_555
H5 C9 1_555 1_555
C10 C9 1_555 1_555
H6 C10 1_555 1_555
C11 N5 1_555 1_555
H7 C11 1_555 1_555
C12 C8 1_555 1_555
H8 C12 1_555 1_555
O1 H9 1_555 1_555
H10 O1 1_555 1_555
O2 H11 1_555 1_555
H12 O2 1_555 1_555
O3 C13 1_555 1_555
O4 C14 1_555 1_555
C13 H13 1_555 1_555
H14 C13 1_555 1_555
C14 C13 1_555 1_555
H15 C14 1_555 1_555
H16 C14 1_555 1_555
C15 O4 1_555 1_555
H17 C15 1_555 1_555
H18 C15 1_555 1_555
C16 O3 1_555 1_555
H19 C16 1_555 1_555
H20 C16 1_555 1_555
O5 C17 1_555 1_555
O6 C18 1_555 1_555
C17 H21 1_555 1_555
H22 C17 1_555 1_555
C18 C17 1_555 1_555
H23 C18 1_555 1_555
H24 C18 1_555 1_555
C19 O6 1_555 1_555
H25 C19 1_555 1_555
H26 C19 1_555 1_555
C20 O5 1_555 1_555
H27 C20 1_555 1_555
H28 C20 1_555 1_555
Fe1D N5I 1_555 1_555
Fe1G N5 1_555 1_555
N1I Fe1 1_555 1_555
N2I N1I 1_555 1_555
N3I C1I 1_555 1_555
N4I Fe1 1_555 1_555
N5I C10I 1_555 1_555
N5E Fe1 1_555 1_555
N5N Fe1 1_555 1_555
C1I N1I 1_555 1_555
C2I N2I 1_555 1_555
C3I N4I 1_555 1_555
C4I C3I 1_555 1_555
H1I C4I 1_555 1_555
C5I C4I 1_555 1_555
H2I C5I 1_555 1_555
C6I C5I 1_555 1_555
H3I C6I 1_555 1_555
C7I N4I 1_555 1_555
H4I C7I 1_555 1_555
C8I C2I 1_555 1_555
C9I C8I 1_555 1_555
H5I C9I 1_555 1_555
C10I C9I 1_555 1_555
H6I C10I 1_555 1_555
C11I N5I 1_555 1_555
H7I C11I 1_555 1_555
C12I C8I 1_555 1_555
H8I C12I 1_555 1_555
C1 C3 1_555 1_555
C6 C7 1_555 1_555
C11 C12 1_555 1_555
C15 C16 1_555 1_555
C19 C20 1_555 1_555
N3I C2I 1_555 1_555
C1I C3I 1_555 1_555
C6I C7I 1_555 1_555
C11I C12I 1_555 1_555

#END
