
#######################################################################
#
#                 Cambridge Crystallographic Data Centre
#                                CCDC 
#
#######################################################################
#
# If this CIF has been generated from an entry in the Cambridge 
# Structural Database, then it will include bibliographic, chemical, 
# crystal, experimental, refinement or atomic coordinate data resulting 
# from the CCDC's data processing and validation procedures.
#
#######################################################################

data_IQOKAC
_chemical_formula_moiety         '(C56 H32 Mn3 O16 Si2)n'
_symmetry_cell_setting           monoclinic
_symmetry_space_group_name_H-M   'P 2/c'
_symmetry_Int_Tables_number      13
_space_group_name_Hall           '-P 2yc'
loop_
_symmetry_equiv_pos_site_id
_symmetry_equiv_pos_as_xyz
1 x,y,z
2 -x,y,1/2-z
3 -x,-y,-z
4 x,-y,1/2+z
_cell_length_a                   21.781(14)
_cell_length_b                   14.161(9)
_cell_length_c                   26.963(17)
_cell_angle_alpha                90
_cell_angle_beta                 90.899(8)
_cell_angle_gamma                90
_cell_volume                     8315.46
loop_
_atom_site_label
_atom_site_type_symbol
_atom_site_fract_x
_atom_site_fract_y
_atom_site_fract_z
Mn1 Mn 0.82749(6) 0.94365(10) 0.35825(6)
Mn2 Mn 0.74671(6) 0.72677(9) 0.36361(5)
Mn3 Mn 0.67426(7) 0.49963(10) 0.38240(6)
O1 O 0.7647(4) 0.9653(6) 0.4168(3)
O2 O 0.7226(4) 0.8283(7) 0.4135(4)
O3 O 0.7177(3) 1.1873(6) 0.8054(3)
O4 O 0.7705(3) 1.0563(5) 0.7946(2)
O5 O 0.4034(3) 1.4202(5) 0.5810(3)
O6 O 0.3450(3) 1.3481(4) 0.6324(2)
O7 O 0.4032(3) 0.5928(5) 0.6554(3)
O8 O 0.3551(3) 0.6362(4) 0.5892(3)
O9 O 0.7672(4) 0.6267(7) 0.3124(4)
O10 O 0.7358(3) 0.4675(5) 0.3247(2)
Si1 Si 0.94137(11) 0.4447(2) 0.13496(12)
Si2 Si 0.55899(12) 1.0014(2) 0.60557(11)
C1 C 0.7277(5) 0.9036(13) 0.4305(4)
C2 C 0.6878(3) 0.9417(8) 0.4710(2)
C3 C 0.6891(3) 1.0301(6) 0.4934(3)
H1 H 0.7169 1.0769 0.4823
C4 C 0.6499(4) 1.0498(4) 0.5323(3)
H2 H 0.6508 1.1102 0.5476
C5 C 0.6093(3) 0.9812(7) 0.5486(2)
C6 C 0.6079(3) 0.8929(6) 0.5262(3)
H3 H 0.5802 0.8460 0.5374
C7 C 0.6472(4) 0.8731(5) 0.4874(3)
H4 H 0.6463 0.8127 0.4720
C8 C 0.7276(5) 1.1098(9) 0.7827(4)
C9 C 0.6860(2) 1.0805(5) 0.74073(19)
C10 C 0.6288(3) 1.1226(4) 0.7343(2)
H5 H 0.6156 1.1694 0.7570
C11 C 0.5909(2) 1.0963(4) 0.6947(2)
H6 H 0.5518 1.1251 0.6904
C12 C 0.6103(2) 1.0278(5) 0.66152(19)
C13 C 0.6675(3) 0.9856(4) 0.6679(2)
H7 H 0.6807 0.9388 0.6452
C14 C 0.7053(2) 1.0120(4) 0.7075(2)
H8 H 0.7444 0.9832 0.7119
C15 C 0.3906(5) 1.3452(8) 0.6042(4)
C16 C 0.4314(3) 1.2596(4) 0.6017(3)
C17 C 0.4183(3) 1.1811(6) 0.6306(2)
H9 H 0.3839 1.1819 0.6518
C18 C 0.4555(4) 1.1015(5) 0.6285(3)
H10 H 0.4465 1.0479 0.6483
C19 C 0.5058(3) 1.1004(5) 0.5975(3)
C20 C 0.5190(2) 1.1788(7) 0.5685(2)
H11 H 0.5534 1.1780 0.5473
C21 C 0.4818(4) 1.2584(5) 0.5706(2)
H12 H 0.4907 1.3120 0.5508
C22 C 0.3964(5) 0.6492(6) 0.6208(4)
C23 C 0.4375(3) 0.7347(4) 0.6184(3)
C24 C 0.4846(3) 0.7473(4) 0.6531(2)
H13 H 0.4918 0.7010 0.6780
C25 C 0.5212(2) 0.8276(5) 0.6513(2)
H14 H 0.5534 0.8362 0.6750
C26 C 0.5107(3) 0.8953(4) 0.6148(3)
C27 C 0.4635(3) 0.8827(4) 0.5801(2)
H15 H 0.4563 0.9289 0.5552
C28 C 0.4269(2) 0.8024(5) 0.5819(2)
H16 H 0.3947 0.7937 0.5582
C29 C 0.7715(5) 0.5386(10) 0.3054(4)
C30 C 0.8124(3) 0.5114(6) 0.2639(2)
C31 C 0.8451(3) 0.5817(4) 0.2398(3)
H17 H 0.8392 0.6461 0.2486
C32 C 0.8863(3) 0.5580(5) 0.2030(3)
H18 H 0.9086 0.6060 0.1866
C33 C 0.8948(3) 0.4638(6) 0.1902(2)
C34 C 0.8622(3) 0.3935(4) 0.2143(3)
H19 H 0.8680 0.3292 0.2055
C35 C 0.8210(3) 0.4173(5) 0.2511(3)
H20 H 0.7987 0.3692 0.2675
O11 O 0.7408(12) 0.484(2) -0.0509(14)
O12 O 0.7883(8) 0.3732(11) -0.0900(5)
C36 C 0.7806(10) 0.4179(14) -0.0493(5)
C37 C 0.8094(5) 0.4158(10) 0.0023(4)
C38 C 0.8503(6) 0.3434(8) 0.0136(5)
H21 H 0.8507 0.2877 -0.0061
C39 C 0.8907(5) 0.3523(9) 0.0538(5)
H22 H 0.9187 0.3029 0.0615
C40 C 0.8901(5) 0.4337(10) 0.0826(4)
C41 C 0.8491(6) 0.5061(8) 0.0713(5)
H23 H 0.8487 0.5617 0.0909
C42 C 0.8088(5) 0.4971(8) 0.0311(5)
H24 H 0.7808 0.5466 0.0233
O13 O 1.1007(3) 0.8580(5) 0.0915(4)
O14 O 1.1621(2) 0.7914(4) 0.1429(3)
C43 C 1.1131(3) 0.7872(5) 0.1182(3)
C44 C 1.0711(2) 0.7031(4) 0.1202(2)
C45 C 1.0208(3) 0.6937(4) 0.0881(2)
H25 H 1.0123 0.7411 0.0641
C46 C 0.9831(2) 0.6147(5) 0.0912(3)
H26 H 0.9488 0.6082 0.0693
C47 C 0.9957(3) 0.5453(4) 0.1264(3)
C48 C 1.0459(3) 0.5549(4) 0.1584(3)
H27 H 1.0545 0.5075 0.1825
C49 C 1.0836(2) 0.6338(5) 0.1553(2)
H28 H 1.1179 0.6403 0.1772
O15 O 1.1466(8) 0.0890(12) 0.1208(7)
O16 O 1.0925(7) 0.0113(11) 0.1781(6)
C50 C 1.1021(7) 0.0823(9) 0.1505(7)
C51 C 1.0637(6) 0.1709(8) 0.1462(5)
C52 C 1.0113(7) 0.1735(9) 0.1749(5)
H29 H 1.0016 0.1216 0.1957
C53 C 0.9732(5) 0.2522(11) 0.1734(5)
H30 H 0.9374 0.2540 0.1931
C54 C 0.9874(6) 0.3283(8) 0.1431(6)
C55 C 1.0398(7) 0.3257(9) 0.1143(6)
H31 H 1.0495 0.3776 0.0936
C56 C 1.0779(5) 0.2470(11) 0.1159(5)
H32 H 1.1137 0.2452 0.0962
Mn1A Mn 1.17251(6) -0.05635(10) 0.14175(6)
Mn1A_2 Mn 1.17251(6) 0.94365(10) 0.14175(6)
Mn1C Mn 0.82749(6) 1.05635(10) 0.85825(6)
Mn2A Mn 1.25329(6) 0.72677(9) 0.13639(5)
Mn2B Mn 0.25329(6) 1.27323(9) 0.63639(5)
Mn2C Mn 0.74671(6) 0.27323(9) -0.13639(5)
Mn2C_2 Mn 0.74671(6) 1.27323(9) 0.86361(5)
Mn3B Mn 0.32574(7) 0.50037(10) 0.61760(6)
Mn3B_2 Mn 0.32574(7) 1.50037(10) 0.61760(6)
Mn3C Mn 0.67426(7) 0.50037(10) -0.11760(6)
O3C O 0.7177(3) 0.8127(6) 0.3054(3)
O4C O 0.7705(3) 0.9437(5) 0.2946(2)
O5B O 0.5966(3) 0.5798(5) 0.4190(3)
O6B O 0.6550(3) 0.6519(4) 0.3676(2)
O7B O 0.5968(3) 0.4072(5) 0.3446(3)
O8B O 0.6449(3) 0.3638(4) 0.4108(3)
O11C O 0.7408(12) 0.516(2) 0.4491(14)
O12C O 0.7883(8) 0.6268(11) 0.4100(5)
O13A O 0.8993(3) 0.8580(5) 0.4085(4)
O14A O 0.8379(2) 0.7914(4) 0.3571(3)
O15A O 0.8534(8) 1.0890(12) 0.3792(7)
O16A O 0.9075(7) 1.0113(11) 0.3219(6)
loop_
_geom_bond_atom_site_label_1
_geom_bond_atom_site_label_2
_geom_bond_site_symmetry_1
_geom_bond_site_symmetry_2
Mn1 O1 1_555 1_555
Mn2 O2 1_555 1_555
Mn3 O10 1_555 1_555
O1 C1 1_555 1_555
O2 C1 1_555 1_555
O3 C8 1_555 1_555
O4 C8 1_555 1_555
O5 C15 1_555 1_555
O6 C15 1_555 1_555
O7 C22 1_555 1_555
O8 C22 1_555 1_555
O9 Mn2 1_555 1_555
O10 C29 1_555 1_555
Si1 C33 1_555 1_555
Si2 C5 1_555 1_555
C1 C2 1_555 1_555
C2 C3 1_555 1_555
C3 H1 1_555 1_555
C4 C3 1_555 1_555
H2 C4 1_555 1_555
C5 C4 1_555 1_555
C6 C5 1_555 1_555
H3 C6 1_555 1_555
C7 C2 1_555 1_555
H4 C7 1_555 1_555
C8 C9 1_555 1_555
C9 C10 1_555 1_555
C10 H5 1_555 1_555
C11 C10 1_555 1_555
H6 C11 1_555 1_555
C12 Si2 1_555 1_555
C13 C12 1_555 1_555
H7 C13 1_555 1_555
C14 C9 1_555 1_555
H8 C14 1_555 1_555
C15 C16 1_555 1_555
C16 C17 1_555 1_555
C17 H9 1_555 1_555
C18 C17 1_555 1_555
H10 C18 1_555 1_555
C19 Si2 1_555 1_555
C20 C19 1_555 1_555
H11 C20 1_555 1_555
C21 C16 1_555 1_555
H12 C21 1_555 1_555
C22 C23 1_555 1_555
C23 C24 1_555 1_555
C24 H13 1_555 1_555
C25 C24 1_555 1_555
H14 C25 1_555 1_555
C26 Si2 1_555 1_555
C27 C26 1_555 1_555
H15 C27 1_555 1_555
C28 C23 1_555 1_555
H16 C28 1_555 1_555
C29 O9 1_555 1_555
C30 C29 1_555 1_555
C31 C30 1_555 1_555
H17 C31 1_555 1_555
C32 C31 1_555 1_555
H18 C32 1_555 1_555
C33 C32 1_555 1_555
C34 C33 1_555 1_555
H19 C34 1_555 1_555
C35 C30 1_555 1_555
H20 C35 1_555 1_555
O11 C36 1_555 1_555
O12 C36 1_555 1_555
C36 C37 1_555 1_555
C37 C38 1_555 1_555
C38 H21 1_555 1_555
C39 C38 1_555 1_555
H22 C39 1_555 1_555
C40 Si1 1_555 1_555
C41 C40 1_555 1_555
H23 C41 1_555 1_555
C42 C37 1_555 1_555
H24 C42 1_555 1_555
O13 C43 1_555 1_555
O14 C43 1_555 1_555
C43 C44 1_555 1_555
C44 C45 1_555 1_555
C45 H25 1_555 1_555
C46 C45 1_555 1_555
H26 C46 1_555 1_555
C47 Si1 1_555 1_555
C48 C47 1_555 1_555
H27 C48 1_555 1_555
C49 C44 1_555 1_555
H28 C49 1_555 1_555
O15 C50 1_555 1_555
O16 C50 1_555 1_555
C50 C51 1_555 1_555
C51 C52 1_555 1_555
C52 H29 1_555 1_555
C53 C52 1_555 1_555
H30 C53 1_555 1_555
C54 Si1 1_555 1_555
C55 C54 1_555 1_555
H31 C55 1_555 1_555
C56 C51 1_555 1_555
H32 C56 1_555 1_555
Mn1A O15 1_555 1_555
Mn1A_2 O13 1_555 1_555
Mn1C O4 1_555 1_555
Mn2A O14 1_555 1_555
Mn2B O6 1_555 1_555
Mn2C O12 1_555 1_555
Mn2C_2 O3 1_555 1_555
Mn3B O7 1_555 1_555
Mn3B_2 O5 1_555 1_555
Mn3C O11 1_555 1_555
O3C Mn2 1_555 1_555
O4C Mn1 1_555 1_555
O5B Mn3 1_555 1_555
O6B Mn2 1_555 1_555
O7B Mn3 1_555 1_555
O8B Mn3 1_555 1_555
O11C Mn3 1_555 1_555
O12C Mn2 1_555 1_555
O13A Mn1 1_555 1_555
O14A Mn1 1_555 1_555
O15A Mn1 1_555 1_555
O16A Mn1 1_555 1_555
Mn2 O14A 1_555 1_555
Mn3 O6B 1_555 1_555
O6 Mn3B_2 1_555 1_555
O8 Mn3B 1_555 1_555
C6 C7 1_555 1_555
C11 C12 1_555 1_555
C13 C14 1_555 1_555
C18 C19 1_555 1_555
C20 C21 1_555 1_555
C25 C26 1_555 1_555
C27 C28 1_555 1_555
C34 C35 1_555 1_555
C39 C40 1_555 1_555
C41 C42 1_555 1_555
O14 Mn1A_2 1_555 1_555
C46 C47 1_555 1_555
C48 C49 1_555 1_555
O16 Mn1A 1_555 1_555
C53 C54 1_555 1_555
C55 C56 1_555 1_555

#END
