
#######################################################################
#
#                 Cambridge Crystallographic Data Centre
#                                CCDC 
#
#######################################################################
#
# If this CIF has been generated from an entry in the Cambridge 
# Structural Database, then it will include bibliographic, chemical, 
# crystal, experimental, refinement or atomic coordinate data resulting 
# from the CCDC's data processing and validation procedures.
#
#######################################################################

data_DOTVUF
_chemical_formula_moiety         '(C17 H8 F6 Mn1 O4)n'
_symmetry_cell_setting           tetragonal
_symmetry_space_group_name_H-M   'I 41/a'
_symmetry_Int_Tables_number      88
_space_group_name_Hall           '-I 4ad'
loop_
_symmetry_equiv_pos_site_id
_symmetry_equiv_pos_as_xyz
1 x,y,z
2 1/2-x,-y,1/2+z
3 3/4-y,1/4+x,1/4+z
4 3/4+y,3/4-x,3/4+z
5 1/2+x,1/2+y,1/2+z
6 -x,1/2-y,z
7 1/4-y,3/4+x,3/4+z
8 1/4+y,1/4-x,1/4+z
9 -x,-y,-z
10 1/2+x,y,1/2-z
11 1/4+y,3/4-x,3/4-z
12 1/4-y,1/4+x,1/4-z
13 1/2-x,1/2-y,1/2-z
14 x,1/2+y,-z
15 3/4+y,1/4-x,1/4-z
16 3/4-y,3/4+x,3/4-z
_cell_length_a                   28.5047(3)
_cell_length_b                   28.5047(3)
_cell_length_c                   10.5027(3)
_cell_angle_alpha                90
_cell_angle_beta                 90
_cell_angle_gamma                90
_cell_volume                     8533.63
loop_
_atom_site_label
_atom_site_type_symbol
_atom_site_fract_x
_atom_site_fract_y
_atom_site_fract_z
_atom_site_U_iso_or_equiv
_atom_site_thermal_displace_type
F1 F 0.55250(8) 0.71703(7) 0.7243(2) 0.0861 Uani
F2 F 0.55007(6) 0.75200(6) 0.9667(3) 0.0820 Uani
F3 F 0.53761(6) 0.67767(6) 0.9766(2) 0.0727 Uani
F4 F 0.57169(8) 0.64547(6) 0.7594(2) 0.0755 Uani
F5 F 0.58788(7) 0.71029(6) 1.1013(2) 0.0652 Uani
F6 F 0.61990(9) 0.69106(7) 0.6634(2) 0.0768 Uani
Mn1 Mn 0.768750(11) 0.954742(12) 1.00889(3) 0.0232 Uani
O1 O 0.70829(5) 0.50348(5) 1.03324(16) 0.0293 Uani
O2 O 0.76802(5) 0.53619(5) 0.93509(17) 0.0302 Uani
O3 O 0.73642(6) 0.89215(6) 0.96846(19) 0.0381 Uani
O4 O 0.69060(6) 0.91379(6) 0.80705(19) 0.0401 Uani
C1 C 0.69868(8) 0.58211(8) 0.9637(2) 0.0295 Uani
C2 C 0.63802(8) 0.75000(8) 0.8784(3) 0.0325 Uani
C3 C 0.72648(8) 0.53872(8) 0.9788(2) 0.0277 Uani
C4 C 0.68779(9) 0.65887(8) 0.8732(3) 0.0368 Uani
H1 H 0.6993 0.6838 0.8252 0.0440 Uiso
C5 C 0.64291(8) 0.66127(7) 0.9231(3) 0.0287 Uani
C6 C 0.71561(9) 0.62004(8) 0.8936(3) 0.0375 Uani
H2 H 0.7458 0.6191 0.8605 0.0450 Uiso
C7 C 0.69178(10) 0.80360(9) 0.9761(3) 0.0376 Uani
H3 H 0.7130 0.8102 1.0409 0.0450 Uiso
C8 C 0.70517(8) 0.88443(8) 0.8872(2) 0.0290 Uani
C9 C 0.57131(10) 0.71064(9) 0.9837(4) 0.0511 Uani
C10 C 0.68286(8) 0.83711(8) 0.8843(2) 0.0307 Uani
C11 C 0.66990(9) 0.76081(8) 0.9735(3) 0.0371 Uani
H4 H 0.6765 0.7388 1.0363 0.0450 Uiso
C12 C 0.65388(9) 0.58500(9) 1.0166(3) 0.0373 Uani
H5 H 0.6425 0.5605 1.0661 0.0450 Uiso
C13 C 0.62640(9) 0.62423(9) 0.9956(3) 0.0382 Uani
H6 H 0.5965 0.6257 1.0306 0.0460 Uiso
C14 C 0.61060(8) 0.70312(8) 0.8853(3) 0.0322 Uani
C15 C 0.65108(11) 0.82616(9) 0.7892(3) 0.0517 Uani
H7 H 0.6444 0.8482 0.7265 0.0620 Uiso
C16 C 0.62925(12) 0.78328(10) 0.7859(3) 0.0553 Uani
H8 H 0.6083 0.7765 0.7206 0.0660 Uiso
C17 C 0.58844(13) 0.68988(10) 0.7580(4) 0.0555 Uani
Mn1C Mn 0.704742(12) 0.981250(11) 0.75889(3) 0.0232 Uani
Mn1M Mn 0.768750(11) 0.454742(12) 0.99111(3) 0.0232 Uani
Mn1N Mn 0.704742(12) 0.481250(11) 1.24111(3) 0.0232 Uani
Mn1O Mn 0.795258(12) 0.518750(11) 0.74111(3) 0.0232 Uani
O1K O 0.74652(5) 0.95829(5) 1.21676(16) 0.0293 Uani
O1M O 0.70829(5) 1.00348(5) 0.96676(16) 0.0293 Uani
O2J O 0.78619(5) 0.98198(5) 0.81491(17) 0.0302 Uani
O2M O 0.76802(5) 1.03619(5) 1.06491(17) 0.0302 Uani
O4B O 0.83621(6) 0.94060(6) 1.05705(19) 0.0401 Uani
loop_
_atom_site_aniso_label
_atom_site_aniso_U_11
_atom_site_aniso_U_22
_atom_site_aniso_U_33
_atom_site_aniso_U_23
_atom_site_aniso_U_13
_atom_site_aniso_U_12
F1 0.0886(15) 0.0488(11) 0.121(2) 0.0166(11) -0.0736(14) -0.0126(10)
F2 0.0511(12) 0.0419(11) 0.153(2) 0.0058(11) 0.0147(12) 0.0216(9)
F3 0.0344(10) 0.0477(11) 0.136(2) 0.0081(10) 0.0125(10) -0.0036(8)
F4 0.1062(16) 0.0337(10) 0.0865(16) 0.0016(9) -0.0448(12) -0.0286(10)
F5 0.0697(12) 0.0572(11) 0.0688(15) -0.0118(10) 0.0228(11) 0.0076(9)
F6 0.1253(19) 0.0584(12) 0.0466(13) -0.0032(9) -0.0207(13) -0.0183(11)
Mn1 0.0204(2) 0.0205(2) 0.0286(3) -0.00181(14) -0.00493(14) 0.00052(13)
O1 0.0319 0.0199 0.0362 0.003 -0.0002 0.0023
O2 0.0266 0.0289 0.0352 -0.0018 0.0014 0.0022
O3 0.0425(10) 0.0251(9) 0.0468(12) -0.0023(8) -0.0095(9) -0.0064(7)
O4 0.0482 0.0261 0.0461 0.0103 -0.0072 -0.0086
C1 0.0319 0.0226 0.034 -0.0018 0.0039 0.0019
C2 0.0346(13) 0.0211(12) 0.0417(17) 0.0001(10) -0.0105(11) 0.0009(10)
C3 0.0341 0.0273 0.0216 -0.0081 -0.0031 0.0019
C4 0.0389 0.0211 0.0505 0.0084 0.0114 0.0014
C5 0.0291 0.017 0.0399 -0.0008 -0.001 0.002
C6 0.0337 0.0284 0.0504 0.0033 0.0145 0.0018
C7 0.0453(16) 0.0271(14) 0.0403(17) 0.0029(11) -0.0209(12) -0.0050(11)
C8 0.0332(13) 0.0234(12) 0.0303(15) -0.0022(10) -0.0015(10) -0.0001(10)
C9 0.0342(16) 0.0280(15) 0.091(3) 0.0004(14) 0.0056(15) 0.0095(12)
C10 0.0341(13) 0.0219(12) 0.0360(16) 0.0012(10) -0.0072(10) -0.0017(10)
C11 0.0483(16) 0.0220(13) 0.0411(17) 0.0079(10) -0.0172(12) -0.0013(11)
C12 0.0353 0.028 0.0485 0.013 0.009 0.0006
C13 0.0314 0.0323 0.051 0.0067 0.0102 0.0053
C14 0.0310(13) 0.0170(12) 0.0487(18) 0.0015(10) -0.0089(11) 0.0009(9)
C15 0.071(2) 0.0271(14) 0.057(2) 0.0162(13) -0.0354(16) -0.0134(13)
C16 0.078(2) 0.0338(16) 0.054(2) 0.0129(13) -0.0447(17) -0.0193(14)
C17 0.068(2) 0.0304(16) 0.068(3) 0.0011(14) -0.0320(18) -0.0107(14)
Mn1C 0.0205 0.0204 0.0286 0.00493 -0.00181 -0.00052
Mn1M 0.0204 0.0205 0.0286 0.00181 0.00493 0.00052
Mn1N 0.0205 0.0204 0.0286 -0.00493 0.00181 -0.00052
Mn1O 0.0205 0.0204 0.0286 0.00493 -0.00181 -0.00052
O1K 0.0199 0.0319 0.0362 0.0002 0.003 -0.0023
O1M 0.0319 0.0199 0.0362 -0.003 0.0002 0.0023
O2J 0.0289 0.0266 0.0352 0.0014 0.0018 -0.0022
O2M 0.0266 0.0289 0.0352 0.0018 -0.0014 0.0022
O4B 0.0261 0.0482 0.0461 -0.0072 -0.0103 0.0086
loop_
_geom_bond_atom_site_label_1
_geom_bond_atom_site_label_2
_geom_bond_site_symmetry_1
_geom_bond_site_symmetry_2
F1 C17 1_555 1_555
F2 C9 1_555 1_555
F3 C9 1_555 1_555
F4 C17 1_555 1_555
F5 C9 1_555 1_555
F6 C17 1_555 1_555
Mn1 O3 1_555 1_555
O1 C3 1_555 1_555
O2 C3 1_555 1_555
O3 C8 1_555 1_555
O4 C8 1_555 1_555
C1 C3 1_555 1_555
C2 C11 1_555 1_555
C4 H1 1_555 1_555
C5 C4 1_555 1_555
C6 C1 1_555 1_555
H2 C6 1_555 1_555
C7 H3 1_555 1_555
C8 C10 1_555 1_555
C9 C14 1_555 1_555
C10 C7 1_555 1_555
C11 C7 1_555 1_555
H4 C11 1_555 1_555
C12 C1 1_555 1_555
H5 C12 1_555 1_555
C13 C5 1_555 1_555
H6 C13 1_555 1_555
C14 C2 1_555 1_555
C15 C10 1_555 1_555
H7 C15 1_555 1_555
C16 C2 1_555 1_555
H8 C16 1_555 1_555
C17 C14 1_555 1_555
Mn1C O4 1_555 1_555
Mn1M O1 1_555 1_555
Mn1N O1 1_555 1_555
Mn1O O2 1_555 1_555
O1K Mn1 1_555 1_555
O1M Mn1 1_555 1_555
O2J Mn1 1_555 1_555
O2M Mn1 1_555 1_555
O4B Mn1 1_555 1_555
O2 Mn1M 1_555 1_555
C4 C6 1_555 1_555
C5 C14 1_555 1_555
C12 C13 1_555 1_555
C15 C16 1_555 1_555
Mn1C O1M 1_555 1_555
Mn1C O2J 1_555 1_555

#END
