
#######################################################################
#
#                 Cambridge Crystallographic Data Centre
#                                CCDC 
#
#######################################################################
#
# If this CIF has been generated from an entry in the Cambridge 
# Structural Database, then it will include bibliographic, chemical, 
# crystal, experimental, refinement or atomic coordinate data resulting 
# from the CCDC's data processing and validation procedures.
#
#######################################################################

data_IGITOJ
_chemical_formula_moiety         '(C24 H52 Cu7 I8 N8)n'
_symmetry_cell_setting           rhombohedral
_symmetry_space_group_name_H-M   'R -3'
_symmetry_Int_Tables_number      148
_space_group_name_Hall           '-R 3'
loop_
_symmetry_equiv_pos_site_id
_symmetry_equiv_pos_as_xyz
1 x,y,z
2 -y,x-y,z
3 -x+y,-x,z
4 2/3+x,1/3+y,1/3+z
5 2/3-y,1/3+x-y,1/3+z
6 2/3-x+y,1/3-x,1/3+z
7 1/3+x,2/3+y,2/3+z
8 1/3-y,2/3+x-y,2/3+z
9 1/3-x+y,2/3-x,2/3+z
10 -x,-y,-z
11 y,-x+y,-z
12 x-y,x,-z
13 1/3-x,2/3-y,2/3-z
14 1/3+y,2/3-x+y,2/3-z
15 1/3+x-y,2/3+x,2/3-z
16 2/3-x,1/3-y,1/3-z
17 2/3+y,1/3-x+y,1/3-z
18 2/3+x-y,1/3+x,1/3-z
_cell_length_a                   25.9051(15)
_cell_length_b                   25.9051(15)
_cell_length_c                   20.4603(16)
_cell_angle_alpha                90
_cell_angle_beta                 90
_cell_angle_gamma                120
_cell_volume                     11890.9
loop_
_atom_site_label
_atom_site_type_symbol
_atom_site_fract_x
_atom_site_fract_y
_atom_site_fract_z
Cu1 Cu 0.01751(9) 0.39113(9) 0.41815(9)
Cu2 Cu -0.04557(8) 0.26587(8) 0.41165(9)
Cu3 Cu 0.01120(8) 0.34140(9) 0.19442(9)
I1 I 0.03851(4) 0.33048(4) 0.32382(4)
I2 I -0.00018(5) 0.22443(5) 0.49807(4)
I3 I -0.08947(5) 0.33911(5) 0.17750(5)
I4 I -0.09296(4) 0.32682(5) 0.46815(5)
C1 C -0.1269(8) 0.2126(8) 0.3001(8)
H1 H -0.1403 0.2405 0.3078
H2 H -0.0899 0.2329 0.2765
C2 C -0.1723(9) 0.1639(8) 0.2592(8)
H3 H -0.1528 0.1579 0.2225
H4 H -0.2007 0.1742 0.2428
C3 C -0.1013(9) 0.1481(9) 0.3471(12)
H5 H -0.0671 0.1636 0.3190
H6 H -0.0921 0.1350 0.3871
C4 C -0.1563(10) 0.0965(9) 0.3135(11)
H7 H -0.1736 0.0627 0.3424
H8 H -0.1434 0.0853 0.2746
C5 C -0.1704(8) 0.1655(8) 0.3983(8)
H9 H -0.1649 0.1454 0.4347
H10 H -0.1795 0.1947 0.4152
C6 C -0.2213(7) 0.1211(8) 0.3569(8)
H11 H -0.2485 0.1354 0.3493
H12 H -0.2423 0.0839 0.3799
N1 N -0.1157(5) 0.1952(5) 0.3614(6)
N2 N -0.2022(5) 0.1106(5) 0.2957(5)
Cu4 Cu 0.1667 0.3333 0.3333
C7 C 0.1070(12) 0.2127(6) 0.2878(9)
H13 H 0.0744 0.2131 0.2890
C8 C 0.0787(9) 0.1626(6) 0.2441(8)
H14 H 0.1089 0.1662 0.2143
H15 H 0.0482 0.1644 0.2191
C9 C 0.0517(16) 0.1034(8) 0.2780(13)
H16 H 0.0716 0.0869 0.2668
H17 H 0.0171 0.0826 0.2617
C10 C 0.0472(23) 0.0990(16) 0.3461(17)
H18 H 0.0587 0.0750 0.3581
H19 H 0.0101 0.0821 0.3541
C11 C 0.0746(11) 0.1522(7) 0.3868(8)
H20 H 0.1025 0.1491 0.4151
H21 H 0.0440 0.1516 0.4138
C12 C 0.1010(13) 0.2079(6) 0.3519(8)
H22 H 0.1333 0.2071 0.3505
N3 N 0.1357(7) 0.2738(5) 0.2587(5)
N4 N 0.1320(7) 0.2619(5) 0.3931(6)
Cu1L Cu 0.31582(9) 0.27554(9) 0.24852(9)
Cu2L Cu 0.37890(8) 0.40080(8) 0.25502(9)
Cu3L Cu 0.32213(8) 0.32527(9) 0.47225(9)
I1L I 0.29482(4) 0.33619(4) 0.34285(4)
I2L I 0.33351(5) 0.44224(5) 0.16860(4)
I3L I 0.42280(5) 0.32756(5) 0.48917(5)
I4L I 0.42629(4) 0.33985(5) 0.19852(5)
C1L C 0.4602(8) 0.4541(8) 0.3666(8)
H1L H 0.4736 0.4262 0.3589
H2L H 0.4232 0.4338 0.3902
C2L C 0.5056(9) 0.5028(8) 0.4075(8)
H3L H 0.4861 0.5088 0.4442
H4L H 0.5340 0.4925 0.4239
C3L C 0.4346(9) 0.5186(9) 0.3196(12)
H5L H 0.4004 0.5031 0.3477
H6L H 0.4254 0.5317 0.2796
C4L C 0.4896(10) 0.5702(9) 0.3532(11)
H7L H 0.5069 0.6040 0.3243
H8L H 0.4767 0.5814 0.3921
C5L C 0.5037(8) 0.5012(8) 0.2684(8)
H9L H 0.4982 0.5213 0.2320
H10L H 0.5128 0.4720 0.2515
C6L C 0.5546(7) 0.5456(8) 0.3098(8)
H11L H 0.5818 0.5313 0.3174
H12L H 0.5756 0.5828 0.2868
N1L N 0.4490(5) 0.4715(5) 0.3053(6)
N2L N 0.5355(5) 0.5561(5) 0.3710(5)
C7L C 0.2263(12) 0.4540(6) 0.3789(9)
H13L H 0.2589 0.4536 0.3777
C8L C 0.2546(9) 0.5041(6) 0.4226(8)
H14L H 0.2244 0.5005 0.4524
H15L H 0.2851 0.5023 0.4476
C9L C 0.2816(16) 0.5633(8) 0.3887(13)
H16L H 0.2617 0.5798 0.3999
H17L H 0.3162 0.5841 0.4050
C10L C 0.2861(23) 0.5677(16) 0.3206(17)
H18L H 0.2746 0.5917 0.3086
H19L H 0.3232 0.5846 0.3126
C11L C 0.2587(11) 0.5145(7) 0.2799(8)
H20L H 0.2308 0.5176 0.2516
H21L H 0.2893 0.5151 0.2529
C12L C 0.2323(13) 0.4588(6) 0.3148(8)
H22L H 0.2000 0.4596 0.3162
N3L N 0.1976(7) 0.3929(5) 0.4080(5)
N4L N 0.2013(7) 0.4048(5) 0.2736(6)
Cu1A Cu 0.60887(9) 0.62638(13) 0.41815(9)
Cu1G Cu -0.05780(9) 0.29305(13) 0.08482(9)
Cu1J Cu 0.39113(9) 0.37362(13) 0.58185(9)
Cu1M Cu -0.27554(9) 0.04029(13) 0.24852(9)
Cu2G Cu 0.06746(8) 0.35523(11) 0.07832(9)
Cu2J Cu 0.26587(8) 0.31144(11) 0.58835(9)
Cu3E Cu -0.00313(12) 0.32213(8) 0.52775(9)
Cu3Q Cu 0.33647(12) 0.34453(8) 0.13891(9)
I2G I 0.10890(5) 0.44206(7) 0.16474(4)
I2J I 0.22443(5) 0.22461(7) 0.50193(4)
I3E I 0.09525(7) 0.42280(5) 0.51083(5)
I3Q I 0.23809(7) 0.24386(5) 0.15583(5)
I4G I 0.00651(5) 0.24689(6) 0.13482(5)
I4J I 0.32682(5) 0.41978(6) 0.53185(5)
N2B N 0.3128(7) 0.2022(5) 0.2957(5)
N2N N 0.0205(7) 0.4645(5) 0.3710(5)
loop_
_geom_bond_atom_site_label_1
_geom_bond_atom_site_label_2
_geom_bond_site_symmetry_1
_geom_bond_site_symmetry_2
Cu1 Cu2 1_555 1_555
Cu2 I1 1_555 1_555
Cu3 I1 1_555 1_555
I1 Cu1 1_555 1_555
I2 Cu2 1_555 1_555
I3 Cu3 1_555 1_555
I4 Cu1 1_555 1_555
C1 H1 1_555 1_555
H2 C1 1_555 1_555
C2 C1 1_555 1_555
H3 C2 1_555 1_555
H4 C2 1_555 1_555
C3 H5 1_555 1_555
H6 C3 1_555 1_555
C4 C3 1_555 1_555
H7 C4 1_555 1_555
H8 C4 1_555 1_555
C5 H9 1_555 1_555
H10 C5 1_555 1_555
C6 C5 1_555 1_555
H11 C6 1_555 1_555
H12 C6 1_555 1_555
N1 Cu2 1_555 1_555
N2 C2 1_555 1_555
Cu4 I1 1_555 1_555
C7 H13 1_555 1_555
C8 C7 1_555 1_555
H14 C8 1_555 1_555
H15 C8 1_555 1_555
C9 C8 1_555 1_555
H16 C9 1_555 1_555
H17 C9 1_555 1_555
C10 C9 1_555 1_555
H18 C10 1_555 1_555
H19 C10 1_555 1_555
C11 C10 1_555 1_555
H20 C11 1_555 1_555
H21 C11 1_555 1_555
C12 C7 1_555 1_555
H22 C12 1_555 1_555
N3 Cu4 1_555 1_555
N4 Cu4 1_555 1_555
Cu1L Cu2L 1_555 1_555
Cu2L I1L 1_555 1_555
Cu3L I1L 1_555 1_555
I1L Cu4 1_555 1_555
I2L Cu2L 1_555 1_555
I3L Cu3L 1_555 1_555
I4L Cu1L 1_555 1_555
C1L H1L 1_555 1_555
H2L C1L 1_555 1_555
C2L C1L 1_555 1_555
H3L C2L 1_555 1_555
H4L C2L 1_555 1_555
C3L H5L 1_555 1_555
H6L C3L 1_555 1_555
C4L C3L 1_555 1_555
H7L C4L 1_555 1_555
H8L C4L 1_555 1_555
C5L H9L 1_555 1_555
H10L C5L 1_555 1_555
C6L C5L 1_555 1_555
H11L C6L 1_555 1_555
H12L C6L 1_555 1_555
N1L Cu2L 1_555 1_555
N2L C2L 1_555 1_555
C7L H13L 1_555 1_555
C8L C7L 1_555 1_555
H14L C8L 1_555 1_555
H15L C8L 1_555 1_555
C9L C8L 1_555 1_555
H16L C9L 1_555 1_555
H17L C9L 1_555 1_555
C10L C9L 1_555 1_555
H18L C10L 1_555 1_555
H19L C10L 1_555 1_555
C11L C10L 1_555 1_555
H20L C11L 1_555 1_555
H21L C11L 1_555 1_555
C12L C7L 1_555 1_555
H22L C12L 1_555 1_555
N3L Cu4 1_555 1_555
N4L Cu4 1_555 1_555
Cu1A N2L 1_555 1_555
Cu1G Cu3 1_555 1_555
Cu1J Cu3L 1_555 1_555
Cu1M N2 1_555 1_555
Cu2G Cu3 1_555 1_555
Cu2J Cu3L 1_555 1_555
Cu3E Cu1 1_555 1_555
Cu3Q Cu1L 1_555 1_555
I2G Cu3 1_555 1_555
I2J Cu3L 1_555 1_555
I3E Cu1 1_555 1_555
I3Q Cu1L 1_555 1_555
I4G Cu3 1_555 1_555
I4J Cu3L 1_555 1_555
N2B Cu1L 1_555 1_555
N2N Cu1 1_555 1_555
Cu2 I4 1_555 1_555
Cu2 Cu3E 1_555 1_555
I2 Cu3E 1_555 1_555
I3 Cu1G 1_555 1_555
I4 Cu3E 1_555 1_555
C1 N1 1_555 1_555
C3 N1 1_555 1_555
C4 N2 1_555 1_555
C5 N1 1_555 1_555
C6 N2 1_555 1_555
C7 N3 1_555 1_555
C11 C12 1_555 1_555
C12 N4 1_555 1_555
Cu1L I1L 1_555 1_555
Cu2L I4L 1_555 1_555
Cu2L Cu3Q 1_555 1_555
I2L Cu3Q 1_555 1_555
I3L Cu1J 1_555 1_555
I4L Cu3Q 1_555 1_555
C1L N1L 1_555 1_555
C3L N1L 1_555 1_555
C4L N2L 1_555 1_555
C5L N1L 1_555 1_555
C6L N2L 1_555 1_555
C7L N3L 1_555 1_555
C11L C12L 1_555 1_555
C12L N4L 1_555 1_555
Cu1G Cu2G 1_555 1_555
Cu1G I4G 1_555 1_555
Cu1J Cu2J 1_555 1_555
Cu1J I4J 1_555 1_555
Cu2G I2G 1_555 1_555
Cu2G I4G 1_555 1_555
Cu2J I2J 1_555 1_555
Cu2J I4J 1_555 1_555
Cu3E I3E 1_555 1_555
Cu3Q I3Q 1_555 1_555

#END
