
#######################################################################
#
#                 Cambridge Crystallographic Data Centre
#                                CCDC 
#
#######################################################################
#
# If this CIF has been generated from an entry in the Cambridge 
# Structural Database, then it will include bibliographic, chemical, 
# crystal, experimental, refinement or atomic coordinate data resulting 
# from the CCDC's data processing and validation procedures.
#
#######################################################################

data_IBUYAH
_chemical_formula_moiety         '(C74 H54 N14 O20 Zn4)n'
_symmetry_cell_setting           monoclinic
_symmetry_space_group_name_H-M   'P 21/c'
_symmetry_Int_Tables_number      14
_space_group_name_Hall           '-P 2ybc'
loop_
_symmetry_equiv_pos_site_id
_symmetry_equiv_pos_as_xyz
1 x,y,z
2 -x,1/2+y,1/2-z
3 -x,-y,-z
4 x,1/2-y,1/2+z
_cell_length_a                   17.7970(4)
_cell_length_b                   7.7300(2)
_cell_length_c                   26.6750(6)
_cell_angle_alpha                90
_cell_angle_beta                 93.466(2)
_cell_angle_gamma                90
_cell_volume                     3662.99
loop_
_atom_site_label
_atom_site_type_symbol
_atom_site_fract_x
_atom_site_fract_y
_atom_site_fract_z
Zn1 Zn 0.80343(2) -0.43200(4) -0.024002(13)
Zn2 Zn 0.69659(2) 0.02353(4) 0.036673(13)
C1 C 0.92569(17) -0.0288(4) 0.01192(10)
C2 C 0.97485(18) -0.1653(4) 0.00585(11)
H1 H 0.9574 -0.2774 0.0102
C3 C 0.95120(18) 0.1424(4) 0.00636(10)
C4 C 0.84661(18) -0.0701(4) 0.02393(10)
C5 C 0.90594(18) 0.3076(4) 0.01314(13)
C6 C 0.65589(19) -0.4585(4) -0.02638(13)
C7 C 0.57546(17) -0.4763(4) -0.01138(11)
C8 C 0.59066(19) -0.2511(4) 0.05783(12)
C9 C 0.54633(18) -0.3883(4) 0.02899(11)
C10 C 0.52831(18) -0.5857(4) -0.03946(11)
H2 H 0.5472 -0.6442 -0.0664
C11 C 1.2802(2) 0.6857(4) -0.10431(11)
H3 H 1.2320 0.6713 -0.0934
C12 C 1.3908(2) 0.7853(5) -0.11426(13)
H4 H 1.4336 0.8546 -0.1112
C13 C 1.3827(2) 0.6454(5) -0.14338(14)
H5 H 1.4182 0.6001 -0.1639
C14 C 1.27931(19) 0.4289(4) -0.15951(11)
C15 C 1.2331(2) 0.3273(4) -0.13241(12)
H6 H 1.2236 0.3580 -0.0997
C16 C 1.2010(2) 0.1805(5) -0.15336(12)
H7 H 1.1698 0.1127 -0.1347
C17 C 1.2146(2) 0.1324(4) -0.20223(11)
C18 C 1.2625(2) 0.2343(4) -0.22862(11)
H8 H 1.2732 0.2028 -0.2611
C19 C 1.2945(2) 0.3823(4) -0.20747(11)
H9 H 1.3263 0.4501 -0.2257
C20 C 1.2126(2) -0.1065(4) -0.26346(11)
C21 C 1.2863(2) -0.1527(5) -0.26042(12)
H10 H 1.3158 -0.1295 -0.2312
C22 C 1.3185(2) -0.2340(5) -0.30026(12)
H11 H 1.3691 -0.2644 -0.2980
C23 C 1.2744(2) -0.2690(4) -0.34323(11)
C24 C 1.1996(2) -0.2267(4) -0.34646(12)
H12 H 1.1699 -0.2532 -0.3753
C25 C 1.1683(2) -0.1443(4) -0.30671(12)
H13 H 1.1176 -0.1142 -0.3089
C26 C 1.2804(2) -0.3449(4) -0.43335(11)
H14 H 1.2361 -0.2893 -0.4444
C27 C 1.3732(2) -0.4439(5) -0.38435(13)
H15 H 1.4050 -0.4687 -0.3563
C28 C 1.3826(2) -0.4936(5) -0.43173(12)
H16 H 1.4221 -0.5610 -0.4420
C29 C 1.1098(2) -0.0730(5) -0.20714(11)
C30 C 1.0500(2) 0.0401(5) -0.20448(13)
H17 H 1.0544 0.1527 -0.2162
C31 C 0.9839(2) -0.0119(5) -0.18464(14)
H18 H 0.9445 0.0660 -0.1823
C32 C 0.9766(2) -0.1793(4) -0.16837(11)
C33 C 1.0333(2) -0.2949(5) -0.17259(12)
H19 H 1.0272 -0.4092 -0.1627
C34 C 1.1008(2) -0.2423(5) -0.19178(13)
H20 H 1.1399 -0.3211 -0.1943
C35 C 0.8383(2) -0.1714(5) -0.15786(13)
H21 H 0.8237 -0.1015 -0.1851
C36 C 0.9058(2) -0.3240(4) -0.10327(11)
H22 H 0.9469 -0.3777 -0.0866
C37 C 0.7932(2) -0.2359(5) -0.12362(13)
H23 H 0.7415 -0.2182 -0.1234
O1 O 0.82234(13) -0.2206(3) 0.01959(8)
O2 O 0.80730(12) 0.0539(3) 0.03898(8)
O4 O 0.91535(17) 0.3882(3) 0.05206(10)
O6 O 0.86531(13) 0.3560(3) -0.02509(8)
O8 O 0.70910(13) -0.5011(3) 0.00499(9)
O10 O 0.66710(15) -0.4127(4) -0.06924(10)
O11 O 0.64281(14) -0.1873(3) 0.03436(8)
O12 O 0.57348(16) -0.2058(4) 0.09946(9)
N1 N 1.17936(17) -0.0152(4) -0.22384(10)
N2 N 1.32624(16) 0.8112(3) -0.08954(9)
N3 N 1.31213(16) 0.5809(3) -0.13725(9)
N4 N 1.30793(17) -0.3499(3) -0.38508(9)
N5 N 1.32471(16) -0.4294(3) -0.46263(9)
N6 N 0.90922(16) -0.2279(4) -0.14493(9)
N7 N 0.83552(15) -0.3320(3) -0.08901(9)
Zn1B Zn 1.19657(2) 0.43200(4) 0.024002(13)
Zn1_2 Zn 0.80343(2) 0.56800(4) -0.024002(13)
Zn1B_2 Zn 1.19657(2) -0.56800(4) 0.024002(13)
Zn1B_3 Zn 0.19657(2) -0.56800(4) 0.024002(13)
Zn1B_4 Zn 1.19657(2) 1.43200(4) 0.024002(13)
Zn2B Zn 1.30341(2) -0.02353(4) -0.036673(13)
Zn2B_2 Zn 1.30341(2) 0.97647(4) -0.036673(13)
Zn2A Zn 1.30341(2) -0.47647(4) -0.536673(13)
Zn2B_3 Zn 0.30341(2) -1.02353(4) -0.036673(13)
Zn2C Zn 0.69659(2) 1.47647(4) 0.536673(13)
C1B C 1.07431(17) 0.0288(4) -0.01192(10)
C2B C 1.02515(18) 0.1653(4) -0.00585(11)
H1B H 1.0426 0.2774 -0.0102
C3B C 1.04880(18) -0.1424(4) -0.00636(10)
C4B C 1.15339(18) 0.0701(4) -0.02393(10)
C5B C 1.09406(18) -0.3076(4) -0.01314(13)
C6B C 0.34411(19) -0.5415(4) 0.02638(13)
C7B C 0.42454(17) -0.5237(4) 0.01138(11)
C8B C 0.40934(19) -0.7489(4) -0.05783(12)
C9B C 0.45367(18) -0.6117(4) -0.02899(11)
C10B C 0.47169(18) -0.4143(4) 0.03946(11)
H2B H 0.4528 -0.3558 0.0664
C11B C 0.7198(2) 0.3143(4) 0.10431(11)
H3B H 0.7680 0.3287 0.0934
C12B C 0.6092(2) 0.2147(5) 0.11426(13)
H4B H 0.5664 0.1454 0.1112
C13B C 0.6173(2) 0.3546(5) 0.14338(14)
H5B H 0.5818 0.3999 0.1639
C14B C 0.72069(19) 0.5711(4) 0.15951(11)
C15B C 0.7669(2) 0.6727(4) 0.13241(12)
H6B H 0.7764 0.6420 0.0997
C16B C 0.7990(2) 0.8195(5) 0.15336(12)
H7B H 0.8302 0.8873 0.1347
C17B C 0.7854(2) 0.8676(4) 0.20223(11)
C18B C 0.7375(2) 0.7657(4) 0.22862(11)
H8B H 0.7268 0.7972 0.2611
C19B C 0.7055(2) 0.6177(4) 0.20747(11)
H9B H 0.6737 0.5499 0.2257
C20B C 0.7874(2) 1.1065(4) 0.26346(11)
C21B C 0.7137(2) 1.1527(5) 0.26042(12)
H10B H 0.6842 1.1295 0.2312
C22B C 0.6815(2) 1.2340(5) 0.30026(12)
H11B H 0.6309 1.2644 0.2980
C23B C 0.7256(2) 1.2690(4) 0.34323(11)
C24B C 0.8004(2) 1.2267(4) 0.34646(12)
H12B H 0.8301 1.2532 0.3753
C25B C 0.8317(2) 1.1443(4) 0.30671(12)
H13B H 0.8824 1.1142 0.3089
C26B C 0.7196(2) 1.3449(4) 0.43335(11)
H14B H 0.7639 1.2893 0.4444
C27B C 0.6268(2) 1.4439(5) 0.38435(13)
H15B H 0.5950 1.4687 0.3563
C28B C 0.6174(2) 1.4936(5) 0.43173(12)
H16B H 0.5779 1.5610 0.4420
C29B C 0.8902(2) 1.0730(5) 0.20714(11)
C30B C 0.9500(2) 0.9599(5) 0.20448(13)
H17B H 0.9456 0.8473 0.2162
C31B C 1.0161(2) 1.0119(5) 0.18464(14)
H18B H 1.0555 0.9340 0.1823
C32B C 1.0234(2) 1.1793(4) 0.16837(11)
C33B C 0.9667(2) 1.2949(5) 0.17259(12)
H19B H 0.9728 1.4092 0.1627
C34B C 0.8992(2) 1.2423(5) 0.19178(13)
H20B H 0.8601 1.3211 0.1943
C35B C 1.1617(2) 1.1714(5) 0.15786(13)
H21B H 1.1763 1.1015 0.1851
C36B C 1.0942(2) 1.3240(4) 0.10327(11)
H22B H 1.0531 1.3777 0.0866
C37B C 1.2068(2) 1.2359(5) 0.12362(13)
H23B H 1.2585 1.2182 0.1234
O1B O 1.17766(13) 0.2206(3) -0.01959(8)
O2B O 1.19270(12) -0.0539(3) -0.03898(8)
O4B O 1.08465(17) -0.3882(3) -0.05206(10)
O6B O 1.13469(13) -0.3560(3) 0.02509(8)
O6_2 O 0.86531(13) -0.6440(3) -0.02509(8)
O6B_2 O 1.13469(13) 0.6440(3) 0.02509(8)
O8B O 0.29090(13) -0.4989(3) -0.00499(9)
O8B_2 O 1.29090(13) 0.5011(3) -0.00499(9)
O10B O 0.33290(15) -0.5873(4) 0.06924(10)
O11B O 0.35719(14) -0.8127(3) -0.03436(8)
O11B_2 O 1.35719(14) 0.1873(3) -0.03436(8)
O12B O 0.42652(16) -0.7942(4) -0.09946(9)
N1B N 0.82064(17) 1.0152(4) 0.22384(10)
N2B N 0.67376(16) 0.1888(3) 0.08954(9)
N2_2 N 1.32624(16) -0.1888(3) -0.08954(9)
N3B N 0.68787(16) 0.4191(3) 0.13725(9)
N4B N 0.69207(17) 1.3499(3) 0.38508(9)
N5B N 0.67529(16) 1.4294(3) 0.46263(9)
N5A N 0.67529(16) 0.0706(3) -0.03737(9)
N5C N 1.32471(16) -0.0706(3) 0.03737(9)
N6B N 1.09078(16) 1.2279(4) 0.14493(9)
N7B N 1.16448(15) 1.3320(3) 0.08901(9)
N7B_2 N 1.16448(15) 0.3320(3) 0.08901(9)
O3 O 0.5770(2) -0.3846(6) -0.15810(14)
O5 O 0.5397(3) 1.6072(7) 0.27763(14)
O7 O 0.5095(3) -0.2558(10) 0.18620(16)
O9 O 0.9764(7) 1.6587(15) 0.1155(4)
loop_
_geom_bond_atom_site_label_1
_geom_bond_atom_site_label_2
_geom_bond_site_symmetry_1
_geom_bond_site_symmetry_2
Zn1 O1 1_555 1_555
Zn2 O2 1_555 1_555
C1 C2 1_555 1_555
C2 H1 1_555 1_555
C3 C1 1_555 1_555
C4 C1 1_555 1_555
C5 C3 1_555 1_555
C6 C7 1_555 1_555
C7 C9 1_555 1_555
C8 C9 1_555 1_555
C9 C10B 1_555 1_555
C10 C7 1_555 1_555
H2 C10 1_555 1_555
C11 H3 1_555 1_555
C12 H4 1_555 1_555
C13 C12 1_555 1_555
H5 C13 1_555 1_555
C14 C15 1_555 1_555
C15 H6 1_555 1_555
C16 C15 1_555 1_555
H7 C16 1_555 1_555
C17 C16 1_555 1_555
C18 C17 1_555 1_555
H8 C18 1_555 1_555
C19 C14 1_555 1_555
H9 C19 1_555 1_555
C20 C21 1_555 1_555
C21 H10 1_555 1_555
C22 C21 1_555 1_555
H11 C22 1_555 1_555
C23 C22 1_555 1_555
C24 C23 1_555 1_555
H12 C24 1_555 1_555
C25 C20 1_555 1_555
H13 C25 1_555 1_555
C26 H14 1_555 1_555
C27 H15 1_555 1_555
C28 C27 1_555 1_555
H16 C28 1_555 1_555
C29 C30 1_555 1_555
C30 H17 1_555 1_555
C31 C30 1_555 1_555
H18 C31 1_555 1_555
C32 C31 1_555 1_555
C33 C32 1_555 1_555
H19 C33 1_555 1_555
C34 C29 1_555 1_555
H20 C34 1_555 1_555
C35 H21 1_555 1_555
C36 H22 1_555 1_555
C37 C35 1_555 1_555
H23 C37 1_555 1_555
O1 C4 1_555 1_555
O2 C4 1_555 1_555
O4 C5 1_555 1_555
O6 C5 1_555 1_555
O8 Zn1 1_555 1_555
O10 C6 1_555 1_555
O11 Zn2 1_555 1_555
O12 C8 1_555 1_555
N1 C17 1_555 1_555
N2 C11 1_555 1_555
N3 C11 1_555 1_555
N4 C23 1_555 1_555
N5 C26 1_555 1_555
N6 C32 1_555 1_555
N7 Zn1 1_555 1_555
Zn1B O1B 1_555 1_555
Zn1_2 O6 1_555 1_555
Zn1B_2 O6B 1_555 1_555
Zn1B_3 O8B 1_555 1_555
Zn1B_4 N7B 1_555 1_555
Zn2B O2B 1_555 1_555
Zn2B_2 N2 1_555 1_555
Zn2A N5 1_555 1_555
Zn2B_3 O11B 1_555 1_555
Zn2C N5B 1_555 1_555
C1B C2B 1_555 1_555
C2B C3 1_555 1_555
H1B C2B 1_555 1_555
C3B C2 1_555 1_555
C4B C1B 1_555 1_555
C5B C3B 1_555 1_555
C6B C7B 1_555 1_555
C7B C9B 1_555 1_555
C8B C9B 1_555 1_555
C9B C10 1_555 1_555
C10B C7B 1_555 1_555
H2B C10B 1_555 1_555
C11B H3B 1_555 1_555
C12B H4B 1_555 1_555
C13B C12B 1_555 1_555
H5B C13B 1_555 1_555
C14B C15B 1_555 1_555
C15B H6B 1_555 1_555
C16B C15B 1_555 1_555
H7B C16B 1_555 1_555
C17B C16B 1_555 1_555
C18B C17B 1_555 1_555
H8B C18B 1_555 1_555
C19B C14B 1_555 1_555
H9B C19B 1_555 1_555
C20B C21B 1_555 1_555
C21B H10B 1_555 1_555
C22B C21B 1_555 1_555
H11B C22B 1_555 1_555
C23B C22B 1_555 1_555
C24B C23B 1_555 1_555
H12B C24B 1_555 1_555
C25B C20B 1_555 1_555
H13B C25B 1_555 1_555
C26B H14B 1_555 1_555
C27B H15B 1_555 1_555
C28B C27B 1_555 1_555
H16B C28B 1_555 1_555
C29B C30B 1_555 1_555
C30B H17B 1_555 1_555
C31B C30B 1_555 1_555
H18B C31B 1_555 1_555
C32B C31B 1_555 1_555
C33B C32B 1_555 1_555
H19B C33B 1_555 1_555
C34B C29B 1_555 1_555
H20B C34B 1_555 1_555
C35B H21B 1_555 1_555
C36B H22B 1_555 1_555
C37B C35B 1_555 1_555
H23B C37B 1_555 1_555
O1B C4B 1_555 1_555
O2B C4B 1_555 1_555
O4B C5B 1_555 1_555
O6B C5B 1_555 1_555
O6_2 Zn1 1_555 1_555
O6B_2 Zn1B 1_555 1_555
O8B C6B 1_555 1_555
O8B_2 Zn1B 1_555 1_555
O10B C6B 1_555 1_555
O11B C8B 1_555 1_555
O11B_2 Zn2B 1_555 1_555
O12B C8B 1_555 1_555
N1B C17B 1_555 1_555
N2B Zn2 1_555 1_555
N2_2 Zn2B 1_555 1_555
N3B C11B 1_555 1_555
N4B C23B 1_555 1_555
N5B C26B 1_555 1_555
N5A Zn2 1_555 1_555
N5C Zn2B 1_555 1_555
N6B C32B 1_555 1_555
N7B C36B 1_555 1_555
N7B_2 Zn1B 1_555 1_555
C6 O8 1_555 1_555
C8 O11 1_555 1_555
C12 N2 1_555 1_555
C13 N3 1_555 1_555
C14 N3 1_555 1_555
C18 C19 1_555 1_555
C20 N1 1_555 1_555
C24 C25 1_555 1_555
C26 N4 1_555 1_555
C27 N4 1_555 1_555
C28 N5 1_555 1_555
C29 N1 1_555 1_555
C33 C34 1_555 1_555
C35 N6 1_555 1_555
C36 N6 1_555 1_555
C36 N7 1_555 1_555
C37 N7 1_555 1_555
C1B C3B 1_555 1_555
C11B N2B 1_555 1_555
C12B N2B 1_555 1_555
C13B N3B 1_555 1_555
C14B N3B 1_555 1_555
C18B C19B 1_555 1_555
C20B N1B 1_555 1_555
C24B C25B 1_555 1_555
C26B N4B 1_555 1_555
C27B N4B 1_555 1_555
C28B N5B 1_555 1_555
C29B N1B 1_555 1_555
C33B C34B 1_555 1_555
C35B N6B 1_555 1_555
C36B N6B 1_555 1_555
C37B N7B 1_555 1_555

#END
