
#######################################################################
#
#                 Cambridge Crystallographic Data Centre
#                                CCDC 
#
#######################################################################
#
# If this CIF has been generated from an entry in the Cambridge 
# Structural Database, then it will include bibliographic, chemical, 
# crystal, experimental, refinement or atomic coordinate data resulting 
# from the CCDC's data processing and validation procedures.
#
#######################################################################

data_GIYSAJ02
_chemical_formula_moiety         '(C51 H24 F18 La2 O12)n'
_symmetry_cell_setting           monoclinic
_symmetry_space_group_name_H-M   'P 21/n'
_symmetry_Int_Tables_number      14
_space_group_name_Hall           '-P 2yn'
loop_
_symmetry_equiv_pos_site_id
_symmetry_equiv_pos_as_xyz
1 x,y,z
2 1/2-x,1/2+y,1/2-z
3 -x,-y,-z
4 1/2+x,1/2-y,1/2+z
_cell_length_a                   7.5600(3)
_cell_length_b                   24.8914(10)
_cell_length_c                   29.6752(12)
_cell_angle_alpha                90
_cell_angle_beta                 90.8540(10)
_cell_angle_gamma                90
_cell_volume                     5583.63
loop_
_atom_site_label
_atom_site_type_symbol
_atom_site_fract_x
_atom_site_fract_y
_atom_site_fract_z
C1 C 0.8038(17) 0.7392(5) -0.0799(4)
C2 C 0.6840(15) 0.7410(5) -0.1182(4)
C3 C 0.7349(16) 0.7662(6) -0.1562(4)
H1 H 0.8430 0.7840 -0.1567
C4 C 0.6277(17) 0.7656(6) -0.1943(4)
H2 H 0.6640 0.7838 -0.2199
C5 C 0.4674(15) 0.7386(5) -0.1951(4)
C6 C 0.4128(17) 0.7145(6) -0.1559(4)
H3 H 0.3032 0.6975 -0.1555
C7 C 0.5144(16) 0.7148(5) -0.1181(4)
H4 H 0.4749 0.6981 -0.0921
C8 C 0.3546(15) 0.7392(5) -0.2391(4)
C9 C 0.2282(18) 0.7889(6) -0.2353(4)
C10 C 0.2438(17) 0.6868(6) -0.2433(4)
C11 C 0.4692(16) 0.7413(5) -0.2817(4)
C12 C 0.6161(17) 0.7087(6) -0.2845(4)
H5 H 0.6405 0.6845 -0.2614
C13 C 0.7283(17) 0.7114(6) -0.3210(4)
H6 H 0.8310 0.6908 -0.3212
C14 C 0.6877(13) 0.7444(5) -0.3569(4)
C15 C 0.5335(16) 0.7756(5) -0.3547(4)
H7 H 0.5026 0.7981 -0.3785
C16 C 0.4282(16) 0.7731(6) -0.3176(4)
H8 H 0.3257 0.7938 -0.3169
C17 C 0.8099(17) 0.7501(5) -0.3954(4)
C18 C 2.2079(16) 0.3641(5) -0.0704(4)
C19 C 2.0941(15) 0.4043(4) -0.0936(4)
C20 C 1.9217(16) 0.4143(5) -0.0795(4)
H9 H 1.8761 0.3959 -0.0550
C21 C 1.8208(16) 0.4513(5) -0.1021(5)
H10 H 1.7055 0.4569 -0.0926
C22 C 1.8790(15) 0.4803(5) -0.1373(4)
C23 C 2.0508(17) 0.4708(6) -0.1515(5)
H11 H 2.0959 0.4902 -0.1754
C24 C 2.1551(15) 0.4324(5) -0.1301(4)
H12 H 2.2682 0.4257 -0.1406
C25 C 1.7516(15) 0.5203(5) -0.1614(4)
C26 C 1.8475(18) 0.5680(7) -0.1834(5)
C27 C 1.654(2) 0.4881(7) -0.1980(5)
C28 C 1.6245(15) 0.5463(4) -0.1265(4)
C29 C 1.6963(15) 0.5670(5) -0.0866(4)
H13 H 1.8171 0.5634 -0.0810
C30 C 1.5943(16) 0.5923(5) -0.0556(4)
H14 H 1.6458 0.6059 -0.0293
C31 C 1.4174(15) 0.5978(5) -0.0631(4)
C32 C 1.3424(16) 0.5770(6) -0.1028(5)
H15 H 1.2216 0.5810 -0.1082
C33 C 1.4431(16) 0.5510(5) -0.1340(4)
H16 H 1.3909 0.5366 -0.1599
C34 C 1.2953(17) 0.6300(5) -0.0339(4)
C35 C 1.0809(14) 1.1819(5) -0.0402(4)
C36 C 1.1232(16) 1.1328(5) -0.0671(4)
C37 C 1.0587(19) 1.0833(5) -0.0525(5)
H17 H 0.9903 1.0814 -0.0268
C38 C 1.097(2) 1.0377(6) -0.0763(5)
H18 H 1.0577 1.0046 -0.0658
C39 C 1.190(2) 1.0401(5) -0.1150(4)
C40 C 1.255(2) 1.0887(5) -0.1305(5)
H19 H 1.3182 1.0905 -0.1571
C41 C 1.2216(18) 1.1346(6) -0.1053(4)
H20 H 1.2677 1.1674 -0.1147
C42 C 1.208(2) 0.9872(6) -0.1427(4)
C43 C 1.027(3) 0.9764(6) -0.1665(6)
C44 C 1.345(3) 0.9914(6) -0.1791(5)
C45 C 1.264(2) 0.9404(5) -0.1115(5)
C46 C 1.200(2) 0.8881(6) -0.1185(5)
H21 H 1.1240 0.8809 -0.1426
C47 C 1.2504(17) 0.8473(5) -0.0896(4)
H22 H 1.2060 0.8129 -0.0943
C48 C 1.3631(15) 0.8563(5) -0.0546(4)
C49 C 1.4341(19) 0.9075(6) -0.0492(5)
H23 H 1.5160 0.9138 -0.0261
C50 C 1.386(2) 0.9489(5) -0.0771(5)
H24 H 1.4361 0.9828 -0.0731
C51 C 1.4114(16) 0.8136(5) -0.0224(4)
F1 F 0.1468(11) 0.7894(4) -0.1954(3)
F2 F 0.3175(12) 0.8340(3) -0.2392(3)
F3 F 0.1013(11) 0.7880(4) -0.2667(3)
F4 F 0.1053(10) 0.6862(4) -0.2149(3)
F5 F 0.3389(12) 0.6443(4) -0.2358(3)
F6 F 0.1698(11) 0.6826(4) -0.2850(3)
F7 F 1.9640(11) 0.5910(4) -0.1549(3)
F8 F 1.7369(11) 0.6058(4) -0.1967(3)
F9 F 1.9378(13) 0.5533(4) -0.2195(3)
F10 F 1.5527(12) 0.5189(5) -0.2246(3)
F11 F 1.7662(11) 0.4621(4) -0.2236(3)
F12 F 1.5492(11) 0.4514(4) -0.1789(3)
F13 F 0.9569(18) 1.0227(4) -0.1847(4)
F14 F 0.9020(17) 0.9614(5) -0.1364(4)
F15 F 1.0257(19) 0.9405(4) -0.1983(3)
F16 F 1.286(2) 1.0240(4) -0.2133(3)
F17 F 1.367(2) 0.9430(4) -0.1997(4)
F18 F 1.4999(16) 1.0076(4) -0.1624(4)
La1 La 1.06301(8) 0.72139(3) -0.00250(2)
La2 La 0.56690(8) 0.72579(3) 0.03277(2)
O1 O 0.9669(11) 0.7459(4) -0.0809(3)
O2 O 0.7409(9) 0.7244(3) -0.0397(2)
O3 O 0.9641(11) 0.7346(4) -0.3933(3)
O4 O 0.7517(10) 0.7715(3) -0.4327(2)
O5 O 2.3571(12) 0.3529(4) -0.0855(3)
O6 O 2.1496(10) 0.3386(3) -0.0366(3)
O7 O 1.1360(12) 0.6349(4) -0.0426(3)
O8 O 1.3677(11) 0.6571(3) -0.0016(3)
O9 O 0.9808(13) 1.1803(4) -0.0104(3)
O10 O 1.1537(10) 1.2270(3) -0.0505(3)
O11 O 1.5296(12) 0.8207(3) 0.0067(3)
O12 O 1.3396(9) 0.7665(3) -0.0250(2)
La1C La 0.56301(8) 0.77861(3) -0.50250(2)
La1B La 1.93699(8) 0.27861(3) 0.00250(2)
La1B_2 La 0.93699(8) 1.27861(3) 0.00250(2)
La2C La 1.06690(8) 0.77421(3) -0.46723(2)
La2B La 2.43310(8) 0.27421(3) -0.03277(2)
La2_2 La 1.56690(8) 0.72579(3) 0.03277(2)
La2B_2 La 1.43310(8) 1.27421(3) -0.03277(2)
O3C O 0.4641(11) 0.7654(4) 0.1067(3)
O4C O 1.2517(10) 0.7285(3) 0.0673(2)
O4C_2 O 0.2517(10) 0.7285(3) 0.0673(2)
O5B O 0.6429(12) 0.6471(4) 0.0855(3)
O6B O 0.8504(10) 0.6614(3) 0.0366(3)
O8_2 O 0.3677(11) 0.6571(3) -0.0016(3)
O9B O 1.0192(13) 0.8197(4) 0.0104(3)
O10B O 0.8463(10) 0.7730(3) 0.0505(3)
O11_2 O 0.5296(12) 0.8207(3) 0.0067(3)
O12_2 O 0.3396(9) 0.7665(3) -0.0250(2)
loop_
_geom_bond_atom_site_label_1
_geom_bond_atom_site_label_2
_geom_bond_site_symmetry_1
_geom_bond_site_symmetry_2
C1 C2 1_555 1_555
C2 C3 1_555 1_555
C3 H1 1_555 1_555
C4 C3 1_555 1_555
H2 C4 1_555 1_555
C5 C4 1_555 1_555
C6 C5 1_555 1_555
H3 C6 1_555 1_555
C7 C2 1_555 1_555
H4 C7 1_555 1_555
C8 C5 1_555 1_555
C9 C8 1_555 1_555
C10 C8 1_555 1_555
C11 C8 1_555 1_555
C12 C11 1_555 1_555
H5 C12 1_555 1_555
C13 C12 1_555 1_555
H6 C13 1_555 1_555
C14 C13 1_555 1_555
C15 C14 1_555 1_555
H7 C15 1_555 1_555
C16 C11 1_555 1_555
H8 C16 1_555 1_555
C17 C14 1_555 1_555
C18 C19 1_555 1_555
C19 C20 1_555 1_555
C20 H9 1_555 1_555
C21 C20 1_555 1_555
H10 C21 1_555 1_555
C22 C21 1_555 1_555
C23 C22 1_555 1_555
H11 C23 1_555 1_555
C24 C19 1_555 1_555
H12 C24 1_555 1_555
C25 C22 1_555 1_555
C26 C25 1_555 1_555
C27 C25 1_555 1_555
C28 C25 1_555 1_555
C29 C28 1_555 1_555
H13 C29 1_555 1_555
C30 C29 1_555 1_555
H14 C30 1_555 1_555
C31 C30 1_555 1_555
C32 C31 1_555 1_555
H15 C32 1_555 1_555
C33 C28 1_555 1_555
H16 C33 1_555 1_555
C34 C31 1_555 1_555
C35 C36 1_555 1_555
C36 C37 1_555 1_555
C37 H17 1_555 1_555
C38 C37 1_555 1_555
H18 C38 1_555 1_555
C39 C38 1_555 1_555
C40 C39 1_555 1_555
H19 C40 1_555 1_555
C41 C36 1_555 1_555
H20 C41 1_555 1_555
C42 C39 1_555 1_555
C43 C42 1_555 1_555
C44 C42 1_555 1_555
C45 C42 1_555 1_555
C46 C45 1_555 1_555
H21 C46 1_555 1_555
C47 C46 1_555 1_555
H22 C47 1_555 1_555
C48 C47 1_555 1_555
C49 C48 1_555 1_555
H23 C49 1_555 1_555
C50 C45 1_555 1_555
H24 C50 1_555 1_555
C51 C48 1_555 1_555
F1 C9 1_555 1_555
F2 C9 1_555 1_555
F3 C9 1_555 1_555
F4 C10 1_555 1_555
F5 C10 1_555 1_555
F6 C10 1_555 1_555
F7 C26 1_555 1_555
F8 C26 1_555 1_555
F9 C26 1_555 1_555
F10 C27 1_555 1_555
F11 C27 1_555 1_555
F12 C27 1_555 1_555
F13 C43 1_555 1_555
F14 C43 1_555 1_555
F15 C43 1_555 1_555
F16 C44 1_555 1_555
F17 C44 1_555 1_555
F18 C44 1_555 1_555
La1 O1 1_555 1_555
La2 O2 1_555 1_555
O1 C1 1_555 1_555
O2 C1 1_555 1_555
O3 C17 1_555 1_555
O4 C17 1_555 1_555
O5 C18 1_555 1_555
O6 C18 1_555 1_555
O7 C34 1_555 1_555
O8 C34 1_555 1_555
O9 C35 1_555 1_555
O10 C35 1_555 1_555
O11 C51 1_555 1_555
O12 C51 1_555 1_555
La1C O4 1_555 1_555
La1B O6 1_555 1_555
La1B_2 O9 1_555 1_555
La2C O3 1_555 1_555
La2B O5 1_555 1_555
La2_2 O8 1_555 1_555
La2B_2 O10 1_555 1_555
O3C La2 1_555 1_555
O4C La1 1_555 1_555
O4C_2 La2 1_555 1_555
O5B La2 1_555 1_555
O6B La1 1_555 1_555
O8_2 La2 1_555 1_555
O9B La1 1_555 1_555
O10B La1 1_555 1_555
O11_2 La2 1_555 1_555
O12_2 La2 1_555 1_555
C6 C7 1_555 1_555
C15 C16 1_555 1_555
C23 C24 1_555 1_555
C32 C33 1_555 1_555
C40 C41 1_555 1_555
C49 C50 1_555 1_555
La1 O2 1_555 1_555
La1 O7 1_555 1_555
La1 O8 1_555 1_555
La1 O12 1_555 1_555
La2 O6B 1_555 1_555
La2 O10B 1_555 1_555
O4 La2C 1_555 1_555
O6 La2B 1_555 1_555
O10 La1B_2 1_555 1_555
O11 La2_2 1_555 1_555
O12 La2_2 1_555 1_555
La2_2 O4C 1_555 1_555

#END
