
#######################################################################
#
#                 Cambridge Crystallographic Data Centre
#                                CCDC 
#
#######################################################################
#
# If this CIF has been generated from an entry in the Cambridge 
# Structural Database, then it will include bibliographic, chemical, 
# crystal, experimental, refinement or atomic coordinate data resulting 
# from the CCDC's data processing and validation procedures.
#
#######################################################################

data_PARHEW
_chemical_formula_moiety         '(C24 H36 Ca2 N2 O12)n'
_symmetry_cell_setting           monoclinic
_symmetry_space_group_name_H-M   'P 21/c'
_symmetry_Int_Tables_number      14
_space_group_name_Hall           '-P 2ybc'
loop_
_symmetry_equiv_pos_site_id
_symmetry_equiv_pos_as_xyz
1 x,y,z
2 -x,1/2+y,1/2-z
3 -x,-y,-z
4 x,1/2-y,1/2+z
_cell_length_a                   16.8008(8)
_cell_length_b                   15.0736(7)
_cell_length_c                   7.7536(3)
_cell_angle_alpha                90
_cell_angle_beta                 99.799(3)
_cell_angle_gamma                90
_cell_volume                     1934.94
loop_
_atom_site_label
_atom_site_type_symbol
_atom_site_fract_x
_atom_site_fract_y
_atom_site_fract_z
C1 C -0.84617(9) -0.09572(10) -0.3222(2)
H1 H -0.8041 -0.0532 -0.3268
C2 C -0.92222(9) -0.08389(11) -0.4203(2)
H2 H -0.9338 -0.0339 -0.4973
C3 C -0.96963(9) -0.21185(10) -0.31697(19)
H3 H -1.0143 -0.2516 -0.3181
N1 N -0.98375(7) -0.14007(9) -0.41909(15)
C4 C -0.89492(9) -0.22959(10) -0.21467(19)
H4 H -0.8877 -0.2834 -0.1476
C5 C -0.83139(9) -0.17085(10) -0.21608(19)
C6 C -0.75041(9) -0.18531(11) -0.1006(2)
H5 H -0.7093 -0.1721 -0.1690
H6 H -0.7454 -0.2475 -0.0741
C7 C -0.74232(8) -0.12969(10) 0.06540(19)
H7 H -0.7497 -0.0684 0.0327
H8 H -0.7862 -0.1424 0.1264
C8 C -0.66298(9) -0.13880(10) 0.18941(19)
C9 C -0.60370(9) -0.19940(11) 0.16541(19)
H9 H -0.6122 -0.2388 0.0666
C10 C -0.53143(9) -0.20170(11) 0.28323(19)
H10 H -0.4905 -0.2434 0.2651
N2 N -0.51535(7) -0.14790(9) 0.42190(16)
C11 C -0.57335(9) -0.09009(11) 0.4459(2)
H11 H -0.5590 -0.0512 0.5444
C12 C -0.64648(9) -0.08347(10) 0.33586(19)
H12 H -0.6856 -0.0405 0.3584
Ca1 Ca -0.249500(14) -0.219110(18) -0.50477(3)
O1 O -0.14428(6) -0.33237(7) -0.43701(12)
O2 O -0.19169(5) -0.32674(6) -0.71919(12)
C13 C -0.14754(8) -0.36197(9) -0.58984(17)
C14 C -0.09851(8) -0.44353(10) -0.61902(18)
H13 H -0.1345 -0.4928 -0.6162
H14 H -0.0870 -0.4401 -0.7360
C15 C -0.02175(8) -0.45694(10) -0.48571(18)
H15 H 0.0355 -0.5434 -0.6295
H16 H -0.0144 -0.5923 -0.5129
O3 O -0.30662(5) -0.32718(6) -0.28984(12)
O4 O -0.35421(6) -0.33461(7) -0.57193(12)
C16 C -0.35059(8) -0.36326(9) -0.41810(17)
C17 C -0.39990(8) -0.44455(10) -0.38609(18)
H17 H -0.3631 -0.4937 -0.3793
H18 H -0.4135 -0.4381 -0.2714
C18 C -0.47455(8) -0.46147(9) -0.52449(18)
H19 H -0.4578 -0.4731 -0.6347
H20 H -0.5084 -0.4098 -0.5432
O5 O 0.35230(5) -0.87215(7) -0.58250(12)
H21 H 0.3528 -0.8696 -0.6918
H22 H 0.4015 -0.8642 -0.5369
O6 O 0.14759(5) -0.87493(7) -0.40800(12)
H23 H 0.1447 -0.8693 -0.3002
H24 H 0.0988 -0.8698 -0.4589
Ca1C Ca -0.249500(14) -0.280890(18) -1.00477(3)
Ca1B Ca 0.249500(14) -0.780890(18) -0.49523(3)
Ca1A Ca 0.249500(14) -0.719110(18) 0.00477(3)
Ca1C_2 Ca -0.249500(14) -0.280890(18) -0.00477(3)
Ca1A_2 Ca -0.750500(14) -0.719110(18) -0.99523(3)
Ca1B_2 Ca -0.750500(14) -0.780890(18) -0.49523(3)
O1B O 0.14428(6) -0.66763(7) -0.56299(12)
O2B O 0.19169(5) -0.67326(6) -0.28081(12)
O2A O 0.19169(5) -0.82674(6) -0.78081(12)
O2C O -0.19169(5) -0.17326(6) -0.21919(12)
C13B C 0.14754(8) -0.63803(9) -0.41016(17)
C14B C 0.09851(8) -0.55647(10) -0.38098(18)
H13B H 0.1345 -0.5072 -0.3838
H14B H 0.0870 -0.5599 -0.2640
C15B C 0.02175(8) -0.54306(10) -0.51429(18)
H15B H -0.0355 -0.4566 -0.3705
H16B H 0.0144 -0.4077 -0.4871
O3A O 0.30662(5) -0.82718(6) -0.21016(12)
O3B O 0.30662(5) -0.67282(6) -0.71016(12)
O3C O -0.30662(5) -0.17282(6) -0.78984(12)
O3B_2 O -0.69338(5) -0.67282(6) -0.71016(12)
O4B O 0.35421(6) -0.66539(7) -0.42807(12)
O4B_2 O -0.64579(6) -0.66539(7) -0.42807(12)
C16B C -0.64941(8) -0.63674(9) -0.58190(17)
C17B C -0.60010(8) -0.55545(10) -0.61391(18)
H17B H -0.6369 -0.5063 -0.6207
H18B H -0.5865 -0.5619 -0.7286
C18B C -0.52545(8) -0.53853(9) -0.47551(18)
H19B H -0.5422 -0.5269 -0.3653
H20B H -0.4916 -0.5902 -0.4568
O5B O -0.35230(5) -0.12785(7) -0.41750(12)
H21B H -0.3528 -0.1304 -0.3082
H22B H -0.4015 -0.1358 -0.4631
O6B O -0.14759(5) -0.12507(7) -0.59200(12)
H23B H -0.1447 -0.1307 -0.6998
H24B H -0.0988 -0.1302 -0.5411
loop_
_geom_bond_atom_site_label_1
_geom_bond_atom_site_label_2
_geom_bond_site_symmetry_1
_geom_bond_site_symmetry_2
C1 H1 1_555 1_555
C2 C1 1_555 1_555
H2 C2 1_555 1_555
C3 H3 1_555 1_555
N1 C2 1_555 1_555
C4 C3 1_555 1_555
H4 C4 1_555 1_555
C5 C1 1_555 1_555
C6 C5 1_555 1_555
H5 C6 1_555 1_555
H6 C6 1_555 1_555
C7 C6 1_555 1_555
H7 C7 1_555 1_555
H8 C7 1_555 1_555
C8 C7 1_555 1_555
C9 C8 1_555 1_555
H9 C9 1_555 1_555
C10 C9 1_555 1_555
H10 C10 1_555 1_555
N2 C10 1_555 1_555
C11 N2 1_555 1_555
H11 C11 1_555 1_555
C12 C8 1_555 1_555
H12 C12 1_555 1_555
Ca1 O1 1_555 1_555
O1 C13 1_555 1_555
O2 Ca1 1_555 1_555
C13 O2 1_555 1_555
C14 C13 1_555 1_555
H13 C14 1_555 1_555
H14 C14 1_555 1_555
C15 C14 1_555 1_555
H15 C15B 1_555 1_555
H16 C15B 1_555 1_555
O3 Ca1 1_555 1_555
O4 Ca1 1_555 1_555
C16 O3 1_555 1_555
C17 C16 1_555 1_555
H17 C17 1_555 1_555
H18 C17 1_555 1_555
C18 C17 1_555 1_555
H19 C18 1_555 1_555
H20 C18 1_555 1_555
O5 H21 1_555 1_555
H22 O5 1_555 1_555
O6 H23 1_555 1_555
H24 O6 1_555 1_555
Ca1C O2 1_555 1_555
Ca1B O5 1_555 1_555
Ca1A O2B 1_555 1_555
Ca1C_2 O3 1_555 1_555
Ca1A_2 O3B_2 1_555 1_555
Ca1B_2 O3B_2 1_555 1_555
O1B Ca1B 1_555 1_555
O2B Ca1B 1_555 1_555
O2A Ca1B 1_555 1_555
O2C Ca1 1_555 1_555
C13B O1B 1_555 1_555
C14B C13B 1_555 1_555
H13B C14B 1_555 1_555
H14B C14B 1_555 1_555
C15B C15 1_555 1_555
H15B C15 1_555 1_555
H16B C15 1_555 1_555
O3A Ca1B 1_555 1_555
O3B Ca1B 1_555 1_555
O3C Ca1 1_555 1_555
O3B_2 C16B 1_555 1_555
O4B Ca1B 1_555 1_555
O4B_2 Ca1B_2 1_555 1_555
C16B O4B_2 1_555 1_555
C17B C16B 1_555 1_555
H17B C17B 1_555 1_555
H18B C17B 1_555 1_555
C18B C18 1_555 1_555
H19B C18B 1_555 1_555
H20B C18B 1_555 1_555
O5B Ca1 1_555 1_555
H21B O5B 1_555 1_555
H22B O5B 1_555 1_555
O6B Ca1 1_555 1_555
H23B O6B 1_555 1_555
H24B O6B 1_555 1_555
C3 N1 1_555 1_555
C4 C5 1_555 1_555
C11 C12 1_555 1_555
O4 C16 1_555 1_555
O6 Ca1B 1_555 1_555
Ca1C O3C 1_555 1_555
Ca1A O3A 1_555 1_555
Ca1C_2 O2C 1_555 1_555
O2B C13B 1_555 1_555
C14B C15B 1_555 1_555
C17B C18B 1_555 1_555

#END
