
#######################################################################
#
#                 Cambridge Crystallographic Data Centre
#                                CCDC 
#
#######################################################################
#
# If this CIF has been generated from an entry in the Cambridge 
# Structural Database, then it will include bibliographic, chemical, 
# crystal, experimental, refinement or atomic coordinate data resulting 
# from the CCDC's data processing and validation procedures.
#
#######################################################################

data_NUWPOM
_chemical_formula_moiety         '(C1 H6 Cl1 Mg2 O7)n'
_symmetry_cell_setting           rhombohedral
_symmetry_space_group_name_H-M   'R 3 c'
_symmetry_Int_Tables_number      161
_space_group_name_Hall           'R 3 -2"c'
loop_
_symmetry_equiv_pos_site_id
_symmetry_equiv_pos_as_xyz
1 x,y,z
2 -y,x-y,z
3 -x+y,-x,z
4 -x+y,y,1/2+z
5 x,x-y,1/2+z
6 -y,-x,1/2+z
7 2/3+x,1/3+y,1/3+z
8 2/3-y,1/3+x-y,1/3+z
9 2/3-x+y,1/3-x,1/3+z
10 2/3-x+y,1/3+y,5/6+z
11 2/3+x,1/3+x-y,5/6+z
12 2/3-y,1/3-x,5/6+z
13 1/3+x,2/3+y,2/3+z
14 1/3-y,2/3+x-y,2/3+z
15 1/3-x+y,2/3-x,2/3+z
16 1/3-x+y,2/3+y,1/6+z
17 1/3+x,2/3+x-y,1/6+z
18 1/3-y,2/3-x,1/6+z
_cell_length_a                   23.14422(16)
_cell_length_b                   23.14422(16)
_cell_length_c                   7.22333(5)
_cell_angle_alpha                90
_cell_angle_beta                 90
_cell_angle_gamma                120
_cell_volume                     3350.84
loop_
_atom_site_label
_atom_site_type_symbol
_atom_site_fract_x
_atom_site_fract_y
_atom_site_fract_z
_atom_site_U_iso_or_equiv
_atom_site_thermal_displace_type
Cl1 Cl 0.15058(15) 0.19895(14) -0.1824(9) 0.0308 Uiso
Mg1 Mg 0.2847(2) 0.1193(2) -0.0737(8) 0.0209 Uiso
Mg2 Mg 0.2800(2) 0.3149(2) 0.3367(9) 0.0184 Uiso
O1 O 0.1859(4) 0.0937(4) -0.0918(14) 0.0740 Uiso
O2 O 0.2959(3) 0.1845(3) 0.1532(9) 0.0136 Uiso
O3 O 0.3207(4) 0.2257(3) -0.1268(7) 0.0136 Uiso
O4 O 0.3189(4) 0.2873(3) 0.1151(8) 0.0136 Uiso
O5 O 0.2660(4) 0.2374(4) 0.5035(11) 0.0030 Uiso
O6 O 0.1885(3) 0.2766(3) 0.1732(12) 0.0290 Uiso
C1 C 0.3046(2) 0.2308(3) 0.0423(7) 0.0136 Uiso
Mg1D Mg 0.2847(2) 0.1654(3) 0.4263(8) 0.0209 Uiso
Mg1Q Mg 0.2140(2) 0.3820(2) 0.0930(8) 0.0209 Uiso
Mg2G Mg 0.3518(2) 0.2984(3) -0.3300(9) 0.0184 Uiso
Mg2G_2 Mg 0.3518(2) 0.2984(3) 0.6700(9) 0.0184 Uiso
Mg2N Mg 0.3682(3) 0.3867(2) 0.0034(9) 0.0184 Uiso
O2D O 0.2959(3) 0.1114(4) -0.3468(9) 0.0136 Uiso
O3N O 0.2383(5) 0.3460(4) 0.5399(7) 0.0136 Uiso
O4G O 0.3794(3) 0.3649(5) 0.4484(8) 0.0136 Uiso
O5D O 0.2660(4) 0.0286(6) 0.0035(11) 0.0030 Uiso
O5N O 0.3047(6) 0.4007(4) 0.1702(11) 0.0030 Uiso
O6K O 0.3901(3) 0.1448(3) 0.0065(12) 0.0290 Uiso
O8 O 0.0078(12) 0.0846(9) -0.246(2) 0.1410 Uiso
loop_
_geom_bond_atom_site_label_1
_geom_bond_atom_site_label_2
_geom_bond_site_symmetry_1
_geom_bond_site_symmetry_2
Mg1 O1 1_555 1_555
Mg2 O4 1_555 1_555
O2 Mg1 1_555 1_555
O3 Mg1 1_555 1_555
O4 C1 1_555 1_555
O5 Mg2 1_555 1_555
O6 Mg2 1_555 1_555
C1 O2 1_555 1_555
Mg1D O2 1_555 1_555
Mg1Q O6 1_555 1_555
Mg2G O3 1_555 1_555
Mg2G_2 O5 1_555 1_555
Mg2N O4 1_555 1_555
O2D Mg1 1_555 1_555
O3N Mg2 1_555 1_555
O4G Mg2 1_555 1_555
O5D Mg1 1_555 1_555
O5N Mg2 1_555 1_555
O6K Mg1 1_555 1_555
O3 C1 1_555 1_555
O5 Mg1D 1_555 1_555
Mg1Q O5N 1_555 1_555
Mg2G_2 O4G 1_555 1_555
Mg2N O5N 1_555 1_555

#END
