
#######################################################################
#
#                 Cambridge Crystallographic Data Centre
#                                CCDC 
#
#######################################################################
#
# If this CIF has been generated from an entry in the Cambridge 
# Structural Database, then it will include bibliographic, chemical, 
# crystal, experimental, refinement or atomic coordinate data resulting 
# from the CCDC's data processing and validation procedures.
#
#######################################################################

data_EPUXET
_chemical_formula_moiety         '(C54 H78 Cd2 N4 O15)n'
_symmetry_cell_setting           orthorhombic
_symmetry_space_group_name_H-M   'P 21 21 21'
_symmetry_Int_Tables_number      19
_space_group_name_Hall           'P 2ac 2ab'
loop_
_symmetry_equiv_pos_site_id
_symmetry_equiv_pos_as_xyz
1 x,y,z
2 1/2-x,-y,1/2+z
3 -x,1/2+y,1/2-z
4 1/2+x,1/2-y,-z
_cell_length_a                   13.1885(11)
_cell_length_b                   18.1129(15)
_cell_length_c                   24.841(2)
_cell_angle_alpha                90
_cell_angle_beta                 90
_cell_angle_gamma                90
_cell_volume                     5934.07
loop_
_atom_site_label
_atom_site_type_symbol
_atom_site_fract_x
_atom_site_fract_y
_atom_site_fract_z
Cd1 Cd 0.16726(5) 0.02061(4) 0.67544(3)
N1 N 0.1088(6) -0.0559(5) 0.7445(4)
N2 N 0.1759(7) 0.0960(5) 0.5994(3)
N3 N 0.0647(8) 0.0268(5) 1.0782(3)
N4 N 0.0846(7) 0.1732(5) 0.2297(3)
O1 O 0.1588(6) 0.1335(4) 0.7245(3)
O2 O 0.0133(5) 0.0900(4) 0.6954(3)
O3 O -0.1001(8) 0.4287(5) 0.8824(3)
O4 O -0.2423(6) 0.3775(8) 0.8631(4)
O5 O 0.3352(5) 0.0021(4) 0.6950(3)
O6 O 0.4993(6) -0.0038(4) 0.7035(3)
O7 O 0.4225(7) 0.3464(4) 0.8677(3)
O8 O 0.5557(6) 0.2962(5) 0.9035(3)
C1 C 0.0650(9) 0.1361(6) 0.7221(4)
C2 C 0.0103(9) 0.1971(6) 0.7498(4)
H1 H -0.0480 0.2103 0.7280
H2 H 0.0547 0.2397 0.7508
C3 C -0.0275(9) 0.1819(7) 0.8085(5)
C4 C -0.0576(8) 0.2526(6) 0.8339(4)
H3 H -0.1083 0.2767 0.8117
H4 H 0.0010 0.2849 0.8360
C5 C -0.1009(9) 0.2405(7) 0.8913(4)
C6 C -0.0184(14) 0.1992(10) 0.9227(7)
H5 H 0.0425 0.2293 0.9227
H6 H -0.0405 0.1945 0.9598
C7 C 0.0091(14) 0.1223(10) 0.9017(7)
H7 H 0.0579 0.0963 0.9246
C8 C 0.0540(12) 0.1429(9) 0.8429(6)
H8 H 0.1123 0.1750 0.8469
H9 H 0.0760 0.0982 0.8248
C9 C -0.1183(13) 0.1311(8) 0.8055(6)
H10 H -0.0972 0.0839 0.7908
H11 H -0.1682 0.1522 0.7812
C10 C -0.0769(17) 0.0842(10) 0.8937(7)
H12 H -0.1038 0.0716 0.9288
H13 H -0.0585 0.0382 0.8763
C11 C -0.1664(15) 0.1190(9) 0.8601(7)
H14 H -0.2261 0.0869 0.8585
C12 C -0.1873(14) 0.1919(8) 0.8892(6)
H15 H -0.2426 0.2171 0.8711
H16 H -0.2092 0.1812 0.9256
C13 C -0.1297(11) 0.3147(7) 0.9169(5)
H17 H -0.1809 0.3040 0.9438
H18 H -0.0702 0.3316 0.9363
C14 C -0.1673(11) 0.3790(7) 0.8857(4)
C15 C 0.4151(8) 0.0300(5) 0.7122(3)
C16 C 0.4120(8) 0.1003(5) 0.7446(4)
H19 H 0.3480 0.1250 0.7377
H20 H 0.4658 0.1326 0.7321
C17 C 0.5268(9) 0.0583(7) 0.8219(4)
H21 H 0.5359 0.0097 0.8062
H22 H 0.5806 0.0901 0.8088
C18 C 0.4235(7) 0.0896(5) 0.8053(4)
C19 C 0.4077(8) 0.1658(5) 0.8319(4)
H23 H 0.3416 0.1848 0.8219
H24 H 0.4586 0.1999 0.8187
C20 C 0.4150(8) 0.1610(6) 0.8941(4)
C21 C 0.5220(10) 0.1291(7) 0.9086(5)
H25 H 0.5747 0.1614 0.8951
H26 H 0.5292 0.1254 0.9474
C22 C 0.5317(12) 0.0532(8) 0.8832(5)
H27 H 0.5986 0.0336 0.8928
C23 C 0.4563(15) 0.0018(7) 0.9030(6)
H28 H 0.4623 -0.0030 0.9418
H29 H 0.4671 -0.0464 0.8871
C24 C 0.3329(10) 0.1072(7) 0.9121(5)
H30 H 0.2671 0.1255 0.9008
H31 H 0.3328 0.1041 0.9511
C25 C 0.3498(11) 0.0301(7) 0.8885(5)
H32 H 0.2981 -0.0041 0.9020
C26 C 0.3431(8) 0.0361(6) 0.8279(4)
H33 H 0.2761 0.0533 0.8179
H34 H 0.3528 -0.0124 0.8121
C27 C 0.3948(9) 0.2352(6) 0.9196(4)
H35 H 0.4045 0.2315 0.9582
H36 H 0.3249 0.2492 0.9131
C28 C 0.4665(11) 0.2958(6) 0.8966(4)
C29 C 0.0132(9) -0.0627(6) 0.7547(5)
H37 H -0.0332 -0.0357 0.7346
C30 C -0.0230(10) -0.1106(7) 0.7960(5)
H38 H -0.0921 -0.1141 0.8031
C31 C 0.0445(13) -0.1509(6) 0.8249(4)
C32 C 0.1441(9) -0.1433(6) 0.8133(5)
H39 H 0.1921 -0.1701 0.8326
C33 C 0.1743(8) -0.0970(6) 0.7736(4)
H40 H 0.2432 -0.0933 0.7661
C34 C 0.0040(14) -0.1988(8) 0.8716(4)
H41 H -0.0695 -0.1992 0.8705
H42 H 0.0274 -0.2491 0.8670
C35 C 0.1610(15) 0.2372(11) 0.4597(7)
H43 H 0.1856 0.2857 0.4699
H44 H 0.2117 0.2157 0.4362
C36 C 0.1583(12) 0.1911(8) 0.5099(6)
C37 C 0.2334(11) 0.1999(8) 0.5493(6)
H45 H 0.2807 0.2378 0.5468
C38 C 0.2359(10) 0.1509(8) 0.5922(5)
H46 H 0.2856 0.1585 0.6181
C39 C 0.0991(11) 0.0884(8) 0.5605(5)
H47 H 0.0524 0.0502 0.5637
C40 C 0.0922(13) 0.1360(9) 0.5185(6)
H48 H 0.0389 0.1301 0.4943
C41 C 0.1366(11) 0.0124(7) 1.0402(5)
H49 H 0.2007 0.0331 1.0440
C42 C 0.1175(15) -0.0309(8) 0.9972(5)
H50 H 0.1705 -0.0420 0.9739
C43 C 0.0205(18) -0.0603(7) 0.9861(5)
C44 C -0.0478(12) -0.0449(7) 1.0248(5)
H51 H -0.1130 -0.0639 1.0212
C45 C -0.0271(11) -0.0036(7) 1.0682(5)
H52 H -0.0788 0.0046 1.0930
C46 C -0.0139(15) -0.1013(8) 0.9369(5)
H53 H -0.0857 -0.1116 0.9406
H54 H -0.0059 -0.0689 0.9060
C47 C 0.0381(14) -0.1708(8) 0.9251(5)
H55 H 0.0227 -0.2069 0.9527
H56 H 0.1109 -0.1630 0.9246
C48 C 0.0695(15) 0.2482(11) 0.4276(7)
H57 H 0.0420 0.2001 0.4187
H58 H 0.0198 0.2733 0.4499
C49 C 0.0815(17) 0.2897(10) 0.3782(6)
H59 H 0.1438 0.3179 0.3813
H60 H 0.0264 0.3251 0.3765
C50 C 0.0845(9) 0.2507(5) 0.3261(4)
C51 C 0.1494(9) 0.2671(6) 0.2880(5)
H61 H 0.1962 0.3048 0.2934
C52 C 0.1489(8) 0.2281(7) 0.2388(5)
H62 H 0.1950 0.2411 0.2121
C53 C 0.0164(9) 0.1606(6) 0.2690(5)
H63 H -0.0319 0.1240 0.2634
C54 C 0.0137(10) 0.1991(7) 0.3181(5)
H64 H -0.0354 0.1891 0.3439
Cd2 Cd 0.08670(6) 0.10217(4) 1.15164(3)
Cd1B Cd -0.16726(5) 0.52061(4) 0.82456(3)
N4_2 N 0.0846(7) 0.1732(5) 1.2297(3)
O3B O 0.1001(8) -0.0713(5) 0.6176(3)
O4C O 0.2577(6) 0.1225(8) 1.1369(4)
O5A O 0.1648(5) -0.0021(4) 1.1950(3)
O6A O 0.0007(6) 0.0038(4) 1.2035(3)
O7C O -0.0775(7) 0.1536(4) 1.1323(3)
O8C O 0.0557(6) 0.2038(5) 1.0965(3)
Cd2_2 Cd 0.08670(6) 0.10217(4) 0.15164(3)
Cd2C Cd -0.41330(6) 0.39783(4) 0.84836(3)
Cd2A Cd 0.41330(6) -0.10217(4) 0.65164(3)
Cd2C_2 Cd 0.58670(6) 0.39783(4) 0.84836(3)
O9 O 0.3514(19) 0.3727(11) 0.5543(8)
O10 O 0.2853(8) 0.4025(7) 0.6592(5)
O11 O 0.7421(7) 0.1419(6) 0.1832(4)
O12 O 0.6130(9) 0.0651(8) 0.1112(6)
O13 O 0.3196(7) 0.4141(8) 0.3402(5)
O14 O 0.7956(7) 0.0065(7) 0.2300(5)
O15 O 0.2482(8) 0.7251(5) 0.2206(4)
loop_
_geom_bond_atom_site_label_1
_geom_bond_atom_site_label_2
_geom_bond_site_symmetry_1
_geom_bond_site_symmetry_2
Cd1 N1 1_555 1_555
N1 C29 1_555 1_555
N2 Cd1 1_555 1_555
N3 C41 1_555 1_555
N4 C52 1_555 1_555
O1 Cd1 1_555 1_555
O2 Cd1 1_555 1_555
O3 C14 1_555 1_555
O4 C14 1_555 1_555
O5 Cd1 1_555 1_555
O6 C15 1_555 1_555
O7 C28 1_555 1_555
O8 C28 1_555 1_555
C1 O1 1_555 1_555
C2 C1 1_555 1_555
H1 C2 1_555 1_555
H2 C2 1_555 1_555
C3 C2 1_555 1_555
C4 C3 1_555 1_555
H3 C4 1_555 1_555
H4 C4 1_555 1_555
C5 C4 1_555 1_555
C6 C5 1_555 1_555
H5 C6 1_555 1_555
H6 C6 1_555 1_555
C7 C6 1_555 1_555
H7 C7 1_555 1_555
C8 C3 1_555 1_555
H8 C8 1_555 1_555
H9 C8 1_555 1_555
C9 C3 1_555 1_555
H10 C9 1_555 1_555
H11 C9 1_555 1_555
C10 C7 1_555 1_555
H12 C10 1_555 1_555
H13 C10 1_555 1_555
C11 C9 1_555 1_555
H14 C11 1_555 1_555
C12 C5 1_555 1_555
H15 C12 1_555 1_555
H16 C12 1_555 1_555
C13 C5 1_555 1_555
H17 C13 1_555 1_555
H18 C13 1_555 1_555
C14 C13 1_555 1_555
C15 O5 1_555 1_555
C16 C15 1_555 1_555
H19 C16 1_555 1_555
H20 C16 1_555 1_555
C17 H21 1_555 1_555
H22 C17 1_555 1_555
C18 C16 1_555 1_555
C19 C18 1_555 1_555
H23 C19 1_555 1_555
H24 C19 1_555 1_555
C20 C19 1_555 1_555
C21 C20 1_555 1_555
H25 C21 1_555 1_555
H26 C21 1_555 1_555
C22 C17 1_555 1_555
H27 C22 1_555 1_555
C23 C22 1_555 1_555
H28 C23 1_555 1_555
H29 C23 1_555 1_555
C24 C20 1_555 1_555
H30 C24 1_555 1_555
H31 C24 1_555 1_555
C25 C23 1_555 1_555
H32 C25 1_555 1_555
C26 C18 1_555 1_555
H33 C26 1_555 1_555
H34 C26 1_555 1_555
C27 C20 1_555 1_555
H35 C27 1_555 1_555
H36 C27 1_555 1_555
C28 C27 1_555 1_555
C29 H37 1_555 1_555
C30 C29 1_555 1_555
H38 C30 1_555 1_555
C31 C30 1_555 1_555
C32 C31 1_555 1_555
H39 C32 1_555 1_555
C33 N1 1_555 1_555
H40 C33 1_555 1_555
C34 C31 1_555 1_555
H41 C34 1_555 1_555
H42 C34 1_555 1_555
C35 H43 1_555 1_555
H44 C35 1_555 1_555
C36 C35 1_555 1_555
C37 C36 1_555 1_555
H45 C37 1_555 1_555
C38 N2 1_555 1_555
H46 C38 1_555 1_555
C39 N2 1_555 1_555
H47 C39 1_555 1_555
C40 C36 1_555 1_555
H48 C40 1_555 1_555
C41 H49 1_555 1_555
C42 C41 1_555 1_555
H50 C42 1_555 1_555
C43 C42 1_555 1_555
C44 C43 1_555 1_555
H51 C44 1_555 1_555
C45 N3 1_555 1_555
H52 C45 1_555 1_555
C46 C43 1_555 1_555
H53 C46 1_555 1_555
H54 C46 1_555 1_555
C47 C34 1_555 1_555
H55 C47 1_555 1_555
H56 C47 1_555 1_555
C48 C35 1_555 1_555
H57 C48 1_555 1_555
H58 C48 1_555 1_555
C49 C48 1_555 1_555
H59 C49 1_555 1_555
H60 C49 1_555 1_555
C50 C49 1_555 1_555
C51 C50 1_555 1_555
H61 C51 1_555 1_555
C52 C51 1_555 1_555
H62 C52 1_555 1_555
C53 N4 1_555 1_555
H63 C53 1_555 1_555
C54 C50 1_555 1_555
H64 C54 1_555 1_555
Cd2 N3 1_555 1_555
Cd1B O3 1_555 1_555
N4_2 Cd2 1_555 1_555
O3B Cd1 1_555 1_555
O4C Cd2 1_555 1_555
O5A Cd2 1_555 1_555
O6A Cd2 1_555 1_555
O7C Cd2 1_555 1_555
O8C Cd2 1_555 1_555
Cd2_2 N4 1_555 1_555
Cd2C O4 1_555 1_555
Cd2A O5 1_555 1_555
Cd2C_2 O7 1_555 1_555
O2 C1 1_555 1_555
O6 Cd2A 1_555 1_555
O8 Cd2C_2 1_555 1_555
C7 C8 1_555 1_555
C10 C11 1_555 1_555
C11 C12 1_555 1_555
C17 C18 1_555 1_555
C21 C22 1_555 1_555
C24 C25 1_555 1_555
C25 C26 1_555 1_555
C32 C33 1_555 1_555
C37 C38 1_555 1_555
C39 C40 1_555 1_555
C44 C45 1_555 1_555
C46 C47 1_555 1_555
C53 C54 1_555 1_555

#END
