
#######################################################################
#
#                 Cambridge Crystallographic Data Centre
#                                CCDC 
#
#######################################################################
#
# If this CIF has been generated from an entry in the Cambridge 
# Structural Database, then it will include bibliographic, chemical, 
# crystal, experimental, refinement or atomic coordinate data resulting 
# from the CCDC's data processing and validation procedures.
#
#######################################################################

data_REYJEM
_chemical_formula_moiety         '(C39 H30 In2 N1 O21 1-)n'
_symmetry_cell_setting           orthorhombic
_symmetry_space_group_name_H-M   'P 2 2 21'
_symmetry_Int_Tables_number      17
_space_group_name_Hall           'P 2c 2'
loop_
_symmetry_equiv_pos_site_id
_symmetry_equiv_pos_as_xyz
1 x,y,z
2 -x,-y,1/2+z
3 -x,y,1/2-z
4 x,-y,-z
_cell_length_a                   12.262(4)
_cell_length_b                   13.572(5)
_cell_length_c                   24.934(9)
_cell_angle_alpha                90
_cell_angle_beta                 90
_cell_angle_gamma                90
_cell_volume                     4149.51
loop_
_atom_site_label
_atom_site_type_symbol
_atom_site_fract_x
_atom_site_fract_y
_atom_site_fract_z
In1 In 0.5000 1.08757(5) 0.7500
In2 In 0.99413(7) 1.0000 1.0000
O1 O 0.6116(8) 0.9175(7) 0.7307(3)
O2 O 0.6003(5) 1.0065(4) 0.8027(3)
O3 O 0.8606(6) 0.9582(5) 0.9496(3)
O4 O 1.0026(5) 0.8753(5) 0.93297(18)
O5 O 1.0279(5) 0.1491(6) 0.55333(19)
O6 O 0.8815(6) 0.0711(4) 0.5469(3)
O7 O 0.5823(6) 0.1242(5) 0.6754(3)
O8 O 0.6236(4) 0.2123(4) 0.7570(3)
O9 O 0.8766(7) 0.6587(6) 0.7737(3)
O10 O 0.9507(5) 0.4146(6) 0.6871(3)
C1 C 0.7751(7) 0.9051(7) 0.8492(4)
H1 H 0.7479 0.9610 0.8661
C2 C 0.8550(7) 0.8554(6) 0.8717(3)
C3 C 0.8935(8) 0.7682(7) 0.8489(3)
H2 H 0.9503 0.7338 0.8651
C4 C 0.8479(7) 0.7337(8) 0.8031(3)
C5 C 0.7649(7) 0.7933(9) 0.7786(4)
H3 H 0.7342 0.7735 0.7463
C6 C 0.7315(6) 0.8760(8) 0.8016(3)
C7 C 0.6429(7) 0.9611(11) 0.7794(6)
C8 C 0.9112(8) 0.8937(7) 0.9204(3)
C9 C 0.8927(9) 0.3441(8) 0.6728(4)
C10 C 0.9366(8) 0.2834(9) 0.6263(3)
H4 H 1.0035 0.3002 0.6113
C11 C 0.8800(9) 0.2041(7) 0.6057(3)
C12 C 0.7757(8) 0.1784(7) 0.6242(4)
H5 H 0.7314 0.1347 0.6055
C13 C 0.7426(8) 0.2209(7) 0.6710(4)
C14 C 0.7972(8) 0.3118(7) 0.6935(4)
H6 H 0.7649 0.3458 0.7218
C15 C 0.9219(8) 0.1340(8) 0.5621(4)
C16 C 0.6474(8) 0.1810(7) 0.7010(4)
C17 C 0.9648(9) 0.6005(10) 0.7958(4)
H7 H 0.9406 0.5652 0.8274
H8 H 1.0256 0.6425 0.8056
C18 C 1.0000 0.5253(15) 0.7500
C19 C 0.9059(9) 0.4669(8) 0.7307(4)
H9 H 0.8795 0.4224 0.7582
H10 H 0.8466 0.5093 0.7192
O1B O 1.3884(8) 0.9175(7) 0.7693(3)
O2B O 1.3997(5) 1.0065(4) 0.6973(3)
O3B O 1.1394(6) 0.9582(5) 0.5504(3)
O4B O 0.9974(5) 0.8753(5) 0.56703(18)
O5B O 0.9721(5) 0.1491(6) 0.94667(19)
O6B O 1.1185(6) 0.0711(4) 0.9531(3)
O7B O 1.4177(6) 0.1242(5) 0.8246(3)
O8B O 1.3764(4) 0.2123(4) 0.7430(3)
O9B O 1.1234(7) 0.6587(6) 0.7263(3)
O10B O 1.0493(5) 0.4146(6) 0.8129(3)
C1B C 1.2249(7) 0.9051(7) 0.6508(4)
H1B H 1.2521 0.9610 0.6339
C2B C 1.1450(7) 0.8554(6) 0.6283(3)
C3B C 1.1065(8) 0.7682(7) 0.6511(3)
H2B H 1.0497 0.7338 0.6349
C4B C 1.1521(7) 0.7337(8) 0.6969(3)
C5B C 1.2351(7) 0.7933(9) 0.7214(4)
H3B H 1.2658 0.7735 0.7537
C6B C 1.2685(6) 0.8760(8) 0.6984(3)
C7B C 1.3571(7) 0.9611(11) 0.7206(6)
C8B C 1.0888(8) 0.8937(7) 0.5796(3)
C9B C 1.1073(9) 0.3441(8) 0.8272(4)
C10B C 1.0634(8) 0.2834(9) 0.8737(3)
H4B H 0.9965 0.3002 0.8887
C11B C 1.1200(9) 0.2041(7) 0.8943(3)
C12B C 1.2243(8) 0.1784(7) 0.8758(4)
H5B H 1.2686 0.1347 0.8945
C13B C 1.2574(8) 0.2209(7) 0.8290(4)
C14B C 1.2028(8) 0.3118(7) 0.8065(4)
H6B H 1.2351 0.3458 0.7782
C15B C 1.0781(8) 0.1340(8) 0.9379(4)
C16B C 1.3526(8) 0.1810(7) 0.7990(4)
C17B C 1.0352(9) 0.6005(10) 0.7042(4)
H7B H 1.0594 0.5652 0.6726
H8B H 0.9744 0.6425 0.6944
C19B C 1.0941(9) 0.4669(8) 0.7693(4)
H9B H 1.1205 0.4224 0.7418
H10B H 1.1534 0.5093 0.7808
In1_2 In 0.5000 0.08757(5) 0.7500
In1_3 In 1.5000 0.08757(5) 0.7500
In1_4 In 1.5000 1.08757(5) 0.7500
In2_2 In 0.99413(7) 0.0000 1.0000
In2A In 1.00587(7) 0.0000 0.5000
In2A_2 In 1.00587(7) 1.0000 0.5000
O2B_2 O 0.3997(5) 1.0065(4) 0.6973(3)
O3C O 0.8606(6) 1.0418(5) 1.0504(3)
O4C O 1.0026(5) 1.1247(5) 1.06703(18)
O5A O 0.9721(5) 0.8509(6) 1.05333(19)
O5B_2 O 0.9721(5) 1.1491(6) 0.94667(19)
O6A O 1.1185(6) 0.9289(4) 1.0469(3)
O6B_2 O 1.1185(6) 1.0711(4) 0.9531(3)
O7_2 O 0.5823(6) 1.1242(5) 0.6754(3)
O7B_2 O 0.4177(6) 1.1242(5) 0.8246(3)
O8_2 O 0.6236(4) 1.2123(4) 0.7570(3)
O8B_2 O 0.3764(4) 1.2123(4) 0.7430(3)
O11 O 0.5219(12) 0.2990(14) 0.6514(8)
C20 C 0.2730(12) 0.8988(18) 0.8878(8)
H11 H 0.2136 0.9288 0.9068
H12 H 0.2611 0.8290 0.8854
H13 H 0.2774 0.9262 0.8524
C21 C 0.4821(13) 0.891(2) 0.9004(12)
H14 H 0.5317 0.9093 0.9286
H15 H 0.5012 0.9262 0.8682
H16 H 0.4862 0.8218 0.8941
N1 N 0.3728(12) 0.9173(18) 0.9159(8)
H17 H 0.3635 0.8902 0.9485
H18 H 0.3742 0.9828 0.9211
loop_
_geom_bond_atom_site_label_1
_geom_bond_atom_site_label_2
_geom_bond_site_symmetry_1
_geom_bond_site_symmetry_2
In1 O2 1_555 1_555
In2 O3 1_555 1_555
O1 C7 1_555 1_555
O2 C7 1_555 1_555
O3 C8 1_555 1_555
O4 In2 1_555 1_555
O5 C15 1_555 1_555
O6 C15 1_555 1_555
O7 C16 1_555 1_555
O8 C16 1_555 1_555
O9 C4 1_555 1_555
O10 C9 1_555 1_555
C1 H1 1_555 1_555
C2 C1 1_555 1_555
C3 C2 1_555 1_555
H2 C3 1_555 1_555
C4 C3 1_555 1_555
C5 C4 1_555 1_555
H3 C5 1_555 1_555
C6 C1 1_555 1_555
C7 C6 1_555 1_555
C8 O4 1_555 1_555
C9 C10 1_555 1_555
C10 H4 1_555 1_555
C11 C10 1_555 1_555
C12 C11 1_555 1_555
H5 C12 1_555 1_555
C13 C12 1_555 1_555
C14 C9 1_555 1_555
H6 C14 1_555 1_555
C15 C11 1_555 1_555
C16 C13 1_555 1_555
C17 O9 1_555 1_555
H7 C17 1_555 1_555
H8 C17 1_555 1_555
C18 C17 1_555 1_555
C19 O10 1_555 1_555
H9 C19 1_555 1_555
H10 C19 1_555 1_555
C20 H11 1_555 1_555
H12 C20 1_555 1_555
H13 C20 1_555 1_555
C21 H14 1_555 1_555
H15 C21 1_555 1_555
H16 C21 1_555 1_555
N1 C20 1_555 1_555
H17 N1 1_555 1_555
H18 N1 1_555 1_555
O1B C7B 1_555 1_555
O2B C7B 1_555 1_555
O3B C8B 1_555 1_555
O4B C8B 1_555 1_555
O5B C15B 1_555 1_555
O6B C15B 1_555 1_555
O7B C16B 1_555 1_555
O8B C16B 1_555 1_555
O9B C4B 1_555 1_555
O10B C9B 1_555 1_555
C1B H1B 1_555 1_555
C2B C1B 1_555 1_555
C3B C2B 1_555 1_555
H2B C3B 1_555 1_555
C4B C3B 1_555 1_555
C5B C4B 1_555 1_555
H3B C5B 1_555 1_555
C6B C1B 1_555 1_555
C7B C6B 1_555 1_555
C8B C2B 1_555 1_555
C9B C10B 1_555 1_555
C10B H4B 1_555 1_555
C11B C10B 1_555 1_555
C12B C11B 1_555 1_555
H5B C12B 1_555 1_555
C13B C12B 1_555 1_555
C14B C9B 1_555 1_555
H6B C14B 1_555 1_555
C15B C11B 1_555 1_555
C16B C13B 1_555 1_555
C17B C18 1_555 1_555
H7B C17B 1_555 1_555
H8B C17B 1_555 1_555
C19B C18 1_555 1_555
H9B C19B 1_555 1_555
H10B C19B 1_555 1_555
In1_2 O7 1_555 1_555
In1_3 O7B 1_555 1_555
In1_4 O2B 1_555 1_555
In2_2 O5B 1_555 1_555
In2A O5 1_555 1_555
In2A_2 O3B 1_555 1_555
O2B_2 In1 1_555 1_555
O3C In2 1_555 1_555
O4C In2 1_555 1_555
O5A In2 1_555 1_555
O5B_2 In2 1_555 1_555
O6A In2 1_555 1_555
O6B_2 In2 1_555 1_555
O7_2 In1 1_555 1_555
O7B_2 In1 1_555 1_555
O8_2 In1 1_555 1_555
O8B_2 In1 1_555 1_555
O6 In2A 1_555 1_555
O8 In1_2 1_555 1_555
C2 C8 1_555 1_555
C5 C6 1_555 1_555
C13 C14 1_555 1_555
C18 C19 1_555 1_555
C21 N1 1_555 1_555
O4B In2A_2 1_555 1_555
O6B In2_2 1_555 1_555
O8B In1_3 1_555 1_555
O9B C17B 1_555 1_555
O10B C19B 1_555 1_555
C5B C6B 1_555 1_555
C13B C14B 1_555 1_555

#END
