
#######################################################################
#
#                 Cambridge Crystallographic Data Centre
#                                CCDC 
#
#######################################################################
#
# If this CIF has been generated from an entry in the Cambridge 
# Structural Database, then it will include bibliographic, chemical, 
# crystal, experimental, refinement or atomic coordinate data resulting 
# from the CCDC's data processing and validation procedures.
#
#######################################################################

data_XOQXIL
_chemical_formula_moiety         '(C93 H87 N3 O19 Si3 Zn4)n'
_symmetry_cell_setting           monoclinic
_symmetry_space_group_name_H-M   'C 2/c'
_symmetry_Int_Tables_number      15
_space_group_name_Hall           '-C 2yc'
loop_
_symmetry_equiv_pos_site_id
_symmetry_equiv_pos_as_xyz
1 x,y,z
2 -x,y,1/2-z
3 1/2+x,1/2+y,z
4 1/2-x,1/2+y,1/2-z
5 -x,-y,-z
6 x,-y,1/2+z
7 1/2-x,1/2-y,-z
8 1/2+x,1/2-y,1/2+z
_cell_length_a                   33.439(3)
_cell_length_b                   9.6788(7)
_cell_length_c                   32.306(3)
_cell_angle_alpha                90
_cell_angle_beta                 109.4640(10)
_cell_angle_gamma                90
_cell_volume                     9858.28
loop_
_atom_site_label
_atom_site_type_symbol
_atom_site_fract_x
_atom_site_fract_y
_atom_site_fract_z
_atom_site_U_iso_or_equiv
_atom_site_thermal_displace_type
C4 C 0.2367(10) 0.346(3) 0.8152(8) 0.1180 Uiso
C5 C 0.2476(9) 0.208(3) 0.8143(7) 0.0960 Uiso
C6 C 0.2379(8) 0.139(2) 0.7744(9) 0.0880 Uiso
C7 C 0.2173(8) 0.208(3) 0.7354(7) 0.0800 Uiso
C8 C 0.2064(9) 0.347(3) 0.7363(8) 0.1330 Uiso
C9 C 0.2161(10) 0.416(2) 0.7762(11) 0.1060 Uiso
Zn1 Zn -0.467814(17) -0.12681(5) 0.51179(2) 0.0278 Uani
Zn2 Zn -0.438975(18) 0.11001(5) 0.46234(2) 0.0289 Uani
Si1 Si -0.19150(5) -0.26816(15) 0.60785(6) 0.0365 Uani
Si2 Si -0.5000 -0.5012(2) 0.2500 0.0367 Uani
O2 O -0.47156(12) -0.3407(4) 0.52248(14) 0.0384 Uani
O3 O -0.40310(11) -0.1293(4) 0.53126(13) 0.0364 Uani
O4 O -0.38138(11) 0.0540(4) 0.50144(13) 0.0385 Uani
O5 O -0.06455(12) 0.2162(3) 0.56506(13) 0.0377 Uani
O6 O -0.04982(13) 0.0537(4) 0.52339(16) 0.0480 Uani
O7 O -0.46822(10) 0.0937(3) 0.50446(12) 0.0301 Uani
O8 O -0.44903(11) -0.0195(4) 0.41396(13) 0.0373 Uani
O9 O -0.47649(12) -0.1795(4) 0.44690(12) 0.0355 Uani
C10 C -0.24563(17) -0.1902(6) 0.5854(2) 0.0416 Uani
C11 C -0.27860(19) -0.2396(8) 0.5991(3) 0.0609 Uani
H1 H -0.2722 -0.3058 0.6221 0.0730 Uiso
C12 C -0.32024(18) -0.1952(7) 0.5803(2) 0.0533 Uani
H2 H -0.3420 -0.2330 0.5897 0.0640 Uiso
C13 C -0.32979(16) -0.0945(5) 0.5474(2) 0.0353 Uani
C14 C -0.29747(16) -0.0403(5) 0.5342(2) 0.0377 Uani
H3 H -0.3035 0.0304 0.5126 0.0450 Uiso
C15 C -0.25619(16) -0.0898(5) 0.5528(2) 0.0383 Uani
H4 H -0.2346 -0.0537 0.5429 0.0460 Uiso
C16 C -0.37508(16) -0.0521(5) 0.52524(19) 0.0320 Uani
C17 C -0.19355(17) -0.4496(5) 0.5867(2) 0.0391 Uani
C18 C -0.15574(18) -0.5200(6) 0.5900(2) 0.0424 Uani
H5 H -0.1294 -0.4727 0.6013 0.0510 Uiso
C19 C -0.1560(2) -0.6551(6) 0.5773(2) 0.0538 Uani
H6 H -0.1300 -0.6998 0.5800 0.0650 Uiso
C20 C -0.1928(3) -0.7259(7) 0.5610(3) 0.0735 Uani
H7 H -0.1927 -0.8199 0.5526 0.0880 Uiso
C21 C -0.2314(3) -0.6585(8) 0.5567(4) 0.0812 Uani
H8 H -0.2575 -0.7067 0.5453 0.0980 Uiso
C22 C -0.2308(2) -0.5232(7) 0.5690(3) 0.0619 Uani
H9 H -0.2570 -0.4781 0.5652 0.0740 Uiso
C23 C -0.1740(2) -0.2671(6) 0.6696(2) 0.0492 Uani
C24 C -0.1905(3) -0.1848(10) 0.6951(3) 0.0914 Uani
H10 H -0.2126 -0.1227 0.6802 0.1100 Uiso
C25 C -0.1777(4) -0.1860(13) 0.7394(4) 0.1049 Uani
H11 H -0.1929 -0.1353 0.7545 0.1260 Uiso
C26 C -0.1431(4) -0.2595(14) 0.7621(4) 0.1113 Uani
H12 H -0.1339 -0.2636 0.7933 0.1340 Uiso
C27 C -0.1214(4) -0.3288(17) 0.7387(4) 0.1410 Uani
H13 H -0.0949 -0.3711 0.7539 0.1690 Uiso
C28 C -0.1377(3) -0.3372(13) 0.6935(3) 0.1086 Uani
H14 H -0.1236 -0.3928 0.6785 0.1300 Uiso
C29 C -0.15179(16) -0.1654(5) 0.59094(19) 0.0327 Uani
C30 C -0.14423(16) -0.1905(5) 0.5517(2) 0.0365 Uani
H15 H -0.1590 -0.2637 0.5333 0.0440 Uiso
C31 C -0.11566(17) -0.1114(5) 0.5387(2) 0.0362 Uani
H16 H -0.1100 -0.1333 0.5125 0.0430 Uiso
C32 C -0.09576(15) -0.0016(5) 0.56408(19) 0.0304 Uani
C33 C -0.10266(17) 0.0255(5) 0.60312(19) 0.0352 Uani
H17 H -0.0886 0.1010 0.6208 0.0420 Uiso
C34 C -0.12995(17) -0.0566(5) 0.61671(19) 0.0361 Uani
H18 H -0.1338 -0.0382 0.6440 0.0430 Uiso
C35 C -0.06756(16) 0.0936(5) 0.54925(19) 0.0332 Uani
C36 C -0.49390(18) -0.3882(5) 0.29870(19) 0.0368 Uani
C37 C -0.50587(19) -0.4277(6) 0.33450(19) 0.0402 Uani
H19 H -0.5206 -0.5125 0.3331 0.0480 Uiso
C38 C -0.49701(17) -0.3479(6) 0.37163(18) 0.0355 Uani
H20 H -0.5055 -0.3790 0.3954 0.0420 Uiso
C39 C -0.47626(16) -0.2244(5) 0.37513(17) 0.0310 Uani
C40 C -0.4632(2) -0.1824(6) 0.3405(2) 0.0552 Uani
H21 H -0.4483 -0.0978 0.3424 0.0660 Uiso
C41 C -0.4718(2) -0.2639(7) 0.3033(2) 0.0580 Uani
H22 H -0.4623 -0.2340 0.2801 0.0690 Uiso
C42 C -0.46643(16) -0.1360(5) 0.41492(18) 0.0310 Uani
C43 C -0.4518(2) -0.6120(6) 0.2634(2) 0.0474 Uani
C44 C -0.4496(3) -0.7351(8) 0.2861(3) 0.0805 Uani
H23 H -0.4745 -0.7659 0.2913 0.0970 Uiso
C45 C -0.4140(4) -0.8146(11) 0.3014(4) 0.1067 Uani
H24 H -0.4143 -0.8987 0.3165 0.1280 Uiso
C46 C -0.3790(4) -0.7717(12) 0.2949(4) 0.1160 Uani
H25 H -0.3538 -0.8249 0.3059 0.1390 Uiso
C47 C -0.3785(3) -0.6506(11) 0.2722(4) 0.0937 Uani
H26 H -0.3534 -0.6218 0.2671 0.1130 Uiso
C48 C -0.4157(2) -0.5708(8) 0.2569(3) 0.0630 Uani
H27 H -0.4155 -0.4867 0.2419 0.0750 Uiso
O10 O -0.46425(18) -0.0992(6) 0.5802(2) 0.0777 Uani
N2 N -0.4495(5) -0.085(2) 0.6482(5) 0.1029 Uani
C49 C -0.4411(6) -0.155(3) 0.6147(6) 0.1199 Uani
C50 C -0.4294(8) 0.031(3) 0.6771(7) 0.1373 Uani
C51 C -0.4730(9) -0.1491(17) 0.6582(5) 0.1031 Uani
Zn1D Zn -0.532186(17) 0.12681(5) 0.48821(2) 0.0278 Uani
Zn1A Zn -0.532186(17) -0.12681(5) -0.01179(2) 0.0278 Uani
Zn1F Zn -0.032186(17) 0.62681(5) 0.48821(2) 0.0278 Uani
Zn2F Zn -0.061025(18) 0.38999(5) 0.53766(2) 0.0289 Uani
Zn2A Zn -0.561025(18) 0.11001(5) 0.03766(2) 0.0289 Uani
Zn2D Zn -0.561025(18) -0.11001(5) 0.53766(2) 0.0289 Uani
Si1F Si -0.30850(5) 0.76816(15) 0.39215(6) 0.0365 Uani
O2D O -0.52844(12) 0.3407(4) 0.47752(14) 0.0384 Uani
O3F O -0.09690(11) 0.6293(4) 0.46874(13) 0.0364 Uani
O3D O -0.59690(11) 0.1293(4) 0.46874(13) 0.0364 Uani
O4F O -0.11862(11) 0.4460(4) 0.49856(13) 0.0385 Uani
O5F O -0.43545(12) 0.2838(3) 0.43494(13) 0.0377 Uani
O6F O -0.45018(13) 0.4463(4) 0.47661(16) 0.0480 Uani
O7D O -0.53178(10) -0.0937(3) 0.49554(12) 0.0301 Uani
O7F O -0.03178(10) 0.4063(3) 0.49554(12) 0.0301 Uani
O8A O -0.55097(11) -0.0195(4) 0.08604(13) 0.0373 Uani
O8F O -0.05097(11) 0.5195(4) 0.58604(13) 0.0373 Uani
O9A O -0.52351(12) -0.1795(4) 0.05310(12) 0.0355 Uani
O9D O -0.52351(12) 0.1795(4) 0.55310(12) 0.0355 Uani
C10F C -0.25437(17) 0.6902(6) 0.4146(2) 0.0416 Uani
C11F C -0.22140(19) 0.7396(8) 0.4009(3) 0.0609 Uani
H1F H -0.2278 0.8058 0.3779 0.0730 Uiso
C12F C -0.17976(18) 0.6952(7) 0.4197(2) 0.0533 Uani
H2F H -0.1580 0.7330 0.4103 0.0640 Uiso
C13F C -0.17021(16) 0.5945(5) 0.4526(2) 0.0353 Uani
C14F C -0.20253(16) 0.5403(5) 0.4658(2) 0.0377 Uani
H3F H -0.1965 0.4696 0.4874 0.0450 Uiso
C15F C -0.24381(16) 0.5898(5) 0.4472(2) 0.0383 Uani
H4F H -0.2654 0.5537 0.4571 0.0460 Uiso
C16F C -0.12492(16) 0.5521(5) 0.47476(19) 0.0320 Uani
C17F C -0.30645(17) 0.9496(5) 0.4133(2) 0.0391 Uani
C18F C -0.34426(18) 1.0200(6) 0.4100(2) 0.0424 Uani
H5F H -0.3706 0.9727 0.3987 0.0510 Uiso
C19F C -0.3440(2) 1.1551(6) 0.4227(2) 0.0538 Uani
H6F H -0.3700 1.1998 0.4200 0.0650 Uiso
C20F C -0.3072(3) 1.2259(7) 0.4390(3) 0.0735 Uani
H7F H -0.3073 1.3199 0.4474 0.0880 Uiso
C21F C -0.2686(3) 1.1585(8) 0.4433(4) 0.0812 Uani
H8F H -0.2425 1.2067 0.4547 0.0980 Uiso
C22F C -0.2692(2) 1.0232(7) 0.4310(3) 0.0619 Uani
H9F H -0.2430 0.9781 0.4348 0.0740 Uiso
C23F C -0.3260(2) 0.7671(6) 0.3304(2) 0.0492 Uani
C24F C -0.3095(3) 0.6848(10) 0.3049(3) 0.0914 Uani
H10F H -0.2874 0.6227 0.3198 0.1100 Uiso
C25F C -0.3223(4) 0.6860(13) 0.2606(4) 0.1049 Uani
H11F H -0.3071 0.6353 0.2455 0.1260 Uiso
C26F C -0.3569(4) 0.7595(14) 0.2379(4) 0.1113 Uani
H12F H -0.3661 0.7636 0.2067 0.1340 Uiso
C27F C -0.3786(4) 0.8288(17) 0.2613(4) 0.1410 Uani
H13F H -0.4051 0.8711 0.2461 0.1690 Uiso
C28F C -0.3623(3) 0.8372(13) 0.3065(3) 0.1086 Uani
H14F H -0.3764 0.8928 0.3215 0.1300 Uiso
C29F C -0.34821(16) 0.6654(5) 0.40906(19) 0.0327 Uani
C30F C -0.35577(16) 0.6905(5) 0.4483(2) 0.0365 Uani
H15F H -0.3410 0.7637 0.4667 0.0440 Uiso
C31F C -0.38434(17) 0.6114(5) 0.4613(2) 0.0362 Uani
H16F H -0.3900 0.6333 0.4875 0.0430 Uiso
C32F C -0.40424(15) 0.5016(5) 0.43592(19) 0.0304 Uani
C33F C -0.39734(17) 0.4745(5) 0.39688(19) 0.0352 Uani
H17F H -0.4114 0.3990 0.3792 0.0420 Uiso
C34F C -0.37005(17) 0.5566(5) 0.38329(19) 0.0361 Uani
H18F H -0.3662 0.5382 0.3560 0.0430 Uiso
C35F C -0.43244(16) 0.4064(5) 0.45075(19) 0.0332 Uani
C36A C -0.50610(18) -0.3882(5) 0.20130(19) 0.0368 Uani
C37A C -0.49413(19) -0.4277(6) 0.16550(19) 0.0402 Uani
H19A H -0.4794 -0.5125 0.1669 0.0480 Uiso
C38A C -0.50299(17) -0.3479(6) 0.12837(18) 0.0355 Uani
H20A H -0.4945 -0.3790 0.1046 0.0420 Uiso
C39A C -0.52374(16) -0.2244(5) 0.12487(17) 0.0310 Uani
C40A C -0.5368(2) -0.1824(6) 0.1595(2) 0.0552 Uani
H21A H -0.5517 -0.0978 0.1576 0.0660 Uiso
C41A C -0.5282(2) -0.2639(7) 0.1967(2) 0.0580 Uani
H22A H -0.5377 -0.2340 0.2199 0.0690 Uiso
C42A C -0.53357(16) -0.1360(5) 0.08508(18) 0.0310 Uani
C43A C -0.5482(2) -0.6120(6) 0.2366(2) 0.0474 Uani
C44A C -0.5504(3) -0.7351(8) 0.2139(3) 0.0805 Uani
H23A H -0.5255 -0.7659 0.2087 0.0970 Uiso
C45A C -0.5860(4) -0.8146(11) 0.1986(4) 0.1067 Uani
H24A H -0.5857 -0.8987 0.1835 0.1280 Uiso
C46A C -0.6210(4) -0.7717(12) 0.2051(4) 0.1160 Uani
H25A H -0.6462 -0.8249 0.1941 0.1390 Uiso
C47A C -0.6215(3) -0.6506(11) 0.2278(4) 0.0937 Uani
H26A H -0.6466 -0.6218 0.2329 0.1130 Uiso
C48A C -0.5843(2) -0.5708(8) 0.2431(3) 0.0630 Uani
H27A H -0.5845 -0.4867 0.2581 0.0750 Uiso
O10D O -0.53575(18) 0.0992(6) 0.4198(2) 0.0777 Uani
N2D N -0.5505(5) 0.085(2) 0.3518(5) 0.1029 Uani
C49D C -0.5589(6) 0.155(3) 0.3853(6) 0.1199 Uani
C50D C -0.5706(8) -0.031(3) 0.3229(7) 0.1373 Uani
C51D C -0.5270(9) 0.1491(17) 0.3418(5) 0.1031 Uani
O1 O 0.4126(3) 0.1699(13) 0.9095(4) 0.0693 Uani
N1 N 0.3868(8) 0.382(2) 0.8983(6) 0.1335 Uani
C1 C 0.4127(5) 0.2553(17) 0.9060(12) 0.1438 Uani
C2 C 0.4058(11) 0.519(3) 0.8858(10) 0.1670 Uani
C3 C 0.3605(11) 0.360(3) 0.9316(12) 0.2383 Uani
loop_
_atom_site_aniso_label
_atom_site_aniso_U_11
_atom_site_aniso_U_22
_atom_site_aniso_U_33
_atom_site_aniso_U_23
_atom_site_aniso_U_13
_atom_site_aniso_U_12
Zn1 0.0268 0.0176 0.0468 -0.0013 0.0226 -0.001
Zn2 0.03 0.0164 0.0481 -0.0017 0.0235 -0.0022
Si1 0.0266 0.0287 0.0639 0.0101 0.0282 0.0028
Si2 0.0483 0.027 0.0354 0 0.0147 0
O2 0.041 0.0203 0.068 0.0053 0.037 0.0031
O3 0.0271 0.0288 0.057 0.0014 0.0188 0.0003
O4 0.0296 0.031 0.061 0.0036 0.0231 0.0011
O5 0.048 0.0164 0.06 -0.0014 0.033 -0.0058
O6 0.054 0.0217 0.094 -0.005 0.059 -0.0066
O7 0.0287 0.0175 0.052 -0.0042 0.0239 -0.0019
O8 0.039 0.0263 0.055 -0.0088 0.0267 -0.0048
O9 0.041 0.0259 0.047 -0.0072 0.0245 -0.0032
C10 0.029 0.034 0.071 0.009 0.029 0.005
C11 0.036 0.071 0.09 0.041 0.04 0.018
C12 0.032 0.062 0.079 0.03 0.036 0.015
C13 0.028 0.026 0.057 0.001 0.021 0.005
C14 0.033 0.025 0.062 0.002 0.025 -0.001
C15 0.025 0.031 0.063 0.003 0.02 -0.006
C16 0.027 0.024 0.051 -0.001 0.021 0.001
C17 0.036 0.025 0.066 0.011 0.03 0.003
C18 0.035 0.036 0.064 0.015 0.027 0.006
C19 0.058 0.034 0.088 0.004 0.049 0.005
C20 0.084 0.027 0.128 0 0.06 -0.006
C21 0.061 0.039 0.151 -0.008 0.045 -0.021
C22 0.04 0.036 0.121 0.004 0.042 -0.003
C23 0.049 0.034 0.076 0.012 0.036 -0.003
C24 0.112 0.095 0.07 -0.004 0.034 0.044
C25 0.136 0.119 0.08 0.004 0.063 0.028
C26 0.124 0.143 0.077 0.017 0.047 0.006
C27 0.108 0.238 0.081 0.017 0.037 0.058
C28 0.099 0.157 0.075 0.013 0.036 0.052
C29 0.027 0.024 0.051 0.01 0.018 0.0067
C30 0.031 0.028 0.058 -0.003 0.025 -0.004
C31 0.034 0.026 0.056 -0.004 0.025 -0.004
C32 0.023 0.018 0.058 0.005 0.024 0.0056
C33 0.037 0.021 0.055 0.001 0.025 -0.005
C34 0.04 0.025 0.05 0.004 0.024 0
C35 0.03 0.021 0.056 0.002 0.024 0.0014
C36 0.04 0.028 0.042 0.002 0.013 0.005
C37 0.048 0.029 0.044 -0.001 0.016 -0.01
C38 0.041 0.033 0.035 -0.004 0.016 -0.009
C39 0.033 0.025 0.038 -0.002 0.016 0.001
C40 0.088 0.034 0.059 -0.014 0.045 -0.026
C41 0.09 0.043 0.059 -0.014 0.049 -0.027
C42 0.03 0.022 0.045 0.001 0.018 0.0018
C43 0.065 0.038 0.039 -0.002 0.017 0.013
C44 0.117 0.062 0.08 0.03 0.056 0.044
C45 0.103 0.093 0.149 0.059 0.075 0.062
C46 0.122 0.099 0.11 0.017 0.016 0.078
C47 0.059 0.091 0.122 0.001 0.018 0.027
C48 0.051 0.051 0.075 0.004 0.005 0.014
O10 0.082 0.083 0.1 0.065 0.073 0.062
N2 0.087 0.147 0.072 -0.064 0.023 -0.067
C49 0.083 0.18 0.064 -0.06 -0.019 0.071
C50 0.114 0.2 0.075 0.02 0.001 0
C51 0.24 0.048 0.043 0.029 0.076 0.058
Zn1D 0.0268 0.0176 0.0468 -0.0013 0.0226 -0.001
Zn1A 0.0268 0.0176 0.0468 0.0013 0.0226 0.001
Zn1F 0.0268 0.0176 0.0468 -0.0013 0.0226 -0.001
Zn2F 0.03 0.0164 0.0481 -0.0017 0.0235 -0.0022
Zn2A 0.03 0.0164 0.0481 0.0017 0.0235 0.0022
Zn2D 0.03 0.0164 0.0481 -0.0017 0.0235 -0.0022
Si1F 0.0266 0.0287 0.0639 0.0101 0.0282 0.0028
O2D 0.041 0.0203 0.068 0.0053 0.037 0.0031
O3F 0.0271 0.0288 0.057 0.0014 0.0188 0.0003
O3D 0.0271 0.0288 0.057 0.0014 0.0188 0.0003
O4F 0.0296 0.031 0.061 0.0036 0.0231 0.0011
O5F 0.048 0.0164 0.06 -0.0014 0.033 -0.0058
O6F 0.054 0.0217 0.094 -0.005 0.059 -0.0066
O7D 0.0287 0.0175 0.052 -0.0042 0.0239 -0.0019
O7F 0.0287 0.0175 0.052 -0.0042 0.0239 -0.0019
O8A 0.039 0.0263 0.055 0.0088 0.0267 0.0048
O8F 0.039 0.0263 0.055 -0.0088 0.0267 -0.0048
O9A 0.041 0.0259 0.047 0.0072 0.0245 0.0032
O9D 0.041 0.0259 0.047 -0.0072 0.0245 -0.0032
C10F 0.029 0.034 0.071 0.009 0.029 0.005
C11F 0.036 0.071 0.09 0.041 0.04 0.018
C12F 0.032 0.062 0.079 0.03 0.036 0.015
C13F 0.028 0.026 0.057 0.001 0.021 0.005
C14F 0.033 0.025 0.062 0.002 0.025 -0.001
C15F 0.025 0.031 0.063 0.003 0.02 -0.006
C16F 0.027 0.024 0.051 -0.001 0.021 0.001
C17F 0.036 0.025 0.066 0.011 0.03 0.003
C18F 0.035 0.036 0.064 0.015 0.027 0.006
C19F 0.058 0.034 0.088 0.004 0.049 0.005
C20F 0.084 0.027 0.128 0 0.06 -0.006
C21F 0.061 0.039 0.151 -0.008 0.045 -0.021
C22F 0.04 0.036 0.121 0.004 0.042 -0.003
C23F 0.049 0.034 0.076 0.012 0.036 -0.003
C24F 0.112 0.095 0.07 -0.004 0.034 0.044
C25F 0.136 0.119 0.08 0.004 0.063 0.028
C26F 0.124 0.143 0.077 0.017 0.047 0.006
C27F 0.108 0.238 0.081 0.017 0.037 0.058
C28F 0.099 0.157 0.075 0.013 0.036 0.052
C29F 0.027 0.024 0.051 0.01 0.018 0.0067
C30F 0.031 0.028 0.058 -0.003 0.025 -0.004
C31F 0.034 0.026 0.056 -0.004 0.025 -0.004
C32F 0.023 0.018 0.058 0.005 0.024 0.0056
C33F 0.037 0.021 0.055 0.001 0.025 -0.005
C34F 0.04 0.025 0.05 0.004 0.024 0
C35F 0.03 0.021 0.056 0.002 0.024 0.0014
C36A 0.04 0.028 0.042 -0.002 0.013 -0.005
C37A 0.048 0.029 0.044 0.001 0.016 0.01
C38A 0.041 0.033 0.035 0.004 0.016 0.009
C39A 0.033 0.025 0.038 0.002 0.016 -0.001
C40A 0.088 0.034 0.059 0.014 0.045 0.026
C41A 0.09 0.043 0.059 0.014 0.049 0.027
C42A 0.03 0.022 0.045 -0.001 0.018 -0.0018
C43A 0.065 0.038 0.039 0.002 0.017 -0.013
C44A 0.117 0.062 0.08 -0.03 0.056 -0.044
C45A 0.103 0.093 0.149 -0.059 0.075 -0.062
C46A 0.122 0.099 0.11 -0.017 0.016 -0.078
C47A 0.059 0.091 0.122 -0.001 0.018 -0.027
C48A 0.051 0.051 0.075 -0.004 0.005 -0.014
O10D 0.082 0.083 0.1 0.065 0.073 0.062
N2D 0.087 0.147 0.072 -0.064 0.023 -0.067
C49D 0.083 0.18 0.064 -0.06 -0.019 0.071
C50D 0.114 0.2 0.075 0.02 0.001 0
C51D 0.24 0.048 0.043 0.029 0.076 0.058
O1 0.052(6) 0.083(8) 0.073(7) 0.056(6) 0.021(5) 0.038(6)
N1 0.140(18) 0.110(15) 0.085(13) -0.047(12) -0.050(12) 0.030(13)
C1 0.039(9) 0.026(8) 0.36(4) -0.049(15) 0.058(15) -0.006(7)
C2 0.28(4) 0.111(18) 0.20(3) 0.093(19) 0.20(3) 0.12(2)
C3 0.19(3) 0.16(3) 0.21(3) -0.13(3) -0.14(3) 0.14(3)
loop_
_geom_bond_atom_site_label_1
_geom_bond_atom_site_label_2
_geom_bond_site_symmetry_1
_geom_bond_site_symmetry_2
O1 C1 1_555 1_555
N1 C1 1_555 1_555
C2 N1 1_555 1_555
C3 N1 1_555 1_555
C4 C5 1_555 1_555
C5 C6 1_555 1_555
C6 C7 1_555 1_555
C7 C8 1_555 1_555
C8 C9 1_555 1_555
C9 C4 1_555 1_555
Zn1 O2 1_555 1_555
Zn2 O4 1_555 1_555
Si1 C10 1_555 1_555
Si2 C36 1_555 1_555
O3 Zn1 1_555 1_555
O4 C16 1_555 1_555
O5 C35 1_555 1_555
O6 C35 1_555 1_555
O7 Zn1 1_555 1_555
O8 Zn2 1_555 1_555
O9 Zn1 1_555 1_555
C10 C11 1_555 1_555
C11 H1 1_555 1_555
C12 C11 1_555 1_555
H2 C12 1_555 1_555
C13 C12 1_555 1_555
C14 C13 1_555 1_555
H3 C14 1_555 1_555
C15 C10 1_555 1_555
H4 C15 1_555 1_555
C16 O3 1_555 1_555
C17 Si1 1_555 1_555
C18 C17 1_555 1_555
H5 C18 1_555 1_555
C19 C18 1_555 1_555
H6 C19 1_555 1_555
C20 C19 1_555 1_555
H7 C20 1_555 1_555
C21 C20 1_555 1_555
H8 C21 1_555 1_555
C22 C17 1_555 1_555
H9 C22 1_555 1_555
C23 Si1 1_555 1_555
C24 C23 1_555 1_555
H10 C24 1_555 1_555
C25 C24 1_555 1_555
H11 C25 1_555 1_555
C26 C25 1_555 1_555
H12 C26 1_555 1_555
C27 C26 1_555 1_555
H13 C27 1_555 1_555
C28 C23 1_555 1_555
H14 C28 1_555 1_555
C29 Si1 1_555 1_555
C30 C29 1_555 1_555
H15 C30 1_555 1_555
C31 C30 1_555 1_555
H16 C31 1_555 1_555
C32 C31 1_555 1_555
C33 C32 1_555 1_555
H17 C33 1_555 1_555
C34 C29 1_555 1_555
H18 C34 1_555 1_555
C35 C32 1_555 1_555
C36 C37 1_555 1_555
C37 H19 1_555 1_555
C38 C37 1_555 1_555
H20 C38 1_555 1_555
C39 C38 1_555 1_555
C40 C39 1_555 1_555
H21 C40 1_555 1_555
C41 C36 1_555 1_555
H22 C41 1_555 1_555
C42 O8 1_555 1_555
C43 Si2 1_555 1_555
C44 C43 1_555 1_555
H23 C44 1_555 1_555
C45 C44 1_555 1_555
H24 C45 1_555 1_555
C46 C45 1_555 1_555
H25 C46 1_555 1_555
C47 C46 1_555 1_555
H26 C47 1_555 1_555
C48 C43 1_555 1_555
H27 C48 1_555 1_555
O10 Zn1 1_555 1_555
N2 C49 1_555 1_555
C49 O10 1_555 1_555
C50 N2 1_555 1_555
C51 N2 1_555 1_555
Zn1D O7 1_555 1_555
Zn1A O9A 1_555 1_555
Zn1F O3F 1_555 1_555
Zn2F O5 1_555 1_555
Zn2A O8A 1_555 1_555
Zn2D O7D 1_555 1_555
Si1F C10F 1_555 1_555
O2D Zn1D 1_555 1_555
O3F C16F 1_555 1_555
O3D Zn1D 1_555 1_555
O4F Zn2F 1_555 1_555
O5F Zn2 1_555 1_555
O6F C35F 1_555 1_555
O7D Zn1 1_555 1_555
O7F Zn1F 1_555 1_555
O8A C42A 1_555 1_555
O8F Zn2F 1_555 1_555
O9A C42A 1_555 1_555
O9D Zn1D 1_555 1_555
C10F C11F 1_555 1_555
C11F H1F 1_555 1_555
C12F C11F 1_555 1_555
H2F C12F 1_555 1_555
C13F C12F 1_555 1_555
C14F C13F 1_555 1_555
H3F C14F 1_555 1_555
C15F C10F 1_555 1_555
H4F C15F 1_555 1_555
C16F O4F 1_555 1_555
C17F Si1F 1_555 1_555
C18F C17F 1_555 1_555
H5F C18F 1_555 1_555
C19F C18F 1_555 1_555
H6F C19F 1_555 1_555
C20F C19F 1_555 1_555
H7F C20F 1_555 1_555
C21F C20F 1_555 1_555
H8F C21F 1_555 1_555
C22F C17F 1_555 1_555
H9F C22F 1_555 1_555
C23F Si1F 1_555 1_555
C24F C23F 1_555 1_555
H10F C24F 1_555 1_555
C25F C24F 1_555 1_555
H11F C25F 1_555 1_555
C26F C25F 1_555 1_555
H12F C26F 1_555 1_555
C27F C26F 1_555 1_555
H13F C27F 1_555 1_555
C28F C23F 1_555 1_555
H14F C28F 1_555 1_555
C29F Si1F 1_555 1_555
C30F C29F 1_555 1_555
H15F C30F 1_555 1_555
C31F C30F 1_555 1_555
H16F C31F 1_555 1_555
C32F C31F 1_555 1_555
C33F C32F 1_555 1_555
H17F C33F 1_555 1_555
C34F C29F 1_555 1_555
H18F C34F 1_555 1_555
C35F O5F 1_555 1_555
C36A Si2 1_555 1_555
C37A C36A 1_555 1_555
H19A C37A 1_555 1_555
C38A C37A 1_555 1_555
H20A C38A 1_555 1_555
C39A C38A 1_555 1_555
C40A C39A 1_555 1_555
H21A C40A 1_555 1_555
C41A C36A 1_555 1_555
H22A C41A 1_555 1_555
C42A C39A 1_555 1_555
C43A Si2 1_555 1_555
C44A C43A 1_555 1_555
H23A C44A 1_555 1_555
C45A C44A 1_555 1_555
H24A C45A 1_555 1_555
C46A C45A 1_555 1_555
H25A C46A 1_555 1_555
C47A C46A 1_555 1_555
H26A C47A 1_555 1_555
C48A C43A 1_555 1_555
H27A C48A 1_555 1_555
O10D Zn1D 1_555 1_555
N2D C49D 1_555 1_555
C49D O10D 1_555 1_555
C50D N2D 1_555 1_555
C51D N2D 1_555 1_555
Zn2 O7 1_555 1_555
O9 C42 1_555 1_555
C13 C16 1_555 1_555
C14 C15 1_555 1_555
C21 C22 1_555 1_555
C27 C28 1_555 1_555
C33 C34 1_555 1_555
C39 C42 1_555 1_555
C40 C41 1_555 1_555
C47 C48 1_555 1_555
Zn1D O7D 1_555 1_555
Zn2F O7F 1_555 1_555
C13F C16F 1_555 1_555
C14F C15F 1_555 1_555
C21F C22F 1_555 1_555
C27F C28F 1_555 1_555
C32F C35F 1_555 1_555
C33F C34F 1_555 1_555
C40A C41A 1_555 1_555
C47A C48A 1_555 1_555

#END
