
#######################################################################
#
#                 Cambridge Crystallographic Data Centre
#                                CCDC 
#
#######################################################################
#
# If this CIF has been generated from an entry in the Cambridge 
# Structural Database, then it will include bibliographic, chemical, 
# crystal, experimental, refinement or atomic coordinate data resulting 
# from the CCDC's data processing and validation procedures.
#
#######################################################################

data_XOQXEH
_chemical_formula_moiety         '(C57 H40 F18 N2 O16 Zn4)n'
_symmetry_cell_setting           monoclinic
_symmetry_space_group_name_H-M   'P 2/n'
_symmetry_Int_Tables_number      13
_space_group_name_Hall           '-P 2yac'
loop_
_symmetry_equiv_pos_site_id
_symmetry_equiv_pos_as_xyz
1 x,y,z
2 1/2-x,y,1/2-z
3 -x,-y,-z
4 1/2+x,-y,1/2+z
_cell_length_a                   17.8530(17)
_cell_length_b                   7.5280(7)
_cell_length_c                   23.757(2)
_cell_angle_alpha                90
_cell_angle_beta                 92.534(2)
_cell_angle_gamma                90
_cell_volume                     3189.76
loop_
_atom_site_label
_atom_site_type_symbol
_atom_site_fract_x
_atom_site_fract_y
_atom_site_fract_z
Zn1 Zn -0.421690(18) 0.02626(4) 0.031570(13)
Zn2 Zn -0.490590(18) -0.29499(4) 0.087300(13)
F1 F -0.43529(11) 0.1298(3) 0.41753(8)
F2 F -0.55098(11) 0.2116(3) 0.41220(8)
F3 F -0.47084(11) 0.3538(3) 0.46499(8)
F4 F -0.54195(10) 0.6115(3) 0.40910(8)
F5 F -0.58856(10) 0.4643(3) 0.33867(8)
F6 F -0.50725(11) 0.6684(3) 0.32549(8)
F7 F -0.85490(10) -1.2392(2) 0.25164(8)
F8 F -0.77480(11) -1.2976(2) 0.18957(9)
F9 F -0.84803(10) -1.0708(2) 0.17919(8)
O1 O -0.48220(13) -0.1015(3) 0.14296(9)
O2 O -0.43274(12) 0.1408(3) 0.10526(8)
O3 O -0.10886(11) 0.5925(3) 0.40970(9)
O4 O -0.16016(12) 0.8461(3) 0.43808(10)
O5 O -0.56045(12) -0.4314(3) 0.12827(9)
O6 O -0.57532(13) -0.6110(3) 0.05475(9)
O7 O -0.49712(11) -0.1747(2) 0.01379(8)
O8 O -0.33521(12) 0.1257(3) -0.00793(9)
N1 N -0.24931(15) 0.3219(4) -0.03464(11)
C1 C -0.45715(16) 0.0541(4) 0.14585(12)
C2 C -0.45722(16) 0.1413(4) 0.20275(12)
C3 C -0.48610(16) 0.0505(4) 0.24742(12)
H1 H -0.5047 -0.0668 0.2419
C4 C -0.48836(17) 0.1282(4) 0.30016(13)
H2 H -0.5094 0.0654 0.3303
C5 C -0.45976(15) 0.2986(4) 0.30886(12)
C6 C -0.43043(16) 0.3889(4) 0.26369(12)
H3 H -0.4108 0.5052 0.2692
C7 C -0.42955(16) 0.3119(4) 0.21110(12)
H4 H -0.4100 0.3757 0.1805
C8 C -0.46163(16) 0.3968(4) 0.36606(12)
C9 C -0.47997(18) 0.2715(5) 0.41516(13)
C10 C -0.52507(17) 0.5356(5) 0.35975(14)
C11 C -0.16390(16) 0.6911(4) 0.41961(13)
C12 C -0.24113(16) 0.6153(4) 0.40674(13)
C13 C -0.30414(18) 0.7180(4) 0.41480(14)
H5 H -0.2984 0.8352 0.4291
C14 C -0.37551(18) 0.6523(4) 0.40223(14)
H6 H -0.4182 0.7242 0.4080
C15 C -0.38436(16) 0.4802(4) 0.38116(12)
C16 C -0.32105(17) 0.3765(4) 0.37372(13)
H7 H -0.3266 0.2591 0.3595
C17 C -0.25010(17) 0.4425(4) 0.38686(13)
H8 H -0.2074 0.3696 0.3823
C18 C -0.58321(16) -0.5752(4) 0.10502(13)
C19 C -0.62370(16) -0.7005(4) 0.14223(12)
C20 C -0.63132(16) -0.6609(4) 0.19874(12)
H9 H -0.6092 -0.5560 0.2143
C21 C -0.67103(16) -0.7737(4) 0.23245(13)
H10 H -0.6758 -0.7456 0.2711
C22 C -0.70411(15) -0.9277(4) 0.21049(13)
C23 C -0.69343(17) -0.9707(4) 0.15446(13)
H11 H -0.7134 -1.0783 0.1393
C24 C -0.65410(18) -0.8581(4) 0.12088(13)
H12 H -0.6476 -0.8886 0.0826
C25 C -0.7500 -1.0445(5) 0.2500
C26 C -0.80717(18) -1.1648(4) 0.21766(14)
C27 C -0.31714(18) 0.2808(4) -0.01795(13)
H13 H -0.3528 0.3730 -0.0136
C28 C -0.19182(19) 0.1860(5) -0.03798(16)
H14 H -0.1515 0.2098 -0.0097
H15 H -0.1715 0.1874 -0.0756
H16 H -0.2138 0.0693 -0.0309
C29 C -0.2290(2) 0.5040(5) -0.04811(17)
H17 H -0.2705 0.5837 -0.0397
H18 H -0.2187 0.5125 -0.0882
H19 H -0.1841 0.5384 -0.0255
Zn1B Zn -0.578310(18) -0.02626(4) -0.031570(13)
Zn1A Zn -0.078310(18) 1.02626(4) 0.468430(13)
Zn1A_2 Zn -1.078310(18) 0.02626(4) 0.468430(13)
Zn1C Zn -0.921690(18) -0.02626(4) 0.531570(13)
Zn1_2 Zn -1.421690(18) 1.02626(4) 0.031570(13)
Zn2A Zn -0.009410(18) 0.70501(4) 0.412700(13)
Zn2A_2 Zn -1.009410(18) -0.29499(4) 0.412700(13)
Zn2_2 Zn -1.490590(18) 0.70501(4) 0.087300(13)
F1A F -1.06471(11) 0.1298(3) 0.08247(8)
F2A F -0.94902(11) 0.2116(3) 0.08780(8)
F3A F -1.02916(11) 0.3538(3) 0.03501(8)
F4A F -0.95805(10) 0.6115(3) 0.09090(8)
F5A F -0.91144(10) 0.4643(3) 0.16133(8)
F6A F -0.99275(11) 0.6684(3) 0.17451(8)
F7A F -0.64510(10) -1.2392(2) 0.24836(8)
F8A F -0.72520(11) -1.2976(2) 0.31043(9)
F9A F -0.65197(10) -1.0708(2) 0.32081(8)
O1A O -1.01780(13) -0.1015(3) 0.35704(9)
O2A O -1.06726(12) 0.1408(3) 0.39474(8)
O3A O -0.39114(11) -0.4075(3) 0.09030(9)
O3_2 O -1.10886(11) -0.4075(3) 0.40970(9)
O3A_2 O -1.39114(11) 0.5925(3) 0.09030(9)
O4A O -0.33984(12) -0.1539(3) 0.06192(10)
O4_2 O -1.16016(12) -0.1539(3) 0.43808(10)
O4A_2 O -1.33984(12) 0.8461(3) 0.06192(10)
O5A O -0.93955(12) -0.4314(3) 0.37173(9)
O6A O -0.92468(13) -0.6110(3) 0.44525(9)
O7B O -0.50288(11) 0.1747(2) -0.01379(8)
O7A O -1.00288(11) -0.1747(2) 0.48621(8)
O7C O -0.99712(11) 0.1747(2) 0.51379(8)
O8A O -1.16479(12) 0.1257(3) 0.50793(9)
N1A N -1.25069(15) 0.3219(4) 0.53464(11)
C1A C -1.04285(16) 0.0541(4) 0.35415(12)
C2A C -1.04278(16) 0.1413(4) 0.29725(12)
C3A C -1.01390(16) 0.0505(4) 0.25258(12)
H1A H -0.9953 -0.0668 0.2581
C4A C -1.01164(17) 0.1282(4) 0.19984(13)
H2A H -0.9906 0.0654 0.1697
C5A C -1.04024(15) 0.2986(4) 0.19114(12)
C6A C -1.06957(16) 0.3889(4) 0.23631(12)
H3A H -1.0892 0.5052 0.2308
C7A C -1.07045(16) 0.3119(4) 0.28890(12)
H4A H -1.0900 0.3757 0.3195
C8A C -1.03837(16) 0.3968(4) 0.13394(12)
C9A C -1.02003(18) 0.2715(5) 0.08484(13)
C10A C -0.97493(17) 0.5356(5) 0.14025(14)
C11A C -1.33610(16) 0.6911(4) 0.08039(13)
C12A C -1.25887(16) 0.6153(4) 0.09326(13)
C13A C -1.19586(18) 0.7180(4) 0.08520(14)
H5A H -1.2016 0.8352 0.0709
C14A C -1.12449(18) 0.6523(4) 0.09777(14)
H6A H -1.0818 0.7242 0.0920
C15A C -1.11564(16) 0.4802(4) 0.11884(12)
C16A C -1.17895(17) 0.3765(4) 0.12628(13)
H7A H -1.1734 0.2591 0.1405
C17A C -1.24990(17) 0.4425(4) 0.11314(13)
H8A H -1.2926 0.3696 0.1177
C18A C -0.91679(16) -0.5752(4) 0.39498(13)
C19A C -0.87630(16) -0.7005(4) 0.35777(12)
C20A C -0.86868(16) -0.6609(4) 0.30126(12)
H9A H -0.8908 -0.5560 0.2857
C21A C -0.82897(16) -0.7737(4) 0.26755(13)
H10A H -0.8242 -0.7456 0.2289
C22A C -0.79589(15) -0.9277(4) 0.28951(13)
C23A C -0.80657(17) -0.9707(4) 0.34554(13)
H11A H -0.7866 -1.0783 0.3607
C24A C -0.84590(18) -0.8581(4) 0.37912(13)
H12A H -0.8524 -0.8886 0.4174
C26A C -0.69283(18) -1.1648(4) 0.28234(14)
C27A C -1.18286(18) 0.2808(4) 0.51795(13)
H13A H -1.1472 0.3730 0.5136
C28A C -1.30818(19) 0.1860(5) 0.53798(16)
H14A H -1.3485 0.2098 0.5097
H15A H -1.3285 0.1874 0.5756
H16A H -1.2862 0.0693 0.5309
C29A C -1.2710(2) 0.5040(5) 0.54811(17)
H17A H -1.2295 0.5837 0.5397
H18A H -1.2813 0.5125 0.5882
H19A H -1.3159 0.5384 0.5255
loop_
_geom_bond_atom_site_label_1
_geom_bond_atom_site_label_2
_geom_bond_site_symmetry_1
_geom_bond_site_symmetry_2
Zn1 O2 1_555 1_555
Zn2 O1 1_555 1_555
F1 C9 1_555 1_555
F2 C9 1_555 1_555
F3 C9 1_555 1_555
F4 C10 1_555 1_555
F5 C10 1_555 1_555
F6 C10 1_555 1_555
F7 C26 1_555 1_555
F8 C26 1_555 1_555
F9 C26 1_555 1_555
O1 C1 1_555 1_555
O2 C1 1_555 1_555
O3 C11 1_555 1_555
O4 C11 1_555 1_555
O5 Zn2 1_555 1_555
O6 C18 1_555 1_555
O7 Zn1 1_555 1_555
O8 Zn1 1_555 1_555
N1 C27 1_555 1_555
C1 C2 1_555 1_555
C2 C3 1_555 1_555
C3 H1 1_555 1_555
C4 C3 1_555 1_555
H2 C4 1_555 1_555
C5 C4 1_555 1_555
C6 C5 1_555 1_555
H3 C6 1_555 1_555
C7 C2 1_555 1_555
H4 C7 1_555 1_555
C8 C5 1_555 1_555
C9 C8 1_555 1_555
C10 C8 1_555 1_555
C11 C12 1_555 1_555
C12 C13 1_555 1_555
C13 H5 1_555 1_555
C14 C13 1_555 1_555
H6 C14 1_555 1_555
C15 C8 1_555 1_555
C16 C15 1_555 1_555
H7 C16 1_555 1_555
C17 C12 1_555 1_555
H8 C17 1_555 1_555
C18 O5 1_555 1_555
C19 C18 1_555 1_555
C20 C19 1_555 1_555
H9 C20 1_555 1_555
C21 C20 1_555 1_555
H10 C21 1_555 1_555
C22 C21 1_555 1_555
C23 C22 1_555 1_555
H11 C23 1_555 1_555
C24 C19 1_555 1_555
H12 C24 1_555 1_555
C25 C22 1_555 1_555
C26 C25 1_555 1_555
C27 O8 1_555 1_555
H13 C27 1_555 1_555
C28 N1 1_555 1_555
H14 C28 1_555 1_555
H15 C28 1_555 1_555
H16 C28 1_555 1_555
C29 N1 1_555 1_555
H17 C29 1_555 1_555
H18 C29 1_555 1_555
H19 C29 1_555 1_555
Zn1B O7 1_555 1_555
Zn1A O4 1_555 1_555
Zn1A_2 O2A 1_555 1_555
Zn1C O7A 1_555 1_555
Zn1_2 O4A_2 1_555 1_555
Zn2A O3 1_555 1_555
Zn2A_2 O1A 1_555 1_555
Zn2_2 O3A_2 1_555 1_555
F1A C9A 1_555 1_555
F2A C9A 1_555 1_555
F3A C9A 1_555 1_555
F4A C10A 1_555 1_555
F5A C10A 1_555 1_555
F6A C10A 1_555 1_555
F7A C26A 1_555 1_555
F8A C26A 1_555 1_555
F9A C26A 1_555 1_555
O1A C1A 1_555 1_555
O2A C1A 1_555 1_555
O3A Zn2 1_555 1_555
O3_2 Zn2A_2 1_555 1_555
O3A_2 C11A 1_555 1_555
O4A Zn1 1_555 1_555
O4_2 Zn1A_2 1_555 1_555
O4A_2 C11A 1_555 1_555
O5A Zn2A_2 1_555 1_555
O6A C18A 1_555 1_555
O7B Zn1 1_555 1_555
O7A Zn1A_2 1_555 1_555
O7C Zn1A_2 1_555 1_555
O8A Zn1A_2 1_555 1_555
N1A C27A 1_555 1_555
C1A C2A 1_555 1_555
C2A C3A 1_555 1_555
C3A H1A 1_555 1_555
C4A C3A 1_555 1_555
H2A C4A 1_555 1_555
C5A C4A 1_555 1_555
C6A C5A 1_555 1_555
H3A C6A 1_555 1_555
C7A C2A 1_555 1_555
H4A C7A 1_555 1_555
C8A C5A 1_555 1_555
C9A C8A 1_555 1_555
C10A C8A 1_555 1_555
C11A C12A 1_555 1_555
C12A C13A 1_555 1_555
C13A H5A 1_555 1_555
C14A C13A 1_555 1_555
H6A C14A 1_555 1_555
C15A C8A 1_555 1_555
C16A C15A 1_555 1_555
H7A C16A 1_555 1_555
C17A C12A 1_555 1_555
H8A C17A 1_555 1_555
C18A O5A 1_555 1_555
C19A C18A 1_555 1_555
C20A C19A 1_555 1_555
H9A C20A 1_555 1_555
C21A C20A 1_555 1_555
H10A C21A 1_555 1_555
C22A C25 1_555 1_555
C23A C22A 1_555 1_555
H11A C23A 1_555 1_555
C24A C19A 1_555 1_555
H12A C24A 1_555 1_555
C26A C25 1_555 1_555
C27A O8A 1_555 1_555
H13A C27A 1_555 1_555
C28A N1A 1_555 1_555
H14A C28A 1_555 1_555
H15A C28A 1_555 1_555
H16A C28A 1_555 1_555
C29A N1A 1_555 1_555
H17A C29A 1_555 1_555
H18A C29A 1_555 1_555
H19A C29A 1_555 1_555
Zn2 O7 1_555 1_555
C6 C7 1_555 1_555
C14 C15 1_555 1_555
C16 C17 1_555 1_555
C23 C24 1_555 1_555
Zn1B O7B 1_555 1_555
Zn1C O7C 1_555 1_555
Zn2A_2 O7A 1_555 1_555
C6A C7A 1_555 1_555
C14A C15A 1_555 1_555
C16A C17A 1_555 1_555
C21A C22A 1_555 1_555
C23A C24A 1_555 1_555

#END
