
#######################################################################
#
#                 Cambridge Crystallographic Data Centre
#                                CCDC 
#
#######################################################################
#
# If this CIF has been generated from an entry in the Cambridge 
# Structural Database, then it will include bibliographic, chemical, 
# crystal, experimental, refinement or atomic coordinate data resulting 
# from the CCDC's data processing and validation procedures.
#
#######################################################################

data_BASSUL
_chemical_formula_moiety         '(C36 H22 Ag2 Er2 N8 O19)n'
_symmetry_cell_setting           orthorhombic
_symmetry_space_group_name_H-M   'P c c n'
_symmetry_Int_Tables_number      56
_space_group_name_Hall           '-P 2ab 2ac'
loop_
_symmetry_equiv_pos_site_id
_symmetry_equiv_pos_as_xyz
1 x,y,z
2 1/2-x,1/2-y,z
3 -x,1/2+y,1/2-z
4 1/2+x,-y,1/2-z
5 -x,-y,-z
6 1/2+x,1/2+y,-z
7 x,1/2-y,1/2+z
8 1/2-x,y,1/2+z
_cell_length_a                   25.285(5)
_cell_length_b                   8.4759(17)
_cell_length_c                   17.765(4)
_cell_angle_alpha                90
_cell_angle_beta                 90
_cell_angle_gamma                90
_cell_volume                     3807.27
loop_
_atom_site_label
_atom_site_type_symbol
_atom_site_fract_x
_atom_site_fract_y
_atom_site_fract_z
O1 O 0.03070(14) 0.0874(5) 0.71188(19)
O2 O 0.02555(15) -0.0666(5) 0.6126(2)
C1 C 0.0467(2) 0.0464(6) 0.6461(3)
C2 C 0.0923(2) 0.1337(6) 0.6120(3)
C3 C 0.1337(2) 0.1912(7) 0.6592(3)
C4 C 0.1745(2) 0.2773(7) 0.6287(3)
H1 H 0.2018 0.3143 0.6591
O3 O 0.11016(15) 0.2514(5) 0.78571(19)
O4 O 0.1643(2) 0.0543(7) 0.7661(3)
C5 C 0.1361(2) 0.1586(6) 0.7430(3)
O5 O -0.02368(14) -0.3647(5) 0.6291(2)
O6 O -0.07910(16) -0.9597(5) 0.6909(2)
Er1 Er -0.023252(9) -0.16669(3) 0.717628(12)
Ag1 Ag 0.272328(17) 0.53857(6) 0.54787(3)
C6 C -0.0176(2) -0.5104(7) 0.6294(3)
O7 O 0.02120(13) -0.5798(5) 0.6615(2)
C7 C -0.0733(2) -0.8114(6) 0.6856(3)
N1 N -0.11018(18) -0.6250(6) 0.3896(2)
H2 H -0.0966 -0.5603 0.3577
C8 C -0.0836(2) -0.7412(6) 0.6105(3)
O8 O -0.06010(14) -0.7254(5) 0.7405(2)
C9 C -0.1482(2) -0.7310(7) 0.3749(3)
H3 H -0.1637 -0.7440 0.3279
C10 C -0.1208(2) -0.8151(6) 0.5649(3)
H4 H -0.1406 -0.8996 0.5829
C11 C -0.05600(19) -0.6046(6) 0.5838(3)
C12 C -0.0967(2) -0.6377(7) 0.4642(3)
C13 C -0.06292(19) -0.5541(6) 0.5097(3)
H5 H -0.0451 -0.4660 0.4916
N2 N 0.14738(18) 0.2989(6) 0.4341(3)
H6 H 0.1305 0.2771 0.3934
N3 N 0.20833(18) 0.4002(6) 0.5090(3)
C14 C 0.0932(2) 0.1559(6) 0.5346(3)
H7 H 0.0673 0.1135 0.5034
C15 C 0.1744(2) 0.3083(7) 0.5517(3)
C16 C -0.12782(19) -0.7598(7) 0.4919(3)
C17 C 0.1349(2) 0.2452(7) 0.5059(3)
N4 N -0.16127(19) -0.8146(6) 0.4348(3)
C18 C 0.1902(2) 0.3900(8) 0.4394(3)
H8 H 0.2056 0.4409 0.3986
O1B O -0.03070(14) -0.4126(5) 0.78812(19)
O1B_2 O -0.03070(14) 0.5874(5) 0.78812(19)
O2B O -0.02555(15) -0.5666(5) 0.8874(2)
O2B_2 O -0.02555(15) 0.4334(5) 0.8874(2)
C1B C -0.0467(2) -0.4536(6) 0.8539(3)
C2B C -0.0923(2) -0.3663(6) 0.8880(3)
C3B C -0.1337(2) -0.3088(7) 0.8408(3)
C4B C -0.1745(2) -0.2227(7) 0.8713(3)
H1B H -0.2018 -0.1857 0.8409
O3B O -0.11016(15) -0.2486(5) 0.71429(19)
O4B O -0.1643(2) -0.4457(7) 0.7339(3)
C5B C -0.1361(2) -0.3414(6) 0.7570(3)
O5B O 0.02368(14) 0.1353(5) 0.8709(2)
O6_2 O -0.07910(16) 0.0403(5) 0.6909(2)
O6B O 0.07910(16) 0.5403(5) 0.8091(2)
O6B_2 O 0.07910(16) -0.4597(5) 0.8091(2)
Er1B Er 0.023252(9) 0.33331(3) 0.782372(12)
Er1_2 Er -0.023252(9) -1.16669(3) 0.717628(12)
Er1B_2 Er 0.023252(9) -0.66669(3) 0.782372(12)
Ag1B Ag -0.272328(17) 0.03857(6) 0.95213(3)
Ag1E Ag -0.227672(17) -0.96143(6) 0.45213(3)
Ag1G Ag 0.227672(17) -0.46143(6) 1.04787(3)
C6B C 0.0176(2) -0.0104(7) 0.8706(3)
O7_2 O 0.02120(13) 0.4202(5) 0.6615(2)
O7B O -0.02120(13) -0.0798(5) 0.8385(2)
C7B C 0.0733(2) -0.3114(6) 0.8144(3)
N1B N 0.11018(18) -0.1250(6) 1.1104(2)
H2B H 0.0966 -0.0603 1.1423
C8B C 0.0836(2) -0.2412(6) 0.8895(3)
O8_2 O -0.06010(14) 0.2746(5) 0.7405(2)
O8B O 0.06010(14) -0.2254(5) 0.7595(2)
C9B C 0.1482(2) -0.2310(7) 1.1251(3)
H3B H 0.1637 -0.2440 1.1721
C10B C 0.1208(2) -0.3151(6) 0.9351(3)
H4B H 0.1406 -0.3996 0.9171
C11B C 0.05600(19) -0.1046(6) 0.9162(3)
C12B C 0.0967(2) -0.1377(7) 1.0358(3)
C13B C 0.06292(19) -0.0541(6) 0.9903(3)
H5B H 0.0451 0.0340 1.0084
N2B N -0.14738(18) -0.2011(6) 1.0659(3)
H6B H -0.1305 -0.2229 1.1066
N3B N -0.20833(18) -0.0998(6) 0.9910(3)
C14B C -0.0932(2) -0.3441(6) 0.9654(3)
H7B H -0.0673 -0.3865 0.9966
C15B C -0.1744(2) -0.1917(7) 0.9483(3)
C16B C 0.12782(19) -0.2598(7) 1.0081(3)
C17B C -0.1349(2) -0.2548(7) 0.9941(3)
N4E N 0.33873(19) 0.6854(6) 0.5652(3)
N4G N -0.33873(19) 0.1854(6) 0.9348(3)
N4B N 0.16127(19) -0.3146(6) 1.0652(3)
C18B C -0.1902(2) -0.1100(8) 1.0606(3)
H8B H -0.2056 -0.0591 1.1014
O9 O 0.2021(6) 0.038(2) 0.3167(9)
H9 H 0.1737 0.0717 0.3367
H10 H 0.2050 -0.0585 0.3046
O10 O 0.2534(3) 0.9158(9) 0.2003(4)
O11 O 0.2500 0.7500 0.3979(19)
loop_
_geom_bond_atom_site_label_1
_geom_bond_atom_site_label_2
_geom_bond_site_symmetry_1
_geom_bond_site_symmetry_2
O1 C1 1_555 1_555
O2 C1 1_555 1_555
C1 C2 1_555 1_555
C2 C3 1_555 1_555
C3 C4 1_555 1_555
C4 H1 1_555 1_555
O3 C5 1_555 1_555
O4 C5 1_555 1_555
C5 C3 1_555 1_555
O5 Er1 1_555 1_555
O6 C7 1_555 1_555
Er1 O1 1_555 1_555
Ag1 N3 1_555 1_555
C6 O5 1_555 1_555
O7 C6 1_555 1_555
C7 C8 1_555 1_555
N1 H2 1_555 1_555
C8 C10 1_555 1_555
O8 C7 1_555 1_555
C9 N1 1_555 1_555
H3 C9 1_555 1_555
C10 H4 1_555 1_555
C11 C6 1_555 1_555
C12 N1 1_555 1_555
C13 C11 1_555 1_555
H5 C13 1_555 1_555
N2 H6 1_555 1_555
N3 C15 1_555 1_555
C14 C2 1_555 1_555
H7 C14 1_555 1_555
C15 C4 1_555 1_555
C16 C10 1_555 1_555
C17 N2 1_555 1_555
N4 C9 1_555 1_555
C18 N2 1_555 1_555
H8 C18 1_555 1_555
O9 H9 1_555 1_555
H10 O9 1_555 1_555
O1B Er1 1_555 1_555
O1B_2 Er1B 1_555 1_555
O2B C1B 1_555 1_555
O2B_2 Er1B 1_555 1_555
C1B O1B 1_555 1_555
C2B C1B 1_555 1_555
C3B C2B 1_555 1_555
C4B C3B 1_555 1_555
H1B C4B 1_555 1_555
O3B Er1 1_555 1_555
O4B C5B 1_555 1_555
C5B C3B 1_555 1_555
O5B Er1B 1_555 1_555
O6_2 Er1 1_555 1_555
O6B Er1B 1_555 1_555
O6B_2 Er1B_2 1_555 1_555
Er1B O1 1_555 1_555
Er1_2 O6 1_555 1_555
Er1B_2 O7 1_555 1_555
Ag1B N3B 1_555 1_555
Ag1E N4 1_555 1_555
Ag1G N4B 1_555 1_555
C6B O5B 1_555 1_555
O7_2 Er1B 1_555 1_555
O7B Er1 1_555 1_555
C7B O6B_2 1_555 1_555
N1B H2B 1_555 1_555
C8B C7B 1_555 1_555
O8_2 Er1B 1_555 1_555
O8B Er1 1_555 1_555
C9B N1B 1_555 1_555
H3B C9B 1_555 1_555
C10B C8B 1_555 1_555
H4B C10B 1_555 1_555
C11B C6B 1_555 1_555
C12B N1B 1_555 1_555
C13B C11B 1_555 1_555
H5B C13B 1_555 1_555
N2B H6B 1_555 1_555
N3B C15B 1_555 1_555
C14B C2B 1_555 1_555
H7B C14B 1_555 1_555
C15B C4B 1_555 1_555
C16B C10B 1_555 1_555
C17B N2B 1_555 1_555
N4E Ag1 1_555 1_555
N4G Ag1B 1_555 1_555
N4B C9B 1_555 1_555
C18B N2B 1_555 1_555
H8B C18B 1_555 1_555
O2 Er1 1_555 1_555
O3 Er1B 1_555 1_555
C8 C11 1_555 1_555
O8 Er1B_2 1_555 1_555
C12 C13 1_555 1_555
C12 C16 1_555 1_555
N3 C18 1_555 1_555
C14 C17 1_555 1_555
C15 C17 1_555 1_555
C16 N4 1_555 1_555
O1B Er1B_2 1_555 1_555
O2B Er1B_2 1_555 1_555
O3B C5B 1_555 1_555
C6B O7B 1_555 1_555
C7B O8B 1_555 1_555
C8B C11B 1_555 1_555
C12B C13B 1_555 1_555
C12B C16B 1_555 1_555
N3B C18B 1_555 1_555
C14B C17B 1_555 1_555
C15B C17B 1_555 1_555
C16B N4B 1_555 1_555

#END
