
#######################################################################
#
#                 Cambridge Crystallographic Data Centre
#                                CCDC 
#
#######################################################################
#
# If this CIF has been generated from an entry in the Cambridge 
# Structural Database, then it will include bibliographic, chemical, 
# crystal, experimental, refinement or atomic coordinate data resulting 
# from the CCDC's data processing and validation procedures.
#
#######################################################################

data_BASSOF
_chemical_formula_moiety         '(C36 H22 Ag2 Dy2 N8 O19)n'
_symmetry_cell_setting           orthorhombic
_symmetry_space_group_name_H-M   'P c c n'
_symmetry_Int_Tables_number      56
_space_group_name_Hall           '-P 2ab 2ac'
loop_
_symmetry_equiv_pos_site_id
_symmetry_equiv_pos_as_xyz
1 x,y,z
2 1/2-x,1/2-y,z
3 -x,1/2+y,1/2-z
4 1/2+x,-y,1/2-z
5 -x,-y,-z
6 1/2+x,1/2+y,-z
7 x,1/2-y,1/2+z
8 1/2-x,y,1/2+z
_cell_length_a                   25.326(5)
_cell_length_b                   8.4517(17)
_cell_length_c                   17.748(4)
_cell_angle_alpha                90
_cell_angle_beta                 90
_cell_angle_gamma                90
_cell_volume                     3798.92
loop_
_atom_site_label
_atom_site_type_symbol
_atom_site_fract_x
_atom_site_fract_y
_atom_site_fract_z
Dy1 Dy 0.523842(6) 0.334562(18) 0.217695(9)
Ag1 Ag 0.772677(11) 0.53797(3) 0.449971(16)
O1 O 0.52428(9) 0.1353(3) 0.12883(14)
O2 O 0.47814(9) -0.0775(3) 0.16109(13)
O3 O 0.55939(10) -0.2226(3) 0.24019(13)
O4 O 0.58073(10) -0.4579(3) 0.19286(14)
O5 O 0.61050(10) 0.2502(3) 0.21445(12)
O6 O 0.66074(11) 0.0399(3) 0.23494(15)
O7 O 0.53026(9) 0.0878(3) 0.28892(12)
O8 O 0.52365(10) -0.0635(3) 0.38857(14)
N1 N 0.60934(12) -0.1254(3) -0.11113(16)
H3 H 0.5960 -0.0590 -0.1425
N2 N 0.65979(12) -0.3165(3) -0.06603(16)
N3 N 0.70785(12) 0.4023(4) 0.48946(16)
N4 N 0.64623(13) 0.3060(3) 0.56505(16)
H4 H 0.6290 0.2871 0.6058
C1 C 0.51754(14) -0.0103(4) 0.12931(19)
C2 C 0.55557(14) -0.1057(4) 0.08339(19)
C3 C 0.56247(14) -0.0536(4) 0.00983(18)
H5 H 0.5449 0.0356 -0.0079
C4 C 0.59636(15) -0.1388(4) -0.0363(2)
C5 C 0.64632(14) -0.2334(4) -0.1268(2)
H6 H 0.6609 -0.2486 -0.1744
C6 C 0.62720(14) -0.2621(4) -0.0085(2)
C7 C 0.61967(15) -0.3171(4) 0.0640(2)
H7 H 0.6389 -0.4027 0.0822
C8 C 0.58277(14) -0.2417(4) 0.10892(19)
C9 C 0.57378(13) -0.3098(4) 0.1865(2)
C10 C 0.63437(15) 0.1507(4) 0.2579(2)
C11 C 0.63226(14) 0.1884(4) 0.3410(2)
C12 C 0.67430(14) 0.2746(4) 0.37065(19)
H8 H 0.7019 0.3083 0.3400
C13 C 0.67396(14) 0.3087(4) 0.4471(2)
C14 C 0.68887(14) 0.3948(4) 0.5591(2)
H9 H 0.7042 0.4470 0.5997
C15 C 0.63430(14) 0.2494(4) 0.4948(2)
C16 C 0.59208(15) 0.1593(4) 0.4657(2)
H10 H 0.5658 0.1195 0.4971
C17 C 0.59110(14) 0.1323(4) 0.3886(2)
C18 C 0.54570(14) 0.0478(4) 0.3552(2)
Dy1B Dy 0.476158(6) 0.834562(18) 0.282305(9)
Dy1B_2 Dy 0.476158(6) -0.165438(18) 0.282305(9)
Dy1_2 Dy 0.523842(6) -0.665438(18) 0.217695(9)
Ag1B Ag 0.227323(11) 1.03797(3) 0.050029(16)
Ag1G Ag 0.727323(11) -0.46203(3) -0.050029(16)
Ag1E Ag 0.272677(11) 0.03797(3) 0.550029(16)
O1B O 0.47572(9) 0.6353(3) 0.37117(14)
O2B O 0.52186(9) 0.4225(3) 0.33891(13)
O2_2 O 0.47814(9) 0.9225(3) 0.16109(13)
O3B O 0.44061(10) 0.2774(3) 0.25981(13)
O3_2 O 0.55939(10) 0.7774(3) 0.24019(13)
O4B O 0.41927(10) 0.0421(3) 0.30714(14)
O4_2 O 0.58073(10) 0.5421(3) 0.19286(14)
O4B_2 O 0.41927(10) 1.0421(3) 0.30714(14)
O5B O 0.38950(10) 0.7502(3) 0.28555(12)
O6B O 0.33926(11) 0.5399(3) 0.26506(15)
O7B O 0.46974(9) 0.5878(3) 0.21108(12)
O7_2 O 0.53026(9) 1.0878(3) 0.28892(12)
O8B O 0.47635(10) 0.4365(3) 0.11143(14)
O8_2 O 0.52365(10) 0.9365(3) 0.38857(14)
N1B N 0.39066(12) 0.3746(3) 0.61113(16)
H3B H 0.4040 0.4410 0.6425
N2B N 0.34021(12) 0.1835(3) 0.56603(16)
N2G N 0.84021(12) 0.6835(3) 0.43397(16)
N2E N 0.15979(12) 1.1835(3) 0.06603(16)
N3B N 0.29215(12) 0.9023(4) 0.01054(16)
N4B N 0.35377(13) 0.8060(3) -0.06505(16)
H4B H 0.3710 0.7871 -0.1058
C1B C 0.48246(14) 0.4897(4) 0.37069(19)
C2B C 0.44443(14) 0.3943(4) 0.41661(19)
C3B C 0.43753(14) 0.4464(4) 0.49017(18)
H5B H 0.4551 0.5356 0.5079
C4B C 0.40364(15) 0.3612(4) 0.5363(2)
C5B C 0.35368(14) 0.2666(4) 0.6268(2)
H6B H 0.3391 0.2514 0.6744
C6B C 0.37280(14) 0.2379(4) 0.5085(2)
C7B C 0.38033(15) 0.1829(4) 0.4360(2)
H7B H 0.3611 0.0973 0.4178
C8B C 0.41723(14) 0.2583(4) 0.39108(19)
C9B C 0.42622(13) 0.1902(4) 0.3135(2)
C10B C 0.36563(15) 0.6507(4) 0.2421(2)
C11B C 0.36774(14) 0.6884(4) 0.1590(2)
C12B C 0.32570(14) 0.7746(4) 0.12935(19)
H8B H 0.2981 0.8083 0.1600
C13B C 0.32604(14) 0.8087(4) 0.0529(2)
C14B C 0.31113(14) 0.8948(4) -0.0591(2)
H9B H 0.2958 0.9470 -0.0997
C15B C 0.36570(14) 0.7494(4) 0.0052(2)
C16B C 0.40792(15) 0.6593(4) 0.0343(2)
H10B H 0.4342 0.6195 0.0029
C17B C 0.40890(14) 0.6323(4) 0.1114(2)
C18B C 0.45430(14) 0.5478(4) 0.1448(2)
O9 O 0.75380(11) 0.5875(4) 0.30101(14)
H1 H 0.7868 0.5804 0.2938
H2 H 0.7360 0.5668 0.2596
O10 O 0.7500 0.7500 0.6056(6)
H11 H 0.7255 0.8186 0.6061
H11A H 0.7745 0.6814 0.6061
O11 O 0.70425(18) 0.4532(6) 0.1851(2)
H12 H 0.6786 0.5105 0.1706
H13 H 0.7051(8) 0.3579(10) 0.1700(17)
loop_
_geom_bond_atom_site_label_1
_geom_bond_atom_site_label_2
_geom_bond_site_symmetry_1
_geom_bond_site_symmetry_2
Dy1 O1 1_555 1_555
Ag1 N3 1_555 1_555
O1 C1 1_555 1_555
O2 C1 1_555 1_555
O3 C9 1_555 1_555
O4 C9 1_555 1_555
O5 Dy1 1_555 1_555
O6 C10 1_555 1_555
O7 Dy1 1_555 1_555
O8 C18 1_555 1_555
O9 H1 1_555 1_555
H2 O9 1_555 1_555
N1 H3 1_555 1_555
N2 C5 1_555 1_555
N3 C13 1_555 1_555
N4 H4 1_555 1_555
C1 C2 1_555 1_555
C2 C3 1_555 1_555
C3 H5 1_555 1_555
C4 N1 1_555 1_555
C5 N1 1_555 1_555
H6 C5 1_555 1_555
C6 N2 1_555 1_555
C7 C6 1_555 1_555
H7 C7 1_555 1_555
C8 C2 1_555 1_555
C9 C8 1_555 1_555
C10 O5 1_555 1_555
C11 C10 1_555 1_555
C12 C11 1_555 1_555
H8 C12 1_555 1_555
C13 C12 1_555 1_555
C14 N3 1_555 1_555
H9 C14 1_555 1_555
C15 N4 1_555 1_555
C16 C15 1_555 1_555
H10 C16 1_555 1_555
C17 C11 1_555 1_555
C18 O7 1_555 1_555
O10 H11 1_555 1_555
O11 H12 1_555 1_555
H13 O11 1_555 1_555
Dy1B O1B 1_555 1_555
Dy1B_2 O2 1_555 1_555
Dy1_2 O4 1_555 1_555
Ag1B N2E 1_555 1_555
Ag1G N2 1_555 1_555
Ag1E N2B 1_555 1_555
O1B C1B 1_555 1_555
O2B Dy1 1_555 1_555
O2_2 Dy1B 1_555 1_555
O3B Dy1 1_555 1_555
O3_2 Dy1B 1_555 1_555
O4B Dy1B_2 1_555 1_555
O4_2 Dy1 1_555 1_555
O4B_2 Dy1B 1_555 1_555
O5B Dy1B 1_555 1_555
O6B C10B 1_555 1_555
O7B Dy1 1_555 1_555
O7_2 Dy1B 1_555 1_555
O8B Dy1 1_555 1_555
O8_2 Dy1B 1_555 1_555
N1B H3B 1_555 1_555
N2B C5B 1_555 1_555
N2G Ag1 1_555 1_555
N3B Ag1B 1_555 1_555
N4B H4B 1_555 1_555
C1B O2B 1_555 1_555
C2B C1B 1_555 1_555
C3B C2B 1_555 1_555
H5B C3B 1_555 1_555
C4B N1B 1_555 1_555
C5B N1B 1_555 1_555
H6B C5B 1_555 1_555
C6B N2B 1_555 1_555
C7B C6B 1_555 1_555
H7B C7B 1_555 1_555
C8B C2B 1_555 1_555
C9B O3B 1_555 1_555
C10B O5B 1_555 1_555
C11B C10B 1_555 1_555
C12B C11B 1_555 1_555
H8B C12B 1_555 1_555
C13B N3B 1_555 1_555
C14B N3B 1_555 1_555
H9B C14B 1_555 1_555
C15B N4B 1_555 1_555
C16B C15B 1_555 1_555
H10B C16B 1_555 1_555
C17B C11B 1_555 1_555
C18B O7B 1_555 1_555
H11A O10 1_555 1_555
O3 Dy1B_2 1_555 1_555
O7 Dy1B_2 1_555 1_555
O8 Dy1B_2 1_555 1_555
N4 C14 1_555 1_555
C3 C4 1_555 1_555
C4 C6 1_555 1_555
C7 C8 1_555 1_555
C13 C15 1_555 1_555
C16 C17 1_555 1_555
C17 C18 1_555 1_555
Dy1B O7B 1_555 1_555
O4B C9B 1_555 1_555
O8B C18B 1_555 1_555
N4B C14B 1_555 1_555
C3B C4B 1_555 1_555
C4B C6B 1_555 1_555
C7B C8B 1_555 1_555
C8B C9B 1_555 1_555
C12B C13B 1_555 1_555
C13B C15B 1_555 1_555
C16B C17B 1_555 1_555
C17B C18B 1_555 1_555

#END
