
#######################################################################
#
#                 Cambridge Crystallographic Data Centre
#                                CCDC 
#
#######################################################################
#
# If this CIF has been generated from an entry in the Cambridge 
# Structural Database, then it will include bibliographic, chemical, 
# crystal, experimental, refinement or atomic coordinate data resulting 
# from the CCDC's data processing and validation procedures.
#
#######################################################################

data_BASTEW
_chemical_formula_moiety         '(C36 H22 Ag2 N8 O19 Sm2)n'
_symmetry_cell_setting           orthorhombic
_symmetry_space_group_name_H-M   'P c c n'
_symmetry_Int_Tables_number      56
_space_group_name_Hall           '-P 2ab 2ac'
loop_
_symmetry_equiv_pos_site_id
_symmetry_equiv_pos_as_xyz
1 x,y,z
2 1/2-x,1/2-y,z
3 -x,1/2+y,1/2-z
4 1/2+x,-y,1/2-z
5 -x,-y,-z
6 1/2+x,1/2+y,-z
7 x,1/2-y,1/2+z
8 1/2-x,y,1/2+z
_cell_length_a                   25.363(5)
_cell_length_b                   8.5955(17)
_cell_length_c                   17.822(4)
_cell_angle_alpha                90
_cell_angle_beta                 90
_cell_angle_gamma                90
_cell_volume                     3885.33
loop_
_atom_site_label
_atom_site_type_symbol
_atom_site_fract_x
_atom_site_fract_y
_atom_site_fract_z
Sm1 Sm 0.023867(7) 0.33696(2) 0.283625(11)
Ag1 Ag -0.273430(13) 1.03900(4) 0.45054(2)
O1 O 0.02046(10) 0.4245(3) 0.15909(15)
O2 O -0.02526(11) 0.6344(3) 0.12642(17)
O3 O -0.06137(10) 0.2797(3) 0.23875(15)
O4 O -0.08167(12) 0.0484(3) 0.19215(19)
O5 O -0.02710(12) 0.4409(4) 0.39018(17)
O6 O -0.03169(10) 0.5895(3) 0.28998(15)
O7 O -0.11296(10) 0.7537(3) 0.21430(15)
O8 O -0.16370(17) 0.5497(5) 0.2356(2)
N1 N -0.11014(14) 0.3740(4) -0.1122(2)
N2 N -0.16048(14) 0.1853(4) -0.0670(2)
N3 N -0.20934(14) 0.9040(4) 0.4898(2)
N4 N -0.14865(15) 0.8040(5) 0.5649(2)
C1 C -0.01842(15) 0.4903(5) 0.1275(2)
C2 C -0.05667(15) 0.3945(5) 0.0818(2)
C3 C -0.06333(15) 0.4455(5) 0.0086(2)
H1 H -0.0458 0.5331 -0.0091
C4 C -0.09724(16) 0.3612(5) -0.0375(2)
C5 C -0.14751(16) 0.2674(5) -0.1269(2)
H2 H -0.1625 0.2530 -0.1740
C6 C -0.12765(15) 0.2394(5) -0.0094(2)
C7 C -0.12039(16) 0.1861(5) 0.0629(2)
H3 H -0.1396 0.1016 0.0807
C8 C -0.08409(14) 0.2603(5) 0.1086(2)
C9 C -0.07474(15) 0.1935(5) 0.1852(2)
C10 C -0.04822(16) 0.5505(4) 0.3555(2)
C11 C -0.09423(15) 0.6361(4) 0.3884(2)
C12 C -0.09520(16) 0.6606(4) 0.4654(2)
H4 H -0.0694 0.6191 0.4966
C13 C -0.13657(15) 0.7501(5) 0.4941(2)
C14 C -0.19151(17) 0.8941(6) 0.5591(2)
H5 H -0.2070 0.9445 0.5996
C15 C -0.17549(16) 0.8119(5) 0.4468(2)
C16 C -0.17576(15) 0.7802(5) 0.3701(2)
H6 H -0.2028 0.8165 0.3394
C17 C -0.13495(15) 0.6939(5) 0.3410(2)
C18 C -0.13730(17) 0.6595(5) 0.2579(2)
H9 H -0.0967(16) 0.429(5) -0.1509(17)
H10 H -0.1325(18) 0.781(6) 0.6084(16)
Sm1B Sm -0.023867(7) -0.16304(2) 0.216375(11)
Sm1B_2 Sm -0.023867(7) 0.83696(2) 0.216375(11)
Sm1_2 Sm 0.023867(7) -0.66304(2) 0.283625(11)
Ag1E Ag 0.226570(13) -0.46100(4) 0.54946(2)
Ag1G Ag -0.226570(13) 0.03900(4) -0.04946(2)
Ag1B Ag 0.273430(13) 0.53900(4) 0.04946(2)
O1B O -0.02046(10) -0.0755(3) 0.34091(15)
O1B_2 O -0.02046(10) 0.9245(3) 0.34091(15)
O2B O 0.02526(11) 0.1344(3) 0.37358(17)
O3B O 0.06137(10) -0.2203(3) 0.26125(15)
O3B_2 O 0.06137(10) 0.7797(3) 0.26125(15)
O4B O 0.08167(12) -0.4516(3) 0.30785(19)
O4B_2 O 0.08167(12) 0.5484(3) 0.30785(19)
O4_2 O -0.08167(12) 1.0484(3) 0.19215(19)
O5B O 0.02710(12) -0.0591(4) 0.10982(17)
O5B_2 O 0.02710(12) 0.9409(4) 0.10982(17)
O6B O 0.03169(10) 0.0895(3) 0.21002(15)
O6B_2 O 0.03169(10) 1.0895(3) 0.21002(15)
O7B O 0.11296(10) 0.2537(3) 0.28570(15)
O8B O 0.16370(17) 0.0497(5) 0.2644(2)
N1B N 0.11014(14) -0.1260(4) 0.6122(2)
N2B N 0.16048(14) -0.3147(4) 0.5670(2)
N2G N -0.33952(14) 1.1853(4) 0.4330(2)
N2E N 0.33952(14) 0.6853(4) 0.0670(2)
N3B N 0.20934(14) 0.4040(4) 0.0102(2)
N4B N 0.14865(15) 0.3040(5) -0.0649(2)
C1B C 0.01842(15) -0.0097(5) 0.3725(2)
C2B C 0.05667(15) -0.1055(5) 0.4182(2)
C3B C 0.06333(15) -0.0545(5) 0.4914(2)
H1B H 0.0458 0.0331 0.5091
C4B C 0.09724(16) -0.1388(5) 0.5375(2)
C5B C 0.14751(16) -0.2326(5) 0.6269(2)
H2B H 0.1625 -0.2470 0.6740
C6B C 0.12765(15) -0.2606(5) 0.5094(2)
C7B C 0.12039(16) -0.3139(5) 0.4371(2)
H3B H 0.1396 -0.3984 0.4193
C8B C 0.08409(14) -0.2397(5) 0.3914(2)
C9B C 0.07474(15) -0.3065(5) 0.3148(2)
C10B C 0.04822(16) 0.0505(4) 0.1445(2)
C11B C 0.09423(15) 0.1361(4) 0.1116(2)
C12B C 0.09520(16) 0.1606(4) 0.0346(2)
H4B H 0.0694 0.1191 0.0034
C13B C 0.13657(15) 0.2501(5) 0.0059(2)
C14B C 0.19151(17) 0.3941(6) -0.0591(2)
H5B H 0.2070 0.4445 -0.0996
C15B C 0.17549(16) 0.3119(5) 0.0532(2)
C16B C 0.17576(15) 0.2802(5) 0.1299(2)
H6B H 0.2028 0.3165 0.1606
C17B C 0.13495(15) 0.1939(5) 0.1590(2)
C18B C 0.13730(17) 0.1595(5) 0.2421(2)
H9B H 0.0967(16) -0.071(5) 0.6509(17)
H10B H 0.1325(18) 0.281(6) -0.1084(16)
O9 O 0.7464(2) 0.0868(6) 0.3003(3)
H7 H 0.7587 0.1082 0.2564
H8 H 0.7141 0.0544 0.2998
O10 O 0.7023(3) 0.5333(12) 0.1783(5)
O11 O 0.7500 0.2500 0.6069(11)
loop_
_geom_bond_atom_site_label_1
_geom_bond_atom_site_label_2
_geom_bond_site_symmetry_1
_geom_bond_site_symmetry_2
Sm1 O1 1_555 1_555
Ag1 N3 1_555 1_555
O1 C1 1_555 1_555
O2 C1 1_555 1_555
O3 Sm1 1_555 1_555
O4 C9 1_555 1_555
O5 Sm1 1_555 1_555
O6 Sm1 1_555 1_555
O7 C18 1_555 1_555
O8 C18 1_555 1_555
N1 C4 1_555 1_555
N2 C5 1_555 1_555
N3 C14 1_555 1_555
N4 C13 1_555 1_555
C1 C2 1_555 1_555
C2 C3 1_555 1_555
C3 H1 1_555 1_555
C4 C3 1_555 1_555
C5 N1 1_555 1_555
H2 C5 1_555 1_555
C6 N2 1_555 1_555
C7 C6 1_555 1_555
H3 C7 1_555 1_555
C8 C2 1_555 1_555
C9 O3 1_555 1_555
C10 O5 1_555 1_555
C11 C10 1_555 1_555
C12 C11 1_555 1_555
H4 C12 1_555 1_555
C13 C12 1_555 1_555
C14 N4 1_555 1_555
H5 C14 1_555 1_555
C15 N3 1_555 1_555
C16 C15 1_555 1_555
H6 C16 1_555 1_555
C17 C11 1_555 1_555
C18 C17 1_555 1_555
O9 H7 1_555 1_555
H8 O9 1_555 1_555
H9 N1 1_555 1_555
H10 N4 1_555 1_555
Sm1B O4 1_555 1_555
Sm1B_2 O2 1_555 1_555
Sm1_2 O4B 1_555 1_555
Ag1E N2B 1_555 1_555
Ag1G N2 1_555 1_555
Ag1B N2E 1_555 1_555
O1B Sm1B 1_555 1_555
O1B_2 Sm1B_2 1_555 1_555
O2B Sm1 1_555 1_555
O3B Sm1B 1_555 1_555
O3B_2 Sm1B_2 1_555 1_555
O4B C9B 1_555 1_555
O4B_2 Sm1 1_555 1_555
O4_2 Sm1B_2 1_555 1_555
O5B Sm1B 1_555 1_555
O5B_2 Sm1B_2 1_555 1_555
O6B Sm1 1_555 1_555
O6B_2 Sm1B_2 1_555 1_555
O7B Sm1 1_555 1_555
O8B C18B 1_555 1_555
N1B C4B 1_555 1_555
N2B C5B 1_555 1_555
N2G Ag1 1_555 1_555
N3B Ag1B 1_555 1_555
N4B C13B 1_555 1_555
C1B O1B 1_555 1_555
C2B C1B 1_555 1_555
C3B C2B 1_555 1_555
H1B C3B 1_555 1_555
C4B C3B 1_555 1_555
C5B N1B 1_555 1_555
H2B C5B 1_555 1_555
C6B N2B 1_555 1_555
C7B C6B 1_555 1_555
H3B C7B 1_555 1_555
C8B C2B 1_555 1_555
C9B O3B 1_555 1_555
C10B O5B 1_555 1_555
C11B C10B 1_555 1_555
C12B C11B 1_555 1_555
H4B C12B 1_555 1_555
C13B C12B 1_555 1_555
C14B N3B 1_555 1_555
H5B C14B 1_555 1_555
C15B N3B 1_555 1_555
C16B C15B 1_555 1_555
H6B C16B 1_555 1_555
C17B C11B 1_555 1_555
C18B O7B 1_555 1_555
H9B N1B 1_555 1_555
H10B N4B 1_555 1_555
O6 C10 1_555 1_555
O6 Sm1B_2 1_555 1_555
O7 Sm1B_2 1_555 1_555
C4 C6 1_555 1_555
C7 C8 1_555 1_555
C8 C9 1_555 1_555
C13 C15 1_555 1_555
C16 C17 1_555 1_555
Sm1B O6B 1_555 1_555
O2B C1B 1_555 1_555
O6B C10B 1_555 1_555
N4B C14B 1_555 1_555
C4B C6B 1_555 1_555
C7B C8B 1_555 1_555
C8B C9B 1_555 1_555
C13B C15B 1_555 1_555
C16B C17B 1_555 1_555
C17B C18B 1_555 1_555

#END
