
#######################################################################
#
#                 Cambridge Crystallographic Data Centre
#                                CCDC 
#
#######################################################################
#
# If this CIF has been generated from an entry in the Cambridge 
# Structural Database, then it will include bibliographic, chemical, 
# crystal, experimental, refinement or atomic coordinate data resulting 
# from the CCDC's data processing and validation procedures.
#
#######################################################################

data_BASTIA
_chemical_formula_moiety         '(C36 H22 Ag2 N8 O19 Tb2)n'
_symmetry_cell_setting           orthorhombic
_symmetry_space_group_name_H-M   'P c c n'
_symmetry_Int_Tables_number      56
_space_group_name_Hall           '-P 2ab 2ac'
loop_
_symmetry_equiv_pos_site_id
_symmetry_equiv_pos_as_xyz
1 x,y,z
2 1/2-x,1/2-y,z
3 -x,1/2+y,1/2-z
4 1/2+x,-y,1/2-z
5 -x,-y,-z
6 1/2+x,1/2+y,-z
7 x,1/2-y,1/2+z
8 1/2-x,y,1/2+z
_cell_length_a                   25.339(5)
_cell_length_b                   8.5112(17)
_cell_length_c                   17.774(4)
_cell_angle_alpha                90
_cell_angle_beta                 90
_cell_angle_gamma                90
_cell_volume                     3833.23
loop_
_atom_site_label
_atom_site_type_symbol
_atom_site_fract_x
_atom_site_fract_y
_atom_site_fract_z
Tb1 Tb -0.024069(8) 0.66462(2) 0.217127(11)
Ag1 Ag 0.273004(13) -0.03838(4) 0.05040(2)
O1 O 0.08131(12) 0.9560(3) 0.30652(18)
O2 O 0.05988(11) 0.7212(3) 0.26019(16)
O3 O -0.02137(11) 0.5774(3) 0.33984(17)
O4 O 0.02456(12) 0.3646(4) 0.37169(17)
O5 O 0.02440(12) 0.5622(4) 0.11039(18)
O6 O 0.03071(11) 0.4127(3) 0.21063(16)
O7 O 0.11164(11) 0.2487(4) 0.28579(16)
O8 O 0.16041(14) 0.4609(4) 0.26468(19)
N1 N 0.15963(15) 0.8156(4) 0.5670(2)
N2 N 0.10897(14) 0.6259(4) 0.6117(2)
H1 H 0.0954 0.5606 0.6431
N3 N 0.20818(14) 0.0968(4) 0.0108(2)
N4 N 0.14690(15) 0.1926(4) -0.0648(2)
H2 H 0.1297 0.2115 -0.1055
C1 C 0.07410(17) 0.8088(5) 0.3137(3)
C2 C 0.08310(17) 0.7416(5) 0.3907(2)
C3 C 0.11966(18) 0.8165(5) 0.4363(3)
H3 H 0.1389 0.9018 0.4185
C4 C 0.12707(16) 0.7619(5) 0.5091(2)
C5 C 0.14654(16) 0.7331(5) 0.6271(2)
H4 H 0.1615 0.7472 0.6744
C6 C 0.09618(17) 0.6395(5) 0.5367(2)
C7 C 0.06244(16) 0.5547(5) 0.4903(2)
H5 H 0.0450 0.4659 0.5079
C8 C 0.05558(16) 0.6059(5) 0.4172(2)
C9 C 0.01749(16) 0.5106(5) 0.3712(2)
C10 C 0.04626(17) 0.4517(5) 0.1448(2)
C11 C 0.09203(17) 0.3670(5) 0.1110(2)
C12 C 0.09298(18) 0.3397(5) 0.0338(3)
H6 H 0.0670 0.3796 0.0023
C13 C 0.13484(17) 0.2495(5) 0.0058(2)
C14 C 0.18982(18) 0.1034(5) -0.0588(3)
H7 H 0.2053 0.0513 -0.0992
C15 C 0.17424(18) 0.1901(5) 0.0532(3)
C16 C 0.17462(17) 0.2244(5) 0.1299(2)
H8 H 0.2020 0.1902 0.1607
C17 C 0.13301(17) 0.3108(5) 0.1588(2)
C18 C 0.13484(17) 0.3481(5) 0.2418(3)
Tb1B Tb 0.024069(8) 1.16462(2) 0.282873(11)
Tb1B_2 Tb 0.024069(8) 0.16462(2) 0.282873(11)
Tb1_2 Tb -0.024069(8) 1.66462(2) 0.217127(11)
Ag1G Ag 0.226996(13) 0.96162(4) 0.55040(2)
Ag1B Ag -0.273004(13) 0.46162(4) 0.44960(2)
Ag1E Ag -0.226996(13) 1.46162(4) -0.05040(2)
O1B O -0.08131(12) 0.4560(3) 0.19348(18)
O1_2 O 0.08131(12) -0.0440(3) 0.30652(18)
O1B_2 O -0.08131(12) 1.4560(3) 0.19348(18)
O2B O -0.05988(11) 0.2212(3) 0.23981(16)
O2B_2 O -0.05988(11) 1.2212(3) 0.23981(16)
O3B O 0.02137(11) 0.0774(3) 0.16016(17)
O3B_2 O 0.02137(11) 1.0774(3) 0.16016(17)
O4B O -0.02456(12) 0.8646(4) 0.12831(17)
O5B O -0.02440(12) 1.0622(4) 0.38961(18)
O5B_2 O -0.02440(12) 0.0622(4) 0.38961(18)
O6B O -0.03071(11) 0.9127(3) 0.28937(16)
O6B_2 O -0.03071(11) -0.0873(3) 0.28937(16)
O7B O -0.11164(11) 0.7487(4) 0.21421(16)
O8B O -0.16041(14) 0.9609(4) 0.23532(19)
N1G N 0.34037(15) -0.1844(4) 0.0670(2)
N1E N -0.34037(15) 0.3156(4) 0.4330(2)
N1B N -0.15963(15) 1.3156(4) -0.0670(2)
N2B N -0.10897(14) 1.1259(4) -0.1117(2)
H1B H -0.0954 1.0606 -0.1431
N3B N -0.20818(14) 0.5968(4) 0.4892(2)
N4B N -0.14690(15) 0.6926(4) 0.5648(2)
H2B H -0.1297 0.7115 0.6055
C1B C -0.07410(17) 1.3088(5) 0.1863(3)
C2B C -0.08310(17) 1.2416(5) 0.1093(2)
C3B C -0.11966(18) 1.3165(5) 0.0637(3)
H3B H -0.1389 1.4018 0.0815
C4B C -0.12707(16) 1.2619(5) -0.0091(2)
C5B C -0.14654(16) 1.2331(5) -0.1271(2)
H4B H -0.1615 1.2472 -0.1744
C6B C -0.09618(17) 1.1395(5) -0.0367(2)
C7B C -0.06244(16) 1.0547(5) 0.0097(2)
H5B H -0.0450 0.9659 -0.0079
C8B C -0.05558(16) 1.1059(5) 0.0828(2)
C9B C -0.01749(16) 1.0106(5) 0.1288(2)
C10B C -0.04626(17) 0.9517(5) 0.3552(2)
C11B C -0.09203(17) 0.8670(5) 0.3890(2)
C12B C -0.09298(18) 0.8397(5) 0.4662(3)
H6B H -0.0670 0.8796 0.4977
C13B C -0.13484(17) 0.7495(5) 0.4942(2)
C14B C -0.18982(18) 0.6034(5) 0.5588(3)
H7B H -0.2053 0.5513 0.5992
C15B C -0.17424(18) 0.6901(5) 0.4468(3)
C16B C -0.17462(17) 0.7244(5) 0.3701(2)
H8B H -0.2020 0.6902 0.3393
C17B C -0.13301(17) 0.8108(5) 0.3412(2)
C18B C -0.13484(17) 0.8481(5) 0.2582(3)
O9 O 0.25443(14) -0.0862(4) 0.1979(2)
H9 H 0.2799 -0.0440 0.2215
H10 H 0.2393 -0.1671 0.2188
O10 O 0.2500 0.7500 0.8933(9)
H11 H 0.2740 0.6834 0.9031
H11A H 0.2260 0.8166 0.9031
O11 O 0.2038(3) 0.0478(12) 0.3166(4)
H12 H 0.2202 0.0545 0.3582
H13 H 0.2116 -0.0246 0.2856
loop_
_geom_bond_atom_site_label_1
_geom_bond_atom_site_label_2
_geom_bond_site_symmetry_1
_geom_bond_site_symmetry_2
Tb1 O2 1_555 1_555
Ag1 N3 1_555 1_555
O1 C1 1_555 1_555
O2 C1 1_555 1_555
O3 Tb1 1_555 1_555
O4 C9 1_555 1_555
O5 Tb1 1_555 1_555
O6 Tb1 1_555 1_555
O7 C18 1_555 1_555
O8 C18 1_555 1_555
N1 C4 1_555 1_555
N2 H1 1_555 1_555
N3 C14 1_555 1_555
N4 H2 1_555 1_555
C1 C2 1_555 1_555
C2 C3 1_555 1_555
C3 H3 1_555 1_555
C4 C3 1_555 1_555
C5 N1 1_555 1_555
H4 C5 1_555 1_555
C6 N2 1_555 1_555
C7 C6 1_555 1_555
H5 C7 1_555 1_555
C8 C2 1_555 1_555
C9 O3 1_555 1_555
C10 O5 1_555 1_555
C11 C10 1_555 1_555
C12 C11 1_555 1_555
H6 C12 1_555 1_555
C13 N4 1_555 1_555
C14 N4 1_555 1_555
H7 C14 1_555 1_555
C15 N3 1_555 1_555
C16 C15 1_555 1_555
H8 C16 1_555 1_555
C17 C11 1_555 1_555
C18 C17 1_555 1_555
O9 H9 1_555 1_555
H10 O9 1_555 1_555
O10 H11 1_555 1_555
O11 H12 1_555 1_555
H13 O11 1_555 1_555
Tb1B O1 1_555 1_555
Tb1B_2 O4 1_555 1_555
Tb1_2 O1B_2 1_555 1_555
Ag1G N1 1_555 1_555
Ag1B N1E 1_555 1_555
Ag1E N1B 1_555 1_555
O1B Tb1 1_555 1_555
O1_2 Tb1B_2 1_555 1_555
O1B_2 C1B 1_555 1_555
O2B Tb1B_2 1_555 1_555
O2B_2 Tb1B 1_555 1_555
O3B Tb1B_2 1_555 1_555
O3B_2 Tb1B 1_555 1_555
O4B Tb1 1_555 1_555
O5B Tb1B 1_555 1_555
O5B_2 Tb1B_2 1_555 1_555
O6B Tb1 1_555 1_555
O6B_2 Tb1B_2 1_555 1_555
O7B Tb1 1_555 1_555
O8B C18B 1_555 1_555
N1G Ag1 1_555 1_555
N1B C4B 1_555 1_555
N2B H1B 1_555 1_555
N3B Ag1B 1_555 1_555
N4B H2B 1_555 1_555
C1B O2B_2 1_555 1_555
C2B C1B 1_555 1_555
C3B C2B 1_555 1_555
H3B C3B 1_555 1_555
C4B C3B 1_555 1_555
C5B N1B 1_555 1_555
H4B C5B 1_555 1_555
C6B N2B 1_555 1_555
C7B C6B 1_555 1_555
H5B C7B 1_555 1_555
C8B C2B 1_555 1_555
C9B O3B_2 1_555 1_555
C10B O5B 1_555 1_555
C11B C10B 1_555 1_555
C12B C11B 1_555 1_555
H6B C12B 1_555 1_555
C13B N4B 1_555 1_555
C14B N3B 1_555 1_555
H7B C14B 1_555 1_555
C15B N3B 1_555 1_555
C16B C15B 1_555 1_555
H8B C16B 1_555 1_555
C17B C11B 1_555 1_555
C18B O7B 1_555 1_555
H11A O10 1_555 1_555
O6 C10 1_555 1_555
O6 Tb1B_2 1_555 1_555
O7 Tb1B_2 1_555 1_555
N2 C5 1_555 1_555
C4 C6 1_555 1_555
C7 C8 1_555 1_555
C8 C9 1_555 1_555
C12 C13 1_555 1_555
C13 C15 1_555 1_555
C16 C17 1_555 1_555
Tb1B O6B 1_555 1_555
O4B C9B 1_555 1_555
O6B C10B 1_555 1_555
N2B C5B 1_555 1_555
N4B C14B 1_555 1_555
C4B C6B 1_555 1_555
C7B C8B 1_555 1_555
C8B C9B 1_555 1_555
C12B C13B 1_555 1_555
C13B C15B 1_555 1_555
C16B C17B 1_555 1_555
C17B C18B 1_555 1_555

#END
