
#######################################################################
#
#                 Cambridge Crystallographic Data Centre
#                                CCDC 
#
#######################################################################
#
# If this CIF has been generated from an entry in the Cambridge 
# Structural Database, then it will include bibliographic, chemical, 
# crystal, experimental, refinement or atomic coordinate data resulting 
# from the CCDC's data processing and validation procedures.
#
#######################################################################

data_COQTEJ
_chemical_formula_moiety         '(C72 H52 Mg4 N8 O30)n'
_symmetry_cell_setting           monoclinic
_symmetry_space_group_name_H-M   'P 2/c'
_symmetry_Int_Tables_number      13
_space_group_name_Hall           '-P 2yc'
loop_
_symmetry_equiv_pos_site_id
_symmetry_equiv_pos_as_xyz
1 x,y,z
2 -x,y,1/2-z
3 -x,-y,-z
4 x,-y,1/2+z
_cell_length_a                   34.3413(18)
_cell_length_b                   10.0447(7)
_cell_length_c                   17.7382(17)
_cell_angle_alpha                90
_cell_angle_beta                 96.234(6)
_cell_angle_gamma                90
_cell_volume                     6082.58
loop_
_atom_site_label
_atom_site_type_symbol
_atom_site_fract_x
_atom_site_fract_y
_atom_site_fract_z
Mg1 Mg 0.22581(3) 0.93787(10) 0.23681(7)
Mg2 Mg 0.30357(3) 0.71735(12) 0.27617(8)
O1 O 0.36066(8) 0.7864(4) 0.2960(2)
H1 H 0.3710 0.8198 0.3375
H2 H 0.3773 0.7858 0.2639
O2 O 0.32764(11) 0.5380(4) 0.2480(3)
O3 O 0.24922(7) 0.6335(2) 0.25515(19)
O4 O 0.30406(7) 1.2055(3) 0.67040(17)
O5 O 0.39631(9) 1.1964(5) 0.4200(3)
O6 O 0.39811(9) 0.8359(5) 0.5727(3)
O7 O 0.28002(7) 0.9005(2) 0.30710(15)
O8 O 0.22840(7) 0.9653(3) 0.36027(17)
O9 O 0.24974(7) 1.0849(3) 0.64006(16)
O10 O 0.30603(11) 0.6527(4) 0.3863(2)
O11 O 0.19765(7) 0.7655(2) 0.23042(17)
O12 O 0.17709(7) 0.0590(2) 0.20271(18)
O13 O 0.23397(7) 0.1499(2) 0.23526(18)
O14 O 0.06188(9) 0.4332(5) 0.2142(2)
O15 O 0.12227(8) 0.4899(5) 0.0032(2)
N1 N 0.09105(8) 0.4589(3) 0.10785(19)
N2 N 0.39782(8) 1.0151(4) 0.4963(2)
N3 N 0.3419(3) 0.3189(7) 0.2346(6)
C1 C 0.27537(10) 1.0318(4) 0.4959(2)
H3 H 0.2483 1.0340 0.4966
C2 C 0.14382(10) 0.3140(3) 0.1646(2)
H4 H 0.1287 0.2402 0.1486
C3 C 0.26441(10) 0.9455(3) 0.3638(2)
C4 C 0.18851(9) 0.5355(3) 0.2108(2)
C5 C 0.19832(10) 0.1593(3) 0.2135(2)
C6 C 0.21431(10) 0.6530(3) 0.2346(2)
C7 C 0.33995(12) 1.0752(4) 0.5583(3)
H5 H 0.3565 1.1086 0.5989
C8 C 0.47924(10) 1.0033(4) 0.4995(3)
C9 C 0.35470(10) 1.0230(4) 0.4965(2)
C10 C 0.02002(10) 0.4674(5) 0.0987(3)
C11 C 0.20374(10) 0.4065(3) 0.2226(2)
H6 H 0.2293 0.3948 0.2451
C12 C 0.09132(10) 0.4836(5) 0.0312(3)
C13 C 0.01863(9) 0.4931(4) 0.0224(2)
C14 C 0.12909(10) 0.4419(3) 0.1520(2)
C15 C 0.45877(12) 1.1025(6) 0.4559(3)
C16 C 0.18116(9) 0.2978(3) 0.2011(2)
C17 C 0.29085(10) 0.9834(4) 0.4324(2)
C18 C 0.29975(10) 1.0775(4) 0.5591(2)
C19 C 0.15129(10) 0.5508(3) 0.1752(2)
H7 H 0.1410 0.6358 0.1668
C20 C 0.28265(11) 1.1267(4) 0.6291(2)
C21 C 0.41533(12) 1.1101(5) 0.4539(3)
C22 C 0.33127(9) 0.9802(4) 0.4333(2)
H8 H 0.3411 0.9515 0.3966
C23 C -0.01466(12) 0.4641(6) 0.1341(3)
H9 H -0.0102 0.4541 0.1875
C24 C 0.05030(11) 0.5224(7) -0.0909(3)
H10 H 0.0732 0.5297 -0.1142
C25 C 0.05281(10) 0.4983(5) -0.0142(2)
C26 C 0.05827(11) 0.4550(5) 0.1464(3)
C27 C 0.41657(12) 0.9135(6) 0.5397(4)
C28 C 0.46035(12) 0.9096(5) 0.5396(3)
C29 C 0.51847(14) 1.1861(7) 0.4171(4)
H11 H 0.5327 1.2642 0.4119
C30 C 0.3195(2) 0.4344(8) 0.2380(8)
H12 H 0.2926 0.4200 0.2302
C31 C 0.47820(13) 1.1918(7) 0.4155(5)
H13 H 0.4651 1.2369 0.3746
C32 C 0.3324(3) 0.1941(13) 0.2423(9)
C33 C 0.3908(3) 0.3262(15) 0.2369(10)
H14 H 0.4003 0.2448 0.2173
H15 H 0.4022 0.3385 0.2883
H16 H 0.3979 0.3996 0.2065
N4 N 0.3306(10) 0.506(2) 0.4726(15)
C34 C 0.3130(7) 0.372(2) 0.4500(18)
H17 H 0.2855 0.3821 0.4346
H18 H 0.3167 0.3121 0.4924
H19 H 0.3256 0.3363 0.4087
C35 C 0.3216(8) 0.5997(15) 0.4215(10)
C36 C 0.3690(12) 0.464(3) 0.5318(17)
O3B O -0.24922(7) 0.3665(2) -0.25515(19)
O11B O -0.19765(7) 0.2345(2) -0.23042(17)
O12B O -0.17709(7) 0.9410(2) -0.20271(18)
O13B O -0.23397(7) 0.8501(2) -0.23526(18)
O14B O -0.06188(9) 0.5668(5) -0.2142(2)
O15B O -0.12227(8) 0.5101(5) -0.0032(2)
N1B N -0.09105(8) 0.5411(3) -0.10785(19)
C2B C -0.14382(10) 0.6860(3) -0.1646(2)
H4B H -0.1287 0.7598 -0.1486
C4B C -0.18851(9) 0.4645(3) -0.2108(2)
C5B C -0.19832(10) 0.8407(3) -0.2135(2)
C6B C -0.21431(10) 0.3470(3) -0.2346(2)
C10B C -0.02002(10) 0.5326(5) -0.0987(3)
C11B C -0.20374(10) 0.5935(3) -0.2226(2)
H6B H -0.2293 0.6052 -0.2451
C12B C -0.09132(10) 0.5164(5) -0.0312(3)
C13B C -0.01863(9) 0.5069(4) -0.0224(2)
C14B C -0.12909(10) 0.5581(3) -0.1520(2)
C16B C -0.18116(9) 0.7022(3) -0.2011(2)
C19B C -0.15129(10) 0.4492(3) -0.1752(2)
H7B H -0.1410 0.3642 -0.1668
C23B C 0.01466(12) 0.5359(6) -0.1341(3)
H9B H 0.0102 0.5459 -0.1875
C24B C -0.05030(11) 0.4776(7) 0.0909(3)
H10B H -0.0732 0.4703 0.1142
C25B C -0.05281(10) 0.5017(5) 0.0142(2)
C26B C -0.05827(11) 0.5450(5) -0.1464(3)
O5B O 0.60369(9) 0.8036(5) 0.5800(3)
O6B O 0.60189(9) 1.1641(5) 0.4273(3)
O7B O 0.71998(7) 1.0995(2) 0.69290(15)
O8B O 0.77160(7) 1.0347(3) 0.63973(17)
N2B N 0.60218(8) 0.9849(4) 0.5037(2)
C1B C 0.72463(10) 0.9682(4) 0.5041(2)
H3B H 0.7517 0.9660 0.5034
C3B C 0.73559(10) 1.0545(3) 0.6362(2)
C7B C 0.66005(12) 0.9248(4) 0.4417(3)
H5B H 0.6435 0.8914 0.4011
C8B C 0.52076(10) 0.9967(4) 0.5005(3)
C9B C 0.64530(10) 0.9770(4) 0.5035(2)
C15B C 0.54123(12) 0.8975(6) 0.5441(3)
C17B C 0.70915(10) 1.0166(4) 0.5676(2)
C18B C 0.70025(10) 0.9225(4) 0.4409(2)
C21B C 0.58467(12) 0.8899(5) 0.5461(3)
C22B C 0.66873(9) 1.0198(4) 0.5667(2)
H8B H 0.6589 1.0485 0.6034
C27B C 0.58343(12) 1.0865(6) 0.4603(4)
C28B C 0.53965(12) 1.0904(5) 0.4604(3)
C29B C 0.48153(14) 0.8139(7) 0.5829(4)
H11B H 0.4673 0.7358 0.5881
C31B C 0.52180(13) 0.8082(7) 0.5845(5)
H13B H 0.5349 0.7631 0.6254
O4B O 0.69594(7) 0.7945(3) 0.32960(17)
O9B O 0.75026(7) 0.9151(3) 0.35994(16)
C20B C 0.71735(11) 0.8733(4) 0.3709(2)
Mg1A Mg 0.77419(3) 0.93787(10) 0.26319(7)
Mg2A Mg 0.69643(3) 0.71735(12) 0.22383(8)
O1A O 0.63934(8) 0.7864(4) 0.2040(2)
H1A H 0.6290 0.8198 0.1625
H2A H 0.6227 0.7858 0.2361
O2A O 0.67236(11) 0.5380(4) 0.2520(3)
O10A O 0.69397(11) 0.6527(4) 0.1137(2)
N3A N 0.6581(3) 0.3189(7) 0.2654(6)
C30A C 0.6805(2) 0.4344(8) 0.2620(8)
H12A H 0.7074 0.4200 0.2698
C32A C 0.6676(3) 0.1941(13) 0.2577(9)
C33A C 0.6092(3) 0.3262(15) 0.2631(10)
H14A H 0.5997 0.2448 0.2827
H15A H 0.5978 0.3385 0.2117
H16A H 0.6021 0.3996 0.2935
N4A N 0.6694(10) 0.506(2) 0.0274(15)
C34A C 0.6870(7) 0.372(2) 0.0500(18)
H17A H 0.7145 0.3821 0.0654
H18A H 0.6833 0.3121 0.0076
H19A H 0.6744 0.3363 0.0913
C35A C 0.6784(8) 0.5997(15) 0.0785(10)
C36A C 0.6310(12) 0.464(3) -0.0318(17)
Mg1_2 Mg 0.22581(3) -0.06213(10) 0.23681(7)
Mg1B Mg -0.22581(3) 0.06213(10) -0.23681(7)
Mg1B_2 Mg -0.22581(3) 1.06213(10) -0.23681(7)
Mg1B_3 Mg 0.77419(3) 1.06213(10) 0.76319(7)
Mg1C Mg 0.22581(3) 1.06213(10) 0.73681(7)
Mg2B Mg -0.30357(3) 0.28265(12) -0.27617(8)
Mg2B_2 Mg 0.69643(3) 1.28265(12) 0.72383(8)
Mg2C Mg 0.30357(3) 1.28265(12) 0.77617(8)
O3A O 0.75078(7) 0.6335(2) 0.24485(19)
O4C O 0.30406(7) 0.7945(3) 0.17040(17)
O7A O 0.71998(7) 0.9005(2) 0.19290(15)
O8A O 0.77160(7) 0.9653(3) 0.13973(17)
O9C O 0.24974(7) 0.9151(3) 0.14006(16)
O11A O 0.80235(7) 0.7655(2) 0.26958(17)
O12_2 O 0.17709(7) 1.0590(2) 0.20271(18)
O12A O 0.82291(7) 1.0590(2) 0.29729(18)
O13_2 O 0.23397(7) 1.1499(2) 0.23526(18)
O13A O 0.76603(7) 1.1499(2) 0.26474(18)
loop_
_geom_bond_atom_site_label_1
_geom_bond_atom_site_label_2
_geom_bond_site_symmetry_1
_geom_bond_site_symmetry_2
Mg1 O7 1_555 1_555
Mg2 O1 1_555 1_555
O1 H1 1_555 1_555
H2 O1 1_555 1_555
O2 Mg2 1_555 1_555
O3 Mg2 1_555 1_555
O4 C20 1_555 1_555
O5 C21 1_555 1_555
O6 C27 1_555 1_555
O7 Mg2 1_555 1_555
O8 Mg1 1_555 1_555
O9 C20 1_555 1_555
O10 Mg2 1_555 1_555
O11 Mg1 1_555 1_555
O12 C5 1_555 1_555
O13 C5 1_555 1_555
O14 C26 1_555 1_555
O15 C12 1_555 1_555
N1 C12 1_555 1_555
N2 C9 1_555 1_555
N3 C30 1_555 1_555
C1 H3 1_555 1_555
C2 H4 1_555 1_555
C3 O7 1_555 1_555
C4 C6 1_555 1_555
C5 C16 1_555 1_555
C6 O3 1_555 1_555
C7 H5 1_555 1_555
C8 C15 1_555 1_555
C9 C7 1_555 1_555
C10 C13 1_555 1_555
C11 C4 1_555 1_555
H6 C11 1_555 1_555
C12 C25 1_555 1_555
C13 C25 1_555 1_555
C14 N1 1_555 1_555
C15 C21 1_555 1_555
C16 C2 1_555 1_555
C17 C1 1_555 1_555
C18 C1 1_555 1_555
C19 C4 1_555 1_555
H7 C19 1_555 1_555
C20 C18 1_555 1_555
C21 N2 1_555 1_555
C22 C9 1_555 1_555
H8 C22 1_555 1_555
C23 C10 1_555 1_555
H9 C23 1_555 1_555
C24 H10 1_555 1_555
C25 C24 1_555 1_555
C26 N1 1_555 1_555
C27 N2 1_555 1_555
C28 C8 1_555 1_555
C29 H11 1_555 1_555
C30 O2 1_555 1_555
H12 C30 1_555 1_555
C31 C15 1_555 1_555
H13 C31 1_555 1_555
C32 N3 1_555 1_555
C33 N3 1_555 1_555
H14 C33 1_555 1_555
H15 C33 1_555 1_555
H16 C33 1_555 1_555
N4 C34 1_555 1_555
C34 H17 1_555 1_555
H18 C34 1_555 1_555
H19 C34 1_555 1_555
C35 O10 1_555 1_555
C36 N4 1_555 1_555
O3B C6B 1_555 1_555
O11B C6B 1_555 1_555
O12B C5B 1_555 1_555
O13B C5B 1_555 1_555
O14B C26B 1_555 1_555
O15B C12B 1_555 1_555
N1B C12B 1_555 1_555
C2B H4B 1_555 1_555
C4B C6B 1_555 1_555
C5B C16B 1_555 1_555
C10B C13B 1_555 1_555
C11B C4B 1_555 1_555
H6B C11B 1_555 1_555
C12B C25B 1_555 1_555
C13B C13 1_555 1_555
C14B N1B 1_555 1_555
C16B C2B 1_555 1_555
C19B C4B 1_555 1_555
H7B C19B 1_555 1_555
C23B C24 1_555 1_555
H9B C23B 1_555 1_555
C24B C23 1_555 1_555
H10B C24B 1_555 1_555
C25B C13B 1_555 1_555
C26B N1B 1_555 1_555
O5B C21B 1_555 1_555
O6B C27B 1_555 1_555
O7B C3B 1_555 1_555
O8B C3B 1_555 1_555
N2B C9B 1_555 1_555
C1B H3B 1_555 1_555
C3B C17B 1_555 1_555
C7B H5B 1_555 1_555
C8B C8 1_555 1_555
C9B C7B 1_555 1_555
C15B C8B 1_555 1_555
C17B C1B 1_555 1_555
C18B C1B 1_555 1_555
C21B N2B 1_555 1_555
C22B C9B 1_555 1_555
H8B C22B 1_555 1_555
C27B N2B 1_555 1_555
C28B C29 1_555 1_555
C29B C28 1_555 1_555
H11B C29B 1_555 1_555
C31B C15B 1_555 1_555
H13B C31B 1_555 1_555
O4B C20B 1_555 1_555
O9B C20B 1_555 1_555
C20B C18B 1_555 1_555
Mg1A O9B 1_555 1_555
Mg2A O4B 1_555 1_555
O1A Mg2A 1_555 1_555
H1A O1A 1_555 1_555
H2A O1A 1_555 1_555
O2A Mg2A 1_555 1_555
O10A Mg2A 1_555 1_555
N3A C30A 1_555 1_555
C30A O2A 1_555 1_555
H12A C30A 1_555 1_555
C32A N3A 1_555 1_555
C33A N3A 1_555 1_555
H14A C33A 1_555 1_555
H15A C33A 1_555 1_555
H16A C33A 1_555 1_555
N4A C34A 1_555 1_555
C34A H17A 1_555 1_555
H18A C34A 1_555 1_555
H19A C34A 1_555 1_555
C35A O10A 1_555 1_555
C36A N4A 1_555 1_555
Mg1_2 O12 1_555 1_555
Mg1B O11B 1_555 1_555
Mg1B_2 O12B 1_555 1_555
Mg1B_3 O7B 1_555 1_555
Mg1C O9 1_555 1_555
Mg2B O3B 1_555 1_555
Mg2B_2 O7B 1_555 1_555
Mg2C O4 1_555 1_555
O3A Mg2A 1_555 1_555
O4C Mg2 1_555 1_555
O7A Mg1A 1_555 1_555
O8A Mg1A 1_555 1_555
O9C Mg1 1_555 1_555
O11A Mg1A 1_555 1_555
O12_2 Mg1 1_555 1_555
O12A Mg1A 1_555 1_555
O13_2 Mg1 1_555 1_555
O13A Mg1A 1_555 1_555
O8 C3 1_555 1_555
O11 C6 1_555 1_555
O13 Mg1_2 1_555 1_555
C2 C14 1_555 1_555
C3 C17 1_555 1_555
C7 C18 1_555 1_555
C10 C26 1_555 1_555
C11 C16 1_555 1_555
C14 C19 1_555 1_555
C17 C22 1_555 1_555
C27 C28 1_555 1_555
C29 C31 1_555 1_555
N4 C35 1_555 1_555
O13B Mg1B_2 1_555 1_555
C2B C14B 1_555 1_555
C10B C23B 1_555 1_555
C10B C26B 1_555 1_555
C11B C16B 1_555 1_555
C14B C19B 1_555 1_555
C24B C25B 1_555 1_555
O8B Mg1B_3 1_555 1_555
C7B C18B 1_555 1_555
C8B C28B 1_555 1_555
C15B C21B 1_555 1_555
C17B C22B 1_555 1_555
C27B C28B 1_555 1_555
C29B C31B 1_555 1_555
Mg2A O7A 1_555 1_555
N4A C35A 1_555 1_555

#END
