
#######################################################################
#
#                 Cambridge Crystallographic Data Centre
#                                CCDC 
#
#######################################################################
#
# If this CIF has been generated from an entry in the Cambridge 
# Structural Database, then it will include bibliographic, chemical, 
# crystal, experimental, refinement or atomic coordinate data resulting 
# from the CCDC's data processing and validation procedures.
#
#######################################################################

data_HUSJUC
_chemical_formula_moiety         '(C21 H11 La1 O7)n'
_symmetry_cell_setting           monoclinic
_symmetry_space_group_name_H-M   'C c'
_symmetry_Int_Tables_number      9
_space_group_name_Hall           'C -2yc'
loop_
_symmetry_equiv_pos_site_id
_symmetry_equiv_pos_as_xyz
1 x,y,z
2 x,-y,1/2+z
3 1/2+x,1/2+y,z
4 1/2+x,1/2-y,1/2+z
_cell_length_a                   18.4394(5)
_cell_length_b                   13.7828(3)
_cell_length_c                   8.1160(2)
_cell_angle_alpha                90
_cell_angle_beta                 92.319(2)
_cell_angle_gamma                90
_cell_volume                     2060.96
loop_
_atom_site_label
_atom_site_type_symbol
_atom_site_fract_x
_atom_site_fract_y
_atom_site_fract_z
C1 C 0.6300(4) 0.5571(5) 0.4824(9)
La1 La 0.50125(3) 0.51709(2) 0.25533(4)
O1 O 0.5901(3) 0.4829(4) 0.5137(8)
O2 O 0.3636(3) 0.5503(5) 0.2506(7)
H1 H 0.3492 0.5426 0.3454
H2 H 0.3317 0.5349 0.1803
C2 C 0.6985(4) 0.5724(6) 0.5863(9)
O3 O 0.6136(3) 0.6134(4) 0.3671(6)
C3 C 0.7356(4) 0.4930(6) 0.6502(10)
H3 H 0.7172 0.4311 0.6298
O4 O 0.9427(3) 0.0895(4) 0.9624(7)
C4 C 0.8009(4) 0.5038(6) 0.7458(11)
O5 O 0.9924(3) 0.1877(4) 1.1499(7)
C5 C 0.8412(4) 0.4202(6) 0.8083(10)
O6 O 1.0419(3) 0.8334(4) 1.2080(6)
C6 C 0.8210(4) 0.3254(6) 0.7693(10)
H4 H 0.7810 0.3164 0.6972
O7 O 0.9630(3) 0.8930(4) 1.0206(6)
C7 C 0.8560(4) 0.2445(6) 0.8302(10)
H5 H 0.8408 0.1825 0.7998
C8 C 0.9163(4) 0.2589(5) 0.9410(9)
C9 C 0.9528(4) 0.1737(5) 1.0208(9)
C10 C 0.9388(4) 0.3505(6) 0.9802(9)
H6 H 0.9785 0.3586 1.0535
C11 C 0.9039(4) 0.4334(5) 0.9131(9)
C12 C 0.9313(4) 0.5315(5) 0.9492(11)
C13 C 0.9938(4) 0.5482(6) 1.0495(11)
H7 H 1.0206 0.4953 1.0887
C14 C 1.0165(4) 0.6390(6) 1.0911(10)
H8 H 1.0581 0.6473 1.1582
C15 C 0.9773(4) 0.7203(5) 1.0333(9)
C16 C 0.9960(4) 0.8204(5) 1.0914(9)
C17 C 0.9177(4) 0.7075(6) 0.9299(10)
H9 H 0.8930 0.7614 0.8876
C18 C 0.8932(4) 0.6130(6) 0.8865(9)
C19 C 0.8273(4) 0.6016(5) 0.7812(9)
C20 C 0.7892(5) 0.6789(6) 0.7094(10)
H10 H 0.8068 0.7415 0.7260
C21 C 0.7254(4) 0.6658(6) 0.6131(10)
H11 H 0.7010 0.7191 0.5674
La1A La 0.50125(3) 0.48291(2) 0.75533(4)
La1B La 1.00125(3) 0.01709(2) 1.25533(4)
La1B_2 La 1.00125(3) 1.01709(2) 1.25533(4)
La1C La 1.00125(3) -0.01709(2) 0.75533(4)
La1C_2 La 1.00125(3) 0.98291(2) 0.75533(4)
O1A O 0.5901(3) 0.5171(4) 0.0137(8)
O4B O 0.4427(3) 0.5895(4) -0.0376(7)
O4C O 0.4427(3) 0.4105(4) 0.4624(7)
O5B O 0.4924(3) 0.6877(4) 0.1499(7)
O6B O 0.5419(3) 0.3334(4) 0.2080(6)
O7B O 0.4630(3) 0.3930(4) 0.0206(6)
O7C O 0.4630(3) 0.6070(4) 0.5206(6)
loop_
_geom_bond_atom_site_label_1
_geom_bond_atom_site_label_2
_geom_bond_site_symmetry_1
_geom_bond_site_symmetry_2
C1 O1 1_555 1_555
La1 O1 1_555 1_555
O1 La1A 1_555 1_555
O2 La1 1_555 1_555
H1 O2 1_555 1_555
H2 O2 1_555 1_555
C2 C1 1_555 1_555
O3 C1 1_555 1_555
C3 C2 1_555 1_555
H3 C3 1_555 1_555
O4 C9 1_555 1_555
C4 C3 1_555 1_555
O5 C9 1_555 1_555
C5 C4 1_555 1_555
O6 C16 1_555 1_555
C6 C5 1_555 1_555
H4 C6 1_555 1_555
O7 C16 1_555 1_555
C7 C6 1_555 1_555
H5 C7 1_555 1_555
C8 C7 1_555 1_555
C9 C8 1_555 1_555
C10 C8 1_555 1_555
H6 C10 1_555 1_555
C11 C5 1_555 1_555
C12 C11 1_555 1_555
C13 C12 1_555 1_555
H7 C13 1_555 1_555
C14 C13 1_555 1_555
H8 C14 1_555 1_555
C15 C14 1_555 1_555
C16 C15 1_555 1_555
C17 C15 1_555 1_555
H9 C17 1_555 1_555
C18 C12 1_555 1_555
C19 C4 1_555 1_555
C20 C19 1_555 1_555
H10 C20 1_555 1_555
C21 C2 1_555 1_555
H11 C21 1_555 1_555
La1A O4C 1_555 1_555
La1B O4 1_555 1_555
La1B_2 O6 1_555 1_555
La1C O4 1_555 1_555
La1C_2 O7 1_555 1_555
O1A La1 1_555 1_555
O4B La1 1_555 1_555
O4C La1 1_555 1_555
O5B La1 1_555 1_555
O6B La1 1_555 1_555
O7B La1 1_555 1_555
O7C La1 1_555 1_555
La1 O3 1_555 1_555
O5 La1B 1_555 1_555
O7 La1B_2 1_555 1_555
C10 C11 1_555 1_555
C17 C18 1_555 1_555
C18 C19 1_555 1_555
C20 C21 1_555 1_555
La1A O7C 1_555 1_555

#END
