
#######################################################################
#
#                 Cambridge Crystallographic Data Centre
#                                CCDC 
#
#######################################################################
#
# If this CIF has been generated from an entry in the Cambridge 
# Structural Database, then it will include bibliographic, chemical, 
# crystal, experimental, refinement or atomic coordinate data resulting 
# from the CCDC's data processing and validation procedures.
#
#######################################################################

data_QOVSUR
_chemical_formula_moiety         '(C69 H58 Cd3 N26 O13)n'
_symmetry_cell_setting           trigonal
_symmetry_space_group_name_H-M   'P -3 1 c'
_symmetry_Int_Tables_number      163
_space_group_name_Hall           '-P 3 2c'
loop_
_symmetry_equiv_pos_site_id
_symmetry_equiv_pos_as_xyz
1 x,y,z
2 -y,x-y,z
3 -x+y,-x,z
4 -y,-x,1/2-z
5 -x+y,y,1/2-z
6 x,x-y,1/2-z
7 -x,-y,-z
8 y,-x+y,-z
9 x-y,x,-z
10 y,x,1/2+z
11 x-y,-y,1/2+z
12 -x,-x+y,1/2+z
_cell_length_a                   19.5639(4)
_cell_length_b                   19.5639(4)
_cell_length_c                   26.8732(9)
_cell_angle_alpha                90
_cell_angle_beta                 90
_cell_angle_gamma                120
_cell_volume                     8907.6
loop_
_atom_site_label
_atom_site_type_symbol
_atom_site_fract_x
_atom_site_fract_y
_atom_site_fract_z
N9 N 0.4754(4) -0.0491(8) 0.7500
O3 O 0.5162(3) 0.0325(7) 0.7500
O4 O 0.4412(6) -0.0697(5) 0.7126(4)
O4D O 0.4891(8) -0.0697(5) 0.7874(4)
N10 N 0.6667 0.3333 0.5428(9)
O5 O 0.5987(9) 0.2764(9) 0.5397(7)
O5A O 0.7236(9) 0.3223(13) 0.5397(7)
O5B O 0.6777(13) 0.4013(9) 0.5397(7)
O6 O 0.6667 0.3333 0.661(2)
H20 H 0.6667 0.3333 0.6292
Cd1 Cd 0.289930(19) 0.01014(2) 0.361439(12)
C1 C -0.0005(2) -0.0747(2) 0.37434(16)
H1 H -0.0005 -0.0777 0.3383
H2 H -0.0007 -0.1209 0.3875
C2 C 0.0745(2) -0.0004(2) 0.39157(16)
H3 H 0.0740 -0.0004 0.4280
C3 C 0.1481(2) -0.0019(2) 0.37529(16)
C4 C 0.3817(3) 0.0885(3) 0.56840(16)
C5 C 0.4561(3) 0.0979(3) 0.56760(17)
H4 H 0.4835 0.1066 0.5379
C6 C 0.4892(3) 0.0941(3) 0.61247(17)
C7 C 0.4496(3) 0.0819(4) 0.65666(18)
H5 H 0.4726 0.0796 0.6864
C8 C 0.3749(3) 0.0732(3) 0.65621(17)
C9 C 0.3396(3) 0.0769(3) 0.61224(16)
H6 H 0.2898 0.0719 0.6122
C10 C 0.2866(3) 0.1075(4) 0.51495(19)
H7 H 0.2671 0.1289 0.5380
C11 C 0.2658(3) 0.0906(4) 0.46703(19)
H8 H 0.2283 0.0990 0.4513
C12 C 0.3535(3) 0.0576(4) 0.47880(18)
H9 H 0.3887 0.0394 0.4741
C13 C 0.6291(4) 0.1484(5) 0.5814(3)
H10 H 0.6341 0.1885 0.5605
C14 C 0.6830(4) 0.1246(5) 0.5890(3)
H11 H 0.7322 0.1468 0.5738
C15 C 0.5822(3) 0.0483(4) 0.6317(2)
H12 H 0.5470 0.0056 0.6510
C16 C 0.2412(6) 0.0032(6) 0.7004(4)
H13 H 0.2082 -0.0154 0.6728
C17 C 0.2207(6) -0.0113(6) 0.7487(4)
H14 H 0.1696 -0.0418 0.7610
C18 C 0.3470(3) 0.0459(4) 0.74649(17)
H15 H 0.3949 0.0494 0.7545
C19 C 0.6178(4) 0.3661(4) 0.3223(3)
H16 H 0.5853 0.3881 0.3209
C20 C 0.5860(4) 0.2855(4) 0.3233(3)
C21 C 0.4483(6) 0.2532(7) 0.3055(5)
H17 H 0.4572 0.2986 0.2889
C22 C 0.3767(6) 0.1880(6) 0.3177(5)
H18 H 0.3278 0.1842 0.3134
C23 C 0.4642(3) 0.1610(4) 0.3380(2)
H19 H 0.4889 0.1333 0.3482
N1 N 0.3072(3) 0.0593(3) 0.44402(15)
N2 N 0.3431(3) 0.0860(3) 0.52248(14)
N3 N 0.6548(2) 0.0646(3) 0.62154(15)
N4 N 0.5652(2) 0.0998(3) 0.61142(15)
N5 N 0.2944(3) 0.0303(3) 0.77921(16)
N6 N 0.3304(3) 0.0567(4) 0.70088(15)
N7 N 0.3880(3) 0.1302(3) 0.3368(2)
N8 N 0.5034(3) 0.2357(3) 0.3234(3)
O1 O 0.20255(18) 0.05852(18) 0.35486(11)
O2 O 0.15295(18) -0.06296(18) 0.38453(11)
C1A C 0.0747(2) 0.0742(3) 0.37434(16)
H1A H 0.0777 0.0772 0.3383
H2A H 0.1209 0.1202 0.3875
C2A C 0.0004(2) 0.0749(3) 0.39157(16)
H3A H 0.0004 0.0744 0.4280
C3A C 0.0019(2) 0.1500(3) 0.37529(16)
O1A O -0.05852(18) 0.14403(25) 0.35486(11)
O2A O 0.06296(18) 0.21591(25) 0.38453(11)
C1B C -0.0742(3) 0.0005(2) 0.37434(16)
H1B H -0.0772 0.0005 0.3383
H2B H -0.1202 0.0007 0.3875
C2B C -0.0749(3) -0.0745(2) 0.39157(16)
H3B H -0.0744 -0.0740 0.4280
C3B C -0.1500(3) -0.1481(2) 0.37529(16)
O1B O -0.14403(25) -0.20255(18) 0.35486(11)
O2B O -0.21591(25) -0.15295(18) 0.38453(11)
C19A C 0.6339(4) 0.2517(6) 0.3223(3)
H16A H 0.6119 0.1972 0.3209
C20A C 0.7145(4) 0.3005(6) 0.3233(3)
C21A C 0.7468(7) 0.1951(9) 0.3055(5)
H17A H 0.7014 0.1586 0.2889
C22A C 0.8120(6) 0.1887(8) 0.3177(5)
H18A H 0.8158 0.1436 0.3134
C23A C 0.8390(4) 0.3032(5) 0.3380(2)
H19A H 0.8667 0.3556 0.3482
N7A N 0.8698(3) 0.2578(4) 0.3368(2)
N8A N 0.7643(3) 0.2677(4) 0.3234(3)
C19B C 0.7483(6) 0.3822(4) 0.3223(3)
H16B H 0.8028 0.4147 0.3209
C20B C 0.6995(6) 0.4140(4) 0.3233(3)
C21B C 0.8049(9) 0.5517(6) 0.3055(5)
H17B H 0.8414 0.5428 0.2889
C22B C 0.8113(8) 0.6233(6) 0.3177(5)
H18B H 0.8564 0.6722 0.3134
C23B C 0.6968(5) 0.5358(3) 0.3380(2)
H19B H 0.6444 0.5111 0.3482
N7B N 0.7422(4) 0.6120(3) 0.3368(2)
N8B N 0.7323(4) 0.4966(3) 0.3234(3)
Cd1A Cd -0.01014(2) 0.279790(28) 0.361439(12)
C4A C -0.0885(3) 0.2932(4) 0.56840(16)
C5A C -0.0979(3) 0.3582(4) 0.56760(17)
H4A H -0.1066 0.3769 0.5379
C6A C -0.0941(3) 0.3951(4) 0.61247(17)
C7A C -0.0819(4) 0.3677(5) 0.65666(18)
H5A H -0.0796 0.3930 0.6864
C8A C -0.0732(3) 0.3017(4) 0.65621(17)
C9A C -0.0769(3) 0.2627(4) 0.61224(16)
H6A H -0.0719 0.2179 0.6122
C10A C -0.1075(4) 0.1791(5) 0.51495(19)
H7A H -0.1289 0.1382 0.5380
C11A C -0.0906(4) 0.1752(5) 0.46703(19)
H8A H -0.0990 0.1293 0.4513
C12A C -0.0576(4) 0.2959(5) 0.47880(18)
H9A H -0.0394 0.3493 0.4741
C13A C -0.1484(5) 0.4807(6) 0.5814(3)
H10A H -0.1885 0.4456 0.5605
C14A C -0.1246(5) 0.5584(6) 0.5890(3)
H11A H -0.1468 0.5854 0.5738
C15A C -0.0483(4) 0.5339(5) 0.6317(2)
H12A H -0.0056 0.5414 0.6510
C16A C -0.0032(6) 0.2380(8) 0.7004(4)
H13A H 0.0154 0.2236 0.6728
C17A C 0.0113(6) 0.2320(8) 0.7487(4)
H14A H 0.0418 0.2114 0.7610
C18A C -0.0459(4) 0.3011(5) 0.74649(17)
H15A H -0.0494 0.3455 0.7545
N1A N -0.0593(3) 0.2479(4) 0.44402(15)
N2A N -0.0860(3) 0.2571(4) 0.52248(14)
N3A N -0.0646(3) 0.5902(4) 0.62154(15)
N4A N -0.0998(3) 0.4654(4) 0.61142(15)
N5A N -0.0303(3) 0.2641(4) 0.77921(16)
N6A N -0.0567(4) 0.2737(5) 0.70088(15)
Cd1B Cd -0.279790(28) -0.289930(19) 0.361439(12)
C4B C -0.2932(4) -0.3817(3) 0.56840(16)
C5B C -0.3582(4) -0.4561(3) 0.56760(17)
H4B H -0.3769 -0.4835 0.5379
C6B C -0.3951(4) -0.4892(3) 0.61247(17)
C7B C -0.3677(5) -0.4496(3) 0.65666(18)
H5B H -0.3930 -0.4726 0.6864
C8B C -0.3017(4) -0.3749(3) 0.65621(17)
C9B C -0.2627(4) -0.3396(3) 0.61224(16)
H6B H -0.2179 -0.2898 0.6122
C10B C -0.1791(5) -0.2866(3) 0.51495(19)
H7B H -0.1382 -0.2671 0.5380
C11B C -0.1752(5) -0.2658(3) 0.46703(19)
H8B H -0.1293 -0.2283 0.4513
C12B C -0.2959(5) -0.3535(3) 0.47880(18)
H9B H -0.3493 -0.3887 0.4741
C13B C -0.4807(6) -0.6291(4) 0.5814(3)
H10B H -0.4456 -0.6341 0.5605
C14B C -0.5584(6) -0.6830(4) 0.5890(3)
H11B H -0.5854 -0.7322 0.5738
C15B C -0.5339(5) -0.5822(3) 0.6317(2)
H12B H -0.5414 -0.5470 0.6510
C16B C -0.2380(8) -0.2412(6) 0.7004(4)
H13B H -0.2236 -0.2082 0.6728
C17B C -0.2320(8) -0.2207(6) 0.7487(4)
H14B H -0.2114 -0.1696 0.7610
C18B C -0.3011(5) -0.3470(3) 0.74649(17)
H15B H -0.3455 -0.3949 0.7545
N1B N -0.2479(4) -0.3072(3) 0.44402(15)
N2B N -0.2571(4) -0.3431(3) 0.52248(14)
N3B N -0.5902(4) -0.6548(2) 0.62154(15)
N4B N -0.4654(4) -0.5652(2) 0.61142(15)
N5B N -0.2641(4) -0.2944(3) 0.77921(16)
N6B N -0.2737(5) -0.3304(3) 0.70088(15)
Cd1A_2 Cd 0.98986(2) 0.279790(28) 0.361439(12)
Cd1B_2 Cd 0.720210(28) 0.710070(19) 0.361439(12)
Cd1F Cd 0.710070(19) -0.01014(2) 0.638561(12)
Cd1G Cd 0.01014(2) 0.720210(28) 0.638561(12)
Cd1H Cd -0.720210(28) -0.710070(19) 0.638561(12)
Cd1I Cd 0.01014(2) 0.289930(19) 0.861439(12)
Cd1J Cd 0.279790(28) -0.01014(2) 0.861439(12)
Cd1K Cd -0.289930(19) -0.279790(28) 0.861439(12)
N3F N 0.3452(2) -0.0646(3) 0.37846(15)
N3G N 0.0646(3) 0.4098(4) 0.37846(15)
N3H N -0.4098(4) -0.3452(2) 0.37846(15)
N5I N 0.0303(3) 0.2944(3) 0.27921(16)
N5J N 0.2641(4) -0.0303(3) 0.27921(16)
N5K N -0.2944(3) -0.2641(4) 0.27921(16)
N7A_2 N -0.1302(3) 0.2578(4) 0.3368(2)
N7B_2 N -0.2578(4) -0.3880(3) 0.3368(2)
loop_
_geom_bond_atom_site_label_1
_geom_bond_atom_site_label_2
_geom_bond_site_symmetry_1
_geom_bond_site_symmetry_2
Cd1 N1 1_555 1_555
C1 H1 1_555 1_555
H2 C1 1_555 1_555
C2 C1 1_555 1_555
H3 C2 1_555 1_555
C3 C2 1_555 1_555
C4 C5 1_555 1_555
C5 H4 1_555 1_555
C6 C5 1_555 1_555
C7 C6 1_555 1_555
H5 C7 1_555 1_555
C8 C7 1_555 1_555
C9 C4 1_555 1_555
H6 C9 1_555 1_555
C10 H7 1_555 1_555
C11 C10 1_555 1_555
H8 C11 1_555 1_555
C12 H9 1_555 1_555
C13 H10 1_555 1_555
C14 C13 1_555 1_555
H11 C14 1_555 1_555
C15 H12 1_555 1_555
C16 H13 1_555 1_555
C17 C16 1_555 1_555
H14 C17 1_555 1_555
C18 H15 1_555 1_555
C19 H16 1_555 1_555
C20 C19 1_555 1_555
C21 H17 1_555 1_555
C22 C21 1_555 1_555
H18 C22 1_555 1_555
C23 H19 1_555 1_555
N1 C11 1_555 1_555
N2 C4 1_555 1_555
N3 C14 1_555 1_555
N4 C6 1_555 1_555
N5 C17 1_555 1_555
N6 C8 1_555 1_555
N7 Cd1 1_555 1_555
N8 C20 1_555 1_555
O1 Cd1 1_555 1_555
O2 Cd1 1_555 1_555
N9 O3 1_555 1_555
O4 N9 1_555 1_555
N10 O5 1_555 1_555
O6 H20 1_555 1_555
C1A C2 1_555 1_555
H1A C1A 1_555 1_555
H2A C1A 1_555 1_555
C2A C1A 1_555 1_555
H3A C2A 1_555 1_555
C3A C2A 1_555 1_555
O1A C3A 1_555 1_555
O2A C3A 1_555 1_555
C1B C2A 1_555 1_555
H1B C1B 1_555 1_555
H2B C1B 1_555 1_555
C2B C1 1_555 1_555
H3B C2B 1_555 1_555
C3B C2B 1_555 1_555
O1B C3B 1_555 1_555
O2B C3B 1_555 1_555
C19A C20 1_555 1_555
H16A C19A 1_555 1_555
C20A C19A 1_555 1_555
C21A H17A 1_555 1_555
C22A C21A 1_555 1_555
H18A C22A 1_555 1_555
C23A H19A 1_555 1_555
N7A C22A 1_555 1_555
N8A C20A 1_555 1_555
C19B C20A 1_555 1_555
H16B C19B 1_555 1_555
C20B C19 1_555 1_555
C21B H17B 1_555 1_555
C22B C21B 1_555 1_555
H18B C22B 1_555 1_555
C23B H19B 1_555 1_555
N7B C22B 1_555 1_555
N8B C20B 1_555 1_555
Cd1A O1A 1_555 1_555
C4A C5A 1_555 1_555
C5A H4A 1_555 1_555
C6A C5A 1_555 1_555
C7A C6A 1_555 1_555
H5A C7A 1_555 1_555
C8A C7A 1_555 1_555
C9A C4A 1_555 1_555
H6A C9A 1_555 1_555
C10A H7A 1_555 1_555
C11A C10A 1_555 1_555
H8A C11A 1_555 1_555
C12A H9A 1_555 1_555
C13A H10A 1_555 1_555
C14A C13A 1_555 1_555
H11A C14A 1_555 1_555
C15A H12A 1_555 1_555
C16A H13A 1_555 1_555
C17A C16A 1_555 1_555
H14A C17A 1_555 1_555
C18A H15A 1_555 1_555
N1A Cd1A 1_555 1_555
N2A C4A 1_555 1_555
N3A C14A 1_555 1_555
N4A C6A 1_555 1_555
N5A C17A 1_555 1_555
N6A C8A 1_555 1_555
Cd1B O1B 1_555 1_555
C4B C5B 1_555 1_555
C5B H4B 1_555 1_555
C6B C5B 1_555 1_555
C7B C6B 1_555 1_555
H5B C7B 1_555 1_555
C8B C7B 1_555 1_555
C9B C4B 1_555 1_555
H6B C9B 1_555 1_555
C10B H7B 1_555 1_555
C11B C10B 1_555 1_555
H8B C11B 1_555 1_555
C12B H9B 1_555 1_555
C13B H10B 1_555 1_555
C14B C13B 1_555 1_555
H11B C14B 1_555 1_555
C15B H12B 1_555 1_555
C16B H13B 1_555 1_555
C17B C16B 1_555 1_555
H14B C17B 1_555 1_555
C18B H15B 1_555 1_555
N1B Cd1B 1_555 1_555
N2B C4B 1_555 1_555
N3B C14B 1_555 1_555
N4B C6B 1_555 1_555
N5B C17B 1_555 1_555
N6B C8B 1_555 1_555
Cd1A_2 N7A 1_555 1_555
Cd1B_2 N7B 1_555 1_555
Cd1F N3 1_555 1_555
Cd1G N3A 1_555 1_555
Cd1H N3B 1_555 1_555
Cd1I N5A 1_555 1_555
Cd1J N5 1_555 1_555
Cd1K N5B 1_555 1_555
N3F Cd1 1_555 1_555
N3G Cd1A 1_555 1_555
N3H Cd1B 1_555 1_555
N5I Cd1A 1_555 1_555
N5J Cd1 1_555 1_555
N5K Cd1B 1_555 1_555
N7A_2 Cd1A 1_555 1_555
N7B_2 Cd1B 1_555 1_555
O4D N9 1_555 1_555
O5A N10 1_555 1_555
O5B N10 1_555 1_555
C3 O1 1_555 1_555
C3 O2 1_555 1_555
C8 C9 1_555 1_555
C10 N2 1_555 1_555
C12 N1 1_555 1_555
C12 N2 1_555 1_555
C13 N4 1_555 1_555
C15 N3 1_555 1_555
C15 N4 1_555 1_555
C16 N6 1_555 1_555
C18 N5 1_555 1_555
C18 N6 1_555 1_555
C21 N8 1_555 1_555
C22 N7 1_555 1_555
C23 N7 1_555 1_555
C23 N8 1_555 1_555
O2A Cd1A 1_555 1_555
C1B C2B 1_555 1_555
O2B Cd1B 1_555 1_555
C21A N8A 1_555 1_555
C23A N7A 1_555 1_555
C23A N8A 1_555 1_555
C19B C20B 1_555 1_555
C21B N8B 1_555 1_555
C23B N7B 1_555 1_555
C23B N8B 1_555 1_555
C8A C9A 1_555 1_555
C10A N2A 1_555 1_555
C11A N1A 1_555 1_555
C12A N1A 1_555 1_555
C12A N2A 1_555 1_555
C13A N4A 1_555 1_555
C15A N3A 1_555 1_555
C15A N4A 1_555 1_555
C16A N6A 1_555 1_555
C18A N5A 1_555 1_555
C18A N6A 1_555 1_555
C8B C9B 1_555 1_555
C10B N2B 1_555 1_555
C11B N1B 1_555 1_555
C12B N1B 1_555 1_555
C12B N2B 1_555 1_555
C13B N4B 1_555 1_555
C15B N3B 1_555 1_555
C15B N4B 1_555 1_555
C16B N6B 1_555 1_555
C18B N5B 1_555 1_555
C18B N6B 1_555 1_555

#END
