
#######################################################################
#
#                 Cambridge Crystallographic Data Centre
#                                CCDC 
#
#######################################################################
#
# If this CIF has been generated from an entry in the Cambridge 
# Structural Database, then it will include bibliographic, chemical, 
# crystal, experimental, refinement or atomic coordinate data resulting 
# from the CCDC's data processing and validation procedures.
#
#######################################################################

data_MIXYEZ
_chemical_formula_moiety         '(C45 H48 N6 Ni3 O18)n'
_symmetry_cell_setting           hexagonal
_symmetry_space_group_name_H-M   'P -6 2 m'
_symmetry_Int_Tables_number      189
_space_group_name_Hall           'P -6 -2'
loop_
_symmetry_equiv_pos_site_id
_symmetry_equiv_pos_as_xyz
1 x,y,z
2 -y,x-y,z
3 -x+y,-x,z
4 x-y,-y,-z
5 -x,-x+y,-z
6 y,x,-z
7 y,x,z
8 -x,-x+y,z
9 x-y,-y,z
10 x,y,-z
11 -x+y,-x,-z
12 -y,x-y,-z
_cell_length_a                   16.666(2)
_cell_length_b                   16.666(2)
_cell_length_c                   7.0012(14)
_cell_angle_alpha                90
_cell_angle_beta                 90
_cell_angle_gamma                120
_cell_volume                     1684.09
loop_
_atom_site_label
_atom_site_type_symbol
_atom_site_fract_x
_atom_site_fract_y
_atom_site_fract_z
Ni1 Ni 0.67827(7) 1.0000 0.5000
O1 O 0.8274(4) 1.0777(4) 0.5000
O2 O 0.5510(4) 0.8853(4) 0.5000
O3 O 0.4363(5) 0.9185(5) 0.5000
C1 C 0.8253(8) 1.0000 0.5000
C2 C 0.9161(7) 1.0000 0.5000
C3 C 1.0000 1.0828(6) 0.5000
H1 H 1.0000 1.1398 0.5000
C4 C 0.4664(7) 0.8614(5) 0.5000
C5 C 0.3984(6) 0.7612(6) 0.5000
C6 C 0.4270(6) 0.6962(6) 0.5000
H2 H 0.4914 0.7164 0.5000
N1 N 0.6760(3) 1.0000 0.1857(9)
C7 C 0.7546(6) 1.0815(5) 0.1076(11)
H3 H 0.8123 1.0848 0.1540
H4 H 0.7540 1.1372 0.1540
C8 C 0.5934(5) 1.0000 0.1080(13)
H5 H 0.5923 1.0555 0.1548
O1A O 0.9223(4) 0.7497(6) 0.5000
C1A C 1.0000 0.8253(8) 0.5000
C2A C 1.0000 0.9161(7) 0.5000
C3A C 0.9172(6) 0.9172(6) 0.5000
H1A H 0.8602 0.8602 0.5000
O1B O 1.2503(6) 1.1726(4) 0.5000
C1B C 1.1747(8) 1.1747(8) 0.5000
C2B C 1.0839(7) 1.0839(7) 0.5000
C3B C 1.0828(6) 1.0000 0.5000
H1B H 1.1398 1.0000 0.5000
O1C O 0.7497(6) 0.9223(4) 0.5000
O1D O 1.1726(4) 1.2503(6) 0.5000
O1E O 1.0777(4) 0.8274(4) 0.5000
O2A O 0.1147(4) 0.6657(6) 0.5000
O3A O 0.0815(5) 0.5178(7) 0.5000
C4A C 0.1386(5) 0.6050(9) 0.5000
C5A C 0.2388(6) 0.6372(8) 0.5000
C6A C 0.3038(6) 0.7308(8) 0.5000
H2A H 0.2836 0.7750 0.5000
O2B O 0.3343(6) 0.4490(4) 0.5000
O3B O 0.4822(7) 0.5637(5) 0.5000
C4B C 0.3950(9) 0.5336(7) 0.5000
C5B C 0.3628(8) 0.6016(6) 0.5000
C6B C 0.2692(8) 0.5730(6) 0.5000
H2B H 0.2250 0.5086 0.5000
N1C N 0.6760(3) 1.0000 -0.1857(9)
C7C C 0.6731(8) 0.9185(5) -0.1076(11)
H3C H 0.7275 0.9152 -0.1540
H4C H 0.6168 0.8628 -0.1540
C8C C 0.5934(5) 1.0000 -0.1080(13)
H5C H 0.5368 0.9445 -0.1548
C7H C 0.6731(8) 0.9185(5) 0.1076(11)
H3H H 0.7275 0.9152 0.1540
H4H H 0.6168 0.8628 0.1540
H5H H 0.5368 0.9445 0.1548
C7I C 0.7546(6) 1.0815(5) -0.1076(11)
H3I H 0.8123 1.0848 -0.1540
H4I H 0.7540 1.1372 -0.1540
H5I H 0.5923 1.0555 -0.1548
Ni1A Ni -0.0000 0.67827(7) 0.5000
N1A N 0.0000 0.6760(3) 0.1857(9)
C7A C -0.0815(5) 0.6731(8) 0.1076(11)
H3A H -0.0848 0.7275 0.1540
H4A H -0.1372 0.6168 0.1540
C8A C -0.0000 0.5934(5) 0.1080(13)
H5A H -0.0555 0.5368 0.1548
N1E N 0.0000 0.6760(3) -0.1857(9)
C7E C 0.0815(5) 0.7546(6) -0.1076(11)
H3E H 0.0848 0.8123 -0.1540
H4E H 0.1372 0.7540 -0.1540
C8E C 0.0000 0.5934(5) -0.1080(13)
H5E H 0.0555 0.5923 -0.1548
C7F C 0.0815(5) 0.7546(6) 0.1076(11)
H3F H 0.0848 0.8123 0.1540
H4F H 0.1372 0.7540 0.1540
H5F H 0.0555 0.5923 0.1548
C7K C -0.0815(5) 0.6731(8) -0.1076(11)
H3K H -0.0848 0.7275 -0.1540
H4K H -0.1372 0.6168 -0.1540
H5K H -0.0555 0.5368 -0.1548
Ni1B Ni 0.32173(7) 0.32173(7) 0.5000
N1B N 0.3240(3) 0.3240(3) 0.1857(9)
C7B C 0.3269(8) 0.2454(6) 0.1076(11)
H3B H 0.2725 0.1877 0.1540
H4B H 0.3832 0.2460 0.1540
C8B C 0.4066(5) 0.4066(5) 0.1080(13)
H5B H 0.4632 0.4077 0.1548
N1D N 0.3240(3) 0.3240(3) -0.1857(9)
C7D C 0.2454(6) 0.3269(8) -0.1076(11)
H3D H 0.1877 0.2725 -0.1540
H4D H 0.2460 0.3832 -0.1540
C8D C 0.4066(5) 0.4066(5) -0.1080(13)
H5D H 0.4077 0.4632 -0.1548
C7G C 0.2454(6) 0.3269(8) 0.1076(11)
H3G H 0.1877 0.2725 0.1540
H4G H 0.2460 0.3832 0.1540
H5G H 0.4077 0.4632 0.1548
C7J C 0.3269(8) 0.2454(6) -0.1076(11)
H3J H 0.2725 0.1877 -0.1540
H4J H 0.3832 0.2460 -0.1540
H5J H 0.4632 0.4077 -0.1548
O2C O 0.6657(6) 1.1147(4) 0.5000
O3C O 0.5178(7) 1.0815(5) 0.5000
C4C C 0.6050(9) 1.1386(5) 0.5000
C5C C 0.6372(8) 1.2388(6) 0.5000
C6C C 0.7308(8) 1.3038(6) 0.5000
H2C H 0.7750 1.2836 0.5000
O2D O 0.4490(4) 1.3343(6) 0.5000
O3D O 0.5637(5) 1.4822(7) 0.5000
C4D C 0.5336(7) 1.3950(9) 0.5000
C5D C 0.6016(6) 1.3628(8) 0.5000
C6D C 0.5730(6) 1.2692(8) 0.5000
H2D H 0.5086 1.2250 0.5000
O2E O 0.8853(4) 1.5510(4) 0.5000
O3E O 0.9185(5) 1.4363(5) 0.5000
C4E C 0.8614(5) 1.4664(7) 0.5000
C5E C 0.7612(6) 1.3984(6) 0.5000
C6E C 0.6962(6) 1.4270(6) 0.5000
H2E H 0.7164 1.4914 0.5000
Ni1_2 Ni 0.67827(7) 1.0000 -0.5000
Ni1A_2 Ni 0.0000 0.67827(7) -0.5000
Ni1A_3 Ni 1.0000 0.67827(7) 0.5000
Ni1A_4 Ni 1.0000 1.67827(7) 0.5000
Ni1B_2 Ni 0.32173(7) 0.32173(7) -0.5000
Ni1B_3 Ni 0.32173(7) 1.32173(7) 0.5000
Ni1B_4 Ni 1.32173(7) 1.32173(7) 0.5000
O1A_2 O -0.0777(4) 0.7497(6) 0.5000
O1B_2 O 0.2503(6) 0.1726(4) 0.5000
O1D_2 O 0.1726(4) 0.2503(6) 0.5000
O1E_2 O 0.0777(4) 0.8274(4) 0.5000
O2D_2 O 0.4490(4) 0.3343(6) 0.5000
O2E_2 O -0.1147(4) 0.5510(4) 0.5000
N1C_2 N 0.6760(3) 1.0000 0.8143(9)
N1D_2 N 0.3240(3) 0.3240(3) 0.8143(9)
N1E_2 N 0.0000 0.6760(3) 0.8143(9)
loop_
_geom_bond_atom_site_label_1
_geom_bond_atom_site_label_2
_geom_bond_site_symmetry_1
_geom_bond_site_symmetry_2
Ni1 O1 1_555 1_555
O1 C1 1_555 1_555
O2 Ni1 1_555 1_555
O3 C4 1_555 1_555
C1 C2 1_555 1_555
C2 C3 1_555 1_555
C3 H1 1_555 1_555
C4 O2 1_555 1_555
C5 C4 1_555 1_555
C6 C5 1_555 1_555
H2 C6 1_555 1_555
N1 Ni1 1_555 1_555
C7 N1 1_555 1_555
H3 C7 1_555 1_555
H4 C7 1_555 1_555
C8 N1 1_555 1_555
H5 C8 1_555 1_555
O1A C1A 1_555 1_555
C1A C2A 1_555 1_555
C2A C3A 1_555 1_555
C3A C2 1_555 1_555
H1A C3A 1_555 1_555
O1B C1B 1_555 1_555
C1B C2B 1_555 1_555
C2B C3 1_555 1_555
C3B C2A 1_555 1_555
H1B C3B 1_555 1_555
O1C Ni1 1_555 1_555
O1D C1B 1_555 1_555
O1E C1A 1_555 1_555
O2A C4A 1_555 1_555
O3A C4A 1_555 1_555
C4A C5A 1_555 1_555
C5A C6A 1_555 1_555
C6A C5 1_555 1_555
H2A C6A 1_555 1_555
O2B C4B 1_555 1_555
O3B C4B 1_555 1_555
C4B C5B 1_555 1_555
C5B C6 1_555 1_555
C6B C5A 1_555 1_555
H2B C6B 1_555 1_555
N1C C7C 1_555 1_555
C7C H3C 1_555 1_555
H4C C7C 1_555 1_555
C8C C8 1_555 1_555
H5C C8C 1_555 1_555
C7H N1 1_555 1_555
H3H C7H 1_555 1_555
H4H C7H 1_555 1_555
H5H C8 1_555 1_555
C7I C7 1_555 1_555
H3I C7I 1_555 1_555
H4I C7I 1_555 1_555
H5I C8C 1_555 1_555
Ni1A O2A 1_555 1_555
N1A Ni1A 1_555 1_555
C7A N1A 1_555 1_555
H3A C7A 1_555 1_555
H4A C7A 1_555 1_555
C8A N1A 1_555 1_555
H5A C8A 1_555 1_555
N1E C7E 1_555 1_555
C7E H3E 1_555 1_555
H4E C7E 1_555 1_555
C8E C8A 1_555 1_555
H5E C8E 1_555 1_555
C7F N1A 1_555 1_555
H3F C7F 1_555 1_555
H4F C7F 1_555 1_555
H5F C8A 1_555 1_555
C7K C7A 1_555 1_555
H3K C7K 1_555 1_555
H4K C7K 1_555 1_555
H5K C8E 1_555 1_555
Ni1B O2B 1_555 1_555
N1B Ni1B 1_555 1_555
C7B N1B 1_555 1_555
H3B C7B 1_555 1_555
H4B C7B 1_555 1_555
C8B N1B 1_555 1_555
H5B C8B 1_555 1_555
N1D C7D 1_555 1_555
C7D H3D 1_555 1_555
H4D C7D 1_555 1_555
C8D C8B 1_555 1_555
H5D C8D 1_555 1_555
C7G N1B 1_555 1_555
H3G C7G 1_555 1_555
H4G C7G 1_555 1_555
H5G C8B 1_555 1_555
C7J C7B 1_555 1_555
H3J C7J 1_555 1_555
H4J C7J 1_555 1_555
H5J C8D 1_555 1_555
O2C Ni1 1_555 1_555
O3C C4C 1_555 1_555
C4C O2C 1_555 1_555
C5C C4C 1_555 1_555
C6C C5C 1_555 1_555
H2C C6C 1_555 1_555
O2D C4D 1_555 1_555
O3D C4D 1_555 1_555
C4D C5D 1_555 1_555
C5D C6D 1_555 1_555
C6D C5C 1_555 1_555
H2D C6D 1_555 1_555
O2E C4E 1_555 1_555
O3E C4E 1_555 1_555
C4E C5E 1_555 1_555
C5E C6C 1_555 1_555
C6E C5D 1_555 1_555
H2E C6E 1_555 1_555
Ni1_2 N1C 1_555 1_555
Ni1A_2 N1E 1_555 1_555
Ni1A_3 O1A 1_555 1_555
Ni1A_4 O2E 1_555 1_555
Ni1B_2 N1D 1_555 1_555
Ni1B_3 O2D 1_555 1_555
Ni1B_4 O1B 1_555 1_555
O1A_2 Ni1A 1_555 1_555
O1B_2 Ni1B 1_555 1_555
O1D_2 Ni1B 1_555 1_555
O1E_2 Ni1A 1_555 1_555
O2D_2 Ni1B 1_555 1_555
O2E_2 Ni1A 1_555 1_555
N1C_2 Ni1 1_555 1_555
N1D_2 Ni1B 1_555 1_555
N1E_2 Ni1A 1_555 1_555
C1 O1C 1_555 1_555
C2B C3B 1_555 1_555
O1D Ni1B_4 1_555 1_555
O1E Ni1A_3 1_555 1_555
C5B C6B 1_555 1_555
N1C C8C 1_555 1_555
N1C C7I 1_555 1_555
C7C C7H 1_555 1_555
N1E C8E 1_555 1_555
N1E C7K 1_555 1_555
C7E C7F 1_555 1_555
N1D C8D 1_555 1_555
N1D C7J 1_555 1_555
C7D C7G 1_555 1_555
C5E C6E 1_555 1_555

#END
