
#######################################################################
#
#                 Cambridge Crystallographic Data Centre
#                                CCDC 
#
#######################################################################
#
# If this CIF has been generated from an entry in the Cambridge 
# Structural Database, then it will include bibliographic, chemical, 
# crystal, experimental, refinement or atomic coordinate data resulting 
# from the CCDC's data processing and validation procedures.
#
#######################################################################

data_MIXYOJ
_chemical_formula_moiety         'C102 H78 N15 Ni18 O50'
_symmetry_cell_setting           trigonal
_symmetry_space_group_name_H-M   'P 3'
_symmetry_Int_Tables_number      143
_space_group_name_Hall           'P 3'
loop_
_symmetry_equiv_pos_site_id
_symmetry_equiv_pos_as_xyz
1 x,y,z
2 -y,x-y,z
3 -x+y,-x,z
_cell_length_a                   16.586(5)
_cell_length_b                   16.586(5)
_cell_length_c                   18.124(7)
_cell_angle_alpha                90
_cell_angle_beta                 90
_cell_angle_gamma                120
_cell_volume                     4317.85
loop_
_atom_site_label
_atom_site_type_symbol
_atom_site_fract_x
_atom_site_fract_y
_atom_site_fract_z
Ni1 Ni 0.01190(16) 0.66692(17) 0.69581(13)
Ni2 Ni 0.01163(11) 0.66657(13) 0.31637(11)
O1 O -0.1157(7) 0.5525(7) 0.6950(7)
O2 O -0.2262(8) 0.5893(9) 0.7075(9)
O3 O -0.1458(8) 0.7481(9) 0.7041(9)
O4 O 0.0018(7) 0.7828(7) 0.6959(7)
O5 O 0.1588(8) 0.7420(8) 0.7004(8)
O6 O 0.0834(6) 0.5921(7) 0.7041(7)
C1 C -0.1968(15) 0.5307(14) 0.7038(13)
C2 C -0.2706(10) 0.4244(10) 0.7047(9)
C3 C -0.2430(11) 0.3573(11) 0.7072(10)
H1 H -0.1789 0.3758 0.7107
C4 C -0.0559(15) 0.8055(15) 0.6981(13)
C5 C -0.0293(9) 0.9096(9) 0.7019(9)
C6 C -0.0926(9) 0.9348(9) 0.7029(9)
H2 H -0.1571 0.8902 0.7041
C7 C 0.1597(11) 0.6670(12) 0.7016(10)
C8 C 0.2463(7) 0.6659(8) 0.7043(8)
C9 C 0.3326(9) 0.7486(9) 0.7044(9)
H3 H 0.3321 0.8057 0.7047
O7 O -0.1141(5) 0.5516(5) 0.3176(6)
O8 O -0.2264(7) 0.5862(8) 0.3072(8)
O9 O -0.1472(7) 0.7482(8) 0.3087(8)
O10 O 0.0003(6) 0.7811(5) 0.3166(6)
O11 O 0.1592(7) 0.7427(7) 0.3107(8)
O12 O 0.0824(6) 0.5910(7) 0.3103(7)
C10 C -0.1984(10) 0.5291(9) 0.3153(9)
C11 C -0.2696(9) 0.4272(8) 0.3065(9)
C12 C -0.3588(7) 0.4007(7) 0.3093(7)
H4 H -0.3779 0.4458 0.3131
C13 C -0.0596(11) 0.8034(11) 0.3130(11)
C14 C -0.0296(8) 0.9066(8) 0.3120(8)
C15 C 0.0650(8) 0.9731(8) 0.3138(8)
H5 H 0.1098 0.9535 0.3164
C16 C 0.1588(9) 0.6648(9) 0.3113(8)
C17 C 0.2496(7) 0.6678(7) 0.3068(8)
C18 C 0.2509(7) 0.5846(7) 0.3063(7)
H6 H 0.1933 0.5276 0.3055
N1 N 0.0132(7) 0.6674(7) 0.5815(8)
N2 N 0.0133(6) 0.6674(6) 0.4285(7)
C19 C -0.0677(13) 0.6666(15) 0.5482(11)
H7 H -0.0685 0.7233 0.5641
H8 H -0.1250 0.6122 0.5673
C20 C -0.0701(11) 0.6626(14) 0.4628(10)
H9 H -0.1258 0.6041 0.4471
H10 H -0.0769 0.7150 0.4439
C21 C 0.0124(13) 0.5860(11) 0.5468(9)
H11 H -0.0437 0.5288 0.5640
H12 H 0.0674 0.5832 0.5646
C22 C 0.0130(13) 0.5851(11) 0.4633(10)
H13 H 0.0688 0.5831 0.4463
H14 H -0.0425 0.5275 0.4458
C23 C 0.0979(11) 0.7468(11) 0.5481(8)
H15 H 0.1531 0.7445 0.5658
H16 H 0.1033 0.8055 0.5665
C24 C 0.1004(4) 0.7499(4) 0.4634(4)
H17 H 0.1566 0.7490 0.4461
H18 H 0.1051 0.8089 0.4466
N3 N 0.0065(4) 0.6695(4) 0.8142(4)
C25 C -0.0460(4) 0.5848(4) 0.8501(4)
H19 H -0.0809 0.5294 0.8222
C26 C -0.0474(4) 0.5811(4) 0.9267(4)
H20 H -0.0833 0.5232 0.9512
C27 C 0.0036(4) 0.6622(4) 0.9675(4)
C28 C 0.0561(4) 0.7469(4) 0.9316(4)
H21 H 0.0910 0.8023 0.9595
C29 C 0.0575(4) 0.7506(4) 0.8550(4)
H22 H 0.0934 0.8085 0.8305
N4 N 0.0055(4) 0.6665(4) 1.1962(4)
C30 C 0.0624(4) 0.7488(4) 1.1585(4)
H23 H 0.1019 0.8041 1.1851
C31 C 0.0613(4) 0.7502(4) 1.0818(4)
H24 H 0.1002 0.8065 1.0560
C32 C 0.0034(4) 0.6693(4) 1.0428(4)
C33 C -0.0534(4) 0.5871(4) 1.0805(4)
H25 H -0.0930 0.5318 1.0539
C34 C -0.0524(4) 0.5856(4) 1.1572(4)
H26 H -0.0913 0.5294 1.1830
O1A O -0.5525(7) 0.3318(10) 0.6950(7)
O2A O -0.5893(9) 0.1845(12) 0.7075(9)
C1A C -0.5307(14) 0.2725(21) 0.7038(13)
C2A C -0.4244(10) 0.3050(14) 0.7047(9)
C3A C -0.3573(11) 0.3997(16) 0.7072(10)
H1A H -0.3758 0.4453 0.7107
O1B O -0.3318(10) 0.1157(7) 0.6950(7)
O2B O -0.1845(12) 0.2262(8) 0.7075(9)
C1B C -0.2725(21) 0.1968(15) 0.7038(13)
C2B C -0.3050(14) 0.2706(10) 0.7047(9)
C3B C -0.3997(16) 0.2430(11) 0.7072(10)
H1B H -0.4453 0.1789 0.7107
O3A O 0.2519(9) 1.1061(12) 0.7041(9)
O4A O 0.2172(7) 1.2190(10) 0.6959(7)
C4A C 0.1945(15) 1.1386(21) 0.6981(13)
C5A C 0.0904(9) 1.0611(13) 0.7019(9)
C6A C 0.0652(9) 0.9726(13) 0.7029(9)
H2A H 0.1098 0.9527 0.7041
O3B O -0.1061(12) 1.1458(8) 0.7041(9)
O4B O -0.2190(10) 0.9982(7) 0.6959(7)
C4B C -0.1386(21) 1.0559(15) 0.6981(13)
C5B C -0.0611(13) 1.0293(9) 0.7019(9)
C6B C 0.0274(13) 1.0926(9) 0.7029(9)
H2B H 0.0473 1.1571 0.7041
O5A O 0.2580(8) 0.4168(11) 0.7004(8)
O6A O 0.4079(7) 0.4913(9) 0.7041(7)
C7A C 0.3330(12) 0.4927(16) 0.7016(10)
C8A C 0.3341(8) 0.5804(11) 0.7043(8)
C9A C 0.2514(9) 0.5840(13) 0.7044(9)
H3A H 0.1943 0.5264 0.7047
O5B O 0.5832(11) 0.8412(8) 0.7004(8)
O6B O 0.5087(9) 0.9166(6) 0.7041(7)
C7B C 0.5073(16) 0.8403(11) 0.7016(10)
C8B C 0.4196(11) 0.7537(7) 0.7043(8)
C9B C 0.4160(13) 0.6674(9) 0.7044(9)
H3B H 0.4736 0.6679 0.7047
O7A O -0.5516(5) 0.3343(7) 0.3176(6)
O8A O -0.5862(8) 0.1874(11) 0.3072(8)
C10A C -0.5291(9) 0.2725(13) 0.3153(9)
C11A C -0.4272(8) 0.3032(12) 0.3065(9)
C12A C -0.4007(7) 0.2405(10) 0.3093(7)
H4A H -0.4458 0.1763 0.3131
O7B O -0.3343(7) 0.1141(5) 0.3176(6)
O8B O -0.1874(11) 0.2264(7) 0.3072(8)
C10B C -0.2725(13) 0.1984(10) 0.3153(9)
C11B C -0.3032(12) 0.2696(9) 0.3065(9)
C12B C -0.2405(10) 0.3588(7) 0.3093(7)
H4B H -0.1763 0.3779 0.3131
O9A O 0.2518(8) 1.1046(11) 0.3087(8)
O10A O 0.2189(5) 1.2192(8) 0.3166(6)
C13A C 0.1966(11) 1.1370(16) 0.3130(11)
C14A C 0.0934(8) 1.0638(11) 0.3120(8)
C15A C 0.0269(8) 1.0919(11) 0.3138(8)
H5A H 0.0465 1.1563 0.3164
O9B O -0.1046(11) 1.1472(7) 0.3087(8)
O10B O -0.2192(8) 0.9997(6) 0.3166(6)
C13B C -0.1370(16) 1.0596(11) 0.3130(11)
C14B C -0.0638(11) 1.0296(8) 0.3120(8)
C15B C -0.0919(11) 0.9350(8) 0.3138(8)
H5B H -0.1563 0.8902 0.3164
O11A O 0.2573(7) 0.4165(10) 0.3107(8)
O12A O 0.4090(7) 0.4914(9) 0.3103(7)
C16A C 0.3352(9) 0.4940(13) 0.3113(8)
C17A C 0.3322(7) 0.5818(10) 0.3068(8)
C18A C 0.4154(7) 0.6663(10) 0.3063(7)
H6A H 0.4724 0.6657 0.3055
O11B O 0.5835(10) 0.8408(7) 0.3107(8)
O12B O 0.5086(9) 0.9176(6) 0.3103(7)
C16B C 0.5060(13) 0.8412(9) 0.3113(8)
C17B C 0.4182(10) 0.7504(7) 0.3068(8)
C18B C 0.3337(10) 0.7491(7) 0.3063(7)
H6B H 0.3343 0.8067 0.3055
Ni1A Ni -0.66692(17) 0.34498(23) 0.69581(13)
Ni2A Ni -0.66657(13) 0.34506(17) 0.31637(11)
N1A N -0.6674(7) 0.3458(10) 0.5815(8)
N2A N -0.6674(6) 0.3459(8) 0.4285(7)
C19A C -0.6666(15) 0.2657(20) 0.5482(11)
H7A H -0.7233 0.2082 0.5641
H8A H -0.6122 0.2628 0.5673
C20A C -0.6626(14) 0.2673(18) 0.4628(10)
H9A H -0.6041 0.2701 0.4471
H10A H -0.7150 0.2081 0.4439
C21A C -0.5860(11) 0.4264(17) 0.5468(9)
H11A H -0.5288 0.4275 0.5640
H12A H -0.5832 0.4842 0.5646
C22A C -0.5851(11) 0.4279(17) 0.4633(10)
H13A H -0.5831 0.4857 0.4463
H14A H -0.5275 0.4300 0.4458
C23A C -0.7468(11) 0.3511(16) 0.5481(8)
H15A H -0.7445 0.4086 0.5658
H16A H -0.8055 0.2978 0.5665
C24A C -0.7499(4) 0.3505(6) 0.4634(4)
H17A H -0.7490 0.4076 0.4461
H18A H -0.8089 0.2962 0.4466
N3A N -0.6695(4) 0.3370(6) 0.8142(4)
C25A C -0.5848(4) 0.3692(6) 0.8501(4)
H19A H -0.5294 0.3897 0.8222
C26A C -0.5811(4) 0.3715(6) 0.9267(4)
H20A H -0.5232 0.3935 0.9512
C27A C -0.6622(4) 0.3414(6) 0.9675(4)
C28A C -0.7469(4) 0.3092(6) 0.9316(4)
H21A H -0.8023 0.2887 0.9595
C29A C -0.7506(4) 0.3069(6) 0.8550(4)
H22A H -0.8085 0.2849 0.8305
N4A N -0.6665(4) 0.3390(6) 1.1962(4)
C30A C -0.7488(4) 0.3136(6) 1.1585(4)
H23A H -0.8041 0.2978 1.1851
C31A C -0.7502(4) 0.3111(6) 1.0818(4)
H24A H -0.8065 0.2937 1.0560
C32A C -0.6693(4) 0.3341(6) 1.0428(4)
C33A C -0.5871(4) 0.3595(6) 1.0805(4)
H25A H -0.5318 0.3752 1.0539
C34A C -0.5856(4) 0.3620(6) 1.1572(4)
H26A H -0.5294 0.3793 1.1830
Ni1_2 Ni 0.01190(16) 0.66692(17) -0.30419(13)
Ni2_2 Ni 0.01163(11) 0.66657(13) -0.68363(11)
N1_2 N 0.0132(7) 0.6674(7) -0.4185(8)
N2_2 N 0.0133(6) 0.6674(6) -0.5715(7)
C19_2 C -0.0677(13) 0.6666(15) -0.4518(11)
H7_2 H -0.0685 0.7233 -0.4359
H8_2 H -0.1250 0.6122 -0.4327
C20_2 C -0.0701(11) 0.6626(14) -0.5372(10)
H9_2 H -0.1258 0.6041 -0.5529
H10_2 H -0.0769 0.7150 -0.5561
C21_2 C 0.0124(13) 0.5860(11) -0.4532(9)
H11_2 H -0.0437 0.5288 -0.4360
H12_2 H 0.0674 0.5832 -0.4354
C22_2 C 0.0130(13) 0.5851(11) -0.5367(10)
H13_2 H 0.0688 0.5831 -0.5537
H14_2 H -0.0425 0.5275 -0.5542
C23_2 C 0.0979(11) 0.7468(11) -0.4519(8)
H15_2 H 0.1531 0.7445 -0.4342
H16_2 H 0.1033 0.8055 -0.4335
C24_2 C 0.1004(4) 0.7499(4) -0.5366(4)
H17_2 H 0.1566 0.7490 -0.5539
H18_2 H 0.1051 0.8089 -0.5534
N3_2 N 0.0065(4) 0.6695(4) -0.1858(4)
C25_2 C -0.0460(4) 0.5848(4) -0.1499(4)
H19_2 H -0.0809 0.5294 -0.1778
C26_2 C -0.0474(4) 0.5811(4) -0.0733(4)
H20_2 H -0.0833 0.5232 -0.0488
C27_2 C 0.0036(4) 0.6622(4) -0.0325(4)
C28_2 C 0.0561(4) 0.7469(4) -0.0684(4)
H21_2 H 0.0910 0.8023 -0.0405
C29_2 C 0.0575(4) 0.7506(4) -0.1450(4)
H22_2 H 0.0934 0.8085 -0.1695
N4_2 N 0.0055(4) 0.6665(4) 0.1962(4)
C30_2 C 0.0624(4) 0.7488(4) 0.1585(4)
H23_2 H 0.1019 0.8041 0.1851
C31_2 C 0.0613(4) 0.7502(4) 0.0818(4)
H24_2 H 0.1002 0.8065 0.0560
C32_2 C 0.0034(4) 0.6693(4) 0.0428(4)
C33_2 C -0.0534(4) 0.5871(4) 0.0805(4)
H25_2 H -0.0930 0.5318 0.0539
C34_2 C -0.0524(4) 0.5856(4) 0.1572(4)
H26_2 H -0.0913 0.5294 0.1830
Ni1A_2 Ni 0.33308(17) 0.34498(23) 0.69581(13)
Ni1A_3 Ni 0.33308(17) 1.34498(23) 0.69581(13)
Ni1B Ni -0.34498(23) -0.01190(16) 0.69581(13)
Ni1B_2 Ni -0.34498(23) 0.98810(16) 0.69581(13)
Ni1B_3 Ni 0.65502(23) 0.98810(16) 0.69581(13)
Ni2_3 Ni 0.01163(11) 0.66657(13) 1.31637(11)
Ni2A_2 Ni -0.66657(13) 0.34506(17) 1.31637(11)
Ni2A_3 Ni 0.33343(13) 0.34506(17) 0.31637(11)
Ni2A_4 Ni 0.33343(13) 1.34506(17) 0.31637(11)
Ni2B Ni -0.34506(17) -0.01163(11) 0.31637(11)
Ni2B_2 Ni -0.34506(17) 0.98837(11) 0.31637(11)
Ni2B_3 Ni 0.65494(17) 0.98837(11) 0.31637(11)
O1_2 O -0.1157(7) 0.5525(7) -0.3050(7)
O4_2 O 0.0018(7) 0.7828(7) -0.3041(7)
O4A_2 O -0.7828(7) 0.2190(10) 0.6959(7)
O5_2 O 0.1588(8) 0.7420(8) -0.2996(8)
O5A_2 O -0.7420(8) 0.4168(11) 0.7004(8)
O6_2 O 0.0834(6) 0.5921(7) -0.2959(7)
O6A_2 O -0.5921(7) 0.4913(9) 0.7041(7)
O7_2 O -0.1141(5) 0.5516(5) -0.6824(6)
O10_2 O 0.0003(6) 0.7811(5) -0.6834(6)
O10A_2 O -0.7811(5) 0.2192(8) 0.3166(6)
O11_2 O 0.1592(7) 0.7427(7) -0.6893(8)
O11A_2 O -0.7427(7) 0.4165(10) 0.3107(8)
O12_2 O 0.0824(6) 0.5910(7) -0.6897(7)
O12A_2 O -0.5910(7) 0.4914(9) 0.3103(7)
N4_3 N 0.0055(4) 0.6665(4) -0.8038(4)
N4A_2 N -0.6665(4) 0.3390(6) 0.1962(4)
N4_4 N 0.0055(4) 0.6665(4) 0.1962(4)
loop_
_geom_bond_atom_site_label_1
_geom_bond_atom_site_label_2
_geom_bond_site_symmetry_1
_geom_bond_site_symmetry_2
Ni1 O1 1_555 1_555
Ni2 O7 1_555 1_555
O1 C1 1_555 1_555
O2 C1 1_555 1_555
O3 C4 1_555 1_555
O4 Ni1 1_555 1_555
O5 Ni1 1_555 1_555
O6 Ni1 1_555 1_555
C1 C2 1_555 1_555
C2 C3 1_555 1_555
C3 H1 1_555 1_555
C4 O4 1_555 1_555
C5 C4 1_555 1_555
C6 C5 1_555 1_555
H2 C6 1_555 1_555
C7 O5 1_555 1_555
C8 C7 1_555 1_555
C9 C8 1_555 1_555
H3 C9 1_555 1_555
O7 C10 1_555 1_555
O8 C10 1_555 1_555
O9 C13 1_555 1_555
O10 Ni2 1_555 1_555
O11 Ni2 1_555 1_555
O12 Ni2 1_555 1_555
C10 C11 1_555 1_555
C11 C12 1_555 1_555
C12 H4 1_555 1_555
C13 O10 1_555 1_555
C14 C13 1_555 1_555
C15 C14 1_555 1_555
H5 C15 1_555 1_555
C16 O11 1_555 1_555
C17 C16 1_555 1_555
C18 C17 1_555 1_555
H6 C18 1_555 1_555
N1 Ni1 1_555 1_555
N2 Ni2 1_555 1_555
C19 N1 1_555 1_555
H7 C19 1_555 1_555
H8 C19 1_555 1_555
C20 N2 1_555 1_555
H9 C20 1_555 1_555
H10 C20 1_555 1_555
C21 N1 1_555 1_555
H11 C21 1_555 1_555
H12 C21 1_555 1_555
C22 N2 1_555 1_555
H13 C22 1_555 1_555
H14 C22 1_555 1_555
C23 N1 1_555 1_555
H15 C23 1_555 1_555
H16 C23 1_555 1_555
C24 N2 1_555 1_555
H17 C24 1_555 1_555
H18 C24 1_555 1_555
N3 Ni1 1_555 1_555
C25 N3 1_555 1_555
H19 C25 1_555 1_555
C26 C25 1_555 1_555
H20 C26 1_555 1_555
C27 C26 1_555 1_555
C28 C27 1_555 1_555
H21 C28 1_555 1_555
C29 N3 1_555 1_555
H22 C29 1_555 1_555
N4 C30 1_555 1_555
C30 H23 1_555 1_555
C31 C30 1_555 1_555
H24 C31 1_555 1_555
C32 C27 1_555 1_555
C33 C32 1_555 1_555
H25 C33 1_555 1_555
C34 N4 1_555 1_555
H26 C34 1_555 1_555
O1A C1A 1_555 1_555
O2A C1A 1_555 1_555
C1A C2A 1_555 1_555
C2A C3A 1_555 1_555
C3A C2 1_555 1_555
H1A C3A 1_555 1_555
O1B C1B 1_555 1_555
O2B C1B 1_555 1_555
C1B C2B 1_555 1_555
C2B C3 1_555 1_555
C3B C2A 1_555 1_555
H1B C3B 1_555 1_555
O3A C4A 1_555 1_555
O4A C4A 1_555 1_555
C4A C5A 1_555 1_555
C5A C6A 1_555 1_555
C6A C5 1_555 1_555
H2A C6A 1_555 1_555
O3B C4B 1_555 1_555
O4B C4B 1_555 1_555
C4B C5B 1_555 1_555
C5B C6 1_555 1_555
C6B C5A 1_555 1_555
H2B C6B 1_555 1_555
O5A C7A 1_555 1_555
O6A C7A 1_555 1_555
C7A C8A 1_555 1_555
C8A C9A 1_555 1_555
C9A C8 1_555 1_555
H3A C9A 1_555 1_555
O5B C7B 1_555 1_555
O6B C7B 1_555 1_555
C7B C8B 1_555 1_555
C8B C9 1_555 1_555
C9B C8A 1_555 1_555
H3B C9B 1_555 1_555
O7A C10A 1_555 1_555
O8A C10A 1_555 1_555
C10A C11A 1_555 1_555
C11A C12 1_555 1_555
C12A C11A 1_555 1_555
H4A C12A 1_555 1_555
O7B C10B 1_555 1_555
O8B C10B 1_555 1_555
C10B C11B 1_555 1_555
C11B C12A 1_555 1_555
C12B C11 1_555 1_555
H4B C12B 1_555 1_555
O9A C13A 1_555 1_555
O10A C13A 1_555 1_555
C13A C14A 1_555 1_555
C14A C15 1_555 1_555
C15A C14A 1_555 1_555
H5A C15A 1_555 1_555
O9B C13B 1_555 1_555
O10B C13B 1_555 1_555
C13B C14B 1_555 1_555
C14B C15A 1_555 1_555
C15B C14 1_555 1_555
H5B C15B 1_555 1_555
O11A C16A 1_555 1_555
O12A C16A 1_555 1_555
C16A C17A 1_555 1_555
C17A C18 1_555 1_555
C18A C17A 1_555 1_555
H6A C18A 1_555 1_555
O11B C16B 1_555 1_555
O12B C16B 1_555 1_555
C16B C17B 1_555 1_555
C17B C18A 1_555 1_555
C18B C17 1_555 1_555
H6B C18B 1_555 1_555
Ni1A O1A 1_555 1_555
Ni2A O7A 1_555 1_555
N1A Ni1A 1_555 1_555
N2A Ni2A 1_555 1_555
C19A N1A 1_555 1_555
H7A C19A 1_555 1_555
H8A C19A 1_555 1_555
C20A N2A 1_555 1_555
H9A C20A 1_555 1_555
H10A C20A 1_555 1_555
C21A N1A 1_555 1_555
H11A C21A 1_555 1_555
H12A C21A 1_555 1_555
C22A N2A 1_555 1_555
H13A C22A 1_555 1_555
H14A C22A 1_555 1_555
C23A N1A 1_555 1_555
H15A C23A 1_555 1_555
H16A C23A 1_555 1_555
C24A N2A 1_555 1_555
H17A C24A 1_555 1_555
H18A C24A 1_555 1_555
N3A Ni1A 1_555 1_555
C25A N3A 1_555 1_555
H19A C25A 1_555 1_555
C26A C25A 1_555 1_555
H20A C26A 1_555 1_555
C27A C26A 1_555 1_555
C28A C27A 1_555 1_555
H21A C28A 1_555 1_555
C29A N3A 1_555 1_555
H22A C29A 1_555 1_555
N4A C30A 1_555 1_555
C30A H23A 1_555 1_555
C31A C30A 1_555 1_555
H24A C31A 1_555 1_555
C32A C27A 1_555 1_555
C33A C32A 1_555 1_555
H25A C33A 1_555 1_555
C34A N4A 1_555 1_555
H26A C34A 1_555 1_555
Ni1_2 N1_2 1_555 1_555
Ni2_2 N2_2 1_555 1_555
N1_2 C19_2 1_555 1_555
N2_2 C20_2 1_555 1_555
C19_2 H7_2 1_555 1_555
H8_2 C19_2 1_555 1_555
C20_2 C19_2 1_555 1_555
H9_2 C20_2 1_555 1_555
H10_2 C20_2 1_555 1_555
C21_2 N1_2 1_555 1_555
H11_2 C21_2 1_555 1_555
H12_2 C21_2 1_555 1_555
C22_2 N2_2 1_555 1_555
H13_2 C22_2 1_555 1_555
H14_2 C22_2 1_555 1_555
C23_2 N1_2 1_555 1_555
H15_2 C23_2 1_555 1_555
H16_2 C23_2 1_555 1_555
C24_2 N2_2 1_555 1_555
H17_2 C24_2 1_555 1_555
H18_2 C24_2 1_555 1_555
N3_2 Ni1_2 1_555 1_555
C25_2 N3_2 1_555 1_555
H19_2 C25_2 1_555 1_555
C26_2 C25_2 1_555 1_555
H20_2 C26_2 1_555 1_555
C27_2 C26_2 1_555 1_555
C28_2 C27_2 1_555 1_555
H21_2 C28_2 1_555 1_555
C29_2 N3_2 1_555 1_555
H22_2 C29_2 1_555 1_555
N4_2 Ni2 1_555 1_555
C30_2 N4_2 1_555 1_555
H23_2 C30_2 1_555 1_555
C31_2 C30_2 1_555 1_555
H24_2 C31_2 1_555 1_555
C32_2 C27_2 1_555 1_555
C33_2 C32_2 1_555 1_555
H25_2 C33_2 1_555 1_555
C34_2 N4_2 1_555 1_555
H26_2 C34_2 1_555 1_555
Ni1A_2 O5A 1_555 1_555
Ni1A_3 O4A 1_555 1_555
Ni1B O1B 1_555 1_555
Ni1B_2 O4B 1_555 1_555
Ni1B_3 O5B 1_555 1_555
Ni2_3 N4 1_555 1_555
Ni2A_2 N4A 1_555 1_555
Ni2A_3 O11A 1_555 1_555
Ni2A_4 O10A 1_555 1_555
Ni2B O7B 1_555 1_555
Ni2B_2 O10B 1_555 1_555
Ni2B_3 O11B 1_555 1_555
O1_2 Ni1_2 1_555 1_555
O4_2 Ni1_2 1_555 1_555
O4A_2 Ni1A 1_555 1_555
O5_2 Ni1_2 1_555 1_555
O5A_2 Ni1A 1_555 1_555
O6_2 Ni1_2 1_555 1_555
O6A_2 Ni1A 1_555 1_555
O7_2 Ni2_2 1_555 1_555
O10_2 Ni2_2 1_555 1_555
O10A_2 Ni2A 1_555 1_555
O11_2 Ni2_2 1_555 1_555
O11A_2 Ni2A 1_555 1_555
O12_2 Ni2_2 1_555 1_555
O12A_2 Ni2A 1_555 1_555
N4_3 Ni2_2 1_555 1_555
N4A_2 Ni2A 1_555 1_555
O6 C7 1_555 1_555
O12 C16 1_555 1_555
C19 C20 1_555 1_555
C21 C22 1_555 1_555
C23 C24 1_555 1_555
C28 C29 1_555 1_555
C31 C32 1_555 1_555
C33 C34 1_555 1_555
C2B C3B 1_555 1_555
C5B C6B 1_555 1_555
O6A Ni1A_2 1_555 1_555
O6B Ni1B_3 1_555 1_555
C8B C9B 1_555 1_555
C11B C12B 1_555 1_555
C14B C15B 1_555 1_555
O12A Ni2A_3 1_555 1_555
O12B Ni2B_3 1_555 1_555
C17B C18B 1_555 1_555
C19A C20A 1_555 1_555
C21A C22A 1_555 1_555
C23A C24A 1_555 1_555
C28A C29A 1_555 1_555
C31A C32A 1_555 1_555
C33A C34A 1_555 1_555
C21_2 C22_2 1_555 1_555
C23_2 C24_2 1_555 1_555
C28_2 C29_2 1_555 1_555
C31_2 C32_2 1_555 1_555
C33_2 C34_2 1_555 1_555

#END
