
#######################################################################
#
#                 Cambridge Crystallographic Data Centre
#                                CCDC 
#
#######################################################################
#
# If this CIF has been generated from an entry in the Cambridge 
# Structural Database, then it will include bibliographic, chemical, 
# crystal, experimental, refinement or atomic coordinate data resulting 
# from the CCDC's data processing and validation procedures.
#
#######################################################################

data_NACVUI
_chemical_formula_moiety         '(C12 H11 Cu1 N4 O2)n'
_symmetry_cell_setting           monoclinic
_symmetry_space_group_name_H-M   'P 21/c'
_symmetry_Int_Tables_number      14
_space_group_name_Hall           '-P 2ybc'
loop_
_symmetry_equiv_pos_site_id
_symmetry_equiv_pos_as_xyz
1 x,y,z
2 -x,1/2+y,1/2-z
3 -x,-y,-z
4 x,1/2-y,1/2+z
_cell_length_a                   7.314(2)
_cell_length_b                   15.332(4)
_cell_length_c                   12.758(3)
_cell_angle_alpha                90
_cell_angle_beta                 94.50(2)
_cell_angle_gamma                90
_cell_volume                     1426.25
loop_
_atom_site_label
_atom_site_type_symbol
_atom_site_fract_x
_atom_site_fract_y
_atom_site_fract_z
Cu1 Cu 0.26793(10) 0.12025(5) 0.64229(5)
C1 C 0.2315(7) 0.3837(4) 0.7903(4)
C2 C 0.2171(8) 0.4689(4) 0.7303(4)
C3 C 0.2405(8) 0.3041(4) 0.7398(4)
N1 N 0.2491(8) 0.2380(3) 0.6985(4)
C4 C 0.2437(8) 0.3845(4) 0.8987(4)
N2 N 0.2507(8) 0.3858(3) 0.9901(4)
C5 C 0.3808(8) 0.5232(4) 0.7611(4)
N3 N 0.5014(8) 0.5637(3) 0.7950(4)
C6 C 0.0576(9) 0.5178(4) 0.7648(4)
N4 N -0.0651(7) 0.5509(3) 0.7959(4)
C7 C 0.1900(8) 0.4550(4) 0.6103(4)
H1 H 0.0858(8) 0.4167(4) 0.5950(4)
H2 H 0.1610(8) 0.5106(4) 0.5769(4)
C8 C 0.3549(10) 0.4164(4) 0.5627(5)
O1 O 0.5042(7) 0.4193(3) 0.6084(4)
C9 C 0.3186(11) 0.3764(6) 0.4561(5)
H3 H 0.2545(11) 0.4175(6) 0.4098(5)
H4 H 0.2451(11) 0.3249(6) 0.4614(5)
H5 H 0.4329(11) 0.3611(6) 0.4287(5)
N2C N 0.2507(8) 0.1142(3) 0.4901(4)
N3A N 0.4986(8) 0.0637(3) 0.7050(4)
N4A N 0.0651(7) 0.0509(3) 0.7041(4)
Cu1C Cu 0.26793(10) 0.37975(5) 1.14229(5)
Cu1A Cu 0.73207(10) 0.62025(5) 0.85771(5)
Cu1A_2 Cu -0.26793(10) 0.62025(5) 0.85771(5)
C10 C 0.7960(12) 0.2606(7) 0.4289(10)
C11 C 0.7459(16) 0.2100(11) 0.3329(12)
H6 H 0.6310(16) 0.1811(11) 0.3395(12)
H7 H 0.8393(16) 0.1674(11) 0.3232(12)
H8 H 0.7348(16) 0.2486(11) 0.2735(12)
C12 C 0.7707(19) 0.2182(11) 0.5305(12)
H9 H 0.8624(19) 0.1739(11) 0.5438(12)
H10 H 0.6511(19) 0.1921(11) 0.5282(12)
H11 H 0.7821(19) 0.2609(11) 0.5856(12)
O2 O 0.8509(12) 0.3316(6) 0.4242(8)
loop_
_geom_bond_atom_site_label_1
_geom_bond_atom_site_label_2
_geom_bond_site_symmetry_1
_geom_bond_site_symmetry_2
Cu1 N1 1_555 1_555
C1 C2 1_555 1_555
C2 C5 1_555 1_555
C3 C1 1_555 1_555
N1 C3 1_555 1_555
C4 C1 1_555 1_555
N2 C4 1_555 1_555
C5 N3 1_555 1_555
N3 Cu1A 1_555 1_555
C6 C2 1_555 1_555
N4 C6 1_555 1_555
C7 C2 1_555 1_555
H1 C7 1_555 1_555
H2 C7 1_555 1_555
C8 C7 1_555 1_555
O1 C8 1_555 1_555
C9 C8 1_555 1_555
H3 C9 1_555 1_555
H4 C9 1_555 1_555
H5 C9 1_555 1_555
C10 C11 1_555 1_555
C11 H6 1_555 1_555
H7 C11 1_555 1_555
H8 C11 1_555 1_555
C12 C10 1_555 1_555
H9 C12 1_555 1_555
H10 C12 1_555 1_555
H11 C12 1_555 1_555
O2 C10 1_555 1_555
N2C Cu1 1_555 1_555
N3A Cu1 1_555 1_555
N4A Cu1 1_555 1_555
Cu1C N2 1_555 1_555
Cu1A_2 N4 1_555 1_555

#END
