
#######################################################################
#
#                 Cambridge Crystallographic Data Centre
#                                CCDC 
#
#######################################################################
#
# If this CIF has been generated from an entry in the Cambridge 
# Structural Database, then it will include bibliographic, chemical, 
# crystal, experimental, refinement or atomic coordinate data resulting 
# from the CCDC's data processing and validation procedures.
#
#######################################################################

data_FUDGUI
_chemical_formula_moiety         '(C30 H28 Co2 N2 O12 S2)n'
_symmetry_cell_setting           trigonal
_symmetry_space_group_name_H-M   'P 31 2 1'
_symmetry_Int_Tables_number      152
_space_group_name_Hall           'P 31 2"'
loop_
_symmetry_equiv_pos_site_id
_symmetry_equiv_pos_as_xyz
1 x,y,z
2 -y,x-y,1/3+z
3 -x+y,-x,2/3+z
4 y,x,-z
5 x-y,-y,2/3-z
6 -x,-x+y,1/3-z
_cell_length_a                   19.851(3)
_cell_length_b                   19.851(3)
_cell_length_c                   9.876(2)
_cell_angle_alpha                90
_cell_angle_beta                 90
_cell_angle_gamma                120
_cell_volume                     3370.36
loop_
_atom_site_label
_atom_site_type_symbol
_atom_site_fract_x
_atom_site_fract_y
_atom_site_fract_z
Co1 Co 0.48192(6) 0.91078(5) 0.23747(10)
S1 S 0.6443(3) 0.9252(4) 0.0984(6)
O1 O 0.6025(5) 0.8908(4) 0.4457(10)
O2 O 0.5097(3) 0.8283(3) 0.2899(7)
O3 O 0.4783(4) 0.5860(4) 0.0765(7)
O4 O 0.5454(5) 0.5336(4) 0.1683(10)
O5 O 0.7295(4) 0.7295(4) 0.5000
O6 O 0.5583(7) 0.9305(6) 0.0627(9)
O7 O 0.5841(3) 1.0000 0.3333
N1 N 0.3875(5) 0.8218(4) 0.1242(9)
C1 C 0.5848(5) 0.7708(4) 0.3569(8)
C2 C 0.5438(5) 0.7078(5) 0.2668(8)
H1 H 0.5031 0.7038 0.2143
C3 C 0.5662(5) 0.6532(5) 0.2597(9)
C4 C 0.6278(5) 0.6586(5) 0.3377(9)
H2 H 0.6432 0.6216 0.3298
C5 C 0.6649(5) 0.7200(4) 0.4259(7)
C6 C 0.6448(5) 0.7761(4) 0.4354(9)
H3 H 0.6713 0.8178 0.4944
C7 C 0.5643(5) 0.8361(5) 0.3665(9)
C8 C 0.5261(6) 0.5854(6) 0.1619(11)
C9 C 0.3954(7) 0.7676(6) 0.0527(11)
H4 H 0.4435 0.7703 0.0548
C10 C 0.3393(10) 0.7110(8) -0.0199(13)
H5 H 0.3468 0.6733 -0.0617
C11 C 0.2708(10) 0.7099(8) -0.0310(15)
H6 H 0.2311 0.6718 -0.0834
C12 C 0.2596(8) 0.7638(9) 0.0334(17)
H7 H 0.2133 0.7643 0.0242
C13 C 0.3189(7) 0.8175(6) 0.1127(15)
H8 H 0.3106 0.8529 0.1610
C14 C 0.7235(16) 1.0091(9) 0.028(3)
C15 C 0.6266(14) 0.8423(9) 0.005(2)
O1C O 0.8908(4) 0.6025(5) 0.5543(10)
O2C O 0.8283(3) 0.5097(3) 0.7101(7)
O3C O 0.5860(4) 0.4783(4) 0.9235(7)
O4C O 0.5336(4) 0.5454(5) 0.8317(10)
C1C C 0.7708(4) 0.5848(5) 0.6431(8)
C2C C 0.7078(5) 0.5438(5) 0.7332(8)
H1C H 0.7038 0.5031 0.7857
C3C C 0.6532(5) 0.5662(5) 0.7403(9)
C4C C 0.6586(5) 0.6278(5) 0.6623(9)
H2C H 0.6216 0.6432 0.6702
C5C C 0.7200(4) 0.6649(5) 0.5741(7)
C6C C 0.7761(4) 0.6448(5) 0.5646(9)
H3C H 0.8178 0.6713 0.5056
C7C C 0.8361(5) 0.5643(5) 0.6335(9)
C8C C 0.5854(6) 0.5261(6) 0.8381(11)
Co1C Co 0.91078(5) 0.48192(6) 0.76253(10)
S1C S 0.9252(4) 0.6443(3) 0.9016(6)
O6C O 0.9305(6) 0.5583(7) 0.9373(9)
N1C N 0.8218(4) 0.3875(5) 0.8758(9)
C9C C 0.7676(6) 0.3954(7) 0.9473(11)
H4C H 0.7703 0.4435 0.9452
C10C C 0.7110(8) 0.3393(10) 1.0199(13)
H5C H 0.6733 0.3468 1.0617
C11C C 0.7099(8) 0.2708(10) 1.0310(15)
H6C H 0.6718 0.2311 1.0834
C12C C 0.7638(9) 0.2596(8) 0.9666(17)
H7C H 0.7643 0.2133 0.9758
C13C C 0.8175(6) 0.3189(7) 0.8873(15)
H8C H 0.8529 0.3106 0.8390
C14C C 1.0091(9) 0.7235(16) 0.972(3)
C15C C 0.8423(9) 0.6266(14) 0.995(2)
Co1B Co 0.42886(8) 0.51808(6) -0.09586(10)
Co1B_2 Co 0.42886(8) 0.51808(6) 0.90414(10)
Co1D Co 0.57114(8) 1.08922(5) 0.42920(10)
Co1E Co 0.51808(6) 0.42886(8) 0.09586(10)
Co1E_2 Co 0.51808(6) 0.42886(8) 1.09586(10)
O3A O 0.4140(4) 0.8923(6) 0.4098(7)
O3D O 0.8923(6) 0.4140(4) 0.5902(7)
O4B O 0.9882(6) 0.4546(5) 0.8350(10)
O4E O 0.4546(5) 0.9882(6) 0.1650(10)
O7A O 1.0000 0.5841(3) 0.6666
loop_
_geom_bond_atom_site_label_1
_geom_bond_atom_site_label_2
_geom_bond_site_symmetry_1
_geom_bond_site_symmetry_2
Co1 O2 1_555 1_555
S1 O6 1_555 1_555
O1 C7 1_555 1_555
O2 C7 1_555 1_555
O3 C8 1_555 1_555
O4 C8 1_555 1_555
O5 C5 1_555 1_555
O6 Co1 1_555 1_555
O7 Co1 1_555 1_555
N1 Co1 1_555 1_555
C1 C2 1_555 1_555
C2 H1 1_555 1_555
C3 C2 1_555 1_555
C4 C3 1_555 1_555
H2 C4 1_555 1_555
C5 C4 1_555 1_555
C6 C1 1_555 1_555
H3 C6 1_555 1_555
C7 C1 1_555 1_555
C8 C3 1_555 1_555
C9 N1 1_555 1_555
H4 C9 1_555 1_555
C10 C9 1_555 1_555
H5 C10 1_555 1_555
C11 C10 1_555 1_555
H6 C11 1_555 1_555
C12 C11 1_555 1_555
H7 C12 1_555 1_555
C13 N1 1_555 1_555
H8 C13 1_555 1_555
C14 S1 1_555 1_555
C15 S1 1_555 1_555
O1C C7C 1_555 1_555
O2C C7C 1_555 1_555
O3C C8C 1_555 1_555
O4C C8C 1_555 1_555
C1C C2C 1_555 1_555
C2C H1C 1_555 1_555
C3C C2C 1_555 1_555
C4C C3C 1_555 1_555
H2C C4C 1_555 1_555
C5C O5 1_555 1_555
C6C C1C 1_555 1_555
H3C C6C 1_555 1_555
C7C C1C 1_555 1_555
C8C C3C 1_555 1_555
Co1C O2C 1_555 1_555
S1C O6C 1_555 1_555
O6C Co1C 1_555 1_555
N1C Co1C 1_555 1_555
C9C N1C 1_555 1_555
H4C C9C 1_555 1_555
C10C C9C 1_555 1_555
H5C C10C 1_555 1_555
C11C C10C 1_555 1_555
H6C C11C 1_555 1_555
C12C C11C 1_555 1_555
H7C C12C 1_555 1_555
C13C N1C 1_555 1_555
H8C C13C 1_555 1_555
C14C S1C 1_555 1_555
C15C S1C 1_555 1_555
Co1B O3 1_555 1_555
Co1B_2 O4C 1_555 1_555
Co1D O7 1_555 1_555
Co1E O4 1_555 1_555
Co1E_2 O3C 1_555 1_555
O3A Co1 1_555 1_555
O3D Co1C 1_555 1_555
O4B Co1C 1_555 1_555
O4E Co1 1_555 1_555
O7A Co1C 1_555 1_555
C5 C6 1_555 1_555
C12 C13 1_555 1_555
C4C C5C 1_555 1_555
C5C C6C 1_555 1_555
C12C C13C 1_555 1_555

#END
