
#######################################################################
#
#                 Cambridge Crystallographic Data Centre
#                                CCDC 
#
#######################################################################
#
# If this CIF has been generated from an entry in the Cambridge 
# Structural Database, then it will include bibliographic, chemical, 
# crystal, experimental, refinement or atomic coordinate data resulting 
# from the CCDC's data processing and validation procedures.
#
#######################################################################

data_QOFPAE
_chemical_formula_moiety         '(C4 H18 N2 O31 P4 U5)n'
_symmetry_cell_setting           monoclinic
_symmetry_space_group_name_H-M   'P 21/n'
_symmetry_Int_Tables_number      14
_space_group_name_Hall           '-P 2yn'
loop_
_symmetry_equiv_pos_site_id
_symmetry_equiv_pos_as_xyz
1 x,y,z
2 1/2-x,1/2+y,1/2-z
3 -x,-y,-z
4 1/2+x,1/2-y,1/2+z
_cell_length_a                   9.5152(9)
_cell_length_b                   33.144(3)
_cell_length_c                   9.6569(10)
_cell_angle_alpha                90
_cell_angle_beta                 93.2110(10)
_cell_angle_gamma                90
_cell_volume                     3040.73
loop_
_atom_site_label
_atom_site_type_symbol
_atom_site_fract_x
_atom_site_fract_y
_atom_site_fract_z
U1 U 0.08050(5) 0.240207(14) 0.66336(4)
U2 U 0.18149(5) 0.240604(14) 0.26670(4)
U3 U 0.54940(5) 0.007359(15) 0.79980(4)
U4 U 0.94924(5) 0.007633(14) 0.69537(4)
U5 U 0.64402(5) 0.130482(15) 0.44288(5)
P1 P 0.7116(3) 0.02024(10) 0.4587(3)
P2 P 0.4282(3) 0.22173(10) 0.4949(3)
P3 P 0.7850(3) 0.02118(11) 1.0387(3)
P4 P -0.1681(3) 0.23074(10) 0.4329(3)
O1 O -0.2410(9) 0.2592(2) 0.3313(8)
O2 O 0.6161(9) -0.0102(3) 0.3844(8)
O3 O 0.6991(9) 0.0178(3) 0.6179(8)
O4 O 0.8830(10) -0.0052(3) 1.1266(9)
O5 O 0.4358(9) 0.2369(3) 0.3449(8)
O6 O 0.8020(9) 0.0169(3) 0.8828(8)
O7 O -0.1719(9) 0.2470(3) 0.5839(9)
O8 O -0.0056(9) 0.2303(3) 0.4150(8)
O9 O 0.5031(10) 0.2510(3) 0.5939(9)
O10 O 0.2654(9) 0.2238(3) 0.5126(8)
O11 O 0.8681(10) 0.0075(3) 0.4484(9)
O12 O 0.4803(9) 0.1796(3) 0.5121(8)
O13 O 0.6317(10) 0.0088(3) 1.0520(9)
O14 O 0.5215(10) 0.0590(3) 0.8165(9)
O15 O 0.9787(9) 0.0595(3) 0.6815(9)
O16 O 0.1831(9) 0.2923(3) 0.3087(9)
O17 O 0.9189(9) -0.0447(3) 0.7066(9)
O18 O 0.0485(9) 0.1893(3) 0.6985(8)
O19 O 0.6854(9) 0.0614(3) 0.4050(8)
O20 O 0.5823(10) -0.0448(3) 0.7846(9)
O21 O 0.1779(9) 0.1880(3) 0.2305(8)
O22 O 0.1121(9) 0.2913(3) 0.6199(8)
O23 O 0.5721(10) 0.1342(3) 0.2747(9)
O24 O 0.8080(10) 0.0659(3) 1.0804(9)
O25 O 0.7121(10) 0.1243(3) 0.6150(10)
O26 O -0.2292(9) 0.1894(3) 0.4212(9)
O27 O 0.8769(10) 0.1179(3) 0.3320(10)
O28 O 0.4269(11) 0.0945(3) 0.5040(10)
U1C U -0.41950(5) 0.259793(14) 0.16336(4)
U1C_2 U 0.58050(5) 0.259793(14) 0.16336(4)
U2C U -0.31851(5) 0.259396(14) 0.76670(4)
U2C_2 U 0.68149(5) 0.259396(14) 0.76670(4)
U3B U 0.45060(5) -0.007359(15) 0.20020(4)
U3B_2 U 0.45060(5) -0.007359(15) 1.20020(4)
U4B U 1.05076(5) -0.007633(14) 0.30463(4)
U4B_2 U 1.05076(5) -0.007633(14) 1.30463(4)
U5_2 U -0.35598(5) 0.130482(15) 0.44288(5)
O1C O 0.2590(9) 0.2408(2) 0.8313(8)
O2B O 0.3839(9) 0.0102(3) 0.6156(8)
O4B O 1.1170(10) 0.0052(3) 0.8734(9)
O5C O -0.0642(9) 0.2631(3) 0.8449(8)
O7C O 0.3281(9) 0.2530(3) 0.0839(9)
O9C O 0.0031(10) 0.2490(3) 0.0939(9)
O11B O 1.1319(10) -0.0075(3) 0.5516(9)
O13B O 0.3683(10) -0.0088(3) 0.9480(9)
O26_2 O 0.7708(9) 0.1894(3) 0.4212(9)
O29 O 0.8755(11) 0.1716(3) 0.1022(11)
O30 O 0.1675(14) 0.1247(4) 0.4730(13)
O31 O 0.7919(17) 0.1184(5) 0.8992(16)
N1 N 0.2529(15) 0.1190(4) 0.9547(14)
C1 C 0.233(2) 0.1224(6) 0.817(2)
N2 N 0.355(2) 0.1440(6) 0.7815(19)
C2 C 0.377(2) 0.1379(6) 1.007(2)
C3 C 0.440(2) 0.1507(6) 0.892(2)
C4 C 0.149(2) 0.0994(7) 1.042(2)
loop_
_geom_bond_atom_site_label_1
_geom_bond_atom_site_label_2
_geom_bond_site_symmetry_1
_geom_bond_site_symmetry_2
U1 O7 1_555 1_555
U2 O5 1_555 1_555
U3 O3 1_555 1_555
U4 O3 1_555 1_555
U5 O12 1_555 1_555
P1 O2 1_555 1_555
P2 O5 1_555 1_555
P3 O4 1_555 1_555
P4 O1 1_555 1_555
O1 U1C 1_555 1_555
O2 U3B 1_555 1_555
O3 P1 1_555 1_555
O4 U4B_2 1_555 1_555
O5 U1C_2 1_555 1_555
O6 U3 1_555 1_555
O7 P4 1_555 1_555
O8 U1 1_555 1_555
O9 P2 1_555 1_555
O10 U1 1_555 1_555
O11 U4 1_555 1_555
O12 P2 1_555 1_555
O13 U3 1_555 1_555
O14 U3 1_555 1_555
O15 U4 1_555 1_555
O16 U2 1_555 1_555
O17 U4 1_555 1_555
O18 U1 1_555 1_555
O19 U5 1_555 1_555
O20 U3 1_555 1_555
O21 U2 1_555 1_555
O22 U1 1_555 1_555
O23 U5 1_555 1_555
O24 P3 1_555 1_555
O25 U5 1_555 1_555
O26 P4 1_555 1_555
O27 U5 1_555 1_555
O28 U5 1_555 1_555
N1 C1 1_555 1_555
C1 N2 1_555 1_555
N2 C3 1_555 1_555
C2 N1 1_555 1_555
C3 C2 1_555 1_555
C4 N1 1_555 1_555
U1C_2 O7C 1_555 1_555
U2C O7 1_555 1_555
U2C_2 O9 1_555 1_555
U3B_2 O13 1_555 1_555
U4B O11 1_555 1_555
U5_2 O26 1_555 1_555
O1C U1 1_555 1_555
O2B U3 1_555 1_555
O4B U4 1_555 1_555
O5C U1 1_555 1_555
O7C U2 1_555 1_555
O9C U2 1_555 1_555
O11B U4 1_555 1_555
O13B U3 1_555 1_555
O26_2 U5 1_555 1_555
U2 O8 1_555 1_555
U2 O10 1_555 1_555
U4 O6 1_555 1_555
P1 O11 1_555 1_555
P1 O19 1_555 1_555
P2 O10 1_555 1_555
P3 O6 1_555 1_555
P3 O13 1_555 1_555
P4 O8 1_555 1_555
U2C O5C 1_555 1_555
U3B_2 O13B 1_555 1_555
U4B O11B 1_555 1_555

#END
