
#######################################################################
#
#                 Cambridge Crystallographic Data Centre
#                                CCDC 
#
#######################################################################
#
# If this CIF has been generated from an entry in the Cambridge 
# Structural Database, then it will include bibliographic, chemical, 
# crystal, experimental, refinement or atomic coordinate data resulting 
# from the CCDC's data processing and validation procedures.
#
#######################################################################

data_HEGNUD
_chemical_formula_moiety         '(C4 H17 Ga2 N3 O10 P2)n'
_symmetry_cell_setting           rhombohedral
_symmetry_space_group_name_H-M   'R -3'
_symmetry_Int_Tables_number      148
_space_group_name_Hall           '-R 3'
loop_
_symmetry_equiv_pos_site_id
_symmetry_equiv_pos_as_xyz
1 x,y,z
2 -y,x-y,z
3 -x+y,-x,z
4 2/3+x,1/3+y,1/3+z
5 2/3-y,1/3+x-y,1/3+z
6 2/3-x+y,1/3-x,1/3+z
7 1/3+x,2/3+y,2/3+z
8 1/3-y,2/3+x-y,2/3+z
9 1/3-x+y,2/3-x,2/3+z
10 -x,-y,-z
11 y,-x+y,-z
12 x-y,x,-z
13 1/3-x,2/3-y,2/3-z
14 1/3+y,2/3-x+y,2/3-z
15 1/3+x-y,2/3+x,2/3-z
16 2/3-x,1/3-y,1/3-z
17 2/3+y,1/3-x+y,1/3-z
18 2/3+x-y,1/3+x,1/3-z
_cell_length_a                   23.716(3)
_cell_length_b                   23.716(3)
_cell_length_c                   13.447(2)
_cell_angle_alpha                90
_cell_angle_beta                 90
_cell_angle_gamma                120.00
_cell_volume                     6549.96
loop_
_atom_site_label
_atom_site_type_symbol
_atom_site_fract_x
_atom_site_fract_y
_atom_site_fract_z
_atom_site_U_iso_or_equiv
_atom_site_thermal_displace_type
Ga1 Ga 0.36008(2) 0.09296(2) 0.12055(4) 0.0201 Uani
Ga2 Ga 0.35001(3) 0.24270(3) -0.08524(4) 0.0209 Uani
P1 P 0.41877(6) 0.23605(6) 0.11916(9) 0.0214 Uani
P2 P 0.32672(6) -0.01294(6) 0.27788(8) 0.0183 Uani
O1 O 0.36699(17) 0.21028(16) 0.0371(2) 0.0268 Uani
O2 O 0.42178(15) 0.17516(15) 0.1564(2) 0.0232 Uani
O3 O 0.39110(16) 0.25907(16) 0.2061(2) 0.0261 Uani
O4 O 0.48401(18) 0.28900(18) 0.0902(3) 0.0401 Uani
O5 O 0.37497(15) 0.04450(15) 0.2122(2) 0.0213 Uani
O6 O 0.36726(16) -0.04099(16) 0.3261(2) 0.0253 Uani
O7 O 0.27166(18) -0.06490(16) 0.2184(2) 0.0271 Uani
O8 O 0.30031(16) 0.01093(15) 0.3609(2) 0.0234 Uani
N1 N 0.4444(2) 0.2753(2) -0.1308(3) 0.0307 Uani
N2 N 0.3325(2) 0.1571(2) -0.1491(3) 0.0342 Uani
N3 N 0.2513(2) 0.1888(2) -0.0595(3) 0.0284 Uani
C1 C 0.4471(3) 0.2180(3) -0.1701(5) 0.0481 Uani
C2 C 0.3847(4) 0.1719(3) -0.2194(4) 0.0461 Uani
C3 C 0.2650(3) 0.1224(3) -0.1834(4) 0.0433 Uani
C4 C 0.2241(3) 0.1213(3) -0.0974(5) 0.0454 Uani
H1 H 0.4770 0.2957 -0.0748 0.0500 Uiso
H2 H 0.4571 0.3032 -0.1789 0.0500 Uiso
H3 H 0.3303 0.1236 -0.1032 0.0500 Uiso
H4 H 0.2287 0.2008 -0.0882 0.0500 Uiso
H5 H 0.2470 0.1936 0.0177 0.0500 Uiso
H6 H 0.4490 0.1915 -0.1108 0.0500 Uiso
H7 H 0.4872 0.2364 -0.2005 0.0500 Uiso
H8 H 0.3819 0.1307 -0.2481 0.0500 Uiso
H9 H 0.3836 0.1969 -0.2748 0.0500 Uiso
H10 H 0.2536 0.0783 -0.1934 0.0500 Uiso
H11 H 0.2614 0.1476 -0.2404 0.0500 Uiso
H12 H 0.1802 0.1055 -0.1220 0.0500 Uiso
H13 H 0.2298 0.1012 -0.0460 0.0500 Uiso
Ga1O Ga 0.30659(2) 0.24037(2) 0.21278(4) 0.0201 Uani
Ga1E Ga 0.39955(3) -0.02675(2) 0.45388(4) 0.0201 Uani
Ga2J Ga 0.24270(3) -0.10731(4) 0.08524(4) 0.0209 Uani
Ga2O Ga 0.31666(3) 0.09063(3) 0.41857(4) 0.0209 Uani
O3O O 0.27557(16) 0.07426(16) 0.1272(2) 0.0261 Uani
O6G O 0.37432(16) 0.07492(23) -0.0072(2) 0.0253 Uani
O7K O 0.33656(24) 0.27166(18) -0.2184(2) 0.0271 Uani
O8O O 0.36636(16) 0.32240(15) -0.0276(2) 0.0234 Uani
O9 O 0.5229(6) 0.3238(6) -0.3401(9) 0.0890 Uiso
O10 O 0.5923(16) 0.3413(16) 0.016(2) 0.2590 Uiso
loop_
_atom_site_aniso_label
_atom_site_aniso_U_11
_atom_site_aniso_U_22
_atom_site_aniso_U_33
_atom_site_aniso_U_23
_atom_site_aniso_U_13
_atom_site_aniso_U_12
Ga1 0.0237(3) 0.0220(3) 0.0109(2) 0.00113(19) -0.00187(19) 0.0086(2)
Ga2 0.0318(3) 0.0210(3) 0.0117(3) -0.0006(2) -0.0026(2) 0.0145(2)
P1 0.0215(6) 0.0200(6) 0.0176(6) 0.0025(5) -0.0001(5) 0.0065(5)
P2 0.0247(6) 0.0192(6) 0.0090(5) -0.0007(4) -0.0004(4) 0.0094(5)
O1 0.035(2) 0.0263(18) 0.0144(15) 0.0028(13) -0.0065(14) 0.0119(16)
O2 0.0234(17) 0.0226(17) 0.0200(15) 0.0000(13) -0.0048(13) 0.0089(14)
O3 0.0247 0.0286 0.0213 -0.0029 -0.0027 0.0105
O4 0.029(2) 0.031(2) 0.048(2) 0.0061(18) 0.0076(18) 0.0058(17)
O5 0.0253(17) 0.0240(17) 0.0131(14) 0.0048(13) -0.0013(13) 0.0111(14)
O6 0.0419 0.0293 0.0107 0.0001 -0.0003 0.0223
O7 0.0283 0.0255 0.0133 -0.005 -0.0011 0.0029
O8 0.0305 0.0234 0.0134 -0.0012 0.0028 0.0114
N1 0.038(3) 0.032(2) 0.028(2) 0.0032(19) 0.0021(19) 0.022(2)
N2 0.055(3) 0.028(2) 0.024(2) -0.0015(18) -0.005(2) 0.024(2)
N3 0.031(2) 0.027(2) 0.022(2) 0.0015(17) -0.0083(18) 0.0105(19)
C1 0.062(4) 0.052(4) 0.047(4) -0.002(3) 0.008(3) 0.041(4)
C2 0.082(5) 0.046(4) 0.025(3) -0.004(3) 0.005(3) 0.043(4)
C3 0.063(4) 0.029(3) 0.034(3) -0.011(2) -0.018(3) 0.020(3)
C4 0.048(4) 0.036(3) 0.043(3) 0.002(3) -0.014(3) 0.014(3)
Ga1O 0.0237 0.022 0.0109 0.00113 -0.00187 0.0086
Ga1E 0.0285 0.0237 0.0109 0.00187 0.003 0.0151
Ga2J 0.021 0.0238 0.0117 -0.002 0.0006 0.0065
Ga2O 0.0318 0.021 0.0117 -0.0006 -0.0026 0.0145
O3O 0.0247 0.0286 0.0213 -0.0029 -0.0027 0.0105
O6G 0.0293 0.0266 0.0107 -0.0004 -0.0001 0.007
O7K 0.048 0.0283 0.0133 0.0011 -0.0039 0.0254
O8O 0.0305 0.0234 0.0134 -0.0012 0.0028 0.0114
loop_
_geom_bond_atom_site_label_1
_geom_bond_atom_site_label_2
_geom_bond_site_symmetry_1
_geom_bond_site_symmetry_2
Ga1 O2 1_555 1_555
Ga2 O1 1_555 1_555
P1 O1 1_555 1_555
P2 O5 1_555 1_555
O2 P1 1_555 1_555
O3 P1 1_555 1_555
O4 P1 1_555 1_555
O5 Ga1 1_555 1_555
O6 P2 1_555 1_555
O7 P2 1_555 1_555
O8 P2 1_555 1_555
N1 Ga2 1_555 1_555
N2 Ga2 1_555 1_555
N3 Ga2 1_555 1_555
C1 N1 1_555 1_555
C2 N2 1_555 1_555
C3 N2 1_555 1_555
C4 N3 1_555 1_555
H1 N1 1_555 1_555
H2 N1 1_555 1_555
H3 N2 1_555 1_555
H4 N3 1_555 1_555
H5 N3 1_555 1_555
H6 C1 1_555 1_555
H7 C1 1_555 1_555
H8 C2 1_555 1_555
H9 C2 1_555 1_555
H10 C3 1_555 1_555
H11 C3 1_555 1_555
H12 C4 1_555 1_555
H13 C4 1_555 1_555
Ga1O O3 1_555 1_555
Ga1E O6 1_555 1_555
Ga2J O7 1_555 1_555
Ga2O O8 1_555 1_555
O3O Ga1 1_555 1_555
O6G Ga1 1_555 1_555
O7K Ga2 1_555 1_555
O8O Ga2 1_555 1_555
C1 C2 1_555 1_555
C3 C4 1_555 1_555

#END
