
#######################################################################
#
#                 Cambridge Crystallographic Data Centre
#                                CCDC 
#
#######################################################################
#
# If this CIF has been generated from an entry in the Cambridge 
# Structural Database, then it will include bibliographic, chemical, 
# crystal, experimental, refinement or atomic coordinate data resulting 
# from the CCDC's data processing and validation procedures.
#
#######################################################################

data_HEGNIR
_chemical_formula_moiety         '(C4 H17 Ga2 N3 O10 P2)n'
_symmetry_cell_setting           rhombohedral
_symmetry_space_group_name_H-M   'R -3'
_symmetry_Int_Tables_number      148
_space_group_name_Hall           '-R 3'
loop_
_symmetry_equiv_pos_site_id
_symmetry_equiv_pos_as_xyz
1 x,y,z
2 -y,x-y,z
3 -x+y,-x,z
4 2/3+x,1/3+y,1/3+z
5 2/3-y,1/3+x-y,1/3+z
6 2/3-x+y,1/3-x,1/3+z
7 1/3+x,2/3+y,2/3+z
8 1/3-y,2/3+x-y,2/3+z
9 1/3-x+y,2/3-x,2/3+z
10 -x,-y,-z
11 y,-x+y,-z
12 x-y,x,-z
13 1/3-x,2/3-y,2/3-z
14 1/3+y,2/3-x+y,2/3-z
15 1/3+x-y,2/3+x,2/3-z
16 2/3-x,1/3-y,1/3-z
17 2/3+y,1/3-x+y,1/3-z
18 2/3+x-y,1/3+x,1/3-z
_cell_length_a                   23.6635(14)
_cell_length_b                   23.6635(14)
_cell_length_c                   13.5686(11)
_cell_angle_alpha                90
_cell_angle_beta                 90
_cell_angle_gamma                120.00
_cell_volume                     6579.97
loop_
_atom_site_label
_atom_site_type_symbol
_atom_site_fract_x
_atom_site_fract_y
_atom_site_fract_z
_atom_site_U_iso_or_equiv
_atom_site_thermal_displace_type
Ga1 Ga 0.36185(3) 0.09333(3) 0.11825(4) 0.0243 Uani
Ga2 Ga 0.34991(3) 0.24380(3) -0.08198(4) 0.0236 Uani
P1 P 0.42029(6) 0.23786(6) 0.12203(9) 0.0235 Uani
P2 P 0.32703(6) -0.01383(6) 0.27484(9) 0.0196 Uani
O1 O 0.36998(18) 0.21215(18) 0.0386(2) 0.0316 Uani
O2 O 0.42439(18) 0.17750(18) 0.1576(3) 0.0303 Uani
O3 O 0.39211(17) 0.26001(17) 0.2080(3) 0.0289 Uani
O4 O 0.4857(2) 0.2917(2) 0.0929(3) 0.0485 Uani
O5 O 0.37653(16) 0.04436(16) 0.2122(2) 0.0252 Uani
O6 O 0.36473(18) -0.04495(17) 0.3218(3) 0.0343 Uani
O7 O 0.2711(2) -0.06359(18) 0.2141(2) 0.0334 Uani
O8 O 0.30090(17) 0.00966(16) 0.3593(2) 0.0264 Uani
N1 N 0.4447(2) 0.2785(2) -0.1302(3) 0.0359 Uani
N2 N 0.3334(2) 0.1577(2) -0.1473(3) 0.0329 Uani
N3 N 0.2514(2) 0.1884(2) -0.0559(3) 0.0288 Uani
C1 C 0.4490(3) 0.2224(4) -0.1717(5) 0.0490 Uani
C2 C 0.3862(4) 0.1757(3) -0.2207(4) 0.0461 Uani
C3 C 0.2665(3) 0.1238(3) -0.1819(4) 0.0410 Uani
C4 C 0.2251(3) 0.1209(3) -0.0948(5) 0.0447 Uani
H1 H 0.4502 0.3043 -0.1783 0.0500 Uiso
H2 H 0.4789 0.3047 -0.0772 0.0500 Uiso
H3 H 0.3353 0.1312 -0.0924 0.0500 Uiso
H4 H 0.2399 0.1827 0.0107 0.0500 Uiso
H5 H 0.2179 0.2004 -0.0856 0.0500 Uiso
H6 H 0.4631 0.2015 -0.1151 0.0500 Uiso
H7 H 0.4805 0.2389 -0.2348 0.0500 Uiso
H8 H 0.3889 0.1374 -0.2476 0.0500 Uiso
H9 H 0.3767 0.2002 -0.2734 0.0500 Uiso
H10 H 0.2547 0.1464 -0.2409 0.0500 Uiso
H11 H 0.2491 0.0790 -0.1992 0.0500 Uiso
H12 H 0.1819 0.1101 -0.1210 0.0500 Uiso
H13 H 0.2237 0.0902 -0.0353 0.0500 Uiso
Ga1O Ga 0.30482(3) 0.24000(3) 0.21508(4) 0.0243 Uani
Ga1E Ga 0.39815(4) -0.02852(3) 0.45158(4) 0.0243 Uani
Ga2J Ga 0.24380(3) -0.10611(4) 0.08198(4) 0.0236 Uani
Ga2O Ga 0.31676(3) 0.08953(3) 0.41531(4) 0.0236 Uani
O3O O 0.27456(17) 0.07332(17) 0.1253(3) 0.0289 Uani
O6G O 0.37828(17) 0.07635(25) -0.0115(3) 0.0343 Uani
O7K O 0.33469(27) 0.2711(2) -0.2141(2) 0.0334 Uani
O8O O 0.36577(17) 0.32367(16) -0.0260(2) 0.0264 Uani
O9 O 0.5464(10) 0.2069(12) 0.0155(16) 0.1850 Uiso
O10 O 0.0467(12) 0.0820(13) -0.1040(17) 0.2010 Uiso
loop_
_atom_site_aniso_label
_atom_site_aniso_U_11
_atom_site_aniso_U_22
_atom_site_aniso_U_33
_atom_site_aniso_U_23
_atom_site_aniso_U_13
_atom_site_aniso_U_12
Ga1 0.0273(3) 0.0270(3) 0.0167(3) -0.0002(2) -0.0027(2) 0.0122(3)
Ga2 0.0331(3) 0.0237(3) 0.0152(3) -0.0003(2) -0.0012(2) 0.0150(3)
P1 0.0237(7) 0.0240(7) 0.0207(6) 0.0017(5) 0.0011(5) 0.0103(6)
P2 0.0221(6) 0.0207(6) 0.0152(6) -0.0012(5) -0.0011(5) 0.0100(5)
O1 0.041(2) 0.034(2) 0.0182(18) 0.0039(15) -0.0054(16) 0.0176(19)
O2 0.034(2) 0.036(2) 0.0272(19) 0.0011(16) -0.0034(16) 0.0222(18)
O3 0.029 0.032 0.0253 -0.0041 -0.0026 0.0149
O4 0.030(2) 0.040(2) 0.058(3) 0.006(2) 0.010(2) 0.0044(19)
O5 0.0266(19) 0.0263(19) 0.0204(18) 0.0033(14) 0.0011(14) 0.0115(16)
O6 0.0416 0.035 0.036 0.0058 0.0015 0.0265
O7 0.033 0.034 0.015 -0.008 -0.0004 0.003
O8 0.036 0.0239 0.0152 -0.0022 0.0032 0.012
N1 0.043(3) 0.029(3) 0.037(3) 0.007(2) 0.007(2) 0.019(2)
N2 0.050(3) 0.029(2) 0.020(2) -0.0026(18) -0.007(2) 0.020(2)
N3 0.029(2) 0.031(2) 0.025(2) 0.0010(19) -0.0033(19) 0.014(2)
C1 0.053(4) 0.057(4) 0.051(4) -0.003(3) 0.010(3) 0.038(4)
C2 0.078(5) 0.051(4) 0.029(3) -0.002(3) 0.005(3) 0.047(4)
C3 0.059(4) 0.028(3) 0.031(3) -0.012(3) -0.016(3) 0.018(3)
C4 0.047(4) 0.033(3) 0.042(4) 0.002(3) -0.011(3) 0.011(3)
Ga1O 0.0273 0.027 0.0167 -0.0002 -0.0027 0.0122
Ga1E 0.0299 0.0273 0.0167 0.0027 0.0025 0.0151
Ga2J 0.0237 0.0268 0.0152 -0.0009 0.0003 0.0087
Ga2O 0.0331 0.0237 0.0152 -0.0003 -0.0012 0.015
O3O 0.029 0.032 0.0253 -0.0041 -0.0026 0.0149
O6G 0.035 0.0236 0.036 -0.0043 -0.0058 0.0085
O7K 0.061 0.033 0.015 0.0004 -0.0076 0.03
O8O 0.036 0.0239 0.0152 -0.0022 0.0032 0.012
loop_
_geom_bond_atom_site_label_1
_geom_bond_atom_site_label_2
_geom_bond_site_symmetry_1
_geom_bond_site_symmetry_2
Ga1 O2 1_555 1_555
Ga2 O1 1_555 1_555
P1 O1 1_555 1_555
P2 O5 1_555 1_555
O2 P1 1_555 1_555
O3 P1 1_555 1_555
O4 P1 1_555 1_555
O5 Ga1 1_555 1_555
O6 P2 1_555 1_555
O7 P2 1_555 1_555
O8 P2 1_555 1_555
N1 Ga2 1_555 1_555
N2 Ga2 1_555 1_555
N3 Ga2 1_555 1_555
C1 N1 1_555 1_555
C2 N2 1_555 1_555
C3 N2 1_555 1_555
C4 N3 1_555 1_555
H1 N1 1_555 1_555
H2 N1 1_555 1_555
H3 N2 1_555 1_555
H4 N3 1_555 1_555
H5 N3 1_555 1_555
H6 C1 1_555 1_555
H7 C1 1_555 1_555
H8 C2 1_555 1_555
H9 C2 1_555 1_555
H10 C3 1_555 1_555
H11 C3 1_555 1_555
H12 C4 1_555 1_555
H13 C4 1_555 1_555
Ga1O O3 1_555 1_555
Ga1E O6 1_555 1_555
Ga2J O7 1_555 1_555
Ga2O O8 1_555 1_555
O3O Ga1 1_555 1_555
O6G Ga1 1_555 1_555
O7K Ga2 1_555 1_555
O8O Ga2 1_555 1_555
C1 C2 1_555 1_555
C3 C4 1_555 1_555

#END
