
#######################################################################
#
#                 Cambridge Crystallographic Data Centre
#                                CCDC 
#
#######################################################################
#
# If this CIF has been generated from an entry in the Cambridge 
# Structural Database, then it will include bibliographic, chemical, 
# crystal, experimental, refinement or atomic coordinate data resulting 
# from the CCDC's data processing and validation procedures.
#
#######################################################################

data_HEGNOX
_chemical_formula_moiety         '(C4 H17 Ga2 N3 O10 P2)n'
_symmetry_cell_setting           rhombohedral
_symmetry_space_group_name_H-M   'R -3'
_symmetry_Int_Tables_number      148
_space_group_name_Hall           '-R 3'
loop_
_symmetry_equiv_pos_site_id
_symmetry_equiv_pos_as_xyz
1 x,y,z
2 -y,x-y,z
3 -x+y,-x,z
4 2/3+x,1/3+y,1/3+z
5 2/3-y,1/3+x-y,1/3+z
6 2/3-x+y,1/3-x,1/3+z
7 1/3+x,2/3+y,2/3+z
8 1/3-y,2/3+x-y,2/3+z
9 1/3-x+y,2/3-x,2/3+z
10 -x,-y,-z
11 y,-x+y,-z
12 x-y,x,-z
13 1/3-x,2/3-y,2/3-z
14 1/3+y,2/3-x+y,2/3-z
15 1/3+x-y,2/3+x,2/3-z
16 2/3-x,1/3-y,1/3-z
17 2/3+y,1/3-x+y,1/3-z
18 2/3+x-y,1/3+x,1/3-z
_cell_length_a                   23.6899(11)
_cell_length_b                   23.6899(11)
_cell_length_c                   13.5483(9)
_cell_angle_alpha                90
_cell_angle_beta                 90
_cell_angle_gamma                120.00
_cell_volume                     6584.79
loop_
_atom_site_label
_atom_site_type_symbol
_atom_site_fract_x
_atom_site_fract_y
_atom_site_fract_z
_atom_site_U_iso_or_equiv
_atom_site_thermal_displace_type
Ga1 Ga 0.36175(3) 0.09274(3) 0.11931(4) 0.0222 Uani
Ga2 Ga 0.35015(3) 0.24382(3) -0.08298(4) 0.0225 Uani
P1 P 0.41939(6) 0.23676(6) 0.12217(9) 0.0222 Uani
P2 P 0.32662(6) -0.01387(6) 0.27617(8) 0.0185 Uani
O1 O 0.37022(18) 0.21217(17) 0.0376(2) 0.0313 Uani
O2 O 0.42363(16) 0.17677(16) 0.1581(2) 0.0259 Uani
O3 O 0.39135(16) 0.25975(16) 0.2075(2) 0.0263 Uani
O4 O 0.48577(18) 0.29114(19) 0.0943(3) 0.0459 Uani
O5 O 0.37621(15) 0.04409(15) 0.2132(2) 0.0235 Uani
O6 O 0.36457(17) -0.04460(16) 0.3234(2) 0.0295 Uani
O7 O 0.27095(18) -0.06411(16) 0.2155(2) 0.0299 Uani
O8 O 0.29983(16) 0.00955(15) 0.3594(2) 0.0245 Uani
N1 N 0.4447(2) 0.2774(2) -0.1321(3) 0.0359 Uani
N2 N 0.3334(2) 0.1575(2) -0.1473(3) 0.0324 Uani
N3 N 0.2516(2) 0.1888(2) -0.0559(3) 0.0293 Uani
C1 C 0.4482(3) 0.2213(3) -0.1714(5) 0.0478 Uani
C2 C 0.3856(4) 0.1745(3) -0.2207(4) 0.0467 Uani
C3 C 0.2656(3) 0.1230(3) -0.1815(4) 0.0394 Uani
C4 C 0.2251(3) 0.1214(3) -0.0939(4) 0.0429 Uani
H1 H 0.4669 0.2913 -0.0780 0.0500 Uiso
H2 H 0.4497 0.3028 -0.1775 0.0500 Uiso
H3 H 0.3382 0.1307 -0.0999 0.0500 Uiso
H4 H 0.2367 0.2083 -0.0866 0.0500 Uiso
H5 H 0.2450 0.1919 0.0111 0.0500 Uiso
H6 H 0.4559 0.1952 -0.1161 0.0500 Uiso
H7 H 0.4744 0.2266 -0.2117 0.0500 Uiso
H8 H 0.3849 0.1321 -0.2556 0.0500 Uiso
H9 H 0.3740 0.1946 -0.2742 0.0500 Uiso
H10 H 0.2343 0.0716 -0.1989 0.0500 Uiso
H11 H 0.2695 0.1532 -0.2427 0.0500 Uiso
H12 H 0.1803 0.1019 -0.1337 0.0500 Uiso
H13 H 0.2273 0.0940 -0.0318 0.0500 Uiso
Ga1O Ga 0.30492(3) 0.24059(3) 0.21402(4) 0.0222 Uani
Ga1E Ga 0.39766(4) -0.02842(3) 0.45264(4) 0.0222 Uani
Ga2J Ga 0.24382(3) -0.10633(4) 0.08298(4) 0.0225 Uani
Ga2O Ga 0.31652(3) 0.08951(3) 0.41631(4) 0.0225 Uani
O3O O 0.27532(16) 0.07358(16) 0.1258(2) 0.0263 Uani
O6G O 0.37793(16) 0.07584(23) -0.0099(2) 0.0295 Uani
O7K O 0.33506(24) 0.27095(18) -0.2155(2) 0.0299 Uani
O8O O 0.36684(16) 0.32378(15) -0.0261(2) 0.0245 Uani
O9 O 0.5449(9) 0.2062(11) 0.0124(15) 0.1710 Uiso
O10 O 0.0517(15) 0.0768(15) -0.125(2) 0.2570 Uiso
loop_
_atom_site_aniso_label
_atom_site_aniso_U_11
_atom_site_aniso_U_22
_atom_site_aniso_U_33
_atom_site_aniso_U_23
_atom_site_aniso_U_13
_atom_site_aniso_U_12
Ga1 0.0262(3) 0.0237(3) 0.0146(3) 0.0004(2) -0.0026(2) 0.0108(2)
Ga2 0.0311(3) 0.0227(3) 0.0153(3) -0.0001(2) -0.0011(2) 0.0146(2)
P1 0.0228(6) 0.0208(6) 0.0207(6) 0.0005(5) -0.0004(5) 0.0091(5)
P2 0.0218(6) 0.0196(6) 0.0130(5) -0.0008(4) -0.0005(4) 0.0095(5)
O1 0.043(2) 0.0316(19) 0.0182(17) 0.0014(14) -0.0078(15) 0.0179(18)
O2 0.0282(19) 0.0266(18) 0.0253(18) -0.0016(14) -0.0070(14) 0.0154(15)
O3 0.0256 0.0292 0.023 -0.0039 -0.0016 0.0129
O4 0.031(2) 0.034(2) 0.059(3) 0.0094(19) 0.0113(19) 0.0060(18)
O5 0.0254(18) 0.0259(18) 0.0176(16) 0.0033(13) 0.0011(13) 0.0116(15)
O6 0.0409 0.0316 0.0229 0.0018 -0.0008 0.0234
O7 0.0281 0.0297 0.0164 -0.0075 -0.0003 0.0029
O8 0.0303 0.0232 0.0181 -0.0029 0.0018 0.012
N1 0.043(3) 0.032(2) 0.037(3) 0.005(2) 0.005(2) 0.022(2)
N2 0.053(3) 0.028(2) 0.020(2) -0.0033(17) -0.007(2) 0.023(2)
N3 0.032(2) 0.030(2) 0.024(2) 0.0020(17) -0.0044(18) 0.014(2)
C1 0.053(4) 0.053(4) 0.054(4) -0.003(3) 0.016(3) 0.039(3)
C2 0.076(5) 0.050(4) 0.028(3) -0.006(3) 0.002(3) 0.042(4)
C3 0.056(4) 0.027(3) 0.029(3) -0.007(2) -0.014(3) 0.016(3)
C4 0.045(3) 0.031(3) 0.042(3) 0.004(3) -0.008(3) 0.011(3)
Ga1O 0.0262 0.0237 0.0146 0.0004 -0.0026 0.0108
Ga1E 0.0283 0.0262 0.0146 0.0026 0.003 0.0154
Ga2J 0.0227 0.0246 0.0153 -0.001 0.0001 0.0081
Ga2O 0.0311 0.0227 0.0153 -0.0001 -0.0011 0.0146
O3O 0.0256 0.0292 0.023 -0.0039 -0.0016 0.0129
O6G 0.0316 0.0257 0.0229 -0.0026 -0.0018 0.0082
O7K 0.052 0.0281 0.0164 0.0003 -0.0072 0.0252
O8O 0.0303 0.0232 0.0181 -0.0029 0.0018 0.012
loop_
_geom_bond_atom_site_label_1
_geom_bond_atom_site_label_2
_geom_bond_site_symmetry_1
_geom_bond_site_symmetry_2
Ga1 O2 1_555 1_555
Ga2 O1 1_555 1_555
P1 O1 1_555 1_555
P2 O5 1_555 1_555
O2 P1 1_555 1_555
O3 P1 1_555 1_555
O4 P1 1_555 1_555
O5 Ga1 1_555 1_555
O6 P2 1_555 1_555
O7 P2 1_555 1_555
O8 P2 1_555 1_555
N1 Ga2 1_555 1_555
N2 Ga2 1_555 1_555
N3 Ga2 1_555 1_555
C1 N1 1_555 1_555
C2 N2 1_555 1_555
C3 N2 1_555 1_555
C4 N3 1_555 1_555
H1 N1 1_555 1_555
H2 N1 1_555 1_555
H3 N2 1_555 1_555
H4 N3 1_555 1_555
H5 N3 1_555 1_555
H6 C1 1_555 1_555
H7 C1 1_555 1_555
H8 C2 1_555 1_555
H9 C2 1_555 1_555
H10 C3 1_555 1_555
H11 C3 1_555 1_555
H12 C4 1_555 1_555
H13 C4 1_555 1_555
Ga1O O3 1_555 1_555
Ga1E O6 1_555 1_555
Ga2J O7 1_555 1_555
Ga2O O8 1_555 1_555
O3O Ga1 1_555 1_555
O6G Ga1 1_555 1_555
O7K Ga2 1_555 1_555
O8O Ga2 1_555 1_555
C1 C2 1_555 1_555
C3 C4 1_555 1_555

#END
