
#######################################################################
#
#                 Cambridge Crystallographic Data Centre
#                                CCDC 
#
#######################################################################
#
# If this CIF has been generated from an entry in the Cambridge 
# Structural Database, then it will include bibliographic, chemical, 
# crystal, experimental, refinement or atomic coordinate data resulting 
# from the CCDC's data processing and validation procedures.
#
#######################################################################

data_HEGNAJ
_chemical_formula_moiety         '(C4 H17 Ga2 N3 O10 P2)n'
_symmetry_cell_setting           rhombohedral
_symmetry_space_group_name_H-M   'R -3'
_symmetry_Int_Tables_number      148
_space_group_name_Hall           '-R 3'
loop_
_symmetry_equiv_pos_site_id
_symmetry_equiv_pos_as_xyz
1 x,y,z
2 -y,x-y,z
3 -x+y,-x,z
4 2/3+x,1/3+y,1/3+z
5 2/3-y,1/3+x-y,1/3+z
6 2/3-x+y,1/3-x,1/3+z
7 1/3+x,2/3+y,2/3+z
8 1/3-y,2/3+x-y,2/3+z
9 1/3-x+y,2/3-x,2/3+z
10 -x,-y,-z
11 y,-x+y,-z
12 x-y,x,-z
13 1/3-x,2/3-y,2/3-z
14 1/3+y,2/3-x+y,2/3-z
15 1/3+x-y,2/3+x,2/3-z
16 2/3-x,1/3-y,1/3-z
17 2/3+y,1/3-x+y,1/3-z
18 2/3+x-y,1/3+x,1/3-z
_cell_length_a                   23.7422(7)
_cell_length_b                   23.7422(7)
_cell_length_c                   13.4888(6)
_cell_angle_alpha                90
_cell_angle_beta                 90
_cell_angle_gamma                120.00
_cell_volume                     6584.85
loop_
_atom_site_label
_atom_site_type_symbol
_atom_site_fract_x
_atom_site_fract_y
_atom_site_fract_z
_atom_site_U_iso_or_equiv
_atom_site_thermal_displace_type
Ga1 Ga 0.36039(2) 0.09303(2) 0.11998(3) 0.0175 Uani
Ga2 Ga 0.34981(2) 0.24277(2) -0.08458(3) 0.0187 Uani
P1 P 0.41876(5) 0.23619(5) 0.11949(7) 0.0187 Uani
P2 P 0.32681(5) -0.01304(5) 0.27712(7) 0.0160 Uani
O1 O 0.36719(15) 0.21018(15) 0.0374(2) 0.0258 Uani
O2 O 0.42234(14) 0.17578(13) 0.1564(2) 0.0215 Uani
O3 O 0.39150(14) 0.25946(14) 0.2065(2) 0.0229 Uani
O4 O 0.48414(16) 0.28969(16) 0.0893(3) 0.0373 Uani
O5 O 0.37531(13) 0.04450(14) 0.2116(2) 0.0205 Uani
O6 O 0.36705(15) -0.04137(14) 0.3250(2) 0.0239 Uani
O7 O 0.27152(16) -0.06484(14) 0.2173(2) 0.0241 Uani
O8 O 0.30027(14) 0.01060(13) 0.3600(2) 0.0215 Uani
N1 N 0.4444(2) 0.27551(19) -0.1307(3) 0.0288 Uani
N2 N 0.3326(2) 0.15656(18) -0.1489(3) 0.0309 Uani
N3 N 0.25082(18) 0.18856(18) -0.0587(3) 0.0268 Uani
C1 C 0.4473(3) 0.2182(3) -0.1696(4) 0.0428 Uani
C2 C 0.3850(3) 0.1730(3) -0.2202(4) 0.0428 Uani
C3 C 0.2648(3) 0.1223(2) -0.1831(4) 0.0387 Uani
C4 C 0.2237(3) 0.1210(2) -0.0963(4) 0.0398 Uani
H1 H 0.4556 0.3050 -0.1798 0.0500 Uiso
H2 H 0.4725 0.2927 -0.0794 0.0500 Uiso
H3 H 0.3280 0.1260 -0.1061 0.0500 Uiso
H4 H 0.2354 0.2102 -0.0838 0.0500 Uiso
H5 H 0.2370 0.1820 0.0051 0.0500 Uiso
H6 H 0.4529 0.1935 -0.1109 0.0500 Uiso
H7 H 0.4840 0.2380 -0.2122 0.0500 Uiso
H8 H 0.3784 0.1939 -0.2764 0.0500 Uiso
H9 H 0.3899 0.1376 -0.2539 0.0500 Uiso
H10 H 0.2546 0.1478 -0.2357 0.0500 Uiso
H11 H 0.2581 0.0802 -0.2044 0.0500 Uiso
H12 H 0.1804 0.1073 -0.1259 0.0500 Uiso
H13 H 0.2280 0.0972 -0.0382 0.0500 Uiso
Ga1O Ga 0.30628(2) 0.24030(2) 0.21335(3) 0.0175 Uani
Ga1E Ga 0.39931(3) -0.02706(2) 0.45331(3) 0.0175 Uani
Ga2J Ga 0.24277(2) -0.10704(3) 0.08458(3) 0.0187 Uani
Ga2O Ga 0.31686(2) 0.09056(2) 0.41791(3) 0.0187 Uani
O3O O 0.27517(14) 0.07387(14) 0.1268(2) 0.0229 Uani
O6G O 0.37470(14) 0.07509(21) -0.0083(2) 0.0239 Uani
O7K O 0.33636(21) 0.27152(16) -0.2173(2) 0.0241 Uani
O8O O 0.36640(14) 0.32273(13) -0.0267(2) 0.0215 Uani
O9 O 0.5269(7) 0.3236(7) -0.3421(10) 0.0980 Uiso
O10 O 0.593(2) 0.314(2) 0.188(3) 0.3090 Uiso
loop_
_atom_site_aniso_label
_atom_site_aniso_U_11
_atom_site_aniso_U_22
_atom_site_aniso_U_33
_atom_site_aniso_U_23
_atom_site_aniso_U_13
_atom_site_aniso_U_12
Ga1 0.0202(2) 0.0181(2) 0.0117(2) 0.00058(15) -0.00158(15) 0.00781(18)
Ga2 0.0266(3) 0.0178(2) 0.0133(2) -0.00069(16) -0.00173(16) 0.01220(19)
P1 0.0182(5) 0.0163(5) 0.0181(5) 0.0016(4) 0.0002(4) 0.0060(4)
P2 0.0201(5) 0.0159(4) 0.0107(4) -0.0002(3) -0.0006(3) 0.0080(4)
O1 0.0339(17) 0.0241(15) 0.0162(13) 0.0020(11) -0.0051(12) 0.0122(13)
O2 0.0221(14) 0.0199(14) 0.0221(14) -0.0007(11) -0.0054(11) 0.0101(12)
O3 0.0217 0.0236 0.0223 -0.0034 -0.0032 0.0104
O4 0.0255(17) 0.0276(17) 0.047(2) 0.0083(15) 0.0088(15) 0.0045(14)
O5 0.0203(14) 0.0221(14) 0.0161(13) 0.0045(11) -0.0005(10) 0.0083(11)
O6 0.035 0.0278 0.0154 0.0013 -0.0013 0.0206
O7 0.0245 0.0229 0.015 -0.0049 -0.0002 0.0045
O8 0.0296 0.0194 0.0159 -0.0008 0.0041 0.0126
N1 0.035(2) 0.0271(19) 0.0285(19) 0.0053(15) 0.0049(16) 0.0187(17)
N2 0.051(2) 0.0253(19) 0.0220(18) -0.0026(14) -0.0065(17) 0.0233(18)
N3 0.0286(19) 0.0243(18) 0.0248(18) 0.0058(14) -0.0005(15) 0.0111(16)
C1 0.052(3) 0.047(3) 0.043(3) 0.000(2) 0.010(2) 0.035(3)
C2 0.071(4) 0.047(3) 0.027(2) -0.005(2) 0.005(2) 0.042(3)
C3 0.059(3) 0.027(2) 0.028(2) -0.0094(19) -0.017(2) 0.020(2)
C4 0.041(3) 0.029(2) 0.038(3) 0.001(2) -0.010(2) 0.009(2)
Ga1O 0.0202 0.0181 0.0117 0.00058 -0.00158 0.00781
Ga1E 0.02268 0.0202 0.0117 0.00158 0.00216 0.01239
Ga2J 0.0178 0.02 0.0133 -0.00104 0.00069 0.0056
Ga2O 0.0266 0.0178 0.0133 -0.00069 -0.00173 0.0122
O3O 0.0217 0.0236 0.0223 -0.0034 -0.0032 0.0104
O6G 0.0278 0.0216 0.0154 -0.0026 -0.0013 0.0072
O7K 0.0384 0.0245 0.015 0.0002 -0.0047 0.02
O8O 0.0296 0.0194 0.0159 -0.0008 0.0041 0.0126
loop_
_geom_bond_atom_site_label_1
_geom_bond_atom_site_label_2
_geom_bond_site_symmetry_1
_geom_bond_site_symmetry_2
Ga1 O2 1_555 1_555
Ga2 O1 1_555 1_555
P1 O1 1_555 1_555
P2 O5 1_555 1_555
O2 P1 1_555 1_555
O3 P1 1_555 1_555
O4 P1 1_555 1_555
O5 Ga1 1_555 1_555
O6 P2 1_555 1_555
O7 P2 1_555 1_555
O8 P2 1_555 1_555
N1 Ga2 1_555 1_555
N2 Ga2 1_555 1_555
N3 Ga2 1_555 1_555
C1 N1 1_555 1_555
C2 N2 1_555 1_555
C3 N2 1_555 1_555
C4 N3 1_555 1_555
H1 N1 1_555 1_555
H2 N1 1_555 1_555
H3 N2 1_555 1_555
H4 N3 1_555 1_555
H5 N3 1_555 1_555
H6 C1 1_555 1_555
H7 C1 1_555 1_555
H8 C2 1_555 1_555
H9 C2 1_555 1_555
H10 C3 1_555 1_555
H11 C3 1_555 1_555
H12 C4 1_555 1_555
H13 C4 1_555 1_555
Ga1O O3 1_555 1_555
Ga1E O6 1_555 1_555
Ga2J O7 1_555 1_555
Ga2O O8 1_555 1_555
O3O Ga1 1_555 1_555
O6G Ga1 1_555 1_555
O7K Ga2 1_555 1_555
O8O Ga2 1_555 1_555
C1 C2 1_555 1_555
C3 C4 1_555 1_555

#END
