
#######################################################################
#
#                 Cambridge Crystallographic Data Centre
#                                CCDC 
#
#######################################################################
#
# If this CIF has been generated from an entry in the Cambridge 
# Structural Database, then it will include bibliographic, chemical, 
# crystal, experimental, refinement or atomic coordinate data resulting 
# from the CCDC's data processing and validation procedures.
#
#######################################################################

data_HEGNEN
_chemical_formula_moiety         '(C4 H17 Ga2 N3 O10 P2)n'
_symmetry_cell_setting           rhombohedral
_symmetry_space_group_name_H-M   'R -3'
_symmetry_Int_Tables_number      148
_space_group_name_Hall           '-R 3'
loop_
_symmetry_equiv_pos_site_id
_symmetry_equiv_pos_as_xyz
1 x,y,z
2 -y,x-y,z
3 -x+y,-x,z
4 2/3+x,1/3+y,1/3+z
5 2/3-y,1/3+x-y,1/3+z
6 2/3-x+y,1/3-x,1/3+z
7 1/3+x,2/3+y,2/3+z
8 1/3-y,2/3+x-y,2/3+z
9 1/3-x+y,2/3-x,2/3+z
10 -x,-y,-z
11 y,-x+y,-z
12 x-y,x,-z
13 1/3-x,2/3-y,2/3-z
14 1/3+y,2/3-x+y,2/3-z
15 1/3+x-y,2/3+x,2/3-z
16 2/3-x,1/3-y,1/3-z
17 2/3+y,1/3-x+y,1/3-z
18 2/3+x-y,1/3+x,1/3-z
_cell_length_a                   23.6965(13)
_cell_length_b                   23.6965(13)
_cell_length_c                   13.5437(10)
_cell_angle_alpha                90
_cell_angle_beta                 90
_cell_angle_gamma                120.00
_cell_volume                     6586.22
loop_
_atom_site_label
_atom_site_type_symbol
_atom_site_fract_x
_atom_site_fract_y
_atom_site_fract_z
_atom_site_U_iso_or_equiv
_atom_site_thermal_displace_type
Ga1 Ga 0.36123(3) 0.09308(3) 0.11893(5) 0.0242 Uani
Ga2 Ga 0.34990(3) 0.24363(3) -0.08332(5) 0.0253 Uani
P1 P 0.41936(8) 0.23695(8) 0.12064(12) 0.0247 Uani
P2 P 0.32701(8) -0.01339(8) 0.27598(11) 0.0212 Uani
O1 O 0.3689(2) 0.2118(2) 0.0380(3) 0.0306 Uani
O2 O 0.4234(2) 0.1768(2) 0.1568(3) 0.0278 Uani
O3 O 0.3916(2) 0.2598(2) 0.2071(3) 0.0280 Uani
O4 O 0.4847(2) 0.2908(2) 0.0914(4) 0.0483 Uani
O5 O 0.3762(2) 0.04500(19) 0.2127(3) 0.0261 Uani
O6 O 0.3661(2) -0.0429(2) 0.3228(3) 0.0314 Uani
O7 O 0.2716(2) -0.0639(2) 0.2156(3) 0.0327 Uani
O8 O 0.3003(2) 0.00970(19) 0.3593(3) 0.0270 Uani
N1 N 0.4444(3) 0.2777(3) -0.1306(4) 0.0348 Uani
N2 N 0.3335(3) 0.1568(3) -0.1473(4) 0.0309 Uani
N3 N 0.2514(3) 0.1888(3) -0.0574(4) 0.0322 Uani
C1 C 0.4483(4) 0.2205(4) -0.1720(6) 0.0478 Uani
C2 C 0.3852(4) 0.1744(4) -0.2205(5) 0.0462 Uani
C3 C 0.2661(4) 0.1236(3) -0.1814(5) 0.0421 Uani
C4 C 0.2247(4) 0.1208(3) -0.0951(5) 0.0449 Uani
H1 H 0.4762 0.2913 -0.0796 0.0500 Uiso
H2 H 0.4576 0.3124 -0.1750 0.0500 Uiso
H3 H 0.2247 0.2060 -0.0906 0.0500 Uiso
H4 H 0.2487 0.1830 0.0142 0.0500 Uiso
H5 H 0.4512 0.1971 -0.1065 0.0500 Uiso
H6 H 0.5012 0.2532 -0.2246 0.0500 Uiso
H7 H 0.3889 0.1312 -0.2366 0.0500 Uiso
H8 H 0.3799 0.2090 -0.2757 0.0500 Uiso
H9 H 0.2642 0.1486 -0.2487 0.0500 Uiso
H10 H 0.2424 0.0756 -0.2104 0.0500 Uiso
H11 H 0.1746 0.0978 -0.1212 0.0500 Uiso
H12 H 0.2229 0.0942 -0.0268 0.0500 Uiso
Ga1O Ga 0.30544(3) 0.24025(3) 0.21440(5) 0.0242 Uani
Ga1E Ga 0.39852(4) -0.02790(3) 0.45226(5) 0.0242 Uani
Ga2J Ga 0.24363(3) -0.10627(4) 0.08332(5) 0.0253 Uani
Ga2O Ga 0.31677(3) 0.08970(3) 0.41665(5) 0.0253 Uani
O3O O 0.2751(2) 0.0735(2) 0.1262(3) 0.0280 Uani
O6G O 0.3762(2) 0.0757(3) -0.0105(3) 0.0314 Uani
O7K O 0.3355(3) 0.2716(2) -0.2156(3) 0.0327 Uani
O8O O 0.3664(2) 0.32363(19) -0.0260(3) 0.0270 Uani
O9 O 0.5421(8) 0.2008(9) 0.0100(14) 0.1370 Uiso
O10 O 0.0561(17) 0.0724(17) -0.153(2) 0.2990 Uiso
loop_
_atom_site_aniso_label
_atom_site_aniso_U_11
_atom_site_aniso_U_22
_atom_site_aniso_U_33
_atom_site_aniso_U_23
_atom_site_aniso_U_13
_atom_site_aniso_U_12
Ga1 0.0277(4) 0.0268(4) 0.0153(4) 0.0004(3) -0.0028(3) 0.0115(4)
Ga2 0.0353(5) 0.0257(4) 0.0165(4) -0.0004(3) -0.0014(3) 0.0164(4)
P1 0.0266(10) 0.0222(9) 0.0224(9) 0.0013(7) 0.0002(7) 0.0100(8)
P2 0.0252(9) 0.0230(9) 0.0144(8) 0.0000(6) -0.0003(7) 0.0112(8)
O1 0.041(3) 0.032(3) 0.017(2) 0.0018(19) -0.008(2) 0.017(2)
O2 0.030(3) 0.030(3) 0.026(2) -0.002(2) -0.005(2) 0.017(2)
O3 0.031 0.03 0.02 -0.006 -0.003 0.013
O4 0.034(3) 0.041(3) 0.057(4) 0.008(3) 0.008(3) 0.009(3)
O5 0.028(2) 0.027(2) 0.021(2) 0.0033(19) 0.0000(19) 0.012(2)
O6 0.042 0.033 0.029 0.002 0.001 0.026
O7 0.034 0.033 0.014 -0.006 0 0.004
O8 0.034 0.026 0.017 -0.0019 0.0038 0.012
N1 0.040(4) 0.026(3) 0.039(4) 0.007(3) 0.003(3) 0.017(3)
N2 0.043(4) 0.030(3) 0.022(3) -0.005(2) -0.005(3) 0.020(3)
N3 0.038(3) 0.034(3) 0.026(3) 0.004(3) -0.007(3) 0.019(3)
C1 0.053(5) 0.046(5) 0.054(5) -0.004(4) 0.005(4) 0.032(4)
C2 0.075(6) 0.044(5) 0.036(4) -0.008(4) -0.001(4) 0.042(5)
C3 0.058(5) 0.033(4) 0.029(4) -0.009(3) -0.012(4) 0.018(4)
C4 0.053(5) 0.034(4) 0.040(5) -0.003(4) -0.014(4) 0.016(4)
Ga1O 0.0277 0.0268 0.0153 0.0004 -0.0028 0.0115
Ga1E 0.0315 0.0277 0.0153 0.0028 0.0032 0.0162
Ga2J 0.0257 0.0282 0.0165 -0.001 0.0004 0.0093
Ga2O 0.0353 0.0257 0.0165 -0.0004 -0.0014 0.0164
O3O 0.031 0.03 0.02 -0.006 -0.003 0.013
O6G 0.033 0.023 0.029 -0.001 -0.002 0.007
O7K 0.059 0.034 0.014 0 -0.006 0.03
O8O 0.034 0.026 0.017 -0.0019 0.0038 0.012
loop_
_geom_bond_atom_site_label_1
_geom_bond_atom_site_label_2
_geom_bond_site_symmetry_1
_geom_bond_site_symmetry_2
Ga1 O2 1_555 1_555
Ga2 O1 1_555 1_555
P1 O1 1_555 1_555
P2 O5 1_555 1_555
O2 P1 1_555 1_555
O3 P1 1_555 1_555
O4 P1 1_555 1_555
O5 Ga1 1_555 1_555
O6 P2 1_555 1_555
O7 P2 1_555 1_555
O8 P2 1_555 1_555
N1 Ga2 1_555 1_555
N2 Ga2 1_555 1_555
N3 Ga2 1_555 1_555
C1 N1 1_555 1_555
C2 N2 1_555 1_555
C3 N2 1_555 1_555
C4 N3 1_555 1_555
H1 N1 1_555 1_555
H2 N1 1_555 1_555
H3 N3 1_555 1_555
H4 N3 1_555 1_555
H5 C1 1_555 1_555
H6 C1 1_555 1_555
H7 C2 1_555 1_555
H8 C2 1_555 1_555
H9 C3 1_555 1_555
H10 C3 1_555 1_555
H11 C4 1_555 1_555
H12 C4 1_555 1_555
Ga1O O3 1_555 1_555
Ga1E O6 1_555 1_555
Ga2J O7 1_555 1_555
Ga2O O8 1_555 1_555
O3O Ga1 1_555 1_555
O6G Ga1 1_555 1_555
O7K Ga2 1_555 1_555
O8O Ga2 1_555 1_555
C1 C2 1_555 1_555
C3 C4 1_555 1_555

#END
