
#######################################################################
#
#                 Cambridge Crystallographic Data Centre
#                                CCDC 
#
#######################################################################
#
# If this CIF has been generated from an entry in the Cambridge 
# Structural Database, then it will include bibliographic, chemical, 
# crystal, experimental, refinement or atomic coordinate data resulting 
# from the CCDC's data processing and validation procedures.
#
#######################################################################

data_HEGPAL
_chemical_formula_moiety         '(C4 H17 Ga2 N3 O10 P2)n'
_symmetry_cell_setting           rhombohedral
_symmetry_space_group_name_H-M   'R -3'
_symmetry_Int_Tables_number      148
_space_group_name_Hall           '-R 3'
loop_
_symmetry_equiv_pos_site_id
_symmetry_equiv_pos_as_xyz
1 x,y,z
2 -y,x-y,z
3 -x+y,-x,z
4 2/3+x,1/3+y,1/3+z
5 2/3-y,1/3+x-y,1/3+z
6 2/3-x+y,1/3-x,1/3+z
7 1/3+x,2/3+y,2/3+z
8 1/3-y,2/3+x-y,2/3+z
9 1/3-x+y,2/3-x,2/3+z
10 -x,-y,-z
11 y,-x+y,-z
12 x-y,x,-z
13 1/3-x,2/3-y,2/3-z
14 1/3+y,2/3-x+y,2/3-z
15 1/3+x-y,2/3+x,2/3-z
16 2/3-x,1/3-y,1/3-z
17 2/3+y,1/3-x+y,1/3-z
18 2/3+x-y,1/3+x,1/3-z
_cell_length_a                   23.7400(16)
_cell_length_b                   23.7400(16)
_cell_length_c                   13.4851(13)
_cell_angle_alpha                90
_cell_angle_beta                 90
_cell_angle_gamma                120.00
_cell_volume                     6581.82
loop_
_atom_site_label
_atom_site_type_symbol
_atom_site_fract_x
_atom_site_fract_y
_atom_site_fract_z
_atom_site_U_iso_or_equiv
_atom_site_thermal_displace_type
Ga1 Ga 0.36039(2) 0.09308(2) 0.11998(3) 0.0187 Uani
Ga2 Ga 0.34972(2) 0.24283(2) -0.08456(3) 0.0199 Uani
P1 P 0.41876(5) 0.23621(5) 0.11950(7) 0.0201 Uani
P2 P 0.32680(5) -0.01303(4) 0.27725(6) 0.0172 Uani
O1 O 0.36713(14) 0.21028(13) 0.03778(18) 0.0260 Uani
O2 O 0.42224(13) 0.17569(13) 0.15628(19) 0.0236 Uani
O3 O 0.39144(13) 0.25911(13) 0.2068(2) 0.0246 Uani
O4 O 0.48401(15) 0.28968(15) 0.0892(2) 0.0384 Uani
O5 O 0.37523(13) 0.04469(13) 0.21210(18) 0.0212 Uani
O6 O 0.36709(13) -0.04118(13) 0.32526(19) 0.0250 Uani
O7 O 0.27161(15) -0.06471(13) 0.21766(18) 0.0258 Uani
O8 O 0.30032(13) 0.01065(12) 0.36039(18) 0.0226 Uani
N1 N 0.44436(18) 0.27577(18) -0.1307(3) 0.0297 Uani
N2 N 0.33240(19) 0.15663(16) -0.1487(3) 0.0302 Uani
N3 N 0.25099(17) 0.18888(17) -0.0588(2) 0.0272 Uani
C1 C 0.4473(3) 0.2186(3) -0.1689(4) 0.0432 Uani
C2 C 0.3849(3) 0.1730(3) -0.2203(3) 0.0443 Uani
C3 C 0.2650(3) 0.1230(2) -0.1832(3) 0.0396 Uani
C4 C 0.2237(3) 0.1214(2) -0.0971(4) 0.0421 Uani
H1 H 0.4511 0.2986 -0.1867 0.0500 Uiso
H2 H 0.4734 0.2908 -0.0783 0.0500 Uiso
H3 H 0.3328 0.1273 -0.1045 0.0500 Uiso
H4 H 0.2461 0.1910 0.0077 0.0500 Uiso
H5 H 0.2299 0.2034 -0.0917 0.0500 Uiso
H6 H 0.4537 0.1933 -0.1095 0.0500 Uiso
H7 H 0.4732 0.2349 -0.2142 0.0500 Uiso
H8 H 0.3828 0.1986 -0.2757 0.0500 Uiso
H9 H 0.3775 0.1286 -0.2437 0.0500 Uiso
H10 H 0.2608 0.1478 -0.2428 0.0500 Uiso
H11 H 0.2473 0.0772 -0.1955 0.0500 Uiso
H12 H 0.2307 0.1001 -0.0430 0.0500 Uiso
H13 H 0.1758 0.1001 -0.1321 0.0500 Uiso
Ga1O Ga 0.30628(2) 0.24025(2) 0.21335(3) 0.0187 Uani
Ga1E Ga 0.39936(3) -0.02706(2) 0.45331(3) 0.0187 Uani
Ga2J Ga 0.24283(2) -0.10689(3) 0.08456(3) 0.0199 Uani
Ga2O Ga 0.31695(2) 0.09050(2) 0.41789(3) 0.0199 Uani
O3O O 0.27523(13) 0.07422(13) 0.1265(2) 0.0246 Uani
O6G O 0.37451(13) 0.07494(18) -0.00807(19) 0.0250 Uani
O7K O 0.33632(20) 0.27161(15) -0.21766(18) 0.0258 Uani
O8O O 0.36635(13) 0.32268(12) -0.02706(18) 0.0226 Uani
O9 O 0.5372(6) 0.1948(6) 0.0085(8) 0.1010 Uiso
O10 O 0.5940(18) 0.3154(17) 0.184(2) 0.3200 Uiso
loop_
_atom_site_aniso_label
_atom_site_aniso_U_11
_atom_site_aniso_U_22
_atom_site_aniso_U_33
_atom_site_aniso_U_23
_atom_site_aniso_U_13
_atom_site_aniso_U_12
Ga1 0.0214(2) 0.0196(2) 0.0126(2) 0.00048(15) -0.00161(15) 0.00839(18)
Ga2 0.0275(2) 0.0193(2) 0.0142(2) -0.00022(15) -0.00150(16) 0.01271(19)
P1 0.0198(5) 0.0179(5) 0.0191(5) 0.0019(4) 0.0004(4) 0.0069(4)
P2 0.0214(5) 0.0177(5) 0.0113(4) -0.0007(3) -0.0011(3) 0.0088(4)
O1 0.0331(16) 0.0247(14) 0.0160(12) 0.0035(11) -0.0050(11) 0.0112(13)
O2 0.0248(14) 0.0216(14) 0.0240(13) -0.0012(11) -0.0051(11) 0.0113(12)
O3 0.0216 0.026 0.0239 -0.0049 -0.0038 0.0101
O4 0.0270(16) 0.0287(16) 0.0470(19) 0.0078(14) 0.0085(14) 0.0045(13)
O5 0.0221(13) 0.0226(13) 0.0171(12) 0.0047(10) 0.0001(10) 0.0098(11)
O6 0.0375 0.0285 0.0155 0.0012 -0.0002 0.0214
O7 0.0271 0.0259 0.0141 -0.0053 -0.0016 0.0056
O8 0.0297 0.0203 0.017 -0.0015 0.003 0.012
N1 0.035(2) 0.0315(19) 0.0279(17) 0.0039(15) 0.0033(15) 0.0206(17)
N2 0.048(2) 0.0245(18) 0.0222(17) -0.0033(14) -0.0062(16) 0.0211(17)
N3 0.0279(18) 0.0261(18) 0.0240(17) 0.0033(14) -0.0044(14) 0.0109(15)
C1 0.051(3) 0.047(3) 0.043(3) 0.001(2) 0.014(2) 0.033(3)
C2 0.074(4) 0.046(3) 0.029(2) -0.003(2) 0.006(2) 0.042(3)
C3 0.055(3) 0.026(2) 0.032(2) -0.0104(19) -0.014(2) 0.016(2)
C4 0.045(3) 0.028(2) 0.041(3) 0.001(2) -0.013(2) 0.009(2)
Ga1O 0.0214 0.0196 0.0126 0.00048 -0.00161 0.00839
Ga1E 0.02422 0.0214 0.0126 0.00161 0.00209 0.01301
Ga2J 0.0193 0.02138 0.0142 -0.00128 0.00022 0.00659
Ga2O 0.0275 0.0193 0.0142 -0.00022 -0.0015 0.01271
O3O 0.0216 0.026 0.0239 -0.0049 -0.0038 0.0101
O6G 0.0285 0.0232 0.0155 -0.0014 -0.0012 0.0071
O7K 0.0418 0.0271 0.0141 0.0016 -0.0037 0.0215
O8O 0.0297 0.0203 0.017 -0.0015 0.003 0.012
loop_
_geom_bond_atom_site_label_1
_geom_bond_atom_site_label_2
_geom_bond_site_symmetry_1
_geom_bond_site_symmetry_2
Ga1 O2 1_555 1_555
Ga2 O1 1_555 1_555
P1 O1 1_555 1_555
P2 O5 1_555 1_555
O2 P1 1_555 1_555
O3 P1 1_555 1_555
O4 P1 1_555 1_555
O5 Ga1 1_555 1_555
O6 P2 1_555 1_555
O7 P2 1_555 1_555
O8 P2 1_555 1_555
N1 Ga2 1_555 1_555
N2 Ga2 1_555 1_555
N3 Ga2 1_555 1_555
C1 N1 1_555 1_555
C2 N2 1_555 1_555
C3 N2 1_555 1_555
C4 N3 1_555 1_555
H1 N1 1_555 1_555
H2 N1 1_555 1_555
H3 N2 1_555 1_555
H4 N3 1_555 1_555
H5 N3 1_555 1_555
H6 C1 1_555 1_555
H7 C1 1_555 1_555
H8 C2 1_555 1_555
H9 C2 1_555 1_555
H10 C3 1_555 1_555
H11 C3 1_555 1_555
H12 C4 1_555 1_555
H13 C4 1_555 1_555
Ga1O O3 1_555 1_555
Ga1E O6 1_555 1_555
Ga2J O7 1_555 1_555
Ga2O O8 1_555 1_555
O3O Ga1 1_555 1_555
O6G Ga1 1_555 1_555
O7K Ga2 1_555 1_555
O8O Ga2 1_555 1_555
C1 C2 1_555 1_555
C3 C4 1_555 1_555

#END
