
#######################################################################
#
#                 Cambridge Crystallographic Data Centre
#                                CCDC 
#
#######################################################################
#
# If this CIF has been generated from an entry in the Cambridge 
# Structural Database, then it will include bibliographic, chemical, 
# crystal, experimental, refinement or atomic coordinate data resulting 
# from the CCDC's data processing and validation procedures.
#
#######################################################################

data_RIPKEH
_chemical_formula_moiety         'C34 H22 Cu8 I8 N6'
_symmetry_cell_setting           orthorhombic
_symmetry_space_group_name_H-M   'I b a m'
_symmetry_Int_Tables_number      72
_space_group_name_Hall           '-I 2 2c'
loop_
_symmetry_equiv_pos_site_id
_symmetry_equiv_pos_as_xyz
1 x,y,z
2 1/2+x,1/2+y,1/2+z
3 -x,-y,z
4 1/2-x,1/2+y,-z
5 1/2+x,1/2-y,-z
6 1/2-x,1/2-y,1/2+z
7 -x,y,1/2-z
8 x,-y,1/2-z
9 -x,-y,-z
10 1/2-x,1/2-y,1/2-z
11 x,y,-z
12 1/2+x,1/2-y,z
13 1/2-x,1/2+y,z
14 1/2+x,1/2+y,1/2-z
15 x,-y,1/2+z
16 -x,y,1/2+z
_cell_length_a                   18.473(4)
_cell_length_b                   37.249(7)
_cell_length_c                   15.502(3)
_cell_angle_alpha                90
_cell_angle_beta                 90
_cell_angle_gamma                90
_cell_volume                     10666.9
loop_
_atom_site_label
_atom_site_type_symbol
_atom_site_fract_x
_atom_site_fract_y
_atom_site_fract_z
Cu1 Cu 0.28674(17) 0.13092(7) 0.5000
Cu2 Cu 0.41243(15) 0.16261(8) 0.5000
Cu3 Cu 0.30150(12) 0.19477(6) 0.41509(13)
Cu4 Cu 0.18123(17) -0.04406(8) 0.5000
Cu5 Cu 0.11732(12) -0.10061(7) 0.58556(16)
Cu6 Cu 0.23907(14) -0.10792(8) 0.5000
I1 I 0.36221(6) 0.13505(3) 0.34871(7)
I2 I 0.17698(8) 0.17679(4) 0.5000
I3 I 0.40540(8) 0.23321(4) 0.5000
I4 I 0.03986(10) -0.04844(6) 0.5000
I5 I 0.23598(6) -0.06912(3) 0.65117(7)
I6 I 0.14263(8) -0.16152(4) 0.5000
N1 N 0.2508(10) 0.0782(5) 0.5000
N2 N 0.2110(9) 0.0100(4) 0.5000
N3 N 0.5214(10) 0.1486(5) 0.5000
N4 N 0.3444(9) -0.1256(4) 0.5000
N5 N 0.2695(8) 0.2283(4) 0.3136(9)
N6 N 0.0456(8) -0.1064(5) 0.6907(12)
C1 C 0.2065(10) 0.0696(4) 0.4231(10)
H1 H 0.2344 0.0745 0.3714
H2 H 0.1640 0.0849 0.4222
C2 C 0.1823(9) 0.0294(5) 0.4230(12)
H3 H 0.1299 0.0282 0.4229
H4 H 0.1998 0.0178 0.3710
C3 C 0.3138(13) 0.0533(6) 0.5000
H5 H 0.3433 0.0578 0.5506
C4 C 0.2894(9) 0.0129(5) 0.5000
H6 H 0.3087 0.0010 0.4494
C5 C 0.5276(11) 0.1066(7) 0.5000
H7 H 0.5040 0.0968 0.5507
C6 C 0.3931(11) -0.0961(6) 0.5000
H8 H 0.3835 -0.0815 0.4495
C7 C 0.5600(8) 0.1620(5) 0.4262(11)
H9 H 0.5597 0.1880 0.4277
H10 H 0.5349 0.1544 0.3742
C8 C 0.3603(8) -0.1487(5) 0.5782(10)
H11 H 0.3529 -0.1349 0.6305
H12 H 0.3278 -0.1692 0.5793
C9 C 0.301(2) 0.2636(10) 0.318(3)
C10 C 0.240(2) 0.2625(10) 0.344(2)
C11 C 0.186(2) 0.2394(12) 0.312(3)
C12 C 0.222(2) 0.2084(12) 0.254(3)
C13 C 0.279(2) 0.2140(11) 0.2305(19)
C14 C 0.343(2) 0.2369(10) 0.2558(19)
C15 C 0.0299(12) -0.0697(7) 0.7226(15)
H13 H 0.0717 -0.0605 0.7533
H14 H 0.0205 -0.0539 0.6740
C16 C 0.0745(10) -0.1268(6) 0.7640(13)
H15 H 0.0801 -0.1519 0.7485
H16 H 0.1214 -0.1175 0.7808
C17 C -0.0229(9) -0.1232(8) 0.6646(14)
H17 H -0.0448 -0.1089 0.6193
H18 H -0.0127 -0.1468 0.6411
Cu3J Cu 0.30150(12) 0.19477(6) 0.58491(13)
Cu5J Cu 0.11732(12) -0.10061(7) 0.41444(16)
I1J I 0.36221(6) 0.13505(3) 0.65129(7)
I5J I 0.23598(6) -0.06912(3) 0.34883(7)
C1J C 0.2065(10) 0.0696(4) 0.5769(10)
C2J C 0.1823(9) 0.0294(5) 0.5770(12)
H5J H 0.3433 0.0578 0.4494
H6J H 0.3087 0.0010 0.5506
C5H C 0.4724(11) -0.1066(7) 0.5000
H7J H 0.5040 0.0968 0.4493
C6H C 0.6069(11) 0.0961(6) 0.5000
H8J H 0.3835 -0.0815 0.5505
C7J C 0.5600(8) 0.1620(5) 0.5738(11)
C7H C 0.4400(8) -0.1620(5) 0.5738(11)
C8J C 0.3603(8) -0.1487(5) 0.4218(10)
C8H C 0.6397(8) 0.1487(5) 0.4218(10)
C9I C 0.199(2) 0.2364(10) 0.182(3)
C10I C 0.260(2) 0.2375(10) 0.156(2)
C11I C 0.314(2) 0.2606(12) 0.188(3)
C12I C 0.278(2) 0.2916(12) 0.246(3)
C13I C 0.221(2) 0.2860(11) 0.2695(19)
C14I C 0.157(2) 0.2631(10) 0.2442(19)
C15F C -0.0299(12) -0.0697(7) 0.7774(15)
C16F C -0.0745(10) -0.1268(6) 0.7360(13)
C17F C 0.0229(9) -0.1232(8) 0.8354(14)
loop_
_geom_bond_atom_site_label_1
_geom_bond_atom_site_label_2
_geom_bond_site_symmetry_1
_geom_bond_site_symmetry_2
Cu1 Cu2 1_555 1_555
Cu2 Cu3 1_555 1_555
Cu3 Cu1 1_555 1_555
Cu4 Cu5 1_555 1_555
Cu5 Cu6 1_555 1_555
Cu6 Cu4 1_555 1_555
I1 Cu1 1_555 1_555
I2 Cu1 1_555 1_555
I3 Cu2 1_555 1_555
I4 Cu4 1_555 1_555
I5 Cu4 1_555 1_555
I6 Cu5 1_555 1_555
N1 Cu1 1_555 1_555
N2 Cu4 1_555 1_555
N3 Cu2 1_555 1_555
N4 Cu6 1_555 1_555
N5 Cu3 1_555 1_555
N6 Cu5 1_555 1_555
C1 N1 1_555 1_555
H1 C1 1_555 1_555
H2 C1 1_555 1_555
C2 N2 1_555 1_555
H3 C2 1_555 1_555
H4 C2 1_555 1_555
C3 N1 1_555 1_555
H5 C3 1_555 1_555
C4 N2 1_555 1_555
H6 C4 1_555 1_555
C5 N3 1_555 1_555
H7 C5 1_555 1_555
C6 N4 1_555 1_555
H8 C6 1_555 1_555
C7 N3 1_555 1_555
H9 C7 1_555 1_555
H10 C7 1_555 1_555
C8 N4 1_555 1_555
H11 C8 1_555 1_555
H12 C8 1_555 1_555
C9 N5 1_555 1_555
C10 N5 1_555 1_555
C11 N5 1_555 1_555
C12 N5 1_555 1_555
C13 N5 1_555 1_555
C14 N5 1_555 1_555
C15 N6 1_555 1_555
H13 C15 1_555 1_555
H14 C15 1_555 1_555
C16 N6 1_555 1_555
H15 C16 1_555 1_555
H16 C16 1_555 1_555
C17 N6 1_555 1_555
H17 C17 1_555 1_555
H18 C17 1_555 1_555
Cu3J Cu1 1_555 1_555
Cu5J Cu4 1_555 1_555
I1J Cu1 1_555 1_555
I5J Cu4 1_555 1_555
C1J N1 1_555 1_555
C2J N2 1_555 1_555
H5J C3 1_555 1_555
H6J C4 1_555 1_555
C5H C6 1_555 1_555
H7J C5 1_555 1_555
C6H C5 1_555 1_555
H8J C6 1_555 1_555
C7J N3 1_555 1_555
C7H C8 1_555 1_555
C8J N4 1_555 1_555
C8H C7 1_555 1_555
C9I C12 1_555 1_555
C10I C13 1_555 1_555
C11I C14 1_555 1_555
C12I C9 1_555 1_555
C13I C10 1_555 1_555
C14I C11 1_555 1_555
C15F C15 1_555 1_555
C16F C17 1_555 1_555
C17F C16 1_555 1_555
Cu2 I1 1_555 1_555
Cu2 Cu3J 1_555 1_555
Cu2 I1J 1_555 1_555
Cu3 I1 1_555 1_555
Cu3 I2 1_555 1_555
Cu3 I3 1_555 1_555
Cu3 Cu3J 1_555 1_555
Cu5 I4 1_555 1_555
Cu5 I5 1_555 1_555
Cu5 Cu5J 1_555 1_555
Cu6 I5 1_555 1_555
Cu6 I6 1_555 1_555
Cu6 Cu5J 1_555 1_555
Cu6 I5J 1_555 1_555
I2 Cu3J 1_555 1_555
I3 Cu3J 1_555 1_555
I4 Cu5J 1_555 1_555
I6 Cu5J 1_555 1_555
C1 C2 1_555 1_555
C3 C4 1_555 1_555
C9 C10 1_555 1_555
C9 C14 1_555 1_555
C10 C11 1_555 1_555
C11 C12 1_555 1_555
C12 C13 1_555 1_555
C13 C14 1_555 1_555
Cu3J I1J 1_555 1_555
Cu5J I5J 1_555 1_555
C1J C2J 1_555 1_555
C9I C10I 1_555 1_555
C9I C14I 1_555 1_555
C10I C11I 1_555 1_555
C11I C12I 1_555 1_555
C12I C13I 1_555 1_555
C13I C14I 1_555 1_555

#END
