
#######################################################################
#
#                 Cambridge Crystallographic Data Centre
#                                CCDC 
#
#######################################################################
#
# If this CIF has been generated from an entry in the Cambridge 
# Structural Database, then it will include bibliographic, chemical, 
# crystal, experimental, refinement or atomic coordinate data resulting 
# from the CCDC's data processing and validation procedures.
#
#######################################################################

data_WOLMUG
_chemical_formula_moiety         '(C46 H42 Ag4 N12 O12 S4)n'
_symmetry_cell_setting           monoclinic
_symmetry_space_group_name_H-M   'P 21/c'
_symmetry_Int_Tables_number      14
_space_group_name_Hall           '-P 2ybc'
loop_
_symmetry_equiv_pos_site_id
_symmetry_equiv_pos_as_xyz
1 x,y,z
2 -x,1/2+y,1/2-z
3 -x,-y,-z
4 x,1/2-y,1/2+z
_cell_length_a                   19.3101(19)
_cell_length_b                   17.3714(15)
_cell_length_c                   18.1903(15)
_cell_angle_alpha                90
_cell_angle_beta                 99.346(5)
_cell_angle_gamma                90
_cell_volume                     6020.82
loop_
_atom_site_label
_atom_site_type_symbol
_atom_site_fract_x
_atom_site_fract_y
_atom_site_fract_z
Ag1 Ag 0.25729(4) 0.13552(5) 0.25530(4)
Ag2 Ag 0.38938(4) 0.02106(7) 0.34088(5)
Ag3 Ag 0.76136(5) 0.07180(6) -0.24021(5)
Ag4 Ag 0.89326(4) -0.05295(7) -0.15644(5)
S1 S 0.3638(2) 0.2431(2) 0.4052(3)
S2 S 0.4034(2) -0.1597(2) 0.2584(2)
S3 S 0.9337(2) 0.1335(3) -0.2119(3)
N1 N 0.3449(4) 0.1168(4) 0.1935(4)
N2 N 0.3944(4) 0.0690(5) 0.2236(4)
N3 N 0.8043(5) -0.0224(6) -0.0959(5)
N4 N 0.7558(4) 0.0291(5) -0.1243(4)
N5 N -0.2955(4) 0.0021(5) 0.6044(4)
N6 N -0.2390(4) 0.0412(4) 0.6393(4)
N7 N 0.1661(4) 0.1255(5) 0.3143(4)
N8 N 0.1101(4) 0.0878(5) 0.2795(4)
N9 N 0.4955(5) 0.0714(8) 0.4022(6)
N10 N 0.5055(7) 0.0948(8) 0.4712(7)
N11 N 0.9984(5) 0.3930(7) 0.6060(6)
N12 N 0.9692(10) 0.4027(11) 0.5354(9)
C1 C 0.3525(5) 0.1505(6) 0.1329(5)
H1 H 0.3176 0.1858 0.1128
C2 C 0.4086(5) 0.1392(6) 0.0939(6)
H2 H 0.4105 0.1650 0.0489
C3 C 0.4600(5) 0.0899(6) 0.1234(5)
C4 C 0.4502(4) 0.0547(6) 0.1895(5)
H3 H 0.4841 0.0193 0.2115
C5 C 0.7995(6) -0.0554(12) -0.0307(6)
H4 H 0.8333 -0.0920 -0.0109
C6 C 0.7455(6) -0.0369(10) 0.0087(6)
H5 H 0.7440 -0.0597 0.0553
C7 C 0.6948(5) 0.0145(7) -0.0206(5)
C8 C 0.7032(5) 0.0449(6) -0.0888(5)
H6 H 0.6688 0.0794 -0.1116
C9 C 0.5203(5) 0.0723(6) 0.0877(5)
C10 C 0.5529(5) 0.0017(6) 0.0983(5)
H7 H 0.5363 -0.0349 0.1294
C11 C 0.6103(5) -0.0162(6) 0.0636(6)
H8 H 0.6327 -0.0641 0.0727
C12 C 0.6342(5) 0.0347(6) 0.0167(5)
C13 C 0.5993(6) 0.1054(6) 0.0039(7)
H9 H 0.6144 0.1412 -0.0289
C14 C 0.5446(6) 0.1225(6) 0.0381(7)
H10 H 0.5219 0.1702 0.0281
C15 C -0.2966(5) -0.0179(7) 0.5337(5)
H11 H -0.3370 -0.0423 0.5084
C16 C -0.2419(5) -0.0048(7) 0.4958(5)
H12 H -0.2439 -0.0224 0.4466
C17 C -0.1841(5) 0.0346(5) 0.5310(5)
C18 C -0.1853(5) 0.0553(6) 0.6047(6)
H13 H -0.1459 0.0805 0.6312
C19 C 0.1651(5) 0.1536(6) 0.3796(6)
H14 H 0.2040 0.1824 0.4022
C20 C 0.1088(6) 0.1435(7) 0.4191(6)
H15 H 0.1106 0.1638 0.4673
C21 C 0.0522(5) 0.1040(6) 0.3859(5)
C22 C 0.0550(5) 0.0772(6) 0.3133(5)
H16 H 0.0160 0.0506 0.2877
C23 C -0.1226(4) 0.0514(5) 0.4930(5)
C24 C -0.1061(5) 0.0043(6) 0.4384(5)
H17 H -0.1337 -0.0395 0.4245
C25 C -0.0493(5) 0.0202(6) 0.4032(5)
H18 H -0.0373 -0.0137 0.3671
C26 C -0.0095(5) 0.0874(6) 0.4218(5)
C27 C -0.0240(5) 0.1344(6) 0.4793(6)
H19 H 0.0041 0.1777 0.4940
C28 C -0.0811(5) 0.1164(6) 0.5148(6)
H20 H -0.0916 0.1479 0.5535
C29 C 0.5457(6) 0.0743(13) 0.3635(7)
H21 H 0.5435 0.0457 0.3193
C30 C 0.6006(8) 0.1188(17) 0.3879(10)
H22 H 0.6331 0.1262 0.3553
C31 C 0.6147(6) 0.1554(8) 0.4566(6)
C32 C 0.5660(7) 0.1379(8) 0.4997(7)
H23 H 0.5725 0.1547 0.5494
C33 C 0.9696(7) 0.3451(11) 0.6510(7)
H24 H 0.9927 0.3356 0.6997
C34 C 0.9104(7) 0.3124(12) 0.6269(8)
H25 H 0.8901 0.2819 0.6604
C35 C 0.8741(6) 0.3197(7) 0.5533(7)
C36 C 0.9073(8) 0.3649(9) 0.5081(8)
H26 H 0.8877 0.3704 0.4576
C37 C 0.6806(6) 0.1988(7) 0.4815(6)
C38 C 0.7060(6) 0.2078(7) 0.5560(7)
H27 H 0.6809 0.1867 0.5914
C39 C 0.7678(6) 0.2474(7) 0.5802(6)
H28 H 0.7843 0.2525 0.6316
C40 C 0.8058(6) 0.2798(7) 0.5288(7)
C41 C 0.7793(7) 0.2702(8) 0.4550(7)
H29 H 0.8036 0.2923 0.4195
C42 C 0.7189(6) 0.2299(9) 0.4300(7)
H30 H 0.7035 0.2233 0.3786
C43 C 0.4127(13) 0.2709(12) 0.3377(13)
H31 H 0.4458 0.2305 0.3308
H32 H 0.4382 0.3178 0.3534
H33 H 0.3816 0.2800 0.2910
C44 C 0.4414(14) -0.2489(11) 0.2887(14)
H34 H 0.4228 -0.2659 0.3324
H35 H 0.4919 -0.2431 0.3010
H36 H 0.4303 -0.2866 0.2493
C45 C 0.9823(13) 0.2155(12) -0.1755(12)
H37 H 0.9658 0.2325 -0.1305
H38 H 1.0317 0.2023 -0.1638
H39 H 0.9760 0.2566 -0.2121
O1 O 0.3329(6) 0.1696(6) 0.3828(6)
O2 O 0.4158(7) 0.2357(9) 0.4735(8)
O3 O 0.3168(7) 0.3012(7) 0.4161(9)
O4 O 0.4128(11) -0.1142(9) 0.3224(7)
O5 O 0.3260(7) -0.1702(8) 0.2340(10)
O6 O 0.4309(7) -0.1363(7) 0.1949(7)
O7 O 0.8649(9) 0.1569(9) -0.2221(13)
O8 O 0.9380(13) 0.0770(10) -0.1533(10)
O9 O 0.9572(9) 0.1099(11) -0.2760(8)
S4 S 0.1485(8) 0.2588(9) 0.1060(10)
C46 C 0.102(2) 0.295(2) 0.1748(16)
O10 O 0.1863(10) 0.1914(10) 0.1347(11)
O11 O 0.0924(9) 0.2409(11) 0.0447(11)
O12 O 0.1918(10) 0.3212(9) 0.0876(13)
Ag2B Ag -0.38938(4) -0.02106(7) 0.65912(5)
Ag3B Ag 0.23864(5) -0.07180(6) 0.24021(5)
Ag3_2 Ag -0.23864(5) 0.07180(6) 0.75979(5)
Ag4B Ag 0.10674(4) 0.05295(7) 0.15644(5)
Ag4A Ag 1.10674(4) 0.44705(7) 0.65644(5)
N5B N 0.2955(4) -0.0021(5) 0.3956(4)
N6_2 N 0.7610(4) 0.0412(4) -0.3607(4)
N8B N 0.8899(4) -0.0878(5) -0.2795(4)
N11A N 1.0016(5) -0.1070(7) -0.1060(6)
O5B O 0.6740(7) 0.1702(8) -0.2340(10)
O10B O 0.8137(10) -0.1914(10) -0.1347(11)
loop_
_geom_bond_atom_site_label_1
_geom_bond_atom_site_label_2
_geom_bond_site_symmetry_1
_geom_bond_site_symmetry_2
Ag1 N1 1_555 1_555
Ag2 N2 1_555 1_555
Ag3 N4 1_555 1_555
Ag4 N3 1_555 1_555
S1 C43 1_555 1_555
S2 C44 1_555 1_555
S3 C45 1_555 1_555
N1 N2 1_555 1_555
N2 C4 1_555 1_555
N3 N4 1_555 1_555
N4 C8 1_555 1_555
N5 N6 1_555 1_555
N6 C18 1_555 1_555
N7 Ag1 1_555 1_555
N8 N7 1_555 1_555
N9 Ag2 1_555 1_555
N10 N9 1_555 1_555
N11 N12 1_555 1_555
N12 C36 1_555 1_555
C1 N1 1_555 1_555
H1 C1 1_555 1_555
C2 C1 1_555 1_555
H2 C2 1_555 1_555
C3 C2 1_555 1_555
C4 C3 1_555 1_555
H3 C4 1_555 1_555
C5 N3 1_555 1_555
H4 C5 1_555 1_555
C6 C5 1_555 1_555
H5 C6 1_555 1_555
C7 C6 1_555 1_555
C8 C7 1_555 1_555
H6 C8 1_555 1_555
C9 C3 1_555 1_555
C10 C9 1_555 1_555
H7 C10 1_555 1_555
C11 C10 1_555 1_555
H8 C11 1_555 1_555
C12 C7 1_555 1_555
C13 C12 1_555 1_555
H9 C13 1_555 1_555
C14 C9 1_555 1_555
H10 C14 1_555 1_555
C15 N5 1_555 1_555
H11 C15 1_555 1_555
C16 C15 1_555 1_555
H12 C16 1_555 1_555
C17 C16 1_555 1_555
C18 C17 1_555 1_555
H13 C18 1_555 1_555
C19 N7 1_555 1_555
H14 C19 1_555 1_555
C20 C19 1_555 1_555
H15 C20 1_555 1_555
C21 C20 1_555 1_555
C22 N8 1_555 1_555
H16 C22 1_555 1_555
C23 C17 1_555 1_555
C24 C23 1_555 1_555
H17 C24 1_555 1_555
C25 C24 1_555 1_555
H18 C25 1_555 1_555
C26 C21 1_555 1_555
C27 C26 1_555 1_555
H19 C27 1_555 1_555
C28 C23 1_555 1_555
H20 C28 1_555 1_555
C29 N9 1_555 1_555
H21 C29 1_555 1_555
C30 C29 1_555 1_555
H22 C30 1_555 1_555
C31 C30 1_555 1_555
C32 N10 1_555 1_555
H23 C32 1_555 1_555
C33 N11 1_555 1_555
H24 C33 1_555 1_555
C34 C33 1_555 1_555
H25 C34 1_555 1_555
C35 C34 1_555 1_555
C36 C35 1_555 1_555
H26 C36 1_555 1_555
C37 C31 1_555 1_555
C38 C37 1_555 1_555
H27 C38 1_555 1_555
C39 C38 1_555 1_555
H28 C39 1_555 1_555
C40 C35 1_555 1_555
C41 C40 1_555 1_555
H29 C41 1_555 1_555
C42 C37 1_555 1_555
H30 C42 1_555 1_555
C43 H31 1_555 1_555
H32 C43 1_555 1_555
H33 C43 1_555 1_555
C44 H34 1_555 1_555
H35 C44 1_555 1_555
H36 C44 1_555 1_555
C45 H37 1_555 1_555
H38 C45 1_555 1_555
H39 C45 1_555 1_555
O1 Ag1 1_555 1_555
O2 S1 1_555 1_555
O3 S1 1_555 1_555
O4 Ag2 1_555 1_555
O5 S2 1_555 1_555
O6 S2 1_555 1_555
O7 Ag3 1_555 1_555
O8 Ag4 1_555 1_555
O9 S3 1_555 1_555
S4 C46 1_555 1_555
O10 Ag1 1_555 1_555
O11 S4 1_555 1_555
O12 S4 1_555 1_555
Ag2B N5 1_555 1_555
Ag3B O5 1_555 1_555
Ag3_2 N6 1_555 1_555
Ag4B N8 1_555 1_555
Ag4A N11 1_555 1_555
N5B Ag2 1_555 1_555
N6_2 Ag3 1_555 1_555
N8B Ag4 1_555 1_555
N11A Ag4 1_555 1_555
O5B Ag3 1_555 1_555
O10B Ag4 1_555 1_555
Ag2 O1 1_555 1_555
S1 O1 1_555 1_555
S2 O4 1_555 1_555
S3 O7 1_555 1_555
S3 O8 1_555 1_555
C11 C12 1_555 1_555
C13 C14 1_555 1_555
C21 C22 1_555 1_555
C25 C26 1_555 1_555
C27 C28 1_555 1_555
C31 C32 1_555 1_555
C39 C40 1_555 1_555
C41 C42 1_555 1_555
S4 O10 1_555 1_555
O10 Ag4B 1_555 1_555

#END
