
#######################################################################
#
#                 Cambridge Crystallographic Data Centre
#                                CCDC 
#
#######################################################################
#
# If this CIF has been generated from an entry in the Cambridge 
# Structural Database, then it will include bibliographic, chemical, 
# crystal, experimental, refinement or atomic coordinate data resulting 
# from the CCDC's data processing and validation procedures.
#
#######################################################################

data_FAQVEA
_chemical_formula_moiety         '(C8 H11 N5 O4 Zn1)n'
_symmetry_cell_setting           monoclinic
_symmetry_space_group_name_H-M   'C 2/c'
_symmetry_Int_Tables_number      15
_space_group_name_Hall           '-C 2yc'
loop_
_symmetry_equiv_pos_site_id
_symmetry_equiv_pos_as_xyz
1 x,y,z
2 -x,y,1/2-z
3 1/2+x,1/2+y,z
4 1/2-x,1/2+y,1/2-z
5 -x,-y,-z
6 x,-y,1/2+z
7 1/2-x,1/2-y,-z
8 1/2+x,1/2-y,1/2+z
_cell_length_a                   16.896(3)
_cell_length_b                   16.987(3)
_cell_length_c                   9.7748(19)
_cell_angle_alpha                90
_cell_angle_beta                 119.087(2)
_cell_angle_gamma                90
_cell_volume                     2451.67
loop_
_atom_site_label
_atom_site_type_symbol
_atom_site_fract_x
_atom_site_fract_y
_atom_site_fract_z
_atom_site_U_iso_or_equiv
_atom_site_thermal_displace_type
Zn1 Zn 0.23336(3) 0.39258(2) 1.15347(4) 0.0314 Uani
O1 O 0.14095(17) 0.31088(17) 1.0896(3) 0.0498 Uani
C1 C 0.0634(3) 0.3405(2) 0.9999(4) 0.0403 Uani
O2 O 0.0501(2) 0.41099(18) 0.9796(4) 0.0690 Uani
C2 C 0.2089(2) 0.5113(2) 0.8983(4) 0.0324 Uani
N1 N 0.2469(2) 0.44728(17) 0.9849(3) 0.0333 Uani
C3 C -0.0134(2) 0.2831(2) 0.9186(4) 0.0347 Uani
C4 C -0.0987(2) 0.3106(2) 0.8182(4) 0.0385 Uani
H1 H -0.1090 0.3644 0.8006 0.0460 Uiso
C5 C -0.0005(3) 0.2031(2) 0.9401(5) 0.0496 Uani
H2 H 0.0565 0.1826 1.0069 0.0600 Uiso
C6 C -0.1687(2) 0.2581(2) 0.7441(4) 0.0389 Uani
H3 H -0.2264 0.2774 0.6774 0.0470 Uiso
C7 C -0.0738(3) 0.1540(2) 0.8609(5) 0.0489 Uani
H4 H -0.0647 0.0999 0.8753 0.0590 Uiso
N2 N -0.15704(19) 0.18015(17) 0.7643(3) 0.0356 Uani
N3 N 0.3082(2) 0.4212(2) 0.9454(4) 0.0434 Uani
C8 C 0.1383(3) 0.5604(3) 0.9017(6) 0.0651 Uani
H5 H 0.0890 0.5667 0.7971 0.0970 Uiso
H6 H 0.1630 0.6111 0.9446 0.0970 Uiso
H7 H 0.1167 0.5355 0.9654 0.0970 Uiso
N4 N 0.2461(2) 0.52475(18) 0.8070(3) 0.0352 Uani
N5 N 0.3078(2) 0.4670(2) 0.8394(4) 0.0447 Uani
Zn1G Zn -0.26664(3) 0.10742(2) 0.65347(4) 0.0314 Uani
Zn1E Zn 0.23336(3) 0.60742(2) 0.65347(4) 0.0314 Uani
N2G N 0.34296(19) 0.31985(17) 1.2643(3) 0.0356 Uani
N4E N 0.2461(2) 0.47525(18) 1.3070(3) 0.0352 Uani
O3 O 0.4074(3) 0.4145(3) 0.6742(6) 0.1069 Uani
H8 H 0.4178 0.3649 0.6948 0.1600 Uiso
H9 H 0.4038 0.4326 0.7525 0.1600 Uiso
O4 O 0.1665(5) 0.7703(4) 0.8806(7) 0.0634 Uani
H10 H 0.2195 0.7538 0.9394 0.0960 Uiso
H11 H 0.1345 0.7302 0.8379 0.0960 Uiso
loop_
_atom_site_aniso_label
_atom_site_aniso_U_11
_atom_site_aniso_U_22
_atom_site_aniso_U_33
_atom_site_aniso_U_23
_atom_site_aniso_U_13
_atom_site_aniso_U_12
Zn1 0.0249(3) 0.0321(3) 0.0317(3) 0.00038(16) 0.00937(19) -0.00002(16)
O1 0.0251(14) 0.0497(17) 0.0562(17) -0.0006(14) 0.0054(13) -0.0064(12)
C1 0.032(2) 0.045(2) 0.039(2) -0.0036(17) 0.0135(17) -0.0035(17)
O2 0.0473(19) 0.0415(19) 0.090(3) -0.0037(17) 0.0112(18) -0.0091(15)
C2 0.0313(18) 0.0325(19) 0.0334(18) -0.0004(15) 0.0158(15) 0.0005(15)
N1 0.0305(15) 0.0360(16) 0.0333(16) 0.0005(13) 0.0155(13) 0.0023(13)
C3 0.0292(19) 0.0356(19) 0.0364(19) -0.0021(15) 0.0136(16) -0.0024(15)
C4 0.0322(19) 0.0288(18) 0.045(2) 0.0025(16) 0.0114(16) 0.0009(15)
C5 0.0234(19) 0.045(2) 0.059(3) 0.003(2) 0.0033(18) 0.0034(17)
C6 0.0242(18) 0.040(2) 0.040(2) 0.0017(16) 0.0058(16) 0.0011(16)
C7 0.030(2) 0.032(2) 0.063(3) 0.0013(18) 0.0055(19) 0.0007(16)
N2 0.0264(15) 0.0347(16) 0.0377(16) -0.0031(13) 0.0092(13) 0.0000(13)
N3 0.0398(18) 0.0421(18) 0.051(2) 0.0104(16) 0.0243(16) 0.0141(15)
C8 0.068(3) 0.057(3) 0.091(4) 0.028(3) 0.055(3) 0.031(2)
N4 0.0305(16) 0.0359(17) 0.0354(16) 0.0031(13) 0.0130(13) 0.0035(13)
N5 0.0446(19) 0.0475(19) 0.051(2) 0.0103(16) 0.0302(17) 0.0160(16)
Zn1G 0.0249 0.0321 0.0317 -0.00038 0.00937 2e-05
Zn1E 0.0249 0.0321 0.0317 -0.00038 0.00937 2e-05
N2G 0.0264 0.0347 0.0377 0.0031 0.0092 0
N4E 0.0305 0.0359 0.0354 -0.0031 0.013 -0.0035
O3 0.111(4) 0.122(4) 0.105(4) 0.009(3) 0.066(3) 0.022(3)
O4 0.078(5) 0.061(4) 0.042(3) -0.007(3) 0.022(3) 0.014(4)
loop_
_geom_bond_atom_site_label_1
_geom_bond_atom_site_label_2
_geom_bond_site_symmetry_1
_geom_bond_site_symmetry_2
Zn1 O1 1_555 1_555
O1 C1 1_555 1_555
C1 O2 1_555 1_555
C2 N1 1_555 1_555
N1 Zn1 1_555 1_555
C3 C1 1_555 1_555
C4 C3 1_555 1_555
H1 C4 1_555 1_555
C5 C3 1_555 1_555
H2 C5 1_555 1_555
C6 C4 1_555 1_555
H3 C6 1_555 1_555
C7 C5 1_555 1_555
H4 C7 1_555 1_555
N2 C6 1_555 1_555
N3 N1 1_555 1_555
C8 C2 1_555 1_555
H5 C8 1_555 1_555
H6 C8 1_555 1_555
H7 C8 1_555 1_555
N4 C2 1_555 1_555
N5 N3 1_555 1_555
O3 H8 1_555 1_555
H9 O3 1_555 1_555
O4 H10 1_555 1_555
H11 O4 1_555 1_555
Zn1G N2 1_555 1_555
Zn1E N4 1_555 1_555
N2G Zn1 1_555 1_555
N4E Zn1 1_555 1_555
C7 N2 1_555 1_555
N4 N5 1_555 1_555

#END
