
#######################################################################
#
#                 Cambridge Crystallographic Data Centre
#                                CCDC 
#
#######################################################################
#
# If this CIF has been generated from an entry in the Cambridge 
# Structural Database, then it will include bibliographic, chemical, 
# crystal, experimental, refinement or atomic coordinate data resulting 
# from the CCDC's data processing and validation procedures.
#
#######################################################################

data_QAGKOB
_chemical_formula_moiety         '(C64 H46 Cd2 N10 O8)n'
_symmetry_cell_setting           monoclinic
_symmetry_space_group_name_H-M   'P 21/c'
_symmetry_Int_Tables_number      14
_space_group_name_Hall           '-P 2ybc'
loop_
_symmetry_equiv_pos_site_id
_symmetry_equiv_pos_as_xyz
1 x,y,z
2 -x,1/2+y,1/2-z
3 -x,-y,-z
4 x,1/2-y,1/2+z
_cell_length_a                   24.286(5)
_cell_length_b                   18.962(4)
_cell_length_c                   16.247(3)
_cell_angle_alpha                90
_cell_angle_beta                 99.84(3)
_cell_angle_gamma                90
_cell_volume                     7371.86
loop_
_atom_site_label
_atom_site_type_symbol
_atom_site_fract_x
_atom_site_fract_y
_atom_site_fract_z
Cd1 Cd -0.34990(2) 0.05536(2) 0.16450(3)
Cd2 Cd -0.36524(2) -0.05526(2) 0.35495(3)
O1 O -0.33907(17) 0.09797(17) 0.2778(2)
O2 O -0.36238(16) 0.04464(17) 0.3898(2)
O3 O -0.3491(2) 0.4179(2) 0.5013(3)
O4 O -0.35185(18) 0.3506(2) 0.6121(3)
O5 O -0.34827(16) -0.04423(16) 0.1321(2)
O6 O -0.37711(15) -0.09781(16) 0.2399(2)
O7 O -0.36005(18) -0.3506(2) -0.0925(3)
O8 O -0.3641(2) -0.41701(19) 0.0163(3)
N1 N -0.3455(4) 0.2428(3) 0.2673(4)
H1 H -0.3466 0.2066 0.2333
H2 H -0.3442 0.2860 0.2479
N2 N -0.27448(19) -0.0558(2) 0.3598(3)
N3 N -0.0653(5) -0.0366(8) 0.3613(8)
N4 N 0.3334(2) -0.0952(3) 0.3073(3)
N5 N 0.54455(19) -0.05363(18) 0.3452(3)
N6 N -0.2578(2) 0.0544(2) 0.1758(3)
N7 N -0.0580(2) 0.0383(5) 0.1346(5)
N8 N 0.3529(2) 0.0959(3) 0.1698(3)
N9 N 0.55949(18) 0.05605(19) 0.1561(3)
N10 N -0.3721(4) -0.2420(4) 0.2484(4)
H3 H -0.3706 -0.2056 0.2824
H4 H -0.3767 -0.2848 0.2671
C1 C -0.3506(2) 0.0990(2) 0.3511(3)
C2 C -0.3478(2) 0.1668(2) 0.3948(3)
C3 C -0.3458(2) 0.2315(2) 0.3550(3)
C4 C -0.3464(2) 0.2946(2) 0.4000(3)
H5 H -0.3456 0.3387 0.3726
C5 C -0.3480(2) 0.2920(2) 0.4856(3)
C6 C -0.3495(3) 0.2274(2) 0.5259(3)
H6 H -0.3503 0.2259 0.5841
C7 C -0.3498(2) 0.1656(2) 0.4813(3)
H7 H -0.3515 0.1217 0.5088
C8 C -0.3492(2) 0.3591(3) 0.5346(4)
C9 C -0.3626(2) -0.0989(2) 0.1695(3)
C10 C -0.3596(2) -0.1669(2) 0.1265(3)
C11 C -0.3671(2) -0.2319(2) 0.1656(3)
C12 C -0.3672(2) -0.2942(2) 0.1173(3)
H8 H -0.3720 -0.3386 0.1424
C13 C -0.3605(2) -0.2919(2) 0.0342(3)
C14 C -0.3542(3) -0.2267(3) -0.0036(3)
H9 H -0.3501 -0.2247 -0.0606
C15 C -0.3541(3) -0.1658(2) 0.0419(3)
H10 H -0.3502 -0.1217 0.0156
C16 C -0.3613(2) -0.3586(3) -0.0157(4)
C17 C -0.2388(3) -0.0064(3) 0.3957(6)
H11 H -0.2538 0.0322 0.4219
C18 C -0.1811(3) -0.0076(5) 0.3971(8)
H12 H -0.1573 0.0280 0.4247
C19 C -0.1601(4) -0.0638(6) 0.3556(8)
C20 C -0.1956(3) -0.1142(6) 0.3203(5)
H13 H -0.1814 -0.1533 0.2939
C21 C -0.2516(3) -0.1101(4) 0.3220(4)
H14 H -0.2754 -0.1463 0.2959
C22 C -0.1021(4) -0.0771(8) 0.3482(9)
H15 H -0.0933 -0.1231 0.3311
C23 C -0.0100(5) -0.0488(9) 0.3499(10)
C24 C 0.0294(4) -0.0021(10) 0.3795(11)
H16 H 0.0221 0.0358 0.4142
C25 C 0.0816(5) -0.0114(10) 0.3575(11)
H17 H 0.1051 0.0288 0.3595
C26 C 0.1018(4) -0.0741(9) 0.3331(8)
C27 C 0.0609(6) -0.1202(11) 0.3015(12)
H18 H 0.0693 -0.1598 0.2700
C28 C 0.0058(6) -0.1094(11) 0.3157(12)
H19 H -0.0212 -0.1456 0.3009
C29 C 0.1628(3) -0.0798(8) 0.3268(6)
C30 C 0.2013(4) -0.0364(8) 0.3705(8)
H20 H 0.1891 -0.0034 0.4075
C31 C 0.2582(4) -0.0372(8) 0.3645(8)
H21 H 0.2830 -0.0033 0.3936
C32 C 0.2773(3) -0.0870(5) 0.3165(4)
C33 C 0.2378(4) -0.1334(8) 0.2687(7)
H22 H 0.2495 -0.1704 0.2363
C34 C 0.1832(4) -0.1225(9) 0.2715(8)
H23 H 0.1567 -0.1467 0.2316
C35 C 0.3687(3) -0.0487(4) 0.3426(5)
C36 C 0.4283(2) -0.0535(3) 0.3407(4)
C37 C 0.4632(3) -0.0030(3) 0.3866(5)
H24 H 0.4476 0.0319 0.4176
C38 C 0.5199(2) -0.0038(3) 0.3869(4)
H25 H 0.5425 0.0317 0.4171
C39 C 0.5112(2) -0.1025(3) 0.3018(3)
H26 H 0.5279 -0.1372 0.2719
C40 C 0.4541(2) -0.1047(3) 0.2987(3)
H27 H 0.4324 -0.1408 0.2682
C41 C -0.2271(3) 0.1039(4) 0.2223(4)
H28 H -0.2458 0.1356 0.2535
C42 C -0.1709(3) 0.1110(5) 0.2271(5)
H29 H -0.1510 0.1470 0.2605
C43 C -0.1429(3) 0.0639(4) 0.1816(4)
C44 C -0.1749(3) 0.0143(4) 0.1321(5)
H30 H -0.1577 -0.0174 0.0990
C45 C -0.2320(3) 0.0113(4) 0.1310(5)
H31 H -0.2533 -0.0230 0.0968
C46 C -0.0815(3) 0.0708(6) 0.1830(5)
H32 H -0.0602 0.1014 0.2226
C47 C 0.0011(3) 0.0515(6) 0.1395(6)
C48 C 0.0283(4) 0.1113(6) 0.1653(8)
H33 H 0.0083 0.1497 0.1834
C49 C 0.0856(4) 0.1178(7) 0.1659(9)
H34 H 0.1039 0.1604 0.1853
C50 C 0.1153(3) 0.0657(5) 0.1399(6)
C51 C 0.0892(4) 0.0082(7) 0.1104(8)
H35 H 0.1102 -0.0293 0.0923
C52 C 0.0303(4) 0.0002(8) 0.1048(9)
H36 H 0.0115 -0.0397 0.0777
C53 C 0.1767(3) 0.0743(5) 0.1461(5)
C54 C 0.2087(4) 0.1247(7) 0.1971(8)
H37 H 0.1904 0.1541 0.2312
C55 C 0.2636(3) 0.1333(6) 0.1998(7)
H38 H 0.2820 0.1720 0.2300
C56 C 0.2950(3) 0.0857(4) 0.1587(4)
C57 C 0.2654(4) 0.0331(6) 0.1131(8)
H39 H 0.2850 -0.0003 0.0854
C58 C 0.2076(4) 0.0270(6) 0.1060(8)
H40 H 0.1888 -0.0100 0.0733
C59 C 0.3811(3) 0.0511(3) 0.1350(4)
C60 C 0.4429(2) 0.0561(3) 0.1442(3)
C61 C 0.4757(2) 0.1087(3) 0.1879(3)
H41 H 0.4589 0.1452 0.2150
C62 C 0.5326(2) 0.1072(3) 0.1916(3)
H42 H 0.5542 0.1440 0.2207
C63 C 0.5276(2) 0.0060(3) 0.1129(3)
H43 H 0.5453 -0.0303 0.0866
C64 C 0.4700(2) 0.0051(3) 0.1054(3)
H44 H 0.4490 -0.0308 0.0734
Cd1_2 Cd 0.65010(2) 0.05536(2) 0.16450(3)
Cd1C Cd -0.34990(2) 0.44464(2) 0.66450(3)
Cd2_2 Cd 0.63476(2) -0.05526(2) 0.35495(3)
Cd2C Cd -0.36524(2) -0.44474(2) -0.14505(3)
O4C O -0.35185(18) 0.1494(2) 0.1121(3)
O7C O -0.36005(18) -0.1494(2) 0.4075(3)
N5_2 N -0.45545(19) -0.05363(18) 0.3452(3)
N9_2 N -0.44051(18) 0.05605(19) 0.1561(3)
loop_
_geom_bond_atom_site_label_1
_geom_bond_atom_site_label_2
_geom_bond_site_symmetry_1
_geom_bond_site_symmetry_2
Cd1 O1 1_555 1_555
Cd2 O2 1_555 1_555
O1 C1 1_555 1_555
O2 C1 1_555 1_555
O3 C8 1_555 1_555
O4 C8 1_555 1_555
O5 Cd1 1_555 1_555
O6 Cd2 1_555 1_555
O7 C16 1_555 1_555
O8 C16 1_555 1_555
N1 H1 1_555 1_555
H2 N1 1_555 1_555
N2 Cd2 1_555 1_555
N3 C22 1_555 1_555
N4 C32 1_555 1_555
N5 C38 1_555 1_555
N6 Cd1 1_555 1_555
N7 C46 1_555 1_555
N8 C56 1_555 1_555
N9 C62 1_555 1_555
N10 H3 1_555 1_555
H4 N10 1_555 1_555
C1 C2 1_555 1_555
C2 C3 1_555 1_555
C3 N1 1_555 1_555
C4 C3 1_555 1_555
H5 C4 1_555 1_555
C5 C4 1_555 1_555
C6 C5 1_555 1_555
H6 C6 1_555 1_555
C7 C2 1_555 1_555
H7 C7 1_555 1_555
C8 C5 1_555 1_555
C9 O5 1_555 1_555
C10 C9 1_555 1_555
C11 N10 1_555 1_555
C12 C11 1_555 1_555
H8 C12 1_555 1_555
C13 C12 1_555 1_555
C14 C13 1_555 1_555
H9 C14 1_555 1_555
C15 C10 1_555 1_555
H10 C15 1_555 1_555
C16 C13 1_555 1_555
C17 N2 1_555 1_555
H11 C17 1_555 1_555
C18 C17 1_555 1_555
H12 C18 1_555 1_555
C19 C18 1_555 1_555
C20 C19 1_555 1_555
H13 C20 1_555 1_555
C21 N2 1_555 1_555
H14 C21 1_555 1_555
C22 C19 1_555 1_555
H15 C22 1_555 1_555
C23 N3 1_555 1_555
C24 C23 1_555 1_555
H16 C24 1_555 1_555
C25 C24 1_555 1_555
H17 C25 1_555 1_555
C26 C25 1_555 1_555
C27 C26 1_555 1_555
H18 C27 1_555 1_555
C28 C23 1_555 1_555
H19 C28 1_555 1_555
C29 C26 1_555 1_555
C30 C29 1_555 1_555
H20 C30 1_555 1_555
C31 C30 1_555 1_555
H21 C31 1_555 1_555
C32 C31 1_555 1_555
C33 C32 1_555 1_555
H22 C33 1_555 1_555
C34 C29 1_555 1_555
H23 C34 1_555 1_555
C35 N4 1_555 1_555
C36 C35 1_555 1_555
C37 C36 1_555 1_555
H24 C37 1_555 1_555
C38 C37 1_555 1_555
H25 C38 1_555 1_555
C39 N5 1_555 1_555
H26 C39 1_555 1_555
C40 C36 1_555 1_555
H27 C40 1_555 1_555
C41 N6 1_555 1_555
H28 C41 1_555 1_555
C42 C41 1_555 1_555
H29 C42 1_555 1_555
C43 C42 1_555 1_555
C44 C43 1_555 1_555
H30 C44 1_555 1_555
C45 N6 1_555 1_555
H31 C45 1_555 1_555
C46 C43 1_555 1_555
H32 C46 1_555 1_555
C47 N7 1_555 1_555
C48 C47 1_555 1_555
H33 C48 1_555 1_555
C49 C48 1_555 1_555
H34 C49 1_555 1_555
C50 C49 1_555 1_555
C51 C50 1_555 1_555
H35 C51 1_555 1_555
C52 C47 1_555 1_555
H36 C52 1_555 1_555
C53 C50 1_555 1_555
C54 C53 1_555 1_555
H37 C54 1_555 1_555
C55 C54 1_555 1_555
H38 C55 1_555 1_555
C56 C55 1_555 1_555
C57 C56 1_555 1_555
H39 C57 1_555 1_555
C58 C53 1_555 1_555
H40 C58 1_555 1_555
C59 N8 1_555 1_555
C60 C59 1_555 1_555
C61 C60 1_555 1_555
H41 C61 1_555 1_555
C62 C61 1_555 1_555
H42 C62 1_555 1_555
C63 N9 1_555 1_555
H43 C63 1_555 1_555
C64 C60 1_555 1_555
H44 C64 1_555 1_555
Cd1_2 N9 1_555 1_555
Cd1C O4 1_555 1_555
Cd2_2 N5 1_555 1_555
Cd2C O7 1_555 1_555
O4C Cd1 1_555 1_555
O7C Cd2 1_555 1_555
N5_2 Cd2 1_555 1_555
N9_2 Cd1 1_555 1_555
O6 C9 1_555 1_555
C6 C7 1_555 1_555
C10 C11 1_555 1_555
C14 C15 1_555 1_555
C20 C21 1_555 1_555
C27 C28 1_555 1_555
C33 C34 1_555 1_555
C39 C40 1_555 1_555
C44 C45 1_555 1_555
C51 C52 1_555 1_555
C57 C58 1_555 1_555
C63 C64 1_555 1_555

#END
