
#######################################################################
#
#                 Cambridge Crystallographic Data Centre
#                                CCDC 
#
#######################################################################
#
# If this CIF has been generated from an entry in the Cambridge 
# Structural Database, then it will include bibliographic, chemical, 
# crystal, experimental, refinement or atomic coordinate data resulting 
# from the CCDC's data processing and validation procedures.
#
#######################################################################

data_OTABES
_chemical_formula_moiety         '(C48 H30 In2 N4 O11)n'
_symmetry_cell_setting           orthorhombic
_symmetry_space_group_name_H-M   'C m m m'
_symmetry_Int_Tables_number      65
_space_group_name_Hall           '-C 2 2'
loop_
_symmetry_equiv_pos_site_id
_symmetry_equiv_pos_as_xyz
1 x,y,z
2 -x,-y,z
3 -x,y,-z
4 1/2-x,1/2-y,z
5 1/2-x,1/2+y,-z
6 x,-y,-z
7 1/2+x,1/2-y,-z
8 1/2+x,1/2+y,z
9 -x,-y,-z
10 x,y,-z
11 x,-y,z
12 1/2+x,1/2+y,-z
13 1/2+x,1/2-y,z
14 -x,y,z
15 1/2-x,1/2+y,z
16 1/2-x,1/2-y,-z
_cell_length_a                   33.4317(15)
_cell_length_b                   7.1520(11)
_cell_length_c                   16.71805(85)
_cell_angle_alpha                90
_cell_angle_beta                 90
_cell_angle_gamma                90
_cell_volume                     3997.34
loop_
_atom_site_label
_atom_site_type_symbol
_atom_site_fract_x
_atom_site_fract_y
_atom_site_fract_z
O3 O 0.6111(24) 0.211(14) 0.000
O1 O 0.78961(66) 0.1627(28) 0.9084(11)
C1 C 0.80160(67) 0.000 0.8977(14)
C2 C 0.96665(79) 0.000 0.6728(16)
C3 C 0.97974(55) 0.000 0.7523(19)
C4 C 0.91234(76) 0.000 0.5679(16)
C5 C 0.87367(93) 0.000 0.54067(90)
C6 C 0.92929(88) 0.000 0.6421(17)
C7 C 0.89674(87) -0.000 0.7040(16)
C8 C 0.83332(66) 0.000 0.8356(10)
C9 C 0.87961(55) 0.1578(46) 0.7392(11)
C10 C 0.84999(47) 0.1563(43) 0.80056(92)
N1 N 0.9390(17) 0.000 0.500
N2 N 1 0.000 0.6212(29)
In1 In 0.750 0.250 1
O2 O 0.7308(26) 0.000 1
O1A O 1.21039(66) -0.1627(28) 0.9084(11)
C1A C 1.19840(67) 0.000 0.8977(14)
C2A C 1.03335(79) 0.000 0.6728(16)
C3A C 1.02026(55) 0.000 0.7523(19)
C4A C 1.08766(76) 0.000 0.5679(16)
C5A C 1.12633(93) 0.000 0.54067(90)
C6A C 1.07071(88) 0.000 0.6421(17)
C7A C 1.10326(87) -0.000 0.7040(16)
C8A C 1.16668(66) 0.000 0.8356(10)
C9A C 1.12039(55) -0.1578(46) 0.7392(11)
C10A C 1.15001(47) -0.1563(43) 0.80056(92)
N1H N 1.0610(17) 0.000 0.500
O1M O 1.21039(66) 0.1627(28) 0.9084(11)
C9M C 1.12039(55) 0.1578(46) 0.7392(11)
C10M C 1.15001(47) 0.1563(43) 0.80056(92)
O1E O 0.78961(66) -0.1627(28) 0.0916(11)
C1E C 0.80160(67) 0.000 0.1023(14)
C2E C 0.96665(79) 0.000 0.3272(16)
C3E C 0.97974(55) 0.000 0.2477(19)
C4E C 0.91234(76) 0.000 0.4321(16)
C5E C 0.87367(93) 0.000 0.45933(90)
C6E C 0.92929(88) 0.000 0.3579(17)
C7E C 0.89674(87) -0.000 0.2960(16)
C8E C 0.83332(66) 0.000 0.1644(10)
C9E C 0.87961(55) -0.1578(46) 0.2608(11)
C10E C 0.84999(47) -0.1563(43) 0.19944(92)
N2H N 1 0.000 0.3788(29)
O1J O 0.78961(66) -0.1627(28) 0.9084(11)
C9J C 0.87961(55) -0.1578(46) 0.7392(11)
C10J C 0.84999(47) -0.1563(43) 0.80056(92)
O1I O 0.78961(66) 0.1627(28) 0.0916(11)
C9I C 0.87961(55) 0.1578(46) 0.2608(11)
C10I C 0.84999(47) 0.1563(43) 0.19944(92)
O1H O 1.21039(66) -0.1627(28) 0.0916(11)
C1H C 1.19840(67) 0.000 0.1023(14)
C2H C 1.03335(79) 0.000 0.3272(16)
C3H C 1.02026(55) 0.000 0.2477(19)
C4H C 1.08766(76) 0.000 0.4321(16)
C5H C 1.12633(93) 0.000 0.45933(90)
C6H C 1.07071(88) 0.000 0.3579(17)
C7H C 1.10326(87) -0.000 0.2960(16)
C8H C 1.16668(66) 0.000 0.1644(10)
C9H C 1.12039(55) -0.1578(46) 0.2608(11)
C10H C 1.15001(47) -0.1563(43) 0.19944(92)
O1B O 1.21039(66) 0.1627(28) 0.0916(11)
C9B C 1.12039(55) 0.1578(46) 0.2608(11)
C10B C 1.15001(47) 0.1563(43) 0.19944(92)
In1H In 1.250 -0.250 0
O2O O 0.7692(26) 0.500 1
O1A_2 O 1.21039(66) -0.1627(28) -0.0916(11)
O1O O 0.71039(66) 0.3373(28) 1.0916(11)
O1C O 0.71039(66) 0.3373(28) 0.9084(11)
O1I_2 O 0.78961(66) 0.1627(28) 1.0916(11)
O1K O 1.28961(66) -0.3373(28) 0.0916(11)
O1G O 1.28961(66) -0.3373(28) -0.0916(11)
In1H_2 In 1.250 -0.250 1
In1B In 1.250 0.250 0
In1B_2 In 1.250 0.250 1
In1O In 0.750 0.250 0
In1D In 0.750 -0.250 0
In1D_2 In 0.750 -0.250 1
In1D_3 In 0.750 0.750 1
O2H O 1.2692(26) 0.000 0
O2F O 1.2308(26) -0.500 0
loop_
_geom_bond_atom_site_label_1
_geom_bond_atom_site_label_2
_geom_bond_site_symmetry_1
_geom_bond_site_symmetry_2
O1 C1 1_555 1_555
C1 C8 1_555 1_555
C2 C3 1_555 1_555
C3 C3A 1_555 1_555
C4 C5 1_555 1_555
C5 C5E 1_555 1_555
C6 C2 1_555 1_555
C7 C6 1_555 1_555
C8 C10 1_555 1_555
C9 C7 1_555 1_555
C10 C9 1_555 1_555
N1 C4 1_555 1_555
N2 C2 1_555 1_555
In1 O1 1_555 1_555
O2 In1 1_555 1_555
O1A C1A 1_555 1_555
C1A C8A 1_555 1_555
C2A N2 1_555 1_555
C3A C2A 1_555 1_555
C4A C5A 1_555 1_555
C5A C5H 1_555 1_555
C6A C2A 1_555 1_555
C7A C6A 1_555 1_555
C8A C10A 1_555 1_555
C9A C7A 1_555 1_555
C10A C9A 1_555 1_555
N1H C4A 1_555 1_555
O1M C1A 1_555 1_555
C9M C7A 1_555 1_555
C10M C8A 1_555 1_555
O1E C1E 1_555 1_555
C1E C8E 1_555 1_555
C2E C3E 1_555 1_555
C3E C3H 1_555 1_555
C4E N1 1_555 1_555
C5E C4E 1_555 1_555
C6E C2E 1_555 1_555
C7E C6E 1_555 1_555
C8E C10E 1_555 1_555
C9E C7E 1_555 1_555
C10E C9E 1_555 1_555
N2H C2E 1_555 1_555
O1J C1 1_555 1_555
C9J C7 1_555 1_555
C10J C8 1_555 1_555
O1I C1E 1_555 1_555
C9I C7E 1_555 1_555
C10I C8E 1_555 1_555
O1H C1H 1_555 1_555
C1H C8H 1_555 1_555
C2H N2H 1_555 1_555
C3H C2H 1_555 1_555
C4H N1H 1_555 1_555
C5H C4H 1_555 1_555
C6H C2H 1_555 1_555
C7H C6H 1_555 1_555
C8H C10H 1_555 1_555
C9H C7H 1_555 1_555
C10H C9H 1_555 1_555
O1B C1H 1_555 1_555
C9B C7H 1_555 1_555
C10B C8H 1_555 1_555
In1H O1H 1_555 1_555
O2O In1 1_555 1_555
O1A_2 In1H 1_555 1_555
O1O In1 1_555 1_555
O1C In1 1_555 1_555
O1I_2 In1 1_555 1_555
O1K In1H 1_555 1_555
O1G In1H 1_555 1_555
In1H_2 O1A 1_555 1_555
In1B O1B 1_555 1_555
In1B_2 O1M 1_555 1_555
In1O O1I 1_555 1_555
In1D O1E 1_555 1_555
In1D_2 O2 1_555 1_555
In1D_3 O2O 1_555 1_555
O2H In1H 1_555 1_555
O2F In1H 1_555 1_555
C4 C6 1_555 1_555
C4A C6A 1_555 1_555
C9M C10M 1_555 1_555
C4E C6E 1_555 1_555
O1J In1D_2 1_555 1_555
C9J C10J 1_555 1_555
C9I C10I 1_555 1_555
C4H C6H 1_555 1_555
C9B C10B 1_555 1_555
In1B O2H 1_555 1_555

#END
