
#######################################################################
#
#                 Cambridge Crystallographic Data Centre
#                                CCDC 
#
#######################################################################
#
# If this CIF has been generated from an entry in the Cambridge 
# Structural Database, then it will include bibliographic, chemical, 
# crystal, experimental, refinement or atomic coordinate data resulting 
# from the CCDC's data processing and validation procedures.
#
#######################################################################

data_OTAQAD
_chemical_formula_moiety         '(C48 H36 Ga2 N4 O14)n'
_symmetry_cell_setting           orthorhombic
_symmetry_space_group_name_H-M   'C m m m'
_symmetry_Int_Tables_number      65
_space_group_name_Hall           '-C 2 2'
loop_
_symmetry_equiv_pos_site_id
_symmetry_equiv_pos_as_xyz
1 x,y,z
2 -x,-y,z
3 -x,y,-z
4 1/2-x,1/2-y,z
5 1/2-x,1/2+y,-z
6 x,-y,-z
7 1/2+x,1/2-y,-z
8 1/2+x,1/2+y,z
9 -x,-y,-z
10 x,y,-z
11 x,-y,z
12 1/2+x,1/2+y,-z
13 1/2+x,1/2-y,z
14 -x,y,z
15 1/2-x,1/2+y,z
16 1/2-x,1/2-y,-z
_cell_length_a                   32.9509(40)
_cell_length_b                   6.6990(16)
_cell_length_c                   16.5555(19)
_cell_angle_alpha                90
_cell_angle_beta                 90
_cell_angle_gamma                90
_cell_volume                     3654.43
loop_
_atom_site_label
_atom_site_type_symbol
_atom_site_fract_x
_atom_site_fract_y
_atom_site_fract_z
_atom_site_U_iso_or_equiv
_atom_site_thermal_displace_type
O3 O 0.80041(82) 0.395(13) 0.5750(39) 0.1013 Uiso
O4 O 0.5507(18) -0.164(13) 0.000 0.1013 Uiso
O5 O 0.6106(15) 0.3688(87) -0.009(11) 0.1013 Uiso
O6 O 0.7943(14) 0.736(12) 0.6948(34) 0.1013 Uiso
O1 O 0.79064(86) 0.1881(38) 0.9135(17) 0.0343 Uiso
C1 C 0.88308(59) 0.1753(36) 0.7510(11) 0.0343 Uiso
C2 C 0.85132(56) 0.1707(43) 0.8077(11) 0.0343 Uiso
C3 C 0.96847(41) 0.000 0.6698(14) 0.0343 Uiso
C4 C 0.97954(50) 0.000 0.7533(22) 0.0343 Uiso
C5 C 0.91475(90) 0.000 0.5670(11) 0.0343 Uiso
C6 C 0.8768(10) -0.000 0.5398(11) 0.0343 Uiso
C7 C 0.92947(77) 0.000 0.6447(13) 0.0343 Uiso
C8 C 0.90040(79) 0.000 0.7155(14) 0.0343 Uiso
C9 C 0.83349(83) 0.000 0.8411(17) 0.0343 Uiso
C10 C 0.7991(11) 0.000 0.9069(22) 0.0343 Uiso
N1 N 1 0.000 0.6172(20) 0.0343 Uiso
N2 N 0.9385(13) 0.000 0.500 0.0343 Uiso
Ga1 Ga 0.750 0.250 1 0.0343 Uiso
O2 O 0.7265(25) 0.000 1 0.0343 Uiso
O1A O 1.20936(86) -0.1881(38) 0.9135(17) 0.0343 Uiso
C1A C 1.11692(59) -0.1753(36) 0.7510(11) 0.0343 Uiso
C2A C 1.14868(56) -0.1707(43) 0.8077(11) 0.0343 Uiso
C3A C 1.03153(41) 0.000 0.6698(14) 0.0343 Uiso
C4A C 1.02046(50) 0.000 0.7533(22) 0.0343 Uiso
C5A C 1.08525(90) 0.000 0.5670(11) 0.0343 Uiso
C6A C 1.1232(10) -0.000 0.5398(11) 0.0343 Uiso
C7A C 1.07053(77) 0.000 0.6447(13) 0.0343 Uiso
C8A C 1.09960(79) 0.000 0.7155(14) 0.0343 Uiso
C9A C 1.16651(83) 0.000 0.8411(17) 0.0343 Uiso
C10A C 1.2009(11) 0.000 0.9069(22) 0.0343 Uiso
N2H N 1.0615(13) 0.000 0.500 0.0343 Uiso
O1M O 1.20936(86) 0.1881(38) 0.9135(17) 0.0343 Uiso
C1M C 1.11692(59) 0.1753(36) 0.7510(11) 0.0343 Uiso
C2M C 1.14868(56) 0.1707(43) 0.8077(11) 0.0343 Uiso
O1E O 0.79064(86) -0.1881(38) 0.0865(17) 0.0343 Uiso
C1E C 0.88308(59) -0.1753(36) 0.2490(11) 0.0343 Uiso
C2E C 0.85132(56) -0.1707(43) 0.1923(11) 0.0343 Uiso
C3E C 0.96847(41) -0.000 0.3302(14) 0.0343 Uiso
C4E C 0.97954(50) 0.000 0.2467(22) 0.0343 Uiso
C5E C 0.91475(90) 0.000 0.4330(11) 0.0343 Uiso
C6E C 0.8768(10) 0.000 0.4602(11) 0.0343 Uiso
C7E C 0.92947(77) 0.000 0.3553(13) 0.0343 Uiso
C8E C 0.90040(79) 0.000 0.2845(14) 0.0343 Uiso
C9E C 0.83349(83) 0.000 0.1589(17) 0.0343 Uiso
C10E C 0.7991(11) 0.000 0.0931(22) 0.0343 Uiso
N1H N 1 0.000 0.3828(20) 0.0343 Uiso
O1J O 0.79064(86) -0.1881(38) 0.9135(17) 0.0343 Uiso
C1J C 0.88308(59) -0.1753(36) 0.7510(11) 0.0343 Uiso
C2J C 0.85132(56) -0.1707(43) 0.8077(11) 0.0343 Uiso
O1I O 0.79064(86) 0.1881(38) 0.0865(17) 0.0343 Uiso
C1I C 0.88308(59) 0.1753(36) 0.2490(11) 0.0343 Uiso
C2I C 0.85132(56) 0.1707(43) 0.1923(11) 0.0343 Uiso
O1H O 1.20936(86) -0.1881(38) 0.0865(17) 0.0343 Uiso
C1H C 1.11692(59) -0.1753(36) 0.2490(11) 0.0343 Uiso
C2H C 1.14868(56) -0.1707(43) 0.1923(11) 0.0343 Uiso
C3H C 1.03153(41) -0.000 0.3302(14) 0.0343 Uiso
C4H C 1.02046(50) 0.000 0.2467(22) 0.0343 Uiso
C5H C 1.08525(90) 0.000 0.4330(11) 0.0343 Uiso
C6H C 1.1232(10) 0.000 0.4602(11) 0.0343 Uiso
C7H C 1.07053(77) 0.000 0.3553(13) 0.0343 Uiso
C8H C 1.09960(79) 0.000 0.2845(14) 0.0343 Uiso
C9H C 1.16651(83) 0.000 0.1589(17) 0.0343 Uiso
C10H C 1.2009(11) 0.000 0.0931(22) 0.0343 Uiso
O1B O 1.20936(86) 0.1881(38) 0.0865(17) 0.0343 Uiso
C1B C 1.11692(59) 0.1753(36) 0.2490(11) 0.0343 Uiso
C2B C 1.14868(56) 0.1707(43) 0.1923(11) 0.0343 Uiso
Ga1H Ga 1.250 -0.250 0 0.0343 Uiso
O2O O 0.7735(25) 0.500 1 0.0343 Uiso
O1A_2 O 1.20936(86) -0.1881(38) -0.0865(17) 0.0343 Uiso
O1O O 0.70936(86) 0.3119(38) 1.0865(17) 0.0343 Uiso
O1C O 0.70936(86) 0.3119(38) 0.9135(17) 0.0343 Uiso
O1I_2 O 0.79064(86) 0.1881(38) 1.0865(17) 0.0343 Uiso
O1K O 1.29064(86) -0.3119(38) 0.0865(17) 0.0343 Uiso
O1G O 1.29064(86) -0.3119(38) -0.0865(17) 0.0343 Uiso
Ga1H_2 Ga 1.250 -0.250 1 0.0343 Uiso
Ga1B Ga 1.250 0.250 0 0.0343 Uiso
Ga1B_2 Ga 1.250 0.250 1 0.0343 Uiso
Ga1O Ga 0.750 0.250 0 0.0343 Uiso
Ga1D Ga 0.750 -0.250 0 0.0343 Uiso
Ga1D_2 Ga 0.750 -0.250 1 0.0343 Uiso
Ga1D_3 Ga 0.750 0.750 1 0.0343 Uiso
O2H O 1.2735(25) 0.000 0 0.0343 Uiso
O2F O 1.2265(25) -0.500 0 0.0343 Uiso
loop_
_geom_bond_atom_site_label_1
_geom_bond_atom_site_label_2
_geom_bond_site_symmetry_1
_geom_bond_site_symmetry_2
O1 C10 1_555 1_555
C1 C2 1_555 1_555
C2 C9 1_555 1_555
C3 C4 1_555 1_555
C4 C4A 1_555 1_555
C5 C6 1_555 1_555
C6 C6E 1_555 1_555
C7 C3 1_555 1_555
C8 C1 1_555 1_555
C9 C10 1_555 1_555
C10 O1J 1_555 1_555
N1 C3 1_555 1_555
N2 C5 1_555 1_555
Ga1 O1 1_555 1_555
O2 Ga1 1_555 1_555
O1A C10A 1_555 1_555
C1A C2A 1_555 1_555
C2A C9A 1_555 1_555
C3A N1 1_555 1_555
C4A C3A 1_555 1_555
C5A C6A 1_555 1_555
C6A C6H 1_555 1_555
C7A C3A 1_555 1_555
C8A C1A 1_555 1_555
C9A C10A 1_555 1_555
C10A O1M 1_555 1_555
N2H C5A 1_555 1_555
O1M Ga1B_2 1_555 1_555
C1M C8A 1_555 1_555
C2M C9A 1_555 1_555
O1E C10E 1_555 1_555
C1E C2E 1_555 1_555
C2E C9E 1_555 1_555
C3E C4E 1_555 1_555
C4E C4H 1_555 1_555
C5E N2 1_555 1_555
C6E C5E 1_555 1_555
C7E C3E 1_555 1_555
C8E C1E 1_555 1_555
C9E C10E 1_555 1_555
C10E O1I 1_555 1_555
N1H C3E 1_555 1_555
O1J Ga1D_2 1_555 1_555
C1J C8 1_555 1_555
C2J C9 1_555 1_555
O1I Ga1O 1_555 1_555
C1I C8E 1_555 1_555
C2I C9E 1_555 1_555
O1H C10H 1_555 1_555
C1H C2H 1_555 1_555
C2H C9H 1_555 1_555
C3H N1H 1_555 1_555
C4H C3H 1_555 1_555
C5H N2H 1_555 1_555
C6H C5H 1_555 1_555
C7H C3H 1_555 1_555
C8H C1H 1_555 1_555
C9H C10H 1_555 1_555
C10H O1B 1_555 1_555
O1B Ga1B 1_555 1_555
C1B C8H 1_555 1_555
C2B C9H 1_555 1_555
Ga1H O1H 1_555 1_555
O2O Ga1 1_555 1_555
O1A_2 Ga1H 1_555 1_555
O1O Ga1 1_555 1_555
O1C Ga1 1_555 1_555
O1I_2 Ga1 1_555 1_555
O1K Ga1H 1_555 1_555
O1G Ga1H 1_555 1_555
Ga1H_2 O1A 1_555 1_555
Ga1B O2H 1_555 1_555
Ga1D O1E 1_555 1_555
Ga1D_2 O2 1_555 1_555
Ga1D_3 O2O 1_555 1_555
O2H Ga1H 1_555 1_555
O2F Ga1H 1_555 1_555
C5 C7 1_555 1_555
C7 C8 1_555 1_555
C5A C7A 1_555 1_555
C7A C8A 1_555 1_555
C1M C2M 1_555 1_555
C5E C7E 1_555 1_555
C7E C8E 1_555 1_555
C1J C2J 1_555 1_555
C1I C2I 1_555 1_555
C5H C7H 1_555 1_555
C7H C8H 1_555 1_555
C1B C2B 1_555 1_555

#END
