
#######################################################################
#
#                 Cambridge Crystallographic Data Centre
#                                CCDC 
#
#######################################################################
#
# If this CIF has been generated from an entry in the Cambridge 
# Structural Database, then it will include bibliographic, chemical, 
# crystal, experimental, refinement or atomic coordinate data resulting 
# from the CCDC's data processing and validation procedures.
#
#######################################################################

data_EBEXIV
_chemical_formula_moiety         '(C16 H40 N2 O12 P4 Zn3)n'
_symmetry_cell_setting           rhombohedral
_symmetry_space_group_name_H-M   'R -3'
_symmetry_Int_Tables_number      148
_space_group_name_Hall           '-R 3'
loop_
_symmetry_equiv_pos_site_id
_symmetry_equiv_pos_as_xyz
1 x,y,z
2 -y,x-y,z
3 -x+y,-x,z
4 2/3+x,1/3+y,1/3+z
5 2/3-y,1/3+x-y,1/3+z
6 2/3-x+y,1/3-x,1/3+z
7 1/3+x,2/3+y,2/3+z
8 1/3-y,2/3+x-y,2/3+z
9 1/3-x+y,2/3-x,2/3+z
10 -x,-y,-z
11 y,-x+y,-z
12 x-y,x,-z
13 1/3-x,2/3-y,2/3-z
14 1/3+y,2/3-x+y,2/3-z
15 1/3+x-y,2/3+x,2/3-z
16 2/3-x,1/3-y,1/3-z
17 2/3+y,1/3-x+y,1/3-z
18 2/3+x-y,1/3+x,1/3-z
_cell_length_a                   33.9287(3)
_cell_length_b                   33.9287(3)
_cell_length_c                   13.65790(10)
_cell_angle_alpha                90
_cell_angle_beta                 90
_cell_angle_gamma                120
_cell_volume                     13616
loop_
_atom_site_label
_atom_site_type_symbol
_atom_site_fract_x
_atom_site_fract_y
_atom_site_fract_z
Zn1 Zn 1.006652(19) 0.30051(2) 0.09770(4)
O1 O 1.04282(12) 0.35762(12) 0.1683(2)
O2 O 0.95576(12) 0.25302(13) 0.1690(3)
O3 O 1.05018(16) 0.28265(17) 0.0576(3)
O4 O 0.98327(14) 0.30841(24) -0.0251(3)
P1 P 1.04046(4) 0.36810(5) 0.27530(9)
P2 P 0.90458(5) 0.22890(5) 0.15465(9)
P3 P 1.07681(5) 0.26677(5) 0.11807(10)
O5 O 1.06646(15) 0.35342(17) 0.3415(3)
H1 H 1.0582 0.4159 0.2846
O6 O 0.88191(14) 0.19400(15) 0.2340(3)
O7 O 0.89151(13) 0.20926(15) 0.0535(3)
H2 H 0.8903 0.2623 0.1771
O8 O 1.07666(15) 0.27585(15) 0.2269(3)
O9 O 1.12340(16) 0.28237(22) 0.0757(3)
H3 H 1.0613 0.2282 0.1251
Zn2 Zn 1.10695(2) 0.33025(2) 0.30487(4)
Zn3 Zn 0.83477(2) 0.16823(2) 0.32996(4)
O10 O 1.11948(16) 0.31562(17) 0.4347(3)
O11 O 1.15903(15) 0.38038(16) 0.2464(4)
O12 O 0.81291(27) 0.1967(2) -0.0864(3)
P4 P 1.13322(5) 0.28230(5) 0.47078(9)
H4 H 1.1017 0.2381 0.4502
O4E O 0.99181(28) 0.35006(14) 0.3082(3)
Zn1E Zn 0.960525(28) 0.326681(19) 0.43103(4)
Zn3O Zn 0.83190(2) 0.16510(2) 0.00337(4)
Zn3G Zn 1.16510(2) 0.33321(3) -0.00337(4)
O6O O 0.78476(14) 0.13933(15) 0.0993(3)
O9K O 0.84103(27) 0.12340(16) -0.0757(3)
O11L O 1.17430(15) 0.28629(16) 0.4203(4)
O12G O 1.1366(2) 0.28288(34) 0.5803(3)
Zn2L Zn 1.22638(2) 0.33642(2) 0.36180(4)
Zn3J Zn 1.16823(2) 0.33346(3) 0.67004(4)
N1 N 0.7006(5) 0.1097(3) -0.0264(6)
C1 C 0.6889(4) 0.1402(3) -0.0256(5)
C2 C 0.6788(3) 0.1552(3) -0.1224(6)
C3 C 0.6549(5) 0.1829(5) -0.1235(11)
C4 C 0.6786(4) 0.2317(4) -0.1076(13)
C5 C 0.7075(6) 0.2531(4) -0.0114(15)
C6 C 0.7471(6) 0.2425(7) 0.0101(16)
C7 C 0.7323(8) 0.2068(6) 0.0740(12)
C8 C 0.6945(4) 0.1659(3) 0.0664(6)
H5 H 0.7108 0.1049 0.0294
H6 H 0.6901 0.0884 -0.0674
H7 H 0.7345 0.1302 -0.0593
H8 H 0.6552 0.1142 -0.0116
H9 H 0.6455 0.1393 -0.1311
H10 H 0.6889 0.1414 -0.1707
H11 H 0.6304 0.1696 -0.0723
H12 H 0.6372 0.1761 -0.1841
H13 H 0.6604 0.2455 -0.1181
H14 H 0.7029 0.2462 -0.1602
H15 H 0.6861 0.2418 0.0455
H16 H 0.7193 0.2869 -0.0078
H17 H 0.7763 0.2698 0.0285
H18 H 0.7558 0.2335 -0.0545
H19 H 0.7330 0.2208 0.1385
H20 H 0.7585 0.2008 0.0832
H21 H 0.6903 0.1465 0.1215
H22 H 0.6680 0.1715 0.0720
N2 N 1.1153(2) 0.3876(2) 0.5392(4)
C9 C 1.1396(5) 0.4365(3) 0.5358(8)
C10 C 1.1593(6) 0.4589(4) 0.6267(9)
C11 C 1.1793(8) 0.5091(6) 0.6300(16)
C12 C 1.2271(6) 0.5381(6) 0.6054(13)
C13 C 1.2438(6) 0.5347(8) 0.510(3)
C14 C 1.2281(10) 0.5117(15) 0.4282(16)
C15 C 1.1859(13) 0.4678(15) 0.416(2)
C16 C 1.1482(9) 0.4586(8) 0.4485(17)
H23 H 1.1042 0.3753 0.4799
H24 H 1.1342 0.3772 0.5596
H25 H 1.0923 0.3782 0.5821
loop_
_geom_bond_atom_site_label_1
_geom_bond_atom_site_label_2
_geom_bond_site_symmetry_1
_geom_bond_site_symmetry_2
Zn1 O1 1_555 1_555
O1 P1 1_555 1_555
O2 Zn1 1_555 1_555
O3 Zn1 1_555 1_555
O4 Zn1 1_555 1_555
P1 O5 1_555 1_555
P2 O2 1_555 1_555
P3 O3 1_555 1_555
O5 Zn2 1_555 1_555
H1 P1 1_555 1_555
O6 P2 1_555 1_555
O7 P2 1_555 1_555
H2 P2 1_555 1_555
O8 P3 1_555 1_555
O9 P3 1_555 1_555
H3 P3 1_555 1_555
Zn2 O8 1_555 1_555
Zn3 O6 1_555 1_555
O10 Zn2 1_555 1_555
O11 Zn2 1_555 1_555
O12 Zn3O 1_555 1_555
P4 O10 1_555 1_555
H4 P4 1_555 1_555
N1 C1 1_555 1_555
C1 C2 1_555 1_555
C2 C3 1_555 1_555
C3 C4 1_555 1_555
C4 C5 1_555 1_555
C5 C6 1_555 1_555
C6 C7 1_555 1_555
C7 C8 1_555 1_555
C8 C1 1_555 1_555
H5 N1 1_555 1_555
H6 N1 1_555 1_555
H7 N1 1_555 1_555
H8 C1 1_555 1_555
H9 C2 1_555 1_555
H10 C2 1_555 1_555
H11 C3 1_555 1_555
H12 C3 1_555 1_555
H13 C4 1_555 1_555
H14 C4 1_555 1_555
H15 C5 1_555 1_555
H16 C5 1_555 1_555
H17 C6 1_555 1_555
H18 C6 1_555 1_555
H19 C7 1_555 1_555
H20 C7 1_555 1_555
H21 C8 1_555 1_555
H22 C8 1_555 1_555
N2 C9 1_555 1_555
C9 C10 1_555 1_555
C10 C11 1_555 1_555
C11 C12 1_555 1_555
C12 C13 1_555 1_555
C13 C14 1_555 1_555
C14 C15 1_555 1_555
C15 C16 1_555 1_555
C16 C9 1_555 1_555
H23 N2 1_555 1_555
H24 N2 1_555 1_555
H25 N2 1_555 1_555
O4E P1 1_555 1_555
Zn1E O4E 1_555 1_555
Zn3O O7 1_555 1_555
Zn3G O9 1_555 1_555
O6O Zn3O 1_555 1_555
O9K Zn3O 1_555 1_555
O11L P4 1_555 1_555
O12G P4 1_555 1_555
Zn2L O11L 1_555 1_555
Zn3J O12G 1_555 1_555

#END
