
#######################################################################
#
#                 Cambridge Crystallographic Data Centre
#                                CCDC 
#
#######################################################################
#
# If this CIF has been generated from an entry in the Cambridge 
# Structural Database, then it will include bibliographic, chemical, 
# crystal, experimental, refinement or atomic coordinate data resulting 
# from the CCDC's data processing and validation procedures.
#
#######################################################################

data_EBEXER
_chemical_formula_moiety         '(H4 O13 P4 Zn3 2-)n'
_symmetry_cell_setting           rhombohedral
_symmetry_space_group_name_H-M   'R -3'
_symmetry_Int_Tables_number      148
_space_group_name_Hall           '-R 3'
loop_
_symmetry_equiv_pos_site_id
_symmetry_equiv_pos_as_xyz
1 x,y,z
2 -y,x-y,z
3 -x+y,-x,z
4 2/3+x,1/3+y,1/3+z
5 2/3-y,1/3+x-y,1/3+z
6 2/3-x+y,1/3-x,1/3+z
7 1/3+x,2/3+y,2/3+z
8 1/3-y,2/3+x-y,2/3+z
9 1/3-x+y,2/3-x,2/3+z
10 -x,-y,-z
11 y,-x+y,-z
12 x-y,x,-z
13 1/3-x,2/3-y,2/3-z
14 1/3+y,2/3-x+y,2/3-z
15 1/3+x-y,2/3+x,2/3-z
16 2/3-x,1/3-y,1/3-z
17 2/3+y,1/3-x+y,1/3-z
18 2/3+x-y,1/3+x,1/3-z
_cell_length_a                   32.8755(9)
_cell_length_b                   32.8755(9)
_cell_length_c                   13.2082(5)
_cell_angle_alpha                90
_cell_angle_beta                 90
_cell_angle_gamma                120
_cell_volume                     12362.9
loop_
_atom_site_label
_atom_site_type_symbol
_atom_site_fract_x
_atom_site_fract_y
_atom_site_fract_z
Zn1 Zn 0.325049(11) -0.041200(11) 0.08309(2)
Zn2 Zn 0.329267(14) 0.104490(12) 0.19568(3)
Zn3 Zn 0.496446(13) -0.005249(16) -0.16637(3)
P1 P 0.37212(3) 0.04136(2) 0.23795(5)
P2 P 0.42579(3) -0.01220(3) 0.01083(5)
P3 P 0.26400(3) 0.07719(3) 0.38644(6)
P4 P 0.27606(3) 0.12873(3) 0.03551(6)
O1 O 0.35230(7) -0.00955(7) 0.20982(14)
O2 O 0.35915(9) 0.06747(8) 0.16308(15)
O3 O 0.35938(7) 0.04682(7) 0.34633(14)
O4 O 0.37320(7) -0.04162(8) 0.00229(16)
O5 O 0.44674(9) -0.02873(10) -0.06897(17)
O6 O 0.44168(8) -0.01382(11) 0.11685(16)
O7 O 0.27318(8) 0.07076(8) 0.27700(15)
O8 O 0.28384(9) 0.12779(8) 0.41735(18)
O9 O 0.27826(8) 0.05083(8) 0.45822(15)
O10 O 0.30703(11) 0.10881(10) 0.06102(17)
O11 O 0.27542(10) 0.13629(12) -0.07610(19)
O12 O 0.28564(10) 0.17022(9) 0.0982(2)
O13 O 0.44212(19) 0.03882(18) -0.0099(3)
H1 H 0.4216 0.0643 0.2351
H2 H 0.2156 0.0580 0.3895
H3 H 0.2295 0.0946 0.0687
Zn1E Zn 0.300418(16) 0.008284(11) 0.41642(2)
Zn2O Zn 0.337400(14) 0.228843(12) 0.13765(3)
Zn3G Zn 0.338582(16) 0.168362(21) 0.50030(3)
Zn3I Zn 0.503554(13) 0.005249(16) 0.16637(3)
Zn3M Zn 0.328084(16) 0.164972(21) -0.16696(3)
O3G O 0.28651(7) -0.02077(10) 0.01300(14)
O6I O 0.55832(8) 0.01382(11) -0.11685(16)
O8E O 0.51062(12) 0.04949(9) -0.24932(18)
O9G O 0.28250(8) -0.10590(11) 0.12489(15)
O11N O 0.47246(16) -0.05791(10) -0.25723(19)
O12O O 0.38103(10) 0.16311(9) 0.2351(2)
loop_
_geom_bond_atom_site_label_1
_geom_bond_atom_site_label_2
_geom_bond_site_symmetry_1
_geom_bond_site_symmetry_2
Zn1 O1 1_555 1_555
Zn2 O2 1_555 1_555
Zn3 O5 1_555 1_555
P1 O1 1_555 1_555
P2 O4 1_555 1_555
P3 O7 1_555 1_555
P4 O10 1_555 1_555
O2 P1 1_555 1_555
O3 P1 1_555 1_555
O4 Zn1 1_555 1_555
O5 P2 1_555 1_555
O6 P2 1_555 1_555
O7 Zn2 1_555 1_555
O8 P3 1_555 1_555
O9 P3 1_555 1_555
O10 Zn2 1_555 1_555
O11 P4 1_555 1_555
O12 P4 1_555 1_555
O13 P2 1_555 1_555
H1 P1 1_555 1_555
H2 P3 1_555 1_555
H3 P4 1_555 1_555
Zn1E O3 1_555 1_555
Zn2O O12 1_555 1_555
Zn3G O8 1_555 1_555
Zn3I O6 1_555 1_555
Zn3M O11 1_555 1_555
O3G Zn1 1_555 1_555
O6I Zn3 1_555 1_555
O8E Zn3 1_555 1_555
O9G Zn1 1_555 1_555
O11N Zn3 1_555 1_555
O12O Zn2 1_555 1_555
O9 Zn1E 1_555 1_555

#END
