
#######################################################################
#
#                 Cambridge Crystallographic Data Centre
#                                CCDC 
#
#######################################################################
#
# If this CIF has been generated from an entry in the Cambridge 
# Structural Database, then it will include bibliographic, chemical, 
# crystal, experimental, refinement or atomic coordinate data resulting 
# from the CCDC's data processing and validation procedures.
#
#######################################################################

data_ENIHUG01
_chemical_formula_moiety         '(C27 H17 Cu2 N1 O10)n'
_symmetry_cell_setting           rhombohedral
_symmetry_space_group_name_H-M   'R 3 m'
_symmetry_Int_Tables_number      160
_space_group_name_Hall           'R 3 -2"'
loop_
_symmetry_equiv_pos_site_id
_symmetry_equiv_pos_as_xyz
1 x,y,z
2 -y,x-y,z
3 -x+y,-x,z
4 -x+y,y,z
5 x,x-y,z
6 -y,-x,z
7 2/3+x,1/3+y,1/3+z
8 2/3-y,1/3+x-y,1/3+z
9 2/3-x+y,1/3-x,1/3+z
10 2/3-x+y,1/3+y,1/3+z
11 2/3+x,1/3+x-y,1/3+z
12 2/3-y,1/3-x,1/3+z
13 1/3+x,2/3+y,2/3+z
14 1/3-y,2/3+x-y,2/3+z
15 1/3-x+y,2/3-x,2/3+z
16 1/3-x+y,2/3+y,2/3+z
17 1/3+x,2/3+x-y,2/3+z
18 1/3-y,2/3-x,2/3+z
_cell_length_a                   26.221(7)
_cell_length_b                   26.221(7)
_cell_length_c                   26.020(11)
_cell_angle_alpha                90
_cell_angle_beta                 90
_cell_angle_gamma                120
_cell_volume                     15493
loop_
_atom_site_label
_atom_site_type_symbol
_atom_site_fract_x
_atom_site_fract_y
_atom_site_fract_z
Cu1 Cu 0.227504(14) -0.227504(14) 0.17367(3)
Cu2 Cu 0.197874(13) -0.197874(13) 0.26203(3)
O1 O 0.25103(13) -0.14548(13) 0.15741(13)
O2 O 0.22509(15) -0.12160(12) 0.23063(15)
O3 O 0.50697(13) 0.11796(13) -0.05410(14)
O4 O 0.53444(15) 0.17116(13) -0.12884(14)
O5 O 0.24630(10) -0.24630(10) 0.09927(18)
O6 O 0.17693(10) -0.17693(10) 0.33466(19)
N1 N 0.3074(3) 0.15371(14) 0.1226(2)
C1 C 0.2476(2) -0.1096(2) 0.1878(2)
C2 C 0.26564(19) -0.0496(2) 0.1636(3)
C3 C 0.2848(3) -0.0374(2) 0.1158(2)
H1 H 0.2859 -0.0667 0.0951
C4 C 0.3026(3) 0.0154(2) 0.0966(2)
H2 H 0.3150 0.0226 0.0617
C5 C 0.3039(2) 0.0606(2) 0.1244(2)
C6 C 0.2828(2) 0.0483(2) 0.1715(2)
H3 H 0.2809 0.0776 0.1915
C7 C 0.2631(2) -0.0079(2) 0.1922(2)
H4 H 0.2481 -0.0166 0.2263
C8 C 0.3266(3) 0.1183(2) 0.1026(2)
C9 C 0.3728(2) 0.13906(19) 0.0647(2)
H5 H 0.3879 0.1145 0.0540
C10 C 0.3965(3) 0.19824(15) 0.0428(3)
C11 C 0.4357(3) 0.21784(15) 0.0033(3)
C12 C 0.4556(2) 0.1828(2) -0.0184(2)
H6 H 0.4439 0.1453 -0.0039
C13 C 0.4933(2) 0.20206(19) -0.0619(2)
C14 C 0.5126(2) 0.1617(2) -0.0834(3)
C15 C 0.5106(2) 0.25530(12) -0.0866(3)
H7 H 0.5325 0.2662 -0.1177
O1D O 0.25103(13) 0.39651(18) 0.15741(13)
O2D O 0.22509(15) 0.34669(19) 0.23063(15)
O3D O 0.50697(13) 0.38901(18) -0.05410(14)
O4D O 0.53444(15) 0.36328(20) -0.12884(14)
C1D C 0.2476(2) 0.3572(3) 0.1878(2)
C2D C 0.26564(19) 0.31524(28) 0.1636(3)
C3D C 0.2848(3) 0.3222(4) 0.1158(2)
H1D H 0.2859 0.3526 0.0951
C4D C 0.3026(3) 0.2872(4) 0.0966(2)
H2D H 0.3150 0.2924 0.0617
C5D C 0.3039(2) 0.2433(3) 0.1244(2)
C6D C 0.2828(2) 0.2345(3) 0.1715(2)
H3D H 0.2809 0.2033 0.1915
C7D C 0.2631(2) 0.2710(3) 0.1922(2)
H4D H 0.2481 0.2647 0.2263
C8D C 0.3266(3) 0.2083(4) 0.1026(2)
C9D C 0.3728(2) 0.23374(28) 0.0647(2)
H5D H 0.3879 0.2734 0.0540
C12D C 0.4556(2) 0.2728(3) -0.0184(2)
H6D H 0.4439 0.2986 -0.0039
C13D C 0.4933(2) 0.29124(28) -0.0619(2)
C14D C 0.5126(2) 0.3509(3) -0.0834(3)
Cu1A Cu 0.227504(14) 0.455008(20) 0.17367(3)
Cu1L Cu 0.560837(14) 0.439163(14) -0.15966(3)
Cu1M Cu 0.560837(14) 0.121675(20) -0.15966(3)
Cu2A Cu 0.197874(13) 0.395748(18) 0.26203(3)
Cu2L Cu 0.531207(13) 0.468793(13) -0.07130(3)
Cu2M Cu 0.531207(13) 0.062415(18) -0.07130(3)
O1E O 0.14548(13) -0.25103(13) 0.15741(13)
O2E O 0.12160(12) -0.22509(15) 0.23063(15)
O3H O 0.27766(18) -0.17364(13) 0.27923(14)
O3J O 0.17364(13) -0.27766(18) 0.27923(14)
O4H O 0.30339(20) -0.20111(15) 0.20449(14)
O4J O 0.20111(15) -0.30339(20) 0.20449(14)
loop_
_geom_bond_atom_site_label_1
_geom_bond_atom_site_label_2
_geom_bond_site_symmetry_1
_geom_bond_site_symmetry_2
Cu1 O1 1_555 1_555
Cu2 O2 1_555 1_555
O1 C1 1_555 1_555
O2 C1 1_555 1_555
O3 C14 1_555 1_555
O4 C14 1_555 1_555
O5 Cu1 1_555 1_555
O6 Cu2 1_555 1_555
N1 C8 1_555 1_555
C1 C2 1_555 1_555
C2 C3 1_555 1_555
C3 H1 1_555 1_555
C4 C3 1_555 1_555
H2 C4 1_555 1_555
C5 C4 1_555 1_555
C6 C5 1_555 1_555
H3 C6 1_555 1_555
C7 C2 1_555 1_555
H4 C7 1_555 1_555
C8 C5 1_555 1_555
C9 C8 1_555 1_555
H5 C9 1_555 1_555
C10 C9 1_555 1_555
C11 C10 1_555 1_555
C12 C11 1_555 1_555
H6 C12 1_555 1_555
C13 C12 1_555 1_555
C14 C13 1_555 1_555
C15 C13 1_555 1_555
H7 C15 1_555 1_555
O1D C1D 1_555 1_555
O2D C1D 1_555 1_555
O3D C14D 1_555 1_555
O4D C14D 1_555 1_555
C1D C2D 1_555 1_555
C2D C3D 1_555 1_555
C3D H1D 1_555 1_555
C4D C3D 1_555 1_555
H2D C4D 1_555 1_555
C5D C4D 1_555 1_555
C6D C5D 1_555 1_555
H3D C6D 1_555 1_555
C7D C2D 1_555 1_555
H4D C7D 1_555 1_555
C8D N1 1_555 1_555
C9D C10 1_555 1_555
H5D C9D 1_555 1_555
C12D C11 1_555 1_555
H6D C12D 1_555 1_555
C13D C15 1_555 1_555
C14D C13D 1_555 1_555
Cu1A O1D 1_555 1_555
Cu1L O4D 1_555 1_555
Cu1M O4 1_555 1_555
Cu2A O2D 1_555 1_555
Cu2L O3D 1_555 1_555
Cu2M O3 1_555 1_555
O1E Cu1 1_555 1_555
O2E Cu2 1_555 1_555
O3H Cu2 1_555 1_555
O3J Cu2 1_555 1_555
O4H Cu1 1_555 1_555
O4J Cu1 1_555 1_555
C6 C7 1_555 1_555
C5D C8D 1_555 1_555
C6D C7D 1_555 1_555
C8D C9D 1_555 1_555
C12D C13D 1_555 1_555

#END
