
#######################################################################
#
#                 Cambridge Crystallographic Data Centre
#                                CCDC 
#
#######################################################################
#
# If this CIF has been generated from an entry in the Cambridge 
# Structural Database, then it will include bibliographic, chemical, 
# crystal, experimental, refinement or atomic coordinate data resulting 
# from the CCDC's data processing and validation procedures.
#
#######################################################################

data_BADHOG
_chemical_formula_moiety         '(C26 H20 O12 Sc2)n'
_symmetry_cell_setting           orthorhombic
_symmetry_space_group_name_H-M   'F d d d'
_symmetry_Int_Tables_number      70
_space_group_name_Hall           '-F 2uv 2vw'
loop_
_symmetry_equiv_pos_site_id
_symmetry_equiv_pos_as_xyz
1 x,y,z
2 3/4-x,3/4-y,z
3 3/4-x,y,3/4-z
4 x,3/4-y,3/4-z
5 x,1/2+y,1/2+z
6 3/4-x,1/4-y,1/2+z
7 3/4-x,1/2+y,1/4-z
8 x,1/4-y,1/4-z
9 1/2+x,y,1/2+z
10 1/4-x,3/4-y,1/2+z
11 1/4-x,y,1/4-z
12 1/2+x,3/4-y,1/4-z
13 1/2+x,1/2+y,z
14 1/4-x,1/4-y,z
15 1/4-x,1/2+y,3/4-z
16 1/2+x,1/4-y,3/4-z
17 -x,-y,-z
18 1/4+x,1/4+y,-z
19 1/4+x,-y,1/4+z
20 -x,1/4+y,1/4+z
21 -x,1/2-y,1/2-z
22 1/4+x,3/4+y,1/2-z
23 1/4+x,1/2-y,3/4+z
24 -x,3/4+y,3/4+z
25 1/2-x,-y,1/2-z
26 3/4+x,1/4+y,1/2-z
27 3/4+x,-y,3/4+z
28 1/2-x,1/4+y,3/4+z
29 1/2-x,1/2-y,-z
30 3/4+x,3/4+y,-z
31 3/4+x,1/2-y,1/4+z
32 1/2-x,3/4+y,1/4+z
_cell_length_a                   8.8639(14)
_cell_length_b                   20.659(2)
_cell_length_c                   34.061(4)
_cell_angle_alpha                90
_cell_angle_beta                 90
_cell_angle_gamma                90
_cell_volume                     6237.23
loop_
_atom_site_label
_atom_site_type_symbol
_atom_site_fract_x
_atom_site_fract_y
_atom_site_fract_z
Sc1 Sc 0.3750 0.3750 0.61412(3)
O1 O 0.7392(5) 0.33332(16) 0.67937(9)
O2 O 0.5065(5) 0.45795(14) 0.61500(11)
O3 O 0.5052(5) 0.33500(17) 0.65711(10)
C1 C 0.6033(7) 0.3203(2) 0.68237(13)
C2 C 0.5471(7) 0.2844(2) 0.71753(13)
C3 C 0.6250 0.5583(3) 0.6250
C4 C 0.6250 0.4854(3) 0.6250
C5 C 0.5997(7) 0.2323(3) 0.77878(14)
H1 H 0.6683 0.2200 0.7980
C6 C 0.6497(7) 0.2678(3) 0.74641(14)
H2 H 0.7503 0.2801 0.7443
C7 C 0.7595(8) 0.5910(2) 0.62523(18)
H3 H 0.8501 0.5683 0.6257
O1T O 0.2608(5) 0.16668(16) 0.82063(9)
O3T O 0.4948(5) 0.16500(17) 0.84289(10)
C1T C 0.3967(7) 0.1797(2) 0.81763(13)
C2T C 0.4529(7) 0.2156(2) 0.78247(13)
C5T C 0.4003(7) 0.2677(3) 0.72122(14)
H1T H 0.3317 0.2800 0.7020
C6T C 0.3503(7) 0.2322(3) 0.75359(14)
H2T H 0.2497 0.2199 0.7557
O2G O 0.5065(5) 0.79205(14) 0.63500(11)
C3G C 0.6250 0.6917(3) 0.6250
C4G C 0.6250 0.7646(3) 0.6250
C7G C 0.7595(8) 0.6590(2) 0.62477(18)
H3G H 0.8501 0.6817 0.6243
O2J O 0.7435(5) 0.45795(14) 0.63500(11)
C7J C 0.4905(8) 0.5910(2) 0.62477(18)
H3J H 0.3999 0.5683 0.6243
O2M O 0.7435(5) 0.79205(14) 0.61500(11)
C7M C 0.4905(8) 0.6590(2) 0.62523(18)
H3M H 0.3999 0.6817 0.6257
O1A O 0.0108(5) 0.41668(16) 0.67937(9)
O3A O 0.2448(5) 0.41500(17) 0.65711(10)
C1A C 0.1467(7) 0.4297(2) 0.68237(13)
C2A C 0.2029(7) 0.4656(2) 0.71753(13)
C5A C 0.1503(7) 0.5177(3) 0.77878(14)
H1A H 0.0817 0.5300 0.7980
C6A C 0.1003(7) 0.4822(3) 0.74641(14)
H2A H -0.0003 0.4699 0.7443
O1Y O 0.4892(5) 0.58332(16) 0.82063(9)
O3Y O 0.2552(5) 0.58500(17) 0.84289(10)
C1Y C 0.3533(7) 0.5703(2) 0.81763(13)
C2Y C 0.2971(7) 0.5344(2) 0.78247(13)
C5Y C 0.3497(7) 0.4823(3) 0.72122(14)
H1Y H 0.4183 0.4700 0.7020
C6Y C 0.3997(7) 0.5178(3) 0.75359(14)
H2Y H 0.5003 0.5301 0.7557
Sc1J Sc 0.8750 0.3750 0.63588(3)
Sc1F Sc 0.3750 0.8750 0.63588(3)
Sc1J_2 Sc -0.1250 0.3750 0.63588(3)
Sc1L Sc 0.8750 0.8750 0.61412(3)
Sc1R Sc 0.6250 0.6250 0.86412(3)
Sc1T Sc 0.6250 0.1250 0.88588(3)
Sc1X Sc 0.1250 0.6250 0.88588(3)
Sc1DA Sc 0.1250 0.1250 0.86412(3)
O1A_2 O 1.0108(5) 0.41668(16) 0.67937(9)
O1J O 0.5108(5) 0.33332(16) 0.57063(9)
O1K O 0.2392(5) 0.41668(16) 0.57063(9)
O2A O 0.2435(5) 0.29205(14) 0.61500(11)
O2K O 1.0065(5) 0.29205(14) 0.63500(11)
O3J O 0.7448(5) 0.33500(17) 0.59289(10)
O3K O 1.0052(5) 0.41500(17) 0.59289(10)
C8 C 1.1250 0.6250 0.6795(4)
H4 H 1.065(8) 0.657(3) 0.6916(10)
H5 H 1.180(7) 0.644(3) 0.6585(14)
H4M H 1.185(8) 0.593(3) 0.6916(10)
H5M H 1.070(7) 0.606(3) 0.6585(14)
C9 C 1.0273(17) 0.3203(6) 0.7739(3)
H6 H 1.060(10) 0.323(4) 0.7475(8)
H7 H 0.991(10) 0.2780(18) 0.779(2)
H8 H 1.110(6) 0.330(4) 0.7909(19)
H9 H 0.949(7) 0.351(3) 0.778(2)
loop_
_geom_bond_atom_site_label_1
_geom_bond_atom_site_label_2
_geom_bond_site_symmetry_1
_geom_bond_site_symmetry_2
Sc1 O2 1_555 1_555
O1 C1 1_555 1_555
O2 C4 1_555 1_555
O3 Sc1 1_555 1_555
C1 O3 1_555 1_555
C2 C1 1_555 1_555
C3 C4 1_555 1_555
C4 O2J 1_555 1_555
C5 H1 1_555 1_555
C6 C2 1_555 1_555
H2 C6 1_555 1_555
C7 C3 1_555 1_555
H3 C7 1_555 1_555
C8 H4 1_555 1_555
H5 C8 1_555 1_555
C9 H6 1_555 1_555
H7 C9 1_555 1_555
H8 C9 1_555 1_555
H9 C9 1_555 1_555
O1T C1T 1_555 1_555
O3T C1T 1_555 1_555
C1T C2T 1_555 1_555
C2T C5 1_555 1_555
C5T C2 1_555 1_555
H1T C5T 1_555 1_555
C6T C2T 1_555 1_555
H2T C6T 1_555 1_555
O2G C4G 1_555 1_555
C3G C4G 1_555 1_555
C4G O2M 1_555 1_555
C7G C7 1_555 1_555
H3G C7G 1_555 1_555
O2J Sc1J 1_555 1_555
C7J C3 1_555 1_555
H3J C7J 1_555 1_555
O2M Sc1L 1_555 1_555
C7M C3G 1_555 1_555
H3M C7M 1_555 1_555
O1A C1A 1_555 1_555
O3A Sc1 1_555 1_555
C1A O3A 1_555 1_555
C2A C1A 1_555 1_555
C5A H1A 1_555 1_555
C6A C2A 1_555 1_555
H2A C6A 1_555 1_555
O1Y C1Y 1_555 1_555
O3Y C1Y 1_555 1_555
C1Y C2Y 1_555 1_555
C2Y C5A 1_555 1_555
C5Y C2A 1_555 1_555
H1Y C5Y 1_555 1_555
C6Y C2Y 1_555 1_555
H2Y C6Y 1_555 1_555
Sc1J O1 1_555 1_555
Sc1F O2G 1_555 1_555
Sc1J_2 O1A 1_555 1_555
Sc1R O1Y 1_555 1_555
Sc1T O3T 1_555 1_555
Sc1X O3Y 1_555 1_555
Sc1DA O1T 1_555 1_555
O1A_2 Sc1J 1_555 1_555
O1J Sc1 1_555 1_555
O1K Sc1 1_555 1_555
O2A Sc1 1_555 1_555
O2K Sc1J 1_555 1_555
O3J Sc1J 1_555 1_555
O3K Sc1J 1_555 1_555
H4M C8 1_555 1_555
H5M C8 1_555 1_555
C5 C6 1_555 1_555
C5T C6T 1_555 1_555
C3G C7G 1_555 1_555
C7J C7M 1_555 1_555
C5A C6A 1_555 1_555
C5Y C6Y 1_555 1_555

#END
