
#######################################################################
#
#                 Cambridge Crystallographic Data Centre
#                                CCDC 
#
#######################################################################
#
# If this CIF has been generated from an entry in the Cambridge 
# Structural Database, then it will include bibliographic, chemical, 
# crystal, experimental, refinement or atomic coordinate data resulting 
# from the CCDC's data processing and validation procedures.
#
#######################################################################

data_BADJAU
_chemical_formula_moiety         '(C82 H76 O36 Sc6)n'
_symmetry_cell_setting           orthorhombic
_symmetry_space_group_name_H-M   'F d d 2'
_symmetry_Int_Tables_number      43
_space_group_name_Hall           'F 2 -2d'
loop_
_symmetry_equiv_pos_site_id
_symmetry_equiv_pos_as_xyz
1 x,y,z
2 -x,-y,z
3 1/4+x,1/4-y,1/4+z
4 1/4-x,1/4+y,1/4+z
5 x,1/2+y,1/2+z
6 -x,1/2-y,1/2+z
7 1/4+x,3/4-y,3/4+z
8 1/4-x,3/4+y,3/4+z
9 1/2+x,y,1/2+z
10 1/2-x,-y,1/2+z
11 3/4+x,1/4-y,3/4+z
12 3/4-x,1/4+y,3/4+z
13 1/2+x,1/2+y,z
14 1/2-x,1/2-y,z
15 3/4+x,3/4-y,1/4+z
16 3/4-x,3/4+y,1/4+z
_cell_length_a                   8.8824(7)
_cell_length_b                   61.248(3)
_cell_length_c                   33.689(2)
_cell_angle_alpha                90
_cell_angle_beta                 90
_cell_angle_gamma                90
_cell_volume                     18327.8
loop_
_atom_site_label
_atom_site_type_symbol
_atom_site_fract_x
_atom_site_fract_y
_atom_site_fract_z
Sc1 Sc 0.2541(4) -0.41670(3) 0.42633(7)
Sc2 Sc -0.2490(4) -0.41670(3) 0.40467(7)
Sc3 Sc -0.2500 -0.2500 0.42626(9)
Sc4 Sc -0.7500 -0.2500 0.40465(10)
O1 O 0.1213(18) -0.38973(16) 0.4385(4)
O2 O -0.1203(18) -0.39017(14) 0.4198(4)
O3 O 0.121(2) -0.27819(15) 0.4078(5)
O4 O -0.112(2) -0.27704(17) 0.4271(5)
O5 O -0.3838(19) -0.2660(2) 0.4677(4)
O6 O -0.6179(18) -0.2624(2) 0.4478(4)
O7 O -0.6267(17) -0.32747(18) 0.6270(3)
O8 O -0.8641(16) -0.32532(17) 0.6056(3)
O9 O -0.1274(17) -0.35379(15) 0.6186(3)
O10 O -0.3615(16) -0.35310(14) 0.6422(3)
O11 O -0.3759(16) -0.41192(15) 0.4541(3)
O12 O -0.6119(17) -0.40938(17) 0.4758(3)
O13 O 0.1113(18) -0.43527(16) 0.4630(3)
O14 O -0.1168(16) -0.43768(15) 0.4376(3)
O15 O -0.1314(16) -0.4871(2) 0.6325(3)
O16 O -0.3633(18) -0.4878(2) 0.6095(4)
O17 O 0.6170(15) -0.44321(14) 0.3909(3)
O18 O 0.3763(18) -0.44386(14) 0.4114(4)
C1 C 0.002(3) -0.3804(2) 0.4280(5)
C2 C 0.1375(10) -0.34519(14) 0.4248(4)
H1 H 0.2276 -0.3529 0.4240
C3 C 0.1387(10) -0.32252(14) 0.4229(4)
H2 H 0.2296 -0.3151 0.4209
C4 C 0.0040(12) -0.31098(8) 0.4240(4)
C5 C -0.1319(10) -0.32211(13) 0.4270(4)
H3 H -0.2220 -0.3144 0.4278
C6 C -0.1331(10) -0.34478(13) 0.4289(4)
H4 H -0.2240 -0.3522 0.4309
C7 C 0.0016(12) -0.35632(8) 0.4278(4)
C8 C 0.001(3) -0.2872(2) 0.4178(6)
C9 C -0.520(3) -0.2703(4) 0.4699(5)
C10 C -0.6738(13) -0.30827(19) 0.5674(3)
C11 C -0.7740(13) -0.30172(18) 0.5380(3)
H5 H -0.8747 -0.3058 0.5395
C12 C -0.7236(13) -0.28908(19) 0.5064(3)
H6 H -0.7906 -0.2847 0.4868
C13 C -0.5731(14) -0.2830(2) 0.5042(3)
C14 C -0.4729(12) -0.28955(19) 0.5336(3)
H7 H -0.3722 -0.2855 0.5321
C15 C -0.5233(13) -0.30218(18) 0.5652(3)
H8 H -0.4563 -0.3066 0.5849
C16 C -0.727(2) -0.3212(2) 0.6029(4)
C17 C -0.264(3) -0.3583(2) 0.6164(5)
C18 C -0.5194(10) -0.38859(14) 0.5441(3)
H9 H -0.6207 -0.3921 0.5411
C19 C -0.4156(12) -0.39506(14) 0.5155(3)
C20 C -0.2643(11) -0.38981(13) 0.5200(3)
H10 H -0.1949 -0.3941 0.5009
C21 C -0.2169(10) -0.37809(13) 0.5531(3)
H11 H -0.1156 -0.3746 0.5561
C22 C -0.3207(12) -0.37162(15) 0.5816(2)
C23 C -0.4720(11) -0.37687(14) 0.5771(3)
H12 H -0.5414 -0.3725 0.5962
C24 C -0.478(2) -0.4060(2) 0.4793(4)
C25 C -0.022(2) -0.44103(19) 0.4649(4)
C26 C 0.0263(12) -0.45552(17) 0.5322(3)
H13 H 0.1256 -0.4508 0.5304
C27 C -0.0229(13) -0.46634(18) 0.5660(3)
H14 H 0.0434 -0.4688 0.5869
C28 C -0.1712(13) -0.47342(18) 0.5687(3)
C29 C -0.2703(12) -0.46967(18) 0.5375(3)
H15 H -0.3696 -0.4744 0.5393
C30 C -0.2211(13) -0.45886(18) 0.5036(3)
H16 H -0.2874 -0.4564 0.4828
C31 C -0.0727(13) -0.45178(18) 0.5010(3)
C32 C -0.226(3) -0.4837(3) 0.6065(5)
C33 C 0.496(2) -0.45294(19) 0.3992(4)
C34 C 0.4984(18) -0.47762(16) 0.3978(5)
C35 C 0.6330(16) -0.48856(17) 0.3966(4)
H17 H 0.7227 -0.4808 0.3952
C36 C 0.6360(18) -0.51104(17) 0.3976(4)
H18 H 0.7272 -0.5185 0.3981
O17A O 0.3830(15) -0.55679(14) 0.3909(3)
O18A O 0.6237(18) -0.55614(14) 0.4114(4)
C33A C 0.504(2) -0.54706(19) 0.3992(4)
C34A C 0.5016(18) -0.52238(16) 0.3978(5)
C35A C 0.3670(16) -0.51144(17) 0.3966(4)
H17A H 0.2773 -0.5192 0.3952
C36A C 0.3640(18) -0.48896(17) 0.3976(4)
H18A H 0.2728 -0.4815 0.3981
Sc1A Sc -0.2541(4) -0.58330(3) 0.42633(7)
Sc2A Sc 0.2490(4) -0.58330(3) 0.40467(7)
O1A O -0.1213(18) -0.61027(16) 0.4385(4)
O2A O 0.1203(18) -0.60983(14) 0.4198(4)
O3A O -0.121(2) -0.72181(15) 0.4078(5)
O4A O 0.112(2) -0.72296(17) 0.4271(5)
O9A O 0.1274(17) -0.64621(15) 0.6186(3)
O10A O 0.3615(16) -0.64690(14) 0.6422(3)
O11A O 0.3759(16) -0.58808(15) 0.4541(3)
O12A O 0.6119(17) -0.59062(17) 0.4758(3)
O13A O -0.1113(18) -0.56473(16) 0.4630(3)
O14A O 0.1168(16) -0.56232(15) 0.4376(3)
O15A O 0.1314(16) -0.5129(2) 0.6325(3)
O16A O 0.3633(18) -0.5122(2) 0.6095(4)
C1A C -0.002(3) -0.6196(2) 0.4280(5)
C2A C -0.1375(10) -0.65481(14) 0.4248(4)
H1A H -0.2276 -0.6471 0.4240
C3A C -0.1387(10) -0.67748(14) 0.4229(4)
H2A H -0.2296 -0.6849 0.4209
C4A C -0.0040(12) -0.68902(8) 0.4240(4)
C5A C 0.1319(10) -0.67789(13) 0.4270(4)
H3A H 0.2220 -0.6856 0.4278
C6A C 0.1331(10) -0.65522(13) 0.4289(4)
H4A H 0.2240 -0.6478 0.4309
C7A C -0.0016(12) -0.64368(8) 0.4278(4)
C8A C -0.001(3) -0.7128(2) 0.4178(6)
C17A C 0.264(3) -0.6417(2) 0.6164(5)
C18A C 0.5194(10) -0.61141(14) 0.5441(3)
H9A H 0.6207 -0.6079 0.5411
C19A C 0.4156(12) -0.60494(14) 0.5155(3)
C20A C 0.2643(11) -0.61019(13) 0.5200(3)
H10A H 0.1949 -0.6059 0.5009
C21A C 0.2169(10) -0.62191(13) 0.5531(3)
H11A H 0.1156 -0.6254 0.5561
C22A C 0.3207(12) -0.62838(15) 0.5816(2)
C23A C 0.4720(11) -0.62313(14) 0.5771(3)
H12A H 0.5414 -0.6275 0.5962
C24A C 0.478(2) -0.5940(2) 0.4793(4)
C25A C 0.022(2) -0.55897(19) 0.4649(4)
C26A C -0.0263(12) -0.54448(17) 0.5322(3)
H13A H -0.1256 -0.5492 0.5304
C27A C 0.0229(13) -0.53366(18) 0.5660(3)
H14A H -0.0434 -0.5312 0.5869
C28A C 0.1712(13) -0.52658(18) 0.5687(3)
C29A C 0.2703(12) -0.53033(18) 0.5375(3)
H15A H 0.3696 -0.5256 0.5393
C30A C 0.2211(13) -0.54114(18) 0.5036(3)
H16A H 0.2874 -0.5436 0.4828
C31A C 0.0727(13) -0.54822(18) 0.5010(3)
C32A C 0.226(3) -0.5163(3) 0.6065(5)
O5J O 0.3662(19) -0.4840(2) 0.2177(4)
O6J O 0.1321(18) -0.4876(2) 0.1978(4)
O7J O 0.1233(17) -0.42253(18) 0.3770(3)
O8J O -0.1141(16) -0.42468(17) 0.3556(3)
C9J C 0.230(3) -0.4797(4) 0.2199(5)
C10J C 0.0762(13) -0.44173(19) 0.3174(3)
C11J C -0.0240(13) -0.44828(18) 0.2880(3)
H5J H -0.1247 -0.4442 0.2895
C12J C 0.0264(13) -0.46092(19) 0.2564(3)
H6J H -0.0406 -0.4653 0.2368
C13J C 0.1769(14) -0.4670(2) 0.2542(3)
C14J C 0.2771(12) -0.46045(19) 0.2836(3)
H7J H 0.3778 -0.4645 0.2821
C15J C 0.2267(13) -0.44782(18) 0.3152(3)
H8J H 0.2937 -0.4434 0.3349
C16J C 0.023(2) -0.4288(2) 0.3529(4)
Sc1_2 Sc -0.7459(4) -0.41670(3) 0.42633(7)
Sc1A_2 Sc 0.7459(4) -0.58330(3) 0.42633(7)
Sc1B Sc -0.4959(4) -0.33330(3) 0.67633(7)
Sc1O Sc 0.4959(4) -0.66670(3) 0.67633(7)
Sc2_2 Sc 0.7510(4) -0.41670(3) 0.40467(7)
Sc2B Sc -0.9990(4) -0.33330(3) 0.65467(7)
Sc2B_2 Sc 0.0010(4) -0.33330(3) 0.65467(7)
Sc2O Sc -0.0010(4) -0.66670(3) 0.65467(7)
Sc3A Sc 0.2500 -0.7500 0.42626(9)
Sc3B Sc 0.0000 -0.5000 0.67626(9)
Sc3G Sc 0.5000 -0.5000 0.17626(9)
Sc4_2 Sc 0.2500 -0.2500 0.40465(10)
Sc4A Sc -0.2500 -0.7500 0.40465(10)
Sc4B Sc -0.5000 -0.5000 0.65465(10)
Sc4B_2 Sc 0.5000 -0.5000 0.65465(10)
Sc4G Sc -0.0000 -0.5000 0.15465(10)
O3_2 O -0.879(2) -0.27819(15) 0.4078(5)
O3M O -0.621(2) -0.22181(15) 0.4078(5)
O4M O -0.388(2) -0.22296(17) 0.4271(5)
O5M O -0.1162(19) -0.2340(2) 0.4677(4)
O6M O -0.8821(18) -0.2376(2) 0.4478(4)
O7G O -0.1233(17) -0.57747(18) 0.3770(3)
O8G O 0.1141(16) -0.57532(17) 0.3556(3)
O9G O 0.3774(17) -0.60379(15) 0.3686(3)
O9J O -0.3774(17) -0.39621(15) 0.3686(3)
O10G O -0.3885(16) -0.60310(14) 0.3922(3)
O10J O 0.3885(16) -0.39690(14) 0.3922(3)
O12_2 O 0.3881(17) -0.40938(17) 0.4758(3)
O12A_2 O -0.3881(17) -0.59062(17) 0.4758(3)
O15J O -0.3814(16) -0.2629(2) 0.3825(3)
O15K O -0.1186(16) -0.2371(2) 0.3825(3)
O16J O -0.6133(18) -0.2622(2) 0.3595(4)
O16K O -0.8867(18) -0.2378(2) 0.3595(4)
O17_2 O -0.3830(15) -0.44321(14) 0.3909(3)
O18A_2 O -0.3763(18) -0.55614(14) 0.4114(4)
C37 C 0.165(3) -0.3585(3) 0.5259(6)
H19 H 0.168(14) -0.3732(6) 0.516(3)
H20 H 0.174(15) -0.3586(17) 0.5540(7)
H21 H 0.247(9) -0.3507(16) 0.515(3)
H22 H 0.073(7) -0.3519(18) 0.518(4)
C38 C -0.489(4) -0.3430(4) 0.4752(8)
H23 H -0.45(2) -0.348(2) 0.500(3)
H24 H -0.532(18) -0.3550(17) 0.461(4)
H25 H -0.410(13) -0.337(3) 0.460(4)
H26 H -0.564(14) -0.332(2) 0.480(5)
C39 C -0.171(4) -0.3238(4) 0.5326(7)
H27 H -0.193(18) -0.3350(16) 0.514(3)
H28 H -0.258(10) -0.321(2) 0.548(4)
H29 H -0.142(18) -0.3109(13) 0.519(3)
H30 H -0.092(11) -0.328(2) 0.549(4)
C40 C 0.101(4) -0.4055(4) 0.5779(8)
H31 H 0.08(2) -0.414(2) 0.555(3)
H32 H 0.206(6) -0.405(3) 0.583(6)
H33 H 0.05(2) -0.412(3) 0.600(4)
H34 H 0.07(2) -0.3911(14) 0.574(5)
C41 C -0.253(4) -0.4245(4) 0.6208(8)
H35 H -0.346(9) -0.417(2) 0.626(4)
H36 H -0.175(12) -0.414(2) 0.619(4)
H37 H -0.232(18) -0.4347(18) 0.641(3)
H38 H -0.261(18) -0.432(2) 0.596(2)
C42 C 0.157(3) -0.3071(3) 0.3229(6)
H39 H 0.128(15) -0.3095(19) 0.2961(14)
H40 H 0.242(8) -0.2976(17) 0.323(4)
H41 H 0.076(9) -0.3006(18) 0.337(3)
H42 H 0.183(15) -0.3206(10) 0.335(3)
C43 C -0.639(4) -0.4796(3) 0.4942(6)
H43 H -0.647(17) -0.4854(19) 0.5202(16)
H44 H -0.610(17) -0.4908(15) 0.476(3)
H45 H -0.733(7) -0.474(2) 0.486(4)
H46 H -0.566(12) -0.4683(18) 0.494(4)
C44 C 0.0000 -0.5000 0.4491(9)
H47 H -0.080(6) -0.4950(19) 0.4654(10)
H48 H 0.035(13) -0.4884(8) 0.4329(10)
H47A H 0.080(6) -0.5050(19) 0.4654(10)
H48A H -0.035(13) -0.5116(8) 0.4329(10)
C45 C -1.081(3) -0.2677(3) 0.5450(7)
H49 H -1.146(13) -0.275(2) 0.527(3)
H50 H -1.135(15) -0.2568(16) 0.559(3)
H51 H -1.001(10) -0.261(2) 0.531(4)
H52 H -1.042(15) -0.2780(16) 0.564(3)
C46 C 0.2500 -0.2500 0.5964(8)
H53 H 0.167(5) -0.254(2) 0.6127(10)
H54 H 0.224(15) -0.2379(7) 0.5803(10)
H53M H 0.333(5) -0.246(2) 0.6127(10)
H54M H 0.276(15) -0.2621(7) 0.5803(10)
loop_
_geom_bond_atom_site_label_1
_geom_bond_atom_site_label_2
_geom_bond_site_symmetry_1
_geom_bond_site_symmetry_2
Sc1 O1 1_555 1_555
Sc2 O2 1_555 1_555
Sc3 O4 1_555 1_555
Sc4 O6 1_555 1_555
O1 C1 1_555 1_555
O2 C1 1_555 1_555
O3 C8 1_555 1_555
O4 C8 1_555 1_555
O5 Sc3 1_555 1_555
O6 C9 1_555 1_555
O7 C16 1_555 1_555
O8 C16 1_555 1_555
O9 C17 1_555 1_555
O10 C17 1_555 1_555
O11 Sc2 1_555 1_555
O12 C24 1_555 1_555
O13 Sc1 1_555 1_555
O14 Sc2 1_555 1_555
O15 C32 1_555 1_555
O16 C32 1_555 1_555
O17 C33 1_555 1_555
O18 Sc1 1_555 1_555
C1 C7 1_555 1_555
C2 H1 1_555 1_555
C3 C2 1_555 1_555
H2 C3 1_555 1_555
C4 C3 1_555 1_555
C5 C4 1_555 1_555
H3 C5 1_555 1_555
C6 C5 1_555 1_555
H4 C6 1_555 1_555
C7 C2 1_555 1_555
C8 C4 1_555 1_555
C9 O5 1_555 1_555
C10 C11 1_555 1_555
C11 H5 1_555 1_555
C12 C11 1_555 1_555
H6 C12 1_555 1_555
C13 C9 1_555 1_555
C14 C13 1_555 1_555
H7 C14 1_555 1_555
C15 C10 1_555 1_555
H8 C15 1_555 1_555
C16 C10 1_555 1_555
C17 C22 1_555 1_555
C18 H9 1_555 1_555
C19 C18 1_555 1_555
C20 C19 1_555 1_555
H10 C20 1_555 1_555
C21 C20 1_555 1_555
H11 C21 1_555 1_555
C22 C21 1_555 1_555
C23 C18 1_555 1_555
H12 C23 1_555 1_555
C24 O11 1_555 1_555
C25 O13 1_555 1_555
C26 H13 1_555 1_555
C27 C26 1_555 1_555
H14 C27 1_555 1_555
C28 C27 1_555 1_555
C29 C28 1_555 1_555
H15 C29 1_555 1_555
C30 C29 1_555 1_555
H16 C30 1_555 1_555
C31 C25 1_555 1_555
C32 C28 1_555 1_555
C33 O18 1_555 1_555
C34 C33 1_555 1_555
C35 C34 1_555 1_555
H17 C35 1_555 1_555
C36 C35 1_555 1_555
H18 C36 1_555 1_555
C37 H19 1_555 1_555
H20 C37 1_555 1_555
H21 C37 1_555 1_555
H22 C37 1_555 1_555
C38 H23 1_555 1_555
H24 C38 1_555 1_555
H25 C38 1_555 1_555
H26 C38 1_555 1_555
C39 H27 1_555 1_555
H28 C39 1_555 1_555
H29 C39 1_555 1_555
H30 C39 1_555 1_555
C40 H31 1_555 1_555
H32 C40 1_555 1_555
H33 C40 1_555 1_555
H34 C40 1_555 1_555
C41 H35 1_555 1_555
H36 C41 1_555 1_555
H37 C41 1_555 1_555
H38 C41 1_555 1_555
C42 H39 1_555 1_555
H40 C42 1_555 1_555
H41 C42 1_555 1_555
H42 C42 1_555 1_555
C43 H43 1_555 1_555
H44 C43 1_555 1_555
H45 C43 1_555 1_555
H46 C43 1_555 1_555
C44 H47 1_555 1_555
H48 C44 1_555 1_555
C45 H49 1_555 1_555
H50 C45 1_555 1_555
H51 C45 1_555 1_555
H52 C45 1_555 1_555
C46 H53 1_555 1_555
H54 C46 1_555 1_555
O17A C33A 1_555 1_555
O18A C33A 1_555 1_555
C33A C34A 1_555 1_555
C34A C36 1_555 1_555
C35A C34A 1_555 1_555
H17A C35A 1_555 1_555
C36A C34 1_555 1_555
H18A C36A 1_555 1_555
Sc1A O1A 1_555 1_555
Sc2A O17A 1_555 1_555
O1A C1A 1_555 1_555
O2A Sc2A 1_555 1_555
O3A C8A 1_555 1_555
O4A C8A 1_555 1_555
O9A C17A 1_555 1_555
O10A C17A 1_555 1_555
O11A Sc2A 1_555 1_555
O12A C24A 1_555 1_555
O13A Sc1A 1_555 1_555
O14A Sc2A 1_555 1_555
O15A C32A 1_555 1_555
O16A C32A 1_555 1_555
C1A O2A 1_555 1_555
C2A H1A 1_555 1_555
C3A C2A 1_555 1_555
H2A C3A 1_555 1_555
C4A C3A 1_555 1_555
C5A C4A 1_555 1_555
H3A C5A 1_555 1_555
C6A C5A 1_555 1_555
H4A C6A 1_555 1_555
C7A C1A 1_555 1_555
C8A C4A 1_555 1_555
C17A C22A 1_555 1_555
C18A H9A 1_555 1_555
C19A C18A 1_555 1_555
C20A C19A 1_555 1_555
H10A C20A 1_555 1_555
C21A C20A 1_555 1_555
H11A C21A 1_555 1_555
C22A C21A 1_555 1_555
C23A C18A 1_555 1_555
H12A C23A 1_555 1_555
C24A O11A 1_555 1_555
C25A O13A 1_555 1_555
C26A H13A 1_555 1_555
C27A C26A 1_555 1_555
H14A C27A 1_555 1_555
C28A C27A 1_555 1_555
C29A C28A 1_555 1_555
H15A C29A 1_555 1_555
C30A C29A 1_555 1_555
H16A C30A 1_555 1_555
C31A C25A 1_555 1_555
C32A C28A 1_555 1_555
O5J C9J 1_555 1_555
O6J C9J 1_555 1_555
O7J Sc1 1_555 1_555
O8J Sc2 1_555 1_555
C9J C13J 1_555 1_555
C10J C11J 1_555 1_555
C11J H5J 1_555 1_555
C12J C11J 1_555 1_555
H6J C12J 1_555 1_555
C13J C12J 1_555 1_555
C14J C13J 1_555 1_555
H7J C14J 1_555 1_555
C15J C10J 1_555 1_555
H8J C15J 1_555 1_555
C16J O7J 1_555 1_555
Sc1_2 O12 1_555 1_555
Sc1A_2 O18A 1_555 1_555
Sc1B O7 1_555 1_555
Sc1O O10A 1_555 1_555
Sc2_2 O17 1_555 1_555
Sc2B O8 1_555 1_555
Sc2B_2 O9 1_555 1_555
Sc2O O9A 1_555 1_555
Sc3A O4A 1_555 1_555
Sc3B O15 1_555 1_555
Sc3G O5J 1_555 1_555
Sc4_2 O3 1_555 1_555
Sc4A O3A 1_555 1_555
Sc4B O16 1_555 1_555
Sc4B_2 O16A 1_555 1_555
Sc4G O6J 1_555 1_555
O3_2 Sc4 1_555 1_555
O3M Sc4 1_555 1_555
O4M Sc3 1_555 1_555
O5M Sc3 1_555 1_555
O6M Sc4 1_555 1_555
O7G Sc1A 1_555 1_555
O8G Sc2A 1_555 1_555
O9G Sc2A 1_555 1_555
O9J Sc2 1_555 1_555
O10G Sc1A 1_555 1_555
O10J Sc1 1_555 1_555
O12_2 Sc1 1_555 1_555
O12A_2 Sc1A 1_555 1_555
O15J Sc3 1_555 1_555
O15K Sc3 1_555 1_555
O16J Sc4 1_555 1_555
O16K Sc4 1_555 1_555
O17_2 Sc2 1_555 1_555
O18A_2 Sc1A 1_555 1_555
H47A C44 1_555 1_555
H48A C44 1_555 1_555
H53M C46 1_555 1_555
H54M C46 1_555 1_555
O10 Sc1B 1_555 1_555
O14 C25 1_555 1_555
C6 C7 1_555 1_555
C12 C13 1_555 1_555
C14 C15 1_555 1_555
C19 C24 1_555 1_555
C22 C23 1_555 1_555
C26 C31 1_555 1_555
C30 C31 1_555 1_555
C35A C36A 1_555 1_555
O12A Sc1A_2 1_555 1_555
O14A C25A 1_555 1_555
O15A Sc3B 1_555 1_555
C2A C7A 1_555 1_555
C6A C7A 1_555 1_555
C19A C24A 1_555 1_555
C22A C23A 1_555 1_555
C26A C31A 1_555 1_555
C30A C31A 1_555 1_555
O8J C16J 1_555 1_555
C10J C16J 1_555 1_555
C14J C15J 1_555 1_555

#END
