
#######################################################################
#
#                 Cambridge Crystallographic Data Centre
#                                CCDC 
#
#######################################################################
#
# If this CIF has been generated from an entry in the Cambridge 
# Structural Database, then it will include bibliographic, chemical, 
# crystal, experimental, refinement or atomic coordinate data resulting 
# from the CCDC's data processing and validation procedures.
#
#######################################################################

data_HAZGOF14
_chemical_formula_moiety         '(C24 H12 O12 Sc2)n'
_symmetry_cell_setting           orthorhombic
_symmetry_space_group_name_H-M   'F d d d'
_symmetry_Int_Tables_number      70
_space_group_name_Hall           '-F 2uv 2vw'
loop_
_symmetry_equiv_pos_site_id
_symmetry_equiv_pos_as_xyz
1 x,y,z
2 3/4-x,3/4-y,z
3 3/4-x,y,3/4-z
4 x,3/4-y,3/4-z
5 x,1/2+y,1/2+z
6 3/4-x,1/4-y,1/2+z
7 3/4-x,1/2+y,1/4-z
8 x,1/4-y,1/4-z
9 1/2+x,y,1/2+z
10 1/4-x,3/4-y,1/2+z
11 1/4-x,y,1/4-z
12 1/2+x,3/4-y,1/4-z
13 1/2+x,1/2+y,z
14 1/4-x,1/4-y,z
15 1/4-x,1/2+y,3/4-z
16 1/2+x,1/4-y,3/4-z
17 -x,-y,-z
18 1/4+x,1/4+y,-z
19 1/4+x,-y,1/4+z
20 -x,1/4+y,1/4+z
21 -x,1/2-y,1/2-z
22 1/4+x,3/4+y,1/2-z
23 1/4+x,1/2-y,3/4+z
24 -x,3/4+y,3/4+z
25 1/2-x,-y,1/2-z
26 3/4+x,1/4+y,1/2-z
27 3/4+x,-y,3/4+z
28 1/2-x,1/4+y,3/4+z
29 1/2-x,1/2-y,-z
30 3/4+x,3/4+y,-z
31 3/4+x,1/2-y,1/4+z
32 1/2-x,3/4+y,1/4+z
_cell_length_a                   8.75040(10)
_cell_length_b                   20.7567(3)
_cell_length_c                   34.3676(5)
_cell_angle_alpha                90
_cell_angle_beta                 90
_cell_angle_gamma                90
_cell_volume                     6242.17
loop_
_atom_site_label
_atom_site_type_symbol
_atom_site_fract_x
_atom_site_fract_y
_atom_site_fract_z
Sc1 Sc 0.3750 0.3750 0.61429(2)
O1 O 0.74122(16) 0.33334(8) 0.67950(4)
O2 O 0.50518(18) 0.45831(7) 0.61468(5)
O3 O 0.50465(18) 0.33436(9) 0.65741(5)
C1 C 0.6024(2) 0.31968(11) 0.68233(6)
C2 C 0.5495(2) 0.28356(12) 0.71749(6)
C3 C 0.6250 0.55843(14) 0.6250
C4 C 0.6250 0.48622(14) 0.6250
C5 C 0.6034(3) 0.23068(15) 0.77766(7)
H1 H 0.6739 0.2176 0.7963
C6 C 0.6522(3) 0.26423(15) 0.74531(7)
H2 H 0.7553 0.2738 0.7423
C7 C 0.7603(3) 0.59171(11) 0.62544(11)
H3 H 0.8525 0.5694 0.6263
O1T O 0.25878(16) 0.16666(8) 0.82050(4)
O3T O 0.49535(18) 0.16564(9) 0.84259(5)
C1T C 0.3976(2) 0.18032(11) 0.81767(6)
C2T C 0.4505(2) 0.21644(12) 0.78251(6)
C5T C 0.3966(3) 0.26932(15) 0.72234(7)
H1T H 0.3261 0.2824 0.7037
C6T C 0.3478(3) 0.23577(15) 0.75469(7)
H2T H 0.2447 0.2262 0.7577
O2G O 0.50518(18) 0.79169(7) 0.63532(5)
C3G C 0.6250 0.69157(14) 0.6250
C4G C 0.6250 0.76378(14) 0.6250
C7G C 0.7603(3) 0.65829(11) 0.62456(11)
H3G H 0.8525 0.6806 0.6237
O2J O 0.74482(18) 0.45831(7) 0.63532(5)
C7J C 0.4897(3) 0.59171(11) 0.62456(11)
H3J H 0.3975 0.5694 0.6237
O2M O 0.74482(18) 0.79169(7) 0.61468(5)
C7M C 0.4897(3) 0.65829(11) 0.62544(11)
H3M H 0.3975 0.6806 0.6263
O1A O 0.00878(16) 0.41666(8) 0.67950(4)
O3A O 0.24535(18) 0.41564(9) 0.65741(5)
C1A C 0.1476(2) 0.43032(11) 0.68233(6)
C2A C 0.2005(2) 0.46644(12) 0.71749(6)
C5A C 0.1466(3) 0.51932(15) 0.77766(7)
H1A H 0.0761 0.5324 0.7963
C6A C 0.0978(3) 0.48577(15) 0.74531(7)
H2A H -0.0053 0.4762 0.7423
O1Y O 0.49122(16) 0.58334(8) 0.82050(4)
O3Y O 0.25465(18) 0.58436(9) 0.84259(5)
C1Y C 0.3524(2) 0.56968(11) 0.81767(6)
C2Y C 0.2995(2) 0.53356(12) 0.78251(6)
C5Y C 0.3534(3) 0.48068(15) 0.72234(7)
H1Y H 0.4239 0.4676 0.7037
C6Y C 0.4022(3) 0.51423(15) 0.75469(7)
H2Y H 0.5053 0.5238 0.7577
Sc1F Sc 0.3750 0.8750 0.63571(2)
Sc1J Sc -0.1250 0.3750 0.63571(2)
Sc1J_2 Sc 0.8750 0.3750 0.63571(2)
Sc1L Sc 0.8750 0.8750 0.61429(2)
Sc1R Sc 0.6250 0.6250 0.86429(2)
Sc1T Sc 0.6250 0.1250 0.88571(2)
Sc1X Sc 0.1250 0.6250 0.88571(2)
Sc1DA Sc 0.1250 0.1250 0.86429(2)
O1J O 0.50878(16) 0.33334(8) 0.57050(4)
O1K O 0.24122(16) 0.41666(8) 0.57050(4)
O1L O 0.24122(16) 0.83334(8) 0.67950(4)
O1M O 0.50878(16) 0.91666(8) 0.67950(4)
O2A O 0.24482(18) 0.29169(7) 0.61468(5)
O2F O 0.24482(18) 0.95831(7) 0.63532(5)
O3F O 0.24535(18) 0.83436(9) 0.59259(5)
O3G O 0.50465(18) 0.91564(9) 0.59259(5)
loop_
_geom_bond_atom_site_label_1
_geom_bond_atom_site_label_2
_geom_bond_site_symmetry_1
_geom_bond_site_symmetry_2
Sc1 O2 1_555 1_555
O1 C1 1_555 1_555
O2 C4 1_555 1_555
O3 Sc1 1_555 1_555
C1 O3 1_555 1_555
C2 C1 1_555 1_555
C3 C4 1_555 1_555
C4 O2J 1_555 1_555
C5 H1 1_555 1_555
C6 C2 1_555 1_555
H2 C6 1_555 1_555
C7 C3 1_555 1_555
H3 C7 1_555 1_555
O1T C1T 1_555 1_555
O3T C1T 1_555 1_555
C1T C2T 1_555 1_555
C2T C5 1_555 1_555
C5T C2 1_555 1_555
H1T C5T 1_555 1_555
C6T C2T 1_555 1_555
H2T C6T 1_555 1_555
O2G C4G 1_555 1_555
C3G C4G 1_555 1_555
C4G O2M 1_555 1_555
C7G C7 1_555 1_555
H3G C7G 1_555 1_555
O2J Sc1J_2 1_555 1_555
C7J C3 1_555 1_555
H3J C7J 1_555 1_555
O2M Sc1L 1_555 1_555
C7M C3G 1_555 1_555
H3M C7M 1_555 1_555
O1A C1A 1_555 1_555
O3A Sc1 1_555 1_555
C1A O3A 1_555 1_555
C2A C1A 1_555 1_555
C5A H1A 1_555 1_555
C6A C2A 1_555 1_555
H2A C6A 1_555 1_555
O1Y C1Y 1_555 1_555
O3Y C1Y 1_555 1_555
C1Y C2Y 1_555 1_555
C2Y C5A 1_555 1_555
C5Y C2A 1_555 1_555
H1Y C5Y 1_555 1_555
C6Y C2Y 1_555 1_555
H2Y C6Y 1_555 1_555
Sc1F O2G 1_555 1_555
Sc1J O1A 1_555 1_555
Sc1J_2 O1 1_555 1_555
Sc1R O1Y 1_555 1_555
Sc1T O3T 1_555 1_555
Sc1X O3Y 1_555 1_555
Sc1DA O1T 1_555 1_555
O1J Sc1 1_555 1_555
O1K Sc1 1_555 1_555
O1L Sc1F 1_555 1_555
O1M Sc1F 1_555 1_555
O2A Sc1 1_555 1_555
O2F Sc1F 1_555 1_555
O3F Sc1F 1_555 1_555
O3G Sc1F 1_555 1_555
C5 C6 1_555 1_555
C5T C6T 1_555 1_555
C3G C7G 1_555 1_555
C7J C7M 1_555 1_555
C5A C6A 1_555 1_555
C5Y C6Y 1_555 1_555

#END
