
#######################################################################
#
#                 Cambridge Crystallographic Data Centre
#                                CCDC 
#
#######################################################################
#
# If this CIF has been generated from an entry in the Cambridge 
# Structural Database, then it will include bibliographic, chemical, 
# crystal, experimental, refinement or atomic coordinate data resulting 
# from the CCDC's data processing and validation procedures.
#
#######################################################################

data_GAGXAP
_chemical_formula_moiety         '(C22 H34 N2 Ni3 O21)n'
_symmetry_cell_setting           monoclinic
_symmetry_space_group_name_H-M   'C 2/c'
_symmetry_Int_Tables_number      15
_space_group_name_Hall           '-C 2yc'
loop_
_symmetry_equiv_pos_site_id
_symmetry_equiv_pos_as_xyz
1 x,y,z
2 -x,y,1/2-z
3 1/2+x,1/2+y,z
4 1/2-x,1/2+y,1/2-z
5 -x,-y,-z
6 x,-y,1/2+z
7 1/2-x,1/2-y,-z
8 1/2+x,1/2-y,1/2+z
_cell_length_a                   13.2005(10)
_cell_length_b                   11.6660(9)
_cell_length_c                   40.078(3)
_cell_angle_alpha                90
_cell_angle_beta                 94.9310(10)
_cell_angle_gamma                90
_cell_volume                     6149.05
loop_
_atom_site_label
_atom_site_type_symbol
_atom_site_fract_x
_atom_site_fract_y
_atom_site_fract_z
C1 C 0.1400(5) 0.1761(6) 0.97916(13)
H1 H 0.1968 0.1857 0.9672
C2 C -0.0376(5) 0.1972(5) 0.98341(13)
H2 H -0.1017 0.2210 0.9747
C3 C 0.1471(4) 0.4615(4) 1.24750(12)
H3 H 0.1505 0.5411 1.2475
C4 C 0.1751(4) 0.4019(4) 1.27671(11)
C5 C 0.2142(4) 0.4665(4) 1.30747(11)
Ni1 Ni 0.22378(5) -0.02842(5) 1.118270(13)
Ni2 Ni 0.22100(5) 0.18958(5) 1.164150(14)
Ni3 Ni -0.02195(5) -0.11690(6) 1.104620(14)
O1 O -0.0148(3) -0.0319(3) 1.14924(8)
O2 O 0.1211(2) 0.0735(3) 1.14092(7)
O3 O 0.2315(3) 0.5710(3) 1.30299(7)
O4 O 0.2288(3) 0.4121(3) 1.33469(8)
O5 O 0.1754(3) 0.3200(3) 1.13360(9)
O6 O 0.1720(3) 0.0306(3) 1.07300(8)
O7 O 0.1884(2) 0.3814(3) 0.87065(7)
O8 O -0.1266(3) 0.1678(3) 0.89147(8)
N1 N 0.0816(3) 0.2266(3) 1.18667(9)
O9 O 0.0683(3) 0.2513(3) 0.86744(7)
O10 O 0.0024(3) 0.0136(3) 1.07393(8)
O11 O 0.3227(3) 0.3066(3) 1.18751(10)
O12 O 0.3426(3) -0.1066(3) 1.09749(8)
O13 O 0.0410(3) 0.4252(4) 1.11654(11)
C6 C 0.1685(4) 0.2843(4) 1.27596(12)
H4 H 0.1861 0.2429 1.2954
C7 C 0.0462(4) 0.0462(4) 1.15702(11)
C8 C 0.0344(4) 0.1121(4) 1.18883(12)
H5 H 0.0668 0.0706 1.2078
H6 H -0.0372 0.1205 1.1921
N2 N 0.0338(4) 0.2599(4) 0.93175(10)
C9 C 0.0219(4) 0.2954(4) 1.16057(11)
H7 H -0.0281 0.2457 1.1488
H8 H -0.0147 0.3545 1.1716
C10 C 0.1076(4) 0.2868(4) 1.21791(11)
C11 C 0.1252(4) 0.3210(4) 0.88397(11)
C12 C 0.1365(4) 0.2264(4) 1.24697(12)
H9 H 0.1344 0.1467 1.2469
C13 C 0.1209(5) 0.3277(5) 0.92150(12)
H10 H 0.1837 0.2982 0.9326
H11 H 0.1137 0.4070 0.9282
C14 C 0.0679(4) 0.1078(5) 1.02837(11)
O14 O -0.1769(3) -0.0714(4) 1.09675(10)
C15 C -0.0607(5) 0.3273(5) 0.92377(13)
H12 H -0.0455 0.3904 0.9092
H13 H -0.0814 0.3600 0.9444
C16 C 0.1143(4) 0.4046(4) 1.21849(12)
H14 H 0.0964 0.4462 1.1991
C17 C -0.1485(5) 0.2602(6) 0.90710(14)
C18 C 0.1509(5) 0.1249(6) 1.01016(13)
H15 H 0.2150 0.1015 1.0190
C19 C -0.0256(4) 0.1447(5) 1.01484(13)
H16 H -0.0821 0.1345 1.0269
C20 C 0.0819(4) 0.0459(5) 1.06132(12)
C21 C 0.0846(4) 0.3522(4) 1.13492(12)
O15 O -0.2354(4) 0.3000(4) 0.90826(14)
C22 C 0.0457(5) 0.2138(5) 0.96530(12)
Ni1C Ni 0.27622(5) 0.47158(5) 1.381730(13)
Ni1F Ni 0.27622(5) 0.52842(5) 0.881730(13)
Ni1D Ni -0.22378(5) 0.02842(5) 0.881730(13)
Ni2C Ni 0.27900(5) 0.68958(5) 1.335850(14)
Ni2F Ni 0.27900(5) 0.31042(5) 0.835850(14)
Ni3D Ni 0.02195(5) 0.11690(6) 0.895380(14)
O3C O 0.2685(3) 0.0710(3) 1.19701(7)
O4C O 0.2712(3) -0.0879(3) 1.16531(8)
O7F O 0.3116(2) 0.1186(3) 1.12935(7)
O8D O 0.1266(3) -0.1678(3) 1.10853(8)
O9D O -0.0683(3) -0.2513(3) 1.13256(7)
N2D N -0.0338(4) -0.2599(4) 1.06825(10)
O16 O 0.1125(6) 0.7096(7) 0.18101(19)
O17 O 0.2767(6) 0.5492(7) 0.1699(2)
O18 O 0.4059(6) 0.3392(14) 0.2557(2)
O19 O 0.7409(14) 0.0410(16) 0.0440(4)
O20 O -0.0661(17) 0.5993(12) 0.9568(4)
O21 O 0.351(3) -0.067(3) 1.0175(5)
loop_
_geom_bond_atom_site_label_1
_geom_bond_atom_site_label_2
_geom_bond_site_symmetry_1
_geom_bond_site_symmetry_2
C1 H1 1_555 1_555
C2 H2 1_555 1_555
C3 H3 1_555 1_555
C4 C3 1_555 1_555
C5 C4 1_555 1_555
Ni1 O2 1_555 1_555
Ni2 O2 1_555 1_555
Ni3 O1 1_555 1_555
O1 C7 1_555 1_555
O2 C7 1_555 1_555
O3 C5 1_555 1_555
O4 C5 1_555 1_555
O5 Ni2 1_555 1_555
O6 Ni1 1_555 1_555
O7 C11 1_555 1_555
O8 C17 1_555 1_555
N1 Ni2 1_555 1_555
O9 C11 1_555 1_555
O10 Ni3 1_555 1_555
O11 Ni2 1_555 1_555
O12 Ni1 1_555 1_555
O13 C21 1_555 1_555
C6 C4 1_555 1_555
H4 C6 1_555 1_555
C7 C8 1_555 1_555
C8 N1 1_555 1_555
H5 C8 1_555 1_555
H6 C8 1_555 1_555
N2 C13 1_555 1_555
C9 N1 1_555 1_555
H7 C9 1_555 1_555
H8 C9 1_555 1_555
C10 N1 1_555 1_555
C11 C13 1_555 1_555
C12 C6 1_555 1_555
H9 C12 1_555 1_555
C13 H10 1_555 1_555
H11 C13 1_555 1_555
C14 C18 1_555 1_555
O14 Ni3 1_555 1_555
C15 N2 1_555 1_555
H12 C15 1_555 1_555
H13 C15 1_555 1_555
C16 C3 1_555 1_555
H14 C16 1_555 1_555
C17 C15 1_555 1_555
C18 C1 1_555 1_555
H15 C18 1_555 1_555
C19 C2 1_555 1_555
H16 C19 1_555 1_555
C20 O6 1_555 1_555
C21 O5 1_555 1_555
O15 C17 1_555 1_555
C22 C1 1_555 1_555
Ni1C O4 1_555 1_555
Ni1F O7 1_555 1_555
Ni1D O8 1_555 1_555
Ni2C O3 1_555 1_555
Ni2F O7 1_555 1_555
Ni3D O8 1_555 1_555
O3C Ni2 1_555 1_555
O4C Ni1 1_555 1_555
O7F Ni1 1_555 1_555
O8D Ni1 1_555 1_555
O9D Ni3 1_555 1_555
N2D Ni3 1_555 1_555
C2 C22 1_555 1_555
Ni2 O7F 1_555 1_555
Ni3 O8D 1_555 1_555
O9 Ni3D 1_555 1_555
O10 C20 1_555 1_555
N2 C22 1_555 1_555
N2 Ni3D 1_555 1_555
C9 C21 1_555 1_555
C10 C12 1_555 1_555
C10 C16 1_555 1_555
C14 C19 1_555 1_555
C14 C20 1_555 1_555

#END
