
#######################################################################
#
#                 Cambridge Crystallographic Data Centre
#                                CCDC 
#
#######################################################################
#
# If this CIF has been generated from an entry in the Cambridge 
# Structural Database, then it will include bibliographic, chemical, 
# crystal, experimental, refinement or atomic coordinate data resulting 
# from the CCDC's data processing and validation procedures.
#
#######################################################################

data_QUQFOY
_chemical_formula_moiety         '(C33 H27 Cd3 N1 O17)n'
_symmetry_cell_setting           monoclinic
_symmetry_space_group_name_H-M   'C 2/c'
_symmetry_Int_Tables_number      15
_space_group_name_Hall           '-C 2yc'
loop_
_symmetry_equiv_pos_site_id
_symmetry_equiv_pos_as_xyz
1 x,y,z
2 -x,y,1/2-z
3 1/2+x,1/2+y,z
4 1/2-x,1/2+y,1/2-z
5 -x,-y,-z
6 x,-y,1/2+z
7 1/2-x,1/2-y,-z
8 1/2+x,1/2-y,1/2+z
_cell_length_a                   32.476(11)
_cell_length_b                   23.135(8)
_cell_length_c                   18.163(6)
_cell_angle_alpha                90
_cell_angle_beta                 112.301(6)
_cell_angle_gamma                90
_cell_volume                     12625.7
loop_
_atom_site_label
_atom_site_type_symbol
_atom_site_fract_x
_atom_site_fract_y
_atom_site_fract_z
_atom_site_U_iso_or_equiv
_atom_site_thermal_displace_type
Cd1 Cd 0.15867(3) 1.10382(4) 0.10032(6) 0.0282 Uani
Cd2 Cd 0.19330(4) 0.96416(4) 0.06511(6) 0.0354 Uani
Cd3 Cd 0.06077(4) 0.40756(5) 0.33478(7) 0.0432 Uani
O1 O 0.1415(3) 1.0030(3) 0.1066(5) 0.0223 Uani
O2 O 0.1533(3) 1.0581(4) 0.2108(5) 0.0418 Uani
O3 O 0.1604(4) 0.9788(5) 0.4603(6) 0.0692 Uani
O4 O 0.1564(3) 0.8848(4) 0.4784(6) 0.0425 Uani
O5 O 0.2689(3) 0.6315(5) 0.3399(6) 0.0451 Uani
O6 O 0.2658(3) 0.5421(5) 0.3714(6) 0.0563 Uani
O7 O 0.1203(3) 0.4503(5) 0.3174(6) 0.0470 Uani
O8 O 0.0602(4) 0.5019(4) 0.2745(6) 0.0403 Uani
O9 O -0.0828(3) 0.8713(4) -0.0510(6) 0.0429 Uani
O10 O -0.1320(3) 0.8110(4) -0.1380(5) 0.0331 Uani
O11 O -0.0599(3) 0.6688(4) -0.2599(6) 0.0405 Uani
O12 O -0.0078(3) 0.6114(4) -0.1698(5) 0.0333 Uani
O13 O 0.1120(4) 0.3483(5) 0.4363(6) 0.0778 Uani
C1 C 0.1445(4) 1.0106(6) 0.1805(8) 0.0238 Uani
C2 C 0.1383(4) 0.9598(6) 0.2221(8) 0.0303 Uani
C3 C 0.1483(5) 0.9656(6) 0.3013(9) 0.0422 Uani
H1 H 0.1583 1.0011 0.3255 0.0510 Uiso
C4 C 0.1440(4) 0.9190(6) 0.3475(8) 0.0327 Uani
C5 C 0.1300(5) 0.8653(6) 0.3121(8) 0.0401 Uani
H2 H 0.1274 0.8342 0.3426 0.0480 Uiso
C6 C 0.1199(5) 0.8584(6) 0.2311(8) 0.0311 Uani
C7 C 0.1251(4) 0.9049(5) 0.1895(7) 0.0184 Uani
H3 H 0.1196 0.8997 0.1358 0.0220 Uiso
C8 C 0.1548(5) 0.9246(8) 0.4386(10) 0.0491 Uani
C9 C 0.1060(5) 0.8029(6) 0.1916(8) 0.0264 Uani
C10 C 0.1245(4) 0.7497(7) 0.2272(8) 0.0327 Uani
H4 H 0.1481 0.7507 0.2763 0.0390 Uiso
C11 C 0.1101(4) 0.6974(6) 0.1944(8) 0.0226 Uani
C12 C 0.0753(4) 0.6974(6) 0.1190(9) 0.0328 Uani
H5 H 0.0653 0.6619 0.0950 0.0390 Uiso
C13 C 0.0552(4) 0.7459(6) 0.0787(8) 0.0235 Uani
C14 C 0.0722(5) 0.7992(6) 0.1185(9) 0.0293 Uani
H6 H 0.0595 0.8334 0.0931 0.0350 Uiso
C15 C 0.1308(5) 0.6444(6) 0.2352(8) 0.0264 Uani
C16 C 0.1769(5) 0.6411(6) 0.2670(7) 0.0330 Uani
H7 H 0.1934 0.6729 0.2628 0.0390 Uiso
C17 C 0.1989(5) 0.5915(7) 0.3050(9) 0.0421 Uani
C18 C 0.1742(5) 0.5446(7) 0.3111(8) 0.0422 Uani
H8 H 0.1886 0.5112 0.3366 0.0510 Uiso
C19 C 0.1273(5) 0.5466(5) 0.2792(8) 0.0234 Uani
C20 C 0.1047(5) 0.5964(5) 0.2386(7) 0.0260 Uani
H9 H 0.0738 0.5974 0.2149 0.0310 Uiso
C21 C 0.2486(5) 0.5875(7) 0.3431(8) 0.0354 Uani
C22 C 0.0996(7) 0.4959(8) 0.2903(9) 0.0494 Uani
C23 C 0.0152(5) 0.7464(6) 0.0037(8) 0.0290 Uani
C24 C 0.0120(5) 0.7063(6) -0.0566(10) 0.0452 Uani
H10 H 0.0357 0.6815 -0.0496 0.0540 Uiso
C25 C -0.0254(5) 0.7031(6) -0.1259(8) 0.0174 Uani
C26 C -0.0596(5) 0.7415(6) -0.1388(8) 0.0338 Uani
H11 H -0.0850 0.7404 -0.1852 0.0410 Uiso
C27 C -0.0548(5) 0.7832(5) -0.0786(9) 0.0257 Uani
C28 C -0.0178(5) 0.7847(5) -0.0110(9) 0.0291 Uani
H12 H -0.0153 0.8132 0.0266 0.0350 Uiso
C29 C -0.0928(6) 0.8248(6) -0.0897(10) 0.0371 Uani
C30 C -0.0300(5) 0.6585(6) -0.1884(10) 0.0346 Uani
O14 O 0.2434(5) 0.9396(8) 0.0073(10) 0.1484 Uani
O15 O 0.1466(4) 0.8891(4) 0.0073(7) 0.0757 Uani
O16 O 0.2304(3) 0.9121(4) 0.1768(6) 0.0581 Uani
O17 O 0.0652(4) 0.4598(6) 0.4457(6) 0.0660 Uani
N1 N 0.0479(5) 0.5351(7) 0.5025(8) 0.0645 Uani
C31 C 0.0473(6) 0.5066(8) 0.4394(13) 0.0637 Uani
C32 C 0.0249(6) 0.5897(7) 0.4905(11) 0.0815 Uani
H13 H 0.0092 0.5961 0.4346 0.1220 Uiso
H14 H 0.0042 0.5891 0.5166 0.1220 Uiso
H15 H 0.0461 0.6202 0.5124 0.1220 Uiso
C33 C 0.0730(5) 0.5183(7) 0.5843(8) 0.0538 Uani
H16 H 0.0872 0.4818 0.5852 0.0810 Uiso
H17 H 0.0951 0.5471 0.6097 0.0810 Uiso
H18 H 0.0531 0.5149 0.6120 0.0810 Uiso
Cd1E Cd 0.15867(3) 0.89618(4) 0.60032(6) 0.0282 Uani
Cd1C Cd 0.34133(3) 0.60382(4) 0.39968(6) 0.0282 Uani
Cd1D Cd -0.15867(3) 0.89618(4) -0.10032(6) 0.0282 Uani
Cd2E Cd 0.19330(4) 1.03584(4) 0.56511(6) 0.0354 Uani
Cd2C Cd 0.30670(4) 0.46416(4) 0.43489(6) 0.0354 Uani
Cd3D Cd -0.06077(4) 0.59244(5) -0.33478(7) 0.0432 Uani
Cd3E Cd 0.06077(4) 0.59244(5) -0.16522(7) 0.0432 Uani
O3E O 0.1604(4) 1.0212(5) -0.0397(6) 0.0692 Uani
O4E O 0.1564(3) 1.1152(4) -0.0216(6) 0.0425 Uani
O5C O 0.2311(3) 1.1315(5) 0.1601(6) 0.0451 Uani
O6C O 0.2342(3) 1.0421(5) 0.1286(6) 0.0563 Uani
O9D O 0.0828(3) 1.1287(4) 0.0510(6) 0.0429 Uani
O10D O 0.1320(3) 1.1890(4) 0.1380(5) 0.0331 Uani
O11D O 0.0599(3) 0.3312(4) 0.2599(6) 0.0405 Uani
O12E O -0.0078(3) 0.3886(4) 0.3302(5) 0.0333 Uani
loop_
_atom_site_aniso_label
_atom_site_aniso_U_11
_atom_site_aniso_U_22
_atom_site_aniso_U_33
_atom_site_aniso_U_23
_atom_site_aniso_U_13
_atom_site_aniso_U_12
Cd1 0.0250(7) 0.0203(6) 0.0306(7) -0.0008(5) 0.0007(5) 0.0005(6)
Cd2 0.0397(7) 0.0201(6) 0.0391(7) 0.0008(5) 0.0067(6) 0.0035(6)
Cd3 0.0541 0.0354 0.0419 -0.0101 0.0201 -0.0158
O1 0.020(5) 0.012(5) 0.033(6) 0.001(4) 0.008(5) 0.000(4)
O2 0.059(7) 0.021(6) 0.047(7) -0.014(5) 0.022(6) -0.013(5)
O3 0.095(10) 0.047(8) 0.047(8) -0.014(6) 0.006(7) -0.022(7)
O4 0.061(8) 0.022(6) 0.055(8) 0.022(6) 0.034(6) 0.006(6)
O5 0.014(6) 0.047(7) 0.060(7) 0.008(6) -0.002(5) -0.007(6)
O6 0.040(6) 0.038(6) 0.078(7) 0.020(5) 0.008(5) 0.021(5)
O7 0.046(7) 0.040(7) 0.055(8) 0.006(6) 0.019(6) -0.011(6)
O8 0.051(8) 0.009(5) 0.069(8) -0.011(5) 0.032(7) -0.002(6)
O9 0.033(7) 0.027(6) 0.054(7) -0.014(6) 0.000(5) 0.019(5)
O10 0.006(6) 0.049(7) 0.034(6) -0.010(5) -0.004(5) -0.001(5)
O11 0.041(7) 0.027(6) 0.036(7) -0.013(5) -0.005(6) -0.005(5)
O12 0.034(6) 0.013(6) 0.051(7) 0.003(5) 0.014(5) 0.017(5)
O13 0.1 0.072 0.032 0.018 -0.008 -0.049
C1 0.024(4) 0.023(4) 0.024(4) 0.0001(10) 0.0085(16) -0.0003(10)
C2 0.029(7) 0.044(8) 0.015(7) 0.009(6) 0.005(6) 0.000(6)
C3 0.048(11) 0.027(10) 0.044(12) 0.006(9) 0.009(9) 0.001(9)
C4 0.023(9) 0.036(11) 0.018(10) 0.002(8) -0.016(7) -0.007(8)
C5 0.058(11) 0.026(10) 0.028(10) 0.013(8) 0.007(9) -0.002(9)
C6 0.035(7) 0.029(7) 0.026(7) 0.015(7) 0.008(6) -0.008(6)
C7 0.026(8) 0.018(8) 0.005(7) 0.003(7) -0.001(6) 0.013(7)
C8 0.039(11) 0.038(13) 0.053(14) -0.003(11) -0.002(10) -0.009(10)
C9 0.038(10) 0.022(10) 0.014(9) 0.000(7) 0.004(9) -0.002(8)
C10 0.008(9) 0.064(13) 0.019(9) -0.002(9) -0.003(7) -0.007(9)
C11 0.006(8) 0.029(10) 0.028(10) -0.012(8) 0.001(8) 0.006(8)
C12 0.022(9) 0.025(10) 0.043(11) -0.022(8) 0.003(9) -0.012(8)
C13 0.028(7) 0.009(7) 0.033(7) 0.011(6) 0.011(6) -0.004(6)
C14 0.026(9) 0.027(10) 0.039(11) 0.024(8) 0.017(9) 0.005(8)
C15 0.026(8) 0.020(7) 0.027(7) 0.006(6) 0.003(6) 0.013(6)
C16 0.033(11) 0.035(10) 0.018(9) 0.010(8) -0.005(8) -0.002(9)
C17 0.040(11) 0.042(11) 0.042(10) -0.019(9) 0.013(9) -0.026(11)
C18 0.049(13) 0.032(10) 0.038(10) -0.008(8) 0.008(9) 0.007(10)
C19 0.036(11) 0.016(9) 0.031(9) -0.004(7) 0.027(8) -0.006(9)
C20 0.030(9) 0.009(8) 0.032(9) -0.004(7) 0.004(7) 0.000(8)
C21 0.025(8) 0.036(8) 0.035(7) -0.008(6) 0.000(6) -0.001(7)
C22 0.074(16) 0.038(13) 0.028(10) 0.013(9) 0.010(11) 0.027(13)
C23 0.033(8) 0.011(7) 0.035(7) -0.003(6) 0.004(6) -0.005(6)
C24 0.055(13) 0.034(10) 0.054(12) 0.017(9) 0.029(11) 0.016(9)
C25 0.013(9) 0.026(9) 0.014(9) 0.014(7) 0.006(8) 0.008(8)
C26 0.037(11) 0.028(9) 0.028(10) 0.023(9) 0.003(8) -0.001(9)
C27 0.040(11) 0.005(8) 0.033(10) -0.008(8) 0.015(9) -0.011(8)
C28 0.042(11) 0.004(8) 0.037(11) 0.002(7) 0.010(10) 0.003(8)
C29 0.046(13) 0.009(9) 0.056(12) 0.018(9) 0.019(11) 0.012(10)
C30 0.032(11) 0.022(10) 0.054(13) -0.009(10) 0.021(10) -0.019(9)
O14 0.131(14) 0.175(16) 0.148(14) 0.019(12) 0.063(12) 0.114(13)
O15 0.069(8) 0.043(7) 0.087(9) -0.009(6) -0.002(7) -0.004(7)
O16 0.051(7) 0.055(7) 0.051(7) 0.034(6) 0.000(6) 0.015(6)
O17 0.071 0.08 0.052 -0.031 0.029 -0.038
N1 0.066 0.073 0.044 -0.005 0.009 0.021
C31 0.066 0.018 0.111 -0.015 0.038 0.013
C32 0.094 0.049 0.078 -0.007 0.006 0.029
C33 0.071 0.062 0.027 -0.006 0.017 0.029
Cd1E 0.025 0.0203 0.0306 0.0008 0.0007 -0.0005
Cd1C 0.025 0.0203 0.0306 0.0008 0.0007 -0.0005
Cd1D 0.025 0.0203 0.0306 -0.0008 0.0007 0.0005
Cd2E 0.0397 0.0201 0.0391 -0.0008 0.0067 -0.0035
Cd2C 0.0397 0.0201 0.0391 -0.0008 0.0067 -0.0035
Cd3D 0.0541 0.0354 0.0419 -0.0101 0.0201 -0.0158
Cd3E 0.0541(9) 0.0354(7) 0.0419(8) 0.0101(6) 0.0201(6) 0.0158(7)
O3E 0.095 0.047 0.047 0.014 0.006 0.022
O4E 0.061 0.022 0.055 -0.022 0.034 -0.006
O5C 0.014 0.047 0.06 -0.008 -0.002 0.007
O6C 0.04 0.038 0.078 -0.02 0.008 -0.021
O9D 0.033 0.027 0.054 -0.014 0 0.019
O10D 0.006 0.049 0.034 -0.01 -0.004 -0.001
O11D 0.041 0.027 0.036 -0.013 -0.005 -0.005
O12E 0.034 0.013 0.051 -0.003 0.014 -0.017
loop_
_geom_bond_atom_site_label_1
_geom_bond_atom_site_label_2
_geom_bond_site_symmetry_1
_geom_bond_site_symmetry_2
Cd1 O1 1_555 1_555
Cd2 O1 1_555 1_555
Cd3 O7 1_555 1_555
O1 C1 1_555 1_555
O2 Cd1 1_555 1_555
O3 C8 1_555 1_555
O4 C8 1_555 1_555
O5 C21 1_555 1_555
O6 C21 1_555 1_555
O7 C22 1_555 1_555
O8 Cd3 1_555 1_555
O9 C29 1_555 1_555
O10 C29 1_555 1_555
O11 C30 1_555 1_555
O12 C30 1_555 1_555
O13 Cd3 1_555 1_555
C1 O2 1_555 1_555
C2 C1 1_555 1_555
C3 C2 1_555 1_555
H1 C3 1_555 1_555
C4 C3 1_555 1_555
C5 C4 1_555 1_555
H2 C5 1_555 1_555
C6 C5 1_555 1_555
C7 C2 1_555 1_555
H3 C7 1_555 1_555
C8 C4 1_555 1_555
C9 C6 1_555 1_555
C10 C9 1_555 1_555
H4 C10 1_555 1_555
C11 C10 1_555 1_555
C12 C11 1_555 1_555
H5 C12 1_555 1_555
C13 C12 1_555 1_555
C14 C9 1_555 1_555
H6 C14 1_555 1_555
C15 C11 1_555 1_555
C16 C15 1_555 1_555
H7 C16 1_555 1_555
C17 C16 1_555 1_555
C18 C17 1_555 1_555
H8 C18 1_555 1_555
C19 C18 1_555 1_555
C20 C15 1_555 1_555
H9 C20 1_555 1_555
C21 C17 1_555 1_555
C22 O8 1_555 1_555
C23 C13 1_555 1_555
C24 C23 1_555 1_555
H10 C24 1_555 1_555
C25 C24 1_555 1_555
C26 C25 1_555 1_555
H11 C26 1_555 1_555
C27 C26 1_555 1_555
C28 C23 1_555 1_555
H12 C28 1_555 1_555
C29 C27 1_555 1_555
C30 C25 1_555 1_555
O14 Cd2 1_555 1_555
O15 Cd2 1_555 1_555
O16 Cd2 1_555 1_555
O17 Cd3 1_555 1_555
N1 C31 1_555 1_555
C31 O17 1_555 1_555
C32 N1 1_555 1_555
H13 C32 1_555 1_555
H14 C32 1_555 1_555
H15 C32 1_555 1_555
C33 N1 1_555 1_555
H16 C33 1_555 1_555
H17 C33 1_555 1_555
H18 C33 1_555 1_555
Cd1E O4 1_555 1_555
Cd1C O5 1_555 1_555
Cd1D O9 1_555 1_555
Cd2E O3 1_555 1_555
Cd2C O6 1_555 1_555
Cd3D O11 1_555 1_555
Cd3E O12 1_555 1_555
O3E Cd2 1_555 1_555
O4E Cd1 1_555 1_555
O5C Cd1 1_555 1_555
O6C Cd2 1_555 1_555
O9D Cd1 1_555 1_555
O10D Cd1 1_555 1_555
O11D Cd3 1_555 1_555
O12E Cd3 1_555 1_555
O10 Cd1D 1_555 1_555
C6 C7 1_555 1_555
C13 C14 1_555 1_555
C19 C20 1_555 1_555
C19 C22 1_555 1_555
C27 C28 1_555 1_555

#END
