
#######################################################################
#
#                 Cambridge Crystallographic Data Centre
#                                CCDC 
#
#######################################################################
#
# If this CIF has been generated from an entry in the Cambridge 
# Structural Database, then it will include bibliographic, chemical, 
# crystal, experimental, refinement or atomic coordinate data resulting 
# from the CCDC's data processing and validation procedures.
#
#######################################################################

data_QUQFIS
_chemical_formula_moiety         '(C81 H78 N6 O33 Zn6)n'
_symmetry_cell_setting           rhombohedral
_symmetry_space_group_name_H-M   'R 3 c'
_symmetry_Int_Tables_number      161
_space_group_name_Hall           'R 3 -2"c'
loop_
_symmetry_equiv_pos_site_id
_symmetry_equiv_pos_as_xyz
1 x,y,z
2 -y,x-y,z
3 -x+y,-x,z
4 -y,-x,1/2+z
5 -x+y,y,1/2+z
6 x,x-y,1/2+z
7 2/3+x,1/3+y,1/3+z
8 2/3-y,1/3+x-y,1/3+z
9 2/3-x+y,1/3-x,1/3+z
10 2/3-y,1/3-x,5/6+z
11 2/3-x+y,1/3+y,5/6+z
12 2/3+x,1/3+x-y,5/6+z
13 1/3+x,2/3+y,2/3+z
14 1/3-y,2/3+x-y,2/3+z
15 1/3-x+y,2/3-x,2/3+z
16 1/3-y,2/3-x,1/6+z
17 1/3-x+y,2/3+y,1/6+z
18 1/3+x,2/3+x-y,1/6+z
_cell_length_a                   22.602(3)
_cell_length_b                   22.602(3)
_cell_length_c                   39.721(8)
_cell_angle_alpha                90
_cell_angle_beta                 90
_cell_angle_gamma                120
_cell_volume                     17572.9
loop_
_atom_site_label
_atom_site_type_symbol
_atom_site_fract_x
_atom_site_fract_y
_atom_site_fract_z
Zn1 Zn 0.45805(2) 0.12010(2) 1.039527(12)
Zn2 Zn 0.32655(2) -0.01574(2) 1.074557(11)
C1 C 0.41463(18) -0.03124(18) 1.02621(9)
C2 C 0.43307(19) -0.07464(18) 1.00371(10)
C3 C 0.49083(19) -0.04283(19) 0.98369(10)
H1 H 0.5178 0.0056 0.9836
C4 C 0.50995(18) -0.08161(18) 0.96355(9)
C5 C 0.46957(19) -0.15307(19) 0.96470(9)
H2 H 0.4821 -0.1800 0.9514
C6 C 0.41226(19) -0.18506(18) 0.98468(10)
C7 C 0.39328(19) -0.14558(18) 1.00383(10)
H3 H 0.3529 -0.1672 1.0171
C8 C 0.57303(19) -0.0457(2) 0.94251(10)
C9 C 0.37153(18) -0.26178(17) 0.98564(9)
C10 C 0.40445(17) -0.29969(18) 0.98553(9)
H4 H 0.4530 -0.2769 0.9854
C11 C 0.3029(2) 0.05871(19) 1.02318(10)
C12 C 0.25741(19) 0.08194(19) 1.00733(10)
C13 C 0.2873(2) 0.13972(19) 0.98535(10)
H5 H 0.3343 0.1613 0.9795
C14 C 0.24643(19) 0.1630(2) 0.97299(10)
C15 C 0.1778(2) 0.1311(2) 0.98101(11)
H6 H 0.1512 0.1500 0.9729
C16 C 0.14648(19) 0.0723(2) 1.00056(10)
C17 C 0.1891(2) 0.04834(19) 1.01392(10)
H7 H 0.1697 0.0085 1.0276
C18 C 0.07207(18) 0.03542(19) 1.00555(10)
C19 C 0.0351(2) -0.0362(2) 1.00636(10)
H8 H 0.0589 -0.0608 1.0075
C20 C 0.2749(2) 0.2247(2) 0.94989(11)
O1 O 0.35906(14) -0.06183(13) 1.04181(7)
O2 O 0.45794(13) 0.03105(13) 1.02796(7)
O3 O 0.61222(14) 0.01713(15) 0.94639(7)
O4 O 0.58728(12) -0.07872(12) 0.92110(6)
O5 O 0.32459(14) 0.23580(15) 0.93088(7)
O6 O 0.24822(15) 0.26122(15) 0.94961(8)
O7 O 0.27398(13) 0.00953(13) 1.04340(7)
O8 O 0.36482(14) 0.08975(15) 1.01554(8)
C21 C 0.4543(3) 0.2458(2) 1.03011(13)
H9 H 0.4606 0.2373 1.0073
C22 C 0.4283(3) 0.3072(3) 1.07062(19)
H10 H 0.4289 0.2725 1.0852
H11 H 0.3838 0.3046 1.0724
H12 H 0.4644 0.3527 1.0777
C23 C 0.4390(6) 0.3386(4) 1.0123(2)
H13 H 0.4474 0.3255 0.9900
H14 H 0.4747 0.3854 1.0174
H15 H 0.3943 0.3358 1.0124
N1 N 0.4398(3) 0.2952(2) 1.03602(12)
O9 O 0.46010(16) 0.20985(15) 1.05210(7)
C24 C 0.4902(3) 0.1265(3) 0.96886(12)
H16 H 0.4447 0.0891 0.9692
C25 C 0.4992(4) 0.0879(4) 0.91335(19)
H17 H 0.4508 0.0548 0.9169
H18 H 0.5249 0.0637 0.9111
H19 H 0.5045 0.1140 0.8928
C26 C 0.5934(5) 0.1842(8) 0.9378(2)
H20 H 0.6086 0.2138 0.9576
H21 H 0.5983 0.2115 0.9177
H22 H 0.6214 0.1624 0.9352
N2 N 0.5251(3) 0.1339(3) 0.94168(13)
O10 O 0.50910(16) 0.16179(16) 0.99395(8)
C27 C 0.6100(2) 0.2243(2) 1.05907(13)
H23 H 0.6499 0.2279 1.0708
H24 H 0.5962 0.2544 1.0699
H25 H 0.6217 0.2379 1.0355
O11 O 0.55562(14) 0.15611(15) 1.06056(8)
Zn1B Zn 0.66205(3) -0.45805(2) 1.039527(12)
Zn1A Zn -0.12010(2) -0.66205(3) 1.039527(12)
Zn1I Zn 0.54657(2) -0.12472(2) 0.872860(12)
Zn1J Zn 0.32872(3) -0.54657(2) 0.872860(12)
Zn1K Zn 0.12472(2) -0.32872(3) 0.872860(12)
Zn1B_2 Zn -0.33795(3) -0.45805(2) 1.039527(12)
Zn1A_2 Zn -0.12010(2) 0.33795(3) 1.039527(12)
Zn2B Zn 0.65771(3) -0.32655(2) 1.074557(11)
Zn2A Zn 0.01574(2) -0.65771(3) 1.074557(11)
Zn2I Zn 0.68241(2) 0.00678(2) 0.907890(11)
Zn2J Zn 0.32438(3) 0.31759(2) 0.907890(11)
Zn2J_2 Zn 0.32438(3) -0.68241(2) 0.907890(11)
Zn2K Zn -0.00678(2) -0.32438(3) 0.907890(11)
Zn2B_2 Zn -0.34229(3) -0.32655(2) 1.074557(11)
Zn2A_2 Zn 0.01574(2) 0.34229(3) 1.074557(11)
Zn2I_2 Zn -0.31759(2) 0.00678(2) 0.907890(11)
C1B C 0.55413(25) -0.41463(18) 1.02621(9)
C1A C 0.03124(18) -0.55413(25) 1.02621(9)
C2B C 0.49229(26) -0.43307(19) 1.00371(10)
C2A C 0.07464(18) -0.49229(26) 1.00371(10)
C3B C 0.46634(27) -0.49083(19) 0.98369(10)
C3A C 0.04283(19) -0.46634(27) 0.98369(10)
H1B H 0.4878 -0.5178 0.9836
H1A H -0.0056 -0.4878 0.9836
C4B C 0.40844(25) -0.50995(18) 0.96355(9)
C4A C 0.08161(18) -0.40844(25) 0.96355(9)
C5B C 0.37736(27) -0.46957(19) 0.96470(9)
C5A C 0.15307(19) -0.37736(27) 0.96470(9)
H2B H 0.3379 -0.4821 0.9514
H2A H 0.1800 -0.3379 0.9514
C6B C 0.40268(26) -0.41226(19) 0.98468(10)
C6A C 0.18506(18) -0.40268(26) 0.98468(10)
C7B C 0.46114(26) -0.39328(19) 1.00383(10)
C7A C 0.14558(18) -0.46114(26) 1.00383(10)
H3B H 0.4799 -0.3529 1.0171
H3A H 0.1672 -0.4799 1.0171
C8B C 0.38127(28) -0.57303(19) 0.94251(10)
C8A C 0.0457(2) -0.38127(28) 0.94251(10)
C9B C 0.36669(25) -0.37153(18) 0.98564(9)
C9A C 0.26178(17) -0.36669(25) 0.98564(9)
C10B C 0.29586(25) -0.40445(17) 0.98553(9)
C10A C 0.29969(18) -0.29586(25) 0.98553(9)
H4A H 0.2769 -0.2701 0.9854
H4B H 0.2701 -0.4530 0.9854
C11B C -0.24419(28) -0.3029(2) 1.02318(10)
C11A C -0.05871(19) 0.24419(28) 1.02318(10)
C12B C -0.17547(27) -0.25741(19) 1.00733(10)
C12A C -0.08194(19) 0.17547(27) 1.00733(10)
C13B C -0.14758(28) -0.2873(2) 0.98535(10)
C13A C -0.13972(19) 0.14758(28) 0.98535(10)
H5B H -0.1730 -0.3343 0.9795
H5A H -0.1613 0.1730 0.9795
C14B C -0.08343(28) -0.24643(19) 0.97299(10)
C14A C -0.1630(2) 0.08343(28) 0.97299(10)
C15B C -0.0467(3) -0.1778(2) 0.98101(11)
C15A C -0.1311(2) 0.0467(3) 0.98101(11)
H6B H -0.0012 -0.1512 0.9729
H6A H -0.1500 0.0012 0.9729
C16B C -0.07418(28) -0.14648(19) 1.00056(10)
C16A C -0.0723(2) 0.07418(28) 1.00056(10)
C17B C -0.14076(28) -0.1891(2) 1.01392(10)
C17A C -0.04834(19) 0.14076(28) 1.01392(10)
H7B H -0.1612 -0.1697 1.0276
H7A H -0.0085 0.1612 1.0276
C18B C -0.03665(26) -0.07207(18) 1.00555(10)
C18A C -0.03542(19) 0.03665(26) 1.00555(10)
C19B C -0.0713(3) -0.0351(2) 1.00636(10)
C19A C 0.0362(2) 0.0713(3) 1.00636(10)
H8A H 0.0608 0.1197 1.0075
H8B H -0.1197 -0.0589 1.0075
C20B C -0.0502(3) -0.2749(2) 0.94989(11)
C20A C -0.2247(2) 0.0502(3) 0.94989(11)
O1B O 0.57911(19) -0.35906(14) 1.04181(7)
O1A O 0.06183(13) -0.57911(19) 1.04181(7)
O2B O 0.57311(18) -0.45794(13) 1.02796(7)
O2A O -0.03105(13) -0.57311(18) 1.02796(7)
O3B O 0.40491(21) -0.61222(14) 0.94639(7)
O3A O -0.01713(15) -0.40491(21) 0.94639(7)
O3O O 0.31620(15) 0.05445(14) 1.11306(7)
O3P O 0.73824(21) -0.31620(15) 1.11306(7)
O3Q O -0.05445(14) -0.73824(21) 1.11306(7)
O4B O 0.33400(17) -0.58728(12) 0.92110(6)
O4A O 0.07872(12) -0.33400(17) 0.92110(6)
O4O O 0.41205(12) 0.07939(12) 1.08777(6)
O4P O 0.66733(17) -0.41205(12) 1.08777(6)
O4Q O -0.07939(12) -0.66733(17) 1.08777(6)
O5B O -0.08879(21) -0.32459(14) 0.93088(7)
O5A O -0.23580(15) 0.08879(21) 0.93088(7)
O5P O 0.24454(21) -0.09753(15) 1.09755(7)
O5Q O 0.65792(14) -0.24454(21) 1.09755(7)
O5O O 0.09753(15) -0.65792(14) 1.09755(7)
O6B O 0.01300(21) -0.24822(15) 0.94961(8)
O6A O -0.26122(15) -0.01300(21) 0.94961(8)
O6P O 0.34633(21) -0.07211(15) 1.11628(8)
O6Q O 0.58155(15) -0.34633(21) 1.11628(8)
O6O O 0.07211(15) -0.58155(15) 1.11628(8)
O7B O -0.26445(18) -0.27398(13) 1.04340(7)
O7A O -0.00953(13) 0.26445(18) 1.04340(7)
O7B_2 O 0.73555(18) -0.27398(13) 1.04340(7)
O7A_2 O -0.00953(13) -0.73555(18) 1.04340(7)
O8B O -0.27507(21) -0.36482(14) 1.01554(8)
O8A O -0.08975(15) 0.27507(21) 1.01554(8)
O8B_2 O 0.72493(21) -0.36482(14) 1.01554(8)
O8A_2 O -0.08975(15) -0.72493(21) 1.01554(8)
C21B C 0.7915(4) -0.4543(3) 1.03011(13)
C21A C -0.2458(2) -0.7915(4) 1.03011(13)
H9B H 0.7767 -0.4606 1.0073
H9A H -0.2373 -0.7767 1.0073
C22B C 0.8789(4) -0.4283(3) 1.07062(19)
C22A C -0.3072(3) -0.8789(4) 1.07062(19)
H10B H 0.8436 -0.4289 1.0852
H10A H -0.2725 -0.8436 1.0852
H11B H 0.9208 -0.3838 1.0724
H11A H -0.3046 -0.9208 1.0724
H12B H 0.8883 -0.4644 1.0777
H12A H -0.3527 -0.8883 1.0777
C23B C 0.8996(7) -0.4390(6) 1.0123(2)
C23A C -0.3386(4) -0.8996(7) 1.0123(2)
H13B H 0.8781 -0.4474 0.9900
H13A H -0.3255 -0.8781 0.9900
H14B H 0.9107 -0.4747 1.0174
H14A H -0.3854 -0.9107 1.0174
H15B H 0.9415 -0.3943 1.0124
H15A H -0.3358 -0.9415 1.0124
N1B N 0.8554(4) -0.4398(3) 1.03602(12)
N1A N -0.2952(2) -0.8554(4) 1.03602(12)
O9B O 0.74975(22) -0.46010(16) 1.05210(7)
O9A O -0.20985(15) -0.74975(22) 1.05210(7)
C24B C 0.6363(4) -0.4902(3) 0.96886(12)
C24A C -0.1265(3) -0.6363(4) 0.96886(12)
H16B H 0.6444 -0.4447 0.9692
H16A H -0.0891 -0.6444 0.9692
C25B C 0.5887(6) -0.4992(4) 0.91335(19)
C25A C -0.0879(4) -0.5887(6) 0.91335(19)
H17B H 0.6040 -0.4508 0.9169
H17A H -0.0548 -0.6040 0.9169
H18B H 0.5388 -0.5249 0.9111
H18A H -0.0637 -0.5388 0.9111
H19B H 0.6095 -0.5045 0.8928
H19A H -0.1140 -0.6095 0.8928
C26B C 0.5908(9) -0.5934(5) 0.9378(2)
C26A C -0.1842(8) -0.5908(9) 0.9378(2)
H20B H 0.6052 -0.6086 0.9576
H20A H -0.2138 -0.6052 0.9576
H21B H 0.6132 -0.5983 0.9177
H21A H -0.2115 -0.6132 0.9177
H22B H 0.5410 -0.6214 0.9352
H22A H -0.1624 -0.5410 0.9352
N2B N 0.6088(4) -0.5251(3) 0.94168(13)
N2A N -0.1339(3) -0.6088(4) 0.94168(13)
O10B O 0.65269(23) -0.50910(16) 0.99395(8)
O10A O -0.16179(16) -0.65269(23) 0.99395(8)
C27B C 0.6143(3) -0.6100(2) 1.05907(13)
C27A C -0.2243(2) -0.6143(3) 1.05907(13)
H23B H 0.5780 -0.6499 1.0708
H23A H -0.2279 -0.5780 1.0708
H24B H 0.6582 -0.5962 1.0699
H24A H -0.2544 -0.6582 1.0699
H25B H 0.6162 -0.6217 1.0355
H25A H -0.2379 -0.6162 1.0355
O11B O 0.60049(21) -0.55562(14) 1.06056(8)
O11A O -0.15611(15) -0.60049(21) 1.06056(8)
loop_
_geom_bond_atom_site_label_1
_geom_bond_atom_site_label_2
_geom_bond_site_symmetry_1
_geom_bond_site_symmetry_2
Zn1 O2 1_555 1_555
Zn2 O1 1_555 1_555
C1 C2 1_555 1_555
C2 C3 1_555 1_555
C3 H1 1_555 1_555
C4 C3 1_555 1_555
C5 C4 1_555 1_555
H2 C5 1_555 1_555
C6 C5 1_555 1_555
C7 C2 1_555 1_555
H3 C7 1_555 1_555
C8 C4 1_555 1_555
C9 C6 1_555 1_555
C10 C9 1_555 1_555
H4 C10 1_555 1_555
C11 C12 1_555 1_555
C12 C13 1_555 1_555
C13 H5 1_555 1_555
C14 C13 1_555 1_555
C15 C14 1_555 1_555
H6 C15 1_555 1_555
C16 C15 1_555 1_555
C17 C12 1_555 1_555
H7 C17 1_555 1_555
C18 C16 1_555 1_555
C19 C18 1_555 1_555
H8 C19 1_555 1_555
C20 C14 1_555 1_555
O1 C1 1_555 1_555
O2 C1 1_555 1_555
O3 C8 1_555 1_555
O4 C8 1_555 1_555
O5 C20 1_555 1_555
O6 C20 1_555 1_555
O7 Zn2 1_555 1_555
O8 Zn1 1_555 1_555
C21 H9 1_555 1_555
C22 H10 1_555 1_555
H11 C22 1_555 1_555
H12 C22 1_555 1_555
C23 H13 1_555 1_555
H14 C23 1_555 1_555
H15 C23 1_555 1_555
N1 C21 1_555 1_555
O9 Zn1 1_555 1_555
C24 H16 1_555 1_555
C25 H17 1_555 1_555
H18 C25 1_555 1_555
H19 C25 1_555 1_555
C26 H20 1_555 1_555
H21 C26 1_555 1_555
H22 C26 1_555 1_555
N2 C24 1_555 1_555
O10 Zn1 1_555 1_555
C27 H23 1_555 1_555
H24 C27 1_555 1_555
H25 C27 1_555 1_555
O11 Zn1 1_555 1_555
Zn1B O2B 1_555 1_555
Zn1A O2A 1_555 1_555
Zn1I O4 1_555 1_555
Zn1J O4B 1_555 1_555
Zn1K O4A 1_555 1_555
Zn1B_2 O8B 1_555 1_555
Zn1A_2 O8A 1_555 1_555
Zn2B O1B 1_555 1_555
Zn2A O1A 1_555 1_555
Zn2I O3 1_555 1_555
Zn2J O5 1_555 1_555
Zn2J_2 O3B 1_555 1_555
Zn2K O3A 1_555 1_555
Zn2B_2 O7B 1_555 1_555
Zn2A_2 O7A 1_555 1_555
Zn2I_2 O5A 1_555 1_555
C1B C2B 1_555 1_555
C1A C2A 1_555 1_555
C2B C3B 1_555 1_555
C2A C3A 1_555 1_555
C3B H1B 1_555 1_555
C3A H1A 1_555 1_555
C4B C3B 1_555 1_555
C4A C3A 1_555 1_555
C5B C4B 1_555 1_555
C5A C4A 1_555 1_555
H2B C5B 1_555 1_555
H2A C5A 1_555 1_555
C6B C5B 1_555 1_555
C6A C5A 1_555 1_555
C7B C2B 1_555 1_555
C7A C2A 1_555 1_555
H3B C7B 1_555 1_555
H3A C7A 1_555 1_555
C8B C4B 1_555 1_555
C8A C4A 1_555 1_555
C9B C10 1_555 1_555
C9A C6A 1_555 1_555
C10B C9B 1_555 1_555
C10A C9 1_555 1_555
H4A C10A 1_555 1_555
H4B C10B 1_555 1_555
C11B C12B 1_555 1_555
C11A C12A 1_555 1_555
C12B C13B 1_555 1_555
C12A C13A 1_555 1_555
C13B H5B 1_555 1_555
C13A H5A 1_555 1_555
C14B C13B 1_555 1_555
C14A C13A 1_555 1_555
C15B C14B 1_555 1_555
C15A C14A 1_555 1_555
H6B C15B 1_555 1_555
H6A C15A 1_555 1_555
C16B C15B 1_555 1_555
C16A C15A 1_555 1_555
C17B C12B 1_555 1_555
C17A C12A 1_555 1_555
H7B C17B 1_555 1_555
H7A C17A 1_555 1_555
C18B C19 1_555 1_555
C18A C16A 1_555 1_555
C19B C18B 1_555 1_555
C19A C18 1_555 1_555
H8A C19A 1_555 1_555
H8B C19B 1_555 1_555
C20B C14B 1_555 1_555
C20A C14A 1_555 1_555
O1B C1B 1_555 1_555
O1A C1A 1_555 1_555
O2B C1B 1_555 1_555
O2A C1A 1_555 1_555
O3B C8B 1_555 1_555
O3A C8A 1_555 1_555
O3O Zn2 1_555 1_555
O3P Zn2B 1_555 1_555
O3Q Zn2A 1_555 1_555
O4B Zn2J_2 1_555 1_555
O4A Zn2K 1_555 1_555
O4O Zn1 1_555 1_555
O4P Zn1B 1_555 1_555
O4Q Zn1A 1_555 1_555
O5B Zn2K 1_555 1_555
O5A C20A 1_555 1_555
O5P Zn2 1_555 1_555
O5Q Zn2B 1_555 1_555
O5O Zn2A 1_555 1_555
O6B Zn2K 1_555 1_555
O6A Zn2I_2 1_555 1_555
O6P Zn2 1_555 1_555
O6Q Zn2B 1_555 1_555
O6O Zn2A 1_555 1_555
O7B C11B 1_555 1_555
O7A C11A 1_555 1_555
O7B_2 Zn2B 1_555 1_555
O7A_2 Zn2A 1_555 1_555
O8B C11B 1_555 1_555
O8A C11A 1_555 1_555
O8B_2 Zn1B 1_555 1_555
O8A_2 Zn1A 1_555 1_555
C21B H9B 1_555 1_555
C21A H9A 1_555 1_555
C22B H10B 1_555 1_555
C22A H10A 1_555 1_555
H11B C22B 1_555 1_555
H11A C22A 1_555 1_555
H12B C22B 1_555 1_555
H12A C22A 1_555 1_555
C23B H13B 1_555 1_555
C23A H13A 1_555 1_555
H14B C23B 1_555 1_555
H14A C23A 1_555 1_555
H15B C23B 1_555 1_555
H15A C23A 1_555 1_555
N1B C21B 1_555 1_555
N1A C21A 1_555 1_555
O9B Zn1B 1_555 1_555
O9A Zn1A 1_555 1_555
C24B H16B 1_555 1_555
C24A H16A 1_555 1_555
C25B H17B 1_555 1_555
C25A H17A 1_555 1_555
H18B C25B 1_555 1_555
H18A C25A 1_555 1_555
H19B C25B 1_555 1_555
H19A C25A 1_555 1_555
C26B H20B 1_555 1_555
C26A H20A 1_555 1_555
H21B C26B 1_555 1_555
H21A C26A 1_555 1_555
H22B C26B 1_555 1_555
H22A C26A 1_555 1_555
N2B C24B 1_555 1_555
N2A C24A 1_555 1_555
O10B Zn1B 1_555 1_555
O10A Zn1A 1_555 1_555
C27B H23B 1_555 1_555
C27A H23A 1_555 1_555
H24B C27B 1_555 1_555
H24A C27A 1_555 1_555
H25B C27B 1_555 1_555
H25A C27A 1_555 1_555
O11B Zn1B 1_555 1_555
O11A Zn1A 1_555 1_555
Zn2 O4O 1_555 1_555
C6 C7 1_555 1_555
C11 O7 1_555 1_555
C11 O8 1_555 1_555
C16 C17 1_555 1_555
O4 Zn2I 1_555 1_555
O6 Zn2J 1_555 1_555
C21 O9 1_555 1_555
C22 N1 1_555 1_555
C23 N1 1_555 1_555
C24 O10 1_555 1_555
C25 N2 1_555 1_555
C26 N2 1_555 1_555
C27 O11 1_555 1_555
Zn2B O4P 1_555 1_555
Zn2A O4Q 1_555 1_555
C6B C7B 1_555 1_555
C6B C9B 1_555 1_555
C6A C7A 1_555 1_555
C8B O4B 1_555 1_555
C8A O4A 1_555 1_555
C9A C10B 1_555 1_555
C9A C10A 1_555 1_555
C16B C17B 1_555 1_555
C16B C18B 1_555 1_555
C16A C17A 1_555 1_555
C18A C19B 1_555 1_555
C18A C19A 1_555 1_555
C20B O5B 1_555 1_555
C20B O6B 1_555 1_555
C20A O6A 1_555 1_555
C21B O9B 1_555 1_555
C21A O9A 1_555 1_555
C22B N1B 1_555 1_555
C22A N1A 1_555 1_555
C23B N1B 1_555 1_555
C23A N1A 1_555 1_555
C24B O10B 1_555 1_555
C24A O10A 1_555 1_555
C25B N2B 1_555 1_555
C25A N2A 1_555 1_555
C26B N2B 1_555 1_555
C26A N2A 1_555 1_555
C27B O11B 1_555 1_555
C27A O11A 1_555 1_555

#END
