
#######################################################################
#
#                 Cambridge Crystallographic Data Centre
#                                CCDC 
#
#######################################################################
#
# If this CIF has been generated from an entry in the Cambridge 
# Structural Database, then it will include bibliographic, chemical, 
# crystal, experimental, refinement or atomic coordinate data resulting 
# from the CCDC's data processing and validation procedures.
#
#######################################################################

data_QUQFEO
_chemical_formula_moiety         '(C30 H12 O13 Zn4)n'
_symmetry_cell_setting           rhombohedral
_symmetry_space_group_name_H-M   'R 3 c'
_symmetry_Int_Tables_number      161
_space_group_name_Hall           'R 3 -2"c'
loop_
_symmetry_equiv_pos_site_id
_symmetry_equiv_pos_as_xyz
1 x,y,z
2 -y,x-y,z
3 -x+y,-x,z
4 -y,-x,1/2+z
5 -x+y,y,1/2+z
6 x,x-y,1/2+z
7 2/3+x,1/3+y,1/3+z
8 2/3-y,1/3+x-y,1/3+z
9 2/3-x+y,1/3-x,1/3+z
10 2/3-y,1/3-x,5/6+z
11 2/3-x+y,1/3+y,5/6+z
12 2/3+x,1/3+x-y,5/6+z
13 1/3+x,2/3+y,2/3+z
14 1/3-y,2/3+x-y,2/3+z
15 1/3-x+y,2/3-x,2/3+z
16 1/3-y,2/3-x,1/6+z
17 1/3-x+y,2/3+y,1/6+z
18 1/3+x,2/3+x-y,1/6+z
_cell_length_a                   15.1785(7)
_cell_length_b                   15.1785(7)
_cell_length_c                   39.085(3)
_cell_angle_alpha                90
_cell_angle_beta                 90
_cell_angle_gamma                120
_cell_volume                     7798.27
loop_
_atom_site_label
_atom_site_type_symbol
_atom_site_fract_x
_atom_site_fract_y
_atom_site_fract_z
C1 C 0.2951(4) 0.2412(5) 1.02828(18)
C2 C 0.2837(5) 0.3144(5) 1.0465(2)
C3 C 0.3688(5) 0.3977(5) 1.0612(2)
C4 C 0.4652(5) 0.4077(6) 1.0577(2)
C5 C 0.4766(5) 0.3345(6) 1.0395(2)
C6 C 0.3915(5) 0.2512(5) 1.02478(19)
Zn1 Zn 0.0000 0.0000 1.00594(8)
Zn4 Zn 0.12850(14) 0.1109(2) 0.93945(7)
C7 C 0.2053(8) 0.1585(8) 1.0123(3)
C8 C 0.5752(7) 0.3319(7) 1.0421(3)
C9 C 0.6641(8) 0.4211(7) 1.0430(3)
C10 C 0.3634(11) 0.4860(13) 1.0736(4)
O1 O 0.1161(12) 0.1250(12) 1.0252(4)
O3 O 0.239(5) 0.169(5) 0.9808(8)
O4 O 0.2733(6) 0.4737(8) 1.0739(2)
O5 O 0.4559(17) 0.5776(16) 1.0712(4)
O7 O 0.0000 0.0000 0.9555(4)
C1B C 0.9461(6) 0.7049(4) 1.02828(18)
C1A C 0.7588(5) 0.0539(6) 1.02828(18)
C2B C 1.0307(7) 0.7163(5) 1.0465(2)
C2A C 0.6856(5) -0.0307(7) 1.0465(2)
C3B C 1.0289(7) 0.6312(5) 1.0612(2)
C3A C 0.6023(5) -0.0289(7) 1.0612(2)
C4B C 0.9425(8) 0.5348(5) 1.0577(2)
C4A C 0.5923(6) 0.0575(8) 1.0577(2)
C5B C 0.8579(8) 0.5234(5) 1.0395(2)
C5A C 0.6655(6) 0.1421(8) 1.0395(2)
C6B C 0.8597(7) 0.6085(5) 1.02478(19)
C6A C 0.7488(5) 0.1403(7) 1.02478(19)
Zn1_2 Zn 1.0000 1.0000 1.00594(8)
Zn1_3 Zn 1.0000 0.0000 1.00594(8)
Zn4B Zn 0.98240(24) 0.87150(14) 0.93945(7)
Zn4A Zn 0.8891(2) 0.01760(24) 0.93945(7)
Zn4O Zn 0.2224(2) 0.53817(14) 1.10612(7)
Zn4Q Zn 0.46183(14) 0.68427(24) 1.10612(7)
Zn4B_2 Zn -0.01760(24) -0.12850(14) 0.93945(7)
Zn4A_2 Zn -0.1109(2) 0.01760(24) 0.93945(7)
Zn4P Zn 1.31573(24) 0.7776(2) 1.10612(7)
Zn4O_2 Zn 1.2224(2) 0.53817(14) 1.10612(7)
Zn4Q_2 Zn 0.46183(14) -0.31573(24) 1.10612(7)
Zn4P_2 Zn 0.31573(24) -0.2224(2) 1.10612(7)
C7B C 0.9532(11) 0.7947(8) 1.0123(3)
C7A C 0.8415(8) 0.0468(11) 1.0123(3)
C8B C 0.7567(10) 0.4248(7) 1.0421(3)
C8A C 0.6681(7) 0.2433(10) 1.0421(3)
C9B C 0.7570(11) 0.3359(8) 1.0430(3)
C9A C 0.5789(7) 0.2430(11) 1.0430(3)
C10B C 1.1226(17) 0.6366(11) 1.0736(4)
C10A C 0.5140(13) -0.1226(17) 1.0736(4)
O1B O 1.0089(17) 0.8839(12) 1.0252(4)
O1A O 0.8750(12) -0.0089(17) 1.0252(4)
O1A_2 O -0.1250(12) -0.0089(17) 1.0252(4)
O1B_2 O 0.0089(17) -0.1161(12) 1.0252(4)
O3B O 0.930(7) 0.761(5) 0.9808(8)
O3A O 0.831(5) 0.070(7) 0.9808(8)
O4B O 1.2004(10) 0.7267(6) 1.0739(2)
O4A O 0.5263(8) -0.2004(10) 1.0739(2)
O4I O 0.1930(8) 0.0600(6) 0.9072(2)
O4J O 0.8671(10) 0.8070(8) 0.9072(2)
O4K O 0.9400(6) 0.1329(10) 0.9072(2)
O5B O 1.1217(23) 0.5441(17) 1.0712(4)
O5A O 0.4224(16) -0.1217(23) 1.0712(4)
O5K O 0.1226(17) 0.2116(23) 0.9045(4)
O5I O 1.0891(16) 0.8774(17) 0.9045(4)
O5J O 0.7884(23) -0.0891(16) 0.9045(4)
O7_2 O 1.0000 1.0000 0.9555(4)
O7_3 O 1.0000 0.0000 0.9555(4)
loop_
_geom_bond_atom_site_label_1
_geom_bond_atom_site_label_2
_geom_bond_site_symmetry_1
_geom_bond_site_symmetry_2
C1 C2 1_555 1_555
C2 C3 1_555 1_555
C3 C4 1_555 1_555
C4 C5 1_555 1_555
C5 C6 1_555 1_555
C6 C1 1_555 1_555
Zn1 O1 1_555 1_555
Zn4 O3 1_555 1_555
C7 C1 1_555 1_555
C8 C5 1_555 1_555
C9 C8 1_555 1_555
C10 C3 1_555 1_555
O1 C7 1_555 1_555
O3 C7 1_555 1_555
O4 C10 1_555 1_555
O5 C10 1_555 1_555
O7 Zn1 1_555 1_555
C1B C2B 1_555 1_555
C1A C2A 1_555 1_555
C2B C3B 1_555 1_555
C2A C3A 1_555 1_555
C3B C4B 1_555 1_555
C3A C4A 1_555 1_555
C4B C5B 1_555 1_555
C4A C5A 1_555 1_555
C5B C6B 1_555 1_555
C5A C6A 1_555 1_555
C6B C1B 1_555 1_555
C6A C1A 1_555 1_555
Zn1_2 O1B 1_555 1_555
Zn1_3 O1A 1_555 1_555
Zn4B O3B 1_555 1_555
Zn4A O3A 1_555 1_555
Zn4O O4 1_555 1_555
Zn4Q O5 1_555 1_555
Zn4B_2 O7 1_555 1_555
Zn4A_2 O7 1_555 1_555
Zn4P O4B 1_555 1_555
Zn4O_2 O5B 1_555 1_555
Zn4Q_2 O4A 1_555 1_555
Zn4P_2 O5A 1_555 1_555
C7B C1B 1_555 1_555
C7A C1A 1_555 1_555
C8B C9 1_555 1_555
C8A C5A 1_555 1_555
C9B C8B 1_555 1_555
C9A C8 1_555 1_555
C10B C3B 1_555 1_555
C10A C3A 1_555 1_555
O1B C7B 1_555 1_555
O1A C7A 1_555 1_555
O1A_2 Zn1 1_555 1_555
O1B_2 Zn1 1_555 1_555
O3B C7B 1_555 1_555
O3A C7A 1_555 1_555
O4B C10B 1_555 1_555
O4A C10A 1_555 1_555
O4I Zn4 1_555 1_555
O4J Zn4B 1_555 1_555
O4K Zn4A 1_555 1_555
O5B C10B 1_555 1_555
O5A C10A 1_555 1_555
O5K Zn4 1_555 1_555
O5I Zn4B 1_555 1_555
O5J Zn4A 1_555 1_555
O7_2 Zn1_2 1_555 1_555
O7_3 Zn1_3 1_555 1_555
Zn4 O7 1_555 1_555
C5B C8B 1_555 1_555
Zn4B O7_2 1_555 1_555
Zn4A O7_3 1_555 1_555
C8A C9B 1_555 1_555
C8A C9A 1_555 1_555

#END
