
#######################################################################
#
#                 Cambridge Crystallographic Data Centre
#                                CCDC 
#
#######################################################################
#
# If this CIF has been generated from an entry in the Cambridge 
# Structural Database, then it will include bibliographic, chemical, 
# crystal, experimental, refinement or atomic coordinate data resulting 
# from the CCDC's data processing and validation procedures.
#
#######################################################################

data_ELAFUT
_chemical_formula_moiety         '(C46 H44 Cd3 N8 O18 S6)n'
_symmetry_cell_setting           triclinic
_symmetry_space_group_name_H-M   'P -1'
_symmetry_Int_Tables_number      2
_space_group_name_Hall           '-P 1'
loop_
_symmetry_equiv_pos_site_id
_symmetry_equiv_pos_as_xyz
1 x,y,z
2 -x,-y,-z
_cell_length_a                   8.4243(9)
_cell_length_b                   11.6368(12)
_cell_length_c                   15.7095(16)
_cell_angle_alpha                95.4940(10)
_cell_angle_beta                 104.7250(10)
_cell_angle_gamma                99.1220(10)
_cell_volume                     1455.62
loop_
_atom_site_label
_atom_site_type_symbol
_atom_site_fract_x
_atom_site_fract_y
_atom_site_fract_z
Cd1 Cd 0.5000 0.5000 0.0000
Cd2 Cd 0.476744(19) 0.449920(13) 0.323826(10)
S1 S 0.22371(7) 0.44746(5) 0.47608(3)
S2 S 0.17708(6) 0.42777(5) 0.10648(3)
S3 S -0.20243(7) 0.53008(5) 0.22081(3)
O1 O 0.25217(19) 0.43635(14) 0.38788(10)
O2 O 0.2153(2) 0.33925(15) 0.51353(11)
O3 O 0.34285(19) 0.54641(14) 0.53633(10)
O4 O 0.2789(2) 0.50316(15) 0.06300(11)
O5 O 0.2791(2) 0.38616(15) 0.18256(10)
O6 O 0.05828(19) 0.33351(14) 0.04503(10)
O7 O -0.2964(2) 0.55454(15) 0.13468(10)
O8 O -0.3058(2) 0.44825(15) 0.25950(12)
O9 O -0.1145(2) 0.63552(14) 0.28050(10)
N1 N 0.4990(2) 0.69505(16) 0.00412(12)
N2 N 0.4497(2) 0.63981(16) 0.31202(12)
N3 N 0.4556(2) 1.25077(16) 0.31465(12)
C1 C 0.0249(3) 0.4898(2) 0.45709(14)
H1 H 0.0285 0.5629 0.4295
H2 H -0.0605 0.4275 0.4151
C2 C 0.0563(3) 0.5200(2) 0.14805(15)
H3 H 0.1314 0.5888 0.1883
H4 H -0.0166 0.5491 0.0981
C3 C -0.0503(3) 0.4514(2) 0.19828(15)
H5 H 0.0223 0.4368 0.2549
H6 H -0.1068 0.3743 0.1624
C4 C 0.4814(3) 0.6941(2) 0.24486(14)
H7 H 0.5124 0.6506 0.1994
C5 C 0.4036(3) 0.7036(2) 0.37454(15)
H8 H 0.3801 0.6667 0.4225
C6 C 0.3887(3) 0.8197(2) 0.37271(15)
H9 H 0.3526 0.8601 0.4177
C7 C 0.4711(3) 0.8103(2) 0.23876(14)
H10 H 0.4942 0.8445 0.1896
C8 C 0.4270(3) 0.87797(19) 0.30402(14)
C9 C 0.4302(3) 1.00538(19) 0.30535(14)
C10 C 0.3851(3) 1.0714(2) 0.37123(15)
H11 H 0.3445 1.0336 0.4145
C11 C 0.4848(3) 1.0680(2) 0.24298(15)
H12 H 0.5145 1.0274 0.1957
C12 C 0.3991(3) 1.1912(2) 0.37370(15)
H13 H 0.3674 1.2339 0.4193
C13 C 0.6469(3) 0.8912(2) 0.01364(15)
H14 H 0.7508 0.9423 0.0213
C14 C 0.3518(3) 0.8557(2) -0.00800(15)
H15 H 0.2484 0.8817 -0.0155
C15 C 0.4996(3) 0.93680(19) 0.00115(14)
C16 C 0.6411(3) 0.7726(2) 0.01485(15)
H16 H 0.7428 0.7442 0.0237
C17 C 0.3571(3) 0.7379(2) -0.00600(15)
H17 H 0.2557 0.6846 -0.0121
C18 C 0.4955(3) 1.1882(2) 0.24994(15)
H18 H 0.5330 1.2284 0.2067
Cd1_2 Cd -0.5000 0.5000 0.0000
Cd1_3 Cd 0.5000 1.5000 0.0000
Cd1_4 Cd 1.5000 0.5000 0.0000
Cd2A Cd 0.523256(19) 0.550080(13) -0.323826(10)
Cd2A_2 Cd 0.523256(19) 0.550080(13) 0.676174(10)
Cd2_2 Cd -0.523256(19) 0.449920(13) 0.323826(10)
Cd2_3 Cd 0.476744(19) 1.449920(13) 0.323826(10)
Cd2A_3 Cd -0.476744(19) 0.550080(13) 0.676174(10)
Cd2A_4 Cd 1.523256(19) 0.550080(13) -0.323826(10)
Cd2_4 Cd 0.476744(19) -0.550080(13) 0.323826(10)
S1A S -0.22371(7) 0.55254(5) 0.52392(3)
S2A S 0.82292(6) 0.57223(5) -0.10648(3)
S3A S 1.20243(7) 0.46992(5) -0.22081(3)
O1A O -0.25217(19) 0.56365(14) 0.61212(10)
O1A_2 O 0.74783(19) 0.56365(14) -0.38788(10)
O2A O -0.2153(2) 0.66075(15) 0.48647(11)
O3A O -0.34285(19) 0.45359(14) 0.46367(10)
O3A_2 O 0.65715(19) 0.45359(14) 0.46367(10)
O3_2 O 0.34285(19) 0.54641(14) -0.46367(10)
O4A O 0.7211(2) 0.49684(15) -0.06300(11)
O5A O 0.7209(2) 0.61384(15) -0.18256(10)
O6A O 0.94172(19) 0.66649(14) -0.04503(10)
O7A O 1.2964(2) 0.44546(15) -0.13468(10)
O7_2 O 0.7036(2) 0.55454(15) 0.13468(10)
O7A_2 O 0.2964(2) 0.44546(15) -0.13468(10)
O8A O 1.3058(2) 0.55175(15) -0.25950(12)
O8_2 O 0.6942(2) 0.44825(15) 0.25950(12)
O8A_2 O 0.3058(2) 0.55175(15) -0.25950(12)
O9A O 1.1145(2) 0.36448(14) -0.28050(10)
N1A N 0.5010(2) 1.30495(16) -0.00412(12)
N1A_2 N 0.5010(2) 0.30495(16) -0.00412(12)
N2_2 N 0.4497(2) -0.36019(16) 0.31202(12)
N2A N 0.5503(2) 0.36019(16) -0.31202(12)
N3_2 N 0.4556(2) 0.25077(16) 0.31465(12)
N3A N 0.5444(2) 0.74923(16) -0.31465(12)
C1A C -0.0249(3) 0.5102(2) 0.54291(14)
H1A H -0.0285 0.4371 0.5705
H2A H 0.0605 0.5725 0.5849
C2A C 0.9437(3) 0.4800(2) -0.14805(15)
H3A H 0.8686 0.4112 -0.1883
H4A H 1.0166 0.4509 -0.0981
C3A C 1.0503(3) 0.5486(2) -0.19828(15)
H5A H 0.9777 0.5632 -0.2549
H6A H 1.1068 0.6257 -0.1624
C4_2 C 0.4814(3) -0.3059(2) 0.24486(14)
H7_2 H 0.5124 -0.3494 0.1994
C5_2 C 0.4036(3) -0.2964(2) 0.37454(15)
H8_2 H 0.3801 -0.3333 0.4225
C6_2 C 0.3887(3) -0.1803(2) 0.37271(15)
H9_2 H 0.3526 -0.1399 0.4177
C7_2 C 0.4711(3) -0.1897(2) 0.23876(14)
H10_2 H 0.4942 -0.1555 0.1896
C8_2 C 0.4270(3) -0.12203(19) 0.30402(14)
C9_2 C 0.4302(3) 0.00538(19) 0.30535(14)
C10_2 C 0.3851(3) 0.0714(2) 0.37123(15)
H11_2 H 0.3445 0.0336 0.4145
C11_2 C 0.4848(3) 0.0680(2) 0.24298(15)
H12_2 H 0.5145 0.0274 0.1957
C12_2 C 0.3991(3) 0.1912(2) 0.37370(15)
H13_2 H 0.3674 0.2339 0.4193
C13A C 0.3531(3) 1.1088(2) -0.01364(15)
H14A H 0.2492 1.0577 -0.0213
C14A C 0.6482(3) 1.1443(2) 0.00800(15)
H15A H 0.7516 1.1183 0.0155
C15A C 0.5004(3) 1.06320(19) -0.00115(14)
C16A C 0.3589(3) 1.2274(2) -0.01485(15)
H16A H 0.2572 1.2558 -0.0237
C17A C 0.6429(3) 1.2621(2) 0.00600(15)
H17A H 0.7443 1.3154 0.0121
C18_2 C 0.4955(3) 0.1882(2) 0.24994(15)
H18_2 H 0.5330 0.2284 0.2067
N4 N 0.1023(2) -0.03140(18) 0.09568(13)
N5 N -0.2128(3) 0.04727(19) 0.47470(13)
C19 C 0.0593(3) -0.1208(2) 0.13790(16)
H19 H 0.0716 -0.1968 0.1158
C20 C 0.0826(3) 0.0743(2) 0.12877(16)
C21 C -0.1968(3) -0.0583(2) 0.44004(16)
H20 H -0.2301 -0.1242 0.4671
C22 C -0.1599(3) 0.1381(2) 0.43613(17)
H21 H -0.1670 0.2146 0.4602
C23 C -0.0019(3) -0.1103(2) 0.21152(15)
H22 H -0.0306 -0.1775 0.2384
C24 C 0.0225(3) 0.0941(2) 0.20206(16)
H23 H 0.0111 0.1711 0.2224
C25 C -0.0211(3) 0.0006(2) 0.24594(15)
C26 C -0.0843(3) 0.0166(2) 0.32623(15)
C27 C -0.1351(3) -0.0780(2) 0.36740(15)
H24 H -0.1274 -0.1554 0.3458
C28 C -0.0961(3) 0.1280(2) 0.36407(16)
H25 H -0.0602 0.1961 0.3400
H26 H 0.117(4) 0.139(3) 0.1003(19)
loop_
_geom_bond_atom_site_label_1
_geom_bond_atom_site_label_2
_geom_bond_site_symmetry_1
_geom_bond_site_symmetry_2
Cd1 O4 1_555 1_555
Cd2 O1 1_555 1_555
S1 O1 1_555 1_555
S2 O4 1_555 1_555
S3 O7 1_555 1_555
O2 S1 1_555 1_555
O3 S1 1_555 1_555
O5 Cd2 1_555 1_555
O6 S2 1_555 1_555
O7 Cd1_2 1_555 1_555
O8 S3 1_555 1_555
O9 S3 1_555 1_555
N1 Cd1 1_555 1_555
N2 Cd2 1_555 1_555
N3 C12 1_555 1_555
C1 S1 1_555 1_555
H1 C1 1_555 1_555
H2 C1 1_555 1_555
C2 S2 1_555 1_555
H3 C2 1_555 1_555
H4 C2 1_555 1_555
C3 S3 1_555 1_555
H5 C3 1_555 1_555
H6 C3 1_555 1_555
C4 N2 1_555 1_555
H7 C4 1_555 1_555
C5 N2 1_555 1_555
H8 C5 1_555 1_555
C6 C5 1_555 1_555
H9 C6 1_555 1_555
C7 C4 1_555 1_555
H10 C7 1_555 1_555
C8 C6 1_555 1_555
C9 C8 1_555 1_555
C10 C9 1_555 1_555
H11 C10 1_555 1_555
C11 C9 1_555 1_555
H12 C11 1_555 1_555
C12 C10 1_555 1_555
H13 C12 1_555 1_555
C13 H14 1_555 1_555
C14 H15 1_555 1_555
C15 C13 1_555 1_555
C16 N1 1_555 1_555
H16 C16 1_555 1_555
C17 N1 1_555 1_555
H17 C17 1_555 1_555
C18 N3 1_555 1_555
H18 C18 1_555 1_555
N4 C19 1_555 1_555
N5 C21 1_555 1_555
C19 H19 1_555 1_555
C20 N4 1_555 1_555
C21 H20 1_555 1_555
C22 N5 1_555 1_555
H21 C22 1_555 1_555
C23 C19 1_555 1_555
H22 C23 1_555 1_555
C24 C20 1_555 1_555
H23 C24 1_555 1_555
C25 C23 1_555 1_555
C26 C25 1_555 1_555
C27 C21 1_555 1_555
H24 C27 1_555 1_555
C28 C22 1_555 1_555
H25 C28 1_555 1_555
H26 C20 1_555 1_555
Cd1_3 N1A 1_555 1_555
Cd1_4 O7A 1_555 1_555
Cd2A O1A_2 1_555 1_555
Cd2A_2 O3 1_555 1_555
Cd2_2 O8 1_555 1_555
Cd2_3 N3 1_555 1_555
Cd2A_3 O1A 1_555 1_555
Cd2A_4 O8A 1_555 1_555
Cd2_4 N2_2 1_555 1_555
S1A O1A 1_555 1_555
S2A O4A 1_555 1_555
S3A O7A 1_555 1_555
O2A S1A 1_555 1_555
O3A Cd2_2 1_555 1_555
O3A_2 Cd2 1_555 1_555
O3_2 Cd2A 1_555 1_555
O4A Cd1 1_555 1_555
O5A Cd2A 1_555 1_555
O6A S2A 1_555 1_555
O7_2 Cd1 1_555 1_555
O7A_2 Cd1 1_555 1_555
O8A S3A 1_555 1_555
O8_2 Cd2 1_555 1_555
O8A_2 Cd2A 1_555 1_555
O9A S3A 1_555 1_555
N1A C16A 1_555 1_555
N1A_2 Cd1 1_555 1_555
N2_2 C4_2 1_555 1_555
N2A Cd2A 1_555 1_555
N3_2 Cd2 1_555 1_555
N3A Cd2A 1_555 1_555
C1A C1 1_555 1_555
H1A C1A 1_555 1_555
H2A C1A 1_555 1_555
C2A S2A 1_555 1_555
H3A C2A 1_555 1_555
H4A C2A 1_555 1_555
C3A S3A 1_555 1_555
H5A C3A 1_555 1_555
H6A C3A 1_555 1_555
C4_2 H7_2 1_555 1_555
C5_2 N2_2 1_555 1_555
H8_2 C5_2 1_555 1_555
C6_2 C5_2 1_555 1_555
H9_2 C6_2 1_555 1_555
C7_2 C4_2 1_555 1_555
H10_2 C7_2 1_555 1_555
C8_2 C6_2 1_555 1_555
C9_2 C8_2 1_555 1_555
C10_2 C9_2 1_555 1_555
H11_2 C10_2 1_555 1_555
C11_2 C9_2 1_555 1_555
H12_2 C11_2 1_555 1_555
C12_2 N3_2 1_555 1_555
H13_2 C12_2 1_555 1_555
C13A H14A 1_555 1_555
C14A H15A 1_555 1_555
C15A C15 1_555 1_555
C16A C13A 1_555 1_555
H16A C16A 1_555 1_555
C17A N1A 1_555 1_555
H17A C17A 1_555 1_555
C18_2 N3_2 1_555 1_555
H18_2 C18_2 1_555 1_555
S2 O5 1_555 1_555
C2 C3 1_555 1_555
C7 C8 1_555 1_555
C11 C18 1_555 1_555
C13 C16 1_555 1_555
C14 C15 1_555 1_555
C14 C17 1_555 1_555
C24 C25 1_555 1_555
C26 C27 1_555 1_555
C26 C28 1_555 1_555
S1A O3A 1_555 1_555
S1A C1A 1_555 1_555
S2A O5A 1_555 1_555
C2A C3A 1_555 1_555
C7_2 C8_2 1_555 1_555
C10_2 C12_2 1_555 1_555
C11_2 C18_2 1_555 1_555
C13A C15A 1_555 1_555
C14A C15A 1_555 1_555
C14A C17A 1_555 1_555

#END
