
#######################################################################
#
#                 Cambridge Crystallographic Data Centre
#                                CCDC 
#
#######################################################################
#
# If this CIF has been generated from an entry in the Cambridge 
# Structural Database, then it will include bibliographic, chemical, 
# crystal, experimental, refinement or atomic coordinate data resulting 
# from the CCDC's data processing and validation procedures.
#
#######################################################################

data_YOBYAR
_chemical_formula_moiety         '(C53 H45 N3 Ni2 O21 Zn2)n'
_symmetry_cell_setting           tetragonal
_symmetry_space_group_name_H-M   'I -4'
_symmetry_Int_Tables_number      82
_space_group_name_Hall           'I -4'
loop_
_symmetry_equiv_pos_site_id
_symmetry_equiv_pos_as_xyz
1 x,y,z
2 y,-x,-z
3 -x,-y,z
4 -y,x,-z
5 1/2+x,1/2+y,1/2+z
6 1/2+y,1/2-x,1/2-z
7 1/2-x,1/2-y,1/2+z
8 1/2-y,1/2+x,1/2-z
_cell_length_a                   25.314(4)
_cell_length_b                   25.314(4)
_cell_length_c                   33.458(5)
_cell_angle_alpha                90
_cell_angle_beta                 90
_cell_angle_gamma                90
_cell_volume                     21439.8
loop_
_atom_site_label
_atom_site_type_symbol
_atom_site_fract_x
_atom_site_fract_y
_atom_site_fract_z
Ni1 Ni 0.23338(3) 0.86060(3) 0.347704(19)
Zn1 Zn 0.26978(2) 0.76111(2) 0.288258(18)
Zn2 Zn 0.23643(2) 0.76983(2) 0.462066(17)
Ni2 Ni 0.76909(4) 0.65403(3) 0.46488(2)
O1 O 0.20110(17) 0.8294(2) 0.39897(13)
O2 O 0.17486(16) 0.75496(18) 0.42634(14)
O3 O 0.21055(15) 0.78520(16) 0.32289(12)
O4 O 0.15893(19) 0.7762(3) 0.26954(15)
O5 O -0.1888(3) 0.7552(3) 0.2308(2)
O6 O -0.2083(3) 0.8322(5) 0.2565(2)
O7 O -0.19969(17) 0.7286(2) 0.45780(15)
O8 O -0.1667(2) 0.7768(2) 0.50727(15)
O9 O 0.32256(18) 0.7554(2) 0.33106(15)
O10 O 0.30672(16) 0.83254(18) 0.36173(13)
O11 O 0.30274(16) 0.76899(19) 0.43306(13)
O12 O 0.35312(18) 0.80484(18) 0.48022(13)
O13 O 0.70309(17) 0.7707(2) 0.50831(14)
O14 O 0.70074(19) 0.6880(2) 0.48734(19)
O15 O 0.67932(18) 0.7851(2) 0.24648(15)
O16 O 0.61323(19) 0.7547(3) 0.20693(14)
C1 C 0.1204(2) 0.7875(3) 0.37483(18)
C2 C 0.1178(2) 0.7849(3) 0.33307(19)
C3 C 0.0692(2) 0.7856(3) 0.31429(19)
H1 H 0.0679 0.7848 0.2859
C4 C 0.0217(2) 0.7875(3) 0.3359(2)
C5 C 0.0240(2) 0.7864(3) 0.3780(2)
C6 C 0.0730(2) 0.7881(3) 0.3961(2)
H2 H 0.0745 0.7897 0.4244
C7 C 0.1691(2) 0.7903(3) 0.40016(18)
C8 C 0.1645(3) 0.7820(3) 0.3059(2)
C9 C -0.0293(2) 0.7893(3) 0.3126(2)
C10 C -0.0390(3) 0.7524(4) 0.2834(2)
H3 H -0.0136 0.7262 0.2767
C11 C -0.0885(3) 0.7550(4) 0.2638(3)
H4 H -0.0970 0.7294 0.2440
C12 C -0.1245(3) 0.7936(3) 0.2728(2)
C13 C -0.1152(3) 0.8302(4) 0.3007(3)
H5 H -0.1407 0.8568 0.3061
C14 C -0.0657(3) 0.8291(4) 0.3227(3)
H6 H -0.0583 0.8542 0.3431
C15 C -0.1789(3) 0.7941(4) 0.2518(2)
C16 C -0.0244(2) 0.7806(3) 0.4022(2)
C17 C -0.0601(2) 0.7393(3) 0.3931(2)
H7 H -0.0536 0.7169 0.3709
C18 C -0.1044(2) 0.7319(4) 0.4164(2)
H8 H -0.1284 0.7041 0.4105
C19 C -0.1138(2) 0.7651(3) 0.4487(2)
C20 C -0.0781(3) 0.8033(4) 0.4591(3)
H9 H -0.0837 0.8240 0.4824
C21 C -0.0331(3) 0.8120(4) 0.4351(3)
H10 H -0.0089 0.8394 0.4416
C22 C -0.1638(3) 0.7555(3) 0.4732(2)
C23 C 0.3834(2) 0.7845(3) 0.37666(17)
C24 C 0.3914(2) 0.7856(3) 0.41755(17)
C25 C 0.4426(2) 0.7821(3) 0.43291(19)
H11 H 0.4479 0.7840 0.4610
C26 C 0.4855(2) 0.7760(3) 0.4079(2)
C27 C 0.4791(2) 0.7752(3) 0.3666(2)
C28 C 0.4281(3) 0.7791(4) 0.3512(2)
H12 H 0.4231 0.7781 0.3231
C29 C 0.3325(2) 0.7904(2) 0.35557(16)
C30 C 0.3454(2) 0.7864(2) 0.44515(17)
C31 C 0.5383(2) 0.7650(4) 0.42750(18)
C32 C 0.5667(3) 0.7212(4) 0.4188(2)
H13 H 0.5543 0.6971 0.3992
C33 C 0.6138(3) 0.7116(3) 0.4385(2)
H14 H 0.6334 0.6807 0.4322
C34 C 0.6330(3) 0.7462(3) 0.4673(2)
C35 C 0.6052(3) 0.7920(4) 0.4757(2)
H15 H 0.6184 0.8166 0.4947
C36 C 0.5575(3) 0.8015(4) 0.4558(2)
H16 H 0.5379 0.8327 0.4614
C37 C 0.6832(2) 0.7340(3) 0.4887(2)
C38 C 0.5221(2) 0.7711(4) 0.33661(19)
C39 C 0.5130(3) 0.7391(4) 0.3034(2)
H17 H 0.4819 0.7181 0.3020
C40 C 0.5499(3) 0.7379(4) 0.2720(2)
H18 H 0.5443 0.7157 0.2495
C41 C 0.5944(2) 0.7694(3) 0.2742(2)
C42 C 0.6037(3) 0.8009(3) 0.3077(2)
H19 H 0.6347 0.8221 0.3091
C43 C 0.5676(3) 0.8015(3) 0.3389(2)
H20 H 0.5740 0.8226 0.3619
C44 C 0.6322(3) 0.7708(3) 0.2395(2)
N1 N 0.1053(4) 0.9638(4) 0.3317(6)
O17 O 0.1590(2) 0.8967(2) 0.3354(2)
C45 C 0.1517(4) 0.9434(4) 0.3326(4)
H21 H 0.1814 0.9662 0.3311
C46 C 0.0565(6) 0.9341(6) 0.3391(7)
H22 H 0.0555 0.9029 0.3218
H23 H 0.0259 0.9566 0.3334
H24 H 0.0553 0.9229 0.3671
C47 C 0.0985(8) 1.0216(6) 0.3309(16)
H25 H 0.0889 1.0353 0.3566
H26 H 0.1312 1.0373 0.3224
H27 H 0.0713 1.0298 0.3119
N2 N 0.2916(5) 0.9576(3) 0.4374(3)
O18 O 0.2550(3) 0.9272(2) 0.38004(18)
C48 C 0.2762(4) 0.9198(4) 0.4136(3)
H28 H 0.2813 0.8844 0.4221
C49 C 0.2800(11) 1.0120(4) 0.4281(9)
H29 H 0.2647 1.0153 0.4020
H30 H 0.2559 1.0258 0.4477
H31 H 0.3125 1.0314 0.4292
C50 C 0.3193(6) 0.9463(5) 0.4756(3)
H32 H 0.3109 0.9740 0.4951
H33 H 0.3575 0.9456 0.4710
H34 H 0.3077 0.9120 0.4860
N3 N 0.7308(6) 0.6967(6) 0.3478(3)
O19 O 0.7348(4) 0.6598(3) 0.4073(2)
C51 C 0.7476(5) 0.6895(5) 0.3834(3)
H35 H 0.7753 0.7126 0.3913
C52 C 0.6782(7) 0.6745(8) 0.3350(6)
H36 H 0.6710 0.6419 0.3498
H37 H 0.6791 0.6669 0.3062
H38 H 0.6503 0.7004 0.3405
C53 C 0.7472(9) 0.7373(8) 0.3217(5)
H39 H 0.7419 0.7256 0.2947
H40 H 0.7266 0.7686 0.3263
H41 H 0.7839 0.7451 0.3258
O20 O 0.7315(4) 0.5803(2) 0.4715(2)
H42 H 0.7043 0.5743 0.4862
H43 H 0.7410 0.5515 0.4599
O21 O 0.8339(4) 0.6173(3) 0.4417(2)
H44 H 0.8522 0.5933 0.4536
H45 H 0.8473 0.6232 0.4184
Ni1G Ni 0.63940(3) 0.73338(3) 0.152296(19)
Zn1G Zn -0.26111(2) 0.76978(2) 0.211742(18)
Zn1G_2 Zn 0.73889(2) 0.76978(2) 0.211742(18)
Zn2A Zn -0.23017(2) 0.76357(2) 0.537934(17)
Zn2A_2 Zn 0.76983(2) 0.76357(2) 0.537934(17)
Ni2_2 Ni -0.23091(4) 0.65403(3) 0.46488(2)
Ni2C Ni 0.34597(3) 0.76909(4) 0.53512(2)
O5E O 0.2552(3) 0.6888(3) 0.2692(2)
O6E O 0.3322(5) 0.7083(3) 0.2435(2)
O7_2 O 0.80031(17) 0.7286(2) 0.45780(15)
O8C O 0.2232(2) 0.8333(2) 0.49273(15)
O12A O 0.80484(18) 0.64688(18) 0.51978(13)
O13C O 0.2293(2) 0.70309(17) 0.49169(14)
O15E O 0.2851(2) 0.82068(18) 0.25352(15)
O16E O 0.2547(3) 0.88677(19) 0.29307(14)
loop_
_geom_bond_atom_site_label_1
_geom_bond_atom_site_label_2
_geom_bond_site_symmetry_1
_geom_bond_site_symmetry_2
Ni1 Zn1 1_555 1_555
Zn1 O3 1_555 1_555
Zn2 O2 1_555 1_555
Ni2 O14 1_555 1_555
O1 Ni1 1_555 1_555
O2 C7 1_555 1_555
O3 Ni1 1_555 1_555
O4 C8 1_555 1_555
O5 C15 1_555 1_555
O6 C15 1_555 1_555
O7 C22 1_555 1_555
O8 C22 1_555 1_555
O9 Zn1 1_555 1_555
O10 Ni1 1_555 1_555
O11 Zn2 1_555 1_555
O12 C30 1_555 1_555
O13 C37 1_555 1_555
O14 C37 1_555 1_555
O15 C44 1_555 1_555
O16 C44 1_555 1_555
C1 C2 1_555 1_555
C2 C3 1_555 1_555
C3 H1 1_555 1_555
C4 C3 1_555 1_555
C5 C4 1_555 1_555
C6 C1 1_555 1_555
H2 C6 1_555 1_555
C7 O1 1_555 1_555
C8 O3 1_555 1_555
C9 C4 1_555 1_555
C10 C9 1_555 1_555
H3 C10 1_555 1_555
C11 C10 1_555 1_555
H4 C11 1_555 1_555
C12 C11 1_555 1_555
C13 C12 1_555 1_555
H5 C13 1_555 1_555
C14 C9 1_555 1_555
H6 C14 1_555 1_555
C15 C12 1_555 1_555
C16 C5 1_555 1_555
C17 C16 1_555 1_555
H7 C17 1_555 1_555
C18 C17 1_555 1_555
H8 C18 1_555 1_555
C19 C18 1_555 1_555
C20 C19 1_555 1_555
H9 C20 1_555 1_555
C21 C16 1_555 1_555
H10 C21 1_555 1_555
C22 C19 1_555 1_555
C23 C24 1_555 1_555
C24 C25 1_555 1_555
C25 H11 1_555 1_555
C26 C25 1_555 1_555
C27 C26 1_555 1_555
C28 C23 1_555 1_555
H12 C28 1_555 1_555
C29 O9 1_555 1_555
C30 O11 1_555 1_555
C31 C26 1_555 1_555
C32 C31 1_555 1_555
H13 C32 1_555 1_555
C33 C32 1_555 1_555
H14 C33 1_555 1_555
C34 C33 1_555 1_555
C35 C34 1_555 1_555
H15 C35 1_555 1_555
C36 C31 1_555 1_555
H16 C36 1_555 1_555
C37 C34 1_555 1_555
C38 C27 1_555 1_555
C39 C38 1_555 1_555
H17 C39 1_555 1_555
C40 C39 1_555 1_555
H18 C40 1_555 1_555
C41 C40 1_555 1_555
C42 C41 1_555 1_555
H19 C42 1_555 1_555
C43 C38 1_555 1_555
H20 C43 1_555 1_555
C44 C41 1_555 1_555
N1 C45 1_555 1_555
O17 Ni1 1_555 1_555
C45 O17 1_555 1_555
H21 C45 1_555 1_555
C46 N1 1_555 1_555
H22 C46 1_555 1_555
H23 C46 1_555 1_555
H24 C46 1_555 1_555
C47 N1 1_555 1_555
H25 C47 1_555 1_555
H26 C47 1_555 1_555
H27 C47 1_555 1_555
N2 C48 1_555 1_555
O18 Ni1 1_555 1_555
C48 O18 1_555 1_555
H28 C48 1_555 1_555
C49 N2 1_555 1_555
H29 C49 1_555 1_555
H30 C49 1_555 1_555
H31 C49 1_555 1_555
C50 N2 1_555 1_555
H32 C50 1_555 1_555
H33 C50 1_555 1_555
H34 C50 1_555 1_555
N3 C51 1_555 1_555
O19 Ni2 1_555 1_555
C51 O19 1_555 1_555
H35 C51 1_555 1_555
C52 N3 1_555 1_555
H36 C52 1_555 1_555
H37 C52 1_555 1_555
H38 C52 1_555 1_555
C53 N3 1_555 1_555
H39 C53 1_555 1_555
H40 C53 1_555 1_555
H41 C53 1_555 1_555
O20 Ni2 1_555 1_555
H42 O20 1_555 1_555
H43 O20 1_555 1_555
O21 Ni2 1_555 1_555
H44 O21 1_555 1_555
H45 O21 1_555 1_555
Ni1G O16 1_555 1_555
Zn1G O5 1_555 1_555
Zn1G_2 O15 1_555 1_555
Zn2A O8 1_555 1_555
Zn2A_2 O13 1_555 1_555
Ni2_2 O7 1_555 1_555
Ni2C O12 1_555 1_555
O5E Zn1 1_555 1_555
O6E Zn1 1_555 1_555
O7_2 Ni2 1_555 1_555
O8C Zn2 1_555 1_555
O12A Ni2 1_555 1_555
O13C Zn2 1_555 1_555
O15E Zn1 1_555 1_555
O16E Ni1 1_555 1_555
O6 Zn1G 1_555 1_555
O10 C29 1_555 1_555
C1 C7 1_555 1_555
C2 C8 1_555 1_555
C5 C6 1_555 1_555
C13 C14 1_555 1_555
C20 C21 1_555 1_555
C23 C29 1_555 1_555
C24 C30 1_555 1_555
C27 C28 1_555 1_555
C35 C36 1_555 1_555
C42 C43 1_555 1_555
Ni1G Zn1G_2 1_555 1_555

#END
