
#######################################################################
#
#                 Cambridge Crystallographic Data Centre
#                                CCDC 
#
#######################################################################
#
# If this CIF has been generated from an entry in the Cambridge 
# Structural Database, then it will include bibliographic, chemical, 
# crystal, experimental, refinement or atomic coordinate data resulting 
# from the CCDC's data processing and validation procedures.
#
#######################################################################

data_YOCDUR
_chemical_formula_moiety         '(C53 H45 N3 O21 Zn4)n'
_symmetry_cell_setting           tetragonal
_symmetry_space_group_name_H-M   'I -4'
_symmetry_Int_Tables_number      82
_space_group_name_Hall           'I -4'
loop_
_symmetry_equiv_pos_site_id
_symmetry_equiv_pos_as_xyz
1 x,y,z
2 -x,-y,z
3 y,-x,-z
4 -y,x,-z
5 1/2+x,1/2+y,1/2+z
6 1/2-x,1/2-y,1/2+z
7 1/2+y,1/2-x,1/2-z
8 1/2-y,1/2+x,1/2-z
_cell_length_a                   25.356(4)
_cell_length_b                   25.356(4)
_cell_length_c                   33.358(7)
_cell_angle_alpha                90
_cell_angle_beta                 90
_cell_angle_gamma                90
_cell_volume                     21446.8
loop_
_atom_site_label
_atom_site_type_symbol
_atom_site_fract_x
_atom_site_fract_y
_atom_site_fract_z
Zn1 Zn 0.23289(3) 0.86186(3) 0.347769(19)
Zn2 Zn 0.26944(3) 0.76154(3) 0.288671(17)
Zn3 Zn 0.23593(3) 0.76943(3) 0.461693(17)
Zn4 Zn 0.76636(4) 0.65419(3) 0.46486(2)
O1 O 0.20020(19) 0.8302(2) 0.39882(13)
O2 O 0.17420(19) 0.7554(2) 0.42570(14)
O3 O 0.21014(17) 0.78516(18) 0.32367(12)
O4 O 0.1581(2) 0.7770(3) 0.26959(14)
O5 O -0.1888(3) 0.7539(3) 0.2293(2)
O6 O -0.2086(3) 0.8322(6) 0.2556(2)
O7 O -0.20078(18) 0.7289(2) 0.45629(13)
O8 O -0.1678(2) 0.7767(2) 0.50616(15)
O9 O 0.3224(2) 0.7557(2) 0.33158(16)
O10 O 0.30693(18) 0.8339(2) 0.36164(14)
O11 O 0.30238(18) 0.7694(2) 0.43285(12)
O12 O 0.35204(19) 0.80414(19) 0.48052(13)
O13 O 0.70242(19) 0.7721(2) 0.50963(14)
O14 O 0.6991(2) 0.6892(2) 0.48872(17)
O15 O 0.6789(2) 0.7856(2) 0.24678(14)
O16 O 0.6130(2) 0.7537(3) 0.20748(14)
C1 C 0.1202(3) 0.7883(3) 0.37477(18)
C2 C 0.1181(3) 0.7850(3) 0.33258(19)
C3 C 0.0683(3) 0.7857(3) 0.31420(19)
H1 H 0.0667 0.7852 0.2864
C4 C 0.0214(3) 0.7872(3) 0.3356(2)
C5 C 0.0235(3) 0.7863(3) 0.37736(19)
C6 C 0.0726(3) 0.7882(3) 0.3958(2)
H2 H 0.0738 0.7894 0.4236
C7 C 0.1686(3) 0.7917(3) 0.40028(18)
C8 C 0.1640(3) 0.7833(3) 0.3060(2)
C9 C -0.0289(3) 0.7897(3) 0.3124(2)
C10 C -0.0395(3) 0.7524(4) 0.2822(2)
H3 H -0.0147 0.7270 0.2753
C11 C -0.0883(3) 0.7546(4) 0.2627(3)
H4 H -0.0962 0.7298 0.2430
C12 C -0.1249(3) 0.7928(4) 0.2721(3)
C13 C -0.1157(3) 0.8299(4) 0.3005(2)
H5 H -0.1409 0.8555 0.3060
C14 C -0.0662(3) 0.8294(4) 0.3221(3)
H6 H -0.0592 0.8543 0.3418
C15 C -0.1790(4) 0.7924(5) 0.2507(2)
C16 C -0.0245(2) 0.7800(4) 0.40205(19)
C17 C -0.0605(3) 0.7386(4) 0.3934(2)
H7 H -0.0538 0.7162 0.3719
C18 C -0.1044(3) 0.7311(4) 0.4160(2)
H8 H -0.1275 0.7037 0.4101
C19 C -0.1145(2) 0.7641(3) 0.44760(18)
C20 C -0.0797(3) 0.8027(4) 0.4587(3)
H9 H -0.0859 0.8222 0.4818
C21 C -0.0347(3) 0.8129(4) 0.4353(3)
H10 H -0.0122 0.8406 0.4415
C22 C -0.1654(3) 0.7559(3) 0.47218(19)
C23 C 0.3830(2) 0.7861(3) 0.37711(18)
C24 C 0.3913(3) 0.7865(3) 0.41792(17)
C25 C 0.4422(3) 0.7828(3) 0.43307(18)
H11 H 0.4472 0.7829 0.4607
C26 C 0.4851(3) 0.7789(3) 0.4086(2)
C27 C 0.4789(3) 0.7763(4) 0.3671(2)
C28 C 0.4280(3) 0.7821(4) 0.3519(2)
H12 H 0.4233 0.7834 0.3242
C29 C 0.3325(2) 0.7920(3) 0.35583(16)
C30 C 0.3452(2) 0.7874(3) 0.44580(17)
C31 C 0.5380(3) 0.7668(4) 0.42807(18)
C32 C 0.5672(3) 0.7235(4) 0.4187(2)
H13 H 0.5560 0.7006 0.3987
C33 C 0.6128(3) 0.7140(3) 0.4388(2)
H14 H 0.6319 0.6837 0.4328
C34 C 0.6319(3) 0.7481(3) 0.4681(2)
C35 C 0.6035(3) 0.7932(4) 0.4768(2)
H15 H 0.6163 0.8171 0.4956
C36 C 0.5564(3) 0.8030(4) 0.4576(2)
H16 H 0.5369 0.8329 0.4638
C37 C 0.6823(3) 0.7348(3) 0.4897(2)
C38 C 0.5215(3) 0.7738(4) 0.33704(19)
C39 C 0.5127(3) 0.7416(5) 0.3034(2)
H17 H 0.4818 0.7219 0.3015
C40 C 0.5500(3) 0.7390(4) 0.2727(2)
H18 H 0.5448 0.7163 0.2511
C41 C 0.5943(2) 0.7700(4) 0.27420(19)
C42 C 0.6039(3) 0.8018(4) 0.3085(2)
H19 H 0.6346 0.8217 0.3102
C43 C 0.5679(3) 0.8032(4) 0.3391(2)
H20 H 0.5745 0.8240 0.3615
C44 C 0.6324(3) 0.7707(3) 0.2397(2)
N1 N 0.1043(4) 0.9643(5) 0.3282(7)
O17 O 0.1588(2) 0.8975(2) 0.3352(2)
C45 C 0.1522(4) 0.9468(3) 0.3312(3)
H21 H 0.1809 0.9697 0.3305
C46 C 0.0553(9) 0.9346(6) 0.3365(8)
H22 H 0.0364 0.9284 0.3120
H23 H 0.0336 0.9547 0.3545
H24 H 0.0640 0.9014 0.3487
C47 C 0.1003(7) 1.0248(6) 0.3305(10)
H25 H 0.0802 1.0353 0.3536
H26 H 0.0831 1.0371 0.3066
H27 H 0.1350 1.0397 0.3321
N2 N 0.2931(5) 0.9576(4) 0.4380(3)
O18 O 0.2552(3) 0.9282(2) 0.38105(18)
C48 C 0.2761(5) 0.9203(4) 0.4143(3)
H28 H 0.2799 0.8856 0.4228
C49 C 0.2813(9) 1.0117(4) 0.4302(7)
H29 H 0.2744 1.0163 0.4021
H30 H 0.3108 1.0332 0.4379
H31 H 0.2508 1.0220 0.4453
C50 C 0.3206(6) 0.9442(5) 0.4766(3)
H32 H 0.3087 0.9677 0.4973
H33 H 0.3580 0.9481 0.4732
H34 H 0.3127 0.9085 0.4840
N3 N 0.7283(6) 0.6994(5) 0.3475(2)
O19 O 0.7302(3) 0.6605(3) 0.40742(16)
C51 C 0.7467(5) 0.6879(6) 0.3831(3)
H35 H 0.7782 0.7046 0.3898
C52 C 0.6734(6) 0.6750(6) 0.3348(4)
H36 H 0.6675 0.6430 0.3494
H37 H 0.6736 0.6676 0.3066
H38 H 0.6458 0.6997 0.3407
C53 C 0.7485(9) 0.7329(8) 0.3191(4)
H39 H 0.7394 0.7687 0.3256
H40 H 0.7342 0.7240 0.2933
H41 H 0.7861 0.7293 0.3185
O20 O 0.7279(3) 0.5809(2) 0.47291(18)
H42 H 0.6951 0.5742 0.4885
H43 H 0.7390 0.5461 0.4620
O21 O 0.8302(4) 0.6182(3) 0.4399(2)
H44 H 0.8487 0.5900 0.4505
H45 H 0.8460 0.6270 0.4158
Zn1G Zn 0.63814(3) 0.73289(3) 0.152231(19)
Zn2G Zn -0.26154(3) 0.76944(3) 0.211329(17)
Zn2G_2 Zn 0.73846(3) 0.76944(3) 0.211329(17)
Zn3B Zn -0.23057(3) 0.76407(3) 0.538307(17)
Zn3B_2 Zn 0.76943(3) 0.76407(3) 0.538307(17)
Zn4_2 Zn -0.23364(4) 0.65419(3) 0.46486(2)
Zn4C Zn 0.34581(3) 0.76636(4) 0.53514(2)
O5F O 0.2539(3) 0.6888(3) 0.2707(2)
O6F O 0.3322(6) 0.7086(3) 0.2444(2)
O7_2 O 0.79922(18) 0.7289(2) 0.45629(13)
O8C O 0.2233(2) 0.8322(2) 0.49384(15)
O12B O 0.80414(19) 0.64796(19) 0.51948(13)
O13C O 0.2279(2) 0.70242(19) 0.49037(14)
O15F O 0.2856(2) 0.8211(2) 0.25322(14)
O16F O 0.2537(3) 0.8870(2) 0.29252(14)
loop_
_geom_bond_atom_site_label_1
_geom_bond_atom_site_label_2
_geom_bond_site_symmetry_1
_geom_bond_site_symmetry_2
Zn1 O1 1_555 1_555
Zn2 O3 1_555 1_555
Zn3 O2 1_555 1_555
Zn4 O14 1_555 1_555
O1 C7 1_555 1_555
O2 C7 1_555 1_555
O3 Zn1 1_555 1_555
O4 C8 1_555 1_555
O5 C15 1_555 1_555
O6 C15 1_555 1_555
O7 C22 1_555 1_555
O8 C22 1_555 1_555
O9 Zn2 1_555 1_555
O10 Zn1 1_555 1_555
O11 Zn3 1_555 1_555
O12 C30 1_555 1_555
O13 C37 1_555 1_555
O14 C37 1_555 1_555
O15 C44 1_555 1_555
O16 C44 1_555 1_555
C1 C2 1_555 1_555
C2 C3 1_555 1_555
C3 H1 1_555 1_555
C4 C3 1_555 1_555
C5 C4 1_555 1_555
C6 C1 1_555 1_555
H2 C6 1_555 1_555
C7 C1 1_555 1_555
C8 O3 1_555 1_555
C9 C4 1_555 1_555
C10 C9 1_555 1_555
H3 C10 1_555 1_555
C11 C10 1_555 1_555
H4 C11 1_555 1_555
C12 C11 1_555 1_555
C13 C12 1_555 1_555
H5 C13 1_555 1_555
C14 C9 1_555 1_555
H6 C14 1_555 1_555
C15 C12 1_555 1_555
C16 C5 1_555 1_555
C17 C16 1_555 1_555
H7 C17 1_555 1_555
C18 C17 1_555 1_555
H8 C18 1_555 1_555
C19 C18 1_555 1_555
C20 C19 1_555 1_555
H9 C20 1_555 1_555
C21 C16 1_555 1_555
H10 C21 1_555 1_555
C22 C19 1_555 1_555
C23 C24 1_555 1_555
C24 C25 1_555 1_555
C25 H11 1_555 1_555
C26 C25 1_555 1_555
C27 C26 1_555 1_555
C28 C23 1_555 1_555
H12 C28 1_555 1_555
C29 O9 1_555 1_555
C30 O11 1_555 1_555
C31 C26 1_555 1_555
C32 C31 1_555 1_555
H13 C32 1_555 1_555
C33 C32 1_555 1_555
H14 C33 1_555 1_555
C34 C33 1_555 1_555
C35 C34 1_555 1_555
H15 C35 1_555 1_555
C36 C31 1_555 1_555
H16 C36 1_555 1_555
C37 C34 1_555 1_555
C38 C27 1_555 1_555
C39 C38 1_555 1_555
H17 C39 1_555 1_555
C40 C39 1_555 1_555
H18 C40 1_555 1_555
C41 C40 1_555 1_555
C42 C41 1_555 1_555
H19 C42 1_555 1_555
C43 C38 1_555 1_555
H20 C43 1_555 1_555
C44 C41 1_555 1_555
N1 C45 1_555 1_555
O17 Zn1 1_555 1_555
C45 O17 1_555 1_555
H21 C45 1_555 1_555
C46 N1 1_555 1_555
H22 C46 1_555 1_555
H23 C46 1_555 1_555
H24 C46 1_555 1_555
C47 N1 1_555 1_555
H25 C47 1_555 1_555
H26 C47 1_555 1_555
H27 C47 1_555 1_555
N2 C48 1_555 1_555
O18 Zn1 1_555 1_555
C48 O18 1_555 1_555
H28 C48 1_555 1_555
C49 N2 1_555 1_555
H29 C49 1_555 1_555
H30 C49 1_555 1_555
H31 C49 1_555 1_555
C50 N2 1_555 1_555
H32 C50 1_555 1_555
H33 C50 1_555 1_555
H34 C50 1_555 1_555
N3 C51 1_555 1_555
O19 Zn4 1_555 1_555
C51 O19 1_555 1_555
H35 C51 1_555 1_555
C52 N3 1_555 1_555
H36 C52 1_555 1_555
H37 C52 1_555 1_555
H38 C52 1_555 1_555
C53 N3 1_555 1_555
H39 C53 1_555 1_555
H40 C53 1_555 1_555
H41 C53 1_555 1_555
O20 Zn4 1_555 1_555
H42 O20 1_555 1_555
H43 O20 1_555 1_555
O21 Zn4 1_555 1_555
H44 O21 1_555 1_555
H45 O21 1_555 1_555
Zn1G O16 1_555 1_555
Zn2G O5 1_555 1_555
Zn2G_2 O15 1_555 1_555
Zn3B O8 1_555 1_555
Zn3B_2 O13 1_555 1_555
Zn4_2 O7 1_555 1_555
Zn4C O12 1_555 1_555
O5F Zn2 1_555 1_555
O6F Zn2 1_555 1_555
O7_2 Zn4 1_555 1_555
O8C Zn3 1_555 1_555
O12B Zn4 1_555 1_555
O13C Zn3 1_555 1_555
O15F Zn2 1_555 1_555
O16F Zn1 1_555 1_555
O6 Zn2G 1_555 1_555
O10 C29 1_555 1_555
C2 C8 1_555 1_555
C5 C6 1_555 1_555
C13 C14 1_555 1_555
C20 C21 1_555 1_555
C23 C29 1_555 1_555
C24 C30 1_555 1_555
C27 C28 1_555 1_555
C35 C36 1_555 1_555
C42 C43 1_555 1_555

#END
