
#######################################################################
#
#                 Cambridge Crystallographic Data Centre
#                                CCDC 
#
#######################################################################
#
# If this CIF has been generated from an entry in the Cambridge 
# Structural Database, then it will include bibliographic, chemical, 
# crystal, experimental, refinement or atomic coordinate data resulting 
# from the CCDC's data processing and validation procedures.
#
#######################################################################

data_HEBNIN
_chemical_formula_moiety         '(C15 H45 N2 O45 P8 U4 Zn1 1-)n'
_symmetry_cell_setting           monoclinic
_symmetry_space_group_name_H-M   'P 21/c'
_symmetry_Int_Tables_number      14
_space_group_name_Hall           '-P 2ybc'
loop_
_symmetry_equiv_pos_site_id
_symmetry_equiv_pos_as_xyz
1 x,y,z
2 -x,1/2+y,1/2-z
3 -x,-y,-z
4 x,1/2-y,1/2+z
_cell_length_a                   9.7111(5)
_cell_length_b                   16.7387(8)
_cell_length_c                   18.0226(8)
_cell_angle_alpha                90
_cell_angle_beta                 90.2900(10)
_cell_angle_gamma                90
_cell_volume                     2929.56
loop_
_atom_site_label
_atom_site_type_symbol
_atom_site_fract_x
_atom_site_fract_y
_atom_site_fract_z
U1 U 0.88808(3) 0.71409(2) 0.503298(17)
U2 U 0.39974(3) 0.70951(2) 0.787840(17)
Zn1 Zn 0.5000 0.5000 0.5000
P1 P 0.5869(2) 0.64918(14) 0.61129(12)
P2 P 0.5232(2) 0.68719(14) 0.45171(12)
P3 P 1.0208(2) 0.74901(15) 0.80997(13)
P4 P 1.0899(2) 0.64997(15) 0.67464(12)
O1 O 0.8673(7) 0.8164(4) 0.5255(4)
O2 O 0.6740(6) 0.7132(4) 0.4457(3)
O3 O 0.9096(7) 0.6116(4) 0.4811(3)
O4 O 1.0176(6) 0.6943(4) 0.6145(3)
O5 O 0.9269(6) 0.7514(4) 0.8759(3)
O6 O 1.1326(7) 0.7378(5) 0.4789(4)
O7 O 0.7319(6) 0.6821(4) 0.6019(3)
O8 O 0.3714(6) 0.6105(4) 0.8212(3)
O9 O 0.4292(6) 0.8059(4) 0.7518(4)
O10 O 0.5313(6) 0.6647(4) 0.6886(3)
O11 O 0.6373(6) 0.6906(4) 0.8263(3)
O12 O 0.4307(6) 0.7415(4) 0.4054(3)
O13 O 1.2334(6) 0.6797(4) 0.6921(3)
O14 O 1.1729(6) 0.7501(4) 0.8290(3)
O15 O 0.5748(8) 0.5628(4) 0.5905(4)
O16 O 1.1020(7) 0.5593(4) 0.6550(4)
H1 H 1.0430 0.5475 0.6242
O17 O 0.5020(7) 0.6006(4) 0.4343(3)
O18 O 0.9930(7) 0.8199(4) 0.7549(4)
H2 H 0.9103 0.8299 0.7540
O19 O 0.3383(6) 0.6828(4) 0.5584(3)
H3 H 0.3247 0.6724 0.6022
O20 O 0.8442(6) 0.6516(4) 0.7385(3)
H4 H 0.8352 0.6219 0.7026
O21 O 0.7160(7) 0.4755(5) 0.4783(4)
C1 C 0.4782(9) 0.7081(6) 0.5490(4)
C2 C 0.4875(9) 0.7977(5) 0.5651(5)
H5 H 0.4216 0.8257 0.5350
H6 H 0.5785 0.8164 0.5539
H7 H 0.4683 0.8071 0.6166
C3 C 0.9865(9) 0.6553(5) 0.7595(5)
C4 C 1.0176(10) 0.5864(6) 0.8127(5)
H8 H 0.9616 0.5915 0.8561
H9 H 1.1131 0.5879 0.8267
H10 H 0.9978 0.5365 0.7885
U1B U 0.11192(3) 0.28591(2) 0.496702(17)
U1C U 0.88808(3) 0.78591(2) 1.003298(17)
U1C_2 U 0.88808(3) 0.78591(2) 0.003298(17)
U2B U 0.60026(3) 0.29049(2) 0.212160(17)
U2C U 0.39974(3) 0.79049(2) 0.287840(17)
U2_2 U 1.39974(3) 0.70951(2) 0.787840(17)
U2A U 0.60026(3) 0.20951(2) 0.712160(17)
U2C_2 U 1.39974(3) 0.79049(2) 0.287840(17)
P1B P 0.4131(2) 0.35082(14) 0.38871(12)
P2B P 0.4768(2) 0.31281(14) 0.54829(12)
P3C P 1.0208(2) 0.75099(15) 0.30997(13)
P4C P 1.0899(2) 0.85003(15) 0.17464(12)
O1B O 0.1327(7) 0.1836(4) 0.4745(4)
O2B O 0.3260(6) 0.2868(4) 0.5543(3)
O3B O 0.0904(7) 0.3884(4) 0.5189(3)
O4C O 1.0176(6) 0.8057(4) 0.1145(3)
O4B O -0.0176(6) 0.3057(4) 0.3855(3)
O5C O 0.9269(6) 0.7486(4) 0.3759(3)
O5A O 0.0731(6) 0.2514(4) 0.6241(3)
O6B O -0.1326(7) 0.2622(5) 0.5211(4)
O7B O 0.2681(6) 0.3179(4) 0.3981(3)
O8B O 0.6286(6) 0.3895(4) 0.1788(3)
O9B O 0.5708(6) 0.1941(4) 0.2482(4)
O10B O 0.4687(6) 0.3353(4) 0.3114(3)
O11B O 0.3627(6) 0.3094(4) 0.1737(3)
O12B O 0.5693(6) 0.2585(4) 0.5946(3)
O12C O 0.4307(6) 0.7585(4) 0.9054(3)
O12A O 0.5693(6) 0.2415(4) 0.0946(3)
O13C O 1.2334(6) 0.8203(4) 0.1921(3)
O13_2 O 0.2334(6) 0.6797(4) 0.6921(3)
O13B O 0.7666(6) 0.3203(4) 0.3079(3)
O14C O 1.1729(6) 0.7499(4) 0.3290(3)
O14_2 O 0.1729(6) 0.7501(4) 0.8290(3)
O14B O 0.8271(6) 0.2499(4) 0.1710(3)
O15B O 0.4252(8) 0.4372(4) 0.4095(4)
O16C O 1.1020(7) 0.9407(4) 0.1550(4)
H1C H 1.0430 0.9525 0.1242
O17B O 0.4980(7) 0.3994(4) 0.5657(3)
O18C O 0.9930(7) 0.6801(4) 0.2549(4)
H2C H 0.9103 0.6701 0.2540
O19B O 0.6617(6) 0.3172(4) 0.4416(3)
H3B H 0.6753 0.3276 0.3978
O20C O 0.8442(6) 0.8484(4) 0.2385(3)
H4C H 0.8352 0.8781 0.2026
O21B O 0.2840(7) 0.5245(5) 0.5217(4)
C1B C 0.5218(9) 0.2919(6) 0.4510(4)
C2B C 0.5125(9) 0.2023(5) 0.4349(5)
H5B H 0.5784 0.1743 0.4650
H6B H 0.4215 0.1836 0.4461
H7B H 0.5317 0.1929 0.3834
C3C C 0.9865(9) 0.8447(5) 0.2595(5)
C4C C 1.0176(10) 0.9136(6) 0.3127(5)
H8C H 0.9616 0.9085 0.3561
H9C H 1.1131 0.9121 0.3267
H10C H 0.9978 0.9635 0.2885
C5 C 0.6653(11) 0.0113(6) 0.3607(6)
C6 C 0.7809(10) 0.0582(6) 0.3481(6)
C7 C 0.6369(14) -0.0166(7) 0.4304(8)
H11 H 0.5616 -0.0498 0.4386
C8 C 0.8658(13) 0.0824(7) 0.4042(7)
H12 H 0.9410 0.1155 0.3956
C9 C 0.8342(15) 0.0551(8) 0.4741(7)
H13 H 0.8893 0.0703 0.5140
C10 C 0.6768(11) 0.0362(7) 0.2414(7)
H14 H 0.6558 0.0370 0.1910
C11 C 0.7204(16) 0.0049(8) 0.4867(8)
H15 H 0.7029 -0.0136 0.5343
N1 N 0.7843(9) 0.0718(5) 0.2729(5)
H16 H 0.8461 0.0989 0.2499
N2 N 0.6056(9) 0.0002(5) 0.2920(5)
H17 H 0.5316 -0.0267 0.2839
O22 O 0.6409(8) 0.5408(5) 0.3036(4)
O23 O 0.8898(9) 0.4769(5) 0.6113(4)
O24 O 0.7525(8) 0.6472(5) 0.2104(5)
loop_
_geom_bond_atom_site_label_1
_geom_bond_atom_site_label_2
_geom_bond_site_symmetry_1
_geom_bond_site_symmetry_2
U1 O1 1_555 1_555
U2 O8 1_555 1_555
Zn1 O15 1_555 1_555
P1 O7 1_555 1_555
P2 O2 1_555 1_555
P3 O5 1_555 1_555
P4 O4 1_555 1_555
O2 U1 1_555 1_555
O3 U1 1_555 1_555
O4 U1 1_555 1_555
O5 U1C 1_555 1_555
O6 U1 1_555 1_555
O7 U1 1_555 1_555
O9 U2 1_555 1_555
O10 U2 1_555 1_555
O11 U2 1_555 1_555
O12 P2 1_555 1_555
O13 P4 1_555 1_555
O14 P3 1_555 1_555
O15 P1 1_555 1_555
O16 P4 1_555 1_555
H1 O16 1_555 1_555
O17 Zn1 1_555 1_555
O18 P3 1_555 1_555
H2 O18 1_555 1_555
O19 H3 1_555 1_555
O20 H4 1_555 1_555
O21 Zn1 1_555 1_555
C1 P1 1_555 1_555
C2 C1 1_555 1_555
H5 C2 1_555 1_555
H6 C2 1_555 1_555
H7 C2 1_555 1_555
C3 P3 1_555 1_555
C4 C3 1_555 1_555
H8 C4 1_555 1_555
H9 C4 1_555 1_555
H10 C4 1_555 1_555
C5 C6 1_555 1_555
C6 C8 1_555 1_555
C7 C5 1_555 1_555
H11 C7 1_555 1_555
C8 H12 1_555 1_555
C9 C8 1_555 1_555
H13 C9 1_555 1_555
C10 H14 1_555 1_555
C11 C7 1_555 1_555
H15 C11 1_555 1_555
N1 C6 1_555 1_555
H16 N1 1_555 1_555
N2 C5 1_555 1_555
H17 N2 1_555 1_555
U1B O1B 1_555 1_555
U1C_2 O4C 1_555 1_555
U2B O8B 1_555 1_555
U2C O12 1_555 1_555
U2_2 O13 1_555 1_555
U2A O12B 1_555 1_555
U2C_2 O13C 1_555 1_555
P1B O7B 1_555 1_555
P2B O2B 1_555 1_555
P3C O5C 1_555 1_555
P4C O4C 1_555 1_555
O2B U1B 1_555 1_555
O3B U1B 1_555 1_555
O4B U1B 1_555 1_555
O5C U1 1_555 1_555
O5A U1B 1_555 1_555
O6B U1B 1_555 1_555
O7B U1B 1_555 1_555
O9B U2B 1_555 1_555
O10B U2B 1_555 1_555
O11B U2B 1_555 1_555
O12B P2B 1_555 1_555
O12C U2 1_555 1_555
O12A U2B 1_555 1_555
O13C P4C 1_555 1_555
O13_2 U2 1_555 1_555
O13B U2B 1_555 1_555
O14C U2C_2 1_555 1_555
O14_2 U2 1_555 1_555
O14B U2B 1_555 1_555
O15B Zn1 1_555 1_555
O16C P4C 1_555 1_555
H1C O16C 1_555 1_555
O17B Zn1 1_555 1_555
O18C P3C 1_555 1_555
H2C O18C 1_555 1_555
O19B H3B 1_555 1_555
O20C H4C 1_555 1_555
O21B Zn1 1_555 1_555
C1B P1B 1_555 1_555
C2B C1B 1_555 1_555
H5B C2B 1_555 1_555
H6B C2B 1_555 1_555
H7B C2B 1_555 1_555
C3C P3C 1_555 1_555
C4C C3C 1_555 1_555
H8C C4C 1_555 1_555
H9C C4C 1_555 1_555
H10C C4C 1_555 1_555
P1 O10 1_555 1_555
P2 O17 1_555 1_555
P2 C1 1_555 1_555
P4 C3 1_555 1_555
O14 U2_2 1_555 1_555
O19 C1 1_555 1_555
O20 C3 1_555 1_555
C9 C11 1_555 1_555
C10 N1 1_555 1_555
C10 N2 1_555 1_555
P1B O10B 1_555 1_555
P1B O15B 1_555 1_555
P2B O17B 1_555 1_555
P2B C1B 1_555 1_555
P3C O14C 1_555 1_555
P4C C3C 1_555 1_555
O19B C1B 1_555 1_555
O20C C3C 1_555 1_555

#END
