
#######################################################################
#
#                 Cambridge Crystallographic Data Centre
#                                CCDC 
#
#######################################################################
#
# If this CIF has been generated from an entry in the Cambridge 
# Structural Database, then it will include bibliographic, chemical, 
# crystal, experimental, refinement or atomic coordinate data resulting 
# from the CCDC's data processing and validation procedures.
#
#######################################################################

data_HEBNOT
_chemical_formula_moiety         'C17 H29 N2 O54 P8 U9 Zn5 1+'
_symmetry_cell_setting           monoclinic
_symmetry_space_group_name_H-M   'P 21/c'
_symmetry_Int_Tables_number      14
_space_group_name_Hall           '-P 2ybc'
loop_
_symmetry_equiv_pos_site_id
_symmetry_equiv_pos_as_xyz
1 x,y,z
2 -x,1/2+y,1/2-z
3 -x,-y,-z
4 x,1/2-y,1/2+z
_cell_length_a                   9.6970(8)
_cell_length_b                   17.5578(14)
_cell_length_c                   17.9345(15)
_cell_angle_alpha                90
_cell_angle_beta                 90.3270(10)
_cell_angle_gamma                90
_cell_volume                     3053.44
loop_
_atom_site_label
_atom_site_type_symbol
_atom_site_fract_x
_atom_site_fract_y
_atom_site_fract_z
N1 N 0.6466(10) 0.0248(5) 0.1907(5)
N2 N 0.5241(10) 0.0416(6) 0.2878(5)
H4 H 0.4545 0.0522 0.3154
C5 C 0.6365(14) 0.0719(8) 0.0629(7)
H11 H 0.5725 0.1082 0.0778
C6 C 0.6902(13) 0.0202(6) 0.1143(6)
C7 C 0.7841(14) -0.0340(7) 0.0924(7)
H12 H 0.8174 -0.0697 0.1264
C8 C 0.7337(13) 0.0121(7) 0.2523(6)
H13 H 0.8266 -0.0010 0.2516
C9 C 0.5234(12) 0.0408(7) 0.2148(6)
H14 H 0.4467 0.0501 0.1847
C10 C 0.6532(13) 0.0230(8) 0.3133(7)
H15 H 0.6807 0.0186 0.3629
C11 C 0.8296(15) -0.0350(8) 0.0177(7)
H16 H 0.8956 -0.0700 0.0024
C12 C 0.7753(16) 0.0160(9) -0.0316(8)
H17 H 0.8038 0.0152 -0.0810
C13 C 0.6788(16) 0.0688(9) -0.0093(8)
H18 H 0.6420 0.1026 -0.0440
O23 O 0.0478(16) 0.1533(10) 0.1255(10)
U1 U 0.39866(3) 0.27548(2) 0.219253(18)
U2 U -0.09625(3) 0.21020(2) 0.438870(18)
Zn1 Zn 0.23369(19) 0.00750(8) 0.44257(8)
P1 P 0.2727(2) 0.17122(16) 0.38441(13)
P2 P 0.7738(3) 0.23446(18) 0.24135(15)
P3 P 0.2071(3) 0.15085(17) 0.54754(13)
P4 P 0.7017(2) 0.33550(16) 0.11015(13)
O1 O 0.3546(7) 0.1866(4) 0.1784(4)
O2 O 0.4419(7) 0.3638(4) 0.2614(4)
O3 O 0.3641(7) 0.2170(4) 0.3332(4)
O4 O 0.5621(7) 0.2974(4) 0.1240(3)
O5 O 0.6230(7) 0.2313(5) 0.2609(4)
O6 O 0.2672(7) 0.1661(4) 0.6244(3)
O7 O 0.1620(7) 0.2985(5) 0.2648(4)
O8 O -0.0643(8) 0.3082(4) 0.4487(5)
O9 O -0.1250(7) 0.1110(4) 0.4309(4)
O10 O 0.1206(6) 0.1935(4) 0.3784(3)
O11 O -0.3428(7) 0.2327(5) 0.4125(4)
O12 O 0.7820(7) 0.2940(5) 0.0500(4)
O13 O 0.0655(7) 0.1893(5) 0.5373(4)
O14 O 0.8691(7) 0.2310(5) 0.3090(4)
O15 O 0.8091(9) 0.1726(5) 0.1826(5)
H1 H 0.8924 0.1726 0.1751
O16 O 0.2967(7) 0.0862(4) 0.3723(3)
O17 O 0.9503(7) 0.3307(5) 0.1746(4)
H2 H 0.9674 0.3731 0.1581
O18 O 0.4582(6) 0.1634(4) 0.4919(3)
H3 H 0.4928 0.1823 0.5294
O19 O 0.1997(9) 0.0667(5) 0.5316(4)
O20 O 0.0397(9) -0.0125(5) 0.4002(6)
O21 O 0.6814(8) 0.4194(5) 0.0935(5)
O22 O 0.4421(14) -0.0054(12) 0.5120(11)
C1 C 0.3225(9) 0.1958(6) 0.4797(5)
C2 C 0.3227(12) 0.2831(6) 0.4881(6)
H5 H 0.3541 0.2965 0.5372
H6 H 0.2309 0.3022 0.4805
H7 H 0.3832 0.3050 0.4518
C3 C 0.8055(10) 0.3270(7) 0.1962(6)
C4 C 0.7802(12) 0.3911(7) 0.2539(7)
H8 H 0.8489 0.3883 0.2926
H9 H 0.6904 0.3850 0.2753
H10 H 0.7858 0.4397 0.2296
U1C U 0.39866(3) 0.22452(2) -0.280747(18)
U1C_2 U 0.39866(3) 0.22452(2) 0.719253(18)
U1C_3 U -0.60134(3) 0.22452(2) 0.719253(18)
U2C U -0.09625(3) 0.28980(2) -0.061130(18)
U2C_2 U 0.90375(3) 0.28980(2) -0.061130(18)
U2_2 U 0.90375(3) 0.21020(2) 0.438870(18)
U2C_3 U -0.09625(3) 0.28980(2) 0.938870(18)
Zn1C Zn 0.23369(19) 0.49250(8) -0.05743(8)
Zn1A Zn 0.76631(19) 0.50750(8) 0.05743(8)
Zn1B Zn 0.76631(19) -0.00750(8) 0.55743(8)
Zn1B_2 Zn -0.23369(19) -0.00750(8) 0.55743(8)
P1C P 0.2727(2) 0.32878(16) -0.11559(13)
P2C P -0.2262(3) 0.26554(18) 0.74135(15)
P3C P 0.2071(3) 0.34915(17) 0.04754(13)
P4C P -0.2983(2) 0.16450(16) 0.61015(13)
O1C O 0.3546(7) 0.3134(4) -0.3216(4)
O2C O 0.4419(7) 0.1362(4) -0.2386(4)
O3C O 0.3641(7) 0.2830(4) -0.1668(4)
O4C O -0.4379(7) 0.2026(4) 0.6240(3)
O4C_2 O 0.5621(7) 0.2026(4) -0.3760(3)
O5C O -0.3770(7) 0.2687(5) 0.7609(4)
O5C_2 O 0.6230(7) 0.2687(5) -0.2391(4)
O6C O 0.2672(7) 0.3339(4) 0.1244(3)
O6_2 O 0.2672(7) 0.1661(4) -0.3756(3)
O7C O 0.1620(7) 0.2015(5) -0.2352(4)
O8C O -0.0643(8) 0.1918(4) -0.0513(5)
O9C O -0.1250(7) 0.3890(4) -0.0691(4)
O10C O 0.1206(6) 0.3065(4) -0.1216(3)
O11C O -0.3428(7) 0.2673(5) -0.0875(4)
O12C O -0.2180(7) 0.2060(5) 0.5500(4)
O12_2 O -0.2180(7) 0.2940(5) 0.0500(4)
O13C O 0.0655(7) 0.3107(5) 0.0373(4)
O14C O -0.1309(7) 0.2690(5) 0.8090(4)
O14_2 O -0.1309(7) 0.2310(5) 0.3090(4)
O14C_2 O -0.1309(7) 0.2690(5) -0.1910(4)
O15C O -0.1909(9) 0.3274(5) 0.6826(5)
H1C H -0.1076 0.3274 0.6751
O16C O 0.2967(7) 0.4138(4) -0.1277(3)
O17C O -0.0497(7) 0.1693(5) 0.6746(4)
H2C H -0.0326 0.1269 0.6581
O18C O 0.4582(6) 0.3366(4) -0.0081(3)
H3C H 0.4928 0.3177 0.0294
O19C O 0.1997(9) 0.4333(5) 0.0316(4)
O20C O 0.0397(9) 0.5125(5) -0.0998(6)
O21C O -0.3186(8) 0.0806(5) 0.5935(5)
O21A O 0.3186(8) -0.0806(5) 0.4065(5)
O21B O 0.3186(8) 0.5806(5) -0.0935(5)
O22B O 0.5579(14) 0.0054(12) 0.4880(11)
O22C O 0.4421(14) 0.5054(12) 0.0120(11)
C1C C 0.3225(9) 0.3042(6) -0.0203(5)
C2C C 0.3227(12) 0.2169(6) -0.0119(6)
H5C H 0.3541 0.2035 0.0372
H6C H 0.2309 0.1978 -0.0195
H7C H 0.3832 0.1950 -0.0482
C3C C -0.1945(10) 0.1730(7) 0.6962(6)
C4C C -0.2198(12) 0.1089(7) 0.7539(7)
H8C H -0.1511 0.1117 0.7926
H9C H -0.3096 0.1150 0.7753
H10C H -0.2142 0.0603 0.7296
loop_
_geom_bond_atom_site_label_1
_geom_bond_atom_site_label_2
_geom_bond_site_symmetry_1
_geom_bond_site_symmetry_2
U1 O1 1_555 1_555
U2 O8 1_555 1_555
Zn1 O16 1_555 1_555
P1 O3 1_555 1_555
P2 O5 1_555 1_555
P3 O6 1_555 1_555
P4 O4 1_555 1_555
O2 U1 1_555 1_555
O3 U1 1_555 1_555
O4 U1 1_555 1_555
O5 U1 1_555 1_555
O6 U1C_2 1_555 1_555
O7 U1 1_555 1_555
O9 U2 1_555 1_555
O10 U2 1_555 1_555
O11 U2 1_555 1_555
O12 P4 1_555 1_555
O13 U2 1_555 1_555
O14 P2 1_555 1_555
O15 P2 1_555 1_555
H1 O15 1_555 1_555
O16 P1 1_555 1_555
O17 H2 1_555 1_555
O18 H3 1_555 1_555
O19 Zn1 1_555 1_555
O20 Zn1 1_555 1_555
O21 P4 1_555 1_555
O22 Zn1 1_555 1_555
N1 C6 1_555 1_555
N2 H4 1_555 1_555
C1 P1 1_555 1_555
C2 C1 1_555 1_555
H5 C2 1_555 1_555
H6 C2 1_555 1_555
H7 C2 1_555 1_555
C3 P2 1_555 1_555
C4 C3 1_555 1_555
H8 C4 1_555 1_555
H9 C4 1_555 1_555
H10 C4 1_555 1_555
C5 H11 1_555 1_555
C6 C5 1_555 1_555
C7 C6 1_555 1_555
H12 C7 1_555 1_555
C8 N1 1_555 1_555
H13 C8 1_555 1_555
C9 N1 1_555 1_555
H14 C9 1_555 1_555
C10 N2 1_555 1_555
H15 C10 1_555 1_555
C11 C7 1_555 1_555
H16 C11 1_555 1_555
C12 C11 1_555 1_555
H17 C12 1_555 1_555
C13 C5 1_555 1_555
H18 C13 1_555 1_555
U1C O1C 1_555 1_555
U1C_3 O4C 1_555 1_555
U2C O8C 1_555 1_555
U2C_2 O12 1_555 1_555
U2_2 O14 1_555 1_555
U2C_3 O14C 1_555 1_555
Zn1C O16C 1_555 1_555
Zn1A O21 1_555 1_555
Zn1B O22B 1_555 1_555
Zn1B_2 O21C 1_555 1_555
P1C O3C 1_555 1_555
P2C O5C 1_555 1_555
P3C O6C 1_555 1_555
P4C O4C 1_555 1_555
O2C U1C 1_555 1_555
O3C U1C 1_555 1_555
O4C_2 U1C 1_555 1_555
O5C U1C_3 1_555 1_555
O5C_2 U1C 1_555 1_555
O6C U1 1_555 1_555
O6_2 U1C 1_555 1_555
O7C U1C 1_555 1_555
O9C U2C 1_555 1_555
O10C U2C 1_555 1_555
O11C U2C 1_555 1_555
O12C U2 1_555 1_555
O12_2 U2C 1_555 1_555
O13C U2C 1_555 1_555
O14C P2C 1_555 1_555
O14_2 U2 1_555 1_555
O14C_2 U2C 1_555 1_555
O15C P2C 1_555 1_555
H1C O15C 1_555 1_555
O16C P1C 1_555 1_555
O17C H2C 1_555 1_555
O18C H3C 1_555 1_555
O19C Zn1C 1_555 1_555
O20C Zn1C 1_555 1_555
O21C P4C 1_555 1_555
O21A Zn1 1_555 1_555
O21B Zn1C 1_555 1_555
O22B O22 1_555 1_555
O22C Zn1C 1_555 1_555
C1C P1C 1_555 1_555
C2C C1C 1_555 1_555
H5C C2C 1_555 1_555
H6C C2C 1_555 1_555
H7C C2C 1_555 1_555
C3C P2C 1_555 1_555
C4C C3C 1_555 1_555
H8C C4C 1_555 1_555
H9C C4C 1_555 1_555
H10C C4C 1_555 1_555
P1 O10 1_555 1_555
P3 O13 1_555 1_555
P3 O19 1_555 1_555
P3 C1 1_555 1_555
P4 C3 1_555 1_555
O17 C3 1_555 1_555
O18 C1 1_555 1_555
N2 C9 1_555 1_555
C8 C10 1_555 1_555
C12 C13 1_555 1_555
P1C O10C 1_555 1_555
P3C O13C 1_555 1_555
P3C O19C 1_555 1_555
P3C C1C 1_555 1_555
P4C O12C 1_555 1_555
P4C C3C 1_555 1_555
O17C C3C 1_555 1_555
O18C C1C 1_555 1_555

#END
