
#######################################################################
#
#                 Cambridge Crystallographic Data Centre
#                                CCDC 
#
#######################################################################
#
# If this CIF has been generated from an entry in the Cambridge 
# Structural Database, then it will include bibliographic, chemical, 
# crystal, experimental, refinement or atomic coordinate data resulting 
# from the CCDC's data processing and validation procedures.
#
#######################################################################

data_EHOJES
_chemical_formula_moiety         '(C48 H44 Cd2 N6 O8)n'
_symmetry_cell_setting           orthorhombic
_symmetry_space_group_name_H-M   'P b c n'
_symmetry_Int_Tables_number      60
_space_group_name_Hall           '-P 2n 2ab'
loop_
_symmetry_equiv_pos_site_id
_symmetry_equiv_pos_as_xyz
1 x,y,z
2 1/2-x,1/2-y,1/2+z
3 1/2+x,1/2-y,-z
4 -x,y,1/2-z
5 -x,-y,-z
6 1/2+x,1/2+y,1/2-z
7 1/2-x,1/2+y,z
8 x,-y,1/2+z
_cell_length_a                   14.2940(5)
_cell_length_b                   16.7484(6)
_cell_length_c                   22.1104(7)
_cell_angle_alpha                90
_cell_angle_beta                 90
_cell_angle_gamma                90
_cell_volume                     5293.27
loop_
_atom_site_label
_atom_site_type_symbol
_atom_site_fract_x
_atom_site_fract_y
_atom_site_fract_z
_atom_site_U_iso_or_equiv
_atom_site_thermal_displace_type
Cd1 Cd 0.35961(2) 0.23723(2) 0.61075(2) 0.0121 Uani
O1 O 0.39425(15) 0.23993(13) 0.49707(9) 0.0222 Uani
O2 O 0.23269(16) 0.20002(13) 0.18198(9) 0.0272 Uani
O3 O 0.29674(15) 0.32582(12) 0.54004(8) 0.0203 Uani
O4 O 0.16379(15) 0.30867(14) 0.21645(9) 0.0266 Uani
N1 N 0.49271(17) 0.31541(14) 0.62698(10) 0.0171 Uani
C1 C 0.8878(3) 0.5166(2) 0.60729(19) 0.0408 Uani
N2 N 1.03227(16) 0.62957(14) 0.60778(11) 0.0180 Uani
N3 N 0.23582(16) 0.15155(14) 0.58558(10) 0.0152 Uani
C2 C 0.2803(2) 0.24680(19) 0.27732(13) 0.0227 Uani
C3 C 0.0824(2) 0.05614(17) 0.55414(12) 0.0172 Uani
C4 C 0.5728(2) 0.42225(19) 0.67638(13) 0.0252 Uani
H1 H 0.5726 0.4611 0.7064 0.0300 Uiso
C5 C 0.6458(2) 0.35417(17) 0.59525(14) 0.0211 Uani
H2 H 0.6958 0.3462 0.5691 0.0250 Uiso
C6 C 0.9951(2) 0.60228(19) 0.55607(14) 0.0240 Uani
H3 H 1.0185 0.6215 0.5197 0.0290 Uiso
C7 C 0.15118(19) 0.18363(17) 0.57536(13) 0.0176 Uani
H4 H 0.1443 0.2386 0.5789 0.0210 Uiso
C8 C 0.0742(2) 0.13890(18) 0.55988(13) 0.0208 Uani
H5 H 0.0168 0.1636 0.5533 0.0250 Uiso
C9 C 0.4961(2) 0.37288(19) 0.66890(13) 0.0236 Uani
H6 H 0.4447 0.3800 0.6941 0.0280 Uiso
C10 C 0.2431(2) 0.07209(18) 0.58094(13) 0.0203 Uani
H7 H 0.3010 0.0488 0.5887 0.0240 Uiso
C11 C 0.3171(2) 0.28120(19) 0.38244(13) 0.0210 Uani
C12 C 0.2931(2) 0.31609(18) 0.43419(13) 0.0196 Uani
C13 C 0.2212(2) 0.25293(18) 0.22186(13) 0.0208 Uani
C14 C 0.2673(2) 0.29195(19) 0.32584(13) 0.0209 Uani
C15 C 0.1695(2) 0.02282(18) 0.56532(14) 0.0217 Uani
H8 H 0.1782 -0.0321 0.5623 0.0260 Uiso
C16 C 0.6499(2) 0.41378(18) 0.63905(14) 0.0223 Uani
C17 C 0.9976(2) 0.6011(2) 0.65921(15) 0.0297 Uani
H9 H 1.0223 0.6194 0.6956 0.0360 Uiso
C18 C 0.9239(2) 0.5472(2) 0.55442(17) 0.0340 Uani
H10 H 0.9000 0.5304 0.5174 0.0410 Uiso
C19 C 0.9257(3) 0.5452(2) 0.66081(18) 0.0427 Uani
H11 H 0.9032 0.5269 0.6978 0.0510 Uiso
C20 C 0.0008(2) 0.0053(2) 0.53441(13) 0.0221 Uani
C21 C 0.5670(2) 0.30718(17) 0.59098(13) 0.0182 Uani
H12 H 0.5655 0.2676 0.5615 0.0220 Uiso
C22 C 0.3323(2) 0.29268(18) 0.49411(13) 0.0182 Uani
C23 C 0.7332(2) 0.4682(2) 0.64630(18) 0.0372 Uani
H13 H 0.7116 0.5229 0.6427 0.0450 Uiso
H14 H 0.7576 0.4615 0.6869 0.0450 Uiso
C24 C 0.8090(3) 0.4567(3) 0.6042(2) 0.0650 Uani
H15 H 0.8350 0.4039 0.6108 0.0780 Uiso
H16 H 0.7834 0.4576 0.5636 0.0780 Uiso
H17 H 0.372(2) 0.2429(19) 0.3843(14) 0.0220 Uiso
H18 H -0.058(2) 0.0297(19) 0.5487(14) 0.0220 Uiso
H19 H 0.324(2) 0.205(2) 0.2757(15) 0.0260 Uiso
H20 H 0.004(2) -0.047(2) 0.5544(14) 0.0240 Uiso
H21 H 0.219(2) 0.3296(19) 0.3252(14) 0.0220 Uiso
H22 H 0.242(3) 0.351(2) 0.4369(15) 0.0300 Uiso
N3D N -0.23582(16) -0.15155(14) 0.41442(10) 0.0152 Uani
C3D C -0.0824(2) -0.05614(17) 0.44586(12) 0.0172 Uani
C7D C -0.15118(19) -0.18363(17) 0.42464(13) 0.0176 Uani
H4D H -0.1443 -0.2386 0.4211 0.0210 Uiso
C8D C -0.0742(2) -0.13890(18) 0.44012(13) 0.0208 Uani
H5D H -0.0168 -0.1636 0.4467 0.0250 Uiso
C10D C -0.2431(2) -0.07209(18) 0.41906(13) 0.0203 Uani
H7D H -0.3010 -0.0488 0.4113 0.0240 Uiso
C15D C -0.1695(2) -0.02282(18) 0.43468(14) 0.0217 Uani
H8D H -0.1782 0.0321 0.4377 0.0260 Uiso
C20D C -0.0008(2) -0.0053(2) 0.46559(13) 0.0221 Uani
H18D H 0.058(2) -0.0297(19) 0.4513(14) 0.0220 Uiso
H20D H -0.004(2) 0.047(2) 0.4456(14) 0.0240 Uiso
Cd1D Cd -0.35961(2) -0.23723(2) 0.38925(2) 0.0121 Uani
O1D O -0.39425(15) -0.23993(13) 0.50293(9) 0.0222 Uani
O2D O -0.23269(16) -0.20002(13) 0.81802(9) 0.0272 Uani
O3D O -0.29674(15) -0.32582(12) 0.45996(8) 0.0203 Uani
O4D O -0.16379(15) -0.30867(14) 0.78355(9) 0.0266 Uani
N1D N -0.49271(17) -0.31541(14) 0.37302(10) 0.0171 Uani
C1D C -0.8878(3) -0.5166(2) 0.39271(19) 0.0408 Uani
N2D N -1.03227(16) -0.62957(14) 0.39222(11) 0.0180 Uani
C2D C -0.2803(2) -0.24680(19) 0.72268(13) 0.0227 Uani
C4D C -0.5728(2) -0.42225(19) 0.32362(13) 0.0252 Uani
H1D H -0.5726 -0.4611 0.2936 0.0300 Uiso
C5D C -0.6458(2) -0.35417(17) 0.40475(14) 0.0211 Uani
H2D H -0.6958 -0.3462 0.4309 0.0250 Uiso
C6D C -0.9951(2) -0.60228(19) 0.44393(14) 0.0240 Uani
H3D H -1.0185 -0.6215 0.4803 0.0290 Uiso
C9D C -0.4961(2) -0.37288(19) 0.33110(13) 0.0236 Uani
H6D H -0.4447 -0.3800 0.3059 0.0280 Uiso
C11D C -0.3171(2) -0.28120(19) 0.61756(13) 0.0210 Uani
C12D C -0.2931(2) -0.31609(18) 0.56581(13) 0.0196 Uani
C13D C -0.2212(2) -0.25293(18) 0.77814(13) 0.0208 Uani
C14D C -0.2673(2) -0.29195(19) 0.67416(13) 0.0209 Uani
C16D C -0.6499(2) -0.41378(18) 0.36095(14) 0.0223 Uani
C17D C -0.9976(2) -0.6011(2) 0.34079(15) 0.0297 Uani
H9D H -1.0223 -0.6194 0.3044 0.0360 Uiso
C18D C -0.9239(2) -0.5472(2) 0.44558(17) 0.0340 Uani
H10D H -0.9000 -0.5304 0.4826 0.0410 Uiso
C19D C -0.9257(3) -0.5452(2) 0.33919(18) 0.0427 Uani
H11D H -0.9032 -0.5269 0.3022 0.0510 Uiso
C21D C -0.5670(2) -0.30718(17) 0.40902(13) 0.0182 Uani
H12D H -0.5655 -0.2676 0.4385 0.0220 Uiso
C22D C -0.3323(2) -0.29268(18) 0.50589(13) 0.0182 Uani
C23D C -0.7332(2) -0.4682(2) 0.35370(18) 0.0372 Uani
H13D H -0.7116 -0.5229 0.3573 0.0450 Uiso
H14D H -0.7576 -0.4615 0.3131 0.0450 Uiso
C24D C -0.8090(3) -0.4567(3) 0.3958(2) 0.0650 Uani
H15D H -0.8350 -0.4039 0.3892 0.0780 Uiso
H16D H -0.7834 -0.4576 0.4364 0.0780 Uiso
H17D H -0.372(2) -0.2429(19) 0.6157(14) 0.0220 Uiso
H19D H -0.324(2) -0.205(2) 0.7243(15) 0.0260 Uiso
H21D H -0.219(2) -0.3296(19) 0.6748(14) 0.0220 Uiso
H22D H -0.242(3) -0.351(2) 0.5631(15) 0.0300 Uiso
Cd1A Cd 0.14039(2) 0.26277(2) 0.11075(2) 0.0121 Uani
Cd1B Cd -1.14039(2) -0.73723(2) 0.38925(2) 0.0121 Uani
Cd1E Cd -0.14039(2) -0.26277(2) 0.88925(2) 0.0121 Uani
Cd1F Cd 1.14039(2) 0.73723(2) 0.61075(2) 0.0121 Uani
O2A O 0.26731(16) 0.29998(13) 0.68198(9) 0.0272 Uani
O2E O -0.26731(16) -0.29998(13) 0.31802(9) 0.0272 Uani
O4A O 0.33621(15) 0.19133(14) 0.71645(9) 0.0266 Uani
O4E O -0.33621(15) -0.19133(14) 0.28355(9) 0.0266 Uani
N2B N -0.46773(16) -0.12957(14) 0.39222(11) 0.0180 Uani
N2F N 0.46773(16) 0.12957(14) 0.60778(11) 0.0180 Uani
loop_
_atom_site_aniso_label
_atom_site_aniso_U_11
_atom_site_aniso_U_22
_atom_site_aniso_U_33
_atom_site_aniso_U_23
_atom_site_aniso_U_13
_atom_site_aniso_U_12
Cd1 0.01087(10) 0.01404(10) 0.01125(10) -0.00035(7) -0.00074(8) -0.00244(7)
O1 0.0202(11) 0.0288(12) 0.0177(10) 0.0032(9) -0.0014(8) 0.0027(9)
O2 0.0378 0.0254 0.0183 -0.0012 -0.0085 0.0009
O3 0.0296(12) 0.0176(11) 0.0138(9) 0.0005(8) -0.0009(8) -0.0040(9)
O4 0.0242 0.0385 0.0171 0.0004 -0.0037 0.0047
N1 0.0178(12) 0.0194(13) 0.0142(11) 0.0024(9) -0.0030(9) -0.0067(10)
C1 0.0253 0.035 0.062 -0.0212 0.0181 -0.0138
N2 0.0113 0.0189 0.0239 -0.0027 0.0012 0.0005
N3 0.0139(12) 0.0144(12) 0.0172(11) -0.0008(9) -0.0010(9) -0.0028(9)
C2 0.0239 0.0265 0.0176 0.0028 -0.004 -0.0017
C3 0.0157(14) 0.0227(16) 0.0132(13) 0.0009(11) -0.0006(11) -0.0064(12)
C4 0.0271(17) 0.0273(17) 0.0212(15) -0.0034(13) -0.0024(13) -0.0118(13)
C5 0.0143(14) 0.0180(15) 0.0309(16) 0.0019(12) -0.0006(12) 0.0015(12)
C6 0.0186 0.0253 0.0282 -0.0099 0.0034 0.0001
C7 0.0157(15) 0.0126(14) 0.0245(15) -0.0017(11) -0.0018(11) -0.0007(11)
C8 0.0134(14) 0.0256(17) 0.0233(15) 0.0019(12) -0.0045(12) 0.0006(12)
C9 0.0262(16) 0.0291(17) 0.0156(13) -0.0035(12) 0.0031(12) -0.0100(13)
C10 0.0165(15) 0.0187(16) 0.0258(15) -0.0002(12) -0.0016(12) 0.0013(12)
C11 0.0206(15) 0.0264(17) 0.0159(14) 0.0040(12) -0.0037(12) -0.0055(12)
C12 0.0196(15) 0.0218(16) 0.0175(14) 0.0022(12) -0.0047(12) -0.0038(12)
C13 0.0211 0.0261 0.0153 0.0043 0.0003 -0.0071
C14 0.0205 0.0245 0.0176 0.0058 -0.005 -0.0051
C15 0.0218(16) 0.0149(15) 0.0284(15) -0.0012(12) -0.0028(12) -0.0039(12)
C16 0.0181(16) 0.0194(16) 0.0294(16) 0.0042(12) -0.0065(13) -0.0046(12)
C17 0.0238 0.037 0.0284 0.0014 0.005 -0.0109
C18 0.0179 0.035 0.049 -0.0245 0.0044 -0.0071
C19 0.036 0.045 0.047 -0.0011 0.0162 -0.0204
C20 0.0199(16) 0.0276(18) 0.0188(15) -0.0005(12) -0.0010(12) -0.0110(13)
C21 0.0162(15) 0.0143(15) 0.0242(14) 0.0016(11) -0.0021(11) 0.0000(11)
C22 0.0186(15) 0.0189(15) 0.0170(14) 0.0027(11) -0.0025(11) -0.0090(12)
C23 0.0195(18) 0.033(2) 0.059(2) -0.0111(17) 0.0024(16) -0.0116(14)
C24 0.045 0.058 0.092 -0.038 0.035 -0.036
N3D 0.0139 0.0144 0.0172 -0.0008 -0.001 -0.0028
C3D 0.0157 0.0227 0.0132 0.0009 -0.0006 -0.0064
C7D 0.0157 0.0126 0.0245 -0.0017 -0.0018 -0.0007
C8D 0.0134 0.0256 0.0233 0.0019 -0.0045 0.0006
C10D 0.0165 0.0187 0.0258 -0.0002 -0.0016 0.0013
C15D 0.0218 0.0149 0.0284 -0.0012 -0.0028 -0.0039
C20D 0.0199 0.0276 0.0188 -0.0005 -0.001 -0.011
Cd1D 0.01087 0.01404 0.01125 -0.00035 -0.00074 -0.00244
O1D 0.0202 0.0288 0.0177 0.0032 -0.0014 0.0027
O2D 0.0378 0.0254 0.0183 -0.0012 -0.0085 0.0009
O3D 0.0296 0.0176 0.0138 0.0005 -0.0009 -0.004
O4D 0.0242 0.0385 0.0171 0.0004 -0.0037 0.0047
N1D 0.0178 0.0194 0.0142 0.0024 -0.003 -0.0067
C1D 0.0253 0.035 0.062 -0.0212 0.0181 -0.0138
N2D 0.0113 0.0189 0.0239 -0.0027 0.0012 0.0005
C2D 0.0239 0.0265 0.0176 0.0028 -0.004 -0.0017
C4D 0.0271 0.0273 0.0212 -0.0034 -0.0024 -0.0118
C5D 0.0143 0.018 0.0309 0.0019 -0.0006 0.0015
C6D 0.0186 0.0253 0.0282 -0.0099 0.0034 0.0001
C9D 0.0262 0.0291 0.0156 -0.0035 0.0031 -0.01
C11D 0.0206 0.0264 0.0159 0.004 -0.0037 -0.0055
C12D 0.0196 0.0218 0.0175 0.0022 -0.0047 -0.0038
C13D 0.0211 0.0261 0.0153 0.0043 0.0003 -0.0071
C14D 0.0205 0.0245 0.0176 0.0058 -0.005 -0.0051
C16D 0.0181 0.0194 0.0294 0.0042 -0.0065 -0.0046
C17D 0.0238 0.037 0.0284 0.0014 0.005 -0.0109
C18D 0.0179 0.035 0.049 -0.0245 0.0044 -0.0071
C19D 0.036 0.045 0.047 -0.0011 0.0162 -0.0204
C21D 0.0162 0.0143 0.0242 0.0016 -0.0021 0
C22D 0.0186 0.0189 0.017 0.0027 -0.0025 -0.009
C23D 0.0195 0.033 0.059 -0.0111 0.0024 -0.0116
C24D 0.045 0.058 0.092 -0.038 0.035 -0.036
Cd1A 0.01087 0.01404 0.01125 0.00035 0.00074 -0.00244
Cd1B 0.01087 0.01404 0.01125 -0.00035 0.00074 0.00244
Cd1E 0.01087 0.01404 0.01125 0.00035 0.00074 -0.00244
Cd1F 0.01087 0.01404 0.01125 -0.00035 0.00074 0.00244
O2A 0.0378 0.0254 0.0183 0.0012 0.0085 0.0009
O2E 0.0378 0.0254 0.0183 0.0012 0.0085 0.0009
O4A 0.0242 0.0385 0.0171 -0.0004 0.0037 0.0047
O4E 0.0242 0.0385 0.0171 -0.0004 0.0037 0.0047
N2B 0.0113 0.0189 0.0239 -0.0027 -0.0012 -0.0005
N2F 0.0113 0.0189 0.0239 -0.0027 -0.0012 -0.0005
loop_
_geom_bond_atom_site_label_1
_geom_bond_atom_site_label_2
_geom_bond_site_symmetry_1
_geom_bond_site_symmetry_2
Cd1 O1 1_555 1_555
O1 C22 1_555 1_555
O2 C13 1_555 1_555
O3 Cd1 1_555 1_555
O4 C13 1_555 1_555
N1 Cd1 1_555 1_555
C1 C18 1_555 1_555
N2 C6 1_555 1_555
N3 Cd1 1_555 1_555
C2 C13 1_555 1_555
C3 C8 1_555 1_555
C4 H1 1_555 1_555
C5 H2 1_555 1_555
C6 H3 1_555 1_555
C7 N3 1_555 1_555
H4 C7 1_555 1_555
C8 C7 1_555 1_555
H5 C8 1_555 1_555
C9 N1 1_555 1_555
H6 C9 1_555 1_555
C10 N3 1_555 1_555
H7 C10 1_555 1_555
C11 C12 1_555 1_555
C12 C22 1_555 1_555
C14 C2 1_555 1_555
C15 C3 1_555 1_555
H8 C15 1_555 1_555
C16 C4 1_555 1_555
C17 N2 1_555 1_555
H9 C17 1_555 1_555
C18 C6 1_555 1_555
H10 C18 1_555 1_555
C19 C1 1_555 1_555
H11 C19 1_555 1_555
C20 C3 1_555 1_555
C21 N1 1_555 1_555
H12 C21 1_555 1_555
C22 O3 1_555 1_555
C23 C16 1_555 1_555
H13 C23 1_555 1_555
H14 C23 1_555 1_555
C24 C1 1_555 1_555
H15 C24 1_555 1_555
H16 C24 1_555 1_555
H17 C11 1_555 1_555
H18 C20 1_555 1_555
H19 C2 1_555 1_555
H20 C20 1_555 1_555
H21 C14 1_555 1_555
H22 C12 1_555 1_555
N3D C7D 1_555 1_555
C3D C8D 1_555 1_555
C7D H4D 1_555 1_555
C8D C7D 1_555 1_555
H5D C8D 1_555 1_555
C10D N3D 1_555 1_555
H7D C10D 1_555 1_555
C15D C3D 1_555 1_555
H8D C15D 1_555 1_555
C20D C20 1_555 1_555
H18D C20D 1_555 1_555
H20D C20D 1_555 1_555
Cd1D N3D 1_555 1_555
O1D Cd1D 1_555 1_555
O2D C13D 1_555 1_555
O3D Cd1D 1_555 1_555
O4D C13D 1_555 1_555
N1D Cd1D 1_555 1_555
C1D C18D 1_555 1_555
N2D C6D 1_555 1_555
C2D C13D 1_555 1_555
C4D H1D 1_555 1_555
C5D H2D 1_555 1_555
C6D H3D 1_555 1_555
C9D N1D 1_555 1_555
H6D C9D 1_555 1_555
C11D C12D 1_555 1_555
C12D C22D 1_555 1_555
C14D C2D 1_555 1_555
C16D C4D 1_555 1_555
C17D N2D 1_555 1_555
H9D C17D 1_555 1_555
C18D C6D 1_555 1_555
H10D C18D 1_555 1_555
C19D C1D 1_555 1_555
H11D C19D 1_555 1_555
C21D N1D 1_555 1_555
H12D C21D 1_555 1_555
C22D O1D 1_555 1_555
C23D C16D 1_555 1_555
H13D C23D 1_555 1_555
H14D C23D 1_555 1_555
C24D C1D 1_555 1_555
H15D C24D 1_555 1_555
H16D C24D 1_555 1_555
H17D C11D 1_555 1_555
H19D C2D 1_555 1_555
H21D C14D 1_555 1_555
H22D C12D 1_555 1_555
Cd1A O2 1_555 1_555
Cd1B N2D 1_555 1_555
Cd1E O2D 1_555 1_555
Cd1F N2 1_555 1_555
O2A Cd1 1_555 1_555
O2E Cd1D 1_555 1_555
O4A Cd1 1_555 1_555
O4E Cd1D 1_555 1_555
N2B Cd1D 1_555 1_555
N2F Cd1 1_555 1_555
O4 Cd1A 1_555 1_555
C4 C9 1_555 1_555
C5 C16 1_555 1_555
C5 C21 1_555 1_555
C10 C15 1_555 1_555
C11 C14 1_555 1_555
C17 C19 1_555 1_555
C23 C24 1_555 1_555
C3D C20D 1_555 1_555
C10D C15D 1_555 1_555
O3D C22D 1_555 1_555
O4D Cd1E 1_555 1_555
C4D C9D 1_555 1_555
C5D C16D 1_555 1_555
C5D C21D 1_555 1_555
C11D C14D 1_555 1_555
C17D C19D 1_555 1_555
C23D C24D 1_555 1_555

#END
