
#######################################################################
#
#                 Cambridge Crystallographic Data Centre
#                                CCDC 
#
#######################################################################
#
# If this CIF has been generated from an entry in the Cambridge 
# Structural Database, then it will include bibliographic, chemical, 
# crystal, experimental, refinement or atomic coordinate data resulting 
# from the CCDC's data processing and validation procedures.
#
#######################################################################

data_EHOJIW
_chemical_formula_moiety         '(C48 H38 Cd2 N6 O8)n'
_symmetry_cell_setting           orthorhombic
_symmetry_space_group_name_H-M   'P b c n'
_symmetry_Int_Tables_number      60
_space_group_name_Hall           '-P 2n 2ab'
loop_
_symmetry_equiv_pos_site_id
_symmetry_equiv_pos_as_xyz
1 x,y,z
2 1/2-x,1/2-y,1/2+z
3 1/2+x,1/2-y,-z
4 -x,y,1/2-z
5 -x,-y,-z
6 1/2+x,1/2+y,1/2-z
7 1/2-x,1/2+y,z
8 x,-y,1/2+z
_cell_length_a                   14.094(5)
_cell_length_b                   17.248(5)
_cell_length_c                   22.357(5)
_cell_angle_alpha                90
_cell_angle_beta                 90
_cell_angle_gamma                90
_cell_volume                     5434.84
loop_
_atom_site_label
_atom_site_type_symbol
_atom_site_fract_x
_atom_site_fract_y
_atom_site_fract_z
_atom_site_U_iso_or_equiv
_atom_site_thermal_displace_type
Cd1 Cd 0.35951(2) 0.23066(2) 0.11508(2) 0.0132 Uani
O1 O 0.2811(2) 0.2974(2) 0.19145(15) 0.0224 Uani
C1 C 0.1428(3) 0.1837(3) 0.0908(3) 0.0260 Uani
H1 H 0.1340 0.2342 0.1043 0.0310 Uiso
O2 O 0.1201(2) 0.2669(2) 0.50222(15) 0.0241 Uani
O3 O 0.3294(2) 0.1815(2) 0.21944(16) 0.0269 Uani
O4 O 0.2073(2) 0.1777(2) 0.54632(15) 0.0226 Uani
N1 N 1.0124(3) -0.1849(2) 0.12406(18) 0.0196 Uani
C2 C 0.4987(3) 0.0985(3) 0.0596(2) 0.0180 Uani
H2 H 0.4699 0.1153 0.0246 0.0220 Uiso
N2 N 0.2295(3) 0.1538(2) 0.09263(18) 0.0169 Uani
N3 N 0.4685(3) 0.1273(2) 0.11113(18) 0.0179 Uani
C3 C 0.9402(3) -0.1903(3) 0.0856(2) 0.0220 Uani
H3 H 0.9429 -0.2284 0.0563 0.0260 Uiso
C4 C 0.1770(3) 0.2107(3) 0.4999(2) 0.0160 Uani
C5 C 0.5711(3) 0.0446(3) 0.0554(2) 0.0173 Uani
H4 H 0.5884 0.0249 0.0182 0.0210 Uiso
C6 C 0.2438(3) 0.2079(3) 0.3335(2) 0.0227 Uani
H5 H 0.2752 0.1609 0.3285 0.0270 Uiso
C7 C 0.7722(3) -0.0349(3) 0.1373(3) 0.0240 Uani
H6 H 0.7714 -0.0013 0.1697 0.0290 Uiso
C8 C 0.5859(4) 0.0493(3) 0.1606(2) 0.0290 Uani
H7 H 0.6140 0.0338 0.1963 0.0350 Uiso
C9 C 0.2399(4) 0.2556(3) 0.2882(2) 0.0223 Uani
H8 H 0.2045 0.3007 0.2932 0.0260 Uiso
C10 C 0.8625(3) -0.1429(3) 0.0869(2) 0.0203 Uani
H9 H 0.8150 -0.1485 0.0584 0.0250 Uiso
C11 C 0.0649(3) 0.1432(3) 0.0697(3) 0.0273 Uani
H10 H 0.0051 0.1661 0.0704 0.0330 Uiso
C12 C 0.6994(3) -0.0330(3) 0.1006(2) 0.0203 Uani
H11 H 0.6993 -0.0676 0.0687 0.0250 Uiso
C13 C 0.5117(3) 0.1019(3) 0.1607(2) 0.0273 Uani
H12 H 0.4908 0.1208 0.1974 0.0330 Uiso
C14 C 0.1662(3) 0.0360(3) 0.0521(2) 0.0223 Uani
H13 H 0.1768 -0.0149 0.0400 0.0270 Uiso
C15 C 0.0755(3) 0.0689(3) 0.0475(2) 0.0193 Uani
C16 C 0.2868(3) 0.2439(3) 0.2300(2) 0.0187 Uani
C17 C 0.2130(3) 0.1836(3) 0.4409(2) 0.0203 Uani
H14 H 0.2445 0.1363 0.4389 0.0240 Uiso
C18 C 0.9318(4) -0.0787(4) 0.1693(3) 0.0370 Uani
H15 H 0.9321 -0.0399 0.1983 0.0440 Uiso
C19 C 0.8546(3) -0.0863(3) 0.1308(2) 0.0203 Uani
C20 C 0.2019(3) 0.2245(3) 0.3909(2) 0.0230 Uani
H16 H 0.1633 0.2681 0.3933 0.0270 Uiso
C21 C 1.0078(4) -0.1285(4) 0.1645(3) 0.0350 Uani
H17 H 1.0584 -0.1224 0.1908 0.0420 Uiso
C22 C 0.2394(3) 0.0800(3) 0.0745(2) 0.0207 Uani
H18 H 0.2991 0.0573 0.0773 0.0250 Uiso
C23 C 0.6178(3) 0.0201(3) 0.1063(2) 0.0193 Uani
C24 C -0.0035(3) 0.0286(3) 0.0188(2) 0.0237 Uani
H19 H -0.0644 0.0453 0.0284 0.0290 Uiso
C1D C -0.1428(3) -0.1837(3) -0.0908(3) 0.0260 Uani
H1D H -0.1340 -0.2342 -0.1043 0.0310 Uiso
N2D N -0.2295(3) -0.1538(2) -0.09263(18) 0.0169 Uani
C11D C -0.0649(3) -0.1432(3) -0.0697(3) 0.0273 Uani
H10D H -0.0051 -0.1661 -0.0704 0.0330 Uiso
C14D C -0.1662(3) -0.0360(3) -0.0521(2) 0.0223 Uani
H13D H -0.1768 0.0149 -0.0400 0.0270 Uiso
C15D C -0.0755(3) -0.0689(3) -0.0475(2) 0.0193 Uani
C22D C -0.2394(3) -0.0800(3) -0.0745(2) 0.0207 Uani
H18D H -0.2991 -0.0573 -0.0773 0.0250 Uiso
C24D C 0.0035(3) -0.0286(3) -0.0188(2) 0.0237 Uani
H19D H 0.0644 -0.0453 -0.0284 0.0290 Uiso
Cd1D Cd -0.35951(2) -0.23066(2) -0.11508(2) 0.0132 Uani
O1D O -0.2811(2) -0.2974(2) -0.19145(15) 0.0224 Uani
O2D O -0.1201(2) -0.2669(2) -0.50222(15) 0.0241 Uani
O3D O -0.3294(2) -0.1815(2) -0.21944(16) 0.0269 Uani
O4D O -0.2073(2) -0.1777(2) -0.54632(15) 0.0226 Uani
N1D N -1.0124(3) 0.1849(2) -0.12406(18) 0.0196 Uani
C2D C -0.4987(3) -0.0985(3) -0.0596(2) 0.0180 Uani
H2D H -0.4699 -0.1153 -0.0246 0.0220 Uiso
N3D N -0.4685(3) -0.1273(2) -0.11113(18) 0.0179 Uani
C3D C -0.9402(3) 0.1903(3) -0.0856(2) 0.0220 Uani
H3D H -0.9429 0.2284 -0.0563 0.0260 Uiso
C4D C -0.1770(3) -0.2107(3) -0.4999(2) 0.0160 Uani
C5D C -0.5711(3) -0.0446(3) -0.0554(2) 0.0173 Uani
H4D H -0.5884 -0.0249 -0.0182 0.0210 Uiso
C6D C -0.2438(3) -0.2079(3) -0.3335(2) 0.0227 Uani
H5D H -0.2752 -0.1609 -0.3285 0.0270 Uiso
C7D C -0.7722(3) 0.0349(3) -0.1373(3) 0.0240 Uani
H6D H -0.7714 0.0013 -0.1697 0.0290 Uiso
C8D C -0.5859(4) -0.0493(3) -0.1606(2) 0.0290 Uani
H7D H -0.6140 -0.0338 -0.1963 0.0350 Uiso
C9D C -0.2399(4) -0.2556(3) -0.2882(2) 0.0223 Uani
H8D H -0.2045 -0.3007 -0.2932 0.0260 Uiso
C10D C -0.8625(3) 0.1429(3) -0.0869(2) 0.0203 Uani
H9D H -0.8150 0.1485 -0.0584 0.0250 Uiso
C12D C -0.6994(3) 0.0330(3) -0.1006(2) 0.0203 Uani
H11D H -0.6993 0.0676 -0.0687 0.0250 Uiso
C13D C -0.5117(3) -0.1019(3) -0.1607(2) 0.0273 Uani
H12D H -0.4908 -0.1208 -0.1974 0.0330 Uiso
C16D C -0.2868(3) -0.2439(3) -0.2300(2) 0.0187 Uani
C17D C -0.2130(3) -0.1836(3) -0.4409(2) 0.0203 Uani
H14D H -0.2445 -0.1363 -0.4389 0.0240 Uiso
C18D C -0.9318(4) 0.0787(4) -0.1693(3) 0.0370 Uani
H15D H -0.9321 0.0399 -0.1983 0.0440 Uiso
C19D C -0.8546(3) 0.0863(3) -0.1308(2) 0.0203 Uani
C20D C -0.2019(3) -0.2245(3) -0.3909(2) 0.0230 Uani
H16D H -0.1633 -0.2681 -0.3933 0.0270 Uiso
C21D C -1.0078(4) 0.1285(4) -0.1645(3) 0.0350 Uani
H17D H -1.0584 0.1224 -0.1908 0.0420 Uiso
C23D C -0.6178(3) -0.0201(3) -0.1063(2) 0.0193 Uani
Cd1A Cd 0.14049(2) 0.26934(2) 0.61508(2) 0.0132 Uani
Cd1B Cd -1.14049(2) 0.26934(2) -0.11508(2) 0.0132 Uani
Cd1E Cd -0.14049(2) -0.26934(2) -0.61508(2) 0.0132 Uani
Cd1F Cd 1.14049(2) -0.26934(2) 0.11508(2) 0.0132 Uani
O2A O 0.3799(2) 0.2331(2) 0.00222(15) 0.0241 Uani
O2E O -0.3799(2) -0.2331(2) -0.00222(15) 0.0241 Uani
O4A O 0.2927(2) 0.3223(2) 0.04632(15) 0.0226 Uani
O4E O -0.2927(2) -0.3223(2) -0.04632(15) 0.0226 Uani
N1B N -0.4876(3) -0.3151(2) -0.12406(18) 0.0196 Uani
N1F N 0.4876(3) 0.3151(2) 0.12406(18) 0.0196 Uani
loop_
_atom_site_aniso_label
_atom_site_aniso_U_11
_atom_site_aniso_U_22
_atom_site_aniso_U_33
_atom_site_aniso_U_23
_atom_site_aniso_U_13
_atom_site_aniso_U_12
Cd1 0.00927(16) 0.01564(18) 0.01477(17) -0.00162(14) -0.00055(13) -0.00153(13)
O1 0.0264(19) 0.0210(19) 0.0199(19) 0.0002(15) 0.0052(14) -0.0010(15)
C1 0.019(2) 0.023(3) 0.036(3) -0.011(2) -0.001(2) 0.001(2)
O2 0.0220(18) 0.029(2) 0.0212(19) -0.0013(17) 0.0047(14) 0.0113(16)
O3 0.0271(19) 0.032(2) 0.0215(19) 0.0000(16) 0.0057(15) 0.0107(16)
O4 0.0281(19) 0.025(2) 0.0148(18) 0.0025(15) 0.0005(14) 0.0003(15)
N1 0.0157(19) 0.021(2) 0.022(2) -0.0026(18) 0.0006(16) 0.0037(16)
C2 0.019(2) 0.017(3) 0.018(3) 0.001(2) -0.0041(19) 0.0033(19)
N2 0.0076(18) 0.020(2) 0.023(2) -0.0033(17) -0.0057(15) -0.0013(15)
N3 0.0136(18) 0.022(2) 0.018(2) 0.0002(18) -0.0031(16) -0.0007(16)
C3 0.017(2) 0.022(3) 0.027(3) -0.005(2) 0.000(2) 0.000(2)
C4 0.014(2) 0.017(3) 0.017(2) 0.0004(18) 0.0004(18) -0.0009(19)
C5 0.015(2) 0.018(3) 0.019(2) -0.0064(19) -0.0011(19) 0.0039(19)
C6 0.022(3) 0.026(3) 0.020(3) -0.002(2) 0.005(2) 0.005(2)
C7 0.018(3) 0.019(3) 0.035(3) -0.004(2) 0.003(2) 0.007(2)
C8 0.024(3) 0.043(4) 0.020(3) 0.005(2) 0.000(2) 0.011(2)
C9 0.027(3) 0.020(3) 0.020(3) -0.003(2) 0.007(2) 0.002(2)
C10 0.014(2) 0.019(3) 0.028(3) 0.003(2) -0.002(2) -0.002(2)
C11 0.009(2) 0.029(3) 0.044(3) -0.008(3) -0.002(2) 0.002(2)
C12 0.017(2) 0.023(3) 0.021(3) 0.000(2) 0.0006(18) 0.007(2)
C13 0.018(3) 0.047(4) 0.017(3) -0.006(2) 0.000(2) 0.015(2)
C14 0.017(2) 0.008(2) 0.042(3) -0.003(2) -0.007(2) 0.0006(19)
C15 0.013(2) 0.016(2) 0.029(3) -0.001(2) -0.0026(19) -0.0049(19)
C16 0.015(2) 0.027(3) 0.014(2) -0.004(2) -0.0027(18) -0.0011(19)
C17 0.019(2) 0.026(3) 0.016(3) -0.002(2) 0.0021(19) 0.004(2)
C18 0.030(3) 0.042(4) 0.039(4) -0.024(3) -0.017(3) 0.023(3)
C19 0.014(2) 0.023(3) 0.024(3) 0.001(2) 0.0009(19) 0.006(2)
C20 0.022(2) 0.027(3) 0.020(3) -0.002(2) 0.0059(19) 0.004(2)
C21 0.019(3) 0.046(4) 0.040(4) -0.022(3) -0.015(2) 0.016(3)
C22 0.014(2) 0.016(3) 0.032(3) 0.000(2) -0.009(2) -0.0002(19)
C23 0.014(2) 0.021(3) 0.023(3) 0.001(2) 0.0026(18) -0.0001(18)
C24 0.010(2) 0.021(3) 0.040(3) -0.003(2) -0.003(2) -0.0042(19)
C1D 0.019 0.023 0.036 -0.011 -0.001 0.001
N2D 0.0076 0.02 0.023 -0.0033 -0.0057 -0.0013
C11D 0.009 0.029 0.044 -0.008 -0.002 0.002
C14D 0.017 0.008 0.042 -0.003 -0.007 0.0006
C15D 0.013 0.016 0.029 -0.001 -0.0026 -0.0049
C22D 0.014 0.016 0.032 0 -0.009 -0.0002
C24D 0.01 0.021 0.04 -0.003 -0.003 -0.0042
Cd1D 0.00927 0.01564 0.01477 -0.00162 -0.00055 -0.00153
O1D 0.0264 0.021 0.0199 0.0002 0.0052 -0.001
O2D 0.022 0.029 0.0212 -0.0013 0.0047 0.0113
O3D 0.0271 0.032 0.0215 0 0.0057 0.0107
O4D 0.0281 0.025 0.0148 0.0025 0.0005 0.0003
N1D 0.0157 0.021 0.022 -0.0026 0.0006 0.0037
C2D 0.019 0.017 0.018 0.001 -0.0041 0.0033
N3D 0.0136 0.022 0.018 0.0002 -0.0031 -0.0007
C3D 0.017 0.022 0.027 -0.005 0 0
C4D 0.014 0.017 0.017 0.0004 0.0004 -0.0009
C5D 0.015 0.018 0.019 -0.0064 -0.0011 0.0039
C6D 0.022 0.026 0.02 -0.002 0.005 0.005
C7D 0.018 0.019 0.035 -0.004 0.003 0.007
C8D 0.024 0.043 0.02 0.005 0 0.011
C9D 0.027 0.02 0.02 -0.003 0.007 0.002
C10D 0.014 0.019 0.028 0.003 -0.002 -0.002
C12D 0.017 0.023 0.021 0 0.0006 0.007
C13D 0.018 0.047 0.017 -0.006 0 0.015
C16D 0.015 0.027 0.014 -0.004 -0.0027 -0.0011
C17D 0.019 0.026 0.016 -0.002 0.0021 0.004
C18D 0.03 0.042 0.039 -0.024 -0.017 0.023
C19D 0.014 0.023 0.024 0.001 0.0009 0.006
C20D 0.022 0.027 0.02 -0.002 0.0059 0.004
C21D 0.019 0.046 0.04 -0.022 -0.015 0.016
C23D 0.014 0.021 0.023 0.001 0.0026 -0.0001
Cd1A 0.00927 0.01564 0.01477 0.00162 0.00055 -0.00153
Cd1B 0.00927 0.01564 0.01477 -0.00162 0.00055 0.00153
Cd1E 0.00927 0.01564 0.01477 0.00162 0.00055 -0.00153
Cd1F 0.00927 0.01564 0.01477 -0.00162 0.00055 0.00153
O2A 0.022 0.029 0.0212 0.0013 -0.0047 0.0113
O2E 0.022 0.029 0.0212 0.0013 -0.0047 0.0113
O4A 0.0281 0.025 0.0148 -0.0025 -0.0005 0.0003
O4E 0.0281 0.025 0.0148 -0.0025 -0.0005 0.0003
N1B 0.0157 0.021 0.022 -0.0026 -0.0006 -0.0037
N1F 0.0157 0.021 0.022 -0.0026 -0.0006 -0.0037
loop_
_geom_bond_atom_site_label_1
_geom_bond_atom_site_label_2
_geom_bond_site_symmetry_1
_geom_bond_site_symmetry_2
Cd1 O1 1_555 1_555
O1 C16 1_555 1_555
C1 H1 1_555 1_555
O2 C4 1_555 1_555
O3 Cd1 1_555 1_555
O4 C4 1_555 1_555
N1 C3 1_555 1_555
C2 H2 1_555 1_555
N2 Cd1 1_555 1_555
N3 Cd1 1_555 1_555
C3 H3 1_555 1_555
C4 C17 1_555 1_555
C5 C2 1_555 1_555
H4 C5 1_555 1_555
C6 H5 1_555 1_555
C7 H6 1_555 1_555
C8 H7 1_555 1_555
C9 C6 1_555 1_555
H8 C9 1_555 1_555
C10 C3 1_555 1_555
H9 C10 1_555 1_555
C11 C1 1_555 1_555
H10 C11 1_555 1_555
C12 C7 1_555 1_555
H11 C12 1_555 1_555
C13 N3 1_555 1_555
H12 C13 1_555 1_555
C14 H13 1_555 1_555
C15 C11 1_555 1_555
C16 O3 1_555 1_555
C17 H14 1_555 1_555
C18 H15 1_555 1_555
C19 C7 1_555 1_555
C20 C6 1_555 1_555
H16 C20 1_555 1_555
C21 N1 1_555 1_555
H17 C21 1_555 1_555
C22 N2 1_555 1_555
H18 C22 1_555 1_555
C23 C5 1_555 1_555
C24 C15 1_555 1_555
H19 C24 1_555 1_555
C1D H1D 1_555 1_555
N2D C1D 1_555 1_555
C11D C1D 1_555 1_555
H10D C11D 1_555 1_555
C14D H13D 1_555 1_555
C15D C11D 1_555 1_555
C22D N2D 1_555 1_555
H18D C22D 1_555 1_555
C24D C24 1_555 1_555
H19D C24D 1_555 1_555
Cd1D N2D 1_555 1_555
O1D Cd1D 1_555 1_555
O2D C4D 1_555 1_555
O3D Cd1D 1_555 1_555
O4D C4D 1_555 1_555
N1D C3D 1_555 1_555
C2D H2D 1_555 1_555
N3D Cd1D 1_555 1_555
C3D H3D 1_555 1_555
C4D C17D 1_555 1_555
C5D C2D 1_555 1_555
H4D C5D 1_555 1_555
C6D H5D 1_555 1_555
C7D H6D 1_555 1_555
C8D H7D 1_555 1_555
C9D C6D 1_555 1_555
H8D C9D 1_555 1_555
C10D C3D 1_555 1_555
H9D C10D 1_555 1_555
C12D C7D 1_555 1_555
H11D C12D 1_555 1_555
C13D N3D 1_555 1_555
H12D C13D 1_555 1_555
C16D O1D 1_555 1_555
C17D H14D 1_555 1_555
C18D H15D 1_555 1_555
C19D C7D 1_555 1_555
C20D C6D 1_555 1_555
H16D C20D 1_555 1_555
C21D N1D 1_555 1_555
H17D C21D 1_555 1_555
C23D C5D 1_555 1_555
Cd1A O2 1_555 1_555
Cd1B N1D 1_555 1_555
Cd1E O2D 1_555 1_555
Cd1F N1 1_555 1_555
O2A Cd1 1_555 1_555
O2E Cd1D 1_555 1_555
O4A Cd1 1_555 1_555
O4E Cd1D 1_555 1_555
N1B Cd1D 1_555 1_555
N1F Cd1 1_555 1_555
C1 N2 1_555 1_555
O4 Cd1A 1_555 1_555
C2 N3 1_555 1_555
C8 C13 1_555 1_555
C8 C23 1_555 1_555
C9 C16 1_555 1_555
C10 C19 1_555 1_555
C12 C23 1_555 1_555
C14 C15 1_555 1_555
C14 C22 1_555 1_555
C17 C20 1_555 1_555
C18 C19 1_555 1_555
C18 C21 1_555 1_555
C14D C15D 1_555 1_555
C14D C22D 1_555 1_555
C15D C24D 1_555 1_555
O3D C16D 1_555 1_555
O4D Cd1E 1_555 1_555
C2D N3D 1_555 1_555
C8D C13D 1_555 1_555
C8D C23D 1_555 1_555
C9D C16D 1_555 1_555
C10D C19D 1_555 1_555
C12D C23D 1_555 1_555
C17D C20D 1_555 1_555
C18D C19D 1_555 1_555
C18D C21D 1_555 1_555

#END
