
#######################################################################
#
#                 Cambridge Crystallographic Data Centre
#                                CCDC 
#
#######################################################################
#
# If this CIF has been generated from an entry in the Cambridge 
# Structural Database, then it will include bibliographic, chemical, 
# crystal, experimental, refinement or atomic coordinate data resulting 
# from the CCDC's data processing and validation procedures.
#
#######################################################################

data_HACDOH
_chemical_formula_moiety         'C20 H13 Co5 N3 O11'
_symmetry_cell_setting           rhombohedral
_symmetry_space_group_name_H-M   'R -3 m'
_symmetry_Int_Tables_number      166
_space_group_name_Hall           '-R 3 2"'
loop_
_symmetry_equiv_pos_site_id
_symmetry_equiv_pos_as_xyz
1 x,y,z
2 -y,x-y,z
3 -x+y,-x,z
4 x-y,-y,-z
5 -x,-x+y,-z
6 y,x,-z
7 2/3+x,1/3+y,1/3+z
8 2/3-y,1/3+x-y,1/3+z
9 2/3-x+y,1/3-x,1/3+z
10 2/3+x-y,1/3-y,1/3-z
11 2/3-x,1/3-x+y,1/3-z
12 2/3+y,1/3+x,1/3-z
13 1/3+x,2/3+y,2/3+z
14 1/3-y,2/3+x-y,2/3+z
15 1/3-x+y,2/3-x,2/3+z
16 1/3+x-y,2/3-y,2/3-z
17 1/3-x,2/3-x+y,2/3-z
18 1/3+y,2/3+x,2/3-z
19 -x,-y,-z
20 y,-x+y,-z
21 x-y,x,-z
22 -x+y,y,z
23 x,x-y,z
24 -y,-x,z
25 1/3-x,2/3-y,2/3-z
26 1/3+y,2/3-x+y,2/3-z
27 1/3+x-y,2/3+x,2/3-z
28 1/3-x+y,2/3+y,2/3+z
29 1/3+x,2/3+x-y,2/3+z
30 1/3-y,2/3-x,2/3+z
31 2/3-x,1/3-y,1/3-z
32 2/3+y,1/3-x+y,1/3-z
33 2/3+x-y,1/3+x,1/3-z
34 2/3-x+y,1/3+y,1/3+z
35 2/3+x,1/3+x-y,1/3+z
36 2/3-y,1/3-x,1/3+z
_cell_length_a                   18.7069(8)
_cell_length_b                   18.7069(8)
_cell_length_c                   41.0149(19)
_cell_angle_alpha                90
_cell_angle_beta                 90
_cell_angle_gamma                120
_cell_volume                     12430.1
loop_
_atom_site_label
_atom_site_type_symbol
_atom_site_fract_x
_atom_site_fract_y
_atom_site_fract_z
_atom_site_U_iso_or_equiv
_atom_site_thermal_displace_type
Co1 Co 0.38660(8) 0.19330(4) 0.13821(3) 0.0764 Uani
O1 O 0.4430(4) 0.1476(4) 0.16522(13) 0.1143 Uani
O2 O 0.3630(4) 0.1073(4) 0.20912(14) 0.1099 Uani
O3 O 0.3673(10) -0.0253(17) 0.2980(4) 0.2262 Uani
O4 O 0.4393(2) -0.1213(5) 0.43154(16) 0.1098 Uani
N1 N 0.5082(5) 0.0163(10) 0.2893(2) 0.1400 Uani
H1 H 0.5457 0.0075 0.2983 0.1680 Uiso
C1 C 0.4261(6) 0.1183(6) 0.19373(19) 0.1024 Uani
C2 C 0.4847(5) 0.0968(6) 0.20991(17) 0.0943 Uani
C3 C 0.5564(4) 0.1128(8) 0.1946(2) 0.0937 Uani
H2 H 0.5677 0.1353 0.1732 0.1130 Uiso
C4 C 0.4685(6) 0.0681(7) 0.2412(2) 0.1164 Uani
H3 H 0.4203 0.0604 0.2520 0.1390 Uiso
C5 C 0.5248(5) 0.0496(10) 0.2575(2) 0.1229 Uani
C6 C 0.4388(10) -0.004(2) 0.3075(3) 0.1731 Uani
C7 C 0.4461(9) -0.0272(11) 0.3421(3) 0.1628 Uani
C8 C 0.3724(8) -0.0763(12) 0.3585(3) 0.1754 Uani
H4 H 0.3214 -0.0890 0.3486 0.2110 Uiso
C9 C 0.3732(9) -0.1067(10) 0.3893(3) 0.1706 Uani
H5 H 0.3228 -0.1403 0.4005 0.2050 Uiso
N2 N 0.4478(11) -0.0881(8) 0.40374(18) 0.1464 Uani
C10 C 0.5216(9) -0.0390(10) 0.3873(3) 0.1670 Uani
H6 H 0.5725 -0.0263 0.3972 0.2000 Uiso
C11 C 0.5207(8) -0.0086(11) 0.3565(3) 0.1590 Uani
H7 H 0.5711 0.0250 0.3453 0.1910 Uiso
O1U O 0.7046(6) 0.1476(4) 0.16522(13) 0.1143 Uani
O2U O 0.7443(6) 0.1073(4) 0.20912(14) 0.1099 Uani
O3U O 0.6074(20) -0.0253(17) 0.2980(4) 0.2262 Uani
H1U H 0.4618 0.0075 0.2983 0.1680 Uiso
C1U C 0.6922(8) 0.1183(6) 0.19373(19) 0.1024 Uani
C2U C 0.6121(8) 0.0968(6) 0.20991(17) 0.0943 Uani
C4U C 0.5996(9) 0.0681(7) 0.2412(2) 0.1164 Uani
H3U H 0.6401 0.0604 0.2520 0.1390 Uiso
C6U C 0.5572(22) -0.004(2) 0.3075(3) 0.1731 Uani
C7U C 0.5267(14) -0.0272(11) 0.3421(3) 0.1628 Uani
C8U C 0.5513(14) -0.0763(12) 0.3585(3) 0.1754 Uani
H4U H 0.5896 -0.0890 0.3486 0.2110 Uiso
C9U C 0.5201(13) -0.1067(10) 0.3893(3) 0.1706 Uani
H5U H 0.5369 -0.1403 0.4005 0.2050 Uiso
N2U N 0.4641(14) -0.0881(8) 0.40374(18) 0.1464 Uani
C10U C 0.4394(13) -0.0390(10) 0.3873(3) 0.1670 Uani
H6U H 0.4012 -0.0263 0.3972 0.2000 Uiso
C11U C 0.4707(14) -0.0086(11) 0.3565(3) 0.1590 Uani
H7U H 0.4539 0.0250 0.3453 0.1910 Uiso
Co1A Co 0.80670(4) 0.19330(9) 0.13821(3) 0.0764 Uani
Co1H Co 0.47337(9) -0.05327(8) 0.47154(3) 0.0764 Uani
Co1I Co 0.85997(9) 0.14003(4) 0.19512(3) 0.0764 Uani
Co1J Co 0.28007(8) 0.14003(9) 0.19512(3) 0.0764 Uani
O1V O 0.4430(4) 0.2954(6) 0.16522(13) 0.1143 Uani
O2J O 0.3037(4) 0.0776(6) 0.12421(14) 0.1099 Uani
O2DA O 0.3037(4) 0.2260(4) 0.12421(14) 0.1099 Uani
O4M O 0.4546(5) 0.2273(5) 0.09821(16) 0.1098 Uani
loop_
_atom_site_aniso_label
_atom_site_aniso_U_11
_atom_site_aniso_U_22
_atom_site_aniso_U_33
_atom_site_aniso_U_23
_atom_site_aniso_U_13
_atom_site_aniso_U_12
Co1 0.0598(9) 0.1101(11) 0.0426(8) 0.0024(3) 0.0048(6) 0.0299(5)
O1 0.121(5) 0.155(5) 0.071(3) 0.001(3) -0.015(3) 0.072(4)
O2 0.093(4) 0.144(5) 0.095(4) 0.003(3) -0.012(3) 0.061(4)
O3 0.188(13) 0.382(19) 0.108(10) 0.073(12) -0.001(9) 0.142(14)
O4 0.157(6) 0.089(5) 0.060(4) -0.018(3) -0.0089(17) 0.044(2)
N1 0.137(6) 0.255(15) 0.068(6) 0.047(8) 0.024(4) 0.128(8)
C1 0.090(6) 0.142(7) 0.070(5) -0.008(5) -0.009(4) 0.054(5)
C2 0.084(5) 0.143(7) 0.067(4) 0.012(4) 0.002(4) 0.065(5)
C3 0.101(6) 0.123(9) 0.065(6) 0.006(6) 0.003(3) 0.062(5)
C4 0.100(6) 0.173(9) 0.084(5) 0.022(6) 0.007(4) 0.074(6)
C5 0.132(8) 0.184(15) 0.070(7) 0.022(8) 0.011(4) 0.092(7)
C6 0.156(10) 0.270(13) 0.086(8) 0.053(9) 0.009(7) 0.101(11)
C7 0.150(9) 0.242(11) 0.087(7) 0.046(7) 0.008(6) 0.091(9)
C8 0.159(9) 0.245(12) 0.089(7) 0.054(8) 0.002(7) 0.076(10)
C9 0.164(9) 0.226(11) 0.081(7) 0.045(7) -0.007(7) 0.067(10)
N2 0.161(10) 0.192(10) 0.058(5) 0.020(6) -0.008(7) 0.067(10)
C10 0.166(10) 0.217(11) 0.077(7) 0.026(7) -0.006(7) 0.065(10)
C11 0.153(9) 0.225(11) 0.085(7) 0.040(8) 0.002(6) 0.084(10)
O1U 0.132 0.155 0.071 0.001 0.016 0.083
O2U 0.115 0.144 0.095 0.003 0.015 0.083
O3U 0.286 0.382 0.108 0.073 0.074 0.24
C1U 0.124 0.142 0.07 -0.008 0.001 0.088
C2U 0.097 0.143 0.067 0.012 0.01 0.078
C4U 0.125 0.173 0.084 0.022 0.015 0.099
C6U 0.224 0.27 0.086 0.053 0.044 0.169
C7U 0.21 0.242 0.087 0.046 0.038 0.151
C8U 0.252 0.245 0.089 0.054 0.052 0.169
C9U 0.256 0.226 0.081 0.045 0.052 0.159
N2U 0.219 0.192 0.058 0.02 0.028 0.125
C10U 0.253 0.217 0.077 0.026 0.032 0.152
C11U 0.21 0.225 0.085 0.04 0.038 0.141
Co1A 0.1101 0.1101 0.0426 0.0024 -0.0024 0.0802
Co1H 0.1101 0.0598 0.0426 -0.0048 -0.0024 0.0299
Co1I 0.1101 0.1101 0.0426 0.0024 -0.0024 0.0802
Co1J 0.0598 0.1101 0.0426 0.0024 0.0048 0.0299
O1V 0.121 0.132 0.071 -0.016 -0.015 0.049
O2J 0.093 0.115 0.095 -0.015 -0.012 0.032
O2DA 0.093 0.144 0.095 0.003 -0.012 0.061
O4M 0.089 0.158 0.06 0.0091 0.018 0.045
loop_
_geom_bond_atom_site_label_1
_geom_bond_atom_site_label_2
_geom_bond_site_symmetry_1
_geom_bond_site_symmetry_2
Co1 O1 1_555 1_555
O1 C1 1_555 1_555
O2 C1 1_555 1_555
O3 C6 1_555 1_555
O4 N2 1_555 1_555
N1 H1 1_555 1_555
C1 C2 1_555 1_555
C2 C3 1_555 1_555
C3 H2 1_555 1_555
C4 C2 1_555 1_555
H3 C4 1_555 1_555
C5 N1 1_555 1_555
C6 N1 1_555 1_555
C7 C6 1_555 1_555
C8 C7 1_555 1_555
H4 C8 1_555 1_555
C9 C8 1_555 1_555
H5 C9 1_555 1_555
N2 C9 1_555 1_555
C10 N2 1_555 1_555
H6 C10 1_555 1_555
C11 C7 1_555 1_555
H7 C11 1_555 1_555
O1U C1U 1_555 1_555
O2U C1U 1_555 1_555
O3U C6U 1_555 1_555
H1U N1 1_555 1_555
C1U C2U 1_555 1_555
C2U C3 1_555 1_555
C4U C5 1_555 1_555
H3U C4U 1_555 1_555
C6U N1 1_555 1_555
C7U C6U 1_555 1_555
C8U C7U 1_555 1_555
H4U C8U 1_555 1_555
C9U N2 1_555 1_555
H5U C9U 1_555 1_555
N2U O4 1_555 1_555
C10U N2 1_555 1_555
H6U C10U 1_555 1_555
C11U C7U 1_555 1_555
H7U C11U 1_555 1_555
Co1A O1U 1_555 1_555
Co1H O4 1_555 1_555
Co1I O2U 1_555 1_555
Co1J Co1 1_555 1_555
O1V Co1 1_555 1_555
O2J Co1 1_555 1_555
O2DA Co1 1_555 1_555
O4M Co1 1_555 1_555
O2 Co1J 1_555 1_555
C4 C5 1_555 1_555
C9 N2U 1_555 1_555
C10 C11 1_555 1_555
C10 N2U 1_555 1_555
C2U C4U 1_555 1_555
C8U C9U 1_555 1_555
C9U N2U 1_555 1_555
N2U C10U 1_555 1_555
C10U C11U 1_555 1_555
Co1A Co1I 1_555 1_555

#END
