
#######################################################################
#
#                 Cambridge Crystallographic Data Centre
#                                CCDC 
#
#######################################################################
#
# If this CIF has been generated from an entry in the Cambridge 
# Structural Database, then it will include bibliographic, chemical, 
# crystal, experimental, refinement or atomic coordinate data resulting 
# from the CCDC's data processing and validation procedures.
#
#######################################################################

data_HACDUN
_chemical_formula_moiety         'C20 H13 N3 O11 Zn5'
_symmetry_cell_setting           rhombohedral
_symmetry_space_group_name_H-M   'R -3 m'
_symmetry_Int_Tables_number      166
_space_group_name_Hall           '-R 3 2"'
loop_
_symmetry_equiv_pos_site_id
_symmetry_equiv_pos_as_xyz
1 x,y,z
2 -y,x-y,z
3 -x+y,-x,z
4 x-y,-y,-z
5 -x,-x+y,-z
6 y,x,-z
7 2/3+x,1/3+y,1/3+z
8 2/3-y,1/3+x-y,1/3+z
9 2/3-x+y,1/3-x,1/3+z
10 2/3+x-y,1/3-y,1/3-z
11 2/3-x,1/3-x+y,1/3-z
12 2/3+y,1/3+x,1/3-z
13 1/3+x,2/3+y,2/3+z
14 1/3-y,2/3+x-y,2/3+z
15 1/3-x+y,2/3-x,2/3+z
16 1/3+x-y,2/3-y,2/3-z
17 1/3-x,2/3-x+y,2/3-z
18 1/3+y,2/3+x,2/3-z
19 -x,-y,-z
20 y,-x+y,-z
21 x-y,x,-z
22 -x+y,y,z
23 x,x-y,z
24 -y,-x,z
25 1/3-x,2/3-y,2/3-z
26 1/3+y,2/3-x+y,2/3-z
27 1/3+x-y,2/3+x,2/3-z
28 1/3-x+y,2/3+y,2/3+z
29 1/3+x,2/3+x-y,2/3+z
30 1/3-y,2/3-x,2/3+z
31 2/3-x,1/3-y,1/3-z
32 2/3+y,1/3-x+y,1/3-z
33 2/3+x-y,1/3+x,1/3-z
34 2/3-x+y,1/3+y,1/3+z
35 2/3+x,1/3+x-y,1/3+z
36 2/3-y,1/3-x,1/3+z
_cell_length_a                   18.7376(4)
_cell_length_b                   18.7376(4)
_cell_length_c                   40.9892(12)
_cell_angle_alpha                90
_cell_angle_beta                 90
_cell_angle_gamma                120
_cell_volume                     12463.2
loop_
_atom_site_label
_atom_site_type_symbol
_atom_site_fract_x
_atom_site_fract_y
_atom_site_fract_z
_atom_site_U_iso_or_equiv
_atom_site_thermal_displace_type
Zn1 Zn 0.80677(2) 0.19323(2) 0.13739(2) 0.0621 Uani
O1 O 0.7038(3) 0.1480(3) 0.16483(10) 0.0904 Uani
O2 O 0.7436(3) 0.1075(4) 0.20896(10) 0.0970 Uani
O3 O 0.43867(17) -0.1227(3) 0.43101(11) 0.0938 Uani
N1 N 0.5069(4) 0.0137(8) 0.28828(17) 0.1131 Uani
H1 H 0.4596 0.0034 0.2968 0.1350 Uiso
C1 C 0.6927(4) 0.1190(4) 0.19328(14) 0.0810 Uani
C2 C 0.6138(4) 0.0982(4) 0.20940(13) 0.0784 Uani
C3 C 0.5573(3) 0.1145(6) 0.19394(16) 0.0763 Uani
H2 H 0.5685 0.1371 0.1725 0.0910 Uiso
C4 C 0.6001(5) 0.0675(6) 0.24067(15) 0.0987 Uani
H3 H 0.6398 0.0585 0.2515 0.1190 Uiso
C5 C 0.5246(4) 0.0491(8) 0.2568(2) 0.1040 Uani
O4 O 0.6301(12) 0.027(2) 0.3042(7) 0.1514 Uani
C6 C 0.5547(12) -0.0064(17) 0.3071(3) 0.1473 Uani
C7 C 0.5309(9) -0.0221(9) 0.3426(2) 0.1393 Uani
C8 C 0.5620(10) -0.0641(10) 0.3602(3) 0.1493 Uani
H4 H 0.6058 -0.0699 0.3515 0.1790 Uiso
C9 C 0.5289(10) -0.0975(9) 0.3905(2) 0.1474 Uani
H5 H 0.5501 -0.1261 0.4025 0.1770 Uiso
N2 N 0.4649(9) -0.0889(5) 0.40325(14) 0.1186 Uani
C10 C 0.4338(9) -0.0469(8) 0.3857(2) 0.1456 Uani
H6 H 0.3901 -0.0411 0.3944 0.1740 Uiso
C11 C 0.4669(10) -0.0135(9) 0.3554(2) 0.1381 Uani
H7 H 0.4457 0.0151 0.3433 0.1660 Uiso
O1U O 0.4442(4) 0.1480(3) 0.16483(10) 0.0904 Uani
O2U O 0.3639(5) 0.1075(4) 0.20896(10) 0.0970 Uani
H1U H 0.5438 0.0034 0.2968 0.1350 Uiso
C1U C 0.4263(6) 0.1190(4) 0.19328(14) 0.0810 Uani
C2U C 0.4844(6) 0.0982(4) 0.20940(13) 0.0784 Uani
C4U C 0.4674(8) 0.0675(6) 0.24067(15) 0.0987 Uani
H3U H 0.4187 0.0585 0.2515 0.1190 Uiso
O4U O 0.3969(23) 0.027(2) 0.3042(7) 0.1514 Uani
C6U C 0.4389(21) -0.0064(17) 0.3071(3) 0.1473 Uani
C7U C 0.4470(13) -0.0221(9) 0.3426(2) 0.1393 Uani
C8U C 0.3739(14) -0.0641(10) 0.3602(3) 0.1493 Uani
H4U H 0.3243 -0.0699 0.3515 0.1790 Uiso
C9U C 0.3736(13) -0.0975(9) 0.3905(2) 0.1474 Uani
H5U H 0.3238 -0.1261 0.4025 0.1770 Uiso
N2U N 0.4462(10) -0.0889(5) 0.40325(14) 0.1186 Uani
C10U C 0.5193(12) -0.0469(8) 0.3857(2) 0.1456 Uani
H6U H 0.5688 -0.0411 0.3944 0.1740 Uiso
C11U C 0.5196(13) -0.0135(9) 0.3554(2) 0.1381 Uani
H7U H 0.5694 0.0151 0.3433 0.1660 Uiso
Zn1B Zn 0.38646(3) 0.19323(2) 0.13739(2) 0.0621 Uani
Zn1G Zn 0.47344(2) -0.05313(3) 0.47072(2) 0.0621 Uani
Zn1I Zn 0.28021(3) 0.14010(2) 0.19594(2) 0.0621 Uani
Zn1K Zn 0.85990(2) 0.14010(2) 0.19594(2) 0.0621 Uani
O1W O 0.8520(3) 0.2962(3) 0.16483(10) 0.0904 Uani
O2K O 0.7742(4) 0.0769(3) 0.12437(10) 0.0970 Uani
O2DA O 0.9231(3) 0.2258(4) 0.12437(10) 0.0970 Uani
O3N O 0.77196(34) 0.22800(17) 0.09768(11) 0.0938 Uani
loop_
_atom_site_aniso_label
_atom_site_aniso_U_11
_atom_site_aniso_U_22
_atom_site_aniso_U_33
_atom_site_aniso_U_23
_atom_site_aniso_U_13
_atom_site_aniso_U_12
Zn1 0.0928(7) 0.0928(7) 0.0306(7) 0.00260(13) -0.00260(13) 0.0689(6)
O1 0.102(3) 0.136(4) 0.058(2) 0.014(2) 0.015(2) 0.078(3)
O2 0.111(3) 0.148(4) 0.067(2) 0.010(2) 0.007(2) 0.091(3)
O3 0.148(4) 0.070(3) 0.037(2) -0.010(2) -0.0052(11) 0.0348(14)
N1 0.114(4) 0.193(10) 0.058(4) 0.034(5) 0.017(3) 0.096(5)
C1 0.095(4) 0.114(4) 0.055(3) 0.001(3) 0.006(3) 0.068(4)
C2 0.089(4) 0.106(4) 0.054(3) 0.008(2) 0.008(2) 0.059(3)
C3 0.088(3) 0.099(5) 0.045(3) 0.008(3) 0.0038(16) 0.049(3)
C4 0.114(5) 0.151(6) 0.056(3) 0.020(4) 0.009(3) 0.085(5)
C5 0.111(5) 0.163(10) 0.056(5) 0.032(5) 0.016(3) 0.082(5)
O4 0.178(11) 0.224(13) 0.085(8) 0.054(9) 0.031(8) 0.125(10)
C6 0.181(10) 0.217(11) 0.086(6) 0.049(7) 0.038(7) 0.131(9)
C7 0.193(9) 0.199(8) 0.082(6) 0.041(6) 0.030(6) 0.140(7)
C8 0.204(10) 0.198(9) 0.088(6) 0.041(7) 0.028(6) 0.132(8)
C9 0.226(10) 0.164(8) 0.081(6) 0.032(6) 0.031(7) 0.119(8)
N2 0.239(10) 0.103(5) 0.045(3) 0.004(3) 0.030(6) 0.109(7)
C10 0.235(10) 0.157(8) 0.074(6) 0.030(6) 0.036(6) 0.120(7)
C11 0.209(10) 0.178(8) 0.081(6) 0.040(6) 0.042(6) 0.137(7)
O1U 0.082 0.136 0.058 0.014 -0.001 0.058
O2U 0.077 0.148 0.067 0.01 0.003 0.057
C1U 0.073 0.114 0.055 0.001 -0.005 0.046
C2U 0.077 0.106 0.054 0.008 2.25359e-18 0.047
C4U 0.095 0.151 0.056 0.02 0.011 0.066
O4U 0.152 0.224 0.085 0.054 0.023 0.099
C6U 0.136 0.217 0.086 0.049 0.011 0.086
C7U 0.112 0.199 0.082 0.041 0.011 0.059
C8U 0.138 0.198 0.088 0.041 0.013 0.066
C9U 0.152 0.164 0.081 0.032 0.001 0.045
N2U 0.124 0.103 0.045 0.004 -0.026 -0.006
C10U 0.152 0.157 0.074 0.03 -0.006 0.037
C11U 0.113 0.178 0.081 0.04 -0.002 0.041
Zn1B 0.0478 0.0928 0.0306 0.0026 0.0052 0.0239
Zn1G 0.0928 0.0478 0.0306 -0.0052 -0.0026 0.0239
Zn1I 0.0478 0.0928 0.0306 0.0026 0.0052 0.0239
Zn1K 0.0928 0.0928 0.0306 0.0026 -0.0026 0.0689
O1W 0.136 0.102 0.058 -0.015 -0.014 0.078
O2K 0.148 0.111 0.067 -0.007 -0.01 0.091
O2DA 0.111 0.148 0.067 0.01 0.007 0.091
O3N 0.1484 0.148 0.037 0.0052 -0.0048 0.1132
loop_
_geom_bond_atom_site_label_1
_geom_bond_atom_site_label_2
_geom_bond_site_symmetry_1
_geom_bond_site_symmetry_2
Zn1 O1 1_555 1_555
O1 C1 1_555 1_555
O2 C1 1_555 1_555
O3 N2 1_555 1_555
N1 H1 1_555 1_555
C1 C2 1_555 1_555
C2 C3 1_555 1_555
C3 H2 1_555 1_555
C4 C2 1_555 1_555
H3 C4 1_555 1_555
C5 N1 1_555 1_555
O4 C6 1_555 1_555
C6 N1 1_555 1_555
C7 C6 1_555 1_555
C8 C7 1_555 1_555
H4 C8 1_555 1_555
C9 C8 1_555 1_555
H5 C9 1_555 1_555
N2 C9 1_555 1_555
C10 N2 1_555 1_555
H6 C10 1_555 1_555
C11 C7 1_555 1_555
H7 C11 1_555 1_555
O1U C1U 1_555 1_555
O2U C1U 1_555 1_555
H1U N1 1_555 1_555
C1U C2U 1_555 1_555
C2U C3 1_555 1_555
C4U C5 1_555 1_555
H3U C4U 1_555 1_555
O4U C6U 1_555 1_555
C6U N1 1_555 1_555
C7U C6U 1_555 1_555
C8U C7U 1_555 1_555
H4U C8U 1_555 1_555
C9U N2 1_555 1_555
H5U C9U 1_555 1_555
N2U O3 1_555 1_555
C10U N2U 1_555 1_555
H6U C10U 1_555 1_555
C11U C7U 1_555 1_555
H7U C11U 1_555 1_555
Zn1B O1U 1_555 1_555
Zn1G O3 1_555 1_555
Zn1I O2U 1_555 1_555
Zn1K O2 1_555 1_555
O1W Zn1 1_555 1_555
O2K Zn1 1_555 1_555
O2DA Zn1 1_555 1_555
O3N Zn1 1_555 1_555
C4 C5 1_555 1_555
C9 N2U 1_555 1_555
C10 C11 1_555 1_555
C2U C4U 1_555 1_555
C8U C9U 1_555 1_555
C9U N2U 1_555 1_555
C10U C11U 1_555 1_555

#END
