
#######################################################################
#
#                 Cambridge Crystallographic Data Centre
#                                CCDC 
#
#######################################################################
#
# If this CIF has been generated from an entry in the Cambridge 
# Structural Database, then it will include bibliographic, chemical, 
# crystal, experimental, refinement or atomic coordinate data resulting 
# from the CCDC's data processing and validation procedures.
#
#######################################################################

data_HACREL
_chemical_formula_moiety         'C20 H13 N3 O10 Zn5'
_symmetry_cell_setting           rhombohedral
_symmetry_space_group_name_H-M   'R -3 m'
_symmetry_Int_Tables_number      166
_space_group_name_Hall           '-R 3 2"'
loop_
_symmetry_equiv_pos_site_id
_symmetry_equiv_pos_as_xyz
1 x,y,z
2 -y,x-y,z
3 -x+y,-x,z
4 y,x,-z
5 -x,-x+y,-z
6 x-y,-y,-z
7 2/3+x,1/3+y,1/3+z
8 2/3-y,1/3+x-y,1/3+z
9 2/3-x+y,1/3-x,1/3+z
10 2/3+y,1/3+x,1/3-z
11 2/3-x,1/3-x+y,1/3-z
12 2/3+x-y,1/3-y,1/3-z
13 1/3+x,2/3+y,2/3+z
14 1/3-y,2/3+x-y,2/3+z
15 1/3-x+y,2/3-x,2/3+z
16 1/3+y,2/3+x,2/3-z
17 1/3-x,2/3-x+y,2/3-z
18 1/3+x-y,2/3-y,2/3-z
19 -x,-y,-z
20 y,-x+y,-z
21 x-y,x,-z
22 -y,-x,z
23 x,x-y,z
24 -x+y,y,z
25 1/3-x,2/3-y,2/3-z
26 1/3+y,2/3-x+y,2/3-z
27 1/3+x-y,2/3+x,2/3-z
28 1/3-y,2/3-x,2/3+z
29 1/3+x,2/3+x-y,2/3+z
30 1/3-x+y,2/3+y,2/3+z
31 2/3-x,1/3-y,1/3-z
32 2/3+y,1/3-x+y,1/3-z
33 2/3+x-y,1/3+x,1/3-z
34 2/3-y,1/3-x,1/3+z
35 2/3+x,1/3+x-y,1/3+z
36 2/3-x+y,1/3+y,1/3+z
_cell_length_a                   19.3411(4)
_cell_length_b                   19.3411(4)
_cell_length_c                   37.8517(8)
_cell_angle_alpha                90
_cell_angle_beta                 90
_cell_angle_gamma                120
_cell_volume                     12262.5
loop_
_atom_site_label
_atom_site_type_symbol
_atom_site_fract_x
_atom_site_fract_y
_atom_site_fract_z
_atom_site_U_iso_or_equiv
_atom_site_thermal_displace_type
Zn1 Zn 0.37969(4) 0.18985(2) 0.13305(2) 0.0399 Uani
O1 O 0.2190(3) 0.2917(2) -0.12970(8) 0.0749 Uani
O2 O 0.1820(2) 0.21751(18) -0.17871(8) 0.0585 Uani
N1 N 0.3323(6) 0.1661(3) -0.04932(16) 0.0897 Uani
H1 H 0.3403 0.1298 -0.0405 0.1080 Uiso
C1 C 0.2931(5) 0.1465(3) -0.08328(18) 0.0737 Uani
C2 C 0.2745(4) 0.1996(3) -0.09942(12) 0.0726 Uani
H2 H 0.2875 0.2477 -0.0886 0.0870 Uiso
C3 C 0.2365(3) 0.1800(3) -0.13163(11) 0.0586 Uani
C4 C 0.2180(4) 0.1090(2) -0.14830(15) 0.0540 Uani
H3 H 0.1934 0.0967 -0.1703 0.0430 Uiso
C5 C 0.2105(3) 0.2342(2) -0.14815(11) 0.0561 Uani
N2 N 0.3986(3) 0.2044(6) 0.07988(10) 0.0453 Uani
C6 C 0.4095(5) 0.2755(5) 0.06577(14) 0.0868 Uani
H4 H 0.4239 0.3192 0.0804 0.1050 Uiso
C7 C 0.3987(6) 0.2811(4) 0.02980(16) 0.0981 Uani
H5 H 0.4060 0.3287 0.0204 0.1180 Uiso
C8 C 0.3772(5) 0.2157(5) 0.00793(11) 0.0694 Uani
C9 C 0.3663(5) 0.1446(5) 0.02204(17) 0.0938 Uani
H6 H 0.3519 0.1008 0.0074 0.1120 Uiso
C10 C 0.3770(5) 0.1389(5) 0.05801(18) 0.0800 Uiso
H7 H 0.3698 0.0914 0.0674 0.0970 Uiso
O3 O 0.3821(9) 0.3124(9) -0.0411(4) 0.1470 Uiso
C11 C 0.3566(8) 0.2276(8) -0.0305(4) 0.0910 Uiso
O1V O 0.2190(3) -0.0727(4) -0.12970(8) 0.0749 Uani
O2V O 0.1820(2) -0.03551(27) -0.17871(8) 0.0585 Uani
H1V H 0.3403 0.2105 -0.0405 0.1080 Uiso
C2V C 0.2745(4) 0.0749(5) -0.09942(12) 0.0726 Uani
H2V H 0.2875 0.0398 -0.0886 0.0870 Uiso
C3V C 0.2365(3) 0.0565(4) -0.13163(11) 0.0586 Uani
C5V C 0.2105(3) -0.0237(4) -0.14815(11) 0.0561 Uani
N2V N 0.3986(3) 0.1942(7) 0.07988(10) 0.0453 Uani
C6V C 0.4095(5) 0.1340(7) 0.06577(14) 0.0868 Uani
H4V H 0.4239 0.1047 0.0804 0.1050 Uiso
C7V C 0.3987(6) 0.1176(7) 0.02980(16) 0.0981 Uani
H5V H 0.4060 0.0773 0.0204 0.1180 Uiso
C8V C 0.3772(5) 0.1615(7) 0.00793(11) 0.0694 Uani
C9V C 0.3663(5) 0.2217(7) 0.02204(17) 0.0938 Uani
H6V H 0.3519 0.2511 0.0074 0.1120 Uiso
C10V C 0.3770(5) 0.2381(7) 0.05801(18) 0.0800 Uiso
H7V H 0.3698 0.2784 0.0674 0.0970 Uiso
O3V O 0.3821(9) 0.0697(13) -0.0411(4) 0.1470 Uiso
C11V C 0.3566(8) 0.1290(11) -0.0305(4) 0.0910 Uiso
Zn1C Zn 0.18985(2) 0.37969(4) -0.13305(2) 0.0399 Uani
Zn1E Zn 0.18984(4) -0.18985(2) -0.13305(2) 0.0399 Uani
Zn1M Zn 0.14348(2) -0.14349(4) -0.20028(2) 0.0399 Uani
Zn1N Zn 0.14349(4) 0.28698(4) -0.20028(2) 0.0399 Uani
O1C O 0.2917(2) 0.2190(3) 0.12970(8) 0.0749 Uani
O1S O 0.2917(2) 0.0727(4) 0.12970(8) 0.0749 Uani
O2G O 0.44916(18) 0.29782(27) 0.15462(8) 0.0585 Uani
O2GA O 0.44916(18) 0.1513(2) 0.15462(8) 0.0585 Uani
loop_
_atom_site_aniso_label
_atom_site_aniso_U_11
_atom_site_aniso_U_22
_atom_site_aniso_U_33
_atom_site_aniso_U_23
_atom_site_aniso_U_13
_atom_site_aniso_U_12
Zn1 0.0256(4) 0.0628(5) 0.0188(5) -0.00065(11) -0.0013(2) 0.0128(2)
O1 0.145(3) 0.0574(19) 0.0387(16) 0.0019(14) 0.0041(18) 0.063(2)
O2 0.089(2) 0.0501(16) 0.0417(16) -0.0013(12) -0.0070(15) 0.0388(16)
N1 0.152(6) 0.092(3) 0.045(3) -0.0120(18) -0.024(4) 0.076(3)
C1 0.128(6) 0.077(3) 0.033(3) -0.0069(17) -0.014(3) 0.064(3)
C2 0.129(4) 0.065(3) 0.039(2) -0.007(2) -0.008(3) 0.060(3)
C3 0.097(3) 0.054(2) 0.033(2) 0.0040(17) 0.005(2) 0.044(2)
C4 0.082(4) 0.055(2) 0.034(3) 0.0026(14) 0.005(3) 0.041(2)
C5 0.087(3) 0.047(2) 0.039(2) 0.0103(18) 0.010(2) 0.037(2)
N2 0.040(2) 0.062(6) 0.028(2) -0.004(6) 0.0018(18) 0.021(5)
C6 0.087(7) 0.100(7) 0.035(4) 0.020(5) -0.008(4) 0.018(5)
C7 0.121(8) 0.094(7) 0.049(5) 0.014(5) -0.005(6) 0.031(6)
C8 0.097(7) 0.077(6) 0.043(5) 0.000(4) 0.008(5) 0.050(5)
C9 0.122(9) 0.091(8) 0.056(6) -0.017(6) -0.014(6) 0.044(6)
O1V 0.145 0.0764 0.0387 0.0022 0.0041 0.082
O2V 0.089 0.0615 0.0417 -0.0057 -0.007 0.0502
C2V 0.129 0.074 0.039 -0.001 -0.008 0.069
C3V 0.097 0.063 0.033 0.001 0.005 0.053
C5V 0.087 0.06 0.039 -0.0003 0.01 0.05
N2V 0.04 0.06 0.028 0.0058 0.0018 0.019
C6V 0.087 0.151 0.035 -0.028 -0.008 0.069
C7V 0.121 0.153 0.049 -0.019 -0.005 0.09
C8V 0.097 0.074 0.043 0.008 0.008 0.047
C9V 0.122 0.125 0.056 0.003 -0.014 0.078
Zn1C 0.0628 0.0256 0.0188 0.0013 0.00065 0.0128
Zn1E 0.0628 0.0628 0.0188 -0.00065 0.00065 0.05
Zn1M 0.0628 0.0628 0.0188 -0.00065 0.00065 0.05
Zn1N 0.0628 0.0256 0.0188 0.0013 0.00065 0.0128
O1C 0.0574 0.145 0.0387 -0.0041 -0.0019 0.063
O1S 0.0574 0.0764 0.0387 0.0022 -0.0019 -0.0056
O2G 0.0501 0.0615 0.0417 -0.0057 0.0013 0.0113
O2GA 0.0501 0.089 0.0417 0.007 0.0013 0.0388
loop_
_geom_bond_atom_site_label_1
_geom_bond_atom_site_label_2
_geom_bond_site_symmetry_1
_geom_bond_site_symmetry_2
Zn1 N2 1_555 1_555
O1 C5 1_555 1_555
O2 C5 1_555 1_555
N1 H1 1_555 1_555
C1 N1 1_555 1_555
C2 C1 1_555 1_555
H2 C2 1_555 1_555
C3 C2 1_555 1_555
C4 C3 1_555 1_555
H3 C4 1_555 1_555
C5 C3 1_555 1_555
N2 C6 1_555 1_555
C6 H4 1_555 1_555
C7 C6 1_555 1_555
H5 C7 1_555 1_555
C8 C7 1_555 1_555
C9 H6 1_555 1_555
H6 C7V 1_555 1_555
C10 N2 1_555 1_555
H7 C10 1_555 1_555
O3 C11 1_555 1_555
C11 N1 1_555 1_555
O1V C5V 1_555 1_555
O2V C5V 1_555 1_555
H1V N1 1_555 1_555
C2V C1 1_555 1_555
H2V C2V 1_555 1_555
C3V C4 1_555 1_555
C5V C3V 1_555 1_555
N2V Zn1 1_555 1_555
C6V N2 1_555 1_555
H4V C6V 1_555 1_555
C7V C9 1_555 1_555
H5V C7V 1_555 1_555
C8V C8 1_555 1_555
C9V C7 1_555 1_555
H6V C7 1_555 1_555
C10V N2 1_555 1_555
H7V C6 1_555 1_555
O3V C11V 1_555 1_555
C11V N1 1_555 1_555
Zn1C O1 1_555 1_555
Zn1E O1V 1_555 1_555
Zn1M O2V 1_555 1_555
Zn1N O2 1_555 1_555
O1C Zn1 1_555 1_555
O1S Zn1 1_555 1_555
O2G Zn1 1_555 1_555
O2GA Zn1 1_555 1_555
C6 N2V 1_555 1_555
C6 C10V 1_555 1_555
C7 C10V 1_555 1_555
C8 C11 1_555 1_555
C8 H6V 1_555 1_555
C9 C10 1_555 1_555
C9 C9V 1_555 1_555
H6 C8V 1_555 1_555
C10 N2V 1_555 1_555
C10 C6V 1_555 1_555
C10 C7V 1_555 1_555
H7 C6V 1_555 1_555
C2V C3V 1_555 1_555
N2V C6V 1_555 1_555
N2V C10V 1_555 1_555
C6V C7V 1_555 1_555
C7V C8V 1_555 1_555
C8V C11V 1_555 1_555
C9V H6V 1_555 1_555
C9V C10V 1_555 1_555
C10V H7V 1_555 1_555

#END
