
#######################################################################
#
#                 Cambridge Crystallographic Data Centre
#                                CCDC 
#
#######################################################################
#
# If this CIF has been generated from an entry in the Cambridge 
# Structural Database, then it will include bibliographic, chemical, 
# crystal, experimental, refinement or atomic coordinate data resulting 
# from the CCDC's data processing and validation procedures.
#
#######################################################################

data_HACRAH
_chemical_formula_moiety         'C20 H11 Co6 N3 O10'
_symmetry_cell_setting           rhombohedral
_symmetry_space_group_name_H-M   'R -3 m'
_symmetry_Int_Tables_number      166
_space_group_name_Hall           '-R 3 2"'
loop_
_symmetry_equiv_pos_site_id
_symmetry_equiv_pos_as_xyz
1 x,y,z
2 -y,x-y,z
3 -x+y,-x,z
4 y,x,-z
5 x-y,-y,-z
6 -x,-x+y,-z
7 2/3+x,1/3+y,1/3+z
8 2/3-y,1/3+x-y,1/3+z
9 2/3-x+y,1/3-x,1/3+z
10 2/3+y,1/3+x,1/3-z
11 2/3+x-y,1/3-y,1/3-z
12 2/3-x,1/3-x+y,1/3-z
13 1/3+x,2/3+y,2/3+z
14 1/3-y,2/3+x-y,2/3+z
15 1/3-x+y,2/3-x,2/3+z
16 1/3+y,2/3+x,2/3-z
17 1/3+x-y,2/3-y,2/3-z
18 1/3-x,2/3-x+y,2/3-z
19 -x,-y,-z
20 y,-x+y,-z
21 x-y,x,-z
22 -y,-x,z
23 -x+y,y,z
24 x,x-y,z
25 1/3-x,2/3-y,2/3-z
26 1/3+y,2/3-x+y,2/3-z
27 1/3+x-y,2/3+x,2/3-z
28 1/3-y,2/3-x,2/3+z
29 1/3-x+y,2/3+y,2/3+z
30 1/3+x,2/3+x-y,2/3+z
31 2/3-x,1/3-y,1/3-z
32 2/3+y,1/3-x+y,1/3-z
33 2/3+x-y,1/3+x,1/3-z
34 2/3-y,1/3-x,1/3+z
35 2/3-x+y,1/3+y,1/3+z
36 2/3+x,1/3+x-y,1/3+z
_cell_length_a                   19.4724(6)
_cell_length_b                   19.4724(6)
_cell_length_c                   37.7540(11)
_cell_angle_alpha                90
_cell_angle_beta                 90
_cell_angle_gamma                120
_cell_volume                     12397.5
loop_
_atom_site_label
_atom_site_type_symbol
_atom_site_fract_x
_atom_site_fract_y
_atom_site_fract_z
_atom_site_U_iso_or_equiv
_atom_site_thermal_displace_type
Co1 Co 1.18884(3) 0.37767(7) -0.13509(3) 0.0320 Uani
N1 N 1.1902(8) 0.3932(5) -0.08103(19) 0.0441 Uani
C1 C 1.1266(8) 0.3984(7) -0.0675(2) 0.0768 Uani
H1 H 1.0951 0.4100 -0.0829 0.0920 Uiso
C2 C 1.1092(8) 0.3868(9) -0.0316(2) 0.0727 Uani
H2 H 1.0658 0.3905 -0.0223 0.0870 Uiso
C3 C 1.1555(7) 0.3700(8) -0.00911(18) 0.0731 Uani
C4 C 1.2191(6) 0.3647(8) -0.0226(3) 0.0840 Uiso
H3 H 1.2506 0.3531 -0.0073 0.1010 Uiso
C5 C 1.2365(6) 0.3763(7) -0.0586(3) 0.0680 Uiso
H4 H 1.2799 0.3727 -0.0678 0.0820 Uiso
C6 C 1.1250(11) 0.3466(14) 0.0294(4) 0.0754 Uani
O1 O 1.0785(14) 0.3896(14) 0.0425(6) 0.1470 Uiso
C7 C 1.1465(4) 0.2929(8) 0.0834(3) 0.0649 Uani
C8 C 1.1993(5) 0.2740(6) 0.10018(17) 0.0614 Uani
H5 H 1.2485 0.2876 0.0894 0.0740 Uiso
C9 C 1.1792(4) 0.2357(5) 0.13247(17) 0.0510 Uani
C10 C 1.2335(4) 0.2110(4) 0.14893(17) 0.0481 Uani
C11 C 1.1091(3) 0.2181(6) 0.1493(2) 0.0468 Uani
H6 H 1.0971 0.1942 0.1720 0.0560 Uiso
N2 N 1.1648(4) 0.3295(9) 0.0491(2) 0.0830 Uani
O2 O 1.2179(3) 0.1837(3) 0.17995(12) 0.0528 Uani
O3 O 1.2898(3) 0.2178(4) 0.13008(12) 0.0577 Uani
N1V N 1.2030(9) 0.3932(5) -0.08103(19) 0.0441 Uani
C1V C 1.2718(11) 0.3984(7) -0.0675(2) 0.0768 Uani
H1V H 1.3149 0.4100 -0.0829 0.0920 Uiso
C2V C 1.2776(12) 0.3868(9) -0.0316(2) 0.0727 Uani
H2V H 1.3247 0.3905 -0.0223 0.0870 Uiso
C3V C 1.2145(11) 0.3700(8) -0.00911(18) 0.0731 Uani
C4V C 1.1456(10) 0.3647(8) -0.0226(3) 0.0840 Uiso
H3V H 1.1025 0.3531 -0.0073 0.1010 Uiso
C5V C 1.1398(9) 0.3763(7) -0.0586(3) 0.0680 Uiso
H4V H 1.0928 0.3727 -0.0678 0.0820 Uiso
C6V C 1.2216(18) 0.3466(14) 0.0294(4) 0.0754 Uani
O1V O 1.3111(20) 0.3896(14) 0.0425(6) 0.1470 Uiso
C8V C 1.0747(8) 0.2740(6) 0.10018(17) 0.0614 Uani
H5V H 1.0391 0.2876 0.0894 0.0740 Uiso
C9V C 1.0565(6) 0.2357(5) 0.13247(17) 0.0510 Uani
C10V C 0.9775(6) 0.2110(4) 0.14893(17) 0.0481 Uani
O2V O 0.9658(4) 0.1837(3) 0.17995(12) 0.0528 Uani
O3V O 0.9280(5) 0.2178(4) 0.13008(12) 0.0577 Uani
Co1C Co 1.37767(7) 0.18884(3) 0.13509(3) 0.0320 Uani
Co1E Co 0.81116(3) 0.18883(8) 0.13509(3) 0.0320 Uani
Co1G Co 1.28900(7) 0.14450(8) 0.19824(3) 0.0320 Uani
Co1H Co 0.85550(8) 0.14449(3) 0.19824(3) 0.0320 Uani
Co1P Co 1.14450(8) 0.28900(7) -0.19824(3) 0.0320 Uani
O2N O 1.2991(4) 0.4488(3) -0.15338(12) 0.0528 Uani
O2AA O 1.1496(3) 0.4488(3) -0.15338(12) 0.0528 Uani
O3C O 1.2178(4) 0.2898(3) -0.13008(12) 0.0577 Uani
O3T O 1.0720(5) 0.2898(3) -0.13008(12) 0.0577 Uani
loop_
_atom_site_aniso_label
_atom_site_aniso_U_11
_atom_site_aniso_U_22
_atom_site_aniso_U_33
_atom_site_aniso_U_23
_atom_site_aniso_U_13
_atom_site_aniso_U_12
Co1 0.0463(7) 0.0259(7) 0.0170(8) 0.0001(4) 0.0001(2) 0.0129(4)
N1 0.068(11) 0.034(4) 0.023(4) -0.005(3) -0.005(10) 0.020(9)
C1 0.143(17) 0.077(11) 0.025(7) 0.016(7) 0.032(9) 0.066(12)
C2 0.119(14) 0.134(16) 0.014(6) 0.009(7) 0.008(7) 0.100(13)
C3 0.060(10) 0.132(18) 0.046(9) -0.001(10) 0.000(8) 0.062(11)
C6 0.068(10) 0.156(18) 0.029(7) 0.027(9) 0.013(7) 0.076(11)
C7 0.061(4) 0.128(11) 0.028(5) 0.019(6) 0.009(3) 0.064(5)
C8 0.056(4) 0.115(7) 0.027(3) 0.009(4) 0.007(3) 0.053(4)
C9 0.047(4) 0.088(5) 0.029(3) 0.004(3) 0.002(3) 0.042(4)
C10 0.044(4) 0.070(4) 0.035(4) -0.002(3) -0.009(3) 0.032(3)
C11 0.047(3) 0.075(6) 0.027(4) 0.000(4) 0.000(2) 0.037(3)
N2 0.079(4) 0.167(12) 0.033(5) 0.033(6) 0.017(3) 0.084(6)
O2 0.052(3) 0.078(3) 0.037(2) 0.006(2) -0.004(2) 0.039(3)
O3 0.049(3) 0.103(4) 0.037(2) -0.010(2) -0.009(2) 0.050(3)
N1V 0.062 0.034 0.023 -0.005 -1.07856e-18 0.014
C1V 0.088 0.077 0.025 0.016 -0.016 0.011
C2V 0.053 0.134 0.014 0.009 0.001 0.034
C3V 0.068 0.132 0.046 -0.001 -0.001 0.07
C6V 0.072 0.156 0.029 0.027 0.014 0.08
C8V 0.065 0.115 0.027 0.009 0.002 0.062
C9V 0.051 0.088 0.029 0.004 0.002 0.046
C10V 0.05 0.07 0.035 -0.002 0.007 0.038
O2V 0.052 0.078 0.037 0.006 0.01 0.039
O3V 0.052 0.103 0.037 -0.01 -0.001 0.053
Co1C 0.0259 0.0463 0.017 -0.0001 -0.0001 0.0129
Co1E 0.0463 0.0464 0.017 -1.68525e-20 0.0001 0.0334
Co1G 0.0259 0.0464 0.017 -1.68525e-20 -0.0001 0.013
Co1H 0.0464 0.0463 0.017 -0.0001 1.68525e-20 0.0334
Co1P 0.0464 0.0259 0.017 0.0001 1.68525e-20 0.013
O2N 0.052 0.052 0.037 0.004 0.01 0.013
O2AA 0.078 0.052 0.037 0.004 -0.006 0.039
O3C 0.103 0.049 0.037 0.009 0.01 0.05
O3T 0.052 0.049 0.037 0.009 -0.001 -0.001
loop_
_geom_bond_atom_site_label_1
_geom_bond_atom_site_label_2
_geom_bond_site_symmetry_1
_geom_bond_site_symmetry_2
Co1 N1 1_555 1_555
N1 C1 1_555 1_555
C1 H1 1_555 1_555
C2 C1 1_555 1_555
H2 C2 1_555 1_555
C3 C2 1_555 1_555
C4 C3 1_555 1_555
H3 C4 1_555 1_555
C5 N1 1_555 1_555
H4 C5 1_555 1_555
C6 C3 1_555 1_555
O1 C6 1_555 1_555
C7 C8 1_555 1_555
C8 H5 1_555 1_555
C9 C8 1_555 1_555
C10 C9 1_555 1_555
C11 C9 1_555 1_555
H6 C11 1_555 1_555
N2 C6 1_555 1_555
O2 C10 1_555 1_555
O3 C10 1_555 1_555
N1V Co1 1_555 1_555
C1V N1 1_555 1_555
H1V C1V 1_555 1_555
C2V C4 1_555 1_555
H2V C2V 1_555 1_555
C3V C3 1_555 1_555
C4V C2 1_555 1_555
H3V C2 1_555 1_555
C5V N1 1_555 1_555
H4V C1 1_555 1_555
C6V N2 1_555 1_555
O1V C6V 1_555 1_555
C8V C7 1_555 1_555
H5V C8V 1_555 1_555
C9V C11 1_555 1_555
C10V C9V 1_555 1_555
O2V C10V 1_555 1_555
O3V C10V 1_555 1_555
Co1C O3 1_555 1_555
Co1E O3V 1_555 1_555
Co1G O2 1_555 1_555
Co1H O2V 1_555 1_555
Co1P Co1 1_555 1_555
O2N Co1 1_555 1_555
O2AA Co1 1_555 1_555
O3C Co1 1_555 1_555
O3T Co1 1_555 1_555
C1 N1V 1_555 1_555
C1 C5V 1_555 1_555
C2 C5V 1_555 1_555
C3 H3V 1_555 1_555
C4 C5 1_555 1_555
C4 C4V 1_555 1_555
H3 C2V 1_555 1_555
H3 C3V 1_555 1_555
C5 N1V 1_555 1_555
C5 C1V 1_555 1_555
C5 C2V 1_555 1_555
H4 C1V 1_555 1_555
C7 N2 1_555 1_555
N1V C1V 1_555 1_555
N1V C5V 1_555 1_555
C1V C2V 1_555 1_555
C2V C3V 1_555 1_555
C3V C4V 1_555 1_555
C3V C6V 1_555 1_555
C4V H3V 1_555 1_555
C4V C5V 1_555 1_555
C5V H4V 1_555 1_555
C8V C9V 1_555 1_555
Co1C Co1G 1_555 1_555
Co1E Co1H 1_555 1_555

#END
