
#######################################################################
#
#                 Cambridge Crystallographic Data Centre
#                                CCDC 
#
#######################################################################
#
# If this CIF has been generated from an entry in the Cambridge 
# Structural Database, then it will include bibliographic, chemical, 
# crystal, experimental, refinement or atomic coordinate data resulting 
# from the CCDC's data processing and validation procedures.
#
#######################################################################

data_HUZKUJ
_chemical_formula_moiety         '(C4 H11 In4 O26 P5 2-)n'
_symmetry_cell_setting           triclinic
_symmetry_space_group_name_H-M   'P -1'
_symmetry_Int_Tables_number      2
_space_group_name_Hall           '-P 1'
loop_
_symmetry_equiv_pos_site_id
_symmetry_equiv_pos_as_xyz
1 x,y,z
2 -x,-y,-z
_cell_length_a                   8.0674(3)
_cell_length_b                   10.0060(4)
_cell_length_c                   20.4432(9)
_cell_angle_alpha                100.972(2)
_cell_angle_beta                 95.065(1)
_cell_angle_gamma                105.053(1)
_cell_volume                     1547.87
loop_
_atom_site_label
_atom_site_type_symbol
_atom_site_fract_x
_atom_site_fract_y
_atom_site_fract_z
O2 O 0.520(2) 0.842(2) 0.4380(10)
H1 H -1.038(15) 0.403(13) 0.771(7)
H2 H -1.216(5) 0.306(12) 0.775(6)
In1 In -0.88453(7) 0.46939(5) 0.62531(3)
In2 In -0.09599(7) 0.90585(5) 0.66927(3)
In3 In -1.34891(7) 0.68307(6) 0.82015(3)
In4 In -0.97769(7) 0.36439(6) 0.88908(3)
P1 P -1.2464(3) 0.5419(2) 0.95330(10)
P2 P -0.9899(3) 0.6796(2) 0.75263(10)
P3 P -1.0232(3) 0.6793(2) 0.53957(10)
P4 P -0.5142(3) 0.7403(2) 0.67197(11)
P5 P -0.1700(6) 1.0212(3) 0.83257(13)
H3 H -0.2868 1.0336 0.8297
O3 O -0.6377(8) 0.6063(7) 0.6301(3)
O4 O -1.0518(8) 0.5735(6) 0.5845(3)
O5 O -0.9206(9) 0.5550(6) 0.7248(3)
O6 O -1.1453(8) 0.6239(6) 0.4739(3)
O7 O -1.1132(8) 0.2887(6) 0.6189(3)
O8 O -0.7821(7) 0.3112(6) 0.6648(3)
O9 O -0.3446(8) 0.7649(7) 0.6426(3)
O10 O -0.1427(12) 1.0081(7) 0.7634(3)
O11 O -1.0361(9) 0.8241(6) 0.5745(3)
O12 O -0.9424(8) 0.8004(6) 0.7167(3)
O13 O -1.1918(7) 0.0652(6) 0.6296(3)
O14 O -0.8632(7) 0.0900(6) 0.6797(3)
O15 O -0.1978(10) 0.8910(6) 0.8610(3)
O16 O -1.1832(9) 0.6254(7) 0.7548(3)
O17 O -1.2195(9) 0.6326(7) 0.9017(3)
O18 O -0.4937(9) 0.7430(8) 0.7458(3)
O19 O -1.5264(8) 0.4671(6) 0.8001(3)
O20 O -1.5656(8) 0.7051(6) 0.8764(3)
O21 O -1.1707(9) 0.4184(7) 0.9391(3)
O22 O -0.0742(10) 1.1475(6) 0.8832(3)
O23 O -1.1840(9) 0.6319(7) 1.0240(3)
O24 O -1.1102(10) 0.3496(8) 0.7898(3)
O25 O -1.8230(7) 0.5831(6) 0.8947(3)
O26 O -1.7636(9) 0.3403(6) 0.8316(3)
C1 C -1.6845(10) 0.5935(8) 0.8701(4)
C2 C -1.6555(10) 0.4552(8) 0.8300(4)
C3 C -1.0817(11) 0.1823(8) 0.6349(4)
C4 C -0.8927(10) 0.1953(8) 0.6624(4)
H4 H -1.439(12) 0.481(9) 0.942(4)
H5 H -0.922(14) 0.728(11) 0.813(5)
H6 H -0.858(12) 0.696(10) 0.522(5)
H7 H -0.588(12) 0.845(10) 0.661(5)
In1A In -1.11547(7) 0.53061(5) 0.37469(3)
In2_2 In -1.09599(7) 0.90585(5) 0.66927(3)
In2_3 In -1.09599(7) -0.09415(5) 0.66927(3)
In3_2 In -0.34891(7) 0.68307(6) 0.82015(3)
In4_2 In 0.02231(7) 1.36439(6) 0.88908(3)
In4A In -1.02231(7) 0.63561(6) 1.11092(3)
In4_3 In -1.97769(7) 0.36439(6) 0.88908(3)
O6A O -0.8547(8) 0.3761(6) 0.5261(3)
O11_2 O -0.0361(9) 0.8241(6) 0.5745(3)
O12_2 O 0.0576(8) 0.8004(6) 0.7167(3)
O13_2 O -0.1918(7) 1.0652(6) 0.6296(3)
O14_2 O 0.1368(7) 1.0900(6) 0.6797(3)
O15_2 O -1.1978(10) 0.8910(6) 0.8610(3)
O18_2 O -1.4937(9) 0.7430(8) 0.7458(3)
O22_2 O -1.0742(10) 0.1475(6) 0.8832(3)
O23A O -0.8160(9) 0.3681(7) 0.9760(3)
O25_2 O -0.8230(7) 0.5831(6) 0.8947(3)
O26_2 O -0.7636(9) 0.3403(6) 0.8316(3)
O1 O -0.4304(13) 0.2219(13) 0.7316(6)
loop_
_geom_bond_atom_site_label_1
_geom_bond_atom_site_label_2
_geom_bond_site_symmetry_1
_geom_bond_site_symmetry_2
H1 O24 1_555 1_555
H2 O24 1_555 1_555
In1 O3 1_555 1_555
In2 O9 1_555 1_555
In3 O16 1_555 1_555
In4 O21 1_555 1_555
P1 O17 1_555 1_555
P2 O5 1_555 1_555
P3 O4 1_555 1_555
P4 O3 1_555 1_555
P5 H3 1_555 1_555
O4 In1 1_555 1_555
O5 In1 1_555 1_555
O6 P3 1_555 1_555
O7 In1 1_555 1_555
O8 In1 1_555 1_555
O9 P4 1_555 1_555
O10 In2 1_555 1_555
O11 P3 1_555 1_555
O12 P2 1_555 1_555
O13 C3 1_555 1_555
O14 C4 1_555 1_555
O15 P5 1_555 1_555
O16 P2 1_555 1_555
O17 In3 1_555 1_555
O18 P4 1_555 1_555
O19 In3 1_555 1_555
O20 In3 1_555 1_555
O21 P1 1_555 1_555
O22 P5 1_555 1_555
O23 P1 1_555 1_555
O24 In4 1_555 1_555
O25 C1 1_555 1_555
O26 C2 1_555 1_555
C1 O20 1_555 1_555
C2 O19 1_555 1_555
C3 O7 1_555 1_555
C4 O8 1_555 1_555
H4 P1 1_555 1_555
H5 P2 1_555 1_555
H6 P3 1_555 1_555
H7 P4 1_555 1_555
In1A O6 1_555 1_555
In2_2 O11 1_555 1_555
In2_3 O13 1_555 1_555
In3_2 O15 1_555 1_555
In4_2 O22 1_555 1_555
In4A O23 1_555 1_555
In4_3 O25 1_555 1_555
O6A In1 1_555 1_555
O11_2 In2 1_555 1_555
O12_2 In2 1_555 1_555
O13_2 In2 1_555 1_555
O14_2 In2 1_555 1_555
O15_2 In3 1_555 1_555
O18_2 In3 1_555 1_555
O22_2 In4 1_555 1_555
O23A In4 1_555 1_555
O25_2 In4 1_555 1_555
O26_2 In4 1_555 1_555
P5 O10 1_555 1_555
O12 In2_2 1_555 1_555
O14 In2_3 1_555 1_555
O18 In3_2 1_555 1_555
O26 In4_3 1_555 1_555
C1 C2 1_555 1_555
C3 C4 1_555 1_555

#END
