
#######################################################################
#
#                 Cambridge Crystallographic Data Centre
#                                CCDC 
#
#######################################################################
#
# If this CIF has been generated from an entry in the Cambridge 
# Structural Database, then it will include bibliographic, chemical, 
# crystal, experimental, refinement or atomic coordinate data resulting 
# from the CCDC's data processing and validation procedures.
#
#######################################################################

data_EJOQUR
_chemical_formula_moiety         '(C64 H44 Cu10 O48)n'
_symmetry_cell_setting           tetragonal
_symmetry_space_group_name_H-M   'P 42/m n m'
_symmetry_Int_Tables_number      136
_space_group_name_Hall           '-P 4n 2n'
loop_
_symmetry_equiv_pos_site_id
_symmetry_equiv_pos_as_xyz
1 x,y,z
2 1/2-y,1/2+x,1/2+z
3 1/2+y,1/2-x,1/2+z
4 1/2+x,1/2-y,1/2-z
5 1/2-x,1/2+y,1/2-z
6 -x,-y,z
7 y,x,-z
8 -y,-x,-z
9 -x,-y,-z
10 1/2+y,1/2-x,1/2-z
11 1/2-y,1/2+x,1/2-z
12 1/2-x,1/2+y,1/2+z
13 1/2+x,1/2-y,1/2+z
14 x,y,-z
15 -y,-x,z
16 y,x,z
_cell_length_a                   18.5924(3)
_cell_length_b                   18.5924(3)
_cell_length_c                   42.2293(7)
_cell_angle_alpha                90
_cell_angle_beta                 90
_cell_angle_gamma                90
_cell_volume                     14597.7
loop_
_atom_site_label
_atom_site_type_symbol
_atom_site_fract_x
_atom_site_fract_y
_atom_site_fract_z
Cu1 Cu 0.05655(5) 0.05655(5) 0.39513(4)
Cu2 Cu -0.09367(10) 0.09367(10) 0.43252(6)
Cu3 Cu 0.15412(7) 0.15412(7) 0.5000
Cu4 Cu 0.25497(7) 0.25497(7) 0.5000
Cu5 Cu 0.25859(4) 0.25859(4) 0.28004(3)
Cu6 Cu 0.19182(4) 0.19182(4) 0.23290(2)
C1 C 0.0052(4) 0.3224(4) 0.39385(14)
C2 C 0.0392(4) 0.2795(4) 0.41608(14)
C3 C 0.0933(4) 0.3130(4) 0.43468(15)
C4 C 0.1102(6) 0.3827(5) 0.4309(2)
H1 H 0.1467 0.4027 0.4431
C5 C 0.0728(6) 0.4268(5) 0.4084(3)
H2 H 0.0826 0.4755 0.4061
C6 C 0.0214(5) 0.3925(5) 0.39026(19)
H3 H -0.0030 0.4189 0.3750
C7 C -0.0371(4) 0.2872(4) 0.34365(14)
C8 C -0.0970(3) 0.2937(4) 0.32463(15)
H4 H -0.1413 0.3056 0.3334
C9 C -0.0911(3) 0.2826(4) 0.29296(15)
C10 C -0.0259(3) 0.2648(3) 0.27967(14)
H5 H -0.0229 0.2544 0.2582
C11 C 0.0358(3) 0.2623(4) 0.29860(14)
C12 C 0.0300(3) 0.2733(4) 0.33104(14)
H6 H 0.0704 0.2713 0.3440
C13 C 0.0206(3) 0.2011(4) 0.41618(15)
C14 C 0.1345(4) 0.2693(4) 0.45869(13)
C15 C 0.1074(3) 0.2456(3) 0.28386(13)
C16 C -0.1577(3) 0.2847(4) 0.27301(15)
O1 O 0.0593(2) 0.1614(2) 0.39978(11)
O2 O -0.0343(3) 0.1824(3) 0.43239(11)
O3 O 0.1082(3) 0.2134(3) 0.46826(12)
O4 O 0.1938(3) 0.2986(3) 0.46791(12)
O5 O 0.1624(2) 0.2667(2) 0.29798(10)
O6 O 0.1058(2) 0.2121(2) 0.25795(10)
O7 O -0.1549(2) 0.2577(3) 0.24570(11)
O8 O -0.2120(2) 0.3149(3) 0.28546(11)
O9 O -0.0494(3) 0.2909(3) 0.37597(11)
O10 O -0.0496(3) 0.0496(3) 0.39543(17)
O11 O 0.0690(4) 0.0690(4) 0.3408(3)
O12 O -0.1319(6) 0.1319(6) 0.4725(3)
O13 O 0.0716(5) 0.0716(5) 0.5000
O14 O 0.3344(4) 0.3344(4) 0.5000
O15 O 0.3124(3) 0.3124(3) 0.31795(19)
O16 O 0.1417(3) 0.1417(3) 0.19302(15)
Cu5F Cu 0.25859(4) 0.25859(4) 0.71996(3)
Cu6F Cu 0.19182(4) 0.19182(4) 0.76710(2)
C1F C 0.3224(4) 0.0052(4) 0.60615(14)
C2F C 0.2795(4) 0.0392(4) 0.58392(14)
C3F C 0.3130(4) 0.0933(4) 0.56532(15)
C4F C 0.3827(5) 0.1102(6) 0.5691(2)
H1F H 0.4027 0.1467 0.5569
C5F C 0.4268(5) 0.0728(6) 0.5916(3)
H2F H 0.4755 0.0826 0.5939
C6F C 0.3925(5) 0.0214(5) 0.60974(19)
H3F H 0.4189 -0.0030 0.6250
C7F C 0.2872(4) -0.0371(4) 0.65635(14)
C8F C 0.2937(4) -0.0970(3) 0.67537(15)
H4F H 0.3056 -0.1413 0.6666
C9F C 0.2826(4) -0.0911(3) 0.70704(15)
C10F C 0.2648(3) -0.0259(3) 0.72033(14)
H5F H 0.2544 -0.0229 0.7418
C11F C 0.2623(4) 0.0358(3) 0.70140(14)
C12F C 0.2733(4) 0.0300(3) 0.66896(14)
H6F H 0.2713 0.0704 0.6560
C13F C 0.2011(4) 0.0206(3) 0.58382(15)
C14F C 0.2693(4) 0.1345(4) 0.54131(13)
C15F C 0.2456(3) 0.1074(3) 0.71614(13)
C16F C 0.2847(4) -0.1577(3) 0.72699(15)
O1F O 0.1614(2) 0.0593(2) 0.60022(11)
O2F O 0.1824(3) -0.0343(3) 0.56761(11)
O3F O 0.2134(3) 0.1082(3) 0.53174(12)
O4F O 0.2986(3) 0.1938(3) 0.53209(12)
O5F O 0.2667(2) 0.1624(2) 0.70202(10)
O6F O 0.2121(2) 0.1058(2) 0.74205(10)
O7F O 0.2577(3) -0.1549(2) 0.75430(11)
O8F O 0.3149(3) -0.2120(2) 0.71454(11)
O9F O 0.2909(3) -0.0494(3) 0.62403(11)
O15F O 0.3124(3) 0.3124(3) 0.68205(19)
O16F O 0.1417(3) 0.1417(3) 0.80698(15)
C1M C 0.0052(4) 0.3224(4) 0.60615(14)
C2M C 0.0392(4) 0.2795(4) 0.58392(14)
C3M C 0.0933(4) 0.3130(4) 0.56532(15)
C4M C 0.1102(6) 0.3827(5) 0.5691(2)
H1M H 0.1467 0.4027 0.5569
C5M C 0.0728(6) 0.4268(5) 0.5916(3)
H2M H 0.0826 0.4755 0.5939
C6M C 0.0214(5) 0.3925(5) 0.60974(19)
H3M H -0.0030 0.4189 0.6250
C7M C -0.0371(4) 0.2872(4) 0.65635(14)
C8M C -0.0970(3) 0.2937(4) 0.67537(15)
H4M H -0.1413 0.3056 0.6666
C9M C -0.0911(3) 0.2826(4) 0.70704(15)
C10M C -0.0259(3) 0.2648(3) 0.72033(14)
H5M H -0.0229 0.2544 0.7418
C11M C 0.0358(3) 0.2623(4) 0.70140(14)
C12M C 0.0300(3) 0.2733(4) 0.66896(14)
H6M H 0.0704 0.2713 0.6560
C13M C 0.0206(3) 0.2011(4) 0.58382(15)
C14M C 0.1345(4) 0.2693(4) 0.54131(13)
C15M C 0.1074(3) 0.2456(3) 0.71614(13)
C16M C -0.1577(3) 0.2847(4) 0.72699(15)
O1M O 0.0593(2) 0.1614(2) 0.60022(11)
O2M O -0.0343(3) 0.1824(3) 0.56761(11)
O3M O 0.1082(3) 0.2134(3) 0.53174(12)
O4M O 0.1938(3) 0.2986(3) 0.53209(12)
O5M O 0.1624(2) 0.2667(2) 0.70202(10)
O6M O 0.1058(2) 0.2121(2) 0.74205(10)
O7M O -0.1549(2) 0.2577(3) 0.75430(11)
O8M O -0.2120(2) 0.3149(3) 0.71454(11)
O9M O -0.0494(3) 0.2909(3) 0.62403(11)
C1O C 0.3224(4) 0.0052(4) 0.39385(14)
C2O C 0.2795(4) 0.0392(4) 0.41608(14)
C3O C 0.3130(4) 0.0933(4) 0.43468(15)
C4O C 0.3827(5) 0.1102(6) 0.4309(2)
H1O H 0.4027 0.1467 0.4431
C5O C 0.4268(5) 0.0728(6) 0.4084(3)
H2O H 0.4755 0.0826 0.4061
C6O C 0.3925(5) 0.0214(5) 0.39026(19)
H3O H 0.4189 -0.0030 0.3750
C7O C 0.2872(4) -0.0371(4) 0.34365(14)
C8O C 0.2937(4) -0.0970(3) 0.32463(15)
H4O H 0.3056 -0.1413 0.3334
C9O C 0.2826(4) -0.0911(3) 0.29296(15)
C10O C 0.2648(3) -0.0259(3) 0.27967(14)
H5O H 0.2544 -0.0229 0.2582
C11O C 0.2623(4) 0.0358(3) 0.29860(14)
C12O C 0.2733(4) 0.0300(3) 0.33104(14)
H6O H 0.2713 0.0704 0.3440
C13O C 0.2011(4) 0.0206(3) 0.41618(15)
C14O C 0.2693(4) 0.1345(4) 0.45869(13)
C15O C 0.2456(3) 0.1074(3) 0.28386(13)
C16O C 0.2847(4) -0.1577(3) 0.27301(15)
O1O O 0.1614(2) 0.0593(2) 0.39978(11)
O2O O 0.1824(3) -0.0343(3) 0.43239(11)
O3O O 0.2134(3) 0.1082(3) 0.46826(12)
O4O O 0.2986(3) 0.1938(3) 0.46791(12)
O5O O 0.2667(2) 0.1624(2) 0.29798(10)
O6O O 0.2121(2) 0.1058(2) 0.25795(10)
O7O O 0.2577(3) -0.1549(2) 0.24570(11)
O8O O 0.3149(3) -0.2120(2) 0.28546(11)
O9O O 0.2909(3) -0.0494(3) 0.37597(11)
Cu1E Cu -0.05655(5) -0.05655(5) 0.39513(4)
Cu2E Cu 0.09367(10) -0.09367(10) 0.43252(6)
O10E O 0.0496(3) -0.0496(3) 0.39543(17)
O11E O -0.0690(4) -0.0690(4) 0.3408(3)
O12E O 0.1319(6) -0.1319(6) 0.4725(3)
Cu1F Cu 0.05655(5) 0.05655(5) 0.60487(4)
Cu2F Cu 0.09367(10) -0.09367(10) 0.56748(6)
Cu2G Cu -0.09367(10) 0.09367(10) 0.56748(6)
Cu5A Cu 0.24141(4) -0.24141(4) 0.78004(3)
Cu5B Cu -0.24141(4) 0.24141(4) 0.78004(3)
Cu5C Cu -0.24141(4) 0.24141(4) 0.21996(3)
Cu5D Cu 0.24141(4) -0.24141(4) 0.21996(3)
Cu6A Cu 0.30818(4) -0.30818(4) 0.73290(2)
Cu6B Cu -0.30818(4) 0.30818(4) 0.73290(2)
Cu6C Cu -0.30818(4) 0.30818(4) 0.26710(2)
Cu6D Cu 0.30818(4) -0.30818(4) 0.26710(2)
O1E O -0.0593(2) -0.1614(2) 0.39978(11)
O1N O -0.1614(2) -0.0593(2) 0.39978(11)
O2E O 0.0343(3) -0.1824(3) 0.43239(11)
O2N O -0.1824(3) 0.0343(3) 0.43239(11)
O7A O 0.2423(3) 0.3451(2) 0.74570(11)
O7C O 0.3451(2) 0.2423(3) 0.25430(11)
O7J O 0.2423(3) 0.3451(2) 0.25430(11)
O7L O 0.3451(2) 0.2423(3) 0.74570(11)
O8A O 0.1851(3) 0.2880(2) 0.78546(11)
O8C O 0.2880(2) 0.1851(3) 0.21454(11)
O8J O 0.1851(3) 0.2880(2) 0.21454(11)
O8L O 0.2880(2) 0.1851(3) 0.78546(11)
loop_
_geom_bond_atom_site_label_1
_geom_bond_atom_site_label_2
_geom_bond_site_symmetry_1
_geom_bond_site_symmetry_2
Cu1 O1 1_555 1_555
Cu2 O2 1_555 1_555
Cu3 Cu4 1_555 1_555
Cu4 O4 1_555 1_555
Cu5 Cu6 1_555 1_555
Cu6 O6 1_555 1_555
C1 C2 1_555 1_555
C2 C3 1_555 1_555
C3 C4 1_555 1_555
C4 H1 1_555 1_555
C5 C4 1_555 1_555
H2 C5 1_555 1_555
C6 C1 1_555 1_555
H3 C6 1_555 1_555
C7 C8 1_555 1_555
C8 H4 1_555 1_555
C9 C8 1_555 1_555
C10 C9 1_555 1_555
H5 C10 1_555 1_555
C11 C10 1_555 1_555
C12 C7 1_555 1_555
H6 C12 1_555 1_555
C13 C2 1_555 1_555
C14 C3 1_555 1_555
C15 C11 1_555 1_555
C16 C9 1_555 1_555
O1 C13 1_555 1_555
O2 C13 1_555 1_555
O3 Cu3 1_555 1_555
O4 C14 1_555 1_555
O5 Cu5 1_555 1_555
O6 C15 1_555 1_555
O7 C16 1_555 1_555
O8 C16 1_555 1_555
O9 C1 1_555 1_555
O10 Cu1 1_555 1_555
O11 Cu1 1_555 1_555
O12 Cu2 1_555 1_555
O13 Cu3 1_555 1_555
O14 Cu4 1_555 1_555
O15 Cu5 1_555 1_555
O16 Cu6 1_555 1_555
Cu5F Cu6F 1_555 1_555
Cu6F O6F 1_555 1_555
C1F C2F 1_555 1_555
C2F C3F 1_555 1_555
C3F C4F 1_555 1_555
C4F H1F 1_555 1_555
C5F C4F 1_555 1_555
H2F C5F 1_555 1_555
C6F C1F 1_555 1_555
H3F C6F 1_555 1_555
C7F C8F 1_555 1_555
C8F H4F 1_555 1_555
C9F C8F 1_555 1_555
C10F C9F 1_555 1_555
H5F C10F 1_555 1_555
C11F C10F 1_555 1_555
C12F C7F 1_555 1_555
H6F C12F 1_555 1_555
C13F C2F 1_555 1_555
C14F C3F 1_555 1_555
C15F C11F 1_555 1_555
C16F C9F 1_555 1_555
O1F C13F 1_555 1_555
O2F C13F 1_555 1_555
O3F Cu3 1_555 1_555
O4F Cu4 1_555 1_555
O5F Cu5F 1_555 1_555
O6F C15F 1_555 1_555
O7F C16F 1_555 1_555
O8F C16F 1_555 1_555
O9F C1F 1_555 1_555
O15F Cu5F 1_555 1_555
O16F Cu6F 1_555 1_555
C1M C2M 1_555 1_555
C2M C3M 1_555 1_555
C3M C4M 1_555 1_555
C4M H1M 1_555 1_555
C5M C4M 1_555 1_555
H2M C5M 1_555 1_555
C6M C1M 1_555 1_555
H3M C6M 1_555 1_555
C7M C8M 1_555 1_555
C8M H4M 1_555 1_555
C9M C8M 1_555 1_555
C10M C9M 1_555 1_555
H5M C10M 1_555 1_555
C11M C10M 1_555 1_555
C12M C7M 1_555 1_555
H6M C12M 1_555 1_555
C13M C2M 1_555 1_555
C14M C3M 1_555 1_555
C15M C11M 1_555 1_555
C16M C9M 1_555 1_555
O1M C13M 1_555 1_555
O2M C13M 1_555 1_555
O3M Cu3 1_555 1_555
O4M Cu4 1_555 1_555
O5M Cu5F 1_555 1_555
O6M Cu6F 1_555 1_555
O7M C16M 1_555 1_555
O8M C16M 1_555 1_555
O9M C1M 1_555 1_555
C1O C2O 1_555 1_555
C2O C3O 1_555 1_555
C3O C4O 1_555 1_555
C4O H1O 1_555 1_555
C5O C4O 1_555 1_555
H2O C5O 1_555 1_555
C6O C1O 1_555 1_555
H3O C6O 1_555 1_555
C7O C8O 1_555 1_555
C8O H4O 1_555 1_555
C9O C8O 1_555 1_555
C10O C9O 1_555 1_555
H5O C10O 1_555 1_555
C11O C10O 1_555 1_555
C12O C7O 1_555 1_555
H6O C12O 1_555 1_555
C13O C2O 1_555 1_555
C14O C3O 1_555 1_555
C15O C11O 1_555 1_555
C16O C9O 1_555 1_555
O1O Cu1 1_555 1_555
O2O C13O 1_555 1_555
O3O Cu3 1_555 1_555
O4O Cu4 1_555 1_555
O5O Cu5 1_555 1_555
O6O Cu6 1_555 1_555
O7O C16O 1_555 1_555
O8O C16O 1_555 1_555
O9O C1O 1_555 1_555
Cu1E O10 1_555 1_555
Cu2E O2O 1_555 1_555
O10E Cu1 1_555 1_555
O11E Cu1E 1_555 1_555
O12E Cu2E 1_555 1_555
Cu1F O1F 1_555 1_555
Cu2F O2F 1_555 1_555
Cu2G O2M 1_555 1_555
Cu5A O7F 1_555 1_555
Cu5B O7M 1_555 1_555
Cu5C O7 1_555 1_555
Cu5D O7O 1_555 1_555
Cu6A O8F 1_555 1_555
Cu6B O8M 1_555 1_555
Cu6C O8 1_555 1_555
Cu6D O8O 1_555 1_555
O1E Cu1E 1_555 1_555
O1N Cu1E 1_555 1_555
O2E Cu2E 1_555 1_555
O2N Cu2 1_555 1_555
O7A Cu5F 1_555 1_555
O7C Cu5 1_555 1_555
O7J Cu5 1_555 1_555
O7L Cu5F 1_555 1_555
O8A Cu6F 1_555 1_555
O8C Cu6 1_555 1_555
O8J Cu6 1_555 1_555
O8L Cu6F 1_555 1_555
Cu2 O10 1_555 1_555
C5 C6 1_555 1_555
C7 O9 1_555 1_555
C11 C12 1_555 1_555
C14 O3 1_555 1_555
C15 O5 1_555 1_555
C5F C6F 1_555 1_555
C7F O9F 1_555 1_555
C11F C12F 1_555 1_555
C14F O3F 1_555 1_555
C14F O4F 1_555 1_555
C15F O5F 1_555 1_555
C5M C6M 1_555 1_555
C7M O9M 1_555 1_555
C11M C12M 1_555 1_555
C14M O3M 1_555 1_555
C14M O4M 1_555 1_555
C15M O5M 1_555 1_555
C15M O6M 1_555 1_555
O1M Cu1F 1_555 1_555
C5O C6O 1_555 1_555
C7O O9O 1_555 1_555
C11O C12O 1_555 1_555
C13O O1O 1_555 1_555
C14O O3O 1_555 1_555
C14O O4O 1_555 1_555
C15O O5O 1_555 1_555
C15O O6O 1_555 1_555
Cu1E O10E 1_555 1_555
Cu2E O10E 1_555 1_555
Cu5A Cu6A 1_555 1_555
Cu5B Cu6B 1_555 1_555
Cu5C Cu6C 1_555 1_555
Cu5D Cu6D 1_555 1_555

#END
