
#######################################################################
#
#                 Cambridge Crystallographic Data Centre
#                                CCDC 
#
#######################################################################
#
# If this CIF has been generated from an entry in the Cambridge 
# Structural Database, then it will include bibliographic, chemical, 
# crystal, experimental, refinement or atomic coordinate data resulting 
# from the CCDC's data processing and validation procedures.
#
#######################################################################

data_EJOQOL
_chemical_formula_moiety         'C64 H24 Cu19 K2 O56'
_symmetry_cell_setting           monoclinic
_symmetry_space_group_name_H-M   'C 2/c'
_symmetry_Int_Tables_number      15
_space_group_name_Hall           '-C 2yc'
loop_
_symmetry_equiv_pos_site_id
_symmetry_equiv_pos_as_xyz
1 x,y,z
2 -x,y,1/2-z
3 1/2+x,1/2+y,z
4 1/2-x,1/2+y,1/2-z
5 -x,-y,-z
6 x,-y,1/2+z
7 1/2-x,1/2-y,-z
8 1/2+x,1/2-y,1/2+z
_cell_length_a                   27.534(3)
_cell_length_b                   21.630(2)
_cell_length_c                   19.2968(17)
_cell_angle_alpha                90
_cell_angle_beta                 120.527(2)
_cell_angle_gamma                90
_cell_volume                     9899.45
loop_
_atom_site_label
_atom_site_type_symbol
_atom_site_fract_x
_atom_site_fract_y
_atom_site_fract_z
Cu1 Cu 0.12088(3) 0.17335(3) 1.13109(3)
Cu2 Cu 0.21369(2) 0.11178(3) 1.16528(3)
Cu3 Cu -0.0000 0.41027(7) 0.7500
Cu4 Cu 0.18976(4) 0.18203(3) 0.41258(4)
K1 K 0.08638(15) 0.24318(14) 0.31557(19)
C1 C 0.10523(19) -0.0066(2) 1.2518(2)
C2 C 0.15084(19) 0.0301(2) 1.2979(3)
C3 C 0.1841(2) 0.0172(2) 1.3800(3)
C4 C 0.1694(2) -0.0331(2) 1.4128(3)
H1 H 0.1919 -0.0431 1.4669
C5 C 0.1220(2) -0.0669(2) 1.3644(3)
H2 H 0.1119 -0.0992 1.3863
C6 C 0.0884(2) -0.0535(2) 1.2825(3)
H3 H 0.0556 -0.0757 1.2499
C7 C 0.02127(19) 0.0108(2) 1.1268(2)
C8 C -0.0019(2) 0.0621(2) 1.1423(3)
H4 H 0.0208 0.0886 1.1845
C9 C -0.0597(2) 0.0738(2) 1.0940(3)
C10 C -0.0928(2) 0.0330(2) 1.0316(2)
H5 H -0.1314 0.0398 0.9996
C11 C -0.0683(2) -0.01784(19) 1.0172(2)
C12 C -0.01175(19) -0.0288(2) 1.0649(2)
H6 H 0.0043 -0.0631 1.0553
C13 C 0.16488(19) 0.0786(2) 1.2554(2)
C14 C 0.2333(2) 0.0563(3) 1.4351(3)
C15 C -0.10516(19) -0.0624(2) 0.9520(2)
C16 C -0.0860(3) 0.1282(2) 1.1088(3)
C17 C 0.2304(3) 0.1748(3) 0.7776(3)
C18 C 0.2467(2) 0.2080(2) 0.7313(3)
C19 C 0.2341(3) 0.1837(3) 0.6559(3)
C20 C 0.2050(3) 0.1283(3) 0.6310(3)
H7 H 0.1962 0.1121 0.5812
C21 C 0.1888(3) 0.0960(3) 0.6781(3)
H8 H 0.1692 0.0590 0.6598
C22 C 0.2017(3) 0.1192(3) 0.7523(3)
H9 H 0.1914 0.0979 0.7846
C23 C 0.2080(3) 0.2157(3) 0.8711(3)
C24 C 0.1678(3) 0.2590(3) 0.8224(3)
H10 H 0.1662 0.2726 0.7755
C25 C 0.1312(3) 0.2814(3) 0.8429(3)
C26 C 0.1323(3) 0.2603(3) 0.9130(3)
H11 H 0.1067 0.2756 0.9267
C27 C 0.1710(3) 0.2174(3) 0.9599(3)
C28 C 0.2096(2) 0.1947(3) 0.9398(3)
H12 H 0.2363 0.1655 0.9724
C29 C 0.2803(3) 0.2647(2) 0.7670(3)
C30 C 0.2520(3) 0.2157(3) 0.6050(3)
C31 C 0.1724(3) 0.1916(2) 1.0329(3)
C32 C 0.0910(4) 0.3296(4) 0.7928(4)
O1 O 0.13122(14) 0.12351(14) 1.22513(18)
O2 O 0.20637(13) 0.06743(14) 1.24732(16)
O3 O 0.23407(16) 0.11130(18) 1.41462(19)
O4 O 0.2704(2) 0.0337(3) 1.4985(3)
O5 O -0.08022(14) -0.10604(14) 0.94036(18)
O6 O -0.15707(13) -0.05363(15) 0.91495(17)
O7 O -0.13856(17) 0.12749(16) 1.0758(2)
O8 O -0.0557(2) 0.1694(3) 1.1496(4)
O9 O 0.07854(14) 0.00081(15) 1.16801(18)
O10 O 0.25334(16) 0.31297(18) 0.76509(18)
O11 O 0.33287(16) 0.25982(15) 0.80109(19)
O12 O 0.2689(2) 0.27054(18) 0.6240(2)
O13 O 0.2514(2) 0.1864(2) 0.5488(2)
O14 O 0.21158(17) 0.15571(18) 1.07659(19)
O15 O 0.13196(18) 0.20676(17) 1.04355(19)
O16 O 0.0547(2) 0.3485(3) 0.8118(3)
O17 O 0.0936(4) 0.3524(3) 0.7363(4)
O18 O 0.24905(17) 0.19544(18) 0.85561(19)
O19 O 0.1440(3) 0.2524(3) 0.4033(6)
O20 O 0.0448(2) 0.2213(2) 1.1059(4)
O21 O 0.29408(18) 0.0714(2) 1.2011(3)
O22 O 0.0564(4) 0.4729(5) 0.8094(9)
Cu1A Cu -0.12088(3) 0.17335(3) 0.36891(3)
Cu2A Cu -0.21369(2) 0.11178(3) 0.33472(3)
Cu4A Cu -0.18976(4) 0.18203(3) 1.08742(4)
K1A K -0.08638(15) 0.24318(14) 1.18443(19)
C1A C -0.10523(19) -0.0066(2) 0.2482(2)
C2A C -0.15084(19) 0.0301(2) 0.2021(3)
C3A C -0.1841(2) 0.0172(2) 0.1200(3)
C4A C -0.1694(2) -0.0331(2) 0.0872(3)
H1A H -0.1919 -0.0431 0.0331
C5A C -0.1220(2) -0.0669(2) 0.1356(3)
H2A H -0.1119 -0.0992 0.1137
C6A C -0.0884(2) -0.0535(2) 0.2175(3)
H3A H -0.0556 -0.0757 0.2501
C7A C -0.02127(19) 0.0108(2) 0.3732(2)
C8A C 0.0019(2) 0.0621(2) 0.3577(3)
H4A H -0.0208 0.0886 0.3155
C9A C 0.0597(2) 0.0738(2) 0.4060(3)
C10A C 0.0928(2) 0.0330(2) 0.4684(2)
H5A H 0.1314 0.0398 0.5004
C11A C 0.0683(2) -0.01784(19) 0.4828(2)
C12A C 0.01175(19) -0.0288(2) 0.4351(2)
H6A H -0.0043 -0.0631 0.4447
C13A C -0.16488(19) 0.0786(2) 0.2446(2)
C14A C -0.2333(2) 0.0563(3) 0.0649(3)
C15A C 0.10516(19) -0.0624(2) 0.5480(2)
C16A C 0.0860(3) 0.1282(2) 0.3912(3)
C17A C -0.2304(3) 0.1748(3) 0.7224(3)
C18A C -0.2467(2) 0.2080(2) 0.7687(3)
C19A C -0.2341(3) 0.1837(3) 0.8441(3)
C20A C -0.2050(3) 0.1283(3) 0.8690(3)
H7A H -0.1962 0.1121 0.9188
C21A C -0.1888(3) 0.0960(3) 0.8219(3)
H8A H -0.1692 0.0590 0.8402
C22A C -0.2017(3) 0.1192(3) 0.7477(3)
H9A H -0.1914 0.0979 0.7154
C23A C -0.2080(3) 0.2157(3) 0.6289(3)
C24A C -0.1678(3) 0.2590(3) 0.6776(3)
H10A H -0.1662 0.2726 0.7245
C25A C -0.1312(3) 0.2814(3) 0.6571(3)
C26A C -0.1323(3) 0.2603(3) 0.5870(3)
H11A H -0.1067 0.2756 0.5733
C27A C -0.1710(3) 0.2174(3) 0.5401(3)
C28A C -0.2096(2) 0.1947(3) 0.5602(3)
H12A H -0.2363 0.1655 0.5276
C29A C -0.2803(3) 0.2647(2) 0.7330(3)
C30A C -0.2520(3) 0.2157(3) 0.8950(3)
C31A C -0.1724(3) 0.1916(2) 0.4671(3)
C32A C -0.0910(4) 0.3296(4) 0.7072(4)
O1A O -0.13122(14) 0.12351(14) 0.27487(18)
O2A O -0.20637(13) 0.06743(14) 0.25268(16)
O3A O -0.23407(16) 0.11130(18) 0.08538(19)
O4A O -0.2704(2) 0.0337(3) 0.0015(3)
O5A O 0.08022(14) -0.10604(14) 0.55964(18)
O6A O 0.15707(13) -0.05363(15) 0.58505(17)
O7A O 0.13856(17) 0.12749(16) 0.4242(2)
O8A O 0.0557(2) 0.1694(3) 0.3504(4)
O9A O -0.07854(14) 0.00081(15) 0.33199(18)
O10A O -0.25334(16) 0.31297(18) 0.73491(18)
O11A O -0.33287(16) 0.25982(15) 0.69891(19)
O12A O -0.2689(2) 0.27054(18) 0.8760(2)
O13A O -0.2514(2) 0.1864(2) 0.9512(2)
O14A O -0.21158(17) 0.15571(18) 0.42341(19)
O15A O -0.13196(18) 0.20676(17) 0.45645(19)
O16A O -0.0547(2) 0.3485(3) 0.6882(3)
O17A O -0.0936(4) 0.3524(3) 0.7637(4)
O18A O -0.24905(17) 0.19544(18) 0.64439(19)
O19A O -0.1440(3) 0.2524(3) 1.0967(6)
O20A O -0.0448(2) 0.2213(2) 0.3941(4)
O21A O -0.29408(18) 0.0714(2) 0.2989(3)
O22A O -0.0564(4) 0.4729(5) 0.6906(9)
Cu1D Cu -0.12088(3) -0.17335(3) 0.86891(3)
Cu1E Cu 0.12088(3) -0.17335(3) 0.63109(3)
Cu1F Cu 0.37912(3) 0.32665(3) 0.86891(3)
Cu1G Cu -0.37912(3) 0.32665(3) 0.63109(3)
Cu2D Cu -0.21369(2) -0.11178(3) 0.83472(3)
Cu2E Cu 0.21369(2) -0.11178(3) 0.66528(3)
Cu2F Cu 0.28631(2) 0.38822(3) 0.83472(3)
Cu2G Cu -0.28631(2) 0.38822(3) 0.66528(3)
Cu4_2 Cu 0.18976(4) 0.18203(3) 1.41258(4)
Cu4A_2 Cu -0.18976(4) 0.18203(3) 0.08742(4)
Cu4F Cu 0.31024(4) 0.31797(3) 0.58742(4)
Cu4G Cu -0.31024(4) 0.31797(3) 0.91258(4)
O3_2 O 0.23407(16) 0.11130(18) 0.41462(19)
O3A_2 O -0.23407(16) 0.11130(18) 1.08538(19)
O5D O 0.08022(14) 0.10604(14) 1.05964(18)
O5E O -0.08022(14) 0.10604(14) 0.44036(18)
O6D O 0.15707(13) 0.05363(15) 1.08505(17)
O6E O -0.15707(13) 0.05363(15) 0.41495(17)
O10F O 0.24666(16) 0.18703(18) 1.23491(18)
O10G O -0.24666(16) 0.18703(18) 0.26509(18)
O11F O 0.16713(16) 0.24018(15) 1.19891(19)
O11G O -0.16713(16) 0.24018(15) 0.30109(19)
O12F O 0.2311(2) 0.22946(18) 0.3760(2)
O12G O -0.2311(2) 0.22946(18) 1.1240(2)
loop_
_geom_bond_atom_site_label_1
_geom_bond_atom_site_label_2
_geom_bond_site_symmetry_1
_geom_bond_site_symmetry_2
Cu1 O1 1_555 1_555
Cu2 O2 1_555 1_555
Cu3 O16 1_555 1_555
Cu4 O13 1_555 1_555
K1 O19 1_555 1_555
C1 C2 1_555 1_555
C2 C3 1_555 1_555
C3 C4 1_555 1_555
C4 H1 1_555 1_555
C5 C4 1_555 1_555
H2 C5 1_555 1_555
C6 C1 1_555 1_555
H3 C6 1_555 1_555
C7 C8 1_555 1_555
C8 H4 1_555 1_555
C9 C8 1_555 1_555
C10 C9 1_555 1_555
H5 C10 1_555 1_555
C11 C10 1_555 1_555
C12 C7 1_555 1_555
H6 C12 1_555 1_555
C13 C2 1_555 1_555
C14 C3 1_555 1_555
C15 C11 1_555 1_555
C16 C9 1_555 1_555
C17 C18 1_555 1_555
C18 C19 1_555 1_555
C19 C20 1_555 1_555
C20 H7 1_555 1_555
C21 C20 1_555 1_555
H8 C21 1_555 1_555
C22 C17 1_555 1_555
H9 C22 1_555 1_555
C23 C24 1_555 1_555
C24 H10 1_555 1_555
C25 C24 1_555 1_555
C26 C25 1_555 1_555
H11 C26 1_555 1_555
C27 C26 1_555 1_555
C28 C23 1_555 1_555
H12 C28 1_555 1_555
C29 C18 1_555 1_555
C30 C19 1_555 1_555
C31 C27 1_555 1_555
C32 C25 1_555 1_555
O1 C13 1_555 1_555
O2 C13 1_555 1_555
O3 C14 1_555 1_555
O4 C14 1_555 1_555
O5 C15 1_555 1_555
O6 C15 1_555 1_555
O7 C16 1_555 1_555
O8 C16 1_555 1_555
O9 C1 1_555 1_555
O10 C29 1_555 1_555
O11 C29 1_555 1_555
O12 C30 1_555 1_555
O13 C30 1_555 1_555
O14 Cu2 1_555 1_555
O15 Cu1 1_555 1_555
O16 C32 1_555 1_555
O17 C32 1_555 1_555
O18 C17 1_555 1_555
O19 Cu4 1_555 1_555
O20 Cu1 1_555 1_555
O21 Cu2 1_555 1_555
O22 Cu3 1_555 1_555
Cu1A O1A 1_555 1_555
Cu2A O2A 1_555 1_555
Cu4A O7 1_555 1_555
K1A O7 1_555 1_555
C1A C2A 1_555 1_555
C2A C3A 1_555 1_555
C3A C4A 1_555 1_555
C4A H1A 1_555 1_555
C5A C4A 1_555 1_555
H2A C5A 1_555 1_555
C6A C1A 1_555 1_555
H3A C6A 1_555 1_555
C7A C8A 1_555 1_555
C8A H4A 1_555 1_555
C9A C8A 1_555 1_555
C10A C9A 1_555 1_555
H5A C10A 1_555 1_555
C11A C10A 1_555 1_555
C12A C7A 1_555 1_555
H6A C12A 1_555 1_555
C13A C2A 1_555 1_555
C14A C3A 1_555 1_555
C15A C11A 1_555 1_555
C16A C9A 1_555 1_555
C17A C18A 1_555 1_555
C18A C19A 1_555 1_555
C19A C20A 1_555 1_555
C20A H7A 1_555 1_555
C21A C20A 1_555 1_555
H8A C21A 1_555 1_555
C22A C17A 1_555 1_555
H9A C22A 1_555 1_555
C23A C24A 1_555 1_555
C24A H10A 1_555 1_555
C25A C24A 1_555 1_555
C26A C25A 1_555 1_555
H11A C26A 1_555 1_555
C27A C26A 1_555 1_555
C28A C23A 1_555 1_555
H12A C28A 1_555 1_555
C29A C18A 1_555 1_555
C30A C19A 1_555 1_555
C31A C27A 1_555 1_555
C32A C25A 1_555 1_555
O1A C13A 1_555 1_555
O2A C13A 1_555 1_555
O3A C14A 1_555 1_555
O4A C14A 1_555 1_555
O5A C15A 1_555 1_555
O6A C15A 1_555 1_555
O7A Cu4 1_555 1_555
O8A K1 1_555 1_555
O9A C1A 1_555 1_555
O10A C29A 1_555 1_555
O11A C29A 1_555 1_555
O12A C30A 1_555 1_555
O13A Cu4A 1_555 1_555
O14A Cu2A 1_555 1_555
O15A Cu1A 1_555 1_555
O16A Cu3 1_555 1_555
O17A C32A 1_555 1_555
O18A C17A 1_555 1_555
O19A Cu4A 1_555 1_555
O20A Cu1A 1_555 1_555
O21A Cu2A 1_555 1_555
O22A Cu3 1_555 1_555
Cu1D O5 1_555 1_555
Cu1E O5A 1_555 1_555
Cu1F O11 1_555 1_555
Cu1G O11A 1_555 1_555
Cu2D O6 1_555 1_555
Cu2E O6A 1_555 1_555
Cu2F O10 1_555 1_555
Cu2G O10A 1_555 1_555
Cu4_2 O3 1_555 1_555
Cu4A_2 O3A 1_555 1_555
Cu4F O12 1_555 1_555
Cu4G O12A 1_555 1_555
O3_2 Cu4 1_555 1_555
O3A_2 Cu4A 1_555 1_555
O5D Cu1 1_555 1_555
O5E Cu1A 1_555 1_555
O6D Cu2 1_555 1_555
O6E Cu2A 1_555 1_555
O10F Cu2 1_555 1_555
O10G Cu2A 1_555 1_555
O11F Cu1 1_555 1_555
O11G Cu1A 1_555 1_555
O12F Cu4 1_555 1_555
O12G Cu4A 1_555 1_555
K1 O7A 1_555 1_555
C5 C6 1_555 1_555
C7 O9 1_555 1_555
C11 C12 1_555 1_555
C21 C22 1_555 1_555
C23 O18 1_555 1_555
C27 C28 1_555 1_555
C31 O14 1_555 1_555
C31 O15 1_555 1_555
O8 K1A 1_555 1_555
K1A O19A 1_555 1_555
C5A C6A 1_555 1_555
C7A O9A 1_555 1_555
C11A C12A 1_555 1_555
C16A O7A 1_555 1_555
C16A O8A 1_555 1_555
C21A C22A 1_555 1_555
C23A O18A 1_555 1_555
C27A C28A 1_555 1_555
C30A O13A 1_555 1_555
C31A O14A 1_555 1_555
C31A O15A 1_555 1_555
C32A O16A 1_555 1_555

#END
