
#######################################################################
#
#                 Cambridge Crystallographic Data Centre
#                                CCDC 
#
#######################################################################
#
# If this CIF has been generated from an entry in the Cambridge 
# Structural Database, then it will include bibliographic, chemical, 
# crystal, experimental, refinement or atomic coordinate data resulting 
# from the CCDC's data processing and validation procedures.
#
#######################################################################

data_EJORAY
_chemical_formula_moiety         '(C32 H22 Cu5 O24)n'
_symmetry_cell_setting           triclinic
_symmetry_space_group_name_H-M   'P -1'
_symmetry_Int_Tables_number      2
_space_group_name_Hall           '-P 1'
loop_
_symmetry_equiv_pos_site_id
_symmetry_equiv_pos_as_xyz
1 x,y,z
2 -x,-y,-z
_cell_length_a                   10.788(3)
_cell_length_b                   11.252(3)
_cell_length_c                   11.840(3)
_cell_angle_alpha                100.854(3)
_cell_angle_beta                 110.289(3)
_cell_angle_gamma                99.777(3)
_cell_volume                     1280.08
loop_
_atom_site_label
_atom_site_type_symbol
_atom_site_fract_x
_atom_site_fract_y
_atom_site_fract_z
Cu1 Cu -0.35707(3) 0.50999(3) 0.01128(3)
Cu2 Cu -0.43914(3) 0.38500(3) 0.21096(3)
Cu3 Cu 0.5000 0.0000 1.0000
C1 C 0.1248(2) 0.0737(2) 0.4317(2)
C2 C 0.1822(3) 0.1882(2) 0.5183(2)
H1 H 0.1650 0.2603 0.4955
C3 C 0.2668(3) 0.1959(2) 0.6409(2)
C4 C 0.2942(3) 0.0864(2) 0.6740(2)
C5 C 0.2344(3) -0.0274(3) 0.5842(2)
H2 H 0.2523 -0.1000 0.6057
C6 C 0.1480(3) -0.0360(2) 0.4621(2)
C7 C 0.0388(2) 0.1636(2) 0.2616(2)
C8 C 0.1508(2) 0.2127(2) 0.2384(2)
H3 H 0.2287 0.1830 0.2627
C9 C 0.1450(2) 0.3071(2) 0.1780(2)
C10 C 0.0291(2) 0.3519(2) 0.1426(2)
H4 H 0.0247 0.4135 0.0999
C11 C -0.0812(2) 0.3039(2) 0.1713(2)
C12 C -0.0768(2) 0.2079(2) 0.2310(2)
H5 H -0.1500 0.1746 0.2497
C13 C 0.3157(3) 0.3244(3) 0.7327(2)
C14 C 0.3898(3) 0.0913(3) 0.8032(2)
C15 C -0.2033(2) 0.3579(2) 0.1422(2)
C16 C 0.2661(2) 0.3602(2) 0.1508(2)
O1 O 0.3975(2) 0.4070(2) 0.7183(2)
O2 O 0.26263(18) 0.34026(17) 0.81155(16)
O3 O 0.4712(2) 0.1905(2) 0.87551(18)
O4 O 0.3844(2) -0.01364(19) 0.83034(18)
O5 O -0.2702(2) 0.3464(2) 0.20894(19)
O6 O -0.22589(18) 0.41116(18) 0.05582(17)
O7 O 0.24508(19) 0.4220(2) 0.07079(19)
O8 O 0.37760(18) 0.3392(2) 0.21032(19)
O9 O 0.03590(17) 0.05865(16) 0.31010(15)
O10 O -0.50041(16) 0.39988(16) 0.04148(15)
O11 O -0.3768(2) 0.3582(3) 0.3790(2)
O12 O 0.3686(4) 0.0613(4) 1.0587(3)
Cu1A Cu -0.64293(3) 0.49001(3) -0.01128(3)
Cu2A Cu -0.56086(3) 0.61500(3) -0.21096(3)
C1A C -1.1248(2) 0.9263(2) -0.4317(2)
C2A C -1.1822(3) 0.8118(2) -0.5183(2)
H1A H -1.1650 0.7397 -0.4955
C3A C -1.2668(3) 0.8041(2) -0.6409(2)
C4A C -1.2942(3) 0.9136(2) -0.6740(2)
C5A C -1.2344(3) 1.0274(3) -0.5842(2)
H2A H -1.2523 1.1000 -0.6057
C6A C -1.1480(3) 1.0360(2) -0.4621(2)
C7A C -1.0388(2) 0.8364(2) -0.2616(2)
C8A C -1.1508(2) 0.7873(2) -0.2384(2)
H3A H -1.2287 0.8170 -0.2627
C9A C -1.1450(2) 0.6929(2) -0.1780(2)
C10A C -1.0291(2) 0.6481(2) -0.1426(2)
H4A H -1.0247 0.5865 -0.0999
C11A C -0.9188(2) 0.6961(2) -0.1713(2)
C12A C -0.9232(2) 0.7921(2) -0.2310(2)
H5A H -0.8500 0.8254 -0.2497
C13A C -1.3157(3) 0.6756(3) -0.7327(2)
C14A C -1.3898(3) 0.9087(3) -0.8032(2)
C15A C -0.7967(2) 0.6421(2) -0.1422(2)
C16A C -1.2661(2) 0.6398(2) -0.1508(2)
O1A O -1.3975(2) 0.5930(2) -0.7183(2)
O2A O -1.26263(18) 0.65974(17) -0.81155(16)
O3A O -1.4712(2) 0.8095(2) -0.87551(18)
O4A O -1.3844(2) 1.01364(19) -0.83034(18)
O5A O -0.7298(2) 0.6536(2) -0.20894(19)
O6A O -0.77411(18) 0.58884(18) -0.05582(17)
O7A O -1.24508(19) 0.5780(2) -0.07079(19)
O8A O -1.37760(18) 0.6608(2) -0.21032(19)
O9A O -1.03590(17) 0.94135(16) -0.31010(15)
O10A O -0.49959(16) 0.60012(16) -0.04148(15)
O11A O -0.6232(2) 0.6418(3) -0.3790(2)
O12A O 0.6314(4) -0.0613(4) 0.9413(3)
Cu1_2 Cu -1.35707(3) 0.50999(3) -0.98872(3)
Cu1_3 Cu -1.35707(3) 0.50999(3) 0.01128(3)
Cu1A_2 Cu 0.35707(3) 0.49001(3) -0.01128(3)
Cu1A_3 Cu 0.35707(3) 0.49001(3) 0.98872(3)
Cu2_2 Cu -1.43914(3) 0.38500(3) -0.78904(3)
Cu2_3 Cu 0.56086(3) 0.38500(3) 0.21096(3)
Cu2A_2 Cu -1.56086(3) 0.61500(3) -0.21096(3)
Cu2A_3 Cu 0.43914(3) 0.61500(3) 0.78904(3)
Cu3_2 Cu -1.5000 1.0000 -1.0000
O1_2 O -0.6025(2) 0.4070(2) -0.2817(2)
O1A_2 O -0.3975(2) 0.5930(2) 0.2817(2)
O2_2 O -0.73737(18) 0.34026(17) -0.18845(16)
O2A_2 O -0.26263(18) 0.65974(17) 0.18845(16)
O4A_2 O 0.6156(2) 0.01364(19) 1.16966(18)
O7_2 O -0.75492(19) 0.4220(2) 0.07079(19)
O7A_2 O -0.24508(19) 0.5780(2) -0.07079(19)
O8_2 O -0.62240(18) 0.3392(2) 0.21032(19)
O8A_2 O -0.37760(18) 0.6608(2) -0.21032(19)
loop_
_geom_bond_atom_site_label_1
_geom_bond_atom_site_label_2
_geom_bond_site_symmetry_1
_geom_bond_site_symmetry_2
Cu1 O6 1_555 1_555
Cu2 O5 1_555 1_555
Cu3 O4 1_555 1_555
C1 C2 1_555 1_555
C2 H1 1_555 1_555
C3 C2 1_555 1_555
C4 C3 1_555 1_555
C5 C4 1_555 1_555
H2 C5 1_555 1_555
C6 C1 1_555 1_555
C7 C8 1_555 1_555
C8 H3 1_555 1_555
C9 C8 1_555 1_555
C10 C9 1_555 1_555
H4 C10 1_555 1_555
C11 C10 1_555 1_555
C12 C7 1_555 1_555
H5 C12 1_555 1_555
C13 C3 1_555 1_555
C14 C4 1_555 1_555
C15 C11 1_555 1_555
C16 C9 1_555 1_555
O1 C13 1_555 1_555
O2 C13 1_555 1_555
O3 C14 1_555 1_555
O4 C14 1_555 1_555
O5 C15 1_555 1_555
O6 C15 1_555 1_555
O7 C16 1_555 1_555
O8 C16 1_555 1_555
O9 C1 1_555 1_555
O10 Cu1 1_555 1_555
O11 Cu2 1_555 1_555
O12 Cu3 1_555 1_555
Cu1A O10 1_555 1_555
Cu2A O5A 1_555 1_555
C1A C2A 1_555 1_555
C2A H1A 1_555 1_555
C3A C2A 1_555 1_555
C4A C3A 1_555 1_555
C5A C4A 1_555 1_555
H2A C5A 1_555 1_555
C6A C1A 1_555 1_555
C7A C8A 1_555 1_555
C8A H3A 1_555 1_555
C9A C8A 1_555 1_555
C10A C9A 1_555 1_555
H4A C10A 1_555 1_555
C11A C10A 1_555 1_555
C12A C7A 1_555 1_555
H5A C12A 1_555 1_555
C13A C3A 1_555 1_555
C14A C4A 1_555 1_555
C15A C11A 1_555 1_555
C16A C9A 1_555 1_555
O1A C13A 1_555 1_555
O2A C13A 1_555 1_555
O3A C14A 1_555 1_555
O4A C14A 1_555 1_555
O5A C15A 1_555 1_555
O6A Cu1A 1_555 1_555
O7A C16A 1_555 1_555
O8A C16A 1_555 1_555
O9A C1A 1_555 1_555
O10A Cu1 1_555 1_555
O11A Cu2A 1_555 1_555
O12A Cu3 1_555 1_555
Cu1_2 O2A 1_555 1_555
Cu1_3 O7A 1_555 1_555
Cu1A_2 O7 1_555 1_555
Cu1A_3 O2 1_555 1_555
Cu2_2 O1A 1_555 1_555
Cu2_3 O8 1_555 1_555
Cu2A_2 O8A 1_555 1_555
Cu2A_3 O1 1_555 1_555
Cu3_2 O4A 1_555 1_555
O1_2 Cu2A 1_555 1_555
O1A_2 Cu2 1_555 1_555
O2_2 Cu1A 1_555 1_555
O2A_2 Cu1 1_555 1_555
O4A_2 Cu3 1_555 1_555
O7_2 Cu1A 1_555 1_555
O7A_2 Cu1 1_555 1_555
O8_2 Cu2 1_555 1_555
O8A_2 Cu2A 1_555 1_555
Cu2 O10 1_555 1_555
C5 C6 1_555 1_555
C7 O9 1_555 1_555
C11 C12 1_555 1_555
Cu1A O10A 1_555 1_555
Cu2A O10A 1_555 1_555
C5A C6A 1_555 1_555
C7A O9A 1_555 1_555
C11A C12A 1_555 1_555
C15A O6A 1_555 1_555

#END
