
#######################################################################
#
#                 Cambridge Crystallographic Data Centre
#                                CCDC 
#
#######################################################################
#
# If this CIF has been generated from an entry in the Cambridge 
# Structural Database, then it will include bibliographic, chemical, 
# crystal, experimental, refinement or atomic coordinate data resulting 
# from the CCDC's data processing and validation procedures.
#
#######################################################################

data_LEDJUA
_chemical_formula_moiety         '(C18 H56 N6 Nd2 O25 P6)n'
_symmetry_cell_setting           triclinic
_symmetry_space_group_name_H-M   'P -1'
_symmetry_Int_Tables_number      2
_space_group_name_Hall           '-P 1'
loop_
_symmetry_equiv_pos_site_id
_symmetry_equiv_pos_as_xyz
1 x,y,z
2 -x,-y,-z
_cell_length_a                   9.547(3)
_cell_length_b                   11.499(3)
_cell_length_c                   11.592(4)
_cell_angle_alpha                108.9413(19)
_cell_angle_beta                 111.851(4)
_cell_angle_gamma                92.174(3)
_cell_volume                     1098.78
loop_
_atom_site_label
_atom_site_type_symbol
_atom_site_fract_x
_atom_site_fract_y
_atom_site_fract_z
Nd1 Nd 0.71452(4) 0.97750(3) 0.52573(4)
O1 O 0.5098(6) 1.0654(4) 0.4094(5)
O2 O 0.2605(6) 1.1129(5) 0.2965(5)
O3 O 0.4181(7) 1.0337(5) 0.1594(5)
O4 O 0.5492(7) 0.7921(5) 0.3614(6)
O5 O 0.2742(6) 0.8338(5) 0.3000(5)
O6 O 0.3364(8) 0.6269(5) 0.3144(6)
O7 O 0.9867(7) 1.0646(5) 0.6689(5)
O8 O 1.1961(8) 0.9572(8) 0.6135(7)
O9 O 1.2427(15) 1.1636(13) 0.8304(13)
O11 O 0.8702(18) 0.8131(13) 0.4536(17)
P1 P 0.4205(2) 1.10576(16) 0.29406(18)
P2 P 0.3801(2) 0.74013(17) 0.28632(19)
P3 P 1.1393(5) 1.0398(4) 0.7246(4)
N1 N 0.5227(8) 1.3711(6) 0.4427(7)
H1 H 0.5680 1.3548 0.5187
N2 N 0.4107(10) 0.5739(8) 0.0629(7)
H2 H 0.3645 0.5101 0.0740
N3 N 1.0310(8) 0.9563(7) 0.8803(7)
H3 H 0.9329 0.9337 0.8172
C1 C 0.5162(10) 1.2621(7) 0.3286(8)
H4 H 0.6212 1.2563 0.3395
H5 H 0.4674 1.2814 0.2488
C2 C 0.3408(11) 0.6848(8) 0.1088(8)
H6 H 0.2306 0.6632 0.0576
H7 H 0.3790 0.7525 0.0896
C3 C 0.3679(10) 1.4005(7) 0.4314(9)
H8 H 0.3069 1.3303 0.4300
H9 H 0.3160 1.4133 0.3481
C4 C 0.6194(11) 1.4835(7) 0.4532(10)
H10 H 0.5748 1.4991 0.3707
H11 H 0.7214 1.4662 0.4647
C5 C 0.3692(13) 0.5344(10) -0.0843(9)
H12 H 0.4142 0.6005 -0.1016
H13 H 0.2586 0.5216 -0.1313
C6 C 0.5746(6) 0.5852(5) 0.1366(5)
H14 H 0.5968 0.6046 0.2303
H15 H 0.6293 0.6535 0.1294
C7 C 1.1380(6) 0.9283(5) 0.8099(5)
H16 H 1.1047 0.8435 0.7449
H17 H 1.2409 0.9348 0.8743
C8 C 1.0491(6) 0.8811(5) 0.9671(5)
H18 H 1.0275 0.7928 0.9128
H19 H 1.1543 0.9014 1.0329
C9 C 1.0569(6) 1.0935(5) 0.9634(5)
H20 H 1.1622 1.1200 1.0291
H21 H 1.0408 1.1417 0.9062
Nd1A Nd 0.28548(4) 2.02250(3) 0.47427(4)
Nd1A_2 Nd 0.28548(4) 1.02250(3) 0.47427(4)
Nd1A_3 Nd 1.28548(4) 1.02250(3) 0.47427(4)
Nd1_2 Nd 0.71452(4) 1.97750(3) 0.52573(4)
Nd1A_4 Nd 0.28548(4) 0.02250(3) -0.52573(4)
Nd1_3 Nd 0.71452(4) -0.02250(3) -0.47427(4)
Nd1A_5 Nd 1.28548(4) 1.02250(3) 1.47427(4)
Nd1_4 Nd 0.71452(4) 0.97750(3) 1.52573(4)
O1A O 0.4902(6) 1.9346(4) 0.5906(5)
O1A_2 O 0.4902(6) 0.9346(4) 0.5906(5)
O1_2 O 0.5098(6) 2.0654(4) 0.4094(5)
O2A O 0.7395(6) 1.8871(5) 0.7035(5)
O2A_2 O 0.7395(6) 0.8871(5) 0.7035(5)
O2_2 O 0.2605(6) 2.1129(5) 0.2965(5)
O3A O 0.5819(7) 1.9663(5) 0.8406(5)
O4A O 0.4508(7) 0.2079(5) -0.3614(6)
O4A_2 O 0.4508(7) 2.2079(5) 0.6386(6)
O5A O 0.7258(6) 0.1662(5) -0.3000(5)
O5A_2 O 0.7258(6) 1.1662(5) 0.7000(5)
O5_2 O 0.2742(6) 1.8338(5) 0.3000(5)
O6A O 0.6636(8) 0.3731(5) -0.3144(6)
O7A O 1.0133(7) 0.9354(5) 1.3311(5)
O7A_2 O 0.0133(7) 1.9354(5) 0.3311(5)
O8A O 0.8039(8) 1.0428(8) 1.3865(7)
O8A_2 O 0.8039(8) 1.0428(8) 0.3865(7)
O8_2 O 0.1961(8) 1.9572(8) 0.6135(7)
O9A O 0.7573(15) 0.8364(13) 1.1696(13)
O11A O 0.1298(18) 2.1869(13) 0.5464(17)
P1A P 0.5795(2) 1.89424(16) 0.70594(18)
P2A P 0.6199(2) 0.25987(17) -0.28632(19)
P3A P 0.8607(5) 0.9602(4) 1.2754(4)
N1A N 0.4773(8) 1.6289(6) 0.5573(7)
H1A H 0.4320 1.6452 0.4813
N2A N 0.5893(10) 0.4261(8) -0.0629(7)
H2A H 0.6355 0.4899 -0.0740
N3A N 0.9690(8) 1.0437(7) 1.1197(7)
H3A H 1.0671 1.0663 1.1828
C1A C 0.4838(10) 1.7379(7) 0.6714(8)
H4A H 0.3788 1.7437 0.6605
H5A H 0.5326 1.7186 0.7512
C2A C 0.6592(11) 0.3152(8) -0.1088(8)
H6A H 0.7694 0.3368 -0.0576
H7A H 0.6210 0.2475 -0.0896
C3A C 0.6321(10) 1.5995(7) 0.5686(9)
H8A H 0.6931 1.6697 0.5700
H9A H 0.6840 1.5867 0.6519
C4A C 0.3806(11) 1.5165(7) 0.5468(10)
H10A H 0.4252 1.5009 0.6293
H11A H 0.2786 1.5338 0.5353
C5A C 0.6308(13) 0.4656(10) 0.0843(9)
H12A H 0.5858 0.3995 0.1016
H13A H 0.7414 0.4784 0.1313
C6A C 0.4254(6) 0.4148(5) -0.1366(5)
H14A H 0.4032 0.3954 -0.2303
H15A H 0.3707 0.3465 -0.1294
C7A C 0.8620(6) 1.0717(5) 1.1901(5)
H16A H 0.8953 1.1565 1.2551
H17A H 0.7591 1.0652 1.1257
C8A C 0.9509(6) 1.1189(5) 1.0329(5)
H18A H 0.9725 1.2072 1.0872
H19A H 0.8457 1.0986 0.9671
C9A C 0.9431(6) 0.9065(5) 1.0366(5)
H20A H 0.8378 0.8800 0.9709
H21A H 0.9592 0.8583 1.0938
O12 O 1.0141(10) 0.6133(8) 0.5752(12)
O13 O 1.4832(10) 1.1414(7) 0.9968(7)
O14 O 0.2350(17) 0.3815(13) 0.0758(14)
O15 O 1.020(2) 1.3335(16) 0.8241(19)
O17 O 0.907(3) 0.614(3) 0.372(3)
loop_
_geom_bond_atom_site_label_1
_geom_bond_atom_site_label_2
_geom_bond_site_symmetry_1
_geom_bond_site_symmetry_2
Nd1 O1 1_555 1_555
O1 P1 1_555 1_555
O2 P1 1_555 1_555
O3 P1 1_555 1_555
O4 Nd1 1_555 1_555
O5 P2 1_555 1_555
O6 P2 1_555 1_555
O7 Nd1 1_555 1_555
O8 P3 1_555 1_555
O9 P3 1_555 1_555
O11 Nd1 1_555 1_555
P1 C1 1_555 1_555
P2 O4 1_555 1_555
P3 O7 1_555 1_555
N1 H1 1_555 1_555
N2 H2 1_555 1_555
N3 H3 1_555 1_555
C1 N1 1_555 1_555
H4 C1 1_555 1_555
H5 C1 1_555 1_555
C2 P2 1_555 1_555
H6 C2 1_555 1_555
H7 C2 1_555 1_555
C3 N1 1_555 1_555
H8 C3 1_555 1_555
H9 C3 1_555 1_555
C4 N1 1_555 1_555
H10 C4 1_555 1_555
H11 C4 1_555 1_555
C5 N2 1_555 1_555
H12 C5 1_555 1_555
H13 C5 1_555 1_555
C6 N2 1_555 1_555
H14 C6 1_555 1_555
H15 C6 1_555 1_555
C7 P3 1_555 1_555
H16 C7 1_555 1_555
H17 C7 1_555 1_555
C8 N3 1_555 1_555
H18 C8 1_555 1_555
H19 C8 1_555 1_555
C9 N3 1_555 1_555
H20 C9 1_555 1_555
H21 C9 1_555 1_555
Nd1A O1A 1_555 1_555
Nd1A_2 O1 1_555 1_555
Nd1A_3 O8 1_555 1_555
Nd1_2 O1A 1_555 1_555
Nd1A_4 O4A 1_555 1_555
Nd1_3 O5A 1_555 1_555
Nd1A_5 O7A 1_555 1_555
Nd1_4 O8A 1_555 1_555
O1A P1A 1_555 1_555
O1A_2 Nd1 1_555 1_555
O1_2 Nd1A 1_555 1_555
O2A Nd1_2 1_555 1_555
O2A_2 Nd1 1_555 1_555
O2_2 Nd1A 1_555 1_555
O3A P1A 1_555 1_555
O4A P2A 1_555 1_555
O4A_2 Nd1A 1_555 1_555
O5A P2A 1_555 1_555
O5A_2 Nd1 1_555 1_555
O5_2 Nd1A 1_555 1_555
O6A P2A 1_555 1_555
O7A P3A 1_555 1_555
O7A_2 Nd1A 1_555 1_555
O8A P3A 1_555 1_555
O8A_2 Nd1 1_555 1_555
O8_2 Nd1A 1_555 1_555
O9A P3A 1_555 1_555
O11A Nd1A 1_555 1_555
P1A O2A 1_555 1_555
P2A C2A 1_555 1_555
P3A C7A 1_555 1_555
N1A H1A 1_555 1_555
N2A H2A 1_555 1_555
N3A H3A 1_555 1_555
C1A P1A 1_555 1_555
H4A C1A 1_555 1_555
H5A C1A 1_555 1_555
C2A N2A 1_555 1_555
H6A C2A 1_555 1_555
H7A C2A 1_555 1_555
C3A C4 1_555 1_555
H8A C3A 1_555 1_555
H9A C3A 1_555 1_555
C4A C3 1_555 1_555
H10A C4A 1_555 1_555
H11A C4A 1_555 1_555
C5A C6 1_555 1_555
H12A C5A 1_555 1_555
H13A C5A 1_555 1_555
C6A C5 1_555 1_555
H14A C6A 1_555 1_555
H15A C6A 1_555 1_555
C7A N3A 1_555 1_555
H16A C7A 1_555 1_555
H17A C7A 1_555 1_555
C8A C9 1_555 1_555
H18A C8A 1_555 1_555
H19A C8A 1_555 1_555
C9A C8 1_555 1_555
H20A C9A 1_555 1_555
H21A C9A 1_555 1_555
O2 Nd1A_2 1_555 1_555
O5 Nd1A_2 1_555 1_555
N2 C2 1_555 1_555
N3 C7 1_555 1_555
Nd1A_2 O1A_2 1_555 1_555
Nd1_2 O1_2 1_555 1_555
N1A C1A 1_555 1_555
N1A C3A 1_555 1_555
N1A C4A 1_555 1_555
N2A C5A 1_555 1_555
N2A C6A 1_555 1_555
N3A C8A 1_555 1_555
N3A C9A 1_555 1_555

#END
