
#######################################################################
#
#                 Cambridge Crystallographic Data Centre
#                                CCDC 
#
#######################################################################
#
# If this CIF has been generated from an entry in the Cambridge 
# Structural Database, then it will include bibliographic, chemical, 
# crystal, experimental, refinement or atomic coordinate data resulting 
# from the CCDC's data processing and validation procedures.
#
#######################################################################

data_LEDJOU
_chemical_formula_moiety         '(C18 H48 Gd2 N6 O21 P6)n'
_symmetry_cell_setting           orthorhombic
_symmetry_space_group_name_H-M   'P 2 21 21'
_symmetry_Int_Tables_number      18
_space_group_name_Hall           'P 2bc 2'
loop_
_symmetry_equiv_pos_site_id
_symmetry_equiv_pos_as_xyz
1 x,y,z
2 -x,1/2-y,1/2+z
3 x,-y,-z
4 -x,1/2+y,1/2-z
_cell_length_a                   8.712(3)
_cell_length_b                   9.859(3)
_cell_length_c                   23.176(8)
_cell_angle_alpha                90
_cell_angle_beta                 90
_cell_angle_gamma                90
_cell_volume                     1990.62
loop_
_atom_site_label
_atom_site_type_symbol
_atom_site_fract_x
_atom_site_fract_y
_atom_site_fract_z
Gd1 Gd 0.04409(5) 0.12998(4) 0.254693(17)
P1 P 0.0176(3) 0.3895(3) 0.36425(10)
P2 P 0.7047(3) 0.3524(3) 0.22320(10)
P3 P -0.2137(3) -0.1099(3) 0.33130(10)
O1 O 0.0713(9) 0.2605(8) 0.3347(3)
O2 O -0.1329(9) 0.3750(9) 0.3965(3)
O3 O 0.0197(9) 0.5113(8) 0.3252(3)
O4 O 0.8465(9) 0.2636(7) 0.2282(3)
O5 O 0.7394(8) 0.5013(7) 0.2324(3)
O6 O 0.6173(9) 0.3232(7) 0.1673(3)
O7 O -0.1077(10) 0.0031(8) 0.3127(3)
O8 O -0.2174(9) -0.2332(8) 0.2927(3)
O9 O -0.3747(10) -0.0494(8) 0.3433(4)
H1 H -0.4392 -0.0907 0.3245
N1 N 0.3252(10) 0.4101(8) 0.4039(4)
H2 H 0.3801 0.4402 0.4348
N2 N 0.6046(10) 0.3512(9) 0.3391(3)
H3 H 0.7084 0.3574 0.3426
N3 N -0.163(3) -0.0726(19) 0.4502(8)
C1 C 0.1592(12) 0.4219(10) 0.4201(4)
H4 H 0.1420 0.5128 0.4347
H5 H 0.1398 0.3595 0.4516
C2 C 0.3692(13) 0.4965(11) 0.3546(5)
H6 H 0.3365 0.5890 0.3616
H7 H 0.3185 0.4645 0.3199
C3 C 0.5400(13) 0.4928(10) 0.3461(4)
H8 H 0.5888 0.5356 0.3790
H9 H 0.5657 0.5456 0.3121
C4 C 0.5492(14) 0.2633(10) 0.3867(4)
H10 H 0.5953 0.2935 0.4226
H11 H 0.5833 0.1711 0.3797
C5 C 0.3744(12) 0.2635(11) 0.3935(5)
H12 H 0.3261 0.2284 0.3589
H13 H 0.3445 0.2071 0.4259
C6 C 0.5708(12) 0.2955(10) 0.2799(4)
H14 H 0.4676 0.3220 0.2690
H15 H 0.5735 0.1972 0.2817
C7 C -0.1466(18) -0.1753(13) 0.4004(5)
H16 H -0.2043 -0.2565 0.4099
H17 H -0.0395 -0.2008 0.3968
C8 C -0.1237(14) -0.1438(11) 0.5050(4)
H18 H -0.0142 -0.1614 0.5068
H19 H -0.1777 -0.2297 0.5073
C9 C -0.174(3) 0.048(2) 0.4443(10)
H20 H -0.2842 0.0370 0.4453
H21 H -0.1472 0.0909 0.4079
Gd1C Gd -0.04409(5) -0.37002(4) 0.245307(17)
Gd1C_2 Gd -0.04409(5) 0.62998(4) 0.245307(17)
Gd1_2 Gd 1.04409(5) 0.12998(4) 0.254693(17)
Gd1C_3 Gd 0.95591(5) 0.62998(4) 0.245307(17)
Gd1B Gd 0.04409(5) -0.12998(4) 0.745307(17)
Gd1A Gd -0.04409(5) 0.37002(4) 0.754693(17)
Gd1C_4 Gd -1.04409(5) -0.37002(4) 0.245307(17)
Gd1_3 Gd -0.95591(5) 0.12998(4) 0.254693(17)
P1C P -0.0176(3) -0.1105(3) 0.13575(10)
P2C P -0.7047(3) -0.1476(3) 0.27680(10)
P3B P -0.2137(3) 0.1099(3) 0.66870(10)
O1C O -0.0713(9) -0.2395(8) 0.1653(3)
O2C O 0.1329(9) -0.1250(9) 0.1035(3)
O3C O -0.0197(9) 0.0113(8) 0.1748(3)
O3_2 O 0.0197(9) -0.4887(8) 0.3252(3)
O4C O -0.8465(9) -0.2364(7) 0.2718(3)
O4_2 O -0.1535(9) 0.2636(7) 0.2282(3)
O4C_2 O 0.1535(9) -0.2364(7) 0.2718(3)
O5C O -0.7394(8) 0.0013(7) 0.2676(3)
O5C_2 O 0.2606(8) 0.0013(7) 0.2676(3)
O5_2 O -0.2606(8) -0.4987(7) 0.2324(3)
O6C O -0.6173(9) -0.1768(7) 0.3327(3)
O7B O -0.1077(10) -0.0031(8) 0.6873(3)
O7C O 0.1077(10) -0.4969(8) 0.1873(3)
O8B O -0.2174(9) 0.2332(8) 0.7073(3)
O8C O 0.2174(9) 0.2668(8) 0.2073(3)
O9B O -0.3747(10) 0.0494(8) 0.6567(4)
H1B H -0.4392 0.0907 0.6755
N1C N -0.3252(10) -0.0899(8) 0.0961(4)
H2C H -0.3801 -0.0598 0.0652
N2C N -0.6046(10) -0.1488(9) 0.1609(3)
H3C H -0.7084 -0.1426 0.1574
N3B N -0.163(3) 0.0726(19) 0.5498(8)
C1C C -0.1592(12) -0.0781(10) 0.0799(4)
H4C H -0.1420 0.0128 0.0653
H5C H -0.1398 -0.1405 0.0484
C2C C -0.3692(13) -0.0035(11) 0.1454(5)
H6C H -0.3365 0.0890 0.1384
H7C H -0.3185 -0.0355 0.1801
C3C C -0.5400(13) -0.0072(10) 0.1539(4)
H8C H -0.5888 0.0356 0.1210
H9C H -0.5657 0.0456 0.1879
C4C C -0.5492(14) -0.2367(10) 0.1133(4)
H10C H -0.5953 -0.2065 0.0774
H11C H -0.5833 -0.3289 0.1203
C5C C -0.3744(12) -0.2365(11) 0.1065(5)
H12C H -0.3261 -0.2716 0.1411
H13C H -0.3445 -0.2929 0.0741
C6C C -0.5708(12) -0.2045(10) 0.2201(4)
H14C H -0.4676 -0.1780 0.2310
H15C H -0.5735 -0.3028 0.2183
C7B C -0.1466(18) 0.1753(13) 0.5996(5)
H16B H -0.2043 0.2565 0.5901
H17B H -0.0395 0.2008 0.6032
C8B C -0.1237(14) 0.1438(11) 0.4950(4)
H18B H -0.0142 0.1614 0.4932
H19B H -0.1777 0.2297 0.4927
C9B C -0.174(3) -0.048(2) 0.5557(10)
H20B H -0.2842 -0.0370 0.5547
H21B H -0.1472 -0.0909 0.5921
O10 O 0.5098(11) 0.5000 0.0000
O11 O 0.5142(15) 0.5000 0.5000
O12 O 0.2240(19) -0.1409(17) 0.4365(7)
loop_
_geom_bond_atom_site_label_1
_geom_bond_atom_site_label_2
_geom_bond_site_symmetry_1
_geom_bond_site_symmetry_2
Gd1 O1 1_555 1_555
P1 O1 1_555 1_555
P2 O4 1_555 1_555
P3 O7 1_555 1_555
O2 P1 1_555 1_555
O3 P1 1_555 1_555
O4 Gd1_2 1_555 1_555
O5 P2 1_555 1_555
O6 P2 1_555 1_555
O7 Gd1 1_555 1_555
O8 P3 1_555 1_555
O9 P3 1_555 1_555
H1 O9 1_555 1_555
N1 H2 1_555 1_555
N2 H3 1_555 1_555
N3 C7 1_555 1_555
C1 P1 1_555 1_555
H4 C1 1_555 1_555
H5 C1 1_555 1_555
C2 N1 1_555 1_555
H6 C2 1_555 1_555
H7 C2 1_555 1_555
C3 N2 1_555 1_555
H8 C3 1_555 1_555
H9 C3 1_555 1_555
C4 N2 1_555 1_555
H10 C4 1_555 1_555
H11 C4 1_555 1_555
C5 N1 1_555 1_555
H12 C5 1_555 1_555
H13 C5 1_555 1_555
C6 P2 1_555 1_555
H14 C6 1_555 1_555
H15 C6 1_555 1_555
C7 P3 1_555 1_555
H16 C7 1_555 1_555
H17 C7 1_555 1_555
C8 N3 1_555 1_555
H18 C8 1_555 1_555
H19 C8 1_555 1_555
C9 N3 1_555 1_555
H20 C9 1_555 1_555
H21 C9 1_555 1_555
Gd1C O8 1_555 1_555
Gd1C_2 O3 1_555 1_555
Gd1C_3 O5 1_555 1_555
Gd1B O7B 1_555 1_555
Gd1A O8B 1_555 1_555
Gd1C_4 O4C 1_555 1_555
Gd1_3 O5C 1_555 1_555
P1C O1C 1_555 1_555
P2C O4C 1_555 1_555
P3B O7B 1_555 1_555
O1C Gd1C 1_555 1_555
O2C P1C 1_555 1_555
O3C Gd1 1_555 1_555
O3_2 Gd1C 1_555 1_555
O4_2 Gd1 1_555 1_555
O4C_2 Gd1C 1_555 1_555
O5C P2C 1_555 1_555
O5C_2 Gd1 1_555 1_555
O5_2 Gd1C 1_555 1_555
O6C P2C 1_555 1_555
O7C Gd1C 1_555 1_555
O8B P3B 1_555 1_555
O8C Gd1 1_555 1_555
O9B P3B 1_555 1_555
H1B O9B 1_555 1_555
N1C H2C 1_555 1_555
N2C H3C 1_555 1_555
N3B C7B 1_555 1_555
C1C P1C 1_555 1_555
H4C C1C 1_555 1_555
H5C C1C 1_555 1_555
C2C N1C 1_555 1_555
H6C C2C 1_555 1_555
H7C C2C 1_555 1_555
C3C N2C 1_555 1_555
H8C C3C 1_555 1_555
H9C C3C 1_555 1_555
C4C N2C 1_555 1_555
H10C C4C 1_555 1_555
H11C C4C 1_555 1_555
C5C N1C 1_555 1_555
H12C C5C 1_555 1_555
H13C C5C 1_555 1_555
C6C P2C 1_555 1_555
H14C C6C 1_555 1_555
H15C C6C 1_555 1_555
C7B P3B 1_555 1_555
H16B C7B 1_555 1_555
H17B C7B 1_555 1_555
C8B C9 1_555 1_555
H18B C8B 1_555 1_555
H19B C8B 1_555 1_555
C9B C8 1_555 1_555
H20B C9B 1_555 1_555
H21B C9B 1_555 1_555
N1 C1 1_555 1_555
N2 C6 1_555 1_555
C2 C3 1_555 1_555
C4 C5 1_555 1_555
P1C O3C 1_555 1_555
N1C C1C 1_555 1_555
N2C C6C 1_555 1_555
N3B C8B 1_555 1_555
N3B C9B 1_555 1_555
C2C C3C 1_555 1_555
C4C C5C 1_555 1_555

#END
