
#######################################################################
#
#                 Cambridge Crystallographic Data Centre
#                                CCDC 
#
#######################################################################
#
# If this CIF has been generated from an entry in the Cambridge 
# Structural Database, then it will include bibliographic, chemical, 
# crystal, experimental, refinement or atomic coordinate data resulting 
# from the CCDC's data processing and validation procedures.
#
#######################################################################

data_ISACIP
_chemical_formula_moiety         '(C38 H22 Cd3 N4 O12)n'
_symmetry_cell_setting           monoclinic
_symmetry_space_group_name_H-M   'C 2/c'
_symmetry_Int_Tables_number      15
_space_group_name_Hall           '-C 2yc'
loop_
_symmetry_equiv_pos_site_id
_symmetry_equiv_pos_as_xyz
1 x,y,z
2 -x,y,1/2-z
3 1/2+x,1/2+y,z
4 1/2-x,1/2+y,1/2-z
5 -x,-y,-z
6 x,-y,1/2+z
7 1/2-x,1/2-y,-z
8 1/2+x,1/2-y,1/2+z
_cell_length_a                   23.700(5)
_cell_length_b                   11.6876(11)
_cell_length_c                   20.563(5)
_cell_angle_alpha                90
_cell_angle_beta                 135.16(4)
_cell_angle_gamma                90
_cell_volume                     4016.33
loop_
_atom_site_label
_atom_site_type_symbol
_atom_site_fract_x
_atom_site_fract_y
_atom_site_fract_z
Cd1 Cd 0.42134(3) -0.01751(4) 0.86802(3)
Cd2 Cd 0.0000 0.30087(7) 0.7500
O1 O 0.4427(3) -0.0006(4) 1.0147(4)
O2 O 0.3258(3) -0.0075(5) 0.8707(3)
O3 O 0.1023(3) 0.1879(6) 0.7922(3)
O4 O 0.0984(3) 0.2143(5) 0.8946(4)
O5 O 0.3198(3) 0.0231(5) 1.2083(3)
O6 O 0.4375(3) 0.0558(5) 1.2599(3)
N1 N 0.4253(3) -0.2125(5) 0.8841(4)
N2 N 0.4193(4) -0.8187(6) 0.8629(4)
C1 C 0.3681(4) 0.0060(6) 0.9554(5)
C2 C 0.3260(4) 0.0349(6) 0.9830(5)
C3 C 0.3631(4) 0.0238(6) 1.0734(5)
H1 H 0.4152 -0.0039 1.1184
C4 C 0.3227(4) 0.0539(6) 1.0969(5)
C5 C 0.2460(4) 0.0982(6) 1.0308(5)
H2 H 0.2189 0.1181 1.0465
C6 C 0.2095(4) 0.1128(6) 0.9409(4)
C7 C 0.2501(4) 0.0791(6) 0.9180(5)
H3 H 0.2252 0.0868 0.8575
C8 C 0.1311(4) 0.1742(7) 0.8707(5)
C9 C 0.3623(4) 0.0437(6) 1.1945(5)
C10 C 0.3596(5) -0.2709(7) 0.8492(6)
H4 H 0.3156 -0.2302 0.8284
C11 C 0.3553(5) -0.3899(7) 0.8431(6)
H5 H 0.3094 -0.4275 0.8195
C12 C 0.4206(4) -0.4523(6) 0.8727(5)
C13 C 0.4868(5) -0.3905(6) 0.9093(5)
H6 H 0.5321 -0.4287 0.9315
C14 C 0.4874(4) -0.2729(6) 0.9137(5)
H7 H 0.5333 -0.2340 0.9385
C15 C 0.3585(5) -0.7595(7) 0.8403(7)
H8 H 0.3161 -0.8009 0.8232
C16 C 0.3552(5) -0.6429(7) 0.8409(7)
H9 H 0.3116 -0.6068 0.8245
C17 C 0.4185(4) -0.5777(6) 0.8666(5)
C18 C 0.4807(6) -0.6395(7) 0.8906(8)
H10 H 0.5244 -0.6010 0.9087
C19 C 0.4792(6) -0.7579(7) 0.8882(8)
H11 H 0.5223 -0.7964 0.9051
Cd1A Cd -0.42134(3) -0.01751(4) 0.63198(3)
Cd1D Cd 0.57866(3) 0.01751(4) 1.13198(3)
Cd1E Cd 0.42134(3) 0.01751(4) 1.36802(3)
Cd1_2 Cd 0.42134(3) -1.01751(4) 0.86802(3)
Cd1E_2 Cd -0.57866(3) 0.01751(4) 0.36802(3)
Cd1D_2 Cd -0.42134(3) 0.01751(4) 0.13198(3)
Cd1_3 Cd 0.42134(3) 0.98249(4) 0.86802(3)
Cd2F Cd 0.5000 0.19913(7) 1.2500
Cd2F_2 Cd -0.5000 0.19913(7) 0.2500
O1A O -0.4427(3) -0.0006(4) 0.4853(4)
O1D O 0.5573(3) 0.0006(4) 0.9853(4)
O1E O -0.5573(3) 0.0006(4) 0.5147(4)
O2A O -0.3258(3) -0.0075(5) 0.6293(3)
O3A O -0.1023(3) 0.1879(6) 0.7078(3)
O4A O -0.0984(3) 0.2143(5) 0.6054(4)
O5A O -0.3198(3) 0.0231(5) 0.2917(3)
O5E O 0.3198(3) -0.0231(5) 0.7083(3)
O5D O -0.3198(3) -0.0231(5) 0.7917(3)
O6A O -0.4375(3) 0.0558(5) 0.2401(3)
O6E O 0.4375(3) -0.0558(5) 0.7599(3)
O6G O -0.0625(3) 0.4442(5) 0.7599(3)
O6F O 0.0625(3) 0.4442(5) 0.7401(3)
O6D O -0.4375(3) -0.0558(5) 0.7401(3)
N1_2 N 0.4253(3) 0.7875(5) 0.8841(4)
N1A N -0.4253(3) -0.2125(5) 0.6159(4)
N2_2 N 0.4193(4) 0.1813(6) 0.8629(4)
N2A N -0.4193(4) 0.1813(6) 0.6371(4)
C1A C -0.3681(4) 0.0060(6) 0.5446(5)
C2A C -0.3260(4) 0.0349(6) 0.5170(5)
C3A C -0.3631(4) 0.0238(6) 0.4266(5)
H1A H -0.4152 -0.0039 0.3816
C4A C -0.3227(4) 0.0539(6) 0.4031(5)
C5A C -0.2460(4) 0.0982(6) 0.4692(5)
H2A H -0.2189 0.1181 0.4535
C6A C -0.2095(4) 0.1128(6) 0.5591(4)
C7A C -0.2501(4) 0.0791(6) 0.5820(5)
H3A H -0.2252 0.0868 0.6425
C8A C -0.1311(4) 0.1742(7) 0.6293(5)
C9A C -0.3623(4) 0.0437(6) 0.3055(5)
C10_2 C 0.3596(5) 0.7291(7) 0.8492(6)
H4_2 H 0.3156 0.7698 0.8284
C11_2 C 0.3553(5) 0.6101(7) 0.8431(6)
H5_2 H 0.3094 0.5725 0.8195
C12_2 C 0.4206(4) 0.5477(6) 0.8727(5)
C13_2 C 0.4868(5) 0.6095(6) 0.9093(5)
H6_2 H 0.5321 0.5713 0.9315
C14_2 C 0.4874(4) 0.7271(6) 0.9137(5)
H7_2 H 0.5333 0.7660 0.9385
C15_2 C 0.3585(5) 0.2405(7) 0.8403(7)
H8_2 H 0.3161 0.1991 0.8232
C16_2 C 0.3552(5) 0.3571(7) 0.8409(7)
H9_2 H 0.3116 0.3932 0.8245
C17_2 C 0.4185(4) 0.4223(6) 0.8666(5)
C18_2 C 0.4807(6) 0.3605(7) 0.8906(8)
H10_2 H 0.5244 0.3990 0.9087
C19_2 C 0.4792(6) 0.2421(7) 0.8882(8)
H11_2 H 0.5223 0.2036 0.9051
loop_
_geom_bond_atom_site_label_1
_geom_bond_atom_site_label_2
_geom_bond_site_symmetry_1
_geom_bond_site_symmetry_2
Cd1 O1 1_555 1_555
Cd2 O3 1_555 1_555
O1 C1 1_555 1_555
O2 Cd1 1_555 1_555
O3 C8 1_555 1_555
O4 Cd2 1_555 1_555
O5 C9 1_555 1_555
O6 C9 1_555 1_555
N1 Cd1 1_555 1_555
N2 C15 1_555 1_555
C1 O2 1_555 1_555
C2 C1 1_555 1_555
C3 C2 1_555 1_555
H1 C3 1_555 1_555
C4 C3 1_555 1_555
C5 C4 1_555 1_555
H2 C5 1_555 1_555
C6 C5 1_555 1_555
C7 C2 1_555 1_555
H3 C7 1_555 1_555
C8 O4 1_555 1_555
C9 C4 1_555 1_555
C10 N1 1_555 1_555
H4 C10 1_555 1_555
C11 C10 1_555 1_555
H5 C11 1_555 1_555
C12 C11 1_555 1_555
C13 C12 1_555 1_555
H6 C13 1_555 1_555
C14 N1 1_555 1_555
H7 C14 1_555 1_555
C15 H8 1_555 1_555
C16 C15 1_555 1_555
H9 C16 1_555 1_555
C17 C12 1_555 1_555
C18 C17 1_555 1_555
H10 C18 1_555 1_555
C19 N2 1_555 1_555
H11 C19 1_555 1_555
Cd1A O1A 1_555 1_555
Cd1D O1 1_555 1_555
Cd1E O5 1_555 1_555
Cd1_2 N2 1_555 1_555
Cd1E_2 O1A 1_555 1_555
Cd1D_2 O5A 1_555 1_555
Cd1_3 N1_2 1_555 1_555
Cd2F O6 1_555 1_555
Cd2F_2 O6A 1_555 1_555
O1A C1A 1_555 1_555
O1D Cd1 1_555 1_555
O1E Cd1A 1_555 1_555
O2A Cd1A 1_555 1_555
O3A Cd2 1_555 1_555
O4A Cd2 1_555 1_555
O5A C9A 1_555 1_555
O5E Cd1 1_555 1_555
O5D Cd1A 1_555 1_555
O6A Cd1D_2 1_555 1_555
O6E Cd1 1_555 1_555
O6G Cd2 1_555 1_555
O6F Cd2 1_555 1_555
O6D Cd1A 1_555 1_555
N1_2 C10_2 1_555 1_555
N1A Cd1A 1_555 1_555
N2_2 Cd1 1_555 1_555
N2A Cd1A 1_555 1_555
C1A O2A 1_555 1_555
C2A C1A 1_555 1_555
C3A C2A 1_555 1_555
H1A C3A 1_555 1_555
C4A C3A 1_555 1_555
C5A C4A 1_555 1_555
H2A C5A 1_555 1_555
C6A C5A 1_555 1_555
C7A C2A 1_555 1_555
H3A C7A 1_555 1_555
C8A O3A 1_555 1_555
C9A O6A 1_555 1_555
C10_2 H4_2 1_555 1_555
C11_2 C10_2 1_555 1_555
H5_2 C11_2 1_555 1_555
C12_2 C11_2 1_555 1_555
C13_2 C12_2 1_555 1_555
H6_2 C13_2 1_555 1_555
C14_2 N1_2 1_555 1_555
H7_2 C14_2 1_555 1_555
C15_2 N2_2 1_555 1_555
H8_2 C15_2 1_555 1_555
C16_2 C15_2 1_555 1_555
H9_2 C16_2 1_555 1_555
C17_2 C12_2 1_555 1_555
C18_2 C17_2 1_555 1_555
H10_2 C18_2 1_555 1_555
C19_2 N2_2 1_555 1_555
H11_2 C19_2 1_555 1_555
O6 Cd1E 1_555 1_555
C6 C7 1_555 1_555
C6 C8 1_555 1_555
C13 C14 1_555 1_555
C16 C17 1_555 1_555
C18 C19 1_555 1_555
Cd1D O1D 1_555 1_555
Cd1E_2 O1E 1_555 1_555
O4A C8A 1_555 1_555
C4A C9A 1_555 1_555
C6A C7A 1_555 1_555
C6A C8A 1_555 1_555
C13_2 C14_2 1_555 1_555
C16_2 C17_2 1_555 1_555
C18_2 C19_2 1_555 1_555

#END
