
#######################################################################
#
#                 Cambridge Crystallographic Data Centre
#                                CCDC 
#
#######################################################################
#
# If this CIF has been generated from an entry in the Cambridge 
# Structural Database, then it will include bibliographic, chemical, 
# crystal, experimental, refinement or atomic coordinate data resulting 
# from the CCDC's data processing and validation procedures.
#
#######################################################################

data_SOCKOM
_chemical_formula_moiety         '(C36 H28 Cd2 N4 O11)n'
_symmetry_cell_setting           monoclinic
_symmetry_space_group_name_H-M   'C 2'
_symmetry_Int_Tables_number      5
_space_group_name_Hall           'C 2y'
loop_
_symmetry_equiv_pos_site_id
_symmetry_equiv_pos_as_xyz
1 x,y,z
2 -x,y,-z
3 1/2+x,1/2+y,z
4 1/2-x,1/2+y,-z
_cell_length_a                   16.6363(13)
_cell_length_b                   11.7664(9)
_cell_length_c                   11.7332(9)
_cell_angle_alpha                90
_cell_angle_beta                 96.0520(10)
_cell_angle_gamma                90
_cell_volume                     2283.97
loop_
_atom_site_label
_atom_site_type_symbol
_atom_site_fract_x
_atom_site_fract_y
_atom_site_fract_z
N1 N 0.0000 1.5864(5) 0.5000
O1 O 0.43615(19) 0.6263(3) 0.0932(3)
O2 O 0.4184(2) 0.4585(3) 0.1657(3)
C1 C 0.4049(3) 0.5632(4) 0.1604(4)
Cd1 Cd -0.0000 0.97825(3) 0.0000
C2 C 0.0000 1.3504(6) 0.5000
Cd2 Cd 0.0000 0.78608(3) 0.5000
N2 N 0.1164(2) 0.9785(3) 0.1294(3)
C3 C 0.1522(3) 0.8821(4) 0.1684(4)
H1 H 0.1299 0.8134 0.1417
C4 C 0.2122(3) 1.0827(4) 0.2492(5)
H2 H 0.2305 1.1527 0.2783
C5 C 0.2203(3) 0.8794(4) 0.2462(4)
C6 C 0.1478(3) 1.0758(4) 0.1685(4)
H3 H 0.1245 1.1430 0.1391
C7 C 0.2502(3) 0.9828(5) 0.2873(4)
H4 H 0.2957 0.9853 0.3405
C8 C 0.3486(3) 0.6156(4) 0.2400(4)
C9 C 0.2588(3) 0.7694(4) 0.2825(4)
C10 C 0.3139(3) 0.7206(4) 0.2135(4)
H5 H 0.3271 0.7595 0.1491
N3 N 0.0000 0.9842(9) 0.5000
O3 O 0.0763(2) 0.7781(3) 0.6815(3)
C11 C 0.0397(3) 1.1607(4) 0.4195(4)
H6 H 0.0670 1.1971 0.3647
C12 C 0.0364(3) 1.0426(3) 0.4256(4)
H7 H 0.0622 1.0018 0.3722
O4 O -0.0000 0.7795(10) 0.0000
C13 C 0.2409(3) 0.7124(4) 0.3797(4)
C14 C 0.2776(3) 0.6083(4) 0.4070(4)
H8 H 0.2679 0.5717 0.4745
C15 C 0.1813(3) 0.7562(4) 0.4565(4)
C16 C 0.3285(3) 0.5582(4) 0.3346(4)
H9 H 0.3489 0.4857 0.3505
C17 C 0.0000 1.2229(5) 0.5000
C18 C 0.0098(4) 1.4122(5) 0.5994(6)
H10 H 0.0146 1.3753 0.6699
O5 O 0.11326(18) 0.7849(3) 0.4102(3)
O6 O 0.2026(3) 0.7576(5) 0.5612(3)
C19 C 0.0124(6) 1.5263(6) 0.5948(6)
H11 H 0.0238 1.5655 0.6635
C11A C -0.0397(3) 1.1607(4) 0.5805(4)
H6A H -0.0670 1.1971 0.6353
C12A C -0.0364(3) 1.0426(3) 0.5744(4)
H7A H -0.0622 1.0018 0.6278
C18A C -0.0098(4) 1.4122(5) 0.4006(6)
H10A H -0.0146 1.3753 0.3301
C19A C -0.0124(6) 1.5263(6) 0.4052(6)
H11A H -0.0238 1.5655 0.3365
O1A O -0.43615(19) 0.6263(3) -0.0932(3)
O2A O -0.4184(2) 0.4585(3) -0.1657(3)
C1A C -0.4049(3) 0.5632(4) -0.1604(4)
N2A N -0.1164(2) 0.9785(3) -0.1294(3)
C3A C -0.1522(3) 0.8821(4) -0.1684(4)
H1A H -0.1299 0.8134 -0.1417
C4A C -0.2122(3) 1.0827(4) -0.2492(5)
H2A H -0.2305 1.1527 -0.2783
C5A C -0.2203(3) 0.8794(4) -0.2462(4)
C6A C -0.1478(3) 1.0758(4) -0.1685(4)
H3A H -0.1245 1.1430 -0.1391
C7A C -0.2502(3) 0.9828(5) -0.2873(4)
H4A H -0.2957 0.9853 -0.3405
C8A C -0.3486(3) 0.6156(4) -0.2400(4)
C9A C -0.2588(3) 0.7694(4) -0.2825(4)
C10A C -0.3139(3) 0.7206(4) -0.2135(4)
H5A H -0.3271 0.7595 -0.1491
C13A C -0.2409(3) 0.7124(4) -0.3797(4)
C14A C -0.2776(3) 0.6083(4) -0.4070(4)
H8A H -0.2679 0.5717 -0.4745
C15A C -0.1813(3) 0.7562(4) -0.4565(4)
C16A C -0.3285(3) 0.5582(4) -0.3346(4)
H9A H -0.3489 0.4857 -0.3505
O5A O -0.11326(18) 0.7849(3) -0.4102(3)
O6A O -0.2026(3) 0.7576(5) -0.5612(3)
O3A O -0.0763(2) 0.7781(3) 0.3185(3)
N1_2 N 0.0000 0.5864(5) 0.5000
O1B O -0.06385(19) 1.1263(3) 0.0932(3)
O1C O 0.06385(19) 1.1263(3) -0.0932(3)
O2B O -0.0816(2) 0.9585(3) 0.1657(3)
O2C O 0.0816(2) 0.9585(3) -0.1657(3)
Cd1B Cd -0.5000 0.47825(3) 0.0000
Cd1B_2 Cd 0.5000 0.47825(3) 0.0000
Cd2_2 Cd 0.0000 0.78608(3) -0.5000
Cd2_3 Cd 0.0000 1.78608(3) 0.5000
O5A_2 O -0.11326(18) 0.7849(3) 0.5898(3)
loop_
_geom_bond_atom_site_label_1
_geom_bond_atom_site_label_2
_geom_bond_site_symmetry_1
_geom_bond_site_symmetry_2
N1 C19 1_555 1_555
O1 C1 1_555 1_555
O2 C1 1_555 1_555
C1 C8 1_555 1_555
Cd1 N2 1_555 1_555
C2 C17 1_555 1_555
Cd2 N3 1_555 1_555
N2 C3 1_555 1_555
C3 H1 1_555 1_555
C4 H2 1_555 1_555
C5 C3 1_555 1_555
C6 N2 1_555 1_555
H3 C6 1_555 1_555
C7 C4 1_555 1_555
H4 C7 1_555 1_555
C8 C10 1_555 1_555
C9 C5 1_555 1_555
C10 C9 1_555 1_555
H5 C10 1_555 1_555
N3 C12 1_555 1_555
O3 Cd2 1_555 1_555
C11 H6 1_555 1_555
C12 C11 1_555 1_555
H7 C12 1_555 1_555
O4 Cd1 1_555 1_555
C13 C9 1_555 1_555
C14 C13 1_555 1_555
H8 C14 1_555 1_555
C15 C13 1_555 1_555
C16 C8 1_555 1_555
H9 C16 1_555 1_555
C17 C11 1_555 1_555
C18 C2 1_555 1_555
H10 C18 1_555 1_555
O5 Cd2 1_555 1_555
O6 C15 1_555 1_555
C19 C18 1_555 1_555
H11 C19 1_555 1_555
C11A C17 1_555 1_555
H6A C11A 1_555 1_555
C12A N3 1_555 1_555
H7A C12A 1_555 1_555
C18A C2 1_555 1_555
H10A C18A 1_555 1_555
C19A N1 1_555 1_555
H11A C19A 1_555 1_555
O1A C1A 1_555 1_555
O2A C1A 1_555 1_555
C1A C8A 1_555 1_555
N2A Cd1 1_555 1_555
C3A N2A 1_555 1_555
H1A C3A 1_555 1_555
C4A H2A 1_555 1_555
C5A C3A 1_555 1_555
C6A N2A 1_555 1_555
H3A C6A 1_555 1_555
C7A C4A 1_555 1_555
H4A C7A 1_555 1_555
C8A C10A 1_555 1_555
C9A C5A 1_555 1_555
C10A C9A 1_555 1_555
H5A C10A 1_555 1_555
C13A C9A 1_555 1_555
C14A C13A 1_555 1_555
H8A C14A 1_555 1_555
C15A C13A 1_555 1_555
C16A C8A 1_555 1_555
H9A C16A 1_555 1_555
O5A C15A 1_555 1_555
O6A C15A 1_555 1_555
O3A Cd2 1_555 1_555
N1_2 Cd2 1_555 1_555
O1B Cd1 1_555 1_555
O1C Cd1 1_555 1_555
O2B Cd1 1_555 1_555
O2C Cd1 1_555 1_555
Cd1B O1A 1_555 1_555
Cd1B_2 O1 1_555 1_555
Cd2_2 O5A 1_555 1_555
Cd2_3 N1 1_555 1_555
O5A_2 Cd2 1_555 1_555
O2 Cd1B_2 1_555 1_555
C4 C6 1_555 1_555
C5 C7 1_555 1_555
C14 C16 1_555 1_555
C15 O5 1_555 1_555
C11A C12A 1_555 1_555
C18A C19A 1_555 1_555
O2A Cd1B 1_555 1_555
C4A C6A 1_555 1_555
C5A C7A 1_555 1_555
C14A C16A 1_555 1_555

#END
