
#######################################################################
#
#                 Cambridge Crystallographic Data Centre
#                                CCDC 
#
#######################################################################
#
# If this CIF has been generated from an entry in the Cambridge 
# Structural Database, then it will include bibliographic, chemical, 
# crystal, experimental, refinement or atomic coordinate data resulting 
# from the CCDC's data processing and validation procedures.
#
#######################################################################

data_VIXWIJ
_chemical_formula_moiety         '(C94 H92 Co6 N6 O63)n'
_symmetry_cell_setting           cubic
_symmetry_space_group_name_H-M   'P a -3'
_symmetry_Int_Tables_number      205
_space_group_name_Hall           '-P 2ac 2ab 3'
loop_
_symmetry_equiv_pos_site_id
_symmetry_equiv_pos_as_xyz
1 x,y,z
2 1/2-x,-y,1/2+z
3 1/2+x,1/2-y,-z
4 z,x,y
5 -x,1/2+y,1/2-z
6 1/2-z,-x,1/2+y
7 1/2+z,1/2-x,-y
8 -z,1/2+x,1/2-y
9 y,z,x
10 1/2+y,1/2-z,-x
11 -y,1/2+z,1/2-x
12 1/2-y,-z,1/2+x
13 -x,-y,-z
14 1/2+x,y,1/2-z
15 1/2-x,1/2+y,z
16 -z,-x,-y
17 x,1/2-y,1/2+z
18 1/2+z,x,1/2-y
19 1/2-z,1/2+x,y
20 z,1/2-x,1/2+y
21 -y,-z,-x
22 1/2-y,1/2+z,x
23 y,1/2-z,1/2+x
24 1/2+y,z,1/2-x
_cell_length_a                   39.288(2)
_cell_length_b                   39.288(2)
_cell_length_c                   39.288(2)
_cell_angle_alpha                90
_cell_angle_beta                 90
_cell_angle_gamma                90
_cell_volume                     60642.9
loop_
_atom_site_label
_atom_site_type_symbol
_atom_site_fract_x
_atom_site_fract_y
_atom_site_fract_z
Co1 Co 0.13595(2) 0.96524(3) 0.03383(3)
Co2 Co 0.21319(6) 0.92067(7) 0.02977(7)
O1 O 0.18663(13) 0.95608(17) 0.05202(17)
O2 O 0.2565(2) 0.9440(5) 0.0298(3)
O3 O 0.2430(4) 0.8820(3) 0.0063(5)
O4 O 0.2314(3) 0.8999(4) 0.0746(4)
O5 O 0.22549(10) 0.97423(13) 0.02963(12)
N1 N 0.3569(2) 1.2642(2) 0.0426(3)
N2 N 0.2270(2) 1.1455(2) 0.0184(2)
C1 C 0.3073(3) 1.2152(2) 0.0336(2)
C2 C 0.2808(2) 1.1889(3) 0.0294(3)
C3 C 0.33502(7) 1.2608(4) 0.0702(3)
C4 C 0.3072(3) 1.2343(3) 0.0654(2)
C5 C 0.2573(4) 1.1867(4) 0.0569(3)
C6 C 0.2606(5) 1.2015(5) 0.0875(4)
H1 H 0.2481 1.1937 0.1067
C7 C 0.2835(5) 1.2296(6) 0.0900(5)
H2 H 0.2822 1.2448 0.1088
C8 C 0.2288(4) 1.1624(4) 0.0506(3)
O6 O 0.3360(4) 1.2771(4) 0.0977(3)
O7 O 0.2067(4) 1.1587(5) 0.0721(4)
C9 C 0.3359(6) 1.2145(7) 0.0136(6)
C10 C 0.3650(6) 1.2387(6) 0.0211(6)
C11 C 0.3336(5) 1.1969(6) -0.0168(5)
H3 H 0.3501 1.2009 -0.0340
C12 C 0.3067(7) 1.1727(8) -0.0231(7)
H4 H 0.3065 1.1593 -0.0432
C13 C 0.2814(7) 1.1696(7) 0.0008(6)
C14 C 0.2573(6) 1.1400(7) 0.0019(7)
O8 O 0.3799(4) 1.2484(4) -0.0035(4)
O9 O 0.2509(4) 1.1263(4) -0.0246(4)
C27 C 0.4685(3) 1.3252(3) 0.0490(3)
C28 C 0.4314(2) 1.3230(2) 0.0463(2)
C29 C 0.4138(2) 1.3541(3) 0.0451(2)
H9 H 0.4267 1.3745 0.0455
C30 C 0.3799(2) 1.3564(2) 0.0435(3)
C31 C 0.3603(3) 1.3271(3) 0.0413(3)
H10 H 0.3364 1.3279 0.0383
C32 C 0.3776(2) 1.2968(2) 0.0438(3)
C33 C 0.4136(3) 1.2928(3) 0.0453(3)
H11 H 0.4244 1.2712 0.0455
C34 C 0.1713(3) 1.0332(3) 0.0271(3)
C35 C 0.1697(2) 1.0688(2) 0.0170(3)
C36 C 0.1980(2) 1.0900(3) 0.0224(3)
H12 H 0.2183 1.0809 0.0318
C37 C 0.1962(3) 1.1257(3) 0.0137(3)
C38 C 0.1686(2) 1.1378(2) -0.0005(3)
H13 H 0.1681 1.1609 -0.0078
C39 C 0.1397(2) 1.1174(3) -0.0053(3)
C40 C 0.1407(2) 1.0831(2) 0.0040(2)
H14 H 0.1209 1.0695 0.0014
C41 C 0.3601(3) 1.3893(3) 0.0447(3)
C42 C 0.1103(3) 1.1354(3) -0.0192(3)
O14 O 0.14488(15) 1.01657(15) 0.02331(14)
O15 O 0.19880(18) 1.02195(17) 0.0380(2)
O16 O 0.1121(2) 1.1641(3) -0.03140(19)
O17 O 0.08213(14) 1.11851(15) -0.02042(15)
O18 O 0.37724(14) 1.41612(15) 0.04311(14)
O19 O 0.3285(2) 1.38862(19) 0.0399(4)
O20 O 0.48441(14) 1.35158(15) 0.04728(15)
O21 O 0.4817(2) 1.2976(2) 0.0520(3)
C43 C 0.0695(2) 1.0000(3) 0.0129(3)
H15 H 0.0463 0.9967 0.0045
H16 H 0.0822 1.0143 -0.0032
H17 H 0.0688 1.0112 0.0352
O22 O 0.08522(13) 0.96946(15) 0.01587(13)
Co1H Co -0.03476(3) 1.03383(3) 0.13595(2)
Co1N Co 0.36405(2) 0.46524(3) 0.03383(3)
Co1C Co 0.03383(3) 1.13595(2) -0.03476(3)
Co1N_2 Co 0.36405(2) 1.46524(3) 0.03383(3)
Co1F Co 0.53383(3) 1.36405(2) 0.03476(3)
Co1W Co 0.46524(3) 1.03383(3) 0.36405(2)
Co1A Co 0.36405(2) 1.03476(3) 0.53383(3)
Co1R Co 0.46617(3) 0.63595(2) -0.03476(3)
Co1O Co -0.03383(3) 0.86405(2) 0.03476(3)
Co2N Co 0.28681(6) 1.42067(7) 0.02977(7)
Co2W Co 0.42067(7) 1.02977(7) 0.28681(6)
Co2F Co 0.52977(7) 1.28681(6) 0.07933(7)
Co2A Co 0.28681(6) 1.07933(7) 0.52977(7)
Co2O Co -0.02977(7) 0.78681(6) 0.07933(7)
Co2H Co -0.07933(7) 1.02977(7) 0.21319(6)
Co2N_2 Co 0.28681(6) 0.42067(7) 0.02977(7)
O1H O -0.04392(17) 1.05202(17) 0.18663(13)
O1N O 0.31337(13) 0.45608(17) 0.05202(17)
O1N_2 O 0.31337(13) 1.45608(17) 0.05202(17)
O1W O 0.45608(17) 1.05202(17) 0.31337(13)
O2N O 0.2435(2) 1.4440(5) 0.0298(3)
O2W O 0.4440(5) 1.0298(3) 0.2435(2)
O3N O 0.2570(4) 1.3820(3) 0.0063(5)
O3W O 0.3820(3) 1.0063(5) 0.2570(4)
O4N O 0.2686(3) 1.3999(4) 0.0746(4)
O4W O 0.3999(4) 1.0746(4) 0.2686(3)
O5N O 0.27451(10) 1.47423(13) 0.02963(12)
O5W O 0.47423(13) 1.02963(12) 0.27451(10)
N1H N 0.2642(2) 1.0426(3) 0.3569(2)
N1N N 0.1431(2) 0.7642(2) 0.0426(3)
N2H N 0.1455(2) 1.0184(2) 0.2270(2)
N2N N 0.2730(2) 0.6455(2) 0.0184(2)
C1H C 0.2152(2) 1.0336(2) 0.3073(3)
C1N C 0.1927(3) 0.7152(2) 0.0336(2)
C2H C 0.1889(3) 1.0294(3) 0.2808(2)
C2N C 0.2192(2) 0.6889(3) 0.0294(3)
C3H C 0.2608(4) 1.0702(3) 0.33502(7)
C3N C 0.16498(7) 0.7608(4) 0.0702(3)
C4H C 0.2343(3) 1.0654(2) 0.3072(3)
C4N C 0.1928(3) 0.7343(3) 0.0654(2)
C5H C 0.1867(4) 1.0569(3) 0.2573(4)
C5N C 0.2427(4) 0.6867(4) 0.0569(3)
C6H C 0.2015(5) 1.0875(4) 0.2606(5)
C6N C 0.2394(5) 0.7015(5) 0.0875(4)
H1H H 0.1937 1.1067 0.2481
H1N H 0.2519 0.6937 0.1067
C7H C 0.2296(6) 1.0900(5) 0.2835(5)
C7N C 0.2165(5) 0.7296(6) 0.0900(5)
H2H H 0.2448 1.1088 0.2822
H2N H 0.2178 0.7448 0.1088
C8H C 0.1624(4) 1.0506(3) 0.2288(4)
C8N C 0.2712(4) 0.6624(4) 0.0506(3)
O6H O 0.2771(4) 1.0977(3) 0.3360(4)
O6N O 0.1640(4) 0.7771(4) 0.0977(3)
O7H O 0.1587(5) 1.0721(4) 0.2067(4)
O7N O 0.2933(4) 0.6587(5) 0.0721(4)
C9H C 0.2145(7) 1.0136(6) 0.3359(6)
C9N C 0.1641(6) 0.7145(7) 0.0136(6)
C10H C 0.2387(6) 1.0211(6) 0.3650(6)
C10N C 0.1350(6) 0.7387(6) 0.0211(6)
C11H C 0.1969(6) 0.9832(5) 0.3336(5)
C11N C 0.1664(5) 0.6969(6) -0.0168(5)
H3H H 0.2009 0.9660 0.3501
H3N H 0.1499 0.7009 -0.0340
C12H C 0.1727(8) 0.9769(7) 0.3067(7)
C12N C 0.1933(7) 0.6727(8) -0.0231(7)
H4H H 0.1593 0.9568 0.3065
H4N H 0.1935 0.6593 -0.0432
C13H C 0.1696(7) 1.0008(6) 0.2814(7)
C13N C 0.2186(7) 0.6696(7) 0.0008(6)
C14H C 0.1400(7) 1.0019(7) 0.2573(6)
C14N C 0.2427(6) 0.6400(7) 0.0019(7)
O8H O 0.2484(4) 0.9965(4) 0.3799(4)
O8N O 0.1201(4) 0.7484(4) -0.0035(4)
O9H O 0.1263(4) 0.9754(4) 0.2509(4)
O9N O 0.2491(4) 0.6263(4) -0.0246(4)
C27H C 0.3252(3) 1.0490(3) 0.4685(3)
C27N C 0.0315(3) 0.8252(3) 0.0490(3)
C28H C 0.3230(2) 1.0463(2) 0.4314(2)
C28N C 0.0686(2) 0.8230(2) 0.0463(2)
C29H C 0.3541(3) 1.0451(2) 0.4138(2)
C29N C 0.0862(2) 0.8541(3) 0.0451(2)
H9H H 0.3745 1.0455 0.4267
H9N H 0.0733 0.8745 0.0455
C30H C 0.3564(2) 1.0435(3) 0.3799(2)
C30N C 0.1201(2) 0.8564(2) 0.0435(3)
C31H C 0.3271(3) 1.0413(3) 0.3603(3)
C31N C 0.1397(3) 0.8271(3) 0.0413(3)
H10H H 0.3279 1.0383 0.3364
H10N H 0.1636 0.8279 0.0383
C32H C 0.2968(2) 1.0438(3) 0.3776(2)
C32N C 0.1224(2) 0.7968(2) 0.0438(3)
C33H C 0.2928(3) 1.0453(3) 0.4136(3)
C33N C 0.0864(3) 0.7928(3) 0.0453(3)
H11H H 0.2712 1.0455 0.4244
H11N H 0.0756 0.7712 0.0455
C34H C 0.0332(3) 1.0271(3) 0.1713(3)
C34N C 0.3287(3) 0.5332(3) 0.0271(3)
C35H C 0.0688(2) 1.0170(3) 0.1697(2)
C35N C 0.3303(2) 0.5688(2) 0.0170(3)
C36H C 0.0900(3) 1.0224(3) 0.1980(2)
C36N C 0.3020(2) 0.5900(3) 0.0224(3)
H12H H 0.0809 1.0318 0.2183
H12N H 0.2817 0.5809 0.0318
C37H C 0.1257(3) 1.0137(3) 0.1962(3)
C37N C 0.3038(3) 0.6257(3) 0.0137(3)
C38H C 0.1378(2) 0.9995(3) 0.1686(2)
C38N C 0.3314(2) 0.6378(2) -0.0005(3)
H13H H 0.1609 0.9922 0.1681
H13N H 0.3319 0.6609 -0.0078
C39H C 0.1174(3) 0.9947(3) 0.1397(2)
C39N C 0.3603(2) 0.6174(3) -0.0053(3)
C40H C 0.0831(2) 1.0040(2) 0.1407(2)
C40N C 0.3593(2) 0.5831(2) 0.0040(2)
H14H H 0.0695 1.0014 0.1209
H14N H 0.3791 0.5695 0.0014
C41H C 0.3893(3) 1.0447(3) 0.3601(3)
C41N C 0.1399(3) 0.8893(3) 0.0447(3)
C42H C 0.1354(3) 0.9808(3) 0.1103(3)
C42N C 0.3897(3) 0.6354(3) -0.0192(3)
O14H O 0.01657(15) 1.02331(14) 0.14488(15)
O14N O 0.35512(15) 0.51657(15) 0.02331(14)
O15H O 0.02195(17) 1.0380(2) 0.19880(18)
O15N O 0.30120(18) 0.52195(17) 0.0380(2)
O16H O 0.1641(3) 0.96860(19) 0.1121(2)
O16N O 0.3879(2) 0.6641(3) -0.03140(19)
O17H O 0.11851(15) 0.97958(15) 0.08213(14)
O17N O 0.41787(14) 0.61851(15) -0.02042(15)
O17C O -0.02042(15) 1.08213(14) 0.11851(15)
O17U O 0.38149(15) 0.47958(15) 0.08213(14)
O18H O 0.41612(15) 1.04311(14) 0.37724(14)
O18N O 0.12276(14) 0.91612(15) 0.04311(14)
O18W O -0.08388(15) 1.04311(14) 0.12276(14)
O18_2 O 0.37724(14) 0.41612(15) 0.04311(14)
O19H O 0.38862(19) 1.0399(4) 0.3285(2)
O19N O 0.1715(2) 0.88862(19) 0.0399(4)
O20H O 0.35158(15) 1.04728(15) 0.48441(14)
O20N O 0.01559(14) 0.85158(15) 0.04728(15)
O20K O 0.14842(15) 0.95272(15) -0.01559(14)
O20G O -0.04728(15) 0.98441(14) 0.14842(15)
O20V O 0.35158(15) 0.45272(15) -0.01559(14)
O21H O 0.2976(2) 1.0520(3) 0.4817(2)
O21N O 0.0183(2) 0.7976(2) 0.0520(3)
O21K O 0.2024(2) 0.9480(3) -0.0183(2)
O21V O 0.2976(2) 1.4480(3) -0.0183(2)
O21R O 0.4480(3) 0.9817(2) 0.2976(2)
C43H C -0.0000(3) 1.0129(3) 0.0695(2)
C43N C 0.4305(2) 0.5000(3) 0.0129(3)
H15H H -0.0033 1.0045 0.0463
H15N H 0.4537 0.4967 0.0045
H16H H 0.0143 0.9968 0.0822
H16N H 0.4178 0.5143 -0.0032
H17H H 0.0112 1.0352 0.0688
H17N H 0.4312 0.5112 0.0352
O22H O -0.03054(15) 1.01587(13) 0.08522(13)
O22N O 0.41478(13) 0.46946(15) 0.01587(13)
C44 C 0.0642(7) 0.7904(7) -0.0502(7)
O23 O 0.0490(5) 0.7610(5) -0.0416(5)
O25 O 0.9205(2) 0.7889(2) 0.0144(3)
O26 O 0.2675(3) 1.0043(5) -0.0101(6)
O27 O 0.2217(6) 0.7982(6) 0.0231(6)
O28 O 0.1671(8) 0.8578(8) -0.0452(8)
O29 O 0.1351(11) 0.8907(11) 0.1579(12)
O30 O 0.2912(11) 0.7213(11) -0.0178(11)
O31 O 0.4134(11) 0.6127(11) 0.1647(11)
O33 O 0.4213(6) 0.5787(6) 0.0787(6)
loop_
_geom_bond_atom_site_label_1
_geom_bond_atom_site_label_2
_geom_bond_site_symmetry_1
_geom_bond_site_symmetry_2
Co1 O1 1_555 1_555
Co2 O1 1_555 1_555
O2 Co2 1_555 1_555
O3 Co2 1_555 1_555
O4 Co2 1_555 1_555
O5 Co2 1_555 1_555
N1 C3 1_555 1_555
N2 C8 1_555 1_555
C1 C2 1_555 1_555
C2 C5 1_555 1_555
C3 C4 1_555 1_555
C4 C1 1_555 1_555
C5 C6 1_555 1_555
C6 H1 1_555 1_555
C7 C4 1_555 1_555
H2 C7 1_555 1_555
C8 C5 1_555 1_555
O6 C3 1_555 1_555
O7 C8 1_555 1_555
C9 C1 1_555 1_555
C10 N1 1_555 1_555
C11 C9 1_555 1_555
H3 C11 1_555 1_555
C12 C11 1_555 1_555
H4 C12 1_555 1_555
C13 C2 1_555 1_555
C14 N2 1_555 1_555
O8 C10 1_555 1_555
O9 C14 1_555 1_555
C27 C28 1_555 1_555
C28 C29 1_555 1_555
C29 H9 1_555 1_555
C30 C29 1_555 1_555
C31 C30 1_555 1_555
H10 C31 1_555 1_555
C32 N1 1_555 1_555
C33 C28 1_555 1_555
H11 C33 1_555 1_555
C34 C35 1_555 1_555
C35 C36 1_555 1_555
C36 H12 1_555 1_555
C37 N2 1_555 1_555
C38 C37 1_555 1_555
H13 C38 1_555 1_555
C39 C38 1_555 1_555
C40 C35 1_555 1_555
H14 C40 1_555 1_555
C41 C30 1_555 1_555
C42 C39 1_555 1_555
O14 Co1 1_555 1_555
O15 C34 1_555 1_555
O16 C42 1_555 1_555
O17 C42 1_555 1_555
O18 C41 1_555 1_555
O19 C41 1_555 1_555
O20 C27 1_555 1_555
O21 C27 1_555 1_555
C43 H15 1_555 1_555
H16 C43 1_555 1_555
H17 C43 1_555 1_555
O22 Co1 1_555 1_555
C44 O23 1_555 1_555
Co1H O1H 1_555 1_555
Co1N O1N 1_555 1_555
Co1C O17 1_555 1_555
Co1N_2 O18 1_555 1_555
Co1F O20 1_555 1_555
Co1W O1W 1_555 1_555
Co1A O20H 1_555 1_555
Co1R O17N 1_555 1_555
Co1O O20N 1_555 1_555
Co2N O19 1_555 1_555
Co2W O1W 1_555 1_555
Co2F O21 1_555 1_555
Co2A O21H 1_555 1_555
Co2O O21N 1_555 1_555
Co2H O1H 1_555 1_555
Co2N_2 O1N 1_555 1_555
O1N_2 Co1N_2 1_555 1_555
O2N Co2N 1_555 1_555
O2W Co2W 1_555 1_555
O3N Co2N 1_555 1_555
O3W Co2W 1_555 1_555
O4N Co2N 1_555 1_555
O4W Co2W 1_555 1_555
O5N Co2N 1_555 1_555
O5W Co2W 1_555 1_555
N1H C3H 1_555 1_555
N1N C3N 1_555 1_555
N2H C8H 1_555 1_555
N2N C8N 1_555 1_555
C1H C2H 1_555 1_555
C1N C2N 1_555 1_555
C2H C5H 1_555 1_555
C2N C5N 1_555 1_555
C3H C4H 1_555 1_555
C3N C4N 1_555 1_555
C4H C1H 1_555 1_555
C4N C1N 1_555 1_555
C5H C6H 1_555 1_555
C5N C6N 1_555 1_555
C6H H1H 1_555 1_555
C6N H1N 1_555 1_555
C7H C4H 1_555 1_555
C7N C4N 1_555 1_555
H2H C7H 1_555 1_555
H2N C7N 1_555 1_555
C8H C5H 1_555 1_555
C8N C5N 1_555 1_555
O6H C3H 1_555 1_555
O6N C3N 1_555 1_555
O7H C8H 1_555 1_555
O7N C8N 1_555 1_555
C9H C1H 1_555 1_555
C9N C1N 1_555 1_555
C10H N1H 1_555 1_555
C10N N1N 1_555 1_555
C11H C9H 1_555 1_555
C11N C9N 1_555 1_555
H3H C11H 1_555 1_555
H3N C11N 1_555 1_555
C12H C11H 1_555 1_555
C12N C11N 1_555 1_555
H4H C12H 1_555 1_555
H4N C12N 1_555 1_555
C13H C2H 1_555 1_555
C13N C2N 1_555 1_555
C14H N2H 1_555 1_555
C14N N2N 1_555 1_555
O8H C10H 1_555 1_555
O8N C10N 1_555 1_555
O9H C14H 1_555 1_555
O9N C14N 1_555 1_555
C27H C28H 1_555 1_555
C27N C28N 1_555 1_555
C28H C29H 1_555 1_555
C28N C29N 1_555 1_555
C29H H9H 1_555 1_555
C29N H9N 1_555 1_555
C30H C29H 1_555 1_555
C30N C29N 1_555 1_555
C31H C30H 1_555 1_555
C31N C30N 1_555 1_555
H10H C31H 1_555 1_555
H10N C31N 1_555 1_555
C32H N1H 1_555 1_555
C32N N1N 1_555 1_555
C33H C28H 1_555 1_555
C33N C28N 1_555 1_555
H11H C33H 1_555 1_555
H11N C33N 1_555 1_555
C34H C35H 1_555 1_555
C34N C35N 1_555 1_555
C35H C36H 1_555 1_555
C35N C36N 1_555 1_555
C36H H12H 1_555 1_555
C36N H12N 1_555 1_555
C37H N2H 1_555 1_555
C37N N2N 1_555 1_555
C38H C37H 1_555 1_555
C38N C37N 1_555 1_555
H13H C38H 1_555 1_555
H13N C38N 1_555 1_555
C39H C38H 1_555 1_555
C39N C38N 1_555 1_555
C40H C35H 1_555 1_555
C40N C35N 1_555 1_555
H14H C40H 1_555 1_555
H14N C40N 1_555 1_555
C41H C30H 1_555 1_555
C41N C30N 1_555 1_555
C42H C39H 1_555 1_555
C42N C39N 1_555 1_555
O14H Co1H 1_555 1_555
O14N Co1N 1_555 1_555
O15H C34H 1_555 1_555
O15N C34N 1_555 1_555
O16H C42H 1_555 1_555
O16N C42N 1_555 1_555
O17H Co1 1_555 1_555
O17N C42N 1_555 1_555
O17C Co1H 1_555 1_555
O17U Co1N 1_555 1_555
O18H Co1W 1_555 1_555
O18N Co1 1_555 1_555
O18W Co1H 1_555 1_555
O18_2 Co1N 1_555 1_555
O19H Co2W 1_555 1_555
O19N Co2 1_555 1_555
O20H C27H 1_555 1_555
O20N C27N 1_555 1_555
O20K Co1 1_555 1_555
O20G Co1H 1_555 1_555
O20V Co1N 1_555 1_555
O21H C27H 1_555 1_555
O21N C27N 1_555 1_555
O21K Co2 1_555 1_555
O21V Co2N 1_555 1_555
O21R Co2W 1_555 1_555
C43H H15H 1_555 1_555
C43N H15N 1_555 1_555
H16H C43H 1_555 1_555
H16N C43N 1_555 1_555
H17H C43H 1_555 1_555
H17N C43N 1_555 1_555
O22H Co1H 1_555 1_555
O22N Co1N 1_555 1_555
C6 C7 1_555 1_555
C9 C10 1_555 1_555
C12 C13 1_555 1_555
C13 C14 1_555 1_555
C31 C32 1_555 1_555
C32 C33 1_555 1_555
C34 O14 1_555 1_555
C36 C37 1_555 1_555
C39 C40 1_555 1_555
C43 O22 1_555 1_555
Co2N O1N_2 1_555 1_555
C6H C7H 1_555 1_555
C6N C7N 1_555 1_555
C9H C10H 1_555 1_555
C9N C10N 1_555 1_555
C12H C13H 1_555 1_555
C12N C13N 1_555 1_555
C13H C14H 1_555 1_555
C13N C14N 1_555 1_555
C31H C32H 1_555 1_555
C31N C32N 1_555 1_555
C32H C33H 1_555 1_555
C32N C33N 1_555 1_555
C34H O14H 1_555 1_555
C34N O14N 1_555 1_555
C36H C37H 1_555 1_555
C36N C37N 1_555 1_555
C39H C40H 1_555 1_555
C39N C40N 1_555 1_555
C41H O18H 1_555 1_555
C41H O19H 1_555 1_555
C41N O18N 1_555 1_555
C41N O19N 1_555 1_555
C42H O17H 1_555 1_555
C43H O22H 1_555 1_555
C43N O22N 1_555 1_555

#END
