
#######################################################################
#
#                 Cambridge Crystallographic Data Centre
#                                CCDC 
#
#######################################################################
#
# If this CIF has been generated from an entry in the Cambridge 
# Structural Database, then it will include bibliographic, chemical, 
# crystal, experimental, refinement or atomic coordinate data resulting 
# from the CCDC's data processing and validation procedures.
#
#######################################################################

data_FIJCUX01
_chemical_formula_moiety         '(C63 H63 N3 O33 Zn9)n'
_symmetry_cell_setting           monoclinic
_symmetry_space_group_name_H-M   'P 21/n'
_symmetry_Int_Tables_number      14
_space_group_name_Hall           '-P 2yn'
loop_
_symmetry_equiv_pos_site_id
_symmetry_equiv_pos_as_xyz
1 x,y,z
2 1/2-x,1/2+y,1/2-z
3 -x,-y,-z
4 1/2+x,1/2-y,1/2+z
_cell_length_a                   17.7374(3)
_cell_length_b                   15.2605(2)
_cell_length_c                   18.2635(2)
_cell_angle_alpha                90.00
_cell_angle_beta                 113.0710(10)
_cell_angle_gamma                90.00
_cell_volume                     4548.2
loop_
_atom_site_label
_atom_site_type_symbol
_atom_site_fract_x
_atom_site_fract_y
_atom_site_fract_z
Zn1 Zn 0.0000 0.0000 0.0000
Zn2 Zn 0.49975(3) -0.49540(3) 0.16576(3)
Zn3 Zn -0.00199(3) -0.09639(3) -0.16618(3)
Zn4 Zn 0.50227(3) -0.59603(3) 0.00479(2)
Zn5 Zn 0.00195(3) 0.09316(3) -0.16714(3)
O1 O 0.54713(18) -0.49647(15) 0.28869(16)
H1 H 0.6072 -0.4951 0.3119
O2 O 0.45240(17) -0.49819(15) 0.04332(15)
H2 H 0.3924 -0.4999 0.0201
O3 O -0.04698(18) 0.00130(15) -0.12214(15)
H3 H -0.1070 0.0028 -0.1454
O4 O 0.41665(19) -0.33035(18) 0.25781(16)
O5 O 0.07673(19) -0.17226(19) -0.08997(17)
O6 O 0.92418(18) -0.82353(18) 0.43194(16)
O7 O 0.61177(17) -0.55384(19) 0.17461(16)
O8 O 0.39168(17) -0.43229(19) 0.16347(16)
O9 O 0.0653(2) 0.1203(2) 0.01086(17)
O10 O 0.59158(19) -0.65874(18) 0.08386(16)
O11 O 0.10419(18) -0.06928(19) 0.00363(17)
O12 O 0.94692(19) -0.87065(19) 0.32705(17)
O13 O 0.44257(19) 0.3793(2) 0.15361(17)
O14 O 0.0906(2) 0.1615(2) -0.09430(17)
O15 O 0.4149(2) 0.33845(19) 0.25765(17)
C1 C 0.9095(3) -0.8249(3) 0.3578(2)
C2 C 0.8424(3) -0.7663(3) 0.3048(2)
C3 C 0.8090(3) -0.7821(3) 0.2233(2)
H4 H 0.8323 -0.8244 0.2020
C4 C 0.7417(3) -0.7359(3) 0.1739(2)
H5 H 0.7191 -0.7482 0.1197
C5 C 0.7071(3) -0.6708(3) 0.2044(2)
C6 C 0.6312(3) -0.6239(3) 0.1511(2)
C7 C 0.7427(3) -0.6515(3) 0.2851(2)
H6 H 0.7219 -0.6062 0.3057
C8 C 0.8094(3) -0.7000(3) 0.3351(2)
H7 H 0.8321 -0.6879 0.3894
C9 C 0.1166(3) -0.1417(3) -0.0212(2)
C10 C 0.1843(3) -0.1985(3) 0.0327(2)
C11 C 0.2297(3) -0.1722(3) 0.1109(2)
H8 H 0.2175 -0.1195 0.1294
C12 C 0.2929(3) -0.2242(3) 0.1609(2)
H9 H 0.3234 -0.2063 0.2129
C13 C 0.3107(3) -0.3034(3) 0.1334(2)
C14 C 0.3786(3) -0.3600(3) 0.1881(2)
C15 C 0.2669(3) -0.3295(3) 0.0556(2)
H10 H 0.2799 -0.3817 0.0369
C16 C 0.2033(3) -0.2771(3) 0.0054(2)
H11 H 0.1733 -0.2948 -0.0467
C17 C 0.4004(3) 0.3408(3) 0.1835(2)
C18 C 0.3242(3) 0.2929(3) 0.1305(2)
C19 C 0.3013(3) 0.2941(3) 0.0486(2)
H12 H 0.3335 0.3228 0.0264
C20 C 0.2299(3) 0.2519(3) 0.0002(2)
H13 H 0.2141 0.2532 -0.0547
C21 C 0.1815(3) 0.2078(3) 0.0322(2)
C22 C 0.1063(3) 0.1589(3) -0.0198(2)
C23 C 0.2055(3) 0.2063(3) 0.1146(2)
H14 H 0.1738 0.1767 0.1369
C24 C 0.2761(3) 0.2486(3) 0.1632(2)
H15 H 0.2917 0.2475 0.2181
Zn2B Zn -0.49975(3) 0.49540(3) -0.16576(3)
Zn2A Zn 1.00025(3) -0.99540(3) 0.33424(3)
Zn2_2 Zn 0.49975(3) 0.50460(3) 0.16576(3)
Zn2B_2 Zn -0.49975(3) -0.50460(3) -0.16576(3)
Zn2A_2 Zn 1.00025(3) 0.00460(3) 0.33424(3)
Zn2C Zn -0.00025(3) -0.00460(3) -0.33424(3)
Zn3B Zn 0.00199(3) 0.09639(3) 0.16618(3)
Zn3C Zn 0.49801(3) -0.40361(3) 0.33382(3)
Zn3A Zn -0.49801(3) 0.40361(3) -0.33382(3)
Zn4B Zn -0.50227(3) 0.59603(3) -0.00479(2)
Zn4B_2 Zn 0.49773(3) -0.40397(3) -0.00479(2)
Zn4C Zn 1.00227(3) -0.90397(3) 0.50479(2)
Zn4A Zn 0.99773(3) -0.09603(3) 0.49521(2)
Zn4_2 Zn -0.49773(3) 0.40397(3) 0.00479(2)
Zn5B Zn -0.00195(3) -0.09316(3) 0.16714(3)
Zn5C Zn 0.50195(3) -0.59316(3) 0.33286(3)
Zn5C_2 Zn 0.50195(3) 0.40684(3) 0.33286(3)
Zn5A Zn -0.50195(3) -0.40684(3) -0.33286(3)
O1C O 0.04713(18) -0.00353(15) -0.21131(16)
O1B O -0.54713(18) 0.49647(15) -0.28869(16)
O1A O -0.04713(18) 0.00353(15) 0.21131(16)
H1C H 0.1072 -0.0049 -0.1881
H1B H -0.6072 0.4951 -0.3119
H1A H -0.1072 0.0049 0.1881
O2B O -0.45240(17) 0.49819(15) -0.04332(15)
O2B_2 O 0.54760(17) -0.50181(15) -0.04332(15)
O2_2 O -0.54760(17) 0.50181(15) 0.04332(15)
H2B H -0.3924 0.4999 -0.0201
H2B_2 H 0.6076 -0.5001 -0.0201
H2_2 H -0.6076 0.5001 0.0201
O3B O 0.04698(18) -0.00130(15) 0.12214(15)
H3B H 0.1070 -0.0028 0.1454
O4B O -0.41665(19) 0.33035(18) -0.25781(16)
O4C O -0.08335(19) -0.16965(18) -0.24219(16)
O4A O 0.08335(19) 0.16965(18) 0.24219(16)
O5B O -0.07673(19) 0.17226(19) 0.08997(17)
O6A O 0.57582(18) -0.32353(18) 0.06806(16)
O6C O 0.42418(18) -0.67647(18) -0.06806(16)
O6A_2 O -0.42418(18) 0.67647(18) 0.06806(16)
O7A O 0.88823(17) -0.05384(19) 0.32539(16)
O7B O -0.61177(17) 0.55384(19) -0.17461(16)
O8B O -0.39168(17) 0.43229(19) -0.16347(16)
O9B O -0.0653(2) -0.1203(2) -0.01086(17)
O10A O 0.90842(19) -0.15874(18) 0.41614(16)
O10B O -0.59158(19) 0.65874(18) -0.08386(16)
O11B O -0.10419(18) 0.06928(19) -0.00363(17)
O12A O 0.55308(19) -0.37065(19) 0.17295(17)
O12C O -0.55308(19) 0.37065(19) -0.17295(17)
O13B O -0.44257(19) -0.3793(2) -0.15361(17)
O13_2 O 0.44257(19) -0.6207(2) 0.15361(17)
O13B_2 O -0.44257(19) 0.6207(2) -0.15361(17)
O14B O -0.0906(2) -0.1615(2) 0.09430(17)
O15B O -0.4149(2) -0.33845(19) -0.25765(17)
O15C O -0.0851(2) 0.16155(19) -0.24235(17)
O15A O 0.0851(2) -0.16155(19) 0.24235(17)
C1A C 0.5905(3) -0.3249(3) 0.1422(2)
C2A C 0.6576(3) -0.2663(3) 0.1952(2)
C3A C 0.6910(3) -0.2821(3) 0.2767(2)
H4A H 0.6677 -0.3244 0.2980
C4A C 0.7583(3) -0.2359(3) 0.3261(2)
H5A H 0.7809 -0.2482 0.3803
C5A C 0.7929(3) -0.1708(3) 0.2956(2)
C6A C 0.8688(3) -0.1239(3) 0.3489(2)
C7A C 0.7573(3) -0.1515(3) 0.2149(2)
H6A H 0.7781 -0.1062 0.1943
C8A C 0.6906(3) -0.2000(3) 0.1649(2)
H7A H 0.6679 -0.1879 0.1106
C9B C -0.1166(3) 0.1417(3) 0.0212(2)
C10B C -0.1843(3) 0.1985(3) -0.0327(2)
C11B C -0.2297(3) 0.1722(3) -0.1109(2)
H8B H -0.2175 0.1195 -0.1294
C12B C -0.2929(3) 0.2242(3) -0.1609(2)
H9B H -0.3234 0.2063 -0.2129
C13B C -0.3107(3) 0.3034(3) -0.1334(2)
C14B C -0.3786(3) 0.3600(3) -0.1881(2)
C15B C -0.2669(3) 0.3295(3) -0.0556(2)
H10B H -0.2799 0.3817 -0.0369
C16B C -0.2033(3) 0.2771(3) -0.0054(2)
H11B H -0.1733 0.2948 0.0467
C17B C -0.4004(3) -0.3408(3) -0.1835(2)
C18B C -0.3242(3) -0.2929(3) -0.1305(2)
C19B C -0.3013(3) -0.2941(3) -0.0486(2)
H12B H -0.3335 -0.3228 -0.0264
C20B C -0.2299(3) -0.2519(3) -0.0002(2)
H13B H -0.2141 -0.2532 0.0547
C21B C -0.1815(3) -0.2078(3) -0.0322(2)
C22B C -0.1063(3) -0.1589(3) 0.0198(2)
C23B C -0.2055(3) -0.2063(3) -0.1146(2)
H14B H -0.1738 -0.1767 -0.1369
C24B C -0.2761(3) -0.2486(3) -0.1632(2)
H15B H -0.2917 -0.2475 -0.2181
O16 O 0.2151(2) -0.0299(2) -0.1210(2)
C25 C 0.2454(4) -0.0044(3) -0.0529(3)
H16 H 0.2128 0.0303 -0.0353
N1 N 0.3205(3) -0.0215(3) -0.0013(3)
C26 C 0.3792(4) -0.0688(4) -0.0268(4)
H17 H 0.3502 -0.0909 -0.0804
H18 H 0.4205 -0.0279 -0.0282
C27 C 0.4195(5) -0.1414(5) 0.0254(4)
H19 H 0.4538 -0.1193 0.0769
H20 H 0.4525 -0.1731 0.0034
H21 H 0.3789 -0.1799 0.0303
C28 C 0.3494(5) 0.0168(5) 0.0787(4)
H22 H 0.3034 0.0438 0.0862
H23 H 0.3702 -0.0297 0.1178
C29 C 0.4132(5) 0.0819(5) 0.0929(5)
H24 H 0.4623 0.0537 0.0947
H25 H 0.4239 0.1107 0.1427
H26 H 0.3957 0.1242 0.0507
O17 O -0.2174(3) 0.0016(2) -0.5477(3)
C30 C -0.2466(4) 0.0354(4) -0.6136(3)
H27 H -0.2107 0.0653 -0.6307
N2 N -0.3244(3) 0.0332(3) -0.6628(3)
C31 C -0.3837(5) -0.0181(4) -0.6437(4)
H28 H -0.3555 -0.0470 -0.5930
H29 H -0.4238 0.0215 -0.6378
C32 C -0.4267(5) -0.0841(5) -0.7034(4)
H30 H -0.3879 -0.1254 -0.7077
H31 H -0.4656 -0.1141 -0.6877
H32 H -0.4549 -0.0561 -0.7539
C33 C -0.3537(5) 0.0837(5) -0.7387(4)
H33 H -0.3853 0.0452 -0.7821
H34 H -0.3068 0.1042 -0.7485
C34 C -0.4050(5) 0.1600(5) -0.7373(5)
H35 H -0.3723 0.2015 -0.6984
H36 H -0.4265 0.1872 -0.7888
H37 H -0.4495 0.1406 -0.7239
O18 O -0.2162(2) -0.0162(2) -0.2084(2)
C35 C -0.2459(4) 0.0096(3) -0.2766(3)
H38 H -0.2129 0.0440 -0.2940
N3 N -0.3209(3) -0.0068(3) -0.3282(3)
C36 C -0.3768(4) -0.0604(4) -0.3067(4)
H39 H -0.4233 -0.0248 -0.3097
H40 H -0.3491 -0.0797 -0.2520
C37 C -0.4070(4) -0.1376(4) -0.3581(4)
H41 H -0.4390 -0.1189 -0.4115
H42 H -0.4404 -0.1725 -0.3388
H43 H -0.3613 -0.1717 -0.3574
C38 C -0.3504(6) 0.0315(5) -0.4095(5)
H44 H -0.3054 0.0610 -0.4166
H45 H -0.3694 -0.0152 -0.4485
C39 C -0.4173(6) 0.0940(6) -0.4227(5)
H46 H -0.4647 0.0634 -0.4230
H47 H -0.4305 0.1228 -0.4730
H48 H -0.4006 0.1369 -0.3809
loop_
_geom_bond_atom_site_label_1
_geom_bond_atom_site_label_2
_geom_bond_site_symmetry_1
_geom_bond_site_symmetry_2
Zn1 O3 1_555 1_555
Zn2 O1 1_555 1_555
Zn3 O3 1_555 1_555
Zn4 O2 1_555 1_555
Zn5 O3 1_555 1_555
O1 H1 1_555 1_555
O2 Zn2 1_555 1_555
H2 O2 1_555 1_555
O3 H3 1_555 1_555
O4 C14 1_555 1_555
O5 Zn3 1_555 1_555
O6 C1 1_555 1_555
O7 Zn2 1_555 1_555
O8 Zn2 1_555 1_555
O9 Zn1 1_555 1_555
O10 Zn4 1_555 1_555
O11 Zn1 1_555 1_555
O12 C1 1_555 1_555
O13 C17 1_555 1_555
O14 Zn5 1_555 1_555
O15 C17 1_555 1_555
C1 C2 1_555 1_555
C2 C3 1_555 1_555
C3 H4 1_555 1_555
C4 C3 1_555 1_555
H5 C4 1_555 1_555
C5 C4 1_555 1_555
C6 O7 1_555 1_555
C7 C5 1_555 1_555
H6 C7 1_555 1_555
C8 C2 1_555 1_555
H7 C8 1_555 1_555
C9 O5 1_555 1_555
C10 C9 1_555 1_555
C11 C10 1_555 1_555
H8 C11 1_555 1_555
C12 C11 1_555 1_555
H9 C12 1_555 1_555
C13 C12 1_555 1_555
C14 O8 1_555 1_555
C15 C13 1_555 1_555
H10 C15 1_555 1_555
C16 C10 1_555 1_555
H11 C16 1_555 1_555
C17 C18 1_555 1_555
C18 C19 1_555 1_555
C19 H12 1_555 1_555
C20 C19 1_555 1_555
H13 C20 1_555 1_555
C21 C20 1_555 1_555
C22 O9 1_555 1_555
C23 C21 1_555 1_555
H14 C23 1_555 1_555
C24 C18 1_555 1_555
H15 C24 1_555 1_555
O16 C25 1_555 1_555
C25 H16 1_555 1_555
N1 C25 1_555 1_555
C26 N1 1_555 1_555
H17 C26 1_555 1_555
H18 C26 1_555 1_555
C27 C26 1_555 1_555
H19 C27 1_555 1_555
H20 C27 1_555 1_555
H21 C27 1_555 1_555
C28 N1 1_555 1_555
H22 C28 1_555 1_555
H23 C28 1_555 1_555
C29 C28 1_555 1_555
H24 C29 1_555 1_555
H25 C29 1_555 1_555
H26 C29 1_555 1_555
O17 C30 1_555 1_555
C30 H27 1_555 1_555
N2 C30 1_555 1_555
C31 N2 1_555 1_555
H28 C31 1_555 1_555
H29 C31 1_555 1_555
C32 C31 1_555 1_555
H30 C32 1_555 1_555
H31 C32 1_555 1_555
H32 C32 1_555 1_555
C33 N2 1_555 1_555
H33 C33 1_555 1_555
H34 C33 1_555 1_555
C34 C33 1_555 1_555
H35 C34 1_555 1_555
H36 C34 1_555 1_555
H37 C34 1_555 1_555
O18 C35 1_555 1_555
C35 H38 1_555 1_555
N3 C35 1_555 1_555
C36 N3 1_555 1_555
H39 C36 1_555 1_555
H40 C36 1_555 1_555
C37 C36 1_555 1_555
H41 C37 1_555 1_555
H42 C37 1_555 1_555
H43 C37 1_555 1_555
C38 N3 1_555 1_555
H44 C38 1_555 1_555
H45 C38 1_555 1_555
C39 C38 1_555 1_555
H46 C39 1_555 1_555
H47 C39 1_555 1_555
H48 C39 1_555 1_555
Zn2B O1B 1_555 1_555
Zn2A O12 1_555 1_555
Zn2_2 O13 1_555 1_555
Zn2B_2 O13B 1_555 1_555
Zn2A_2 O7A 1_555 1_555
Zn2C O1C 1_555 1_555
Zn3B O1A 1_555 1_555
Zn3C O1 1_555 1_555
Zn3A O1B 1_555 1_555
Zn4B O2B 1_555 1_555
Zn4B_2 O2 1_555 1_555
Zn4C O6 1_555 1_555
Zn4A O10A 1_555 1_555
Zn4_2 O2B 1_555 1_555
Zn5B O1A 1_555 1_555
Zn5C O1 1_555 1_555
Zn5C_2 O15 1_555 1_555
Zn5A O15B 1_555 1_555
O1C Zn3 1_555 1_555
O1B H1B 1_555 1_555
O1A H1A 1_555 1_555
H1C O1C 1_555 1_555
O2B Zn2B 1_555 1_555
O2B_2 Zn4 1_555 1_555
O2_2 Zn4B 1_555 1_555
H2B O2B 1_555 1_555
H2B_2 O2B_2 1_555 1_555
H2_2 O2_2 1_555 1_555
O3B Zn1 1_555 1_555
H3B O3B 1_555 1_555
O4B Zn3A 1_555 1_555
O4C Zn3 1_555 1_555
O4A Zn3B 1_555 1_555
O5B Zn3B 1_555 1_555
O6A Zn4B_2 1_555 1_555
O6C Zn4 1_555 1_555
O6A_2 Zn4B 1_555 1_555
O7A C6A 1_555 1_555
O7B Zn2B 1_555 1_555
O8B Zn2B 1_555 1_555
O9B Zn1 1_555 1_555
O10A C6A 1_555 1_555
O10B Zn4B 1_555 1_555
O11B Zn1 1_555 1_555
O12A Zn2 1_555 1_555
O12C Zn2B 1_555 1_555
O13B C17B 1_555 1_555
O13_2 Zn2 1_555 1_555
O13B_2 Zn2B 1_555 1_555
O14B Zn5B 1_555 1_555
O15B C17B 1_555 1_555
O15C Zn5 1_555 1_555
O15A Zn5B 1_555 1_555
C1A O6A 1_555 1_555
C2A C1A 1_555 1_555
C3A C2A 1_555 1_555
H4A C3A 1_555 1_555
C4A C3A 1_555 1_555
H5A C4A 1_555 1_555
C5A C4A 1_555 1_555
C6A C5A 1_555 1_555
C7A C5A 1_555 1_555
H6A C7A 1_555 1_555
C8A C2A 1_555 1_555
H7A C8A 1_555 1_555
C9B O5B 1_555 1_555
C10B C9B 1_555 1_555
C11B C10B 1_555 1_555
H8B C11B 1_555 1_555
C12B C11B 1_555 1_555
H9B C12B 1_555 1_555
C13B C12B 1_555 1_555
C14B O4B 1_555 1_555
C15B C13B 1_555 1_555
H10B C15B 1_555 1_555
C16B C10B 1_555 1_555
H11B C16B 1_555 1_555
C17B C18B 1_555 1_555
C18B C19B 1_555 1_555
C19B H12B 1_555 1_555
C20B C19B 1_555 1_555
H13B C20B 1_555 1_555
C21B C20B 1_555 1_555
C22B O9B 1_555 1_555
C23B C21B 1_555 1_555
H14B C23B 1_555 1_555
C24B C18B 1_555 1_555
H15B C24B 1_555 1_555
Zn5 O1C 1_555 1_555
O4 Zn3C 1_555 1_555
O10 C6 1_555 1_555
O11 C9 1_555 1_555
O14 C22 1_555 1_555
C5 C6 1_555 1_555
C7 C8 1_555 1_555
C13 C14 1_555 1_555
C15 C16 1_555 1_555
C21 C22 1_555 1_555
C23 C24 1_555 1_555
Zn3B O3B 1_555 1_555
Zn4B_2 O2B_2 1_555 1_555
Zn4_2 O2_2 1_555 1_555
Zn5B O3B 1_555 1_555
O8B C14B 1_555 1_555
O11B C9B 1_555 1_555
O12A C1A 1_555 1_555
O14B C22B 1_555 1_555
C7A C8A 1_555 1_555
C13B C14B 1_555 1_555
C15B C16B 1_555 1_555
C21B C22B 1_555 1_555
C23B C24B 1_555 1_555

#END
