
#######################################################################
#
#                 Cambridge Crystallographic Data Centre
#                                CCDC 
#
#######################################################################
#
# If this CIF has been generated from an entry in the Cambridge 
# Structural Database, then it will include bibliographic, chemical, 
# crystal, experimental, refinement or atomic coordinate data resulting 
# from the CCDC's data processing and validation procedures.
#
#######################################################################

data_EPUSUE
_chemical_formula_moiety         '(C20 H20 Ag14 N30 O88 Si2 W24 4+)n'
_symmetry_cell_setting           triclinic
_symmetry_space_group_name_H-M   'P -1'
_symmetry_Int_Tables_number      2
_space_group_name_Hall           '-P 1'
loop_
_symmetry_equiv_pos_site_id
_symmetry_equiv_pos_as_xyz
1 x,y,z
2 -x,-y,-z
_cell_length_a                   13.0124(2)
_cell_length_b                   14.2918(2)
_cell_length_c                   23.7647(3)
_cell_angle_alpha                95.155(8)
_cell_angle_beta                 101.758(6)
_cell_angle_gamma                115.984(5)
_cell_volume                     3808.01
loop_
_atom_site_label
_atom_site_type_symbol
_atom_site_fract_x
_atom_site_fract_y
_atom_site_fract_z
Si2 Si 0.0000 -0.5000 0.5000
W7 W -0.06038(11) -0.28361(9) 0.51443(5)
W8 W 0.28887(13) -0.45554(13) 0.50090(6)
W9 W 0.22647(13) -0.23974(10) 0.51222(6)
W10 W 0.17722(12) -0.53555(11) 0.62180(6)
W11 W 0.12136(14) -0.31510(10) 0.63513(6)
W12 W 0.11033(17) -0.42525(12) 0.37774(6)
O23 O 0.123(4) -0.430(3) 0.4828(19)
O24 O 0.046(4) -0.482(4) 0.570(2)
O25 O -0.085(4) -0.453(3) 0.4851(19)
O26 O -0.044(3) -0.621(3) 0.4712(15)
O27 O -0.090(2) -0.183(2) 0.5188(11)
O28 O 0.100(3) -0.217(2) 0.5034(12)
O29 O -0.201(3) -0.391(3) 0.5211(13)
O30 O 0.018(3) -0.277(3) 0.5923(14)
O31 O -0.118(2) -0.334(2) 0.4305(11)
O32 O 0.424(3) -0.436(3) 0.4993(16)
O33 O 0.287(3) -0.471(2) 0.5807(14)
O34 O 0.302(4) -0.325(3) 0.5221(16)
O35 O 0.229(4) -0.448(3) 0.4233(19)
O36 O -0.015(3) -0.423(2) 0.651(2)
O37 O 0.336(3) -0.112(2) 0.5172(13)
O38 O 0.229(3) -0.238(3) 0.5923(15)
O39 O 0.179(3) -0.292(3) 0.4330(15)
O40 O 0.258(2) -0.553(2) 0.6798(11)
O41 O 0.033(3) -0.588(3) 0.6440(16)
O42 O 0.202(4) -0.397(3) 0.6476(19)
O43 O 0.175(3) -0.229(3) 0.7003(11)
O44 O 0.162(2) -0.3861(19) 0.3207(10)
W7A W 0.06038(11) -0.71639(9) 0.48557(5)
W8A W -0.28887(13) -0.54446(13) 0.49910(6)
W9A W -0.22647(13) -0.76026(10) 0.48778(6)
W10A W -0.17722(12) -0.46445(11) 0.37820(6)
W11A W -0.12136(14) -0.68490(10) 0.36487(6)
W12A W -0.11033(17) -0.57475(12) 0.62226(6)
O23A O -0.123(4) -0.570(3) 0.5172(19)
O24A O -0.046(4) -0.518(4) 0.430(2)
O25A O 0.085(4) -0.547(3) 0.5149(19)
O26A O 0.044(3) -0.379(3) 0.5288(15)
O27A O 0.090(2) -0.817(2) 0.4812(11)
O28A O -0.100(3) -0.783(2) 0.4966(12)
O29A O 0.201(3) -0.609(3) 0.4789(13)
O30A O -0.018(3) -0.723(3) 0.4077(14)
O31A O 0.118(2) -0.666(2) 0.5695(11)
O32A O -0.424(3) -0.564(3) 0.5007(16)
O33A O -0.287(3) -0.529(2) 0.4193(14)
O34A O -0.302(4) -0.675(3) 0.4779(16)
O35A O -0.229(4) -0.552(3) 0.5767(19)
O36A O 0.015(3) -0.577(2) 0.349(2)
O37A O -0.336(3) -0.888(2) 0.4828(13)
O38A O -0.229(3) -0.762(3) 0.4077(15)
O39A O -0.179(3) -0.708(3) 0.5670(15)
O40A O -0.258(2) -0.447(2) 0.3202(11)
O41A O -0.033(3) -0.412(3) 0.3560(16)
O42A O -0.202(4) -0.603(3) 0.3524(19)
O43A O -0.175(3) -0.771(3) 0.2997(11)
O44A O -0.162(2) -0.6139(19) 0.6793(10)
Ag1 Ag -0.4998(2) -0.5421(2) 0.24990(11)
Ag2 Ag -0.2682(2) -0.2909(2) 0.24236(11)
Ag3 Ag -0.2312(2) 0.5128(2) -0.24910(11)
Ag4 Ag -0.1431(3) -0.0217(2) 0.49176(10)
Ag5 Ag -0.1234(3) 0.4978(2) 0.01102(10)
Ag6 Ag -0.4870(3) -0.6828(2) -0.26812(10)
Ag7 Ag -0.2621(3) 0.2423(2) -0.24410(11)
Ag8 Ag -0.4187(3) -0.0765(3) -0.48127(12)
Ag9 Ag 0.0285(3) 0.8037(2) 0.25065(11)
Ag10 Ag -0.4227(3) -0.6053(3) 0.00282(11)
Ag11 Ag -0.2825(4) -0.0454(3) 0.22507(13)
Ag12 Ag -0.2138(4) 0.3366(2) 0.12138(16)
Ag13 Ag -0.3184(12) -0.2501(14) -0.4525(4)
Ag15 Ag -0.5049(5) 0.0142(10) 0.2362(3)
N1 N -0.210(3) 0.357(2) -0.1691(11)
N2 N -0.177(2) 0.461(2) -0.1736(9)
C1 C -0.149(3) 0.514(2) -0.1193(11)
H1 H -0.1309 0.5855 -0.1102
N3 N -0.151(2) 0.453(2) -0.0790(11)
C2 C -0.179(3) 0.363(2) -0.1129(13)
H2 H -0.1762 0.3063 -0.0974
N4 N -0.419(2) 0.061(2) 0.1700(14)
N5 N -0.323(2) 0.042(2) 0.1676(11)
C3 C -0.257(3) 0.115(3) 0.1439(15)
H3 H -0.1845 0.1239 0.1389
N6 N -0.306(2) 0.179(2) 0.1272(13)
C4 C -0.407(3) 0.143(3) 0.1457(17)
H4 H -0.4589 0.1716 0.1418
N7 N -0.119(3) 0.500(2) 0.1405(12)
N8 N -0.092(2) 0.5605(18) 0.1004(9)
C5 C -0.038(2) 0.667(2) 0.1260(11)
H5 H -0.0100 0.7249 0.1080
N9 N -0.036(2) 0.668(2) 0.1858(11)
C6 C -0.081(3) 0.566(3) 0.1883(15)
H6 H -0.0855 0.5442 0.2238
N10 N -0.505(4) -0.792(3) -0.1650(15)
N11 N -0.471(3) -0.691(2) -0.1799(15)
C7 C -0.442(3) -0.620(3) -0.1289(13)
H7 H -0.4212 -0.5485 -0.1259
N12 N -0.449(3) -0.672(3) -0.0829(12)
C8 C -0.483(5) -0.776(3) -0.1087(16)
H8 H -0.4891 -0.8293 -0.0875
N13 N -0.214(3) -0.0728(19) 0.3059(11)
N14 N -0.208(2) -0.166(2) 0.3151(12)
C9 C -0.188(3) -0.159(2) 0.3709(13)
H9 H -0.1921 -0.2147 0.3890
N15 N -0.162(3) -0.064(2) 0.4009(13)
C10 C -0.186(4) -0.017(3) 0.3595(17)
H10 H -0.1835 0.0490 0.3666
N16 N -0.345(2) -0.426(2) 0.1708(10)
N17 N -0.430(2) -0.522(2) 0.1773(11)
C11 C -0.466(3) -0.590(3) 0.1251(14)
H11 H -0.5259 -0.6599 0.1158
N18 N -0.403(3) -0.540(2) 0.0887(14)
C12 C -0.334(3) -0.440(3) 0.1218(14)
H12 H -0.2807 -0.3857 0.1076
N19 N -0.138(3) 0.010(2) 0.5805(11)
N20 N -0.183(3) -0.072(2) 0.6083(13)
C13 C -0.141(4) -0.021(3) 0.6668(16)
H13 H -0.1472 -0.0566 0.6978
N21 N -0.093(3) 0.076(3) 0.6732(11)
C14 C -0.083(3) 0.099(4) 0.6189(17)
H14 H -0.0430 0.1670 0.6112
N22 N -0.441(2) 0.022(3) -0.3096(11)
N23 N -0.346(2) 0.113(2) -0.3142(12)
C15 C -0.329(3) 0.099(3) -0.3643(15)
H15 H -0.2674 0.1491 -0.3764
N24 N -0.410(3) 0.004(2) -0.3978(13)
C16 C -0.475(4) -0.044(3) -0.3595(17)
H16 H -0.5345 -0.1135 -0.3683
N25 N -0.429(2) -0.179(2) -0.5553(11)
N26 N -0.396(2) -0.2562(18) -0.5443(9)
C17 C -0.427(3) -0.315(3) -0.5962(12)
H17 H -0.4174 -0.3754 -0.6024
N27 N -0.475(3) -0.281(2) -0.6392(11)
C18 C -0.466(3) -0.191(3) -0.6122(13)
H18 H -0.4847 -0.1437 -0.6311
N28 N -0.309(2) 0.5686(19) -0.3144(11)
N29 N -0.411(2) 0.574(2) -0.3134(11)
C19 C -0.423(3) 0.631(3) -0.3540(12)
H19 H -0.4848 0.6489 -0.3624
N30 N -0.333(2) 0.661(2) -0.3818(12)
C20 C -0.270(3) 0.619(3) -0.3527(13)
H20 H -0.2003 0.6266 -0.3605
Ag1A Ag -0.5002(2) 0.5421(2) -0.24990(11)
Ag6A Ag -0.5130(3) -0.3172(2) -0.73188(10)
Ag9A Ag -0.0285(3) 0.1963(2) 0.74935(11)
Ag13_2 Ag -0.3184(12) 0.7499(14) -0.4525(4)
Ag15A Ag -0.4951(5) -0.0142(10) -0.2362(3)
N21A N 0.093(3) 0.924(3) 0.3268(11)
N22A N -0.559(2) -0.022(3) 0.3096(11)
N27A N -0.525(3) -0.719(2) -0.3608(11)
N29A N -0.589(2) -0.574(2) 0.3134(11)
N30_2 N -0.333(2) -0.339(2) -0.3818(12)
Si1 Si -1.0000 0.0000 0.0000
W1 W -0.88466(11) 0.09446(9) -0.11723(5)
W2 W -1.20731(11) -0.27000(9) -0.01874(5)
W3 W -1.18424(12) 0.02573(10) -0.12280(5)
W4 W -0.90831(13) -0.19771(10) -0.01431(6)
W5 W -0.90404(13) 0.17457(10) 0.13670(5)
W6 W -0.69939(11) 0.07301(11) 0.00661(6)
O1 O -0.892(3) -0.029(3) 0.0181(16)
O2 O -1.114(3) -0.084(3) 0.0140(13)
O3 O -1.023(4) -0.005(3) -0.0666(17)
O4 O -0.951(3) 0.125(3) 0.0331(15)
O5 O -0.834(3) 0.140(2) -0.1730(12)
O6 O -0.833(3) 0.224(2) -0.0606(10)
O7 O -0.965(3) -0.054(2) -0.1521(14)
O8 O -0.766(3) 0.074(2) -0.0731(13)
O9 O -1.033(3) 0.097(3) -0.1390(15)
O10 O -1.301(2) -0.397(2) -0.0279(12)
O11 O -1.065(3) -0.279(3) -0.0069(12)
O12 O -1.306(3) -0.205(3) -0.0278(11)
O13 O -1.199(3) -0.263(3) -0.1000(16)
O14 O -1.266(2) 0.043(2) -0.1815(11)
O15 O -1.187(3) -0.104(3) -0.152(2)
O16 O -1.137(3) 0.151(2) -0.0669(13)
O17 O -1.297(3) -0.047(2) -0.0841(13)
O18 O -0.560(2) 0.104(2) 0.0093(12)
O19 O -0.8637(19) -0.2913(16) -0.0185(9)
O20 O -0.982(3) -0.206(3) -0.0964(16)
O21 O -0.782(3) -0.077(2) -0.0202(13)
O22 O -0.861(3) 0.261(2) 0.1993(11)
W1A W -1.11534(11) -0.09446(9) 0.11723(5)
W2A W -0.79269(11) 0.27000(9) 0.01874(5)
W3A W -0.81576(12) -0.02573(10) 0.12280(5)
W4A W -1.09169(13) 0.19771(10) 0.01431(6)
W5A W -1.09596(13) -0.17457(10) -0.13670(5)
W6A W -1.30061(11) -0.07301(11) -0.00661(6)
O1A O -1.108(3) 0.029(3) -0.0181(16)
O2A O -0.886(3) 0.084(3) -0.0140(13)
O3A O -0.977(4) 0.005(3) 0.0666(17)
O4A O -1.049(3) -0.125(3) -0.0331(15)
O5A O -1.166(3) -0.140(2) 0.1730(12)
O6A O -1.167(3) -0.224(2) 0.0606(10)
O7A O -1.035(3) 0.054(2) 0.1521(14)
O8A O -1.234(3) -0.074(2) 0.0731(13)
O9A O -0.967(3) -0.097(3) 0.1390(15)
O10A O -0.699(2) 0.397(2) 0.0279(12)
O11A O -0.935(3) 0.279(3) 0.0069(12)
O12A O -0.694(3) 0.205(3) 0.0278(11)
O13A O -0.801(3) 0.263(3) 0.1000(16)
O14A O -0.734(2) -0.043(2) 0.1815(11)
O15A O -0.813(3) 0.104(3) 0.152(2)
O16A O -0.863(3) -0.151(2) 0.0669(13)
O17A O -0.703(3) 0.047(2) 0.0841(13)
O18A O -1.440(2) -0.104(2) -0.0093(12)
O19A O -1.1363(19) 0.2913(16) 0.0185(9)
O20A O -1.018(3) 0.206(3) 0.0964(16)
O21A O -1.218(3) 0.077(2) 0.0202(13)
O22A O -1.139(3) -0.261(2) -0.1993(11)
loop_
_geom_bond_atom_site_label_1
_geom_bond_atom_site_label_2
_geom_bond_site_symmetry_1
_geom_bond_site_symmetry_2
Si1 O1 1_555 1_555
Si2 O23 1_555 1_555
W1 O3 1_555 1_555
W2 O2 1_555 1_555
W3 O9 1_555 1_555
W4 O1 1_555 1_555
W5 O4 1_555 1_555
W6 O1 1_555 1_555
W7 O25 1_555 1_555
W8 O23 1_555 1_555
W9 O23 1_555 1_555
W10 O24 1_555 1_555
W11 O24 1_555 1_555
W12 O35 1_555 1_555
Ag1 N17 1_555 1_555
Ag2 N14 1_555 1_555
Ag3 N2 1_555 1_555
Ag4 N15 1_555 1_555
Ag5 N3 1_555 1_555
Ag6 N11 1_555 1_555
Ag7 N1 1_555 1_555
Ag8 N24 1_555 1_555
Ag9 N9 1_555 1_555
Ag10 N12 1_555 1_555
Ag11 N5 1_555 1_555
Ag12 N6 1_555 1_555
Ag13 N26 1_555 1_555
Ag15 N4 1_555 1_555
O2 Si1 1_555 1_555
O3 Si1 1_555 1_555
O4 Si1 1_555 1_555
O5 W1 1_555 1_555
O6 W1 1_555 1_555
O7 W1 1_555 1_555
O8 W1 1_555 1_555
O9 W1 1_555 1_555
O10 W2 1_555 1_555
O11 W2 1_555 1_555
O12 W2 1_555 1_555
O13 W2 1_555 1_555
O14 W3 1_555 1_555
O15 W3 1_555 1_555
O16 W3 1_555 1_555
O17 W3 1_555 1_555
O18 W6 1_555 1_555
O19 W4 1_555 1_555
O20 W4 1_555 1_555
O21 W4 1_555 1_555
O22 W5 1_555 1_555
O24 Si2 1_555 1_555
O25 Si2 1_555 1_555
O26 Si2 1_555 1_555
O27 W7 1_555 1_555
O28 W7 1_555 1_555
O29 W7 1_555 1_555
O30 W7 1_555 1_555
O31 W7 1_555 1_555
O32 W8 1_555 1_555
O33 W8 1_555 1_555
O34 W8 1_555 1_555
O35 W8 1_555 1_555
O36 W11 1_555 1_555
O37 W9 1_555 1_555
O38 W9 1_555 1_555
O39 W9 1_555 1_555
O40 W10 1_555 1_555
O41 W10 1_555 1_555
O42 W10 1_555 1_555
O43 W11 1_555 1_555
O44 W12 1_555 1_555
N1 N2 1_555 1_555
N2 C1 1_555 1_555
C1 H1 1_555 1_555
N3 C1 1_555 1_555
C2 N1 1_555 1_555
H2 C2 1_555 1_555
N4 N5 1_555 1_555
N5 C3 1_555 1_555
C3 H3 1_555 1_555
N6 C3 1_555 1_555
C4 N4 1_555 1_555
H4 C4 1_555 1_555
N7 Ag12 1_555 1_555
N8 Ag5 1_555 1_555
C5 N8 1_555 1_555
H5 C5 1_555 1_555
N9 C5 1_555 1_555
C6 N7 1_555 1_555
H6 C6 1_555 1_555
N10 N11 1_555 1_555
N11 C7 1_555 1_555
C7 H7 1_555 1_555
N12 C7 1_555 1_555
C8 N10 1_555 1_555
H8 C8 1_555 1_555
N13 Ag11 1_555 1_555
N14 N13 1_555 1_555
C9 N14 1_555 1_555
H9 C9 1_555 1_555
N15 C9 1_555 1_555
C10 N13 1_555 1_555
H10 C10 1_555 1_555
N16 Ag2 1_555 1_555
N17 N16 1_555 1_555
C11 N17 1_555 1_555
H11 C11 1_555 1_555
N18 Ag10 1_555 1_555
C12 N16 1_555 1_555
H12 C12 1_555 1_555
N19 Ag4 1_555 1_555
N20 N19 1_555 1_555
C13 N20 1_555 1_555
H13 C13 1_555 1_555
N21 C13 1_555 1_555
C14 N19 1_555 1_555
H14 C14 1_555 1_555
N22 N23 1_555 1_555
N23 Ag7 1_555 1_555
C15 N23 1_555 1_555
H15 C15 1_555 1_555
N24 C15 1_555 1_555
C16 N22 1_555 1_555
H16 C16 1_555 1_555
N25 Ag8 1_555 1_555
N26 N25 1_555 1_555
C17 N26 1_555 1_555
H17 C17 1_555 1_555
N27 C17 1_555 1_555
C18 N25 1_555 1_555
H18 C18 1_555 1_555
N28 Ag3 1_555 1_555
N29 N28 1_555 1_555
C19 N29 1_555 1_555
H19 C19 1_555 1_555
N30 C19 1_555 1_555
C20 N28 1_555 1_555
H20 C20 1_555 1_555
W1A O3A 1_555 1_555
W2A O4 1_555 1_555
W3A O9A 1_555 1_555
W4A O16 1_555 1_555
W5A O7 1_555 1_555
W6A O12 1_555 1_555
W7A O26 1_555 1_555
W8A O29 1_555 1_555
W9A O23A 1_555 1_555
W10A O31 1_555 1_555
W11A O24A 1_555 1_555
W12A O36 1_555 1_555
Ag1A N29 1_555 1_555
Ag6A N27 1_555 1_555
Ag9A N21 1_555 1_555
Ag13_2 N30 1_555 1_555
Ag15A N22 1_555 1_555
O1A Si1 1_555 1_555
O2A Si1 1_555 1_555
O3A Si1 1_555 1_555
O4A Si1 1_555 1_555
O5A W1A 1_555 1_555
O6A W2 1_555 1_555
O7A W5 1_555 1_555
O8A W1A 1_555 1_555
O9A W1A 1_555 1_555
O10A W2A 1_555 1_555
O11A W2A 1_555 1_555
O12A W6 1_555 1_555
O13A W5 1_555 1_555
O14A W3A 1_555 1_555
O15A W5 1_555 1_555
O16A W4 1_555 1_555
O17A W6 1_555 1_555
O18A W6A 1_555 1_555
O19A W4A 1_555 1_555
O20A W5 1_555 1_555
O21A W4A 1_555 1_555
O22A W5A 1_555 1_555
O23A Si2 1_555 1_555
O24A Si2 1_555 1_555
O25A Si2 1_555 1_555
O26A Si2 1_555 1_555
O27A W7A 1_555 1_555
O28A W7A 1_555 1_555
O29A W8 1_555 1_555
O30A W7A 1_555 1_555
O31A W10 1_555 1_555
O32A W8A 1_555 1_555
O33A W8A 1_555 1_555
O34A W8A 1_555 1_555
O35A W8A 1_555 1_555
O36A W12 1_555 1_555
O37A W9A 1_555 1_555
O38A W9A 1_555 1_555
O39A W9A 1_555 1_555
O40A W10A 1_555 1_555
O41A W12 1_555 1_555
O42A W10A 1_555 1_555
O43A W11A 1_555 1_555
O44A W12A 1_555 1_555
N21A Ag9 1_555 1_555
N22A Ag15 1_555 1_555
N27A Ag6 1_555 1_555
N29A Ag1 1_555 1_555
N30_2 Ag13 1_555 1_555
W2 O4A 1_555 1_555
W4 O11 1_555 1_555
W6 O8 1_555 1_555
W6 O21 1_555 1_555
W7 O26A 1_555 1_555
W9 O28 1_555 1_555
W9 O34 1_555 1_555
W10 O33 1_555 1_555
W11 O30 1_555 1_555
W11 O38 1_555 1_555
W11 O42 1_555 1_555
W12 O39 1_555 1_555
O2 O4A 1_555 1_555
O4 O2A 1_555 1_555
O6 W2A 1_555 1_555
O13 W5A 1_555 1_555
O15 W5A 1_555 1_555
O17 W6A 1_555 1_555
O20 W5A 1_555 1_555
O25 O26A 1_555 1_555
O26 O25A 1_555 1_555
O41 W12A 1_555 1_555
N3 C2 1_555 1_555
N6 C4 1_555 1_555
N7 N8 1_555 1_555
N9 C6 1_555 1_555
N12 C8 1_555 1_555
N15 C10 1_555 1_555
C11 N18 1_555 1_555
N18 C12 1_555 1_555
N21 C14 1_555 1_555
N24 C16 1_555 1_555
N27 C18 1_555 1_555
N30 C20 1_555 1_555
W1A O6A 1_555 1_555
W1A O7A 1_555 1_555
W2A O2A 1_555 1_555
W2A O12A 1_555 1_555
W2A O13A 1_555 1_555
W3A O15A 1_555 1_555
W3A O16A 1_555 1_555
W3A O17A 1_555 1_555
W4A O1A 1_555 1_555
W4A O11A 1_555 1_555
W4A O20A 1_555 1_555
W5A O4A 1_555 1_555
W6A O1A 1_555 1_555
W6A O8A 1_555 1_555
W6A O21A 1_555 1_555
W7A O25A 1_555 1_555
W7A O29A 1_555 1_555
W7A O31A 1_555 1_555
W8A O23A 1_555 1_555
W9A O28A 1_555 1_555
W9A O34A 1_555 1_555
W10A O24A 1_555 1_555
W10A O33A 1_555 1_555
W10A O41A 1_555 1_555
W11A O30A 1_555 1_555
W11A O36A 1_555 1_555
W11A O38A 1_555 1_555
W11A O42A 1_555 1_555
W12A O35A 1_555 1_555
W12A O39A 1_555 1_555

#END
