
#######################################################################
#
#                 Cambridge Crystallographic Data Centre
#                                CCDC 
#
#######################################################################
#
# If this CIF has been generated from an entry in the Cambridge 
# Structural Database, then it will include bibliographic, chemical, 
# crystal, experimental, refinement or atomic coordinate data resulting 
# from the CCDC's data processing and validation procedures.
#
#######################################################################

data_TEDLUK
_chemical_formula_moiety         '(C36 H30 N6 O10 Zn2)n'
_symmetry_cell_setting           monoclinic
_symmetry_space_group_name_H-M   'C 2/c'
_symmetry_Int_Tables_number      15
_space_group_name_Hall           '-C 2yc'
loop_
_symmetry_equiv_pos_site_id
_symmetry_equiv_pos_as_xyz
1 x,y,z
2 1/2+x,1/2+y,z
3 -x,y,1/2-z
4 1/2-x,1/2+y,1/2-z
5 -x,-y,-z
6 1/2-x,1/2-y,-z
7 x,-y,1/2+z
8 1/2+x,1/2-y,1/2+z
_cell_length_a                   14.747(3)
_cell_length_b                   25.414(5)
_cell_length_c                   11.387(2)
_cell_angle_alpha                90
_cell_angle_beta                 100.65(3)
_cell_angle_gamma                90
_cell_volume                     4194.11
loop_
_atom_site_label
_atom_site_type_symbol
_atom_site_fract_x
_atom_site_fract_y
_atom_site_fract_z
Zn1 Zn 0.55059(2) 0.715809(14) 0.40423(3)
C1 C 0.5771(2) 0.87080(13) 0.3979(3)
C2 C 0.4989(2) 0.90112(14) 0.4015(3)
H1 H 0.4438 0.8848 0.4088
C3 C 0.5029(2) 0.95443(14) 0.3943(4)
H2 H 0.4507 0.9744 0.3980
C4 C 0.5843(3) 0.97922(14) 0.3814(4)
C5 C 0.6634(3) 0.95026(15) 0.3794(4)
H3 H 0.7181 0.9670 0.3722
C6 C 0.6598(3) 0.89623(15) 0.3881(4)
H4 H 0.7128 0.8764 0.3876
C7 C 0.5740(3) 0.81241(15) 0.4027(3)
C8 C 0.7982(2) 1.12631(13) 0.3164(3)
C9 C 0.7974(3) 1.10502(15) 0.4284(3)
H5 H 0.8453 1.1122 0.4917
C10 C 0.7248(3) 1.07295(16) 0.4460(4)
H6 H 0.7239 1.0586 0.5209
C11 C 0.6543(3) 1.06251(14) 0.3517(4)
C12 C 0.6534(3) 1.08385(17) 0.2402(4)
H7 H 0.6047 1.0771 0.1775
C13 C 0.7262(3) 1.11556(17) 0.2233(4)
H8 H 0.7267 1.1298 0.1483
C14 C 0.8765(2) 1.16105(12) 0.2961(3)
C15 C 0.6716(2) 0.71972(14) 0.6472(3)
H9 H 0.7038 0.7487 0.6261
C16 C 0.5800(3) 0.65630(19) 0.6458(4)
H10 H 0.5331 0.6322 0.6197
C17 C 0.7573(3) 0.70996(17) 0.8583(4)
H11 H 0.8079 0.7288 0.8339
H12 H 0.7818 0.6780 0.8989
C18 C 0.7151(3) 0.74391(16) 0.9439(3)
H13 H 0.6627 0.7257 0.9654
H14 H 0.6931 0.7765 0.9045
N1 N 0.6019(2) 0.69598(12) 0.5760(3)
N2 N 0.6305(3) 0.65496(16) 0.7526(3)
H15 H 0.6277 0.6332 0.8096
N3 N 0.6884(2) 0.69611(13) 0.7518(3)
O1 O 0.6465(2) 0.78603(10) 0.4154(4)
O2 O 0.4960(2) 0.78932(10) 0.3917(3)
O3 O 0.57735(19) 1.03342(11) 0.3678(3)
O4 O 0.93896(18) 1.17033(10) 0.3847(2)
O5 O 0.8726(2) 1.17877(13) 0.1933(3)
Zn1E Zn 0.94941(2) 0.784191(14) 1.59577(3)
Zn1A Zn 1.05059(2) 1.215809(14) 0.40423(3)
Zn1C Zn 0.94941(2) 1.215809(14) 0.09577(3)
Zn1A_2 Zn 0.05059(2) 0.215809(14) 0.40423(3)
Zn1B Zn 0.44941(2) 0.715809(14) 0.09577(3)
C1A C 0.0771(2) 0.37080(13) 0.3979(3)
C2A C -0.0011(2) 0.40112(14) 0.4015(3)
H1A H -0.0562 0.3848 0.4088
C3A C 0.0029(2) 0.45443(14) 0.3943(4)
H2A H -0.0493 0.4744 0.3980
C4A C 0.0843(3) 0.47922(14) 0.3814(4)
C5A C 0.1634(3) 0.45026(15) 0.3794(4)
H3A H 0.2181 0.4670 0.3722
C6A C 0.1598(3) 0.39623(15) 0.3881(4)
H4A H 0.2128 0.3764 0.3876
C7A C 0.0740(3) 0.31241(15) 0.4027(3)
C8A C 0.2982(2) 0.62631(13) 0.3164(3)
C9A C 0.2974(3) 0.60502(15) 0.4284(3)
H5A H 0.3453 0.6122 0.4917
C10A C 0.2248(3) 0.57295(16) 0.4460(4)
H6A H 0.2239 0.5586 0.5209
C11A C 0.1543(3) 0.56251(14) 0.3517(4)
C12A C 0.1534(3) 0.58385(17) 0.2402(4)
H7A H 0.1047 0.5771 0.1775
C13A C 0.2262(3) 0.61556(17) 0.2233(4)
H8A H 0.2267 0.6298 0.1483
C14A C 0.3765(2) 0.66105(12) 0.2961(3)
C15E C 0.8284(2) 0.78028(14) 1.3528(3)
H9E H 0.7962 0.7513 1.3739
C16E C 0.9200(3) 0.84370(19) 1.3542(4)
H10E H 0.9669 0.8678 1.3803
C17E C 0.7427(3) 0.79004(17) 1.1417(4)
H11E H 0.6921 0.7712 1.1661
H12E H 0.7182 0.8220 1.1011
C18E C 0.7849(3) 0.75609(16) 1.0561(3)
H13E H 0.8373 0.7743 1.0346
H14E H 0.8069 0.7235 1.0955
N1E N 0.8981(2) 0.80402(12) 1.4240(3)
N2E N 0.8695(3) 0.84504(16) 1.2474(3)
H15E H 0.8723 0.8668 1.1904
N3E N 0.8116(2) 0.80389(13) 1.2482(3)
O1A O 0.1465(2) 0.28603(10) 0.4154(4)
O1E O 0.8535(2) 0.71397(10) 1.5846(4)
O2A O -0.0040(2) 0.28932(10) 0.3917(3)
O2E O 1.0040(2) 0.71068(10) 1.6083(3)
O3A O 0.07735(19) 0.53342(11) 0.3678(3)
O4A O 0.43896(18) 0.67033(10) 0.3847(2)
O4D O 1.06104(18) 0.82967(10) 1.6153(2)
O5A O 0.3726(2) 0.67877(13) 0.1933(3)
O5C O 0.6274(2) 0.67877(13) 0.3067(3)
O5F O 0.8726(2) 0.82123(13) 1.6933(3)
loop_
_geom_bond_atom_site_label_1
_geom_bond_atom_site_label_2
_geom_bond_site_symmetry_1
_geom_bond_site_symmetry_2
Zn1 N1 1_555 1_555
C1 C2 1_555 1_555
C2 H1 1_555 1_555
C3 C2 1_555 1_555
H2 C3 1_555 1_555
C4 C3 1_555 1_555
C5 C4 1_555 1_555
H3 C5 1_555 1_555
C6 C1 1_555 1_555
H4 C6 1_555 1_555
C7 C1 1_555 1_555
C8 C9 1_555 1_555
C9 H5 1_555 1_555
C10 C9 1_555 1_555
H6 C10 1_555 1_555
C11 C10 1_555 1_555
C12 C11 1_555 1_555
H7 C12 1_555 1_555
C13 C8 1_555 1_555
H8 C13 1_555 1_555
C14 C8 1_555 1_555
C15 H9 1_555 1_555
C16 H10 1_555 1_555
C17 H11 1_555 1_555
H12 C17 1_555 1_555
C18 C17 1_555 1_555
H13 C18 1_555 1_555
H14 C18 1_555 1_555
N1 C15 1_555 1_555
N2 C16 1_555 1_555
H15 N2 1_555 1_555
N3 C15 1_555 1_555
O1 Zn1 1_555 1_555
O2 Zn1 1_555 1_555
O3 C4 1_555 1_555
O4 C14 1_555 1_555
O5 C14 1_555 1_555
Zn1E N1E 1_555 1_555
Zn1A O4 1_555 1_555
Zn1C O5 1_555 1_555
Zn1A_2 O1A 1_555 1_555
Zn1B O5A 1_555 1_555
C1A C2A 1_555 1_555
C2A H1A 1_555 1_555
C3A C2A 1_555 1_555
H2A C3A 1_555 1_555
C4A C3A 1_555 1_555
C5A C4A 1_555 1_555
H3A C5A 1_555 1_555
C6A C1A 1_555 1_555
H4A C6A 1_555 1_555
C7A C1A 1_555 1_555
C8A C9A 1_555 1_555
C9A H5A 1_555 1_555
C10A C9A 1_555 1_555
H6A C10A 1_555 1_555
C11A C10A 1_555 1_555
C12A C11A 1_555 1_555
H7A C12A 1_555 1_555
C13A C8A 1_555 1_555
H8A C13A 1_555 1_555
C14A C8A 1_555 1_555
C15E H9E 1_555 1_555
C16E H10E 1_555 1_555
C17E H11E 1_555 1_555
H12E C17E 1_555 1_555
C18E C18 1_555 1_555
H13E C18E 1_555 1_555
H14E C18E 1_555 1_555
N1E C15E 1_555 1_555
N2E C16E 1_555 1_555
H15E N2E 1_555 1_555
N3E C15E 1_555 1_555
O1A C7A 1_555 1_555
O1E Zn1E 1_555 1_555
O2A Zn1A_2 1_555 1_555
O2E Zn1E 1_555 1_555
O3A C4A 1_555 1_555
O4A Zn1 1_555 1_555
O4D Zn1E 1_555 1_555
O5A C14A 1_555 1_555
O5C Zn1 1_555 1_555
O5F Zn1E 1_555 1_555
C5 C6 1_555 1_555
C7 O1 1_555 1_555
C7 O2 1_555 1_555
C11 O3 1_555 1_555
C12 C13 1_555 1_555
C16 N1 1_555 1_555
C17 N3 1_555 1_555
N2 N3 1_555 1_555
C5A C6A 1_555 1_555
C7A O2A 1_555 1_555
C11A O3A 1_555 1_555
C12A C13A 1_555 1_555
C14A O4A 1_555 1_555
C16E N1E 1_555 1_555
C17E C18E 1_555 1_555
C17E N3E 1_555 1_555
N2E N3E 1_555 1_555

#END
