
#######################################################################
#
#                 Cambridge Crystallographic Data Centre
#                                CCDC 
#
#######################################################################
#
# If this CIF has been generated from an entry in the Cambridge 
# Structural Database, then it will include bibliographic, chemical, 
# crystal, experimental, refinement or atomic coordinate data resulting 
# from the CCDC's data processing and validation procedures.
#
#######################################################################

data_MUWRUT
_chemical_formula_moiety         '(C25 H18 N2 O9 Zn2)n'
_symmetry_cell_setting           tetragonal
_symmetry_space_group_name_H-M   'P 4/n'
_symmetry_Int_Tables_number      85
_space_group_name_Hall           '-P 4a'
loop_
_symmetry_equiv_pos_site_id
_symmetry_equiv_pos_as_xyz
1 x,y,z
2 1/2-x,1/2-y,z
3 1/2-y,x,z
4 y,1/2-x,z
5 -x,-y,-z
6 1/2+x,1/2+y,-z
7 1/2+y,-x,-z
8 -y,1/2+x,-z
_cell_length_a                   27.4541(15)
_cell_length_b                   27.4541
_cell_length_c                   9.7375(5)
_cell_angle_alpha                90
_cell_angle_beta                 90
_cell_angle_gamma                90
_cell_volume                     7339.42
loop_
_atom_site_label
_atom_site_type_symbol
_atom_site_fract_x
_atom_site_fract_y
_atom_site_fract_z
Zn1 Zn 0.43225(2) 0.03089(2) 0.94405(4)
Zn2 Zn 0.37540(2) 0.09299(2) 0.68999(4)
O1 O 0.42096(11) 0.10239(9) 0.9709(3)
O2 O 0.41239(11) 0.14464(10) 0.7763(3)
O3 O 0.42944(13) 0.32100(10) 0.7960(3)
O4 O 0.47712(11) 0.35525(9) 0.9551(3)
O5 O 0.56382(10) 0.01091(9) 1.2237(2)
O6 O 0.58741(12) -0.04095(10) 1.3870(3)
O7 O 0.56546(9) -0.00265(10) 1.8720(3)
O8 O 0.50612(9) 0.05031(10) 1.9206(2)
N1 N 0.50351(13) 0.17326(11) 1.3609(3)
C1 C 0.42470(14) 0.14060(14) 0.9015(4)
C2 C 0.44369(10) 0.18510(6) 0.9708(2)
C3 C 0.44253(10) 0.23001(8) 0.90493(18)
H1 H 0.4306 0.2324 0.8136
C4 C 0.45886(10) 0.27147(6) 0.9727(2)
C5 C 0.47635(10) 0.26803(7) 1.1063(2)
H2 H 0.4875 0.2964 1.1526
C6 C 0.47751(11) 0.22313(8) 1.17213(19)
C7 C 0.46118(11) 0.18166(6) 1.1044(2)
H3 H 0.4620 0.1510 1.1494
C8 C 0.45547(15) 0.32035(13) 0.9030(4)
C9 C 0.49184(17) 0.21841(15) 1.3216(4)
C10 C 0.4908(2) 0.25720(17) 1.4115(5)
H4 H 0.4826 0.2890 1.3806
C11 C 0.5022(3) 0.24859(18) 1.5487(5)
H5 H 0.5016 0.2745 1.6134
C12 C 0.5143(2) 0.20215(17) 1.5898(5)
H6 H 0.5222 0.1956 1.6830
C13 C 0.51489(17) 0.16500(14) 1.4931(4)
C14 C 0.52674(10) 0.11298(6) 1.5284(2)
C15 C 0.52589(9) 0.09711(7) 1.66392(18)
H7 H 0.5155 0.1185 1.7347
C16 C 0.54022(9) 0.04989(8) 1.69584(15)
C17 C 0.55539(9) 0.01854(6) 1.5922(2)
H8 H 0.5652 -0.0137 1.6140
C18 C 0.55624(9) 0.03441(7) 1.45671(17)
C19 C 0.54192(10) 0.08164(8) 1.42479(15)
H9 H 0.5425 0.0925 1.3322
C20 C 0.53641(13) 0.03121(13) 1.8412(3)
C21 C 0.57038(13) -0.00124(13) 1.3467(3)
O9 O 0.3358(4) 0.1197(5) 0.5390(9)
N2 N 0.3087(5) 0.1394(4) 0.3291(12)
C22 C 0.3447(4) 0.1249(3) 0.4141(10)
C23 C 0.3931(4) 0.1159(6) 0.3524(14)
H10 H 0.3916 0.1223 0.2534
H11 H 0.4172 0.1375 0.3948
H12 H 0.4025 0.0819 0.3679
C24 C 0.2597(4) 0.1487(7) 0.3841(15)
H13 H 0.2381 0.1589 0.3094
H14 H 0.2470 0.1189 0.4262
H15 H 0.2614 0.1746 0.4533
C25 C 0.3158(6) 0.1466(6) 0.1799(12)
H16 H 0.2851 0.1571 0.1381
H17 H 0.3408 0.1715 0.1648
H18 H 0.3263 0.1159 0.1381
Zn1_2 Zn 0.43225(2) 0.03089(2) 1.94405(4)
Zn1B Zn 0.46911(2) 0.43225(2) 0.94405(4)
Zn1D Zn 0.56775(2) -0.03089(2) 1.05595(4)
Zn1D_2 Zn 0.56775(2) -0.03089(2) 2.05595(4)
Zn2B Zn 0.40701(2) 0.37540(2) 0.68999(4)
Zn2D Zn 0.62460(2) -0.09299(2) 1.31001(4)
O3C O 0.32100(10) 0.07056(13) 0.7960(3)
O4C O 0.35525(9) 0.02288(11) 0.9551(3)
O5D O 0.43618(10) -0.01091(9) 0.7763(2)
O6D O 0.41259(12) 0.04095(10) 0.6130(3)
O7D O 0.43454(9) 0.00265(10) 1.1280(3)
O8_2 O 0.50612(9) 0.05031(10) 0.9206(2)
loop_
_geom_bond_atom_site_label_1
_geom_bond_atom_site_label_2
_geom_bond_site_symmetry_1
_geom_bond_site_symmetry_2
Zn1 O1 1_555 1_555
Zn2 O2 1_555 1_555
O1 C1 1_555 1_555
O2 C1 1_555 1_555
O3 C8 1_555 1_555
O4 C8 1_555 1_555
O5 C21 1_555 1_555
O6 C21 1_555 1_555
O7 C20 1_555 1_555
O8 C20 1_555 1_555
N1 C9 1_555 1_555
C1 C2 1_555 1_555
C2 C3 1_555 1_555
C3 H1 1_555 1_555
C4 C3 1_555 1_555
C5 C4 1_555 1_555
H2 C5 1_555 1_555
C6 C5 1_555 1_555
C7 C2 1_555 1_555
H3 C7 1_555 1_555
C8 C4 1_555 1_555
C9 C6 1_555 1_555
C10 C9 1_555 1_555
H4 C10 1_555 1_555
C11 C10 1_555 1_555
H5 C11 1_555 1_555
C12 C11 1_555 1_555
H6 C12 1_555 1_555
C13 N1 1_555 1_555
C14 C13 1_555 1_555
C15 C14 1_555 1_555
H7 C15 1_555 1_555
C16 C15 1_555 1_555
C17 C16 1_555 1_555
H8 C17 1_555 1_555
C18 C17 1_555 1_555
C19 C14 1_555 1_555
H9 C19 1_555 1_555
C20 C16 1_555 1_555
C21 C18 1_555 1_555
O9 Zn2 1_555 1_555
N2 C22 1_555 1_555
C22 O9 1_555 1_555
C23 C22 1_555 1_555
H10 C23 1_555 1_555
H11 C23 1_555 1_555
H12 C23 1_555 1_555
C24 N2 1_555 1_555
H13 C24 1_555 1_555
H14 C24 1_555 1_555
H15 C24 1_555 1_555
C25 N2 1_555 1_555
H16 C25 1_555 1_555
H17 C25 1_555 1_555
H18 C25 1_555 1_555
Zn1_2 O8 1_555 1_555
Zn1B O4 1_555 1_555
Zn1D O5 1_555 1_555
Zn1D_2 O7 1_555 1_555
Zn2B O3 1_555 1_555
Zn2D O6 1_555 1_555
O3C Zn2 1_555 1_555
O4C Zn1 1_555 1_555
O5D Zn1 1_555 1_555
O6D Zn2 1_555 1_555
O7D Zn1 1_555 1_555
O8_2 Zn1 1_555 1_555
C6 C7 1_555 1_555
C12 C13 1_555 1_555
C18 C19 1_555 1_555

#END
