
#######################################################################
#
#                 Cambridge Crystallographic Data Centre
#                                CCDC 
#
#######################################################################
#
# If this CIF has been generated from an entry in the Cambridge 
# Structural Database, then it will include bibliographic, chemical, 
# crystal, experimental, refinement or atomic coordinate data resulting 
# from the CCDC's data processing and validation procedures.
#
#######################################################################

data_DOJXEH
_chemical_formula_moiety         '(C52 H34 Co2 N6 O9)n'
_symmetry_cell_setting           monoclinic
_symmetry_space_group_name_H-M   'C 2/c'
_symmetry_Int_Tables_number      15
_space_group_name_Hall           '-C 2yc'
loop_
_symmetry_equiv_pos_site_id
_symmetry_equiv_pos_as_xyz
1 x,y,z
2 -x,y,1/2-z
3 1/2+x,1/2+y,z
4 1/2-x,1/2+y,1/2-z
5 -x,-y,-z
6 x,-y,1/2+z
7 1/2-x,1/2-y,-z
8 1/2+x,1/2-y,1/2+z
_cell_length_a                   27.7567(16)
_cell_length_b                   15.0740(5)
_cell_length_c                   15.1426(7)
_cell_angle_alpha                90
_cell_angle_beta                 111.883(7)
_cell_angle_gamma                90
_cell_volume                     5879.22
loop_
_atom_site_label
_atom_site_type_symbol
_atom_site_fract_x
_atom_site_fract_y
_atom_site_fract_z
Co1 Co 0.069228(19) 0.24856(3) 1.30221(3)
O1 O 0.0000 0.1680(3) 1.2500
O2 O 0.10193(11) 0.15851(19) 0.4126(2)
O3 O 0.04278(12) 0.3474(2) 1.2007(2)
O4 O -0.03902(12) 0.3126(2) 1.1091(2)
N1 N 0.10145(14) 0.1878(2) 1.2090(2)
N2 N 0.36159(14) -0.1717(2) 1.1316(2)
O5 O 0.03231(13) 0.0804(2) 0.4063(2)
N3 N 0.20925(14) 0.0342(2) 1.0531(2)
C1 C 0.09929(17) 0.1013(3) 0.5563(3)
C2 C 0.07589(17) 0.1144(3) 0.4504(3)
C3 C 0.27674(17) -0.0590(3) 1.0415(3)
C4 C 0.16536(18) 0.0800(3) 1.0142(3)
C5 C 0.14263(17) 0.1181(3) 1.0812(3)
C6 C 0.00139(17) 0.3581(3) 1.1297(3)
C7 C 0.14192(18) 0.0759(3) 0.7530(3)
C8 C 0.16521(17) 0.0605(3) 0.8574(3)
C9 C 0.17267(19) 0.1267(3) 1.1775(3)
H1 H 0.2074 0.1095 1.2011
C10 C 0.07265(17) 0.1790(3) 1.1164(3)
H2 H 0.0382 0.1973 1.0946
C11 C 0.23086(18) -0.0011(3) 0.9953(3)
C12 C 0.15032(18) 0.1611(3) 1.2377(3)
H3 H 0.1708 0.1657 1.3021
C13 C 0.09157(17) 0.1440(3) 1.0516(3)
H4 H 0.0699 0.1380 0.9881
C14 C 0.17211(18) 0.1095(3) 0.7050(3)
H5 H 0.2069 0.1227 0.7385
C15 C 0.15047(17) 0.1234(3) 0.6076(3)
H6 H 0.1706 0.1478 0.5764
C16 C 0.21059(17) 0.0133(3) 0.8984(3)
H7 H 0.2276 -0.0090 0.8606
C17 C 0.00083(17) 0.4317(3) 1.0629(3)
C18 C 0.06912(18) 0.0667(3) 0.6040(3)
H8 H 0.0347 0.0513 0.5699
C19 C 0.14162(18) 0.0928(3) 0.9165(3)
H9 H 0.1102 0.1228 0.8913
C20 C 0.08993(19) 0.0553(3) 0.7017(3)
H10 H 0.0693 0.0338 0.7332
C21 C 0.2997(2) -0.1079(4) 0.9908(3)
H11 H 0.2872 -0.1038 0.9248
C22 C 0.2977(2) -0.0687(4) 1.1395(3)
H12 H 0.2838 -0.0375 1.1774
C23 C 0.34145(19) -0.1635(3) 1.0383(3)
H13 H 0.3558 -0.1964 1.0023
C24 C 0.3395(2) -0.1250(4) 1.1809(3)
H14 H 0.3528 -0.1305 1.2468
C25 C 0.0454(2) 0.4727(5) 1.0675(5)
H15 H 0.0769 0.4548 1.1132
C26 C -0.0446(2) 0.4593(5) 0.9945(5)
H16 H -0.0756 0.4320 0.9895
O3D O -0.04278(12) 0.6526(2) 0.7993(2)
O4D O 0.03902(12) 0.6874(2) 0.8909(2)
C6D C -0.00139(17) 0.6419(3) 0.8703(3)
C17D C -0.00083(17) 0.5683(3) 0.9371(3)
C25D C -0.0454(2) 0.5273(5) 0.9325(5)
H15D H -0.0769 0.5452 0.8868
C26D C 0.0446(2) 0.5407(5) 1.0055(5)
H16D H 0.0756 0.5680 1.0105
Co1A Co -0.069228(19) 0.24856(3) 1.19779(3)
O2A O -0.10193(11) 0.15851(19) 2.0874(2)
N1A N -0.10145(14) 0.1878(2) 1.2910(2)
N2A N -0.36159(14) -0.1717(2) 1.3684(2)
O5A O -0.03231(13) 0.0804(2) 2.0937(2)
N3A N -0.20925(14) 0.0342(2) 1.4469(2)
C1A C -0.09929(17) 0.1013(3) 1.9437(3)
C2A C -0.07589(17) 0.1144(3) 2.0496(3)
C3A C -0.27674(17) -0.0590(3) 1.4585(3)
C4A C -0.16536(18) 0.0800(3) 1.4858(3)
C5A C -0.14263(17) 0.1181(3) 1.4188(3)
C7A C -0.14192(18) 0.0759(3) 1.7470(3)
C8A C -0.16521(17) 0.0605(3) 1.6426(3)
C9A C -0.17267(19) 0.1267(3) 1.3225(3)
H1A H -0.2074 0.1095 1.2989
C10A C -0.07265(17) 0.1790(3) 1.3836(3)
H2A H -0.0382 0.1973 1.4054
C11A C -0.23086(18) -0.0011(3) 1.5047(3)
C12A C -0.15032(18) 0.1611(3) 1.2623(3)
H3A H -0.1708 0.1657 1.1979
C13A C -0.09157(17) 0.1440(3) 1.4484(3)
H4A H -0.0699 0.1380 1.5119
C14A C -0.17211(18) 0.1095(3) 1.7950(3)
H5A H -0.2069 0.1227 1.7615
C15A C -0.15047(17) 0.1234(3) 1.8924(3)
H6A H -0.1706 0.1478 1.9236
C16A C -0.21059(17) 0.0133(3) 1.6016(3)
H7A H -0.2276 -0.0090 1.6394
C18A C -0.06912(18) 0.0667(3) 1.8960(3)
H8A H -0.0347 0.0513 1.9301
C19A C -0.14162(18) 0.0928(3) 1.5835(3)
H9A H -0.1102 0.1228 1.6087
C20A C -0.08993(19) 0.0553(3) 1.7983(3)
H10A H -0.0693 0.0338 1.7668
C21A C -0.2997(2) -0.1079(4) 1.5092(3)
H11A H -0.2872 -0.1038 1.5752
C22A C -0.2977(2) -0.0687(4) 1.3605(3)
H12A H -0.2838 -0.0375 1.3226
C23A C -0.34145(19) -0.1635(3) 1.4617(3)
H13A H -0.3558 -0.1964 1.4977
C24A C -0.3395(2) -0.1250(4) 1.3191(3)
H14A H -0.3528 -0.1305 1.2532
Co1_2 Co 0.069228(19) 0.24856(3) 0.30221(3)
Co1A_2 Co -0.069228(19) 0.24856(3) 2.19779(3)
Co1B Co -0.430772(19) -0.25144(3) 1.30221(3)
Co1C Co 0.430772(19) -0.25144(3) 1.19779(3)
Co1D Co -0.069228(19) 0.75144(3) 0.69779(3)
Co1E Co 0.069228(19) 0.75144(3) 0.80221(3)
O2_2 O 0.10193(11) 0.15851(19) 1.4126(2)
O2A_2 O -0.10193(11) 0.15851(19) 1.0874(2)
O3A O -0.04278(12) 0.3474(2) 1.2993(2)
O4A O 0.03902(12) 0.3126(2) 1.3909(2)
N2B N -0.13841(14) 0.3283(2) 1.1316(2)
N2C N 0.13841(14) 0.3283(2) 1.3684(2)
loop_
_geom_bond_atom_site_label_1
_geom_bond_atom_site_label_2
_geom_bond_site_symmetry_1
_geom_bond_site_symmetry_2
Co1 O1 1_555 1_555
O1 Co1A 1_555 1_555
O2 C2 1_555 1_555
O3 Co1 1_555 1_555
O4 C6 1_555 1_555
N1 Co1 1_555 1_555
N2 C23 1_555 1_555
O5 C2 1_555 1_555
N3 C4 1_555 1_555
C1 C2 1_555 1_555
C3 C11 1_555 1_555
C4 C5 1_555 1_555
C5 C9 1_555 1_555
C6 O3 1_555 1_555
C7 C8 1_555 1_555
C8 C16 1_555 1_555
C9 H1 1_555 1_555
C10 N1 1_555 1_555
H2 C10 1_555 1_555
C11 N3 1_555 1_555
C12 N1 1_555 1_555
H3 C12 1_555 1_555
C13 C5 1_555 1_555
H4 C13 1_555 1_555
C14 C7 1_555 1_555
H5 C14 1_555 1_555
C15 C1 1_555 1_555
H6 C15 1_555 1_555
C16 C11 1_555 1_555
H7 C16 1_555 1_555
C17 C6 1_555 1_555
C18 C1 1_555 1_555
H8 C18 1_555 1_555
C19 C4 1_555 1_555
H9 C19 1_555 1_555
C20 C7 1_555 1_555
H10 C20 1_555 1_555
C21 C3 1_555 1_555
H11 C21 1_555 1_555
C22 C3 1_555 1_555
H12 C22 1_555 1_555
C23 C21 1_555 1_555
H13 C23 1_555 1_555
C24 N2 1_555 1_555
H14 C24 1_555 1_555
C25 C17 1_555 1_555
H15 C25 1_555 1_555
C26 C17 1_555 1_555
H16 C26 1_555 1_555
O3D C6D 1_555 1_555
O4D C6D 1_555 1_555
C6D C17D 1_555 1_555
C17D C25D 1_555 1_555
C25D C26 1_555 1_555
H15D C25D 1_555 1_555
C26D C25 1_555 1_555
H16D C26D 1_555 1_555
Co1A O4 1_555 1_555
O2A C2A 1_555 1_555
N1A Co1A 1_555 1_555
N2A C23A 1_555 1_555
O5A C2A 1_555 1_555
N3A C4A 1_555 1_555
C1A C2A 1_555 1_555
C3A C11A 1_555 1_555
C4A C5A 1_555 1_555
C5A C9A 1_555 1_555
C7A C8A 1_555 1_555
C8A C16A 1_555 1_555
C9A H1A 1_555 1_555
C10A N1A 1_555 1_555
H2A C10A 1_555 1_555
C11A N3A 1_555 1_555
C12A N1A 1_555 1_555
H3A C12A 1_555 1_555
C13A C5A 1_555 1_555
H4A C13A 1_555 1_555
C14A C7A 1_555 1_555
H5A C14A 1_555 1_555
C15A C1A 1_555 1_555
H6A C15A 1_555 1_555
C16A C11A 1_555 1_555
H7A C16A 1_555 1_555
C18A C1A 1_555 1_555
H8A C18A 1_555 1_555
C19A C4A 1_555 1_555
H9A C19A 1_555 1_555
C20A C7A 1_555 1_555
H10A C20A 1_555 1_555
C21A C3A 1_555 1_555
H11A C21A 1_555 1_555
C22A C3A 1_555 1_555
H12A C22A 1_555 1_555
C23A C21A 1_555 1_555
H13A C23A 1_555 1_555
C24A N2A 1_555 1_555
H14A C24A 1_555 1_555
Co1_2 O2 1_555 1_555
Co1A_2 O2A 1_555 1_555
Co1B N2A 1_555 1_555
Co1C N2 1_555 1_555
Co1D O3D 1_555 1_555
Co1E O4D 1_555 1_555
O2_2 Co1 1_555 1_555
O2A_2 Co1A 1_555 1_555
O3A Co1A 1_555 1_555
O4A Co1 1_555 1_555
N2B Co1A 1_555 1_555
N2C Co1 1_555 1_555
C8 C19 1_555 1_555
C9 C12 1_555 1_555
C10 C13 1_555 1_555
C14 C15 1_555 1_555
C18 C20 1_555 1_555
C22 C24 1_555 1_555
C17D C26D 1_555 1_555
C8A C19A 1_555 1_555
C9A C12A 1_555 1_555
C10A C13A 1_555 1_555
C14A C15A 1_555 1_555
C18A C20A 1_555 1_555
C22A C24A 1_555 1_555

#END
