
#######################################################################
#
#                 Cambridge Crystallographic Data Centre
#                                CCDC 
#
#######################################################################
#
# If this CIF has been generated from an entry in the Cambridge 
# Structural Database, then it will include bibliographic, chemical, 
# crystal, experimental, refinement or atomic coordinate data resulting 
# from the CCDC's data processing and validation procedures.
#
#######################################################################

data_EVOMOR01
_chemical_formula_moiety         '(C38 H36 Mn2 N6 O10)n'
_symmetry_cell_setting           monoclinic
_symmetry_space_group_name_H-M   'P 21/c'
_symmetry_Int_Tables_number      14
_space_group_name_Hall           '-P 2ybc'
loop_
_symmetry_equiv_pos_site_id
_symmetry_equiv_pos_as_xyz
1 x,y,z
2 x,1/2-y,1/2+z
3 -x,-y,-z
4 -x,1/2+y,1/2-z
_cell_length_a                   11.686(2)
_cell_length_b                   17.847(2)
_cell_length_c                   8.8520(10)
_cell_angle_alpha                90
_cell_angle_beta                 99.670(10)
_cell_angle_gamma                90
_cell_volume                     1819.94
loop_
_atom_site_label
_atom_site_type_symbol
_atom_site_fract_x
_atom_site_fract_y
_atom_site_fract_z
Mn1 Mn 0.61873(4) 0.82985(3) 0.20588(6)
N1 N 0.8141(2) 0.82763(16) 0.1983(4)
C1 C 0.8616(3) 0.7908(3) 0.0945(6)
H1 H 0.8130 0.7643 0.0191
C2 C 0.9789(3) 0.7897(3) 0.0921(6)
H2 H 1.0073 0.7629 0.0163
C3 C 1.0543(3) 0.82784(19) 0.2004(4)
C4 C 1.0049(3) 0.8666(3) 0.3077(5)
H3 H 1.0516 0.8938 0.3839
C5 C 0.8867(3) 0.8650(3) 0.3023(5)
H4 H 0.8559 0.8918 0.3762
C6 C 1.3523(3) 0.7849(2) 0.1134(4)
H5 H 1.3848 0.7531 0.0490
C7 C 1.2342(3) 0.7826(2) 0.1086(5)
H6 H 1.1892 0.7498 0.0417
C8 C 1.1819(3) 0.82885(19) 0.2029(4)
C9 C 1.2554(3) 0.8759(2) 0.2985(5)
H7 H 1.2253 0.9083 0.3642
C10 C 1.3735(3) 0.8749(2) 0.2965(4)
H8 H 1.4211 0.9069 0.3621
N2 N 1.4222(2) 0.83013(16) 0.2052(3)
O1 O 0.6142(2) 0.95044(13) 0.1838(3)
O2 O 0.6491(3) 0.99745(15) 0.4183(3)
C11 C 0.6173(3) 1.00293(19) 0.2788(5)
C12 C 0.5761(3) 1.0793(2) 0.2141(5)
H9 H 0.6138 1.1183 0.2810
H10 H 0.5986 1.0856 0.1143
C13 C 0.4460(3) 1.08772(17) 0.1989(4)
H11 H 0.4081 1.0561 0.1162
H12 H 0.4212 1.0716 0.2929
C14 C 0.4110(3) 1.16833(18) 0.1664(4)
O3 O 0.3879(2) 1.20769(12) 0.2743(3)
O4 O 0.4120(2) 1.19366(13) 0.0346(3)
O5 O 0.6586(2) 0.85262(16) 0.4501(3)
H17 H 0.628(3) 0.8305(17) 0.520(4)
H18 H 0.647(3) 0.896(2) 0.452(5)
N1_2 N -0.1859(2) 0.82763(16) 0.1983(4)
C1_2 C -0.1384(3) 0.7908(3) 0.0945(6)
H1_2 H -0.1870 0.7643 0.0191
C2_2 C -0.0211(3) 0.7897(3) 0.0921(6)
H2_2 H 0.0073 0.7629 0.0163
C3_2 C 0.0543(3) 0.82784(19) 0.2004(4)
C4_2 C 0.0049(3) 0.8666(3) 0.3077(5)
H3_2 H 0.0516 0.8938 0.3839
C5_2 C -0.1133(3) 0.8650(3) 0.3023(5)
H4_2 H -0.1441 0.8918 0.3762
C6_2 C 0.3523(3) 0.7849(2) 0.1134(4)
H5_2 H 0.3848 0.7531 0.0490
C7_2 C 0.2342(3) 0.7826(2) 0.1086(5)
H6_2 H 0.1892 0.7498 0.0417
C8_2 C 0.1819(3) 0.82885(19) 0.2029(4)
C9_2 C 0.2554(3) 0.8759(2) 0.2985(5)
H7_2 H 0.2253 0.9083 0.3642
C10_2 C 0.3735(3) 0.8749(2) 0.2965(4)
H8_2 H 0.4211 0.9069 0.3621
N2_2 N 0.4222(2) 0.83013(16) 0.2052(3)
O1C O 0.3858(2) 0.45044(13) 0.3162(3)
O2C O 0.3509(3) 0.49745(15) 0.0817(3)
C11C C 0.3827(3) 0.50293(19) 0.2212(5)
C12C C 0.4239(3) 0.5793(2) 0.2859(5)
H9C H 0.3862 0.6183 0.2190
H10C H 0.4014 0.5856 0.3857
C13C C 0.5540(3) 0.58772(17) 0.3011(4)
H11C H 0.5919 0.5561 0.3838
H12C H 0.5788 0.5716 0.2071
C14C C 0.5890(3) 0.66833(18) 0.3336(4)
O3C O 0.6121(2) 0.70769(12) 0.2257(3)
O4C O 0.5880(2) 0.69366(13) 0.4654(3)
Mn1_2 Mn -0.38127(4) 0.82985(3) 0.20588(6)
O5_2 O -0.3414(2) 0.85262(16) 0.4501(3)
H17_2 H -0.372(3) 0.8305(17) 0.520(4)
H18_2 H -0.353(3) 0.896(2) 0.452(5)
O4B O 0.5880(2) 0.80634(13) -0.0346(3)
Mn1_3 Mn 1.61873(4) 0.82985(3) 0.20588(6)
Mn1C Mn 0.38127(4) 1.32985(3) 0.29412(6)
Mn1B Mn 0.38127(4) 1.17015(3) -0.20588(6)
Mn1C_2 Mn 0.38127(4) 0.32985(3) 0.29412(6)
Mn1A Mn 0.61873(4) 0.67015(3) 0.70588(6)
N2_3 N -0.5778(2) 0.83013(16) 0.2052(3)
O1_2 O -0.3858(2) 0.95044(13) 0.1838(3)
O3C_2 O -0.3879(2) 0.70769(12) 0.2257(3)
O4B_2 O -0.4120(2) 0.80634(13) -0.0346(3)
N3 N 0.9955(5) 1.1106(4) 0.3302(6)
C15 C 1.0914(6) 1.0957(4) 0.2763(8)
H13 H 1.1605 1.1154 0.3288
C16 C 1.0973(5) 1.0537(3) 0.1499(6)
H14 H 1.1685 1.0456 0.1190
C17 C 0.9989(4) 1.0234(2) 0.0684(4)
C18 C 0.8982(4) 1.0380(3) 0.1233(6)
H15 H 0.8280 1.0191 0.0726
C19 C 0.9010(5) 1.0806(4) 0.2529(8)
H16 H 0.8315 1.0887 0.2882
C17B C 1.0011(4) 0.9766(2) -0.0684(4)
C16B C 0.9027(5) 0.9463(3) -0.1499(6)
C15B C 0.9086(6) 0.9043(4) -0.2763(8)
N3B N 1.0045(5) 0.8894(4) -0.3302(6)
C19B C 1.0990(5) 0.9194(4) -0.2529(8)
C18B C 1.1018(4) 0.9620(3) -0.1233(6)
H15B H 1.1720 0.9809 -0.0726
H16B H 1.1685 0.9113 -0.2882
H13B H 0.8395 0.8846 -0.3288
H14B H 0.8315 0.9544 -0.1190
loop_
_geom_bond_atom_site_label_1
_geom_bond_atom_site_label_2
_geom_bond_site_symmetry_1
_geom_bond_site_symmetry_2
Mn1 N1 1_555 1_555
N1 C1 1_555 1_555
C1 H1 1_555 1_555
C2 C1 1_555 1_555
H2 C2 1_555 1_555
C3 C2 1_555 1_555
C4 C3 1_555 1_555
H3 C4 1_555 1_555
C5 N1 1_555 1_555
H4 C5 1_555 1_555
C6 H5 1_555 1_555
C7 C6 1_555 1_555
H6 C7 1_555 1_555
C8 C3 1_555 1_555
C9 C8 1_555 1_555
H7 C9 1_555 1_555
C10 C9 1_555 1_555
H8 C10 1_555 1_555
N2 C6 1_555 1_555
O1 Mn1 1_555 1_555
O2 C11 1_555 1_555
C11 O1 1_555 1_555
C12 C11 1_555 1_555
H9 C12 1_555 1_555
H10 C12 1_555 1_555
C13 C12 1_555 1_555
H11 C13 1_555 1_555
H12 C13 1_555 1_555
C14 C13 1_555 1_555
O3 C14 1_555 1_555
O4 C14 1_555 1_555
N3 C15 1_555 1_555
C15 H13 1_555 1_555
C16 C15 1_555 1_555
H14 C16 1_555 1_555
C17 C16 1_555 1_555
C18 C17 1_555 1_555
H15 C18 1_555 1_555
C19 N3 1_555 1_555
H16 C19 1_555 1_555
O5 Mn1 1_555 1_555
H17 O5 1_555 1_555
H18 O5 1_555 1_555
C17B C17 1_555 1_555
C16B C17B 1_555 1_555
C15B C16B 1_555 1_555
N3B C15B 1_555 1_555
C19B N3B 1_555 1_555
C18B C17B 1_555 1_555
H15B C18B 1_555 1_555
H16B C19B 1_555 1_555
H13B C15B 1_555 1_555
H14B C16B 1_555 1_555
N1_2 C1_2 1_555 1_555
C1_2 H1_2 1_555 1_555
C2_2 C1_2 1_555 1_555
H2_2 C2_2 1_555 1_555
C3_2 C2_2 1_555 1_555
C4_2 C3_2 1_555 1_555
H3_2 C4_2 1_555 1_555
C5_2 N1_2 1_555 1_555
H4_2 C5_2 1_555 1_555
C6_2 H5_2 1_555 1_555
C7_2 C6_2 1_555 1_555
H6_2 C7_2 1_555 1_555
C8_2 C3_2 1_555 1_555
C9_2 C8_2 1_555 1_555
H7_2 C9_2 1_555 1_555
C10_2 C9_2 1_555 1_555
H8_2 C10_2 1_555 1_555
N2_2 Mn1 1_555 1_555
O1C C11C 1_555 1_555
O2C C11C 1_555 1_555
C11C C12C 1_555 1_555
C12C H9C 1_555 1_555
H10C C12C 1_555 1_555
C13C C12C 1_555 1_555
H11C C13C 1_555 1_555
H12C C13C 1_555 1_555
C14C C13C 1_555 1_555
O3C Mn1 1_555 1_555
O4C C14C 1_555 1_555
Mn1_2 N1_2 1_555 1_555
O5_2 Mn1_2 1_555 1_555
H17_2 O5_2 1_555 1_555
H18_2 O5_2 1_555 1_555
O4B Mn1 1_555 1_555
Mn1_3 N2 1_555 1_555
Mn1C O3 1_555 1_555
Mn1B O4 1_555 1_555
Mn1C_2 O1C 1_555 1_555
Mn1A O4C 1_555 1_555
N2_3 Mn1_2 1_555 1_555
O1_2 Mn1_2 1_555 1_555
O3C_2 Mn1_2 1_555 1_555
O4B_2 Mn1_2 1_555 1_555
C4 C5 1_555 1_555
C7 C8 1_555 1_555
C10 N2 1_555 1_555
C18 C19 1_555 1_555
C19B C18B 1_555 1_555
C4_2 C5_2 1_555 1_555
C6_2 N2_2 1_555 1_555
C7_2 C8_2 1_555 1_555
C10_2 N2_2 1_555 1_555
C14C O3C 1_555 1_555

#END
