
#######################################################################
#
#                 Cambridge Crystallographic Data Centre
#                                CCDC 
#
#######################################################################
#
# If this CIF has been generated from an entry in the Cambridge 
# Structural Database, then it will include bibliographic, chemical, 
# crystal, experimental, refinement or atomic coordinate data resulting 
# from the CCDC's data processing and validation procedures.
#
#######################################################################

data_CURZEV
_chemical_formula_moiety         'C36 H48 Cl4 Cu15 N12 O53'
_symmetry_cell_setting           orthorhombic
_symmetry_space_group_name_H-M   'F 2 2 2'
_symmetry_Int_Tables_number      22
_space_group_name_Hall           'F 2 2'
loop_
_symmetry_equiv_pos_site_id
_symmetry_equiv_pos_as_xyz
1 x,y,z
2 -x,-y,z
3 -x,y,-z
4 x,-y,-z
5 x,1/2+y,1/2+z
6 -x,1/2-y,1/2+z
7 -x,1/2+y,1/2-z
8 x,1/2-y,1/2-z
9 1/2+x,y,1/2+z
10 1/2-x,-y,1/2+z
11 1/2-x,y,1/2-z
12 1/2+x,-y,1/2-z
13 1/2+x,1/2+y,z
14 1/2-x,1/2-y,z
15 1/2-x,1/2+y,-z
16 1/2+x,1/2-y,-z
_cell_length_a                   11.0389(13)
_cell_length_b                   22.784(3)
_cell_length_c                   31.280(4)
_cell_angle_alpha                90
_cell_angle_beta                 90
_cell_angle_gamma                90
_cell_volume                     7867.24
loop_
_atom_site_label
_atom_site_type_symbol
_atom_site_fract_x
_atom_site_fract_y
_atom_site_fract_z
_atom_site_U_iso_or_equiv
_atom_site_thermal_displace_type
Cu1 Cu -0.0000 -0.07234(4) 0.0000 0.0411 Uani
Cu2 Cu -0.0000 0.0000 -0.09691(3) 0.0418 Uani
Cu3 Cu 0.0000 0.0000 -0.18983(3) 0.0552 Uani
Cu4 Cu -0.2500 -0.2500 -0.2500 0.0333 Uani
O1 O -0.1380(7) 0.0000 0.0000 0.0580 Uani
H1 H -0.1944(17) -0.014(4) -0.0214(14) 0.0800 Uiso
O2 O -0.0055(14) -0.0598(3) -0.23454(18) 0.1247 Uani
O3 O 0.1688(5) -0.1666(3) -0.12034(18) 0.0577 Uani
O4 O 0.0205(6) -0.0540(2) -0.14219(14) 0.0517 Uani
O5 O -0.0176(6) -0.06733(18) -0.06038(14) 0.0460 Uani
O6 O 0.1442(8) -0.1365(3) -0.0067(2) 0.0787 Uani
C1 C 0.0769(7) -0.1551(3) -0.1509(2) 0.0480 Uani
H2 H 0.1132 -0.1381 -0.1767 0.0580 Uiso
C2 C -0.0112(8) -0.1116(3) -0.13147(19) 0.0423 Uani
H3 H -0.0950 -0.1205 -0.1395 0.0510 Uiso
C3 C 0.0092(8) -0.1192(3) -0.08386(18) 0.0407 Uani
H4 H -0.0391 -0.1521 -0.0731 0.0490 Uiso
C4 C 0.1455(7) -0.1345(3) -0.0822(2) 0.0480 Uani
H5 H 0.1935 -0.0983 -0.0821 0.0580 Uiso
C5 C 0.1773(10) -0.1708(5) -0.0440(3) 0.0720 Uani
H6 H 0.1331 -0.2075 -0.0444 0.0870 Uiso
H7 H 0.2634 -0.1794 -0.0437 0.0870 Uiso
N1 N 0.0181(6) -0.2129(2) -0.16167(17) 0.0410 Uani
C6 C -0.0663(7) -0.2132(3) -0.19355(19) 0.0390 Uani
O7 O -0.0928(5) -0.16571(19) -0.21269(15) 0.0430 Uani
N2 N -0.1239(5) -0.2629(2) -0.20345(16) 0.0387 Uani
C7 C -0.0956(8) -0.3135(3) -0.1831(2) 0.0457 Uani
N3 N -0.1568(7) -0.3610(2) -0.1925(2) 0.0520 Uani
H8 H -0.2137 -0.3596 -0.2112 0.0630 Uiso
H9 H -0.1401 -0.3936 -0.1799 0.0630 Uiso
C8 C -0.0028(10) -0.3148(3) -0.1537(2) 0.0540 Uani
H10 H 0.0197 -0.3499 -0.1407 0.0650 Uiso
C9 C 0.0564(8) -0.2630(4) -0.1438(2) 0.0560 Uani
H11 H 0.1218 -0.2630 -0.1250 0.0670 Uiso
Cl1 Cl -0.3182 0.0148 -0.1721 0.1010 Uiso
O8 O -0.4306 -0.0014 -0.1910 0.1200 Uiso
O9 O -0.2224 -0.0114 -0.1959 0.1060 Uiso
O10 O -0.3059 0.0768 -0.1738 0.1970 Uiso
O11 O -0.3152 -0.0051 -0.1292 0.1040 Uiso
Cu1E Cu 0.0000 -0.42766(4) -0.5000 0.0411 Uani
Cu1A Cu 0.0000 0.07234(4) 0.0000 0.0411 Uani
Cu1H Cu -0.5000 -0.07234(4) -0.5000 0.0411 Uani
Cu1M Cu -0.5000 -0.42766(4) 0.0000 0.0411 Uani
Cu1D Cu -0.0000 -0.57234(4) -0.5000 0.0411 Uani
Cu2F Cu -0.0000 -0.5000 -0.40309(3) 0.0418 Uani
Cu2J Cu -0.5000 0.0000 -0.40309(3) 0.0418 Uani
Cu2L Cu -0.5000 -0.5000 -0.09691(3) 0.0418 Uani
Cu3F Cu -0.0000 -0.5000 -0.31017(3) 0.0552 Uani
Cu3J Cu -0.5000 0.0000 -0.31017(3) 0.0552 Uani
Cu3L Cu -0.5000 -0.5000 -0.18983(3) 0.0552 Uani
O1A O 0.1380(7) 0.0000 0.0000 0.0580 Uani
O1D O -0.1380(7) -0.5000 -0.5000 0.0580 Uani
O1E O 0.1380(7) -0.5000 -0.5000 0.0580 Uani
H1C H -0.1944(17) 0.014(4) 0.0214(14) 0.0800 Uiso
H1A H 0.1944(17) 0.014(4) -0.0214(14) 0.0800 Uiso
H1B H 0.1944(17) -0.014(4) 0.0214(14) 0.0800 Uiso
H1G H -0.1944(17) -0.486(4) -0.4786(14) 0.0800 Uiso
H1D H -0.1944(17) -0.514(4) -0.5214(14) 0.0800 Uiso
H1F H 0.1944(17) -0.514(4) -0.4786(14) 0.0800 Uiso
H1E H 0.1944(17) -0.486(4) -0.5214(14) 0.0800 Uiso
O2A O 0.0055(14) 0.0598(3) -0.23454(18) 0.1247 Uani
O2G O -0.0055(14) -0.4402(3) -0.26546(18) 0.1247 Uani
O2F O 0.0055(14) -0.5598(3) -0.26546(18) 0.1247 Uani
O3G O 0.1688(5) -0.3334(3) -0.37966(18) 0.0577 Uani
O3J O -0.6688(5) -0.1666(3) -0.37966(18) 0.0577 Uani
O3M O -0.6688(5) -0.3334(3) -0.12034(18) 0.0577 Uani
O4G O 0.0205(6) -0.4460(2) -0.35781(14) 0.0517 Uani
O4J O -0.5205(6) -0.0540(2) -0.35781(14) 0.0517 Uani
O4M O -0.5205(6) -0.4460(2) -0.14219(14) 0.0517 Uani
O4A O -0.0205(6) 0.0540(2) -0.14219(14) 0.0517 Uani
O4F O -0.0205(6) -0.5540(2) -0.35781(14) 0.0517 Uani
O5G O -0.0176(6) -0.43267(18) -0.43962(14) 0.0460 Uani
O5J O -0.4824(6) -0.06733(18) -0.43962(14) 0.0460 Uani
O5M O -0.4824(6) -0.43267(18) -0.06038(14) 0.0460 Uani
O5B O 0.0176(6) -0.06733(18) 0.06038(14) 0.0460 Uani
O5A O 0.0176(6) 0.06733(18) -0.06038(14) 0.0460 Uani
O5E O 0.0176(6) -0.43267(18) -0.56038(14) 0.0460 Uani
O5F O 0.0176(6) -0.56733(18) -0.43962(14) 0.0460 Uani
O6G O 0.1442(8) -0.3635(3) -0.4933(2) 0.0787 Uani
O6J O -0.6442(8) -0.1365(3) -0.4933(2) 0.0787 Uani
O6M O -0.6442(8) -0.3635(3) -0.0067(2) 0.0787 Uani
O6B O -0.1442(8) -0.1365(3) 0.0067(2) 0.0787 Uani
O6E O -0.1442(8) -0.3635(3) -0.5067(2) 0.0787 Uani
C1G C 0.0769(7) -0.3449(3) -0.3491(2) 0.0480 Uani
C1J C -0.5769(7) -0.1551(3) -0.3491(2) 0.0480 Uani
C1M C -0.5769(7) -0.3449(3) -0.1509(2) 0.0480 Uani
H2G H 0.1132 -0.3619 -0.3233 0.0580 Uiso
H2J H -0.6132 -0.1381 -0.3233 0.0580 Uiso
H2M H -0.6132 -0.3619 -0.1767 0.0580 Uiso
C2G C -0.0112(8) -0.3884(3) -0.36853(19) 0.0423 Uani
C2J C -0.4888(8) -0.1116(3) -0.36853(19) 0.0423 Uani
C2M C -0.4888(8) -0.3884(3) -0.13147(19) 0.0423 Uani
H3G H -0.0950 -0.3795 -0.3605 0.0510 Uiso
H3J H -0.4050 -0.1205 -0.3605 0.0510 Uiso
H3M H -0.4050 -0.3795 -0.1395 0.0510 Uiso
C3G C 0.0092(8) -0.3808(3) -0.41614(18) 0.0407 Uani
C3J C -0.5092(8) -0.1192(3) -0.41614(18) 0.0407 Uani
C3M C -0.5092(8) -0.3808(3) -0.08386(18) 0.0407 Uani
H4G H -0.0391 -0.3479 -0.4269 0.0490 Uiso
H4J H -0.4609 -0.1521 -0.4269 0.0490 Uiso
H4M H -0.4609 -0.3479 -0.0731 0.0490 Uiso
C4G C 0.1455(7) -0.3655(3) -0.4178(2) 0.0480 Uani
C4J C -0.6455(7) -0.1345(3) -0.4178(2) 0.0480 Uani
C4M C -0.6455(7) -0.3655(3) -0.0822(2) 0.0480 Uani
H5G H 0.1935 -0.4017 -0.4179 0.0580 Uiso
H5J H -0.6935 -0.0983 -0.4179 0.0580 Uiso
H5M H -0.6935 -0.4017 -0.0821 0.0580 Uiso
C5G C 0.1773(10) -0.3292(5) -0.4560(3) 0.0720 Uani
C5J C -0.6773(10) -0.1708(5) -0.4560(3) 0.0720 Uani
C5M C -0.6773(10) -0.3292(5) -0.0440(3) 0.0720 Uani
H6G H 0.1331 -0.2925 -0.4556 0.0870 Uiso
H6J H -0.6331 -0.2075 -0.4556 0.0870 Uiso
H6M H -0.6331 -0.2925 -0.0444 0.0870 Uiso
H7G H 0.2634 -0.3206 -0.4563 0.0870 Uiso
H7J H -0.7634 -0.1794 -0.4563 0.0870 Uiso
H7M H -0.7634 -0.3206 -0.0437 0.0870 Uiso
N1G N 0.0181(6) -0.2871(2) -0.33833(17) 0.0410 Uani
N1J N -0.5181(6) -0.2129(2) -0.33833(17) 0.0410 Uani
N1M N -0.5181(6) -0.2871(2) -0.16167(17) 0.0410 Uani
C6G C -0.0663(7) -0.2868(3) -0.30645(19) 0.0390 Uani
C6J C -0.4337(7) -0.2132(3) -0.30645(19) 0.0390 Uani
C6M C -0.4337(7) -0.2868(3) -0.19355(19) 0.0390 Uani
O7G O -0.0928(5) -0.33429(19) -0.28731(15) 0.0430 Uani
O7J O -0.4072(5) -0.16571(19) -0.28731(15) 0.0430 Uani
O7M O -0.4072(5) -0.33429(19) -0.21269(15) 0.0430 Uani
N2G N -0.1239(5) -0.2371(2) -0.29655(16) 0.0387 Uani
N2J N -0.3761(5) -0.2629(2) -0.29655(16) 0.0387 Uani
N2M N -0.3761(5) -0.2371(2) -0.20345(16) 0.0387 Uani
C7G C -0.0956(8) -0.1865(3) -0.3169(2) 0.0457 Uani
C7J C -0.4044(8) -0.3135(3) -0.3169(2) 0.0457 Uani
C7M C -0.4044(8) -0.1865(3) -0.1831(2) 0.0457 Uani
N3G N -0.1568(7) -0.1390(2) -0.3075(2) 0.0520 Uani
N3J N -0.3432(7) -0.3610(2) -0.3075(2) 0.0520 Uani
N3M N -0.3432(7) -0.1390(2) -0.1925(2) 0.0520 Uani
H8G H -0.2137 -0.1404 -0.2888 0.0630 Uiso
H8J H -0.2863 -0.3596 -0.2888 0.0630 Uiso
H8M H -0.2863 -0.1404 -0.2112 0.0630 Uiso
H9G H -0.1401 -0.1064 -0.3201 0.0630 Uiso
H9J H -0.3599 -0.3936 -0.3201 0.0630 Uiso
H9M H -0.3599 -0.1064 -0.1799 0.0630 Uiso
C8G C -0.0028(10) -0.1852(3) -0.3463(2) 0.0540 Uani
C8J C -0.4972(10) -0.3148(3) -0.3463(2) 0.0540 Uani
C8M C -0.4972(10) -0.1852(3) -0.1537(2) 0.0540 Uani
H10G H 0.0197 -0.1501 -0.3593 0.0650 Uiso
H10J H -0.5197 -0.3499 -0.3593 0.0650 Uiso
H10M H -0.5197 -0.1501 -0.1407 0.0650 Uiso
C9G C 0.0564(8) -0.2370(4) -0.3562(2) 0.0560 Uani
C9J C -0.5564(8) -0.2630(4) -0.3562(2) 0.0560 Uani
C9M C -0.5564(8) -0.2370(4) -0.1438(2) 0.0560 Uani
H11G H 0.1218 -0.2370 -0.3750 0.0670 Uiso
H11J H -0.6218 -0.2630 -0.3750 0.0670 Uiso
H11M H -0.6218 -0.2370 -0.1250 0.0670 Uiso
Cl1A Cl 0.3182 -0.0148 -0.1721 0.1010 Uiso
Cl1G Cl -0.3182 -0.5148 -0.3279 0.1010 Uiso
Cl1F Cl 0.3182 -0.4852 -0.3279 0.1010 Uiso
O8A O 0.4306 0.0014 -0.1910 0.1200 Uiso
O8G O -0.4306 -0.4986 -0.3090 0.1200 Uiso
O8F O 0.4306 -0.5014 -0.3090 0.1200 Uiso
O9A O 0.2224 0.0114 -0.1959 0.1060 Uiso
O9G O -0.2224 -0.4886 -0.3041 0.1060 Uiso
O9F O 0.2224 -0.5114 -0.3041 0.1060 Uiso
O10A O 0.3059 -0.0768 -0.1738 0.1970 Uiso
O10G O -0.3059 -0.5768 -0.3262 0.1970 Uiso
O10F O 0.3059 -0.4232 -0.3262 0.1970 Uiso
O11A O 0.3152 0.0051 -0.1292 0.1040 Uiso
O11G O -0.3152 -0.4949 -0.3708 0.1040 Uiso
O11F O 0.3152 -0.5051 -0.3708 0.1040 Uiso
O12 O -0.250(3) -0.0128(12) -0.0862(10) 0.0780 Uiso
loop_
_atom_site_aniso_label
_atom_site_aniso_U_11
_atom_site_aniso_U_22
_atom_site_aniso_U_33
_atom_site_aniso_U_23
_atom_site_aniso_U_13
_atom_site_aniso_U_12
Cu1 0.0703 0.0323 0.0207 0 0.0004 0
Cu2 0.0712 0.0336 0.0205 0 0 0.0011
Cu3 0.0891 0.0545 0.0219 0 0 -0.0169
Cu4 0.0532 0.0269 0.0198 0 0 0
O1 0.078 0.065 0.031 -0.007 0 0
O2 0.276 0.069 0.029 -0.004 -0.01 -0.087
O3 0.054 0.072 0.047 -0.027 -0.01 0.009
O4 0.092 0.04 0.023 -0.0056 -0.002 -0.004
O5 0.085 0.0287 0.0244 -0.0048 -0.002 0.003
O6 0.123 0.071 0.042 -0.007 -0.026 0.01
C1 0.054 0.049 0.041 -0.019 -0.003 -0.01
C2 0.056 0.043 0.028 -0.005 -0.003 0.007
C3 0.058 0.033 0.031 -0.004 0.001 -0.002
C4 0.055 0.052 0.037 -0.015 -0.008 -0.001
C5 0.084 0.066 0.066 -0.007 -0.018 0.014
N1 0.051 0.041 0.031 -0.009 -0.004 -0.005
C6 0.056 0.036 0.025 0 -0.004 -0.001
O7 0.065 0.029 0.035 -0.0007 -0.004 -0.0022
N2 0.06 0.03 0.026 -0.0062 0 0
C7 0.067 0.042 0.028 0.001 -0.006 0.001
N3 0.079 0.026 0.051 0.006 -0.008 -0.005
C8 0.07 0.041 0.051 0.005 -0.012 0.004
C9 0.067 0.061 0.04 -0.003 -0.019 0
Cu1E 0.0703 0.0323 0.0207 0 -0.0004 0
Cu1A 0.0703(7) 0.0323(5) 0.0207(5) 0.000 -0.0004(5) 0.000
Cu1H 0.0703 0.0323 0.0207 0 0.0004 0
Cu1M 0.0703 0.0323 0.0207 0 -0.0004 0
Cu1D 0.0703 0.0323 0.0207 0 0.0004 0
Cu2F 0.0712 0.0336 0.0205 0 0 -0.0011
Cu2J 0.0712 0.0336 0.0205 0 0 -0.0011
Cu2L 0.0712 0.0336 0.0205 0 0 0.0011
Cu3F 0.0891 0.0545 0.0219 0 0 0.0169
Cu3J 0.0891 0.0545 0.0219 0 0 0.0169
Cu3L 0.0891 0.0545 0.0219 0 0 -0.0169
O1A 0.078(4) 0.065(4) 0.031(3) 0.007(4) 0.000 0.000
O1D 0.078 0.065 0.031 -0.007 0 0
O1E 0.078 0.065 0.031 0.007 0 0
O2A 0.276 0.069 0.029 0.004 0.01 -0.087
O2G 0.276 0.069 0.029 -0.004 0.01 0.087
O2F 0.276 0.069 0.029 0.004 -0.01 0.087
O3G 0.054 0.072 0.047 -0.027 0.01 -0.009
O3J 0.054 0.072 0.047 0.027 -0.01 -0.009
O3M 0.054 0.072 0.047 0.027 0.01 0.009
O4G 0.092 0.04 0.023 -0.0056 0.002 0.004
O4J 0.092 0.04 0.023 0.0056 -0.002 0.004
O4M 0.092 0.04 0.023 0.0056 0.002 -0.004
O4A 0.092 0.04 0.023 0.0056 0.002 -0.004
O4F 0.092 0.04 0.023 0.0056 -0.002 0.004
O5G 0.085 0.0287 0.0244 -0.0048 0.002 -0.003
O5J 0.085 0.0287 0.0244 0.0048 -0.002 -0.003
O5M 0.085 0.0287 0.0244 0.0048 0.002 0.003
O5B 0.085 0.0287 0.0244 0.0048 -0.002 -0.003
O5A 0.085 0.0287 0.0244 0.0048 0.002 0.003
O5E 0.085 0.0287 0.0244 0.0048 0.002 0.003
O5F 0.085 0.0287 0.0244 0.0048 -0.002 -0.003
O6G 0.123 0.071 0.042 -0.007 0.026 -0.01
O6J 0.123 0.071 0.042 0.007 -0.026 -0.01
O6M 0.123 0.071 0.042 0.007 0.026 0.01
O6B 0.123 0.071 0.042 0.007 -0.026 -0.01
O6E 0.123 0.071 0.042 0.007 0.026 0.01
C1G 0.054 0.049 0.041 -0.019 0.003 0.01
C1J 0.054 0.049 0.041 0.019 -0.003 0.01
C1M 0.054 0.049 0.041 0.019 0.003 -0.01
C2G 0.056 0.043 0.028 -0.005 0.003 -0.007
C2J 0.056 0.043 0.028 0.005 -0.003 -0.007
C2M 0.056 0.043 0.028 0.005 0.003 0.007
C3G 0.058 0.033 0.031 -0.004 -0.001 0.002
C3J 0.058 0.033 0.031 0.004 0.001 0.002
C3M 0.058 0.033 0.031 0.004 -0.001 -0.002
C4G 0.055 0.052 0.037 -0.015 0.008 0.001
C4J 0.055 0.052 0.037 0.015 -0.008 0.001
C4M 0.055 0.052 0.037 0.015 0.008 -0.001
C5G 0.084 0.066 0.066 -0.007 0.018 -0.014
C5J 0.084 0.066 0.066 0.007 -0.018 -0.014
C5M 0.084 0.066 0.066 0.007 0.018 0.014
N1G 0.051 0.041 0.031 -0.009 0.004 0.005
N1J 0.051 0.041 0.031 0.009 -0.004 0.005
N1M 0.051 0.041 0.031 0.009 0.004 -0.005
C6G 0.056 0.036 0.025 0 0.004 0.001
C6J 0.056 0.036 0.025 0 -0.004 0.001
C6M 0.056 0.036 0.025 0 0.004 -0.001
O7G 0.065 0.029 0.035 -0.0007 0.004 0.0022
O7J 0.065 0.029 0.035 0.0007 -0.004 0.0022
O7M 0.065 0.029 0.035 0.0007 0.004 -0.0022
N2G 0.06 0.03 0.026 -0.0062 0 0
N2J 0.06 0.03 0.026 0.0062 0 0
N2M 0.06 0.03 0.026 0.0062 0 0
C7G 0.067 0.042 0.028 0.001 0.006 -0.001
C7J 0.067 0.042 0.028 -0.001 -0.006 -0.001
C7M 0.067 0.042 0.028 -0.001 0.006 0.001
N3G 0.079 0.026 0.051 0.006 0.008 0.005
N3J 0.079 0.026 0.051 -0.006 -0.008 0.005
N3M 0.079 0.026 0.051 -0.006 0.008 -0.005
C8G 0.07 0.041 0.051 0.005 0.012 -0.004
C8J 0.07 0.041 0.051 -0.005 -0.012 -0.004
C8M 0.07 0.041 0.051 -0.005 0.012 0.004
C9G 0.067 0.061 0.04 -0.003 0.019 0
C9J 0.067 0.061 0.04 0.003 -0.019 0
C9M 0.067 0.061 0.04 0.003 0.019 0
loop_
_geom_bond_atom_site_label_1
_geom_bond_atom_site_label_2
_geom_bond_site_symmetry_1
_geom_bond_site_symmetry_2
Cu1 O1 1_555 1_555
Cu2 O4 1_555 1_555
Cu3 O2 1_555 1_555
Cu4 N2 1_555 1_555
O1 H1 1_555 1_555
O3 C1 1_555 1_555
O4 Cu3 1_555 1_555
O5 Cu1 1_555 1_555
O6 Cu1 1_555 1_555
C1 H2 1_555 1_555
C2 O4 1_555 1_555
H3 C2 1_555 1_555
C3 O5 1_555 1_555
H4 C3 1_555 1_555
C4 O3 1_555 1_555
H5 C4 1_555 1_555
C5 O6 1_555 1_555
H6 C5 1_555 1_555
H7 C5 1_555 1_555
N1 C1 1_555 1_555
C6 N1 1_555 1_555
O7 C6 1_555 1_555
N2 C6 1_555 1_555
C7 N2 1_555 1_555
N3 C7 1_555 1_555
H8 N3 1_555 1_555
H9 N3 1_555 1_555
C8 C7 1_555 1_555
H10 C8 1_555 1_555
C9 N1 1_555 1_555
H11 C9 1_555 1_555
Cl1 O8 1_555 1_555
O9 Cu3 1_555 1_555
O10 Cl1 1_555 1_555
O11 Cl1 1_555 1_555
Cu1E O1D 1_555 1_555
Cu1A O1 1_555 1_555
Cu1H O5J 1_555 1_555
Cu1M O5M 1_555 1_555
Cu1D O1D 1_555 1_555
Cu2F O4G 1_555 1_555
Cu2J O4J 1_555 1_555
Cu2L O4M 1_555 1_555
Cu3F O2G 1_555 1_555
Cu3J O4J 1_555 1_555
Cu3L O4M 1_555 1_555
O1A Cu1 1_555 1_555
O1D H1G 1_555 1_555
O1E Cu1E 1_555 1_555
H1C O1 1_555 1_555
H1A O1A 1_555 1_555
H1B O1A 1_555 1_555
H1D O1D 1_555 1_555
H1F O1E 1_555 1_555
H1E O1E 1_555 1_555
O2A Cu3 1_555 1_555
O2F Cu3F 1_555 1_555
O3G C1G 1_555 1_555
O3J C1J 1_555 1_555
O3M C1M 1_555 1_555
O4G Cu3F 1_555 1_555
O4J C2J 1_555 1_555
O4M C2M 1_555 1_555
O4A Cu2 1_555 1_555
O4F Cu2F 1_555 1_555
O5G Cu1E 1_555 1_555
O5J Cu2J 1_555 1_555
O5M Cu2L 1_555 1_555
O5B Cu1 1_555 1_555
O5A Cu2 1_555 1_555
O5E Cu1E 1_555 1_555
O5F Cu1D 1_555 1_555
O6G Cu1E 1_555 1_555
O6J Cu1H 1_555 1_555
O6M Cu1M 1_555 1_555
O6B Cu1 1_555 1_555
O6E Cu1E 1_555 1_555
C1G H2G 1_555 1_555
C1J H2J 1_555 1_555
C1M H2M 1_555 1_555
C2G O4G 1_555 1_555
C2J C1J 1_555 1_555
C2M C1M 1_555 1_555
H3G C2G 1_555 1_555
H3J C2J 1_555 1_555
H3M C2M 1_555 1_555
C3G O5G 1_555 1_555
C3J O5J 1_555 1_555
C3M O5M 1_555 1_555
H4G C3G 1_555 1_555
H4J C3J 1_555 1_555
H4M C3M 1_555 1_555
C4G O3G 1_555 1_555
C4J O3J 1_555 1_555
C4M O3M 1_555 1_555
H5G C4G 1_555 1_555
H5J C4J 1_555 1_555
H5M C4M 1_555 1_555
C5G O6G 1_555 1_555
C5J O6J 1_555 1_555
C5M O6M 1_555 1_555
H6G C5G 1_555 1_555
H6J C5J 1_555 1_555
H6M C5M 1_555 1_555
H7G C5G 1_555 1_555
H7J C5J 1_555 1_555
H7M C5M 1_555 1_555
N1G C1G 1_555 1_555
N1J C1J 1_555 1_555
N1M C1M 1_555 1_555
C6G N1G 1_555 1_555
C6J N1J 1_555 1_555
C6M N1M 1_555 1_555
O7G C6G 1_555 1_555
O7J C6J 1_555 1_555
O7M C6M 1_555 1_555
N2G Cu4 1_555 1_555
N2J Cu4 1_555 1_555
N2M Cu4 1_555 1_555
C7G N2G 1_555 1_555
C7J N2J 1_555 1_555
C7M N2M 1_555 1_555
N3G C7G 1_555 1_555
N3J C7J 1_555 1_555
N3M C7M 1_555 1_555
H8G N3G 1_555 1_555
H8J N3J 1_555 1_555
H8M N3M 1_555 1_555
H9G N3G 1_555 1_555
H9J N3J 1_555 1_555
H9M N3M 1_555 1_555
C8G C7G 1_555 1_555
C8J C7J 1_555 1_555
C8M C7M 1_555 1_555
H10G C8G 1_555 1_555
H10J C8J 1_555 1_555
H10M C8M 1_555 1_555
C9G N1G 1_555 1_555
C9J N1J 1_555 1_555
C9M N1M 1_555 1_555
H11G C9G 1_555 1_555
H11J C9J 1_555 1_555
H11M C9M 1_555 1_555
Cl1A O8A 1_555 1_555
Cl1G O8G 1_555 1_555
Cl1F O8F 1_555 1_555
O9A Cu3 1_555 1_555
O9G Cu3F 1_555 1_555
O9F Cu3F 1_555 1_555
O10A Cl1A 1_555 1_555
O10G Cl1G 1_555 1_555
O10F Cl1F 1_555 1_555
O11A Cl1A 1_555 1_555
O11G Cl1G 1_555 1_555
O11F Cl1F 1_555 1_555
Cu2 O5 1_555 1_555
Cu3 O4A 1_555 1_555
C1 C2 1_555 1_555
C2 C3 1_555 1_555
C3 C4 1_555 1_555
C4 C5 1_555 1_555
C8 C9 1_555 1_555
Cl1 O9 1_555 1_555
Cu1A O1A 1_555 1_555
Cu1A O5A 1_555 1_555
Cu1D O1E 1_555 1_555
Cu2F O5G 1_555 1_555
Cu2F O5F 1_555 1_555
Cu3F O4F 1_555 1_555
C1G C2G 1_555 1_555
C2G C3G 1_555 1_555
C2J C3J 1_555 1_555
C2M C3M 1_555 1_555
C3G C4G 1_555 1_555
C3J C4J 1_555 1_555
C3M C4M 1_555 1_555
C4G C5G 1_555 1_555
C4J C5J 1_555 1_555
C4M C5M 1_555 1_555
C6G N2G 1_555 1_555
C6J N2J 1_555 1_555
C6M N2M 1_555 1_555
C8G C9G 1_555 1_555
C8J C9J 1_555 1_555
C8M C9M 1_555 1_555
Cl1A O9A 1_555 1_555
Cl1G O9G 1_555 1_555
Cl1F O9F 1_555 1_555

#END
