
#######################################################################
#
#                 Cambridge Crystallographic Data Centre
#                                CCDC 
#
#######################################################################
#
# If this CIF has been generated from an entry in the Cambridge 
# Structural Database, then it will include bibliographic, chemical, 
# crystal, experimental, refinement or atomic coordinate data resulting 
# from the CCDC's data processing and validation procedures.
#
#######################################################################

data_GOMRAC
_chemical_formula_moiety         '(C3 H5 Al3 N2 O12 P3)n'
_symmetry_cell_setting           monoclinic
_symmetry_space_group_name_H-M   'C 2/c'
_symmetry_Int_Tables_number      15
_space_group_name_Hall           '-C 2yc'
loop_
_symmetry_equiv_pos_site_id
_symmetry_equiv_pos_as_xyz
1 x,y,z
2 -x,y,1/2-z
3 1/2+x,1/2+y,z
4 1/2-x,1/2+y,1/2-z
5 -x,-y,-z
6 x,-y,1/2+z
7 1/2-x,1/2-y,-z
8 1/2+x,1/2-y,1/2+z
_cell_length_a                   14.733(3)
_cell_length_b                   13.079(3)
_cell_length_c                   15.210(3)
_cell_angle_alpha                90
_cell_angle_beta                 110.99(3)
_cell_angle_gamma                90
_cell_volume                     2736.38
loop_
_atom_site_label
_atom_site_type_symbol
_atom_site_fract_x
_atom_site_fract_y
_atom_site_fract_z
_atom_site_U_iso_or_equiv
_atom_site_thermal_displace_type
Al1 Al -0.12485(11) 0.80948(11) 0.12389(10) 0.0245 Uani
Al2 Al -0.41687(12) 0.60676(12) 0.16279(12) 0.0313 Uani
Al3 Al -0.24894(10) 0.87388(10) 0.41799(10) 0.0174 Uani
P1 P -0.62433(15) 0.68606(14) 0.12772(13) 0.0238 Uani
P2 P -0.25392(14) 0.61273(13) 0.07913(13) 0.0214 Uani
P3 P -0.09085(14) 0.86754(14) 0.32988(14) 0.0226 Uani
O1 O -0.5279(5) 0.6735(5) 0.1133(5) 0.0443 Uani
O2 O -0.6391(5) 0.8007(4) 0.1364(4) 0.0406 Uani
O3 O -0.6238(5) 0.6280(5) 0.2145(5) 0.0479 Uani
O4 O -0.1654(5) 0.6805(5) 0.1104(5) 0.0503 Uani
O5 O -0.1405(5) 0.8696(5) 0.2231(4) 0.0466 Uani
O6 O -0.3277(5) 0.6525(4) 0.1205(5) 0.0403 Uani
O7 O -0.2995(5) 0.6137(5) -0.0272(4) 0.0388 Uani
O8 O -0.1589(5) 0.8238(5) 0.3741(5) 0.0462 Uani
O9 O -0.7085(4) 0.6426(5) 0.0457(4) 0.0390 Uani
O10 O -0.2212(5) 0.5060(4) 0.1127(5) 0.0381 Uani
O11 O -0.0624(5) 0.9758(4) 0.3635(5) 0.0382 Uani
O12 O -0.0002(4) 0.7989(4) 0.3599(4) 0.0340 Uani
Al1F Al -0.37515(11) 0.69052(11) -0.12389(10) 0.0245 Uani
Al1A Al 0.12485(11) 0.80948(11) 0.37611(10) 0.0245 Uani
Al2A Al -0.58313(12) 0.60676(12) 0.33721(12) 0.0313 Uani
Al2C Al -0.08313(12) 1.10676(12) 0.33721(12) 0.0313 Uani
Al3A Al -0.75106(10) 0.87388(10) 0.08201(10) 0.0174 Uani
Al3G Al -0.74894(10) 0.62612(10) -0.08201(10) 0.0174 Uani
Al3C Al -0.25106(10) 0.37388(10) 0.08201(10) 0.0174 Uani
O2A O -0.3609(5) 0.8007(4) 0.3636(4) 0.0406 Uani
O3A O -0.3762(5) 0.6280(5) 0.2855(5) 0.0479 Uani
O7F O -0.2005(5) 0.8863(5) 0.0272(4) 0.0388 Uani
O9G O -0.2085(4) 0.8574(5) 0.5457(4) 0.0390 Uani
O10C O -0.2788(5) 1.0060(4) 0.3873(5) 0.0381 Uani
O11C O -0.4376(5) 0.4758(4) 0.1365(5) 0.0382 Uani
O12A O 0.0002(4) 0.7989(4) 0.1401(4) 0.0340 Uani
C1 C 0.3919(10) 1.0796(9) 0.3718(10) 0.0654 Uani
C2 C 0.4651(9) 0.9363(10) 0.3614(8) 0.0610 Uani
C3 C 0.3808(10) 0.9153(9) 0.3678(10) 0.0707 Uani
N1 N 0.4745(9) 1.0425(12) 0.3680(9) 0.0938 Uani
N2 N 0.3323(7) 1.0006(8) 0.3687(9) 0.0722 Uani
loop_
_atom_site_aniso_label
_atom_site_aniso_U_11
_atom_site_aniso_U_22
_atom_site_aniso_U_33
_atom_site_aniso_U_23
_atom_site_aniso_U_13
_atom_site_aniso_U_12
Al1 0.0219(8) 0.0236(7) 0.0262(8) -0.0003(6) 0.0065(6) -0.0034(6)
Al2 0.0286 0.0295 0.0374 -0.0034 0.0137 0.0019
Al3 0.0177 0.0135 0.0239 -0.0025 0.0108 -0.0016
P1 0.0237 0.0228 0.0228 0.0064 0.0058 0.0073
P2 0.0213 0.0174 0.0249 0.0021 0.0077 -0.0048
P3 0.0208 0.0218 0.0279 0.0003 0.0119 0.0027
O1 0.029 0.052 0.05 0.014 0.012 0.014
O2 0.048 0.026 0.047 -0.005 0.016 0.005
O3 0.04 0.061 0.042 0.022 0.014 0.002
O4 0.037 0.046 0.061 0.007 0.009 -0.021
O5 0.04 0.063 0.032 -0.004 0.007 0.017
O6 0.048 0.029 0.058 -0.006 0.036 -0.002
O7 0.049 0.04 0.024 0.006 0.009 0.004
O8 0.05 0.036 0.073 0.006 0.047 0.004
O9 0.034 0.041 0.038 -0.006 0.008 0.003
O10 0.046 0.028 0.045 0.017 0.022 0.011
O11 0.044 0.02 0.05 -0.006 0.016 -0.006
O12 0.032 0.029 0.048 0.011 0.023 0.014
Al1F 0.0219 0.0236 0.0262 -0.0003 0.0065 -0.0034
Al1A 0.0219 0.0236 0.0262 0.0003 0.0065 0.0034
Al2A 0.0286 0.0295 0.0374 0.0034 0.0137 -0.0019
Al2C 0.0286 0.0295 0.0374 0.0034 0.0137 -0.0019
Al3A 0.0177 0.0135 0.0239 0.0025 0.0108 0.0016
Al3G 0.0177 0.0135 0.0239 0.0025 0.0108 0.0016
Al3C 0.0177 0.0135 0.0239 0.0025 0.0108 0.0016
O2A 0.048 0.026 0.047 0.005 0.016 -0.005
O3A 0.04 0.061 0.042 -0.022 0.014 -0.002
O7F 0.049 0.04 0.024 0.006 0.009 0.004
O9G 0.034 0.041 0.038 0.006 0.008 -0.003
O10C 0.046 0.028 0.045 -0.017 0.022 -0.011
O11C 0.044 0.02 0.05 0.006 0.016 0.006
O12A 0.032(3) 0.029(3) 0.048(4) -0.011(3) 0.023(3) -0.014(2)
C1 0.073(9) 0.044(6) 0.092(10) 0.006(6) 0.045(8) 0.006(6)
C2 0.044(7) 0.073(8) 0.062(7) -0.011(6) 0.014(5) 0.019(6)
C3 0.072(9) 0.046(6) 0.095(10) -0.010(6) 0.031(8) -0.008(6)
N1 0.063(8) 0.136(12) 0.086(8) -0.007(8) 0.031(7) -0.045(8)
N2 0.045(6) 0.062(6) 0.117(10) 0.008(6) 0.038(6) 0.001(5)
loop_
_geom_bond_atom_site_label_1
_geom_bond_atom_site_label_2
_geom_bond_site_symmetry_1
_geom_bond_site_symmetry_2
Al1 O4 1_555 1_555
Al2 O1 1_555 1_555
Al3 O8 1_555 1_555
P1 O1 1_555 1_555
P2 O4 1_555 1_555
P3 O5 1_555 1_555
O2 P1 1_555 1_555
O3 P1 1_555 1_555
O5 Al1 1_555 1_555
O6 Al2 1_555 1_555
O7 P2 1_555 1_555
O8 P3 1_555 1_555
O9 P1 1_555 1_555
O10 P2 1_555 1_555
O11 P3 1_555 1_555
O12 P3 1_555 1_555
C1 N1 1_555 1_555
C2 C3 1_555 1_555
C3 N2 1_555 1_555
N1 C2 1_555 1_555
N2 C1 1_555 1_555
Al1F O7 1_555 1_555
Al1A O12 1_555 1_555
Al2A O3 1_555 1_555
Al2C O11 1_555 1_555
Al3A O2 1_555 1_555
Al3G O9 1_555 1_555
Al3C O10 1_555 1_555
O2A Al3 1_555 1_555
O3A Al2 1_555 1_555
O7F Al1 1_555 1_555
O9G Al3 1_555 1_555
O10C Al3 1_555 1_555
O11C Al2 1_555 1_555
O12A Al1 1_555 1_555
P2 O6 1_555 1_555

#END
