
#######################################################################
#
#                 Cambridge Crystallographic Data Centre
#                                CCDC 
#
#######################################################################
#
# If this CIF has been generated from an entry in the Cambridge 
# Structural Database, then it will include bibliographic, chemical, 
# crystal, experimental, refinement or atomic coordinate data resulting 
# from the CCDC's data processing and validation procedures.
#
#######################################################################

data_DUQNOU
_chemical_formula_moiety         '(C64 H52 Co2 N8 O8)n'
_symmetry_cell_setting           monoclinic
_symmetry_space_group_name_H-M   'C 2/c'
_symmetry_Int_Tables_number      15
_space_group_name_Hall           '-C 2yc'
loop_
_symmetry_equiv_pos_site_id
_symmetry_equiv_pos_as_xyz
1 x,y,z
2 -x,y,1/2-z
3 1/2+x,1/2+y,z
4 1/2-x,1/2+y,1/2-z
5 -x,-y,-z
6 x,-y,1/2+z
7 1/2-x,1/2-y,-z
8 1/2+x,1/2-y,1/2+z
_cell_length_a                   12.2489(4)
_cell_length_b                   32.6684(10)
_cell_length_c                   14.9815(5)
_cell_angle_alpha                90
_cell_angle_beta                 109.351(4)
_cell_angle_gamma                90
_cell_volume                     5656.2
loop_
_atom_site_label
_atom_site_type_symbol
_atom_site_fract_x
_atom_site_fract_y
_atom_site_fract_z
C1 C 0.42319(19) 0.98302(6) 0.57450(16)
C2 C 0.59933(19) 0.97200(6) 0.67005(16)
C3 C 0.7076(2) 0.97330(7) 0.74035(17)
H1 H 0.7284 0.9948 0.7834
C4 C 0.7831(2) 0.94120(8) 0.74354(18)
H2 H 0.8554 0.9410 0.7905
C5 C 0.7536(2) 0.90894(8) 0.67782(18)
H3 H 0.8062 0.8879 0.6823
C6 C 0.6481(2) 0.90803(7) 0.60703(18)
H4 H 0.6281 0.8869 0.5629
C7 C 0.5718(2) 0.94039(7) 0.60437(16)
C8 C 0.30525(19) 0.99959(7) 0.52872(16)
H5 H 0.2982 1.0254 0.5570
H6 H 0.2493 0.9807 0.5371
H7 H 0.2918 1.0034 0.4624
C9 C 0.3968(2) 0.92065(7) 0.46838(16)
H8 H 0.4448 0.9134 0.4307
H9 H 0.3286 0.9346 0.4274
C10 C 0.35978(19) 0.88179(7) 0.50687(16)
C11 C 0.3561(2) 0.87993(7) 0.59874(16)
H10 H 0.3780 0.9028 0.6377
C12 C 0.32088(19) 0.84504(7) 0.63340(16)
H11 H 0.3195 0.8443 0.6951
C13 C 0.28767(18) 0.81115(7) 0.57557(16)
H12 H 0.2621 0.7877 0.5977
C14 C 0.29258(18) 0.81221(6) 0.48443(15)
H13 H 0.2712 0.7891 0.4462
C15 C 0.32899(18) 0.84721(6) 0.44901(15)
C16 C 0.3359(2) 0.84840(6) 0.34938(16)
H14 H 0.2720 0.8646 0.3094
H15 H 0.4071 0.8619 0.3513
C17 C 0.23523(18) 0.78839(7) 0.24742(14)
C18 C 0.1206(2) 0.80094(8) 0.20718(16)
H16 H 0.0961 0.8269 0.2175
C19 C 0.0455(2) 0.77230(10) 0.15086(18)
H17 H -0.0319 0.7793 0.1221
C20 C 0.0826(2) 0.73347(10) 0.1362(2)
H18 H 0.0287 0.7149 0.0995
C21 C 0.1963(2) 0.72156(8) 0.17418(17)
H19 H 0.2206 0.6957 0.1624
C22 C 0.27378(18) 0.74988(7) 0.23113(15)
C23 C 0.42301(17) 0.78175(6) 0.32467(14)
C24 C 0.54226(19) 0.79259(7) 0.38734(15)
H20 H 0.5898 0.7685 0.4001
H21 H 0.5389 0.8036 0.4457
H22 H 0.5747 0.8126 0.3564
C25 C 0.55466(19) 0.63496(6) 0.48131(15)
C26 C 0.4689(2) 0.61761(7) 0.51105(16)
H23 H 0.3914 0.6219 0.4763
C27 C 0.4987(2) 0.59380(8) 0.59246(17)
H24 H 0.4412 0.5834 0.6139
C28 C 0.6136(2) 0.58561(7) 0.64164(16)
H25 H 0.6331 0.5688 0.6947
C29 C 0.70037(18) 0.60244(6) 0.61211(15)
C30 C 0.67039(18) 0.62786(6) 0.53321(15)
H26 H 0.7281 0.6402 0.5150
C31 C 0.82520(19) 0.59086(6) 0.65889(15)
C32 C 0.5243(2) 0.65936(6) 0.39188(15)
Co1 Co 1.0000 0.541828(12) 0.7500
Co2 Co 0.5000 0.703109(12) 0.2500
N1 N 0.50405(15) 0.99877(5) 0.64948(13)
N2 N 0.46094(16) 0.94830(5) 0.54412(13)
N3 N 0.33226(15) 0.80819(5) 0.30736(12)
N4 N 0.39230(15) 0.74661(5) 0.27940(12)
O1 O 0.90146(13) 0.60361(5) 0.62869(11)
O2 O 0.84584(13) 0.56515(4) 0.72788(11)
O3 O 0.60191(13) 0.68265(5) 0.37986(10)
O4 O 0.42674(13) 0.65600(4) 0.33013(11)
C1A C 0.57681(19) 0.98302(6) -0.07450(16)
C2A C 0.40067(19) 0.97200(6) -0.17005(16)
C3A C 0.2924(2) 0.97330(7) -0.24035(17)
H1A H 0.2716 0.9948 -0.2834
C4A C 0.2169(2) 0.94120(8) -0.24354(18)
H2A H 0.1446 0.9410 -0.2905
C5A C 0.2464(2) 0.90894(8) -0.17782(18)
H3A H 0.1938 0.8879 -0.1823
C6A C 0.3519(2) 0.90803(7) -0.10703(18)
H4A H 0.3719 0.8869 -0.0629
C7A C 0.4282(2) 0.94039(7) -0.10437(16)
C8A C 0.69475(19) 0.99959(7) -0.02872(16)
H5A H 0.7018 1.0254 -0.0570
H6A H 0.7507 0.9807 -0.0371
H7A H 0.7082 1.0034 0.0376
C9A C 0.6032(2) 0.92065(7) 0.03162(16)
H8A H 0.5552 0.9134 0.0693
H9A H 0.6714 0.9346 0.0726
C10A C 0.64022(19) 0.88179(7) -0.00687(16)
C11A C 0.6439(2) 0.87993(7) -0.09874(16)
H10A H 0.6220 0.9028 -0.1377
C12A C 0.67912(19) 0.84504(7) -0.13340(16)
H11A H 0.6805 0.8443 -0.1951
C13A C 0.71233(18) 0.81115(7) -0.07557(16)
H12A H 0.7379 0.7877 -0.0977
C14A C 0.70742(18) 0.81221(6) 0.01557(15)
H13A H 0.7288 0.7891 0.0538
C15A C 0.67101(18) 0.84721(6) 0.05099(15)
C16A C 0.6641(2) 0.84840(6) 0.15062(16)
H14A H 0.7280 0.8646 0.1906
H15A H 0.5929 0.8619 0.1487
C17A C 0.76477(18) 0.78839(7) 0.25258(14)
C18A C 0.8794(2) 0.80094(8) 0.29282(16)
H16A H 0.9039 0.8269 0.2825
C19A C 0.9545(2) 0.77230(10) 0.34914(18)
H17A H 1.0319 0.7793 0.3779
C20A C 0.9174(2) 0.73347(10) 0.3638(2)
H18A H 0.9713 0.7149 0.4005
C21A C 0.8037(2) 0.72156(8) 0.32582(17)
H19A H 0.7794 0.6957 0.3376
C22A C 0.72622(18) 0.74988(7) 0.26887(15)
C23A C 0.57699(17) 0.78175(6) 0.17533(14)
C24A C 0.45774(19) 0.79259(7) 0.11266(15)
H20A H 0.4102 0.7685 0.0999
H21A H 0.4611 0.8036 0.0543
H22A H 0.4253 0.8126 0.1436
C25A C 0.44534(19) 0.63496(6) 0.01869(15)
C26A C 0.5311(2) 0.61761(7) -0.01105(16)
H23A H 0.6086 0.6219 0.0237
C27A C 0.5013(2) 0.59380(8) -0.09246(17)
H24A H 0.5588 0.5834 -0.1139
C28A C 0.3864(2) 0.58561(7) -0.14164(16)
H25A H 0.3669 0.5688 -0.1947
C29A C 0.29963(18) 0.60244(6) -0.11211(15)
C30A C 0.32961(18) 0.62786(6) -0.03321(15)
H26A H 0.2719 0.6402 -0.0150
C31A C 0.17480(19) 0.59086(6) -0.15889(15)
C32A C 0.4757(2) 0.65936(6) 0.10812(15)
N1A N 0.49595(15) 0.99877(5) -0.14948(13)
N2A N 0.53906(16) 0.94830(5) -0.04412(13)
N3A N 0.66774(15) 0.80819(5) 0.19264(12)
N4A N 0.60770(15) 0.74661(5) 0.22060(12)
O1A O 0.09854(13) 0.60361(5) -0.12869(11)
O2A O 0.15416(13) 0.56515(4) -0.22788(11)
O3A O 0.39809(13) 0.68265(5) 0.12014(10)
O4A O 0.57326(13) 0.65600(4) 0.16987(11)
Co1_2 Co 0.0000 0.541828(12) -0.2500
Co1B Co 0.5000 1.041828(12) -0.2500
Co1B_2 Co 0.5000 1.041828(12) 0.7500
N1B N 1.00405(15) 0.49877(5) 0.64948(13)
N1C N 0.99595(15) 0.49877(5) 0.85052(13)
O2A_2 O 1.15416(13) 0.56515(4) 0.77212(11)
loop_
_geom_bond_atom_site_label_1
_geom_bond_atom_site_label_2
_geom_bond_site_symmetry_1
_geom_bond_site_symmetry_2
C1 C8 1_555 1_555
C2 C3 1_555 1_555
C3 H1 1_555 1_555
C4 C3 1_555 1_555
H2 C4 1_555 1_555
C5 C4 1_555 1_555
H3 C5 1_555 1_555
C6 C5 1_555 1_555
H4 C6 1_555 1_555
C7 C2 1_555 1_555
C8 H5 1_555 1_555
H6 C8 1_555 1_555
H7 C8 1_555 1_555
C9 H8 1_555 1_555
H9 C9 1_555 1_555
C10 C9 1_555 1_555
C11 C10 1_555 1_555
H10 C11 1_555 1_555
C12 C11 1_555 1_555
H11 C12 1_555 1_555
C13 C12 1_555 1_555
H12 C13 1_555 1_555
C14 C13 1_555 1_555
H13 C14 1_555 1_555
C15 C10 1_555 1_555
C16 C15 1_555 1_555
H14 C16 1_555 1_555
H15 C16 1_555 1_555
C17 C18 1_555 1_555
C18 H16 1_555 1_555
C19 C18 1_555 1_555
H17 C19 1_555 1_555
C20 C19 1_555 1_555
H18 C20 1_555 1_555
C21 C20 1_555 1_555
H19 C21 1_555 1_555
C22 C17 1_555 1_555
C23 C24 1_555 1_555
C24 H20 1_555 1_555
H21 C24 1_555 1_555
H22 C24 1_555 1_555
C25 C26 1_555 1_555
C26 H23 1_555 1_555
C27 C26 1_555 1_555
H24 C27 1_555 1_555
C28 C27 1_555 1_555
H25 C28 1_555 1_555
C29 C28 1_555 1_555
C30 C25 1_555 1_555
H26 C30 1_555 1_555
C31 C29 1_555 1_555
C32 C25 1_555 1_555
Co1 O2 1_555 1_555
Co2 N4 1_555 1_555
N1 C1 1_555 1_555
N2 C1 1_555 1_555
N3 C16 1_555 1_555
N4 C22 1_555 1_555
O1 C31 1_555 1_555
O2 C31 1_555 1_555
O3 C32 1_555 1_555
O4 C32 1_555 1_555
C1A C8A 1_555 1_555
C2A C3A 1_555 1_555
C3A H1A 1_555 1_555
C4A C3A 1_555 1_555
H2A C4A 1_555 1_555
C5A C4A 1_555 1_555
H3A C5A 1_555 1_555
C6A C5A 1_555 1_555
H4A C6A 1_555 1_555
C7A C2A 1_555 1_555
C8A H5A 1_555 1_555
H6A C8A 1_555 1_555
H7A C8A 1_555 1_555
C9A H8A 1_555 1_555
H9A C9A 1_555 1_555
C10A C9A 1_555 1_555
C11A C10A 1_555 1_555
H10A C11A 1_555 1_555
C12A C11A 1_555 1_555
H11A C12A 1_555 1_555
C13A C12A 1_555 1_555
H12A C13A 1_555 1_555
C14A C13A 1_555 1_555
H13A C14A 1_555 1_555
C15A C10A 1_555 1_555
C16A C15A 1_555 1_555
H14A C16A 1_555 1_555
H15A C16A 1_555 1_555
C17A C18A 1_555 1_555
C18A H16A 1_555 1_555
C19A C18A 1_555 1_555
H17A C19A 1_555 1_555
C20A C19A 1_555 1_555
H18A C20A 1_555 1_555
C21A C20A 1_555 1_555
H19A C21A 1_555 1_555
C22A C17A 1_555 1_555
C23A C24A 1_555 1_555
C24A H20A 1_555 1_555
H21A C24A 1_555 1_555
H22A C24A 1_555 1_555
C25A C26A 1_555 1_555
C26A H23A 1_555 1_555
C27A C26A 1_555 1_555
H24A C27A 1_555 1_555
C28A C27A 1_555 1_555
H25A C28A 1_555 1_555
C29A C28A 1_555 1_555
C30A C25A 1_555 1_555
H26A C30A 1_555 1_555
C31A C29A 1_555 1_555
C32A C25A 1_555 1_555
N1A C1A 1_555 1_555
N2A C1A 1_555 1_555
N3A C16A 1_555 1_555
N4A Co2 1_555 1_555
O1A C31A 1_555 1_555
O2A C31A 1_555 1_555
O3A Co2 1_555 1_555
O4A Co2 1_555 1_555
Co1_2 O2A 1_555 1_555
Co1B N1A 1_555 1_555
Co1B_2 N1 1_555 1_555
N1B Co1 1_555 1_555
N1C Co1 1_555 1_555
O2A_2 Co1 1_555 1_555
C2 N1 1_555 1_555
C6 C7 1_555 1_555
C7 N2 1_555 1_555
C9 N2 1_555 1_555
C14 C15 1_555 1_555
C17 N3 1_555 1_555
C21 C22 1_555 1_555
C23 N3 1_555 1_555
C23 N4 1_555 1_555
C29 C30 1_555 1_555
Co2 O3 1_555 1_555
Co2 O4 1_555 1_555
C2A N1A 1_555 1_555
C6A C7A 1_555 1_555
C7A N2A 1_555 1_555
C9A N2A 1_555 1_555
C14A C15A 1_555 1_555
C17A N3A 1_555 1_555
C21A C22A 1_555 1_555
C22A N4A 1_555 1_555
C23A N3A 1_555 1_555
C23A N4A 1_555 1_555
C29A C30A 1_555 1_555
C32A O3A 1_555 1_555
C32A O4A 1_555 1_555

#END
