
#######################################################################
#
#                 Cambridge Crystallographic Data Centre
#                                CCDC 
#
#######################################################################
#
# If this CIF has been generated from an entry in the Cambridge 
# Structural Database, then it will include bibliographic, chemical, 
# crystal, experimental, refinement or atomic coordinate data resulting 
# from the CCDC's data processing and validation procedures.
#
#######################################################################

data_HEBGUS
_chemical_formula_moiety         '(C52 H34 Co2 F12 N4 O8)n'
_symmetry_cell_setting           monoclinic
_symmetry_space_group_name_H-M   'P 2/c'
_symmetry_Int_Tables_number      13
_space_group_name_Hall           '-P 2yc'
loop_
_symmetry_equiv_pos_site_id
_symmetry_equiv_pos_as_xyz
1 x,y,z
2 -x,y,1/2-z
3 -x,-y,-z
4 x,-y,1/2+z
_cell_length_a                   14.7453(11)
_cell_length_b                   7.6151(6)
_cell_length_c                   23.8558(17)
_cell_angle_alpha                90
_cell_angle_beta                 102.4320(10)
_cell_angle_gamma                90
_cell_volume                     2615.89
loop_
_atom_site_label
_atom_site_type_symbol
_atom_site_fract_x
_atom_site_fract_y
_atom_site_fract_z
Co1 Co 0.43315(3) 1.14515(6) 0.48805(2)
F1 F 0.19518(15) 0.8351(3) 0.78056(9)
F2 F 0.07443(14) 0.7987(3) 0.71365(9)
F3 F 0.09640(15) 0.6372(3) 0.78917(9)
F4 F 0.05370(14) 0.4035(3) 0.70441(10)
F5 F 0.16207(15) 0.3280(3) 0.66218(9)
F6 F 0.08171(16) 0.5586(3) 0.63516(9)
O1 O 0.38991(18) 0.9973(3) 0.54807(11)
O2 O 0.48766(17) 0.7699(3) 0.56556(11)
O3 O 0.38513(18) 0.0525(3) 0.93045(11)
O4 O 0.48608(17) 0.2757(3) 0.94505(11)
N1 N 0.3153(2) 1.3038(4) 0.47299(12)
N2 N 0.2089(2) 1.0856(4) 0.43711(14)
C1 C 0.1930(3) 0.5769(5) 0.72347(16)
C2 C 0.2501(2) 0.4672(5) 0.77286(15)
C3 C 0.3308(3) 1.4722(5) 0.48848(16)
H1 H 0.3921 1.5069 0.5018
C4 C 0.3261(2) 0.5495(5) 0.80835(15)
H2 H 0.3419 0.6633 0.8001
C5 C 0.4195(2) 0.8585(5) 0.57365(15)
C6 C 0.2566(2) 0.6620(5) 0.68826(15)
C7 C 0.2486(3) 0.8352(5) 0.66989(16)
H3 H 0.2063 0.9092 0.6819
C8 C 0.1390(3) 0.7128(5) 0.75163(16)
C9 C 0.4139(2) 0.2003(5) 0.91805(16)
C10 C 0.1221(3) 0.4662(5) 0.68137(16)
C11 C 0.1528(3) 1.3754(5) 0.44913(17)
H4 H 0.0917 1.3402 0.4353
C12 C 0.3663(2) 0.7909(5) 0.61598(15)
C13 C 0.0568(3) 1.0096(5) 0.46004(17)
C14 C 0.2291(3) 0.2981(5) 0.78648(16)
H5 H 0.1778 0.2418 0.7641
C15 C 0.2254(3) 1.2552(5) 0.45288(16)
C16 C 0.2825(3) 0.2113(5) 0.83247(16)
H6 H 0.2684 0.0959 0.8401
C17 C 0.3768(3) 0.6185(5) 0.63534(16)
H7 H 0.4201 0.5454 0.6240
C18 C 0.1172(3) 1.0171(5) 0.41606(17)
H8 H 0.1226 0.8995 0.4015
H9 H 0.0863 1.0892 0.3841
C19 C 0.3776(2) 0.4644(5) 0.85525(16)
H10 H 0.4269 0.5221 0.8790
C20 C 0.3568(2) 0.2938(5) 0.86742(16)
C21 C 0.0947(3) 0.9841(5) 0.51752(17)
H11 H 0.1587 0.9728 0.5298
C22 C 0.3027(3) 0.8985(5) 0.63407(16)
H12 H 0.2964 1.0147 0.6219
C23 C -0.0389(3) 1.0249(5) 0.44301(18)
H13 H -0.0659 1.0416 0.4044
C24 C 0.2637(3) 1.5961(5) 0.48614(17)
H14 H 0.2787 1.7110 0.4977
C25 C 0.1724(3) 1.5451(5) 0.46591(18)
H15 H 0.1247 1.6262 0.4638
C26 C 0.3228(3) 0.5568(5) 0.67130(16)
H16 H 0.3307 0.4418 0.6846
H17 H 0.252(3) 1.025(6) 0.436(2)
Co1B Co 0.56685(3) 0.85485(6) 0.51195(2)
Co1C Co 0.43315(3) -0.14515(6) 0.98805(2)
Co1A Co 0.56685(3) 0.14515(6) 1.01195(2)
Co1B_2 Co -0.43315(3) 0.85485(6) 0.51195(2)
Co1A_2 Co 0.56685(3) 2.14515(6) 0.01195(2)
Co1C_2 Co 0.43315(3) 1.85485(6) -0.01195(2)
F1B F 0.80482(15) 1.1649(3) 0.21944(9)
F2B F 0.92557(14) 1.2013(3) 0.28635(9)
F3B F 0.90360(15) 1.3628(3) 0.21083(9)
F4B F 0.94630(14) 1.5965(3) 0.29559(10)
F5B F 0.83793(15) 1.6720(3) 0.33782(9)
F6B F 0.91829(16) 1.4414(3) 0.36484(9)
O1B O 0.61009(18) 1.0027(3) 0.45193(11)
O2B O 0.51234(17) 1.2301(3) 0.43444(11)
O3B O 0.61487(18) 1.9475(3) 0.06955(11)
O3C O 0.38513(18) 0.9475(3) 0.43045(11)
O3A O 0.61487(18) 1.0525(3) 0.56955(11)
O4B O 0.51392(17) 1.7243(3) 0.05495(11)
O4A O 0.51392(17) 1.2757(3) 0.55495(11)
O4C O 0.48608(17) 0.7243(3) 0.44505(11)
N1B N -0.3153(2) 0.6962(4) 0.52701(12)
N1B_2 N 0.6847(2) 0.6962(4) 0.52701(12)
N2B N -0.2089(2) 0.9144(4) 0.56289(14)
C1B C 0.8070(3) 1.4231(5) 0.27653(16)
C2B C 0.7499(2) 1.5328(5) 0.22714(15)
C3B C -0.3308(3) 0.5278(5) 0.51152(16)
H1B H -0.3921 0.4931 0.4982
C4B C 0.6739(2) 1.4505(5) 0.19165(15)
H2B H 0.6581 1.3367 0.1999
C5B C 0.5805(2) 1.1415(5) 0.42635(15)
C6B C 0.7434(2) 1.3380(5) 0.31174(15)
C7B C 0.7514(3) 1.1648(5) 0.33011(16)
H3B H 0.7937 1.0908 0.3181
C8B C 0.8610(3) 1.2872(5) 0.24837(16)
C9B C 0.5861(2) 1.7997(5) 0.08195(16)
C10B C 0.8779(3) 1.5338(5) 0.31863(16)
C11B C -0.1528(3) 0.6246(5) 0.55087(17)
H4B H -0.0917 0.6598 0.5647
C12B C 0.6337(2) 1.2091(5) 0.38402(15)
C13B C -0.0568(3) 0.9904(5) 0.53996(17)
C14B C 0.7709(3) 1.7019(5) 0.21352(16)
H5B H 0.8222 1.7582 0.2359
C15B C -0.2254(3) 0.7448(5) 0.54712(16)
C16B C 0.7175(3) 1.7887(5) 0.16753(16)
H6B H 0.7316 1.9041 0.1599
C17B C 0.6232(3) 1.3815(5) 0.36466(16)
H7B H 0.5799 1.4546 0.3760
C18B C -0.1172(3) 0.9829(5) 0.58394(17)
H8B H -0.1226 1.1005 0.5985
H9B H -0.0863 0.9108 0.6159
C19B C 0.6224(2) 1.5356(5) 0.14475(16)
H10B H 0.5731 1.4779 0.1210
C20B C 0.6432(2) 1.7062(5) 0.13258(16)
C21B C -0.0947(3) 1.0159(5) 0.48248(17)
H11B H -0.1587 1.0272 0.4702
C22B C 0.6973(3) 1.1015(5) 0.36593(16)
H12B H 0.7036 0.9853 0.3781
C23B C 0.0389(3) 0.9751(5) 0.55699(18)
H13B H 0.0659 0.9584 0.5956
C24B C -0.2637(3) 0.4039(5) 0.51386(17)
H14B H -0.2787 0.2890 0.5023
C25B C -0.1724(3) 0.4549(5) 0.53409(18)
H15B H -0.1247 0.3738 0.5362
C26B C 0.6772(3) 1.4432(5) 0.32870(16)
H16B H 0.6693 1.5582 0.3154
H17B H -0.252(3) 0.975(6) 0.564(2)
loop_
_geom_bond_atom_site_label_1
_geom_bond_atom_site_label_2
_geom_bond_site_symmetry_1
_geom_bond_site_symmetry_2
Co1 O1 1_555 1_555
F1 C8 1_555 1_555
F2 C8 1_555 1_555
F3 C8 1_555 1_555
F4 C10 1_555 1_555
F5 C10 1_555 1_555
F6 C10 1_555 1_555
O1 C5 1_555 1_555
O2 C5 1_555 1_555
O3 C9 1_555 1_555
O4 C9 1_555 1_555
N1 Co1 1_555 1_555
N2 C15 1_555 1_555
C1 C2 1_555 1_555
C2 C4 1_555 1_555
C3 N1 1_555 1_555
H1 C3 1_555 1_555
C4 H2 1_555 1_555
C5 C12 1_555 1_555
C6 C1 1_555 1_555
C7 C6 1_555 1_555
H3 C7 1_555 1_555
C8 C1 1_555 1_555
C9 C20 1_555 1_555
C10 C1 1_555 1_555
C11 H4 1_555 1_555
C12 C17 1_555 1_555
C13 C18 1_555 1_555
C14 C2 1_555 1_555
H5 C14 1_555 1_555
C15 N1 1_555 1_555
C16 C14 1_555 1_555
H6 C16 1_555 1_555
C17 H7 1_555 1_555
C18 N2 1_555 1_555
H8 C18 1_555 1_555
H9 C18 1_555 1_555
C19 C4 1_555 1_555
H10 C19 1_555 1_555
C20 C16 1_555 1_555
C21 C13 1_555 1_555
H11 C21 1_555 1_555
C22 C7 1_555 1_555
H12 C22 1_555 1_555
C23 C13 1_555 1_555
H13 C23 1_555 1_555
C24 C3 1_555 1_555
H14 C24 1_555 1_555
C25 C11 1_555 1_555
H15 C25 1_555 1_555
C26 C6 1_555 1_555
H16 C26 1_555 1_555
H17 N2 1_555 1_555
Co1B O2 1_555 1_555
Co1C O3 1_555 1_555
Co1A O4 1_555 1_555
Co1B_2 N1B 1_555 1_555
Co1A_2 O3B 1_555 1_555
Co1C_2 O4B 1_555 1_555
F1B C8B 1_555 1_555
F2B C8B 1_555 1_555
F3B C8B 1_555 1_555
F4B C10B 1_555 1_555
F5B C10B 1_555 1_555
F6B C10B 1_555 1_555
O1B Co1B 1_555 1_555
O2B Co1 1_555 1_555
O3B C9B 1_555 1_555
O3C Co1 1_555 1_555
O3A Co1B 1_555 1_555
O4B C9B 1_555 1_555
O4A Co1 1_555 1_555
O4C Co1B 1_555 1_555
N1B C3B 1_555 1_555
N1B_2 Co1B 1_555 1_555
N2B C15B 1_555 1_555
C1B C2B 1_555 1_555
C2B C4B 1_555 1_555
C3B H1B 1_555 1_555
C4B H2B 1_555 1_555
C5B O1B 1_555 1_555
C6B C1B 1_555 1_555
C7B C6B 1_555 1_555
H3B C7B 1_555 1_555
C8B C1B 1_555 1_555
C9B C20B 1_555 1_555
C10B C1B 1_555 1_555
C11B H4B 1_555 1_555
C12B C5B 1_555 1_555
C13B C18B 1_555 1_555
C14B C2B 1_555 1_555
H5B C14B 1_555 1_555
C15B N1B 1_555 1_555
C16B C14B 1_555 1_555
H6B C16B 1_555 1_555
C17B C12B 1_555 1_555
H7B C17B 1_555 1_555
C18B N2B 1_555 1_555
H8B C18B 1_555 1_555
H9B C18B 1_555 1_555
C19B C4B 1_555 1_555
H10B C19B 1_555 1_555
C20B C16B 1_555 1_555
C21B C23 1_555 1_555
H11B C21B 1_555 1_555
C22B C7B 1_555 1_555
H12B C22B 1_555 1_555
C23B C21 1_555 1_555
H13B C23B 1_555 1_555
C24B C3B 1_555 1_555
H14B C24B 1_555 1_555
C25B C11B 1_555 1_555
H15B C25B 1_555 1_555
C26B C6B 1_555 1_555
H16B C26B 1_555 1_555
H17B N2B 1_555 1_555
C11 C15 1_555 1_555
C12 C22 1_555 1_555
C17 C26 1_555 1_555
C19 C20 1_555 1_555
C24 C25 1_555 1_555
O2B C5B 1_555 1_555
C11B C15B 1_555 1_555
C12B C22B 1_555 1_555
C13B C21B 1_555 1_555
C13B C23B 1_555 1_555
C17B C26B 1_555 1_555
C19B C20B 1_555 1_555
C24B C25B 1_555 1_555

#END
