
#######################################################################
#
#                 Cambridge Crystallographic Data Centre
#                                CCDC 
#
#######################################################################
#
# If this CIF has been generated from an entry in the Cambridge 
# Structural Database, then it will include bibliographic, chemical, 
# crystal, experimental, refinement or atomic coordinate data resulting 
# from the CCDC's data processing and validation procedures.
#
#######################################################################

data_CUWWOI
_chemical_formula_moiety         'C40 H28 Eu7 N10 O21'
_symmetry_cell_setting           triclinic
_symmetry_space_group_name_H-M   'P -1'
_symmetry_Int_Tables_number      2
_space_group_name_Hall           '-P 1'
loop_
_symmetry_equiv_pos_site_id
_symmetry_equiv_pos_as_xyz
1 x,y,z
2 -x,-y,-z
_cell_length_a                   10.39290(11)
_cell_length_b                   11.26700(12)
_cell_length_c                   12.47060(14)
_cell_angle_alpha                96.847(9)
_cell_angle_beta                 110.8560(10)
_cell_angle_gamma                103.830(9)
_cell_volume                     1291
loop_
_atom_site_label
_atom_site_type_symbol
_atom_site_fract_x
_atom_site_fract_y
_atom_site_fract_z
Eu1 Eu 0.88737(4) 0.45625(3) 0.32492(3)
O1 O 0.6558(8) 0.2827(7) 0.2404(7)
O2 O 0.8041(8) 0.2883(6) 0.1518(5)
O3 O 1.1175(6) 0.4554(6) 0.3183(5)
O4 O 1.1554(6) 0.5247(5) 0.5019(5)
O5 O 0.9349(7) 0.2817(4) 0.4001(5)
O6 O 1.0218(9) 0.3249(5) 0.5975(6)
O7 O 0.683(3) 0.548(2) 0.235(2)
N1 N 0.391(5) 0.127(4) 0.136(4)
N2 N 1.294(2) 0.3205(17) 0.2943(13)
N3 N 0.955(3) 0.087(2) 0.2888(13)
N4 N 0.9194(16) 0.5610(11) 0.1623(13)
N5 N 0.569(3) 0.716(3) 0.273(2)
C1 C 0.6903(11) 0.2362(10) 0.1612(9)
C2 C 0.5937(13) 0.1137(12) 0.0805(11)
C3 C 0.6362(17) 0.0491(15) 0.0045(14)
H1 H 0.7284 0.0806 0.0064
C4 C 0.4554(16) 0.0601(16) 0.0731(14)
C5 C 1.2006(8) 0.4916(7) 0.4245(7)
C6 C 1.3553(8) 0.4962(7) 0.4622(6)
C7 C 1.3978(9) 0.4161(9) 0.3970(7)
C8 C 1.4581(9) 0.5772(8) 0.5625(8)
H2 H 1.4299 0.6308 0.6059
C9 C 0.9830(12) 0.2525(7) 0.4977(9)
C10 C 0.9888(12) 0.1204(7) 0.4956(8)
C11 C 1.0198(16) 0.0775(8) 0.5988(9)
H3 H 1.0333 0.1312 0.6673
C12 C 0.9684(15) 0.0419(8) 0.3953(8)
C13 C 0.8223(19) 0.5095(18) 0.0462(14)
H4 H 0.7439 0.4391 0.0292
C14 C 0.841(2) 0.5620(18) -0.0450(19)
H5 H 0.7750 0.5264 -0.1223
C15 C 0.957(2) 0.6670(17) -0.0216(19)
H6 H 0.9705 0.7027 -0.0818
C16 C 1.053(2) 0.717(2) 0.0951(18)
H7 H 1.1310 0.7877 0.1125
C17 C 1.0360(18) 0.6652(14) 0.1873(18)
H8 H 1.1024 0.7004 0.2644
C18 C 0.664(4) 0.638(3) 0.290(3)
C19 C 0.471(4) 0.621(3) 0.167(3)
H9 H 0.3858 0.6445 0.1304
H10 H 0.4457 0.5422 0.1882
H11 H 0.5178 0.6136 0.1137
C20 C 0.582(4) 0.749(3) 0.167(3)
H12 H 0.5197 0.7990 0.1374
H13 H 0.5543 0.6740 0.1082
H14 H 0.6801 0.7962 0.1851
O1A O 0.3442(8) -0.2827(7) -0.2404(7)
O2A O 0.1959(8) -0.2883(6) -0.1518(5)
N1A N 0.609(5) -0.127(4) -0.136(4)
C1A C 0.3097(11) -0.2362(10) -0.1612(9)
C2A C 0.4063(13) -0.1137(12) -0.0805(11)
C3A C 0.3638(17) -0.0491(15) -0.0045(14)
H1A H 0.2716 -0.0806 -0.0064
C4A C 0.5446(16) -0.0601(16) -0.0731(14)
O3A O 1.8825(6) 0.5446(6) 0.6817(5)
O4A O 1.8446(6) 0.4753(5) 0.4981(5)
N2A N 1.706(2) 0.6795(17) 0.7057(13)
C5A C 1.7994(8) 0.5084(7) 0.5755(7)
C6A C 1.6447(8) 0.5038(7) 0.5378(6)
C7A C 1.6022(9) 0.5839(9) 0.6030(7)
C8A C 1.5419(9) 0.4228(8) 0.4375(8)
H2A H 1.5701 0.3692 0.3941
O5A O 1.0651(7) -0.2817(4) 0.5999(5)
N3A N 1.045(3) -0.087(2) 0.7112(13)
C9A C 1.0170(12) -0.2525(7) 0.5023(9)
C10A C 1.0112(12) -0.1204(7) 0.5044(8)
C11A C 0.9802(16) -0.0775(8) 0.4012(9)
H3A H 0.9667 -0.1312 0.3327
C12A C 1.0316(15) -0.0419(8) 0.6047(8)
O6A O 0.9782(9) -0.3249(5) 0.4025(6)
Eu1A Eu 0.11263(4) -0.45625(3) -0.32492(3)
O7A O 0.317(3) -0.548(2) -0.235(2)
N4A N 0.0806(16) -0.5610(11) -0.1623(13)
N5A N 0.431(3) -0.716(3) -0.273(2)
C13A C 0.1777(19) -0.5095(18) -0.0462(14)
H4A H 0.2561 -0.4391 -0.0292
C14A C 0.159(2) -0.5620(18) 0.0450(19)
H5A H 0.2250 -0.5264 0.1223
C15A C 0.043(2) -0.6670(17) 0.0216(19)
H6A H 0.0295 -0.7027 0.0818
C16A C -0.053(2) -0.717(2) -0.0951(18)
H7A H -0.1310 -0.7877 -0.1125
C17A C -0.0360(18) -0.6652(14) -0.1873(18)
H8A H -0.1024 -0.7004 -0.2644
C18A C 0.336(4) -0.638(3) -0.290(3)
C19A C 0.529(4) -0.621(3) -0.167(3)
H9A H 0.6142 -0.6445 -0.1304
H10A H 0.5543 -0.5422 -0.1882
H11A H 0.4822 -0.6136 -0.1137
C20A C 0.418(4) -0.749(3) -0.167(3)
H12A H 0.4803 -0.7990 -0.1374
H13A H 0.4457 -0.6740 -0.1082
H14A H 0.3199 -0.7962 -0.1851
Eu1_2 Eu 0.88737(4) -0.54375(3) 0.32492(3)
Eu1_3 Eu 1.88737(4) 0.45625(3) 0.32492(3)
Eu1A_2 Eu 1.11263(4) -0.45625(3) 0.67508(3)
Eu1A_3 Eu 1.11263(4) 0.54375(3) 0.67508(3)
Eu1A_4 Eu 2.11263(4) 0.54375(3) 0.67508(3)
O3A_2 O -0.1175(6) -0.4554(6) -0.3183(5)
O4_2 O 0.1554(6) -0.4753(5) -0.4981(5)
O4A_2 O -0.1554(6) -0.5247(5) -0.5019(5)
O4A_3 O 0.8446(6) 0.4753(5) 0.4981(5)
O5A_2 O 0.0651(7) -0.2817(4) -0.4001(5)
O6_2 O 0.0218(9) -0.6751(5) -0.4025(6)
O6A_2 O 0.9782(9) 0.6751(5) 0.4025(6)
loop_
_geom_bond_atom_site_label_1
_geom_bond_atom_site_label_2
_geom_bond_site_symmetry_1
_geom_bond_site_symmetry_2
Eu1 O1 1_555 1_555
O1 C1 1_555 1_555
O2 Eu1 1_555 1_555
O3 Eu1 1_555 1_555
O4 Eu1 1_555 1_555
O5 Eu1 1_555 1_555
O6 C9 1_555 1_555
O7 Eu1 1_555 1_555
N1 C4 1_555 1_555
N2 C7 1_555 1_555
N3 C12 1_555 1_555
N4 Eu1 1_555 1_555
N5 C18 1_555 1_555
C1 O2 1_555 1_555
C2 C1 1_555 1_555
C3 C2 1_555 1_555
H1 C3 1_555 1_555
C4 C2 1_555 1_555
C5 O3 1_555 1_555
C6 C5 1_555 1_555
C7 C6 1_555 1_555
C8 C6 1_555 1_555
H2 C8 1_555 1_555
C9 O5 1_555 1_555
C10 C9 1_555 1_555
C11 C10 1_555 1_555
H3 C11 1_555 1_555
C12 C10 1_555 1_555
C13 N4 1_555 1_555
H4 C13 1_555 1_555
C14 C13 1_555 1_555
H5 C14 1_555 1_555
C15 C14 1_555 1_555
H6 C15 1_555 1_555
C16 C15 1_555 1_555
H7 C16 1_555 1_555
C17 N4 1_555 1_555
H8 C17 1_555 1_555
C18 O7 1_555 1_555
C19 N5 1_555 1_555
H9 C19 1_555 1_555
H10 C19 1_555 1_555
H11 C19 1_555 1_555
C20 N5 1_555 1_555
H12 C20 1_555 1_555
H13 C20 1_555 1_555
H14 C20 1_555 1_555
O1A C1A 1_555 1_555
O2A C1A 1_555 1_555
N1A C4A 1_555 1_555
C1A C2A 1_555 1_555
C2A C3A 1_555 1_555
C3A C4 1_555 1_555
H1A C3A 1_555 1_555
C4A C3 1_555 1_555
O3A C5A 1_555 1_555
O4A C5A 1_555 1_555
N2A C7A 1_555 1_555
C5A C6A 1_555 1_555
C6A C7A 1_555 1_555
C7A C8 1_555 1_555
C8A C7 1_555 1_555
H2A C8A 1_555 1_555
O5A C9A 1_555 1_555
N3A C12A 1_555 1_555
C9A C10A 1_555 1_555
C10A C11A 1_555 1_555
C11A C12 1_555 1_555
H3A C11A 1_555 1_555
C12A C11 1_555 1_555
O6A C9A 1_555 1_555
Eu1A O1A 1_555 1_555
O7A Eu1A 1_555 1_555
N4A Eu1A 1_555 1_555
N5A C18A 1_555 1_555
C13A N4A 1_555 1_555
H4A C13A 1_555 1_555
C14A C13A 1_555 1_555
H5A C14A 1_555 1_555
C15A C14A 1_555 1_555
H6A C15A 1_555 1_555
C16A C15A 1_555 1_555
H7A C16A 1_555 1_555
C17A N4A 1_555 1_555
H8A C17A 1_555 1_555
C18A O7A 1_555 1_555
C19A N5A 1_555 1_555
H9A C19A 1_555 1_555
H10A C19A 1_555 1_555
H11A C19A 1_555 1_555
C20A N5A 1_555 1_555
H12A C20A 1_555 1_555
H13A C20A 1_555 1_555
H14A C20A 1_555 1_555
Eu1_2 O6A 1_555 1_555
Eu1_3 O4A 1_555 1_555
Eu1A_2 O5A 1_555 1_555
Eu1A_3 O4 1_555 1_555
Eu1A_4 O3A 1_555 1_555
O3A_2 Eu1A 1_555 1_555
O4_2 Eu1A 1_555 1_555
O4A_2 Eu1A 1_555 1_555
O4A_3 Eu1 1_555 1_555
O5A_2 Eu1A 1_555 1_555
O6_2 Eu1A 1_555 1_555
O6A_2 Eu1 1_555 1_555
O4 C5 1_555 1_555
O6 Eu1A_3 1_555 1_555
C16 C17 1_555 1_555
O2A Eu1A 1_555 1_555
C2A C4A 1_555 1_555
O4A Eu1A_4 1_555 1_555
C6A C8A 1_555 1_555
C10A C12A 1_555 1_555
C16A C17A 1_555 1_555
Eu1A_3 O4A_3 1_555 1_555

#END
