
#######################################################################
#
#                 Cambridge Crystallographic Data Centre
#                                CCDC 
#
#######################################################################
#
# If this CIF has been generated from an entry in the Cambridge 
# Structural Database, then it will include bibliographic, chemical, 
# crystal, experimental, refinement or atomic coordinate data resulting 
# from the CCDC's data processing and validation procedures.
#
#######################################################################

data_CUWWUO
_chemical_formula_moiety         '(C22 H15 Eu1 N2 O7)n'
_symmetry_cell_setting           monoclinic
_symmetry_space_group_name_H-M   'C 2/c'
_symmetry_Int_Tables_number      15
_space_group_name_Hall           '-C 2yc'
loop_
_symmetry_equiv_pos_site_id
_symmetry_equiv_pos_as_xyz
1 x,y,z
2 -x,y,1/2-z
3 1/2+x,1/2+y,z
4 1/2-x,1/2+y,1/2-z
5 -x,-y,-z
6 x,-y,1/2+z
7 1/2-x,1/2-y,-z
8 1/2+x,1/2-y,1/2+z
_cell_length_a                   29.103(3)
_cell_length_b                   13.950(2)
_cell_length_c                   14.2309(17)
_cell_angle_alpha                90
_cell_angle_beta                 94.204(11)
_cell_angle_gamma                90
_cell_volume                     5762.01
loop_
_atom_site_label
_atom_site_type_symbol
_atom_site_fract_x
_atom_site_fract_y
_atom_site_fract_z
_atom_site_U_iso_or_equiv
_atom_site_thermal_displace_type
C1 C 0.6002(4) 0.2417(9) 0.5332(8) 0.0462 Uani
C2 C 0.5559(4) 0.2112(10) 0.5722(9) 0.0589 Uani
C3 C 0.5425(4) 0.1146(11) 0.5696(10) 0.0764 Uani
H1 H 0.5620 0.0676 0.5487 0.0920 Uiso
C4 C 0.4994(4) 0.0903(11) 0.5989(11) 0.0839 Uani
H2 H 0.4904 0.0264 0.5965 0.1010 Uiso
C5 C 0.4700(4) 0.1570(10) 0.6311(9) 0.0562 Uani
C6 C 0.4848(4) 0.2508(11) 0.6375(11) 0.0770 Uani
H3 H 0.4658 0.2967 0.6619 0.0930 Uiso
C7 C 0.5284(4) 0.2792(10) 0.6080(11) 0.0684 Uani
H4 H 0.5380 0.3427 0.6130 0.0820 Uiso
C8 C 0.4240(4) 0.1394(11) 0.6596(10) 0.0624 Uani
C9 C 0.2541(3) -0.0891(8) 0.5885(8) 0.0455 Uani
C10 C 0.2840(4) -0.0224(9) 0.6449(8) 0.0512 Uani
C11 C 0.2660(4) 0.0389(8) 0.7120(9) 0.0550 Uani
H5 H 0.2347 0.0363 0.7214 0.0660 Uiso
C12 C 0.2938(4) 0.1024(9) 0.7639(8) 0.0513 Uani
C13 C 0.3421(3) 0.1066(9) 0.7501(8) 0.0551 Uani
H6 H 0.3614 0.1470 0.7868 0.0670 Uiso
C14 C 0.3593(4) 0.0497(9) 0.6815(10) 0.0616 Uani
C15 C 0.3311(4) -0.0177(9) 0.6315(8) 0.0528 Uani
H7 H 0.3438 -0.0593 0.5894 0.0630 Uiso
C16 C 0.2763(4) 0.1657(9) 0.8393(9) 0.0463 Uani
C17 C 0.3402(4) 0.5412(9) 1.0792(12) 0.1101 Uani
H8 H 0.3311 0.5496 1.0157 0.1320 Uiso
C18 C 0.3462(5) 0.6221(13) 1.1359(11) 0.1241 Uani
H9 H 0.3415 0.6829 1.1101 0.1490 Uiso
C19 C 0.3593(4) 0.6118(11) 1.2310(11) 0.1022 Uani
H10 H 0.3631 0.6652 1.2700 0.1220 Uiso
C20 C 0.3667(4) 0.5203(9) 1.2668(10) 0.0917 Uani
H11 H 0.3758 0.5101 1.3300 0.1100 Uiso
C21 C 0.3598(3) 0.4445(9) 1.2041(7) 0.0801 Uani
C22 C 0.3609(7) 0.3461(8) 1.2457(9) 0.1096 Uani
H12 H 0.3886 0.3385 1.2873 0.1320 Uiso
H13 H 0.3345 0.3375 1.2828 0.1320 Uiso
N1 N 0.4063(3) 0.0547(9) 0.6584(8) 0.0718 Uani
N2 N 0.3469(3) 0.4510(8) 1.1117(7) 0.0649 Uani
O1 O 0.6240(3) 0.1797(6) 0.4925(6) 0.0637 Uani
O2 O 0.6130(2) 0.3281(6) 0.5434(5) 0.0442 Uani
O3 O 0.2118(2) -0.0701(5) 0.5766(6) 0.0515 Uani
O4 O 0.2702(2) -0.1603(5) 0.5511(5) 0.0419 Uani
O5 O 0.3023(2) 0.2271(6) 0.8754(5) 0.0468 Uani
O6 O 0.2349(3) 0.1489(6) 0.8569(6) 0.0610 Uani
O7 O 0.3600(4) 0.2745(7) 1.1723(6) 0.0799 Uani
H14 H 0.402(4) 0.191(7) 0.671(11) 0.0960 Uiso
Eu1 Eu 0.313795(15) 0.30007(4) 1.02528(3) 0.0365 Uani
O1A O 0.3760(3) 0.1797(6) 1.0075(6) 0.0637 Uani
O2A O 0.3870(2) 0.3281(6) 0.9566(5) 0.0442 Uani
O3C O 0.2882(2) 0.4299(5) 0.9234(6) 0.0515 Uani
O4C O 0.2298(2) 0.3397(5) 0.9489(5) 0.0419 Uani
O4E O 0.2702(2) 0.1603(5) 1.0511(5) 0.0419 Uani
O6F O 0.2651(3) 0.3511(6) 1.1431(6) 0.0610 Uani
Eu1A Eu 0.686205(15) 0.30007(4) 0.47472(3) 0.0365 Uani
Eu1C Eu 0.186205(15) -0.19993(4) 0.47472(3) 0.0365 Uani
Eu1E Eu 0.313795(15) -0.30007(4) 0.52528(3) 0.0365 Uani
Eu1F Eu 0.186205(15) 0.19993(4) 0.97472(3) 0.0365 Uani
loop_
_atom_site_aniso_label
_atom_site_aniso_U_11
_atom_site_aniso_U_22
_atom_site_aniso_U_33
_atom_site_aniso_U_23
_atom_site_aniso_U_13
_atom_site_aniso_U_12
C1 0.042 0.056 0.044 -0.015 0.026 -0.019
C2 0.033 0.093 0.054 -0.014 0.025 -0.009
C3 0.03 0.102 0.102 -0.057 0.037 -0.026
C4 0.054(8) 0.086(10) 0.118(12) -0.042(10) 0.049(8) -0.026(8)
C5 0.023(5) 0.067(8) 0.081(9) -0.024(7) 0.021(6) -0.023(6)
C6 0.042 0.083 0.112 -0.017 0.047 -0.009
C7 0.045 0.068 0.097 -0.011 0.038 -0.019
C8 0.031(6) 0.082(10) 0.078(9) -0.022(8) 0.029(6) -0.014(7)
C9 0.024 0.056 0.059 -0.002 0.019 -0.01
C10 0.041 0.057 0.059 -0.014 0.026 -0.011
C11 0.030(5) 0.066(8) 0.072(8) -0.013(7) 0.024(5) -0.019(6)
C12 0.043(6) 0.059(7) 0.056(7) -0.019(6) 0.031(5) -0.013(6)
C13 0.033(6) 0.065(8) 0.072(8) -0.031(7) 0.036(5) -0.028(6)
C14 0.038(6) 0.063(8) 0.089(9) -0.031(7) 0.040(6) -0.018(6)
C15 0.039(6) 0.060(8) 0.063(7) -0.024(6) 0.028(6) -0.009(6)
C16 0.028(6) 0.053(7) 0.061(7) -0.013(6) 0.024(5) -0.001(5)
C17 0.114(7) 0.106(7) 0.110(6) -0.001(4) 0.007(5) -0.005(5)
C18 0.131(7) 0.119(7) 0.121(6) -0.002(4) 0.001(5) -0.002(5)
C19 0.102(6) 0.100(5) 0.105(5) -0.005(4) 0.011(5) 0.001(5)
C20 0.089(6) 0.097(5) 0.090(5) -0.013(4) 0.012(4) -0.003(5)
C21 0.071(5) 0.092(5) 0.078(5) -0.006(4) 0.010(4) -0.003(4)
C22 0.112(7) 0.107(5) 0.110(6) -0.004(4) 0.009(5) 0.001(5)
N1 0.036(5) 0.094(9) 0.090(8) -0.052(7) 0.035(5) -0.024(6)
N2 0.046(6) 0.074(8) 0.077(8) -0.014(6) 0.020(5) -0.011(6)
O1 0.045 0.073 0.078 -0.028 0.037 -0.025
O2 0.018 0.059 0.058 0.006 0.019 0.002
O3 0.031 0.059 0.067 -0.01 0.02 -0.007
O4 0.032 0.038 0.058 -0.019 0.019 0.003
O5 0.030(4) 0.063(5) 0.050(4) -0.010(4) 0.020(3) -0.011(4)
O6 0.042(4) 0.074(6) 0.072(6) -0.030(5) 0.039(4) -0.023(4)
O7 0.089(7) 0.096(6) 0.050(5) 0.016(5) -0.026(5) 0.005(6)
Eu1 0.0226(3) 0.0470(4) 0.0418(4) -0.0008(2) 0.0158(2) 0.0009(2)
O1A 0.045 0.073 0.078 0.028 0.037 0.025
O2A 0.018 0.059 0.058 -0.006 0.019 -0.002
O3C 0.031 0.059 0.067 0.01 0.02 0.007
O4C 0.032 0.038 0.058 0.019 0.019 -0.003
O4E 0.032 0.038 0.058 0.019 0.019 -0.003
O6F 0.042 0.074 0.072 -0.03 0.039 -0.023
Eu1A 0.0226 0.047 0.0418 0.0008 0.0158 -0.0009
Eu1C 0.0226 0.047 0.0418 0.0008 0.0158 -0.0009
Eu1E 0.0226 0.047 0.0418 0.0008 0.0158 -0.0009
Eu1F 0.0226 0.047 0.0418 -0.0008 0.0158 0.0009
loop_
_geom_bond_atom_site_label_1
_geom_bond_atom_site_label_2
_geom_bond_site_symmetry_1
_geom_bond_site_symmetry_2
C1 C2 1_555 1_555
C2 C3 1_555 1_555
C3 H1 1_555 1_555
C4 C3 1_555 1_555
H2 C4 1_555 1_555
C5 C4 1_555 1_555
C6 C5 1_555 1_555
H3 C6 1_555 1_555
C7 C2 1_555 1_555
H4 C7 1_555 1_555
C8 C5 1_555 1_555
C9 C10 1_555 1_555
C10 C11 1_555 1_555
C11 H5 1_555 1_555
C12 C11 1_555 1_555
C13 C12 1_555 1_555
H6 C13 1_555 1_555
C14 C13 1_555 1_555
C15 C10 1_555 1_555
H7 C15 1_555 1_555
C16 C12 1_555 1_555
C17 H8 1_555 1_555
C18 C17 1_555 1_555
H9 C18 1_555 1_555
C19 C18 1_555 1_555
H10 C19 1_555 1_555
C20 C19 1_555 1_555
H11 C20 1_555 1_555
C21 C20 1_555 1_555
C22 C21 1_555 1_555
H12 C22 1_555 1_555
H13 C22 1_555 1_555
N1 C8 1_555 1_555
N2 C17 1_555 1_555
O1 C1 1_555 1_555
O2 C1 1_555 1_555
O3 C9 1_555 1_555
O4 C9 1_555 1_555
O5 C16 1_555 1_555
O6 C16 1_555 1_555
O7 C22 1_555 1_555
H14 C8 1_555 1_555
Eu1 N2 1_555 1_555
O1A Eu1 1_555 1_555
O2A Eu1 1_555 1_555
O3C Eu1 1_555 1_555
O4C Eu1 1_555 1_555
O4E Eu1 1_555 1_555
O6F Eu1 1_555 1_555
Eu1A O1 1_555 1_555
Eu1C O3 1_555 1_555
Eu1E O4 1_555 1_555
Eu1F O6 1_555 1_555
C6 C7 1_555 1_555
C14 C15 1_555 1_555
C14 N1 1_555 1_555
C21 N2 1_555 1_555
O2 Eu1A 1_555 1_555
O4 Eu1C 1_555 1_555
O5 Eu1 1_555 1_555
O7 Eu1 1_555 1_555
O4C Eu1F 1_555 1_555
O4E Eu1F 1_555 1_555

#END
