
#######################################################################
#
#                 Cambridge Crystallographic Data Centre
#                                CCDC 
#
#######################################################################
#
# If this CIF has been generated from an entry in the Cambridge 
# Structural Database, then it will include bibliographic, chemical, 
# crystal, experimental, refinement or atomic coordinate data resulting 
# from the CCDC's data processing and validation procedures.
#
#######################################################################

data_CUWWEY
_chemical_formula_moiety         'C44 H29 Eu7 N9 O22'
_symmetry_cell_setting           triclinic
_symmetry_space_group_name_H-M   'P -1'
_symmetry_Int_Tables_number      2
_space_group_name_Hall           '-P 1'
loop_
_symmetry_equiv_pos_site_id
_symmetry_equiv_pos_as_xyz
1 x,y,z
2 -x,-y,-z
_cell_length_a                   10.3912(11)
_cell_length_b                   11.3371(11)
_cell_length_c                   12.8168(12)
_cell_angle_alpha                106.322(8)
_cell_angle_beta                 98.730(8)
_cell_angle_gamma                103.042(9)
_cell_volume                     1373.76
loop_
_atom_site_label
_atom_site_type_symbol
_atom_site_fract_x
_atom_site_fract_y
_atom_site_fract_z
C20 C 0.888(3) 0.8301(18) 0.5319(14)
H12 H 0.8022 0.8237 0.5456
C21 C 0.979(2) 0.901(2) 0.603(2)
H13 H 0.9683 0.9495 0.6705
C22 C 1.106(2) 0.907(2) 0.578(2)
H14 H 1.1806 0.9630 0.6333
C23 C 1.133(2) 0.838(2) 0.4795(17)
H15 H 1.2198 0.8458 0.4671
C24 C 1.0157(17) 0.7570(19) 0.4014(17)
C25 C 1.006(3) 0.664(2) 0.2889(17)
H16 H 1.0888 0.6384 0.2872
H17 H 0.9302 0.5887 0.2708
N5 N 0.8965(16) 0.7565(15) 0.4315(14)
O8 O 0.987(3) 0.733(3) 0.211(2)
H18 H 0.9084 0.7051 0.1741
Eu1 Eu 0.47839(4) 0.44500(3) 0.33609(3)
C1 C 0.4889(9) 0.2279(8) 0.1663(7)
C2 C 0.4944(9) 0.1092(8) 0.0799(7)
C3 C 0.3813(10) 0.0369(10) -0.0040(8)
H1 H 0.3011 0.0606 -0.0063
C4 C 0.6128(9) 0.0719(10) 0.0855(8)
C5 C 0.2387(8) 0.4536(7) 0.4281(7)
C6 C 0.1141(8) 0.4773(8) 0.4639(7)
C7 C -0.0129(9) 0.4251(9) 0.3887(7)
C8 C 0.1260(9) 0.5543(9) 0.5738(7)
H2 H 0.2113 0.5920 0.6220
C9 C 0.4961(9) 0.2544(8) 0.4979(7)
C10 C 0.4962(9) 0.1223(8) 0.4983(7)
C11 C 0.5453(10) 0.1019(8) 0.5986(7)
H3 H 0.5758 0.1709 0.6648
C12 C 0.4512(11) 0.0169(9) 0.3996(8)
C13 C 0.6353(11) 0.6622(11) 0.2264(9)
H4 H 0.7023 0.6705 0.1817
H5 H 0.6428 0.7471 0.2755
C14 C 0.4965(11) 0.6069(10) 0.1508(9)
C15 C 0.4584(15) 0.6545(12) 0.0631(11)
C16 C 0.3332(15) 0.6035(13) -0.0029(11)
H6 H 0.3094 0.6345 -0.0608
C17 C 0.2392(14) 0.5070(12) 0.0120(10)
H7 H 0.1517 0.4723 -0.0329
C18 C 0.2855(12) 0.4632(10) 0.1026(8)
H8 H 0.2254 0.3970 0.1151
C19 C 0.540(2) 0.7580(15) 0.0287(19)
H9 H 0.6262 0.7974 0.0806
H10 H 0.4919 0.8212 0.0282
H11 H 0.5528 0.7216 -0.0447
N1 N 0.712(4) 0.108(4) 0.171(3)
N2 N -0.0322(16) 0.3535(18) 0.2785(14)
N3 N 0.382(2) 0.024(2) 0.2963(18)
N4 N 0.4083(8) 0.5118(7) 0.1683(6)
O1 O 0.3746(6) 0.2464(5) 0.1744(5)
O2 O 0.5965(6) 0.3066(5) 0.2287(5)
O3 O 0.2376(6) 0.4110(6) 0.3261(5)
O4 O 0.3465(5) 0.4788(5) 0.5023(5)
O5 O 0.4601(6) 0.2710(5) 0.4070(5)
O6 O 0.5327(6) 0.3407(5) 0.5917(5)
O7 O 0.6623(7) 0.5887(6) 0.2885(6)
C1A C 0.5111(9) -0.2279(8) -0.1663(7)
C2A C 0.5056(9) -0.1092(8) -0.0799(7)
C3A C 0.6187(10) -0.0369(10) 0.0040(8)
H1A H 0.6989 -0.0606 0.0063
C4A C 0.3872(9) -0.0719(10) -0.0855(8)
N1A N 0.288(4) -0.108(4) -0.171(3)
O1A O 0.6254(6) -0.2464(5) -0.1744(5)
O2A O 0.4035(6) -0.3066(5) -0.2287(5)
C5A C -0.2387(8) 0.5464(7) 0.5719(7)
C6A C -0.1141(8) 0.5227(8) 0.5361(7)
C7A C 0.0129(9) 0.5749(9) 0.6113(7)
C8A C -0.1260(9) 0.4457(9) 0.4262(7)
H2A H -0.2113 0.4080 0.3780
N2A N 0.0322(16) 0.6465(18) 0.7215(14)
O3A O -0.2376(6) 0.5890(6) 0.6739(5)
O4A O -0.3465(5) 0.5212(5) 0.4977(5)
C9A C 0.5039(9) -0.2544(8) 0.5021(7)
C10A C 0.5038(9) -0.1223(8) 0.5017(7)
C11A C 0.4547(10) -0.1019(8) 0.4014(7)
H3A H 0.4242 -0.1709 0.3352
C12A C 0.5488(11) -0.0169(9) 0.6004(8)
N3A N 0.618(2) -0.024(2) 0.7037(18)
O5A O 0.5399(6) -0.2710(5) 0.5930(5)
O6A O 0.4673(6) -0.3407(5) 0.4083(5)
Eu1A Eu -0.47839(4) 0.55500(3) 0.66391(3)
C13A C -0.6353(11) 0.3378(11) 0.7736(9)
H4A H -0.7023 0.3295 0.8183
H5A H -0.6428 0.2529 0.7245
C14A C -0.4965(11) 0.3931(10) 0.8492(9)
C15A C -0.4584(15) 0.3455(12) 0.9369(11)
C16A C -0.3332(15) 0.3965(13) 1.0029(11)
H6A H -0.3094 0.3655 1.0608
C17A C -0.2392(14) 0.4930(12) 0.9880(10)
H7A H -0.1517 0.5277 1.0329
C18A C -0.2855(12) 0.5368(10) 0.8974(8)
H8A H -0.2254 0.6030 0.8849
C19A C -0.540(2) 0.2420(15) 0.9713(19)
H9A H -0.6262 0.2026 0.9194
H10A H -0.4919 0.1788 0.9718
H11A H -0.5528 0.2784 1.0447
N4A N -0.4083(8) 0.4882(7) 0.8317(6)
O7A O -0.6623(7) 0.4113(6) 0.7115(6)
Eu1_2 Eu -0.52161(4) 0.44500(3) 0.33609(3)
Eu1_3 Eu 0.47839(4) -0.55500(3) 0.33609(3)
Eu1A_2 Eu 0.52161(4) -0.44500(3) -0.33609(3)
Eu1A_3 Eu 0.52161(4) -0.44500(3) 0.66391(3)
Eu1A_4 Eu 0.52161(4) 0.55500(3) 0.66391(3)
O1A_2 O -0.3746(6) 0.7536(5) 0.8256(5)
O2A_2 O -0.5965(6) 0.6934(5) 0.7713(5)
O4_2 O -0.6535(5) 0.4788(5) 0.5023(5)
O4A_2 O 0.6535(5) 0.5212(5) 0.4977(5)
O5A_2 O -0.4601(6) 0.7290(5) 0.5930(5)
O6_2 O -0.4673(6) 0.3407(5) 0.5917(5)
O6A_2 O 0.4673(6) 0.6593(5) 0.4083(5)
loop_
_geom_bond_atom_site_label_1
_geom_bond_atom_site_label_2
_geom_bond_site_symmetry_1
_geom_bond_site_symmetry_2
Eu1 N4 1_555 1_555
C1 C2 1_555 1_555
C2 C3 1_555 1_555
C3 H1 1_555 1_555
C4 C2 1_555 1_555
C5 C6 1_555 1_555
C6 C7 1_555 1_555
C7 N2 1_555 1_555
C8 C6 1_555 1_555
H2 C8 1_555 1_555
C9 C10 1_555 1_555
C10 C11 1_555 1_555
C11 H3 1_555 1_555
C12 C10 1_555 1_555
C13 H4 1_555 1_555
H5 C13 1_555 1_555
C14 C13 1_555 1_555
C15 C14 1_555 1_555
C16 C15 1_555 1_555
H6 C16 1_555 1_555
C17 C16 1_555 1_555
H7 C17 1_555 1_555
C18 C17 1_555 1_555
H8 C18 1_555 1_555
C19 C15 1_555 1_555
H9 C19 1_555 1_555
H10 C19 1_555 1_555
H11 C19 1_555 1_555
N1 C4 1_555 1_555
N3 C12 1_555 1_555
N4 C14 1_555 1_555
O1 Eu1 1_555 1_555
O2 Eu1 1_555 1_555
O3 Eu1 1_555 1_555
O4 Eu1 1_555 1_555
O5 Eu1 1_555 1_555
O6 C9 1_555 1_555
O7 Eu1 1_555 1_555
C20 H12 1_555 1_555
C21 C20 1_555 1_555
H13 C21 1_555 1_555
C22 C21 1_555 1_555
H14 C22 1_555 1_555
C23 C22 1_555 1_555
H15 C23 1_555 1_555
C24 C23 1_555 1_555
C25 C24 1_555 1_555
H16 C25 1_555 1_555
H17 C25 1_555 1_555
N5 C20 1_555 1_555
O8 C25 1_555 1_555
H18 O8 1_555 1_555
C1A C2A 1_555 1_555
C2A C3A 1_555 1_555
C3A C4 1_555 1_555
H1A C3A 1_555 1_555
C4A C3 1_555 1_555
N1A C4A 1_555 1_555
O1A C1A 1_555 1_555
O2A C1A 1_555 1_555
C5A C6A 1_555 1_555
C6A C7A 1_555 1_555
C7A C8 1_555 1_555
C8A C7 1_555 1_555
H2A C8A 1_555 1_555
N2A C7A 1_555 1_555
O3A C5A 1_555 1_555
O4A C5A 1_555 1_555
C9A C10A 1_555 1_555
C10A C11A 1_555 1_555
C11A C12 1_555 1_555
H3A C11A 1_555 1_555
C12A C11 1_555 1_555
N3A C12A 1_555 1_555
O5A C9A 1_555 1_555
O6A C9A 1_555 1_555
Eu1A O3A 1_555 1_555
C13A H4A 1_555 1_555
H5A C13A 1_555 1_555
C14A C13A 1_555 1_555
C15A C14A 1_555 1_555
C16A C15A 1_555 1_555
H6A C16A 1_555 1_555
C17A C16A 1_555 1_555
H7A C17A 1_555 1_555
C18A C17A 1_555 1_555
H8A C18A 1_555 1_555
C19A C15A 1_555 1_555
H9A C19A 1_555 1_555
H10A C19A 1_555 1_555
H11A C19A 1_555 1_555
N4A Eu1A 1_555 1_555
O7A Eu1A 1_555 1_555
Eu1_2 O4A 1_555 1_555
Eu1_3 O6A 1_555 1_555
Eu1A_2 O1A 1_555 1_555
Eu1A_3 O5A 1_555 1_555
Eu1A_4 O4 1_555 1_555
O1A_2 Eu1A 1_555 1_555
O2A_2 Eu1A 1_555 1_555
O4_2 Eu1A 1_555 1_555
O4A_2 Eu1 1_555 1_555
O5A_2 Eu1A 1_555 1_555
O6_2 Eu1A 1_555 1_555
O6A_2 Eu1 1_555 1_555
C1 O1 1_555 1_555
C1 O2 1_555 1_555
C5 O3 1_555 1_555
C5 O4 1_555 1_555
C9 O5 1_555 1_555
C13 O7 1_555 1_555
C18 N4 1_555 1_555
O6 Eu1A_4 1_555 1_555
C24 N5 1_555 1_555
C2A C4A 1_555 1_555
O2A Eu1A_2 1_555 1_555
C6A C8A 1_555 1_555
O4A Eu1A 1_555 1_555
C10A C12A 1_555 1_555
C13A O7A 1_555 1_555
C14A N4A 1_555 1_555
C18A N4A 1_555 1_555
Eu1_2 O4_2 1_555 1_555
Eu1A_4 O4A_2 1_555 1_555

#END
