
#######################################################################
#
#                 Cambridge Crystallographic Data Centre
#                                CCDC 
#
#######################################################################
#
# If this CIF has been generated from an entry in the Cambridge 
# Structural Database, then it will include bibliographic, chemical, 
# crystal, experimental, refinement or atomic coordinate data resulting 
# from the CCDC's data processing and validation procedures.
#
#######################################################################

data_CUWXUP
_chemical_formula_moiety         '(C21 H19 Eu1 N6 O7)n'
_symmetry_cell_setting           monoclinic
_symmetry_space_group_name_H-M   'C 2/c'
_symmetry_Int_Tables_number      15
_space_group_name_Hall           '-C 2yc'
loop_
_symmetry_equiv_pos_site_id
_symmetry_equiv_pos_as_xyz
1 x,y,z
2 -x,y,1/2-z
3 1/2+x,1/2+y,z
4 1/2-x,1/2+y,1/2-z
5 -x,-y,-z
6 x,-y,1/2+z
7 1/2-x,1/2-y,-z
8 1/2+x,1/2-y,1/2+z
_cell_length_a                   29.6024(12)
_cell_length_b                   13.4780(7)
_cell_length_c                   13.3524(6)
_cell_angle_alpha                90
_cell_angle_beta                 96.594(4)
_cell_angle_gamma                90
_cell_volume                     5292.11
loop_
_atom_site_label
_atom_site_type_symbol
_atom_site_fract_x
_atom_site_fract_y
_atom_site_fract_z
Eu1 Eu 0.813846(8) 0.202912(18) 0.541396(18)
C1 C 0.89837(19) 0.2403(4) 0.4656(4)
C2 C 0.9435(2) 0.2617(5) 0.4315(5)
C3 C 0.9601(2) 0.3584(5) 0.4369(6)
H1 H 0.9423 0.4091 0.4588
C4 C 1.0031(2) 0.3800(5) 0.4101(6)
H2 H 1.0133 0.4453 0.4106
C5 C 1.0308(2) 0.3036(5) 0.3826(5)
C6 C 1.0135(2) 0.2071(5) 0.3749(6)
H3 H 1.0313 0.1561 0.3536
C7 C 0.9701(2) 0.1865(5) 0.3989(6)
H4 H 0.9589 0.1220 0.3931
C8 C 1.0782(2) 0.3202(6) 0.3633(6)
H5 H 1.090(3) 0.259(4) 0.332(5)
C9 C 1.24532(18) 0.5695(4) 0.4416(4)
C10 C 1.21452(18) 0.4956(4) 0.3841(4)
C11 C 1.16891(18) 0.4891(4) 0.3974(4)
H6 H 1.1564 0.5325 0.4408
C12 C 1.14178(19) 0.4169(4) 0.3452(4)
C13 C 1.1603(2) 0.3573(4) 0.2742(4)
H7 H 1.1421 0.3109 0.2371
C14 C 1.20545(18) 0.3672(4) 0.2591(4)
C15 C 1.23267(19) 0.4355(4) 0.3155(4)
H8 H 1.2633 0.4408 0.3069
C16 C 1.22596(19) 0.3057(4) 0.1810(4)
C17 C 0.8545(2) 0.0460(5) 0.7527(5)
C18 C 0.8727(3) -0.0181(6) 0.6205(6)
N1 N 1.09563(17) 0.4092(4) 0.3637(4)
N2 N 0.8996(5) 0.3742(10) 0.7997(10)
N3 N 0.85466(18) 0.0642(4) 0.6538(4)
N4 N 0.8704(2) -0.0440(4) 0.7738(4)
H9 H 0.874(3) -0.075(5) 0.842(3)
N5 N 0.8825(3) -0.0884(5) 0.6895(6)
N6 N 0.8445(3) 0.1089(7) 0.8286(6)
O1 O 0.88261(13) 0.1521(3) 0.4593(3)
O2 O 0.87701(15) 0.3087(3) 0.5023(4)
O3 O 1.22942(12) 0.6499(3) 0.4697(3)
O4 O 1.28678(13) 0.5494(3) 0.4598(3)
O5 O 1.20018(13) 0.2436(3) 0.1331(3)
O6 O 1.26635(13) 0.3236(3) 0.1696(3)
O7 O 0.84802(18) 0.2834(4) 0.6941(4)
C19 C 0.8652(11) 0.407(2) 0.861(2)
H10 H 0.8793 0.4461 0.9169
H11 H 0.8504 0.3510 0.8869
H12 H 0.8431 0.4474 0.8214
C20 C 0.8822(6) 0.3141(13) 0.7122(14)
C21 C 0.9478(7) 0.4054(16) 0.8101(16)
H13 H 0.9505 0.4707 0.8387
H14 H 0.9586 0.4059 0.7449
H15 H 0.9657 0.3597 0.8533
Eu1A Eu 1.186154(8) 0.202912(18) -0.041396(18)
Eu1B Eu 1.313846(8) 0.702912(18) 0.541396(18)
Eu1D Eu 1.186154(8) 0.797088(18) 0.458604(18)
Eu1G Eu 1.313846(8) 0.297088(18) 0.041396(18)
O3B O 0.72942(12) 0.1499(3) 0.4697(3)
O3D O 0.77058(12) 0.3501(3) 0.5303(3)
O4B O 0.78678(13) 0.0494(3) 0.4598(3)
O5A O 0.79982(13) 0.2436(3) 0.3669(3)
O6G O 0.76635(13) 0.1764(3) 0.6696(3)
loop_
_geom_bond_atom_site_label_1
_geom_bond_atom_site_label_2
_geom_bond_site_symmetry_1
_geom_bond_site_symmetry_2
Eu1 N3 1_555 1_555
C1 C2 1_555 1_555
C2 C3 1_555 1_555
C3 H1 1_555 1_555
C4 C3 1_555 1_555
H2 C4 1_555 1_555
C5 C4 1_555 1_555
C6 C5 1_555 1_555
H3 C6 1_555 1_555
C7 C2 1_555 1_555
H4 C7 1_555 1_555
C8 C5 1_555 1_555
H5 C8 1_555 1_555
C9 C10 1_555 1_555
C10 C11 1_555 1_555
C11 H6 1_555 1_555
C12 C11 1_555 1_555
C13 C12 1_555 1_555
H7 C13 1_555 1_555
C14 C13 1_555 1_555
C15 C10 1_555 1_555
H8 C15 1_555 1_555
C16 C14 1_555 1_555
C17 N3 1_555 1_555
C18 N3 1_555 1_555
N1 C8 1_555 1_555
N2 C19 1_555 1_555
N4 C17 1_555 1_555
H9 N4 1_555 1_555
N5 C18 1_555 1_555
N6 C17 1_555 1_555
O1 Eu1 1_555 1_555
O2 Eu1 1_555 1_555
O3 C9 1_555 1_555
O4 C9 1_555 1_555
O5 C16 1_555 1_555
O6 C16 1_555 1_555
O7 Eu1 1_555 1_555
C19 H10 1_555 1_555
H11 C19 1_555 1_555
H12 C19 1_555 1_555
C20 N2 1_555 1_555
C21 N2 1_555 1_555
H13 C21 1_555 1_555
H14 C21 1_555 1_555
H15 C21 1_555 1_555
Eu1A O5 1_555 1_555
Eu1B O3 1_555 1_555
Eu1D O3 1_555 1_555
Eu1G O6 1_555 1_555
O3B Eu1 1_555 1_555
O3D Eu1 1_555 1_555
O4B Eu1 1_555 1_555
O5A Eu1 1_555 1_555
O6G Eu1 1_555 1_555
C1 O1 1_555 1_555
C1 O2 1_555 1_555
C6 C7 1_555 1_555
C12 N1 1_555 1_555
C14 C15 1_555 1_555
N4 N5 1_555 1_555
O4 Eu1B 1_555 1_555
O7 C20 1_555 1_555

#END
