
#######################################################################
#
#                 Cambridge Crystallographic Data Centre
#                                CCDC 
#
#######################################################################
#
# If this CIF has been generated from an entry in the Cambridge 
# Structural Database, then it will include bibliographic, chemical, 
# crystal, experimental, refinement or atomic coordinate data resulting 
# from the CCDC's data processing and validation procedures.
#
#######################################################################

data_CUWXAV
_chemical_formula_moiety         '(C26 H23 Eu1 N2 O9)n'
_symmetry_cell_setting           monoclinic
_symmetry_space_group_name_H-M   'C 2/c'
_symmetry_Int_Tables_number      15
_space_group_name_Hall           '-C 2yc'
loop_
_symmetry_equiv_pos_site_id
_symmetry_equiv_pos_as_xyz
1 x,y,z
2 -x,y,1/2-z
3 1/2+x,1/2+y,z
4 1/2-x,1/2+y,1/2-z
5 -x,-y,-z
6 x,-y,1/2+z
7 1/2-x,1/2-y,-z
8 1/2+x,1/2-y,1/2+z
_cell_length_a                   28.2573(18)
_cell_length_b                   14.6878(9)
_cell_length_c                   13.6390(8)
_cell_angle_alpha                90
_cell_angle_beta                 99.327(7)
_cell_angle_gamma                90
_cell_volume                     5585.86
loop_
_atom_site_label
_atom_site_type_symbol
_atom_site_fract_x
_atom_site_fract_y
_atom_site_fract_z
C1 C 0.4049(3) 0.2589(8) 0.9747(7)
C2 C 0.4493(3) 0.2863(7) 0.9367(8)
C3 C 0.4785(5) 0.2185(8) 0.9033(11)
H1 H 0.4692 0.1578 0.9030
C4 C 0.5200(5) 0.2412(9) 0.8716(11)
H2 H 0.5387 0.1961 0.8491
C5 C 0.5351(4) 0.3338(9) 0.8727(8)
C6 C 0.5050(4) 0.4022(9) 0.9018(9)
H3 H 0.5130 0.4634 0.8987
C7 C 0.4623(4) 0.3751(8) 0.9357(8)
H4 H 0.4429 0.4191 0.9577
C8 C 0.5826(4) 0.3507(9) 0.8455(9)
C9 C 0.7509(3) 0.5968(5) 0.9082(6)
C10 C 0.7199(3) 0.5276(5) 0.8506(6)
C11 C 0.7378(3) 0.4720(5) 0.7845(6)
H5 H 0.7695 0.4783 0.7752
C12 C 0.7090(3) 0.4068(6) 0.7316(6)
C13 C 0.6606(3) 0.3965(7) 0.7456(6)
H6 H 0.6408 0.3542 0.7086
C14 C 0.6432(3) 0.4513(6) 0.8166(7)
C15 C 0.6719(3) 0.5180(6) 0.8648(6)
H7 H 0.6595 0.5574 0.9076
C16 C 0.7275(3) 0.3462(7) 0.6597(7)
C17 C 0.3802(14) 0.010(3) 1.098(3)
H8 H 0.4127 0.0055 1.1340
H9 H 0.3827 0.0157 1.0281
C18 C 0.3553(12) -0.078(2) 1.111(3)
C19 C 0.3494(11) -0.114(2) 1.203(3)
C20 C 0.3118(11) -0.1752(19) 1.180(3)
H10 H 0.3054 -0.2024 1.2384
C21 C 0.2806(13) -0.209(2) 1.099(3)
H11 H 0.2567 -0.2528 1.1010
C22 C 0.2917(14) -0.167(2) 1.015(3)
H12 H 0.2743 -0.1813 0.9530
C23 C 0.3283(14) -0.103(3) 1.020(3)
H13 H 0.3348 -0.0755 0.9625
N1 N 0.5969(3) 0.4386(6) 0.8393(6)
O1 O 0.3874(2) 0.1807(4) 0.9539(5)
O2 O 0.3859(2) 0.3137(5) 1.0266(6)
O3 O 0.79551(19) 0.5846(4) 0.9245(4)
O4 O 0.7326(2) 0.6647(4) 0.9436(4)
O5 O 0.6991(2) 0.2863(4) 0.6173(5)
O6 O 0.7697(2) 0.3567(4) 0.6460(5)
O7 O 0.3546(14) 0.265(2) 1.208(3)
O8 O 0.3632(3) 0.0836(6) 1.1235(6)
O9 O 0.3769(8) -0.0627(16) 1.2836(17)
H14 H 0.3720 -0.0833 1.3370
C24 C 0.3318(13) 0.293(2) 1.273(2)
N2 N 0.3606(11) 0.345(2) 1.352(2)
C25 C 0.3788(14) 0.393(2) 1.443(2)
H15 H 0.4024 0.4367 1.4303
H16 H 0.3932 0.3505 1.4922
H17 H 0.3530 0.4241 1.4665
H18 H 0.599(7) 0.316(11) 0.906(9)
Eu1 Eu 0.317883(12) 0.21057(2) 1.03755(3)
C26 C 0.3234(13) 0.391(3) 1.395(3)
H19 H 0.3380 0.4294 1.4486
H20 H 0.3034 0.3468 1.4200
H21 H 0.3043 0.4276 1.3453
O3B O 0.29551(19) 0.0846(4) 0.9245(4)
O4B O 0.2326(2) 0.1647(4) 0.9436(4)
O4D O 0.2674(2) 0.3353(4) 1.0564(4)
O5A O 0.3009(2) 0.2863(4) 0.8827(5)
O6G O 0.2697(2) 0.1433(4) 1.1460(5)
Eu1A Eu 0.682117(12) 0.21057(2) 0.46245(3)
Eu1B Eu 0.817883(12) 0.71057(2) 1.03755(3)
Eu1D Eu 0.682117(12) 0.78943(2) 0.96245(3)
Eu1G Eu 0.817883(12) 0.28943(2) 0.53755(3)
loop_
_geom_bond_atom_site_label_1
_geom_bond_atom_site_label_2
_geom_bond_site_symmetry_1
_geom_bond_site_symmetry_2
C1 C2 1_555 1_555
C2 C3 1_555 1_555
C3 H1 1_555 1_555
C4 C3 1_555 1_555
H2 C4 1_555 1_555
C5 C4 1_555 1_555
C6 C5 1_555 1_555
H3 C6 1_555 1_555
C7 C2 1_555 1_555
H4 C7 1_555 1_555
C8 C5 1_555 1_555
C9 C10 1_555 1_555
C10 C11 1_555 1_555
C11 H5 1_555 1_555
C12 C11 1_555 1_555
C13 C12 1_555 1_555
H6 C13 1_555 1_555
C14 C13 1_555 1_555
C15 C10 1_555 1_555
H7 C15 1_555 1_555
C16 C12 1_555 1_555
C17 H8 1_555 1_555
H9 C17 1_555 1_555
C18 C17 1_555 1_555
C19 C18 1_555 1_555
C20 C19 1_555 1_555
H10 C20 1_555 1_555
C21 C20 1_555 1_555
H11 C21 1_555 1_555
C22 C21 1_555 1_555
H12 C22 1_555 1_555
C23 C18 1_555 1_555
H13 C23 1_555 1_555
N1 C8 1_555 1_555
O1 C1 1_555 1_555
O2 C1 1_555 1_555
O3 C9 1_555 1_555
O4 C9 1_555 1_555
O5 C16 1_555 1_555
O6 C16 1_555 1_555
O7 C24 1_555 1_555
O8 C17 1_555 1_555
O9 C19 1_555 1_555
H14 O9 1_555 1_555
C24 N2 1_555 1_555
N2 C25 1_555 1_555
C25 H15 1_555 1_555
H16 C25 1_555 1_555
H17 C25 1_555 1_555
H18 C8 1_555 1_555
Eu1 O1 1_555 1_555
C26 N2 1_555 1_555
H19 C26 1_555 1_555
H20 C26 1_555 1_555
H21 C26 1_555 1_555
O3B Eu1 1_555 1_555
O4B Eu1 1_555 1_555
O4D Eu1 1_555 1_555
O5A Eu1 1_555 1_555
O6G Eu1 1_555 1_555
Eu1A O5 1_555 1_555
Eu1B O3 1_555 1_555
Eu1D O4 1_555 1_555
Eu1G O6 1_555 1_555
C6 C7 1_555 1_555
C14 C15 1_555 1_555
C14 N1 1_555 1_555
C22 C23 1_555 1_555
O2 Eu1 1_555 1_555
O4 Eu1B 1_555 1_555
O7 Eu1 1_555 1_555
O8 Eu1 1_555 1_555

#END
