
#######################################################################
#
#                 Cambridge Crystallographic Data Centre
#                                CCDC 
#
#######################################################################
#
# If this CIF has been generated from an entry in the Cambridge 
# Structural Database, then it will include bibliographic, chemical, 
# crystal, experimental, refinement or atomic coordinate data resulting 
# from the CCDC's data processing and validation procedures.
#
#######################################################################

data_CUWXOJ
_chemical_formula_moiety         '(C24 H22 Eu1 N5 O7)n'
_symmetry_cell_setting           monoclinic
_symmetry_space_group_name_H-M   'C 2/c'
_symmetry_Int_Tables_number      15
_space_group_name_Hall           '-C 2yc'
loop_
_symmetry_equiv_pos_site_id
_symmetry_equiv_pos_as_xyz
1 x,y,z
2 -x,y,1/2-z
3 1/2+x,1/2+y,z
4 1/2-x,1/2+y,1/2-z
5 -x,-y,-z
6 x,-y,1/2+z
7 1/2-x,1/2-y,-z
8 1/2+x,1/2-y,1/2+z
_cell_length_a                   29.7050(17)
_cell_length_b                   12.9699(6)
_cell_length_c                   13.8285(6)
_cell_angle_alpha                90
_cell_angle_beta                 95.247(5)
_cell_angle_gamma                90
_cell_volume                     5305.39
loop_
_atom_site_label
_atom_site_type_symbol
_atom_site_fract_x
_atom_site_fract_y
_atom_site_fract_z
_atom_site_U_iso_or_equiv
_atom_site_thermal_displace_type
Eu1 Eu 0.314377(6) 0.800062(15) 1.036555(14) 0.0099 Uani
C1 C 0.60264(14) 0.7552(4) 0.5391(3) 0.0163 Uani
C2 C 0.55650(15) 0.7343(4) 0.5684(3) 0.0204 Uani
C3 C 0.54185(17) 0.6339(4) 0.5797(4) 0.0332 Uani
H1 H 0.5615 0.5794 0.5711 0.0400 Uiso
C4 C 0.49846(17) 0.6135(4) 0.6036(4) 0.0366 Uani
H2 H 0.4890 0.5457 0.6107 0.0440 Uiso
C5 C 0.52668(16) 0.8148(4) 0.5810(4) 0.0260 Uani
H3 H 0.5359 0.8825 0.5728 0.0310 Uiso
C6 C 0.46898(17) 0.6945(4) 0.6170(4) 0.0278 Uani
C7 C 0.48340(16) 0.7950(4) 0.6056(4) 0.0279 Uani
H4 H 0.4639 0.8495 0.6146 0.0340 Uiso
C8 C 0.42188(16) 0.6763(4) 0.6376(4) 0.0276 Uani
C9 C 0.25575(14) 0.4378(3) 0.5550(3) 0.0126 Uani
C10 C 0.28525(14) 0.5103(3) 0.6152(3) 0.0128 Uani
C11 C 0.26577(14) 0.5766(3) 0.6790(3) 0.0131 Uani
H5 H 0.2346 0.5779 0.6812 0.0160 Uiso
C12 C 0.29325(14) 0.6407(3) 0.7394(3) 0.0124 Uani
C13 C 0.33916(14) 0.6447(3) 0.7303(3) 0.0171 Uani
H6 H 0.3574 0.6891 0.7695 0.0200 Uiso
C14 C 0.35826(14) 0.5825(3) 0.6627(3) 0.0173 Uani
C15 C 0.33155(14) 0.5121(3) 0.6080(3) 0.0160 Uani
H7 H 0.3446 0.4664 0.5669 0.0190 Uiso
C16 C 0.27269(14) 0.7019(3) 0.8175(3) 0.0127 Uani
C17 C 0.32000(16) 1.0159(4) 1.1855(3) 0.0218 Uani
H8 H 0.2887 1.0138 1.1731 0.0260 Uiso
C18 C 0.38680(16) 1.0602(4) 1.2478(3) 0.0249 Uani
H9 H 0.4103 1.0934 1.2844 0.0300 Uiso
C19 C 0.39070(15) 0.9825(4) 1.1834(3) 0.0227 Uani
C20 C 0.43299(17) 0.9318(5) 1.1566(4) 0.0379 Uani
H10 H 0.4254 0.8794 1.1088 0.0570 Uiso
H11 H 0.4486 0.9011 1.2133 0.0570 Uiso
H12 H 0.4521 0.9824 1.1305 0.0570 Uiso
N1 N 0.40512(12) 0.5877(3) 0.6464(3) 0.0231 Uani
N2 N 0.34772(12) 0.9550(3) 1.1423(3) 0.0172 Uani
N3 N 0.34153(13) 1.0805(3) 1.2485(3) 0.0226 Uani
O1 O 0.61635(10) 0.8477(2) 0.5366(2) 0.0170 Uani
O2 O 0.62702(10) 0.6810(2) 0.5165(2) 0.0188 Uani
O3 O 0.27225(9) 0.3546(2) 0.5254(2) 0.0141 Uani
O4 O 0.21507(9) 0.4598(2) 0.5352(2) 0.0154 Uani
O5 O 0.23316(10) 0.6816(2) 0.8333(2) 0.0155 Uani
O6 O 0.29786(9) 0.7696(2) 0.8624(2) 0.0133 Uani
O7 O 0.35767(11) 0.7274(3) 1.1729(2) 0.0257 Uani
H13 H 0.4033(15) 0.739(3) 0.645(4) 0.0310 Uiso
H14 H 0.3268(15) 1.129(3) 1.290(3) 0.0310 Uiso
Eu1A Eu 0.685623(6) 0.800062(15) 0.463445(14) 0.0099 Uani
Eu1C Eu 0.185623(6) 0.300062(15) 0.463445(14) 0.0099 Uani
Eu1E Eu 0.314377(6) 0.199938(15) 0.536555(14) 0.0099 Uani
Eu1F Eu 0.185623(6) 0.699938(15) 0.963445(14) 0.0099 Uani
O1A O 0.38365(10) 0.8477(2) 0.9634(2) 0.0170 Uani
O2A O 0.37298(10) 0.6810(2) 0.9835(2) 0.0188 Uani
O3C O 0.22775(9) 0.8546(2) 0.9746(2) 0.0141 Uani
O3E O 0.27225(9) 0.6454(2) 1.0254(2) 0.0141 Uani
O4C O 0.28493(9) 0.9598(2) 0.9648(2) 0.0154 Uani
O5F O 0.26684(10) 0.8184(2) 1.1667(2) 0.0155 Uani
C21 C 0.3618(3) 0.1439(6) 0.9099(5) 0.0611 Uani
H15 H 0.3820 0.0928 0.8947 0.0740 Uiso
C22 C 0.3159(3) 0.2338(7) 0.9879(6) 0.0653 Uani
H16 H 0.2978 0.2550 1.0356 0.0780 Uiso
C23 C 0.3241(3) 0.2843(6) 0.9089(6) 0.0675 Uani
C24 C 0.3078(4) 0.3873(8) 0.8720(7) 0.1024 Uani
H17 H 0.3205 0.4023 0.8122 0.1540 Uiso
H18 H 0.3169 0.4393 0.9191 0.1540 Uiso
H19 H 0.2754 0.3865 0.8610 0.1540 Uiso
N4 N 0.3515(2) 0.2288(5) 0.8568(5) 0.0716 Uani
N5 N 0.3394(2) 0.1446(4) 0.9852(5) 0.0608 Uani
loop_
_atom_site_aniso_label
_atom_site_aniso_U_11
_atom_site_aniso_U_22
_atom_site_aniso_U_33
_atom_site_aniso_U_23
_atom_site_aniso_U_13
_atom_site_aniso_U_12
Eu1 0.01004(13) 0.00959(13) 0.01054(12) -0.00004(8) 0.00360(8) 0.00013(8)
C1 0.014 0.022 0.013 0.0006 0.0017 -0.0008
C2 0.017 0.023 0.022 -0.003 0.0066 -0.0012
C3 0.023 0.026 0.053 -0.005 0.016 0.001
C4 0.028 0.026 0.059 -0.008 0.021 -0.008
C5 0.022 0.026 0.031 -0.002 0.008 -0.002
C6 0.019(3) 0.032(3) 0.034(3) -0.008(2) 0.011(2) -0.003(2)
C7 0.018(3) 0.026(3) 0.041(3) -0.005(2) 0.009(2) 0.000(2)
C8 0.018(2) 0.031(3) 0.035(3) -0.007(2) 0.009(2) -0.004(2)
C9 0.017 0.011 0.0106 0.0022 0.0052 -0.002
C10 0.018(2) 0.010(2) 0.0110(19) 0.0013(17) 0.0048(16) -0.0013(17)
C11 0.013(2) 0.014(2) 0.013(2) 0.0032(17) 0.0052(16) -0.0011(17)
C12 0.017(2) 0.011(2) 0.0096(19) -0.0009(17) 0.0036(16) -0.0004(17)
C13 0.018(2) 0.016(2) 0.018(2) -0.0032(18) 0.0050(18) -0.0040(18)
C14 0.015(2) 0.018(2) 0.020(2) -0.0011(19) 0.0073(18) -0.0035(18)
C15 0.015(2) 0.015(2) 0.019(2) -0.0025(18) 0.0073(17) -0.0006(18)
C16 0.015(2) 0.014(2) 0.0091(19) 0.0051(17) 0.0013(16) -0.0001(17)
C17 0.022(2) 0.019(2) 0.025(2) 0.001(2) 0.0046(19) -0.002(2)
C18 0.024(3) 0.026(3) 0.024(2) -0.006(2) -0.001(2) -0.004(2)
C19 0.023(3) 0.023(3) 0.022(2) -0.004(2) 0.0023(19) -0.004(2)
C20 0.021(3) 0.043(3) 0.049(3) -0.020(3) 0.000(2) 0.000(2)
N1 0.0133(19) 0.027(2) 0.030(2) -0.0111(18) 0.0079(16) -0.0037(17)
N2 0.0149(18) 0.0155(19) 0.0217(19) -0.0016(16) 0.0047(15) -0.0024(15)
N3 0.026(2) 0.018(2) 0.025(2) -0.0066(17) 0.0092(17) -0.0019(17)
O1 0.0152 0.0174 0.019 0.0014 0.0056 0.0011
O2 0.0143 0.021 0.0221 -0.003 0.0067 -0.0027
O3 0.015 0.0113 0.0167 -0.0027 0.0057 -0.0008
O4 0.0142 0.011 0.0208 -0.0005 0.0004 0.0028
O5 0.0126(15) 0.0203(16) 0.0145(15) -0.0044(13) 0.0063(12) -0.0033(12)
O6 0.0152(15) 0.0142(15) 0.0109(14) -0.0021(12) 0.0034(12) -0.0022(12)
O7 0.0336(19) 0.0227(18) 0.0198(17) 0.0014(14) -0.0029(14) 0.0032(15)
Eu1A 0.01004 0.00959 0.01054 4e-05 0.0036 -0.00013
Eu1C 0.01004 0.00959 0.01054 4e-05 0.0036 -0.00013
Eu1E 0.01004 0.00959 0.01054 4e-05 0.0036 -0.00013
Eu1F 0.01004 0.00959 0.01054 -4e-05 0.0036 0.00013
O1A 0.0152 0.0174 0.019 -0.0014 0.0056 -0.0011
O2A 0.0143 0.021 0.0221 0.003 0.0067 0.0027
O3C 0.015 0.0113 0.0167 0.0027 0.0057 0.0008
O3E 0.015 0.0113 0.0167 0.0027 0.0057 0.0008
O4C 0.0142 0.011 0.0208 0.0005 0.0004 -0.0028
O5F 0.0126 0.0203 0.0145 -0.0044 0.0063 -0.0033
C21 0.082(4) 0.047(3) 0.056(3) 0.000(3) 0.015(3) 0.003(3)
C22 0.066(5) 0.070(4) 0.060(4) -0.014(3) 0.007(3) -0.003(4)
C23 0.084(4) 0.068(3) 0.050(3) -0.011(3) 0.004(3) 0.019(3)
C24 0.129(5) 0.095(4) 0.083(4) 0.006(3) 0.009(4) 0.037(4)
N4 0.092(4) 0.067(3) 0.058(3) 0.009(2) 0.019(3) 0.012(3)
N5 0.073(4) 0.043(3) 0.069(4) -0.002(3) 0.020(3) -0.020(3)
loop_
_geom_bond_atom_site_label_1
_geom_bond_atom_site_label_2
_geom_bond_site_symmetry_1
_geom_bond_site_symmetry_2
Eu1 N2 1_555 1_555
C1 C2 1_555 1_555
C2 C3 1_555 1_555
C3 H1 1_555 1_555
C4 C3 1_555 1_555
H2 C4 1_555 1_555
C5 C2 1_555 1_555
H3 C5 1_555 1_555
C6 C4 1_555 1_555
C7 C5 1_555 1_555
H4 C7 1_555 1_555
C8 C6 1_555 1_555
C9 C10 1_555 1_555
C10 C11 1_555 1_555
C11 H5 1_555 1_555
C12 C11 1_555 1_555
C13 C12 1_555 1_555
H6 C13 1_555 1_555
C14 C13 1_555 1_555
C15 C10 1_555 1_555
H7 C15 1_555 1_555
C16 C12 1_555 1_555
C17 H8 1_555 1_555
C18 H9 1_555 1_555
C19 C18 1_555 1_555
C20 C19 1_555 1_555
H10 C20 1_555 1_555
H11 C20 1_555 1_555
H12 C20 1_555 1_555
N1 C8 1_555 1_555
N2 C17 1_555 1_555
N3 C17 1_555 1_555
O1 C1 1_555 1_555
O2 C1 1_555 1_555
O3 C9 1_555 1_555
O4 C9 1_555 1_555
O5 C16 1_555 1_555
O6 Eu1 1_555 1_555
O7 Eu1 1_555 1_555
H13 C8 1_555 1_555
H14 N3 1_555 1_555
C21 H15 1_555 1_555
C22 H16 1_555 1_555
C23 C22 1_555 1_555
C24 C23 1_555 1_555
H17 C24 1_555 1_555
H18 C24 1_555 1_555
H19 C24 1_555 1_555
N4 C21 1_555 1_555
N5 C21 1_555 1_555
Eu1A O1 1_555 1_555
Eu1C O3 1_555 1_555
Eu1E O3 1_555 1_555
Eu1F O5 1_555 1_555
O1A Eu1 1_555 1_555
O2A Eu1 1_555 1_555
O3C Eu1 1_555 1_555
O3E Eu1 1_555 1_555
O4C Eu1 1_555 1_555
O5F Eu1 1_555 1_555
C6 C7 1_555 1_555
C14 C15 1_555 1_555
C14 N1 1_555 1_555
C16 O6 1_555 1_555
C18 N3 1_555 1_555
C19 N2 1_555 1_555
O2 Eu1A 1_555 1_555
O4 Eu1C 1_555 1_555
C22 N5 1_555 1_555
C23 N4 1_555 1_555
Eu1F O3C 1_555 1_555
Eu1F O3E 1_555 1_555

#END
