
#######################################################################
#
#                 Cambridge Crystallographic Data Centre
#                                CCDC 
#
#######################################################################
#
# If this CIF has been generated from an entry in the Cambridge 
# Structural Database, then it will include bibliographic, chemical, 
# crystal, experimental, refinement or atomic coordinate data resulting 
# from the CCDC's data processing and validation procedures.
#
#######################################################################

data_CUWYOK
_chemical_formula_moiety         '(C20 H14 Eu1 N3 O7)n'
_symmetry_cell_setting           monoclinic
_symmetry_space_group_name_H-M   'C 2/c'
_symmetry_Int_Tables_number      15
_space_group_name_Hall           '-C 2yc'
loop_
_symmetry_equiv_pos_site_id
_symmetry_equiv_pos_as_xyz
1 x,y,z
2 -x,y,1/2-z
3 1/2+x,1/2+y,z
4 1/2-x,1/2+y,1/2-z
5 -x,-y,-z
6 x,-y,1/2+z
7 1/2-x,1/2-y,-z
8 1/2+x,1/2-y,1/2+z
_cell_length_a                   29.081(2)
_cell_length_b                   13.3943(12)
_cell_length_c                   13.5384(14)
_cell_angle_alpha                90
_cell_angle_beta                 98.053(8)
_cell_angle_gamma                90
_cell_volume                     5221.47
loop_
_atom_site_label
_atom_site_type_symbol
_atom_site_fract_x
_atom_site_fract_y
_atom_site_fract_z
_atom_site_U_iso_or_equiv
_atom_site_thermal_displace_type
O1 O 0.3758(2) 0.6853(4) 0.0083(5) 0.0530 Uani
O2 O 0.38660(18) 0.8455(4) -0.0161(4) 0.0517 Uani
O3 O 0.78781(16) 0.4521(4) -0.0412(4) 0.0392 Uani
O4 O 0.72864(16) 0.3515(4) -0.0303(4) 0.0391 Uani
O5 O 0.69822(17) 0.7616(4) -0.3682(4) 0.0389 Uani
O6 O 0.76682(18) 0.6870(4) -0.3268(4) 0.0482 Uani
O7 O 0.3636(3) 0.7479(7) 0.1976(5) 0.0854 Uani
N1 N 0.5922(2) 0.5844(6) -0.1510(6) 0.0597 Uani
N2 N 0.3436(3) 0.9487(6) 0.1569(6) 0.0653 Uani
N3 N 0.3416(3) 1.0746(7) 0.2653(7) 0.0786 Uani
C1 C 0.3992(3) 0.7561(7) -0.0189(6) 0.0474 Uani
C2 C 0.4436(3) 0.7337(8) -0.0580(7) 0.0543 Uani
C3 C 0.4708(4) 0.8081(8) -0.0861(11) 0.0802 Uani
H1 H 0.4609 0.8741 -0.0841 0.0960 Uiso
C4 C 0.5132(4) 0.7867(9) -0.1178(13) 0.0938 Uani
H2 H 0.5313 0.8383 -0.1376 0.1130 Uiso
C5 C 0.5284(4) 0.6895(8) -0.1199(9) 0.0674 Uani
C6 C 0.5012(4) 0.6150(8) -0.0944(9) 0.0765 Uani
H3 H 0.5112 0.5493 -0.0979 0.0920 Uiso
C7 C 0.4582(3) 0.6346(8) -0.0626(8) 0.0725 Uani
H4 H 0.4398 0.5826 -0.0450 0.0870 Uiso
C8 C 0.5751(4) 0.6705(9) -0.1480(8) 0.0670 Uani
C9 C 0.7452(3) 0.4323(5) -0.0623(5) 0.0387 Uani
C10 C 0.7138(2) 0.5020(5) -0.1226(5) 0.0354 Uani
C11 C 0.7324(2) 0.5678(5) -0.1874(5) 0.0385 Uani
H5 H 0.7640 0.5659 -0.1911 0.0460 Uiso
C12 C 0.7047(2) 0.6351(5) -0.2456(5) 0.0380 Uani
C13 C 0.6671(3) 0.5086(6) -0.1159(5) 0.0432 Uani
H6 H 0.6540 0.4644 -0.0749 0.0520 Uiso
C14 C 0.6394(3) 0.5793(6) -0.1687(6) 0.0485 Uani
C15 C 0.6576(3) 0.6399(6) -0.2373(6) 0.0460 Uani
H7 H 0.6383 0.6835 -0.2775 0.0550 Uiso
C16 C 0.7244(3) 0.6993(5) -0.3189(6) 0.0380 Uani
C17 C 0.3256(5) 1.0384(10) 0.1776(10) 0.0921 Uani
H8 H 0.3037 1.0716 0.1328 0.1110 Uiso
C18 C 0.3628(5) 1.0052(11) 0.3142(11) 0.0973 Uani
H9 H 0.3774 1.0065 0.3799 0.1170 Uiso
C19 C 0.3597(5) 0.9289(10) 0.2500(9) 0.0886 Uani
C20 C 0.3776(6) 0.8232(11) 0.2599(12) 0.1079 Uani
H10 H 0.4109 0.8276 0.2615 0.1290 Uiso
H11 H 0.3724 0.8009 0.3256 0.1290 Uiso
H12 H 0.588(5) 0.732(7) -0.176(11) 0.1290 Uiso
Eu1 Eu 0.314072(11) 0.79913(2) 0.04433(2) 0.0337 Uani
O3B O 0.28781(16) 0.9521(4) -0.0412(4) 0.0392 Uani
O4B O 0.22864(16) 0.8515(4) -0.0303(4) 0.0391 Uani
O4D O 0.27136(16) 0.6485(4) 0.0303(4) 0.0391 Uani
O5A O 0.30178(17) 0.7616(4) -0.1318(4) 0.0389 Uani
O6G O 0.26682(18) 0.8130(4) 0.1732(4) 0.0482 Uani
Eu1A Eu 0.685928(11) 0.79913(2) -0.54433(2) 0.0337 Uani
Eu1B Eu 0.814072(11) 0.29913(2) 0.04433(2) 0.0337 Uani
Eu1D Eu 0.685928(11) 0.20087(2) -0.04433(2) 0.0337 Uani
Eu1G Eu 0.814072(11) 0.70087(2) -0.45567(2) 0.0337 Uani
loop_
_atom_site_aniso_label
_atom_site_aniso_U_11
_atom_site_aniso_U_22
_atom_site_aniso_U_33
_atom_site_aniso_U_23
_atom_site_aniso_U_13
_atom_site_aniso_U_12
O1 0.034(3) 0.061(3) 0.071(4) 0.017(3) 0.032(3) 0.017(3)
O2 0.028(3) 0.060(3) 0.073(4) -0.003(3) 0.028(3) -0.004(3)
O3 0.023 0.041 0.057 -0.002 0.017 0.001
O4 0.026 0.043 0.053 0.003 0.022 0.004
O5 0.033 0.045 0.042 0.003 0.017 0.006
O6 0.025 0.075 0.05 0.017 0.024 0.01
O7 0.089(4) 0.098(4) 0.068(3) 0.000(3) 0.007(3) 0.028(3)
N1 0.032(4) 0.081(5) 0.072(5) 0.030(4) 0.028(3) 0.026(4)
N2 0.068(4) 0.062(3) 0.067(3) -0.003(3) 0.013(3) -0.008(3)
N3 0.076(4) 0.082(4) 0.080(4) -0.011(3) 0.019(3) -0.009(3)
C1 0.027(4) 0.065(5) 0.054(4) 0.005(4) 0.019(3) 0.010(4)
C2 0.035(5) 0.072(5) 0.060(5) 0.008(5) 0.021(4) 0.013(4)
C3 0.049(6) 0.076(7) 0.126(10) 0.005(6) 0.049(7) 0.014(5)
C4 0.055(7) 0.083(8) 0.158(13) 0.012(7) 0.066(8) 0.003(5)
C5 0.041(5) 0.083(7) 0.087(7) 0.024(5) 0.040(5) 0.022(5)
C6 0.057(6) 0.077(7) 0.106(8) 0.036(6) 0.048(6) 0.026(5)
C7 0.050(6) 0.078(6) 0.100(7) 0.030(6) 0.047(5) 0.025(5)
C8 0.047(6) 0.088(7) 0.072(6) 0.018(6) 0.029(5) 0.011(5)
C9 0.037 0.045 0.039 -0.004 0.022 0.007
C10 0.028 0.043 0.039 0.004 0.018 0.005
C11 0.025 0.051 0.043 -0.001 0.017 0.003
C12 0.028 0.045 0.044 0.001 0.016 0.006
C13 0.034(4) 0.052(4) 0.048(4) 0.010(4) 0.021(3) 0.001(3)
C14 0.032(4) 0.059(5) 0.061(5) 0.011(4) 0.029(3) 0.007(4)
C15 0.030(4) 0.055(4) 0.058(5) 0.008(4) 0.024(3) 0.014(3)
C16 0.036 0.043 0.039 0 0.019 0.004
C17 0.094(5) 0.091(4) 0.092(4) -0.008(4) 0.016(4) 0.005(4)
C18 0.093(5) 0.103(5) 0.096(4) -0.011(4) 0.014(4) -0.003(4)
C19 0.093(5) 0.088(4) 0.084(4) -0.001(4) 0.010(4) -0.009(4)
C20 0.107(6) 0.107(4) 0.109(5) 0.001(4) 0.013(4) 0.009(4)
Eu1 0.0202(3) 0.0422(3) 0.0422(3) -0.00085(14) 0.01657(16) 0.00168(12)
O3B 0.023 0.041 0.057 -0.002 0.017 0.001
O4B 0.026 0.043 0.053 0.003 0.022 0.004
O4D 0.026 0.043 0.053 0.003 0.022 0.004
O5A 0.033 0.045 0.042 -0.003 0.017 -0.006
O6G 0.025 0.075 0.05 -0.017 0.024 -0.01
Eu1A 0.0202 0.0422 0.0422 0.00085 0.01657 -0.00168
Eu1B 0.0202 0.0422 0.0422 -0.00085 0.01657 0.00168
Eu1D 0.0202 0.0422 0.0422 -0.00085 0.01657 0.00168
Eu1G 0.0202 0.0422 0.0422 0.00085 0.01657 -0.00168
loop_
_geom_bond_atom_site_label_1
_geom_bond_atom_site_label_2
_geom_bond_site_symmetry_1
_geom_bond_site_symmetry_2
O1 C1 1_555 1_555
O2 C1 1_555 1_555
O3 C9 1_555 1_555
O4 C9 1_555 1_555
O5 C16 1_555 1_555
O6 C16 1_555 1_555
O7 C20 1_555 1_555
N1 C8 1_555 1_555
N2 C17 1_555 1_555
N3 C17 1_555 1_555
C1 C2 1_555 1_555
C2 C3 1_555 1_555
C3 H1 1_555 1_555
C4 C3 1_555 1_555
H2 C4 1_555 1_555
C5 C4 1_555 1_555
C6 C5 1_555 1_555
H3 C6 1_555 1_555
C7 C2 1_555 1_555
H4 C7 1_555 1_555
C8 C5 1_555 1_555
C9 C10 1_555 1_555
C10 C11 1_555 1_555
C11 H5 1_555 1_555
C12 C11 1_555 1_555
C13 C10 1_555 1_555
H6 C13 1_555 1_555
C14 N1 1_555 1_555
C15 C12 1_555 1_555
H7 C15 1_555 1_555
C16 C12 1_555 1_555
C17 H8 1_555 1_555
C18 N3 1_555 1_555
H9 C18 1_555 1_555
C19 N2 1_555 1_555
C20 C19 1_555 1_555
H10 C20 1_555 1_555
H11 C20 1_555 1_555
H12 C8 1_555 1_555
Eu1 O1 1_555 1_555
O3B Eu1 1_555 1_555
O4B Eu1 1_555 1_555
O4D Eu1 1_555 1_555
O5A Eu1 1_555 1_555
O6G Eu1 1_555 1_555
Eu1A O5 1_555 1_555
Eu1B O3 1_555 1_555
Eu1D O4 1_555 1_555
Eu1G O6 1_555 1_555
O2 Eu1 1_555 1_555
O4 Eu1B 1_555 1_555
O7 Eu1 1_555 1_555
N2 Eu1 1_555 1_555
C6 C7 1_555 1_555
C13 C14 1_555 1_555
C14 C15 1_555 1_555
C18 C19 1_555 1_555

#END
