
#######################################################################
#
#                 Cambridge Crystallographic Data Centre
#                                CCDC 
#
#######################################################################
#
# If this CIF has been generated from an entry in the Cambridge 
# Structural Database, then it will include bibliographic, chemical, 
# crystal, experimental, refinement or atomic coordinate data resulting 
# from the CCDC's data processing and validation procedures.
#
#######################################################################

data_CUWYUQ
_chemical_formula_moiety         '(C21 H20 Eu1 N7 O8)n'
_symmetry_cell_setting           monoclinic
_symmetry_space_group_name_H-M   'C 2/c'
_symmetry_Int_Tables_number      15
_space_group_name_Hall           '-C 2yc'
loop_
_symmetry_equiv_pos_site_id
_symmetry_equiv_pos_as_xyz
1 x,y,z
2 -x,y,1/2-z
3 1/2+x,1/2+y,z
4 1/2-x,1/2+y,1/2-z
5 -x,-y,-z
6 x,-y,1/2+z
7 1/2-x,1/2-y,-z
8 1/2+x,1/2-y,1/2+z
_cell_length_a                   29.7931(10)
_cell_length_b                   12.7929(10)
_cell_length_c                   13.7893(7)
_cell_angle_alpha                90
_cell_angle_beta                 95.185(4)
_cell_angle_gamma                90
_cell_volume                     5234.15
loop_
_atom_site_label
_atom_site_type_symbol
_atom_site_fract_x
_atom_site_fract_y
_atom_site_fract_z
_atom_site_U_iso_or_equiv
_atom_site_thermal_displace_type
C1 C 0.6032(3) 0.2382(9) 0.0371(7) 0.0383 Uani
C2 C 0.5568(3) 0.2582(10) 0.0683(7) 0.0440 Uani
C3 C 0.5267(4) 0.1748(11) 0.0755(10) 0.0566 Uani
H1 H 0.5354 0.1067 0.0631 0.0680 Uiso
C4 C 0.4835(4) 0.1957(10) 0.1016(10) 0.0574 Uani
H2 H 0.4637 0.1407 0.1086 0.0690 Uiso
C5 C 0.4699(4) 0.2962(9) 0.1170(9) 0.0500 Uani
C6 C 0.4995(3) 0.3773(10) 0.1123(9) 0.0574 Uani
H3 H 0.4906 0.4449 0.1262 0.0690 Uiso
C7 C 0.5433(4) 0.3586(11) 0.0864(9) 0.0549 Uani
H4 H 0.5632 0.4140 0.0815 0.0660 Uiso
C8 C 0.4221(3) 0.3113(9) 0.1373(9) 0.0478 Uani
H5 H 0.405(4) 0.247(6) 0.154(9) 0.0570 Uiso
C9 C 0.2556(3) 0.5573(7) 0.0522(6) 0.0323 Uani
C10 C 0.2853(3) 0.4864(7) 0.1120(6) 0.0320 Uani
C11 C 0.3317(3) 0.4810(8) 0.1028(7) 0.0380 Uani
H6 H 0.3446 0.5251 0.0597 0.0460 Uiso
C12 C 0.3584(3) 0.4097(8) 0.1581(7) 0.0399 Uani
C13 C 0.3398(3) 0.3481(8) 0.2264(7) 0.0348 Uani
H7 H 0.3580 0.3018 0.2642 0.0420 Uiso
C14 C 0.2937(3) 0.3546(7) 0.2392(6) 0.0328 Uani
C15 C 0.2663(3) 0.4215(8) 0.1789(7) 0.0363 Uani
H8 H 0.2354 0.4227 0.1834 0.0430 Uiso
C16 C 0.2737(3) 0.2918(7) 0.3164(7) 0.0329 Uani
C17 C 0.1124(4) 0.5299(10) -0.1807(9) 0.0554 Uani
H9 H 0.0869 0.5634 -0.1622 0.0670 Uiso
C18 C 0.1128(4) 0.4550(11) -0.2526(10) 0.0661 Uani
H10 H 0.0881 0.4320 -0.2930 0.0790 Uiso
C19 C 0.1801(3) 0.4764(8) -0.1862(8) 0.0463 Uani
H11 H 0.2110 0.4676 -0.1717 0.0560 Uiso
N1 N 0.4048(2) 0.4032(7) 0.1430(6) 0.0419 Uani
N2 N 0.1547(3) 0.5469(7) -0.1415(6) 0.0387 Uani
N3 N 0.1552(3) 0.4218(8) -0.2532(7) 0.0510 Uani
O1 O 0.61637(19) 0.1465(6) 0.0298(5) 0.0397 Uani
O2 O 0.6271(2) 0.3154(6) 0.0173(5) 0.0413 Uani
O3 O 0.2149(2) 0.5360(5) 0.0348(4) 0.0361 Uani
O4 O 0.27173(19) 0.6426(5) 0.0223(4) 0.0314 Uani
O5 O 0.29806(19) 0.2265(5) 0.3639(4) 0.0316 Uani
O6 O 0.2329(2) 0.3120(5) 0.3293(4) 0.0356 Uani
O7 O 0.1414(2) 0.7755(6) -0.1744(5) 0.0466 Uani
Eu1 Eu 0.186581(13) 0.69945(4) -0.03791(3) 0.0264 Uani
O1B O 0.11637(19) 0.6465(6) 0.0298(5) 0.0397 Uani
O2B O 0.1271(2) 0.8154(6) 0.0173(5) 0.0413 Uani
O4F O 0.22827(19) 0.8574(5) -0.0223(4) 0.0314 Uani
O5C O 0.20194(19) 0.7265(5) 0.1361(4) 0.0316 Uani
O6E O 0.2329(2) 0.6880(5) -0.1707(4) 0.0356 Uani
Eu1B Eu 0.686581(13) 0.19945(4) -0.03791(3) 0.0264 Uani
Eu1C Eu 0.313419(13) 0.19945(4) 0.53791(3) 0.0264 Uani
Eu1E Eu 0.186581(13) 0.30055(4) 0.46209(3) 0.0264 Uani
Eu1F Eu 0.313419(13) 0.80055(4) 0.03791(3) 0.0264 Uani
C20 C 0.6879(8) 0.642(2) 0.1302(17) 0.1164 Uani
H12 H 0.6898 0.5779 0.1622 0.1400 Uiso
C21 C 0.6642(10) 0.7938(17) 0.0662(19) 0.1113 Uani
N4 N 0.6516(8) 0.7149(14) 0.1266(15) 0.1141 Uani
N5 N 0.7216(8) 0.6893(14) 0.0727(16) 0.1164 Uani
N6 N 0.7043(7) 0.7671(17) 0.0340(14) 0.1137 Uani
N7 N 0.6351(7) 0.8759(16) 0.0440(13) 0.1184 Uani
O8 O 0.0638(3) 0.8902(9) -0.1693(11) 0.0975 Uani
loop_
_atom_site_aniso_label
_atom_site_aniso_U_11
_atom_site_aniso_U_22
_atom_site_aniso_U_33
_atom_site_aniso_U_23
_atom_site_aniso_U_13
_atom_site_aniso_U_12
C1 0.014 0.061 0.042 0 0.014 0.003
C2 0.017 0.076 0.041 0.004 0.013 0.011
C3 0.023 0.071 0.079 0.012 0.022 0.005
C4 0.028 0.072 0.076 0.014 0.026 0.006
C5 0.024 0.078 0.05 0.01 0.014 0.007
C6 0.024 0.068 0.084 -0.009 0.025 0.012
C7 0.028 0.072 0.068 -0.006 0.023 0.005
C8 0.023(5) 0.059(6) 0.064(7) 0.015(5) 0.018(5) 0.006(4)
C9 0.018(4) 0.045(4) 0.037(4) 0.001(4) 0.019(3) 0.005(3)
C10 0.017(4) 0.045(5) 0.036(4) -0.002(4) 0.014(3) -0.002(3)
C11 0.017(4) 0.051(5) 0.048(5) 0.003(4) 0.014(3) 0.002(4)
C12 0.018(4) 0.057(6) 0.048(5) 0.003(4) 0.021(4) 0.005(4)
C13 0.018(4) 0.047(5) 0.041(4) 0.008(4) 0.012(3) 0.007(3)
C14 0.019(4) 0.045(5) 0.036(4) -0.006(4) 0.012(3) 0.000(3)
C15 0.015(4) 0.054(5) 0.042(4) -0.004(4) 0.014(3) -0.001(4)
C16 0.023 0.048 0.029 -0.006 0.009 -0.005
C17 0.035(5) 0.065(7) 0.068(7) -0.024(6) 0.014(5) -0.010(5)
C18 0.050(7) 0.072(8) 0.075(8) -0.026(7) -0.002(6) -0.004(6)
C19 0.033(5) 0.049(5) 0.059(6) 0.000(5) 0.015(4) 0.000(4)
N1 0.016(3) 0.063(5) 0.049(4) 0.010(4) 0.015(3) 0.005(3)
N2 0.025(4) 0.052(4) 0.041(4) 0.002(4) 0.014(3) 0.005(3)
N3 0.039(5) 0.062(5) 0.054(5) -0.010(4) 0.015(4) -0.009(4)
O1 0.015 0.054 0.052 -0.006 0.013 0
O2 0.024 0.056 0.046 0.003 0.015 0.009
O3 0.021(3) 0.048(3) 0.041(3) 0.001(3) 0.012(2) -0.003(3)
O4 0.024(3) 0.041(3) 0.031(3) 0.000(2) 0.012(2) 0.002(2)
O5 0.018 0.057 0.021 0.007 0.009 0.008
O6 0.015 0.062 0.032 0.011 0.015 0.008
O7 0.037(4) 0.058(4) 0.044(4) -0.001(3) 0.000(3) 0.003(3)
Eu1 0.0101(3) 0.0396(4) 0.0313(4) -0.00060(17) 0.0115(2) 0.00061(15)
O1B 0.015 0.054 0.052 -0.006 0.013 0
O2B 0.024 0.056 0.046 0.003 0.015 0.009
O4F 0.024 0.041 0.031 0 0.012 0.002
O5C 0.018 0.057 0.021 -0.007 0.009 -0.008
O6E 0.015 0.062 0.032 -0.011 0.015 -0.008
Eu1B 0.0101 0.0396 0.0313 -0.0006 0.0115 0.00061
Eu1C 0.0101 0.0396 0.0313 0.0006 0.0115 -0.00061
Eu1E 0.0101 0.0396 0.0313 0.0006 0.0115 -0.00061
Eu1F 0.0101 0.0396 0.0313 -0.0006 0.0115 0.00061
C20 0.117(6) 0.122(5) 0.111(6) -0.001(4) 0.014(4) 0.000(4)
C21 0.112(5) 0.114(5) 0.108(6) -0.005(4) 0.010(4) -0.010(4)
N4 0.115(5) 0.117(5) 0.111(6) 0.002(4) 0.014(4) -0.005(4)
N5 0.116(5) 0.120(6) 0.114(6) -0.009(4) 0.014(4) -0.006(4)
N6 0.111(5) 0.121(5) 0.109(6) -0.006(4) 0.009(4) -0.011(4)
N7 0.120(6) 0.119(5) 0.116(6) 0.004(4) 0.009(5) -0.007(4)
O8 0.037(5) 0.083(7) 0.173(12) 0.018(7) 0.013(6) -0.002(5)
loop_
_geom_bond_atom_site_label_1
_geom_bond_atom_site_label_2
_geom_bond_site_symmetry_1
_geom_bond_site_symmetry_2
C1 C2 1_555 1_555
C2 C3 1_555 1_555
C3 H1 1_555 1_555
C4 C3 1_555 1_555
H2 C4 1_555 1_555
C5 C4 1_555 1_555
C6 C5 1_555 1_555
H3 C6 1_555 1_555
C7 C2 1_555 1_555
H4 C7 1_555 1_555
C8 C5 1_555 1_555
H5 C8 1_555 1_555
C9 C10 1_555 1_555
C10 C11 1_555 1_555
C11 H6 1_555 1_555
C12 C11 1_555 1_555
C13 C12 1_555 1_555
H7 C13 1_555 1_555
C14 C13 1_555 1_555
C15 C10 1_555 1_555
H8 C15 1_555 1_555
C16 C14 1_555 1_555
C17 H9 1_555 1_555
C18 C17 1_555 1_555
H10 C18 1_555 1_555
C19 H11 1_555 1_555
N1 C8 1_555 1_555
N2 C17 1_555 1_555
N3 C18 1_555 1_555
O1 C1 1_555 1_555
O2 C1 1_555 1_555
O3 C9 1_555 1_555
O4 C9 1_555 1_555
O5 C16 1_555 1_555
O6 C16 1_555 1_555
O7 Eu1 1_555 1_555
Eu1 N2 1_555 1_555
C20 H12 1_555 1_555
C21 N4 1_555 1_555
N4 C20 1_555 1_555
N5 C20 1_555 1_555
N6 C21 1_555 1_555
N7 C21 1_555 1_555
O1B Eu1 1_555 1_555
O2B Eu1 1_555 1_555
O4F Eu1 1_555 1_555
O5C Eu1 1_555 1_555
O6E Eu1 1_555 1_555
Eu1B O1 1_555 1_555
Eu1C O5 1_555 1_555
Eu1E O6 1_555 1_555
Eu1F O4 1_555 1_555
C6 C7 1_555 1_555
C12 N1 1_555 1_555
C14 C15 1_555 1_555
C19 N2 1_555 1_555
C19 N3 1_555 1_555
O2 Eu1B 1_555 1_555
O3 Eu1 1_555 1_555
O4 Eu1 1_555 1_555
N5 N6 1_555 1_555
O4F Eu1F 1_555 1_555

#END
