
#######################################################################
#
#                 Cambridge Crystallographic Data Centre
#                                CCDC 
#
#######################################################################
#
# If this CIF has been generated from an entry in the Cambridge 
# Structural Database, then it will include bibliographic, chemical, 
# crystal, experimental, refinement or atomic coordinate data resulting 
# from the CCDC's data processing and validation procedures.
#
#######################################################################

data_CUWYIE
_chemical_formula_moiety         '(C22 H16 Eu1 N5 O6)n'
_symmetry_cell_setting           monoclinic
_symmetry_space_group_name_H-M   'C 2/c'
_symmetry_Int_Tables_number      15
_space_group_name_Hall           '-C 2yc'
loop_
_symmetry_equiv_pos_site_id
_symmetry_equiv_pos_as_xyz
1 x,y,z
2 -x,y,1/2-z
3 1/2+x,1/2+y,z
4 1/2-x,1/2+y,1/2-z
5 -x,-y,-z
6 x,-y,1/2+z
7 1/2-x,1/2-y,-z
8 1/2+x,1/2-y,1/2+z
_cell_length_a                   28.6627(10)
_cell_length_b                   14.0581(4)
_cell_length_c                   13.1543(5)
_cell_angle_alpha                90
_cell_angle_beta                 102.307(4)
_cell_angle_gamma                90
_cell_volume                     5178.63
loop_
_atom_site_label
_atom_site_type_symbol
_atom_site_fract_x
_atom_site_fract_y
_atom_site_fract_z
_atom_site_U_iso_or_equiv
_atom_site_thermal_displace_type
Eu1 Eu 0.316945(11) 0.70267(2) 0.05854(3) 0.0273 Uani
C1 C 0.4049(2) 0.7378(6) 0.0013(6) 0.0415 Uani
C2 C 0.4475(2) 0.7658(6) -0.0429(6) 0.0445 Uani
C3 C 0.4603(3) 0.8578(6) -0.0494(8) 0.0559 Uani
H1 H 0.4420 0.9058 -0.0287 0.0670 Uiso
C4 C 0.5014(3) 0.8810(6) -0.0875(7) 0.0527 Uani
H2 H 0.5095 0.9445 -0.0935 0.0640 Uiso
C5 C 0.5287(3) 0.8123(6) -0.1152(8) 0.0544 Uani
C6 C 0.5158(5) 0.7163(8) -0.1089(14) 0.0963 Uani
H3 H 0.5345 0.6682 -0.1282 0.1160 Uiso
C7 C 0.4755(5) 0.6944(7) -0.0741(11) 0.0800 Uani
H4 H 0.4664 0.6311 -0.0712 0.0960 Uiso
C8 C 0.5742(3) 0.8330(7) -0.1459(8) 0.0580 Uani
H5 H 0.598(3) 0.783(6) -0.151(9) 0.0700 Uiso
C9 C 0.7206(3) 0.8167(5) -0.3292(6) 0.0380 Uani
C10 C 0.7013(2) 0.8787(5) -0.2533(5) 0.0384 Uani
C11 C 0.7299(2) 0.9468(5) -0.1980(5) 0.0334 Uani
H6 H 0.7613 0.9529 -0.2057 0.0400 Uiso
C12 C 0.7130(2) 1.0073(5) -0.1301(5) 0.0344 Uani
C13 C 0.6661(2) 0.9975(5) -0.1173(6) 0.0387 Uani
H7 H 0.6541 1.0390 -0.0742 0.0460 Uiso
C14 C 0.6374(2) 0.9247(6) -0.1700(6) 0.0414 Uani
C15 C 0.6547(3) 0.8684(5) -0.2397(5) 0.0394 Uani
H8 H 0.6349 0.8229 -0.2781 0.0480 Uiso
C16 C 0.7459(2) 1.0792(5) -0.0700(5) 0.0325 Uani
C17 C 0.3712(4) 0.4823(8) 0.1463(11) 0.1202 Uani
H9 H 0.3753 0.4689 0.0795 0.1440 Uiso
C18 C 0.3805(5) 0.4199(10) 0.2261(9) 0.1262 Uani
H10 H 0.3918 0.3581 0.2237 0.1510 Uiso
C19 C 0.3558(3) 0.5519(7) 0.2759(6) 0.0710 Uani
H11 H 0.3469 0.5982 0.3186 0.0850 Uiso
C20 C 0.3903(6) 0.8161(10) 0.2853(11) 0.1358 Uani
H12 H 0.4195 0.8095 0.2660 0.1630 Uiso
C21 C 0.3404(6) 0.8695(13) 0.3800(15) 0.1600 Uani
H13 H 0.3249 0.8985 0.4270 0.1920 Uiso
C22 C 0.3259(8) 0.8102(12) 0.2985(13) 0.1529 Uani
H14 H 0.2938 0.7934 0.2858 0.1840 Uiso
N1 N 0.5917(2) 0.9144(5) -0.1461(5) 0.0490 Uani
N2 N 0.3553(3) 0.5666(7) 0.1749(5) 0.0748 Uani
N3 N 0.3703(3) 0.4641(7) 0.3098(8) 0.0966 Uani
N4 N 0.3510(5) 0.7716(9) 0.2325(10) 0.1112 Uani
N5 N 0.3860(6) 0.8708(11) 0.3675(12) 0.1461 Uani
O1 O 0.72873(16) 1.1575(3) -0.0454(4) 0.0388 Uani
O2 O 0.69311(17) 0.7583(4) -0.3821(4) 0.0437 Uani
O3 O 0.38927(17) 0.6548(4) -0.0071(4) 0.0412 Uani
O4 O 0.3862(2) 0.8011(4) 0.0475(6) 0.0643 Uani
O5 O 0.76387(18) 0.8309(5) -0.3324(4) 0.0484 Uani
O6 O 0.78944(17) 1.0626(4) -0.0444(4) 0.0440 Uani
Eu1A Eu 0.683055(11) 0.70267(2) -0.55854(3) 0.0273 Uani
Eu1B Eu 0.816945(11) 1.20267(2) 0.05854(3) 0.0273 Uani
Eu1D Eu 0.683055(11) 1.29733(2) -0.05854(3) 0.0273 Uani
Eu1G Eu 0.816945(11) 0.79733(2) -0.44146(3) 0.0273 Uani
O1B O 0.22873(16) 0.6575(3) -0.0454(4) 0.0388 Uani
O1D O 0.27127(16) 0.8425(3) 0.0454(4) 0.0388 Uani
O2A O 0.30689(17) 0.7583(4) -0.1179(4) 0.0437 Uani
O5G O 0.26387(18) 0.6691(5) 0.1676(4) 0.0484 Uani
O6B O 0.28944(17) 0.5626(4) -0.0444(4) 0.0440 Uani
loop_
_atom_site_aniso_label
_atom_site_aniso_U_11
_atom_site_aniso_U_22
_atom_site_aniso_U_33
_atom_site_aniso_U_23
_atom_site_aniso_U_13
_atom_site_aniso_U_12
Eu1 0.0191(3) 0.0319(3) 0.0362(3) 0.00103(13) 0.01789(17) -0.00045(11)
C1 0.023(3) 0.060(5) 0.047(4) -0.011(4) 0.020(3) -0.015(3)
C2 0.025(3) 0.060(5) 0.055(4) -0.006(4) 0.023(3) -0.012(3)
C3 0.036(4) 0.055(5) 0.086(6) -0.013(4) 0.034(4) -0.008(3)
C4 0.034(4) 0.045(4) 0.085(6) -0.005(4) 0.026(4) -0.010(3)
C5 0.036(4) 0.059(5) 0.080(6) -0.018(4) 0.039(4) -0.016(4)
C6 0.084(8) 0.065(6) 0.175(14) -0.024(7) 0.106(10) -0.014(5)
C7 0.077(7) 0.060(6) 0.132(10) -0.022(6) 0.087(8) -0.019(5)
C8 0.040(4) 0.052(5) 0.097(6) -0.012(5) 0.048(4) -0.011(4)
C9 0.038 0.043 0.04 -0.005 0.024 -0.003
C10 0.032 0.045 0.046 -0.004 0.026 -0.006
C11 0.028 0.038 0.042 -0.006 0.025 -0.004
C12 0.026 0.036 0.048 -0.001 0.023 -0.001
C13 0.037 0.036 0.053 -0.011 0.032 -0.007
C14 0.026(3) 0.053(4) 0.053(4) -0.012(3) 0.026(3) -0.009(3)
C15 0.038 0.041 0.046 -0.009 0.024 -0.01
C16 0.031 0.034 0.039 -0.007 0.022 -0.004
C17 0.143(6) 0.117(5) 0.108(4) -0.004(4) 0.043(5) 0.025(5)
C18 0.147(6) 0.110(5) 0.123(5) 0.000(4) 0.032(5) 0.029(5)
C19 0.065(4) 0.080(4) 0.071(3) 0.017(3) 0.021(3) 0.000(3)
C20 0.134(5) 0.135(6) 0.131(6) -0.013(4) 0.012(4) -0.009(4)
C21 0.162(6) 0.166(7) 0.153(6) -0.013(4) 0.036(5) 0.002(5)
C22 0.148(5) 0.159(7) 0.153(6) -0.011(4) 0.035(4) -0.007(4)
N1 0.033(3) 0.057(4) 0.066(4) -0.019(3) 0.031(3) -0.011(3)
N2 0.071(4) 0.097(4) 0.068(3) 0.007(3) 0.041(3) 0.018(3)
N3 0.103(5) 0.095(4) 0.098(4) 0.021(3) 0.035(4) 0.030(4)
N4 0.114(5) 0.110(5) 0.105(5) 0.024(4) 0.013(4) -0.012(4)
N5 0.155(5) 0.144(6) 0.137(5) -0.014(4) 0.026(4) -0.002(4)
O1 0.036 0.036 0.051 -0.002 0.024 -0.002
O2 0.035 0.054 0.05 -0.013 0.027 -0.018
O3 0.032(2) 0.044(3) 0.056(3) 0.006(2) 0.028(2) 0.000(2)
O4 0.046(3) 0.064(4) 0.100(5) -0.040(3) 0.054(4) -0.025(3)
O5 0.034 0.071 0.051 -0.022 0.033 -0.019
O6 0.03 0.035 0.072 -0.005 0.022 0.001
Eu1A 0.0191 0.0319 0.0362 -0.00103 0.01789 0.00045
Eu1B 0.0191 0.0319 0.0362 0.00103 0.01789 -0.00045
Eu1D 0.0191 0.0319 0.0362 0.00103 0.01789 -0.00045
Eu1G 0.0191 0.0319 0.0362 -0.00103 0.01789 0.00045
O1B 0.036 0.036 0.051 -0.002 0.024 -0.002
O1D 0.036 0.036 0.051 -0.002 0.024 -0.002
O2A 0.035 0.054 0.05 0.013 0.027 0.018
O5G 0.034 0.071 0.051 0.022 0.033 0.019
O6B 0.03 0.035 0.072 -0.005 0.022 0.001
loop_
_geom_bond_atom_site_label_1
_geom_bond_atom_site_label_2
_geom_bond_site_symmetry_1
_geom_bond_site_symmetry_2
Eu1 N2 1_555 1_555
C1 C2 1_555 1_555
C2 C3 1_555 1_555
C3 H1 1_555 1_555
C4 C3 1_555 1_555
H2 C4 1_555 1_555
C5 C4 1_555 1_555
C6 C5 1_555 1_555
H3 C6 1_555 1_555
C7 C2 1_555 1_555
H4 C7 1_555 1_555
C8 C5 1_555 1_555
H5 C8 1_555 1_555
C9 C10 1_555 1_555
C10 C11 1_555 1_555
C11 H6 1_555 1_555
C12 C11 1_555 1_555
C13 C12 1_555 1_555
H7 C13 1_555 1_555
C14 C13 1_555 1_555
C15 C10 1_555 1_555
H8 C15 1_555 1_555
C16 C12 1_555 1_555
C17 H9 1_555 1_555
C18 C17 1_555 1_555
H10 C18 1_555 1_555
C19 H11 1_555 1_555
C20 H12 1_555 1_555
C21 H13 1_555 1_555
C22 C21 1_555 1_555
H14 C22 1_555 1_555
N1 C8 1_555 1_555
N2 C17 1_555 1_555
N3 C18 1_555 1_555
N4 Eu1 1_555 1_555
N5 C20 1_555 1_555
O1 C16 1_555 1_555
O2 C9 1_555 1_555
O3 Eu1 1_555 1_555
O4 Eu1 1_555 1_555
O5 C9 1_555 1_555
O6 C16 1_555 1_555
Eu1A O2 1_555 1_555
Eu1B O1 1_555 1_555
Eu1D O1 1_555 1_555
Eu1G O5 1_555 1_555
O1B Eu1 1_555 1_555
O1D Eu1 1_555 1_555
O2A Eu1 1_555 1_555
O5G Eu1 1_555 1_555
O6B Eu1 1_555 1_555
C1 O3 1_555 1_555
C1 O4 1_555 1_555
C6 C7 1_555 1_555
C14 C15 1_555 1_555
C14 N1 1_555 1_555
C19 N2 1_555 1_555
C19 N3 1_555 1_555
C20 N4 1_555 1_555
C21 N5 1_555 1_555
C22 N4 1_555 1_555
O6 Eu1B 1_555 1_555

#END
