
#######################################################################
#
#                 Cambridge Crystallographic Data Centre
#                                CCDC 
#
#######################################################################
#
# If this CIF has been generated from an entry in the Cambridge 
# Structural Database, then it will include bibliographic, chemical, 
# crystal, experimental, refinement or atomic coordinate data resulting 
# from the CCDC's data processing and validation procedures.
#
#######################################################################

data_CUWZEB
_chemical_formula_moiety         '(C21 H14 Eu1 N3 O7)n'
_symmetry_cell_setting           monoclinic
_symmetry_space_group_name_H-M   'C 2/c'
_symmetry_Int_Tables_number      15
_space_group_name_Hall           '-C 2yc'
loop_
_symmetry_equiv_pos_site_id
_symmetry_equiv_pos_as_xyz
1 x,y,z
2 -x,y,1/2-z
3 1/2+x,1/2+y,z
4 1/2-x,1/2+y,1/2-z
5 -x,-y,-z
6 x,-y,1/2+z
7 1/2-x,1/2-y,-z
8 1/2+x,1/2-y,1/2+z
_cell_length_a                   28.6032(8)
_cell_length_b                   14.3668(7)
_cell_length_c                   12.8150(5)
_cell_angle_alpha                90
_cell_angle_beta                 103.057(3)
_cell_angle_gamma                90
_cell_volume                     5130
loop_
_atom_site_label
_atom_site_type_symbol
_atom_site_fract_x
_atom_site_fract_y
_atom_site_fract_z
_atom_site_U_iso_or_equiv
_atom_site_thermal_displace_type
O1 O 0.60968(14) 0.1692(3) 0.0095(4) 0.0546 Uani
O2 O 0.61709(15) 0.3164(4) -0.0300(4) 0.0549 Uani
O3 O 0.20672(12) 0.5652(3) 0.0346(3) 0.0430 Uani
O4 O 0.27073(12) 0.6536(3) 0.0396(3) 0.0384 Uani
O5 O 0.30085(13) 0.2522(3) 0.3712(3) 0.0445 Uani
O6 O 0.22879(14) 0.3205(3) 0.3186(3) 0.0471 Uani
O7 O 0.3635(3) 0.2775(5) 0.7282(6) 0.0889 Uani
N1 N 0.40545(18) 0.4142(4) 0.1502(5) 0.0575 Uani
N2 N 0.3590(2) 0.0858(6) 0.6809(6) 0.0862 Uani
N3 N 0.3683(5) -0.0281(9) 0.8239(9) 0.1382 Uani
C1 C 0.5959(2) 0.2528(5) 0.0059(5) 0.0474 Uani
C2 C 0.5521(2) 0.2756(5) 0.0488(6) 0.0469 Uani
C3 C 0.5255(3) 0.2058(5) 0.0797(9) 0.0716 Uani
H1 H 0.5362 0.1446 0.0800 0.0860 Uiso
C4 C 0.4836(3) 0.2243(5) 0.1100(9) 0.0759 Uani
H2 H 0.4654 0.1759 0.1283 0.0910 Uiso
C5 C 0.4683(2) 0.3162(6) 0.1133(6) 0.0573 Uani
C6 C 0.4968(3) 0.3885(6) 0.0879(6) 0.0653 Uani
H3 H 0.4873 0.4501 0.0916 0.0780 Uiso
C7 C 0.5383(2) 0.3684(6) 0.0578(7) 0.0638 Uani
H4 H 0.5576 0.4164 0.0432 0.0760 Uiso
C8 C 0.4217(2) 0.3338(5) 0.1420(6) 0.0569 Uani
C9 C 0.25150(18) 0.5788(4) 0.0632(4) 0.0364 Uani
C10 C 0.28256(18) 0.5045(4) 0.1233(4) 0.0361 Uani
C11 C 0.32996(19) 0.4954(5) 0.1146(5) 0.0486 Uani
H5 H 0.3429 0.5376 0.0740 0.0580 Uiso
C12 C 0.35786(19) 0.4227(4) 0.1672(6) 0.0487 Uani
C13 C 0.33942(19) 0.3645(4) 0.2338(5) 0.0458 Uani
H6 H 0.3588 0.3186 0.2726 0.0550 Uiso
C14 C 0.29245(18) 0.3736(4) 0.2436(4) 0.0365 Uani
C15 C 0.26347(17) 0.4429(4) 0.1869(4) 0.0373 Uani
H7 H 0.2316 0.4481 0.1913 0.0450 Uiso
C16 C 0.27274(19) 0.3110(4) 0.3178(5) 0.0389 Uani
C17 C 0.3739(6) 0.1154(7) 0.7845(7) 0.1325 Uani
C18 C 0.3827(6) 0.0552(9) 0.8691(9) 0.1425 Uani
C19 C 0.3539(5) -0.0006(8) 0.7202(9) 0.1339 Uani
H8 H 0.3392 -0.0453 0.6712 0.1600 Uiso
C20 C 0.3997(7) 0.0546(14) 0.9890(9) 0.1702 Uani
H9 H 0.3991 -0.0079 1.0150 0.2550 Uiso
H10 H 0.3790 0.0930 1.0200 0.2550 Uiso
H11 H 0.4319 0.0784 1.0084 0.2550 Uiso
C21 C 0.3758(7) 0.2198(7) 0.7981(10) 0.1321 Uani
Eu1 Eu 0.318254(9) 0.21129(2) 0.55582(2) 0.0303 Uani
H12 H 0.403(2) 0.280(3) 0.152(5) 0.0360 Uiso
O1A O 0.39032(14) 0.1692(3) 0.4905(4) 0.0546 Uani
O2A O 0.38291(15) 0.3164(4) 0.5300(4) 0.0549 Uani
O3C O 0.29328(12) 0.0652(3) 0.4654(3) 0.0430 Uani
O4C O 0.22927(12) 0.1536(3) 0.4604(3) 0.0384 Uani
O4E O 0.27073(12) 0.3464(3) 0.5396(3) 0.0384 Uani
O6F O 0.27121(14) 0.1795(3) 0.6814(3) 0.0471 Uani
Eu1A Eu 0.681746(9) 0.21129(2) -0.05582(2) 0.0303 Uani
Eu1C Eu 0.181746(9) 0.71129(2) -0.05582(2) 0.0303 Uani
Eu1E Eu 0.318254(9) 0.78871(2) 0.05582(2) 0.0303 Uani
Eu1F Eu 0.181746(9) 0.28871(2) 0.44418(2) 0.0303 Uani
loop_
_atom_site_aniso_label
_atom_site_aniso_U_11
_atom_site_aniso_U_22
_atom_site_aniso_U_33
_atom_site_aniso_U_23
_atom_site_aniso_U_13
_atom_site_aniso_U_12
O1 0.0284 0.045 0.102 -0.012 0.039 -0.0038
O2 0.034 0.056 0.086 0.021 0.037 0.015
O3 0.019 0.04 0.074 0.0018 0.0187 0.0009
O4 0.0263 0.0322 0.064 0.0039 0.0253 -0.0014
O5 0.0258(19) 0.055(3) 0.059(2) 0.011(2) 0.0230(17) 0.0078(19)
O6 0.030(2) 0.065(3) 0.054(2) 0.019(2) 0.0258(17) 0.006(2)
O7 0.088(4) 0.099(3) 0.076(3) -0.001(2) 0.011(3) -0.027(3)
N1 0.030(2) 0.061(4) 0.093(4) 0.025(3) 0.038(2) 0.014(2)
N2 0.052(3) 0.089(3) 0.114(3) 0.007(3) 0.011(3) 0.030(3)
N3 0.136(5) 0.137(4) 0.140(4) 0.026(3) 0.028(4) 0.000(4)
C1 0.028 0.052 0.067 -0.003 0.021 0
C2 0.023 0.054 0.07 0.01 0.024 0.005
C3 0.054 0.044 0.133 0.007 0.055 0.004
C4 0.049(4) 0.058(4) 0.142(8) 0.019(5) 0.066(5) 0.003(3)
C5 0.031(3) 0.066(4) 0.084(5) 0.017(4) 0.032(3) 0.007(3)
C6 0.057(4) 0.058(4) 0.090(5) 0.019(4) 0.036(4) 0.025(4)
C7 0.04 0.067 0.097 0.022 0.042 0.009
C8 0.033(3) 0.054(4) 0.093(5) 0.015(4) 0.034(3) 0.009(3)
C9 0.024 0.039 0.053 -0.001 0.023 0.003
C10 0.024(2) 0.033(3) 0.057(3) -0.001(2) 0.021(2) 0.000(2)
C11 0.025(3) 0.048(3) 0.081(4) 0.015(3) 0.029(3) 0.004(2)
C12 0.023(2) 0.048(4) 0.084(4) 0.013(3) 0.031(3) 0.006(2)
C13 0.030(3) 0.044(3) 0.069(4) 0.018(3) 0.023(2) 0.010(2)
C14 0.026(2) 0.038(3) 0.051(3) 0.003(2) 0.020(2) 0.001(2)
C15 0.023(2) 0.039(3) 0.054(3) -0.001(2) 0.017(2) -0.001(2)
C16 0.025(3) 0.045(3) 0.052(3) 0.003(3) 0.020(2) 0.001(2)
C17 0.138(6) 0.125(3) 0.131(4) 0.003(3) 0.023(4) 0.001(4)
C18 0.145(6) 0.140(4) 0.136(3) 0.016(3) 0.018(4) 0.003(5)
C19 0.143(6) 0.120(4) 0.137(4) 0.015(3) 0.028(4) -0.005(5)
C20 0.181(7) 0.174(6) 0.151(4) 0.011(4) 0.028(5) -0.008(5)
C21 0.142(6) 0.124(3) 0.125(5) 0.006(3) 0.019(5) -0.006(5)
Eu1 0.0142(2) 0.0326(2) 0.0490(2) 0.00204(11) 0.01756(14) -0.00048(9)
O1A 0.0284 0.045 0.102 0.012 0.039 0.0038
O2A 0.034 0.056 0.086 -0.021 0.037 -0.015
O3C 0.019 0.04 0.074 -0.0018 0.0187 -0.0009
O4C 0.0263 0.0322 0.064 -0.0039 0.0253 0.0014
O4E 0.0263 0.0322 0.064 -0.0039 0.0253 0.0014
O6F 0.03 0.065 0.054 0.019 0.0258 0.006
Eu1A 0.0142 0.0326 0.049 -0.00204 0.01756 0.00048
Eu1C 0.0142 0.0326 0.049 -0.00204 0.01756 0.00048
Eu1E 0.0142 0.0326 0.049 -0.00204 0.01756 0.00048
Eu1F 0.0142 0.0326 0.049 0.00204 0.01756 -0.00048
loop_
_geom_bond_atom_site_label_1
_geom_bond_atom_site_label_2
_geom_bond_site_symmetry_1
_geom_bond_site_symmetry_2
O1 C1 1_555 1_555
O2 C1 1_555 1_555
O3 C9 1_555 1_555
O4 C9 1_555 1_555
O5 C16 1_555 1_555
O6 C16 1_555 1_555
O7 C21 1_555 1_555
N1 C8 1_555 1_555
N2 C17 1_555 1_555
N3 C18 1_555 1_555
C1 C2 1_555 1_555
C2 C3 1_555 1_555
C3 H1 1_555 1_555
C4 C3 1_555 1_555
H2 C4 1_555 1_555
C5 C4 1_555 1_555
C6 C5 1_555 1_555
H3 C6 1_555 1_555
C7 C2 1_555 1_555
H4 C7 1_555 1_555
C8 C5 1_555 1_555
C9 C10 1_555 1_555
C10 C11 1_555 1_555
C11 H5 1_555 1_555
C12 N1 1_555 1_555
C13 C12 1_555 1_555
H6 C13 1_555 1_555
C14 C13 1_555 1_555
C15 C10 1_555 1_555
H7 C15 1_555 1_555
C16 C14 1_555 1_555
C17 C18 1_555 1_555
C18 C20 1_555 1_555
C19 N2 1_555 1_555
H8 C19 1_555 1_555
C20 H9 1_555 1_555
H10 C20 1_555 1_555
H11 C20 1_555 1_555
C21 C17 1_555 1_555
Eu1 O5 1_555 1_555
H12 C8 1_555 1_555
O1A Eu1 1_555 1_555
O2A Eu1 1_555 1_555
O3C Eu1 1_555 1_555
O4C Eu1 1_555 1_555
O4E Eu1 1_555 1_555
O6F Eu1 1_555 1_555
Eu1A O1 1_555 1_555
Eu1C O3 1_555 1_555
Eu1E O4 1_555 1_555
Eu1F O6 1_555 1_555
O2 Eu1A 1_555 1_555
O4 Eu1C 1_555 1_555
O7 Eu1 1_555 1_555
N2 Eu1 1_555 1_555
N3 C19 1_555 1_555
C6 C7 1_555 1_555
C11 C12 1_555 1_555
C14 C15 1_555 1_555
O4C Eu1F 1_555 1_555
O4E Eu1F 1_555 1_555

#END
