
#######################################################################
#
#                 Cambridge Crystallographic Data Centre
#                                CCDC 
#
#######################################################################
#
# If this CIF has been generated from an entry in the Cambridge 
# Structural Database, then it will include bibliographic, chemical, 
# crystal, experimental, refinement or atomic coordinate data resulting 
# from the CCDC's data processing and validation procedures.
#
#######################################################################

data_GEDQIR
_chemical_formula_moiety         '(C26 H23 N2 Nd1 O9)n'
_symmetry_cell_setting           monoclinic
_symmetry_space_group_name_H-M   'C 2/c'
_symmetry_Int_Tables_number      15
_space_group_name_Hall           '-C 2yc'
loop_
_symmetry_equiv_pos_site_id
_symmetry_equiv_pos_as_xyz
1 x,y,z
2 -x,y,1/2-z
3 1/2+x,1/2+y,z
4 1/2-x,1/2+y,1/2-z
5 -x,-y,-z
6 x,-y,1/2+z
7 1/2-x,1/2-y,-z
8 1/2+x,1/2-y,1/2+z
_cell_length_a                   28.2238(8)
_cell_length_b                   15.1581(5)
_cell_length_c                   13.5868(5)
_cell_angle_alpha                90
_cell_angle_beta                 100.014(3)
_cell_angle_gamma                90
_cell_volume                     5724.14
loop_
_atom_site_label
_atom_site_type_symbol
_atom_site_fract_x
_atom_site_fract_y
_atom_site_fract_z
_atom_site_U_iso_or_equiv
_atom_site_thermal_displace_type
Nd1 Nd 0.319489(9) 0.213217(18) 0.53874(2) 0.0187 Uani
O1 O 0.38904(14) 0.1845(3) 0.4450(3) 0.0356 Uani
O2 O 0.39102(15) 0.3079(3) 0.5309(4) 0.0485 Uani
O3 O 0.79701(12) 0.5902(2) 0.4202(3) 0.0270 Uani
O4 O 0.73336(12) 0.6672(3) 0.4380(3) 0.0285 Uani
O5 O 0.69844(15) 0.2964(3) 0.1129(3) 0.0372 Uani
O6 O 0.77147(13) 0.3607(3) 0.1466(3) 0.0364 Uani
O7 O 0.35326(19) 0.2643(4) 0.7115(4) 0.0581 Uani
O8 O 0.37040(16) 0.0922(3) 0.6274(4) 0.0507 Uani
O9 O 0.3839(3) -0.0747(6) 0.7738(6) 0.1249 Uani
H1 H 0.3798 -0.1012 0.8242 0.1870 Uiso
N1 N 0.59844(17) 0.4404(4) 0.3417(4) 0.0396 Uani
N2 N 0.3519(6) 0.3386(12) 0.8674(11) 0.1825 Uani
C1 C 0.4081(2) 0.2568(5) 0.4721(5) 0.0367 Uani
C2 C 0.4523(2) 0.2856(4) 0.4323(5) 0.0385 Uani
C3 C 0.4822(2) 0.2227(5) 0.3995(6) 0.0474 Uani
H2 H 0.4735 0.1636 0.3969 0.0570 Uiso
C4 C 0.5247(3) 0.2487(5) 0.3711(6) 0.0577 Uani
H3 H 0.5453 0.2067 0.3519 0.0690 Uiso
C5 C 0.5370(2) 0.3396(5) 0.3710(5) 0.0473 Uani
C6 C 0.5065(2) 0.4003(5) 0.4008(6) 0.0573 Uani
H4 H 0.5137 0.4600 0.3989 0.0690 Uiso
C7 C 0.4649(2) 0.3740(5) 0.4337(6) 0.0524 Uani
H5 H 0.4454 0.4157 0.4568 0.0630 Uiso
C8 C 0.5835(2) 0.3614(5) 0.3435(5) 0.0467 Uani
C9 C 0.75250(19) 0.5997(4) 0.4057(4) 0.0241 Uani
C10 C 0.72119(18) 0.5303(4) 0.3502(4) 0.0247 Uani
C11 C 0.67379(19) 0.5198(4) 0.3659(4) 0.0300 Uani
H6 H 0.6614 0.5574 0.4090 0.0360 Uiso
C12 C 0.64548(19) 0.4533(4) 0.3170(4) 0.0309 Uani
C13 C 0.6627(2) 0.4011(4) 0.2474(4) 0.0327 Uani
H7 H 0.6427 0.3592 0.2115 0.0390 Uiso
C14 C 0.70990(19) 0.4111(4) 0.2308(4) 0.0275 Uani
C15 C 0.73918(18) 0.4758(4) 0.2831(4) 0.0251 Uani
H8 H 0.7707 0.4825 0.2731 0.0300 Uiso
C16 C 0.7281(2) 0.3527(4) 0.1572(4) 0.0304 Uani
C17 C 0.3307(6) 0.2838(11) 0.7846(12) 0.1617 Uani
C18 C 0.3103(10) 0.373(2) 0.918(2) 0.3649 Uani
H9 H 0.3231 0.4116 0.9724 0.5480 Uiso
H10 H 0.2945 0.3243 0.9435 0.5480 Uiso
H11 H 0.2876 0.4048 0.8703 0.5480 Uiso
C19 C 0.4015(8) 0.3728(19) 0.870(2) 0.3038 Uani
H12 H 0.4101 0.4107 0.9268 0.4550 Uiso
H13 H 0.4027 0.4054 0.8100 0.4550 Uiso
H14 H 0.4236 0.3244 0.8749 0.4550 Uiso
C20 C 0.3867(4) 0.0090(7) 0.5904(8) 0.1020 Uani
H15 H 0.4185 -0.0043 0.6269 0.1220 Uiso
H16 H 0.3892 0.0161 0.5207 0.1220 Uiso
C21 C 0.3539(4) -0.0681(6) 0.6000(8) 0.0808 Uani
C22 C 0.3525(3) -0.1066(6) 0.6929(7) 0.0665 Uani
C23 C 0.3229(4) -0.1726(6) 0.7009(8) 0.0766 Uani
H17 H 0.3223 -0.1976 0.7631 0.0920 Uiso
C24 C 0.2934(6) -0.2040(8) 0.6196(12) 0.1954 Uani
H18 H 0.2726 -0.2503 0.6251 0.2340 Uiso
C25 C 0.2949(7) -0.1661(12) 0.5285(16) 0.2274 Uani
H19 H 0.2746 -0.1869 0.4720 0.2730 Uiso
C26 C 0.3250(5) -0.0998(10) 0.5201(10) 0.1680 Uani
H20 H 0.3258 -0.0755 0.4576 0.2010 Uiso
H21 H 0.592(5) 0.321(8) 0.290(8) 0.2010 Uiso
H22 H 0.373(5) 0.071(9) 0.698(4) 0.2010 Uiso
Nd1B Nd 0.819489(9) 0.713217(18) 0.53874(2) 0.0187 Uani
Nd1D Nd 0.680511(9) 0.786783(18) 0.46126(2) 0.0187 Uani
Nd1A Nd 0.680511(9) 0.213217(18) -0.03874(2) 0.0187 Uani
Nd1G Nd 0.819489(9) 0.286783(18) 0.03874(2) 0.0187 Uani
O3B O 0.29701(12) 0.0902(2) 0.4202(3) 0.0270 Uani
O4B O 0.23336(12) 0.1672(3) 0.4380(3) 0.0285 Uani
O4D O 0.26664(12) 0.3328(3) 0.5620(3) 0.0285 Uani
O5A O 0.30156(15) 0.2964(3) 0.3871(3) 0.0372 Uani
O6G O 0.27147(13) 0.1393(3) 0.6466(3) 0.0364 Uani
loop_
_atom_site_aniso_label
_atom_site_aniso_U_11
_atom_site_aniso_U_22
_atom_site_aniso_U_33
_atom_site_aniso_U_23
_atom_site_aniso_U_13
_atom_site_aniso_U_12
Nd1 0.01445(17) 0.01841(19) 0.02469(19) 0.00056(13) 0.00767(12) -0.00159(11)
O1 0.024(2) 0.033(2) 0.055(3) -0.001(2) 0.021(2) -0.0040(19)
O2 0.035(2) 0.060(3) 0.058(3) -0.030(3) 0.029(2) -0.028(2)
O3 0.021 0.023 0.039 -0.0051 0.011 -0.0022
O4 0.025 0.024 0.038 -0.012 0.01 -0.0014
O5 0.038 0.036 0.044 -0.024 0.025 -0.0199
O6 0.03 0.038 0.047 -0.016 0.0226 -0.008
O7 0.062(3) 0.078(4) 0.033(3) -0.008(3) 0.005(2) 0.006(3)
O8 0.043(3) 0.048(3) 0.061(3) 0.012(3) 0.009(2) 0.019(2)
O9 0.132(6) 0.144(8) 0.104(6) 0.051(6) 0.035(5) -0.045(6)
N1 0.027(3) 0.046(3) 0.052(3) -0.022(3) 0.024(2) -0.015(2)
N2 0.158(11) 0.234(16) 0.144(11) -0.067(12) -0.006(9) -0.039(11)
C1 0.019(3) 0.050(4) 0.042(4) 0.005(3) 0.008(3) -0.005(3)
C2 0.026(3) 0.047(4) 0.046(4) -0.007(3) 0.016(3) -0.009(3)
C3 0.040(4) 0.043(4) 0.068(5) -0.016(4) 0.034(4) -0.017(3)
C4 0.051(4) 0.050(5) 0.083(6) -0.021(4) 0.042(4) -0.012(4)
C5 0.036(3) 0.055(5) 0.058(5) -0.025(4) 0.028(3) -0.020(3)
C6 0.043(4) 0.045(4) 0.093(6) -0.022(4) 0.037(4) -0.018(3)
C7 0.040(4) 0.045(4) 0.081(5) -0.021(4) 0.035(4) -0.015(3)
C8 0.042(4) 0.049(4) 0.056(5) -0.019(4) 0.028(3) -0.020(3)
C9 0.027 0.024 0.025 -0.005 0.015 -0.004
C10 0.023 0.02 0.034 -0.007 0.013 -0.006
C11 0.03 0.027 0.038 -0.01 0.02 -0.003
C12 0.028 0.032 0.037 -0.01 0.018 -0.006
C13 0.03 0.035 0.037 -0.014 0.017 -0.012
C14 0.028 0.022 0.037 -0.007 0.018 -0.008
C15 0.02 0.025 0.034 -0.005 0.015 -0.008
C16 0.033 0.029 0.034 -0.009 0.019 -0.002
C17 0.166(8) 0.161(8) 0.156(8) -0.009(5) 0.022(5) -0.004(5)
C18 0.367(17) 0.366(17) 0.362(17) -0.004(5) 0.064(6) 0.004(5)
C19 0.304(13) 0.306(14) 0.303(14) 0.005(5) 0.057(6) 0.002(5)
C20 0.114(8) 0.094(8) 0.116(9) 0.045(7) 0.070(7) 0.054(7)
C21 0.109(8) 0.059(6) 0.079(7) 0.027(5) 0.029(6) 0.031(6)
C22 0.063(5) 0.072(6) 0.066(6) 0.005(5) 0.015(5) 0.011(5)
C23 0.112(8) 0.052(5) 0.071(6) 0.016(5) 0.030(6) 0.015(6)
C24 0.32(2) 0.118(12) 0.112(12) 0.053(10) -0.063(14) -0.072(13)
C25 0.235(10) 0.221(10) 0.223(11) 0.008(5) 0.031(5) -0.007(5)
C26 0.208(16) 0.173(16) 0.099(10) 0.067(10) -0.040(11) -0.057(13)
Nd1B 0.01445 0.01841 0.02469 0.00056 0.00767 -0.00159
Nd1D 0.01445 0.01841 0.02469 0.00056 0.00767 -0.00159
Nd1A 0.01445 0.01841 0.02469 -0.00056 0.00767 0.00159
Nd1G 0.01445 0.01841 0.02469 -0.00056 0.00767 0.00159
O3B 0.021 0.023 0.039 -0.0051 0.011 -0.0022
O4B 0.025 0.024 0.038 -0.012 0.01 -0.0014
O4D 0.025 0.024 0.038 -0.012 0.01 -0.0014
O5A 0.038 0.036 0.044 0.024 0.025 0.0199
O6G 0.03 0.038 0.047 0.016 0.0226 0.008
loop_
_geom_bond_atom_site_label_1
_geom_bond_atom_site_label_2
_geom_bond_site_symmetry_1
_geom_bond_site_symmetry_2
Nd1 O1 1_555 1_555
O1 C1 1_555 1_555
O2 Nd1 1_555 1_555
O3 C9 1_555 1_555
O4 C9 1_555 1_555
O5 C16 1_555 1_555
O6 C16 1_555 1_555
O7 Nd1 1_555 1_555
O8 Nd1 1_555 1_555
O9 H1 1_555 1_555
N1 C8 1_555 1_555
N2 C17 1_555 1_555
C1 O2 1_555 1_555
C2 C1 1_555 1_555
C3 C2 1_555 1_555
H2 C3 1_555 1_555
C4 C3 1_555 1_555
H3 C4 1_555 1_555
C5 C4 1_555 1_555
C6 C5 1_555 1_555
H4 C6 1_555 1_555
C7 C2 1_555 1_555
H5 C7 1_555 1_555
C8 C5 1_555 1_555
C9 C10 1_555 1_555
C10 C11 1_555 1_555
C11 H6 1_555 1_555
C12 N1 1_555 1_555
C13 C12 1_555 1_555
H7 C13 1_555 1_555
C14 C13 1_555 1_555
C15 C10 1_555 1_555
H8 C15 1_555 1_555
C16 C14 1_555 1_555
C17 O7 1_555 1_555
C18 N2 1_555 1_555
H9 C18 1_555 1_555
H10 C18 1_555 1_555
H11 C18 1_555 1_555
C19 N2 1_555 1_555
H12 C19 1_555 1_555
H13 C19 1_555 1_555
H14 C19 1_555 1_555
C20 O8 1_555 1_555
H15 C20 1_555 1_555
H16 C20 1_555 1_555
C21 C20 1_555 1_555
C22 O9 1_555 1_555
C23 C22 1_555 1_555
H17 C23 1_555 1_555
C24 C23 1_555 1_555
H18 C24 1_555 1_555
C25 C24 1_555 1_555
H19 C25 1_555 1_555
C26 C21 1_555 1_555
H20 C26 1_555 1_555
H21 C8 1_555 1_555
H22 O8 1_555 1_555
Nd1B O3 1_555 1_555
Nd1D O4 1_555 1_555
Nd1A O5 1_555 1_555
Nd1G O6 1_555 1_555
O3B Nd1 1_555 1_555
O4B Nd1 1_555 1_555
O4D Nd1 1_555 1_555
O5A Nd1 1_555 1_555
O6G Nd1 1_555 1_555
O4 Nd1B 1_555 1_555
C6 C7 1_555 1_555
C11 C12 1_555 1_555
C14 C15 1_555 1_555
C21 C22 1_555 1_555
C25 C26 1_555 1_555

#END
