
#######################################################################
#
#                 Cambridge Crystallographic Data Centre
#                                CCDC 
#
#######################################################################
#
# If this CIF has been generated from an entry in the Cambridge 
# Structural Database, then it will include bibliographic, chemical, 
# crystal, experimental, refinement or atomic coordinate data resulting 
# from the CCDC's data processing and validation procedures.
#
#######################################################################

data_GEDQOX
_chemical_formula_moiety         '(C18 H16 N1 Nd1 O8 S1)n'
_symmetry_cell_setting           monoclinic
_symmetry_space_group_name_H-M   'C 2/c'
_symmetry_Int_Tables_number      15
_space_group_name_Hall           '-C 2yc'
loop_
_symmetry_equiv_pos_site_id
_symmetry_equiv_pos_as_xyz
1 x,y,z
2 -x,y,1/2-z
3 1/2+x,1/2+y,z
4 1/2-x,1/2+y,1/2-z
5 -x,-y,-z
6 x,-y,1/2+z
7 1/2-x,1/2-y,-z
8 1/2+x,1/2-y,1/2+z
_cell_length_a                   28.5413(7)
_cell_length_b                   14.9992(4)
_cell_length_c                   13.2796(5)
_cell_angle_alpha                90
_cell_angle_beta                 100.320(3)
_cell_angle_gamma                90
_cell_volume                     5592.98
loop_
_atom_site_label
_atom_site_type_symbol
_atom_site_fract_x
_atom_site_fract_y
_atom_site_fract_z
_atom_site_U_iso_or_equiv
_atom_site_thermal_displace_type
Nd1 Nd 0.318579(10) 0.28568(2) 0.04234(2) 0.0278 Uani
N1 N 0.5975(2) 0.0682(5) -0.1527(5) 0.0592 Uani
O1 O 0.38405(17) 0.1793(4) 0.0247(4) 0.0567 Uani
O2 O 0.39105(16) 0.3149(3) -0.0329(4) 0.0528 Uani
O3 O 0.70121(16) 0.2246(3) -0.3722(4) 0.0376 Uani
O4 O 0.77215(14) 0.1559(3) -0.3365(3) 0.0410 Uani
O5 O 0.79537(14) -0.0808(3) -0.0662(4) 0.0455 Uani
O6 O 0.73227(14) -0.1581(3) -0.0496(3) 0.0351 Uani
O7 O 0.3654(2) 0.4112(4) 0.1375(5) 0.0793 Uani
C1 C 0.4052(2) 0.2370(6) -0.0194(6) 0.0457 Uani
C2 C 0.4495(2) 0.2105(5) -0.0576(7) 0.0501 Uani
C3 C 0.4627(3) 0.1233(6) -0.0629(9) 0.0866 Uani
H1 H 0.4428 0.0787 -0.0462 0.1040 Uiso
C4 C 0.5054(3) 0.1001(7) -0.0929(9) 0.0882 Uani
H2 H 0.5142 0.0406 -0.0955 0.1060 Uiso
C5 C 0.5349(3) 0.1675(6) -0.1190(7) 0.0607 Uani
C6 C 0.5211(3) 0.2537(6) -0.1183(10) 0.0844 Uani
H3 H 0.5405 0.2981 -0.1374 0.1010 Uiso
C7 C 0.4784(3) 0.2769(6) -0.0897(10) 0.0868 Uani
H4 H 0.4689 0.3362 -0.0916 0.1040 Uiso
C8 C 0.5812(3) 0.1457(6) -0.1469(7) 0.0641 Uani
H5 H 0.588(3) 0.190(4) -0.194(5) 0.0770 Uiso
C9 C 0.7290(2) 0.1667(4) -0.3277(5) 0.0370 Uani
C10 C 0.7101(2) 0.1056(4) -0.2547(5) 0.0334 Uani
C11 C 0.6628(2) 0.1138(4) -0.2409(5) 0.0411 Uani
H6 H 0.6433 0.1568 -0.2773 0.0490 Uiso
C12 C 0.6448(2) 0.0582(5) -0.1732(6) 0.0447 Uani
C13 C 0.6729(2) -0.0100(5) -0.1243(5) 0.0411 Uani
H7 H 0.6602 -0.0507 -0.0838 0.0490 Uiso
C14 C 0.7200(2) -0.0171(4) -0.1363(5) 0.0328 Uani
C15 C 0.7383(2) 0.0405(4) -0.1998(5) 0.0341 Uani
H8 H 0.7701 0.0357 -0.2061 0.0410 Uiso
C16 C 0.7514(2) -0.0888(4) -0.0800(5) 0.0325 Uani
S1 S 0.3663(5) 0.0913(10) 0.3873(10) 0.2664 Uani
C17 C 0.3720(15) 0.2085(11) 0.416(3) 0.2396 Uani
H9 H 0.3591 0.2267 0.4756 0.2880 Uiso
H10 H 0.4037 0.2325 0.4176 0.2880 Uiso
C18 C 0.3379(14) 0.221(3) 0.314(3) 0.2291 Uani
H11 H 0.3147 0.1731 0.3102 0.2750 Uiso
H12 H 0.3208 0.2757 0.3200 0.2750 Uiso
O8 O 0.3508(6) 0.2237(17) 0.2191(14) 0.0546 Uani
Nd1A Nd 0.681421(10) 0.28568(2) -0.54234(2) 0.0278 Uani
Nd1G Nd 0.818579(10) 0.21432(2) -0.45766(2) 0.0278 Uani
Nd1B Nd 0.818579(10) -0.21432(2) 0.04234(2) 0.0278 Uani
Nd1D Nd 0.681421(10) -0.28568(2) -0.04234(2) 0.0278 Uani
O3A O 0.29879(16) 0.2246(3) -0.1278(4) 0.0376 Uani
O4G O 0.27215(14) 0.3441(3) 0.1635(3) 0.0410 Uani
O5B O 0.29537(14) 0.4192(3) -0.0662(4) 0.0455 Uani
O6B O 0.23227(14) 0.3419(3) -0.0496(3) 0.0351 Uani
O6D O 0.26773(14) 0.1581(3) 0.0496(3) 0.0351 Uani
loop_
_atom_site_aniso_label
_atom_site_aniso_U_11
_atom_site_aniso_U_22
_atom_site_aniso_U_33
_atom_site_aniso_U_23
_atom_site_aniso_U_13
_atom_site_aniso_U_12
Nd1 0.0179(2) 0.0271(2) 0.0416(2) -0.00204(14) 0.01358(14) 0.00015(12)
N1 0.039(3) 0.060(4) 0.088(5) 0.026(4) 0.037(3) 0.016(3)
O1 0.037(3) 0.053(3) 0.089(4) 0.027(3) 0.035(3) 0.020(2)
O2 0.033(3) 0.044(3) 0.090(4) -0.001(3) 0.034(3) -0.004(2)
O3 0.033 0.042 0.042 0.014 0.018 0.006
O4 0.025 0.053 0.05 0.018 0.0201 0.003
O5 0.029 0.032 0.079 0.015 0.019 0.004
O6 0.028 0.032 0.049 0.005 0.0169 0.0024
O7 0.064(3) 0.071(4) 0.106(5) -0.034(4) 0.024(3) -0.030(3)
C1 0.021(3) 0.060(5) 0.059(5) -0.003(4) 0.015(3) -0.003(3)
C2 0.029(4) 0.054(5) 0.072(5) 0.005(4) 0.022(3) 0.006(3)
C3 0.058(5) 0.067(6) 0.153(10) 0.037(6) 0.068(6) 0.022(5)
C4 0.070(6) 0.065(6) 0.148(10) 0.039(6) 0.069(6) 0.024(5)
C5 0.047(4) 0.054(5) 0.087(6) 0.011(5) 0.028(4) 0.008(4)
C6 0.062(6) 0.053(5) 0.158(10) 0.013(6) 0.073(6) 0.003(5)
C7 0.061(6) 0.056(6) 0.164(11) 0.012(6) 0.076(7) -0.001(4)
C8 0.047(4) 0.071(6) 0.084(6) 0.022(5) 0.038(4) 0.015(4)
C9 0.038 0.038 0.039 -0.002 0.018 0.001
C10 0.032 0.03 0.043 0.005 0.02 0.011
C11 0.034 0.04 0.053 0.015 0.018 0.011
C12 0.029 0.046 0.067 0.014 0.03 0.009
C13 0.033 0.038 0.059 0.013 0.026 0.005
C14 0.028 0.03 0.045 0.005 0.019 0.004
C15 0.025 0.039 0.042 0.001 0.016 -0.004
C16 0.027 0.033 0.042 0.003 0.018 0
S1 0.294(7) 0.250(6) 0.249(7) 0.009(4) 0.032(5) -0.016(5)
C17 0.241(10) 0.241(8) 0.237(9) 0.002(5) 0.043(5) 0.002(5)
C18 0.228(10) 0.234(9) 0.227(9) -0.007(5) 0.045(5) 0.005(5)
O8 0.049(11) 0.078(8) 0.039(8) -0.002(6) 0.014(6) 0.029(8)
Nd1A 0.0179 0.0271 0.0416 0.00204 0.01358 -0.00015
Nd1G 0.0179 0.0271 0.0416 0.00204 0.01358 -0.00015
Nd1B 0.0179 0.0271 0.0416 -0.00204 0.01358 0.00015
Nd1D 0.0179 0.0271 0.0416 -0.00204 0.01358 0.00015
O3A 0.033 0.042 0.042 -0.014 0.018 -0.006
O4G 0.025 0.053 0.05 -0.018 0.0201 -0.003
O5B 0.029 0.032 0.079 0.015 0.019 0.004
O6B 0.028 0.032 0.049 0.005 0.0169 0.0024
O6D 0.028 0.032 0.049 0.005 0.0169 0.0024
loop_
_geom_bond_atom_site_label_1
_geom_bond_atom_site_label_2
_geom_bond_site_symmetry_1
_geom_bond_site_symmetry_2
Nd1 O1 1_555 1_555
N1 C8 1_555 1_555
O1 C1 1_555 1_555
O2 Nd1 1_555 1_555
O3 C9 1_555 1_555
O4 C9 1_555 1_555
O5 C16 1_555 1_555
O6 C16 1_555 1_555
O7 Nd1 1_555 1_555
C1 O2 1_555 1_555
C2 C1 1_555 1_555
C3 C2 1_555 1_555
H1 C3 1_555 1_555
C4 C3 1_555 1_555
H2 C4 1_555 1_555
C5 C4 1_555 1_555
C6 C5 1_555 1_555
H3 C6 1_555 1_555
C7 C2 1_555 1_555
H4 C7 1_555 1_555
C8 C5 1_555 1_555
H5 C8 1_555 1_555
C9 C10 1_555 1_555
C10 C11 1_555 1_555
C11 H6 1_555 1_555
C12 N1 1_555 1_555
C13 C12 1_555 1_555
H7 C13 1_555 1_555
C14 C13 1_555 1_555
C15 C10 1_555 1_555
H8 C15 1_555 1_555
C16 C14 1_555 1_555
S1 C17 1_555 1_555
C17 H9 1_555 1_555
H10 C17 1_555 1_555
C18 C17 1_555 1_555
H11 C18 1_555 1_555
H12 C18 1_555 1_555
O8 Nd1 1_555 1_555
Nd1A O3 1_555 1_555
Nd1G O4 1_555 1_555
Nd1B O5 1_555 1_555
Nd1D O6 1_555 1_555
O3A Nd1 1_555 1_555
O4G Nd1 1_555 1_555
O5B Nd1 1_555 1_555
O6B Nd1 1_555 1_555
O6D Nd1 1_555 1_555
O6 Nd1B 1_555 1_555
C6 C7 1_555 1_555
C11 C12 1_555 1_555
C14 C15 1_555 1_555
C18 O8 1_555 1_555

#END
