
#######################################################################
#
#                 Cambridge Crystallographic Data Centre
#                                CCDC 
#
#######################################################################
#
# If this CIF has been generated from an entry in the Cambridge 
# Structural Database, then it will include bibliographic, chemical, 
# crystal, experimental, refinement or atomic coordinate data resulting 
# from the CCDC's data processing and validation procedures.
#
#######################################################################

data_GEDROY
_chemical_formula_moiety         '(C17 H16 N1 Nd1 O9)n'
_symmetry_cell_setting           monoclinic
_symmetry_space_group_name_H-M   'C 2/c'
_symmetry_Int_Tables_number      15
_space_group_name_Hall           '-C 2yc'
loop_
_symmetry_equiv_pos_site_id
_symmetry_equiv_pos_as_xyz
1 x,y,z
2 -x,y,1/2-z
3 1/2+x,1/2+y,z
4 1/2-x,1/2+y,1/2-z
5 -x,-y,-z
6 x,-y,1/2+z
7 1/2-x,1/2-y,-z
8 1/2+x,1/2-y,1/2+z
_cell_length_a                   28.483(3)
_cell_length_b                   14.5232(12)
_cell_length_c                   12.3002(15)
_cell_angle_alpha                90
_cell_angle_beta                 106.765(11)
_cell_angle_gamma                90
_cell_volume                     4871.89
loop_
_atom_site_label
_atom_site_type_symbol
_atom_site_fract_x
_atom_site_fract_y
_atom_site_fract_z
_atom_site_U_iso_or_equiv
_atom_site_thermal_displace_type
Nd1 Nd 0.322039(13) 0.21760(3) 0.07040(4) 0.0325 Uani
O1 O 0.3945(2) 0.1682(5) 0.0034(6) 0.0537 Uani
O2 O 0.3870(2) 0.3174(5) 0.0338(7) 0.0589 Uani
O3 O 0.7980(2) 0.5651(5) -0.0176(6) 0.0477 Uani
O4 O 0.73200(18) 0.6502(4) -0.0301(5) 0.0343 Uani
O5 O 0.7756(2) 0.3095(5) -0.2977(5) 0.0427 Uani
O6 O 0.7011(2) 0.2459(4) -0.3671(5) 0.0404 Uani
O7 O 0.3651(3) 0.3099(6) 0.2406(7) 0.0704 Uani
O8 O 0.3713(3) 0.1035(6) 0.2066(7) 0.0739 Uani
N1 N 0.5960(2) 0.4093(6) -0.1490(6) 0.0429 Uani
C1 C 0.4078(3) 0.2526(7) -0.0016(8) 0.0439 Uani
C2 C 0.4508(3) 0.2704(7) -0.0454(9) 0.0481 Uani
C3 C 0.4641(3) 0.3617(8) -0.0543(8) 0.0472 Uani
H1 H 0.4452 0.4089 -0.0377 0.0570 Uiso
C4 C 0.5058(3) 0.3828(7) -0.0882(8) 0.0489 Uani
H2 H 0.5142 0.4438 -0.0964 0.0590 Uiso
C5 C 0.5342(3) 0.3117(7) -0.1091(8) 0.0441 Uani
C6 C 0.5203(4) 0.2196(8) -0.1027(11) 0.0634 Uani
H3 H 0.5387 0.1720 -0.1205 0.0760 Uiso
C7 C 0.4787(4) 0.2010(8) -0.0691(11) 0.0644 Uani
H4 H 0.4696 0.1402 -0.0628 0.0770 Uiso
C8 C 0.5810(3) 0.3282(7) -0.1357(8) 0.0442 Uani
C9 C 0.7519(3) 0.5765(6) -0.0504(8) 0.0401 Uani
C10 C 0.7204(3) 0.5002(6) -0.1123(7) 0.0379 Uani
C11 C 0.6720(3) 0.4920(6) -0.1091(7) 0.0363 Uani
H5 H 0.6587 0.5356 -0.0711 0.0440 Uiso
C12 C 0.6438(3) 0.4180(7) -0.1632(7) 0.0394 Uani
C13 C 0.6621(3) 0.3572(7) -0.2282(7) 0.0394 Uani
H6 H 0.6423 0.3103 -0.2683 0.0470 Uiso
C14 C 0.7103(3) 0.3666(6) -0.2331(7) 0.0353 Uani
C15 C 0.7393(3) 0.4364(6) -0.1725(7) 0.0363 Uani
H7 H 0.7719 0.4406 -0.1720 0.0430 Uiso
C16 C 0.7303(3) 0.3024(6) -0.3056(7) 0.0353 Uani
C17 C 0.3564(11) 0.330(2) 0.3422(18) 0.1999 Uani
H8 H 0.3823 0.3684 0.3868 0.2970 Uiso
H9 H 0.3550 0.2741 0.3825 0.2970 Uiso
H10 H 0.3257 0.3621 0.3281 0.2970 Uiso
H11 H 0.602(4) 0.278(7) -0.112(9) 0.0500 Uiso
Nd1B Nd 0.822039(13) 0.71760(3) 0.07040(4) 0.0325 Uani
Nd1D Nd 0.677961(13) 0.78240(3) -0.07040(4) 0.0325 Uani
Nd1G Nd 0.822039(13) 0.28240(3) -0.42960(4) 0.0325 Uani
Nd1A Nd 0.677961(13) 0.21760(3) -0.57040(4) 0.0325 Uani
O3B O 0.2980(2) 0.0651(5) -0.0176(6) 0.0477 Uani
O4B O 0.23200(18) 0.1502(4) -0.0301(5) 0.0343 Uani
O4D O 0.26800(18) 0.3498(4) 0.0301(5) 0.0343 Uani
O5G O 0.2756(2) 0.1905(5) 0.2023(5) 0.0427 Uani
O6A O 0.2989(2) 0.2459(4) -0.1329(5) 0.0404 Uani
O9 O 0.4471(2) 0.4156(6) 0.2348(8) 0.0726 Uani
loop_
_atom_site_aniso_label
_atom_site_aniso_U_11
_atom_site_aniso_U_22
_atom_site_aniso_U_33
_atom_site_aniso_U_23
_atom_site_aniso_U_13
_atom_site_aniso_U_12
Nd1 0.0208(2) 0.0378(3) 0.0472(3) 0.0016(2) 0.02308(18) -0.00091(18)
O1 0.037(3) 0.052(4) 0.090(5) 0.014(4) 0.047(3) 0.005(3)
O2 0.042(3) 0.066(4) 0.090(5) -0.021(4) 0.053(4) -0.014(3)
O3 0.027 0.045 0.079 -0.003 0.028 -0.005
O4 0.027 0.035 0.052 0 0.029 -0.003
O5 0.026 0.069 0.045 -0.008 0.029 -0.002
O6 0.035 0.046 0.049 -0.006 0.026 -0.003
O7 0.067(5) 0.080(6) 0.058(4) -0.001(4) 0.008(4) -0.033(4)
O8 0.071(5) 0.084(6) 0.076(5) 0.020(5) 0.036(4) 0.034(5)
N1 0.026(3) 0.057(5) 0.056(4) -0.003(4) 0.028(3) -0.002(3)
C1 0.028(4) 0.061(6) 0.050(5) 0.016(5) 0.023(4) -0.006(4)
C2 0.029(4) 0.061(6) 0.064(6) 0.005(5) 0.029(4) -0.002(4)
C3 0.031(4) 0.067(7) 0.053(5) -0.002(5) 0.027(4) -0.001(4)
C4 0.035(4) 0.055(6) 0.068(6) -0.002(5) 0.033(4) -0.006(4)
C5 0.031(4) 0.052(5) 0.061(5) 0.002(5) 0.032(4) 0.002(4)
C6 0.049(6) 0.060(7) 0.098(9) 0.008(6) 0.048(6) -0.001(5)
C7 0.050(6) 0.060(7) 0.101(9) 0.001(6) 0.050(6) -0.002(5)
C8 0.030(4) 0.057(6) 0.056(5) 0.007(5) 0.029(4) 0.003(4)
C9 0.032 0.043 0.059 -0.001 0.035 -0.001
C10 0.025 0.04 0.057 0.002 0.025 -0.003
C11 0.027 0.035 0.057 0.002 0.028 0.003
C12 0.025 0.05 0.053 0.003 0.027 -0.001
C13 0.026 0.051 0.049 -0.006 0.023 -0.006
C14 0.023 0.044 0.047 0.002 0.023 0
C15 0.029 0.037 0.052 0.005 0.026 0.004
C16 0.028 0.048 0.035 -0.001 0.017 -0.002
C17 0.25(3) 0.26(3) 0.099(14) -0.017(18) 0.065(17) -0.12(2)
Nd1B 0.0208 0.0378 0.0472 0.0016 0.02308 -0.00091
Nd1D 0.0208 0.0378 0.0472 0.0016 0.02308 -0.00091
Nd1G 0.0208 0.0378 0.0472 -0.0016 0.02308 0.00091
Nd1A 0.0208 0.0378 0.0472 -0.0016 0.02308 0.00091
O3B 0.027 0.045 0.079 -0.003 0.028 -0.005
O4B 0.027 0.035 0.052 0 0.029 -0.003
O4D 0.027 0.035 0.052 0 0.029 -0.003
O5G 0.026 0.069 0.045 0.008 0.029 0.002
O6A 0.035 0.046 0.049 0.006 0.026 0.003
O9 0.035(3) 0.061(5) 0.122(7) -0.004(5) 0.023(4) -0.004(3)
loop_
_geom_bond_atom_site_label_1
_geom_bond_atom_site_label_2
_geom_bond_site_symmetry_1
_geom_bond_site_symmetry_2
Nd1 O1 1_555 1_555
O1 C1 1_555 1_555
O2 Nd1 1_555 1_555
O3 C9 1_555 1_555
O4 C9 1_555 1_555
O5 C16 1_555 1_555
O6 C16 1_555 1_555
O7 Nd1 1_555 1_555
O8 Nd1 1_555 1_555
N1 C8 1_555 1_555
C1 O2 1_555 1_555
C2 C1 1_555 1_555
C3 C2 1_555 1_555
H1 C3 1_555 1_555
C4 C3 1_555 1_555
H2 C4 1_555 1_555
C5 C4 1_555 1_555
C6 C5 1_555 1_555
H3 C6 1_555 1_555
C7 C2 1_555 1_555
H4 C7 1_555 1_555
C8 C5 1_555 1_555
C9 C10 1_555 1_555
C10 C11 1_555 1_555
C11 H5 1_555 1_555
C12 N1 1_555 1_555
C13 C12 1_555 1_555
H6 C13 1_555 1_555
C14 C13 1_555 1_555
C15 C10 1_555 1_555
H7 C15 1_555 1_555
C16 C14 1_555 1_555
C17 O7 1_555 1_555
H8 C17 1_555 1_555
H9 C17 1_555 1_555
H10 C17 1_555 1_555
H11 C8 1_555 1_555
Nd1B O3 1_555 1_555
Nd1D O4 1_555 1_555
Nd1G O5 1_555 1_555
Nd1A O6 1_555 1_555
O3B Nd1 1_555 1_555
O4B Nd1 1_555 1_555
O4D Nd1 1_555 1_555
O5G Nd1 1_555 1_555
O6A Nd1 1_555 1_555
O4 Nd1B 1_555 1_555
C6 C7 1_555 1_555
C11 C12 1_555 1_555
C14 C15 1_555 1_555

#END
