
#######################################################################
#
#                 Cambridge Crystallographic Data Centre
#                                CCDC 
#
#######################################################################
#
# If this CIF has been generated from an entry in the Cambridge 
# Structural Database, then it will include bibliographic, chemical, 
# crystal, experimental, refinement or atomic coordinate data resulting 
# from the CCDC's data processing and validation procedures.
#
#######################################################################

data_GEDREO
_chemical_formula_moiety         '(C21 H20 N7 Nd1 O8)n'
_symmetry_cell_setting           monoclinic
_symmetry_space_group_name_H-M   'C 2/c'
_symmetry_Int_Tables_number      15
_space_group_name_Hall           '-C 2yc'
loop_
_symmetry_equiv_pos_site_id
_symmetry_equiv_pos_as_xyz
1 x,y,z
2 -x,y,1/2-z
3 1/2+x,1/2+y,z
4 1/2-x,1/2+y,1/2-z
5 -x,-y,-z
6 x,-y,1/2+z
7 1/2-x,1/2-y,-z
8 1/2+x,1/2-y,1/2+z
_cell_length_a                   29.8458(10)
_cell_length_b                   12.5843(5)
_cell_length_c                   14.1180(5)
_cell_angle_alpha                90
_cell_angle_beta                 95.627(3)
_cell_angle_gamma                90
_cell_volume                     5277.01
loop_
_atom_site_label
_atom_site_type_symbol
_atom_site_fract_x
_atom_site_fract_y
_atom_site_fract_z
_atom_site_U_iso_or_equiv
_atom_site_thermal_displace_type
Nd1 Nd 0.314202(8) -0.198675(19) 0.538731(17) 0.0097 Uani
O1 O 0.38470(12) -0.1387(3) 0.4702(3) 0.0199 Uani
O2 O 0.37642(14) -0.3123(3) 0.4835(3) 0.0198 Uani
O3 O 0.72860(11) -0.6376(3) 0.4809(2) 0.0116 Uani
O4 O 0.78518(12) -0.5280(3) 0.4668(2) 0.0162 Uani
O5 O 0.76710(12) -0.3098(2) 0.1701(2) 0.0132 Uani
O6 O 0.70196(12) -0.2254(3) 0.1347(2) 0.0148 Uani
O7 O 0.35998(13) -0.2785(3) 0.6748(3) 0.0191 Uani
N1 N 0.59610(15) -0.3946(3) 0.3565(3) 0.0198 Uani
N2 N 0.34562(15) -0.0399(3) 0.6410(3) 0.0169 Uani
N3 N 0.34405(17) 0.0758(4) 0.7580(3) 0.0228 Uani
C1 C 0.39926(19) -0.2319(4) 0.4626(4) 0.0180 Uani
C2 C 0.44505(19) -0.2493(5) 0.4299(4) 0.0220 Uani
C3 C 0.4584(2) -0.3497(5) 0.4062(5) 0.0332 Uani
H1 H 0.4384 -0.4061 0.4076 0.0400 Uiso
C4 C 0.5010(2) -0.3677(5) 0.3803(5) 0.0332 Uani
H2 H 0.5092 -0.4359 0.3633 0.0400 Uiso
C5 C 0.5320(2) -0.2855(5) 0.3793(4) 0.0249 Uani
C6 C 0.5180(2) -0.1846(5) 0.4009(5) 0.0282 Uani
H3 H 0.5379 -0.1282 0.3981 0.0340 Uiso
C7 C 0.47515(19) -0.1646(5) 0.4267(4) 0.0251 Uani
H4 H 0.4666 -0.0960 0.4416 0.0300 Uiso
C8 C 0.5789(2) -0.3024(5) 0.3605(4) 0.0268 Uani
C9 C 0.74437(17) -0.5528(4) 0.4485(3) 0.0145 Uani
C10 C 0.71477(17) -0.4798(4) 0.3871(3) 0.0127 Uani
C11 C 0.66890(17) -0.4743(4) 0.3968(3) 0.0146 Uani
H5 H 0.6562 -0.5178 0.4403 0.0170 Uiso
C12 C 0.64192(17) -0.4027(4) 0.3404(3) 0.0147 Uani
C13 C 0.66102(17) -0.3452(4) 0.2699(3) 0.0129 Uani
H6 H 0.6428 -0.3015 0.2293 0.0160 Uiso
C14 C 0.70618(17) -0.3519(4) 0.2594(3) 0.0121 Uani
C15 C 0.73381(17) -0.4180(4) 0.3195(3) 0.0129 Uani
H7 H 0.7646 -0.4208 0.3145 0.0150 Uiso
C16 C 0.72718(19) -0.2921(4) 0.1825(4) 0.0123 Uani
C17 C 0.3200(2) 0.0257(4) 0.6850(4) 0.0205 Uani
H8 H 0.2894 0.0360 0.6681 0.0250 Uiso
C18 C 0.3873(2) 0.0403(4) 0.7599(4) 0.0258 Uani
H9 H 0.4117 0.0603 0.8023 0.0310 Uiso
C19 C 0.38747(19) -0.0306(5) 0.6871(4) 0.0238 Uani
H10 H 0.4127 -0.0675 0.6713 0.0280 Uiso
H12 H 0.597(2) -0.242(6) 0.355(5) 0.0360 Uiso
Nd1B Nd 0.814202(8) -0.698675(19) 0.538731(17) 0.0097 Uani
Nd1D Nd 0.685798(8) -0.801325(19) 0.461269(17) 0.0097 Uani
Nd1G Nd 0.814202(8) -0.301325(19) 0.038731(17) 0.0097 Uani
Nd1A Nd 0.685798(8) -0.198675(19) -0.038731(17) 0.0097 Uani
O3B O 0.22860(11) -0.1376(3) 0.4809(2) 0.0116 Uani
O3D O 0.27140(11) -0.3624(3) 0.5191(2) 0.0116 Uani
O4B O 0.28518(12) -0.0280(3) 0.4668(2) 0.0162 Uani
O5G O 0.26710(12) -0.1902(2) 0.6701(2) 0.0132 Uani
O6A O 0.29804(12) -0.2254(3) 0.3653(2) 0.0148 Uani
O8 O 0.06464(17) 0.8981(4) 0.3482(5) 0.0675 Uani
N4 N 0.20139(19) 0.7264(4) 0.0332(4) 0.0335 Uani
N5 N 0.1557(2) 0.7842(4) 0.1340(4) 0.0366 Uani
N6 N 0.1926(3) 0.8487(6) 0.1321(5) 0.0626 Uani
N7 N 0.13457(19) 0.6248(4) 0.0448(4) 0.0408 Uani
C20 C 0.2216(2) 0.8162(4) 0.0743(4) 0.0221 Uani
H11 H 0.2491 0.8463 0.0636 0.0270 Uiso
C21 C 0.1633(2) 0.7077(5) 0.0706(4) 0.0300 Uani
loop_
_atom_site_aniso_label
_atom_site_aniso_U_11
_atom_site_aniso_U_22
_atom_site_aniso_U_33
_atom_site_aniso_U_23
_atom_site_aniso_U_13
_atom_site_aniso_U_12
Nd1 0.0041(2) 0.0108(2) 0.0144(2) -0.00016(9) 0.00206(13) 0.00028(9)
O1 0.011 0.0188 0.031 -0.0036 0.0075 -0.0022
O2 0.015 0.018 0.027 0.0018 0.0056 0.0085
O3 0.0069 0.0097 0.0185 0.0027 0.0022 0.0013
O4 0.007 0.0148 0.0263 0.0031 -0.0008 0.0005
O5 0.003 0.0199 0.0171 0.0035 0.0035 0.0004
O6 0.011 0.0142 0.0191 0.0043 0.0013 0.0043
O7 0.013(2) 0.0222(19) 0.022(2) 0.0023(16) 0.0009(16) 0.0043(16)
N1 0.01 0.026 0.024 0.0062 0.0046 0.005
N2 0.013(3) 0.017(2) 0.021(2) -0.0026(18) 0.0034(18) -0.0007(19)
N3 0.028(3) 0.019(2) 0.022(2) 0.0016(19) 0.006(2) -0.002(2)
C1 0.014 0.022 0.018 -0.003 0.002 0.003
C2 0.015 0.028 0.023 0.002 0.002 0.004
C3 0.014 0.033 0.053 -0.012 0.006 0.004
C4 0.012 0.033 0.056 -0.011 0.01 0.002
C5 0.009 0.035 0.032 -0.001 0.008 0.005
C6 0.012 0.034 0.039 0.003 0.004 0.002
C7 0.013 0.024 0.039 0.006 0.006 0.007
C8 0.019 0.036 0.026 0.003 0.005 -0.004
C9 0.013 0.016 0.014 -0.003 -0.001 0.001
C10 0.01 0.012 0.016 0.0021 0.0009 -0.002
C11 0.011 0.016 0.018 0 0.007 0
C12 0.009 0.015 0.021 -0.003 0.006 -0.001
C13 0.007 0.014 0.018 0 0.002 0.006
C14 0.012 0.01 0.015 -0.0054 0.0048 -0.002
C15 0.009 0.015 0.015 -0.0028 0.0024 0.003
C16 0.013 0.012 0.012 -0.0056 0.002 -0.004
C17 0.018(3) 0.021(3) 0.023(3) -0.001(2) 0.004(2) -0.005(2)
C18 0.022(4) 0.022(3) 0.031(3) -0.005(2) -0.009(2) -0.002(2)
C19 0.005(3) 0.031(3) 0.036(3) 0.000(3) 0.005(2) 0.001(2)
Nd1B 0.0041 0.0108 0.0144 -0.00016 0.00206 0.00028
Nd1D 0.0041 0.0108 0.0144 -0.00016 0.00206 0.00028
Nd1G 0.0041 0.0108 0.0144 0.00016 0.00206 -0.00028
Nd1A 0.0041 0.0108 0.0144 0.00016 0.00206 -0.00028
O3B 0.0069(18) 0.0097(16) 0.0185(17) 0.0027(14) 0.0022(13) 0.0013(14)
O3D 0.0069 0.0097 0.0185 0.0027 0.0022 0.0013
O4B 0.007(2) 0.0148(18) 0.0263(19) 0.0031(15) -0.0008(15) 0.0005(14)
O5G 0.003 0.0199 0.0171 -0.0035 0.0035 -0.0004
O6A 0.011 0.0142 0.0191 -0.0043 0.0013 -0.0043
O8 0.024(3) 0.033(3) 0.147(6) 0.020(3) 0.016(3) 0.009(2)
N4 0.032(4) 0.040(3) 0.029(3) 0.008(2) 0.005(2) 0.012(3)
N5 0.033(4) 0.043(3) 0.036(3) -0.009(2) 0.014(3) -0.004(3)
N6 0.059(5) 0.072(5) 0.058(4) 0.015(4) 0.012(4) 0.000(4)
N7 0.032(4) 0.037(3) 0.053(4) -0.008(3) 0.002(3) 0.007(3)
C20 0.018(4) 0.029(3) 0.021(3) 0.006(2) 0.010(2) 0.005(2)
C21 0.027(4) 0.036(4) 0.028(3) 0.009(3) 0.007(3) 0.013(3)
loop_
_geom_bond_atom_site_label_1
_geom_bond_atom_site_label_2
_geom_bond_site_symmetry_1
_geom_bond_site_symmetry_2
Nd1 O1 1_555 1_555
O1 C1 1_555 1_555
O2 Nd1 1_555 1_555
O3 C9 1_555 1_555
O4 C9 1_555 1_555
O5 C16 1_555 1_555
O6 C16 1_555 1_555
O7 Nd1 1_555 1_555
N1 C8 1_555 1_555
N2 Nd1 1_555 1_555
N3 C17 1_555 1_555
N4 C20 1_555 1_555
N5 N6 1_555 1_555
N6 C20 1_555 1_555
N7 C21 1_555 1_555
C1 O2 1_555 1_555
C2 C1 1_555 1_555
C3 C2 1_555 1_555
H1 C3 1_555 1_555
C4 C3 1_555 1_555
H2 C4 1_555 1_555
C5 C4 1_555 1_555
C6 C5 1_555 1_555
H3 C6 1_555 1_555
C7 C2 1_555 1_555
H4 C7 1_555 1_555
C8 C5 1_555 1_555
C9 C10 1_555 1_555
C10 C11 1_555 1_555
C11 H5 1_555 1_555
C12 N1 1_555 1_555
C13 C12 1_555 1_555
H6 C13 1_555 1_555
C14 C13 1_555 1_555
C15 C10 1_555 1_555
H7 C15 1_555 1_555
C16 C14 1_555 1_555
C17 N2 1_555 1_555
H8 C17 1_555 1_555
C18 N3 1_555 1_555
H9 C18 1_555 1_555
C19 N2 1_555 1_555
H10 C19 1_555 1_555
C20 H11 1_555 1_555
C21 N4 1_555 1_555
H12 C8 1_555 1_555
Nd1B O3 1_555 1_555
Nd1D O3 1_555 1_555
Nd1G O5 1_555 1_555
Nd1A O6 1_555 1_555
O3B Nd1 1_555 1_555
O3D Nd1 1_555 1_555
O4B Nd1 1_555 1_555
O5G Nd1 1_555 1_555
O6A Nd1 1_555 1_555
O4 Nd1B 1_555 1_555
N5 C21 1_555 1_555
C6 C7 1_555 1_555
C11 C12 1_555 1_555
C14 C15 1_555 1_555
C18 C19 1_555 1_555

#END
