
#######################################################################
#
#                 Cambridge Crystallographic Data Centre
#                                CCDC 
#
#######################################################################
#
# If this CIF has been generated from an entry in the Cambridge 
# Structural Database, then it will include bibliographic, chemical, 
# crystal, experimental, refinement or atomic coordinate data resulting 
# from the CCDC's data processing and validation procedures.
#
#######################################################################

data_GEDRUE
_chemical_formula_moiety         '(C24 H26 N1 Nd1 O9)n'
_symmetry_cell_setting           monoclinic
_symmetry_space_group_name_H-M   'C 2/c'
_symmetry_Int_Tables_number      15
_space_group_name_Hall           '-C 2yc'
loop_
_symmetry_equiv_pos_site_id
_symmetry_equiv_pos_as_xyz
1 x,y,z
2 -x,y,1/2-z
3 1/2+x,1/2+y,z
4 1/2-x,1/2+y,1/2-z
5 -x,-y,-z
6 x,-y,1/2+z
7 1/2-x,1/2-y,-z
8 1/2+x,1/2-y,1/2+z
_cell_length_a                   28.8320(18)
_cell_length_b                   14.3769(10)
_cell_length_c                   13.2474(10)
_cell_angle_alpha                90
_cell_angle_beta                 100.622(7)
_cell_angle_gamma                90
_cell_volume                     5397.15
loop_
_atom_site_label
_atom_site_type_symbol
_atom_site_fract_x
_atom_site_fract_y
_atom_site_fract_z
_atom_site_U_iso_or_equiv
_atom_site_thermal_displace_type
Nd1 Nd 0.818565(11) 0.28727(2) 0.54668(3) 0.0168 Uani
N1 N 1.09704(18) 0.0780(4) 0.3500(4) 0.0232 Uani
O1 O 0.88136(16) 0.1773(4) 0.5114(4) 0.0336 Uani
O2 O 0.89145(16) 0.3256(4) 0.4787(4) 0.0345 Uani
O3 O 1.29412(15) -0.0662(3) 0.4543(4) 0.0294 Uani
O4 O 1.23164(14) -0.1525(3) 0.4619(3) 0.0206 Uani
O5 O 1.20142(15) 0.2408(3) 0.1314(3) 0.0231 Uani
O6 O 1.27125(15) 0.1702(4) 0.1731(4) 0.0288 Uani
O7 O 0.8657(2) 0.4068(5) 0.6620(5) 0.0700 Uani
O8 O 0.8564(2) 0.2068(5) 0.7119(5) 0.0604 Uani
C1 C 0.9041(2) 0.2409(5) 0.4793(6) 0.0253 Uani
C2 C 0.9479(2) 0.2181(5) 0.4389(6) 0.0271 Uani
C3 C 0.9765(3) 0.2886(5) 0.4120(7) 0.0396 Uani
H1 H 0.9670 0.3503 0.4141 0.0470 Uiso
C4 C 1.0186(3) 0.2680(6) 0.3824(7) 0.0394 Uani
H2 H 1.0377 0.3159 0.3662 0.0470 Uiso
C5 C 1.0329(2) 0.1768(5) 0.3764(6) 0.0275 Uani
C6 C 1.0036(2) 0.1057(5) 0.3997(6) 0.0291 Uani
H3 H 1.0123 0.0439 0.3936 0.0350 Uiso
C7 C 0.9621(2) 0.1263(5) 0.4314(6) 0.0305 Uani
H4 H 0.9432 0.0784 0.4481 0.0370 Uiso
C8 C 1.0791(2) 0.1582(6) 0.3511(5) 0.0279 Uani
H5 H 1.094(3) 0.212(6) 0.341(6) 0.0400 Uiso
C9 C 1.2498(2) -0.0801(5) 0.4335(5) 0.0251 Uani
C10 C 1.2191(2) -0.0066(5) 0.3748(5) 0.0191 Uani
C11 C 1.1720(2) 0.0010(5) 0.3841(5) 0.0234 Uani
H6 H 1.1592 -0.0408 0.4250 0.0280 Uiso
C12 C 1.1439(2) 0.0713(5) 0.3320(5) 0.0195 Uani
C13 C 1.1623(2) 0.1274(5) 0.2642(5) 0.0222 Uani
H7 H 1.1432 0.1712 0.2252 0.0260 Uiso
C14 C 1.2091(2) 0.1188(5) 0.2538(5) 0.0192 Uani
C15 C 1.2373(2) 0.0537(5) 0.3100(5) 0.0209 Uani
H8 H 1.2690 0.0498 0.3048 0.0250 Uiso
C16 C 1.2288(2) 0.1822(5) 0.1799(5) 0.0224 Uani
C17 C 0.9049(4) 0.1761(10) 0.7412(10) 0.0941 Uani
H9 H 0.9107 0.1244 0.6981 0.1130 Uiso
H10 H 0.9261 0.2264 0.7314 0.1130 Uiso
C18 C 0.9141(7) 0.1476(13) 0.8474(12) 0.1470 Uani
H11 H 0.9261 0.1990 0.8919 0.1760 Uiso
H12 H 0.9367 0.0969 0.8585 0.1760 Uiso
C19 C 0.8663(6) 0.1162(10) 0.8673(10) 0.1195 Uani
H13 H 0.8643 0.1226 0.9392 0.1430 Uiso
H14 H 0.8598 0.0523 0.8461 0.1430 Uiso
C20 C 0.8317(5) 0.1859(9) 0.7979(8) 0.0870 Uani
H15 H 0.8013 0.1571 0.7731 0.1040 Uiso
H16 H 0.8270 0.2420 0.8355 0.1040 Uiso
Nd1B Nd 1.318565(11) -0.21273(2) 0.54668(3) 0.0168 Uani
Nd1D Nd 1.181435(11) -0.28727(2) 0.45332(3) 0.0168 Uani
Nd1A Nd 1.181435(11) 0.28727(2) -0.04668(3) 0.0168 Uani
Nd1G Nd 1.318565(11) 0.21273(2) 0.04668(3) 0.0168 Uani
O3B O 0.79412(15) 0.4338(3) 0.4543(4) 0.0294 Uani
O4B O 0.73164(14) 0.3475(3) 0.4619(3) 0.0206 Uani
O4D O 0.76836(14) 0.1525(3) 0.5381(3) 0.0206 Uani
O5A O 0.79858(15) 0.2408(3) 0.3686(3) 0.0231 Uani
O6G O 0.77125(15) 0.3298(4) 0.6731(4) 0.0288 Uani
O9 O 0.8696(6) 0.5909(13) 0.6356(16) 0.2332 Uani
C21 C 0.8352(8) 0.607(2) 0.7010(17) 0.2307 Uani
H17 H 0.8459 0.6554 0.7515 0.2770 Uiso
H18 H 0.8288 0.5511 0.7362 0.2770 Uiso
C22 C 0.7922(8) 0.639(2) 0.6257(19) 0.2339 Uani
H19 H 0.7728 0.5848 0.6041 0.2810 Uiso
H20 H 0.7740 0.6801 0.6613 0.2810 Uiso
C23 C 0.8017(9) 0.6881(18) 0.531(2) 0.2203 Uani
H21 H 0.7789 0.6740 0.4695 0.2640 Uiso
H22 H 0.8059 0.7548 0.5399 0.2640 Uiso
C24 C 0.8471(9) 0.635(2) 0.5399(18) 0.2411 Uani
H23 H 0.8419 0.5866 0.4881 0.2890 Uiso
H24 H 0.8701 0.6774 0.5203 0.2890 Uiso
loop_
_atom_site_aniso_label
_atom_site_aniso_U_11
_atom_site_aniso_U_22
_atom_site_aniso_U_33
_atom_site_aniso_U_23
_atom_site_aniso_U_13
_atom_site_aniso_U_12
Nd1 0.0115(2) 0.0198(2) 0.0206(2) -0.00140(16) 0.00706(14) 0.00087(15)
N1 0.018(3) 0.029(3) 0.025(3) 0.002(3) 0.010(2) 0.006(3)
O1 0.026(3) 0.030(3) 0.050(3) 0.009(3) 0.021(2) 0.008(2)
O2 0.026(3) 0.029(3) 0.054(3) -0.004(3) 0.022(3) -0.003(2)
O3 0.018 0.02 0.052 0.005 0.011 -0.001
O4 0.019 0.015 0.03 0.005 0.01 0.0035
O5 0.024 0.026 0.022 0.008 0.011 0.006
O6 0.019 0.044 0.026 0.007 0.011 0.001
O7 0.044(3) 0.100(6) 0.070(5) -0.039(4) 0.021(3) -0.026(4)
O8 0.059(4) 0.082(5) 0.035(3) 0.004(3) -0.005(3) 0.026(4)
C1 0.012(3) 0.033(4) 0.031(4) 0.000(3) 0.004(3) -0.003(3)
C2 0.016(3) 0.037(4) 0.030(4) -0.001(3) 0.009(3) 0.000(3)
C3 0.032(4) 0.024(4) 0.071(6) 0.007(4) 0.031(4) 0.003(3)
C4 0.027(4) 0.042(5) 0.054(5) 0.009(4) 0.020(4) 0.002(4)
C5 0.022(4) 0.033(4) 0.030(4) 0.009(3) 0.011(3) 0.008(3)
C6 0.030(4) 0.024(4) 0.036(4) 0.001(3) 0.013(3) 0.008(3)
C7 0.021(3) 0.030(4) 0.044(5) 0.005(4) 0.015(3) 0.001(3)
C8 0.024(4) 0.036(5) 0.028(4) 0.003(4) 0.016(3) -0.002(4)
C9 0.022 0.024 0.033 -0.002 0.015 0.005
C10 0.015 0.016 0.027 -0.006 0.006 -0.001
C11 0.019(3) 0.023(4) 0.032(4) 0.006(3) 0.015(3) 0.002(3)
C12 0.014(3) 0.025(4) 0.021(3) 0.002(3) 0.007(3) 0.001(3)
C13 0.022(3) 0.023(4) 0.023(4) 0.006(3) 0.008(3) 0.008(3)
C14 0.019 0.023 0.018 0.002 0.01 0.005
C15 0.013 0.025 0.027 -0.001 0.01 -0.001
C16 0.02 0.026 0.023 -0.002 0.009 -0.004
C17 0.075(8) 0.110(11) 0.084(9) -0.021(8) -0.020(7) 0.012(8)
C18 0.195(17) 0.113(13) 0.092(11) 0.036(10) -0.081(12) 0.005(13)
C19 0.193(16) 0.082(10) 0.059(8) -0.020(8) -0.041(10) 0.021(11)
C20 0.149(12) 0.068(8) 0.034(6) 0.000(6) -0.009(7) -0.006(8)
Nd1B 0.0115 0.0198 0.0206 -0.0014 0.00706 0.00087
Nd1D 0.0115 0.0198 0.0206 -0.0014 0.00706 0.00087
Nd1A 0.0115 0.0198 0.0206 0.0014 0.00706 -0.00087
Nd1G 0.0115 0.0198 0.0206 0.0014 0.00706 -0.00087
O3B 0.018 0.02 0.052 0.005 0.011 -0.001
O4B 0.019 0.015 0.03 0.005 0.01 0.0035
O4D 0.019 0.015 0.03 0.005 0.01 0.0035
O5A 0.024 0.026 0.022 -0.008 0.011 -0.006
O6G 0.019 0.044 0.026 -0.007 0.011 -0.001
O9 0.229(8) 0.237(9) 0.237(8) 0.001(5) 0.052(5) -0.004(5)
C21 0.235(12) 0.232(12) 0.230(12) -0.005(5) 0.056(5) -0.002(5)
C22 0.237(13) 0.232(13) 0.233(13) -0.003(5) 0.044(5) -0.004(5)
C23 0.223(12) 0.218(12) 0.218(12) -0.006(5) 0.036(5) -0.005(5)
C24 0.241(13) 0.241(13) 0.240(13) 0.000(5) 0.041(5) -0.006(5)
loop_
_geom_bond_atom_site_label_1
_geom_bond_atom_site_label_2
_geom_bond_site_symmetry_1
_geom_bond_site_symmetry_2
Nd1 O1 1_555 1_555
N1 C8 1_555 1_555
O1 C1 1_555 1_555
O2 Nd1 1_555 1_555
O3 C9 1_555 1_555
O4 C9 1_555 1_555
O5 C16 1_555 1_555
O6 C16 1_555 1_555
O7 Nd1 1_555 1_555
O8 Nd1 1_555 1_555
O9 C21 1_555 1_555
C1 O2 1_555 1_555
C2 C1 1_555 1_555
C3 C2 1_555 1_555
H1 C3 1_555 1_555
C4 C3 1_555 1_555
H2 C4 1_555 1_555
C5 C4 1_555 1_555
C6 C5 1_555 1_555
H3 C6 1_555 1_555
C7 C2 1_555 1_555
H4 C7 1_555 1_555
C8 C5 1_555 1_555
H5 C8 1_555 1_555
C9 C10 1_555 1_555
C10 C11 1_555 1_555
C11 H6 1_555 1_555
C12 N1 1_555 1_555
C13 C12 1_555 1_555
H7 C13 1_555 1_555
C14 C13 1_555 1_555
C15 C10 1_555 1_555
H8 C15 1_555 1_555
C16 C14 1_555 1_555
C17 O8 1_555 1_555
H9 C17 1_555 1_555
H10 C17 1_555 1_555
C18 C17 1_555 1_555
H11 C18 1_555 1_555
H12 C18 1_555 1_555
C19 C18 1_555 1_555
H13 C19 1_555 1_555
H14 C19 1_555 1_555
C20 O8 1_555 1_555
H15 C20 1_555 1_555
H16 C20 1_555 1_555
C21 H17 1_555 1_555
H18 C21 1_555 1_555
C22 C21 1_555 1_555
H19 C22 1_555 1_555
H20 C22 1_555 1_555
C23 C22 1_555 1_555
H21 C23 1_555 1_555
H22 C23 1_555 1_555
C24 O9 1_555 1_555
H23 C24 1_555 1_555
H24 C24 1_555 1_555
Nd1B O3 1_555 1_555
Nd1D O4 1_555 1_555
Nd1A O5 1_555 1_555
Nd1G O6 1_555 1_555
O3B Nd1 1_555 1_555
O4B Nd1 1_555 1_555
O4D Nd1 1_555 1_555
O5A Nd1 1_555 1_555
O6G Nd1 1_555 1_555
O4 Nd1B 1_555 1_555
C6 C7 1_555 1_555
C11 C12 1_555 1_555
C14 C15 1_555 1_555
C19 C20 1_555 1_555
C23 C24 1_555 1_555

#END
