
#######################################################################
#
#                 Cambridge Crystallographic Data Centre
#                                CCDC 
#
#######################################################################
#
# If this CIF has been generated from an entry in the Cambridge 
# Structural Database, then it will include bibliographic, chemical, 
# crystal, experimental, refinement or atomic coordinate data resulting 
# from the CCDC's data processing and validation procedures.
#
#######################################################################

data_GEDSIT
_chemical_formula_moiety         '(C21 H16 N3 Nd1 O7)n'
_symmetry_cell_setting           monoclinic
_symmetry_space_group_name_H-M   'C 2/c'
_symmetry_Int_Tables_number      15
_space_group_name_Hall           '-C 2yc'
loop_
_symmetry_equiv_pos_site_id
_symmetry_equiv_pos_as_xyz
1 x,y,z
2 -x,y,1/2-z
3 1/2+x,1/2+y,z
4 1/2-x,1/2+y,1/2-z
5 -x,-y,-z
6 x,-y,1/2+z
7 1/2-x,1/2-y,-z
8 1/2+x,1/2-y,1/2+z
_cell_length_a                   29.0425(10)
_cell_length_b                   13.7951(6)
_cell_length_c                   13.0814(6)
_cell_angle_alpha                90
_cell_angle_beta                 100.785(4)
_cell_angle_gamma                90
_cell_volume                     5148.41
loop_
_atom_site_label
_atom_site_type_symbol
_atom_site_fract_x
_atom_site_fract_y
_atom_site_fract_z
_atom_site_U_iso_or_equiv
_atom_site_thermal_displace_type
Nd1 Nd 0.316580(12) 0.29026(3) 0.55163(3) 0.0262 Uani
O1 O 0.38929(18) 0.3324(4) 0.4875(5) 0.0449 Uani
O2 O 0.37838(19) 0.1759(4) 0.5102(5) 0.0448 Uani
O3 O 0.73097(15) -0.1461(3) 0.4728(4) 0.0313 Uani
O4 O 0.79246(16) -0.0506(3) 0.4713(4) 0.0336 Uani
O5 O 0.77089(19) 0.1973(5) 0.1879(5) 0.0490 Uani
O6 O 0.69949(18) 0.2629(4) 0.1346(4) 0.0395 Uani
O7 O 0.3664(3) 0.2235(5) 0.7141(6) 0.0672 Uani
N1 N 0.5953(2) 0.0875(5) 0.3507(6) 0.0449 Uani
N2 N 0.3521(3) 0.4221(6) 0.6829(7) 0.0643 Uani
N3 N 0.3618(4) 0.5341(9) 0.8160(7) 0.0847 Uani
C1 C 0.4019(3) 0.2446(6) 0.4840(6) 0.0357 Uani
C2 C 0.4460(3) 0.2237(5) 0.4437(6) 0.0338 Uani
C3 C 0.4720(3) 0.2987(6) 0.4130(7) 0.0414 Uani
H1 H 0.4612 0.3621 0.4133 0.0500 Uiso
C4 C 0.5141(3) 0.2795(6) 0.3819(8) 0.0452 Uani
H2 H 0.5312 0.3302 0.3606 0.0540 Uiso
C5 C 0.5309(3) 0.1862(6) 0.3822(7) 0.0418 Uani
C6 C 0.5037(3) 0.1108(7) 0.4061(8) 0.0599 Uani
H3 H 0.5139 0.0473 0.4016 0.0720 Uiso
C7 C 0.4608(3) 0.1285(7) 0.4369(8) 0.0537 Uani
H4 H 0.4425 0.0773 0.4526 0.0640 Uiso
C8 C 0.5778(3) 0.1706(7) 0.3559(7) 0.0406 Uani
C9 C 0.7487(2) -0.0663(5) 0.4462(6) 0.0304 Uani
C10 C 0.7183(2) 0.0051(5) 0.3857(6) 0.0288 Uani
C11 C 0.6706(3) 0.0100(5) 0.3891(7) 0.0383 Uani
H5 H 0.6576 -0.0355 0.4279 0.0460 Uiso
C12 C 0.6419(3) 0.0825(6) 0.3349(6) 0.0359 Uani
C13 C 0.6610(2) 0.1434(6) 0.2701(6) 0.0374 Uani
H6 H 0.6419 0.1890 0.2306 0.0450 Uiso
C14 C 0.7082(2) 0.1385(6) 0.2621(6) 0.0318 Uani
C15 C 0.7371(2) 0.0719(5) 0.3224(6) 0.0337 Uani
H7 H 0.7691 0.0712 0.3212 0.0410 Uiso
C16 C 0.7273(3) 0.2055(6) 0.1909(6) 0.0382 Uani
C17 C 0.3730(4) 0.3831(9) 0.7853(9) 0.0673 Uani
C18 C 0.3795(4) 0.4507(8) 0.8636(9) 0.0639 Uani
C19 C 0.3440(5) 0.5132(10) 0.7108(10) 0.0841 Uani
H8 H 0.3280 0.5585 0.6647 0.1010 Uiso
C20 C 0.3991(5) 0.4466(10) 0.9707(11) 0.1016 Uani
H9 H 0.3979 0.5098 1.0009 0.1520 Uiso
H10 H 0.4311 0.4258 0.9795 0.1520 Uiso
H11 H 0.3817 0.4016 1.0045 0.1520 Uiso
C21 C 0.3814(5) 0.2798(11) 0.7950(13) 0.0985 Uani
H12 H 0.353(4) 0.162(7) 0.743(10) 0.1180 Uiso
H13 H 0.363(5) 0.593(7) 0.869(8) 0.1180 Uiso
H14 H 0.597(3) 0.231(6) 0.336(6) 0.0400 Uiso
Nd1B Nd 0.816580(12) -0.20974(3) 0.55163(3) 0.0262 Uani
Nd1D Nd 0.683420(12) -0.29026(3) 0.44837(3) 0.0262 Uani
Nd1G Nd 0.816580(12) 0.20974(3) 0.05163(3) 0.0262 Uani
Nd1A Nd 0.683420(12) 0.29026(3) -0.05163(3) 0.0262 Uani
O3B O 0.23097(15) 0.3539(3) 0.4728(4) 0.0313 Uani
O3D O 0.26903(15) 0.1461(3) 0.5272(4) 0.0313 Uani
O4B O 0.29246(16) 0.4494(3) 0.4713(4) 0.0336 Uani
O5G O 0.27089(19) 0.3027(5) 0.6879(5) 0.0490 Uani
O6A O 0.30051(18) 0.2629(4) 0.3654(4) 0.0395 Uani
loop_
_atom_site_aniso_label
_atom_site_aniso_U_11
_atom_site_aniso_U_22
_atom_site_aniso_U_33
_atom_site_aniso_U_23
_atom_site_aniso_U_13
_atom_site_aniso_U_12
Nd1 0.0182(2) 0.0247(2) 0.0409(3) -0.00184(18) 0.01886(16) 0.00220(16)
O1 0.028(3) 0.035(3) 0.081(4) -0.014(3) 0.034(3) 0.000(2)
O2 0.032(3) 0.035(3) 0.079(4) 0.014(3) 0.040(3) 0.010(3)
O3 0.021 0.027 0.05 -0.001 0.017 0.005
O4 0.025 0.025 0.057 0.002 0.024 0.003
O5 0.026 0.082 0.045 0.025 0.022 0.005
O6 0.025 0.052 0.046 0.009 0.018 0.003
O7 0.084(5) 0.067(5) 0.051(4) -0.012(4) 0.014(4) 0.022(4)
N1 0.027(3) 0.046(4) 0.072(5) 0.025(4) 0.036(3) 0.016(3)
N2 0.049(5) 0.049(5) 0.089(7) -0.023(5) -0.002(4) -0.008(4)
N3 0.083(7) 0.116(9) 0.058(6) -0.028(6) 0.021(5) -0.024(7)
C1 0.023(4) 0.041(4) 0.049(5) 0.004(4) 0.022(4) 0.012(4)
C2 0.021(4) 0.036(4) 0.048(5) 0.006(3) 0.016(3) 0.006(3)
C3 0.035(4) 0.028(4) 0.068(6) 0.000(4) 0.027(4) 0.004(3)
C4 0.032(4) 0.042(5) 0.070(6) 0.006(4) 0.031(4) -0.005(4)
C5 0.031(4) 0.043(5) 0.059(5) 0.015(4) 0.028(4) 0.010(4)
C6 0.048(5) 0.045(5) 0.104(8) 0.033(5) 0.059(6) 0.026(4)
C7 0.033(4) 0.048(5) 0.093(7) 0.025(5) 0.045(5) 0.015(4)
C8 0.030(4) 0.041(5) 0.058(5) 0.010(4) 0.027(4) 0.002(4)
C9 0.027 0.028 0.043 -0.001 0.024 0.001
C10 0.019 0.026 0.047 -0.008 0.021 0.001
C11 0.029(4) 0.029(4) 0.067(6) 0.014(4) 0.035(4) 0.005(3)
C12 0.024(4) 0.037(4) 0.054(5) 0.009(4) 0.026(4) 0.003(3)
C13 0.022(4) 0.046(5) 0.048(5) 0.012(4) 0.016(3) 0.006(3)
C14 0.022 0.041 0.038 0.003 0.02 0.007
C15 0.024 0.04 0.045 0.003 0.027 0.001
C16 0.026 0.053 0.042 0.005 0.023 -0.008
C17 0.056(6) 0.076(8) 0.069(7) -0.014(6) 0.009(5) 0.012(6)
C18 0.061(7) 0.061(7) 0.068(7) -0.010(6) 0.008(5) 0.002(5)
C19 0.090(9) 0.095(10) 0.073(8) -0.011(7) 0.030(7) -0.008(7)
C20 0.104(11) 0.078(9) 0.116(12) -0.030(8) 0.003(9) 0.025(8)
C21 0.083(10) 0.092(10) 0.120(13) -0.013(9) 0.018(9) 0.027(8)
Nd1B 0.0182 0.0247 0.0409 -0.00184 0.01886 0.0022
Nd1D 0.0182 0.0247 0.0409 -0.00184 0.01886 0.0022
Nd1G 0.0182 0.0247 0.0409 0.00184 0.01886 -0.0022
Nd1A 0.0182 0.0247 0.0409 0.00184 0.01886 -0.0022
O3B 0.021 0.027 0.05 -0.001 0.017 0.005
O3D 0.021 0.027 0.05 -0.001 0.017 0.005
O4B 0.025 0.025 0.057 0.002 0.024 0.003
O5G 0.026 0.082 0.045 -0.025 0.022 -0.005
O6A 0.025 0.052 0.046 -0.009 0.018 -0.003
loop_
_geom_bond_atom_site_label_1
_geom_bond_atom_site_label_2
_geom_bond_site_symmetry_1
_geom_bond_site_symmetry_2
Nd1 O1 1_555 1_555
O1 C1 1_555 1_555
O2 Nd1 1_555 1_555
O3 C9 1_555 1_555
O4 C9 1_555 1_555
O5 C16 1_555 1_555
O6 C16 1_555 1_555
O7 Nd1 1_555 1_555
N1 C8 1_555 1_555
N2 Nd1 1_555 1_555
N3 C18 1_555 1_555
C1 O2 1_555 1_555
C2 C1 1_555 1_555
C3 C2 1_555 1_555
H1 C3 1_555 1_555
C4 C3 1_555 1_555
H2 C4 1_555 1_555
C5 C4 1_555 1_555
C6 C5 1_555 1_555
H3 C6 1_555 1_555
C7 C2 1_555 1_555
H4 C7 1_555 1_555
C8 C5 1_555 1_555
C9 C10 1_555 1_555
C10 C11 1_555 1_555
C11 H5 1_555 1_555
C12 N1 1_555 1_555
C13 C12 1_555 1_555
H6 C13 1_555 1_555
C14 C13 1_555 1_555
C15 C10 1_555 1_555
H7 C15 1_555 1_555
C16 C14 1_555 1_555
C17 N2 1_555 1_555
C18 C17 1_555 1_555
C19 N2 1_555 1_555
H8 C19 1_555 1_555
C20 C18 1_555 1_555
H9 C20 1_555 1_555
H10 C20 1_555 1_555
H11 C20 1_555 1_555
C21 O7 1_555 1_555
H12 O7 1_555 1_555
H13 N3 1_555 1_555
H14 C8 1_555 1_555
Nd1B O3 1_555 1_555
Nd1D O3 1_555 1_555
Nd1G O5 1_555 1_555
Nd1A O6 1_555 1_555
O3B Nd1 1_555 1_555
O3D Nd1 1_555 1_555
O4B Nd1 1_555 1_555
O5G Nd1 1_555 1_555
O6A Nd1 1_555 1_555
O4 Nd1B 1_555 1_555
N3 C19 1_555 1_555
C6 C7 1_555 1_555
C11 C12 1_555 1_555
C14 C15 1_555 1_555
C17 C21 1_555 1_555

#END
