
#######################################################################
#
#                 Cambridge Crystallographic Data Centre
#                                CCDC 
#
#######################################################################
#
# If this CIF has been generated from an entry in the Cambridge 
# Structural Database, then it will include bibliographic, chemical, 
# crystal, experimental, refinement or atomic coordinate data resulting 
# from the CCDC's data processing and validation procedures.
#
#######################################################################

data_GEDSOZ
_chemical_formula_moiety         '(C22 H24 N1 Nd1 O10 S2)n'
_symmetry_cell_setting           monoclinic
_symmetry_space_group_name_H-M   'C 2/c'
_symmetry_Int_Tables_number      15
_space_group_name_Hall           '-C 2yc'
loop_
_symmetry_equiv_pos_site_id
_symmetry_equiv_pos_as_xyz
1 x,y,z
2 -x,y,1/2-z
3 1/2+x,1/2+y,z
4 1/2-x,1/2+y,1/2-z
5 -x,-y,-z
6 x,-y,1/2+z
7 1/2-x,1/2-y,-z
8 1/2+x,1/2-y,1/2+z
_cell_length_a                   29.16760(11)
_cell_length_b                   14.4488(6)
_cell_length_c                   13.0926(5)
_cell_angle_alpha                90
_cell_angle_beta                 98.748(4)
_cell_angle_gamma                90
_cell_volume                     5453.52
loop_
_atom_site_label
_atom_site_type_symbol
_atom_site_fract_x
_atom_site_fract_y
_atom_site_fract_z
_atom_site_U_iso_or_equiv
_atom_site_thermal_displace_type
Nd1 Nd 0.316094(10) 0.29266(2) 0.54413(2) 0.0121 Uani
S1 S 0.29113(17) 0.6627(3) 0.5831(3) 0.1025 Uani
S2 S 0.3996(4) 0.0756(6) 0.8614(7) 0.2688 Uani
N1 N 0.59556(19) 0.0786(5) 0.3577(4) 0.0266 Uani
O1 O 0.38336(18) 0.1918(4) 0.5266(4) 0.0331 Uani
O2 O 0.38706(16) 0.3314(4) 0.4604(4) 0.0244 Uani
O3 O 0.72942(14) -0.1550(4) 0.4572(3) 0.0180 Uani
O4 O 0.78958(14) -0.0649(4) 0.4527(4) 0.0222 Uani
O5 O 0.76758(15) 0.1689(4) 0.1701(3) 0.0203 Uani
O6 O 0.69925(15) 0.2391(4) 0.1316(3) 0.0179 Uani
O7 O 0.35899(19) 0.4184(5) 0.6478(4) 0.0396 Uani
O8 O 0.3547(2) 0.2281(5) 0.7168(4) 0.0392 Uani
O9 O 0.3936(4) 0.5589(11) 0.7916(9) 0.1576 Uani
H1 H 0.3759 0.5598 0.8348 0.2370 Uiso
O10 O 0.3814(8) 0.3786(13) 0.8537(9) 0.2606 Uani
H2 H 0.3884 0.3756 0.7955 0.3900 Uiso
C1 C 0.4034(2) 0.2499(6) 0.4775(5) 0.0217 Uani
C2 C 0.4473(2) 0.2243(6) 0.4417(5) 0.0242 Uani
C3 C 0.4617(3) 0.1341(6) 0.4425(6) 0.0336 Uani
H3 H 0.4431 0.0885 0.4649 0.0400 Uiso
C4 C 0.5030(2) 0.1085(6) 0.4113(6) 0.0348 Uani
H4 H 0.5117 0.0465 0.4112 0.0420 Uiso
C5 C 0.5319(2) 0.1781(6) 0.3796(6) 0.0288 Uani
C6 C 0.5175(3) 0.2694(7) 0.3801(8) 0.0478 Uani
H5 H 0.5364 0.3158 0.3603 0.0570 Uiso
C7 C 0.4753(3) 0.2926(6) 0.4099(7) 0.0420 Uani
H6 H 0.4658 0.3541 0.4085 0.0500 Uiso
C8 C 0.5781(3) 0.1556(7) 0.3547(6) 0.0293 Uani
C9 C 0.7470(2) -0.0806(5) 0.4328(5) 0.0141 Uani
C10 C 0.7163(2) -0.0045(5) 0.3784(5) 0.0163 Uani
C11 C 0.6697(2) -0.0001(5) 0.3891(5) 0.0183 Uani
H7 H 0.6571 -0.0434 0.4295 0.0220 Uiso
C12 C 0.6418(2) 0.0699(5) 0.3387(5) 0.0193 Uani
C13 C 0.6607(2) 0.1282(5) 0.2693(5) 0.0180 Uani
H8 H 0.6420 0.1721 0.2314 0.0220 Uiso
C14 C 0.7068(2) 0.1206(6) 0.2575(5) 0.0174 Uani
C15 C 0.7346(2) 0.0547(5) 0.3133(5) 0.0153 Uani
H9 H 0.7658 0.0506 0.3068 0.0190 Uiso
C16 C 0.7260(2) 0.1802(5) 0.1809(5) 0.0155 Uani
C17 C 0.3761(5) 0.5079(12) 0.6189(12) 0.1035 Uani
H10 H 0.4089 0.5035 0.6139 0.1240 Uiso
H11 H 0.3597 0.5265 0.5520 0.1240 Uiso
C18 C 0.3691(5) 0.5761(11) 0.6958(10) 0.0876 Uani
H12 H 0.3813 0.6344 0.6728 0.1050 Uiso
C19 C 0.3201(5) 0.5932(10) 0.7007(10) 0.0943 Uani
H13 H 0.3173 0.6271 0.7634 0.1130 Uiso
H14 H 0.3042 0.5345 0.7034 0.1130 Uiso
C20 C 0.3458(5) 0.2323(14) 0.8246(10) 0.0979 Uani
H15 H 0.3151 0.2601 0.8237 0.1170 Uiso
C21 C 0.3789(8) 0.2877(12) 0.8945(11) 0.1289 Uani
H16 H 0.3691 0.2908 0.9620 0.1570 Uiso
H17 H 0.4093 0.2589 0.9025 0.1570 Uiso
C22 C 0.3437(6) 0.1317(13) 0.8678(11) 0.1125 Uani
H18 H 0.3189 0.0973 0.8269 0.1350 Uiso
H19 H 0.3378 0.1335 0.9387 0.1350 Uiso
H20 H 0.592(3) 0.204(5) 0.340(6) 0.0120 Uiso
Nd1B Nd 0.816094(10) -0.20734(2) 0.54413(2) 0.0121 Uani
Nd1D Nd 0.683906(10) -0.29266(2) 0.45587(2) 0.0121 Uani
Nd1G Nd 0.816094(10) 0.20734(2) 0.04413(2) 0.0121 Uani
Nd1A Nd 0.683906(10) 0.29266(2) -0.04413(2) 0.0121 Uani
O3B O 0.22942(14) 0.3450(4) 0.4572(3) 0.0180 Uani
O3D O 0.27058(14) 0.1550(4) 0.5428(3) 0.0180 Uani
O4B O 0.28958(14) 0.4351(4) 0.4527(4) 0.0222 Uani
O5G O 0.26758(15) 0.3311(4) 0.6701(3) 0.0203 Uani
O6A O 0.30075(15) 0.2391(4) 0.3684(3) 0.0179 Uani
loop_
_atom_site_aniso_label
_atom_site_aniso_U_11
_atom_site_aniso_U_22
_atom_site_aniso_U_33
_atom_site_aniso_U_23
_atom_site_aniso_U_13
_atom_site_aniso_U_12
Nd1 0.0083(2) 0.0130(2) 0.0159(2) -0.00068(15) 0.00465(14) 0.00146(14)
S1 0.139(4) 0.066(3) 0.097(3) -0.025(2) 0.000(2) 0.003(3)
S2 0.377(13) 0.148(8) 0.219(7) -0.043(6) -0.155(8) 0.111(8)
N1 0.014 0.035 0.034 0.01 0.014 0.006
O1 0.023(3) 0.027(3) 0.054(3) 0.020(3) 0.021(3) 0.014(3)
O2 0.018(2) 0.019(3) 0.039(3) -0.001(2) 0.013(2) 0.001(2)
O3 0.015 0.014 0.027 0.003 0.0098 0.004
O4 0.009 0.02 0.038 0.004 0.0049 0.001
O5 0.014 0.029 0.02 0.007 0.0096 0.002
O6 0.013 0.02 0.022 0.002 0.0072 0.003
O7 0.040(3) 0.044(4) 0.036(3) -0.014(3) 0.010(2) -0.022(3)
O8 0.044(3) 0.046(4) 0.026(3) 0.002(3) 0.000(2) 0.006(3)
O9 0.098(8) 0.222(18) 0.148(10) -0.122(11) 0.003(7) -0.011(9)
O10 0.54(3) 0.139(15) 0.078(7) 0.044(9) -0.033(12) -0.109(18)
C1 0.012(3) 0.034(5) 0.020(3) 0.000(3) 0.005(3) 0.008(3)
C2 0.011(3) 0.036(5) 0.027(4) 0.001(4) 0.007(3) 0.002(3)
C3 0.027(4) 0.024(5) 0.056(5) 0.003(4) 0.026(4) 0.004(4)
C4 0.019(3) 0.028(5) 0.059(5) 0.002(4) 0.011(3) 0.006(4)
C5 0.021(4) 0.034(5) 0.033(4) 0.009(4) 0.009(3) 0.000(4)
C6 0.032(5) 0.037(6) 0.082(7) 0.029(5) 0.033(5) 0.012(5)
C7 0.033(5) 0.031(5) 0.068(6) 0.014(5) 0.027(4) 0.014(4)
C8 0.024(4) 0.031(5) 0.036(4) 0.012(4) 0.015(3) 0.009(4)
C9 0.018 0.008 0.018 -0.002 0.008 0.005
C10 0.012 0.018 0.019 -0.003 0.003 0.001
C11 0.019 0.013 0.024 -0.001 0.007 0.001
C12 0.013 0.025 0.022 0.004 0.009 0.001
C13 0.016 0.018 0.021 0.007 0.006 0.006
C14 0.014 0.024 0.015 -0.001 0.005 -0.001
C15 0.011 0.017 0.02 -0.004 0.009 0
C16 0.013 0.018 0.016 -0.005 0.004 -0.002
C17 0.097(10) 0.096(12) 0.130(12) -0.066(11) 0.057(9) -0.049(10)
C18 0.103(10) 0.063(9) 0.091(9) -0.011(8) -0.004(8) -0.014(9)
C19 0.142(12) 0.065(9) 0.095(9) 0.012(8) 0.079(9) 0.011(9)
C20 0.092(10) 0.134(16) 0.064(8) 0.030(9) 0.000(7) 0.033(11)
C21 0.24(2) 0.065(11) 0.061(8) -0.012(8) -0.044(11) -0.026(12)
C22 0.158(15) 0.095(13) 0.071(8) 0.032(9) -0.026(9) -0.038(12)
Nd1B 0.0083 0.013 0.0159 -0.00068 0.00465 0.00146
Nd1D 0.0083 0.013 0.0159 -0.00068 0.00465 0.00146
Nd1G 0.0083 0.013 0.0159 0.00068 0.00465 -0.00146
Nd1A 0.0083 0.013 0.0159 0.00068 0.00465 -0.00146
O3B 0.015 0.014 0.027 0.003 0.0098 0.004
O3D 0.015 0.014 0.027 0.003 0.0098 0.004
O4B 0.009 0.02 0.038 0.004 0.0049 0.001
O5G 0.014 0.029 0.02 -0.007 0.0096 -0.002
O6A 0.013 0.02 0.022 -0.002 0.0072 -0.003
loop_
_geom_bond_atom_site_label_1
_geom_bond_atom_site_label_2
_geom_bond_site_symmetry_1
_geom_bond_site_symmetry_2
Nd1 O1 1_555 1_555
S1 C19 1_555 1_555
S2 C22 1_555 1_555
N1 C8 1_555 1_555
O1 C1 1_555 1_555
O2 Nd1 1_555 1_555
O3 C9 1_555 1_555
O4 C9 1_555 1_555
O5 C16 1_555 1_555
O6 C16 1_555 1_555
O7 Nd1 1_555 1_555
O8 Nd1 1_555 1_555
O9 H1 1_555 1_555
O10 H2 1_555 1_555
C1 O2 1_555 1_555
C2 C1 1_555 1_555
C3 C2 1_555 1_555
H3 C3 1_555 1_555
C4 C3 1_555 1_555
H4 C4 1_555 1_555
C5 C4 1_555 1_555
C6 C5 1_555 1_555
H5 C6 1_555 1_555
C7 C2 1_555 1_555
H6 C7 1_555 1_555
C8 C5 1_555 1_555
C9 C10 1_555 1_555
C10 C11 1_555 1_555
C11 H7 1_555 1_555
C12 N1 1_555 1_555
C13 C12 1_555 1_555
H8 C13 1_555 1_555
C14 C13 1_555 1_555
C15 C10 1_555 1_555
H9 C15 1_555 1_555
C16 C14 1_555 1_555
C17 O7 1_555 1_555
H10 C17 1_555 1_555
H11 C17 1_555 1_555
C18 O9 1_555 1_555
H12 C18 1_555 1_555
C19 C18 1_555 1_555
H13 C19 1_555 1_555
H14 C19 1_555 1_555
C20 O8 1_555 1_555
H15 C20 1_555 1_555
C21 O10 1_555 1_555
H16 C21 1_555 1_555
H17 C21 1_555 1_555
C22 C20 1_555 1_555
H18 C22 1_555 1_555
H19 C22 1_555 1_555
H20 C8 1_555 1_555
Nd1B O3 1_555 1_555
Nd1D O3 1_555 1_555
Nd1G O5 1_555 1_555
Nd1A O6 1_555 1_555
O3B Nd1 1_555 1_555
O3D Nd1 1_555 1_555
O4B Nd1 1_555 1_555
O5G Nd1 1_555 1_555
O6A Nd1 1_555 1_555
O4 Nd1B 1_555 1_555
C6 C7 1_555 1_555
C11 C12 1_555 1_555
C14 C15 1_555 1_555
C17 C18 1_555 1_555
C20 C21 1_555 1_555

#END
