
#######################################################################
#
#                 Cambridge Crystallographic Data Centre
#                                CCDC 
#
#######################################################################
#
# If this CIF has been generated from an entry in the Cambridge 
# Structural Database, then it will include bibliographic, chemical, 
# crystal, experimental, refinement or atomic coordinate data resulting 
# from the CCDC's data processing and validation procedures.
#
#######################################################################

data_GEDTAM
_chemical_formula_moiety         '(C19 H17 N2 Nd1 O8)n'
_symmetry_cell_setting           monoclinic
_symmetry_space_group_name_H-M   'C 2/c'
_symmetry_Int_Tables_number      15
_space_group_name_Hall           '-C 2yc'
loop_
_symmetry_equiv_pos_site_id
_symmetry_equiv_pos_as_xyz
1 x,y,z
2 -x,y,1/2-z
3 1/2+x,1/2+y,z
4 1/2-x,1/2+y,1/2-z
5 -x,-y,-z
6 x,-y,1/2+z
7 1/2-x,1/2-y,-z
8 1/2+x,1/2-y,1/2+z
_cell_length_a                   28.894(2)
_cell_length_b                   14.2731(14)
_cell_length_c                   13.645(2)
_cell_angle_alpha                90
_cell_angle_beta                 100.055(10)
_cell_angle_gamma                90
_cell_volume                     5540.86
loop_
_atom_site_label
_atom_site_type_symbol
_atom_site_fract_x
_atom_site_fract_y
_atom_site_fract_z
_atom_site_U_iso_or_equiv
_atom_site_thermal_displace_type
Nd1 Nd 0.182055(11) 0.21246(3) 0.95661(3) 0.0479 Uani
N1 N -0.0985(2) 0.4171(5) 1.1491(5) 0.0646 Uani
N2 N 0.1193(8) 0.3816(12) 0.6736(13) 0.2301 Uani
O1 O 0.1078(2) 0.1774(5) 1.0172(6) 0.0895 Uani
O2 O 0.11916(19) 0.3276(4) 0.9937(5) 0.0786 Uani
O3 O -0.29418(16) 0.5661(4) 1.0520(4) 0.0643 Uani
O4 O -0.23179(15) 0.6512(3) 1.0392(4) 0.0544 Uani
O5 O -0.27139(18) 0.3315(5) 1.3308(4) 0.0781 Uani
O6 O -0.20113(19) 0.2607(4) 1.3714(4) 0.0642 Uani
O7 O 0.1423(4) 0.2832(5) 0.8022(7) 0.1181 Uani
O9 O 0.1438(7) 0.0673(13) 0.8712(14) 0.1056 Uani
C1 C 0.0953(3) 0.2602(8) 1.0210(7) 0.0663 Uani
C2 C 0.0507(3) 0.2832(6) 1.0576(7) 0.0673 Uani
C3 C 0.0223(4) 0.2124(6) 1.0835(11) 0.1082 Uani
H1 H 0.0324 0.1506 1.0827 0.1300 Uiso
C4 C -0.0205(4) 0.2315(7) 1.1106(11) 0.1127 Uani
H2 H -0.0401 0.1826 1.1219 0.1360 Uiso
C5 C -0.0337(3) 0.3195(6) 1.1205(7) 0.0731 Uani
C6 C -0.0065(3) 0.3927(7) 1.0951(7) 0.0817 Uani
H3 H -0.0166 0.4544 1.0981 0.0980 Uiso
C7 C 0.0362(3) 0.3728(7) 1.0649(8) 0.0846 Uani
H4 H 0.0550 0.4217 1.0497 0.1010 Uiso
C8 C -0.0815(3) 0.3389(8) 1.1452(8) 0.0816 Uani
H5 H -0.099(3) 0.285(4) 1.113(7) 0.0980 Uiso
C9 C -0.2501(2) 0.5782(5) 1.0707(6) 0.0535 Uani
C10 C -0.2199(2) 0.5049(5) 1.1271(6) 0.0530 Uani
C11 C -0.1723(2) 0.4968(5) 1.1188(6) 0.0583 Uani
H6 H -0.1592 0.5388 1.0793 0.0700 Uiso
C12 C -0.1451(2) 0.4266(5) 1.1692(6) 0.0588 Uani
C13 C -0.1632(2) 0.3714(5) 1.2367(6) 0.0551 Uani
H7 H -0.1437 0.3287 1.2754 0.0660 Uiso
C14 C -0.2105(2) 0.3787(5) 1.2478(5) 0.0542 Uani
C15 C -0.2382(2) 0.4453(5) 1.1924(5) 0.0529 Uani
H8 H -0.2697 0.4507 1.1984 0.0630 Uiso
C16 C -0.2284(3) 0.3195(6) 1.3212(6) 0.0608 Uani
C17 C 0.1559(9) 0.3153(17) 0.7325(17) 0.2233 Uani
C18 C 0.0668(10) 0.3871(18) 0.698(2) 0.2721 Uani
H9 H 0.0615 0.3343 0.7386 0.4080 Uiso
H10 H 0.0444 0.3863 0.6375 0.4080 Uiso
H11 H 0.0633 0.4440 0.7339 0.4080 Uiso
C19 C 0.1412(6) 0.4253(10) 0.6021(11) 0.2285 Uani
H12 H 0.1687 0.3907 0.5942 0.3430 Uiso
H13 H 0.1499 0.4880 0.6233 0.3430 Uiso
H14 H 0.1198 0.4274 0.5398 0.3430 Uiso
Nd1B Nd -0.317945(11) 0.71246(3) 0.95661(3) 0.0479 Uani
Nd1D Nd -0.182055(11) 0.78754(3) 1.04339(3) 0.0479 Uani
Nd1G Nd -0.317945(11) 0.28754(3) 1.45661(3) 0.0479 Uani
Nd1A Nd -0.182055(11) 0.21246(3) 1.54339(3) 0.0479 Uani
O3B O 0.20582(16) 0.0661(4) 1.0520(4) 0.0643 Uani
O4B O 0.26821(15) 0.1512(3) 1.0392(4) 0.0544 Uani
O4D O 0.23179(15) 0.3488(3) 0.9608(4) 0.0544 Uani
O5G O 0.22861(18) 0.1685(5) 0.8308(4) 0.0781 Uani
O6A O 0.20113(19) 0.2607(4) 1.1286(4) 0.0642 Uani
loop_
_atom_site_aniso_label
_atom_site_aniso_U_11
_atom_site_aniso_U_22
_atom_site_aniso_U_33
_atom_site_aniso_U_23
_atom_site_aniso_U_13
_atom_site_aniso_U_12
Nd1 0.0263(2) 0.0589(3) 0.0633(3) -0.00257(18) 0.02078(19) 0.00092(15)
N1 0.041(3) 0.082(5) 0.079(5) 0.020(4) 0.033(3) 0.024(3)
N2 0.284(13) 0.209(14) 0.196(14) 0.053(11) 0.038(12) 0.024(12)
O1 0.049(3) 0.078(4) 0.157(7) -0.004(4) 0.061(4) -0.003(3)
O2 0.043(3) 0.089(4) 0.115(5) 0.022(4) 0.045(3) 0.017(3)
O3 0.038 0.061 0.1 0.01 0.029 0.004
O4 0.037 0.054 0.078 0.004 0.026 0.001
O5 0.038 0.122 0.08 0.035 0.026 0.009
O6 0.045 0.086 0.067 0.02 0.025 0.009
O7 0.117(7) 0.135(7) 0.092(6) -0.009(4) -0.010(5) 0.024(5)
O9 0.101(8) 0.106(8) 0.109(9) 0.013(5) 0.016(5) -0.012(4)
C1 0.033(4) 0.102(7) 0.069(5) 0.003(5) 0.023(4) 0.001(4)
C2 0.047(5) 0.080(6) 0.081(6) 0.012(4) 0.028(4) 0.012(4)
C3 0.065(6) 0.084(7) 0.198(14) 0.006(7) 0.085(8) -0.005(5)
C4 0.073(7) 0.083(7) 0.202(14) 0.032(7) 0.079(9) 0.012(5)
C5 0.065(5) 0.066(5) 0.098(7) 0.014(5) 0.041(5) 0.013(5)
C6 0.049(5) 0.092(6) 0.112(8) 0.027(6) 0.036(5) 0.015(4)
C7 0.046(5) 0.091(7) 0.125(8) 0.013(6) 0.038(5) 0.010(5)
C8 0.057(5) 0.099(8) 0.098(7) 0.017(6) 0.039(5) 0.003(5)
C9 0.038 0.053 0.075 0.006 0.025 0.008
C10 0.035 0.066 0.065 0.002 0.028 0.006
C11 0.038 0.063 0.084 0.018 0.039 0.01
C12 0.039 0.072 0.072 0.006 0.028 0.008
C13 0.044 0.067 0.061 0.008 0.028 0.009
C14 0.039 0.072 0.058 0 0.026 0.006
C15 0.035 0.071 0.057 -0.011 0.02 -0.007
C16 0.044 0.078 0.069 0.011 0.034 0
C17 0.229(8) 0.226(8) 0.216(8) 0.013(5) 0.042(5) -0.002(5)
C18 0.265(8) 0.275(10) 0.277(9) 0.000(5) 0.049(5) 0.003(5)
C19 0.236(8) 0.226(8) 0.222(8) 0.008(5) 0.036(5) -0.002(5)
Nd1B 0.0263 0.0589 0.0633 -0.00257 0.02078 0.00092
Nd1D 0.0263 0.0589 0.0633 -0.00257 0.02078 0.00092
Nd1G 0.0263 0.0589 0.0633 0.00257 0.02078 -0.00092
Nd1A 0.0263 0.0589 0.0633 0.00257 0.02078 -0.00092
O3B 0.038 0.061 0.1 0.01 0.029 0.004
O4B 0.037 0.054 0.078 0.004 0.026 0.001
O4D 0.037 0.054 0.078 0.004 0.026 0.001
O5G 0.038 0.122 0.08 -0.035 0.026 -0.009
O6A 0.045 0.086 0.067 -0.02 0.025 -0.009
loop_
_geom_bond_atom_site_label_1
_geom_bond_atom_site_label_2
_geom_bond_site_symmetry_1
_geom_bond_site_symmetry_2
Nd1 O1 1_555 1_555
N1 C8 1_555 1_555
N2 C17 1_555 1_555
O1 C1 1_555 1_555
O2 Nd1 1_555 1_555
O3 C9 1_555 1_555
O4 C9 1_555 1_555
O5 C16 1_555 1_555
O6 C16 1_555 1_555
O7 Nd1 1_555 1_555
O9 Nd1 1_555 1_555
C1 O2 1_555 1_555
C2 C1 1_555 1_555
C3 C2 1_555 1_555
H1 C3 1_555 1_555
C4 C3 1_555 1_555
H2 C4 1_555 1_555
C5 C4 1_555 1_555
C6 C5 1_555 1_555
H3 C6 1_555 1_555
C7 C2 1_555 1_555
H4 C7 1_555 1_555
C8 C5 1_555 1_555
H5 C8 1_555 1_555
C9 C10 1_555 1_555
C10 C11 1_555 1_555
C11 H6 1_555 1_555
C12 N1 1_555 1_555
C13 C12 1_555 1_555
H7 C13 1_555 1_555
C14 C13 1_555 1_555
C15 C10 1_555 1_555
H8 C15 1_555 1_555
C16 C14 1_555 1_555
C17 O7 1_555 1_555
C18 N2 1_555 1_555
H9 C18 1_555 1_555
H10 C18 1_555 1_555
H11 C18 1_555 1_555
C19 N2 1_555 1_555
H12 C19 1_555 1_555
H13 C19 1_555 1_555
H14 C19 1_555 1_555
Nd1B O3 1_555 1_555
Nd1D O4 1_555 1_555
Nd1G O5 1_555 1_555
Nd1A O6 1_555 1_555
O3B Nd1 1_555 1_555
O4B Nd1 1_555 1_555
O4D Nd1 1_555 1_555
O5G Nd1 1_555 1_555
O6A Nd1 1_555 1_555
O4 Nd1B 1_555 1_555
C6 C7 1_555 1_555
C11 C12 1_555 1_555
C14 C15 1_555 1_555

#END
