
#######################################################################
#
#                 Cambridge Crystallographic Data Centre
#                                CCDC 
#
#######################################################################
#
# If this CIF has been generated from an entry in the Cambridge 
# Structural Database, then it will include bibliographic, chemical, 
# crystal, experimental, refinement or atomic coordinate data resulting 
# from the CCDC's data processing and validation procedures.
#
#######################################################################

data_PURQEZ
_chemical_formula_moiety         '(C16 H26 O21 Zn2)n'
_symmetry_cell_setting           monoclinic
_symmetry_space_group_name_H-M   'P 2/n'
_symmetry_Int_Tables_number      13
_space_group_name_Hall           '-P 2yac'
loop_
_symmetry_equiv_pos_site_id
_symmetry_equiv_pos_as_xyz
1 x,y,z
2 1/2-x,y,1/2-z
3 -x,-y,-z
4 1/2+x,-y,1/2+z
_cell_length_a                   8.940(2)
_cell_length_b                   14.02(1)
_cell_length_c                   12.48(1)
_cell_angle_alpha                90
_cell_angle_beta                 91.73(4)
_cell_angle_gamma                90
_cell_volume                     1563.52
loop_
_atom_site_label
_atom_site_type_symbol
_atom_site_fract_x
_atom_site_fract_y
_atom_site_fract_z
Zn1 Zn 0.2500 -0.32633(12) -0.2500
O1 O 0.4152(9) -0.2454(6) -0.3031(7)
C1 C 0.3757(13) -0.1883(10) -0.3783(11)
Zn2 Zn 0.2500 -0.83874(12) -0.2500
C2 C 0.4895(12) -0.1175(9) -0.4185(10)
H1 H 0.5590 -0.1525 -0.4646
H2 H 0.5489 -0.0939 -0.3557
O2 O 0.1858(9) 0.0263(6) -0.4394(7)
C3 C 0.4318(11) -0.0313(8) -0.4810(9)
H3 H 0.3778 -0.0556 -0.5468
O3 O 0.3773(8) 0.0777(6) -0.3366(7)
C4 C 0.3188(11) 0.0267(7) -0.4168(9)
O4 O 0.1004(10) -0.7692(6) -0.3353(7)
C5 C 0.1461(15) -0.6872(10) -0.3849(9)
O5 O 0.2734(11) -0.6683(9) -0.3932(11)
C6 C 0.0154(13) -0.6284(10) -0.4336(10)
H4 H -0.0258 -0.6622 -0.4976
H5 H -0.0648 -0.6247 -0.3807
O6 O 0.2155(10) -0.4146(6) -0.3720(6)
C7 C 0.0584(11) -0.5277(8) -0.4658(10)
H6 H 0.1509 -0.5326 -0.5087
O7 O 0.0112(11) -0.4625(9) -0.2934(8)
C8 C 0.0958(13) -0.4672(9) -0.3705(10)
O8 O 0.2450(11) -0.1934(8) -0.4252(10)
Zn1B Zn 0.7500 0.32633(12) -0.7500
Zn1B_2 Zn -0.2500 -0.67367(12) -0.7500
O1B O 0.5848(9) 0.2454(6) -0.6969(7)
O1A O 0.0848(9) -0.2454(6) -0.1969(7)
C1B C 0.6243(13) 0.1883(10) -0.6217(11)
Zn2_2 Zn 0.2500 0.16126(12) -0.2500
Zn2B Zn 0.7500 -0.16126(12) -0.7500
Zn2B_2 Zn -0.2500 -0.16126(12) -0.7500
C2B C 0.5105(12) 0.1175(9) -0.5815(10)
H1B H 0.4410 0.1525 -0.5354
H2B H 0.4511 0.0939 -0.6443
O2B O 0.8142(9) -0.0263(6) -0.5606(7)
C3B C 0.5682(11) 0.0313(8) -0.5190(9)
H3B H 0.6222 0.0556 -0.4532
O3B O 0.6227(8) -0.0777(6) -0.6634(7)
O3_2 O 0.3773(8) -0.9223(6) -0.3366(7)
O3A O 0.1227(8) -0.9223(6) -0.1634(7)
C4B C 0.6812(11) -0.0267(7) -0.5832(9)
O4B O -0.1004(10) -0.2308(6) -0.6647(7)
O4A O 0.3996(10) -0.7692(6) -0.1647(7)
C5B C -0.1461(15) -0.3128(10) -0.6151(9)
O5B O -0.2734(11) -0.3317(9) -0.6068(11)
C6B C -0.0154(13) -0.3716(10) -0.5664(10)
H4B H 0.0258 -0.3378 -0.5024
H5B H 0.0648 -0.3753 -0.6193
O6B O -0.2155(10) -0.5854(6) -0.6280(6)
O6A O 0.2845(10) -0.4146(6) -0.1280(6)
C7B C -0.0584(11) -0.4723(8) -0.5342(10)
H6B H -0.1509 -0.4674 -0.4913
O7B O -0.0112(11) -0.5375(9) -0.7066(8)
C8B C -0.0958(13) -0.5328(9) -0.6295(10)
O8B O 0.7550(11) 0.1934(8) -0.5748(10)
O9 O 0.0487(6) -0.1173(5) -0.5278(5)
O10 O 0.3773(11) -0.0351(9) 0.1891(9)
O11 O 0.0674(12) 0.4883(10) -0.0977(9)
O12 O -0.0906(11) -0.1721(8) -0.3762(8)
O13 O -0.2500 0.5384(7) -0.2500
loop_
_geom_bond_atom_site_label_1
_geom_bond_atom_site_label_2
_geom_bond_site_symmetry_1
_geom_bond_site_symmetry_2
Zn1 O1 1_555 1_555
O1 C1 1_555 1_555
C1 C2 1_555 1_555
Zn2 O4 1_555 1_555
C2 H1 1_555 1_555
H2 C2 1_555 1_555
O2 C4 1_555 1_555
C3 C2 1_555 1_555
H3 C3 1_555 1_555
O3 C4 1_555 1_555
C4 C3 1_555 1_555
O4 C5 1_555 1_555
C5 O5 1_555 1_555
C6 C5 1_555 1_555
H4 C6 1_555 1_555
H5 C6 1_555 1_555
O6 Zn1 1_555 1_555
C7 C6 1_555 1_555
H6 C7 1_555 1_555
O7 C8 1_555 1_555
C8 O6 1_555 1_555
O8 C1 1_555 1_555
Zn1B O1B 1_555 1_555
Zn1B_2 O6B 1_555 1_555
O1B C1B 1_555 1_555
O1A Zn1 1_555 1_555
C1B C2B 1_555 1_555
Zn2_2 O3 1_555 1_555
Zn2B O3B 1_555 1_555
Zn2B_2 O4B 1_555 1_555
C2B H1B 1_555 1_555
H2B C2B 1_555 1_555
O2B C4B 1_555 1_555
C3B C3 1_555 1_555
H3B C3B 1_555 1_555
O3B C4B 1_555 1_555
O3_2 Zn2 1_555 1_555
O3A Zn2 1_555 1_555
C4B C3B 1_555 1_555
O4B C5B 1_555 1_555
O4A Zn2 1_555 1_555
C5B O5B 1_555 1_555
C6B C5B 1_555 1_555
H4B C6B 1_555 1_555
H5B C6B 1_555 1_555
O6B C8B 1_555 1_555
O6A Zn1 1_555 1_555
C7B C7 1_555 1_555
H6B C7B 1_555 1_555
O7B C8B 1_555 1_555
C8B C7B 1_555 1_555
O8B C1B 1_555 1_555
C7 C8 1_555 1_555
C2B C3B 1_555 1_555
C6B C7B 1_555 1_555

#END
