
#######################################################################
#
#                 Cambridge Crystallographic Data Centre
#                                CCDC 
#
#######################################################################
#
# If this CIF has been generated from an entry in the Cambridge 
# Structural Database, then it will include bibliographic, chemical, 
# crystal, experimental, refinement or atomic coordinate data resulting 
# from the CCDC's data processing and validation procedures.
#
#######################################################################

data_HAWGEU
_chemical_formula_moiety         '(C150 H100 Ce4 N14 O30)n'
_symmetry_cell_setting           monoclinic
_symmetry_space_group_name_H-M   'C 2/c'
_symmetry_Int_Tables_number      15
_space_group_name_Hall           '-C 2yc'
loop_
_symmetry_equiv_pos_site_id
_symmetry_equiv_pos_as_xyz
1 x,y,z
2 -x,y,1/2-z
3 1/2+x,1/2+y,z
4 1/2-x,1/2+y,1/2-z
5 -x,-y,-z
6 x,-y,1/2+z
7 1/2-x,1/2-y,-z
8 1/2+x,1/2-y,1/2+z
_cell_length_a                   20.755(5)
_cell_length_b                   23.572(6)
_cell_length_c                   30.642(8)
_cell_angle_alpha                90
_cell_angle_beta                 104.573(2)
_cell_angle_gamma                90
_cell_volume                     14508.9
loop_
_atom_site_label
_atom_site_type_symbol
_atom_site_fract_x
_atom_site_fract_y
_atom_site_fract_z
Ce1 Ce 0.41446(5) 0.72462(2) 0.19984(2)
Ce2 Ce 0.32971(5) 1.18946(2) 0.58621(2)
O1 O 0.3865(4) 0.2942(3) 0.6207(2)
O2 O 0.1708(5) 0.7078(2) 0.8330(2)
O3 O 0.4731(5) 0.7219(3) 0.2942(2)
O4 O 0.4531(4) 0.6312(2) 0.2243(2)
O5 O 0.4495(4) -0.1831(2) 0.2293(2)
O6 O 0.3107(4) 0.6688(3) 0.1794(2)
O7 O 0.2693(5) 0.6944(3) 0.8738(2)
O8 O 0.3681(5) 0.7154(3) 0.2645(3)
N1 N 0.5028(5) 0.2841(3) 0.2049(2)
N2 N 0.3373(5) 0.7518(3) 0.5260(3)
O9 O 0.2936(5) 0.2889(3) 0.5711(3)
N3 N 0.3208(5) 0.6331(3) 0.6119(2)
N4 N 0.3480(5) 0.6338(3) 0.5261(2)
N5 N 0.5087(5) 0.1629(3) 0.2059(3)
N6 N 0.3298(5) 0.7506(3) 0.6163(3)
C1 C 0.4015(7) 0.7072(3) 0.3410(3)
C2 C 0.5000 0.6071(5) 0.2500
C3 C 0.3434(6) 0.3755(4) 0.5842(3)
C4 C 0.2489(7) 0.6920(4) 0.7956(3)
C5 C 0.2314(7) 0.6988(3) 0.8376(3)
O10 O 0.4412(5) 1.1852(4) 0.6386(3)
C6 C 0.2275(7) 0.6781(4) 0.7174(3)
H1 H 0.1965 0.6696 0.6906
C7 C 0.2083(6) 0.6797(3) 0.7573(3)
H2 H 0.1642 0.6716 0.7566
C8 C 0.5000 -0.0959(5) 0.2500
C9 C 0.5000 0.4300(5) 0.2500
C10 C 0.4144(8) 0.7149(4) 0.2961(4)
C11 C 0.3407(6) 0.4891(3) 0.5718(3)
C12 C 0.5000 0.5461(5) 0.2500
C13 C 0.5112(6) 0.2748(4) 0.1635(3)
C14 C 0.5000 0.3688(5) 0.2500
C15 C 0.3046(6) 0.6396(3) 0.6513(3)
C16 C 0.4516(7) 0.7042(5) 0.3787(4)
H3 H 0.4957 0.7045 0.3770
C17 C 0.5397(7) 0.2224(4) 0.1031(4)
C18 C 0.5824(12) 0.2143(5) 0.0276(5)
C19 C 0.3747(7) 0.6977(4) 0.4223(3)
C20 C 0.3399(7) 0.3157(4) 0.5924(4)
C21 C 0.2909(6) 0.6887(4) 0.7174(3)
C22 C 0.5143(7) 0.3278(3) 0.1426(3)
H4 H 0.5206 0.3336 0.1140
O11 O 0.5747(7) 0.2142(4) -0.0477(3)
C23 C 0.4526(6) 0.5169(4) 0.2233(3)
H5 H 0.4178 0.5365 0.2042
O12 O 0.3626(7) 1.0993(3) 0.5586(4)
C24 C 0.3190(6) 0.5777(4) 0.6039(3)
C25 C 0.3573(7) 0.6951(4) 0.4662(3)
C26 C 0.3621(7) 0.6431(4) 0.4865(3)
C27 C 0.5205(6) 0.2237(3) 0.1456(3)
C28 C 0.3941(6) 0.4073(4) 0.6051(3)
H6 H 0.4309 0.3903 0.6243
C29 C 0.5008(6) 0.3404(3) 0.2102(3)
C30 C 0.3089(7) 0.6902(4) 0.6734(3)
C31 C 0.3254(6) 0.7397(4) 0.6588(3)
C32 C 0.2915(7) 0.3990(4) 0.5558(3)
H7 H 0.2563 0.3764 0.5404
C33 C 0.3376(7) 0.7914(4) 0.6830(4)
H8 H 0.3391 0.7964 0.7133
C34 C 0.2894(6) 0.5877(4) 0.6677(3)
H9 H 0.2756 0.5816 0.6940
C35 C 0.3140(8) 0.7001(5) 0.7960(3)
H10 H 0.3450 0.7064 0.8233
C36 C 0.5151(7) 0.1722(4) 0.1646(4)
C37 C 0.3373(6) 0.5518(4) 0.5688(3)
C38 C 0.3521(6) 0.5781(3) 0.5338(3)
C39 C 0.3384(7) 0.7045(5) 0.3440(3)
H11 H 0.3041 0.7059 0.3178
C40 C 0.5068(7) 0.3670(4) 0.1708(3)
H12 H 0.5056 0.4059 0.1655
C41 C 0.3331(7) 0.8956(4) 0.5737(5)
C42 C 0.5000 -0.1588(6) 0.2500
C43 C 0.5058(6) 0.1063(3) 0.2115(3)
C44 C 0.2984(6) 0.5478(4) 0.6382(3)
H13 H 0.2925 0.5088 0.6400
C45 C 0.2893(6) 0.4584(4) 0.5488(3)
H14 H 0.2532 0.4755 0.5289
N7 N 0.2239(8) 0.6227(5) 0.1911(4)
C46 C 0.5000 0.0799(5) 0.2500
C47 C 0.3327(6) 0.8338(4) 0.5721(4)
C48 C 0.5000 0.0183(5) 0.2500
C49 C 0.3409(6) 0.7451(4) 0.4837(3)
C50 C 0.3317(7) 0.7981(4) 0.4611(4)
H15 H 0.3330 0.8051 0.4314
C51 C 0.3296(7) 0.8076(4) 0.5317(4)
C52 C 0.4514(6) 0.4597(4) 0.2220(4)
H16 H 0.4171 0.4408 0.2019
C53 C 0.3461(7) 0.8304(5) 0.6551(4)
H17 H 0.3555 0.8684 0.6621
C54 C 0.3207(7) 0.8353(4) 0.4903(4)
H18 H 0.3091 0.8732 0.4845
C55 C 0.3935(7) 0.4651(4) 0.5991(3)
H19 H 0.4296 0.4870 0.6140
C56 C 0.5198(7) 0.1198(4) 0.1436(4)
H20 H 0.5266 0.1143 0.1150
C57 C 0.4438(6) -0.0687(4) 0.2266(4)
H21 H 0.4060 -0.0882 0.2112
C58 C 0.3233(7) 0.6998(4) 0.3842(4)
H22 H 0.2793 0.6980 0.3859
C59 C 0.3780(7) 0.5931(4) 0.4691(3)
H23 H 0.3921 0.5887 0.4428
C60 C 0.3696(7) 0.5519(4) 0.4966(3)
H24 H 0.3744 0.5132 0.4924
C61 C 0.3389(7) 0.8055(4) 0.6127(4)
C62 C 0.5128(7) 0.0801(4) 0.1720(4)
H25 H 0.5125 0.0412 0.1669
C63 C 0.4358(8) 0.7005(5) 0.4197(4)
H26 H 0.4699 0.7001 0.4461
C64 C 0.5162(11) 0.2219(6) 0.0243(5)
H27 H 0.4861 0.2253 -0.0037
O13 O 0.3144(9) 1.0955(3) 0.6133(5)
C65 C 0.6086(9) 0.2086(5) -0.0117(4)
O14 O 0.2246(7) 1.1864(7) 0.5314(4)
C66 C 0.6040(9) 0.2149(6) 0.1052(5)
H28 H 0.6345 0.2127 0.1331
C67 C 0.6258(11) 0.2104(6) 0.0669(6)
H29 H 0.673(8) 0.217(6) 0.060(5)
C68 C 0.3351(8) 1.0103(4) 0.5806(5)
C69 C 0.4471(7) -0.0110(4) 0.2273(4)
H30 H 0.4103 0.0091 0.2110
C70 C 0.3348(7) 0.6990(5) 0.7569(4)
H31 H 0.3794 0.7053 0.7578
O15 O 0.6665(10) 0.1989(9) -0.0086(4)
C71 C 0.2882(9) 0.9232(5) 0.5890(6)
H32 H 0.2549 0.9032 0.5978
C72 C 0.3305(11) 1.0737(5) 0.5827(6)
C73 C 0.2106(10) 0.5953(7) 0.1498(6)
H33 H 0.2125 0.6222 0.1266
H34 H 0.1671 0.5786 0.1435
H35 H 0.2432 0.5661 0.1506
C74 C 0.3784(8) 0.9256(5) 0.5584(5)
H36 H 0.4093 0.9064 0.5466
C75 C 0.2746(10) 0.6548(7) 0.2030(5)
C76 C 0.2900(10) 0.9798(5) 0.5919(7)
H37 H 0.2573 0.9981 0.6025
C77 C 0.4946(9) 0.2243(7) 0.0643(4)
H38 H 0.4496 0.2271 0.0633
C78 C 0.1791(10) 0.6169(8) 0.2209(5)
H39 H 0.1359 0.6313 0.2059
H40 H 0.1966 0.6381 0.2480
H41 H 0.1755 0.5777 0.2282
C79 C 0.3798(9) 0.9833(5) 0.5599(5)
H42 H 0.4093 1.0040 0.5477
O4A O 0.5469(4) 0.6312(2) 0.2757(2)
O5A O 0.5505(4) -0.1831(2) 0.2707(2)
N1A N 0.4972(5) 0.2841(3) 0.2951(2)
N5A N 0.4913(5) 0.1629(3) 0.2941(3)
C13A C 0.4888(6) 0.2748(4) 0.3365(3)
C17A C 0.4603(7) 0.2224(4) 0.3969(4)
C18A C 0.4176(12) 0.2143(5) 0.4724(5)
C22A C 0.4857(7) 0.3278(3) 0.3574(3)
H4A H 0.4794 0.3336 0.3860
O11A O 0.4253(7) 0.2142(4) 0.5477(3)
C23A C 0.5474(6) 0.5169(4) 0.2767(3)
H5A H 0.5822 0.5365 0.2958
C27A C 0.4795(6) 0.2237(3) 0.3544(3)
C29A C 0.4992(6) 0.3404(3) 0.2898(3)
C36A C 0.4849(7) 0.1722(4) 0.3354(4)
C40A C 0.4932(7) 0.3670(4) 0.3292(3)
H12A H 0.4944 0.4059 0.3345
C43A C 0.4942(6) 0.1063(3) 0.2885(3)
C52A C 0.5486(6) 0.4597(4) 0.2780(4)
H16A H 0.5829 0.4408 0.2981
C56A C 0.4802(7) 0.1198(4) 0.3564(4)
H20A H 0.4734 0.1143 0.3850
C57A C 0.5562(6) -0.0687(4) 0.2734(4)
H21A H 0.5940 -0.0882 0.2888
C62A C 0.4872(7) 0.0801(4) 0.3280(4)
H25A H 0.4875 0.0412 0.3331
C64A C 0.4838(11) 0.2219(6) 0.4757(5)
H27A H 0.5139 0.2253 0.5037
C65A C 0.3914(9) 0.2086(5) 0.5117(4)
C66A C 0.3960(9) 0.2149(6) 0.3948(5)
H28A H 0.3655 0.2127 0.3669
C67A C 0.3742(11) 0.2104(6) 0.4331(6)
H29A H 0.327(8) 0.217(6) 0.440(5)
C69A C 0.5529(7) -0.0110(4) 0.2727(4)
H30A H 0.5897 0.0091 0.2890
O15A O 0.3335(10) 0.1989(9) 0.5086(4)
C77A C 0.5054(9) 0.2243(7) 0.4357(4)
H38A H 0.5504 0.2271 0.4367
Ce1A Ce 0.58554(5) 0.72462(2) 0.30016(2)
Ce2A Ce 0.67029(5) 1.18946(2) -0.08621(2)
O1A O 0.6135(4) 0.2942(3) -0.1207(2)
O2A O 0.8292(5) 0.7078(2) -0.3330(2)
O3A O 0.5269(5) 0.7219(3) 0.2058(2)
O6A O 0.6893(4) 0.6688(3) 0.3206(2)
O7A O 0.7307(5) 0.6944(3) -0.3738(2)
O8A O 0.6319(5) 0.7154(3) 0.2355(3)
N2A N 0.6627(5) 0.7518(3) -0.0260(3)
O9A O 0.7064(5) 0.2889(3) -0.0711(3)
N3A N 0.6792(5) 0.6331(3) -0.1119(2)
N4A N 0.6520(5) 0.6338(3) -0.0261(2)
N6A N 0.6702(5) 0.7506(3) -0.1163(3)
C1A C 0.5985(7) 0.7072(3) 0.1590(3)
C3A C 0.6566(6) 0.3755(4) -0.0842(3)
C4A C 0.7511(7) 0.6920(4) -0.2956(3)
C5A C 0.7686(7) 0.6988(3) -0.3376(3)
O10A O 0.5588(5) 1.1852(4) -0.1386(3)
C6A C 0.7725(7) 0.6781(4) -0.2174(3)
H1A H 0.8035 0.6696 -0.1906
C7A C 0.7917(6) 0.6797(3) -0.2573(3)
H2A H 0.8358 0.6716 -0.2566
C10A C 0.5856(8) 0.7149(4) 0.2039(4)
C11A C 0.6593(6) 0.4891(3) -0.0718(3)
C15A C 0.6954(6) 0.6396(3) -0.1513(3)
C16A C 0.5484(7) 0.7042(5) 0.1213(4)
H3A H 0.5043 0.7045 0.1230
C19A C 0.6253(7) 0.6977(4) 0.0777(3)
C20A C 0.6601(7) 0.3157(4) -0.0924(4)
C21A C 0.7091(6) 0.6887(4) -0.2174(3)
O12A O 0.6374(7) 1.0993(3) -0.0586(4)
C24A C 0.6810(6) 0.5777(4) -0.1039(3)
C25A C 0.6427(7) 0.6951(4) 0.0338(3)
C26A C 0.6379(7) 0.6431(4) 0.0135(3)
C28A C 0.6059(6) 0.4073(4) -0.1051(3)
H6A H 0.5691 0.3903 -0.1243
C30A C 0.6911(7) 0.6902(4) -0.1734(3)
C31A C 0.6746(6) 0.7397(4) -0.1588(3)
C32A C 0.7085(7) 0.3990(4) -0.0558(3)
H7A H 0.7437 0.3764 -0.0404
C33A C 0.6624(7) 0.7914(4) -0.1830(4)
H8A H 0.6609 0.7964 -0.2133
C34A C 0.7106(6) 0.5877(4) -0.1677(3)
H9A H 0.7244 0.5816 -0.1940
C35A C 0.6860(8) 0.7001(5) -0.2960(3)
H10A H 0.6550 0.7064 -0.3233
C37A C 0.6627(6) 0.5518(4) -0.0688(3)
C38A C 0.6479(6) 0.5781(3) -0.0338(3)
C39A C 0.6616(7) 0.7045(5) 0.1560(3)
H11A H 0.6959 0.7059 0.1822
C41A C 0.6669(7) 0.8956(4) -0.0737(5)
C44A C 0.7016(6) 0.5478(4) -0.1382(3)
H13A H 0.7075 0.5088 -0.1400
C45A C 0.7107(6) 0.4584(4) -0.0488(3)
H14A H 0.7468 0.4755 -0.0289
N7A N 0.7761(8) 0.6227(5) 0.3089(4)
C47A C 0.6673(6) 0.8338(4) -0.0721(4)
C49A C 0.6591(6) 0.7451(4) 0.0163(3)
C50A C 0.6683(7) 0.7981(4) 0.0389(4)
H15A H 0.6670 0.8051 0.0686
C51A C 0.6704(7) 0.8076(4) -0.0317(4)
C53A C 0.6539(7) 0.8304(5) -0.1551(4)
H17A H 0.6445 0.8684 -0.1621
C54A C 0.6793(7) 0.8353(4) 0.0097(4)
H18A H 0.6909 0.8732 0.0155
C55A C 0.6065(7) 0.4651(4) -0.0991(3)
H19A H 0.5704 0.4870 -0.1140
C58A C 0.6767(7) 0.6998(4) 0.1158(4)
H22A H 0.7207 0.6980 0.1141
C59A C 0.6220(7) 0.5931(4) 0.0309(3)
H23A H 0.6079 0.5887 0.0572
C60A C 0.6304(7) 0.5519(4) 0.0034(3)
H24A H 0.6256 0.5132 0.0076
C61A C 0.6611(7) 0.8055(4) -0.1127(4)
C63A C 0.5642(8) 0.7005(5) 0.0803(4)
H26A H 0.5301 0.7001 0.0539
O13A O 0.6856(9) 1.0955(3) -0.1133(5)
O14A O 0.7754(7) 1.1864(7) -0.0314(4)
C68A C 0.6649(8) 1.0103(4) -0.0806(5)
C70A C 0.6652(7) 0.6990(5) -0.2569(4)
H31A H 0.6206 0.7053 -0.2578
C71A C 0.7118(9) 0.9232(5) -0.0890(6)
H32A H 0.7451 0.9032 -0.0978
C72A C 0.6695(11) 1.0737(5) -0.0827(6)
C73A C 0.7894(10) 0.5953(7) 0.3502(6)
H33A H 0.7875 0.6222 0.3734
H34A H 0.8329 0.5786 0.3565
H35A H 0.7568 0.5661 0.3494
C74A C 0.6216(8) 0.9256(5) -0.0584(5)
H36A H 0.5907 0.9064 -0.0466
C75A C 0.7254(10) 0.6548(7) 0.2970(5)
C76A C 0.7100(10) 0.9798(5) -0.0919(7)
H37A H 0.7427 0.9981 -0.1025
C78A C 0.8209(10) 0.6169(8) 0.2791(5)
H39A H 0.8641 0.6313 0.2941
H40A H 0.8034 0.6381 0.2520
H41A H 0.8245 0.5777 0.2718
C79A C 0.6202(9) 0.9833(5) -0.0599(5)
H42A H 0.5907 1.0040 -0.0477
Ce1_2 Ce 0.41446(5) -0.27538(2) 0.19984(2)
Ce1A_2 Ce 0.58554(5) -0.27538(2) 0.30016(2)
Ce1D Ce 0.58554(5) 0.27538(2) -0.19984(2)
Ce1E Ce 0.41446(5) 0.27538(2) 0.69984(2)
Ce1F Ce 0.08554(5) 0.77538(2) 0.80016(2)
Ce1G Ce 0.91446(5) 0.77538(2) -0.30016(2)
Ce2_2 Ce 0.32971(5) 0.18946(2) 0.58621(2)
Ce2A_2 Ce 0.67029(5) 0.18946(2) -0.08621(2)
Ce2B Ce 0.82971(5) 0.68946(2) -0.41379(2)
Ce2C Ce 0.17029(5) 0.68946(2) 0.91379(2)
O1_2 O 0.3865(4) 1.2942(3) 0.6207(2)
O1A_2 O 0.6135(4) 1.2942(3) -0.1207(2)
O1D O 0.6135(4) 0.7058(3) 0.3793(2)
O1E O 0.3865(4) 0.7058(3) 0.1207(2)
O2B O 0.6708(5) 1.2078(2) -0.1670(2)
O2C O 0.3292(5) 1.2078(2) 0.6670(2)
O2F O 0.3292(5) 0.7922(2) 0.1670(2)
O2G O 0.6708(5) 0.7922(2) 0.3330(2)
O5_2 O 0.4495(4) 0.8169(2) 0.2293(2)
O5A_2 O 0.5505(4) 0.8169(2) 0.2707(2)
O7B O 0.7693(5) 1.1944(3) -0.1262(2)
O7C O 0.2307(5) 1.1944(3) 0.6262(2)
O9_2 O 0.2936(5) 1.2889(3) 0.5711(3)
O9A_2 O 0.7064(5) 1.2889(3) -0.0711(3)
O11_2 O 0.5747(7) 1.2142(4) -0.0477(3)
O11A_2 O 0.4253(7) 1.2142(4) 0.5477(3)
O15_2 O 0.6665(10) 1.1989(9) -0.0086(4)
O15A_2 O 0.3335(10) 1.1989(9) 0.5086(4)
loop_
_geom_bond_atom_site_label_1
_geom_bond_atom_site_label_2
_geom_bond_site_symmetry_1
_geom_bond_site_symmetry_2
Ce1 O3 1_555 1_555
Ce2 O10 1_555 1_555
O1 C20 1_555 1_555
O2 C5 1_555 1_555
O3 C10 1_555 1_555
O4 Ce1 1_555 1_555
O5 C42 1_555 1_555
O6 Ce1 1_555 1_555
O7 C5 1_555 1_555
O8 Ce1 1_555 1_555
N1 C13 1_555 1_555
N2 C49 1_555 1_555
O9 C20 1_555 1_555
N3 C15 1_555 1_555
N4 C26 1_555 1_555
N5 C36 1_555 1_555
N6 C31 1_555 1_555
C1 C10 1_555 1_555
C2 O4 1_555 1_555
C3 C20 1_555 1_555
C4 C5 1_555 1_555
C6 H1 1_555 1_555
C7 C4 1_555 1_555
H2 C7 1_555 1_555
C8 C42 1_555 1_555
C9 C14 1_555 1_555
C10 O8 1_555 1_555
C11 C37 1_555 1_555
C12 C2 1_555 1_555
C13 C22 1_555 1_555
C14 C29 1_555 1_555
C15 C30 1_555 1_555
C16 C1 1_555 1_555
H3 C16 1_555 1_555
C17 C27 1_555 1_555
C18 C64 1_555 1_555
C19 C25 1_555 1_555
C21 C6 1_555 1_555
C22 H4 1_555 1_555
O11 C65 1_555 1_555
C23 C12 1_555 1_555
H5 C23 1_555 1_555
O12 Ce2 1_555 1_555
C24 N3 1_555 1_555
C25 C26 1_555 1_555
C26 C59 1_555 1_555
C27 C13 1_555 1_555
C28 C3 1_555 1_555
H6 C28 1_555 1_555
C29 N1 1_555 1_555
C30 C21 1_555 1_555
C31 C30 1_555 1_555
C32 C3 1_555 1_555
H7 C32 1_555 1_555
C33 C31 1_555 1_555
H8 C33 1_555 1_555
C34 C15 1_555 1_555
H9 C34 1_555 1_555
C35 C4 1_555 1_555
H10 C35 1_555 1_555
C36 C27 1_555 1_555
C37 C24 1_555 1_555
C38 N4 1_555 1_555
C39 C1 1_555 1_555
H11 C39 1_555 1_555
C40 C22 1_555 1_555
H12 C40 1_555 1_555
C41 C47 1_555 1_555
C42 O5A 1_555 1_555
C43 N5 1_555 1_555
C44 C24 1_555 1_555
H13 C44 1_555 1_555
C45 C11 1_555 1_555
H14 C45 1_555 1_555
N7 C73 1_555 1_555
C46 C43 1_555 1_555
C47 C51 1_555 1_555
C48 C46 1_555 1_555
C49 C25 1_555 1_555
C50 C49 1_555 1_555
H15 C50 1_555 1_555
C51 N2 1_555 1_555
C52 C9 1_555 1_555
H16 C52 1_555 1_555
C53 C33 1_555 1_555
H17 C53 1_555 1_555
C54 C50 1_555 1_555
H18 C54 1_555 1_555
C55 C11 1_555 1_555
H19 C55 1_555 1_555
C56 C36 1_555 1_555
H20 C56 1_555 1_555
C57 C8 1_555 1_555
H21 C57 1_555 1_555
C58 C19 1_555 1_555
H22 C58 1_555 1_555
C59 H23 1_555 1_555
C60 C38 1_555 1_555
H24 C60 1_555 1_555
C61 N6 1_555 1_555
C62 C43 1_555 1_555
H25 C62 1_555 1_555
C63 C16 1_555 1_555
H26 C63 1_555 1_555
C64 H27 1_555 1_555
O13 Ce2 1_555 1_555
C65 C18 1_555 1_555
O14 Ce2 1_555 1_555
C66 C17 1_555 1_555
H28 C66 1_555 1_555
C67 C18 1_555 1_555
H29 C67 1_555 1_555
C68 C72 1_555 1_555
C69 C48 1_555 1_555
H30 C69 1_555 1_555
C70 C21 1_555 1_555
H31 C70 1_555 1_555
O15 C65 1_555 1_555
C71 C41 1_555 1_555
H32 C71 1_555 1_555
C72 O12 1_555 1_555
C73 H33 1_555 1_555
H34 C73 1_555 1_555
H35 C73 1_555 1_555
C74 C41 1_555 1_555
H36 C74 1_555 1_555
C75 O6 1_555 1_555
C76 C68 1_555 1_555
H37 C76 1_555 1_555
C77 C17 1_555 1_555
H38 C77 1_555 1_555
C78 N7 1_555 1_555
H39 C78 1_555 1_555
H40 C78 1_555 1_555
H41 C78 1_555 1_555
C79 C68 1_555 1_555
H42 C79 1_555 1_555
O4A C2 1_555 1_555
O5A Ce1A_2 1_555 1_555
N1A C13A 1_555 1_555
N5A C36A 1_555 1_555
C13A C22A 1_555 1_555
C17A C27A 1_555 1_555
C18A C64A 1_555 1_555
C22A H4A 1_555 1_555
O11A C65A 1_555 1_555
C23A C12 1_555 1_555
H5A C23A 1_555 1_555
C27A C13A 1_555 1_555
C29A C14 1_555 1_555
C36A C27A 1_555 1_555
C40A C22A 1_555 1_555
H12A C40A 1_555 1_555
C43A C46 1_555 1_555
C52A C9 1_555 1_555
H16A C52A 1_555 1_555
C56A C36A 1_555 1_555
H20A C56A 1_555 1_555
C57A C8 1_555 1_555
H21A C57A 1_555 1_555
C62A C43A 1_555 1_555
H25A C62A 1_555 1_555
C64A H27A 1_555 1_555
C65A C18A 1_555 1_555
C66A C17A 1_555 1_555
H28A C66A 1_555 1_555
C67A C18A 1_555 1_555
H29A C67A 1_555 1_555
C69A C48 1_555 1_555
H30A C69A 1_555 1_555
O15A C65A 1_555 1_555
C77A C17A 1_555 1_555
H38A C77A 1_555 1_555
Ce1A O3 1_555 1_555
Ce2A O10A 1_555 1_555
O1A C20A 1_555 1_555
O2A C5A 1_555 1_555
O3A Ce1 1_555 1_555
O6A Ce1A 1_555 1_555
O7A C5A 1_555 1_555
O8A Ce1A 1_555 1_555
N2A C49A 1_555 1_555
O9A C20A 1_555 1_555
N3A C15A 1_555 1_555
N4A C26A 1_555 1_555
N6A C31A 1_555 1_555
C1A C10A 1_555 1_555
C3A C20A 1_555 1_555
C4A C5A 1_555 1_555
C6A H1A 1_555 1_555
C7A C4A 1_555 1_555
H2A C7A 1_555 1_555
C10A O3A 1_555 1_555
C11A C37A 1_555 1_555
C15A C30A 1_555 1_555
C16A C1A 1_555 1_555
H3A C16A 1_555 1_555
C19A C25A 1_555 1_555
C21A C6A 1_555 1_555
O12A Ce2A 1_555 1_555
C24A N3A 1_555 1_555
C25A C26A 1_555 1_555
C26A C59A 1_555 1_555
C28A C3A 1_555 1_555
H6A C28A 1_555 1_555
C30A C21A 1_555 1_555
C31A C30A 1_555 1_555
C32A C3A 1_555 1_555
H7A C32A 1_555 1_555
C33A C31A 1_555 1_555
H8A C33A 1_555 1_555
C34A C15A 1_555 1_555
H9A C34A 1_555 1_555
C35A C4A 1_555 1_555
H10A C35A 1_555 1_555
C37A C24A 1_555 1_555
C38A N4A 1_555 1_555
C39A C1A 1_555 1_555
H11A C39A 1_555 1_555
C41A C47A 1_555 1_555
C44A C24A 1_555 1_555
H13A C44A 1_555 1_555
C45A C11A 1_555 1_555
H14A C45A 1_555 1_555
N7A C73A 1_555 1_555
C47A C51A 1_555 1_555
C49A C25A 1_555 1_555
C50A C49A 1_555 1_555
H15A C50A 1_555 1_555
C51A N2A 1_555 1_555
C53A C33A 1_555 1_555
H17A C53A 1_555 1_555
C54A C50A 1_555 1_555
H18A C54A 1_555 1_555
C55A C11A 1_555 1_555
H19A C55A 1_555 1_555
C58A C19A 1_555 1_555
H22A C58A 1_555 1_555
C59A H23A 1_555 1_555
C60A C38A 1_555 1_555
H24A C60A 1_555 1_555
C61A N6A 1_555 1_555
C63A C16A 1_555 1_555
H26A C63A 1_555 1_555
O13A Ce2A 1_555 1_555
O14A Ce2A 1_555 1_555
C68A C72A 1_555 1_555
C70A C21A 1_555 1_555
H31A C70A 1_555 1_555
C71A C41A 1_555 1_555
H32A C71A 1_555 1_555
C72A O12A 1_555 1_555
C73A H33A 1_555 1_555
H34A C73A 1_555 1_555
H35A C73A 1_555 1_555
C74A C41A 1_555 1_555
H36A C74A 1_555 1_555
C75A O6A 1_555 1_555
C76A C68A 1_555 1_555
H37A C76A 1_555 1_555
C78A N7A 1_555 1_555
H39A C78A 1_555 1_555
H40A C78A 1_555 1_555
H41A C78A 1_555 1_555
C79A C68A 1_555 1_555
H42A C79A 1_555 1_555
Ce1_2 O5 1_555 1_555
Ce1D O1A 1_555 1_555
Ce1E O1 1_555 1_555
Ce1F O2 1_555 1_555
Ce1G O2A 1_555 1_555
Ce2_2 O1 1_555 1_555
Ce2A_2 O11 1_555 1_555
Ce2B O2A 1_555 1_555
Ce2C O2 1_555 1_555
O1_2 Ce2 1_555 1_555
O1A_2 Ce2A 1_555 1_555
O1D Ce1A 1_555 1_555
O1E Ce1 1_555 1_555
O2B Ce2A 1_555 1_555
O2C Ce2 1_555 1_555
O2F Ce1 1_555 1_555
O2G Ce1A 1_555 1_555
O5_2 Ce1 1_555 1_555
O5A_2 Ce1A 1_555 1_555
O7B Ce2A 1_555 1_555
O7C Ce2 1_555 1_555
O9_2 Ce2 1_555 1_555
O9A_2 Ce2A 1_555 1_555
O11_2 Ce2A 1_555 1_555
O11A_2 Ce2 1_555 1_555
O15_2 Ce2A 1_555 1_555
O15A_2 Ce2 1_555 1_555
O7 Ce2C 1_555 1_555
O9 Ce2_2 1_555 1_555
C6 C7 1_555 1_555
C19 C63 1_555 1_555
C23 C52 1_555 1_555
C28 C55 1_555 1_555
C29 C40 1_555 1_555
C32 C45 1_555 1_555
C34 C44 1_555 1_555
C35 C70 1_555 1_555
C37 C38 1_555 1_555
C39 C58 1_555 1_555
N7 C75 1_555 1_555
C47 C61 1_555 1_555
C51 C54 1_555 1_555
C53 C61 1_555 1_555
C56 C62 1_555 1_555
C57 C69 1_555 1_555
C59 C60 1_555 1_555
C64 C77 1_555 1_555
O13 C72 1_555 1_555
C66 C67 1_555 1_555
O15 Ce2A_2 1_555 1_555
C71 C76 1_555 1_555
C74 C79 1_555 1_555
O4A Ce1A 1_555 1_555
N1A C29A 1_555 1_555
N5A C43A 1_555 1_555
O11A Ce2_2 1_555 1_555
C23A C52A 1_555 1_555
C29A C40A 1_555 1_555
C56A C62A 1_555 1_555
C57A C69A 1_555 1_555
C64A C77A 1_555 1_555
C66A C67A 1_555 1_555
O15A Ce2_2 1_555 1_555
Ce1A O3A 1_555 1_555
O1A Ce2A_2 1_555 1_555
O7A Ce2B 1_555 1_555
O8A C10A 1_555 1_555
O9A Ce2A_2 1_555 1_555
C6A C7A 1_555 1_555
C19A C63A 1_555 1_555
C28A C55A 1_555 1_555
C32A C45A 1_555 1_555
C34A C44A 1_555 1_555
C35A C70A 1_555 1_555
C37A C38A 1_555 1_555
C39A C58A 1_555 1_555
N7A C75A 1_555 1_555
C47A C61A 1_555 1_555
C51A C54A 1_555 1_555
C53A C61A 1_555 1_555
C59A C60A 1_555 1_555
O13A C72A 1_555 1_555
C71A C76A 1_555 1_555
C74A C79A 1_555 1_555

#END
