
#######################################################################
#
#                 Cambridge Crystallographic Data Centre
#                                CCDC 
#
#######################################################################
#
# If this CIF has been generated from an entry in the Cambridge 
# Structural Database, then it will include bibliographic, chemical, 
# crystal, experimental, refinement or atomic coordinate data resulting 
# from the CCDC's data processing and validation procedures.
#
#######################################################################

data_HAWGIY
_chemical_formula_moiety         '(C117 H75 Ce3 N8 O25)n'
_symmetry_cell_setting           triclinic
_symmetry_space_group_name_H-M   'P -1'
_symmetry_Int_Tables_number      2
_space_group_name_Hall           '-P 1'
loop_
_symmetry_equiv_pos_site_id
_symmetry_equiv_pos_as_xyz
1 x,y,z
2 -x,-y,-z
_cell_length_a                   11.665(7)
_cell_length_b                   13.915(8)
_cell_length_c                   17.343(10)
_cell_angle_alpha                95.514(4)
_cell_angle_beta                 99.792(4)
_cell_angle_gamma                101.313(5)
_cell_volume                     2695.66
loop_
_atom_site_label
_atom_site_type_symbol
_atom_site_fract_x
_atom_site_fract_y
_atom_site_fract_z
Ce1 Ce 0.84883(4) 1.06065(4) 1.00409(3)
Ce2 Ce 0.5000 1.0000 0.0000
O1 O -0.2965(5) 0.0789(5) 0.0864(3)
O2 O 0.3316(5) 0.9382(5) 0.0912(3)
O3 O -0.0243(5) 0.1332(5) 0.9201(4)
O4 O 0.6653(5) 0.9015(5) -0.0064(4)
O5 O 0.8922(6) 0.9285(5) 0.9250(3)
O6 O 0.1084(6) 0.0462(5) 0.8983(4)
O7 O 0.9982(6) 0.8233(5) 0.8914(4)
N1 N 0.1234(6) 0.3911(5) 0.5216(4)
N2 N 0.1758(6) 0.5181(5) 0.4045(4)
N3 N 0.3402(6) 0.4991(6) 0.6243(4)
N4 N 0.3903(6) 0.6300(5) 0.5080(4)
C1 C 0.0979(7) 0.1811(7) 0.8291(5)
C2 C 0.6131(7) 0.7007(6) 0.7001(4)
C3 C 0.9019(7) 0.8560(7) 0.8818(5)
C4 C 0.3823(8) 0.8392(8) 0.1913(5)
C5 C 0.2179(8) 0.5808(7) 0.3542(5)
C6 C 0.8049(8) 0.8034(6) 0.8157(5)
C7 C 0.1659(8) 0.2992(7) 0.7194(5)
C8 C 0.0796(7) 0.4538(7) 0.3610(5)
C9 C 0.2816(8) 0.8355(7) 0.2220(5)
H1 H 0.2249 0.8721 0.2023
C10 C 0.0556(7) 0.1152(7) 0.8865(5)
C11 C 0.6089(8) 0.7914(8) 0.7399(5)
H2 H 0.5404 0.8184 0.7271
C12 C 0.0454(9) 0.2580(8) 0.8136(5)
H3 H -0.0159 0.2706 0.8403
C13 C 0.2996(7) 0.4355(7) 0.6734(5)
C14 C -0.0718(9) 0.2175(7) 0.2973(5)
H4 H -0.0031 0.1954 0.3198
C15 C 0.7038(8) 0.8425(8) 0.7979(5)
H5 H 0.7000 0.9039 0.8254
C16 C 0.3785(8) 0.4593(7) 0.7512(5)
H6 H 0.3705 0.4262 0.7961
C17 C 0.3419(8) 0.7222(7) 0.3100(5)
C18 C 0.0591(8) 0.4741(7) 0.2798(5)
H7 H -0.0031 0.4392 0.2380
C19 C 0.5069(7) 0.6414(7) 0.6415(5)
C20 C 0.4076(9) 0.9002(10) 0.1285(7)
C21 C 0.0095(8) 0.3746(7) 0.3863(5)
C22 C 0.2616(8) 0.7782(7) 0.2820(5)
H8 H 0.1922 0.7775 0.3039
C23 C 0.4634(8) 0.5364(7) 0.7467(5)
H9 H 0.5277 0.5692 0.7879
C24 C 0.1150(7) 0.3405(7) 0.5852(5)
C25 C 0.1456(8) 0.5522(7) 0.2754(5)
H10 H 0.1571 0.5825 0.2297
C26 C 0.1972(8) 0.3626(7) 0.6567(5)
C27 C -0.1548(9) 0.1573(7) 0.2346(5)
H11 H -0.1415 0.0959 0.2132
C28 C 0.4401(7) 0.5608(7) 0.6681(5)
C29 C 0.4618(8) 0.7838(8) 0.2194(5)
H12 H 0.5321 0.7860 0.1983
C30 C 0.5012(9) 0.7583(8) 0.4659(6)
H13 H 0.5291 0.8051 0.4332
C31 C -0.0884(8) 0.3076(7) 0.3263(5)
C32 C -0.2546(8) 0.1887(9) 0.2053(6)
C33 C 0.8094(9) 0.7178(8) 0.7751(6)
H14 H 0.8794 0.6924 0.7866
C34 C 0.3164(8) 0.6586(7) 0.3726(5)
C35 C 0.2180(9) 0.2213(8) 0.7343(6)
H15 H 0.2779 0.2079 0.7066
C36 C 0.7156(9) 0.6647(8) 0.7167(6)
H16 H 0.7219 0.6045 0.6885
C37 C 0.4413(8) 0.7243(8) 0.2784(5)
H17 H 0.4965 0.6855 0.2964
C38 C 0.0107(8) 0.2662(8) 0.5653(5)
H18 H -0.0177 0.2214 0.5993
C39 C 0.3964(8) 0.6802(7) 0.4435(5)
C40 C 0.4848(8) 0.6735(7) 0.5676(5)
C41 C 0.0280(8) 0.3476(7) 0.4615(5)
C42 C 0.5532(9) 0.7542(8) 0.5405(5)
H19 H 0.6235 0.7978 0.5698
C43 C 0.1835(9) 0.1620(8) 0.7896(7)
H20 H 0.2198 0.1080 0.7999
C44 C -0.2754(9) 0.2755(9) 0.2370(7)
H21 H -0.3489 0.2931 0.2185
C45 C -0.1904(9) 0.3394(9) 0.2965(6)
H22 H -0.2023 0.4023 0.3156
C46 C 0.0809(9) 0.3178(8) 0.7592(6)
H23 H 0.0454 0.3725 0.7496
C47 C -0.0429(9) 0.2682(8) 0.4906(5)
H24 H -0.1143 0.2251 0.4625
C48 C -0.3362(9) 0.1298(10) 0.1348(7)
O8 O -0.4485(13) 0.1015(15) 0.1420(9)
O9 O 0.486(2) 0.8096(13) 0.0012(13)
C49 C 0.595(3) 0.818(2) -0.0095(14)
C50 C 0.7384(14) 0.7109(13) -0.0356(14)
C51 C 0.7610(15) 0.6190(16) -0.0582(17)
C52 C 0.6741(19) 0.5337(12) -0.0621(15)
C53 C 0.5644(16) 0.5403(10) -0.0433(14)
C54 C 0.5418(13) 0.6323(13) -0.0207(13)
C55 C 0.6288(16) 0.7176(10) -0.0168(12)
O10 O 0.5236(12) 0.9457(13) 0.1397(8)
O11 O 0.8193(7) 1.2382(5) 1.0024(4)
Ce1A Ce -0.84883(4) -0.06065(4) -1.00409(3)
O1A O 0.2965(5) 0.9211(5) -0.0864(3)
O2A O -0.3316(5) 0.0618(5) -0.0912(3)
O3A O 0.0243(5) 0.8668(5) -0.9201(4)
O5A O -0.8922(6) 0.0715(5) -0.9250(3)
O6A O -0.1084(6) 0.9538(5) -0.8983(4)
O7A O -0.9982(6) 0.1767(5) -0.8914(4)
N1A N -0.1234(6) 0.6089(5) -0.5216(4)
N2A N -0.1758(6) 0.4819(5) -0.4045(4)
N3A N -0.3402(6) 0.5009(6) -0.6243(4)
N4A N -0.3903(6) 0.3700(5) -0.5080(4)
C1A C -0.0979(7) 0.8189(7) -0.8291(5)
C2A C -0.6131(7) 0.2993(6) -0.7001(4)
C3A C -0.9019(7) 0.1440(7) -0.8818(5)
C4A C -0.3823(8) 0.1608(8) -0.1913(5)
C5A C -0.2179(8) 0.4192(7) -0.3542(5)
C6A C -0.8049(8) 0.1966(6) -0.8157(5)
C7A C -0.1659(8) 0.7008(7) -0.7194(5)
C8A C -0.0796(7) 0.5462(7) -0.3610(5)
C9A C -0.2816(8) 0.1645(7) -0.2220(5)
H1A H -0.2249 0.1279 -0.2023
C10A C -0.0556(7) 0.8848(7) -0.8865(5)
C11A C -0.6089(8) 0.2086(8) -0.7399(5)
H2A H -0.5404 0.1816 -0.7271
C12A C -0.0454(9) 0.7420(8) -0.8136(5)
H3A H 0.0159 0.7294 -0.8403
C13A C -0.2996(7) 0.5645(7) -0.6734(5)
C14A C 0.0718(9) 0.7825(7) -0.2973(5)
H4A H 0.0031 0.8046 -0.3198
C15A C -0.7038(8) 0.1575(8) -0.7979(5)
H5A H -0.7000 0.0961 -0.8254
C16A C -0.3785(8) 0.5407(7) -0.7512(5)
H6A H -0.3705 0.5738 -0.7961
C17A C -0.3419(8) 0.2778(7) -0.3100(5)
C18A C -0.0591(8) 0.5259(7) -0.2798(5)
H7A H 0.0031 0.5608 -0.2380
C19A C -0.5069(7) 0.3586(7) -0.6415(5)
C20A C -0.4076(9) 0.0998(10) -0.1285(7)
C21A C -0.0095(8) 0.6254(7) -0.3863(5)
C22A C -0.2616(8) 0.2218(7) -0.2820(5)
H8A H -0.1922 0.2225 -0.3039
C23A C -0.4634(8) 0.4636(7) -0.7467(5)
H9A H -0.5277 0.4308 -0.7879
C24A C -0.1150(7) 0.6595(7) -0.5852(5)
C25A C -0.1456(8) 0.4478(7) -0.2754(5)
H10A H -0.1571 0.4175 -0.2297
C26A C -0.1972(8) 0.6374(7) -0.6567(5)
C27A C 0.1548(9) 0.8427(7) -0.2346(5)
H11A H 0.1415 0.9041 -0.2132
C28A C -0.4401(7) 0.4392(7) -0.6681(5)
C29A C -0.4618(8) 0.2162(8) -0.2194(5)
H12A H -0.5321 0.2140 -0.1983
C30A C -0.5012(9) 0.2417(8) -0.4659(6)
H13A H -0.5291 0.1949 -0.4332
C31A C 0.0884(8) 0.6924(7) -0.3263(5)
C32A C 0.2546(8) 0.8113(9) -0.2053(6)
C33A C -0.8094(9) 0.2822(8) -0.7751(6)
H14A H -0.8794 0.3076 -0.7866
C34A C -0.3164(8) 0.3414(7) -0.3726(5)
C35A C -0.2180(9) 0.7787(8) -0.7343(6)
H15A H -0.2779 0.7921 -0.7066
C36A C -0.7156(9) 0.3353(8) -0.7167(6)
H16A H -0.7219 0.3955 -0.6885
C37A C -0.4413(8) 0.2757(8) -0.2784(5)
H17A H -0.4965 0.3145 -0.2964
C38A C -0.0107(8) 0.7338(8) -0.5653(5)
H18A H 0.0177 0.7786 -0.5993
C39A C -0.3964(8) 0.3198(7) -0.4435(5)
C40A C -0.4848(8) 0.3265(7) -0.5676(5)
C41A C -0.0280(8) 0.6524(7) -0.4615(5)
C42A C -0.5532(9) 0.2458(8) -0.5405(5)
H19A H -0.6235 0.2022 -0.5698
C43A C -0.1835(9) 0.8380(8) -0.7896(7)
H20A H -0.2198 0.8920 -0.7999
C44A C 0.2754(9) 0.7245(9) -0.2370(7)
H21A H 0.3489 0.7069 -0.2185
C45A C 0.1904(9) 0.6606(9) -0.2965(6)
H22A H 0.2023 0.5977 -0.3156
C46A C -0.0809(9) 0.6822(8) -0.7592(6)
H23A H -0.0454 0.6275 -0.7496
C47A C 0.0429(9) 0.7318(8) -0.4906(5)
H24A H 0.1143 0.7749 -0.4625
C48A C 0.3362(9) 0.8702(10) -0.1348(7)
O8A O 0.4485(13) 0.8985(15) -0.1420(9)
O10A O -0.5236(12) 0.0543(13) -0.1397(8)
O11A O -0.8193(7) -0.2382(5) -1.0024(4)
O4_2 O 0.6653(5) 0.9015(5) 0.9936(4)
O9_2 O 0.486(2) 0.8096(13) 1.0012(13)
C49_2 C 0.595(3) 0.818(2) 0.9905(14)
C50_2 C 0.7384(14) 0.7109(13) 0.9644(14)
C51_2 C 0.7610(15) 0.6190(16) 0.9418(17)
C52_2 C 0.6741(19) 0.5337(12) 0.9379(15)
C53_2 C 0.5644(16) 0.5403(10) 0.9567(14)
C54_2 C 0.5418(13) 0.6323(13) 0.9793(13)
C55_2 C 0.6288(16) 0.7176(10) 0.9832(12)
Ce1_2 Ce -1.15117(4) 0.06065(4) -0.99591(3)
Ce1_3 Ce -0.15117(4) 0.06065(4) 0.00409(3)
Ce1_4 Ce -0.15117(4) 0.06065(4) 1.00409(3)
Ce1_5 Ce -0.15117(4) 1.06065(4) -0.99591(3)
Ce1_6 Ce 0.84883(4) 1.06065(4) 0.00409(3)
Ce1A_2 Ce 0.15117(4) -0.06065(4) 0.99591(3)
Ce1A_3 Ce 0.15117(4) 0.93935(4) -1.00409(3)
Ce1A_4 Ce 0.15117(4) 0.93935(4) -0.00409(3)
Ce1A_5 Ce 1.15117(4) 0.93935(4) 0.99591(3)
Ce2_2 Ce -0.5000 0.0000 0.0000
Ce2_3 Ce 0.5000 1.0000 1.0000
O1_2 O 0.7035(5) 1.0789(5) 0.0864(3)
O1_3 O 0.7035(5) 1.0789(5) 1.0864(3)
O1A_2 O -0.7035(5) -0.0789(5) -1.0864(3)
O2_2 O -0.6684(5) -0.0618(5) -0.9088(3)
O2A_2 O 0.6684(5) 1.0618(5) -0.0912(3)
O2A_3 O 0.6684(5) 1.0618(5) 0.9088(3)
O3_2 O 0.9757(5) 1.1332(5) 0.9201(4)
O3A_2 O -0.9757(5) -0.1332(5) -0.9201(4)
O4A O -0.6653(5) 0.0985(5) -0.9936(4)
O4A_2 O 0.3347(5) 1.0985(5) 0.0064(4)
O6_2 O -0.8916(6) 0.0462(5) -1.1017(4)
O6A_2 O 0.8916(6) 0.9538(5) 1.1017(4)
O7_2 O -1.0018(6) -0.1767(5) -1.1086(4)
O7A_2 O 1.0018(6) 1.1767(5) 1.1086(4)
O8_2 O 0.5515(13) 1.1015(15) 0.1420(9)
O9A O 0.514(2) 1.1904(13) -0.0012(13)
O10A_2 O 0.4764(12) 1.0543(13) -0.1397(8)
O12 O 0.6736(14) 0.9757(12) 0.2835(9)
C56 C 0.6951(18) 1.0074(16) 0.4187(12)
C57 C 0.795(2) 0.981(2) 0.4356(17)
C58 C 0.645(3) 1.035(2) 0.4855(18)
C59 C 0.711(3) 1.022(3) 0.564(2)
C60 C 0.798(3) 0.995(3) 0.571(2)
C61 C 0.858(3) 0.977(3) 0.511(2)
C62 C 0.6304(18) 1.0102(16) 0.3394(12)
O13 O 0.539(2) 1.0388(18) 0.3282(14)
O14 O 0.9314(14) 0.3442(9) 0.1018(7)
loop_
_geom_bond_atom_site_label_1
_geom_bond_atom_site_label_2
_geom_bond_site_symmetry_1
_geom_bond_site_symmetry_2
Ce1 O5 1_555 1_555
Ce2 O2 1_555 1_555
O1 C48 1_555 1_555
O2 C20 1_555 1_555
O3 C10 1_555 1_555
O4 Ce2 1_555 1_555
O5 C3 1_555 1_555
O6 C10 1_555 1_555
O7 C3 1_555 1_555
N1 C24 1_555 1_555
N2 C5 1_555 1_555
N3 C13 1_555 1_555
N4 C39 1_555 1_555
C1 C10 1_555 1_555
C2 C11 1_555 1_555
C3 C6 1_555 1_555
C4 C9 1_555 1_555
C5 C25 1_555 1_555
C6 C15 1_555 1_555
C7 C26 1_555 1_555
C8 N2 1_555 1_555
C9 H1 1_555 1_555
C11 H2 1_555 1_555
C12 C1 1_555 1_555
H3 C12 1_555 1_555
C13 C16 1_555 1_555
C14 H4 1_555 1_555
C15 C11 1_555 1_555
H5 C15 1_555 1_555
C16 H6 1_555 1_555
C17 C22 1_555 1_555
C18 C8 1_555 1_555
H7 C18 1_555 1_555
C19 C2 1_555 1_555
C20 C4 1_555 1_555
C21 C8 1_555 1_555
C22 C9 1_555 1_555
H8 C22 1_555 1_555
C23 C16 1_555 1_555
H9 C23 1_555 1_555
C24 C26 1_555 1_555
C25 C18 1_555 1_555
H10 C25 1_555 1_555
C26 C13 1_555 1_555
C27 C14 1_555 1_555
H11 C27 1_555 1_555
C28 N3 1_555 1_555
C29 C4 1_555 1_555
H12 C29 1_555 1_555
C30 H13 1_555 1_555
C31 C14 1_555 1_555
C32 C27 1_555 1_555
C33 C6 1_555 1_555
H14 C33 1_555 1_555
C34 C5 1_555 1_555
C35 C7 1_555 1_555
H15 C35 1_555 1_555
C36 C2 1_555 1_555
H16 C36 1_555 1_555
C37 C17 1_555 1_555
H17 C37 1_555 1_555
C38 C24 1_555 1_555
H18 C38 1_555 1_555
C39 C30 1_555 1_555
C40 N4 1_555 1_555
C41 N1 1_555 1_555
C42 C30 1_555 1_555
H19 C42 1_555 1_555
C43 C1 1_555 1_555
H20 C43 1_555 1_555
C44 C32 1_555 1_555
H21 C44 1_555 1_555
C45 C31 1_555 1_555
H22 C45 1_555 1_555
C46 C7 1_555 1_555
H23 C46 1_555 1_555
C47 C38 1_555 1_555
H24 C47 1_555 1_555
C48 C32 1_555 1_555
O8 C48 1_555 1_555
O9 Ce2 1_555 1_555
C49 O4 1_555 1_555
C50 C51 1_555 1_555
C51 C52 1_555 1_555
C52 C53 1_555 1_555
C53 C54 1_555 1_555
C54 C55 1_555 1_555
C55 C49 1_555 1_555
O10 Ce2 1_555 1_555
O11 Ce1 1_555 1_555
O12 C62 1_555 1_555
C56 C57 1_555 1_555
C57 C61 1_555 1_555
C58 C56 1_555 1_555
C59 C58 1_555 1_555
C60 C59 1_555 1_555
C61 C60 1_555 1_555
C62 C56 1_555 1_555
O13 C62 1_555 1_555
Ce1A O5A 1_555 1_555
O1A Ce2 1_555 1_555
O2A C20A 1_555 1_555
O3A C10A 1_555 1_555
O5A C3A 1_555 1_555
O6A C10A 1_555 1_555
O7A C3A 1_555 1_555
N1A C24A 1_555 1_555
N2A C5A 1_555 1_555
N3A C13A 1_555 1_555
N4A C39A 1_555 1_555
C1A C10A 1_555 1_555
C2A C11A 1_555 1_555
C3A C6A 1_555 1_555
C4A C9A 1_555 1_555
C5A C25A 1_555 1_555
C6A C15A 1_555 1_555
C7A C26A 1_555 1_555
C8A N2A 1_555 1_555
C9A H1A 1_555 1_555
C11A H2A 1_555 1_555
C12A C1A 1_555 1_555
H3A C12A 1_555 1_555
C13A C16A 1_555 1_555
C14A H4A 1_555 1_555
C15A C11A 1_555 1_555
H5A C15A 1_555 1_555
C16A H6A 1_555 1_555
C17A C22A 1_555 1_555
C18A C8A 1_555 1_555
H7A C18A 1_555 1_555
C19A C2A 1_555 1_555
C20A C4A 1_555 1_555
C21A C8A 1_555 1_555
C22A C9A 1_555 1_555
H8A C22A 1_555 1_555
C23A C16A 1_555 1_555
H9A C23A 1_555 1_555
C24A C26A 1_555 1_555
C25A C18A 1_555 1_555
H10A C25A 1_555 1_555
C26A C13A 1_555 1_555
C27A C14A 1_555 1_555
H11A C27A 1_555 1_555
C28A N3A 1_555 1_555
C29A C4A 1_555 1_555
H12A C29A 1_555 1_555
C30A H13A 1_555 1_555
C31A C14A 1_555 1_555
C32A C27A 1_555 1_555
C33A C6A 1_555 1_555
H14A C33A 1_555 1_555
C34A C5A 1_555 1_555
C35A C7A 1_555 1_555
H15A C35A 1_555 1_555
C36A C2A 1_555 1_555
H16A C36A 1_555 1_555
C37A C17A 1_555 1_555
H17A C37A 1_555 1_555
C38A C24A 1_555 1_555
H18A C38A 1_555 1_555
C39A C30A 1_555 1_555
C40A N4A 1_555 1_555
C41A N1A 1_555 1_555
C42A C30A 1_555 1_555
H19A C42A 1_555 1_555
C43A C1A 1_555 1_555
H20A C43A 1_555 1_555
C44A C32A 1_555 1_555
H21A C44A 1_555 1_555
C45A C31A 1_555 1_555
H22A C45A 1_555 1_555
C46A C7A 1_555 1_555
H23A C46A 1_555 1_555
C47A C38A 1_555 1_555
H24A C47A 1_555 1_555
C48A O1A 1_555 1_555
O8A Ce2 1_555 1_555
O10A C20A 1_555 1_555
O11A Ce1A 1_555 1_555
O4_2 Ce1 1_555 1_555
O9_2 C49_2 1_555 1_555
C49_2 O4_2 1_555 1_555
C50_2 C51_2 1_555 1_555
C51_2 C52_2 1_555 1_555
C52_2 C53_2 1_555 1_555
C53_2 C54_2 1_555 1_555
C54_2 C55_2 1_555 1_555
C55_2 C49_2 1_555 1_555
Ce1_2 O7A 1_555 1_555
Ce1_3 O1 1_555 1_555
Ce1_4 O3 1_555 1_555
Ce1_5 O6A 1_555 1_555
Ce1_6 O4 1_555 1_555
Ce1A_2 O6 1_555 1_555
Ce1A_3 O3A 1_555 1_555
Ce1A_4 O2 1_555 1_555
Ce1A_5 O7 1_555 1_555
Ce2_2 O1 1_555 1_555
Ce2_3 O4_2 1_555 1_555
O1_2 Ce2 1_555 1_555
O1_3 Ce1 1_555 1_555
O1A_2 Ce1A 1_555 1_555
O2_2 Ce1A 1_555 1_555
O2A_2 Ce2 1_555 1_555
O2A_3 Ce1 1_555 1_555
O3_2 Ce1 1_555 1_555
O3A_2 Ce1A 1_555 1_555
O4A Ce1A 1_555 1_555
O4A_2 Ce2 1_555 1_555
O6_2 Ce1A 1_555 1_555
O6A_2 Ce1 1_555 1_555
O7_2 Ce1A 1_555 1_555
O7A_2 Ce1 1_555 1_555
O8_2 Ce2 1_555 1_555
O9A Ce2 1_555 1_555
O10A_2 Ce2 1_555 1_555
C12 C46 1_555 1_555
C17 C34 1_555 1_555
C19 C28 1_555 1_555
C19 C40 1_555 1_555
C20 O10 1_555 1_555
C21 C31 1_555 1_555
C21 C41 1_555 1_555
C23 C28 1_555 1_555
C29 C37 1_555 1_555
C33 C36 1_555 1_555
C34 C39 1_555 1_555
C35 C43 1_555 1_555
C40 C42 1_555 1_555
C41 C47 1_555 1_555
C44 C45 1_555 1_555
O8 Ce2_2 1_555 1_555
O9 C49 1_555 1_555
C50 C55 1_555 1_555
O1A Ce1A_4 1_555 1_555
O2A Ce1_3 1_555 1_555
O2A Ce2_2 1_555 1_555
C12A C46A 1_555 1_555
C17A C34A 1_555 1_555
C19A C28A 1_555 1_555
C19A C40A 1_555 1_555
C21A C31A 1_555 1_555
C21A C41A 1_555 1_555
C23A C28A 1_555 1_555
C29A C37A 1_555 1_555
C32A C48A 1_555 1_555
C33A C36A 1_555 1_555
C34A C39A 1_555 1_555
C35A C43A 1_555 1_555
C40A C42A 1_555 1_555
C41A C47A 1_555 1_555
C44A C45A 1_555 1_555
C48A O8A 1_555 1_555
O10A Ce2_2 1_555 1_555
O9_2 Ce2_3 1_555 1_555
C50_2 C55_2 1_555 1_555
Ce1_6 O1_2 1_555 1_555
Ce1_6 O2A_2 1_555 1_555
Ce1A_4 O4A_2 1_555 1_555
Ce2_3 O1_3 1_555 1_555
Ce2_3 O2A_3 1_555 1_555

#END
