
#######################################################################
#
#                 Cambridge Crystallographic Data Centre
#                                CCDC 
#
#######################################################################
#
# If this CIF has been generated from an entry in the Cambridge 
# Structural Database, then it will include bibliographic, chemical, 
# crystal, experimental, refinement or atomic coordinate data resulting 
# from the CCDC's data processing and validation procedures.
#
#######################################################################

data_AMODUC
_chemical_formula_moiety         '(C66 H84 O21 S9 Tb2)n'
_symmetry_cell_setting           monoclinic
_symmetry_space_group_name_H-M   'C 2/c'
_symmetry_Int_Tables_number      15
_space_group_name_Hall           '-C 2yc'
loop_
_symmetry_equiv_pos_site_id
_symmetry_equiv_pos_as_xyz
1 x,y,z
2 -x,y,1/2-z
3 1/2+x,1/2+y,z
4 1/2-x,1/2+y,1/2-z
5 -x,-y,-z
6 x,-y,1/2+z
7 1/2-x,1/2-y,-z
8 1/2+x,1/2-y,1/2+z
_cell_length_a                   27.6859(5)
_cell_length_b                   16.9435(4)
_cell_length_c                   28.0346(6)
_cell_angle_alpha                90
_cell_angle_beta                 101.6030(10)
_cell_angle_gamma                90
_cell_volume                     12882.2
loop_
_atom_site_label
_atom_site_type_symbol
_atom_site_fract_x
_atom_site_fract_y
_atom_site_fract_z
Tb1 Tb 0.298883(7) 0.730138(15) 0.955562(7)
O1 O 0.31397(15) 0.7731(2) 0.87641(13)
O2 O 0.37859(14) 0.7723(2) 0.93631(15)
O3 O 0.30205(12) 0.8714(2) 0.95758(12)
O4 O 0.24959(12) 0.8434(2) 1.00394(12)
O5 O 0.21974(12) 0.7610(2) 0.91616(12)
O6 O 0.16319(12) 0.7525(3) 0.96338(12)
O7 O 0.35831(13) 0.6230(2) 0.97330(16)
O8 O 0.27633(15) 0.6225(3) 0.89890(14)
C1 C 0.3597(2) 0.7810(3) 0.8921(2)
C2 C 0.3880(4) 0.7960(8) 0.8537(4)
C3 C 0.3671(3) 0.7977(7) 0.8043(3)
H1 H 0.3324 0.7916 0.7943
C4 C 0.3949(3) 0.8079(6) 0.7698(3)
H2 H 0.3796 0.8064 0.7363
C5 C 0.4456(4) 0.8206(6) 0.7833(3)
C6 C 0.4667(3) 0.8214(6) 0.8326(4)
H3 H 0.5011 0.8305 0.8432
C7 C 0.4367(3) 0.8087(6) 0.8665(3)
H4 H 0.4515 0.8091 0.9002
C8 C 0.4757(3) 0.8229(5) 0.7464(3)
H5 H 0.4584 0.8246 0.7135
C9 C 0.27206(19) 0.8917(3) 0.9824(2)
C10 C 0.2621(2) 0.9769(4) 0.9857(3)
C11 C 0.2266(3) 1.0031(4) 1.0112(4)
H6 H 0.2086 0.9665 1.0265
C12 C 0.2179(3) 1.0847(4) 1.0136(4)
H7 H 0.1922 1.1026 1.0287
C13 C 0.2452(3) 1.1381(3) 0.9951(3)
C14 C 0.2801(3) 1.1110(4) 0.9700(3)
H8 H 0.2987 1.1480 0.9557
C15 C 0.2882(3) 1.0330(4) 0.9654(3)
H9 H 0.3123 1.0164 0.9478
C16 C 0.2367(4) 1.2221(4) 1.0026(4)
H10 H 0.2069 1.2349 1.0127
C17 C 0.17609(18) 0.7551(3) 0.92295(18)
C18 C 0.13632(19) 0.7532(4) 0.87820(19)
C19 C 0.0874(2) 0.7456(4) 0.8831(2)
H11 H 0.0794 0.7440 0.9145
C20 C 0.0505(2) 0.7405(4) 0.8415(2)
H12 H 0.0171 0.7346 0.8444
C21 C 0.0621(2) 0.7442(4) 0.7954(2)
C22 C 0.1116(2) 0.7496(5) 0.7915(2)
H13 H 0.1200 0.7502 0.7603
C23 C 0.1482(2) 0.7542(4) 0.83287(19)
H14 H 0.1817 0.7580 0.8300
C24 C 0.0243(2) 0.7420(5) 0.7502(2)
H15 H 0.0348 0.7406 0.7199
C25 C 0.4454(2) 0.5912(5) 0.9582(3)
H16 H 0.4420 0.6253 0.9295
H17 H 0.4325 0.5386 0.9482
H18 H 0.4802 0.5871 0.9740
C26 C 0.4214(3) 0.5557(5) 1.0420(3)
H19 H 0.4438 0.5168 1.0324
H20 H 0.3898 0.5304 1.0432
H21 H 0.4360 0.5770 1.0742
C27 C 0.2658(3) 0.6178(5) 0.8044(2)
H22 H 0.2650 0.6745 0.7972
H23 H 0.2326 0.5996 0.8058
H24 H 0.2778 0.5891 0.7787
C28 C 0.3047(3) 0.4955(5) 0.8597(3)
H25 H 0.3230 0.4749 0.8907
H26 H 0.3200 0.4767 0.8331
H27 H 0.2705 0.4770 0.8543
S1 S 0.41170(5) 0.63193(10) 0.99967(6)
S2 S 0.30573(6) 0.60024(11) 0.86102(6)
Tb1A Tb 0.701117(7) 0.730138(15) 0.544438(7)
Tb1F Tb 0.201117(7) 0.769862(15) 1.044438(7)
Tb1F_2 Tb 0.201117(7) 1.769862(15) 1.044438(7)
Tb1_2 Tb 0.298883(7) 1.730138(15) 0.955562(7)
Tb1A_2 Tb -0.298883(7) 0.730138(15) 0.544438(7)
Tb1G Tb -0.201117(7) 0.769862(15) 0.455562(7)
O1A O 0.68603(15) 0.7731(2) 0.62359(13)
O2A O 0.62141(14) 0.7723(2) 0.56369(15)
O3F O 0.19795(12) 1.6286(2) 1.04242(12)
O3A O 0.69795(12) 0.8714(2) 0.54242(12)
O4F O 0.25041(12) 1.6566(2) 0.99606(12)
O4F_2 O 0.25041(12) 0.6566(2) 0.99606(12)
O4A O 0.75041(12) 0.8434(2) 0.49606(12)
O4G O 0.74959(12) 0.6566(2) 0.50394(12)
O5A O -0.21974(12) 0.7610(2) 0.58384(12)
O5A_2 O 0.78026(12) 0.7610(2) 0.58384(12)
O6A O -0.16319(12) 0.7525(3) 0.53662(12)
O6F O 0.33681(12) 0.7475(3) 1.03662(12)
O6G O 0.66319(12) 0.7475(3) 0.46338(12)
O7A O 0.64169(13) 0.6230(2) 0.52670(16)
O8A O 0.72367(15) 0.6225(3) 0.60110(14)
C1A C 0.6403(2) 0.7810(3) 0.6079(2)
C2A C 0.6120(4) 0.7960(8) 0.6463(4)
C3A C 0.6329(3) 0.7977(7) 0.6957(3)
H1A H 0.6676 0.7916 0.7057
C4A C 0.6051(3) 0.8079(6) 0.7302(3)
H2A H 0.6204 0.8064 0.7637
C5A C 0.5544(4) 0.8206(6) 0.7167(3)
C6A C 0.5333(3) 0.8214(6) 0.6674(4)
H3A H 0.4989 0.8305 0.6568
C7A C 0.5633(3) 0.8087(6) 0.6335(3)
H4A H 0.5485 0.8091 0.5998
C8A C 0.5243(3) 0.8229(5) 0.7536(3)
H5A H 0.5416 0.8246 0.7865
C9F C 0.22794(19) 1.6083(3) 1.0176(2)
C10F C 0.2379(2) 1.5231(4) 1.0143(3)
C11F C 0.2734(3) 1.4969(4) 0.9888(4)
H6F H 0.2914 1.5335 0.9735
C12F C 0.2821(3) 1.4153(4) 0.9864(4)
H7F H 0.3078 1.3974 0.9713
C13F C 0.2548(3) 1.3619(3) 1.0049(3)
C14F C 0.2199(3) 1.3890(4) 1.0300(3)
H8F H 0.2013 1.3520 1.0443
C15F C 0.2118(3) 1.4670(4) 1.0346(3)
H9F H 0.1877 1.4836 1.0522
C16F C 0.2633(4) 1.2779(4) 0.9974(4)
H10F H 0.2931 1.2651 0.9873
C17A C -0.17609(18) 0.7551(3) 0.57705(18)
C18A C -0.13632(19) 0.7532(4) 0.62180(19)
C19A C -0.0874(2) 0.7456(4) 0.6169(2)
H11A H -0.0794 0.7440 0.5855
C20A C -0.0505(2) 0.7405(4) 0.6585(2)
H12A H -0.0171 0.7346 0.6556
C21A C -0.0621(2) 0.7442(4) 0.7046(2)
C22A C -0.1116(2) 0.7496(5) 0.7085(2)
H13A H -0.1200 0.7502 0.7397
C23A C -0.1482(2) 0.7542(4) 0.66713(19)
H14A H -0.1817 0.7580 0.6700
C24A C -0.0243(2) 0.7420(5) 0.7498(2)
H15A H -0.0348 0.7406 0.7801
C25A C 0.5546(2) 0.5912(5) 0.5418(3)
H16A H 0.5580 0.6253 0.5705
H17A H 0.5675 0.5386 0.5518
H18A H 0.5198 0.5871 0.5260
C26A C 0.5786(3) 0.5557(5) 0.4580(3)
H19A H 0.5562 0.5168 0.4676
H20A H 0.6102 0.5304 0.4568
H21A H 0.5640 0.5770 0.4258
C27A C 0.7342(3) 0.6178(5) 0.6956(2)
H22A H 0.7350 0.6745 0.7028
H23A H 0.7674 0.5996 0.6942
H24A H 0.7222 0.5891 0.7213
C28A C 0.6953(3) 0.4955(5) 0.6403(3)
H25A H 0.6770 0.4749 0.6093
H26A H 0.6800 0.4767 0.6669
H27A H 0.7295 0.4770 0.6457
S1A S 0.58830(5) 0.63193(10) 0.50033(6)
S2A S 0.69427(6) 0.60024(11) 0.63898(6)
O9 O 0.1844(2) 0.4374(4) 0.8220(2)
C29 C 0.1479(5) 0.3999(8) 0.8993(4)
H28 H 0.1524 0.3439 0.8925
H29 H 0.1186 0.4062 0.9136
H30 H 0.1770 0.4194 0.9222
C30 C 0.1537(4) 0.5503(6) 0.8714(5)
H31 H 0.1832 0.5472 0.8974
H32 H 0.1257 0.5686 0.8849
H33 H 0.1596 0.5875 0.8464
S3 S 0.14023(11) 0.45422(19) 0.84453(11)
O10 O 0.0082(3) 0.9951(5) 1.1515(4)
C31 C 0.0773(4) 0.9065(6) 1.2092(4)
H34 H 0.1114 0.9106 1.2273
H35 H 0.0746 0.8626 1.1861
H36 H 0.0552 0.8972 1.2319
C32 C 0.0673(4) 1.0475(8) 1.2301(5)
H37 H 0.0994 1.0349 1.2505
H38 H 0.0411 1.0324 1.2472
H39 H 0.0654 1.1043 1.2234
S4 S 0.06019(15) 0.9967(2) 1.1765(2)
O11 O 0.3954(3) 0.7335(4) 0.6500(3)
C33 C 0.4511(4) 0.6545(6) 0.6011(4)
H40 H 0.4653 0.6016 0.6004
H41 H 0.4768 0.6942 0.6008
H42 H 0.4246 0.6616 0.5725
C34 C 0.3873(4) 0.5822(6) 0.6441(4)
H43 H 0.3713 0.5751 0.6720
H44 H 0.4066 0.5350 0.6401
H45 H 0.3622 0.5906 0.6145
S5 S 0.42708(12) 0.6655(2) 0.65435(12)
O12 O 0.1860(2) 0.9913(5) 0.7668(2)
C35 C 0.2162(4) 0.9390(5) 0.8545(3)
H46 H 0.1824 0.9310 0.8590
H47 H 0.2270 0.9925 0.8648
H48 H 0.2380 0.9004 0.8741
C36 C 0.2783(3) 0.9608(6) 0.7935(4)
H49 H 0.2820 0.9732 0.7603
H50 H 0.3022 0.9201 0.8073
H51 H 0.2842 1.0085 0.8136
S6 S 0.21834(9) 0.92636(16) 0.79233(8)
O13 O 0.4615(2) 1.0193(5) 1.0516(3)
C37 C 0.4651(3) 0.8727(5) 1.0229(3)
H52 H 0.4441 0.8283 1.0091
H53 H 0.4827 0.8590 1.0558
H54 H 0.4889 0.8841 1.0023
C38 C 0.4181(3) 0.9778(6) 0.9631(3)
H55 H 0.3980 1.0255 0.9555
H56 H 0.4011 0.9331 0.9448
H57 H 0.4501 0.9858 0.9538
S7 S 0.42730(9) 0.95825(17) 1.02582(11)
loop_
_geom_bond_atom_site_label_1
_geom_bond_atom_site_label_2
_geom_bond_site_symmetry_1
_geom_bond_site_symmetry_2
Tb1 O1 1_555 1_555
O1 C1 1_555 1_555
O2 Tb1 1_555 1_555
O3 Tb1 1_555 1_555
O4 Tb1 1_555 1_555
O5 Tb1 1_555 1_555
O6 C17 1_555 1_555
O7 Tb1 1_555 1_555
O8 Tb1 1_555 1_555
O9 S3 1_555 1_555
O10 S4 1_555 1_555
O11 S5 1_555 1_555
O12 S6 1_555 1_555
O13 S7 1_555 1_555
C1 O2 1_555 1_555
C2 C1 1_555 1_555
C3 C2 1_555 1_555
H1 C3 1_555 1_555
C4 C3 1_555 1_555
H2 C4 1_555 1_555
C5 C4 1_555 1_555
C6 C5 1_555 1_555
H3 C6 1_555 1_555
C7 C2 1_555 1_555
H4 C7 1_555 1_555
C8 C5 1_555 1_555
H5 C8 1_555 1_555
C9 O3 1_555 1_555
C10 C9 1_555 1_555
C11 C10 1_555 1_555
H6 C11 1_555 1_555
C12 C11 1_555 1_555
H7 C12 1_555 1_555
C13 C12 1_555 1_555
C14 C13 1_555 1_555
H8 C14 1_555 1_555
C15 C10 1_555 1_555
H9 C15 1_555 1_555
C16 C13 1_555 1_555
H10 C16 1_555 1_555
C17 O5 1_555 1_555
C18 C17 1_555 1_555
C19 C18 1_555 1_555
H11 C19 1_555 1_555
C20 C19 1_555 1_555
H12 C20 1_555 1_555
C21 C20 1_555 1_555
C22 C21 1_555 1_555
H13 C22 1_555 1_555
C23 C18 1_555 1_555
H14 C23 1_555 1_555
C24 C21 1_555 1_555
H15 C24 1_555 1_555
C25 H16 1_555 1_555
H17 C25 1_555 1_555
H18 C25 1_555 1_555
C26 H19 1_555 1_555
H20 C26 1_555 1_555
H21 C26 1_555 1_555
C27 H22 1_555 1_555
H23 C27 1_555 1_555
H24 C27 1_555 1_555
C28 H25 1_555 1_555
H26 C28 1_555 1_555
H27 C28 1_555 1_555
C29 H28 1_555 1_555
H29 C29 1_555 1_555
H30 C29 1_555 1_555
C30 H31 1_555 1_555
H32 C30 1_555 1_555
H33 C30 1_555 1_555
C31 H34 1_555 1_555
H35 C31 1_555 1_555
H36 C31 1_555 1_555
C32 H37 1_555 1_555
H38 C32 1_555 1_555
H39 C32 1_555 1_555
C33 H40 1_555 1_555
H41 C33 1_555 1_555
H42 C33 1_555 1_555
C34 H43 1_555 1_555
H44 C34 1_555 1_555
H45 C34 1_555 1_555
C35 H46 1_555 1_555
H47 C35 1_555 1_555
H48 C35 1_555 1_555
C36 H49 1_555 1_555
H50 C36 1_555 1_555
H51 C36 1_555 1_555
C37 H52 1_555 1_555
H53 C37 1_555 1_555
H54 C37 1_555 1_555
C38 H55 1_555 1_555
H56 C38 1_555 1_555
H57 C38 1_555 1_555
S1 O7 1_555 1_555
S2 O8 1_555 1_555
S3 C29 1_555 1_555
S4 C31 1_555 1_555
S5 C33 1_555 1_555
S6 C35 1_555 1_555
S7 C37 1_555 1_555
Tb1A O1A 1_555 1_555
Tb1F O4 1_555 1_555
Tb1F_2 O3F 1_555 1_555
Tb1_2 O4F 1_555 1_555
Tb1A_2 O5A 1_555 1_555
Tb1G O6A 1_555 1_555
O1A C1A 1_555 1_555
O2A Tb1A 1_555 1_555
O3F C9F 1_555 1_555
O3A Tb1A 1_555 1_555
O4F Tb1F_2 1_555 1_555
O4F_2 Tb1 1_555 1_555
O4A Tb1A 1_555 1_555
O4G Tb1A 1_555 1_555
O5A C17A 1_555 1_555
O5A_2 Tb1A 1_555 1_555
O6A C17A 1_555 1_555
O6F Tb1 1_555 1_555
O6G Tb1A 1_555 1_555
O7A Tb1A 1_555 1_555
O8A Tb1A 1_555 1_555
C1A O2A 1_555 1_555
C2A C1A 1_555 1_555
C3A C2A 1_555 1_555
H1A C3A 1_555 1_555
C4A C3A 1_555 1_555
H2A C4A 1_555 1_555
C5A C4A 1_555 1_555
C6A C5A 1_555 1_555
H3A C6A 1_555 1_555
C7A C2A 1_555 1_555
H4A C7A 1_555 1_555
C8A C8 1_555 1_555
H5A C8A 1_555 1_555
C9F O4F 1_555 1_555
C10F C9F 1_555 1_555
C11F C10F 1_555 1_555
H6F C11F 1_555 1_555
C12F C11F 1_555 1_555
H7F C12F 1_555 1_555
C13F C12F 1_555 1_555
C14F C13F 1_555 1_555
H8F C14F 1_555 1_555
C15F C10F 1_555 1_555
H9F C15F 1_555 1_555
C16F C16 1_555 1_555
H10F C16F 1_555 1_555
C17A C18A 1_555 1_555
C18A C19A 1_555 1_555
C19A H11A 1_555 1_555
C20A C19A 1_555 1_555
H12A C20A 1_555 1_555
C21A C20A 1_555 1_555
C22A C21A 1_555 1_555
H13A C22A 1_555 1_555
C23A C18A 1_555 1_555
H14A C23A 1_555 1_555
C24A C24 1_555 1_555
H15A C24A 1_555 1_555
C25A H16A 1_555 1_555
H17A C25A 1_555 1_555
H18A C25A 1_555 1_555
C26A H19A 1_555 1_555
H20A C26A 1_555 1_555
H21A C26A 1_555 1_555
C27A H22A 1_555 1_555
H23A C27A 1_555 1_555
H24A C27A 1_555 1_555
C28A H25A 1_555 1_555
H26A C28A 1_555 1_555
H27A C28A 1_555 1_555
S1A O7A 1_555 1_555
S2A O8A 1_555 1_555
O4 C9 1_555 1_555
O6 Tb1F 1_555 1_555
C6 C7 1_555 1_555
C14 C15 1_555 1_555
C22 C23 1_555 1_555
C25 S1 1_555 1_555
C26 S1 1_555 1_555
C27 S2 1_555 1_555
C28 S2 1_555 1_555
C30 S3 1_555 1_555
C32 S4 1_555 1_555
C34 S5 1_555 1_555
C36 S6 1_555 1_555
C38 S7 1_555 1_555
Tb1F O4F_2 1_555 1_555
C5A C8A 1_555 1_555
C6A C7A 1_555 1_555
C13F C16F 1_555 1_555
C14F C15F 1_555 1_555
C21A C24A 1_555 1_555
C22A C23A 1_555 1_555
C25A S1A 1_555 1_555
C26A S1A 1_555 1_555
C27A S2A 1_555 1_555
C28A S2A 1_555 1_555

#END
