
#######################################################################
#
#                 Cambridge Crystallographic Data Centre
#                                CCDC 
#
#######################################################################
#
# If this CIF has been generated from an entry in the Cambridge 
# Structural Database, then it will include bibliographic, chemical, 
# crystal, experimental, refinement or atomic coordinate data resulting 
# from the CCDC's data processing and validation procedures.
#
#######################################################################

data_WAHFUJ
_chemical_formula_moiety         '(C18 H17 Cu1 N5 O9)n'
_symmetry_cell_setting           monoclinic
_symmetry_space_group_name_H-M   'P 21/n'
_symmetry_Int_Tables_number      14
_space_group_name_Hall           '-P 2yn'
loop_
_symmetry_equiv_pos_site_id
_symmetry_equiv_pos_as_xyz
1 x,y,z
2 1/2-x,1/2+y,1/2-z
3 -x,-y,-z
4 1/2+x,1/2-y,1/2+z
_cell_length_a                   10.7961(3)
_cell_length_b                   8.7950(2)
_cell_length_c                   25.1748(7)
_cell_angle_alpha                90
_cell_angle_beta                 98.811(2)
_cell_angle_gamma                90
_cell_volume                     2362.18
loop_
_atom_site_label
_atom_site_type_symbol
_atom_site_fract_x
_atom_site_fract_y
_atom_site_fract_z
Cu1 Cu 0.83861(3) 0.21905(5) 0.263358(14)
O1 O 1.0095(2) 0.1779(3) 0.25196(10)
N1 N 0.7728(2) 0.1808(3) 0.18547(10)
O2 O 1.0347(2) -0.0034(3) 0.31456(13)
N2 N 1.5024(3) -0.0719(4) 0.35902(13)
O3 O 1.6081(3) -0.0260(4) 0.37332(12)
N3 N 0.3990(3) 0.2350(3) -0.15841(11)
N4 N 0.6314(3) 0.1351(5) 0.02122(12)
C1 C 1.4217(3) 0.0104(4) 0.31696(13)
C2 C 1.2126(3) 0.0845(4) 0.28001(14)
C3 C 1.4737(3) 0.0898(4) 0.27775(13)
C4 C 0.6249(3) 0.2549(4) 0.11019(15)
H1 H 0.5573 0.3155 0.0960
C5 C 0.6756(3) 0.2659(4) 0.16302(14)
H2 H 0.6413 0.3355 0.1845
O4 O 1.4585(3) -0.1865(4) 0.37745(15)
C6 C 0.6753(4) 0.1527(5) 0.07833(13)
C7 C 0.7734(4) 0.0625(5) 0.10051(14)
H3 H 0.8082 -0.0081 0.0796
C8 C 0.5013(4) 0.2159(5) -0.05114(15)
C9 C 1.2614(3) 0.1610(5) 0.24006(15)
H4 H 1.2074 0.2105 0.2133
C10 C 1.3904(3) 0.1657(5) 0.23903(15)
H5 H 1.4209 0.2201 0.2121
C11 C 1.2953(3) 0.0072(4) 0.31839(14)
H6 H 1.2647 -0.0471 0.3453
C12 C 1.0742(3) 0.0826(4) 0.28318(15)
C13 C 0.8198(3) 0.0787(4) 0.15472(13)
H7 H 0.8854 0.0167 0.1701
C14 C 0.5499(4) 0.1285(5) -0.08895(15)
H8 H 0.6166 0.0625 -0.0787
N5 N 0.5491(4) 0.2239(5) 0.00496(14)
C15 C 0.4962(3) 0.1423(4) -0.14243(14)
H9 H 0.5289 0.0853 -0.1681
C16 C 0.3525(4) 0.3156(5) -0.12117(14)
H10 H 0.2837 0.3780 -0.1319
C17 C 0.4019(4) 0.3103(6) -0.06785(16)
H11 H 0.3683 0.3702 -0.0431
O5 O 1.6599(2) -0.0272(3) 0.26015(10)
C18 C 1.6109(3) 0.0907(4) 0.27278(12)
O6 O 1.6643(2) 0.2190(3) 0.27946(9)
Cu1_2 Cu 1.83861(3) 0.21905(5) 0.263358(14)
Cu1A Cu 1.66139(3) -0.28095(5) 0.236642(14)
Cu1C Cu 0.33861(3) 0.28095(5) -0.236642(14)
N3C N 0.8990(3) 0.2650(3) 0.34159(11)
O5A O 0.8401(2) 0.4728(3) 0.23985(10)
O6_2 O 0.6643(2) 0.2190(3) 0.27946(9)
O7 O 1.119(2) -0.243(7) 0.065(2)
O8 O 1.414(4) -0.297(6) 0.4912(15)
O9 O 1.174(2) -0.053(2) 0.4358(8)
loop_
_geom_bond_atom_site_label_1
_geom_bond_atom_site_label_2
_geom_bond_site_symmetry_1
_geom_bond_site_symmetry_2
Cu1 O1 1_555 1_555
O1 C12 1_555 1_555
N1 Cu1 1_555 1_555
O2 C12 1_555 1_555
N2 O3 1_555 1_555
N3 C15 1_555 1_555
N4 C6 1_555 1_555
C1 N2 1_555 1_555
C2 C9 1_555 1_555
C3 C1 1_555 1_555
C4 H1 1_555 1_555
C5 N1 1_555 1_555
H2 C5 1_555 1_555
O4 N2 1_555 1_555
C6 C4 1_555 1_555
C7 C6 1_555 1_555
H3 C7 1_555 1_555
C8 C14 1_555 1_555
C9 H4 1_555 1_555
C10 C3 1_555 1_555
H5 C10 1_555 1_555
C11 C1 1_555 1_555
H6 C11 1_555 1_555
C12 C2 1_555 1_555
C13 N1 1_555 1_555
H7 C13 1_555 1_555
C14 H8 1_555 1_555
N5 N4 1_555 1_555
C15 C14 1_555 1_555
H9 C15 1_555 1_555
C16 N3 1_555 1_555
H10 C16 1_555 1_555
C17 C8 1_555 1_555
H11 C17 1_555 1_555
O5 C18 1_555 1_555
C18 C3 1_555 1_555
O6 C18 1_555 1_555
Cu1_2 O6 1_555 1_555
Cu1A O5 1_555 1_555
Cu1C N3 1_555 1_555
N3C Cu1 1_555 1_555
O5A Cu1 1_555 1_555
O6_2 Cu1 1_555 1_555
C2 C11 1_555 1_555
C4 C5 1_555 1_555
C7 C13 1_555 1_555
C8 N5 1_555 1_555
C9 C10 1_555 1_555
C16 C17 1_555 1_555

#END
