
#######################################################################
#
#                 Cambridge Crystallographic Data Centre
#                                CCDC 
#
#######################################################################
#
# If this CIF has been generated from an entry in the Cambridge 
# Structural Database, then it will include bibliographic, chemical, 
# crystal, experimental, refinement or atomic coordinate data resulting 
# from the CCDC's data processing and validation procedures.
#
#######################################################################

data_VUSKEA
_chemical_formula_moiety         '(C48 H24 O26 Zn8)n'
_symmetry_cell_setting           monoclinic
_symmetry_space_group_name_H-M   'C 2/m'
_symmetry_Int_Tables_number      12
_space_group_name_Hall           '-C 2y'
loop_
_symmetry_equiv_pos_site_id
_symmetry_equiv_pos_as_xyz
1 x,y,z
2 -x,y,-z
3 1/2+x,1/2+y,z
4 1/2-x,1/2+y,-z
5 -x,-y,-z
6 x,-y,z
7 1/2-x,1/2-y,-z
8 1/2+x,1/2-y,z
_cell_length_a                   31.6131(7)
_cell_length_b                   18.252
_cell_length_c                   18.252
_cell_angle_alpha                90
_cell_angle_beta                 125.26
_cell_angle_gamma                90
_cell_volume                     8599.36
loop_
_atom_site_label
_atom_site_type_symbol
_atom_site_fract_x
_atom_site_fract_y
_atom_site_fract_z
Zn1 Zn 0.29394(9) 0.0000 0.38133(14)
Zn2 Zn 0.29376(9) 0.0000 0.20614(14)
Zn3 Zn 0.20617(6) 0.08744(8) 0.20624(10)
O1 O 0.2498(4) 0.0000 0.2503(6)
O2 O 0.3674(5) 0.0000 0.4314(10)
O3 O 0.3697(6) 0.0000 0.3100(13)
C1 C 0.3886(12) 0.0000 0.393(2)
C2 C 0.4458(9) 0.0000 0.4452(16)
C3 C 0.4730(10) 0.0000 0.4097(18)
H1 H 0.4556 0.0000 0.3477
C4 C 0.4742(10) 0.0000 0.5367(18)
H2 H 0.4567 0.0000 0.5638
O4 O 0.2820(5) -0.0864(6) 0.4321(7)
O5 O 0.2163(5) -0.1500(6) 0.3020(8)
C5 C 0.2490(7) -0.1388(11) 0.3862(14)
C6 C 0.2498(6) -0.1977(8) 0.4474(11)
C7 C 0.2186(8) -0.2538(12) 0.4120(14)
H3 H 0.1964 -0.2573 0.3498
C8 C 0.2827(8) -0.1909(12) 0.5355(15)
H4 H 0.3054 -0.1515 0.5615
O6 O 0.2832(5) -0.0866(6) 0.1356(7)
O7 O 0.2181(5) -0.1488(6) 0.1316(7)
C9 C 0.2500(7) -0.1366(11) 0.1091(12)
C10 C 0.2494(6) -0.1945(9) 0.0538(10)
C11 C 0.2186(7) -0.2522(11) 0.0281(12)
H5 H 0.1965 -0.2563 0.0461
C12 C 0.2815(8) -0.1921(12) 0.0263(13)
H6 H 0.3041 -0.1527 0.0438
O8 O 0.1334(4) 0.0642(6) 0.1344(7)
C13 C 0.1152(9) 0.0000 0.1171(16)
C14 C 0.0535(9) 0.0000 0.0537(15)
C15 C 0.0274(6) 0.0639(12) 0.0285(13)
H7 H 0.0454 0.1080 0.0486
Zn1C Zn 0.20606(9) -0.5000 0.61867(14)
Zn1A Zn 0.70606(9) 0.0000 0.61867(14)
Zn1C_2 Zn 0.20606(9) 0.5000 0.61867(14)
Zn2A Zn 0.70624(9) 0.0000 0.79386(14)
Zn2C Zn 0.20624(9) -0.5000 -0.20614(14)
Zn2C_2 Zn 0.20624(9) 0.5000 -0.20614(14)
Zn2C_3 Zn 0.20624(9) -0.5000 0.79386(14)
Zn3E Zn 0.20617(6) -0.08744(8) 0.20624(10)
Zn3C Zn 0.29383(6) -0.41256(8) 0.79376(10)
Zn3F Zn 0.29383(6) 0.41256(8) 0.79376(10)
Zn3C_2 Zn 0.29383(6) -0.41256(8) -0.20624(10)
Zn3A Zn -0.20617(6) 0.08744(8) -0.20624(10)
Zn3D Zn -0.20617(6) -0.08744(8) -0.20624(10)
Zn3F_2 Zn 0.29383(6) 0.41256(8) -0.20624(10)
Zn3F_3 Zn 0.29383(6) -0.58744(8) 0.79376(10)
O1C O 0.2502(4) -0.5000 0.7497(6)
O1A O 0.7502(4) 0.0000 0.7497(6)
O1C_2 O 0.2502(4) 0.5000 0.7497(6)
O2A O 0.6326(5) 0.0000 0.5686(10)
O2C O 0.1326(5) -0.5000 0.5686(10)
O3A O 0.6303(6) 0.0000 0.6900(13)
C1A C 0.6114(12) 0.0000 0.607(2)
C2A C 0.5542(9) 0.0000 0.5548(16)
C3A C 0.5270(10) 0.0000 0.5903(18)
H1A H 0.5444 0.0000 0.6523
C4A C 0.5258(10) 0.0000 0.4633(18)
H2A H 0.5433 0.0000 0.4362
O4F O 0.2180(5) -0.4136(6) 0.5679(7)
O4E O 0.2820(5) 0.0864(6) 0.4321(7)
O4C O 0.2180(5) 0.4136(6) 0.5679(7)
O4C_2 O 0.2180(5) -0.5864(6) 0.5679(7)
O5F O 0.2837(5) -0.3500(6) 0.6980(8)
O5E O 0.2163(5) 0.1500(6) 0.3020(8)
O5C O 0.2837(5) 0.3500(6) 0.6980(8)
C5F C 0.2510(7) -0.3612(11) 0.6138(14)
C5E C 0.2490(7) 0.1388(11) 0.3862(14)
C5C C 0.2510(7) 0.3612(11) 0.6138(14)
C6F C 0.2502(6) -0.3023(8) 0.5526(11)
C6E C 0.2498(6) 0.1977(8) 0.4474(11)
C6C C 0.2502(6) 0.3023(8) 0.5526(11)
C7F C 0.2814(8) -0.2462(12) 0.5880(14)
C7E C 0.2186(8) 0.2538(12) 0.4120(14)
C7C C 0.2814(8) 0.2462(12) 0.5880(14)
H3F H 0.3036 -0.2427 0.6502
H3E H 0.1964 0.2573 0.3498
H3C H 0.3036 0.2427 0.6502
C8F C 0.2173(8) -0.3091(12) 0.4645(15)
C8E C 0.2827(8) 0.1909(12) 0.5355(15)
C8C C 0.2173(8) 0.3091(12) 0.4645(15)
H4F H 0.1946 -0.3485 0.4385
H4E H 0.3054 0.1515 0.5615
H4C H 0.1946 0.3485 0.4385
O6F O 0.2168(5) -0.4134(6) -0.1356(7)
O6E O 0.2832(5) 0.0866(6) 0.1356(7)
O6C O 0.2168(5) 0.4134(6) -0.1356(7)
O6A O 0.7168(5) -0.0866(6) 0.8644(7)
O6D O 0.7168(5) 0.0866(6) 0.8644(7)
O7F O 0.2819(5) -0.3512(6) -0.1316(7)
O7E O 0.2181(5) 0.1488(6) 0.1316(7)
O7C O 0.2819(5) 0.3512(6) -0.1316(7)
O7F_2 O 0.2819(5) -0.3512(6) 0.8684(7)
O7C_2 O 0.2819(5) 0.3512(6) 0.8684(7)
C9F C 0.2500(7) -0.3634(11) -0.1091(12)
C9E C 0.2500(7) 0.1366(11) 0.1091(12)
C9C C 0.2500(7) 0.3634(11) -0.1091(12)
C10F C 0.2506(6) -0.3055(9) -0.0538(10)
C10E C 0.2494(6) 0.1945(9) 0.0538(10)
C10C C 0.2506(6) 0.3055(9) -0.0538(10)
C11F C 0.2814(7) -0.2478(11) -0.0281(12)
C11E C 0.2186(7) 0.2522(11) 0.0281(12)
C11C C 0.2814(7) 0.2478(11) -0.0281(12)
H5F H 0.3035 -0.2437 -0.0461
H5E H 0.1965 0.2563 0.0461
H5C H 0.3035 0.2437 -0.0461
C12F C 0.2185(8) -0.3079(12) -0.0263(13)
C12E C 0.2815(8) 0.1921(12) 0.0263(13)
C12C C 0.2185(8) 0.3079(12) -0.0263(13)
H6F H 0.1959 -0.3473 -0.0438
H6E H 0.3041 0.1527 0.0438
H6C H 0.1959 0.3473 -0.0438
O8E O 0.1334(4) -0.0642(6) 0.1344(7)
O8A O -0.1334(4) 0.0642(6) -0.1344(7)
O8D O -0.1334(4) -0.0642(6) -0.1344(7)
O8C O 0.3666(4) -0.4358(6) 0.8656(7)
O8F O 0.3666(4) 0.4358(6) 0.8656(7)
C13A C -0.1152(9) -0.0000 -0.1171(16)
C14A C -0.0535(9) -0.0000 -0.0537(15)
C15A C -0.0274(6) 0.0639(12) -0.0285(13)
C15D C -0.0274(6) -0.0639(12) -0.0285(13)
C15E C 0.0274(6) -0.0639(12) 0.0285(13)
H7D H -0.0454 -0.1080 -0.0486
H7E H 0.0454 -0.1080 0.0486
H7A H -0.0454 0.1080 -0.0486
loop_
_geom_bond_atom_site_label_1
_geom_bond_atom_site_label_2
_geom_bond_site_symmetry_1
_geom_bond_site_symmetry_2
Zn1 O1 1_555 1_555
Zn2 O1 1_555 1_555
Zn3 O1 1_555 1_555
O1 Zn3E 1_555 1_555
O2 Zn1 1_555 1_555
O3 Zn2 1_555 1_555
C1 O2 1_555 1_555
C2 C1 1_555 1_555
C3 C2 1_555 1_555
H1 C3 1_555 1_555
C4 C2 1_555 1_555
H2 C4 1_555 1_555
O4 Zn1 1_555 1_555
O5 C5 1_555 1_555
C5 O4 1_555 1_555
C6 C5 1_555 1_555
C7 C6 1_555 1_555
H3 C7 1_555 1_555
C8 C6 1_555 1_555
H4 C8 1_555 1_555
O6 Zn2 1_555 1_555
O7 C9 1_555 1_555
C9 O6 1_555 1_555
C10 C9 1_555 1_555
C11 C10 1_555 1_555
H5 C11 1_555 1_555
C12 C10 1_555 1_555
H6 C12 1_555 1_555
O8 Zn3 1_555 1_555
C13 O8 1_555 1_555
C14 C13 1_555 1_555
C15 C14 1_555 1_555
H7 C15 1_555 1_555
Zn1C O1C 1_555 1_555
Zn1A O1A 1_555 1_555
Zn1C_2 O1C_2 1_555 1_555
Zn2A O1A 1_555 1_555
Zn2C O6F 1_555 1_555
Zn2C_2 O6C 1_555 1_555
Zn2C_3 O1C 1_555 1_555
Zn3E O5 1_555 1_555
Zn3C O1C 1_555 1_555
Zn3F O1C_2 1_555 1_555
Zn3C_2 O7F 1_555 1_555
Zn3A O8A 1_555 1_555
Zn3D O8D 1_555 1_555
Zn3F_2 O7C 1_555 1_555
Zn3F_3 O1C 1_555 1_555
O2A Zn1A 1_555 1_555
O2C Zn1C 1_555 1_555
O3A Zn2A 1_555 1_555
C1A O2A 1_555 1_555
C2A C1A 1_555 1_555
C3A C4 1_555 1_555
H1A C3A 1_555 1_555
C4A C3 1_555 1_555
H2A C4A 1_555 1_555
O4F Zn1C 1_555 1_555
O4E Zn1 1_555 1_555
O4C Zn1C_2 1_555 1_555
O4C_2 Zn1C 1_555 1_555
O5F Zn3C 1_555 1_555
O5E Zn3 1_555 1_555
O5C Zn3F 1_555 1_555
C5F O4F 1_555 1_555
C5E O4E 1_555 1_555
C5C O4C 1_555 1_555
C6F C5F 1_555 1_555
C6E C5E 1_555 1_555
C6C C5C 1_555 1_555
C7F C8 1_555 1_555
C7E C6E 1_555 1_555
C7C C6C 1_555 1_555
H3F C7F 1_555 1_555
H3E C7E 1_555 1_555
H3C C7C 1_555 1_555
C8F C7 1_555 1_555
C8E C6E 1_555 1_555
C8C C6C 1_555 1_555
H4F C8F 1_555 1_555
H4E C8E 1_555 1_555
H4C C8C 1_555 1_555
O6F C9F 1_555 1_555
O6E Zn2 1_555 1_555
O6C C9C 1_555 1_555
O6A Zn2A 1_555 1_555
O6D Zn2A 1_555 1_555
O7F C9F 1_555 1_555
O7E Zn3 1_555 1_555
O7C C9C 1_555 1_555
O7F_2 Zn3C 1_555 1_555
O7C_2 Zn3F 1_555 1_555
C9F C10F 1_555 1_555
C9E O6E 1_555 1_555
C9C C10C 1_555 1_555
C10F C11F 1_555 1_555
C10E C9E 1_555 1_555
C10C C11C 1_555 1_555
C11F C12 1_555 1_555
C11E C10E 1_555 1_555
C11C H5C 1_555 1_555
H5F C11F 1_555 1_555
H5E C11E 1_555 1_555
C12F C11 1_555 1_555
C12E C10E 1_555 1_555
C12C C10C 1_555 1_555
H6F C12F 1_555 1_555
H6E C12E 1_555 1_555
H6C C12C 1_555 1_555
O8E C13 1_555 1_555
O8A C13A 1_555 1_555
O8D C13A 1_555 1_555
O8C Zn3C 1_555 1_555
O8F Zn3F 1_555 1_555
C13A C14A 1_555 1_555
C14A C15A 1_555 1_555
C15A C15 1_555 1_555
C15D C14A 1_555 1_555
C15E C14 1_555 1_555
H7D C15D 1_555 1_555
H7E C15E 1_555 1_555
H7A C15A 1_555 1_555
O3 C1 1_555 1_555
O7 Zn3E 1_555 1_555
Zn3E O8E 1_555 1_555
O3A C1A 1_555 1_555
C2A C3A 1_555 1_555
C2A C4A 1_555 1_555
O5F C5F 1_555 1_555
O5E C5E 1_555 1_555
O5C C5C 1_555 1_555
C6F C7F 1_555 1_555
C6F C8F 1_555 1_555
C7E C8C 1_555 1_555
C7C C8E 1_555 1_555
O7E C9E 1_555 1_555
C10F C12F 1_555 1_555
C11E C12C 1_555 1_555
C11C C12E 1_555 1_555
C15D C15E 1_555 1_555

#END
