
#######################################################################
#
#                 Cambridge Crystallographic Data Centre
#                                CCDC 
#
#######################################################################
#
# If this CIF has been generated from an entry in the Cambridge 
# Structural Database, then it will include bibliographic, chemical, 
# crystal, experimental, refinement or atomic coordinate data resulting 
# from the CCDC's data processing and validation procedures.
#
#######################################################################

data_LIWXIZ
_chemical_formula_moiety         '(C31 H22 N4 O10 Zn2)n'
_symmetry_cell_setting           monoclinic
_symmetry_space_group_name_H-M   'P 21'
_symmetry_Int_Tables_number      4
_space_group_name_Hall           'P 2yb'
loop_
_symmetry_equiv_pos_site_id
_symmetry_equiv_pos_as_xyz
1 x,y,z
2 -x,1/2+y,-z
_cell_length_a                   11.7710(3)
_cell_length_b                   4.7890(7)
_cell_length_c                   26.3290(16)
_cell_angle_alpha                90
_cell_angle_beta                 96.8220(10)
_cell_angle_gamma                90
_cell_volume                     1473.69
loop_
_atom_site_label
_atom_site_type_symbol
_atom_site_fract_x
_atom_site_fract_y
_atom_site_fract_z
Zn1 Zn 0.90459(5) 0.70447(15) 0.449362(16)
Zn2 Zn 0.17585(3) 1.72262(8) 0.029480(13)
C1 C 0.8837(5) 0.5550(11) 0.54326(17)
C2 C 0.8689(4) 0.4941(9) 0.59808(14)
C3 C 0.7865(4) 0.2968(10) 0.60695(15)
H1 H 0.7433 0.2102 0.5795
C4 C 0.7689(3) 0.2292(13) 0.65668(12)
H2 H 0.7129 0.0998 0.6625
C5 C 0.8347(3) 0.3546(9) 0.69801(13)
C6 C 0.9150(3) 0.5523(9) 0.68899(14)
H3 H 0.9577 0.6389 0.7166
C7 C 0.9337(4) 0.6256(9) 0.63914(14)
C8 C 1.0210(4) 0.8427(10) 0.63234(16)
C9 C 0.8116(3) 0.2855(8) 0.75106(13)
C10 C 0.8980(3) 0.3702(8) 0.79473(13)
C11 C 1.0146(3) 0.3191(9) 0.79524(13)
H4 H 1.0419 0.2288 0.7679
C12 C 1.0884(3) 0.4032(9) 0.83642(14)
H5 H 1.1662 0.3696 0.8363
C13 C 1.0520(3) 0.5360(8) 0.87818(13)
C14 C 0.9343(3) 0.5899(7) 0.87755(12)
C15 C 0.8598(3) 0.5032(8) 0.83628(13)
H6 H 0.7818 0.5346 0.8363
C16 C 0.8861(3) 0.7453(9) 0.91967(12)
C17 C 1.1364(3) 0.6131(9) 0.92333(14)
C18 C 0.7277(4) 0.8017(10) 0.36262(16)
H7 H 0.7605 0.6681 0.3433
C19 C 0.7002(6) 1.0835(12) 0.4228(2)
H8 H 0.7098 1.1814 0.4535
C20 C 0.6115(5) 1.1135(12) 0.3858(2)
H9 H 0.5503 1.2358 0.3862
C21 C 0.5559(4) 0.8809(12) 0.29941(19)
H10 H 0.4766 0.8796 0.3060
H11 H 0.5732 0.6981 0.2864
C22 C 0.5703(4) 1.0960(9) 0.25899(16)
C23 C 0.6761(4) 1.1790(12) 0.24663(16)
H12 H 0.7420 1.1118 0.2657
C24 C 0.6857(4) 1.3590(10) 0.20667(16)
H13 H 0.7579 1.4093 0.1988
C25 C 0.5894(3) 1.4663(9) 0.17805(15)
C26 C 0.4837(4) 1.3902(11) 0.19081(17)
H14 H 0.4179 1.4617 0.1723
C27 C 0.4743(3) 1.2073(14) 0.23115(15)
H15 H 0.4022 1.1594 0.2395
C28 C 0.6014(3) 1.6652(9) 0.13418(14)
H16 H 0.5984 1.8559 0.1463
H17 H 0.6753 1.6371 0.1221
C29 C 0.4102(3) 1.7600(8) 0.08411(13)
H18 H 0.3905 1.9127 0.1030
C30 C 0.4053(3) 1.4282(9) 0.02852(15)
H19 H 0.3797 1.3098 0.0016
C31 C 0.5088(3) 1.4141(8) 0.05664(15)
H20 H 0.5668 1.2867 0.0528
N1 N 0.7739(4) 0.8870(9) 0.40812(13)
N2 N 0.6287(4) 0.9292(9) 0.34759(14)
N3 N 0.5114(2) 1.6233(6) 0.09186(11)
N4 N 0.3436(2) 1.6458(6) 0.04593(11)
O1 O 0.8131(3) 0.6951(12) 0.51548(12)
O2 O 0.9646(4) 0.4433(8) 0.52362(11)
O3 O 1.0252(3) 0.9154(8) 0.58589(11)
O4 O 1.0825(3) 0.9360(9) 0.66944(12)
O5 O 0.7233(3) 0.1700(10) 0.75849(10)
O6 O 0.8960(2) 1.0081(5) 0.91906(10)
O7 O 0.8300(2) 0.6193(5) 0.95003(9)
O8 O 1.2386(2) 0.6184(9) 0.91934(11)
O9 O 1.0916(2) 0.6612(6) 0.96402(9)
Zn1A Zn 1.09541(5) 0.20447(15) 0.550638(16)
Zn1A_2 Zn 1.09541(5) 1.20447(15) 0.550638(16)
Zn2A Zn 0.82415(3) 1.22262(8) 0.970520(13)
Zn2A_2 Zn 0.82415(3) 0.22262(8) 0.970520(13)
Zn2_2 Zn 1.17585(3) 0.72262(8) 1.029480(13)
O2A O 1.0354(4) 0.9433(8) 0.47638(11)
O3A O 0.9748(3) 0.4154(8) 0.41411(11)
O6A O 0.1040(2) 1.5081(5) 0.08094(10)
O7A O 0.1700(2) 2.1193(5) 0.04997(9)
O9_2 O 0.0916(2) 1.6612(6) -0.03598(9)
O10 O 1.4350(6) 0.212(2) 0.4803(3)
loop_
_geom_bond_atom_site_label_1
_geom_bond_atom_site_label_2
_geom_bond_site_symmetry_1
_geom_bond_site_symmetry_2
Zn1 N1 1_555 1_555
Zn2 N4 1_555 1_555
C1 C2 1_555 1_555
C2 C3 1_555 1_555
C3 H1 1_555 1_555
C4 C3 1_555 1_555
H2 C4 1_555 1_555
C5 C4 1_555 1_555
C6 C5 1_555 1_555
H3 C6 1_555 1_555
C7 C2 1_555 1_555
C8 C7 1_555 1_555
C9 C5 1_555 1_555
C10 C9 1_555 1_555
C11 C10 1_555 1_555
H4 C11 1_555 1_555
C12 C11 1_555 1_555
H5 C12 1_555 1_555
C13 C12 1_555 1_555
C14 C13 1_555 1_555
C15 C10 1_555 1_555
H6 C15 1_555 1_555
C16 C14 1_555 1_555
C17 C13 1_555 1_555
C18 H7 1_555 1_555
C19 H8 1_555 1_555
C20 C19 1_555 1_555
H9 C20 1_555 1_555
C21 H10 1_555 1_555
H11 C21 1_555 1_555
C22 C21 1_555 1_555
C23 C22 1_555 1_555
H12 C23 1_555 1_555
C24 C23 1_555 1_555
H13 C24 1_555 1_555
C25 C24 1_555 1_555
C26 C25 1_555 1_555
H14 C26 1_555 1_555
C27 C22 1_555 1_555
H15 C27 1_555 1_555
C28 C25 1_555 1_555
H16 C28 1_555 1_555
H17 C28 1_555 1_555
C29 H18 1_555 1_555
C30 H19 1_555 1_555
C31 C30 1_555 1_555
H20 C31 1_555 1_555
N1 C18 1_555 1_555
N2 C18 1_555 1_555
N3 C28 1_555 1_555
N4 C29 1_555 1_555
O1 Zn1 1_555 1_555
O2 Zn1 1_555 1_555
O3 C8 1_555 1_555
O4 C8 1_555 1_555
O5 C9 1_555 1_555
O6 C16 1_555 1_555
O7 C16 1_555 1_555
O8 C17 1_555 1_555
O9 C17 1_555 1_555
Zn1A O2 1_555 1_555
Zn1A_2 O3 1_555 1_555
Zn2A O6 1_555 1_555
Zn2A_2 O7 1_555 1_555
Zn2_2 O9 1_555 1_555
O2A Zn1 1_555 1_555
O3A Zn1 1_555 1_555
O6A Zn2 1_555 1_555
O7A Zn2 1_555 1_555
O9_2 Zn2 1_555 1_555
C1 O1 1_555 1_555
C1 O2 1_555 1_555
C6 C7 1_555 1_555
C14 C15 1_555 1_555
C19 N1 1_555 1_555
C20 N2 1_555 1_555
C21 N2 1_555 1_555
C26 C27 1_555 1_555
C29 N3 1_555 1_555
C30 N4 1_555 1_555
C31 N3 1_555 1_555
Zn1A_2 O2A 1_555 1_555

#END
