
#######################################################################
#
#                 Cambridge Crystallographic Data Centre
#                                CCDC 
#
#######################################################################
#
# If this CIF has been generated from an entry in the Cambridge 
# Structural Database, then it will include bibliographic, chemical, 
# crystal, experimental, refinement or atomic coordinate data resulting 
# from the CCDC's data processing and validation procedures.
#
#######################################################################

data_DARJUD
_chemical_formula_moiety         '(C4 H12 Al3 N1 O16 P4 Zn1)n'
_symmetry_cell_setting           monoclinic
_symmetry_space_group_name_H-M   'P 21/c'
_symmetry_Int_Tables_number      14
_space_group_name_Hall           '-P 2ybc'
loop_
_symmetry_equiv_pos_site_id
_symmetry_equiv_pos_as_xyz
1 x,y,z
2 -x,1/2+y,1/2-z
3 -x,-y,-z
4 x,1/2-y,1/2+z
_cell_length_a                   8.885(7)
_cell_length_b                   14.231(11)
_cell_length_c                   15.049(11)
_cell_angle_alpha                90
_cell_angle_beta                 94.957(12)
_cell_angle_gamma                90
_cell_volume                     1895.72
loop_
_atom_site_label
_atom_site_type_symbol
_atom_site_fract_x
_atom_site_fract_y
_atom_site_fract_z
Zn1 Zn 0.32124(10) 0.94097(6) 0.24364(6)
Al1 Al -0.12114(12) 0.94029(7) 0.09008(7)
Al2 Al 0.14067(13) 0.92949(7) 0.61507(7)
Al3 Al -0.07589(14) 0.78580(8) 0.33571(8)
O1 O -0.0037(5) 1.0379(3) 0.1224(3)
O2 O 0.2003(4) 0.9607(3) 0.5093(2)
P1 P 0.09925(14) 0.78182(8) 0.16227(8)
O3 O 0.2013(5) 1.0531(3) 0.0215(2)
O4 O 0.2654(5) 1.0467(3) 0.1851(3)
P2 P 0.14955(14) 1.07982(8) 0.11219(8)
O5 O 0.7342(5) 1.0246(3) 0.3009(2)
P3 P 0.14032(14) 0.94420(9) 0.41283(8)
O6 O 0.1460(5) 0.6927(2) 0.1178(3)
O7 O 0.0457(5) 0.8550(3) 0.4086(3)
P4 P 0.68561(14) 0.93384(8) 0.25361(8)
O8 O 0.7265(5) 0.9363(3) 0.1584(2)
O9 O 0.0442(5) 1.0264(3) 0.3776(3)
O10 O 0.2745(4) 0.9344(3) 0.3587(3)
O11 O -0.0130(5) 0.8345(3) 0.0998(3)
O12 O 0.7647(5) 0.8527(3) 0.3031(3)
O13 O 0.5191(4) 0.9204(4) 0.2517(3)
O14 O 0.0282(5) 0.7559(3) 0.2461(3)
O15 O 0.1386(5) 1.1859(2) 0.1155(3)
O16 O 0.2389(5) 0.8395(3) 0.1829(3)
Al1B Al 0.12114(12) 1.05971(7) -0.09008(7)
Al1_2 Al 0.87886(12) 0.94029(7) 0.09008(7)
Al2B Al 0.85933(13) 1.07051(7) 0.38493(7)
Al2C Al 0.14067(13) 0.57051(7) 0.11507(7)
Al2B_2 Al -0.14067(13) 1.07051(7) 0.38493(7)
Al3_2 Al 0.92411(14) 0.78580(8) 0.33571(8)
Al3A Al 0.07589(14) 1.28580(8) 0.16429(8)
O3B O -0.2013(5) 0.9469(3) -0.0215(2)
O5B O 0.2658(5) 0.9754(3) 0.6991(2)
O6C O 0.1460(5) 0.8073(2) 0.6178(3)
O8_2 O -0.2735(5) 0.9363(3) 0.1584(2)
O9B O -0.0442(5) 0.9736(3) 0.6224(3)
O12_2 O -0.2353(5) 0.8527(3) 0.3031(3)
O15A O -0.1386(5) 0.6859(2) 0.3845(3)
N1 N 0.481(2) 0.6928(15) 0.5516(15)
C1 C 0.3814(19) 0.6795(11) 0.3807(11)
C2 C 0.411(3) 0.640(2) 0.465(2)
C3 C 0.508(6) 0.803(3) 0.534(3)
C4 C 0.601(2) 0.8227(12) 0.6214(13)
loop_
_geom_bond_atom_site_label_1
_geom_bond_atom_site_label_2
_geom_bond_site_symmetry_1
_geom_bond_site_symmetry_2
Zn1 O4 1_555 1_555
Al1 O1 1_555 1_555
Al2 O2 1_555 1_555
Al3 O7 1_555 1_555
O1 P2 1_555 1_555
O2 P3 1_555 1_555
P1 O6 1_555 1_555
O3 P2 1_555 1_555
O4 P2 1_555 1_555
P2 O15 1_555 1_555
O5 P4 1_555 1_555
P3 O7 1_555 1_555
O6 Al2C 1_555 1_555
P4 O8 1_555 1_555
O8 Al1_2 1_555 1_555
O9 P3 1_555 1_555
O10 Zn1 1_555 1_555
O11 Al1 1_555 1_555
O12 P4 1_555 1_555
O13 Zn1 1_555 1_555
O14 Al3 1_555 1_555
O15 Al3A 1_555 1_555
O16 Zn1 1_555 1_555
N1 C2 1_555 1_555
C1 C2 1_555 1_555
C3 N1 1_555 1_555
C4 C3 1_555 1_555
Al1B O3 1_555 1_555
Al2B O5 1_555 1_555
Al2B_2 O9 1_555 1_555
Al3_2 O12 1_555 1_555
O3B Al1 1_555 1_555
O5B Al2 1_555 1_555
O6C Al2 1_555 1_555
O8_2 Al1 1_555 1_555
O9B Al2 1_555 1_555
O12_2 Al3 1_555 1_555
O15A Al3 1_555 1_555
P1 O11 1_555 1_555
P1 O14 1_555 1_555
P1 O16 1_555 1_555
P3 O10 1_555 1_555
P4 O13 1_555 1_555

#END
