
#######################################################################
#
#                 Cambridge Crystallographic Data Centre
#                                CCDC 
#
#######################################################################
#
# If this CIF has been generated from an entry in the Cambridge 
# Structural Database, then it will include bibliographic, chemical, 
# crystal, experimental, refinement or atomic coordinate data resulting 
# from the CCDC's data processing and validation procedures.
#
#######################################################################

data_MARPOL
_chemical_formula_moiety         '(C36 H94 Fe2 N24 Ni3 O14)n'
_symmetry_cell_setting           orthorhombic
_symmetry_space_group_name_H-M   'P b c a'
_symmetry_Int_Tables_number      61
_space_group_name_Hall           '-P 2ac 2ab'
loop_
_symmetry_equiv_pos_site_id
_symmetry_equiv_pos_as_xyz
1 x,y,z
2 1/2-x,-y,1/2+z
3 1/2+x,1/2-y,-z
4 -x,1/2+y,1/2-z
5 -x,-y,-z
6 1/2+x,y,1/2-z
7 1/2-x,1/2+y,z
8 x,1/2-y,1/2+z
_cell_length_a                   15.656(2)
_cell_length_b                   15.291(2)
_cell_length_c                   50.912(7)
_cell_angle_alpha                90
_cell_angle_beta                 90
_cell_angle_gamma                90
_cell_volume                     12188.1
loop_
_atom_site_label
_atom_site_type_symbol
_atom_site_fract_x
_atom_site_fract_y
_atom_site_fract_z
_atom_site_U_iso_or_equiv
_atom_site_thermal_displace_type
C1 C 0.6751(4) 0.7052(4) 0.44851(14) 0.0357 Uani
C2 C 0.6253(4) 0.7793(4) 0.43548(13) 0.0363 Uani
C3 C 0.5926(4) 0.8486(4) 0.45402(12) 0.0313 Uani
C4 C 0.4928(4) 0.8854(4) 0.48936(13) 0.0363 Uani
C5 C 0.4321(4) 0.8458(4) 0.50887(13) 0.0343 Uani
C6 C 0.4158(4) 0.7237(4) 0.53989(12) 0.0317 Uani
C7 C 0.4599(4) 0.6490(4) 0.55395(12) 0.0307 Uani
C8 C 0.4861(4) 0.5725(4) 0.53622(11) 0.0260 Uani
C9 C 0.6972(3) 0.8080(3) 0.52047(10) 0.0210 Uani
C10 C 0.6389(3) 0.9279(3) 0.55262(10) 0.0213 Uani
C11 C 0.7642(3) 0.8209(3) 0.56969(10) 0.0180 Uani
C12 C 0.8045(3) 0.9916(3) 0.56153(10) 0.0187 Uani
C13 C 0.8658(3) 0.8665(3) 0.52839(9) 0.0167 Uani
C14 C 0.7475(3) 0.9728(3) 0.50876(11) 0.0233 Uani
C15 C 0.5828(4) 0.7429(4) 0.61571(11) 0.0257 Uani
C16 C 0.5857(4) 0.8128(4) 0.63671(12) 0.0287 Uani
C17 C 0.6599(4) 0.8751(4) 0.63500(13) 0.0287 Uani
C18 C 0.8149(4) 0.8964(3) 0.63858(11) 0.0253 Uani
C19 C 0.8955(4) 0.8480(4) 0.64503(12) 0.0263 Uani
C20 C 0.9749(4) 0.7170(4) 0.63323(14) 0.0387 Uani
C21 C 0.9802(4) 0.6400(4) 0.61412(13) 0.0270 Uani
C22 C 0.9107(4) 0.5721(4) 0.61792(13) 0.0353 Uani
C23 C 0.7279(3) 0.6333(3) 0.68001(10) 0.0217 Uani
C24 C 0.7256(3) 0.5985(3) 0.73520(11) 0.0227 Uani
C25 C 0.6897(3) 0.4699(3) 0.70222(10) 0.0213 Uani
C26 C 0.5655(3) 0.5387(3) 0.73086(10) 0.0210 Uani
C27 C 0.5642(3) 0.5731(3) 0.67777(11) 0.0230 Uani
C28 C 0.5993(3) 0.7053(3) 0.71245(10) 0.0230 Uani
C29 C 0.4465(4) 0.5361(4) 0.80380(13) 0.0370 Uani
C30 C 0.5164(4) 0.5020(4) 0.82128(12) 0.0360 Uani
C31 C 0.5956(4) 0.4736(4) 0.80731(13) 0.0377 Uani
C32 C 0.6592(4) 0.3676(4) 0.77734(13) 0.0363 Uani
C33 C 0.6393(4) 0.2934(4) 0.75949(13) 0.0333 Uani
C34 C 0.5395(4) 0.2442(4) 0.72549(12) 0.0360 Uani
C35 C 0.4667(5) 0.2705(4) 0.70788(13) 0.0410 Uani
C36 C 0.3805(4) 0.2872(4) 0.72127(13) 0.0383 Uani
Fe1 Fe 0.75251(5) 0.89970(4) 0.540182(13) 0.0174 Uani
Fe2 Fe 0.64650(5) 0.58863(4) 0.706118(14) 0.0188 Uani
N1 N 0.6164(3) 0.6461(3) 0.46303(10) 0.0260 Uani
N2 N 0.5243(3) 0.8166(3) 0.47119(10) 0.0280 Uani
N3 N 0.4751(3) 0.7728(3) 0.52274(9) 0.0257 Uani
N4 N 0.5599(3) 0.5956(3) 0.51927(10) 0.0240 Uani
N5 N 0.6566(3) 0.7579(3) 0.50938(9) 0.0247 Uani
N6 N 0.5697(3) 0.9391(3) 0.56036(9) 0.0347 Uani
N7 N 0.7700(3) 0.7760(3) 0.58779(8) 0.0230 Uani
N8 N 0.8374(3) 1.0415(3) 0.57458(9) 0.0273 Uani
N9 N 0.9328(3) 0.8481(2) 0.52083(8) 0.0227 Uani
N10 N 0.7488(3) 1.0103(3) 0.48917(9) 0.0313 Uani
N11 N 0.6494(3) 0.6755(3) 0.61945(10) 0.0223 Uani
N12 N 0.7425(3) 0.8360(3) 0.64254(9) 0.0230 Uani
N13 N 0.9009(3) 0.7714(3) 0.62756(10) 0.0283 Uani
N14 N 0.8269(3) 0.6023(3) 0.60820(10) 0.0220 Uani
N15 N 0.7697(3) 0.6582(2) 0.66303(8) 0.0210 Uani
N16 N 0.7711(3) 0.5972(3) 0.75294(9) 0.0333 Uani
N17 N 0.7144(3) 0.3987(3) 0.70138(9) 0.0260 Uani
N18 N 0.5225(3) 0.5002(3) 0.74510(9) 0.0243 Uani
N19 N 0.5154(3) 0.5637(3) 0.66087(9) 0.0300 Uani
N20 N 0.5688(3) 0.7722(3) 0.71696(8) 0.0257 Uani
N21 N 0.4029(3) 0.4663(3) 0.78866(11) 0.0303 Uani
N22 N 0.5815(3) 0.3928(3) 0.79158(10) 0.0317 Uani
N23 N 0.5678(3) 0.3172(3) 0.74176(9) 0.0303 Uani
H1 H 0.5903 0.3579 0.7301 0.0360 Uiso
N24 N 0.3805(3) 0.3696(3) 0.73696(11) 0.0337 Uani
Ni1 Ni 0.54602(4) 0.70274(4) 0.493665(13) 0.0198 Uani
Ni2 Ni 0.77691(4) 0.71712(4) 0.624550(12) 0.0185 Uani
Ni3 Ni 0.47818(4) 0.38712(4) 0.764825(13) 0.0208 Uani
H2 H 0.648(4) 0.608(4) 0.4685(13) 0.0500 Uiso
H3 H 0.579(4) 0.628(3) 0.4502(11) 0.0340 Uiso
H4 H 0.717(4) 0.735(4) 0.4617(12) 0.0500 Uiso
H5 H 0.705(4) 0.677(4) 0.4353(12) 0.0380 Uiso
H6 H 0.574(3) 0.753(3) 0.4245(10) 0.0320 Uiso
H7 H 0.659(4) 0.806(4) 0.4236(14) 0.0700 Uiso
H8 H 0.639(3) 0.869(3) 0.4658(9) 0.0180 Uiso
H9 H 0.573(3) 0.898(3) 0.4464(10) 0.0290 Uiso
H10 H 0.486(3) 0.809(4) 0.4626(11) 0.0250 Uiso
H11 H 0.461(3) 0.936(4) 0.4797(11) 0.0390 Uiso
H12 H 0.542(3) 0.914(3) 0.4989(10) 0.0290 Uiso
H13 H 0.378(3) 0.821(3) 0.4996(8) 0.0060 Uiso
H14 H 0.412(4) 0.889(4) 0.5214(12) 0.0510 Uiso
H15 H 0.515(4) 0.795(4) 0.5313(11) 0.0320 Uiso
H16 H 0.364(3) 0.703(3) 0.5288(8) 0.0060 Uiso
H17 H 0.395(3) 0.761(3) 0.5534(10) 0.0240 Uiso
H18 H 0.422(3) 0.631(3) 0.5689(11) 0.0360 Uiso
H19 H 0.514(4) 0.671(4) 0.5635(11) 0.0410 Uiso
H20 H 0.503(3) 0.520(3) 0.5497(9) 0.0170 Uiso
H21 H 0.438(3) 0.563(3) 0.5240(9) 0.0090 Uiso
H22 H 0.578(4) 0.546(4) 0.5112(12) 0.0480 Uiso
H23 H 0.605(4) 0.603(4) 0.5309(13) 0.0600 Uiso
H24 H 0.639(4) 0.647(4) 0.6326(12) 0.0380 Uiso
H25 H 0.651(3) 0.638(3) 0.6051(11) 0.0270 Uiso
H26 H 0.520(3) 0.713(3) 0.6146(9) 0.0210 Uiso
H27 H 0.592(3) 0.764(2) 0.5982(8) 0.0000 Uiso
H28 H 0.536(3) 0.843(3) 0.6338(9) 0.0200 Uiso
H29 H 0.585(3) 0.790(3) 0.6539(9) 0.0110 Uiso
H30 H 0.669(4) 0.898(3) 0.6181(12) 0.0410 Uiso
H31 H 0.654(4) 0.925(4) 0.6482(12) 0.0560 Uiso
H32 H 0.736(3) 0.826(3) 0.6588(10) 0.0190 Uiso
H33 H 0.815(3) 0.916(3) 0.6198(9) 0.0080 Uiso
H34 H 0.803(3) 0.955(3) 0.6491(9) 0.0260 Uiso
H35 H 0.943(3) 0.885(3) 0.6434(9) 0.0170 Uiso
H36 H 0.897(3) 0.827(3) 0.6645(10) 0.0240 Uiso
H37 H 0.920(5) 0.786(5) 0.6116(15) 0.0800 Uiso
H38 H 1.029(3) 0.756(3) 0.6306(9) 0.0220 Uiso
H39 H 0.964(4) 0.696(4) 0.6526(15) 0.0800 Uiso
H40 H 1.035(3) 0.616(3) 0.6174(9) 0.0180 Uiso
H41 H 0.975(5) 0.665(5) 0.5975(15) 0.0800 Uiso
H42 H 0.906(3) 0.558(3) 0.6396(11) 0.0380 Uiso
H43 H 0.921(5) 0.514(5) 0.6070(14) 0.0800 Uiso
H44 H 0.830(4) 0.613(4) 0.5913(13) 0.0500 Uiso
H45 H 0.782(3) 0.566(3) 0.6084(10) 0.0310 Uiso
H46 H 0.364(5) 0.493(5) 0.7795(14) 0.0700 Uiso
H47 H 0.379(4) 0.435(4) 0.8007(11) 0.0350 Uiso
H48 H 0.474(4) 0.580(4) 0.7888(13) 0.0700 Uiso
H49 H 0.401(3) 0.570(3) 0.8134(10) 0.0260 Uiso
H50 H 0.534(4) 0.555(4) 0.8314(12) 0.0510 Uiso
H51 H 0.498(4) 0.453(4) 0.8296(12) 0.0490 Uiso
H52 H 0.608(3) 0.526(3) 0.7943(10) 0.0370 Uiso
H53 H 0.647(3) 0.464(3) 0.8190(9) 0.0130 Uiso
H54 H 0.577(3) 0.354(3) 0.8019(11) 0.0230 Uiso
H55 H 0.705(4) 0.352(4) 0.7904(12) 0.0600 Uiso
H56 H 0.680(3) 0.419(3) 0.7652(11) 0.0360 Uiso
H57 H 0.621(3) 0.249(3) 0.7703(9) 0.0110 Uiso
H58 H 0.691(4) 0.274(4) 0.7487(12) 0.0540 Uiso
H59 H 0.520(4) 0.192(4) 0.7389(12) 0.0600 Uiso
H60 H 0.595(3) 0.215(3) 0.7128(10) 0.0380 Uiso
H61 H 0.474(3) 0.322(3) 0.7019(10) 0.0240 Uiso
H62 H 0.456(3) 0.220(4) 0.6953(11) 0.0420 Uiso
H63 H 0.330(4) 0.290(4) 0.7045(13) 0.0700 Uiso
H64 H 0.364(4) 0.229(4) 0.7362(13) 0.0800 Uiso
H65 H 0.379(4) 0.412(4) 0.7226(13) 0.0600 Uiso
H66 H 0.335(4) 0.384(3) 0.7468(11) 0.0310 Uiso
N9B N 0.4328(3) 0.6519(2) 0.47917(8) 0.0227 Uani
N20C N 0.4312(3) 0.2722(3) 0.78304(8) 0.0257 Uani
Ni1B Ni 1.04602(4) 0.79726(4) 0.506335(13) 0.0198 Uani
Ni3C Ni 0.52182(4) 0.88712(4) 0.735175(13) 0.0208 Uani
O1 O 0.2831(2) 0.6234(2) 0.69234(7) 0.0340 Uani
O2 O 0.4042(2) 0.7333(2) 0.66977(7) 0.0333 Uani
O3 O 0.1676(3) 0.6631(3) 0.65296(11) 0.0737 Uani
O4 O 0.1404(3) 0.9632(3) 0.68254(8) 0.0490 Uani
O5 O 0.1830(3) 0.8486(2) 0.64071(8) 0.0433 Uani
O6 O 0.3412(2) 0.7879(2) 0.62087(8) 0.0400 Uani
O7 O 0.4131(3) 0.9161(3) 0.59009(8) 0.0437 Uani
O8 O 0.2693(2) 0.9935(3) 0.56857(8) 0.0413 Uani
O9 O 0.2123(3) 1.1189(3) 0.60692(9) 0.0550 Uani
O10 O 0.119(2) 0.917(2) 0.5919(6) 0.1420 Uiso
O11 O 0.3299(11) 0.4705(11) 0.1283(3) 0.1490 Uiso
O12 O 0.3422(15) 0.8554(15) 0.4518(5) 0.0900 Uiso
O13 O 0.0890(3) 0.9922(3) 0.61883(8) 0.0497 Uani
O14 O -0.0168(3) 0.8953(3) 0.58536(8) 0.0453 Uani
loop_
_atom_site_aniso_label
_atom_site_aniso_U_11
_atom_site_aniso_U_22
_atom_site_aniso_U_33
_atom_site_aniso_U_23
_atom_site_aniso_U_13
_atom_site_aniso_U_12
C1 0.028(3) 0.039(4) 0.040(4) 0.008(3) 0.009(3) -0.001(3)
C2 0.036(4) 0.035(3) 0.038(4) 0.014(3) -0.002(3) -0.008(3)
C3 0.034(4) 0.022(3) 0.038(4) 0.013(3) -0.005(3) -0.006(3)
C4 0.040(4) 0.018(3) 0.051(4) 0.001(3) -0.008(3) 0.009(3)
C5 0.028(3) 0.030(3) 0.045(4) -0.004(3) -0.005(3) 0.013(3)
C6 0.022(3) 0.037(3) 0.036(4) -0.011(3) 0.003(3) 0.005(3)
C7 0.031(3) 0.035(3) 0.026(3) 0.001(3) 0.003(3) -0.002(3)
C8 0.022(3) 0.029(3) 0.027(3) 0.009(2) -0.006(3) -0.006(2)
C9 0.018(3) 0.019(3) 0.026(3) 0.006(2) 0.001(2) 0.000(2)
C10 0.024(3) 0.020(3) 0.020(3) 0.004(2) -0.003(2) 0.000(2)
C11 0.014(3) 0.019(2) 0.021(3) -0.007(2) 0.003(2) -0.001(2)
C12 0.021(3) 0.015(2) 0.020(3) 0.003(2) 0.006(2) 0.002(2)
C13 0.022(3) 0.013(2) 0.015(3) 0.002(2) -0.005(2) -0.006(2)
C14 0.018(3) 0.018(3) 0.034(3) 0.003(2) 0.002(3) 0.001(2)
C15 0.023(3) 0.031(3) 0.023(3) -0.004(2) -0.002(3) 0.003(3)
C16 0.032(4) 0.030(3) 0.024(3) -0.003(3) 0.001(3) 0.008(3)
C17 0.031(3) 0.023(3) 0.032(4) -0.005(3) 0.003(3) 0.006(3)
C18 0.038(3) 0.015(3) 0.023(3) 0.005(2) -0.001(3) -0.010(2)
C19 0.024(3) 0.025(3) 0.030(3) -0.002(3) -0.001(3) -0.010(3)
C20 0.027(3) 0.031(3) 0.058(5) -0.004(3) -0.004(3) -0.001(3)
C21 0.018(3) 0.024(3) 0.039(4) 0.002(3) 0.001(3) -0.004(3)
C22 0.038(4) 0.027(3) 0.041(4) 0.001(3) 0.000(3) 0.001(3)
C23 0.022(3) 0.015(2) 0.028(3) -0.003(2) -0.004(3) 0.002(2)
C24 0.026(3) 0.015(2) 0.027(3) 0.003(2) 0.005(3) -0.004(2)
C25 0.019(3) 0.025(3) 0.020(3) 0.000(2) 0.004(2) -0.005(2)
C26 0.030(3) 0.015(2) 0.018(3) -0.002(2) -0.004(2) 0.000(2)
C27 0.026(3) 0.015(2) 0.028(3) -0.001(2) 0.009(3) 0.001(2)
C28 0.028(3) 0.020(3) 0.021(3) 0.001(2) 0.006(2) -0.003(2)
C29 0.045(4) 0.029(3) 0.037(4) -0.005(3) 0.011(3) 0.003(3)
C30 0.043(4) 0.033(3) 0.032(4) -0.009(3) 0.005(3) -0.005(3)
C31 0.035(4) 0.034(3) 0.044(4) -0.013(3) -0.007(3) -0.005(3)
C32 0.029(4) 0.040(4) 0.040(4) 0.004(3) 0.001(3) 0.008(3)
C33 0.028(3) 0.027(3) 0.045(4) 0.005(3) 0.006(3) 0.009(3)
C34 0.045(4) 0.028(3) 0.035(4) -0.002(3) 0.001(3) -0.001(3)
C35 0.057(5) 0.031(4) 0.035(4) -0.006(3) 0.003(3) 0.002(3)
C36 0.038(4) 0.036(3) 0.041(4) -0.011(3) 0.001(3) 0.000(3)
Fe1 0.0173(4) 0.0151(3) 0.0197(4) 0.0006(3) 0.0021(3) -0.0005(3)
Fe2 0.0235(4) 0.0141(3) 0.0189(4) 0.0005(3) 0.0023(3) 0.0000(3)
N1 0.026(3) 0.027(3) 0.025(3) 0.006(2) 0.000(2) 0.003(2)
N2 0.026(3) 0.023(2) 0.035(3) 0.008(2) -0.013(3) -0.001(2)
N3 0.018(3) 0.025(2) 0.034(3) -0.004(2) -0.004(2) 0.000(2)
N4 0.025(3) 0.018(2) 0.029(3) 0.001(2) -0.002(2) 0.003(2)
N5 0.021(2) 0.021(2) 0.032(3) 0.003(2) -0.003(2) -0.001(2)
N6 0.026(3) 0.044(3) 0.034(3) 0.003(2) 0.007(2) 0.006(2)
N7 0.026(3) 0.022(2) 0.021(2) -0.0017(19) 0.001(2) -0.0034(19)
N8 0.027(3) 0.027(2) 0.028(3) -0.005(2) 0.007(2) -0.001(2)
N9 0.020(2) 0.017(2) 0.031(3) 0.0007(19) 0.004(2) 0.0001(19)
N10 0.028(3) 0.030(2) 0.036(3) 0.011(2) 0.000(2) -0.005(2)
N11 0.024(3) 0.021(2) 0.022(3) 0.000(2) -0.001(2) -0.001(2)
N12 0.031(3) 0.019(2) 0.019(2) -0.0010(19) 0.005(2) -0.001(2)
N13 0.022(3) 0.025(2) 0.038(3) -0.009(2) -0.001(2) -0.005(2)
N14 0.021(3) 0.020(2) 0.025(3) 0.000(2) -0.004(2) -0.003(2)
N15 0.025(3) 0.018(2) 0.020(2) 0.0001(18) 0.002(2) 0.0011(19)
N16 0.037(3) 0.031(3) 0.032(3) 0.003(2) -0.005(2) -0.004(2)
N17 0.028(3) 0.020(2) 0.030(3) -0.001(2) -0.001(2) -0.001(2)
N18 0.026(3) 0.017(2) 0.030(3) 0.0040(19) 0.005(2) 0.005(2)
N19 0.028(3) 0.032(3) 0.030(3) -0.003(2) 0.000(2) 0.002(2)
N20 0.030(3) 0.021(2) 0.026(3) 0.0003(19) 0.005(2) 0.001(2)
N21 0.032(3) 0.026(3) 0.033(3) 0.003(2) 0.014(3) 0.001(2)
N22 0.029(3) 0.028(3) 0.038(3) 0.007(2) 0.005(2) 0.003(2)
N23 0.035(3) 0.026(2) 0.030(3) 0.000(2) 0.010(2) -0.003(2)
N24 0.029(3) 0.042(3) 0.030(3) 0.005(2) 0.002(3) 0.002(2)
Ni1 0.0180(3) 0.0163(3) 0.0252(4) 0.0019(3) -0.0042(3) -0.0009(3)
Ni2 0.0222(4) 0.0147(3) 0.0185(3) 0.0009(3) 0.0010(3) -0.0012(3)
Ni3 0.0216(4) 0.0155(3) 0.0254(4) 0.0013(3) 0.0039(3) -0.0004(3)
N9B 0.02 0.017 0.031 0.0007 -0.004 -0.0001
N20C 0.03 0.021 0.026 -0.0003 0.005 -0.001
Ni1B 0.018 0.0163 0.0252 0.0019 0.0042 0.0009
Ni3C 0.0216 0.0155 0.0254 -0.0013 0.0039 0.0004
O1 0.035(2) 0.034(2) 0.033(2) 0.0018(18) 0.0024(19) -0.0053(18)
O2 0.033(2) 0.031(2) 0.036(2) 0.0007(18) -0.0021(19) 0.0012(18)
O3 0.069(4) 0.046(3) 0.106(4) 0.026(3) -0.046(3) -0.020(3)
O4 0.054(3) 0.041(2) 0.052(3) 0.005(2) 0.002(2) -0.001(2)
O5 0.037(2) 0.039(2) 0.054(3) 0.009(2) 0.001(2) 0.001(2)
O6 0.035(2) 0.040(2) 0.045(3) 0.008(2) 0.005(2) 0.001(2)
O7 0.036(2) 0.054(3) 0.041(3) 0.007(2) 0.011(2) -0.002(2)
O8 0.033(2) 0.041(2) 0.050(3) 0.011(2) -0.001(2) -0.006(2)
O9 0.051(3) 0.048(3) 0.066(3) 0.013(2) 0.030(2) 0.009(2)
O13 0.052(3) 0.052(3) 0.045(3) -0.005(2) 0.002(2) 0.003(2)
O14 0.048(3) 0.044(2) 0.044(3) 0.006(2) 0.009(2) 0.000(2)
loop_
_geom_bond_atom_site_label_1
_geom_bond_atom_site_label_2
_geom_bond_site_symmetry_1
_geom_bond_site_symmetry_2
C1 C2 1_555 1_555
C2 C3 1_555 1_555
C3 N2 1_555 1_555
C4 C5 1_555 1_555
C5 N3 1_555 1_555
C6 C7 1_555 1_555
C7 C8 1_555 1_555
C8 N4 1_555 1_555
C9 Fe1 1_555 1_555
C10 Fe1 1_555 1_555
C11 Fe1 1_555 1_555
C12 Fe1 1_555 1_555
C13 Fe1 1_555 1_555
C14 Fe1 1_555 1_555
C15 C16 1_555 1_555
C16 C17 1_555 1_555
C17 N12 1_555 1_555
C18 C19 1_555 1_555
C19 N13 1_555 1_555
C20 C21 1_555 1_555
C21 C22 1_555 1_555
C22 N14 1_555 1_555
C23 Fe2 1_555 1_555
C24 Fe2 1_555 1_555
C25 Fe2 1_555 1_555
C26 Fe2 1_555 1_555
C27 Fe2 1_555 1_555
C28 Fe2 1_555 1_555
C29 C30 1_555 1_555
C30 C31 1_555 1_555
C31 N22 1_555 1_555
C32 C33 1_555 1_555
C33 N23 1_555 1_555
C34 C35 1_555 1_555
C35 C36 1_555 1_555
C36 N24 1_555 1_555
N1 C1 1_555 1_555
N2 C4 1_555 1_555
N3 C6 1_555 1_555
N4 Ni1 1_555 1_555
N5 C9 1_555 1_555
N6 C10 1_555 1_555
N7 C11 1_555 1_555
N8 C12 1_555 1_555
N9 C13 1_555 1_555
N10 C14 1_555 1_555
N11 C15 1_555 1_555
N12 C18 1_555 1_555
N13 C20 1_555 1_555
N14 Ni2 1_555 1_555
N15 C23 1_555 1_555
N16 C24 1_555 1_555
N17 C25 1_555 1_555
N18 C26 1_555 1_555
N19 C27 1_555 1_555
N20 C28 1_555 1_555
N21 C29 1_555 1_555
N22 C32 1_555 1_555
N23 C34 1_555 1_555
H1 N23 1_555 1_555
N24 Ni3 1_555 1_555
Ni1 N1 1_555 1_555
Ni2 N7 1_555 1_555
Ni3 N18 1_555 1_555
H2 N1 1_555 1_555
H3 N1 1_555 1_555
H4 C1 1_555 1_555
H5 C1 1_555 1_555
H6 C2 1_555 1_555
H7 C2 1_555 1_555
H8 C3 1_555 1_555
H9 C3 1_555 1_555
H10 N2 1_555 1_555
H11 C4 1_555 1_555
H12 C4 1_555 1_555
H13 C5 1_555 1_555
H14 C5 1_555 1_555
H15 N3 1_555 1_555
H16 C6 1_555 1_555
H17 C6 1_555 1_555
H18 C7 1_555 1_555
H19 C7 1_555 1_555
H20 C8 1_555 1_555
H21 C8 1_555 1_555
H22 N4 1_555 1_555
H23 N4 1_555 1_555
H24 N11 1_555 1_555
H25 N11 1_555 1_555
H26 C15 1_555 1_555
H27 C15 1_555 1_555
H28 C16 1_555 1_555
H29 C16 1_555 1_555
H30 C17 1_555 1_555
H31 C17 1_555 1_555
H32 N12 1_555 1_555
H33 C18 1_555 1_555
H34 C18 1_555 1_555
H35 C19 1_555 1_555
H36 C19 1_555 1_555
H37 N13 1_555 1_555
H38 C20 1_555 1_555
H39 C20 1_555 1_555
H40 C21 1_555 1_555
H41 C21 1_555 1_555
H42 C22 1_555 1_555
H43 C22 1_555 1_555
H44 N14 1_555 1_555
H45 N14 1_555 1_555
H46 N21 1_555 1_555
H47 N21 1_555 1_555
H48 C29 1_555 1_555
H49 C29 1_555 1_555
H50 C30 1_555 1_555
H51 C30 1_555 1_555
H52 C31 1_555 1_555
H53 C31 1_555 1_555
H54 N22 1_555 1_555
H55 C32 1_555 1_555
H56 C32 1_555 1_555
H57 C33 1_555 1_555
H58 C33 1_555 1_555
H59 C34 1_555 1_555
H60 C34 1_555 1_555
H61 C35 1_555 1_555
H62 C35 1_555 1_555
H63 C36 1_555 1_555
H64 C36 1_555 1_555
H65 N24 1_555 1_555
H66 N24 1_555 1_555
N9B Ni1 1_555 1_555
N20C Ni3 1_555 1_555
Ni1B N9 1_555 1_555
Ni3C N20 1_555 1_555
N2 Ni1 1_555 1_555
N3 Ni1 1_555 1_555
N5 Ni1 1_555 1_555
N11 Ni2 1_555 1_555
N12 Ni2 1_555 1_555
N13 Ni2 1_555 1_555
N15 Ni2 1_555 1_555
N21 Ni3 1_555 1_555
N22 Ni3 1_555 1_555
N23 Ni3 1_555 1_555

#END
