
#######################################################################
#
#                 Cambridge Crystallographic Data Centre
#                                CCDC 
#
#######################################################################
#
# If this CIF has been generated from an entry in the Cambridge 
# Structural Database, then it will include bibliographic, chemical, 
# crystal, experimental, refinement or atomic coordinate data resulting 
# from the CCDC's data processing and validation procedures.
#
#######################################################################

data_PEMGEV
_chemical_formula_moiety         'C64 H68 Ag8 F6 N8 O4 P1 S4 1-'
_symmetry_cell_setting           tetragonal
_symmetry_space_group_name_H-M   'I -4 2 d'
_symmetry_Int_Tables_number      122
_space_group_name_Hall           'I -4 2bw'
loop_
_symmetry_equiv_pos_site_id
_symmetry_equiv_pos_as_xyz
1 x,y,z
2 -x,-y,z
3 y,-x,-z
4 -y,x,-z
5 1/2-x,y,3/4-z
6 1/2+x,-y,3/4-z
7 1/2-y,-x,3/4+z
8 1/2+y,x,3/4+z
9 1/2+x,1/2+y,1/2+z
10 1/2-x,1/2-y,1/2+z
11 1/2+y,1/2-x,1/2-z
12 1/2-y,1/2+x,1/2-z
13 -x,1/2+y,1/4-z
14 x,1/2-y,1/4-z
15 -y,1/2-x,1/4+z
16 y,1/2+x,1/4+z
_cell_length_a                   23.7715(9)
_cell_length_b                   23.7715(9)
_cell_length_c                   14.1007(5)
_cell_angle_alpha                90
_cell_angle_beta                 90
_cell_angle_gamma                90
_cell_volume                     7968.08
loop_
_atom_site_label
_atom_site_type_symbol
_atom_site_fract_x
_atom_site_fract_y
_atom_site_fract_z
P1 P 0.6119(3) 0.7500 0.1250
F1 F 0.6097(6) 0.7155(6) 0.2294(8)
F2 F 0.6105(6) 0.6886(5) 0.0656(11)
F3 F 0.6811(3) 0.7500 0.1250
F4 F 0.5398(4) 0.7500 0.1250
F6 F 0.6097(6) 0.7845(6) 0.0206(8)
F2M F 0.6105(6) 0.8114(5) 0.1844(11)
Ag1 Ag 1.04852(7) 0.23302(7) 1.10694(15)
S1 S 1.06955(8) 0.14891(8) 0.98959(17)
C1 C 1.0064(3) 0.1251(3) 0.9380(6)
C2 C 0.9592(3) 0.1104(3) 0.9924(6)
C3 C 1.0910(3) 0.0887(3) 1.0544(6)
C4 C 1.0888(4) 0.0908(4) 1.1543(7)
H1 H 1.0747 0.1236 1.1845
C5 C 1.0035(4) 0.1226(4) 0.8379(6)
H2 H 1.0360 0.1319 0.8018
C6 C 1.1068(4) 0.0457(4) 1.2096(7)
O1 O 0.9609(2) 0.1166(2) 1.0878(4)
C7 C 0.9368(6) 0.1687(4) 1.1171(8)
H3 H 0.8956 0.1676 1.1079
H4 H 0.9521 0.1996 1.0777
C8 C 0.9500(5) 0.1796(4) 1.2199(7)
N1 N 0.9975(4) 0.2077(3) 1.2402(6)
C9 C 1.0100(5) 0.2189(4) 1.3301(9)
H5 H 1.0450 0.2365 1.3437
C10 C 0.9748(8) 0.2062(6) 1.4039(9)
H6 H 0.9841 0.2169 1.4669
C11 C 0.9252(7) 0.1773(8) 1.3846(11)
H7 H 0.9011 0.1659 1.4348
C12 C 0.9111(6) 0.1652(6) 1.2899(10)
H8 H 0.8763 0.1478 1.2742
C13 C 1.1119(5) 0.0507(7) 1.3169(9)
C14 C 1.1749(13) 0.0665(9) 1.3372(16)
H9 H 1.1905 0.0863 1.2823
H10 H 1.1768 0.0910 1.3931
H11 H 1.1966 0.0322 1.3490
C15 C 1.0763(11) 0.0992(12) 1.3573(18)
H12 H 1.0363 0.0906 1.3492
H13 H 1.0847 0.1039 1.4249
H14 H 1.0854 0.1341 1.3235
C16 C 1.0973(9) -0.0056(13) 1.3637(18)
H15 H 1.1254 -0.0338 1.3459
H16 H 1.0970 -0.0010 1.4327
H17 H 1.0600 -0.0179 1.3422
Ag1C Ag 0.76698(7) 0.04852(7) 0.89306(15)
Ag1A Ag 0.95148(7) -0.23302(7) 1.10694(15)
Ag1B Ag 1.23302(7) -0.04852(7) 0.89306(15)
Ag1M Ag 1.04852(7) 0.26698(7) 1.14306(15)
Ag1F Ag 1.26698(7) -0.04852(7) 0.85694(15)
Ag1L Ag 0.95148(7) -0.26698(7) 1.14306(15)
Ag1G Ag 0.73302(7) 0.04852(7) 0.85694(15)
S1C S 0.85109(8) 0.06955(8) 1.01041(17)
S1A S 0.93045(8) -0.14891(8) 0.98959(17)
S1B S 1.14891(8) -0.06955(8) 1.01041(17)
C1C C 0.8749(3) 0.0064(3) 1.0620(6)
C1A C 0.9936(3) -0.1251(3) 0.9380(6)
C1B C 1.1251(3) -0.0064(3) 1.0620(6)
C2C C 0.8896(3) -0.0408(3) 1.0076(6)
C2A C 1.0408(3) -0.1104(3) 0.9924(6)
C2B C 1.1104(3) 0.0408(3) 1.0076(6)
C3C C 0.9113(3) 0.0910(3) 0.9456(6)
C3A C 0.9090(3) -0.0887(3) 1.0544(6)
C3B C 1.0887(3) -0.0910(3) 0.9456(6)
C4B C 1.0908(4) -0.0888(4) 0.8457(7)
C4A C 0.9112(4) -0.0908(4) 1.1543(7)
C4C C 0.9092(4) 0.0888(4) 0.8457(7)
H1B H 1.1236 -0.0747 0.8155
H1A H 0.9253 -0.1236 1.1845
H1C H 0.8764 0.0747 0.8155
C5B C 1.1226(4) -0.0035(4) 1.1621(6)
C5A C 0.9965(4) -0.1226(4) 0.8379(6)
C5C C 0.8774(4) 0.0035(4) 1.1621(6)
H2B H 1.1319 -0.0360 1.1982
H2A H 0.9640 -0.1319 0.8018
H2C H 0.8681 0.0360 1.1982
C6B C 1.0457(4) -0.1068(4) 0.7904(7)
C6A C 0.8932(4) -0.0457(4) 1.2096(7)
C6C C 0.9543(4) 0.1068(4) 0.7904(7)
O1B O 1.1166(2) 0.0391(2) 0.9122(4)
O1A O 1.0391(2) -0.1166(2) 1.0878(4)
O1C O 0.8834(2) -0.0391(2) 0.9122(4)
C7B C 1.1687(4) 0.0632(6) 0.8829(8)
C7A C 1.0632(6) -0.1687(4) 1.1171(8)
C7C C 0.8313(4) -0.0632(6) 0.8829(8)
H3B H 1.1676 0.1044 0.8921
H3A H 1.1044 -0.1676 1.1079
H3C H 0.8324 -0.1044 0.8921
H4B H 1.1996 0.0479 0.9223
H4A H 1.0479 -0.1996 1.0777
H4C H 0.8004 -0.0479 0.9223
C8B C 1.1796(4) 0.0500(5) 0.7801(7)
C8A C 1.0500(5) -0.1796(4) 1.2199(7)
C8C C 0.8204(4) -0.0500(5) 0.7801(7)
N1B N 1.2077(3) 0.0025(4) 0.7598(6)
N1A N 1.0025(4) -0.2077(3) 1.2402(6)
N1C N 0.7923(3) -0.0025(4) 0.7598(6)
N1M N 0.9975(4) 0.2923(3) 1.0098(6)
N1G N 0.7077(3) -0.0025(4) 0.9902(6)
N1L N 1.0025(4) -0.2923(3) 1.0098(6)
N1F N 1.2923(3) 0.0025(4) 0.9902(6)
C9B C 1.2189(4) -0.0100(5) 0.6699(9)
C9A C 0.9900(5) -0.2189(4) 1.3301(9)
C9C C 0.7811(4) 0.0100(5) 0.6699(9)
H5B H 1.2365 -0.0450 0.6563
H5A H 0.9550 -0.2365 1.3437
H5C H 0.7635 0.0450 0.6563
C10B C 1.2062(6) 0.0252(8) 0.5961(9)
C10A C 1.0252(8) -0.2062(6) 1.4039(9)
C10C C 0.7938(6) -0.0252(8) 0.5961(9)
H6B H 1.2169 0.0159 0.5331
H6A H 1.0159 -0.2169 1.4669
H6C H 0.7831 -0.0159 0.5331
C11B C 1.1773(8) 0.0748(7) 0.6154(11)
C11A C 1.0748(7) -0.1773(8) 1.3846(11)
C11C C 0.8227(8) -0.0748(7) 0.6154(11)
H7B H 1.1659 0.0989 0.5652
H7A H 1.0989 -0.1659 1.4348
H7C H 0.8341 -0.0989 0.5652
C12B C 1.1652(6) 0.0889(6) 0.7101(10)
C12A C 1.0889(6) -0.1652(6) 1.2899(10)
C12C C 0.8348(6) -0.0889(6) 0.7101(10)
H8B H 1.1478 0.1237 0.7258
H8A H 1.1237 -0.1478 1.2742
H8C H 0.8522 -0.1237 0.7258
C13B C 1.0507(7) -0.1119(5) 0.6831(9)
C13A C 0.8881(5) -0.0507(7) 1.3169(9)
C13C C 0.9493(7) 0.1119(5) 0.6831(9)
C14B C 1.0665(9) -0.1749(13) 0.6628(16)
C14A C 0.8251(13) -0.0665(9) 1.3372(16)
C14C C 0.9335(9) 0.1749(13) 0.6628(16)
H9B H 1.0863 -0.1905 0.7177
H9A H 0.8095 -0.0863 1.2823
H9C H 0.9137 0.1905 0.7177
H10B H 1.0910 -0.1768 0.6069
H10A H 0.8232 -0.0910 1.3931
H10C H 0.9090 0.1768 0.6069
H11B H 1.0322 -0.1966 0.6510
H11A H 0.8034 -0.0322 1.3490
H11C H 0.9678 0.1966 0.6510
C15B C 1.0992(12) -0.0763(11) 0.6427(18)
C15A C 0.9237(11) -0.0992(12) 1.3573(18)
C15C C 0.9008(12) 0.0763(11) 0.6427(18)
H12B H 1.0906 -0.0363 0.6508
H12A H 0.9637 -0.0906 1.3492
H12C H 0.9094 0.0363 0.6508
H13B H 1.1039 -0.0847 0.5751
H13A H 0.9153 -0.1039 1.4249
H13C H 0.8961 0.0847 0.5751
H14B H 1.1341 -0.0854 0.6765
H14A H 0.9146 -0.1341 1.3235
H14C H 0.8659 0.0854 0.6765
C16B C 0.9944(13) -0.0973(9) 0.6363(18)
C16A C 0.9027(9) 0.0056(13) 1.3637(18)
C16C C 1.0056(13) 0.0973(9) 0.6363(18)
H15B H 0.9662 -0.1254 0.6541
H15A H 0.8746 0.0338 1.3459
H15C H 1.0338 0.1254 0.6541
H16B H 0.9990 -0.0970 0.5673
H16A H 0.9030 0.0010 1.4327
H16C H 1.0010 0.0970 0.5673
H17B H 0.9821 -0.0600 0.6578
H17A H 0.9400 0.0179 1.3422
H17C H 1.0179 0.0600 0.6578
loop_
_geom_bond_atom_site_label_1
_geom_bond_atom_site_label_2
_geom_bond_site_symmetry_1
_geom_bond_site_symmetry_2
Ag1 S1 1_555 1_555
S1 C1 1_555 1_555
C1 C2 1_555 1_555
C2 O1 1_555 1_555
C3 S1 1_555 1_555
C4 C3 1_555 1_555
H1 C4 1_555 1_555
C5 C1 1_555 1_555
H2 C5 1_555 1_555
C6 C4 1_555 1_555
O1 C7 1_555 1_555
C7 H3 1_555 1_555
H4 C7 1_555 1_555
C8 C7 1_555 1_555
N1 Ag1 1_555 1_555
C9 N1 1_555 1_555
H5 C9 1_555 1_555
C10 C9 1_555 1_555
H6 C10 1_555 1_555
C11 C10 1_555 1_555
H7 C11 1_555 1_555
C12 C8 1_555 1_555
H8 C12 1_555 1_555
C13 C6 1_555 1_555
C14 C13 1_555 1_555
H9 C14 1_555 1_555
H10 C14 1_555 1_555
H11 C14 1_555 1_555
C15 C13 1_555 1_555
H12 C15 1_555 1_555
H13 C15 1_555 1_555
H14 C15 1_555 1_555
C16 C13 1_555 1_555
H15 C16 1_555 1_555
H16 C16 1_555 1_555
H17 C16 1_555 1_555
P1 F1 1_555 1_555
F2 P1 1_555 1_555
F3 P1 1_555 1_555
F4 P1 1_555 1_555
F6 P1 1_555 1_555
Ag1C Ag1G 1_555 1_555
Ag1A Ag1L 1_555 1_555
Ag1B Ag1F 1_555 1_555
Ag1M Ag1 1_555 1_555
Ag1F N1B 1_555 1_555
Ag1L N1A 1_555 1_555
Ag1G N1C 1_555 1_555
S1C Ag1C 1_555 1_555
S1A Ag1A 1_555 1_555
S1B Ag1B 1_555 1_555
C1C S1C 1_555 1_555
C1A S1A 1_555 1_555
C1B S1B 1_555 1_555
C2C C1C 1_555 1_555
C2A C1A 1_555 1_555
C2B C3 1_555 1_555
C3C C2 1_555 1_555
C3A S1A 1_555 1_555
C3B S1B 1_555 1_555
C4B C3B 1_555 1_555
C4A C3A 1_555 1_555
C4C C3C 1_555 1_555
H1B C4B 1_555 1_555
H1A C4A 1_555 1_555
H1C C4C 1_555 1_555
C5B C6 1_555 1_555
C5A C1A 1_555 1_555
C5C C1C 1_555 1_555
H2B C5B 1_555 1_555
H2A C5A 1_555 1_555
H2C C5C 1_555 1_555
C6B C4B 1_555 1_555
C6A C4A 1_555 1_555
C6C C5 1_555 1_555
O1B C2B 1_555 1_555
O1A C2A 1_555 1_555
O1C C2C 1_555 1_555
C7B O1B 1_555 1_555
C7A O1A 1_555 1_555
C7C O1C 1_555 1_555
H3B C7B 1_555 1_555
H3A C7A 1_555 1_555
H3C C7C 1_555 1_555
H4B C7B 1_555 1_555
H4A C7A 1_555 1_555
H4C C7C 1_555 1_555
C8B C7B 1_555 1_555
C8A C7A 1_555 1_555
C8C C7C 1_555 1_555
N1B Ag1B 1_555 1_555
N1A Ag1A 1_555 1_555
N1C Ag1C 1_555 1_555
N1M Ag1 1_555 1_555
N1G Ag1C 1_555 1_555
N1L Ag1A 1_555 1_555
N1F Ag1B 1_555 1_555
C9B N1B 1_555 1_555
C9A N1A 1_555 1_555
C9C N1C 1_555 1_555
H5B C9B 1_555 1_555
H5A C9A 1_555 1_555
H5C C9C 1_555 1_555
C10B C9B 1_555 1_555
C10A C9A 1_555 1_555
C10C C9C 1_555 1_555
H6B C10B 1_555 1_555
H6A C10A 1_555 1_555
H6C C10C 1_555 1_555
C11B C10B 1_555 1_555
C11A C10A 1_555 1_555
C11C C10C 1_555 1_555
H7B C11B 1_555 1_555
H7A C11A 1_555 1_555
H7C C11C 1_555 1_555
C12B C8B 1_555 1_555
C12A C8A 1_555 1_555
C12C C8C 1_555 1_555
H8B C12B 1_555 1_555
H8A C12A 1_555 1_555
H8C C12C 1_555 1_555
C13B C6B 1_555 1_555
C13A C6A 1_555 1_555
C13C C6C 1_555 1_555
C14B C13B 1_555 1_555
C14A C13A 1_555 1_555
C14C C13C 1_555 1_555
H9B C14B 1_555 1_555
H9A C14A 1_555 1_555
H9C C14C 1_555 1_555
H10B C14B 1_555 1_555
H10A C14A 1_555 1_555
H10C C14C 1_555 1_555
H11B C14B 1_555 1_555
H11A C14A 1_555 1_555
H11C C14C 1_555 1_555
C15B C13B 1_555 1_555
C15A C13A 1_555 1_555
C15C C13C 1_555 1_555
H12B C15B 1_555 1_555
H12A C15A 1_555 1_555
H12C C15C 1_555 1_555
H13B C15B 1_555 1_555
H13A C15A 1_555 1_555
H13C C15C 1_555 1_555
H14B C15B 1_555 1_555
H14A C15A 1_555 1_555
H14C C15C 1_555 1_555
C16B C13B 1_555 1_555
C16A C13A 1_555 1_555
C16C C13C 1_555 1_555
H15B C16B 1_555 1_555
H15A C16A 1_555 1_555
H15C C16C 1_555 1_555
H16B C16B 1_555 1_555
H16A C16A 1_555 1_555
H16C C16C 1_555 1_555
H17B C16B 1_555 1_555
H17A C16A 1_555 1_555
H17C C16C 1_555 1_555
F2M P1 1_555 1_555
C8 N1 1_555 1_555
N1 Ag1M 1_555 1_555
C11 C12 1_555 1_555
Ag1M N1M 1_555 1_555
Ag1F N1F 1_555 1_555
Ag1L N1L 1_555 1_555
Ag1G N1G 1_555 1_555
S1C C3C 1_555 1_555
C1B C2B 1_555 1_555
C1B C5B 1_555 1_555
C2C C3A 1_555 1_555
C2A C3B 1_555 1_555
C4C C6C 1_555 1_555
C5A C6B 1_555 1_555
C5C C6A 1_555 1_555
C8B N1B 1_555 1_555
C8A N1A 1_555 1_555
C8C N1C 1_555 1_555
C11B C12B 1_555 1_555
C11A C12A 1_555 1_555
C11C C12C 1_555 1_555

#END
