
#######################################################################
#
#                 Cambridge Crystallographic Data Centre
#                                CCDC 
#
#######################################################################
#
# If this CIF has been generated from an entry in the Cambridge 
# Structural Database, then it will include bibliographic, chemical, 
# crystal, experimental, refinement or atomic coordinate data resulting 
# from the CCDC's data processing and validation procedures.
#
#######################################################################

data_COWXOC
_chemical_formula_moiety         '(C38 H53 Cd2 N5 O14)n'
_symmetry_cell_setting           monoclinic
_symmetry_space_group_name_H-M   'C 2/c'
_symmetry_Int_Tables_number      15
_space_group_name_Hall           '-C 2yc'
loop_
_symmetry_equiv_pos_site_id
_symmetry_equiv_pos_as_xyz
1 x,y,z
2 -x,y,1/2-z
3 1/2+x,1/2+y,z
4 1/2-x,1/2+y,1/2-z
5 -x,-y,-z
6 x,-y,1/2+z
7 1/2-x,1/2-y,-z
8 1/2+x,1/2-y,1/2+z
_cell_length_a                   25.765(3)
_cell_length_b                   18.5139(18)
_cell_length_c                   20.060(2)
_cell_angle_alpha                90
_cell_angle_beta                 97.1160(10)
_cell_angle_gamma                90
_cell_volume                     9495.13
loop_
_atom_site_label
_atom_site_type_symbol
_atom_site_fract_x
_atom_site_fract_y
_atom_site_fract_z
C1 C 1.18105(17) 1.0824(2) -0.0083(2)
C2 C 1.17397(15) 1.1191(2) -0.07647(19)
C3 C 1.11314(17) 1.1111(3) -0.0810(2)
H1 H 1.1016 1.0682 -0.1065
H2 H 1.0959 1.1528 -0.1030
C4 C 1.10015(17) 1.1050(3) -0.0094(2)
H3 H 1.0723 1.1381 -0.0021
H4 H 1.0891 1.0562 -0.0004
C5 C 1.15293(14) 1.1251(3) 0.03848(19)
H5 H 1.1615 1.1766 0.0408
C6 C 1.23853(16) 1.0868(3) 0.0201(2)
H6 H 1.2430 1.0692 0.0654
H7 H 1.2589 1.0580 -0.0068
H8 H 1.2500 1.1361 0.0196
C7 C 1.17470(19) 0.9997(3) -0.0185(3)
H9 H 1.1548 0.9902 -0.0613
H10 H 1.2086 0.9777 -0.0171
H11 H 1.1568 0.9798 0.0165
C8 C 1.14222(16) 1.0919(2) 0.1035(2)
C9 C 1.19945(16) 1.0815(2) -0.1297(2)
C10 C 1.18259(17) 1.1963(2) -0.0874(2)
H12 H 1.1521 1.2167 -0.1129
H13 H 1.1892 1.2204 -0.0448
H14 H 1.2122 1.2023 -0.1117
C11 C 1.27057(15) 1.2618(2) -0.3039(2)
C12 C 1.27564(15) 1.1878(2) -0.33805(18)
C13 C 1.22483(16) 1.1940(2) -0.39405(19)
H15 H 1.1953 1.1699 -0.3781
H16 H 1.2319 1.1705 -0.4352
C14 C 1.21174(17) 1.2731(3) -0.4078(2)
H17 H 1.2119 1.2846 -0.4550
H18 H 1.1778 1.2853 -0.3947
C15 C 1.25849(15) 1.3152(2) -0.3614(2)
H19 H 1.2889 1.3214 -0.3857
C16 C 1.32226(15) 1.2793(2) -0.2607(2)
H20 H 1.3467 1.2408 -0.2642
H21 H 1.3363 1.3235 -0.2761
H22 H 1.3163 1.2847 -0.2147
C17 C 1.22779(16) 1.2616(2) -0.2546(2)
C18 C 1.27395(17) 1.1236(2) -0.2967(2)
C19 C 1.23843(14) 1.3882(2) -0.3405(2)
C20 C 1.32487(16) 1.1897(3) -0.3724(2)
H23 H 1.3180 1.1676 -0.4159
H24 H 1.3355 1.2389 -0.3773
H25 H 1.3522 1.1637 -0.3457
C21 C 1.44562(15) 0.8319(2) -0.37299(19)
C22 C 1.44950(14) 0.8255(2) -0.44170(18)
C23 C 1.50150(14) 0.7501(2) -0.38270(18)
C24 C 1.41152(14) 0.8732(2) -0.3362(2)
C25 C 1.36178(13) 0.9046(2) -0.36360(18)
H26 H 1.3483 0.8976 -0.4083
C26 C 1.33558(16) 0.9445(2) -0.3217(2)
H27 H 1.3057 0.9686 -0.3409
C27 C 1.39512(14) 0.9272(2) -0.2297(2)
H28 H 1.4082 0.9389 -0.1857
C28 C 1.42509(17) 0.8818(2) -0.2695(2)
H29 H 1.4545 0.8580 -0.2486
C29 C 1.54089(14) 0.6932(2) -0.36375(19)
C30 C 1.55843(15) 0.6452(2) -0.40727(18)
H30 H 1.5455 0.6472 -0.4526
C31 C 1.59519(16) 0.5938(2) -0.3848(2)
H31 H 1.6081 0.5633 -0.4157
C32 C 1.59452(16) 0.6314(2) -0.27669(19)
H32 H 1.6060 0.6270 -0.2311
C33 C 1.55769(13) 0.6867(2) -0.29728(17)
H33 H 1.5455 0.7175 -0.2661
C34 C 1.42297(16) 0.8633(2) -0.49988(18)
C35 C 1.40633(15) 0.8265(2) -0.56045(19)
H34 H 1.4147 0.7781 -0.5657
C36 C 1.37757(17) 0.8636(2) -0.6113(2)
H35 H 1.3635 0.8381 -0.6493
C37 C 1.38409(16) 0.9701(2) -0.5529(2)
H36 H 1.3745 1.0182 -0.5491
C38 C 1.41353(14) 0.9385(2) -0.5002(2)
H37 H 1.4277 0.9665 -0.4640
N1 N 1.47692(11) 0.78376(18) -0.33918(14)
N2 N 1.48454(12) 0.77345(19) -0.44848(16)
H38 H 1.4945 0.7577 -0.4852
N3 N 1.34852(12) 0.95228(17) -0.25667(16)
N4 N 1.61309(11) 0.58667(18) -0.31775(15)
N5 N 1.36855(13) 0.93563(19) -0.60918(16)
O1 O 1.16672(11) 1.05048(17) -0.16920(13)
O2 O 1.24924(11) 1.08383(16) -0.13119(14)
O3 O 1.09781(10) 1.10413(16) 0.12517(14)
O4 O 1.17936(10) 1.06011(15) 0.13701(13)
O5 O 1.24017(10) 1.07902(15) -0.29859(13)
O6 O 1.31536(11) 1.11742(15) -0.25340(13)
Cd1 Cd 1.300390(11) 1.021240(15) -0.188360(15)
Cd2 Cd 1.674450(11) 0.502030(16) -0.268820(15)
O7 O 1.26357(10) 1.42212(16) -0.29261(14)
O8 O 1.20073(11) 1.41407(15) -0.37463(13)
O9 O 1.59680(10) 0.43600(15) -0.24676(14)
H39 H 1.5812 0.4041 -0.2723
H40 H 1.5875 0.4501 -0.2097
N5E N 1.36855(13) 1.06437(19) -0.10918(16)
O1B O 1.66672(11) 0.55048(17) -0.16920(13)
O4G O 1.67936(10) 0.43989(15) -0.36299(13)
O5B O 1.74017(10) 0.57902(15) -0.29859(13)
Cd1E Cd 1.300390(11) 0.978760(15) -0.688360(15)
Cd1C Cd 1.199610(11) 1.521240(15) -0.311640(15)
Cd2B Cd 1.174450(11) 1.002030(16) -0.268820(15)
Cd2G Cd 1.174450(11) 0.997970(16) 0.231180(15)
Cd2A Cd 1.325550(11) 1.502030(16) -0.231180(15)
O7C O 1.23643(10) 0.92212(16) -0.20739(14)
O7A O 1.73643(10) 0.42212(16) -0.20739(14)
O8C O 1.29927(11) 0.91407(15) -0.12537(13)
O11 O 0.9964(3) 0.8054(4) 0.9294(3)
H43 H 1.0177 0.7926 0.9026
H44 H 0.9826 0.8456 0.9166
O12 O 0.0296(3) 0.8045(6) 0.7898(5)
H45 H 0.0240 0.7837 0.8261
H46 H 0.0328 0.8497 0.7965
O13 O 0.5042(3) 0.4604(5) 0.5638(5)
H47 H 0.5043 0.4681 0.5220
H48 H 0.5315 0.4785 0.5854
O14 O 0.5766(2) 0.6223(3) 0.3738(4)
H49 H 0.5624 0.6310 0.4091
H50 H 0.5769 0.6606 0.3505
O16 O 0.9243(3) 0.3891(5) 0.0596(4)
H53 H 0.9363 0.3990 0.1000
H54 H 0.9006 0.3571 0.0593
loop_
_geom_bond_atom_site_label_1
_geom_bond_atom_site_label_2
_geom_bond_site_symmetry_1
_geom_bond_site_symmetry_2
C1 C2 1_555 1_555
C2 C3 1_555 1_555
C3 H1 1_555 1_555
H2 C3 1_555 1_555
C4 C3 1_555 1_555
H3 C4 1_555 1_555
H4 C4 1_555 1_555
C5 C1 1_555 1_555
H5 C5 1_555 1_555
C6 C1 1_555 1_555
H6 C6 1_555 1_555
H7 C6 1_555 1_555
H8 C6 1_555 1_555
C7 C1 1_555 1_555
H9 C7 1_555 1_555
H10 C7 1_555 1_555
H11 C7 1_555 1_555
C8 C5 1_555 1_555
C9 C2 1_555 1_555
C10 C2 1_555 1_555
H12 C10 1_555 1_555
H13 C10 1_555 1_555
H14 C10 1_555 1_555
C11 C12 1_555 1_555
C12 C13 1_555 1_555
C13 H15 1_555 1_555
H16 C13 1_555 1_555
C14 C13 1_555 1_555
H17 C14 1_555 1_555
H18 C14 1_555 1_555
C15 C11 1_555 1_555
H19 C15 1_555 1_555
C16 C11 1_555 1_555
H20 C16 1_555 1_555
H21 C16 1_555 1_555
H22 C16 1_555 1_555
C17 C11 1_555 1_555
C18 C12 1_555 1_555
C19 C15 1_555 1_555
C20 C12 1_555 1_555
H23 C20 1_555 1_555
H24 C20 1_555 1_555
H25 C20 1_555 1_555
C21 C22 1_555 1_555
C22 C34 1_555 1_555
C23 C29 1_555 1_555
C24 C21 1_555 1_555
C25 C24 1_555 1_555
H26 C25 1_555 1_555
C26 C25 1_555 1_555
H27 C26 1_555 1_555
C27 H28 1_555 1_555
C28 C24 1_555 1_555
H29 C28 1_555 1_555
C29 C30 1_555 1_555
C30 H30 1_555 1_555
C31 C30 1_555 1_555
H31 C31 1_555 1_555
C32 H32 1_555 1_555
C33 C29 1_555 1_555
H33 C33 1_555 1_555
C34 C35 1_555 1_555
C35 H34 1_555 1_555
C36 C35 1_555 1_555
H35 C36 1_555 1_555
C37 H36 1_555 1_555
C38 C34 1_555 1_555
H37 C38 1_555 1_555
N1 C21 1_555 1_555
N2 C22 1_555 1_555
H38 N2 1_555 1_555
N3 C26 1_555 1_555
N4 C31 1_555 1_555
N5 C36 1_555 1_555
O1 C9 1_555 1_555
O2 C9 1_555 1_555
O3 C8 1_555 1_555
O4 C8 1_555 1_555
O5 C18 1_555 1_555
O6 C18 1_555 1_555
Cd1 N3 1_555 1_555
Cd2 N4 1_555 1_555
O7 C19 1_555 1_555
O8 C19 1_555 1_555
O9 Cd2 1_555 1_555
H39 O9 1_555 1_555
H40 O9 1_555 1_555
O11 H43 1_555 1_555
H44 O11 1_555 1_555
O12 H45 1_555 1_555
H46 O12 1_555 1_555
O13 H47 1_555 1_555
H48 O13 1_555 1_555
O14 H49 1_555 1_555
H50 O14 1_555 1_555
O16 H53 1_555 1_555
H54 O16 1_555 1_555
N5E Cd1 1_555 1_555
O1B Cd2 1_555 1_555
O4G Cd2 1_555 1_555
O5B Cd2 1_555 1_555
Cd1E N5 1_555 1_555
Cd1C O7 1_555 1_555
Cd2B O1 1_555 1_555
Cd2G O4 1_555 1_555
Cd2A O7 1_555 1_555
O7C Cd1 1_555 1_555
O7A Cd2 1_555 1_555
O8C Cd1 1_555 1_555
C4 C5 1_555 1_555
C14 C15 1_555 1_555
C23 N1 1_555 1_555
C23 N2 1_555 1_555
C27 C28 1_555 1_555
C27 N3 1_555 1_555
C32 C33 1_555 1_555
C32 N4 1_555 1_555
C37 C38 1_555 1_555
C37 N5 1_555 1_555
O2 Cd1 1_555 1_555
O5 Cd2B 1_555 1_555
O6 Cd1 1_555 1_555
O8 Cd1C 1_555 1_555
Cd2B O7C 1_555 1_555

#END
