
#######################################################################
#
#                 Cambridge Crystallographic Data Centre
#                                CCDC 
#
#######################################################################
#
# If this CIF has been generated from an entry in the Cambridge 
# Structural Database, then it will include bibliographic, chemical, 
# crystal, experimental, refinement or atomic coordinate data resulting 
# from the CCDC's data processing and validation procedures.
#
#######################################################################

data_RUGJIO
_chemical_formula_moiety         '(C5 H9 N2 O8 Sm1)n'
_symmetry_cell_setting           orthorhombic
_symmetry_space_group_name_H-M   'C 2 2 21'
_symmetry_Int_Tables_number      20
_space_group_name_Hall           'C 2c 2'
loop_
_symmetry_equiv_pos_site_id
_symmetry_equiv_pos_as_xyz
1 x,y,z
2 x,-y,-z
3 -x,y,1/2-z
4 -x,-y,1/2+z
5 1/2+x,1/2+y,z
6 1/2+x,1/2-y,-z
7 1/2-x,1/2+y,1/2-z
8 1/2-x,1/2-y,1/2+z
_cell_length_a                   6.76680(10)
_cell_length_b                   18.7189(3)
_cell_length_c                   8.5717(6)
_cell_angle_alpha                90
_cell_angle_beta                 90
_cell_angle_gamma                90
_cell_volume                     1085.75
loop_
_atom_site_label
_atom_site_type_symbol
_atom_site_fract_x
_atom_site_fract_y
_atom_site_fract_z
Sm1 Sm 0.0000 0.642498(6) 0.7500
O1 O -0.0157(7) 0.54905(13) 0.9327(3)
O2 O 0.3373(3) 0.59341(11) 0.7704(5)
O3 O -0.1771(4) 0.68295(12) 0.9844(3)
O4 O -0.3176(4) 0.75652(13) 1.1528(3)
C1 C 0.5000 0.62371(17) 0.7500
H1 H 0.5000 0.6734 0.7500
C2 C 0.0723(7) 0.5000 1.0000
H2 H 0.2098 0.5000 1.0000
C3 C -0.2334(5) 0.74251(16) 1.0277(4)
H3 H -0.2106 0.7805 0.9602
O1A O -0.0157(7) 0.45095(13) 1.0673(3)
O2B O 0.6627(3) 0.59341(11) 0.7296(5)
O3B O 0.1771(4) 0.68295(12) 0.5156(3)
O4B O 0.3176(4) 0.75652(13) 0.3472(3)
C3B C 0.2334(5) 0.74251(16) 0.4723(4)
H3B H 0.2106 0.7805 0.5398
Sm1_2 Sm 1.0000 0.642498(6) 0.7500
Sm1A Sm -0.0000 0.357502(6) 1.2500
Sm1E Sm -0.5000 0.857502(6) 1.2500
Sm1E_2 Sm 0.5000 0.857502(6) 0.2500
O1B O 0.0157(7) 0.54905(13) 0.5673(3)
O2B_2 O -0.3373(3) 0.59341(11) 0.7296(5)
O4E O 0.1824(4) 0.74348(13) 0.8472(3)
O4G O -0.1824(4) 0.74348(13) 0.6528(3)
N1 N 0.1346(6) 0.9370(2) 0.8312(5)
H4 H 0.1388 0.9829 0.8338
H5 H 0.2198 0.9124 0.8827
C4 C -0.0000 0.90502(19) 0.7500
H6 H -0.0000 0.8553 0.7500
N1B N -0.1346(6) 0.9370(2) 0.6688(5)
H4B H -0.1388 0.9829 0.6662
H5B H -0.2198 0.9124 0.6173
loop_
_geom_bond_atom_site_label_1
_geom_bond_atom_site_label_2
_geom_bond_site_symmetry_1
_geom_bond_site_symmetry_2
Sm1 O1 1_555 1_555
O1 C2 1_555 1_555
O2 Sm1 1_555 1_555
O3 Sm1 1_555 1_555
O4 C3 1_555 1_555
C1 O2 1_555 1_555
H1 C1 1_555 1_555
C2 H2 1_555 1_555
C3 O3 1_555 1_555
H3 C3 1_555 1_555
N1 H4 1_555 1_555
H5 N1 1_555 1_555
C4 N1 1_555 1_555
H6 C4 1_555 1_555
O1A C2 1_555 1_555
O2B C1 1_555 1_555
O3B Sm1 1_555 1_555
O4B C3B 1_555 1_555
C3B O3B 1_555 1_555
H3B C3B 1_555 1_555
Sm1_2 O2B 1_555 1_555
Sm1A O1A 1_555 1_555
Sm1E O4 1_555 1_555
Sm1E_2 O4B 1_555 1_555
O1B Sm1 1_555 1_555
O2B_2 Sm1 1_555 1_555
O4E Sm1 1_555 1_555
O4G Sm1 1_555 1_555
N1B C4 1_555 1_555
H4B N1B 1_555 1_555
H5B N1B 1_555 1_555

#END
