
#######################################################################
#
#                 Cambridge Crystallographic Data Centre
#                                CCDC 
#
#######################################################################
#
# If this CIF has been generated from an entry in the Cambridge 
# Structural Database, then it will include bibliographic, chemical, 
# crystal, experimental, refinement or atomic coordinate data resulting 
# from the CCDC's data processing and validation procedures.
#
#######################################################################

data_IZERAI
_chemical_formula_moiety         '(C90 H62 Ni6 O33)n'
_symmetry_cell_setting           hexagonal
_symmetry_space_group_name_H-M   'P 6/m m m'
_symmetry_Int_Tables_number      191
_space_group_name_Hall           '-P 6 2'
loop_
_symmetry_equiv_pos_site_id
_symmetry_equiv_pos_as_xyz
1 x,y,z
2 x-y,x,z
3 -y,x-y,z
4 -x,-y,z
5 -x+y,-x,z
6 y,-x+y,z
7 -y,-x,-z
8 x-y,-y,-z
9 x,x-y,-z
10 y,x,-z
11 -x+y,y,-z
12 -x,-x+y,-z
13 -x,-y,-z
14 -x+y,-x,-z
15 y,-x+y,-z
16 x,y,-z
17 x-y,x,-z
18 -y,x-y,-z
19 y,x,z
20 -x+y,y,z
21 -x,-x+y,z
22 -y,-x,z
23 x-y,-y,z
24 x,x-y,z
_cell_length_a                   26.2500(4)
_cell_length_b                   26.2500(4)
_cell_length_c                   11.2436(5)
_cell_angle_alpha                90
_cell_angle_beta                 90
_cell_angle_gamma                120
_cell_volume                     6709.57
loop_
_atom_site_label
_atom_site_type_symbol
_atom_site_fract_x
_atom_site_fract_y
_atom_site_fract_z
Ni1 Ni 0.28992(2) 0.57984(5) 0.0000
O1 O 0.3333 0.6667 0.0000
O2 O 0.34155(19) 0.57370(19) 0.1287(4)
O3 O 0.2435(2) 0.4870(4) 0.0000
C1 C 0.39380(15) 0.60620(15) 0.1562(6)
C2 C 0.42126(15) 0.57874(15) 0.2323(6)
C3 C 0.47226(15) 0.52774(15) 0.3686(6)
C4 C 0.5000 0.5000 0.4405(9)
C5 C 0.4035(7) 0.5216(6) 0.2247(11)
H1 H 0.3898 0.4957 0.1573
C6 C 0.4128(6) 0.5067(7) 0.3774(12)
H2 H 0.3856 0.4898 0.4423
O2C O 0.65845(19) 0.42630(19) 0.1287(4)
C1C C 0.60620(15) 0.39380(15) 0.1562(6)
C2C C 0.57874(15) 0.42126(15) 0.2323(6)
C3C C 0.52774(15) 0.47226(15) 0.3686(6)
C5C C 0.5965(7) 0.4784(6) 0.2247(11)
H1C H 0.6102 0.5043 0.1573
C6C C 0.5872(6) 0.4933(7) 0.3774(12)
H2C H 0.6144 0.5102 0.4423
O2F O 0.42630(19) 0.65845(19) 0.8713(4)
C1F C 0.39380(15) 0.60620(15) 0.8438(6)
C2F C 0.42126(15) 0.57874(15) 0.7677(6)
C3F C 0.47226(15) 0.52774(15) 0.6314(6)
C4F C 0.5000 0.5000 0.5595(9)
C5F C 0.4784(6) 0.5965(7) 0.7753(11)
H1F H 0.5043 0.6102 0.8427
C6F C 0.4933(7) 0.5872(6) 0.6226(12)
H2F H 0.5102 0.6144 0.5577
O2I O 0.57370(19) 0.34155(19) 0.8713(4)
C1I C 0.60620(15) 0.39380(15) 0.8438(6)
C2I C 0.57874(15) 0.42126(15) 0.7677(6)
C3I C 0.52774(15) 0.47226(15) 0.6314(6)
C5I C 0.5216(6) 0.4035(7) 0.7753(11)
H1I H 0.4957 0.3898 0.8427
C6I C 0.5067(7) 0.4128(6) 0.6226(12)
H2I H 0.4898 0.3856 0.5577
O2L O 0.65845(19) 0.42630(19) 0.8713(4)
C5L C 0.5965(7) 0.4784(6) 0.7753(11)
H1L H 0.6102 0.5043 0.8427
C6L C 0.5872(6) 0.4933(7) 0.6226(12)
H2L H 0.6144 0.5102 0.5577
O2O O 0.34155(19) 0.57370(19) 0.8713(4)
C5O C 0.4035(7) 0.5216(6) 0.7753(11)
H1O H 0.3898 0.4957 0.8427
C6O C 0.4128(6) 0.5067(7) 0.6226(12)
H2O H 0.3856 0.4898 0.5577
O2R O 0.57370(19) 0.34155(19) 0.1287(4)
C5R C 0.5216(6) 0.4035(7) 0.2247(11)
H1R H 0.4957 0.3898 0.1573
C6R C 0.5067(7) 0.4128(6) 0.3774(12)
H2R H 0.4898 0.3856 0.4423
O2U O 0.42630(19) 0.65845(19) 0.1287(4)
C5U C 0.4784(6) 0.5965(7) 0.2247(11)
H1U H 0.5043 0.6102 0.1573
C6U C 0.4933(7) 0.5872(6) 0.3774(12)
H2U H 0.5102 0.6144 0.4423
Ni1A Ni -0.28992(5) 0.28992(2) 0.0000
O1A O -0.3334 0.3333 0.0000
O2A O -0.23215(27) 0.34155(19) 0.1287(4)
O3A O -0.2435(4) 0.2435(2) 0.0000
C1A C -0.21240(21) 0.39380(15) 0.1562(6)
C2A C -0.15748(21) 0.42126(15) 0.2323(6)
C3A C -0.05548(21) 0.47226(15) 0.3686(6)
C4A C -0.0000 0.5000 0.4405(9)
C5A C -0.1181(9) 0.4035(7) 0.2247(11)
H1A H -0.1059 0.3898 0.1573
C6A C -0.0939(9) 0.4128(6) 0.3774(12)
H2A H -0.1042 0.3856 0.4423
O2D O 0.23215(27) 0.65845(19) 0.1287(4)
C1D C 0.21240(21) 0.60620(15) 0.1562(6)
C2D C 0.15748(21) 0.57874(15) 0.2323(6)
C3D C 0.05548(21) 0.52774(15) 0.3686(6)
C5D C 0.1181(9) 0.5965(7) 0.2247(11)
H1D H 0.1059 0.6102 0.1573
C6D C 0.0939(9) 0.5872(6) 0.3774(12)
H2D H 0.1042 0.6144 0.4423
O2G O -0.23215(27) 0.42630(19) 0.8713(4)
C1G C -0.21240(21) 0.39380(15) 0.8438(6)
C2G C -0.15748(21) 0.42126(15) 0.7677(6)
C3G C -0.05548(21) 0.47226(15) 0.6314(6)
C4G C -0.0000 0.5000 0.5595(9)
C5G C -0.1181(9) 0.4784(6) 0.7753(11)
H1G H -0.1059 0.5043 0.8427
C6G C -0.0939(9) 0.4933(7) 0.6226(12)
H2G H -0.1042 0.5102 0.5577
O2J O 0.23215(27) 0.57370(19) 0.8713(4)
C1J C 0.21240(21) 0.60620(15) 0.8438(6)
C2J C 0.15748(21) 0.57874(15) 0.7677(6)
C3J C 0.05548(21) 0.52774(15) 0.6314(6)
C5J C 0.1181(9) 0.5216(6) 0.7753(11)
H1J H 0.1059 0.4957 0.8427
C6J C 0.0939(9) 0.5067(7) 0.6226(12)
H2J H 0.1042 0.4898 0.5577
O2M O 0.23215(27) 0.65845(19) 0.8713(4)
C5M C 0.1181(9) 0.5965(7) 0.7753(11)
H1M H 0.1059 0.6102 0.8427
C6M C 0.0939(9) 0.5872(6) 0.6226(12)
H2M H 0.1042 0.6144 0.5577
O2P O -0.23215(27) 0.34155(19) 0.8713(4)
C5P C -0.1181(9) 0.4035(7) 0.7753(11)
H1P H -0.1059 0.3898 0.8427
C6P C -0.0939(9) 0.4128(6) 0.6226(12)
H2P H -0.1042 0.3856 0.5577
O2S O 0.23215(27) 0.57370(19) 0.1287(4)
C5S C 0.1181(9) 0.5216(6) 0.2247(11)
H1S H 0.1059 0.4957 0.1573
C6S C 0.0939(9) 0.5067(7) 0.3774(12)
H2S H 0.1042 0.4898 0.4423
O2V O -0.23215(27) 0.42630(19) 0.1287(4)
C5V C -0.1181(9) 0.4784(6) 0.2247(11)
H1V H -0.1059 0.5043 0.1573
C6V C -0.0939(9) 0.4933(7) 0.3774(12)
H2V H -0.1042 0.5102 0.4423
Ni1B Ni 0.42016(5) 0.71008(5) 0.0000
O2B O 0.42630(19) 0.76785(27) 0.1287(4)
O3B O 0.5130(4) 0.7565(4) 0.0000
C1B C 0.39380(15) 0.78760(21) 0.1562(6)
C2B C 0.42126(15) 0.84252(21) 0.2323(6)
C3B C 0.47226(15) 0.94452(21) 0.3686(6)
C4B C 0.5000 1.0000 0.4405(9)
C5B C 0.4784(6) 0.8819(9) 0.2247(11)
H1B H 0.5043 0.8941 0.1573
C6B C 0.4933(7) 0.9061(9) 0.3774(12)
H2B H 0.5102 0.8958 0.4423
O2E O 0.57370(19) 1.23215(27) 0.1287(4)
C1E C 0.60620(15) 1.21240(21) 0.1562(6)
C2E C 0.57874(15) 1.15748(21) 0.2323(6)
C3E C 0.52774(15) 1.05548(21) 0.3686(6)
C5E C 0.5216(6) 1.1181(9) 0.2247(11)
H1E H 0.4957 1.1059 0.1573
C6E C 0.5067(7) 1.0939(9) 0.3774(12)
H2E H 0.4898 1.1042 0.4423
O2H O 0.34155(19) 0.76785(27) 0.8713(4)
C1H C 0.39380(15) 0.78760(21) 0.8438(6)
C2H C 0.42126(15) 0.84252(21) 0.7677(6)
C3H C 0.47226(15) 0.94452(21) 0.6314(6)
C4H C 0.5000 1.0000 0.5595(9)
C5H C 0.4035(7) 0.8819(9) 0.7753(11)
H1H H 0.3898 0.8941 0.8427
C6H C 0.4128(6) 0.9061(9) 0.6226(12)
H2H H 0.3856 0.8958 0.5577
O2K O 0.65845(19) 1.23215(27) 0.8713(4)
C1K C 0.60620(15) 1.21240(21) 0.8438(6)
C2K C 0.57874(15) 1.15748(21) 0.7677(6)
C3K C 0.52774(15) 1.05548(21) 0.6314(6)
C5K C 0.5965(7) 1.1181(9) 0.7753(11)
H1K H 0.6102 1.1059 0.8427
C6K C 0.5872(6) 1.0939(9) 0.6226(12)
H2K H 0.6144 1.1042 0.5577
O2N O 0.57370(19) 1.23215(27) 0.8713(4)
C5N C 0.5216(6) 1.1181(9) 0.7753(11)
H1N H 0.4957 1.1059 0.8427
C6N C 0.5067(7) 1.0939(9) 0.6226(12)
H2N H 0.4898 1.1042 0.5577
O2Q O 0.42630(19) 0.76785(27) 0.8713(4)
C5Q C 0.4784(6) 0.8819(9) 0.7753(11)
H1Q H 0.5043 0.8941 0.8427
C6Q C 0.4933(7) 0.9061(9) 0.6226(12)
H2Q H 0.5102 0.8958 0.5577
O2T O 0.65845(19) 1.23215(27) 0.1287(4)
C5T C 0.5965(7) 1.1181(9) 0.2247(11)
H1T H 0.6102 1.1059 0.1573
C6T C 0.5872(6) 1.0939(9) 0.3774(12)
H2T H 0.6144 1.1042 0.4423
O2W O 0.34155(19) 0.76785(27) 0.1287(4)
C5W C 0.4035(7) 0.8819(9) 0.2247(11)
H1W H 0.3898 0.8941 0.1573
C6W C 0.4128(6) 0.9061(9) 0.3774(12)
H2W H 0.3856 0.8958 0.4423
Ni1C Ni 0.71008(2) 0.42016(5) 0.0000
O3C O 0.7565(2) 0.5130(4) 0.0000
Ni1D Ni 0.28992(5) 0.71008(2) 0.0000
O3D O 0.2435(4) 0.7565(2) 0.0000
Ni1E Ni 0.57984(5) 0.28992(5) 0.0000
O3E O 0.4870(4) 0.2435(4) 0.0000
Ni1_2 Ni 0.28992(2) 0.57984(5) 1.0000
Ni1A_2 Ni -0.28992(5) 0.28992(2) 1.0000
Ni1A_3 Ni 0.71008(5) 1.28992(2) 0.0000
Ni1A_4 Ni 0.71008(5) 1.28992(2) 1.0000
Ni1B_2 Ni 0.42016(5) 0.71008(5) 1.0000
Ni1C_2 Ni -0.28992(2) 0.42016(5) 0.0000
Ni1C_3 Ni -0.28992(2) 0.42016(5) 1.0000
Ni1C_4 Ni 0.71008(2) 0.42016(5) 1.0000
Ni1D_2 Ni 0.28992(5) 0.71008(2) 1.0000
Ni1E_2 Ni -0.42016(5) 0.28992(5) 0.0000
Ni1E_3 Ni 0.57984(5) 0.28992(5) 1.0000
Ni1E_4 Ni 0.57984(5) 1.28992(5) 0.0000
Ni1E_5 Ni 0.57984(5) 1.28992(5) 1.0000
O1A_2 O 0.6666 0.3333 0.0000
O2E_2 O 0.57370(19) 0.23215(27) 0.1287(4)
O2F_2 O 0.42630(19) 0.65845(19) -0.1287(4)
O2G_2 O 0.76785(27) 0.42630(19) -0.1287(4)
O2H_2 O 0.34155(19) 0.76785(27) -0.1287(4)
O2I_2 O 0.57370(19) 0.34155(19) -0.1287(4)
O2J_2 O 0.23215(27) 0.57370(19) -0.1287(4)
O2K_2 O -0.34155(19) 0.23215(27) -0.1287(4)
O2L_2 O 0.65845(19) 0.42630(19) -0.1287(4)
O2M_2 O 0.23215(27) 0.65845(19) -0.1287(4)
O2N_2 O 0.57370(19) 0.23215(27) -0.1287(4)
O2O_2 O 0.34155(19) 0.57370(19) -0.1287(4)
O2P_2 O -0.23215(27) 0.34155(19) -0.1287(4)
O2Q_2 O 0.42630(19) 0.76785(27) -0.1287(4)
O2T_2 O -0.34155(19) 0.23215(27) 0.1287(4)
O2V_2 O 0.76785(27) 0.42630(19) 0.1287(4)
O4 O 0.3333 0.6667 0.5000
loop_
_geom_bond_atom_site_label_1
_geom_bond_atom_site_label_2
_geom_bond_site_symmetry_1
_geom_bond_site_symmetry_2
Ni1 O1 1_555 1_555
O1 Ni1B 1_555 1_555
O2 Ni1 1_555 1_555
O3 Ni1 1_555 1_555
C1 O2 1_555 1_555
C2 C1 1_555 1_555
C3 C4 1_555 1_555
C4 C3C 1_555 1_555
C5 C2 1_555 1_555
H1 C5 1_555 1_555
C6 C3 1_555 1_555
H2 C6 1_555 1_555
O2C C1C 1_555 1_555
C1C C2C 1_555 1_555
C2C C5C 1_555 1_555
C3C C6C 1_555 1_555
C5C H1C 1_555 1_555
C6C C5C 1_555 1_555
H2C C6C 1_555 1_555
O2F C1F 1_555 1_555
C1F C2F 1_555 1_555
C2F C5F 1_555 1_555
C3F C4F 1_555 1_555
C4F C4 1_555 1_555
C5F H1F 1_555 1_555
C6F C3F 1_555 1_555
H2F C6F 1_555 1_555
O2I C1I 1_555 1_555
C1I C2I 1_555 1_555
C2I C5I 1_555 1_555
C3I C4F 1_555 1_555
C5I H1I 1_555 1_555
C6I C3I 1_555 1_555
H2I C6I 1_555 1_555
O2L C1I 1_555 1_555
C5L C2I 1_555 1_555
H1L C5L 1_555 1_555
C6L C3I 1_555 1_555
H2L C6L 1_555 1_555
O2O C1F 1_555 1_555
C5O C2F 1_555 1_555
H1O C5O 1_555 1_555
C6O C3F 1_555 1_555
H2O C6O 1_555 1_555
O2R C1C 1_555 1_555
C5R C2C 1_555 1_555
H1R C5R 1_555 1_555
C6R C3C 1_555 1_555
H2R C6R 1_555 1_555
O2U C1 1_555 1_555
C5U C2 1_555 1_555
H1U C5U 1_555 1_555
C6U C3 1_555 1_555
H2U C6U 1_555 1_555
Ni1A O1A 1_555 1_555
O1A Ni1C_2 1_555 1_555
O2A Ni1A 1_555 1_555
O3A Ni1A 1_555 1_555
C1A O2A 1_555 1_555
C2A C1A 1_555 1_555
C3A C4A 1_555 1_555
C4A C3D 1_555 1_555
C5A C2A 1_555 1_555
H1A C5A 1_555 1_555
C6A C3A 1_555 1_555
H2A C6A 1_555 1_555
O2D C1D 1_555 1_555
C1D C2D 1_555 1_555
C2D C5D 1_555 1_555
C3D C6D 1_555 1_555
C5D H1D 1_555 1_555
C6D C5D 1_555 1_555
H2D C6D 1_555 1_555
O2G C1G 1_555 1_555
C1G C2G 1_555 1_555
C2G C5G 1_555 1_555
C3G C4G 1_555 1_555
C4G C4A 1_555 1_555
C5G H1G 1_555 1_555
C6G C3G 1_555 1_555
H2G C6G 1_555 1_555
O2J C1J 1_555 1_555
C1J C2J 1_555 1_555
C2J C5J 1_555 1_555
C3J C4G 1_555 1_555
C5J H1J 1_555 1_555
C6J C3J 1_555 1_555
H2J C6J 1_555 1_555
O2M C1J 1_555 1_555
C5M C2J 1_555 1_555
H1M C5M 1_555 1_555
C6M C3J 1_555 1_555
H2M C6M 1_555 1_555
O2P C1G 1_555 1_555
C5P C2G 1_555 1_555
H1P C5P 1_555 1_555
C6P C3G 1_555 1_555
H2P C6P 1_555 1_555
O2S Ni1 1_555 1_555
C5S C2D 1_555 1_555
H1S C5S 1_555 1_555
C6S C3D 1_555 1_555
H2S C6S 1_555 1_555
O2V C1A 1_555 1_555
C5V C2A 1_555 1_555
H1V C5V 1_555 1_555
C6V C3A 1_555 1_555
H2V C6V 1_555 1_555
Ni1B O2U 1_555 1_555
O2B Ni1B 1_555 1_555
O3B Ni1B 1_555 1_555
C1B O2B 1_555 1_555
C2B C1B 1_555 1_555
C3B C4B 1_555 1_555
C4B C3E 1_555 1_555
C5B C2B 1_555 1_555
H1B C5B 1_555 1_555
C6B C3B 1_555 1_555
H2B C6B 1_555 1_555
O2E C1E 1_555 1_555
C1E C2E 1_555 1_555
C2E C5E 1_555 1_555
C3E C6E 1_555 1_555
C5E H1E 1_555 1_555
C6E C5E 1_555 1_555
H2E C6E 1_555 1_555
O2H C1H 1_555 1_555
C1H C2H 1_555 1_555
C2H C5H 1_555 1_555
C3H C4H 1_555 1_555
C4H C4B 1_555 1_555
C5H H1H 1_555 1_555
C6H C3H 1_555 1_555
H2H C6H 1_555 1_555
O2K C1K 1_555 1_555
C1K C2K 1_555 1_555
C2K C5K 1_555 1_555
C3K C4H 1_555 1_555
C5K H1K 1_555 1_555
C6K C3K 1_555 1_555
H2K C6K 1_555 1_555
O2N C1K 1_555 1_555
C5N C2K 1_555 1_555
H1N C5N 1_555 1_555
C6N C3K 1_555 1_555
H2N C6N 1_555 1_555
O2Q C1H 1_555 1_555
C5Q C2H 1_555 1_555
H1Q C5Q 1_555 1_555
C6Q C3H 1_555 1_555
H2Q C6Q 1_555 1_555
O2T C1E 1_555 1_555
C5T C2E 1_555 1_555
H1T C5T 1_555 1_555
C6T C3E 1_555 1_555
H2T C6T 1_555 1_555
O2W C1B 1_555 1_555
C5W C2B 1_555 1_555
H1W C5W 1_555 1_555
C6W C3B 1_555 1_555
H2W C6W 1_555 1_555
Ni1C O2C 1_555 1_555
O3C Ni1C 1_555 1_555
Ni1D O1 1_555 1_555
O3D Ni1D 1_555 1_555
Ni1E O2R 1_555 1_555
O3E Ni1E 1_555 1_555
Ni1_2 O2O 1_555 1_555
Ni1A_2 O2P 1_555 1_555
Ni1A_3 O2T 1_555 1_555
Ni1A_4 O2K 1_555 1_555
Ni1B_2 O2F 1_555 1_555
Ni1C_2 O2V 1_555 1_555
Ni1C_3 O2G 1_555 1_555
Ni1C_4 O2L 1_555 1_555
Ni1D_2 O2M 1_555 1_555
Ni1E_2 O1A 1_555 1_555
Ni1E_3 O2I 1_555 1_555
Ni1E_4 O2E 1_555 1_555
Ni1E_5 O2N 1_555 1_555
O1A_2 Ni1C 1_555 1_555
O2E_2 Ni1E 1_555 1_555
O2F_2 Ni1B 1_555 1_555
O2G_2 Ni1C 1_555 1_555
O2H_2 Ni1D 1_555 1_555
O2I_2 Ni1E 1_555 1_555
O2J_2 Ni1 1_555 1_555
O2K_2 Ni1A 1_555 1_555
O2L_2 Ni1C 1_555 1_555
O2M_2 Ni1D 1_555 1_555
O2N_2 Ni1E 1_555 1_555
O2O_2 Ni1 1_555 1_555
O2P_2 Ni1A 1_555 1_555
O2Q_2 Ni1B 1_555 1_555
O2T_2 Ni1A 1_555 1_555
O2V_2 Ni1C 1_555 1_555
C5 C6 1_555 1_555
C5F C6F 1_555 1_555
C5I C6I 1_555 1_555
C5L C6L 1_555 1_555
C5O C6O 1_555 1_555
C5R C6R 1_555 1_555
C5U C6U 1_555 1_555
C5A C6A 1_555 1_555
O2D Ni1D 1_555 1_555
C1D O2S 1_555 1_555
C5G C6G 1_555 1_555
O2J Ni1_2 1_555 1_555
C5J C6J 1_555 1_555
C5M C6M 1_555 1_555
C5P C6P 1_555 1_555
C5S C6S 1_555 1_555
C5V C6V 1_555 1_555
C5B C6B 1_555 1_555
O2H Ni1D_2 1_555 1_555
C5H C6H 1_555 1_555
C5K C6K 1_555 1_555
C5N C6N 1_555 1_555
O2Q Ni1B_2 1_555 1_555
C5Q C6Q 1_555 1_555
C5T C6T 1_555 1_555
O2W Ni1D 1_555 1_555
C5W C6W 1_555 1_555
Ni1E O1A_2 1_555 1_555

#END
