
#######################################################################
#
#                 Cambridge Crystallographic Data Centre
#                                CCDC 
#
#######################################################################
#
# If this CIF has been generated from an entry in the Cambridge 
# Structural Database, then it will include bibliographic, chemical, 
# crystal, experimental, refinement or atomic coordinate data resulting 
# from the CCDC's data processing and validation procedures.
#
#######################################################################

data_CUMKIG03
_chemical_formula_moiety         '(C42 H46 Co1 N13 O5 1+)n'
_symmetry_cell_setting           triclinic
_symmetry_space_group_name_H-M   'P -1'
_symmetry_Int_Tables_number      2
_space_group_name_Hall           '-P 1'
loop_
_symmetry_equiv_pos_site_id
_symmetry_equiv_pos_as_xyz
1 x,y,z
2 -x,-y,-z
_cell_length_a                   9.2406(5)
_cell_length_b                   9.9570(4)
_cell_length_c                   13.3017(6)
_cell_angle_alpha                78.394(4)
_cell_angle_beta                 73.580(4)
_cell_angle_gamma                81.982(4)
_cell_volume                     1145.5
loop_
_atom_site_label
_atom_site_type_symbol
_atom_site_fract_x
_atom_site_fract_y
_atom_site_fract_z
Co1 Co 0.5000 0.0000 0.0000
N1 N 0.2648(2) 0.0432(2) 0.09029(16)
N2 N 0.0642(2) 0.1195(2) 0.20681(16)
N3 N 0.5725(2) 0.1484(2) 0.06577(16)
N4 N 0.6329(2) 0.3484(2) 0.07925(18)
N5 N 0.4605(2) 0.1495(2) -0.13506(16)
N6 N 0.4777(2) 0.2223(2) -0.30556(16)
C1 C 0.1377(3) -0.0105(3) 0.0846(2)
H1 H 0.1369 -0.0697 0.0389
C2 C 0.0143(3) 0.0366(3) 0.1561(2)
H2 H -0.0850 0.0162 0.1682
C3 C 0.2150(3) 0.1209(3) 0.16459(19)
H3 H 0.2764 0.1706 0.1853
C4 C -0.0225(3) 0.1779(3) 0.3010(2)
H4 H -0.1283 0.1941 0.3005
H5 H 0.0136 0.2659 0.2981
C5 C -0.0091(3) 0.0840(3) 0.4034(2)
C6 C 0.0017(3) -0.0586(3) 0.4140(2)
H6 H 0.0029 -0.0988 0.3564
C7 C -0.0107(3) 0.1416(3) 0.4903(2)
H7 H -0.0179 0.2368 0.4845
C8 C 0.5801(3) 0.1453(3) 0.1680(2)
H8 H 0.5627 0.0698 0.2225
C9 C 0.6166(3) 0.2682(3) 0.1775(2)
H9 H 0.6282 0.2931 0.2383
C10 C 0.6060(3) 0.2730(3) 0.0148(2)
H10 H 0.6104 0.3043 -0.0566
C11 C 0.6756(3) 0.4908(3) 0.0485(2)
H11 H 0.6257 0.5412 0.1060
H12 H 0.6407 0.5350 -0.0134
C12 C 0.8442(3) 0.4969(2) 0.0234(2)
C13 C 0.9127(3) 0.4932(3) 0.1043(2)
H13 H 0.8545 0.4889 0.1743
C14 C 0.9312(3) 0.5039(3) -0.0804(2)
H14 H 0.8850 0.5067 -0.1346
C15 C 0.3187(3) 0.1945(3) -0.1495(2)
H15 H 0.2295 0.1946 -0.0952
C16 C 0.3277(3) 0.2383(3) -0.2537(2)
H16 H 0.2480 0.2725 -0.2841
C17 C 0.5537(3) 0.1696(3) -0.23181(19)
H17 H 0.6582 0.1498 -0.2468
C18 C 0.5416(3) 0.2411(3) -0.4222(2)
H18 H 0.6485 0.2542 -0.4395
H19 H 0.4911 0.3226 -0.4556
C19 C 0.5215(3) 0.1173(3) -0.46419(19)
C20 C 0.4078(3) 0.1201(3) -0.5144(2)
H20 H 0.3455 0.2006 -0.5248
C21 C 0.6134(3) -0.0041(3) -0.4511(2)
H21 H 0.6908 -0.0075 -0.4183
N1A N -0.2648(2) -0.0432(2) 0.90971(16)
N2A N -0.0642(2) -0.1195(2) 0.79319(16)
C1A C -0.1377(3) 0.0105(3) 0.9154(2)
H1A H -0.1369 0.0697 0.9611
C2A C -0.0143(3) -0.0366(3) 0.8439(2)
H2A H 0.0850 -0.0162 0.8318
C3A C -0.2150(3) -0.1209(3) 0.83541(19)
H3A H -0.2764 -0.1706 0.8147
C4A C 0.0225(3) -0.1779(3) 0.6990(2)
H4A H 0.1283 -0.1941 0.6995
H5A H -0.0136 -0.2659 0.7019
C5A C 0.0091(3) -0.0840(3) 0.5966(2)
C6A C -0.0017(3) 0.0586(3) 0.5860(2)
H6A H -0.0029 0.0988 0.6436
C7A C 0.0107(3) -0.1416(3) 0.5097(2)
H7A H 0.0179 -0.2368 0.5155
N3A N 1.4275(2) 0.8516(2) -0.06577(16)
N4A N 1.3671(2) 0.6516(2) -0.07925(18)
C8A C 1.4199(3) 0.8547(3) -0.1680(2)
H8A H 1.4373 0.9302 -0.2225
C9A C 1.3834(3) 0.7318(3) -0.1775(2)
H9A H 1.3718 0.7069 -0.2383
C10A C 1.3940(3) 0.7270(3) -0.0148(2)
H10A H 1.3896 0.6957 0.0566
C11A C 1.3244(3) 0.5092(3) -0.0485(2)
H11A H 1.3743 0.4588 -0.1060
H12A H 1.3593 0.4650 0.0134
C12A C 1.1558(3) 0.5031(2) -0.0234(2)
C13A C 1.0873(3) 0.5068(3) -0.1043(2)
H13A H 1.1455 0.5111 -0.1743
C14A C 1.0688(3) 0.4961(3) 0.0804(2)
H14A H 1.1150 0.4933 0.1346
N5A N 0.5395(2) -0.1495(2) -0.86494(16)
N6A N 0.5223(2) -0.2223(2) -0.69444(16)
C15A C 0.6813(3) -0.1945(3) -0.8505(2)
H15A H 0.7705 -0.1946 -0.9048
C16A C 0.6723(3) -0.2383(3) -0.7463(2)
H16A H 0.7520 -0.2725 -0.7159
C17A C 0.4463(3) -0.1696(3) -0.76819(19)
H17A H 0.3418 -0.1498 -0.7532
C18A C 0.4584(3) -0.2411(3) -0.5778(2)
H18A H 0.3515 -0.2542 -0.5605
H19A H 0.5089 -0.3226 -0.5444
C19A C 0.4785(3) -0.1173(3) -0.53581(19)
C20A C 0.5922(3) -0.1201(3) -0.4856(2)
H20A H 0.6545 -0.2006 -0.4752
C21A C 0.3866(3) 0.0041(3) -0.5489(2)
H21A H 0.3092 0.0075 -0.5817
Co1_2 Co -0.5000 0.0000 1.0000
Co1_3 Co 0.5000 0.0000 -1.0000
Co1_4 Co 1.5000 1.0000 0.0000
N1A_2 N 0.7352(2) -0.0432(2) -0.09029(16)
N3A_2 N 0.4275(2) -0.1484(2) -0.06577(16)
N5A_2 N 0.5395(2) -0.1495(2) 0.13506(16)
O1 O 0.1384(3) 0.4388(3) -0.4098(2)
H22 H 0.1887 0.4406 -0.4732
H23 H 0.0603 0.4916 -0.4126
O2 O 0.6550(3) 0.4845(3) -0.2183(2)
O3 O 0.6499(5) 0.5091(4) -0.3803(3)
O4 O 0.8371(4) 0.5678(4) -0.3442(3)
N7 N 0.7161(3) 0.5134(3) -0.3122(2)
O5 O 0.3330(4) 0.5835(3) -0.3529(2)
H24 H 0.2724 0.5415 -0.3704
H25 H 0.4176 0.5355 -0.3583
loop_
_geom_bond_atom_site_label_1
_geom_bond_atom_site_label_2
_geom_bond_site_symmetry_1
_geom_bond_site_symmetry_2
Co1 N1 1_555 1_555
N1 C1 1_555 1_555
N2 C2 1_555 1_555
N3 Co1 1_555 1_555
N4 C9 1_555 1_555
N5 Co1 1_555 1_555
N6 C16 1_555 1_555
C1 H1 1_555 1_555
C2 C1 1_555 1_555
H2 C2 1_555 1_555
C3 N1 1_555 1_555
H3 C3 1_555 1_555
C4 N2 1_555 1_555
H4 C4 1_555 1_555
H5 C4 1_555 1_555
C5 C4 1_555 1_555
C6 C5 1_555 1_555
H6 C6 1_555 1_555
C7 C5 1_555 1_555
H7 C7 1_555 1_555
C8 N3 1_555 1_555
H8 C8 1_555 1_555
C9 C8 1_555 1_555
H9 C9 1_555 1_555
C10 N3 1_555 1_555
H10 C10 1_555 1_555
C11 N4 1_555 1_555
H11 C11 1_555 1_555
H12 C11 1_555 1_555
C12 C11 1_555 1_555
C13 C12 1_555 1_555
H13 C13 1_555 1_555
C14 C12 1_555 1_555
H14 C14 1_555 1_555
C15 N5 1_555 1_555
H15 C15 1_555 1_555
C16 C15 1_555 1_555
H16 C16 1_555 1_555
C17 N5 1_555 1_555
H17 C17 1_555 1_555
C18 N6 1_555 1_555
H18 C18 1_555 1_555
H19 C18 1_555 1_555
C19 C18 1_555 1_555
C20 C19 1_555 1_555
H20 C20 1_555 1_555
C21 C19 1_555 1_555
H21 C21 1_555 1_555
O1 H22 1_555 1_555
H23 O1 1_555 1_555
O2 N7 1_555 1_555
O3 N7 1_555 1_555
O4 N7 1_555 1_555
O5 H24 1_555 1_555
H25 O5 1_555 1_555
N1A C1A 1_555 1_555
N2A C2A 1_555 1_555
C1A H1A 1_555 1_555
C2A C1A 1_555 1_555
H2A C2A 1_555 1_555
C3A N1A 1_555 1_555
H3A C3A 1_555 1_555
C4A N2A 1_555 1_555
H4A C4A 1_555 1_555
H5A C4A 1_555 1_555
C5A C4A 1_555 1_555
C6A C7 1_555 1_555
H6A C6A 1_555 1_555
C7A C6 1_555 1_555
H7A C7A 1_555 1_555
N3A C8A 1_555 1_555
N4A C9A 1_555 1_555
C8A H8A 1_555 1_555
C9A C8A 1_555 1_555
H9A C9A 1_555 1_555
C10A N3A 1_555 1_555
H10A C10A 1_555 1_555
C11A N4A 1_555 1_555
H11A C11A 1_555 1_555
H12A C11A 1_555 1_555
C12A C11A 1_555 1_555
C13A C14 1_555 1_555
H13A C13A 1_555 1_555
C14A C13 1_555 1_555
H14A C14A 1_555 1_555
N5A C15A 1_555 1_555
N6A C16A 1_555 1_555
C15A H15A 1_555 1_555
C16A C15A 1_555 1_555
H16A C16A 1_555 1_555
C17A N5A 1_555 1_555
H17A C17A 1_555 1_555
C18A N6A 1_555 1_555
H18A C18A 1_555 1_555
H19A C18A 1_555 1_555
C19A C18A 1_555 1_555
C20A C21 1_555 1_555
H20A C20A 1_555 1_555
C21A C20 1_555 1_555
H21A C21A 1_555 1_555
Co1_2 N1A 1_555 1_555
Co1_3 N5A 1_555 1_555
Co1_4 N3A 1_555 1_555
N1A_2 Co1 1_555 1_555
N3A_2 Co1 1_555 1_555
N5A_2 Co1 1_555 1_555
N2 C3 1_555 1_555
N4 C10 1_555 1_555
N6 C17 1_555 1_555
N2A C3A 1_555 1_555
C5A C6A 1_555 1_555
C5A C7A 1_555 1_555
N4A C10A 1_555 1_555
C12A C13A 1_555 1_555
C12A C14A 1_555 1_555
N6A C17A 1_555 1_555
C19A C20A 1_555 1_555
C19A C21A 1_555 1_555

#END
