
#######################################################################
#
#                 Cambridge Crystallographic Data Centre
#                                CCDC 
#
#######################################################################
#
# If this CIF has been generated from an entry in the Cambridge 
# Structural Database, then it will include bibliographic, chemical, 
# crystal, experimental, refinement or atomic coordinate data resulting 
# from the CCDC's data processing and validation procedures.
#
#######################################################################

data_FUXCOS
_chemical_formula_moiety         'C56 H26 Ag5 N11 O1 S12'
_symmetry_cell_setting           orthorhombic
_symmetry_space_group_name_H-M   'F d d d'
_symmetry_Int_Tables_number      70
_space_group_name_Hall           '-F 2uv 2vw'
loop_
_symmetry_equiv_pos_site_id
_symmetry_equiv_pos_as_xyz
1 x,y,z
2 3/4-x,3/4-y,z
3 3/4-x,y,3/4-z
4 x,3/4-y,3/4-z
5 x,1/2+y,1/2+z
6 3/4-x,1/4-y,1/2+z
7 3/4-x,1/2+y,1/4-z
8 x,1/4-y,1/4-z
9 1/2+x,y,1/2+z
10 1/4-x,3/4-y,1/2+z
11 1/4-x,y,1/4-z
12 1/2+x,3/4-y,1/4-z
13 1/2+x,1/2+y,z
14 1/4-x,1/4-y,z
15 1/4-x,1/2+y,3/4-z
16 1/2+x,1/4-y,3/4-z
17 -x,-y,-z
18 1/4+x,1/4+y,-z
19 1/4+x,-y,1/4+z
20 -x,1/4+y,1/4+z
21 -x,1/2-y,1/2-z
22 1/4+x,3/4+y,1/2-z
23 1/4+x,1/2-y,3/4+z
24 -x,3/4+y,3/4+z
25 1/2-x,-y,1/2-z
26 3/4+x,1/4+y,1/2-z
27 3/4+x,-y,3/4+z
28 1/2-x,1/4+y,3/4+z
29 1/2-x,1/2-y,-z
30 3/4+x,3/4+y,-z
31 3/4+x,1/2-y,1/4+z
32 1/2-x,3/4+y,1/4+z
_cell_length_a                   12.7731(13)
_cell_length_b                   29.872(3)
_cell_length_c                   33.792(4)
_cell_angle_alpha                90
_cell_angle_beta                 90
_cell_angle_gamma                90
_cell_volume                     12893.6
loop_
_atom_site_label
_atom_site_type_symbol
_atom_site_fract_x
_atom_site_fract_y
_atom_site_fract_z
O1 O 0.3750 0.3750 0.2104(5)
Ag1 Ag 1.1250 0.1250 0.1250
Ag2 Ag -0.1250 0.3750 -0.1250
S1 S 0.74993(11) 0.19766(5) 0.04497(5)
S2 S 0.49117(12) 0.29184(5) 0.03681(5)
S3 S 0.25420(12) 0.29208(5) -0.05581(4)
N1 N 0.9992(4) 0.17016(18) 0.09691(14)
N2 N -0.0028(4) 0.34037(17) -0.08632(14)
C1 C 0.9260(5) 0.1908(2) 0.09009(17)
C2 C 0.8355(5) 0.2160(2) 0.08080(16)
C3 C 0.8047(5) 0.2556(2) 0.09674(18)
H1 H 0.8419 0.2708 0.1171
C4 C 0.7119(5) 0.2717(3) 0.07973(18)
H2 H 0.6794 0.2989 0.0874
C5 C 0.6728(4) 0.2442(2) 0.05101(16)
C6 C 0.5812(4) 0.25019(19) 0.02631(16)
C7 C 0.5521(4) 0.2262(2) -0.00680(17)
H3 H 0.5906 0.2014 -0.0168
C8 C 0.4588(4) 0.2423(2) -0.02434(17)
H4 H 0.4286 0.2298 -0.0475
C9 C 0.4162(4) 0.2781(2) -0.00413(17)
C10 C 0.3196(4) 0.30226(19) -0.01211(16)
C11 C 0.2684(4) 0.3328(2) 0.01055(18)
H5 H 0.2940 0.3431 0.0353
C12 C 0.1745(5) 0.3475(2) -0.00604(18)
H6 H 0.1282 0.3679 0.0064
C13 C 0.1573(4) 0.3290(2) -0.04220(17)
C14 C 0.0681(4) 0.33512(19) -0.06669(16)
S1A S -0.99993(11) 0.55234(5) 0.04497(5)
S2A S -0.74117(12) 0.45816(5) 0.03681(5)
S3A S -0.50420(12) 0.45792(5) -0.05581(4)
N1A N -1.2492(4) 0.57984(18) 0.09691(14)
N2A N -0.2472(4) 0.40963(17) -0.08632(14)
C1A C -1.1760(5) 0.5592(2) 0.09009(17)
C2A C -1.0855(5) 0.5340(2) 0.08080(16)
C3A C -1.0547(5) 0.4944(2) 0.09674(18)
H1A H -1.0919 0.4792 0.1171
C4A C -0.9619(5) 0.4783(3) 0.07973(18)
H2A H -0.9294 0.4511 0.0874
C5A C -0.9228(4) 0.5058(2) 0.05101(16)
C6A C -0.8312(4) 0.49981(19) 0.02631(16)
C7A C -0.8021(4) 0.5238(2) -0.00680(17)
H3A H -0.8406 0.5486 -0.0168
C8A C -0.7088(4) 0.5077(2) -0.02434(17)
H4A H -0.6786 0.5202 -0.0475
C9A C -0.6662(4) 0.4719(2) -0.00413(17)
C10A C -0.5696(4) 0.44774(19) -0.01211(16)
C11A C -0.5184(4) 0.4172(2) 0.01055(18)
H5A H -0.5440 0.4069 0.0353
C12A C -0.4245(5) 0.4025(2) -0.00604(18)
H6A H -0.3782 0.3821 0.0064
C13A C -0.4073(4) 0.4210(2) -0.04220(17)
C14A C -0.3181(4) 0.41488(19) -0.06669(16)
S1B S -0.99993(11) 0.19766(5) -0.29497(5)
S2B S -0.74117(12) 0.29184(5) -0.28681(5)
S3B S -0.50420(12) 0.29208(5) -0.19419(4)
N1B N -1.2492(4) 0.17016(18) -0.34691(14)
N2B N -0.2472(4) 0.34037(17) -0.16368(14)
C1B C -1.1760(5) 0.1908(2) -0.34009(17)
C2B C -1.0855(5) 0.2160(2) -0.33080(16)
C3B C -1.0547(5) 0.2556(2) -0.34674(18)
H1B H -1.0919 0.2708 -0.3671
C4B C -0.9619(5) 0.2717(3) -0.32973(18)
H2B H -0.9294 0.2989 -0.3374
C5B C -0.9228(4) 0.2442(2) -0.30101(16)
C6B C -0.8312(4) 0.25019(19) -0.27631(16)
C7B C -0.8021(4) 0.2262(2) -0.24320(17)
H3B H -0.8406 0.2014 -0.2332
C8B C -0.7088(4) 0.2423(2) -0.22566(17)
H4B H -0.6786 0.2298 -0.2025
C9B C -0.6662(4) 0.2781(2) -0.24587(17)
C10B C -0.5696(4) 0.30226(19) -0.23789(16)
C11B C -0.5184(4) 0.3328(2) -0.26055(18)
H5B H -0.5440 0.3431 -0.2853
C12B C -0.4245(5) 0.3475(2) -0.24396(18)
H6B H -0.3782 0.3679 -0.2564
C13B C -0.4073(4) 0.3290(2) -0.20780(17)
C14B C -0.3181(4) 0.33512(19) -0.18331(16)
S1C S 0.74993(11) 0.55234(5) -0.29497(5)
S2C S 0.49117(12) 0.45816(5) -0.28681(5)
S3C S 0.25420(12) 0.45792(5) -0.19419(4)
N1C N 0.9992(4) 0.57984(18) -0.34691(14)
N2C N -0.0028(4) 0.40963(17) -0.16368(14)
C1C C 0.9260(5) 0.5592(2) -0.34009(17)
C2C C 0.8355(5) 0.5340(2) -0.33080(16)
C3C C 0.8047(5) 0.4944(2) -0.34674(18)
H1C H 0.8419 0.4792 -0.3671
C4C C 0.7119(5) 0.4783(3) -0.32973(18)
H2C H 0.6794 0.4511 -0.3374
C5C C 0.6728(4) 0.5058(2) -0.30101(16)
C6C C 0.5812(4) 0.49981(19) -0.27631(16)
C7C C 0.5521(4) 0.5238(2) -0.24320(17)
H3C H 0.5906 0.5486 -0.2332
C8C C 0.4588(4) 0.5077(2) -0.22566(17)
H4C H 0.4286 0.5202 -0.2025
C9C C 0.4162(4) 0.4719(2) -0.24587(17)
C10C C 0.3196(4) 0.44774(19) -0.23789(16)
C11C C 0.2684(4) 0.4172(2) -0.26055(18)
H5C H 0.2940 0.4069 -0.2853
C12C C 0.1745(5) 0.4025(2) -0.24396(18)
H6C H 0.1282 0.3821 -0.2564
C13C C 0.1573(4) 0.4210(2) -0.20780(17)
C14C C 0.0681(4) 0.41488(19) -0.18331(16)
Ag1A Ag -1.3750 0.6250 0.1250
Ag1B Ag -1.3750 0.1250 -0.3750
Ag1C Ag 1.1250 0.6250 -0.3750
N1G N 0.9992(4) 0.07984(18) 0.15309(14)
N1J N 1.2508(4) 0.17016(18) 0.15309(14)
N1M N 1.2508(4) 0.07984(18) 0.09691(14)
loop_
_geom_bond_atom_site_label_1
_geom_bond_atom_site_label_2
_geom_bond_site_symmetry_1
_geom_bond_site_symmetry_2
Ag1 N1 1_555 1_555
Ag2 N2 1_555 1_555
S1 C2 1_555 1_555
S2 C6 1_555 1_555
S3 C10 1_555 1_555
N1 C1 1_555 1_555
N2 C14 1_555 1_555
C1 C2 1_555 1_555
C2 C3 1_555 1_555
C3 H1 1_555 1_555
C4 C3 1_555 1_555
H2 C4 1_555 1_555
C5 S1 1_555 1_555
C6 C5 1_555 1_555
C7 C6 1_555 1_555
H3 C7 1_555 1_555
C8 C7 1_555 1_555
H4 C8 1_555 1_555
C9 S2 1_555 1_555
C10 C9 1_555 1_555
C11 C10 1_555 1_555
H5 C11 1_555 1_555
C12 C11 1_555 1_555
H6 C12 1_555 1_555
C13 S3 1_555 1_555
C14 C13 1_555 1_555
S1A C2A 1_555 1_555
S2A C6A 1_555 1_555
S3A C10A 1_555 1_555
N1A C1A 1_555 1_555
N2A Ag2 1_555 1_555
C1A C2A 1_555 1_555
C2A C3A 1_555 1_555
C3A H1A 1_555 1_555
C4A C3A 1_555 1_555
H2A C4A 1_555 1_555
C5A S1A 1_555 1_555
C6A C5A 1_555 1_555
C7A C6A 1_555 1_555
H3A C7A 1_555 1_555
C8A C7A 1_555 1_555
H4A C8A 1_555 1_555
C9A S2A 1_555 1_555
C10A C9A 1_555 1_555
C11A C10A 1_555 1_555
H5A C11A 1_555 1_555
C12A C11A 1_555 1_555
H6A C12A 1_555 1_555
C13A S3A 1_555 1_555
C14A N2A 1_555 1_555
S1B C2B 1_555 1_555
S2B C6B 1_555 1_555
S3B C10B 1_555 1_555
N1B C1B 1_555 1_555
N2B Ag2 1_555 1_555
C1B C2B 1_555 1_555
C2B C3B 1_555 1_555
C3B H1B 1_555 1_555
C4B C3B 1_555 1_555
H2B C4B 1_555 1_555
C5B S1B 1_555 1_555
C6B C5B 1_555 1_555
C7B C6B 1_555 1_555
H3B C7B 1_555 1_555
C8B C7B 1_555 1_555
H4B C8B 1_555 1_555
C9B S2B 1_555 1_555
C10B C9B 1_555 1_555
C11B C10B 1_555 1_555
H5B C11B 1_555 1_555
C12B C11B 1_555 1_555
H6B C12B 1_555 1_555
C13B S3B 1_555 1_555
C14B N2B 1_555 1_555
S1C C2C 1_555 1_555
S2C C6C 1_555 1_555
S3C C10C 1_555 1_555
N1C C1C 1_555 1_555
N2C Ag2 1_555 1_555
C1C C2C 1_555 1_555
C2C C3C 1_555 1_555
C3C H1C 1_555 1_555
C4C C3C 1_555 1_555
H2C C4C 1_555 1_555
C5C S1C 1_555 1_555
C6C C5C 1_555 1_555
C7C C6C 1_555 1_555
H3C C7C 1_555 1_555
C8C C7C 1_555 1_555
H4C C8C 1_555 1_555
C9C S2C 1_555 1_555
C10C C9C 1_555 1_555
C11C C10C 1_555 1_555
H5C C11C 1_555 1_555
C12C C11C 1_555 1_555
H6C C12C 1_555 1_555
C13C S3C 1_555 1_555
C14C N2C 1_555 1_555
Ag1A N1A 1_555 1_555
Ag1B N1B 1_555 1_555
Ag1C N1C 1_555 1_555
N1G Ag1 1_555 1_555
N1J Ag1 1_555 1_555
N1M Ag1 1_555 1_555
C4 C5 1_555 1_555
C8 C9 1_555 1_555
C12 C13 1_555 1_555
C4A C5A 1_555 1_555
C8A C9A 1_555 1_555
C12A C13A 1_555 1_555
C13A C14A 1_555 1_555
C4B C5B 1_555 1_555
C8B C9B 1_555 1_555
C12B C13B 1_555 1_555
C13B C14B 1_555 1_555
C4C C5C 1_555 1_555
C8C C9C 1_555 1_555
C12C C13C 1_555 1_555
C13C C14C 1_555 1_555

#END
