
#######################################################################
#
#                 Cambridge Crystallographic Data Centre
#                                CCDC 
#
#######################################################################
#
# If this CIF has been generated from an entry in the Cambridge 
# Structural Database, then it will include bibliographic, chemical, 
# crystal, experimental, refinement or atomic coordinate data resulting 
# from the CCDC's data processing and validation procedures.
#
#######################################################################

data_ENAQER
_chemical_formula_moiety         '(C36 H30 Cd2 N10 O12)n'
_symmetry_cell_setting           monoclinic
_symmetry_space_group_name_H-M   'C 2/c'
_symmetry_Int_Tables_number      15
_space_group_name_Hall           '-C 2yc'
loop_
_symmetry_equiv_pos_site_id
_symmetry_equiv_pos_as_xyz
1 x,y,z
2 -x,y,1/2-z
3 1/2+x,1/2+y,z
4 1/2-x,1/2+y,1/2-z
5 -x,-y,-z
6 x,-y,1/2+z
7 1/2-x,1/2-y,-z
8 1/2+x,1/2-y,1/2+z
_cell_length_a                   16.3591(16)
_cell_length_b                   23.297(2)
_cell_length_c                   13.1565(13)
_cell_angle_alpha                90
_cell_angle_beta                 118.5290(10)
_cell_angle_gamma                90
_cell_volume                     4405.33
loop_
_atom_site_label
_atom_site_type_symbol
_atom_site_fract_x
_atom_site_fract_y
_atom_site_fract_z
C1 C 0.8929(5) 0.1479(2) 0.8709(4)
H1 H 0.9128 0.1448 0.9498
C2 C 0.8553(6) 0.1950(3) 0.8069(5)
H2 H 0.8444 0.2300 0.8322
C3 C 0.8641(4) 0.1272(2) 0.6993(4)
H3 H 0.8604 0.1077 0.6356
C4 C 0.7919(5) 0.2167(2) 0.5957(4)
C5 C 0.8453(5) 0.2409(3) 0.5522(5)
C6 C 0.6979(5) 0.2244(3) 0.5465(5)
C7 C 0.8826(3) -0.02662(19) 0.5731(4)
C8 C 0.7879(3) -0.0542(3) 0.5217(5)
H4 H 0.7619 -0.0558 0.4383
H5 H 0.7946 -0.0933 0.5499
C9 C 0.6606(3) 0.0113(3) 0.4751(5)
C10 C 0.6031(3) 0.0450(3) 0.5154(4)
C11 C 0.6265(4) 0.0515(3) 0.6309(5)
H6 H 0.6806 0.0348 0.6884
C12 C 0.5691(4) 0.0828(3) 0.6600(5)
H7 H 0.5848 0.0873 0.7374
C13 C 0.4890(4) 0.1076(3) 0.5758(5)
H8 H 0.4511 0.1289 0.5966
C14 C 0.4645(4) 0.1009(3) 0.4599(5)
C15 C 0.5219(4) 0.0696(3) 0.4312(4)
H9 H 0.5058 0.0649 0.3537
C16 C 0.3739(4) 0.1268(3) 0.3707(5)
C17 C 0.2505(4) 0.1240(3) 0.1697(5)
H10 H 0.2312 0.1589 0.1926
H11 H 0.2611 0.1334 0.1051
C18 C 0.1718(4) 0.0804(2) 0.1294(5)
Cd1 Cd 0.94219(3) 0.016200(19) 0.85473(3)
N1 N 0.8975(3) 0.10513(17) 0.8030(3)
N2 N 0.8362(4) 0.18099(19) 0.6965(4)
N3 N 0.6586(8) 0.2023(6) 0.5971(11)
H12 H 0.6904 0.1832 0.6599
H13 H 0.5995 0.2059 0.5695
N4 N 0.7244(3) -0.0239(3) 0.5495(4)
N5 N 0.3372(4) 0.1045(3) 0.2654(4)
O1 O 0.9092(3) 0.00684(15) 0.6558(3)
O2 O 0.6464(3) 0.0167(2) 0.3748(4)
O3 O 0.3374(3) 0.1662(2) 0.3959(4)
O4 O 0.1788(3) 0.04081(18) 0.2002(3)
O5 O 0.1048(3) 0.08651(19) 0.0304(4)
O6 O 0.9351(2) -0.04014(14) 0.5309(3)
H14 H 0.740(4) -0.025(2) 0.627(6)
H15 H 0.361(5) 0.070(3) 0.253(7)
C1F C 0.6071(5) 0.3521(2) 0.1291(4)
H1F H 0.5872 0.3552 0.0502
C2F C 0.6447(6) 0.3050(3) 0.1931(5)
H2F H 0.6556 0.2700 0.1678
C3F C 0.6359(4) 0.3728(2) 0.3007(4)
H3F H 0.6396 0.3923 0.3644
C4F C 0.7081(5) 0.2833(2) 0.4043(4)
C5F C 0.6547(5) 0.2591(3) 0.4478(5)
C6F C 0.8021(5) 0.2756(3) 0.4535(5)
N1F N 0.6025(3) 0.39487(17) 0.1970(3)
N2F N 0.6638(4) 0.31901(19) 0.3035(4)
N3F N 0.8414(8) 0.2977(6) 0.4029(11)
H12F H 0.8096 0.3168 0.3401
H13F H 0.9005 0.2941 0.4305
C7A C 1.1174(3) -0.02662(19) 0.9269(4)
C8A C 1.2121(3) -0.0542(3) 0.9783(5)
H4A H 1.2381 -0.0558 1.0617
H5A H 1.2054 -0.0933 0.9501
C9A C 1.3394(3) 0.0113(3) 1.0249(5)
C10A C 1.3969(3) 0.0450(3) 0.9846(4)
C11A C 1.3735(4) 0.0515(3) 0.8691(5)
H6A H 1.3194 0.0348 0.8116
C12A C 1.4309(4) 0.0828(3) 0.8400(5)
H7A H 1.4152 0.0873 0.7626
C13A C 1.5110(4) 0.1076(3) 0.9242(5)
H8A H 1.5489 0.1289 0.9034
C14A C 1.5355(4) 0.1009(3) 1.0401(5)
C15A C 1.4781(4) 0.0696(3) 1.0688(4)
H9A H 1.4942 0.0649 1.1463
C16A C 1.6261(4) 0.1268(3) 1.1293(5)
C17A C 1.7495(4) 0.1240(3) 1.3303(5)
H10A H 1.7688 0.1589 1.3074
H11A H 1.7389 0.1334 1.3949
C18A C 1.8282(4) 0.0804(2) 1.3706(5)
Cd1A Cd 1.05781(3) 0.016200(19) 0.64527(3)
N4A N 1.2756(3) -0.0239(3) 0.9505(4)
N5A N 1.6628(4) 0.1045(3) 1.2346(4)
O1A O 1.0908(3) 0.00684(15) 0.8442(3)
O2A O 1.3536(3) 0.0167(2) 1.1252(4)
O3A O 1.6626(3) 0.1662(2) 1.1041(4)
O4A O 1.8212(3) 0.04081(18) 1.2998(3)
O5A O 1.8952(3) 0.08651(19) 1.4696(4)
O6A O 1.0649(2) -0.04014(14) 0.9691(3)
H14A H 1.260(4) -0.025(2) 0.873(6)
H15A H 1.639(5) 0.070(3) 1.247(7)
Cd1D Cd 0.05781(3) -0.016200(19) 0.14527(3)
Cd1D_2 Cd 1.05781(3) -0.016200(19) 1.14527(3)
Cd1E Cd 0.94219(3) -0.016200(19) 0.35473(3)
Cd1E_2 Cd 1.94219(3) -0.016200(19) 1.35473(3)
Cd1F Cd 0.55781(3) 0.483800(19) 0.14527(3)
N1A N 1.1025(3) 0.10513(17) 0.6970(3)
O4D O 0.8212(3) -0.04081(18) 0.7998(3)
O4E O 1.1788(3) -0.04081(18) 0.7002(3)
O6D O 1.0649(2) 0.04014(14) 0.4691(3)
O6E O 0.9351(2) 0.04014(14) 1.0309(3)
loop_
_geom_bond_atom_site_label_1
_geom_bond_atom_site_label_2
_geom_bond_site_symmetry_1
_geom_bond_site_symmetry_2
C1 H1 1_555 1_555
C2 C1 1_555 1_555
H2 C2 1_555 1_555
C3 H3 1_555 1_555
C4 C5 1_555 1_555
C5 C6F 1_555 1_555
C6 C4 1_555 1_555
C7 C8 1_555 1_555
C8 H4 1_555 1_555
H5 C8 1_555 1_555
C9 C10 1_555 1_555
C10 C11 1_555 1_555
C11 H6 1_555 1_555
C12 C11 1_555 1_555
H7 C12 1_555 1_555
C13 C12 1_555 1_555
H8 C13 1_555 1_555
C14 C13 1_555 1_555
C15 C10 1_555 1_555
H9 C15 1_555 1_555
C16 C14 1_555 1_555
C17 H10 1_555 1_555
H11 C17 1_555 1_555
C18 C17 1_555 1_555
Cd1 N1 1_555 1_555
N1 C1 1_555 1_555
N2 C2 1_555 1_555
N3 C6 1_555 1_555
H12 N3 1_555 1_555
H13 N3 1_555 1_555
N4 C8 1_555 1_555
N5 C16 1_555 1_555
O1 C7 1_555 1_555
O2 C9 1_555 1_555
O3 C16 1_555 1_555
O4 C18 1_555 1_555
O5 C18 1_555 1_555
O6 C7 1_555 1_555
H14 N4 1_555 1_555
H15 N5 1_555 1_555
C1F H1F 1_555 1_555
C2F C1F 1_555 1_555
H2F C2F 1_555 1_555
C3F H3F 1_555 1_555
C4F C5F 1_555 1_555
C5F C6 1_555 1_555
C6F C4F 1_555 1_555
N1F C1F 1_555 1_555
N2F C2F 1_555 1_555
N3F C6F 1_555 1_555
H12F N3F 1_555 1_555
H13F N3F 1_555 1_555
C7A C8A 1_555 1_555
C8A H4A 1_555 1_555
H5A C8A 1_555 1_555
C9A C10A 1_555 1_555
C10A C11A 1_555 1_555
C11A H6A 1_555 1_555
C12A C11A 1_555 1_555
H7A C12A 1_555 1_555
C13A C12A 1_555 1_555
H8A C13A 1_555 1_555
C14A C13A 1_555 1_555
C15A C10A 1_555 1_555
H9A C15A 1_555 1_555
C16A C14A 1_555 1_555
C17A H10A 1_555 1_555
H11A C17A 1_555 1_555
C18A C17A 1_555 1_555
Cd1A O1 1_555 1_555
N4A C8A 1_555 1_555
N5A C16A 1_555 1_555
O1A Cd1 1_555 1_555
O2A C9A 1_555 1_555
O3A C16A 1_555 1_555
O4A C18A 1_555 1_555
O5A C18A 1_555 1_555
O6A Cd1 1_555 1_555
H14A N4A 1_555 1_555
H15A N5A 1_555 1_555
Cd1D O4 1_555 1_555
Cd1D_2 O6A 1_555 1_555
Cd1E O6 1_555 1_555
Cd1E_2 O4A 1_555 1_555
Cd1F N1F 1_555 1_555
N1A Cd1A 1_555 1_555
O4D Cd1 1_555 1_555
O4E Cd1A 1_555 1_555
O6D Cd1A 1_555 1_555
O6E Cd1 1_555 1_555
C3 N1 1_555 1_555
C3 N2 1_555 1_555
C4 N2 1_555 1_555
C9 N4 1_555 1_555
C14 C15 1_555 1_555
C17 N5 1_555 1_555
Cd1 O1 1_555 1_555
O6 Cd1A 1_555 1_555
C3F N1F 1_555 1_555
C3F N2F 1_555 1_555
C4F N2F 1_555 1_555
C7A O1A 1_555 1_555
C7A O6A 1_555 1_555
C9A N4A 1_555 1_555
C14A C15A 1_555 1_555
C17A N5A 1_555 1_555
Cd1A O1A 1_555 1_555
Cd1D_2 O6E 1_555 1_555
Cd1E O6D 1_555 1_555

#END
