
#######################################################################
#
#                 Cambridge Crystallographic Data Centre
#                                CCDC 
#
#######################################################################
#
# If this CIF has been generated from an entry in the Cambridge 
# Structural Database, then it will include bibliographic, chemical, 
# crystal, experimental, refinement or atomic coordinate data resulting 
# from the CCDC's data processing and validation procedures.
#
#######################################################################

data_OREZUI
_chemical_formula_moiety         'C80 H44 O38 Zn19'
_symmetry_cell_setting           orthorhombic
_symmetry_space_group_name_H-M   'C m c a'
_symmetry_Int_Tables_number      64
_space_group_name_Hall           '-C 2ac 2'
loop_
_symmetry_equiv_pos_site_id
_symmetry_equiv_pos_as_xyz
1 x,y,z
2 -x,1/2-y,1/2+z
3 -x,1/2+y,1/2-z
4 x,-y,-z
5 1/2+x,1/2+y,z
6 1/2-x,-y,1/2+z
7 1/2-x,y,1/2-z
8 1/2+x,1/2-y,-z
9 -x,-y,-z
10 x,1/2+y,1/2-z
11 x,1/2-y,1/2+z
12 -x,y,z
13 1/2-x,1/2-y,-z
14 1/2+x,y,1/2-z
15 1/2+x,-y,1/2+z
16 1/2-x,1/2+y,z
_cell_length_a                   19.3064(3)
_cell_length_b                   17.4520(3)
_cell_length_c                   24.0043(3)
_cell_angle_alpha                90
_cell_angle_beta                 90
_cell_angle_gamma                90
_cell_volume                     8087.9
loop_
_atom_site_label
_atom_site_type_symbol
_atom_site_fract_x
_atom_site_fract_y
_atom_site_fract_z
Zn1 Zn 0.5000 0.5000 0.5000
C1 C 0.5000 0.7638(7) 0.2626(6)
C2 C 0.5004(9) 0.7379(8) 0.3173(5)
C3 C 0.5209(11) 0.6627(9) 0.3286(5)
H1 H 0.5330 0.6464 0.3661
C4 C 0.5376(9) 0.6135(7) 0.2851(7)
H2 H 0.5540 0.5620 0.2918
C5 C 0.5352(11) 0.6394(9) 0.2304(6)
H3 H 0.5414 0.6046 0.1995
C6 C 0.5159(9) 0.7146(10) 0.2191(5)
H4 H 0.5056 0.7310 0.1816
C7 C 0.6374(4) 0.7222(5) 0.5709(4)
C8 C 0.6912(4) 0.7822(5) 0.5705(4)
C9 C 0.7593(4) 0.7586(5) 0.5682(4)
H5 H 0.7686 0.7063 0.5679
C10 C 0.6789(5) 0.8616(6) 0.5698(5)
C11 C 0.6068(15) 0.8966(19) 0.5546(11)
H6 H 0.5693 0.8657 0.5453
C12 C 0.6012(13) 0.9771(13) 0.5555(13)
H7 H 0.5573 0.9985 0.5590
C13 C 0.8150(4) 0.8097(4) 0.5663(4)
H8 H 0.8602 0.7916 0.5641
C14 C 0.7352(5) 0.9152(5) 0.5697(5)
C15 C 0.7192(13) 0.9998(17) 0.5545(11)
H9 H 0.7557 1.0332 0.5475
C16 C 0.6561(11) 1.0248(13) 0.5514(11)
H10 H 0.6484 1.0770 0.5463
C17 C 0.8022(4) 0.8867(4) 0.5677(3)
C18 C 0.8647(4) 0.9394(4) 0.5684(4)
C19 C 0.5000 0.7757(12) 0.4210(13)
C20 C 0.5000 0.7999(11) 0.3649(7)
C21 C 0.5000 0.8652(13) 0.3533(9)
H11 H 0.5000 0.9009 0.3820
C22 C 0.5000 0.8916(13) 0.2990(9)
H12 H 0.5000 0.9445 0.2941
C23 C 0.5000 0.8520(10) 0.2562(6)
C24 C 0.5000 0.8835(8) 0.2005(5)
O1 O 0.6540(3) 0.6586(4) 0.5908(3)
O2 O 0.5791(3) 0.7379(4) 0.5529(3)
O3 O 0.9107(3) 0.9304(3) 0.5336(3)
O4 O 0.8655(3) 0.9888(3) 0.6065(2)
O5 O 0.5000 0.5828(4) 0.5543(3)
O6 O 0.5000 0.7138(6) 0.4400(4)
O7 O 0.5000 0.8332(11) 0.4544(8)
O8 O 0.4446(4) 0.8957(5) 0.1792(3)
Zn2 Zn 0.58104(4) 0.58078(5) 0.60036(4)
Zn3 Zn 0.5000 0.68402(11) 0.51706(6)
C3K C 0.4791(11) 0.6627(9) 0.3286(5)
H1K H 0.4670 0.6464 0.3661
C4K C 0.4624(9) 0.6135(7) 0.2851(7)
H2K H 0.4460 0.5620 0.2918
C5K C 0.4648(11) 0.6394(9) 0.2304(6)
H3K H 0.4586 0.6046 0.1995
C6K C 0.4841(9) 0.7146(10) 0.2191(5)
H4K H 0.4944 0.7310 0.1816
O8K O 0.5554(4) 0.8957(5) 0.1792(3)
C1C C 0.5000 0.2362(7) 0.7374(6)
C2C C 0.5004(9) 0.2621(8) 0.6827(5)
C3C C 0.5209(11) 0.3373(9) 0.6714(5)
H1C H 0.5330 0.3536 0.6339
C4C C 0.5376(9) 0.3865(7) 0.7149(7)
H2C H 0.5540 0.4380 0.7082
C5C C 0.5352(11) 0.3606(9) 0.7696(6)
H3C H 0.5414 0.3954 0.8005
C6C C 0.5159(9) 0.2854(10) 0.7809(5)
H4C H 0.5056 0.2690 0.8184
C7C C 0.6374(4) 0.2778(5) 0.4291(4)
C8C C 0.6912(4) 0.2178(5) 0.4295(4)
C9C C 0.7593(4) 0.2414(5) 0.4318(4)
H5C H 0.7686 0.2937 0.4321
C10C C 0.6789(5) 0.1384(6) 0.4302(5)
C11C C 0.6068(15) 0.1034(19) 0.4454(11)
H6C H 0.5693 0.1343 0.4547
C12C C 0.6012(13) 0.0229(13) 0.4445(13)
H7C H 0.5573 0.0015 0.4410
C13C C 0.8150(4) 0.1903(4) 0.4337(4)
H8C H 0.8602 0.2084 0.4359
C14C C 0.7352(5) 0.0848(5) 0.4303(5)
C15C C 0.7192(13) 0.0002(17) 0.4455(11)
H9C H 0.7557 -0.0332 0.4525
C16C C 0.6561(11) -0.0248(13) 0.4486(11)
H10C H 0.6484 -0.0770 0.4537
C17C C 0.8022(4) 0.1133(4) 0.4323(3)
C18C C 0.8647(4) 0.0606(4) 0.4316(4)
C19C C 0.5000 0.2243(12) 0.5790(13)
C20C C 0.5000 0.2001(11) 0.6351(7)
C21C C 0.5000 0.1348(13) 0.6467(9)
H11C H 0.5000 0.0991 0.6180
C22C C 0.5000 0.1084(13) 0.7010(9)
H12C H 0.5000 0.0555 0.7059
C23C C 0.5000 0.1480(10) 0.7438(6)
C24C C 0.5000 0.1165(8) 0.7995(5)
O1C O 0.6540(3) 0.3414(4) 0.4092(3)
O2C O 0.5791(3) 0.2621(4) 0.4471(3)
O3C O 0.9107(3) 0.0696(3) 0.4664(3)
O4C O 0.8655(3) 0.0112(3) 0.3935(2)
O5C O 0.5000 0.4172(4) 0.4457(3)
O6C O 0.5000 0.2862(6) 0.5600(4)
O7C O 0.5000 0.1668(11) 0.5456(8)
O8C O 0.4446(4) 0.1043(5) 0.8208(3)
Zn2C Zn 0.58104(4) 0.41922(5) 0.39964(4)
Zn3C Zn 0.5000 0.31598(11) 0.48294(6)
C3H C 0.4791(11) 0.3373(9) 0.6714(5)
H1H H 0.4670 0.3536 0.6339
C4H C 0.4624(9) 0.3865(7) 0.7149(7)
H2H H 0.4460 0.4380 0.7082
C5H C 0.4648(11) 0.3606(9) 0.7696(6)
H3H H 0.4586 0.3954 0.8005
C6H C 0.4841(9) 0.2854(10) 0.7809(5)
H4H H 0.4944 0.2690 0.8184
O8H O 0.5554(4) 0.1043(5) 0.8208(3)
C7H C 0.3626(4) 0.2778(5) 0.4291(4)
C8H C 0.3088(4) 0.2178(5) 0.4295(4)
C9H C 0.2407(4) 0.2414(5) 0.4318(4)
H5H H 0.2314 0.2937 0.4321
C10H C 0.3211(5) 0.1384(6) 0.4302(5)
C11H C 0.3932(15) 0.1034(19) 0.4454(11)
H6H H 0.4307 0.1343 0.4547
C12H C 0.3988(13) 0.0229(13) 0.4445(13)
H7H H 0.4427 0.0015 0.4410
C13H C 0.1850(4) 0.1903(4) 0.4337(4)
H8H H 0.1398 0.2084 0.4359
C14H C 0.2648(5) 0.0848(5) 0.4303(5)
C15H C 0.2808(13) 0.0002(17) 0.4455(11)
H9H H 0.2443 -0.0332 0.4525
C16H C 0.3439(11) -0.0248(13) 0.4486(11)
H10H H 0.3516 -0.0770 0.4537
C17H C 0.1978(4) 0.1133(4) 0.4323(3)
C18H C 0.1353(4) 0.0606(4) 0.4316(4)
O1H O 0.3460(3) 0.3414(4) 0.4092(3)
O2H O 0.4209(3) 0.2621(4) 0.4471(3)
O3H O 0.0893(3) 0.0696(3) 0.4664(3)
O4H O 0.1345(3) 0.0112(3) 0.3935(2)
Zn2H Zn 0.41896(4) 0.41922(5) 0.39964(4)
C7K C 0.3626(4) 0.7222(5) 0.5709(4)
C8K C 0.3088(4) 0.7822(5) 0.5705(4)
C9K C 0.2407(4) 0.7586(5) 0.5682(4)
H5K H 0.2314 0.7063 0.5679
C10K C 0.3211(5) 0.8616(6) 0.5698(5)
C11K C 0.3932(15) 0.8966(19) 0.5546(11)
H6K H 0.4307 0.8657 0.5453
C12K C 0.3988(13) 0.9771(13) 0.5555(13)
H7K H 0.4427 0.9985 0.5590
C13K C 0.1850(4) 0.8097(4) 0.5663(4)
H8K H 0.1398 0.7916 0.5641
C14K C 0.2648(5) 0.9152(5) 0.5697(5)
C15K C 0.2808(13) 0.9998(17) 0.5545(11)
H9K H 0.2443 1.0332 0.5475
C16K C 0.3439(11) 1.0248(13) 0.5514(11)
H10K H 0.3516 1.0770 0.5463
C17K C 0.1978(4) 0.8867(4) 0.5677(3)
C18K C 0.1353(4) 0.9394(4) 0.5684(4)
O1K O 0.3460(3) 0.6586(4) 0.5908(3)
O2K O 0.4209(3) 0.7379(4) 0.5529(3)
O3K O 0.0893(3) 0.9304(3) 0.5336(3)
O4K O 0.1345(3) 0.9888(3) 0.6065(2)
Zn2K Zn 0.41896(4) 0.58078(5) 0.60036(4)
Zn1D Zn -0.0000 0.0000 0.5000
Zn1D_2 Zn -0.0000 1.0000 0.5000
Zn1D_3 Zn 1.0000 0.0000 0.5000
Zn1D_4 Zn 1.0000 1.0000 0.5000
O3D O 0.4107(3) 0.4304(3) 0.5336(3)
O3G O 0.4107(3) 0.5696(3) 0.4664(3)
O3L O 0.5893(3) 0.5696(3) 0.4664(3)
O3O O 0.5893(3) 0.4304(3) 0.5336(3)
O4D O 0.3655(3) 0.4888(3) 0.6065(2)
O4G O 0.3655(3) 0.5112(3) 0.3935(2)
O4L O 0.6345(3) 0.5112(3) 0.3935(2)
O4O O 0.6345(3) 0.4888(3) 0.6065(2)
O8A O 0.5554(4) 0.6043(5) 0.6792(3)
O8B O 0.5554(4) 0.3957(5) 0.3208(3)
O8I O 0.4446(4) 0.3957(5) 0.3208(3)
O8J O 0.4446(4) 0.6043(5) 0.6792(3)
Zn2A Zn 0.41896(4) 0.91922(5) 0.10036(4)
Zn2B Zn 0.41896(4) 0.08078(5) 0.89964(4)
Zn2D Zn 0.08104(4) 1.08078(5) 0.60036(4)
Zn2G Zn 0.08104(4) -0.08078(5) 0.39964(4)
Zn2I Zn 0.58104(4) 0.08078(5) 0.89964(4)
Zn2J Zn 0.58104(4) 0.91922(5) 0.10036(4)
Zn2L Zn 0.91896(4) -0.08078(5) 0.39964(4)
Zn2O Zn 0.91896(4) 1.08078(5) 0.60036(4)
loop_
_geom_bond_atom_site_label_1
_geom_bond_atom_site_label_2
_geom_bond_site_symmetry_1
_geom_bond_site_symmetry_2
Zn1 O5 1_555 1_555
C1 C2 1_555 1_555
C2 C3 1_555 1_555
C3 H1 1_555 1_555
H1 H1K 1_555 1_555
C4 C3 1_555 1_555
H2 C4 1_555 1_555
C5 C4 1_555 1_555
H3 C5 1_555 1_555
C6 C1 1_555 1_555
H4 C6 1_555 1_555
C7 C8 1_555 1_555
C8 C9 1_555 1_555
C9 H5 1_555 1_555
C10 C8 1_555 1_555
C11 C10 1_555 1_555
H6 C11 1_555 1_555
C12 C11 1_555 1_555
H7 C12 1_555 1_555
C13 C9 1_555 1_555
H8 C13 1_555 1_555
C14 C10 1_555 1_555
C15 C14 1_555 1_555
H9 C15 1_555 1_555
C16 C12 1_555 1_555
H10 C16 1_555 1_555
C17 C13 1_555 1_555
C18 C17 1_555 1_555
C19 C20 1_555 1_555
C20 C2 1_555 1_555
C21 C20 1_555 1_555
H11 C21 1_555 1_555
C22 C21 1_555 1_555
H12 C22 1_555 1_555
C23 C1 1_555 1_555
C24 C23 1_555 1_555
O1 C7 1_555 1_555
O2 C7 1_555 1_555
O3 C18 1_555 1_555
O4 C18 1_555 1_555
O5 Zn2 1_555 1_555
O6 C19 1_555 1_555
O7 C19 1_555 1_555
O8 C24 1_555 1_555
Zn2 O1 1_555 1_555
Zn3 O2 1_555 1_555
C3K C2 1_555 1_555
H1K C3K 1_555 1_555
C4K C3 1_555 1_555
H2K C4K 1_555 1_555
C5K C5 1_555 1_555
H3K C5K 1_555 1_555
C6K C1 1_555 1_555
H4K C6 1_555 1_555
O8K C24 1_555 1_555
C1C C2C 1_555 1_555
C2C C3C 1_555 1_555
C3C H1C 1_555 1_555
H1C H1H 1_555 1_555
C4C C3C 1_555 1_555
H2C C4C 1_555 1_555
C5C C4C 1_555 1_555
H3C C5C 1_555 1_555
C6C C1C 1_555 1_555
H4C C6C 1_555 1_555
C7C C8C 1_555 1_555
C8C C9C 1_555 1_555
C9C H5C 1_555 1_555
C10C C8C 1_555 1_555
C11C C10C 1_555 1_555
H6C C11C 1_555 1_555
C12C C11C 1_555 1_555
H7C C12C 1_555 1_555
C13C C9C 1_555 1_555
H8C C13C 1_555 1_555
C14C C10C 1_555 1_555
C15C C14C 1_555 1_555
H9C C15C 1_555 1_555
C16C C12C 1_555 1_555
H10C C16C 1_555 1_555
C17C C13C 1_555 1_555
C18C C17C 1_555 1_555
C19C C20C 1_555 1_555
C20C C2C 1_555 1_555
C21C C20C 1_555 1_555
H11C C21C 1_555 1_555
C22C C21C 1_555 1_555
H12C C22C 1_555 1_555
C23C C1C 1_555 1_555
C24C C23C 1_555 1_555
O1C C7C 1_555 1_555
O2C C7C 1_555 1_555
O3C C18C 1_555 1_555
O4C C18C 1_555 1_555
O5C Zn1 1_555 1_555
O6C C19C 1_555 1_555
O7C C19C 1_555 1_555
O8C C24C 1_555 1_555
Zn2C O1C 1_555 1_555
Zn3C O2C 1_555 1_555
C3H C2C 1_555 1_555
H1H C3H 1_555 1_555
C4H C3C 1_555 1_555
H2H C4H 1_555 1_555
C5H C5C 1_555 1_555
H3H C5H 1_555 1_555
C6H C1C 1_555 1_555
H4H C6C 1_555 1_555
O8H C24C 1_555 1_555
C7H C8H 1_555 1_555
C8H C9H 1_555 1_555
C9H H5H 1_555 1_555
C10H C8H 1_555 1_555
C11H C10H 1_555 1_555
H6H C11H 1_555 1_555
C12H C11H 1_555 1_555
H7H C12H 1_555 1_555
C13H C9H 1_555 1_555
H8H C13H 1_555 1_555
C14H C10H 1_555 1_555
C15H C14H 1_555 1_555
H9H C15H 1_555 1_555
C16H C12H 1_555 1_555
H10H C16H 1_555 1_555
C17H C13H 1_555 1_555
C18H C17H 1_555 1_555
O1H C7H 1_555 1_555
O2H Zn3C 1_555 1_555
O3H C18H 1_555 1_555
O4H C18H 1_555 1_555
Zn2H O5C 1_555 1_555
C7K C8K 1_555 1_555
C8K C9K 1_555 1_555
C9K H5K 1_555 1_555
C10K C8K 1_555 1_555
C11K C10K 1_555 1_555
H6K C11K 1_555 1_555
C12K C11K 1_555 1_555
H7K C12K 1_555 1_555
C13K C9K 1_555 1_555
H8K C13K 1_555 1_555
C14K C10K 1_555 1_555
C15K C14K 1_555 1_555
H9K C15K 1_555 1_555
C16K C12K 1_555 1_555
H10K C16K 1_555 1_555
C17K C13K 1_555 1_555
C18K C17K 1_555 1_555
O1K C7K 1_555 1_555
O2K Zn3 1_555 1_555
O3K C18K 1_555 1_555
O4K C18K 1_555 1_555
Zn2K O5 1_555 1_555
Zn1D O3H 1_555 1_555
Zn1D_2 O3K 1_555 1_555
Zn1D_3 O3C 1_555 1_555
Zn1D_4 O3 1_555 1_555
O3D Zn1 1_555 1_555
O3G Zn1 1_555 1_555
O3L Zn1 1_555 1_555
O3O Zn1 1_555 1_555
O4D Zn2K 1_555 1_555
O4G Zn2H 1_555 1_555
O4L Zn2C 1_555 1_555
O4O Zn2 1_555 1_555
O8A Zn2 1_555 1_555
O8B Zn2C 1_555 1_555
O8I Zn2H 1_555 1_555
O8J Zn2K 1_555 1_555
Zn2A O8 1_555 1_555
Zn2B O8C 1_555 1_555
Zn2D O4K 1_555 1_555
Zn2G O4H 1_555 1_555
Zn2I O8H 1_555 1_555
Zn2J O8K 1_555 1_555
Zn2L O4C 1_555 1_555
Zn2O O4 1_555 1_555
C3 C3K 1_555 1_555
C4 C3K 1_555 1_555
C4 C4K 1_555 1_555
C5 C6 1_555 1_555
C5 C6K 1_555 1_555
C6 C5K 1_555 1_555
C6 C6K 1_555 1_555
H4 C6K 1_555 1_555
C14 C17 1_555 1_555
C15 C16 1_555 1_555
C22 C23 1_555 1_555
O5 Zn3 1_555 1_555
O6 Zn3 1_555 1_555
C3K C4K 1_555 1_555
C4K C5K 1_555 1_555
C5K C6K 1_555 1_555
C6K H4K 1_555 1_555
C3C C3H 1_555 1_555
C4C C3H 1_555 1_555
C4C C4H 1_555 1_555
C5C C6C 1_555 1_555
C5C C6H 1_555 1_555
C6C C5H 1_555 1_555
C6C C6H 1_555 1_555
H4C C6H 1_555 1_555
C14C C17C 1_555 1_555
C15C C16C 1_555 1_555
C22C C23C 1_555 1_555
O5C Zn2C 1_555 1_555
O5C Zn3C 1_555 1_555
O6C Zn3C 1_555 1_555
C3H C4H 1_555 1_555
C4H C5H 1_555 1_555
C5H C6H 1_555 1_555
C6H H4H 1_555 1_555
C7H O2H 1_555 1_555
C14H C17H 1_555 1_555
C15H C16H 1_555 1_555
O1H Zn2H 1_555 1_555
C7K O2K 1_555 1_555
C14K C17K 1_555 1_555
C15K C16K 1_555 1_555
O1K Zn2K 1_555 1_555

#END
