
#######################################################################
#
#                 Cambridge Crystallographic Data Centre
#                                CCDC 
#
#######################################################################
#
# If this CIF has been generated from an entry in the Cambridge 
# Structural Database, then it will include bibliographic, chemical, 
# crystal, experimental, refinement or atomic coordinate data resulting 
# from the CCDC's data processing and validation procedures.
#
#######################################################################

data_NEDMEP
_chemical_formula_moiety         '(C6 H22 N2 O12 P4 Zn3)n'
_symmetry_cell_setting           monoclinic
_symmetry_space_group_name_H-M   'C 2/c'
_symmetry_Int_Tables_number      15
_space_group_name_Hall           '-C 2yc'
loop_
_symmetry_equiv_pos_site_id
_symmetry_equiv_pos_as_xyz
1 x,y,z
2 1/2+x,1/2+y,z
3 -x,y,1/2-z
4 1/2-x,1/2+y,1/2-z
5 -x,-y,-z
6 1/2-x,1/2-y,-z
7 x,-y,1/2+z
8 1/2+x,1/2-y,1/2+z
_cell_length_a                   8.7820(4)
_cell_length_b                   14.9417(7)
_cell_length_c                   15.4943(5)
_cell_angle_alpha                90
_cell_angle_beta                 92.940(2)
_cell_angle_gamma                90
_cell_volume                     2030.46
loop_
_atom_site_label
_atom_site_type_symbol
_atom_site_fract_x
_atom_site_fract_y
_atom_site_fract_z
_atom_site_U_iso_or_equiv
_atom_site_thermal_displace_type
Zn1 Zn -0.34967(5) 0.61909(3) 0.01032(3) 0.0323 Uani
Zn2 Zn -0.5000 0.63203(4) -0.2500 0.0279 Uani
P1 P -0.21010(12) 0.72018(7) -0.14977(6) 0.0293 Uani
P2 P -0.33873(11) 0.58030(6) -0.41625(6) 0.0278 Uani
O1 O -0.2194(3) 0.6476(2) -0.08357(19) 0.0483 Uani
O2 O -0.1850(4) 0.8129(2) -0.11552(18) 0.0574 Uani
O3 O -0.2750(3) 0.49922(19) -0.45956(17) 0.0434 Uani
O4 O -0.4387(3) 0.63797(19) -0.47586(18) 0.0425 Uani
O5 O -0.3450(3) 0.72223(18) -0.21603(17) 0.0424 Uani
O6 O -0.4155(3) 0.55504(18) -0.33391(17) 0.0408 Uani
H10 H -0.090(4) 0.699(2) -0.193(2) 0.0260 Uiso
H11 H -0.218(3) 0.6303(19) -0.3928(19) 0.0120 Uiso
Zn1B Zn -0.65033(5) 0.61909(3) -0.51032(3) 0.0323 Uani
Zn1E Zn -0.15033(5) 0.88091(3) -0.01032(3) 0.0323 Uani
Zn1F Zn -0.34967(5) 0.38091(3) -0.48968(3) 0.0323 Uani
Zn1G Zn -0.84967(5) 0.88091(3) -0.48968(3) 0.0323 Uani
Zn1D Zn -0.65033(5) 0.38091(3) -0.01032(3) 0.0323 Uani
P1B P -0.78990(12) 0.72018(7) -0.35023(6) 0.0293 Uani
P2B P -0.66127(11) 0.58030(6) -0.08375(6) 0.0278 Uani
O1B O -0.7806(3) 0.6476(2) -0.41643(19) 0.0483 Uani
O2B O -0.8150(4) 0.8129(2) -0.38448(18) 0.0574 Uani
O2E O -0.3150(4) 0.6871(2) 0.11552(18) 0.0574 Uani
O2G O -0.6850(4) 0.6871(2) -0.61552(18) 0.0574 Uani
O3B O -0.7250(3) 0.49922(19) -0.04044(17) 0.0434 Uani
O3F O -0.2750(3) 0.50078(19) 0.04044(17) 0.0434 Uani
O3D O -0.7250(3) 0.50078(19) -0.54044(17) 0.0434 Uani
O4B O -0.5613(3) 0.63797(19) -0.02414(18) 0.0425 Uani
O5B O -0.6550(3) 0.72223(18) -0.28397(17) 0.0424 Uani
O6B O -0.5845(3) 0.55504(18) -0.16609(17) 0.0408 Uani
H10B H -0.910(4) 0.699(2) -0.307(2) 0.0260 Uiso
H11B H -0.782(3) 0.6303(19) -0.1072(19) 0.0120 Uiso
N1 N 0.1379(4) 0.6195(2) 0.1847(2) 0.0399 Uani
H1 H 0.1262 0.6720 0.2133 0.0800 Uiso
C1 C 0.0772(7) 0.5460(3) 0.2389(4) 0.0821 Uani
H2 H 0.0951 0.4900 0.2093 0.0800 Uiso
H3 H 0.1393 0.5446 0.2925 0.0800 Uiso
C2 C 0.0662(6) 0.6297(4) 0.0969(3) 0.0661 Uani
H4 H -0.0405 0.6422 0.1008 0.0800 Uiso
H5 H 0.0786 0.5754 0.0649 0.0800 Uiso
H6 H 0.1138 0.6782 0.0679 0.0800 Uiso
C3 C 0.3045(6) 0.6026(4) 0.1797(3) 0.0600 Uani
H7 H 0.3500 0.5958 0.2369 0.0800 Uiso
H8 H 0.3509 0.6522 0.1516 0.0800 Uiso
H9 H 0.3199 0.5489 0.1472 0.0800 Uiso
N1B N -0.1379(4) 0.6195(2) 0.3153(2) 0.0399 Uani
H1B H -0.1262 0.6720 0.2867 0.0800 Uiso
C1B C -0.0772(7) 0.5460(3) 0.2611(4) 0.0821 Uani
H2B H -0.0951 0.4900 0.2907 0.0800 Uiso
H3B H -0.1393 0.5446 0.2075 0.0800 Uiso
C2B C -0.0662(6) 0.6297(4) 0.4031(3) 0.0661 Uani
H4B H 0.0405 0.6422 0.3992 0.0800 Uiso
H5B H -0.0786 0.5754 0.4351 0.0800 Uiso
H6B H -0.1138 0.6782 0.4321 0.0800 Uiso
C3B C -0.3045(6) 0.6026(4) 0.3203(3) 0.0600 Uani
H7B H -0.3500 0.5958 0.2631 0.0800 Uiso
H8B H -0.3509 0.6522 0.3484 0.0800 Uiso
H9B H -0.3199 0.5489 0.3528 0.0800 Uiso
loop_
_atom_site_aniso_label
_atom_site_aniso_U_11
_atom_site_aniso_U_22
_atom_site_aniso_U_33
_atom_site_aniso_U_23
_atom_site_aniso_U_13
_atom_site_aniso_U_12
Zn1 0.0396(3) 0.0310(3) 0.0257(3) 0.0032(2) -0.0040(2) -0.0082(2)
Zn2 0.0375(4) 0.0252(3) 0.0208(3) 0.000 -0.0007(3) 0.000
P1 0.0321(6) 0.0327(6) 0.0234(5) 0.0021(4) 0.0036(4) -0.0038(5)
P2 0.0295 0.0267 0.0269 -0.0042 -0.0006 0.0003
O1 0.0436(18) 0.0526(19) 0.0492(18) 0.0237(15) 0.0058(14) 0.0006(15)
O2 0.088 0.0429 0.0388 -0.0061 -0.0205 -0.013
O3 0.0512 0.0335 0.0467 -0.0112 0.0136 0.0014
O4 0.0399 0.0457 0.0414 0.013 -0.0023 0.0009
O5 0.0513(19) 0.0383(16) 0.0360(15) 0.0056(13) -0.0119(13) -0.0150(14)
O6 0.0594 0.0337 0.0303 0.0002 0.0118 0.0051
Zn1B 0.0396 0.031 0.0257 -0.0032 -0.004 0.0082
Zn1E 0.0396 0.031 0.0257 0.0032 -0.004 -0.0082
Zn1F 0.0396 0.031 0.0257 -0.0032 -0.004 0.0082
Zn1G 0.0396 0.031 0.0257 -0.0032 -0.004 0.0082
Zn1D 0.0396 0.031 0.0257 0.0032 -0.004 -0.0082
P1B 0.0321 0.0327 0.0234 -0.0021 0.0036 0.0038
P2B 0.0295 0.0267 0.0269 0.0042 -0.0006 -0.0003
O1B 0.0436 0.0526 0.0492 -0.0237 0.0058 -0.0006
O2B 0.088 0.0429 0.0388 0.0061 -0.0205 0.013
O2E 0.088 0.0429 0.0388 -0.0061 -0.0205 -0.013
O2G 0.088 0.0429 0.0388 0.0061 -0.0205 0.013
O3B 0.0512 0.0335 0.0467 0.0112 0.0136 -0.0014
O3F 0.0512(18) 0.0335(15) 0.0467(17) 0.0112(14) 0.0136(14) -0.0014(14)
O3D 0.0512 0.0335 0.0467 -0.0112 0.0136 0.0014
O4B 0.0399 0.0457 0.0414 -0.013 -0.0023 -0.0009
O5B 0.0513 0.0383 0.036 -0.0056 -0.0119 0.015
O6B 0.0594 0.0337 0.0303 -0.0002 0.0118 -0.0051
N1 0.043(2) 0.0337(19) 0.044(2) -0.0072(17) 0.0127(17) 0.0034(16)
C1 0.103(5) 0.043(3) 0.105(5) -0.008(3) 0.052(4) -0.002(3)
C2 0.054(3) 0.081(4) 0.062(3) -0.021(3) -0.011(3) 0.021(3)
C3 0.050(3) 0.087(4) 0.043(3) -0.012(3) 0.002(2) 0.022(3)
N1B 0.043 0.0337 0.044 0.0072 0.0127 -0.0034
C1B 0.103 0.043 0.105 0.008 0.052 0.002
C2B 0.054 0.081 0.062 0.021 -0.011 -0.021
C3B 0.05 0.087 0.043 0.012 0.002 -0.022
loop_
_geom_bond_atom_site_label_1
_geom_bond_atom_site_label_2
_geom_bond_site_symmetry_1
_geom_bond_site_symmetry_2
Zn1 O1 1_555 1_555
Zn2 O5 1_555 1_555
P1 O1 1_555 1_555
P2 O3 1_555 1_555
O2 P1 1_555 1_555
O3 Zn1F 1_555 1_555
O4 P2 1_555 1_555
O5 P1 1_555 1_555
O6 Zn2 1_555 1_555
N1 H1 1_555 1_555
C1 N1 1_555 1_555
H2 C1 1_555 1_555
H3 C1 1_555 1_555
C2 N1 1_555 1_555
H4 C2 1_555 1_555
H5 C2 1_555 1_555
H6 C2 1_555 1_555
C3 N1 1_555 1_555
H7 C3 1_555 1_555
H8 C3 1_555 1_555
H9 C3 1_555 1_555
H10 P1 1_555 1_555
H11 P2 1_555 1_555
Zn1B O4 1_555 1_555
Zn1E O2 1_555 1_555
Zn1G O2B 1_555 1_555
Zn1D O3B 1_555 1_555
P1B O1B 1_555 1_555
P2B O3B 1_555 1_555
O1B Zn1B 1_555 1_555
O2B P1B 1_555 1_555
O2E Zn1 1_555 1_555
O2G Zn1B 1_555 1_555
O3F Zn1 1_555 1_555
O3D Zn1B 1_555 1_555
O4B Zn1 1_555 1_555
O5B Zn2 1_555 1_555
O6B Zn2 1_555 1_555
N1B H1B 1_555 1_555
C1B C1 1_555 1_555
H2B C1B 1_555 1_555
H3B C1B 1_555 1_555
C2B N1B 1_555 1_555
H4B C2B 1_555 1_555
H5B C2B 1_555 1_555
H6B C2B 1_555 1_555
C3B N1B 1_555 1_555
H7B C3B 1_555 1_555
H8B C3B 1_555 1_555
H9B C3B 1_555 1_555
H10B P1B 1_555 1_555
H11B P2B 1_555 1_555
P2 O6 1_555 1_555
P1B O5B 1_555 1_555
P2B O4B 1_555 1_555
P2B O6B 1_555 1_555
N1B C1B 1_555 1_555

#END
