
#######################################################################
#
#                 Cambridge Crystallographic Data Centre
#                                CCDC 
#
#######################################################################
#
# If this CIF has been generated from an entry in the Cambridge 
# Structural Database, then it will include bibliographic, chemical, 
# crystal, experimental, refinement or atomic coordinate data resulting 
# from the CCDC's data processing and validation procedures.
#
#######################################################################

data_HUWSUN
_chemical_formula_moiety         '(C42 H38 Co1 N6 O7 2+)n'
_symmetry_cell_setting           cubic
_symmetry_space_group_name_H-M   'P a -3'
_symmetry_Int_Tables_number      205
_space_group_name_Hall           '-P 2ac 2ab 3'
loop_
_symmetry_equiv_pos_site_id
_symmetry_equiv_pos_as_xyz
1 x,y,z
2 z,x,y
3 y,z,x
4 1/2-x,-y,1/2+z
5 -x,1/2+y,1/2-z
6 1/2+x,1/2-y,-z
7 1/2+z,1/2-x,-y
8 1/2-z,-x,1/2+y
9 -z,1/2+x,1/2-y
10 -y,1/2+z,1/2-x
11 1/2+y,1/2-z,-x
12 1/2-y,-z,1/2+x
13 -x,-y,-z
14 -z,-x,-y
15 -y,-z,-x
16 1/2+x,y,1/2-z
17 x,1/2-y,1/2+z
18 1/2-x,1/2+y,z
19 1/2-z,1/2+x,y
20 1/2+z,x,1/2-y
21 z,1/2-x,1/2+y
22 y,1/2-z,1/2+x
23 1/2-y,1/2+z,x
24 1/2+y,z,1/2-x
_cell_length_a                   18.3520(9)
_cell_length_b                   18.3520(9)
_cell_length_c                   18.3520(9)
_cell_angle_alpha                90
_cell_angle_beta                 90
_cell_angle_gamma                90
_cell_volume                     6180.88
loop_
_atom_site_label
_atom_site_type_symbol
_atom_site_fract_x
_atom_site_fract_y
_atom_site_fract_z
Co1 Co 0.5000 0.5000 0.0000
N1 N 0.5642(2) 0.5077(2) 0.3062(2)
C1 C 0.5125(3) 0.4573(3) 0.2966(3)
H1 H 0.4975(3) 0.4298(3) 0.3364(3)
C2 C 0.4808(4) 0.4448(4) 0.2305(3)
H2 H 0.4444(4) 0.4098(4) 0.2263(3)
O2 O 0.4720(2) 0.4748(2) 0.1066(2)
C3 C 0.5028(3) 0.4846(2) 0.1681(3)
C4 C 0.5593(3) 0.5379(3) 0.1794(3)
H3 H 0.5766(3) 0.5656(3) 0.1407(3)
C5 C 0.5867(3) 0.5471(3) 0.2466(3)
H4 H 0.6229(3) 0.5820(3) 0.2531(3)
C6 C 0.6005(3) 0.5187(3) 0.3773(3)
H5 H 0.6211(3) 0.5673(3) 0.3789(3)
H6 H 0.6401(3) 0.4841(3) 0.3821(3)
C7 C 0.5476(3) 0.5091(3) 0.4418(3)
C7M C 0.5582(3) 0.4524(3) 0.4909(3)
C6M C 0.6227(3) 0.3995(3) 0.4813(3)
N1M N 0.6938(2) 0.4358(2) 0.4923(2)
C1M C 0.7034(3) 0.4875(3) 0.5427(3)
H1M H 0.6636(3) 0.5025(3) 0.5702(3)
C2M C 0.7695(3) 0.5192(4) 0.5552(4)
H2M H 0.7737(3) 0.5556(4) 0.5902(4)
C3M C 0.8319(3) 0.4972(3) 0.5154(2)
O2M O 0.8934(2) 0.5280(2) 0.5252(2)
C4M C 0.8206(3) 0.4407(3) 0.4621(3)
H3M H 0.8593(3) 0.4234(3) 0.4344(3)
C5M C 0.7534(3) 0.4133(3) 0.4529(3)
H4M H 0.7469(3) 0.3771(3) 0.4180(3)
H5M H 0.6211(3) 0.3789(3) 0.4327(3)
H6M H 0.6179(3) 0.3599(3) 0.5159(3)
C7B C 0.5091(3) 0.4418(3) 0.5476(3)
C6B C 0.5187(3) 0.3773(3) 0.6005(3)
N1B N 0.5077(2) 0.3062(2) 0.5642(2)
C1B C 0.4573(3) 0.2966(3) 0.5125(3)
H1B H 0.4298(3) 0.3364(3) 0.4975(3)
C2B C 0.4448(4) 0.2305(3) 0.4808(4)
H2B H 0.4098(4) 0.2263(3) 0.4444(4)
C3B C 0.4846(2) 0.1681(3) 0.5028(3)
O2B O 0.4748(2) 0.1066(2) 0.4720(2)
C4B C 0.5379(3) 0.1794(3) 0.5593(3)
H3B H 0.5656(3) 0.1407(3) 0.5766(3)
C5B C 0.5471(3) 0.2466(3) 0.5867(3)
H4B H 0.5820(3) 0.2531(3) 0.6229(3)
H5B H 0.5673(3) 0.3789(3) 0.6211(3)
H6B H 0.4841(3) 0.3821(3) 0.6401(3)
C7L C 0.4524(3) 0.4909(3) 0.5582(3)
C6L C 0.3995(3) 0.4813(3) 0.6227(3)
N1L N 0.4358(2) 0.4923(2) 0.6938(2)
C1L C 0.4875(3) 0.5427(3) 0.7034(3)
H1L H 0.5025(3) 0.5702(3) 0.6636(3)
C2L C 0.5192(4) 0.5552(4) 0.7695(3)
H2L H 0.5556(4) 0.5902(4) 0.7737(3)
C3L C 0.4972(3) 0.5154(2) 0.8319(3)
O2L O 0.5280(2) 0.5252(2) 0.8934(2)
C4L C 0.4407(3) 0.4621(3) 0.8206(3)
H3L H 0.4234(3) 0.4344(3) 0.8593(3)
C5L C 0.4133(3) 0.4529(3) 0.7534(3)
H4L H 0.3771(3) 0.4180(3) 0.7469(3)
H5L H 0.3789(3) 0.4327(3) 0.6211(3)
H6L H 0.3599(3) 0.5159(3) 0.6179(3)
C7A C 0.4418(3) 0.5476(3) 0.5091(3)
C6A C 0.3773(3) 0.6005(3) 0.5187(3)
N1A N 0.3062(2) 0.5642(2) 0.5077(2)
C1A C 0.2966(3) 0.5125(3) 0.4573(3)
H1A H 0.3364(3) 0.4975(3) 0.4298(3)
C2A C 0.2305(3) 0.4808(4) 0.4448(4)
H2A H 0.2263(3) 0.4444(4) 0.4098(4)
C3A C 0.1681(3) 0.5028(3) 0.4846(2)
O2A O 0.1066(2) 0.4720(2) 0.4748(2)
C4A C 0.1794(3) 0.5593(3) 0.5379(3)
H3A H 0.1407(3) 0.5766(3) 0.5656(3)
C5A C 0.2466(3) 0.5867(3) 0.5471(3)
H4A H 0.2531(3) 0.6229(3) 0.5820(3)
H5A H 0.3789(3) 0.6211(3) 0.5673(3)
H6A H 0.3821(3) 0.6401(3) 0.4841(3)
C7N C 0.4909(3) 0.5582(3) 0.4524(3)
C6N C 0.4813(3) 0.6227(3) 0.3995(3)
N1N N 0.4923(2) 0.6938(2) 0.4358(2)
C1N C 0.5427(3) 0.7034(3) 0.4875(3)
H1N H 0.5702(3) 0.6636(3) 0.5025(3)
C2N C 0.5552(4) 0.7695(3) 0.5192(4)
H2N H 0.5902(4) 0.7737(3) 0.5556(4)
C3N C 0.5154(2) 0.8319(3) 0.4972(3)
O2N O 0.5252(2) 0.8934(2) 0.5280(2)
C4N C 0.4621(3) 0.8206(3) 0.4407(3)
H3N H 0.4344(3) 0.8593(3) 0.4234(3)
C5N C 0.4529(3) 0.7534(3) 0.4133(3)
H4N H 0.4180(3) 0.7469(3) 0.3771(3)
H5N H 0.4327(3) 0.6211(3) 0.3789(3)
H6N H 0.5159(3) 0.6179(3) 0.3599(3)
O2S O 0.6066(2) 0.4720(2) 0.0252(2)
O2U O 0.4748(2) 0.3934(2) -0.0280(2)
O2L_2 O 0.5280(2) 0.5252(2) -0.1066(2)
O2G O 0.3934(2) 0.5280(2) -0.0252(2)
O2I O 0.5252(2) 0.6066(2) 0.0280(2)
Co1A Co 1.0000 0.5000 0.5000
Co1B Co 0.5000 0.0000 0.5000
Co1_2 Co 0.5000 0.5000 1.0000
Co1A_2 Co 0.0000 0.5000 0.5000
Co1B_2 Co 0.5000 1.0000 0.5000
O1 O 0.3553(2) 0.3553(2) 0.3553(2)
loop_
_geom_bond_atom_site_label_1
_geom_bond_atom_site_label_2
_geom_bond_site_symmetry_1
_geom_bond_site_symmetry_2
Co1 O2 1_555 1_555
N1 C1 1_555 1_555
C1 H1 1_555 1_555
C2 C1 1_555 1_555
H2 C2 1_555 1_555
O2 C3 1_555 1_555
C3 C2 1_555 1_555
C4 C3 1_555 1_555
H3 C4 1_555 1_555
C5 N1 1_555 1_555
H4 C5 1_555 1_555
C6 N1 1_555 1_555
H5 C6 1_555 1_555
H6 C6 1_555 1_555
C7 C6 1_555 1_555
C7M C7 1_555 1_555
C6M C7M 1_555 1_555
N1M C6M 1_555 1_555
C1M N1M 1_555 1_555
H1M C1M 1_555 1_555
C2M C1M 1_555 1_555
H2M C2M 1_555 1_555
C3M C2M 1_555 1_555
O2M C3M 1_555 1_555
C4M C3M 1_555 1_555
H3M C4M 1_555 1_555
C5M N1M 1_555 1_555
H4M C5M 1_555 1_555
H5M C6M 1_555 1_555
H6M C6M 1_555 1_555
C7B C7M 1_555 1_555
C6B C7B 1_555 1_555
N1B C6B 1_555 1_555
C1B N1B 1_555 1_555
H1B C1B 1_555 1_555
C2B C1B 1_555 1_555
H2B C2B 1_555 1_555
C3B C2B 1_555 1_555
O2B C3B 1_555 1_555
C4B C3B 1_555 1_555
H3B C4B 1_555 1_555
C5B N1B 1_555 1_555
H4B C5B 1_555 1_555
H5B C6B 1_555 1_555
H6B C6B 1_555 1_555
C7L C7B 1_555 1_555
C6L C7L 1_555 1_555
N1L C6L 1_555 1_555
C1L N1L 1_555 1_555
H1L C1L 1_555 1_555
C2L C1L 1_555 1_555
H2L C2L 1_555 1_555
C3L C2L 1_555 1_555
O2L C3L 1_555 1_555
C4L C3L 1_555 1_555
H3L C4L 1_555 1_555
C5L N1L 1_555 1_555
H4L C5L 1_555 1_555
H5L C6L 1_555 1_555
H6L C6L 1_555 1_555
C7A C7L 1_555 1_555
C6A C7A 1_555 1_555
N1A C6A 1_555 1_555
C1A N1A 1_555 1_555
H1A C1A 1_555 1_555
C2A C1A 1_555 1_555
H2A C2A 1_555 1_555
C3A C2A 1_555 1_555
O2A C3A 1_555 1_555
C4A C3A 1_555 1_555
H3A C4A 1_555 1_555
C5A N1A 1_555 1_555
H4A C5A 1_555 1_555
H5A C6A 1_555 1_555
H6A C6A 1_555 1_555
C7N C7 1_555 1_555
C6N C7N 1_555 1_555
N1N C6N 1_555 1_555
C1N N1N 1_555 1_555
H1N C1N 1_555 1_555
C2N C1N 1_555 1_555
H2N C2N 1_555 1_555
C3N C2N 1_555 1_555
O2N C3N 1_555 1_555
C4N C3N 1_555 1_555
H3N C4N 1_555 1_555
C5N N1N 1_555 1_555
H4N C5N 1_555 1_555
H5N C6N 1_555 1_555
H6N C6N 1_555 1_555
O2S Co1 1_555 1_555
O2U Co1 1_555 1_555
O2L_2 Co1 1_555 1_555
O2G Co1 1_555 1_555
O2I Co1 1_555 1_555
Co1A O2M 1_555 1_555
Co1B O2B 1_555 1_555
Co1_2 O2L 1_555 1_555
Co1A_2 O2A 1_555 1_555
Co1B_2 O2N 1_555 1_555
C4 C5 1_555 1_555
C4M C5M 1_555 1_555
C4B C5B 1_555 1_555
C4L C5L 1_555 1_555
C7A C7N 1_555 1_555
C4A C5A 1_555 1_555
C4N C5N 1_555 1_555

#END
