
#######################################################################
#
#                 Cambridge Crystallographic Data Centre
#                                CCDC 
#
#######################################################################
#
# If this CIF has been generated from an entry in the Cambridge 
# Structural Database, then it will include bibliographic, chemical, 
# crystal, experimental, refinement or atomic coordinate data resulting 
# from the CCDC's data processing and validation procedures.
#
#######################################################################

data_OVEDEA
_chemical_formula_moiety         '(C44 H34 Cu4 I2 N4 O8)n'
_symmetry_cell_setting           orthorhombic
_symmetry_space_group_name_H-M   'C m c m'
_symmetry_Int_Tables_number      63
_space_group_name_Hall           '-C 2c 2'
loop_
_symmetry_equiv_pos_site_id
_symmetry_equiv_pos_as_xyz
1 x,y,z
2 -x,-y,1/2+z
3 -x,y,1/2-z
4 x,-y,-z
5 1/2+x,1/2+y,z
6 1/2-x,1/2-y,1/2+z
7 1/2-x,1/2+y,1/2-z
8 1/2+x,1/2-y,-z
9 -x,-y,-z
10 x,y,1/2-z
11 x,-y,1/2+z
12 -x,y,z
13 1/2-x,1/2-y,-z
14 1/2+x,1/2+y,1/2-z
15 1/2+x,1/2-y,1/2+z
16 1/2-x,1/2+y,z
_cell_length_a                   33.712(7)
_cell_length_b                   19.058(4)
_cell_length_c                   33.611(7)
_cell_angle_alpha                90
_cell_angle_beta                 90
_cell_angle_gamma                90
_cell_volume                     21594.5
loop_
_atom_site_label
_atom_site_type_symbol
_atom_site_fract_x
_atom_site_fract_y
_atom_site_fract_z
_atom_site_U_iso_or_equiv
_atom_site_thermal_displace_type
I1 I 0.43138(2) 0.08019(3) 0.2500 0.0698 Uani
I2 I 0.5000 -0.07698(3) 0.31862(2) 0.0700 Uani
Cu1 Cu 0.5000 0.05378(5) 0.28825(3) 0.0667 Uani
Cu2 Cu 0.46159(3) -0.05055(5) 0.2500 0.0675 Uani
Cu3 Cu 0.24313(2) 0.18212(2) 0.49748(2) 0.0341 Uani
O1 O 0.29357(8) 0.18593(14) 0.46852(10) 0.0542 Uani
O2 O 0.30632(8) 0.29953(14) 0.47359(9) 0.0509 Uani
O3 O 0.28453(9) -0.30005(15) 0.05294(8) 0.0537 Uani
O4 O 0.27280(10) -0.18629(15) 0.04783(9) 0.0549 Uani
N1 N 0.5000 0.1200(3) 0.33591(16) 0.0620 Uani
N2 N 0.41369(17) -0.1158(3) 0.2500 0.0617 Uani
N3 N 0.24053(9) 0.06798(15) 0.49896(10) 0.0382 Uani
C1 C 0.46626(13) 0.1394(3) 0.35312(15) 0.0713 Uani
H1 H 0.4425 0.1254 0.3415 0.0860 Uiso
C2 C 0.46469(12) 0.1793(3) 0.38751(14) 0.0600 Uani
C3 C 0.5000 0.2005(4) 0.4038(2) 0.0623 Uani
H2 H 0.5000 0.2295 0.4261 0.0750 Uiso
C4 C 0.42542(12) 0.1968(3) 0.40591(14) 0.0543 Uani
C5 C 0.39710(15) 0.1461(3) 0.40869(17) 0.0790 Uani
H3 H 0.4021 0.1018 0.3982 0.0950 Uiso
C6 C 0.36108(14) 0.1594(3) 0.42683(16) 0.0720 Uani
H4 H 0.3422 0.1240 0.4288 0.0860 Uiso
C7 C 0.35309(12) 0.2246(2) 0.44198(13) 0.0497 Uani
C8 C 0.38137(14) 0.2755(3) 0.43932(15) 0.0670 Uani
H5 H 0.3763 0.3198 0.4498 0.0800 Uiso
C9 C 0.41801(14) 0.2619(3) 0.42102(16) 0.0727 Uani
H6 H 0.4371 0.2970 0.4192 0.0870 Uiso
C10 C 0.31417(11) 0.2375(2) 0.46271(12) 0.0413 Uani
C11 C 0.39670(15) -0.1363(3) 0.21620(12) 0.0647 Uani
H7 H 0.4078 -0.1213 0.1923 0.0780 Uiso
C12 C 0.36347(14) -0.1789(3) 0.21463(12) 0.0610 Uani
C13 C 0.3469(2) -0.1993(4) 0.2500 0.0617 Uani
H8 H 0.3243 -0.2273 0.2500 0.0740 Uiso
C14 C 0.34511(14) -0.1958(3) 0.17500(12) 0.0587 Uani
C15 C 0.33341(18) -0.2612(3) 0.16597(14) 0.0813 Uani
H9 H 0.3373 -0.2970 0.1844 0.0970 Uiso
C16 C 0.31573(17) -0.2764(3) 0.13002(14) 0.0747 Uani
H10 H 0.3093 -0.3226 0.1238 0.0900 Uiso
C17 C 0.30751(13) -0.2240(2) 0.10345(12) 0.0473 Uani
C18 C 0.31886(18) -0.1579(3) 0.11278(14) 0.0857 Uani
H11 H 0.3136 -0.1216 0.0951 0.1030 Uiso
C19 C 0.33819(19) -0.1433(3) 0.14829(15) 0.0853 Uani
H12 H 0.3464 -0.0977 0.1539 0.1030 Uiso
C20 C 0.28658(12) -0.2379(2) 0.06512(12) 0.0447 Uani
C21 C 0.2800(2) 0.0403(3) 0.4969(2) 0.1040 Uiso
H13 H 0.2962 0.0622 0.5173 0.1250 Uiso
H14 H 0.2914 0.0513 0.4712 0.1250 Uiso
C22 C 0.2191(2) 0.0394(3) 0.4642(2) 0.1010 Uiso
H15 H 0.2316 0.0555 0.4399 0.1220 Uiso
H16 H 0.1919 0.0559 0.4644 0.1220 Uiso
C23 C 0.2198(2) 0.0429(3) 0.5343(2) 0.1060 Uiso
H17 H 0.1928 0.0605 0.5341 0.1270 Uiso
H18 H 0.2329 0.0609 0.5579 0.1270 Uiso
O1K O 0.70643(8) 0.18593(14) 0.46852(10) 0.0542 Uani
O2K O 0.69368(8) 0.29953(14) 0.47359(9) 0.0509 Uani
C1K C 0.53374(13) 0.1394(3) 0.35312(15) 0.0713 Uani
H1K H 0.5575 0.1254 0.3415 0.0860 Uiso
C2K C 0.53531(12) 0.1793(3) 0.38751(14) 0.0600 Uani
C4K C 0.57458(12) 0.1968(3) 0.40591(14) 0.0543 Uani
C5K C 0.60290(15) 0.1461(3) 0.40869(17) 0.0790 Uani
H3K H 0.5979 0.1018 0.3982 0.0950 Uiso
C6K C 0.63892(14) 0.1594(3) 0.42683(16) 0.0720 Uani
H4K H 0.6578 0.1240 0.4288 0.0860 Uiso
C7K C 0.64691(12) 0.2246(2) 0.44198(13) 0.0497 Uani
C8K C 0.61863(14) 0.2755(3) 0.43932(15) 0.0670 Uani
H5K H 0.6237 0.3198 0.4498 0.0800 Uiso
C9K C 0.58199(14) 0.2619(3) 0.42102(16) 0.0727 Uani
H6K H 0.5629 0.2970 0.4192 0.0870 Uiso
C10K C 0.68583(11) 0.2375(2) 0.46271(12) 0.0413 Uani
O3I O 0.28453(9) -0.30005(15) 0.44706(8) 0.0537 Uani
O4I O 0.27280(10) -0.18629(15) 0.45217(9) 0.0549 Uani
C11I C 0.39670(15) -0.1363(3) 0.28380(12) 0.0647 Uani
H7I H 0.4078 -0.1213 0.3077 0.0780 Uiso
C12I C 0.36347(14) -0.1789(3) 0.28537(12) 0.0610 Uani
C14I C 0.34511(14) -0.1958(3) 0.32500(12) 0.0587 Uani
C15I C 0.33341(18) -0.2612(3) 0.33403(14) 0.0813 Uani
H9I H 0.3373 -0.2970 0.3156 0.0970 Uiso
C16I C 0.31573(17) -0.2764(3) 0.36998(14) 0.0747 Uani
H10I H 0.3093 -0.3226 0.3762 0.0900 Uiso
C17I C 0.30751(13) -0.2240(2) 0.39655(12) 0.0473 Uani
C18I C 0.31886(18) -0.1579(3) 0.38722(14) 0.0857 Uani
H11I H 0.3136 -0.1216 0.4049 0.1030 Uiso
C19I C 0.33819(19) -0.1433(3) 0.35171(15) 0.0853 Uani
H12I H 0.3464 -0.0977 0.3461 0.1030 Uiso
C20I C 0.28658(12) -0.2379(2) 0.43488(12) 0.0447 Uani
N3C N 0.24053(9) -0.06798(15) 0.50104(10) 0.0382 Uani
C21C C 0.2800(2) -0.0403(3) 0.5031(2) 0.1040 Uiso
H13C H 0.2962 -0.0622 0.4827 0.1250 Uiso
H14C H 0.2914 -0.0513 0.5288 0.1250 Uiso
C22C C 0.2191(2) -0.0394(3) 0.5358(2) 0.1010 Uiso
H15C H 0.2316 -0.0555 0.5601 0.1220 Uiso
H16C H 0.1919 -0.0559 0.5356 0.1220 Uiso
C23C C 0.2198(2) -0.0429(3) 0.4657(2) 0.1060 Uiso
H17C H 0.1928 -0.0605 0.4659 0.1270 Uiso
H18C H 0.2329 -0.0609 0.4421 0.1270 Uiso
Cu3L Cu 0.25687(2) 0.31788(2) 0.50252(2) 0.0341 Uani
I1B I 0.56862(2) 0.08019(3) 0.2500 0.0698 Uani
I2B I 0.5000 -0.07698(3) 0.18138(2) 0.0700 Uani
Cu1B Cu 0.5000 0.05378(5) 0.21175(3) 0.0667 Uani
Cu2B Cu 0.53841(3) -0.05055(5) 0.2500 0.0675 Uani
Cu3C Cu 0.24313(2) -0.18212(2) 0.50252(2) 0.0341 Uani
Cu3F Cu 0.25687(2) -0.31788(2) 0.00252(2) 0.0341 Uani
Cu3G Cu 0.74313(2) 0.31788(2) 0.50252(2) 0.0341 Uani
Cu3J Cu 0.24313(2) -0.18212(2) -0.00252(2) 0.0341 Uani
Cu3K Cu 0.75687(2) 0.18212(2) 0.49748(2) 0.0341 Uani
Cu3O Cu 0.25687(2) -0.31788(2) 0.49748(2) 0.0341 Uani
O1L O 0.20643(8) 0.31407(14) 0.53148(10) 0.0542 Uani
O2L O 0.19368(8) 0.20047(14) 0.52641(9) 0.0509 Uani
O3F O 0.21547(9) 0.19995(15) 0.44706(8) 0.0537 Uani
O3J O 0.28453(9) 0.30005(15) 0.55294(8) 0.0537 Uani
O4F O 0.22720(10) 0.31371(15) 0.45217(9) 0.0549 Uani
O4J O 0.27280(10) 0.18629(15) 0.54783(9) 0.0549 Uani
N3L N 0.25947(9) 0.43202(15) 0.50104(10) 0.0382 Uani
loop_
_atom_site_aniso_label
_atom_site_aniso_U_11
_atom_site_aniso_U_22
_atom_site_aniso_U_33
_atom_site_aniso_U_23
_atom_site_aniso_U_13
_atom_site_aniso_U_12
I1 0.0346(2) 0.1059(4) 0.0690(3) 0.000 0.000 0.0086(2)
I2 0.0690(3) 0.1080(5) 0.0331(2) 0.0088(2) 0.000 0.000
Cu1 0.0413(5) 0.0974(7) 0.0613(5) -0.0300(5) 0.000 0.000
Cu2 0.0610(6) 0.0992(7) 0.0424(4) 0.000 0.000 -0.0300(5)
Cu3 0.0375(3) 0.0225(2) 0.0423(3) 0.0009(2) -0.0019(2) 0.00319(19)
O1 0.0454(17) 0.0331(17) 0.084(2) -0.0043(16) 0.0233(16) -0.0004(14)
O2 0.0420(16) 0.0356(17) 0.075(2) -0.0064(15) 0.0147(15) -0.0036(13)
O3 0.072(2) 0.0384(18) 0.0506(17) 0.0002(14) -0.0229(15) -0.0061(15)
O4 0.079(2) 0.0363(17) 0.0493(17) -0.0036(15) -0.0280(16) 0.0017(15)
N1 0.032(3) 0.090(4) 0.064(3) -0.029(3) 0.000 0.000
N2 0.065(4) 0.084(4) 0.036(3) 0.000 0.000 -0.036(3)
N3 0.0359(18) 0.0299(18) 0.0489(19) 0.0010(16) 0.0005(16) -0.0017(13)
C1 0.031(2) 0.102(4) 0.081(3) -0.043(3) 0.000(2) 0.003(2)
C2 0.035(2) 0.076(3) 0.069(3) -0.029(3) 0.006(2) 0.002(2)
C3 0.042(4) 0.079(5) 0.066(4) -0.032(4) 0.000 0.000
C4 0.036(2) 0.065(3) 0.062(3) -0.021(3) 0.003(2) -0.001(2)
C5 0.060(3) 0.068(4) 0.109(4) -0.040(3) 0.027(3) -0.002(3)
C6 0.054(3) 0.056(3) 0.106(4) -0.026(3) 0.030(3) -0.009(2)
C7 0.040(2) 0.051(3) 0.058(3) -0.011(2) 0.010(2) 0.002(2)
C8 0.051(3) 0.063(3) 0.087(4) -0.025(3) 0.024(3) -0.003(2)
C9 0.040(3) 0.080(4) 0.098(4) -0.038(3) 0.011(3) -0.008(2)
C10 0.030(2) 0.055(3) 0.039(2) 0.001(2) -0.0019(18) 0.011(2)
C11 0.076(3) 0.087(4) 0.031(2) 0.008(2) 0.001(2) -0.038(3)
C12 0.068(3) 0.083(4) 0.032(2) 0.001(2) -0.009(2) -0.024(3)
C13 0.067(4) 0.068(5) 0.050(4) 0.000 0.000 -0.034(4)
C14 0.064(3) 0.076(4) 0.036(2) 0.002(2) -0.006(2) -0.025(3)
C15 0.123(5) 0.067(4) 0.054(3) 0.017(3) -0.043(3) -0.034(3)
C16 0.112(5) 0.059(3) 0.053(3) 0.001(3) -0.026(3) -0.023(3)
C17 0.053(3) 0.048(3) 0.041(2) -0.002(2) -0.005(2) -0.008(2)
C18 0.138(5) 0.062(4) 0.057(3) 0.013(3) -0.048(3) -0.035(3)
C19 0.135(5) 0.064(4) 0.057(3) 0.004(3) -0.036(3) -0.032(3)
C20 0.041(2) 0.053(3) 0.040(2) -0.003(2) -0.0070(19) -0.014(2)
O1K 0.0454 0.0331 0.084 -0.0043 -0.0233 0.0004
O2K 0.042 0.0356 0.075 -0.0064 -0.0147 0.0036
C1K 0.031 0.102 0.081 -0.043 0 -0.003
C2K 0.035 0.076 0.069 -0.029 -0.006 -0.002
C4K 0.036 0.065 0.062 -0.021 -0.003 0.001
C5K 0.06 0.068 0.109 -0.04 -0.027 0.002
C6K 0.054 0.056 0.106 -0.026 -0.03 0.009
C7K 0.04 0.051 0.058 -0.011 -0.01 -0.002
C8K 0.051 0.063 0.087 -0.025 -0.024 0.003
C9K 0.04 0.08 0.098 -0.038 -0.011 0.008
C10K 0.03 0.055 0.039 0.001 0.0019 -0.011
O3I 0.072 0.0384 0.0506 -0.0002 0.0229 -0.0061
O4I 0.079 0.0363 0.0493 0.0036 0.028 0.0017
C11I 0.076 0.087 0.031 -0.008 -0.001 -0.038
C12I 0.068 0.083 0.032 -0.001 0.009 -0.024
C14I 0.064 0.076 0.036 -0.002 0.006 -0.025
C15I 0.123 0.067 0.054 -0.017 0.043 -0.034
C16I 0.112 0.059 0.053 -0.001 0.026 -0.023
C17I 0.053 0.048 0.041 0.002 0.005 -0.008
C18I 0.138 0.062 0.057 -0.013 0.048 -0.035
C19I 0.135 0.064 0.057 -0.004 0.036 -0.032
C20I 0.041 0.053 0.04 0.003 0.007 -0.014
N3C 0.0359 0.0299 0.0489 0.001 -0.0005 0.0017
Cu3L 0.0375 0.0225 0.0423 0.0009 -0.0019 0.00319
I1B 0.0346 0.1059 0.069 0 0 -0.0086
I2B 0.069 0.108 0.0331 -0.0088 0 0
Cu1B 0.0413 0.0974 0.0613 0.03 0 0
Cu2B 0.061 0.0992 0.0424 0 0 0.03
Cu3C 0.0375 0.0225 0.0423 0.0009 0.0019 -0.00319
Cu3F 0.0375 0.0225 0.0423 -0.0009 -0.0019 -0.00319
Cu3G 0.0375 0.0225 0.0423 0.0009 0.0019 -0.00319
Cu3J 0.0375 0.0225 0.0423 -0.0009 -0.0019 -0.00319
Cu3K 0.0375 0.0225 0.0423 0.0009 0.0019 -0.00319
Cu3O 0.0375 0.0225 0.0423 0.0009 0.0019 -0.00319
O1L 0.0454 0.0331 0.084 -0.0043 0.0233 -0.0004
O2L 0.042 0.0356 0.075 -0.0064 0.0147 -0.0036
O3F 0.072 0.0384 0.0506 -0.0002 -0.0229 0.0061
O3J 0.072 0.0384 0.0506 -0.0002 -0.0229 0.0061
O4F 0.079 0.0363 0.0493 0.0036 -0.028 -0.0017
O4J 0.079 0.0363 0.0493 0.0036 -0.028 -0.0017
N3L 0.0359 0.0299 0.0489 0.001 0.0005 -0.0017
loop_
_geom_bond_atom_site_label_1
_geom_bond_atom_site_label_2
_geom_bond_site_symmetry_1
_geom_bond_site_symmetry_2
I1 Cu1 1_555 1_555
I2 Cu1 1_555 1_555
Cu1 N1 1_555 1_555
Cu2 I1 1_555 1_555
Cu3 O1 1_555 1_555
O1 C10 1_555 1_555
O2 C10 1_555 1_555
O3 C20 1_555 1_555
O4 C20 1_555 1_555
N1 C1 1_555 1_555
N2 Cu2 1_555 1_555
N3 Cu3 1_555 1_555
C1 H1 1_555 1_555
C2 C1 1_555 1_555
C3 C2 1_555 1_555
H2 C3 1_555 1_555
C4 C2 1_555 1_555
C5 C4 1_555 1_555
H3 C5 1_555 1_555
C6 C5 1_555 1_555
H4 C6 1_555 1_555
C7 C6 1_555 1_555
C8 C7 1_555 1_555
H5 C8 1_555 1_555
C9 C4 1_555 1_555
H6 C9 1_555 1_555
C10 C7 1_555 1_555
C11 N2 1_555 1_555
H7 C11 1_555 1_555
C12 C11 1_555 1_555
C13 C12 1_555 1_555
H8 C13 1_555 1_555
C14 C12 1_555 1_555
C15 C14 1_555 1_555
H9 C15 1_555 1_555
C16 C15 1_555 1_555
H10 C16 1_555 1_555
C17 C16 1_555 1_555
C18 C17 1_555 1_555
H11 C18 1_555 1_555
C19 C14 1_555 1_555
H12 C19 1_555 1_555
C20 C17 1_555 1_555
C21 N3 1_555 1_555
H13 C21 1_555 1_555
H14 C21 1_555 1_555
C22 N3 1_555 1_555
H15 C22 1_555 1_555
H16 C22 1_555 1_555
C23 N3 1_555 1_555
H17 C23 1_555 1_555
H18 C23 1_555 1_555
O1K C10K 1_555 1_555
O2K C10K 1_555 1_555
C1K N1 1_555 1_555
H1K C1K 1_555 1_555
C2K C3 1_555 1_555
C4K C2K 1_555 1_555
C5K C4K 1_555 1_555
H3K C5K 1_555 1_555
C6K C5K 1_555 1_555
H4K C6K 1_555 1_555
C7K C6K 1_555 1_555
C8K C7K 1_555 1_555
H5K C8K 1_555 1_555
C9K C4K 1_555 1_555
H6K C9K 1_555 1_555
C10K C7K 1_555 1_555
O3I C20I 1_555 1_555
O4I C20I 1_555 1_555
C11I N2 1_555 1_555
H7I C11I 1_555 1_555
C12I C13 1_555 1_555
C14I C12I 1_555 1_555
C15I C14I 1_555 1_555
H9I C15I 1_555 1_555
C16I C15I 1_555 1_555
H10I C16I 1_555 1_555
C17I C16I 1_555 1_555
C18I C17I 1_555 1_555
H11I C18I 1_555 1_555
C19I C14I 1_555 1_555
H12I C19I 1_555 1_555
C20I C17I 1_555 1_555
N3C C21C 1_555 1_555
C21C C21 1_555 1_555
H13C C21C 1_555 1_555
H14C C21C 1_555 1_555
C22C C23 1_555 1_555
H15C C22C 1_555 1_555
H16C C22C 1_555 1_555
C23C C22 1_555 1_555
H17C C23C 1_555 1_555
H18C C23C 1_555 1_555
Cu3L O2 1_555 1_555
I1B Cu1 1_555 1_555
I2B Cu2 1_555 1_555
Cu1B I1 1_555 1_555
Cu2B I2 1_555 1_555
Cu3C O4I 1_555 1_555
Cu3F O3 1_555 1_555
Cu3G O2K 1_555 1_555
Cu3J O4 1_555 1_555
Cu3K O1K 1_555 1_555
Cu3O O3I 1_555 1_555
O1L Cu3L 1_555 1_555
O2L Cu3 1_555 1_555
O3F Cu3 1_555 1_555
O3J Cu3L 1_555 1_555
O4F Cu3L 1_555 1_555
O4J Cu3 1_555 1_555
N3L Cu3L 1_555 1_555
I2 Cu2 1_555 1_555
C8 C9 1_555 1_555
C18 C19 1_555 1_555
C1K C2K 1_555 1_555
C8K C9K 1_555 1_555
C11I C12I 1_555 1_555
C18I C19I 1_555 1_555
N3C C22C 1_555 1_555
N3C C23C 1_555 1_555
N3C Cu3C 1_555 1_555
I1B Cu1B 1_555 1_555
I1B Cu2B 1_555 1_555
I2B Cu1B 1_555 1_555
I2B Cu2B 1_555 1_555

#END
