
#######################################################################
#
#                 Cambridge Crystallographic Data Centre
#                                CCDC 
#
#######################################################################
#
# If this CIF has been generated from an entry in the Cambridge 
# Structural Database, then it will include bibliographic, chemical, 
# crystal, experimental, refinement or atomic coordinate data resulting 
# from the CCDC's data processing and validation procedures.
#
#######################################################################

data_OVEDAW
_chemical_formula_moiety         'C126 H90 Cu27 I8 N15 O38'
_symmetry_cell_setting           orthorhombic
_symmetry_space_group_name_H-M   'P n n m'
_symmetry_Int_Tables_number      58
_space_group_name_Hall           '-P 2 2n'
loop_
_symmetry_equiv_pos_site_id
_symmetry_equiv_pos_as_xyz
1 x,y,z
2 -x,-y,z
3 1/2+x,1/2-y,1/2-z
4 1/2-x,1/2+y,1/2-z
5 -x,-y,-z
6 x,y,-z
7 1/2-x,1/2+y,1/2+z
8 1/2+x,1/2-y,1/2+z
_cell_length_a                   34.9115(8)
_cell_length_b                   41.3131(9)
_cell_length_c                   28.9710(6)
_cell_angle_alpha                90
_cell_angle_beta                 90
_cell_angle_gamma                90
_cell_volume                     41784.9
loop_
_atom_site_label
_atom_site_type_symbol
_atom_site_fract_x
_atom_site_fract_y
_atom_site_fract_z
C1 C 0.1218(2) 0.00809(19) 0.5000
H1 H 0.1176 -0.0052 0.4729
C2 C 0.1463(3) 0.0621(3) 0.4533(4)
H2 H 0.1612 0.0515 0.4294
H3 H 0.1460 0.0852 0.4468
C3 C 0.1054(3) 0.0490(3) 0.4532(3)
H4 H 0.0879 0.0663 0.4450
H5 H 0.1032 0.0322 0.4300
C4 C 0.1631(2) 0.02063(19) 0.5000
H6 H 0.1763 0.0125 0.5271
C5 C 0.45124(19) -0.0115(2) 0.9386(2)
C6 C 0.42103(19) -0.01888(19) 0.9031(2)
C7 C 0.4010(2) 0.00584(19) 0.8816(2)
H7 H 0.4067 0.0272 0.8889
C8 C 0.3728(2) -0.00068(18) 0.8498(2)
H8 H 0.3601 0.0162 0.8353
C9 C 0.36326(19) -0.03274(18) 0.8393(2)
C10 C 0.3833(2) -0.05726(18) 0.8604(2)
H9 H 0.3776 -0.0788 0.8538
C11 C 0.4124(2) -0.04957(18) 0.8919(2)
H10 H 0.4261 -0.0663 0.9056
C12 C 0.33191(18) -0.04082(15) 0.80593(19)
C13 C 0.3069(2) -0.06559(15) 0.8152(2)
H11 H 0.3101 -0.0771 0.8425
C14 C 0.27392(17) -0.05785(14) 0.74880(19)
H12 H 0.2542 -0.0642 0.7291
C15 C 0.29631(17) -0.03225(15) 0.73579(19)
C16 C 0.32613(18) -0.02408(14) 0.7654(2)
H13 H 0.3424 -0.0071 0.7577
C17 C 0.2906(2) -0.01485(14) 0.69007(19)
C18 C 0.25439(17) -0.01088(15) 0.6715(2)
H14 H 0.2331 -0.0193 0.6867
C19 C 0.24989(19) 0.00551(15) 0.63055(19)
H15 H 0.2255 0.0078 0.6182
C20 C 0.28017(18) 0.01837(13) 0.60787(18)
C21 C 0.31604(19) 0.01361(15) 0.6244(2)
H16 H 0.3370 0.0212 0.6079
C22 C 0.32153(18) -0.00224(16) 0.6650(2)
H17 H 0.3463 -0.0048 0.6764
C23 C 0.27420(18) 0.03812(13) 0.56631(18)
C24 C 0.2533(2) 0.12143(15) 0.44094(19)
C25 C 0.2474(2) 0.14960(14) 0.40827(19)
C26 C 0.2132(2) 0.15481(16) 0.3864(2)
H18 H 0.1926 0.1412 0.3923
C27 C 0.2090(2) 0.17967(16) 0.3561(2)
H19 H 0.1856 0.1829 0.3416
C28 C 0.2390(2) 0.20001(14) 0.3468(2)
C29 C 0.2733(2) 0.19538(15) 0.3702(2)
H20 H 0.2938 0.2093 0.3651
C30 C 0.2768(2) 0.17045(16) 0.4005(2)
H21 H 0.2997 0.1676 0.4163
C31 C 0.23685(19) 0.22658(15) 0.31134(19)
C32 C 0.25049(18) 0.25723(15) 0.32012(19)
H22 H 0.2613 0.2613 0.3489
C33 C 0.23285(18) 0.27521(15) 0.24843(19)
H23 H 0.2318 0.2919 0.2269
C34 C 0.21776(19) 0.24554(15) 0.2367(2)
C35 C 0.21965(19) 0.22116(14) 0.2694(2)
H24 H 0.2092 0.2010 0.2630
C36 C 0.2007(2) 0.24012(15) 0.1907(2)
C37 C 0.1770(2) 0.26254(15) 0.1695(2)
H25 H 0.1730 0.2824 0.1838
C38 C 0.1590(2) 0.25628(16) 0.1272(2)
H26 H 0.1433 0.2717 0.1134
C39 C 0.16506(19) 0.22686(17) 0.1069(2)
C40 C 0.1889(2) 0.20365(16) 0.1268(2)
H27 H 0.1930 0.1839 0.1123
C41 C 0.2062(2) 0.21069(17) 0.1683(2)
H28 H 0.2221 0.1953 0.1818
C42 C 0.1433(2) 0.2167(2) 0.06379(19)
C43 C -0.02166(16) 0.03718(13) 0.43605(17)
C44 C -0.03416(16) 0.05583(13) 0.39457(17)
C45 C -0.06907(17) 0.04997(15) 0.37415(19)
H29 H -0.0856 0.0349 0.3873
C46 C -0.07996(16) 0.06587(16) 0.3349(2)
H30 H -0.1034 0.0609 0.3215
C47 C -0.05724(16) 0.08893(15) 0.31487(19)
C48 C -0.02240(18) 0.09577(15) 0.3357(2)
H31 H -0.0064 0.1116 0.3234
C49 C -0.01142(18) 0.07897(15) 0.37509(19)
H32 H 0.0121 0.0836 0.3886
C50 C -0.06791(17) 0.10568(14) 0.27094(19)
C51 C -0.10561(16) 0.11113(14) 0.25905(18)
H33 H -0.1247 0.1046 0.2795
C52 C -0.03978(17) 0.11535(14) 0.2385(2)
H34 H -0.0141 0.1117 0.2450
C53 C -0.04974(18) 0.12994(15) 0.1982(2)
C54 C -0.08863(18) 0.13418(15) 0.1895(2)
H35 H -0.0959 0.1436 0.1617
C55 C -0.02175(19) 0.14139(18) 0.1645(2)
C56 C 0.0088(2) 0.12345(18) 0.1514(2)
H36 H 0.0129 0.1034 0.1650
C57 C 0.03389(19) 0.13430(17) 0.1184(2)
H37 H 0.0545 0.1214 0.1096
C58 C 0.0287(2) 0.16452(18) 0.0980(2)
C59 C -0.0021(2) 0.18310(17) 0.1114(2)
H38 H -0.0060 0.2034 0.0986
C60 C -0.02657(19) 0.1714(2) 0.1436(2)
H39 H -0.0475 0.1840 0.1520
C61 C 0.0565(2) 0.17647(18) 0.0602(2)
C62 C -0.17274(18) 0.13403(17) 0.02670(17)
H40 H -0.1632 0.1134 0.0379
H41 H -0.1558 0.1509 0.0379
C63 C -0.2248(2) 0.17142(14) 0.02671(16)
H42 H -0.2082 0.1885 0.0380
H43 H -0.2505 0.1755 0.0380
C64 C -0.2352(2) 0.11320(16) 0.02737(18)
H44 H -0.2612 0.1160 0.0387
H45 H -0.2257 0.0926 0.0387
Cu1 Cu 0.50997(3) -0.03080(3) 1.0000
Cu2 Cu 0.30037(3) 0.08384(2) 0.5000
Cu3 Cu 0.22510(3) 0.07135(2) 0.5000
Cu4 Cu 0.03411(2) 0.01564(2) 0.5000
Cu5 Cu 0.11861(3) 0.16926(2) 0.0000
Cu6 Cu 0.08325(3) 0.22577(2) 0.0000
Cu7 Cu -0.17140(2) 0.132661(19) 0.19857(2)
Cu8 Cu -0.24252(2) 0.110629(18) 0.19252(2)
Cu9 Cu -0.21215(2) 0.139380(18) 0.11713(2)
Cu10 Cu -0.22993(2) 0.174064(16) 0.19302(2)
I1 I -0.166636(12) 0.187690(9) 0.143575(12)
I2 I -0.217404(12) 0.139835(9) 0.270059(12)
I3 I -0.186285(15) 0.081802(11) 0.143462(15)
I4 I -0.285991(13) 0.149416(11) 0.139073(14)
N1 N 0.27860(15) -0.07403(11) 0.78752(16)
N2 N 0.16450(16) 0.05616(13) 0.5000
N3 N 0.09424(15) 0.03526(14) 0.5000
N4 N 0.24917(15) 0.28125(11) 0.29005(16)
N5 N -0.11610(13) 0.12535(12) 0.21947(16)
N6 N -0.21104(16) 0.13944(12) 0.04437(15)
O1 O 0.5251(2) -0.08237(16) 1.0000
O2 O 0.47017(12) -0.03503(12) 0.95248(14)
O3 O 0.45361(12) 0.01779(12) 0.95186(13)
O4 O 0.30336(11) 0.05085(9) 0.54839(12)
O5 O 0.24077(11) 0.04073(8) 0.54970(11)
O6 O 0.28705(13) 0.11545(10) 0.45354(14)
O7 O 0.22309(12) 0.10607(9) 0.45283(12)
O8 O 0.36181(18) 0.09430(16) 0.5000
O9 O 0.01090(11) 0.04318(8) 0.45165(11)
O10 O -0.04525(10) 0.01656(8) 0.45149(11)
O11 O 0.08172(13) 0.15675(11) 0.04675(14)
O12 O 0.05178(12) 0.20497(11) 0.04691(13)
O13 O 0.1509(2) 0.12382(16) 0.0000
O14 O 0.0531(2) 0.27259(15) 0.0000
O15 O 0.14969(13) 0.18905(11) 0.04806(13)
O16 O 0.12024(12) 0.23752(10) 0.04868(12)
H1E H 0.1176 -0.0052 0.5271
C2E C 0.1463(3) 0.0621(3) 0.5467(4)
H2E H 0.1612 0.0515 0.5706
H3E H 0.1460 0.0852 0.5532
C3E C 0.1054(3) 0.0490(3) 0.5468(3)
H4E H 0.0879 0.0663 0.5550
H5E H 0.1032 0.0322 0.5700
H6E H 0.1763 0.0125 0.4729
C62E C -0.17274(18) 0.13403(17) -0.02670(17)
H40E H -0.1632 0.1134 -0.0379
H41E H -0.1558 0.1509 -0.0379
C63E C -0.2248(2) 0.17142(14) -0.02671(16)
H42E H -0.2082 0.1885 -0.0380
H43E H -0.2505 0.1755 -0.0380
C64E C -0.2352(2) 0.11320(16) -0.02737(18)
H44E H -0.2612 0.1160 -0.0387
H45E H -0.2257 0.0926 -0.0387
N6E N -0.21104(16) 0.13944(12) -0.04437(15)
C43A C 0.02166(16) -0.03718(13) 0.43605(17)
C44A C 0.03416(16) -0.05583(13) 0.39457(17)
C45A C 0.06907(17) -0.04997(15) 0.37415(19)
H29A H 0.0856 -0.0349 0.3873
C46A C 0.07996(16) -0.06587(16) 0.3349(2)
H30A H 0.1034 -0.0609 0.3215
C47A C 0.05724(16) -0.08893(15) 0.31487(19)
C48A C 0.02240(18) -0.09577(15) 0.3357(2)
H31A H 0.0064 -0.1116 0.3234
C49A C 0.01142(18) -0.07897(15) 0.37509(19)
H32A H -0.0121 -0.0836 0.3886
C50A C 0.06791(17) -0.10568(14) 0.27094(19)
C51A C 0.10561(16) -0.11113(14) 0.25905(18)
H33A H 0.1247 -0.1046 0.2795
C52A C 0.03978(17) -0.11535(14) 0.2385(2)
H34A H 0.0141 -0.1117 0.2450
C53A C 0.04974(18) -0.12994(15) 0.1982(2)
C54A C 0.08863(18) -0.13418(15) 0.1895(2)
H35A H 0.0959 -0.1436 0.1617
C55A C 0.02175(19) -0.14139(18) 0.1645(2)
C56A C -0.0088(2) -0.12345(18) 0.1514(2)
H36A H -0.0129 -0.1034 0.1650
C57A C -0.03389(19) -0.13430(17) 0.1184(2)
H37A H -0.0545 -0.1214 0.1096
C58A C -0.0287(2) -0.16452(18) 0.0980(2)
C59A C 0.0021(2) -0.18310(17) 0.1114(2)
H38A H 0.0060 -0.2034 0.0986
C60A C 0.02657(19) -0.1714(2) 0.1436(2)
H39A H 0.0475 -0.1840 0.1520
C61A C -0.0565(2) -0.17647(18) 0.0602(2)
Cu7A Cu 0.17140(2) -0.132661(19) 0.19857(2)
Cu8A Cu 0.24252(2) -0.110629(18) 0.19252(2)
Cu9A Cu 0.21215(2) -0.139380(18) 0.11713(2)
Cu10A Cu 0.22993(2) -0.174064(16) 0.19302(2)
I1A I 0.166636(12) -0.187690(9) 0.143575(12)
I2A I 0.217404(12) -0.139835(9) 0.270059(12)
I3A I 0.186285(15) -0.081802(11) 0.143462(15)
I4A I 0.285991(13) -0.149416(11) 0.139073(14)
N5A N 0.11610(13) -0.12535(12) 0.21947(16)
O9A O -0.01090(11) -0.04318(8) 0.45165(11)
O10A O 0.04525(10) -0.01656(8) 0.45149(11)
O11A O -0.08172(13) -0.15675(11) 0.04675(14)
O12A O -0.05178(12) -0.20497(11) 0.04691(13)
C5E C 0.45124(19) -0.0115(2) 1.0614(2)
C6E C 0.42103(19) -0.01888(19) 1.0969(2)
C7E C 0.4010(2) 0.00584(19) 1.1184(2)
H7E H 0.4067 0.0272 1.1111
C8E C 0.3728(2) -0.00068(18) 1.1502(2)
H8E H 0.3601 0.0162 1.1647
C9E C 0.36326(19) -0.03274(18) 1.1607(2)
C10E C 0.3833(2) -0.05726(18) 1.1396(2)
H9E H 0.3776 -0.0788 1.1462
C11E C 0.4124(2) -0.04957(18) 1.1081(2)
H10E H 0.4261 -0.0663 1.0944
C12E C 0.33191(18) -0.04082(15) 1.19407(19)
C13E C 0.3069(2) -0.06559(15) 1.1848(2)
H11E H 0.3101 -0.0771 1.1575
C14E C 0.27392(17) -0.05785(14) 1.25120(19)
H12E H 0.2542 -0.0642 1.2709
C15E C 0.29631(17) -0.03225(15) 1.26421(19)
C16E C 0.32613(18) -0.02408(14) 1.2346(2)
H13E H 0.3424 -0.0071 1.2423
C17E C 0.2906(2) -0.01485(14) 1.30993(19)
C18E C 0.25439(17) -0.01088(15) 1.3285(2)
H14E H 0.2331 -0.0193 1.3133
C19E C 0.24989(19) 0.00551(15) 1.36945(19)
H15E H 0.2255 0.0078 1.3818
C20E C 0.28017(18) 0.01837(13) 1.39213(18)
C21E C 0.31604(19) 0.01361(15) 1.3756(2)
H16E H 0.3370 0.0212 1.3921
C22E C 0.32153(18) -0.00224(16) 1.3350(2)
H17E H 0.3463 -0.0048 1.3236
C23E C 0.27420(18) 0.03812(13) 1.43369(18)
N1E N 0.27860(15) -0.07403(11) 1.21248(16)
O2E O 0.47017(12) -0.03503(12) 1.04752(14)
O3E O 0.45361(12) 0.01779(12) 1.04814(13)
O4E O 0.30336(11) 0.05085(9) 1.45161(12)
O5E O 0.24077(11) 0.04073(8) 1.45030(11)
C24E C 0.2533(2) 0.12143(15) 0.55906(19)
C25E C 0.2474(2) 0.14960(14) 0.59173(19)
C26E C 0.2132(2) 0.15481(16) 0.6136(2)
H18E H 0.1926 0.1412 0.6077
C27E C 0.2090(2) 0.17967(16) 0.6439(2)
H19E H 0.1856 0.1829 0.6584
C28E C 0.2390(2) 0.20001(14) 0.6532(2)
C29E C 0.2733(2) 0.19538(15) 0.6298(2)
H20E H 0.2938 0.2093 0.6349
C30E C 0.2768(2) 0.17045(16) 0.5995(2)
H21E H 0.2997 0.1676 0.5837
C31E C 0.23685(19) 0.22658(15) 0.68866(19)
C32E C 0.25049(18) 0.25723(15) 0.67988(19)
H22E H 0.2613 0.2613 0.6511
C33E C 0.23285(18) 0.27521(15) 0.75157(19)
H23E H 0.2318 0.2919 0.7731
C34E C 0.21776(19) 0.24554(15) 0.7633(2)
C35E C 0.21965(19) 0.22116(14) 0.7306(2)
H24E H 0.2092 0.2010 0.7370
C36E C 0.2007(2) 0.24012(15) 0.8093(2)
C37E C 0.1770(2) 0.26254(15) 0.8305(2)
H25E H 0.1730 0.2824 0.8162
C38E C 0.1590(2) 0.25628(16) 0.8728(2)
H26E H 0.1433 0.2717 0.8866
C39E C 0.16506(19) 0.22686(17) 0.8931(2)
C40E C 0.1889(2) 0.20365(16) 0.8732(2)
H27E H 0.1930 0.1839 0.8877
C41E C 0.2062(2) 0.21069(17) 0.8317(2)
H28E H 0.2221 0.1953 0.8182
C42E C 0.1433(2) 0.2167(2) 0.93621(19)
N4E N 0.24917(15) 0.28125(11) 0.70995(16)
O6E O 0.28705(13) 0.11545(10) 0.54646(14)
O7E O 0.22309(12) 0.10607(9) 0.54717(12)
O15E O 0.14969(13) 0.18905(11) 0.95194(13)
O16E O 0.12024(12) 0.23752(10) 0.95132(12)
Cu1A Cu 0.49003(3) 0.03080(3) 1.0000
Cu2_2 Cu 0.30037(3) 0.08384(2) 1.5000
Cu3_2 Cu 0.22510(3) 0.07135(2) 1.5000
Cu4A Cu -0.03411(2) -0.01564(2) 0.5000
Cu5_2 Cu 0.11861(3) 0.16926(2) 1.0000
Cu5A Cu -0.11861(3) -0.16926(2) 0.0000
Cu6_2 Cu 0.08325(3) 0.22577(2) 1.0000
Cu6A Cu -0.08325(3) -0.22577(2) 0.0000
Cu8A_2 Cu 0.24252(2) -0.110629(18) 1.19252(2)
Cu8D Cu 0.24252(2) -0.110629(18) 0.80748(2)
Cu9E Cu -0.21215(2) 0.139380(18) -0.11713(2)
Cu10B Cu 0.27007(2) 0.325936(16) 0.30698(2)
Cu10G Cu 0.27007(2) 0.325936(16) 0.69302(2)
N1D N -0.27860(15) 0.07403(11) 0.21248(16)
N1E_2 N 0.27860(15) -0.07403(11) 0.21248(16)
N4B N -0.25083(15) 0.21875(11) 0.20995(16)
N4C N 0.25083(15) -0.21875(11) 0.20995(16)
N6A N 0.21104(16) -0.13944(12) 0.04437(15)
O3A O 0.54639(12) -0.01779(12) 0.95186(13)
O3D O 0.54639(12) -0.01779(12) 1.04814(13)
O4E_2 O 0.30336(11) 0.05085(9) 0.45161(12)
O5E_2 O 0.24077(11) 0.04073(8) 0.45030(11)
O9E O 0.01090(11) 0.04318(8) 0.54835(11)
O10D O 0.04525(10) -0.01656(8) 0.54851(11)
O11E O 0.08172(13) 0.15675(11) -0.04675(14)
O12E O 0.05178(12) 0.20497(11) -0.04691(13)
O15E_2 O 0.14969(13) 0.18905(11) -0.04806(13)
O16E_2 O 0.12024(12) 0.23752(10) -0.04868(12)
loop_
_geom_bond_atom_site_label_1
_geom_bond_atom_site_label_2
_geom_bond_site_symmetry_1
_geom_bond_site_symmetry_2
C1 H1 1_555 1_555
C2 H2 1_555 1_555
H3 C2 1_555 1_555
C3 C2 1_555 1_555
H4 C3 1_555 1_555
H5 C3 1_555 1_555
C4 C1 1_555 1_555
H6 C4 1_555 1_555
C5 C6 1_555 1_555
C6 C7 1_555 1_555
C7 H7 1_555 1_555
C8 C7 1_555 1_555
H8 C8 1_555 1_555
C9 C8 1_555 1_555
C10 C9 1_555 1_555
H9 C10 1_555 1_555
C11 C6 1_555 1_555
H10 C11 1_555 1_555
C12 C9 1_555 1_555
C13 C12 1_555 1_555
H11 C13 1_555 1_555
C14 H12 1_555 1_555
C15 C14 1_555 1_555
C16 C12 1_555 1_555
H13 C16 1_555 1_555
C17 C15 1_555 1_555
C18 C17 1_555 1_555
H14 C18 1_555 1_555
C19 C18 1_555 1_555
H15 C19 1_555 1_555
C20 C19 1_555 1_555
C21 C20 1_555 1_555
H16 C21 1_555 1_555
C22 C17 1_555 1_555
H17 C22 1_555 1_555
C23 C20 1_555 1_555
C24 C25 1_555 1_555
C25 C26 1_555 1_555
C26 H18 1_555 1_555
C27 C26 1_555 1_555
H19 C27 1_555 1_555
C28 C27 1_555 1_555
C29 C28 1_555 1_555
H20 C29 1_555 1_555
C30 C25 1_555 1_555
H21 C30 1_555 1_555
C31 C28 1_555 1_555
C32 C31 1_555 1_555
H22 C32 1_555 1_555
C33 H23 1_555 1_555
C34 C33 1_555 1_555
C35 C31 1_555 1_555
H24 C35 1_555 1_555
C36 C34 1_555 1_555
C37 C36 1_555 1_555
H25 C37 1_555 1_555
C38 C37 1_555 1_555
H26 C38 1_555 1_555
C39 C38 1_555 1_555
C40 C39 1_555 1_555
H27 C40 1_555 1_555
C41 C36 1_555 1_555
H28 C41 1_555 1_555
C42 C39 1_555 1_555
C43 C44 1_555 1_555
C44 C45 1_555 1_555
C45 H29 1_555 1_555
C46 C45 1_555 1_555
H30 C46 1_555 1_555
C47 C46 1_555 1_555
C48 C47 1_555 1_555
H31 C48 1_555 1_555
C49 C44 1_555 1_555
H32 C49 1_555 1_555
C50 C47 1_555 1_555
C51 C50 1_555 1_555
H33 C51 1_555 1_555
C52 C50 1_555 1_555
H34 C52 1_555 1_555
C53 C52 1_555 1_555
C54 C53 1_555 1_555
H35 C54 1_555 1_555
C55 C53 1_555 1_555
C56 C55 1_555 1_555
H36 C56 1_555 1_555
C57 C56 1_555 1_555
H37 C57 1_555 1_555
C58 C57 1_555 1_555
C59 C58 1_555 1_555
H38 C59 1_555 1_555
C60 C55 1_555 1_555
H39 C60 1_555 1_555
C61 C58 1_555 1_555
C62 H40 1_555 1_555
H41 C62 1_555 1_555
C63 H42 1_555 1_555
H43 C63 1_555 1_555
C64 H44 1_555 1_555
H45 C64 1_555 1_555
Cu1 O1 1_555 1_555
Cu2 O4 1_555 1_555
Cu3 N2 1_555 1_555
Cu4 N3 1_555 1_555
Cu5 O11 1_555 1_555
Cu6 O12 1_555 1_555
Cu7 I1 1_555 1_555
Cu8 I2 1_555 1_555
Cu9 I1 1_555 1_555
Cu10 I1 1_555 1_555
I2 Cu7 1_555 1_555
I3 Cu7 1_555 1_555
I4 Cu8 1_555 1_555
N1 C13 1_555 1_555
N2 C2 1_555 1_555
N3 C1 1_555 1_555
N4 C32 1_555 1_555
N5 C51 1_555 1_555
N6 C62 1_555 1_555
O2 C5 1_555 1_555
O3 C5 1_555 1_555
O4 C23 1_555 1_555
O5 C23 1_555 1_555
O6 C24 1_555 1_555
O7 C24 1_555 1_555
O8 Cu2 1_555 1_555
O9 C43 1_555 1_555
O10 C43 1_555 1_555
O11 C61 1_555 1_555
O12 C61 1_555 1_555
O13 Cu5 1_555 1_555
O14 Cu6 1_555 1_555
O15 C42 1_555 1_555
O16 C42 1_555 1_555
H1E C1 1_555 1_555
C2E N2 1_555 1_555
H2E C2E 1_555 1_555
H3E C2E 1_555 1_555
C3E N3 1_555 1_555
H4E C3E 1_555 1_555
H5E C3E 1_555 1_555
H6E C4 1_555 1_555
C62E C62 1_555 1_555
H40E C62E 1_555 1_555
H41E C62E 1_555 1_555
C63E C63 1_555 1_555
H42E C63E 1_555 1_555
H43E C63E 1_555 1_555
C64E C64 1_555 1_555
H44E C64E 1_555 1_555
H45E C64E 1_555 1_555
N6E C62E 1_555 1_555
C43A C44A 1_555 1_555
C44A C45A 1_555 1_555
C45A H29A 1_555 1_555
C46A C45A 1_555 1_555
H30A C46A 1_555 1_555
C47A C46A 1_555 1_555
C48A C47A 1_555 1_555
H31A C48A 1_555 1_555
C49A C44A 1_555 1_555
H32A C49A 1_555 1_555
C50A C47A 1_555 1_555
C51A C50A 1_555 1_555
H33A C51A 1_555 1_555
C52A C50A 1_555 1_555
H34A C52A 1_555 1_555
C53A C52A 1_555 1_555
C54A C53A 1_555 1_555
H35A C54A 1_555 1_555
C55A C53A 1_555 1_555
C56A C55A 1_555 1_555
H36A C56A 1_555 1_555
C57A C56A 1_555 1_555
H37A C57A 1_555 1_555
C58A C57A 1_555 1_555
C59A C58A 1_555 1_555
H38A C59A 1_555 1_555
C60A C55A 1_555 1_555
H39A C60A 1_555 1_555
C61A C58A 1_555 1_555
Cu7A I1A 1_555 1_555
Cu8A I2A 1_555 1_555
Cu9A I1A 1_555 1_555
Cu10A I1A 1_555 1_555
I2A Cu7A 1_555 1_555
I3A Cu7A 1_555 1_555
I4A Cu8A 1_555 1_555
N5A C51A 1_555 1_555
O9A C43A 1_555 1_555
O10A Cu4 1_555 1_555
O11A C61A 1_555 1_555
O12A C61A 1_555 1_555
C5E C6E 1_555 1_555
C6E C7E 1_555 1_555
C7E H7E 1_555 1_555
C8E C7E 1_555 1_555
H8E C8E 1_555 1_555
C9E C8E 1_555 1_555
C10E C9E 1_555 1_555
H9E C10E 1_555 1_555
C11E C6E 1_555 1_555
H10E C11E 1_555 1_555
C12E C9E 1_555 1_555
C13E C12E 1_555 1_555
H11E C13E 1_555 1_555
C14E H12E 1_555 1_555
C15E C14E 1_555 1_555
C16E C12E 1_555 1_555
H13E C16E 1_555 1_555
C17E C15E 1_555 1_555
C18E C17E 1_555 1_555
H14E C18E 1_555 1_555
C19E C18E 1_555 1_555
H15E C19E 1_555 1_555
C20E C19E 1_555 1_555
C21E C20E 1_555 1_555
H16E C21E 1_555 1_555
C22E C17E 1_555 1_555
H17E C22E 1_555 1_555
C23E C20E 1_555 1_555
N1E C13E 1_555 1_555
O2E Cu1 1_555 1_555
O3E C5E 1_555 1_555
O4E C23E 1_555 1_555
O5E C23E 1_555 1_555
C24E C25E 1_555 1_555
C25E C26E 1_555 1_555
C26E H18E 1_555 1_555
C27E C26E 1_555 1_555
H19E C27E 1_555 1_555
C28E C27E 1_555 1_555
C29E C28E 1_555 1_555
H20E C29E 1_555 1_555
C30E C25E 1_555 1_555
H21E C30E 1_555 1_555
C31E C28E 1_555 1_555
C32E C31E 1_555 1_555
H22E C32E 1_555 1_555
C33E H23E 1_555 1_555
C34E C33E 1_555 1_555
C35E C31E 1_555 1_555
H24E C35E 1_555 1_555
C36E C34E 1_555 1_555
C37E C36E 1_555 1_555
H25E C37E 1_555 1_555
C38E C37E 1_555 1_555
H26E C38E 1_555 1_555
C39E C38E 1_555 1_555
C40E C39E 1_555 1_555
H27E C40E 1_555 1_555
C41E C36E 1_555 1_555
H28E C41E 1_555 1_555
C42E C39E 1_555 1_555
N4E C32E 1_555 1_555
O6E Cu2 1_555 1_555
O7E Cu3 1_555 1_555
O15E C42E 1_555 1_555
O16E C42E 1_555 1_555
Cu1A O3 1_555 1_555
Cu2_2 O4E 1_555 1_555
Cu3_2 O5E 1_555 1_555
Cu4A O10 1_555 1_555
Cu5_2 O15E 1_555 1_555
Cu5A O11A 1_555 1_555
Cu6_2 O16E 1_555 1_555
Cu6A O12A 1_555 1_555
Cu8A_2 N1E 1_555 1_555
Cu8D N1 1_555 1_555
Cu9E N6E 1_555 1_555
Cu10B N4 1_555 1_555
Cu10G N4E 1_555 1_555
N1D Cu8 1_555 1_555
N1E_2 Cu8A 1_555 1_555
N4B Cu10 1_555 1_555
N4C Cu10A 1_555 1_555
N6A Cu9A 1_555 1_555
O3A Cu1 1_555 1_555
O3D Cu1 1_555 1_555
O4E_2 Cu2 1_555 1_555
O5E_2 Cu3 1_555 1_555
O9E Cu4 1_555 1_555
O10D Cu4 1_555 1_555
O11E Cu5 1_555 1_555
O12E Cu6 1_555 1_555
O15E_2 Cu5 1_555 1_555
O16E_2 Cu6 1_555 1_555
C3 N3 1_555 1_555
C4 N2 1_555 1_555
C10 C11 1_555 1_555
C14 N1 1_555 1_555
C15 C16 1_555 1_555
C21 C22 1_555 1_555
C29 C30 1_555 1_555
C33 N4 1_555 1_555
C34 C35 1_555 1_555
C40 C41 1_555 1_555
C48 C49 1_555 1_555
C54 N5 1_555 1_555
C59 C60 1_555 1_555
C63 N6 1_555 1_555
C64 N6 1_555 1_555
Cu1 O2 1_555 1_555
Cu2 O6 1_555 1_555
Cu3 O5 1_555 1_555
Cu3 O7 1_555 1_555
Cu4 O9 1_555 1_555
Cu5 O15 1_555 1_555
Cu6 O16 1_555 1_555
Cu7 N5 1_555 1_555
Cu8 I3 1_555 1_555
Cu9 I3 1_555 1_555
Cu9 I4 1_555 1_555
Cu9 N6 1_555 1_555
Cu10 I2 1_555 1_555
Cu10 I4 1_555 1_555
C2E C3E 1_555 1_555
C63E N6E 1_555 1_555
C64E N6E 1_555 1_555
C43A O10A 1_555 1_555
C48A C49A 1_555 1_555
C54A N5A 1_555 1_555
C59A C60A 1_555 1_555
Cu7A N5A 1_555 1_555
Cu8A I3A 1_555 1_555
Cu9A I3A 1_555 1_555
Cu9A I4A 1_555 1_555
Cu10A I2A 1_555 1_555
Cu10A I4A 1_555 1_555
O9A Cu4A 1_555 1_555
C5E O2E 1_555 1_555
C10E C11E 1_555 1_555
C14E N1E 1_555 1_555
C15E C16E 1_555 1_555
C21E C22E 1_555 1_555
O3E Cu1A 1_555 1_555
C24E O6E 1_555 1_555
C24E O7E 1_555 1_555
C29E C30E 1_555 1_555
C33E N4E 1_555 1_555
C34E C35E 1_555 1_555
C40E C41E 1_555 1_555

#END
