
#######################################################################
#
#                 Cambridge Crystallographic Data Centre
#                                CCDC 
#
#######################################################################
#
# If this CIF has been generated from an entry in the Cambridge 
# Structural Database, then it will include bibliographic, chemical, 
# crystal, experimental, refinement or atomic coordinate data resulting 
# from the CCDC's data processing and validation procedures.
#
#######################################################################

data_CABDER
_chemical_formula_moiety         '(C18 H29 Cd1 N3 O10)n'
_symmetry_cell_setting           orthorhombic
_symmetry_space_group_name_H-M   'C c c a'
_symmetry_Int_Tables_number      68
_space_group_name_Hall           '-C 2a 2ac'
loop_
_symmetry_equiv_pos_site_id
_symmetry_equiv_pos_as_xyz
1 x,y,z
2 -x,1/2-y,z
3 x,1/2-y,1/2-z
4 -x,y,1/2-z
5 1/2+x,1/2+y,z
6 1/2-x,-y,z
7 1/2+x,-y,1/2-z
8 1/2-x,1/2+y,1/2-z
9 -x,-y,-z
10 x,1/2+y,-z
11 -x,1/2+y,1/2+z
12 x,-y,1/2+z
13 1/2-x,1/2-y,-z
14 1/2+x,y,-z
15 1/2-x,y,1/2+z
16 1/2+x,1/2-y,1/2+z
_cell_length_a                   16.183(4)
_cell_length_b                   28.455(9)
_cell_length_c                   17.230(4)
_cell_angle_alpha                90
_cell_angle_beta                 90
_cell_angle_gamma                90
_cell_volume                     7934.2
loop_
_atom_site_label
_atom_site_type_symbol
_atom_site_fract_x
_atom_site_fract_y
_atom_site_fract_z
_atom_site_U_iso_or_equiv
_atom_site_thermal_displace_type
Cd1 Cd 0.84582(3) 0.36880(2) 0.02673(2) 0.0213 Uani
O1 O 0.8784(3) 0.36045(16) 0.1637(2) 0.0280 Uani
O2 O 0.7493(3) 0.36778(18) 0.1288(2) 0.0353 Uani
O3 O 0.7655(3) 0.39282(19) 0.4467(3) 0.0403 Uani
O4 O 1.0058(3) 0.63892(15) -0.0151(3) 0.0300 Uani
O5 O 0.6530(3) 0.37333(18) 0.3876(3) 0.0377 Uani
N1 N 0.8875(3) 0.44589(17) 0.0490(3) 0.0240 Uani
N2 N 0.9188(3) 0.62406(16) 0.0842(3) 0.0223 Uani
H1 H 0.8709 0.6311 0.1055 0.0270 Uiso
N3 N 0.8508(3) 0.78713(18) -0.0132(3) 0.0290 Uani
C1 C 0.8756(4) 0.5296(2) 0.0347(4) 0.0313 Uani
H2 H 0.8492 0.5552 0.0094 0.0380 Uiso
C2 C 0.9459(4) 0.4539(2) 0.1017(4) 0.0340 Uani
H3 H 0.9717 0.4275 0.1253 0.0410 Uiso
C3 C 0.9354(3) 0.5372(2) 0.0897(3) 0.0213 Uani
C4 C 0.8031(4) 0.3619(2) 0.1803(3) 0.0303 Uani
C5 C 0.7758(4) 0.3557(2) 0.2640(4) 0.0337 Uani
H4 H 0.8172 0.3362 0.2915 0.0410 Uiso
H5 H 0.7227 0.3384 0.2647 0.0410 Uiso
C6 C 0.7650(4) 0.4019(2) 0.3081(4) 0.0350 Uani
C7 C 0.8493(5) 0.4254(3) 0.3193(5) 0.0527 Uani
H6 H 0.8883 0.4027 0.3412 0.0790 Uiso
H7 H 0.8436 0.4521 0.3548 0.0790 Uiso
H8 H 0.8699 0.4365 0.2691 0.0790 Uiso
C8 C 0.8546(4) 0.4834(2) 0.0168(4) 0.0297 Uani
H9 H 0.8134 0.4786 -0.0216 0.0350 Uiso
C9 C 0.9709(4) 0.4980(2) 0.1238(4) 0.0313 Uani
H10 H 1.0125 0.5016 0.1623 0.0380 Uiso
C10 C 0.9045(4) 0.6962(2) 0.0114(3) 0.0237 Uani
C11 C 0.9654(4) 0.5849(2) 0.1143(4) 0.0250 Uani
H11 H 0.9644 0.5864 0.1717 0.0300 Uiso
H12 H 1.0236 0.5884 0.0976 0.0300 Uiso
C12 C 0.9461(4) 0.6499(2) 0.0253(3) 0.0227 Uani
C13 C 0.8687(4) 0.7218(2) 0.0699(4) 0.0327 Uani
H13 H 0.8620 0.7084 0.1200 0.0390 Uiso
C14 C 0.9095(5) 0.7164(2) -0.0614(4) 0.0397 Uani
H14 H 0.9313 0.6993 -0.1041 0.0480 Uiso
C15 C 0.8825(5) 0.7615(2) -0.0705(4) 0.0420 Uani
H15 H 0.8865 0.7753 -0.1205 0.0510 Uiso
C16 C 0.8425(4) 0.7668(2) 0.0556(4) 0.0357 Uani
H16 H 0.8174 0.7840 0.0965 0.0420 Uiso
C17 C 0.7055(5) 0.4350(2) 0.2644(4) 0.0407 Uani
H17 H 0.7300 0.4438 0.2145 0.0610 Uiso
H18 H 0.6959 0.4633 0.2955 0.0610 Uiso
H19 H 0.6529 0.4188 0.2555 0.0610 Uiso
C18 C 0.7255(4) 0.3884(2) 0.3858(4) 0.0310 Uani
Cd1H Cd 1.15418(3) 0.63120(2) -0.02673(2) 0.0213 Uani
Cd1I Cd 0.84582(3) 0.86880(2) -0.02673(2) 0.0213 Uani
Cd1N Cd 0.65418(3) 0.36880(2) 0.52673(2) 0.0213 Uani
O3N O 0.7345(3) 0.39282(19) -0.0533(3) 0.0403 Uani
O4H O 0.9942(3) 0.36108(15) 0.0151(3) 0.0300 Uani
O5N O 0.8470(3) 0.37333(18) -0.1124(3) 0.0377 Uani
N3I N 0.8508(3) 0.28713(18) 0.0132(3) 0.0290 Uani
O6 O 0.6891(5) 0.2500 0.2500 0.0677 Uani
H20 H 0.7032 0.2497 0.2013 0.1020 Uiso
H20B H 0.7032 0.2503 0.2987 0.1020 Uiso
O7 O 0.5788(7) 0.3207(5) 0.2682(7) 0.0677 Uani
H21 H 0.5285 0.3303 0.2765 0.1020 Uiso
H22 H 0.5806 0.2902 0.2714 0.1020 Uiso
O7C O 0.4212(7) 0.3207(5) 0.2318(7) 0.0677 Uani
H21C H 0.4715 0.3303 0.2235 0.1020 Uiso
H22C H 0.4194 0.2902 0.2286 0.1020 Uiso
O8 O 1.0000 0.3208(3) 0.2500 0.0573 Uani
H23 H 0.9719 0.3344 0.2132 0.0860 Uiso
H23C H 1.0281 0.3344 0.2868 0.0860 Uiso
O9 O 0.8775(7) 0.7500 -0.2500 0.0880 Uani
H24 H 0.9089 0.7745 -0.2437 0.1320 Uiso
H24B H 0.9089 0.7255 -0.2563 0.1320 Uiso
loop_
_atom_site_aniso_label
_atom_site_aniso_U_11
_atom_site_aniso_U_22
_atom_site_aniso_U_33
_atom_site_aniso_U_23
_atom_site_aniso_U_13
_atom_site_aniso_U_12
Cd1 0.0239(3) 0.0204(3) 0.0196(2) -0.00338(15) 0.00175(15) 0.00132(17)
O1 0.019(2) 0.041(3) 0.024(2) -0.0018(19) 0.0012(17) -0.0004(19)
O2 0.021(2) 0.062(3) 0.023(2) -0.002(2) -0.0013(18) 0.000(2)
O3 0.039(3) 0.059(3) 0.023(2) -0.002(2) 0.000(2) -0.014(2)
O4 0.023(2) 0.028(2) 0.039(3) -0.0015(19) 0.0113(19) 0.0057(18)
O5 0.025(2) 0.056(3) 0.032(2) -0.008(2) 0.0010(18) 0.002(2)
N1 0.023(3) 0.019(3) 0.030(3) 0.000(2) 0.000(2) 0.003(2)
N2 0.018(2) 0.018(2) 0.031(3) 0.000(2) 0.004(2) 0.0015(19)
N3 0.032(3) 0.019(3) 0.036(3) 0.004(2) -0.007(2) 0.001(2)
C1 0.037(4) 0.021(3) 0.036(3) 0.004(3) -0.014(3) 0.004(3)
C2 0.030(3) 0.020(3) 0.052(4) 0.000(3) -0.017(3) 0.003(3)
C3 0.018(3) 0.021(3) 0.025(3) -0.001(2) 0.005(2) 0.000(2)
C4 0.029(3) 0.039(4) 0.023(3) -0.008(3) 0.000(3) 0.005(3)
C5 0.035(4) 0.030(4) 0.036(4) 0.002(3) 0.001(3) 0.004(3)
C6 0.034(4) 0.038(4) 0.033(3) -0.008(3) -0.002(3) 0.001(3)
C7 0.043(4) 0.066(6) 0.049(5) -0.018(4) 0.003(4) -0.024(4)
C8 0.035(4) 0.026(3) 0.028(3) 0.000(2) -0.008(3) 0.002(3)
C9 0.031(3) 0.025(3) 0.038(3) 0.001(3) -0.015(3) 0.002(3)
C10 0.021(3) 0.022(3) 0.028(3) 0.004(2) 0.001(2) 0.002(2)
C11 0.025(3) 0.020(3) 0.030(3) 0.002(2) -0.002(2) 0.002(2)
C12 0.021(3) 0.019(3) 0.028(3) -0.006(2) -0.003(2) -0.002(2)
C13 0.038(4) 0.025(3) 0.035(4) 0.008(3) 0.013(3) 0.005(3)
C14 0.062(5) 0.032(4) 0.025(3) -0.002(3) 0.003(3) 0.007(3)
C15 0.073(5) 0.028(4) 0.025(3) 0.006(3) -0.005(3) 0.007(4)
C16 0.042(4) 0.027(3) 0.038(4) 0.007(3) 0.014(3) 0.009(3)
C17 0.053(4) 0.032(4) 0.037(4) 0.001(3) 0.004(3) 0.010(3)
C18 0.029(3) 0.037(4) 0.027(3) -0.007(3) -0.001(3) 0.002(3)
Cd1H 0.0239 0.0204 0.0196 -0.00338 0.00175 0.00132
Cd1I 0.0239 0.0204 0.0196 0.00338 -0.00175 0.00132
Cd1N 0.0239 0.0204 0.0196 -0.00338 -0.00175 -0.00132
O3N 0.039 0.059 0.023 -0.002 0 0.014
O4H 0.023 0.028 0.039 -0.0015 0.0113 0.0057
O5N 0.025 0.056 0.032 -0.008 -0.001 -0.002
N3I 0.032 0.019 0.036 -0.004 0.007 0.001
O6 0.045(4) 0.102(6) 0.056(4) -0.010(4) 0.000 0.000
O7 0.045(4) 0.102(6) 0.056(4) -0.010(4) 0.000 0.000
O7C 0.045 0.102 0.056 0.01 0 0
O8 0.052(5) 0.047(5) 0.073(6) 0.000 -0.033(4) 0.000
O9 0.090(7) 0.075(7) 0.099(8) -0.002(6) 0.000 0.000
loop_
_geom_bond_atom_site_label_1
_geom_bond_atom_site_label_2
_geom_bond_site_symmetry_1
_geom_bond_site_symmetry_2
Cd1 O1 1_555 1_555
O1 C4 1_555 1_555
O2 Cd1 1_555 1_555
O3 C18 1_555 1_555
O4 C12 1_555 1_555
O5 C18 1_555 1_555
N1 Cd1 1_555 1_555
N2 H1 1_555 1_555
N3 C15 1_555 1_555
C1 H2 1_555 1_555
C2 N1 1_555 1_555
H3 C2 1_555 1_555
C3 C1 1_555 1_555
C4 O2 1_555 1_555
C5 C4 1_555 1_555
H4 C5 1_555 1_555
H5 C5 1_555 1_555
C6 C5 1_555 1_555
C7 C6 1_555 1_555
H6 C7 1_555 1_555
H7 C7 1_555 1_555
H8 C7 1_555 1_555
C8 N1 1_555 1_555
H9 C8 1_555 1_555
C9 C2 1_555 1_555
H10 C9 1_555 1_555
C10 C12 1_555 1_555
C11 N2 1_555 1_555
H11 C11 1_555 1_555
H12 C11 1_555 1_555
C12 N2 1_555 1_555
C13 C10 1_555 1_555
H13 C13 1_555 1_555
C14 C10 1_555 1_555
H14 C14 1_555 1_555
C15 C14 1_555 1_555
H15 C15 1_555 1_555
C16 N3 1_555 1_555
H16 C16 1_555 1_555
C17 C6 1_555 1_555
H17 C17 1_555 1_555
H18 C17 1_555 1_555
H19 C17 1_555 1_555
C18 C6 1_555 1_555
O6 H20 1_555 1_555
O7 H21 1_555 1_555
H22 O7 1_555 1_555
O8 H23 1_555 1_555
O9 H24 1_555 1_555
Cd1H O4 1_555 1_555
Cd1I N3 1_555 1_555
Cd1N O3 1_555 1_555
O3N Cd1 1_555 1_555
O4H Cd1 1_555 1_555
O5N Cd1 1_555 1_555
N3I Cd1 1_555 1_555
H20B O6 1_555 1_555
O7C H21C 1_555 1_555
H22C O7C 1_555 1_555
H23C O8 1_555 1_555
H24B O9 1_555 1_555
O5 Cd1N 1_555 1_555
C1 C8 1_555 1_555
C3 C9 1_555 1_555
C3 C11 1_555 1_555
C13 C16 1_555 1_555

#END
