
#######################################################################
#
#                 Cambridge Crystallographic Data Centre
#                                CCDC 
#
#######################################################################
#
# If this CIF has been generated from an entry in the Cambridge 
# Structural Database, then it will include bibliographic, chemical, 
# crystal, experimental, refinement or atomic coordinate data resulting 
# from the CCDC's data processing and validation procedures.
#
#######################################################################

data_PIDNAT
_chemical_formula_moiety         'C36 N2 O14 Zn7'
_symmetry_cell_setting           tetragonal
_symmetry_space_group_name_H-M   'I 4/m c m'
_symmetry_Int_Tables_number      140
_space_group_name_Hall           '-I 4 2c'
loop_
_symmetry_equiv_pos_site_id
_symmetry_equiv_pos_as_xyz
1 x,y,z
2 -y,x,z
3 y,-x,z
4 x,-y,1/2-z
5 -x,y,1/2-z
6 -x,-y,z
7 y,x,1/2-z
8 -y,-x,1/2-z
9 1/2+x,1/2+y,1/2+z
10 1/2-y,1/2+x,1/2+z
11 1/2+y,1/2-x,1/2+z
12 1/2+x,1/2-y,-z
13 1/2-x,1/2+y,-z
14 1/2-x,1/2-y,1/2+z
15 1/2+y,1/2+x,-z
16 1/2-y,1/2-x,-z
17 -x,-y,-z
18 y,-x,-z
19 -y,x,-z
20 -x,y,1/2+z
21 x,-y,1/2+z
22 x,y,-z
23 -y,-x,1/2+z
24 y,x,1/2+z
25 1/2-x,1/2-y,1/2-z
26 1/2+y,1/2-x,1/2-z
27 1/2-y,1/2+x,1/2-z
28 1/2-x,1/2+y,z
29 1/2+x,1/2-y,z
30 1/2+x,1/2+y,1/2-z
31 1/2-y,1/2-x,z
32 1/2+y,1/2+x,z
_cell_length_a                   21.355(2)
_cell_length_b                   21.355(2)
_cell_length_c                   19.211(2)
_cell_angle_alpha                90
_cell_angle_beta                 90
_cell_angle_gamma                90
_cell_volume                     8760.91
loop_
_atom_site_label
_atom_site_type_symbol
_atom_site_fract_x
_atom_site_fract_y
_atom_site_fract_z
C1 C 0.0734(3) 0.0941(3) 0.0000
C2 C 0.1165(4) 0.1482(4) 0.0000
C3 C 0.1997(7) 0.2517(6) 0.0000
C4 C 0.1385(5) 0.1742(4) 0.0582(3)
C5 C 0.1792(6) 0.2230(5) 0.0576(3)
C6 C 0.0657(4) 0.0112(4) 0.2089(5)
Zn1 Zn -0.0000 -0.0000 0.07575(3)
N1 N 0.0000 0.0000 0.1812(3)
O1 O 0.05621(16) 0.07394(15) 0.05748(18)
C1O C 0.4059(3) 0.4266(3) 0.0000
C2O C 0.3518(4) 0.3835(4) 0.0000
C3O C 0.2483(6) 0.3003(7) 0.0000
C4O C 0.3258(4) 0.3615(5) -0.0582(3)
C5O C 0.2770(5) 0.3208(6) -0.0576(3)
O1O O 0.42606(15) 0.44379(16) -0.05748(18)
C4U C 0.1385(5) 0.1742(4) -0.0582(3)
C5U C 0.1792(6) 0.2230(5) -0.0576(3)
O1U O 0.05621(16) 0.07394(15) -0.05748(18)
C4DA C 0.3258(4) 0.3615(5) 0.0582(3)
C5DA C 0.2770(5) 0.3208(6) 0.0576(3)
O1DA O 0.42606(15) 0.44379(16) 0.05748(18)
C6A C -0.0112(4) 0.0657(4) 0.2089(5)
C6B C 0.0112(4) -0.0657(4) 0.2089(5)
C6C C 0.0657(4) -0.0112(4) 0.2911(5)
N1C N -0.0000 -0.0000 0.3188(3)
C6D C -0.0657(4) 0.0112(4) 0.2911(5)
C6E C -0.0657(4) -0.0112(4) 0.2089(5)
C6F C 0.0112(4) 0.0657(4) 0.2911(5)
C6G C -0.0112(4) -0.0657(4) 0.2911(5)
C1A C -0.0941(3) 0.0734(3) 0.0000
C2A C -0.1482(4) 0.1165(4) 0.0000
C3A C -0.2517(6) 0.1997(7) 0.0000
C4A C -0.1742(4) 0.1385(5) 0.0582(3)
C5A C -0.2230(5) 0.1792(6) 0.0576(3)
O1A O -0.07394(15) 0.05621(16) 0.05748(18)
C1K C -0.4266(3) 0.4059(3) 0.0000
C2K C -0.3835(4) 0.3518(4) 0.0000
C3K C -0.3003(7) 0.2483(6) 0.0000
C4K C -0.3615(5) 0.3258(4) -0.0582(3)
C5K C -0.3208(6) 0.2770(5) -0.0576(3)
O1K O -0.44379(16) 0.42606(15) -0.05748(18)
C4R C -0.1742(4) 0.1385(5) -0.0582(3)
C5R C -0.2230(5) 0.1792(6) -0.0576(3)
O1R O -0.07394(15) 0.05621(16) -0.05748(18)
C4BA C -0.3615(5) 0.3258(4) 0.0582(3)
C5BA C -0.3208(6) 0.2770(5) 0.0576(3)
O1BA O -0.44379(16) 0.42606(15) 0.05748(18)
Zn1C Zn -0.0000 -0.0000 0.42425(3)
Zn1K Zn -0.5000 0.5000 -0.07575(3)
Zn1K_2 Zn 0.5000 0.5000 -0.07575(3)
Zn1P Zn 0.0000 0.0000 -0.07575(3)
Zn1AA Zn -0.5000 0.5000 0.07575(3)
Zn1AA_2 Zn 0.5000 0.5000 0.07575(3)
O1B O 0.07394(15) -0.05621(16) 0.05748(18)
O1C O 0.05621(16) -0.07394(15) 0.44252(18)
O1D O -0.05621(16) 0.07394(15) 0.44252(18)
O1E O -0.05621(16) -0.07394(15) 0.05748(18)
O1F O 0.07394(15) 0.05621(16) 0.44252(18)
O1G O -0.07394(15) -0.05621(16) 0.44252(18)
loop_
_geom_bond_atom_site_label_1
_geom_bond_atom_site_label_2
_geom_bond_site_symmetry_1
_geom_bond_site_symmetry_2
C1 C2 1_555 1_555
C2 C4 1_555 1_555
C3 C5 1_555 1_555
C4 C5 1_555 1_555
C6 N1 1_555 1_555
Zn1 N1 1_555 1_555
N1 C6A 1_555 1_555
O1 C1 1_555 1_555
C1O C2O 1_555 1_555
C2O C4O 1_555 1_555
C3O C3 1_555 1_555
C4O C5O 1_555 1_555
C5O C3O 1_555 1_555
O1O C1O 1_555 1_555
C4U C2 1_555 1_555
C5U C3 1_555 1_555
O1U C1 1_555 1_555
C4DA C2O 1_555 1_555
C5DA C3O 1_555 1_555
O1DA C1O 1_555 1_555
C6A C6F 1_555 1_555
C6B N1 1_555 1_555
C6C C6 1_555 1_555
N1C C6C 1_555 1_555
C6D N1C 1_555 1_555
C6E N1 1_555 1_555
C6F N1C 1_555 1_555
C6G C6B 1_555 1_555
C1A C2A 1_555 1_555
C2A C4A 1_555 1_555
C3A C5A 1_555 1_555
C4A C5A 1_555 1_555
O1A Zn1 1_555 1_555
C1K C2K 1_555 1_555
C2K C4K 1_555 1_555
C3K C3A 1_555 1_555
C4K C5K 1_555 1_555
C5K C3K 1_555 1_555
O1K C1K 1_555 1_555
C4R C2A 1_555 1_555
C5R C3A 1_555 1_555
O1R C1A 1_555 1_555
C4BA C2K 1_555 1_555
C5BA C3K 1_555 1_555
O1BA C1K 1_555 1_555
Zn1C N1C 1_555 1_555
Zn1K O1K 1_555 1_555
Zn1K_2 O1O 1_555 1_555
Zn1P O1U 1_555 1_555
Zn1AA O1BA 1_555 1_555
Zn1AA_2 O1DA 1_555 1_555
O1B Zn1 1_555 1_555
O1C Zn1C 1_555 1_555
O1D Zn1C 1_555 1_555
O1E Zn1 1_555 1_555
O1F Zn1C 1_555 1_555
O1G Zn1C 1_555 1_555
Zn1 O1 1_555 1_555
C4U C5U 1_555 1_555
C4DA C5DA 1_555 1_555
N1C C6G 1_555 1_555
C6D C6E 1_555 1_555
C1A O1A 1_555 1_555
C4R C5R 1_555 1_555
O1R Zn1P 1_555 1_555
C4BA C5BA 1_555 1_555

#END
