
#######################################################################
#
#                 Cambridge Crystallographic Data Centre
#                                CCDC 
#
#######################################################################
#
# If this CIF has been generated from an entry in the Cambridge 
# Structural Database, then it will include bibliographic, chemical, 
# crystal, experimental, refinement or atomic coordinate data resulting 
# from the CCDC's data processing and validation procedures.
#
#######################################################################

data_PIDNIB
_chemical_formula_moiety         'C38 N7 O12 Zn7'
_symmetry_cell_setting           orthorhombic
_symmetry_space_group_name_H-M   'F m m m'
_symmetry_Int_Tables_number      69
_space_group_name_Hall           '-F 2 2'
loop_
_symmetry_equiv_pos_site_id
_symmetry_equiv_pos_as_xyz
1 x,y,z
2 -x,-y,z
3 -x,y,-z
4 x,-y,-z
5 x,1/2+y,1/2+z
6 -x,1/2-y,1/2+z
7 -x,1/2+y,1/2-z
8 x,1/2-y,1/2-z
9 1/2+x,y,1/2+z
10 1/2-x,-y,1/2+z
11 1/2-x,y,1/2-z
12 1/2+x,-y,1/2-z
13 1/2+x,1/2+y,z
14 1/2-x,1/2-y,z
15 1/2-x,1/2+y,-z
16 1/2+x,1/2-y,-z
17 -x,-y,-z
18 x,y,-z
19 x,-y,z
20 -x,y,z
21 -x,1/2-y,1/2-z
22 x,1/2+y,1/2-z
23 x,1/2-y,1/2+z
24 -x,1/2+y,1/2+z
25 1/2-x,-y,1/2-z
26 1/2+x,y,1/2-z
27 1/2+x,-y,1/2+z
28 1/2-x,y,1/2+z
29 1/2-x,1/2-y,-z
30 1/2+x,1/2+y,-z
31 1/2+x,1/2-y,z
32 1/2-x,1/2+y,z
_cell_length_a                   28.0614(11)
_cell_length_b                   30.0942(19)
_cell_length_c                   30.0947(12)
_cell_angle_alpha                90
_cell_angle_beta                 90
_cell_angle_gamma                90
_cell_volume                     25414.5
loop_
_atom_site_label
_atom_site_type_symbol
_atom_site_fract_x
_atom_site_fract_y
_atom_site_fract_z
_atom_site_U_iso_or_equiv
_atom_site_thermal_displace_type
O1 O 0.2371(3) 0.31501(14) 0.03772(18) 0.0770 Uani
O2 O 0.31490(15) 0.2638(3) 0.03967(17) 0.0848 Uani
N1 N 0.2500 0.2500 0.1253(5) 0.0413 Uani
C1 C 0.3330(2) 0.2628(3) 0.0000 0.0380 Uani
C2 C 0.2285(4) 0.3834(3) 0.0000 0.0523 Uani
C3 C 0.3849(3) 0.2695(2) 0.0000 0.0420 Uani
C4 C 0.2358(2) 0.3334(2) 0.0000 0.0377 Uani
C5 C 0.2161(3) 0.4759(3) 0.0000 0.0503 Uani
C6 C 0.2500 0.2500 0.2223(5) 0.0427 Uani
N2 N 0.1720(6) 0.4655(6) -0.0749(5) 0.1500 Uiso
C7 C 0.4749(4) 0.2790(4) 0.0000 0.0710 Uani
C8 C 0.2090(6) 0.4036(5) -0.0353(5) 0.0780 Uiso
C9 C 0.1994(4) 0.4488(4) -0.0347(4) 0.0570 Uiso
C10 C 0.2164(6) 0.2442(6) 0.1495(6) 0.0830 Uiso
C11 C 0.2089(5) 0.2476(4) 0.1984(4) 0.0590 Uiso
C12 C 0.4024(4) 0.2947(4) 0.0354(4) 0.0600 Uiso
C13 C 0.4495(5) 0.2967(5) 0.0360(5) 0.0720 Uiso
Zn1 Zn 0.2500 0.2500 0.05223(5) 0.0323 Uani
O1C O 0.2371(3) 0.68499(14) -0.03772(18) 0.0770 Uani
C2C C 0.2285(4) 0.6166(3) 0.0000 0.0523 Uani
C4C C 0.2358(2) 0.6666(2) 0.0000 0.0377 Uani
C5C C 0.2161(3) 0.5241(3) 0.0000 0.0503 Uani
N2C N 0.1720(6) 0.5345(6) 0.0749(5) 0.1500 Uiso
C8C C 0.2090(6) 0.5964(5) 0.0353(5) 0.0780 Uiso
C9C C 0.1994(4) 0.5512(4) 0.0347(4) 0.0570 Uiso
O1Q O 0.2371(3) 0.31501(14) -0.03772(18) 0.0770 Uani
N2Q N 0.1720(6) 0.4655(6) 0.0749(5) 0.1500 Uiso
C8Q C 0.2090(6) 0.4036(5) 0.0353(5) 0.0780 Uiso
C9Q C 0.1994(4) 0.4488(4) 0.0347(4) 0.0570 Uiso
O1R O 0.2371(3) 0.68499(14) 0.03772(18) 0.0770 Uani
N2R N 0.1720(6) 0.5345(6) -0.0749(5) 0.1500 Uiso
C8R C 0.2090(6) 0.5964(5) -0.0353(5) 0.0780 Uiso
C9R C 0.1994(4) 0.5512(4) -0.0347(4) 0.0570 Uiso
O2B O 0.68510(15) 0.2638(3) -0.03967(17) 0.0848 Uani
C1B C 0.6670(2) 0.2628(3) 0.0000 0.0380 Uani
C3B C 0.6151(3) 0.2695(2) 0.0000 0.0420 Uani
C7B C 0.5251(4) 0.2790(4) 0.0000 0.0710 Uani
C12B C 0.5976(4) 0.2947(4) -0.0354(4) 0.0600 Uiso
C13B C 0.5505(5) 0.2967(5) -0.0360(5) 0.0720 Uiso
O2Q O 0.31490(15) 0.2638(3) -0.03967(17) 0.0848 Uani
C12Q C 0.4024(4) 0.2947(4) -0.0354(4) 0.0600 Uiso
C13Q C 0.4495(5) 0.2967(5) -0.0360(5) 0.0720 Uiso
O2S O 0.68510(15) 0.2638(3) 0.03967(17) 0.0848 Uani
C12S C 0.5976(4) 0.2947(4) 0.0354(4) 0.0600 Uiso
C13S C 0.5505(5) 0.2967(5) 0.0360(5) 0.0720 Uiso
N1G N 0.2500 0.2500 0.3747(5) 0.0413 Uani
C6G C 0.2500 0.2500 0.2777(5) 0.0427 Uani
C10G C 0.2164(6) 0.2558(6) 0.3505(6) 0.0830 Uiso
C11G C 0.2089(5) 0.2524(4) 0.3016(4) 0.0590 Uiso
C10J C 0.2836(6) 0.2442(6) 0.3505(6) 0.0830 Uiso
C11J C 0.2911(5) 0.2476(4) 0.3016(4) 0.0590 Uiso
C10M C 0.2836(6) 0.2558(6) 0.1495(6) 0.0830 Uiso
C11M C 0.2911(5) 0.2524(4) 0.1984(4) 0.0590 Uiso
Zn1Q Zn 0.2500 0.2500 -0.05223(5) 0.0323 Uani
O1M O 0.2629(3) 0.18499(14) 0.03772(18) 0.0770 Uani
O1BA O 0.2629(3) 0.18499(14) -0.03772(18) 0.0770 Uani
O2M O 0.18510(15) 0.2362(3) 0.03967(17) 0.0848 Uani
O2BA O 0.18510(15) 0.2362(3) -0.03967(17) 0.0848 Uani
N1Q N 0.2500 0.2500 -0.1253(5) 0.0413 Uani
Zn1B Zn 0.7500 0.2500 -0.05223(5) 0.0323 Uani
Zn1C Zn 0.2500 0.7500 -0.05223(5) 0.0323 Uani
Zn1G Zn 0.2500 0.2500 0.44777(5) 0.0323 Uani
Zn1R Zn 0.2500 0.7500 0.05223(5) 0.0323 Uani
Zn1S Zn 0.7500 0.2500 0.05223(5) 0.0323 Uani
loop_
_atom_site_aniso_label
_atom_site_aniso_U_11
_atom_site_aniso_U_22
_atom_site_aniso_U_33
_atom_site_aniso_U_23
_atom_site_aniso_U_13
_atom_site_aniso_U_12
O1 0.145(5) 0.030(2) 0.056(3) 0.0019(17) 0.002(3) 0.026(2)
O2 0.0324(18) 0.176(6) 0.046(2) 0.002(3) 0.0113(17) -0.016(2)
N1 0.016(4) 0.079(8) 0.029(5) 0.000 0.000 0.0044(19)
C1 0.034(3) 0.042(3) 0.038(3) 0.000 0.000 0.005(2)
C2 0.065(5) 0.039(4) 0.053(5) 0.000 0.000 0.020(4)
C3 0.041(3) 0.038(3) 0.047(3) 0.000 0.000 0.012(2)
C4 0.032(2) 0.033(3) 0.048(4) 0.000 0.000 0.0030(19)
C5 0.046(3) 0.041(4) 0.064(4) 0.000 0.000 0.008(3)
C6 0.055(7) 0.043(7) 0.030(8) 0.000 0.000 -0.003(3)
C7 0.056(5) 0.080(6) 0.077(6) 0.000 0.000 -0.002(4)
Zn1 0.0333(13) 0.0376(14) 0.0261(14) 0.000 0.000 0.0007(3)
O1C 0.145 0.03 0.056 0.0019 -0.002 -0.026
C2C 0.065 0.039 0.053 0 0 -0.02
C4C 0.032 0.033 0.048 0 0 -0.003
C5C 0.046 0.041 0.064 0 0 -0.008
O1Q 0.145 0.03 0.056 -0.0019 -0.002 0.026
O1R 0.145 0.03 0.056 -0.0019 0.002 -0.026
O2B 0.0324 0.176 0.046 -0.002 0.0113 0.016
C1B 0.034 0.042 0.038 0 0 -0.005
C3B 0.041 0.038 0.047 0 0 -0.012
C7B 0.056 0.08 0.077 0 0 0.002
O2Q 0.0324 0.176 0.046 -0.002 -0.0113 -0.016
O2S 0.0324 0.176 0.046 0.002 -0.0113 0.016
N1G 0.016 0.079 0.029 0 0 -0.0044
C6G 0.055 0.043 0.03 0 0 0.003
Zn1Q 0.0333 0.0376 0.0261 0 0 0.0007
O1M 0.145 0.03 0.056 -0.0019 -0.002 0.026
O1BA 0.145 0.03 0.056 0.0019 0.002 0.026
O2M 0.0324 0.176 0.046 -0.002 -0.0113 -0.016
O2BA 0.0324 0.176 0.046 0.002 0.0113 -0.016
N1Q 0.016 0.079 0.029 0 0 0.0044
Zn1B 0.0333 0.0376 0.0261 0 0 -0.0007
Zn1C 0.0333 0.0376 0.0261 0 0 -0.0007
Zn1G 0.0333 0.0376 0.0261 0 0 -0.0007
Zn1R 0.0333 0.0376 0.0261 0 0 -0.0007
Zn1S 0.0333 0.0376 0.0261 0 0 -0.0007
loop_
_geom_bond_atom_site_label_1
_geom_bond_atom_site_label_2
_geom_bond_site_symmetry_1
_geom_bond_site_symmetry_2
O1 C4 1_555 1_555
O2 C1 1_555 1_555
N1 C10 1_555 1_555
C1 C3 1_555 1_555
C2 C4 1_555 1_555
C3 C12 1_555 1_555
C4 O1Q 1_555 1_555
C5 C9 1_555 1_555
C6 C11 1_555 1_555
N2 C9 1_555 1_555
C7 C13 1_555 1_555
C8 C2 1_555 1_555
C9 C8 1_555 1_555
C10 C11 1_555 1_555
C12 C13 1_555 1_555
Zn1 O1 1_555 1_555
O1C C4C 1_555 1_555
C2C C4C 1_555 1_555
C4C O1R 1_555 1_555
C5C C5 1_555 1_555
N2C C9C 1_555 1_555
C8C C2C 1_555 1_555
C9C C5C 1_555 1_555
O1Q Zn1Q 1_555 1_555
N2Q C9Q 1_555 1_555
C8Q C2 1_555 1_555
C9Q C5 1_555 1_555
O1R Zn1R 1_555 1_555
N2R C9R 1_555 1_555
C8R C2C 1_555 1_555
C9R C5C 1_555 1_555
O2B C1B 1_555 1_555
C1B C3B 1_555 1_555
C3B C12B 1_555 1_555
C7B C7 1_555 1_555
C12B C13B 1_555 1_555
C13B C7B 1_555 1_555
O2Q C1 1_555 1_555
C12Q C3 1_555 1_555
C13Q C7 1_555 1_555
O2S C1B 1_555 1_555
C12S C3B 1_555 1_555
C13S C7B 1_555 1_555
N1G C10G 1_555 1_555
C6G C6 1_555 1_555
C10G C11G 1_555 1_555
C11G C6G 1_555 1_555
C10J N1G 1_555 1_555
C11J C6G 1_555 1_555
C10M N1 1_555 1_555
C11M C6 1_555 1_555
Zn1Q O2Q 1_555 1_555
O1M Zn1 1_555 1_555
O1BA Zn1Q 1_555 1_555
O2M Zn1 1_555 1_555
O2BA Zn1Q 1_555 1_555
N1Q Zn1Q 1_555 1_555
Zn1B O2B 1_555 1_555
Zn1C O1C 1_555 1_555
Zn1G N1G 1_555 1_555
Zn1S O2S 1_555 1_555
O2 Zn1 1_555 1_555
N1 Zn1 1_555 1_555
C8C C9C 1_555 1_555
C8Q C9Q 1_555 1_555
C8R C9R 1_555 1_555
C12Q C13Q 1_555 1_555
C12S C13S 1_555 1_555
C10J C11J 1_555 1_555
C10M C11M 1_555 1_555

#END
