
#######################################################################
#
#                 Cambridge Crystallographic Data Centre
#                                CCDC 
#
#######################################################################
#
# If this CIF has been generated from an entry in the Cambridge 
# Structural Database, then it will include bibliographic, chemical, 
# crystal, experimental, refinement or atomic coordinate data resulting 
# from the CCDC's data processing and validation procedures.
#
#######################################################################

data_ASINEX
_chemical_formula_moiety         '(C93 H65 N9 O13 Zn3)n'
_symmetry_cell_setting           orthorhombic
_symmetry_space_group_name_H-M   'F d d 2'
_symmetry_Int_Tables_number      43
_space_group_name_Hall           'F 2 -2d'
loop_
_symmetry_equiv_pos_site_id
_symmetry_equiv_pos_as_xyz
1 x,y,z
2 -x,-y,z
3 1/4-x,1/4+y,1/4+z
4 1/4+x,1/4-y,1/4+z
5 x,1/2+y,1/2+z
6 -x,1/2-y,1/2+z
7 1/4-x,3/4+y,3/4+z
8 1/4+x,3/4-y,3/4+z
9 1/2+x,y,1/2+z
10 1/2-x,-y,1/2+z
11 3/4-x,1/4+y,3/4+z
12 3/4+x,1/4-y,3/4+z
13 1/2+x,1/2+y,z
14 1/2-x,1/2-y,z
15 3/4-x,3/4+y,1/4+z
16 3/4+x,3/4-y,1/4+z
_cell_length_a                   74.910(16)
_cell_length_b                   29.614(6)
_cell_length_c                   29.755(11)
_cell_angle_alpha                90
_cell_angle_beta                 90
_cell_angle_gamma                90
_cell_volume                     66008
loop_
_atom_site_label
_atom_site_type_symbol
_atom_site_fract_x
_atom_site_fract_y
_atom_site_fract_z
C1 C 0.0752(2) -0.0851(6) 0.4562(7)
H1 H 0.0632 -0.0816 0.4660
C2 C 0.10807(13) -0.0957(3) 0.4288(6)
H2 H 0.1200 -0.0985 0.4185
C3 C 0.14418(11) 0.5600(3) 0.3834(6)
C4 C 0.0796(2) -0.1272(6) 0.4346(7)
H3 H 0.0714 -0.1511 0.4296
C5 C 0.20398(11) 0.4766(3) 0.5056(6)
H4 H 0.1977 0.4765 0.5333
C6 C 0.08692(14) -0.0486(3) 0.4641(6)
C7 C 0.08029(11) -0.0083(3) 0.4884(6)
C8 C 0.16596(10) 0.5020(3) 0.4380(6)
C9 C 0.22262(10) 0.4794(3) 0.5030(6)
H5 H 0.2291 0.4798 0.5305
C10 C 0.15926(11) 0.5750(3) 0.4058(6)
H6 H 0.1630 0.6054 0.4022
C11 C 0.10346(14) -0.0535(3) 0.4510(6)
H7 H 0.1121 -0.0305 0.4558
C12 C 0.09194(8) 0.1031(2) 0.6411(6)
H8 H 0.1000 0.0984 0.6653
C13 C 0.10531(8) 0.6723(2) 0.2631(6)
C14 C 0.11445(8) 0.6423(2) 0.2962(6)
C15 C 0.12135(8) 0.6588(3) 0.3355(6)
H9 H 0.1195 0.6896 0.3429
C16 C 0.13068(11) 0.6323(3) 0.3639(6)
H10 H 0.1351 0.6451 0.3910
C17 C 0.13405(10) 0.5871(3) 0.3550(6)
C18 C 0.12559(12) 0.5694(3) 0.3164(6)
H11 H 0.1266 0.5381 0.3100
C19 C 0.11583(9) 0.5968(2) 0.2874(6)
H12 H 0.1102 0.5842 0.2617
C20 C 0.07903(8) 0.0779(2) 0.5724(6)
C21 C 0.09031(9) 0.0715(2) 0.6105(6)
H13 H 0.0967 0.0440 0.6138
C22 C 0.16915(11) 0.5458(4) 0.4339(6)
H14 H 0.1787 0.5583 0.4510
C23 C 0.06980(8) 0.1172(2) 0.5698(6)
H15 H 0.0622 0.1235 0.5451
C24 C 0.15047(11) 0.4829(3) 0.4139(6)
H16 H 0.1476 0.4516 0.4150
C25 C 0.14078(12) 0.5119(4) 0.3906(6)
H17 H 0.1303 0.5000 0.3768
C26 C 0.30874(10) 0.5112(3) 0.4663(6)
C27 C 0.28813(9) 0.5010(2) 0.4652(6)
C28 C 0.27799(9) 0.5169(3) 0.4293(6)
H18 H 0.2835 0.5333 0.4056
C29 C 0.25991(10) 0.5086(3) 0.4285(6)
H19 H 0.2530 0.5179 0.4033
C30 C 0.25151(10) 0.4866(3) 0.4646(6)
C31 C 0.26231(9) 0.4716(3) 0.4993(6)
H20 H 0.2567 0.4573 0.5242
C32 C 0.27990(8) 0.4758(2) 0.5000(6)
H21 H 0.2868 0.4623 0.5232
C33 C 0.23200(10) 0.4814(3) 0.4646(6)
C34 C 0.22173(11) 0.4807(3) 0.4244(6)
H22 H 0.2274 0.4822 0.3959
C35 C 0.20393(12) 0.4780(4) 0.4273(6)
H23 H 0.1973 0.4789 0.4001
C36 C 0.19530(10) 0.4742(3) 0.4642(6)
C37 C 0.07203(8) 0.1487(2) 0.6056(6)
H24 H 0.0655 0.1762 0.6049
C38 C 0.07769(9) 0.0464(3) 0.5349(6)
C39 C 0.10548(9) 0.2687(2) 0.6673(6)
C40 C 0.11675(9) 0.2992(2) 0.6374(6)
C41 C 0.12946(10) 0.2826(3) 0.6087(6)
H25 H 0.1318 0.2510 0.6075
C42 C 0.13856(11) 0.3110(3) 0.5825(6)
H26 H 0.1470 0.2981 0.5624
C43 C 0.13691(9) 0.3561(3) 0.5817(6)
C44 C 0.12348(11) 0.3734(2) 0.6109(6)
H27 H 0.1210 0.4049 0.6114
C45 C 0.11429(10) 0.3448(3) 0.6380(6)
H28 H 0.1058 0.3570 0.6583
C46 C 0.14754(10) 0.3855(3) 0.5531(6)
C47 C 0.16425(10) 0.3739(3) 0.5343(6)
H29 H 0.1695 0.3458 0.5423
C48 C 0.17276(10) 0.4003(3) 0.5064(6)
H30 H 0.1836 0.3898 0.4937
C49 C 0.16673(9) 0.4431(3) 0.4945(6)
C50 C 0.15070(10) 0.4575(3) 0.5134(6)
H31 H 0.1463 0.4869 0.5067
C51 C 0.14095(11) 0.4292(3) 0.5422(6)
H32 H 0.1299 0.4393 0.5544
C52 C 0.0695 0.3512 0.7603
H33 H 0.0667 0.3431 0.7302
C53 C 0.0659(3) 0.3966(7) 0.8243(8)
H34 H 0.0778 0.3829 0.8271
H35 H 0.0585 0.3872 0.8497
H36 H 0.0671 0.4295 0.8242
C54 C 0.0418(4) 0.3923(16) 0.7635(18)
H37 H 0.0411 0.3750 0.7354
H38 H 0.0412 0.4246 0.7568
H39 H 0.0319 0.3838 0.7832
N1 N 0.17605(8) 0.4701(3) 0.4639(6)
N2 N 0.08294(6) 0.14108(17) 0.6398(5)
N3 N 0.08697(7) 0.00857(18) 0.5270(6)
N4 N 0.06775(9) 0.0165(2) 0.4721(6)
N5 N 0.06621(9) 0.0513(2) 0.5013(6)
N6 N 0.10035(7) -0.0109(2) 0.5543(6)
H40 H 0.1034 0.0020 0.5797
H41 H 0.1056 -0.0361 0.5458
N7 N 0.09799(10) -0.1285(3) 0.4218(6)
N8 N 0.05823(15) 0.3827(3) 0.7851(7)
O1 O 0.09452(6) 0.65327(16) 0.2355(5)
O2 O 0.10817(6) 0.71348(14) 0.2650(5)
O3 O 0.09775(7) 0.28696(18) 0.6998(5)
O4 O 0.10563(6) 0.22745(16) 0.6574(5)
O5 O 0.31377(6) 0.53271(17) 0.4357(6)
O6 O 0.31670(6) 0.49660(19) 0.4990(5)
O7 O 0.08297(11) 0.3351(2) 0.7797(6)
Zn1 Zn 0.087334(9) 0.19071(2) 0.6855(5)
Zn2 Zn 0.093027(9) 0.27147(3) 0.7679(5)
C55 C 0.12087(9) -0.6629(3) 0.8036(6)
C56 C 0.13223(9) -0.6306(2) 0.7773(6)
C57 C 0.13804(10) -0.6433(3) 0.7350(6)
H42 H 0.1349 -0.6719 0.7228
C58 C 0.14878(10) -0.6130(3) 0.7104(6)
H43 H 0.1528 -0.6209 0.6811
C59 C 0.15353(10) -0.5719(3) 0.7285(6)
C60 C 0.14833(9) -0.5599(3) 0.7709(6)
H44 H 0.1523 -0.5322 0.7836
C61 C 0.13693(9) -0.5890(2) 0.7961(6)
H45 H 0.1327 -0.5804 0.8249
C62 C 0.16456(9) -0.5390(3) 0.7016(6)
C63 C 0.16129(10) -0.5334(3) 0.6547(6)
H46 H 0.1522 -0.5504 0.6401
C64 C 0.17122(10) -0.5038(3) 0.6315(6)
H47 H 0.1690 -0.4994 0.6004
C65 C 0.18462(9) -0.4795(3) 0.6524(6)
C66 C 0.18843(11) -0.4853(3) 0.6966(7)
H48 H 0.1981 -0.4692 0.7095
C67 C 0.17868(9) -0.5137(3) 0.7230(6)
H49 H 0.1811 -0.5167 0.7542
C68 C 0.11905(13) -0.2394(3) 0.4432(6)
C69 C 0.13077(9) -0.2701(2) 0.4711(6)
C70 C 0.14728(10) -0.2767(3) 0.4579(6)
H50 H 0.1515 -0.2634 0.4309
C71 C 0.15908(9) -0.3047(3) 0.4855(6)
H51 H 0.1712 -0.3080 0.4771
C72 C 0.15321(9) -0.3251(2) 0.5211(6)
C73 C 0.13487(11) -0.3195(3) 0.5344(6)
H52 H 0.1303 -0.3336 0.5607
C74 C 0.12423(10) -0.2929(3) 0.5075(6)
H53 H 0.1119 -0.2902 0.5145
C75 C 0.16540(10) -0.3558(3) 0.5490(6)
C76 C 0.17929(10) -0.3766(3) 0.5316(6)
H54 H 0.1827 -0.3690 0.5018
C77 C 0.18929(10) -0.4093(3) 0.5541(6)
H55 H 0.1980 -0.4271 0.5389
C78 C 0.18601(10) -0.4144(3) 0.5987(6)
C79 C 0.17163(13) -0.3903(4) 0.6198(6)
H56 H 0.1692 -0.3954 0.6507
C80 C 0.16187(11) -0.3616(4) 0.5975(6)
H57 H 0.1527 -0.3450 0.6120
C81 C 0.32510(9) -0.5169(3) 0.6055(6)
C82 C 0.30561(9) -0.5035(3) 0.6083(6)
C83 C 0.29394(11) -0.5318(3) 0.6309(6)
H58 H 0.2981 -0.5584 0.6453
C84 C 0.27588(10) -0.5203(3) 0.6319(6)
H59 H 0.2677 -0.5396 0.6470
C85 C 0.26979(10) -0.4827(3) 0.6122(6)
C86 C 0.28120(9) -0.4538(2) 0.5898(6)
H60 H 0.2766 -0.4274 0.5758
C87 C 0.30027(10) -0.4638(3) 0.5877(6)
H61 H 0.3085 -0.4443 0.5731
C88 C 0.25016(11) -0.4716(3) 0.6139(6)
C89 C 0.23813(11) -0.5074(3) 0.6221(6)
H62 H 0.2425 -0.5372 0.6264
C90 C 0.22017(10) -0.4993(3) 0.6240(6)
H63 H 0.2121 -0.5236 0.6285
C91 C 0.21373(10) -0.4552(3) 0.6193(6)
C92 C 0.22505(11) -0.4211(4) 0.6117(7)
H64 H 0.2205 -0.3913 0.6087
C93 C 0.24397(11) -0.4285(3) 0.6081(6)
H65 H 0.2519 -0.4043 0.6018
N9 N 0.19508(8) -0.4461(3) 0.6252(6)
O8 O 0.33551(6) -0.49567(19) 0.5803(5)
O9 O 0.32948(6) -0.5494(2) 0.6308(6)
O10 O 0.11776(7) -0.70104(17) 0.7872(6)
O11 O 0.11601(7) -0.64917(18) 0.8410(6)
O12 O 0.12407(6) -0.22292(16) 0.4090(5)
O13 O 0.10249(6) -0.2317(2) 0.4606(6)
Zn3 Zn 0.104480(9) -0.18527(3) 0.3877(5)
O1D O 0.09452(6) 0.15327(16) 0.7355(5)
O2D O 0.10817(6) 0.21348(14) 0.7650(5)
O5O O 0.06377(6) 0.21729(17) 0.6857(6)
O6O O 0.06670(6) 0.25340(19) 0.7490(5)
Zn1D Zn 0.087334(9) 0.69071(2) 0.1855(5)
Zn1G Zn 0.337334(9) 0.55929(2) 0.4355(5)
Zn2_2 Zn 0.093027(9) -0.72853(3) 0.7679(5)
Zn2D Zn 0.093027(9) 0.77147(3) 0.2679(5)
Zn2G Zn 0.343027(9) -0.52147(3) 0.5179(5)
Zn2G_2 Zn 0.343027(9) 0.47853(3) 0.5179(5)
O8O O 0.08551(6) 0.24567(19) 0.8303(5)
O9K O 0.07948(6) -0.2006(2) 0.3808(6)
O10_2 O 0.11776(7) 0.29896(17) 0.7872(6)
O11D O 0.11601(7) -0.14917(18) 0.3410(6)
Zn3C Zn 0.354480(9) -0.56473(3) 0.6377(5)
Zn3D Zn 0.104480(9) -0.68527(3) 0.8877(5)
loop_
_geom_bond_atom_site_label_1
_geom_bond_atom_site_label_2
_geom_bond_site_symmetry_1
_geom_bond_site_symmetry_2
C1 H1 1_555 1_555
C2 H2 1_555 1_555
C3 C10 1_555 1_555
C4 C1 1_555 1_555
H3 C4 1_555 1_555
C5 H4 1_555 1_555
C6 C1 1_555 1_555
C7 C6 1_555 1_555
C8 C22 1_555 1_555
C9 C5 1_555 1_555
H5 C9 1_555 1_555
C10 H6 1_555 1_555
C11 C2 1_555 1_555
H7 C11 1_555 1_555
C12 H8 1_555 1_555
C13 C14 1_555 1_555
C14 C15 1_555 1_555
C15 H9 1_555 1_555
C16 C15 1_555 1_555
H10 C16 1_555 1_555
C17 C3 1_555 1_555
C18 C17 1_555 1_555
H11 C18 1_555 1_555
C19 C14 1_555 1_555
H12 C19 1_555 1_555
C20 C21 1_555 1_555
C21 C12 1_555 1_555
H13 C21 1_555 1_555
C22 C10 1_555 1_555
H14 C22 1_555 1_555
C23 C20 1_555 1_555
H15 C23 1_555 1_555
C24 C8 1_555 1_555
H16 C24 1_555 1_555
C25 C3 1_555 1_555
H17 C25 1_555 1_555
C26 C27 1_555 1_555
C27 C28 1_555 1_555
C28 H18 1_555 1_555
C29 C28 1_555 1_555
H19 C29 1_555 1_555
C30 C29 1_555 1_555
C31 C30 1_555 1_555
H20 C31 1_555 1_555
C32 C27 1_555 1_555
H21 C32 1_555 1_555
C33 C9 1_555 1_555
C34 C33 1_555 1_555
H22 C34 1_555 1_555
C35 C34 1_555 1_555
H23 C35 1_555 1_555
C36 C5 1_555 1_555
C37 C23 1_555 1_555
H24 C37 1_555 1_555
C38 C20 1_555 1_555
C39 C40 1_555 1_555
C40 C41 1_555 1_555
C41 H25 1_555 1_555
C42 C41 1_555 1_555
H26 C42 1_555 1_555
C43 C42 1_555 1_555
C44 C43 1_555 1_555
H27 C44 1_555 1_555
C45 C40 1_555 1_555
H28 C45 1_555 1_555
C46 C43 1_555 1_555
C47 C46 1_555 1_555
H29 C47 1_555 1_555
C48 C47 1_555 1_555
H30 C48 1_555 1_555
C49 C48 1_555 1_555
C50 C49 1_555 1_555
H31 C50 1_555 1_555
C51 C46 1_555 1_555
H32 C51 1_555 1_555
C52 H33 1_555 1_555
C53 H34 1_555 1_555
H35 C53 1_555 1_555
H36 C53 1_555 1_555
C54 H37 1_555 1_555
H38 C54 1_555 1_555
H39 C54 1_555 1_555
N1 C8 1_555 1_555
N2 C12 1_555 1_555
N3 C7 1_555 1_555
N4 C7 1_555 1_555
N5 C38 1_555 1_555
N6 N3 1_555 1_555
H40 N6 1_555 1_555
H41 N6 1_555 1_555
N7 C2 1_555 1_555
N8 C52 1_555 1_555
O1 C13 1_555 1_555
O2 C13 1_555 1_555
O3 C39 1_555 1_555
O4 C39 1_555 1_555
O5 C26 1_555 1_555
O6 C26 1_555 1_555
O7 C52 1_555 1_555
Zn1 N2 1_555 1_555
Zn2 O3 1_555 1_555
C55 C56 1_555 1_555
C56 C57 1_555 1_555
C57 H42 1_555 1_555
C58 C57 1_555 1_555
H43 C58 1_555 1_555
C59 C58 1_555 1_555
C60 C59 1_555 1_555
H44 C60 1_555 1_555
C61 C56 1_555 1_555
H45 C61 1_555 1_555
C62 C59 1_555 1_555
C63 C62 1_555 1_555
H46 C63 1_555 1_555
C64 C63 1_555 1_555
H47 C64 1_555 1_555
C65 C64 1_555 1_555
C66 C65 1_555 1_555
H48 C66 1_555 1_555
C67 C62 1_555 1_555
H49 C67 1_555 1_555
C68 C69 1_555 1_555
C69 C70 1_555 1_555
C70 H50 1_555 1_555
C71 C70 1_555 1_555
H51 C71 1_555 1_555
C72 C71 1_555 1_555
C73 C72 1_555 1_555
H52 C73 1_555 1_555
C74 C69 1_555 1_555
H53 C74 1_555 1_555
C75 C72 1_555 1_555
C76 C75 1_555 1_555
H54 C76 1_555 1_555
C77 C76 1_555 1_555
H55 C77 1_555 1_555
C78 C77 1_555 1_555
C79 C78 1_555 1_555
H56 C79 1_555 1_555
C80 C75 1_555 1_555
H57 C80 1_555 1_555
C81 C82 1_555 1_555
C82 C83 1_555 1_555
C83 H58 1_555 1_555
C84 C83 1_555 1_555
H59 C84 1_555 1_555
C85 C84 1_555 1_555
C86 C85 1_555 1_555
H60 C86 1_555 1_555
C87 C82 1_555 1_555
H61 C87 1_555 1_555
C88 C85 1_555 1_555
C89 C88 1_555 1_555
H62 C89 1_555 1_555
C90 C89 1_555 1_555
H63 C90 1_555 1_555
C91 C90 1_555 1_555
C92 C91 1_555 1_555
H64 C92 1_555 1_555
C93 C88 1_555 1_555
H65 C93 1_555 1_555
N9 C65 1_555 1_555
O8 C81 1_555 1_555
O9 C81 1_555 1_555
O10 C55 1_555 1_555
O11 C55 1_555 1_555
O12 C68 1_555 1_555
O13 C68 1_555 1_555
Zn3 N7 1_555 1_555
O1D Zn1 1_555 1_555
O2D Zn2 1_555 1_555
O5O Zn1 1_555 1_555
O6O Zn2 1_555 1_555
Zn1D O1 1_555 1_555
Zn1G O5 1_555 1_555
Zn2_2 O10 1_555 1_555
Zn2D O2 1_555 1_555
Zn2G O8 1_555 1_555
Zn2G_2 O6 1_555 1_555
O8O Zn2 1_555 1_555
O9K Zn3 1_555 1_555
O10_2 Zn2 1_555 1_555
O11D Zn3 1_555 1_555
Zn3C O9 1_555 1_555
Zn3D O11 1_555 1_555
C4 N7 1_555 1_555
C6 C11 1_555 1_555
C16 C17 1_555 1_555
C18 C19 1_555 1_555
C24 C25 1_555 1_555
C30 C33 1_555 1_555
C31 C32 1_555 1_555
C35 C36 1_555 1_555
C36 N1 1_555 1_555
C37 N2 1_555 1_555
C38 N3 1_555 1_555
C44 C45 1_555 1_555
C49 N1 1_555 1_555
C50 C51 1_555 1_555
C53 N8 1_555 1_555
C54 N8 1_555 1_555
N4 N5 1_555 1_555
O4 Zn1 1_555 1_555
O7 Zn2 1_555 1_555
C60 C61 1_555 1_555
C66 C67 1_555 1_555
C73 C74 1_555 1_555
C78 N9 1_555 1_555
C79 C80 1_555 1_555
C86 C87 1_555 1_555
C91 N9 1_555 1_555
C92 C93 1_555 1_555
O12 Zn3 1_555 1_555
O13 Zn3 1_555 1_555

#END
