
#######################################################################
#
#                 Cambridge Crystallographic Data Centre
#                                CCDC 
#
#######################################################################
#
# If this CIF has been generated from an entry in the Cambridge 
# Structural Database, then it will include bibliographic, chemical, 
# crystal, experimental, refinement or atomic coordinate data resulting 
# from the CCDC's data processing and validation procedures.
#
#######################################################################

data_ASINAT
_chemical_formula_moiety         '(C93 H65 N9 O13 Zn3)n'
_symmetry_cell_setting           triclinic
_symmetry_space_group_name_H-M   'P -1'
_symmetry_Int_Tables_number      2
_space_group_name_Hall           '-P 1'
loop_
_symmetry_equiv_pos_site_id
_symmetry_equiv_pos_as_xyz
1 x,y,z
2 -x,-y,-z
_cell_length_a                   21.007(4)
_cell_length_b                   21.099(4)
_cell_length_c                   21.240(4)
_cell_angle_alpha                63.477(3)
_cell_angle_beta                 63.691(2)
_cell_angle_gamma                84.660(3)
_cell_volume                     7486.03
loop_
_atom_site_label
_atom_site_type_symbol
_atom_site_fract_x
_atom_site_fract_y
_atom_site_fract_z
Zn1 Zn 0.03820(3) 0.43734(3) 0.33950(3)
O1 O -0.90049(19) 0.4742(2) 1.2172(2)
O2 O -0.90279(18) 0.29558(19) 0.4428(2)
O3 O -0.06586(18) 0.4281(2) 0.3563(2)
O4 O -0.93065(17) 0.3577(2) 1.2879(2)
O5 O -0.05219(19) 0.3862(2) 0.4640(2)
O6 O -0.89039(17) 0.4158(2) 0.3827(2)
N1 N 0.0223(2) 0.7759(2) 0.3588(3)
N2 N 0.0493(2) 1.0181(2) 0.3594(2)
C1 C 0.0109(3) 0.6708(3) 0.3335(3)
C2 C -0.7786(2) 0.3641(3) 0.5615(3)
N3 N -0.0361(2) 0.8477(2) 0.2965(3)
C3 C -0.0024(3) 0.7429(3) 0.3294(3)
N4 N 0.0701(2) 0.7551(2) 0.3918(2)
H1 H 0.0878 0.7849 0.3990
H2 H 0.0817 0.7126 0.4047
N5 N -0.6244(2) 0.3698(3) 0.7225(3)
C4 C -0.8503(2) 0.3591(3) 0.4799(3)
C5 C 0.0156(2) 0.9005(3) 0.3480(3)
C6 C -0.3186(3) 0.3836(3) 0.5625(3)
C7 C -0.7968(3) 0.4265(3) 0.5153(3)
H3 H -0.7858 0.4698 0.5124
N6 N 0.0316(2) 0.5382(2) 0.3349(3)
C8 C -0.7379(3) 0.3655(3) 0.6025(3)
C9 C -0.8985(3) 0.4122(3) 1.2231(3)
C10 C -0.0002(3) 0.8404(3) 0.3360(3)
C11 C -0.7972(2) 0.3004(3) 0.5658(3)
H4 H -0.7845 0.2585 0.5961
N7 N -0.0356(2) 0.7843(3) 0.2920(3)
C12 C -0.0917(3) 0.4031(3) 0.4297(4)
C13 C 0.0257(3) 0.6163(3) 0.3900(3)
H5 H 0.0299 0.6231 0.4283
C14 C -0.7767(3) 0.3877(3) 1.0111(3)
C15 C 0.0341(3) 0.5506(3) 0.3885(3)
H6 H 0.0419 0.5134 0.4283
C16 C -0.3990(3) 0.3786(3) 0.6076(3)
C17 C -0.6619(3) 0.3704(3) 0.6809(3)
C18 C 0.0483(3) 0.9533(3) 0.4078(3)
H7 H 0.0590 0.9466 0.4482
C19 C -0.4372(2) 0.3339(3) 0.6842(3)
H8 H -0.4133 0.3040 0.7117
C20 C -0.2875(3) 0.4035(3) 0.4812(3)
H9 H -0.3168 0.4130 0.4565
C21 C -0.8323(3) 0.4244(3) 0.4726(3)
H10 H -0.8432 0.4662 0.4402
C22 C -0.8840(3) 0.3572(3) 0.4312(3)
C23 C -0.5101(3) 0.4218(3) 0.6064(3)
H11 H -0.5345 0.4519 0.5795
C24 C -0.7351(3) 0.3792(3) 0.9393(3)
C25 C -0.6592(3) 0.3716(3) 0.7962(3)
C26 C -0.2023(3) 0.3712(3) 0.5579(3)
H12 H -0.1740 0.3586 0.5841
C27 C -0.2767(3) 0.3672(3) 0.5999(3)
H13 H -0.2975 0.3532 0.6537
C28 C 0.0172(3) 0.5903(3) 0.2810(4)
H14 H 0.0143 0.5817 0.2430
C29 C -0.2141(3) 0.4093(3) 0.4375(3)
H15 H -0.1936 0.4227 0.3839
C30 C 0.0132(3) 0.9695(3) 0.2951(3)
H16 H 0.0000 0.9769 0.2561
C31 C -0.6433(3) 0.3277(3) 0.6422(3)
H17 H -0.6058 0.3005 0.6421
C32 C -0.6290(3) 0.4085(4) 0.8180(4)
H18 H -0.5829 0.4327 0.7836
C33 C -0.7698(3) 0.4505(3) 1.0129(3)
H19 H -0.7361 0.4875 0.9675
C34 C -0.8562(3) 0.4040(4) 1.1487(3)
C35 C -0.7159(3) 0.4115(3) 0.6784(3)
H20 H -0.7273 0.4407 0.7032
C36 C -0.5464(3) 0.3761(4) 0.6832(3)
C37 C -0.5106(3) 0.3302(3) 0.7242(3)
H21 H -0.5356 0.2979 0.7772
C38 C -0.8243(3) 0.3299(3) 1.0806(3)
H22 H -0.8296 0.2862 1.0814
C39 C 0.0327(3) 0.8930(3) 0.4046(3)
H23 H 0.0340 0.8479 0.4411
C40 C -0.1712(3) 0.3940(3) 0.4775(3)
C41 C -0.8335(3) 0.2964(3) 0.5274(3)
H24 H -0.8465 0.2525 0.5330
C42 C -0.7659(3) 0.3399(3) 0.9192(3)
H25 H -0.8120 0.3157 0.9536
C43 C -0.6822(3) 0.3263(3) 0.6033(3)
H26 H -0.6698 0.2980 0.5774
C44 C -0.6642(3) 0.4107(3) 0.8882(3)
H27 H -0.6408 0.4336 0.9022
C45 C 0.0064(3) 0.6568(3) 0.2780(3)
H28 H -0.0039 0.6920 0.2389
C46 C -0.8642(3) 0.3389(3) 1.1494(3)
H29 H -0.8960 0.3009 1.1955
C47 C -0.4368(3) 0.4244(4) 0.5668(3)
H30 H -0.4120 0.4561 0.5136
C48 C -0.7538(3) 0.4101(3) 0.6395(3)
H31 H -0.7900 0.4389 0.6378
C49 C -0.7279(3) 0.3366(3) 0.8478(3)
H32 H -0.7492 0.3106 0.8349
C50 C -0.8094(3) 0.4629(3) 1.0778(3)
H33 H -0.8055 0.5077 1.0750
C51 C 0.0308(3) 1.0257(4) 0.3030(4)
H34 H 0.0301 1.0717 0.2675
Zn2 Zn -0.89883(3) 0.27385(3) 0.35989(4)
Zn3 Zn -0.91392(3) 0.10995(3) 0.35064(4)
O7 O -1.00124(17) 0.2303(2) 0.4143(2)
O8 O -1.86269(17) 0.1773(2) 0.3756(2)
O9 O -1.89209(18) 0.0610(2) 0.4487(2)
O10 O -1.8629(2) 0.1588(2) 1.2326(2)
O11 O -0.79568(17) 0.3181(2) 0.2782(2)
O12 O -1.00632(18) 0.1484(2) 0.3756(2)
C52 C -1.8618(3) 0.1178(3) 0.4327(3)
C53 C -1.2644(3) 0.1597(3) 0.5311(3)
C54 C -1.8226(3) 0.1195(3) 0.4759(3)
N8 N -1.5711(2) 0.1214(3) 0.6963(3)
C55 C -1.1141(3) 0.1761(3) 0.4536(3)
C56 C -1.7339(3) 0.1770(3) 0.4808(3)
H35 H -1.7008 0.2165 0.4581
C57 C -1.0355(3) 0.1859(3) 0.4115(3)
C58 C -1.6987(3) 0.1309(3) 0.9922(3)
C59 C -1.2287(3) 0.1105(3) 0.5069(4)
H36 H -1.2547 0.0714 0.5159
C60 C -1.2229(3) 0.2184(3) 0.5156(4)
H37 H -1.2456 0.2529 0.5306
C61 C -1.6934(3) 0.1588(4) 0.8624(4)
H38 H -1.7341 0.1815 0.8745
C62 C -1.6980(3) 0.1194(3) 0.5899(3)
C63 C -1.7423(3) 0.1210(3) 0.5503(3)
C64 C -1.1544(3) 0.1185(3) 0.4691(3)
H39 H -1.1314 0.0842 0.4539
C65 C -1.3441(3) 0.1522(3) 0.5716(3)
N9 N -0.6985(2) 0.3340(3) 0.1657(3)
C66 C -1.5728(3) 0.0916(4) 0.8238(3)
H40 H -1.5333 0.0671 0.8125
C67 C -1.4524(3) 0.1792(3) 0.6542(4)
H41 H -1.4746 0.2040 0.6834
C68 C -1.4600(3) 0.0979(3) 0.6075(4)
H42 H -1.4864 0.0680 0.6036
C69 C -1.4937(3) 0.1323(4) 0.6529(3)
C70 C -1.6642(3) 0.1288(3) 0.9158(3)
C71 C -1.8021(3) 0.1427(3) 1.0938(4)
H43 H -1.8503 0.1490 1.1130
C72 C -1.7953(3) 0.0611(3) 0.5874(3)
H44 H -1.8041 0.0233 0.6363
C73 C -1.7661(3) 0.1341(3) 1.1390(3)
C74 C -1.3870(3) 0.1085(3) 0.5682(3)
H45 H -1.3646 0.0852 0.5373
C75 C -1.6130(3) 0.1208(4) 0.6604(3)
C76 C -0.7580(3) 0.2968(4) 0.2298(3)
H46 H -0.7722 0.2519 0.2387
C77 C -1.7721(3) 0.1768(3) 0.4438(3)
H47 H -1.7644 0.2158 0.3961
C78 C -1.7690(3) 0.1419(4) 1.0244(3)
H48 H -1.7948 0.1490 0.9962
C79 C -1.6313(3) 0.1590(3) 0.5480(3)
H49 H -1.6135 0.1860 0.4937
C80 C -1.6042(3) 0.0976(4) 0.8921(3)
H50 H -1.5828 0.0787 0.9256
C81 C -1.6622(3) 0.1549(4) 0.7922(3)
H51 H -1.6828 0.1741 0.7578
C82 C -1.8335(3) 0.0616(3) 0.5474(3)
H52 H -1.8668 0.0225 0.5691
C83 C -1.6021(3) 0.1233(4) 0.7723(3)
O13 O -1.7794(3) 0.1037(3) 1.2654(3)
C84 C -1.5903(3) 0.1607(3) 0.5822(3)
H53 H -1.5463 0.1895 0.5514
C85 C -1.6959(3) 0.1229(4) 1.1072(4)
H54 H -1.6698 0.1159 1.1350
C86 C -1.8026(3) 0.1330(4) 1.2167(4)
C87 C -1.6630(3) 0.1218(4) 1.0360(4)
H55 H -1.6151 0.1146 1.0165
C88 C -1.1497(3) 0.2254(3) 0.4788(3)
H56 H -1.1234 0.2639 0.4705
C89 C -1.6790(3) 0.0768(4) 0.7081(4)
H57 H -1.6941 0.0471 0.7616
C90 C -1.7215(3) 0.0801(4) 0.6701(4)
H58 H -1.7672 0.0546 0.7008
C91 C -1.3813(3) 0.1886(3) 0.6139(3)
H59 H -1.3554 0.2216 0.6145
C92 C -0.6711(4) 0.4048(4) 0.1467(5)
H60 H -0.7065 0.4365 0.1421
H61 H -0.6281 0.4229 0.0977
H62 H -0.6609 0.4014 0.1878
C93 C -0.6573(3) 0.3073(5) 0.1081(4)
H63 H -0.6216 0.2809 0.1213
H64 H -0.6344 0.3469 0.0564
H65 H -0.6889 0.2766 0.1088
Zn1_2 Zn -0.96180(3) 0.43734(3) 0.33950(3)
Zn1_3 Zn -0.96180(3) 0.43734(3) 1.33950(3)
O1_2 O 0.09951(19) 0.4742(2) 0.2172(2)
O4_2 O -0.93065(17) 0.3577(2) 0.2879(2)
O4_3 O 0.06935(17) 0.3577(2) 0.2879(2)
O6_2 O 0.10961(17) 0.4158(2) 0.3827(2)
N2_2 N -0.9507(2) 0.0181(2) 0.3594(2)
Zn2_2 Zn -1.89883(3) 0.27385(3) 0.35989(4)
Zn2_3 Zn -0.89883(3) 0.27385(3) 1.35989(4)
Zn3_2 Zn -1.91392(3) 0.10995(3) 0.35064(4)
Zn3_3 Zn -1.91392(3) 0.10995(3) 1.35064(4)
Zn3_4 Zn 0.08608(3) 1.10995(3) 0.35064(4)
O8_2 O -0.86269(17) 0.1773(2) 0.3756(2)
O9_2 O -0.89209(18) 0.0610(2) 0.4487(2)
O10_2 O -0.8629(2) 0.1588(2) 0.2326(2)
loop_
_geom_bond_atom_site_label_1
_geom_bond_atom_site_label_2
_geom_bond_site_symmetry_1
_geom_bond_site_symmetry_2
Zn1 O3 1_555 1_555
O1 C9 1_555 1_555
O2 C22 1_555 1_555
O3 C12 1_555 1_555
O4 C9 1_555 1_555
O5 Zn1 1_555 1_555
O6 C22 1_555 1_555
N1 C3 1_555 1_555
N2 C18 1_555 1_555
C1 C3 1_555 1_555
C2 C7 1_555 1_555
N3 C10 1_555 1_555
C3 N7 1_555 1_555
N4 N1 1_555 1_555
H1 N4 1_555 1_555
H2 N4 1_555 1_555
N5 C17 1_555 1_555
C4 C21 1_555 1_555
C5 C10 1_555 1_555
C6 C16 1_555 1_555
C7 H3 1_555 1_555
N6 Zn1 1_555 1_555
C8 C2 1_555 1_555
C9 C34 1_555 1_555
C10 N1 1_555 1_555
C11 C2 1_555 1_555
H4 C11 1_555 1_555
N7 N3 1_555 1_555
C12 O5 1_555 1_555
C13 C1 1_555 1_555
H5 C13 1_555 1_555
C14 C24 1_555 1_555
C15 N6 1_555 1_555
H6 C15 1_555 1_555
C16 C19 1_555 1_555
C17 C31 1_555 1_555
C18 H7 1_555 1_555
C19 H8 1_555 1_555
C20 C6 1_555 1_555
H9 C20 1_555 1_555
C21 C7 1_555 1_555
H10 C21 1_555 1_555
C22 C4 1_555 1_555
C23 H11 1_555 1_555
C24 C42 1_555 1_555
C25 N5 1_555 1_555
C26 H12 1_555 1_555
C27 C6 1_555 1_555
H13 C27 1_555 1_555
C28 N6 1_555 1_555
H14 C28 1_555 1_555
C29 C20 1_555 1_555
H15 C29 1_555 1_555
C30 C5 1_555 1_555
H16 C30 1_555 1_555
C31 H17 1_555 1_555
C32 C25 1_555 1_555
H18 C32 1_555 1_555
C33 C14 1_555 1_555
H19 C33 1_555 1_555
C34 C46 1_555 1_555
C35 C17 1_555 1_555
H20 C35 1_555 1_555
C36 N5 1_555 1_555
C37 C19 1_555 1_555
H21 C37 1_555 1_555
C38 C14 1_555 1_555
H22 C38 1_555 1_555
C39 C5 1_555 1_555
H23 C39 1_555 1_555
C40 C12 1_555 1_555
C41 C4 1_555 1_555
H24 C41 1_555 1_555
C42 H25 1_555 1_555
C43 C8 1_555 1_555
H26 C43 1_555 1_555
C44 C24 1_555 1_555
H27 C44 1_555 1_555
C45 C1 1_555 1_555
H28 C45 1_555 1_555
C46 C38 1_555 1_555
H29 C46 1_555 1_555
C47 C16 1_555 1_555
H30 C47 1_555 1_555
C48 C8 1_555 1_555
H31 C48 1_555 1_555
C49 C25 1_555 1_555
H32 C49 1_555 1_555
C50 C33 1_555 1_555
H33 C50 1_555 1_555
C51 N2 1_555 1_555
H34 C51 1_555 1_555
Zn2 O2 1_555 1_555
Zn3 O12 1_555 1_555
O7 Zn2 1_555 1_555
O8 C52 1_555 1_555
O9 C52 1_555 1_555
O10 C86 1_555 1_555
O11 Zn2 1_555 1_555
O12 C57 1_555 1_555
C52 C54 1_555 1_555
C53 C59 1_555 1_555
C54 C77 1_555 1_555
N8 C69 1_555 1_555
C55 C57 1_555 1_555
C56 H35 1_555 1_555
C57 O7 1_555 1_555
C58 C70 1_555 1_555
C59 H36 1_555 1_555
C60 C53 1_555 1_555
H37 C60 1_555 1_555
C61 H38 1_555 1_555
C62 C63 1_555 1_555
C63 C56 1_555 1_555
C64 C55 1_555 1_555
H39 C64 1_555 1_555
C65 C53 1_555 1_555
N9 C76 1_555 1_555
C66 H40 1_555 1_555
C67 H41 1_555 1_555
C68 H42 1_555 1_555
C69 C67 1_555 1_555
C70 C61 1_555 1_555
C71 H43 1_555 1_555
C72 C63 1_555 1_555
H44 C72 1_555 1_555
C73 C71 1_555 1_555
C74 C65 1_555 1_555
H45 C74 1_555 1_555
C75 N8 1_555 1_555
C76 O11 1_555 1_555
H46 C76 1_555 1_555
C77 C56 1_555 1_555
H47 C77 1_555 1_555
C78 C58 1_555 1_555
H48 C78 1_555 1_555
C79 C62 1_555 1_555
H49 C79 1_555 1_555
C80 C66 1_555 1_555
H50 C80 1_555 1_555
C81 C61 1_555 1_555
H51 C81 1_555 1_555
C82 C54 1_555 1_555
H52 C82 1_555 1_555
C83 N8 1_555 1_555
O13 C86 1_555 1_555
C84 C75 1_555 1_555
H53 C84 1_555 1_555
C85 C73 1_555 1_555
H54 C85 1_555 1_555
C86 C73 1_555 1_555
C87 C58 1_555 1_555
H55 C87 1_555 1_555
C88 C55 1_555 1_555
H56 C88 1_555 1_555
C89 C75 1_555 1_555
H57 C89 1_555 1_555
C90 C62 1_555 1_555
H58 C90 1_555 1_555
C91 C65 1_555 1_555
H59 C91 1_555 1_555
C92 N9 1_555 1_555
H60 C92 1_555 1_555
H61 C92 1_555 1_555
H62 C92 1_555 1_555
C93 N9 1_555 1_555
H63 C93 1_555 1_555
H64 C93 1_555 1_555
H65 C93 1_555 1_555
Zn1_2 O6 1_555 1_555
Zn1_3 O1 1_555 1_555
O1_2 Zn1 1_555 1_555
O4_2 Zn2 1_555 1_555
O4_3 Zn1 1_555 1_555
O6_2 Zn1 1_555 1_555
N2_2 Zn3 1_555 1_555
Zn2_2 O8 1_555 1_555
Zn2_3 O4 1_555 1_555
Zn3_2 O8 1_555 1_555
Zn3_3 O10 1_555 1_555
Zn3_4 N2 1_555 1_555
O8_2 Zn2 1_555 1_555
O9_2 Zn3 1_555 1_555
O10_2 Zn3 1_555 1_555
O4 Zn1_3 1_555 1_555
C11 C41 1_555 1_555
C13 C15 1_555 1_555
C18 C39 1_555 1_555
C23 C36 1_555 1_555
C23 C47 1_555 1_555
C26 C27 1_555 1_555
C26 C40 1_555 1_555
C28 C45 1_555 1_555
C29 C40 1_555 1_555
C30 C51 1_555 1_555
C31 C43 1_555 1_555
C32 C44 1_555 1_555
C34 C50 1_555 1_555
C35 C48 1_555 1_555
C36 C37 1_555 1_555
C42 C49 1_555 1_555
Zn3 O8_2 1_555 1_555
O9 Zn3_2 1_555 1_555
C59 C64 1_555 1_555
C60 C88 1_555 1_555
C66 C83 1_555 1_555
C67 C91 1_555 1_555
C68 C69 1_555 1_555
C68 C74 1_555 1_555
C70 C80 1_555 1_555
C71 C78 1_555 1_555
C72 C82 1_555 1_555
C79 C84 1_555 1_555
C81 C83 1_555 1_555
C85 C87 1_555 1_555
C89 C90 1_555 1_555
Zn1_2 O4_2 1_555 1_555

#END
