
#######################################################################
#
#                 Cambridge Crystallographic Data Centre
#                                CCDC 
#
#######################################################################
#
# If this CIF has been generated from an entry in the Cambridge 
# Structural Database, then it will include bibliographic, chemical, 
# crystal, experimental, refinement or atomic coordinate data resulting 
# from the CCDC's data processing and validation procedures.
#
#######################################################################

data_OCUQOT
_chemical_formula_moiety         '(C10 H30 N2 O19 P4 V4)n'
_symmetry_cell_setting           monoclinic
_symmetry_space_group_name_H-M   'C 2/c'
_symmetry_Int_Tables_number      15
_space_group_name_Hall           '-C 2yc'
loop_
_symmetry_equiv_pos_site_id
_symmetry_equiv_pos_as_xyz
1 x,y,z
2 1/2+x,1/2+y,z
3 -x,y,1/2-z
4 1/2-x,1/2+y,1/2-z
5 -x,-y,-z
6 1/2-x,1/2-y,-z
7 x,-y,1/2+z
8 1/2+x,1/2-y,1/2+z
_cell_length_a                   15.2003(11)
_cell_length_b                   10.2122(7)
_cell_length_c                   18.5903(13)
_cell_angle_alpha                90
_cell_angle_beta                 103.5300(10)
_cell_angle_gamma                90
_cell_volume                     2805.66
loop_
_atom_site_label
_atom_site_type_symbol
_atom_site_fract_x
_atom_site_fract_y
_atom_site_fract_z
_atom_site_U_iso_or_equiv
_atom_site_thermal_displace_type
V1 V 0.16025(4) 0.38417(6) 0.08394(3) 0.0119 Uani
V2 V 0.24790(4) 0.45352(6) 0.28394(3) 0.0117 Uani
P1 P 0.21364(6) 0.37837(9) -0.07779(5) 0.0111 Uani
P2 P -0.16343(6) 0.33134(9) -0.16428(5) 0.0108 Uani
O1 O 0.21142(19) 0.4257(3) -0.00013(14) 0.0158 Uani
O2 O -0.17471(19) 0.4270(3) -0.10387(14) 0.0158 Uani
O3 O 0.0539(2) 0.3647(3) 0.05904(18) 0.0241 Uani
O4 O 0.2025(3) 0.3566(3) 0.19155(17) 0.0260 Uani
O5 O 0.29814(18) 0.2992(3) -0.07841(15) 0.0163 Uani
O6 O 0.20981(19) 0.5014(3) -0.12580(14) 0.0154 Uani
O7 O -0.23296(18) 0.2219(3) -0.16968(15) 0.0164 Uani
O8 O 0.3474(2) 0.5052(3) 0.2862(2) 0.0291 Uani
O9 O -0.17159(18) 0.3994(3) -0.23887(14) 0.0149 Uani
C1 C 0.1160(2) 0.2790(4) -0.1123(2) 0.0139 Uani
H1 H 0.1140 0.2091 -0.0758 0.0170 Uiso
H2 H 0.1224 0.2363 -0.1586 0.0170 Uiso
C2 C -0.0532(3) 0.2589(4) -0.1401(2) 0.0162 Uani
H3 H -0.0476 0.1972 -0.1799 0.0190 Uiso
H4 H -0.0483 0.2071 -0.0944 0.0190 Uiso
C3 C 0.0263(3) 0.3535(4) -0.1278(2) 0.0160 Uani
H5 H 0.0213 0.4089 -0.1723 0.0190 Uiso
H6 H 0.0248 0.4115 -0.0855 0.0190 Uiso
H14 H 0.214(4) 0.294(6) 0.196(3) 0.0190 Uiso
V1D V -0.16025(4) 0.61583(6) -0.08394(3) 0.0119 Uani
V1E V 0.33975(4) 0.11583(6) -0.08394(3) 0.0119 Uani
V1A V -0.33975(4) 0.88417(6) 0.08394(3) 0.0119 Uani
V2F V 0.24790(4) 0.54648(6) -0.21606(3) 0.0117 Uani
V2G V -0.25210(4) 0.04648(6) -0.21606(3) 0.0117 Uani
V2D V -0.24790(4) 0.54648(6) -0.28394(3) 0.0117 Uani
V2B V -0.24790(4) 0.45352(6) 0.21606(3) 0.0117 Uani
V2C V 0.25210(4) 0.95352(6) 0.21606(3) 0.0117 Uani
P1D P -0.21364(6) 0.62163(9) 0.07779(5) 0.0111 Uani
P2D P 0.16343(6) 0.66866(9) 0.16428(5) 0.0108 Uani
O1D O -0.21142(19) 0.5743(3) 0.00013(14) 0.0158 Uani
O2D O 0.17471(19) 0.5730(3) 0.10387(14) 0.0158 Uani
O3D O -0.0539(2) 0.6353(3) -0.05904(18) 0.0241 Uani
O4D O -0.2025(3) 0.6434(3) -0.19155(17) 0.0260 Uani
O4F O 0.2025(3) 0.6434(3) -0.30845(17) 0.0260 Uani
O5D O -0.29814(18) 0.7008(3) 0.07841(15) 0.0163 Uani
O5E O 0.20186(18) 0.2008(3) 0.07841(15) 0.0163 Uani
O5A O -0.20186(18) 0.7992(3) -0.07841(15) 0.0163 Uani
O6D O -0.20981(19) 0.4986(3) 0.12580(14) 0.0154 Uani
O6F O 0.20981(19) 0.4986(3) 0.37420(14) 0.0154 Uani
O7D O 0.23296(18) 0.7781(3) 0.16968(15) 0.0164 Uani
O7G O 0.26704(18) 0.2781(3) 0.33032(15) 0.0164 Uani
O7A O 0.26704(18) 0.7219(3) -0.16968(15) 0.0164 Uani
O8F O 0.3474(2) 0.4948(3) -0.2138(2) 0.0291 Uani
O9D O 0.17159(18) 0.6006(3) 0.23887(14) 0.0149 Uani
O9B O 0.17159(18) 0.3994(3) -0.26113(14) 0.0149 Uani
C1D C -0.1160(2) 0.7210(4) 0.1123(2) 0.0139 Uani
H1D H -0.1140 0.7909 0.0758 0.0170 Uiso
H2D H -0.1224 0.7637 0.1586 0.0170 Uiso
C2D C 0.0532(3) 0.7411(4) 0.1401(2) 0.0162 Uani
H3D H 0.0476 0.8028 0.1799 0.0190 Uiso
H4D H 0.0483 0.7929 0.0944 0.0190 Uiso
C3D C -0.0263(3) 0.6465(4) 0.1278(2) 0.0160 Uani
H5D H -0.0213 0.5911 0.1723 0.0190 Uiso
H6D H -0.0248 0.5885 0.0855 0.0190 Uiso
H14D H -0.214(4) 0.706(6) -0.196(3) 0.0190 Uiso
H14F H 0.214(4) 0.706(6) -0.304(3) 0.0190 Uiso
O11 O 0.8270(10) 0.2940(6) 0.0371(5) 0.1880 Uani
N1 N 0.8937(18) 0.125(3) 0.0823(10) 0.3519 Uani
H7 H 0.8360 0.1210 0.0882 0.5270 Uiso
H8 H 0.9050 0.0535 0.0566 0.5270 Uiso
H9 H 0.9009 0.1989 0.0570 0.5270 Uiso
C4 C 0.9602(9) 0.1272(15) 0.1587(10) 0.1989 Uani
H10 H 0.9519 0.0431 0.1828 0.2370 Uiso
H11 H 1.0216 0.1246 0.1493 0.2370 Uiso
C5 C 0.9624(5) 0.2341(7) 0.2173(4) 0.0620 Uani
H12 H 0.9620 0.3201 0.1926 0.0740 Uiso
H13 H 0.9055 0.2278 0.2343 0.0740 Uiso
N1B N 1.1063(18) 0.125(3) 0.4177(10) 0.3519 Uani
H7B H 1.1640 0.1210 0.4118 0.5270 Uiso
H8B H 1.0950 0.0535 0.4434 0.5270 Uiso
H9B H 1.0991 0.1989 0.4430 0.5270 Uiso
C4B C 1.0398(9) 0.1272(15) 0.3413(10) 0.1989 Uani
H10B H 1.0481 0.0431 0.3172 0.2370 Uiso
H11B H 0.9784 0.1246 0.3507 0.2370 Uiso
C5B C 1.0376(5) 0.2341(7) 0.2827(4) 0.0620 Uani
H12B H 1.0380 0.3201 0.3074 0.0740 Uiso
H13B H 1.0945 0.2278 0.2657 0.0740 Uiso
loop_
_atom_site_aniso_label
_atom_site_aniso_U_11
_atom_site_aniso_U_22
_atom_site_aniso_U_33
_atom_site_aniso_U_23
_atom_site_aniso_U_13
_atom_site_aniso_U_12
V1 0.0141 0.0136 0.0092 -0.0014 0.005 0.0016
V2 0.0131 0.0134 0.0098 0.0028 0.0048 0.0022
P1 0.0148 0.0115 0.0071 -0.0007 0.003 0.0012
P2 0.0133 0.0115 0.0074 -0.0006 0.0022 0.0005
O1 0.0216 0.018 0.009 -0.0013 0.0059 -0.0015
O2 0.0266 0.0132 0.009 -0.0014 0.0067 -0.0005
O3 0.0184 0.0246 0.0314 -0.0075 0.0098 0.0002
O4 0.053 0.0152 0.0103 -0.0001 0.0082 0.0078
O5 0.0168 0.0172 0.0156 0 0.0054 0.0034
O6 0.0246 0.0122 0.0108 0.0002 0.0072 0.0021
O7 0.018 0.0147 0.018 -0.0047 0.0075 -0.0031
O8 0.0188 0.0285 0.0424 0.0182 0.0121 0.0029
O9 0.0201 0.0169 0.0083 0.002 0.0045 0.0067
C1 0.0152 0.0114 0.0145 -0.003 0.0024 0.0007
C2 0.0168 0.012 0.0179 0.0019 0.0002 0.0015
C3 0.0183 0.013 0.0147 0.0004 -0.0003 0.0017
V1D 0.0141 0.0136 0.0092 -0.0014 0.005 0.0016
V1E 0.0141 0.0136 0.0092 -0.0014 0.005 0.0016
V1A 0.0141 0.0136 0.0092 -0.0014 0.005 0.0016
V2F 0.0131 0.0134 0.0098 -0.0028 0.0048 -0.0022
V2G 0.0131 0.0134 0.0098 -0.0028 0.0048 -0.0022
V2D 0.0131 0.0134 0.0098 0.0028 0.0048 0.0022
V2B 0.0131 0.0134 0.0098 -0.0028 0.0048 -0.0022
V2C 0.0131 0.0134 0.0098 -0.0028 0.0048 -0.0022
P1D 0.0148 0.0115 0.0071 -0.0007 0.003 0.0012
P2D 0.0133 0.0115 0.0074 -0.0006 0.0022 0.0005
O1D 0.0216 0.018 0.009 -0.0013 0.0059 -0.0015
O2D 0.0266 0.0132 0.009 -0.0014 0.0067 -0.0005
O3D 0.0184 0.0246 0.0314 -0.0075 0.0098 0.0002
O4D 0.053 0.0152 0.0103 -0.0001 0.0082 0.0078
O4F 0.053 0.0152 0.0103 0.0001 0.0082 -0.0078
O5D 0.0168 0.0172 0.0156 0 0.0054 0.0034
O5E 0.0168 0.0172 0.0156 0 0.0054 0.0034
O5A 0.0168 0.0172 0.0156 0 0.0054 0.0034
O6D 0.0246 0.0122 0.0108 0.0002 0.0072 0.0021
O6F 0.0246 0.0122 0.0108 -0.0002 0.0072 -0.0021
O7D 0.018 0.0147 0.018 -0.0047 0.0075 -0.0031
O7G 0.018 0.0147 0.018 0.0047 0.0075 0.0031
O7A 0.018 0.0147 0.018 -0.0047 0.0075 -0.0031
O8F 0.0188 0.0285 0.0424 -0.0182 0.0121 -0.0029
O9D 0.0201 0.0169 0.0083 0.002 0.0045 0.0067
O9B 0.0201 0.0169 0.0083 -0.002 0.0045 -0.0067
C1D 0.0152 0.0114 0.0145 -0.003 0.0024 0.0007
C2D 0.0168 0.012 0.0179 0.0019 0.0002 0.0015
C3D 0.0183 0.013 0.0147 0.0004 -0.0003 0.0017
O11 0.461(18) 0.034(3) 0.140(7) -0.007(4) 0.214(10) -0.012(6)
N1 0.352(14) 0.352(14) 0.352(14) 0.0004(10) 0.083(3) 0.0000(10)
C4 0.084(9) 0.149(13) 0.32(2) -0.158(15) -0.041(12) 0.006(8)
C5 0.077(5) 0.042(3) 0.077(5) -0.001(3) 0.038(4) -0.004(3)
N1B 0.352 0.352 0.352 -0.0004 0.083 0
C4B 0.084 0.149 0.32 0.158 -0.041 -0.006
C5B 0.077 0.042 0.077 0.001 0.038 0.004
loop_
_geom_bond_atom_site_label_1
_geom_bond_atom_site_label_2
_geom_bond_site_symmetry_1
_geom_bond_site_symmetry_2
V1 O1 1_555 1_555
V2 O4 1_555 1_555
P1 O1 1_555 1_555
P2 O2 1_555 1_555
O2 V1D 1_555 1_555
O3 V1 1_555 1_555
O4 V1 1_555 1_555
O5 P1 1_555 1_555
O6 P1 1_555 1_555
O7 P2 1_555 1_555
O8 V2 1_555 1_555
O9 P2 1_555 1_555
C1 P1 1_555 1_555
H1 C1 1_555 1_555
H2 C1 1_555 1_555
C2 P2 1_555 1_555
H3 C2 1_555 1_555
H4 C2 1_555 1_555
C3 C1 1_555 1_555
H5 C3 1_555 1_555
H6 C3 1_555 1_555
N1 H7 1_555 1_555
H8 N1 1_555 1_555
H9 N1 1_555 1_555
C4 N1 1_555 1_555
H10 C4 1_555 1_555
H11 C4 1_555 1_555
C5 C4 1_555 1_555
H12 C5 1_555 1_555
H13 C5 1_555 1_555
H14 O4 1_555 1_555
V1D O1D 1_555 1_555
V1E O5 1_555 1_555
V1A O5D 1_555 1_555
V2F O6 1_555 1_555
V2G O7 1_555 1_555
V2D O9 1_555 1_555
V2B O6D 1_555 1_555
V2C O7D 1_555 1_555
P1D O1D 1_555 1_555
P2D O2D 1_555 1_555
O2D V1 1_555 1_555
O3D V1D 1_555 1_555
O4D V1D 1_555 1_555
O4F V2F 1_555 1_555
O5D P1D 1_555 1_555
O5E V1 1_555 1_555
O5A V1D 1_555 1_555
O6D P1D 1_555 1_555
O6F V2 1_555 1_555
O7D P2D 1_555 1_555
O7G V2 1_555 1_555
O7A V2F 1_555 1_555
O8F V2F 1_555 1_555
O9D V2 1_555 1_555
O9B V2F 1_555 1_555
C1D P1D 1_555 1_555
H1D C1D 1_555 1_555
H2D C1D 1_555 1_555
C2D P2D 1_555 1_555
H3D C2D 1_555 1_555
H4D C2D 1_555 1_555
C3D C1D 1_555 1_555
H5D C3D 1_555 1_555
H6D C3D 1_555 1_555
N1B H7B 1_555 1_555
H8B N1B 1_555 1_555
H9B N1B 1_555 1_555
C4B N1B 1_555 1_555
H10B C4B 1_555 1_555
H11B C4B 1_555 1_555
C5B C5 1_555 1_555
H12B C5B 1_555 1_555
H13B C5B 1_555 1_555
H14D O4D 1_555 1_555
H14F O4F 1_555 1_555
C2 C3 1_555 1_555
V2D O4D 1_555 1_555
P2D O9D 1_555 1_555
C2D C3D 1_555 1_555
C4B C5B 1_555 1_555

#END
