
#######################################################################
#
#                 Cambridge Crystallographic Data Centre
#                                CCDC 
#
#######################################################################
#
# If this CIF has been generated from an entry in the Cambridge 
# Structural Database, then it will include bibliographic, chemical, 
# crystal, experimental, refinement or atomic coordinate data resulting 
# from the CCDC's data processing and validation procedures.
#
#######################################################################

data_OCUQUZ
_chemical_formula_moiety         '(C12 H34 N2 O19 P4 V4 2-)n'
_symmetry_cell_setting           monoclinic
_symmetry_space_group_name_H-M   'C 2/c'
_symmetry_Int_Tables_number      15
_space_group_name_Hall           '-C 2yc'
loop_
_symmetry_equiv_pos_site_id
_symmetry_equiv_pos_as_xyz
1 x,y,z
2 1/2+x,1/2+y,z
3 -x,y,1/2-z
4 1/2-x,1/2+y,1/2-z
5 -x,-y,-z
6 1/2-x,1/2-y,-z
7 x,-y,1/2+z
8 1/2+x,1/2-y,1/2+z
_cell_length_a                   15.712(1)
_cell_length_b                   10.030(1)
_cell_length_c                   18.656(2)
_cell_angle_alpha                90
_cell_angle_beta                 103.328(2)
_cell_angle_gamma                90
_cell_volume                     2860.84
loop_
_atom_site_label
_atom_site_type_symbol
_atom_site_fract_x
_atom_site_fract_y
_atom_site_fract_z
_atom_site_U_iso_or_equiv
_atom_site_thermal_displace_type
V1 V 0.16272(4) 0.11690(5) 0.08371(3) 0.0146 Uani
V2 V -0.24588(4) 0.04224(5) 0.21608(3) 0.0152 Uani
P1 P 0.15956(6) -0.17215(8) 0.16288(4) 0.0152 Uani
P2 P -0.20584(6) -0.12123(8) 0.07898(4) 0.0151 Uani
O2 O -0.20269(17) 0.0005(2) 0.12871(13) 0.0207 Uani
O3 O -0.34031(19) -0.0210(3) 0.20916(18) 0.0351 Uani
O4 O 0.22816(17) -0.2815(2) 0.16835(14) 0.0222 Uani
O5 O 0.16691(18) -0.1013(3) 0.23618(14) 0.0241 Uani
O6 O 0.2109(2) 0.1415(3) 0.19037(15) 0.0296 Uani
O7 O 0.16827(18) -0.0766(2) 0.10163(13) 0.0221 Uani
O8 O 0.05983(18) 0.1473(3) 0.06266(17) 0.0303 Uani
O9 O -0.20081(18) -0.0677(2) 0.00404(13) 0.0222 Uani
O10 O -0.28897(16) -0.2019(2) 0.07550(14) 0.0211 Uani
C1 C 0.0528(2) -0.2480(4) 0.1397(2) 0.0233 Uani
H7 H 0.0479 -0.2995 0.0949 0.0280 Uiso
H8 H 0.0481 -0.3097 0.1786 0.0280 Uiso
C2 C -0.0240(2) -0.1508(4) 0.1283(2) 0.0247 Uani
H9 H -0.0226 -0.0929 0.0870 0.0300 Uiso
H10 H -0.0184 -0.0956 0.1718 0.0300 Uiso
C3 C -0.1122(2) -0.2251(3) 0.1135(2) 0.0225 Uani
H11 H -0.1185 -0.2665 0.1589 0.0270 Uiso
H12 H -0.1112 -0.2957 0.0782 0.0270 Uiso
V1D V -0.16272(4) -0.11690(5) -0.08371(3) 0.0146 Uani
V1A V -0.33728(4) -0.38310(5) 0.08371(3) 0.0146 Uani
V1E V 0.33728(4) 0.38310(5) -0.08371(3) 0.0146 Uani
V1B V -0.16272(4) 0.11690(5) 0.41629(3) 0.0146 Uani
V2D V 0.24588(4) -0.04224(5) -0.21608(3) 0.0152 Uani
V2A V 0.25412(4) -0.45776(5) 0.21608(3) 0.0152 Uani
V2B V 0.24588(4) 0.04224(5) 0.28392(3) 0.0152 Uani
V2E V -0.25412(4) 0.45776(5) -0.21608(3) 0.0152 Uani
V2F V -0.24588(4) -0.04224(5) -0.28392(3) 0.0152 Uani
P1D P -0.15956(6) 0.17215(8) -0.16288(4) 0.0152 Uani
P2D P 0.20584(6) 0.12123(8) -0.07898(4) 0.0151 Uani
O2D O 0.20269(17) -0.0005(2) -0.12871(13) 0.0207 Uani
O3D O 0.34031(19) 0.0210(3) -0.20916(18) 0.0351 Uani
O4D O -0.22816(17) 0.2815(2) -0.16835(14) 0.0222 Uani
O4A O -0.27184(17) 0.2185(2) 0.16835(14) 0.0222 Uani
O4E O 0.27184(17) -0.2185(2) -0.16835(14) 0.0222 Uani
O5D O -0.16691(18) 0.1013(3) -0.23618(14) 0.0241 Uani
O5B O -0.16691(18) -0.1013(3) 0.26382(14) 0.0241 Uani
O5F O 0.16691(18) 0.1013(3) -0.26382(14) 0.0241 Uani
O6B O -0.2109(2) 0.1415(3) 0.30963(15) 0.0296 Uani
O6D O -0.2109(2) -0.1415(3) -0.19037(15) 0.0296 Uani
O6F O 0.2109(2) -0.1415(3) -0.30963(15) 0.0296 Uani
O7D O -0.16827(18) 0.0766(2) -0.10163(13) 0.0221 Uani
O8D O -0.05983(18) -0.1473(3) -0.06266(17) 0.0303 Uani
O9D O 0.20081(18) 0.0677(2) -0.00404(13) 0.0222 Uani
O10D O 0.28897(16) 0.2019(2) -0.07550(14) 0.0211 Uani
O10A O 0.21103(16) 0.2981(2) 0.07550(14) 0.0211 Uani
O10E O -0.21103(16) -0.2981(2) -0.07550(14) 0.0211 Uani
C1D C -0.0528(2) 0.2480(4) -0.1397(2) 0.0233 Uani
H7D H -0.0479 0.2995 -0.0949 0.0280 Uiso
H8D H -0.0481 0.3097 -0.1786 0.0280 Uiso
C2D C 0.0240(2) 0.1508(4) -0.1283(2) 0.0247 Uani
H9D H 0.0226 0.0929 -0.0870 0.0300 Uiso
H10D H 0.0184 0.0956 -0.1718 0.0300 Uiso
C3D C 0.1122(2) 0.2251(3) -0.1135(2) 0.0225 Uani
H11D H 0.1185 0.2665 -0.1589 0.0270 Uiso
H12D H 0.1112 0.2957 -0.0782 0.0270 Uiso
N1 N 0.8388(7) 0.2197(5) 0.0419(4) 0.0712 Uani
H1 H 0.8522 0.1471 0.0697 0.1070 Uiso
H2 H 0.8598 0.2117 0.0017 0.1070 Uiso
H3 H 0.7809 0.2288 0.0289 0.1070 Uiso
C4 C 0.9583(4) 0.2533(5) 0.2184(3) 0.0516 Uani
H13 H 0.9574 0.1714 0.1906 0.0620 Uiso
H14 H 0.9078 0.2516 0.2402 0.0620 Uiso
C5 C 0.9480(7) 0.3645(11) 0.1670(7) 0.0882 Uani
C6 C 0.8797(7) 0.3442(10) 0.0863(6) 0.0423 Uani
H15 H 0.8294 0.3979 0.0899 0.0510 Uiso
H16 H 0.9073 0.3917 0.0525 0.0510 Uiso
H17 H 0.975(3) 0.360(5) 0.138(3) 0.0000 Uiso
H18 H 0.946(7) 0.454(12) 0.184(6) 0.1300 Uiso
N1B N 1.1612(7) 0.2197(5) 0.4581(4) 0.0712 Uani
H1B H 1.1478 0.1471 0.4303 0.1070 Uiso
H2B H 1.1402 0.2117 0.4983 0.1070 Uiso
H3B H 1.2191 0.2288 0.4711 0.1070 Uiso
C4B C 1.0417(4) 0.2533(5) 0.2816(3) 0.0516 Uani
H13B H 1.0426 0.1714 0.3094 0.0620 Uiso
H14B H 1.0922 0.2516 0.2598 0.0620 Uiso
C5B C 1.0520(7) 0.3645(11) 0.3330(7) 0.0882 Uani
C6B C 1.1203(7) 0.3442(10) 0.4137(6) 0.0423 Uani
H15B H 1.1706 0.3979 0.4101 0.0510 Uiso
H16B H 1.0927 0.3917 0.4475 0.0510 Uiso
H17B H 1.025(3) 0.360(5) 0.362(3) 0.0000 Uiso
H18B H 1.054(7) 0.454(12) 0.316(6) 0.1300 Uiso
O1 O 0.0896(8) 0.5117(12) 0.0101(6) 0.0930 Uani
loop_
_atom_site_aniso_label
_atom_site_aniso_U_11
_atom_site_aniso_U_22
_atom_site_aniso_U_33
_atom_site_aniso_U_23
_atom_site_aniso_U_13
_atom_site_aniso_U_12
V1 0.0187(3) 0.0138(3) 0.0124(3) 0.00116(18) 0.0057(2) -0.00002(19)
V2 0.0193 0.0143 0.0128 0.00079 0.0055 0.0004
P1 0.0199(4) 0.0131(4) 0.0123(4) 0.0002(3) 0.0034(3) -0.0007(3)
P2 0.0209 0.0134 0.0119 0.0002 0.0056 -0.0007
O2 0.0323 0.0176 0.0144 -0.0025 0.0102 -0.0031
O3 0.0269 0.0386 0.0405 0.0078 0.0094 -0.0077
O4 0.0226 0.0196 0.0254 0.0054 0.0077 0.0028
O5 0.0350(14) 0.0226(12) 0.0168(12) -0.0052(9) 0.0104(10) -0.0105(11)
O6 0.057(2) 0.0159(14) 0.0147(12) 0.0005(10) 0.0060(12) -0.0091(13)
O7 0.0382(14) 0.0150(11) 0.0144(11) 0.0020(9) 0.0085(10) 0.0020(10)
O8 0.0227(13) 0.0297(14) 0.0397(16) 0.0015(12) 0.0099(12) 0.0014(11)
O9 0.0375 0.0181 0.0138 0.0012 0.0119 0.0007
O10 0.024 0.0169 0.0228 0.0007 0.0061 -0.0034
C1 0.0211(16) 0.0190(16) 0.0285(18) -0.0030(13) 0.0028(14) -0.0017(13)
C2 0.0199(16) 0.0218(17) 0.0303(19) 0.0006(14) 0.0017(14) 0.0010(13)
C3 0.0236 0.0171 0.0259 0.0027 0.0037 0.0011
V1D 0.0187 0.0138 0.0124 0.00116 0.0057 -2e-05
V1A 0.0187 0.0138 0.0124 0.00116 0.0057 -2e-05
V1E 0.0187 0.0138 0.0124 0.00116 0.0057 -2e-05
V1B 0.0187 0.0138 0.0124 -0.00116 0.0057 2e-05
V2D 0.0193 0.0143 0.0128 0.00079 0.0055 0.0004
V2A 0.0193 0.0143 0.0128 0.00079 0.0055 0.0004
V2B 0.0193(3) 0.0143(3) 0.0128(3) -0.00079(19) 0.0055(2) -0.0004(2)
V2E 0.0193 0.0143 0.0128 0.00079 0.0055 0.0004
V2F 0.0193 0.0143 0.0128 -0.00079 0.0055 -0.0004
P1D 0.0199 0.0131 0.0123 0.0002 0.0034 -0.0007
P2D 0.0209 0.0134 0.0119 0.0002 0.0056 -0.0007
O2D 0.0323 0.0176 0.0144 -0.0025 0.0102 -0.0031
O3D 0.0269 0.0386 0.0405 0.0078 0.0094 -0.0077
O4D 0.0226 0.0196 0.0254 0.0054 0.0077 0.0028
O4A 0.0226 0.0196 0.0254 0.0054 0.0077 0.0028
O4E 0.0226 0.0196 0.0254 0.0054 0.0077 0.0028
O5D 0.035 0.0226 0.0168 -0.0052 0.0104 -0.0105
O5B 0.035 0.0226 0.0168 0.0052 0.0104 0.0105
O5F 0.035 0.0226 0.0168 0.0052 0.0104 0.0105
O6B 0.057 0.0159 0.0147 -0.0005 0.006 0.0091
O6D 0.057 0.0159 0.0147 0.0005 0.006 -0.0091
O6F 0.057 0.0159 0.0147 -0.0005 0.006 0.0091
O7D 0.0382 0.015 0.0144 0.002 0.0085 0.002
O8D 0.0227 0.0297 0.0397 0.0015 0.0099 0.0014
O9D 0.0375 0.0181 0.0138 0.0012 0.0119 0.0007
O10D 0.024 0.0169 0.0228 0.0007 0.0061 -0.0034
O10A 0.024 0.0169 0.0228 0.0007 0.0061 -0.0034
O10E 0.024 0.0169 0.0228 0.0007 0.0061 -0.0034
C1D 0.0211 0.019 0.0285 -0.003 0.0028 -0.0017
C2D 0.0199 0.0218 0.0303 0.0006 0.0017 0.001
C3D 0.0236 0.0171 0.0259 0.0027 0.0037 0.0011
N1 0.176(9) 0.012(2) 0.055(4) -0.019(3) 0.087(5) -0.040(4)
C4 0.052(3) 0.040(3) 0.064(4) -0.005(2) 0.016(3) -0.007(2)
C5 0.070(6) 0.067(5) 0.111(8) 0.035(5) -0.013(5) -0.022(4)
C6 0.040(5) 0.033(5) 0.053(6) 0.001(4) 0.009(4) -0.001(4)
N1B 0.176 0.012 0.055 0.019 0.087 0.04
C4B 0.052 0.04 0.064 0.005 0.016 0.007
C5B 0.07 0.067 0.111 -0.035 -0.013 0.022
C6B 0.04 0.033 0.053 -0.001 0.009 0.001
O1 0.091(8) 0.105(8) 0.066(6) -0.021(6) -0.017(5) 0.060(7)
loop_
_geom_bond_atom_site_label_1
_geom_bond_atom_site_label_2
_geom_bond_site_symmetry_1
_geom_bond_site_symmetry_2
V1 O6 1_555 1_555
V2 O2 1_555 1_555
P1 O4 1_555 1_555
P2 O2 1_555 1_555
O3 V2 1_555 1_555
O4 V2A 1_555 1_555
O5 P1 1_555 1_555
O6 V2B 1_555 1_555
O7 V1 1_555 1_555
O8 V1 1_555 1_555
O9 P2 1_555 1_555
O10 P2 1_555 1_555
N1 H1 1_555 1_555
H2 N1 1_555 1_555
H3 N1 1_555 1_555
C1 P1 1_555 1_555
H7 C1 1_555 1_555
H8 C1 1_555 1_555
C2 C1 1_555 1_555
H9 C2 1_555 1_555
H10 C2 1_555 1_555
C3 P2 1_555 1_555
H11 C3 1_555 1_555
H12 C3 1_555 1_555
C4 H13 1_555 1_555
H14 C4 1_555 1_555
C5 C4 1_555 1_555
C6 N1 1_555 1_555
H15 C6 1_555 1_555
H16 C6 1_555 1_555
H17 C5 1_555 1_555
H18 C5 1_555 1_555
V1D O9 1_555 1_555
V1A O10 1_555 1_555
V1E O10D 1_555 1_555
V1B O6B 1_555 1_555
V2D O2D 1_555 1_555
V2B O5 1_555 1_555
V2E O4D 1_555 1_555
V2F O5D 1_555 1_555
P1D O4D 1_555 1_555
P2D O2D 1_555 1_555
O3D V2D 1_555 1_555
O4A V2 1_555 1_555
O4E V2D 1_555 1_555
O5D P1D 1_555 1_555
O5B V2 1_555 1_555
O5F V2D 1_555 1_555
O6B V2 1_555 1_555
O6D V1D 1_555 1_555
O6F V2D 1_555 1_555
O7D V1D 1_555 1_555
O8D V1D 1_555 1_555
O9D V1 1_555 1_555
O10D P2D 1_555 1_555
O10A V1 1_555 1_555
O10E V1D 1_555 1_555
N1B H1B 1_555 1_555
H2B N1B 1_555 1_555
H3B N1B 1_555 1_555
C1D P1D 1_555 1_555
H7D C1D 1_555 1_555
H8D C1D 1_555 1_555
C2D C1D 1_555 1_555
H9D C2D 1_555 1_555
H10D C2D 1_555 1_555
C3D P2D 1_555 1_555
H11D C3D 1_555 1_555
H12D C3D 1_555 1_555
C4B C4 1_555 1_555
H13B C4B 1_555 1_555
H14B C4B 1_555 1_555
C5B C4B 1_555 1_555
C6B N1B 1_555 1_555
H15B C6B 1_555 1_555
H16B C6B 1_555 1_555
H17B C5B 1_555 1_555
H18B C5B 1_555 1_555
P1 O7 1_555 1_555
C2 C3 1_555 1_555
C5 C6 1_555 1_555
V2F O6D 1_555 1_555
P1D O7D 1_555 1_555
P2D O9D 1_555 1_555
C2D C3D 1_555 1_555
C5B C6B 1_555 1_555

#END
