
#######################################################################
#
#                 Cambridge Crystallographic Data Centre
#                                CCDC 
#
#######################################################################
#
# If this CIF has been generated from an entry in the Cambridge 
# Structural Database, then it will include bibliographic, chemical, 
# crystal, experimental, refinement or atomic coordinate data resulting 
# from the CCDC's data processing and validation procedures.
#
#######################################################################

data_OCUQIN
_chemical_formula_moiety         '(C9 H28 N2 O19 P4 V4)n'
_symmetry_cell_setting           monoclinic
_symmetry_space_group_name_H-M   'C 2/c'
_symmetry_Int_Tables_number      15
_space_group_name_Hall           '-C 2yc'
loop_
_symmetry_equiv_pos_site_id
_symmetry_equiv_pos_as_xyz
1 x,y,z
2 1/2+x,1/2+y,z
3 -x,y,1/2-z
4 1/2-x,1/2+y,1/2-z
5 -x,-y,-z
6 1/2-x,1/2-y,-z
7 x,-y,1/2+z
8 1/2+x,1/2-y,1/2+z
_cell_length_a                   15.5527(7)
_cell_length_b                   10.0841(5)
_cell_length_c                   18.7813(8)
_cell_angle_alpha                90
_cell_angle_beta                 104.4230(10)
_cell_angle_gamma                90
_cell_volume                     2852.73
loop_
_atom_site_label
_atom_site_type_symbol
_atom_site_fract_x
_atom_site_fract_y
_atom_site_fract_z
V1 V 0.24928(2) -0.03062(3) 0.284885(17)
V2 V -0.16899(2) -0.10983(3) 0.414300(17)
P1 P 0.20151(3) 0.12821(5) 0.41982(3)
P2 P -0.16855(3) 0.18035(5) 0.34034(2)
O1 O -0.06449(10) -0.13500(15) 0.43258(9)
O2 O -0.18326(10) 0.08138(14) 0.39774(8)
O3 O 0.28366(9) 0.21078(14) 0.42164(7)
O4 O 0.20246(9) 0.06650(14) 0.49461(7)
O5 O 0.19472(9) 0.01211(13) 0.36587(7)
O6 O -0.17511(10) 0.11553(14) 0.26550(8)
O7 O -0.23545(9) 0.29342(14) 0.33479(8)
O8 O 0.34693(10) 0.02714(16) 0.29659(9)
O9 O 0.21641(12) -0.13252(16) 0.19255(8)
C1 C 0.10549(13) 0.23119(19) 0.39149(11)
H4 H 0.1065 0.2987 0.4300
H5 H 0.1084 0.2784 0.3460
C2 C 0.01730(13) 0.1551(2) 0.37729(11)
H6 H 0.0096 0.1010 0.3321
H7 H 0.0182 0.0945 0.4189
C3 C -0.06012(13) 0.2520(2) 0.36848(12)
H8 H -0.0549 0.2979 0.4160
H9 H -0.0545 0.3201 0.3319
H14 H 0.227(2) -0.199(3) 0.2003(17)
V1B V -0.24928(2) -0.03062(3) 0.215115(17)
V1A V -0.25072(2) 0.46938(3) 0.284885(17)
V1C V 0.25072(2) 0.46938(3) 0.215115(17)
V2B V 0.16899(2) -0.10983(3) 0.085700(17)
V2A V 0.33101(2) 0.39017(3) 0.414300(17)
V2D V 0.16899(2) 0.10983(3) 0.585700(17)
V2C V -0.33101(2) 0.39017(3) 0.085700(17)
V2F V -0.16899(2) 0.10983(3) -0.085700(17)
P1B P -0.20151(3) 0.12821(5) 0.08018(3)
P2B P 0.16855(3) 0.18035(5) 0.15966(2)
O1B O 0.06449(10) -0.13500(15) 0.06742(9)
O2B O 0.18326(10) 0.08138(14) 0.10226(8)
O3B O -0.28366(9) 0.21078(14) 0.07836(7)
O3A O -0.21634(9) -0.28922(14) 0.42164(7)
O3C O 0.21634(9) -0.28922(14) 0.07836(7)
O4B O -0.20246(9) 0.06650(14) 0.00539(7)
O4D O -0.20246(9) -0.06650(14) 0.50539(7)
O4F O 0.20246(9) -0.06650(14) -0.00539(7)
O5B O -0.19472(9) 0.01211(13) 0.13413(7)
O6B O 0.17511(10) 0.11553(14) 0.23450(8)
O7B O 0.23545(9) 0.29342(14) 0.16521(8)
O7A O 0.26455(9) -0.20658(14) 0.33479(8)
O7C O -0.26455(9) -0.20658(14) 0.16521(8)
O8B O -0.34693(10) 0.02714(16) 0.20341(9)
O9B O -0.21641(12) -0.13252(16) 0.30745(8)
C1B C -0.10549(13) 0.23119(19) 0.10851(11)
H4B H -0.1065 0.2987 0.0700
H5B H -0.1084 0.2784 0.1540
C2B C -0.01730(13) 0.1551(2) 0.12271(11)
H6B H -0.0096 0.1010 0.1679
H7B H -0.0182 0.0945 0.0811
C3B C 0.06012(13) 0.2520(2) 0.13152(12)
H8B H 0.0549 0.2979 0.0840
H9B H 0.0545 0.3201 0.1681
H14B H -0.227(2) -0.199(3) 0.2997(17)
O10 O 0.3279(3) 0.8666(4) 0.50608(19)
N1 N 0.08492(14) 0.7910(2) 0.38176(13)
H1 H 0.1216 0.8541 0.3710
H2 H 0.1164 0.7367 0.4176
H3 H 0.0405 0.8306 0.3977
C4 C 0.04591(18) 0.7111(2) 0.31433(17)
H10 H 0.0025 0.6473 0.3252
H11 H 0.0936 0.6598 0.3006
C5 C 0.0000 0.7981(4) 0.2500
H12 H 0.0442 0.8556 0.2353
H13 H -0.0442 0.8556 0.2647
N1B N -0.08492(14) 0.7910(2) 0.11824(13)
H1B H -0.1216 0.8541 0.1290
H2B H -0.1164 0.7367 0.0824
H3B H -0.0405 0.8306 0.1023
C4B C -0.04591(18) 0.7111(2) 0.18567(17)
H10B H -0.0025 0.6473 0.1748
H11B H -0.0936 0.6598 0.1994
loop_
_geom_bond_atom_site_label_1
_geom_bond_atom_site_label_2
_geom_bond_site_symmetry_1
_geom_bond_site_symmetry_2
V1 O5 1_555 1_555
V2 O1 1_555 1_555
P1 O3 1_555 1_555
P2 O2 1_555 1_555
O2 V2 1_555 1_555
O3 V2A 1_555 1_555
O4 P1 1_555 1_555
O5 P1 1_555 1_555
O6 P2 1_555 1_555
O7 P2 1_555 1_555
O8 V1 1_555 1_555
O9 V1 1_555 1_555
N1 H1 1_555 1_555
H2 N1 1_555 1_555
H3 N1 1_555 1_555
C1 P1 1_555 1_555
H4 C1 1_555 1_555
H5 C1 1_555 1_555
C2 C1 1_555 1_555
H6 C2 1_555 1_555
H7 C2 1_555 1_555
C3 P2 1_555 1_555
H8 C3 1_555 1_555
H9 C3 1_555 1_555
C4 N1 1_555 1_555
H10 C4 1_555 1_555
H11 C4 1_555 1_555
C5 C4 1_555 1_555
H12 C5 1_555 1_555
H13 C5 1_555 1_555
H14 O9 1_555 1_555
V1B O6 1_555 1_555
V1A O7 1_555 1_555
V1C O7B 1_555 1_555
V2B O9 1_555 1_555
V2D O4 1_555 1_555
V2C O3B 1_555 1_555
V2F O4B 1_555 1_555
P1B O3B 1_555 1_555
P2B O2B 1_555 1_555
O1B V2B 1_555 1_555
O2B V2B 1_555 1_555
O3A V2 1_555 1_555
O3C V2B 1_555 1_555
O4B P1B 1_555 1_555
O4D V2 1_555 1_555
O4F V2B 1_555 1_555
O5B V1B 1_555 1_555
O6B V1 1_555 1_555
O7B P2B 1_555 1_555
O7A V1 1_555 1_555
O7C V1B 1_555 1_555
O8B V1B 1_555 1_555
O9B V2 1_555 1_555
N1B H1B 1_555 1_555
H2B N1B 1_555 1_555
H3B N1B 1_555 1_555
C1B P1B 1_555 1_555
H4B C1B 1_555 1_555
H5B C1B 1_555 1_555
C2B C1B 1_555 1_555
H6B C2B 1_555 1_555
H7B C2B 1_555 1_555
C3B P2B 1_555 1_555
H8B C3B 1_555 1_555
H9B C3B 1_555 1_555
C4B C5 1_555 1_555
H10B C4B 1_555 1_555
H11B C4B 1_555 1_555
H14B O9B 1_555 1_555
C2 C3 1_555 1_555
V1B O9B 1_555 1_555
P1B O5B 1_555 1_555
P2B O6B 1_555 1_555
N1B C4B 1_555 1_555
C2B C3B 1_555 1_555

#END
