
#######################################################################
#
#                 Cambridge Crystallographic Data Centre
#                                CCDC 
#
#######################################################################
#
# If this CIF has been generated from an entry in the Cambridge 
# Structural Database, then it will include bibliographic, chemical, 
# crystal, experimental, refinement or atomic coordinate data resulting 
# from the CCDC's data processing and validation procedures.
#
#######################################################################

data_OCURAG
_chemical_formula_moiety         '(C12 H34 N2 O19 P4 V4)n'
_symmetry_cell_setting           monoclinic
_symmetry_space_group_name_H-M   'C 2/c'
_symmetry_Int_Tables_number      15
_space_group_name_Hall           '-C 2yc'
loop_
_symmetry_equiv_pos_site_id
_symmetry_equiv_pos_as_xyz
1 x,y,z
2 1/2+x,1/2+y,z
3 -x,y,1/2-z
4 1/2-x,1/2+y,1/2-z
5 -x,-y,-z
6 1/2-x,1/2-y,-z
7 x,-y,1/2+z
8 1/2+x,1/2-y,1/2+z
_cell_length_a                   15.6403(11)
_cell_length_b                   10.2112(7)
_cell_length_c                   18.6795(14)
_cell_angle_alpha                90
_cell_angle_beta                 105.4840(10)
_cell_angle_gamma                90
_cell_volume                     2874.96
loop_
_atom_site_label
_atom_site_type_symbol
_atom_site_fract_x
_atom_site_fract_y
_atom_site_fract_z
_atom_site_U_iso_or_equiv
_atom_site_thermal_displace_type
V1 V 0.16504(4) 0.38063(6) 0.08450(3) 0.0113 Uani
V2 V 0.24827(4) 0.45311(6) 0.28748(3) 0.0117 Uani
P1 P 0.20739(7) 0.37992(9) -0.07875(5) 0.0116 Uani
P2 P -0.16413(6) 0.33230(9) -0.16281(5) 0.0113 Uani
O1 O 0.2074(2) 0.4273(3) -0.00107(15) 0.0162 Uani
O2 O 0.28866(19) 0.2986(3) -0.07871(15) 0.0149 Uani
O3 O 0.0607(2) 0.3543(3) 0.05918(18) 0.0210 Uani
O4 O -0.1716(2) 0.4288(3) -0.10203(14) 0.0154 Uani
O5 O 0.2117(2) 0.3571(3) 0.19244(16) 0.0208 Uani
O6 O -0.1758(2) 0.3985(3) -0.23814(15) 0.0161 Uani
O7 O 0.3460(2) 0.5075(3) 0.29949(19) 0.0254 Uani
O8 O -0.23115(18) 0.2223(3) -0.16566(15) 0.0150 Uani
O9 O 0.20363(19) 0.5034(3) -0.12641(14) 0.0143 Uani
C2 C 0.1100(3) 0.2824(4) -0.1147(2) 0.0150 Uani
H6 H 0.1136 0.2427 -0.1622 0.0180 Uiso
H7 H 0.1099 0.2101 -0.0795 0.0180 Uiso
C3 C -0.0553(3) 0.2612(4) -0.1385(2) 0.0168 Uani
H8 H -0.0518 0.1977 -0.1776 0.0200 Uiso
H9 H -0.0476 0.2115 -0.0917 0.0200 Uiso
C4 C 0.0218(3) 0.3569(4) -0.1284(2) 0.0168 Uani
H10 H 0.0131 0.4120 -0.1733 0.0200 Uiso
H11 H 0.0234 0.4151 -0.0856 0.0200 Uiso
H16 H 0.217(4) 0.290(7) 0.196(4) 0.0320 Uiso
V1E V 0.33496(4) 0.11937(6) -0.08450(3) 0.0113 Uani
V1D V -0.16504(4) 0.61937(6) -0.08450(3) 0.0113 Uani
V1A V 0.66504(4) -0.11937(6) 0.08450(3) 0.0113 Uani
V2D V -0.24827(4) 0.54689(6) -0.28748(3) 0.0117 Uani
V2G V -0.25173(4) 0.04689(6) -0.21252(3) 0.0117 Uani
V2F V 0.24827(4) 0.54689(6) -0.21252(3) 0.0117 Uani
V2A V 0.74827(4) -0.04689(6) 0.28748(3) 0.0117 Uani
V2B V 0.75173(4) 0.45311(6) 0.21252(3) 0.0117 Uani
V2C V 0.25173(4) -0.04689(6) 0.21252(3) 0.0117 Uani
V2E V 0.25173(4) 0.04689(6) -0.28748(3) 0.0117 Uani
P1E P 0.29261(7) 0.12008(9) 0.07875(5) 0.0116 Uani
P2E P 0.66413(6) 0.16770(9) 0.16281(5) 0.0113 Uani
O1E O 0.2926(2) 0.0727(3) 0.00107(15) 0.0162 Uani
O2E O 0.21134(19) 0.2014(3) 0.07871(15) 0.0149 Uani
O3E O 0.4393(2) 0.1457(3) -0.05918(18) 0.0210 Uani
O4E O 0.6716(2) 0.0712(3) 0.10203(14) 0.0154 Uani
O4D O 0.1716(2) 0.5712(3) 0.10203(14) 0.0154 Uani
O4A O 0.3284(2) -0.0712(3) -0.10203(14) 0.0154 Uani
O5E O 0.2883(2) 0.1429(3) -0.19244(16) 0.0208 Uani
O5D O -0.2117(2) 0.6429(3) -0.19244(16) 0.0208 Uani
O6E O 0.6758(2) 0.1015(3) 0.23814(15) 0.0161 Uani
O6D O 0.1758(2) 0.6015(3) 0.23814(15) 0.0161 Uani
O7D O -0.3460(2) 0.4925(3) -0.29949(19) 0.0254 Uani
O8E O 0.73115(18) 0.2777(3) 0.16566(15) 0.0150 Uani
O8G O 0.26885(18) 0.2777(3) 0.33434(15) 0.0150 Uani
O8C O -0.26885(18) 0.7223(3) -0.33434(15) 0.0150 Uani
O9E O 0.29637(19) -0.0034(3) 0.12641(14) 0.0143 Uani
O9F O 0.20363(19) 0.4966(3) 0.37359(14) 0.0143 Uani
O9B O -0.20363(19) 0.5034(3) -0.37359(14) 0.0143 Uani
C2E C 0.3900(3) 0.2176(4) 0.1147(2) 0.0150 Uani
H6E H 0.3864 0.2573 0.1622 0.0180 Uiso
H7E H 0.3901 0.2899 0.0795 0.0180 Uiso
C3E C 0.5553(3) 0.2388(4) 0.1385(2) 0.0168 Uani
H8E H 0.5518 0.3023 0.1776 0.0200 Uiso
H9E H 0.5476 0.2885 0.0917 0.0200 Uiso
C4E C 0.4782(3) 0.1431(4) 0.1284(2) 0.0168 Uani
H10E H 0.4869 0.0880 0.1733 0.0200 Uiso
H11E H 0.4766 0.0849 0.0856 0.0200 Uiso
H16E H 0.283(4) 0.210(7) -0.196(4) 0.0320 Uiso
H16D H -0.217(4) 0.710(7) -0.196(4) 0.0320 Uiso
O10 O 0.5626(10) 0.5383(13) 0.0310(9) 0.0329 Uani
N1 N 0.3611(8) 0.8064(6) 0.0428(4) 0.1126 Uani
H1 H 0.3009 0.7994 0.0275 0.1690 Uiso
H2 H 0.3814 0.8416 0.0057 0.1690 Uiso
H3 H 0.3767 0.8590 0.0835 0.1690 Uiso
C1 C 0.410(2) 0.6444(17) 0.0662(13) 0.3250 Uani
H4 H 0.3658 0.5774 0.0417 0.3930 Uiso
H5 H 0.4619 0.6357 0.0462 0.3930 Uiso
C5 C 0.4404(10) 0.6150(10) 0.1565(11) 0.1528 Uani
H12 H 0.3875 0.5880 0.1724 0.1810 Uiso
H13 H 0.4824 0.5404 0.1659 0.1810 Uiso
C6 C 0.4831(9) 0.7274(11) 0.2035(7) 0.1097 Uani
H14 H 0.4413 0.8017 0.1896 0.1320 Uiso
H15 H 0.5358 0.7507 0.1863 0.1320 Uiso
N1B N 0.6389(8) 0.8064(6) 0.4572(4) 0.1126 Uani
H1B H 0.6991 0.7994 0.4725 0.1690 Uiso
H2B H 0.6186 0.8416 0.4943 0.1690 Uiso
H3B H 0.6233 0.8590 0.4165 0.1690 Uiso
C1B C 0.590(2) 0.6444(17) 0.4338(13) 0.3250 Uani
H4B H 0.6342 0.5774 0.4583 0.3930 Uiso
H5B H 0.5381 0.6357 0.4538 0.3930 Uiso
C5B C 0.5596(10) 0.6150(10) 0.3435(11) 0.1528 Uani
H12B H 0.6125 0.5880 0.3276 0.1810 Uiso
H13B H 0.5176 0.5404 0.3341 0.1810 Uiso
C6B C 0.5169(9) 0.7274(11) 0.2965(7) 0.1097 Uani
H14B H 0.5587 0.8017 0.3104 0.1320 Uiso
H15B H 0.4642 0.7507 0.3137 0.1320 Uiso
loop_
_atom_site_aniso_label
_atom_site_aniso_U_11
_atom_site_aniso_U_22
_atom_site_aniso_U_33
_atom_site_aniso_U_23
_atom_site_aniso_U_13
_atom_site_aniso_U_12
V1 0.0153(3) 0.0120(3) 0.0075(3) -0.0011(2) 0.0046(2) 0.0001(2)
V2 0.0153(3) 0.0123(3) 0.0084(3) 0.0006(2) 0.0048(2) 0.0005(2)
P1 0.0184 0.0107 0.0069 -0.0006 0.0054 -0.0001
P2 0.0166 0.0107 0.0067 -0.0002 0.0034 0.0008
O1 0.0269 0.0157 0.008 -0.0014 0.0082 -0.002
O2 0.0197 0.0128 0.0128 -0.0011 0.0052 0.0011
O3 0.0172(14) 0.0221(15) 0.0249(15) -0.0021(12) 0.0077(12) 0.0006(12)
O4 0.0264 0.0126 0.0071 -0.0013 0.0044 0.001
O5 0.0425(19) 0.0121(14) 0.0076(12) 0.0002(10) 0.0066(12) 0.0053(13)
O6 0.0258 0.0152 0.0087 0.002 0.0069 0.0061
O7 0.0203(15) 0.0251(16) 0.0325(17) 0.0043(13) 0.0098(13) -0.0031(12)
O8 0.0181 0.0146 0.0136 -0.0023 0.0063 -0.0014
O9 0.0227 0.0126 0.0097 0.0007 0.0078 0.0006
C2 0.0178 0.0122 0.0151 -0.0018 0.0048 -0.0006
C3 0.0167 0.0149 0.0176 0.0006 0.0027 0.0011
C4 0.0207 0.0146 0.0147 0.0003 0.0041 -0.0008
V1E 0.0153 0.012 0.0075 -0.0011 0.0046 0.0001
V1D 0.0153 0.012 0.0075 -0.0011 0.0046 0.0001
V1A 0.0153 0.012 0.0075 -0.0011 0.0046 0.0001
V2D 0.0153 0.0123 0.0084 0.0006 0.0048 0.0005
V2G 0.0153 0.0123 0.0084 -0.0006 0.0048 -0.0005
V2F 0.0153 0.0123 0.0084 -0.0006 0.0048 -0.0005
V2A 0.0153 0.0123 0.0084 0.0006 0.0048 0.0005
V2B 0.0153 0.0123 0.0084 -0.0006 0.0048 -0.0005
V2C 0.0153 0.0123 0.0084 -0.0006 0.0048 -0.0005
V2E 0.0153 0.0123 0.0084 0.0006 0.0048 0.0005
P1E 0.0184 0.0107 0.0069 -0.0006 0.0054 -0.0001
P2E 0.0166 0.0107 0.0067 -0.0002 0.0034 0.0008
O1E 0.0269 0.0157 0.008 -0.0014 0.0082 -0.002
O2E 0.0197 0.0128 0.0128 -0.0011 0.0052 0.0011
O3E 0.0172 0.0221 0.0249 -0.0021 0.0077 0.0006
O4E 0.0264 0.0126 0.0071 -0.0013 0.0044 0.001
O4D 0.0264(15) 0.0126(12) 0.0071(11) -0.0013(9) 0.0044(10) 0.0010(11)
O4A 0.0264 0.0126 0.0071 -0.0013 0.0044 0.001
O5E 0.0425 0.0121 0.0076 0.0002 0.0066 0.0053
O5D 0.0425 0.0121 0.0076 0.0002 0.0066 0.0053
O6E 0.0258 0.0152 0.0087 0.002 0.0069 0.0061
O6D 0.0258(15) 0.0152(13) 0.0087(12) 0.0020(10) 0.0069(10) 0.0061(11)
O7D 0.0203 0.0251 0.0325 0.0043 0.0098 -0.0031
O8E 0.0181 0.0146 0.0136 -0.0023 0.0063 -0.0014
O8G 0.0181 0.0146 0.0136 0.0023 0.0063 0.0014
O8C 0.0181 0.0146 0.0136 0.0023 0.0063 0.0014
O9E 0.0227 0.0126 0.0097 0.0007 0.0078 0.0006
O9F 0.0227 0.0126 0.0097 -0.0007 0.0078 -0.0006
O9B 0.0227 0.0126 0.0097 -0.0007 0.0078 -0.0006
C2E 0.0178 0.0122 0.0151 -0.0018 0.0048 -0.0006
C3E 0.0167 0.0149 0.0176 0.0006 0.0027 0.0011
C4E 0.0207 0.0146 0.0147 0.0003 0.0041 -0.0008
O10 0.031(7) 0.021(7) 0.040(8) -0.001(6) -0.002(6) -0.005(6)
N1 0.275(13) 0.033(3) 0.056(4) 0.011(3) 0.090(6) 0.048(5)
C1 0.67(5) 0.162(16) 0.32(3) -0.183(18) 0.44(4) -0.25(3)
C5 0.134(11) 0.049(6) 0.33(2) -0.011(9) 0.157(15) -0.006(6)
C6 0.138(10) 0.076(7) 0.153(12) -0.032(7) 0.105(10) -0.024(7)
N1B 0.275 0.033 0.056 -0.011 0.09 -0.048
C1B 0.67 0.162 0.32 0.183 0.44 0.25
C5B 0.134 0.049 0.33 0.011 0.157 0.006
C6B 0.138 0.076 0.153 0.032 0.105 0.024
loop_
_geom_bond_atom_site_label_1
_geom_bond_atom_site_label_2
_geom_bond_site_symmetry_1
_geom_bond_site_symmetry_2
V1 O1 1_555 1_555
V2 O5 1_555 1_555
P1 O1 1_555 1_555
P2 O4 1_555 1_555
O2 P1 1_555 1_555
O3 V1 1_555 1_555
O4 V1D 1_555 1_555
O5 V1 1_555 1_555
O6 P2 1_555 1_555
O7 V2 1_555 1_555
O8 P2 1_555 1_555
O9 P1 1_555 1_555
N1 H1 1_555 1_555
H2 N1 1_555 1_555
H3 N1 1_555 1_555
C1 N1 1_555 1_555
H4 C1 1_555 1_555
H5 C1 1_555 1_555
C2 P1 1_555 1_555
H6 C2 1_555 1_555
H7 C2 1_555 1_555
C3 P2 1_555 1_555
H8 C3 1_555 1_555
H9 C3 1_555 1_555
C4 C2 1_555 1_555
H10 C4 1_555 1_555
H11 C4 1_555 1_555
C5 C1 1_555 1_555
H12 C5 1_555 1_555
H13 C5 1_555 1_555
C6 C5 1_555 1_555
H14 C6 1_555 1_555
H15 C6 1_555 1_555
H16 O5 1_555 1_555
V1E O2 1_555 1_555
V1D O5D 1_555 1_555
V1A O4E 1_555 1_555
V2D O6 1_555 1_555
V2G O8 1_555 1_555
V2F O9 1_555 1_555
V2A O6E 1_555 1_555
V2B O8E 1_555 1_555
V2C O9E 1_555 1_555
V2E O5E 1_555 1_555
P1E O1E 1_555 1_555
P2E O4E 1_555 1_555
O1E V1E 1_555 1_555
O2E V1 1_555 1_555
O3E V1E 1_555 1_555
O4D V1 1_555 1_555
O4A V1E 1_555 1_555
O5E V1E 1_555 1_555
O5D V2D 1_555 1_555
O6E P2E 1_555 1_555
O6D V2 1_555 1_555
O7D V2D 1_555 1_555
O8E P2E 1_555 1_555
O8G V2 1_555 1_555
O8C V2D 1_555 1_555
O9E P1E 1_555 1_555
O9F V2 1_555 1_555
O9B V2D 1_555 1_555
N1B H1B 1_555 1_555
H2B N1B 1_555 1_555
H3B N1B 1_555 1_555
C1B N1B 1_555 1_555
H4B C1B 1_555 1_555
H5B C1B 1_555 1_555
C2E P1E 1_555 1_555
H6E C2E 1_555 1_555
H7E C2E 1_555 1_555
C3E P2E 1_555 1_555
H8E C3E 1_555 1_555
H9E C3E 1_555 1_555
C4E C2E 1_555 1_555
H10E C4E 1_555 1_555
H11E C4E 1_555 1_555
C5B C1B 1_555 1_555
H12B C5B 1_555 1_555
H13B C5B 1_555 1_555
C6B C6 1_555 1_555
H14B C6B 1_555 1_555
H15B C6B 1_555 1_555
H16E O5E 1_555 1_555
H16D O5D 1_555 1_555
C3 C4 1_555 1_555
P1E O2E 1_555 1_555
C3E C4E 1_555 1_555
C5B C6B 1_555 1_555

#END
