
#######################################################################
#
#                 Cambridge Crystallographic Data Centre
#                                CCDC 
#
#######################################################################
#
# If this CIF has been generated from an entry in the Cambridge 
# Structural Database, then it will include bibliographic, chemical, 
# crystal, experimental, refinement or atomic coordinate data resulting 
# from the CCDC's data processing and validation procedures.
#
#######################################################################

data_OCUREK
_chemical_formula_moiety         '(C13 H34 N2 O18 P4 V4)n'
_symmetry_cell_setting           monoclinic
_symmetry_space_group_name_H-M   'C 2/c'
_symmetry_Int_Tables_number      15
_space_group_name_Hall           '-C 2yc'
loop_
_symmetry_equiv_pos_site_id
_symmetry_equiv_pos_as_xyz
1 x,y,z
2 1/2+x,1/2+y,z
3 -x,y,1/2-z
4 1/2-x,1/2+y,1/2-z
5 -x,-y,-z
6 1/2-x,1/2-y,-z
7 x,-y,1/2+z
8 1/2+x,1/2-y,1/2+z
_cell_length_a                   15.8220(15)
_cell_length_b                   10.0614(9)
_cell_length_c                   18.6103(17)
_cell_angle_alpha                90
_cell_angle_beta                 104.292(2)
_cell_angle_gamma                90
_cell_volume                     2870.91
loop_
_atom_site_label
_atom_site_type_symbol
_atom_site_fract_x
_atom_site_fract_y
_atom_site_fract_z
_atom_site_U_iso_or_equiv
_atom_site_thermal_displace_type
V1 V 0.16162(3) 0.12474(5) 1.08518(3) 0.0127 Uani
V2 V -0.25755(5) 0.44856(6) 0.78521(3) 0.0148 Uani
P1 P -0.15769(5) 0.16633(8) 0.83475(4) 0.0122 Uani
P2 P 0.20657(5) 0.11775(8) 0.92207(4) 0.0119 Uani
O1 O -0.22597(15) 0.2739(2) 0.83275(13) 0.0187 Uani
O2 O -0.16465(19) 0.5112(3) 0.78992(18) 0.0390 Uani
O3 O -0.16690(17) 0.0958(2) 0.76066(12) 0.0212 Uani
O4 O 0.20289(15) -0.0091(2) 0.87543(12) 0.0148 Uani
O5 O 0.20314(15) 0.0706(2) 0.99957(12) 0.0152 Uani
O6 O -0.16279(15) 0.0691(2) 0.89728(12) 0.0155 Uani
O7 O 0.28742(15) 0.1985(2) 0.92214(12) 0.0161 Uani
O8 O 0.05960(16) 0.1551(3) 1.05947(15) 0.0224 Uani
O9 O 0.2040(2) 0.1481(3) 1.19204(15) 0.0305 Uani
C1 C -0.0515(2) 0.2425(3) 0.85697(18) 0.0161 Uani
H4 H -0.0472 0.3023 0.8157 0.0190 Uiso
H5 H -0.0459 0.2981 0.9018 0.0190 Uiso
C2 C 0.1123(2) 0.2188(3) 0.88590(18) 0.0147 Uani
H6 H 0.1112 0.2915 0.9215 0.0180 Uiso
H7 H 0.1181 0.2600 0.8391 0.0180 Uiso
C3 C 0.0249(2) 0.1449(3) 0.87076(18) 0.0153 Uani
H8 H 0.0191 0.0869 0.8269 0.0180 Uiso
H9 H 0.0234 0.0879 0.9138 0.0180 Uiso
H18 H 0.215(3) 0.205(5) 1.196(3) 0.0200 Uiso
V1D V -0.16162(3) -0.12474(5) 0.91482(3) 0.0127 Uani
V1E V 0.33838(3) 0.37526(5) 0.91482(3) 0.0127 Uani
V1A V -0.33838(3) -0.37526(5) 1.08518(3) 0.0127 Uani
V1G V -0.33838(3) 0.37526(5) 0.58518(3) 0.0127 Uani
V2D V 0.25755(5) -0.44856(6) 1.21479(3) 0.0148 Uani
V2C V -0.24245(5) -0.05144(6) 0.71479(3) 0.0148 Uani
V2A V 0.24245(5) -0.05144(6) 0.78521(3) 0.0148 Uani
V2G V 0.24245(5) 0.05144(6) 1.28521(3) 0.0148 Uani
V2E V -0.24245(5) 0.05144(6) 1.21479(3) 0.0148 Uani
P1D P 0.15769(5) -0.16633(8) 1.16525(4) 0.0122 Uani
P2D P -0.20657(5) -0.11775(8) 1.07793(4) 0.0119 Uani
O1D O 0.22597(15) -0.2739(2) 1.16725(13) 0.0187 Uani
O2D O 0.16465(19) -0.5112(3) 1.21008(18) 0.0390 Uani
O3D O 0.16690(17) -0.0958(2) 1.23934(12) 0.0212 Uani
O3C O -0.33310(17) 0.5958(2) 0.73934(12) 0.0212 Uani
O3G O 0.33310(17) -0.5958(2) 1.26066(12) 0.0212 Uani
O4D O -0.20289(15) 0.0091(2) 1.12457(12) 0.0148 Uani
O4A O -0.29711(15) 0.4909(2) 0.87543(12) 0.0148 Uani
O4E O 0.29711(15) -0.4909(2) 1.12457(12) 0.0148 Uani
O5D O -0.20314(15) -0.0706(2) 1.00043(12) 0.0152 Uani
O6D O 0.16279(15) -0.0691(2) 1.10272(12) 0.0155 Uani
O7D O -0.28742(15) -0.1985(2) 1.07786(12) 0.0161 Uani
O7E O 0.21258(15) 0.3015(2) 1.07786(12) 0.0161 Uani
O7A O -0.21258(15) -0.3015(2) 0.92214(12) 0.0161 Uani
O8D O -0.05960(16) -0.1551(3) 0.94053(15) 0.0224 Uani
O9G O -0.2960(2) 0.3519(3) 0.69204(15) 0.0305 Uani
O9D O -0.2040(2) -0.1481(3) 0.80796(15) 0.0305 Uani
O9C O 0.2960(2) -0.3519(3) 1.30796(15) 0.0305 Uani
C1D C 0.0515(2) -0.2425(3) 1.14303(18) 0.0161 Uani
H4D H 0.0472 -0.3023 1.1843 0.0190 Uiso
H5D H 0.0459 -0.2981 1.0982 0.0190 Uiso
C2D C -0.1123(2) -0.2188(3) 1.11410(18) 0.0147 Uani
H6D H -0.1112 -0.2915 1.0785 0.0180 Uiso
H7D H -0.1181 -0.2600 1.1609 0.0180 Uiso
C3D C -0.0249(2) -0.1449(3) 1.12924(18) 0.0153 Uani
H8D H -0.0191 -0.0869 1.1731 0.0180 Uiso
H9D H -0.0234 -0.0879 1.0862 0.0180 Uiso
H18G H -0.285(3) 0.295(5) 0.696(3) 0.0200 Uiso
H18D H -0.215(3) -0.205(5) 0.804(3) 0.0200 Uiso
H18C H 0.285(3) -0.295(5) 1.304(3) 0.0200 Uiso
N1 N 0.87734(19) 0.1878(3) 0.04188(16) 0.0205 Uani
H1 H 0.9346 0.1641 0.0519 0.0310 Uiso
H2 H 0.8498 0.1602 -0.0046 0.0310 Uiso
H3 H 0.8519 0.1491 0.0755 0.0310 Uiso
C4 C 0.8704(4) 0.3337(5) 0.0465(3) 0.0549 Uani
H10 H 0.8952 0.3744 0.0078 0.0660 Uiso
H11 H 0.8079 0.3582 0.0355 0.0660 Uiso
C5 C 0.9135(4) 0.3884(5) 0.1167(3) 0.0539 Uani
H12 H 0.8692 0.4440 0.1317 0.0650 Uiso
H13 H 0.9573 0.4509 0.1062 0.0650 Uiso
C6 C 0.9572(6) 0.3189(6) 0.1821(3) 0.0956 Uani
H14 H 1.0018 0.2623 0.1682 0.1150 Uiso
H15 H 0.9138 0.2579 0.1945 0.1150 Uiso
C7 C 1.0000 0.3851(7) 0.2500 0.0408 Uani
H16 H 1.0444 0.4441 0.2375 0.0490 Uiso
H17 H 0.9556 0.4441 0.2625 0.0490 Uiso
N1B N 1.12266(19) 0.1878(3) 0.45812(16) 0.0205 Uani
H1B H 1.0654 0.1641 0.4481 0.0310 Uiso
H2B H 1.1502 0.1602 0.5046 0.0310 Uiso
H3B H 1.1481 0.1491 0.4245 0.0310 Uiso
C4B C 1.1296(4) 0.3337(5) 0.4535(3) 0.0549 Uani
H10B H 1.1048 0.3744 0.4922 0.0660 Uiso
H11B H 1.1921 0.3582 0.4645 0.0660 Uiso
C5B C 1.0865(4) 0.3884(5) 0.3833(3) 0.0539 Uani
H12B H 1.1308 0.4440 0.3683 0.0650 Uiso
H13B H 1.0427 0.4509 0.3938 0.0650 Uiso
C6B C 1.0428(6) 0.3189(6) 0.3179(3) 0.0956 Uani
H14B H 0.9982 0.2623 0.3318 0.1150 Uiso
H15B H 1.0862 0.2579 0.3055 0.1150 Uiso
loop_
_atom_site_aniso_label
_atom_site_aniso_U_11
_atom_site_aniso_U_22
_atom_site_aniso_U_33
_atom_site_aniso_U_23
_atom_site_aniso_U_13
_atom_site_aniso_U_12
V1 0.0126(3) 0.0151(3) 0.0106(2) 0.00085(19) 0.00347(19) -0.0017(2)
V2 0.015 0.0182 0.0114 0.0031 0.0037 0.0048
P1 0.0142 0.0137 0.0083 0.0009 0.0018 -0.0002
P2 0.0132(4) 0.0126(4) 0.0099(3) 0.0007(3) 0.0027(3) -0.0011(3)
O1 0.0175 0.0206 0.0173 0.0057 0.0027 0.006
O2 0.0273 0.0438 0.045 0.0166 0.007 -0.0005
O3 0.034 0.0207 0.0101 -0.0029 0.0076 -0.0094
O4 0.0185(11) 0.0143(11) 0.0119(10) 0.0014(8) 0.0043(8) -0.0009(9)
O5 0.0175(11) 0.0180(11) 0.0111(10) 0.0019(8) 0.0054(8) 0.0011(9)
O6 0.0212 0.0151 0.0098 0.002 0.0031 -0.001
O7 0.0153 0.0172 0.0163 0.0007 0.005 -0.0032
O8 0.0158(12) 0.0216(13) 0.0315(14) -0.0017(10) 0.0093(10) -0.0018(10)
O9 0.056(2) 0.0187(15) 0.0133(12) -0.0004(11) 0.0020(12) -0.0139(14)
C1 0.0172 0.0132 0.016 0.0016 0.0005 -0.0003
C2 0.0159(15) 0.0125(14) 0.0159(15) 0.0024(11) 0.0043(12) -0.0014(12)
C3 0.0169(15) 0.0124(15) 0.0152(14) 0.0019(11) 0.0014(12) 0.0002(12)
V1D 0.0126 0.0151 0.0106 0.00085 0.00347 -0.0017
V1E 0.0126 0.0151 0.0106 0.00085 0.00347 -0.0017
V1A 0.0126 0.0151 0.0106 0.00085 0.00347 -0.0017
V1G 0.0126 0.0151 0.0106 -0.00085 0.00347 0.0017
V2D 0.015 0.0182 0.0114 0.0031 0.0037 0.0048
V2C 0.015 0.0182 0.0114 -0.0031 0.0037 -0.0048
V2A 0.0150(4) 0.0182(3) 0.0114(3) 0.0031(2) 0.0037(2) 0.0048(3)
V2G 0.015 0.0182 0.0114 -0.0031 0.0037 -0.0048
V2E 0.015 0.0182 0.0114 0.0031 0.0037 0.0048
P1D 0.0142 0.0137 0.0083 0.0009 0.0018 -0.0002
P2D 0.0132 0.0126 0.0099 0.0007 0.0027 -0.0011
O1D 0.0175 0.0206 0.0173 0.0057 0.0027 0.006
O2D 0.0273 0.0438 0.045 0.0166 0.007 -0.0005
O3D 0.034 0.0207 0.0101 -0.0029 0.0076 -0.0094
O3C 0.034 0.0207 0.0101 0.0029 0.0076 0.0094
O3G 0.034 0.0207 0.0101 0.0029 0.0076 0.0094
O4D 0.0185 0.0143 0.0119 0.0014 0.0043 -0.0009
O4A 0.0185 0.0143 0.0119 0.0014 0.0043 -0.0009
O4E 0.0185 0.0143 0.0119 0.0014 0.0043 -0.0009
O5D 0.0175 0.018 0.0111 0.0019 0.0054 0.0011
O6D 0.0212 0.0151 0.0098 0.002 0.0031 -0.001
O7D 0.0153 0.0172 0.0163 0.0007 0.005 -0.0032
O7E 0.0153 0.0172 0.0163 0.0007 0.005 -0.0032
O7A 0.0153 0.0172 0.0163 0.0007 0.005 -0.0032
O8D 0.0158 0.0216 0.0315 -0.0017 0.0093 -0.0018
O9G 0.056 0.0187 0.0133 0.0004 0.002 0.0139
O9D 0.056 0.0187 0.0133 -0.0004 0.002 -0.0139
O9C 0.056 0.0187 0.0133 0.0004 0.002 0.0139
C1D 0.0172 0.0132 0.016 0.0016 0.0005 -0.0003
C2D 0.0159 0.0125 0.0159 0.0024 0.0043 -0.0014
C3D 0.0169 0.0124 0.0152 0.0019 0.0014 0.0002
N1 0.0199(14) 0.0226(15) 0.0194(14) 0.0000(12) 0.0055(11) 0.0000(12)
C4 0.101(5) 0.024(2) 0.031(2) 0.0017(19) 0.000(3) 0.026(3)
C5 0.072(4) 0.025(2) 0.049(3) 0.001(2) -0.015(3) 0.000(2)
C6 0.185(9) 0.042(3) 0.033(3) -0.010(3) -0.024(4) 0.013(4)
C7 0.033(3) 0.041(4) 0.046(4) 0.000 0.005(3) 0.000
N1B 0.0199 0.0226 0.0194 0 0.0055 0
C4B 0.101 0.024 0.031 -0.0017 0 -0.026
C5B 0.072 0.025 0.049 -0.001 -0.015 0
C6B 0.185 0.042 0.033 0.01 -0.024 -0.013
loop_
_geom_bond_atom_site_label_1
_geom_bond_atom_site_label_2
_geom_bond_site_symmetry_1
_geom_bond_site_symmetry_2
V1 O5 1_555 1_555
V2 O1 1_555 1_555
P1 O1 1_555 1_555
P2 O4 1_555 1_555
O2 V2 1_555 1_555
O3 P1 1_555 1_555
O4 V2A 1_555 1_555
O5 P2 1_555 1_555
O6 P1 1_555 1_555
O7 P2 1_555 1_555
O8 V1 1_555 1_555
O9 V1 1_555 1_555
N1 H1 1_555 1_555
H2 N1 1_555 1_555
H3 N1 1_555 1_555
C1 P1 1_555 1_555
H4 C1 1_555 1_555
H5 C1 1_555 1_555
C2 P2 1_555 1_555
H6 C2 1_555 1_555
H7 C2 1_555 1_555
C3 C1 1_555 1_555
H8 C3 1_555 1_555
H9 C3 1_555 1_555
C4 N1 1_555 1_555
H10 C4 1_555 1_555
H11 C4 1_555 1_555
C5 C4 1_555 1_555
H12 C5 1_555 1_555
H13 C5 1_555 1_555
C6 C5 1_555 1_555
H14 C6 1_555 1_555
H15 C6 1_555 1_555
C7 C6 1_555 1_555
H16 C7 1_555 1_555
H17 C7 1_555 1_555
H18 O9 1_555 1_555
V1D O6 1_555 1_555
V1E O7 1_555 1_555
V1A O7D 1_555 1_555
V1G O9G 1_555 1_555
V2D O1D 1_555 1_555
V2C O3 1_555 1_555
V2G O9 1_555 1_555
V2E O4D 1_555 1_555
P1D O1D 1_555 1_555
P2D O4D 1_555 1_555
O2D V2D 1_555 1_555
O3D V2G 1_555 1_555
O3C V2 1_555 1_555
O3G V2D 1_555 1_555
O4A V2 1_555 1_555
O4E V2D 1_555 1_555
O5D V1D 1_555 1_555
O6D V1 1_555 1_555
O7D P2D 1_555 1_555
O7E V1 1_555 1_555
O7A V1D 1_555 1_555
O8D V1D 1_555 1_555
O9G V2 1_555 1_555
O9D V1D 1_555 1_555
O9C V2D 1_555 1_555
N1B H1B 1_555 1_555
H2B N1B 1_555 1_555
H3B N1B 1_555 1_555
C1D P1D 1_555 1_555
H4D C1D 1_555 1_555
H5D C1D 1_555 1_555
C2D P2D 1_555 1_555
H6D C2D 1_555 1_555
H7D C2D 1_555 1_555
C3D C1D 1_555 1_555
H8D C3D 1_555 1_555
H9D C3D 1_555 1_555
C4B N1B 1_555 1_555
H10B C4B 1_555 1_555
H11B C4B 1_555 1_555
C5B C4B 1_555 1_555
H12B C5B 1_555 1_555
H13B C5B 1_555 1_555
C6B C7 1_555 1_555
H14B C6B 1_555 1_555
H15B C6B 1_555 1_555
H18G O9G 1_555 1_555
H18D O9D 1_555 1_555
H18C O9C 1_555 1_555
C2 C3 1_555 1_555
V2C O9D 1_555 1_555
P1D O3D 1_555 1_555
P1D O6D 1_555 1_555
P2D O5D 1_555 1_555
C2D C3D 1_555 1_555
C5B C6B 1_555 1_555

#END
