
#######################################################################
#
#                 Cambridge Crystallographic Data Centre
#                                CCDC 
#
#######################################################################
#
# If this CIF has been generated from an entry in the Cambridge 
# Structural Database, then it will include bibliographic, chemical, 
# crystal, experimental, refinement or atomic coordinate data resulting 
# from the CCDC's data processing and validation procedures.
#
#######################################################################

data_OCUSOV
_chemical_formula_moiety         '(C8 H24 N2 O20 P4 V4 2-)n'
_symmetry_cell_setting           monoclinic
_symmetry_space_group_name_H-M   'C 2/c'
_symmetry_Int_Tables_number      15
_space_group_name_Hall           '-C 2yc'
loop_
_symmetry_equiv_pos_site_id
_symmetry_equiv_pos_as_xyz
1 x,y,z
2 1/2+x,1/2+y,z
3 -x,y,1/2-z
4 1/2-x,1/2+y,1/2-z
5 -x,-y,-z
6 1/2-x,1/2-y,-z
7 x,-y,1/2+z
8 1/2+x,1/2-y,1/2+z
_cell_length_a                   15.003(3)
_cell_length_b                   10.126(2)
_cell_length_c                   18.604(4)
_cell_angle_alpha                90
_cell_angle_beta                 101.00(3)
_cell_angle_gamma                90
_cell_volume                     2774.4
loop_
_atom_site_label
_atom_site_type_symbol
_atom_site_fract_x
_atom_site_fract_y
_atom_site_fract_z
_atom_site_U_iso_or_equiv
_atom_site_thermal_displace_type
O11 O 0.0433(9) 0.1423(13) 0.3071(8) 0.0564 Uani
O12 O 0.0329(7) 0.0625(10) 0.0677(6) 0.0320 Uani
N1 N 0.8763(6) 0.2966(8) 0.0743(5) 0.0209 Uani
H1 H 0.8855 0.3801 0.0888 0.0320 Uiso
H2 H 0.9201 0.2714 0.0511 0.0320 Uiso
H3 H 0.8768 0.2452 0.1132 0.0320 Uiso
C4 C 0.7856(7) 0.2851(9) 0.0232(6) 0.0543 Uani
N1E N 0.6237(6) 0.2034(8) -0.0743(5) 0.0209 Uani
H1E H 0.6145 0.1199 -0.0888 0.0320 Uiso
H2E H 0.5799 0.2286 -0.0511 0.0320 Uiso
H3E H 0.6232 0.2548 -0.1132 0.0320 Uiso
C4E C 0.7144(7) 0.2149(9) -0.0232(6) 0.0543 Uani
V1 V 0.15898(6) 0.38593(9) 0.08585(5) 0.0081 Uani
V2 V 0.24682(6) 0.45413(9) 0.28135(5) 0.0077 Uani
P1 P -0.21426(9) 0.62254(13) 0.07702(7) 0.0075 Uani
P2 P 0.16260(9) 0.66987(13) 0.16686(7) 0.0066 Uani
O1 O 0.1760(3) 0.5759(4) 0.10549(19) 0.0096 Uani
O2 O -0.2079(3) 0.5718(4) 0.0009(2) 0.0103 Uani
O3 O 0.0517(3) 0.3675(4) 0.0652(2) 0.0168 Uani
O4 O 0.1992(3) 0.3577(5) 0.1911(2) 0.0185 Uani
O5 O -0.3000(3) 0.7018(4) 0.0770(2) 0.0115 Uani
O6 O -0.2127(2) 0.5005(4) 0.12562(19) 0.0088 Uani
O7 O 0.1666(3) 0.5988(4) 0.2401(2) 0.0106 Uani
O8 O 0.3462(3) 0.5072(4) 0.2775(2) 0.0209 Uani
O9 O 0.2342(3) 0.7782(4) 0.1724(2) 0.0106 Uani
C1 C -0.1174(3) 0.7243(5) 0.1102(3) 0.0110 Uani
H7 H -0.1133 0.7918 0.0740 0.0130 Uiso
H8 H -0.1266 0.7685 0.1545 0.0130 Uiso
C2 C -0.0276(3) 0.6495(5) 0.1268(3) 0.0104 Uani
H9 H -0.0214 0.5957 0.0849 0.0130 Uiso
H10 H -0.0273 0.5912 0.1682 0.0130 Uiso
C3 C 0.0527(3) 0.7450(5) 0.1443(3) 0.0101 Uani
H11 H 0.0441 0.8004 0.1849 0.0120 Uiso
H12 H 0.0516 0.8021 0.1022 0.0120 Uiso
H13 H 0.208(5) 0.304(6) 0.198(4) 0.0000 Uiso
V1D V -0.15898(6) 0.61407(9) -0.08585(5) 0.0081 Uani
V1A V -0.34102(6) 0.88593(9) 0.08585(5) 0.0081 Uani
V1E V 0.34102(6) 0.11407(9) -0.08585(5) 0.0081 Uani
V2B V -0.24682(6) 0.45413(9) 0.21865(5) 0.0077 Uani
V2C V 0.25318(6) 0.95413(9) 0.21865(5) 0.0077 Uani
V2F V 0.24682(6) 0.54587(9) -0.21865(5) 0.0077 Uani
V2D V -0.24682(6) 0.54587(9) -0.28135(5) 0.0077 Uani
V2G V -0.25318(6) 0.04587(9) -0.21865(5) 0.0077 Uani
P1D P 0.21426(9) 0.37746(13) -0.07702(7) 0.0075 Uani
P2D P -0.16260(9) 0.33013(13) -0.16686(7) 0.0066 Uani
O1D O -0.1760(3) 0.4241(4) -0.10549(19) 0.0096 Uani
O2D O 0.2079(3) 0.4282(4) -0.0009(2) 0.0103 Uani
O3D O -0.0517(3) 0.6325(4) -0.0652(2) 0.0168 Uani
O4D O -0.1992(3) 0.6423(5) -0.1911(2) 0.0185 Uani
O4B O -0.1992(3) 0.3577(5) 0.3089(2) 0.0185 Uani
O5D O 0.3000(3) 0.2982(4) -0.0770(2) 0.0115 Uani
O5A O 0.2000(3) 0.2018(4) 0.0770(2) 0.0115 Uani
O5E O -0.2000(3) 0.7982(4) -0.0770(2) 0.0115 Uani
O6D O 0.2127(2) 0.4995(4) -0.12562(19) 0.0088 Uani
O6B O 0.2127(2) 0.5005(4) 0.37438(19) 0.0088 Uani
O7D O -0.1666(3) 0.4012(4) -0.2401(2) 0.0106 Uani
O7B O -0.1666(3) 0.5988(4) 0.2599(2) 0.0106 Uani
O8B O -0.3462(3) 0.5072(4) 0.2225(2) 0.0209 Uani
O9D O -0.2342(3) 0.2218(4) -0.1724(2) 0.0106 Uani
O9C O 0.2658(3) 0.2782(4) 0.3276(2) 0.0106 Uani
O9A O -0.2658(3) 0.2782(4) 0.1724(2) 0.0106 Uani
C1D C 0.1174(3) 0.2757(5) -0.1102(3) 0.0110 Uani
H7D H 0.1133 0.2082 -0.0740 0.0130 Uiso
H8D H 0.1266 0.2315 -0.1545 0.0130 Uiso
C2D C 0.0276(3) 0.3505(5) -0.1268(3) 0.0104 Uani
H9D H 0.0214 0.4043 -0.0849 0.0130 Uiso
H10D H 0.0273 0.4088 -0.1682 0.0130 Uiso
C3D C -0.0527(3) 0.2550(5) -0.1443(3) 0.0101 Uani
H11D H -0.0441 0.1996 -0.1849 0.0120 Uiso
H12D H -0.0516 0.1979 -0.1022 0.0120 Uiso
H13D H -0.208(5) 0.696(6) -0.198(4) 0.0000 Uiso
H13B H -0.208(5) 0.304(6) 0.302(4) 0.0000 Uiso
loop_
_atom_site_aniso_label
_atom_site_aniso_U_11
_atom_site_aniso_U_22
_atom_site_aniso_U_33
_atom_site_aniso_U_23
_atom_site_aniso_U_13
_atom_site_aniso_U_12
O11 0.062(9) 0.038(7) 0.076(10) -0.017(7) 0.030(8) 0.001(6)
O12 0.027(5) 0.030(5) 0.039(6) -0.006(5) 0.006(4) -0.012(4)
N1 0.025(5) 0.008(4) 0.035(5) 0.001(4) 0.019(4) 0.000(3)
C4 0.070(7) 0.037(5) 0.057(6) -0.003(4) 0.015(5) -0.001(5)
N1E 0.025 0.008 0.035 0.001 0.019 0
C4E 0.07 0.037 0.057 -0.003 0.015 -0.001
V1 0.0105(4) 0.0053(4) 0.0089(4) -0.0013(3) 0.0028(3) 0.0007(3)
V2 0.0089 0.0058 0.0087 0.0012 0.0025 0.0011
P1 0.01 0.0051 0.0071 -0.0006 0.0007 0.0002
P2 0.009 0.0042 0.0067 -0.0003 0.002 0.0008
O1 0.0162 0.0056 0.0075 0.0002 0.0037 -0.0018
O2 0.0174 0.0083 0.0074 -0.0018 0.0078 -0.0008
O3 0.0135(19) 0.0076(19) 0.029(2) -0.0022(17) 0.0031(17) 0.0003(15)
O4 0.038(3) 0.004(2) 0.012(2) -0.0011(17) 0.0008(18) 0.0053(19)
O5 0.0128 0.0073 0.0141 0.0001 0.0015 0.0008
O6 0.0134 0.0065 0.0069 -0.0002 0.0033 -0.0008
O7 0.0148 0.0067 0.0104 0.0016 0.0028 0.0047
O8 0.019 0.021 0.024 0.0097 0.0077 -0.0022
O9 0.0129 0.008 0.0115 -0.0044 0.0041 -0.0018
C1 0.011 0.007 0.015 -0.003 0.0027 0.001
C2 0.01 0.007 0.014 -0.003 0.0017 -0.0008
C3 0.01 0.007 0.013 0.0017 0.0016 -0.0008
V1D 0.0105 0.0053 0.0089 -0.0013 0.0028 0.0007
V1A 0.0105 0.0053 0.0089 -0.0013 0.0028 0.0007
V1E 0.0105 0.0053 0.0089 -0.0013 0.0028 0.0007
V2B 0.0089 0.0058 0.0087 -0.0012 0.0025 -0.0011
V2C 0.0089 0.0058 0.0087 -0.0012 0.0025 -0.0011
V2F 0.0089 0.0058 0.0087 -0.0012 0.0025 -0.0011
V2D 0.0089 0.0058 0.0087 0.0012 0.0025 0.0011
V2G 0.0089 0.0058 0.0087 -0.0012 0.0025 -0.0011
P1D 0.01 0.0051 0.0071 -0.0006 0.0007 0.0002
P2D 0.009 0.0042 0.0067 -0.0003 0.002 0.0008
O1D 0.0162 0.0056 0.0075 0.0002 0.0037 -0.0018
O2D 0.0174 0.0083 0.0074 -0.0018 0.0078 -0.0008
O3D 0.0135 0.0076 0.029 -0.0022 0.0031 0.0003
O4D 0.038 0.004 0.012 -0.0011 0.0008 0.0053
O4B 0.038 0.004 0.012 0.0011 0.0008 -0.0053
O5D 0.0128 0.0073 0.0141 0.0001 0.0015 0.0008
O5A 0.0128(18) 0.0073(17) 0.0141(18) 0.0001(15) 0.0015(15) 0.0008(15)
O5E 0.0128 0.0073 0.0141 0.0001 0.0015 0.0008
O6D 0.0134 0.0065 0.0069 -0.0002 0.0033 -0.0008
O6B 0.0134 0.0065 0.0069 0.0002 0.0033 0.0008
O7D 0.0148 0.0067 0.0104 0.0016 0.0028 0.0047
O7B 0.0148 0.0067 0.0104 -0.0016 0.0028 -0.0047
O8B 0.019 0.021 0.024 -0.0097 0.0077 0.0022
O9D 0.0129 0.008 0.0115 -0.0044 0.0041 -0.0018
O9C 0.0129 0.008 0.0115 0.0044 0.0041 0.0018
O9A 0.0129 0.008 0.0115 -0.0044 0.0041 -0.0018
C1D 0.011 0.007 0.015 -0.003 0.0027 0.001
C2D 0.01 0.007 0.014 -0.003 0.0017 -0.0008
C3D 0.01 0.007 0.013 0.0017 0.0016 -0.0008
loop_
_geom_bond_atom_site_label_1
_geom_bond_atom_site_label_2
_geom_bond_site_symmetry_1
_geom_bond_site_symmetry_2
V1 O1 1_555 1_555
V2 O4 1_555 1_555
P1 O2 1_555 1_555
P2 O1 1_555 1_555
O2 V1D 1_555 1_555
O3 V1 1_555 1_555
O4 V1 1_555 1_555
O5 P1 1_555 1_555
O6 P1 1_555 1_555
O7 V2 1_555 1_555
O8 V2 1_555 1_555
O9 P2 1_555 1_555
N1 H1 1_555 1_555
H2 N1 1_555 1_555
H3 N1 1_555 1_555
C1 P1 1_555 1_555
H7 C1 1_555 1_555
H8 C1 1_555 1_555
C2 C1 1_555 1_555
H9 C2 1_555 1_555
H10 C2 1_555 1_555
C3 P2 1_555 1_555
H11 C3 1_555 1_555
H12 C3 1_555 1_555
C4 N1 1_555 1_555
H13 O4 1_555 1_555
V1D O1D 1_555 1_555
V1A O5 1_555 1_555
V1E O5D 1_555 1_555
V2B O6 1_555 1_555
V2C O9 1_555 1_555
V2F O6D 1_555 1_555
V2D O4D 1_555 1_555
V2G O9D 1_555 1_555
P1D O2D 1_555 1_555
P2D O1D 1_555 1_555
O2D V1 1_555 1_555
O3D V1D 1_555 1_555
O4D V1D 1_555 1_555
O4B V2B 1_555 1_555
O5D P1D 1_555 1_555
O5A V1 1_555 1_555
O5E V1D 1_555 1_555
O6D P1D 1_555 1_555
O6B V2 1_555 1_555
O7D V2D 1_555 1_555
O7B V2B 1_555 1_555
O8B V2B 1_555 1_555
O9D P2D 1_555 1_555
O9C V2 1_555 1_555
O9A V2B 1_555 1_555
N1E H1E 1_555 1_555
H2E N1E 1_555 1_555
H3E N1E 1_555 1_555
C1D P1D 1_555 1_555
H7D C1D 1_555 1_555
H8D C1D 1_555 1_555
C2D C1D 1_555 1_555
H9D C2D 1_555 1_555
H10D C2D 1_555 1_555
C3D P2D 1_555 1_555
H11D C3D 1_555 1_555
H12D C3D 1_555 1_555
C4E C4 1_555 1_555
H13D O4D 1_555 1_555
H13B O4B 1_555 1_555
P2 O7 1_555 1_555
C2 C3 1_555 1_555
P2D O7D 1_555 1_555
N1E C4E 1_555 1_555
C2D C3D 1_555 1_555

#END
