
#######################################################################
#
#                 Cambridge Crystallographic Data Centre
#                                CCDC 
#
#######################################################################
#
# If this CIF has been generated from an entry in the Cambridge 
# Structural Database, then it will include bibliographic, chemical, 
# crystal, experimental, refinement or atomic coordinate data resulting 
# from the CCDC's data processing and validation procedures.
#
#######################################################################

data_OCUTAI
_chemical_formula_moiety         '(C6 H17 N1 O9 P2 V2)n'
_symmetry_cell_setting           monoclinic
_symmetry_space_group_name_H-M   'C 2/c'
_symmetry_Int_Tables_number      15
_space_group_name_Hall           '-C 2yc'
loop_
_symmetry_equiv_pos_site_id
_symmetry_equiv_pos_as_xyz
1 x,y,z
2 1/2+x,1/2+y,z
3 -x,y,1/2-z
4 1/2-x,1/2+y,1/2-z
5 -x,-y,-z
6 1/2-x,1/2-y,-z
7 x,-y,1/2+z
8 1/2+x,1/2-y,1/2+z
_cell_length_a                   15.4228(9)
_cell_length_b                   10.2047(6)
_cell_length_c                   18.7078(11)
_cell_angle_alpha                90
_cell_angle_beta                 103.8350(10)
_cell_angle_gamma                90
_cell_volume                     2858.91
loop_
_atom_site_label
_atom_site_type_symbol
_atom_site_fract_x
_atom_site_fract_y
_atom_site_fract_z
_atom_site_U_iso_or_equiv
_atom_site_thermal_displace_type
V1 V 0.16434(2) 0.12191(3) 1.08617(2) 0.0109 Uani
V2 V 0.24587(4) 0.05145(5) 1.28487(3) 0.0108 Uani
P1 P 0.29103(4) 0.38197(5) 1.07722(3) 0.0120 Uani
P2 P 0.66486(4) 0.33569(5) 1.16595(3) 0.0131 Uani
O1 O 0.20873(11) 0.29907(16) 1.07397(9) 0.0169 Uani
O2 O 0.05895(12) 0.14660(18) 1.06552(12) 0.0248 Uani
O3 O 0.21375(16) 0.1469(2) 1.19040(10) 0.0285 Uani
O4 O 0.67016(11) 0.43049(15) 1.10343(9) 0.0144 Uani
O5 O 0.29677(12) 0.43072(16) 1.00092(9) 0.0169 Uani
O6 O 0.29101(12) 0.50534(15) 1.12369(9) 0.0156 Uani
O7 O 0.73269(11) 0.22657(16) 1.16785(9) 0.0161 Uani
O8 O 0.34256(18) -0.0063(3) 1.29112(16) 0.0178 Uani
O10 O 0.67724(16) 0.40470(18) 1.23993(10) 0.0275 Uani
C1 C 0.38812(16) 0.2841(2) 1.11431(13) 0.0166 Uani
H4 H 0.3901 0.2114 1.0797 0.0200 Uiso
H5 H 0.3818 0.2449 1.1612 0.0200 Uiso
C2 C 0.47733(16) 0.3584(2) 1.12867(14) 0.0179 Uani
H6 H 0.4818 0.4188 1.1708 0.0210 Uiso
H7 H 0.4798 0.4113 1.0849 0.0210 Uiso
C3 C 0.55552(16) 0.2625(2) 1.14545(14) 0.0192 Uani
H8 H 0.5503 0.2077 1.1879 0.0230 Uiso
H9 H 0.5503 0.2036 1.1026 0.0230 Uiso
H17 H 0.220(3) 0.213(5) 1.195(2) 0.0540 Uiso
V1A V 0.66434(2) 0.62191(3) 1.08617(2) 0.0109 Uani
V1E V 0.33566(2) 0.37809(3) 0.91383(2) 0.0109 Uani
V2C V 0.25413(4) 0.55145(5) 1.21513(3) 0.0108 Uani
V2B V 0.75413(4) 0.05145(5) 1.21513(3) 0.0108 Uani
V2A V 0.74587(4) 0.55145(5) 1.28487(3) 0.0108 Uani
O4A O 0.17016(11) -0.06951(15) 1.10343(9) 0.0144 Uani
O5E O 0.20323(12) 0.06928(16) 0.99908(9) 0.0169 Uani
O6C O 0.20899(12) 0.00534(15) 1.37631(9) 0.0156 Uani
O7B O 0.26731(11) 0.22657(16) 1.33215(9) 0.0161 Uani
O10A O 0.17724(16) -0.09530(18) 1.23993(10) 0.0275 Uani
N1 N 0.12460(15) 0.8109(2) 0.95471(14) 0.0229 Uani
H1 H 0.1475 0.8386 0.9168 0.0340 Uiso
H2 H 0.1498 0.8573 0.9960 0.0340 Uiso
H3 H 0.0644 0.8234 0.9431 0.0340 Uiso
C4 C 0.14445(19) 0.6685(3) 0.96835(17) 0.0268 Uani
H10 H 0.1968 0.6447 0.9490 0.0320 Uiso
H11 H 0.1601 0.6521 1.0221 0.0320 Uiso
C5 C 0.0678(3) 0.5837(3) 0.9331(2) 0.0449 Uani
H12 H 0.0136 0.6134 0.9481 0.0540 Uiso
H13 H 0.0803 0.4923 0.9502 0.0540 Uiso
C6 C 0.0509(5) 0.5879(6) 0.8508(3) 0.0923 Uani
H14 H 0.0457 0.6793 0.8342 0.1390 Uiso
H15 H -0.0047 0.5413 0.8290 0.1390 Uiso
H16 H 0.1006 0.5459 0.8354 0.1390 Uiso
loop_
_atom_site_aniso_label
_atom_site_aniso_U_11
_atom_site_aniso_U_22
_atom_site_aniso_U_33
_atom_site_aniso_U_23
_atom_site_aniso_U_13
_atom_site_aniso_U_12
V1 0.01451(19) 0.00810(18) 0.01080(19) 0.00083(12) 0.00470(14) 0.00025(13)
V2 0.0136 0.0091 0.0104 -0.00103 0.0041 -0.0013
P1 0.0191 0.0073 0.0111 -7e-05 0.0063 -0.0008
P2 0.0221 0.0072 0.0109 0.0009 0.0057 0.0003
O1 0.021 0.0107 0.0197 0.0018 0.0062 -0.0031
O2 0.0170(8) 0.0176(8) 0.0416(11) 0.0053(8) 0.0108(8) 0.0030(7)
O3 0.0529(13) 0.0137(9) 0.0135(8) 0.0032(7) -0.0030(8) -0.0107(9)
O4 0.0223 0.0091 0.0126 0.002 0.0056 0.0008
O5 0.0288 0.011 0.0133 0.0018 0.0099 0.0012
O6 0.026 0.0091 0.0132 -0.0012 0.0076 -0.0007
O7 0.0216 0.0113 0.0146 0.0025 0.0028 0.0023
O8 0.0114 0.0188 0.0231 -0.0063 0.0039 0.0041
O10 0.0594 0.0122 0.0148 -0.0021 0.0166 -0.0052
C1 0.0221 0.0106 0.0186 0.0015 0.008 0.0009
C2 0.0213 0.0113 0.0219 0.0015 0.0068 0.0014
C3 0.0231 0.0107 0.0264 0.0017 0.0112 0.0011
V1A 0.01451 0.0081 0.0108 0.00083 0.0047 0.00025
V1E 0.01451 0.0081 0.0108 0.00083 0.0047 0.00025
V2C 0.0136 0.0091 0.0104 0.00103 0.0041 0.0013
V2B 0.0136 0.0091 0.0104 0.00103 0.0041 0.0013
V2A 0.0136 0.0091 0.0104 -0.00103 0.0041 -0.0013
O4A 0.0223 0.0091 0.0126 0.002 0.0056 0.0008
O5E 0.0288(9) 0.0110(7) 0.0133(8) 0.0018(6) 0.0099(7) 0.0012(6)
O6C 0.026 0.0091 0.0132 0.0012 0.0076 0.0007
O7B 0.0216 0.0113 0.0146 -0.0025 0.0028 -0.0023
O10A 0.0594 0.0122 0.0148 -0.0021 0.0166 -0.0052
N1 0.0207(10) 0.0143(10) 0.0344(12) 0.0011(9) 0.0077(9) -0.0004(8)
C4 0.0329(14) 0.0157(12) 0.0336(14) 0.0023(10) 0.0115(12) 0.0062(10)
C5 0.047(2) 0.0164(13) 0.071(3) -0.0042(15) 0.0135(18) -0.0056(13)
C6 0.120(5) 0.069(3) 0.066(3) -0.027(3) -0.021(3) -0.024(3)
loop_
_geom_bond_atom_site_label_1
_geom_bond_atom_site_label_2
_geom_bond_site_symmetry_1
_geom_bond_site_symmetry_2
V1 O1 1_555 1_555
V2 O3 1_555 1_555
P1 O1 1_555 1_555
P2 O4 1_555 1_555
O2 V1 1_555 1_555
O3 V1 1_555 1_555
O4 V1A 1_555 1_555
O5 P1 1_555 1_555
O6 P1 1_555 1_555
O7 P2 1_555 1_555
O8 V2 1_555 1_555
O10 P2 1_555 1_555
N1 H1 1_555 1_555
H2 N1 1_555 1_555
H3 N1 1_555 1_555
C1 P1 1_555 1_555
H4 C1 1_555 1_555
H5 C1 1_555 1_555
C2 C1 1_555 1_555
H6 C2 1_555 1_555
H7 C2 1_555 1_555
C3 P2 1_555 1_555
H8 C3 1_555 1_555
H9 C3 1_555 1_555
C4 N1 1_555 1_555
H10 C4 1_555 1_555
H11 C4 1_555 1_555
C5 C4 1_555 1_555
H12 C5 1_555 1_555
H13 C5 1_555 1_555
C6 C5 1_555 1_555
H14 C6 1_555 1_555
H15 C6 1_555 1_555
H16 C6 1_555 1_555
H17 O3 1_555 1_555
V1E O5 1_555 1_555
V2C O6 1_555 1_555
V2B O7 1_555 1_555
V2A O10 1_555 1_555
O4A V1 1_555 1_555
O5E V1 1_555 1_555
O6C V2 1_555 1_555
O7B V2 1_555 1_555
O10A V2 1_555 1_555
C2 C3 1_555 1_555

#END
