
#######################################################################
#
#                 Cambridge Crystallographic Data Centre
#                                CCDC 
#
#######################################################################
#
# If this CIF has been generated from an entry in the Cambridge 
# Structural Database, then it will include bibliographic, chemical, 
# crystal, experimental, refinement or atomic coordinate data resulting 
# from the CCDC's data processing and validation procedures.
#
#######################################################################

data_REFHUH
_chemical_formula_moiety         '(C21 H30 Cd1 N4 O7)n'
_symmetry_cell_setting           monoclinic
_symmetry_space_group_name_H-M   'P 21/c'
_symmetry_Int_Tables_number      14
_space_group_name_Hall           '-P 2ybc'
loop_
_symmetry_equiv_pos_site_id
_symmetry_equiv_pos_as_xyz
1 x,y,z
2 -x,1/2+y,1/2-z
3 -x,-y,-z
4 x,1/2-y,1/2+z
_cell_length_a                   13.875(3)
_cell_length_b                   12.242(2)
_cell_length_c                   18.408(6)
_cell_angle_alpha                90
_cell_angle_beta                 129.934(18)
_cell_angle_gamma                90
_cell_volume                     2397.54
loop_
_atom_site_label
_atom_site_type_symbol
_atom_site_fract_x
_atom_site_fract_y
_atom_site_fract_z
Cd1 Cd 1.04397(4) 0.14904(3) 0.50913(3)
N1 N 0.3069(4) 0.1290(4) 0.4528(3)
C1 C 0.2702(5) 0.1402(5) 0.5046(5)
H1 H 0.3228 0.1622 0.5676
C2 C 0.6550(6) 0.1506(5) 0.6120(4)
H2 H 0.7241 0.1437 0.6761
O1 O 0.8857(4) 0.0230(3) 0.4048(3)
C3 C 0.4312(5) 0.1474(4) 0.4852(4)
C4 C 0.6704(5) 0.1753(5) 0.5481(4)
N2 N 0.9464(5) 0.1816(4) 0.5695(4)
N3 N 0.7945(4) 0.1869(4) 0.5773(4)
O2 O 0.8996(4) -0.1675(3) -0.0235(3)
C5 C 0.8258(6) 0.1684(5) 0.5226(5)
H3 H 0.7686 0.1485 0.4591
C6 C 0.5342(6) 0.1360(5) 0.5798(4)
H4 H 0.5223 0.1183 0.6227
O3 O 0.7536(4) -0.1105(4) 0.3302(3)
N4 N 0.1505(4) 0.1160(4) 0.4549(4)
O4 O 1.0720(4) -0.2094(4) 0.1185(3)
C7 C 0.4483(6) 0.1752(5) 0.4221(4)
H5 H 0.3793 0.1848 0.3584
C8 C 0.9971(6) 0.2044(6) 0.6603(5)
H6 H 1.0822 0.2155 0.7104
C9 C 0.9043(6) 0.2086(5) 0.6669(4)
H7 H 0.9137 0.2230 0.7207
C10 C 0.2033(5) 0.0952(5) 0.3647(4)
H8 H 0.1996 0.0794 0.3136
C11 C 0.1087(6) 0.0891(5) 0.3662(4)
H9 H 0.0266 0.0696 0.3149
C12 C 0.5684(6) 0.1891(6) 0.4534(5)
H10 H 0.5805 0.2076 0.4108
C13 C 0.9841(7) -0.1440(5) 0.0605(6)
C14 C 0.9884(8) -0.0317(6) 0.0983(6)
H11 H 1.0380 -0.0371 0.1664
H12 H 1.0316 0.0182 0.0868
C15 C 0.6666(15) -0.0357(15) 0.1285(10)
H13 H 0.6125 -0.0940 0.0852
H14 H 0.7392 -0.0709 0.1852
C16 C 0.6903(7) 0.0665(6) 0.2549(5)
H15 H 0.7391 0.1194 0.2513
H16 H 0.6477 0.1057 0.2729
C17 C 0.7808(5) -0.0147(6) 0.3331(4)
C18 C 0.7923(13) -0.0586(8) 0.0764(10)
H17 H 0.7387 -0.1097 0.0247
H18 H 0.8511 -0.0993 0.1347
C19 C 0.8630(13) 0.0168(12) 0.0567(14)
H19 H 0.8133 0.0259 -0.0112
H20 H 0.8750 0.0882 0.0842
C20 C 0.714(2) 0.0196(12) 0.085(3)
H27 H 0.7652 0.0818 0.1234
H28 H 0.6436 0.0462 0.0224
C21 C 0.5932(11) 0.0199(8) 0.1587(6)
H29 H 0.5428 -0.0338 0.1598
H30 H 0.5381 0.0771 0.1142
Cd1B Cd 0.95603(4) -0.14904(3) 0.49087(3)
Cd1A Cd 0.95603(4) -0.35096(3) -0.00913(3)
Cd1_2 Cd 0.04397(4) 0.14904(3) 0.50913(3)
O1B O 1.1143(4) -0.0230(3) 0.5952(3)
O2A O 1.1004(4) 0.3325(3) 0.5235(3)
O3B O 1.2464(4) 0.1105(4) 0.6698(3)
N4_2 N 1.1505(4) 0.1160(4) 0.4549(4)
O4A O 0.9280(4) 0.2906(4) 0.3815(3)
O5 O 0.3046(5) 0.4210(4) 0.6935(4)
H21 H 0.2328 0.3911 0.6551
H22 H 0.3224 0.4252 0.7471
O6 O 0.6854(5) 0.3564(4) 0.3185(4)
H23 H 0.7576 0.3403 0.3367
H24 H 0.6725 0.3166 0.3494
O7 O 0.4539(4) 0.2396(4) 0.7315(3)
H25 H 0.5262 0.2103 0.7685
H26 H 0.4025 0.1973 0.7281
loop_
_geom_bond_atom_site_label_1
_geom_bond_atom_site_label_2
_geom_bond_site_symmetry_1
_geom_bond_site_symmetry_2
Cd1 O1 1_555 1_555
N1 C1 1_555 1_555
C1 H1 1_555 1_555
C2 H2 1_555 1_555
O1 C17 1_555 1_555
C3 N1 1_555 1_555
C4 C2 1_555 1_555
N2 Cd1 1_555 1_555
N3 C4 1_555 1_555
O2 C13 1_555 1_555
C5 N2 1_555 1_555
H3 C5 1_555 1_555
C6 C2 1_555 1_555
H4 C6 1_555 1_555
O3 C17 1_555 1_555
N4 C1 1_555 1_555
O4 C13 1_555 1_555
C7 C3 1_555 1_555
H5 C7 1_555 1_555
C8 N2 1_555 1_555
H6 C8 1_555 1_555
C9 N3 1_555 1_555
H7 C9 1_555 1_555
C10 N1 1_555 1_555
H8 C10 1_555 1_555
C11 N4 1_555 1_555
H9 C11 1_555 1_555
C12 C4 1_555 1_555
H10 C12 1_555 1_555
C13 C14 1_555 1_555
C14 H11 1_555 1_555
H12 C14 1_555 1_555
C15 H13 1_555 1_555
H14 C15 1_555 1_555
C16 H15 1_555 1_555
H16 C16 1_555 1_555
C17 C16 1_555 1_555
C18 H17 1_555 1_555
H18 C18 1_555 1_555
C19 C14 1_555 1_555
H19 C19 1_555 1_555
H20 C19 1_555 1_555
O5 H21 1_555 1_555
H22 O5 1_555 1_555
O6 H23 1_555 1_555
H24 O6 1_555 1_555
O7 H25 1_555 1_555
H26 O7 1_555 1_555
C20 C15 1_555 1_555
H27 C20 1_555 1_555
H28 C20 1_555 1_555
C21 C15 1_555 1_555
H29 C21 1_555 1_555
H30 C21 1_555 1_555
Cd1B O1 1_555 1_555
Cd1A O2 1_555 1_555
Cd1_2 N4 1_555 1_555
O1B Cd1 1_555 1_555
O2A Cd1 1_555 1_555
O3B Cd1 1_555 1_555
N4_2 Cd1 1_555 1_555
O4A Cd1 1_555 1_555
C3 C6 1_555 1_555
N3 C5 1_555 1_555
O3 Cd1B 1_555 1_555
O4 Cd1A 1_555 1_555
C7 C12 1_555 1_555
C8 C9 1_555 1_555
C10 C11 1_555 1_555
C16 C21 1_555 1_555
C18 C19 1_555 1_555
C18 C20 1_555 1_555
Cd1B O1B 1_555 1_555

#END
