
#######################################################################
#
#                 Cambridge Crystallographic Data Centre
#                                CCDC 
#
#######################################################################
#
# If this CIF has been generated from an entry in the Cambridge 
# Structural Database, then it will include bibliographic, chemical, 
# crystal, experimental, refinement or atomic coordinate data resulting 
# from the CCDC's data processing and validation procedures.
#
#######################################################################

data_DAFSEL
_chemical_formula_moiety         '(C21 H12 N6 O10 Zn3)n'
_symmetry_cell_setting           monoclinic
_symmetry_space_group_name_H-M   'P 21/c'
_symmetry_Int_Tables_number      14
_space_group_name_Hall           '-P 2ybc'
loop_
_symmetry_equiv_pos_site_id
_symmetry_equiv_pos_as_xyz
1 x,y,z
2 -x,1/2+y,1/2-z
3 -x,-y,-z
4 x,1/2-y,1/2+z
_cell_length_a                   9.1212(2)
_cell_length_b                   18.8576(4)
_cell_length_c                   8.1265(2)
_cell_angle_alpha                90
_cell_angle_beta                 111.9630(10)
_cell_angle_gamma                90
_cell_volume                     1296.35
loop_
_atom_site_label
_atom_site_type_symbol
_atom_site_fract_x
_atom_site_fract_y
_atom_site_fract_z
Zn1 Zn 0.0000 0.5000 0.5000
Zn2 Zn 0.30126(4) 0.529655(18) 0.33651(5)
O1 O 0.0579(3) 0.60235(11) 0.4647(3)
O2 O 0.2291(3) 0.62633(12) 0.3346(3)
O3 O -0.2143(3) 0.94843(12) 0.3264(3)
O4 O -0.0170(3) 0.97738(12) 0.2471(3)
N1 N 0.2389(3) 0.47231(15) 0.6416(4)
N2 N 0.3519(3) 0.48378(13) 0.5786(3)
N3 N 0.4889(3) 0.45855(14) 0.6924(4)
C1 C 0.1253(3) 0.64376(17) 0.3975(4)
C2 C 0.0817(4) 0.72038(16) 0.3910(4)
C3 C 0.1721(4) 0.77315(17) 0.3561(4)
H1 H 0.2659 0.7614 0.3424
C4 C 0.1237(4) 0.84289(17) 0.3416(4)
H2 H 0.1856 0.8780 0.3198
C5 C -0.0174(4) 0.86092(16) 0.3594(4)
C6 C -0.1033(4) 0.80868(18) 0.4024(5)
H3 H -0.1951 0.8207 0.4204
C7 C -0.0543(4) 0.73923(18) 0.4189(5)
H4 H -0.1127 0.7046 0.4489
C8 C -0.0841(4) 0.93374(17) 0.3108(4)
C9 C 0.3042(4) 0.4397(2) 0.7968(5)
H5 H 0.2525 0.4254 0.8705
C10 C 0.4608(4) 0.4308(2) 0.8286(5)
H6 H 0.5350 0.4093 0.9278
Zn2B Zn -0.30126(4) 0.470345(18) 0.66349(5)
O1B O -0.0579(3) 0.39765(11) 0.5353(3)
O2B O -0.2291(3) 0.37367(12) 0.6654(3)
O3B O 0.2143(3) 0.05157(12) 0.6736(3)
O4B O 0.0170(3) 0.02262(12) 0.7529(3)
N1B N -0.2389(3) 0.52769(15) 0.3584(4)
N2B N -0.3519(3) 0.51622(13) 0.4214(3)
N3B N -0.4889(3) 0.54145(14) 0.3076(4)
C1B C -0.1253(3) 0.35624(17) 0.6025(4)
C2B C -0.0817(4) 0.27962(16) 0.6090(4)
C3B C -0.1721(4) 0.22685(17) 0.6439(4)
H1B H -0.2659 0.2386 0.6576
C4B C -0.1237(4) 0.15711(17) 0.6584(4)
H2B H -0.1856 0.1220 0.6802
C5B C 0.0174(4) 0.13908(16) 0.6406(4)
C6B C 0.1033(4) 0.19132(18) 0.5976(5)
H3B H 0.1951 0.1793 0.5796
C7B C 0.0543(4) 0.26077(18) 0.5811(5)
H4B H 0.1127 0.2954 0.5511
C8B C 0.0841(4) 0.06626(17) 0.6892(4)
C9B C -0.3042(4) 0.5603(2) 0.2032(5)
H5B H -0.2525 0.5746 0.1295
C10B C -0.4608(4) 0.5692(2) 0.1714(5)
H6B H -0.5350 0.5907 0.0722
Zn1A Zn 0.0000 0.0000 1.0000
Zn1A_2 Zn 0.0000 1.0000 0.0000
Zn2_2 Zn -0.69874(4) 0.529655(18) 0.33651(5)
Zn2A Zn -0.30126(4) 1.029655(18) 0.16349(5)
Zn2B_2 Zn 0.69874(4) 0.470345(18) 0.66349(5)
Zn2C Zn 0.30126(4) -0.029655(18) 0.83651(5)
O3A O 0.2143(3) 0.44843(12) 0.1736(3)
O3C O -0.2143(3) 0.55157(12) 0.8264(3)
O4A O 0.0170(3) 0.47738(12) 0.2529(3)
O4C O -0.0170(3) 0.52262(12) 0.7471(3)
N3_2 N -0.5111(3) 0.45855(14) 0.6924(4)
N3B_2 N 0.5111(3) 0.54145(14) 0.3076(4)
O5 O 0.4772(10) 0.6627(7) 0.7204(13)
O6 O 0.5840(11) 0.7034(7) 0.5276(15)
C11 C 0.5300(13) 0.6839(9) 0.6245(18)
loop_
_geom_bond_atom_site_label_1
_geom_bond_atom_site_label_2
_geom_bond_site_symmetry_1
_geom_bond_site_symmetry_2
Zn1 O1 1_555 1_555
Zn2 O2 1_555 1_555
O1 C1 1_555 1_555
O2 C1 1_555 1_555
O3 C8 1_555 1_555
O4 C8 1_555 1_555
N1 Zn1 1_555 1_555
N2 Zn2 1_555 1_555
N3 N2 1_555 1_555
C1 C2 1_555 1_555
C2 C3 1_555 1_555
C3 H1 1_555 1_555
C4 C3 1_555 1_555
H2 C4 1_555 1_555
C5 C4 1_555 1_555
C6 C5 1_555 1_555
H3 C6 1_555 1_555
C7 C2 1_555 1_555
H4 C7 1_555 1_555
C8 C5 1_555 1_555
C9 N1 1_555 1_555
H5 C9 1_555 1_555
C10 N3 1_555 1_555
H6 C10 1_555 1_555
O5 C11 1_555 1_555
O6 C11 1_555 1_555
Zn2B O2B 1_555 1_555
O1B Zn1 1_555 1_555
O2B C1B 1_555 1_555
O3B C8B 1_555 1_555
O4B C8B 1_555 1_555
N1B Zn1 1_555 1_555
N2B Zn2B 1_555 1_555
N3B N2B 1_555 1_555
C1B O1B 1_555 1_555
C2B C1B 1_555 1_555
C3B C2B 1_555 1_555
H1B C3B 1_555 1_555
C4B C3B 1_555 1_555
H2B C4B 1_555 1_555
C5B C4B 1_555 1_555
C6B C5B 1_555 1_555
H3B C6B 1_555 1_555
C7B C2B 1_555 1_555
H4B C7B 1_555 1_555
C8B C5B 1_555 1_555
C9B N1B 1_555 1_555
H5B C9B 1_555 1_555
C10B N3B 1_555 1_555
H6B C10B 1_555 1_555
Zn1A O4B 1_555 1_555
Zn1A_2 O4 1_555 1_555
Zn2_2 N3B 1_555 1_555
Zn2A O3 1_555 1_555
Zn2B_2 N3 1_555 1_555
Zn2C O3B 1_555 1_555
O3A Zn2 1_555 1_555
O3C Zn2B 1_555 1_555
O4A Zn1 1_555 1_555
O4C Zn1 1_555 1_555
N3_2 Zn2B 1_555 1_555
N3B_2 Zn2 1_555 1_555
N1 N2 1_555 1_555
C6 C7 1_555 1_555
C9 C10 1_555 1_555
N1B N2B 1_555 1_555
C6B C7B 1_555 1_555
C9B C10B 1_555 1_555

#END
