
#######################################################################
#
#                 Cambridge Crystallographic Data Centre
#                                CCDC 
#
#######################################################################
#
# If this CIF has been generated from an entry in the Cambridge 
# Structural Database, then it will include bibliographic, chemical, 
# crystal, experimental, refinement or atomic coordinate data resulting 
# from the CCDC's data processing and validation procedures.
#
#######################################################################

data_DAFSOV
_chemical_formula_moiety         '(C21 H12 N6 O10 Zn3)n'
_symmetry_cell_setting           monoclinic
_symmetry_space_group_name_H-M   'P 21/c'
_symmetry_Int_Tables_number      14
_space_group_name_Hall           '-P 2ybc'
loop_
_symmetry_equiv_pos_site_id
_symmetry_equiv_pos_as_xyz
1 x,y,z
2 -x,1/2+y,1/2-z
3 -x,-y,-z
4 x,1/2-y,1/2+z
_cell_length_a                   9.267(3)
_cell_length_b                   19.041(6)
_cell_length_c                   8.292(3)
_cell_angle_alpha                90
_cell_angle_beta                 111.164(4)
_cell_angle_gamma                90
_cell_volume                     1364.46
loop_
_atom_site_label
_atom_site_type_symbol
_atom_site_fract_x
_atom_site_fract_y
_atom_site_fract_z
Zn1 Zn 1.0000 0.5000 1.0000
Zn2 Zn 1.30240(7) 0.46983(4) 0.83751(9)
O1 O 1.0606(5) 0.3972(2) 0.9702(6)
O2 O 1.2328(5) 0.3724(2) 0.8408(6)
O3 O 0.7871(5) 0.0496(2) 0.8306(6)
O4 O 0.9817(6) 0.0207(2) 0.7473(6)
N1 N 1.2368(6) 0.5291(3) 1.1391(7)
N2 N 1.3514(5) 0.5171(3) 1.0768(6)
N3 N 1.4880(6) 0.5417(3) 1.1911(7)
C1 C 1.1286(6) 0.3550(3) 0.9044(8)
C2 C 1.0875(7) 0.2776(3) 0.8993(8)
C3 C 0.9507(7) 0.2588(3) 0.9303(9)
H1 H 0.8940 0.2931 0.9612
C4 C 0.9020(7) 0.1888(3) 0.9140(9)
H2 H 0.8134 0.1769 0.9356
C5 C 0.9839(7) 0.1369(3) 0.8660(8)
C6 C 1.1257(7) 0.1549(3) 0.8457(9)
H3 H 1.1857 0.1200 0.8224
C7 C 1.1745(7) 0.2246(3) 0.8609(8)
H4 H 1.2661 0.2360 0.8452
C8 C 0.9178(7) 0.0644(3) 0.8162(8)
C9 C 1.3026(8) 0.5607(4) 1.2932(9)
H5 H 1.2512 0.5745 1.3658
C10 C 1.4579(8) 0.5693(4) 1.3264(9)
H6 H 1.5293 0.5902 1.4239
Zn2B Zn 0.69760(7) 0.53017(4) 1.16249(9)
O1B O 0.9394(5) 0.6028(2) 1.0298(6)
O2B O 0.7672(5) 0.6276(2) 1.1592(6)
O3B O 1.2129(5) 0.9504(2) 1.1694(6)
O4B O 1.0183(6) 0.9793(2) 1.2527(6)
N1B N 0.7632(6) 0.4709(3) 0.8609(7)
N2B N 0.6486(5) 0.4829(3) 0.9232(6)
N3B N 0.5120(6) 0.4583(3) 0.8089(7)
C1B C 0.8714(6) 0.6450(3) 1.0956(8)
C2B C 0.9125(7) 0.7224(3) 1.1007(8)
C3B C 1.0493(7) 0.7412(3) 1.0697(9)
H1B H 1.1060 0.7069 1.0388
C4B C 1.0980(7) 0.8112(3) 1.0860(9)
H2B H 1.1866 0.8231 1.0644
C5B C 1.0161(7) 0.8631(3) 1.1340(8)
C6B C 0.8743(7) 0.8451(3) 1.1543(9)
H3B H 0.8143 0.8800 1.1776
C7B C 0.8255(7) 0.7754(3) 1.1391(8)
H4B H 0.7339 0.7640 1.1548
C8B C 1.0822(7) 0.9356(3) 1.1838(8)
C9B C 0.6974(8) 0.4393(4) 0.7068(9)
H5B H 0.7488 0.4255 0.6342
C10B C 0.5421(8) 0.4307(4) 0.6736(9)
H6B H 0.4707 0.4098 0.5761
Zn1A Zn 1.0000 0.0000 0.5000
Zn1A_2 Zn 1.0000 1.0000 1.5000
Zn2_2 Zn 0.30240(7) 0.46983(4) 0.83751(9)
Zn2A Zn 0.69760(7) -0.03017(4) 0.66249(9)
Zn2B_2 Zn 1.69760(7) 0.53017(4) 1.16249(9)
Zn2C Zn 1.30240(7) 1.03017(4) 1.33751(9)
O3A O 1.2129(5) 0.5496(2) 0.6694(6)
O3C O 0.7871(5) 0.4504(2) 1.3306(6)
O4A O 1.0183(6) 0.5207(2) 0.7527(6)
O4C O 0.9817(6) 0.4793(2) 1.2473(6)
N3_2 N 0.4880(6) 0.5417(3) 1.1911(7)
N3B_2 N 1.5120(6) 0.4583(3) 0.8089(7)
O5 O 1.4782(12) 0.3381(7) 1.2174(16)
O6 O 1.5873(14) 0.2943(9) 1.0358(18)
C11 C 1.5328(16) 0.3120(11) 1.130(3)
loop_
_geom_bond_atom_site_label_1
_geom_bond_atom_site_label_2
_geom_bond_site_symmetry_1
_geom_bond_site_symmetry_2
Zn1 O1 1_555 1_555
Zn2 O2 1_555 1_555
O1 C1 1_555 1_555
O2 C1 1_555 1_555
O3 C8 1_555 1_555
O4 C8 1_555 1_555
N1 Zn1 1_555 1_555
N2 Zn2 1_555 1_555
N3 N2 1_555 1_555
C1 C2 1_555 1_555
C2 C3 1_555 1_555
C3 H1 1_555 1_555
C4 C3 1_555 1_555
H2 C4 1_555 1_555
C5 C4 1_555 1_555
C6 C5 1_555 1_555
H3 C6 1_555 1_555
C7 C2 1_555 1_555
H4 C7 1_555 1_555
C8 C5 1_555 1_555
C9 N1 1_555 1_555
H5 C9 1_555 1_555
C10 N3 1_555 1_555
H6 C10 1_555 1_555
O5 C11 1_555 1_555
O6 C11 1_555 1_555
Zn2B O2B 1_555 1_555
O1B Zn1 1_555 1_555
O2B C1B 1_555 1_555
O3B C8B 1_555 1_555
O4B C8B 1_555 1_555
N1B Zn1 1_555 1_555
N2B Zn2B 1_555 1_555
N3B N2B 1_555 1_555
C1B O1B 1_555 1_555
C2B C1B 1_555 1_555
C3B C2B 1_555 1_555
H1B C3B 1_555 1_555
C4B C3B 1_555 1_555
H2B C4B 1_555 1_555
C5B C4B 1_555 1_555
C6B C5B 1_555 1_555
H3B C6B 1_555 1_555
C7B C2B 1_555 1_555
H4B C7B 1_555 1_555
C8B C5B 1_555 1_555
C9B N1B 1_555 1_555
H5B C9B 1_555 1_555
C10B N3B 1_555 1_555
H6B C10B 1_555 1_555
Zn1A O4 1_555 1_555
Zn1A_2 O4B 1_555 1_555
Zn2_2 N3B 1_555 1_555
Zn2A O3 1_555 1_555
Zn2B_2 N3 1_555 1_555
Zn2C O3B 1_555 1_555
O3A Zn2 1_555 1_555
O3C Zn2B 1_555 1_555
O4A Zn1 1_555 1_555
O4C Zn1 1_555 1_555
N3_2 Zn2B 1_555 1_555
N3B_2 Zn2 1_555 1_555
N1 N2 1_555 1_555
C6 C7 1_555 1_555
C9 C10 1_555 1_555
N1B N2B 1_555 1_555
C6B C7B 1_555 1_555
C9B C10B 1_555 1_555

#END
