
#######################################################################
#
#                 Cambridge Crystallographic Data Centre
#                                CCDC 
#
#######################################################################
#
# If this CIF has been generated from an entry in the Cambridge 
# Structural Database, then it will include bibliographic, chemical, 
# crystal, experimental, refinement or atomic coordinate data resulting 
# from the CCDC's data processing and validation procedures.
#
#######################################################################

data_MAFMOY01
_chemical_formula_moiety         '(C20 H12 N6 O8 Zn3)n'
_symmetry_cell_setting           monoclinic
_symmetry_space_group_name_H-M   'P 21/c'
_symmetry_Int_Tables_number      14
_space_group_name_Hall           '-P 2ybc'
loop_
_symmetry_equiv_pos_site_id
_symmetry_equiv_pos_as_xyz
1 x,y,z
2 -x,1/2+y,1/2-z
3 -x,-y,-z
4 x,1/2-y,1/2+z
_cell_length_a                   8.6890(2)
_cell_length_b                   19.7634(5)
_cell_length_c                   7.9614(2)
_cell_angle_alpha                90
_cell_angle_beta                 113.798(2)
_cell_angle_gamma                90
_cell_volume                     1250.92
loop_
_atom_site_label
_atom_site_type_symbol
_atom_site_fract_x
_atom_site_fract_y
_atom_site_fract_z
Zn1 Zn 0.5000 0.5000 1.0000
Zn2 Zn 0.22151(4) 0.480400(16) 0.53543(5)
O1 O 0.4601(3) 0.40630(11) 0.8762(3)
O2 O 0.3108(3) 0.38984(11) 0.5767(3)
O3 O 0.6910(3) 0.06850(11) 0.9965(3)
O4 O 0.4777(3) 0.04370(11) 0.7357(3)
N1 N 0.2432(3) 0.52423(13) 0.8990(4)
N2 N 0.1361(3) 0.50847(13) 0.7294(4)
N3 N -0.0154(3) 0.53350(14) 0.6995(4)
C1 C 0.4036(4) 0.36988(15) 0.7374(4)
C2 C 0.4463(4) 0.29614(15) 0.7638(4)
C3 C 0.5876(4) 0.27520(16) 0.9137(5)
H1 H 0.6571 0.3071 0.9947
C4 C 0.6259(4) 0.20719(16) 0.9437(5)
H2 H 0.7220 0.1936 1.0435
C5 C 0.5216(4) 0.15918(15) 0.8254(4)
C6 C 0.3799(4) 0.18017(15) 0.6759(5)
H3 H 0.3094 0.1481 0.5962
C7 C 0.3420(4) 0.24820(15) 0.6438(5)
H4 H 0.2472 0.2618 0.5425
C8 C 0.5646(4) 0.08561(15) 0.8539(5)
C9 C 0.1601(5) 0.5589(2) 0.9781(5)
H5 H 0.2046 0.5762 1.0968
C10 C -0.0032(5) 0.5648(2) 0.8533(6)
H6 H -0.0898 0.5866 0.8721
Zn2B Zn -0.22151(4) 0.519600(16) 0.46457(5)
O1B O -0.4601(3) 0.59370(11) 0.1238(3)
O2B O -0.3108(3) 0.61016(11) 0.4233(3)
O3B O -0.6910(3) 0.93150(11) 0.0035(3)
O4B O -0.4777(3) 0.95630(11) 0.2643(3)
N1B N -0.2432(3) 0.47577(13) 0.1010(4)
N2B N -0.1361(3) 0.49153(13) 0.2706(4)
N3B N 0.0154(3) 0.46650(14) 0.3005(4)
C1B C -0.4036(4) 0.63012(15) 0.2626(4)
C2B C -0.4463(4) 0.70386(15) 0.2362(4)
C3B C -0.5876(4) 0.72480(16) 0.0863(5)
H1B H -0.6571 0.6929 0.0053
C4B C -0.6259(4) 0.79281(16) 0.0563(5)
H2B H -0.7220 0.8064 -0.0435
C5B C -0.5216(4) 0.84082(15) 0.1746(4)
C6B C -0.3799(4) 0.81983(15) 0.3241(5)
H3B H -0.3094 0.8519 0.4038
C7B C -0.3420(4) 0.75180(15) 0.3562(5)
H4B H -0.2472 0.7382 0.4575
C8B C -0.5646(4) 0.91439(15) 0.1461(5)
C9B C -0.1601(5) 0.4411(2) 0.0219(5)
H5B H -0.2046 0.4238 -0.0968
C10B C 0.0032(5) 0.4352(2) 0.1467(6)
H6B H 0.0898 0.4134 0.1279
Zn1_2 Zn -0.5000 0.5000 0.0000
Zn1A Zn -0.5000 1.0000 0.5000
Zn1A_2 Zn 0.5000 0.0000 0.5000
Zn2A Zn 0.77849(4) -0.019600(16) 0.96457(5)
Zn2C Zn -0.77849(4) 1.019600(16) 0.03543(5)
O1B_2 O 0.5399(3) 0.59370(11) 1.1238(3)
O3A O 0.3090(3) 0.56850(11) 0.5035(3)
O3C O -0.3090(3) 0.43150(11) 0.4965(3)
O4A O 0.5223(3) 0.54370(11) 0.7643(3)
O4C O 0.4777(3) 0.45630(11) 1.2357(3)
N1B_2 N 0.7568(3) 0.47577(13) 1.1010(4)
loop_
_geom_bond_atom_site_label_1
_geom_bond_atom_site_label_2
_geom_bond_site_symmetry_1
_geom_bond_site_symmetry_2
Zn1 O1 1_555 1_555
Zn2 O2 1_555 1_555
O1 C1 1_555 1_555
O2 C1 1_555 1_555
O3 C8 1_555 1_555
O4 C8 1_555 1_555
N1 Zn1 1_555 1_555
N2 Zn2 1_555 1_555
N3 N2 1_555 1_555
C1 C2 1_555 1_555
C2 C3 1_555 1_555
C3 H1 1_555 1_555
C4 C3 1_555 1_555
H2 C4 1_555 1_555
C5 C4 1_555 1_555
C6 C5 1_555 1_555
H3 C6 1_555 1_555
C7 C2 1_555 1_555
H4 C7 1_555 1_555
C8 C5 1_555 1_555
C9 N1 1_555 1_555
H5 C9 1_555 1_555
C10 N3 1_555 1_555
H6 C10 1_555 1_555
Zn2B N3 1_555 1_555
O1B C1B 1_555 1_555
O2B Zn2B 1_555 1_555
O3B C8B 1_555 1_555
O4B C8B 1_555 1_555
N1B N2B 1_555 1_555
N2B Zn2B 1_555 1_555
N3B Zn2 1_555 1_555
C1B O2B 1_555 1_555
C2B C1B 1_555 1_555
C3B C2B 1_555 1_555
H1B C3B 1_555 1_555
C4B C3B 1_555 1_555
H2B C4B 1_555 1_555
C5B C4B 1_555 1_555
C6B C5B 1_555 1_555
H3B C6B 1_555 1_555
C7B C2B 1_555 1_555
H4B C7B 1_555 1_555
C8B C5B 1_555 1_555
C9B N1B 1_555 1_555
H5B C9B 1_555 1_555
C10B N3B 1_555 1_555
H6B C10B 1_555 1_555
Zn1_2 O1B 1_555 1_555
Zn1A O4B 1_555 1_555
Zn1A_2 O4 1_555 1_555
Zn2A O3 1_555 1_555
Zn2C O3B 1_555 1_555
O1B_2 Zn1 1_555 1_555
O3A Zn2 1_555 1_555
O3C Zn2B 1_555 1_555
O4A Zn1 1_555 1_555
O4C Zn1 1_555 1_555
N1B_2 Zn1 1_555 1_555
N1 N2 1_555 1_555
C6 C7 1_555 1_555
C9 C10 1_555 1_555
N1B Zn1_2 1_555 1_555
N2B N3B 1_555 1_555
C6B C7B 1_555 1_555
C9B C10B 1_555 1_555

#END
