
#######################################################################
#
#                 Cambridge Crystallographic Data Centre
#                                CCDC 
#
#######################################################################
#
# If this CIF has been generated from an entry in the Cambridge 
# Structural Database, then it will include bibliographic, chemical, 
# crystal, experimental, refinement or atomic coordinate data resulting 
# from the CCDC's data processing and validation procedures.
#
#######################################################################

data_LACNUB
_chemical_formula_moiety         '(C162 H90 Cu6 O30)n'
_symmetry_cell_setting           monoclinic
_symmetry_space_group_name_H-M   'C 2/c'
_symmetry_Int_Tables_number      15
_space_group_name_Hall           '-C 2yc'
loop_
_symmetry_equiv_pos_site_id
_symmetry_equiv_pos_as_xyz
1 x,y,z
2 -x,y,1/2-z
3 1/2+x,1/2+y,z
4 1/2-x,1/2+y,1/2-z
5 -x,-y,-z
6 x,-y,1/2+z
7 1/2-x,1/2-y,-z
8 1/2+x,1/2-y,1/2+z
_cell_length_a                   32.0784(13)
_cell_length_b                   18.4491(4)
_cell_length_c                   41.2495(15)
_cell_angle_alpha                90
_cell_angle_beta                 118.550(5)
_cell_angle_gamma                90
_cell_volume                     21443.7
loop_
_atom_site_label
_atom_site_type_symbol
_atom_site_fract_x
_atom_site_fract_y
_atom_site_fract_z
Cu1 Cu 0.21781(3) 0.17692(4) 0.221788(18)
Cu2 Cu 0.27816(3) 0.25088(4) 0.280905(18)
Cu3 Cu -0.00605(2) -0.03609(5) 0.279879(19)
O1 O 0.26109(16) -0.1665(2) 0.24829(11)
O2 O 0.31278(15) -0.2298(2) 0.29822(11)
O3 O 0.23385(15) 0.2317(2) 0.29916(10)
O4 O 0.30635(15) 0.1532(2) 0.29937(11)
O5 O 0.04557(14) -0.1090(3) 0.29632(11)
O6 O 0.18310(14) 0.1685(3) 0.24977(10)
O7 O 0.25600(15) 0.0933(2) 0.24852(10)
O8 O 0.05396(15) 0.0358(3) 0.25045(11)
O9 O 0.04207(17) 0.0402(3) 0.29915(13)
O10 O 0.05220(14) -0.1121(3) 0.24452(10)
O11 O 0.23654(15) -0.3016(3) 0.29581(12)
O12 O 0.1720(2) 0.1182(4) 0.17466(15)
H1 H 0.1778 0.0759 0.1688
H2 H 0.1443 0.1323 0.1580
O13 O 0.18448(15) -0.2391(3) 0.24471(12)
O14 O 0.32708(19) 0.3037(3) 0.33083(14)
H3 H 0.3229 0.3109 0.3503
H4 H 0.3548 0.3221 0.3354
O15 O -0.0111(3) -0.0381(4) 0.32889(17)
H5 H -0.0048 -0.0005 0.3447
H6 H -0.0200 -0.0767 0.3378
C1 C 0.06530(17) 0.0554(4) 0.28137(14)
C2 C 0.20119(16) -0.2592(3) 0.27753(13)
C3 C 0.2248(2) -0.2570(3) 0.46139(16)
C4 C 0.19260(19) 0.2159(3) 0.42408(15)
C5 C 0.29603(15) -0.1705(3) 0.28019(14)
C6 C 0.31650(19) -0.1013(3) 0.29922(14)
C7 C 0.1680(2) 0.1759(3) 0.29978(15)
C8 C 0.28755(19) 0.1002(3) 0.28127(13)
C9 C 0.46940(18) -0.0131(3) 0.46231(14)
C10 C 0.2195(2) 0.2341(3) 0.46158(16)
C11 C 0.12867(18) 0.1323(3) 0.28228(14)
H7 H 0.1187 0.1174 0.2581
C12 C 0.29806(18) -0.0361(3) 0.28154(15)
H8 H 0.2747 -0.0362 0.2569
C13 C 0.10373(17) 0.1101(3) 0.30023(14)
C14 C 0.12043(19) -0.2017(3) 0.33202(16)
H9 H 0.1033 -0.1885 0.3440
C15 C 0.06376(19) -0.1303(3) 0.27714(14)
C16 C 0.1741(2) 0.1996(4) 0.39217(15)
C17 C 0.5015(2) -0.0637(3) 0.48406(17)
C18 C 0.19694(19) 0.1956(3) 0.28124(14)
C19 C 0.3530(2) -0.1014(3) 0.33627(15)
H10 H 0.3654 -0.1448 0.3486
C20 C 0.3495(2) 0.0284(3) 0.33571(15)
H11 H 0.3601 0.0725 0.3478
C21 C 0.1177(2) 0.1341(4) 0.33629(15)
H12 H 0.1008 0.1200 0.3483
C22 C 0.10413(19) -0.1794(4) 0.29518(15)
C23 C 0.2492(2) 0.4235(3) 0.4607(2)
C24 C 0.1295(2) -0.2045(3) 0.27695(16)
H13 H 0.1180 -0.1943 0.2520
C25 C 0.4353(2) -0.0248(3) 0.42386(15)
C26 C 0.1833(2) 0.1987(3) 0.33617(14)
H14 H 0.2106 0.2267 0.3484
C27 C 0.1708(2) -0.2438(3) 0.29569(16)
C28 C 0.2004(2) -0.2480(3) 0.48130(19)
C29 C 0.3133(2) 0.0273(3) 0.29930(16)
C30 C 0.3701(2) -0.0353(3) 0.35407(15)
C31 C 0.1994(2) -0.2601(3) 0.42143(17)
C32 C 0.2511(2) 0.2944(4) 0.47395(17)
C33 C 0.5005(2) -0.1943(3) 0.4970(2)
C34 C 0.1859(2) -0.2643(4) 0.33230(18)
H15 H 0.2129 -0.2929 0.3444
C35 C 0.4067(2) -0.0324(3) 0.39215(16)
C36 C 0.5323(2) -0.1828(4) 0.5334(2)
C37 C 0.5343(4) -0.2265(5) 0.5602(3)
H16 H 0.5569 -0.2201 0.5848
C38 C 0.2790(2) 0.4373(3) 0.4970(2)
C39 C 0.2205(2) 0.1930(3) 0.49087(17)
C40 C 0.3390(3) 0.3560(3) 0.4941(2)
C41 C 0.46865(18) 0.0534(3) 0.47927(15)
C42 C 0.2746(2) -0.2588(3) 0.47993(19)
C43 C 0.6381(2) -0.1332(4) 0.5283(2)
H17 H 0.6595 -0.1277 0.5533
C44 C 0.1571(2) 0.1790(3) 0.35393(15)
C45 C 0.2558(2) 0.3480(4) 0.44711(19)
H18 H 0.2342 0.3384 0.4210
C46 C 0.1389(2) -0.1704(4) 0.4798(2)
C47 C 0.3850(3) 0.3526(4) 0.5049(3)
H19 H 0.4065 0.3602 0.5296
C48 C 0.1637(2) -0.1601(4) 0.5189(2)
C49 C 0.1080(3) -0.1134(4) 0.4564(3)
H20 H 0.0911 -0.1171 0.4308
C50 C 0.1548(3) -0.3493(6) 0.5465(3)
H21 H 0.1720 -0.3459 0.5721
C51 C 0.1618(2) -0.2432(4) 0.35091(17)
C52 C 0.1800(2) -0.2565(4) 0.38886(19)
C53 C 0.1608(2) -0.2944(4) 0.5243(2)
C54 C 0.5580(2) -0.1429(4) 0.4785(2)
C55 C 0.1460(2) -0.2419(4) 0.4657(2)
H22 H 0.1281 -0.2464 0.4388
C56 C 0.5068(3) -0.1403(3) 0.47050(19)
H23 H 0.4842 -0.1489 0.4444
C57 C 0.1355(2) -0.3008(4) 0.4856(2)
C58 C 0.3128(3) 0.3728(4) 0.5163(2)
H24 H 0.3342 0.3814 0.5426
C59 C 0.2787(3) 0.5035(5) 0.5134(3)
H25 H 0.3005 0.5138 0.5378
C60 C 0.4678(3) -0.2489(4) 0.4867(3)
H26 H 0.4459 -0.2549 0.4619
C61 C 0.2142(3) 0.4765(5) 0.4391(3)
H27 H 0.1932 0.4677 0.4143
C62 C 0.5761(4) -0.1591(5) 0.4545(3)
H28 H 0.5554 -0.1705 0.4300
C63 C 0.3088(3) 0.3458(4) 0.4579(3)
C64 C 0.3234(4) 0.3341(6) 0.4323(3)
H29 H 0.3013 0.3297 0.4074
C65 C 0.5658(2) -0.1187(4) 0.53865(19)
H30 H 0.5882 -0.1101 0.5647
C66 C 0.5896(2) -0.1314(4) 0.5170(2)
C67 C 0.1581(3) -0.1019(7) 0.5339(3)
H31 H 0.1739 -0.0996 0.5595
C68 C 0.2443(3) 0.5527(4) 0.4915(3)
H32 H 0.2424 0.5970 0.5014
C69 C 0.1939(3) -0.2306(4) 0.5377(2)
H33 H 0.2117 -0.2273 0.5646
C70 C 0.5006(3) -0.2822(5) 0.5494(4)
H34 H 0.5004 -0.3125 0.5674
C71 C 0.4666(3) -0.2938(5) 0.5118(4)
H35 H 0.4445 -0.3310 0.5049
C72 C 0.1063(4) -0.0536(4) 0.4755(4)
H36 H 0.0873 -0.0151 0.4619
C73 C 0.6248(4) -0.1583(6) 0.4670(4)
H37 H 0.6365 -0.1681 0.4507
C74 C 0.3688(4) 0.3291(6) 0.4429(4)
H38 H 0.3788 0.3196 0.4255
C75 C 0.4024(4) 0.3378(5) 0.4797(4)
H39 H 0.4348 0.3341 0.4875
C76 C 0.1043(3) -0.3576(5) 0.4700(3)
H40 H 0.0863 -0.3613 0.4445
C77 C 0.1001(4) -0.4087(7) 0.4924(3)
H41 H 0.0798 -0.4476 0.4814
C78 C 0.1253(3) -0.4051(5) 0.5314(3)
H42 H 0.1213 -0.4402 0.5459
C79 C 0.2120(4) 0.5369(5) 0.4544(4)
H43 H 0.1886 0.5706 0.4405
C80 C 0.6558(3) -0.1430(6) 0.5036(3)
H44 H 0.6882 -0.1393 0.5117
C81 C 0.1323(3) -0.0459(5) 0.5161(4)
H45 H 0.1304 -0.0043 0.5281
O1D O 0.73891(16) 0.1665(2) 0.75171(11)
O2D O 0.68722(15) 0.2298(2) 0.70178(11)
O4D O 0.69365(15) -0.1532(2) 0.70063(11)
O7D O 0.74400(15) -0.0933(2) 0.75148(10)
C5D C 0.70397(15) 0.1705(3) 0.71981(14)
C6D C 0.68350(19) 0.1013(3) 0.70078(14)
C8D C 0.71245(19) -0.1002(3) 0.71873(13)
C9D C 0.53060(18) 0.0131(3) 0.53769(14)
C12D C 0.70194(18) 0.0361(3) 0.71846(15)
H8D H 0.7253 0.0362 0.7431
C17D C 0.4985(2) 0.0637(3) 0.51594(17)
C19D C 0.6470(2) 0.1014(3) 0.66373(15)
H10D H 0.6346 0.1448 0.6514
C20D C 0.6505(2) -0.0284(3) 0.66429(15)
H11D H 0.6399 -0.0725 0.6522
C25D C 0.5647(2) 0.0248(3) 0.57614(15)
C29D C 0.6867(2) -0.0273(3) 0.70070(16)
C30D C 0.6299(2) 0.0353(3) 0.64593(15)
C33D C 0.4995(2) 0.1943(3) 0.5030(2)
C35D C 0.5933(2) 0.0324(3) 0.60785(16)
C36D C 0.4677(2) 0.1828(4) 0.4666(2)
C37D C 0.4657(4) 0.2265(5) 0.4398(3)
H16D H 0.4431 0.2201 0.4152
C41D C 0.53135(18) -0.0534(3) 0.52073(15)
C43D C 0.3619(2) 0.1332(4) 0.4717(2)
H17D H 0.3405 0.1277 0.4467
C54D C 0.4420(2) 0.1429(4) 0.5215(2)
C56D C 0.4932(3) 0.1403(3) 0.52950(19)
H23D H 0.5158 0.1489 0.5556
C60D C 0.5322(3) 0.2489(4) 0.5133(3)
H26D H 0.5541 0.2549 0.5381
C62D C 0.4239(4) 0.1591(5) 0.5455(3)
H28D H 0.4446 0.1705 0.5700
C65D C 0.4342(2) 0.1187(4) 0.46135(19)
H30D H 0.4118 0.1101 0.4353
C66D C 0.4104(2) 0.1314(4) 0.4830(2)
C70D C 0.4994(3) 0.2822(5) 0.4506(4)
H34D H 0.4996 0.3125 0.4326
C71D C 0.5334(3) 0.2938(5) 0.4882(4)
H35D H 0.5555 0.3310 0.4951
C73D C 0.3752(4) 0.1583(6) 0.5330(4)
H37D H 0.3635 0.1681 0.5493
C80D C 0.3442(3) 0.1430(6) 0.4964(3)
H44D H 0.3118 0.1393 0.4883
O3F O 0.26615(15) 0.2683(2) 0.70084(10)
O6F O 0.31690(14) 0.3315(3) 0.75023(10)
O8F O 0.44604(15) 0.4642(3) 0.74955(11)
O9F O 0.45793(17) 0.4598(3) 0.70085(13)
C1F C 0.43470(17) 0.4446(4) 0.71863(14)
C4F C 0.30740(19) 0.2841(3) 0.57592(15)
C7F C 0.3320(2) 0.3241(3) 0.70022(15)
C10F C 0.2805(2) 0.2659(3) 0.53842(16)
C11F C 0.37133(18) 0.3677(3) 0.71772(14)
H7F H 0.3813 0.3826 0.7419
C13F C 0.39627(17) 0.3899(3) 0.69977(14)
C16F C 0.3259(2) 0.3004(4) 0.60783(15)
C18F C 0.30306(19) 0.3044(3) 0.71876(14)
C21F C 0.3823(2) 0.3659(4) 0.66371(15)
H12F H 0.3992 0.3800 0.6517
C23F C 0.2508(2) 0.0765(3) 0.5393(2)
C26F C 0.3167(2) 0.3013(3) 0.66383(14)
H14F H 0.2894 0.2733 0.6516
C32F C 0.2489(2) 0.2056(4) 0.52605(17)
C38F C 0.2210(2) 0.0627(3) 0.5030(2)
C39F C 0.2795(2) 0.3070(3) 0.50913(17)
C40F C 0.1610(3) 0.1440(3) 0.5059(2)
C44F C 0.3429(2) 0.3210(3) 0.64607(15)
C45F C 0.2442(2) 0.1520(4) 0.55289(19)
H18F H 0.2658 0.1616 0.5790
C47F C 0.1150(3) 0.1474(4) 0.4951(3)
H19F H 0.0935 0.1398 0.4704
C58F C 0.1872(3) 0.1272(4) 0.4837(2)
H24F H 0.1658 0.1186 0.4574
C59F C 0.2213(3) -0.0035(5) 0.4866(3)
H25F H 0.1995 -0.0138 0.4622
C61F C 0.2858(3) 0.0235(5) 0.5609(3)
H27F H 0.3068 0.0323 0.5857
C63F C 0.1912(3) 0.1542(4) 0.5421(3)
C64F C 0.1766(4) 0.1659(6) 0.5677(3)
H29F H 0.1987 0.1703 0.5926
C68F C 0.2557(3) -0.0527(4) 0.5085(3)
H32F H 0.2576 -0.0970 0.4986
C74F C 0.1312(4) 0.1709(6) 0.5571(4)
H38F H 0.1212 0.1804 0.5745
C75F C 0.0976(4) 0.1622(5) 0.5203(4)
H39F H 0.0652 0.1659 0.5125
C79F C 0.2880(4) -0.0369(5) 0.5456(4)
H43F H 0.3114 -0.0706 0.5595
O5F O 0.45443(14) -0.3910(3) 0.70368(11)
O10F O 0.44780(14) -0.3879(3) 0.75548(10)
O11F O 0.26346(15) -0.1984(3) 0.70419(12)
O13F O 0.31552(15) -0.2609(3) 0.75529(12)
C2F C 0.29881(16) -0.2408(3) 0.72247(13)
C3F C 0.2752(2) -0.2430(3) 0.53861(16)
C14F C 0.37957(19) -0.2983(3) 0.66798(16)
H9F H 0.3967 -0.3115 0.6560
C15F C 0.43624(19) -0.3697(3) 0.72286(14)
C22F C 0.39587(19) -0.3206(4) 0.70482(15)
C24F C 0.3705(2) -0.2955(3) 0.72305(16)
H13F H 0.3820 -0.3057 0.7480
C27F C 0.3292(2) -0.2562(3) 0.70431(16)
C28F C 0.2996(2) -0.2520(3) 0.51870(19)
C31F C 0.3006(2) -0.2399(3) 0.57857(17)
C34F C 0.3141(2) -0.2357(4) 0.66770(18)
H15F H 0.2871 -0.2071 0.6556
C42F C 0.2254(2) -0.2412(3) 0.52007(19)
C46F C 0.3611(2) -0.3296(4) 0.5202(2)
C48F C 0.3363(2) -0.3399(4) 0.4811(2)
C49F C 0.3920(3) -0.3866(4) 0.5436(3)
H20F H 0.4089 -0.3829 0.5692
C50F C 0.3452(3) -0.1507(6) 0.4535(3)
H21F H 0.3280 -0.1541 0.4279
C51F C 0.3382(2) -0.2568(4) 0.64909(17)
C52F C 0.3200(2) -0.2435(4) 0.61114(19)
C53F C 0.3392(2) -0.2056(4) 0.4757(2)
C55F C 0.3540(2) -0.2581(4) 0.5343(2)
H22F H 0.3719 -0.2536 0.5612
C57F C 0.3645(2) -0.1992(4) 0.5144(2)
C67F C 0.3419(3) -0.3981(7) 0.4661(3)
H31F H 0.3261 -0.4004 0.4405
C69F C 0.3061(3) -0.2694(4) 0.4623(2)
H33F H 0.2883 -0.2727 0.4354
C72F C 0.3937(4) -0.4464(4) 0.5245(4)
H36F H 0.4127 -0.4849 0.5381
C76F C 0.3957(3) -0.1424(5) 0.5300(3)
H40F H 0.4137 -0.1387 0.5555
C77F C 0.3999(4) -0.0913(7) 0.5076(3)
H41F H 0.4202 -0.0524 0.5186
C78F C 0.3747(3) -0.0949(5) 0.4686(3)
H42F H 0.3787 -0.0598 0.4541
C81F C 0.3677(3) -0.4541(5) 0.4839(4)
H45F H 0.3696 -0.4957 0.4719
Cu3A Cu 0.00605(2) -0.03609(5) 0.220121(19)
O15A O 0.0111(3) -0.0381(4) 0.17111(17)
H5A H 0.0048 -0.0005 0.1553
H6A H 0.0200 -0.0767 0.1622
Cu1C Cu 0.28219(3) -0.32308(4) 0.278212(18)
O12C O 0.3280(2) -0.3818(4) 0.32534(15)
H1C H 0.3222 -0.4241 0.3312
H2C H 0.3557 -0.3677 0.3420
Cu2C Cu 0.22184(3) -0.24912(4) 0.219095(18)
O14C O 0.17292(19) -0.1963(3) 0.16917(14)
H3C H 0.1771 -0.1891 0.1497
H4C H 0.1452 -0.1779 0.1646
Cu1D Cu 0.78219(3) -0.17692(4) 0.778212(18)
Cu1E Cu 0.21781(3) -0.17692(4) 0.721788(18)
Cu1F Cu 0.28219(3) 0.32308(4) 0.778212(18)
Cu1G Cu 0.71781(3) 0.32308(4) 0.721788(18)
Cu2D Cu 0.72184(3) -0.25088(4) 0.719095(18)
Cu2E Cu 0.27816(3) -0.25088(4) 0.780905(18)
Cu2F Cu 0.22184(3) 0.24912(4) 0.719095(18)
Cu2G Cu 0.77816(3) 0.24912(4) 0.780905(18)
Cu3F Cu 0.50605(2) -0.46391(5) 0.720121(19)
Cu3F_2 Cu 0.50605(2) 0.53609(5) 0.720121(19)
Cu3G Cu 0.49395(2) -0.46391(5) 0.779879(19)
Cu3G_2 Cu 0.49395(2) 0.53609(5) 0.779879(19)
O1C O 0.23891(16) 0.3335(2) 0.25171(11)
O2C O 0.18722(15) 0.2702(2) 0.20178(11)
O3C O 0.26615(15) -0.2683(2) 0.20084(10)
O4C O 0.19365(15) -0.3468(2) 0.20063(11)
O5A O -0.04557(14) -0.1090(3) 0.20368(11)
O6C O 0.31690(14) -0.3315(3) 0.25023(10)
O7C O 0.24400(15) -0.4067(2) 0.25148(10)
O8A O -0.05396(15) 0.0358(3) 0.24955(11)
O9A O -0.04207(17) 0.0402(3) 0.20085(13)
O10A O -0.05220(14) -0.1121(3) 0.25548(10)
O11C O 0.26346(15) 0.1984(3) 0.20419(12)
O13C O 0.31552(15) 0.2609(3) 0.25529(12)
loop_
_geom_bond_atom_site_label_1
_geom_bond_atom_site_label_2
_geom_bond_site_symmetry_1
_geom_bond_site_symmetry_2
Cu1 O6 1_555 1_555
Cu2 O3 1_555 1_555
Cu3 O5 1_555 1_555
O1 C5 1_555 1_555
O2 C5 1_555 1_555
O3 C18 1_555 1_555
O4 Cu2 1_555 1_555
O5 C15 1_555 1_555
O6 C18 1_555 1_555
O7 Cu1 1_555 1_555
O8 C1 1_555 1_555
O9 Cu3 1_555 1_555
O10 C15 1_555 1_555
O11 C2 1_555 1_555
O12 Cu1 1_555 1_555
H1 O12 1_555 1_555
H2 O12 1_555 1_555
O13 C2 1_555 1_555
O14 Cu2 1_555 1_555
H3 O14 1_555 1_555
H4 O14 1_555 1_555
O15 Cu3 1_555 1_555
H5 O15 1_555 1_555
H6 O15 1_555 1_555
C1 O9 1_555 1_555
C2 C27 1_555 1_555
C3 C28 1_555 1_555
C4 C10 1_555 1_555
C5 C6 1_555 1_555
C6 C12 1_555 1_555
C7 C11 1_555 1_555
C8 O4 1_555 1_555
C9 C17 1_555 1_555
C10 C32 1_555 1_555
C11 H7 1_555 1_555
C12 H8 1_555 1_555
C13 C1 1_555 1_555
C14 H9 1_555 1_555
C15 C22 1_555 1_555
C16 C4 1_555 1_555
C17 C56 1_555 1_555
C18 C7 1_555 1_555
C19 C6 1_555 1_555
H10 C19 1_555 1_555
C20 H11 1_555 1_555
C21 C13 1_555 1_555
H12 C21 1_555 1_555
C22 C14 1_555 1_555
C23 C38 1_555 1_555
C24 C22 1_555 1_555
H13 C24 1_555 1_555
C25 C9 1_555 1_555
C26 C7 1_555 1_555
H14 C26 1_555 1_555
C27 C24 1_555 1_555
C28 C55 1_555 1_555
C29 C8 1_555 1_555
C30 C19 1_555 1_555
C31 C3 1_555 1_555
C32 C45 1_555 1_555
C33 C36 1_555 1_555
C34 C27 1_555 1_555
H15 C34 1_555 1_555
C35 C25 1_555 1_555
C36 C37 1_555 1_555
C37 H16 1_555 1_555
C38 C58 1_555 1_555
C39 C10 1_555 1_555
C40 C47 1_555 1_555
C41 C9 1_555 1_555
C42 C3 1_555 1_555
C43 H17 1_555 1_555
C44 C16 1_555 1_555
C45 C23 1_555 1_555
H18 C45 1_555 1_555
C46 C48 1_555 1_555
C47 H19 1_555 1_555
C48 C67 1_555 1_555
C49 C46 1_555 1_555
H20 C49 1_555 1_555
C50 H21 1_555 1_555
C51 C14 1_555 1_555
C52 C31 1_555 1_555
C53 C50 1_555 1_555
C54 C56 1_555 1_555
C55 C46 1_555 1_555
H22 C55 1_555 1_555
C56 C33 1_555 1_555
H23 C56 1_555 1_555
C57 C53 1_555 1_555
C58 C40 1_555 1_555
H24 C58 1_555 1_555
C59 C38 1_555 1_555
H25 C59 1_555 1_555
C60 C33 1_555 1_555
H26 C60 1_555 1_555
C61 C23 1_555 1_555
H27 C61 1_555 1_555
C62 C54 1_555 1_555
H28 C62 1_555 1_555
C63 C40 1_555 1_555
C64 C63 1_555 1_555
H29 C64 1_555 1_555
C65 C36 1_555 1_555
H30 C65 1_555 1_555
C66 C43 1_555 1_555
C67 H31 1_555 1_555
C68 C59 1_555 1_555
H32 C68 1_555 1_555
C69 C48 1_555 1_555
H33 C69 1_555 1_555
C70 C37 1_555 1_555
H34 C70 1_555 1_555
C71 C60 1_555 1_555
H35 C71 1_555 1_555
C72 C49 1_555 1_555
H36 C72 1_555 1_555
C73 C62 1_555 1_555
H37 C73 1_555 1_555
C74 C64 1_555 1_555
H38 C74 1_555 1_555
C75 C47 1_555 1_555
H39 C75 1_555 1_555
C76 C57 1_555 1_555
H40 C76 1_555 1_555
C77 C76 1_555 1_555
H41 C77 1_555 1_555
C78 C50 1_555 1_555
H42 C78 1_555 1_555
C79 C61 1_555 1_555
H43 C79 1_555 1_555
C80 C43 1_555 1_555
H44 C80 1_555 1_555
C81 C67 1_555 1_555
H45 C81 1_555 1_555
O1D C5D 1_555 1_555
O2D C5D 1_555 1_555
O4D C8D 1_555 1_555
O7D C8D 1_555 1_555
C5D C6D 1_555 1_555
C6D C12D 1_555 1_555
C8D C29D 1_555 1_555
C9D C17D 1_555 1_555
C12D H8D 1_555 1_555
C17D C41 1_555 1_555
C19D C6D 1_555 1_555
H10D C19D 1_555 1_555
C20D H11D 1_555 1_555
C25D C9D 1_555 1_555
C29D C12D 1_555 1_555
C30D C19D 1_555 1_555
C33D C36D 1_555 1_555
C35D C25D 1_555 1_555
C36D C37D 1_555 1_555
C37D H16D 1_555 1_555
C41D C17 1_555 1_555
C43D H17D 1_555 1_555
C54D C56D 1_555 1_555
C56D C17D 1_555 1_555
H23D C56D 1_555 1_555
C60D C33D 1_555 1_555
H26D C60D 1_555 1_555
C62D C54D 1_555 1_555
H28D C62D 1_555 1_555
C65D C41 1_555 1_555
H30D C65D 1_555 1_555
C66D C43D 1_555 1_555
C70D C37D 1_555 1_555
H34D C70D 1_555 1_555
C71D C60D 1_555 1_555
H35D C71D 1_555 1_555
C73D C62D 1_555 1_555
H37D C73D 1_555 1_555
C80D C43D 1_555 1_555
H44D C80D 1_555 1_555
O3F C18F 1_555 1_555
O6F C18F 1_555 1_555
O8F C1F 1_555 1_555
O9F C1F 1_555 1_555
C1F C13F 1_555 1_555
C4F C10F 1_555 1_555
C7F C11F 1_555 1_555
C10F C32F 1_555 1_555
C11F H7F 1_555 1_555
C13F C11F 1_555 1_555
C16F C4F 1_555 1_555
C18F C7F 1_555 1_555
C21F C13F 1_555 1_555
H12F C21F 1_555 1_555
C23F C38F 1_555 1_555
C26F C7F 1_555 1_555
H14F C26F 1_555 1_555
C32F C39 1_555 1_555
C38F C58F 1_555 1_555
C39F C32 1_555 1_555
C40F C47F 1_555 1_555
C44F C16F 1_555 1_555
C45F C23F 1_555 1_555
H18F C45F 1_555 1_555
C47F H19F 1_555 1_555
C58F C39 1_555 1_555
H24F C58F 1_555 1_555
C59F C38F 1_555 1_555
H25F C59F 1_555 1_555
C61F C23F 1_555 1_555
H27F C61F 1_555 1_555
C63F C40F 1_555 1_555
C64F C63F 1_555 1_555
H29F C64F 1_555 1_555
C68F C59F 1_555 1_555
H32F C68F 1_555 1_555
C74F C64F 1_555 1_555
H38F C74F 1_555 1_555
C75F C47F 1_555 1_555
H39F C75F 1_555 1_555
C79F C61F 1_555 1_555
H43F C79F 1_555 1_555
O5F C15F 1_555 1_555
O10F C15F 1_555 1_555
O11F C2F 1_555 1_555
O13F C2F 1_555 1_555
C2F C27F 1_555 1_555
C3F C28F 1_555 1_555
C14F H9F 1_555 1_555
C15F C22F 1_555 1_555
C22F C14F 1_555 1_555
C24F C22F 1_555 1_555
H13F C24F 1_555 1_555
C27F C24F 1_555 1_555
C28F C42 1_555 1_555
C31F C3F 1_555 1_555
C34F C27F 1_555 1_555
H15F C34F 1_555 1_555
C42F C28 1_555 1_555
C46F C48F 1_555 1_555
C48F C67F 1_555 1_555
C49F C46F 1_555 1_555
H20F C49F 1_555 1_555
C50F H21F 1_555 1_555
C51F C14F 1_555 1_555
C52F C31F 1_555 1_555
C53F C50F 1_555 1_555
C55F C28F 1_555 1_555
H22F C55F 1_555 1_555
C57F C53F 1_555 1_555
C67F H31F 1_555 1_555
C69F C42 1_555 1_555
H33F C69F 1_555 1_555
C72F C49F 1_555 1_555
H36F C72F 1_555 1_555
C76F C57F 1_555 1_555
H40F C76F 1_555 1_555
C77F C76F 1_555 1_555
H41F C77F 1_555 1_555
C78F C50F 1_555 1_555
H42F C78F 1_555 1_555
C81F C67F 1_555 1_555
H45F C81F 1_555 1_555
Cu3A O8 1_555 1_555
O15A Cu3A 1_555 1_555
H5A O15A 1_555 1_555
H6A O15A 1_555 1_555
Cu1C O2 1_555 1_555
O12C Cu1C 1_555 1_555
H1C O12C 1_555 1_555
H2C O12C 1_555 1_555
Cu2C O1 1_555 1_555
O14C Cu2C 1_555 1_555
H3C O14C 1_555 1_555
H4C O14C 1_555 1_555
Cu1D O7D 1_555 1_555
Cu1E O11F 1_555 1_555
Cu1F O6F 1_555 1_555
Cu1G O2D 1_555 1_555
Cu2D O4D 1_555 1_555
Cu2E O13F 1_555 1_555
Cu2F O3F 1_555 1_555
Cu2G O1D 1_555 1_555
Cu3F O5F 1_555 1_555
Cu3F_2 O9F 1_555 1_555
Cu3G O10F 1_555 1_555
Cu3G_2 O8F 1_555 1_555
O1C Cu2 1_555 1_555
O2C Cu1 1_555 1_555
O3C Cu2C 1_555 1_555
O4C Cu2C 1_555 1_555
O5A Cu3A 1_555 1_555
O6C Cu1C 1_555 1_555
O7C Cu1C 1_555 1_555
O8A Cu3 1_555 1_555
O9A Cu3A 1_555 1_555
O10A Cu3 1_555 1_555
O11C Cu1 1_555 1_555
O13C Cu2 1_555 1_555
O7 C8 1_555 1_555
O10 Cu3A 1_555 1_555
O11 Cu1C 1_555 1_555
O13 Cu2C 1_555 1_555
C11 C13 1_555 1_555
C12 C29 1_555 1_555
C20 C29 1_555 1_555
C20 C30 1_555 1_555
C21 C44 1_555 1_555
C26 C44 1_555 1_555
C30 C35 1_555 1_555
C34 C51 1_555 1_555
C45 C63 1_555 1_555
C51 C52 1_555 1_555
C53 C69 1_555 1_555
C54 C66 1_555 1_555
C55 C57 1_555 1_555
C58 C39F 1_555 1_555
C65 C66 1_555 1_555
C65 C41D 1_555 1_555
C68 C79 1_555 1_555
C69 C42F 1_555 1_555
C70 C71 1_555 1_555
C72 C81 1_555 1_555
C73 C80 1_555 1_555
C74 C75 1_555 1_555
C77 C78 1_555 1_555
C9D C41D 1_555 1_555
C20D C29D 1_555 1_555
C20D C30D 1_555 1_555
C30D C35D 1_555 1_555
C33D C56D 1_555 1_555
C36D C65D 1_555 1_555
C54D C66D 1_555 1_555
C65D C66D 1_555 1_555
C70D C71D 1_555 1_555
C73D C80D 1_555 1_555
C10F C39F 1_555 1_555
C21F C44F 1_555 1_555
C26F C44F 1_555 1_555
C32F C45F 1_555 1_555
C40F C58F 1_555 1_555
C45F C63F 1_555 1_555
C68F C79F 1_555 1_555
C74F C75F 1_555 1_555
C3F C42F 1_555 1_555
C34F C51F 1_555 1_555
C46F C55F 1_555 1_555
C48F C69F 1_555 1_555
C51F C52F 1_555 1_555
C53F C69F 1_555 1_555
C55F C57F 1_555 1_555
C72F C81F 1_555 1_555
C77F C78F 1_555 1_555

#END
