
#######################################################################
#
#                 Cambridge Crystallographic Data Centre
#                                CCDC 
#
#######################################################################
#
# If this CIF has been generated from an entry in the Cambridge 
# Structural Database, then it will include bibliographic, chemical, 
# crystal, experimental, refinement or atomic coordinate data resulting 
# from the CCDC's data processing and validation procedures.
#
#######################################################################

data_NEVVEQ
_chemical_formula_moiety         'C9 H5 Co2 N2 O6 S3'
_symmetry_cell_setting           orthorhombic
_symmetry_space_group_name_H-M   'C 2 2 21'
_symmetry_Int_Tables_number      20
_space_group_name_Hall           'C 2c 2'
loop_
_symmetry_equiv_pos_site_id
_symmetry_equiv_pos_as_xyz
1 x,y,z
2 -x,-y,1/2+z
3 -x,y,1/2-z
4 x,-y,-z
5 1/2+x,1/2+y,z
6 1/2-x,1/2-y,1/2+z
7 1/2-x,1/2+y,1/2-z
8 1/2+x,1/2-y,-z
_cell_length_a                   11.0477(3)
_cell_length_b                   13.5918(4)
_cell_length_c                   11.9580(4)
_cell_angle_alpha                90
_cell_angle_beta                 90
_cell_angle_gamma                90
_cell_volume                     1795.59
loop_
_atom_site_label
_atom_site_type_symbol
_atom_site_fract_x
_atom_site_fract_y
_atom_site_fract_z
_atom_site_U_iso_or_equiv
_atom_site_thermal_displace_type
O4 O 0.5491(8) 1.0912(9) 0.6818(13) 0.1850 Uani
Co1 Co 0.88327(3) 1.0000 1.0000 0.0166 Uani
Co2 Co 1.0000 0.89487(3) 0.7500 0.0192 Uani
S1 S 0.83479(4) 0.99122(4) 0.78918(4) 0.0212 Uani
N1 N 0.75218(15) 0.89370(13) 0.96003(14) 0.0198 Uani
O1 O 1.01348(14) 1.10583(11) 0.97776(13) 0.0292 Uani
O2 O 0.95942(14) 0.80221(11) 0.63176(13) 0.0276 Uani
C1 C 0.74825(17) 0.89462(16) 0.84724(18) 0.0199 Uani
C2 C 0.6839(2) 0.82404(19) 0.7869(2) 0.0289 Uani
H1 H 0.686(2) 0.826(2) 0.704(2) 0.0300 Uiso
C3 C 0.6239(2) 0.75171(17) 0.8459(2) 0.0279 Uani
H2 H 0.581(2) 0.700(2) 0.810(2) 0.0280 Uiso
C4 C 0.62283(19) 0.75369(15) 0.96295(18) 0.0212 Uani
C5 C 0.68859(18) 0.82622(15) 1.01630(19) 0.0218 Uani
H3 H 0.689(2) 0.8294(16) 1.095(2) 0.0220 Uiso
C6 C 1.05348(18) 1.17876(15) 1.02834(18) 0.0224 Uani
S1C S 0.83479(4) 1.00878(4) 1.21082(4) 0.0212 Uani
S1B S 1.16521(4) 0.99122(4) 0.71082(4) 0.0212 Uani
N1C N 0.75218(15) 1.10630(13) 1.03997(14) 0.0198 Uani
O1C O 1.01348(14) 0.89417(11) 1.02224(13) 0.0292 Uani
O2B O 1.04058(14) 0.80221(11) 0.86824(13) 0.0276 Uani
O2A O 1.04058(14) 1.19779(11) 1.13176(13) 0.0276 Uani
C4D C 1.12283(19) 1.25369(15) 0.96295(18) 0.0212 Uani
C6A C 0.94652(18) 0.82124(15) 0.52834(18) 0.0224 Uani
C6D C 0.55348(18) 0.67876(15) 1.02834(18) 0.0224 Uani
loop_
_atom_site_aniso_label
_atom_site_aniso_U_11
_atom_site_aniso_U_22
_atom_site_aniso_U_33
_atom_site_aniso_U_23
_atom_site_aniso_U_13
_atom_site_aniso_U_12
O4 0.160(8) 0.106(8) 0.289(15) 0.056(9) -0.059(8) 0.035(5)
Co1 0.01528(16) 0.01065(16) 0.0239(2) -0.00051(16) 0.000 0.000
Co2 0.02047(17) 0.01619(18) 0.0209(2) 0.000 0.00016(17) 0.000
S1 0.0197(2) 0.0184(2) 0.0256(3) 0.0046(2) 0.00320(18) 0.0000(2)
N1 0.0201(8) 0.0169(8) 0.0224(9) 0.0019(7) -0.0012(6) -0.0040(7)
O1 0.0301 0.0217 0.0359 -0.0069 0.0087 -0.0115
O2 0.0397 0.0196 0.0234 -0.0016 -0.0015 -0.01
C1 0.0174(9) 0.0190(10) 0.0234(11) 0.0012(8) 0.0007(8) -0.0003(8)
C2 0.0313(11) 0.0346(12) 0.0207(11) -0.0003(9) -0.0017(9) -0.0105(10)
C3 0.0299(11) 0.0292(13) 0.0247(13) -0.0031(9) -0.0024(9) -0.0117(10)
C4 0.0202(9) 0.0188(10) 0.0247(11) 0.0003(8) 0.0009(8) -0.0039(8)
C5 0.0243(9) 0.0201(9) 0.0210(12) 0.0017(8) -0.0014(9) -0.0045(8)
C6 0.0183 0.0177 0.0312 0.0017 0.0005 -0.0018
S1C 0.0197 0.0184 0.0256 0.0046 -0.0032 0
S1B 0.0197 0.0184 0.0256 -0.0046 0.0032 0
N1C 0.0201 0.0169 0.0224 0.0019 0.0012 0.004
O1C 0.0301 0.0217 0.0359 -0.0069 -0.0087 0.0115
O2B 0.0397 0.0196 0.0234 0.0016 -0.0015 0.01
O2A 0.0397 0.0196 0.0234 0.0016 0.0015 -0.01
C4D 0.0202 0.0188 0.0247 0.0003 0.0009 -0.0039
C6A 0.0183 0.0177 0.0312 -0.0017 -0.0005 -0.0018
C6D 0.0183(9) 0.0177(9) 0.0312(13) 0.0017(8) 0.0005(8) -0.0018(8)
loop_
_geom_bond_atom_site_label_1
_geom_bond_atom_site_label_2
_geom_bond_site_symmetry_1
_geom_bond_site_symmetry_2
Co1 S1 1_555 1_555
Co2 S1 1_555 1_555
S1 C1 1_555 1_555
N1 Co1 1_555 1_555
O1 Co1 1_555 1_555
O2 Co2 1_555 1_555
C1 N1 1_555 1_555
C2 C1 1_555 1_555
H1 C2 1_555 1_555
C3 C2 1_555 1_555
H2 C3 1_555 1_555
C4 C3 1_555 1_555
C5 N1 1_555 1_555
H3 C5 1_555 1_555
C6 O1 1_555 1_555
S1C Co1 1_555 1_555
S1B Co2 1_555 1_555
N1C Co1 1_555 1_555
O1C Co1 1_555 1_555
O2B Co2 1_555 1_555
O2A C6 1_555 1_555
C4D C6 1_555 1_555
C6A O2 1_555 1_555
C6D C4 1_555 1_555
C4 C5 1_555 1_555

#END
