
#######################################################################
#
#                 Cambridge Crystallographic Data Centre
#                                CCDC 
#
#######################################################################
#
# If this CIF has been generated from an entry in the Cambridge 
# Structural Database, then it will include bibliographic, chemical, 
# crystal, experimental, refinement or atomic coordinate data resulting 
# from the CCDC's data processing and validation procedures.
#
#######################################################################

data_NEVVAM
_chemical_formula_moiety         '(C14 H20 Co3 N2 O16)n'
_symmetry_cell_setting           monoclinic
_symmetry_space_group_name_H-M   'C 2/c'
_symmetry_Int_Tables_number      15
_space_group_name_Hall           '-C 2yc'
loop_
_symmetry_equiv_pos_site_id
_symmetry_equiv_pos_as_xyz
1 x,y,z
2 1/2+x,1/2+y,z
3 -x,y,1/2-z
4 1/2-x,1/2+y,1/2-z
5 -x,-y,-z
6 1/2-x,1/2-y,-z
7 x,-y,1/2+z
8 1/2+x,1/2-y,1/2+z
_cell_length_a                   17.0783(5)
_cell_length_b                   14.3338(4)
_cell_length_c                   10.7738(4)
_cell_angle_alpha                90
_cell_angle_beta                 106.3970(11)
_cell_angle_gamma                90
_cell_volume                     2530.13
loop_
_atom_site_label
_atom_site_type_symbol
_atom_site_fract_x
_atom_site_fract_y
_atom_site_fract_z
Co1 Co 0.906407(19) 0.02748(2) 0.94759(3)
Co2 Co 1.0000 0.09148(3) 0.7500
N1 N 0.80734(13) -0.06929(15) 0.8785(2)
O1 O 0.91577(11) -0.01198(13) 0.76527(17)
O2 O 0.85461(12) -0.08559(13) 0.58187(18)
O3 O 0.66410(11) -0.35413(13) 0.65444(18)
O4 O 0.58372(11) -0.30218(13) 0.77230(19)
O5 O 1.02076(10) 0.08061(13) 0.94983(17)
H1 H 1.034(2) 0.132(2) 0.981(3)
C1 C 0.80432(15) -0.10761(17) 0.7633(2)
C2 C 0.75296(16) -0.18118(19) 0.7106(3)
H2 H 0.7538(19) -0.206(2) 0.639(3)
C3 C 0.70146(15) -0.21578(18) 0.7788(3)
C4 C 0.70177(18) -0.1736(2) 0.8948(3)
H3 H 0.668(2) -0.195(2) 0.939(3)
C5 C 0.75601(17) -0.1014(2) 0.9417(3)
H4 H 0.756(2) -0.070(2) 1.021(3)
C6 C 0.86272(15) -0.06611(18) 0.6970(2)
C7 C 0.64473(16) -0.29764(18) 0.7302(3)
Co1B Co 1.093593(19) 0.02748(2) 0.55241(3)
Co1F Co 0.906407(19) -0.02748(2) 0.44759(3)
Co1C Co 0.593593(19) -0.47252(2) 0.55241(3)
Co1D Co 1.093593(19) -0.02748(2) 1.05241(3)
Co1A Co 1.406407(19) -0.47252(2) 0.94759(3)
Co2A Co 0.5000 -0.40852(3) 0.7500
Co2A_2 Co 1.5000 -0.40852(3) 0.7500
N1B N 1.19266(13) -0.06929(15) 0.6215(2)
O1B O 1.08423(11) -0.01198(13) 0.73473(17)
O2B O 1.14539(12) -0.08559(13) 0.91813(18)
O2F O 0.85461(12) 0.08559(13) 1.08187(18)
O2D O 1.14539(12) 0.08559(13) 0.41813(18)
O3B O 1.33590(11) -0.35413(13) 0.84556(18)
O3C O 0.83590(11) 0.14587(13) 0.84556(18)
O3A O 1.16410(11) 0.14587(13) 0.65444(18)
O4B O 1.41628(11) -0.30218(13) 0.72770(19)
O4A O 1.08372(11) 0.19782(13) 0.77230(19)
O4C O 0.91628(11) 0.19782(13) 0.72770(19)
O5B O 0.97924(10) 0.08061(13) 0.55017(17)
O5D O 0.97924(10) -0.08061(13) 1.05017(17)
O5F O 1.02076(10) -0.08061(13) 0.44983(17)
H1B H 0.966(2) 0.132(2) 0.519(3)
H1D H 0.966(2) -0.132(2) 1.019(3)
H1F H 1.034(2) -0.132(2) 0.481(3)
C1B C 1.19568(15) -0.10761(17) 0.7367(2)
C2B C 1.24704(16) -0.18118(19) 0.7894(3)
H2B H 1.2462(19) -0.206(2) 0.861(3)
C3B C 1.29854(15) -0.21578(18) 0.7212(3)
C4B C 1.29823(18) -0.1736(2) 0.6052(3)
H3B H 1.332(2) -0.195(2) 0.561(3)
C5B C 1.24399(17) -0.1014(2) 0.5583(3)
H4B H 1.244(2) -0.070(2) 0.479(3)
C6B C 1.13728(15) -0.06611(18) 0.8030(2)
C7B C 1.35527(16) -0.29764(18) 0.7698(3)
O6 O 1.0785(3) 0.2593(3) 0.3646(5)
O7 O 0.9989(3) 0.3731(3) 0.6561(5)
O8 O 1.0630(3) 0.4040(4) 0.4514(6)
O9 O 0.93911(17) 0.2667(2) 0.4194(3)
O10 O 1.1185(4) 0.4857(4) 0.5882(6)
O11 O 1.1778(3) 0.4075(4) 0.3806(6)
loop_
_geom_bond_atom_site_label_1
_geom_bond_atom_site_label_2
_geom_bond_site_symmetry_1
_geom_bond_site_symmetry_2
Co1 N1 1_555 1_555
Co2 O1 1_555 1_555
N1 C1 1_555 1_555
O1 Co1 1_555 1_555
O2 C6 1_555 1_555
O3 C7 1_555 1_555
O4 C7 1_555 1_555
O5 Co1 1_555 1_555
H1 O5 1_555 1_555
C1 C2 1_555 1_555
C2 H2 1_555 1_555
C3 C2 1_555 1_555
C4 C3 1_555 1_555
H3 C4 1_555 1_555
C5 N1 1_555 1_555
H4 C5 1_555 1_555
C6 O1 1_555 1_555
C7 C3 1_555 1_555
Co1B N1B 1_555 1_555
Co1F O2 1_555 1_555
Co1C O3 1_555 1_555
Co1D O5 1_555 1_555
Co1A O3B 1_555 1_555
Co2A O4 1_555 1_555
Co2A_2 O4B 1_555 1_555
N1B C1B 1_555 1_555
O1B Co2 1_555 1_555
O2B Co1D 1_555 1_555
O2F Co1 1_555 1_555
O2D Co1B 1_555 1_555
O3B C7B 1_555 1_555
O3C Co1 1_555 1_555
O3A Co1B 1_555 1_555
O4B C7B 1_555 1_555
O4A Co2 1_555 1_555
O4C Co2 1_555 1_555
O5B Co2 1_555 1_555
O5D Co1 1_555 1_555
O5F Co1B 1_555 1_555
H1B O5B 1_555 1_555
H1D O5D 1_555 1_555
H1F O5F 1_555 1_555
C1B C2B 1_555 1_555
C2B H2B 1_555 1_555
C3B C2B 1_555 1_555
C4B C3B 1_555 1_555
H3B C4B 1_555 1_555
C5B N1B 1_555 1_555
H4B C5B 1_555 1_555
C6B O1B 1_555 1_555
C7B C3B 1_555 1_555
Co2 O5 1_555 1_555
C1 C6 1_555 1_555
C4 C5 1_555 1_555
Co1B O1B 1_555 1_555
Co1B O5B 1_555 1_555
Co1F O5B 1_555 1_555
Co1F O5F 1_555 1_555
Co1D O5D 1_555 1_555
O2B C6B 1_555 1_555
C1B C6B 1_555 1_555
C4B C5B 1_555 1_555

#END
