
#######################################################################
#
#                 Cambridge Crystallographic Data Centre
#                                CCDC 
#
#######################################################################
#
# If this CIF has been generated from an entry in the Cambridge 
# Structural Database, then it will include bibliographic, chemical, 
# crystal, experimental, refinement or atomic coordinate data resulting 
# from the CCDC's data processing and validation procedures.
#
#######################################################################

data_NEYBEZ
_chemical_formula_moiety         '(C12 H6 Co2 N2 O4 S2)n'
_symmetry_cell_setting           orthorhombic
_symmetry_space_group_name_H-M   'C 2 2 21'
_symmetry_Int_Tables_number      20
_space_group_name_Hall           'C 2c 2'
loop_
_symmetry_equiv_pos_site_id
_symmetry_equiv_pos_as_xyz
1 x,y,z
2 -x,-y,1/2+z
3 -x,y,1/2-z
4 x,-y,-z
5 1/2+x,1/2+y,z
6 1/2-x,1/2-y,1/2+z
7 1/2-x,1/2+y,1/2-z
8 1/2+x,1/2-y,-z
_cell_length_a                   11.1223(3)
_cell_length_b                   13.5606(4)
_cell_length_c                   12.1518(3)
_cell_angle_alpha                90
_cell_angle_beta                 90
_cell_angle_gamma                90
_cell_volume                     1832.8
loop_
_atom_site_label
_atom_site_type_symbol
_atom_site_fract_x
_atom_site_fract_y
_atom_site_fract_z
Co1 Co 0.88122(3) 0.5000 0.5000
Co2 Co 1.0000 0.60654(3) 0.7500
S1 S 0.83450(5) 0.51127(5) 0.70762(5)
N1 N 0.75045(16) 0.60709(15) 0.53940(14)
O1 O 0.50698(17) 0.89207(12) 0.52156(14)
O2 O 0.54582(17) 0.80593(13) 0.36868(13)
C1 C 0.74867(19) 0.60794(18) 0.65021(19)
C2 C 0.6865(3) 0.6794(2) 0.7085(2)
H1 H 0.690(3) 0.680(2) 0.796(2)
C3 C 0.6246(2) 0.7506(2) 0.6502(2)
H2 H 0.582(2) 0.800(2) 0.684(2)
C4 C 0.6224(2) 0.74747(17) 0.53593(19)
C5 C 0.6870(2) 0.67489(16) 0.4841(2)
H3 H 0.686(2) 0.6705(19) 0.402(2)
C6 C 0.5522(2) 0.82236(17) 0.47085(19)
Co1D Co 0.38122(3) 1.0000 0.5000
Co1D_2 Co 0.38122(3) 0.0000 0.5000
Co2E Co 0.5000 0.89346(3) 0.2500
Co2A Co 1.0000 0.39346(3) 0.2500
Co2D Co 0.5000 0.10654(3) 0.7500
S1C S 0.83450(5) 0.48873(5) 0.29238(5)
S1B S 1.16550(5) 0.51127(5) 0.79238(5)
N1C N 0.75045(16) 0.39291(15) 0.46060(14)
O1C O 0.50698(17) 0.10793(12) 0.47844(14)
O1D O 1.00698(17) 0.39207(12) 0.52156(14)
O1G O 1.00698(17) 0.60793(12) 0.47844(14)
O2C O 0.54582(17) 0.19407(13) 0.63132(13)
O2E O 0.95418(17) 0.69407(13) 0.86868(13)
O2G O 1.04582(17) 0.69407(13) 0.63132(13)
C1C C 0.74867(19) 0.39206(18) 0.34979(19)
C2C C 0.6865(3) 0.3206(2) 0.2915(2)
H1C H 0.690(3) 0.320(2) 0.204(2)
C3C C 0.6246(2) 0.2494(2) 0.3498(2)
H2C H 0.582(2) 0.200(2) 0.316(2)
C4C C 0.6224(2) 0.25253(17) 0.46407(19)
C5C C 0.6870(2) 0.32511(16) 0.5159(2)
H3C H 0.686(2) 0.3295(19) 0.598(2)
C6C C 0.5522(2) 0.17764(17) 0.52915(19)
loop_
_geom_bond_atom_site_label_1
_geom_bond_atom_site_label_2
_geom_bond_site_symmetry_1
_geom_bond_site_symmetry_2
Co1 S1 1_555 1_555
Co2 S1 1_555 1_555
S1 C1 1_555 1_555
N1 Co1 1_555 1_555
O1 C6 1_555 1_555
O2 C6 1_555 1_555
C1 N1 1_555 1_555
C2 C1 1_555 1_555
H1 C2 1_555 1_555
C3 C2 1_555 1_555
H2 C3 1_555 1_555
C4 C3 1_555 1_555
C5 N1 1_555 1_555
H3 C5 1_555 1_555
C6 C4 1_555 1_555
Co1D O1 1_555 1_555
Co1D_2 O1C 1_555 1_555
Co2E O2 1_555 1_555
Co2A S1C 1_555 1_555
Co2D O2C 1_555 1_555
S1C Co1 1_555 1_555
S1B Co2 1_555 1_555
N1C Co1 1_555 1_555
O1C C6C 1_555 1_555
O1D Co1 1_555 1_555
O1G Co1 1_555 1_555
O2C C6C 1_555 1_555
O2E Co2 1_555 1_555
O2G Co2 1_555 1_555
C1C S1C 1_555 1_555
C2C C1C 1_555 1_555
H1C C2C 1_555 1_555
C3C C2C 1_555 1_555
H2C C3C 1_555 1_555
C4C C3C 1_555 1_555
C5C N1C 1_555 1_555
H3C C5C 1_555 1_555
C6C C4C 1_555 1_555
C4 C5 1_555 1_555
N1C C1C 1_555 1_555
C4C C5C 1_555 1_555

#END
