
#######################################################################
#
#                 Cambridge Crystallographic Data Centre
#                                CCDC 
#
#######################################################################
#
# If this CIF has been generated from an entry in the Cambridge 
# Structural Database, then it will include bibliographic, chemical, 
# crystal, experimental, refinement or atomic coordinate data resulting 
# from the CCDC's data processing and validation procedures.
#
#######################################################################

data_LAZXOB
_chemical_formula_moiety         '(C44 H50 Cu6 O35)n'
_symmetry_cell_setting           orthorhombic
_symmetry_space_group_name_H-M   'I m m m'
_symmetry_Int_Tables_number      71
_space_group_name_Hall           '-I 2 2'
loop_
_symmetry_equiv_pos_site_id
_symmetry_equiv_pos_as_xyz
1 x,y,z
2 -x,-y,z
3 x,-y,-z
4 -x,y,-z
5 1/2+x,1/2+y,1/2+z
6 1/2-x,1/2-y,1/2+z
7 1/2+x,1/2-y,1/2-z
8 1/2-x,1/2+y,1/2-z
9 -x,-y,-z
10 x,y,-z
11 -x,y,z
12 x,-y,z
13 1/2-x,1/2-y,1/2-z
14 1/2+x,1/2+y,1/2-z
15 1/2-x,1/2+y,1/2+z
16 1/2+x,1/2-y,1/2+z
_cell_length_a                   20.1311(16)
_cell_length_b                   20.1311(16)
_cell_length_c                   20.5559(16)
_cell_angle_alpha                90
_cell_angle_beta                 90
_cell_angle_gamma                90
_cell_volume                     8330.51
loop_
_atom_site_label
_atom_site_type_symbol
_atom_site_fract_x
_atom_site_fract_y
_atom_site_fract_z
Cu1 Cu 0.26360(13) 0.26608(11) 0.31076(9)
Cu2 Cu -0.0660(2) 0.0000 0.5000
Cu3 Cu 0.0000 0.5656(2) 0.0000
O1 O 0.1689(7) 0.2605(5) 0.3157(5)
O2 O -0.0548(8) 0.0673(8) 0.4316(6)
O3 O 0.2348(6) 0.3297(7) 0.1829(5)
O4 O 0.2543(8) 0.3603(7) 0.2813(8)
O5 O 0.0685(10) 0.5580(6) 0.0638(7)
O6 O -0.1732(11) 0.0000 0.5000
O7 O 0.0000 0.6796(14) 0.0000
O8 O 0.1414(6) 0.2347(6) 0.2152(6)
O9 O 0.2781(10) 0.2896(14) 0.4128(8)
C1 C 0.0000 0.2432(16) 0.2675(13)
C2 C 0.2149(11) 0.4393(8) 0.2051(8)
C3 C 0.1662(16) 0.4384(7) 0.1590(11)
H1 H 0.1480 0.3976 0.1442
C4 C -0.0000 0.3010(12) 0.2135(14)
H2 H 0.0399 0.2972 0.1856
C5 C 0.0871(11) 0.5000 0.0873(15)
C6 C -0.0000 0.366(2) 0.248(5)
C7 C 0.358(2) 0.5000 0.216(2)
C8 C 0.2364(9) 0.3707(9) 0.2217(9)
C9 C 0.0592(9) 0.2136(9) 0.2933(10)
C10 C 0.2461(11) 0.5000 0.2265(13)
C11 C 0.1432(13) 0.5000 0.1337(15)
C12 C 0.0600(7) 0.1724(10) 0.3418(9)
H3 H 0.1002 0.1634 0.3643
C13 C -0.0000 0.1411(13) 0.3605(11)
C14 C -0.0000 0.0877(16) 0.4141(11)
C15 C 0.1277(7) 0.2397(8) 0.2689(8)
C16 C 0.3023(12) 0.5000 0.2692(18)
H4 H 0.3039 0.4598 0.2968
Cu1J Cu -0.26360(13) 0.26608(11) 0.31076(9)
Cu1K Cu 0.26360(13) -0.26608(11) 0.31076(9)
Cu1A Cu -0.26360(13) -0.26608(11) 0.31076(9)
Cu1L Cu 0.23640(13) 0.23392(11) 0.18924(9)
Cu1F Cu -0.23640(13) 0.23392(11) 0.18924(9)
Cu1G Cu 0.23640(13) -0.23392(11) 0.18924(9)
Cu1M Cu -0.23640(13) -0.23392(11) 0.18924(9)
Cu1G_2 Cu 0.23640(13) 0.76608(11) 0.18924(9)
Cu1K_2 Cu 0.26360(13) 0.73392(11) 0.31076(9)
Cu1F_2 Cu 0.76360(13) 0.23392(11) 0.18924(9)
Cu1J_2 Cu 0.73640(13) 0.26608(11) 0.31076(9)
Cu2A Cu 0.0660(2) 0.0000 0.5000
Cu2D Cu 0.4340(2) 0.5000 0.0000
Cu2E Cu 0.5660(2) 0.5000 0.0000
Cu3A Cu -0.0000 0.4344(2) 0.0000
O1J O -0.1689(7) 0.2605(5) 0.3157(5)
O1K O 0.1689(7) -0.2605(5) 0.3157(5)
O1A O -0.1689(7) -0.2605(5) 0.3157(5)
O1L O 0.3311(7) 0.2395(5) 0.1843(5)
O1F O 0.6689(7) 0.2395(5) 0.1843(5)
O2J O 0.0548(8) 0.0673(8) 0.4316(6)
O2K O -0.0548(8) -0.0673(8) 0.4316(6)
O2A O 0.0548(8) -0.0673(8) 0.4316(6)
O2B O -0.0548(8) -0.0673(8) 0.5684(6)
O2I O -0.0548(8) 0.0673(8) 0.5684(6)
O2F O 0.4452(8) 0.4327(8) 0.0684(6)
O2L O 0.5548(8) 0.4327(8) 0.0684(6)
O3G O 0.2652(6) -0.1703(7) 0.3171(5)
O3L O 0.2652(6) 0.1703(7) 0.3171(5)
O3K O 0.2348(6) 0.6703(7) 0.1829(5)
O3F O -0.2652(6) 0.1703(7) 0.3171(5)
O3M O -0.2652(6) -0.1703(7) 0.3171(5)
O4K O 0.2543(8) 0.6397(7) 0.2813(8)
O4J O -0.2543(8) 0.3603(7) 0.2813(8)
O4K_2 O 0.2543(8) -0.3603(7) 0.2813(8)
O4A O -0.2543(8) -0.3603(7) 0.2813(8)
O5K O 0.0685(10) 0.4420(6) 0.0638(7)
O5I O 0.0685(10) 0.5580(6) -0.0638(7)
O5J O -0.0685(10) 0.5580(6) 0.0638(7)
O5C O -0.0685(10) 0.5580(6) -0.0638(7)
O8J O -0.1414(6) 0.2347(6) 0.2152(6)
O8K O 0.1414(6) -0.2347(6) 0.2152(6)
O8A O -0.1414(6) -0.2347(6) 0.2152(6)
O8L O 0.3586(6) 0.2653(6) 0.2848(6)
O8F O -0.3586(6) 0.2653(6) 0.2848(6)
O8G O 0.3586(6) -0.2653(6) 0.2848(6)
O8M O -0.3586(6) -0.2653(6) 0.2848(6)
O8F_2 O 0.6414(6) 0.2653(6) 0.2848(6)
O9J O -0.2781(10) 0.2896(14) 0.4128(8)
O9K O 0.2781(10) -0.2896(14) 0.4128(8)
O9A O -0.2781(10) -0.2896(14) 0.4128(8)
C1A C -0.0000 -0.2432(16) 0.2675(13)
C1F C 0.5000 0.2568(16) 0.2325(13)
C2K C 0.2149(11) 0.5607(8) 0.2051(8)
C3K C 0.1662(16) 0.5616(7) 0.1590(11)
H1K H 0.1480 0.6024 0.1442
C4A C 0.0000 -0.3010(12) 0.2135(14)
C4F C 0.5000 0.1990(12) 0.2865(14)
H2J H -0.0399 0.2972 0.1856
H2K H 0.0399 -0.2972 0.1856
H2A H -0.0399 -0.2972 0.1856
H2F H 0.5399 0.2028 0.3144
H2L H 0.4601 0.2028 0.3144
C6A C 0.0000 -0.366(2) 0.248(5)
C6F C 0.5000 0.134(2) 0.252(5)
C8K C 0.2364(9) 0.6293(9) 0.2217(9)
C9J C -0.0592(9) 0.2136(9) 0.2933(10)
C9K C 0.0592(9) -0.2136(9) 0.2933(10)
C9A C -0.0592(9) -0.2136(9) 0.2933(10)
C9L C 0.4408(9) 0.2864(9) 0.2067(10)
C9F C 0.5592(9) 0.2864(9) 0.2067(10)
C12J C -0.0600(7) 0.1724(10) 0.3418(9)
C12K C 0.0600(7) -0.1724(10) 0.3418(9)
C12A C -0.0600(7) -0.1724(10) 0.3418(9)
C12L C 0.4400(7) 0.3276(10) 0.1582(9)
C12F C 0.5600(7) 0.3276(10) 0.1582(9)
H3J H -0.1002 0.1634 0.3643
H3K H 0.1002 -0.1634 0.3643
H3A H -0.1002 -0.1634 0.3643
H3L H 0.3998 0.3366 0.1357
H3F H 0.6002 0.3366 0.1357
C13A C -0.0000 -0.1411(13) 0.3605(11)
C13F C 0.5000 0.3589(13) 0.1395(11)
C14A C -0.0000 -0.0877(16) 0.4141(11)
C14F C 0.5000 0.4123(16) 0.0859(11)
C15J C -0.1277(7) 0.2397(8) 0.2689(8)
C15K C 0.1277(7) -0.2397(8) 0.2689(8)
C15A C -0.1277(7) -0.2397(8) 0.2689(8)
C15L C 0.3723(7) 0.2603(8) 0.2311(8)
C15F C 0.6277(7) 0.2603(8) 0.2311(8)
H4K H 0.3039 0.5402 0.2968
O10 O 0.19(2) 0.5000 0.0000
O11 O -0.0661(19) 0.5000 0.5000
O12 O 0.0000 0.428(3) 0.5000
O13 O 0.3329(16) 0.4294(14) 0.4342(13)
O14 O 0.435(2) 0.347(3) 0.396(2)
loop_
_geom_bond_atom_site_label_1
_geom_bond_atom_site_label_2
_geom_bond_site_symmetry_1
_geom_bond_site_symmetry_2
Cu1 O1 1_555 1_555
Cu2 O2 1_555 1_555
Cu3 O5 1_555 1_555
O1 C15 1_555 1_555
O2 C14 1_555 1_555
O3 C8 1_555 1_555
O4 Cu1 1_555 1_555
O5 C5 1_555 1_555
O6 Cu2 1_555 1_555
O7 Cu3 1_555 1_555
O8 C15 1_555 1_555
O9 Cu1 1_555 1_555
C1 C4 1_555 1_555
C2 C3 1_555 1_555
C3 H1 1_555 1_555
C4 H2 1_555 1_555
C5 C11 1_555 1_555
C6 C4 1_555 1_555
C7 C16 1_555 1_555
C8 O4 1_555 1_555
C9 C1 1_555 1_555
C10 C2 1_555 1_555
C11 C3 1_555 1_555
C12 C9 1_555 1_555
H3 C12 1_555 1_555
C13 C12 1_555 1_555
C14 C13 1_555 1_555
C15 C9 1_555 1_555
C16 C10 1_555 1_555
H4 C16 1_555 1_555
Cu1J Cu1F 1_555 1_555
Cu1K Cu1G 1_555 1_555
Cu1A Cu1M 1_555 1_555
Cu1L Cu1 1_555 1_555
Cu1F O8J 1_555 1_555
Cu1G O8K 1_555 1_555
Cu1M O8A 1_555 1_555
Cu1G_2 Cu1K_2 1_555 1_555
Cu1K_2 O4K 1_555 1_555
Cu1F_2 Cu1J_2 1_555 1_555
Cu1J_2 O8F_2 1_555 1_555
Cu2A Cu2 1_555 1_555
Cu2D Cu2E 1_555 1_555
Cu2E O2L 1_555 1_555
Cu3A Cu3 1_555 1_555
O1J Cu1J 1_555 1_555
O1K Cu1K 1_555 1_555
O1A Cu1A 1_555 1_555
O1L Cu1L 1_555 1_555
O1F Cu1F_2 1_555 1_555
O2J C14 1_555 1_555
O2K Cu2 1_555 1_555
O2A Cu2A 1_555 1_555
O2B Cu2 1_555 1_555
O2I Cu2 1_555 1_555
O2F Cu2D 1_555 1_555
O2L C14F 1_555 1_555
O3G Cu1K 1_555 1_555
O3L Cu1 1_555 1_555
O3K Cu1G_2 1_555 1_555
O3F Cu1J 1_555 1_555
O3M Cu1A 1_555 1_555
O4K C8K 1_555 1_555
O4J Cu1J 1_555 1_555
O4K_2 Cu1K 1_555 1_555
O4A Cu1A 1_555 1_555
O5K C5 1_555 1_555
O5I Cu3 1_555 1_555
O5J Cu3 1_555 1_555
O5C Cu3 1_555 1_555
O8J C15J 1_555 1_555
O8K C15K 1_555 1_555
O8A C15A 1_555 1_555
O8L Cu1 1_555 1_555
O8F Cu1J 1_555 1_555
O8G Cu1K 1_555 1_555
O8M Cu1A 1_555 1_555
O8F_2 C15F 1_555 1_555
O9J Cu1J 1_555 1_555
O9K Cu1K 1_555 1_555
O9A Cu1A 1_555 1_555
C1A C4A 1_555 1_555
C1F C4F 1_555 1_555
C2K C10 1_555 1_555
C3K C11 1_555 1_555
H1K C3K 1_555 1_555
C4A H2K 1_555 1_555
C4F H2F 1_555 1_555
H2J C4 1_555 1_555
H2A C4A 1_555 1_555
H2L C4F 1_555 1_555
C6A C4A 1_555 1_555
C6F C4F 1_555 1_555
C8K O3K 1_555 1_555
C9J C1 1_555 1_555
C9K C1A 1_555 1_555
C9A C1A 1_555 1_555
C9L C1F 1_555 1_555
C9F C1F 1_555 1_555
C12J C13 1_555 1_555
C12K C9K 1_555 1_555
C12A C9A 1_555 1_555
C12L C9L 1_555 1_555
C12F C9F 1_555 1_555
H3J C12J 1_555 1_555
H3K C12K 1_555 1_555
H3A C12A 1_555 1_555
H3L C12L 1_555 1_555
H3F C12F 1_555 1_555
C13A C12K 1_555 1_555
C13F C12L 1_555 1_555
C14A O2K 1_555 1_555
C14F O2F 1_555 1_555
C15J O1J 1_555 1_555
C15K O1K 1_555 1_555
C15A O1A 1_555 1_555
C15L O1L 1_555 1_555
C15F O1F 1_555 1_555
H4K C16 1_555 1_555
O3 Cu1L 1_555 1_555
O8 Cu1L 1_555 1_555
C2 C8 1_555 1_555
Cu2A O2J 1_555 1_555
Cu3A O5K 1_555 1_555
O2A C14A 1_555 1_555
O8L C15L 1_555 1_555
C2K C3K 1_555 1_555
C2K C8K 1_555 1_555
C9J C12J 1_555 1_555
C9J C15J 1_555 1_555
C9K C15K 1_555 1_555
C9A C15A 1_555 1_555
C9L C15L 1_555 1_555
C9F C15F 1_555 1_555
C12A C13A 1_555 1_555
C12F C13F 1_555 1_555
C13A C14A 1_555 1_555
C13F C14F 1_555 1_555

#END
