
#######################################################################
#
#                 Cambridge Crystallographic Data Centre
#                                CCDC 
#
#######################################################################
#
# If this CIF has been generated from an entry in the Cambridge 
# Structural Database, then it will include bibliographic, chemical, 
# crystal, experimental, refinement or atomic coordinate data resulting 
# from the CCDC's data processing and validation procedures.
#
#######################################################################

data_PENNON
_chemical_formula_moiety         'C18 H6 Co6 O16'
_symmetry_cell_setting           tetragonal
_symmetry_space_group_name_H-M   'I -4 2 d'
_symmetry_Int_Tables_number      122
_space_group_name_Hall           'I -4 2bw'
loop_
_symmetry_equiv_pos_site_id
_symmetry_equiv_pos_as_xyz
1 x,y,z
2 -x,-y,z
3 y,-x,-z
4 -y,x,-z
5 1/2-x,y,3/4-z
6 1/2+x,-y,3/4-z
7 1/2-y,-x,3/4+z
8 1/2+y,x,3/4+z
9 1/2+x,1/2+y,1/2+z
10 1/2-x,1/2-y,1/2+z
11 1/2+y,1/2-x,1/2-z
12 1/2-y,1/2+x,1/2-z
13 -x,1/2+y,1/4-z
14 x,1/2-y,1/4-z
15 -y,1/2-x,1/4+z
16 y,1/2+x,1/4+z
_cell_length_a                   25.9180(8)
_cell_length_b                   25.9180(8)
_cell_length_c                   14.4401(5)
_cell_angle_alpha                90
_cell_angle_beta                 90
_cell_angle_gamma                90
_cell_volume                     9700.03
loop_
_atom_site_label
_atom_site_type_symbol
_atom_site_fract_x
_atom_site_fract_y
_atom_site_fract_z
Co1 Co -0.315763(17) 0.506265(18) 0.33695(3)
O1 O -0.30218(9) 0.45873(9) 0.44515(17)
O2 O -0.43568(9) 0.36117(10) 0.60173(17)
O3 O -0.22490(11) 0.47124(10) 0.51275(19)
C1 C -0.27039(13) 0.45509(12) 0.5123(3)
C2 C -0.27633(14) 0.39974(15) 0.7527(3)
O4 O -0.42936(10) 0.34248(10) 0.74756(18)
C3 C -0.25917(14) 0.42532(14) 0.6735(3)
H1 H -0.2259 0.4407 0.6731
C4 C -0.33905(12) 0.40803(11) 0.5977(2)
H2 H -0.3604 0.4101 0.5443
C5 C -0.41080(13) 0.36080(13) 0.6756(3)
C6 C -0.28953(13) 0.42852(12) 0.5969(2)
C7 C -0.32592(15) 0.37987(15) 0.7564(3)
H3 H -0.3384 0.3636 0.8109
C8 C -0.35686(13) 0.38440(12) 0.6781(2)
C9 C -0.24275(17) 0.3969(2) 0.8339(3)
O5 O -0.1888(4) 0.4111(4) 0.8101(6)
Co1D Co -0.184237(17) 0.506265(18) 1.41305(3)
Co1B Co -0.493735(18) 0.315763(17) 0.66305(3)
Co1D_2 Co -0.184237(17) 0.506265(18) 0.41305(3)
Co1_2 Co -0.315763(17) 0.506265(18) 1.33695(3)
Co1F Co -0.006265(18) 0.315763(17) 1.08695(3)
O1D O -0.19782(9) 0.45873(9) 1.30485(17)
O2D O -0.06432(9) 0.36117(10) 1.14827(17)
O2C O -0.36117(10) 0.56432(9) 0.39827(17)
O2G O -0.13883(10) 0.56432(9) 1.35173(17)
O3D O -0.27510(11) 0.47124(10) 1.23725(19)
O3D_2 O -0.27510(11) 0.47124(10) 0.23725(19)
O3_2 O -0.22490(11) 0.47124(10) 1.51275(19)
C1D C -0.22961(13) 0.45509(12) 1.2377(3)
C2D C -0.22367(14) 0.39974(15) 0.9973(3)
O4D O -0.07064(10) 0.34248(10) 1.00244(18)
O4C O -0.34248(10) 0.57064(10) 0.25244(18)
O4G O -0.15752(10) 0.57064(10) 1.49756(18)
C3D C -0.24083(14) 0.42532(14) 1.0765(3)
H1D H -0.2741 0.4407 1.0769
C4D C -0.16095(12) 0.40803(11) 1.1523(2)
H2D H -0.1396 0.4101 1.2057
C5D C -0.08920(13) 0.36080(13) 1.0744(3)
C6D C -0.21047(13) 0.42852(12) 1.1531(2)
C7D C -0.17408(15) 0.37987(15) 0.9936(3)
H3D H -0.1616 0.3636 0.9391
C8D C -0.14314(13) 0.38440(12) 1.0719(2)
C9D C -0.25725(17) 0.3969(2) 0.9161(3)
O5D O -0.3112(4) 0.4111(4) 0.9399(6)
loop_
_geom_bond_atom_site_label_1
_geom_bond_atom_site_label_2
_geom_bond_site_symmetry_1
_geom_bond_site_symmetry_2
Co1 O1 1_555 1_555
O1 C1 1_555 1_555
O2 C5 1_555 1_555
O3 C1 1_555 1_555
C1 C6 1_555 1_555
C2 C3 1_555 1_555
O4 C5 1_555 1_555
C3 H1 1_555 1_555
C4 H2 1_555 1_555
C5 C8 1_555 1_555
C6 C3 1_555 1_555
C7 C2 1_555 1_555
H3 C7 1_555 1_555
C8 C4 1_555 1_555
C9 C2 1_555 1_555
O5 C9 1_555 1_555
Co1D O1D 1_555 1_555
Co1B O2 1_555 1_555
Co1D_2 O3 1_555 1_555
Co1_2 O3D 1_555 1_555
Co1F O2D 1_555 1_555
O1D C1D 1_555 1_555
O2D C5D 1_555 1_555
O2C Co1 1_555 1_555
O2G Co1D 1_555 1_555
O3D C1D 1_555 1_555
O3D_2 Co1 1_555 1_555
O3_2 Co1D 1_555 1_555
C1D C6D 1_555 1_555
C2D C3D 1_555 1_555
O4D Co1F 1_555 1_555
O4C Co1 1_555 1_555
O4G Co1D 1_555 1_555
C3D H1D 1_555 1_555
C4D H2D 1_555 1_555
C5D O4D 1_555 1_555
C6D C3D 1_555 1_555
C7D C2D 1_555 1_555
H3D C7D 1_555 1_555
C8D C4D 1_555 1_555
C9D C9 1_555 1_555
O5D C9D 1_555 1_555
O4 Co1B 1_555 1_555
C4 C6 1_555 1_555
C7 C8 1_555 1_555
C2D C9D 1_555 1_555
C4D C6D 1_555 1_555
C5D C8D 1_555 1_555
C7D C8D 1_555 1_555

#END
