
#######################################################################
#
#                 Cambridge Crystallographic Data Centre
#                                CCDC 
#
#######################################################################
#
# If this CIF has been generated from an entry in the Cambridge 
# Structural Database, then it will include bibliographic, chemical, 
# crystal, experimental, refinement or atomic coordinate data resulting 
# from the CCDC's data processing and validation procedures.
#
#######################################################################

data_IYAHEX
_chemical_formula_moiety         '(C34 H33 O31 Pr3)n'
_symmetry_cell_setting           triclinic
_symmetry_space_group_name_H-M   'P -1'
_symmetry_Int_Tables_number      2
_space_group_name_Hall           '-P 1'
loop_
_symmetry_equiv_pos_site_id
_symmetry_equiv_pos_as_xyz
1 x,y,z
2 -x,-y,-z
_cell_length_a                   9.417(5)
_cell_length_b                   15.289(7)
_cell_length_c                   16.750(6)
_cell_angle_alpha                68.978(16)
_cell_angle_beta                 79.291(16)
_cell_angle_gamma                89.359(19)
_cell_volume                     2207.84
loop_
_atom_site_label
_atom_site_type_symbol
_atom_site_fract_x
_atom_site_fract_y
_atom_site_fract_z
Pr1 Pr 0.08383(5) 0.17215(3) 0.89228(3)
Pr2 Pr 0.38327(6) 0.23849(4) 0.47817(3)
Pr3 Pr 0.50094(5) 0.32236(3) 0.10905(3)
O1 O 0.2506(8) 0.1956(5) 0.7532(5)
O2 O 0.3925(9) 0.2353(6) 0.6236(5)
O3 O 0.8913(8) 0.2139(6) 0.7967(5)
O4 O 0.8051(8) 0.1288(5) 0.9353(5)
O5 O 0.4921(8) -0.1514(5) 0.7957(5)
O6 O 0.5898(9) -0.1734(5) 0.9093(5)
O7 O 0.6723(11) 0.4705(7) 0.5050(6)
H1 H 0.7036 0.5111 0.4572
O8 O 0.6330(10) 0.5935(6) 0.5440(5)
O9 O 0.5730(9) 0.5383(6) 0.8618(5)
O10 O 0.5167(9) 0.3928(6) 0.9569(5)
O11 O 0.5991(8) 0.3165(6) 0.3671(5)
O12 O 0.5839(7) 0.3014(5) 0.2427(4)
O13 O 1.2458(8) 0.2788(5) 0.2077(4)
O14 O 1.2478(8) 0.3641(5) 0.0712(4)
O15 O 1.0320(8) 0.6753(5) 0.0873(5)
O16 O 0.8496(8) 0.6584(5) 0.1950(5)
O17 O 1.0137(9) 0.1098(6) 0.0445(5)
O18 O 0.9641(9) -0.0345(6) 0.1409(5)
O19 O 0.7352(12) -0.0912(7) 0.4390(6)
O20 O 0.7347(10) 0.0194(6) 0.4955(5)
O21 O 0.2716(9) 0.0514(6) 0.9443(5)
O22 O 0.2671(9) 0.2386(6) 0.9545(6)
O23 O 0.6032(12) 0.1561(8) 0.5312(6)
O24 O 0.4435(11) 0.1357(7) 0.3910(6)
O25 O 0.2270(12) 0.2894(8) 0.3683(7)
O26 O 0.1374(12) 0.2668(8) 0.5421(6)
O27 O 0.7245(9) 0.2584(6) 0.0413(5)
O28 O 0.7260(9) 0.4437(6) 0.0516(5)
C1 C 0.3654(10) 0.1934(7) 0.7045(6)
C2 C 0.4816(10) 0.1374(7) 0.7499(6)
C3 C 0.5833(10) 0.1793(6) 0.7783(6)
C4 C 0.6748(10) 0.1198(7) 0.8293(6)
C5 C 0.6610(10) 0.0238(7) 0.8513(6)
H2 H 0.7173 -0.0145 0.8884
C6 C 0.5643(10) -0.0171(7) 0.8189(6)
C7 C 0.4754(10) 0.0416(7) 0.7674(6)
H3 H 0.4111 0.0161 0.7444
C8 C 0.7945(11) 0.1583(7) 0.8550(6)
C9 C 0.5514(10) -0.1210(7) 0.8432(6)
C10 C 0.5903(11) 0.2820(7) 0.7587(6)
C11 C 0.6125(14) 0.3463(8) 0.6722(7)
H4 H 0.6255 0.3242 0.6265
C12 C 0.6153(13) 0.4410(8) 0.6544(6)
C13 C 0.5966(11) 0.4751(7) 0.7221(6)
H5 H 0.5978 0.5396 0.7094
C14 C 0.5763(10) 0.4145(7) 0.8080(6)
C15 C 0.5737(10) 0.3186(7) 0.8259(6)
H6 H 0.5607 0.2775 0.8836
C16 C 0.6395(13) 0.5097(8) 0.5635(7)
C17 C 0.5546(10) 0.4503(7) 0.8808(6)
C18 C 0.6490(10) 0.3248(7) 0.2912(6)
C19 C 0.8012(9) 0.3699(6) 0.2500(6)
C20 C 0.9186(11) 0.3220(7) 0.2241(6)
C21 C 1.0482(10) 0.3766(7) 0.1754(6)
C22 C 1.0537(10) 0.4734(7) 0.1498(6)
H7 H 1.1363 0.5081 0.1129
C23 C 0.9387(10) 0.5204(6) 0.1779(6)
C24 C 0.8122(10) 0.4664(7) 0.2291(6)
H8 H 0.7343 0.4957 0.2493
C25 C 1.1869(10) 0.3359(7) 0.1502(7)
C26 C 0.9428(11) 0.6246(6) 0.1512(6)
C27 C 0.9053(10) 0.2192(6) 0.2435(6)
C28 C 0.9470(10) 0.1850(7) 0.1772(6)
H9 H 0.9863 0.2265 0.1214
C29 C 0.9311(10) 0.0885(7) 0.1928(6)
C30 C 0.8691(11) 0.0292(7) 0.2760(6)
H10 H 0.8567 -0.0347 0.2873
C31 C 0.8257(11) 0.0618(8) 0.3417(7)
C32 C 0.8459(10) 0.1572(7) 0.3262(6)
H11 H 0.8193 0.1792 0.3716
C33 C 0.9719(10) 0.0505(7) 0.1213(6)
C34 C 0.7604(14) -0.0083(8) 0.4333(7)
Pr1_2 Pr 1.08383(5) 0.17215(3) -0.10772(3)
Pr1_3 Pr 1.08383(5) 0.17215(3) 0.89228(3)
Pr1A Pr 0.91617(5) -0.17215(3) 0.10772(3)
Pr1A_2 Pr 0.91617(5) 0.82785(3) 0.10772(3)
Pr2A Pr 0.61673(6) -0.23849(4) 0.52183(3)
Pr2A_2 Pr 0.61673(6) 0.76151(4) 0.52183(3)
Pr3_2 Pr 0.50094(5) 0.32236(3) 1.10905(3)
Pr3_3 Pr 1.50094(5) 0.32236(3) 0.10905(3)
Pr3A Pr 0.49906(5) -0.32236(3) 0.89095(3)
Pr3A_2 Pr 0.49906(5) 0.67764(3) 0.89095(3)
O3_2 O -0.1087(8) 0.2139(6) 0.7967(5)
O4_2 O -0.1949(8) 0.1288(5) 0.9353(5)
O5A O 0.5079(8) 0.1514(5) 0.2043(5)
O6A O 0.4102(9) 0.1734(5) 0.0907(5)
O8A O 0.3670(10) 0.4065(6) 0.4560(5)
O9A O 0.4270(9) 0.4617(6) 0.1382(5)
O10_2 O 0.5167(9) 0.3928(6) -0.0431(5)
O13_2 O 0.2458(8) 0.2788(5) 0.2077(4)
O14_2 O 0.2478(8) 0.3641(5) 0.0712(4)
O15A O -0.0320(8) 0.3247(5) 0.9127(5)
O16A O 0.1504(8) 0.3416(5) 0.8050(5)
O17_2 O 0.0137(9) 0.1098(6) 1.0445(5)
O18A O 0.0359(9) 0.0345(6) 0.8591(5)
O19A O 0.2648(12) 0.0912(7) 0.5610(6)
O29 O 0.7548(19) 0.5990(11) 0.3639(9)
O30 O -0.120(2) 0.1540(13) 0.6387(11)
O31 O -0.180(2) -0.0235(15) 0.6621(13)
loop_
_geom_bond_atom_site_label_1
_geom_bond_atom_site_label_2
_geom_bond_site_symmetry_1
_geom_bond_site_symmetry_2
Pr1 O1 1_555 1_555
Pr2 O2 1_555 1_555
Pr3 O12 1_555 1_555
O1 C1 1_555 1_555
O2 C1 1_555 1_555
O3 C8 1_555 1_555
O4 C8 1_555 1_555
O5 C9 1_555 1_555
O6 C9 1_555 1_555
O7 H1 1_555 1_555
O8 C16 1_555 1_555
O9 C17 1_555 1_555
O10 C17 1_555 1_555
O11 Pr2 1_555 1_555
O12 C18 1_555 1_555
O13 C25 1_555 1_555
O14 C25 1_555 1_555
O15 C26 1_555 1_555
O16 C26 1_555 1_555
O17 C33 1_555 1_555
O18 C33 1_555 1_555
O19 C34 1_555 1_555
O20 C34 1_555 1_555
O21 Pr1 1_555 1_555
O22 Pr1 1_555 1_555
O23 Pr2 1_555 1_555
O24 Pr2 1_555 1_555
O25 Pr2 1_555 1_555
O26 Pr2 1_555 1_555
O27 Pr3 1_555 1_555
O28 Pr3 1_555 1_555
C1 C2 1_555 1_555
C2 C3 1_555 1_555
C3 C4 1_555 1_555
C4 C5 1_555 1_555
C5 H2 1_555 1_555
C6 C5 1_555 1_555
C7 C2 1_555 1_555
H3 C7 1_555 1_555
C8 C4 1_555 1_555
C9 C6 1_555 1_555
C10 C3 1_555 1_555
C11 C10 1_555 1_555
H4 C11 1_555 1_555
C12 C11 1_555 1_555
C13 C12 1_555 1_555
H5 C13 1_555 1_555
C14 C13 1_555 1_555
C15 C10 1_555 1_555
H6 C15 1_555 1_555
C16 O7 1_555 1_555
C17 C14 1_555 1_555
C18 O11 1_555 1_555
C19 C18 1_555 1_555
C20 C19 1_555 1_555
C21 C20 1_555 1_555
C22 C21 1_555 1_555
H7 C22 1_555 1_555
C23 C22 1_555 1_555
C24 C19 1_555 1_555
H8 C24 1_555 1_555
C25 C21 1_555 1_555
C26 C23 1_555 1_555
C27 C20 1_555 1_555
C28 C27 1_555 1_555
H9 C28 1_555 1_555
C29 C28 1_555 1_555
C30 C29 1_555 1_555
H10 C30 1_555 1_555
C31 C30 1_555 1_555
C32 C27 1_555 1_555
H11 C32 1_555 1_555
C33 C29 1_555 1_555
C34 C31 1_555 1_555
Pr1_2 O17 1_555 1_555
Pr1_3 O3 1_555 1_555
Pr1A O18 1_555 1_555
Pr1A_2 O15 1_555 1_555
Pr2A O19 1_555 1_555
Pr2A_2 O8 1_555 1_555
Pr3_2 O10 1_555 1_555
Pr3_3 O13 1_555 1_555
Pr3A O5 1_555 1_555
Pr3A_2 O9 1_555 1_555
O3_2 Pr1 1_555 1_555
O4_2 Pr1 1_555 1_555
O5A Pr3 1_555 1_555
O6A Pr3 1_555 1_555
O8A Pr2 1_555 1_555
O9A Pr3 1_555 1_555
O10_2 Pr3 1_555 1_555
O13_2 Pr3 1_555 1_555
O14_2 Pr3 1_555 1_555
O15A Pr1 1_555 1_555
O16A Pr1 1_555 1_555
O17_2 Pr1 1_555 1_555
O18A Pr1 1_555 1_555
O19A Pr2 1_555 1_555
O4 Pr1_3 1_555 1_555
O6 Pr3A 1_555 1_555
O14 Pr3_3 1_555 1_555
O16 Pr1A_2 1_555 1_555
C6 C7 1_555 1_555
C12 C16 1_555 1_555
C14 C15 1_555 1_555
C23 C24 1_555 1_555
C31 C32 1_555 1_555

#END
