
#######################################################################
#
#                 Cambridge Crystallographic Data Centre
#                                CCDC 
#
#######################################################################
#
# If this CIF has been generated from an entry in the Cambridge 
# Structural Database, then it will include bibliographic, chemical, 
# crystal, experimental, refinement or atomic coordinate data resulting 
# from the CCDC's data processing and validation procedures.
#
#######################################################################

data_WOVDES
_chemical_formula_moiety         '(C66 H56 N12 Ni2 O12)n'
_symmetry_cell_setting           monoclinic
_symmetry_space_group_name_H-M   'C 2/c'
_symmetry_Int_Tables_number      15
_space_group_name_Hall           '-C 2yc'
loop_
_symmetry_equiv_pos_site_id
_symmetry_equiv_pos_as_xyz
1 x,y,z
2 -x,y,1/2-z
3 1/2+x,1/2+y,z
4 1/2-x,1/2+y,1/2-z
5 -x,-y,-z
6 x,-y,1/2+z
7 1/2-x,1/2-y,-z
8 1/2+x,1/2-y,1/2+z
_cell_length_a                   30.179(4)
_cell_length_b                   10.042(2)
_cell_length_c                   25.1780(15)
_cell_angle_alpha                90
_cell_angle_beta                 111.147(8)
_cell_angle_gamma                90
_cell_volume                     7116.54
loop_
_atom_site_label
_atom_site_type_symbol
_atom_site_fract_x
_atom_site_fract_y
_atom_site_fract_z
Ni1 Ni 0.93817(2) 0.08902(6) 0.72877(3)
C1 C 0.9318(2) 0.7294(5) 0.3176(2)
C2 C 0.9007(2) 0.6681(5) 0.3465(2)
C3 C 0.8548(2) 0.7154(6) 0.3351(3)
H1 H 0.8439 0.7893 0.3118
C4 C 0.8260(2) 0.6530(7) 0.3583(3)
H2 H 0.7954 0.6852 0.3503
C5 C 0.8407(2) 0.5456(7) 0.3927(3)
H3 H 0.8205 0.5044 0.4081
C6 C 0.8867(2) 0.4978(6) 0.4047(2)
C7 C 0.9165(2) 0.5579(5) 0.3816(2)
H4 H 0.9470 0.5250 0.3895
C8 C 0.9433(2) 0.3262(6) 0.4515(3)
H5 H 0.9684 0.3871 0.4725
H6 H 0.9472 0.3041 0.4160
C9 C 0.9458(2) 0.2015(5) 0.4860(2)
C10 C 0.9840(2) 0.1744(5) 0.5335(2)
H7 H 1.0084 0.2365 0.5466
C11 C 0.9874(2) 0.0568(5) 0.5627(2)
H8 H 1.0142 0.0403 0.5949
C12 C 0.95163(19) -0.0370(5) 0.5452(2)
C13 C 0.9121(2) -0.0073(6) 0.4984(2)
H9 H 0.8869 -0.0672 0.4869
C14 C 0.9088(2) 0.1091(6) 0.4682(3)
H10 H 0.8820 0.1260 0.4361
C15 C 0.95633(19) -0.1696(5) 0.5743(2)
C16 C 0.9392(2) -0.2821(5) 0.5410(2)
H11 H 0.9241 -0.2727 0.5018
C17 C 0.9442(2) -0.4077(5) 0.5650(3)
H12 H 0.9314 -0.4813 0.5421
C18 C 0.9678(2) -0.4241(6) 0.6224(3)
H13 H 0.9717 -0.5088 0.6383
C19 C 0.9858(2) -0.3152(5) 0.6563(2)
H14 H 1.0026 -0.3268 0.6950
C20 C 0.97914(18) -0.1868(5) 0.6330(2)
C21 C 0.99109(19) -0.0729(5) 0.6748(2)
C22 C 0.8693(2) -0.1399(6) 0.6721(2)
H15 H 0.8937 -0.1938 0.6704
C23 C 0.8308(2) 0.0139(7) 0.6876(3)
H16 H 0.8236 0.0952 0.7002
C24 C 0.8008(2) -0.2931(6) 0.6216(3)
H17 H 0.7788 -0.3248 0.6389
H18 H 0.8246 -0.3618 0.6263
C25 C 0.7742(2) -0.2688(6) 0.5585(3)
C26 C 0.7257(2) -0.2839(7) 0.5343(3)
H19 H 0.7087 -0.3075 0.5571
C27 C 0.7978(2) -0.2348(7) 0.5223(3)
H20 H 0.8307 -0.2247 0.5373
C28 C 0.8978(2) 0.2419(6) 0.6165(2)
H21 H 0.9095 0.1785 0.5981
C29 C 0.8819(2) 0.3524(6) 0.6774(3)
H22 H 0.8810 0.3805 0.7122
C30 C 0.8443(2) 0.3631(6) 0.5303(3)
H23 H 0.8611 0.3209 0.5084
H24 H 0.8421 0.4576 0.5218
C31 C 0.7954(2) 0.3048(6) 0.5140(2)
C32 C 0.7560(3) 0.3814(6) 0.4901(3)
H25 H 0.7595 0.4708 0.4828
C33 C 0.7890(2) 0.1710(6) 0.5236(3)
H26 H 0.8154 0.1162 0.5394
N1 N 0.87082(16) 0.3426(4) 0.5916(2)
N2 N 0.85971(19) 0.4151(5) 0.6298(2)
N3 N 0.90614(16) 0.2432(4) 0.67207(19)
N4 N 0.82419(17) -0.1713(5) 0.6509(2)
N5 N 0.79818(19) -0.0705(6) 0.6604(3)
N6 N 0.87537(16) -0.0225(4) 0.69627(19)
O1 O 0.97042(17) 0.6799(5) 0.3238(2)
O2 O 0.91476(14) 0.8301(4) 0.28724(16)
O3 O 0.89815(15) 0.3866(4) 0.44042(18)
O4 O 1.03143(13) -0.0665(3) 0.71318(15)
O5 O 0.95718(13) 0.0060(4) 0.66752(14)
O6 O 1.0000 0.2049(5) 0.7500
H27 H 0.9856(17) 0.242(6) 0.771(3)
C22F C 0.6307(2) -0.3601(6) 0.3279(2)
H15F H 0.6063 -0.3062 0.3296
C23F C 0.6692(2) -0.5139(7) 0.3124(3)
H16F H 0.6764 -0.5952 0.2998
C24F C 0.6992(2) -0.2069(6) 0.3784(3)
H17F H 0.7212 -0.1752 0.3611
H18F H 0.6754 -0.1382 0.3737
C25F C 0.7258(2) -0.2312(6) 0.4415(3)
C26F C 0.7743(2) -0.2161(7) 0.4657(3)
H19F H 0.7913 -0.1925 0.4429
C27F C 0.7022(2) -0.2652(7) 0.4777(3)
H20F H 0.6693 -0.2753 0.4627
N4F N 0.67581(17) -0.3287(5) 0.3491(2)
N5F N 0.70182(19) -0.4295(6) 0.3396(3)
N6F N 0.62463(16) -0.4775(4) 0.30373(19)
C28F C 0.6022(2) 0.2581(6) 0.3835(2)
H21F H 0.5905 0.3215 0.4019
C29F C 0.6181(2) 0.1476(6) 0.3226(3)
H22F H 0.6190 0.1195 0.2878
C30F C 0.6557(2) 0.1369(6) 0.4697(3)
H23F H 0.6389 0.1791 0.4916
H24F H 0.6579 0.0424 0.4782
C31F C 0.7046(2) 0.1952(6) 0.4860(2)
C32F C 0.7440(3) 0.1186(6) 0.5099(3)
H25F H 0.7405 0.0292 0.5172
C33F C 0.7110(2) 0.3290(6) 0.4764(3)
H26F H 0.6846 0.3838 0.4606
N1F N 0.62918(16) 0.1574(4) 0.4084(2)
N2F N 0.64029(19) 0.0849(5) 0.3702(2)
N3F N 0.59386(16) 0.2568(4) 0.32793(19)
H27A H 1.0144(17) 0.242(6) 0.729(3)
Ni1A Ni 1.06183(2) 0.08902(6) 0.77123(3)
C1A C 1.0682(2) 0.7294(5) 1.1824(2)
C2A C 1.0993(2) 0.6681(5) 1.1535(2)
C3A C 1.1452(2) 0.7154(6) 1.1649(3)
H1A H 1.1561 0.7893 1.1882
C4A C 1.1740(2) 0.6530(7) 1.1417(3)
H2A H 1.2046 0.6852 1.1497
C5A C 1.1593(2) 0.5456(7) 1.1073(3)
H3A H 1.1795 0.5044 1.0919
C6A C 1.1133(2) 0.4978(6) 1.0953(2)
C7A C 1.0835(2) 0.5579(5) 1.1184(2)
H4A H 1.0530 0.5250 1.1105
C8A C 1.0567(2) 0.3262(6) 1.0485(3)
H5A H 1.0316 0.3871 1.0275
H6A H 1.0528 0.3041 1.0840
C9A C 1.0542(2) 0.2015(5) 1.0140(2)
C10A C 1.0160(2) 0.1744(5) 0.9665(2)
H7A H 0.9916 0.2365 0.9534
C11A C 1.0126(2) 0.0568(5) 0.9373(2)
H8A H 0.9858 0.0403 0.9051
C12A C 1.04837(19) -0.0370(5) 0.9548(2)
C13A C 1.0879(2) -0.0073(6) 1.0016(2)
H9A H 1.1131 -0.0672 1.0131
C14A C 1.0912(2) 0.1091(6) 1.0318(3)
H10A H 1.1180 0.1260 1.0639
C15A C 1.04367(19) -0.1696(5) 0.9257(2)
C16A C 1.0608(2) -0.2821(5) 0.9590(2)
H11A H 1.0759 -0.2727 0.9982
C17A C 1.0558(2) -0.4077(5) 0.9350(3)
H12A H 1.0686 -0.4813 0.9579
C18A C 1.0322(2) -0.4241(6) 0.8776(3)
H13A H 1.0283 -0.5088 0.8617
C19A C 1.0142(2) -0.3152(5) 0.8437(2)
H14A H 0.9974 -0.3268 0.8050
C20A C 1.02086(18) -0.1868(5) 0.8670(2)
C21A C 1.00891(19) -0.0729(5) 0.8252(2)
O1A O 1.02958(17) 0.6799(5) 1.1762(2)
O2A O 1.08524(14) 0.8301(4) 1.21276(16)
O3A O 1.10185(15) 0.3866(4) 1.05958(18)
O4A O 0.96857(13) -0.0665(3) 0.78682(15)
O5A O 1.04282(13) 0.0060(4) 0.83248(14)
Ni1D Ni 1.06183(2) 0.91098(6) 1.27123(3)
Ni1E Ni 0.93817(2) 0.91098(6) 0.22877(3)
Ni1F Ni 0.56183(2) -0.58902(6) 0.27123(3)
Ni1F_2 Ni 0.56183(2) 0.41098(6) 0.27123(3)
N3A N 1.09386(16) 0.2432(4) 0.82793(19)
N6A N 1.12463(16) -0.0225(4) 0.80373(19)
O2D O 1.08524(14) 0.1699(4) 0.71276(16)
O2E O 0.91476(14) 0.1699(4) 0.78724(16)
O7 O 1.1095(4) -0.1422(15) 0.6798(4)
loop_
_geom_bond_atom_site_label_1
_geom_bond_atom_site_label_2
_geom_bond_site_symmetry_1
_geom_bond_site_symmetry_2
Ni1 N3 1_555 1_555
C1 C2 1_555 1_555
C2 C3 1_555 1_555
C3 H1 1_555 1_555
C4 C3 1_555 1_555
H2 C4 1_555 1_555
C5 C4 1_555 1_555
H3 C5 1_555 1_555
C6 C5 1_555 1_555
C7 C2 1_555 1_555
H4 C7 1_555 1_555
C8 H5 1_555 1_555
H6 C8 1_555 1_555
C9 C8 1_555 1_555
C10 C9 1_555 1_555
H7 C10 1_555 1_555
C11 C10 1_555 1_555
H8 C11 1_555 1_555
C12 C11 1_555 1_555
C13 C12 1_555 1_555
H9 C13 1_555 1_555
C14 C9 1_555 1_555
H10 C14 1_555 1_555
C15 C12 1_555 1_555
C16 C15 1_555 1_555
H11 C16 1_555 1_555
C17 C16 1_555 1_555
H12 C17 1_555 1_555
C18 C17 1_555 1_555
H13 C18 1_555 1_555
C19 C18 1_555 1_555
H14 C19 1_555 1_555
C20 C15 1_555 1_555
C21 C20 1_555 1_555
C22 H15 1_555 1_555
C23 H16 1_555 1_555
C24 H17 1_555 1_555
H18 C24 1_555 1_555
C25 C24 1_555 1_555
C26 C25 1_555 1_555
H19 C26 1_555 1_555
C27 C25 1_555 1_555
H20 C27 1_555 1_555
C28 H21 1_555 1_555
C29 H22 1_555 1_555
C30 H23 1_555 1_555
H24 C30 1_555 1_555
C31 C30 1_555 1_555
C32 C31 1_555 1_555
H25 C32 1_555 1_555
C33 C31 1_555 1_555
H26 C33 1_555 1_555
N1 C28 1_555 1_555
N2 C29 1_555 1_555
N3 C28 1_555 1_555
N4 C22 1_555 1_555
N5 C23 1_555 1_555
N6 Ni1 1_555 1_555
O1 C1 1_555 1_555
O2 C1 1_555 1_555
O3 C6 1_555 1_555
O4 C21 1_555 1_555
O5 Ni1 1_555 1_555
O6 Ni1 1_555 1_555
H27 O6 1_555 1_555
C22F H15F 1_555 1_555
C23F H16F 1_555 1_555
C24F H17F 1_555 1_555
H18F C24F 1_555 1_555
C25F C24F 1_555 1_555
C26F C27 1_555 1_555
H19F C26F 1_555 1_555
C27F C26 1_555 1_555
H20F C27F 1_555 1_555
N4F C22F 1_555 1_555
N5F C23F 1_555 1_555
N6F C22F 1_555 1_555
C28F H21F 1_555 1_555
C29F H22F 1_555 1_555
C30F H23F 1_555 1_555
H24F C30F 1_555 1_555
C31F C30F 1_555 1_555
C32F C33 1_555 1_555
H25F C32F 1_555 1_555
C33F C32 1_555 1_555
H26F C33F 1_555 1_555
N1F C28F 1_555 1_555
N2F C29F 1_555 1_555
N3F C28F 1_555 1_555
H27A O6 1_555 1_555
Ni1A O4 1_555 1_555
C1A C2A 1_555 1_555
C2A C3A 1_555 1_555
C3A H1A 1_555 1_555
C4A C3A 1_555 1_555
H2A C4A 1_555 1_555
C5A C4A 1_555 1_555
H3A C5A 1_555 1_555
C6A C5A 1_555 1_555
C7A C2A 1_555 1_555
H4A C7A 1_555 1_555
C8A H5A 1_555 1_555
H6A C8A 1_555 1_555
C9A C8A 1_555 1_555
C10A C9A 1_555 1_555
H7A C10A 1_555 1_555
C11A C10A 1_555 1_555
H8A C11A 1_555 1_555
C12A C11A 1_555 1_555
C13A C12A 1_555 1_555
H9A C13A 1_555 1_555
C14A C9A 1_555 1_555
H10A C14A 1_555 1_555
C15A C12A 1_555 1_555
C16A C15A 1_555 1_555
H11A C16A 1_555 1_555
C17A C16A 1_555 1_555
H12A C17A 1_555 1_555
C18A C17A 1_555 1_555
H13A C18A 1_555 1_555
C19A C18A 1_555 1_555
H14A C19A 1_555 1_555
C20A C15A 1_555 1_555
C21A C20A 1_555 1_555
O1A C1A 1_555 1_555
O2A C1A 1_555 1_555
O3A C6A 1_555 1_555
O4A Ni1 1_555 1_555
O5A Ni1A 1_555 1_555
Ni1D O2A 1_555 1_555
Ni1E O2 1_555 1_555
Ni1F N6F 1_555 1_555
Ni1F_2 N3F 1_555 1_555
N3A Ni1A 1_555 1_555
N6A Ni1A 1_555 1_555
O2D Ni1A 1_555 1_555
O2E Ni1 1_555 1_555
C6 C7 1_555 1_555
C8 O3 1_555 1_555
C13 C14 1_555 1_555
C19 C20 1_555 1_555
C21 O5 1_555 1_555
C22 N6 1_555 1_555
C23 N6 1_555 1_555
C24 N4 1_555 1_555
C29 N3 1_555 1_555
C30 N1 1_555 1_555
N1 N2 1_555 1_555
N4 N5 1_555 1_555
O6 Ni1A 1_555 1_555
C23F N6F 1_555 1_555
C24F N4F 1_555 1_555
C25F C26F 1_555 1_555
C25F C27F 1_555 1_555
N4F N5F 1_555 1_555
C29F N3F 1_555 1_555
C30F N1F 1_555 1_555
C31F C32F 1_555 1_555
C31F C33F 1_555 1_555
N1F N2F 1_555 1_555
C6A C7A 1_555 1_555
C8A O3A 1_555 1_555
C13A C14A 1_555 1_555
C19A C20A 1_555 1_555
C21A O4A 1_555 1_555
C21A O5A 1_555 1_555

#END
