
#######################################################################
#
#                 Cambridge Crystallographic Data Centre
#                                CCDC 
#
#######################################################################
#
# If this CIF has been generated from an entry in the Cambridge 
# Structural Database, then it will include bibliographic, chemical, 
# crystal, experimental, refinement or atomic coordinate data resulting 
# from the CCDC's data processing and validation procedures.
#
#######################################################################

data_KOCCOW
_chemical_formula_moiety         '(C64 H38 Cd2 N2 O14)n'
_symmetry_cell_setting           monoclinic
_symmetry_space_group_name_H-M   'P 21/c'
_symmetry_Int_Tables_number      14
_space_group_name_Hall           '-P 2ybc'
loop_
_symmetry_equiv_pos_site_id
_symmetry_equiv_pos_as_xyz
1 x,y,z
2 -x,1/2+y,1/2-z
3 -x,-y,-z
4 x,1/2-y,1/2+z
_cell_length_a                   17.0229(8)
_cell_length_b                   29.8118(10)
_cell_length_c                   16.1301(6)
_cell_angle_alpha                90
_cell_angle_beta                 99.179(4)
_cell_angle_gamma                90
_cell_volume                     8080.94
loop_
_atom_site_label
_atom_site_type_symbol
_atom_site_fract_x
_atom_site_fract_y
_atom_site_fract_z
Cd1 Cd 0.40365(3) 0.720989(13) 0.47796(3)
Cd2 Cd 0.14299(3) 1.210588(14) -0.01303(3)
C1 C 0.3044(7) 0.6653(4) 0.3679(6)
C2 C 0.2614(6) 0.6391(2) 0.2946(5)
C3 C 0.1887(6) 0.6448(4) 0.2605(8)
C4 C 0.1526(6) 0.6227(4) 0.1884(7)
C5 C 0.1911(4) 0.5925(2) 0.1516(4)
C6 C 0.2730(5) 0.5814(3) 0.1876(6)
C7 C 0.3104(6) 0.6040(4) 0.2596(6)
C8 C 0.1306(4) 0.3006(2) 0.0179(4)
C9 C 0.1278(4) 0.3502(2) 0.0196(4)
C10 C 0.1860(4) 0.37536(18) 0.0666(4)
H1 H 0.2268 0.3608 0.1017
C11 C 0.1860(3) 0.42088(18) 0.0633(4)
H2 H 0.2274 0.4366 0.0953
C12 C 0.1255(3) 0.44479(18) 0.0132(4)
C13 C 0.0645(3) 0.41918(19) -0.0327(4)
H3 H 0.0227 0.4337 -0.0664
C14 C 0.0651(3) 0.37341(19) -0.0291(4)
H4 H 0.0232 0.3574 -0.0595
C15 C -0.0488(6) 0.6534(3) -0.3754(5)
C16 C -0.0067(5) 0.6288(2) -0.3013(5)
C17 C -0.0493(5) 0.5961(3) -0.2606(5)
H5 H -0.1015 0.5891 -0.2834
C18 C -0.0147(4) 0.5752(3) -0.1894(5)
H6 H -0.0427 0.5533 -0.1652
C19 C 0.0629(4) 0.58637(19) -0.1521(4)
C20 C 0.1010(5) 0.6169(3) -0.1909(6)
H7 H 0.1526 0.6249 -0.1675
C21 C 0.0668(6) 0.6368(3) -0.2638(6)
H8 H 0.0970 0.6573 -0.2887
C22 C 0.1562(3) 0.56685(18) 0.0750(4)
C23 C 0.1556(3) 0.51935(18) 0.0790(4)
C24 C 0.1258(3) 0.49387(18) 0.0084(4)
C25 C 0.0962(3) 0.51603(18) -0.0646(4)
C26 C 0.0969(3) 0.56372(18) -0.0706(4)
C27 C 0.1276(3) 0.58852(19) 0.0006(4)
C28 C 0.3953(4) 0.8108(2) 0.5106(4)
C29 C 0.3884(3) 0.86077(18) 0.5140(3)
C30 C 0.4466(3) 0.88584(18) 0.5606(4)
H9 H 0.4893 0.8715 0.5929
C31 C 0.4431(3) 0.93243(18) 0.5606(4)
H10 H 0.4838 0.9486 0.5926
C32 C 0.3795(3) 0.95538(18) 0.5133(3)
C33 C 0.3190(3) 0.92908(18) 0.4678(4)
H11 H 0.2754 0.9431 0.4361
C34 C 0.3229(3) 0.88318(18) 0.4691(4)
H12 H 0.2813 0.8666 0.4396
C35 C 0.5349(4) 1.17631(19) 0.8809(4)
C36 C 0.5015(3) 1.15079(18) 0.8036(4)
C37 C 0.4297(5) 1.1279(3) 0.7984(5)
H13 H 0.4025 1.1283 0.8441
C38 C 0.3975(4) 1.1042(3) 0.7261(4)
H14 H 0.3495 1.0890 0.7243
C39 C 0.4358(3) 1.10316(17) 0.6583(4)
C40 C 0.5042(5) 1.1284(3) 0.6625(4)
H15 H 0.5293 1.1298 0.6154
C41 C 0.5375(4) 1.1518(2) 0.7350(4)
H16 H 0.5842 1.1680 0.7357
C42 C 0.2079(4) 1.16648(19) 0.1279(4)
C43 C 0.2424(3) 1.14294(18) 0.2061(4)
C44 C 0.2057(4) 1.1431(3) 0.2760(4)
H17 H 0.1575 1.1581 0.2741
C45 C 0.2390(4) 1.1215(3) 0.3496(4)
H18 H 0.2126 1.1225 0.3958
C46 C 0.3090(3) 1.09886(17) 0.3560(4)
C47 C 0.3478(4) 1.0994(3) 0.2869(4)
H19 H 0.3967 1.0850 0.2898
C48 C 0.3148(4) 1.1211(3) 0.2132(4)
H20 H 0.3420 1.1209 0.1676
C49 C 0.3766(3) 1.00516(17) 0.5113(3)
C50 C 0.3447(3) 1.02769(17) 0.4371(4)
C51 C 0.3429(3) 1.07476(18) 0.4353(3)
C52 C 0.3729(3) 1.09894(17) 0.5077(3)
C53 C 0.4035(3) 1.07731(17) 0.5817(3)
C54 C 0.4053(3) 1.03004(18) 0.5834(4)
C55 C 0.4437(4) 1.2465(3) -0.4054(4)
H21 H 0.4345 1.2352 -0.4599
C56 C 0.3854(4) 1.2401(3) -0.3552(4)
H22 H 0.3381 1.2257 -0.3769
C57 C 0.3975(3) 1.25500(18) -0.2739(3)
C58 C 0.4682(4) 1.2755(2) -0.2477(4)
H23 H 0.4804 1.2856 -0.1926
C59 C 0.5223(5) 1.2815(2) -0.3019(4)
H24 H 0.5697 1.2963 -0.2821
C60 C 0.2898(4) 1.2531(3) -0.0873(4)
H25 H 0.2981 1.2647 -0.0330
C61 C 0.3463(4) 1.2629(3) -0.1400(4)
H26 H 0.3898 1.2811 -0.1203
C62 C 0.3377(3) 1.24644(18) -0.2177(3)
C63 C 0.2684(6) 1.2240(3) -0.2436(5)
H27 H 0.2557 1.2145 -0.2991
C64 C 0.2173(6) 1.2153(3) -0.1878(6)
H28 H 0.1721 1.1984 -0.2070
O1 O 0.3697(5) 0.6524(3) 0.4060(4)
O2 O 0.2836(6) 0.6986(3) 0.3869(6)
O3 O 0.1918(3) 0.28094(13) 0.0547(3)
O4 O 0.0739(3) 0.27860(14) -0.0232(4)
O5 O -0.1153(4) 0.6422(2) -0.4080(4)
O6 O -0.0228(5) 0.6859(2) -0.3981(5)
O7 O 0.4577(3) 0.79240(13) 0.5419(3)
O8 O 0.3374(3) 0.78856(13) 0.4728(4)
O9 O 0.6041(3) 1.19162(15) 0.8880(3)
O10 O 0.4929(3) 1.18114(15) 0.9385(3)
O11 O 0.1365(3) 1.18021(16) 0.1200(3)
O12 O 0.2491(3) 1.17182(15) 0.0708(3)
O13 O 0.3721(4) 1.1447(2) 0.5028(4)
O14 O 0.1285(3) 0.63538(18) -0.0041(3)
N1 N 0.2272(3) 1.22882(17) -0.1103(3)
N2 N 0.5104(3) 1.26738(17) -0.3804(3)
Cd1A Cd 0.59635(3) 1.220989(13) 1.02204(3)
Cd1B Cd 0.59635(3) 1.279011(13) -0.47796(3)
Cd2_2 Cd 0.14299(3) 0.210588(14) -0.01303(3)
Cd2A Cd -0.14299(3) 0.710588(14) -0.48697(3)
O3_2 O 0.1918(3) 1.28094(13) 0.0547(3)
O4_2 O 0.0739(3) 1.27860(14) -0.0232(4)
O5A O 0.1153(4) 1.1422(2) -0.0920(4)
O6A O 0.0228(5) 1.1859(2) -0.1019(5)
O9A O 0.3959(3) 0.69162(15) 0.6120(3)
O10A O 0.5071(3) 0.68114(15) 0.5615(3)
N2B N 0.4896(3) 0.73262(17) 0.3804(3)
loop_
_geom_bond_atom_site_label_1
_geom_bond_atom_site_label_2
_geom_bond_site_symmetry_1
_geom_bond_site_symmetry_2
Cd1 O1 1_555 1_555
Cd2 O11 1_555 1_555
C1 C2 1_555 1_555
C2 C3 1_555 1_555
C3 C4 1_555 1_555
C4 C5 1_555 1_555
C5 C6 1_555 1_555
C6 C7 1_555 1_555
C7 C2 1_555 1_555
C8 C9 1_555 1_555
C9 C10 1_555 1_555
C10 H1 1_555 1_555
C11 C10 1_555 1_555
H2 C11 1_555 1_555
C12 C11 1_555 1_555
C13 C12 1_555 1_555
H3 C13 1_555 1_555
C14 C9 1_555 1_555
H4 C14 1_555 1_555
C15 C16 1_555 1_555
C16 C17 1_555 1_555
C17 H5 1_555 1_555
C18 C17 1_555 1_555
H6 C18 1_555 1_555
C19 C18 1_555 1_555
C20 C19 1_555 1_555
H7 C20 1_555 1_555
C21 C16 1_555 1_555
H8 C21 1_555 1_555
C22 C5 1_555 1_555
C23 C22 1_555 1_555
C24 C12 1_555 1_555
C25 C24 1_555 1_555
C26 C19 1_555 1_555
C27 C22 1_555 1_555
C28 C29 1_555 1_555
C29 C30 1_555 1_555
C30 H9 1_555 1_555
C31 C30 1_555 1_555
H10 C31 1_555 1_555
C32 C31 1_555 1_555
C33 C32 1_555 1_555
H11 C33 1_555 1_555
C34 C29 1_555 1_555
H12 C34 1_555 1_555
C35 C36 1_555 1_555
C36 C37 1_555 1_555
C37 H13 1_555 1_555
C38 C37 1_555 1_555
H14 C38 1_555 1_555
C39 C38 1_555 1_555
C40 C39 1_555 1_555
H15 C40 1_555 1_555
C41 C36 1_555 1_555
H16 C41 1_555 1_555
C42 C43 1_555 1_555
C43 C44 1_555 1_555
C44 H17 1_555 1_555
C45 C44 1_555 1_555
H18 C45 1_555 1_555
C46 C45 1_555 1_555
C47 C46 1_555 1_555
H19 C47 1_555 1_555
C48 C43 1_555 1_555
H20 C48 1_555 1_555
C49 C32 1_555 1_555
C50 C49 1_555 1_555
C51 C46 1_555 1_555
C52 C51 1_555 1_555
C53 C39 1_555 1_555
C54 C49 1_555 1_555
C55 H21 1_555 1_555
C56 C55 1_555 1_555
H22 C56 1_555 1_555
C57 C56 1_555 1_555
C58 C57 1_555 1_555
H23 C58 1_555 1_555
C59 C58 1_555 1_555
H24 C59 1_555 1_555
C60 H25 1_555 1_555
C61 C60 1_555 1_555
H26 C61 1_555 1_555
C62 C57 1_555 1_555
C63 C62 1_555 1_555
H27 C63 1_555 1_555
C64 C63 1_555 1_555
H28 C64 1_555 1_555
O1 C1 1_555 1_555
O2 Cd1 1_555 1_555
O3 C8 1_555 1_555
O4 C8 1_555 1_555
O5 C15 1_555 1_555
O6 C15 1_555 1_555
O7 Cd1 1_555 1_555
O8 Cd1 1_555 1_555
O9 C35 1_555 1_555
O10 C35 1_555 1_555
O11 C42 1_555 1_555
O12 Cd2 1_555 1_555
O13 C52 1_555 1_555
O14 C27 1_555 1_555
N1 Cd2 1_555 1_555
N2 C55 1_555 1_555
Cd1A O9 1_555 1_555
Cd1B N2 1_555 1_555
Cd2_2 O3 1_555 1_555
Cd2A O5 1_555 1_555
O3_2 Cd2 1_555 1_555
O4_2 Cd2 1_555 1_555
O5A Cd2 1_555 1_555
O6A Cd2 1_555 1_555
O9A Cd1 1_555 1_555
O10A Cd1 1_555 1_555
N2B Cd1 1_555 1_555
C1 O2 1_555 1_555
C13 C14 1_555 1_555
C20 C21 1_555 1_555
C23 C24 1_555 1_555
C25 C26 1_555 1_555
C26 C27 1_555 1_555
C28 O7 1_555 1_555
C28 O8 1_555 1_555
C33 C34 1_555 1_555
C40 C41 1_555 1_555
C42 O12 1_555 1_555
C47 C48 1_555 1_555
C50 C51 1_555 1_555
C52 C53 1_555 1_555
C53 C54 1_555 1_555
C59 N2 1_555 1_555
C60 N1 1_555 1_555
C61 C62 1_555 1_555
C64 N1 1_555 1_555
O4 Cd2_2 1_555 1_555
O6 Cd2A 1_555 1_555
O10 Cd1A 1_555 1_555

#END
