
#######################################################################
#
#                 Cambridge Crystallographic Data Centre
#                                CCDC 
#
#######################################################################
#
# If this CIF has been generated from an entry in the Cambridge 
# Structural Database, then it will include bibliographic, chemical, 
# crystal, experimental, refinement or atomic coordinate data resulting 
# from the CCDC's data processing and validation procedures.
#
#######################################################################

data_HARSIE
_chemical_formula_moiety         '(C26 H21 Er1 O9)n'
_symmetry_cell_setting           orthorhombic
_symmetry_space_group_name_H-M   'C m c 21'
_symmetry_Int_Tables_number      36
_space_group_name_Hall           'C 2c -2'
loop_
_symmetry_equiv_pos_site_id
_symmetry_equiv_pos_as_xyz
1 x,y,z
2 -x,-y,1/2+z
3 x,-y,1/2+z
4 -x,y,z
5 1/2+x,1/2+y,z
6 1/2-x,1/2-y,1/2+z
7 1/2+x,1/2-y,1/2+z
8 1/2-x,1/2+y,z
_cell_length_a                   18.037(2)
_cell_length_b                   24.308(3)
_cell_length_c                   6.9817(9)
_cell_angle_alpha                90
_cell_angle_beta                 90
_cell_angle_gamma                90
_cell_volume                     3061.08
loop_
_atom_site_label
_atom_site_type_symbol
_atom_site_fract_x
_atom_site_fract_y
_atom_site_fract_z
Er1 Er 1.5000 0.516345(8) 0.47042(8)
O1 O 1.5000 0.56107(17) 0.7786(7)
O2 O 1.92917(18) 0.96211(14) 1.6793(5)
O3 O 1.87152(18) 0.95409(16) 1.9471(12)
O4 O 1.5905(4) 0.9250(3) 1.4415(19)
O6 O 1.5000 0.8006(2) 1.1439(9)
O7 O 1.5000 0.6124(2) 0.5161(6)
C1 C 1.5000 0.8973(3) 1.2075(10)
C2 C 1.5522(7) 0.8923(5) 1.3790(19)
C4 C 1.5000 0.8543(3) 1.0555(12)
H1 H 1.4569 0.8586 0.9764
C5 C 1.5000 0.9535(3) 1.1096(17)
H2 H 1.5000 0.9819 1.2055
H3 H 1.5435 0.9571 1.0312
C6 C 1.5000 0.7558(5) 1.0263(14)
C7 C 1.5000 0.7063(4) 1.1121(15)
H4 H 1.5000 0.7049 1.2452
C8 C 1.5000 0.6582(3) 1.0123(12)
H5 H 1.5000 0.6245 1.0759
C9 C 1.5000 0.6603(3) 0.8143(13)
C10 C 1.5000 0.7081(4) 0.7313(15)
H6 H 1.5000 0.7094 0.5982
C11 C 1.5000 0.7596(5) 0.8372(17)
H7 H 1.5000 0.7934 0.7752
C12 C 1.5000 0.6094(3) 0.6988(10)
C13 C 1.8701(3) 0.95217(19) 1.7710(8)
C14 C 1.8019(3) 0.9383(2) 1.6650(10)
C15 C 1.8028(3) 0.9243(2) 1.477(2)
H8 H 1.8479 0.9223 1.4123
C16 C 1.7389(5) 0.9133(4) 1.3802(13)
H9 H 1.7409 0.9034 1.2516
C17 C 1.6725(4) 0.9165(3) 1.470(2)
C18 C 1.6690(4) 0.9324(5) 1.6600(16)
H10 H 1.6235 0.9368 1.7205
C19 C 1.7340(4) 0.9415(4) 1.7580(13)
H11 H 1.7325 0.9499 1.8879
Er1A Er 1.5000 0.483655(8) 0.97042(8)
Er1D Er 2.0000 1.016345(8) 1.47042(8)
Er1E Er 2.0000 0.983655(8) 1.97042(8)
Er1D_2 Er 1.0000 1.016345(8) 1.47042(8)
Er1E_2 Er 1.0000 0.983655(8) 1.97042(8)
O1A O 1.5000 0.43893(17) 0.2786(7)
O2C O 1.07083(18) 0.96211(14) 1.6793(5)
O2G O 1.57083(18) 0.46211(14) 0.6793(5)
O2F O 1.42917(18) 0.53789(14) 0.1793(5)
O2E O 1.57083(18) 0.53789(14) 0.1793(5)
O2D O 1.42917(18) 0.46211(14) 0.6793(5)
O3C O 1.12848(18) 0.95409(16) 1.9471(12)
O3F O 1.37152(18) 0.54591(16) 0.4471(12)
O3E O 1.62848(18) 0.54591(16) 0.4471(12)
O4C O 1.4095(4) 0.9250(3) 1.4415(19)
C2C C 1.4478(7) 0.8923(5) 1.3790(19)
H1C H 1.5431 0.8586 0.9764
H3C H 1.4565 0.9571 1.0312
C13C C 1.1299(3) 0.95217(19) 1.7710(8)
C14C C 1.1981(3) 0.9383(2) 1.6650(10)
C15C C 1.1972(3) 0.9243(2) 1.477(2)
H8C H 1.1521 0.9223 1.4123
C16C C 1.2611(5) 0.9133(4) 1.3802(13)
H9C H 1.2591 0.9034 1.2516
C17C C 1.3275(4) 0.9165(3) 1.470(2)
C18C C 1.3310(4) 0.9324(5) 1.6600(16)
H10C H 1.3765 0.9368 1.7205
C19C C 1.2660(4) 0.9415(4) 1.7580(13)
H11C H 1.2675 0.9499 1.8879
loop_
_geom_bond_atom_site_label_1
_geom_bond_atom_site_label_2
_geom_bond_site_symmetry_1
_geom_bond_site_symmetry_2
Er1 O1 1_555 1_555
O1 C12 1_555 1_555
O2 C13 1_555 1_555
O3 C13 1_555 1_555
O4 C2 1_555 1_555
O6 C4 1_555 1_555
O7 Er1 1_555 1_555
C1 C2 1_555 1_555
C4 C1 1_555 1_555
H1 C4 1_555 1_555
C5 C1 1_555 1_555
H2 C5 1_555 1_555
H3 C5 1_555 1_555
C6 O6 1_555 1_555
C7 C6 1_555 1_555
H4 C7 1_555 1_555
C8 C7 1_555 1_555
H5 C8 1_555 1_555
C9 C8 1_555 1_555
C10 C9 1_555 1_555
H6 C10 1_555 1_555
C11 C6 1_555 1_555
H7 C11 1_555 1_555
C12 O7 1_555 1_555
C13 C14 1_555 1_555
C14 C15 1_555 1_555
C15 H8 1_555 1_555
C16 C15 1_555 1_555
H9 C16 1_555 1_555
C17 O4 1_555 1_555
C18 C17 1_555 1_555
H10 C18 1_555 1_555
C19 C14 1_555 1_555
H11 C19 1_555 1_555
Er1A O1 1_555 1_555
Er1D O2 1_555 1_555
Er1E O2 1_555 1_555
Er1D_2 O2C 1_555 1_555
Er1E_2 O2C 1_555 1_555
O1A Er1 1_555 1_555
O2C C13C 1_555 1_555
O2G Er1 1_555 1_555
O2F Er1 1_555 1_555
O2E Er1 1_555 1_555
O2D Er1 1_555 1_555
O3C Er1E_2 1_555 1_555
O3F Er1 1_555 1_555
O3E Er1 1_555 1_555
O4C C2C 1_555 1_555
C2C C1 1_555 1_555
H1C C4 1_555 1_555
H3C C5 1_555 1_555
C13C O3C 1_555 1_555
C14C C13C 1_555 1_555
C15C C14C 1_555 1_555
H8C C15C 1_555 1_555
C16C C15C 1_555 1_555
H9C C16C 1_555 1_555
C17C O4C 1_555 1_555
C18C C17C 1_555 1_555
H10C C18C 1_555 1_555
C19C C14C 1_555 1_555
H11C C19C 1_555 1_555
O3 Er1E 1_555 1_555
C9 C12 1_555 1_555
C10 C11 1_555 1_555
C16 C17 1_555 1_555
C18 C19 1_555 1_555
Er1A O2G 1_555 1_555
Er1A O2D 1_555 1_555
C16C C17C 1_555 1_555
C18C C19C 1_555 1_555

#END
