
#######################################################################
#
#                 Cambridge Crystallographic Data Centre
#                                CCDC 
#
#######################################################################
#
# If this CIF has been generated from an entry in the Cambridge 
# Structural Database, then it will include bibliographic, chemical, 
# crystal, experimental, refinement or atomic coordinate data resulting 
# from the CCDC's data processing and validation procedures.
#
#######################################################################

data_HARSOK
_chemical_formula_moiety         '(C26 H21 O9 Y1)n'
_symmetry_cell_setting           orthorhombic
_symmetry_space_group_name_H-M   'C m c 21'
_symmetry_Int_Tables_number      36
_space_group_name_Hall           'C 2c -2'
loop_
_symmetry_equiv_pos_site_id
_symmetry_equiv_pos_as_xyz
1 x,y,z
2 -x,-y,1/2+z
3 x,-y,1/2+z
4 -x,y,z
5 1/2+x,1/2+y,z
6 1/2-x,1/2-y,1/2+z
7 1/2+x,1/2-y,1/2+z
8 1/2-x,1/2+y,z
_cell_length_a                   18.0366(10)
_cell_length_b                   24.1755(13)
_cell_length_c                   6.9866(4)
_cell_angle_alpha                90
_cell_angle_beta                 90
_cell_angle_gamma                90
_cell_volume                     3046.46
loop_
_atom_site_label
_atom_site_type_symbol
_atom_site_fract_x
_atom_site_fract_y
_atom_site_fract_z
Y1 Y 1.0000 0.98383(2) 0.01261(13)
O1 O 1.0000 0.6980(2) -0.6628(9)
O2 O 0.9106(5) 0.5743(4) -0.9563(15)
O4 O 1.0000 0.8866(2) -0.0334(6)
O5 O 1.0000 0.93830(18) -0.2949(7)
O6 O 0.57042(17) 0.53792(15) -1.1974(5)
O7 O 0.62888(17) 0.54576(16) -1.4668(8)
C1 C 1.0000 0.6018(3) -0.7240(11)
C2 C 1.0000 0.6443(4) -0.5702(14)
H1 H 0.9565 0.6403 -0.4924
C3 C 1.0000 0.5438(4) -0.6273(17)
H2 H 1.0000 0.5151 -0.7224
H3 H 0.9565 0.5404 -0.5488
C5 C 0.9194(9) 0.6056(5) -0.789(2)
C6 C 1.0000 0.7425(3) -0.5447(10)
C7 C 1.0000 0.7932(3) -0.6353(13)
H4 H 1.0000 0.7952 -0.7682
C8 C 1.0000 0.8406(3) -0.5280(9)
H5 H 1.0000 0.8746 -0.5901
C9 C 1.0000 0.8394(3) -0.3317(10)
C10 C 1.0000 0.7886(3) -0.2433(14)
H6 H 1.0000 0.7867 -0.1104
C11 C 1.0000 0.7401(4) -0.3492(13)
H7 H 1.0000 0.7061 -0.2874
C12 C 1.0000 0.8901(3) -0.2143(10)
C13 C 0.8265(4) 0.5857(4) -0.9883(18)
C14 C 0.7600(4) 0.5888(4) -0.8945(13)
H8 H 0.7579 0.5990 -0.7663
C15 C 0.6971(4) 0.5765(3) -0.9933(12)
H9 H 0.6518 0.5777 -0.9299
C16 C 0.6985(3) 0.5626(3) -1.1832(9)
C17 C 0.7662(3) 0.5592(4) -1.2750(13)
H10 H 0.7683 0.5504 -1.4044
C18 C 0.8308(5) 0.5691(4) -1.1746(16)
H11 H 0.8766 0.5644 -1.2333
C19 C 0.6300(3) 0.5479(2) -1.2901(8)
Y1A Y 1.0000 1.01617(2) -0.48739(13)
Y1E Y 0.5000 0.51617(2) -1.48739(13)
Y1D Y 0.5000 0.48383(2) -0.98739(13)
Y1E_2 Y 1.5000 0.51617(2) -1.48739(13)
Y1D_2 Y 1.5000 0.48383(2) -0.98739(13)
O2C O 1.0894(5) 0.5743(4) -0.9563(15)
O5A O 1.0000 1.06170(18) 0.2051(7)
O6C O 1.42958(17) 0.53792(15) -1.1974(5)
O6F O 1.07042(17) 0.96208(15) 0.3026(5)
O6G O 0.92958(17) 1.03792(15) -0.1974(5)
O6D O 1.07042(17) 1.03792(15) -0.1974(5)
O6E O 0.92958(17) 0.96208(15) 0.3026(5)
O7C O 1.37112(17) 0.54576(16) -1.4668(8)
O7F O 1.12888(17) 0.95424(16) 0.0332(8)
O7E O 0.87112(17) 0.95424(16) 0.0332(8)
H1C H 1.0435 0.6403 -0.4924
H3C H 1.0435 0.5404 -0.5488
C5C C 1.0806(9) 0.6056(5) -0.789(2)
C13C C 1.1735(4) 0.5857(4) -0.9883(18)
C14C C 1.2400(4) 0.5888(4) -0.8945(13)
H8C H 1.2421 0.5990 -0.7663
C15C C 1.3029(4) 0.5765(3) -0.9933(12)
H9C H 1.3482 0.5777 -0.9299
C16C C 1.3015(3) 0.5626(3) -1.1832(9)
C17C C 1.2338(3) 0.5592(4) -1.2750(13)
H10C H 1.2317 0.5504 -1.4044
C18C C 1.1692(5) 0.5691(4) -1.1746(16)
H11C H 1.1234 0.5644 -1.2333
C19C C 1.3700(3) 0.5479(2) -1.2901(8)
loop_
_geom_bond_atom_site_label_1
_geom_bond_atom_site_label_2
_geom_bond_site_symmetry_1
_geom_bond_site_symmetry_2
Y1 O4 1_555 1_555
O1 C2 1_555 1_555
O2 C5 1_555 1_555
O4 C12 1_555 1_555
O5 Y1 1_555 1_555
O6 C19 1_555 1_555
O7 C19 1_555 1_555
C1 C2 1_555 1_555
C2 H1 1_555 1_555
C3 C1 1_555 1_555
H2 C3 1_555 1_555
H3 C3 1_555 1_555
C5 C1 1_555 1_555
C6 O1 1_555 1_555
C7 C6 1_555 1_555
H4 C7 1_555 1_555
C8 C7 1_555 1_555
H5 C8 1_555 1_555
C9 C8 1_555 1_555
C10 C9 1_555 1_555
H6 C10 1_555 1_555
C11 C6 1_555 1_555
H7 C11 1_555 1_555
C12 O5 1_555 1_555
C13 O2 1_555 1_555
C14 C13 1_555 1_555
H8 C14 1_555 1_555
C15 C14 1_555 1_555
H9 C15 1_555 1_555
C16 C15 1_555 1_555
C17 C16 1_555 1_555
H10 C17 1_555 1_555
C18 C13 1_555 1_555
H11 C18 1_555 1_555
C19 C16 1_555 1_555
Y1A O5 1_555 1_555
Y1E O6 1_555 1_555
Y1D O6 1_555 1_555
Y1E_2 O6C 1_555 1_555
Y1D_2 O6C 1_555 1_555
O2C C5C 1_555 1_555
O5A Y1 1_555 1_555
O6C C19C 1_555 1_555
O6F Y1 1_555 1_555
O6G Y1 1_555 1_555
O6D Y1 1_555 1_555
O6E Y1 1_555 1_555
O7C Y1E_2 1_555 1_555
O7F Y1 1_555 1_555
O7E Y1 1_555 1_555
H1C C2 1_555 1_555
H3C C3 1_555 1_555
C5C C1 1_555 1_555
C13C O2C 1_555 1_555
C14C C13C 1_555 1_555
H8C C14C 1_555 1_555
C15C C14C 1_555 1_555
H9C C15C 1_555 1_555
C16C C15C 1_555 1_555
C17C C16C 1_555 1_555
H10C C17C 1_555 1_555
C18C C13C 1_555 1_555
H11C C18C 1_555 1_555
C19C O7C 1_555 1_555
O7 Y1E 1_555 1_555
C9 C12 1_555 1_555
C10 C11 1_555 1_555
C17 C18 1_555 1_555
Y1A O6G 1_555 1_555
Y1A O6D 1_555 1_555
C16C C19C 1_555 1_555
C17C C18C 1_555 1_555

#END
