
#######################################################################
#
#                 Cambridge Crystallographic Data Centre
#                                CCDC 
#
#######################################################################
#
# If this CIF has been generated from an entry in the Cambridge 
# Structural Database, then it will include bibliographic, chemical, 
# crystal, experimental, refinement or atomic coordinate data resulting 
# from the CCDC's data processing and validation procedures.
#
#######################################################################

data_AJIHAE
_chemical_formula_moiety         '(C26 H28 Co4 N20 O8)n'
_symmetry_cell_setting           monoclinic
_symmetry_space_group_name_H-M   'C 2/m'
_symmetry_Int_Tables_number      12
_space_group_name_Hall           '-C 2y'
loop_
_symmetry_equiv_pos_site_id
_symmetry_equiv_pos_as_xyz
1 x,y,z
2 -x,y,-z
3 1/2+x,1/2+y,z
4 1/2-x,1/2+y,-z
5 -x,-y,-z
6 x,-y,z
7 1/2-x,1/2-y,-z
8 1/2+x,1/2-y,z
_cell_length_a                   18.289(4)
_cell_length_b                   26.405(6)
_cell_length_c                   13.244(3)
_cell_angle_alpha                90
_cell_angle_beta                 133.219(2)
_cell_angle_gamma                90
_cell_volume                     4660.89
loop_
_atom_site_label
_atom_site_type_symbol
_atom_site_fract_x
_atom_site_fract_y
_atom_site_fract_z
Co1 Co 0.83532(5) 0.80573(2) 0.55712(7)
Co2 Co 1.22385(5) 0.69421(2) 0.89379(7)
O1 O 0.8301(3) 0.86463(13) 0.4608(4)
O2 O 0.8524(3) 0.90752(14) 0.6210(5)
O3 O 1.1425(3) 0.63498(13) 0.8562(4)
O4 O 1.2705(3) 0.59267(14) 0.9159(4)
N1 N 0.9808(3) 0.78894(15) 0.7224(4)
N2 N 1.1242(3) 0.74393(14) 0.8589(4)
N3 N 1.1457(3) 0.79378(14) 0.9130(4)
N4 N 1.0465(4) 0.86721(18) 0.8448(5)
H1 H 1.1037 0.8835 0.8866
H2 H 0.9975 0.8809 0.7620
N5 N 0.9759(4) 0.70222(17) 0.6653(5)
H3 H 1.0190 0.6766 0.7012
H4 H 0.9270 0.6940 0.6618
N6 N 0.7809(3) 0.75516(14) 0.4048(4)
N7 N 0.7429(3) 0.70621(14) 0.3901(4)
N8 N 0.7692(3) 0.71133(16) 0.2480(4)
N9 N 0.8291(5) 0.7963(2) 0.2997(6)
H5 H 0.8373 0.8244 0.3436
H6 H 0.7868 0.8023 0.2092
C1 C 1.0262(4) 0.74363(18) 0.7481(6)
N10 N 0.7273(9) 0.63086(17) 0.2818(12)
H7 H 0.6963 0.6241 0.1946
H8 H 0.6899 0.6201 0.2977
C2 C 1.0582(4) 0.81777(18) 0.8274(6)
C3 C 0.7941(5) 0.75539(19) 0.3200(6)
C4 C 0.7370(5) 0.68286(16) 0.2970(6)
C5 C 0.8431(4) 0.90597(19) 0.5203(7)
C6 C 0.8492(4) 0.95445(18) 0.4654(6)
C7 C 0.8595(4) 0.95523(19) 0.3705(6)
H9 H 0.8617 0.9247 0.3376
C8 C 0.8433(6) 1.0000 0.5135(8)
H10 H 0.8357 1.0000 0.5761
C9 C 0.8665(7) 1.0000 0.3241(8)
C10 C 0.8817(8) 1.0000 0.2265(9)
C11 C 1.1881(5) 0.5936(2) 0.8792(6)
C12 C 1.1382(4) 0.54540(19) 0.8638(6)
C13 C 1.0546(5) 0.5455(2) 0.8451(7)
H11 H 1.0265 0.5762 0.8382
C14 C 1.1795(6) 0.5000 0.8723(8)
H12 H 1.2358 0.5000 0.8839
C15 C 1.0108(7) 0.5000 0.8363(11)
C16 C 0.9169(10) 0.5000 0.8173(13)
H13 H 0.8586 0.5000 0.7196
H14 H 0.9195 0.5314 0.8562
O1E O 0.8301(3) 1.13537(13) 0.4608(4)
O2E O 0.8524(3) 1.09248(14) 0.6210(5)
C5E C 0.8431(4) 1.09403(19) 0.5203(7)
C6E C 0.8492(4) 1.04555(18) 0.4654(6)
C7E C 0.8595(4) 1.04477(19) 0.3705(6)
H9E H 0.8617 1.0753 0.3376
O3E O 1.1425(3) 0.36502(13) 0.8562(4)
O4E O 1.2705(3) 0.40733(14) 0.9159(4)
C11E C 1.1881(5) 0.4064(2) 0.8792(6)
C12E C 1.1382(4) 0.45460(19) 0.8638(6)
C13E C 1.0546(5) 0.4545(2) 0.8451(7)
H11E H 1.0265 0.4238 0.8382
H14E H 0.9195 0.4686 0.8562
Co1A Co 1.16468(5) 0.80573(2) 0.44288(7)
Co2A Co 0.77615(5) 0.69421(2) 0.10621(7)
N1A N 1.0192(3) 0.78894(15) 0.2776(4)
N2A N 0.8758(3) 0.74393(14) 0.1411(4)
N3A N 0.8543(3) 0.79378(14) 0.0870(4)
N4A N 0.9535(4) 0.86721(18) 0.1552(5)
H1A H 0.8963 0.8835 0.1134
H2A H 1.0025 0.8809 0.2380
N5A N 1.0241(4) 0.70222(17) 0.3347(5)
H3A H 0.9810 0.6766 0.2988
H4A H 1.0730 0.6940 0.3382
N6A N 1.2191(3) 0.75516(14) 0.5952(4)
N7A N 1.2571(3) 0.70621(14) 0.6099(4)
N8A N 1.2308(3) 0.71133(16) 0.7520(4)
N9A N 1.1709(5) 0.7963(2) 0.7003(6)
H5A H 1.1627 0.8244 0.6564
H6A H 1.2132 0.8023 0.7908
C1A C 0.9738(4) 0.74363(18) 0.2519(6)
N10A N 1.2727(9) 0.63086(17) 0.7182(12)
H7A H 1.3037 0.6241 0.8054
H8A H 1.3101 0.6201 0.7023
C2A C 0.9418(4) 0.81777(18) 0.1726(6)
C3A C 1.2059(5) 0.75539(19) 0.6800(6)
C4A C 1.2630(5) 0.68286(16) 0.7030(6)
Co1E Co 0.83532(5) 1.19427(2) 0.55712(7)
Co1F Co 0.66468(5) 0.69427(2) 0.44288(7)
Co1G Co 1.33532(5) 0.69427(2) 0.55712(7)
Co2E Co 1.22385(5) 0.30579(2) 0.89379(7)
Co2F Co 1.27615(5) 0.80579(2) 1.10621(7)
Co2G Co 0.72385(5) 0.80579(2) -0.10621(7)
O1A O 1.1699(3) 0.86463(13) 0.5392(4)
O3A O 0.8575(3) 0.63498(13) 0.1438(4)
N3F N 1.3543(3) 0.70622(14) 1.0870(4)
N3G N 0.6457(3) 0.70622(14) -0.0870(4)
N7F N 0.7571(3) 0.79379(14) 0.6099(4)
N7G N 1.2429(3) 0.79379(14) 0.3901(4)
loop_
_geom_bond_atom_site_label_1
_geom_bond_atom_site_label_2
_geom_bond_site_symmetry_1
_geom_bond_site_symmetry_2
Co1 O1 1_555 1_555
Co2 O3 1_555 1_555
O1 C5 1_555 1_555
O2 C5 1_555 1_555
O3 C11 1_555 1_555
O4 C11 1_555 1_555
N1 Co1 1_555 1_555
N2 Co2 1_555 1_555
N3 N2 1_555 1_555
N4 H1 1_555 1_555
H2 N4 1_555 1_555
N5 H3 1_555 1_555
H4 N5 1_555 1_555
N6 Co1 1_555 1_555
N7 N6 1_555 1_555
N8 C3 1_555 1_555
N9 H5 1_555 1_555
H6 N9 1_555 1_555
C1 N1 1_555 1_555
N10 H7 1_555 1_555
H8 N10 1_555 1_555
C2 N1 1_555 1_555
C3 N6 1_555 1_555
C4 N7 1_555 1_555
C5 C6 1_555 1_555
C6 C7 1_555 1_555
C7 H9 1_555 1_555
C8 C6 1_555 1_555
H10 C8 1_555 1_555
C9 C7 1_555 1_555
C10 C9 1_555 1_555
C11 C12 1_555 1_555
C12 C13 1_555 1_555
C13 H11 1_555 1_555
C14 C12 1_555 1_555
H12 C14 1_555 1_555
C15 C13 1_555 1_555
C16 C15 1_555 1_555
H13 C16 1_555 1_555
H14 C16 1_555 1_555
O1E C5E 1_555 1_555
O2E C5E 1_555 1_555
C5E C6E 1_555 1_555
C6E C8 1_555 1_555
C7E C9 1_555 1_555
H9E C7E 1_555 1_555
O3E C11E 1_555 1_555
O4E C11E 1_555 1_555
C11E C12E 1_555 1_555
C12E C14 1_555 1_555
C13E C15 1_555 1_555
H11E C13E 1_555 1_555
H14E C16 1_555 1_555
Co1A N1A 1_555 1_555
Co2A N8 1_555 1_555
N1A C1A 1_555 1_555
N2A Co2A 1_555 1_555
N3A N2A 1_555 1_555
N4A H1A 1_555 1_555
H2A N4A 1_555 1_555
N5A H3A 1_555 1_555
H4A N5A 1_555 1_555
N6A Co1A 1_555 1_555
N7A N6A 1_555 1_555
N8A Co2 1_555 1_555
N9A H5A 1_555 1_555
H6A N9A 1_555 1_555
C1A N2A 1_555 1_555
N10A H7A 1_555 1_555
H8A N10A 1_555 1_555
C2A N1A 1_555 1_555
C3A N6A 1_555 1_555
C4A N7A 1_555 1_555
Co1E O1E 1_555 1_555
Co1F N7 1_555 1_555
Co1G N7A 1_555 1_555
Co2E O3E 1_555 1_555
Co2F N3 1_555 1_555
Co2G N3A 1_555 1_555
O1A Co1A 1_555 1_555
O3A Co2A 1_555 1_555
N3F Co2 1_555 1_555
N3G Co2A 1_555 1_555
N7F Co1 1_555 1_555
N7G Co1A 1_555 1_555
N2 C1 1_555 1_555
N3 C2 1_555 1_555
N4 C2 1_555 1_555
N5 C1 1_555 1_555
N8 C4 1_555 1_555
N9 C3 1_555 1_555
N10 C4 1_555 1_555
C6E C7E 1_555 1_555
C12E C13E 1_555 1_555
N3A C2A 1_555 1_555
N4A C2A 1_555 1_555
N5A C1A 1_555 1_555
N8A C3A 1_555 1_555
N8A C4A 1_555 1_555
N9A C3A 1_555 1_555
N10A C4A 1_555 1_555

#END
