
#######################################################################
#
#                 Cambridge Crystallographic Data Centre
#                                CCDC 
#
#######################################################################
#
# If this CIF has been generated from an entry in the Cambridge 
# Structural Database, then it will include bibliographic, chemical, 
# crystal, experimental, refinement or atomic coordinate data resulting 
# from the CCDC's data processing and validation procedures.
#
#######################################################################

data_MIMSIM
_chemical_formula_moiety         '(C96 H86 N8 O17 Zn4)n'
_symmetry_cell_setting           monoclinic
_symmetry_space_group_name_H-M   'P 21/n'
_symmetry_Int_Tables_number      14
_space_group_name_Hall           '-P 2yn'
loop_
_symmetry_equiv_pos_site_id
_symmetry_equiv_pos_as_xyz
1 x,y,z
2 1/2-x,1/2+y,1/2-z
3 -x,-y,-z
4 1/2+x,1/2-y,1/2+z
_cell_length_a                   12.0746(3)
_cell_length_b                   31.4093(9)
_cell_length_c                   24.4887(7)
_cell_angle_alpha                90
_cell_angle_beta                 96.330(2)
_cell_angle_gamma                90
_cell_volume                     9230.83
loop_
_atom_site_label
_atom_site_type_symbol
_atom_site_fract_x
_atom_site_fract_y
_atom_site_fract_z
Zn1 Zn 0.59078(4) 0.263914(17) 0.21057(2)
Zn2 Zn 0.38733(4) 0.275541(17) 0.25825(2)
Zn3 Zn 0.30342(4) 0.356403(18) 0.57208(2)
Zn4 Zn 0.20144(4) 0.385368(19) 0.41712(2)
N1 N 0.7343(3) 0.25105(11) 0.17423(13)
N2 N 0.8224(3) 0.20165(11) 0.11482(13)
N3 N 0.8586(3) 0.27793(11) 0.10985(15)
N4 N 0.9342(3) 0.23738(11) 0.19044(14)
C1 C 0.7213(3) 0.21080(13) 0.14205(16)
H1 H 0.7074 0.1870 0.1669
H2 H 0.6561 0.2132 0.1139
C2 C 0.8335(3) 0.24635(14) 0.21631(16)
H3 H 0.8441 0.2729 0.2380
H4 H 0.8201 0.2229 0.2418
C3 C 0.7581(4) 0.28621(13) 0.13597(17)
H5 H 0.6941 0.2894 0.1073
H6 H 0.7670 0.3133 0.1567
C4 C 0.9192(3) 0.19819(13) 0.15895(17)
H7 H 0.9060 0.1744 0.1839
H8 H 0.9880 0.1919 0.1419
C5 C 0.8435(4) 0.23823(14) 0.07870(18)
H9 H 0.9111 0.2324 0.0604
H10 H 0.7799 0.2414 0.0498
C6 C 0.9529(4) 0.27271(15) 0.15309(19)
H11 H 1.0218 0.2673 0.1358
H12 H 0.9634 0.2994 0.1745
N5 N 0.2496(3) 0.28520(11) 0.29979(13)
N6 N 0.1719(3) 0.32968(11) 0.36779(13)
N7 N 0.1459(3) 0.25248(12) 0.36872(16)
N8 N 0.0485(3) 0.29519(12) 0.29499(15)
C7 C 0.2652(3) 0.32388(13) 0.33431(16)
H13 H 0.3358 0.3215 0.3588
H14 H 0.2705 0.3491 0.3105
C8 C 0.2381(3) 0.24750(14) 0.33630(18)
H15 H 0.2265 0.2215 0.3135
H16 H 0.3079 0.2438 0.3611
C9 C 0.1422(3) 0.28986(14) 0.26284(17)
H17 H 0.1471 0.3149 0.2386
H18 H 0.1301 0.2643 0.2393
C10 C 0.1632(3) 0.29070(14) 0.40205(18)
H19 H 0.2325 0.2875 0.4274
H20 H 0.1005 0.2941 0.4245
C11 C 0.0667(3) 0.33290(14) 0.32936(17)
H21 H 0.0027 0.3367 0.3510
H22 H 0.0707 0.3583 0.3057
C12 C 0.0429(4) 0.25777(15) 0.3306(2)
H23 H 0.0309 0.2320 0.3074
H24 H -0.0215 0.2608 0.3520
O1 O 0.4906(2) 0.26045(10) 0.32896(11)
O2 O 0.6503(2) 0.26837(10) 0.29110(11)
C13 C 0.5951(3) 0.26251(14) 0.33129(16)
C14 C 0.6616(3) 0.25820(14) 0.38656(17)
C15 C 0.6169(3) 0.23979(14) 0.42941(17)
H25 H 0.5418 0.2303 0.4247
C16 C 0.6814(3) 0.23456(13) 0.48132(17)
C17 C 0.6383(3) 0.21520(14) 0.52670(17)
H26 H 0.5647 0.2041 0.5227
C18 C 0.7021(3) 0.21229(14) 0.57640(17)
H27 H 0.6717 0.1996 0.6067
C19 C 0.8126(3) 0.22786(13) 0.58327(16)
C20 C 0.8566(3) 0.24536(14) 0.53967(18)
H28 H 0.9318 0.2549 0.5441
C21 C 0.7929(3) 0.24968(15) 0.48788(17)
C22 C 0.8359(4) 0.26944(19) 0.44281(19)
H29 H 0.9101 0.2799 0.4469
C23 C 0.7723(4) 0.27367(18) 0.39341(19)
H30 H 0.8025 0.2870 0.3636
C24 C 0.8791(3) 0.22627(13) 0.63860(17)
O3 O 0.9797(2) 0.23728(10) 0.64199(11)
O4 O 0.8276(2) 0.21436(10) 0.67817(11)
O5 O 0.3710(2) 0.21264(9) 0.24284(13)
O6 O 0.5467(2) 0.20184(10) 0.22423(12)
C25 C 0.4496(4) 0.18880(14) 0.23046(17)
C26 C 0.4232(4) 0.14280(14) 0.22091(17)
C27 C 0.3156(4) 0.12756(15) 0.2267(2)
H31 H 0.2617 0.1462 0.2391
C28 C 0.2876(4) 0.08629(16) 0.2145(2)
H32 H 0.2144 0.0765 0.2183
C29 C 0.3669(4) 0.05785(15) 0.1962(2)
C30 C 0.3403(4) 0.01531(15) 0.1806(2)
H33 H 0.2678 0.0047 0.1842
C31 C 0.4172(4) -0.01080(15) 0.1604(2)
C32 C 0.5252(4) 0.00446(16) 0.1560(2)
H34 H 0.5788 -0.0138 0.1426
C33 C 0.5542(4) 0.04511(16) 0.1705(2)
H35 H 0.6276 0.0549 0.1672
C34 C 0.4758(4) 0.07291(15) 0.19067(19)
C35 C 0.5016(4) 0.11576(14) 0.20379(18)
H36 H 0.5746 0.1261 0.2007
C36 C 0.3822(5) -0.05395(16) 0.1377(2)
O7 O 0.4486(4) -0.07579(13) 0.1148(2)
O8 O 0.2844(3) -0.06571(13) 0.13948(17)
O9 O 0.4542(2) 0.33416(9) 0.26226(12)
O10 O 0.5925(2) 0.32933(9) 0.20858(12)
C37 C 0.5335(3) 0.34947(13) 0.23921(16)
C38 C 0.5603(3) 0.39572(13) 0.25023(17)
C39 C 0.4993(3) 0.41826(14) 0.28449(17)
H37 H 0.4376 0.4051 0.2986
C40 C 0.5272(3) 0.46080(13) 0.29917(18)
C41 C 0.4684(4) 0.48409(15) 0.33629(19)
H38 H 0.4050 0.4718 0.3499
C42 C 0.5019(4) 0.52397(15) 0.3526(2)
H39 H 0.4629 0.5389 0.3783
C43 C 0.5942(4) 0.54327(14) 0.33166(19)
C44 C 0.6491(4) 0.52254(14) 0.29369(19)
H40 H 0.7079 0.5365 0.2781
C45 C 0.6194(4) 0.48019(14) 0.27705(18)
C46 C 0.6790(4) 0.45659(15) 0.2410(2)
H41 H 0.7394 0.4694 0.2254
C47 C 0.6506(4) 0.41539(15) 0.22826(19)
H42 H 0.6922 0.3998 0.2043
C48 C 0.6386(4) 0.58537(14) 0.3543(2)
O11 O 0.7110(3) 0.60510(10) 0.33258(15)
O12 O 0.5983(3) 0.59859(11) 0.39755(14)
O13 O 0.3642(2) 0.37704(12) 0.43176(13)
O14 O 0.3809(2) 0.33915(10) 0.50918(12)
C49 C 0.4209(4) 0.35972(15) 0.47153(18)
C50 C 0.5447(4) 0.36357(19) 0.4730(2)
C51 C 0.6122(4) 0.35409(17) 0.51925(19)
H43 H 0.5802 0.3445 0.5508
C52 C 0.7303(4) 0.35822(18) 0.52158(19)
C53 C 0.8016(4) 0.34886(17) 0.56930(19)
H44 H 0.7710 0.3407 0.6019
C54 C 0.9141(4) 0.35137(16) 0.56924(19)
H45 H 0.9618 0.3450 0.6017
C55 C 0.9601(4) 0.36350(17) 0.5208(2)
C56 C 0.8925(4) 0.3736(2) 0.4744(2)
H46 H 0.9243 0.3822 0.4424
C57 C 0.7750(4) 0.3714(2) 0.4734(2)
C58 C 0.7033(5) 0.3822(3) 0.4258(2)
H47 H 0.7335 0.3927 0.3942
C59 C 0.5911(4) 0.3776(3) 0.4251(2)
H48 H 0.5435 0.3837 0.3926
C60 C 1.0828(4) 0.36332(17) 0.52001(19)
O15 O 1.1418(2) 0.36070(11) 0.56480(13)
O16 O 1.1163(4) 0.3556(3) 0.47510(19)
O17 O 0.2359(7) 0.4323(3) 0.4894(3)
Zn1C Zn 1.09078(4) 0.236086(17) 0.71057(2)
Zn2C Zn 0.88733(4) 0.224459(17) 0.75825(2)
Zn3_2 Zn 1.30342(4) 0.356403(18) 0.57208(2)
Zn3B Zn 0.69658(4) 0.643597(18) 0.42792(2)
Zn3C Zn 0.80342(4) 0.143597(18) 0.07208(2)
Zn4_2 Zn 1.20144(4) 0.385368(19) 0.41712(2)
Zn4A Zn 0.29856(4) -0.114632(19) 0.08288(2)
N2C N 0.3224(3) 0.29835(11) 0.61482(13)
O3C O 0.4797(2) 0.26272(10) 0.14199(11)
O4C O 0.3276(2) 0.28564(10) 0.17817(11)
O7A O 0.0514(4) 0.42421(13) 0.3852(2)
O8A O 0.2156(3) 0.43429(13) 0.36052(17)
O12B O 0.4017(3) 0.40141(11) 0.60245(14)
O15_2 O 0.1418(2) 0.36070(11) 0.56480(13)
O16_2 O 0.1163(4) 0.3556(3) 0.47510(19)
C61 C 0.2701(5) 0.45805(18) 0.8601(2)
H49 H 0.3359 0.4420 0.8575
C62 C 0.1757(5) 0.45037(18) 0.8239(2)
H50 H 0.1767 0.4291 0.7964
C63 C 0.0798(5) 0.47379(18) 0.8281(2)
H51 H 0.0153 0.4687 0.8030
C64 C 0.0767(5) 0.50410(17) 0.8678(2)
H52 H 0.0103 0.5198 0.8706
C65 C 0.1717(5) 0.51179(18) 0.9040(3)
H53 H 0.1701 0.5328 0.9319
C66 C 0.2682(5) 0.48909(18) 0.8997(2)
H54 H 0.3333 0.4949 0.9240
C67 C 0.6109(5) 0.51802(19) 0.9032(2)
H55 H 0.5640 0.5358 0.9221
C68 C 0.5783(5) 0.50564(19) 0.8503(2)
H56 H 0.5087 0.5150 0.8325
C69 C 0.6447(6) 0.4801(2) 0.8232(3)
H57 H 0.6213 0.4720 0.7864
C70 C 0.7442(6) 0.4661(2) 0.8481(3)
H58 H 0.7897 0.4481 0.8288
C71 C 0.7790(6) 0.4780(2) 0.9012(3)
H59 H 0.8483 0.4681 0.9188
C72 C 0.7123(6) 0.5046(2) 0.9289(3)
H60 H 0.7363 0.5134 0.9654
C73 C 0.4925(5) 0.57947(19) 1.0190(2)
H61 H 0.4944 0.5616 1.0504
C74 C 0.5872(5) 0.60001(19) 1.0080(2)
H62 H 0.6542 0.5962 1.0318
C75 C 0.5867(6) 0.6260(2) 0.9634(3)
H63 H 0.6525 0.6405 0.9562
C76 C 0.4884(7) 0.6308(2) 0.9286(3)
H64 H 0.4872 0.6484 0.8969
C77 C 0.3936(6) 0.6103(2) 0.9398(3)
H65 H 0.3266 0.6140 0.9160
C78 C 0.3942(5) 0.5843(2) 0.9853(2)
H66 H 0.3284 0.5700 0.9931
C79 C 0.9664(6) 0.58549(18) 0.7789(2)
H67 H 1.0005 0.5768 0.7476
C80 C 1.0276(6) 0.60762(18) 0.8205(3)
H68 H 1.1033 0.6145 0.8176
C81 C 0.9790(6) 0.61980(19) 0.8664(3)
H69 H 1.0206 0.6356 0.8948
C82 C 0.8705(7) 0.6091(2) 0.8709(3)
H70 H 0.8374 0.6163 0.9031
C83 C 0.8095(6) 0.5878(2) 0.8287(3)
H71 H 0.7336 0.5811 0.8315
C84 C 0.8573(6) 0.5761(2) 0.7826(3)
H72 H 0.8146 0.5616 0.7534
C85 C 0.1438(7) 0.8595(2) 0.7093(3)
H73 H 0.1958 0.8643 0.7407
C86 C 0.0377(7) 0.8733(2) 0.7089(3)
H74 H 0.0154 0.8876 0.7400
C87 C -0.0381(8) 0.8666(2) 0.6633(4)
H75 H -0.1125 0.8766 0.6624
C88 C -0.0035(10) 0.8450(3) 0.6189(4)
H76 H -0.0557 0.8393 0.5878
C89 C 0.1018(10) 0.8319(3) 0.6190(3)
H77 H 0.1245 0.8180 0.5875
C90 C 0.1774(8) 0.8384(2) 0.6644(3)
H78 H 0.2519 0.8286 0.6649
C91 C -0.0970(6) 0.3471(2) 0.8822(3)
H79 H -0.1221 0.3324 0.8493
C92 C -0.1529(6) 0.3424(2) 0.9271(3)
H80 H -0.2163 0.3243 0.9256
C93 C -0.1172(6) 0.3639(2) 0.9749(3)
H81 H -0.1564 0.3611 1.0062
C94 C -0.0234(7) 0.3898(2) 0.9769(3)
H82 H 0.0021 0.4046 1.0096
C95 C 0.0324(6) 0.3937(2) 0.9311(3)
H83 H 0.0971 0.4110 0.9323
C96 C -0.0060(6) 0.3725(2) 0.8837(3)
H84 H 0.0314 0.3757 0.8518
loop_
_geom_bond_atom_site_label_1
_geom_bond_atom_site_label_2
_geom_bond_site_symmetry_1
_geom_bond_site_symmetry_2
Zn1 N1 1_555 1_555
Zn2 N5 1_555 1_555
Zn3 O14 1_555 1_555
Zn4 N6 1_555 1_555
N1 C1 1_555 1_555
N2 C1 1_555 1_555
N3 C3 1_555 1_555
N4 C2 1_555 1_555
C1 H1 1_555 1_555
H2 C1 1_555 1_555
C2 N1 1_555 1_555
H3 C2 1_555 1_555
H4 C2 1_555 1_555
C3 N1 1_555 1_555
H5 C3 1_555 1_555
H6 C3 1_555 1_555
C4 N2 1_555 1_555
H7 C4 1_555 1_555
H8 C4 1_555 1_555
C5 N2 1_555 1_555
H9 C5 1_555 1_555
H10 C5 1_555 1_555
C6 N3 1_555 1_555
H11 C6 1_555 1_555
H12 C6 1_555 1_555
N5 C7 1_555 1_555
N6 C7 1_555 1_555
N7 C8 1_555 1_555
N8 C9 1_555 1_555
C7 H13 1_555 1_555
H14 C7 1_555 1_555
C8 N5 1_555 1_555
H15 C8 1_555 1_555
H16 C8 1_555 1_555
C9 N5 1_555 1_555
H17 C9 1_555 1_555
H18 C9 1_555 1_555
C10 N6 1_555 1_555
H19 C10 1_555 1_555
H20 C10 1_555 1_555
C11 N6 1_555 1_555
H21 C11 1_555 1_555
H22 C11 1_555 1_555
C12 N7 1_555 1_555
H23 C12 1_555 1_555
H24 C12 1_555 1_555
O1 Zn2 1_555 1_555
O2 Zn1 1_555 1_555
C13 O1 1_555 1_555
C14 C13 1_555 1_555
C15 C14 1_555 1_555
H25 C15 1_555 1_555
C16 C15 1_555 1_555
C17 C16 1_555 1_555
H26 C17 1_555 1_555
C18 C17 1_555 1_555
H27 C18 1_555 1_555
C19 C18 1_555 1_555
C20 C19 1_555 1_555
H28 C20 1_555 1_555
C21 C16 1_555 1_555
C22 C21 1_555 1_555
H29 C22 1_555 1_555
C23 C14 1_555 1_555
H30 C23 1_555 1_555
C24 C19 1_555 1_555
O3 C24 1_555 1_555
O4 C24 1_555 1_555
O5 Zn2 1_555 1_555
O6 Zn1 1_555 1_555
C25 O5 1_555 1_555
C26 C25 1_555 1_555
C27 C26 1_555 1_555
H31 C27 1_555 1_555
C28 C27 1_555 1_555
H32 C28 1_555 1_555
C29 C28 1_555 1_555
C30 C29 1_555 1_555
H33 C30 1_555 1_555
C31 C30 1_555 1_555
C32 C31 1_555 1_555
H34 C32 1_555 1_555
C33 C32 1_555 1_555
H35 C33 1_555 1_555
C34 C29 1_555 1_555
C35 C26 1_555 1_555
H36 C35 1_555 1_555
C36 C31 1_555 1_555
O7 C36 1_555 1_555
O8 C36 1_555 1_555
O9 Zn2 1_555 1_555
O10 Zn1 1_555 1_555
C37 O9 1_555 1_555
C38 C37 1_555 1_555
C39 C38 1_555 1_555
H37 C39 1_555 1_555
C40 C39 1_555 1_555
C41 C40 1_555 1_555
H38 C41 1_555 1_555
C42 C41 1_555 1_555
H39 C42 1_555 1_555
C43 C42 1_555 1_555
C44 C43 1_555 1_555
H40 C44 1_555 1_555
C45 C40 1_555 1_555
C46 C45 1_555 1_555
H41 C46 1_555 1_555
C47 C38 1_555 1_555
H42 C47 1_555 1_555
C48 C43 1_555 1_555
O11 C48 1_555 1_555
O12 C48 1_555 1_555
O13 Zn4 1_555 1_555
O14 C49 1_555 1_555
C49 O13 1_555 1_555
C50 C49 1_555 1_555
C51 C50 1_555 1_555
H43 C51 1_555 1_555
C52 C51 1_555 1_555
C53 C52 1_555 1_555
H44 C53 1_555 1_555
C54 C53 1_555 1_555
H45 C54 1_555 1_555
C55 C54 1_555 1_555
C56 C55 1_555 1_555
H46 C56 1_555 1_555
C57 C52 1_555 1_555
C58 C57 1_555 1_555
H47 C58 1_555 1_555
C59 C50 1_555 1_555
H48 C59 1_555 1_555
C60 C55 1_555 1_555
O15 C60 1_555 1_555
O16 C60 1_555 1_555
O17 Zn4 1_555 1_555
C61 H49 1_555 1_555
C62 C61 1_555 1_555
H50 C62 1_555 1_555
C63 C62 1_555 1_555
H51 C63 1_555 1_555
C64 C63 1_555 1_555
H52 C64 1_555 1_555
C65 C64 1_555 1_555
H53 C65 1_555 1_555
C66 C61 1_555 1_555
H54 C66 1_555 1_555
C67 H55 1_555 1_555
C68 C67 1_555 1_555
H56 C68 1_555 1_555
C69 C68 1_555 1_555
H57 C69 1_555 1_555
C70 C69 1_555 1_555
H58 C70 1_555 1_555
C71 C70 1_555 1_555
H59 C71 1_555 1_555
C72 C67 1_555 1_555
H60 C72 1_555 1_555
C73 H61 1_555 1_555
C74 C73 1_555 1_555
H62 C74 1_555 1_555
C75 C74 1_555 1_555
H63 C75 1_555 1_555
C76 C75 1_555 1_555
H64 C76 1_555 1_555
C77 C76 1_555 1_555
H65 C77 1_555 1_555
C78 C73 1_555 1_555
H66 C78 1_555 1_555
C79 H67 1_555 1_555
C80 C79 1_555 1_555
H68 C80 1_555 1_555
C81 C80 1_555 1_555
H69 C81 1_555 1_555
C82 C81 1_555 1_555
H70 C82 1_555 1_555
C83 C82 1_555 1_555
H71 C83 1_555 1_555
C84 C79 1_555 1_555
H72 C84 1_555 1_555
C85 H73 1_555 1_555
C86 C85 1_555 1_555
H74 C86 1_555 1_555
C87 C86 1_555 1_555
H75 C87 1_555 1_555
C88 C87 1_555 1_555
H76 C88 1_555 1_555
C89 C88 1_555 1_555
H77 C89 1_555 1_555
C90 C85 1_555 1_555
H78 C90 1_555 1_555
C91 H79 1_555 1_555
C92 C91 1_555 1_555
H80 C92 1_555 1_555
C93 C92 1_555 1_555
H81 C93 1_555 1_555
C94 C93 1_555 1_555
H82 C94 1_555 1_555
C95 C94 1_555 1_555
H83 C95 1_555 1_555
C96 C91 1_555 1_555
H84 C96 1_555 1_555
Zn1C O3 1_555 1_555
Zn2C O4 1_555 1_555
Zn3_2 O15 1_555 1_555
Zn3B O12 1_555 1_555
Zn3C N2 1_555 1_555
Zn4_2 O16 1_555 1_555
Zn4A O7 1_555 1_555
N2C Zn3 1_555 1_555
O3C Zn1 1_555 1_555
O4C Zn2 1_555 1_555
O7A Zn4 1_555 1_555
O8A Zn4 1_555 1_555
O12B Zn3 1_555 1_555
O15_2 Zn3 1_555 1_555
O16_2 Zn4 1_555 1_555
N3 C5 1_555 1_555
N4 C4 1_555 1_555
N4 C6 1_555 1_555
N7 C10 1_555 1_555
N8 C11 1_555 1_555
N8 C12 1_555 1_555
O2 C13 1_555 1_555
C20 C21 1_555 1_555
C22 C23 1_555 1_555
O6 C25 1_555 1_555
C33 C34 1_555 1_555
C34 C35 1_555 1_555
O8 Zn4A 1_555 1_555
O10 C37 1_555 1_555
C44 C45 1_555 1_555
C46 C47 1_555 1_555
C56 C57 1_555 1_555
C58 C59 1_555 1_555
C65 C66 1_555 1_555
C71 C72 1_555 1_555
C77 C78 1_555 1_555
C83 C84 1_555 1_555
C89 C90 1_555 1_555
C95 C96 1_555 1_555

#END
