
#######################################################################
#
#                 Cambridge Crystallographic Data Centre
#                                CCDC 
#
#######################################################################
#
# If this CIF has been generated from an entry in the Cambridge 
# Structural Database, then it will include bibliographic, chemical, 
# crystal, experimental, refinement or atomic coordinate data resulting 
# from the CCDC's data processing and validation procedures.
#
#######################################################################

data_MIMSOS
_chemical_formula_moiety         '(C96 H84 N12 O16 S4 Zn4)n'
_symmetry_cell_setting           monoclinic
_symmetry_space_group_name_H-M   'P 21/n'
_symmetry_Int_Tables_number      14
_space_group_name_Hall           '-P 2yn'
loop_
_symmetry_equiv_pos_site_id
_symmetry_equiv_pos_as_xyz
1 x,y,z
2 1/2-x,1/2+y,1/2-z
3 -x,-y,-z
4 1/2+x,1/2-y,1/2+z
_cell_length_a                   12.2241(3)
_cell_length_b                   31.2482(7)
_cell_length_c                   24.8982(5)
_cell_angle_alpha                90
_cell_angle_beta                 97.846(1)
_cell_angle_gamma                90
_cell_volume                     9421.61
loop_
_atom_site_label
_atom_site_type_symbol
_atom_site_fract_x
_atom_site_fract_y
_atom_site_fract_z
Zn1 Zn 0.61069(3) 0.269427(12) 0.744983(15)
Zn2 Zn 0.41037(3) 0.257011(12) 0.791381(15)
Zn3 Zn 0.20700(3) 0.138347(12) 0.932283(15)
Zn4 Zn 0.30369(3) 0.126743(13) 1.084820(15)
N1 N 0.7472(2) 0.27725(8) 0.70536(10)
N2 N 0.8259(2) 0.31902(9) 0.63665(11)
N3 N 0.8486(2) 0.24131(9) 0.64017(12)
N4 N 0.9470(2) 0.28593(10) 0.71142(12)
C1 C 0.7323(3) 0.31490(11) 0.66884(13)
H1 H 0.7274 0.3411 0.6907
H2 H 0.6623 0.3119 0.6439
C2 C 0.7569(3) 0.23792(10) 0.67138(13)
H3 H 0.7676 0.2125 0.6953
H4 H 0.6874 0.2339 0.6464
C3 C 0.8543(3) 0.28231(12) 0.74242(14)
H5 H 0.8508 0.3082 0.7650
H6 H 0.8657 0.2573 0.7669
C4 C 0.8326(3) 0.27836(11) 0.60503(13)
H7 H 0.7636 0.2747 0.5795
H8 H 0.8947 0.2804 0.5834
C5 C 0.9502(3) 0.24709(12) 0.67815(15)
H9 H 1.0138 0.2489 0.6575
H10 H 0.9614 0.2218 0.7023
C6 C 0.9301(3) 0.32305(11) 0.67535(14)
H11 H 0.9935 0.3258 0.6547
H12 H 0.9269 0.3493 0.6973
N5 N 0.2706(2) 0.24473(9) 0.82728(10)
N6 N 0.1875(2) 0.19608(8) 0.88790(10)
N7 N 0.1538(3) 0.27330(9) 0.89122(12)
N8 N 0.0711(2) 0.23172(10) 0.81324(12)
C7 C 0.2845(3) 0.20506(10) 0.86011(13)
H13 H 0.2964 0.1807 0.8362
H14 H 0.3509 0.2078 0.8875
C8 C 0.2510(3) 0.28095(11) 0.86427(14)
H15 H 0.3166 0.2845 0.8920
H16 H 0.2407 0.3078 0.8430
C9 C 0.1684(3) 0.23982(12) 0.78675(14)
H17 H 0.1567 0.2662 0.7647
H18 H 0.1787 0.2158 0.7620
C10 C 0.1709(3) 0.23387(11) 0.92300(14)
H19 H 0.1061 0.2287 0.9420
H20 H 0.2365 0.2373 0.9508
C11 C 0.0575(3) 0.26730(12) 0.84944(16)
H21 H -0.0088 0.2622 0.8674
H22 H 0.0450 0.2939 0.8278
C12 C 0.0882(3) 0.19268(11) 0.84522(14)
H23 H 0.0983 0.1683 0.8209
H24 H 0.0219 0.1869 0.8629
O1 O 0.5461(2) 0.32840(7) 0.73886(10)
O2 O 0.4061(2) 0.32284(7) 0.78776(10)
C13 C 0.4648(3) 0.34344(11) 0.75851(14)
C14 C 0.4349(3) 0.38908(11) 0.74566(14)
C15 C 0.3418(3) 0.40810(12) 0.76444(16)
H25 H 0.3002 0.3921 0.7870
C16 C 0.3113(3) 0.44915(12) 0.75037(16)
H26 H 0.2501 0.4617 0.7642
C17 C 0.3702(3) 0.47321(11) 0.71535(15)
C18 C 0.4636(3) 0.45439(11) 0.69626(14)
C19 C 0.4950(3) 0.41210(11) 0.71262(14)
H27 H 0.5581 0.3995 0.7006
C20 C 0.3380(3) 0.51491(11) 0.69783(14)
H28 H 0.2771 0.5282 0.7111
C21 C 0.3936(3) 0.53663(11) 0.66177(15)
C22 C 0.4866(3) 0.51793(12) 0.64320(15)
H29 H 0.5252 0.5331 0.6186
C23 C 0.5214(3) 0.47791(11) 0.66059(15)
H30 H 0.5852 0.4659 0.6485
C24 C 0.3486(3) 0.57856(11) 0.63876(15)
O3 O 0.2754(2) 0.59795(8) 0.65853(11)
O4 O 0.3894(2) 0.59228(8) 0.59651(10)
O5 O 0.6273(2) 0.20606(8) 0.76099(10)
O6 O 0.4590(2) 0.19435(8) 0.78359(10)
C25 C 0.5529(3) 0.18220(11) 0.77518(13)
C26 C 0.5818(3) 0.13612(11) 0.78354(14)
C27 C 0.6866(3) 0.12095(12) 0.77391(16)
H31 H 0.7373 0.1401 0.7609
C28 C 0.7159(3) 0.07915(12) 0.78305(16)
H32 H 0.7865 0.0696 0.7763
C29 C 0.6425(3) 0.04996(11) 0.80241(14)
C30 C 0.5367(3) 0.06482(11) 0.81266(13)
C31 C 0.5089(3) 0.10824(11) 0.80229(13)
H33 H 0.4383 0.1183 0.8084
C32 C 0.6702(3) 0.00651(12) 0.81361(15)
H34 H 0.7391 -0.0042 0.8059
C33 C 0.5989(3) -0.02048(12) 0.83546(15)
C34 C 0.4953(3) -0.00532(12) 0.84561(16)
H35 H 0.4460 -0.0241 0.8603
C35 C 0.4651(3) 0.03604(11) 0.83456(15)
H36 H 0.3948 0.0457 0.8417
C36 C 0.6387(3) -0.06418(12) 0.85442(15)
O7 O 0.5830(2) -0.08344(8) 0.88652(11)
O8 O 0.7252(2) -0.07941(9) 0.84198(13)
O9 O 0.6696(2) 0.27969(9) 0.82442(9)
O10 O 0.5190(2) 0.25982(8) 0.86045(9)
C37 C 0.6198(3) 0.27007(11) 0.86378(13)
C38 C 0.6871(3) 0.26980(11) 0.91933(13)
C39 C 0.8011(3) 0.27953(13) 0.92478(14)
H37 H 0.8336 0.2874 0.8937
C40 C 0.8648(3) 0.27779(13) 0.97409(14)
H38 H 0.9411 0.2845 0.9770
C41 C 0.8182(3) 0.26602(11) 1.02115(14)
C42 C 0.7032(3) 0.25711(11) 1.01584(13)
C43 C 0.6398(3) 0.25905(11) 0.96417(13)
H39 H 0.5631 0.2528 0.9605
C44 C 0.8824(3) 0.26219(12) 1.07312(13)
H40 H 0.9596 0.2674 1.0769
C45 C 0.8347(3) 0.25118(11) 1.11763(13)
C46 C 0.7203(3) 0.24303(13) 1.11212(14)
H41 H 0.6872 0.2353 1.1431
C47 C 0.6563(3) 0.24606(13) 1.06269(13)
H42 H 0.5793 0.2406 1.0599
C48 C 0.9024(3) 0.24637(11) 1.17203(13)
O11 O 0.8485(2) 0.24303(8) 1.21172(9)
O12 O 1.00571(19) 0.24614(8) 1.17499(9)
O13 O 0.36678(19) 0.13738(8) 0.94358(9)
O14 O 0.39145(19) 0.15361(7) 1.03176(9)
C49 C 0.4270(3) 0.14530(10) 0.98787(13)
C50 C 0.5483(3) 0.14557(11) 0.98666(13)
C51 C 0.5898(3) 0.14868(12) 0.93612(15)
H43 H 0.5403 0.1497 0.9032
C52 C 0.7012(3) 0.15020(12) 0.93510(14)
H44 H 0.7286 0.1528 0.9014
C53 C 0.7760(3) 0.14793(11) 0.98343(13)
C54 C 0.7347(3) 0.14332(12) 1.03380(13)
C55 C 0.6189(3) 0.14266(11) 1.03400(14)
H45 H 0.5900 0.1402 1.0674
C56 C 0.8918(3) 0.14912(11) 0.98341(14)
H46 H 0.9207 0.1527 0.9502
C57 C 0.9626(3) 0.14510(11) 1.03076(14)
C58 C 0.9207(3) 0.13987(12) 1.08089(14)
H47 H 0.9702 0.1367 1.1135
C59 C 0.8105(3) 0.13933(13) 1.08213(14)
H48 H 0.7833 0.1362 1.1159
C60 C 1.0836(3) 0.14533(10) 1.02977(13)
O15 O 1.14290(19) 0.13131(8) 1.07134(9)
O16 O 1.12068(19) 0.15950(7) 0.98825(9)
Zn1C Zn 1.11069(3) 0.230573(12) 1.244983(15)
Zn2C Zn 0.91037(3) 0.242989(12) 1.291381(15)
Zn3_2 Zn 1.20700(3) 0.138347(12) 0.932283(15)
Zn3A Zn 0.29300(3) 0.638347(12) 0.567717(15)
Zn4_2 Zn 1.30369(3) 0.126743(13) 1.084820(15)
Zn4B Zn 0.69631(3) -0.126743(13) 0.915180(15)
Zn4C Zn 0.80369(3) 0.373257(13) 0.584820(15)
N2C N 0.3259(2) 0.18098(9) 1.13665(11)
O4A O 0.1106(2) 0.09228(8) 0.90349(10)
O7B O 0.4170(2) 0.08344(8) 1.11348(11)
O8B O 0.2748(2) 0.07941(9) 1.15802(13)
O11C O 0.3485(2) 0.25697(8) 0.71172(9)
O12C O 0.50571(19) 0.25386(8) 0.67499(9)
O15_2 O 0.14290(19) 0.13131(8) 1.07134(9)
O16_2 O 0.12068(19) 0.15950(7) 0.98825(9)
S1 S 0.15379(10) 0.03542(4) 1.00797(5)
N9 N 0.2621(3) 0.06570(11) 1.01111(15)
S2 S 0.37421(11) 0.03874(4) 1.00486(6)
S3 S 0.24034(16) -0.01713(4) 0.94376(5)
N10 N 0.2698(5) -0.04934(13) 0.99439(17)
S4 S 0.29240(13) -0.02677(4) 1.05220(5)
N11 N 0.1820(4) 0.00109(13) 1.05657(15)
N12 N 0.3471(5) 0.01433(14) 0.94740(17)
C61 C 0.4187(5) 0.02082(19) 0.6749(2)
H49 H 0.4828 0.0252 0.7005
C62 C 0.3228(5) 0.04268(19) 0.6807(2)
H50 H 0.3216 0.0624 0.7097
C63 C 0.2299(5) 0.03588(18) 0.6447(2)
H51 H 0.1637 0.0507 0.6487
C64 C 0.2322(5) 0.0075(2) 0.6027(3)
H52 H 0.1670 0.0023 0.5782
C65 C 0.3290(6) -0.01358(19) 0.5960(3)
H53 H 0.3311 -0.0325 0.5662
C66 C 0.4229(5) -0.00684(19) 0.6331(3)
H54 H 0.4895 -0.0214 0.6293
C67 C 0.5779(5) 0.48740(19) 0.8459(2)
H55 H 0.5087 0.4782 0.8275
C68 C 0.6033(6) 0.4810(2) 0.9002(3)
H56 H 0.5534 0.4661 0.9195
C69 C 0.7027(7) 0.4965(3) 0.9275(3)
H57 H 0.7211 0.4925 0.9655
C70 C 0.7752(6) 0.5181(2) 0.8972(3)
H58 H 0.8419 0.5302 0.9149
C71 C 0.7493(6) 0.5215(2) 0.8433(3)
H59 H 0.8001 0.5343 0.8225
C72 C 0.6509(6) 0.5067(2) 0.8184(3)
H60 H 0.6332 0.5102 0.7803
C73 C 0.5275(8) 0.6399(2) 0.8694(3)
H61 H 0.5842 0.6432 0.8992
C74 C 0.4233(8) 0.65537(19) 0.8721(3)
H62 H 0.4078 0.6693 0.9041
C75 C 0.3401(6) 0.65076(18) 0.8283(3)
H63 H 0.2681 0.6616 0.8302
C76 C 0.3637(6) 0.63013(19) 0.7820(2)
H64 H 0.3082 0.6265 0.7517
C77 C 0.4680(7) 0.6151(2) 0.7808(2)
H65 H 0.4848 0.6009 0.7492
C78 C 0.5485(7) 0.6199(2) 0.8237(3)
H66 H 0.6204 0.6091 0.8216
C79 C 0.9638(7) 0.4070(2) 0.7855(3)
H67 H 0.9909 0.4166 0.7536
C80 C 1.0329(7) 0.3874(2) 0.8257(3)
H68 H 1.1079 0.3827 0.8213
C81 C 0.9946(8) 0.3746(2) 0.8726(3)
H69 H 1.0437 0.3616 0.9008
C82 C 0.8872(8) 0.3804(2) 0.8786(3)
H70 H 0.8606 0.3712 0.9108
C83 C 0.8158(8) 0.3998(2) 0.8375(3)
H71 H 0.7404 0.4040 0.8415
C84 C 0.8550(7) 0.4126(2) 0.7914(3)
H72 H 0.8062 0.4255 0.7631
C85 C 0.4956(7) 0.4181(2) 1.0137(3)
H73 H 0.4972 0.4363 1.0444
C86 C 0.5880(7) 0.3992(2) 1.0043(3)
H74 H 0.6539 0.4026 1.0290
C87 C 0.5878(9) 0.3746(2) 0.9590(4)
H75 H 0.6539 0.3613 0.9515
C88 C 0.4877(10) 0.3691(3) 0.9230(4)
H76 H 0.4857 0.3523 0.8910
C89 C 0.3967(8) 0.3883(3) 0.9356(4)
H77 H 0.3288 0.3850 0.9124
C90 C 0.4000(7) 0.4124(2) 0.9812(4)
H78 H 0.3344 0.4253 0.9900
C91 C 0.5824(7) 0.1451(2) 0.6209(3)
H79 H 0.6085 0.1586 0.6544
C92 C 0.6421(7) 0.1495(3) 0.5797(3)
H80 H 0.7081 0.1660 0.5842
C93 C 0.6074(8) 0.1305(3) 0.5322(4)
H81 H 0.6479 0.1341 0.5025
C94 C 0.5117(9) 0.1056(3) 0.5261(4)
H82 H 0.4883 0.0905 0.4935
C95 C 0.4528(8) 0.1038(3) 0.5694(4)
H83 H 0.3848 0.0886 0.5658
C96 C 0.4904(8) 0.1233(3) 0.6172(4)
H84 H 0.4506 0.1211 0.6473
loop_
_geom_bond_atom_site_label_1
_geom_bond_atom_site_label_2
_geom_bond_site_symmetry_1
_geom_bond_site_symmetry_2
Zn1 N1 1_555 1_555
Zn2 N5 1_555 1_555
Zn3 N6 1_555 1_555
Zn4 O14 1_555 1_555
N1 C1 1_555 1_555
N2 C1 1_555 1_555
N3 C2 1_555 1_555
N4 C3 1_555 1_555
C1 H1 1_555 1_555
H2 C1 1_555 1_555
C2 N1 1_555 1_555
H3 C2 1_555 1_555
H4 C2 1_555 1_555
C3 N1 1_555 1_555
H5 C3 1_555 1_555
H6 C3 1_555 1_555
C4 N2 1_555 1_555
H7 C4 1_555 1_555
H8 C4 1_555 1_555
C5 N3 1_555 1_555
H9 C5 1_555 1_555
H10 C5 1_555 1_555
C6 N2 1_555 1_555
H11 C6 1_555 1_555
H12 C6 1_555 1_555
N5 C7 1_555 1_555
N6 C7 1_555 1_555
N7 C8 1_555 1_555
N8 C9 1_555 1_555
C7 H13 1_555 1_555
H14 C7 1_555 1_555
C8 N5 1_555 1_555
H15 C8 1_555 1_555
H16 C8 1_555 1_555
C9 N5 1_555 1_555
H17 C9 1_555 1_555
H18 C9 1_555 1_555
C10 N6 1_555 1_555
H19 C10 1_555 1_555
H20 C10 1_555 1_555
C11 N7 1_555 1_555
H21 C11 1_555 1_555
H22 C11 1_555 1_555
C12 N6 1_555 1_555
H23 C12 1_555 1_555
H24 C12 1_555 1_555
O1 Zn1 1_555 1_555
O2 Zn2 1_555 1_555
C13 O1 1_555 1_555
C14 C13 1_555 1_555
C15 C14 1_555 1_555
H25 C15 1_555 1_555
C16 C15 1_555 1_555
H26 C16 1_555 1_555
C17 C16 1_555 1_555
C18 C17 1_555 1_555
C19 C14 1_555 1_555
H27 C19 1_555 1_555
C20 C17 1_555 1_555
H28 C20 1_555 1_555
C21 C20 1_555 1_555
C22 C21 1_555 1_555
H29 C22 1_555 1_555
C23 C18 1_555 1_555
H30 C23 1_555 1_555
C24 C21 1_555 1_555
O3 C24 1_555 1_555
O4 C24 1_555 1_555
O5 Zn1 1_555 1_555
O6 Zn2 1_555 1_555
C25 O5 1_555 1_555
C26 C25 1_555 1_555
C27 C26 1_555 1_555
H31 C27 1_555 1_555
C28 C27 1_555 1_555
H32 C28 1_555 1_555
C29 C28 1_555 1_555
C30 C29 1_555 1_555
C31 C26 1_555 1_555
H33 C31 1_555 1_555
C32 C29 1_555 1_555
H34 C32 1_555 1_555
C33 C32 1_555 1_555
C34 C33 1_555 1_555
H35 C34 1_555 1_555
C35 C30 1_555 1_555
H36 C35 1_555 1_555
C36 C33 1_555 1_555
O7 C36 1_555 1_555
O8 C36 1_555 1_555
O9 Zn1 1_555 1_555
O10 Zn2 1_555 1_555
C37 O9 1_555 1_555
C38 C37 1_555 1_555
C39 C38 1_555 1_555
H37 C39 1_555 1_555
C40 C39 1_555 1_555
H38 C40 1_555 1_555
C41 C40 1_555 1_555
C42 C41 1_555 1_555
C43 C38 1_555 1_555
H39 C43 1_555 1_555
C44 C41 1_555 1_555
H40 C44 1_555 1_555
C45 C44 1_555 1_555
C46 C45 1_555 1_555
H41 C46 1_555 1_555
C47 C42 1_555 1_555
H42 C47 1_555 1_555
C48 C45 1_555 1_555
O11 C48 1_555 1_555
O12 C48 1_555 1_555
O13 Zn3 1_555 1_555
O14 C49 1_555 1_555
C49 O13 1_555 1_555
C50 C49 1_555 1_555
C51 C50 1_555 1_555
H43 C51 1_555 1_555
C52 C51 1_555 1_555
H44 C52 1_555 1_555
C53 C52 1_555 1_555
C54 C53 1_555 1_555
C55 C50 1_555 1_555
H45 C55 1_555 1_555
C56 C53 1_555 1_555
H46 C56 1_555 1_555
C57 C56 1_555 1_555
C58 C57 1_555 1_555
H47 C58 1_555 1_555
C59 C54 1_555 1_555
H48 C59 1_555 1_555
C60 C57 1_555 1_555
O15 C60 1_555 1_555
O16 C60 1_555 1_555
S1 N9 1_555 1_555
N9 S2 1_555 1_555
S2 N12 1_555 1_555
S3 N10 1_555 1_555
N10 S4 1_555 1_555
S4 N11 1_555 1_555
N11 S1 1_555 1_555
N12 S3 1_555 1_555
C61 H49 1_555 1_555
C62 C61 1_555 1_555
H50 C62 1_555 1_555
C63 C62 1_555 1_555
H51 C63 1_555 1_555
C64 C63 1_555 1_555
H52 C64 1_555 1_555
C65 C64 1_555 1_555
H53 C65 1_555 1_555
C66 C61 1_555 1_555
H54 C66 1_555 1_555
C67 H55 1_555 1_555
C68 C67 1_555 1_555
H56 C68 1_555 1_555
C69 C68 1_555 1_555
H57 C69 1_555 1_555
C70 C69 1_555 1_555
H58 C70 1_555 1_555
C71 C70 1_555 1_555
H59 C71 1_555 1_555
C72 C67 1_555 1_555
H60 C72 1_555 1_555
C73 H61 1_555 1_555
C74 C73 1_555 1_555
H62 C74 1_555 1_555
C75 C74 1_555 1_555
H63 C75 1_555 1_555
C76 C75 1_555 1_555
H64 C76 1_555 1_555
C77 C76 1_555 1_555
H65 C77 1_555 1_555
C78 C73 1_555 1_555
H66 C78 1_555 1_555
C79 H67 1_555 1_555
C80 C79 1_555 1_555
H68 C80 1_555 1_555
C81 C80 1_555 1_555
H69 C81 1_555 1_555
C82 C81 1_555 1_555
H70 C82 1_555 1_555
C83 C82 1_555 1_555
H71 C83 1_555 1_555
C84 C79 1_555 1_555
H72 C84 1_555 1_555
C85 H73 1_555 1_555
C86 C85 1_555 1_555
H74 C86 1_555 1_555
C87 C86 1_555 1_555
H75 C87 1_555 1_555
C88 C87 1_555 1_555
H76 C88 1_555 1_555
C89 C88 1_555 1_555
H77 C89 1_555 1_555
C90 C85 1_555 1_555
H78 C90 1_555 1_555
C91 H79 1_555 1_555
C92 C91 1_555 1_555
H80 C92 1_555 1_555
C93 C92 1_555 1_555
H81 C93 1_555 1_555
C94 C93 1_555 1_555
H82 C94 1_555 1_555
C95 C94 1_555 1_555
H83 C95 1_555 1_555
C96 C91 1_555 1_555
H84 C96 1_555 1_555
Zn1C O12 1_555 1_555
Zn2C O11 1_555 1_555
Zn3_2 O16 1_555 1_555
Zn3A O4 1_555 1_555
Zn4_2 O15 1_555 1_555
Zn4B O7 1_555 1_555
Zn4C N2 1_555 1_555
N2C Zn4 1_555 1_555
O4A Zn3 1_555 1_555
O7B Zn4 1_555 1_555
O8B Zn4 1_555 1_555
O11C Zn2 1_555 1_555
O12C Zn1 1_555 1_555
O15_2 Zn4 1_555 1_555
O16_2 Zn3 1_555 1_555
N3 C4 1_555 1_555
N4 C5 1_555 1_555
N4 C6 1_555 1_555
N7 C10 1_555 1_555
N8 C11 1_555 1_555
N8 C12 1_555 1_555
O2 C13 1_555 1_555
C18 C19 1_555 1_555
C22 C23 1_555 1_555
O6 C25 1_555 1_555
C30 C31 1_555 1_555
C34 C35 1_555 1_555
O8 Zn4B 1_555 1_555
O10 C37 1_555 1_555
C42 C43 1_555 1_555
C46 C47 1_555 1_555
C54 C55 1_555 1_555
C58 C59 1_555 1_555
C65 C66 1_555 1_555
C71 C72 1_555 1_555
C77 C78 1_555 1_555
C83 C84 1_555 1_555
C89 C90 1_555 1_555
C95 C96 1_555 1_555

#END
