
#######################################################################
#
#                 Cambridge Crystallographic Data Centre
#                                CCDC 
#
#######################################################################
#
# If this CIF has been generated from an entry in the Cambridge 
# Structural Database, then it will include bibliographic, chemical, 
# crystal, experimental, refinement or atomic coordinate data resulting 
# from the CCDC's data processing and validation procedures.
#
#######################################################################

data_MIMSUY
_chemical_formula_moiety         '(C60 H48 N12 O16 S4 Zn4)n'
_symmetry_cell_setting           monoclinic
_symmetry_space_group_name_H-M   'C 2/c'
_symmetry_Int_Tables_number      15
_space_group_name_Hall           '-C 2yc'
loop_
_symmetry_equiv_pos_site_id
_symmetry_equiv_pos_as_xyz
1 x,y,z
2 -x,y,1/2-z
3 1/2+x,1/2+y,z
4 1/2-x,1/2+y,1/2-z
5 -x,-y,-z
6 x,-y,1/2+z
7 1/2-x,1/2-y,-z
8 1/2+x,1/2-y,1/2+z
_cell_length_a                   25.0401(5)
_cell_length_b                   31.2285(5)
_cell_length_c                   12.3111(2)
_cell_angle_alpha                90
_cell_angle_beta                 98.2060(10)
_cell_angle_gamma                90
_cell_volume                     9528.28
loop_
_atom_site_label
_atom_site_type_symbol
_atom_site_fract_x
_atom_site_fract_y
_atom_site_fract_z
Zn1 Zn 0.226304(13) 0.243845(11) 0.09811(3)
Zn2 Zn 0.075456(14) 0.132894(11) 0.29621(3)
N1 N 0.18860(10) 0.23422(8) 0.23602(19)
N2 N 0.12420(10) 0.18918(8) 0.31648(19)
N3 N 0.19970(14) 0.22293(12) 0.4336(2)
N4 N 0.12514(14) 0.26667(10) 0.3444(3)
C1 C 0.15373(11) 0.19556(9) 0.2215(2)
H1 H 0.1280 0.1985 0.1551
H2 H 0.1758 0.1706 0.2132
C2 C 0.22743(14) 0.22890(13) 0.3387(3)
H3 H 0.2503 0.2043 0.3312
H4 H 0.2503 0.2540 0.3498
C3 C 0.15362(15) 0.27200(10) 0.2506(3)
H5 H 0.1758 0.2976 0.2606
H6 H 0.1277 0.2758 0.1849
C4 C 0.16521(15) 0.18521(13) 0.4163(3)
H7 H 0.1470 0.1810 0.4798
H8 H 0.1874 0.1602 0.4090
C5 C 0.1660(2) 0.25983(15) 0.4429(3)
H9 H 0.1886 0.2851 0.4547
H10 H 0.1476 0.2563 0.5065
C6 C 0.09152(15) 0.22851(11) 0.3284(3)
H11 H 0.0652 0.2321 0.2631
H12 H 0.0721 0.2251 0.3906
O1 O 0.23817(10) 0.30772(7) 0.1128(2)
O2 O 0.27532(10) 0.31657(7) -0.0391(2)
C7 C 0.26050(13) 0.33010(10) 0.0469(3)
C8 C 0.27108(14) 0.37636(11) 0.0763(3)
C9 C 0.2555(2) 0.39315(13) 0.1728(4)
H13 H 0.2377 0.3757 0.2173
C10 C 0.2661(2) 0.43468(14) 0.2018(4)
H14 H 0.2552 0.4453 0.2658
C11 C 0.29333(16) 0.46190(12) 0.1367(3)
C12 C 0.30687(18) 0.50442(12) 0.1658(3)
H15 H 0.2958 0.5159 0.2286
C13 C 0.33586(16) 0.52922(11) 0.1045(3)
C14 C 0.35181(18) 0.51258(12) 0.0090(3)
H16 H 0.3718 0.5295 -0.0326
C15 C 0.33846(17) 0.47158(12) -0.0245(3)
H17 H 0.3486 0.4612 -0.0893
C16 C 0.30927(15) 0.44507(11) 0.0395(3)
C17 C 0.29673(14) 0.40216(10) 0.0106(3)
H18 H 0.3061 0.3912 -0.0544
C18 C 0.35598(18) 0.57256(12) 0.1471(3)
O3 O 0.39390(12) 0.58853(8) 0.1039(3)
O4 O 0.33731(16) 0.59020(9) 0.2225(3)
O5 O 0.15681(9) 0.25502(8) -0.00776(19)
O6 O 0.19457(9) 0.26329(9) -0.1598(2)
C19 C 0.15441(12) 0.26069(11) -0.1094(3)
C20 C 0.09970(12) 0.26355(11) -0.1764(3)
C21 C 0.09500(14) 0.26507(16) -0.2912(3)
H19 H 0.1261 0.2660 -0.3245
C22 C 0.05377(12) 0.26389(12) -0.1288(3)
H20 H 0.0565 0.2634 -0.0527
C23 C 0.00210(12) 0.26501(11) -0.1924(2)
C24 C 0.04602(14) 0.26522(17) -0.3545(3)
H21 H 0.0442 0.2655 -0.4304
O7 O 0.06195(9) 0.13589(7) 0.13694(16)
O8 O -0.02369(9) 0.15679(7) 0.11174(17)
C25 C 0.01926(12) 0.14641(9) 0.0773(2)
C26 C 0.02084(12) 0.14752(10) -0.0439(2)
C27 C 0.07141(13) 0.14683(12) -0.0835(3)
H22 H 0.1033 0.1458 -0.0344
C28 C -0.02591(12) 0.14820(11) -0.1157(2)
H23 H -0.0588 0.1484 -0.0888
C29 C 0.07303(13) 0.14767(13) -0.1935(3)
H24 H 0.1062 0.1477 -0.2190
C30 C -0.02535(12) 0.14853(10) -0.2307(2)
O5A O -0.15681(9) 0.25502(8) -0.49224(19)
O6A O -0.19457(9) 0.26329(9) -0.3402(2)
C19A C -0.15441(12) 0.26069(11) -0.3906(3)
C20A C -0.09970(12) 0.26355(11) -0.3236(3)
C21A C -0.09500(14) 0.26507(16) -0.2088(3)
H19A H -0.1261 0.2660 -0.1755
C22A C -0.05377(12) 0.26389(12) -0.3712(3)
H20A H -0.0565 0.2634 -0.4473
C23A C -0.00210(12) 0.26501(11) -0.3076(2)
C24A C -0.04602(14) 0.26522(17) -0.1455(3)
H21A H -0.0442 0.2655 -0.0696
O7A O -0.06195(9) 0.13589(7) -0.63694(16)
O8A O 0.02369(9) 0.15679(7) -0.61174(17)
C25A C -0.01926(12) 0.14641(9) -0.5773(2)
C26A C -0.02084(12) 0.14752(10) -0.4561(2)
C27A C -0.07141(13) 0.14683(12) -0.4165(3)
H22A H -0.1033 0.1458 -0.4656
C28A C 0.02591(12) 0.14820(11) -0.3843(2)
H23A H 0.0588 0.1484 -0.4112
C29A C -0.07303(13) 0.14767(13) -0.3065(3)
H24A H -0.1062 0.1477 -0.2810
C30A C 0.02535(12) 0.14853(10) -0.2693(2)
Zn1A Zn -0.226304(13) 0.243845(11) -0.59811(3)
Zn2A Zn -0.075456(14) 0.132894(11) -0.79621(3)
N1A N -0.18860(10) 0.23422(8) -0.73602(19)
N2A N -0.12420(10) 0.18918(8) -0.81648(19)
N3A N -0.19970(14) 0.22293(12) -0.9336(2)
N4A N -0.12514(14) 0.26667(10) -0.8444(3)
C1A C -0.15373(11) 0.19556(9) -0.7215(2)
H1A H -0.1280 0.1985 -0.6551
H2A H -0.1758 0.1706 -0.7132
C2A C -0.22743(14) 0.22890(13) -0.8387(3)
H3A H -0.2503 0.2043 -0.8312
H4A H -0.2503 0.2540 -0.8498
C3A C -0.15362(15) 0.27200(10) -0.7506(3)
H5A H -0.1758 0.2976 -0.7606
H6A H -0.1277 0.2758 -0.6849
C4A C -0.16521(15) 0.18521(13) -0.9163(3)
H7A H -0.1470 0.1810 -0.9798
H8A H -0.1874 0.1602 -0.9090
C5A C -0.1660(2) 0.25983(15) -0.9429(3)
H9A H -0.1886 0.2851 -0.9547
H10A H -0.1476 0.2563 -1.0065
C6A C -0.09152(15) 0.22851(11) -0.8284(3)
H11A H -0.0652 0.2321 -0.7631
H12A H -0.0721 0.2251 -0.8906
O1A O -0.23817(10) 0.30772(7) -0.6128(2)
O2A O -0.27532(10) 0.31657(7) -0.4609(2)
C7A C -0.26050(13) 0.33010(10) -0.5469(3)
C8A C -0.27108(14) 0.37636(11) -0.5763(3)
C9A C -0.2555(2) 0.39315(13) -0.6728(4)
H13A H -0.2377 0.3757 -0.7173
C10A C -0.2661(2) 0.43468(14) -0.7018(4)
H14A H -0.2552 0.4453 -0.7658
C11A C -0.29333(16) 0.46190(12) -0.6367(3)
C12A C -0.30687(18) 0.50442(12) -0.6658(3)
H15A H -0.2958 0.5159 -0.7286
C13A C -0.33586(16) 0.52922(11) -0.6045(3)
C14A C -0.35181(18) 0.51258(12) -0.5090(3)
H16A H -0.3718 0.5295 -0.4674
C15A C -0.33846(17) 0.47158(12) -0.4755(3)
H17A H -0.3486 0.4612 -0.4107
C16A C -0.30927(15) 0.44507(11) -0.5395(3)
C17A C -0.29673(14) 0.40216(10) -0.5106(3)
H18A H -0.3061 0.3912 -0.4456
C18A C -0.35598(18) 0.57256(12) -0.6471(3)
O3A O -0.39390(12) 0.58853(8) -0.6039(3)
O4A O -0.33731(16) 0.59020(9) -0.7225(3)
Zn1F Zn 0.273696(13) 0.256155(11) -0.09811(3)
Zn1G Zn -0.273696(13) 0.256155(11) -0.40189(3)
Zn2_2 Zn 0.075456(14) 0.132894(11) -0.70379(3)
Zn2A_2 Zn -0.075456(14) 0.132894(11) 0.20379(3)
Zn2B Zn -0.424544(14) 0.632894(11) -0.70379(3)
Zn2C Zn 0.424544(14) 0.632894(11) 0.20379(3)
O2F O 0.22468(10) 0.18343(7) 0.0391(2)
O2G O -0.22468(10) 0.18343(7) -0.5391(2)
O3B O -0.10610(12) 0.08853(8) -0.8961(3)
O3C O 0.10610(12) 0.08853(8) 0.3961(3)
O6F O 0.30543(9) 0.23671(9) 0.1598(2)
O6G O -0.30543(9) 0.23671(9) -0.6598(2)
O8_2 O -0.02369(9) 0.15679(7) -0.88826(17)
O8A_2 O 0.02369(9) 0.15679(7) 0.38826(17)
N5 N 0.0000 0.06701(17) 0.2500
S1 S -0.00029(7) 0.03710(4) 0.14020(13)
N6 N 0.0525(2) 0.00752(16) 0.1639(5)
S2 S 0.05451(7) -0.02233(5) 0.27290(19)
N7 N -0.0000 -0.0501(2) 0.2500
S1A S 0.00029(7) 0.03710(4) 0.35980(13)
N6A N -0.0525(2) 0.00752(16) 0.3361(5)
S2A S -0.05451(7) -0.02233(5) 0.22710(19)
loop_
_geom_bond_atom_site_label_1
_geom_bond_atom_site_label_2
_geom_bond_site_symmetry_1
_geom_bond_site_symmetry_2
Zn1 N1 1_555 1_555
Zn2 N2 1_555 1_555
N1 C1 1_555 1_555
N2 C1 1_555 1_555
N3 C2 1_555 1_555
N4 C3 1_555 1_555
C1 H1 1_555 1_555
H2 C1 1_555 1_555
C2 N1 1_555 1_555
H3 C2 1_555 1_555
H4 C2 1_555 1_555
C3 N1 1_555 1_555
H5 C3 1_555 1_555
H6 C3 1_555 1_555
C4 N2 1_555 1_555
H7 C4 1_555 1_555
H8 C4 1_555 1_555
C5 N3 1_555 1_555
H9 C5 1_555 1_555
H10 C5 1_555 1_555
C6 N2 1_555 1_555
H11 C6 1_555 1_555
H12 C6 1_555 1_555
O1 Zn1 1_555 1_555
O2 C7 1_555 1_555
C7 O1 1_555 1_555
C8 C7 1_555 1_555
C9 C8 1_555 1_555
H13 C9 1_555 1_555
C10 C9 1_555 1_555
H14 C10 1_555 1_555
C11 C10 1_555 1_555
C12 C11 1_555 1_555
H15 C12 1_555 1_555
C13 C12 1_555 1_555
C14 C13 1_555 1_555
H16 C14 1_555 1_555
C15 C14 1_555 1_555
H17 C15 1_555 1_555
C16 C11 1_555 1_555
C17 C8 1_555 1_555
H18 C17 1_555 1_555
C18 C13 1_555 1_555
O3 C18 1_555 1_555
O4 C18 1_555 1_555
O5 Zn1 1_555 1_555
O6 C19 1_555 1_555
C19 O5 1_555 1_555
C20 C19 1_555 1_555
C21 C20 1_555 1_555
H19 C21 1_555 1_555
C22 C20 1_555 1_555
H20 C22 1_555 1_555
C23 C22 1_555 1_555
C24 C21 1_555 1_555
H21 C24 1_555 1_555
O7 Zn2 1_555 1_555
O8 C25 1_555 1_555
C25 O7 1_555 1_555
C26 C25 1_555 1_555
C27 C26 1_555 1_555
H22 C27 1_555 1_555
C28 C26 1_555 1_555
H23 C28 1_555 1_555
C29 C27 1_555 1_555
H24 C29 1_555 1_555
C30 C28 1_555 1_555
N5 S1 1_555 1_555
S1 N6 1_555 1_555
N6 S2 1_555 1_555
S2 N7 1_555 1_555
N7 S2A 1_555 1_555
O5A C19A 1_555 1_555
O6A C19A 1_555 1_555
C19A C20A 1_555 1_555
C20A C21A 1_555 1_555
C21A H19A 1_555 1_555
C22A C20A 1_555 1_555
H20A C22A 1_555 1_555
C23A C23 1_555 1_555
C24A C23 1_555 1_555
H21A C24A 1_555 1_555
O7A C25A 1_555 1_555
O8A C25A 1_555 1_555
C25A C26A 1_555 1_555
C26A C27A 1_555 1_555
C27A H22A 1_555 1_555
C28A C26A 1_555 1_555
H23A C28A 1_555 1_555
C29A C30 1_555 1_555
H24A C29A 1_555 1_555
C30A C29 1_555 1_555
Zn1A O5A 1_555 1_555
Zn2A O7A 1_555 1_555
N1A Zn1A 1_555 1_555
N2A Zn2A 1_555 1_555
N3A C2A 1_555 1_555
N4A C3A 1_555 1_555
C1A N1A 1_555 1_555
H1A C1A 1_555 1_555
H2A C1A 1_555 1_555
C2A N1A 1_555 1_555
H3A C2A 1_555 1_555
H4A C2A 1_555 1_555
C3A N1A 1_555 1_555
H5A C3A 1_555 1_555
H6A C3A 1_555 1_555
C4A N2A 1_555 1_555
H7A C4A 1_555 1_555
H8A C4A 1_555 1_555
C5A N3A 1_555 1_555
H9A C5A 1_555 1_555
H10A C5A 1_555 1_555
C6A N2A 1_555 1_555
H11A C6A 1_555 1_555
H12A C6A 1_555 1_555
O1A Zn1A 1_555 1_555
O2A C7A 1_555 1_555
C7A O1A 1_555 1_555
C8A C7A 1_555 1_555
C9A C8A 1_555 1_555
H13A C9A 1_555 1_555
C10A C9A 1_555 1_555
H14A C10A 1_555 1_555
C11A C10A 1_555 1_555
C12A C11A 1_555 1_555
H15A C12A 1_555 1_555
C13A C12A 1_555 1_555
C14A C13A 1_555 1_555
H16A C14A 1_555 1_555
C15A C14A 1_555 1_555
H17A C15A 1_555 1_555
C16A C11A 1_555 1_555
C17A C8A 1_555 1_555
H18A C17A 1_555 1_555
C18A C13A 1_555 1_555
O3A C18A 1_555 1_555
O4A C18A 1_555 1_555
Zn1F O2 1_555 1_555
Zn1G O6A 1_555 1_555
Zn2_2 O8A 1_555 1_555
Zn2A_2 O8 1_555 1_555
Zn2B O3A 1_555 1_555
Zn2C O3 1_555 1_555
O2F Zn1 1_555 1_555
O2G Zn1A 1_555 1_555
O3B Zn2A 1_555 1_555
O3C Zn2 1_555 1_555
O6F Zn1 1_555 1_555
O6G Zn1A 1_555 1_555
O8_2 Zn2A 1_555 1_555
O8A_2 Zn2 1_555 1_555
S1A N5 1_555 1_555
N6A S1A 1_555 1_555
S2A N6A 1_555 1_555
N3 C4 1_555 1_555
N4 C5 1_555 1_555
N4 C6 1_555 1_555
C15 C16 1_555 1_555
C16 C17 1_555 1_555
O6 Zn1F 1_555 1_555
C24 C23A 1_555 1_555
C30 C30A 1_555 1_555
C21A C24A 1_555 1_555
C22A C23A 1_555 1_555
C27A C29A 1_555 1_555
C28A C30A 1_555 1_555
N2A C1A 1_555 1_555
N3A C4A 1_555 1_555
N4A C5A 1_555 1_555
N4A C6A 1_555 1_555
O2A Zn1G 1_555 1_555
C15A C16A 1_555 1_555
C16A C17A 1_555 1_555

#END
