
#######################################################################
#
#                 Cambridge Crystallographic Data Centre
#                                CCDC 
#
#######################################################################
#
# If this CIF has been generated from an entry in the Cambridge 
# Structural Database, then it will include bibliographic, chemical, 
# crystal, experimental, refinement or atomic coordinate data resulting 
# from the CCDC's data processing and validation procedures.
#
#######################################################################

data_MASZUD
_chemical_formula_moiety         '(C56 H54 Cu6 I2 Mo2 N12 O4 S6)n'
_symmetry_cell_setting           monoclinic
_symmetry_space_group_name_H-M   'C 2/c'
_symmetry_Int_Tables_number      15
_space_group_name_Hall           '-C 2yc'
loop_
_symmetry_equiv_pos_site_id
_symmetry_equiv_pos_as_xyz
1 x,y,z
2 -x,y,1/2-z
3 1/2+x,1/2+y,z
4 1/2-x,1/2+y,1/2-z
5 -x,-y,-z
6 x,-y,1/2+z
7 1/2-x,1/2-y,-z
8 1/2+x,1/2-y,1/2+z
_cell_length_a                   21.2500(10)
_cell_length_b                   21.2819(8)
_cell_length_c                   18.1026(7)
_cell_angle_alpha                90
_cell_angle_beta                 96.336(4)
_cell_angle_gamma                90
_cell_volume                     8136.72
loop_
_atom_site_label
_atom_site_type_symbol
_atom_site_fract_x
_atom_site_fract_y
_atom_site_fract_z
I1 I -0.38714(3) -0.14045(2) 0.42986(3)
Mo1 Mo -0.21525(2) 0.01756(2) 0.50410(2)
Cu1 Cu -0.31835(4) 0.08788(3) 0.52574(4)
Cu2 Cu -0.28544(4) -0.08913(3) 0.48952(4)
Cu3 Cu -0.23805(3) 0.04295(3) 0.35875(3)
S1 S -0.29158(8) -0.00967(6) 0.57495(7)
S2 S -0.24047(8) 0.11328(6) 0.45358(7)
S3 S -0.21661(8) -0.05378(7) 0.41096(8)
O1 O -0.1427(2) 0.0188(2) 0.5549(2)
N2 N -0.3182(3) 0.1474(2) 0.6170(2)
N3 N -0.2568(3) 0.3384(2) 0.9360(2)
N4 N -0.6876(2) 0.0514(2) 0.2192(2)
N5 N -0.4070(2) 0.0859(2) 0.4687(3)
N6 N -0.8468(2) 0.0556(2) 0.1903(2)
C1 C -0.3269(4) 0.2092(3) 0.6138(3)
H1 H -0.3391 0.2273 0.5677
C2 C -0.3188(4) 0.2479(3) 0.6753(3)
H2 H -0.3245 0.2910 0.6699
C3 C -0.3021(3) 0.2224(3) 0.7450(3)
C4 C -0.2939(4) 0.1574(3) 0.7482(3)
H3 H -0.2830 0.1377 0.7937
C5 C -0.3020(4) 0.1225(3) 0.6842(3)
H4 H -0.2958 0.0793 0.6877
C6 C -0.3067(3) 0.3504(3) 0.8868(3)
H5 H -0.3313 0.3854 0.8947
C7 C -0.3238(3) 0.3139(3) 0.8249(3)
H6 H -0.3588 0.3248 0.7919
C8 C -0.2892(3) 0.2617(2) 0.8122(3)
C9 C -0.2389(3) 0.2472(3) 0.8654(3)
H7 H -0.2154 0.2109 0.8605
C10 C -0.2240(3) 0.2861(3) 0.9247(3)
H8 H -0.1896 0.2758 0.9589
C11 C -0.6409(3) 0.0097(3) 0.2241(3)
H9 H -0.6450 -0.0250 0.1926
C12 C -0.5867(3) 0.0145(3) 0.2731(4)
H10 H -0.5560 -0.0167 0.2747
C13 C -0.5779(3) 0.0660(3) 0.3199(3)
C14 C -0.6263(3) 0.1095(3) 0.3156(3)
H11 H -0.6231 0.1447 0.3462
C15 C -0.6796(3) 0.1003(3) 0.2658(3)
H12 H -0.7118 0.1300 0.2645
C16 C -0.4319(3) 0.0306(3) 0.4487(4)
H13 H -0.4104 -0.0051 0.4675
C17 C -0.4868(3) 0.0217(3) 0.4024(4)
H14 H -0.5016 -0.0187 0.3913
C18 C -0.5198(3) 0.0732(3) 0.3724(3)
C19 C -0.4961(4) 0.1304(3) 0.3953(4)
H15 H -0.5173 0.1668 0.3783
C20 C -0.4414(4) 0.1349(3) 0.4429(4)
H16 H -0.4275 0.1748 0.4580
C21 C -0.8569(3) 0.0348(3) 0.2574(3)
H17 H -0.8222 0.0205 0.2886
C22 C -0.9146(3) 0.0330(3) 0.2832(3)
H18 H -0.9185 0.0186 0.3310
C23 C -0.9680(3) 0.0530(3) 0.2372(3)
C24 C -0.9582(3) 0.0743(3) 0.1680(3)
H19 H -0.9923 0.0878 0.1352
C25 C -0.8982(3) 0.0758(4) 0.1469(3)
H20 H -0.8928 0.0916 0.1002
I1A I -0.61286(3) -0.14045(2) 0.07014(3)
Mo1A Mo -0.78475(2) 0.01756(2) -0.00410(2)
Cu1C Cu -0.18165(4) -0.41212(3) 0.97426(4)
Cu1A Cu -0.68165(4) 0.08788(3) -0.02574(4)
Cu1B Cu -0.81835(4) -0.41212(3) -0.47426(4)
Cu2C Cu -0.21456(4) 0.41087(3) 1.01048(4)
Cu2A Cu -0.71456(4) -0.08913(3) 0.01048(4)
Cu3A Cu -0.76195(3) 0.04295(3) 0.14125(3)
Cu3_2 Cu -1.23805(3) 0.04295(3) 0.35875(3)
S1A S -0.70842(8) -0.00967(6) -0.07495(7)
S2A S -0.75953(8) 0.11328(6) 0.04642(7)
S3A S -0.78339(8) -0.05378(7) 0.08904(8)
O1A O -0.8573(2) 0.0188(2) -0.0549(2)
N2C N -0.1818(3) -0.3526(2) 0.8830(2)
N2A N -0.6818(3) 0.1474(2) -0.1170(2)
N2B N -0.8182(3) -0.3526(2) -0.3830(2)
N3C N -0.2432(3) -0.1616(2) 0.5640(2)
N3B N -0.7568(3) -0.1616(2) -0.0640(2)
N4A N -0.3124(2) 0.0514(2) 0.2808(2)
N5A N -0.5930(2) 0.0859(2) 0.0313(3)
N6A N -0.1532(2) 0.0556(2) 0.3097(2)
N6A_2 N -1.1532(2) 0.0556(2) 0.3097(2)
C1C C -0.1731(4) -0.2908(3) 0.8862(3)
C1B C -0.8269(4) -0.2908(3) -0.3862(3)
H1C H -0.1609 -0.2727 0.9323
H1B H -0.8391 -0.2727 -0.4323
C2C C -0.1812(4) -0.2521(3) 0.8247(3)
C2B C -0.8188(4) -0.2521(3) -0.3247(3)
H2C H -0.1755 -0.2090 0.8301
H2B H -0.8245 -0.2090 -0.3301
C3C C -0.1979(3) -0.2776(3) 0.7550(3)
C3B C -0.8021(3) -0.2776(3) -0.2550(3)
C4C C -0.2061(4) -0.3426(3) 0.7518(3)
C4B C -0.7939(4) -0.3426(3) -0.2518(3)
H3C H -0.2170 -0.3623 0.7063
H3B H -0.7830 -0.3623 -0.2063
C5C C -0.1980(4) -0.3775(3) 0.8158(3)
C5B C -0.8020(4) -0.3775(3) -0.3158(3)
H4C H -0.2042 -0.4207 0.8123
H4B H -0.7958 -0.4207 -0.3123
C6C C -0.1933(3) -0.1496(3) 0.6132(3)
C6B C -0.8067(3) -0.1496(3) -0.1132(3)
H5C H -0.1687 -0.1146 0.6053
H5B H -0.8313 -0.1146 -0.1053
C7C C -0.1762(3) -0.1861(3) 0.6751(3)
C7B C -0.8238(3) -0.1861(3) -0.1751(3)
H6C H -0.1412 -0.1752 0.7081
H6B H -0.8588 -0.1752 -0.2081
C8C C -0.2108(3) -0.2383(2) 0.6878(3)
C8B C -0.7892(3) -0.2383(2) -0.1878(3)
C9C C -0.2611(3) -0.2528(3) 0.6346(3)
C9B C -0.7389(3) -0.2528(3) -0.1346(3)
H7C H -0.2846 -0.2891 0.6395
H7B H -0.7154 -0.2891 -0.1395
C10C C -0.2760(3) -0.2139(3) 0.5753(3)
C10B C -0.7240(3) -0.2139(3) -0.0753(3)
H8C H -0.3104 -0.2242 0.5411
H8B H -0.6896 -0.2242 -0.0411
C21A C -1.1431(3) 0.0348(3) 0.2426(3)
H17A H -1.1778 0.0205 0.2114
C22A C -1.0854(3) 0.0330(3) 0.2168(3)
H18A H -1.0815 0.0186 0.1690
C23A C -1.0320(3) 0.0530(3) 0.2628(3)
C24A C -1.0418(3) 0.0743(3) 0.3320(3)
H19A H -1.0077 0.0878 0.3648
C25A C -1.1018(3) 0.0758(4) 0.3531(3)
H20A H -1.1072 0.0916 0.3998
O2 O 0.4401(5) 0.2898(5) -0.0092(6)
N7 N 0.5178(6) 0.3544(5) 0.0268(5)
C26 C 0.5735(10) 0.3231(9) 0.0223(10)
H21 H 0.5912 0.3105 0.0712
H22 H 0.6028 0.3503 0.0010
H23 H 0.5658 0.2866 -0.0085
C27 C 0.5219(8) 0.4175(7) 0.0547(8)
H24 H 0.4803 0.4355 0.0517
H25 H 0.5479 0.4421 0.0255
H26 H 0.5404 0.4172 0.1055
C28 C 0.4553(13) 0.3399(12) 0.0159(12)
H27 H 0.4249 0.3685 0.0279
O3 O 0.0742(11) 0.2351(10) -0.3092(12)
N8 N 0.1192(7) 0.1999(6) -0.1956(7)
C29 C 0.1554(13) 0.2171(13) -0.1280(12)
H28 H 0.1306 0.2106 -0.0873
H29 H 0.1671 0.2606 -0.1300
H30 H 0.1929 0.1917 -0.1208
C30 C 0.1193(12) 0.1362(8) -0.2081(13)
H31 H 0.1422 0.1274 -0.2497
H32 H 0.0765 0.1216 -0.2185
H33 H 0.1393 0.1152 -0.1647
C31 C 0.0985(14) 0.2427(16) -0.2394(14)
H34 H 0.1004 0.2836 -0.2210
loop_
_geom_bond_atom_site_label_1
_geom_bond_atom_site_label_2
_geom_bond_site_symmetry_1
_geom_bond_site_symmetry_2
I1 Cu2 1_555 1_555
Mo1 Cu1 1_555 1_555
Cu1 S1 1_555 1_555
Cu2 Mo1 1_555 1_555
Cu3 Mo1 1_555 1_555
S1 Mo1 1_555 1_555
S2 Mo1 1_555 1_555
S3 Mo1 1_555 1_555
O1 Mo1 1_555 1_555
O2 C28 1_555 1_555
O3 C31 1_555 1_555
N2 Cu1 1_555 1_555
N3 C6 1_555 1_555
N4 C11 1_555 1_555
N5 Cu1 1_555 1_555
N6 C21 1_555 1_555
N7 C26 1_555 1_555
N8 C29 1_555 1_555
C1 N2 1_555 1_555
H1 C1 1_555 1_555
C2 C1 1_555 1_555
H2 C2 1_555 1_555
C3 C2 1_555 1_555
C4 C3 1_555 1_555
H3 C4 1_555 1_555
C5 N2 1_555 1_555
H4 C5 1_555 1_555
C6 H5 1_555 1_555
C7 C6 1_555 1_555
H6 C7 1_555 1_555
C8 C3 1_555 1_555
C9 C8 1_555 1_555
H7 C9 1_555 1_555
C10 N3 1_555 1_555
H8 C10 1_555 1_555
C11 H9 1_555 1_555
C12 C11 1_555 1_555
H10 C12 1_555 1_555
C13 C12 1_555 1_555
C14 C13 1_555 1_555
H11 C14 1_555 1_555
C15 N4 1_555 1_555
H12 C15 1_555 1_555
C16 N5 1_555 1_555
H13 C16 1_555 1_555
C17 C16 1_555 1_555
H14 C17 1_555 1_555
C18 C13 1_555 1_555
C19 C18 1_555 1_555
H15 C19 1_555 1_555
C20 N5 1_555 1_555
H16 C20 1_555 1_555
C21 H17 1_555 1_555
C22 C21 1_555 1_555
H18 C22 1_555 1_555
C23 C22 1_555 1_555
C24 C23 1_555 1_555
H19 C24 1_555 1_555
C25 N6 1_555 1_555
H20 C25 1_555 1_555
C26 H21 1_555 1_555
H22 C26 1_555 1_555
H23 C26 1_555 1_555
C27 N7 1_555 1_555
H24 C27 1_555 1_555
H25 C27 1_555 1_555
H26 C27 1_555 1_555
C28 N7 1_555 1_555
H27 C28 1_555 1_555
C29 H28 1_555 1_555
H29 C29 1_555 1_555
H30 C29 1_555 1_555
C30 N8 1_555 1_555
H31 C30 1_555 1_555
H32 C30 1_555 1_555
H33 C30 1_555 1_555
C31 N8 1_555 1_555
H34 C31 1_555 1_555
I1A Cu2A 1_555 1_555
Mo1A Cu1A 1_555 1_555
Cu1C N2C 1_555 1_555
Cu1A S1A 1_555 1_555
Cu1B N2B 1_555 1_555
Cu2C N3 1_555 1_555
Cu2A Mo1A 1_555 1_555
Cu3A N4 1_555 1_555
Cu3_2 N6A_2 1_555 1_555
S1A Mo1A 1_555 1_555
S2A Mo1A 1_555 1_555
S3A Mo1A 1_555 1_555
O1A Mo1A 1_555 1_555
N2C C1C 1_555 1_555
N2A Cu1A 1_555 1_555
N2B C1B 1_555 1_555
N3C Cu2 1_555 1_555
N3B Cu2A 1_555 1_555
N4A Cu3 1_555 1_555
N5A Cu1A 1_555 1_555
N6A Cu3 1_555 1_555
N6A_2 C21A 1_555 1_555
C1C H1C 1_555 1_555
C1B H1B 1_555 1_555
C2C C1C 1_555 1_555
C2B C1B 1_555 1_555
H2C C2C 1_555 1_555
H2B C2B 1_555 1_555
C3C C2C 1_555 1_555
C3B C2B 1_555 1_555
C4C C3C 1_555 1_555
C4B C3B 1_555 1_555
H3C C4C 1_555 1_555
H3B C4B 1_555 1_555
C5C N2C 1_555 1_555
C5B N2B 1_555 1_555
H4C C5C 1_555 1_555
H4B C5B 1_555 1_555
C6C N3C 1_555 1_555
C6B N3B 1_555 1_555
H5C C6C 1_555 1_555
H5B C6B 1_555 1_555
C7C C6C 1_555 1_555
C7B C6B 1_555 1_555
H6C C7C 1_555 1_555
H6B C7B 1_555 1_555
C8C C3C 1_555 1_555
C8B C3B 1_555 1_555
C9C C8C 1_555 1_555
C9B C8B 1_555 1_555
H7C C9C 1_555 1_555
H7B C9B 1_555 1_555
C10C N3C 1_555 1_555
C10B N3B 1_555 1_555
H8C C10C 1_555 1_555
H8B C10B 1_555 1_555
C21A H17A 1_555 1_555
C22A C21A 1_555 1_555
H18A C22A 1_555 1_555
C23A C23 1_555 1_555
C24A C23A 1_555 1_555
H19A C24A 1_555 1_555
C25A N6A_2 1_555 1_555
H20A C25A 1_555 1_555
Cu1 S2 1_555 1_555
Cu2 S1 1_555 1_555
Cu2 S3 1_555 1_555
Cu3 S2 1_555 1_555
Cu3 S3 1_555 1_555
N6 Cu3A 1_555 1_555
C4 C5 1_555 1_555
C7 C8 1_555 1_555
C9 C10 1_555 1_555
C14 C15 1_555 1_555
C17 C18 1_555 1_555
C19 C20 1_555 1_555
C24 C25 1_555 1_555
Mo1A Cu3A 1_555 1_555
Cu1A S2A 1_555 1_555
Cu2A S1A 1_555 1_555
Cu2A S3A 1_555 1_555
Cu3A S2A 1_555 1_555
Cu3A S3A 1_555 1_555
C4C C5C 1_555 1_555
C4B C5B 1_555 1_555
C7C C8C 1_555 1_555
C7B C8B 1_555 1_555
C9C C10C 1_555 1_555
C9B C10B 1_555 1_555
C22A C23A 1_555 1_555
C24A C25A 1_555 1_555

#END
