
#######################################################################
#
#                 Cambridge Crystallographic Data Centre
#                                CCDC 
#
#######################################################################
#
# If this CIF has been generated from an entry in the Cambridge 
# Structural Database, then it will include bibliographic, chemical, 
# crystal, experimental, refinement or atomic coordinate data resulting 
# from the CCDC's data processing and validation procedures.
#
#######################################################################

data_MATBEQ
_chemical_formula_moiety         '(C56 H54 Br2 Cu6 Mo2 N12 O4 S6)n'
_symmetry_cell_setting           monoclinic
_symmetry_space_group_name_H-M   'C 2/c'
_symmetry_Int_Tables_number      15
_space_group_name_Hall           '-C 2yc'
loop_
_symmetry_equiv_pos_site_id
_symmetry_equiv_pos_as_xyz
1 x,y,z
2 -x,y,1/2-z
3 1/2+x,1/2+y,z
4 1/2-x,1/2+y,1/2-z
5 -x,-y,-z
6 x,-y,1/2+z
7 1/2-x,1/2-y,-z
8 1/2+x,1/2-y,1/2+z
_cell_length_a                   21.263(2)
_cell_length_b                   21.2870(18)
_cell_length_c                   18.0287(17)
_cell_angle_alpha                90
_cell_angle_beta                 96.213(10)
_cell_angle_gamma                90
_cell_volume                     8112.32
loop_
_atom_site_label
_atom_site_type_symbol
_atom_site_fract_x
_atom_site_fract_y
_atom_site_fract_z
Mo1 Mo -0.28600(2) 0.51890(2) -0.00471(2)
Br1 Br -0.11849(3) 0.36440(3) 0.06987(4)
Cu1 Cu -0.26256(3) 0.54561(3) 0.14095(4)
Cu2 Cu -0.18244(3) 0.58808(3) -0.02769(4)
Cu3 Cu -0.21503(3) 0.41305(3) 0.01249(4)
S1 S -0.28450(7) 0.44841(7) 0.08981(8)
S2 S -0.25978(7) 0.61510(6) 0.04508(8)
S3 S -0.21006(7) 0.49048(6) -0.07581(8)
O1 O -0.35803(18) 0.5206(2) -0.0554(2)
N1 N -0.1882(2) 0.5534(2) 0.2197(3)
N2 N 0.0926(2) 0.5848(2) 0.4712(3)
N3 N -0.3473(2) 0.5590(2) 0.1900(3)
N4 N -0.3189(2) 0.1472(2) -0.3803(3)
N5 N -0.2572(2) 0.3390(2) -0.0601(2)
C1 C -0.1407(3) 0.5120(3) 0.2240(3)
H1 H -0.1446 0.4777 0.1920
C2 C -0.0865(3) 0.5167(3) 0.2725(4)
H2 H -0.0553 0.4861 0.2725
C3 C -0.0783(2) 0.5667(3) 0.3213(3)
C4 C -0.1276(2) 0.6102(3) 0.3191(3)
H3 H -0.1252 0.6443 0.3515
C5 C -0.1801(2) 0.6015(3) 0.2678(3)
H4 H -0.2123 0.6312 0.2666
C6 C 0.0696(3) 0.5293(3) 0.4490(4)
H5 H 0.0918 0.4935 0.4660
C7 C 0.0142(3) 0.5216(3) 0.4018(4)
H6 H 0.0002 0.4814 0.3880
C8 C -0.0202(3) 0.5733(3) 0.3753(3)
C9 C 0.0027(3) 0.6304(3) 0.4010(4)
H7 H -0.0196 0.6668 0.3869
C10 C 0.0581(3) 0.6343(3) 0.4472(4)
H8 H 0.0725 0.6740 0.4627
C11 C -0.3564(2) 0.5362(3) 0.2573(3)
H9 H -0.3219 0.5212 0.2882
C12 C -0.4157(2) 0.5344(3) 0.2820(3)
H10 H -0.4202 0.5187 0.3293
C13 C -0.4679(2) 0.5555(3) 0.2376(3)
C14 C -0.4584(3) 0.5774(3) 0.1674(3)
H11 H -0.4925 0.5905 0.1344
C15 C -0.3979(3) 0.5795(3) 0.1470(3)
H12 H -0.3921 0.5962 0.1005
C16 C -0.3287(3) 0.2089(3) -0.3836(3)
H13 H -0.3417 0.2271 -0.4297
C17 C -0.3203(3) 0.2472(3) -0.3208(4)
H14 H -0.3257 0.2904 -0.3259
C18 C -0.3041(3) 0.2220(3) -0.2513(3)
C19 C -0.2964(3) 0.1565(3) -0.2485(3)
H15 H -0.2863 0.1365 -0.2029
C20 C -0.3038(3) 0.1225(3) -0.3126(3)
H16 H -0.2980 0.0793 -0.3092
C21 C -0.3077(3) 0.3508(3) -0.1089(3)
H17 H -0.3319 0.3861 -0.1010
C22 C -0.3263(3) 0.3134(3) -0.1712(4)
H18 H -0.3618 0.3236 -0.2038
C23 C -0.2906(3) 0.2610(2) -0.1829(3)
C24 C -0.2393(3) 0.2475(3) -0.1310(3)
H19 H -0.2152 0.2117 -0.1362
C25 C -0.2243(3) 0.2876(3) -0.0715(3)
H20 H -0.1893 0.2782 -0.0377
Mo1A Mo 0.28600(2) 0.51890(2) 0.50471(2)
Br1A Br 0.11849(3) 0.36440(3) 0.43013(4)
Cu1A Cu 0.26256(3) 0.54561(3) 0.35905(4)
Cu1A_2 Cu -0.73744(3) 0.54561(3) 0.35905(4)
Cu2A Cu 0.18244(3) 0.58808(3) 0.52769(4)
Cu2C Cu -0.31756(3) 0.08808(3) -0.47231(4)
Cu2B Cu 0.31756(3) 0.08808(3) 0.97231(4)
Cu3A Cu 0.21503(3) 0.41305(3) 0.48751(4)
Cu3B Cu 0.28497(3) 0.91305(3) 1.01249(4)
S1A S 0.28450(7) 0.44841(7) 0.41019(8)
S2A S 0.25978(7) 0.61510(6) 0.45492(8)
S3A S 0.21006(7) 0.49048(6) 0.57581(8)
O1A O 0.35803(18) 0.5206(2) 0.5554(2)
N1A N 0.1882(2) 0.5534(2) 0.2803(3)
N2A N -0.0926(2) 0.5848(2) 0.0288(3)
N3A N -0.6527(2) 0.5590(2) 0.3100(3)
N3A_2 N 0.3473(2) 0.5590(2) 0.3100(3)
N4C N -0.1811(2) 0.6472(2) -0.1197(3)
N4B N 0.1811(2) 0.6472(2) 0.6197(3)
N4A N 0.3189(2) 0.1472(2) 0.8803(3)
N5A N 0.2572(2) 0.3390(2) 0.5601(2)
N5B N 0.2428(2) 0.8390(2) 0.9399(2)
C11A C -0.6436(2) 0.5362(3) 0.2427(3)
H9A H -0.6781 0.5212 0.2118
C12A C -0.5843(2) 0.5344(3) 0.2180(3)
H10A H -0.5798 0.5187 0.1707
C13A C -0.5321(2) 0.5555(3) 0.2624(3)
C14A C -0.5416(3) 0.5774(3) 0.3326(3)
H11A H -0.5075 0.5905 0.3656
C15A C -0.6021(3) 0.5795(3) 0.3530(3)
H12A H -0.6079 0.5962 0.3995
C16B C 0.1713(3) 0.7089(3) 0.6164(3)
C16A C 0.3287(3) 0.2089(3) 0.8836(3)
H13B H 0.1583 0.7271 0.5703
H13A H 0.3417 0.2271 0.9297
C17B C 0.1797(3) 0.7472(3) 0.6792(4)
C17A C 0.3203(3) 0.2472(3) 0.8208(4)
H14B H 0.1743 0.7904 0.6741
H14A H 0.3257 0.2904 0.8259
C18B C 0.1959(3) 0.7220(3) 0.7487(3)
C18A C 0.3041(3) 0.2220(3) 0.7513(3)
C19B C 0.2036(3) 0.6565(3) 0.7515(3)
C19A C 0.2964(3) 0.1565(3) 0.7485(3)
H15B H 0.2137 0.6365 0.7971
H15A H 0.2863 0.1365 0.7029
C20B C 0.1962(3) 0.6225(3) 0.6874(3)
C20A C 0.3038(3) 0.1225(3) 0.8126(3)
H16B H 0.2020 0.5793 0.6908
H16A H 0.2980 0.0793 0.8092
C21A C 0.3077(3) 0.3508(3) 0.6089(3)
C21B C 0.1923(3) 0.8508(3) 0.8911(3)
H17A H 0.3319 0.3861 0.6010
H17B H 0.1681 0.8861 0.8990
C22A C 0.3263(3) 0.3134(3) 0.6712(4)
C22B C 0.1737(3) 0.8134(3) 0.8288(4)
H18A H 0.3618 0.3236 0.7038
H18B H 0.1382 0.8236 0.7962
C23B C 0.2094(3) 0.7610(2) 0.8171(3)
C23A C 0.2906(3) 0.2610(2) 0.6829(3)
C24A C 0.2393(3) 0.2475(3) 0.6310(3)
C24B C 0.2607(3) 0.7475(3) 0.8690(3)
H19A H 0.2152 0.2117 0.6362
H19B H 0.2848 0.7117 0.8638
C25A C 0.2243(3) 0.2876(3) 0.5715(3)
C25B C 0.2757(3) 0.7876(3) 0.9285(3)
H20A H 0.1893 0.2782 0.5377
H20B H 0.3107 0.7782 0.9623
O2 O 0.5593(5) 0.2862(4) 0.5070(6)
N6 N 0.4812(4) 0.3567(5) 0.4709(5)
C26 C 0.5418(8) 0.3378(7) 0.4835(7)
H21 H 0.5729 0.3664 0.4734
C27 C 0.4283(7) 0.3225(8) 0.4759(10)
H22 H 0.4103 0.3107 0.4267
H23 H 0.3983 0.3472 0.4994
H24 H 0.4388 0.2855 0.5049
C28 C 0.4729(7) 0.4197(7) 0.4443(10)
H25 H 0.5134 0.4375 0.4376
H26 H 0.4531 0.4443 0.4800
H27 H 0.4466 0.4197 0.3975
O3 O 0.4256(9) 0.7302(9) 0.8102(13)
N7 N 0.3789(6) 0.7011(7) 0.6962(8)
C29 C 0.3830(9) 0.6367(11) 0.7153(12)
H28 H 0.3608 0.6292 0.7581
H29 H 0.4267 0.6252 0.7267
H30 H 0.3644 0.6119 0.6741
C30 C 0.3465(11) 0.7231(11) 0.6303(15)
H31 H 0.3739 0.7218 0.5913
H32 H 0.3332 0.7656 0.6372
H33 H 0.3101 0.6972 0.6168
C31 C 0.4051(14) 0.7478(19) 0.738(2)
H34 H 0.4093 0.7884 0.7196
loop_
_geom_bond_atom_site_label_1
_geom_bond_atom_site_label_2
_geom_bond_site_symmetry_1
_geom_bond_site_symmetry_2
Mo1 Cu1 1_555 1_555
Br1 Cu3 1_555 1_555
Cu1 S1 1_555 1_555
Cu2 Mo1 1_555 1_555
Cu3 Mo1 1_555 1_555
S1 Mo1 1_555 1_555
S2 Mo1 1_555 1_555
S3 Mo1 1_555 1_555
O1 Mo1 1_555 1_555
N1 Cu1 1_555 1_555
N2 C6 1_555 1_555
N3 Cu1 1_555 1_555
N4 C16 1_555 1_555
N5 Cu3 1_555 1_555
C1 N1 1_555 1_555
H1 C1 1_555 1_555
C2 C1 1_555 1_555
H2 C2 1_555 1_555
C3 C2 1_555 1_555
C4 C3 1_555 1_555
H3 C4 1_555 1_555
C5 N1 1_555 1_555
H4 C5 1_555 1_555
C6 H5 1_555 1_555
C7 C6 1_555 1_555
H6 C7 1_555 1_555
C8 C3 1_555 1_555
C9 C8 1_555 1_555
H7 C9 1_555 1_555
C10 N2 1_555 1_555
H8 C10 1_555 1_555
C11 N3 1_555 1_555
H9 C11 1_555 1_555
C12 C11 1_555 1_555
H10 C12 1_555 1_555
C13 C12 1_555 1_555
C14 C13 1_555 1_555
H11 C14 1_555 1_555
C15 N3 1_555 1_555
H12 C15 1_555 1_555
C16 H13 1_555 1_555
C17 C16 1_555 1_555
H14 C17 1_555 1_555
C18 C17 1_555 1_555
C19 C18 1_555 1_555
H15 C19 1_555 1_555
C20 N4 1_555 1_555
H16 C20 1_555 1_555
C21 N5 1_555 1_555
H17 C21 1_555 1_555
C22 C21 1_555 1_555
H18 C22 1_555 1_555
C23 C18 1_555 1_555
C24 C23 1_555 1_555
H19 C24 1_555 1_555
C25 N5 1_555 1_555
H20 C25 1_555 1_555
O2 C26 1_555 1_555
N6 C26 1_555 1_555
C26 H21 1_555 1_555
C27 N6 1_555 1_555
H22 C27 1_555 1_555
H23 C27 1_555 1_555
H24 C27 1_555 1_555
C28 N6 1_555 1_555
H25 C28 1_555 1_555
H26 C28 1_555 1_555
H27 C28 1_555 1_555
O3 C31 1_555 1_555
N7 C29 1_555 1_555
C29 H28 1_555 1_555
H29 C29 1_555 1_555
H30 C29 1_555 1_555
C30 N7 1_555 1_555
H31 C30 1_555 1_555
H32 C30 1_555 1_555
H33 C30 1_555 1_555
C31 N7 1_555 1_555
H34 C31 1_555 1_555
Mo1A Cu1A 1_555 1_555
Br1A Cu3A 1_555 1_555
Cu1A S1A 1_555 1_555
Cu1A_2 N3A 1_555 1_555
Cu2A N2 1_555 1_555
Cu2C N4 1_555 1_555
Cu2B N4A 1_555 1_555
Cu3A Mo1A 1_555 1_555
Cu3B N5B 1_555 1_555
S1A Mo1A 1_555 1_555
S2A Mo1A 1_555 1_555
S3A Mo1A 1_555 1_555
O1A Mo1A 1_555 1_555
N1A Cu1A 1_555 1_555
N2A Cu2 1_555 1_555
N3A C11A 1_555 1_555
N3A_2 Cu1A 1_555 1_555
N4C Cu2 1_555 1_555
N4B Cu2A 1_555 1_555
N4A C16A 1_555 1_555
N5A Cu3A 1_555 1_555
N5B C21B 1_555 1_555
C11A H9A 1_555 1_555
C12A C11A 1_555 1_555
H10A C12A 1_555 1_555
C13A C13 1_555 1_555
C14A C13A 1_555 1_555
H11A C14A 1_555 1_555
C15A N3A 1_555 1_555
H12A C15A 1_555 1_555
C16B N4B 1_555 1_555
C16A H13A 1_555 1_555
H13B C16B 1_555 1_555
C17B C16B 1_555 1_555
C17A C16A 1_555 1_555
H14B C17B 1_555 1_555
H14A C17A 1_555 1_555
C18B C17B 1_555 1_555
C18A C17A 1_555 1_555
C19B C18B 1_555 1_555
C19A C18A 1_555 1_555
H15B C19B 1_555 1_555
H15A C19A 1_555 1_555
C20B N4B 1_555 1_555
C20A N4A 1_555 1_555
H16B C20B 1_555 1_555
H16A C20A 1_555 1_555
C21A N5A 1_555 1_555
C21B H17B 1_555 1_555
H17A C21A 1_555 1_555
C22A C21A 1_555 1_555
C22B C21B 1_555 1_555
H18A C22A 1_555 1_555
H18B C22B 1_555 1_555
C23B C18B 1_555 1_555
C23A C18A 1_555 1_555
C24A C23A 1_555 1_555
C24B C23B 1_555 1_555
H19A C24A 1_555 1_555
H19B C24B 1_555 1_555
C25A N5A 1_555 1_555
C25B N5B 1_555 1_555
H20A C25A 1_555 1_555
H20B C25B 1_555 1_555
Cu1 S2 1_555 1_555
Cu2 S2 1_555 1_555
Cu2 S3 1_555 1_555
Cu3 S1 1_555 1_555
Cu3 S3 1_555 1_555
C4 C5 1_555 1_555
C7 C8 1_555 1_555
C9 C10 1_555 1_555
C14 C15 1_555 1_555
C19 C20 1_555 1_555
C22 C23 1_555 1_555
C24 C25 1_555 1_555
Mo1A Cu2A 1_555 1_555
Cu1A S2A 1_555 1_555
Cu2A S2A 1_555 1_555
Cu2A S3A 1_555 1_555
Cu3A S1A 1_555 1_555
Cu3A S3A 1_555 1_555
C12A C13A 1_555 1_555
C14A C15A 1_555 1_555
C19B C20B 1_555 1_555
C19A C20A 1_555 1_555
C22A C23A 1_555 1_555
C22B C23B 1_555 1_555
C24A C25A 1_555 1_555
C24B C25B 1_555 1_555

#END
