
#######################################################################
#
#                 Cambridge Crystallographic Data Centre
#                                CCDC 
#
#######################################################################
#
# If this CIF has been generated from an entry in the Cambridge 
# Structural Database, then it will include bibliographic, chemical, 
# crystal, experimental, refinement or atomic coordinate data resulting 
# from the CCDC's data processing and validation procedures.
#
#######################################################################

data_LIWXOG
_chemical_formula_moiety         'C20 H12 Ag8 F11 N12 O11 S6'
_symmetry_cell_setting           monoclinic
_symmetry_space_group_name_H-M   'C 2/c'
_symmetry_Int_Tables_number      15
_space_group_name_Hall           '-C 2yc'
loop_
_symmetry_equiv_pos_site_id
_symmetry_equiv_pos_as_xyz
1 x,y,z
2 -x,y,1/2-z
3 1/2+x,1/2+y,z
4 1/2-x,1/2+y,1/2-z
5 -x,-y,-z
6 x,-y,1/2+z
7 1/2-x,1/2-y,-z
8 1/2+x,1/2-y,1/2+z
_cell_length_a                   22.2549(4)
_cell_length_b                   9.4868(2)
_cell_length_c                   15.7184(3)
_cell_angle_alpha                90
_cell_angle_beta                 91.4760(10)
_cell_angle_gamma                90
_cell_volume                     3317.49
loop_
_atom_site_label
_atom_site_type_symbol
_atom_site_fract_x
_atom_site_fract_y
_atom_site_fract_z
Ag1 Ag 0.5000 0.42475(3) 0.2500
Ag2 Ag 0.329651(8) 0.18669(2) 0.608419(11)
S1 S 0.28822(2) 0.14533(7) 0.41815(3)
S2 S 0.64977(2) 0.38777(6) 0.39572(4)
S3 S 0.47820(6) 0.22785(17) 0.74559(9)
F1 F 0.59794(9) 0.2834(2) 0.52816(11)
F2 F 0.60332(11) 0.1403(2) 0.42305(16)
F3 F 0.68166(10) 0.1858(2) 0.50011(14)
F4 F 0.5000 -0.0400(4) 0.7500
F5 F 0.5276(3) 0.0345(5) 0.6431(4)
F6 F 0.5319(4) 0.1589(7) 0.7364(5)
N1 N 0.38349(8) 0.2378(2) 0.49531(11)
N2 N 0.44131(8) 0.3456(2) 0.35557(11)
N3 N 0.21553(8) 0.16399(19) 0.28465(11)
N4 N 0.28255(8) -0.0088(2) 0.18023(11)
O1 O 0.59241(8) 0.4311(2) 0.36201(12)
O2 O 0.68889(8) 0.3288(2) 0.33487(11)
O3 O 0.67756(8) 0.48725(19) 0.45325(11)
O4 O 0.51472(18) 0.3105(4) 0.6855(2)
O5 O 0.42506(14) 0.1519(7) 0.7061(3)
C1 C 0.35895(9) 0.2270(2) 0.41622(12)
C2 C 0.38768(9) 0.2830(2) 0.34679(13)
H1 H 0.3693 0.2769 0.2931
C3 C 0.46518(11) 0.3544(3) 0.43402(15)
H2 H 0.5023 0.3979 0.4421
C4 C 0.43648(10) 0.3010(3) 0.50346(15)
H3 H 0.4546 0.3093 0.5572
C5 C 0.26849(9) 0.1107(2) 0.31029(13)
C6 C 0.30153(10) 0.0232(2) 0.25929(13)
H4 H 0.3376 -0.0142 0.2802
C7 C 0.23048(11) 0.0458(3) 0.15353(14)
H5 H 0.2165 0.0272 0.0984
C8 C 0.19676(11) 0.1295(3) 0.20592(14)
H6 H 0.1598 0.1629 0.1858
C9 C 0.63243(14) 0.2410(3) 0.4653(2)
C10 C 0.4926(4) 0.0638(6) 0.7017(5)
S3A S 0.52180(6) 0.22785(17) 0.75441(9)
F5A F 0.4724(3) 0.0345(5) 0.8569(4)
F6A F 0.4681(4) 0.1589(7) 0.7636(5)
O4A O 0.48528(18) 0.3105(4) 0.8145(2)
O5A O 0.57494(14) 0.1519(7) 0.7939(3)
C10A C 0.5074(4) 0.0638(6) 0.7983(5)
Ag2A Ag 0.670349(8) 0.18669(2) -0.108419(11)
S1A S 0.71178(2) 0.14533(7) 0.08185(3)
S2A S 0.35023(2) 0.38777(6) 0.10428(4)
F1A F 0.40206(9) 0.2834(2) -0.02816(11)
F2A F 0.39668(11) 0.1403(2) 0.07695(16)
F3A F 0.31834(10) 0.1858(2) -0.00011(14)
N1A N 0.61651(8) 0.2378(2) 0.00469(11)
N2A N 0.55869(8) 0.3456(2) 0.14443(11)
N3A N 0.78447(8) 0.16399(19) 0.21535(11)
N4A N 0.71745(8) -0.0088(2) 0.31977(11)
O1A O 0.40759(8) 0.4311(2) 0.13799(12)
O2A O 0.31111(8) 0.3288(2) 0.16513(11)
O3A O 0.32244(8) 0.48725(19) 0.04675(11)
C1A C 0.64105(9) 0.2270(2) 0.08378(12)
C2A C 0.61232(9) 0.2830(2) 0.15321(13)
H1A H 0.6307 0.2769 0.2069
C3A C 0.53482(11) 0.3544(3) 0.06598(15)
H2A H 0.4977 0.3979 0.0579
C4A C 0.56352(10) 0.3010(3) -0.00346(15)
H3A H 0.5454 0.3093 -0.0572
C5A C 0.73151(9) 0.1107(2) 0.18971(13)
C6A C 0.69847(10) 0.0232(2) 0.24071(13)
H4A H 0.6624 -0.0142 0.2198
C7A C 0.76952(11) 0.0458(3) 0.34647(14)
H5A H 0.7835 0.0272 0.4016
C8A C 0.80324(11) 0.1295(3) 0.29408(14)
H6A H 0.8402 0.1629 0.3142
C9A C 0.36757(14) 0.2410(3) 0.0347(2)
Ag2A_2 Ag 0.670349(8) 0.18669(2) 0.891581(11)
Ag2D Ag 0.670349(8) -0.18669(2) 0.391581(11)
Ag2E Ag 0.329651(8) -0.18669(2) 0.108419(11)
Ag2F Ag 0.170349(8) 0.31331(2) 0.391581(11)
Ag2G Ag 0.829651(8) 0.31331(2) 0.108419(11)
N3F N 0.28447(8) 0.33601(19) 0.71535(11)
N3G N 0.71553(8) 0.33601(19) -0.21535(11)
N4D N 0.71745(8) 0.0088(2) -0.18023(11)
N4E N 0.28255(8) 0.0088(2) 0.68023(11)
O5A_2 O 0.57494(14) 0.1519(7) -0.2061(3)
loop_
_geom_bond_atom_site_label_1
_geom_bond_atom_site_label_2
_geom_bond_site_symmetry_1
_geom_bond_site_symmetry_2
Ag1 N2 1_555 1_555
Ag2 N1 1_555 1_555
S1 C1 1_555 1_555
S2 O1 1_555 1_555
S3 F6 1_555 1_555
F1 C9 1_555 1_555
F2 C9 1_555 1_555
F3 C9 1_555 1_555
F4 C10 1_555 1_555
F5 C10 1_555 1_555
F6 O4 1_555 1_555
N1 C1 1_555 1_555
N2 C2 1_555 1_555
N3 C5 1_555 1_555
N4 C6 1_555 1_555
O1 Ag1 1_555 1_555
O2 S2 1_555 1_555
O3 S2 1_555 1_555
O4 S3 1_555 1_555
O5 Ag2 1_555 1_555
C1 C2 1_555 1_555
C2 H1 1_555 1_555
C3 N2 1_555 1_555
H2 C3 1_555 1_555
C4 N1 1_555 1_555
H3 C4 1_555 1_555
C5 S1 1_555 1_555
C6 C5 1_555 1_555
H4 C6 1_555 1_555
C7 N4 1_555 1_555
H5 C7 1_555 1_555
C8 N3 1_555 1_555
H6 C8 1_555 1_555
C9 S2 1_555 1_555
C10 F6 1_555 1_555
S3A S3 1_555 1_555
F5A C10A 1_555 1_555
F6A S3 1_555 1_555
O4A S3 1_555 1_555
O5A F6 1_555 1_555
C10A F4 1_555 1_555
Ag2A N1A 1_555 1_555
S1A C1A 1_555 1_555
S2A O1A 1_555 1_555
F1A C9A 1_555 1_555
F2A C9A 1_555 1_555
F3A C9A 1_555 1_555
N1A C1A 1_555 1_555
N2A Ag1 1_555 1_555
N3A C5A 1_555 1_555
N4A C6A 1_555 1_555
O1A Ag1 1_555 1_555
O2A S2A 1_555 1_555
O3A S2A 1_555 1_555
C1A C2A 1_555 1_555
C2A N2A 1_555 1_555
H1A C2A 1_555 1_555
C3A N2A 1_555 1_555
H2A C3A 1_555 1_555
C4A N1A 1_555 1_555
H3A C4A 1_555 1_555
C5A S1A 1_555 1_555
C6A C5A 1_555 1_555
H4A C6A 1_555 1_555
C7A N4A 1_555 1_555
H5A C7A 1_555 1_555
C8A N3A 1_555 1_555
H6A C8A 1_555 1_555
C9A S2A 1_555 1_555
Ag2A_2 O5A 1_555 1_555
Ag2D N4A 1_555 1_555
Ag2E N4 1_555 1_555
Ag2F N3 1_555 1_555
Ag2G N3A 1_555 1_555
N3F Ag2 1_555 1_555
N3G Ag2A 1_555 1_555
N4D Ag2A 1_555 1_555
N4E Ag2 1_555 1_555
O5A_2 Ag2A 1_555 1_555
S3 O5 1_555 1_555
F6 S3A 1_555 1_555
F6 F6A 1_555 1_555
F6 C10A 1_555 1_555
O4 S3A 1_555 1_555
O5 C10 1_555 1_555
O5 F6A 1_555 1_555
C3 C4 1_555 1_555
C7 C8 1_555 1_555
C10 F6A 1_555 1_555
C10 C10A 1_555 1_555
S3A F6A 1_555 1_555
S3A O4A 1_555 1_555
S3A O5A 1_555 1_555
F6A O4A 1_555 1_555
F6A C10A 1_555 1_555
O5A C10A 1_555 1_555
C3A C4A 1_555 1_555
C7A C8A 1_555 1_555

#END
