
#######################################################################
#
#                 Cambridge Crystallographic Data Centre
#                                CCDC 
#
#######################################################################
#
# If this CIF has been generated from an entry in the Cambridge 
# Structural Database, then it will include bibliographic, chemical, 
# crystal, experimental, refinement or atomic coordinate data resulting 
# from the CCDC's data processing and validation procedures.
#
#######################################################################

data_YEKWOC
_chemical_formula_moiety         '(C72 H71 Eu3 N6 O28)n'
_symmetry_cell_setting           monoclinic
_symmetry_space_group_name_H-M   'P 21/c'
_symmetry_Int_Tables_number      14
_space_group_name_Hall           '-P 2ybc'
loop_
_symmetry_equiv_pos_site_id
_symmetry_equiv_pos_as_xyz
1 x,y,z
2 -x,1/2+y,1/2-z
3 -x,-y,-z
4 x,1/2-y,1/2+z
_cell_length_a                   14.5758(13)
_cell_length_b                   23.245(2)
_cell_length_c                   24.815(2)
_cell_angle_alpha                90
_cell_angle_beta                 102.904(6)
_cell_angle_gamma                90
_cell_volume                     8195.35
loop_
_atom_site_label
_atom_site_type_symbol
_atom_site_fract_x
_atom_site_fract_y
_atom_site_fract_z
Eu1 Eu 0.24375(4) -0.74288(3) 0.22878(3)
Eu2 Eu -0.26339(4) -0.26554(3) -0.07082(3)
Eu3 Eu -0.76125(5) -0.78210(3) -0.10669(3)
O1 O -0.1912(6) -0.3510(4) -0.0147(4)
O2 O -0.3177(6) -0.3641(4) -0.0799(4)
O3 O -0.6699(7) -0.7266(4) -0.0080(4)
O4 O -0.6042(6) -0.7915(4) -0.0512(4)
O5 O 0.1616(5) -0.7078(4) 0.1339(4)
O6 O 0.0800(6) -0.7640(5) 0.1763(4)
O7 O 0.1432(6) -0.6761(4) 0.2565(5)
O8 O 0.0949(7) -0.6946(5) 0.3347(4)
O9 O -0.2103(6) -0.2969(4) 0.1959(4)
O10 O -0.3185(7) -0.3062(4) 0.1190(4)
O11 O -0.6432(5) -0.7249(4) 0.1651(4)
O12 O -0.6750(6) -0.6529(4) 0.2167(4)
O13 O 0.2332(7) -0.8209(4) 0.1095(5)
O14 O 0.2712(6) -0.8381(4) 0.1991(4)
O15 O 0.5939(6) -1.2555(4) 0.2176(4)
O16 O 0.6702(6) -1.1955(5) 0.1745(4)
O17 O -0.1754(6) -1.1821(5) 0.0351(4)
O18 O -0.1121(7) -1.2355(5) -0.0207(4)
N1 N -0.2545(7) -0.6203(5) 0.0191(5)
N2 N 0.2529(7) -1.0943(5) 0.0973(5)
N3 N -0.2699(7) -0.5705(5) 0.1889(5)
C1 C -0.2561(9) -0.5619(6) 0.0046(6)
C2 C -0.1900(10) -0.5227(7) 0.0361(6)
H1 H -0.1447 -0.5359 0.0661
C3 C -0.1933(9) -0.4660(7) 0.0222(6)
H2 H -0.1506 -0.4409 0.0437
C4 C -0.2586(9) -0.4439(6) -0.0234(6)
C5 C -0.3248(10) -0.4825(7) -0.0533(7)
H3 H -0.3709 -0.4688 -0.0827
C6 C -0.3233(10) -0.5403(7) -0.0404(8)
H4 H -0.3671 -0.5650 -0.0617
C7 C -0.2561(9) -0.3840(6) -0.0398(6)
C8 C -0.4168(9) -0.6329(7) 0.0300(6)
H5 H -0.4106 -0.5993 0.0509
C9 C -0.4981(10) -0.6626(7) 0.0201(7)
H6 H -0.5487 -0.6486 0.0333
C10 C -0.5079(8) -0.7126(7) -0.0087(6)
C11 C -0.4325(9) -0.7343(7) -0.0275(6)
H7 H -0.4382 -0.7694 -0.0460
C12 C -0.3490(9) -0.7044(7) -0.0188(7)
H8 H -0.2977 -0.7184 -0.0313
C13 C -0.3443(9) -0.6522(6) 0.0094(6)
C14 C -0.5985(9) -0.7473(7) -0.0231(6)
C15 C -0.1696(9) -0.6495(6) 0.0465(6)
C16 C -0.1741(9) -0.6933(7) 0.0837(6)
H9 H -0.2324 -0.7045 0.0895
C17 C -0.0935(8) -0.7209(6) 0.1126(6)
H10 H -0.0989 -0.7506 0.1368
C18 C -0.0057(9) -0.7051(7) 0.1061(6)
C19 C -0.0018(9) -0.6638(7) 0.0657(6)
H11 H 0.0565 -0.6543 0.0588
C20 C -0.0830(8) -0.6359(6) 0.0348(6)
H12 H -0.0787 -0.6093 0.0075
C21 C 0.0836(9) -0.7280(7) 0.1389(6)
C22 C -0.1845(8) -0.5998(6) 0.2141(6)
C23 C -0.1065(9) -0.5928(7) 0.1896(6)
H13 H -0.1134 -0.5710 0.1575
C24 C -0.0212(10) -0.6172(7) 0.2118(7)
H14 H 0.0295 -0.6120 0.1953
C25 C -0.0116(8) -0.6499(6) 0.2596(6)
C26 C -0.0880(10) -0.6585(7) 0.2838(6)
H15 H -0.0817 -0.6812 0.3153
C27 C -0.1750(9) -0.6325(8) 0.2600(6)
H16 H -0.2262 -0.6378 0.2761
C28 C 0.0837(10) -0.6755(7) 0.2856(7)
C29 C -0.2654(8) -0.5109(6) 0.1796(6)
C30 C -0.3253(9) -0.4851(7) 0.1359(6)
H17 H -0.3660 -0.5076 0.1101
C31 C -0.3261(10) -0.4252(6) 0.1299(6)
H18 H -0.3693 -0.4079 0.1012
C32 C -0.2627(9) -0.3917(6) 0.1666(6)
C33 C -0.1977(10) -0.4183(7) 0.2092(6)
H19 H -0.1531 -0.3966 0.2335
C34 C -0.2011(10) -0.4776(7) 0.2146(6)
H20 H -0.1580 -0.4953 0.2431
C35 C -0.2648(9) -0.3282(7) 0.1591(6)
C36 C -0.3579(8) -0.5979(6) 0.1888(6)
C37 C -0.4305(8) -0.5654(6) 0.2043(6)
H21 H -0.4211 -0.5270 0.2144
C38 C -0.5140(9) -0.5915(7) 0.2039(6)
H22 H -0.5617 -0.5709 0.2145
C39 C -0.5289(8) -0.6483(6) 0.1879(5)
C40 C -0.4564(8) -0.6778(6) 0.1722(6)
H23 H -0.4667 -0.7157 0.1602
C41 C -0.3728(9) -0.6543(6) 0.1735(6)
H24 H -0.3250 -0.6759 0.1640
C42 C -0.6215(9) -0.6760(7) 0.1884(6)
C43 C 0.2565(9) -1.0340(7) 0.1094(6)
C44 C 0.2952(10) -1.0137(7) 0.1632(6)
H25 H 0.3219 -1.0400 0.1905
C45 C 0.2948(9) -0.9564(6) 0.1766(6)
H26 H 0.3202 -0.9444 0.2126
C46 C 0.2567(9) -0.9167(6) 0.1366(6)
C47 C 0.2191(10) -0.9355(6) 0.0834(7)
H27 H 0.1929 -0.9087 0.0564
C48 C 0.2195(10) -0.9936(6) 0.0692(6)
H28 H 0.1951 -1.0051 0.0329
C49 C 0.2541(9) -0.8542(6) 0.1505(7)
C50 C 0.3342(8) -1.1267(6) 0.1173(6)
C51 C 0.3341(8) -1.1779(6) 0.1439(6)
H29 H 0.2776 -1.1937 0.1483
C52 C 0.4187(9) -1.2067(7) 0.1646(6)
H30 H 0.4179 -1.2415 0.1830
C53 C 0.5037(8) -1.1844(6) 0.1581(6)
C54 C 0.5039(10) -1.1336(7) 0.1301(6)
H31 H 0.5605 -1.1187 0.1249
C55 C 0.4210(9) -1.1042(6) 0.1092(6)
H32 H 0.4219 -1.0699 0.0900
C56 C 0.5927(9) -1.2162(6) 0.1835(6)
C57 C 0.1644(9) -1.1204(6) 0.0766(6)
C58 C 0.0841(9) -1.0974(6) 0.0892(6)
H33 H 0.0878 -1.0646 0.1110
C59 C -0.0029(9) -1.1242(7) 0.0685(6)
H34 H -0.0567 -1.1077 0.0761
C60 C -0.0122(9) -1.1728(6) 0.0382(6)
C61 C 0.0706(9) -1.1943(7) 0.0256(7)
H35 H 0.0674 -1.2269 0.0035
C62 C 0.1552(9) -1.1687(6) 0.0448(6)
H36 H 0.2085 -1.1846 0.0360
C63 C -0.1079(10) -1.1974(6) 0.0167(6)
O19 O -0.7440(7) -0.8870(5) -0.1098(5)
O20 O -0.8643(7) -0.7040(5) -0.0883(4)
O21 O -0.4043(7) -0.2005(6) -0.0787(5)
Eu1A Eu -0.24375(4) -0.24288(3) 0.27122(3)
Eu1_2 Eu -0.75625(4) -0.74288(3) 0.22878(3)
Eu1A_2 Eu 0.75625(4) -1.24288(3) 0.27122(3)
Eu2B Eu -0.73661(4) -0.73446(3) 0.07082(3)
Eu2B_2 Eu 0.26339(4) -0.73446(3) 0.07082(3)
Eu2_2 Eu -0.26339(4) -1.26554(3) -0.07082(3)
Eu3C Eu 0.23875(5) -0.71790(3) 0.39331(3)
Eu3B Eu -0.23875(5) -0.21790(3) 0.10669(3)
Eu3B_2 Eu 0.76125(5) -1.21790(3) 0.10669(3)
Eu3B_3 Eu -0.23875(5) -1.21790(3) 0.10669(3)
O3B O -0.3301(7) -0.2734(4) 0.0080(4)
O5B O -0.1616(5) -0.2922(4) -0.1339(4)
O8C O -0.9051(7) -0.8054(5) -0.1653(4)
O9A O 0.2103(6) -0.7969(4) 0.3041(4)
O9B O -0.7897(6) -0.7031(4) -0.1959(4)
O10B O -0.6815(7) -0.6938(4) -0.1190(4)
O11_2 O 0.3568(5) -0.7249(4) 0.1651(4)
O11B O -0.3568(5) -0.2751(4) -0.1651(4)
O12_2 O 0.3250(6) -0.6529(4) 0.2167(4)
O13B O -0.2332(7) -0.1791(4) -0.1095(5)
O15A O 0.4061(6) -0.7555(4) 0.2824(4)
O16A O 0.3298(6) -0.6955(5) 0.3255(4)
O16B O -0.6702(6) -0.8045(5) -0.1745(4)
O17B O -0.8246(6) -0.8179(5) -0.0351(4)
O18_2 O -0.1121(7) -0.2355(5) -0.0207(4)
C64 C -0.064(3) 0.080(2) 0.0732(19)
H37 H -0.0197 0.1112 0.0839
H38 H -0.1257 0.0956 0.0606
H39 H -0.0464 0.0586 0.0439
C65 C 0.000(3) 0.054(2) 0.1685(18)
H40 H 0.0364 0.0876 0.1659
H41 H 0.0409 0.0213 0.1778
H42 H -0.0352 0.0593 0.1967
C66 C -0.118(3) -0.0051(18) 0.1244(16)
H43 H -0.1153 -0.0255 0.1570
O22 O -0.1748(13) -0.0170(9) 0.0762(8)
N4 N -0.062(2) 0.0441(15) 0.1187(14)
N5 N -0.1252(16) -0.0027(11) 0.3441(10)
O23 O -0.160(2) 0.0068(15) 0.2520(13)
C67 C -0.1880(16) -0.0495(12) 0.3434(10)
H44 H -0.2217 -0.0566 0.3062
H45 H -0.2319 -0.0402 0.3658
H46 H -0.1531 -0.0832 0.3579
C68 C -0.076(2) 0.0119(17) 0.3979(13)
H47 H -0.0362 0.0443 0.3963
H48 H -0.0389 -0.0202 0.4143
H49 H -0.1207 0.0217 0.4199
C69 C -0.101(2) 0.0202(15) 0.2953(14)
H50 H -0.0482 0.0424 0.2957
C70 C 0.416(4) -0.433(2) 0.2447(19)
H51 H 0.4078 -0.4315 0.2820
H52 H 0.4490 -0.4671 0.2393
H53 H 0.3554 -0.4324 0.2196
N6 N 0.461(2) -0.3908(17) 0.2361(15)
C71 C 0.486(3) -0.3543(19) 0.2677(16)
H54 H 0.5045 -0.3204 0.2534
C72 C 0.478(3) -0.3880(18) 0.1890(15)
H55 H 0.5128 -0.3534 0.1861
H56 H 0.4203 -0.3876 0.1615
H57 H 0.5150 -0.4207 0.1832
O24 O 0.492(3) -0.355(2) 0.325(2)
O25 O -0.2978(10) -0.0624(7) 0.2006(6)
O26 O 0.044(2) -0.3277(17) 0.1431(14)
O27 O 0.049(3) -0.321(3) 0.243(2)
O28 O 0.448(3) -0.913(2) 0.025(2)
loop_
_geom_bond_atom_site_label_1
_geom_bond_atom_site_label_2
_geom_bond_site_symmetry_1
_geom_bond_site_symmetry_2
Eu1 O5 1_555 1_555
Eu2 O1 1_555 1_555
Eu3 O3 1_555 1_555
O1 C7 1_555 1_555
O2 Eu2 1_555 1_555
O3 C14 1_555 1_555
O4 Eu3 1_555 1_555
O5 C21 1_555 1_555
O6 Eu1 1_555 1_555
O7 Eu1 1_555 1_555
O8 C28 1_555 1_555
O9 C35 1_555 1_555
O10 C35 1_555 1_555
O11 C42 1_555 1_555
O12 C42 1_555 1_555
O13 C49 1_555 1_555
O14 Eu1 1_555 1_555
O15 C56 1_555 1_555
O16 C56 1_555 1_555
O17 C63 1_555 1_555
O18 C63 1_555 1_555
N1 C1 1_555 1_555
N2 C43 1_555 1_555
N3 C22 1_555 1_555
C1 C2 1_555 1_555
C2 H1 1_555 1_555
C3 C2 1_555 1_555
H2 C3 1_555 1_555
C4 C3 1_555 1_555
C5 C4 1_555 1_555
H3 C5 1_555 1_555
C6 C1 1_555 1_555
H4 C6 1_555 1_555
C7 O2 1_555 1_555
C8 H5 1_555 1_555
C9 C8 1_555 1_555
H6 C9 1_555 1_555
C10 C9 1_555 1_555
C11 C10 1_555 1_555
H7 C11 1_555 1_555
C12 C11 1_555 1_555
H8 C12 1_555 1_555
C13 N1 1_555 1_555
C14 O4 1_555 1_555
C15 N1 1_555 1_555
C16 C15 1_555 1_555
H9 C16 1_555 1_555
C17 C16 1_555 1_555
H10 C17 1_555 1_555
C18 C17 1_555 1_555
C19 C18 1_555 1_555
H11 C19 1_555 1_555
C20 C15 1_555 1_555
H12 C20 1_555 1_555
C21 O6 1_555 1_555
C22 C23 1_555 1_555
C23 H13 1_555 1_555
C24 C23 1_555 1_555
H14 C24 1_555 1_555
C25 C24 1_555 1_555
C26 C25 1_555 1_555
H15 C26 1_555 1_555
C27 C22 1_555 1_555
H16 C27 1_555 1_555
C28 O7 1_555 1_555
C29 N3 1_555 1_555
C30 C29 1_555 1_555
H17 C30 1_555 1_555
C31 C30 1_555 1_555
H18 C31 1_555 1_555
C32 C31 1_555 1_555
C33 C32 1_555 1_555
H19 C33 1_555 1_555
C34 C29 1_555 1_555
H20 C34 1_555 1_555
C35 C32 1_555 1_555
C36 N3 1_555 1_555
C37 C36 1_555 1_555
H21 C37 1_555 1_555
C38 C37 1_555 1_555
H22 C38 1_555 1_555
C39 C38 1_555 1_555
C40 C39 1_555 1_555
H23 C40 1_555 1_555
C41 C36 1_555 1_555
H24 C41 1_555 1_555
C42 C39 1_555 1_555
C43 C44 1_555 1_555
C44 H25 1_555 1_555
C45 C44 1_555 1_555
H26 C45 1_555 1_555
C46 C45 1_555 1_555
C47 C46 1_555 1_555
H27 C47 1_555 1_555
C48 C43 1_555 1_555
H28 C48 1_555 1_555
C49 O14 1_555 1_555
C50 N2 1_555 1_555
C51 C50 1_555 1_555
H29 C51 1_555 1_555
C52 C51 1_555 1_555
H30 C52 1_555 1_555
C53 C52 1_555 1_555
C54 C53 1_555 1_555
H31 C54 1_555 1_555
C55 C50 1_555 1_555
H32 C55 1_555 1_555
C56 C53 1_555 1_555
C57 N2 1_555 1_555
C58 C57 1_555 1_555
H33 C58 1_555 1_555
C59 C58 1_555 1_555
H34 C59 1_555 1_555
C60 C59 1_555 1_555
C61 C60 1_555 1_555
H35 C61 1_555 1_555
C62 C57 1_555 1_555
H36 C62 1_555 1_555
C63 C60 1_555 1_555
O19 Eu3 1_555 1_555
O20 Eu3 1_555 1_555
O21 Eu2 1_555 1_555
C64 H37 1_555 1_555
H38 C64 1_555 1_555
H39 C64 1_555 1_555
C65 H40 1_555 1_555
H41 C65 1_555 1_555
H42 C65 1_555 1_555
C66 H43 1_555 1_555
O22 C66 1_555 1_555
N4 C64 1_555 1_555
N5 C67 1_555 1_555
O23 C69 1_555 1_555
C67 H44 1_555 1_555
H45 C67 1_555 1_555
H46 C67 1_555 1_555
C68 N5 1_555 1_555
H47 C68 1_555 1_555
H48 C68 1_555 1_555
H49 C68 1_555 1_555
C69 N5 1_555 1_555
H50 C69 1_555 1_555
C70 H51 1_555 1_555
H52 C70 1_555 1_555
H53 C70 1_555 1_555
N6 C70 1_555 1_555
C71 N6 1_555 1_555
H54 C71 1_555 1_555
C72 N6 1_555 1_555
H55 C72 1_555 1_555
H56 C72 1_555 1_555
H57 C72 1_555 1_555
O24 C71 1_555 1_555
Eu1A O9 1_555 1_555
Eu1_2 O11 1_555 1_555
Eu1A_2 O15 1_555 1_555
Eu2B O3 1_555 1_555
Eu2B_2 O5 1_555 1_555
Eu2_2 O18 1_555 1_555
Eu3C O8 1_555 1_555
Eu3B O9 1_555 1_555
Eu3B_2 O16 1_555 1_555
Eu3B_3 O17 1_555 1_555
O3B Eu2 1_555 1_555
O5B Eu2 1_555 1_555
O8C Eu3 1_555 1_555
O9A Eu1 1_555 1_555
O9B Eu3 1_555 1_555
O10B Eu3 1_555 1_555
O11_2 Eu1 1_555 1_555
O11B Eu2 1_555 1_555
O12_2 Eu1 1_555 1_555
O13B Eu2 1_555 1_555
O15A Eu1 1_555 1_555
O16A Eu1 1_555 1_555
O16B Eu3 1_555 1_555
O17B Eu3 1_555 1_555
O18_2 Eu2 1_555 1_555
O10 Eu3B 1_555 1_555
O11 Eu2B 1_555 1_555
O12 Eu1_2 1_555 1_555
O13 Eu2B_2 1_555 1_555
O16 Eu1A_2 1_555 1_555
C4 C7 1_555 1_555
C5 C6 1_555 1_555
C8 C13 1_555 1_555
C10 C14 1_555 1_555
C12 C13 1_555 1_555
C18 C21 1_555 1_555
C19 C20 1_555 1_555
C25 C28 1_555 1_555
C26 C27 1_555 1_555
C33 C34 1_555 1_555
C40 C41 1_555 1_555
C46 C49 1_555 1_555
C47 C48 1_555 1_555
C54 C55 1_555 1_555
C61 C62 1_555 1_555
C65 N4 1_555 1_555
C66 N4 1_555 1_555
Eu2B_2 O11_2 1_555 1_555
Eu3C O9A 1_555 1_555
Eu3C O16A 1_555 1_555
Eu3B O3B 1_555 1_555

#END
