
#######################################################################
#
#                 Cambridge Crystallographic Data Centre
#                                CCDC 
#
#######################################################################
#
# If this CIF has been generated from an entry in the Cambridge 
# Structural Database, then it will include bibliographic, chemical, 
# crystal, experimental, refinement or atomic coordinate data resulting 
# from the CCDC's data processing and validation procedures.
#
#######################################################################

data_RONWIA
_chemical_formula_moiety         'C18 H17 Cu3 N4 2+'
_symmetry_cell_setting           monoclinic
_symmetry_space_group_name_H-M   'P 2/n'
_symmetry_Int_Tables_number      13
_space_group_name_Hall           '-P 2yac'
loop_
_symmetry_equiv_pos_site_id
_symmetry_equiv_pos_as_xyz
1 x,y,z
2 1/2-x,y,1/2-z
3 -x,-y,-z
4 1/2+x,-y,1/2+z
_cell_length_a                   12.3829(9)
_cell_length_b                   8.5970(9)
_cell_length_c                   12.6633(7)
_cell_angle_alpha                90
_cell_angle_beta                 109.984(5)
_cell_angle_gamma                90
_cell_volume                     1266.91
loop_
_atom_site_label
_atom_site_type_symbol
_atom_site_fract_x
_atom_site_fract_y
_atom_site_fract_z
N2 N 0.8127(2) 0.2333(2) 0.4756(2)
C7 C 0.7004(2) 0.1645(3) 0.4171(2)
C8 C 0.6348(2) 0.1403(3) 0.4961(2)
N3 N 0.6207(2) 0.2932(3) 0.5453(2)
C9 C 0.7347(2) 0.3635(3) 0.6057(2)
C10 C 0.7990(3) 0.3827(3) 0.5247(2)
C11 C 0.8803(2) 0.2521(3) 0.4017(2)
C12 C 1.0072(7) 0.2660(3) 0.4700(3)
N4 N 1.0419(2) 0.1354(3) 0.5492(2)
Cu1 Cu 0.14800(2) 0.20491(3) 0.25965(3)
Cu2 Cu 0.40627(3) 0.29567(4) 0.66208(3)
C1 C 0.2824(2) 0.2323(3) 0.3996(2)
N1 N 0.3353(2) 0.2523(2) 0.4929(2)
C2 C 0.0719(2) 0.0020(3) 0.2355(2)
C3 C 0.5227(2) 0.1143(2) 0.7166(2)
C4 C 0.4999(2) 0.4914(2) 0.6884(2)
C5 C 0.0529(2) 0.3964(2) 0.2141(2)
C6 C 0.2853(2) 0.2916(3) 0.7298(2)
Cu1A Cu 0.35200(2) 0.20491(3) 0.24035(3)
C1A C 0.2176(2) 0.2323(3) 0.1004(2)
C3C C 0.0227(2) -0.1143(2) 0.2166(2)
C2C C 0.5719(2) -0.0020(3) 0.7355(2)
C5C C 0.5529(2) 0.6036(2) 0.7141(2)
C4C C -0.0001(2) 0.5086(2) 0.1884(2)
C6A C 0.2147(2) 0.2916(3) 0.7702(2)
loop_
_geom_bond_atom_site_label_1
_geom_bond_atom_site_label_2
_geom_bond_site_symmetry_1
_geom_bond_site_symmetry_2
Cu1 C1 1_555 1_555
Cu2 N1 1_555 1_555
C1 N1 1_555 1_555
C2 Cu1 1_555 1_555
C3 Cu2 1_555 1_555
C4 Cu2 1_555 1_555
C5 Cu1 1_555 1_555
C6 Cu2 1_555 1_555
N2 C7 1_555 1_555
C7 C8 1_555 1_555
C8 N3 1_555 1_555
N3 C9 1_555 1_555
C9 C10 1_555 1_555
C10 N2 1_555 1_555
C11 N2 1_555 1_555
C12 C11 1_555 1_555
N4 C12 1_555 1_555
Cu1A Cu1 1_555 1_555
C1A Cu1 1_555 1_555
C3C C2 1_555 1_555
C2C C3 1_555 1_555
C5C C4 1_555 1_555
C4C C5 1_555 1_555
C6A C6 1_555 1_555
C1 Cu1A 1_555 1_555
Cu1A C1A 1_555 1_555

#END
