
#######################################################################
#
#                 Cambridge Crystallographic Data Centre
#                                CCDC 
#
#######################################################################
#
# If this CIF has been generated from an entry in the Cambridge 
# Structural Database, then it will include bibliographic, chemical, 
# crystal, experimental, refinement or atomic coordinate data resulting 
# from the CCDC's data processing and validation procedures.
#
#######################################################################

data_WUTCAP
_chemical_formula_moiety         '(C24 H32 Cu3 Eu2 N6 O25)n'
_symmetry_cell_setting           trigonal
_symmetry_space_group_name_H-M   'P -3 c 1'
_symmetry_Int_Tables_number      165
_space_group_name_Hall           '-P 3 2"c'
loop_
_symmetry_equiv_pos_site_id
_symmetry_equiv_pos_as_xyz
1 x,y,z
2 -y,x-y,z
3 -x+y,-x,z
4 y,x,1/2-z
5 -x+y,y,1/2+z
6 x,x-y,1/2+z
7 -x,-y,-z
8 y,-x+y,-z
9 x-y,x,-z
10 -y,-x,1/2+z
11 x-y,-y,1/2-z
12 -x,-x+y,1/2-z
_cell_length_a                   13.3031(2)
_cell_length_b                   13.3031(2)
_cell_length_c                   14.5660(3)
_cell_angle_alpha                90
_cell_angle_beta                 90
_cell_angle_gamma                120
_cell_volume                     2232.42
loop_
_atom_site_label
_atom_site_type_symbol
_atom_site_fract_x
_atom_site_fract_y
_atom_site_fract_z
Eu1 Eu 0.6667 0.3333 0.331415(19)
Cu1 Cu 0.5000 0.5000 0.5000
O1 O 0.5479(2) 0.3606(2) 0.44094(18)
O2 O 0.4383(2) 0.1943(2) 0.37330(18)
C1 C 0.4516(3) 0.2693(3) 0.4300(2)
C2 C 0.3514(3) 0.2537(3) 0.4885(3)
H1 H 0.2924 0.2539 0.4495
H2 H 0.3173 0.1790 0.5191
N1 N 0.3878(2) 0.3461(2) 0.55802(19)
H3 H 0.3242 0.3488 0.5775
C3 C 0.4464(3) 0.3310(3) 0.6387(3)
H4 H 0.4584 0.2659 0.6279
H5 H 0.3962 0.3126 0.6918
C4 C 0.5609(3) 0.4367(3) 0.6594(3)
O3 O 0.5989(2) 0.5238(2) 0.60630(17)
O4 O 0.6171(2) 0.4357(2) 0.72767(18)
O1A O 0.6394(2) 0.1873(3) 0.44094(18)
O2A O 0.8057(2) 0.2440(3) 0.37330(18)
C1A C 0.7307(3) 0.1823(4) 0.4300(2)
C2A C 0.7463(3) 0.0977(4) 0.4885(3)
H1A H 0.7461 0.0385 0.4495
H2A H 0.8210 0.1383 0.5191
N1A N 0.6539(2) 0.0417(3) 0.55802(19)
H3A H 0.6512 -0.0246 0.5775
C3A C 0.6690(3) 0.1154(4) 0.6387(3)
H4A H 0.7341 0.1925 0.6279
H5A H 0.6874 0.0836 0.6918
C4A C 0.5633(3) 0.1242(4) 0.6594(3)
O3A O 0.4762(2) 0.0751(3) 0.60630(17)
O4A O 0.5643(2) 0.1814(3) 0.72767(18)
O1B O 0.8127(3) 0.4521(2) 0.44094(18)
O2B O 0.7560(3) 0.5617(2) 0.37330(18)
C1B C 0.8177(4) 0.5484(3) 0.4300(2)
C2B C 0.9023(4) 0.6486(3) 0.4885(3)
H1B H 0.9615 0.7076 0.4495
H2B H 0.8617 0.6827 0.5191
N1B N 0.9583(3) 0.6122(2) 0.55802(19)
H3B H 1.0246 0.6758 0.5775
C3B C 0.8846(4) 0.5536(3) 0.6387(3)
H4B H 0.8075 0.5416 0.6279
H5B H 0.9164 0.6038 0.6918
C4B C 0.8758(4) 0.4391(3) 0.6594(3)
O3B O 0.9249(3) 0.4011(2) 0.60630(17)
O4B O 0.8186(3) 0.3829(2) 0.72767(18)
O1D O 0.8127(3) 0.3606(2) -0.05906(18)
O2D O 0.7560(3) 0.1943(2) -0.12670(18)
C1D C 0.8177(4) 0.2693(3) -0.0700(2)
C2D C 0.9023(4) 0.2537(3) -0.0115(3)
H1D H 0.9615 0.2539 -0.0505
H2D H 0.8617 0.1790 0.0191
N1D N 0.9583(3) 0.3461(2) 0.05802(19)
H3D H 1.0246 0.3488 0.0775
C3D C 0.8846(4) 0.3310(3) 0.1387(3)
H4D H 0.8075 0.2659 0.1279
H5D H 0.9164 0.3126 0.1918
C4D C 0.8758(4) 0.4367(3) 0.1594(3)
O3D O 0.9249(3) 0.5238(2) 0.10630(17)
O4D O 0.8186(3) 0.4357(2) 0.22767(18)
O1E O 0.5479(2) 0.1873(3) -0.05906(18)
O2E O 0.4383(2) 0.2440(3) -0.12670(18)
C1E C 0.4516(3) 0.1823(4) -0.0700(2)
C2E C 0.3514(3) 0.0977(4) -0.0115(3)
H1E H 0.2924 0.0385 -0.0505
H2E H 0.3173 0.1383 0.0191
N1E N 0.3878(2) 0.0417(3) 0.05802(19)
H3E H 0.3242 -0.0246 0.0775
C3E C 0.4464(3) 0.1154(4) 0.1387(3)
H4E H 0.4584 0.1925 0.1279
H5E H 0.3962 0.0836 0.1918
C4E C 0.5609(3) 0.1242(4) 0.1594(3)
O3E O 0.5989(2) 0.0751(3) 0.10630(17)
O4E O 0.6171(2) 0.1814(3) 0.22767(18)
O1I O 0.6394(2) 0.4521(2) -0.05906(18)
O2I O 0.8057(2) 0.5617(2) -0.12670(18)
C1I C 0.7307(3) 0.5484(3) -0.0700(2)
C2I C 0.7463(3) 0.6486(3) -0.0115(3)
H1I H 0.7461 0.7076 -0.0505
H2I H 0.8210 0.6827 0.0191
N1I N 0.6539(2) 0.6122(2) 0.05802(19)
H3I H 0.6512 0.6758 0.0775
C3I C 0.6690(3) 0.5536(3) 0.1387(3)
H4I H 0.7341 0.5416 0.1279
H5I H 0.6874 0.6038 0.1918
C4I C 0.5633(3) 0.4391(3) 0.1594(3)
O3I O 0.4762(2) 0.4011(2) 0.10630(17)
O4I O 0.5643(2) 0.3829(2) 0.22767(18)
Eu1D Eu 0.6666 0.3333 -0.168585(19)
Cu1A Cu 0.5000 0.0000 0.5000
Cu1B Cu 1.0000 0.5000 0.5000
O1F O 0.4521(2) 0.6394(2) 0.55906(18)
N1F N 0.6122(2) 0.6539(2) 0.44198(19)
O3F O 0.4011(2) 0.4762(2) 0.39370(17)
Eu1D_2 Eu 0.6666 0.3333 0.831415(19)
Cu1D Cu 1.0000 0.5000 0.0000
Cu1E Cu 0.5000 0.0000 0.0000
Cu1C Cu 0.5000 0.5000 0.0000
O4_2 O 0.6171(2) 0.4357(2) -0.27233(18)
O4A_2 O 0.5643(2) 0.1814(3) -0.27233(18)
O4B_2 O 0.8186(3) 0.3829(2) -0.27233(18)
O1G O 0.3606(2) -0.1873(3) 0.55906(18)
N1G N 0.3461(2) -0.0417(3) 0.44198(19)
O3G O 0.5238(2) -0.0751(3) 0.39370(17)
O1H O 1.1873(3) 0.5479(2) 0.55906(18)
N1H N 1.0417(3) 0.3878(2) 0.44198(19)
O3H O 1.0751(3) 0.5989(2) 0.39370(17)
H3F H 0.6758 0.6512 0.4225
H3G H 0.3488 0.0246 0.4225
H3H H 0.9754 0.3242 0.4225
O5 O 0.2731(10) 0.2731(10) 0.2500
loop_
_geom_bond_atom_site_label_1
_geom_bond_atom_site_label_2
_geom_bond_site_symmetry_1
_geom_bond_site_symmetry_2
Eu1 O1 1_555 1_555
Cu1 O1 1_555 1_555
O1 C1 1_555 1_555
O2 Eu1 1_555 1_555
C1 O2 1_555 1_555
C2 C1 1_555 1_555
H1 C2 1_555 1_555
H2 C2 1_555 1_555
N1 Cu1 1_555 1_555
H3 N1 1_555 1_555
C3 N1 1_555 1_555
H4 C3 1_555 1_555
H5 C3 1_555 1_555
C4 C3 1_555 1_555
O3 Cu1 1_555 1_555
O4 C4 1_555 1_555
O1A Eu1 1_555 1_555
O2A Eu1 1_555 1_555
C1A O1A 1_555 1_555
C2A C1A 1_555 1_555
H1A C2A 1_555 1_555
H2A C2A 1_555 1_555
N1A C2A 1_555 1_555
H3A N1A 1_555 1_555
C3A N1A 1_555 1_555
H4A C3A 1_555 1_555
H5A C3A 1_555 1_555
C4A C3A 1_555 1_555
O3A C4A 1_555 1_555
O4A C4A 1_555 1_555
O1B Eu1 1_555 1_555
O2B Eu1 1_555 1_555
C1B O1B 1_555 1_555
C2B C1B 1_555 1_555
H1B C2B 1_555 1_555
H2B C2B 1_555 1_555
N1B C2B 1_555 1_555
H3B N1B 1_555 1_555
C3B N1B 1_555 1_555
H4B C3B 1_555 1_555
H5B C3B 1_555 1_555
C4B C3B 1_555 1_555
O3B C4B 1_555 1_555
O4B C4B 1_555 1_555
O1D C1D 1_555 1_555
O2D C1D 1_555 1_555
C1D C2D 1_555 1_555
C2D H1D 1_555 1_555
H2D C2D 1_555 1_555
N1D C2D 1_555 1_555
H3D N1D 1_555 1_555
C3D N1D 1_555 1_555
H4D C3D 1_555 1_555
H5D C3D 1_555 1_555
C4D C3D 1_555 1_555
O3D C4D 1_555 1_555
O4D Eu1 1_555 1_555
O1E C1E 1_555 1_555
O2E C1E 1_555 1_555
C1E C2E 1_555 1_555
C2E H1E 1_555 1_555
H2E C2E 1_555 1_555
N1E C2E 1_555 1_555
H3E N1E 1_555 1_555
C3E N1E 1_555 1_555
H4E C3E 1_555 1_555
H5E C3E 1_555 1_555
C4E C3E 1_555 1_555
O3E C4E 1_555 1_555
O4E Eu1 1_555 1_555
O1I C1I 1_555 1_555
O2I C1I 1_555 1_555
C1I C2I 1_555 1_555
C2I H1I 1_555 1_555
H2I C2I 1_555 1_555
N1I C2I 1_555 1_555
H3I N1I 1_555 1_555
C3I N1I 1_555 1_555
H4I C3I 1_555 1_555
H5I C3I 1_555 1_555
C4I C3I 1_555 1_555
O3I C4I 1_555 1_555
O4I Eu1 1_555 1_555
Eu1D O1D 1_555 1_555
Cu1A O1A 1_555 1_555
Cu1B O1B 1_555 1_555
O1F Cu1 1_555 1_555
N1F Cu1 1_555 1_555
O3F Cu1 1_555 1_555
Eu1D_2 O4 1_555 1_555
Cu1D O1D 1_555 1_555
Cu1E O1E 1_555 1_555
Cu1C O1I 1_555 1_555
O4_2 Eu1D 1_555 1_555
O4A_2 Eu1D 1_555 1_555
O4B_2 Eu1D 1_555 1_555
O1G Cu1A 1_555 1_555
N1G Cu1A 1_555 1_555
O3G Cu1A 1_555 1_555
O1H Cu1B 1_555 1_555
N1H Cu1B 1_555 1_555
O3H Cu1B 1_555 1_555
H3F N1F 1_555 1_555
H3G N1G 1_555 1_555
H3H N1H 1_555 1_555
C2 N1 1_555 1_555
C4 O3 1_555 1_555
O2A C1A 1_555 1_555
N1A Cu1A 1_555 1_555
O3A Cu1A 1_555 1_555
O4A Eu1D_2 1_555 1_555
O2B C1B 1_555 1_555
N1B Cu1B 1_555 1_555
O3B Cu1B 1_555 1_555
O4B Eu1D_2 1_555 1_555
O2D Eu1D 1_555 1_555
N1D Cu1D 1_555 1_555
C4D O4D 1_555 1_555
O3D Cu1D 1_555 1_555
O1E Eu1D 1_555 1_555
O2E Eu1D 1_555 1_555
N1E Cu1E 1_555 1_555
C4E O4E 1_555 1_555
O3E Cu1E 1_555 1_555
O1I Eu1D 1_555 1_555
O2I Eu1D 1_555 1_555
N1I Cu1C 1_555 1_555
C4I O4I 1_555 1_555
O3I Cu1C 1_555 1_555

#END
