
#######################################################################
#
#                 Cambridge Crystallographic Data Centre
#                                CCDC 
#
#######################################################################
#
# If this CIF has been generated from an entry in the Cambridge 
# Structural Database, then it will include bibliographic, chemical, 
# crystal, experimental, refinement or atomic coordinate data resulting 
# from the CCDC's data processing and validation procedures.
#
#######################################################################

data_XUVREN
_chemical_formula_moiety         '(C83 H63 N13 O21 Zn4)n'
_symmetry_cell_setting           triclinic
_symmetry_space_group_name_H-M   'P -1'
_symmetry_Int_Tables_number      2
_space_group_name_Hall           '-P 1'
loop_
_symmetry_equiv_pos_site_id
_symmetry_equiv_pos_as_xyz
1 x,y,z
2 -x,-y,-z
_cell_length_a                   21.179(4)
_cell_length_b                   22.560(5)
_cell_length_c                   23.138(5)
_cell_angle_alpha                105.30(3)
_cell_angle_beta                 114.19(3)
_cell_angle_gamma                102.88(3)
_cell_volume                     9012.41
loop_
_atom_site_label
_atom_site_type_symbol
_atom_site_fract_x
_atom_site_fract_y
_atom_site_fract_z
Zn1 Zn 0.61874(3) 0.53357(2) 0.90577(3)
Zn2 Zn 0.61114(3) 0.41066(2) 0.81483(3)
Zn3 Zn 0.64148(3) 0.94091(2) 0.31592(3)
Zn4 Zn 0.59214(3) 1.00521(2) 0.40618(3)
O1 O 0.72481(18) 0.45167(17) 0.87306(17)
O2 O 0.50199(18) 0.39463(15) 0.77639(16)
O3 O 0.66539(19) 0.89720(15) 0.38486(16)
O4 O 1.48477(18) 0.93977(15) 1.34166(16)
O5 O 0.50669(18) 0.49236(17) 0.83646(17)
O6 O 0.6348(2) 0.57794(16) 0.84487(17)
O7 O 0.60411(19) 0.37666(14) 0.88584(16)
O8 O 1.53077(18) 0.88978(15) 1.28121(17)
O9 O -0.29441(18) 0.05491(16) 0.44731(19)
O10 O 0.61882(18) 0.94018(15) 0.44878(16)
O11 O -0.25441(18) 0.01184(16) 0.37718(17)
O12 O 0.72577(18) 0.53871(16) 0.94542(17)
O13 O 0.5972(2) 0.46738(15) 0.94693(17)
O14 O 0.6112(2) 0.00111(16) 1.26841(17)
O15 O 0.5764(2) 0.05121(16) 1.33922(18)
O16 O 0.6207(2) 0.48069(16) 0.77421(17)
N1 N 0.6029(2) 0.33381(18) 0.7393(2)
N2 N 0.6294(2) 0.61227(18) 0.98188(19)
N3 N 0.5873(3) 0.0738(2) 0.4800(2)
O17 O 1.1095(2) 0.7214(2) 1.1255(2)
N4 N 0.6462(2) 0.87228(19) 1.2430(2)
C1 C 0.6403(3) 0.7169(2) 1.0856(2)
N5 N 1.0695(2) 0.6264(2) 1.0299(3)
H1 H 1.0854 0.6045 1.0050
C2 C 0.5940(3) 0.2305(2) 0.6356(3)
C3 C 1.3932(3) 0.7868(2) 1.1892(2)
H2 H 1.4353 0.7817 1.1862
O18 O 0.1173(2) 0.2311(2) 0.5924(3)
C4 C 0.5939(3) 0.4083(2) 0.9330(2)
C5 C 0.5310(3) 0.2309(2) 0.6393(3)
H3 H 0.4840 0.1959 0.6069
N6 N 1.1918(2) 0.6931(2) 1.0944(2)
H4 H 1.1941 0.6626 1.0634
C6 C 0.5779(3) 0.3754(2) 0.9750(2)
C7 C 0.5377(3) 0.2839(2) 0.6917(3)
H5 H 0.4940 0.2847 0.6938
O19 O 0.6641(3) 0.7508(2) 0.6437(3)
N7 N 0.5338(3) 0.2863(2) 1.0985(3)
H6 H 0.5140 0.3058 1.1208
C8 C 0.4702(3) 0.4319(2) 0.7918(2)
C9 C 1.2610(3) 0.7454(3) 1.1453(3)
C10 C 0.6367(3) 0.6563(2) 1.0920(2)
H7 H 0.6380 0.6504 1.1316
C11 C 1.3237(3) 0.7384(2) 1.1444(3)
H8 H 1.3184 0.6991 1.1118
C12 C 0.6433(3) 0.7707(2) 1.1403(3)
C13 C 0.5630(3) 0.4061(2) 1.0256(3)
H9 H 0.5614 0.4490 1.0320
C14 C 0.8788(3) 0.5072(3) 0.9264(3)
H10 H 0.8526 0.4647 0.8893
O20 O 0.5755(4) 0.1994(2) 1.0837(3)
C15 C 0.3890(3) 0.4071(2) 0.7588(3)
C16 C 0.6357(3) 0.6713(2) 0.9782(3)
H11 H 0.6357 0.6766 0.9389
C17 C 0.6907(3) 0.8098(3) 0.4482(3)
H12 H 0.6989 0.8048 0.4101
C18 C 0.6665(3) 0.8591(2) 0.4691(2)
N8 N 0.1560(2) 0.3373(2) 0.6663(3)
H13 H 0.1391 0.3674 0.6798
C19 C 0.7571(3) 0.5074(2) 0.9215(3)
C20 C 0.5505(3) 0.3770(2) 1.0663(3)
H14 H 0.5419 0.4003 1.1012
C21 C 0.8389(3) 0.5376(2) 0.9512(3)
C22 C 1.4024(3) 0.8442(2) 1.2397(3)
N9 N 0.7047(3) 0.7269(3) 0.5654(3)
H15 H 0.7260 0.7017 0.5510
C23 C -0.2450(3) 0.0560(2) 0.4309(3)
C24 C 0.3440(3) 0.3442(2) 0.7058(3)
H16 H 0.3676 0.3173 0.6910
C25 C 0.5902(3) 0.1755(3) 0.5801(3)
C26 C 0.6423(3) 0.7255(2) 1.0298(3)
H17 H 0.6481 0.7671 1.0263
C27 C 0.2682(3) 0.3193(3) 0.6743(3)
H18 H 0.2401 0.2762 0.6382
C28 C 1.2675(3) 0.8021(3) 1.1938(3)
H19 H 1.2247 0.8079 1.1945
C29 C 0.6580(3) 0.8646(3) 0.5271(3)
H20 H 0.6433 0.8991 0.5440
C30 C 1.4783(3) 0.8947(2) 1.2916(2)
C31 C -0.1729(3) 0.1100(3) 0.4740(3)
C32 C 0.6499(3) 0.9026(2) 0.4318(2)
C33 C 0.5502(3) 0.3138(3) 1.0579(3)
C34 C 1.3373(3) 0.8489(2) 1.2400(3)
H21 H 1.3424 0.8868 1.2743
C35 C 0.6312(3) 0.6051(2) 1.0390(3)
H22 H 0.6286 0.5638 1.0428
C36 C 0.5727(3) 0.0875(3) 1.2546(3)
C37 C 0.9522(3) 0.5360(3) 0.9530(3)
H23 H 0.9767 0.5130 0.9346
C38 C 0.7031(4) 0.7675(3) 0.4816(3)
H24 H 0.7189 0.7336 0.4655
N10 N 0.5309(4) 0.2205(3) 1.1586(3)
H25 H 0.5106 0.2462 1.1739
C39 C 0.6697(4) 0.8238(3) 0.5602(3)
H26 H 0.6622 0.8291 0.5987
C40 C 0.5860(3) 0.0431(2) 1.2883(3)
N11 N 0.6977(3) 0.6618(3) 0.6257(3)
H27 H 0.7169 0.6414 0.6033
C41 C 0.2322(3) 0.3575(3) 0.6951(3)
C42 C 0.9951(3) 0.5997(3) 1.0077(3)
C43 C 0.3509(3) 0.4448(3) 0.7787(3)
H28 H 0.3790 0.4878 0.8150
C44 C 0.5760(3) 0.3113(2) 0.9659(3)
H29 H 0.5835 0.2878 0.9302
C45 C 0.5638(3) 0.2811(2) 1.0061(3)
H30 H 0.5644 0.2379 0.9991
C46 C -0.1104(3) 0.1116(3) 0.4664(3)
H31 H -0.1151 0.0752 0.4307
N12 N 0.0346(3) 0.2712(3) 0.6083(3)
H32 H 0.0320 0.3066 0.6332
C47 C 0.6348(3) 0.5427(2) 0.7935(3)
C48 C 0.6168(5) 0.7572(3) 1.1834(3)
H33 H 0.5982 0.7130 1.1793
C49 C 0.5455(4) 0.2293(3) 1.1085(4)
C50 C 0.2765(3) 0.4217(3) 0.7479(3)
H34 H 0.2529 0.4491 0.7619
C51 C 1.1228(3) 0.6831(3) 1.0864(3)
C52 C 0.8821(3) 0.6013(3) 1.0063(3)
H35 H 0.8571 0.6240 1.0242
C53 C 0.6930(4) 0.7734(3) 0.5374(3)
C54 C 0.9565(3) 0.6314(3) 1.0346(3)
H36 H 0.9829 0.6735 1.0723
C55 C 0.6666(4) 0.8842(3) 1.2001(3)
H37 H 0.6806 0.9282 1.2025
C56 C 0.6831(4) 0.6357(3) 0.6677(3)
C57 C 0.6519(3) 0.5747(3) 0.7507(3)
C58 C 0.5824(4) 0.0837(3) 1.1982(3)
H38 H 0.5978 0.0499 1.1812
C59 C 0.6763(4) 0.6711(3) 0.7231(3)
H39 H 0.6827 0.7165 0.7339
C60 C 0.6578(4) 0.5386(3) 0.6938(3)
H40 H 0.6512 0.4932 0.6832
C61 C 0.6688(5) 0.8350(3) 1.1509(3)
H41 H 0.6890 0.8471 1.1239
C62 C 0.6587(3) 0.2821(3) 0.6822(3)
H42 H 0.7027 0.2835 0.6797
C63 C -0.0350(3) 0.2151(3) 0.5606(4)
C64 C 0.6863(5) 0.7159(3) 0.6138(3)
C65 C -0.1613(3) 0.1644(3) 0.5308(4)
H43 H -0.2011 0.1651 0.5397
C66 C 0.6606(4) 0.6403(3) 0.7608(3)
H44 H 0.6549 0.6653 0.7971
C67 C -0.0420(3) 0.1638(3) 0.5084(4)
H45 H -0.0010 0.1638 0.5012
C68 C 0.1024(3) 0.2749(3) 0.6183(4)
C69 C 0.5451(4) 0.1749(3) 1.1879(3)
C70 C 0.5466(4) 0.1366(3) 1.2755(3)
H46 H 0.5359 0.1391 1.3119
C71 C 0.6724(4) 0.5677(3) 0.6558(3)
H47 H 0.6760 0.5421 0.6183
C72 C 0.6622(3) 0.3331(3) 0.7335(3)
H48 H 0.7087 0.3687 0.7657
C73 C 0.6182(4) 0.8098(3) 1.2326(3)
H49 H 0.5978 0.7998 1.2602
C74 C 0.5711(4) 0.1259(3) 1.1659(3)
H50 H 0.5805 0.1223 1.1287
C75 C -0.0946(3) 0.2145(3) 0.5715(4)
H51 H -0.0881 0.2504 0.6088
C76 C 0.5365(5) 0.1795(4) 1.2464(4)
H52 H 0.5230 0.2142 1.2651
C77 C 0.6417(6) 0.0947(5) 0.5461(5)
H53 H 0.6784 0.0755 0.5566
C78 C 0.6446(6) 0.1439(5) 0.5989(6)
H54 H 0.6807 0.1567 0.6458
C79 C 0.5326(6) 0.0905(5) 0.4705(6)
H55 H 0.4876 0.0641 0.4279
C80 C 0.5310(6) 0.1437(6) 0.5159(6)
H56 H 0.4896 0.1570 0.5021
Zn3_2 Zn -0.35852(3) -0.05909(2) 0.31592(3)
Zn3_3 Zn 0.64148(3) -0.05909(2) 1.31592(3)
Zn3_4 Zn 0.64148(3) 0.94091(2) 1.31592(3)
Zn3_5 Zn 1.64148(3) 0.94091(2) 1.31592(3)
Zn4_2 Zn -0.40786(3) 0.00521(2) 0.40618(3)
Zn4_3 Zn 0.59214(3) 0.00521(2) 0.40618(3)
Zn4_4 Zn 0.59214(3) 0.00521(2) 1.40618(3)
Zn4_5 Zn 1.59214(3) 1.00521(2) 1.40618(3)
O4_2 O 0.48477(18) 0.93977(15) 0.34166(16)
O8_2 O 0.53077(18) 0.88978(15) 0.28121(17)
O9_2 O 0.70559(18) 1.05491(16) 0.44731(19)
O11_2 O 0.74559(18) 1.01184(16) 0.37718(17)
O14_2 O 0.6112(2) 1.00111(16) 0.26841(17)
O15_2 O 0.5764(2) 1.05121(16) 0.33922(18)
N3_2 N 0.5873(3) 1.0738(2) 0.4800(2)
N4_2 N 0.6462(2) 0.87228(19) 0.2430(2)
O21 O 1.1614(2) 0.5887(2) 0.9768(2)
N13 N 1.1721(4) 0.5056(4) 0.9087(3)
C85 C 1.1934(5) 0.5587(4) 0.9601(4)
H61 H 1.2458 0.5775 0.9909
C86 C 1.2159(5) 0.4688(5) 0.8932(4)
H62 H 1.2356 0.4860 0.8668
H63 H 1.1840 0.4217 0.8660
H64 H 1.2575 0.4741 0.9365
C87 C 1.0849(5) 0.4695(5) 0.8623(5)
H65 H 1.0613 0.4821 0.8897
H66 H 1.0717 0.4214 0.8452
H67 H 1.0673 0.4825 0.8231
loop_
_geom_bond_atom_site_label_1
_geom_bond_atom_site_label_2
_geom_bond_site_symmetry_1
_geom_bond_site_symmetry_2
Zn1 O5 1_555 1_555
Zn2 O1 1_555 1_555
Zn3 O3 1_555 1_555
Zn4 O10 1_555 1_555
O1 C19 1_555 1_555
O2 Zn2 1_555 1_555
O3 C32 1_555 1_555
O4 C30 1_555 1_555
O5 C8 1_555 1_555
O6 Zn1 1_555 1_555
O7 Zn2 1_555 1_555
O8 C30 1_555 1_555
O9 C23 1_555 1_555
O10 C32 1_555 1_555
O11 C23 1_555 1_555
O12 Zn1 1_555 1_555
O13 Zn1 1_555 1_555
O14 C40 1_555 1_555
O15 C40 1_555 1_555
O16 Zn2 1_555 1_555
N1 Zn2 1_555 1_555
N2 Zn1 1_555 1_555
N3 C77 1_555 1_555
O17 C51 1_555 1_555
N4 C55 1_555 1_555
C1 C10 1_555 1_555
N5 H1 1_555 1_555
C2 C5 1_555 1_555
C3 H2 1_555 1_555
O18 C68 1_555 1_555
C4 O7 1_555 1_555
C5 H3 1_555 1_555
N6 H4 1_555 1_555
C6 C4 1_555 1_555
C7 N1 1_555 1_555
H5 C7 1_555 1_555
O19 C64 1_555 1_555
N7 H6 1_555 1_555
C8 O2 1_555 1_555
C9 N6 1_555 1_555
C10 H7 1_555 1_555
C11 C3 1_555 1_555
H8 C11 1_555 1_555
C12 C1 1_555 1_555
C13 C6 1_555 1_555
H9 C13 1_555 1_555
C14 H10 1_555 1_555
O20 C49 1_555 1_555
C15 C8 1_555 1_555
C16 N2 1_555 1_555
H11 C16 1_555 1_555
C17 H12 1_555 1_555
C18 C17 1_555 1_555
N8 H13 1_555 1_555
C19 O12 1_555 1_555
C20 C13 1_555 1_555
H14 C20 1_555 1_555
C21 C14 1_555 1_555
C22 C3 1_555 1_555
N9 H15 1_555 1_555
C23 C31 1_555 1_555
C24 C15 1_555 1_555
H16 C24 1_555 1_555
C25 C2 1_555 1_555
C26 C1 1_555 1_555
H17 C26 1_555 1_555
C27 C24 1_555 1_555
H18 C27 1_555 1_555
C28 C9 1_555 1_555
H19 C28 1_555 1_555
C29 C18 1_555 1_555
H20 C29 1_555 1_555
C30 C22 1_555 1_555
C31 C46 1_555 1_555
C32 C18 1_555 1_555
C33 N7 1_555 1_555
C34 C22 1_555 1_555
H21 C34 1_555 1_555
C35 N2 1_555 1_555
H22 C35 1_555 1_555
C36 C40 1_555 1_555
C37 C14 1_555 1_555
H23 C37 1_555 1_555
C38 C17 1_555 1_555
H24 C38 1_555 1_555
N10 H25 1_555 1_555
C39 C29 1_555 1_555
H26 C39 1_555 1_555
N11 H27 1_555 1_555
C41 N8 1_555 1_555
C42 N5 1_555 1_555
C43 C15 1_555 1_555
H28 C43 1_555 1_555
C44 C6 1_555 1_555
H29 C44 1_555 1_555
C45 C33 1_555 1_555
H30 C45 1_555 1_555
C46 H31 1_555 1_555
N12 H32 1_555 1_555
C47 O6 1_555 1_555
C48 C12 1_555 1_555
H33 C48 1_555 1_555
C49 N7 1_555 1_555
C50 C41 1_555 1_555
H34 C50 1_555 1_555
C51 N5 1_555 1_555
C52 C21 1_555 1_555
H35 C52 1_555 1_555
C53 N9 1_555 1_555
C54 C42 1_555 1_555
H36 C54 1_555 1_555
C55 H37 1_555 1_555
C56 N11 1_555 1_555
C57 C47 1_555 1_555
C58 C36 1_555 1_555
H38 C58 1_555 1_555
C59 C56 1_555 1_555
H39 C59 1_555 1_555
C60 C57 1_555 1_555
H40 C60 1_555 1_555
C61 C12 1_555 1_555
H41 C61 1_555 1_555
C62 C2 1_555 1_555
H42 C62 1_555 1_555
C63 N12 1_555 1_555
C64 N9 1_555 1_555
C65 C31 1_555 1_555
H43 C65 1_555 1_555
C66 C57 1_555 1_555
H44 C66 1_555 1_555
C67 C46 1_555 1_555
H45 C67 1_555 1_555
C68 N8 1_555 1_555
C69 N10 1_555 1_555
C70 C36 1_555 1_555
H46 C70 1_555 1_555
C71 C56 1_555 1_555
H47 C71 1_555 1_555
C72 N1 1_555 1_555
H48 C72 1_555 1_555
C73 N4 1_555 1_555
H49 C73 1_555 1_555
C74 C58 1_555 1_555
H50 C74 1_555 1_555
C75 C63 1_555 1_555
H51 C75 1_555 1_555
C76 C69 1_555 1_555
H52 C76 1_555 1_555
C77 H53 1_555 1_555
C78 C25 1_555 1_555
H54 C78 1_555 1_555
C79 N3 1_555 1_555
H55 C79 1_555 1_555
C80 C25 1_555 1_555
H56 C80 1_555 1_555
O21 C85 1_555 1_555
N13 C85 1_555 1_555
C85 H61 1_555 1_555
C86 N13 1_555 1_555
H62 C86 1_555 1_555
H63 C86 1_555 1_555
H64 C86 1_555 1_555
C87 N13 1_555 1_555
H65 C87 1_555 1_555
H66 C87 1_555 1_555
H67 C87 1_555 1_555
Zn3_2 O11 1_555 1_555
Zn3_3 O14 1_555 1_555
Zn3_4 N4 1_555 1_555
Zn3_5 O8 1_555 1_555
Zn4_2 O9 1_555 1_555
Zn4_3 N3 1_555 1_555
Zn4_4 O15 1_555 1_555
Zn4_5 O4 1_555 1_555
O4_2 Zn4 1_555 1_555
O8_2 Zn3 1_555 1_555
O9_2 Zn4 1_555 1_555
O11_2 Zn3 1_555 1_555
O14_2 Zn3 1_555 1_555
O15_2 Zn4 1_555 1_555
N3_2 Zn4 1_555 1_555
N4_2 Zn3 1_555 1_555
O13 C4 1_555 1_555
O16 C47 1_555 1_555
C5 C7 1_555 1_555
N6 C51 1_555 1_555
C9 C11 1_555 1_555
C10 C35 1_555 1_555
C16 C26 1_555 1_555
C19 C21 1_555 1_555
C20 C33 1_555 1_555
C27 C41 1_555 1_555
C28 C34 1_555 1_555
C37 C42 1_555 1_555
C38 C53 1_555 1_555
N10 C49 1_555 1_555
C39 C53 1_555 1_555
N11 C64 1_555 1_555
C43 C50 1_555 1_555
C44 C45 1_555 1_555
N12 C68 1_555 1_555
C48 C73 1_555 1_555
C52 C54 1_555 1_555
C55 C61 1_555 1_555
C59 C66 1_555 1_555
C60 C71 1_555 1_555
C62 C72 1_555 1_555
C63 C67 1_555 1_555
C65 C75 1_555 1_555
C69 C74 1_555 1_555
C70 C76 1_555 1_555
C77 C78 1_555 1_555
C79 C80 1_555 1_555

#END
