
#######################################################################
#
#                 Cambridge Crystallographic Data Centre
#                                CCDC 
#
#######################################################################
#
# If this CIF has been generated from an entry in the Cambridge 
# Structural Database, then it will include bibliographic, chemical, 
# crystal, experimental, refinement or atomic coordinate data resulting 
# from the CCDC's data processing and validation procedures.
#
#######################################################################

data_DAYYIN
_chemical_formula_moiety         '(C30 H30 Co5 N20)n'
_symmetry_cell_setting           monoclinic
_symmetry_space_group_name_H-M   'P 21/n'
_symmetry_Int_Tables_number      14
_space_group_name_Hall           '-P 2yn'
loop_
_symmetry_equiv_pos_site_id
_symmetry_equiv_pos_as_xyz
1 x,y,z
2 1/2-x,1/2+y,1/2-z
3 -x,-y,-z
4 1/2+x,1/2-y,1/2+z
_cell_length_a                   24.3302(11)
_cell_length_b                   9.5623(5)
_cell_length_c                   24.6111(16)
_cell_angle_alpha                90
_cell_angle_beta                 91.542(5)
_cell_angle_gamma                90
_cell_volume                     5723.76
loop_
_atom_site_label
_atom_site_type_symbol
_atom_site_fract_x
_atom_site_fract_y
_atom_site_fract_z
Co1 Co -0.21603(4) 0.04199(12) 0.81698(5)
Co2 Co 0.01477(4) 0.23587(11) 0.77837(5)
Co3 Co 0.23582(4) 0.44928(11) 0.81975(4)
Co4 Co -0.34085(4) 0.18243(11) 1.01726(4)
Co5 Co 0.03405(4) 0.73013(11) 0.63781(5)
N1 N -0.2599(2) 0.1759(6) 0.7715(3)
C1 C -0.2462(3) 0.2974(8) 0.7507(3)
H1 H -0.2119 0.3378 0.7568
N2 N -0.2850(2) 0.3572(6) 0.7205(2)
C2 C -0.3285(3) 0.2713(9) 0.7232(4)
H2 H -0.3629 0.2860 0.7070
C3 C -0.3130(3) 0.1574(9) 0.7542(4)
H3 H -0.3350 0.0810 0.7620
N3 N -0.1382(2) 0.1043(6) 0.8297(3)
C4 C -0.0996(3) 0.1280(8) 0.7940(3)
H4 H -0.1059 0.1185 0.7568
N4 N -0.0509(2) 0.1668(6) 0.8155(2)
C5 C -0.0603(3) 0.1654(11) 0.8696(4)
H5 H -0.0347 0.1873 0.8970
C6 C -0.1121(4) 0.1276(12) 0.8769(4)
H6 H -0.1281 0.1187 0.9107
N5 N -0.0067(2) 0.4178(6) 0.7437(2)
C7 C 0.0189(3) 0.4832(8) 0.7041(3)
H7 H 0.0487 0.4446 0.6866
N6 N -0.0017(2) 0.6089(6) 0.6914(2)
C8 C -0.0451(3) 0.6243(9) 0.7253(4)
H8 H -0.0682 0.7016 0.7269
C9 C -0.0485(3) 0.5062(8) 0.7565(3)
H9 H -0.0750 0.4890 0.7821
N7 N 0.0413(2) 0.1051(5) 0.7215(2)
C10 C 0.0234(3) -0.0252(7) 0.7115(3)
H10 H -0.0042 -0.0686 0.7308
N8 N 0.0498(2) -0.0861(6) 0.6706(2)
C11 C 0.0871(3) 0.0136(7) 0.6544(3)
H11 H 0.1122 0.0018 0.6269
C12 C 0.0817(3) 0.1304(8) 0.6844(3)
H12 H 0.1015 0.2129 0.6808
N9 N 0.0812(2) 0.2701(6) 0.8256(3)
C13 C 0.1182(3) 0.3670(7) 0.8125(3)
H13 H 0.1106 0.4388 0.7880
N10 N 0.1669(2) 0.3514(6) 0.8378(2)
C14 C 0.1604(3) 0.2330(9) 0.8690(4)
H14 H 0.1873 0.1922 0.8914
C15 C 0.1076(3) 0.1858(9) 0.8615(3)
H15 H 0.0925 0.1083 0.8783
N11 N 0.2715(2) 0.3266(5) 0.7657(2)
C16 C 0.2519(2) 0.2018(6) 0.7513(3)
H16 H 0.2200 0.1641 0.7654
N12 N 0.2822(2) 0.1353(5) 0.7148(2)
C17 C 0.3248(2) 0.2276(7) 0.7061(3)
H17 H 0.3535 0.2122 0.6827
C18 C 0.3185(3) 0.3419(7) 0.7363(3)
H18 H 0.3418 0.4190 0.7373
N13 N -0.27690(19) 0.5044(6) 1.1123(2)
C19 C -0.2874(2) 0.3729(7) 1.0976(3)
H19 H -0.2768 0.2963 1.1186
N14 N -0.31412(19) 0.3608(5) 1.0503(2)
C20 C -0.3224(3) 0.4951(8) 1.0326(3)
H20 H -0.3413 0.5211 1.0008
C21 C -0.2985(3) 0.5838(8) 1.0693(3)
H21 H -0.2968 0.6807 1.0662
N15 N -0.3521(2) 0.0430(6) 1.0769(2)
C22 C -0.3974(3) -0.0342(7) 1.0772(3)
H22 H -0.4255 -0.0269 1.0510
N16 N -0.3986(2) -0.1234(6) 1.1190(2)
C23 C -0.3500(3) -0.1009(7) 1.1473(3)
H23 H -0.3385 -0.1479 1.1787
C24 C -0.3216(3) 0.0009(7) 1.1220(3)
H24 H -0.2874 0.0360 1.1331
N17 N -0.2949(2) 0.0839(6) 0.9641(2)
C25 C -0.2807(3) 0.1214(7) 0.9154(3)
H25 H -0.2915 0.2057 0.8997
N18 N -0.2501(2) 0.0307(6) 0.8907(2)
C26 C -0.2432(4) -0.0777(9) 0.9270(4)
H26 H -0.2237 -0.1599 0.9212
C27 C -0.2701(4) -0.0426(10) 0.9730(4)
H27 H -0.2713 -0.0953 1.0047
N19 N -0.4146(2) 0.2283(6) 0.9857(2)
C28 C -0.4362(3) 0.1965(7) 0.9379(3)
H28 H -0.4175 0.1441 0.9125
N20 N -0.4870(2) 0.2448(6) 0.9284(3)
C29 C -0.4992(3) 0.3120(8) 0.9774(3)
H29 H -0.5322 0.3546 0.9860
C30 C -0.4541(3) 0.3025(8) 1.0092(3)
H30 H -0.4504 0.3426 1.0435
Co1A Co -0.28397(4) 0.54199(12) 0.68302(5)
Co3A Co 0.26418(4) -0.05072(11) 0.68025(4)
Co3B Co -0.23582(4) 0.55072(11) 1.18025(4)
Co5_2 Co 0.03405(4) -0.26987(11) 0.63781(5)
Co5C Co -0.46595(4) -0.23013(11) 1.13781(5)
Co5A Co -0.53405(4) 0.23013(11) 0.86219(5)
N2A N -0.2150(2) -0.1428(6) 0.7795(2)
N8_2 N 0.0498(2) 0.9139(6) 0.6706(2)
N12A N 0.2178(2) 0.6353(5) 0.7852(2)
N13B N 0.27690(19) 0.4956(6) 0.8877(2)
N16C N 0.1014(2) 0.6234(6) 0.6190(2)
N20A N -0.0130(2) 0.7448(6) 0.5716(3)
loop_
_geom_bond_atom_site_label_1
_geom_bond_atom_site_label_2
_geom_bond_site_symmetry_1
_geom_bond_site_symmetry_2
Co1 N1 1_555 1_555
Co2 N4 1_555 1_555
Co3 N10 1_555 1_555
Co4 N14 1_555 1_555
Co5 N6 1_555 1_555
N1 C1 1_555 1_555
C1 H1 1_555 1_555
N2 C1 1_555 1_555
C2 N2 1_555 1_555
H2 C2 1_555 1_555
C3 N1 1_555 1_555
H3 C3 1_555 1_555
N3 Co1 1_555 1_555
C4 N3 1_555 1_555
H4 C4 1_555 1_555
N4 C4 1_555 1_555
C5 N4 1_555 1_555
H5 C5 1_555 1_555
C6 N3 1_555 1_555
H6 C6 1_555 1_555
N5 Co2 1_555 1_555
C7 N5 1_555 1_555
H7 C7 1_555 1_555
N6 C7 1_555 1_555
C8 N6 1_555 1_555
H8 C8 1_555 1_555
C9 N5 1_555 1_555
H9 C9 1_555 1_555
N7 Co2 1_555 1_555
C10 N7 1_555 1_555
H10 C10 1_555 1_555
N8 C10 1_555 1_555
C11 N8 1_555 1_555
H11 C11 1_555 1_555
C12 N7 1_555 1_555
H12 C12 1_555 1_555
N9 Co2 1_555 1_555
C13 N9 1_555 1_555
H13 C13 1_555 1_555
N10 C13 1_555 1_555
C14 N10 1_555 1_555
H14 C14 1_555 1_555
C15 N9 1_555 1_555
H15 C15 1_555 1_555
N11 Co3 1_555 1_555
C16 N11 1_555 1_555
H16 C16 1_555 1_555
N12 C16 1_555 1_555
C17 N12 1_555 1_555
H17 C17 1_555 1_555
C18 N11 1_555 1_555
H18 C18 1_555 1_555
N13 C19 1_555 1_555
C19 H19 1_555 1_555
N14 C19 1_555 1_555
C20 N14 1_555 1_555
H20 C20 1_555 1_555
C21 N13 1_555 1_555
H21 C21 1_555 1_555
N15 Co4 1_555 1_555
C22 N15 1_555 1_555
H22 C22 1_555 1_555
N16 C22 1_555 1_555
C23 N16 1_555 1_555
H23 C23 1_555 1_555
C24 N15 1_555 1_555
H24 C24 1_555 1_555
N17 Co4 1_555 1_555
C25 N17 1_555 1_555
H25 C25 1_555 1_555
N18 Co1 1_555 1_555
C26 N18 1_555 1_555
H26 C26 1_555 1_555
C27 N17 1_555 1_555
H27 C27 1_555 1_555
N19 Co4 1_555 1_555
C28 N19 1_555 1_555
H28 C28 1_555 1_555
N20 C28 1_555 1_555
C29 N20 1_555 1_555
H29 C29 1_555 1_555
C30 N19 1_555 1_555
H30 C30 1_555 1_555
Co1A N2 1_555 1_555
Co3A N12 1_555 1_555
Co3B N13 1_555 1_555
Co5_2 N8 1_555 1_555
Co5C N16 1_555 1_555
Co5A N20 1_555 1_555
N2A Co1 1_555 1_555
N8_2 Co5 1_555 1_555
N12A Co3 1_555 1_555
N13B Co3 1_555 1_555
N16C Co5 1_555 1_555
N20A Co5 1_555 1_555
C2 C3 1_555 1_555
C5 C6 1_555 1_555
C8 C9 1_555 1_555
C11 C12 1_555 1_555
C14 C15 1_555 1_555
C17 C18 1_555 1_555
C20 C21 1_555 1_555
C23 C24 1_555 1_555
C25 N18 1_555 1_555
C26 C27 1_555 1_555
C29 C30 1_555 1_555

#END
