
#######################################################################
#
#                 Cambridge Crystallographic Data Centre
#                                CCDC 
#
#######################################################################
#
# If this CIF has been generated from an entry in the Cambridge 
# Structural Database, then it will include bibliographic, chemical, 
# crystal, experimental, refinement or atomic coordinate data resulting 
# from the CCDC's data processing and validation procedures.
#
#######################################################################

data_NOKJON
_chemical_formula_moiety         '(C10 H14 N2 O23 P4 U3 Zn1)n'
_symmetry_cell_setting           triclinic
_symmetry_space_group_name_H-M   'P -1'
_symmetry_Int_Tables_number      2
_space_group_name_Hall           '-P 1'
loop_
_symmetry_equiv_pos_site_id
_symmetry_equiv_pos_as_xyz
1 x,y,z
2 -x,-y,-z
_cell_length_a                   10.980(2)
_cell_length_b                   13.029(3)
_cell_length_c                   13.599(3)
_cell_angle_alpha                62.312(3)
_cell_angle_beta                 70.921(3)
_cell_angle_gamma                72.954(3)
_cell_volume                     1604.69
loop_
_atom_site_label
_atom_site_type_symbol
_atom_site_fract_x
_atom_site_fract_y
_atom_site_fract_z
Zn1 Zn 0.88754(11) 0.47444(10) 0.64676(10)
U1 U 0.57353(3) 0.37904(3) 1.14296(3)
U2 U 0.67639(3) 0.89669(3) 0.47709(3)
U3 U 0.67482(3) 0.37505(3) 0.51718(3)
P1 P 0.7126(3) 0.3737(3) 0.9026(2)
P2 P 0.6754(2) 0.1606(2) 1.4057(2)
P3 P 0.6195(2) 0.5954(2) 0.5801(2)
P4 P 0.9877(2) 0.7019(2) 0.4657(2)
O1 O 0.6641(10) 0.2936(9) 0.8692(8)
O2 O 0.8259(8) 0.4257(8) 0.8109(7)
O3 O 0.5970(8) 0.4638(8) 0.9287(7)
O4 O 0.7459(7) 0.2948(7) 1.0197(6)
O5 O 0.5543(7) 0.0977(7) 1.4599(7)
O6 O 0.7891(7) 0.0564(6) 1.4173(6)
O7 O 0.6814(8) 0.2384(7) 1.2812(7)
O8 O 0.6731(8) 0.2262(7) 1.4727(7)
O9 O 0.7391(7) 0.4929(6) 0.5849(6)
O10 O 0.5349(7) 0.5660(6) 0.5295(6)
O11 O 0.6620(7) 0.7138(7) 0.4966(7)
O12 O 0.5574(8) 0.5931(7) 0.6972(7)
O13 O 0.9454(7) 0.6226(7) 0.5938(6)
O14 O 1.1262(7) 0.7248(6) 0.4432(7)
O15 O 0.9829(7) 0.6424(7) 0.3937(6)
O16 O 0.8934(8) 0.8189(7) 0.4371(8)
O17 O 0.6728(8) 0.4770(7) 1.1172(7)
O18 O 0.4800(8) 0.2813(8) 1.1603(7)
O19 O 0.6696(8) 0.9431(7) 0.3326(7)
O20 O 0.6834(8) 0.8493(7) 0.6205(6)
O21 O 0.7522(9) 0.4545(7) 0.3744(7)
O22 O 0.5998(7) 0.2971(7) 0.6629(7)
Zn1A Zn 1.11246(11) 0.52556(10) 0.35324(10)
U1A U 0.42647(3) 0.62096(3) 0.85704(3)
U2_2 U 0.67639(3) -0.10331(3) 1.47709(3)
U2A U 0.32361(3) 0.10331(3) 1.52291(3)
U3_2 U 0.67482(3) 0.37505(3) 1.51718(3)
U3A U 0.32518(3) 0.62495(3) 0.48282(3)
U3A_2 U 1.32518(3) 0.62495(3) 0.48282(3)
O3A O 0.4030(8) 0.5362(8) 1.0713(7)
O5_2 O 0.5543(7) 1.0977(7) 0.4599(7)
O5A O 0.4457(7) 0.9023(7) 0.5401(7)
O6_2 O 0.7891(7) 1.0564(6) 0.4173(6)
O8_2 O 0.6731(8) 0.2262(7) 0.4727(7)
O10A O 0.4651(7) 0.4340(6) 0.4705(6)
O12A O 0.4426(8) 0.4069(7) 1.3028(7)
O14A O 0.8738(7) 0.2752(6) 0.5568(7)
O15A O 1.0171(7) 0.3576(7) 0.6063(6)
O23 O 0.796(2) 0.0546(15) 0.0984(15)
N1 N 0.7847(11) 0.7452(10) 1.2614(9)
H1 H 0.7683 0.7502 1.3269
N2 N 0.9511(10) 0.6481(9) 0.7694(8)
H2 H 0.9741 0.6319 0.7091
C1 C 0.8956(13) 0.7778(12) 1.1852(13)
H3 H 0.9512 0.8095 1.2008
C2 C 0.9281(14) 0.7648(12) 1.0837(11)
H4 H 1.0066 0.7870 1.0294
C3 C 0.8432(9) 0.7179(9) 1.0614(9)
C4 C 0.7250(14) 0.6936(11) 1.1397(11)
H5 H 0.6628 0.6692 1.1238
C5 C 0.6985(14) 0.7058(13) 1.2439(12)
H6 H 0.6203 0.6861 1.2999
C6 C 1.0439(13) 0.6447(13) 0.8136(12)
H7 H 1.1333 0.6285 0.7785
C7 C 1.0103(12) 0.6650(15) 0.9115(13)
H8 H 1.0763 0.6591 0.9457
C8 C 0.8798(11) 0.6940(11) 0.9589(10)
C9 C 0.7854(10) 0.6994(10) 0.9085(10)
H9 H 0.6955 0.7196 0.9397
C10 C 0.8223(11) 0.6755(10) 0.8131(10)
H10 H 0.7582 0.6782 0.7786
loop_
_geom_bond_atom_site_label_1
_geom_bond_atom_site_label_2
_geom_bond_site_symmetry_1
_geom_bond_site_symmetry_2
Zn1 O2 1_555 1_555
U1 O3 1_555 1_555
U2 O11 1_555 1_555
U3 O9 1_555 1_555
P1 O1 1_555 1_555
P2 O5 1_555 1_555
P3 O9 1_555 1_555
P4 O13 1_555 1_555
O2 P1 1_555 1_555
O3 P1 1_555 1_555
O4 U1 1_555 1_555
O5 U2_2 1_555 1_555
O6 P2 1_555 1_555
O7 U1 1_555 1_555
O8 P2 1_555 1_555
O9 Zn1 1_555 1_555
O10 U3 1_555 1_555
O11 P3 1_555 1_555
O12 P3 1_555 1_555
O13 Zn1 1_555 1_555
O14 P4 1_555 1_555
O15 P4 1_555 1_555
O16 U2 1_555 1_555
O17 U1 1_555 1_555
O18 U1 1_555 1_555
O19 U2 1_555 1_555
O20 U2 1_555 1_555
O21 U3 1_555 1_555
O22 U3 1_555 1_555
N1 H1 1_555 1_555
N2 H2 1_555 1_555
C1 N1 1_555 1_555
H3 C1 1_555 1_555
C2 C1 1_555 1_555
H4 C2 1_555 1_555
C3 C2 1_555 1_555
C4 C3 1_555 1_555
H5 C4 1_555 1_555
C5 N1 1_555 1_555
H6 C5 1_555 1_555
C6 N2 1_555 1_555
H7 C6 1_555 1_555
C7 C6 1_555 1_555
H8 C7 1_555 1_555
C8 C3 1_555 1_555
C9 C8 1_555 1_555
H9 C9 1_555 1_555
C10 N2 1_555 1_555
H10 C10 1_555 1_555
Zn1A O15 1_555 1_555
U1A O3 1_555 1_555
U2_2 O6 1_555 1_555
U2A O5 1_555 1_555
U3_2 O8 1_555 1_555
U3A O10 1_555 1_555
U3A_2 O14 1_555 1_555
O3A U1 1_555 1_555
O5_2 U2 1_555 1_555
O5A U2 1_555 1_555
O6_2 U2 1_555 1_555
O8_2 U3 1_555 1_555
O10A U3 1_555 1_555
O12A U1 1_555 1_555
O14A U3 1_555 1_555
O15A Zn1 1_555 1_555
P1 O4 1_555 1_555
P2 O7 1_555 1_555
P3 O10 1_555 1_555
P4 O16 1_555 1_555
O12 U1A 1_555 1_555
C4 C5 1_555 1_555
C7 C8 1_555 1_555
C9 C10 1_555 1_555
U1A O3A 1_555 1_555
U3A O10A 1_555 1_555

#END
