
#######################################################################
#
#                 Cambridge Crystallographic Data Centre
#                                CCDC 
#
#######################################################################
#
# If this CIF has been generated from an entry in the Cambridge 
# Structural Database, then it will include bibliographic, chemical, 
# crystal, experimental, refinement or atomic coordinate data resulting 
# from the CCDC's data processing and validation procedures.
#
#######################################################################

data_MOPKEJ
_chemical_formula_moiety         '(C4 H11 Al3 F1 N1 O14 P3)n'
_symmetry_cell_setting           triclinic
_symmetry_space_group_name_H-M   'P -1'
_symmetry_Int_Tables_number      2
_space_group_name_Hall           '-P 1'
loop_
_symmetry_equiv_pos_site_id
_symmetry_equiv_pos_as_xyz
1 x,y,z
2 -x,-y,-z
_cell_length_a                   9.1510(18)
_cell_length_b                   9.1671(18)
_cell_length_c                   9.3136(19)
_cell_angle_alpha                77.93(3)
_cell_angle_beta                 86.22(3)
_cell_angle_gamma                88.36(3)
_cell_volume                     762.278
loop_
_atom_site_label
_atom_site_type_symbol
_atom_site_fract_x
_atom_site_fract_y
_atom_site_fract_z
P1 P 0.35335(9) -0.16850(9) 0.85617(9)
P2 P 0.18703(8) 0.38304(9) 0.89947(9)
P3 P 0.61876(8) 0.37193(9) 0.67852(9)
Al1 Al 0.43784(10) 0.13294(10) 0.91199(10)
Al2 Al 0.62582(10) 0.39652(10) 0.34237(10)
Al3 Al 0.84159(10) 0.36783(10) 0.92376(10)
F1 F 0.3917(12) -0.0112(11) 1.0802(11)
O1 O 0.2026(2) -0.2216(3) 0.9295(3)
O2 O 0.3749(3) -0.2288(3) 0.7136(2)
O3 O 0.4702(2) -0.2342(2) 0.9608(3)
O4 O 0.3544(2) 0.0004(2) 0.8113(2)
O5 O 0.2652(2) 0.2356(2) 0.9291(3)
O6 O 0.0268(2) 0.3587(3) 0.8818(3)
O7 O 0.2006(3) 0.4610(3) 1.0285(3)
O8 O 0.2457(3) 0.4846(3) 0.7579(3)
O9 O 0.5067(2) 0.2559(3) 0.7401(3)
O10 O 0.5508(2) 0.5283(3) 0.6690(3)
O11 O 0.7533(2) 0.3600(3) 0.7674(2)
O12 O 0.6724(3) 0.3567(3) 0.5238(2)
Al1A Al 0.56216(10) -0.13294(10) 1.08801(10)
Al2A Al 0.37418(10) -0.39652(10) 0.65763(10)
Al2A_2 Al 0.37418(10) 0.60348(10) 0.65763(10)
Al3_2 Al -0.15841(10) 0.36783(10) 0.92376(10)
Al3A Al 0.15841(10) -0.36783(10) 1.07624(10)
Al3A_2 Al 0.15841(10) 0.63217(10) 1.07624(10)
F1A F 0.6083(12) 0.0112(11) 0.9198(11)
O1A O 0.7974(2) 0.2216(3) 1.0705(3)
O2A O 0.6251(3) 0.2288(3) 0.2864(2)
O3A O 0.5298(2) 0.2342(2) 1.0392(3)
O6_2 O 1.0268(2) 0.3587(3) 0.8818(3)
O7A O 0.7994(3) 0.5390(3) 0.9715(3)
O8A O 0.7543(3) 0.5154(3) 0.2421(3)
O10A O 0.4492(2) 0.4717(3) 0.3310(3)
O14 O 0.0503(6) 0.1730(7) 0.5205(6)
C1 C 0.1888(11) 0.2030(8) 0.5427(7)
H1 H 0.2067 0.1715 0.6461
H2 H 0.2050 0.3095 0.5136
C2 C 0.0221(8) 0.2048(12) 0.3614(8)
H3 H -0.0780 0.1785 0.3509
H4 H 0.0317 0.3110 0.3225
N1 N 0.2561(8) 0.1607(8) 0.2901(7)
H5 H 0.3158 0.1981 0.2174
C3 C 0.2940(6) 0.1191(9) 0.4505(9)
H6 H 0.3943 0.1458 0.4593
H7 H 0.2849 0.0123 0.4864
C4 C 0.1143(9) 0.1296(10) 0.2797(9)
H8 H 0.0999 0.0232 0.3131
H9 H 0.0905 0.1566 0.1774
O16 O 0.040(2) 0.975(2) 0.125(3)
loop_
_geom_bond_atom_site_label_1
_geom_bond_atom_site_label_2
_geom_bond_site_symmetry_1
_geom_bond_site_symmetry_2
P1 O1 1_555 1_555
P2 O5 1_555 1_555
P3 O9 1_555 1_555
Al1 F1 1_555 1_555
Al2 O12 1_555 1_555
Al3 O11 1_555 1_555
F1 Al1A 1_555 1_555
O1 Al3A 1_555 1_555
O2 P1 1_555 1_555
O3 P1 1_555 1_555
O4 P1 1_555 1_555
O5 Al1 1_555 1_555
O6 P2 1_555 1_555
O7 P2 1_555 1_555
O8 P2 1_555 1_555
O9 Al1 1_555 1_555
O10 P3 1_555 1_555
O11 P3 1_555 1_555
O12 P3 1_555 1_555
O14 C1 1_555 1_555
C1 H1 1_555 1_555
H2 C1 1_555 1_555
C2 O14 1_555 1_555
H3 C2 1_555 1_555
H4 C2 1_555 1_555
N1 H5 1_555 1_555
C3 C1 1_555 1_555
H6 C3 1_555 1_555
H7 C3 1_555 1_555
C4 C2 1_555 1_555
H8 C4 1_555 1_555
H9 C4 1_555 1_555
Al1A O3 1_555 1_555
Al2A O2 1_555 1_555
Al2A_2 O8 1_555 1_555
Al3_2 O6 1_555 1_555
Al3A_2 O7 1_555 1_555
F1A Al1 1_555 1_555
O1A Al3 1_555 1_555
O2A Al2 1_555 1_555
O3A Al1 1_555 1_555
O6_2 Al3 1_555 1_555
O7A Al3 1_555 1_555
O8A Al2 1_555 1_555
O10A Al2 1_555 1_555
Al1 O4 1_555 1_555
O10 Al2A_2 1_555 1_555
N1 C3 1_555 1_555
N1 C4 1_555 1_555
Al1A F1A 1_555 1_555

#END
