
#######################################################################
#
#                 Cambridge Crystallographic Data Centre
#                                CCDC 
#
#######################################################################
#
# If this CIF has been generated from an entry in the Cambridge 
# Structural Database, then it will include bibliographic, chemical, 
# crystal, experimental, refinement or atomic coordinate data resulting 
# from the CCDC's data processing and validation procedures.
#
#######################################################################

data_REHHUJ
_chemical_formula_moiety         '(C44 H47 Cd3 N6 O16)n'
_symmetry_cell_setting           monoclinic
_symmetry_space_group_name_H-M   'C 2/c'
_symmetry_Int_Tables_number      15
_space_group_name_Hall           '-C 2yc'
loop_
_symmetry_equiv_pos_site_id
_symmetry_equiv_pos_as_xyz
1 x,y,z
2 -x,y,1/2-z
3 1/2+x,1/2+y,z
4 1/2-x,1/2+y,1/2-z
5 -x,-y,-z
6 x,-y,1/2+z
7 1/2-x,1/2-y,-z
8 1/2+x,1/2-y,1/2+z
_cell_length_a                   34.0339(10)
_cell_length_b                   18.7606(4)
_cell_length_c                   22.3666(7)
_cell_angle_alpha                90
_cell_angle_beta                 116.429(4)
_cell_angle_gamma                90
_cell_volume                     12788.4
loop_
_atom_site_label
_atom_site_type_symbol
_atom_site_fract_x
_atom_site_fract_y
_atom_site_fract_z
O16 O 0.4529(7) 0.8310(11) 0.8792(12)
N6 N 0.4040(5) 0.9002(8) 0.8854(8)
C42 C 0.4176(7) 0.8276(9) 0.8836(10)
C43 C 0.3616(5) 0.9132(10) 0.8835(8)
H33 H 0.3567 0.9636 0.8832
H34 H 0.3608 0.8923 0.9221
H35 H 0.3391 0.8922 0.8439
C44 C 0.4341(8) 0.9602(11) 0.9100(13)
H36 H 0.4178 1.0028 0.9077
H37 H 0.4493 0.9659 0.8830
H38 H 0.4549 0.9516 0.9555
Cd1 Cd 0.287696(15) 0.12421(3) 0.70115(3)
Cd2 Cd 0.824780(17) 0.06246(3) 0.95180(3)
Cd3 Cd 0.675460(16) 0.35703(3) 1.18842(3)
O1 O 0.3570(3) 0.1433(6) 0.7207(5)
O2 O 0.3503(2) 0.1321(4) 0.8122(4)
O3 O 0.77951(15) 0.0979(3) 0.9937(2)
O4 O 0.72479(16) 0.0638(2) 0.8968(3)
O5 O 0.68497(14) 0.3232(2) 1.0949(2)
O6 O 0.75387(14) 0.2833(2) 1.1290(2)
O7 O -0.1186(2) -0.0609(4) 0.4240(4)
O8 O -0.1052(2) -0.1583(5) 0.3746(4)
O9 O 0.21515(14) 0.0511(2) 0.6649(2)
O10 O 0.27985(14) 0.0134(2) 0.7396(2)
O11 O 0.30228(16) -0.2457(3) 0.7749(3)
O12 O 0.24639(15) -0.3197(2) 0.7414(2)
O13 O 0.87899(17) 0.1007(3) 1.0517(3)
O14 O 0.8303(3) -0.0523(3) 0.9797(4)
O15 O 0.6819(2) 0.4284(4) 1.2709(3)
N1 N 0.5889(2) 0.1556(4) 0.9095(3)
N2 N 0.11289(18) -0.1585(3) 0.6215(3)
N3 N 0.8991(3) 0.1642(4) 1.1484(3)
N4 N 0.8115(7) -0.1771(12) 0.9703(11)
N5 N 0.7268(5) 0.4919(7) 1.3598(7)
C1 C 0.3745(3) 0.1348(5) 0.7755(7)
C2 C 0.4491(4) 0.1377(6) 0.7895(6)
H1 H 0.4373 0.1301 0.7437
C3 C 0.4239(3) 0.1406(5) 0.8156(5)
C4 C 0.4946(4) 0.1453(7) 0.8257(7)
H2 H 0.5116 0.1412 0.8028
C5 C 0.5144(3) 0.1577(5) 0.8894(6)
C6 C 0.4867(3) 0.1595(6) 0.9257(6)
H3 H 0.4997 0.1638 0.9720
C7 C 0.5622(3) 0.1680(7) 0.9274(7)
C8 C 0.4416(4) 0.1547(6) 0.8903(6)
H4 H 0.4232 0.1598 0.9107
C9 C 0.7395(2) 0.0970(4) 0.9521(4)
C10 C 0.7087(2) 0.1371(4) 0.9703(3)
C11 C 0.7251(2) 0.1848(3) 1.0232(3)
H5 H 0.7552 0.1899 1.0485
C12 C 0.6962(2) 0.2253(3) 1.0386(3)
C13 C 0.6507(2) 0.2158(4) 1.0018(3)
H6 H 0.6315 0.2418 1.0126
C14 C 0.6341(2) 0.1665(4) 0.9481(3)
C15 C 0.6631(2) 0.1294(4) 0.9325(4)
H7 H 0.6523 0.0985 0.8961
C16 C 0.7135(2) 0.2806(4) 1.0918(3)
C17 C -0.0945(3) -0.1106(7) 0.4189(6)
C18 C -0.0475(3) -0.1125(6) 0.4733(5)
C19 C -0.0329(3) -0.0650(6) 0.5241(6)
H8 H -0.0524 -0.0311 0.5255
C20 C 0.0109(3) -0.0644(5) 0.5756(5)
H9 H 0.0200 -0.0312 0.6100
C21 C 0.0394(2) -0.1151(4) 0.5725(4)
C22 C 0.0241(3) -0.1628(5) 0.5210(5)
H10 H 0.0433 -0.1964 0.5182
C23 C -0.0194(3) -0.1626(6) 0.4724(5)
H11 H -0.0291 -0.1973 0.4393
C24 C 0.0861(2) -0.1132(4) 0.6230(5)
C25 C 0.2403(2) 0.0020(4) 0.7032(3)
C26 C 0.2213(2) -0.0691(3) 0.7016(3)
C27 C 0.2478(2) -0.1270(4) 0.7278(3)
H12 H 0.2779 -0.1203 0.7507
C28 C 0.2311(2) -0.1952(4) 0.7214(3)
C29 C 0.1862(2) -0.2055(4) 0.6876(3)
H13 H 0.1746 -0.2513 0.6822
C30 C 0.1584(2) -0.1469(4) 0.6618(4)
C31 C 0.1766(2) -0.0788(4) 0.6689(4)
H14 H 0.1582 -0.0396 0.6513
C32 C 0.2621(2) -0.2567(4) 0.7471(3)
C33 C 0.8699(3) 0.1378(5) 1.0902(4)
C34 C 0.9466(4) 0.1527(7) 1.1744(6)
H15 H 0.9616 0.1763 1.2167
H16 H 0.9563 0.1718 1.1435
H17 H 0.9527 0.1025 1.1800
C35 C 0.8860(4) 0.2083(6) 1.1906(5)
H18 H 0.9116 0.2225 1.2299
H19 H 0.8669 0.1814 1.2033
H20 H 0.8709 0.2499 1.1662
C36 C 0.8031(7) -0.1014(10) 0.9564(12)
C37 C 0.8578(7) -0.1958(12) 0.9998(11)
H21 H 0.8609 -0.2467 1.0045
H22 H 0.8727 -0.1740 1.0430
H23 H 0.8704 -0.1793 0.9715
C38 C 0.7708(8) -0.2180(12) 0.9411(12)
H24 H 0.7464 -0.1861 0.9205
H25 H 0.7678 -0.2447 0.9755
H26 H 0.7714 -0.2502 0.9082
C39 C 0.7149(5) 0.4327(8) 1.3191(8)
C40 C 0.6949(6) 0.5546(8) 1.3450(8)
H27 H 0.7086 0.5916 1.3773
H28 H 0.6874 0.5727 1.3011
H29 H 0.6688 0.5387 1.3473
C41 C 0.7709(6) 0.5176(9) 1.3985(9)
H30 H 0.7701 0.5608 1.4209
H31 H 0.7877 0.4824 1.4309
H32 H 0.7842 0.5268 1.3694
H39 H 0.570(9) 0.178(15) 0.973(4)
H40 H 0.060(5) -0.117(15) 0.628(15)
Cd1A Cd 0.712304(15) 0.12421(3) 0.79885(3)
Cd1G Cd 0.787696(15) 0.37579(3) 1.20115(3)
Cd1C Cd 0.212304(15) -0.37579(3) 0.79885(3)
Cd2F Cd 0.675220(17) 0.43754(3) 1.04820(3)
Cd2E Cd -0.175220(17) -0.06246(3) 0.45180(3)
Cd2A Cd 0.175220(17) 0.06246(3) 0.54820(3)
Cd3F Cd 0.824540(16) 0.14297(3) 0.81158(3)
Cd3C Cd -0.175460(16) -0.14297(3) 0.31158(3)
Cd3G Cd 0.175460(16) 0.14297(3) 0.68842(3)
Cd3D Cd 0.324540(16) -0.35703(3) 0.81158(3)
O4A O 0.27521(16) 0.0638(2) 0.6032(3)
O5F O 0.81503(14) 0.1768(2) 0.9051(2)
O6G O 0.25387(14) 0.2167(2) 0.6290(2)
O7E O 0.8814(2) 0.0609(4) 0.9240(4)
O8C O 0.6052(2) 0.3417(5) 1.1254(4)
O9A O 0.78485(14) 0.0511(2) 0.8351(2)
O9G O 0.71515(14) 0.4489(2) 1.1649(2)
O11D O 0.69772(16) 0.2457(3) 1.2251(3)
O12C O 0.25361(15) 0.1803(2) 0.7586(2)
O12D O 0.75361(15) 0.3197(2) 1.2586(2)
loop_
_geom_bond_atom_site_label_1
_geom_bond_atom_site_label_2
_geom_bond_site_symmetry_1
_geom_bond_site_symmetry_2
Cd1 O1 1_555 1_555
Cd2 O3 1_555 1_555
Cd3 O5 1_555 1_555
O1 C1 1_555 1_555
O2 Cd1 1_555 1_555
O3 C9 1_555 1_555
O4 C9 1_555 1_555
O5 C16 1_555 1_555
O6 C16 1_555 1_555
O7 C17 1_555 1_555
O8 C17 1_555 1_555
O9 Cd1 1_555 1_555
O10 Cd1 1_555 1_555
O11 C32 1_555 1_555
O12 C32 1_555 1_555
O13 Cd2 1_555 1_555
O14 Cd2 1_555 1_555
O15 Cd3 1_555 1_555
O16 C42 1_555 1_555
N1 C7 1_555 1_555
N2 C24 1_555 1_555
N3 C33 1_555 1_555
N4 C36 1_555 1_555
N5 C39 1_555 1_555
N6 C42 1_555 1_555
C1 O2 1_555 1_555
C2 H1 1_555 1_555
C3 C1 1_555 1_555
C4 C2 1_555 1_555
H2 C4 1_555 1_555
C5 C4 1_555 1_555
C6 C5 1_555 1_555
H3 C6 1_555 1_555
C7 C5 1_555 1_555
C8 C3 1_555 1_555
H4 C8 1_555 1_555
C9 C10 1_555 1_555
C10 C11 1_555 1_555
C11 H5 1_555 1_555
C12 C11 1_555 1_555
C13 C12 1_555 1_555
H6 C13 1_555 1_555
C14 N1 1_555 1_555
C15 C10 1_555 1_555
H7 C15 1_555 1_555
C16 C12 1_555 1_555
C17 C18 1_555 1_555
C18 C19 1_555 1_555
C19 H8 1_555 1_555
C20 C19 1_555 1_555
H9 C20 1_555 1_555
C21 C20 1_555 1_555
C22 C21 1_555 1_555
H10 C22 1_555 1_555
C23 C18 1_555 1_555
H11 C23 1_555 1_555
C24 C21 1_555 1_555
C25 O9 1_555 1_555
C26 C25 1_555 1_555
C27 C26 1_555 1_555
H12 C27 1_555 1_555
C28 C27 1_555 1_555
C29 C28 1_555 1_555
H13 C29 1_555 1_555
C30 N2 1_555 1_555
C31 C26 1_555 1_555
H14 C31 1_555 1_555
C32 C28 1_555 1_555
C33 O13 1_555 1_555
C34 N3 1_555 1_555
H15 C34 1_555 1_555
H16 C34 1_555 1_555
H17 C34 1_555 1_555
C35 N3 1_555 1_555
H18 C35 1_555 1_555
H19 C35 1_555 1_555
H20 C35 1_555 1_555
C36 O14 1_555 1_555
C37 N4 1_555 1_555
H21 C37 1_555 1_555
H22 C37 1_555 1_555
H23 C37 1_555 1_555
C38 N4 1_555 1_555
H24 C38 1_555 1_555
H25 C38 1_555 1_555
H26 C38 1_555 1_555
C39 O15 1_555 1_555
C40 N5 1_555 1_555
H27 C40 1_555 1_555
H28 C40 1_555 1_555
H29 C40 1_555 1_555
C41 N5 1_555 1_555
H30 C41 1_555 1_555
H31 C41 1_555 1_555
H32 C41 1_555 1_555
C43 N6 1_555 1_555
H33 C43 1_555 1_555
H34 C43 1_555 1_555
H35 C43 1_555 1_555
C44 N6 1_555 1_555
H36 C44 1_555 1_555
H37 C44 1_555 1_555
H38 C44 1_555 1_555
H39 C7 1_555 1_555
H40 C21 1_555 1_555
Cd1A O4 1_555 1_555
Cd1G O6 1_555 1_555
Cd1C O12 1_555 1_555
Cd2F Cd3 1_555 1_555
Cd2E O7 1_555 1_555
Cd2A O9 1_555 1_555
Cd3F Cd2 1_555 1_555
Cd3C O8 1_555 1_555
Cd3G O9 1_555 1_555
Cd3D O11 1_555 1_555
O4A Cd1 1_555 1_555
O5F Cd2 1_555 1_555
O6G Cd1 1_555 1_555
O7E Cd2 1_555 1_555
O8C Cd3 1_555 1_555
O9A Cd2 1_555 1_555
O9G Cd3 1_555 1_555
O11D Cd3 1_555 1_555
O12C Cd1 1_555 1_555
O12D Cd3 1_555 1_555
O5 Cd2F 1_555 1_555
O10 C25 1_555 1_555
O12 Cd3D 1_555 1_555
C2 C3 1_555 1_555
C6 C8 1_555 1_555
C13 C14 1_555 1_555
C14 C15 1_555 1_555
C22 C23 1_555 1_555
C24 H40 1_555 1_555
C29 C30 1_555 1_555
C30 C31 1_555 1_555
Cd1A O9A 1_555 1_555
Cd1G O9G 1_555 1_555
Cd1G O12D 1_555 1_555
Cd2F O9G 1_555 1_555
Cd2E Cd3C 1_555 1_555
Cd2A Cd3G 1_555 1_555
Cd3F O5F 1_555 1_555
Cd3F O9A 1_555 1_555
Cd3G O12C 1_555 1_555

#END
