
#######################################################################
#
#                 Cambridge Crystallographic Data Centre
#                                CCDC 
#
#######################################################################
#
# If this CIF has been generated from an entry in the Cambridge 
# Structural Database, then it will include bibliographic, chemical, 
# crystal, experimental, refinement or atomic coordinate data resulting 
# from the CCDC's data processing and validation procedures.
#
#######################################################################

data_REHHIX
_chemical_formula_moiety         '(C112 H104 Cd6 N10 O30)n'
_symmetry_cell_setting           monoclinic
_symmetry_space_group_name_H-M   'C 2/c'
_symmetry_Int_Tables_number      15
_space_group_name_Hall           '-C 2yc'
loop_
_symmetry_equiv_pos_site_id
_symmetry_equiv_pos_as_xyz
1 x,y,z
2 -x,y,1/2-z
3 1/2+x,1/2+y,z
4 1/2-x,1/2+y,1/2-z
5 -x,-y,-z
6 x,-y,1/2+z
7 1/2-x,1/2-y,-z
8 1/2+x,1/2-y,1/2+z
_cell_length_a                   35.319(3)
_cell_length_b                   18.2332(10)
_cell_length_c                   23.452(2)
_cell_angle_alpha                90
_cell_angle_beta                 120.172(10)
_cell_angle_gamma                90
_cell_volume                     13056.5
loop_
_atom_site_label
_atom_site_type_symbol
_atom_site_fract_x
_atom_site_fract_y
_atom_site_fract_z
N1 N 0.5912(2) 0.8505(6) 0.9100(4)
N2 N 0.1104(2) 1.1659(3) 0.6218(3)
N3 N 0.8781(5) 1.1703(8) 1.0432(8)
N4 N 0.8989(3) 0.8276(5) 1.1549(4)
N5 N 0.7404(3) 0.4710(5) 1.3355(4)
O1 O 0.3554(3) 0.8450(5) 0.7563(5)
O2 O 0.3648(3) 0.9451(6) 0.7141(5)
O4 O 0.78116(17) 0.9107(3) 1.0095(3)
O5 O 0.72624(19) 0.9504(3) 0.9132(3)
O6 O 0.68713(15) 0.6610(3) 1.0793(2)
O7 O 0.75564(15) 0.7024(3) 1.1200(2)
O8 O -0.11833(17) 1.0356(3) 0.4537(3)
O9 O -0.11183(17) 1.1216(3) 0.3924(3)
O10 O 0.21847(16) 0.9694(3) 0.6452(2)
O11 O 0.28268(16) 1.0093(3) 0.7227(3)
O12 O 0.29669(16) 1.2685(3) 0.7897(3)
O13 O 0.23902(15) 1.3413(3) 0.7531(2)
O14 O 0.8320(3) 1.0699(3) 1.0014(4)
O15 O 0.8785(2) 0.9054(4) 1.0690(3)
O16 O 0.6921(2) 0.5490(3) 1.2554(3)
C1 C 0.3789(3) 0.8888(6) 0.7547(6)
C2 C 0.4277(3) 0.8771(5) 0.7976(5)
C3 C 0.4447(4) 0.8168(8) 0.8387(7)
H1 H 0.4242 0.7828 0.8359
C4 C 0.4881(4) 0.8002(11) 0.8835(9)
H2 H 0.4964 0.7621 0.9139
C5 C 0.5176(4) 0.8458(7) 0.8785(6)
C6 C 0.5039(3) 0.8996(7) 0.8307(5)
H3 H 0.5243 0.9248 0.8242
C8 C 0.4593(3) 0.9161(8) 0.7919(6)
H4 H 0.4507 0.9542 0.7616
C9 C 0.5658(5) 0.8320(9) 0.9208(7)
C10 C 0.7412(2) 0.9130(4) 0.9658(4)
C11 C 0.7103(2) 0.8669(4) 0.9768(3)
C12 C 0.7266(2) 0.8127(4) 1.0250(3)
H5 H 0.7566 0.8057 1.0509
C13 C 0.6983(2) 0.7692(4) 1.0345(3)
C14 C 0.6533(2) 0.7809(4) 0.9975(4)
H6 H 0.6342 0.7521 1.0044
C15 C 0.6370(2) 0.8367(4) 0.9497(4)
C16 C 0.6650(2) 0.8778(4) 0.9385(4)
H7 H 0.6540 0.9131 0.9054
C17 C 0.7155(2) 0.7070(4) 1.0824(3)
C18 C -0.0967(2) 1.0813(5) 0.4428(4)
C19 C -0.0486(2) 1.0906(4) 0.4931(4)
C20 C -0.0278(3) 1.0446(5) 0.5451(4)
H8 H -0.0435 1.0080 0.5518
C21 C 0.0169(3) 1.0520(5) 0.5885(4)
H9 H 0.0311 1.0188 0.6230
C22 C 0.0403(3) 1.1075(4) 0.5811(4)
C23 C 0.0183(3) 1.1546(6) 0.5297(6)
H10 H 0.0331 1.1944 0.5254
C24 C -0.0252(3) 1.1449(6) 0.4842(6)
H11 H -0.0389 1.1752 0.4473
C25 C 0.0880(3) 1.1125(4) 0.6246(4)
C26 C 0.2431(2) 1.0199(4) 0.6856(4)
C27 C 0.2217(2) 1.0892(4) 0.6878(4)
C28 C 0.1763(2) 1.0947(4) 0.6552(4)
H12 H 0.1592 1.0545 0.6323
C29 C 0.1563(2) 1.1596(4) 0.6567(4)
C30 C 0.1822(2) 1.2209(4) 0.6887(4)
H13 H 0.1691 1.2655 0.6878
C31 C 0.2276(2) 1.2149(4) 0.7219(3)
C32 C 0.2475(2) 1.1495(4) 0.7213(3)
H14 H 0.2779 1.1460 0.7431
C33 C 0.2564(2) 1.2786(4) 0.7578(4)
C34 C 0.8667(6) 1.1092(8) 1.0107(7)
C35 C 0.8565(10) 1.1980(13) 1.0807(15)
H15 H 0.8684 1.2451 1.0994
H16 H 0.8255 1.2023 1.0512
H17 H 0.8620 1.1641 1.1154
C36 C 0.9134(9) 1.2168(13) 1.0475(13)
H18 H 0.9159 1.2602 1.0722
H19 H 0.9405 1.1902 1.0691
H20 H 0.9068 1.2302 1.0039
C37 C 0.8696(3) 0.8605(5) 1.1001(4)
C38 C 0.9459(4) 0.8410(9) 1.1814(7)
H21 H 0.9625 0.8133 1.2212
H22 H 0.9538 0.8262 1.1496
H23 H 0.9519 0.8923 1.1907
C39 C 0.8850(5) 0.7767(7) 1.1889(6)
H24 H 0.9103 0.7583 1.2278
H25 H 0.8663 0.8018 1.2012
H26 H 0.8693 0.7366 1.1601
C40 C 0.7303(3) 0.5316(5) 1.2982(4)
C41 C 0.7073(3) 0.4242(6) 1.3324(5)
H27 H 0.7207 0.3844 1.3629
H28 H 0.6902 0.4050 1.2885
H29 H 0.6887 0.4514 1.3437
C42 C 0.7860(4) 0.4498(9) 1.3788(6)
H30 H 0.7871 0.4058 1.4021
H31 H 0.8011 0.4884 1.4099
H32 H 0.7997 0.4413 1.3530
Cd1 Cd 0.291500(9) 0.896890(16) 0.686280(15)
Cd2 Cd 0.823243(9) 0.953392(16) 0.971055(15)
Cd3 Cd 0.682657(9) 0.619594(16) 1.170181(15)
H60 H 0.102(2) 1.067(3) 0.650(3)
N1A N 0.4088(2) 0.8505(6) 0.5900(4)
N2C N 0.3896(2) 0.6659(3) 0.8782(3)
N3A N 0.1219(5) 1.1703(8) 0.4568(8)
N4A N 0.1011(3) 0.8276(5) 0.3451(4)
N5A N 0.2596(3) 0.4710(5) 0.1645(4)
O1A O 0.6446(3) 0.8450(5) 0.7437(5)
O2A O 0.6352(3) 0.9451(6) 0.7859(5)
O4A O 0.21884(17) 0.9107(3) 0.4905(3)
O5A O 0.27376(19) 0.9504(3) 0.5868(3)
O6A O 0.31287(15) 0.6610(3) 0.4207(2)
O6F O 0.81287(15) 0.8390(3) 0.9207(2)
O6G O 0.18713(15) 0.8390(3) 0.5793(2)
O7A O 0.24436(15) 0.7024(3) 0.3800(2)
O7G O 0.25564(15) 0.7976(3) 0.6200(2)
O7F O 0.74436(15) 0.7976(3) 0.8800(2)
O8C O 0.61833(17) 0.5356(3) 1.0463(3)
O8E O 0.88167(17) 0.9644(3) 0.9537(3)
O8D O 0.11833(17) 0.9644(3) 0.5463(3)
O9C O 0.61183(17) 0.6216(3) 1.1076(3)
O9B O 0.38817(17) 0.6216(3) 0.3924(3)
O10C O 0.28153(16) 0.4694(3) 0.8548(2)
O10A O 0.78153(16) 0.9694(3) 0.8548(2)
O10G O 0.71847(16) 0.5306(3) 1.1452(2)
O10F O 0.28153(16) 0.5306(3) 0.3548(2)
O11C O 0.21732(16) 0.5093(3) 0.7773(3)
O11A O 0.71732(16) 1.0093(3) 0.7773(3)
O12C O 0.20331(16) 0.7685(3) 0.7103(3)
O12D O 0.70331(16) 0.7315(3) 1.2103(3)
O12E O 0.29669(16) 0.7315(3) 0.2897(3)
O13C O 0.26098(15) 0.8413(3) 0.7469(2)
O13B O 0.73902(15) 0.8413(3) 0.7531(2)
O14A O 0.1680(3) 1.0699(3) 0.4986(4)
O15A O 0.1215(2) 0.9054(4) 0.4310(3)
O16A O 0.3079(2) 0.5490(3) 0.2446(3)
C1A C 0.6211(3) 0.8888(6) 0.7453(6)
C2A C 0.5723(3) 0.8771(5) 0.7024(5)
C3A C 0.5553(4) 0.8168(8) 0.6613(7)
H1A H 0.5758 0.7828 0.6641
C4A C 0.5119(4) 0.8002(11) 0.6165(9)
H2A H 0.5036 0.7621 0.5861
C5A C 0.4824(4) 0.8458(7) 0.6215(6)
C6A C 0.4961(3) 0.8996(7) 0.6693(5)
H3A H 0.4757 0.9248 0.6758
C8A C 0.5407(3) 0.9161(8) 0.7081(6)
H4A H 0.5493 0.9542 0.7384
C9A C 0.4342(5) 0.8320(9) 0.5792(7)
C10A C 0.2588(2) 0.9130(4) 0.5342(4)
C11A C 0.2897(2) 0.8669(4) 0.5232(3)
C12A C 0.2734(2) 0.8127(4) 0.4750(3)
H5A H 0.2434 0.8057 0.4491
C13A C 0.3017(2) 0.7692(4) 0.4655(3)
C14A C 0.3467(2) 0.7809(4) 0.5025(4)
H6A H 0.3658 0.7521 0.4956
C15A C 0.3630(2) 0.8367(4) 0.5503(4)
C16A C 0.3350(2) 0.8778(4) 0.5615(4)
H7A H 0.3460 0.9131 0.5946
C17A C 0.2845(2) 0.7070(4) 0.4176(3)
C18C C 0.5967(2) 0.5813(5) 1.0572(4)
C19C C 0.5486(2) 0.5906(4) 1.0069(4)
C20C C 0.5278(3) 0.5446(5) 0.9549(4)
H8C H 0.5435 0.5080 0.9482
C21C C 0.4831(3) 0.5520(5) 0.9115(4)
H9C H 0.4689 0.5188 0.8770
C22C C 0.4597(3) 0.6075(4) 0.9189(4)
C23C C 0.4817(3) 0.6546(6) 0.9703(6)
H10C H 0.4669 0.6944 0.9746
C24C C 0.5252(3) 0.6449(6) 1.0158(6)
H11C H 0.5389 0.6752 1.0527
C25C C 0.4120(3) 0.6125(4) 0.8754(4)
C26C C 0.2569(2) 0.5199(4) 0.8144(4)
C27C C 0.2783(2) 0.5892(4) 0.8122(4)
C28C C 0.3237(2) 0.5947(4) 0.8448(4)
H12C H 0.3408 0.5545 0.8677
C29C C 0.3437(2) 0.6596(4) 0.8433(4)
C30C C 0.3178(2) 0.7209(4) 0.8113(4)
H13C H 0.3309 0.7655 0.8122
C31C C 0.2724(2) 0.7149(4) 0.7781(3)
C32C C 0.2525(2) 0.6495(4) 0.7787(3)
H14C H 0.2221 0.6460 0.7569
C33C C 0.2436(2) 0.7786(4) 0.7422(4)
C34A C 0.1333(6) 1.1092(8) 0.4893(7)
C35A C 0.1435(10) 1.1980(13) 0.4193(15)
H15A H 0.1316 1.2451 0.4006
H16A H 0.1745 1.2023 0.4488
H17A H 0.1380 1.1641 0.3846
C36A C 0.0866(9) 1.2168(13) 0.4525(13)
H18A H 0.0841 1.2602 0.4278
H19A H 0.0595 1.1902 0.4309
H20A H 0.0932 1.2302 0.4961
C37A C 0.1304(3) 0.8605(5) 0.3999(4)
C38A C 0.0541(4) 0.8410(9) 0.3186(7)
H21A H 0.0375 0.8133 0.2788
H22A H 0.0462 0.8262 0.3504
H23A H 0.0481 0.8923 0.3093
C39A C 0.1150(5) 0.7767(7) 0.3111(6)
H24A H 0.0897 0.7583 0.2722
H25A H 0.1337 0.8018 0.2988
H26A H 0.1307 0.7366 0.3399
C40A C 0.2697(3) 0.5316(5) 0.2018(4)
C41A C 0.2927(3) 0.4242(6) 0.1676(5)
H27A H 0.2793 0.3844 0.1371
H28A H 0.3098 0.4050 0.2115
H29A H 0.3113 0.4514 0.1563
C42A C 0.2140(4) 0.4498(9) 0.1212(6)
H30A H 0.2129 0.4058 0.0979
H31A H 0.1989 0.4884 0.0901
H32A H 0.2003 0.4413 0.1470
Cd1A Cd 0.708500(9) 0.896890(16) 0.813720(15)
Cd1G Cd 0.791500(9) 0.603110(16) 1.186280(15)
Cd1C Cd 0.208500(9) 1.396890(16) 0.813720(15)
Cd1F Cd 0.208500(9) 0.603110(16) 0.313720(15)
Cd1C_2 Cd 0.208500(9) 0.396890(16) 0.813720(15)
Cd2A Cd 0.176757(9) 0.953392(16) 0.528945(15)
Cd2F Cd 0.676757(9) 0.546608(16) 1.028945(15)
Cd2E Cd -0.176757(9) 1.046608(16) 0.471055(15)
Cd2G Cd 0.323243(9) 0.546608(16) 0.471055(15)
Cd2B Cd 0.323243(9) 0.453392(16) 0.971055(15)
Cd3A Cd 0.317343(9) 0.619594(16) 0.329819(15)
Cd3C Cd -0.182657(9) 1.119594(16) 0.329819(15)
Cd3G Cd 0.182657(9) 0.880406(16) 0.670181(15)
Cd3D Cd 0.317343(9) 1.380406(16) 0.829819(15)
Cd3D_2 Cd 0.317343(9) 0.380406(16) 0.829819(15)
H60C H 0.398(2) 0.567(3) 0.850(3)
C43 C 0.3288(6) 0.1406(10) 0.4314(8)
H33 H 0.3081 0.1715 0.3994
C44 C 0.3228(7) 0.1194(10) 0.4834(8)
H34 H 0.2989 0.1352 0.4865
C45 C 0.3545(7) 0.0732(9) 0.5304(9)
H35 H 0.3517 0.0578 0.5659
C46 C 0.3902(7) 0.0495(9) 0.5255(10)
H36 H 0.4109 0.0185 0.5574
C47 C 0.3947(6) 0.0725(9) 0.4729(9)
H37 H 0.4188 0.0569 0.4700
C48 C 0.3640(6) 0.1183(9) 0.4246(10)
H38 H 0.3668 0.1335 0.3891
C49 C 0.2848(7) 0.2623(10) 0.6289(9)
H39 H 0.2759 0.3108 0.6255
C50 C 0.3260(7) 0.2436(13) 0.6809(10)
H40 H 0.3438 0.2790 0.7110
C51 C 0.3404(7) 0.1714(12) 0.6875(9)
H41 H 0.3678 0.1578 0.7220
C52 C 0.3131(5) 0.1200(11) 0.6417(7)
H42 H 0.3221 0.0715 0.6448
C53 C 0.2722(5) 0.1415(8) 0.5909(7)
H43 H 0.2543 0.1059 0.5611
C54 C 0.2563(6) 0.2128(8) 0.5818(8)
H44 H 0.2289 0.2262 0.5472
C55 C 0.4111(5) 0.1876(10) 0.9041(9)
H45 H 0.4034 0.2355 0.9077
C56 C 0.4533(6) 0.1609(10) 0.9417(10)
H46 H 0.4736 0.1942 0.9712
C57 C 0.4696(6) 0.0917(9) 0.9419(10)
H47 H 0.4987 0.0777 0.9689
C58 C 0.4370(6) 0.0466(9) 0.8965(8)
H48 H 0.4447 -0.0011 0.8927
C59 C 0.3937(6) 0.0666(9) 0.8561(8)
H49 H 0.3734 0.0333 0.8264
C60 C 0.3813(5) 0.1372(9) 0.8608(8)
H50 H 0.3522 0.1511 0.8342
C61 C -0.0149(12) 0.361(2) 0.1842(18)
H51 H -0.0256 0.3629 0.1390
C62 C -0.0451(9) 0.3607(15) 0.2057(14)
H52 H -0.0749 0.3615 0.1745
C63 C 0.0323(11) 0.359(2) 0.2277(15)
H53 H 0.0520 0.3569 0.2125
C61A C 0.0149(12) 0.361(2) 0.3158(18)
H51A H 0.0256 0.3629 0.3610
C62A C 0.0451(9) 0.3607(15) 0.2943(14)
H52A H 0.0749 0.3615 0.3255
C63A C -0.0323(11) 0.359(2) 0.2723(15)
H53A H -0.0520 0.3569 0.2875
C64 C 0.4240(7) 0.4613(13) 0.6815(11)
H54 H 0.4142 0.4938 0.6463
C65 C 0.4634(8) 0.4242(16) 0.7042(17)
H55 H 0.4824 0.4279 0.6878
C66 C 0.4688(15) 0.381(2) 0.7564(18)
H56 H 0.4949 0.3545 0.7734
C67 C 0.4478(11) 0.3633(18) 0.7913(17)
H57 H 0.4578 0.3307 0.8265
C68 C 0.4091(11) 0.4032(10) 0.7646(6)
H58 H 0.3904 0.3992 0.7814
C69 C 0.399428(9) 0.449460(16) 0.711972(15)
H59 H 0.3734 0.4756 0.6951
loop_
_geom_bond_atom_site_label_1
_geom_bond_atom_site_label_2
_geom_bond_site_symmetry_1
_geom_bond_site_symmetry_2
N1 C9 1_555 1_555
N2 C25 1_555 1_555
N3 C34 1_555 1_555
N4 C37 1_555 1_555
N5 C40 1_555 1_555
O1 C1 1_555 1_555
O2 C1 1_555 1_555
O4 C10 1_555 1_555
O5 C10 1_555 1_555
O6 C17 1_555 1_555
O7 C17 1_555 1_555
O8 C18 1_555 1_555
O9 C18 1_555 1_555
O10 C26 1_555 1_555
O11 C26 1_555 1_555
O12 C33 1_555 1_555
O13 C33 1_555 1_555
O14 C34 1_555 1_555
O15 C37 1_555 1_555
O16 C40 1_555 1_555
C1 C2 1_555 1_555
C2 C3 1_555 1_555
C3 H1 1_555 1_555
C4 C3 1_555 1_555
H2 C4 1_555 1_555
C5 C4 1_555 1_555
C6 C5 1_555 1_555
H3 C6 1_555 1_555
C8 C2 1_555 1_555
H4 C8 1_555 1_555
C9 C5 1_555 1_555
C10 C11 1_555 1_555
C11 C12 1_555 1_555
C12 H5 1_555 1_555
C13 C12 1_555 1_555
C14 C13 1_555 1_555
H6 C14 1_555 1_555
C15 N1 1_555 1_555
C16 C11 1_555 1_555
H7 C16 1_555 1_555
C17 C13 1_555 1_555
C18 C19 1_555 1_555
C19 C20 1_555 1_555
C20 H8 1_555 1_555
C21 C20 1_555 1_555
H9 C21 1_555 1_555
C22 C21 1_555 1_555
C23 C22 1_555 1_555
H10 C23 1_555 1_555
C24 C19 1_555 1_555
H11 C24 1_555 1_555
C25 C22 1_555 1_555
C26 C27 1_555 1_555
C27 C28 1_555 1_555
C28 H12 1_555 1_555
C29 N2 1_555 1_555
C30 C29 1_555 1_555
H13 C30 1_555 1_555
C31 C30 1_555 1_555
C32 C27 1_555 1_555
H14 C32 1_555 1_555
C33 C31 1_555 1_555
C35 N3 1_555 1_555
H15 C35 1_555 1_555
H16 C35 1_555 1_555
H17 C35 1_555 1_555
C36 N3 1_555 1_555
H18 C36 1_555 1_555
H19 C36 1_555 1_555
H20 C36 1_555 1_555
C38 N4 1_555 1_555
H21 C38 1_555 1_555
H22 C38 1_555 1_555
H23 C38 1_555 1_555
C39 N4 1_555 1_555
H24 C39 1_555 1_555
H25 C39 1_555 1_555
H26 C39 1_555 1_555
C41 N5 1_555 1_555
H27 C41 1_555 1_555
H28 C41 1_555 1_555
H29 C41 1_555 1_555
C42 N5 1_555 1_555
H30 C42 1_555 1_555
H31 C42 1_555 1_555
H32 C42 1_555 1_555
C43 H33 1_555 1_555
C44 C43 1_555 1_555
H34 C44 1_555 1_555
C45 C44 1_555 1_555
H35 C45 1_555 1_555
C46 C45 1_555 1_555
H36 C46 1_555 1_555
C47 C46 1_555 1_555
H37 C47 1_555 1_555
C48 C43 1_555 1_555
H38 C48 1_555 1_555
C49 H39 1_555 1_555
C50 C49 1_555 1_555
H40 C50 1_555 1_555
C51 C50 1_555 1_555
H41 C51 1_555 1_555
C52 C51 1_555 1_555
H42 C52 1_555 1_555
C53 C52 1_555 1_555
H43 C53 1_555 1_555
C54 C49 1_555 1_555
H44 C54 1_555 1_555
C55 H45 1_555 1_555
C56 C55 1_555 1_555
H46 C56 1_555 1_555
C57 C56 1_555 1_555
H47 C57 1_555 1_555
C58 C57 1_555 1_555
H48 C58 1_555 1_555
C59 C58 1_555 1_555
H49 C59 1_555 1_555
C60 C55 1_555 1_555
H50 C60 1_555 1_555
C61 H51 1_555 1_555
C62 C61 1_555 1_555
H52 C62 1_555 1_555
C63 C61 1_555 1_555
H53 C63 1_555 1_555
C64 H54 1_555 1_555
C65 C64 1_555 1_555
H55 C65 1_555 1_555
C66 C65 1_555 1_555
H56 C66 1_555 1_555
C67 C66 1_555 1_555
H57 C67 1_555 1_555
C68 C67 1_555 1_555
H58 C68 1_555 1_555
C69 C64 1_555 1_555
H59 C69 1_555 1_555
Cd1 O1 1_555 1_555
Cd2 O4 1_555 1_555
Cd3 O6 1_555 1_555
H60 C25 1_555 1_555
N1A C9A 1_555 1_555
N2C C25C 1_555 1_555
N3A C34A 1_555 1_555
N4A C37A 1_555 1_555
N5A C40A 1_555 1_555
O1A C1A 1_555 1_555
O2A C1A 1_555 1_555
O4A C10A 1_555 1_555
O5A Cd1 1_555 1_555
O6A C17A 1_555 1_555
O6F Cd2 1_555 1_555
O6G Cd2A 1_555 1_555
O7A C17A 1_555 1_555
O7G Cd1 1_555 1_555
O7F Cd1A 1_555 1_555
O8C C18C 1_555 1_555
O8E Cd2 1_555 1_555
O8D Cd2A 1_555 1_555
O9C Cd3 1_555 1_555
O9B Cd3A 1_555 1_555
O10C C26C 1_555 1_555
O10A Cd2 1_555 1_555
O10G Cd3 1_555 1_555
O10F Cd2G 1_555 1_555
O11C C26C 1_555 1_555
O11A Cd1A 1_555 1_555
O12C C33C 1_555 1_555
O12D Cd3 1_555 1_555
O12E Cd3A 1_555 1_555
O13C Cd1 1_555 1_555
O13B Cd1A 1_555 1_555
O14A C34A 1_555 1_555
O15A C37A 1_555 1_555
O16A C40A 1_555 1_555
C1A C2A 1_555 1_555
C2A C3A 1_555 1_555
C3A H1A 1_555 1_555
C4A C3A 1_555 1_555
H2A C4A 1_555 1_555
C5A C4A 1_555 1_555
C6A C5A 1_555 1_555
H3A C6A 1_555 1_555
C8A C2A 1_555 1_555
H4A C8A 1_555 1_555
C9A C5A 1_555 1_555
C10A O5A 1_555 1_555
C11A C10A 1_555 1_555
C12A C11A 1_555 1_555
H5A C12A 1_555 1_555
C13A C12A 1_555 1_555
C14A C13A 1_555 1_555
H6A C14A 1_555 1_555
C15A N1A 1_555 1_555
C16A C11A 1_555 1_555
H7A C16A 1_555 1_555
C17A C13A 1_555 1_555
C18C O9C 1_555 1_555
C19C C18C 1_555 1_555
C20C C19C 1_555 1_555
H8C C20C 1_555 1_555
C21C C20C 1_555 1_555
H9C C21C 1_555 1_555
C22C C21C 1_555 1_555
C23C C22C 1_555 1_555
H10C C23C 1_555 1_555
C24C C19C 1_555 1_555
H11C C24C 1_555 1_555
C25C C22C 1_555 1_555
C26C C27C 1_555 1_555
C27C C28C 1_555 1_555
C28C H12C 1_555 1_555
C29C N2C 1_555 1_555
C30C C29C 1_555 1_555
H13C C30C 1_555 1_555
C31C C30C 1_555 1_555
C32C C27C 1_555 1_555
H14C C32C 1_555 1_555
C33C O13C 1_555 1_555
C35A N3A 1_555 1_555
H15A C35A 1_555 1_555
H16A C35A 1_555 1_555
H17A C35A 1_555 1_555
C36A N3A 1_555 1_555
H18A C36A 1_555 1_555
H19A C36A 1_555 1_555
H20A C36A 1_555 1_555
C38A N4A 1_555 1_555
H21A C38A 1_555 1_555
H22A C38A 1_555 1_555
H23A C38A 1_555 1_555
C39A N4A 1_555 1_555
H24A C39A 1_555 1_555
H25A C39A 1_555 1_555
H26A C39A 1_555 1_555
C41A N5A 1_555 1_555
H27A C41A 1_555 1_555
H28A C41A 1_555 1_555
H29A C41A 1_555 1_555
C42A N5A 1_555 1_555
H30A C42A 1_555 1_555
H31A C42A 1_555 1_555
H32A C42A 1_555 1_555
C61A H51A 1_555 1_555
C62A C63 1_555 1_555
H52A C62A 1_555 1_555
C63A C62 1_555 1_555
H53A C63A 1_555 1_555
Cd1A O5 1_555 1_555
Cd1G O7 1_555 1_555
Cd1C O13 1_555 1_555
Cd1F O7A 1_555 1_555
Cd1C_2 O11C 1_555 1_555
Cd2A O10 1_555 1_555
Cd2F O6 1_555 1_555
Cd2E O8 1_555 1_555
Cd2G O6A 1_555 1_555
Cd2B O10C 1_555 1_555
Cd3A O6A 1_555 1_555
Cd3C O9 1_555 1_555
Cd3G O10 1_555 1_555
Cd3D O12 1_555 1_555
Cd3D_2 O10C 1_555 1_555
H60C C25C 1_555 1_555
O2 Cd1 1_555 1_555
O11 Cd1 1_555 1_555
O14 Cd2 1_555 1_555
O15 Cd2 1_555 1_555
O16 Cd3 1_555 1_555
C6 C8 1_555 1_555
C14 C15 1_555 1_555
C15 C16 1_555 1_555
C23 C24 1_555 1_555
C28 C29 1_555 1_555
C31 C32 1_555 1_555
C47 C48 1_555 1_555
C53 C54 1_555 1_555
C59 C60 1_555 1_555
C68 C69 1_555 1_555
O1A Cd1A 1_555 1_555
O2A Cd1A 1_555 1_555
O4A Cd2A 1_555 1_555
O6G Cd3G 1_555 1_555
O8C Cd2F 1_555 1_555
O10G Cd2F 1_555 1_555
O10F Cd3A 1_555 1_555
O12C Cd3G 1_555 1_555
O14A Cd2A 1_555 1_555
O15A Cd2A 1_555 1_555
O16A Cd3A 1_555 1_555
C6A C8A 1_555 1_555
C14A C15A 1_555 1_555
C15A C16A 1_555 1_555
C23C C24C 1_555 1_555
C28C C29C 1_555 1_555
C31C C32C 1_555 1_555
C31C C33C 1_555 1_555
C61A C62A 1_555 1_555
C61A C63A 1_555 1_555

#END
