
#######################################################################
#
#                 Cambridge Crystallographic Data Centre
#                                CCDC 
#
#######################################################################
#
# If this CIF has been generated from an entry in the Cambridge 
# Structural Database, then it will include bibliographic, chemical, 
# crystal, experimental, refinement or atomic coordinate data resulting 
# from the CCDC's data processing and validation procedures.
#
#######################################################################

data_REHHOD
_chemical_formula_moiety         '(C48 H45 Cd3 N5 O15)n'
_symmetry_cell_setting           monoclinic
_symmetry_space_group_name_H-M   'C 2/c'
_symmetry_Int_Tables_number      15
_space_group_name_Hall           '-C 2yc'
loop_
_symmetry_equiv_pos_site_id
_symmetry_equiv_pos_as_xyz
1 x,y,z
2 -x,y,1/2-z
3 1/2+x,1/2+y,z
4 1/2-x,1/2+y,1/2-z
5 -x,-y,-z
6 x,-y,1/2+z
7 1/2-x,1/2-y,-z
8 1/2+x,1/2-y,1/2+z
_cell_length_a                   34.799(2)
_cell_length_b                   18.4666(11)
_cell_length_c                   23.031(2)
_cell_angle_alpha                90
_cell_angle_beta                 118.787(10)
_cell_angle_gamma                90
_cell_volume                     12971.1
loop_
_atom_site_label
_atom_site_type_symbol
_atom_site_fract_x
_atom_site_fract_y
_atom_site_fract_z
_atom_site_U_iso_or_equiv
_atom_site_thermal_displace_type
C42 C 0.9513(5) 0.9410(8) 0.9052(6) 0.1313 Uani
H33 H 0.9412 0.9851 0.9124 0.1570 Uiso
C43 C 0.9948(5) 0.9369(9) 0.9193(6) 0.1427 Uani
H34 H 1.0133 0.9769 0.9353 0.1710 Uiso
C44 C 1.0101(6) 0.8712(8) 0.9087(6) 0.1393 Uani
H35 H 1.0389 0.8652 0.9173 0.1670 Uiso
C45 C 0.9797(5) 0.8151(10) 0.8846(6) 0.1438 Uani
H36 H 0.9897 0.7711 0.8773 0.1730 Uiso
C46 C 0.9361(5) 0.8178(8) 0.8703(6) 0.1272 Uani
H37 H 0.9176 0.7779 0.8543 0.1520 Uiso
C47 C 0.9218(5) 0.8839(7) 0.8812(6) 0.1245 Uani
C48 C 0.8752(5) 0.8897(11) 0.8672(9) 0.1443 Uani
H38 H 0.8696 0.9380 0.8767 0.2170 Uiso
H39 H 0.8701 0.8560 0.8946 0.2170 Uiso
H40 H 0.8559 0.8789 0.8213 0.2170 Uiso
Cd1 Cd 0.789832(11) 0.11058(2) 0.69427(2) 0.0427 Uani
Cd2 Cd 1.323590(12) 0.05463(2) 0.96453(2) 0.0471 Uani
Cd3 Cd 1.179180(12) 0.37804(2) 1.17781(2) 0.0467 Uani
O1 O 0.85405(18) 0.1165(3) 0.8082(3) 0.0529 Uani
O2 O 0.86042(19) 0.1280(4) 0.7190(3) 0.0605 Uani
O3 O 1.28009(14) 0.0972(3) 1.0022(2) 0.0516 Uani
O4 O 1.22477(15) 0.0591(2) 0.9057(2) 0.0518 Uani
O5 O 1.18647(13) 0.3333(2) 1.0894(2) 0.0489 Uani
O6 O 1.25518(13) 0.2912(2) 1.1281(2) 0.0471 Uani
O7 O 0.39113(17) -0.1305(4) 0.3863(3) 0.0714 Uani
O8 O 0.38175(14) -0.0439(3) 0.4435(3) 0.0616 Uani
O9 O 0.71723(12) 0.0351(2) 0.6517(2) 0.0451 Uani
O10 O 0.78295(14) -0.0075(2) 0.7211(2) 0.0542 Uani
O11 O 0.80041(14) -0.2670(2) 0.7758(3) 0.0586 Uani
O12 O 0.74333(14) -0.3393(2) 0.7476(2) 0.0490 Uani
O13 O 1.37911(15) 0.0983(3) 1.0621(2) 0.0613 Uani
O14 O 1.3281(2) -0.0619(3) 0.9903(3) 0.0756 Uani
O15 O 1.18525(17) 0.4536(3) 1.2575(3) 0.0685 Uani
N1 N 1.08977(16) 0.1538(3) 0.9108(3) 0.0520 Uani
N2 N 0.61227(16) -0.1700(3) 0.6196(3) 0.0558 Uani
N3 N 1.4010(2) 0.1745(4) 1.1526(3) 0.0761 Uani
N4 N 1.3607(4) -0.1769(6) 1.0121(6) 0.1209 Uani
N5 N 1.2341(2) 0.5391(4) 1.3330(4) 0.0778 Uani
C1 C 0.8768(2) 0.1234(4) 0.7786(5) 0.0680 Uani
C2 C 0.9260(2) 0.1313(4) 0.8218(4) 0.0613 Uani
C3 C 0.9448(3) 0.1444(5) 0.8885(5) 0.0726 Uani
H1 H 0.9271 0.1484 0.9084 0.0870 Uiso
C4 C 0.9904(3) 0.1520(5) 0.9273(4) 0.0709 Uani
H2 H 1.0031 0.1594 0.9729 0.0850 Uiso
C5 C 1.0164(2) 0.1481(4) 0.8962(4) 0.0586 Uani
C6 C 0.9971(2) 0.1308(5) 0.8290(4) 0.0631 Uani
H3 H 1.0146 0.1236 0.8091 0.0760 Uiso
C7 C 0.9523(2) 0.1244(5) 0.7921(4) 0.0630 Uani
H4 H 0.9395 0.1153 0.7467 0.0760 Uiso
C8 C 1.0642(2) 0.1567(4) 0.9370(4) 0.0595 Uani
C9 C 1.23924(19) 0.0945(3) 0.9588(3) 0.0476 Uani
C10 C 1.20901(18) 0.1375(3) 0.9743(3) 0.0410 Uani
C11 C 1.22530(16) 0.1886(3) 1.0249(3) 0.0408 Uani
H5 H 1.2554 0.1956 1.0499 0.0490 Uiso
C12 C 1.19699(17) 0.2295(3) 1.0383(3) 0.0422 Uani
C13 C 1.15169(19) 0.2182(3) 1.0017(3) 0.0448 Uani
H6 H 1.1327 0.2453 1.0107 0.0540 Uiso
C14 C 1.13530(18) 0.1668(3) 0.9521(3) 0.0467 Uani
C15 C 1.16353(19) 0.1277(3) 0.9366(3) 0.0448 Uani
H7 H 1.1522 0.0952 0.9013 0.0540 Uiso
C16 C 1.21469(17) 0.2886(3) 1.0897(3) 0.0422 Uani
C17 C 0.4054(2) -0.0912(4) 0.4369(4) 0.0598 Uani
C18 C 0.4520(2) -0.1006(4) 0.4890(4) 0.0536 Uani
C19 C 0.4722(3) -0.0512(5) 0.5379(5) 0.0690 Uani
H8 H 0.4564 -0.0121 0.5411 0.0830 Uiso
C20 C 0.5165(2) -0.0586(5) 0.5833(4) 0.0671 Uani
H9 H 0.5301 -0.0245 0.6169 0.0800 Uiso
C21 C 0.5404(2) -0.1158(4) 0.5791(4) 0.0593 Uani
C22 C 0.5194(3) -0.1666(4) 0.5306(6) 0.0849 Uani
H10 H 0.5347 -0.2064 0.5278 0.1010 Uiso
C23 C 0.4759(3) -0.1588(5) 0.4864(6) 0.0901 Uani
H11 H 0.4621 -0.1937 0.4537 0.1080 Uiso
C24 C 0.5885(2) -0.1183(4) 0.6237(4) 0.0575 Uani
C25 C 0.74322(19) -0.0169(3) 0.6862(3) 0.0484 Uani
C26 C 0.72245(19) -0.0877(3) 0.6858(3) 0.0461 Uani
C27 C 0.74938(17) -0.1478(3) 0.7164(3) 0.0437 Uani
H12 H 0.7797 -0.1432 0.7371 0.0520 Uiso
C28 C 0.73005(18) -0.2148(3) 0.7154(3) 0.0436 Uani
C29 C 0.68462(19) -0.2226(3) 0.6839(3) 0.0464 Uani
H13 H 0.6719 -0.2673 0.6827 0.0560 Uiso
C30 C 0.65820(19) -0.1613(3) 0.6539(3) 0.0491 Uani
C31 C 0.67749(19) -0.0951(3) 0.6551(3) 0.0487 Uani
H14 H 0.6598 -0.0551 0.6349 0.0580 Uiso
C32 C 0.75983(18) -0.2780(3) 0.7486(3) 0.0438 Uani
C33 C 1.3689(2) 0.1404(4) 1.0943(3) 0.0646 Uani
C34 C 1.4473(3) 0.1653(7) 1.1750(6) 0.1047 Uani
H15 H 1.4639 0.1929 1.2149 0.1570 Uiso
H16 H 1.4539 0.1819 1.1413 0.1570 Uiso
H17 H 1.4548 0.1150 1.1839 0.1570 Uiso
C35 C 1.3871(4) 0.2250(6) 1.1869(5) 0.0926 Uani
H18 H 1.4124 0.2443 1.2248 0.1390 Uiso
H19 H 1.3688 0.2005 1.2013 0.1390 Uiso
H20 H 1.3709 0.2638 1.1575 0.1390 Uiso
C36 C 1.3621(3) -0.0989(6) 1.0073(7) 0.1128 Uani
C37 C 1.4014(5) -0.2147(11) 1.0305(10) 0.1536 Uani
H21 H 1.3971 -0.2658 1.0327 0.2310 Uiso
H22 H 1.4236 -0.1979 1.0730 0.2310 Uiso
H23 H 1.4106 -0.2056 0.9978 0.2310 Uiso
C38 C 1.3172(5) -0.2080(12) 0.9868(10) 0.1652 Uani
H24 H 1.2966 -0.1704 0.9810 0.2480 Uiso
H25 H 1.3175 -0.2432 1.0177 0.2480 Uiso
H26 H 1.3088 -0.2310 0.9449 0.2480 Uiso
C39 C 1.2236(2) 0.4740(4) 1.2945(4) 0.0747 Uani
C40 C 1.1990(3) 0.5817(6) 1.3317(6) 0.0952 Uani
H27 H 1.2110 0.6228 1.3604 0.1430 Uiso
H28 H 1.1801 0.5980 1.2872 0.1430 Uiso
H29 H 1.1824 0.5527 1.3465 0.1430 Uiso
C41 C 1.2802(3) 0.5581(6) 1.3708(5) 0.0881 Uani
H30 H 1.2833 0.6019 1.3952 0.1320 Uiso
H31 H 1.2959 0.5197 1.4012 0.1320 Uiso
H32 H 1.2920 0.5653 1.3411 0.1320 Uiso
Cd1A Cd 1.210168(11) 0.11058(2) 0.80573(2) 0.0427 Uani
Cd1G Cd 1.289832(11) 0.38942(2) 1.19427(2) 0.0427 Uani
Cd1C Cd 0.710168(11) -0.38942(2) 0.80573(2) 0.0427 Uani
Cd2F Cd 1.176410(12) 0.44537(2) 1.03547(2) 0.0471 Uani
Cd2E Cd 0.323590(12) -0.05463(2) 0.46453(2) 0.0471 Uani
Cd2A Cd 0.676410(12) 0.05463(2) 0.53547(2) 0.0471 Uani
Cd3C Cd 0.320820(12) -0.12196(2) 0.32219(2) 0.0467 Uani
Cd3G Cd 0.679180(12) 0.12196(2) 0.67781(2) 0.0467 Uani
Cd3D Cd 0.820820(12) -0.37804(2) 0.82219(2) 0.0467 Uani
O4A O 0.77523(15) 0.0591(2) 0.5943(2) 0.0518 Uani
O5F O 1.31353(13) 0.1667(2) 0.9106(2) 0.0489 Uani
O6G O 0.75518(13) 0.2088(2) 0.6281(2) 0.0471 Uani
O7C O 1.10887(17) 0.3695(4) 1.1137(3) 0.0714 Uani
O8E O 1.38175(14) 0.0439(3) 0.9435(3) 0.0616 Uani
O9A O 1.28277(12) 0.0351(2) 0.8483(2) 0.0451 Uani
O9G O 1.21723(12) 0.4649(2) 1.1517(2) 0.0451 Uani
O11D O 1.19959(14) 0.2670(2) 1.2242(3) 0.0586 Uani
O12C O 0.75667(14) 0.1607(2) 0.7524(2) 0.0490 Uani
O12D O 1.25667(14) 0.3393(2) 1.2524(2) 0.0490 Uani
loop_
_atom_site_aniso_label
_atom_site_aniso_U_11
_atom_site_aniso_U_22
_atom_site_aniso_U_33
_atom_site_aniso_U_23
_atom_site_aniso_U_13
_atom_site_aniso_U_12
C42 0.136(5) 0.123(6) 0.129(6) 0.001(4) 0.059(4) -0.002(4)
C43 0.143(6) 0.141(6) 0.146(6) 0.004(4) 0.071(5) 0.000(4)
C44 0.142(6) 0.136(6) 0.142(6) 0.001(4) 0.070(5) -0.003(4)
C45 0.142(6) 0.143(6) 0.147(6) -0.001(5) 0.070(5) 0.000(4)
C46 0.129(5) 0.120(5) 0.125(6) 0.002(4) 0.055(4) 0.002(4)
C47 0.129(5) 0.122(6) 0.118(6) 0.005(4) 0.056(4) 0.000(4)
C48 0.136(6) 0.151(7) 0.146(7) 0.000(5) 0.068(5) 0.006(4)
Cd1 0.0157(2) 0.0286(2) 0.0625(3) 0.00391(15) 0.00175(18) -0.00157(12)
Cd2 0.0222 0.0329 0.0657 -0.00248 0.0049 0.00449
Cd3 0.0216 0.0315 0.0672 0.0012 0.00561 0.00485
O1 0.028(2) 0.051(3) 0.074(3) -0.011(2) 0.020(2) -0.006(2)
O2 0.030(2) 0.069(3) 0.069(3) 0.005(3) 0.013(2) -0.008(2)
O3 0.023 0.047 0.069 -0.001 0.0095 0.0063
O4 0.041 0.036 0.068 -0.0065 0.018 0.0011
O5 0.0215 0.0325 0.066 -0.0071 -0.0002 0.0014
O6 0.0221 0.034 0.063 -0.0053 0.0029 0.0004
O7 0.031 0.082 0.083 0 0.013 -0.001
O8 0.024 0.055 0.092 0.023 0.017 0.0067
O9 0.0211(17) 0.0266(18) 0.070(2) 0.0033(17) 0.0080(16) 0.0017(14)
O10 0.024(2) 0.032(2) 0.079(3) 0.0083(19) 0.0028(18) -0.0047(16)
O11 0.028 0.036 0.087 0.011 0.008 0.0044
O12 0.031 0.032 0.063 0.0027 0.0058 0.0026
O13 0.033 0.058 0.069 -0.005 0.0054 0.0008
O14 0.079 0.051 0.083 0.007 0.028 0.006
O15 0.061 0.061 0.077 -0.005 0.028 0.006
N1 0.021(2) 0.049(3) 0.067(3) -0.005(2) 0.006(2) -0.005(2)
N2 0.019(2) 0.032(3) 0.087(4) 0.010(2) 0.002(2) -0.0040(19)
N3 0.066 0.065 0.071 -0.012 0.012 -0.009
N4 0.127 0.11 0.123 0.006 0.058 0.019
N5 0.077 0.069 0.082 -0.008 0.034 0.003
C1 0.032(4) 0.036(3) 0.099(6) 0.003(3) 0.002(4) -0.003(3)
C2 0.029(3) 0.044(3) 0.093(5) -0.005(3) 0.015(3) -0.003(3)
C3 0.036(4) 0.075(5) 0.094(5) -0.022(4) 0.021(4) -0.012(4)
C4 0.045(4) 0.084(6) 0.075(4) -0.014(4) 0.022(3) -0.015(4)
C5 0.031(3) 0.053(4) 0.074(4) -0.013(3) 0.011(3) -0.004(3)
C6 0.029(3) 0.078(5) 0.071(4) -0.005(4) 0.015(3) -0.009(3)
C7 0.028(3) 0.074(5) 0.066(4) -0.001(3) 0.006(3) -0.011(3)
C8 0.029(3) 0.057(4) 0.073(4) -0.014(3) 0.009(3) -0.004(3)
C9 0.023 0.033 0.07 0.002 0.009 0
C10 0.024 0.029 0.056 0 0.008 -0.002
C11 0.015 0.026 0.059 0.005 0 0.0006
C12 0.021 0.025 0.06 0.003 0.003 0.0027
C13 0.026 0.035 0.062 0.001 0.012 0.001
C14 0.018 0.037 0.064 -0.003 0.003 -0.004
C15 0.026 0.035 0.057 -0.003 0.007 -0.003
C16 0.018 0.03 0.062 0 0.006 -0.003
C17 0.025 0.058 0.075 0.014 0.007 -0.001
C18 0.02 0.047 0.076 0.012 0.009 0.001
C19 0.037 0.068 0.09 0.011 0.021 0.014
C20 0.028 0.077 0.077 -0.011 0.01 0.004
C21 0.021 0.041 0.09 0.01 0.006 -0.002
C22 0.034 0.042 0.139 -0.014 0.01 0.007
C23 0.035 0.062 0.123 -0.031 -0.002 -0.009
C24 0.024(3) 0.047(4) 0.081(4) 0.012(3) 0.009(3) 0.000(2)
C25 0.024(3) 0.033(3) 0.065(3) 0.006(2) 0.003(2) -0.003(2)
C26 0.022(3) 0.030(3) 0.064(3) 0.003(2) 0.003(2) 0.000(2)
C27 0.016(2) 0.032(3) 0.062(3) 0.004(2) 0.002(2) 0.000(2)
C28 0.022(3) 0.029(3) 0.060(3) 0.003(2) 0.004(2) 0.003(2)
C29 0.024(3) 0.032(3) 0.065(3) 0.000(2) 0.007(2) 0.000(2)
C30 0.025(3) 0.035(3) 0.065(3) 0.008(3) 0.004(2) -0.002(2)
C31 0.021(3) 0.034(3) 0.065(3) 0.004(3) 0.000(2) 0.002(2)
C32 0.025 0.032 0.062 0.003 0.011 0.002
C33 0.055 0.055 0.069 0.002 0.018 -0.003
C34 0.084 0.098 0.107 -0.008 0.026 -0.001
C35 0.097 0.086 0.085 -0.007 0.036 -0.006
C36 0.108 0.112 0.118 0.007 0.054 0.015
C37 0.155 0.145 0.156 0 0.071 0.025
C38 0.165 0.156 0.171 -0.001 0.078 -0.011
C39 0.071 0.069 0.076 -0.005 0.029 0.003
C40 0.093 0.087 0.097 -0.012 0.039 0.012
C41 0.087 0.083 0.086 -0.01 0.035 -0.004
Cd1A 0.0157 0.0286 0.0625 -0.00391 0.00175 0.00157
Cd1G 0.0157 0.0286 0.0625 -0.00391 0.00175 0.00157
Cd1C 0.0157 0.0286 0.0625 -0.00391 0.00175 0.00157
Cd2F 0.0222 0.0329 0.0657 -0.00248 0.0049 0.00449
Cd2E 0.0222 0.0329 0.0657 0.00248 0.0049 -0.00449
Cd2A 0.0222(2) 0.0329(3) 0.0657(3) 0.00248(16) 0.00490(19) -0.00449(14)
Cd3C 0.0216 0.0315 0.0672 -0.0012 0.00561 -0.00485
Cd3G 0.0216(2) 0.0315(2) 0.0672(3) -0.00120(16) 0.00561(19) -0.00485(13)
Cd3D 0.0216 0.0315 0.0672 0.0012 0.00561 0.00485
O4A 0.041 0.036 0.068 0.0065 0.018 -0.0011
O5F 0.0215 0.0325 0.066 -0.0071 -0.0002 0.0014
O6G 0.0221 0.034 0.063 0.0053 0.0029 -0.0004
O7C 0.031 0.082 0.083 0 0.013 0.001
O8E 0.024 0.055 0.092 -0.023 0.017 -0.0067
O9A 0.0211 0.0266 0.07 -0.0033 0.008 -0.0017
O9G 0.0211 0.0266 0.07 -0.0033 0.008 -0.0017
O11D 0.028 0.036 0.087 0.011 0.008 0.0044
O12C 0.031 0.032 0.063 -0.0027 0.0058 -0.0026
O12D 0.031 0.032 0.063 0.0027 0.0058 0.0026
loop_
_geom_bond_atom_site_label_1
_geom_bond_atom_site_label_2
_geom_bond_site_symmetry_1
_geom_bond_site_symmetry_2
Cd1 O1 1_555 1_555
Cd2 O3 1_555 1_555
Cd3 O5 1_555 1_555
O1 C1 1_555 1_555
O2 Cd1 1_555 1_555
O3 C9 1_555 1_555
O4 C9 1_555 1_555
O5 C16 1_555 1_555
O6 C16 1_555 1_555
O7 C17 1_555 1_555
O8 C17 1_555 1_555
O9 Cd1 1_555 1_555
O10 Cd1 1_555 1_555
O11 C32 1_555 1_555
O12 C32 1_555 1_555
O13 Cd2 1_555 1_555
O14 Cd2 1_555 1_555
O15 Cd3 1_555 1_555
N1 C8 1_555 1_555
N2 C24 1_555 1_555
N3 C33 1_555 1_555
N4 C36 1_555 1_555
N5 C39 1_555 1_555
C1 O2 1_555 1_555
C2 C1 1_555 1_555
C3 C2 1_555 1_555
H1 C3 1_555 1_555
C4 C3 1_555 1_555
H2 C4 1_555 1_555
C5 C4 1_555 1_555
C6 C5 1_555 1_555
H3 C6 1_555 1_555
C7 C2 1_555 1_555
H4 C7 1_555 1_555
C8 C5 1_555 1_555
C9 C10 1_555 1_555
C10 C11 1_555 1_555
C11 H5 1_555 1_555
C12 C11 1_555 1_555
C13 C12 1_555 1_555
H6 C13 1_555 1_555
C14 N1 1_555 1_555
C15 C10 1_555 1_555
H7 C15 1_555 1_555
C16 C12 1_555 1_555
C17 C18 1_555 1_555
C18 C19 1_555 1_555
C19 H8 1_555 1_555
C20 C19 1_555 1_555
H9 C20 1_555 1_555
C21 C20 1_555 1_555
C22 C21 1_555 1_555
H10 C22 1_555 1_555
C23 C18 1_555 1_555
H11 C23 1_555 1_555
C24 C21 1_555 1_555
C25 O9 1_555 1_555
C26 C25 1_555 1_555
C27 C26 1_555 1_555
H12 C27 1_555 1_555
C28 C27 1_555 1_555
C29 C28 1_555 1_555
H13 C29 1_555 1_555
C30 N2 1_555 1_555
C31 C26 1_555 1_555
H14 C31 1_555 1_555
C32 C28 1_555 1_555
C33 O13 1_555 1_555
C34 N3 1_555 1_555
H15 C34 1_555 1_555
H16 C34 1_555 1_555
H17 C34 1_555 1_555
C35 N3 1_555 1_555
H18 C35 1_555 1_555
H19 C35 1_555 1_555
H20 C35 1_555 1_555
C36 O14 1_555 1_555
C37 N4 1_555 1_555
H21 C37 1_555 1_555
H22 C37 1_555 1_555
H23 C37 1_555 1_555
C38 N4 1_555 1_555
H24 C38 1_555 1_555
H25 C38 1_555 1_555
H26 C38 1_555 1_555
C39 O15 1_555 1_555
C40 N5 1_555 1_555
H27 C40 1_555 1_555
H28 C40 1_555 1_555
H29 C40 1_555 1_555
C41 N5 1_555 1_555
H30 C41 1_555 1_555
H31 C41 1_555 1_555
H32 C41 1_555 1_555
C42 H33 1_555 1_555
C43 C42 1_555 1_555
H34 C43 1_555 1_555
C44 C43 1_555 1_555
H35 C44 1_555 1_555
C45 C44 1_555 1_555
H36 C45 1_555 1_555
C46 C45 1_555 1_555
H37 C46 1_555 1_555
C47 C42 1_555 1_555
C48 C47 1_555 1_555
H38 C48 1_555 1_555
H39 C48 1_555 1_555
H40 C48 1_555 1_555
Cd1A O4 1_555 1_555
Cd1G O6 1_555 1_555
Cd1C O12 1_555 1_555
Cd2F O5 1_555 1_555
Cd2E O8 1_555 1_555
Cd2A O9 1_555 1_555
Cd3C O7 1_555 1_555
Cd3G O9 1_555 1_555
Cd3D O11 1_555 1_555
O4A Cd1 1_555 1_555
O5F Cd2 1_555 1_555
O6G Cd1 1_555 1_555
O7C Cd3 1_555 1_555
O8E Cd2 1_555 1_555
O9A Cd2 1_555 1_555
O9G Cd3 1_555 1_555
O11D Cd3 1_555 1_555
O12C Cd1 1_555 1_555
O12D Cd3 1_555 1_555
O10 C25 1_555 1_555
O12 Cd3D 1_555 1_555
C6 C7 1_555 1_555
C13 C14 1_555 1_555
C14 C15 1_555 1_555
C22 C23 1_555 1_555
C29 C30 1_555 1_555
C30 C31 1_555 1_555
C46 C47 1_555 1_555
Cd1A O9A 1_555 1_555
Cd1G O9G 1_555 1_555
Cd1G O12D 1_555 1_555
Cd2F O9G 1_555 1_555
Cd3G O12C 1_555 1_555

#END
