
#######################################################################
#
#                 Cambridge Crystallographic Data Centre
#                                CCDC 
#
#######################################################################
#
# If this CIF has been generated from an entry in the Cambridge 
# Structural Database, then it will include bibliographic, chemical, 
# crystal, experimental, refinement or atomic coordinate data resulting 
# from the CCDC's data processing and validation procedures.
#
#######################################################################

data_REHJAR
_chemical_formula_moiety         'C41 H16 Cd12 N5 O23'
_symmetry_cell_setting           monoclinic
_symmetry_space_group_name_H-M   'C 2/c'
_symmetry_Int_Tables_number      15
_space_group_name_Hall           '-C 2yc'
loop_
_symmetry_equiv_pos_site_id
_symmetry_equiv_pos_as_xyz
1 x,y,z
2 -x,y,1/2-z
3 1/2+x,1/2+y,z
4 1/2-x,1/2+y,1/2-z
5 -x,-y,-z
6 x,-y,1/2+z
7 1/2-x,1/2-y,-z
8 1/2+x,1/2-y,1/2+z
_cell_length_a                   33.943(2)
_cell_length_b                   18.5224(11)
_cell_length_c                   21.2174(18)
_cell_angle_alpha                90
_cell_angle_beta                 116.291(9)
_cell_angle_gamma                90
_cell_volume                     11959.6
loop_
_atom_site_label
_atom_site_type_symbol
_atom_site_fract_x
_atom_site_fract_y
_atom_site_fract_z
_atom_site_U_iso_or_equiv
_atom_site_thermal_displace_type
Cd1 Cd 0.70985(3) 0.09876(5) 0.80078(6) 0.0759 Uani
Cd2 Cd 0.32245(4) 0.38881(6) 0.30651(8) 0.0931 Uani
Cd3 Cd 0.32203(3) 0.44911(6) 0.46072(5) 0.0812 Uani
C1 C 0.6223(5) 0.1053(9) 0.7340(8) 0.0805 Uani
C2 C 0.5718(9) 0.103(2) 0.7096(15) 0.1085 Uani
C4 C 0.5550(11) 0.168(2) 0.6744(14) 0.0917 Uani
H1 H 0.5720 0.2062 0.6717 0.1110 Uiso
C6 C 0.5001(12) 0.1670(19) 0.6377(15) 0.1056 Uani
H3 H 0.4839 0.2065 0.6122 0.1280 Uiso
C8 C 0.4804(10) 0.1096(18) 0.6457(13) 0.1069 Uani
C10 C 0.4982(10) 0.0464(19) 0.6811(15) 0.1295 Uani
H5 H 0.4819 0.0076 0.6846 0.1520 Uiso
C12 C 0.5436(9) 0.049(2) 0.7109(17) 0.1450 Uani
H7 H 0.5576 0.0073 0.7356 0.1760 Uiso
C14 C 0.4380(11) 0.127(3) 0.615(2) 0.1332 Uani
C16 C 0.2847(4) 0.2940(7) 0.4021(7) 0.0752 Uani
C17 C 0.3017(4) 0.2318(7) 0.4472(7) 0.0751 Uani
C18 C 0.3485(4) 0.2209(7) 0.4851(7) 0.0721 Uani
C19 C 0.3635(4) 0.1638(7) 0.5345(7) 0.0665 Uani
C20 C 0.3345(4) 0.1228(7) 0.5498(8) 0.0753 Uani
C21 C 0.2889(4) 0.1368(7) 0.5168(7) 0.0758 Uani
C22 C 0.2738(4) 0.1913(7) 0.4647(7) 0.0726 Uani
C23 C 0.2594(5) 0.0948(7) 0.5337(9) 0.0769 Uani
C24 C 1.0957(9) -0.0842(19) 1.0792(15) 0.1616 Uani
C25 C 1.0441(7) -0.0919(10) 1.0297(14) 0.1742 Uani
C26 C 1.0243(8) -0.1501(19) 1.0486(19) 0.2264 Uani
H12 H 1.0382 -0.1874 1.0800 0.2710 Uiso
C27 C 0.9833(7) -0.140(2) 1.0132(13) 0.2146 Uani
H13 H 0.9666 -0.1415 1.0381 0.2590 Uiso
C28 C 0.9619(4) -0.1268(7) 0.9461(8) 0.0773 Uani
C29 C 0.9850(7) -0.0769(17) 0.9227(12) 0.1467 Uani
H14 H 0.9705 -0.0561 0.8783 0.1770 Uiso
C30 C 1.0277(8) -0.0593(12) 0.9642(14) 0.1496 Uani
H15 H 1.0441 -0.0288 0.9501 0.1800 Uiso
C31 C 0.9145(5) -0.1355(10) 0.9105(12) 0.1202 Uani
C32 C 0.7578(4) -0.0308(7) 0.8084(6) 0.0645 Uani
C33 C 0.7786(4) -0.0996(6) 0.8178(6) 0.0560 Uani
C34 C 0.7537(4) -0.1615(7) 0.7891(7) 0.0737 Uani
H16 H 0.7235 -0.1576 0.7624 0.0880 Uiso
C35 C 0.7737(4) -0.2296(7) 0.8001(6) 0.0662 Uani
C36 C 0.8189(4) -0.2324(7) 0.8323(8) 0.0928 Uani
H17 H 0.8327 -0.2771 0.8389 0.1110 Uiso
C37 C 0.8443(4) -0.1711(7) 0.8552(7) 0.0867 Uani
C38 C 0.8245(4) -0.1047(7) 0.8505(6) 0.0630 Uani
H18 H 0.8416 -0.0636 0.8690 0.0760 Uiso
C39 C 0.7455(5) -0.2942(7) 0.7742(8) 0.0776 Uani
C40 C 0.2789(7) 0.4656(15) 0.1897(11) 0.1650 Uani
C41 C 0.2067(10) 0.524(2) 0.1214(14) 0.2344 Uani
C42 C 0.2882(13) 0.557(2) 0.152(2) 0.3031 Uani
C43 C 0.3744(7) 0.3769(14) 0.5957(9) 0.1907 Uani
C44 C 0.4427(8) 0.3373(19) 0.6741(17) 0.2176 Uani
H25 H 0.4598 0.3113 0.7167 0.3270 Uiso
H26 H 0.4513 0.3872 0.6804 0.3270 Uiso
H27 H 0.4476 0.3173 0.6365 0.3270 Uiso
C45 C 0.4022(19) 0.2587(18) 0.638(3) 0.3103 Uani
H28 H 0.4258 0.2356 0.6766 0.4720 Uiso
H29 H 0.4090 0.2604 0.5982 0.4720 Uiso
C46 C 0.3233(14) 0.6319(7) 0.497(2) 0.2328 Uani
C47 C 0.3108(15) 0.6560(18) 0.5483(17) 0.2331 Uani
C48 C 0.3648(12) 0.6837(19) 0.529(3) 0.2597 Uani
N1 N 0.4100(4) 0.1534(9) 0.5745(7) 0.1009 Uani
N2 N 0.8908(4) -0.1756(8) 0.8972(8) 0.0605 Uani
N3 N 0.2507(9) 0.5086(19) 0.1294(15) 0.2585 Uani
N4 N 0.3965(7) 0.3315(16) 0.6572(12) 0.2189 Uani
N5 N 0.3200(14) 0.7089(8) 0.506(2) 0.2474 Uani
O1 O 0.6427(6) 0.1075(12) 0.6931(10) 0.0822 Uani
O3 O 0.6361(6) 0.0466(9) 0.7827(9) 0.0899 Uani
O4 O 0.2442(3) 0.2992(5) 0.3631(5) 0.0884 Uani
O5 O 0.3132(3) 0.3381(5) 0.3981(5) 0.0846 Uani
O6 O 0.2718(3) 0.0557(5) 0.5867(6) 0.0869 Uani
O7 O 0.2177(4) 0.0980(5) 0.4898(7) 0.0980 Uani
O8 O 1.1205(3) -0.0483(5) 1.0750(6) 0.0979 Uani
O9 O 1.1105(4) -0.1192(11) 1.1392(10) 0.1624 Uani
O10 O 0.7172(3) -0.0215(5) 0.7748(5) 0.0824 Uani
O11 O 0.7822(3) 0.0266(4) 0.8402(4) 0.0714 Uani
O12 O 0.7629(3) -0.3554(5) 0.7758(5) 0.0819 Uani
O13 O 0.7057(3) -0.2861(6) 0.7496(5) 0.0921 Uani
O14 O 0.3197(7) 0.4614(8) 0.2235(10) 0.1511 Uani
O15 O 0.3810(4) 0.4033(8) 0.5469(7) 0.1367 Uani
O16 O 0.3265(5) 0.5646(6) 0.4997(7) 0.1215 Uani
Cd1G Cd 0.20985(3) 0.40124(5) 0.30078(6) 0.0759 Uani
Cd1A Cd 0.29015(3) 0.09876(5) 0.69922(6) 0.0759 Uani
Cd1C Cd 0.79015(3) -0.40124(5) 0.69922(6) 0.0759 Uani
Cd2C Cd 1.17755(4) -0.11119(6) 1.19349(8) 0.0931 Uani
Cd2G Cd 0.82245(4) 0.11119(6) 0.80651(8) 0.0931 Uani
Cd2D Cd 0.67755(4) -0.38881(6) 0.69349(8) 0.0931 Uani
Cd3F Cd 0.17797(3) 0.05089(6) 0.53928(5) 0.0812 Uani
Cd3C Cd 1.17797(3) -0.05089(6) 1.03928(5) 0.0812 Uani
Cd3G Cd 0.82203(3) 0.05089(6) 0.96072(5) 0.0812 Uani
O4G O 0.7442(3) 0.2008(5) 0.8631(5) 0.0884 Uani
O6A O 0.7282(3) 0.0557(5) 0.9133(6) 0.0869 Uani
O7F O 0.2823(4) 0.4020(5) 0.5102(7) 0.0980 Uani
O8C O 0.3795(3) 0.4517(5) 0.4250(6) 0.0979 Uani
O9C O 0.3895(4) 0.3808(11) 0.3608(10) 0.1624 Uani
O11G O 0.2822(3) 0.4734(4) 0.3402(4) 0.0714 Uani
O12C O 0.7371(3) 0.1446(5) 0.7242(5) 0.0819 Uani
O13D O 0.2943(3) 0.2861(6) 0.2504(5) 0.0921 Uani
loop_
_atom_site_aniso_label
_atom_site_aniso_U_11
_atom_site_aniso_U_22
_atom_site_aniso_U_33
_atom_site_aniso_U_23
_atom_site_aniso_U_13
_atom_site_aniso_U_12
Cd1 0.0219 0.059 0.1187 -0.0234 0.0056 0.0002
Cd2 0.0613(8) 0.0542(7) 0.1671(12) -0.0183(6) 0.0535(7) -0.0163(5)
Cd3 0.0468(6) 0.0675(7) 0.0963(8) 0.0109(4) 0.0018(5) -0.0220(5)
C1 0.049 0.09 0.095 -0.008 0.025 0.003
C2 0.037 0.15 0.12 0.012 0.018 0.015
C4 0.053 0.16 0.059 0.008 0.022 0.021
C6 0.063 0.14 0.08 0.06 0.001 0.014
C8 0.052 0.14 0.079 0.05 -0.016 0.004
C10 0.044 0.15 0.16 0.08 0.014 0.014
C12 0.038 0.22 0.18 0.09 0.051 0.032
C14 0.06 0.19 0.15 0.11 0.047 0.051
C16 0.034 0.056 0.098 -0.001 -0.005 0.002
C17 0.024 0.05 0.123 0.002 0.007 -0.004
C18 0.027 0.079 0.093 0.021 0.011 0.012
C19 0.028 0.066 0.097 0.005 0.02 0.007
C20 0.039 0.047 0.118 0.019 0.015 0.006
C21 0.037 0.063 0.105 0.01 0.011 -0.001
C22 0.024 0.063 0.103 -0.004 0.003 -0.004
C23 0.057 0.038 0.135 0.006 0.042 0.007
C24 0.076 0.2 0.176 0.002 0.026 -0.041
C25 0.085 0.053 0.241 0.002 -0.058 -0.04
C26 0.051 0.21 0.32 0.11 -0.007 -0.003
C27 0.041 0.43 0.152 0.08 0.024 0.031
C28 0.028 0.055 0.131 -0.008 0.019 0.008
C29 0.063 0.25 0.128 0.019 0.043 0.033
C30 0.086 0.093 0.224 -0.004 0.027 0.015
C31 0.034 0.066 0.216 -0.054 0.015 -0.013
C32 0.03 0.064 0.082 -0.004 0.009 0.005
C33 0.033 0.055 0.065 -0.012 0.008 -0.001
C34 0.018 0.061 0.117 -0.006 0.007 0.003
C35 0.041 0.052 0.083 -0.012 0.007 -0.004
C36 0.045 0.036 0.141 -0.022 -0.01 -0.001
C37 0.034 0.05 0.118 -0.022 -0.019 -0.006
C38 0.031 0.052 0.088 -0.005 0.01 0.003
C39 0.057 0.04 0.113 0.008 0.017 -0.016
C40 0.218(15) 0.135(12) 0.137(9) 0.009(10) 0.074(13) 0.018(16)
C41 0.274(19) 0.31(3) 0.152(19) 0.11(2) 0.124(19) 0.10(2)
C42 0.29(2) 0.24(3) 0.31(3) 0.14(2) 0.07(3) 0.009(19)
C43 0.168(19) 0.25(2) 0.082(11) -0.003(10) -0.010(10) 0.080(18)
C44 0.143(15) 0.20(2) 0.22(3) 0.04(2) -0.001(17) 0.038(18)
C45 0.32(4) 0.173(17) 0.36(4) 0.04(2) 0.08(3) -0.03(2)
C46 0.27(3) 0.113(8) 0.36(3) -0.105(18) 0.18(3) -0.046(18)
C47 0.31(3) 0.15(2) 0.22(3) -0.084(18) 0.10(2) -0.02(2)
C48 0.25(2) 0.107(17) 0.37(4) -0.06(2) 0.09(3) -0.036(16)
N1 0.036 0.113 0.121 0.022 0.005 0.019
N2 0.027 0.043 0.087 -0.006 0.003 0.005
N3 0.239(17) 0.30(3) 0.27(2) 0.18(2) 0.143(14) 0.032(16)
N4 0.133(15) 0.22(2) 0.202(18) 0.069(14) -0.018(13) 0.049(18)
N5 0.31(3) 0.110(9) 0.34(3) -0.046(17) 0.16(3) 0.02(2)
O1 0.053 0.102 0.081 -0.014 0.02 0.02
O3 0.071 0.088 0.107 0.001 0.036 0
O4 0.048 0.048 0.124 0.014 -0.003 -0.012
O5 0.042 0.043 0.124 0.003 -0.004 -0.01
O6 0.061 0.057 0.132 0.004 0.033 -0.003
O7 0.061 0.063 0.161 0.017 0.041 -0.003
O8 0.037 0.06 0.166 -0.027 0.017 0.002
O9 0.047 0.205 0.209 0.043 0.033 0.012
O10 0.035 0.055 0.116 -0.014 -0.004 -0.002
O11 0.041 0.039 0.106 -0.005 0.007 0.003
O12 0.047 0.054 0.124 0.003 0.019 -0.011
O13 0.049 0.074 0.127 -0.014 0.015 -0.006
O14 0.202(14) 0.094(8) 0.186(10) 0.006(7) 0.112(10) 0.000(10)
O15 0.048(5) 0.144(10) 0.142(6) -0.014(6) -0.027(5) 0.016(6)
O16 0.106(10) 0.089(5) 0.150(8) -0.029(6) 0.039(7) -0.029(6)
Cd1G 0.0219 0.059 0.1187 0.0234 0.0056 -0.0002
Cd1A 0.0219 0.059 0.1187 0.0234 0.0056 -0.0002
Cd1C 0.0219 0.059 0.1187 0.0234 0.0056 -0.0002
Cd2C 0.0613 0.0542 0.1671 0.0183 0.0535 0.0163
Cd2G 0.0613 0.0542 0.1671 0.0183 0.0535 0.0163
Cd2D 0.0613 0.0542 0.1671 -0.0183 0.0535 -0.0163
Cd3F 0.0468 0.0675 0.0963 0.0109 0.0018 -0.022
Cd3C 0.0468 0.0675 0.0963 -0.0109 0.0018 0.022
Cd3G 0.0468 0.0675 0.0963 -0.0109 0.0018 0.022
O4G 0.048 0.048 0.124 -0.014 -0.003 0.012
O6A 0.061 0.057 0.132 -0.004 0.033 0.003
O7F 0.061 0.063 0.161 0.017 0.041 -0.003
O8C 0.037(4) 0.060(6) 0.166(7) 0.027(4) 0.017(4) -0.002(4)
O9C 0.047(5) 0.205(16) 0.209(11) -0.043(8) 0.033(5) -0.012(6)
O11G 0.041 0.039 0.106 0.005 0.007 -0.003
O12C 0.047 0.054 0.124 -0.003 0.019 0.011
O13D 0.049 0.074 0.127 -0.014 0.015 -0.006
loop_
_geom_bond_atom_site_label_1
_geom_bond_atom_site_label_2
_geom_bond_site_symmetry_1
_geom_bond_site_symmetry_2
Cd1 O1 1_555 1_555
Cd2 O5 1_555 1_555
Cd3 O5 1_555 1_555
C1 C2 1_555 1_555
C2 C4 1_555 1_555
C4 H1 1_555 1_555
C6 C4 1_555 1_555
H3 C6 1_555 1_555
C8 C6 1_555 1_555
C10 C8 1_555 1_555
H5 C10 1_555 1_555
C12 C2 1_555 1_555
H7 C12 1_555 1_555
C14 C8 1_555 1_555
C16 C17 1_555 1_555
C17 C18 1_555 1_555
C18 C19 1_555 1_555
C19 C20 1_555 1_555
C20 C21 1_555 1_555
C21 C22 1_555 1_555
C22 C17 1_555 1_555
C23 C21 1_555 1_555
C24 C25 1_555 1_555
C25 C26 1_555 1_555
C26 H12 1_555 1_555
C27 C26 1_555 1_555
H13 C27 1_555 1_555
C28 C27 1_555 1_555
C29 C28 1_555 1_555
H14 C29 1_555 1_555
C30 C25 1_555 1_555
H15 C30 1_555 1_555
C31 C28 1_555 1_555
C32 C33 1_555 1_555
C33 C34 1_555 1_555
C34 H16 1_555 1_555
C35 C34 1_555 1_555
C36 C35 1_555 1_555
H17 C36 1_555 1_555
C37 C36 1_555 1_555
C38 C33 1_555 1_555
H18 C38 1_555 1_555
C39 C35 1_555 1_555
C40 N3 1_555 1_555
C41 N3 1_555 1_555
C42 N3 1_555 1_555
C43 N4 1_555 1_555
C44 H25 1_555 1_555
H26 C44 1_555 1_555
H27 C44 1_555 1_555
C45 H28 1_555 1_555
H29 C45 1_555 1_555
C46 C47 1_555 1_555
C47 N5 1_555 1_555
C48 C46 1_555 1_555
N1 C14 1_555 1_555
N2 C31 1_555 1_555
N4 C44 1_555 1_555
N5 C46 1_555 1_555
O1 C1 1_555 1_555
O3 Cd1 1_555 1_555
O4 C16 1_555 1_555
O5 C16 1_555 1_555
O6 C23 1_555 1_555
O7 C23 1_555 1_555
O8 C24 1_555 1_555
O9 C24 1_555 1_555
O10 Cd1 1_555 1_555
O11 Cd1 1_555 1_555
O12 C39 1_555 1_555
O13 C39 1_555 1_555
O14 Cd2 1_555 1_555
O15 Cd3 1_555 1_555
O16 Cd3 1_555 1_555
Cd1G O4 1_555 1_555
Cd1A O6 1_555 1_555
Cd1C O12 1_555 1_555
Cd2C O9 1_555 1_555
Cd2G O11 1_555 1_555
Cd2D O13 1_555 1_555
Cd3F O7 1_555 1_555
Cd3C O8 1_555 1_555
Cd3G O11 1_555 1_555
O4G Cd1 1_555 1_555
O6A Cd1 1_555 1_555
O7F Cd3 1_555 1_555
O8C Cd3 1_555 1_555
O9C Cd2 1_555 1_555
O11G Cd2 1_555 1_555
O12C Cd1 1_555 1_555
O13D Cd2 1_555 1_555
Cd3 O11G 1_555 1_555
C1 O3 1_555 1_555
C10 C12 1_555 1_555
C19 N1 1_555 1_555
C29 C30 1_555 1_555
C32 O10 1_555 1_555
C32 O11 1_555 1_555
C37 C38 1_555 1_555
C37 N2 1_555 1_555
C40 O14 1_555 1_555
C43 O15 1_555 1_555
C45 N4 1_555 1_555
C46 O16 1_555 1_555
C48 N5 1_555 1_555
Cd1G O11G 1_555 1_555

#END
