
#######################################################################
#
#                 Cambridge Crystallographic Data Centre
#                                CCDC 
#
#######################################################################
#
# If this CIF has been generated from an entry in the Cambridge 
# Structural Database, then it will include bibliographic, chemical, 
# crystal, experimental, refinement or atomic coordinate data resulting 
# from the CCDC's data processing and validation procedures.
#
#######################################################################

data_YEGDAR
_chemical_formula_moiety         '(C64 H64 Mn3 N8 O12)n'
_symmetry_cell_setting           orthorhombic
_symmetry_space_group_name_H-M   'A m a 2'
_symmetry_Int_Tables_number      40
_space_group_name_Hall           'A 2 -2a'
loop_
_symmetry_equiv_pos_site_id
_symmetry_equiv_pos_as_xyz
1 x,y,z
2 -x,-y,z
3 1/2+x,-y,z
4 1/2-x,y,z
5 x,1/2+y,1/2+z
6 -x,1/2-y,1/2+z
7 1/2+x,1/2-y,1/2+z
8 1/2-x,1/2+y,1/2+z
_cell_length_a                   33.611(3)
_cell_length_b                   13.8679(14)
_cell_length_c                   13.7856(14)
_cell_angle_alpha                90
_cell_angle_beta                 90
_cell_angle_gamma                90
_cell_volume                     6425.66
loop_
_atom_site_label
_atom_site_type_symbol
_atom_site_fract_x
_atom_site_fract_y
_atom_site_fract_z
Mn1 Mn 0.607418(14) 1.03738(4) 1.00997(4)
Mn2 Mn 0.5000 1.0000 1.02731(5)
O1 O 0.56231(8) 0.95123(19) 0.9422(2)
O2 O 0.50501(8) 0.8818(2) 0.9197(2)
O3 O 0.49710(7) 0.6239(2) 0.6590(2)
O4 O 0.55202(6) 0.56209(17) 0.60310(18)
O5 O 0.64387(8) 1.0250(2) 0.8760(2)
O6 O 0.67536(7) 1.06032(19) 1.0107(2)
N1 N 0.60250(9) 1.1939(2) 0.9821(2)
N2 N 0.57755(11) 1.3363(2) 0.9493(3)
N3 N 0.62223(9) 1.9231(2) 1.1142(3)
N4 N 0.61124(10) 1.7860(3) 1.1930(2)
C4 C 0.54169(11) 0.8855(3) 0.9046(3)
C5 C 0.56134(10) 0.8119(2) 0.8422(3)
C6 C 0.60224(11) 0.8010(3) 0.8456(3)
H10 H 0.6171 0.8432 0.8834
C7 C 0.62186(10) 0.7284(3) 0.7938(2)
C8 C 0.59814(10) 0.6705(3) 0.7341(3)
H11 H 0.6103 0.6226 0.6973
C9 C 0.55735(9) 0.6818(2) 0.7277(3)
C10 C 0.53863(9) 0.7515(3) 0.7835(3)
H12 H 0.5111 0.7578 0.7818
C11 C 0.53371(10) 0.6189(2) 0.6605(2)
C12 C 0.66664(11) 0.7137(3) 0.7987(3)
C13 C 0.67560(12) 1.0434(3) 0.9215(3)
C14 C 0.71416(11) 1.0431(3) 0.8676(3)
C15 C 0.7500 1.0474(4) 0.9179(4)
H13 H 0.7500 1.0532 0.9851
C16 C 0.71478(13) 1.0368(3) 0.7668(3)
H14 H 0.6908 1.0347 0.7335
C17 C 0.7500 1.0337(5) 0.7145(4)
C18 C 0.7500 1.0305(6) 0.6043(5)
C19 C 0.7143(3) 0.9838(7) 0.5631(5)
H15 H 0.7110 0.9211 0.5914
H16 H 0.7174 0.9776 0.4941
H17 H 0.6913 1.0225 0.5769
C20 C 0.7500 1.1325(8) 0.5679(7)
C21 C 0.63303(13) 1.2564(3) 0.9609(3)
H21 H 0.6599 1.2403 0.9603
C22 C 0.61834(15) 1.3438(3) 0.9411(4)
H22 H 0.6328 1.3987 0.9250
C23 C 0.56997(13) 1.2457(3) 0.9742(3)
H23 H 0.5445 1.2216 0.9848
C24 C 0.54899(16) 1.4161(3) 0.9421(4)
H24 H 0.5222 1.3919 0.9521
H25 H 0.5503 1.4442 0.8777
C25 C 0.55826(12) 1.4924(3) 1.0170(4)
C26 C 0.5585(3) 1.4735(4) 1.1134(4)
H26 H 0.5508 1.4125 1.1342
C27 C 0.5693(3) 1.5394(4) 1.1812(4)
H27 H 0.5705 1.5222 1.2463
C28 C 0.57855(13) 1.6309(3) 1.1534(3)
C29 C 0.57760(19) 1.6514(4) 1.0578(3)
H28 H 0.5836 1.7136 1.0372
C30 C 0.56790(16) 1.5821(3) 0.9899(3)
H29 H 0.5681 1.5980 0.9244
C31 C 0.58944(15) 1.7048(3) 1.2309(3)
H30 H 0.5652 1.7279 1.2614
H31 H 0.6053 1.6735 1.2805
C32 C 0.59513(12) 1.8662(3) 1.1533(3)
H32 H 0.5680 1.8797 1.1535
C33 C 0.65784(13) 1.8775(3) 1.1316(3)
H33 H 0.6826 1.9006 1.1129
C34 C 0.65149(13) 1.7946(3) 1.1798(3)
H34 H 0.6708 1.7512 1.2002
C35 C 0.6824(4) 0.7505(11) 0.8953(7)
C36 C 0.6842(4) 0.7783(11) 0.7184(9)
C37 C 0.6804(4) 0.6122(6) 0.7821(12)
H35 H 0.6784 0.8190 0.8993
H36 H 0.7103 0.7366 0.9001
H37 H 0.6685 0.7193 0.9473
H38 H 0.6741 0.7582 0.6565
H39 H 0.7127 0.7729 0.7187
H40 H 0.6768 0.8442 0.7300
H41 H 0.6671 0.5699 0.8267
H42 H 0.7086 0.6085 0.7922
H43 H 0.6742 0.5933 0.7168
Mn1A Mn 0.392582(14) 0.96262(4) 1.00997(4)
Mn1D Mn 0.607418(14) 0.53738(4) 0.50997(4)
Mn1_2 Mn 0.607418(14) 2.03738(4) 1.00997(4)
Mn1C Mn 0.892582(14) 1.03738(4) 1.00997(4)
Mn1E Mn 0.392582(14) 1.46262(4) 0.50997(4)
Mn1_3 Mn 0.607418(14) 0.03738(4) 1.00997(4)
Mn2D Mn 0.5000 0.5000 0.52731(5)
Mn2D_2 Mn 0.5000 1.5000 0.52731(5)
O1A O 0.43769(8) 1.04877(19) 0.9422(2)
O2A O 0.49499(8) 1.1182(2) 0.9197(2)
O3A O 0.50290(7) 1.3761(2) 0.6590(2)
O4A O 0.44798(6) 1.43791(17) 0.60310(18)
O4D O 0.55202(6) 1.06209(17) 1.10310(18)
O4E O 0.44798(6) 0.93791(17) 1.10310(18)
O5C O 0.85613(8) 1.0250(2) 0.8760(2)
O5A O 0.35613(8) 0.9750(2) 0.8760(2)
O6C O 0.82464(7) 1.06032(19) 1.0107(2)
O6A O 0.32464(7) 0.93968(19) 1.0107(2)
N1_2 N 0.60250(9) 0.1939(2) 0.9821(2)
N1A N 0.39750(9) 0.8061(2) 0.9821(2)
N2_2 N 0.57755(11) 0.3363(2) 0.9493(3)
N3_2 N 0.62223(9) 0.9231(2) 1.1142(3)
N3A N 0.37777(9) 1.0769(2) 1.1142(3)
N4_2 N 0.61124(10) 0.7860(3) 1.1930(2)
C4A C 0.45831(11) 1.1145(3) 0.9046(3)
C5A C 0.43866(10) 1.1881(2) 0.8422(3)
C6A C 0.39776(11) 1.1990(3) 0.8456(3)
H10A H 0.3829 1.1568 0.8834
C7A C 0.37814(10) 1.2716(3) 0.7938(2)
C8A C 0.40186(10) 1.3295(3) 0.7341(3)
H11A H 0.3897 1.3774 0.6973
C9A C 0.44265(9) 1.3182(2) 0.7277(3)
C10A C 0.46137(9) 1.2485(3) 0.7835(3)
H12A H 0.4889 1.2422 0.7818
C11A C 0.46629(10) 1.3811(2) 0.6605(2)
C12A C 0.33336(11) 1.2863(3) 0.7987(3)
C13C C 0.82440(12) 1.0434(3) 0.9215(3)
C14C C 0.78584(11) 1.0431(3) 0.8676(3)
C16C C 0.78522(13) 1.0368(3) 0.7668(3)
H14C H 0.8092 1.0347 0.7335
C19C C 0.7857(3) 0.9838(7) 0.5631(5)
H15C H 0.7890 0.9211 0.5914
H16C H 0.7826 0.9776 0.4941
H17C H 0.8087 1.0225 0.5769
C21_2 C 0.63303(13) 0.2564(3) 0.9609(3)
H21_2 H 0.6599 0.2403 0.9603
C22_2 C 0.61834(15) 0.3438(3) 0.9411(4)
H22_2 H 0.6328 0.3987 0.9250
C23_2 C 0.56997(13) 0.2457(3) 0.9742(3)
H23_2 H 0.5445 0.2216 0.9848
C24_2 C 0.54899(16) 0.4161(3) 0.9421(4)
H24_2 H 0.5222 0.3919 0.9521
H25_2 H 0.5503 0.4442 0.8777
C25_2 C 0.55826(12) 0.4924(3) 1.0170(4)
C26_2 C 0.5585(3) 0.4735(4) 1.1134(4)
H26_2 H 0.5508 0.4125 1.1342
C27_2 C 0.5693(3) 0.5394(4) 1.1812(4)
H27_2 H 0.5705 0.5222 1.2463
C28_2 C 0.57855(13) 0.6309(3) 1.1534(3)
C29_2 C 0.57760(19) 0.6514(4) 1.0578(3)
H28_2 H 0.5836 0.7136 1.0372
C30_2 C 0.56790(16) 0.5821(3) 0.9899(3)
H29_2 H 0.5681 0.5980 0.9244
C31_2 C 0.58944(15) 0.7048(3) 1.2309(3)
H30_2 H 0.5652 0.7279 1.2614
H31_2 H 0.6053 0.6735 1.2805
C32_2 C 0.59513(12) 0.8662(3) 1.1533(3)
H32_2 H 0.5680 0.8797 1.1535
C33_2 C 0.65784(13) 0.8775(3) 1.1316(3)
H33_2 H 0.6826 0.9006 1.1129
C34_2 C 0.65149(13) 0.7946(3) 1.1798(3)
H34_2 H 0.6708 0.7512 1.2002
C35A C 0.3176(4) 1.2495(11) 0.8953(7)
C36A C 0.3158(4) 1.2217(11) 0.7184(9)
C37A C 0.3196(4) 1.3878(6) 0.7821(12)
H35A H 0.3216 1.1810 0.8993
H36A H 0.2897 1.2634 0.9001
H37A H 0.3315 1.2807 0.9473
H38A H 0.3259 1.2418 0.6565
H39A H 0.2873 1.2271 0.7187
H40A H 0.3232 1.1558 0.7300
H41A H 0.3329 1.4301 0.8267
H42A H 0.2914 1.3915 0.7922
H43A H 0.3258 1.4067 0.7168
loop_
_geom_bond_atom_site_label_1
_geom_bond_atom_site_label_2
_geom_bond_site_symmetry_1
_geom_bond_site_symmetry_2
Mn1 O1 1_555 1_555
Mn2 O1 1_555 1_555
O1 C4 1_555 1_555
O2 Mn2 1_555 1_555
O3 C11 1_555 1_555
O4 C11 1_555 1_555
O5 Mn1 1_555 1_555
O6 Mn1 1_555 1_555
N1 Mn1 1_555 1_555
N2 C22 1_555 1_555
N3 C32 1_555 1_555
N4 C31 1_555 1_555
C4 O2 1_555 1_555
C5 C4 1_555 1_555
C6 C5 1_555 1_555
H10 C6 1_555 1_555
C7 C6 1_555 1_555
C8 C7 1_555 1_555
H11 C8 1_555 1_555
C9 C8 1_555 1_555
C10 C5 1_555 1_555
H12 C10 1_555 1_555
C11 C9 1_555 1_555
C12 C7 1_555 1_555
C13 O5 1_555 1_555
C14 C13 1_555 1_555
C15 C14 1_555 1_555
H13 C15 1_555 1_555
C16 C14 1_555 1_555
H14 C16 1_555 1_555
C17 C16 1_555 1_555
C18 C17 1_555 1_555
C19 C18 1_555 1_555
H15 C19 1_555 1_555
H16 C19 1_555 1_555
H17 C19 1_555 1_555
C20 C18 1_555 1_555
C21 N1 1_555 1_555
H21 C21 1_555 1_555
C22 C21 1_555 1_555
H22 C22 1_555 1_555
C23 N1 1_555 1_555
H23 C23 1_555 1_555
C24 N2 1_555 1_555
H24 C24 1_555 1_555
H25 C24 1_555 1_555
C25 C24 1_555 1_555
C26 C25 1_555 1_555
H26 C26 1_555 1_555
C27 C26 1_555 1_555
H27 C27 1_555 1_555
C28 C27 1_555 1_555
C29 C28 1_555 1_555
H28 C29 1_555 1_555
C30 C25 1_555 1_555
H29 C30 1_555 1_555
C31 C28 1_555 1_555
H30 C31 1_555 1_555
H31 C31 1_555 1_555
C32 N4 1_555 1_555
H32 C32 1_555 1_555
C33 N3 1_555 1_555
H33 C33 1_555 1_555
C34 N4 1_555 1_555
H34 C34 1_555 1_555
C35 C12 1_555 1_555
C36 C12 1_555 1_555
C37 C12 1_555 1_555
H35 C35 1_555 1_555
H36 C35 1_555 1_555
H37 C35 1_555 1_555
H38 C36 1_555 1_555
H39 C36 1_555 1_555
H40 C36 1_555 1_555
H41 C37 1_555 1_555
H42 C37 1_555 1_555
H43 C37 1_555 1_555
Mn1A O1A 1_555 1_555
Mn1D O4 1_555 1_555
Mn1_2 N3 1_555 1_555
Mn1C O5C 1_555 1_555
Mn1E O4A 1_555 1_555
Mn1_3 N1_2 1_555 1_555
Mn2D O4 1_555 1_555
Mn2D_2 O4A 1_555 1_555
O1A Mn2 1_555 1_555
O2A Mn2 1_555 1_555
O3A C11A 1_555 1_555
O4A C11A 1_555 1_555
O4D Mn1 1_555 1_555
O4E Mn2 1_555 1_555
O5C C13C 1_555 1_555
O5A Mn1A 1_555 1_555
O6C Mn1C 1_555 1_555
O6A Mn1A 1_555 1_555
N1_2 C21_2 1_555 1_555
N1A Mn1A 1_555 1_555
N2_2 C22_2 1_555 1_555
N3_2 Mn1 1_555 1_555
N3A Mn1A 1_555 1_555
N4_2 C31_2 1_555 1_555
C4A O1A 1_555 1_555
C5A C4A 1_555 1_555
C6A C5A 1_555 1_555
H10A C6A 1_555 1_555
C7A C6A 1_555 1_555
C8A C7A 1_555 1_555
H11A C8A 1_555 1_555
C9A C8A 1_555 1_555
C10A C5A 1_555 1_555
H12A C10A 1_555 1_555
C11A C9A 1_555 1_555
C12A C7A 1_555 1_555
C13C O6C 1_555 1_555
C14C C15 1_555 1_555
C16C C17 1_555 1_555
H14C C16C 1_555 1_555
C19C C18 1_555 1_555
H15C C19C 1_555 1_555
H16C C19C 1_555 1_555
H17C C19C 1_555 1_555
C21_2 H21_2 1_555 1_555
C22_2 C21_2 1_555 1_555
H22_2 C22_2 1_555 1_555
C23_2 N1_2 1_555 1_555
H23_2 C23_2 1_555 1_555
C24_2 N2_2 1_555 1_555
H24_2 C24_2 1_555 1_555
H25_2 C24_2 1_555 1_555
C25_2 C24_2 1_555 1_555
C26_2 C25_2 1_555 1_555
H26_2 C26_2 1_555 1_555
C27_2 C26_2 1_555 1_555
H27_2 C27_2 1_555 1_555
C28_2 C27_2 1_555 1_555
C29_2 C28_2 1_555 1_555
H28_2 C29_2 1_555 1_555
C30_2 C25_2 1_555 1_555
H29_2 C30_2 1_555 1_555
C31_2 C28_2 1_555 1_555
H30_2 C31_2 1_555 1_555
H31_2 C31_2 1_555 1_555
C32_2 N3_2 1_555 1_555
H32_2 C32_2 1_555 1_555
C33_2 N3_2 1_555 1_555
H33_2 C33_2 1_555 1_555
C34_2 N4_2 1_555 1_555
H34_2 C34_2 1_555 1_555
C35A C12A 1_555 1_555
C36A C12A 1_555 1_555
C37A C12A 1_555 1_555
H35A C35A 1_555 1_555
H36A C35A 1_555 1_555
H37A C35A 1_555 1_555
H38A C36A 1_555 1_555
H39A C36A 1_555 1_555
H40A C36A 1_555 1_555
H41A C37A 1_555 1_555
H42A C37A 1_555 1_555
H43A C37A 1_555 1_555
Mn2 O4D 1_555 1_555
O6 C13 1_555 1_555
N2 C23 1_555 1_555
C9 C10 1_555 1_555
C29 C30 1_555 1_555
C33 C34 1_555 1_555
Mn1A O4E 1_555 1_555
O2A C4A 1_555 1_555
N2_2 C23_2 1_555 1_555
N4_2 C32_2 1_555 1_555
C9A C10A 1_555 1_555
C13C C14C 1_555 1_555
C14C C16C 1_555 1_555
C29_2 C30_2 1_555 1_555
C33_2 C34_2 1_555 1_555

#END
