
#######################################################################
#
#                 Cambridge Crystallographic Data Centre
#                                CCDC 
#
#######################################################################
#
# If this CIF has been generated from an entry in the Cambridge 
# Structural Database, then it will include bibliographic, chemical, 
# crystal, experimental, refinement or atomic coordinate data resulting 
# from the CCDC's data processing and validation procedures.
#
#######################################################################

data_NEYYOG
_chemical_formula_moiety         '(C12 H24 Cu4 I4 N4)n'
_symmetry_cell_setting           hexagonal
_symmetry_space_group_name_H-M   'P 6/m c c'
_symmetry_Int_Tables_number      192
_space_group_name_Hall           '-P 6 2c'
loop_
_symmetry_equiv_pos_site_id
_symmetry_equiv_pos_as_xyz
1 x,y,z
2 -y,x-y,z
3 -x+y,-x,z
4 y,-x+y,z
5 x-y,x,z
6 y,x,1/2-z
7 -x+y,y,1/2-z
8 x,x-y,1/2-z
9 -x,-y,z
10 x-y,-y,1/2-z
11 -x,-x+y,1/2-z
12 -y,-x,1/2-z
13 -x,-y,-z
14 y,-x+y,-z
15 x-y,x,-z
16 -y,x-y,-z
17 -x+y,-x,-z
18 -y,-x,1/2+z
19 x-y,-y,1/2+z
20 -x,-x+y,1/2+z
21 x,y,-z
22 -x+y,y,1/2+z
23 x,x-y,1/2+z
24 y,x,1/2+z
_cell_length_a                   25.245(4)
_cell_length_b                   25.245(4)
_cell_length_c                   15.488(3)
_cell_angle_alpha                90
_cell_angle_beta                 90
_cell_angle_gamma                120
_cell_volume                     8548.24
loop_
_atom_site_label
_atom_site_type_symbol
_atom_site_fract_x
_atom_site_fract_y
_atom_site_fract_z
_atom_site_U_iso_or_equiv
_atom_site_thermal_displace_type
Cu1 Cu 0.48672(7) 0.15195(8) -0.08660(10) 0.0650 Uani
Cu2 Cu 0.41641(11) 0.18300(10) 0.0000 0.0597 Uani
Cu3 Cu 0.38646(11) 0.06917(10) 0.0000 0.0673 Uani
I1 I 0.37516(4) 0.11743(4) -0.14844(5) 0.0593 Uani
I2 I 0.54132(5) 0.25732(5) 0.0000 0.0604 Uani
I3 I 0.48896(15) 0.06053(16) 0.0000 0.1507 Uani
N1 N 0.5427(4) 0.1540(5) -0.1875(7) 0.0569 Uani
N2 N 0.3837(6) 0.2441(7) 0.0000 0.0498 Uani
N3 N 0.3441(7) 0.3218(6) 0.0000 0.0591 Uani
C1 C 0.5208(10) 0.0910(9) -0.2169(15) 0.1130 Uani
H1 H 0.4815 0.0752 -0.2454 0.0800 Uiso
H2 H 0.5156 0.0650 -0.1678 0.0800 Uiso
C2 C 0.6063(7) 0.1805(10) -0.1620(11) 0.0953 Uani
H3 H 0.6096 0.1546 -0.1186 0.0800 Uiso
H4 H 0.6198 0.2202 -0.1360 0.0800 Uiso
C3 C 0.5401(8) 0.1881(10) -0.2638(9) 0.0877 Uani
H5 H 0.5582 0.2311 -0.2496 0.0800 Uiso
H6 H 0.4978 0.1728 -0.2801 0.0800 Uiso
C4 C 0.4054(7) 0.2837(7) -0.0754(9) 0.0661 Uani
H7 H 0.3911 0.2589 -0.1273 0.0800 Uiso
H8 H 0.4497 0.3055 -0.0762 0.0800 Uiso
C5 C 0.3150(8) 0.2120(10) 0.0000 0.0701 Uani
H9 H 0.2991 0.1863 0.0507 0.0800 Uiso
H10 H 0.2991 0.1863 -0.0507 0.0800 Uiso
C6 C 0.3828(7) 0.3298(6) -0.0753(9) 0.0736 Uani
H11 H 0.3597 0.3249 -0.1277 0.0800 Uiso
H12 H 0.4177 0.3710 -0.0750 0.0800 Uiso
C7 C 0.2935(10) 0.2618(9) 0.0000 0.0711 Uani
H13 H 0.2685 0.2560 -0.0507 0.0800 Uiso
H14 H 0.2685 0.2560 0.0507 0.0800 Uiso
Cu1T Cu 0.48672(7) 0.15195(8) 0.08660(10) 0.0650 Uani
Cu1F Cu 0.66523(11) 0.15195(8) -0.41340(10) 0.0650 Uani
Cu3D Cu 0.31729(15) 0.38646(11) 0.0000 0.0673 Uani
I1T I 0.37516(4) 0.11743(4) 0.14844(5) 0.0593 Uani
N1F N 0.6113(6) 0.1540(5) -0.3125(7) 0.0569 Uani
N1T N 0.5427(4) 0.1540(5) 0.1875(7) 0.0569 Uani
N3C N 0.3218(6) -0.0223(9) 0.0000 0.0591 Uani
C1F C 0.5702(13) 0.0910(9) -0.2831(15) 0.1130 Uani
H1F H 0.5937 0.0752 -0.2546 0.0800 Uiso
H2F H 0.5494 0.0650 -0.3322 0.0800 Uiso
C2F C 0.5742(12) 0.1805(10) -0.3380(11) 0.0953 Uani
H3F H 0.5450 0.1546 -0.3814 0.0800 Uiso
H4F H 0.6004 0.2202 -0.3640 0.0800 Uiso
C3F C 0.6480(13) 0.1881(10) -0.2362(9) 0.0877 Uani
H5F H 0.6729 0.2311 -0.2504 0.0800 Uiso
H6F H 0.6750 0.1728 -0.2199 0.0800 Uiso
C4T C 0.4054(7) 0.2837(7) 0.0754(9) 0.0661 Uani
H7T H 0.3911 0.2589 0.1273 0.0800 Uiso
H8T H 0.4497 0.3055 0.0762 0.0800 Uiso
C6T C 0.3828(7) 0.3298(6) 0.0753(9) 0.0736 Uani
H11T H 0.3597 0.3249 0.1277 0.0800 Uiso
H12T H 0.4177 0.3710 0.0750 0.0800 Uiso
loop_
_atom_site_aniso_label
_atom_site_aniso_U_11
_atom_site_aniso_U_22
_atom_site_aniso_U_33
_atom_site_aniso_U_23
_atom_site_aniso_U_13
_atom_site_aniso_U_12
Cu1 0.0577(9) 0.0784(11) 0.0601(9) -0.0032(8) 0.0079(7) 0.0350(8)
Cu2 0.0625(12) 0.0590(12) 0.0697(13) 0.000 0.000 0.0394(11)
Cu3 0.0672(14) 0.0454(11) 0.0773(15) 0.000 0.000 0.0191(10)
I1 0.0559(5) 0.0654(6) 0.0569(5) -0.0040(3) -0.0065(3) 0.0305(4)
I2 0.0497(6) 0.0486(6) 0.0795(8) 0.000 0.000 0.0221(5)
I3 0.140(2) 0.148(2) 0.172(3) 0.000 0.000 0.0779(19)
N1 0.047(5) 0.069(6) 0.060(6) -0.002(5) -0.003(4) 0.033(5)
N2 0.046(7) 0.066(8) 0.048(7) 0.000 0.000 0.036(6)
N3 0.063 0.06 0.064 0 0 0.038
C1 0.110(12) 0.079(10) 0.131(13) -0.011(9) 0.046(10) 0.033(9)
C2 0.057(8) 0.148(17) 0.082(10) -0.036(10) -0.006(7) 0.052(10)
C3 0.105(12) 0.149(16) 0.055(8) 0.025(9) 0.018(8) 0.098(13)
C4 0.074(8) 0.067(8) 0.069(8) 0.021(6) 0.024(7) 0.044(7)
C5 0.044(9) 0.071(12) 0.097(14) 0.000 0.000 0.030(9)
C6 0.077 0.085 0.074 0.019 0.021 0.052
C7 0.049 0.079 0.088 0 0 0.034
Cu1T 0.0577 0.0784 0.0601 0.0032 -0.0079 0.035
Cu1F 0.0661 0.0784 0.0601 0.0032 0.0111 0.0434
Cu3D 0.0744 0.0672 0.0773 0 0 0.0481
I1T 0.0559 0.0654 0.0569 0.004 0.0065 0.0305
N1F 0.05 0.069 0.06 0.002 -0.001 0.036
N1T 0.047 0.069 0.06 0.002 0.003 0.033
N3C 0.06 0.047 0.064 0 0 0.022
C1F 0.123 0.079 0.131 0.011 0.057 0.046
C2F 0.101 0.148 0.082 0.036 0.03 0.096
C3F 0.058 0.149 0.055 -0.025 -0.007 0.051
C4T 0.074 0.067 0.069 -0.021 -0.024 0.044
C6T 0.077 0.085 0.074 -0.019 -0.021 0.052
loop_
_geom_bond_atom_site_label_1
_geom_bond_atom_site_label_2
_geom_bond_site_symmetry_1
_geom_bond_site_symmetry_2
Cu1 I1 1_555 1_555
Cu2 I1 1_555 1_555
Cu3 I1 1_555 1_555
I2 Cu1 1_555 1_555
I3 Cu1 1_555 1_555
N1 Cu1 1_555 1_555
N2 Cu2 1_555 1_555
N3 C6 1_555 1_555
C1 N1 1_555 1_555
H1 C1 1_555 1_555
H2 C1 1_555 1_555
C2 N1 1_555 1_555
H3 C2 1_555 1_555
H4 C2 1_555 1_555
C3 N1 1_555 1_555
H5 C3 1_555 1_555
H6 C3 1_555 1_555
C4 N2 1_555 1_555
H7 C4 1_555 1_555
H8 C4 1_555 1_555
C5 N2 1_555 1_555
H9 C5 1_555 1_555
H10 C5 1_555 1_555
C6 C4 1_555 1_555
H11 C6 1_555 1_555
H12 C6 1_555 1_555
C7 N3 1_555 1_555
H13 C7 1_555 1_555
H14 C7 1_555 1_555
Cu1T I2 1_555 1_555
Cu1F N1F 1_555 1_555
Cu3D N3 1_555 1_555
I1T Cu2 1_555 1_555
N1F C1F 1_555 1_555
N1T Cu1T 1_555 1_555
N3C Cu3 1_555 1_555
C1F C1 1_555 1_555
H1F C1F 1_555 1_555
H2F C1F 1_555 1_555
C2F C3 1_555 1_555
H3F C2F 1_555 1_555
H4F C2F 1_555 1_555
C3F C2 1_555 1_555
H5F C3F 1_555 1_555
H6F C3F 1_555 1_555
C4T N2 1_555 1_555
H7T C4T 1_555 1_555
H8T C4T 1_555 1_555
C6T N3 1_555 1_555
H11T C6T 1_555 1_555
H12T C6T 1_555 1_555
Cu2 I2 1_555 1_555
Cu3 I3 1_555 1_555
Cu3 I1T 1_555 1_555
I3 Cu1T 1_555 1_555
C5 C7 1_555 1_555
Cu1T I1T 1_555 1_555
N1F C2F 1_555 1_555
N1F C3F 1_555 1_555
C4T C6T 1_555 1_555

#END
