
#######################################################################
#
#                 Cambridge Crystallographic Data Centre
#                                CCDC 
#
#######################################################################
#
# If this CIF has been generated from an entry in the Cambridge 
# Structural Database, then it will include bibliographic, chemical, 
# crystal, experimental, refinement or atomic coordinate data resulting 
# from the CCDC's data processing and validation procedures.
#
#######################################################################

data_JOJLOK
_chemical_formula_moiety         '(C14 H14 N2 O12 Th1)n'
_symmetry_cell_setting           orthorhombic
_symmetry_space_group_name_H-M   'P 21 21 21'
_symmetry_Int_Tables_number      19
_space_group_name_Hall           'P 2ac 2ab'
loop_
_symmetry_equiv_pos_site_id
_symmetry_equiv_pos_as_xyz
1 x,y,z
2 1/2-x,-y,1/2+z
3 -x,1/2+y,1/2-z
4 1/2+x,1/2-y,-z
_cell_length_a                   6.6602(10)
_cell_length_b                   11.6941(18)
_cell_length_c                   22.788(4)
_cell_angle_alpha                90
_cell_angle_beta                 90
_cell_angle_gamma                90
_cell_volume                     1774.84
loop_
_atom_site_label
_atom_site_type_symbol
_atom_site_fract_x
_atom_site_fract_y
_atom_site_fract_z
Th1 Th 0.23300(7) 0.59587(4) 0.13799(2)
N1 N 0.251(2) 0.7835(9) 0.0710(4)
N2 N 0.0105(17) 0.6386(9) 0.2354(5)
O1 O 0.2296(16) 0.5721(7) 0.0361(4)
O2 O 0.2261(18) 0.6219(7) -0.0578(4)
O3 O 0.3606(15) 0.8402(9) 0.2872(5)
O4 O 0.3303(14) 0.7487(8) 0.2008(4)
O5 O 0.4109(13) 0.8314(10) -0.1167(5)
O6 O -0.0061(13) 0.9422(8) 0.3610(6)
O7 O 0.0823(14) 0.8557(11) -0.1197(5)
O8 O 0.4296(14) 0.4166(10) 0.1060(4)
O9 O 0.3523(13) 0.4884(8) 0.2251(4)
O10 O 0.1714(17) 0.8066(9) 0.4051(5)
C1 C 0.246(3) 0.7682(11) 0.0131(5)
C2 C 0.234(2) 0.6457(10) -0.0054(5)
C3 C 0.239(3) 0.8580(10) -0.0269(5)
C4 C 0.240(2) 0.8445(9) -0.0920(5)
C5 C 0.248(3) 0.9673(12) -0.0053(5)
H1 H 0.2484 1.0295 -0.0306
C6 C 0.255(2) 0.8906(10) 0.0907(5)
H2 H 0.2571 0.9021 0.1311
C7 C -0.1637(19) 0.5888(15) 0.2490(6)
H3 H -0.2108 0.5308 0.2248
C8 C -0.277(2) 0.6188(10) 0.2969(6)
H4 H -0.3987 0.5826 0.3039
C9 C 0.256(4) 0.9839(11) 0.0554(5)
H5 H 0.2619 1.0572 0.0712
C10 C 0.277(3) 0.7755(11) 0.2539(6)
C11 C 0.083(2) 0.7188(12) 0.2728(6)
C12 C -0.0230(19) 0.7531(12) 0.3221(6)
C13 C -0.213(3) 0.6991(12) 0.3331(7)
H6 H -0.2894 0.7203 0.3653
C14 C 0.0533(19) 0.8403(13) 0.3650(8)
Th1C Th 0.73300(7) 0.90413(4) -0.13799(2)
Th1B Th -0.23300(7) 1.09587(4) 0.36201(2)
Th1C_2 Th -0.26700(7) 0.90413(4) -0.13799(2)
O5C O -0.0891(13) 0.6686(10) 0.1167(5)
O6B O 0.0061(13) 0.4422(8) 0.1390(6)
O7C O 0.5823(14) 0.6443(11) 0.1197(5)
O11 O 0.283(5) 0.5974(17) -0.1778(7)
O12 O 0.296(5) 0.3291(19) 0.0025(9)
loop_
_geom_bond_atom_site_label_1
_geom_bond_atom_site_label_2
_geom_bond_site_symmetry_1
_geom_bond_site_symmetry_2
Th1 N1 1_555 1_555
N1 C1 1_555 1_555
N2 Th1 1_555 1_555
O1 Th1 1_555 1_555
O2 C2 1_555 1_555
O3 C10 1_555 1_555
O4 Th1 1_555 1_555
O5 C4 1_555 1_555
O6 C14 1_555 1_555
O7 C4 1_555 1_555
O8 Th1 1_555 1_555
O9 Th1 1_555 1_555
O10 C14 1_555 1_555
C1 C2 1_555 1_555
C2 O1 1_555 1_555
C3 C1 1_555 1_555
C4 C3 1_555 1_555
C5 C3 1_555 1_555
H1 C5 1_555 1_555
C6 N1 1_555 1_555
H2 C6 1_555 1_555
C7 N2 1_555 1_555
H3 C7 1_555 1_555
C8 C7 1_555 1_555
H4 C8 1_555 1_555
C9 C5 1_555 1_555
H5 C9 1_555 1_555
C10 O4 1_555 1_555
C11 N2 1_555 1_555
C12 C11 1_555 1_555
C13 C8 1_555 1_555
H6 C13 1_555 1_555
C14 C12 1_555 1_555
Th1C O5 1_555 1_555
Th1B O6 1_555 1_555
Th1C_2 O7 1_555 1_555
O5C Th1 1_555 1_555
O6B Th1 1_555 1_555
O7C Th1 1_555 1_555
C6 C9 1_555 1_555
C10 C11 1_555 1_555
C12 C13 1_555 1_555

#END
