
#######################################################################
#
#                 Cambridge Crystallographic Data Centre
#                                CCDC 
#
#######################################################################
#
# If this CIF has been generated from an entry in the Cambridge 
# Structural Database, then it will include bibliographic, chemical, 
# crystal, experimental, refinement or atomic coordinate data resulting 
# from the CCDC's data processing and validation procedures.
#
#######################################################################

data_RESWOC
_chemical_formula_moiety         '(C30 H16 Er2 F12 N2 O15)n'
_symmetry_cell_setting           triclinic
_symmetry_space_group_name_H-M   'P -1'
_symmetry_Int_Tables_number      2
_space_group_name_Hall           '-P 1'
loop_
_symmetry_equiv_pos_site_id
_symmetry_equiv_pos_as_xyz
1 x,y,z
2 -x,-y,-z
_cell_length_a                   11.6710(18)
_cell_length_b                   11.8916(19)
_cell_length_c                   14.305(2)
_cell_angle_alpha                110.633(7)
_cell_angle_beta                 99.920(6)
_cell_angle_gamma                101.351(6)
_cell_volume                     1757.36
loop_
_atom_site_label
_atom_site_type_symbol
_atom_site_fract_x
_atom_site_fract_y
_atom_site_fract_z
Er1 Er 0.098477(15) -0.027803(15) 0.104693(13)
Er2 Er 0.415700(16) 1.081600(16) 0.430750(13)
F1 F 0.3470(3) 0.3562(3) 0.1046(3)
F2 F 0.4696(3) 0.5952(3) 0.2148(2)
F3 F 0.1231(3) 0.6724(3) 0.3225(2)
F4 F 0.0015(3) 0.4315(3) 0.2140(2)
F5 F -0.2211(3) 0.1869(3) 0.1309(3)
F6 F -0.4384(3) 0.2070(3) 0.1550(3)
F7 F -0.5402(3) -0.1993(3) 0.1453(3)
F8 F -0.3269(3) -0.2240(3) 0.1152(3)
F9 F 0.0648(3) 0.2896(3) 0.4334(3)
F10 F -0.1527(3) 0.3004(3) 0.4595(3)
F11 F -0.2701(3) -0.1378(2) 0.3603(2)
F12 F -0.0478(3) -0.1431(3) 0.3449(2)
O1 O 0.1509(3) 0.1813(3) 0.1335(3)
O2 O 0.0159(3) 0.2177(3) 0.0229(2)
O3 O 0.3346(3) 0.8614(3) 0.3330(2)
O4 O 0.4612(3) 0.7778(3) 0.4091(2)
O5 O -0.0918(3) -0.0887(3) 0.1532(3)
O6 O -0.0917(3) 0.0185(3) 0.0568(2)
O7 O -0.7020(3) -0.0065(3) 0.0971(3)
O8 O -0.6182(3) 0.0464(3) 0.2631(3)
O9 O 0.1377(3) 0.0803(3) 0.2782(2)
O10 O 0.2117(3) 0.0491(3) 0.4190(3)
O11 O -0.4062(3) 0.0073(3) 0.4486(2)
O12 O -0.3875(3) 0.1665(3) 0.4042(3)
O13 O 0.3858(3) 1.2716(3) 0.4488(3)
O14 O 0.1410(3) -0.1731(3) 0.1655(3)
H1 H 0.182(7) -0.166(6) 0.212(5)
H2 H 0.084(9) -0.243(9) 0.152(7)
N1 N 0.3489(5) 1.4571(4) 0.5276(4)
C1 C 0.1051(4) 0.2498(4) 0.0985(3)
C2 C 0.1702(4) 0.3879(4) 0.1547(3)
C3 C 0.2893(4) 0.4333(4) 0.1571(4)
C4 C 0.3532(4) 0.5570(4) 0.2135(3)
C5 C 0.2982(4) 0.6415(4) 0.2702(3)
C6 C 0.1782(4) 0.5964(4) 0.2662(3)
C7 C 0.1152(4) 0.4715(4) 0.2099(3)
C8 C 0.3719(4) 0.7718(4) 0.3431(3)
C9 C -0.1438(4) -0.0327(4) 0.1089(3)
C10 C -0.2661(4) -0.0201(4) 0.1203(3)
C11 C -0.2990(4) 0.0883(4) 0.1305(4)
C12 C -0.4115(4) 0.0998(4) 0.1445(4)
C13 C -0.4944(4) 0.0042(4) 0.1499(3)
C14 C -0.4622(4) -0.1039(4) 0.1399(4)
C15 C -0.3509(4) -0.1161(4) 0.1254(3)
C16 C -0.6144(4) 0.0168(4) 0.1721(3)
C17 C 0.1312(4) 0.0658(4) 0.3590(3)
C18 C 0.0141(4) 0.0731(4) 0.3875(3)
C19 C -0.0170(4) 0.1836(4) 0.4172(4)
C20 C -0.1305(4) 0.1893(4) 0.4295(4)
C21 C -0.2203(4) 0.0818(4) 0.4128(3)
C22 C -0.1877(4) -0.0296(4) 0.3840(3)
C23 C -0.0735(4) -0.0332(4) 0.3738(3)
C24 C -0.3433(4) 0.0875(4) 0.4230(3)
C25 C 0.3835(5) 1.3588(5) 0.5279(4)
H3 H 0.4084 1.3536 0.5927
C26 C 0.3048(6) 1.4722(6) 0.4340(5)
H4 H 0.3043 1.3988 0.3743
H5 H 0.3578 1.5474 0.4344
H6 H 0.2224 1.4805 0.4293
C27 C 0.3529(10) 1.5561(7) 0.6239(6)
H7 H 0.3837 1.5352 0.6821
H8 H 0.2712 1.5651 0.6237
H9 H 0.4065 1.6349 0.6311
Er1A Er -0.098477(15) 0.027803(15) -0.104693(13)
Er1_2 Er -0.901523(15) -0.027803(15) 0.104693(13)
Er2A Er 0.584300(16) 0.918400(16) 0.569250(13)
Er2_2 Er 0.415700(16) 0.081600(16) 0.430750(13)
Er2_3 Er -0.584300(16) 0.081600(16) 0.430750(13)
Er2A_2 Er -0.415700(16) -0.081600(16) 0.569250(13)
O2A O -0.0159(3) -0.2177(3) -0.0229(2)
O4A O 0.5388(3) 1.2222(3) 0.5909(2)
O6A O 0.0917(3) -0.0185(3) -0.0568(2)
O7_2 O 0.2980(3) -0.0065(3) 0.0971(3)
O8_2 O 0.3818(3) 1.0464(3) 0.2631(3)
O10_2 O 0.2117(3) 1.0491(3) 0.4190(3)
O11A O 0.4062(3) 0.9927(3) 0.5514(2)
O11_2 O 0.5938(3) 1.0073(3) 0.4486(2)
O12_2 O 0.6125(3) 1.1665(3) 0.4042(3)
O15 O -0.0237(4) -0.3835(4) 0.1100(4)
N2 N -0.2152(5) -0.4975(5) 0.0792(4)
C28 C -0.1279(6) -0.3929(5) 0.1216(5)
H10 H -0.1450 -0.3198 0.1640
C29 C -0.3343(8) -0.5066(9) 0.0968(9)
H11 H -0.3362 -0.4250 0.1451
H12 H -0.3528 -0.5688 0.1263
H13 H -0.3946 -0.5321 0.0310
C30 C -0.1952(6) -0.6080(6) 0.0102(5)
H14 H -0.1115 -0.5896 0.0051
H15 H -0.2509 -0.6364 -0.0585
H16 H -0.2097 -0.6737 0.0366
loop_
_geom_bond_atom_site_label_1
_geom_bond_atom_site_label_2
_geom_bond_site_symmetry_1
_geom_bond_site_symmetry_2
Er1 O1 1_555 1_555
Er2 O3 1_555 1_555
F1 C3 1_555 1_555
F2 C4 1_555 1_555
F3 C6 1_555 1_555
F4 C7 1_555 1_555
F5 C11 1_555 1_555
F6 C12 1_555 1_555
F7 C14 1_555 1_555
F8 C15 1_555 1_555
F9 C19 1_555 1_555
F10 C20 1_555 1_555
F11 C22 1_555 1_555
F12 C23 1_555 1_555
O1 C1 1_555 1_555
O2 C1 1_555 1_555
O3 C8 1_555 1_555
O4 C8 1_555 1_555
O5 Er1 1_555 1_555
O6 Er1 1_555 1_555
O7 C16 1_555 1_555
O8 C16 1_555 1_555
O9 Er1 1_555 1_555
O10 C17 1_555 1_555
O11 C24 1_555 1_555
O12 C24 1_555 1_555
O13 Er2 1_555 1_555
O14 Er1 1_555 1_555
H1 O14 1_555 1_555
H2 O14 1_555 1_555
N1 C25 1_555 1_555
C1 C2 1_555 1_555
C2 C3 1_555 1_555
C3 C4 1_555 1_555
C4 C5 1_555 1_555
C5 C6 1_555 1_555
C6 C7 1_555 1_555
C7 C2 1_555 1_555
C8 C5 1_555 1_555
C9 O5 1_555 1_555
C10 C9 1_555 1_555
C11 C10 1_555 1_555
C12 C11 1_555 1_555
C13 C12 1_555 1_555
C14 C13 1_555 1_555
C15 C10 1_555 1_555
C16 C13 1_555 1_555
C17 O9 1_555 1_555
C18 C17 1_555 1_555
C19 C18 1_555 1_555
C20 C19 1_555 1_555
C21 C20 1_555 1_555
C22 C21 1_555 1_555
C23 C18 1_555 1_555
C24 C21 1_555 1_555
C25 O13 1_555 1_555
H3 C25 1_555 1_555
C26 N1 1_555 1_555
H4 C26 1_555 1_555
H5 C26 1_555 1_555
H6 C26 1_555 1_555
C27 N1 1_555 1_555
H7 C27 1_555 1_555
H8 C27 1_555 1_555
H9 C27 1_555 1_555
O15 C28 1_555 1_555
N2 C28 1_555 1_555
C28 H10 1_555 1_555
C29 N2 1_555 1_555
H11 C29 1_555 1_555
H12 C29 1_555 1_555
H13 C29 1_555 1_555
C30 N2 1_555 1_555
H14 C30 1_555 1_555
H15 C30 1_555 1_555
H16 C30 1_555 1_555
Er1A O2 1_555 1_555
Er1_2 O7 1_555 1_555
Er2A O4 1_555 1_555
Er2_2 O10 1_555 1_555
Er2_3 O8 1_555 1_555
Er2A_2 O11 1_555 1_555
O2A Er1 1_555 1_555
O4A Er2 1_555 1_555
O6A Er1 1_555 1_555
O7_2 Er1 1_555 1_555
O8_2 Er2 1_555 1_555
O10_2 Er2 1_555 1_555
O11A Er2 1_555 1_555
O11_2 Er2 1_555 1_555
O12_2 Er2 1_555 1_555
O6 C9 1_555 1_555
O6 Er1A 1_555 1_555
O11 Er2_3 1_555 1_555
O12 Er2_3 1_555 1_555
C14 C15 1_555 1_555
C22 C23 1_555 1_555
Er1A O6A 1_555 1_555
Er2A O11A 1_555 1_555
Er2A O11_2 1_555 1_555

#END
