
#######################################################################
#
#                 Cambridge Crystallographic Data Centre
#                                CCDC 
#
#######################################################################
#
# If this CIF has been generated from an entry in the Cambridge 
# Structural Database, then it will include bibliographic, chemical, 
# crystal, experimental, refinement or atomic coordinate data resulting 
# from the CCDC's data processing and validation procedures.
#
#######################################################################

data_UVUPUX
_chemical_formula_moiety         '(C40 H24 N6 O10 Zn2)n'
_symmetry_cell_setting           monoclinic
_symmetry_space_group_name_H-M   'C 2/c'
_symmetry_Int_Tables_number      15
_space_group_name_Hall           '-C 2yc'
loop_
_symmetry_equiv_pos_site_id
_symmetry_equiv_pos_as_xyz
1 x,y,z
2 -x,y,1/2-z
3 1/2+x,1/2+y,z
4 1/2-x,1/2+y,1/2-z
5 -x,-y,-z
6 x,-y,1/2+z
7 1/2-x,1/2-y,-z
8 1/2+x,1/2-y,1/2+z
_cell_length_a                   27.932(6)
_cell_length_b                   7.5323(15)
_cell_length_c                   23.999(5)
_cell_angle_alpha                90
_cell_angle_beta                 103.99(3)
_cell_angle_gamma                90
_cell_volume                     4899.43
loop_
_atom_site_label
_atom_site_type_symbol
_atom_site_fract_x
_atom_site_fract_y
_atom_site_fract_z
Zn1 Zn 0.963955(8) 1.14503(3) 0.991454(9)
O1 O 0.98671(6) 0.7661(2) 0.93594(6)
O2 O 0.93356(6) 0.9912(2) 0.92168(7)
O3 O 0.94196(6) 0.0427(2) 0.54280(7)
O4 O 0.99487(6) 0.2681(2) 0.55606(6)
O5 O 0.84470(6) 0.5430(3) 0.69757(7)
N1 N 0.90452(6) 1.3063(2) 0.98662(7)
N2 N 0.78575(8) 1.8119(3) 0.97535(11)
N3 N 0.74926(8) 1.9194(3) 0.98035(11)
C1 C 0.92124(8) 0.7623(3) 0.85267(9)
C2 C 0.88503(10) 0.8564(3) 0.81498(11)
H1 H 0.8772 0.9705 0.8247
C3 C 0.86000(11) 0.7842(4) 0.76279(11)
H2 H 0.8358 0.8491 0.7375
C4 C 0.87167(9) 0.6153(4) 0.74940(10)
C5 C 0.90680(10) 0.5179(4) 0.78633(11)
H3 H 0.9140 0.4030 0.7766
C6 C 0.93166(9) 0.5907(3) 0.83821(10)
H4 H 0.9555 0.5243 0.8635
C7 C 0.94946(8) 0.8461(3) 0.90771(9)
C8 C 0.87291(9) 0.4563(3) 0.66484(9)
C9 C 0.86082(9) 0.2856(4) 0.64713(10)
H5 H 0.8347 0.2281 0.6574
C10 C 0.88774(9) 0.1997(3) 0.61392(10)
H6 H 0.8795 0.0842 0.6016
C11 C 0.92699(8) 0.2837(3) 0.59880(8)
C12 C 0.93725(9) 0.4597(3) 0.61584(10)
H7 H 0.9626 0.5196 0.6048
C13 C 0.91042(10) 0.5455(3) 0.64864(11)
H8 H 0.9175 0.6627 0.6598
C14 C 0.95705(8) 0.1924(3) 0.56341(9)
C15 C 0.90496(8) 1.4777(3) 0.97174(9)
H9 H 0.9323 1.5216 0.9605
C16 C 0.86636(8) 1.5915(3) 0.97242(10)
H10 H 0.8675 1.7093 0.9612
C17 C 0.82608(8) 1.5277(3) 0.99013(9)
C18 C 0.82516(9) 1.3496(3) 1.00455(12)
H11 H 0.7982 1.3023 1.0158
C19 C 0.86473(8) 1.2438(3) 1.00202(10)
H12 H 0.8638 1.1242 1.0114
C20 C 0.78521(8) 1.6478(3) 0.99517(11)
Zn1D Zn 1.036045(8) 0.85497(3) 1.008546(9)
Zn1A Zn 1.036045(8) 0.14503(3) 0.508546(9)
Zn1A_2 Zn 1.036045(8) 2.14503(3) 1.508546(9)
Zn1E Zn 0.963955(8) -0.14503(3) 0.491454(9)
Zn1E_2 Zn 0.963955(8) 1.85497(3) 1.491454(9)
Zn1F Zn 0.536045(8) 2.35497(3) 1.008546(9)
O1D O 1.01329(6) 1.2339(2) 1.06406(6)
O2D O 1.06644(6) 1.0088(2) 1.07832(7)
O3D O 1.05804(6) 1.9573(2) 1.45720(7)
O3A O 1.05804(6) 1.0427(2) 0.95720(7)
O3E O 0.94196(6) 0.9573(2) 1.04280(7)
O4D O 1.00513(6) 1.7319(2) 1.44394(6)
O4A O 1.00513(6) 1.2681(2) 0.94394(6)
O4E O 0.99487(6) 0.7319(2) 1.05606(6)
O5D O 1.15530(6) 1.4570(3) 1.30243(7)
N1F N 0.59548(6) 2.1937(2) 1.01338(7)
N1D N 1.09548(6) 0.6937(2) 1.01338(7)
N2F N 0.71425(8) 1.6881(3) 1.02465(11)
N3F N 0.75074(8) 1.5806(3) 1.01965(11)
C1D C 1.07876(8) 1.2377(3) 1.14733(9)
C2D C 1.11497(10) 1.1436(3) 1.18502(11)
H1D H 1.1228 1.0295 1.1753
C3D C 1.14000(11) 1.2158(4) 1.23721(11)
H2D H 1.1642 1.1509 1.2625
C4D C 1.12833(9) 1.3847(4) 1.25060(10)
C5D C 1.09320(10) 1.4821(4) 1.21367(11)
H3D H 1.0860 1.5970 1.2234
C6D C 1.06834(9) 1.4093(3) 1.16179(10)
H4D H 1.0445 1.4757 1.1365
C7D C 1.05054(8) 1.1539(3) 1.09229(9)
C8D C 1.12709(9) 1.5437(3) 1.33516(9)
C9D C 1.13918(9) 1.7144(4) 1.35287(10)
H5D H 1.1653 1.7719 1.3426
C10D C 1.11226(9) 1.8003(3) 1.38608(10)
H6D H 1.1205 1.9158 1.3984
C11D C 1.07301(8) 1.7163(3) 1.40120(8)
C12D C 1.06275(9) 1.5403(3) 1.38416(10)
H7D H 1.0374 1.4804 1.3952
C13D C 1.08958(10) 1.4545(3) 1.35136(11)
H8D H 1.0825 1.3373 1.3402
C14D C 1.04295(8) 1.8076(3) 1.43659(9)
C15F C 0.59504(8) 2.0223(3) 1.02826(9)
H9F H 0.5677 1.9784 1.0395
C16F C 0.63364(8) 1.9085(3) 1.02758(10)
H10F H 0.6325 1.7907 1.0388
C17F C 0.67392(8) 1.9723(3) 1.00987(9)
C18F C 0.67484(9) 2.1504(3) 0.99545(12)
H11F H 0.7018 2.1977 0.9842
C19F C 0.63527(8) 2.2562(3) 0.99798(10)
H12F H 0.6362 2.3758 0.9886
C20F C 0.71479(8) 1.8522(3) 1.00483(11)
loop_
_geom_bond_atom_site_label_1
_geom_bond_atom_site_label_2
_geom_bond_site_symmetry_1
_geom_bond_site_symmetry_2
Zn1 O2 1_555 1_555
O1 C7 1_555 1_555
O2 C7 1_555 1_555
O3 C14 1_555 1_555
O4 C14 1_555 1_555
O5 C4 1_555 1_555
N1 Zn1 1_555 1_555
N2 N3 1_555 1_555
N3 C20F 1_555 1_555
C1 C2 1_555 1_555
C2 H1 1_555 1_555
C3 C2 1_555 1_555
H2 C3 1_555 1_555
C4 C3 1_555 1_555
C5 C4 1_555 1_555
H3 C5 1_555 1_555
C6 C1 1_555 1_555
H4 C6 1_555 1_555
C7 C1 1_555 1_555
C8 O5 1_555 1_555
C9 C8 1_555 1_555
H5 C9 1_555 1_555
C10 C9 1_555 1_555
H6 C10 1_555 1_555
C11 C10 1_555 1_555
C12 C11 1_555 1_555
H7 C12 1_555 1_555
C13 C8 1_555 1_555
H8 C13 1_555 1_555
C14 C11 1_555 1_555
C15 N1 1_555 1_555
H9 C15 1_555 1_555
C16 C15 1_555 1_555
H10 C16 1_555 1_555
C17 C16 1_555 1_555
C18 C17 1_555 1_555
H11 C18 1_555 1_555
C19 N1 1_555 1_555
H12 C19 1_555 1_555
C20 N2 1_555 1_555
Zn1D O1 1_555 1_555
Zn1A O4 1_555 1_555
Zn1A_2 O3D 1_555 1_555
Zn1E O3 1_555 1_555
Zn1E_2 O4D 1_555 1_555
Zn1F N1F 1_555 1_555
O1D Zn1 1_555 1_555
O2D Zn1D 1_555 1_555
O3D C14D 1_555 1_555
O3A Zn1D 1_555 1_555
O3E Zn1 1_555 1_555
O4D C14D 1_555 1_555
O4A Zn1 1_555 1_555
O4E Zn1D 1_555 1_555
O5D C4D 1_555 1_555
N1F C15F 1_555 1_555
N1D Zn1D 1_555 1_555
N2F N3F 1_555 1_555
N3F C20 1_555 1_555
C1D C2D 1_555 1_555
C2D H1D 1_555 1_555
C3D C2D 1_555 1_555
H2D C3D 1_555 1_555
C4D C3D 1_555 1_555
C5D C4D 1_555 1_555
H3D C5D 1_555 1_555
C6D C1D 1_555 1_555
H4D C6D 1_555 1_555
C7D O1D 1_555 1_555
C8D O5D 1_555 1_555
C9D C8D 1_555 1_555
H5D C9D 1_555 1_555
C10D C9D 1_555 1_555
H6D C10D 1_555 1_555
C11D C10D 1_555 1_555
C12D C11D 1_555 1_555
H7D C12D 1_555 1_555
C13D C8D 1_555 1_555
H8D C13D 1_555 1_555
C14D C11D 1_555 1_555
C15F H9F 1_555 1_555
C16F C15F 1_555 1_555
H10F C16F 1_555 1_555
C17F C16F 1_555 1_555
C18F C17F 1_555 1_555
H11F C18F 1_555 1_555
C19F N1F 1_555 1_555
H12F C19F 1_555 1_555
C20F N2F 1_555 1_555
C5 C6 1_555 1_555
C12 C13 1_555 1_555
C17 C20 1_555 1_555
C18 C19 1_555 1_555
O2D C7D 1_555 1_555
C1D C7D 1_555 1_555
C5D C6D 1_555 1_555
C12D C13D 1_555 1_555
C17F C20F 1_555 1_555
C18F C19F 1_555 1_555

#END
