
#######################################################################
#
#                 Cambridge Crystallographic Data Centre
#                                CCDC 
#
#######################################################################
#
# If this CIF has been generated from an entry in the Cambridge 
# Structural Database, then it will include bibliographic, chemical, 
# crystal, experimental, refinement or atomic coordinate data resulting 
# from the CCDC's data processing and validation procedures.
#
#######################################################################

data_GUJGEY
_chemical_formula_moiety         '(C46 H100 N10 Nd4 O48 P10)n'
_symmetry_cell_setting           triclinic
_symmetry_space_group_name_H-M   'P -1'
_symmetry_Int_Tables_number      2
_space_group_name_Hall           '-P 1'
loop_
_symmetry_equiv_pos_site_id
_symmetry_equiv_pos_as_xyz
1 x,y,z
2 -x,-y,-z
_cell_length_a                   13.1710(2)
_cell_length_b                   13.5661(2)
_cell_length_c                   15.1472(2)
_cell_angle_alpha                108.55
_cell_angle_beta                 101.6910(10)
_cell_angle_gamma                111.9330(10)
_cell_volume                     2215.45
loop_
_atom_site_label
_atom_site_type_symbol
_atom_site_fract_x
_atom_site_fract_y
_atom_site_fract_z
Nd1 Nd 0.81335(2) 0.34966(2) 0.071170(19)
Nd2 Nd 0.59944(2) 0.10466(2) 0.152307(18)
P1 P 0.88850(13) 0.41128(14) -0.12938(11)
P2 P 0.31901(13) -0.17503(13) -0.42694(10)
O1 O 0.8960(4) 0.5571(4) 0.2328(3)
C1 C 0.7934(5) 0.5425(5) 0.2049(4)
N1 N 0.6831(4) 0.2641(4) -0.3076(3)
H1 H 0.6613 0.2414 -0.3748
O2 O 0.7316(4) 0.4970(3) 0.1125(3)
C2 C 0.6248(5) 0.3467(5) 0.2253(4)
N2 N 0.4607(4) 0.0740(4) -0.3352(3)
H2 H 0.4661 0.0836 -0.2718
P3 P 0.71576(11) 0.07892(11) -0.06059(9)
O3 O 0.6988(3) 0.3260(3) 0.1907(3)
C3 C 0.7380(5) 0.5674(5) 0.2799(4)
N3 N 0.8899(4) 0.0074(4) -0.0070(3)
H3 H 0.9086 0.0577 0.0573
P4 P 0.48618(11) 0.17440(10) -0.05709(9)
O4 O 0.5294(4) 0.2652(4) 0.2116(3)
C4 C 0.6557(6) 0.4730(5) 0.2880(4)
N4 N 0.4893(4) 0.3928(4) 0.0081(3)
H4 H 0.5673 0.4160 0.0354
P5 P 0.91756(11) 0.22651(12) 0.23250(9)
O5 O 0.8090(3) 0.4029(3) -0.0701(3)
C5 C 0.6036(7) 0.4954(7) 0.3583(6)
H5 H 0.5473 0.4329 0.3631
N5 N 0.9836(4) 0.3861(4) 0.4297(3)
H6 H 0.9162 0.3367 0.4326
O6 O 0.9882(3) 0.5312(4) -0.0973(3)
C6 C 0.6356(9) 0.6111(7) 0.4215(6)
H7 H 0.6014 0.6258 0.4689
O7 O 0.9346(4) 0.3175(4) -0.1372(3)
H8 H 0.8984 0.2716 -0.1167
C7 C 0.7165(8) 0.7021(7) 0.4136(6)
H9 H 0.7374 0.7791 0.4560
O8 O 0.3799(4) -0.2066(4) -0.4999(3)
C8 C 0.7688(6) 0.6823(5) 0.3432(5)
H10 H 0.8241 0.7456 0.3386
O9 O 0.3776(3) -0.1651(4) -0.3259(3)
C9 C 0.8037(5) 0.3696(5) -0.2585(4)
H11 H 0.7951 0.4369 -0.2607
H12 H 0.8497 0.3551 -0.2987
O10 O 0.1866(4) -0.2519(4) -0.4742(3)
C10 C 0.6787(5) 0.1609(5) -0.2896(4)
H13 H 0.6929 0.1794 -0.2195
H14 H 0.7401 0.1444 -0.3055
O11 O 0.7108(3) 0.1321(3) 0.0428(2)
C11 C 0.5601(5) 0.0528(5) -0.3534(4)
H15 H 0.5494 0.0304 -0.4234
H16 H 0.5586 -0.0122 -0.3386
O12 O 0.8075(3) 0.1821(3) -0.0691(3)
C12 C 0.4717(5) 0.1855(5) -0.3413(4)
H17 H 0.4127 0.2028 -0.3209
H18 H 0.4561 0.1737 -0.4103
O13 O 0.5983(3) 0.0074(3) -0.1452(2)
C13 C 0.5924(5) 0.2903(5) -0.2762(4)
H19 H 0.5956 0.3600 -0.2831
H20 H 0.6074 0.3055 -0.2065
O14 O 0.9316(3) 0.3130(3) 0.1867(3)
C14 C 0.3404(5) -0.0258(5) -0.4054(4)
H21 H 0.3245 -0.0223 -0.4694
H22 H 0.2827 -0.0136 -0.3789
O15 O 0.9575(4) 0.1371(4) 0.1861(3)
C15 C 0.7657(5) -0.0313(4) -0.0662(4)
H23 H 0.7156 -0.0858 -0.0458
H24 H 0.7515 -0.0757 -0.1358
O16 O 0.8003(3) 0.1711(3) 0.2418(3)
C16 C 0.9735(5) 0.0675(5) -0.0489(5)
H25 H 0.9701 0.1388 -0.0452
H26 H 0.9506 0.0161 -0.1188
O17 O 0.4757(3) 0.0964(3) -0.0021(3)
C17 C 0.9018(5) -0.0985(5) -0.0080(5)
H27 H 0.8774 -0.1542 -0.0768
H28 H 0.8497 -0.1367 0.0213
O18 O 0.4115(3) 0.0926(3) -0.1679(3)
C18 C 0.4202(5) 0.2677(5) -0.0058(4)
H29 H 0.4181 0.2688 0.0582
H30 H 0.3399 0.2340 -0.0509
O19 O 0.6089(3) 0.2623(3) -0.0377(3)
C19 C 0.4659(6) 0.3992(5) -0.0899(4)
H31 H 0.4844 0.3454 -0.1348
H32 H 0.3831 0.3753 -0.1199
C20 C 0.4607(6) 0.4764(5) 0.0764(4)
H33 H 0.3779 0.4532 0.0485
H34 H 0.4767 0.4739 0.1408
C21 C 1.0221(5) 0.3132(5) 0.3618(4)
H35 H 1.0343 0.2600 0.3877
H36 H 1.0970 0.3649 0.3624
C22 C 1.0757(5) 0.4563(5) 0.5336(4)
H37 H 1.1488 0.5073 0.5311
H38 H 1.0894 0.4028 0.5582
C23 C 0.9603(5) 0.4698(5) 0.3952(4)
H39 H 0.8984 0.4256 0.3295
H40 H 1.0307 0.5210 0.3894
Nd1A Nd 1.18665(2) 0.65034(2) -0.071170(19)
Nd1A_2 Nd 1.18665(2) -0.34966(2) -0.071170(19)
Nd1A_3 Nd 0.18665(2) 0.65034(2) -0.071170(19)
Nd1A_4 Nd 1.18665(2) 0.65034(2) 0.928830(19)
Nd2A Nd 0.40056(2) -0.10466(2) -0.152307(18)
Nd2A_2 Nd 1.40056(2) -0.10466(2) -0.152307(18)
Nd2_2 Nd 1.59944(2) 0.10466(2) 0.152307(18)
Nd2_3 Nd 0.59944(2) 1.10466(2) 0.152307(18)
Nd2A_3 Nd 0.40056(2) 0.89534(2) -0.152307(18)
Nd2A_4 Nd 1.40056(2) 0.89534(2) 0.847693(18)
Nd2_4 Nd 1.59944(2) 1.10466(2) 0.152307(18)
P1A P 1.11150(13) 0.58872(14) 0.12938(11)
P2A P 1.68099(13) 1.17503(13) 0.42694(10)
O1A O 0.1040(4) 0.4429(4) -0.2328(3)
C1A C 0.2066(5) 0.4575(5) -0.2049(4)
N1A N 1.3169(4) 0.7359(4) 0.3076(3)
H1A H 1.3387 0.7586 0.3748
O2A O 0.2684(4) 0.5030(3) -0.1125(3)
C2A C 0.3752(5) 0.6533(5) -0.2253(4)
N2A N 1.5393(4) 0.9260(4) 0.3352(3)
H2A H 1.5339 0.9164 0.2718
P3A P 1.28424(11) -0.07892(11) 0.06059(9)
O3A O 0.3012(3) 0.6740(3) -0.1907(3)
C3A C 0.2620(5) 0.4326(5) -0.2799(4)
N3A N 1.1101(4) -0.0074(4) 0.0070(3)
H3A H 1.0914 -0.0577 -0.0573
P4A P 0.51382(11) 0.82560(10) 0.05709(9)
O4A O 0.4706(4) 0.7348(4) -0.2116(3)
C4A C 0.3443(6) 0.5270(5) -0.2880(4)
N4A N 0.5107(4) 0.6072(4) -0.0081(3)
H4A H 0.4327 0.5840 -0.0354
P5A P 1.08244(11) 0.77349(12) 0.76750(9)
O5A O 1.1910(3) 0.5971(3) 0.0701(3)
O5A_2 O 0.1910(3) 0.5971(3) 0.0701(3)
C5A C 0.3964(7) 0.5046(7) -0.3583(6)
H5A H 0.4527 0.5671 -0.3631
N5A N 1.0164(4) 0.6139(4) 0.5703(3)
H6A H 1.0838 0.6633 0.5674
O6A O 1.0118(3) 0.4688(4) 0.0973(3)
O6_2 O -0.0118(3) 0.5312(4) -0.0973(3)
C6A C 0.3644(9) 0.3889(7) -0.4215(6)
H7A H 0.3986 0.3742 -0.4689
O7A O 1.0654(4) 0.6825(4) 0.1372(3)
H8A H 1.1016 0.7284 0.1167
C7A C 0.2835(8) 0.2979(7) -0.4136(6)
H9A H 0.2626 0.2209 -0.4560
O8A O 1.6201(4) 1.2066(4) 0.4999(3)
C8A C 0.2312(6) 0.3177(5) -0.3432(5)
H10A H 0.1759 0.2544 -0.3386
O9A O 1.6224(3) 1.1651(4) 0.3259(3)
O9A_2 O 0.6224(3) 0.1651(4) 0.3259(3)
O9_2 O 0.3776(3) 0.8349(4) -0.3259(3)
C9A C 1.1963(5) 0.6304(5) 0.2585(4)
H11A H 1.2049 0.5631 0.2607
H12A H 1.1503 0.6449 0.2987
O10A O 1.8134(4) 1.2519(4) 0.4742(3)
C10A C 1.3213(5) 0.8391(5) 0.2896(4)
H13A H 1.3071 0.8206 0.2195
H14A H 1.2599 0.8556 0.3055
O11A O 1.2892(3) -0.1321(3) -0.0428(2)
O11A_2 O 0.2892(3) 0.8679(3) -0.0428(2)
C11A C 1.4399(5) 0.9472(5) 0.3534(4)
H15A H 1.4506 0.9696 0.4234
H16A H 1.4414 1.0122 0.3386
O12A O 1.1925(3) -0.1821(3) 0.0691(3)
O12A_2 O 0.1925(3) 0.8179(3) 0.0691(3)
C12A C 1.5283(5) 0.8145(5) 0.3413(4)
H17A H 1.5873 0.7972 0.3209
H18A H 1.5439 0.8263 0.4103
O13A O 1.4017(3) -0.0074(3) 0.1452(2)
O13A_2 O 0.4017(3) -0.0074(3) 0.1452(2)
O13_2 O 0.5983(3) 1.0074(3) -0.1452(2)
C13A C 1.4076(5) 0.7097(5) 0.2762(4)
H19A H 1.4044 0.6400 0.2831
H20A H 1.3926 0.6945 0.2065
O14A O 1.0684(3) 0.6870(3) 0.8133(3)
O14A_2 O 0.0684(3) 0.6870(3) -0.1867(3)
C14A C 1.6596(5) 1.0258(5) 0.4054(4)
H21A H 1.6755 1.0223 0.4694
H22A H 1.7173 1.0136 0.3789
O15A O 1.0425(4) 0.8629(4) 0.8139(3)
C15A C 1.2343(5) 0.0313(4) 0.0662(4)
H23A H 1.2844 0.0858 0.0458
H24A H 1.2485 0.0757 0.1358
O16A O 1.1997(3) 0.8289(3) 0.7582(3)
O16A_2 O 0.1997(3) 0.8289(3) -0.2418(3)
C16A C 1.0265(5) -0.0675(5) 0.0489(5)
H25A H 1.0299 -0.1388 0.0452
H26A H 1.0494 -0.0161 0.1188
O17A O 0.5243(3) 0.9036(3) 0.0021(3)
O17A_2 O 0.5243(3) -0.0964(3) 0.0021(3)
O17_2 O 0.4757(3) 1.0964(3) -0.0021(3)
C17A C 1.0982(5) 0.0985(5) 0.0080(5)
H27A H 1.1226 0.1542 0.0768
H28A H 1.1503 0.1367 -0.0213
O18A O 0.5885(3) 0.9074(3) 0.1679(3)
O18A_2 O 0.5885(3) -0.0926(3) 0.1679(3)
O18_2 O 0.4115(3) 1.0926(3) -0.1679(3)
C18A C 0.5798(5) 0.7323(5) 0.0058(4)
H29A H 0.5819 0.7312 -0.0582
H30A H 0.6601 0.7660 0.0509
O19A O 0.3911(3) 0.7377(3) 0.0377(3)
C19A C 0.5341(6) 0.6008(5) 0.0899(4)
H31A H 0.5156 0.6546 0.1348
H32A H 0.6169 0.6247 0.1199
C20A C 0.5393(6) 0.5236(5) -0.0764(4)
H33A H 0.6221 0.5468 -0.0485
H34A H 0.5233 0.5261 -0.1408
C21A C 0.9779(5) 0.6868(5) 0.6382(4)
H35A H 0.9657 0.7400 0.6123
H36A H 0.9030 0.6351 0.6376
C22A C 0.9243(5) 0.5437(5) 0.4664(4)
H37A H 0.8512 0.4927 0.4689
H38A H 0.9106 0.5972 0.4418
C23A C 1.0397(5) 0.5302(5) 0.6048(4)
H39A H 1.1016 0.5744 0.6705
H40A H 0.9693 0.4790 0.6106
O20 O 0.4322(8) 0.2254(8) 0.3675(7)
O21 O 0.9272(9) 0.2039(9) 0.6097(8)
O22 O 0.8258(9) -0.0548(9) 0.2323(9)
O23 O 1.1619(9) 0.3611(8) 0.1741(9)
O24 O 0.8211(9) 0.6483(9) 0.0044(9)
O25 O 0.7432(14) -0.0461(12) -0.4023(11)
O26 O 0.6815(19) 0.4577(17) 0.5751(16)
O27 O 0.2260(16) 0.2385(18) 0.2853(13)
O28 O 0.9620(19) 0.052(2) 0.4501(16)
O29 O 0.9036(18) -0.2115(16) 0.1835(15)
loop_
_geom_bond_atom_site_label_1
_geom_bond_atom_site_label_2
_geom_bond_site_symmetry_1
_geom_bond_site_symmetry_2
Nd1 O1 1_555 1_555
Nd2 O3 1_555 1_555
P1 O5 1_555 1_555
P2 O8 1_555 1_555
O1 C1 1_555 1_555
C1 O2 1_555 1_555
N1 H1 1_555 1_555
O2 Nd1 1_555 1_555
C2 O3 1_555 1_555
N2 H2 1_555 1_555
P3 O11 1_555 1_555
O3 Nd1 1_555 1_555
C3 C1 1_555 1_555
N3 H3 1_555 1_555
P4 O17 1_555 1_555
O4 Nd2 1_555 1_555
C4 C2 1_555 1_555
N4 H4 1_555 1_555
P5 O14 1_555 1_555
O5 Nd1 1_555 1_555
C5 C4 1_555 1_555
H5 C5 1_555 1_555
N5 H6 1_555 1_555
O6 P1 1_555 1_555
C6 C5 1_555 1_555
H7 C6 1_555 1_555
O7 P1 1_555 1_555
H8 O7 1_555 1_555
C7 C6 1_555 1_555
H9 C7 1_555 1_555
C8 C3 1_555 1_555
H10 C8 1_555 1_555
O9 P2 1_555 1_555
C9 P1 1_555 1_555
H11 C9 1_555 1_555
H12 C9 1_555 1_555
O10 P2 1_555 1_555
C10 N1 1_555 1_555
H13 C10 1_555 1_555
H14 C10 1_555 1_555
O11 Nd1 1_555 1_555
C11 N2 1_555 1_555
H15 C11 1_555 1_555
H16 C11 1_555 1_555
O12 Nd1 1_555 1_555
C12 N2 1_555 1_555
H17 C12 1_555 1_555
H18 C12 1_555 1_555
O13 P3 1_555 1_555
C13 N1 1_555 1_555
H19 C13 1_555 1_555
H20 C13 1_555 1_555
O14 Nd1 1_555 1_555
C14 P2 1_555 1_555
H21 C14 1_555 1_555
H22 C14 1_555 1_555
O15 P5 1_555 1_555
C15 P3 1_555 1_555
H23 C15 1_555 1_555
H24 C15 1_555 1_555
O16 Nd2 1_555 1_555
C16 N3 1_555 1_555
H25 C16 1_555 1_555
H26 C16 1_555 1_555
O17 Nd2 1_555 1_555
C17 N3 1_555 1_555
H27 C17 1_555 1_555
H28 C17 1_555 1_555
O18 P4 1_555 1_555
C18 P4 1_555 1_555
H29 C18 1_555 1_555
H30 C18 1_555 1_555
O19 Nd1 1_555 1_555
C19 N4 1_555 1_555
H31 C19 1_555 1_555
H32 C19 1_555 1_555
C20 N4 1_555 1_555
H33 C20 1_555 1_555
H34 C20 1_555 1_555
C21 P5 1_555 1_555
H35 C21 1_555 1_555
H36 C21 1_555 1_555
C22 N5 1_555 1_555
H37 C22 1_555 1_555
H38 C22 1_555 1_555
C23 N5 1_555 1_555
H39 C23 1_555 1_555
H40 C23 1_555 1_555
Nd1A O6 1_555 1_555
Nd1A_2 O11A 1_555 1_555
Nd1A_3 O1A 1_555 1_555
Nd1A_4 O14A 1_555 1_555
Nd2A O9 1_555 1_555
Nd2A_2 O11A 1_555 1_555
Nd2_2 O13A 1_555 1_555
Nd2_3 O17A 1_555 1_555
Nd2A_3 O3A 1_555 1_555
Nd2A_4 O16A 1_555 1_555
Nd2_4 O9A 1_555 1_555
P1A O5A 1_555 1_555
P2A O8A 1_555 1_555
O1A C1A 1_555 1_555
C1A O2A 1_555 1_555
N1A H1A 1_555 1_555
O2A Nd1A_3 1_555 1_555
C2A O3A 1_555 1_555
N2A H2A 1_555 1_555
P3A O11A 1_555 1_555
O3A Nd1A_3 1_555 1_555
C3A C1A 1_555 1_555
N3A H3A 1_555 1_555
P4A O17A 1_555 1_555
O4A Nd2A_3 1_555 1_555
C4A C2A 1_555 1_555
N4A H4A 1_555 1_555
P5A O14A 1_555 1_555
O5A Nd1A 1_555 1_555
O5A_2 Nd1A_3 1_555 1_555
C5A C4A 1_555 1_555
H5A C5A 1_555 1_555
N5A H6A 1_555 1_555
O6A Nd1 1_555 1_555
O6_2 Nd1A_3 1_555 1_555
C6A C5A 1_555 1_555
H7A C6A 1_555 1_555
O7A P1A 1_555 1_555
H8A O7A 1_555 1_555
C7A C6A 1_555 1_555
H9A C7A 1_555 1_555
C8A C3A 1_555 1_555
H10A C8A 1_555 1_555
O9A P2A 1_555 1_555
O9A_2 Nd2 1_555 1_555
O9_2 Nd2A_3 1_555 1_555
C9A P1A 1_555 1_555
H11A C9A 1_555 1_555
H12A C9A 1_555 1_555
O10A P2A 1_555 1_555
C10A N1A 1_555 1_555
H13A C10A 1_555 1_555
H14A C10A 1_555 1_555
O11A_2 Nd1A_3 1_555 1_555
C11A N2A 1_555 1_555
H15A C11A 1_555 1_555
H16A C11A 1_555 1_555
O12A Nd1A_2 1_555 1_555
O12A_2 Nd1A_3 1_555 1_555
C12A N2A 1_555 1_555
H17A C12A 1_555 1_555
H18A C12A 1_555 1_555
O13A P3A 1_555 1_555
O13A_2 Nd2 1_555 1_555
O13_2 Nd2A_3 1_555 1_555
C13A N1A 1_555 1_555
H19A C13A 1_555 1_555
H20A C13A 1_555 1_555
O14A_2 Nd1A_3 1_555 1_555
C14A P2A 1_555 1_555
H21A C14A 1_555 1_555
H22A C14A 1_555 1_555
O15A P5A 1_555 1_555
C15A P3A 1_555 1_555
H23A C15A 1_555 1_555
H24A C15A 1_555 1_555
O16A P5A 1_555 1_555
O16A_2 Nd2A_3 1_555 1_555
C16A C17 1_555 1_555
H25A C16A 1_555 1_555
H26A C16A 1_555 1_555
O17A Nd2A_3 1_555 1_555
O17A_2 Nd2 1_555 1_555
O17_2 Nd2_3 1_555 1_555
C17A C16 1_555 1_555
H27A C17A 1_555 1_555
H28A C17A 1_555 1_555
O18A Nd2_3 1_555 1_555
O18A_2 Nd2 1_555 1_555
O18_2 Nd2A_3 1_555 1_555
C18A P4A 1_555 1_555
H29A C18A 1_555 1_555
H30A C18A 1_555 1_555
O19A Nd1A_3 1_555 1_555
C19A C20 1_555 1_555
H31A C19A 1_555 1_555
H32A C19A 1_555 1_555
C20A C19 1_555 1_555
H33A C20A 1_555 1_555
H34A C20A 1_555 1_555
C21A P5A 1_555 1_555
H35A C21A 1_555 1_555
H36A C21A 1_555 1_555
C22A C23 1_555 1_555
H37A C22A 1_555 1_555
H38A C22A 1_555 1_555
C23A C22 1_555 1_555
H39A C23A 1_555 1_555
H40A C23A 1_555 1_555
Nd2 O11 1_555 1_555
N1 C9 1_555 1_555
C2 O4 1_555 1_555
N2 C14 1_555 1_555
P3 O12 1_555 1_555
C3 C4 1_555 1_555
N3 C15 1_555 1_555
P4 O19 1_555 1_555
N4 C18 1_555 1_555
P5 O16 1_555 1_555
N5 C21 1_555 1_555
C7 C8 1_555 1_555
C10 C11 1_555 1_555
C12 C13 1_555 1_555
O13 Nd2A 1_555 1_555
O17 Nd2A 1_555 1_555
O18 Nd2A 1_555 1_555
Nd2A O17A_2 1_555 1_555
Nd2A_3 O11A_2 1_555 1_555
Nd2A_3 O17_2 1_555 1_555
P1A O6A 1_555 1_555
N1A C9A 1_555 1_555
C2A O4A 1_555 1_555
N2A C14A 1_555 1_555
P3A O12A 1_555 1_555
C3A C4A 1_555 1_555
N3A C15A 1_555 1_555
N3A C16A 1_555 1_555
N3A C17A 1_555 1_555
P4A O18A 1_555 1_555
P4A O19A 1_555 1_555
N4A C18A 1_555 1_555
N4A C19A 1_555 1_555
N4A C20A 1_555 1_555
N5A C21A 1_555 1_555
N5A C22A 1_555 1_555
N5A C23A 1_555 1_555
C7A C8A 1_555 1_555
C10A C11A 1_555 1_555
C12A C13A 1_555 1_555

#END
