
#######################################################################
#
#                 Cambridge Crystallographic Data Centre
#                                CCDC 
#
#######################################################################
#
# If this CIF has been generated from an entry in the Cambridge 
# Structural Database, then it will include bibliographic, chemical, 
# crystal, experimental, refinement or atomic coordinate data resulting 
# from the CCDC's data processing and validation procedures.
#
#######################################################################

data_AHIYUN
_chemical_formula_moiety         '(C52 H49 Co3 N4 O13 1+)n'
_symmetry_cell_setting           monoclinic
_symmetry_space_group_name_H-M   'C 2/c'
_symmetry_Int_Tables_number      15
_space_group_name_Hall           '-C 2yc'
loop_
_symmetry_equiv_pos_site_id
_symmetry_equiv_pos_as_xyz
1 x,y,z
2 -x,y,1/2-z
3 1/2+x,1/2+y,z
4 1/2-x,1/2+y,1/2-z
5 -x,-y,-z
6 x,-y,1/2+z
7 1/2-x,1/2-y,-z
8 1/2+x,1/2-y,1/2+z
_cell_length_a                   20.270(4)
_cell_length_b                   16.336(3)
_cell_length_c                   24.664(5)
_cell_angle_alpha                90
_cell_angle_beta                 101.671(4)
_cell_angle_gamma                90
_cell_volume                     7998.16
loop_
_atom_site_label
_atom_site_type_symbol
_atom_site_fract_x
_atom_site_fract_y
_atom_site_fract_z
Co1 Co 0.13335(3) 0.75376(3) 0.10000(2)
Co2 Co 0.30033(3) 0.76655(3) 0.10662(2)
Co3 Co 0.18867(3) 0.86937(3) 0.01175(2)
O1 O 0.20787(13) 0.76615(16) 0.05416(11)
H1 H 0.2057 0.7262 0.0318
O2 O 0.33507(17) 0.3410(2) 0.34093(13)
O3 O 0.22557(19) 0.3517(2) 0.34107(19)
O4 O 0.28790(17) 0.6732(2) 0.15780(15)
O5 O 0.17698(17) 0.6583(2) 0.14792(15)
C1 C 0.2778(3) 0.3696(3) 0.3240(2)
C2 C 0.2361(3) 0.6374(3) 0.16579(19)
C3 C 0.2693(3) 0.4334(3) 0.2796(2)
C4 C 0.2486(2) 0.5629(3) 0.2027(2)
C5 C 0.3006(17) 0.501(2) 0.2912(13)
H2 H 0.3289 0.5051 0.3259
C6 C 0.2968(16) 0.5732(19) 0.2560(9)
H3 H 0.3218 0.6205 0.2658
C7 C 0.2186(9) 0.4853(15) 0.1862(9)
C8 C 0.1770(6) 0.4738(8) 0.1339(5)
H4 H 0.1706 0.5162 0.1082
C9 C 0.1463(7) 0.4006(7) 0.1210(5)
H5 H 0.1179 0.3936 0.0867
C10 C 0.1564(7) 0.3358(8) 0.1584(6)
H6 H 0.1370 0.2852 0.1476
C11 C 0.1937(13) 0.3449(16) 0.2097(9)
H7 H 0.1980 0.3023 0.2352
C12 C 0.2258(10) 0.4198(15) 0.2238(7)
O6 O 0.57991(17) 0.3561(2) 0.05162(15)
O7 O 0.64462(17) 0.4600(2) 0.04230(15)
O8 O 0.34713(14) 0.67929(17) 0.06192(12)
O9 O 0.41413(17) 0.7296(2) 0.13456(14)
C13 C 0.5919(2) 0.4309(3) 0.05456(19)
C14 C 0.4041(2) 0.6793(3) 0.09694(18)
C15 C 0.5429(2) 0.4915(3) 0.07102(18)
C16 C 0.4538(2) 0.6140(3) 0.09054(18)
C17 C 0.5538(14) 0.5732(18) 0.0597(8)
H8 H 0.5915 0.5868 0.0454
C18 C 0.5105(13) 0.6352(16) 0.0690(7)
H9 H 0.5188 0.6894 0.0611
C19 C 0.4417(15) 0.535(2) 0.1010(13)
C20 C 0.3841(8) 0.5131(10) 0.1258(6)
H10 H 0.3561 0.5545 0.1340
C21 C 0.3705(10) 0.4345(12) 0.1372(7)
H11 H 0.3310 0.4213 0.1490
C22 C 0.4163(9) 0.3737(10) 0.1309(7)
H12 H 0.4092 0.3211 0.1430
C23 C 0.4725(15) 0.3875(19) 0.1076(10)
H13 H 0.4996 0.3449 0.0998
C24 C 0.4856(11) 0.4694(15) 0.0965(6)
O10 O 0.07910(19) 0.6684(2) 0.04261(15)
O11 O 0.03827(17) 0.7085(2) 0.11292(16)
O12 O -0.15912(17) 0.3613(2) 0.07122(19)
O13 O -0.22659(17) 0.4175(2) 0.00003(14)
C25 C 0.0350(2) 0.6646(3) 0.0706(2)
C26 C -0.1732(2) 0.4163(3) 0.03651(19)
C27 C -0.0212(2) 0.6034(3) 0.0565(2)
C28 C -0.1227(2) 0.4842(3) 0.03881(18)
C29 C -0.0098(6) 0.5266(7) 0.0855(5)
H14 H 0.0305 0.5163 0.1101
C30 C -0.0610(5) 0.4681(7) 0.0757(5)
H15 H -0.0545 0.4178 0.0937
C31 C -0.1335(5) 0.5608(6) 0.0126(5)
C32 C -0.1934(6) 0.5826(8) -0.0227(5)
H16 H -0.2293 0.5460 -0.0286
C33 C -0.2003(9) 0.6551(10) -0.0481(7)
H17 H -0.2394 0.6667 -0.0739
C34 C -0.0903(6) 0.6975(7) -0.0010(5)
H18 H -0.0563 0.7366 0.0071
C35 C -0.1473(9) 0.7157(11) -0.0358(7)
H19 H -0.1532 0.7671 -0.0523
C36 C -0.0807(5) 0.6201(6) 0.0236(4)
Co1B Co 0.63335(3) 0.25376(3) 0.10000(2)
Co1C Co 0.36665(3) 0.25376(3) 0.40000(2)
Co2B Co -0.19967(3) 0.26655(3) 0.10662(2)
Co2C Co 0.19967(3) 0.26655(3) 0.39338(2)
Co3B Co -0.31133(3) 0.36937(3) 0.01175(2)
Co3B_2 Co 0.68867(3) 0.36937(3) 0.01175(2)
Co3F Co 0.31133(3) 0.63063(3) -0.01175(2)
O2C O 0.16493(17) 0.8410(2) 0.15907(13)
O3C O 0.27443(19) 0.8517(2) 0.15893(19)
O6B O 0.07991(17) 0.8561(2) 0.05162(15)
O7B O 0.14462(17) 0.9600(2) 0.04230(15)
O8F O 0.15287(14) 0.82071(17) -0.06192(12)
O12B O 0.34088(17) 0.8613(2) 0.07122(19)
O13B O 0.27341(17) 0.9175(2) 0.00003(14)
N1 N -0.0233(5) 0.3334(7) 0.2531(5)
N2 N -0.0437(7) 0.4546(9) 0.2264(6)
C61 C -0.0320(9) 0.2481(10) 0.2595(8)
H38 H -0.0677 0.2283 0.2309
H39 H 0.0094 0.2214 0.2568
H40 H -0.0425 0.2367 0.2950
C62 C 0.0041(13) 0.4563(13) 0.2745(8)
H41 H 0.0266 0.5034 0.2928
C63 C 0.0205(12) 0.3827(13) 0.2890(9)
H42 H 0.0566 0.3630 0.3174
C64 C -0.0600(9) 0.3818(10) 0.2182(7)
H43 H -0.0955 0.3636 0.1889
C65 C -0.0730(10) 0.5234(12) 0.1890(8)
H44 H -0.1001 0.5021 0.1555
H45 H -0.0357 0.5520 0.1792
C66 C -0.1147(10) 0.5811(12) 0.2146(8)
H46 H -0.0863 0.6087 0.2456
H47 H -0.1488 0.5506 0.2286
C67 C -0.1493(14) 0.6456(15) 0.1720(11)
H48 H -0.1190 0.6639 0.1487
H49 H -0.1896 0.6232 0.1487
C68 C -0.1671(16) 0.7158(18) 0.2070(13)
H50 H -0.1783 0.7634 0.1842
H51 H -0.1292 0.7277 0.2362
H52 H -0.2049 0.7005 0.2227
N1A N 0.0233(5) 0.3334(7) 0.2469(5)
N2A N 0.0437(7) 0.4546(9) 0.2736(6)
C61A C 0.0320(9) 0.2481(10) 0.2405(8)
H38A H 0.0677 0.2283 0.2691
H39A H -0.0094 0.2214 0.2432
H40A H 0.0425 0.2367 0.2050
C62A C -0.0041(13) 0.4563(13) 0.2255(8)
H41A H -0.0266 0.5034 0.2072
C63A C -0.0205(12) 0.3827(13) 0.2110(9)
H42A H -0.0566 0.3630 0.1826
C64A C 0.0600(9) 0.3818(10) 0.2818(7)
H43A H 0.0955 0.3636 0.3111
C65A C 0.0730(10) 0.5234(12) 0.3110(8)
H44A H 0.1001 0.5021 0.3445
H45A H 0.0357 0.5520 0.3208
C66A C 0.1147(10) 0.5811(12) 0.2854(8)
H46A H 0.0863 0.6087 0.2544
H47A H 0.1488 0.5506 0.2714
C67A C 0.1493(14) 0.6456(15) 0.3280(11)
H48A H 0.1190 0.6639 0.3513
H49A H 0.1896 0.6232 0.3513
C68A C 0.1671(16) 0.7158(18) 0.2930(13)
H50A H 0.1783 0.7634 0.3158
H51A H 0.1292 0.7277 0.2638
H52A H 0.2049 0.7005 0.2773
loop_
_geom_bond_atom_site_label_1
_geom_bond_atom_site_label_2
_geom_bond_site_symmetry_1
_geom_bond_site_symmetry_2
Co1 O1 1_555 1_555
Co2 O1 1_555 1_555
Co3 O1 1_555 1_555
O1 H1 1_555 1_555
O2 C1 1_555 1_555
O3 C1 1_555 1_555
O4 Co2 1_555 1_555
O5 Co1 1_555 1_555
C1 C3 1_555 1_555
C2 O4 1_555 1_555
C3 C5 1_555 1_555
C4 C2 1_555 1_555
C5 H2 1_555 1_555
C6 C4 1_555 1_555
H3 C6 1_555 1_555
C7 C4 1_555 1_555
C8 C7 1_555 1_555
H4 C8 1_555 1_555
C9 C8 1_555 1_555
H5 C9 1_555 1_555
C10 C9 1_555 1_555
H6 C10 1_555 1_555
C11 C10 1_555 1_555
H7 C11 1_555 1_555
C12 C3 1_555 1_555
O6 C13 1_555 1_555
O7 C13 1_555 1_555
O8 Co2 1_555 1_555
O9 Co2 1_555 1_555
C13 C15 1_555 1_555
C14 O8 1_555 1_555
C15 C17 1_555 1_555
C16 C14 1_555 1_555
C17 H8 1_555 1_555
C18 C16 1_555 1_555
H9 C18 1_555 1_555
C19 C16 1_555 1_555
C20 C19 1_555 1_555
H10 C20 1_555 1_555
C21 C20 1_555 1_555
H11 C21 1_555 1_555
C22 C21 1_555 1_555
H12 C22 1_555 1_555
C23 C22 1_555 1_555
H13 C23 1_555 1_555
C24 C15 1_555 1_555
O10 Co1 1_555 1_555
O11 Co1 1_555 1_555
O12 C26 1_555 1_555
O13 C26 1_555 1_555
C25 O10 1_555 1_555
C26 C28 1_555 1_555
C27 C25 1_555 1_555
C28 C30 1_555 1_555
C29 C27 1_555 1_555
H14 C29 1_555 1_555
C30 C29 1_555 1_555
H15 C30 1_555 1_555
C31 C28 1_555 1_555
C32 C31 1_555 1_555
H16 C32 1_555 1_555
C33 C32 1_555 1_555
H17 C33 1_555 1_555
C34 H18 1_555 1_555
C35 C33 1_555 1_555
H19 C35 1_555 1_555
C36 C27 1_555 1_555
N1 C61 1_555 1_555
N2 C62 1_555 1_555
C61 H38 1_555 1_555
H39 C61 1_555 1_555
H40 C61 1_555 1_555
C62 H41 1_555 1_555
C63 N1 1_555 1_555
H42 C63 1_555 1_555
C64 N1 1_555 1_555
H43 C64 1_555 1_555
C65 N2 1_555 1_555
H44 C65 1_555 1_555
H45 C65 1_555 1_555
C66 C65 1_555 1_555
H46 C66 1_555 1_555
H47 C66 1_555 1_555
C67 C66 1_555 1_555
H48 C67 1_555 1_555
H49 C67 1_555 1_555
C68 C67 1_555 1_555
H50 C68 1_555 1_555
H51 C68 1_555 1_555
H52 C68 1_555 1_555
Co1B O6 1_555 1_555
Co1C O2 1_555 1_555
Co2B O12 1_555 1_555
Co2C O3 1_555 1_555
Co3B O13 1_555 1_555
Co3B_2 O7 1_555 1_555
Co3F O8 1_555 1_555
O2C Co1 1_555 1_555
O3C Co2 1_555 1_555
O6B Co1 1_555 1_555
O7B Co3 1_555 1_555
O8F Co3 1_555 1_555
O12B Co2 1_555 1_555
O13B Co3 1_555 1_555
N1A C61A 1_555 1_555
N2A C62A 1_555 1_555
C61A H38A 1_555 1_555
H39A C61A 1_555 1_555
H40A C61A 1_555 1_555
C62A H41A 1_555 1_555
C63A N1A 1_555 1_555
H42A C63A 1_555 1_555
C64A N1A 1_555 1_555
H43A C64A 1_555 1_555
C65A N2A 1_555 1_555
H44A C65A 1_555 1_555
H45A C65A 1_555 1_555
C66A C65A 1_555 1_555
H46A C66A 1_555 1_555
H47A C66A 1_555 1_555
C67A C66A 1_555 1_555
H48A C67A 1_555 1_555
H49A C67A 1_555 1_555
C68A C67A 1_555 1_555
H50A C68A 1_555 1_555
H51A C68A 1_555 1_555
H52A C68A 1_555 1_555
O5 C2 1_555 1_555
C5 C6 1_555 1_555
C7 C12 1_555 1_555
C11 C12 1_555 1_555
O9 C14 1_555 1_555
C17 C18 1_555 1_555
C19 C24 1_555 1_555
C23 C24 1_555 1_555
O11 C25 1_555 1_555
C31 C36 1_555 1_555
C34 C35 1_555 1_555
C34 C36 1_555 1_555
N2 C64 1_555 1_555
C62 C63 1_555 1_555
N2A C64A 1_555 1_555
C62A C63A 1_555 1_555

#END
