
#######################################################################
#
#                 Cambridge Crystallographic Data Centre
#                                CCDC 
#
#######################################################################
#
# If this CIF has been generated from an entry in the Cambridge 
# Structural Database, then it will include bibliographic, chemical, 
# crystal, experimental, refinement or atomic coordinate data resulting 
# from the CCDC's data processing and validation procedures.
#
#######################################################################

data_SIWGUB
_chemical_formula_moiety         '(C16 H20 Cu2 O8)n'
_symmetry_cell_setting           triclinic
_symmetry_space_group_name_H-M   'P -1'
_symmetry_Int_Tables_number      2
_space_group_name_Hall           '-P 1'
loop_
_symmetry_equiv_pos_site_id
_symmetry_equiv_pos_as_xyz
1 x,y,z
2 -x,-y,-z
_cell_length_a                   5.140(2)
_cell_length_b                   9.856(5)
_cell_length_c                   10.673(5)
_cell_angle_alpha                77.310(9)
_cell_angle_beta                 80.697(6)
_cell_angle_gamma                85.024(9)
_cell_volume                     519.81
loop_
_atom_site_label
_atom_site_type_symbol
_atom_site_fract_x
_atom_site_fract_y
_atom_site_fract_z
Cu1 Cu 0.2075(1) 0.07026(7) 0.48320(6)
O1 O 0.1177(8) 0.0625(4) 0.6668(4)
O2 O -0.2365(7) -0.0620(4) 0.6975(4)
O3 O 0.6220(7) 0.1200(3) 0.4795(3)
O4 O 0.9774(7) 0.2383(4) 0.4538(4)
C1 C -0.103(1) -0.0047(7) 0.8811(6)
C2 C -0.066(2) 0.1290(9) 0.9124(7)
C3 C 0.078(2) -0.1187(9) 0.9404(7)
C4 C -0.073(1) -0.0020(6) 0.7375(5)
C5 C 0.562(1) 0.3647(5) 0.4651(6)
C6 C 0.698(1) 0.4930(6) 0.3845(6)
C7 C 0.478(1) 0.3756(6) 0.6044(6)
C8 C 0.7297(10) 0.2331(5) 0.4621(5)
H1 H -0.2660 -0.0345 0.9186
H2 H 0.1183 0.1253 0.8788
H3 H -0.1454 0.1988 0.8458
H4 H 0.2636 -0.0985 0.9005
H5 H 0.0492 -0.2064 0.9235
H6 H 0.4312 0.3463 0.4313
H7 H 0.8343 0.4936 0.4276
H8 H 0.7781 0.4859 0.2855
H9 H 0.6714 0.3912 0.6329
H10 H 0.3794 0.3002 0.6566
Cu1A Cu -0.2075(1) -0.07026(7) 1.51680(6)
Cu1A_2 Cu -0.2075(1) -0.07026(7) 0.51680(6)
Cu1A_3 Cu 0.7925(1) -0.07026(7) 0.51680(6)
Cu1_2 Cu 1.2075(1) 0.07026(7) 0.48320(6)
Cu1_3 Cu 0.2075(1) 0.07026(7) 1.48320(6)
Cu1_4 Cu 0.2075(1) 1.07026(7) 0.48320(6)
Cu1A_4 Cu 0.7925(1) 0.92974(7) 0.51680(6)
Cu1A_5 Cu -0.2075(1) 0.92974(7) 0.51680(6)
O1A O -0.1177(8) -0.0625(4) 1.3332(4)
O2A O 0.2365(7) 0.0620(4) 1.3025(4)
O2A_2 O 0.2365(7) 0.0620(4) 0.3025(4)
O2_2 O -0.2365(7) -0.0620(4) 1.6975(4)
O3A O 0.3780(7) 0.8800(3) 0.5205(3)
O3A_2 O 0.3780(7) -0.1200(3) 0.5205(3)
O3_2 O -0.3780(7) 0.1200(3) 1.4795(3)
O3A_3 O -0.6220(7) -0.1200(3) 1.5205(3)
O4A O 0.0226(7) 0.7617(4) 0.5462(4)
O4_2 O -0.0226(7) 0.2383(4) 0.4538(4)
O4A_2 O 0.0226(7) -0.2383(4) 1.5462(4)
C1A C 0.103(1) 0.0047(7) 1.1189(6)
C2A C 0.066(2) -0.1290(9) 1.0876(7)
C3A C -0.078(2) 0.1187(9) 1.0596(7)
C4A C 0.073(1) 0.0020(6) 1.2625(5)
C5A C 0.438(1) 0.6353(5) 0.5349(6)
C6A C 0.302(1) 0.5070(6) 0.6155(6)
C7A C 0.522(1) 0.6244(6) 0.3956(6)
C8A C 0.2703(10) 0.7669(5) 0.5379(5)
H1A H 0.2660 0.0345 1.0814
H2A H -0.1183 -0.1253 1.1212
H3A H 0.1454 -0.1988 1.1542
H4A H -0.2636 0.0985 1.0995
H5A H -0.0492 0.2064 1.0765
H6A H 0.5688 0.6537 0.5687
H7A H 0.1657 0.5064 0.5724
H8A H 0.2219 0.5141 0.7145
H9A H 0.3286 0.6088 0.3671
H10A H 0.6206 0.6998 0.3434
loop_
_geom_bond_atom_site_label_1
_geom_bond_atom_site_label_2
_geom_bond_site_symmetry_1
_geom_bond_site_symmetry_2
Cu1 O1 1_555 1_555
O1 C4 1_555 1_555
O2 C4 1_555 1_555
O3 Cu1 1_555 1_555
O4 C8 1_555 1_555
C1 C2 1_555 1_555
C2 H2 1_555 1_555
C3 C1 1_555 1_555
C4 C1 1_555 1_555
C5 C6 1_555 1_555
C6 H7 1_555 1_555
C7 C5 1_555 1_555
C8 O3 1_555 1_555
H1 C1 1_555 1_555
H3 C2 1_555 1_555
H4 C3 1_555 1_555
H5 C3 1_555 1_555
H6 C5 1_555 1_555
H8 C6 1_555 1_555
H9 C7 1_555 1_555
H10 C7 1_555 1_555
Cu1A O1A 1_555 1_555
Cu1A_2 O2 1_555 1_555
Cu1A_3 O3 1_555 1_555
Cu1_2 O4 1_555 1_555
Cu1_3 O2A 1_555 1_555
Cu1_4 O3A 1_555 1_555
Cu1A_4 O3A 1_555 1_555
Cu1A_5 O4A 1_555 1_555
O1A C4A 1_555 1_555
O2A C4A 1_555 1_555
O2A_2 Cu1 1_555 1_555
O2_2 Cu1A 1_555 1_555
O3A C8A 1_555 1_555
O3A_2 Cu1 1_555 1_555
O3_2 Cu1A 1_555 1_555
O3A_3 Cu1A 1_555 1_555
O4A C8A 1_555 1_555
O4_2 Cu1 1_555 1_555
O4A_2 Cu1A 1_555 1_555
C1A C2A 1_555 1_555
C2A C3 1_555 1_555
C3A C2 1_555 1_555
C4A C1A 1_555 1_555
C5A C6A 1_555 1_555
C6A C7 1_555 1_555
C7A C6 1_555 1_555
C8A C5A 1_555 1_555
H1A C1A 1_555 1_555
H2A C2A 1_555 1_555
H3A C2A 1_555 1_555
H4A C3A 1_555 1_555
H5A C3A 1_555 1_555
H6A C5A 1_555 1_555
H7A C6A 1_555 1_555
H8A C6A 1_555 1_555
H9A C7A 1_555 1_555
H10A C7A 1_555 1_555
C5 C8 1_555 1_555
Cu1A_3 O3A_2 1_555 1_555
C1A C3A 1_555 1_555
C5A C7A 1_555 1_555

#END
