
#######################################################################
#
#                 Cambridge Crystallographic Data Centre
#                                CCDC 
#
#######################################################################
#
# If this CIF has been generated from an entry in the Cambridge 
# Structural Database, then it will include bibliographic, chemical, 
# crystal, experimental, refinement or atomic coordinate data resulting 
# from the CCDC's data processing and validation procedures.
#
#######################################################################

data_NEHGIS
_chemical_formula_moiety         'C44 H28 N1 O31 Zn18 1-'
_symmetry_cell_setting           cubic
_symmetry_space_group_name_H-M   'I a -3'
_symmetry_Int_Tables_number      206
_space_group_name_Hall           '-I 2b 2c 3'
loop_
_symmetry_equiv_pos_site_id
_symmetry_equiv_pos_as_xyz
1 x,y,z
2 1/2-x,-y,1/2+z
3 -x,1/2+y,1/2-z
4 1/2+x,1/2-y,-z
5 z,x,y
6 1/2+z,1/2-x,-y
7 1/2-z,-x,1/2+y
8 -z,1/2+x,1/2-y
9 y,z,x
10 -y,1/2+z,1/2-x
11 1/2+y,1/2-z,-x
12 1/2-y,-z,1/2+x
13 1/2+x,1/2+y,1/2+z
14 -x,1/2-y,z
15 1/2-x,y,-z
16 x,-y,1/2-z
17 1/2+z,1/2+x,1/2+y
18 z,-x,1/2-y
19 -z,1/2-x,y
20 1/2-z,x,-y
21 1/2+y,1/2+z,1/2+x
22 1/2-y,z,-x
23 y,-z,1/2-x
24 -y,1/2-z,x
25 -x,-y,-z
26 1/2+x,y,1/2-z
27 x,1/2-y,1/2+z
28 1/2-x,1/2+y,z
29 -z,-x,-y
30 1/2-z,1/2+x,y
31 1/2+z,x,1/2-y
32 z,1/2-x,1/2+y
33 -y,-z,-x
34 y,1/2-z,1/2+x
35 1/2-y,1/2+z,x
36 1/2+y,z,1/2-x
37 1/2-x,1/2-y,1/2-z
38 x,1/2+y,-z
39 1/2+x,-y,z
40 -x,y,1/2+z
41 1/2-z,1/2-x,1/2-y
42 -z,x,1/2+y
43 z,1/2+x,-y
44 1/2+z,-x,y
45 1/2-y,1/2-z,1/2-x
46 1/2+y,-z,x
47 -y,z,1/2+x
48 y,1/2+z,-x
_cell_length_a                   22.5150(9)
_cell_length_b                   22.5150(9)
_cell_length_c                   22.5150(9)
_cell_angle_alpha                90
_cell_angle_beta                 90
_cell_angle_gamma                90
_cell_volume                     11413.4
loop_
_atom_site_label
_atom_site_type_symbol
_atom_site_fract_x
_atom_site_fract_y
_atom_site_fract_z
O4 O -0.0000 0.2500 0.3599(4)
C1 C 0.67495(19) 0.31792(16) 0.04867(16)
C2 C 0.66724(17) 0.37896(16) 0.03356(17)
H1 H 0.6708 0.4080 0.0628
C3 C 0.65461(18) 0.39520(17) -0.02407(18)
H2 H 0.6506 0.4351 -0.0338
C4 C 0.64794(18) 0.35266(16) -0.06698(17)
C5 C 0.65417(17) 0.29338(16) -0.05313(17)
H3 H 0.6491 0.2646 -0.0823
C6 C 0.66802(17) 0.27697(17) 0.00457(17)
H4 H 0.6727 0.2369 0.0135
C7 C 0.6957(2) 0.29860(18) 0.10903(18)
C8 C 0.63546(17) 0.36454(17) -0.13546(17)
H5 H 0.6606 0.3394 -0.1606
O5 O 0.7500 0.2500 0.2500
O6 O 0.70520(12) 0.24760(12) 0.11500(12)
O7 O 0.69876(11) 0.33515(13) 0.15002(11)
Zn1 Zn 0.677408(19) 0.237394(19) 0.20381(2)
C1I C 0.68208(16) 0.54867(16) -0.17495(19)
C1F C 0.45133(16) 0.32505(19) -0.18208(16)
C1QA C 0.54867(16) 0.32505(19) 0.31792(16)
C1MA C 0.32505(19) 0.31792(16) 0.54867(16)
C1UA C 0.31792(16) 0.54867(16) 0.32505(19)
C2I C 0.62104(16) 0.53356(17) -0.16724(17)
C2F C 0.46644(17) 0.33276(17) -0.12104(16)
C2QA C 0.53356(17) 0.33276(17) 0.37896(16)
C2MA C 0.33276(17) 0.37896(16) 0.53356(17)
C2UA C 0.37896(16) 0.53356(17) 0.33276(17)
H1I H 0.5920 0.5628 -0.1708
H1F H 0.4372 0.3292 -0.0920
H1QA H 0.5628 0.3292 0.4080
H1MA H 0.3292 0.4080 0.5628
H1UA H 0.4080 0.5628 0.3292
C3I C 0.60480(17) 0.47593(18) -0.15461(18)
C3F C 0.52407(18) 0.34539(18) -0.10480(17)
C3QA C 0.47593(18) 0.34539(18) 0.39520(17)
C3MA C 0.34539(18) 0.39520(17) 0.47593(18)
C3UA C 0.39520(17) 0.47593(18) 0.34539(18)
H2I H 0.5649 0.4662 -0.1506
H2F H 0.5338 0.3494 -0.0649
H2QA H 0.4662 0.3494 0.4351
H2MA H 0.3494 0.4351 0.4662
H2UA H 0.4351 0.4662 0.3494
C4I C 0.64734(16) 0.43302(17) -0.14794(18)
C4F C 0.56698(17) 0.35206(18) -0.14734(16)
C4QA C 0.43302(17) 0.35206(18) 0.35266(16)
C4MA C 0.35206(18) 0.35266(16) 0.43302(17)
C4UA C 0.35266(16) 0.43302(17) 0.35206(18)
C5I C 0.70662(16) 0.44687(17) -0.15417(17)
C5F C 0.55313(17) 0.34583(17) -0.20662(16)
C5QA C 0.44687(17) 0.34583(17) 0.29338(16)
C5MA C 0.34583(17) 0.29338(16) 0.44687(17)
C5UA C 0.29338(16) 0.44687(17) 0.34583(17)
H3I H 0.7354 0.4177 -0.1491
H3F H 0.5823 0.3509 -0.2354
H3QA H 0.4177 0.3509 0.2646
H3MA H 0.3509 0.2646 0.4177
H3UA H 0.2646 0.4177 0.3509
C6I C 0.72303(17) 0.50457(17) -0.16802(17)
C6F C 0.49543(17) 0.33198(17) -0.22303(17)
C6QA C 0.50457(17) 0.33198(17) 0.27697(17)
C6MA C 0.33198(17) 0.27697(17) 0.50457(17)
C6UA C 0.27697(17) 0.50457(17) 0.33198(17)
H4I H 0.7631 0.5135 -0.1727
H4F H 0.4865 0.3273 -0.2631
H4QA H 0.5135 0.3273 0.2369
H4MA H 0.3273 0.2369 0.5135
H4UA H 0.2369 0.5135 0.3273
C7I C 0.70140(18) 0.60903(18) -0.1957(2)
C7F C 0.39097(18) 0.3043(2) -0.20140(18)
C7QA C 0.60903(18) 0.3043(2) 0.29860(18)
C7MA C 0.3043(2) 0.29860(18) 0.60903(18)
C7UA C 0.29860(18) 0.60903(18) 0.3043(2)
C8MA C 0.36454(17) 0.36454(17) 0.36454(17)
H5MA H 0.3394 0.3394 0.3394
O5A O 0.7500 0.7500 -0.2500
O5C O 0.2500 0.2500 -0.2500
O5C_2 O 0.2500 0.2500 0.7500
O5B O 0.2500 0.7500 0.2500
O6I O 0.75240(12) 0.61500(12) -0.20520(12)
O6F O 0.38500(12) 0.29480(12) -0.25240(12)
O6QA O 0.61500(12) 0.29480(12) 0.24760(12)
O6MA O 0.29480(12) 0.24760(12) 0.61500(12)
O6UA O 0.24760(12) 0.61500(12) 0.29480(12)
O6KA O 0.70520(12) 0.74760(12) -0.11500(12)
O6RA O 0.25240(12) 0.38500(12) -0.20520(12)
O6J O 0.74760(12) 0.38500(12) 0.29480(12)
O6F_2 O 0.38500(12) 0.29480(12) 0.74760(12)
O6B O 0.29480(12) 0.74760(12) 0.38500(12)
O7I O 0.66485(13) 0.65002(11) -0.19876(11)
O7F O 0.34998(11) 0.30124(11) -0.16485(13)
O7QA O 0.65002(11) 0.30124(11) 0.33515(13)
O7MA O 0.30124(11) 0.33515(13) 0.65002(11)
O7UA O 0.33515(13) 0.65002(11) 0.30124(11)
O7TA O 0.66485(13) 0.15002(11) 0.19876(11)
O7OA O 0.84998(11) 0.69876(11) -0.16485(13)
O7MA_2 O 0.30124(11) 0.33515(13) -0.34998(11)
O7H O 0.33515(13) 0.15002(11) 0.69876(11)
O7D O 0.15002(11) 0.69876(11) 0.33515(13)
Zn1I Zn 0.762606(19) 0.70381(2) -0.177408(19)
Zn1F Zn 0.29619(2) 0.322592(19) -0.262606(19)
Zn1QA Zn 0.70381(2) 0.322592(19) 0.237394(19)
Zn1MA Zn 0.322592(19) 0.237394(19) 0.70381(2)
Zn1UA Zn 0.237394(19) 0.70381(2) 0.322592(19)
Zn1G Zn 0.79619(2) 0.177408(19) 0.262606(19)
Zn1J Zn 0.737394(19) 0.29619(2) 0.322592(19)
Zn1JA Zn 0.822592(19) 0.262606(19) 0.29619(2)
Zn1TA Zn 0.762606(19) 0.20381(2) 0.177408(19)
Zn1OA Zn 0.79619(2) 0.677408(19) -0.262606(19)
Zn1KA Zn 0.677408(19) 0.737394(19) -0.20381(2)
Zn1MA_2 Zn 0.322592(19) 0.237394(19) -0.29619(2)
Zn1RA Zn 0.262606(19) 0.29619(2) -0.177408(19)
Zn1H Zn 0.237394(19) 0.20381(2) 0.677408(19)
Zn1F_2 Zn 0.29619(2) 0.322592(19) 0.737394(19)
Zn1D Zn 0.20381(2) 0.677408(19) 0.237394(19)
Zn1B Zn 0.322592(19) 0.737394(19) 0.29619(2)
N1 N 0.5770(2) 0.1325(2) 0.0370(2)
O1 O 0.62619(18) 0.12291(19) 0.05730(18)
O2 O 0.55875(17) 0.18153(19) 0.02925(17)
O3 O 0.54448(18) 0.0915(2) 0.02159(18)
loop_
_geom_bond_atom_site_label_1
_geom_bond_atom_site_label_2
_geom_bond_site_symmetry_1
_geom_bond_site_symmetry_2
N1 O1 1_555 1_555
O2 N1 1_555 1_555
O3 N1 1_555 1_555
C1 C2 1_555 1_555
C2 H1 1_555 1_555
C3 C2 1_555 1_555
H2 C3 1_555 1_555
C4 C3 1_555 1_555
C5 C4 1_555 1_555
H3 C5 1_555 1_555
C6 C1 1_555 1_555
H4 C6 1_555 1_555
C7 C1 1_555 1_555
C8 C4 1_555 1_555
H5 C8 1_555 1_555
O5 Zn1 1_555 1_555
O6 C7 1_555 1_555
O7 C7 1_555 1_555
Zn1 O6 1_555 1_555
C1I C2I 1_555 1_555
C1F C2F 1_555 1_555
C1QA C2QA 1_555 1_555
C1MA C2MA 1_555 1_555
C1UA C2UA 1_555 1_555
C2I H1I 1_555 1_555
C2F H1F 1_555 1_555
C2QA H1QA 1_555 1_555
C2MA H1MA 1_555 1_555
C2UA H1UA 1_555 1_555
C3I C2I 1_555 1_555
C3F C2F 1_555 1_555
C3QA C2QA 1_555 1_555
C3MA C2MA 1_555 1_555
C3UA C2UA 1_555 1_555
H2I C3I 1_555 1_555
H2F C3F 1_555 1_555
H2QA C3QA 1_555 1_555
H2MA C3MA 1_555 1_555
H2UA C3UA 1_555 1_555
C4I C8 1_555 1_555
C4F C8 1_555 1_555
C4QA C3QA 1_555 1_555
C4MA C3MA 1_555 1_555
C4UA C3UA 1_555 1_555
C5I C4I 1_555 1_555
C5F C4F 1_555 1_555
C5QA C4QA 1_555 1_555
C5MA C4MA 1_555 1_555
C5UA C4UA 1_555 1_555
H3I C5I 1_555 1_555
H3F C5F 1_555 1_555
H3QA C5QA 1_555 1_555
H3MA C5MA 1_555 1_555
H3UA C5UA 1_555 1_555
C6I C1I 1_555 1_555
C6F C1F 1_555 1_555
C6QA C1QA 1_555 1_555
C6MA C1MA 1_555 1_555
C6UA C1UA 1_555 1_555
H4I C6I 1_555 1_555
H4F C6F 1_555 1_555
H4QA C6QA 1_555 1_555
H4MA C6MA 1_555 1_555
H4UA C6UA 1_555 1_555
C7I C1I 1_555 1_555
C7F C1F 1_555 1_555
C7QA C1QA 1_555 1_555
C7MA C1MA 1_555 1_555
C7UA C1UA 1_555 1_555
C8MA C4QA 1_555 1_555
H5MA C8MA 1_555 1_555
O5A Zn1I 1_555 1_555
O5C Zn1F 1_555 1_555
O5C_2 Zn1MA 1_555 1_555
O5B Zn1UA 1_555 1_555
O6I C7I 1_555 1_555
O6F C7F 1_555 1_555
O6QA Zn1 1_555 1_555
O6MA C7MA 1_555 1_555
O6UA C7UA 1_555 1_555
O6KA Zn1I 1_555 1_555
O6RA Zn1F 1_555 1_555
O6J Zn1QA 1_555 1_555
O6F_2 Zn1MA 1_555 1_555
O6B Zn1UA 1_555 1_555
O7I C7I 1_555 1_555
O7F C7F 1_555 1_555
O7QA C7QA 1_555 1_555
O7MA C7MA 1_555 1_555
O7UA C7UA 1_555 1_555
O7TA Zn1 1_555 1_555
O7OA Zn1I 1_555 1_555
O7MA_2 Zn1F 1_555 1_555
O7H Zn1MA 1_555 1_555
O7D Zn1UA 1_555 1_555
Zn1I O6I 1_555 1_555
Zn1F O6F 1_555 1_555
Zn1QA O5 1_555 1_555
Zn1MA O6MA 1_555 1_555
Zn1UA O6UA 1_555 1_555
Zn1G O5 1_555 1_555
Zn1J O5 1_555 1_555
Zn1JA O5 1_555 1_555
Zn1TA O5 1_555 1_555
Zn1OA O5A 1_555 1_555
Zn1KA O5A 1_555 1_555
Zn1MA_2 O5C 1_555 1_555
Zn1RA O5C 1_555 1_555
Zn1H O5C_2 1_555 1_555
Zn1F_2 O5C_2 1_555 1_555
Zn1D O5B 1_555 1_555
Zn1B O5B 1_555 1_555
C5 C6 1_555 1_555
O6 Zn1TA 1_555 1_555
O7 Zn1QA 1_555 1_555
Zn1 Zn1QA 1_555 1_555
Zn1 Zn1TA 1_555 1_555
C3I C4I 1_555 1_555
C3F C4F 1_555 1_555
C4MA C8MA 1_555 1_555
C4UA C8MA 1_555 1_555
C5I C6I 1_555 1_555
C5F C6F 1_555 1_555
C5QA C6QA 1_555 1_555
C5MA C6MA 1_555 1_555
C5UA C6UA 1_555 1_555
C7QA O6QA 1_555 1_555
O6I Zn1OA 1_555 1_555
O6F Zn1MA_2 1_555 1_555
O6QA Zn1QA 1_555 1_555
O6MA Zn1H 1_555 1_555
O6UA Zn1D 1_555 1_555
O6KA Zn1KA 1_555 1_555
O6RA Zn1RA 1_555 1_555
O6J Zn1J 1_555 1_555
O6F_2 Zn1F_2 1_555 1_555
O6B Zn1B 1_555 1_555
O7I Zn1KA 1_555 1_555
O7F Zn1RA 1_555 1_555
O7QA Zn1J 1_555 1_555
O7MA Zn1F_2 1_555 1_555
O7UA Zn1B 1_555 1_555
Zn1I Zn1OA 1_555 1_555
Zn1I Zn1KA 1_555 1_555
Zn1F Zn1MA_2 1_555 1_555
Zn1F Zn1RA 1_555 1_555
Zn1QA Zn1J 1_555 1_555
Zn1MA Zn1H 1_555 1_555
Zn1MA Zn1F_2 1_555 1_555
Zn1UA Zn1D 1_555 1_555
Zn1UA Zn1B 1_555 1_555
Zn1G Zn1JA 1_555 1_555
Zn1G Zn1TA 1_555 1_555
Zn1J Zn1JA 1_555 1_555

#END
