
#######################################################################
#
#                 Cambridge Crystallographic Data Centre
#                                CCDC 
#
#######################################################################
#
# If this CIF has been generated from an entry in the Cambridge 
# Structural Database, then it will include bibliographic, chemical, 
# crystal, experimental, refinement or atomic coordinate data resulting 
# from the CCDC's data processing and validation procedures.
#
#######################################################################

data_VICDOC
_chemical_formula_moiety         '(C38 H24 Fe2 N12)n'
_symmetry_cell_setting           orthorhombic
_symmetry_space_group_name_H-M   'F d d d'
_symmetry_Int_Tables_number      70
_space_group_name_Hall           '-F 2uv 2vw'
loop_
_symmetry_equiv_pos_site_id
_symmetry_equiv_pos_as_xyz
1 x,y,z
2 1/4-x,1/4-y,z
3 1/4-x,3/4-y,1/2+z
4 1/4-x,y,1/4-z
5 1/4-x,1/2+y,3/4-z
6 3/4-x,1/4-y,1/2+z
7 3/4-x,3/4-y,z
8 3/4-x,y,3/4-z
9 3/4-x,1/2+y,1/4-z
10 x,1/4-y,1/4-z
11 x,3/4-y,3/4-z
12 x,1/2+y,1/2+z
13 1/2+x,1/4-y,3/4-z
14 1/2+x,3/4-y,1/4-z
15 1/2+x,y,1/2+z
16 1/2+x,1/2+y,z
17 -x,-y,-z
18 3/4+x,3/4+y,-z
19 3/4+x,1/4+y,1/2-z
20 3/4+x,-y,3/4+z
21 3/4+x,1/2-y,1/4+z
22 1/4+x,3/4+y,1/2-z
23 1/4+x,1/4+y,-z
24 1/4+x,-y,1/4+z
25 1/4+x,1/2-y,3/4+z
26 -x,3/4+y,3/4+z
27 -x,1/4+y,1/4+z
28 -x,1/2-y,1/2-z
29 1/2-x,3/4+y,1/4+z
30 1/2-x,1/4+y,3/4+z
31 1/2-x,-y,1/2-z
32 1/2-x,1/2-y,-z
_cell_length_a                   7.10461(23)
_cell_length_b                   26.49427(45)
_cell_length_c                   45.34888(93)
_cell_angle_alpha                90
_cell_angle_beta                 90
_cell_angle_gamma                90
_cell_volume                     8536.09
loop_
_atom_site_label
_atom_site_type_symbol
_atom_site_fract_x
_atom_site_fract_y
_atom_site_fract_z
_atom_site_U_iso_or_equiv
_atom_site_thermal_displace_type
C11 C 0.211160 0.381055 0.308844 0.0655 Uiso
C12 C 0.250176 0.343671 0.258308 0.0655 Uiso
Fe1 Fe 0.375 0.375 0.11996(44) 0.0149 Uiso
C1 C -0.130518 0.502014 0.022804 0.0402 Uiso
C2 C 0.033611 0.474023 0.026105 0.0402 Uiso
C3 C 0.068674 0.446926 0.053336 0.0402 Uiso
C4 C -0.066202 0.432746 0.073936 0.0402 Uiso
C5 C 0.243062 0.430568 0.063423 0.0402 Uiso
C6 C 0.164129 0.472009 0.003301 0.0402 Uiso
N1 N 0.024829 0.407625 0.096756 0.0402 Uiso
N2 N 0.215964 0.406279 0.090258 0.0402 Uiso
H1 H -0.219721 0.503391 0.038389 0.0402 Uiso
H2 H -0.193025 0.441625 0.069793 0.0402 Uiso
H3 H 0.349027 0.437809 0.051367 0.0402 Uiso
H4 H 0.276304 0.452879 0.005557 0.0402 Uiso
C7 C -0.044436 0.098768 0.125 0.0402 Uiso
C8 C 0.125 0.072536 0.125 0.0402 Uiso
C9 C 0.125 0.017807 0.125 0.0402 Uiso
C10 C -0.033282 -0.013031 0.125 0.0402 Uiso
N3 N 0.027176 -0.062927 0.125 0.0402 Uiso
H5 H -0.160237 0.080840 0.125 0.0402 Uiso
H6 H -0.152424 0.003248 0.125 0.0402 Uiso
C1P C 0.130518 0.497986 -0.022804 0.0402 Uiso
C2P C -0.033611 0.525977 -0.026105 0.0402 Uiso
C3P C -0.068674 0.553074 -0.053336 0.0402 Uiso
C4P C 0.066202 0.567254 -0.073936 0.0402 Uiso
C5P C -0.243062 0.569432 -0.063423 0.0402 Uiso
C6P C -0.164129 0.527991 -0.003301 0.0402 Uiso
N1P N -0.024829 0.592375 -0.096756 0.0402 Uiso
N2P N -0.215964 0.593721 -0.090258 0.0402 Uiso
H1P H 0.219721 0.496609 -0.038389 0.0402 Uiso
H2P H 0.193025 0.558375 -0.069793 0.0402 Uiso
H3P H -0.349027 0.562191 -0.051367 0.0402 Uiso
H4P H -0.276304 0.547121 -0.005557 0.0402 Uiso
C7C C 0.294436 0.098768 0.125 0.0402 Uiso
C10C C 0.283282 -0.013031 0.125 0.0402 Uiso
N3C N 0.222824 -0.062927 0.125 0.0402 Uiso
H5C H 0.410237 0.080840 0.125 0.0402 Uiso
H6C H 0.402424 0.003248 0.125 0.0402 Uiso
C7I C -0.044436 0.151232 0.125 0.0402 Uiso
C8A C 0.125 0.177464 0.125 0.0402 Uiso
C9A C 0.125 0.232193 0.125 0.0402 Uiso
C10I C -0.033282 0.263031 0.125 0.0402 Uiso
N3I N 0.027176 0.312927 0.125 0.0402 Uiso
H5I H -0.160237 0.169160 0.125 0.0402 Uiso
H6I H -0.152424 0.246752 0.125 0.0402 Uiso
C7A C 0.294436 0.151232 0.125 0.0402 Uiso
C10A C 0.283282 0.263031 0.125 0.0402 Uiso
N3A N 0.222824 0.312927 0.125 0.0402 Uiso
H5A H 0.410237 0.169160 0.125 0.0402 Uiso
H6A H 0.402424 0.246752 0.125 0.0402 Uiso
Fe1P Fe -0.375 0.625 -0.11996(44) 0.0149 Uiso
C1A C -0.619482 0.747986 0.022804 0.0402 Uiso
C2A C -0.783611 0.775977 0.026105 0.0402 Uiso
C3A C -0.818674 0.803074 0.053336 0.0402 Uiso
C4A C -0.683798 0.817254 0.073936 0.0402 Uiso
C5A C -0.993062 0.819432 0.063423 0.0402 Uiso
C6A C -0.914129 0.777991 0.003301 0.0402 Uiso
N1A N -0.774829 0.842375 0.096756 0.0402 Uiso
N2A N -0.965964 0.843721 0.090258 0.0402 Uiso
H1A H -0.530279 0.746609 0.038389 0.0402 Uiso
H2A H -0.556975 0.808375 0.069793 0.0402 Uiso
H3A H -1.099027 0.812191 0.051367 0.0402 Uiso
H4A H -1.026304 0.797121 0.005557 0.0402 Uiso
C1V C -0.880518 0.752014 -0.022804 0.0402 Uiso
C2V C -0.716389 0.724023 -0.026105 0.0402 Uiso
C3V C -0.681326 0.696926 -0.053336 0.0402 Uiso
C4V C -0.816202 0.682746 -0.073936 0.0402 Uiso
C5V C -0.506938 0.680568 -0.063423 0.0402 Uiso
C6V C -0.585871 0.722009 -0.003301 0.0402 Uiso
N1V N -0.725171 0.657625 -0.096756 0.0402 Uiso
N2V N -0.534036 0.656279 -0.090258 0.0402 Uiso
H1V H -0.969721 0.753391 -0.038389 0.0402 Uiso
H2V H -0.943025 0.691625 -0.069793 0.0402 Uiso
H3V H -0.400973 0.687809 -0.051367 0.0402 Uiso
H4V H -0.473696 0.702879 -0.005557 0.0402 Uiso
Fe1A Fe -1.125 0.875 0.11996(44) 0.0149 Uiso
Fe1A_2 Fe -0.125 -0.125 0.11996(44) 0.0149 Uiso
Fe1C Fe -0.125 0.375 0.13004(44) 0.0149 Uiso
Fe1CA Fe -0.875 0.625 -0.13004(44) 0.0149 Uiso
Fe1CA_2 Fe 0.125 0.625 -0.13004(44) 0.0149 Uiso
Fe1H Fe -0.625 0.875 0.13004(44) 0.0149 Uiso
Fe1H_2 Fe 0.375 -0.125 0.13004(44) 0.0149 Uiso
N1C N 0.225171 0.407625 0.153244 0.0402 Uiso
N1CA N -0.524829 0.657625 -0.153244 0.0402 Uiso
N1M N 0.524829 0.342375 0.153244 0.0402 Uiso
N1S N -0.225171 0.592375 -0.153244 0.0402 Uiso
N2F N 0.534036 0.343721 0.090258 0.0402 Uiso
N3EA N -0.527176 0.562927 -0.125 0.0402 Uiso
N3O N 0.527176 0.437073 0.125 0.0402 Uiso
N3Q N -0.222824 0.687073 -0.125 0.0402 Uiso
loop_
_geom_bond_atom_site_label_1
_geom_bond_atom_site_label_2
_geom_bond_site_symmetry_1
_geom_bond_site_symmetry_2
Fe1 N2 1_555 1_555
C1 C2 1_555 1_555
C2 C3 1_555 1_555
C3 C4 1_555 1_555
C4 N1 1_555 1_555
C5 C3 1_555 1_555
C6 C2 1_555 1_555
N1 N2 1_555 1_555
N2 C5 1_555 1_555
H1 C1 1_555 1_555
H2 C4 1_555 1_555
H3 C5 1_555 1_555
H4 C6 1_555 1_555
C7 C8 1_555 1_555
C8 C9 1_555 1_555
C9 C10 1_555 1_555
C10 N3 1_555 1_555
N3 N3C 1_555 1_555
H5 C7 1_555 1_555
H6 C10 1_555 1_555
C1P C6 1_555 1_555
C2P C1P 1_555 1_555
C3P C2P 1_555 1_555
C4P C3P 1_555 1_555
C5P C3P 1_555 1_555
C6P C1 1_555 1_555
N1P C4P 1_555 1_555
N2P C5P 1_555 1_555
H1P C1P 1_555 1_555
H2P C4P 1_555 1_555
H3P C5P 1_555 1_555
H4P C6P 1_555 1_555
C7C C8 1_555 1_555
C10C C9 1_555 1_555
N3C C10C 1_555 1_555
H5C C7C 1_555 1_555
H6C C10C 1_555 1_555
C7I C7 1_555 1_555
C8A C7I 1_555 1_555
C9A C8A 1_555 1_555
C10I C9A 1_555 1_555
N3I C10I 1_555 1_555
H5I C7I 1_555 1_555
H6I C10I 1_555 1_555
C7A C7C 1_555 1_555
C10A C9A 1_555 1_555
N3A Fe1 1_555 1_555
H5A C7A 1_555 1_555
H6A C10A 1_555 1_555
Fe1P N2P 1_555 1_555
C1A C2A 1_555 1_555
C2A C3A 1_555 1_555
C3A C4A 1_555 1_555
C4A N1A 1_555 1_555
C5A C3A 1_555 1_555
C6A C2A 1_555 1_555
N1A N2A 1_555 1_555
N2A C5A 1_555 1_555
H1A C1A 1_555 1_555
H2A C4A 1_555 1_555
H3A C5A 1_555 1_555
H4A C6A 1_555 1_555
C1V C6A 1_555 1_555
C2V C1V 1_555 1_555
C3V C2V 1_555 1_555
C4V C3V 1_555 1_555
C5V C3V 1_555 1_555
C6V C1A 1_555 1_555
N1V C4V 1_555 1_555
N2V Fe1P 1_555 1_555
H1V C1V 1_555 1_555
H2V C4V 1_555 1_555
H3V C5V 1_555 1_555
H4V C6V 1_555 1_555
Fe1A N2A 1_555 1_555
Fe1A_2 N3 1_555 1_555
Fe1C N1 1_555 1_555
Fe1CA N1V 1_555 1_555
Fe1CA_2 N1P 1_555 1_555
Fe1H N1A 1_555 1_555
Fe1H_2 N3C 1_555 1_555
N1C Fe1 1_555 1_555
N1CA Fe1P 1_555 1_555
N1M Fe1 1_555 1_555
N1S Fe1P 1_555 1_555
N2F Fe1 1_555 1_555
N3EA Fe1P 1_555 1_555
N3O Fe1 1_555 1_555
N3Q Fe1P 1_555 1_555
C2P C6P 1_555 1_555
N1P N2P 1_555 1_555
C8A C7A 1_555 1_555
N3I N3A 1_555 1_555
N3I Fe1C 1_555 1_555
C10A N3A 1_555 1_555
C2V C6V 1_555 1_555
C5V N2V 1_555 1_555
N1V N2V 1_555 1_555

#END
