
#######################################################################
#
#                 Cambridge Crystallographic Data Centre
#                                CCDC 
#
#######################################################################
#
# If this CIF has been generated from an entry in the Cambridge 
# Structural Database, then it will include bibliographic, chemical, 
# crystal, experimental, refinement or atomic coordinate data resulting 
# from the CCDC's data processing and validation procedures.
#
#######################################################################

data_FEJDEE
_chemical_formula_moiety         '(C8 H38 N4 O25 P8 Zn6)n'
_symmetry_cell_setting           triclinic
_symmetry_space_group_name_H-M   'P -1'
_symmetry_Int_Tables_number      2
_space_group_name_Hall           '-P 1'
loop_
_symmetry_equiv_pos_site_id
_symmetry_equiv_pos_as_xyz
1 x,y,z
2 -x,-y,-z
_cell_length_a                   7.7703(4)
_cell_length_b                   9.1499(4)
_cell_length_c                   14.4685(3)
_cell_angle_alpha                89.965(2)
_cell_angle_beta                 87.050(2)
_cell_angle_gamma                65.332(2)
_cell_volume                     933.313
loop_
_atom_site_label
_atom_site_type_symbol
_atom_site_fract_x
_atom_site_fract_y
_atom_site_fract_z
Zn1 Zn 0.21857(16) 0.96890(13) 0.11066(8)
Zn2 Zn 0.40719(17) 0.93917(13) 0.37925(8)
Zn3 Zn -0.29686(16) 1.30905(13) 0.23582(8)
P1 P 0.5230(4) 0.6787(3) 0.21007(18)
H1 H 0.698(16) 0.653(14) 0.212(8)
P2 P 0.1375(4) 1.2363(3) 0.27012(18)
H2 H 0.209(14) 1.354(11) 0.277(7)
P3 P 0.3221(4) 0.8904(3) 0.59355(18)
H3 H 0.153(19) 0.930(5) 0.6021(10)
P4 P 0.1993(4) 0.9999(3) -0.11099(17)
H4 H 0.297(11) 1.053(9) -0.163(5)
O1 O 0.4504(10) 0.7779(8) 0.1245(5)
O2 O 0.2280(10) 1.1465(8) 0.1796(5)
O3 O 0.2250(11) 1.0441(8) -0.0140(5)
O4 O -0.0006(9) 1.0801(8) -0.1415(5)
O5 O 0.4198(11) 0.7668(9) 0.2980(5)
O6 O 0.1914(10) 1.1333(9) 0.3549(5)
O7 O 0.3809(11) 0.8397(9) 0.4941(5)
O8 O 0.3566(10) 1.0360(8) 0.6230(5)
O9 O 0.4139(9) 0.7455(8) 0.6544(5)
O10 O -0.0739(10) 1.3299(9) 0.2691(5)
O11 O 0.5169(10) 0.5144(7) 0.2020(5)
O12 O 0.2825(10) 0.8177(8) -0.1267(4)
Zn1A Zn -0.21857(16) 1.03110(13) -0.11066(8)
Zn1_2 Zn -0.78143(16) 1.96890(13) 0.11066(8)
Zn2_2 Zn -0.59281(17) 1.93917(13) 0.37925(8)
Zn2A Zn 0.59281(17) 1.06083(13) 0.62075(8)
Zn2A_2 Zn -0.40719(17) 1.06083(13) -0.37925(8)
Zn3_2 Zn 0.70314(16) 0.30905(13) 0.23582(8)
Zn3A Zn 0.29686(16) 0.69095(13) 0.76418(8)
Zn3A_2 Zn 0.29686(16) 0.69095(13) -0.23582(8)
Zn3_3 Zn 0.70314(16) 1.30905(13) 0.23582(8)
P1_2 P -0.4770(4) 1.6787(3) 0.21007(18)
H1_2 H -0.302(16) 1.653(14) 0.212(8)
P2A P -0.1375(4) 0.7637(3) -0.27012(18)
H2A H -0.209(14) 0.646(11) -0.277(7)
P3A P 0.6779(4) 1.1096(3) 0.40645(18)
H3A H 0.847(19) 1.070(5) 0.3979(10)
P4A P -0.1993(4) 1.0001(3) 0.11099(17)
H4A H -0.297(11) 0.947(9) 0.163(5)
O1_2 O -0.5496(10) 1.7779(8) 0.1245(5)
O1A O -0.4504(10) 1.2221(8) -0.1245(5)
O2A O -0.2280(10) 0.8535(8) -0.1796(5)
O3A O -0.2250(11) 0.9559(8) 0.0140(5)
O4A O 0.0006(9) 0.9199(8) 0.1415(5)
O5_2 O -0.5802(11) 1.7668(9) 0.2980(5)
O6A O -0.1914(10) 0.8667(9) -0.3549(5)
O6_2 O -0.8086(10) 2.1333(9) 0.3549(5)
O7A O 0.6191(11) 1.1603(9) 0.5059(5)
O7_2 O -0.6191(11) 1.8397(9) 0.4941(5)
O8A O 0.6434(10) 0.9640(8) 0.3770(5)
O8A_2 O -0.3566(10) 1.9640(8) 0.3770(5)
O9A O 0.5861(9) 1.2545(8) 0.3456(5)
O9A_2 O -0.4139(9) 1.2545(8) 0.3456(5)
O9A_3 O 0.5861(9) 0.2545(8) 0.3456(5)
O10A O 0.0739(10) 0.6701(9) -0.2691(5)
O10_2 O 0.9261(10) 0.3299(9) 0.2691(5)
O11_2 O -0.4831(10) 1.5144(7) 0.2020(5)
O12A O -0.2825(10) 1.1823(8) 0.1267(4)
O12A_2 O 0.7175(10) 0.1823(8) 0.1267(4)
O13 O -0.0122(11) 0.7235(9) 0.2924(5)
N1 N 0.3533(12) 0.3269(10) 0.0505(6)
H5 H 0.4487 0.3105 0.0867
H6 H 0.3994 0.2911 -0.0067
H7 H 0.2866 0.2744 0.0725
C1 C 0.2276(17) 0.5033(14) 0.0489(9)
H11 H 0.1809 0.5432 0.1115
H12 H 0.3001 0.5605 0.0246
C2 C 0.0642(18) 0.5341(16) -0.0096(14)
H13 H -0.0090 0.6498 -0.0099
H14 H 0.1162 0.5011 -0.0724
N1A N -0.3533(12) 0.6731(10) -0.0505(6)
H5A H -0.4487 0.6895 -0.0867
H6A H -0.3994 0.7089 0.0067
H7A H -0.2866 0.7256 -0.0725
C1A C -0.2276(17) 0.4967(14) -0.0489(9)
H11A H -0.1809 0.4568 -0.1115
H12A H -0.3001 0.4395 -0.0246
C2A C -0.0642(18) 0.4659(16) 0.0096(14)
H13A H 0.0090 0.3502 0.0099
H14A H -0.1162 0.4989 0.0724
N2 N 0.2788(12) 0.5659(11) 0.4094(6)
H8 H 0.3400 0.6292 0.4050
H9 H 0.1826 0.6009 0.3722
H10 H 0.3581 0.4656 0.3928
C3 C 0.0953(14) 0.4678(13) 0.5203(7)
H15 H 0.1710 0.3616 0.4933
H16 H 0.0780 0.4552 0.5862
C4 C 0.2050(16) 0.5691(14) 0.5064(8)
H17 H 0.1233 0.6795 0.5248
H18 H 0.3107 0.5312 0.5464
N2A N -0.2788(12) 0.4341(11) 0.5906(6)
H8A H -0.3400 0.3708 0.5950
H9A H -0.1826 0.3991 0.6278
H10A H -0.3581 0.5344 0.6072
C3A C -0.0953(14) 0.5322(13) 0.4797(7)
H15A H -0.1710 0.6384 0.5067
H16A H -0.0780 0.5448 0.4138
C4A C -0.2050(16) 0.4309(14) 0.4936(8)
H17A H -0.1233 0.3205 0.4752
H18A H -0.3107 0.4688 0.4536
loop_
_geom_bond_atom_site_label_1
_geom_bond_atom_site_label_2
_geom_bond_site_symmetry_1
_geom_bond_site_symmetry_2
Zn1 O1 1_555 1_555
Zn2 O5 1_555 1_555
Zn3 O10 1_555 1_555
P1 H1 1_555 1_555
P2 H2 1_555 1_555
P3 H3 1_555 1_555
P4 H4 1_555 1_555
O1 P1 1_555 1_555
O2 Zn1 1_555 1_555
O3 Zn1 1_555 1_555
O4 P4 1_555 1_555
O5 P1 1_555 1_555
O6 Zn2 1_555 1_555
O7 Zn2 1_555 1_555
O8 P3 1_555 1_555
O9 P3 1_555 1_555
O10 P2 1_555 1_555
O11 P1 1_555 1_555
O12 P4 1_555 1_555
N1 H5 1_555 1_555
H6 N1 1_555 1_555
H7 N1 1_555 1_555
N2 H8 1_555 1_555
H9 N2 1_555 1_555
H10 N2 1_555 1_555
C1 N1 1_555 1_555
H11 C1 1_555 1_555
H12 C1 1_555 1_555
C2 C1 1_555 1_555
H13 C2 1_555 1_555
H14 C2 1_555 1_555
C3 H15 1_555 1_555
H16 C3 1_555 1_555
C4 N2 1_555 1_555
H17 C4 1_555 1_555
H18 C4 1_555 1_555
Zn1A O4 1_555 1_555
Zn1_2 O1_2 1_555 1_555
Zn2_2 O5_2 1_555 1_555
Zn2A O8 1_555 1_555
Zn2A_2 O6A 1_555 1_555
Zn3_2 O11 1_555 1_555
Zn3A O9 1_555 1_555
Zn3A_2 O12 1_555 1_555
Zn3_3 O9A 1_555 1_555
P1_2 H1_2 1_555 1_555
P2A H2A 1_555 1_555
P3A H3A 1_555 1_555
P4A H4A 1_555 1_555
O1_2 P1_2 1_555 1_555
O1A Zn1A 1_555 1_555
O2A Zn1A 1_555 1_555
O3A Zn1A 1_555 1_555
O4A Zn1 1_555 1_555
O5_2 P1_2 1_555 1_555
O6A P2A 1_555 1_555
O6_2 Zn2_2 1_555 1_555
O7A Zn2A 1_555 1_555
O7_2 Zn2_2 1_555 1_555
O8A Zn2 1_555 1_555
O8A_2 Zn2_2 1_555 1_555
O9A P3A 1_555 1_555
O9A_2 Zn3 1_555 1_555
O9A_3 Zn3_2 1_555 1_555
O10A Zn3A_2 1_555 1_555
O10_2 Zn3_2 1_555 1_555
O11_2 Zn3 1_555 1_555
O12A Zn3 1_555 1_555
O12A_2 Zn3_2 1_555 1_555
N1A H5A 1_555 1_555
H6A N1A 1_555 1_555
H7A N1A 1_555 1_555
N2A H8A 1_555 1_555
H9A N2A 1_555 1_555
H10A N2A 1_555 1_555
C1A N1A 1_555 1_555
H11A C1A 1_555 1_555
H12A C1A 1_555 1_555
C2A C2 1_555 1_555
H13A C2A 1_555 1_555
H14A C2A 1_555 1_555
C3A C3 1_555 1_555
H15A C3A 1_555 1_555
H16A C3A 1_555 1_555
C4A N2A 1_555 1_555
H17A C4A 1_555 1_555
H18A C4A 1_555 1_555
P2 O2 1_555 1_555
P2 O6 1_555 1_555
P3 O7 1_555 1_555
P4 O3 1_555 1_555
C3 C4 1_555 1_555
P1_2 O11_2 1_555 1_555
P2A O2A 1_555 1_555
P2A O10A 1_555 1_555
P3A O7A 1_555 1_555
P3A O8A 1_555 1_555
P4A O3A 1_555 1_555
P4A O4A 1_555 1_555
P4A O12A 1_555 1_555
C1A C2A 1_555 1_555
C3A C4A 1_555 1_555

#END
