
#######################################################################
#
#                 Cambridge Crystallographic Data Centre
#                                CCDC 
#
#######################################################################
#
# If this CIF has been generated from an entry in the Cambridge 
# Structural Database, then it will include bibliographic, chemical, 
# crystal, experimental, refinement or atomic coordinate data resulting 
# from the CCDC's data processing and validation procedures.
#
#######################################################################

data_FEJDII
_chemical_formula_moiety         '(C6 H14 N4 O12 P4 Zn3)n'
_symmetry_cell_setting           triclinic
_symmetry_space_group_name_H-M   'P -1'
_symmetry_Int_Tables_number      2
_space_group_name_Hall           '-P 1'
loop_
_symmetry_equiv_pos_site_id
_symmetry_equiv_pos_as_xyz
1 x,y,z
2 -x,-y,-z
_cell_length_a                   9.0238(4)
_cell_length_b                   9.0392(4)
_cell_length_c                   13.8071(6)
_cell_angle_alpha                95.965(2)
_cell_angle_beta                 96.049(2)
_cell_angle_gamma                110.228(2)
_cell_volume                     1038.92
loop_
_atom_site_label
_atom_site_type_symbol
_atom_site_fract_x
_atom_site_fract_y
_atom_site_fract_z
Zn1 Zn -0.02868(11) 1.13261(9) 0.89652(6)
Zn2 Zn 0.28221(11) 0.71760(9) 0.75007(6)
Zn3 Zn -0.13296(11) 1.02871(9) 0.60324(6)
P1 P 0.0563(3) 0.8178(2) 0.88412(13)
H1 H -0.058(12) 0.749(11) 0.800(7)
P2 P 0.1816(3) 0.9433(2) 0.61577(14)
H2 H 0.259(11) 1.057(11) 0.703(7)
P3 P 0.0548(3) 1.3662(2) 0.73236(14)
H3 H -0.044(11) 1.441(11) 0.756(7)
P4 P -0.3666(3) 0.9449(2) 0.76714(14)
H4 H -0.445(11) 1.045(11) 0.742(7)
O1 O 0.0940(8) 0.9948(6) 0.8920(5)
O2 O -0.0104(7) 0.7487(6) 0.9724(4)
O3 O 0.2034(8) 0.7782(7) 0.8668(4)
O4 O 0.2214(8) 0.7967(7) 0.6334(4)
O5 O 0.0040(7) 0.9047(6) 0.6075(4)
O6 O 0.2504(7) 1.0103(6) 0.5272(4)
O7 O -0.0300(9) 1.2540(6) 0.6402(4)
O8 O 0.2070(7) 1.4894(5) 0.7146(4)
O9 O 0.0900(8) 1.2855(7) 0.8181(4)
O10 O -0.2860(8) 0.9104(7) 0.6813(4)
O11 O -0.4897(7) 0.7913(7) 0.7850(4)
O12 O -0.2540(8) 1.0315(8) 0.8601(5)
Zn1A Zn 0.02868(11) 0.86739(9) 1.10348(6)
Zn2_2 Zn 0.28221(11) 1.71760(9) 0.75007(6)
Zn2_3 Zn -0.71779(11) 0.71760(9) 0.75007(6)
Zn3A Zn 0.13296(11) 0.97129(9) 0.39676(6)
O2A O 0.0104(7) 1.2513(6) 1.0276(4)
O6A O -0.2504(7) 0.9897(6) 0.4728(4)
O8_2 O 0.2070(7) 0.4894(5) 0.7146(4)
O11_2 O 0.5103(7) 0.7913(7) 0.7850(4)
N1 N 0.6124(14) 0.2954(11) 0.9806(6)
H5 H 0.6683 0.2616 1.0209
N2 N 0.4125(15) 0.3120(18) 0.8904(8)
H6 H 0.3162 0.2895 0.8621
C1 C 0.4547(18) 0.2253(14) 0.9482(11)
H7 H 0.3875 0.1304 0.9646
C2 C 0.535(2) 0.4403(19) 0.8796(8)
H8 H 0.5328 0.5188 0.8416
C3 C 0.6691(17) 0.4326(14) 0.9371(10)
H9 H 0.7738 0.5041 0.9447
N3 N -0.2967(12) -0.6149(10) 0.5187(6)
H10 H -0.2621 -0.6717 0.4798
N4 N -0.3086(16) -0.4108(10) 0.6083(6)
H11 H -0.2827 -0.3143 0.6368
C4 C -0.2284(14) -0.4562(13) 0.5489(9)
H12 H -0.1362 -0.3896 0.5291
C5 C -0.4334(11) -0.6689(12) 0.5623(6)
H13 H -0.5061 -0.7730 0.5547
C6 C -0.4398(11) -0.5340(12) 0.6207(6)
H14 H -0.5174 -0.5311 0.6594
loop_
_geom_bond_atom_site_label_1
_geom_bond_atom_site_label_2
_geom_bond_site_symmetry_1
_geom_bond_site_symmetry_2
Zn1 O1 1_555 1_555
Zn2 O3 1_555 1_555
Zn3 O5 1_555 1_555
P1 H1 1_555 1_555
P2 H2 1_555 1_555
P3 H3 1_555 1_555
P4 H4 1_555 1_555
O1 P1 1_555 1_555
O2 P1 1_555 1_555
O3 P1 1_555 1_555
O4 Zn2 1_555 1_555
O5 P2 1_555 1_555
O6 P2 1_555 1_555
O7 Zn3 1_555 1_555
O8 P3 1_555 1_555
O9 Zn1 1_555 1_555
O10 Zn3 1_555 1_555
O11 P4 1_555 1_555
O12 Zn1 1_555 1_555
N1 H5 1_555 1_555
N2 H6 1_555 1_555
C1 N1 1_555 1_555
H7 C1 1_555 1_555
C2 N2 1_555 1_555
H8 C2 1_555 1_555
C3 N1 1_555 1_555
H9 C3 1_555 1_555
N3 H10 1_555 1_555
N4 H11 1_555 1_555
C4 N3 1_555 1_555
H12 C4 1_555 1_555
C5 N3 1_555 1_555
H13 C5 1_555 1_555
C6 N4 1_555 1_555
H14 C6 1_555 1_555
Zn1A O2 1_555 1_555
Zn2_2 O8 1_555 1_555
Zn2_3 O11 1_555 1_555
Zn3A O6 1_555 1_555
O2A Zn1 1_555 1_555
O6A Zn3 1_555 1_555
O8_2 Zn2 1_555 1_555
O11_2 Zn2 1_555 1_555
P2 O4 1_555 1_555
P3 O7 1_555 1_555
P3 O9 1_555 1_555
P4 O10 1_555 1_555
P4 O12 1_555 1_555
N2 C1 1_555 1_555
C2 C3 1_555 1_555
N4 C4 1_555 1_555
C5 C6 1_555 1_555

#END
