
#######################################################################
#
#                 Cambridge Crystallographic Data Centre
#                                CCDC 
#
#######################################################################
#
# If this CIF has been generated from an entry in the Cambridge 
# Structural Database, then it will include bibliographic, chemical, 
# crystal, experimental, refinement or atomic coordinate data resulting 
# from the CCDC's data processing and validation procedures.
#
#######################################################################

data_NAWXER
_chemical_formula_moiety         '(C38 H30 N4 O10 Zn2)n'
_symmetry_cell_setting           orthorhombic
_symmetry_space_group_name_H-M   'I m m a'
_symmetry_Int_Tables_number      74
_space_group_name_Hall           '-I 2b 2'
loop_
_symmetry_equiv_pos_site_id
_symmetry_equiv_pos_as_xyz
1 x,y,z
2 -x,1/2-y,z
3 -x,1/2+y,-z
4 x,-y,-z
5 1/2+x,1/2+y,1/2+z
6 1/2-x,-y,1/2+z
7 1/2-x,y,1/2-z
8 1/2+x,1/2-y,1/2-z
9 -x,-y,-z
10 x,1/2+y,-z
11 x,1/2-y,z
12 -x,y,z
13 1/2-x,1/2-y,1/2-z
14 1/2+x,y,1/2-z
15 1/2+x,-y,1/2+z
16 1/2-x,1/2+y,1/2+z
_cell_length_a                   21.9828(8)
_cell_length_b                   29.9850(11)
_cell_length_c                   10.4146(4)
_cell_angle_alpha                90
_cell_angle_beta                 90
_cell_angle_gamma                90
_cell_volume                     6864.83
loop_
_atom_site_label
_atom_site_type_symbol
_atom_site_fract_x
_atom_site_fract_y
_atom_site_fract_z
Zn1 Zn 0.5000 0.484080(8) 0.13390(3)
C1 C 0.42087(8) 0.55930(6) 0.0603(2)
C2 C 0.38062(9) 0.59777(6) 0.0981(2)
C3 C 0.35845(10) 0.60086(6) 0.2222(2)
H1 H 0.3673 0.5785 0.2813
C4 C 0.32321(11) 0.63693(6) 0.2589(2)
H2 H 0.3080 0.6384 0.3421
C5 C 0.31044(9) 0.67079(6) 0.1731(2)
C6 C 0.36687(11) 0.63114(7) 0.0113(2)
H3 H 0.3806 0.6291 -0.0730
C7 C 0.33271(11) 0.66773(7) 0.0494(3)
H4 H 0.3247 0.6905 -0.0090
C8 C 0.27668(9) 0.71142(5) 0.2134(2)
C9 C 0.5000 0.4225(3) 0.3359(7)
C10 C 0.5000 0.4339(2) 0.5660(8)
C11 C 0.5000 0.3569(6) 0.5002(17)
N1 N 0.30193(11) 0.7500 0.1753(3)
N2 N 0.5000 0.4055(2) 0.4550(7)
O1 O 0.43605(8) 0.53263(5) 0.14636(16)
O2 O 0.43666(7) 0.55730(5) -0.05568(17)
O3 O 0.5000 0.46116(7) 0.3117(2)
C1F C 0.07913(8) 0.55930(6) 0.4397(2)
C2F C 0.11938(9) 0.59777(6) 0.4019(2)
C3F C 0.14155(10) 0.60086(6) 0.2778(2)
H1F H 0.1327 0.5785 0.2187
C4F C 0.17679(11) 0.63693(6) 0.2411(2)
H2F H 0.1920 0.6384 0.1579
C5F C 0.18956(9) 0.67079(6) 0.3269(2)
C6F C 0.13313(11) 0.63114(7) 0.4887(2)
H3F H 0.1194 0.6291 0.5730
C7F C 0.16729(11) 0.66773(7) 0.4506(3)
H4F H 0.1753 0.6905 0.5090
C8F C 0.22332(9) 0.71142(5) 0.2866(2)
N1F N 0.19807(11) 0.7500 0.3247(3)
O1F O 0.06395(8) 0.53263(5) 0.35364(16)
O2F O 0.06334(7) 0.55730(5) 0.55568(17)
C1J C 0.42087(8) 0.94070(6) 0.0603(2)
C2J C 0.38062(9) 0.90223(6) 0.0981(2)
C3J C 0.35845(10) 0.89914(6) 0.2222(2)
H1J H 0.3673 0.9215 0.2813
C4J C 0.32321(11) 0.86307(6) 0.2589(2)
H2J H 0.3080 0.8616 0.3421
C5J C 0.31044(9) 0.82921(6) 0.1731(2)
C6J C 0.36687(11) 0.86886(7) 0.0113(2)
H3J H 0.3806 0.8709 -0.0730
C7J C 0.33271(11) 0.83227(7) 0.0494(3)
H4J H 0.3247 0.8095 -0.0090
C8J C 0.27668(9) 0.78858(5) 0.2134(2)
O1J O 0.43605(8) 0.96737(5) 0.14636(16)
O2J O 0.43666(7) 0.94270(5) -0.05568(17)
C1L C 0.07913(8) 0.94070(6) 0.4397(2)
C2L C 0.11938(9) 0.90223(6) 0.4019(2)
C3L C 0.14155(10) 0.89914(6) 0.2778(2)
H1L H 0.1327 0.9215 0.2187
C4L C 0.17679(11) 0.86307(6) 0.2411(2)
H2L H 0.1920 0.8616 0.1579
C5L C 0.18956(9) 0.82921(6) 0.3269(2)
C6L C 0.13313(11) 0.86886(7) 0.4887(2)
H3L H 0.1194 0.8709 0.5730
C7L C 0.16729(11) 0.83227(7) 0.4506(3)
H4L H 0.1753 0.8095 0.5090
C8L C 0.22332(9) 0.78858(5) 0.2866(2)
O1L O 0.06395(8) 0.96737(5) 0.35364(16)
O2L O 0.06334(7) 0.94270(5) 0.55568(17)
Zn1A Zn 0.5000 1.015920(8) 0.13390(3)
C9A C 0.5000 1.0775(3) 0.3359(7)
C10A C 0.5000 1.0661(2) 0.5660(8)
C11A C 0.5000 1.1431(6) 0.5002(17)
N2A N 0.5000 1.0945(2) 0.4550(7)
O3A O 0.5000 1.03884(7) 0.3117(2)
Zn1B Zn 0.5000 0.984080(8) -0.13390(3)
Zn1C Zn 0.5000 0.515920(8) -0.13390(3)
Zn1D Zn -0.0000 0.984080(8) 0.63390(3)
Zn1E Zn -0.0000 0.515920(8) 0.63390(3)
Zn1F Zn -0.0000 0.484080(8) 0.36610(3)
Zn1G Zn -0.0000 1.015920(8) 0.36610(3)
O1A O 0.56395(8) 0.96737(5) 0.14636(16)
O1K O 0.56395(8) 0.53263(5) 0.14636(16)
O2B O 0.56334(7) 1.05730(5) 0.05568(17)
O2C O 0.43666(7) 0.44270(5) 0.05568(17)
O2H O 0.56334(7) 0.44270(5) 0.05568(17)
O2I O 0.43666(7) 1.05730(5) 0.05568(17)
loop_
_geom_bond_atom_site_label_1
_geom_bond_atom_site_label_2
_geom_bond_site_symmetry_1
_geom_bond_site_symmetry_2
Zn1 O1 1_555 1_555
C1 C2 1_555 1_555
C2 C3 1_555 1_555
C3 H1 1_555 1_555
C4 C3 1_555 1_555
H2 C4 1_555 1_555
C5 C4 1_555 1_555
C6 C2 1_555 1_555
H3 C6 1_555 1_555
C7 C5 1_555 1_555
H4 C7 1_555 1_555
C8 C5 1_555 1_555
C9 N2 1_555 1_555
C10 N2 1_555 1_555
C11 N2 1_555 1_555
N1 C8 1_555 1_555
O1 C1 1_555 1_555
O2 C1 1_555 1_555
O3 Zn1 1_555 1_555
C1F C2F 1_555 1_555
C2F C3F 1_555 1_555
C3F H1F 1_555 1_555
C4F C3F 1_555 1_555
H2F C4F 1_555 1_555
C5F C4F 1_555 1_555
C6F C2F 1_555 1_555
H3F C6F 1_555 1_555
C7F C5F 1_555 1_555
H4F C7F 1_555 1_555
C8F C8 1_555 1_555
N1F C8F 1_555 1_555
O1F C1F 1_555 1_555
O2F C1F 1_555 1_555
C1J C2J 1_555 1_555
C2J C3J 1_555 1_555
C3J H1J 1_555 1_555
C4J C3J 1_555 1_555
H2J C4J 1_555 1_555
C5J C4J 1_555 1_555
C6J C2J 1_555 1_555
H3J C6J 1_555 1_555
C7J C5J 1_555 1_555
H4J C7J 1_555 1_555
C8J N1 1_555 1_555
O1J C1J 1_555 1_555
O2J C1J 1_555 1_555
C1L C2L 1_555 1_555
C2L C3L 1_555 1_555
C3L H1L 1_555 1_555
C4L C3L 1_555 1_555
H2L C4L 1_555 1_555
C5L C4L 1_555 1_555
C6L C2L 1_555 1_555
H3L C6L 1_555 1_555
C7L C5L 1_555 1_555
H4L C7L 1_555 1_555
C8L N1F 1_555 1_555
O1L C1L 1_555 1_555
O2L C1L 1_555 1_555
Zn1A O1J 1_555 1_555
C9A N2A 1_555 1_555
C10A N2A 1_555 1_555
C11A N2A 1_555 1_555
O3A Zn1A 1_555 1_555
Zn1B O2J 1_555 1_555
Zn1C O2 1_555 1_555
Zn1D O2L 1_555 1_555
Zn1E O2F 1_555 1_555
Zn1F O1F 1_555 1_555
Zn1G O1L 1_555 1_555
O1A Zn1A 1_555 1_555
O1K Zn1 1_555 1_555
O2B Zn1A 1_555 1_555
O2C Zn1 1_555 1_555
O2H Zn1 1_555 1_555
O2I Zn1A 1_555 1_555
C6 C7 1_555 1_555
C9 O3 1_555 1_555
C5F C8F 1_555 1_555
C6F C7F 1_555 1_555
C5J C8J 1_555 1_555
C6J C7J 1_555 1_555
C8J C8L 1_555 1_555
C5L C8L 1_555 1_555
C6L C7L 1_555 1_555
C9A O3A 1_555 1_555

#END
