
#######################################################################
#
#                 Cambridge Crystallographic Data Centre
#                                CCDC 
#
#######################################################################
#
# If this CIF has been generated from an entry in the Cambridge 
# Structural Database, then it will include bibliographic, chemical, 
# crystal, experimental, refinement or atomic coordinate data resulting 
# from the CCDC's data processing and validation procedures.
#
#######################################################################

data_QARLUT
_chemical_formula_moiety         '(C64 H70 Br6 Fe1 N12 Zn3)n'
_symmetry_cell_setting           monoclinic
_symmetry_space_group_name_H-M   'C 2/c'
_symmetry_Int_Tables_number      15
_space_group_name_Hall           '-C 2yc'
loop_
_symmetry_equiv_pos_site_id
_symmetry_equiv_pos_as_xyz
1 x,y,z
2 -x,y,1/2-z
3 1/2+x,1/2+y,z
4 1/2-x,1/2+y,1/2-z
5 -x,-y,-z
6 x,-y,1/2+z
7 1/2-x,1/2-y,-z
8 1/2+x,1/2-y,1/2+z
_cell_length_a                   34.1904(4)
_cell_length_b                   14.67836(15)
_cell_length_c                   30.1683(4)
_cell_angle_alpha                90
_cell_angle_beta                 101.7441(13)
_cell_angle_gamma                90
_cell_volume                     14823.3
loop_
_atom_site_label
_atom_site_type_symbol
_atom_site_fract_x
_atom_site_fract_y
_atom_site_fract_z
_atom_site_U_iso_or_equiv
_atom_site_thermal_displace_type
Fe1 Fe 0.22037(3) 0.06884(10) 1.02332(4) 0.0942 Uani
C37 C 0.2065(3) 0.0809(8) 1.0854(3) 0.0979 Uani
H25 H 0.1830 0.1073 1.0921 0.1170 Uiso
C38 C 0.2414(3) 0.1255(10) 1.0839(3) 0.1310 Uani
H26 H 0.2461 0.1889 1.0888 0.1570 Uiso
C39 C 0.2686(3) 0.0627(16) 1.0741(4) 0.1747 Uani
H27 H 0.2952 0.0755 1.0712 0.2080 Uiso
C40 C 0.2512(5) -0.0181(13) 1.0693(4) 0.1749 Uani
H28 H 0.2637 -0.0729 1.0629 0.2080 Uiso
C41 C 0.2119(3) -0.0115(8) 1.0752(3) 0.1086 Uani
H29 H 0.1928 -0.0591 1.0729 0.1300 Uiso
C42 C 0.17461(19) 0.1203(6) 0.9761(3) 0.0853 Uani
H30 H 0.1504 0.1450 0.9819 0.1020 Uiso
C43 C 0.2103(2) 0.1717(8) 0.9760(3) 0.1095 Uani
H31 H 0.2143 0.2350 0.9816 0.1320 Uiso
C44 C 0.2378(3) 0.1093(13) 0.9660(4) 0.1433 Uani
H32 H 0.2644 0.1232 0.9636 0.1720 Uiso
C45 C 0.2206(3) 0.0243(11) 0.9600(3) 0.1274 Uani
H33 H 0.2333 -0.0295 0.9526 0.1530 Uiso
C46 C 0.1805(2) 0.0300(7) 0.9667(3) 0.0899 Uani
H34 H 0.1618 -0.0183 0.9650 0.1080 Uiso
C47 C 0.1241(6) 0.0742(12) 0.7958(7) 0.2663 Uani
H35 H 0.1473 0.0783 0.7809 0.3180 Uiso
H36 H 0.1205 0.1338 0.8097 0.3180 Uiso
C48 C 0.1308(6) -0.0005(16) 0.8317(8) 0.2756 Uani
H37 H 0.1311 -0.0611 0.8174 0.3330 Uiso
H38 H 0.1566 0.0087 0.8531 0.3330 Uiso
C49 C 0.0974(8) 0.0060(13) 0.8556(5) 0.4369 Uani
H39 H 0.0960 0.0681 0.8680 0.5250 Uiso
H40 H 0.1010 -0.0382 0.8809 0.5250 Uiso
C50 C 0.0587(6) -0.0155(17) 0.8207(8) 0.4826 Uani
H41 H 0.0615 -0.0728 0.8043 0.5790 Uiso
H42 H 0.0356 -0.0210 0.8356 0.5790 Uiso
C51 C 0.0541(5) 0.0643(17) 0.7894(10) 0.3487 Uani
H43 H 0.0598 0.1221 0.8064 0.4180 Uiso
H44 H 0.0268 0.0670 0.7706 0.4180 Uiso
C52 C 0.0850(7) 0.047(2) 0.7601(6) 0.5218 Uani
H45 H 0.0807 0.0863 0.7330 0.6250 Uiso
H46 H 0.0854 -0.0179 0.7509 0.6250 Uiso
C53 C 0.5050(11) 1.266(3) 0.8686(12) 0.4456 Uani
H47 H 0.5331 1.2782 0.8665 0.5370 Uiso
H48 H 0.5041 1.2574 0.9009 0.5370 Uiso
C54 C 0.4791(13) 1.348(2) 0.8498(15) 0.4523 Uani
H49 H 0.4552 1.3487 0.8636 0.5420 Uiso
H50 H 0.4943 1.4045 0.8590 0.5420 Uiso
C55 C 0.4657(13) 1.348(3) 0.7992(16) 0.4615 Uani
H51 H 0.4895 1.3493 0.7852 0.5560 Uiso
H52 H 0.4500 1.4036 0.7898 0.5560 Uiso
C56 C 0.4406(11) 1.266(3) 0.7813(11) 0.4508 Uani
H53 H 0.4120 1.2817 0.7767 0.5400 Uiso
H54 H 0.4463 1.2478 0.7516 0.5400 Uiso
C57 C 0.4492(12) 1.186(3) 0.8136(15) 0.4274 Uani
H55 H 0.4299 1.1873 0.8340 0.5140 Uiso
H56 H 0.4442 1.1286 0.7957 0.5140 Uiso
C58 C 0.4900(13) 1.181(2) 0.8418(14) 0.4368 Uani
H57 H 0.5087 1.1665 0.8218 0.5230 Uiso
H58 H 0.4909 1.1300 0.8634 0.5230 Uiso
C59 C 0.1554(5) 0.7342(15) 0.8815(7) 0.2030 Uani
H59 H 0.1834 0.7303 0.8776 0.2440 Uiso
H60 H 0.1420 0.7854 0.8630 0.2440 Uiso
C60 C 0.1533(7) 0.7456(15) 0.9321(8) 0.2294 Uani
H61 H 0.1800 0.7572 0.9512 0.2750 Uiso
H62 H 0.1349 0.7953 0.9364 0.2750 Uiso
C61 C 0.1375(5) 0.6546(14) 0.9416(6) 0.1865 Uani
H63 H 0.1419 0.6434 0.9746 0.2240 Uiso
H64 H 0.1505 0.6055 0.9274 0.2240 Uiso
C62 C 0.0915(5) 0.6593(16) 0.9202(5) 0.1991 Uani
H65 H 0.0783 0.5996 0.9217 0.2390 Uiso
H66 H 0.0778 0.7062 0.9351 0.2390 Uiso
C63 C 0.0925(2) 0.6849(5) 0.8725(2) 0.0533 Uani
H67 H 0.0935 0.7517 0.8685 0.0640 Uiso
H68 H 0.0695 0.6595 0.8507 0.0640 Uiso
C64 C 0.1320(5) 0.6392(13) 0.8679(6) 0.1768 Uani
H69 H 0.1324 0.6185 0.8368 0.2120 Uiso
H70 H 0.1404 0.5896 0.8900 0.2120 Uiso
Zn1 Zn 0.37464(2) -0.11103(4) 0.45025(2) 0.0369 Uani
Br1 Br 0.38822(19) -0.2472(5) 0.4154(3) 0.0576 Uani
Br2 Br 0.35804(2) -0.09827(5) 0.52070(2) 0.0631 Uani
Zn2 Zn 0.1811(3) 0.6464(6) 0.2770(4) 0.0487 Uani
Br3 Br 0.1397(4) 0.6681(5) 0.2057(4) 0.0820 Uani
Br4 Br 0.2390(3) 0.7317(4) 0.3027(5) 0.0856 Uani
Zn3 Zn 0.08078(2) -0.13589(3) 0.09426(2) 0.0337 Uani
Br5 Br 0.11503(2) -0.24482(3) 0.06083(2) 0.0522 Uani
Br6 Br 0.02886(2) -0.15721(4) 0.13308(2) 0.0547 Uani
N1 N 0.33129(11) -0.0438(3) 0.40435(13) 0.0360 Uani
C1 C 0.32794(14) 0.0464(3) 0.40596(16) 0.0387 Uani
H1 H 0.3458 0.0789 0.4288 0.0460 Uiso
C2 C 0.29979(14) 0.0946(3) 0.37607(16) 0.0387 Uani
H2 H 0.2987 0.1591 0.3779 0.0470 Uiso
C3 C 0.27315(13) 0.0480(3) 0.34337(15) 0.0296 Uani
C4 C 0.27618(16) -0.0463(3) 0.34215(18) 0.0458 Uani
H3 H 0.2581 -0.0806 0.3203 0.0550 Uiso
C5 C 0.30550(15) -0.0893(3) 0.37276(19) 0.0469 Uani
H4 H 0.3076 -0.1538 0.3715 0.0570 Uiso
C6 C 0.24264(13) 0.0959(3) 0.30907(15) 0.0293 Uani
N2 N 0.23750(11) 0.1851(2) 0.31414(12) 0.0316 Uani
C7 C 0.20921(14) 0.2223(3) 0.28236(15) 0.0325 Uani
N3 N 0.18594(11) 0.1765(2) 0.24860(13) 0.0323 Uani
C8 C 0.19457(13) 0.0888(3) 0.24632(15) 0.0299 Uani
N4 N 0.22329(11) 0.0446(2) 0.27532(12) 0.0305 Uani
C9 C 0.20267(14) 0.3224(3) 0.28238(16) 0.0341 Uani
C10 C 0.22504(15) 0.3795(3) 0.31366(17) 0.0385 Uani
H5 H 0.2451 0.3555 0.3373 0.0460 Uiso
C11 C 0.21813(16) 0.4720(3) 0.31050(18) 0.0421 Uani
H6 H 0.2336 0.5110 0.3324 0.0510 Uiso
N5 N 0.19033(13) 0.5088(3) 0.27750(15) 0.0415 Uani
C12 C 0.16909(19) 0.4535(4) 0.2477(2) 0.0591 Uani
H7 H 0.1492 0.4791 0.2244 0.0710 Uiso
C13 C 0.17413(18) 0.3612(3) 0.2484(2) 0.0588 Uani
H8 H 0.1582 0.3241 0.2259 0.0700 Uiso
C14 C 0.17113(13) 0.0362(3) 0.20758(15) 0.0308 Uani
C15 C 0.17546(14) -0.0571(3) 0.20376(16) 0.0360 Uani
H9 H 0.1950 -0.0893 0.2249 0.0430 Uiso
C16 C 0.15087(14) -0.1026(3) 0.16868(16) 0.0387 Uani
H10 H 0.1538 -0.1667 0.1663 0.0460 Uiso
N6 N 0.12335(12) -0.0603(2) 0.13822(13) 0.0350 Uani
C17 C 0.12036(17) 0.0300(3) 0.14088(19) 0.0523 Uani
H11 H 0.1014 0.0609 0.1185 0.0630 Uiso
C18 C 0.14385(17) 0.0801(3) 0.17508(19) 0.0528 Uani
H12 H 0.1411 0.1445 0.1760 0.0630 Uiso
N7 N 0.06164(11) -0.0365(2) 0.04546(12) 0.0311 Uani
C19 C 0.03554(13) 0.0280(3) 0.05211(16) 0.0339 Uani
H13 H 0.0211 0.0196 0.0756 0.0410 Uiso
C20 C 0.02898(12) 0.1057(3) 0.02611(15) 0.0323 Uani
H14 H 0.0105 0.1504 0.0318 0.0390 Uiso
C21 C 0.04975(12) 0.1179(3) -0.00869(14) 0.0292 Uani
C22 C 0.07509(14) 0.0486(3) -0.01694(16) 0.0352 Uani
H15 H 0.0886 0.0528 -0.0415 0.0430 Uiso
C23 C 0.08027(13) -0.0264(3) 0.01131(16) 0.0347 Uani
H16 H 0.0980 -0.0730 0.0060 0.0420 Uiso
C24 C 0.04571(12) 0.2021(3) -0.03594(15) 0.0293 Uani
N8 N 0.01838(10) 0.2628(2) -0.02929(12) 0.0295 Uani
C25 C 0.01457(12) 0.3346(3) -0.05689(15) 0.0294 Uani
N9 N 0.03636(11) 0.3507(3) -0.08793(13) 0.0328 Uani
C26 C 0.06448(12) 0.2886(3) -0.08979(16) 0.0309 Uani
N10 N 0.06982(10) 0.2115(2) -0.06502(13) 0.0310 Uani
C27 C -0.01738(13) 0.4015(3) -0.05371(16) 0.0313 Uani
C28 C -0.03424(14) 0.4059(3) -0.01652(16) 0.0358 Uani
H17 H -0.0257 0.3658 0.0083 0.0430 Uiso
C29 C -0.06378(13) 0.4687(3) -0.01530(16) 0.0342 Uani
H18 H -0.0749 0.4720 0.0111 0.0410 Uiso
N11 N -0.07748(11) 0.5252(3) -0.04928(14) 0.0359 Uani
C30 C -0.06087(19) 0.5204(4) -0.0857(2) 0.0612 Uani
H19 H -0.0702 0.5606 -0.1102 0.0730 Uiso
C31 C -0.03115(18) 0.4605(4) -0.0893(2) 0.0564 Uani
H20 H -0.0201 0.4593 -0.1157 0.0680 Uiso
C32 C 0.09166(13) 0.3047(3) -0.12129(16) 0.0341 Uani
C33 C 0.12721(16) 0.2590(4) -0.1168(2) 0.0475 Uani
H21 H 0.1347 0.2153 -0.0933 0.0570 Uiso
C34 C 0.15208(16) 0.2767(4) -0.1465(2) 0.0503 Uani
H22 H 0.1768 0.2452 -0.1427 0.0600 Uiso
N12 N 0.14266(13) 0.3364(3) -0.18029(16) 0.0462 Uani
C35 C 0.1086(2) 0.3808(4) -0.1841(2) 0.0661 Uani
H23 H 0.1017 0.4239 -0.2079 0.0790 Uiso
C36 C 0.08249(18) 0.3678(4) -0.1554(2) 0.0618 Uani
H24 H 0.0585 0.4021 -0.1592 0.0740 Uiso
Zn1G Zn -0.12536(2) 0.61103(4) -0.04975(2) 0.0369 Uani
Zn2E Zn 0.1811(3) 0.3536(6) -0.2230(4) 0.0487 Uani
N11G N 0.42252(11) -0.0252(3) 0.45072(14) 0.0359 Uani
N12E N 0.14266(13) 0.6636(3) 0.31971(16) 0.0462 Uani
loop_
_atom_site_aniso_label
_atom_site_aniso_U_11
_atom_site_aniso_U_22
_atom_site_aniso_U_33
_atom_site_aniso_U_23
_atom_site_aniso_U_13
_atom_site_aniso_U_12
Fe1 0.0396(5) 0.1615(12) 0.0842(8) 0.0670(8) 0.0188(5) 0.0352(6)
C37 0.073(5) 0.143(9) 0.084(6) 0.047(6) 0.031(4) 0.034(5)
C38 0.083(7) 0.196(12) 0.098(7) 0.071(8) -0.019(6) -0.034(8)
C39 0.045(5) 0.39(3) 0.088(7) 0.111(14) 0.011(5) 0.041(10)
C40 0.164(14) 0.28(2) 0.088(8) 0.093(12) 0.043(10) 0.167(14)
C41 0.113(7) 0.140(9) 0.077(6) 0.059(6) 0.029(5) 0.036(7)
C42 0.040(3) 0.105(6) 0.103(6) 0.057(5) -0.004(4) 0.008(4)
C43 0.054(4) 0.161(9) 0.100(6) 0.073(6) -0.016(4) -0.022(5)
C44 0.053(5) 0.291(19) 0.087(7) 0.105(10) 0.017(5) 0.031(8)
C45 0.100(8) 0.210(14) 0.077(6) 0.059(8) 0.029(6) 0.067(9)
C46 0.060(4) 0.118(7) 0.092(6) 0.043(5) 0.016(4) 0.018(4)
C47 0.45(4) 0.181(18) 0.24(2) -0.110(17) 0.24(3) -0.12(2)
C48 0.25(2) 0.30(3) 0.32(3) 0.05(3) 0.16(2) 0.02(2)
C49 0.56(6) 0.42(4) 0.42(4) -0.36(4) 0.31(4) -0.34(4)
C50 0.68(8) 0.34(4) 0.61(7) 0.11(4) 0.56(7) 0.03(5)
C51 0.24(2) 0.38(4) 0.48(5) 0.23(4) 0.20(3) 0.19(3)
C52 0.43(5) 0.93(11) 0.24(3) 0.29(5) 0.15(3) 0.40(6)
C53 0.45(2) 0.452(19) 0.44(2) -0.011(9) 0.103(9) 0.001(9)
C54 0.46(2) 0.449(19) 0.453(19) -0.003(9) 0.105(10) 0.003(9)
C55 0.46(2) 0.458(19) 0.464(19) 0.001(9) 0.088(10) -0.005(9)
C56 0.45(2) 0.451(19) 0.454(19) 0.005(8) 0.098(9) 0.002(9)
C57 0.431(19) 0.439(19) 0.42(2) -0.006(9) 0.105(9) 0.018(10)
C58 0.439(19) 0.436(18) 0.44(2) 0.006(9) 0.100(9) -0.014(10)
C59 0.178(9) 0.226(11) 0.229(10) 0.016(8) 0.098(9) -0.021(8)
C60 0.245(11) 0.217(11) 0.227(10) -0.007(8) 0.050(9) -0.020(8)
C61 0.205(10) 0.192(10) 0.159(9) 0.030(8) 0.029(7) 0.019(8)
C62 0.222(9) 0.240(12) 0.145(8) 0.065(8) 0.060(7) -0.012(8)
C63 0.094(5) 0.034(3) 0.040(4) 0.001(3) 0.033(3) -0.006(3)
C64 0.162(9) 0.188(10) 0.191(10) 0.012(8) 0.061(8) 0.039(7)
Zn1 0.0299(3) 0.0301(3) 0.0444(3) 0.0086(2) -0.0076(2) -0.0077(2)
Br1 0.0549(16) 0.0303(15) 0.0797(17) -0.0076(15) -0.005(2) -0.0003(9)
Br2 0.0434(3) 0.0899(5) 0.0535(3) 0.0236(3) 0.0041(3) -0.0074(3)
Zn2 0.058(3) 0.0208(9) 0.078(4) -0.003(2) 0.039(2) -0.0007(17)
Br3 0.13 0.0511 0.076 0.0257 0.047 0.028
Br4 0.075 0.0437 0.157 -0.042 0.068 -0.0283
Zn3 0.0374(3) 0.0237(3) 0.0339(3) 0.0019(2) -0.0069(2) -0.0050(2)
Br5 0.0631(3) 0.0301(3) 0.0577(3) -0.0025(2) -0.0008(3) 0.0083(2)
Br6 0.0537(3) 0.0655(4) 0.0426(3) 0.0022(3) 0.0042(2) -0.0209(3)
N1 0.036(2) 0.0278(19) 0.038(2) 0.0067(16) -0.0072(17) -0.0076(16)
C1 0.042(3) 0.028(2) 0.038(3) -0.0004(19) -0.011(2) -0.006(2)
C2 0.044(3) 0.026(2) 0.039(3) -0.0029(19) -0.008(2) -0.0027(19)
C3 0.031(2) 0.024(2) 0.032(2) 0.0036(17) 0.0020(18) -0.0037(17)
C4 0.050(3) 0.024(2) 0.051(3) 0.002(2) -0.019(2) -0.007(2)
C5 0.046(3) 0.023(2) 0.059(3) 0.004(2) -0.019(2) -0.004(2)
C6 0.031(2) 0.025(2) 0.029(2) 0.0016(17) -0.0004(18) -0.0032(17)
N2 0.037(2) 0.0237(18) 0.031(2) -0.0014(15) -0.0004(16) -0.0024(15)
C7 0.039(2) 0.026(2) 0.031(2) 0.0011(18) 0.0034(19) -0.0027(18)
N3 0.0348(19) 0.0207(17) 0.037(2) -0.0015(15) -0.0032(16) -0.0003(15)
C8 0.033(2) 0.023(2) 0.031(2) 0.0027(17) 0.0002(18) -0.0048(17)
N4 0.0335(19) 0.0246(18) 0.0293(19) -0.0007(15) -0.0035(15) -0.0014(15)
C9 0.038(2) 0.025(2) 0.038(3) -0.0029(19) 0.005(2) -0.0015(18)
C10 0.042(3) 0.031(2) 0.041(3) -0.007(2) 0.005(2) -0.003(2)
C11 0.049(3) 0.027(2) 0.052(3) -0.009(2) 0.014(2) -0.007(2)
N5 0.046(2) 0.0229(19) 0.058(3) -0.0045(18) 0.016(2) -0.0020(17)
C12 0.067(4) 0.029(3) 0.070(4) -0.001(3) -0.013(3) 0.008(3)
C13 0.066(4) 0.024(2) 0.070(4) -0.004(2) -0.025(3) 0.004(2)
C14 0.032(2) 0.022(2) 0.034(2) 0.0006(17) -0.0036(18) -0.0031(17)
C15 0.039(2) 0.026(2) 0.036(2) 0.0010(18) -0.009(2) 0.0056(19)
C16 0.045(3) 0.022(2) 0.041(3) -0.0016(19) -0.010(2) 0.0006(19)
N6 0.041(2) 0.0228(18) 0.035(2) 0.0024(15) -0.0070(17) -0.0036(16)
C17 0.064(3) 0.023(2) 0.052(3) 0.000(2) -0.030(3) -0.001(2)
C18 0.067(4) 0.021(2) 0.055(3) -0.001(2) -0.024(3) 0.000(2)
N7 0.0299(18) 0.0268(18) 0.032(2) 0.0014(15) -0.0043(15) -0.0028(15)
C19 0.030(2) 0.036(2) 0.034(2) 0.0041(19) 0.0025(18) -0.0022(19)
C20 0.023(2) 0.036(2) 0.035(2) -0.0003(19) -0.0008(18) 0.0035(17)
C21 0.024(2) 0.031(2) 0.029(2) -0.0024(18) -0.0033(17) -0.0002(17)
C22 0.035(2) 0.032(2) 0.038(3) 0.0027(19) 0.006(2) 0.0039(19)
C23 0.029(2) 0.031(2) 0.041(3) 0.0052(19) 0.000(2) 0.0055(18)
C24 0.024(2) 0.030(2) 0.031(2) -0.0012(18) -0.0011(17) 0.0006(17)
N8 0.0260(17) 0.0297(19) 0.0310(19) 0.0028(15) 0.0015(15) 0.0036(14)
C25 0.0220(19) 0.030(2) 0.034(2) -0.0022(18) 0.0007(17) 0.0009(17)
N9 0.0289(18) 0.031(2) 0.037(2) 0.0022(16) 0.0034(16) 0.0028(15)
C26 0.024(2) 0.028(2) 0.039(2) 0.0000(18) 0.0024(18) 0.0013(17)
N10 0.0257(17) 0.0302(19) 0.036(2) 0.0039(16) 0.0035(15) 0.0020(15)
C27 0.028(2) 0.026(2) 0.038(2) 0.0003(18) 0.0019(18) 0.0017(17)
C28 0.036(2) 0.033(2) 0.036(3) 0.0023(19) 0.002(2) 0.0034(19)
C29 0.033(2) 0.034(2) 0.034(2) -0.0010(19) 0.0029(19) 0.0055(19)
N11 0.0308(19) 0.032(2) 0.042(2) 0.0006(17) 0.0004(17) 0.0072(16)
C30 0.067(4) 0.066(4) 0.053(3) 0.023(3) 0.018(3) 0.039(3)
C31 0.066(4) 0.061(4) 0.048(3) 0.022(3) 0.025(3) 0.032(3)
C32 0.030(2) 0.030(2) 0.043(3) 0.0043(19) 0.009(2) 0.0011(18)
C33 0.042(3) 0.044(3) 0.058(3) 0.015(2) 0.014(2) 0.010(2)
C34 0.042(3) 0.046(3) 0.067(4) 0.010(3) 0.021(3) 0.009(2)
N12 0.052(3) 0.030(2) 0.065(3) 0.008(2) 0.032(2) 0.0045(18)
C35 0.069(4) 0.056(4) 0.085(5) 0.036(3) 0.043(4) 0.024(3)
C36 0.056(3) 0.059(4) 0.079(4) 0.032(3) 0.034(3) 0.027(3)
Zn1G 0.0299 0.0301 0.0444 -0.0086 -0.0076 0.0077
Zn2E 0.058 0.0208 0.078 0.003 0.039 0.0007
N11G 0.0308 0.032 0.042 -0.0006 0.0004 -0.0072
N12E 0.052 0.03 0.065 -0.008 0.032 -0.0045
loop_
_geom_bond_atom_site_label_1
_geom_bond_atom_site_label_2
_geom_bond_site_symmetry_1
_geom_bond_site_symmetry_2
Zn1 Br1 1_555 1_555
Br2 Zn1 1_555 1_555
Zn2 Br3 1_555 1_555
Br4 Zn2 1_555 1_555
Zn3 Br5 1_555 1_555
Br6 Zn3 1_555 1_555
N1 Zn1 1_555 1_555
C1 N1 1_555 1_555
H1 C1 1_555 1_555
C2 C1 1_555 1_555
H2 C2 1_555 1_555
C3 C2 1_555 1_555
C4 C3 1_555 1_555
H3 C4 1_555 1_555
C5 N1 1_555 1_555
H4 C5 1_555 1_555
C6 C3 1_555 1_555
N2 C6 1_555 1_555
C7 N2 1_555 1_555
N3 C7 1_555 1_555
C8 N3 1_555 1_555
N4 C6 1_555 1_555
C9 C7 1_555 1_555
C10 C9 1_555 1_555
H5 C10 1_555 1_555
C11 C10 1_555 1_555
H6 C11 1_555 1_555
N5 Zn2 1_555 1_555
C12 N5 1_555 1_555
H7 C12 1_555 1_555
C13 C9 1_555 1_555
H8 C13 1_555 1_555
C14 C8 1_555 1_555
C15 C14 1_555 1_555
H9 C15 1_555 1_555
C16 C15 1_555 1_555
H10 C16 1_555 1_555
N6 Zn3 1_555 1_555
C17 N6 1_555 1_555
H11 C17 1_555 1_555
C18 C14 1_555 1_555
H12 C18 1_555 1_555
N7 Zn3 1_555 1_555
C19 N7 1_555 1_555
H13 C19 1_555 1_555
C20 C19 1_555 1_555
H14 C20 1_555 1_555
C21 C20 1_555 1_555
C22 C21 1_555 1_555
H15 C22 1_555 1_555
C23 N7 1_555 1_555
H16 C23 1_555 1_555
C24 C21 1_555 1_555
N8 C24 1_555 1_555
C25 N8 1_555 1_555
N9 C25 1_555 1_555
C26 N9 1_555 1_555
N10 C24 1_555 1_555
C27 C25 1_555 1_555
C28 C27 1_555 1_555
H17 C28 1_555 1_555
C29 C28 1_555 1_555
H18 C29 1_555 1_555
N11 C29 1_555 1_555
C30 N11 1_555 1_555
H19 C30 1_555 1_555
C31 C27 1_555 1_555
H20 C31 1_555 1_555
C32 C26 1_555 1_555
C33 C32 1_555 1_555
H21 C33 1_555 1_555
C34 C33 1_555 1_555
H22 C34 1_555 1_555
N12 C34 1_555 1_555
C35 N12 1_555 1_555
H23 C35 1_555 1_555
C36 C32 1_555 1_555
H24 C36 1_555 1_555
Fe1 C37 1_555 1_555
C37 H25 1_555 1_555
C38 Fe1 1_555 1_555
H26 C38 1_555 1_555
C39 Fe1 1_555 1_555
H27 C39 1_555 1_555
C40 Fe1 1_555 1_555
H28 C40 1_555 1_555
C41 Fe1 1_555 1_555
H29 C41 1_555 1_555
C42 Fe1 1_555 1_555
H30 C42 1_555 1_555
C43 Fe1 1_555 1_555
H31 C43 1_555 1_555
C44 Fe1 1_555 1_555
H32 C44 1_555 1_555
C45 Fe1 1_555 1_555
H33 C45 1_555 1_555
C46 Fe1 1_555 1_555
H34 C46 1_555 1_555
C47 H35 1_555 1_555
H36 C47 1_555 1_555
C48 C47 1_555 1_555
H37 C48 1_555 1_555
H38 C48 1_555 1_555
C49 C48 1_555 1_555
H39 C49 1_555 1_555
H40 C49 1_555 1_555
C50 C49 1_555 1_555
H41 C50 1_555 1_555
H42 C50 1_555 1_555
C51 C50 1_555 1_555
H43 C51 1_555 1_555
H44 C51 1_555 1_555
C52 C47 1_555 1_555
H45 C52 1_555 1_555
H46 C52 1_555 1_555
C53 H47 1_555 1_555
H48 C53 1_555 1_555
C54 C53 1_555 1_555
H49 C54 1_555 1_555
H50 C54 1_555 1_555
C55 C54 1_555 1_555
H51 C55 1_555 1_555
H52 C55 1_555 1_555
C56 C55 1_555 1_555
H53 C56 1_555 1_555
H54 C56 1_555 1_555
C57 C56 1_555 1_555
H55 C57 1_555 1_555
H56 C57 1_555 1_555
C58 C53 1_555 1_555
H57 C58 1_555 1_555
H58 C58 1_555 1_555
C59 H59 1_555 1_555
H60 C59 1_555 1_555
C60 C59 1_555 1_555
H61 C60 1_555 1_555
H62 C60 1_555 1_555
C61 C60 1_555 1_555
H63 C61 1_555 1_555
H64 C61 1_555 1_555
C62 C61 1_555 1_555
H65 C62 1_555 1_555
H66 C62 1_555 1_555
C63 C62 1_555 1_555
H67 C63 1_555 1_555
H68 C63 1_555 1_555
C64 C59 1_555 1_555
H69 C64 1_555 1_555
H70 C64 1_555 1_555
Zn1G N11 1_555 1_555
Zn2E N12 1_555 1_555
N11G Zn1 1_555 1_555
N12E Zn2 1_555 1_555
C4 C5 1_555 1_555
C8 N4 1_555 1_555
C11 N5 1_555 1_555
C12 C13 1_555 1_555
C16 N6 1_555 1_555
C17 C18 1_555 1_555
C22 C23 1_555 1_555
C26 N10 1_555 1_555
C30 C31 1_555 1_555
C35 C36 1_555 1_555
C37 C38 1_555 1_555
C37 C41 1_555 1_555
C38 C39 1_555 1_555
C39 C40 1_555 1_555
C40 C41 1_555 1_555
C42 C43 1_555 1_555
C42 C46 1_555 1_555
C43 C44 1_555 1_555
C44 C45 1_555 1_555
C45 C46 1_555 1_555
C51 C52 1_555 1_555
C57 C58 1_555 1_555
C63 C64 1_555 1_555

#END
