
#######################################################################
#
#                 Cambridge Crystallographic Data Centre
#                                CCDC 
#
#######################################################################
#
# If this CIF has been generated from an entry in the Cambridge 
# Structural Database, then it will include bibliographic, chemical, 
# crystal, experimental, refinement or atomic coordinate data resulting 
# from the CCDC's data processing and validation procedures.
#
#######################################################################

data_QARLON
_chemical_formula_moiety         '(C59 H52 Fe1 I6 N12 O1 Zn3)n'
_symmetry_cell_setting           monoclinic
_symmetry_space_group_name_H-M   'C 2/c'
_symmetry_Int_Tables_number      15
_space_group_name_Hall           '-C 2yc'
loop_
_symmetry_equiv_pos_site_id
_symmetry_equiv_pos_as_xyz
1 x,y,z
2 -x,y,1/2-z
3 1/2+x,1/2+y,z
4 1/2-x,1/2+y,1/2-z
5 -x,-y,-z
6 x,-y,1/2+z
7 1/2-x,1/2-y,-z
8 1/2+x,1/2-y,1/2+z
_cell_length_a                   38.059(5)
_cell_length_b                   14.2182(11)
_cell_length_c                   34.848(6)
_cell_angle_alpha                90
_cell_angle_beta                 110.753(16)
_cell_angle_gamma                90
_cell_volume                     17633.8
loop_
_atom_site_label
_atom_site_type_symbol
_atom_site_fract_x
_atom_site_fract_y
_atom_site_fract_z
Zn1 Zn 0.12834(2) 0.37680(5) 0.07065(2)
Zn2 Zn -0.10064(2) 1.08698(6) -0.07785(3)
Zn3 Zn 0.16638(2) 1.15363(5) 0.27101(2)
I1 I 0.18748(15) 0.3074(5) 0.0608(2)
I2 I 0.07794(13) 0.2818(3) 0.07721(13)
I3 I 0.22507(2) 1.25642(3) 0.29606(2)
I4 I 0.12154(2) 1.17351(3) 0.19813(2)
I5 I -0.10518(9) 1.0662(3) -0.00578(13)
I6 I -0.09171(9) 1.24446(18) -0.10872(10)
N1 N 0.10768(14) 0.4835(4) 0.02820(15)
C1 C 0.08044(19) 0.5407(5) 0.0286(2)
H1 H 0.0695 0.5308 0.0489
C2 C 0.06713(19) 0.6128(5) 0.0017(2)
H2 H 0.0475 0.6520 0.0034
C3 C 0.08248(16) 0.6282(4) -0.02827(17)
C4 C 0.10972(19) 0.5668(5) -0.0297(2)
H3 H 0.1200 0.5728 -0.0508
C5 C 0.12225(19) 0.4962(5) -0.0008(2)
H4 H 0.1418 0.4556 -0.0018
C6 C 0.07056(16) 0.7068(4) -0.05745(18)
N2 N 0.04147(13) 0.7589(3) -0.05728(15)
C7 C 0.03155(15) 0.8276(4) -0.08498(18)
N3 N 0.04753(13) 0.8446(3) -0.11263(15)
C8 C 0.07686(16) 0.7898(4) -0.10896(18)
N4 N 0.08980(13) 0.7207(3) -0.08202(15)
C9 C 0.00070(16) 0.8900(4) -0.08405(19)
C10 C -0.00715(16) 0.8978(4) -0.04851(19)
H5 H 0.0073 0.8641 -0.0246
C11 C -0.03604(15) 0.9547(4) -0.0479(2)
H6 H -0.0408 0.9606 -0.0230
N5 N -0.05774(13) 1.0025(4) -0.08098(17)
C12 C -0.05063(18) 0.9942(5) -0.1152(2)
H7 H -0.0661 1.0272 -0.1389
C13 C -0.02173(17) 0.9400(5) -0.1182(2)
H8 H -0.0172 0.9368 -0.1432
C14 C 0.09757(16) 0.8059(4) -0.13721(19)
C15 C 0.13482(18) 0.7798(5) -0.1255(2)
H9 H 0.1474 0.7530 -0.0992
C16 C 0.15364(18) 0.7933(5) -0.1524(2)
H10 H 0.1793 0.7752 -0.1442
N6 N 0.13704(14) 0.8307(4) -0.18958(16)
C17 C 0.10105(17) 0.8556(5) -0.2007(2)
H11 H 0.0890 0.8814 -0.2274
C18 C 0.08086(18) 0.8459(5) -0.1757(2)
H12 H 0.0555 0.8664 -0.1844
N7 N 0.15196(13) 0.4507(4) 0.12490(15)
C19 C 0.16593(17) 0.4020(4) 0.15998(19)
H13 H 0.1633 0.3355 0.1593
C20 C 0.18393(15) 0.4455(4) 0.19673(19)
H14 H 0.1942 0.4095 0.2211
C21 C 0.18697(15) 0.5429(4) 0.19793(18)
C22 C 0.1711(2) 0.5923(5) 0.1618(2)
H15 H 0.1716 0.6591 0.1616
C23 C 0.1549(2) 0.5433(4) 0.1268(2)
H16 H 0.1450 0.5776 0.1019
C24 C 0.20742(16) 0.5951(4) 0.23631(18)
N8 N 0.23667(12) 0.5530(3) 0.26336(14)
C25 C 0.25593(15) 0.6076(4) 0.29552(18)
N9 N 0.24774(13) 0.6963(3) 0.30131(15)
C26 C 0.21657(15) 0.7290(4) 0.27259(18)
N10 N 0.19519(13) 0.6818(3) 0.23952(15)
C27 C 0.20426(15) 0.8263(4) 0.27676(18)
C28 C 0.22658(15) 0.8904(4) 0.30459(18)
H17 H 0.2500 0.8709 0.3241
C29 C 0.21516(16) 0.9820(4) 0.30428(19)
H18 H 0.2313 1.0253 0.3232
N11 N 0.18192(13) 1.0125(3) 0.27813(15)
C30 C 0.15903(17) 0.9492(4) 0.2529(2)
H19 H 0.1348 0.9689 0.2355
C31 C 0.16916(18) 0.8572(4) 0.2514(2)
H20 H 0.1522 0.8146 0.2329
C32 C 0.28899(15) 0.5628(4) 0.32582(18)
C33 C 0.31215(16) 0.6106(4) 0.36060(18)
H21 H 0.3066 0.6734 0.3658
C34 C 0.34303(16) 0.5649(4) 0.3872(2)
H22 H 0.3585 0.5974 0.4110
N12 N 0.35237(13) 0.4767(4) 0.38099(16)
C35 C 0.32975(17) 0.4316(4) 0.3483(2)
H23 H 0.3356 0.3684 0.3441
C36 C 0.29864(16) 0.4710(4) 0.3204(2)
H24 H 0.2836 0.4359 0.2972
Zn2G Zn 0.39936(2) 0.41302(6) 0.42215(3)
Zn3E Zn 0.16638(2) 0.84637(5) -0.22899(2)
N6E N 0.13704(14) 1.1693(4) 0.31042(16)
N12G N -0.14763(13) 1.0233(4) -0.11901(16)
Fe1 Fe 0.17570(4) 0.56832(9) 0.37811(4)
C37 C 0.1827(3) 0.5435(7) 0.3243(3)
H25 H 0.1699 0.4972 0.3047
C38 C 0.2169(3) 0.5311(7) 0.3563(4)
H26 H 0.2314 0.4750 0.3620
C39 C 0.2265(3) 0.6154(9) 0.3790(3)
H27 H 0.2482 0.6261 0.4026
C40 C 0.1976(3) 0.6806(7) 0.3599(3)
H28 H 0.1966 0.7438 0.3684
C41 C 0.1703(2) 0.6359(8) 0.3260(3)
C42 C 0.1382(3) 0.6741(11) 0.3013(4)
H29 H 0.1226 0.6325 0.2810
O1 O 0.1261(4) 0.7497(11) 0.3003(6)
C43 C 0.1372(2) 0.4732(6) 0.3819(2)
H30 H 0.1247 0.4274 0.3619
C44 C 0.1714(2) 0.4597(7) 0.4144(3)
H31 H 0.1859 0.4036 0.4201
C45 C 0.1804(3) 0.5440(8) 0.4370(3)
H32 H 0.2021 0.5554 0.4606
C46 C 0.1513(3) 0.6086(7) 0.4181(3)
H33 H 0.1500 0.6712 0.4270
C47 C 0.1243(2) 0.5654(7) 0.3836(3)
C48 C 0.4742(4) 0.3330(8) 0.0596(5)
H34 H 0.4817 0.3926 0.0529
C49 C 0.4825(3) 0.2518(12) 0.0423(3)
H35 H 0.4957 0.2560 0.0237
C50 C 0.4715(4) 0.1645(8) 0.0520(4)
H36 H 0.4772 0.1091 0.0402
C51 C 0.4522(4) 0.1584(8) 0.0791(5)
H37 H 0.4447 0.0987 0.0858
C52 C 0.4439(4) 0.2395(12) 0.0964(4)
H38 H 0.4307 0.2353 0.1149
C53 C 0.4549(5) 0.3268(9) 0.0867(5)
H39 H 0.4492 0.3823 0.0985
C54 C 0.1938(7) 0.6498(17) 0.0514(5)
H40 H 0.2006 0.5827 0.0568
H41 H 0.1666 0.6563 0.0467
C55 C 0.2009(6) 0.6799(15) 0.0152(6)
H42 H 0.1829 0.6478 -0.0091
H43 H 0.2265 0.6601 0.0177
C56 C 0.1973(5) 0.7848(15) 0.0084(4)
H44 H 0.2045 0.8017 -0.0154
H45 H 0.1709 0.8041 0.0022
C57 C 0.2224(5) 0.8359(11) 0.0460(4)
H46 H 0.2489 0.8181 0.0520
H47 H 0.2200 0.9047 0.0415
C58 C 0.2108(6) 0.8098(14) 0.0803(5)
H48 H 0.1842 0.8271 0.0741
H49 H 0.2263 0.8440 0.1054
C59 C 0.2158(6) 0.7069(13) 0.0871(4)
H50 H 0.2427 0.6914 0.0944
H51 H 0.2084 0.6895 0.1107
loop_
_geom_bond_atom_site_label_1
_geom_bond_atom_site_label_2
_geom_bond_site_symmetry_1
_geom_bond_site_symmetry_2
Zn1 I1 1_555 1_555
Zn2 I5 1_555 1_555
Zn3 I3 1_555 1_555
I2 Zn1 1_555 1_555
I4 Zn3 1_555 1_555
I6 Zn2 1_555 1_555
N1 Zn1 1_555 1_555
C1 N1 1_555 1_555
H1 C1 1_555 1_555
C2 C1 1_555 1_555
H2 C2 1_555 1_555
C3 C2 1_555 1_555
C4 C3 1_555 1_555
H3 C4 1_555 1_555
C5 N1 1_555 1_555
H4 C5 1_555 1_555
C6 C3 1_555 1_555
N2 C6 1_555 1_555
C7 N2 1_555 1_555
N3 C7 1_555 1_555
C8 N3 1_555 1_555
N4 C6 1_555 1_555
C9 C7 1_555 1_555
C10 C9 1_555 1_555
H5 C10 1_555 1_555
C11 C10 1_555 1_555
H6 C11 1_555 1_555
N5 Zn2 1_555 1_555
C12 N5 1_555 1_555
H7 C12 1_555 1_555
C13 C9 1_555 1_555
H8 C13 1_555 1_555
C14 C8 1_555 1_555
C15 C14 1_555 1_555
H9 C15 1_555 1_555
C16 C15 1_555 1_555
H10 C16 1_555 1_555
N6 C16 1_555 1_555
C17 N6 1_555 1_555
H11 C17 1_555 1_555
C18 C14 1_555 1_555
H12 C18 1_555 1_555
N7 Zn1 1_555 1_555
C19 N7 1_555 1_555
H13 C19 1_555 1_555
C20 C19 1_555 1_555
H14 C20 1_555 1_555
C21 C20 1_555 1_555
C22 C21 1_555 1_555
H15 C22 1_555 1_555
C23 N7 1_555 1_555
H16 C23 1_555 1_555
C24 C21 1_555 1_555
N8 C24 1_555 1_555
C25 N8 1_555 1_555
N9 C25 1_555 1_555
C26 N9 1_555 1_555
N10 C24 1_555 1_555
C27 C26 1_555 1_555
C28 C27 1_555 1_555
H17 C28 1_555 1_555
C29 C28 1_555 1_555
H18 C29 1_555 1_555
N11 Zn3 1_555 1_555
C30 N11 1_555 1_555
H19 C30 1_555 1_555
C31 C27 1_555 1_555
H20 C31 1_555 1_555
C32 C25 1_555 1_555
C33 C32 1_555 1_555
H21 C33 1_555 1_555
C34 C33 1_555 1_555
H22 C34 1_555 1_555
N12 C34 1_555 1_555
C35 N12 1_555 1_555
H23 C35 1_555 1_555
C36 C32 1_555 1_555
H24 C36 1_555 1_555
Fe1 C37 1_555 1_555
C37 H25 1_555 1_555
C38 Fe1 1_555 1_555
H26 C38 1_555 1_555
C39 Fe1 1_555 1_555
H27 C39 1_555 1_555
C40 Fe1 1_555 1_555
H28 C40 1_555 1_555
C41 Fe1 1_555 1_555
C42 C41 1_555 1_555
H29 C42 1_555 1_555
O1 C42 1_555 1_555
C43 Fe1 1_555 1_555
H30 C43 1_555 1_555
C44 Fe1 1_555 1_555
H31 C44 1_555 1_555
C45 Fe1 1_555 1_555
H32 C45 1_555 1_555
C46 Fe1 1_555 1_555
H33 C46 1_555 1_555
C47 Fe1 1_555 1_555
C48 H34 1_555 1_555
C49 C48 1_555 1_555
H35 C49 1_555 1_555
C50 C49 1_555 1_555
H36 C50 1_555 1_555
C51 C50 1_555 1_555
H37 C51 1_555 1_555
C52 C51 1_555 1_555
H38 C52 1_555 1_555
C53 C48 1_555 1_555
H39 C53 1_555 1_555
C54 H40 1_555 1_555
H41 C54 1_555 1_555
C55 C54 1_555 1_555
H42 C55 1_555 1_555
H43 C55 1_555 1_555
C56 C55 1_555 1_555
H44 C56 1_555 1_555
H45 C56 1_555 1_555
C57 C56 1_555 1_555
H46 C57 1_555 1_555
H47 C57 1_555 1_555
C58 C57 1_555 1_555
H48 C58 1_555 1_555
H49 C58 1_555 1_555
C59 C54 1_555 1_555
H50 C59 1_555 1_555
H51 C59 1_555 1_555
Zn2G N12 1_555 1_555
Zn3E N6 1_555 1_555
N6E Zn3 1_555 1_555
N12G Zn2 1_555 1_555
C4 C5 1_555 1_555
C8 N4 1_555 1_555
C11 N5 1_555 1_555
C12 C13 1_555 1_555
C17 C18 1_555 1_555
C22 C23 1_555 1_555
C26 N10 1_555 1_555
C29 N11 1_555 1_555
C30 C31 1_555 1_555
C35 C36 1_555 1_555
C37 C38 1_555 1_555
C37 C41 1_555 1_555
C38 C39 1_555 1_555
C39 C40 1_555 1_555
C40 C41 1_555 1_555
C43 C44 1_555 1_555
C43 C47 1_555 1_555
C44 C45 1_555 1_555
C45 C46 1_555 1_555
C46 C47 1_555 1_555
C52 C53 1_555 1_555
C58 C59 1_555 1_555

#END
