
#######################################################################
#
#                 Cambridge Crystallographic Data Centre
#                                CCDC 
#
#######################################################################
#
# If this CIF has been generated from an entry in the Cambridge 
# Structural Database, then it will include bibliographic, chemical, 
# crystal, experimental, refinement or atomic coordinate data resulting 
# from the CCDC's data processing and validation procedures.
#
#######################################################################

data_QARMAA
_chemical_formula_moiety         '(C58 H58 Fe1 I6 N12 Zn3)n'
_symmetry_cell_setting           monoclinic
_symmetry_space_group_name_H-M   'C 2/c'
_symmetry_Int_Tables_number      15
_space_group_name_Hall           '-C 2yc'
loop_
_symmetry_equiv_pos_site_id
_symmetry_equiv_pos_as_xyz
1 x,y,z
2 -x,y,1/2-z
3 1/2+x,1/2+y,z
4 1/2-x,1/2+y,1/2-z
5 -x,-y,-z
6 x,-y,1/2+z
7 1/2-x,1/2-y,-z
8 1/2+x,1/2-y,1/2+z
_cell_length_a                   35.0063(17)
_cell_length_b                   15.0958(7)
_cell_length_c                   30.2162(15)
_cell_angle_alpha                90
_cell_angle_beta                 102.0881(19)
_cell_angle_gamma                90
_cell_volume                     15613.6
loop_
_atom_site_label
_atom_site_type_symbol
_atom_site_fract_x
_atom_site_fract_y
_atom_site_fract_z
_atom_site_U_iso_or_equiv
_atom_site_thermal_displace_type
Fe1 Fe 0.21794(6) 0.07369(18) 1.02151(7) 0.1080 Uani
C37 C 0.1993(4) 0.0706(16) 1.0816(5) 0.1792 Uani
H25 H 0.1739 0.0845 1.0862 0.2150 Uiso
C38 C 0.2306(8) 0.1312(10) 1.0838(5) 0.2209 Uani
H26 H 0.2299 0.1928 1.0901 0.2630 Uiso
C39 C 0.2632(4) 0.0837(17) 1.0749(5) 0.2119 Uani
H27 H 0.2881 0.1079 1.0742 0.2530 Uiso
C40 C 0.2520(5) -0.0063(14) 1.0672(5) 0.1592 Uani
H28 H 0.2681 -0.0530 1.0605 0.1890 Uiso
C41 C 0.2125(5) -0.0144(12) 1.0714(5) 0.1543 Uani
H29 H 0.1975 -0.0674 1.0679 0.1850 Uiso
C42 C 0.1736(3) 0.1250(11) 0.9759(4) 0.1318 Uani
H30 H 0.1504 0.1489 0.9827 0.1580 Uiso
C43 C 0.2084(5) 0.1727(9) 0.9748(5) 0.1363 Uani
H31 H 0.2125 0.2341 0.9807 0.1640 Uiso
C44 C 0.2359(3) 0.1124(15) 0.9633(5) 0.1659 Uani
H32 H 0.2616 0.1264 0.9602 0.1970 Uiso
C45 C 0.2181(5) 0.0274(11) 0.9573(4) 0.1678 Uani
H33 H 0.2299 -0.0253 0.9495 0.2000 Uiso
C46 C 0.1796(5) 0.0352(9) 0.9651(5) 0.1346 Uani
H34 H 0.1612 -0.0114 0.9634 0.1610 Uiso
C47 C 0.1307(7) 0.0734(17) 0.8021(11) 0.2464 Uani
H35 H 0.1394 0.1279 0.8196 0.2970 Uiso
H36 H 0.1500 0.0616 0.7831 0.2970 Uiso
C48 C 0.1339(8) -0.001(3) 0.8357(15) 0.3878 Uani
H37 H 0.1352 -0.0589 0.8205 0.4630 Uiso
H38 H 0.1577 0.0056 0.8598 0.4630 Uiso
C49 C 0.0983(12) 0.003(2) 0.8553(7) 0.3812 Uani
H39 H 0.0968 0.0608 0.8704 0.4590 Uiso
H40 H 0.0986 -0.0448 0.8778 0.4590 Uiso
C50 C 0.0641(8) -0.008(2) 0.8160(14) 0.3699 Uani
H41 H 0.0691 -0.0567 0.7960 0.4420 Uiso
H42 H 0.0400 -0.0220 0.8270 0.4420 Uiso
C51 C 0.0597(7) 0.078(3) 0.7912(13) 0.3571 Uani
H43 H 0.0356 0.0767 0.7673 0.4300 Uiso
H44 H 0.0573 0.1265 0.8125 0.4300 Uiso
C52 C 0.0931(11) 0.095(3) 0.7709(10) 0.3389 Uani
H45 H 0.0931 0.1577 0.7621 0.4060 Uiso
H46 H 0.0906 0.0583 0.7432 0.4060 Uiso
C53 C 0.4966(18) 1.275(8) 0.8611(17) 0.5786 Uani
H47 H 0.5252 1.2787 0.8634 0.6920 Uiso
H48 H 0.4917 1.2860 0.8917 0.6920 Uiso
C54 C 0.477(2) 1.348(3) 0.830(4) 0.5795 Uani
H49 H 0.4977 1.3925 0.8281 0.6970 Uiso
H50 H 0.4580 1.3769 0.8448 0.6970 Uiso
C55 C 0.457(2) 1.324(6) 0.782(3) 0.5795 Uani
H51 H 0.4372 1.3706 0.7713 0.6960 Uiso
H52 H 0.4765 1.3272 0.7628 0.6960 Uiso
C56 C 0.4368(19) 1.235(7) 0.774(2) 0.5793 Uani
H53 H 0.4429 1.2093 0.7464 0.6970 Uiso
H54 H 0.4082 1.2457 0.7682 0.6970 Uiso
C57 C 0.447(3) 1.168(4) 0.812(3) 0.5792 Uani
H55 H 0.4248 1.1645 0.8276 0.6930 Uiso
H56 H 0.4489 1.1089 0.7979 0.6930 Uiso
C58 C 0.484(3) 1.181(5) 0.848(3) 0.5792 Uani
H57 H 0.4807 1.1498 0.8755 0.6950 Uiso
H58 H 0.5056 1.1520 0.8370 0.6950 Uiso
Zn1 Zn 0.37178(3) -0.09172(6) 0.44920(4) 0.0522 Uani
I1 I 0.35327(3) -0.07000(8) 0.52422(3) 0.1119 Uani
I2 I 0.3835(2) -0.2392(2) 0.4185(3) 0.0917 Uani
Zn2 Zn 0.1736(3) 0.6414(8) 0.2724(3) 0.0401 Uani
I3 I 0.12869(16) 0.6627(4) 0.19539(16) 0.0633 Uani
I4 I 0.23283(14) 0.7398(3) 0.29605(12) 0.0632 Uani
Zn3 Zn 0.08051(3) -0.11966(5) 0.09369(3) 0.0375 Uani
I5 I 0.11580(2) -0.23401(4) 0.05670(2) 0.0656 Uani
I6 I 0.02662(2) -0.14522(5) 0.13634(2) 0.0653 Uani
N1 N 0.32926(18) -0.0283(4) 0.4028(2) 0.0422 Uani
C1 C 0.3235(2) 0.0575(5) 0.4061(3) 0.0518 Uani
H1 H 0.3394 0.0889 0.4304 0.0620 Uiso
C2 C 0.2956(2) 0.1043(5) 0.3763(3) 0.0510 Uani
H2 H 0.2934 0.1666 0.3795 0.0610 Uiso
C3 C 0.2710(2) 0.0604(4) 0.3420(2) 0.0353 Uani
C4 C 0.2762(3) -0.0299(5) 0.3388(3) 0.0659 Uani
H3 H 0.2600 -0.0632 0.3155 0.0790 Uiso
C5 C 0.3052(3) -0.0711(5) 0.3702(3) 0.0607 Uani
H4 H 0.3080 -0.1335 0.3683 0.0730 Uiso
C6 C 0.2400(2) 0.1068(5) 0.3092(2) 0.0378 Uani
N2 N 0.23472(18) 0.1920(4) 0.3141(2) 0.0379 Uani
C7 C 0.2065(2) 0.2281(5) 0.2830(2) 0.0372 Uani
N3 N 0.18314(18) 0.1839(4) 0.2491(2) 0.0397 Uani
C8 C 0.1920(2) 0.0980(5) 0.2469(2) 0.0355 Uani
N4 N 0.22108(18) 0.0566(4) 0.2750(2) 0.0398 Uani
C9 C 0.1997(2) 0.3257(5) 0.2835(3) 0.0419 Uani
C10 C 0.2224(2) 0.3812(5) 0.3146(3) 0.0473 Uani
H5 H 0.2423 0.3580 0.3380 0.0570 Uiso
C11 C 0.2156(3) 0.4709(5) 0.3110(3) 0.0486 Uani
H6 H 0.2318 0.5091 0.3319 0.0580 Uiso
N5 N 0.1877(2) 0.5067(4) 0.2800(2) 0.0447 Uani
C12 C 0.1658(3) 0.4528(6) 0.2501(4) 0.0693 Uani
H7 H 0.1456 0.4776 0.2275 0.0830 Uiso
C13 C 0.1714(3) 0.3634(5) 0.2507(3) 0.0666 Uani
H8 H 0.1557 0.3272 0.2283 0.0800 Uiso
C14 C 0.1689(2) 0.0472(4) 0.2084(2) 0.0372 Uani
C15 C 0.1753(2) -0.0420(5) 0.2017(3) 0.0432 Uani
H9 H 0.1960 -0.0725 0.2209 0.0510 Uiso
C16 C 0.1510(2) -0.0858(5) 0.1665(3) 0.0432 Uani
H10 H 0.1554 -0.1470 0.1623 0.0510 Uiso
N6 N 0.12197(18) -0.0468(4) 0.1386(2) 0.0394 Uani
C17 C 0.1166(3) 0.0383(5) 0.1447(3) 0.0694 Uani
H11 H 0.0957 0.0671 0.1248 0.0830 Uiso
C18 C 0.1395(3) 0.0878(5) 0.1781(3) 0.0666 Uani
H12 H 0.1351 0.1496 0.1802 0.0800 Uiso
N7 N 0.06208(17) -0.0216(4) 0.0457(2) 0.0365 Uani
C19 C 0.0349(2) 0.0384(5) 0.0500(3) 0.0405 Uani
H13 H 0.0196 0.0287 0.0720 0.0480 Uiso
C20 C 0.0284(2) 0.1133(5) 0.0239(3) 0.0374 Uani
H14 H 0.0092 0.1550 0.0285 0.0450 Uiso
C21 C 0.04944(19) 0.1279(4) -0.0086(2) 0.0312 Uani
C22 C 0.0758(2) 0.0640(5) -0.0148(3) 0.0485 Uani
H15 H 0.0901 0.0704 -0.0381 0.0580 Uiso
C23 C 0.0814(2) -0.0085(5) 0.0126(3) 0.0456 Uani
H16 H 0.0999 -0.0517 0.0079 0.0550 Uiso
C24 C 0.04525(19) 0.2103(5) -0.0356(2) 0.0336 Uani
N8 N 0.01792(17) 0.2680(4) -0.0295(2) 0.0384 Uani
C25 C 0.01408(19) 0.3381(5) -0.0577(2) 0.0350 Uani
N9 N 0.03515(18) 0.3545(4) -0.0884(2) 0.0395 Uani
C26 C 0.0633(2) 0.2955(5) -0.0892(2) 0.0381 Uani
N10 N 0.06913(17) 0.2224(4) -0.0644(2) 0.0383 Uani
C27 C -0.0183(2) 0.4002(5) -0.0552(2) 0.0353 Uani
C28 C -0.0340(2) 0.4054(5) -0.0171(3) 0.0461 Uani
H17 H -0.0236 0.3698 0.0085 0.0550 Uiso
C29 C -0.0642(2) 0.4610(6) -0.0159(3) 0.0473 Uani
H18 H -0.0744 0.4634 0.0109 0.0570 Uiso
N11 N -0.08034(18) 0.5128(4) -0.0510(2) 0.0421 Uani
C30 C -0.0654(3) 0.5064(8) -0.0873(3) 0.0764 Uani
H19 H -0.0765 0.5420 -0.1127 0.0920 Uiso
C31 C -0.0347(3) 0.4516(7) -0.0911(3) 0.0672 Uani
H20 H -0.0252 0.4498 -0.1183 0.0810 Uiso
C32 C 0.0900(2) 0.3120(5) -0.1205(3) 0.0395 Uani
C33 C 0.1238(3) 0.2652(6) -0.1164(3) 0.0568 Uani
H21 H 0.1300 0.2202 -0.0941 0.0680 Uiso
C34 C 0.1492(3) 0.2834(6) -0.1447(3) 0.0558 Uani
H22 H 0.1732 0.2520 -0.1407 0.0670 Uiso
N12 N 0.1408(2) 0.3442(4) -0.1777(2) 0.0458 Uani
C35 C 0.1080(3) 0.3891(7) -0.1811(4) 0.0711 Uani
H23 H 0.1018 0.4325 -0.2042 0.0850 Uiso
C36 C 0.0826(3) 0.3763(6) -0.1530(3) 0.0607 Uani
H24 H 0.0599 0.4120 -0.1560 0.0730 Uiso
Zn1G Zn -0.12822(3) 0.59172(6) -0.05080(4) 0.0522 Uani
Zn2E Zn 0.1736(3) 0.3586(8) -0.2276(3) 0.0401 Uani
N11G N 0.41966(18) -0.0128(4) 0.4490(2) 0.0421 Uani
N12E N 0.1408(2) 0.6558(4) 0.3223(2) 0.0458 Uani
loop_
_atom_site_aniso_label
_atom_site_aniso_U_11
_atom_site_aniso_U_22
_atom_site_aniso_U_33
_atom_site_aniso_U_23
_atom_site_aniso_U_13
_atom_site_aniso_U_12
Fe1 0.0673(11) 0.154(2) 0.0999(14) 0.0309(14) 0.0114(10) 0.0123(12)
C37 0.153(19) 0.19(2) 0.23(3) 0.07(2) 0.121(19) 0.056(18)
C38 0.25(3) 0.30(4) 0.096(15) 0.039(19) -0.002(19) -0.07(3)
C39 0.092(13) 0.44(5) 0.098(14) 0.08(2) 0.007(11) 0.00(2)
C40 0.134(18) 0.23(3) 0.124(15) 0.058(17) 0.051(14) 0.065(17)
C41 0.125(16) 0.24(3) 0.092(12) 0.033(15) 0.009(11) -0.017(17)
C42 0.071(9) 0.155(17) 0.151(15) 0.048(13) -0.019(9) 0.012(10)
C43 0.102(12) 0.137(15) 0.148(16) 0.044(12) -0.024(11) -0.011(11)
C44 0.102(13) 0.27(3) 0.122(15) 0.082(19) 0.015(11) 0.006(18)
C45 0.20(2) 0.20(3) 0.113(14) 0.020(16) 0.055(16) 0.07(2)
C46 0.110(13) 0.17(2) 0.117(13) 0.000(13) 0.008(11) -0.004(13)
C47 0.33(4) 0.16(2) 0.32(4) -0.15(3) 0.23(4) -0.13(3)
C48 0.36(6) 0.43(8) 0.45(7) 0.02(6) 0.26(6) -0.09(5)
C49 0.56(10) 0.33(6) 0.31(5) -0.22(5) 0.22(6) -0.18(6)
C50 0.41(7) 0.36(7) 0.42(8) 0.06(6) 0.27(7) -0.07(5)
C51 0.23(4) 0.44(7) 0.47(7) 0.27(6) 0.23(4) 0.18(4)
C52 0.30(5) 0.54(8) 0.16(3) 0.12(4) 0.01(3) 0.02(5)
C53 0.58(2) 0.58(2) 0.58(2) 0.000(9) 0.131(10) 0.000(9)
C54 0.58(2) 0.58(2) 0.58(2) -0.002(9) 0.125(10) 0.006(10)
C55 0.58(2) 0.58(2) 0.58(2) -0.002(9) 0.125(10) 0.003(10)
C56 0.58(2) 0.58(2) 0.58(2) 0.002(8) 0.126(10) 0.000(9)
C57 0.58(2) 0.58(2) 0.58(2) 0.001(9) 0.127(10) 0.004(10)
C58 0.58(2) 0.58(2) 0.58(2) 0.001(10) 0.127(10) -0.004(10)
Zn1 0.0391(5) 0.0447(5) 0.0607(6) 0.0184(5) -0.0170(4) -0.0127(4)
I1 0.0754(5) 0.1739(10) 0.0782(5) 0.0576(6) -0.0028(4) -0.0307(6)
I2 0.0876 0.0338 0.123 0.0037 -0.048 0.0003
Zn2 0.053(2) 0.0270(14) 0.0430(18) 0.0006(10) 0.0165(13) 0.0005(13)
I3 0.0866(16) 0.0534(12) 0.0478(12) 0.0109(8) 0.0092(13) 0.0129(9)
I4 0.0686(13) 0.0439(9) 0.086(2) -0.0141(9) 0.0368(10) -0.0168(8)
Zn3 0.0444(5) 0.0286(4) 0.0333(4) 0.0009(3) -0.0061(4) -0.0055(3)
I5 0.0909(5) 0.0381(3) 0.0632(4) -0.0033(3) 0.0054(3) 0.0171(3)
I6 0.0647(4) 0.0788(4) 0.0510(3) 0.0021(3) 0.0090(3) -0.0256(3)
N1 0.040(3) 0.036(3) 0.042(4) 0.004(3) -0.011(3) -0.008(3)
C1 0.055(5) 0.039(4) 0.048(5) 0.003(4) -0.020(4) -0.014(4)
C2 0.051(5) 0.033(4) 0.058(5) -0.006(4) -0.014(4) -0.002(3)
C3 0.037(4) 0.026(3) 0.038(4) 0.002(3) -0.003(3) -0.005(3)
C4 0.072(6) 0.031(4) 0.069(6) -0.002(4) -0.044(5) -0.003(4)
C5 0.062(5) 0.030(4) 0.072(6) -0.001(4) -0.027(5) -0.007(4)
C6 0.040(4) 0.032(4) 0.037(4) 0.002(3) -0.002(3) -0.006(3)
N2 0.048(4) 0.024(3) 0.036(3) -0.003(2) -0.004(3) -0.002(3)
C7 0.042(4) 0.027(3) 0.038(4) -0.001(3) -0.002(3) -0.005(3)
N3 0.045(4) 0.026(3) 0.041(3) -0.002(3) -0.007(3) -0.006(3)
C8 0.040(4) 0.028(3) 0.033(4) 0.004(3) -0.005(3) -0.004(3)
N4 0.044(3) 0.028(3) 0.040(3) 0.001(3) -0.008(3) -0.007(3)
C9 0.051(4) 0.025(4) 0.045(4) -0.005(3) -0.001(4) -0.005(3)
C10 0.055(5) 0.035(4) 0.044(4) -0.006(3) -0.008(4) -0.001(4)
C11 0.060(5) 0.030(4) 0.052(5) -0.007(3) 0.003(4) -0.009(4)
N5 0.050(4) 0.025(3) 0.059(4) -0.005(3) 0.011(3) 0.003(3)
C12 0.075(6) 0.033(4) 0.081(7) -0.004(4) -0.027(5) 0.007(4)
C13 0.080(7) 0.027(4) 0.074(6) -0.004(4) -0.027(5) -0.005(4)
C14 0.040(4) 0.024(3) 0.040(4) 0.004(3) -0.009(3) -0.006(3)
C15 0.049(4) 0.030(4) 0.039(4) -0.004(3) -0.017(3) 0.007(3)
C16 0.048(4) 0.023(3) 0.051(5) -0.003(3) -0.007(4) 0.001(3)
N6 0.041(3) 0.028(3) 0.042(3) 0.000(3) -0.008(3) -0.004(3)
C17 0.077(6) 0.025(4) 0.079(7) 0.000(4) -0.046(5) 0.012(4)
C18 0.089(7) 0.023(4) 0.064(6) -0.006(4) -0.038(5) 0.007(4)
N7 0.038(3) 0.035(3) 0.032(3) 0.001(3) -0.003(3) 0.000(3)
C19 0.037(4) 0.040(4) 0.043(4) 0.002(3) 0.005(3) 0.000(3)
C20 0.035(4) 0.034(4) 0.042(4) 0.003(3) 0.005(3) 0.005(3)
C21 0.027(3) 0.030(3) 0.032(4) 0.003(3) -0.004(3) 0.000(3)
C22 0.051(5) 0.042(4) 0.056(5) 0.011(4) 0.019(4) 0.014(4)
C23 0.049(4) 0.041(4) 0.049(5) 0.012(4) 0.015(4) 0.015(4)
C24 0.030(3) 0.032(4) 0.034(4) 0.004(3) -0.004(3) 0.000(3)
N8 0.038(3) 0.036(3) 0.039(3) 0.003(3) 0.003(3) 0.006(3)
C25 0.027(3) 0.034(4) 0.040(4) 0.000(3) -0.002(3) 0.001(3)
N9 0.039(3) 0.031(3) 0.048(4) 0.002(3) 0.008(3) 0.000(3)
C26 0.033(4) 0.038(4) 0.039(4) 0.004(3) -0.002(3) -0.003(3)
N10 0.036(3) 0.036(3) 0.041(3) 0.003(3) 0.004(3) 0.001(3)
C27 0.033(4) 0.030(4) 0.040(4) -0.003(3) 0.001(3) 0.002(3)
C28 0.044(4) 0.039(4) 0.050(5) 0.010(4) -0.002(4) 0.010(3)
C29 0.038(4) 0.054(5) 0.048(5) -0.004(4) 0.005(4) 0.008(4)
N11 0.038(3) 0.036(3) 0.047(4) 0.001(3) -0.003(3) 0.010(3)
C30 0.076(7) 0.095(8) 0.056(6) 0.024(6) 0.009(5) 0.057(6)
C31 0.068(6) 0.076(7) 0.057(6) 0.018(5) 0.012(5) 0.036(5)
C32 0.035(4) 0.039(4) 0.041(4) 0.006(3) 0.000(3) 0.001(3)
C33 0.065(6) 0.048(5) 0.060(6) 0.020(4) 0.019(5) 0.013(4)
C34 0.057(5) 0.055(5) 0.060(6) 0.011(4) 0.023(4) 0.016(4)
N12 0.054(4) 0.037(3) 0.049(4) 0.000(3) 0.017(3) 0.003(3)
C35 0.074(6) 0.069(6) 0.079(7) 0.033(5) 0.036(6) 0.026(5)
C36 0.052(5) 0.063(6) 0.071(6) 0.023(5) 0.022(5) 0.020(4)
Zn1G 0.0391 0.0447 0.0607 -0.0184 -0.017 0.0127
Zn2E 0.053 0.027 0.043 -0.0006 0.0165 -0.0005
N11G 0.038 0.036 0.047 -0.001 -0.003 -0.01
N12E 0.054 0.037 0.049 0 0.017 -0.003
loop_
_geom_bond_atom_site_label_1
_geom_bond_atom_site_label_2
_geom_bond_site_symmetry_1
_geom_bond_site_symmetry_2
Zn1 I1 1_555 1_555
I2 Zn1 1_555 1_555
Zn2 I3 1_555 1_555
I4 Zn2 1_555 1_555
Zn3 I5 1_555 1_555
I6 Zn3 1_555 1_555
N1 Zn1 1_555 1_555
C1 N1 1_555 1_555
H1 C1 1_555 1_555
C2 C1 1_555 1_555
H2 C2 1_555 1_555
C3 C2 1_555 1_555
C4 C3 1_555 1_555
H3 C4 1_555 1_555
C5 N1 1_555 1_555
H4 C5 1_555 1_555
C6 C3 1_555 1_555
N2 C6 1_555 1_555
C7 N2 1_555 1_555
N3 C7 1_555 1_555
C8 N3 1_555 1_555
N4 C6 1_555 1_555
C9 C7 1_555 1_555
C10 C9 1_555 1_555
H5 C10 1_555 1_555
C11 C10 1_555 1_555
H6 C11 1_555 1_555
N5 Zn2 1_555 1_555
C12 N5 1_555 1_555
H7 C12 1_555 1_555
C13 C9 1_555 1_555
H8 C13 1_555 1_555
C14 C8 1_555 1_555
C15 C14 1_555 1_555
H9 C15 1_555 1_555
C16 C15 1_555 1_555
H10 C16 1_555 1_555
N6 Zn3 1_555 1_555
C17 N6 1_555 1_555
H11 C17 1_555 1_555
C18 C14 1_555 1_555
H12 C18 1_555 1_555
N7 Zn3 1_555 1_555
C19 N7 1_555 1_555
H13 C19 1_555 1_555
C20 C19 1_555 1_555
H14 C20 1_555 1_555
C21 C20 1_555 1_555
C22 C21 1_555 1_555
H15 C22 1_555 1_555
C23 N7 1_555 1_555
H16 C23 1_555 1_555
C24 C21 1_555 1_555
N8 C24 1_555 1_555
C25 N8 1_555 1_555
N9 C25 1_555 1_555
C26 N9 1_555 1_555
N10 C24 1_555 1_555
C27 C25 1_555 1_555
C28 C27 1_555 1_555
H17 C28 1_555 1_555
C29 C28 1_555 1_555
H18 C29 1_555 1_555
N11 C29 1_555 1_555
C30 N11 1_555 1_555
H19 C30 1_555 1_555
C31 C27 1_555 1_555
H20 C31 1_555 1_555
C32 C26 1_555 1_555
C33 C32 1_555 1_555
H21 C33 1_555 1_555
C34 C33 1_555 1_555
H22 C34 1_555 1_555
N12 C34 1_555 1_555
C35 N12 1_555 1_555
H23 C35 1_555 1_555
C36 C32 1_555 1_555
H24 C36 1_555 1_555
Fe1 C37 1_555 1_555
C37 H25 1_555 1_555
C38 Fe1 1_555 1_555
H26 C38 1_555 1_555
C39 Fe1 1_555 1_555
H27 C39 1_555 1_555
C40 Fe1 1_555 1_555
H28 C40 1_555 1_555
C41 Fe1 1_555 1_555
H29 C41 1_555 1_555
C42 Fe1 1_555 1_555
H30 C42 1_555 1_555
C43 Fe1 1_555 1_555
H31 C43 1_555 1_555
C44 Fe1 1_555 1_555
H32 C44 1_555 1_555
C45 Fe1 1_555 1_555
H33 C45 1_555 1_555
C46 Fe1 1_555 1_555
H34 C46 1_555 1_555
C47 H35 1_555 1_555
H36 C47 1_555 1_555
C48 C47 1_555 1_555
H37 C48 1_555 1_555
H38 C48 1_555 1_555
C49 C48 1_555 1_555
H39 C49 1_555 1_555
H40 C49 1_555 1_555
C50 C49 1_555 1_555
H41 C50 1_555 1_555
H42 C50 1_555 1_555
C51 C50 1_555 1_555
H43 C51 1_555 1_555
H44 C51 1_555 1_555
C52 C47 1_555 1_555
H45 C52 1_555 1_555
H46 C52 1_555 1_555
C53 H47 1_555 1_555
H48 C53 1_555 1_555
C54 C53 1_555 1_555
H49 C54 1_555 1_555
H50 C54 1_555 1_555
C55 C54 1_555 1_555
H51 C55 1_555 1_555
H52 C55 1_555 1_555
C56 C55 1_555 1_555
H53 C56 1_555 1_555
H54 C56 1_555 1_555
C57 C56 1_555 1_555
H55 C57 1_555 1_555
H56 C57 1_555 1_555
C58 C53 1_555 1_555
H57 C58 1_555 1_555
H58 C58 1_555 1_555
Zn1G N11 1_555 1_555
Zn2E N12 1_555 1_555
N11G Zn1 1_555 1_555
N12E Zn2 1_555 1_555
C4 C5 1_555 1_555
C8 N4 1_555 1_555
C11 N5 1_555 1_555
C12 C13 1_555 1_555
C16 N6 1_555 1_555
C17 C18 1_555 1_555
C22 C23 1_555 1_555
C26 N10 1_555 1_555
C30 C31 1_555 1_555
C35 C36 1_555 1_555
C37 C38 1_555 1_555
C37 C41 1_555 1_555
C38 C39 1_555 1_555
C39 C40 1_555 1_555
C40 C41 1_555 1_555
C42 C43 1_555 1_555
C42 C46 1_555 1_555
C43 C44 1_555 1_555
C44 C45 1_555 1_555
C45 C46 1_555 1_555
C51 C52 1_555 1_555
C57 C58 1_555 1_555

#END
