
#######################################################################
#
#                 Cambridge Crystallographic Data Centre
#                                CCDC 
#
#######################################################################
#
# If this CIF has been generated from an entry in the Cambridge 
# Structural Database, then it will include bibliographic, chemical, 
# crystal, experimental, refinement or atomic coordinate data resulting 
# from the CCDC's data processing and validation procedures.
#
#######################################################################

data_KUZPEC
_chemical_formula_moiety         '(C26 H26 Ag1 F6 N4 O7 S2 1-)n'
_symmetry_cell_setting           orthorhombic
_symmetry_space_group_name_H-M   'F d d d'
_symmetry_Int_Tables_number      70
_space_group_name_Hall           '-F 2uv 2vw'
loop_
_symmetry_equiv_pos_site_id
_symmetry_equiv_pos_as_xyz
1 x,y,z
2 1/4-x,1/4-y,z
3 x,1/4-y,1/4-z
4 1/4-x,y,1/4-z
5 x,1/2+y,1/2+z
6 1/4-x,3/4-y,1/2+z
7 x,3/4-y,3/4-z
8 1/4-x,1/2+y,3/4-z
9 1/2+x,y,1/2+z
10 3/4-x,1/4-y,1/2+z
11 1/2+x,1/4-y,3/4-z
12 3/4-x,y,3/4-z
13 1/2+x,1/2+y,z
14 3/4-x,3/4-y,z
15 1/2+x,3/4-y,1/4-z
16 3/4-x,1/2+y,1/4-z
17 -x,-y,-z
18 3/4+x,3/4+y,-z
19 -x,3/4+y,3/4+z
20 3/4+x,-y,3/4+z
21 -x,1/2-y,1/2-z
22 3/4+x,1/4+y,1/2-z
23 -x,1/4+y,1/4+z
24 3/4+x,1/2-y,1/4+z
25 1/2-x,-y,1/2-z
26 1/4+x,3/4+y,1/2-z
27 1/2-x,3/4+y,1/4+z
28 1/4+x,-y,1/4+z
29 1/2-x,1/2-y,-z
30 1/4+x,1/4+y,-z
31 1/2-x,1/4+y,3/4+z
32 1/4+x,1/2-y,3/4+z
_cell_length_a                   30.5765(15)
_cell_length_b                   28.363(2)
_cell_length_c                   12.2756(7)
_cell_angle_alpha                90
_cell_angle_beta                 90
_cell_angle_gamma                90
_cell_volume                     10645.9
loop_
_atom_site_label
_atom_site_type_symbol
_atom_site_fract_x
_atom_site_fract_y
_atom_site_fract_z
_atom_site_U_iso_or_equiv
_atom_site_thermal_displace_type
Ag1 Ag 0.384460(15) 0.1250 0.6250 0.0457 Uani
N1 N 0.42976(11) 0.07759(12) 0.5168(3) 0.0414 Uani
N2 N 0.58713(11) -0.07467(13) -0.0291(3) 0.0432 Uani
C1 C 0.41570(15) 0.03707(18) 0.4748(4) 0.0580 Uani
H1 H 0.3880 0.0266 0.4945 0.0700 Uiso
C2 C 0.43967(18) 0.00972(18) 0.4037(4) 0.0583 Uani
H2 H 0.4279 -0.0181 0.3765 0.0700 Uiso
C3 C 0.48052(16) 0.02339(17) 0.3733(3) 0.0450 Uani
C4 C 0.49588(16) 0.06498(18) 0.4178(4) 0.0537 Uani
H3 H 0.5238 0.0757 0.4005 0.0640 Uiso
C5 C 0.46982(16) 0.09041(16) 0.4879(4) 0.0490 Uani
H4 H 0.4810 0.1182 0.5167 0.0590 Uiso
C6 C 0.59750(15) -0.03061(17) -0.0001(4) 0.0513 Uani
H5 H 0.6237 -0.0181 -0.0256 0.0610 Uiso
C7 C 0.57173(16) -0.00267(17) 0.0654(4) 0.0530 Uani
H6 H 0.5808 0.0276 0.0836 0.0630 Uiso
C8 C 0.53245(15) -0.01974(16) 0.1040(3) 0.0447 Uani
C9 C 0.52106(15) -0.06476(16) 0.0717(4) 0.0510 Uani
H7 H 0.4946 -0.0777 0.0943 0.0610 Uiso
C10 C 0.54857(16) -0.09045(16) 0.0064(4) 0.0503 Uani
H8 H 0.5399 -0.1206 -0.0143 0.0600 Uiso
C11 C 0.50853(18) -0.00524(19) 0.2967(4) 0.0620 Uani
H9 H 0.5009 -0.0383 0.3043 0.0750 Uiso
H10 H 0.5389 -0.0017 0.3176 0.0750 Uiso
C12 C 0.50356(16) 0.00887(17) 0.1783(3) 0.0527 Uani
H11 H 0.5108 0.0420 0.1705 0.0630 Uiso
H12 H 0.4733 0.0048 0.1565 0.0630 Uiso
N1B N 0.42976(11) 0.17241(12) 0.7332(3) 0.0414 Uani
N2B N 0.58713(11) 0.32467(13) 1.2791(3) 0.0432 Uani
C1B C 0.41570(15) 0.21293(18) 0.7752(4) 0.0580 Uani
H1B H 0.3880 0.2234 0.7555 0.0700 Uiso
C2B C 0.43967(18) 0.24028(18) 0.8463(4) 0.0583 Uani
H2B H 0.4279 0.2681 0.8735 0.0700 Uiso
C3B C 0.48052(16) 0.22661(17) 0.8767(3) 0.0450 Uani
C4B C 0.49588(16) 0.18502(18) 0.8322(4) 0.0537 Uani
H3B H 0.5238 0.1743 0.8495 0.0640 Uiso
C5B C 0.46982(16) 0.15959(16) 0.7621(4) 0.0490 Uani
H4B H 0.4810 0.1318 0.7333 0.0590 Uiso
C6B C 0.59750(15) 0.28061(17) 1.2501(4) 0.0513 Uani
H5B H 0.6237 0.2681 1.2756 0.0610 Uiso
C7B C 0.57173(16) 0.25267(17) 1.1846(4) 0.0530 Uani
H6B H 0.5808 0.2224 1.1664 0.0630 Uiso
C8B C 0.53245(15) 0.26974(16) 1.1460(3) 0.0447 Uani
C9B C 0.52106(15) 0.31476(16) 1.1783(4) 0.0510 Uani
H7B H 0.4946 0.3277 1.1557 0.0610 Uiso
C10B C 0.54857(16) 0.34045(16) 1.2436(4) 0.0503 Uani
H8B H 0.5399 0.3706 1.2643 0.0600 Uiso
C11B C 0.50853(18) 0.25524(19) 0.9533(4) 0.0620 Uani
H9B H 0.5009 0.2883 0.9457 0.0750 Uiso
H10B H 0.5389 0.2517 0.9324 0.0750 Uiso
C12B C 0.50356(16) 0.24113(17) 1.0717(3) 0.0527 Uani
H11B H 0.5108 0.2080 1.0795 0.0630 Uiso
H12B H 0.4733 0.2452 1.0935 0.0630 Uiso
Ag1Y Ag 0.634460(15) -0.1250 -0.1250 0.0457 Uani
Ag1CA Ag 0.634460(15) 0.3750 1.3750 0.0457 Uani
N2S N 0.33713(11) 0.07467(13) 0.7209(3) 0.0432 Uani
N2U N 0.33713(11) 0.17533(13) 0.5291(3) 0.0432 Uani
F1 F 0.3884(4) 0.4167(4) -0.0174(10) 0.1303 Uani
F2 F 0.3404(6) 0.4263(7) 0.1089(17) 0.1657 Uani
F3 F 0.3274(4) 0.3822(5) -0.0148(11) 0.1527 Uani
O1 O 0.3942(8) 0.3155(8) 0.0342(19) 0.1600 Uani
O2 O 0.3489(4) 0.3314(5) 0.1887(11) 0.1300 Uani
O3 O 0.4188(5) 0.3680(6) 0.1805(14) 0.1410 Uani
S1 S 0.38326(11) 0.34706(16) 0.1209(4) 0.0737 Uani
C13 C 0.3611(8) 0.3949(8) 0.048(3) 0.1230 Uani
F1M F 0.3616(4) 0.3333(4) -0.0174(10) 0.1303 Uani
F2M F 0.4096(6) 0.3237(7) 0.1089(17) 0.1657 Uani
F3M F 0.4226(4) 0.3678(5) -0.0148(11) 0.1527 Uani
O1M O 0.3558(8) 0.4345(8) 0.0342(19) 0.1600 Uani
O2M O 0.4011(4) 0.4186(5) 0.1887(11) 0.1300 Uani
O3M O 0.3312(5) 0.3820(6) 0.1805(14) 0.1410 Uani
S1M S 0.36674(11) 0.40294(16) 0.1209(4) 0.0737 Uani
C13M C 0.3889(8) 0.3551(8) 0.048(3) 0.1230 Uani
O4 O 0.4502(4) 0.3750 0.3750 0.1563 Uani
H13 H 0.4340 0.3731 0.3189 0.1880 Uiso
H13F H 0.4340 0.3769 0.4311 0.1880 Uiso
loop_
_atom_site_aniso_label
_atom_site_aniso_U_11
_atom_site_aniso_U_22
_atom_site_aniso_U_33
_atom_site_aniso_U_23
_atom_site_aniso_U_13
_atom_site_aniso_U_12
Ag1 0.0419(3) 0.0510(4) 0.0443(3) -0.0011(2) 0.000 0.000
N1 0.0406(19) 0.046(2) 0.0377(17) -0.0015(15) 0.0032(15) 0.0033(16)
N2 0.0408 0.048 0.0407 -0.0025 0.0039 0.0049
C1 0.043(3) 0.072(3) 0.059(3) -0.014(3) 0.007(2) -0.010(2)
C2 0.060(3) 0.059(3) 0.056(3) -0.020(2) 0.004(2) -0.006(2)
C3 0.055(3) 0.048(3) 0.032(2) 0.0059(18) 0.0030(18) 0.019(2)
C4 0.047(3) 0.060(3) 0.054(3) 0.006(2) 0.016(2) 0.001(2)
C5 0.056(3) 0.042(2) 0.049(2) -0.001(2) 0.010(2) -0.005(2)
C6 0.043 0.056 0.055 -0.008 0.007 -0.003
C7 0.057 0.049 0.053 -0.01 0.002 0.003
C8 0.049 0.051 0.034 0.0055 -0.0005 0.017
C9 0.047 0.054 0.052 0.005 0.015 0.004
C10 0.055 0.041 0.055 0 0.015 -0.002
C11 0.073(3) 0.069(3) 0.044(2) 0.005(2) 0.007(2) 0.035(3)
C12 0.062 0.057 0.039 0.004 0.009 0.025
N1B 0.0406 0.046 0.0377 -0.0015 -0.0032 -0.0033
N2B 0.0408 0.048 0.0407 -0.0025 -0.0039 -0.0049
C1B 0.043 0.072 0.059 -0.014 -0.007 0.01
C2B 0.06 0.059 0.056 -0.02 -0.004 0.006
C3B 0.055 0.048 0.032 0.0059 -0.003 -0.019
C4B 0.047 0.06 0.054 0.006 -0.016 -0.001
C5B 0.056 0.042 0.049 -0.001 -0.01 0.005
C6B 0.043 0.056 0.055 -0.008 -0.007 0.003
C7B 0.057 0.049 0.053 -0.01 -0.002 -0.003
C8B 0.049 0.051 0.034 0.0055 0.0005 -0.017
C9B 0.047 0.054 0.052 0.005 -0.015 -0.004
C10B 0.055 0.041 0.055 0 -0.015 0.002
C11B 0.073 0.069 0.044 0.005 -0.007 -0.035
C12B 0.062 0.057 0.039 0.004 -0.009 -0.025
Ag1Y 0.0419 0.051 0.0443 0.0011 0 0
Ag1CA 0.0419 0.051 0.0443 0.0011 0 0
N2S 0.0408 0.048 0.0407 0.0025 0.0039 -0.0049
N2U 0.0408 0.048 0.0407 0.0025 -0.0039 0.0049
F1 0.107(7) 0.135(8) 0.149(9) 0.081(7) 0.013(7) -0.029(7)
F2 0.158(14) 0.149(13) 0.190(17) 0.033(12) 0.038(11) 0.049(12)
F3 0.117(8) 0.178(11) 0.163(10) 0.080(8) -0.047(8) -0.021(8)
O1 0.166(19) 0.152(18) 0.162(16) 0.015(14) -0.009(15) 0.020(15)
O2 0.111(9) 0.136(11) 0.143(11) 0.057(9) -0.002(8) -0.020(8)
O3 0.111(9) 0.151(13) 0.161(13) 0.049(11) -0.027(9) -0.023(9)
S1 0.0492(18) 0.072(2) 0.100(3) 0.012(2) -0.0040(18) -0.0014(15)
C13 0.111(18) 0.108(18) 0.15(2) 0.063(17) -0.008(16) 0.003(13)
F1M 0.107 0.135 0.149 -0.081 -0.013 -0.029
F2M 0.158 0.149 0.19 -0.033 -0.038 0.049
F3M 0.117 0.178 0.163 -0.08 0.047 -0.021
O1M 0.166 0.152 0.162 -0.015 0.009 0.02
O2M 0.111 0.136 0.143 -0.057 0.002 -0.02
O3M 0.111 0.151 0.161 -0.049 0.027 -0.023
S1M 0.0492 0.072 0.1 -0.012 0.004 -0.0014
C13M 0.111 0.108 0.15 -0.063 0.008 0.003
O4 0.117(7) 0.152(9) 0.200(11) -0.026(7) 0.000 0.000
loop_
_geom_bond_atom_site_label_1
_geom_bond_atom_site_label_2
_geom_bond_site_symmetry_1
_geom_bond_site_symmetry_2
Ag1 N1 1_555 1_555
N1 C1 1_555 1_555
N2 C6 1_555 1_555
C1 H1 1_555 1_555
C2 C1 1_555 1_555
H2 C2 1_555 1_555
C3 C2 1_555 1_555
C4 C3 1_555 1_555
H3 C4 1_555 1_555
C5 N1 1_555 1_555
H4 C5 1_555 1_555
C6 H5 1_555 1_555
C7 C6 1_555 1_555
H6 C7 1_555 1_555
C8 C7 1_555 1_555
C9 C8 1_555 1_555
H7 C9 1_555 1_555
C10 N2 1_555 1_555
H8 C10 1_555 1_555
C11 C3 1_555 1_555
H9 C11 1_555 1_555
H10 C11 1_555 1_555
C12 C8 1_555 1_555
H11 C12 1_555 1_555
H12 C12 1_555 1_555
F1 C13 1_555 1_555
F2 C13 1_555 1_555
F3 C13 1_555 1_555
O1 S1 1_555 1_555
O2 S1 1_555 1_555
O3 S1 1_555 1_555
S1 C13 1_555 1_555
O4 H13 1_555 1_555
N1B Ag1 1_555 1_555
N2B C6B 1_555 1_555
C1B N1B 1_555 1_555
H1B C1B 1_555 1_555
C2B C1B 1_555 1_555
H2B C2B 1_555 1_555
C3B C2B 1_555 1_555
C4B C3B 1_555 1_555
H3B C4B 1_555 1_555
C5B N1B 1_555 1_555
H4B C5B 1_555 1_555
C6B H5B 1_555 1_555
C7B C6B 1_555 1_555
H6B C7B 1_555 1_555
C8B C7B 1_555 1_555
C9B C8B 1_555 1_555
H7B C9B 1_555 1_555
C10B N2B 1_555 1_555
H8B C10B 1_555 1_555
C11B C3B 1_555 1_555
H9B C11B 1_555 1_555
H10B C11B 1_555 1_555
C12B C8B 1_555 1_555
H11B C12B 1_555 1_555
H12B C12B 1_555 1_555
Ag1Y N2 1_555 1_555
Ag1CA N2B 1_555 1_555
N2S Ag1 1_555 1_555
N2U Ag1 1_555 1_555
F1M C13M 1_555 1_555
F2M C13M 1_555 1_555
F3M C13M 1_555 1_555
O1M S1M 1_555 1_555
O2M S1M 1_555 1_555
O3M S1M 1_555 1_555
S1M C13M 1_555 1_555
H13F O4 1_555 1_555
C4 C5 1_555 1_555
C9 C10 1_555 1_555
C11 C12 1_555 1_555
C4B C5B 1_555 1_555
C9B C10B 1_555 1_555
C11B C12B 1_555 1_555

#END
