
#######################################################################
#
#                 Cambridge Crystallographic Data Centre
#                                CCDC 
#
#######################################################################
#
# If this CIF has been generated from an entry in the Cambridge 
# Structural Database, then it will include bibliographic, chemical, 
# crystal, experimental, refinement or atomic coordinate data resulting 
# from the CCDC's data processing and validation procedures.
#
#######################################################################

data_TAKMOK
_chemical_formula_moiety         'C44 H28 Dy9 N8 Ni5 O38'
_symmetry_cell_setting           orthorhombic
_symmetry_space_group_name_H-M   'I b a m'
_symmetry_Int_Tables_number      72
_space_group_name_Hall           '-I 2 2c'
loop_
_symmetry_equiv_pos_site_id
_symmetry_equiv_pos_as_xyz
1 x,y,z
2 -x,-y,z
3 x,-y,1/2-z
4 -x,y,1/2-z
5 1/2+x,1/2+y,1/2+z
6 1/2-x,1/2-y,1/2+z
7 1/2+x,1/2-y,-z
8 1/2-x,1/2+y,-z
9 -x,-y,-z
10 x,y,-z
11 -x,y,1/2+z
12 x,-y,1/2+z
13 1/2-x,1/2-y,1/2-z
14 1/2+x,1/2+y,1/2-z
15 1/2-x,1/2+y,z
16 1/2+x,1/2-y,z
_cell_length_a                   13.3451(4)
_cell_length_b                   23.7349(7)
_cell_length_c                   13.1709(4)
_cell_angle_alpha                90
_cell_angle_beta                 90
_cell_angle_gamma                90
_cell_volume                     4171.81
loop_
_atom_site_label
_atom_site_type_symbol
_atom_site_fract_x
_atom_site_fract_y
_atom_site_fract_z
Dy1 Dy 0.554040(15) 0.655252(8) 0.5000
Ni1 Ni 0.5000 0.5000 0.5000
O1 O 0.56380(16) 0.56556(10) 0.3985(2)
O2 O 0.6958(3) 0.61877(17) 0.4089(3)
O3 O 0.3967(2) 0.62594(13) 0.5000
O4 O 0.1427(3) 0.76174(13) 0.5000
O5 O -0.0185(2) 0.74231(13) 0.5000
O6 O 0.5136(3) 0.68395(11) 0.3324(2)
N1 N 0.9748(3) 0.5223(2) 0.2277(4)
C1 C 0.3390(4) 0.5839(2) 0.5000
C2 C 0.2299(4) 0.59630(19) 0.5000
C3 C 0.1613(4) 0.5533(2) 0.5000
H1 H 0.1840 0.5140 0.5000
C4 C 0.1989(4) 0.65250(19) 0.5000
H2 H 0.2467 0.6810 0.5000
C5 C 0.0727(3) 0.7261(2) 0.5000
C6 C 0.0981(4) 0.6665(2) 0.5000
C7 C 0.0260(3) 0.62115(18) 0.5000
H3 H -0.0459 0.6297 0.5000
C8 C 0.6524(2) 0.57782(16) 0.3719(3)
C9 C 0.4796(6) 0.6657(2) 0.2593(6)
H4 H 0.4418 0.6331 0.2676
C10 C 0.7060(7) 0.5492(4) 0.2859(7)
C11 C 0.6613(3) 0.5000 0.2500
H5 H 0.5916 0.5000 0.2500
C12 C 0.8146(5) 0.5520(3) 0.2834(6)
C13 C 0.8680(4) 0.5136(2) 0.2328(5)
N2 N -0.0152(3) 0.52459(18) 0.5000
C14 C 0.0590(4) 0.5663(2) 0.4784(4)
O7 O 0.3660(2) 0.53400(12) 0.4818(3)
O1A O 1.43620(16) 0.43444(10) 0.3985(2)
O2A O 1.3042(3) 0.38123(17) 0.4089(3)
N1A N 1.0252(3) 0.4777(2) 0.2277(4)
C8A C 1.3476(2) 0.42218(16) 0.3719(3)
C10A C 1.2940(7) 0.4508(4) 0.2859(7)
C11A C 1.3387(3) 0.5000 0.2500
H5A H 1.4084 0.5000 0.2500
C12A C 1.1854(5) 0.4480(3) 0.2834(6)
C13A C 1.1320(4) 0.4864(2) 0.2328(5)
O1B O 0.56380(16) 0.43444(10) 0.1015(2)
O2B O 0.6958(3) 0.38123(17) 0.0911(3)
N1B N 0.9748(3) 0.4777(2) 0.2723(4)
C8B C 0.6524(2) 0.42218(16) 0.1281(3)
C10B C 0.7060(7) 0.4508(4) 0.2141(7)
C12B C 0.8146(5) 0.4480(3) 0.2166(6)
C13B C 0.8680(4) 0.4864(2) 0.2672(5)
O1C O 1.43620(16) 0.56556(10) 0.1015(2)
O2C O 1.3042(3) 0.61877(17) 0.0911(3)
N1C N 1.0252(3) 0.5223(2) 0.2723(4)
C8C C 1.3476(2) 0.57782(16) 0.1281(3)
C10C C 1.2940(7) 0.5492(4) 0.2141(7)
C12C C 1.1854(5) 0.5520(3) 0.2166(6)
C13C C 1.1320(4) 0.5136(2) 0.2672(5)
O3A O -0.3967(2) 0.37406(13) 0.5000
O4A O -0.1427(3) 0.23826(13) 0.5000
O5A O 0.0185(2) 0.25769(13) 0.5000
C1A C -0.3390(4) 0.4161(2) 0.5000
C2A C -0.2299(4) 0.40370(19) 0.5000
C3A C -0.1613(4) 0.4467(2) 0.5000
H1A H -0.1840 0.4860 0.5000
C4A C -0.1989(4) 0.34750(19) 0.5000
H2A H -0.2467 0.3190 0.5000
C5A C -0.0727(3) 0.2739(2) 0.5000
C6A C -0.0981(4) 0.3335(2) 0.5000
C7A C -0.0260(3) 0.37885(18) 0.5000
H3A H 0.0459 0.3703 0.5000
N2A N 0.0152(3) 0.47541(18) 0.5000
C14A C -0.0590(4) 0.4337(2) 0.4784(4)
O7A O -0.3660(2) 0.46600(12) 0.4818(3)
C14H C -0.0590(4) 0.4337(2) 0.5216(4)
O7H O -0.3660(2) 0.46600(12) 0.5182(3)
C14I C 0.0590(4) 0.5663(2) 0.5216(4)
O7I O 0.3660(2) 0.53400(12) 0.5182(3)
O6C O 0.4864(3) 0.68395(11) 0.1676(2)
C9C C 0.5204(6) 0.6657(2) 0.2407(6)
H4C H 0.5582 0.6331 0.2324
Dy1A Dy -0.554040(15) 0.344748(8) 0.5000
O6I O 0.5136(3) 0.68395(11) 0.6676(2)
C9I C 0.4796(6) 0.6657(2) 0.7407(6)
H4I H 0.4418 0.6331 0.7324
O6J O 0.4864(3) 0.68395(11) 0.8324(2)
C9J C 0.5204(6) 0.6657(2) 0.7593(6)
H4J H 0.5582 0.6331 0.7676
Dy1A_2 Dy 1.445960(15) 0.344748(8) 0.5000
Dy1B Dy 0.554040(15) 0.344748(8) 0.0000
Dy1C Dy 0.445960(15) 0.655252(8) 0.0000
Dy1C_2 Dy 0.445960(15) 0.655252(8) 1.0000
Dy1C_3 Dy 1.445960(15) 0.655252(8) 0.0000
Dy1F Dy 0.054040(15) 0.844748(8) 0.5000
Dy1G Dy -0.054040(15) 0.155252(8) 0.5000
Ni1_2 Ni -0.5000 0.5000 0.5000
Ni1_3 Ni 1.5000 0.5000 0.5000
Ni1B Ni 0.5000 0.5000 0.0000
Ni1B_2 Ni 1.5000 0.5000 0.0000
O1A_2 O -0.56380(16) 0.43444(10) 0.3985(2)
O1A_3 O 0.43620(16) 0.43444(10) 0.3985(2)
O1H O -0.56380(16) 0.43444(10) 0.6015(2)
O1H_2 O 0.43620(16) 0.43444(10) 0.6015(2)
O1I O 0.56380(16) 0.56556(10) 0.6015(2)
O2A_2 O -0.6958(3) 0.38123(17) 0.4089(3)
O2H O -0.6958(3) 0.38123(17) 0.5911(3)
O2I O 0.6958(3) 0.61877(17) 0.5911(3)
O4F O 0.6427(3) 0.73826(13) 0.5000
O4G O -0.6427(3) 0.26174(13) 0.5000
O5F O 0.4815(2) 0.75769(13) 0.5000
O5G O -0.4815(2) 0.24231(13) 0.5000
O6A O -0.5136(3) 0.31605(11) 0.3324(2)
O6H O -0.5136(3) 0.31605(11) 0.6676(2)
O7A_2 O 0.6340(2) 0.46600(12) 0.4818(3)
O7H_2 O 0.6340(2) 0.46600(12) 0.5182(3)
N3 N 0.3361(6) 0.7706(3) 0.3383(7)
H6 H 0.3012 0.7878 0.3878
H7 H 0.3822 0.7483 0.3677
C15 C 0.2670(7) 0.7355(5) 0.2766(10)
H8 H 0.2944 0.7305 0.2098
H9 H 0.2030 0.7538 0.2718
H10 H 0.2589 0.6994 0.3084
C16 C 0.3863(8) 0.8128(4) 0.2768(10)
H11 H 0.3815 0.8026 0.2064
H12 H 0.4556 0.8149 0.2960
H13 H 0.3551 0.8488 0.2872
N3L N 0.1639(6) 0.7294(3) 0.1617(7)
H6L H 0.1988 0.7122 0.1122
H7L H 0.1178 0.7517 0.1323
C15L C 0.2330(7) 0.7645(5) 0.2234(10)
H8L H 0.2056 0.7695 0.2902
H9L H 0.2970 0.7462 0.2282
H10L H 0.2411 0.8006 0.1916
C16L C 0.1137(8) 0.6872(4) 0.2232(10)
H11L H 0.1185 0.6974 0.2936
H12L H 0.0444 0.6851 0.2040
H13L H 0.1449 0.6512 0.2128
loop_
_geom_bond_atom_site_label_1
_geom_bond_atom_site_label_2
_geom_bond_site_symmetry_1
_geom_bond_site_symmetry_2
Dy1 O1 1_555 1_555
Ni1 O1 1_555 1_555
O1 C8 1_555 1_555
O2 Dy1 1_555 1_555
O3 Dy1 1_555 1_555
O4 C5 1_555 1_555
O5 C5 1_555 1_555
O6 Dy1 1_555 1_555
N1 C13 1_555 1_555
C1 O3 1_555 1_555
C2 C1 1_555 1_555
C3 C2 1_555 1_555
H1 C3 1_555 1_555
C4 C2 1_555 1_555
H2 C4 1_555 1_555
C5 C6 1_555 1_555
C6 C4 1_555 1_555
C7 C6 1_555 1_555
H3 C7 1_555 1_555
C8 O2 1_555 1_555
C9 O6 1_555 1_555
H4 C9 1_555 1_555
C10 C8 1_555 1_555
C11 C10 1_555 1_555
H5 C11 1_555 1_555
C12 C10 1_555 1_555
C13 C12 1_555 1_555
N2 C14 1_555 1_555
C14 C3 1_555 1_555
O7 Ni1 1_555 1_555
N3 H6 1_555 1_555
H7 N3 1_555 1_555
C15 N3 1_555 1_555
H8 C15 1_555 1_555
H9 C15 1_555 1_555
H10 C15 1_555 1_555
C16 N3 1_555 1_555
H11 C16 1_555 1_555
H12 C16 1_555 1_555
H13 C16 1_555 1_555
O1A C8A 1_555 1_555
O2A C8A 1_555 1_555
N1A N1 1_555 1_555
C8A C10A 1_555 1_555
C10A C11A 1_555 1_555
C11A H5A 1_555 1_555
C12A C10A 1_555 1_555
C13A N1A 1_555 1_555
O1B C8B 1_555 1_555
O2B C8B 1_555 1_555
N1B N1 1_555 1_555
C8B C10B 1_555 1_555
C10B C11 1_555 1_555
C12B C13 1_555 1_555
C13B N1 1_555 1_555
O1C C8C 1_555 1_555
O2C C8C 1_555 1_555
N1C N1 1_555 1_555
C8C C10C 1_555 1_555
C10C C11A 1_555 1_555
C12C C13A 1_555 1_555
C13C N1A 1_555 1_555
O3A C1A 1_555 1_555
O4A C5A 1_555 1_555
O5A C5A 1_555 1_555
C1A C2A 1_555 1_555
C2A C3A 1_555 1_555
C3A H1A 1_555 1_555
C4A C2A 1_555 1_555
H2A C4A 1_555 1_555
C5A C6A 1_555 1_555
C6A C4A 1_555 1_555
C7A C6A 1_555 1_555
H3A C7A 1_555 1_555
N2A N2 1_555 1_555
C14A C3A 1_555 1_555
O7A C1A 1_555 1_555
C14H C3A 1_555 1_555
O7H C1A 1_555 1_555
C14I C3 1_555 1_555
O7I Ni1 1_555 1_555
O6C C9 1_555 1_555
C9C O6 1_555 1_555
H4C C9 1_555 1_555
Dy1A O3A 1_555 1_555
O6I Dy1 1_555 1_555
C9I O6I 1_555 1_555
H4I C9I 1_555 1_555
O6J C9I 1_555 1_555
C9J O6I 1_555 1_555
H4J C9I 1_555 1_555
Dy1A_2 O1A 1_555 1_555
Dy1B O1B 1_555 1_555
Dy1C O6C 1_555 1_555
Dy1C_2 O6J 1_555 1_555
Dy1C_3 O1C 1_555 1_555
Dy1F O4 1_555 1_555
Dy1G O4A 1_555 1_555
Ni1_2 O7A 1_555 1_555
Ni1_3 O1A 1_555 1_555
Ni1B O1B 1_555 1_555
Ni1B_2 O1C 1_555 1_555
O1A_2 Dy1A 1_555 1_555
O1A_3 Ni1 1_555 1_555
O1H Dy1A 1_555 1_555
O1H_2 Ni1 1_555 1_555
O1I Dy1 1_555 1_555
O2A_2 Dy1A 1_555 1_555
O2H Dy1A 1_555 1_555
O2I Dy1 1_555 1_555
O4F Dy1 1_555 1_555
O4G Dy1A 1_555 1_555
O5F Dy1 1_555 1_555
O5G Dy1A 1_555 1_555
O6A Dy1A 1_555 1_555
O6H Dy1A 1_555 1_555
O7A_2 Ni1 1_555 1_555
O7H_2 Ni1 1_555 1_555
N3L H6L 1_555 1_555
H7L N3L 1_555 1_555
C15L C15 1_555 1_555
H8L C15 1_555 1_555
H9L C15 1_555 1_555
H10L C15L 1_555 1_555
C16L N3L 1_555 1_555
H11L C16L 1_555 1_555
H12L C16L 1_555 1_555
H13L C16L 1_555 1_555
Ni1 O1I 1_555 1_555
O5 Dy1F 1_555 1_555
C1 O7 1_555 1_555
C1 O7I 1_555 1_555
C7 C14 1_555 1_555
C7 C14I 1_555 1_555
C9 C9C 1_555 1_555
H4 C9C 1_555 1_555
C12 C13B 1_555 1_555
C13 N1B 1_555 1_555
C13 C13B 1_555 1_555
N2 C14I 1_555 1_555
C14 C14I 1_555 1_555
H8 C15L 1_555 1_555
H9 C15L 1_555 1_555
H9 H9L 1_555 1_555
O2A Dy1A_2 1_555 1_555
N1A N1B 1_555 1_555
N1A N1C 1_555 1_555
C12A C13A 1_555 1_555
C12A C13C 1_555 1_555
C13A N1C 1_555 1_555
C13A C13C 1_555 1_555
O2B Dy1B 1_555 1_555
N1B C13B 1_555 1_555
N1B N1C 1_555 1_555
C10B C12B 1_555 1_555
C12B C13B 1_555 1_555
O2C Dy1C_3 1_555 1_555
N1C C13C 1_555 1_555
C10C C12C 1_555 1_555
C12C C13C 1_555 1_555
O5A Dy1G 1_555 1_555
C7A C14A 1_555 1_555
C7A C14H 1_555 1_555
N2A C14A 1_555 1_555
N2A C14H 1_555 1_555
C14A C14H 1_555 1_555
O7H Ni1_2 1_555 1_555
O6C C9C 1_555 1_555
C9C H4C 1_555 1_555
C9I C9J 1_555 1_555
H4I C9J 1_555 1_555
O6J C9J 1_555 1_555
C9J H4J 1_555 1_555
Ni1_2 O1A_2 1_555 1_555
Ni1_2 O1H 1_555 1_555
N3L C15L 1_555 1_555
C15L H8L 1_555 1_555
C15L H9L 1_555 1_555

#END
