
#######################################################################
#
#                 Cambridge Crystallographic Data Centre
#                                CCDC 
#
#######################################################################
#
# If this CIF has been generated from an entry in the Cambridge 
# Structural Database, then it will include bibliographic, chemical, 
# crystal, experimental, refinement or atomic coordinate data resulting 
# from the CCDC's data processing and validation procedures.
#
#######################################################################

data_FUYCEJ
_chemical_formula_moiety         '(C38 H20 N1 O12 Ti2 3-)n'
_symmetry_cell_setting           cubic
_symmetry_space_group_name_H-M   'P 21 3'
_symmetry_Int_Tables_number      198
_space_group_name_Hall           'P 2ac 2ab 3'
loop_
_symmetry_equiv_pos_site_id
_symmetry_equiv_pos_as_xyz
1 x,y,z
2 1/2-x,-y,1/2+z
3 -x,1/2+y,1/2-z
4 1/2+x,1/2-y,-z
5 z,x,y
6 1/2+z,1/2-x,-y
7 1/2-z,-x,1/2+y
8 -z,1/2+x,1/2-y
9 y,z,x
10 -y,1/2+z,1/2-x
11 1/2+y,1/2-z,-x
12 1/2-y,-z,1/2+x
_cell_length_a                   17.9960
_cell_length_b                   17.9960
_cell_length_c                   17.9960
_cell_angle_alpha                90
_cell_angle_beta                 90
_cell_angle_gamma                90
_cell_volume                     5828.11
loop_
_atom_site_label
_atom_site_type_symbol
_atom_site_fract_x
_atom_site_fract_y
_atom_site_fract_z
C1 C 0.24919 0.55749 0.94459
C2 C 0.18915 0.59228 0.90749
C3 C 0.28168 0.58996 1.00771
C4 C 0.19539 0.69272 0.99869
C5 C 0.15818 0.65812 0.93860
C6 C 0.25845 0.66006 1.03109
O1 O 0.29891 0.69599 1.08687
O2 O 0.33737 0.55382 1.04811
H1 H 0.27186 0.50229 0.92332
H2 H 0.17424 0.74792 1.02147
Ti1 Ti 0.37525 0.62475 1.12475
C1G C 0.05541 0.74919 0.94251
C2G C 0.09251 0.68915 0.90772
C3G C -0.00771 0.78168 0.91004
C4G C 0.00131 0.69539 0.80728
C5G C 0.06140 0.65818 0.84188
C6G C -0.03109 0.75845 0.83994
O1G O -0.08687 0.79891 0.80401
O2G O -0.04811 0.83737 0.94618
H1G H 0.07668 0.77186 0.99771
H2G H -0.02147 0.67424 0.75208
C1J C 0.05749 0.55541 0.75081
C2J C 0.09228 0.59251 0.81085
C3J C 0.08996 0.49229 0.71832
C4J C 0.19272 0.50131 0.80461
C5J C 0.15812 0.56140 0.84182
C6J C 0.16006 0.46891 0.74155
O1J O 0.19599 0.41313 0.70109
O2J O 0.05382 0.45189 0.66263
H1J H 0.00229 0.57668 0.72814
H2J H 0.24792 0.47853 0.82576
O1F O 0.41313 0.70109 1.19599
O1I O 0.30401 0.58687 1.20109
O2F O 0.45189 0.66263 1.05382
O2I O 0.44618 0.54811 1.16263
Ti1A Ti 0.12475 0.37525 0.62475
Ti1C Ti -0.12475 0.87525 0.87525
C7 C 0.75084 0.44253 0.05537
C8 C 0.81088 0.40775 0.09247
C9 C 0.71835 0.41005 -0.00775
C10 C 0.80465 0.30729 0.00129
C11 C 0.84185 0.34191 0.06136
C12 C 0.74158 0.33994 -0.03111
O3 O 0.70112 0.30401 -0.08689
O4 O 0.66265 0.44618 -0.04814
H3 H 0.72816 0.49773 0.07664
H4 H 0.82581 0.25210 -0.02149
Ti2 Ti 0.62477 0.37523 -0.12477
C7G C 0.94463 0.25084 0.05747
C8G C 0.90753 0.31088 0.09225
C9G C 1.00775 0.21835 0.08995
C10G C 0.99871 0.30465 0.19271
C11G C 0.93864 0.34185 0.15809
C12G C 1.03111 0.24158 0.16006
O3G O 1.08689 0.20112 0.19599
O4G O 1.04814 0.16265 0.05382
H3G H 0.92336 0.22816 0.00227
H4G H 1.02149 0.32581 0.24790
C7J C 0.94253 0.44463 0.24916
C8J C 0.90775 0.40753 0.18912
C9J C 0.91005 0.50775 0.28165
C10J C 0.80729 0.49871 0.19535
C11J C 0.84191 0.43864 0.15815
C12J C 0.83994 0.53111 0.25842
O3J O 0.80401 0.58689 0.29888
O4J O 0.94618 0.54814 0.33735
H3J H 0.99773 0.42336 0.27184
H4J H 0.75210 0.52149 0.17419
O3F O 0.58689 0.29888 -0.19599
O3I O 0.69599 0.41311 -0.20112
O4F O 0.54814 0.33735 -0.05382
O4I O 0.55382 0.45186 -0.16265
Ti2A Ti 0.87523 0.62477 0.37523
Ti2C Ti 1.12477 0.12477 0.12477
N1 N 0.60233 0.34325 0.53237
C13 C 0.53587 0.39447 0.53203
C14 C 0.62816 0.35938 0.45418
H5 H 0.64127 0.36039 0.57702
H6 H 0.55560 0.45467 0.53184
H7 H 0.50081 0.38391 0.58373
H8 H 0.50102 0.38351 0.48028
H9 H 0.68004 0.32527 0.44162
H10 H 0.64159 0.42104 0.44867
H11 H 0.58235 0.34400 0.41321
loop_
_geom_bond_atom_site_label_1
_geom_bond_atom_site_label_2
_geom_bond_site_symmetry_1
_geom_bond_site_symmetry_2
C1 C2 1_555 1_555
C2 C5 1_555 1_555
C3 C1 1_555 1_555
C4 C5 1_555 1_555
C5 C2G 1_555 1_555
C6 C3 1_555 1_555
O1 C6 1_555 1_555
O2 C3 1_555 1_555
H1 C1 1_555 1_555
H2 C4 1_555 1_555
Ti1 O1 1_555 1_555
C7 C8 1_555 1_555
C8 C11 1_555 1_555
C9 C7 1_555 1_555
C10 C11 1_555 1_555
C11 C8G 1_555 1_555
C12 C9 1_555 1_555
O3 C12 1_555 1_555
O4 C9 1_555 1_555
H3 C7 1_555 1_555
H4 C10 1_555 1_555
Ti2 O3 1_555 1_555
N1 C13 1_555 1_555
C13 H6 1_555 1_555
C14 N1 1_555 1_555
H5 N1 1_555 1_555
H7 C13 1_555 1_555
H8 C13 1_555 1_555
H9 C14 1_555 1_555
H10 C14 1_555 1_555
H11 C14 1_555 1_555
C1G C2G 1_555 1_555
C2G C5G 1_555 1_555
C3G C1G 1_555 1_555
C4G C5G 1_555 1_555
C5G C2J 1_555 1_555
C6G C3G 1_555 1_555
O1G C6G 1_555 1_555
O2G C3G 1_555 1_555
H1G C1G 1_555 1_555
H2G C4G 1_555 1_555
C1J C2J 1_555 1_555
C2J C5J 1_555 1_555
C3J C1J 1_555 1_555
C4J C5J 1_555 1_555
C5J C2 1_555 1_555
C6J C3J 1_555 1_555
O1J C6J 1_555 1_555
O2J C3J 1_555 1_555
H1J C1J 1_555 1_555
H2J C4J 1_555 1_555
O1F Ti1 1_555 1_555
O1I Ti1 1_555 1_555
O2F Ti1 1_555 1_555
O2I Ti1 1_555 1_555
Ti1A O1J 1_555 1_555
Ti1C O1G 1_555 1_555
C7G C8G 1_555 1_555
C8G C11G 1_555 1_555
C9G C7G 1_555 1_555
C10G C11G 1_555 1_555
C11G C8J 1_555 1_555
C12G C9G 1_555 1_555
O3G C12G 1_555 1_555
O4G C9G 1_555 1_555
H3G C7G 1_555 1_555
H4G C10G 1_555 1_555
C7J C8J 1_555 1_555
C8J C11J 1_555 1_555
C9J C7J 1_555 1_555
C10J C11J 1_555 1_555
C11J C8 1_555 1_555
C12J C9J 1_555 1_555
O3J C12J 1_555 1_555
O4J C9J 1_555 1_555
H3J C7J 1_555 1_555
H4J C10J 1_555 1_555
O3F Ti2 1_555 1_555
O3I Ti2 1_555 1_555
O4F Ti2 1_555 1_555
O4I Ti2 1_555 1_555
Ti2A O3J 1_555 1_555
Ti2C O3G 1_555 1_555
C4 C6 1_555 1_555
O2 Ti1 1_555 1_555
C10 C12 1_555 1_555
O4 Ti2 1_555 1_555
C4G C6G 1_555 1_555
O2G Ti1C 1_555 1_555
C4J C6J 1_555 1_555
O2J Ti1A 1_555 1_555
C10G C12G 1_555 1_555
O4G Ti2C 1_555 1_555
C10J C12J 1_555 1_555
O4J Ti2A 1_555 1_555

#END
