
#######################################################################
#
#                 Cambridge Crystallographic Data Centre
#                                CCDC 
#
#######################################################################
#
# If this CIF has been generated from an entry in the Cambridge 
# Structural Database, then it will include bibliographic, chemical, 
# crystal, experimental, refinement or atomic coordinate data resulting 
# from the CCDC's data processing and validation procedures.
#
#######################################################################

data_RONCIG
_chemical_formula_moiety         '(C24 H38 Cu3 Gd2 O37)n'
_symmetry_cell_setting           hexagonal
_symmetry_space_group_name_H-M   'P 6/m c c'
_symmetry_Int_Tables_number      192
_space_group_name_Hall           '-P 6 2c'
loop_
_symmetry_equiv_pos_site_id
_symmetry_equiv_pos_as_xyz
1 x,y,z
2 x-y,x,z
3 -y,-x,1/2-z
4 -y,x-y,z
5 x-y,-y,1/2-z
6 -x,-y,z
7 x,x-y,1/2-z
8 -x+y,-x,z
9 y,x,1/2-z
10 y,-x+y,z
11 -x+y,y,1/2-z
12 -x,-x+y,1/2-z
13 -x,-y,-z
14 -x+y,-x,-z
15 y,x,1/2+z
16 y,-x+y,-z
17 -x+y,y,1/2+z
18 x,y,-z
19 -x,-x+y,1/2+z
20 x-y,x,-z
21 -y,-x,1/2+z
22 -y,x-y,-z
23 x-y,-y,1/2+z
24 x,x-y,1/2+z
_cell_length_a                   15.126(3)
_cell_length_b                   15.126(3)
_cell_length_c                   14.690(8)
_cell_angle_alpha                90
_cell_angle_beta                 90
_cell_angle_gamma                120
_cell_volume                     2910.72
loop_
_atom_site_label
_atom_site_type_symbol
_atom_site_fract_x
_atom_site_fract_y
_atom_site_fract_z
O1 O 0.7629(1) 0.237 0.2500
O2 O 0.6146(2) 0.1930(2) 0.3584(2)
O3 O 0.6064(2) 0.0493(2) 0.4067(2)
O4 O 0.4764(3) 0.1538(3) 0.5000
C1 C 0.7316(3) 0.1463(3) 0.2995(3)
C2 C 0.6434(3) 0.1297(3) 0.3604(3)
Gd1 Gd 0.667 0.333 0.2500
Cu1 Cu 0.5000 -0.0000 0.5000
C1B C 0.8537(3) 0.2684(3) 0.2005(3)
C2B C 0.8703(3) 0.3566(3) 0.1396(3)
O2B O 0.8070(2) 0.3854(2) 0.1416(2)
O3B O 0.9507(2) 0.3936(2) 0.0933(2)
O1E O 0.2371(1) -0.237 0.2500
O2E O 0.3854(2) -0.1930(2) 0.3584(2)
O3E O 0.3936(2) -0.0493(2) 0.4067(2)
C1E C 0.2684(3) -0.1463(3) 0.2995(3)
C2E C 0.3566(3) -0.1297(3) 0.3604(3)
C1H C 0.1463(3) -0.2684(3) 0.2005(3)
C2H C 0.1297(3) -0.3566(3) 0.1396(3)
O2H O 0.1930(2) -0.3854(2) 0.1416(2)
O3H O 0.0493(2) -0.3936(2) 0.0933(2)
O4E O 0.5236(3) -0.1538(3) 0.5000
Gd1E Gd 0.333 -0.333 0.2500
O1C O 0.763 0.5259(1) 0.2500
O1G O 0.4741(1) 0.2371(1) 0.2500
O2C O 0.8070(2) 0.4216(3) 0.3584(2)
O2F O 0.6146(2) 0.4216(3) 0.1416(2)
O2G O 0.5784(3) 0.3854(2) 0.3584(2)
O2J O 0.5784(3) 0.1930(2) 0.1416(2)
O3L O 0.3936(2) -0.0493(2) 0.5933(2)
O3Q O 0.6064(2) 0.0493(2) 0.5933(2)
Cu1B Cu 1.0000 0.5000 0.0000
Cu1B_2 Cu 0.0000 -0.5000 0.0000
O1A O 0.5259(1) -0.2371(1) 0.2500
O1I O 0.237 -0.5259(1) 0.2500
O2A O 0.4216(3) -0.3854(2) 0.3584(2)
O2D O 0.4216(3) -0.1930(2) 0.1416(2)
O2I O 0.1930(2) -0.4216(3) 0.3584(2)
O2K O 0.3854(2) -0.4216(3) 0.1416(2)
C1C C 0.8537(3) 0.5853(4) 0.2995(3)
C1F C 0.7316(3) 0.5853(4) 0.2005(3)
C1G C 0.4147(4) 0.2684(3) 0.2995(3)
C1J C 0.4147(4) 0.1463(3) 0.2005(3)
C2C C 0.8703(3) 0.5137(4) 0.3604(3)
C2F C 0.6434(3) 0.5137(4) 0.1396(3)
C2G C 0.4863(4) 0.3566(3) 0.3604(3)
C2J C 0.4863(4) 0.1297(3) 0.1396(3)
C1A C 0.5853(4) -0.2684(3) 0.2995(3)
C1D C 0.5853(4) -0.1463(3) 0.2005(3)
C1I C 0.1463(3) -0.5853(4) 0.2995(3)
C1K C 0.2684(3) -0.5853(4) 0.2005(3)
C2A C 0.5137(4) -0.3566(3) 0.3604(3)
C2D C 0.5137(4) -0.1297(3) 0.1396(3)
C2I C 0.1297(3) -0.5137(4) 0.3604(3)
C2K C 0.3566(3) -0.5137(4) 0.1396(3)
O3C O 0.9507(2) 0.5571(3) 0.4067(2)
O3F O 0.6064(2) 0.5571(3) 0.0933(2)
O3G O 0.4429(3) 0.3936(2) 0.4067(2)
O3J O 0.4429(3) 0.0493(2) 0.0933(2)
O3A O 0.5571(3) -0.3936(2) 0.4067(2)
O3D O 0.5571(3) -0.0493(2) 0.0933(2)
O3I O 0.0493(2) -0.5571(3) 0.4067(2)
O3K O 0.3936(2) -0.5571(3) 0.0933(2)
Cu1C Cu 1.0000 0.5000 0.5000
Cu1F Cu 0.5000 0.5000 0.0000
Cu1A Cu 0.5000 0.5000 0.5000
Cu1D Cu 0.5000 0.0000 0.0000
Cu1A_2 Cu 0.5000 -0.5000 0.5000
Cu1C_2 Cu -0.0000 -0.5000 0.5000
Cu1F_2 Cu 0.5000 -0.5000 0.0000
O3I_2 O 1.0493(2) 0.4429(3) 0.4067(2)
O3O O 1.0493(2) 0.4429(3) 0.5933(2)
O3U O 0.9507(2) 0.5571(3) 0.5933(2)
O4C O 0.8462(3) 0.3226(4) 0.5000
O4I O 1.1538(3) 0.6774(4) 0.5000
O3P O 0.4429(3) 0.0493(2) -0.0933(2)
O3V O 0.5571(3) -0.0493(2) -0.0933(2)
O4D O 0.3226(4) -0.1538(3) 0.0000
O4J O 0.6774(4) 0.1538(3) 0.0000
O5 O 0.195(2) 0.266(2) 0.5000
loop_
_geom_bond_atom_site_label_1
_geom_bond_atom_site_label_2
_geom_bond_site_symmetry_1
_geom_bond_site_symmetry_2
O1 C1 1_555 1_555
O2 C2 1_555 1_555
O3 C2 1_555 1_555
O4 Cu1 1_555 1_555
C1 C2 1_555 1_555
Gd1 O1 1_555 1_555
Cu1 O3 1_555 1_555
C1B O1 1_555 1_555
C2B C1B 1_555 1_555
O2B Gd1 1_555 1_555
O3B C2B 1_555 1_555
O1E C1E 1_555 1_555
O2E C2E 1_555 1_555
O3E Cu1 1_555 1_555
C1E C2E 1_555 1_555
C2E O3E 1_555 1_555
C1H O1E 1_555 1_555
C2H C1H 1_555 1_555
O2H C2H 1_555 1_555
O3H C2H 1_555 1_555
O4E Cu1 1_555 1_555
Gd1E O1E 1_555 1_555
O1C Gd1 1_555 1_555
O1G Gd1 1_555 1_555
O2C Gd1 1_555 1_555
O2F Gd1 1_555 1_555
O2G Gd1 1_555 1_555
O2J Gd1 1_555 1_555
O3L Cu1 1_555 1_555
O3Q Cu1 1_555 1_555
Cu1B O3B 1_555 1_555
Cu1B_2 O3H 1_555 1_555
O1A Gd1E 1_555 1_555
O1I Gd1E 1_555 1_555
O2A Gd1E 1_555 1_555
O2D Gd1E 1_555 1_555
O2I Gd1E 1_555 1_555
O2K Gd1E 1_555 1_555
C1C O1C 1_555 1_555
C1F O1C 1_555 1_555
C1G O1G 1_555 1_555
C1J O1G 1_555 1_555
C2C O2C 1_555 1_555
C2F O2F 1_555 1_555
C2G O2G 1_555 1_555
C2J O2J 1_555 1_555
C1A O1A 1_555 1_555
C1D O1A 1_555 1_555
C1I O1I 1_555 1_555
C1K O1I 1_555 1_555
C2A O2A 1_555 1_555
C2D O2D 1_555 1_555
C2I O2I 1_555 1_555
C2K O2K 1_555 1_555
O3C C2C 1_555 1_555
O3F C2F 1_555 1_555
O3G C2G 1_555 1_555
O3J C2J 1_555 1_555
O3A C2A 1_555 1_555
O3D C2D 1_555 1_555
O3I C2I 1_555 1_555
O3K C2K 1_555 1_555
Cu1C O3C 1_555 1_555
Cu1F O3F 1_555 1_555
Cu1A O3G 1_555 1_555
Cu1D O3J 1_555 1_555
Cu1A_2 O3A 1_555 1_555
Cu1C_2 O3I 1_555 1_555
Cu1F_2 O3K 1_555 1_555
O3I_2 Cu1C 1_555 1_555
O3O Cu1C 1_555 1_555
O3U Cu1C 1_555 1_555
O4C Cu1C 1_555 1_555
O4I Cu1C 1_555 1_555
O3P Cu1D 1_555 1_555
O3V Cu1D 1_555 1_555
O4D Cu1D 1_555 1_555
O4J Cu1D 1_555 1_555
O2 Gd1 1_555 1_555
C2B O2B 1_555 1_555
O2E Gd1E 1_555 1_555
O2H Gd1E 1_555 1_555
C1C C2C 1_555 1_555
C1F C2F 1_555 1_555
C1G C2G 1_555 1_555
C1J C2J 1_555 1_555
C1A C2A 1_555 1_555
C1D C2D 1_555 1_555
C1I C2I 1_555 1_555
C1K C2K 1_555 1_555
O3D Cu1D 1_555 1_555

#END
