
#######################################################################
#
#                 Cambridge Crystallographic Data Centre
#                                CCDC 
#
#######################################################################
#
# If this CIF has been generated from an entry in the Cambridge 
# Structural Database, then it will include bibliographic, chemical, 
# crystal, experimental, refinement or atomic coordinate data resulting 
# from the CCDC's data processing and validation procedures.
#
#######################################################################

data_ROQDIM02
_chemical_formula_moiety         '(C4 H12 Fe1 N19 Na1 1-)n'
_symmetry_cell_setting           cubic
_symmetry_space_group_name_H-M   'P a -3'
_symmetry_Int_Tables_number      205
_space_group_name_Hall           '-P 2ac 2ab 3'
loop_
_symmetry_equiv_pos_site_id
_symmetry_equiv_pos_as_xyz
1 x,y,z
2 1/2-x,-y,1/2+z
3 -x,1/2+y,1/2-z
4 1/2+x,1/2-y,-z
5 z,x,y
6 1/2+z,1/2-x,-y
7 1/2-z,-x,1/2+y
8 -z,1/2+x,1/2-y
9 y,z,x
10 -y,1/2+z,1/2-x
11 1/2+y,1/2-z,-x
12 1/2-y,-z,1/2+x
13 -x,-y,-z
14 1/2+x,y,1/2-z
15 x,1/2-y,1/2+z
16 1/2-x,1/2+y,z
17 -z,-x,-y
18 1/2-z,1/2+x,y
19 1/2+z,x,1/2-y
20 z,1/2-x,1/2+y
21 -y,-z,-x
22 y,1/2-z,1/2+x
23 1/2-y,1/2+z,x
24 1/2+y,z,1/2-x
_cell_length_a                   12.8550(3)
_cell_length_b                   12.8550(3)
_cell_length_c                   12.8550(3)
_cell_angle_alpha                90
_cell_angle_beta                 90
_cell_angle_gamma                90
_cell_volume                     2124.3
loop_
_atom_site_label
_atom_site_type_symbol
_atom_site_fract_x
_atom_site_fract_y
_atom_site_fract_z
Fe1 Fe 0.5000 0.0000 1.0000
Na1 Na 1.0000 0.0000 1.0000
N1 N 0.64305(7) -0.06083(8) 0.95579(9)
N2 N 0.72559(7) -0.01944(7) 0.96480(8)
N3 N 0.80730(9) 0.01761(9) 0.97136(10)
N1D N 0.95579(9) -0.35695(7) 0.93917(8)
N2D N 0.96480(8) -0.27441(7) 0.98056(7)
N3D N 0.97136(10) -0.19270(9) 1.01761(9)
N1H N 0.93917(8) -0.04421(9) 0.64305(7)
N2H N 0.98056(7) -0.03520(8) 0.72559(7)
N3H N 1.01761(9) -0.02864(10) 0.80730(9)
N1L N 0.35695(7) 0.06083(8) 1.04421(9)
N2L N 0.27441(7) 0.01944(7) 1.03520(8)
N3L N 0.19270(9) -0.01761(9) 1.02864(10)
N1Q N 0.54421(9) 0.14305(7) 0.93917(8)
N2Q N 0.53520(8) 0.22559(7) 0.98056(7)
N3Q N 0.52864(10) 0.30730(9) 1.01761(9)
N1W N 0.43917(8) -0.04421(9) 0.85695(7)
N2W N 0.48056(7) -0.03520(8) 0.77441(7)
N3W N 0.51761(9) -0.02864(10) 0.69270(9)
Fe1A Fe 1.0000 0.0000 0.5000
Fe1C Fe 1.0000 -0.5000 1.0000
Na1_2 Na 0.0000 0.0000 1.0000
Na1A Na 0.5000 0.0000 0.5000
Na1C Na 0.5000 0.5000 1.0000
N1E N 0.45579(9) -0.14305(7) 1.06083(8)
N1K N 0.56083(8) 0.04421(9) 1.14305(7)
N3L_2 N 1.19270(9) -0.01761(9) 1.02864(10)
N3P N 1.02864(10) 0.19270(9) 0.98239(9)
N3T N 0.98239(9) 0.02864(10) 1.19270(9)
N4 N 0.27321(8) 0.22679(8) 0.77321(8)
C1 C 0.20605(10) 0.29395(10) 0.70605(10)
H1 H 0.1965 0.2608 0.6389
C2 C 0.28710(11) 0.27838(11) 0.87636(10)
H2 H 0.3306 0.2353 0.9204
H3 H 0.2197 0.2878 0.9090
H4 H 0.3200 0.3456 0.8666
H1K H 0.2392 0.3611 0.6965
H1E H 0.1389 0.3035 0.7392
C2E C 0.37636(10) 0.21290(11) 0.72162(11)
H2E H 0.4204 0.1694 0.7647
H3E H 0.4090 0.2803 0.7122
H4E H 0.3666 0.1800 0.6544
C2K C 0.22162(11) 0.12364(10) 0.78710(11)
H2K H 0.2647 0.0796 0.8306
H3K H 0.2122 0.0910 0.7197
H4K H 0.1544 0.1334 0.8200
loop_
_geom_bond_atom_site_label_1
_geom_bond_atom_site_label_2
_geom_bond_site_symmetry_1
_geom_bond_site_symmetry_2
Fe1 N1 1_555 1_555
Na1 N3 1_555 1_555
N1 N2 1_555 1_555
N2 N3 1_555 1_555
N4 C1 1_555 1_555
C1 H1 1_555 1_555
C2 N4 1_555 1_555
H2 C2 1_555 1_555
H3 C2 1_555 1_555
H4 C2 1_555 1_555
N1D N2D 1_555 1_555
N2D N3D 1_555 1_555
N3D Na1 1_555 1_555
N1H N2H 1_555 1_555
N2H N3H 1_555 1_555
N3H Na1 1_555 1_555
N1L Fe1 1_555 1_555
N2L N1L 1_555 1_555
N3L N2L 1_555 1_555
N1Q Fe1 1_555 1_555
N2Q N1Q 1_555 1_555
N3Q N2Q 1_555 1_555
N1W Fe1 1_555 1_555
N2W N1W 1_555 1_555
N3W N2W 1_555 1_555
Fe1A N1H 1_555 1_555
Fe1C N1D 1_555 1_555
Na1_2 N3L 1_555 1_555
Na1A N3W 1_555 1_555
Na1C N3Q 1_555 1_555
N1E Fe1 1_555 1_555
N1K Fe1 1_555 1_555
N3L_2 Na1 1_555 1_555
N3P Na1 1_555 1_555
N3T Na1 1_555 1_555
H1K C1 1_555 1_555
H1E C1 1_555 1_555
C2E N4 1_555 1_555
H2E C2E 1_555 1_555
H3E C2E 1_555 1_555
H4E C2E 1_555 1_555
C2K N4 1_555 1_555
H2K C2K 1_555 1_555
H3K C2K 1_555 1_555
H4K C2K 1_555 1_555

#END
