
#######################################################################
#
#                 Cambridge Crystallographic Data Centre
#                                CCDC 
#
#######################################################################
#
# If this CIF has been generated from an entry in the Cambridge 
# Structural Database, then it will include bibliographic, chemical, 
# crystal, experimental, refinement or atomic coordinate data resulting 
# from the CCDC's data processing and validation procedures.
#
#######################################################################

data_ROQDIM01
_chemical_formula_moiety         '(C4 H12 Fe1 N19 Na1 1-)n'
_symmetry_cell_setting           cubic
_symmetry_space_group_name_H-M   'P a -3'
_symmetry_Int_Tables_number      205
_space_group_name_Hall           '-P 2ac 2ab 3'
loop_
_symmetry_equiv_pos_site_id
_symmetry_equiv_pos_as_xyz
1 x,y,z
2 1/2-x,-y,1/2+z
3 -x,1/2+y,1/2-z
4 1/2+x,1/2-y,-z
5 z,x,y
6 1/2+z,1/2-x,-y
7 1/2-z,-x,1/2+y
8 -z,1/2+x,1/2-y
9 y,z,x
10 -y,1/2+z,1/2-x
11 1/2+y,1/2-z,-x
12 1/2-y,-z,1/2+x
13 -x,-y,-z
14 1/2+x,y,1/2-z
15 x,1/2-y,1/2+z
16 1/2-x,1/2+y,z
17 -z,-x,-y
18 1/2-z,1/2+x,y
19 1/2+z,x,1/2-y
20 z,1/2-x,1/2+y
21 -y,-z,-x
22 y,1/2-z,1/2+x
23 1/2-y,1/2+z,x
24 1/2+y,z,1/2-x
_cell_length_a                   12.8259(2)
_cell_length_b                   12.8259(2)
_cell_length_c                   12.8259(2)
_cell_angle_alpha                90
_cell_angle_beta                 90
_cell_angle_gamma                90
_cell_volume                     2109.91
loop_
_atom_site_label
_atom_site_type_symbol
_atom_site_fract_x
_atom_site_fract_y
_atom_site_fract_z
Fe1 Fe 0.5000 0.0000 1.0000
Na1 Na 1.0000 0.0000 1.0000
N1 N 0.64298(7) -0.06175(7) 0.95534(8)
N2 N 0.72564(7) -0.01989(7) 0.96431(8)
N3 N 0.80746(9) 0.01774(9) 0.97076(10)
N1D N 0.95534(8) -0.35702(7) 0.93825(7)
N2D N 0.96431(8) -0.27436(7) 0.98011(7)
N3D N 0.97076(10) -0.19254(9) 1.01774(9)
N1H N 0.93825(7) -0.04466(8) 0.64298(7)
N2H N 0.98011(7) -0.03569(8) 0.72564(7)
N3H N 1.01774(9) -0.02924(10) 0.80746(9)
N1L N 0.35702(7) 0.06175(7) 1.04466(8)
N2L N 0.27436(7) 0.01989(7) 1.03569(8)
N3L N 0.19254(9) -0.01774(9) 1.02924(10)
N1Q N 0.54466(8) 0.14298(7) 0.93825(7)
N2Q N 0.53569(8) 0.22564(7) 0.98011(7)
N3Q N 0.52924(10) 0.30746(9) 1.01774(9)
N1W N 0.43825(7) -0.04466(8) 0.85702(7)
N2W N 0.48011(7) -0.03569(8) 0.77436(7)
N3W N 0.51774(9) -0.02924(10) 0.69254(9)
Fe1A Fe 1.0000 0.0000 0.5000
Fe1C Fe 1.0000 -0.5000 1.0000
Na1_2 Na 0.0000 0.0000 1.0000
Na1A Na 0.5000 0.0000 0.5000
Na1C Na 0.5000 0.5000 1.0000
N1E N 0.45534(8) -0.14298(7) 1.06175(7)
N1K N 0.56175(7) 0.04466(8) 1.14298(7)
N3L_2 N 1.19254(9) -0.01774(9) 1.02924(10)
N3P N 1.02924(10) 0.19254(9) 0.98226(9)
N3T N 0.98226(9) 0.02924(10) 1.19254(9)
N4 N 0.27356(8) 0.22644(8) 0.77356(8)
C1 C 0.20617(9) 0.29383(9) 0.70617(9)
H1 H 0.1966 0.2603 0.6382
C2 C 0.28765(10) 0.27818(10) 0.87706(10)
H2 H 0.3317 0.2345 0.9216
H3 H 0.2195 0.2878 0.9102
H4 H 0.3210 0.3462 0.8672
H1K H 0.2397 0.3618 0.6966
H1E H 0.1382 0.3034 0.7397
C2E C 0.37706(10) 0.21235(10) 0.72182(10)
H2E H 0.4216 0.1683 0.7655
H3E H 0.4102 0.2805 0.7122
H4E H 0.3672 0.1790 0.6538
C2K C 0.22182(10) 0.12294(10) 0.78765(10)
H2K H 0.2655 0.0784 0.8317
H3K H 0.2122 0.0898 0.7195
H4K H 0.1538 0.1328 0.8210
loop_
_geom_bond_atom_site_label_1
_geom_bond_atom_site_label_2
_geom_bond_site_symmetry_1
_geom_bond_site_symmetry_2
Fe1 N1 1_555 1_555
Na1 N3 1_555 1_555
N1 N2 1_555 1_555
N2 N3 1_555 1_555
N4 C1 1_555 1_555
C1 H1 1_555 1_555
C2 N4 1_555 1_555
H2 C2 1_555 1_555
H3 C2 1_555 1_555
H4 C2 1_555 1_555
N1D N2D 1_555 1_555
N2D N3D 1_555 1_555
N3D Na1 1_555 1_555
N1H N2H 1_555 1_555
N2H N3H 1_555 1_555
N3H Na1 1_555 1_555
N1L Fe1 1_555 1_555
N2L N1L 1_555 1_555
N3L N2L 1_555 1_555
N1Q Fe1 1_555 1_555
N2Q N1Q 1_555 1_555
N3Q N2Q 1_555 1_555
N1W Fe1 1_555 1_555
N2W N1W 1_555 1_555
N3W N2W 1_555 1_555
Fe1A N1H 1_555 1_555
Fe1C N1D 1_555 1_555
Na1_2 N3L 1_555 1_555
Na1A N3W 1_555 1_555
Na1C N3Q 1_555 1_555
N1E Fe1 1_555 1_555
N1K Fe1 1_555 1_555
N3L_2 Na1 1_555 1_555
N3P Na1 1_555 1_555
N3T Na1 1_555 1_555
H1K C1 1_555 1_555
H1E C1 1_555 1_555
C2E N4 1_555 1_555
H2E C2E 1_555 1_555
H3E C2E 1_555 1_555
H4E C2E 1_555 1_555
C2K N4 1_555 1_555
H2K C2K 1_555 1_555
H3K C2K 1_555 1_555
H4K C2K 1_555 1_555

#END
