
#######################################################################
#
#                 Cambridge Crystallographic Data Centre
#                                CCDC 
#
#######################################################################
#
# If this CIF has been generated from an entry in the Cambridge 
# Structural Database, then it will include bibliographic, chemical, 
# crystal, experimental, refinement or atomic coordinate data resulting 
# from the CCDC's data processing and validation procedures.
#
#######################################################################

data_ROQDIM06
_chemical_formula_moiety         'C24 Fe1 N117 Na6'
_symmetry_cell_setting           cubic
_symmetry_space_group_name_H-M   'F m -3 m'
_symmetry_Int_Tables_number      225
_space_group_name_Hall           '-F 4 2 3'
loop_
_symmetry_equiv_pos_site_id
_symmetry_equiv_pos_as_xyz
1 x,y,z
2 -x,-y,z
3 -x,y,-z
4 x,-y,-z
5 z,x,y
6 z,-x,-y
7 -z,-x,y
8 -z,x,-y
9 y,z,x
10 -y,z,-x
11 y,-z,-x
12 -y,-z,x
13 y,x,-z
14 -y,-x,-z
15 y,-x,z
16 -y,x,z
17 x,z,-y
18 -x,z,y
19 -x,-z,-y
20 x,-z,y
21 z,y,-x
22 z,-y,x
23 -z,y,x
24 -z,-y,-x
25 x,1/2+y,1/2+z
26 -x,1/2-y,1/2+z
27 -x,1/2+y,1/2-z
28 x,1/2-y,1/2-z
29 z,1/2+x,1/2+y
30 z,1/2-x,1/2-y
31 -z,1/2-x,1/2+y
32 -z,1/2+x,1/2-y
33 y,1/2+z,1/2+x
34 -y,1/2+z,1/2-x
35 y,1/2-z,1/2-x
36 -y,1/2-z,1/2+x
37 y,1/2+x,1/2-z
38 -y,1/2-x,1/2-z
39 y,1/2-x,1/2+z
40 -y,1/2+x,1/2+z
41 x,1/2+z,1/2-y
42 -x,1/2+z,1/2+y
43 -x,1/2-z,1/2-y
44 x,1/2-z,1/2+y
45 z,1/2+y,1/2-x
46 z,1/2-y,1/2+x
47 -z,1/2+y,1/2+x
48 -z,1/2-y,1/2-x
49 1/2+x,y,1/2+z
50 1/2-x,-y,1/2+z
51 1/2-x,y,1/2-z
52 1/2+x,-y,1/2-z
53 1/2+z,x,1/2+y
54 1/2+z,-x,1/2-y
55 1/2-z,-x,1/2+y
56 1/2-z,x,1/2-y
57 1/2+y,z,1/2+x
58 1/2-y,z,1/2-x
59 1/2+y,-z,1/2-x
60 1/2-y,-z,1/2+x
61 1/2+y,x,1/2-z
62 1/2-y,-x,1/2-z
63 1/2+y,-x,1/2+z
64 1/2-y,x,1/2+z
65 1/2+x,z,1/2-y
66 1/2-x,z,1/2+y
67 1/2-x,-z,1/2-y
68 1/2+x,-z,1/2+y
69 1/2+z,y,1/2-x
70 1/2+z,-y,1/2+x
71 1/2-z,y,1/2+x
72 1/2-z,-y,1/2-x
73 1/2+x,1/2+y,z
74 1/2-x,1/2-y,z
75 1/2-x,1/2+y,-z
76 1/2+x,1/2-y,-z
77 1/2+z,1/2+x,y
78 1/2+z,1/2-x,-y
79 1/2-z,1/2-x,y
80 1/2-z,1/2+x,-y
81 1/2+y,1/2+z,x
82 1/2-y,1/2+z,-x
83 1/2+y,1/2-z,-x
84 1/2-y,1/2-z,x
85 1/2+y,1/2+x,-z
86 1/2-y,1/2-x,-z
87 1/2+y,1/2-x,z
88 1/2-y,1/2+x,z
89 1/2+x,1/2+z,-y
90 1/2-x,1/2+z,y
91 1/2-x,1/2-z,-y
92 1/2+x,1/2-z,y
93 1/2+z,1/2+y,-x
94 1/2+z,1/2-y,x
95 1/2-z,1/2+y,x
96 1/2-z,1/2-y,-x
97 -x,-y,-z
98 x,y,-z
99 x,-y,z
100 -x,y,z
101 -z,-x,-y
102 -z,x,y
103 z,x,-y
104 z,-x,y
105 -y,-z,-x
106 y,-z,x
107 -y,z,x
108 y,z,-x
109 -y,-x,z
110 y,x,z
111 -y,x,-z
112 y,-x,-z
113 -x,-z,y
114 x,-z,-y
115 x,z,y
116 -x,z,-y
117 -z,-y,x
118 -z,y,-x
119 z,-y,-x
120 z,y,x
121 -x,1/2-y,1/2-z
122 x,1/2+y,1/2-z
123 x,1/2-y,1/2+z
124 -x,1/2+y,1/2+z
125 -z,1/2-x,1/2-y
126 -z,1/2+x,1/2+y
127 z,1/2+x,1/2-y
128 z,1/2-x,1/2+y
129 -y,1/2-z,1/2-x
130 y,1/2-z,1/2+x
131 -y,1/2+z,1/2+x
132 y,1/2+z,1/2-x
133 -y,1/2-x,1/2+z
134 y,1/2+x,1/2+z
135 -y,1/2+x,1/2-z
136 y,1/2-x,1/2-z
137 -x,1/2-z,1/2+y
138 x,1/2-z,1/2-y
139 x,1/2+z,1/2+y
140 -x,1/2+z,1/2-y
141 -z,1/2-y,1/2+x
142 -z,1/2+y,1/2-x
143 z,1/2-y,1/2-x
144 z,1/2+y,1/2+x
145 1/2-x,-y,1/2-z
146 1/2+x,y,1/2-z
147 1/2+x,-y,1/2+z
148 1/2-x,y,1/2+z
149 1/2-z,-x,1/2-y
150 1/2-z,x,1/2+y
151 1/2+z,x,1/2-y
152 1/2+z,-x,1/2+y
153 1/2-y,-z,1/2-x
154 1/2+y,-z,1/2+x
155 1/2-y,z,1/2+x
156 1/2+y,z,1/2-x
157 1/2-y,-x,1/2+z
158 1/2+y,x,1/2+z
159 1/2-y,x,1/2-z
160 1/2+y,-x,1/2-z
161 1/2-x,-z,1/2+y
162 1/2+x,-z,1/2-y
163 1/2+x,z,1/2+y
164 1/2-x,z,1/2-y
165 1/2-z,-y,1/2+x
166 1/2-z,y,1/2-x
167 1/2+z,-y,1/2-x
168 1/2+z,y,1/2+x
169 1/2-x,1/2-y,-z
170 1/2+x,1/2+y,-z
171 1/2+x,1/2-y,z
172 1/2-x,1/2+y,z
173 1/2-z,1/2-x,-y
174 1/2-z,1/2+x,y
175 1/2+z,1/2+x,-y
176 1/2+z,1/2-x,y
177 1/2-y,1/2-z,-x
178 1/2+y,1/2-z,x
179 1/2-y,1/2+z,x
180 1/2+y,1/2+z,-x
181 1/2-y,1/2-x,z
182 1/2+y,1/2+x,z
183 1/2-y,1/2+x,-z
184 1/2+y,1/2-x,-z
185 1/2-x,1/2-z,y
186 1/2+x,1/2-z,-y
187 1/2+x,1/2+z,y
188 1/2-x,1/2+z,-y
189 1/2-z,1/2-y,x
190 1/2-z,1/2+y,-x
191 1/2+z,1/2-y,-x
192 1/2+z,1/2+y,x
_cell_length_a                   13.0338(7)
_cell_length_b                   13.0338(7)
_cell_length_c                   13.0338(7)
_cell_angle_alpha                90
_cell_angle_beta                 90
_cell_angle_gamma                90
_cell_volume                     2214.18
loop_
_atom_site_label
_atom_site_type_symbol
_atom_site_fract_x
_atom_site_fract_y
_atom_site_fract_z
Fe1 Fe 0.5000 0.0000 0.0000
N1 N 0.4668(14) 0.1444(6) -0.0588(18)
N1B N 0.5332(14) 0.1444(6) 0.0588(18)
N1R N 0.5332(14) 0.0588(18) -0.1444(6)
N1S N 0.4668(14) 0.0588(18) 0.1444(6)
N1PB N 0.4412(18) 0.1444(6) 0.0332(14)
N1RB N 0.5588(18) 0.1444(6) -0.0332(14)
N1YB N 0.4412(18) 0.0332(14) -0.1444(6)
N1ZB N 0.5588(18) 0.0332(14) 0.1444(6)
N1SC N 0.4668(14) 0.1444(6) 0.0588(18)
N1UC N 0.5332(14) 0.1444(6) -0.0588(18)
N1HD N 0.5332(14) 0.0588(18) 0.1444(6)
N1ID N 0.4668(14) 0.0588(18) -0.1444(6)
N1VE N 0.3556(6) 0.0588(18) 0.0332(14)
N1IF N 0.5588(18) 0.1444(6) 0.0332(14)
N1KF N 0.4412(18) 0.1444(6) -0.0332(14)
N1PF N 0.5588(18) 0.0332(14) -0.1444(6)
N1SF N 0.4412(18) 0.0332(14) 0.1444(6)
N1XF N 0.3556(6) 0.0332(14) -0.0588(18)
N1P N 0.4668(14) -0.0588(18) -0.1444(6)
N1Q N 0.5332(14) -0.0588(18) 0.1444(6)
N1EB N 0.3556(6) -0.0588(18) 0.0332(14)
N1FB N 0.6444(6) 0.0588(18) 0.0332(14)
N1GB N 0.3556(6) 0.0588(18) -0.0332(14)
N1QB N 0.4412(18) -0.1444(6) -0.0332(14)
N1SB N 0.5588(18) -0.1444(6) 0.0332(14)
N1XB N 0.4412(18) -0.0332(14) 0.1444(6)
N1AC N 0.5588(18) -0.0332(14) -0.1444(6)
N1FC N 0.6444(6) -0.0332(14) 0.0588(18)
N1GC N 0.3556(6) 0.0332(14) 0.0588(18)
N1HC N 0.6444(6) 0.0332(14) -0.0588(18)
N1IC N 0.3556(6) -0.0332(14) -0.0588(18)
N1RC N 0.5332(14) -0.1444(6) 0.0588(18)
N1TC N 0.4668(14) -0.1444(6) -0.0588(18)
N1JD N 0.4668(14) -0.0588(18) 0.1444(6)
N1KD N 0.5332(14) -0.0588(18) -0.1444(6)
N1WE N 0.6444(6) 0.0588(18) -0.0332(14)
N1XE N 0.3556(6) -0.0588(18) -0.0332(14)
N1YE N 0.6444(6) -0.0588(18) 0.0332(14)
N1HF N 0.5588(18) -0.1444(6) -0.0332(14)
N1JF N 0.4412(18) -0.1444(6) 0.0332(14)
N1QF N 0.5588(18) -0.0332(14) 0.1444(6)
N1RF N 0.4412(18) -0.0332(14) -0.1444(6)
N1YF N 0.6444(6) -0.0332(14) -0.0588(18)
N1ZF N 0.3556(6) -0.0332(14) 0.0588(18)
N1AG N 0.6444(6) 0.0332(14) 0.0588(18)
N1A N 0.5332(14) -0.1444(6) -0.0588(18)
N1C N 0.4668(14) -0.1444(6) 0.0588(18)
N1DB N 0.6444(6) -0.0588(18) -0.0332(14)
Na1 Na 0.5000 0.5000 0.0000
N2 N 0.4803(5) 0.2262(5) -0.0197(5)
N3 N 0.5000 0.3070(5) 0.018(3)
N2B N 0.5197(5) 0.2262(5) 0.0197(5)
N3B N 0.5000 0.3070(5) -0.018(3)
N2PB N 0.4803(5) 0.2262(5) 0.0197(5)
N3PB N 0.518(3) 0.3070(5) 0.0000
N2RB N 0.5197(5) 0.2262(5) -0.0197(5)
N3RB N 0.482(3) 0.3070(5) 0.0000
N3A N 0.5000 0.6930(5) 0.018(3)
N3C N 0.5000 0.6930(5) -0.018(3)
N3L N 0.3070(5) 0.5000 -0.018(3)
N3M N 0.6930(5) 0.5000 -0.018(3)
N3N N 0.3070(5) 0.5000 0.018(3)
N3O N 0.6930(5) 0.5000 0.018(3)
N3FA N 0.3070(5) 0.518(3) 0.0000
N3GA N 0.6930(5) 0.518(3) 0.0000
N3HA N 0.3070(5) 0.482(3) 0.0000
N3IA N 0.6930(5) 0.482(3) 0.0000
N3NA N 0.5000 0.518(3) 0.1930(5)
N3OA N 0.5000 0.518(3) -0.1930(5)
N3PA N 0.5000 0.482(3) 0.1930(5)
N3QA N 0.5000 0.482(3) -0.1930(5)
N3ZA N 0.518(3) 0.5000 -0.1930(5)
N3AB N 0.518(3) 0.5000 0.1930(5)
N3BB N 0.482(3) 0.5000 -0.1930(5)
N3CB N 0.482(3) 0.5000 0.1930(5)
N3QB N 0.518(3) 0.6930(5) 0.0000
N3SB N 0.482(3) 0.6930(5) 0.0000
N2R N 0.5197(5) 0.0197(5) -0.2262(5)
N3R N 0.5000 -0.018(3) -0.3070(5)
N2YB N 0.4803(5) 0.0197(5) -0.2262(5)
N3YB N 0.518(3) 0.0000 -0.3070(5)
N3PF N 0.482(3) 0.0000 -0.3070(5)
N2P N 0.4803(5) -0.0197(5) -0.2262(5)
N3P N 0.5000 0.018(3) -0.3070(5)
N2AC N 0.5197(5) -0.0197(5) -0.2262(5)
Na1H Na 0.5000 0.0000 -0.5000
N2S N 0.4803(5) 0.0197(5) 0.2262(5)
N3S N 0.5000 -0.018(3) 0.3070(5)
N2ZB N 0.5197(5) 0.0197(5) 0.2262(5)
N3ZB N 0.482(3) 0.0000 0.3070(5)
N3SF N 0.518(3) 0.0000 0.3070(5)
N2Q N 0.5197(5) -0.0197(5) 0.2262(5)
N3Q N 0.5000 0.018(3) 0.3070(5)
N2XB N 0.4803(5) -0.0197(5) 0.2262(5)
Na1H_2 Na 0.5000 0.0000 0.5000
N2VE N 0.2738(5) 0.0197(5) 0.0197(5)
N3VE N 0.1930(5) -0.018(3) 0.0000
N2XF N 0.2738(5) 0.0197(5) -0.0197(5)
N3XF N 0.1930(5) 0.0000 0.018(3)
N2EB N 0.2738(5) -0.0197(5) 0.0197(5)
N3EB N 0.1930(5) 0.018(3) 0.0000
N3GC N 0.1930(5) -0.0000 -0.018(3)
N2IC N 0.2738(5) -0.0197(5) -0.0197(5)
Na1BA Na 0.0000 0.0000 0.0000
N2FB N 0.7262(5) 0.0197(5) 0.0197(5)
N3FB N 0.8070(5) -0.018(3) 0.0000
N2FC N 0.7262(5) -0.0197(5) 0.0197(5)
N3FC N 0.8070(5) -0.0000 -0.018(3)
N2HC N 0.7262(5) 0.0197(5) -0.0197(5)
N3HC N 0.8070(5) 0.0000 0.018(3)
N3YE N 0.8070(5) 0.018(3) 0.0000
N2YF N 0.7262(5) -0.0197(5) -0.0197(5)
Na1BA_2 Na 1.0000 0.0000 0.0000
N2QB N 0.4803(5) -0.2262(5) -0.0197(5)
N3QB_2 N 0.518(3) -0.3070(5) 0.0000
N2SB N 0.5197(5) -0.2262(5) 0.0197(5)
N3SB_2 N 0.482(3) -0.3070(5) 0.0000
N3RC N 0.5000 -0.3070(5) -0.018(3)
N3TC N 0.5000 -0.3070(5) 0.018(3)
N2HF N 0.5197(5) -0.2262(5) -0.0197(5)
N2JF N 0.4803(5) -0.2262(5) 0.0197(5)
Na1_2 Na 0.5000 -0.5000 0.0000
N4 N 0.7500 0.2500 -0.2500
C1 C 0.6911(19) 0.2277(10) -0.348(2)
C1E C 0.652(2) 0.3089(19) -0.2277(10)
C1K C 0.7723(10) 0.348(2) -0.3089(19)
C1AA C 0.6911(19) 0.2723(10) -0.152(2)
C1BA C 0.652(2) 0.1911(19) -0.2723(10)
C1GA C 0.7723(10) 0.152(2) -0.1911(19)
C1XA C 0.8089(19) 0.2277(10) -0.152(2)
C1BB C 0.848(2) 0.3089(19) -0.2723(10)
C1FB C 0.7277(10) 0.348(2) -0.1911(19)
C1UB C 0.8089(19) 0.2723(10) -0.348(2)
C1AC C 0.848(2) 0.1911(19) -0.2277(10)
C1BC C 0.7277(10) 0.152(2) -0.3089(19)
C1DD C 0.7723(10) 0.3089(19) -0.348(2)
C1ID C 0.6911(19) 0.348(2) -0.2277(10)
C1OD C 0.652(2) 0.2277(10) -0.3089(19)
C1DE C 0.7723(10) 0.1911(19) -0.152(2)
C1HE C 0.6911(19) 0.152(2) -0.2723(10)
C1LE C 0.652(2) 0.2723(10) -0.1911(19)
C1CF C 0.7277(10) 0.3089(19) -0.152(2)
C1DF C 0.8089(19) 0.348(2) -0.2723(10)
C1IF C 0.848(2) 0.2277(10) -0.1911(19)
C1YF C 0.7277(10) 0.1911(19) -0.348(2)
C1EG C 0.8089(19) 0.152(2) -0.2277(10)
C1FG C 0.848(2) 0.2723(10) -0.3089(19)
loop_
_geom_bond_atom_site_label_1
_geom_bond_atom_site_label_2
_geom_bond_site_symmetry_1
_geom_bond_site_symmetry_2
Fe1 N1 1_555 1_555
Na1 N3 1_555 1_555
N2 N3 1_555 1_555
N3 N2B 1_555 1_555
N4 C1 1_555 1_555
N1B Fe1 1_555 1_555
N1R Fe1 1_555 1_555
N1S Fe1 1_555 1_555
N1PB Fe1 1_555 1_555
N1RB Fe1 1_555 1_555
N1YB Fe1 1_555 1_555
N1ZB Fe1 1_555 1_555
N1SC Fe1 1_555 1_555
N1UC Fe1 1_555 1_555
N1HD Fe1 1_555 1_555
N1ID Fe1 1_555 1_555
N1VE Fe1 1_555 1_555
N1IF Fe1 1_555 1_555
N1KF Fe1 1_555 1_555
N1PF Fe1 1_555 1_555
N1SF Fe1 1_555 1_555
N1XF Fe1 1_555 1_555
N1P Fe1 1_555 1_555
N1Q Fe1 1_555 1_555
N1EB Fe1 1_555 1_555
N1FB Fe1 1_555 1_555
N1GB Fe1 1_555 1_555
N1QB Fe1 1_555 1_555
N1SB Fe1 1_555 1_555
N1XB Fe1 1_555 1_555
N1AC Fe1 1_555 1_555
N1FC Fe1 1_555 1_555
N1GC Fe1 1_555 1_555
N1HC Fe1 1_555 1_555
N1IC Fe1 1_555 1_555
N1RC Fe1 1_555 1_555
N1TC Fe1 1_555 1_555
N1JD Fe1 1_555 1_555
N1KD Fe1 1_555 1_555
N1WE Fe1 1_555 1_555
N1XE Fe1 1_555 1_555
N1YE Fe1 1_555 1_555
N1HF Fe1 1_555 1_555
N1JF Fe1 1_555 1_555
N1QF Fe1 1_555 1_555
N1RF Fe1 1_555 1_555
N1YF Fe1 1_555 1_555
N1ZF Fe1 1_555 1_555
N1AG Fe1 1_555 1_555
N1A Fe1 1_555 1_555
N1C Fe1 1_555 1_555
N1DB Fe1 1_555 1_555
N2B N2 1_555 1_555
N3B Na1 1_555 1_555
N2PB N3 1_555 1_555
N3PB Na1 1_555 1_555
N2RB N3 1_555 1_555
N3RB Na1 1_555 1_555
N3A Na1 1_555 1_555
N3C Na1 1_555 1_555
N3L Na1 1_555 1_555
N3M Na1 1_555 1_555
N3N Na1 1_555 1_555
N3O Na1 1_555 1_555
N3FA Na1 1_555 1_555
N3GA Na1 1_555 1_555
N3HA Na1 1_555 1_555
N3IA Na1 1_555 1_555
N3NA Na1 1_555 1_555
N3OA Na1 1_555 1_555
N3PA Na1 1_555 1_555
N3QA Na1 1_555 1_555
N3ZA Na1 1_555 1_555
N3AB Na1 1_555 1_555
N3BB Na1 1_555 1_555
N3CB Na1 1_555 1_555
N3QB Na1 1_555 1_555
N3SB Na1 1_555 1_555
N2R N3R 1_555 1_555
N3R N2YB 1_555 1_555
N2YB N3YB 1_555 1_555
N3YB N2R 1_555 1_555
N3PF N2R 1_555 1_555
N2P N2R 1_555 1_555
N3P N2R 1_555 1_555
N2AC N3R 1_555 1_555
Na1H N3R 1_555 1_555
N2S N3S 1_555 1_555
N3S N2ZB 1_555 1_555
N2ZB N3ZB 1_555 1_555
N3ZB N2S 1_555 1_555
N3SF N2S 1_555 1_555
N2Q N2S 1_555 1_555
N3Q N2S 1_555 1_555
N2XB N3S 1_555 1_555
Na1H_2 N3S 1_555 1_555
N2VE N3VE 1_555 1_555
N3VE N2XF 1_555 1_555
N2XF N3XF 1_555 1_555
N3XF N2VE 1_555 1_555
N2EB N3VE 1_555 1_555
N3EB N2VE 1_555 1_555
N3GC N2VE 1_555 1_555
N2IC N2VE 1_555 1_555
Na1BA N3VE 1_555 1_555
N2FB N3FB 1_555 1_555
N3FB N2FC 1_555 1_555
N2FC N3FC 1_555 1_555
N3FC N2FB 1_555 1_555
N2HC N3FB 1_555 1_555
N3HC N2FB 1_555 1_555
N3YE N2FB 1_555 1_555
N2YF N2FB 1_555 1_555
Na1BA_2 N3FB 1_555 1_555
N2QB N3QB_2 1_555 1_555
N3QB_2 N2SB 1_555 1_555
N2SB N2QB 1_555 1_555
N3SB_2 N2QB 1_555 1_555
N3RC N2QB 1_555 1_555
N3TC N2QB 1_555 1_555
N2HF N3QB_2 1_555 1_555
N2JF N3QB_2 1_555 1_555
Na1_2 N3QB_2 1_555 1_555
C1E N4 1_555 1_555
C1K N4 1_555 1_555
C1AA N4 1_555 1_555
C1BA N4 1_555 1_555
C1GA N4 1_555 1_555
C1XA N4 1_555 1_555
C1BB N4 1_555 1_555
C1FB N4 1_555 1_555
C1UB N4 1_555 1_555
C1AC N4 1_555 1_555
C1BC N4 1_555 1_555
C1DD N4 1_555 1_555
C1ID N4 1_555 1_555
C1OD N4 1_555 1_555
C1DE N4 1_555 1_555
C1HE N4 1_555 1_555
C1LE N4 1_555 1_555
C1CF N4 1_555 1_555
C1DF N4 1_555 1_555
C1IF N4 1_555 1_555
C1YF N4 1_555 1_555
C1EG N4 1_555 1_555
C1FG N4 1_555 1_555
N2 N3B 1_555 1_555
N2 N3PB 1_555 1_555
N2 N3RB 1_555 1_555
N2B N3B 1_555 1_555
N2B N3PB 1_555 1_555
N2B N3RB 1_555 1_555
N3B N2PB 1_555 1_555
N3B N2RB 1_555 1_555
N2PB N3PB 1_555 1_555
N2PB N2RB 1_555 1_555
N2PB N3RB 1_555 1_555
N3PB N2RB 1_555 1_555
N2RB N3RB 1_555 1_555
N3R N2P 1_555 1_555
N2YB N3PF 1_555 1_555
N2YB N3P 1_555 1_555
N2YB N2AC 1_555 1_555
N3YB N2P 1_555 1_555
N3YB N2AC 1_555 1_555
N3YB Na1H 1_555 1_555
N3PF N2P 1_555 1_555
N3PF N2AC 1_555 1_555
N3PF Na1H 1_555 1_555
N2P N3P 1_555 1_555
N3P N2AC 1_555 1_555
N3P Na1H 1_555 1_555
N3S N2Q 1_555 1_555
N2ZB N3SF 1_555 1_555
N2ZB N3Q 1_555 1_555
N2ZB N2XB 1_555 1_555
N3ZB N2Q 1_555 1_555
N3ZB N2XB 1_555 1_555
N3ZB Na1H_2 1_555 1_555
N3SF N2Q 1_555 1_555
N3SF N2XB 1_555 1_555
N3SF Na1H_2 1_555 1_555
N2Q N3Q 1_555 1_555
N3Q N2XB 1_555 1_555
N3Q Na1H_2 1_555 1_555
N3VE N2IC 1_555 1_555
N2XF N2EB 1_555 1_555
N2XF N3EB 1_555 1_555
N2XF N3GC 1_555 1_555
N3XF N2EB 1_555 1_555
N3XF N2IC 1_555 1_555
N3XF Na1BA 1_555 1_555
N2EB N3EB 1_555 1_555
N2EB N3GC 1_555 1_555
N3EB N2IC 1_555 1_555
N3EB Na1BA 1_555 1_555
N3GC N2IC 1_555 1_555
N3GC Na1BA 1_555 1_555
N3FB N2YF 1_555 1_555
N2FC N2HC 1_555 1_555
N2FC N3HC 1_555 1_555
N2FC N3YE 1_555 1_555
N3FC N2HC 1_555 1_555
N3FC N2YF 1_555 1_555
N3FC Na1BA_2 1_555 1_555
N2HC N3HC 1_555 1_555
N2HC N3YE 1_555 1_555
N3HC N2YF 1_555 1_555
N3HC Na1BA_2 1_555 1_555
N3YE N2YF 1_555 1_555
N3YE Na1BA_2 1_555 1_555
N2SB N3SB_2 1_555 1_555
N2SB N3RC 1_555 1_555
N2SB N3TC 1_555 1_555
N3SB_2 N2HF 1_555 1_555
N3SB_2 N2JF 1_555 1_555
N3SB_2 Na1_2 1_555 1_555
N3RC N2HF 1_555 1_555
N3RC N2JF 1_555 1_555
N3RC Na1_2 1_555 1_555
N3TC N2HF 1_555 1_555
N3TC N2JF 1_555 1_555
N3TC Na1_2 1_555 1_555
N2HF N2JF 1_555 1_555

#END
