
#######################################################################
#
#                 Cambridge Crystallographic Data Centre
#                                CCDC 
#
#######################################################################
#
# If this CIF has been generated from an entry in the Cambridge 
# Structural Database, then it will include bibliographic, chemical, 
# crystal, experimental, refinement or atomic coordinate data resulting 
# from the CCDC's data processing and validation procedures.
#
#######################################################################

data_ROQFUA01
_chemical_formula_moiety         '(C4 H12 Fe1 K1 N19 1-)n'
_symmetry_cell_setting           cubic
_symmetry_space_group_name_H-M   'P a -3'
_symmetry_Int_Tables_number      205
_space_group_name_Hall           '-P 2ac 2ab 3'
loop_
_symmetry_equiv_pos_site_id
_symmetry_equiv_pos_as_xyz
1 x,y,z
2 1/2-x,-y,1/2+z
3 -x,1/2+y,1/2-z
4 1/2+x,1/2-y,-z
5 z,x,y
6 1/2+z,1/2-x,-y
7 1/2-z,-x,1/2+y
8 -z,1/2+x,1/2-y
9 y,z,x
10 -y,1/2+z,1/2-x
11 1/2+y,1/2-z,-x
12 1/2-y,-z,1/2+x
13 -x,-y,-z
14 1/2+x,y,1/2-z
15 x,1/2-y,1/2+z
16 1/2-x,1/2+y,z
17 -z,-x,-y
18 1/2-z,1/2+x,y
19 1/2+z,x,1/2-y
20 z,1/2-x,1/2+y
21 -y,-z,-x
22 y,1/2-z,1/2+x
23 1/2-y,1/2+z,x
24 1/2+y,z,1/2-x
_cell_length_a                   13.1319(4)
_cell_length_b                   13.1319(4)
_cell_length_c                   13.1319(4)
_cell_angle_alpha                90
_cell_angle_beta                 90
_cell_angle_gamma                90
_cell_volume                     2264.55
loop_
_atom_site_label
_atom_site_type_symbol
_atom_site_fract_x
_atom_site_fract_y
_atom_site_fract_z
Fe1 Fe 0.5000 0.0000 1.0000
K1 K 1.0000 0.0000 1.0000
N1 N 0.63678(10) -0.06587(10) 0.95434(11)
N2 N 0.71535(11) -0.02050(11) 0.95918(11)
N3 N 0.79275(12) 0.02155(14) 0.96282(15)
N1D N 0.95434(11) -0.36322(10) 0.93413(10)
N2D N 0.95918(11) -0.28465(11) 0.97950(11)
N3D N 0.96282(15) -0.20725(12) 1.02155(14)
N1H N 0.93413(10) -0.04566(11) 0.63678(10)
N2H N 0.97950(11) -0.04082(11) 0.71535(11)
N3H N 1.02155(14) -0.03718(15) 0.79275(12)
N1L N 0.36322(10) 0.06587(10) 1.04566(11)
N2L N 0.28465(11) 0.02050(11) 1.04082(11)
N3L N 0.20725(12) -0.02155(14) 1.03718(15)
N1Q N 0.54566(11) 0.13678(10) 0.93413(10)
N2Q N 0.54082(11) 0.21535(11) 0.97950(11)
N3Q N 0.53718(15) 0.29275(12) 1.02155(14)
N1W N 0.43413(10) -0.04566(11) 0.86322(10)
N2W N 0.47950(11) -0.04082(11) 0.78465(11)
N3W N 0.52155(14) -0.03718(15) 0.70725(12)
Fe1A Fe 1.0000 0.0000 0.5000
Fe1C Fe 1.0000 -0.5000 1.0000
K1_2 K 0.0000 0.0000 1.0000
K1A K 0.5000 0.0000 0.5000
K1C K 0.5000 0.5000 1.0000
N1E N 0.45434(11) -0.13678(10) 1.06587(10)
N1K N 0.56587(10) 0.04566(11) 1.13678(10)
N3L_2 N 1.20725(12) -0.02155(14) 1.03718(15)
N3P N 1.03718(15) 0.20725(12) 0.97845(14)
N3T N 0.97845(14) 0.03718(15) 1.20725(12)
N4 N 0.27600(11) 0.22400(11) 0.77600(11)
C1 C 0.21040(14) 0.28960(14) 0.71040(14)
H1 H 0.2038 0.2586 0.6429
C2 C 0.29282(16) 0.27634(16) 0.87592(15)
H2 H 0.3359 0.2336 0.9194
H3 H 0.2271 0.2877 0.9094
H4 H 0.3265 0.3419 0.8643
H1K H 0.2414 0.3571 0.7038
H1E H 0.1429 0.2962 0.7414
C2E C 0.37592(15) 0.20718(16) 0.72366(16)
H2E H 0.4194 0.1641 0.7664
H3E H 0.4094 0.2729 0.7123
H4E H 0.3643 0.1735 0.6581
C2K C 0.22366(16) 0.12408(15) 0.79282(16)
H2K H 0.2664 0.0806 0.8359
H3K H 0.2123 0.0906 0.7271
H4K H 0.1581 0.1357 0.8265
loop_
_geom_bond_atom_site_label_1
_geom_bond_atom_site_label_2
_geom_bond_site_symmetry_1
_geom_bond_site_symmetry_2
Fe1 N1 1_555 1_555
K1 N3 1_555 1_555
N1 N2 1_555 1_555
N2 N3 1_555 1_555
N4 C1 1_555 1_555
C1 H1 1_555 1_555
C2 N4 1_555 1_555
H2 C2 1_555 1_555
H3 C2 1_555 1_555
H4 C2 1_555 1_555
N1D N2D 1_555 1_555
N2D N3D 1_555 1_555
N3D K1 1_555 1_555
N1H N2H 1_555 1_555
N2H N3H 1_555 1_555
N3H K1 1_555 1_555
N1L Fe1 1_555 1_555
N2L N1L 1_555 1_555
N3L N2L 1_555 1_555
N1Q Fe1 1_555 1_555
N2Q N1Q 1_555 1_555
N3Q N2Q 1_555 1_555
N1W Fe1 1_555 1_555
N2W N1W 1_555 1_555
N3W N2W 1_555 1_555
Fe1A N1H 1_555 1_555
Fe1C N1D 1_555 1_555
K1_2 N3L 1_555 1_555
K1A N3W 1_555 1_555
K1C N3Q 1_555 1_555
N1E Fe1 1_555 1_555
N1K Fe1 1_555 1_555
N3L_2 K1 1_555 1_555
N3P K1 1_555 1_555
N3T K1 1_555 1_555
H1K C1 1_555 1_555
H1E C1 1_555 1_555
C2E N4 1_555 1_555
H2E C2E 1_555 1_555
H3E C2E 1_555 1_555
H4E C2E 1_555 1_555
C2K N4 1_555 1_555
H2K C2K 1_555 1_555
H3K C2K 1_555 1_555
H4K C2K 1_555 1_555

#END
