
#######################################################################
#
#                 Cambridge Crystallographic Data Centre
#                                CCDC 
#
#######################################################################
#
# If this CIF has been generated from an entry in the Cambridge 
# Structural Database, then it will include bibliographic, chemical, 
# crystal, experimental, refinement or atomic coordinate data resulting 
# from the CCDC's data processing and validation procedures.
#
#######################################################################

data_ROQFUA
_chemical_formula_moiety         '(C4 H12 Fe1 K1 N19 1-)n'
_symmetry_cell_setting           cubic
_symmetry_space_group_name_H-M   'P a -3'
_symmetry_Int_Tables_number      205
_space_group_name_Hall           '-P 2ac 2ab 3'
loop_
_symmetry_equiv_pos_site_id
_symmetry_equiv_pos_as_xyz
1 x,y,z
2 1/2-x,-y,1/2+z
3 -x,1/2+y,1/2-z
4 1/2+x,1/2-y,-z
5 z,x,y
6 1/2+z,1/2-x,-y
7 1/2-z,-x,1/2+y
8 -z,1/2+x,1/2-y
9 y,z,x
10 -y,1/2+z,1/2-x
11 1/2+y,1/2-z,-x
12 1/2-y,-z,1/2+x
13 -x,-y,-z
14 1/2+x,y,1/2-z
15 x,1/2-y,1/2+z
16 1/2-x,1/2+y,z
17 -z,-x,-y
18 1/2-z,1/2+x,y
19 1/2+z,x,1/2-y
20 z,1/2-x,1/2+y
21 -y,-z,-x
22 y,1/2-z,1/2+x
23 1/2-y,1/2+z,x
24 1/2+y,z,1/2-x
_cell_length_a                   13.1026(4)
_cell_length_b                   13.1026(4)
_cell_length_c                   13.1026(4)
_cell_angle_alpha                90
_cell_angle_beta                 90
_cell_angle_gamma                90
_cell_volume                     2249.43
loop_
_atom_site_label
_atom_site_type_symbol
_atom_site_fract_x
_atom_site_fract_y
_atom_site_fract_z
Fe1 Fe 0.5000 0.0000 1.0000
K1 K 1.0000 0.0000 1.0000
N1 N 0.63660(9) -0.06700(9) 0.95382(9)
N2 N 0.71529(9) -0.02099(9) 0.95863(10)
N3 N 0.79281(10) 0.02178(11) 0.96191(13)
N1D N 0.95382(9) -0.36340(9) 0.93300(9)
N2D N 0.95863(10) -0.28471(9) 0.97901(9)
N3D N 0.96191(13) -0.20719(10) 1.02178(11)
N1H N 0.93300(9) -0.04618(9) 0.63660(9)
N2H N 0.97901(9) -0.04137(10) 0.71529(9)
N3H N 1.02178(11) -0.03809(13) 0.79281(10)
N1L N 0.36340(9) 0.06700(9) 1.04618(9)
N2L N 0.28471(9) 0.02099(9) 1.04137(10)
N3L N 0.20719(10) -0.02178(11) 1.03809(13)
N1Q N 0.54618(9) 0.13660(9) 0.93300(9)
N2Q N 0.54137(10) 0.21529(9) 0.97901(9)
N3Q N 0.53809(13) 0.29281(10) 1.02178(11)
N1W N 0.43300(9) -0.04618(9) 0.86340(9)
N2W N 0.47901(9) -0.04137(10) 0.78471(9)
N3W N 0.52178(11) -0.03809(13) 0.70719(10)
Fe1A Fe 1.0000 0.0000 0.5000
Fe1C Fe 1.0000 -0.5000 1.0000
K1_2 K 0.0000 0.0000 1.0000
K1A K 0.5000 0.0000 0.5000
K1C K 0.5000 0.5000 1.0000
N1E N 0.45382(9) -0.13660(9) 1.06700(9)
N1K N 0.56700(9) 0.04618(9) 1.13660(9)
N3L_2 N 1.20719(10) -0.02178(11) 1.03809(13)
N3P N 1.03809(13) 0.20719(10) 0.97822(11)
N3T N 0.97822(11) 0.03809(13) 1.20719(10)
N4 N 0.27651(10) 0.22349(10) 0.77651(10)
C1 C 0.21060(12) 0.28940(12) 0.71060(12)
H1 H 0.2041 0.2584 0.6429
C2 C 0.29349(13) 0.27600(13) 0.87677(12)
H2 H 0.3366 0.2332 0.9203
H3 H 0.2277 0.2874 0.9104
H4 H 0.3273 0.3417 0.8651
H1K H 0.2416 0.3571 0.7041
H1E H 0.1429 0.2959 0.7416
C2E C 0.37677(12) 0.20651(13) 0.72400(13)
H2E H 0.4203 0.1634 0.7668
H3E H 0.4104 0.2723 0.7126
H4E H 0.3651 0.1727 0.6583
C2K C 0.22400(13) 0.12323(12) 0.79349(13)
H2K H 0.2668 0.0797 0.8366
H3K H 0.2126 0.0896 0.7277
H4K H 0.1583 0.1349 0.8273
loop_
_geom_bond_atom_site_label_1
_geom_bond_atom_site_label_2
_geom_bond_site_symmetry_1
_geom_bond_site_symmetry_2
Fe1 N1 1_555 1_555
K1 N3 1_555 1_555
N1 N2 1_555 1_555
N2 N3 1_555 1_555
N4 C1 1_555 1_555
C1 H1 1_555 1_555
C2 N4 1_555 1_555
H2 C2 1_555 1_555
H3 C2 1_555 1_555
H4 C2 1_555 1_555
N1D N2D 1_555 1_555
N2D N3D 1_555 1_555
N3D K1 1_555 1_555
N1H N2H 1_555 1_555
N2H N3H 1_555 1_555
N3H K1 1_555 1_555
N1L Fe1 1_555 1_555
N2L N1L 1_555 1_555
N3L N2L 1_555 1_555
N1Q Fe1 1_555 1_555
N2Q N1Q 1_555 1_555
N3Q N2Q 1_555 1_555
N1W Fe1 1_555 1_555
N2W N1W 1_555 1_555
N3W N2W 1_555 1_555
Fe1A N1H 1_555 1_555
Fe1C N1D 1_555 1_555
K1_2 N3L 1_555 1_555
K1A N3W 1_555 1_555
K1C N3Q 1_555 1_555
N1E Fe1 1_555 1_555
N1K Fe1 1_555 1_555
N3L_2 K1 1_555 1_555
N3P K1 1_555 1_555
N3T K1 1_555 1_555
H1K C1 1_555 1_555
H1E C1 1_555 1_555
C2E N4 1_555 1_555
H2E C2E 1_555 1_555
H3E C2E 1_555 1_555
H4E C2E 1_555 1_555
C2K N4 1_555 1_555
H2K C2K 1_555 1_555
H3K C2K 1_555 1_555
H4K C2K 1_555 1_555

#END
