
#######################################################################
#
#                 Cambridge Crystallographic Data Centre
#                                CCDC 
#
#######################################################################
#
# If this CIF has been generated from an entry in the Cambridge 
# Structural Database, then it will include bibliographic, chemical, 
# crystal, experimental, refinement or atomic coordinate data resulting 
# from the CCDC's data processing and validation procedures.
#
#######################################################################

data_ROQFUA06
_chemical_formula_moiety         '(C4 H12 Fe1 K1 N19 1-)n'
_symmetry_cell_setting           cubic
_symmetry_space_group_name_H-M   'P a -3'
_symmetry_Int_Tables_number      205
_space_group_name_Hall           '-P 2ac 2ab 3'
loop_
_symmetry_equiv_pos_site_id
_symmetry_equiv_pos_as_xyz
1 x,y,z
2 1/2-x,-y,1/2+z
3 -x,1/2+y,1/2-z
4 1/2+x,1/2-y,-z
5 z,x,y
6 1/2+z,1/2-x,-y
7 1/2-z,-x,1/2+y
8 -z,1/2+x,1/2-y
9 y,z,x
10 -y,1/2+z,1/2-x
11 1/2+y,1/2-z,-x
12 1/2-y,-z,1/2+x
13 -x,-y,-z
14 1/2+x,y,1/2-z
15 x,1/2-y,1/2+z
16 1/2-x,1/2+y,z
17 -z,-x,-y
18 1/2-z,1/2+x,y
19 1/2+z,x,1/2-y
20 z,1/2-x,1/2+y
21 -y,-z,-x
22 y,1/2-z,1/2+x
23 1/2-y,1/2+z,x
24 1/2+y,z,1/2-x
_cell_length_a                   13.2530(6)
_cell_length_b                   13.2530(6)
_cell_length_c                   13.2530(6)
_cell_angle_alpha                90
_cell_angle_beta                 90
_cell_angle_gamma                90
_cell_volume                     2327.78
loop_
_atom_site_label
_atom_site_type_symbol
_atom_site_fract_x
_atom_site_fract_y
_atom_site_fract_z
Fe1 Fe 0.5000 0.0000 1.0000
K1 K 1.0000 0.0000 1.0000
N1 N 0.63679(18) -0.06288(19) 0.95602(19)
N2 N 0.7159(2) -0.0187(2) 0.9631(2)
N3 N 0.7924(2) 0.0206(3) 0.9679(3)
N1D N 0.95602(19) -0.36321(18) 0.93712(19)
N2D N 0.9631(2) -0.2841(2) 0.9813(2)
N3D N 0.9679(3) -0.2076(2) 1.0206(3)
N1H N 0.93712(19) -0.04398(19) 0.63679(18)
N2H N 0.9813(2) -0.0369(2) 0.7159(2)
N3H N 1.0206(3) -0.0321(3) 0.7924(2)
N1L N 0.36321(18) 0.06288(19) 1.04398(19)
N2L N 0.2841(2) 0.0187(2) 1.0369(2)
N3L N 0.2076(2) -0.0206(3) 1.0321(3)
N1Q N 0.54398(19) 0.13679(18) 0.93712(19)
N2Q N 0.5369(2) 0.2159(2) 0.9813(2)
N3Q N 0.5321(3) 0.2924(2) 1.0206(3)
N1W N 0.43712(19) -0.04398(19) 0.86321(18)
N2W N 0.4813(2) -0.0369(2) 0.7841(2)
N3W N 0.5206(3) -0.0321(3) 0.7076(2)
Fe1A Fe 1.0000 0.0000 0.5000
Fe1C Fe 1.0000 -0.5000 1.0000
K1_2 K 0.0000 0.0000 1.0000
K1A K 0.5000 0.0000 0.5000
K1C K 0.5000 0.5000 1.0000
N1E N 0.45602(19) -0.13679(18) 1.06288(19)
N1K N 0.56288(19) 0.04398(19) 1.13679(18)
N3L_2 N 1.2076(2) -0.0206(3) 1.0321(3)
N3P N 1.0321(3) 0.2076(2) 0.9794(3)
N3T N 0.9794(3) 0.0321(3) 1.2076(2)
N4 N 0.2726(2) 0.2274(2) 0.7726(2)
C1 C 0.2082(3) 0.2918(3) 0.7082(3)
H1 H 0.2005 0.2608 0.6432
C2 C 0.2898(3) 0.2786(4) 0.8718(3)
H2 H 0.3316 0.2368 0.9137
H3 H 0.2262 0.2896 0.9046
H4 H 0.3227 0.3422 0.8608
H1K H 0.2392 0.3568 0.7005
H1E H 0.1432 0.2995 0.7392
C2E C 0.3718(3) 0.2102(3) 0.7214(4)
H2E H 0.4137 0.1684 0.7632
H3E H 0.4046 0.2738 0.7104
H4E H 0.3608 0.1773 0.6578
C2K C 0.2214(4) 0.1282(3) 0.7898(3)
H2K H 0.2632 0.0863 0.8316
H3K H 0.2104 0.0954 0.7262
H4K H 0.1578 0.1392 0.8227
loop_
_geom_bond_atom_site_label_1
_geom_bond_atom_site_label_2
_geom_bond_site_symmetry_1
_geom_bond_site_symmetry_2
Fe1 N1 1_555 1_555
K1 N3 1_555 1_555
N1 N2 1_555 1_555
N2 N3 1_555 1_555
N4 C1 1_555 1_555
C1 H1 1_555 1_555
C2 N4 1_555 1_555
H2 C2 1_555 1_555
H3 C2 1_555 1_555
H4 C2 1_555 1_555
N1D N2D 1_555 1_555
N2D N3D 1_555 1_555
N3D K1 1_555 1_555
N1H N2H 1_555 1_555
N2H N3H 1_555 1_555
N3H K1 1_555 1_555
N1L Fe1 1_555 1_555
N2L N1L 1_555 1_555
N3L N2L 1_555 1_555
N1Q Fe1 1_555 1_555
N2Q N1Q 1_555 1_555
N3Q N2Q 1_555 1_555
N1W Fe1 1_555 1_555
N2W N1W 1_555 1_555
N3W N2W 1_555 1_555
Fe1A N1H 1_555 1_555
Fe1C N1D 1_555 1_555
K1_2 N3L 1_555 1_555
K1A N3W 1_555 1_555
K1C N3Q 1_555 1_555
N1E Fe1 1_555 1_555
N1K Fe1 1_555 1_555
N3L_2 K1 1_555 1_555
N3P K1 1_555 1_555
N3T K1 1_555 1_555
H1K C1 1_555 1_555
H1E C1 1_555 1_555
C2E N4 1_555 1_555
H2E C2E 1_555 1_555
H3E C2E 1_555 1_555
H4E C2E 1_555 1_555
C2K N4 1_555 1_555
H2K C2K 1_555 1_555
H3K C2K 1_555 1_555
H4K C2K 1_555 1_555

#END
