
#######################################################################
#
#                 Cambridge Crystallographic Data Centre
#                                CCDC 
#
#######################################################################
#
# If this CIF has been generated from an entry in the Cambridge 
# Structural Database, then it will include bibliographic, chemical, 
# crystal, experimental, refinement or atomic coordinate data resulting 
# from the CCDC's data processing and validation procedures.
#
#######################################################################

data_ROQFUA04
_chemical_formula_moiety         '(C4 H12 Fe1 K1 N19 1-)n'
_symmetry_cell_setting           cubic
_symmetry_space_group_name_H-M   'P a -3'
_symmetry_Int_Tables_number      205
_space_group_name_Hall           '-P 2ac 2ab 3'
loop_
_symmetry_equiv_pos_site_id
_symmetry_equiv_pos_as_xyz
1 x,y,z
2 1/2-x,-y,1/2+z
3 -x,1/2+y,1/2-z
4 1/2+x,1/2-y,-z
5 z,x,y
6 1/2+z,1/2-x,-y
7 1/2-z,-x,1/2+y
8 -z,1/2+x,1/2-y
9 y,z,x
10 -y,1/2+z,1/2-x
11 1/2+y,1/2-z,-x
12 1/2-y,-z,1/2+x
13 -x,-y,-z
14 1/2+x,y,1/2-z
15 x,1/2-y,1/2+z
16 1/2-x,1/2+y,z
17 -z,-x,-y
18 1/2-z,1/2+x,y
19 1/2+z,x,1/2-y
20 z,1/2-x,1/2+y
21 -y,-z,-x
22 y,1/2-z,1/2+x
23 1/2-y,1/2+z,x
24 1/2+y,z,1/2-x
_cell_length_a                   13.2235(6)
_cell_length_b                   13.2235(6)
_cell_length_c                   13.2235(6)
_cell_angle_alpha                90
_cell_angle_beta                 90
_cell_angle_gamma                90
_cell_volume                     2312.27
loop_
_atom_site_label
_atom_site_type_symbol
_atom_site_fract_x
_atom_site_fract_y
_atom_site_fract_z
Fe1 Fe 0.5000 0.0000 1.0000
K1 K 1.0000 0.0000 1.0000
N1 N 0.63712(15) -0.06343(15) 0.95544(15)
N2 N 0.71552(16) -0.01939(16) 0.96162(17)
N3 N 0.79247(18) 0.0208(2) 0.9657(2)
N1D N 0.95544(15) -0.36288(15) 0.93657(15)
N2D N 0.96162(17) -0.28448(16) 0.98061(16)
N3D N 0.9657(2) -0.20753(18) 1.0208(2)
N1H N 0.93657(15) -0.04456(15) 0.63712(15)
N2H N 0.98061(16) -0.03838(17) 0.71552(16)
N3H N 1.0208(2) -0.0343(2) 0.79247(18)
N1L N 0.36288(15) 0.06343(15) 1.04456(15)
N2L N 0.28448(16) 0.01939(16) 1.03838(17)
N3L N 0.20753(18) -0.0208(2) 1.0343(2)
N1Q N 0.54456(15) 0.13712(15) 0.93657(15)
N2Q N 0.53838(17) 0.21552(16) 0.98061(16)
N3Q N 0.5343(2) 0.29247(18) 1.0208(2)
N1W N 0.43657(15) -0.04456(15) 0.86288(15)
N2W N 0.48061(16) -0.03838(17) 0.78448(16)
N3W N 0.5208(2) -0.0343(2) 0.70753(18)
Fe1A Fe 1.0000 0.0000 0.5000
Fe1C Fe 1.0000 -0.5000 1.0000
K1_2 K 0.0000 0.0000 1.0000
K1A K 0.5000 0.0000 0.5000
K1C K 0.5000 0.5000 1.0000
N1E N 0.45544(15) -0.13712(15) 1.06343(15)
N1K N 0.56343(15) 0.04456(15) 1.13712(15)
N3L_2 N 1.20753(18) -0.0208(2) 1.0343(2)
N3P N 1.0343(2) 0.20753(18) 0.9792(2)
N3T N 0.9792(2) 0.0343(2) 1.20753(18)
N4 N 0.27398(17) 0.22602(17) 0.77398(17)
C1 C 0.2095(2) 0.2905(2) 0.7095(2)
H1 H 0.2026 0.2600 0.6440
C2 C 0.2905(3) 0.2778(3) 0.8729(2)
H2 H 0.3324 0.2363 0.9153
H3 H 0.2266 0.2888 0.9055
H4 H 0.3233 0.3416 0.8617
H1K H 0.2400 0.3560 0.7026
H1E H 0.1440 0.2974 0.7400
C2E C 0.3729(2) 0.2095(3) 0.7222(3)
H2E H 0.4153 0.1676 0.7637
H3E H 0.4055 0.2734 0.7112
H4E H 0.3617 0.1767 0.6584
C2K C 0.2222(3) 0.1271(2) 0.7905(3)
H2K H 0.2637 0.0847 0.8324
H3K H 0.2112 0.0945 0.7266
H4K H 0.1584 0.1383 0.8233
loop_
_geom_bond_atom_site_label_1
_geom_bond_atom_site_label_2
_geom_bond_site_symmetry_1
_geom_bond_site_symmetry_2
Fe1 N1 1_555 1_555
K1 N3 1_555 1_555
N1 N2 1_555 1_555
N2 N3 1_555 1_555
N4 C1 1_555 1_555
C1 H1 1_555 1_555
C2 N4 1_555 1_555
H2 C2 1_555 1_555
H3 C2 1_555 1_555
H4 C2 1_555 1_555
N1D N2D 1_555 1_555
N2D N3D 1_555 1_555
N3D K1 1_555 1_555
N1H N2H 1_555 1_555
N2H N3H 1_555 1_555
N3H K1 1_555 1_555
N1L Fe1 1_555 1_555
N2L N1L 1_555 1_555
N3L N2L 1_555 1_555
N1Q Fe1 1_555 1_555
N2Q N1Q 1_555 1_555
N3Q N2Q 1_555 1_555
N1W Fe1 1_555 1_555
N2W N1W 1_555 1_555
N3W N2W 1_555 1_555
Fe1A N1H 1_555 1_555
Fe1C N1D 1_555 1_555
K1_2 N3L 1_555 1_555
K1A N3W 1_555 1_555
K1C N3Q 1_555 1_555
N1E Fe1 1_555 1_555
N1K Fe1 1_555 1_555
N3L_2 K1 1_555 1_555
N3P K1 1_555 1_555
N3T K1 1_555 1_555
H1K C1 1_555 1_555
H1E C1 1_555 1_555
C2E N4 1_555 1_555
H2E C2E 1_555 1_555
H3E C2E 1_555 1_555
H4E C2E 1_555 1_555
C2K N4 1_555 1_555
H2K C2K 1_555 1_555
H3K C2K 1_555 1_555
H4K C2K 1_555 1_555

#END
