
#######################################################################
#
#                 Cambridge Crystallographic Data Centre
#                                CCDC 
#
#######################################################################
#
# If this CIF has been generated from an entry in the Cambridge 
# Structural Database, then it will include bibliographic, chemical, 
# crystal, experimental, refinement or atomic coordinate data resulting 
# from the CCDC's data processing and validation procedures.
#
#######################################################################

data_ROQFUA05
_chemical_formula_moiety         '(C4 H12 Fe1 K1 N19 1-)n'
_symmetry_cell_setting           cubic
_symmetry_space_group_name_H-M   'P a -3'
_symmetry_Int_Tables_number      205
_space_group_name_Hall           '-P 2ac 2ab 3'
loop_
_symmetry_equiv_pos_site_id
_symmetry_equiv_pos_as_xyz
1 x,y,z
2 1/2-x,-y,1/2+z
3 -x,1/2+y,1/2-z
4 1/2+x,1/2-y,-z
5 z,x,y
6 1/2+z,1/2-x,-y
7 1/2-z,-x,1/2+y
8 -z,1/2+x,1/2-y
9 y,z,x
10 -y,1/2+z,1/2-x
11 1/2+y,1/2-z,-x
12 1/2-y,-z,1/2+x
13 -x,-y,-z
14 1/2+x,y,1/2-z
15 x,1/2-y,1/2+z
16 1/2-x,1/2+y,z
17 -z,-x,-y
18 1/2-z,1/2+x,y
19 1/2+z,x,1/2-y
20 z,1/2-x,1/2+y
21 -y,-z,-x
22 y,1/2-z,1/2+x
23 1/2-y,1/2+z,x
24 1/2+y,z,1/2-x
_cell_length_a                   13.2400(6)
_cell_length_b                   13.2400(6)
_cell_length_c                   13.2400(6)
_cell_angle_alpha                90
_cell_angle_beta                 90
_cell_angle_gamma                90
_cell_volume                     2320.94
loop_
_atom_site_label
_atom_site_type_symbol
_atom_site_fract_x
_atom_site_fract_y
_atom_site_fract_z
Fe1 Fe 0.5000 0.0000 1.0000
K1 K 1.0000 0.0000 1.0000
N1 N 0.63699(15) -0.06304(16) 0.95581(16)
N2 N 0.71569(17) -0.01918(17) 0.96236(18)
N3 N 0.7924(2) 0.0204(2) 0.9663(3)
N1D N 0.95581(16) -0.36301(15) 0.93696(16)
N2D N 0.96236(18) -0.28431(17) 0.98082(17)
N3D N 0.9663(3) -0.2076(2) 1.0204(2)
N1H N 0.93696(16) -0.04419(16) 0.63699(15)
N2H N 0.98082(17) -0.03764(18) 0.71569(17)
N3H N 1.0204(2) -0.0337(3) 0.7924(2)
N1L N 0.36301(15) 0.06304(16) 1.04419(16)
N2L N 0.28431(17) 0.01918(17) 1.03764(18)
N3L N 0.2076(2) -0.0204(2) 1.0337(3)
N1Q N 0.54419(16) 0.13699(15) 0.93696(16)
N2Q N 0.53764(18) 0.21569(17) 0.98082(17)
N3Q N 0.5337(3) 0.2924(2) 1.0204(2)
N1W N 0.43696(16) -0.04419(16) 0.86301(15)
N2W N 0.48082(17) -0.03764(18) 0.78431(17)
N3W N 0.5204(2) -0.0337(3) 0.7076(2)
Fe1A Fe 1.0000 0.0000 0.5000
Fe1C Fe 1.0000 -0.5000 1.0000
K1_2 K 0.0000 0.0000 1.0000
K1A K 0.5000 0.0000 0.5000
K1C K 0.5000 0.5000 1.0000
N1E N 0.45581(16) -0.13699(15) 1.06304(16)
N1K N 0.56304(16) 0.04419(16) 1.13699(15)
N3L_2 N 1.2076(2) -0.0204(2) 1.0337(3)
N3P N 1.0337(3) 0.2076(2) 0.9796(2)
N3T N 0.9796(2) 0.0337(3) 1.2076(2)
N4 N 0.27321(19) 0.22679(19) 0.77321(19)
C1 C 0.2089(2) 0.2911(2) 0.7089(2)
H1 H 0.2016 0.2604 0.6436
C2 C 0.2901(3) 0.2784(3) 0.8724(3)
H2 H 0.3320 0.2367 0.9144
H3 H 0.2264 0.2894 0.9050
H4 H 0.3229 0.3420 0.8612
H1K H 0.2396 0.3564 0.7016
H1E H 0.1436 0.2984 0.7396
C2E C 0.3724(3) 0.2099(3) 0.7216(3)
H2E H 0.4144 0.1680 0.7633
H3E H 0.4050 0.2736 0.7106
H4E H 0.3612 0.1771 0.6580
C2K C 0.2216(3) 0.1276(3) 0.7901(3)
H2K H 0.2633 0.0856 0.8320
H3K H 0.2106 0.0950 0.7264
H4K H 0.1580 0.1388 0.8229
loop_
_geom_bond_atom_site_label_1
_geom_bond_atom_site_label_2
_geom_bond_site_symmetry_1
_geom_bond_site_symmetry_2
Fe1 N1 1_555 1_555
K1 N3 1_555 1_555
N1 N2 1_555 1_555
N2 N3 1_555 1_555
N4 C1 1_555 1_555
C1 H1 1_555 1_555
C2 N4 1_555 1_555
H2 C2 1_555 1_555
H3 C2 1_555 1_555
H4 C2 1_555 1_555
N1D N2D 1_555 1_555
N2D N3D 1_555 1_555
N3D K1 1_555 1_555
N1H N2H 1_555 1_555
N2H N3H 1_555 1_555
N3H K1 1_555 1_555
N1L Fe1 1_555 1_555
N2L N1L 1_555 1_555
N3L N2L 1_555 1_555
N1Q Fe1 1_555 1_555
N2Q N1Q 1_555 1_555
N3Q N2Q 1_555 1_555
N1W Fe1 1_555 1_555
N2W N1W 1_555 1_555
N3W N2W 1_555 1_555
Fe1A N1H 1_555 1_555
Fe1C N1D 1_555 1_555
K1_2 N3L 1_555 1_555
K1A N3W 1_555 1_555
K1C N3Q 1_555 1_555
N1E Fe1 1_555 1_555
N1K Fe1 1_555 1_555
N3L_2 K1 1_555 1_555
N3P K1 1_555 1_555
N3T K1 1_555 1_555
H1K C1 1_555 1_555
H1E C1 1_555 1_555
C2E N4 1_555 1_555
H2E C2E 1_555 1_555
H3E C2E 1_555 1_555
H4E C2E 1_555 1_555
C2K N4 1_555 1_555
H2K C2K 1_555 1_555
H3K C2K 1_555 1_555
H4K C2K 1_555 1_555

#END
