
#######################################################################
#
#                 Cambridge Crystallographic Data Centre
#                                CCDC 
#
#######################################################################
#
# If this CIF has been generated from an entry in the Cambridge 
# Structural Database, then it will include bibliographic, chemical, 
# crystal, experimental, refinement or atomic coordinate data resulting 
# from the CCDC's data processing and validation procedures.
#
#######################################################################

data_ROQMER03
_chemical_formula_moiety         '(C4 H12 Cr1 N19 Na1 1-)n'
_symmetry_cell_setting           cubic
_symmetry_space_group_name_H-M   'P a -3'
_symmetry_Int_Tables_number      205
_space_group_name_Hall           '-P 2ac 2ab 3'
loop_
_symmetry_equiv_pos_site_id
_symmetry_equiv_pos_as_xyz
1 x,y,z
2 1/2-x,-y,1/2+z
3 -x,1/2+y,1/2-z
4 1/2+x,1/2-y,-z
5 z,x,y
6 1/2+z,1/2-x,-y
7 1/2-z,-x,1/2+y
8 -z,1/2+x,1/2-y
9 y,z,x
10 -y,1/2+z,1/2-x
11 1/2+y,1/2-z,-x
12 1/2-y,-z,1/2+x
13 -x,-y,-z
14 1/2+x,y,1/2-z
15 x,1/2-y,1/2+z
16 1/2-x,1/2+y,z
17 -z,-x,-y
18 1/2-z,1/2+x,y
19 1/2+z,x,1/2-y
20 z,1/2-x,1/2+y
21 -y,-z,-x
22 y,1/2-z,1/2+x
23 1/2-y,1/2+z,x
24 1/2+y,z,1/2-x
_cell_length_a                   12.84340(10)
_cell_length_b                   12.84340(10)
_cell_length_c                   12.84340(10)
_cell_angle_alpha                90
_cell_angle_beta                 90
_cell_angle_gamma                90
_cell_volume                     2118.56
loop_
_atom_site_label
_atom_site_type_symbol
_atom_site_fract_x
_atom_site_fract_y
_atom_site_fract_z
Cr1 Cr 0.0000 0.0000 0.5000
Na1 Na 0.0000 0.0000 0.0000
N1 N 0.05915(19) 0.0425(2) 0.35886(17)
N2 N 0.0185(2) 0.0329(2) 0.27594(17)
N3 N -0.0162(2) 0.0272(3) 0.19383(19)
N1D N 0.35886(17) 0.05915(19) 0.0425(2)
N2D N 0.27594(17) 0.0185(2) 0.0329(2)
N3D N 0.19383(19) -0.0162(2) 0.0272(3)
N1H N 0.0425(2) 0.35886(17) 0.05915(19)
N2H N 0.0329(2) 0.27594(17) 0.0185(2)
N3H N 0.0272(3) 0.19383(19) -0.0162(2)
N1L N -0.05915(19) -0.0425(2) -0.35886(17)
N2L N -0.0185(2) -0.0329(2) -0.27594(17)
N3L N 0.0162(2) -0.0272(3) -0.19383(19)
N1P N -0.35886(17) -0.05915(19) -0.0425(2)
N2P N -0.27594(17) -0.0185(2) -0.0329(2)
N3P N -0.19383(19) 0.0162(2) -0.0272(3)
N1T N -0.0425(2) -0.35886(17) -0.05915(19)
N2T N -0.0329(2) -0.27594(17) -0.0185(2)
N3T N -0.0272(3) -0.19383(19) 0.0162(2)
Cr1_2 Cr 0.0000 0.0000 -0.5000
Cr1A Cr -0.5000 0.0000 0.0000
Cr1A_2 Cr 0.5000 0.0000 0.0000
Cr1B Cr 0.0000 -0.5000 0.0000
Cr1B_2 Cr 0.0000 0.5000 0.0000
N1F N 0.14114(17) -0.05915(19) 0.5425(2)
N1I N -0.0425(2) -0.14114(17) 0.44085(19)
N1L_2 N -0.05915(19) -0.0425(2) 0.64114(17)
N1R N -0.14114(17) 0.05915(19) 0.4575(2)
N1U N 0.0425(2) 0.14114(17) 0.55915(19)
N4 N 0.27162(16) 0.27162(16) 0.27162(16)
C1 C 0.2050(3) 0.2050(3) 0.2050(3)
H1 H 0.2361 0.1374 0.1983
C2 C 0.2205(3) 0.3750(3) 0.2859(3)
H2 H 0.2663 0.4205 0.3237
H3 H 0.1569 0.3663 0.3242
H4 H 0.2054 0.4048 0.2190
H1D H 0.1983 0.2361 0.1374
H1H H 0.1374 0.1983 0.2361
C2D C 0.2859(3) 0.2205(3) 0.3750(3)
H2D H 0.3237 0.2663 0.4205
H3D H 0.3242 0.1569 0.3663
H4D H 0.2190 0.2054 0.4048
C2H C 0.3750(3) 0.2859(3) 0.2205(3)
H2H H 0.4205 0.3237 0.2663
H3H H 0.3663 0.3242 0.1569
H4H H 0.4048 0.2190 0.2054
loop_
_geom_bond_atom_site_label_1
_geom_bond_atom_site_label_2
_geom_bond_site_symmetry_1
_geom_bond_site_symmetry_2
Cr1 N1 1_555 1_555
Na1 N3 1_555 1_555
N1 N2 1_555 1_555
N2 N3 1_555 1_555
N4 C1 1_555 1_555
C1 H1 1_555 1_555
C2 N4 1_555 1_555
H2 C2 1_555 1_555
H3 C2 1_555 1_555
H4 C2 1_555 1_555
N1D N2D 1_555 1_555
N2D N3D 1_555 1_555
N3D Na1 1_555 1_555
N1H N2H 1_555 1_555
N2H N3H 1_555 1_555
N3H Na1 1_555 1_555
N1L N2L 1_555 1_555
N2L N3L 1_555 1_555
N3L Na1 1_555 1_555
N1P N2P 1_555 1_555
N2P N3P 1_555 1_555
N3P Na1 1_555 1_555
N1T N2T 1_555 1_555
N2T N3T 1_555 1_555
N3T Na1 1_555 1_555
Cr1_2 N1L 1_555 1_555
Cr1A N1P 1_555 1_555
Cr1A_2 N1D 1_555 1_555
Cr1B N1T 1_555 1_555
Cr1B_2 N1H 1_555 1_555
N1F Cr1 1_555 1_555
N1I Cr1 1_555 1_555
N1L_2 Cr1 1_555 1_555
N1R Cr1 1_555 1_555
N1U Cr1 1_555 1_555
H1D C1 1_555 1_555
H1H C1 1_555 1_555
C2D N4 1_555 1_555
H2D C2D 1_555 1_555
H3D C2D 1_555 1_555
H4D C2D 1_555 1_555
C2H N4 1_555 1_555
H2H C2H 1_555 1_555
H3H C2H 1_555 1_555
H4H C2H 1_555 1_555

#END
