
#######################################################################
#
#                 Cambridge Crystallographic Data Centre
#                                CCDC 
#
#######################################################################
#
# If this CIF has been generated from an entry in the Cambridge 
# Structural Database, then it will include bibliographic, chemical, 
# crystal, experimental, refinement or atomic coordinate data resulting 
# from the CCDC's data processing and validation procedures.
#
#######################################################################

data_ROQNES
_chemical_formula_moiety         '(C4 H12 Cr1 K1 N19 1-)n'
_symmetry_cell_setting           cubic
_symmetry_space_group_name_H-M   'P a -3'
_symmetry_Int_Tables_number      205
_space_group_name_Hall           '-P 2ac 2ab 3'
loop_
_symmetry_equiv_pos_site_id
_symmetry_equiv_pos_as_xyz
1 x,y,z
2 1/2-x,-y,1/2+z
3 -x,1/2+y,1/2-z
4 1/2+x,1/2-y,-z
5 z,x,y
6 1/2+z,1/2-x,-y
7 1/2-z,-x,1/2+y
8 -z,1/2+x,1/2-y
9 y,z,x
10 -y,1/2+z,1/2-x
11 1/2+y,1/2-z,-x
12 1/2-y,-z,1/2+x
13 -x,-y,-z
14 1/2+x,y,1/2-z
15 x,1/2-y,1/2+z
16 1/2-x,1/2+y,z
17 -z,-x,-y
18 1/2-z,1/2+x,y
19 1/2+z,x,1/2-y
20 z,1/2-x,1/2+y
21 -y,-z,-x
22 y,1/2-z,1/2+x
23 1/2-y,1/2+z,x
24 1/2+y,z,1/2-x
_cell_length_a                   13.04840(10)
_cell_length_b                   13.04840(10)
_cell_length_c                   13.04840(10)
_cell_angle_alpha                90
_cell_angle_beta                 90
_cell_angle_gamma                90
_cell_volume                     2221.63
loop_
_atom_site_label
_atom_site_type_symbol
_atom_site_fract_x
_atom_site_fract_y
_atom_site_fract_z
Cr1 Cr 0.5000 0.5000 0.0000
K1 K 0.5000 0.5000 0.5000
N1 N 0.43416(13) 0.45478(13) 0.13490(13)
N2 N 0.47962(14) 0.45946(14) 0.21405(14)
N3 N 0.52098(18) 0.46214(18) 0.29280(15)
N1D N 0.13490(13) 0.43416(13) 0.45478(13)
N2D N 0.21405(14) 0.47962(14) 0.45946(14)
N3D N 0.29280(15) 0.52098(18) 0.46214(18)
N1H N 0.45478(13) 0.13490(13) 0.43416(13)
N2H N 0.45946(14) 0.21405(14) 0.47962(14)
N3H N 0.46214(18) 0.29280(15) 0.52098(18)
N1L N 0.56584(13) 0.54522(13) -0.13490(13)
N2L N 0.52038(14) 0.54054(14) -0.21405(14)
N3L N 0.47902(18) 0.53786(18) -0.29280(15)
N1R N 0.63490(13) 0.43416(13) 0.04522(13)
N2R N 0.71405(14) 0.47962(14) 0.04054(14)
N3R N 0.79280(15) 0.52098(18) 0.03786(18)
N1U N 0.45478(13) 0.36510(13) -0.06584(13)
N2U N 0.45946(14) 0.28595(14) -0.02038(14)
N3U N 0.46214(18) 0.20720(15) 0.02098(18)
Cr1A Cr 0.0000 0.5000 0.5000
Cr1B Cr 0.5000 0.0000 0.5000
K1_2 K 0.5000 0.5000 -0.5000
K1A K 1.0000 0.5000 0.0000
K1B K 0.5000 0.0000 0.0000
N1F N 0.36510(13) 0.56584(13) -0.04522(13)
N1I N 0.54522(13) 0.63490(13) 0.06584(13)
N3L_2 N 0.47902(18) 0.53786(18) 0.70720(15)
N3P N 0.70720(15) 0.47902(18) 0.53786(18)
N3T N 0.53786(18) 0.70720(15) 0.47902(18)
N4 N 0.22424(13) 0.22424(13) 0.22424(13)
C1 C 0.28967(17) 0.28967(17) 0.28967(17)
H1 H 0.2554 0.3555 0.3015
C2 C 0.2761(2) 0.12301(18) 0.2062(2)
H2 H 0.2325 0.0799 0.1628
H3 H 0.2877 0.0887 0.2720
H4 H 0.3420 0.1344 0.1720
H1H H 0.3555 0.3015 0.2554
H1D H 0.3015 0.2554 0.3555
C2D C 0.2062(2) 0.2761(2) 0.12301(18)
H2D H 0.1628 0.2325 0.0799
H3D H 0.2720 0.2877 0.0887
H4D H 0.1720 0.3420 0.1344
C2H C 0.12301(18) 0.2062(2) 0.2761(2)
H2H H 0.0799 0.1628 0.2325
H3H H 0.0887 0.2720 0.2877
H4H H 0.1344 0.1720 0.3420
loop_
_geom_bond_atom_site_label_1
_geom_bond_atom_site_label_2
_geom_bond_site_symmetry_1
_geom_bond_site_symmetry_2
Cr1 N1 1_555 1_555
K1 N3 1_555 1_555
N1 N2 1_555 1_555
N2 N3 1_555 1_555
N4 C1 1_555 1_555
C1 H1 1_555 1_555
C2 N4 1_555 1_555
H2 C2 1_555 1_555
H3 C2 1_555 1_555
H4 C2 1_555 1_555
N1D N2D 1_555 1_555
N2D N3D 1_555 1_555
N3D K1 1_555 1_555
N1H N2H 1_555 1_555
N2H N3H 1_555 1_555
N3H K1 1_555 1_555
N1L Cr1 1_555 1_555
N2L N1L 1_555 1_555
N3L N2L 1_555 1_555
N1R Cr1 1_555 1_555
N2R N1R 1_555 1_555
N3R N2R 1_555 1_555
N1U Cr1 1_555 1_555
N2U N1U 1_555 1_555
N3U N2U 1_555 1_555
Cr1A N1D 1_555 1_555
Cr1B N1H 1_555 1_555
K1_2 N3L 1_555 1_555
K1A N3R 1_555 1_555
K1B N3U 1_555 1_555
N1F Cr1 1_555 1_555
N1I Cr1 1_555 1_555
N3L_2 K1 1_555 1_555
N3P K1 1_555 1_555
N3T K1 1_555 1_555
H1H C1 1_555 1_555
H1D C1 1_555 1_555
C2D N4 1_555 1_555
H2D C2D 1_555 1_555
H3D C2D 1_555 1_555
H4D C2D 1_555 1_555
C2H N4 1_555 1_555
H2H C2H 1_555 1_555
H3H C2H 1_555 1_555
H4H C2H 1_555 1_555

#END
