
#######################################################################
#
#                 Cambridge Crystallographic Data Centre
#                                CCDC 
#
#######################################################################
#
# If this CIF has been generated from an entry in the Cambridge 
# Structural Database, then it will include bibliographic, chemical, 
# crystal, experimental, refinement or atomic coordinate data resulting 
# from the CCDC's data processing and validation procedures.
#
#######################################################################

data_ROQNES04
_chemical_formula_moiety         '(C4 H12 Cr1 K1 N19 1-)n'
_symmetry_cell_setting           cubic
_symmetry_space_group_name_H-M   'P a -3'
_symmetry_Int_Tables_number      205
_space_group_name_Hall           '-P 2ac 2ab 3'
loop_
_symmetry_equiv_pos_site_id
_symmetry_equiv_pos_as_xyz
1 x,y,z
2 1/2-x,-y,1/2+z
3 -x,1/2+y,1/2-z
4 1/2+x,1/2-y,-z
5 z,x,y
6 1/2+z,1/2-x,-y
7 1/2-z,-x,1/2+y
8 -z,1/2+x,1/2-y
9 y,z,x
10 -y,1/2+z,1/2-x
11 1/2+y,1/2-z,-x
12 1/2-y,-z,1/2+x
13 -x,-y,-z
14 1/2+x,y,1/2-z
15 x,1/2-y,1/2+z
16 1/2-x,1/2+y,z
17 -z,-x,-y
18 1/2-z,1/2+x,y
19 1/2+z,x,1/2-y
20 z,1/2-x,1/2+y
21 -y,-z,-x
22 y,1/2-z,1/2+x
23 1/2-y,1/2+z,x
24 1/2+y,z,1/2-x
_cell_length_a                   13.16420(10)
_cell_length_b                   13.16420(10)
_cell_length_c                   13.16420(10)
_cell_angle_alpha                90
_cell_angle_beta                 90
_cell_angle_gamma                90
_cell_volume                     2281.31
loop_
_atom_site_label
_atom_site_type_symbol
_atom_site_fract_x
_atom_site_fract_y
_atom_site_fract_z
Cr1 Cr 0.5000 0.5000 0.0000
K1 K 0.5000 0.5000 0.5000
N1 N 0.4384(2) 0.4575(3) 0.1353(2)
N2 N 0.4822(3) 0.4644(3) 0.2144(2)
N3 N 0.5185(3) 0.4683(4) 0.2922(3)
N1D N 0.1353(2) 0.4384(2) 0.4575(3)
N2D N 0.2144(2) 0.4822(3) 0.4644(3)
N3D N 0.2922(3) 0.5185(3) 0.4683(4)
N1H N 0.4575(3) 0.1353(2) 0.4384(2)
N2H N 0.4644(3) 0.2144(2) 0.4822(3)
N3H N 0.4683(4) 0.2922(3) 0.5185(3)
N1L N 0.5616(2) 0.5425(3) -0.1353(2)
N2L N 0.5178(3) 0.5356(3) -0.2144(2)
N3L N 0.4815(3) 0.5317(4) -0.2922(3)
N1R N 0.6353(2) 0.4384(2) 0.0425(3)
N2R N 0.7144(2) 0.4822(3) 0.0356(3)
N3R N 0.7922(3) 0.5185(3) 0.0317(4)
N1U N 0.4575(3) 0.3647(2) -0.0616(2)
N2U N 0.4644(3) 0.2856(2) -0.0178(3)
N3U N 0.4683(4) 0.2078(3) 0.0185(3)
Cr1A Cr 0.0000 0.5000 0.5000
Cr1B Cr 0.5000 0.0000 0.5000
K1_2 K 0.5000 0.5000 -0.5000
K1A K 1.0000 0.5000 0.0000
K1B K 0.5000 0.0000 0.0000
N1F N 0.3647(2) 0.5616(2) -0.0425(3)
N1I N 0.5425(3) 0.6353(2) 0.0616(2)
N3L_2 N 0.4815(3) 0.5317(4) 0.7078(3)
N3P N 0.7078(3) 0.4815(3) 0.5317(4)
N3T N 0.5317(4) 0.7078(3) 0.4815(3)
N4 N 0.2281(2) 0.2281(2) 0.2281(2)
C1 C 0.2918(4) 0.2918(4) 0.2918(4)
H1 H 0.2589 0.3560 0.3025
C2 C 0.2787(5) 0.1293(4) 0.2096(4)
H2 H 0.2361 0.0877 0.1674
H3 H 0.2903 0.0956 0.2732
H4 H 0.3425 0.1405 0.1760
H1H H 0.3560 0.3025 0.2589
H1D H 0.3025 0.2589 0.3560
C2D C 0.2096(4) 0.2787(5) 0.1293(4)
H2D H 0.1674 0.2361 0.0877
H3D H 0.2732 0.2903 0.0956
H4D H 0.1760 0.3425 0.1405
C2H C 0.1293(4) 0.2096(4) 0.2787(5)
H2H H 0.0877 0.1674 0.2361
H3H H 0.0956 0.2732 0.2903
H4H H 0.1405 0.1760 0.3425
loop_
_geom_bond_atom_site_label_1
_geom_bond_atom_site_label_2
_geom_bond_site_symmetry_1
_geom_bond_site_symmetry_2
Cr1 N1 1_555 1_555
K1 N3 1_555 1_555
N1 N2 1_555 1_555
N2 N3 1_555 1_555
N4 C1 1_555 1_555
C1 H1 1_555 1_555
C2 N4 1_555 1_555
H2 C2 1_555 1_555
H3 C2 1_555 1_555
H4 C2 1_555 1_555
N1D N2D 1_555 1_555
N2D N3D 1_555 1_555
N3D K1 1_555 1_555
N1H N2H 1_555 1_555
N2H N3H 1_555 1_555
N3H K1 1_555 1_555
N1L Cr1 1_555 1_555
N2L N1L 1_555 1_555
N3L N2L 1_555 1_555
N1R Cr1 1_555 1_555
N2R N1R 1_555 1_555
N3R N2R 1_555 1_555
N1U Cr1 1_555 1_555
N2U N1U 1_555 1_555
N3U N2U 1_555 1_555
Cr1A N1D 1_555 1_555
Cr1B N1H 1_555 1_555
K1_2 N3L 1_555 1_555
K1A N3R 1_555 1_555
K1B N3U 1_555 1_555
N1F Cr1 1_555 1_555
N1I Cr1 1_555 1_555
N3L_2 K1 1_555 1_555
N3P K1 1_555 1_555
N3T K1 1_555 1_555
H1H C1 1_555 1_555
H1D C1 1_555 1_555
C2D N4 1_555 1_555
H2D C2D 1_555 1_555
H3D C2D 1_555 1_555
H4D C2D 1_555 1_555
C2H N4 1_555 1_555
H2H C2H 1_555 1_555
H3H C2H 1_555 1_555
H4H C2H 1_555 1_555

#END
