
#######################################################################
#
#                 Cambridge Crystallographic Data Centre
#                                CCDC 
#
#######################################################################
#
# If this CIF has been generated from an entry in the Cambridge 
# Structural Database, then it will include bibliographic, chemical, 
# crystal, experimental, refinement or atomic coordinate data resulting 
# from the CCDC's data processing and validation procedures.
#
#######################################################################

data_OSUVIJ
_chemical_formula_moiety         '(C66 H53 N2 O21 Si2 U2 1-)n'
_symmetry_cell_setting           triclinic
_symmetry_space_group_name_H-M   'P -1'
_symmetry_Int_Tables_number      2
_space_group_name_Hall           '-P 1'
loop_
_symmetry_equiv_pos_site_id
_symmetry_equiv_pos_as_xyz
1 x,y,z
2 -x,-y,-z
_cell_length_a                   10.4237(13)
_cell_length_b                   14.7281(17)
_cell_length_c                   25.599(3)
_cell_angle_alpha                81.665(2)
_cell_angle_beta                 82.260(3)
_cell_angle_gamma                71.667(3)
_cell_volume                     3674.48
loop_
_atom_site_label
_atom_site_type_symbol
_atom_site_fract_x
_atom_site_fract_y
_atom_site_fract_z
U1 U 1.03588(3) 0.57406(2) 0.32523(2)
U2 U 0.52521(4) 1.09864(3) 0.82611(2)
Si1 Si 0.7219(2) 1.11017(17) 0.47236(9)
Si2 Si 0.1572(5) 0.6370(2) 0.96918(11)
O1 O 0.3539(7) 1.1540(5) 0.8173(2)
O2 O 0.4780(12) 0.9471(6) 0.8292(3)
O3 O 0.5516(8) 1.0397(5) 0.7395(3)
O4 O 0.6100(7) 1.1716(5) 0.7389(2)
O5 O 0.4851(7) 0.1764(5) 0.9080(2)
O6 O 0.5414(7) 0.2573(5) 0.8341(2)
O7 O 0.4690(9) 0.9965(5) 0.9060(2)
O8 O 0.8484(6) 0.7207(4) 0.3370(2)
O9 O 0.9427(7) 0.6423(4) 0.4091(2)
O10 O 0.1349(6) 1.4704(4) 0.4053(2)
O11 O 0.2322(7) 1.4272(5) 0.3267(2)
O12 O 0.1365(8) 0.5243(5) 1.2385(3)
O13 O -0.0429(8) 0.6533(5) 1.2380(2)
O14 O 1.1467(7) 0.6450(5) 0.3194(2)
O15 O 0.9247(7) 0.5045(5) 0.3303(3)
C1 C 0.7445(9) 1.1621(7) 0.5746(3)
H1 H 0.7964 1.2014 0.5560
C2 C 0.7040(9) 1.1043(6) 0.5468(3)
C3 C 0.7118(10) 1.1646(7) 0.6290(4)
H2 H 0.7365 1.2078 0.6469
C4 C 0.6425(9) 1.1031(6) 0.6567(3)
C5 C 0.7484(8) 0.9881(6) 0.4514(3)
C6 C 0.8344(10) 0.9061(6) 0.4767(3)
H3 H 0.8683 0.9105 0.5086
C7 C 0.8717(9) 0.8182(6) 0.4567(3)
H4 H 0.9319 0.7630 0.4741
C8 C 0.8192(9) 0.8116(6) 0.4098(3)
C9 C 0.8706(10) 0.7205(6) 0.3840(4)
C10 C 0.5980(10) 1.1044(7) 0.7144(4)
C11 C 0.0537(11) 0.5953(7) 1.2127(4)
C12 C 0.5655(9) 1.1993(6) 0.4476(4)
C13 C 0.4448(8) 1.2373(6) 0.4777(3)
H5 H 0.4359 1.2146 0.5143
C14 C 0.3355(9) 1.3083(6) 0.4558(3)
H6 H 0.2548 1.3340 0.4778
C15 C 0.3435(10) 1.3416(6) 0.4021(3)
C16 C 0.4621(10) 1.3012(7) 0.3699(4)
H7 H 0.4675 1.3196 0.3327
C17 C 0.5715(10) 1.2341(7) 0.3929(4)
H8 H 0.6536 1.2105 0.3712
C18 C 0.6932(9) 0.9784(6) 0.4059(3)
H9 H 0.6307 1.0328 0.3889
C19 C 0.7298(9) 0.8896(6) 0.3856(3)
H10 H 0.6921 0.8837 0.3549
C20 C 0.8690(10) 1.2471(7) 0.4404(4)
H11 H 0.7977 1.2890 0.4606
C21 C 0.8660(9) 1.1520(7) 0.4390(3)
C22 C 0.9733(9) 1.0945(6) 0.4077(3)
H12 H 0.9769 1.0298 0.4058
C23 C 0.6040(9) 1.0416(7) 0.6300(3)
H13 H 0.5580 0.9988 0.6491
C24 C 0.6330(9) 1.0430(7) 0.5753(4)
H14 H 0.6045 1.0021 0.5570
C25 C 0.4887(10) 0.2541(8) 0.8828(4)
C26 C 0.4228(11) 0.3484(7) 0.9064(4)
C27 C 0.3594(11) 0.3458(7) 0.9572(3)
H15 H 0.3658 0.2862 0.9782
C28 C 0.2303(9) 1.4165(6) 0.3780(4)
C29 C 0.0768(12) 0.6072(7) 1.1546(4)
C30 C 0.2062(14) 0.5831(8) 1.1290(4)
H16 H 0.2816 0.5594 1.1496
C31 C -0.0331(13) 0.6438(7) 1.1226(4)
H17 H -0.1232 0.6638 1.1391
C32 C 0.9711(12) 1.2809(8) 0.4136(4)
H18 H 0.9704 1.3450 0.4157
C33 C 1.0748(12) 1.2211(9) 0.3835(4)
H19 H 1.1467 1.2436 0.3656
C34 C 1.0740(10) 1.1293(7) 0.3796(4)
H20 H 1.1430 1.0896 0.3575
C35 C -0.0120(14) 0.6510(7) 1.0683(4)
H21 H -0.0872 0.6734 1.0476
C36 C 0.2290(13) 0.5922(8) 1.0753(4)
H22 H 0.3198 0.5758 1.0593
C37 C 0.4132(13) 0.4357(8) 0.8748(4)
H23 H 0.4557 0.4371 0.8396
C38 C 0.3406(14) 0.5195(8) 0.8963(4)
H24 H 0.3354 0.5789 0.8752
C39 C 0.2848(13) 0.4333(7) 0.9772(4)
H25 H 0.2405 0.4319 1.0121
C40 C 0.2347(15) 0.7345(8) 0.9458(4)
C41 C 0.3111(15) 0.7665(8) 0.9760(4)
H26 H 0.3150 0.7424 1.0124
C42 C 0.3807(16) 0.8311(8) 0.9556(4)
H27 H 0.4271 0.8528 0.9784
C43 C 0.1221(15) 0.6251(7) 1.0431(4)
C44 C 0.2739(13) 0.5216(7) 0.9474(4)
C45 C 0.0006(16) 0.6718(8) 0.9343(4)
C46 C -0.0326(14) 0.6135(8) 0.9041(4)
H28 H 0.0268 0.5499 0.9023
C47 C -0.1461(15) 0.6411(9) 0.8765(4)
H29 H -0.1636 0.5975 0.8565
C48 C 0.3225(18) 0.8288(10) 0.8715(6)
H30 H 0.3339 0.8440 0.8342
C49 C 0.3837(18) 0.8639(8) 0.9036(4)
C50 C -0.092(2) 0.7612(10) 0.9375(6)
H31 H -0.0755 0.8040 0.9583
C51 C -0.2331(18) 0.7324(11) 0.8784(5)
H32 H -0.3071 0.7539 0.8571
C52 C 0.2409(18) 0.7690(10) 0.8939(6)
H33 H 0.1883 0.7525 0.8713
C53 C -0.216(2) 0.7930(12) 0.9102(7)
H34 H -0.2812 0.8537 0.9145
O16 O 0.6940(8) 1.0443(7) 0.8348(3)
C54 C 0.4504(15) 0.9366(9) 0.8790(4)
U1_2 U 0.03588(3) 0.57406(2) 1.32523(2)
U1_3 U 0.03588(3) 1.57406(2) 0.32523(2)
U2_2 U 0.52521(4) 0.09864(3) 0.82611(2)
O5_2 O 0.4851(7) 1.1764(5) 0.9080(2)
O6_2 O 0.5414(7) 1.2573(5) 0.8341(2)
O10_2 O 1.1349(6) 0.4704(4) 0.4053(2)
O11_2 O 1.2322(7) 0.4272(5) 0.3267(2)
O12_2 O 1.1365(8) 0.5243(5) 0.2385(3)
O13_2 O 0.9571(8) 0.6533(5) 0.2380(2)
O17 O 0.6713(9) 0.6727(6) 0.7568(3)
H35 H 0.6311 0.7056 0.7324
H36 H 0.7521 0.6352 0.7536
O18 O 0.5118(7) 0.8583(5) 0.7258(3)
H37 H 0.4290 0.8651 0.7380
H38 H 0.5324 0.9052 0.7365
O19 O 0.5744(17) 0.4186(10) 0.7523(6)
H39 H 0.5277 0.4023 0.7326
H40 H 0.6146 0.3697 0.7725
N1 N 0.3038(10) 0.7305(7) 0.7452(3)
N2 N 0.2435(9) 0.9235(6) 0.7408(3)
C55 C 0.1724(11) 0.7821(8) 0.7471(3)
C56 C 0.2338(13) 0.5890(9) 0.7498(5)
H41 H 0.2595 0.5210 0.7507
C57 C 0.3302(13) 0.6356(8) 0.7464(4)
H42 H 0.4227 0.5975 0.7447
C58 C 0.0972(13) 0.6437(8) 0.7521(4)
H43 H 0.0283 0.6136 0.7535
C59 C 0.0647(12) 0.7397(8) 0.7524(4)
C60 C 0.1396(11) 0.8838(8) 0.7460(4)
C61 C -0.0752(12) 0.8039(9) 0.7563(5)
H44 H -0.1479 0.7767 0.7602
C62 C -0.1038(11) 0.8994(9) 0.7546(4)
H45 H -0.1958 0.9386 0.7573
C63 C 0.0024(11) 0.9428(8) 0.7486(4)
C64 C -0.0202(13) 1.0416(9) 0.7476(4)
H46 H -0.1108 1.0832 0.7495
C65 C 0.0860(13) 1.0807(9) 0.7438(4)
H47 H 0.0687 1.1481 0.7436
C66 C 0.2169(13) 1.0201(8) 0.7405(4)
H48 H 0.2904 1.0462 0.7380
O20 O 0.8070(18) 0.2554(13) 0.7860(7)
O21 O 0.340(2) 0.3598(13) 0.7458(7)
loop_
_geom_bond_atom_site_label_1
_geom_bond_atom_site_label_2
_geom_bond_site_symmetry_1
_geom_bond_site_symmetry_2
U1 O8 1_555 1_555
U2 O1 1_555 1_555
Si1 C2 1_555 1_555
Si2 C40 1_555 1_555
O2 U2 1_555 1_555
O3 U2 1_555 1_555
O4 U2 1_555 1_555
O5 C25 1_555 1_555
O6 C25 1_555 1_555
O7 U2 1_555 1_555
O8 C9 1_555 1_555
O9 U1 1_555 1_555
O10 C28 1_555 1_555
O11 C28 1_555 1_555
O12 C11 1_555 1_555
O13 C11 1_555 1_555
O14 U1 1_555 1_555
O15 U1 1_555 1_555
C1 H1 1_555 1_555
C2 C1 1_555 1_555
C3 C1 1_555 1_555
H2 C3 1_555 1_555
C4 C3 1_555 1_555
C5 Si1 1_555 1_555
C6 C5 1_555 1_555
H3 C6 1_555 1_555
C7 C6 1_555 1_555
H4 C7 1_555 1_555
C8 C7 1_555 1_555
C9 O9 1_555 1_555
C10 O3 1_555 1_555
C11 C29 1_555 1_555
C12 Si1 1_555 1_555
C13 C12 1_555 1_555
H5 C13 1_555 1_555
C14 C13 1_555 1_555
H6 C14 1_555 1_555
C15 C14 1_555 1_555
C16 C15 1_555 1_555
H7 C16 1_555 1_555
C17 C12 1_555 1_555
H8 C17 1_555 1_555
C18 C5 1_555 1_555
H9 C18 1_555 1_555
C19 C8 1_555 1_555
H10 C19 1_555 1_555
C20 H11 1_555 1_555
C21 Si1 1_555 1_555
C22 C21 1_555 1_555
H12 C22 1_555 1_555
C23 C4 1_555 1_555
H13 C23 1_555 1_555
C24 C2 1_555 1_555
H14 C24 1_555 1_555
C25 C26 1_555 1_555
C26 C27 1_555 1_555
C27 H15 1_555 1_555
C28 C15 1_555 1_555
C29 C30 1_555 1_555
C30 H16 1_555 1_555
C31 C29 1_555 1_555
H17 C31 1_555 1_555
C32 C20 1_555 1_555
H18 C32 1_555 1_555
C33 C32 1_555 1_555
H19 C33 1_555 1_555
C34 C22 1_555 1_555
H20 C34 1_555 1_555
C35 C31 1_555 1_555
H21 C35 1_555 1_555
C36 C30 1_555 1_555
H22 C36 1_555 1_555
C37 C26 1_555 1_555
H23 C37 1_555 1_555
C38 C37 1_555 1_555
H24 C38 1_555 1_555
C39 C27 1_555 1_555
H25 C39 1_555 1_555
C40 C41 1_555 1_555
C41 H26 1_555 1_555
C42 C41 1_555 1_555
H27 C42 1_555 1_555
C43 Si2 1_555 1_555
C44 Si2 1_555 1_555
C45 Si2 1_555 1_555
C46 C45 1_555 1_555
H28 C46 1_555 1_555
C47 C46 1_555 1_555
H29 C47 1_555 1_555
C48 H30 1_555 1_555
C49 C42 1_555 1_555
C50 C45 1_555 1_555
H31 C50 1_555 1_555
C51 C47 1_555 1_555
H32 C51 1_555 1_555
C52 C40 1_555 1_555
H33 C52 1_555 1_555
C53 C50 1_555 1_555
H34 C53 1_555 1_555
O16 U2 1_555 1_555
C54 O2 1_555 1_555
O17 H35 1_555 1_555
H36 O17 1_555 1_555
O18 H37 1_555 1_555
H38 O18 1_555 1_555
O19 H39 1_555 1_555
H40 O19 1_555 1_555
N1 C55 1_555 1_555
N2 C60 1_555 1_555
C55 C59 1_555 1_555
C56 H41 1_555 1_555
C57 N1 1_555 1_555
H42 C57 1_555 1_555
C58 C56 1_555 1_555
H43 C58 1_555 1_555
C59 C58 1_555 1_555
C60 C55 1_555 1_555
C61 C59 1_555 1_555
H44 C61 1_555 1_555
C62 C61 1_555 1_555
H45 C62 1_555 1_555
C63 C60 1_555 1_555
C64 C63 1_555 1_555
H46 C64 1_555 1_555
C65 C64 1_555 1_555
H47 C65 1_555 1_555
C66 N2 1_555 1_555
H48 C66 1_555 1_555
U1_2 O12 1_555 1_555
U1_3 O10 1_555 1_555
U2_2 O5 1_555 1_555
O5_2 U2 1_555 1_555
O6_2 U2 1_555 1_555
O10_2 U1 1_555 1_555
O11_2 U1 1_555 1_555
O12_2 U1 1_555 1_555
O13_2 U1 1_555 1_555
O4 C10 1_555 1_555
O6 U2_2 1_555 1_555
O7 C54 1_555 1_555
O11 U1_3 1_555 1_555
O13 U1_2 1_555 1_555
C4 C10 1_555 1_555
C8 C9 1_555 1_555
C16 C17 1_555 1_555
C18 C19 1_555 1_555
C20 C21 1_555 1_555
C23 C24 1_555 1_555
C33 C34 1_555 1_555
C35 C43 1_555 1_555
C36 C43 1_555 1_555
C38 C44 1_555 1_555
C39 C44 1_555 1_555
C48 C49 1_555 1_555
C48 C52 1_555 1_555
C49 C54 1_555 1_555
C51 C53 1_555 1_555
C56 C57 1_555 1_555
C62 C63 1_555 1_555
C65 C66 1_555 1_555

#END
