
#######################################################################
#
#                 Cambridge Crystallographic Data Centre
#                                CCDC 
#
#######################################################################
#
# If this CIF has been generated from an entry in the Cambridge 
# Structural Database, then it will include bibliographic, chemical, 
# crystal, experimental, refinement or atomic coordinate data resulting 
# from the CCDC's data processing and validation procedures.
#
#######################################################################

data_HUCLIB
_chemical_formula_moiety         '(C28 H20 Ag2 N4 O18 Sm2)n'
_symmetry_cell_setting           monoclinic
_symmetry_space_group_name_H-M   'P 21/c'
_symmetry_Int_Tables_number      14
_space_group_name_Hall           '-P 2ybc'
loop_
_symmetry_equiv_pos_site_id
_symmetry_equiv_pos_as_xyz
1 x,y,z
2 -x,1/2+y,1/2-z
3 -x,-y,-z
4 x,1/2-y,1/2+z
_cell_length_a                   9.7145(9)
_cell_length_b                   22.3444(15)
_cell_length_c                   9.1726(6)
_cell_angle_alpha                90
_cell_angle_beta                 117.295(1)
_cell_angle_gamma                90
_cell_volume                     1769.36
loop_
_atom_site_label
_atom_site_type_symbol
_atom_site_fract_x
_atom_site_fract_y
_atom_site_fract_z
Sm1 Sm 0.85715(2) 0.991315(8) 0.11767(2)
Ag1 Ag 0.82067(4) 0.852371(14) 0.48309(5)
O1 O 0.8835(3) 0.94402(11) 0.3695(3)
N1 N 0.3746(4) 1.11589(15) -0.5163(4)
C1 C 0.6166(4) 1.06383(16) -0.4147(4)
C2 C 0.5211(5) 1.11871(19) -0.6648(5)
H1 H 0.5304 1.1319 -0.7560
C3 C 0.4846(4) 1.08049(17) -0.4047(5)
H2 H 0.4709 1.0666 -0.3166
C4 C 0.3958(5) 1.13434(19) -0.6441(5)
H3 H 0.3212 1.1590 -0.7221
C5 C 0.7414(4) 1.02774(16) -0.2811(4)
C6 C 0.6338(5) 1.08310(17) -0.5490(4)
H4 H 0.7205 1.0721 -0.5608
O2 O 0.7100(3) 1.00326(11) -0.1769(3)
O3 O 0.8691(3) 1.02617(13) -0.2834(3)
N2 N 0.9619(4) 0.71704(14) -0.0463(4)
C7 C 0.9364(4) 0.77382(16) -0.0208(5)
H5 H 0.8605 0.7816 0.0117
C8 C 1.1309(5) 0.8101(2) -0.0864(5)
H6 H 1.1876 0.8411 -0.1006
C9 C 1.0722(5) 0.70695(19) -0.0931(5)
H7 H 1.0903 0.6678 -0.1141
O4 O 0.6156(3) 0.93618(11) 0.0496(3)
C10 C 1.0169(4) 0.82184(16) -0.0401(4)
C11 C 1.1588(5) 0.7517(2) -0.1111(6)
H8 H 1.2365 0.7427 -0.1400
C12 C 0.9793(4) 0.96697(16) 0.5028(4)
O5 O 1.0418(3) 0.94114(11) 0.6386(3)
O6 O 0.3580(3) 0.94430(11) -0.0787(3)
C13 C 0.9771(4) 0.88357(15) -0.0078(4)
O9 O 0.8882(3) 0.88843(11) 0.0557(3)
O10 O 1.0350(3) 0.92754(12) -0.0448(3)
C14 C 0.4919(4) 0.96531(16) -0.0083(4)
Sm1B Sm 1.14285(2) 1.008685(8) 0.88233(2)
Sm1B_2 Sm 1.14285(2) 1.008685(8) -0.11767(2)
Sm1B_3 Sm 0.14285(2) 1.008685(8) -0.11767(2)
Ag1B Ag 1.17933(4) 1.147629(14) 0.51691(5)
Ag1B_2 Ag 0.17933(4) 1.147629(14) -0.48309(5)
Ag1C Ag 0.82067(4) 0.647629(14) -0.01691(5)
Ag1_2 Ag 1.82067(4) 0.852371(14) 0.48309(5)
Ag1A Ag 1.17933(4) 1.352371(14) 0.01691(5)
O1B O 1.1165(3) 1.05598(11) 0.6305(3)
N1B N 1.6254(4) 0.88411(15) 0.5163(4)
N1B_2 N 0.6254(4) 0.88411(15) 0.5163(4)
N1_2 N 1.3746(4) 1.11589(15) 0.4837(4)
C1B C 1.3834(4) 0.93617(16) 0.4147(4)
C2B C 1.4789(5) 0.88129(19) 0.6648(5)
H1B H 1.4696 0.8681 0.7560
C3B C 1.5154(4) 0.91951(17) 0.4047(5)
H2B H 1.5291 0.9334 0.3166
C4B C 1.6042(5) 0.86566(19) 0.6441(5)
H3B H 1.6788 0.8410 0.7221
C5B C 1.2586(4) 0.97226(16) 0.2811(4)
C6B C 1.3662(5) 0.91690(17) 0.5490(4)
H4B H 1.2795 0.9279 0.5608
O2B O 1.2900(3) 0.99674(11) 0.1769(3)
O2B_2 O 1.2900(3) 0.99674(11) 1.1769(3)
O3B O 1.1309(3) 0.97383(13) 0.2834(3)
O3_2 O 0.8691(3) 1.02617(13) 0.7166(3)
N2B N 1.0381(4) 1.28296(14) 0.0463(4)
N2C N 0.9619(4) 0.78296(14) 0.4537(4)
N2A N 1.0381(4) 1.21704(14) 0.5463(4)
C7B C 1.0636(4) 1.22618(16) 0.0208(5)
H5B H 1.1395 1.2184 -0.0117
C8B C 0.8691(5) 1.1899(2) 0.0864(5)
H6B H 0.8124 1.1589 0.1006
C9B C 0.9278(5) 1.29305(19) 0.0931(5)
H7B H 0.9097 1.3322 0.1141
O4B O 0.3844(3) 1.06382(11) -0.0496(3)
O4B_2 O 1.3844(3) 1.06382(11) 0.9504(3)
C10B C 0.9831(4) 1.17816(16) 0.0401(4)
C11B C 0.8412(5) 1.2483(2) 0.1111(6)
H8B H 0.7635 1.2573 0.1400
C12B C 1.0207(4) 1.03303(16) 0.4972(4)
O5B O 0.9582(3) 1.05886(11) 0.3614(3)
O6B O 0.6420(3) 1.05570(11) 0.0787(3)
O6_2 O 1.3580(3) 0.94430(11) 0.9213(3)
C13B C 1.0229(4) 1.11643(15) 0.0078(4)
O9B O 1.1118(3) 1.11157(11) -0.0557(3)
O9B_2 O 1.1118(3) 1.11157(11) 0.9443(3)
O10B O 0.9650(3) 1.07246(12) 0.0448(3)
O10_2 O 1.0350(3) 0.92754(12) 0.9552(3)
C14B C 0.5081(4) 1.03469(16) 0.0083(4)
O7 O 0.6113(6) 0.69616(19) 0.5607(5)
H9 H 0.6115 0.6576 0.5630
H10 H 0.5551 0.7081 0.6053
O8 O 0.4884(7) 0.7331(2) 0.7801(6)
H11 H 0.4044 0.7508 0.7119
H12 H 0.5226 0.7525 0.8720
loop_
_geom_bond_atom_site_label_1
_geom_bond_atom_site_label_2
_geom_bond_site_symmetry_1
_geom_bond_site_symmetry_2
Sm1 O1 1_555 1_555
Ag1 O1 1_555 1_555
O1 C12 1_555 1_555
N1 C3 1_555 1_555
C1 C3 1_555 1_555
C2 H1 1_555 1_555
C3 H2 1_555 1_555
C4 N1 1_555 1_555
H3 C4 1_555 1_555
C5 C1 1_555 1_555
C6 C1 1_555 1_555
H4 C6 1_555 1_555
O2 Sm1 1_555 1_555
O3 C5 1_555 1_555
N2 C7 1_555 1_555
C7 H5 1_555 1_555
C8 H6 1_555 1_555
C9 N2 1_555 1_555
H7 C9 1_555 1_555
O4 Sm1 1_555 1_555
C10 C7 1_555 1_555
C11 C8 1_555 1_555
H8 C11 1_555 1_555
C12 O5 1_555 1_555
O5 Sm1B 1_555 1_555
O6 C14 1_555 1_555
O7 H9 1_555 1_555
H10 O7 1_555 1_555
O8 H11 1_555 1_555
H12 O8 1_555 1_555
C13 C10 1_555 1_555
O9 Sm1 1_555 1_555
O10 C13 1_555 1_555
C14 O4 1_555 1_555
Sm1B O1B 1_555 1_555
Sm1B_2 O3 1_555 1_555
Sm1B_3 O6 1_555 1_555
Ag1B O1B 1_555 1_555
Ag1B_2 N1 1_555 1_555
Ag1C N2 1_555 1_555
Ag1_2 N1B 1_555 1_555
Ag1A N2B 1_555 1_555
O1B C12B 1_555 1_555
N1B C3B 1_555 1_555
N1B_2 Ag1 1_555 1_555
N1_2 Ag1B 1_555 1_555
C1B C3B 1_555 1_555
C2B H1B 1_555 1_555
C3B H2B 1_555 1_555
C4B N1B 1_555 1_555
H3B C4B 1_555 1_555
C5B C1B 1_555 1_555
C6B C1B 1_555 1_555
H4B C6B 1_555 1_555
O2B Sm1B_2 1_555 1_555
O2B_2 Sm1B 1_555 1_555
O3B Sm1 1_555 1_555
O3_2 Sm1B 1_555 1_555
N2B C7B 1_555 1_555
N2C Ag1 1_555 1_555
N2A Ag1B 1_555 1_555
C7B H5B 1_555 1_555
C8B H6B 1_555 1_555
C9B N2B 1_555 1_555
H7B C9B 1_555 1_555
O4B Sm1B_3 1_555 1_555
O4B_2 Sm1B 1_555 1_555
C10B C7B 1_555 1_555
C11B C8B 1_555 1_555
H8B C11B 1_555 1_555
C12B C12 1_555 1_555
O5B Sm1 1_555 1_555
O6B Sm1 1_555 1_555
O6_2 Sm1B 1_555 1_555
C13B C10B 1_555 1_555
O9B Sm1B_2 1_555 1_555
O9B_2 Sm1B 1_555 1_555
O10B Sm1 1_555 1_555
O10_2 Sm1B 1_555 1_555
C14B C14 1_555 1_555
C2 C4 1_555 1_555
C2 C6 1_555 1_555
C5 O2 1_555 1_555
C8 C10 1_555 1_555
C9 C11 1_555 1_555
C13 O9 1_555 1_555
O10 Sm1B_2 1_555 1_555
C2B C4B 1_555 1_555
C2B C6B 1_555 1_555
C5B O2B 1_555 1_555
C5B O3B 1_555 1_555
C8B C10B 1_555 1_555
C9B C11B 1_555 1_555
O4B C14B 1_555 1_555
C12B O5B 1_555 1_555
O6B C14B 1_555 1_555
C13B O9B 1_555 1_555
C13B O10B 1_555 1_555

#END
