
#######################################################################
#
#                 Cambridge Crystallographic Data Centre
#                                CCDC 
#
#######################################################################
#
# If this CIF has been generated from an entry in the Cambridge 
# Structural Database, then it will include bibliographic, chemical, 
# crystal, experimental, refinement or atomic coordinate data resulting 
# from the CCDC's data processing and validation procedures.
#
#######################################################################

data_NIJZIP
_chemical_formula_moiety         '(C24 H38 Cu3 Nd2 O37)n'
_symmetry_cell_setting           hexagonal
_symmetry_space_group_name_H-M   'P 6/m c c'
_symmetry_Int_Tables_number      192
_space_group_name_Hall           '-P 6 2c'
loop_
_symmetry_equiv_pos_site_id
_symmetry_equiv_pos_as_xyz
1 x,y,z
2 x-y,x,z
3 -y,-x,1/2-z
4 -y,x-y,z
5 x-y,-y,1/2-z
6 -x,-y,z
7 x,x-y,1/2-z
8 -x+y,-x,z
9 y,x,1/2-z
10 y,-x+y,z
11 -x+y,y,1/2-z
12 -x,-x+y,1/2-z
13 -x,-y,-z
14 -x+y,-x,-z
15 y,x,1/2+z
16 y,-x+y,-z
17 -x+y,y,1/2+z
18 x,y,-z
19 -x,-x+y,1/2+z
20 x-y,x,-z
21 -y,-x,1/2+z
22 -y,x-y,-z
23 x-y,-y,1/2+z
24 x,x-y,1/2+z
_cell_length_a                   15.091(4)
_cell_length_b                   15.091(4)
_cell_length_c                   14.710(3)
_cell_angle_alpha                90
_cell_angle_beta                 90
_cell_angle_gamma                120
_cell_volume                     2901.21
loop_
_atom_site_label
_atom_site_type_symbol
_atom_site_fract_x
_atom_site_fract_y
_atom_site_fract_z
Nd1 Nd 0.667 0.333 0.2500
Cu1 Cu 0.5000 0.5000 0.5000
O1 O 0.4738(4) 0.237 0.2500
O2 O 0.5785(2) 0.3849(2) 0.3592(2)
O3 O 0.4432(2) 0.3935(3) 0.4075(3)
O4 O 0.3236(4) 0.4790(4) 0.5000
C1 C 0.4130(4) 0.2686(4) 0.2990(4)
C2 C 0.4852(3) 0.3569(3) 0.3594(3)
O1B O 0.763 0.5262(4) 0.2500
O1C O 0.763 0.2368(4) 0.2500
O2B O 0.6151(2) 0.4215(2) 0.1408(2)
O2C O 0.6151(2) 0.1936(3) 0.3592(2)
O2F O 0.5785(2) 0.1936(3) 0.1408(2)
O2G O 0.8064(3) 0.4215(2) 0.3592(2)
O2J O 0.8064(3) 0.3849(2) 0.1408(2)
O3E O 0.5568(2) 0.6065(3) 0.4075(3)
O3L O 0.5568(2) 0.6065(3) 0.5925(3)
O3Q O 0.4432(2) 0.3935(3) 0.5925(3)
O4E O 0.6764(4) 0.5210(4) 0.5000
C1F C 0.4130(4) 0.1444(6) 0.2010(4)
C2F C 0.4852(3) 0.1283(4) 0.1406(3)
O3F O 0.4432(2) 0.0497(4) 0.0925(3)
Cu1F Cu 0.5000 0.0000 0.0000
C2C C 0.6431(3) 0.1283(4) 0.3594(3)
C1C C 0.7314(4) 0.1444(6) 0.2990(4)
C1J C 0.8556(6) 0.2686(4) 0.2010(4)
C2J C 0.8717(4) 0.3569(3) 0.1406(3)
C2G C 0.8717(4) 0.5148(3) 0.3594(3)
C1B C 0.7314(4) 0.5870(4) 0.2010(4)
C1G C 0.8556(6) 0.5870(4) 0.2990(4)
C2B C 0.6431(3) 0.5148(3) 0.1406(3)
O3C O 0.6065(3) 0.0497(4) 0.4075(3)
O3J O 0.9503(4) 0.3935(3) 0.0925(3)
O3G O 0.9503(4) 0.5568(2) 0.4075(3)
O3B O 0.6065(3) 0.5568(2) 0.0925(3)
Cu1C Cu 0.5000 -0.0000 0.5000
Cu1D Cu 1.0000 0.5000 0.0000
Cu1A Cu 1.0000 0.5000 0.5000
Cu1B Cu 0.5000 0.5000 0.0000
C2L C 0.5148(3) 0.6431(3) 0.6406(3)
O2L O 0.4215(2) 0.6151(2) 0.6408(2)
C1L C 0.5870(4) 0.7314(4) 0.7010(4)
Nd1L Nd 0.333 0.667 0.7500
O1L O 0.5262(4) 0.763 0.7500
C1R C 0.5870(4) 0.8556(6) 0.7990(4)
C2R C 0.5148(3) 0.8717(4) 0.8594(3)
O2R O 0.4215(2) 0.8064(3) 0.8592(2)
O3R O 0.5568(2) 0.9503(4) 0.9075(3)
Cu1F_2 Cu 0.5000 1.0000 1.0000
O1N O 0.237 0.4738(4) 0.7500
O1O O 0.237 0.7632(4) 0.7500
O2N O 0.3849(2) 0.5785(2) 0.8592(2)
O2O O 0.3849(2) 0.8064(3) 0.6408(2)
O2S O 0.1936(3) 0.5785(2) 0.6408(2)
O2V O 0.1936(3) 0.6151(2) 0.8592(2)
C1N C 0.2686(4) 0.4130(4) 0.7990(4)
C1S C 0.1444(6) 0.4130(4) 0.7010(4)
C2N C 0.3569(3) 0.4852(3) 0.8594(3)
C2S C 0.1283(4) 0.4852(3) 0.6406(3)
C2O C 0.3569(3) 0.8717(4) 0.6406(3)
C1O C 0.2686(4) 0.8556(6) 0.7010(4)
C1V C 0.1444(6) 0.7314(4) 0.7990(4)
O3N O 0.3935(3) 0.4432(2) 0.9075(3)
O3S O 0.0497(4) 0.4432(2) 0.5925(3)
O3O O 0.3935(3) 0.9503(4) 0.5925(3)
C2V C 0.1283(4) 0.6431(3) 0.8594(3)
Cu1B_2 Cu 0.5000 0.5000 1.0000
Cu1A_2 Cu -0.0000 0.5000 0.5000
Cu1C_2 Cu 0.5000 1.0000 0.5000
O3V O 0.0497(4) 0.6065(3) 0.9075(3)
Cu1D_2 Cu -0.0000 0.5000 1.0000
O3D O 1.0497(4) 0.6065(3) 0.0925(3)
O3P O 0.9503(4) 0.3935(3) -0.0925(3)
O3V_2 O 1.0497(4) 0.6065(3) -0.0925(3)
O4D O 0.8446(6) 0.5210(4) 0.0000
O4J O 1.1554(6) 0.4790(4) 0.0000
O3H O 0.3935(3) 0.4432(2) 0.0925(3)
O3N_2 O 0.3935(3) 0.4432(2) -0.0925(3)
O3T O 0.6065(3) 0.5568(2) -0.0925(3)
O4B O 0.5210(4) 0.6764(4) 0.0000
O4H O 0.4790(4) 0.3236(4) 0.0000
O5 O 0.725(2) 0.805(2) 0.0000
loop_
_geom_bond_atom_site_label_1
_geom_bond_atom_site_label_2
_geom_bond_site_symmetry_1
_geom_bond_site_symmetry_2
Nd1 O1 1_555 1_555
Cu1 O3 1_555 1_555
O1 C1 1_555 1_555
O2 Nd1 1_555 1_555
O3 C2 1_555 1_555
O4 Cu1 1_555 1_555
C1 C2 1_555 1_555
C2 O2 1_555 1_555
O1B Nd1 1_555 1_555
O1C Nd1 1_555 1_555
O2B Nd1 1_555 1_555
O2C Nd1 1_555 1_555
O2F Nd1 1_555 1_555
O2G Nd1 1_555 1_555
O2J Nd1 1_555 1_555
O3E Cu1 1_555 1_555
O3L Cu1 1_555 1_555
O3Q Cu1 1_555 1_555
O4E Cu1 1_555 1_555
C1F O1 1_555 1_555
C2F O2F 1_555 1_555
O3F C2F 1_555 1_555
Cu1F O3F 1_555 1_555
C2C O2C 1_555 1_555
C1C O1C 1_555 1_555
C1J O1C 1_555 1_555
C2J O2J 1_555 1_555
C2G O2G 1_555 1_555
C1B O1B 1_555 1_555
C1G O1B 1_555 1_555
C2B O2B 1_555 1_555
O3C C2C 1_555 1_555
O3J C2J 1_555 1_555
O3G C2G 1_555 1_555
O3B C2B 1_555 1_555
Cu1C O3C 1_555 1_555
Cu1D O3J 1_555 1_555
Cu1A O3G 1_555 1_555
Cu1B O3B 1_555 1_555
C2L O3L 1_555 1_555
O2L C2L 1_555 1_555
C1L C2L 1_555 1_555
Nd1L O2L 1_555 1_555
O1L C1L 1_555 1_555
C1R O1L 1_555 1_555
C2R C1R 1_555 1_555
O2R Nd1L 1_555 1_555
O3R C2R 1_555 1_555
Cu1F_2 O3R 1_555 1_555
O1N Nd1L 1_555 1_555
O1O Nd1L 1_555 1_555
O2N Nd1L 1_555 1_555
O2O Nd1L 1_555 1_555
O2S Nd1L 1_555 1_555
O2V Nd1L 1_555 1_555
C1N O1N 1_555 1_555
C1S O1N 1_555 1_555
C2N O2N 1_555 1_555
C2S O2S 1_555 1_555
C2O O2O 1_555 1_555
C1O O1O 1_555 1_555
C1V O1O 1_555 1_555
O3N C2N 1_555 1_555
O3S C2S 1_555 1_555
O3O C2O 1_555 1_555
C2V O2V 1_555 1_555
Cu1B_2 O3N 1_555 1_555
Cu1A_2 O3S 1_555 1_555
Cu1C_2 O3O 1_555 1_555
O3V C2V 1_555 1_555
Cu1D_2 O3V 1_555 1_555
O3D Cu1D 1_555 1_555
O3P Cu1D 1_555 1_555
O3V_2 Cu1D 1_555 1_555
O4D Cu1D 1_555 1_555
O4J Cu1D 1_555 1_555
O3H Cu1B 1_555 1_555
O3N_2 Cu1B 1_555 1_555
O3T Cu1B 1_555 1_555
O4B Cu1B 1_555 1_555
O4H Cu1B 1_555 1_555
C1F C2F 1_555 1_555
C2C C1C 1_555 1_555
C1J C2J 1_555 1_555
C2G C1G 1_555 1_555
C1B C2B 1_555 1_555
Nd1L O1L 1_555 1_555
C2R O2R 1_555 1_555
C1N C2N 1_555 1_555
C1S C2S 1_555 1_555
C2O C1O 1_555 1_555
C1V C2V 1_555 1_555

#END
