
#######################################################################
#
#                 Cambridge Crystallographic Data Centre
#                                CCDC 
#
#######################################################################
#
# If this CIF has been generated from an entry in the Cambridge 
# Structural Database, then it will include bibliographic, chemical, 
# crystal, experimental, refinement or atomic coordinate data resulting 
# from the CCDC's data processing and validation procedures.
#
#######################################################################

data_QARTAG
_chemical_formula_moiety         '(C56 H62 Cd3 N10 O21)n'
_symmetry_cell_setting           monoclinic
_symmetry_space_group_name_H-M   'C 2/c'
_symmetry_Int_Tables_number      15
_space_group_name_Hall           '-C 2yc'
loop_
_symmetry_equiv_pos_site_id
_symmetry_equiv_pos_as_xyz
1 x,y,z
2 -x,y,1/2-z
3 1/2+x,1/2+y,z
4 1/2-x,1/2+y,1/2-z
5 -x,-y,-z
6 x,-y,1/2+z
7 1/2-x,1/2-y,-z
8 1/2+x,1/2-y,1/2+z
_cell_length_a                   30.7131(9)
_cell_length_b                   11.0603(3)
_cell_length_c                   19.6123(6)
_cell_angle_alpha                90
_cell_angle_beta                 116.8310(10)
_cell_angle_gamma                90
_cell_volume                     5944.98
loop_
_atom_site_label
_atom_site_type_symbol
_atom_site_fract_x
_atom_site_fract_y
_atom_site_fract_z
Cd1 Cd 0.058491(5) 0.943108(12) 0.525235(7)
Cd2 Cd 0.0000 0.818458(18) 0.2500
O1 O -0.00472(5) 0.77283(14) 0.36980(8)
O2 O 0.0000 0.6125(2) 0.2500
O3 O -0.02080(5) 0.89623(13) 0.44449(8)
O4 O 0.04275(6) 0.84501(15) 0.61739(9)
O5 O -0.12132(5) 0.97436(14) 0.37176(8)
O7 O 0.42374(6) 1.42937(13) 0.54908(9)
O8 O 0.45404(7) 1.24366(16) 0.56336(12)
O11 O 0.07929(6) 0.84977(15) 0.31925(8)
O13 O 0.04767(6) 0.99916(15) 0.23684(9)
N1 N -0.40329(6) 0.71750(15) 0.00074(9)
N2 N -0.31051(6) 0.74621(17) 0.12821(9)
N3 N -0.26194(6) 0.86478(16) 0.23095(10)
N4 N -0.22905(6) 0.69343(14) 0.19354(9)
N5 N -0.14558(6) 0.65520(15) 0.25438(9)
C1 C -0.03424(7) 0.82380(17) 0.38811(10)
C2 C -0.08770(7) 0.79669(17) 0.34327(10)
C3 C -0.12630(7) 0.87388(17) 0.33903(10)
C4 C -0.17528(7) 0.83245(17) 0.28916(10)
C5 C -0.21727(7) 0.89551(19) 0.27958(11)
H2 H -0.2132 0.9636 0.3097
C6 C -0.26578(7) 0.76700(19) 0.18589(10)
C7 C -0.18449(7) 0.72687(17) 0.24489(10)
C8 C -0.09953(7) 0.69213(18) 0.30067(11)
H3 H -0.0740 0.6433 0.3039
C9 C -0.15347(9) 0.53918(19) 0.21175(13)
H4 H -0.1831 0.5013 0.2075
H5 H -0.1265 0.4850 0.2403
C10 C -0.15761(15) 0.5571(3) 0.13306(18)
H6 H -0.1625 0.4803 0.1078
H7 H -0.1282 0.5933 0.1369
H8 H -0.1848 0.6091 0.1042
C11 C -0.35467(8) 0.7909(2) 0.13059(12)
H9 H -0.3468 0.8623 0.1627
H10 H -0.3668 0.7297 0.1531
C12 C -0.39384(8) 0.82171(19) 0.05168(14)
H11 H -0.4236 0.8442 0.0544
H12 H -0.3835 0.8901 0.0316
C13 C -0.35826(8) 0.6850(2) -0.00445(11)
H13 H -0.3476 0.7532 -0.0242
H14 H -0.3649 0.6180 -0.0397
C14 C -0.31846(7) 0.65008(19) 0.07256(11)
H15 H -0.3274 0.5760 0.0896
H16 H -0.2885 0.6354 0.0687
C15 C 0.28179(8) 1.28444(19) 0.44798(12)
H17 H 0.2550 1.3300 0.4426
C16 C 0.32817(8) 1.33191(19) 0.48638(12)
H18 H 0.3323 1.4095 0.5067
C17 C 0.36866(8) 1.26613(19) 0.49515(11)
C18 C 0.36177(8) 1.1512(2) 0.46265(14)
H19 H 0.3886 1.1061 0.4674
C19 C 0.31531(9) 1.1039(2) 0.42337(15)
H20 H 0.3111 1.0280 0.4008
C20 C 0.27495(8) 1.16755(19) 0.41704(12)
C21 C 0.22541(8) 1.11246(19) 0.38111(11)
C22 C 0.18394(9) 1.1795(2) 0.33662(13)
H21 H 0.1871 1.2602 0.3264
C23 C 0.13779(8) 1.1280(2) 0.30706(13)
H22 H 0.1103 1.1740 0.2775
C24 C 0.13276(8) 1.00646(19) 0.32197(11)
C25 C 0.17399(8) 0.93902(17) 0.36553(12)
H23 H 0.1708 0.8580 0.3752
C26 C 0.22013(8) 0.99084(19) 0.39501(12)
H24 H 0.2476 0.9444 0.4241
C27 C 0.41943(9) 1.3160(2) 0.53908(12)
C28 C 0.08300(8) 0.94920(18) 0.29050(11)
H25 H 0.0491(8) 0.8927(18) 0.6546(10)
H26 H 0.0154(7) 0.814(3) 0.6069(17)
H27 H -0.0032(17) 0.5742(14) 0.2126(9)
Cd1A Cd -0.058491(5) 0.943108(12) -0.025235(7)
Cd1D Cd -0.058491(5) 1.056892(12) 0.474765(7)
Cd1F Cd 0.441509(5) 1.556892(12) 0.474765(7)
Cd1G Cd -0.441509(5) 0.556892(12) 0.025235(7)
Cd1E Cd 0.058491(5) 1.056892(12) 0.025235(7)
Cd1F_2 Cd 0.441509(5) 0.556892(12) 0.474765(7)
Cd1G_2 Cd -0.441509(5) 1.556892(12) 0.025235(7)
O1A O 0.00472(5) 0.77283(14) 0.13020(8)
O3A O 0.02080(5) 0.89623(13) 0.05551(8)
O3D O 0.02080(5) 1.10377(13) 0.55551(8)
O3E O -0.02080(5) 1.10377(13) -0.05551(8)
O4A O -0.04275(6) 0.84501(15) -0.11739(9)
O5A O 0.12132(5) 0.97436(14) 0.12824(8)
O5D O 0.12132(5) 1.02564(14) 0.62824(8)
O5E O -0.12132(5) 1.02564(14) -0.12824(8)
O7A O -0.42374(6) 1.42937(13) -0.04908(9)
O7F O 0.07626(6) 1.07063(13) 0.45092(9)
O7G O -0.07626(6) 1.07063(13) 0.04908(9)
O8A O -0.45404(7) 1.24366(16) -0.06336(12)
O11A O -0.07929(6) 0.84977(15) 0.18075(8)
O13A O -0.04767(6) 0.99916(15) 0.26316(9)
N1A N 0.40329(6) 0.71750(15) 0.49926(9)
N1G N 0.09671(6) 0.78250(15) 0.50074(9)
N1F N -0.09671(6) 0.78250(15) -0.00074(9)
N2A N 0.31051(6) 0.74621(17) 0.37179(9)
N3A N 0.26194(6) 0.86478(16) 0.26905(10)
N4A N 0.22905(6) 0.69343(14) 0.30646(9)
N5A N 0.14558(6) 0.65520(15) 0.24562(9)
C1A C 0.03424(7) 0.82380(17) 0.11189(10)
C2A C 0.08770(7) 0.79669(17) 0.15673(10)
C3A C 0.12630(7) 0.87388(17) 0.16097(10)
C4A C 0.17528(7) 0.83245(17) 0.21084(10)
C5A C 0.21727(7) 0.89551(19) 0.22042(11)
H2A H 0.2132 0.9636 0.1903
C6A C 0.26578(7) 0.76700(19) 0.31411(10)
C7A C 0.18449(7) 0.72687(17) 0.25511(10)
C8A C 0.09953(7) 0.69213(18) 0.19933(11)
H3A H 0.0740 0.6433 0.1961
C9A C 0.15347(9) 0.53918(19) 0.28825(13)
H4A H 0.1831 0.5013 0.2925
H5A H 0.1265 0.4850 0.2597
C10A C 0.15761(15) 0.5571(3) 0.36694(18)
H6A H 0.1625 0.4803 0.3922
H7A H 0.1282 0.5933 0.3631
H8A H 0.1848 0.6091 0.3958
C11A C 0.35467(8) 0.7909(2) 0.36941(12)
H9A H 0.3468 0.8623 0.3373
H10A H 0.3668 0.7297 0.3469
C12A C 0.39384(8) 0.82171(19) 0.44832(14)
H11A H 0.4236 0.8442 0.4456
H12A H 0.3835 0.8901 0.4684
C13A C 0.35826(8) 0.6850(2) 0.50445(11)
H13A H 0.3476 0.7532 0.5242
H14A H 0.3649 0.6180 0.5397
C14A C 0.31846(7) 0.65008(19) 0.42744(11)
H15A H 0.3274 0.5760 0.4104
H16A H 0.2885 0.6354 0.4313
C15A C -0.28179(8) 1.28444(19) 0.05202(12)
H17A H -0.2550 1.3300 0.0574
C16A C -0.32817(8) 1.33191(19) 0.01362(12)
H18A H -0.3323 1.4095 -0.0067
C17A C -0.36866(8) 1.26613(19) 0.00485(11)
C18A C -0.36177(8) 1.1512(2) 0.03735(14)
H19A H -0.3886 1.1061 0.0326
C19A C -0.31531(9) 1.1039(2) 0.07663(15)
H20A H -0.3111 1.0280 0.0992
C20A C -0.27495(8) 1.16755(19) 0.08296(12)
C21A C -0.22541(8) 1.11246(19) 0.11889(11)
C22A C -0.18394(9) 1.1795(2) 0.16338(13)
H21A H -0.1871 1.2602 0.1736
C23A C -0.13779(8) 1.1280(2) 0.19294(13)
H22A H -0.1103 1.1740 0.2225
C24A C -0.13276(8) 1.00646(19) 0.17803(11)
C25A C -0.17399(8) 0.93902(17) 0.13447(12)
H23A H -0.1708 0.8580 0.1248
C26A C -0.22013(8) 0.99084(19) 0.10499(12)
H24A H -0.2476 0.9444 0.0759
C27A C -0.41943(9) 1.3160(2) -0.03908(12)
C28A C -0.08300(8) 0.94920(18) 0.20950(11)
H25A H -0.0491(8) 0.8927(18) -0.1546(10)
H26A H -0.0154(7) 0.814(3) -0.1069(17)
H27A H 0.0032(17) 0.5742(14) 0.2874(9)
O6 O 0.0000 1.2404(4) 0.2500
O9 O -0.0219(3) 0.5029(6) 0.1062(3)
O12 O 0.0481(5) 0.4089(11) 0.1804(7)
O14 O -0.0512(5) 0.4183(9) 0.1734(6)
loop_
_geom_bond_atom_site_label_1
_geom_bond_atom_site_label_2
_geom_bond_site_symmetry_1
_geom_bond_site_symmetry_2
Cd1 O3 1_555 1_555
Cd2 O1 1_555 1_555
O1 C1 1_555 1_555
O2 Cd2 1_555 1_555
O3 C1 1_555 1_555
O4 Cd1 1_555 1_555
O5 C3 1_555 1_555
O7 C27 1_555 1_555
O8 C27 1_555 1_555
O11 Cd2 1_555 1_555
O13 C28 1_555 1_555
N1 C12 1_555 1_555
N2 C6 1_555 1_555
N3 C5 1_555 1_555
N4 C6 1_555 1_555
N5 C7 1_555 1_555
C1 C2 1_555 1_555
C2 C3 1_555 1_555
C3 C4 1_555 1_555
C4 C5 1_555 1_555
C5 H2 1_555 1_555
C6 N3 1_555 1_555
C7 N4 1_555 1_555
C8 N5 1_555 1_555
H3 C8 1_555 1_555
C9 N5 1_555 1_555
H4 C9 1_555 1_555
H5 C9 1_555 1_555
C10 C9 1_555 1_555
H6 C10 1_555 1_555
H7 C10 1_555 1_555
H8 C10 1_555 1_555
C11 N2 1_555 1_555
H9 C11 1_555 1_555
H10 C11 1_555 1_555
C12 C11 1_555 1_555
H11 C12 1_555 1_555
H12 C12 1_555 1_555
C13 N1 1_555 1_555
H13 C13 1_555 1_555
H14 C13 1_555 1_555
C14 N2 1_555 1_555
H15 C14 1_555 1_555
H16 C14 1_555 1_555
C15 H17 1_555 1_555
C16 C15 1_555 1_555
H18 C16 1_555 1_555
C17 C16 1_555 1_555
C18 C17 1_555 1_555
H19 C18 1_555 1_555
C19 C18 1_555 1_555
H20 C19 1_555 1_555
C20 C15 1_555 1_555
C21 C20 1_555 1_555
C22 C21 1_555 1_555
H21 C22 1_555 1_555
C23 C22 1_555 1_555
H22 C23 1_555 1_555
C24 C23 1_555 1_555
C25 C24 1_555 1_555
H23 C25 1_555 1_555
C26 C21 1_555 1_555
H24 C26 1_555 1_555
C27 C17 1_555 1_555
C28 O11 1_555 1_555
H25 O4 1_555 1_555
H26 O4 1_555 1_555
H27 O2 1_555 1_555
Cd1A O3A 1_555 1_555
Cd1D O3 1_555 1_555
Cd1F O7 1_555 1_555
Cd1G N1 1_555 1_555
Cd1E O3A 1_555 1_555
Cd1F_2 N1A 1_555 1_555
Cd1G_2 O7A 1_555 1_555
O1A Cd2 1_555 1_555
O3A C1A 1_555 1_555
O3D Cd1 1_555 1_555
O3E Cd1A 1_555 1_555
O4A Cd1A 1_555 1_555
O5A Cd1E 1_555 1_555
O5D Cd1 1_555 1_555
O5E Cd1A 1_555 1_555
O7A C27A 1_555 1_555
O7F Cd1 1_555 1_555
O7G Cd1A 1_555 1_555
O8A C27A 1_555 1_555
O11A Cd2 1_555 1_555
O13A C28A 1_555 1_555
N1A C12A 1_555 1_555
N1G Cd1 1_555 1_555
N1F Cd1A 1_555 1_555
N2A C6A 1_555 1_555
N3A C5A 1_555 1_555
N4A C6A 1_555 1_555
N5A C7A 1_555 1_555
C1A O1A 1_555 1_555
C2A C1A 1_555 1_555
C3A O5A 1_555 1_555
C4A C3A 1_555 1_555
C5A C4A 1_555 1_555
H2A C5A 1_555 1_555
C6A N3A 1_555 1_555
C7A N4A 1_555 1_555
C8A N5A 1_555 1_555
H3A C8A 1_555 1_555
C9A N5A 1_555 1_555
H4A C9A 1_555 1_555
H5A C9A 1_555 1_555
C10A C9A 1_555 1_555
H6A C10A 1_555 1_555
H7A C10A 1_555 1_555
H8A C10A 1_555 1_555
C11A N2A 1_555 1_555
H9A C11A 1_555 1_555
H10A C11A 1_555 1_555
C12A C11A 1_555 1_555
H11A C12A 1_555 1_555
H12A C12A 1_555 1_555
C13A N1A 1_555 1_555
H13A C13A 1_555 1_555
H14A C13A 1_555 1_555
C14A N2A 1_555 1_555
H15A C14A 1_555 1_555
H16A C14A 1_555 1_555
C15A H17A 1_555 1_555
C16A C15A 1_555 1_555
H18A C16A 1_555 1_555
C17A C16A 1_555 1_555
C18A C17A 1_555 1_555
H19A C18A 1_555 1_555
C19A C18A 1_555 1_555
H20A C19A 1_555 1_555
C20A C15A 1_555 1_555
C21A C20A 1_555 1_555
C22A C21A 1_555 1_555
H21A C22A 1_555 1_555
C23A C22A 1_555 1_555
H22A C23A 1_555 1_555
C24A C23A 1_555 1_555
C25A C24A 1_555 1_555
H23A C25A 1_555 1_555
C26A C21A 1_555 1_555
H24A C26A 1_555 1_555
C27A C17A 1_555 1_555
C28A O11A 1_555 1_555
H25A O4A 1_555 1_555
H26A O4A 1_555 1_555
H27A O2 1_555 1_555
O5 Cd1D 1_555 1_555
C2 C8 1_555 1_555
C4 C7 1_555 1_555
C13 C14 1_555 1_555
C19 C20 1_555 1_555
C24 C28 1_555 1_555
C25 C26 1_555 1_555
Cd1D O3D 1_555 1_555
Cd1E O3E 1_555 1_555
C2A C3A 1_555 1_555
C2A C8A 1_555 1_555
C4A C7A 1_555 1_555
C13A C14A 1_555 1_555
C19A C20A 1_555 1_555
C24A C28A 1_555 1_555
C25A C26A 1_555 1_555

#END
