
#######################################################################
#
#                 Cambridge Crystallographic Data Centre
#                                CCDC 
#
#######################################################################
#
# If this CIF has been generated from an entry in the Cambridge 
# Structural Database, then it will include bibliographic, chemical, 
# crystal, experimental, refinement or atomic coordinate data resulting 
# from the CCDC's data processing and validation procedures.
#
#######################################################################

data_QARTEK
_chemical_formula_moiety         '(C40 H38 Cd2 Cl2 F4 N6 O9)n'
_symmetry_cell_setting           monoclinic
_symmetry_space_group_name_H-M   'P 21/c'
_symmetry_Int_Tables_number      14
_space_group_name_Hall           '-P 2ybc'
loop_
_symmetry_equiv_pos_site_id
_symmetry_equiv_pos_as_xyz
1 x,y,z
2 -x,1/2+y,1/2-z
3 -x,-y,-z
4 x,1/2-y,1/2+z
_cell_length_a                   6.4232(5)
_cell_length_b                   23.7594(17)
_cell_length_c                   15.4953(11)
_cell_angle_alpha                90
_cell_angle_beta                 99.7490(10)
_cell_angle_gamma                90
_cell_volume                     2330.61
loop_
_atom_site_label
_atom_site_type_symbol
_atom_site_fract_x
_atom_site_fract_y
_atom_site_fract_z
Cd1 Cd 0.26563(3) 0.534064(8) 0.030168(13)
C1 C 0.4657(5) 0.54627(13) -0.1519(2)
C2 C 0.3118(4) 0.59182(12) -0.18607(19)
C3 C 0.1582(4) 0.61648(12) -0.13972(19)
C4 C 0.0229(5) 0.65917(12) -0.1874(2)
C5 C -0.1371(5) 0.68417(15) -0.1497(2)
H1 H -0.1595 0.6727 -0.0946
C6 C -0.2603(6) 0.72517(15) -0.1934(2)
C7 C -0.2286(5) 0.74740(13) -0.2744(2)
C8 C -0.0770(5) 0.72093(13) -0.3128(2)
H2 H -0.0540 0.7331 -0.3675
C9 C 0.0439(5) 0.67619(13) -0.27189(19)
C10 C 0.3144(5) 0.60850(13) -0.2705(2)
H3 H 0.4096 0.5907 -0.3004
C11 C 0.1887(5) 0.65626(13) -0.40671(19)
C12 C 0.1749(7) 0.67000(19) -0.5814(2)
C13 C 0.2859(11) 0.7020(3) -0.4369(3)
H4 H 0.3593 0.7274 -0.3973
C14 C 0.2752(11) 0.7105(3) -0.5261(3)
H5 H 0.3336 0.7423 -0.5476
C15 C 0.0780(16) 0.6248(3) -0.5541(4)
H6 H 0.0093 0.5987 -0.5937
C16 C 0.0841(15) 0.6184(3) -0.4650(4)
H7 H 0.0160 0.5879 -0.4444
C17 C -0.3060(6) 0.80983(15) -0.4001(2)
H8 H -0.2970 0.7771 -0.4368
H9 H -0.1704 0.8288 -0.3917
C18 C -0.4757(6) 0.84930(14) -0.4455(2)
H10 H -0.4354 0.8625 -0.4996
H11 H -0.6069 0.8285 -0.4605
C19 C -0.5591(6) 0.87801(15) -0.3084(2)
H12 H -0.6898 0.8567 -0.3185
H13 H -0.5791 0.9101 -0.2719
C20 C -0.3851(6) 0.84152(15) -0.2611(2)
H14 H -0.2552 0.8631 -0.2489
H15 H -0.4209 0.8293 -0.2058
N1 N -0.5119(4) 0.89805(10) -0.39215(16)
H16 H -0.5063 0.9327 -0.4076
N2 N -0.3528(4) 0.79161(11) -0.31489(17)
N3 N 0.1901(4) 0.64866(11) -0.31345(16)
O1 O 0.5115(3) 0.53937(8) -0.06842(14)
Cl1 Cl -0.05606(12) 0.53405(3) 0.10172(6)
O2 O 0.5412(4) 0.51652(11) -0.20436(16)
O3 O 0.1329(3) 0.60446(9) -0.06357(14)
F1 F -0.4260(4) 0.74374(11) -0.15673(16)
F2 F 0.1670(5) 0.67741(14) -0.66844(15)
Cd1B Cd -0.26563(3) 0.465936(8) -0.030168(13)
Cd1_2 Cd -0.73437(3) 0.534064(8) 0.030168(13)
Cd1A Cd 0.73437(3) 0.034064(8) 0.469832(13)
Cd1B_2 Cd 0.73437(3) 0.465936(8) -0.030168(13)
Cd1C Cd -0.73437(3) 0.965936(8) -0.469832(13)
C1B C -0.4657(5) 0.45373(13) 0.1519(2)
C2B C -0.3118(4) 0.40818(12) 0.18607(19)
C3B C -0.1582(4) 0.38352(12) 0.13972(19)
C4B C -0.0229(5) 0.34083(12) 0.1874(2)
C5B C 0.1371(5) 0.31583(15) 0.1497(2)
H1B H 0.1595 0.3273 0.0946
C6B C 0.2603(6) 0.27483(15) 0.1934(2)
C7B C 0.2286(5) 0.25260(13) 0.2744(2)
C8B C 0.0770(5) 0.27907(13) 0.3128(2)
H2B H 0.0540 0.2669 0.3675
C9B C -0.0439(5) 0.32381(13) 0.27189(19)
C10B C -0.3144(5) 0.39150(13) 0.2705(2)
H3B H -0.4096 0.4093 0.3004
C11B C -0.1887(5) 0.34374(13) 0.40671(19)
C12B C -0.1749(7) 0.33000(19) 0.5814(2)
C13B C -0.2859(11) 0.2980(3) 0.4369(3)
H4B H -0.3593 0.2726 0.3973
C14B C -0.2752(11) 0.2895(3) 0.5261(3)
H5B H -0.3336 0.2577 0.5476
C15B C -0.0780(16) 0.3752(3) 0.5541(4)
H6B H -0.0093 0.4013 0.5937
C16B C -0.0841(15) 0.3816(3) 0.4650(4)
H7B H -0.0160 0.4121 0.4444
C17B C 0.3060(6) 0.19017(15) 0.4001(2)
H8B H 0.2970 0.2229 0.4368
H9B H 0.1704 0.1712 0.3917
C18B C 0.4757(6) 0.15070(14) 0.4455(2)
H10B H 0.4354 0.1375 0.4996
H11B H 0.6069 0.1715 0.4605
C19B C 0.5591(6) 0.12199(15) 0.3084(2)
H12B H 0.6898 0.1433 0.3185
H13B H 0.5791 0.0899 0.2719
C20B C 0.3851(6) 0.15848(15) 0.2611(2)
H14B H 0.2552 0.1369 0.2489
H15B H 0.4209 0.1707 0.2058
N1B N 0.5119(4) 0.10195(10) 0.39215(16)
N1A N -0.4881(4) 0.39805(10) -0.10785(16)
N1C N 0.4881(4) 0.60195(10) 0.10785(16)
H16B H 0.5063 0.0673 0.4076
H16A H -0.4937 0.4327 -0.0924
H16C H 0.4937 0.5673 0.0924
N2B N 0.3528(4) 0.20839(11) 0.31489(17)
N3B N -0.1901(4) 0.35134(11) 0.31345(16)
O1B O -0.5115(3) 0.46063(8) 0.06842(14)
O1_2 O -0.4885(3) 0.53937(8) -0.06842(14)
O1B_2 O 0.4885(3) 0.46063(8) 0.06842(14)
Cl1B Cl 0.05606(12) 0.46595(3) -0.10172(6)
O2B O -0.5412(4) 0.48348(11) 0.20436(16)
O3B O -0.1329(3) 0.39554(9) 0.06357(14)
F1B F 0.4260(4) 0.25626(11) 0.15673(16)
F2B F -0.1670(5) 0.32259(14) 0.66844(15)
O4 O 0.2386(10) 0.4774(2) -0.3501(4)
O5 O 0.8451(10) 0.5205(3) -0.3248(4)
O6 O 0.402(3) 0.4634(7) -0.5049(14)
loop_
_geom_bond_atom_site_label_1
_geom_bond_atom_site_label_2
_geom_bond_site_symmetry_1
_geom_bond_site_symmetry_2
Cd1 O1 1_555 1_555
C1 C2 1_555 1_555
C2 C3 1_555 1_555
C3 C4 1_555 1_555
C4 C5 1_555 1_555
C5 H1 1_555 1_555
C6 C5 1_555 1_555
C7 C6 1_555 1_555
C8 C7 1_555 1_555
H2 C8 1_555 1_555
C9 C4 1_555 1_555
C10 C2 1_555 1_555
H3 C10 1_555 1_555
C11 C13 1_555 1_555
C12 C14 1_555 1_555
C13 H4 1_555 1_555
C14 C13 1_555 1_555
H5 C14 1_555 1_555
C15 C12 1_555 1_555
H6 C15 1_555 1_555
C16 C11 1_555 1_555
H7 C16 1_555 1_555
C17 H8 1_555 1_555
H9 C17 1_555 1_555
C18 C17 1_555 1_555
H10 C18 1_555 1_555
H11 C18 1_555 1_555
C19 H12 1_555 1_555
H13 C19 1_555 1_555
C20 C19 1_555 1_555
H14 C20 1_555 1_555
H15 C20 1_555 1_555
N1 C18 1_555 1_555
H16 N1 1_555 1_555
N2 C7 1_555 1_555
N3 C9 1_555 1_555
O1 C1 1_555 1_555
Cl1 Cd1 1_555 1_555
O2 C1 1_555 1_555
O3 Cd1 1_555 1_555
F1 C6 1_555 1_555
F2 C12 1_555 1_555
Cd1B Cl1 1_555 1_555
Cd1_2 O1B 1_555 1_555
Cd1A N1B 1_555 1_555
Cd1B_2 O1 1_555 1_555
Cd1C N1 1_555 1_555
C1B C2B 1_555 1_555
C2B C3B 1_555 1_555
C3B C4B 1_555 1_555
C4B C5B 1_555 1_555
C5B H1B 1_555 1_555
C6B C5B 1_555 1_555
C7B C6B 1_555 1_555
C8B C7B 1_555 1_555
H2B C8B 1_555 1_555
C9B C4B 1_555 1_555
C10B C2B 1_555 1_555
H3B C10B 1_555 1_555
C11B C13B 1_555 1_555
C12B C14B 1_555 1_555
C13B H4B 1_555 1_555
C14B C13B 1_555 1_555
H5B C14B 1_555 1_555
C15B C12B 1_555 1_555
H6B C15B 1_555 1_555
C16B C11B 1_555 1_555
H7B C16B 1_555 1_555
C17B H8B 1_555 1_555
H9B C17B 1_555 1_555
C18B C17B 1_555 1_555
H10B C18B 1_555 1_555
H11B C18B 1_555 1_555
C19B H12B 1_555 1_555
H13B C19B 1_555 1_555
C20B C19B 1_555 1_555
H14B C20B 1_555 1_555
H15B C20B 1_555 1_555
N1B C18B 1_555 1_555
N1A Cd1B 1_555 1_555
N1C Cd1 1_555 1_555
H16B N1B 1_555 1_555
H16A N1A 1_555 1_555
H16C N1C 1_555 1_555
N2B C7B 1_555 1_555
N3B C9B 1_555 1_555
O1B Cd1B 1_555 1_555
O1_2 Cd1B 1_555 1_555
O1B_2 Cd1 1_555 1_555
Cl1B Cd1 1_555 1_555
O2B C1B 1_555 1_555
O3B Cd1B 1_555 1_555
F1B C6B 1_555 1_555
F2B C12B 1_555 1_555
C3 O3 1_555 1_555
C8 C9 1_555 1_555
C10 N3 1_555 1_555
C11 N3 1_555 1_555
C15 C16 1_555 1_555
C17 N2 1_555 1_555
C19 N1 1_555 1_555
C20 N2 1_555 1_555
Cd1B Cl1B 1_555 1_555
Cd1_2 O1_2 1_555 1_555
Cd1B_2 O1B_2 1_555 1_555
C1B O1B 1_555 1_555
C3B O3B 1_555 1_555
C8B C9B 1_555 1_555
C10B N3B 1_555 1_555
C11B N3B 1_555 1_555
C15B C16B 1_555 1_555
C17B N2B 1_555 1_555
C19B N1B 1_555 1_555
C20B N2B 1_555 1_555

#END
