
#######################################################################
#
#                 Cambridge Crystallographic Data Centre
#                                CCDC 
#
#######################################################################
#
# If this CIF has been generated from an entry in the Cambridge 
# Structural Database, then it will include bibliographic, chemical, 
# crystal, experimental, refinement or atomic coordinate data resulting 
# from the CCDC's data processing and validation procedures.
#
#######################################################################

data_KAVNIH
_chemical_formula_moiety         '(C107 H89 Co2 N15 O13)n'
_symmetry_cell_setting           monoclinic
_symmetry_space_group_name_H-M   'C 2/c'
_symmetry_Int_Tables_number      15
_space_group_name_Hall           '-C 2yc'
loop_
_symmetry_equiv_pos_site_id
_symmetry_equiv_pos_as_xyz
1 x,y,z
2 -x,y,1/2-z
3 1/2+x,1/2+y,z
4 1/2-x,1/2+y,1/2-z
5 -x,-y,-z
6 x,-y,1/2+z
7 1/2-x,1/2-y,-z
8 1/2+x,1/2-y,1/2+z
_cell_length_a                   32.614(8)
_cell_length_b                   18.976(4)
_cell_length_c                   17.570(4)
_cell_angle_alpha                90
_cell_angle_beta                 103.206(4)
_cell_angle_gamma                90
_cell_volume                     10586.2
loop_
_atom_site_label
_atom_site_type_symbol
_atom_site_fract_x
_atom_site_fract_y
_atom_site_fract_z
Co1 Co 0.901000(13) 0.35351(2) 0.95937(3)
O1 O 0.93209(7) 0.41033(12) 1.06067(14)
O2 O 0.94863(7) 0.29915(12) 1.05032(14)
O3 O 0.85624(7) 0.31929(12) 1.01908(13)
O4 O 0.81899(7) 0.40483(12) 1.05890(15)
N1 N 0.86058(8) 0.43039(14) 0.89754(16)
N2 N 0.82208(8) 0.52525(14) 0.86495(16)
N3 N 0.84992(9) 1.16669(14) 0.84810(17)
N4 N 0.88097(8) 1.26878(14) 0.88180(16)
N5 N 0.51179(9) 0.89904(15) 0.87649(19)
N6 N 0.44878(9) 0.88412(15) 0.90088(18)
C1 C 0.95101(10) 0.35538(18) 1.0891(2)
C2 C 0.97641(10) 0.35695(17) 1.1721(2)
C3 C 0.95553(11) 0.35821(17) 1.2334(2)
C4 C 0.91051(11) 0.36066(19) 1.2194(2)
H1 H 0.8941 0.3619 1.1673
C5 C 0.89124(12) 0.3613(2) 1.2802(2)
H2 H 0.8614 0.3622 1.2702
C6 C 0.91503(12) 0.3606(2) 1.3583(2)
H3 H 0.9010 0.3611 1.4001
C7 C 1.04235(12) 0.3591(2) 1.1259(2)
H4 H 1.0268 0.3592 1.0731
C8 C 1.02053(11) 0.35741(17) 1.1876(2)
C9 C 0.82310(10) 0.34531(17) 1.03328(19)
C10 C 0.78511(10) 0.29613(17) 1.01647(19)
C11 C 0.75689(10) 0.29829(17) 0.9437(2)
C12 C 0.76296(11) 0.34486(19) 0.8832(2)
H5 H 0.7864 0.3759 0.8933
C13 C 0.73626(13) 0.3458(2) 0.8124(2)
H6 H 0.7414 0.3766 0.7730
C14 C 0.70044(13) 0.3008(2) 0.7961(2)
H7 H 0.6817 0.3019 0.7460
C15 C 0.80705(11) 0.2434(2) 1.1485(2)
H8 H 0.8315 0.2721 1.1597
C16 C 0.77889(10) 0.24788(17) 1.0731(2)
C17 C 0.84434(11) 0.43013(18) 0.8181(2)
H9 H 0.8491 0.3944 0.7831
C18 C 0.82068(11) 0.48817(18) 0.7973(2)
H10 H 0.8060 0.5009 0.7460
C19 C 0.84666(10) 0.48842(16) 0.92368(19)
H11 H 0.8531 0.5026 0.9770
C20 C 0.80275(10) 0.59226(17) 0.8698(2)
C21 C 0.76665(11) 0.61034(19) 0.8137(2)
H12 H 0.7543 0.5779 0.7739
C22 C 0.74925(11) 0.67631(18) 0.8171(2)
H13 H 0.7248 0.6891 0.7787
C23 C 0.76644(10) 0.72418(17) 0.8749(2)
C24 C 0.80239(10) 0.70497(17) 0.93067(19)
H14 H 0.8146 0.7371 0.9709
C25 C 0.82037(10) 0.63925(17) 0.92767(19)
H15 H 0.8450 0.6266 0.9657
C26 C 0.74733(10) 0.79486(17) 0.87760(19)
C27 C 0.70432(10) 0.80153(17) 0.87264(19)
H16 H 0.6871 0.7606 0.8662
C28 C 0.68621(10) 0.86750(17) 0.87694(19)
C29 C 0.71191(10) 0.92673(17) 0.88271(19)
H17 H 0.7001 0.9719 0.8867
C30 C 0.75463(10) 0.92158(17) 0.88285(19)
C31 C 0.77224(10) 0.85462(17) 0.8837(2)
H18 H 0.8017 0.8499 0.8885
C32 C 0.77979(10) 0.98527(17) 0.87561(19)
C33 C 0.81448(10) 0.98133(18) 0.8412(2)
H19 H 0.8223 0.9368 0.8243
C34 C 0.83774(11) 1.04055(18) 0.8310(2)
H20 H 0.8613 1.0366 0.8080
C35 C 0.82597(10) 1.10529(18) 0.8550(2)
C36 C 0.79136(11) 1.11104(18) 0.8880(2)
H21 H 0.7832 1.1559 0.9033
C37 C 0.76867(11) 1.05166(18) 0.8986(2)
H22 H 0.7452 1.0561 0.9220
C38 C 0.87354(12) 1.18165(19) 0.7938(2)
H23 H 0.8762 1.1535 0.7504
C39 C 0.89203(11) 1.24429(19) 0.8152(2)
H24 H 0.9101 1.2682 0.7883
C40 C 0.85567(11) 1.22081(18) 0.8991(2)
H25 H 0.8429 1.2238 0.9425
C41 C 0.64051(10) 0.87463(17) 0.87468(19)
C42 C 0.62034(11) 0.93933(18) 0.8622(2)
H26 H 0.6360 0.9795 0.8532
C43 C 0.57842(10) 0.94719(18) 0.8623(2)
H27 H 0.5656 0.9923 0.8536
C44 C 0.55502(10) 0.88938(18) 0.8751(2)
C45 C 0.57401(11) 0.82395(18) 0.8873(2)
H28 H 0.5581 0.7839 0.8957
C46 C 0.61604(11) 0.81680(18) 0.8873(2)
H29 H 0.6288 0.7716 0.8960
C47 C 0.48853(14) 0.9584(3) 0.8511(4)
H30 H 0.4976 0.9988 0.8275
C48 C 0.45041(14) 0.9481(2) 0.8660(4)
H31 H 0.4277 0.9807 0.8541
C49 C 0.48629(10) 0.85586(17) 0.9051(2)
H32 H 0.4943 0.8104 0.9259
O1A O 1.06791(7) 0.41033(12) 1.43933(14)
O2A O 1.05137(7) 0.29915(12) 1.44968(14)
C1A C 1.04899(10) 0.35538(18) 1.4109(2)
C2A C 1.02359(10) 0.35695(17) 1.3279(2)
C3A C 1.04447(11) 0.35821(17) 1.2666(2)
C4A C 1.08949(11) 0.36066(19) 1.2806(2)
H1A H 1.1059 0.3619 1.3327
C5A C 1.10876(12) 0.3613(2) 1.2198(2)
H2A H 1.1386 0.3622 1.2298
C6A C 1.08497(12) 0.3606(2) 1.1417(2)
H3A H 1.0990 0.3611 1.0999
C7A C 0.95765(12) 0.3591(2) 1.3741(2)
H4A H 0.9732 0.3592 1.4269
C8A C 0.97947(11) 0.35741(17) 1.3124(2)
O3F O 0.64376(7) 0.18071(12) 0.98092(13)
O4F O 0.68101(7) 0.09517(12) 0.94110(15)
C9F C 0.67690(10) 0.15469(17) 0.96672(19)
C10F C 0.71489(10) 0.20387(17) 0.98353(19)
C11F C 0.74311(10) 0.20171(17) 1.0563(2)
C12F C 0.73704(11) 0.15514(19) 1.1168(2)
H5F H 0.7136 0.1241 1.1067
C13F C 0.76374(13) 0.1542(2) 1.1876(2)
H6F H 0.7586 0.1234 1.2270
C14F C 0.79956(13) 0.1992(2) 1.2039(2)
H7F H 0.8183 0.1981 1.2540
C15F C 0.69295(11) 0.2566(2) 0.8515(2)
H8F H 0.6685 0.2279 0.8403
C16F C 0.72111(10) 0.25212(17) 0.9269(2)
Co1A Co 1.099000(13) 0.35351(2) 1.54063(3)
N1A N 1.13942(8) 0.43039(14) 1.60246(16)
N2A N 1.17792(8) 0.52525(14) 1.63505(16)
N3A N 1.15008(9) 1.16669(14) 1.65190(17)
N4A N 1.11903(8) 1.26878(14) 1.61820(16)
N5A N 1.48821(9) 0.89904(15) 1.62351(19)
N6A N 1.55122(9) 0.88412(15) 1.59912(18)
C17A C 1.15566(11) 0.43013(18) 1.6819(2)
H9A H 1.1509 0.3944 1.7169
C18A C 1.17932(11) 0.48817(18) 1.7027(2)
H10A H 1.1940 0.5009 1.7540
C19A C 1.15334(10) 0.48842(16) 1.57632(19)
H11A H 1.1469 0.5026 1.5230
C20A C 1.19725(10) 0.59226(17) 1.6302(2)
C21A C 1.23335(11) 0.61034(19) 1.6863(2)
H12A H 1.2457 0.5779 1.7261
C22A C 1.25075(11) 0.67631(18) 1.6829(2)
H13A H 1.2752 0.6891 1.7213
C23A C 1.23356(10) 0.72418(17) 1.6251(2)
C24A C 1.19761(10) 0.70497(17) 1.56933(19)
H14A H 1.1854 0.7371 1.5291
C25A C 1.17963(10) 0.63925(17) 1.57233(19)
H15A H 1.1550 0.6266 1.5343
C26A C 1.25267(10) 0.79486(17) 1.62240(19)
C27A C 1.29568(10) 0.80153(17) 1.62736(19)
H16A H 1.3129 0.7606 1.6338
C28A C 1.31379(10) 0.86750(17) 1.62306(19)
C29A C 1.28809(10) 0.92673(17) 1.61729(19)
H17A H 1.2999 0.9719 1.6133
C30A C 1.24537(10) 0.92158(17) 1.61715(19)
C31A C 1.22776(10) 0.85462(17) 1.6163(2)
H18A H 1.1983 0.8499 1.6115
C32A C 1.22021(10) 0.98527(17) 1.62439(19)
C33A C 1.18552(10) 0.98133(18) 1.6588(2)
H19A H 1.1777 0.9368 1.6757
C34A C 1.16226(11) 1.04055(18) 1.6690(2)
H20A H 1.1387 1.0366 1.6920
C35A C 1.17403(10) 1.10529(18) 1.6450(2)
C36A C 1.20864(11) 1.11104(18) 1.6120(2)
H21A H 1.2168 1.1559 1.5967
C37A C 1.23133(11) 1.05166(18) 1.6014(2)
H22A H 1.2548 1.0561 1.5780
C38A C 1.12646(12) 1.18165(19) 1.7062(2)
H23A H 1.1238 1.1535 1.7496
C39A C 1.10797(11) 1.24429(19) 1.6848(2)
H24A H 1.0899 1.2682 1.7117
C40A C 1.14433(11) 1.22081(18) 1.6009(2)
H25A H 1.1571 1.2238 1.5575
C41A C 1.35949(10) 0.87463(17) 1.62532(19)
C42A C 1.37966(11) 0.93933(18) 1.6378(2)
H26A H 1.3640 0.9795 1.6468
C43A C 1.42158(10) 0.94719(18) 1.6377(2)
H27A H 1.4344 0.9923 1.6464
C44A C 1.44498(10) 0.88938(18) 1.6249(2)
C45A C 1.42599(11) 0.82395(18) 1.6127(2)
H28A H 1.4419 0.7839 1.6043
C46A C 1.38396(11) 0.81680(18) 1.6127(2)
H29A H 1.3712 0.7716 1.6040
C47A C 1.51147(14) 0.9584(3) 1.6489(4)
H30A H 1.5024 0.9988 1.6725
C48A C 1.54959(14) 0.9481(2) 1.6340(4)
H31A H 1.5723 0.9807 1.6459
C49A C 1.51371(10) 0.85586(17) 1.5949(2)
H32A H 1.5057 0.8104 1.5741
Co1_2 Co 0.901000(13) 1.35351(2) 0.95937(3)
Co1A_2 Co 1.099000(13) 1.35351(2) 1.54063(3)
Co1B Co 0.401000(13) 0.85351(2) 0.95937(3)
Co1C Co 1.599000(13) 0.85351(2) 1.54063(3)
Co1F Co 0.599000(13) 0.14649(2) 1.04063(3)
O3A O 1.14376(7) 0.31929(12) 1.48092(13)
N4_2 N 0.88097(8) 0.26878(14) 0.88180(16)
N4A_2 N 1.11903(8) 0.26878(14) 1.61820(16)
N6B N 0.94878(9) 0.38412(15) 0.90088(18)
N6C N 1.05122(9) 0.38412(15) 1.59912(18)
O5 O 0.84077(11) 0.15686(17) 0.5620(2)
N7 N 0.82648(17) 0.0436(2) 0.5836(3)
C50 C 0.81612(17) 0.1100(2) 0.5695(3)
C51 C 0.8703(6) 0.0262(8) 0.6131(10)
C52 C 0.7959(3) -0.0084(3) 0.5963(4)
O6 O 0.5335(3) 0.5584(5) 0.3167(6)
N8 N 0.55737(19) 0.6035(3) 0.4343(3)
C53 C 0.5296(3) 0.5615(4) 0.3887(5)
C54 C 0.5614(2) 0.6087(4) 0.5173(4)
C55 C 0.5875(3) 0.6481(4) 0.4010(5)
O7 O 0.47370(12) 0.7047(2) 0.5271(2)
N9 N 0.43967(15) 0.6713(3) 0.4046(3)
C56 C 0.47163(15) 0.6996(3) 0.4561(3)
C57 C 0.4397(3) 0.6704(4) 0.3209(4)
C58 C 0.4028(3) 0.6478(7) 0.4265(6)
O8 O 0.9375(3) 0.0285(5) 0.7931(5)
O9 O 0.4557(6) 0.6262(10) 0.6727(10)
loop_
_geom_bond_atom_site_label_1
_geom_bond_atom_site_label_2
_geom_bond_site_symmetry_1
_geom_bond_site_symmetry_2
Co1 O1 1_555 1_555
O1 C1 1_555 1_555
O2 Co1 1_555 1_555
O3 Co1 1_555 1_555
O4 C9 1_555 1_555
N1 Co1 1_555 1_555
N2 C18 1_555 1_555
N3 C35 1_555 1_555
N4 C39 1_555 1_555
N5 C44 1_555 1_555
N6 C48 1_555 1_555
C1 O2 1_555 1_555
C2 C1 1_555 1_555
C3 C2 1_555 1_555
C4 C3 1_555 1_555
H1 C4 1_555 1_555
C5 C4 1_555 1_555
H2 C5 1_555 1_555
C6 C5 1_555 1_555
H3 C6 1_555 1_555
C7 H4 1_555 1_555
C8 C2 1_555 1_555
C9 O3 1_555 1_555
C10 C9 1_555 1_555
C11 C10 1_555 1_555
C12 C11 1_555 1_555
H5 C12 1_555 1_555
C13 C12 1_555 1_555
H6 C13 1_555 1_555
C14 C13 1_555 1_555
H7 C14 1_555 1_555
C15 H8 1_555 1_555
C16 C10 1_555 1_555
C17 N1 1_555 1_555
H9 C17 1_555 1_555
C18 C17 1_555 1_555
H10 C18 1_555 1_555
C19 N1 1_555 1_555
H11 C19 1_555 1_555
C20 N2 1_555 1_555
C21 C20 1_555 1_555
H12 C21 1_555 1_555
C22 C21 1_555 1_555
H13 C22 1_555 1_555
C23 C22 1_555 1_555
C24 C23 1_555 1_555
H14 C24 1_555 1_555
C25 C20 1_555 1_555
H15 C25 1_555 1_555
C26 C23 1_555 1_555
C27 C26 1_555 1_555
H16 C27 1_555 1_555
C28 C27 1_555 1_555
C29 C28 1_555 1_555
H17 C29 1_555 1_555
C30 C29 1_555 1_555
C31 C26 1_555 1_555
H18 C31 1_555 1_555
C32 C30 1_555 1_555
C33 C32 1_555 1_555
H19 C33 1_555 1_555
C34 C33 1_555 1_555
H20 C34 1_555 1_555
C35 C34 1_555 1_555
C36 C35 1_555 1_555
H21 C36 1_555 1_555
C37 C32 1_555 1_555
H22 C37 1_555 1_555
C38 N3 1_555 1_555
H23 C38 1_555 1_555
C39 C38 1_555 1_555
H24 C39 1_555 1_555
C40 N3 1_555 1_555
H25 C40 1_555 1_555
C41 C28 1_555 1_555
C42 C41 1_555 1_555
H26 C42 1_555 1_555
C43 C42 1_555 1_555
H27 C43 1_555 1_555
C44 C43 1_555 1_555
C45 C44 1_555 1_555
H28 C45 1_555 1_555
C46 C41 1_555 1_555
H29 C46 1_555 1_555
C47 N5 1_555 1_555
H30 C47 1_555 1_555
C48 C47 1_555 1_555
H31 C48 1_555 1_555
C49 N5 1_555 1_555
H32 C49 1_555 1_555
O5 C50 1_555 1_555
N7 C50 1_555 1_555
C51 N7 1_555 1_555
C52 N7 1_555 1_555
O6 C53 1_555 1_555
N8 C53 1_555 1_555
C54 N8 1_555 1_555
C55 N8 1_555 1_555
O7 C56 1_555 1_555
N9 C56 1_555 1_555
C57 N9 1_555 1_555
C58 N9 1_555 1_555
O1A C1A 1_555 1_555
O2A C1A 1_555 1_555
C1A C2A 1_555 1_555
C2A C3A 1_555 1_555
C3A C8 1_555 1_555
C4A C3A 1_555 1_555
H1A C4A 1_555 1_555
C5A C4A 1_555 1_555
H2A C5A 1_555 1_555
C6A C7 1_555 1_555
H3A C6A 1_555 1_555
C7A C6 1_555 1_555
H4A C7A 1_555 1_555
C8A C3 1_555 1_555
O3F C9F 1_555 1_555
O4F C9F 1_555 1_555
C9F C10F 1_555 1_555
C10F C11F 1_555 1_555
C11F C16 1_555 1_555
C12F C11F 1_555 1_555
H5F C12F 1_555 1_555
C13F C12F 1_555 1_555
H6F C13F 1_555 1_555
C14F C15 1_555 1_555
H7F C14F 1_555 1_555
C15F C14 1_555 1_555
H8F C15F 1_555 1_555
C16F C11 1_555 1_555
Co1A O1A 1_555 1_555
N1A Co1A 1_555 1_555
N2A C18A 1_555 1_555
N3A C35A 1_555 1_555
N4A C39A 1_555 1_555
N5A C44A 1_555 1_555
N6A C48A 1_555 1_555
C17A N1A 1_555 1_555
H9A C17A 1_555 1_555
C18A C17A 1_555 1_555
H10A C18A 1_555 1_555
C19A N1A 1_555 1_555
H11A C19A 1_555 1_555
C20A N2A 1_555 1_555
C21A C20A 1_555 1_555
H12A C21A 1_555 1_555
C22A C21A 1_555 1_555
H13A C22A 1_555 1_555
C23A C22A 1_555 1_555
C24A C23A 1_555 1_555
H14A C24A 1_555 1_555
C25A C20A 1_555 1_555
H15A C25A 1_555 1_555
C26A C23A 1_555 1_555
C27A C26A 1_555 1_555
H16A C27A 1_555 1_555
C28A C27A 1_555 1_555
C29A C28A 1_555 1_555
H17A C29A 1_555 1_555
C30A C29A 1_555 1_555
C31A C26A 1_555 1_555
H18A C31A 1_555 1_555
C32A C30A 1_555 1_555
C33A C32A 1_555 1_555
H19A C33A 1_555 1_555
C34A C33A 1_555 1_555
H20A C34A 1_555 1_555
C35A C34A 1_555 1_555
C36A C35A 1_555 1_555
H21A C36A 1_555 1_555
C37A C32A 1_555 1_555
H22A C37A 1_555 1_555
C38A N3A 1_555 1_555
H23A C38A 1_555 1_555
C39A C38A 1_555 1_555
H24A C39A 1_555 1_555
C40A N3A 1_555 1_555
H25A C40A 1_555 1_555
C41A C28A 1_555 1_555
C42A C41A 1_555 1_555
H26A C42A 1_555 1_555
C43A C42A 1_555 1_555
H27A C43A 1_555 1_555
C44A C43A 1_555 1_555
C45A C44A 1_555 1_555
H28A C45A 1_555 1_555
C46A C41A 1_555 1_555
H29A C46A 1_555 1_555
C47A N5A 1_555 1_555
H30A C47A 1_555 1_555
C48A C47A 1_555 1_555
H31A C48A 1_555 1_555
C49A N5A 1_555 1_555
H32A C49A 1_555 1_555
Co1_2 N4 1_555 1_555
Co1A_2 N4A 1_555 1_555
Co1B N6 1_555 1_555
Co1C N6A 1_555 1_555
Co1F O3F 1_555 1_555
O3A Co1A 1_555 1_555
N4_2 Co1 1_555 1_555
N4A_2 Co1A 1_555 1_555
N6B Co1 1_555 1_555
N6C Co1A 1_555 1_555
N2 C19 1_555 1_555
N4 C40 1_555 1_555
N6 C49 1_555 1_555
C7 C8 1_555 1_555
C15 C16 1_555 1_555
C24 C25 1_555 1_555
C30 C31 1_555 1_555
C36 C37 1_555 1_555
C45 C46 1_555 1_555
O2A Co1A 1_555 1_555
C2A C8A 1_555 1_555
C5A C6A 1_555 1_555
C7A C8A 1_555 1_555
C10F C16F 1_555 1_555
C13F C14F 1_555 1_555
C15F C16F 1_555 1_555
N2A C19A 1_555 1_555
N4A C40A 1_555 1_555
N6A C49A 1_555 1_555
C24A C25A 1_555 1_555
C30A C31A 1_555 1_555
C36A C37A 1_555 1_555
C45A C46A 1_555 1_555

#END
