
#######################################################################
#
#                 Cambridge Crystallographic Data Centre
#                                CCDC 
#
#######################################################################
#
# If this CIF has been generated from an entry in the Cambridge 
# Structural Database, then it will include bibliographic, chemical, 
# crystal, experimental, refinement or atomic coordinate data resulting 
# from the CCDC's data processing and validation procedures.
#
#######################################################################

data_OHEMIX
_chemical_formula_moiety         '(C6 H8 Ag1 F3 N2 O5 S1)n'
_symmetry_cell_setting           monoclinic
_symmetry_space_group_name_H-M   'P 21/c'
_symmetry_Int_Tables_number      14
_space_group_name_Hall           '-P 2ybc'
loop_
_symmetry_equiv_pos_site_id
_symmetry_equiv_pos_as_xyz
1 x,y,z
2 x,1/2-y,1/2+z
3 -x,-y,-z
4 -x,1/2+y,1/2-z
_cell_length_a                   5.4590(10)
_cell_length_b                   18.4670(10)
_cell_length_c                   11.6340(10)
_cell_angle_alpha                90
_cell_angle_beta                 94.860(10)
_cell_angle_gamma                90
_cell_volume                     1168.62
loop_
_atom_site_label
_atom_site_type_symbol
_atom_site_fract_x
_atom_site_fract_y
_atom_site_fract_z
Ag1 Ag 0.20849(4) 0.046228(14) 0.49247(2)
C1 C -0.2413(5) 0.3800(2) 0.0734(3)
C2 C -0.3884(5) 0.3212(2) 0.1276(3)
H1 H -0.4278(5) 0.3366(2) 0.2036(3)
H2 H -0.5418(5) 0.3136(2) 0.0807(3)
C3 C -0.3780(6) 0.1968(2) 0.2035(3)
H3 H -0.5522(6) 0.1973(2) 0.1787(3)
H4 H -0.3596(6) 0.2090(2) 0.2849(3)
C4 C -0.2769(6) 0.1209(2) 0.1869(3)
H5 H -0.3903(6) 0.0860(2) 0.2148(3)
H6 H -0.2688(6) 0.1123(2) 0.1050(3)
C5 C -0.0330(7) 0.1089(2) 0.2464(3)
N1 N -0.2523(4) 0.25255(13) 0.1382(2)
H7 H -0.0920(4) 0.26140(13) 0.1761(2)
H8 H -0.2313(4) 0.23429(13) 0.0624(2)
N2 N 0.1543(7) 0.0974(2) 0.2923(3)
O1 O -0.0211(4) 0.36869(13) 0.0659(2)
O2 O -0.3582(4) 0.43644(13) 0.0442(3)
O1A O -0.0211(4) 0.13131(13) 0.5659(2)
O2A O 0.6418(4) 0.06356(13) 0.5442(3)
O2C O 0.3582(4) -0.06356(13) 0.4558(3)
Ag1A Ag 0.20849(4) 0.453772(14) -0.00753(2)
Ag1A_2 Ag -0.79151(4) 0.453772(14) -0.00753(2)
Ag1C Ag -0.20849(4) 0.546228(14) 0.00753(2)
C6 C -0.1888(8) -0.0843(2) 0.1176(4)
F1 F -0.2692(6) -0.04515(15) 0.0262(3)
F2 F -0.3061(6) -0.06244(14) 0.2063(3)
F3 F 0.0467(5) -0.0690(2) 0.1424(3)
O3 O -0.4941(4) -0.18829(15) 0.0719(2)
O4 O -0.1082(5) -0.1909(2) -0.0130(2)
O5 O -0.1242(5) -0.21414(15) 0.1917(2)
S1 S -0.23198(14) -0.18032(5) 0.08949(7)
loop_
_geom_bond_atom_site_label_1
_geom_bond_atom_site_label_2
_geom_bond_site_symmetry_1
_geom_bond_site_symmetry_2
Ag1 N2 1_555 1_555
C1 C2 1_555 1_555
C2 H1 1_555 1_555
H2 C2 1_555 1_555
C3 H3 1_555 1_555
H4 C3 1_555 1_555
C4 C3 1_555 1_555
H5 C4 1_555 1_555
H6 C4 1_555 1_555
C5 C4 1_555 1_555
C6 F1 1_555 1_555
F2 C6 1_555 1_555
F3 C6 1_555 1_555
N1 C2 1_555 1_555
H7 N1 1_555 1_555
H8 N1 1_555 1_555
N2 C5 1_555 1_555
O1 C1 1_555 1_555
O2 C1 1_555 1_555
O3 S1 1_555 1_555
O4 S1 1_555 1_555
O5 S1 1_555 1_555
S1 C6 1_555 1_555
O1A Ag1 1_555 1_555
O2A Ag1 1_555 1_555
O2C Ag1 1_555 1_555
Ag1A O1 1_555 1_555
Ag1A_2 O2 1_555 1_555
Ag1C O2 1_555 1_555
C3 N1 1_555 1_555

#END
