
#######################################################################
#
#                 Cambridge Crystallographic Data Centre
#                                CCDC 
#
#######################################################################
#
# If this CIF has been generated from an entry in the Cambridge 
# Structural Database, then it will include bibliographic, chemical, 
# crystal, experimental, refinement or atomic coordinate data resulting 
# from the CCDC's data processing and validation procedures.
#
#######################################################################

data_POKTUG
_chemical_formula_moiety         '(C24 H22 Cu1 Ho2 N8 O23)n'
_symmetry_cell_setting           monoclinic
_symmetry_space_group_name_H-M   'P 21/c'
_symmetry_Int_Tables_number      14
_space_group_name_Hall           '-P 2ybc'
loop_
_symmetry_equiv_pos_site_id
_symmetry_equiv_pos_as_xyz
1 x,y,z
2 -x,1/2+y,1/2-z
3 -x,-y,-z
4 x,1/2-y,1/2+z
_cell_length_a                   6.0812(8)
_cell_length_b                   23.472(3)
_cell_length_c                   13.3830(16)
_cell_angle_alpha                90
_cell_angle_beta                 112.621(5)
_cell_angle_gamma                90
_cell_volume                     1763.3
loop_
_atom_site_label
_atom_site_type_symbol
_atom_site_fract_x
_atom_site_fract_y
_atom_site_fract_z
Cu1 Cu -0.5000 1.0000 0.0000
Ho1 Ho 0.39952(5) 0.831002(16) 0.39083(3)
O1 O -0.2106(9) 1.0284(2) 0.1139(4)
O2 O 0.1389(10) 0.9957(2) 0.2282(5)
O3 O 0.5014(9) 0.9374(3) 0.1463(5)
O4 O 0.3973(9) 0.8726(2) 0.2404(5)
O5 O -0.1885(8) 0.6623(2) -0.0677(4)
O6 O 0.1631(8) 0.7064(2) -0.0210(4)
O7 O 0.3582(10) 0.6730(2) 0.2051(4)
O8 O 0.4667(9) 0.7501(2) 0.3092(4)
O9 O 0.1043(11) 0.9009(2) 0.3592(5)
H1 H 0.0608 0.9364 0.3483
H2 H 0.0648 0.8853 0.4072
O10 O 0.5356(10) 0.8756(3) 0.5612(5)
H3 H 0.6712 0.8602 0.5761
H4 H 0.4732 0.8604 0.6017
N1 N -0.2808(10) 0.9404(3) -0.0157(5)
N2 N 0.0658(12) 0.8602(3) 0.0039(6)
N3 N -0.3165(10) 0.7439(3) 0.0398(5)
N4 N 0.0197(10) 0.7880(2) 0.2296(5)
C1 C -0.0378(13) 0.9926(3) 0.1439(6)
C2 C -0.0701(12) 0.9436(3) 0.0660(6)
C3 C -0.3212(14) 0.8985(3) -0.0860(7)
H5 H -0.4680 0.8959 -0.1435
C4 C -0.1467(15) 0.8582(4) -0.0752(7)
H6 H -0.1807 0.8287 -0.1253
C5 C 0.1077(12) 0.9035(3) 0.0749(6)
C6 C 0.3568(13) 0.9055(3) 0.1628(7)
C7 C -0.0264(11) 0.6961(3) -0.0103(5)
C8 C -0.0855(12) 0.7298(3) 0.0729(6)
C9 C -0.3760(13) 0.7826(3) 0.0985(6)
H7 H -0.5346 0.7934 0.0777
C10 C -0.2032(13) 0.8071(3) 0.1905(6)
H8 H -0.2449 0.8372 0.2249
C11 C 0.0783(12) 0.7482(3) 0.1734(5)
C12 C 0.3220(13) 0.7218(3) 0.2321(6)
Ho1B Ho -1.39952(5) 1.168998(16) -0.39083(3)
O1B O -0.7894(9) 0.9716(2) -0.1139(4)
O2B O -1.1389(10) 1.0043(2) -0.2282(5)
O3B O -1.5014(9) 1.0626(3) -0.1463(5)
O4B O -1.3973(9) 1.1274(2) -0.2404(5)
O5B O -0.8115(8) 1.3377(2) 0.0677(4)
O6B O -1.1631(8) 1.2936(2) 0.0210(4)
O7B O -1.3582(10) 1.3270(2) -0.2051(4)
O8B O -1.4667(9) 1.2499(2) -0.3092(4)
O9B O -1.1043(11) 1.0991(2) -0.3592(5)
H1B H -1.0608 1.0636 -0.3483
H2B H -1.0648 1.1147 -0.4072
O10B O -1.5356(10) 1.1244(3) -0.5612(5)
H3B H -1.6712 1.1398 -0.5761
H4B H -1.4732 1.1396 -0.6017
N1B N -0.7192(10) 1.0596(3) 0.0157(5)
N2B N -1.0658(12) 1.1398(3) -0.0039(6)
N3B N -0.6835(10) 1.2561(3) -0.0398(5)
N4B N -1.0197(10) 1.2120(2) -0.2296(5)
C1B C -0.9622(13) 1.0074(3) -0.1439(6)
C2B C -0.9299(12) 1.0564(3) -0.0660(6)
C3B C -0.6788(14) 1.1015(3) 0.0860(7)
H5B H -0.5320 1.1041 0.1435
C4B C -0.8533(15) 1.1418(4) 0.0752(7)
H6B H -0.8193 1.1713 0.1253
C5B C -1.1077(12) 1.0965(3) -0.0749(6)
C6B C -1.3568(13) 1.0945(3) -0.1628(7)
C7B C -0.9736(11) 1.3039(3) 0.0103(5)
C8B C -0.9145(12) 1.2702(3) -0.0729(6)
C9B C -0.6240(13) 1.2174(3) -0.0985(6)
H7B H -0.4654 1.2066 -0.0777
C10B C -0.7968(13) 1.1929(3) -0.1905(6)
H8B H -0.7551 1.1628 -0.2249
C11B C -1.0783(12) 1.2518(3) -0.1734(5)
C12B C -1.3220(13) 1.2782(3) -0.2321(6)
Cu1_2 Cu -1.5000 1.0000 0.0000
Cu1_3 Cu 0.5000 1.0000 0.0000
Ho1A Ho -1.39952(5) 1.331002(16) 0.10917(3)
Ho1A_2 Ho -0.39952(5) 1.331002(16) 0.10917(3)
Ho1C Ho -0.60048(5) 0.668998(16) -0.10917(3)
Ho1C_2 Ho 0.39952(5) 0.668998(16) -0.10917(3)
O3_2 O -0.4986(9) 0.9374(3) 0.1463(5)
O3B_2 O -0.5014(9) 1.0626(3) -0.1463(5)
O5A O -1.8115(8) 1.1623(2) -0.4323(4)
O5C O 0.8115(8) 0.8377(2) 0.4323(4)
O6A O -1.1631(8) 1.2064(2) -0.4790(4)
O6C O 0.1631(8) 0.7936(2) 0.4790(4)
N3A N -1.6835(10) 1.2439(3) -0.5398(5)
N3C N 0.6835(10) 0.7561(3) 0.5398(5)
O11 O 0.543(4) 0.9494(12) 0.408(2)
H9 H 0.4431 0.9561 0.3383
H10 H 0.6775 0.9394 0.3781
O12 O 0.86(3) 0.001(4) 0.444(12)
O13 O 0.9863(15) 0.9081(4) 0.6698(8)
loop_
_geom_bond_atom_site_label_1
_geom_bond_atom_site_label_2
_geom_bond_site_symmetry_1
_geom_bond_site_symmetry_2
Cu1 O1 1_555 1_555
Ho1 O4 1_555 1_555
O1 C1 1_555 1_555
O2 C1 1_555 1_555
O3 C6 1_555 1_555
O4 C6 1_555 1_555
O5 C7 1_555 1_555
O6 C7 1_555 1_555
O7 C12 1_555 1_555
O8 Ho1 1_555 1_555
O9 Ho1 1_555 1_555
H1 O9 1_555 1_555
H2 O9 1_555 1_555
O10 Ho1 1_555 1_555
H3 O10 1_555 1_555
H4 O10 1_555 1_555
N1 Cu1 1_555 1_555
N2 C4 1_555 1_555
N3 C8 1_555 1_555
N4 Ho1 1_555 1_555
C1 C2 1_555 1_555
C2 N1 1_555 1_555
C3 N1 1_555 1_555
H5 C3 1_555 1_555
C4 C3 1_555 1_555
H6 C4 1_555 1_555
C5 N2 1_555 1_555
C6 C5 1_555 1_555
C7 C8 1_555 1_555
C8 C11 1_555 1_555
C9 N3 1_555 1_555
H7 C9 1_555 1_555
C10 N4 1_555 1_555
H8 C10 1_555 1_555
C11 N4 1_555 1_555
C12 O8 1_555 1_555
O11 H9 1_555 1_555
H10 O11 1_555 1_555
Ho1B O4B 1_555 1_555
O1B Cu1 1_555 1_555
O2B C1B 1_555 1_555
O3B C6B 1_555 1_555
O4B C6B 1_555 1_555
O5B C7B 1_555 1_555
O6B C7B 1_555 1_555
O7B C12B 1_555 1_555
O8B Ho1B 1_555 1_555
O9B Ho1B 1_555 1_555
H1B O9B 1_555 1_555
H2B O9B 1_555 1_555
O10B Ho1B 1_555 1_555
H3B O10B 1_555 1_555
H4B O10B 1_555 1_555
N1B Cu1 1_555 1_555
N2B C4B 1_555 1_555
N3B C8B 1_555 1_555
N4B Ho1B 1_555 1_555
C1B O1B 1_555 1_555
C2B N1B 1_555 1_555
C3B N1B 1_555 1_555
H5B C3B 1_555 1_555
C4B C3B 1_555 1_555
H6B C4B 1_555 1_555
C5B N2B 1_555 1_555
C6B C5B 1_555 1_555
C7B C8B 1_555 1_555
C8B C11B 1_555 1_555
C9B N3B 1_555 1_555
H7B C9B 1_555 1_555
C10B N4B 1_555 1_555
H8B C10B 1_555 1_555
C11B N4B 1_555 1_555
C12B O8B 1_555 1_555
Cu1_2 O3B 1_555 1_555
Cu1_3 O3 1_555 1_555
Ho1A O6B 1_555 1_555
Ho1A_2 O5B 1_555 1_555
Ho1C O5 1_555 1_555
Ho1C_2 O6 1_555 1_555
O3_2 Cu1 1_555 1_555
O3B_2 Cu1 1_555 1_555
O5A Ho1B 1_555 1_555
O5C Ho1 1_555 1_555
O6A Ho1B 1_555 1_555
O6C Ho1 1_555 1_555
N3A Ho1B 1_555 1_555
N3C Ho1 1_555 1_555
N3 Ho1C 1_555 1_555
C2 C5 1_555 1_555
C9 C10 1_555 1_555
C11 C12 1_555 1_555
N3B Ho1A_2 1_555 1_555
C1B C2B 1_555 1_555
C2B C5B 1_555 1_555
C9B C10B 1_555 1_555
C11B C12B 1_555 1_555

#END
