
#######################################################################
#
#                 Cambridge Crystallographic Data Centre
#                                CCDC 
#
#######################################################################
#
# If this CIF has been generated from an entry in the Cambridge 
# Structural Database, then it will include bibliographic, chemical, 
# crystal, experimental, refinement or atomic coordinate data resulting 
# from the CCDC's data processing and validation procedures.
#
#######################################################################

data_POKVAO
_chemical_formula_moiety         '(C24 H20 Cu1 Gd2 N8 O22)n'
_symmetry_cell_setting           monoclinic
_symmetry_space_group_name_H-M   'P 21/c'
_symmetry_Int_Tables_number      14
_space_group_name_Hall           '-P 2ybc'
loop_
_symmetry_equiv_pos_site_id
_symmetry_equiv_pos_as_xyz
1 x,y,z
2 -x,1/2+y,1/2-z
3 -x,-y,-z
4 x,1/2-y,1/2+z
_cell_length_a                   6.0407(6)
_cell_length_b                   23.580(2)
_cell_length_c                   13.3410(12)
_cell_angle_alpha                90
_cell_angle_beta                 112.797(4)
_cell_angle_gamma                90
_cell_volume                     1751.84
loop_
_atom_site_label
_atom_site_type_symbol
_atom_site_fract_x
_atom_site_fract_y
_atom_site_fract_z
Gd1 Gd 0.09826(5) 0.671386(13) 0.10983(2)
Cu1 Cu 1.0000 0.5000 0.5000
O1 O 0.0252(9) 0.7495(2) 0.1908(4)
O2 O 0.1303(11) 0.8258(2) 0.2959(5)
O3 O 0.3320(8) 0.7931(2) 0.5224(4)
O4 O 0.6877(9) 0.8371(2) 0.5691(5)
O5 O 0.0901(10) 0.6253(3) 0.2535(5)
O6 O -0.0095(10) 0.5617(2) 0.3495(5)
O7 O 0.3612(12) 0.5052(3) 0.2696(5)
O8 O 0.7083(9) 0.4710(2) 0.3867(5)
O9 O 0.3823(11) 0.5997(2) 0.1397(5)
H1 H 0.5324 0.6029 0.1559
H2 H 0.3626 0.5767 0.1846
O10 O -0.0456(12) 0.6232(3) -0.0524(6)
H3 H -0.0703 0.6426 -0.1095
H4 H 0.0624 0.5989 -0.0469
N1 N 0.7779(11) 0.5593(3) 0.5128(5)
N2 N 0.4270(12) 0.6399(3) 0.4915(6)
N3 N 0.4709(10) 0.7122(2) 0.2701(5)
N4 N 0.8131(10) 0.7574(2) 0.4593(5)
C1 C 0.1678(13) 0.7780(3) 0.2684(6)
C2 C 0.4143(13) 0.7523(3) 0.3279(6)
C3 C 0.5835(12) 0.7703(3) 0.4278(6)
C4 C 0.8733(13) 0.7186(3) 0.4027(6)
H5 H 1.0330 0.7076 0.4249
C5 C 0.6988(13) 0.6937(3) 0.3091(6)
H6 H 0.7423 0.6642 0.2741
C6 C 0.5259(12) 0.8031(3) 0.5107(5)
C7 C 0.1342(12) 0.5929(3) 0.3334(6)
C8 C 0.3859(13) 0.5957(3) 0.4204(6)
C9 C 0.6402(15) 0.6415(3) 0.5737(7)
H7 H 0.6718 0.6702 0.6251
C10 C 0.8177(16) 0.6014(3) 0.5849(7)
H8 H 0.9652 0.6039 0.6432
C11 C 0.5634(14) 0.5558(3) 0.4312(6)
C12 C 0.5383(14) 0.5080(3) 0.3549(7)
Gd1B Gd 0.90174(5) 0.328614(13) 0.89017(2)
O1B O 0.9748(9) 0.2505(2) 0.8092(4)
O2B O 0.8697(11) 0.1742(2) 0.7041(5)
O3B O 0.6680(8) 0.2069(2) 0.4776(4)
O4B O 0.3123(9) 0.1629(2) 0.4309(5)
O5B O 0.9099(10) 0.3747(3) 0.7465(5)
O6B O 1.0095(10) 0.4383(2) 0.6505(5)
O7B O 0.6388(12) 0.4948(3) 0.7304(5)
O8B O 0.2917(9) 0.5290(2) 0.6133(5)
O9B O 0.6177(11) 0.4003(2) 0.8603(5)
H1B H 0.4676 0.3971 0.8441
H2B H 0.6374 0.4233 0.8154
O10B O 1.0456(12) 0.3768(3) 1.0524(6)
H3B H 1.0703 0.3574 1.1095
H4B H 0.9376 0.4011 1.0469
N1B N 0.2221(11) 0.4407(3) 0.4872(5)
N2B N 0.5730(12) 0.3601(3) 0.5085(6)
N3B N 0.5291(10) 0.2878(2) 0.7299(5)
N4B N 0.1869(10) 0.2426(2) 0.5407(5)
C1B C 0.8322(13) 0.2220(3) 0.7316(6)
C2B C 0.5857(13) 0.2477(3) 0.6721(6)
C3B C 0.4165(12) 0.2297(3) 0.5722(6)
C4B C 0.1267(13) 0.2814(3) 0.5973(6)
H5B H -0.0330 0.2924 0.5751
C5B C 0.3012(13) 0.3063(3) 0.6909(6)
H6B H 0.2577 0.3358 0.7259
C6B C 0.4741(12) 0.1969(3) 0.4893(5)
C7B C 0.8658(12) 0.4071(3) 0.6666(6)
C8B C 0.6141(13) 0.4043(3) 0.5796(6)
C9B C 0.3598(15) 0.3585(3) 0.4263(7)
H7B H 0.3282 0.3298 0.3749
C10B C 0.1823(16) 0.3986(3) 0.4151(7)
H8B H 0.0348 0.3961 0.3568
C11B C 0.4366(14) 0.4442(3) 0.5688(6)
C12B C 0.4617(14) 0.4920(3) 0.6451(7)
Gd1A Gd -0.09826(5) 0.171386(13) 0.39017(2)
Gd1A_2 Gd 0.90174(5) 0.171386(13) 0.39017(2)
Gd1C Gd 0.09826(5) 0.828614(13) 0.60983(2)
Gd1C_2 Gd 1.09826(5) 0.828614(13) 0.60983(2)
Cu1_2 Cu 0.0000 0.5000 0.5000
O3A O 0.6680(8) 0.2931(2) 0.9776(4)
O3C O 0.3320(8) 0.7069(2) 0.0224(4)
O4A O 1.3123(9) 0.3371(2) 0.9309(5)
O4C O -0.3123(9) 0.6629(2) 0.0691(5)
O6_2 O 0.9905(10) 0.5617(2) 0.3495(5)
O8B_2 O 1.2917(9) 0.5290(2) 0.6133(5)
N1B_2 N 1.2221(11) 0.4407(3) 0.4872(5)
N4A N 1.1869(10) 0.2574(2) 1.0407(5)
N4C N -0.1869(10) 0.7426(2) -0.0407(5)
O11 O 0.5049(16) 0.9034(5) 0.3250(9)
O12 O 0.779(9) 1.0048(16) 0.599(3)
loop_
_geom_bond_atom_site_label_1
_geom_bond_atom_site_label_2
_geom_bond_site_symmetry_1
_geom_bond_site_symmetry_2
Gd1 O1 1_555 1_555
Cu1 O8 1_555 1_555
O1 C1 1_555 1_555
O2 C1 1_555 1_555
O3 C6 1_555 1_555
O4 C6 1_555 1_555
O5 Gd1 1_555 1_555
O6 C7 1_555 1_555
O7 C12 1_555 1_555
O8 C12 1_555 1_555
O9 Gd1 1_555 1_555
H1 O9 1_555 1_555
H2 O9 1_555 1_555
O10 Gd1 1_555 1_555
H3 O10 1_555 1_555
H4 O10 1_555 1_555
N1 Cu1 1_555 1_555
N2 C8 1_555 1_555
N3 Gd1 1_555 1_555
N4 C3 1_555 1_555
C1 C2 1_555 1_555
C2 N3 1_555 1_555
C3 C2 1_555 1_555
C4 N4 1_555 1_555
H5 C4 1_555 1_555
C5 N3 1_555 1_555
H6 C5 1_555 1_555
C6 C3 1_555 1_555
C7 O5 1_555 1_555
C8 C7 1_555 1_555
C9 N2 1_555 1_555
H7 C9 1_555 1_555
C10 N1 1_555 1_555
H8 C10 1_555 1_555
C11 N1 1_555 1_555
C12 C11 1_555 1_555
Gd1B O1B 1_555 1_555
O1B C1B 1_555 1_555
O2B C1B 1_555 1_555
O3B C6B 1_555 1_555
O4B C6B 1_555 1_555
O5B Gd1B 1_555 1_555
O6B Cu1 1_555 1_555
O7B C12B 1_555 1_555
O8B C12B 1_555 1_555
O9B Gd1B 1_555 1_555
H1B O9B 1_555 1_555
H2B O9B 1_555 1_555
O10B Gd1B 1_555 1_555
H3B O10B 1_555 1_555
H4B O10B 1_555 1_555
N1B C10B 1_555 1_555
N2B C8B 1_555 1_555
N3B Gd1B 1_555 1_555
N4B C3B 1_555 1_555
C1B C2B 1_555 1_555
C2B N3B 1_555 1_555
C3B C2B 1_555 1_555
C4B N4B 1_555 1_555
H5B C4B 1_555 1_555
C5B N3B 1_555 1_555
H6B C5B 1_555 1_555
C6B C3B 1_555 1_555
C7B O5B 1_555 1_555
C8B C7B 1_555 1_555
C9B N2B 1_555 1_555
H7B C9B 1_555 1_555
C10B C9B 1_555 1_555
H8B C10B 1_555 1_555
C11B N1B 1_555 1_555
C12B C11B 1_555 1_555
Gd1A O4B 1_555 1_555
Gd1A_2 O3B 1_555 1_555
Gd1C O3 1_555 1_555
Gd1C_2 O4 1_555 1_555
Cu1_2 O6 1_555 1_555
O3A Gd1B 1_555 1_555
O3C Gd1 1_555 1_555
O4A Gd1B 1_555 1_555
O4C Gd1 1_555 1_555
O6_2 Cu1 1_555 1_555
O8B_2 Cu1 1_555 1_555
N1B_2 Cu1 1_555 1_555
N4A Gd1B 1_555 1_555
N4C Gd1 1_555 1_555
N4 Gd1C_2 1_555 1_555
C4 C5 1_555 1_555
C8 C11 1_555 1_555
C9 C10 1_555 1_555
O6B C7B 1_555 1_555
O8B Cu1_2 1_555 1_555
N1B Cu1_2 1_555 1_555
N4B Gd1A 1_555 1_555
C4B C5B 1_555 1_555
C8B C11B 1_555 1_555

#END
