
#######################################################################
#
#                 Cambridge Crystallographic Data Centre
#                                CCDC 
#
#######################################################################
#
# If this CIF has been generated from an entry in the Cambridge 
# Structural Database, then it will include bibliographic, chemical, 
# crystal, experimental, refinement or atomic coordinate data resulting 
# from the CCDC's data processing and validation procedures.
#
#######################################################################

data_FERCAH
_chemical_formula_moiety         '(C48 H44 Li4 O8)n'
_symmetry_cell_setting           tetragonal
_symmetry_space_group_name_H-M   'I 41/a'
_symmetry_Int_Tables_number      88
_space_group_name_Hall           '-I 4ad'
loop_
_symmetry_equiv_pos_site_id
_symmetry_equiv_pos_as_xyz
1 x,y,z
2 3/4-y,1/4+x,1/4+z
3 1/2+x,1/2+y,1/2+z
4 1/4-y,3/4+x,3/4+z
5 1/4+y,1/4-x,1/4+z
6 1/2-x,-y,1/2+z
7 3/4+y,3/4-x,3/4+z
8 -x,1/2-y,z
9 -x,-y,-z
10 1/4+y,3/4-x,3/4-z
11 1/2-x,1/2-y,1/2-z
12 3/4+y,1/4-x,1/4-z
13 3/4-y,3/4+x,3/4-z
14 1/2+x,y,1/2-z
15 1/4-y,1/4+x,1/4-z
16 x,1/2+y,-z
_cell_length_a                   15.0031(1)
_cell_length_b                   15.0031(1)
_cell_length_c                   24.7185(4)
_cell_angle_alpha                90
_cell_angle_beta                 90
_cell_angle_gamma                90
_cell_volume                     5563.96
loop_
_atom_site_label
_atom_site_type_symbol
_atom_site_fract_x
_atom_site_fract_y
_atom_site_fract_z
_atom_site_U_iso_or_equiv
_atom_site_thermal_displace_type
Li1 Li -0.47597(10) 0.33343(10) -0.08624(6) 0.0295 Uani
O1 O -0.59312(4) 0.27688(4) -0.08515(2) 0.0269 Uani
O2 O -0.68026(4) 0.27824(4) -0.21540(2) 0.0310 Uani
C1 C -0.34485(6) 0.18654(6) -0.05387(4) 0.0291 Uani
C2 C -0.31562(7) 0.22750(7) -0.00703(4) 0.0377 Uani
H1 H -0.3397 0.2838 0.0029 0.0450 Uiso
C3 C -0.25083(7) 0.18751(9) 0.02636(5) 0.0464 Uani
H2 H -0.2332 0.2166 0.0588 0.0560 Uiso
C4 C -0.21317(7) 0.10819(9) 0.01313(5) 0.0484 Uani
H3 H -0.1686 0.0830 0.0357 0.0580 Uiso
C5 C -0.24040(7) 0.06294(8) -0.03436(4) 0.0453 Uani
C6 C -0.20448(10) -0.02100(10) -0.04980(6) 0.0679 Uani
H4 H -0.1603 -0.0480 -0.0276 0.0820 Uiso
C7 C -0.23156(12) -0.06361(11) -0.09528(6) 0.0810 Uani
H5 H -0.2058 -0.1193 -0.1049 0.0970 Uiso
C8 C -0.29736(12) -0.02584(9) -0.12816(5) 0.0647 Uani
H6 H -0.3161 -0.0560 -0.1600 0.0780 Uiso
C9 C -0.33485(8) 0.05429(7) -0.11472(4) 0.0413 Uani
H7 H -0.3803 0.0786 -0.1370 0.0500 Uiso
C10 C -0.30695(6) 0.10153(7) -0.06814(4) 0.0343 Uani
C11 C -0.66842(7) 0.27427(6) -0.27306(4) 0.0318 Uani
H8 H -0.6054 0.2603 -0.2814 0.0380 Uiso
H9 H -0.6826 0.3330 -0.2891 0.0380 Uiso
C12 C -0.72800(7) 0.20410(6) -0.29741(4) 0.0319 Uani
H10 H -0.7890 0.3552 -0.2168 0.0380 Uiso
H11 H -0.7798 0.2967 -0.1628 0.0380 Uiso
Li1L Li -0.58343(10) 0.27403(10) -0.16376(6) 0.0295 Uani
Li1G Li -0.52403(10) 0.16657(10) -0.08624(6) 0.0295 Uani
Li1I Li -0.41657(10) 0.22597(10) -0.16376(6) 0.0295 Uani
Li1F Li -0.91657(10) 0.22597(10) -0.33624(6) 0.0295 Uani
Li1O Li -0.47597(10) -0.16657(10) 0.08624(6) 0.0295 Uani
O1L O -0.52688(4) 0.15688(4) -0.16485(2) 0.0269 Uani
O1G O -0.40688(4) 0.22312(4) -0.08515(2) 0.0269 Uani
O1I O -0.47312(4) 0.34312(4) -0.16485(2) 0.0269 Uani
O2I O -0.47176(4) 0.43026(4) -0.03460(2) 0.0310 Uani
O2J O -0.81974(4) 0.22176(4) -0.28460(2) 0.0310 Uani
O2G O -0.31974(4) 0.22176(4) -0.21540(2) 0.0310 Uani
O2L O -0.52824(4) 0.06974(4) -0.03460(2) 0.0310 Uani
O2D O -0.47176(4) -0.06974(4) 0.03460(2) 0.0310 Uani
C1L C -0.43654(6) 0.40515(6) -0.19613(4) 0.0291 Uani
C1I C -0.56346(6) 0.09485(6) -0.19613(4) 0.0291 Uani
C1G C -0.65515(6) 0.31346(6) -0.05387(4) 0.0291 Uani
C2L C -0.47750(7) 0.43438(7) -0.24297(4) 0.0377 Uani
C2I C -0.52250(7) 0.06562(7) -0.24297(4) 0.0377 Uani
C2G C -0.68438(7) 0.27250(7) -0.00703(4) 0.0377 Uani
H1L H -0.5338 0.4103 -0.2529 0.0450 Uiso
H1I H -0.4662 0.0897 -0.2529 0.0450 Uiso
H1G H -0.6603 0.2162 0.0029 0.0450 Uiso
C3L C -0.43751(9) 0.49917(7) -0.27636(5) 0.0464 Uani
C3I C -0.56249(9) 0.00083(7) -0.27636(5) 0.0464 Uani
C3G C -0.74917(7) 0.31249(9) 0.02636(5) 0.0464 Uani
H2L H -0.4666 0.5168 -0.3088 0.0560 Uiso
H2I H -0.5334 -0.0168 -0.3088 0.0560 Uiso
H2G H -0.7668 0.2834 0.0588 0.0560 Uiso
C4L C -0.35819(9) 0.53683(7) -0.26313(5) 0.0484 Uani
C4I C -0.64181(9) -0.03683(7) -0.26313(5) 0.0484 Uani
C4G C -0.78683(7) 0.39181(9) 0.01313(5) 0.0484 Uani
H3L H -0.3330 0.5814 -0.2857 0.0580 Uiso
H3I H -0.6670 -0.0814 -0.2857 0.0580 Uiso
H3G H -0.8314 0.4170 0.0357 0.0580 Uiso
C5L C -0.31294(8) 0.50960(7) -0.21564(4) 0.0453 Uani
C5I C -0.68706(8) -0.00960(7) -0.21564(4) 0.0453 Uani
C5G C -0.75960(7) 0.43706(8) -0.03436(4) 0.0453 Uani
C6L C -0.22900(10) 0.54552(10) -0.20020(6) 0.0679 Uani
C6I C -0.77100(10) -0.04552(10) -0.20020(6) 0.0679 Uani
C6G C -0.79552(10) 0.52100(10) -0.04980(6) 0.0679 Uani
H4L H -0.2020 0.5897 -0.2224 0.0820 Uiso
H4I H -0.7980 -0.0897 -0.2224 0.0820 Uiso
H4G H -0.8397 0.5480 -0.0276 0.0820 Uiso
C7L C -0.18639(11) 0.51844(12) -0.15472(6) 0.0810 Uani
C7I C -0.81361(11) -0.01844(12) -0.15472(6) 0.0810 Uani
C7G C -0.76844(12) 0.56361(11) -0.09528(6) 0.0810 Uani
H5L H -0.1307 0.5442 -0.1451 0.0970 Uiso
H5I H -0.8693 -0.0442 -0.1451 0.0970 Uiso
H5G H -0.7942 0.6193 -0.1049 0.0970 Uiso
C8L C -0.22416(9) 0.45264(12) -0.12184(5) 0.0647 Uani
C8I C -0.77584(9) 0.04736(12) -0.12184(5) 0.0647 Uani
C8G C -0.70264(12) 0.52584(9) -0.12816(5) 0.0647 Uani
H6L H -0.1940 0.4339 -0.0900 0.0780 Uiso
H6I H -0.8060 0.0661 -0.0900 0.0780 Uiso
H6G H -0.6839 0.5560 -0.1600 0.0780 Uiso
C9L C -0.30429(7) 0.41515(8) -0.13528(4) 0.0413 Uani
C9I C -0.69571(7) 0.08485(8) -0.13528(4) 0.0413 Uani
C9G C -0.66515(8) 0.44571(7) -0.11472(4) 0.0413 Uani
H7L H -0.3286 0.3697 -0.1130 0.0500 Uiso
H7I H -0.6714 0.1303 -0.1130 0.0500 Uiso
H7G H -0.6197 0.4214 -0.1370 0.0500 Uiso
C10L C -0.35153(7) 0.44305(6) -0.18186(4) 0.0343 Uani
C10I C -0.64847(7) 0.05695(6) -0.18186(4) 0.0343 Uani
C10G C -0.69305(6) 0.39847(7) -0.06814(4) 0.0343 Uani
C11J C -0.83158(7) 0.22573(6) -0.22694(4) 0.0318 Uani
C11L C -0.52427(6) 0.08158(7) 0.02306(4) 0.0318 Uani
C11D C -0.47573(6) -0.08158(7) -0.02306(4) 0.0318 Uani
H8J H -0.8946 0.2397 -0.2186 0.0380 Uiso
H8L H -0.5103 0.1446 0.0314 0.0380 Uiso
H8D H -0.4897 -0.1446 -0.0314 0.0380 Uiso
H9J H -0.8174 0.1670 -0.2109 0.0380 Uiso
H9L H -0.5830 0.0674 0.0391 0.0380 Uiso
H9D H -0.4170 -0.0674 -0.0391 0.0380 Uiso
C12J C -0.77200(7) 0.29590(6) -0.20259(4) 0.0319 Uani
C12L C -0.45410(6) 0.02200(7) 0.04741(4) 0.0319 Uani
C12D C -0.54590(6) -0.02200(7) -0.04741(4) 0.0319 Uani
H10J H -0.7110 0.1448 -0.2832 0.0380 Uiso
H10L H -0.6052 -0.0390 -0.0332 0.0380 Uiso
H10D H -0.3948 0.0390 0.0332 0.0380 Uiso
H11J H -0.7202 0.2033 -0.3372 0.0380 Uiso
H11L H -0.5467 -0.0298 -0.0872 0.0380 Uiso
H11D H -0.4533 0.0298 0.0872 0.0380 Uiso
loop_
_atom_site_aniso_label
_atom_site_aniso_U_11
_atom_site_aniso_U_22
_atom_site_aniso_U_33
_atom_site_aniso_U_23
_atom_site_aniso_U_13
_atom_site_aniso_U_12
Li1 0.0341 0.0332 0.0213 -0.0036 0.0006 -0.0028
O1 0.028 0.0336 0.0191 -0.0025 0.0016 0.0005
O2 0.0352 0.0391 0.0187 -0.0038 -0.0077 0.0063
C1 0.0248 0.0395 0.023 0.009 0.0017 -0.0014
C2 0.0368 0.0446 0.0316 0.0043 -0.0079 -0.0046
C3 0.0387 0.0636 0.0368 0.0129 -0.0141 -0.0111
C4 0.0285 0.0751 0.0417 0.028 -0.0026 0.0023
C5 0.0362 0.0649 0.0349 0.0223 0.0125 0.0158
C6 0.07 0.086 0.0477 0.0301 0.0216 0.047
C7 0.1195 0.0796 0.0438 0.0176 0.0304 0.0645
C8 0.1081 0.0549 0.0311 0.0058 0.0207 0.0352
C9 0.0585 0.0411 0.0242 0.0087 0.0126 0.014
C10 0.0338 0.0451 0.024 0.0122 0.0105 0.0075
C11 0.0365 0.039 0.0199 -0.0019 -0.0058 0.0039
C12 0.0358 0.0387 0.0211 -0.0049 -0.0051 0.0063
Li1L 0.0332 0.0341 0.0213 -0.0006 -0.0036 0.0028
Li1G 0.0341 0.0332 0.0213 0.0036 -0.0006 -0.0028
Li1I 0.0332 0.0341 0.0213 0.0006 0.0036 0.0028
Li1F 0.0332 0.0341 0.0213 -0.0006 -0.0036 0.0028
Li1O 0.0341 0.0332 0.0213 0.0036 -0.0006 -0.0028
O1L 0.0336 0.028 0.0191 -0.0016 -0.0025 -0.0005
O1G 0.028 0.0336 0.0191 0.0025 -0.0016 0.0005
O1I 0.0336 0.028 0.0191 0.0016 0.0025 -0.0005
O2I 0.0391 0.0352 0.0187 -0.0077 0.0038 -0.0063
O2J 0.0352 0.0391 0.0187 -0.0038 -0.0077 0.0063
O2G 0.0352 0.0391 0.0187 0.0038 0.0077 0.0063
O2L 0.0391 0.0352 0.0187 0.0077 -0.0038 -0.0063
O2D 0.0391 0.0352 0.0187 0.0077 -0.0038 -0.0063
C1L 0.0395 0.0248 0.023 -0.0017 0.009 0.0014
C1I 0.0395 0.0248 0.023 0.0017 -0.009 0.0014
C1G 0.0248 0.0395 0.023 -0.009 -0.0017 -0.0014
C2L 0.0446 0.0368 0.0316 0.0079 0.0043 0.0046
C2I 0.0446 0.0368 0.0316 -0.0079 -0.0043 0.0046
C2G 0.0368 0.0446 0.0316 -0.0043 0.0079 -0.0046
C3L 0.0636 0.0387 0.0368 0.0141 0.0129 0.0111
C3I 0.0636 0.0387 0.0368 -0.0141 -0.0129 0.0111
C3G 0.0387 0.0636 0.0368 -0.0129 0.0141 -0.0111
C4L 0.0751 0.0285 0.0417 0.0026 0.028 -0.0023
C4I 0.0751 0.0285 0.0417 -0.0026 -0.028 -0.0023
C4G 0.0285 0.0751 0.0417 -0.028 0.0026 0.0023
C5L 0.0649 0.0362 0.0349 -0.0125 0.0223 -0.0158
C5I 0.0649 0.0362 0.0349 0.0125 -0.0223 -0.0158
C5G 0.0362 0.0649 0.0349 -0.0223 -0.0125 0.0158
C6L 0.086 0.07 0.0477 -0.0216 0.0301 -0.047
C6I 0.086 0.07 0.0477 0.0216 -0.0301 -0.047
C6G 0.07 0.086 0.0477 -0.0301 -0.0216 0.047
C7L 0.0796 0.1195 0.0438 -0.0304 0.0176 -0.0645
C7I 0.0796 0.1195 0.0438 0.0304 -0.0176 -0.0645
C7G 0.1195 0.0796 0.0438 -0.0176 -0.0304 0.0645
C8L 0.0549 0.1081 0.0311 -0.0207 0.0058 -0.0352
C8I 0.0549 0.1081 0.0311 0.0207 -0.0058 -0.0352
C8G 0.1081 0.0549 0.0311 -0.0058 -0.0207 0.0352
C9L 0.0411 0.0585 0.0242 -0.0126 0.0087 -0.014
C9I 0.0411 0.0585 0.0242 0.0126 -0.0087 -0.014
C9G 0.0585 0.0411 0.0242 -0.0087 -0.0126 0.014
C10L 0.0451 0.0338 0.024 -0.0105 0.0122 -0.0075
C10I 0.0451 0.0338 0.024 0.0105 -0.0122 -0.0075
C10G 0.0338 0.0451 0.024 -0.0122 -0.0105 0.0075
C11J 0.0365 0.039 0.0199 -0.0019 -0.0058 0.0039
C11L 0.039 0.0365 0.0199 0.0058 -0.0019 -0.0039
C11D 0.039 0.0365 0.0199 0.0058 -0.0019 -0.0039
C12J 0.0358 0.0387 0.0211 -0.0049 -0.0051 0.0063
C12L 0.0387 0.0358 0.0211 0.0051 -0.0049 -0.0063
C12D 0.0387 0.0358 0.0211 0.0051 -0.0049 -0.0063
loop_
_geom_bond_atom_site_label_1
_geom_bond_atom_site_label_2
_geom_bond_site_symmetry_1
_geom_bond_site_symmetry_2
Li1 O1 1_555 1_555
O1 Li1L 1_555 1_555
O2 C11 1_555 1_555
C1 C2 1_555 1_555
C2 H1 1_555 1_555
C3 C2 1_555 1_555
H2 C3 1_555 1_555
C4 C3 1_555 1_555
H3 C4 1_555 1_555
C5 C4 1_555 1_555
C6 C5 1_555 1_555
H4 C6 1_555 1_555
C7 C6 1_555 1_555
H5 C7 1_555 1_555
C8 C7 1_555 1_555
H6 C8 1_555 1_555
C9 C8 1_555 1_555
H7 C9 1_555 1_555
C10 C1 1_555 1_555
C11 H8 1_555 1_555
H9 C11 1_555 1_555
C12 C11 1_555 1_555
H10 C12J 1_555 1_555
H11 C12J 1_555 1_555
Li1L O2 1_555 1_555
Li1G O1 1_555 1_555
Li1I O1L 1_555 1_555
Li1F O2J 1_555 1_555
Li1O O2D 1_555 1_555
O1L Li1L 1_555 1_555
O1G Li1 1_555 1_555
O1I Li1 1_555 1_555
O2I Li1 1_555 1_555
O2J C12 1_555 1_555
O2G Li1I 1_555 1_555
O2L Li1G 1_555 1_555
O2D C11D 1_555 1_555
C1L O1I 1_555 1_555
C1I O1L 1_555 1_555
C1G O1 1_555 1_555
C2L C1L 1_555 1_555
C2I C1I 1_555 1_555
C2G C1G 1_555 1_555
H1L C2L 1_555 1_555
H1I C2I 1_555 1_555
H1G C2G 1_555 1_555
C3L C2L 1_555 1_555
C3I C2I 1_555 1_555
C3G C2G 1_555 1_555
H2L C3L 1_555 1_555
H2I C3I 1_555 1_555
H2G C3G 1_555 1_555
C4L C3L 1_555 1_555
C4I C3I 1_555 1_555
C4G C3G 1_555 1_555
H3L C4L 1_555 1_555
H3I C4I 1_555 1_555
H3G C4G 1_555 1_555
C5L C4L 1_555 1_555
C5I C4I 1_555 1_555
C5G C4G 1_555 1_555
C6L C5L 1_555 1_555
C6I C5I 1_555 1_555
C6G C5G 1_555 1_555
H4L C6L 1_555 1_555
H4I C6I 1_555 1_555
H4G C6G 1_555 1_555
C7L C6L 1_555 1_555
C7I C6I 1_555 1_555
C7G C6G 1_555 1_555
H5L C7L 1_555 1_555
H5I C7I 1_555 1_555
H5G C7G 1_555 1_555
C8L C7L 1_555 1_555
C8I C7I 1_555 1_555
C8G C7G 1_555 1_555
H6L C8L 1_555 1_555
H6I C8I 1_555 1_555
H6G C8G 1_555 1_555
C9L C8L 1_555 1_555
C9I C8I 1_555 1_555
C9G C8G 1_555 1_555
H7L C9L 1_555 1_555
H7I C9I 1_555 1_555
H7G C9G 1_555 1_555
C10L C1L 1_555 1_555
C10I C1I 1_555 1_555
C10G C1G 1_555 1_555
C11J O2J 1_555 1_555
C11L O2L 1_555 1_555
C11D H8D 1_555 1_555
H8J C11J 1_555 1_555
H8L C11L 1_555 1_555
H9J C11J 1_555 1_555
H9L C11L 1_555 1_555
H9D C11D 1_555 1_555
C12J O2 1_555 1_555
C12L O2D 1_555 1_555
C12D O2L 1_555 1_555
H10J C12 1_555 1_555
H10L C12D 1_555 1_555
H10D C12L 1_555 1_555
H11J C12 1_555 1_555
H11L C12D 1_555 1_555
H11D C12L 1_555 1_555
C1 O1G 1_555 1_555
C5 C10 1_555 1_555
C9 C10 1_555 1_555
Li1L O1I 1_555 1_555
Li1G O1L 1_555 1_555
Li1G O1G 1_555 1_555
Li1I O1G 1_555 1_555
Li1I O1I 1_555 1_555
C5L C10L 1_555 1_555
C5I C10I 1_555 1_555
C5G C10G 1_555 1_555
C9L C10L 1_555 1_555
C9I C10I 1_555 1_555
C9G C10G 1_555 1_555
C11J C12J 1_555 1_555
C11L C12L 1_555 1_555
C11D C12D 1_555 1_555

#END
