
#######################################################################
#
#                 Cambridge Crystallographic Data Centre
#                                CCDC 
#
#######################################################################
#
# If this CIF has been generated from an entry in the Cambridge 
# Structural Database, then it will include bibliographic, chemical, 
# crystal, experimental, refinement or atomic coordinate data resulting 
# from the CCDC's data processing and validation procedures.
#
#######################################################################

data_EWUHOU
_chemical_formula_moiety         'C54 H36 N6 O21 Zn16'
_symmetry_cell_setting           cubic
_symmetry_space_group_name_H-M   'P a -3'
_symmetry_Int_Tables_number      205
_space_group_name_Hall           '-P 2ac 2ab 3'
loop_
_symmetry_equiv_pos_site_id
_symmetry_equiv_pos_as_xyz
1 x,y,z
2 z,x,y
3 y,z,x
4 1/2-y,-z,1/2+x
5 1/2+z,1/2-x,-y
6 -y,1/2+z,1/2-x
7 1/2-z,-x,1/2+y
8 -z,1/2+x,1/2-y
9 1/2+y,1/2-z,-x
10 1/2-x,-y,1/2+z
11 1/2+x,1/2-y,-z
12 -x,1/2+y,1/2-z
13 -x,-y,-z
14 -z,-x,-y
15 -y,-z,-x
16 1/2+y,z,1/2-x
17 1/2-z,1/2+x,y
18 y,1/2-z,1/2+x
19 1/2+z,x,1/2-y
20 z,1/2-x,1/2+y
21 1/2-y,1/2+z,x
22 1/2+x,y,1/2-z
23 1/2-x,1/2+y,z
24 x,1/2-y,1/2+z
_cell_length_a                   27.30(2)
_cell_length_b                   27.30(2)
_cell_length_c                   27.30(2)
_cell_angle_alpha                90
_cell_angle_beta                 90
_cell_angle_gamma                90
_cell_volume                     20346.4
loop_
_atom_site_label
_atom_site_type_symbol
_atom_site_fract_x
_atom_site_fract_y
_atom_site_fract_z
Zn1 Zn 0.54006(4) 0.95994(4) 0.04006(4)
Zn2 Zn 0.48907(3) 0.93034(4) -0.01448(4)
O1 O 0.5000 1.0000 0.0000
O2 O 0.5013(3) 0.9107(3) 0.0786(3)
O3 O 0.4244(2) 0.93031(18) 0.0609(2)
N1 N 0.3806(3) 0.7598(3) 0.2032(2)
H1 H 0.3986 0.7560 0.2293
C1 C 0.3071(4) 0.7296(3) 0.1606(3)
H2 H 0.3089 0.7541 0.1365
C2 C 0.4562(3) 0.9096(3) 0.0810(3)
C3 C 0.4334(3) 0.8705(2) 0.1137(2)
C4 C 0.4659(5) 0.8421(4) 0.1404(4)
H3 H 0.5000 0.8471 0.1399
C5 C 0.4436(4) 0.8055(4) 0.1679(4)
H4 H 0.4644 0.7849 0.1860
C6 C 0.3934(2) 0.7962(3) 0.1717(3)
C7 C 0.3663(4) 0.8241(4) 0.1438(4)
H5 H 0.3323 0.8186 0.1434
C8 C 0.3852(4) 0.8617(4) 0.1145(3)
H6 H 0.3639 0.8808 0.0954
C9 C 0.3413(3) 0.7285(3) 0.1970(4)
Zn1L Zn 0.45994(4) 1.04006(4) -0.04006(4)
Zn1F Zn 0.45994(4) 0.45994(4) 0.45994(4)
Zn1A Zn 0.04006(4) 0.54006(4) -0.04006(4)
Zn1A_2 Zn 1.04006(4) 0.54006(4) -0.04006(4)
Zn1B Zn 0.95994(4) 1.04006(4) -0.45994(4)
Zn2O Zn 0.43034(4) 0.98552(4) 0.01093(3)
Zn2W Zn 0.48907(3) 0.56966(4) 0.48552(4)
Zn2M Zn 0.01448(4) 0.51093(3) 0.06966(4)
Zn2P Zn 0.51448(4) 0.98907(3) -0.06966(4)
Zn2Q Zn 0.93034(4) 0.51448(4) -0.01093(3)
Zn2D Zn 0.48552(4) 1.01093(3) 0.06966(4)
Zn2C Zn 0.56966(4) 1.01448(4) -0.01093(3)
Zn2L Zn 0.51093(3) 1.06966(4) 0.01448(4)
Zn2U Zn 0.98907(3) 0.93034(4) -0.48552(4)
O1F O 0.5000 0.5000 0.5000
O1A O 0.0000 0.5000 0.0000
O1A_2 O 1.0000 0.5000 0.0000
O2F O 0.4214(3) 0.4987(3) 0.4107(3)
O2E O 0.0893(3) 0.5786(3) -0.0013(3)
O2C O 0.5893(3) 0.9214(3) 0.0013(3)
O2J O 1.0013(3) 0.5893(3) -0.0786(3)
O2G O 0.9214(3) 1.0013(3) -0.4107(3)
O2D O 0.5786(3) 0.9987(3) 0.0893(3)
O2L O 0.4987(3) 1.0893(3) -0.0786(3)
O2O O 0.4107(3) 1.0786(3) -0.0013(3)
O2P O 0.4214(3) 1.0013(3) -0.0893(3)
O3F O 0.4391(2) 0.5756(2) 0.43031(18)
O3E O 0.06969(18) 0.5609(2) 0.0756(2)
O3C O 0.56969(18) 0.9391(2) -0.0756(2)
O3J O 0.9244(2) 0.56969(18) -0.0609(2)
O3G O 0.9391(2) 0.9244(2) -0.43031(18)
O3P O 0.4391(2) 0.9244(2) -0.06969(18)
N1F N 0.2968(2) 0.6194(3) 0.2598(3)
N1E N 0.2402(3) 0.7032(2) 0.1194(3)
N1C N 0.7402(3) 0.7968(2) -0.1194(3)
N1J N 0.8806(3) 0.7402(3) -0.2032(2)
N1G N 0.7968(2) 0.8806(3) -0.2598(3)
H1F H 0.2707 0.6014 0.2560
H1E H 0.2440 0.7293 0.1014
H1C H 0.7440 0.7707 -0.1014
H1J H 0.8986 0.7440 -0.2293
H1G H 0.7707 0.8986 -0.2560
C1F C 0.3394(3) 0.6929(4) 0.2296(3)
C1E C 0.2704(3) 0.6606(3) 0.1929(4)
C1C C 0.7704(3) 0.8394(3) -0.1929(4)
C1J C 0.8071(4) 0.7704(3) -0.1606(3)
C1G C 0.8394(3) 0.8071(4) -0.2296(3)
H2F H 0.3635 0.6911 0.2541
H2E H 0.2459 0.6365 0.1911
H2C H 0.7459 0.8635 -0.1911
H2J H 0.8089 0.7459 -0.1365
H2G H 0.8635 0.8089 -0.2541
C2F C 0.4190(3) 0.5438(3) 0.4096(3)
C2E C 0.0904(3) 0.5810(3) 0.0438(3)
C2C C 0.5904(3) 0.9190(3) -0.0438(3)
C2J C 0.9562(3) 0.5904(3) -0.0810(3)
C2G C 0.9190(3) 0.9562(3) -0.4096(3)
C3F C 0.3863(2) 0.5666(3) 0.3705(2)
C3E C 0.1295(2) 0.6137(2) 0.0666(3)
C3C C 0.6295(2) 0.8863(2) -0.0666(3)
C3J C 0.9334(3) 0.6295(2) -0.1137(2)
C3G C 0.8863(2) 0.9334(3) -0.3705(2)
C4F C 0.3596(4) 0.5341(5) 0.3421(4)
C4E C 0.1579(4) 0.6404(4) 0.0341(5)
C4C C 0.6579(4) 0.8596(4) -0.0341(5)
C4J C 0.9659(5) 0.6579(4) -0.1404(4)
C4G C 0.8596(4) 0.9659(5) -0.3421(4)
H3F H 0.3601 0.5000 0.3471
H3E H 0.1529 0.6399 0.0000
H3C H 0.6529 0.8601 0.0000
H3J H 1.0000 0.6529 -0.1399
H3G H 0.8601 1.0000 -0.3471
C5F C 0.3321(4) 0.5564(4) 0.3055(4)
C5E C 0.1945(4) 0.6679(4) 0.0564(4)
C5C C 0.6945(4) 0.8321(4) -0.0564(4)
C5J C 0.9436(4) 0.6945(4) -0.1679(4)
C5G C 0.8321(4) 0.9436(4) -0.3055(4)
H4F H 0.3140 0.5356 0.2849
H4E H 0.2151 0.6860 0.0356
H4C H 0.7151 0.8140 -0.0356
H4J H 0.9644 0.7151 -0.1860
H4G H 0.8140 0.9644 -0.2849
C6F C 0.3283(3) 0.6066(2) 0.2962(3)
C6E C 0.2038(3) 0.6717(3) 0.1066(2)
C6C C 0.7038(3) 0.8283(3) -0.1066(2)
C6J C 0.8934(2) 0.7038(3) -0.1717(3)
C6G C 0.8283(3) 0.8934(2) -0.2962(3)
C7F C 0.3562(4) 0.6337(4) 0.3241(4)
C7E C 0.1759(4) 0.6438(4) 0.1337(4)
C7C C 0.6759(4) 0.8562(4) -0.1337(4)
C7J C 0.8663(4) 0.6759(4) -0.1438(4)
C7G C 0.8562(4) 0.8663(4) -0.3241(4)
H5F H 0.3566 0.6677 0.3186
H5E H 0.1814 0.6434 0.1677
H5C H 0.6814 0.8566 -0.1677
H5J H 0.8323 0.6814 -0.1434
H5G H 0.8566 0.8323 -0.3186
C8F C 0.3855(3) 0.6148(4) 0.3617(4)
C8E C 0.1383(4) 0.6145(3) 0.1148(4)
C8C C 0.6383(4) 0.8855(3) -0.1148(4)
C8J C 0.8852(4) 0.6383(4) -0.1145(3)
C8G C 0.8855(3) 0.8852(4) -0.3617(4)
H6F H 0.4046 0.6361 0.3808
H6E H 0.1192 0.5954 0.1361
H6C H 0.6192 0.9046 -0.1361
H6J H 0.8639 0.6192 -0.0954
H6G H 0.9046 0.8639 -0.3808
C9F C 0.3030(4) 0.6587(3) 0.2285(3)
C9E C 0.2715(3) 0.6970(4) 0.1587(3)
C9C C 0.7715(3) 0.8030(4) -0.1587(3)
C9J C 0.8413(3) 0.7715(3) -0.1970(4)
C9G C 0.8030(4) 0.8413(3) -0.2285(3)
loop_
_geom_bond_atom_site_label_1
_geom_bond_atom_site_label_2
_geom_bond_site_symmetry_1
_geom_bond_site_symmetry_2
Zn1 O1 1_555 1_555
Zn2 O1 1_555 1_555
O1 Zn1L 1_555 1_555
O2 Zn1 1_555 1_555
O3 C2 1_555 1_555
N1 H1 1_555 1_555
C1 H2 1_555 1_555
C2 O2 1_555 1_555
C3 C2 1_555 1_555
C4 C3 1_555 1_555
H3 C4 1_555 1_555
C5 C4 1_555 1_555
H4 C5 1_555 1_555
C6 N1 1_555 1_555
C7 C6 1_555 1_555
H5 C7 1_555 1_555
C8 C3 1_555 1_555
H6 C8 1_555 1_555
C9 N1 1_555 1_555
Zn1L O2L 1_555 1_555
Zn1F O1F 1_555 1_555
Zn1A O1A 1_555 1_555
Zn1A_2 O1A_2 1_555 1_555
Zn1B O2G 1_555 1_555
Zn2O O1 1_555 1_555
Zn2W O1F 1_555 1_555
Zn2M O1A 1_555 1_555
Zn2P O1 1_555 1_555
Zn2Q O1A_2 1_555 1_555
Zn2D O1 1_555 1_555
Zn2C O1 1_555 1_555
Zn2L O1 1_555 1_555
Zn2U O3G 1_555 1_555
O2F Zn1F 1_555 1_555
O2E Zn1A 1_555 1_555
O2C Zn1 1_555 1_555
O2J Zn1A_2 1_555 1_555
O2G C2G 1_555 1_555
O2D Zn1 1_555 1_555
O2O Zn1L 1_555 1_555
O2P Zn1L 1_555 1_555
O3F Zn2W 1_555 1_555
O3E Zn2M 1_555 1_555
O3C Zn2P 1_555 1_555
O3J Zn2Q 1_555 1_555
O3G C2G 1_555 1_555
O3P Zn2 1_555 1_555
N1F H1F 1_555 1_555
N1E H1E 1_555 1_555
N1C H1C 1_555 1_555
N1J H1J 1_555 1_555
N1G H1G 1_555 1_555
C1F C9 1_555 1_555
C1E H2E 1_555 1_555
C1C H2C 1_555 1_555
C1J H2J 1_555 1_555
C1G H2G 1_555 1_555
H2F C1F 1_555 1_555
C2F O2F 1_555 1_555
C2E O2E 1_555 1_555
C2C O2C 1_555 1_555
C2J O2J 1_555 1_555
C2G C3G 1_555 1_555
C3F C2F 1_555 1_555
C3E C2E 1_555 1_555
C3C C2C 1_555 1_555
C3J C2J 1_555 1_555
C3G C4G 1_555 1_555
C4F C3F 1_555 1_555
C4E C3E 1_555 1_555
C4C C3C 1_555 1_555
C4J C3J 1_555 1_555
C4G H3G 1_555 1_555
H3F C4F 1_555 1_555
H3E C4E 1_555 1_555
H3C C4C 1_555 1_555
H3J C4J 1_555 1_555
C5F C4F 1_555 1_555
C5E C4E 1_555 1_555
C5C C4C 1_555 1_555
C5J C4J 1_555 1_555
C5G C4G 1_555 1_555
H4F C5F 1_555 1_555
H4E C5E 1_555 1_555
H4C C5C 1_555 1_555
H4J C5J 1_555 1_555
H4G C5G 1_555 1_555
C6F N1F 1_555 1_555
C6E N1E 1_555 1_555
C6C N1C 1_555 1_555
C6J N1J 1_555 1_555
C6G N1G 1_555 1_555
C7F C6F 1_555 1_555
C7E C6E 1_555 1_555
C7C C6C 1_555 1_555
C7J C6J 1_555 1_555
C7G C6G 1_555 1_555
H5F C7F 1_555 1_555
H5E C7E 1_555 1_555
H5C C7C 1_555 1_555
H5J C7J 1_555 1_555
H5G C7G 1_555 1_555
C8F C3F 1_555 1_555
C8E C3E 1_555 1_555
C8C C3C 1_555 1_555
C8J C3J 1_555 1_555
C8G C3G 1_555 1_555
H6F C8F 1_555 1_555
H6E C8E 1_555 1_555
H6C C8C 1_555 1_555
H6J C8J 1_555 1_555
H6G C8G 1_555 1_555
C9F N1F 1_555 1_555
C9E C1 1_555 1_555
C9C N1C 1_555 1_555
C9J N1J 1_555 1_555
C9G N1G 1_555 1_555
O3 Zn2O 1_555 1_555
C1 C9 1_555 1_555
C5 C6 1_555 1_555
C7 C8 1_555 1_555
O3F C2F 1_555 1_555
O3E C2E 1_555 1_555
O3C C2C 1_555 1_555
O3J C2J 1_555 1_555
N1E C9E 1_555 1_555
C1F C9F 1_555 1_555
C1E C9F 1_555 1_555
C1E C9E 1_555 1_555
C1C C9C 1_555 1_555
C1C C9G 1_555 1_555
C1J C9C 1_555 1_555
C1J C9J 1_555 1_555
C1G C9J 1_555 1_555
C1G C9G 1_555 1_555
C5F C6F 1_555 1_555
C5E C6E 1_555 1_555
C5C C6C 1_555 1_555
C5J C6J 1_555 1_555
C5G C6G 1_555 1_555
C7F C8F 1_555 1_555
C7E C8E 1_555 1_555
C7C C8C 1_555 1_555
C7J C8J 1_555 1_555
C7G C8G 1_555 1_555

#END
