
#######################################################################
#
#                 Cambridge Crystallographic Data Centre
#                                CCDC 
#
#######################################################################
#
# If this CIF has been generated from an entry in the Cambridge 
# Structural Database, then it will include bibliographic, chemical, 
# crystal, experimental, refinement or atomic coordinate data resulting 
# from the CCDC's data processing and validation procedures.
#
#######################################################################

data_EMUYAM
_chemical_formula_moiety         '(C48 H28 Ag6 Fe3 N24 O2)n'
_symmetry_cell_setting           trigonal
_symmetry_space_group_name_H-M   'P -3'
_symmetry_Int_Tables_number      147
_space_group_name_Hall           '-P 3'
loop_
_symmetry_equiv_pos_site_id
_symmetry_equiv_pos_as_xyz
1 x,y,z
2 -y,x-y,z
3 -x+y,-x,z
4 -x,-y,-z
5 y,-x+y,-z
6 x-y,x,-z
_cell_length_a                   15.7070(9)
_cell_length_b                   15.7070(9)
_cell_length_c                   7.2040(3)
_cell_angle_alpha                90
_cell_angle_beta                 90
_cell_angle_gamma                120
_cell_volume                     1539.19
loop_
_atom_site_label
_atom_site_type_symbol
_atom_site_fract_x
_atom_site_fract_y
_atom_site_fract_z
Ag1 Ag 0.52846(9) 0.26432(7) 0.99999(13)
Fe1 Fe 0.5000 0.5000 1.5000
N1 N 0.5150(8) 0.4039(7) 1.3107(12)
N2 N 0.4042(7) 0.5162(8) 1.3119(13)
C1 C 0.5221(10) 0.3523(9) 1.2071(15)
C2 C 0.3531(10) 0.5229(9) 1.2043(15)
N3 N 0.3714(6) 0.3730(6) 1.6258(12)
C3 C 0.3655(8) 0.2833(7) 1.6629(18)
C4 C 0.2790(11) 0.2057(7) 1.733(2)
C5 C 0.1985(9) 0.2178(10) 1.767(3)
C6 C 0.2045(7) 0.3075(12) 1.730(3)
C7 C 0.2909(8) 0.3851(8) 1.6592(19)
C8 C 0.1070(11) 0.247(2) 1.755(5)
N4 N 0.0185(18) 0.223(3) 1.778(7)
N1C N 0.4850(8) 0.5961(7) 1.6893(12)
C1C C 0.4779(10) 0.6477(9) 1.7929(15)
N2C N 0.5958(7) 0.4838(8) 1.6881(13)
C2C C 0.6469(10) 0.4771(9) 1.7957(15)
N3C N 0.6286(6) 0.6270(6) 1.3742(12)
C3C C 0.6345(8) 0.7167(7) 1.3371(18)
C4C C 0.7210(11) 0.7943(7) 1.267(2)
C5C C 0.8015(9) 0.7822(10) 1.233(3)
C6C C 0.7955(7) 0.6925(12) 1.270(3)
C7C C 0.7091(8) 0.6149(8) 1.3408(19)
C8C C 0.8930(11) 0.753(2) 1.245(5)
N4C N 0.9815(18) 0.777(3) 1.222(7)
Ag1C Ag 0.47154(9) 0.73568(7) 2.00001(13)
Ag1E Ag 0.26414(11) 0.52846(9) 1.00001(13)
Ag1B Ag 0.73586(11) 0.47154(9) 1.99999(13)
N2D N 0.5162(8) 0.1120(11) 0.6881(13)
C2D C 0.5229(9) 0.1698(13) 0.7957(15)
N2A N 0.4838(8) 0.8880(11) 2.3119(13)
C2A C 0.4771(9) 0.8302(13) 2.2043(15)
N1E N 0.1111(11) 0.5150(8) 0.6893(12)
C1E C 0.1698(13) 0.5221(10) 0.7929(15)
N1B N 0.8889(11) 0.4850(8) 2.3107(12)
C1B C 0.8302(13) 0.4779(10) 2.2071(15)
Fe1E Fe -0.0000 0.5000 0.5000
Fe1B Fe 1.0000 0.5000 2.5000
N1B_2 N -0.1111(11) 0.4850(8) 0.3107(12)
C1B_2 C -0.1698(13) 0.4779(10) 0.2071(15)
N2E N -0.1120(11) 0.4042(7) 0.6881(13)
C2E C -0.1698(13) 0.3531(10) 0.7957(15)
N2B N 0.1120(11) 0.5958(7) 0.3119(13)
C2B C 0.1698(13) 0.6469(10) 0.2043(15)
N3E N -0.0016(8) 0.3714(6) 0.3742(12)
C3E C 0.0822(11) 0.3655(8) 0.3371(18)
C4E C 0.0733(13) 0.2790(11) 0.267(2)
C5E C -0.0193(13) 0.1985(9) 0.233(3)
C6E C -0.1030(14) 0.2045(7) 0.270(3)
C7E C -0.0942(11) 0.2909(8) 0.3408(19)
C8E C -0.1400(23) 0.1070(11) 0.245(5)
N4E N -0.2045(35) 0.0185(18) 0.222(7)
N3B N 0.0016(8) 0.6286(6) 0.6258(12)
C3B C -0.0822(11) 0.6345(8) 0.6629(18)
C4B C -0.0733(13) 0.7210(11) 0.733(2)
C5B C 0.0193(13) 0.8015(9) 0.767(3)
C6B C 0.1030(14) 0.7955(7) 0.730(3)
C7B C 0.0942(11) 0.7091(8) 0.6592(19)
C8B C 0.1400(23) 0.8930(11) 0.755(5)
N4B N 0.2045(35) 0.9815(18) 0.778(7)
N1E_2 N 1.1111(11) 0.5150(8) 2.6893(12)
C1E_2 C 1.1698(13) 0.5221(10) 2.7929(15)
N3B_2 N 1.0016(8) 0.6286(6) 2.6258(12)
C3B_2 C 0.9178(11) 0.6345(8) 2.6629(18)
C4B_2 C 0.9267(13) 0.7210(11) 2.733(2)
C5B_2 C 1.0193(13) 0.8015(9) 2.767(3)
C6B_2 C 1.1030(14) 0.7955(7) 2.730(3)
C7B_2 C 1.0942(11) 0.7091(8) 2.6592(19)
C8B_2 C 1.1400(23) 0.8930(11) 2.755(5)
N4B_2 N 1.2045(35) 0.9815(18) 2.778(7)
N3E_2 N 0.9984(8) 0.3714(6) 2.3742(12)
C3E_2 C 1.0822(11) 0.3655(8) 2.3371(18)
C4E_2 C 1.0733(13) 0.2790(11) 2.267(2)
C5E_2 C 0.9807(13) 0.1985(9) 2.233(3)
C6E_2 C 0.8970(14) 0.2045(7) 2.270(3)
C7E_2 C 0.9058(11) 0.2909(8) 2.3408(19)
C8E_2 C 0.8600(23) 0.1070(11) 2.245(5)
N4E_2 N 0.7955(35) 0.0185(18) 2.222(7)
Ag1B_2 Ag -0.26414(11) 0.47154(9) -0.00001(13)
Ag1E_2 Ag 1.26414(11) 0.52846(9) 3.00001(13)
Fe1A Fe 0.5000 0.0000 0.5000
Fe1A_2 Fe 0.5000 1.0000 2.5000
N2B_2 N 1.1120(11) 0.5958(7) 2.3119(13)
N2E_2 N 0.8880(11) 0.4042(7) 2.6881(13)
Ag1A Ag -0.26432(7) 0.26414(11) 0.99999(13)
Ag1D Ag 0.26432(7) 0.73586(11) 0.00001(13)
C2C_2 C -0.3531(10) 0.4771(9) -0.2043(15)
C2_2 C 1.3531(10) 0.5229(9) 3.2043(15)
O1 O 0.0000 0.0000 0.5000
O2 O 0.0000 0.0000 0.0000
loop_
_geom_bond_atom_site_label_1
_geom_bond_atom_site_label_2
_geom_bond_site_symmetry_1
_geom_bond_site_symmetry_2
Ag1 C1 1_555 1_555
Fe1 N1 1_555 1_555
N1 C1 1_555 1_555
N2 Fe1 1_555 1_555
C2 N2 1_555 1_555
N3 Fe1 1_555 1_555
C3 N3 1_555 1_555
C4 C3 1_555 1_555
C5 C4 1_555 1_555
C6 C5 1_555 1_555
C7 N3 1_555 1_555
C8 C6 1_555 1_555
N4 C8 1_555 1_555
N1C Fe1 1_555 1_555
C1C N1C 1_555 1_555
N2C Fe1 1_555 1_555
C2C N2C 1_555 1_555
N3C Fe1 1_555 1_555
C3C N3C 1_555 1_555
C4C C3C 1_555 1_555
C5C C4C 1_555 1_555
C6C C5C 1_555 1_555
C7C N3C 1_555 1_555
C8C C6C 1_555 1_555
N4C C8C 1_555 1_555
Ag1C C1C 1_555 1_555
Ag1E C2 1_555 1_555
Ag1B C2C 1_555 1_555
N2D C2D 1_555 1_555
C2D Ag1 1_555 1_555
N2A C2A 1_555 1_555
C2A Ag1C 1_555 1_555
N1E C1E 1_555 1_555
C1E Ag1E 1_555 1_555
N1B C1B 1_555 1_555
C1B Ag1B 1_555 1_555
Fe1E N1E 1_555 1_555
Fe1B N1B 1_555 1_555
N1B_2 Fe1E 1_555 1_555
C1B_2 N1B_2 1_555 1_555
N2E Fe1E 1_555 1_555
C2E N2E 1_555 1_555
N2B Fe1E 1_555 1_555
C2B N2B 1_555 1_555
N3E Fe1E 1_555 1_555
C3E N3E 1_555 1_555
C4E C3E 1_555 1_555
C5E C4E 1_555 1_555
C6E C5E 1_555 1_555
C7E N3E 1_555 1_555
C8E C6E 1_555 1_555
N4E C8E 1_555 1_555
N3B Fe1E 1_555 1_555
C3B N3B 1_555 1_555
C4B C3B 1_555 1_555
C5B C4B 1_555 1_555
C6B C5B 1_555 1_555
C7B N3B 1_555 1_555
C8B C6B 1_555 1_555
N4B C8B 1_555 1_555
N1E_2 Fe1B 1_555 1_555
C1E_2 N1E_2 1_555 1_555
N3B_2 Fe1B 1_555 1_555
C3B_2 N3B_2 1_555 1_555
C4B_2 C3B_2 1_555 1_555
C5B_2 C4B_2 1_555 1_555
C6B_2 C5B_2 1_555 1_555
C7B_2 N3B_2 1_555 1_555
C8B_2 C6B_2 1_555 1_555
N4B_2 C8B_2 1_555 1_555
N3E_2 Fe1B 1_555 1_555
C3E_2 N3E_2 1_555 1_555
C4E_2 C3E_2 1_555 1_555
C5E_2 C4E_2 1_555 1_555
C6E_2 C5E_2 1_555 1_555
C7E_2 N3E_2 1_555 1_555
C8E_2 C6E_2 1_555 1_555
N4E_2 C8E_2 1_555 1_555
Ag1B_2 C1B_2 1_555 1_555
Ag1E_2 C1E_2 1_555 1_555
Fe1A N2D 1_555 1_555
Fe1A_2 N2A 1_555 1_555
N2B_2 Fe1B 1_555 1_555
N2E_2 Fe1B 1_555 1_555
Ag1A C2E 1_555 1_555
Ag1D C2B 1_555 1_555
C2C_2 Ag1B_2 1_555 1_555
C2_2 Ag1E_2 1_555 1_555
C6 C7 1_555 1_555
C6C C7C 1_555 1_555
C6E C7E 1_555 1_555
C6B C7B 1_555 1_555
C6B_2 C7B_2 1_555 1_555
C6E_2 C7E_2 1_555 1_555

#END
