
#######################################################################
#
#                 Cambridge Crystallographic Data Centre
#                                CCDC 
#
#######################################################################
#
# If this CIF has been generated from an entry in the Cambridge 
# Structural Database, then it will include bibliographic, chemical, 
# crystal, experimental, refinement or atomic coordinate data resulting 
# from the CCDC's data processing and validation procedures.
#
#######################################################################

data_GIHZAZ
_chemical_formula_moiety         '(C32 H35 N7 Ni1 O49 P1 W12 4+)n'
_symmetry_cell_setting           cubic
_symmetry_space_group_name_H-M   'I m -3'
_symmetry_Int_Tables_number      204
_space_group_name_Hall           '-I 2 2 3'
loop_
_symmetry_equiv_pos_site_id
_symmetry_equiv_pos_as_xyz
1 x,y,z
2 z,x,y
3 y,z,x
4 1/2+x,1/2+y,1/2+z
5 1/2+z,1/2+x,1/2+y
6 1/2+y,1/2+z,1/2+x
7 -x,-y,z
8 -x,y,-z
9 x,-y,-z
10 z,-x,-y
11 -z,-x,y
12 -z,x,-y
13 -y,z,-x
14 y,-z,-x
15 -y,-z,x
16 1/2-x,1/2-y,1/2+z
17 1/2-x,1/2+y,1/2-z
18 1/2+x,1/2-y,1/2-z
19 1/2+z,1/2-x,1/2-y
20 1/2-z,1/2-x,1/2+y
21 1/2-z,1/2+x,1/2-y
22 1/2-y,1/2+z,1/2-x
23 1/2+y,1/2-z,1/2-x
24 1/2-y,1/2-z,1/2+x
25 -x,-y,-z
26 -z,-x,-y
27 -y,-z,-x
28 1/2-x,1/2-y,1/2-z
29 1/2-z,1/2-x,1/2-y
30 1/2-y,1/2-z,1/2-x
31 x,y,-z
32 x,-y,z
33 -x,y,z
34 -z,x,y
35 z,x,-y
36 z,-x,y
37 y,-z,x
38 -y,z,x
39 y,z,-x
40 1/2+x,1/2+y,1/2-z
41 1/2+x,1/2-y,1/2+z
42 1/2-x,1/2+y,1/2+z
43 1/2-z,1/2+x,1/2+y
44 1/2+z,1/2+x,1/2-y
45 1/2+z,1/2-x,1/2+y
46 1/2+y,1/2-z,1/2+x
47 1/2-y,1/2+z,1/2+x
48 1/2+y,1/2+z,1/2-x
_cell_length_a                   23.1330(11)
_cell_length_b                   23.1330(11)
_cell_length_c                   23.1330(11)
_cell_angle_alpha                90
_cell_angle_beta                 90
_cell_angle_gamma                90
_cell_volume                     12379.3
loop_
_atom_site_label
_atom_site_type_symbol
_atom_site_fract_x
_atom_site_fract_y
_atom_site_fract_z
_atom_site_U_iso_or_equiv
_atom_site_thermal_displace_type
O2 O 0.6056(12) 0.3342(12) 0.5000 0.0767 Uani
O3 O 0.5000 0.5000 0.5000 0.2300 Uiso
O4 O 0.6009(7) 0.3991(7) 0.3991(7) 0.0560 Uani
C6 C 0.7530(11) 0.1552(14) 0.5000 0.0540 Uani
H5 H 0.7768 0.1584 0.5339 0.0630 Uiso
H6 H 0.7339 0.1184 0.5000 0.0630 Uiso
C7 C 0.7116(11) 0.1981(11) 0.5000 0.0350 Uani
N2 N 0.6743(14) 0.2362(10) 0.5000 0.0543 Uani
H5DA H 0.7768 0.1584 0.4661 0.0630 Uiso
W1 W 0.39126(3) 0.07665(2) 0.42300(3) 0.0172 Uani
W2 W 0.5000 0.15366(5) 0.5000 0.0136 Uani
W3 W 0.5000 0.0000 0.34565(5) 0.0225 Uani
P1 P 0.5000 -0.0000 0.5000 0.0130 Uani
O5 O 0.4676(11) 0.0519(12) 0.5000 0.0168 Uiso
O6 O 0.3646(7) 0.0801(6) 0.5000 0.0230 Uani
O7 O 0.4432(5) 0.1380(5) 0.4436(4) 0.0243 Uani
O8 O 0.5000 0.2238(9) 0.5000 0.0290 Uani
O9 O 0.5000 0.0000 0.2721(9) 0.0250 Uani
O10 O 0.3390(5) 0.1116(5) 0.3886(5) 0.0403 Uani
O11 O 0.4569(9) 0.0562(9) 0.3747(9) 0.0200 Uiso
O12 O 0.3776(13) 0.0000 0.4314(12) 0.0180 Uiso
W1DA W 0.39126(3) 0.07665(2) 0.57700(3) 0.0172 Uani
W1EA W 0.39126(3) -0.07665(2) 0.42300(3) 0.0172 Uani
W1FA W 0.60874(3) 0.07665(2) 0.42300(3) 0.0172 Uani
W1G W 0.60874(3) 0.07665(2) 0.57700(3) 0.0172 Uani
W1F W 0.60874(3) -0.07665(2) 0.42300(3) 0.0172 Uani
W1H W 0.39126(3) -0.07665(2) 0.57700(3) 0.0172 Uani
W1X W 0.60874(3) -0.07665(2) 0.57700(3) 0.0172 Uani
W2EA W 0.5000 -0.15366(5) 0.5000 0.0136 Uani
W3DA W 0.5000 0.0000 0.65435(5) 0.0225 Uani
O5FA O 0.5324(11) 0.0519(12) 0.5000 0.0168 Uiso
O5EA O 0.4676(11) -0.0519(12) 0.5000 0.0168 Uiso
O5X O 0.5324(11) -0.0519(12) 0.5000 0.0168 Uiso
O6EA O 0.3646(7) -0.0801(6) 0.5000 0.0230 Uani
O6FA O 0.6354(7) 0.0801(6) 0.5000 0.0230 Uani
O6X O 0.6354(7) -0.0801(6) 0.5000 0.0230 Uani
O7DA O 0.4432(5) 0.1380(5) 0.5564(4) 0.0243 Uani
O7FA O 0.5568(5) 0.1380(5) 0.4436(4) 0.0243 Uani
O7G O 0.5568(5) 0.1380(5) 0.5564(4) 0.0243 Uani
O7EA O 0.4432(5) -0.1380(5) 0.4436(4) 0.0243 Uani
O7F O 0.5568(5) -0.1380(5) 0.4436(4) 0.0243 Uani
O7H O 0.4432(5) -0.1380(5) 0.5564(4) 0.0243 Uani
O7X O 0.5568(5) -0.1380(5) 0.5564(4) 0.0243 Uani
O8EA O 0.5000 -0.2238(9) 0.5000 0.0290 Uani
O9DA O 0.5000 0.0000 0.7279(9) 0.0250 Uani
O10DA O 0.3390(5) 0.1116(5) 0.6114(5) 0.0403 Uani
O10EA O 0.3390(5) -0.1116(5) 0.3886(5) 0.0403 Uani
O10FA O 0.6610(5) 0.1116(5) 0.3886(5) 0.0403 Uani
O10G O 0.6610(5) 0.1116(5) 0.6114(5) 0.0403 Uani
O10F O 0.6610(5) -0.1116(5) 0.3886(5) 0.0403 Uani
O10H O 0.3390(5) -0.1116(5) 0.6114(5) 0.0403 Uani
O10X O 0.6610(5) -0.1116(5) 0.6114(5) 0.0403 Uani
O11EA O 0.4569(9) -0.0562(9) 0.3747(9) 0.0200 Uiso
O11FA O 0.5431(9) 0.0562(9) 0.3747(9) 0.0200 Uiso
O11F O 0.5431(9) -0.0562(9) 0.3747(9) 0.0200 Uiso
O11DA O 0.4569(9) 0.0562(9) 0.6253(9) 0.0200 Uiso
O11G O 0.5431(9) 0.0562(9) 0.6253(9) 0.0200 Uiso
O11X O 0.5431(9) -0.0562(9) 0.6253(9) 0.0200 Uiso
O11H O 0.4569(9) -0.0562(9) 0.6253(9) 0.0200 Uiso
O12DA O 0.3776(13) 0.0000 0.5686(12) 0.0180 Uiso
O12FA O 0.6224(13) 0.0000 0.4314(12) 0.0180 Uiso
O12X O 0.6224(13) 0.0000 0.5686(12) 0.0180 Uiso
Ni1 Ni 0.2500 0.2500 0.2500 0.0103 Uani
O1 O 0.2092(4) 0.2756(4) 0.1765(4) 0.0147 Uani
N1 N 0.1508(5) 0.2773(5) 0.1764(5) 0.0130 Uani
C1 C 0.1237(6) 0.2468(6) 0.1372(6) 0.0153 Uani
H1 H 0.1442 0.2247 0.1107 0.0180 Uiso
C2 C 0.0646(6) 0.2483(6) 0.1358(6) 0.0173 Uani
H2 H 0.0454 0.2245 0.1097 0.0210 Uiso
C3 C 0.0325(5) 0.2832(6) 0.1713(6) 0.0117 Uani
C4 C 0.0639(5) 0.3169(6) 0.2097(6) 0.0110 Uani
H3 H 0.0440 0.3414 0.2347 0.0130 Uiso
C5 C 0.1248(6) 0.3154(6) 0.2124(6) 0.0123 Uani
H4 H 0.1458 0.3390 0.2373 0.0150 Uiso
Ni1FA Ni -0.2500 0.2500 0.2500 0.0103 Uani
Ni1EA Ni 0.2500 -0.2500 0.2500 0.0103 Uani
Ni1DA Ni 0.2500 0.2500 -0.2500 0.0103 Uani
O1A O 0.1765(4) 0.2092(4) 0.2756(4) 0.0147 Uani
O1B O 0.2756(4) 0.1765(4) 0.2092(4) 0.0147 Uani
O1AA O 0.2908(4) 0.2244(4) 0.3235(4) 0.0147 Uani
O1BA O 0.3235(4) 0.2908(4) 0.2244(4) 0.0147 Uani
O1CA O 0.2244(4) 0.3235(4) 0.2908(4) 0.0147 Uani
O1FA O -0.2092(4) 0.2756(4) 0.1765(4) 0.0147 Uani
O1IA O 0.1765(4) -0.2092(4) 0.2756(4) 0.0147 Uani
O1LA O 0.2756(4) 0.1765(4) -0.2092(4) 0.0147 Uani
N1A N 0.1764(5) 0.1508(5) 0.2773(5) 0.0130 Uani
N1B N 0.2773(5) 0.1764(5) 0.1508(5) 0.0130 Uani
N1FA N -0.1508(5) 0.2773(5) 0.1764(5) 0.0130 Uani
N1IA N 0.1764(5) -0.1508(5) 0.2773(5) 0.0130 Uani
N1LA N 0.2773(5) 0.1764(5) -0.1508(5) 0.0130 Uani
C1A C 0.1372(6) 0.1237(6) 0.2468(6) 0.0153 Uani
C1B C 0.2468(6) 0.1372(6) 0.1237(6) 0.0153 Uani
C1FA C -0.1237(6) 0.2468(6) 0.1372(6) 0.0153 Uani
C1IA C 0.1372(6) -0.1237(6) 0.2468(6) 0.0153 Uani
C1LA C 0.2468(6) 0.1372(6) -0.1237(6) 0.0153 Uani
H1A H 0.1107 0.1442 0.2247 0.0180 Uiso
H1B H 0.2247 0.1107 0.1442 0.0180 Uiso
H1FA H -0.1442 0.2247 0.1107 0.0180 Uiso
H1IA H 0.1107 -0.1442 0.2247 0.0180 Uiso
H1LA H 0.2247 0.1107 -0.1442 0.0180 Uiso
C2FA C -0.0646(6) 0.2483(6) 0.1358(6) 0.0173 Uani
C2A C 0.1358(6) 0.0646(6) 0.2483(6) 0.0173 Uani
C2B C 0.2483(6) 0.1358(6) 0.0646(6) 0.0173 Uani
C2IA C 0.1358(6) -0.0646(6) 0.2483(6) 0.0173 Uani
C2LA C 0.2483(6) 0.1358(6) -0.0646(6) 0.0173 Uani
H2FA H -0.0454 0.2245 0.1097 0.0210 Uiso
H2A H 0.1097 0.0454 0.2245 0.0210 Uiso
H2B H 0.2245 0.1097 0.0454 0.0210 Uiso
H2IA H 0.1097 -0.0454 0.2245 0.0210 Uiso
H2LA H 0.2245 0.1097 -0.0454 0.0210 Uiso
C3FA C -0.0325(5) 0.2832(6) 0.1713(6) 0.0117 Uani
C3A C 0.1713(6) 0.0325(5) 0.2832(6) 0.0117 Uani
C3B C 0.2832(6) 0.1713(6) 0.0325(5) 0.0117 Uani
C3IA C 0.1713(6) -0.0325(5) 0.2832(6) 0.0117 Uani
C3LA C 0.2832(6) 0.1713(6) -0.0325(5) 0.0117 Uani
C4FA C -0.0639(5) 0.3169(6) 0.2097(6) 0.0110 Uani
C4A C 0.2097(6) 0.0639(5) 0.3169(6) 0.0110 Uani
C4B C 0.3169(6) 0.2097(6) 0.0639(5) 0.0110 Uani
C4IA C 0.2097(6) -0.0639(5) 0.3169(6) 0.0110 Uani
C4LA C 0.3169(6) 0.2097(6) -0.0639(5) 0.0110 Uani
H3FA H -0.0440 0.3414 0.2347 0.0130 Uiso
H3A H 0.2347 0.0440 0.3414 0.0130 Uiso
H3B H 0.3414 0.2347 0.0440 0.0130 Uiso
H3IA H 0.2347 -0.0440 0.3414 0.0130 Uiso
H3LA H 0.3414 0.2347 -0.0440 0.0130 Uiso
C5A C 0.2124(6) 0.1248(6) 0.3154(6) 0.0123 Uani
C5B C 0.3154(6) 0.2124(6) 0.1248(6) 0.0123 Uani
C5FA C -0.1248(6) 0.3154(6) 0.2124(6) 0.0123 Uani
C5IA C 0.2124(6) -0.1248(6) 0.3154(6) 0.0123 Uani
C5LA C 0.3154(6) 0.2124(6) -0.1248(6) 0.0123 Uani
H4A H 0.2373 0.1458 0.3390 0.0150 Uiso
H4B H 0.3390 0.2373 0.1458 0.0150 Uiso
H4FA H -0.1458 0.3390 0.2373 0.0150 Uiso
H4IA H 0.2373 -0.1458 0.3390 0.0150 Uiso
H4LA H 0.3390 0.2373 -0.1458 0.0150 Uiso
loop_
_atom_site_aniso_label
_atom_site_aniso_U_11
_atom_site_aniso_U_22
_atom_site_aniso_U_33
_atom_site_aniso_U_23
_atom_site_aniso_U_13
_atom_site_aniso_U_12
O2 0.078(5) 0.075(5) 0.077(5) 0.000 0.000 0.002(4)
O4 0.056(7) 0.056(7) 0.056(7) 0.014(9) -0.014(9) -0.014(9)
C6 0.022(12) 0.07(2) 0.07(2) 0.000 0.000 -0.026(13)
C7 0.043(13) 0.042(13) 0.020(11) 0.000 0.000 -0.037(11)
N2 0.11(2) 0.037(12) 0.016(10) 0.000 0.000 0.028(14)
W1 0.0183(3) 0.0155(3) 0.0178(3) 0.0079(2) 0.0027(2) 0.0068(2)
W2 0.0204(5) 0.0052(4) 0.0152(5) 0.000 0.000 0.000
W3 0.0427(7) 0.0175(6) 0.0074(5) 0.000 0.000 0.000
P1 0.014(3) 0.013(3) 0.012(3) 0.000 0.000 0.000
O6 0.025(4) 0.023(4) 0.021(4) 0.000 0.000 -0.005(4)
O7 0.024(3) 0.031(3) 0.018(3) 0.005(3) 0.006(3) -0.004(3)
O8 0.061(11) 0.010(8) 0.016(8) 0.000 0.000 0.000
O9 0.027(4) 0.026(4) 0.022(4) 0.000 0.000 0.000
O10 0.038(6) 0.045(6) 0.038(6) 0.030(5) -0.024(5) -0.010(6)
W1DA 0.0183 0.0155 0.0178 -0.0079 -0.0027 0.0068
W1EA 0.0183 0.0155 0.0178 -0.0079 0.0027 -0.0068
W1FA 0.0183 0.0155 0.0178 0.0079 -0.0027 -0.0068
W1G 0.0183 0.0155 0.0178 -0.0079 0.0027 -0.0068
W1F 0.0183 0.0155 0.0178 -0.0079 -0.0027 0.0068
W1H 0.0183 0.0155 0.0178 0.0079 -0.0027 -0.0068
W1X 0.0183 0.0155 0.0178 0.0079 0.0027 0.0068
W2EA 0.0204 0.0052 0.0152 0 0 0
W3DA 0.0427 0.0175 0.0074 0 0 0
O6EA 0.025 0.023 0.021 0 0 0.005
O6FA 0.025 0.023 0.021 0 0 0.005
O6X 0.025 0.023 0.021 0 0 -0.005
O7DA 0.024 0.031 0.018 -0.005 -0.006 -0.004
O7FA 0.024 0.031 0.018 0.005 -0.006 0.004
O7G 0.024 0.031 0.018 -0.005 0.006 0.004
O7EA 0.024 0.031 0.018 -0.005 0.006 0.004
O7F 0.024 0.031 0.018 -0.005 -0.006 -0.004
O7H 0.024 0.031 0.018 0.005 -0.006 0.004
O7X 0.024 0.031 0.018 0.005 0.006 -0.004
O8EA 0.061 0.01 0.016 0 0 0
O9DA 0.027 0.026 0.022 0 0 0
O10DA 0.038 0.045 0.038 -0.03 0.024 -0.01
O10EA 0.038 0.045 0.038 -0.03 -0.024 0.01
O10FA 0.038 0.045 0.038 0.03 0.024 0.01
O10G 0.038 0.045 0.038 -0.03 -0.024 0.01
O10F 0.038 0.045 0.038 -0.03 0.024 -0.01
O10H 0.038 0.045 0.038 0.03 0.024 0.01
O10X 0.038 0.045 0.038 0.03 -0.024 -0.01
Ni1 0.0103(8) 0.0103(8) 0.0103(8) 0.0025(9) 0.0025(9) 0.0025(9)
O1 0.015(3) 0.018(3) 0.011(3) 0.006(3) 0.003(3) -0.001(3)
N1 0.011(3) 0.017(3) 0.011(3) 0.006(3) 0.000(3) 0.001(3)
C1 0.013(3) 0.017(3) 0.016(3) 0.003(3) 0.000(3) 0.001(3)
C2 0.015(3) 0.019(3) 0.018(3) -0.001(3) -0.001(3) 0.001(3)
C3 0.008(3) 0.012(3) 0.015(3) 0.004(3) -0.001(3) -0.001(3)
C4 0.008(3) 0.014(3) 0.011(3) 0.002(3) -0.001(3) 0.003(3)
C5 0.010(3) 0.014(3) 0.013(3) 0.003(3) 0.000(3) 0.000(3)
Ni1FA 0.0103 0.0103 0.0103 0.0025 -0.0025 -0.0025
Ni1EA 0.0103 0.0103 0.0103 -0.0025 0.0025 -0.0025
Ni1DA 0.0103 0.0103 0.0103 -0.0025 -0.0025 0.0025
O1A 0.011 0.015 0.018 -0.001 0.006 0.003
O1B 0.018 0.011 0.015 0.003 -0.001 0.006
O1AA 0.015 0.018 0.011 0.006 0.003 -0.001
O1BA 0.011 0.015 0.018 -0.001 0.006 0.003
O1CA 0.018 0.011 0.015 0.003 -0.001 0.006
O1FA 0.015 0.018 0.011 0.006 -0.003 0.001
O1IA 0.011 0.015 0.018 0.001 0.006 -0.003
O1LA 0.018 0.011 0.015 -0.003 0.001 0.006
N1A 0.011 0.011 0.017 0.001 0.006 0
N1B 0.017 0.011 0.011 0 0.001 0.006
N1FA 0.011 0.017 0.011 0.006 0 -0.001
N1IA 0.011 0.011 0.017 -0.001 0.006 0
N1LA 0.017 0.011 0.011 0 -0.001 0.006
C1A 0.016 0.013 0.017 0.001 0.003 0
C1B 0.017 0.016 0.013 0 0.001 0.003
C1FA 0.013 0.017 0.016 0.003 0 -0.001
C1IA 0.016 0.013 0.017 -0.001 0.003 0
C1LA 0.017 0.016 0.013 0 -0.001 0.003
C2FA 0.015 0.019 0.018 -0.001 0.001 -0.001
C2A 0.018 0.015 0.019 0.001 -0.001 -0.001
C2B 0.019 0.018 0.015 -0.001 0.001 -0.001
C2IA 0.018 0.015 0.019 -0.001 -0.001 0.001
C2LA 0.019 0.018 0.015 0.001 -0.001 -0.001
C3FA 0.008 0.012 0.015 0.004 0.001 0.001
C3A 0.015 0.008 0.012 -0.001 0.004 -0.001
C3B 0.012 0.015 0.008 -0.001 -0.001 0.004
C3IA 0.015 0.008 0.012 0.001 0.004 0.001
C3LA 0.012 0.015 0.008 0.001 0.001 0.004
C4FA 0.008 0.014 0.011 0.002 0.001 -0.003
C4A 0.011 0.008 0.014 0.003 0.002 -0.001
C4B 0.014 0.011 0.008 -0.001 0.003 0.002
C4IA 0.011 0.008 0.014 -0.003 0.002 0.001
C4LA 0.014 0.011 0.008 0.001 -0.003 0.002
C5A 0.013 0.01 0.014 0 0.003 0
C5B 0.014 0.013 0.01 0 0 0.003
C5FA 0.01 0.014 0.013 0.003 0 0
C5IA 0.013 0.01 0.014 0 0.003 0
C5LA 0.014 0.013 0.01 0 0 0.003
loop_
_geom_bond_atom_site_label_1
_geom_bond_atom_site_label_2
_geom_bond_site_symmetry_1
_geom_bond_site_symmetry_2
Ni1 O1 1_555 1_555
O1 N1 1_555 1_555
N1 C1 1_555 1_555
C1 H1 1_555 1_555
C2 C1 1_555 1_555
H2 C2 1_555 1_555
C3 C2 1_555 1_555
C4 C3 1_555 1_555
H3 C4 1_555 1_555
C5 N1 1_555 1_555
H4 C5 1_555 1_555
C6 H5 1_555 1_555
H6 C6 1_555 1_555
C7 C6 1_555 1_555
N2 C7 1_555 1_555
W1 O6 1_555 1_555
W2 O5 1_555 1_555
W3 O9 1_555 1_555
P1 O5 1_555 1_555
O5 O5FA 1_555 1_555
O6 W1DA 1_555 1_555
O7 W1 1_555 1_555
O8 W2 1_555 1_555
O10 W1 1_555 1_555
O11 W1 1_555 1_555
O12 W1 1_555 1_555
Ni1FA O1FA 1_555 1_555
Ni1EA O1IA 1_555 1_555
Ni1DA O1LA 1_555 1_555
O1A Ni1 1_555 1_555
O1B Ni1 1_555 1_555
O1AA Ni1 1_555 1_555
O1BA Ni1 1_555 1_555
O1CA Ni1 1_555 1_555
O1FA N1FA 1_555 1_555
O1IA N1IA 1_555 1_555
O1LA N1LA 1_555 1_555
N1A O1A 1_555 1_555
N1B O1B 1_555 1_555
N1FA C1FA 1_555 1_555
N1IA C1IA 1_555 1_555
N1LA C1LA 1_555 1_555
C1A N1A 1_555 1_555
C1B N1B 1_555 1_555
C1FA H1FA 1_555 1_555
C1IA H1IA 1_555 1_555
C1LA H1LA 1_555 1_555
H1A C1A 1_555 1_555
H1B C1B 1_555 1_555
C2FA C1FA 1_555 1_555
C2A C1A 1_555 1_555
C2B C1B 1_555 1_555
C2IA C1IA 1_555 1_555
C2LA C1LA 1_555 1_555
H2FA C2FA 1_555 1_555
H2A C2A 1_555 1_555
H2B C2B 1_555 1_555
H2IA C2IA 1_555 1_555
H2LA C2LA 1_555 1_555
C3FA C3 1_555 1_555
C3A C2A 1_555 1_555
C3B C2B 1_555 1_555
C3IA C2IA 1_555 1_555
C3LA C2LA 1_555 1_555
C4FA C3FA 1_555 1_555
C4A C3A 1_555 1_555
C4B C3B 1_555 1_555
C4IA C3IA 1_555 1_555
C4LA C3LA 1_555 1_555
H3FA C4FA 1_555 1_555
H3A C4A 1_555 1_555
H3B C4B 1_555 1_555
H3IA C4IA 1_555 1_555
H3LA C4LA 1_555 1_555
C5A N1A 1_555 1_555
C5B N1B 1_555 1_555
C5FA N1FA 1_555 1_555
C5IA N1IA 1_555 1_555
C5LA N1LA 1_555 1_555
H4A C5A 1_555 1_555
H4B C5B 1_555 1_555
H4FA C5FA 1_555 1_555
H4IA C5IA 1_555 1_555
H4LA C5LA 1_555 1_555
H5DA C6 1_555 1_555
W1DA O7DA 1_555 1_555
W1EA O12 1_555 1_555
W1FA O6FA 1_555 1_555
W1G O6FA 1_555 1_555
W1F O6X 1_555 1_555
W1H O6EA 1_555 1_555
W1X O6X 1_555 1_555
W2EA O7EA 1_555 1_555
W3DA O9DA 1_555 1_555
O5FA W2 1_555 1_555
O5EA P1 1_555 1_555
O5X P1 1_555 1_555
O6EA W1EA 1_555 1_555
O7DA W2 1_555 1_555
O7FA W2 1_555 1_555
O7G W2 1_555 1_555
O7EA W1EA 1_555 1_555
O7F W1F 1_555 1_555
O7H W1H 1_555 1_555
O7X W1X 1_555 1_555
O8EA W2EA 1_555 1_555
O10DA W1DA 1_555 1_555
O10EA W1EA 1_555 1_555
O10FA W1FA 1_555 1_555
O10G W1G 1_555 1_555
O10F W1F 1_555 1_555
O10H W1H 1_555 1_555
O10X W1X 1_555 1_555
O11EA W3 1_555 1_555
O11FA W3 1_555 1_555
O11F W3 1_555 1_555
O11DA W1DA 1_555 1_555
O11G W1G 1_555 1_555
O11X W1X 1_555 1_555
O11H W1H 1_555 1_555
O12DA W1DA 1_555 1_555
O12FA W1FA 1_555 1_555
O12X W1G 1_555 1_555
C4 C5 1_555 1_555
W2 O7 1_555 1_555
W3 O11 1_555 1_555
P1 O5FA 1_555 1_555
C2FA C3FA 1_555 1_555
C3A C3IA 1_555 1_555
C3B C3LA 1_555 1_555
C4FA C5FA 1_555 1_555
C4A C5A 1_555 1_555
C4B C5B 1_555 1_555
C4IA C5IA 1_555 1_555
C4LA C5LA 1_555 1_555
W1EA O11EA 1_555 1_555
W1FA O7FA 1_555 1_555
W1FA O11FA 1_555 1_555
W1G O7G 1_555 1_555
W1F O11F 1_555 1_555
W1F O12FA 1_555 1_555
W1H O12DA 1_555 1_555
W1X O12X 1_555 1_555
W2EA O7F 1_555 1_555
W2EA O7H 1_555 1_555
W2EA O7X 1_555 1_555
W3DA O11DA 1_555 1_555
W3DA O11G 1_555 1_555
W3DA O11X 1_555 1_555
W3DA O11H 1_555 1_555
O5EA O5X 1_555 1_555

#END
