
#######################################################################
#
#                 Cambridge Crystallographic Data Centre
#                                CCDC 
#
#######################################################################
#
# If this CIF has been generated from an entry in the Cambridge 
# Structural Database, then it will include bibliographic, chemical, 
# crystal, experimental, refinement or atomic coordinate data resulting 
# from the CCDC's data processing and validation procedures.
#
#######################################################################

data_QOBPEE
_chemical_formula_moiety         '(C3 H9 Be3 N2 O13 P3)n'
_symmetry_cell_setting           monoclinic
_symmetry_space_group_name_H-M   'C 2/c'
_symmetry_Int_Tables_number      15
_space_group_name_Hall           '-C 2yc'
loop_
_symmetry_equiv_pos_site_id
_symmetry_equiv_pos_as_xyz
1 x,y,z
2 -x,y,1/2-z
3 1/2+x,1/2+y,z
4 1/2-x,1/2+y,1/2-z
5 -x,-y,-z
6 x,-y,1/2+z
7 1/2-x,1/2-y,-z
8 1/2+x,1/2-y,1/2+z
_cell_length_a                   25.0986(9)
_cell_length_b                   4.8666(2)
_cell_length_c                   24.0359(9)
_cell_angle_alpha                90
_cell_angle_beta                 117.200(5)
_cell_angle_gamma                90
_cell_volume                     2611.2
loop_
_atom_site_label
_atom_site_type_symbol
_atom_site_fract_x
_atom_site_fract_y
_atom_site_fract_z
Be1 Be 0.18285(19) 0.6706(9) 0.24933(19)
Be2 Be 0.0599(2) 0.6532(9) 0.3405(2)
Be3 Be 0.2606(2) 0.5175(9) 0.57071(19)
P1 P 0.23747(4) 0.16266(17) 0.31487(4)
P2 P 0.06565(4) 0.48725(19) 0.22332(4)
P3 P 0.17659(4) 0.47397(18) 0.43645(4)
O1 O 0.21413(10) 0.4628(4) 0.31077(10)
O2 O 0.26461(10) 0.0728(5) 0.38292(10)
O3 O 0.28541(10) 0.1472(5) 0.29415(10)
O4 O 0.18351(10) -0.0168(5) 0.27404(11)
O5 O 0.11258(10) 0.5945(5) 0.20528(10)
O6 O 0.06975(13) 0.1670(6) 0.22610(16)
H1 H 0.1050 0.1201 0.2409
O7 O 0.00344(11) 0.5359(6) 0.17115(12)
O8 O 0.07611(12) 0.5990(7) 0.28534(12)
O9 O 0.11057(10) 0.5350(6) 0.40523(11)
O10 O 0.20338(10) 0.5586(5) 0.50384(10)
O11 O 0.20911(10) 0.6572(4) 0.40555(10)
O12 O 0.18660(11) 0.1765(5) 0.42668(12)
O13 O 0.05807(15) 0.9875(6) 0.35356(16)
H2 H 0.0239 1.0455 0.3328
Be1_2 Be 0.18285(19) -0.3294(9) 0.24933(19)
Be1C Be 0.31715(19) 0.1706(9) 0.25067(19)
Be2A Be -0.0599(2) 0.6532(9) 0.1595(2)
Be3F Be 0.2394(2) -0.0175(9) 0.42929(19)
Be3F_2 Be 0.2394(2) 0.9825(9) 0.42929(19)
O2F O 0.23539(10) 0.4272(5) 0.61708(10)
O3C O 0.21459(10) 0.6472(5) 0.20585(10)
O4_2 O 0.18351(10) 0.9832(5) 0.27404(11)
O7A O -0.00344(11) 0.5359(6) 0.32885(12)
O11F O 0.29089(10) 0.8428(4) 0.59445(10)
O12F O 0.31340(11) 0.3235(5) 0.57332(12)
N1 N 0.09692(19) 1.0775(10) 0.60158(19)
H3 H 0.0903 1.1414 0.6312
N2 N 0.1310(2) 0.8373(12) 0.5528(3)
H4 H 0.1509 0.7147 0.5443
C1 C 0.1331(2) 0.8759(13) 0.6064(3)
H5 H 0.1565 0.7773 0.6426
C2 C 0.0935(4) 1.016(2) 0.5128(3)
H6 H 0.0840 1.0312 0.4707
C3 C 0.0720(3) 1.1667(14) 0.5427(3)
H7 H 0.0445 1.3094 0.5261
loop_
_geom_bond_atom_site_label_1
_geom_bond_atom_site_label_2
_geom_bond_site_symmetry_1
_geom_bond_site_symmetry_2
Be1 O1 1_555 1_555
Be2 O8 1_555 1_555
Be3 O10 1_555 1_555
P1 O1 1_555 1_555
P2 O5 1_555 1_555
P3 O9 1_555 1_555
O2 P1 1_555 1_555
O3 P1 1_555 1_555
O4 P1 1_555 1_555
O5 Be1 1_555 1_555
O6 P2 1_555 1_555
H1 O6 1_555 1_555
O7 P2 1_555 1_555
O8 P2 1_555 1_555
O9 Be2 1_555 1_555
O10 P3 1_555 1_555
O11 P3 1_555 1_555
O12 P3 1_555 1_555
O13 Be2 1_555 1_555
H2 O13 1_555 1_555
N1 H3 1_555 1_555
N2 H4 1_555 1_555
C1 N1 1_555 1_555
H5 C1 1_555 1_555
C2 N2 1_555 1_555
H6 C2 1_555 1_555
C3 N1 1_555 1_555
H7 C3 1_555 1_555
Be1_2 O4 1_555 1_555
Be1C O3 1_555 1_555
Be2A O7 1_555 1_555
Be3F O2 1_555 1_555
Be3F_2 O11 1_555 1_555
O2F Be3 1_555 1_555
O3C Be1 1_555 1_555
O4_2 Be1 1_555 1_555
O7A Be2 1_555 1_555
O11F Be3 1_555 1_555
O12F Be3 1_555 1_555
O12 Be3F 1_555 1_555
N2 C1 1_555 1_555
C2 C3 1_555 1_555

#END
