
#######################################################################
#
#                 Cambridge Crystallographic Data Centre
#                                CCDC 
#
#######################################################################
#
# If this CIF has been generated from an entry in the Cambridge 
# Structural Database, then it will include bibliographic, chemical, 
# crystal, experimental, refinement or atomic coordinate data resulting 
# from the CCDC's data processing and validation procedures.
#
#######################################################################

data_MULXOI
_chemical_formula_moiety         '(C23 H10 O10 Zn2)n'
_symmetry_cell_setting           hexagonal
_symmetry_space_group_name_H-M   'P 65'
_symmetry_Int_Tables_number      170
_space_group_name_Hall           'P 65'
loop_
_symmetry_equiv_pos_site_id
_symmetry_equiv_pos_as_xyz
1 x,y,z
2 x-y,x,5/6+z
3 -y,x-y,2/3+z
4 -x,-y,1/2+z
5 -x+y,-x,1/3+z
6 y,-x+y,1/6+z
_cell_length_a                   12.399(4)
_cell_length_b                   12.399(4)
_cell_length_c                   51.391(15)
_cell_angle_alpha                90
_cell_angle_beta                 90
_cell_angle_gamma                120
_cell_volume                     6842.13
loop_
_atom_site_label
_atom_site_type_symbol
_atom_site_fract_x
_atom_site_fract_y
_atom_site_fract_z
Zn1 Zn 0.37443(12) 0.56027(12) 0.23028(3)
Zn2 Zn 0.81908(12) 0.53413(12) 0.11911(3)
O1 O 0.3234(10) 0.4784(11) 0.1981(2)
O2 O 0.1847(8) -0.2184(8) -0.01667(17)
O3 O 0.6473(7) 0.3209(7) 0.07556(15)
O4 O 0.6552(7) 0.4441(7) 0.10696(15)
O5 O -0.0794(8) -0.3344(8) 0.09250(16)
O6 O -0.0948(8) -0.4476(8) 0.05777(15)
O7 O -0.1194(8) 0.4182(11) 0.12578(17)
O8 O -0.0796(8) 0.3526(10) 0.0892(3)
O9 O 0.1398(15) 0.4619(19) 0.2037(3)
H1 H 0.1675 0.4909 0.2181
O10 O 0.3067(10) -0.0126(9) -0.01316(18)
C1 C -0.0571(14) 0.3758(11) 0.1139(3)
C2 C 0.5987(12) 0.3536(12) 0.0914(3)
C3 C 0.4566(10) 0.2835(11) 0.0914(2)
C4 C 0.3951(10) 0.1833(10) 0.0771(2)
H2 H 0.4393 0.1582 0.0666
C5 C 0.2564(12) 0.1083(12) 0.0773(2)
C6 C 0.2009(10) 0.1567(10) 0.0917(2)
H3 H 0.1146 0.1179 0.0908
C7 C 0.2610(9) 0.2590(8) 0.10765(19)
C8 C 0.3895(13) 0.3212(11) 0.1073(3)
H4 H 0.4331 0.3905 0.1179
C9 C 0.1867(10) 0.3013(9) 0.1233(2)
C10 C 0.2294(10) 0.3527(10) 0.1491(2)
H5 H 0.2979 0.3516 0.1561
C11 C 0.0712(10) 0.4060(11) 0.1509(2)
H6 H 0.0293 0.4393 0.1598
C12 C 0.1703(11) 0.4041(10) 0.1638(3)
C13 C 0.0327(12) 0.3630(11) 0.1266(3)
C14 C 0.0948(10) 0.3078(9) 0.1148(2)
H7 H 0.0644 0.2714 0.0986
C15 C 0.1944(9) -0.0183(9) 0.0637(2)
C16 C 0.2352(11) -0.0018(11) 0.0364(2)
H8 H 0.2897 0.0739 0.0286
C17 C 0.1757(11) -0.1248(11) 0.0233(2)
C18 C 0.0990(10) -0.1148(9) 0.0723(2)
H9 H 0.0656 -0.1110 0.0883
C19 C 0.0424(10) -0.2278(10) 0.0582(2)
C20 C 0.0863(10) -0.2309(11) 0.03346(19)
H10 H 0.0541 -0.3052 0.0242
C21 C -0.0531(11) -0.3508(13) 0.0706(3)
C22 C 0.2398(11) -0.1007(12) -0.0055(2)
C23 C 0.228(3) 0.4537(17) 0.1897(4)
Zn1A Zn -0.18584(17) -0.62557(12) 0.06361(3)
Zn1A_2 Zn -0.18584(17) 0.37443(12) 0.06361(3)
Zn1A_3 Zn 0.81416(17) 0.37443(12) 0.06361(3)
Zn2_2 Zn -0.18092(12) -0.46587(12) 0.11911(3)
Zn2_3 Zn -0.18092(12) 0.53413(12) 0.11911(3)
Zn2A Zn 0.28495(17) -0.18092(12) -0.04756(3)
O2E O 0.7816(8) 0.5969(11) 0.15000(17)
O3E O 0.3209(7) 0.6736(10) 0.24223(15)
O5_2 O 0.9206(8) 0.6656(8) 0.09250(16)
O6E O 0.5524(8) 0.6472(11) 0.22444(15)
O7_2 O 0.8806(8) 0.4182(11) 0.12578(17)
O8E O 0.3526(10) 0.4322(13) 0.2559(3)
loop_
_geom_bond_atom_site_label_1
_geom_bond_atom_site_label_2
_geom_bond_site_symmetry_1
_geom_bond_site_symmetry_2
Zn1 O1 1_555 1_555
Zn2 O4 1_555 1_555
O1 C23 1_555 1_555
O2 C22 1_555 1_555
O3 C2 1_555 1_555
O4 C2 1_555 1_555
O5 C21 1_555 1_555
O6 C21 1_555 1_555
O7 C1 1_555 1_555
O8 C1 1_555 1_555
O9 H1 1_555 1_555
O10 C22 1_555 1_555
C1 C13 1_555 1_555
C2 C3 1_555 1_555
C3 C4 1_555 1_555
C4 H2 1_555 1_555
C5 C4 1_555 1_555
C6 C5 1_555 1_555
H3 C6 1_555 1_555
C7 C6 1_555 1_555
C8 C3 1_555 1_555
H4 C8 1_555 1_555
C9 C7 1_555 1_555
C10 C9 1_555 1_555
H5 C10 1_555 1_555
C11 H6 1_555 1_555
C12 C10 1_555 1_555
C13 C11 1_555 1_555
C14 C9 1_555 1_555
H7 C14 1_555 1_555
C15 C5 1_555 1_555
C16 C15 1_555 1_555
H8 C16 1_555 1_555
C17 C16 1_555 1_555
C18 C15 1_555 1_555
H9 C18 1_555 1_555
C19 C18 1_555 1_555
C20 C17 1_555 1_555
H10 C20 1_555 1_555
C21 C19 1_555 1_555
C22 C17 1_555 1_555
C23 O9 1_555 1_555
Zn1A O6 1_555 1_555
Zn1A_2 O8 1_555 1_555
Zn1A_3 O3 1_555 1_555
Zn2_2 O5 1_555 1_555
Zn2_3 O7 1_555 1_555
Zn2A O2 1_555 1_555
O2E Zn2 1_555 1_555
O3E Zn1 1_555 1_555
O5_2 Zn2 1_555 1_555
O6E Zn1 1_555 1_555
O7_2 Zn2 1_555 1_555
O8E Zn1 1_555 1_555
C7 C8 1_555 1_555
C11 C12 1_555 1_555
C12 C23 1_555 1_555
C13 C14 1_555 1_555
C19 C20 1_555 1_555

#END
