
#######################################################################
#
#                 Cambridge Crystallographic Data Centre
#                                CCDC 
#
#######################################################################
#
# If this CIF has been generated from an entry in the Cambridge 
# Structural Database, then it will include bibliographic, chemical, 
# crystal, experimental, refinement or atomic coordinate data resulting 
# from the CCDC's data processing and validation procedures.
#
#######################################################################

data_VODSEM
_chemical_formula_moiety         '(C10 H12 La2 O18)n'
_symmetry_cell_setting           orthorhombic
_symmetry_space_group_name_H-M   'P b c n'
_symmetry_Int_Tables_number      60
_space_group_name_Hall           '-P 2n 2ab'
loop_
_symmetry_equiv_pos_site_id
_symmetry_equiv_pos_as_xyz
1 x,y,z
2 1/2-x,1/2-y,1/2+z
3 -x,y,1/2-z
4 1/2+x,1/2-y,-z
5 -x,-y,-z
6 1/2+x,1/2+y,1/2-z
7 x,-y,1/2+z
8 1/2-x,1/2+y,z
_cell_length_a                   23.984(5)
_cell_length_b                   14.096(3)
_cell_length_c                   6.7240(10)
_cell_angle_alpha                90
_cell_angle_beta                 90
_cell_angle_gamma                90
_cell_volume                     2273.24
loop_
_atom_site_label
_atom_site_type_symbol
_atom_site_fract_x
_atom_site_fract_y
_atom_site_fract_z
La1 La 0.366012(14) 0.79411(3) 0.11769(5)
O1 O 0.2866(2) 0.6914(4) -0.0248(9)
O2 O 0.1647(2) 0.5965(3) -0.1048(8)
O3 O 0.2142(2) 0.3906(4) -0.0059(8)
O4 O 0.3374(2) 0.4794(4) 0.0449(9)
O5 O 0.4708(2) 0.7941(4) 0.0124(8)
O6 O 0.56025(19) 0.8006(4) 0.1057(7)
O7 O 0.3199(2) 0.7027(4) 0.4157(8)
O8 O 0.4045(2) 0.6263(4) 0.1192(11)
O9 O 0.3790(2) 0.7810(5) -0.2522(9)
O10 O 0.4064(2) 0.9613(4) 0.0386(8)
C1 C 0.2675(3) 0.6089(5) -0.0245(10)
C2 C 0.2124(3) 0.5664(5) -0.0566(10)
C3 C 0.2338(3) 0.4731(5) -0.0152(9)
C4 C 0.2905(3) 0.5129(5) 0.0106(11)
C5 C 0.5086(3) 0.7965(5) 0.1404(10)
C5B C 0.4914(3) 0.7965(5) 0.3596(10)
O5B O 0.5292(2) 0.7941(4) 0.4876(8)
O6B O 0.43975(19) 0.8006(4) 0.3943(7)
O1A O 0.2134(2) 0.8086(4) 0.4752(9)
O2A O 0.3353(2) 0.9035(3) 0.3952(8)
O3A O 0.2858(2) 1.1094(4) 0.4941(8)
O4A O 0.1626(2) 1.0206(4) 0.5449(9)
C1A C 0.2325(3) 0.8911(5) 0.4755(10)
C2A C 0.2876(3) 0.9336(5) 0.4434(10)
C3A C 0.2662(3) 1.0269(5) 0.4848(9)
C4A C 0.2095(3) 0.9871(5) 0.5106(11)
La1A La 0.133988(14) 0.70589(3) 0.61769(5)
O3G O 0.2858(2) 0.8906(4) -0.0059(8)
La1A_2 La 0.133988(14) 0.70589(3) -0.38231(5)
La1G La 0.133988(14) 0.29411(3) 0.11769(5)
La1B La 0.633988(14) 0.79411(3) 0.38231(5)
La1F La 0.366012(14) 1.20589(3) 0.61769(5)
O2_2 O 0.1647(2) 0.5965(3) 0.8952(8)
O3F O 0.2142(2) 0.6094(4) 0.4941(8)
O5A O 0.0292(2) 0.7059(4) 0.5124(8)
O6C O 0.06025(19) 0.6994(4) 0.8943(7)
O7A O 0.1801(2) 0.7973(4) 0.9157(8)
O8A O 0.0955(2) 0.8737(4) 0.6192(11)
O9A O 0.1210(2) 0.7190(5) 0.2478(9)
O10A O 0.0936(2) 0.5387(4) 0.5386(8)
O11 O 0.5000 1.0404(6) 0.2500
O12 O 0.5000 0.6232(10) -0.2500
loop_
_geom_bond_atom_site_label_1
_geom_bond_atom_site_label_2
_geom_bond_site_symmetry_1
_geom_bond_site_symmetry_2
La1 O1 1_555 1_555
O1 C1 1_555 1_555
O2 C2 1_555 1_555
O3 C3 1_555 1_555
O4 C4 1_555 1_555
O5 La1 1_555 1_555
O6 C5 1_555 1_555
O7 La1 1_555 1_555
O8 La1 1_555 1_555
O9 La1 1_555 1_555
O10 La1 1_555 1_555
C1 C2 1_555 1_555
C2 C3 1_555 1_555
C3 C4 1_555 1_555
C4 C1 1_555 1_555
C5 O5 1_555 1_555
C5B C5 1_555 1_555
O5B C5B 1_555 1_555
O6B La1 1_555 1_555
O1A C1A 1_555 1_555
O2A La1 1_555 1_555
O3A C3A 1_555 1_555
O4A C4A 1_555 1_555
C1A C2A 1_555 1_555
C2A O2A 1_555 1_555
C3A C2A 1_555 1_555
C4A C1A 1_555 1_555
La1A O1A 1_555 1_555
O3G La1 1_555 1_555
La1A_2 O2 1_555 1_555
La1G O3 1_555 1_555
La1B O6 1_555 1_555
La1F O3A 1_555 1_555
O2_2 La1A 1_555 1_555
O3F La1A 1_555 1_555
O5A La1A 1_555 1_555
O6C La1A 1_555 1_555
O7A La1A 1_555 1_555
O8A La1A 1_555 1_555
O9A La1A 1_555 1_555
O10A La1A 1_555 1_555
C5B O6B 1_555 1_555
O5B La1B 1_555 1_555
C3A C4A 1_555 1_555

#END
