
#######################################################################
#
#                 Cambridge Crystallographic Data Centre
#                                CCDC 
#
#######################################################################
#
# If this CIF has been generated from an entry in the Cambridge 
# Structural Database, then it will include bibliographic, chemical, 
# crystal, experimental, refinement or atomic coordinate data resulting 
# from the CCDC's data processing and validation procedures.
#
#######################################################################

data_RUQYIN
_chemical_formula_moiety         '(C74 H48 N12 O16 Zn4)n'
_symmetry_cell_setting           triclinic
_symmetry_space_group_name_H-M   'P -1'
_symmetry_Int_Tables_number      2
_space_group_name_Hall           '-P 1'
loop_
_symmetry_equiv_pos_site_id
_symmetry_equiv_pos_as_xyz
1 x,y,z
2 -x,-y,-z
_cell_length_a                   8.6527(10)
_cell_length_b                   9.7049(11)
_cell_length_c                   22.160(3)
_cell_angle_alpha                91.606(2)
_cell_angle_beta                 94.615(2)
_cell_angle_gamma                103.135(2)
_cell_volume                     1804.24
loop_
_atom_site_label
_atom_site_type_symbol
_atom_site_fract_x
_atom_site_fract_y
_atom_site_fract_z
Zn1 Zn 0.23342(5) 0.43150(4) 0.22618(2)
Zn2 Zn 0.63210(5) 0.48440(5) 0.21432(2)
O1 O -0.0183(3) 0.0387(3) 0.37956(12)
N1 N 0.8151(3) 0.5410(3) 0.39510(13)
O2 O 0.4350(3) 0.5457(3) 0.20027(13)
O3 O 0.1070(3) -0.4304(3) 0.23637(14)
N2 N 0.1540(4) 0.2789(3) 0.16078(14)
O4 O -0.2283(3) -0.4162(3) 0.15717(12)
N3 N 0.1678(4) 0.1295(3) 0.08619(14)
N4 N 0.7005(4) 0.5229(3) 0.30217(14)
O5 O -0.0063(3) -0.2885(3) 0.12782(13)
C1 C 0.1341(4) 0.0956(4) 0.40779(17)
O6 O 0.3094(3) 0.3333(3) 0.29515(13)
O7 O 0.0527(4) 0.2810(3) 0.31089(13)
N5 N 0.3919(4) -0.2838(3) -0.18354(15)
C2 C 0.1921(5) 0.2774(4) 0.32563(18)
C3 C 0.9127(4) 0.5208(4) 0.44762(17)
C4 C -0.0792(4) -0.2257(4) 0.22433(17)
C5 C 0.3224(4) 0.1027(4) 0.49550(17)
C6 C 0.8146(5) 0.4887(4) 0.33751(17)
H1 H 0.8847 0.4363 0.3249
C7 C 0.0563(5) -0.2124(4) 0.26381(18)
C8 C -0.0317(4) -0.0456(4) 0.32706(17)
N6 N 0.3711(4) -0.1167(3) -0.11754(14)
C9 C 0.2159(5) 0.2623(4) 0.10891(17)
H2 H 0.2842 0.3342 0.0908
C10 C 0.4263(4) 0.2184(4) 0.47184(17)
C11 C 0.2384(4) 0.2095(4) 0.38301(17)
C12 C 0.9747(4) 0.4017(4) 0.45159(18)
H3 H 0.9577 0.3359 0.4190
C13 C 0.3229(5) -0.2543(4) -0.13495(18)
H4 H 0.2505 -0.3204 -0.1155
C14 C -0.1044(5) -0.3160(4) 0.16568(18)
C15 C 0.6257(5) 0.6001(4) 0.33842(18)
H5 H 0.5397 0.6377 0.3253
C16 C 0.2192(4) 0.0694(4) 0.03350(17)
C17 C 0.1768(4) 0.0413(4) 0.46094(17)
H6 H 0.1090 -0.0378 0.4748
C18 C 0.0805(4) -0.1208(4) 0.31482(17)
H7 H 0.1728 -0.1101 0.3408
C19 C 0.3654(5) 0.0547(4) 0.55249(19)
H8 H 0.2983 -0.0225 0.5679
C20 C 0.3810(4) 0.2664(4) 0.41504(17)
H9 H 0.4515 0.3401 0.3988
C21 C 0.9385(5) 0.6194(4) 0.49628(18)
H10 H 0.8969 0.6995 0.4935
C22 C 0.1726(5) -0.3056(5) 0.2574(2)
C23 C 0.3199(5) -0.0509(4) -0.06568(17)
C24 C 0.6940(5) 0.6131(4) 0.39473(18)
H11 H 0.6661 0.6611 0.4275
C25 C 0.3448(6) 0.0911(5) -0.0589(2)
H12 H 0.3963 0.1482 -0.0876
C26 C 0.4778(5) -0.0558(4) -0.15740(19)
H13 H 0.5316 0.0388 -0.1569
C27 C 0.6070(5) 0.2362(5) 0.5619(2)
H14 H 0.7016 0.2812 0.5843
C28 C 0.2932(6) 0.1530(5) -0.0085(2)
H15 H 0.3097 0.2509 -0.0040
C29 C 0.5049(5) 0.1202(5) 0.5855(2)
H16 H 0.5317 0.0881 0.6232
O8 O 0.3146(4) -0.2598(4) 0.2716(2)
C30 C 0.4894(5) -0.1588(4) -0.19697(18)
H17 H 0.5541 -0.1471 -0.2289
C31 C 0.0625(5) 0.1492(4) 0.17141(19)
H18 H 0.0044 0.1281 0.2048
C32 C 0.5688(5) 0.2826(5) 0.5072(2)
H19 H 0.6383 0.3591 0.4923
C33 C 0.0693(5) 0.0561(5) 0.12584(19)
H20 H 0.0174 -0.0392 0.1220
C34 C 0.2435(6) -0.1342(5) -0.0238(2)
H21 H 0.2245 -0.2323 -0.0290
C35 C 0.1939(6) -0.0747(5) 0.0264(2)
H22 H 0.1435 -0.1324 0.0552
C36 C -0.1671(4) -0.0573(4) 0.28815(18)
H23 H -0.2417 -0.0051 0.2959
C37 C -0.1899(5) -0.1484(4) 0.23713(18)
H24 H -0.2817 -0.1579 0.2110
N1A N 1.1849(3) 0.4590(3) 0.60490(13)
N4A N 1.2995(4) 0.4771(3) 0.69783(14)
C3A C 1.0873(4) 0.4792(4) 0.55238(17)
C6A C 1.1854(5) 0.5113(4) 0.66249(17)
H1A H 1.1153 0.5637 0.6751
C12A C 1.0253(4) 0.5983(4) 0.54841(18)
H3A H 1.0423 0.6641 0.5810
C15A C 1.3743(5) 0.3999(4) 0.66158(18)
H5A H 1.4603 0.3623 0.6747
C21A C 1.0615(5) 0.3806(4) 0.50372(18)
H10A H 1.1031 0.3005 0.5065
C24A C 1.3060(5) 0.3869(4) 0.60527(18)
H11A H 1.3339 0.3389 0.5725
Zn1A Zn 0.76658(5) -0.43150(4) -0.22618(2)
Zn2A Zn 0.36790(5) -0.48440(5) -0.21432(2)
O1A O 1.0183(3) -0.0387(3) -0.37956(12)
O2A O 0.5650(3) -0.5457(3) -0.20027(13)
O3A O 0.8930(3) 0.4304(3) -0.23637(14)
N2A N 0.8460(4) -0.2789(3) -0.16078(14)
O4A O 1.2283(3) 0.4162(3) -0.15717(12)
N3A N 0.8322(4) -0.1295(3) -0.08619(14)
O5A O 1.0063(3) 0.2885(3) -0.12782(13)
C1A C 0.8659(4) -0.0956(4) -0.40779(17)
O6A O 0.6906(3) -0.3333(3) -0.29515(13)
O7A O 0.9473(4) -0.2810(3) -0.31089(13)
N5A N 0.6081(4) 0.2838(3) 0.18354(15)
C2A C 0.8079(5) -0.2774(4) -0.32563(18)
C4A C 1.0792(4) 0.2257(4) -0.22433(17)
C5A C 0.6776(4) -0.1027(4) -0.49550(17)
C7A C 0.9437(5) 0.2124(4) -0.26381(18)
C8A C 1.0317(4) 0.0456(4) -0.32706(17)
N6A N 0.6289(4) 0.1167(3) 0.11754(14)
C9A C 0.7841(5) -0.2623(4) -0.10891(17)
H2A H 0.7158 -0.3342 -0.0908
C10A C 0.5737(4) -0.2184(4) -0.47184(17)
C11A C 0.7616(4) -0.2095(4) -0.38301(17)
C13A C 0.6771(5) 0.2543(4) 0.13495(18)
H4A H 0.7495 0.3204 0.1155
C14A C 1.1044(5) 0.3160(4) -0.16568(18)
C16A C 0.7808(4) -0.0694(4) -0.03350(17)
C17A C 0.8232(4) -0.0413(4) -0.46094(17)
H6A H 0.8910 0.0378 -0.4748
C18A C 0.9195(4) 0.1208(4) -0.31482(17)
H7A H 0.8272 0.1101 -0.3408
C19A C 0.6346(5) -0.0547(4) -0.55249(19)
H8A H 0.7017 0.0225 -0.5679
C20A C 0.6190(4) -0.2664(4) -0.41504(17)
H9A H 0.5485 -0.3401 -0.3988
C22A C 0.8274(5) 0.3056(5) -0.2574(2)
C23A C 0.6801(5) 0.0509(4) 0.06568(17)
C25A C 0.6552(6) -0.0911(5) 0.0589(2)
H12A H 0.6037 -0.1482 0.0876
C26A C 0.5222(5) 0.0558(4) 0.15740(19)
H13A H 0.4684 -0.0388 0.1569
C27A C 0.3930(5) -0.2362(5) -0.5619(2)
H14A H 0.2984 -0.2812 -0.5843
C28A C 0.7068(6) -0.1530(5) 0.0085(2)
H15A H 0.6903 -0.2509 0.0040
C29A C 0.4951(5) -0.1202(5) -0.5855(2)
H16A H 0.4683 -0.0881 -0.6232
O8A O 0.6854(4) 0.2598(4) -0.2716(2)
C30A C 0.5106(5) 0.1588(4) 0.19697(18)
H17A H 0.4459 0.1471 0.2289
C31A C 0.9375(5) -0.1492(4) -0.17141(19)
H18A H 0.9956 -0.1281 -0.2048
C32A C 0.4312(5) -0.2826(5) -0.5072(2)
H19A H 0.3617 -0.3591 -0.4923
C33A C 0.9307(5) -0.0561(5) -0.12584(19)
H20A H 0.9826 0.0392 -0.1220
C34A C 0.7565(6) 0.1342(5) 0.0238(2)
H21A H 0.7755 0.2323 0.0290
C35A C 0.8061(6) 0.0747(5) -0.0264(2)
H22A H 0.8565 0.1324 -0.0552
C36A C 1.1671(4) 0.0573(4) -0.28815(18)
H23A H 1.2417 0.0051 -0.2959
C37A C 1.1899(5) 0.1484(4) -0.23713(18)
H24A H 1.2817 0.1579 -0.2110
Zn1_2 Zn 0.23342(5) -0.56850(4) 0.22618(2)
Zn1A_2 Zn 0.76658(5) 0.56850(4) -0.22618(2)
Zn2_2 Zn -0.36790(5) -0.51560(5) 0.21432(2)
Zn2A_2 Zn 1.36790(5) 0.51560(5) -0.21432(2)
Zn2A_3 Zn 1.36790(5) 0.51560(5) 0.78568(2)
O3_2 O 0.1070(3) 0.5696(3) 0.23637(14)
O3A_2 O 0.8930(3) -0.5696(3) -0.23637(14)
O4_2 O 0.7717(3) 0.5838(3) 0.15717(12)
O4A_2 O 0.2283(3) -0.5838(3) -0.15717(12)
N4A_2 N 0.2995(4) -0.5229(3) -0.30217(14)
loop_
_geom_bond_atom_site_label_1
_geom_bond_atom_site_label_2
_geom_bond_site_symmetry_1
_geom_bond_site_symmetry_2
Zn1 O2 1_555 1_555
Zn2 O2 1_555 1_555
O1 C1 1_555 1_555
N1 C3 1_555 1_555
O3 C22 1_555 1_555
N2 Zn1 1_555 1_555
O4 C14 1_555 1_555
N3 C9 1_555 1_555
N4 Zn2 1_555 1_555
O5 C14 1_555 1_555
C1 C11 1_555 1_555
O6 Zn1 1_555 1_555
O7 C2 1_555 1_555
N5 C13 1_555 1_555
C2 O6 1_555 1_555
C3 C12 1_555 1_555
C4 C7 1_555 1_555
C5 C10 1_555 1_555
C6 N1 1_555 1_555
H1 C6 1_555 1_555
C7 C18 1_555 1_555
C8 O1 1_555 1_555
N6 C13 1_555 1_555
C9 N2 1_555 1_555
H2 C9 1_555 1_555
C10 C20 1_555 1_555
C11 C2 1_555 1_555
C12 H3 1_555 1_555
C13 H4 1_555 1_555
C14 C4 1_555 1_555
C15 N4 1_555 1_555
H5 C15 1_555 1_555
C16 N3 1_555 1_555
C17 C1 1_555 1_555
H6 C17 1_555 1_555
C18 C8 1_555 1_555
H7 C18 1_555 1_555
C19 C5 1_555 1_555
H8 C19 1_555 1_555
C20 C11 1_555 1_555
H9 C20 1_555 1_555
C21 C3 1_555 1_555
H10 C21 1_555 1_555
C22 C7 1_555 1_555
C23 N6 1_555 1_555
C24 N1 1_555 1_555
H11 C24 1_555 1_555
C25 C23 1_555 1_555
H12 C25 1_555 1_555
C26 N6 1_555 1_555
H13 C26 1_555 1_555
C27 H14 1_555 1_555
C28 C16 1_555 1_555
H15 C28 1_555 1_555
C29 C19 1_555 1_555
H16 C29 1_555 1_555
O8 C22 1_555 1_555
C30 N5 1_555 1_555
H17 C30 1_555 1_555
C31 N2 1_555 1_555
H18 C31 1_555 1_555
C32 C10 1_555 1_555
H19 C32 1_555 1_555
C33 N3 1_555 1_555
H20 C33 1_555 1_555
C34 C23 1_555 1_555
H21 C34 1_555 1_555
C35 C16 1_555 1_555
H22 C35 1_555 1_555
C36 C8 1_555 1_555
H23 C36 1_555 1_555
C37 C4 1_555 1_555
H24 C37 1_555 1_555
N1A C3A 1_555 1_555
N4A C6A 1_555 1_555
C3A C12A 1_555 1_555
C6A N1A 1_555 1_555
H1A C6A 1_555 1_555
C12A C21 1_555 1_555
H3A C12A 1_555 1_555
C15A N4A 1_555 1_555
H5A C15A 1_555 1_555
C21A C12 1_555 1_555
H10A C21A 1_555 1_555
C24A N1A 1_555 1_555
H11A C24A 1_555 1_555
Zn1A O2A 1_555 1_555
Zn2A N5 1_555 1_555
O1A C1A 1_555 1_555
O2A Zn2A 1_555 1_555
O3A C22A 1_555 1_555
N2A Zn1A 1_555 1_555
O4A C14A 1_555 1_555
N3A C9A 1_555 1_555
O5A C14A 1_555 1_555
C1A C11A 1_555 1_555
O6A Zn1A 1_555 1_555
O7A C2A 1_555 1_555
N5A Zn2 1_555 1_555
C2A O6A 1_555 1_555
C4A C7A 1_555 1_555
C5A C10A 1_555 1_555
C7A C18A 1_555 1_555
C8A O1A 1_555 1_555
N6A C13A 1_555 1_555
C9A N2A 1_555 1_555
H2A C9A 1_555 1_555
C10A C20A 1_555 1_555
C11A C2A 1_555 1_555
C13A N5A 1_555 1_555
H4A C13A 1_555 1_555
C14A C4A 1_555 1_555
C16A N3A 1_555 1_555
C17A C1A 1_555 1_555
H6A C17A 1_555 1_555
C18A C8A 1_555 1_555
H7A C18A 1_555 1_555
C19A C5A 1_555 1_555
H8A C19A 1_555 1_555
C20A C11A 1_555 1_555
H9A C20A 1_555 1_555
C22A C7A 1_555 1_555
C23A N6A 1_555 1_555
C25A C23A 1_555 1_555
H12A C25A 1_555 1_555
C26A N6A 1_555 1_555
H13A C26A 1_555 1_555
C27A H14A 1_555 1_555
C28A C16A 1_555 1_555
H15A C28A 1_555 1_555
C29A C19A 1_555 1_555
H16A C29A 1_555 1_555
O8A C22A 1_555 1_555
C30A N5A 1_555 1_555
H17A C30A 1_555 1_555
C31A N2A 1_555 1_555
H18A C31A 1_555 1_555
C32A C10A 1_555 1_555
H19A C32A 1_555 1_555
C33A N3A 1_555 1_555
H20A C33A 1_555 1_555
C34A C23A 1_555 1_555
H21A C34A 1_555 1_555
C35A C16A 1_555 1_555
H22A C35A 1_555 1_555
C36A C8A 1_555 1_555
H23A C36A 1_555 1_555
C37A C4A 1_555 1_555
H24A C37A 1_555 1_555
Zn1_2 O3 1_555 1_555
Zn1A_2 O3A 1_555 1_555
Zn2_2 O4 1_555 1_555
Zn2A_2 O4A 1_555 1_555
Zn2A_3 N4A 1_555 1_555
O3_2 Zn1 1_555 1_555
O3A_2 Zn1A 1_555 1_555
O4_2 Zn2 1_555 1_555
O4A_2 Zn2A 1_555 1_555
N4A_2 Zn2A 1_555 1_555
N4 C6 1_555 1_555
C5 C17 1_555 1_555
C15 C24 1_555 1_555
C25 C28 1_555 1_555
C26 C30 1_555 1_555
C27 C29 1_555 1_555
C27 C32 1_555 1_555
C31 C33 1_555 1_555
C34 C35 1_555 1_555
C36 C37 1_555 1_555
C3A C21A 1_555 1_555
C15A C24A 1_555 1_555
C5A C17A 1_555 1_555
C25A C28A 1_555 1_555
C26A C30A 1_555 1_555
C27A C29A 1_555 1_555
C27A C32A 1_555 1_555
C31A C33A 1_555 1_555
C34A C35A 1_555 1_555
C36A C37A 1_555 1_555

#END
