
#######################################################################
#
#                 Cambridge Crystallographic Data Centre
#                                CCDC 
#
#######################################################################
#
# If this CIF has been generated from an entry in the Cambridge 
# Structural Database, then it will include bibliographic, chemical, 
# crystal, experimental, refinement or atomic coordinate data resulting 
# from the CCDC's data processing and validation procedures.
#
#######################################################################

data_CASTEW
_chemical_formula_moiety         '(C26 H14 In3 N1 O18)n'
_symmetry_cell_setting           monoclinic
_symmetry_space_group_name_H-M   'P 21/c'
_symmetry_Int_Tables_number      14
_space_group_name_Hall           '-P 2ybc'
loop_
_symmetry_equiv_pos_site_id
_symmetry_equiv_pos_as_xyz
1 x,y,z
2 -x,1/2+y,1/2-z
3 -x,-y,-z
4 x,1/2-y,1/2+z
_cell_length_a                   7.203(6)
_cell_length_b                   13.43(3)
_cell_length_c                   17.54(3)
_cell_angle_alpha                90.00
_cell_angle_beta                 100.76(11)
_cell_angle_gamma                90.00
_cell_volume                     1666.92
loop_
_atom_site_label
_atom_site_type_symbol
_atom_site_fract_x
_atom_site_fract_y
_atom_site_fract_z
N1 N 0.776(3) 0.0843(17) 0.1122(14)
C11 C 0.934(4) 0.047(2) 0.1744(17)
H3 H 0.8970 0.0219 0.2200
C12 C 1.126(3) 0.0448(16) 0.1732(13)
H4 H 1.2025 0.0126 0.2162
C13 C 1.213(5) 0.079(2) 0.1242(19)
C14 C 1.085(3) 0.1246(16) 0.0599(13)
H5 H 1.1239 0.1562 0.0169
C15 C 0.898(4) 0.1157(19) 0.0701(16)
H6 H 0.8243 0.1469 0.0260
C16 C 1.406(3) 0.0839(18) 0.1189(14)
H7 H 1.4785 0.0391 0.1574
H8 H 1.4509 0.1523 0.1289
H9 H 1.4210 0.0637 0.0668
In1 In 0.46828(6) 0.39817(3) -0.05182(2)
In2 In 1.0000 0.5000 0.0000
O1 O 0.5771(6) 0.3385(3) 0.0631(2)
O2 O 0.6807(6) 0.4814(3) 0.1243(2)
O3 O 0.9869(6) 0.3786(3) 0.0737(2)
O4 O 1.2566(6) 0.3897(4) 0.1622(3)
O5 O 1.2328(6) 0.1987(3) 0.4156(3)
O6 O 0.9775(6) 0.0982(3) 0.4014(3)
O7 O 0.6660(7) 0.2239(4) 0.4241(3)
O8 O 0.5341(7) 0.1280(4) 0.3279(3)
O9 O 0.6906(6) 0.5128(3) -0.0290(2)
C1 C 0.7813(9) 0.3308(5) 0.1848(3)
C2 C 0.9773(9) 0.3252(5) 0.1998(4)
C3 C 1.0707(9) 0.2781(5) 0.2674(4)
H1 H 1.2048 0.2756 0.2787
C4 C 0.9672(9) 0.2352(4) 0.3180(3)
C5 C 0.7693(9) 0.2404(5) 0.3025(4)
C6 C 0.6777(9) 0.2885(5) 0.2364(4)
H2 H 0.5437 0.2928 0.2260
C7 C 0.6732(8) 0.3888(4) 0.1176(4)
C8 C 1.0860(9) 0.3685(5) 0.1420(4)
C9 C 1.0648(9) 0.1729(5) 0.3842(4)
C10 C 0.6519(9) 0.1958(5) 0.3546(4)
In1B In 1.53172(6) 0.60183(3) 0.05182(2)
In1B_2 In 0.53172(6) 0.60183(3) 0.05182(2)
In1C In 1.46828(6) 0.10183(3) 0.44818(2)
In1C_2 In 0.46828(6) 0.10183(3) 0.44818(2)
In1_2 In 1.46828(6) 0.39817(3) -0.05182(2)
In1A In 0.53172(6) 0.89817(3) -0.44818(2)
In1A_2 In 1.53172(6) 0.89817(3) -0.44818(2)
In2C In 1.0000 0.0000 0.5000
In2C_2 In 1.0000 1.0000 -0.5000
O1B O 1.4229(6) 0.6615(3) -0.0631(2)
O2B O 1.3193(6) 0.5186(3) -0.1243(2)
O2B_2 O 0.3193(6) 0.5186(3) -0.1243(2)
O2_2 O 1.6807(6) 0.4814(3) 0.1243(2)
O3B O 1.0131(6) 0.6214(3) -0.0737(2)
O4B O 0.7434(6) 0.6103(4) -0.1622(3)
O5B O 0.7672(6) 0.8013(3) -0.4156(3)
O5C O 0.2328(6) 0.3013(3) -0.0844(3)
O5A O 1.7672(6) 0.6987(3) 0.0844(3)
O6B O 1.0225(6) 0.9018(3) -0.4014(3)
O6C O 0.9775(6) 0.4018(3) -0.0986(3)
O6A O 1.0225(6) 0.5982(3) 0.0986(3)
O7B O 1.3340(7) 0.7761(4) -0.4241(3)
O7C O 0.6660(7) 0.2761(4) -0.0759(3)
O7A O 1.3340(7) 0.7239(4) 0.0759(3)
O8B O 1.4659(7) 0.8720(4) -0.3279(3)
O8C O 0.5341(7) 0.3720(4) -0.1721(3)
O8A O 1.4659(7) 0.6280(4) 0.1721(3)
O9B O 1.3094(6) 0.4872(3) 0.0290(2)
O9B_2 O 0.3094(6) 0.4872(3) 0.0290(2)
O9_2 O 1.6906(6) 0.5128(3) -0.0290(2)
C1B C 1.2187(9) 0.6692(5) -0.1848(3)
C2B C 1.0227(9) 0.6748(5) -0.1998(4)
C3B C 0.9293(9) 0.7219(5) -0.2674(4)
H1B H 0.7952 0.7244 -0.2787
C4B C 1.0328(9) 0.7648(4) -0.3180(3)
C5B C 1.2307(9) 0.7596(5) -0.3025(4)
C6B C 1.3223(9) 0.7115(5) -0.2364(4)
H2B H 1.4563 0.7072 -0.2260
C7B C 1.3268(8) 0.6112(4) -0.1176(4)
C8B C 0.9140(9) 0.6315(5) -0.1420(4)
C9B C 0.9352(9) 0.8271(5) -0.3842(4)
C10B C 1.3481(9) 0.8042(5) -0.3546(4)
loop_
_geom_bond_atom_site_label_1
_geom_bond_atom_site_label_2
_geom_bond_site_symmetry_1
_geom_bond_site_symmetry_2
In1 O1 1_555 1_555
In2 O3 1_555 1_555
O1 C7 1_555 1_555
O2 C7 1_555 1_555
O3 C8 1_555 1_555
O4 C8 1_555 1_555
O5 C9 1_555 1_555
O6 C9 1_555 1_555
O7 C10 1_555 1_555
O8 C10 1_555 1_555
O9 In1 1_555 1_555
N1 C11 1_555 1_555
C1 C2 1_555 1_555
C2 C3 1_555 1_555
C3 H1 1_555 1_555
C4 C3 1_555 1_555
C5 C4 1_555 1_555
C6 C1 1_555 1_555
H2 C6 1_555 1_555
C7 C1 1_555 1_555
C8 C2 1_555 1_555
C9 C4 1_555 1_555
C10 C5 1_555 1_555
C11 H3 1_555 1_555
C12 C11 1_555 1_555
H4 C12 1_555 1_555
C13 C12 1_555 1_555
C14 C13 1_555 1_555
H5 C14 1_555 1_555
C15 N1 1_555 1_555
H6 C15 1_555 1_555
C16 C13 1_555 1_555
H7 C16 1_555 1_555
H8 C16 1_555 1_555
H9 C16 1_555 1_555
In1B O1B 1_555 1_555
In1B_2 O2 1_555 1_555
In1C O5 1_555 1_555
In1C_2 O7 1_555 1_555
In1_2 O2B 1_555 1_555
In1A O5B 1_555 1_555
In1A_2 O7B 1_555 1_555
In2C O6 1_555 1_555
In2C_2 O6B 1_555 1_555
O1B C7B 1_555 1_555
O2B C7B 1_555 1_555
O2B_2 In1 1_555 1_555
O2_2 In1B 1_555 1_555
O3B In2 1_555 1_555
O4B C8B 1_555 1_555
O5B C9B 1_555 1_555
O5C In1 1_555 1_555
O5A In1B 1_555 1_555
O6B C9B 1_555 1_555
O6C In2 1_555 1_555
O6A In2 1_555 1_555
O7B C10B 1_555 1_555
O7C In1 1_555 1_555
O7A In1B 1_555 1_555
O8B In1A_2 1_555 1_555
O8C In1 1_555 1_555
O8A In1B 1_555 1_555
O9B In2 1_555 1_555
O9B_2 In1 1_555 1_555
O9_2 In1B 1_555 1_555
C1B C2B 1_555 1_555
C2B C3B 1_555 1_555
C3B H1B 1_555 1_555
C4B C3B 1_555 1_555
C5B C4B 1_555 1_555
C6B C1B 1_555 1_555
H2B C6B 1_555 1_555
C7B C1B 1_555 1_555
C8B O3B 1_555 1_555
C9B C4B 1_555 1_555
C10B O8B 1_555 1_555
In2 O9 1_555 1_555
O8 In1C_2 1_555 1_555
O9 In1B_2 1_555 1_555
C5 C6 1_555 1_555
C14 C15 1_555 1_555
In1B O9B 1_555 1_555
In1B_2 O9B_2 1_555 1_555
In1_2 O9B 1_555 1_555
In1_2 O9_2 1_555 1_555
C2B C8B 1_555 1_555
C5B C6B 1_555 1_555
C5B C10B 1_555 1_555

#END
