
#######################################################################
#
#                 Cambridge Crystallographic Data Centre
#                                CCDC 
#
#######################################################################
#
# If this CIF has been generated from an entry in the Cambridge 
# Structural Database, then it will include bibliographic, chemical, 
# crystal, experimental, refinement or atomic coordinate data resulting 
# from the CCDC's data processing and validation procedures.
#
#######################################################################

data_ETICIV
_chemical_formula_moiety         '(C30 H31 Cd1 N8 O9)n'
_symmetry_cell_setting           monoclinic
_symmetry_space_group_name_H-M   'C 2/c'
_symmetry_Int_Tables_number      15
_space_group_name_Hall           '-C 2yc'
loop_
_symmetry_equiv_pos_site_id
_symmetry_equiv_pos_as_xyz
1 x,y,z
2 -x,y,1/2-z
3 1/2+x,1/2+y,z
4 1/2-x,1/2+y,1/2-z
5 -x,-y,-z
6 x,-y,1/2+z
7 1/2-x,1/2-y,-z
8 1/2+x,1/2-y,1/2+z
_cell_length_a                   14.475(4)
_cell_length_b                   16.613(4)
_cell_length_c                   24.839(6)
_cell_angle_alpha                90
_cell_angle_beta                 95.062(7)
_cell_angle_gamma                90
_cell_volume                     5949.82
loop_
_atom_site_label
_atom_site_type_symbol
_atom_site_fract_x
_atom_site_fract_y
_atom_site_fract_z
O5 O 0.0682(6) 0.2366(6) 0.1929(3)
O6 O 0.1447(2) 0.27978(17) 0.10321(12)
O7 O 0.1403(6) 0.1868(3) 0.2872(3)
C28 C 0.5000 -0.0778(17) 0.2500
N8 N 0.5000 0.0316(4) 0.2500
C29 C 0.4195(7) 0.0665(9) 0.2595(3)
H20 H 0.3742 0.0258 0.2648
H21 H 0.4285 0.0994 0.2913
H22 H 0.3981 0.0994 0.2291
O8 O 0.5684(10) -0.0671(12) 0.2337(5)
C29A C 0.5805(7) 0.0665(9) 0.2405(3)
H20A H 0.6258 0.0258 0.2352
H21A H 0.5715 0.0994 0.2087
H22A H 0.6019 0.0994 0.2709
O8A O 0.4316(10) -0.0671(12) 0.2663(5)
Cd1 Cd 0.37597(2) 0.26026(2) 0.48663(2)
N1 N 0.1421(3) -0.21368(19) 0.23975(13)
C1 C 0.0916(3) -0.17458(19) 0.20068(13)
H1 H 0.0609 -0.2043 0.1729
C2 C 0.08297(19) -0.09198(17) 0.19959(11)
C3 C 0.12695(18) -0.04788(18) 0.24222(11)
H2 H 0.1223 0.0079 0.2427
C4 C 0.1781(2) -0.08837(18) 0.28427(11)
C5 C 0.1819(3) -0.1711(2) 0.28056(13)
H3 H 0.2147 -0.1990 0.3086
N2 N -0.01534(17) -0.08483(14) 0.11213(9)
H4 H -0.0214 -0.1359 0.1073
N3 N 0.02711(18) 0.03127(15) 0.15274(10)
N4 N -0.09491(17) 0.11883(15) 0.02997(10)
C6 C 0.03143(19) -0.04771(17) 0.15551(11)
C7 C -0.0235(2) 0.04635(18) 0.10403(11)
C8 C -0.05020(19) -0.02649(17) 0.07832(11)
C9 C -0.1020(2) -0.02628(19) 0.02847(12)
H5 H -0.1220 -0.0737 0.0113
C10 C -0.1221(2) 0.04829(19) 0.00600(12)
H6 H -0.1562 0.0503 -0.0275
C11 C -0.0475(2) 0.11831(18) 0.07777(12)
H7 H -0.0297 0.1669 0.0942
N5 N 0.27379(18) -0.07511(15) 0.37251(9)
H8 H 0.2849 -0.1254 0.3783
N6 N 0.21791(17) 0.03750(15) 0.33135(10)
N7 N 0.33654(18) 0.13596(15) 0.45082(9)
C12 C 0.2236(2) -0.04302(17) 0.32893(11)
C13 C 0.2685(2) 0.05706(18) 0.37927(11)
C14 C 0.3032(2) -0.01278(17) 0.40526(11)
C15 C 0.3550(2) -0.00836(19) 0.45531(12)
H9 H 0.3783 -0.0540 0.4735
C16 C 0.3693(2) 0.0681(2) 0.47607(12)
H10 H 0.4035 0.0734 0.5094
C17 C 0.2882(2) 0.13136(18) 0.40306(12)
H11 H 0.2673 0.1782 0.3854
O1 O -0.00411(19) 0.76540(13) 0.42801(11)
O2 O 0.04123(19) 0.70653(19) 0.50337(10)
O3 O 0.1385(2) 0.29037(18) 0.43099(10)
O4 O 0.28585(19) 0.32604(16) 0.42198(11)
C18 C 0.0565(2) 0.72790(18) 0.45699(14)
C19 C 0.1452(3) 0.7076(2) 0.4348(2)
H12 H 0.1953 0.7138 0.4631
H13 H 0.1558 0.7455 0.4062
C20 C 0.1478(2) 0.62245(19) 0.41228(14)
C21 C 0.0703(2) 0.5750(2) 0.40415(14)
H14 H 0.0128 0.5961 0.4107
C22 C 0.0759(2) 0.4955(2) 0.38614(13)
H15 H 0.0225 0.4642 0.3815
C23 C 0.1601(2) 0.46295(18) 0.37513(11)
C24 C 0.2372(2) 0.5124(2) 0.38091(15)
H16 H 0.2940 0.4923 0.3724
C25 C 0.2320(2) 0.5908(2) 0.39901(16)
H17 H 0.2850 0.6227 0.4023
C26 C 0.1684(2) 0.37610(19) 0.35926(12)
H18 H 0.2128 0.3711 0.3324
H19 H 0.1089 0.3566 0.3435
C27 C 0.1998(2) 0.32646(18) 0.40816(12)
Cd1B Cd -0.12403(2) 0.76026(2) 0.48663(2)
Cd1F Cd 0.12403(2) 0.23974(2) 0.51337(2)
Cd1G Cd -0.12403(2) 0.23974(2) -0.01337(2)
N4G N 0.40509(17) 0.38117(15) 0.52997(10)
O1B O 0.49589(19) 0.26540(13) 0.42801(11)
O2B O 0.54123(19) 0.20653(19) 0.50337(10)
O3F O 0.3615(2) 0.20963(18) 0.56901(10)
loop_
_geom_bond_atom_site_label_1
_geom_bond_atom_site_label_2
_geom_bond_site_symmetry_1
_geom_bond_site_symmetry_2
Cd1 N7 1_555 1_555
N1 C1 1_555 1_555
C1 H1 1_555 1_555
C2 C1 1_555 1_555
C3 C2 1_555 1_555
H2 C3 1_555 1_555
C4 C3 1_555 1_555
C5 N1 1_555 1_555
H3 C5 1_555 1_555
N2 H4 1_555 1_555
N3 C6 1_555 1_555
N4 C10 1_555 1_555
C6 C2 1_555 1_555
C7 N3 1_555 1_555
C8 N2 1_555 1_555
C9 C8 1_555 1_555
H5 C9 1_555 1_555
C10 C9 1_555 1_555
H6 C10 1_555 1_555
C11 N4 1_555 1_555
H7 C11 1_555 1_555
N5 H8 1_555 1_555
N6 C12 1_555 1_555
N7 C16 1_555 1_555
C12 C4 1_555 1_555
C13 N6 1_555 1_555
C14 N5 1_555 1_555
C15 C14 1_555 1_555
H9 C15 1_555 1_555
C16 C15 1_555 1_555
H10 C16 1_555 1_555
C17 N7 1_555 1_555
H11 C17 1_555 1_555
O1 C18 1_555 1_555
O2 C18 1_555 1_555
O3 C27 1_555 1_555
O4 Cd1 1_555 1_555
C18 C19 1_555 1_555
C19 H12 1_555 1_555
H13 C19 1_555 1_555
C20 C19 1_555 1_555
C21 C20 1_555 1_555
H14 C21 1_555 1_555
C22 C21 1_555 1_555
H15 C22 1_555 1_555
C23 C22 1_555 1_555
C24 C23 1_555 1_555
H16 C24 1_555 1_555
C25 C20 1_555 1_555
H17 C25 1_555 1_555
C26 C23 1_555 1_555
H18 C26 1_555 1_555
H19 C26 1_555 1_555
C27 O4 1_555 1_555
C28 N8 1_555 1_555
N8 C29 1_555 1_555
C29 H20 1_555 1_555
H21 C29 1_555 1_555
H22 C29 1_555 1_555
O8 C28 1_555 1_555
Cd1B O1 1_555 1_555
Cd1F O3 1_555 1_555
Cd1G N4 1_555 1_555
N4G Cd1 1_555 1_555
O1B Cd1 1_555 1_555
O2B Cd1 1_555 1_555
O3F Cd1 1_555 1_555
C29A N8 1_555 1_555
H20A C29A 1_555 1_555
H21A C29A 1_555 1_555
H22A C29A 1_555 1_555
O8A C28 1_555 1_555
C4 C5 1_555 1_555
N2 C6 1_555 1_555
C7 C8 1_555 1_555
C7 C11 1_555 1_555
N5 C12 1_555 1_555
C13 C14 1_555 1_555
C13 C17 1_555 1_555
O2 Cd1B 1_555 1_555
C24 C25 1_555 1_555
C26 C27 1_555 1_555

#END
