
#######################################################################
#
#                 Cambridge Crystallographic Data Centre
#                                CCDC 
#
#######################################################################
#
# If this CIF has been generated from an entry in the Cambridge 
# Structural Database, then it will include bibliographic, chemical, 
# crystal, experimental, refinement or atomic coordinate data resulting 
# from the CCDC's data processing and validation procedures.
#
#######################################################################

data_DONNEA
_chemical_formula_moiety         '(C13 H10 Ga1 N1 O5)n'
_symmetry_cell_setting           monoclinic
_symmetry_space_group_name_H-M   'C 2/c'
_symmetry_Int_Tables_number      15
_space_group_name_Hall           '-C 2yc'
loop_
_symmetry_equiv_pos_site_id
_symmetry_equiv_pos_as_xyz
1 x,y,z
2 1/2+x,1/2+y,z
3 1/2-x,1/2+y,1/2-z
4 -x,y,1/2-z
5 -x,-y,-z
6 1/2-x,1/2-y,-z
7 1/2+x,1/2-y,1/2+z
8 x,-y,1/2+z
_cell_length_a                   19.1213(16)
_cell_length_b                   11.0629(9)
_cell_length_c                   6.7261(6)
_cell_angle_alpha                90
_cell_angle_beta                 108.512(1)
_cell_angle_gamma                90
_cell_volume                     1349.2
loop_
_atom_site_label
_atom_site_type_symbol
_atom_site_fract_x
_atom_site_fract_y
_atom_site_fract_z
_atom_site_U_iso_or_equiv
_atom_site_thermal_displace_type
Ga1 Ga 1.0000 1.0000 0.0000 0.0149 Uani
O1 O 1.0877(1) 0.9010(2) 0.1548(2) 0.0258 Uani
O2 O 1.0000 1.0785(2) 0.2500 0.0186 Uani
O3 O 1.0713(1) 0.8754(2) 0.4682(2) 0.0247 Uani
C1 C 1.1075(1) 0.8657(2) 0.3426(3) 0.0208 Uani
C2 C 1.1813(1) 0.8053(2) 0.4228(4) 0.0243 Uani
C3 C 1.2074(1) 0.7658(3) 0.6292(4) 0.0398 Uani
H1 H 1.1790 0.7766 0.7172 0.0480 Uiso
C4 C 1.2245(2) 0.7893(3) 0.2959(4) 0.0401 Uani
H2 H 1.2076 0.8160 0.1577 0.0480 Uiso
H6 H 1.0000 1.1516(10) 0.2500 0.0760 Uiso
Ga1C Ga 1.0000 1.0000 0.5000 0.0149 Uani
Ga1A Ga 1.5000 0.5000 1.0000 0.0149 Uani
Ga1B Ga 1.5000 0.5000 0.5000 0.0149 Uani
O1E O 1.4123(1) 0.5990(2) 0.8452(2) 0.0258 Uani
O1D O 0.9123(1) 1.0990(2) -0.1548(2) 0.0258 Uani
O2D O 1.0000 0.9215(2) -0.2500 0.0186 Uani
O3E O 1.4287(1) 0.6246(2) 0.5318(2) 0.0247 Uani
O3C O 0.9287(1) 0.8754(2) 0.0318(2) 0.0247 Uani
O3G O 1.0713(1) 1.1246(2) -0.0318(2) 0.0247 Uani
C1E C 1.3925(1) 0.6343(2) 0.6574(3) 0.0208 Uani
C2E C 1.3187(1) 0.6947(2) 0.5772(4) 0.0243 Uani
C3E C 1.2926(1) 0.7342(3) 0.3708(4) 0.0398 Uani
H1E H 1.3210 0.7234 0.2828 0.0480 Uiso
C4E C 1.2755(2) 0.7107(3) 0.7041(4) 0.0401 Uani
H2E H 1.2924 0.6840 0.8423 0.0480 Uiso
H6D H 1.0000 0.8484(10) -0.2500 0.0760 Uiso
N1 N 1.0000 0.3265(5) 0.2500 0.0998 Uani
C5 C 0.9414(5) 0.3883(7) 0.1417(14) 0.1372 Uani
H3 H 0.8990 0.3459 0.0693 0.1650 Uiso
C6 C 0.9398(7) 0.5092(9) 0.130(3) 0.2497 Uani
H4 H 0.8991 0.5503 0.0439 0.2990 Uiso
C7 C 1.0000 0.5687(12) 0.2500 0.2775 Uani
H5 H 1.0000 0.6528 0.2500 0.3320 Uiso
C5C C 1.0586(5) 0.3883(7) 0.3583(14) 0.1372 Uani
H3C H 1.1010 0.3459 0.4307 0.1650 Uiso
C6C C 1.0602(7) 0.5092(9) 0.370(3) 0.2497 Uani
H4C H 1.1009 0.5503 0.4561 0.2990 Uiso
loop_
_atom_site_aniso_label
_atom_site_aniso_U_11
_atom_site_aniso_U_22
_atom_site_aniso_U_33
_atom_site_aniso_U_23
_atom_site_aniso_U_13
_atom_site_aniso_U_12
Ga1 0.01226(18) 0.01991(19) 0.01138(19) 0.00044(16) 0.00223(12) 0.00012(17)
O1 0.022 0.0394 0.0145 0.0045 0.0035 0.0137
O2 0.0224(12) 0.0189(14) 0.0152(12) 0.00000 0.0069(9) 0.00000
O3 0.0235 0.03 0.0222 0.0064 0.0095 0.0118
C1 0.0192 0.0222 0.0189 -0.0012 0.0031 0.0032
C2 0.0205 0.0324 0.0184 0.0037 0.004 0.0091
C3 0.0316 0.069 0.0228 0.0115 0.0145 0.0252
C4 0.0327 0.069 0.0184 0.0161 0.008 0.0232
Ga1C 0.01226 0.01991 0.01138 -0.00044 0.00223 -0.00012
Ga1A 0.01226 0.01991 0.01138 0.00044 0.00223 0.00012
Ga1B 0.01226 0.01991 0.01138 -0.00044 0.00223 -0.00012
O1E 0.022 0.0394 0.0145 0.0045 0.0035 0.0137
O1D 0.022 0.0394 0.0145 0.0045 0.0035 0.0137
O2D 0.0224 0.0189 0.0152 0 0.0069 0
O3E 0.0235 0.03 0.0222 0.0064 0.0095 0.0118
O3C 0.0235(9) 0.0300(9) 0.0222(9) -0.0064(7) 0.0095(7) -0.0118(7)
O3G 0.0235 0.03 0.0222 -0.0064 0.0095 -0.0118
C1E 0.0192 0.0222 0.0189 -0.0012 0.0031 0.0032
C2E 0.0205 0.0324 0.0184 0.0037 0.004 0.0091
C3E 0.0316 0.069 0.0228 0.0115 0.0145 0.0252
C4E 0.0327 0.069 0.0184 0.0161 0.008 0.0232
N1 0.159(8) 0.028(4) 0.113(6) 0.00000 0.044(6) 0.00000
C5 0.132(7) 0.077(5) 0.179(9) 0.002(5) 0.016(6) -0.020(5)
C6 0.175(12) 0.073(6) 0.41(2) 0.039(9) -0.036(13) 0.028(7)
C7 0.25(2) 0.047(9) 0.45(4) 0.00000 -0.01(2) 0.00000
C5C 0.132 0.077 0.179 -0.002 0.016 0.02
C6C 0.175 0.073 0.41 -0.039 -0.036 -0.028
loop_
_geom_bond_atom_site_label_1
_geom_bond_atom_site_label_2
_geom_bond_site_symmetry_1
_geom_bond_site_symmetry_2
Ga1 O1 1_555 1_555
O1 C1 1_555 1_555
O2 Ga1 1_555 1_555
O3 C1 1_555 1_555
C1 C2 1_555 1_555
C2 C3 1_555 1_555
C3 H1 1_555 1_555
C4 C2 1_555 1_555
H2 C4 1_555 1_555
N1 C5 1_555 1_555
C5 H3 1_555 1_555
C6 C5 1_555 1_555
H4 C6 1_555 1_555
C7 C6 1_555 1_555
H5 C7 1_555 1_555
H6 O2 1_555 1_555
Ga1C O2 1_555 1_555
Ga1A O1E 1_555 1_555
Ga1B O3E 1_555 1_555
O1E C1E 1_555 1_555
O1D Ga1 1_555 1_555
O2D Ga1 1_555 1_555
O3E C1E 1_555 1_555
O3C Ga1 1_555 1_555
O3G Ga1 1_555 1_555
C1E C2E 1_555 1_555
C2E C3E 1_555 1_555
C3E C4 1_555 1_555
H1E C3E 1_555 1_555
C4E C3 1_555 1_555
H2E C4E 1_555 1_555
C5C N1 1_555 1_555
H3C C5C 1_555 1_555
C6C C7 1_555 1_555
H4C C6C 1_555 1_555
H6D O2D 1_555 1_555
O3 Ga1C 1_555 1_555
C2E C4E 1_555 1_555
C5C C6C 1_555 1_555

#END
