
#######################################################################
#
#                 Cambridge Crystallographic Data Centre
#                                CCDC 
#
#######################################################################
#
# If this CIF has been generated from an entry in the Cambridge 
# Structural Database, then it will include bibliographic, chemical, 
# crystal, experimental, refinement or atomic coordinate data resulting 
# from the CCDC's data processing and validation procedures.
#
#######################################################################

data_DONNAW
_chemical_formula_moiety         '(C8 H5 Ga1 O5)n'
_symmetry_cell_setting           orthorhombic
_symmetry_space_group_name_H-M   'P n m a'
_symmetry_Int_Tables_number      62
_space_group_name_Hall           '-P 2ac 2n'
loop_
_symmetry_equiv_pos_site_id
_symmetry_equiv_pos_as_xyz
1 x,y,z
2 1/2-x,-y,1/2+z
3 1/2+x,1/2-y,1/2-z
4 -x,1/2+y,-z
5 -x,-y,-z
6 1/2+x,y,1/2-z
7 1/2-x,1/2+y,1/2+z
8 x,1/2-y,z
_cell_length_a                   17.525(4)
_cell_length_b                   6.7216(16)
_cell_length_c                   11.893(3)
_cell_angle_alpha                90
_cell_angle_beta                 90
_cell_angle_gamma                90
_cell_volume                     1400.95
loop_
_atom_site_label
_atom_site_type_symbol
_atom_site_fract_x
_atom_site_fract_y
_atom_site_fract_z
_atom_site_U_iso_or_equiv
_atom_site_thermal_displace_type
Ga1 Ga 0.5000 0.5000 1.0000 0.0149 Uani
O1 O 0.49394(16) 0.2500 1.0732(3) 0.0160 Uani
O2 O 0.42665(13) 0.4177(3) 0.8834(2) 0.0249 Uani
O3 O 0.08859(13) 0.4179(3) 0.5904(2) 0.0254 Uani
C1 C 0.4000(2) 0.2500 0.8573(4) 0.0189 Uani
C2 C 0.3279(3) 0.2500 0.7893(5) 0.0223 Uani
C3 C 0.2940(2) 0.4290(5) 0.7599(4) 0.0368 Uani
H1 H 0.3172 0.5487 0.7793 0.0440 Uiso
C4 C 0.2258(2) 0.4289(5) 0.7019(4) 0.0369 Uani
H2 H 0.2028 0.5486 0.6821 0.0440 Uiso
C5 C 0.1915(3) 0.2500 0.6731(5) 0.0245 Uani
C6 C 0.1165(2) 0.2500 0.6133(4) 0.0191 Uani
Ga1C Ga 0.5000 0.0000 1.0000 0.0149 Uani
Ga1A Ga -0.0000 0.5000 0.5000 0.0149 Uani
Ga1B Ga 0.0000 0.0000 0.5000 0.0149 Uani
O1C O 0.50606(16) 0.7500 0.9268(3) 0.0160 Uani
O2G O 0.42665(13) 0.0823(3) 0.8834(2) 0.0249 Uani
O2D O 0.57335(13) 0.5823(3) 1.1166(2) 0.0249 Uani
O3G O 0.08859(13) 0.0821(3) 0.5904(2) 0.0254 Uani
O3A O 0.41141(13) 0.5821(3) 1.0904(2) 0.0254 Uani
O3E O 0.58859(13) 0.4179(3) 0.9096(2) 0.0254 Uani
C3G C 0.2940(2) 0.0710(5) 0.7599(4) 0.0368 Uani
H1G H 0.3172 -0.0487 0.7793 0.0440 Uiso
C4G C 0.2258(2) 0.0711(5) 0.7019(4) 0.0369 Uani
H2G H 0.2028 -0.0486 0.6821 0.0440 Uiso
loop_
_atom_site_aniso_label
_atom_site_aniso_U_11
_atom_site_aniso_U_22
_atom_site_aniso_U_33
_atom_site_aniso_U_23
_atom_site_aniso_U_13
_atom_site_aniso_U_12
Ga1 0.0062(3) 0.0055(3) 0.0330(5) -0.00048(18) 0.00019(16) 0.00035(14)
O1 0.0131(14) 0.0034(14) 0.0314(19) 0.000 0.0017(12) 0.000
O2 0.0196(11) 0.0102(11) 0.0448(15) 0.0013(10) -0.0129(10) -0.0052(9)
O3 0.0163 0.01 0.05 -0.0018 -0.0121 0.0048
C1 0.0125(19) 0.0081(19) 0.036(3) 0.000 -0.0036(18) 0.000
C2 0.014(2) 0.009(2) 0.044(3) 0.000 -0.0111(19) 0.000
C3 0.0250(18) 0.0075(15) 0.078(3) -0.0005(17) -0.0251(19) -0.0013(13)
C4 0.0253(17) 0.0075(15) 0.078(3) -0.0006(17) -0.0258(19) 0.0017(13)
C5 0.0116(19) 0.008(2) 0.054(3) 0.000 -0.009(2) 0.000
C6 0.0109(18) 0.0095(19) 0.037(3) 0.000 -0.0037(18) 0.000
Ga1C 0.0062 0.0055 0.033 0.00048 0.00019 -0.00035
Ga1A 0.0062 0.0055 0.033 0.00048 -0.00019 0.00035
Ga1B 0.0062 0.0055 0.033 -0.00048 -0.00019 -0.00035
O1C 0.0131 0.0034 0.0314 0 0.0017 0
O2G 0.0196 0.0102 0.0448 -0.0013 -0.0129 0.0052
O2D 0.0196 0.0102 0.0448 0.0013 -0.0129 -0.0052
O3G 0.0163 0.01 0.05 0.0018 -0.0121 -0.0048
O3A 0.0163 0.01 0.05 0.0018 0.0121 0.0048
O3E 0.0163 0.01 0.05 0.0018 0.0121 0.0048
C3G 0.025 0.0075 0.078 0.0005 -0.0251 0.0013
C4G 0.0253 0.0075 0.078 0.0006 -0.0258 -0.0017
loop_
_geom_bond_atom_site_label_1
_geom_bond_atom_site_label_2
_geom_bond_site_symmetry_1
_geom_bond_site_symmetry_2
Ga1 O1 1_555 1_555
O1 Ga1C 1_555 1_555
O2 Ga1 1_555 1_555
O3 C6 1_555 1_555
C1 O2 1_555 1_555
C2 C1 1_555 1_555
C3 C2 1_555 1_555
H1 C3 1_555 1_555
C4 C3 1_555 1_555
H2 C4 1_555 1_555
C5 C4 1_555 1_555
C6 C5 1_555 1_555
Ga1C O2G 1_555 1_555
Ga1A O3 1_555 1_555
Ga1B O3G 1_555 1_555
O1C Ga1 1_555 1_555
O2G C1 1_555 1_555
O2D Ga1 1_555 1_555
O3G C6 1_555 1_555
O3A Ga1 1_555 1_555
O3E Ga1 1_555 1_555
C3G C2 1_555 1_555
H1G C3G 1_555 1_555
C4G C5 1_555 1_555
H2G C4G 1_555 1_555
C3G C4G 1_555 1_555

#END
