
#######################################################################
#
#                 Cambridge Crystallographic Data Centre
#                                CCDC 
#
#######################################################################
#
# If this CIF has been generated from an entry in the Cambridge 
# Structural Database, then it will include bibliographic, chemical, 
# crystal, experimental, refinement or atomic coordinate data resulting 
# from the CCDC's data processing and validation procedures.
#
#######################################################################

data_DOTTEM
_chemical_formula_moiety         '(C8 H5 Ga1 O5)n'
_symmetry_cell_setting           orthorhombic
_symmetry_space_group_name_H-M   'P n m a'
_symmetry_Int_Tables_number      62
_space_group_name_Hall           '-P 2ac 2n'
loop_
_symmetry_equiv_pos_site_id
_symmetry_equiv_pos_as_xyz
1 x,y,z
2 1/2-x,-y,1/2+z
3 -x,1/2+y,-z
4 1/2+x,1/2-y,1/2-z
5 -x,-y,-z
6 1/2+x,y,1/2-z
7 x,1/2-y,z
8 1/2-x,1/2+y,1/2+z
_cell_length_a                   17.410(3)
_cell_length_b                   6.7444(10)
_cell_length_c                   12.1646(17)
_cell_angle_alpha                90
_cell_angle_beta                 90
_cell_angle_gamma                90
_cell_volume                     1428.37
loop_
_atom_site_label
_atom_site_type_symbol
_atom_site_fract_x
_atom_site_fract_y
_atom_site_fract_z
_atom_site_U_iso_or_equiv
_atom_site_thermal_displace_type
Ga1 Ga -0.0000 1.0000 1.0000 0.0167 Uani
O1 O 0.00563(9) 0.7500 1.0713(2) 0.0199 Uani
H1 H 0.018(3) 0.7500 1.114(5) 0.0300 Uiso
O2 O 0.07387(7) 0.91692(18) 0.88610(12) 0.0315 Uani
O3 O 0.41090(7) 0.91680(18) 0.58881(12) 0.0321 Uani
C1 C 0.38288(13) 0.7500 0.6112(2) 0.0236 Uani
C2 C 0.30796(13) 0.7500 0.6724(2) 0.0287 Uani
C3 C 0.27375(12) 0.9281(3) 0.7017(2) 0.0436 Uani
H2 H 0.2965 1.0476 0.6818 0.0520 Uiso
C4 C 0.20571(12) 0.9280(3) 0.7606(2) 0.0440 Uani
H3 H 0.1828 1.0475 0.7802 0.0530 Uiso
C5 C 0.17169(14) 0.7500 0.7903(2) 0.0287 Uani
C6 C 0.10046(13) 0.7500 0.8600(2) 0.0236 Uani
Ga1B Ga -0.0000 0.5000 1.0000 0.0167 Uani
Ga1A Ga 0.5000 1.0000 0.5000 0.0167 Uani
Ga1C Ga 0.5000 0.5000 0.5000 0.0167 Uani
O1B O -0.00563(9) 1.2500 0.9287(2) 0.0199 Uani
H1B H -0.018(3) 1.2500 0.886(5) 0.0300 Uiso
O2F O 0.07387(7) 0.58308(18) 0.88610(12) 0.0315 Uani
O2D O -0.07387(7) 1.08308(18) 1.11390(12) 0.0315 Uani
O3F O 0.41090(7) 0.58320(18) 0.58881(12) 0.0321 Uani
O3A O 0.08910(7) 1.08320(18) 1.08881(12) 0.0321 Uani
O3E O -0.08910(7) 0.91680(18) 0.91119(12) 0.0321 Uani
C3F C 0.27375(12) 0.5719(3) 0.7017(2) 0.0436 Uani
H2F H 0.2965 0.4524 0.6818 0.0520 Uiso
C4F C 0.20571(12) 0.5720(3) 0.7606(2) 0.0440 Uani
H3F H 0.1828 0.4525 0.7802 0.0530 Uiso
loop_
_atom_site_aniso_label
_atom_site_aniso_U_11
_atom_site_aniso_U_22
_atom_site_aniso_U_33
_atom_site_aniso_U_23
_atom_site_aniso_U_13
_atom_site_aniso_U_12
Ga1 0.0104(2) 0.0110(2) 0.0288(3) -0.00059(8) -0.00015(8) -0.00012(7)
O1 0.0209(10) 0.0112(10) 0.0276(13) 0.000 -0.0028(6) 0.000
O2 0.0279(6) 0.0199(7) 0.0466(8) 0.0020(5) 0.0170(6) 0.0049(5)
O3 0.0226 0.0183 0.0554 -0.002 0.0175 -0.0038
C1 0.0161 0.0191 0.0357 0 0.0061 0
C2 0.0182 0.0183 0.0497 0 0.0128 0
C3 0.0337 0.0167 0.0804 0.0004 0.0325 -0.0019
C4 0.0337(10) 0.0164(9) 0.0820(17) 0.0001(9) 0.0323(11) 0.0031(8)
C5 0.0195(11) 0.0197(12) 0.0470(16) 0.000 0.0138(11) 0.000
C6 0.0162(10) 0.0171(11) 0.0374(13) 0.000 0.0058(10) 0.000
Ga1B 0.0104 0.011 0.0288 0.00059 -0.00015 0.00012
Ga1A 0.0104 0.011 0.0288 0.00059 0.00015 -0.00012
Ga1C 0.0104 0.011 0.0288 -0.00059 0.00015 0.00012
O1B 0.0209 0.0112 0.0276 0 -0.0028 0
O2F 0.0279 0.0199 0.0466 -0.002 0.017 -0.0049
O2D 0.0279 0.0199 0.0466 0.002 0.017 0.0049
O3F 0.0226 0.0183 0.0554 0.002 0.0175 0.0038
O3A 0.0226 0.0183 0.0554 0.002 -0.0175 -0.0038
O3E 0.0226 0.0183 0.0554 0.002 -0.0175 -0.0038
C3F 0.0337 0.0167 0.0804 -0.0004 0.0325 0.0019
C4F 0.0337 0.0164 0.082 -0.0001 0.0323 -0.0031
loop_
_geom_bond_atom_site_label_1
_geom_bond_atom_site_label_2
_geom_bond_site_symmetry_1
_geom_bond_site_symmetry_2
Ga1 O1 1_555 1_555
O1 H1 1_555 1_555
O2 Ga1 1_555 1_555
O3 C1 1_555 1_555
C1 C2 1_555 1_555
C2 C3 1_555 1_555
C3 H2 1_555 1_555
C4 C3 1_555 1_555
H3 C4 1_555 1_555
C5 C4 1_555 1_555
C6 O2 1_555 1_555
Ga1B O1 1_555 1_555
Ga1A O3 1_555 1_555
Ga1C O3F 1_555 1_555
O1B Ga1 1_555 1_555
H1B O1B 1_555 1_555
O2F C6 1_555 1_555
O2D Ga1 1_555 1_555
O3F C1 1_555 1_555
O3A Ga1 1_555 1_555
O3E Ga1 1_555 1_555
C3F C2 1_555 1_555
H2F C3F 1_555 1_555
C4F C5 1_555 1_555
H3F C4F 1_555 1_555
C5 C6 1_555 1_555
Ga1B O2F 1_555 1_555
C3F C4F 1_555 1_555

#END
