
#######################################################################
#
#                 Cambridge Crystallographic Data Centre
#                                CCDC 
#
#######################################################################
#
# If this CIF has been generated from an entry in the Cambridge 
# Structural Database, then it will include bibliographic, chemical, 
# crystal, experimental, refinement or atomic coordinate data resulting 
# from the CCDC's data processing and validation procedures.
#
#######################################################################

data_ICIKIP
_chemical_formula_moiety         'C114 Cd24 Fe1 N6 S34'
_symmetry_cell_setting           orthorhombic
_symmetry_space_group_name_H-M   'F d d d'
_symmetry_Int_Tables_number      70
_space_group_name_Hall           '-F 2uv 2vw'
loop_
_symmetry_equiv_pos_site_id
_symmetry_equiv_pos_as_xyz
1 x,y,z
2 x,1/2+y,1/2+z
3 x,1/4-y,1/4-z
4 1/2+x,y,1/2+z
5 1/4-x,y,1/4-z
6 1/2+x,1/2+y,z
7 1/4-x,1/4-y,z
8 3/4-x,3/4-y,z
9 3/4-x,y,3/4-z
10 x,3/4-y,3/4-z
11 3/4-x,1/4-y,1/2+z
12 3/4-x,1/2+y,1/4-z
13 1/4-x,3/4-y,1/2+z
14 1/2+x,3/4-y,1/4-z
15 1/4-x,1/2+y,3/4-z
16 1/2+x,1/4-y,3/4-z
17 -x,-y,-z
18 -x,1/2-y,1/2-z
19 -x,3/4+y,3/4+z
20 1/2-x,-y,1/2-z
21 3/4+x,-y,3/4+z
22 1/2-x,1/2-y,-z
23 3/4+x,3/4+y,-z
24 1/4+x,1/4+y,-z
25 1/4+x,-y,1/4+z
26 -x,1/4+y,1/4+z
27 1/4+x,3/4+y,1/2-z
28 1/4+x,1/2-y,3/4+z
29 3/4+x,1/4+y,1/2-z
30 1/2-x,1/4+y,3/4+z
31 3/4+x,1/2-y,1/4+z
32 1/2-x,3/4+y,1/4+z
_cell_length_a                   46.374(2)
_cell_length_b                   51.581(2)
_cell_length_c                   53.407(2)
_cell_angle_alpha                90
_cell_angle_beta                 90
_cell_angle_gamma                90
_cell_volume                     127750
loop_
_atom_site_label
_atom_site_type_symbol
_atom_site_fract_x
_atom_site_fract_y
_atom_site_fract_z
_atom_site_U_iso_or_equiv
_atom_site_thermal_displace_type
C1 C 0.4949(3) 0.5204(3) 0.7910(3) 0.0580 Uiso
C2 C 0.4699(4) 0.5167(3) 0.7767(3) 0.0770 Uiso
C3 C 0.4431(4) 0.5113(4) 0.7875(4) 0.0980 Uiso
C4 C 0.4415(4) 0.5073(4) 0.8131(4) 0.0900 Uiso
C5 C 0.4651(4) 0.5099(3) 0.8280(3) 0.0790 Uiso
C6 C 0.4912(4) 0.5177(3) 0.8170(3) 0.0690 Uiso
C7 C 0.7684(4) 0.5096(3) 0.9344(4) 0.0860 Uiso
C8 C 0.7673(5) 0.4958(5) 0.9568(5) 0.1280 Uiso
C9 C 0.7613(5) 0.4679(5) 0.9569(5) 0.1220 Uiso
C10 C 0.7575(6) 0.4545(5) 0.9367(5) 0.1380 Uiso
C11 C 0.7592(8) 0.4694(8) 0.9152(7) 0.2100 Uiso
C12 C 0.7654(6) 0.4958(6) 0.9141(5) 0.1440 Uiso
C13 C 0.6617(5) 0.4956(4) 0.9508(4) 0.1040 Uiso
C14 C 0.6352(7) 0.4853(5) 0.9533(5) 0.1530 Uiso
C15 C 0.6261(8) 0.4604(7) 0.9665(7) 0.0780 Uiso
C16 C 0.6481(8) 0.4498(6) 0.9789(6) 0.1720 Uiso
C17 C 0.6773(7) 0.4562(6) 0.9754(5) 0.1540 Uiso
C18 C 0.6839(7) 0.4772(6) 0.9605(6) 0.1780 Uiso
C19 C 0.4789(3) 0.5971(3) 0.8082(3) 0.0640 Uiso
C20 C 0.4560(4) 0.5798(3) 0.8025(3) 0.0800 Uiso
C21 C 0.4353(5) 0.5887(5) 0.7852(4) 0.1240 Uiso
C22 C 0.4364(5) 0.6150(4) 0.7735(4) 0.1030 Uiso
C23 C 0.4600(5) 0.6309(4) 0.7790(4) 0.1120 Uiso
C24 C 0.4813(4) 0.6217(4) 0.7974(4) 0.0940 Uiso
C25 C 0.5067(4) 0.5146(3) 0.8874(3) 0.0820 Uiso
C26 C 0.5097(6) 0.4900(5) 0.8815(5) 0.1370 Uiso
C27 C 0.4867(10) 0.4720(8) 0.8918(7) 0.2320 Uiso
C28 C 0.4648(7) 0.4832(7) 0.9085(6) 0.1760 Uiso
C29 C 0.4597(8) 0.5107(7) 0.9089(6) 0.1940 Uiso
C30 C 0.4816(5) 0.5264(4) 0.8940(4) 0.1190 Uiso
C31 C 0.4903(3) 0.5634(2) 0.9487(2) 0.0520 Uiso
C32 C 0.5056(4) 0.5447(3) 0.9584(3) 0.0780 Uiso
C33 C 0.4944(5) 0.5259(4) 0.9737(4) 0.1070 Uiso
C34 C 0.4650(5) 0.5279(4) 0.9829(4) 0.0970 Uiso
C35 C 0.4464(5) 0.5465(4) 0.9723(4) 0.1130 Uiso
C36 C 0.4603(4) 0.5655(3) 0.9541(3) 0.0880 Uiso
C37 C 0.5446(4) 0.5846(3) 1.0030(3) 0.0770 Uiso
C38 C 0.5584(4) 0.5621(3) 1.0084(3) 0.0850 Uiso
C39 C 0.5466(5) 0.5436(4) 1.0236(4) 0.1030 Uiso
C40 C 0.5196(5) 0.5487(5) 1.0354(4) 0.1260 Uiso
C41 C 0.5075(6) 0.5719(5) 1.0307(5) 0.0530 Uiso
C42 C 0.5169(5) 0.5860(4) 1.0130(4) 0.1070 Uiso
C43 C 0.5941(4) 0.4760(3) 0.9016(3) 0.0730 Uiso
C44 C 0.5725(4) 0.4842(3) 0.9170(3) 0.0820 Uiso
C45 C 0.5556(5) 0.4664(5) 0.9335(5) 0.1330 Uiso
C46 C 0.5637(6) 0.4380(5) 0.9311(5) 0.1460 Uiso
C47 C 0.5894(6) 0.4314(5) 0.9142(5) 0.1300 Uiso
C48 C 0.6027(6) 0.4506(5) 0.8975(5) 0.1460 Uiso
C49 C 0.5847(4) 0.4527(3) 0.8318(3) 0.0840 Uiso
C50 C 0.5720(6) 0.4283(5) 0.8383(4) 0.1280 Uiso
C51 C 0.5940(8) 0.4109(7) 0.8434(6) 0.1810 Uiso
C52 C 0.6219(7) 0.4138(6) 0.8361(6) 0.1590 Uiso
C53 C 0.6328(6) 0.4364(5) 0.8320(5) 0.1410 Uiso
C54 C 0.6126(6) 0.4591(4) 0.8287(4) 0.1230 Uiso
C55 C 0.53664(18) 0.61283(16) 0.75344(15) 0.1430 Uiso
C56 C 0.5303(2) 0.63916(16) 0.75350(16) 0.2170 Uiso
C57 C 0.5081(2) 0.64867(18) 0.73858(17) 0.2800 Uiso
C58 C 0.4923(2) 0.6318(2) 0.72359(17) 0.1470 Uiso
C59 C 0.4987(2) 0.6055(2) 0.72353(17) 0.2450 Uiso
C60 C 0.52082(18) 0.59600(17) 0.73845(15) 0.2020 Uiso
C61 C 0.6085(2) 0.51531(19) 0.7400(2) 0.1100 Uiso
C62 C 0.5913(2) 0.53678(17) 0.7351(2) 0.1660 Uiso
C63 C 0.5872(2) 0.54509(18) 0.71063(19) 0.2900 Uiso
C64 C 0.6003(2) 0.5319(2) 0.6910(2) 0.2900 Uiso
C65 C 0.6175(3) 0.5105(2) 0.6958(2) 0.2800 Uiso
C66 C 0.6217(3) 0.5022(2) 0.7203(3) 0.1890 Uiso
C67 C 0.6750(3) 0.56139(17) 0.7539(3) 0.1930 Uiso
C68 C 0.6723(3) 0.55115(17) 0.7299(3) 0.2490 Uiso
C69 C 0.6960(4) 0.53968(17) 0.7184(3) 0.2340 Uiso
C70 C 0.7223(3) 0.53844(17) 0.7308(3) 0.2800 Uiso
C71 C 0.7250(3) 0.54867(16) 0.7547(2) 0.4800 Uiso
C72 C 0.7013(3) 0.56015(16) 0.7663(2) 0.6700 Uiso
C73 C 0.4561(4) 0.6482(3) 0.8717(2) 0.0560 Uiso
C74 C 0.4586(3) 0.6269(3) 0.8559(2) 0.3800 Uiso
C75 C 0.4358(3) 0.6202(3) 0.8403(2) 0.4700 Uiso
C76 C 0.4107(3) 0.6349(3) 0.8403(3) 0.3900 Uiso
C77 C 0.4082(3) 0.6562(3) 0.8561(3) 0.2370 Uiso
C78 C 0.4310(4) 0.6629(3) 0.8717(2) 0.6000 Uiso
C79 C 0.6337(3) 0.5517(3) 1.0104(3) 0.0670 Uiso
C80 C 0.6244(4) 0.5293(3) 0.9983(3) 0.0820 Uiso
C81 C 0.6150(5) 0.5072(4) 1.0154(4) 0.1220 Uiso
C82 C 0.6171(5) 0.5085(4) 1.0408(4) 0.1050 Uiso
C83 C 0.6261(4) 0.5310(3) 1.0505(3) 0.0860 Uiso
C84 C 0.6370(4) 0.5526(3) 1.0354(3) 0.0860 Uiso
C85 C 0.7235(3) 0.5606(3) 1.0224(3) 0.0580 Uiso
C86 C 0.7357(4) 0.5490(3) 1.0428(3) 0.0800 Uiso
C87 C 0.7353(5) 0.5623(4) 1.0672(4) 0.1100 Uiso
C88 C 0.7243(5) 0.5886(5) 1.0690(4) 0.1270 Uiso
C89 C 0.7153(4) 0.6017(4) 1.0452(4) 0.1020 Uiso
C90 C 0.7137(4) 0.5865(3) 1.0239(3) 0.0810 Uiso
C91 C 0.7502(3) 0.5290(4) 0.8529(3) 0.0890 Uiso
C92 C 0.7590(5) 0.5038(3) 0.8477(4) 0.1890 Uiso
C93 C 0.7815(6) 0.4994(4) 0.8310(5) 0.3300 Uiso
C94 C 0.7952(4) 0.5202(6) 0.8196(4) 0.3200 Uiso
C95 C 0.7864(5) 0.5454(5) 0.8248(4) 0.2080 Uiso
C96 C 0.7640(4) 0.5498(3) 0.8415(4) 0.1450 Uiso
C97 C 0.8033(4) 0.6197(3) 0.9665(4) 0.0890 Uiso
C98 C 0.8255(5) 0.6291(4) 0.9830(4) 0.1040 Uiso
C99 C 0.8542(7) 0.6355(6) 0.9740(6) 0.1700 Uiso
C100 C 0.8589(6) 0.6352(5) 0.9458(5) 0.1500 Uiso
C101 C 0.8353(5) 0.6245(4) 0.9281(4) 0.1220 Uiso
C102 C 0.8085(5) 0.6175(4) 0.9404(4) 0.1130 Uiso
C103 C 0.5888(4) 0.4401(3) 0.7471(3) 0.0730 Uiso
C104 C 0.5947(5) 0.4445(4) 0.7204(4) 0.1060 Uiso
C105 C 0.6228(6) 0.4371(5) 0.7117(5) 0.1360 Uiso
C106 C 0.6432(6) 0.4287(5) 0.7274(5) 0.1310 Uiso
C107 C 0.6376(7) 0.4234(6) 0.7537(6) 0.1620 Uiso
C108 C 0.6097(5) 0.4304(4) 0.7643(4) 0.1110 Uiso
Cd1 Cd 0.606405(18) 0.589795(15) 0.853998(14) 0.0325 Uani
Cd2 Cd 0.549248(19) 0.567878(15) 0.907996(15) 0.0355 Uani
Cd3 Cd 0.664141(17) 0.607926(14) 0.906738(14) 0.0289 Uani
Cd4 Cd 0.602453(18) 0.588391(15) 0.960003(15) 0.0338 Uani
Cd5 Cd 0.626745(19) 0.536993(15) 0.910433(15) 0.0359 Uani
Cd6 Cd 0.52657(2) 0.624680(17) 0.852913(16) 0.0410 Uani
Cd7 Cd 0.66788(2) 0.610630(19) 0.799570(17) 0.0528 Uani
Cd8 Cd 0.68306(2) 0.559375(18) 0.965971(18) 0.0482 Uani
Cd9 Cd 0.72996(2) 0.627618(17) 0.952551(19) 0.0496 Uani
Cd10 Cd 0.54319(2) 0.567779(18) 0.803590(18) 0.0500 Uani
Cd11 Cd 0.62619(2) 0.54290(2) 0.794709(19) 0.0558 Uani
Cd12 Cd 0.68458(2) 0.557290(18) 0.849548(18) 0.0471 Uani
Cd13 Cd 0.73966(2) 0.56508(2) 0.905758(18) 0.0533 Uani
Cd14 Cd 0.57589(2) 0.514958(18) 0.853967(18) 0.0519 Uani
S1 S 0.64599(6) 0.57106(5) 0.88030(5) 0.0317 Uani
S2 S 0.58784(7) 0.55345(6) 0.82662(6) 0.0403 Uani
S3 S 0.56571(6) 0.60581(5) 0.88070(5) 0.0297 Uani
S4 S 0.58547(7) 0.54980(5) 0.93716(5) 0.0374 Uani
S5 S 0.70446(6) 0.58943(5) 0.93315(5) 0.0331 Uani
S6 S 0.6250 0.6250 0.93506(6) 0.0254 Uani
S7 S 0.61439(9) 0.49823(6) 0.88251(7) 0.0552 Uani
S8 S 0.70761(8) 0.59103(6) 0.82358(6) 0.0500 Uani
S9 S 0.55987(8) 0.60914(6) 0.98279(7) 0.0515 Uani
S10 S 0.64297(7) 0.57906(6) 0.99166(6) 0.0470 Uani
S11 S 0.67157(8) 0.52354(7) 0.93524(7) 0.0558 Uani
S12 S 0.6250 0.6250 0.82562(7) 0.0382 Uani
S13 S 0.50228(7) 0.58533(6) 0.92669(6) 0.0453 Uani
S14 S 0.53232(8) 0.53638(7) 0.87386(6) 0.0549 Uani
Cd15 Cd 0.76865(2) 0.56045(2) 0.975959(19) 0.0548 Uani
Cd16 Cd 0.56125(2) 0.49211(2) 0.78198(2) 0.0601 Uani
S15 S 0.72236(8) 0.54237(7) 0.99463(6) 0.0530 Uani
S16 S 0.52641(8) 0.52976(7) 0.77631(6) 0.0553 Uani
S17 S 0.65998(10) 0.52063(7) 0.82542(8) 0.0733 Uani
S18 S 0.50359(7) 0.58595(6) 0.83051(6) 0.0497 Uani
S19 S 0.49224(8) 0.64271(7) 0.88632(7) 0.0540 Uani
S20 S 0.77042(10) 0.61007(9) 0.97849(11) 0.0967 Uani
S21 S 0.61126(10) 0.50479(8) 0.76825(8) 0.0743 Uani
S22 S 0.72211(9) 0.53236(7) 0.87500(8) 0.0677 Uani
S23 S 0.55727(10) 0.47771(7) 0.82762(7) 0.0680 Uani
S24 S 0.64310(11) 0.58050(10) 0.76838(7) 0.0833 Uani
S25 S 0.77790(9) 0.54321(10) 0.93287(8) 0.0800 Uani
S26 S 0.56630(12) 0.60011(10) 0.77371(8) 0.0930 Uani
S27 S 0.55512(9) 0.44915(7) 0.75982(8) 0.0693 Uani
C109 C 0.6864(9) 0.4984(8) 0.8062(8) 0.2360 Uiso
C110 C 0.7049(11) 0.4759(9) 0.7709(9) 0.1310 Uiso
C111 C 0.6837(12) 0.4911(10) 0.7816(10) 0.1410 Uiso
C113 C 0.7015(14) 0.5167(12) 0.7934(12) 0.1700 Uiso
Cd1F Cd 0.643595(18) 0.660205(15) 0.853998(14) 0.0325 Uani
Cd3F Cd 0.585859(17) 0.642074(14) 0.906738(14) 0.0289 Uani
Cd4F Cd 0.647547(18) 0.661609(15) 0.960003(15) 0.0338 Uani
Cd6F Cd 0.72343(2) 0.625320(17) 0.852913(16) 0.0410 Uani
Cd7F Cd 0.58212(2) 0.639370(19) 0.799570(17) 0.0528 Uani
Cd9F Cd 0.52004(2) 0.622382(17) 0.952551(19) 0.0496 Uani
Cd13F Cd 0.51034(2) 0.68492(2) 0.905758(18) 0.0533 Uani
S3F S 0.68429(6) 0.64419(5) 0.88070(5) 0.0297 Uani
S8F S 0.54239(8) 0.65897(6) 0.82358(6) 0.0500 Uani
S9F S 0.69013(8) 0.64086(6) 0.98279(7) 0.0515 Uani
S13F S 0.74772(7) 0.66467(6) 0.92669(6) 0.0453 Uani
Cd15T Cd 0.51865(2) 0.43955(2) 0.725959(19) 0.0548 Uani
S19F S 0.75776(8) 0.60729(7) 0.88632(7) 0.0540 Uani
S26F S 0.68370(12) 0.64989(10) 0.77371(8) 0.0930 Uani
S27X S 0.80512(9) 0.55085(7) 1.00982(8) 0.0693 Uani
Fe1 Fe 0.8750 0.3750 0.8750 0.0800 Uiso
N1 N 0.8470(4) 0.3538(4) 0.8788(4) 0.1300 Uiso
N2 N 0.8750 0.3750 0.9209(12) 0.3600 Uiso
C114 C 0.8485(16) 0.3594(14) 0.9221(15) 0.2100 Uiso
N1G N 0.9030(4) 0.3962(4) 0.8788(4) 0.1300 Uiso
N1H N 0.9030(4) 0.3538(4) 0.8712(4) 0.1300 Uiso
N1I N 0.8470(4) 0.3962(4) 0.8712(4) 0.1300 Uiso
N2H N 0.8750 0.3750 0.8291(12) 0.3600 Uiso
C114G C 0.9015(16) 0.3906(14) 0.9221(15) 0.2100 Uiso
loop_
_atom_site_aniso_label
_atom_site_aniso_U_11
_atom_site_aniso_U_22
_atom_site_aniso_U_33
_atom_site_aniso_U_23
_atom_site_aniso_U_13
_atom_site_aniso_U_12
Cd1 0.0361(5) 0.0356(4) 0.0258(4) -0.0035(3) -0.0008(4) -0.0060(4)
Cd2 0.0350(5) 0.0393(4) 0.0322(4) 0.0011(4) -0.0001(4) -0.0065(4)
Cd3 0.0296(4) 0.0312(4) 0.0260(4) 0.0000(3) 0.0003(3) -0.0022(3)
Cd4 0.0346(5) 0.0381(4) 0.0287(4) 0.0031(3) 0.0023(4) -0.0032(4)
Cd5 0.0392(5) 0.0341(4) 0.0344(4) 0.0016(3) -0.0041(4) -0.0032(4)
Cd6 0.0374(5) 0.0508(5) 0.0349(5) -0.0009(4) -0.0086(4) -0.0035(4)
Cd7 0.0597 0.0651 0.0335 -0.0072 0.0078 -0.0152
Cd8 0.0452(6) 0.0553(6) 0.0440(5) 0.0128(4) -0.0104(5) -0.0047(4)
Cd9 0.0424(6) 0.0442(5) 0.0621(6) -0.0005(5) -0.0144(5) -0.0010(4)
Cd10 0.0477(6) 0.0524(5) 0.0498(6) -0.0141(5) -0.0125(5) -0.0042(4)
Cd11 0.0497(6) 0.0660(6) 0.0518(6) -0.0299(5) 0.0027(5) -0.0049(5)
Cd12 0.0463(6) 0.0469(5) 0.0481(5) -0.0089(4) 0.0074(5) -0.0012(4)
Cd13 0.0533(7) 0.0610(6) 0.0457(6) 0.0015(5) 0.0023(5) 0.0172(5)
Cd14 0.0650(7) 0.0459(5) 0.0447(5) -0.0135(4) -0.0069(5) -0.0112(5)
S1 0.0344(16) 0.0319(13) 0.0287(14) 0.0001(11) -0.0013(12) -0.0049(12)
S2 0.0388(18) 0.0442(16) 0.0378(16) -0.0173(13) -0.0047(14) -0.0016(13)
S3 0.0304(16) 0.0333(13) 0.0253(13) 0.0002(11) -0.0030(11) -0.0037(11)
S4 0.0411(18) 0.0377(15) 0.0333(15) 0.0032(12) -0.0024(13) -0.0047(13)
S5 0.0331(16) 0.0328(14) 0.0334(14) 0.0011(11) -0.0046(13) 0.0028(12)
S6 0.029(2) 0.0262(17) 0.0209(17) 0.000 0.000 -0.0024(15)
S7 0.068(3) 0.0435(17) 0.054(2) -0.0117(16) -0.0055(18) -0.0065(16)
S8 0.05 0.0554 0.0446 -0.0108 0.0131 -0.0053
S9 0.047(2) 0.0506(18) 0.057(2) -0.0014(16) 0.0184(17) -0.0024(15)
S10 0.049(2) 0.0556(19) 0.0363(16) 0.0153(15) -0.0092(15) -0.0073(15)
S11 0.053(2) 0.0514(19) 0.063(2) 0.0072(17) -0.0197(18) 0.0074(16)
S12 0.046(3) 0.044(2) 0.0246(19) 0.000 0.000 -0.0108(19)
S13 0.0348(18) 0.0442(17) 0.057(2) 0.0051(15) 0.0042(15) -0.0028(14)
S14 0.051(2) 0.069(2) 0.0446(19) -0.0128(17) 0.0001(17) -0.0178(18)
Cd15 0.0460(6) 0.0660(6) 0.0523(6) 0.0152(5) -0.0112(5) 0.0073(5)
Cd16 0.0593(7) 0.0597(6) 0.0613(7) -0.0260(5) -0.0178(6) -0.0008(5)
S15 0.052(2) 0.064(2) 0.0429(18) 0.0136(16) -0.0113(16) 0.0024(17)
S16 0.056(2) 0.061(2) 0.049(2) -0.0217(17) -0.0198(18) -0.0015(17)
S17 0.075(3) 0.059(2) 0.086(3) -0.029(2) -0.017(2) 0.010(2)
S18 0.043(2) 0.0546(19) 0.0514(19) -0.0107(16) -0.0136(16) -0.0027(15)
S19 0.042(2) 0.064(2) 0.056(2) -0.0073(17) -0.0003(17) -0.0006(17)
S20 0.062(3) 0.078(3) 0.150(5) 0.033(3) -0.041(3) -0.006(2)
S21 0.076(3) 0.076(3) 0.071(3) -0.044(2) 0.001(2) -0.009(2)
S22 0.072(3) 0.059(2) 0.072(3) -0.014(2) -0.013(2) 0.0168(19)
S23 0.090(3) 0.050(2) 0.064(2) -0.0202(18) -0.022(2) -0.0078(19)
S24 0.1 0.112 0.038 -0.025 0.013 -0.043
S25 0.063(3) 0.115(4) 0.062(2) 0.013(2) 0.000(2) 0.038(3)
S26 0.120(4) 0.108(4) 0.051(2) -0.019(2) 0.005(3) -0.057(3)
S27 0.063 0.065 0.08 -0.031 -0.031 0.0004
Cd1F 0.0361 0.0356 0.0258 0.0035 0.0008 -0.006
Cd3F 0.0296 0.0312 0.026 0 -0.0003 -0.0022
Cd4F 0.0346 0.0381 0.0287 -0.0031 -0.0023 -0.0032
Cd6F 0.0374 0.0508 0.0349 0.0009 0.0086 -0.0035
Cd7F 0.0597(7) 0.0651(6) 0.0335(5) 0.0072(4) -0.0078(5) -0.0152(5)
Cd9F 0.0424 0.0442 0.0621 0.0005 0.0144 -0.001
Cd13F 0.0533 0.061 0.0457 -0.0015 -0.0023 0.0172
S3F 0.0304 0.0333 0.0253 -0.0002 0.003 -0.0037
S8F 0.050(2) 0.0554(19) 0.0446(18) 0.0108(15) -0.0131(16) -0.0053(16)
S9F 0.047 0.0506 0.057 0.0014 -0.0184 -0.0024
S13F 0.0348 0.0442 0.057 -0.0051 -0.0042 -0.0028
Cd15T 0.046 0.066 0.0523 -0.0152 -0.0112 -0.0073
S19F 0.042 0.064 0.056 0.0073 0.0003 -0.0006
S26F 0.12 0.108 0.051 0.019 -0.005 -0.057
S27X 0.063(3) 0.065(2) 0.080(3) 0.031(2) -0.031(2) -0.0004(19)
loop_
_geom_bond_atom_site_label_1
_geom_bond_atom_site_label_2
_geom_bond_site_symmetry_1
_geom_bond_site_symmetry_2
C1 C2 1_555 1_555
C2 C3 1_555 1_555
C3 C4 1_555 1_555
C4 C5 1_555 1_555
C5 C6 1_555 1_555
C6 C1 1_555 1_555
C7 C8 1_555 1_555
C8 C9 1_555 1_555
C9 C10 1_555 1_555
C10 C11 1_555 1_555
C11 C12 1_555 1_555
C12 C7 1_555 1_555
C13 C14 1_555 1_555
C14 C15 1_555 1_555
C15 C16 1_555 1_555
C16 C17 1_555 1_555
C17 C18 1_555 1_555
C18 C13 1_555 1_555
C19 C20 1_555 1_555
C20 C21 1_555 1_555
C21 C22 1_555 1_555
C22 C23 1_555 1_555
C23 C24 1_555 1_555
C24 C19 1_555 1_555
C25 C26 1_555 1_555
C26 C27 1_555 1_555
C27 C28 1_555 1_555
C28 C29 1_555 1_555
C29 C30 1_555 1_555
C30 C25 1_555 1_555
C31 C32 1_555 1_555
C32 C33 1_555 1_555
C33 C34 1_555 1_555
C34 C35 1_555 1_555
C35 C36 1_555 1_555
C36 C31 1_555 1_555
C37 C38 1_555 1_555
C38 C39 1_555 1_555
C39 C40 1_555 1_555
C40 C41 1_555 1_555
C41 C42 1_555 1_555
C42 C37 1_555 1_555
C43 C44 1_555 1_555
C44 C45 1_555 1_555
C45 C46 1_555 1_555
C46 C47 1_555 1_555
C47 C48 1_555 1_555
C48 C43 1_555 1_555
C49 C50 1_555 1_555
C50 C51 1_555 1_555
C51 C52 1_555 1_555
C52 C53 1_555 1_555
C53 C54 1_555 1_555
C54 C49 1_555 1_555
C55 C56 1_555 1_555
C56 C57 1_555 1_555
C57 C58 1_555 1_555
C58 C59 1_555 1_555
C59 C60 1_555 1_555
C60 C55 1_555 1_555
C61 C62 1_555 1_555
C62 C63 1_555 1_555
C63 C64 1_555 1_555
C64 C65 1_555 1_555
C65 C66 1_555 1_555
C66 C61 1_555 1_555
C67 C68 1_555 1_555
C68 C69 1_555 1_555
C69 C70 1_555 1_555
C70 C71 1_555 1_555
C71 C72 1_555 1_555
C72 C67 1_555 1_555
C73 C74 1_555 1_555
C74 C75 1_555 1_555
C75 C76 1_555 1_555
C76 C77 1_555 1_555
C77 C78 1_555 1_555
C78 C73 1_555 1_555
C79 C80 1_555 1_555
C80 C81 1_555 1_555
C81 C82 1_555 1_555
C82 C83 1_555 1_555
C83 C84 1_555 1_555
C84 C79 1_555 1_555
C85 C86 1_555 1_555
C86 C87 1_555 1_555
C87 C88 1_555 1_555
C88 C89 1_555 1_555
C89 C90 1_555 1_555
C90 C85 1_555 1_555
C91 C92 1_555 1_555
C92 C93 1_555 1_555
C93 C94 1_555 1_555
C94 C95 1_555 1_555
C95 C96 1_555 1_555
C96 C91 1_555 1_555
C97 C98 1_555 1_555
C98 C99 1_555 1_555
C99 C100 1_555 1_555
C100 C101 1_555 1_555
C101 C102 1_555 1_555
C102 C97 1_555 1_555
C103 C104 1_555 1_555
C104 C105 1_555 1_555
C105 C106 1_555 1_555
C106 C107 1_555 1_555
C107 C108 1_555 1_555
C108 C103 1_555 1_555
Cd1 S1 1_555 1_555
Cd2 S3 1_555 1_555
Cd3 S1 1_555 1_555
Cd4 S4 1_555 1_555
Cd5 S1 1_555 1_555
Cd6 S3 1_555 1_555
Cd7 S8 1_555 1_555
Cd8 S5 1_555 1_555
Cd9 S5 1_555 1_555
Cd10 S2 1_555 1_555
Cd11 S2 1_555 1_555
Cd12 S1 1_555 1_555
Cd13 S5 1_555 1_555
Cd14 S2 1_555 1_555
S2 Cd1 1_555 1_555
S3 Cd1 1_555 1_555
S4 Cd2 1_555 1_555
S5 Cd3 1_555 1_555
S6 Cd3 1_555 1_555
S7 C43 1_555 1_555
S8 Cd12 1_555 1_555
S9 C37 1_555 1_555
S10 C79 1_555 1_555
S11 C13 1_555 1_555
S12 Cd1 1_555 1_555
S13 C31 1_555 1_555
S14 C25 1_555 1_555
Cd15 S15 1_555 1_555
Cd16 S16 1_555 1_555
S15 C85 1_555 1_555
S16 C1 1_555 1_555
S17 Cd11 1_555 1_555
S18 C19 1_555 1_555
S19 C73 1_555 1_555
S20 C97 1_555 1_555
S21 C61 1_555 1_555
S22 C91 1_555 1_555
S23 C49 1_555 1_555
S24 C67 1_555 1_555
S25 C7 1_555 1_555
S26 C55 1_555 1_555
S27 C103 1_555 1_555
C109 S17 1_555 1_555
Fe1 N1 1_555 1_555
C110 C111 1_555 1_555
C111 C109 1_555 1_555
C113 C109 1_555 1_555
N2 Fe1 1_555 1_555
C114 N2 1_555 1_555
Cd1F S12 1_555 1_555
Cd3F S3 1_555 1_555
Cd4F S6 1_555 1_555
Cd6F S8 1_555 1_555
Cd7F S12 1_555 1_555
Cd9F S9 1_555 1_555
Cd13F S19 1_555 1_555
S3F Cd3 1_555 1_555
S8F Cd6 1_555 1_555
S9F Cd9 1_555 1_555
S13F Cd9 1_555 1_555
Cd15T S27 1_555 1_555
S19F Cd13 1_555 1_555
S26F Cd7 1_555 1_555
S27X Cd15 1_555 1_555
N1G Fe1 1_555 1_555
N1H Fe1 1_555 1_555
N1I Fe1 1_555 1_555
N2H Fe1 1_555 1_555
C114G N2 1_555 1_555
Cd2 S13 1_555 1_555
Cd2 S14 1_555 1_555
Cd4 S6 1_555 1_555
Cd4 S9 1_555 1_555
Cd4 S10 1_555 1_555
Cd5 S4 1_555 1_555
Cd5 S7 1_555 1_555
Cd5 S11 1_555 1_555
Cd6 S18 1_555 1_555
Cd6 S19 1_555 1_555
Cd7 S12 1_555 1_555
Cd7 S24 1_555 1_555
Cd8 S10 1_555 1_555
Cd8 S11 1_555 1_555
Cd8 S15 1_555 1_555
Cd9 S20 1_555 1_555
Cd10 S16 1_555 1_555
Cd10 S18 1_555 1_555
Cd10 S26 1_555 1_555
Cd11 S21 1_555 1_555
Cd11 S24 1_555 1_555
Cd12 S17 1_555 1_555
Cd12 S22 1_555 1_555
Cd13 S22 1_555 1_555
Cd13 S25 1_555 1_555
Cd14 S7 1_555 1_555
Cd14 S14 1_555 1_555
Cd14 S23 1_555 1_555
S6 Cd3F 1_555 1_555
S13 Cd9F 1_555 1_555
Cd15 S20 1_555 1_555
Cd15 S25 1_555 1_555
Cd16 S21 1_555 1_555
Cd16 S23 1_555 1_555
Cd16 S27 1_555 1_555
S26 Cd7F 1_555 1_555
C111 C113 1_555 1_555
Cd1F S3F 1_555 1_555
Cd4F S9F 1_555 1_555
Cd6F S3F 1_555 1_555
Cd6F S19F 1_555 1_555
Cd7F S8F 1_555 1_555

#END
