
#######################################################################
#
#                 Cambridge Crystallographic Data Centre
#                                CCDC 
#
#######################################################################
#
# If this CIF has been generated from an entry in the Cambridge 
# Structural Database, then it will include bibliographic, chemical, 
# crystal, experimental, refinement or atomic coordinate data resulting 
# from the CCDC's data processing and validation procedures.
#
#######################################################################

data_EGEJOQ
_chemical_formula_moiety         'C56 H21 N8 O22 Zn4'
_symmetry_cell_setting           monoclinic
_symmetry_space_group_name_H-M   'C 2/m'
_symmetry_Int_Tables_number      12
_space_group_name_Hall           '-C 2y'
loop_
_symmetry_equiv_pos_site_id
_symmetry_equiv_pos_as_xyz
1 x,y,z
2 1/2+x,1/2+y,z
3 -x,y,-z
4 1/2-x,1/2+y,-z
5 -x,-y,-z
6 1/2-x,1/2-y,-z
7 x,-y,z
8 1/2+x,1/2-y,z
_cell_length_a                   24.3584(7)
_cell_length_b                   23.8485(7)
_cell_length_c                   17.1987(5)
_cell_angle_alpha                90
_cell_angle_beta                 93.465(2)
_cell_angle_gamma                90
_cell_volume                     9972.65
loop_
_atom_site_label
_atom_site_type_symbol
_atom_site_fract_x
_atom_site_fract_y
_atom_site_fract_z
_atom_site_U_iso_or_equiv
_atom_site_thermal_displace_type
Zn1 Zn 0.07869(4) -0.0000 -0.82570(5) 0.0486 Uani
Zn2 Zn 0.14194(3) 0.06619(3) -0.68998(4) 0.0577 Uani
Zn3 Zn 0.20859(4) -0.0000 -0.81409(6) 0.0649 Uani
O1 O 0.1428(2) 0.0000 -0.7544(3) 0.0434 Uiso
O2 O 0.2435(5) 0.0715(6) -0.7924(6) 0.2210 Uiso
O3 O 0.1969(3) 0.1200(3) -0.7008(5) 0.1270 Uiso
O4 O 0.0683(2) 0.1018(2) -0.7046(4) 0.0938 Uiso
O5 O 0.0286(2) -0.0630(2) -0.8100(3) 0.0818 Uiso
O6 O 0.0918(3) 0.0000 -0.9364(4) 0.0664 Uiso
O7 O 0.1837(3) -0.0000 -0.9238(5) 0.0890 Uiso
O8 O 0.1439(2) 0.0463(2) -0.5792(3) 0.0724 Uiso
O9 O 0.2588(11) -0.0000 -0.6880(17) 0.3300 Uiso
O10 O 0.2935(12) 0.0000 -0.880(2) 0.4180 Uiso
O11 O 0.3645(13) -0.1500(10) -1.2940(18) 0.2070 Uiso
O12 O 0.4193(10) -0.2236(14) -1.282(2) 0.2070 Uiso
O13 O 0.3925(13) -0.3687(9) -1.1059(17) 0.2070 Uiso
O14 O 0.3366(13) -0.3575(10) -1.0100(14) 0.2070 Uiso
O15 O 0.5164(14) 0.1554(16) -1.173(2) 0.4640 Uiso
O16 O 0.4815(16) 0.2053(11) -1.079(2) 0.4640 Uiso
O17 O 0.4283(13) 0.0000 -1.2773(14) 0.4640 Uiso
O18 O 0.3513(11) 0.0354(10) -1.236(2) 0.4640 Uiso
N1 N 0.2381(5) -0.1094(3) -1.1668(6) 0.0930 Uiso
N2 N 0.2799(5) -0.1371(4) -1.2004(10) 0.1150 Uiso
H1 H 0.2944 -0.1209 -1.2402 0.1390 Uiso
N3 N 0.3772(8) -0.1969(9) -1.2682(11) 0.2070 Uiso
N4 N 0.3578(8) -0.3432(5) -1.0700(10) 0.2070 Uiso
N5 N 0.3807(11) 0.1650(8) -0.9359(13) 0.3240 Uiso
N6 N 0.4122(10) 0.1639(14) -1.0000(12) 0.2630 Uiso
H2 H 0.4358 0.1910 -1.0076 0.3160 Uiso
N7 N 0.4830(10) 0.1639(9) -1.1227(18) 0.4640 Uiso
N8 N 0.3889(10) 0.0000 -1.2352(12) 0.4640 Uiso
C1 C 0.2304(5) 0.1141(6) -0.7531(8) 0.1430 Uiso
C2 C 0.2726(2) 0.1604(3) -0.7555(3) 0.1460 Uiso
C3 C 0.2776(3) 0.2004(3) -0.6967(3) 0.1610 Uiso
H3 H 0.2534 0.1997 -0.6555 0.1930 Uiso
C4 C 0.3181(3) 0.2414(3) -0.6983(4) 0.1550 Uiso
H4 H 0.3215 0.2687 -0.6581 0.1860 Uiso
C5 C 0.3536(3) 0.2424(3) -0.7586(4) 0.1810 Uiso
C6 C 0.3485(3) 0.2024(3) -0.8174(3) 0.1770 Uiso
C7 C 0.3081(2) 0.1614(3) -0.8159(3) 0.2240 Uiso
H5 H 0.3046 0.1341 -0.8561 0.2680 Uiso
C8 C 0.1384(3) -0.0082(4) -0.9623(5) 0.0490 Uiso
C9 C 0.1425(2) -0.0000 -1.0506(3) 0.0620 Uiso
C10 C 0.09733(18) 0.01855(3) -1.0967(3) 0.0600 Uiso
H6 H 0.0666 0.0342 -1.0732 0.0720 Uiso
C11 C 0.0971(2) 0.01415(15) -1.1773(3) 0.0660 Uiso
H7 H 0.0662 0.0268 -1.2089 0.0790 Uiso
C12 C 0.1422(2) -0.0088(3) -1.2118(3) 0.0580 Uiso
C13 C 0.18737(19) -0.0273(2) -1.1657(4) 0.1160 Uiso
C14 C 0.1876(2) -0.02294(12) -1.0851(3) 0.1010 Uiso
H8 H 0.2185 -0.0356 -1.0535 0.1210 Uiso
C15 C 0.0304(3) 0.0985(3) -0.7584(5) 0.0750 Uiso
C16 C -0.0136(2) 0.1362(2) -0.7540(3) 0.0890 Uiso
C17 C -0.0535(2) 0.13795(18) -0.8154(3) 0.1440 Uiso
H9 H -0.0523 0.1117 -0.8568 0.1730 Uiso
C18 C -0.09493(19) 0.17802(18) -0.8161(3) 0.1760 Uiso
H10 H -0.1222 0.1792 -0.8580 0.2110 Uiso
C19 C 0.40344(19) 0.28361(19) -0.7554(3) 0.1550 Uiso
C20 C 0.4433(2) 0.2853(2) -0.6941(3) 0.1600 Uiso
H11 H 0.4422 0.2591 -0.6526 0.1920 Uiso
C21 C -0.0153(2) 0.1746(2) -0.6934(3) 0.1340 Uiso
H12 H 0.0120 0.1735 -0.6515 0.1610 Uiso
C22 C 0.1431(2) 0.0000(3) -0.5472(2) 0.0560 Uiso
C23 C 0.14600(17) -0.0000(2) -0.4592(2) 0.0610 Uiso
C24 C 0.14280(15) 0.0489(2) -0.4197(2) 0.0920 Uiso
H13 H 0.1403 0.0833 -0.4475 0.1100 Uiso
C25 C 0.14322(14) 0.0492(2) -0.3398(2) 0.0970 Uiso
H14 H 0.1421 0.0840 -0.3129 0.1170 Uiso
C26 C 0.14523(13) 0.0000(2) -1.2981(2) 0.0700 Uiso
C27 C 0.22688(17) -0.06568(17) -1.2032(2) 0.0760 Uiso
H15 H 0.2421 -0.0571 -1.2514 0.0910 Uiso
C28 C 0.3016(3) -0.18990(18) -1.1762(4) 0.1200 Uiso
C29 C 0.3412(3) -0.2221(2) -1.2103(4) 0.1200 Uiso
C30 C 0.3596(3) -0.2717(2) -1.1754(5) 0.1200 Uiso
H16 H 0.3866 -0.2937 -1.1987 0.1440 Uiso
C31 C 0.3383(4) -0.28923(17) -1.1062(5) 0.1200 Uiso
C32 C 0.2987(4) -0.25708(16) -1.0720(4) 0.1200 Uiso
H17 H 0.2842 -0.2691 -1.0248 0.1440 Uiso
C33 C 0.2803(3) -0.20745(16) -1.1070(4) 0.1200 Uiso
H18 H 0.2533 -0.1855 -1.0836 0.1440 Uiso
C34 C 0.37846(16) 0.20784(17) -0.8886(2) 0.2650 Uiso
H19 H 0.3960 0.2421 -0.9003 0.3180 Uiso
C35 C 0.4063(12) 0.1205(8) -1.0519(16) 0.3300 Uiso
C36 C 0.4406(10) 0.1199(10) -1.114(2) 0.3300 Uiso
C37 C 0.4324(10) 0.0807(11) -1.1728(16) 0.3300 Uiso
H20 H 0.4559 0.0803 -1.2150 0.3950 Uiso
C38 C 0.3899(11) 0.0420(9) -1.1705(11) 0.3300 Uiso
C39 C 0.3556(9) 0.0425(8) -1.1088(12) 0.3300 Uiso
C40 C 0.3637(10) 0.0818(9) -1.0495(11) 0.3300 Uiso
H22 H 0.3403 0.0821 -1.0074 0.3950 Uiso
Zn2F Zn 0.14194(3) -0.06619(3) -0.68998(4) 0.0577 Uani
O2F O 0.2435(5) -0.0715(6) -0.7924(6) 0.2210 Uiso
O5F O 0.0286(2) 0.0630(2) -0.8100(3) 0.0818 Uiso
O8F O 0.1439(2) -0.0463(2) -0.5792(3) 0.0724 Uiso
O18F O 0.3513(11) -0.0354(10) -1.236(2) 0.4640 Uiso
C8F C 0.1384(3) 0.0082(4) -0.9623(5) 0.0490 Uiso
C10F C 0.09733(18) -0.01855(3) -1.0967(3) 0.0600 Uiso
C11F C 0.0971(2) -0.01415(15) -1.1773(3) 0.0660 Uiso
C12F C 0.1422(2) 0.0088(3) -1.2118(3) 0.0580 Uiso
C13F C 0.18737(19) 0.0273(2) -1.1657(4) 0.1160 Uiso
C14F C 0.1876(2) 0.02294(12) -1.0851(3) 0.1010 Uiso
C15F C 0.0304(3) -0.0985(3) -0.7584(5) 0.0750 Uiso
C18G C 0.40507(19) 0.32198(18) -0.8161(3) 0.1760 Uiso
C19G C -0.09656(19) 0.21639(19) -0.7554(3) 0.1550 Uiso
C20G C -0.0567(2) 0.2147(2) -0.6941(3) 0.1600 Uiso
C21G C 0.4847(2) 0.3254(2) -0.6934(3) 0.1340 Uiso
C24F C 0.14280(15) -0.0489(2) -0.4197(2) 0.0920 Uiso
C25F C 0.14322(14) -0.0492(2) -1.3398(2) 0.0970 Uiso
C25_2 C 0.14322(14) 0.0492(2) -1.3398(2) 0.0970 Uiso
C26_2 C 0.14523(13) -0.0000(2) -0.2981(2) 0.0700 Uiso
C38F C 0.3899(11) -0.0420(9) -1.1705(11) 0.3300 Uiso
loop_
_atom_site_aniso_label
_atom_site_aniso_U_11
_atom_site_aniso_U_22
_atom_site_aniso_U_33
_atom_site_aniso_U_23
_atom_site_aniso_U_13
_atom_site_aniso_U_12
Zn1 0.0464(6) 0.0663(7) 0.0342(5) 0.000 0.0111(4) 0.000
Zn2 0.0607(5) 0.0742(6) 0.0393(4) -0.0068(3) 0.0117(3) -0.0029(4)
Zn3 0.0567(7) 0.0962(9) 0.0441(6) 0.000 0.0210(5) 0.000
Zn2F 0.0607 0.0742 0.0393 0.0068 0.0117 0.0029
loop_
_geom_bond_atom_site_label_1
_geom_bond_atom_site_label_2
_geom_bond_site_symmetry_1
_geom_bond_site_symmetry_2
Zn1 O1 1_555 1_555
Zn2 O1 1_555 1_555
Zn3 O1 1_555 1_555
O1 Zn2F 1_555 1_555
O2 Zn3 1_555 1_555
O3 Zn2 1_555 1_555
O4 Zn2 1_555 1_555
O5 Zn1 1_555 1_555
O6 Zn1 1_555 1_555
O7 Zn3 1_555 1_555
O8 Zn2 1_555 1_555
O9 Zn3 1_555 1_555
O10 Zn3 1_555 1_555
O11 N3 1_555 1_555
O12 N3 1_555 1_555
O13 N4 1_555 1_555
O14 N4 1_555 1_555
O15 N7 1_555 1_555
O16 N7 1_555 1_555
O17 N8 1_555 1_555
O18 N8 1_555 1_555
N1 N2 1_555 1_555
N2 H1 1_555 1_555
N3 C29 1_555 1_555
N4 C31 1_555 1_555
N5 N6 1_555 1_555
N6 H2 1_555 1_555
N7 C36 1_555 1_555
N8 C38 1_555 1_555
C1 O2 1_555 1_555
C2 C1 1_555 1_555
C3 C2 1_555 1_555
H3 C3 1_555 1_555
C4 C3 1_555 1_555
H4 C4 1_555 1_555
C5 C4 1_555 1_555
C6 C5 1_555 1_555
C7 C2 1_555 1_555
H5 C7 1_555 1_555
C8 O6 1_555 1_555
C9 C8 1_555 1_555
C10 C9 1_555 1_555
H6 C10 1_555 1_555
C11 C10 1_555 1_555
H7 C11 1_555 1_555
C12 C11 1_555 1_555
C13 C12 1_555 1_555
C14 C9 1_555 1_555
H8 C14 1_555 1_555
C15 O4 1_555 1_555
C16 C15 1_555 1_555
C17 C16 1_555 1_555
H9 C17 1_555 1_555
C18 C17 1_555 1_555
H10 C18 1_555 1_555
C19 C5 1_555 1_555
C20 C19 1_555 1_555
H11 C20 1_555 1_555
C21 C16 1_555 1_555
H12 C21 1_555 1_555
C22 O8 1_555 1_555
C23 C22 1_555 1_555
C24 C23 1_555 1_555
H13 C24 1_555 1_555
C25 C24 1_555 1_555
H14 C25 1_555 1_555
C26 C12 1_555 1_555
C27 N1 1_555 1_555
H15 C27 1_555 1_555
C28 N2 1_555 1_555
C29 C28 1_555 1_555
C30 C29 1_555 1_555
H16 C30 1_555 1_555
C31 C30 1_555 1_555
C32 C31 1_555 1_555
H17 C32 1_555 1_555
C33 C28 1_555 1_555
H18 C33 1_555 1_555
C34 N5 1_555 1_555
H19 C34 1_555 1_555
C35 N6 1_555 1_555
C36 C35 1_555 1_555
C37 C36 1_555 1_555
H20 C37 1_555 1_555
C38 O18 1_555 1_555
C39 C38 1_555 1_555
C40 C35 1_555 1_555
H22 C40 1_555 1_555
Zn2F O8F 1_555 1_555
O2F Zn3 1_555 1_555
O5F Zn1 1_555 1_555
O8F C22 1_555 1_555
O18F O18 1_555 1_555
C8F O6 1_555 1_555
C10F C9 1_555 1_555
C11F C10 1_555 1_555
C12F C11 1_555 1_555
C13F C12 1_555 1_555
C14F C9 1_555 1_555
C15F O5 1_555 1_555
C18G C19 1_555 1_555
C19G C18 1_555 1_555
C20G C21 1_555 1_555
C21G C20 1_555 1_555
C24F C23 1_555 1_555
C25F C26 1_555 1_555
C25_2 C26 1_555 1_555
C26_2 C25 1_555 1_555
C38F N8 1_555 1_555
O3 C1 1_555 1_555
O7 C8 1_555 1_555
O7 C8F 1_555 1_555
N8 O18F 1_555 1_555
C6 C7 1_555 1_555
C6 C34 1_555 1_555
C8 C8F 1_555 1_555
C9 C8F 1_555 1_555
C10 C10F 1_555 1_555
C11 C10F 1_555 1_555
C11 C11F 1_555 1_555
C12 C11F 1_555 1_555
C12 C12F 1_555 1_555
C13 C14 1_555 1_555
C13 C27 1_555 1_555
C13 C12F 1_555 1_555
C13 C13F 1_555 1_555
C14 C14F 1_555 1_555
C15 O5F 1_555 1_555
C26 C12F 1_555 1_555
C32 C33 1_555 1_555
C37 C38 1_555 1_555
C39 C40 1_555 1_555
O18F C38F 1_555 1_555
C10F C11F 1_555 1_555
C11F C12F 1_555 1_555
C12F C13F 1_555 1_555
C13F C14F 1_555 1_555
C19G C20G 1_555 1_555

#END
