
#######################################################################
#
#                 Cambridge Crystallographic Data Centre
#                                CCDC 
#
#######################################################################
#
# If this CIF has been generated from an entry in the Cambridge 
# Structural Database, then it will include bibliographic, chemical, 
# crystal, experimental, refinement or atomic coordinate data resulting 
# from the CCDC's data processing and validation procedures.
#
#######################################################################

data_EGEJUW
_chemical_formula_moiety         'C62 H42 N4 O22 Zn10'
_symmetry_cell_setting           monoclinic
_symmetry_space_group_name_H-M   'C 2/m'
_symmetry_Int_Tables_number      12
_space_group_name_Hall           '-C 2y'
loop_
_symmetry_equiv_pos_site_id
_symmetry_equiv_pos_as_xyz
1 x,y,z
2 1/2+x,1/2+y,z
3 -x,y,-z
4 1/2-x,1/2+y,-z
5 -x,-y,-z
6 1/2-x,1/2-y,-z
7 x,-y,z
8 1/2+x,1/2-y,z
_cell_length_a                   25.4810(5)
_cell_length_b                   22.4830(5)
_cell_length_c                   17.2330(4)
_cell_angle_alpha                90
_cell_angle_beta                 92.6960(10)
_cell_angle_gamma                90
_cell_volume                     9861.67
loop_
_atom_site_label
_atom_site_type_symbol
_atom_site_fract_x
_atom_site_fract_y
_atom_site_fract_z
Zn1 Zn 0.076(7) 0.0000 -0.830(10)
Zn2 Zn 0.133(5) 0.070(7) -0.692(8)
Zn3 Zn 0.202(8) 0.0000 -0.814(12)
O1 O 0.14(4) 0.0000 -0.76(6)
O2 O -0.29(6) -0.41(7) -0.81(9)
O3 O -0.31(4) -0.37(5) -0.70(7)
O4 O 0.06(4) -0.11(4) -0.70(6)
O5 O 0.03(5) -0.07(5) -0.81(8)
O6 O 0.09(5) 0.0000 -0.94(8)
O7 O 0.17(6) 0.0000 -0.93(9)
O8 O 0.13(4) -0.05(4) -1.58(5)
O9 O 0.24(9) 0.0000 -0.70(15)
O10 O 0.27(12) 0.0000 -0.86(14)
N1 N 0.30(9) 0.07(15) -0.62(19)
N2 N 0.34(15) 0.03(12) -0.94(18)
C1 C -0.28(7) -0.37(8) -0.76(11)
C2 C -0.24(4) -0.33(5) -0.76(8)
C3 C -0.24(5) -0.29(6) -0.70(7)
H1 H -0.2602 -0.2835 -0.6602
C4 C -0.19(6) -0.25(5) -0.70(7)
C5 C -0.16(5) -0.25(6) -0.75(9)
C6 C -0.16(5) -0.30(7) -0.81(8)
C7 C -0.20(6) -0.33(6) -0.81(7)
H2 H -0.2091 -0.3633 -0.8536
C8 C -0.11(3) -0.21(4) -0.75(5)
C9 C -0.10(4) -0.18(5) -0.82(6)
H3 H -0.1198 -0.1842 -0.8658
C10 C -0.05(4) -0.15(5) -0.82(5)
H4 H -0.0451 -0.1238 -0.8657
C11 C -0.02(3) -0.14(4) -0.75(5)
C12 C -0.03(4) -0.17(4) -0.69(5)
H5 H -0.0077 -0.1721 -0.6434
C13 C -0.07(4) -0.21(5) -0.69(5)
H6 H -0.0825 -0.2326 -0.6435
C14 C 0.03(4) -0.11(5) -0.76(6)
C15 C 0.13(7) 0.00(10) -0.97(10)
C16 C 0.14(2) 0.0000 -1.05(3)
C17 C 0.093(16) 0.02(3) -1.10(4)
H7 H 0.0625 0.0348 -1.0758
C18 C 0.096(14) 0.02(4) -1.18(4)
C19 C 0.141(15) 0.00(2) -1.21(3)
C20 C 0.18(2) -0.02(2) -1.17(2)
C21 C 0.18(3) -0.02(2) -1.09(2)
C22 C 0.142(17) 0.00(3) -1.30(3)
C23 C 0.14(3) -0.05(4) -1.34(3)
H10 H 0.1393 -0.0910 -1.3131
C24 C 0.14(3) -0.05(5) -1.42(3)
H11 H 0.1397 -0.0888 -1.4497
C25 C 0.14(3) 0.00(6) -1.46(3)
C26 C 0.14(4) 0.00(7) -1.55(3)
C27 C 0.22(3) -0.05(4) -1.207(16)
H12 H 0.2202 -0.0512 -1.2614
C34 C -0.1876 -0.1926 -0.6445
C36 C 0.2824 0.0328 -0.6821
H16 H 0.3072 0.0331 -0.7214
C37 C 0.2633 0.0745 -0.5576
H17 H 0.2263 0.0744 -0.5758
H18 H 0.2720 0.1127 -0.5329
H19 H 0.2695 0.0423 -0.5199
C38 C 0.3448 0.0972 -0.6144
H20 H 0.3740 0.0688 -0.6133
H21 H 0.3457 0.1198 -0.5657
H22 H 0.3480 0.1245 -0.6582
C39 C 0.2961 0.0238 -0.9107
H23 H 0.2732 0.0505 -0.9387
C40 C 0.3773 -0.0114 -0.8964
C41 C 0.3537 0.0716 -0.9906
H27 H 0.3220 0.0836 -1.0209
H28 H 0.3801 0.0573 -1.0258
H29 H 0.3678 0.1057 -0.9611
Zn2A Zn -0.367(5) -0.430(7) -0.692(8)
Zn2F Zn 0.133(5) -0.070(7) -0.692(8)
Zn2F_2 Zn 0.133(5) -0.070(7) -1.692(8)
Zn2_2 Zn 0.133(5) 0.070(7) -1.692(8)
Zn2G Zn -0.367(5) 0.430(7) -0.692(8)
Zn3A Zn -0.298(8) -0.5000 -0.814(12)
Zn3A_2 Zn -0.298(8) 0.5000 -0.814(12)
O1A O -0.36(4) -0.5000 -0.76(6)
O2F O -0.29(6) 0.41(7) -0.81(9)
O2A O 0.21(6) 0.09(7) -0.81(9)
O2G O 0.21(6) -0.09(7) -0.81(9)
O3F O -0.31(4) 0.37(5) -0.70(7)
O3A O 0.19(4) 0.13(5) -0.70(7)
O4F O 0.06(4) 0.11(4) -0.70(6)
O4G O -0.44(4) -0.39(4) -0.70(6)
O5F O 0.03(5) 0.07(5) -0.81(8)
O8F O 0.13(4) 0.05(4) -1.58(5)
O8F_2 O 0.13(4) 0.05(4) -0.58(5)
O8G O -0.37(4) -0.45(4) -0.58(5)
N1F N 0.30(9) -0.07(15) -0.62(19)
N2F N 0.34(15) -0.03(12) -0.94(18)
C1F C -0.28(7) 0.37(8) -0.76(11)
C2F C -0.24(4) 0.33(5) -0.76(8)
C3F C -0.24(5) 0.29(6) -0.70(7)
H1F H -0.2602 0.2835 -0.6602
C4F C -0.19(6) 0.25(5) -0.70(7)
C5F C -0.16(5) 0.25(6) -0.75(9)
C6F C -0.16(5) 0.30(7) -0.81(8)
C7F C -0.20(6) 0.33(6) -0.81(7)
H2F H -0.2091 0.3633 -0.8536
C8F C -0.11(3) 0.21(4) -0.75(5)
C9F C -0.10(4) 0.18(5) -0.82(6)
H3F H -0.1198 0.1842 -0.8658
C10F C -0.05(4) 0.15(5) -0.82(5)
H4F H -0.0451 0.1238 -0.8657
C11F C -0.02(3) 0.14(4) -0.75(5)
C12F C -0.03(4) 0.17(4) -0.69(5)
H5F H -0.0077 0.1721 -0.6434
C13F C -0.07(4) 0.21(5) -0.69(5)
H6F H -0.0825 0.2326 -0.6435
C14F C 0.03(4) 0.11(5) -0.76(6)
C17F C 0.093(16) -0.02(3) -1.10(4)
H7F H 0.0625 -0.0348 -1.0758
C18F C 0.096(14) -0.02(4) -1.18(4)
C20F C 0.18(2) 0.02(2) -1.17(2)
C21F C 0.18(3) 0.02(2) -1.09(2)
C23F C 0.14(3) 0.05(4) -1.34(3)
H10F H 0.1393 0.0910 -1.3131
C24F C 0.14(3) 0.05(5) -1.42(3)
H11F H 0.1397 0.0888 -1.4497
C27F C 0.22(3) 0.05(4) -1.207(16)
H12F H 0.2202 0.0512 -1.2614
C34F C -0.1876 0.1926 -0.6445
C36F C 0.2824 -0.0328 -0.6821
H16F H 0.3072 -0.0331 -0.7214
C37F C 0.2633 -0.0745 -0.5576
H17F H 0.2263 -0.0744 -0.5758
H18F H 0.2720 -0.1127 -0.5329
H19F H 0.2695 -0.0423 -0.5199
C38F C 0.3448 -0.0972 -0.6144
H20F H 0.3740 -0.0688 -0.6133
H21F H 0.3457 -0.1198 -0.5657
H22F H 0.3480 -0.1245 -0.6582
C39F C 0.2961 -0.0238 -0.9107
H23F H 0.2732 -0.0505 -0.9387
C40F C 0.3773 0.0114 -0.8964
C41F C 0.3537 -0.0716 -0.9906
H27F H 0.3220 -0.0836 -1.0209
H28F H 0.3801 -0.0573 -1.0258
H29F H 0.3678 -0.1057 -0.9611
loop_
_geom_bond_atom_site_label_1
_geom_bond_atom_site_label_2
_geom_bond_site_symmetry_1
_geom_bond_site_symmetry_2
Zn1 O1 1_555 1_555
Zn2 O1 1_555 1_555
Zn3 O1 1_555 1_555
O1 Zn2F 1_555 1_555
O2 C1 1_555 1_555
O3 C1 1_555 1_555
O4 C14 1_555 1_555
O5 Zn1 1_555 1_555
O6 Zn1 1_555 1_555
O7 Zn3 1_555 1_555
O8 C26 1_555 1_555
O9 Zn3 1_555 1_555
O10 Zn3 1_555 1_555
N1 C36 1_555 1_555
N2 C39 1_555 1_555
C1 C2 1_555 1_555
C2 C3 1_555 1_555
C3 H1 1_555 1_555
C4 C3 1_555 1_555
C5 C4 1_555 1_555
C6 C5 1_555 1_555
C7 C2 1_555 1_555
H2 C7 1_555 1_555
C8 C5 1_555 1_555
C9 C8 1_555 1_555
H3 C9 1_555 1_555
C10 C9 1_555 1_555
H4 C10 1_555 1_555
C11 C10 1_555 1_555
C12 C11 1_555 1_555
H5 C12 1_555 1_555
C13 C8 1_555 1_555
H6 C13 1_555 1_555
C14 O5 1_555 1_555
C15 O6 1_555 1_555
C16 C15 1_555 1_555
C17 C16 1_555 1_555
H7 C17 1_555 1_555
C18 C17 1_555 1_555
C19 C18 1_555 1_555
C20 C19 1_555 1_555
C21 C16 1_555 1_555
C22 C19 1_555 1_555
C23 C22 1_555 1_555
H10 C23 1_555 1_555
C24 C23 1_555 1_555
H11 C24 1_555 1_555
C25 C24 1_555 1_555
C26 C25 1_555 1_555
C27 C20 1_555 1_555
H12 C27 1_555 1_555
C34 C4 1_555 1_555
C36 O9 1_555 1_555
H16 C36 1_555 1_555
C37 N1 1_555 1_555
H17 C37 1_555 1_555
H18 C37 1_555 1_555
H19 C37 1_555 1_555
C38 N1 1_555 1_555
H20 C38 1_555 1_555
H21 C38 1_555 1_555
H22 C38 1_555 1_555
C39 O10 1_555 1_555
H23 C39 1_555 1_555
C40 N2 1_555 1_555
C41 N2 1_555 1_555
H27 C41 1_555 1_555
H28 C41 1_555 1_555
H29 C41 1_555 1_555
Zn2A O3 1_555 1_555
Zn2F O4 1_555 1_555
Zn2F_2 O8 1_555 1_555
Zn2_2 O8F 1_555 1_555
Zn2G O3F 1_555 1_555
Zn3A O2 1_555 1_555
Zn3A_2 O2F 1_555 1_555
O1A Zn2A 1_555 1_555
O2F C1F 1_555 1_555
O2A Zn3 1_555 1_555
O2G Zn3 1_555 1_555
O3F C1F 1_555 1_555
O3A Zn2 1_555 1_555
O4F Zn2 1_555 1_555
O4G Zn2A 1_555 1_555
O5F Zn1 1_555 1_555
O8F C26 1_555 1_555
O8F_2 Zn2 1_555 1_555
O8G Zn2A 1_555 1_555
N1F C36F 1_555 1_555
N2F N2 1_555 1_555
C1F C2F 1_555 1_555
C2F C3F 1_555 1_555
C3F H1F 1_555 1_555
C4F C3F 1_555 1_555
C5F C4F 1_555 1_555
C6F C5F 1_555 1_555
C7F C2F 1_555 1_555
H2F C7F 1_555 1_555
C8F C5F 1_555 1_555
C9F C8F 1_555 1_555
H3F C9F 1_555 1_555
C10F C9F 1_555 1_555
H4F C10F 1_555 1_555
C11F C10F 1_555 1_555
C12F C11F 1_555 1_555
H5F C12F 1_555 1_555
C13F C8F 1_555 1_555
H6F C13F 1_555 1_555
C14F O4F 1_555 1_555
C17F C16 1_555 1_555
H7F C17F 1_555 1_555
C18F C17 1_555 1_555
C20F C19 1_555 1_555
C21F C16 1_555 1_555
C23F C22 1_555 1_555
H10F C23F 1_555 1_555
C24F C25 1_555 1_555
H11F C24F 1_555 1_555
C27F C20F 1_555 1_555
H12F C27F 1_555 1_555
C34F C4F 1_555 1_555
C36F O9 1_555 1_555
H16F C36F 1_555 1_555
C37F N1F 1_555 1_555
H17F C37F 1_555 1_555
H18F C37F 1_555 1_555
H19F C37F 1_555 1_555
C38F N1F 1_555 1_555
H20F C38F 1_555 1_555
H21F C38F 1_555 1_555
H22F C38F 1_555 1_555
C39F O10 1_555 1_555
H23F C39F 1_555 1_555
C40F N2 1_555 1_555
C41F N2F 1_555 1_555
H27F C41F 1_555 1_555
H28F C41F 1_555 1_555
H29F C41F 1_555 1_555
O7 C15 1_555 1_555
N2 C39F 1_555 1_555
C6 C7 1_555 1_555
C11 C14 1_555 1_555
C12 C13 1_555 1_555
C17 C17F 1_555 1_555
C18 C17F 1_555 1_555
C18 C18F 1_555 1_555
C19 C18F 1_555 1_555
C20 C21 1_555 1_555
C20 C20F 1_555 1_555
C20 C21F 1_555 1_555
C21 C20F 1_555 1_555
C21 C21F 1_555 1_555
C36 C36F 1_555 1_555
C39 N2F 1_555 1_555
C39 C39F 1_555 1_555
C40 N2F 1_555 1_555
C40 C40F 1_555 1_555
Zn3A O1A 1_555 1_555
O5F C14F 1_555 1_555
N2F C39F 1_555 1_555
N2F C40F 1_555 1_555
C6F C7F 1_555 1_555
C11F C14F 1_555 1_555
C12F C13F 1_555 1_555
C17F C18F 1_555 1_555
C20F C21F 1_555 1_555
C23F C24F 1_555 1_555

#END
