
#######################################################################
#
#                 Cambridge Crystallographic Data Centre
#                                CCDC 
#
#######################################################################
#
# If this CIF has been generated from an entry in the Cambridge 
# Structural Database, then it will include bibliographic, chemical, 
# crystal, experimental, refinement or atomic coordinate data resulting 
# from the CCDC's data processing and validation procedures.
#
#######################################################################

data_MIJFIU
_chemical_formula_moiety         '(C52 H64 Cl4 Cu2 N8 O4)n'
_symmetry_cell_setting           tetragonal
_symmetry_space_group_name_H-M   'I 41/a'
_symmetry_Int_Tables_number      88
_space_group_name_Hall           '-I 4ad'
loop_
_symmetry_equiv_pos_site_id
_symmetry_equiv_pos_as_xyz
1 x,y,z
2 3/4-y,1/4+x,1/4+z
3 1/4+y,1/4-x,1/4+z
4 1/2+x,1/2+y,1/2+z
5 1/4-y,3/4+x,3/4+z
6 x,1/2+y,-z
7 1/2+x,y,1/2-z
8 1/4-y,1/4+x,1/4-z
9 -x,-y,-z
10 1/4+y,3/4-x,3/4-z
11 3/4-y,3/4+x,3/4-z
12 1/2-x,1/2-y,1/2-z
13 3/4+y,1/4-x,1/4-z
14 -x,1/2-y,z
15 1/2-x,-y,1/2+z
16 3/4+y,3/4-x,3/4+z
_cell_length_a                   17.2210(7)
_cell_length_b                   17.2210(7)
_cell_length_c                   40.9649(17)
_cell_angle_alpha                90
_cell_angle_beta                 90
_cell_angle_gamma                90
_cell_volume                     12148.7
loop_
_atom_site_label
_atom_site_type_symbol
_atom_site_fract_x
_atom_site_fract_y
_atom_site_fract_z
O1 O 0.427(3) 0.560(3) 0.1118(15)
O2 O 0.574(2) 0.606(2) 0.0904(10)
O3 O 0.5000 0.7500 0.100(2)
O5 O 0.630(4) 0.652(4) 0.0346(18)
Cu1 Cu 0.0000 -0.2500 0.16412(3)
Cl1 Cl 0.1236(2) -0.14153(14) 0.16360(6)
N1 N -0.0609(5) -0.1898(4) 0.12971(16)
C1 C -0.1386(6) -0.1838(5) 0.1307(2)
H1 H -0.1648 -0.2084 0.1477
C2 C -0.1813(6) -0.1438(4) 0.1084(2)
H2 H -0.2350 -0.1415 0.1104
C3 C -0.1444(5) -0.1065(5) 0.08261(17)
C4 C -0.0645(6) -0.1097(5) 0.0818(2)
H3 H -0.0375 -0.0831 0.0656
C5 C -0.0241(6) -0.1517(5) 0.10486(19)
H4 H 0.0297 -0.1543 0.1035
C6 C -0.1918(6) -0.0605(5) 0.0575(2)
H5 H -0.2194 -0.0194 0.0688
H6 H -0.1563 -0.0364 0.0422
C7 C -0.2498(5) -0.1085(5) 0.0386(2)
H7 H -0.2852 -0.1334 0.0537
H8 H -0.2226 -0.1489 0.0267
C8 C -0.2961(6) -0.0595(6) 0.0147(2)
H9 H -0.3288 -0.0241 0.0269
H10 H -0.2603 -0.0286 0.0018
N2 N -0.4370(4) -0.1936(5) -0.05113(16)
C9 C -0.3591(5) -0.1960(6) -0.0523(2)
H11 H -0.3354 -0.2273 -0.0679
C10 C -0.3127(5) -0.1535(7) -0.0311(3)
H12 H -0.2589 -0.1570 -0.0326
C11 C -0.3460(5) -0.1063(6) -0.0079(2)
C12 C -0.4264(6) -0.1049(7) -0.0067(2)
H13 H -0.4515 -0.0734 0.0085
C13 C -0.4696(6) -0.1504(8) -0.0280(2)
H14 H -0.5234 -0.1507 -0.0261
Cl1M Cl -0.1236(2) -0.35847(14) 0.16360(6)
N1M N 0.0609(5) -0.3102(4) 0.12971(16)
C1M C 0.1386(6) -0.3162(5) 0.1307(2)
H1M H 0.1648 -0.2916 0.1477
C2M C 0.1813(6) -0.3562(4) 0.1084(2)
H2M H 0.2350 -0.3585 0.1104
C3M C 0.1444(5) -0.3935(5) 0.08261(17)
C4M C 0.0645(6) -0.3903(5) 0.0818(2)
H3M H 0.0375 -0.4169 0.0656
C5M C 0.0241(6) -0.3483(5) 0.10486(19)
H4M H -0.0297 -0.3457 0.1035
C6M C 0.1918(6) -0.4395(5) 0.0575(2)
H5M H 0.2194 -0.4806 0.0688
H6M H 0.1563 -0.4636 0.0422
C7M C 0.2498(5) -0.3915(5) 0.0386(2)
H7M H 0.2852 -0.3666 0.0537
H8M H 0.2226 -0.3511 0.0267
C8M C 0.2961(6) -0.4405(6) 0.0147(2)
H9M H 0.3288 -0.4759 0.0269
H10M H 0.2603 -0.4714 0.0018
N2M N 0.4370(4) -0.3064(5) -0.05113(16)
C9M C 0.3591(5) -0.3040(6) -0.0523(2)
H11M H 0.3354 -0.2727 -0.0679
C10M C 0.3127(5) -0.3465(7) -0.0311(3)
H12M H 0.2589 -0.3430 -0.0326
C11M C 0.3460(5) -0.3937(6) -0.0079(2)
C12M C 0.4264(6) -0.3951(7) -0.0067(2)
H13M H 0.4515 -0.4266 0.0085
C13M C 0.4696(6) -0.3496(8) -0.0280(2)
H14M H 0.5234 -0.3493 -0.0261
N2A N -0.0564(5) -0.1870(4) 0.19887(16)
N2B N 0.0564(5) -0.3130(4) 0.19887(16)
Cu1D Cu -0.5000 -0.2500 -0.08588(3)
Cu1D_2 Cu 0.5000 -0.2500 -0.08588(3)
Cu2 Cu -0.0000 0.2500 0.22114(3)
Cl2 Cl 0.10851(9) 0.36147(10) 0.22147(4)
N3 N -0.0631(3) 0.3080(3) 0.25561(13)
C14 C -0.1406(4) 0.3116(4) 0.25379(16)
H15 H -0.1653 0.2836 0.2374
C15 C -0.1858(4) 0.3544(4) 0.27486(17)
H16 H -0.2395 0.3550 0.2724
C16 C -0.1514(4) 0.3962(4) 0.29958(17)
C17 C -0.0714(4) 0.3925(4) 0.30222(17)
H17 H -0.0459 0.4190 0.3189
C18 C -0.0296(4) 0.3489(4) 0.27978(17)
H18 H 0.0242 0.3479 0.2816
C19 C -0.2011(4) 0.4431(5) 0.32300(19)
H19 H -0.2349 0.4770 0.3105
H20 H -0.1677 0.4755 0.3363
C20 C -0.2509(4) 0.3917(4) 0.34540(16)
H21 H -0.2802 0.3550 0.3323
H22 H -0.2175 0.3624 0.3600
C21 C -0.3062(4) 0.4412(5) 0.36523(18)
H23 H -0.2766 0.4814 0.3762
H24 H -0.3422 0.4666 0.3505
N4 N -0.4380(3) 0.3091(3) 0.43574(13)
C22 C -0.3600(4) 0.3135(4) 0.43757(17)
H25 H -0.3346 0.2871 0.4542
C23 C -0.3164(4) 0.3562(4) 0.41543(17)
H26 H -0.2626 0.3578 0.4176
C24 C -0.3517(4) 0.3964(4) 0.39024(17)
C25 C -0.4327(4) 0.3912(4) 0.38875(16)
H27 H -0.4598 0.4165 0.3722
C26 C -0.4728(4) 0.3482(4) 0.41197(16)
H28 H -0.5267 0.3466 0.4108
Cl2M Cl -0.10851(9) 0.13853(10) 0.22147(4)
N3M N 0.0631(3) 0.1920(3) 0.25561(13)
C14M C 0.1406(4) 0.1884(4) 0.25379(16)
H15M H 0.1653 0.2164 0.2374
C15M C 0.1858(4) 0.1456(4) 0.27486(17)
H16M H 0.2395 0.1450 0.2724
C16M C 0.1514(4) 0.1038(4) 0.29958(17)
C17M C 0.0714(4) 0.1075(4) 0.30222(17)
H17M H 0.0459 0.0810 0.3189
C18M C 0.0296(4) 0.1511(4) 0.27978(17)
H18M H -0.0242 0.1521 0.2816
C19M C 0.2011(4) 0.0569(5) 0.32300(19)
H19M H 0.2349 0.0230 0.3105
H20M H 0.1677 0.0245 0.3363
C20M C 0.2509(4) 0.1083(4) 0.34540(16)
H21M H 0.2802 0.1450 0.3323
H22M H 0.2175 0.1376 0.3600
C21M C 0.3062(4) 0.0588(5) 0.36523(18)
H23M H 0.2766 0.0186 0.3762
H24M H 0.3422 0.0334 0.3505
N4M N 0.4380(3) 0.1909(3) 0.43574(13)
C22M C 0.3600(4) 0.1865(4) 0.43757(17)
H25M H 0.3346 0.2129 0.4542
C23M C 0.3164(4) 0.1438(4) 0.41543(17)
H26M H 0.2626 0.1422 0.4176
C24M C 0.3517(4) 0.1036(4) 0.39024(17)
C25M C 0.4327(4) 0.1088(4) 0.38875(16)
H27M H 0.4598 0.0835 0.3722
C26M C 0.4728(4) 0.1518(4) 0.41197(16)
H28M H 0.5267 0.1534 0.4108
N4D N -0.0591(3) 0.3120(3) 0.18574(13)
N4O N 0.0591(3) 0.1880(3) 0.18574(13)
Cu2A Cu -0.5000 0.2500 0.47114(3)
Cu2A_2 Cu 0.5000 0.2500 0.47114(3)
loop_
_geom_bond_atom_site_label_1
_geom_bond_atom_site_label_2
_geom_bond_site_symmetry_1
_geom_bond_site_symmetry_2
Cu1 Cl1 1_555 1_555
Cu2 Cl2 1_555 1_555
N1 Cu1 1_555 1_555
C1 N1 1_555 1_555
H1 C1 1_555 1_555
C2 C1 1_555 1_555
H2 C2 1_555 1_555
C3 C2 1_555 1_555
C4 C3 1_555 1_555
H3 C4 1_555 1_555
C5 N1 1_555 1_555
H4 C5 1_555 1_555
C6 C3 1_555 1_555
H5 C6 1_555 1_555
H6 C6 1_555 1_555
C7 C6 1_555 1_555
H7 C7 1_555 1_555
H8 C7 1_555 1_555
C8 C7 1_555 1_555
H9 C8 1_555 1_555
H10 C8 1_555 1_555
N2 C9 1_555 1_555
C9 H11 1_555 1_555
C10 C9 1_555 1_555
H12 C10 1_555 1_555
C11 C8 1_555 1_555
C12 C11 1_555 1_555
H13 C12 1_555 1_555
C13 N2 1_555 1_555
H14 C13 1_555 1_555
N3 Cu2 1_555 1_555
C14 N3 1_555 1_555
H15 C14 1_555 1_555
C15 C14 1_555 1_555
H16 C15 1_555 1_555
C16 C15 1_555 1_555
C17 C16 1_555 1_555
H17 C17 1_555 1_555
C18 N3 1_555 1_555
H18 C18 1_555 1_555
C19 C16 1_555 1_555
H19 C19 1_555 1_555
H20 C19 1_555 1_555
C20 C19 1_555 1_555
H21 C20 1_555 1_555
H22 C20 1_555 1_555
C21 C20 1_555 1_555
H23 C21 1_555 1_555
H24 C21 1_555 1_555
N4 C22 1_555 1_555
C22 H25 1_555 1_555
C23 C22 1_555 1_555
H26 C23 1_555 1_555
C24 C21 1_555 1_555
C25 C24 1_555 1_555
H27 C25 1_555 1_555
C26 N4 1_555 1_555
H28 C26 1_555 1_555
Cl1M Cu1 1_555 1_555
N1M Cu1 1_555 1_555
C1M N1M 1_555 1_555
H1M C1M 1_555 1_555
C2M C1M 1_555 1_555
H2M C2M 1_555 1_555
C3M C2M 1_555 1_555
C4M C3M 1_555 1_555
H3M C4M 1_555 1_555
C5M N1M 1_555 1_555
H4M C5M 1_555 1_555
C6M C3M 1_555 1_555
H5M C6M 1_555 1_555
H6M C6M 1_555 1_555
C7M C6M 1_555 1_555
H7M C7M 1_555 1_555
H8M C7M 1_555 1_555
C8M C7M 1_555 1_555
H9M C8M 1_555 1_555
H10M C8M 1_555 1_555
N2M C9M 1_555 1_555
C9M H11M 1_555 1_555
C10M C9M 1_555 1_555
H12M C10M 1_555 1_555
C11M C8M 1_555 1_555
C12M C11M 1_555 1_555
H13M C12M 1_555 1_555
C13M N2M 1_555 1_555
H14M C13M 1_555 1_555
Cl2M Cu2 1_555 1_555
N3M Cu2 1_555 1_555
C14M N3M 1_555 1_555
H15M C14M 1_555 1_555
C15M C14M 1_555 1_555
H16M C15M 1_555 1_555
C16M C15M 1_555 1_555
C17M C16M 1_555 1_555
H17M C17M 1_555 1_555
C18M N3M 1_555 1_555
H18M C18M 1_555 1_555
C19M C16M 1_555 1_555
H19M C19M 1_555 1_555
H20M C19M 1_555 1_555
C20M C19M 1_555 1_555
H21M C20M 1_555 1_555
H22M C20M 1_555 1_555
C21M C20M 1_555 1_555
H23M C21M 1_555 1_555
H24M C21M 1_555 1_555
N4M C22M 1_555 1_555
C22M H25M 1_555 1_555
C23M C22M 1_555 1_555
H26M C23M 1_555 1_555
C24M C21M 1_555 1_555
C25M C24M 1_555 1_555
H27M C25M 1_555 1_555
C26M N4M 1_555 1_555
H28M C26M 1_555 1_555
N2A Cu1 1_555 1_555
N2B Cu1 1_555 1_555
N4D Cu2 1_555 1_555
N4O Cu2 1_555 1_555
Cu1D N2 1_555 1_555
Cu2A N4 1_555 1_555
Cu1D_2 N2M 1_555 1_555
Cu2A_2 N4M 1_555 1_555
C4 C5 1_555 1_555
C10 C11 1_555 1_555
C12 C13 1_555 1_555
C17 C18 1_555 1_555
C23 C24 1_555 1_555
C25 C26 1_555 1_555
C4M C5M 1_555 1_555
C10M C11M 1_555 1_555
C12M C13M 1_555 1_555
C17M C18M 1_555 1_555
C23M C24M 1_555 1_555
C25M C26M 1_555 1_555

#END
