
#######################################################################
#
#                 Cambridge Crystallographic Data Centre
#                                CCDC 
#
#######################################################################
#
# If this CIF has been generated from an entry in the Cambridge 
# Structural Database, then it will include bibliographic, chemical, 
# crystal, experimental, refinement or atomic coordinate data resulting 
# from the CCDC's data processing and validation procedures.
#
#######################################################################

data_JOLYEQ
_chemical_formula_moiety         '(C48 H54 N6 O23 P6 Zr1)n'
_symmetry_cell_setting           rhombohedral
_symmetry_space_group_name_H-M   'R -3'
_symmetry_Int_Tables_number      148
_space_group_name_Hall           '-R 3'
loop_
_symmetry_equiv_pos_site_id
_symmetry_equiv_pos_as_xyz
1 x,y,z
2 -y,x-y,z
3 -x+y,-x,z
4 1/3+x,2/3+y,2/3+z
5 1/3-y,2/3+x-y,2/3+z
6 1/3-x+y,2/3-x,2/3+z
7 2/3+x,1/3+y,1/3+z
8 2/3-y,1/3+x-y,1/3+z
9 2/3-x+y,1/3-x,1/3+z
10 -x,-y,-z
11 y,-x+y,-z
12 x-y,x,-z
13 2/3-x,1/3-y,1/3-z
14 2/3+y,1/3-x+y,1/3-z
15 2/3+x-y,1/3+x,1/3-z
16 1/3-x,2/3-y,2/3-z
17 1/3+y,2/3-x+y,2/3-z
18 1/3+x-y,2/3+x,2/3-z
_cell_length_a                   60.6741(15)
_cell_length_b                   60.6741
_cell_length_c                   5.12775(27)
_cell_angle_alpha                90
_cell_angle_beta                 90
_cell_angle_gamma                120
_cell_volume                     16348
loop_
_atom_site_label
_atom_site_type_symbol
_atom_site_fract_x
_atom_site_fract_y
_atom_site_fract_z
_atom_site_U_iso_or_equiv
_atom_site_thermal_displace_type
C1 C 0.1061(6) 0.5866(6) 0.542(7) 0.0153 Uiso
C2 C 0.0903(7) 0.5748(7) 0.751(7) 0.0153 Uiso
C3 C 0.0761(5) 0.5847(5) 0.861(6) 0.0153 Uiso
C4 C 0.0834(6) 0.6095(7) 0.807(8) 0.0153 Uiso
C5 C 0.1026(8) 0.6228(7) 0.615(7) 0.0153 Uiso
C6 C 0.1148(5) 0.6112(5) 0.492(6) 0.0153 Uiso
P1 P 0.02345(29) 0.54672(27) 1.0283(33) 0.0153 Uiso
O1 O 0.0178(5) 0.5278(5) 0.788(5) 0.0153 Uiso
O2 O 0.0116(5) 0.5294(5) 1.248(6) 0.0153 Uiso
C7 C 0.1339(5) 0.6257(5) 0.261(5) 0.0153 Uiso
N1 N 0.1495(6) 0.6176(6) 0.131(6) 0.0153 Uiso
O3 O 0.0093(8) 0.5619(7) 0.969(7) 0.0153 Uiso
C8 C 0.0587(5) 0.5715(7) 1.100(6) 0.0153 Uiso
N2 N 0.1435(5) 0.6499(5) 0.260(5) 0.0153 Uiso
C9 C 0.1554(5) 0.6626(5) 0.054(5) 0.0153 Uiso
N3 N 0.1686(6) 0.6550(5) -0.097(6) 0.0153 Uiso
C10 C 0.1638(5) 0.6306(5) -0.072(6) 0.0153 Uiso
C11 C 0.1613(5) 0.6880(5) 0.072(5) 0.0153 Uiso
C12 C 0.1479(7) 0.6925(6) 0.255(6) 0.0153 Uiso
C13 C 0.1519(7) 0.7167(6) 0.307(7) 0.0153 Uiso
C14 C 0.1668(5) 0.7359(6) 0.148(6) 0.0153 Uiso
C15 C 0.1777(8) 0.7311(7) -0.068(6) 0.0153 Uiso
C16 C 0.1767(6) 0.7067(7) -0.095(7) 0.0153 Uiso
C17 C 0.1803(5) 0.6198(6) -0.225(6) 0.0153 Uiso
C18 C 0.1872(6) 0.6242(7) -0.492(7) 0.0153 Uiso
C19 C 0.1798(6) 0.5987(6) -0.126(7) 0.0153 Uiso
C20 C 0.1971(6) 0.5905(7) -0.228(7) 0.0153 Uiso
C21 C 0.2053(5) 0.5950(6) -0.482(6) 0.0153 Uiso
C22 C 0.2041(7) 0.6148(7) -0.610(7) 0.0153 Uiso
C23 C 0.2127(5) 0.5782(7) -0.614(8) 0.0153 Uiso
P2 P 0.24285(26) 0.58427(30) -0.539(4) 0.0153 Uiso
C24 C 0.1682(7) 0.7615(6) 0.193(6) 0.0153 Uiso
P3 P 0.15332(33) 0.76875(29) -0.063(4) 0.0153 Uiso
O4 O 0.1563(8) 0.7557(7) -0.294(6) 0.0153 Uiso
O5 O 0.1652(4) 0.79957(29) -0.109(6) 0.0153 Uiso
O6 O 0.1229(6) 0.7559(8) -0.004(8) 0.0153 Uiso
O7 O 0.2536(7) 0.5811(7) -0.783(7) 0.0153 Uiso
O8 O 0.2586(5) 0.6091(6) -0.425(7) 0.0153 Uiso
O9 O 0.2437(7) 0.5672(7) -0.344(7) 0.0153 Uiso
Zr1 Zr -0.000 0.500 0.500 0.0153 Uiso
C1I C -0.1061(6) 0.4134(6) 0.458(7) 0.0153 Uiso
C2I C -0.0903(7) 0.4252(7) 0.249(7) 0.0153 Uiso
C3I C -0.0761(5) 0.4153(5) 0.139(6) 0.0153 Uiso
C4I C -0.0834(6) 0.3905(7) 0.193(8) 0.0153 Uiso
C5I C -0.1026(8) 0.3772(7) 0.385(7) 0.0153 Uiso
C6I C -0.1148(5) 0.3888(5) 0.508(6) 0.0153 Uiso
P1I P -0.02345(29) 0.45328(27) -0.0283(33) 0.0153 Uiso
O1I O -0.0178(5) 0.4722(5) 0.212(5) 0.0153 Uiso
O2I O -0.0116(5) 0.4706(5) -0.248(6) 0.0153 Uiso
C7I C -0.1339(5) 0.3743(5) 0.739(5) 0.0153 Uiso
N1I N -0.1495(6) 0.3824(6) 0.869(6) 0.0153 Uiso
O3I O -0.0093(8) 0.4381(7) 0.031(7) 0.0153 Uiso
C8I C -0.0587(5) 0.4285(7) -0.100(6) 0.0153 Uiso
N2I N -0.1435(5) 0.3501(5) 0.740(5) 0.0153 Uiso
C9I C -0.1554(5) 0.3374(5) 0.946(5) 0.0153 Uiso
N3I N -0.1686(6) 0.3450(5) 1.097(6) 0.0153 Uiso
C10I C -0.1638(5) 0.3694(5) 1.072(6) 0.0153 Uiso
C11I C -0.1613(5) 0.3120(5) 0.928(5) 0.0153 Uiso
C12I C -0.1479(7) 0.3075(6) 0.745(6) 0.0153 Uiso
C13I C -0.1519(7) 0.2833(6) 0.693(7) 0.0153 Uiso
C14I C -0.1668(5) 0.2641(6) 0.852(6) 0.0153 Uiso
C15I C -0.1777(8) 0.2689(7) 1.068(6) 0.0153 Uiso
C16I C -0.1767(6) 0.2933(7) 1.095(7) 0.0153 Uiso
C17I C -0.1803(5) 0.3802(6) 1.225(6) 0.0153 Uiso
C18I C -0.1872(6) 0.3758(7) 1.492(7) 0.0153 Uiso
C19I C -0.1798(6) 0.4013(6) 1.126(7) 0.0153 Uiso
C20I C -0.1971(6) 0.4095(7) 1.228(7) 0.0153 Uiso
C21I C -0.2053(5) 0.4050(6) 1.482(6) 0.0153 Uiso
C22I C -0.2041(7) 0.3852(7) 1.610(7) 0.0153 Uiso
C23I C -0.2127(5) 0.4218(7) 1.614(8) 0.0153 Uiso
P2I P -0.24285(26) 0.41573(30) 1.539(4) 0.0153 Uiso
C24I C -0.1682(7) 0.2385(6) 0.807(6) 0.0153 Uiso
P3I P -0.15332(33) 0.23125(29) 1.063(4) 0.0153 Uiso
O4I O -0.1563(8) 0.2443(7) 1.294(6) 0.0153 Uiso
O5I O -0.1652(4) 0.20043(29) 1.109(6) 0.0153 Uiso
O6I O -0.1229(6) 0.2441(8) 1.004(8) 0.0153 Uiso
O7I O -0.2536(7) 0.4189(7) 1.783(7) 0.0153 Uiso
O8I O -0.2586(5) 0.3909(6) 1.425(7) 0.0153 Uiso
O9I O -0.2437(7) 0.4328(7) 1.344(7) 0.0153 Uiso
O2_2 O 0.0116(5) 0.5294(5) 0.248(6) 0.0153 Uiso
O2I_2 O -0.0116(5) 0.4706(5) 0.752(6) 0.0153 Uiso
O5E O -0.03230(49) 0.5015(4) 0.558(6) 0.0153 Uiso
O5N O 0.03230(49) 0.4985(4) 0.442(6) 0.0153 Uiso
Zr1_2 Zr -0.000 0.500 -0.500 0.0153 Uiso
Zr1_3 Zr -0.000 0.500 1.500 0.0153 Uiso
Zr1D Zr -0.166667 0.166667 1.166667 0.0153 Uiso
Zr1M Zr 0.166667 0.833333 -0.166667 0.0153 Uiso
O10 O 0.6007(11) 0.6296(9) 0.582(9) 0.0153 Uiso
O11 O 0.9686(7) 0.9702(7) 0.321(9) 0.0153 Uiso
O12 O 0.3584(10) 1.0326(9) 0.529(10) 0.0153 Uiso
O13 O 0.3704(9) 0.4063(10) 0.424(10) 0.0153 Uiso
O14 O 0.6039(9) 0.9648(9) 0.917(10) 0.0153 Uiso
loop_
_geom_bond_atom_site_label_1
_geom_bond_atom_site_label_2
_geom_bond_site_symmetry_1
_geom_bond_site_symmetry_2
C1 C2 1_555 1_555
C2 C3 1_555 1_555
C3 C4 1_555 1_555
C4 C5 1_555 1_555
C5 C6 1_555 1_555
C6 C1 1_555 1_555
P1 O1 1_555 1_555
O1 Zr1 1_555 1_555
O2 P1 1_555 1_555
C7 C6 1_555 1_555
N1 C7 1_555 1_555
O3 P1 1_555 1_555
C8 C3 1_555 1_555
N2 C7 1_555 1_555
C9 N2 1_555 1_555
N3 C9 1_555 1_555
C10 N1 1_555 1_555
C11 C9 1_555 1_555
C12 C11 1_555 1_555
C13 C12 1_555 1_555
C14 C13 1_555 1_555
C15 C14 1_555 1_555
C16 C11 1_555 1_555
C17 C10 1_555 1_555
C18 C17 1_555 1_555
C19 C17 1_555 1_555
C20 C19 1_555 1_555
C21 C20 1_555 1_555
C22 C18 1_555 1_555
C23 C21 1_555 1_555
P2 C23 1_555 1_555
C24 C14 1_555 1_555
P3 C24 1_555 1_555
O4 P3 1_555 1_555
O5 P3 1_555 1_555
O6 P3 1_555 1_555
O7 P2 1_555 1_555
O8 P2 1_555 1_555
O9 P2 1_555 1_555
Zr1 O1I 1_555 1_555
C1I C2I 1_555 1_555
C2I C3I 1_555 1_555
C3I C4I 1_555 1_555
C4I C5I 1_555 1_555
C5I C6I 1_555 1_555
C6I C1I 1_555 1_555
P1I O1I 1_555 1_555
O2I P1I 1_555 1_555
C7I C6I 1_555 1_555
N1I C7I 1_555 1_555
O3I P1I 1_555 1_555
C8I C3I 1_555 1_555
N2I C7I 1_555 1_555
C9I N2I 1_555 1_555
N3I C9I 1_555 1_555
C10I N1I 1_555 1_555
C11I C9I 1_555 1_555
C12I C11I 1_555 1_555
C13I C12I 1_555 1_555
C14I C13I 1_555 1_555
C15I C14I 1_555 1_555
C16I C11I 1_555 1_555
C17I C10I 1_555 1_555
C18I C17I 1_555 1_555
C19I C17I 1_555 1_555
C20I C19I 1_555 1_555
C21I C20I 1_555 1_555
C22I C18I 1_555 1_555
C23I C21I 1_555 1_555
P2I C23I 1_555 1_555
C24I C14I 1_555 1_555
P3I C24I 1_555 1_555
O4I P3I 1_555 1_555
O5I P3I 1_555 1_555
O6I P3I 1_555 1_555
O7I P2I 1_555 1_555
O8I P2I 1_555 1_555
O9I P2I 1_555 1_555
O2_2 Zr1 1_555 1_555
O2I_2 Zr1 1_555 1_555
O5E Zr1 1_555 1_555
O5N Zr1 1_555 1_555
Zr1_2 O2I 1_555 1_555
Zr1_3 O2 1_555 1_555
Zr1D O5I 1_555 1_555
Zr1M O5 1_555 1_555
P1 C8 1_555 1_555
N3 C10 1_555 1_555
C15 C16 1_555 1_555
C21 C22 1_555 1_555
P1I C8I 1_555 1_555
N3I C10I 1_555 1_555
C15I C16I 1_555 1_555
C21I C22I 1_555 1_555

#END
