
#######################################################################
#
#                 Cambridge Crystallographic Data Centre
#                                CCDC 
#
#######################################################################
#
# If this CIF has been generated from an entry in the Cambridge 
# Structural Database, then it will include bibliographic, chemical, 
# crystal, experimental, refinement or atomic coordinate data resulting 
# from the CCDC's data processing and validation procedures.
#
#######################################################################

data_MORZID
_chemical_formula_moiety         '(C7 H10 Al6 N2 O24 P6 1-)n'
_symmetry_cell_setting           orthorhombic
_symmetry_space_group_name_H-M   'P 21 21 21'
_symmetry_Int_Tables_number      19
_space_group_name_Hall           'P 2ac 2ab'
loop_
_symmetry_equiv_pos_site_id
_symmetry_equiv_pos_as_xyz
1 x,y,z
2 1/2-x,-y,1/2+z
3 -x,1/2+y,1/2-z
4 1/2+x,1/2-y,-z
_cell_length_a                   8.2319(18)
_cell_length_b                   9.165(2)
_cell_length_c                   17.580(4)
_cell_angle_alpha                90
_cell_angle_beta                 90
_cell_angle_gamma                90
_cell_volume                     1326.33
loop_
_atom_site_label
_atom_site_type_symbol
_atom_site_fract_x
_atom_site_fract_y
_atom_site_fract_z
N1 N -0.494(4) 1.507(4) 0.253(2)
H1 H -0.5517 1.5473 0.2905
H2 H -0.5588 1.4657 0.2175
C1 C -0.469(6) 1.738(5) 0.201(3)
C2 C -0.365(4) 1.604(3) 0.2204(16)
H6 H -0.3145 1.5618 0.1755
H7 H -0.2816 1.6268 0.2576
C3 C -0.360(4) 1.413(3) 0.2783(16)
H8 H -0.3021 1.4556 0.3207
H9 H -0.2847 1.3917 0.2374
C4 C -0.545(7) 1.778(5) 0.198(3)
N1B N -0.506(4) 2.007(4) 0.247(2)
H1B H -0.4483 2.0473 0.2095
H2B H -0.4412 1.9657 0.2825
C1B C -0.531(6) 1.238(5) 0.299(3)
C3B C -0.640(4) 1.913(3) 0.2217(16)
H8B H -0.6979 1.9556 0.1793
H9B H -0.7153 1.8917 0.2626
C4B C -0.455(7) 1.278(5) 0.302(3)
Al1 Al -0.1387(2) -1.1312(2) 0.56605(11)
Al2 Al -0.0603(3) -0.5878(3) 0.46845(14)
Al3 Al -0.5574(3) -1.4147(3) 0.66700(12)
P1 P 0.1335(3) -1.3689(3) 0.57117(13)
P2 P 0.0707(3) -0.9095(3) 0.47317(13)
P3 P -0.4359(3) -1.0846(3) 0.67268(12)
O1 O -0.0357(8) -0.9669(9) 0.5360(4)
O2 O 0.0143(8) -0.7580(8) 0.4505(5)
O3 O 0.2446(7) -0.9021(9) 0.5011(4)
O4 O -0.5486(8) -1.0123(8) 0.6146(4)
O5 O -0.4925(10) -1.2413(8) 0.6826(5)
O6 O -0.2616(8) -1.0789(10) 0.6459(4)
O7 O -0.4519(10) -1.0108(9) 0.7483(4)
O8 O 0.0662(9) -1.0051(8) 0.4024(4)
O9 O 0.2348(7) -1.4130(8) 0.6402(3)
O10 O 0.0555(9) -1.5057(8) 0.5386(4)
O11 O 0.2385(7) -1.2950(8) 0.5112(4)
O12 O 0.0018(8) -1.2668(9) 0.5999(5)
Al1C Al 0.3613(2) -1.3688(2) 0.43395(11)
Al1C_2 Al 0.3613(2) -0.3688(2) 0.43395(11)
Al1_2 Al -0.1387(2) -0.1312(2) 0.56605(11)
Al1_3 Al 0.8613(2) -0.1312(2) 0.56605(11)
Al2C Al 0.4397(3) -0.9122(3) 0.53155(14)
Al2C_2 Al -0.5603(3) -0.9122(3) 0.53155(14)
Al2_2 Al -0.0603(3) -1.5878(3) 0.46845(14)
Al2_3 Al 0.9397(3) -0.5878(3) 0.46845(14)
Al2C_3 Al 0.4397(3) 0.0878(3) 0.53155(14)
Al3B Al -0.4426(3) -0.9147(3) 0.83300(12)
Al3C Al -0.0574(3) -1.0853(3) 0.33300(12)
Al3_2 Al 0.4426(3) -1.4147(3) 0.66700(12)
Al3_3 Al 0.4426(3) -0.4147(3) 0.66700(12)
Al3B_2 Al 0.5574(3) 0.0853(3) 0.83300(12)
P1_2 P 0.1335(3) -0.3689(3) 0.57117(13)
P2C P 0.5707(3) -0.5905(3) 0.52683(13)
P3_2 P 0.5641(3) -0.0846(3) 0.67268(12)
O1C O 0.4643(8) -0.5331(9) 0.4640(4)
O2C O 0.5143(8) -0.7420(8) 0.5495(5)
O3C O -0.2554(7) -0.5979(9) 0.4989(4)
O3C_2 O 0.7446(7) -0.5979(9) 0.4989(4)
O4C O -0.0486(8) -0.4877(8) 0.3854(4)
O4_2 O 0.4514(8) -1.0123(8) 0.6146(4)
O4_3 O 0.4514(8) -0.0123(8) 0.6146(4)
O5_2 O 0.5075(10) -0.2413(8) 0.6826(5)
O6C O 0.2384(8) -0.4211(10) 0.3541(4)
O6_2 O 0.7384(8) -0.0789(10) 0.6459(4)
O7B O -0.5481(10) -1.5108(9) 0.7517(4)
O7B_2 O 0.4519(10) -0.5108(9) 0.7517(4)
O7_2 O 0.5481(10) -0.0108(9) 0.7483(4)
O8C O -0.4338(9) -1.4949(8) 0.5976(4)
O8C_2 O 0.5662(9) -0.4949(8) 0.5976(4)
O9_2 O -0.7652(7) -1.4130(8) 0.6402(3)
O9_3 O 0.2348(7) -0.4130(8) 0.6402(3)
O10_2 O 0.0555(9) -0.5057(8) 0.5386(4)
O10C O 0.5555(9) -0.9943(8) 0.4614(4)
O11C O -0.2615(7) -1.2050(8) 0.4888(4)
O11_2 O 0.2385(7) -0.2950(8) 0.5112(4)
O12_2 O 0.0018(8) -0.2668(9) 0.5999(5)
O12C O 0.5018(8) -0.2332(9) 0.4001(5)
loop_
_geom_bond_atom_site_label_1
_geom_bond_atom_site_label_2
_geom_bond_site_symmetry_1
_geom_bond_site_symmetry_2
Al1 O1 1_555 1_555
Al2 O2 1_555 1_555
Al3 O5 1_555 1_555
P1 O9 1_555 1_555
P2 O1 1_555 1_555
P3 O4 1_555 1_555
O2 P2 1_555 1_555
O3 P2 1_555 1_555
O4 Al2C_2 1_555 1_555
O5 P3 1_555 1_555
O6 Al1 1_555 1_555
O7 P3 1_555 1_555
O8 P2 1_555 1_555
O9 Al3_2 1_555 1_555
O10 P1 1_555 1_555
O11 P1 1_555 1_555
O12 Al1 1_555 1_555
N1 H1 1_555 1_555
H2 N1 1_555 1_555
C1 C2 1_555 1_555
C2 N1 1_555 1_555
H6 C2 1_555 1_555
H7 C2 1_555 1_555
C3 N1 1_555 1_555
H8 C3 1_555 1_555
H9 C3 1_555 1_555
C4 C1 1_555 1_555
Al1C O11 1_555 1_555
Al1C_2 O1C 1_555 1_555
Al1_2 O12_2 1_555 1_555
Al1_3 O6_2 1_555 1_555
Al2C O3 1_555 1_555
Al2_2 O10 1_555 1_555
Al2_3 O3C_2 1_555 1_555
Al2C_3 O4_3 1_555 1_555
Al3B O7 1_555 1_555
Al3C O8 1_555 1_555
Al3_3 O5_2 1_555 1_555
Al3B_2 O7_2 1_555 1_555
P1_2 O9_3 1_555 1_555
P2C O1C 1_555 1_555
P3_2 O4_3 1_555 1_555
O2C Al2C 1_555 1_555
O3C Al2 1_555 1_555
O3C_2 P2C 1_555 1_555
O4C Al2 1_555 1_555
O4_2 Al2C 1_555 1_555
O5_2 P3_2 1_555 1_555
O6C Al1C_2 1_555 1_555
O6_2 P3_2 1_555 1_555
O7B Al3 1_555 1_555
O7B_2 Al3_3 1_555 1_555
O7_2 P3_2 1_555 1_555
O8C Al3 1_555 1_555
O8C_2 Al3_3 1_555 1_555
O9_2 Al3 1_555 1_555
O9_3 Al3_3 1_555 1_555
O10_2 Al2 1_555 1_555
O10C Al2C 1_555 1_555
O11C Al1 1_555 1_555
O11_2 Al1C_2 1_555 1_555
O12_2 P1_2 1_555 1_555
O12C Al1C_2 1_555 1_555
N1B H1B 1_555 1_555
H2B N1B 1_555 1_555
C1B C4B 1_555 1_555
C3B C4 1_555 1_555
H8B C3B 1_555 1_555
H9B C3B 1_555 1_555
C4B C3 1_555 1_555
P1 O12 1_555 1_555
P3 O6 1_555 1_555
P1_2 O10_2 1_555 1_555
P1_2 O11_2 1_555 1_555
P2C O2C 1_555 1_555
P2C O8C_2 1_555 1_555
N1B C3B 1_555 1_555

#END
