
#######################################################################
#
#                 Cambridge Crystallographic Data Centre
#                                CCDC 
#
#######################################################################
#
# If this CIF has been generated from an entry in the Cambridge 
# Structural Database, then it will include bibliographic, chemical, 
# crystal, experimental, refinement or atomic coordinate data resulting 
# from the CCDC's data processing and validation procedures.
#
#######################################################################

data_QOLVET
_chemical_formula_moiety         '(C14 H18 Al6 N3 O24 P6 1-)n'
_symmetry_cell_setting           orthorhombic
_symmetry_space_group_name_H-M   'P 21 21 21'
_symmetry_Int_Tables_number      19
_space_group_name_Hall           'P 2ac 2ab'
loop_
_symmetry_equiv_pos_site_id
_symmetry_equiv_pos_as_xyz
1 x,y,z
2 1/2-x,-y,1/2+z
3 -x,1/2+y,1/2-z
4 1/2+x,1/2-y,-z
_cell_length_a                   8.2367(14)
_cell_length_b                   9.1664(16)
_cell_length_c                   17.550(3)
_cell_angle_alpha                90
_cell_angle_beta                 90
_cell_angle_gamma                90
_cell_volume                     1325.04
loop_
_atom_site_label
_atom_site_type_symbol
_atom_site_fract_x
_atom_site_fract_y
_atom_site_fract_z
N1 N 0.361(3) 0.075(2) 0.2721(13)
H1 H 0.2932 0.1345 0.2465
H2 H 0.3117 0.0533 0.3166
C1 C 0.456(9) 0.316(4) 0.309(6)
C2 C 0.505(3) 0.157(4) 0.2896(18)
H6 H 0.5785 0.1554 0.2464
H7 H 0.5604 0.1135 0.3329
C3 C 0.372(3) -0.077(3) 0.2236(14)
H8 H 0.2697 -0.1220 0.2374
H9 H 0.3545 -0.0405 0.1724
C4 C 0.524(8) 0.285(5) 0.294(4)
N1B N 0.639(3) 0.575(2) 0.2279(13)
N1B_2 N 0.639(3) -0.425(2) 0.2279(13)
H1B H 0.7068 0.6345 0.2535
H1B_2 H 0.7068 -0.3655 0.2535
H2B H 0.6883 0.5533 0.1834
H2B_2 H 0.6883 -0.4467 0.1834
C1B C 0.544(9) -0.184(4) 0.191(6)
C1B_2 C 0.544(9) 0.816(4) 0.191(6)
C2B C 0.495(3) -0.343(4) 0.2104(18)
C2B_2 C 0.495(3) 0.657(4) 0.2104(18)
H6B H 0.4215 -0.3446 0.2536
H6B_2 H 0.4215 0.6554 0.2536
H7B H 0.4396 -0.3865 0.1671
H7B_2 H 0.4396 0.6135 0.1671
C3B C 0.628(3) 0.423(3) 0.2764(14)
C3B_2 C 0.628(3) -0.577(3) 0.2764(14)
C3_2 C 0.372(3) 0.923(3) 0.2236(14)
H8B H 0.7303 0.3780 0.2626
H8B_2 H 0.7303 -0.6220 0.2626
H9B H 0.6455 0.4595 0.3276
H9B_2 H 0.6455 -0.5405 0.3276
C4B C 0.476(8) -0.215(5) 0.206(4)
C4B_2 C 0.476(8) 0.785(5) 0.206(4)
C4_2 C 0.524(8) -0.715(5) 0.294(4)
Al1 Al -0.13925(11) 0.13091(11) -0.06597(5)
Al2 Al -0.05776(15) 0.08437(14) 0.16659(7)
Al3 Al -0.06032(17) 0.58575(16) 0.03164(8)
P1 P 0.06417(16) 0.41440(14) 0.17325(7)
P2 P 0.06985(15) -0.09207(14) 0.02627(7)
P3 P 0.13346(16) 0.36723(15) -0.07120(7)
O1 O 0.0041(5) 0.2636(5) -0.1009(4)
O2 O 0.2389(5) 0.4208(6) 0.1476(3)
O3 O -0.0387(6) -0.0338(6) -0.0361(3)
O4 O 0.2384(5) 0.2954(5) -0.0107(2)
O5 O 0.0090(7) 0.2581(4) 0.1822(4)
O6 O 0.0462(7) 0.4885(5) 0.2490(2)
O7 O 0.0639(6) 0.0049(5) 0.0974(2)
O8 O 0.2356(5) 0.4132(5) -0.1398(2)
O9 O 0.0546(6) 0.5051(6) -0.0396(3)
O10 O 0.0153(6) -0.2419(4) 0.0506(4)
O11 O 0.2436(4) -0.0993(6) -0.0022(2)
O12 O -0.0478(5) 0.4858(5) 0.1153(2)
Al1C Al 0.36075(11) 0.36909(11) 0.06597(5)
Al1_2 Al -0.13925(11) 1.13091(11) -0.06597(5)
Al1_3 Al -0.13925(11) -0.86909(11) -0.06597(5)
Al1C_2 Al 0.36075(11) -0.63091(11) 0.06597(5)
Al1C_3 Al -0.63925(11) -0.63091(11) 0.06597(5)
Al2C Al 0.44224(15) 0.41563(14) -0.16659(7)
Al2_2 Al -0.05776(15) 1.08437(14) 0.16659(7)
Al2B Al 0.05776(15) 0.58437(14) 0.33341(7)
Al2C_2 Al -0.55776(15) -0.58437(14) -0.16659(7)
Al2C_3 Al 0.44224(15) -0.58437(14) -0.16659(7)
Al3_2 Al -0.06032(17) -0.41425(16) 0.03164(8)
Al3C Al 0.43968(17) -0.08575(16) -0.03164(8)
Al3C_2 Al -0.56032(17) -0.08575(16) -0.03164(8)
Al3C_3 Al 0.43968(17) 0.91425(16) -0.03164(8)
P2_2 P 0.06985(15) 0.90793(14) 0.02627(7)
P2C P -0.43015(15) -0.40793(14) -0.02627(7)
P3_2 P 0.13346(16) -0.63277(15) -0.07120(7)
O1C O 0.5041(5) 0.2364(5) 0.1009(4)
O1_2 O 0.0041(5) -0.7364(5) -0.1009(4)
O2C O -0.2611(5) 0.0792(6) -0.1476(3)
O3_2 O -0.0387(6) 0.9662(6) -0.0361(3)
O3C O 0.4613(6) 0.5338(6) 0.0361(3)
O3C_2 O -0.5387(6) -0.4662(6) 0.0361(3)
O4C O -0.2616(5) 0.2046(5) 0.0107(2)
O4_2 O 0.2384(5) -0.7046(5) -0.0107(2)
O6B O -0.0462(7) -0.0115(5) 0.2510(2)
O7_2 O 0.0639(6) 1.0049(5) 0.0974(2)
O7C O -0.4361(6) -0.5049(5) -0.0974(2)
O8C O -0.2644(5) 0.0868(5) 0.1398(2)
O8_2 O 0.2356(5) -0.5868(5) -0.1398(2)
O9C O -0.4454(6) -0.0051(6) 0.0396(3)
O9_2 O 0.0546(6) -0.4949(6) -0.0396(3)
O10_2 O 0.0153(6) 0.7581(4) 0.0506(4)
O10C O -0.4847(6) -0.2581(4) -0.0506(4)
O11C O -0.2564(4) 0.5993(6) 0.0022(2)
O11C_2 O -0.2564(4) -0.4007(6) 0.0022(2)
O11_2 O -0.7564(4) -0.0993(6) -0.0022(2)
O11_3 O 0.2436(4) 0.9007(6) -0.0022(2)
O12C O -0.5478(5) 0.0142(5) -0.1153(2)
O12_2 O -0.0478(5) -0.5142(5) 0.1153(2)
loop_
_geom_bond_atom_site_label_1
_geom_bond_atom_site_label_2
_geom_bond_site_symmetry_1
_geom_bond_site_symmetry_2
Al1 O1 1_555 1_555
Al2 O5 1_555 1_555
Al3 O9 1_555 1_555
P1 O2 1_555 1_555
P2 O3 1_555 1_555
P3 O1 1_555 1_555
O2 Al1C 1_555 1_555
O3 Al1 1_555 1_555
O4 P3 1_555 1_555
O5 P1 1_555 1_555
O6 P1 1_555 1_555
O7 Al2 1_555 1_555
O8 P3 1_555 1_555
O9 P3 1_555 1_555
O10 P2 1_555 1_555
O11 P2 1_555 1_555
O12 Al3 1_555 1_555
N1 H1 1_555 1_555
H2 N1 1_555 1_555
C1 C2 1_555 1_555
C2 N1 1_555 1_555
H6 C2 1_555 1_555
H7 C2 1_555 1_555
C3 N1 1_555 1_555
H8 C3 1_555 1_555
H9 C3 1_555 1_555
C4 C1 1_555 1_555
Al1C O4 1_555 1_555
Al1_2 O3_2 1_555 1_555
Al1_3 O1_2 1_555 1_555
Al1C_2 O4_2 1_555 1_555
Al1C_3 O3C_2 1_555 1_555
Al2C O8 1_555 1_555
Al2_2 O7_2 1_555 1_555
Al2B O6 1_555 1_555
Al2C_2 O7C 1_555 1_555
Al2C_3 O8_2 1_555 1_555
Al3_2 O10 1_555 1_555
Al3C O11 1_555 1_555
Al3C_2 O9C 1_555 1_555
Al3C_3 O11_3 1_555 1_555
P2_2 O3_2 1_555 1_555
P2C O3C_2 1_555 1_555
P3_2 O1_2 1_555 1_555
O1C Al1C 1_555 1_555
O2C Al1 1_555 1_555
O3C Al1C 1_555 1_555
O4C Al1 1_555 1_555
O4_2 P3_2 1_555 1_555
O6B Al2 1_555 1_555
O7_2 P2_2 1_555 1_555
O7C P2C 1_555 1_555
O8C Al2 1_555 1_555
O8_2 P3_2 1_555 1_555
O9_2 Al3_2 1_555 1_555
O10_2 Al3 1_555 1_555
O10C Al3C_2 1_555 1_555
O11C Al3 1_555 1_555
O11C_2 Al3_2 1_555 1_555
O11_2 Al3C_2 1_555 1_555
O11_3 P2_2 1_555 1_555
O12C Al3C_2 1_555 1_555
O12_2 Al3_2 1_555 1_555
N1B H1B 1_555 1_555
N1B_2 H1B_2 1_555 1_555
H2B N1B 1_555 1_555
H2B_2 N1B_2 1_555 1_555
C1B C2B 1_555 1_555
C1B_2 C2B_2 1_555 1_555
C2B N1B_2 1_555 1_555
C2B_2 N1B 1_555 1_555
H6B C2B 1_555 1_555
H6B_2 C2B_2 1_555 1_555
H7B C2B 1_555 1_555
H7B_2 C2B_2 1_555 1_555
C3B C4 1_555 1_555
C3B_2 N1B_2 1_555 1_555
C3_2 C4B_2 1_555 1_555
H8B C3B 1_555 1_555
H8B_2 C3B_2 1_555 1_555
H9B C3B 1_555 1_555
H9B_2 C3B_2 1_555 1_555
C4B C3 1_555 1_555
C4B_2 C1B_2 1_555 1_555
C4_2 C3B_2 1_555 1_555
P1 O12 1_555 1_555
P2 O7 1_555 1_555
C2 C4 1_555 1_555
P2_2 O10_2 1_555 1_555
P2C O10C 1_555 1_555
P2C O11C_2 1_555 1_555
P3_2 O9_2 1_555 1_555
N1B C3B 1_555 1_555
C1B C4B 1_555 1_555
C2B C4B 1_555 1_555
C2B_2 C4B_2 1_555 1_555

#END
