
#######################################################################
#
#                 Cambridge Crystallographic Data Centre
#                                CCDC 
#
#######################################################################
#
# If this CIF has been generated from an entry in the Cambridge 
# Structural Database, then it will include bibliographic, chemical, 
# crystal, experimental, refinement or atomic coordinate data resulting 
# from the CCDC's data processing and validation procedures.
#
#######################################################################

data_PANRUS01
_chemical_formula_moiety         '(C9 H2 Al6 N3 O26 P6 1-)n'
_symmetry_cell_setting           rhombohedral
_symmetry_space_group_name_H-M   'R -3'
_symmetry_Int_Tables_number      148
_space_group_name_Hall           '-R 3'
loop_
_symmetry_equiv_pos_site_id
_symmetry_equiv_pos_as_xyz
1 x,y,z
2 -y,x-y,z
3 -x+y,-x,z
4 1/3+x,2/3+y,2/3+z
5 1/3-y,2/3+x-y,2/3+z
6 1/3-x+y,2/3-x,2/3+z
7 2/3+x,1/3+y,1/3+z
8 2/3-y,1/3+x-y,1/3+z
9 2/3-x+y,1/3-x,1/3+z
10 -x,-y,-z
11 y,-x+y,-z
12 x-y,x,-z
13 2/3-x,1/3-y,1/3-z
14 2/3+y,1/3-x+y,1/3-z
15 2/3+x-y,1/3+x,1/3-z
16 1/3-x,2/3-y,2/3-z
17 1/3+y,2/3-x+y,2/3-z
18 1/3+x-y,2/3+x,2/3-z
_cell_length_a                   13.800(1)
_cell_length_b                   13.800(1)
_cell_length_c                   14.825(1)
_cell_angle_alpha                90
_cell_angle_beta                 90
_cell_angle_gamma                120
_cell_volume                     2445.03
loop_
_atom_site_label
_atom_site_type_symbol
_atom_site_fract_x
_atom_site_fract_y
_atom_site_fract_z
O5 O 0.0000 -0.0000 0.288(1)
N1 N 0.131(2) 0.086(2) 0.435(2)
C1 C 0.082(3) -0.016(3) 0.337(3)
C2 C 0.129(3) 0.004(4) 0.395(3)
C3 C 0.002(3) -0.103(3) 0.348(3)
N1A N -0.086(2) 0.045(3) 0.435(2)
N1B N -0.045(3) -0.131(2) 0.435(2)
C1A C 0.016(3) 0.098(4) 0.337(3)
C1B C -0.098(4) -0.082(3) 0.337(3)
C2A C -0.004(4) 0.125(5) 0.395(3)
C2B C -0.125(5) -0.129(3) 0.395(3)
C3A C 0.103(3) 0.105(4) 0.348(3)
C3B C -0.105(4) -0.002(3) 0.348(3)
O8 O 0.1667 -0.1667 0.3333
Al1 Al -0.0041(1) 0.2250(1) 0.1024(1)
P1 P -0.0050(1) 0.2230(1) -0.1110(1)
O1 O -0.0053(2) 0.2536(3) -0.0129(2)
O2 O -0.1162(3) 0.1230(3) -0.1370(2)
O3 O 0.0862(3) 0.1940(2) -0.1283(2)
O4 O 0.0127(2) 0.3201(3) -0.1703(2)
Al1J Al 0.2250(1) 0.2291(1) -0.1024(1)
Al1K Al -0.2291(1) -0.0041(1) -0.1024(1)
Al1H Al -0.1042(1) 0.3374(1) 0.4357(1)
Al1A Al -0.2250(1) -0.2291(1) 0.1024(1)
Al1M Al -0.1083(1) 0.5624(1) 0.2309(1)
Al1D Al 0.1083(1) 0.4376(1) -0.2309(1)
Al1B Al 0.2291(1) 0.0041(1) 0.1024(1)
Al1N Al 0.4376(1) 0.3292(1) 0.2309(1)
Al1L Al -0.3292(1) 0.1083(1) 0.2309(1)
Al1I Al 0.0041(1) -0.2250(1) -0.1024(1)
Al1C Al 0.3292(1) -0.1083(1) -0.2309(1)
Al1O Al 0.3374(1) 0.4417(1) -0.4357(1)
Al1E Al 0.5624(1) 0.6708(1) -0.2309(1)
P1J P 0.2230(1) 0.2280(1) 0.1110(1)
P1K P -0.2280(1) -0.0050(1) 0.1110(1)
P1H P -0.1053(1) 0.3383(1) 0.2223(1)
P1B P 0.2280(1) 0.0050(1) -0.1110(1)
P1O P 0.3383(1) 0.4437(1) -0.2223(1)
O1J O 0.2536(3) 0.2589(4) 0.0129(2)
O1K O -0.2589(4) -0.0053(2) 0.0129(2)
O1H O -0.0744(4) 0.3386(2) 0.3204(2)
O1B O 0.2589(4) 0.0053(2) -0.0129(2)
O1O O 0.3386(2) 0.4131(3) -0.3204(2)
O1A O -0.2536(3) -0.2589(4) -0.0129(2)
O1M O -0.0797(3) 0.5922(4) 0.3462(2)
O2J O 0.1230(3) 0.2392(4) 0.1370(2)
O2K O -0.2392(4) -0.1162(3) 0.1370(2)
O2H O -0.0941(4) 0.4495(3) 0.1963(2)
O2B O 0.2392(4) 0.1162(3) -0.1370(2)
O2O O 0.4495(3) 0.5437(3) -0.1963(2)
O2L O -0.2171(3) 0.2103(3) 0.4703(2)
O3J O 0.1940(2) 0.1078(4) 0.1283(2)
O3K O -0.1078(4) 0.0862(3) 0.1283(2)
O3H O -0.2255(4) 0.2471(3) 0.2050(2)
O3B O 0.1078(4) -0.0862(3) -0.1283(2)
O3O O 0.2471(3) 0.4727(2) -0.2050(2)
O3A O -0.1940(2) -0.1078(4) -0.1283(2)
O3M O -0.1393(2) 0.4411(4) 0.4616(2)
O3I O -0.0862(3) -0.1940(2) 0.1283(2)
O3F O -0.2471(3) 0.5273(2) 0.2050(2)
O4J O 0.3201(3) 0.3074(4) 0.1703(2)
O4K O -0.3074(4) 0.0127(2) 0.1703(2)
O4H O -0.0259(4) 0.3206(2) 0.1630(2)
O4B O 0.3074(4) -0.0127(2) -0.1703(2)
O4O O 0.3206(2) 0.3466(3) -0.1630(2)
O4P O -0.3466(3) -0.0259(4) -0.1630(2)
O4D O 0.0132(3) 0.3593(4) 0.4964(2)
O4F O -0.3206(2) -0.3466(3) 0.1630(2)
O4I O -0.0127(2) 0.6799(3) 0.1703(2)
loop_
_geom_bond_atom_site_label_1
_geom_bond_atom_site_label_2
_geom_bond_site_symmetry_1
_geom_bond_site_symmetry_2
Al1 O1 1_555 1_555
P1 O1 1_555 1_555
O2 P1 1_555 1_555
O3 P1 1_555 1_555
O4 P1 1_555 1_555
O5 C1 1_555 1_555
N1 C2 1_555 1_555
C1 C2 1_555 1_555
C2 C3A 1_555 1_555
C3 O5 1_555 1_555
Al1J O3 1_555 1_555
Al1K O2 1_555 1_555
Al1H O1H 1_555 1_555
Al1A O1A 1_555 1_555
Al1M O1M 1_555 1_555
Al1D O4 1_555 1_555
Al1B O1B 1_555 1_555
Al1N O4J 1_555 1_555
Al1L O3H 1_555 1_555
Al1I O3B 1_555 1_555
Al1C O4B 1_555 1_555
Al1O O1O 1_555 1_555
Al1E O2O 1_555 1_555
P1J O1J 1_555 1_555
P1K O1K 1_555 1_555
P1H O1H 1_555 1_555
P1B O1B 1_555 1_555
P1O O1O 1_555 1_555
O1J Al1J 1_555 1_555
O1K Al1K 1_555 1_555
O2J Al1 1_555 1_555
O2K Al1A 1_555 1_555
O2H Al1M 1_555 1_555
O2B Al1J 1_555 1_555
O2O P1O 1_555 1_555
O2L Al1H 1_555 1_555
O3J Al1B 1_555 1_555
O3K Al1 1_555 1_555
O3H P1H 1_555 1_555
O3B P1B 1_555 1_555
O3O Al1D 1_555 1_555
O3A Al1K 1_555 1_555
O3M Al1H 1_555 1_555
O3I Al1A 1_555 1_555
O3F Al1M 1_555 1_555
O4J P1J 1_555 1_555
O4K Al1L 1_555 1_555
O4H Al1 1_555 1_555
O4B P1B 1_555 1_555
O4O Al1J 1_555 1_555
O4P Al1K 1_555 1_555
O4D Al1H 1_555 1_555
O4F Al1A 1_555 1_555
O4I Al1M 1_555 1_555
N1A C2A 1_555 1_555
N1B C3 1_555 1_555
C1A O5 1_555 1_555
C1B O5 1_555 1_555
C2A C1A 1_555 1_555
C2B C3 1_555 1_555
C3A O5 1_555 1_555
C3B O5 1_555 1_555
N1 C3A 1_555 1_555
C1 C3 1_555 1_555
C1 C3A 1_555 1_555
C3 C1B 1_555 1_555
P1J O2J 1_555 1_555
P1J O3J 1_555 1_555
P1K O2K 1_555 1_555
P1K O3K 1_555 1_555
P1K O4K 1_555 1_555
P1H O2H 1_555 1_555
P1H O4H 1_555 1_555
P1B O2B 1_555 1_555
P1O O3O 1_555 1_555
P1O O4O 1_555 1_555
N1A C3B 1_555 1_555
N1B C2B 1_555 1_555
C1A C3A 1_555 1_555
C1A C3B 1_555 1_555
C1B C2B 1_555 1_555
C1B C3B 1_555 1_555
C2A C3B 1_555 1_555

#END
