
#######################################################################
#
#                 Cambridge Crystallographic Data Centre
#                                CCDC 
#
#######################################################################
#
# If this CIF has been generated from an entry in the Cambridge 
# Structural Database, then it will include bibliographic, chemical, 
# crystal, experimental, refinement or atomic coordinate data resulting 
# from the CCDC's data processing and validation procedures.
#
#######################################################################

data_CENJIQ
_chemical_formula_moiety         '(C14 H22 Cu3 N6 O8)n'
_symmetry_cell_setting           rhombohedral
_symmetry_space_group_name_H-M   'R -3'
_symmetry_Int_Tables_number      148
_space_group_name_Hall           '-R 3'
loop_
_symmetry_equiv_pos_site_id
_symmetry_equiv_pos_as_xyz
1 x,y,z
2 -y,x-y,z
3 -x+y,-x,z
4 2/3+x,1/3+y,1/3+z
5 2/3-y,1/3+x-y,1/3+z
6 2/3-x+y,1/3-x,1/3+z
7 1/3+x,2/3+y,2/3+z
8 1/3-y,2/3+x-y,2/3+z
9 1/3-x+y,2/3-x,2/3+z
10 -x,-y,-z
11 y,-x+y,-z
12 x-y,x,-z
13 1/3-x,2/3-y,2/3-z
14 1/3+y,2/3-x+y,2/3-z
15 1/3+x-y,2/3+x,2/3-z
16 2/3-x,1/3-y,1/3-z
17 2/3+y,1/3-x+y,1/3-z
18 2/3+x-y,1/3+x,1/3-z
_cell_length_a                   26.795(5)
_cell_length_b                   26.795(5)
_cell_length_c                   19.751(4)
_cell_angle_alpha                90
_cell_angle_beta                 90
_cell_angle_gamma                120
_cell_volume                     12280.8
loop_
_atom_site_label
_atom_site_type_symbol
_atom_site_fract_x
_atom_site_fract_y
_atom_site_fract_z
_atom_site_U_iso_or_equiv
_atom_site_thermal_displace_type
Cu1 Cu 0.19814(4) 0.98106(4) 0.36716(5) 0.0484 Uani
Cu2 Cu 0.13816(4) 0.88059(4) 0.49052(5) 0.0415 Uani
Cu3 Cu 0.27411(5) 0.92404(6) 0.43813(7) 0.0654 Uani
O1 O 0.2006(3) 1.0517(2) 0.3297(3) 0.0557 Uani
O2 O 0.2308(2) 1.0829(2) 0.4332(3) 0.0469 Uani
O3 O 0.2480(4) 1.2374(3) 0.2257(4) 0.0874 Uani
O4 O 0.1894(4) 1.2325(3) 0.3069(3) 0.0744 Uani
N1 N 0.1192(3) 0.9516(3) 0.3961(3) 0.0423 Uani
N2 N 0.0972(3) 0.9155(2) 0.4502(3) 0.0394 Uani
N3 N 0.1852(3) 0.8527(3) 0.5319(4) 0.0556 Uani
N4 N 0.2402(3) 0.8700(4) 0.5112(4) 0.0628 Uani
N5 N 0.3101(4) 0.9881(4) 0.3770(5) 0.0730 Uani
N6 N 0.2798(4) 1.0088(3) 0.3469(4) 0.0672 Uani
C1 C 0.0792(4) 0.9644(3) 0.3755(5) 0.0514 Uani
H1 H 0.0837 0.9891 0.3387 0.0620 Uiso
C2 C 0.0303(4) 0.9363(4) 0.4156(5) 0.0508 Uani
H2 H -0.0044 0.9375 0.4119 0.0610 Uiso
C3 C 0.0436(3) 0.9060(3) 0.4625(4) 0.0456 Uani
H3 H 0.0188 0.8824 0.4976 0.0540 Uiso
C4 C 0.1725(5) 0.8135(5) 0.5814(6) 0.0740 Uani
H4 H 0.1368 0.7942 0.6048 0.0890 Uiso
C5 C 0.2182(6) 0.8054(6) 0.5932(8) 0.0936 Uani
H5 H 0.2210 0.7809 0.6257 0.1120 Uiso
C6 C 0.2600(5) 0.8417(6) 0.5463(7) 0.0790 Uani
H6 H 0.2969 0.8453 0.5407 0.0950 Uiso
C7 C 0.3652(5) 1.0195(6) 0.3561(9) 0.1039 Uani
H7 H 0.3959 1.0137 0.3697 0.1250 Uiso
C8 C 0.3698(5) 1.0608(5) 0.3125(10) 0.1178 Uani
H8 H 0.4038 1.0892 0.2906 0.1410 Uiso
C9 C 0.3157(6) 1.0531(5) 0.3065(8) 0.0961 Uani
H9 H 0.3051 1.0751 0.2786 0.1160 Uiso
C10 C 0.2161(3) 1.0901(3) 0.3746(4) 0.0453 Uani
C11 C 0.2184(4) 1.1461(3) 0.3572(4) 0.0492 Uani
H10 H 0.1949 1.1527 0.3909 0.0590 Uiso
H11 H 0.2587 1.1777 0.3625 0.0590 Uiso
C12 C 0.1988(10) 1.1507(6) 0.2899(7) 0.1271 Uani
H12 H 0.1566 1.1243 0.2868 0.1510 Uiso
H13 H 0.2175 1.1383 0.2559 0.1510 Uiso
C13 C 0.2119(6) 1.2102(5) 0.2736(5) 0.0781 Uani
O5 O 0.1978(2) 0.9164(2) 0.4181(3) 0.0522 Uani
H14 H 0.1821(9) 0.8856(9) 0.3827(10) 0.0620 Uiso
O6 O 0.0829(3) 0.7938(3) 0.4276(3) 0.0623 Uani
C14 C 0.0383(6) 0.7463(5) 0.4620(6) 0.0868 Uani
H15 H 0.0189 0.7136 0.4308 0.1300 Uiso
H16 H 0.0103 0.7566 0.4792 0.1300 Uiso
H17 H 0.0545 0.7355 0.5000 0.1300 Uiso
O7 O 0.1617(5) 0.8956(17) 0.2838(10) 0.3427 Uani
Cu2K Cu 0.25757(6) 1.13816(4) 0.50948(5) 0.0415 Uani
Cu3M Cu 0.25737(6) 1.31660(8) 0.22854(7) 0.0654 Uani
O2J O 0.0829(2) 0.8521(3) 0.5668(3) 0.0469 Uani
O3N O 0.3439(5) 0.9147(4) 0.4410(4) 0.0874 Uani
O4N O 0.2902(5) 0.8561(4) 0.3598(3) 0.0744 Uani
O9 O 0.046(3) 0.940(2) 0.188(3) 0.2856 Uani
loop_
_atom_site_aniso_label
_atom_site_aniso_U_11
_atom_site_aniso_U_22
_atom_site_aniso_U_33
_atom_site_aniso_U_23
_atom_site_aniso_U_13
_atom_site_aniso_U_12
Cu1 0.0505(6) 0.0359(5) 0.0512(6) -0.0019(4) 0.0160(4) 0.0158(4)
Cu2 0.0391(5) 0.0352(5) 0.0513(6) -0.0020(4) 0.0042(4) 0.0195(4)
Cu3 0.0446(6) 0.0775(8) 0.0771(9) -0.0227(6) 0.0045(5) 0.0327(6)
O1 0.071(4) 0.034(3) 0.047(3) 0.000(2) 0.009(3) 0.015(3)
O2 0.052(3) 0.040(3) 0.050(3) -0.004(2) -0.001(3) 0.024(3)
O3 0.121(7) 0.071(5) 0.093(6) 0.030(4) 0.032(5) 0.065(5)
O4 0.110(6) 0.047(4) 0.050(4) 0.012(3) 0.012(4) 0.027(4)
N1 0.045(4) 0.029(3) 0.047(4) -0.003(3) 0.006(3) 0.014(3)
N2 0.035(3) 0.026(3) 0.053(4) 0.001(3) 0.008(3) 0.012(2)
N3 0.061(5) 0.058(4) 0.056(4) -0.007(4) -0.002(4) 0.036(4)
N4 0.052(4) 0.071(5) 0.075(5) -0.025(4) -0.009(4) 0.038(4)
N5 0.049(4) 0.060(5) 0.107(7) -0.021(5) 0.024(5) 0.025(4)
N6 0.068(5) 0.039(4) 0.075(5) -0.010(4) 0.039(4) 0.012(4)
C1 0.059(5) 0.033(4) 0.061(5) 0.001(4) -0.002(4) 0.022(4)
C2 0.049(5) 0.042(4) 0.067(5) -0.001(4) -0.005(4) 0.027(4)
C3 0.038(4) 0.033(4) 0.062(5) -0.001(3) 0.009(4) 0.015(3)
C4 0.078(7) 0.072(7) 0.086(8) -0.003(6) -0.015(6) 0.048(6)
C5 0.104(10) 0.101(9) 0.106(10) -0.002(8) -0.031(9) 0.074(9)
C6 0.069(7) 0.097(9) 0.097(9) -0.020(7) -0.031(6) 0.061(7)
C7 0.056(7) 0.069(8) 0.169(15) -0.030(9) 0.045(8) 0.018(6)
C8 0.071(8) 0.053(7) 0.200(17) -0.020(9) 0.082(10) 0.009(6)
C9 0.094(9) 0.049(6) 0.127(11) -0.001(6) 0.067(8) 0.022(6)
C10 0.037(4) 0.033(4) 0.056(5) 0.000(4) 0.007(4) 0.010(3)
C11 0.052(5) 0.039(4) 0.049(5) 0.001(3) -0.003(4) 0.017(4)
C12 0.26(2) 0.064(7) 0.072(8) 0.004(6) -0.016(10) 0.092(11)
C13 0.130(11) 0.056(6) 0.053(6) 0.008(5) 0.011(6) 0.050(7)
O5 0.048(3) 0.043(3) 0.066(4) -0.011(3) 0.009(3) 0.023(3)
O6 0.065(4) 0.043(3) 0.071(4) 0.000(3) 0.002(3) 0.021(3)
C14 0.092(8) 0.058(6) 0.079(8) 0.005(5) 0.019(6) 0.014(6)
O7 0.060(7) 0.70(7) 0.144(16) -0.28(3) -0.030(8) 0.097(17)
Cu2K 0.0353 0.0391 0.0513 -0.0042 -0.0062 0.0196
Cu3M 0.0775 0.0567 0.0771 0.0272 0.0227 0.0448
O2J 0.04 0.044 0.05 0.003 0.004 0.016
O3N 0.062 0.121 0.093 -0.032 -0.002 0.056
O4N 0.103 0.11 0.05 -0.012 0 0.083
O9 0.48(9) 0.24(5) 0.27(5) -0.02(4) 0.01(6) 0.28(6)
loop_
_geom_bond_atom_site_label_1
_geom_bond_atom_site_label_2
_geom_bond_site_symmetry_1
_geom_bond_site_symmetry_2
Cu1 O1 1_555 1_555
Cu2 N2 1_555 1_555
Cu3 N4 1_555 1_555
O1 C10 1_555 1_555
O2 Cu1 1_555 1_555
O3 C13 1_555 1_555
O4 C13 1_555 1_555
N1 Cu1 1_555 1_555
N2 N1 1_555 1_555
N3 Cu2 1_555 1_555
N4 N3 1_555 1_555
N5 Cu3 1_555 1_555
N6 Cu1 1_555 1_555
C1 N1 1_555 1_555
H1 C1 1_555 1_555
C2 C1 1_555 1_555
H2 C2 1_555 1_555
C3 N2 1_555 1_555
H3 C3 1_555 1_555
C4 N3 1_555 1_555
H4 C4 1_555 1_555
C5 C4 1_555 1_555
H5 C5 1_555 1_555
C6 N4 1_555 1_555
H6 C6 1_555 1_555
C7 N5 1_555 1_555
H7 C7 1_555 1_555
C8 C7 1_555 1_555
H8 C8 1_555 1_555
C9 N6 1_555 1_555
H9 C9 1_555 1_555
C10 O2 1_555 1_555
C11 C10 1_555 1_555
H10 C11 1_555 1_555
H11 C11 1_555 1_555
C12 C11 1_555 1_555
H12 C12 1_555 1_555
H13 C12 1_555 1_555
C13 C12 1_555 1_555
O5 Cu1 1_555 1_555
H14 O5 1_555 1_555
O6 Cu2 1_555 1_555
C14 O6 1_555 1_555
H15 C14 1_555 1_555
H16 C14 1_555 1_555
H17 C14 1_555 1_555
O7 Cu1 1_555 1_555
Cu2K O2 1_555 1_555
Cu3M O3 1_555 1_555
O2J Cu2 1_555 1_555
O3N Cu3 1_555 1_555
O4N Cu3 1_555 1_555
Cu2 O5 1_555 1_555
Cu3 O5 1_555 1_555
O4 Cu3M 1_555 1_555
N5 N6 1_555 1_555
C2 C3 1_555 1_555
C5 C6 1_555 1_555
C8 C9 1_555 1_555

#END
