
#######################################################################
#
#                 Cambridge Crystallographic Data Centre
#                                CCDC 
#
#######################################################################
#
# If this CIF has been generated from an entry in the Cambridge 
# Structural Database, then it will include bibliographic, chemical, 
# crystal, experimental, refinement or atomic coordinate data resulting 
# from the CCDC's data processing and validation procedures.
#
#######################################################################

data_CENKAJ
_chemical_formula_moiety         '(C13 H24 Cu3 N6 O10)n'
_symmetry_cell_setting           rhombohedral
_symmetry_space_group_name_H-M   'R -3'
_symmetry_Int_Tables_number      148
_space_group_name_Hall           '-R 3'
loop_
_symmetry_equiv_pos_site_id
_symmetry_equiv_pos_as_xyz
1 x,y,z
2 -y,x-y,z
3 -x+y,-x,z
4 2/3+x,1/3+y,1/3+z
5 2/3-y,1/3+x-y,1/3+z
6 2/3-x+y,1/3-x,1/3+z
7 1/3+x,2/3+y,2/3+z
8 1/3-y,2/3+x-y,2/3+z
9 1/3-x+y,2/3-x,2/3+z
10 -x,-y,-z
11 y,-x+y,-z
12 x-y,x,-z
13 1/3-x,2/3-y,2/3-z
14 1/3+y,2/3-x+y,2/3-z
15 1/3+x-y,2/3+x,2/3-z
16 2/3-x,1/3-y,1/3-z
17 2/3+y,1/3-x+y,1/3-z
18 2/3+x-y,1/3+x,1/3-z
_cell_length_a                   26.625(7)
_cell_length_b                   26.625(7)
_cell_length_c                   20.024(7)
_cell_angle_alpha                90
_cell_angle_beta                 90
_cell_angle_gamma                120
_cell_volume                     12293.1
loop_
_atom_site_label
_atom_site_type_symbol
_atom_site_fract_x
_atom_site_fract_y
_atom_site_fract_z
_atom_site_U_iso_or_equiv
_atom_site_thermal_displace_type
Cu1 Cu 0.19685(5) 0.97911(5) 0.37026(8) 0.0752 Uani
Cu2 Cu 0.13864(5) 0.88113(5) 0.49330(8) 0.0708 Uani
Cu3 Cu 0.27447(5) 0.92543(6) 0.44075(9) 0.0873 Uani
O1 O 0.1984(3) 1.0477(3) 0.3292(4) 0.0782 Uani
O2 O 0.2312(3) 1.0830(3) 0.4293(5) 0.0771 Uani
O3 O 0.2482(4) 1.2387(3) 0.2283(5) 0.1014 Uani
O4 O 0.1859(3) 1.2301(3) 0.3037(6) 0.1179 Uani
N1 N 0.1184(3) 0.9499(3) 0.3985(5) 0.0622 Uani
N2 N 0.0966(3) 0.9151(3) 0.4509(5) 0.0622 Uani
N3 N 0.1837(4) 0.8496(4) 0.5316(6) 0.0899 Uani
N4 N 0.2387(4) 0.8684(4) 0.5061(6) 0.0906 Uani
N5 N 0.3076(5) 0.9843(4) 0.3756(6) 0.1046 Uani
N6 N 0.2764(4) 1.0059(4) 0.3423(7) 0.0974 Uani
C1 C 0.0788(5) 0.9612(4) 0.3775(7) 0.0766 Uani
H1 H 0.0828 0.9842 0.3407 0.0920 Uiso
C2 C 0.0293(4) 0.9338(4) 0.4179(7) 0.0758 Uani
H2 H -0.0048 0.9351 0.4140 0.0910 Uiso
C3 C 0.0427(4) 0.9049(4) 0.4642(6) 0.0734 Uani
H3 H 0.0189 0.8822 0.4988 0.0880 Uiso
C4 C 0.1683(6) 0.8084(6) 0.5794(10) 0.1376 Uani
H4 H 0.1339 0.7909 0.6036 0.1650 Uiso
C5 C 0.2147(7) 0.7970(7) 0.5855(10) 0.1478 Uani
H5 H 0.2166 0.7697 0.6127 0.1790 Uiso
C6 C 0.2573(6) 0.8363(7) 0.5413(10) 0.1293 Uani
H6 H 0.2939 0.8402 0.5364 0.1530 Uiso
C7 C 0.3606(7) 1.0122(7) 0.3500(12) 0.1591 Uani
H7 H 0.3916 1.0070 0.3611 0.1910 Uiso
C8 C 0.3605(7) 1.0515(7) 0.3027(11) 0.1636 Uani
H8 H 0.3923 1.0769 0.2770 0.1970 Uiso
C9 C 0.3083(6) 1.0467(6) 0.3004(8) 0.1159 Uani
H9 H 0.2970 1.0682 0.2741 0.1390 Uiso
C10 C 0.2154(5) 1.0878(5) 0.3726(9) 0.0772 Uani
C11 C 0.2208(5) 1.1455(4) 0.3512(8) 0.0971 Uani
H10 H 0.2016 1.1560 0.3850 0.1170 Uiso
H11 H 0.2617 1.1745 0.3529 0.1170 Uiso
C12 C 0.1999(6) 1.1513(5) 0.2888(10) 0.1260 Uani
H12 H 0.1583 1.1252 0.2873 0.1500 Uiso
H13 H 0.2172 1.1395 0.2540 0.1500 Uiso
C13 C 0.2121(6) 1.2111(5) 0.2743(9) 0.0988 Uani
O5 O 0.1598(4) 0.9120(4) 0.2725(6) 0.1520 Uiso
O6 O 0.0932(4) 0.7999(4) 0.4124(6) 0.1490 Uiso
O7 O 0.2844(12) 1.0034(12) 0.5281(19) 0.2550 Uiso
O8 O 0.1961(4) 0.9137(5) 0.4206(6) 0.0690 Uiso
H14 H 0.1837(7) 0.8883(9) 0.3925(10) 0.0830 Uiso
Cu2K Cu 0.25751(7) 1.13864(5) 0.50670(8) 0.0708 Uani
Cu3M Cu 0.25876(6) 1.31763(8) 0.22592(9) 0.0873 Uani
O2J O 0.0830(3) 0.8518(4) 0.5707(5) 0.0771 Uani
O3N O 0.3428(5) 0.9149(4) 0.4384(5) 0.1014 Uani
O4N O 0.2891(4) 0.8526(3) 0.3630(6) 0.1179 Uani
O10 O 0.1507(9) 1.0040(9) 0.2013(14) 0.1870 Uiso
O11 O 0.3386(9) 1.2117(8) 0.1877(13) 0.1760 Uiso
loop_
_atom_site_aniso_label
_atom_site_aniso_U_11
_atom_site_aniso_U_22
_atom_site_aniso_U_33
_atom_site_aniso_U_23
_atom_site_aniso_U_13
_atom_site_aniso_U_12
Cu1 0.0736(9) 0.0734(9) 0.0852(14) 0.0033(8) 0.0166(8) 0.0418(7)
Cu2 0.0621(8) 0.0556(8) 0.0963(14) 0.0002(7) -0.0026(7) 0.0306(6)
Cu3 0.0658(9) 0.0940(11) 0.1123(17) -0.0280(10) -0.0141(9) 0.0476(8)
O1 0.089(5) 0.058(5) 0.084(8) -0.003(4) 0.015(4) 0.034(4)
O2 0.084(5) 0.075(5) 0.082(9) 0.001(5) 0.009(5) 0.047(4)
O3 0.137(7) 0.085(6) 0.099(10) 0.026(5) 0.039(6) 0.068(5)
O4 0.112(7) 0.072(5) 0.171(12) 0.018(6) 0.034(6) 0.047(5)
N1 0.058(5) 0.056(5) 0.084(9) 0.004(5) 0.002(5) 0.037(5)
N2 0.058(5) 0.039(5) 0.088(10) 0.003(5) 0.001(5) 0.023(4)
N3 0.090(7) 0.066(6) 0.123(12) 0.005(6) -0.007(7) 0.046(6)
N4 0.088(7) 0.118(8) 0.101(11) -0.034(7) -0.029(6) 0.078(7)
N5 0.060(7) 0.074(7) 0.175(14) -0.017(7) 0.022(7) 0.030(6)
N6 0.088(7) 0.076(7) 0.119(13) -0.009(6) 0.042(7) 0.034(6)
C1 0.073(8) 0.063(7) 0.095(13) -0.003(6) -0.004(7) 0.035(6)
C2 0.059(7) 0.072(7) 0.102(13) 0.003(7) -0.007(7) 0.037(6)
C3 0.057(7) 0.070(7) 0.099(13) 0.000(7) 0.007(6) 0.036(6)
C4 0.138(13) 0.124(12) 0.17(2) 0.024(12) -0.020(12) 0.080(11)
C5 0.134(14) 0.140(15) 0.21(3) 0.010(14) -0.033(13) 0.099(13)
C6 0.128(13) 0.126(13) 0.16(2) -0.057(11) -0.067(13) 0.083(12)
C7 0.100(13) 0.113(13) 0.26(3) 0.006(14) 0.063(14) 0.050(11)
C8 0.121(14) 0.100(13) 0.24(3) 0.015(13) 0.077(14) 0.033(11)
C9 0.091(11) 0.128(12) 0.137(18) 0.011(10) 0.056(10) 0.061(10)
C10 0.058(7) 0.063(8) 0.117(16) 0.014(9) 0.017(8) 0.035(6)
C11 0.087(8) 0.064(8) 0.142(18) -0.014(8) -0.016(9) 0.039(7)
C12 0.148(13) 0.081(10) 0.15(2) 0.002(9) -0.014(11) 0.058(9)
C13 0.128(12) 0.051(8) 0.127(17) 0.018(8) 0.023(10) 0.052(8)
Cu2K 0.0565 0.0621 0.0963 0.0026 0.0028 0.0315
Cu3M 0.094 0.0646 0.1123 0.0139 0.028 0.0464
O2J 0.075 0.065 0.082 0.008 -0.001 0.028
O3N 0.086 0.137 0.099 -0.039 -0.013 0.069
O4N 0.09 0.112 0.171 -0.034 -0.016 0.065
loop_
_geom_bond_atom_site_label_1
_geom_bond_atom_site_label_2
_geom_bond_site_symmetry_1
_geom_bond_site_symmetry_2
Cu1 O1 1_555 1_555
Cu2 N2 1_555 1_555
Cu3 N4 1_555 1_555
O1 C10 1_555 1_555
O2 Cu1 1_555 1_555
O3 C13 1_555 1_555
O4 C13 1_555 1_555
N1 Cu1 1_555 1_555
N2 N1 1_555 1_555
N3 Cu2 1_555 1_555
N4 N3 1_555 1_555
N5 Cu3 1_555 1_555
N6 Cu1 1_555 1_555
C1 N1 1_555 1_555
H1 C1 1_555 1_555
C2 C1 1_555 1_555
H2 C2 1_555 1_555
C3 N2 1_555 1_555
H3 C3 1_555 1_555
C4 N3 1_555 1_555
H4 C4 1_555 1_555
C5 C4 1_555 1_555
H5 C5 1_555 1_555
C6 N4 1_555 1_555
H6 C6 1_555 1_555
C7 N5 1_555 1_555
H7 C7 1_555 1_555
C8 C7 1_555 1_555
H8 C8 1_555 1_555
C9 N6 1_555 1_555
H9 C9 1_555 1_555
C10 O2 1_555 1_555
C11 C10 1_555 1_555
H10 C11 1_555 1_555
H11 C11 1_555 1_555
C12 C11 1_555 1_555
H12 C12 1_555 1_555
H13 C12 1_555 1_555
C13 C12 1_555 1_555
O5 Cu1 1_555 1_555
O6 Cu2 1_555 1_555
O7 Cu3 1_555 1_555
O8 Cu1 1_555 1_555
H14 O8 1_555 1_555
Cu2K O2 1_555 1_555
Cu3M O3 1_555 1_555
O2J Cu2 1_555 1_555
O3N Cu3 1_555 1_555
O4N Cu3 1_555 1_555
Cu2 O8 1_555 1_555
Cu3 O8 1_555 1_555
O4 Cu3M 1_555 1_555
N5 N6 1_555 1_555
C2 C3 1_555 1_555
C5 C6 1_555 1_555
C8 C9 1_555 1_555

#END
