
#######################################################################
#
#                 Cambridge Crystallographic Data Centre
#                                CCDC 
#
#######################################################################
#
# If this CIF has been generated from an entry in the Cambridge 
# Structural Database, then it will include bibliographic, chemical, 
# crystal, experimental, refinement or atomic coordinate data resulting 
# from the CCDC's data processing and validation procedures.
#
#######################################################################

data_NIMTAE
_chemical_formula_moiety         '(C32 H29 Ag1 B2 F8 N7 1+)n'
_symmetry_cell_setting           orthorhombic
_symmetry_space_group_name_H-M   'F d d d'
_symmetry_Int_Tables_number      70
_space_group_name_Hall           '-F 2uv 2vw'
loop_
_symmetry_equiv_pos_site_id
_symmetry_equiv_pos_as_xyz
1 x,y,z
2 1/4-x,1/4-y,z
3 x,1/4-y,1/4-z
4 1/4-x,y,1/4-z
5 x,1/2+y,1/2+z
6 1/4-x,3/4-y,1/2+z
7 x,3/4-y,3/4-z
8 1/4-x,1/2+y,3/4-z
9 1/2+x,y,1/2+z
10 3/4-x,1/4-y,1/2+z
11 1/2+x,1/4-y,3/4-z
12 3/4-x,y,3/4-z
13 1/2+x,1/2+y,z
14 3/4-x,3/4-y,z
15 1/2+x,3/4-y,1/4-z
16 3/4-x,1/2+y,1/4-z
17 -x,-y,-z
18 3/4+x,3/4+y,-z
19 -x,3/4+y,3/4+z
20 3/4+x,-y,3/4+z
21 -x,1/2-y,1/2-z
22 3/4+x,1/4+y,1/2-z
23 -x,1/4+y,1/4+z
24 3/4+x,1/2-y,1/4+z
25 1/2-x,-y,1/2-z
26 1/4+x,3/4+y,1/2-z
27 1/2-x,3/4+y,1/4+z
28 1/4+x,-y,1/4+z
29 1/2-x,1/2-y,-z
30 1/4+x,1/4+y,-z
31 1/2-x,1/4+y,3/4+z
32 1/4+x,1/2-y,3/4+z
_cell_length_a                   10.292(2)
_cell_length_b                   29.887(6)
_cell_length_c                   38.593(8)
_cell_angle_alpha                90
_cell_angle_beta                 90
_cell_angle_gamma                90
_cell_volume                     11871.1
loop_
_atom_site_label
_atom_site_type_symbol
_atom_site_fract_x
_atom_site_fract_y
_atom_site_fract_z
C3 C 0.0073(5) -0.3213(2) 0.0857(1)
C4 C 0.0174(5) -0.3306(2) 0.0504(1)
C5 C -0.0921(5) -0.3418(2) 0.0321(1)
C6 C 0.1281(5) -0.3078(2) 0.1048(1)
Ag1 Ag -0.1250 -0.1250 -0.0134(1)
N2 N -0.0194(4) -0.1719(1) 0.0270(1)
C7 C 0.0989(6) -0.1888(2) 0.0243(2)
C8 C 0.1569(6) -0.2154(2) 0.0495(2)
C9 C 0.0903(5) -0.2262(2) 0.0794(1)
C10 C -0.0333(7) -0.2089(2) 0.0820(2)
C11 C -0.0815(6) -0.1816(2) 0.0558(2)
C12 C 0.1513(5) -0.2552(2) 0.1061(1)
H3 H 0.0995(5) -0.3293(2) 0.0392(1)
H4 H -0.0828(5) -0.3485(2) 0.0082(1)
H5 H 0.2063(5) -0.3241(2) 0.0960(1)
H6 H 0.1028(6) -0.1825(2) 0.2461(2)
H7 H 0.0072(6) -0.2262(2) 0.2038(2)
H8 H -0.0855(7) -0.2157(2) 0.1016(2)
H9 H -0.1654(6) -0.1690(2) 0.0590(2)
H10 H 0.0031(5) -0.2493(2) 0.1434(1)
C2M C -0.1156(5) -0.3231(2) 0.1003(1)
C1M C -0.2200(5) -0.3342(2) 0.0796(1)
N1M N -0.2110(4) -0.3437(1) 0.0459(1)
Ag1Q Ag -0.3750 -0.3750 0.0134(1)
H1M H -0.3036(5) -0.3351(2) 0.0900(1)
H2M H -0.1278(5) -0.3169(2) 0.1242(1)
C6C C 0.1219(5) -0.3078(2) 0.1452(1)
C12C C 0.0987(5) -0.2552(2) 0.1439(1)
C3C C 0.2427(5) -0.3213(2) 0.1643(1)
C2N C 0.3656(5) -0.3231(2) 0.1497(1)
C1N C 0.4700(5) -0.3342(2) 0.1704(1)
N1N N 0.4610(4) -0.3437(1) 0.2041(1)
C5C C 0.3421(5) -0.3418(2) 0.2179(1)
C4C C 0.2326(5) -0.3306(2) 0.1996(1)
H3C H 0.1505(5) -0.3293(2) 0.2108(1)
H4C H 0.3328(5) -0.3485(2) 0.2418(1)
Ag1W Ag 0.6250 -0.3750 0.2366(1)
H1N H 0.5536(5) -0.3351(2) 0.1600(1)
H2N H 0.3778(5) -0.3169(2) 0.1258(1)
H5C H 0.0437(5) -0.3241(2) 0.1540(1)
C9C C 0.1597(5) -0.2262(2) 0.1706(1)
C8C C 0.0931(6) -0.2154(2) 0.2005(2)
C7C C 0.1511(6) -0.1888(2) 0.2257(2)
N2C N 0.2694(4) -0.1719(1) 0.2230(1)
Ag1C Ag 0.3750 -0.1250 0.2634(1)
N1AA N 0.2110(4) -0.0937(1) 0.2959(1)
N1Z N 0.5390(4) -0.1563(1) 0.2959(1)
N2N N 0.4806(4) -0.0781(1) 0.2230(1)
C11C C 0.3315(6) -0.1816(2) 0.1942(2)
C10C C 0.2833(7) -0.2089(2) 0.1680(2)
H8C H 0.3355(7) -0.2157(2) 0.1484(2)
H9C H 0.4154(6) -0.1690(2) 0.1910(2)
H10C H 0.2469(5) -0.2493(2) 0.1066(1)
H7C H 0.2428(6) -0.2262(2) 0.0462(2)
H6C H 0.1472(6) -0.1825(2) 0.0039(2)
B1 B -0.5860(17) 0.1946(6) -0.1175(5)
F1 F -0.6350(16) 0.1641(5) -0.0925(4)
F2 F -0.5727(13) 0.1714(4) -0.1484(3)
F3 F -0.4715(10) 0.2109(4) -0.1045(3)
F4 F -0.6740(14) 0.2296(5) -0.1221(5)
B1K B -0.6640(17) 0.1946(6) -0.1325(5)
F1K F -0.6150(16) 0.1641(5) -0.1575(4)
F2K F -0.6773(13) 0.1714(4) -0.1016(3)
F3K F -0.7785(10) 0.2109(4) -0.1455(3)
F4K F -0.5760(14) 0.2296(5) -0.1279(5)
N3 N -0.3750 0.1250 -0.0305(3)
C13 C -0.3794(17) 0.1347(4) -0.0564(3)
C14 C -0.3801(21) 0.1406(6) -0.0927(4)
H11 H -0.390(13) 0.1724(7) -0.0982(4)
H12 H -0.4528(68) 0.1239(35) -0.1028(5)
H13 H -0.2982(47) 0.1295(38) -0.1024(6)
C13A C -0.3706(17) 0.1153(4) -0.0564(3)
C14A C -0.3699(21) 0.1094(6) -0.0927(4)
H11A H -0.360(13) 0.0776(7) -0.0982(4)
N4 N -0.8210(9) 0.2953(3) -0.1857(2)
C15 C -0.7495(10) 0.2727(3) -0.1970(2)
C16 C -0.6515(13) 0.2436(3) -0.2113(3)
H14 H -0.6310(66) 0.2532(19) -0.2350(9)
H15 H -0.6840(36) 0.2128(6) -0.2117(22)
H16 H -0.5729(33) 0.2452(23) -0.1970(14)
N1 N -0.0390(4) 0.0937(1) 0.0459(1)
C1 C -0.0300(5) 0.0842(2) 0.0796(1)
C2 C -0.1344(5) 0.0731(2) 0.1003(1)
H1 H 0.0536(5) 0.0851(2) 0.0900(1)
H2 H -0.1222(5) 0.0669(2) 0.1242(1)
loop_
_geom_bond_atom_site_label_1
_geom_bond_atom_site_label_2
_geom_bond_site_symmetry_1
_geom_bond_site_symmetry_2
N1 C1 1_555 1_555
C1 C2 1_555 1_555
C2 H2 1_555 1_555
C3 C4 1_555 1_555
C4 C5 1_555 1_555
C5 H4 1_555 1_555
C6 C3 1_555 1_555
Ag1 N2 1_555 1_555
N2 C7 1_555 1_555
C7 C8 1_555 1_555
C8 C9 1_555 1_555
C9 C10 1_555 1_555
C10 C11 1_555 1_555
C11 N2 1_555 1_555
C12 C6 1_555 1_555
B1 F1 1_555 1_555
F1 B1K 1_555 1_555
F2 B1 1_555 1_555
F3 B1 1_555 1_555
F4 B1 1_555 1_555
N3 C13 1_555 1_555
C13 C14 1_555 1_555
C14 H11 1_555 1_555
N4 C15 1_555 1_555
C15 C16 1_555 1_555
C16 H14 1_555 1_555
H1 C1 1_555 1_555
H3 C4 1_555 1_555
H5 C6 1_555 1_555
H6 C7C 1_555 1_555
H7 C8C 1_555 1_555
H8 C10 1_555 1_555
H9 C11 1_555 1_555
H10 C12C 1_555 1_555
H12 C14 1_555 1_555
H13 C14 1_555 1_555
H15 C16 1_555 1_555
H16 C16 1_555 1_555
C2M C3 1_555 1_555
C1M C2M 1_555 1_555
N1M C5 1_555 1_555
Ag1Q N1M 1_555 1_555
H1M C1M 1_555 1_555
H2M C2M 1_555 1_555
C6C C6 1_555 1_555
C12C C12 1_555 1_555
C3C C6C 1_555 1_555
C2N C3C 1_555 1_555
C1N C2N 1_555 1_555
N1N C1N 1_555 1_555
C5C N1N 1_555 1_555
C4C C3C 1_555 1_555
H3C C4C 1_555 1_555
H4C C5C 1_555 1_555
Ag1W N1N 1_555 1_555
H1N C1N 1_555 1_555
H2N C2N 1_555 1_555
H5C C6C 1_555 1_555
C9C C12C 1_555 1_555
C8C C9C 1_555 1_555
C7C C8C 1_555 1_555
N2C C7C 1_555 1_555
Ag1C N2C 1_555 1_555
N1AA Ag1C 1_555 1_555
N1Z Ag1C 1_555 1_555
N2N Ag1C 1_555 1_555
C11C N2C 1_555 1_555
C10C C9C 1_555 1_555
H8C C10C 1_555 1_555
H9C C11C 1_555 1_555
H10C C12 1_555 1_555
H7C C8 1_555 1_555
H6C C7 1_555 1_555
B1K B1 1_555 1_555
F1K B1 1_555 1_555
F2K B1 1_555 1_555
F3K F4 1_555 1_555
F4K B1 1_555 1_555
C13A N3 1_555 1_555
C14A C13 1_555 1_555
H11A C14A 1_555 1_555
C9 C12 1_555 1_555
F1 F2K 1_555 1_555
F2 B1K 1_555 1_555
F2 F1K 1_555 1_555
F3 F4K 1_555 1_555
F4 B1K 1_555 1_555
F4 F4K 1_555 1_555
C13 C13A 1_555 1_555
C14 C13A 1_555 1_555
C14 C14A 1_555 1_555
H12 C14A 1_555 1_555
H13 C14A 1_555 1_555
C1M N1M 1_555 1_555
C6C C12C 1_555 1_555
C5C C4C 1_555 1_555
C11C C10C 1_555 1_555
B1K F1K 1_555 1_555
B1K F2K 1_555 1_555
B1K F3K 1_555 1_555
B1K F4K 1_555 1_555
C13A C14A 1_555 1_555

#END
