
#######################################################################
#
#                 Cambridge Crystallographic Data Centre
#                                CCDC 
#
#######################################################################
#
# If this CIF has been generated from an entry in the Cambridge 
# Structural Database, then it will include bibliographic, chemical, 
# crystal, experimental, refinement or atomic coordinate data resulting 
# from the CCDC's data processing and validation procedures.
#
#######################################################################

data_COLZAG
_chemical_formula_moiety         '(C33 H35 N5 O14 Zn2)n'
_symmetry_cell_setting           monoclinic
_symmetry_space_group_name_H-M   'C 2/c'
_symmetry_Int_Tables_number      15
_space_group_name_Hall           '-C 2yc'
loop_
_symmetry_equiv_pos_site_id
_symmetry_equiv_pos_as_xyz
1 x,y,z
2 -x,y,1/2-z
3 1/2+x,1/2+y,z
4 1/2-x,1/2+y,1/2-z
5 -x,-y,-z
6 x,-y,1/2+z
7 1/2-x,1/2-y,-z
8 1/2+x,1/2-y,1/2+z
_cell_length_a                   30.186(6)
_cell_length_b                   13.928(2)
_cell_length_c                   18.957(4)
_cell_angle_alpha                90
_cell_angle_beta                 114.668(3)
_cell_angle_gamma                90
_cell_volume                     7242.76
loop_
_atom_site_label
_atom_site_type_symbol
_atom_site_fract_x
_atom_site_fract_y
_atom_site_fract_z
_atom_site_U_iso_or_equiv
_atom_site_thermal_displace_type
C1 C 0.21742(14) 0.4552(3) 0.0101(2) 0.0221 Uani
C2 C 0.19484(14) 0.4621(3) 0.0673(2) 0.0213 Uani
C3 C 0.14618(15) 0.4366(3) 0.0415(3) 0.0305 Uani
H1 H 0.1291 0.4135 -0.0100 0.0370 Uiso
C4 C 0.12210(16) 0.4443(4) 0.0894(3) 0.0321 Uani
H2 H 0.0883 0.4298 0.0704 0.0390 Uiso
C5 C 0.14820(15) 0.4737(3) 0.1661(2) 0.0267 Uani
H3 H 0.1322 0.4792 0.1997 0.0320 Uiso
C6 C 0.19751(14) 0.4949(3) 0.1934(2) 0.0203 Uani
C7 C 0.22182(14) 0.4918(3) 0.1445(2) 0.0195 Uani
C8 C 0.22349(14) 0.5229(3) 0.2770(2) 0.0191 Uani
C9 C 0.27576(13) 0.5129(3) 0.1732(2) 0.0187 Uani
C10 C 0.29572(14) 0.6052(3) 0.1829(2) 0.0217 Uani
C11 C 0.34597(15) 0.6168(3) 0.2049(3) 0.0280 Uani
H4 H 0.3594 0.6796 0.2131 0.0330 Uiso
C12 C 0.37618(16) 0.5386(3) 0.2150(3) 0.0305 Uani
H5 H 0.4100 0.5476 0.2288 0.0360 Uiso
C13 C 0.35644(15) 0.4463(3) 0.2046(3) 0.0268 Uani
H6 H 0.3768 0.3919 0.2110 0.0330 Uiso
C14 C 0.30708(15) 0.4340(3) 0.1851(2) 0.0215 Uani
C15 C 0.28702(14) 0.3333(3) 0.1761(2) 0.0210 Uani
C16 C 0.26553(15) 0.6941(3) 0.1696(2) 0.0228 Uani
C17 C 0.33576(18) 0.3878(5) 0.0074(3) 0.0463 Uani
H7 H 0.3200 0.4161 0.0363 0.0560 Uiso
C18 C 0.3859(2) 0.3921(6) 0.0369(3) 0.0632 Uani
H8 H 0.4042 0.4244 0.0844 0.0760 Uiso
C19 C 0.40889(18) 0.3488(5) -0.0035(3) 0.0504 Uani
C20 C 0.38099(19) 0.3047(4) -0.0740(4) 0.0467 Uani
H9 H 0.3961 0.2745 -0.1032 0.0560 Uiso
C21 C 0.33074(17) 0.3056(3) -0.1009(3) 0.0347 Uani
H10 H 0.3116 0.2770 -0.1498 0.0420 Uiso
C22 C 0.4909(4) 0.2909(6) 0.0306(5) 0.0358 Uani
C23 C 0.62369(19) 0.2544(4) 0.1359(4) 0.0496 Uani
H11 H 0.6440 0.2001 0.1572 0.0600 Uiso
C24 C 0.5737(2) 0.2429(6) 0.1053(4) 0.0712 Uani
H12 H 0.5601 0.1815 0.1057 0.0860 Uiso
C25 C 0.5444(2) 0.3192(6) 0.0749(4) 0.0692 Uani
C26 C 0.5656(2) 0.4087(6) 0.0780(4) 0.0710 Uani
H13 H 0.5459 0.4643 0.0592 0.0850 Uiso
C27 C 0.61638(18) 0.4149(4) 0.1094(3) 0.0460 Uani
H14 H 0.6310 0.4758 0.1112 0.0550 Uiso
H15 H 0.477(3) 0.414(5) 0.072(4) 0.0600 Uiso
N1 N 0.30827(12) 0.3453(2) -0.0606(2) 0.0254 Uani
N2 N 0.4605(3) 0.3632(5) 0.0310(4) 0.0342 Uani
N3 N 0.64458(13) 0.3394(3) 0.1365(2) 0.0286 Uani
O1 O 0.20739(11) 0.3787(2) -0.02969(16) 0.0263 Uani
O2 O 0.24283(11) 0.5225(2) 0.00419(18) 0.0304 Uani
O3 O 0.20211(10) 0.5868(2) 0.29926(15) 0.0225 Uani
O4 O 0.26336(10) 0.4852(2) 0.32056(16) 0.0228 Uani
O5 O 0.26618(10) 0.3047(2) 0.21712(15) 0.0218 Uani
O6 O 0.29322(11) 0.2832(2) 0.12522(17) 0.0249 Uani
O7 O 0.28694(11) 0.7761(2) 0.18417(17) 0.0266 Uani
O8 O 0.22031(10) 0.6884(2) 0.14572(18) 0.0257 Uani
O9 O 0.47547(14) 0.2165(3) -0.0027(3) 0.0676 Uani
O10 O 0.30033(11) 0.3663(2) 0.45564(17) 0.0283 Uani
H16 H 0.2849 0.4108 0.4664 0.0800 Uiso
H17 H 0.3028 0.3203 0.4865 0.0580 Uiso
Zn1 Zn 0.235143(16) 0.34629(3) -0.10180(2) 0.0191 Uani
Zn2 Zn 0.280602(16) 0.34357(3) 0.33424(3) 0.0206 Uani
N3A N 0.35542(13) 0.3394(3) 0.3635(2) 0.0286 Uani
O3E O 0.20211(10) 0.4132(2) -0.20074(15) 0.0225 Uani
O6F O 0.20678(11) 0.2168(2) -0.12522(17) 0.0249 Uani
O7C O 0.21306(11) 0.2761(2) 0.31583(17) 0.0266 Uani
O8C O 0.27969(10) 0.1884(2) 0.35428(18) 0.0257 Uani
Zn1E Zn 0.235143(16) 0.65371(3) 0.39820(2) 0.0191 Uani
Zn1F Zn 0.264857(16) 0.15371(3) 0.10180(2) 0.0191 Uani
Zn2A Zn 0.719398(16) 0.34357(3) 0.16576(3) 0.0206 Uani
Zn2C Zn 0.219398(16) 0.84357(3) 0.16576(3) 0.0206 Uani
C32 C 0.4350(6) 0.7735(12) 0.1042(8) 0.1396 Uani
H25 H 0.4028 0.7451 0.0746 0.2090 Uiso
H26 H 0.4411 0.8237 0.0732 0.2090 Uiso
H27 H 0.4360 0.8014 0.1523 0.2090 Uiso
C33 C 0.5199(4) 0.7068(9) 0.1714(7) 0.0735 Uani
H28 H 0.5344 0.7703 0.1732 0.1100 Uiso
H29 H 0.5356 0.6599 0.1507 0.1100 Uiso
H30 H 0.5248 0.6878 0.2239 0.1100 Uiso
C34 C 0.4503(5) 0.6092(11) 0.1018(9) 0.0911 Uani
H31 H 0.4166 0.5951 0.0752 0.1090 Uiso
N5 N 0.4665(3) 0.7107(7) 0.1200(5) 0.1267 Uani
O11 O 0.4861(3) 0.5305(6) 0.1243(4) 0.1151 Uani
C35 C 0.4109(6) 0.1842(10) 0.1808(9) 0.1810 Uani
H32 H 0.3803 0.1958 0.1825 0.2170 Uiso
C36 C 0.4727(3) 0.0861(10) 0.1516(5) 0.1293 Uani
H33 H 0.4623 0.0815 0.0953 0.1940 Uiso
H34 H 0.4889 0.0263 0.1762 0.1940 Uiso
H35 H 0.4955 0.1398 0.1720 0.1940 Uiso
C37 C 0.4070(5) 0.0214(9) 0.1808(9) 0.1511 Uani
H36 H 0.3813 0.0426 0.1962 0.2270 Uiso
H37 H 0.4306 -0.0181 0.2221 0.2270 Uiso
H38 H 0.3924 -0.0164 0.1329 0.2270 Uiso
N6 N 0.4306(2) 0.1019(5) 0.1681(3) 0.0675 Uani
O12 O 0.4495(8) 0.2466(11) 0.1907(12) 0.4058 Uani
O13 O 0.31085(13) 0.2023(3) 0.5477(2) 0.0387 Uani
H39 H 0.3033 0.2174 0.5847 2.0000 Uiso
H40 H 0.2966 0.1486 0.5331 0.1000 Uiso
O14 O 0.5000 0.4063(10) 0.2500 0.1629 Uani
H41 H 0.5095 0.3681 0.2243 0.5000 Uiso
H41A H 0.4905 0.3681 0.2757 0.5000 Uiso
loop_
_atom_site_aniso_label
_atom_site_aniso_U_11
_atom_site_aniso_U_22
_atom_site_aniso_U_33
_atom_site_aniso_U_23
_atom_site_aniso_U_13
_atom_site_aniso_U_12
C1 0.0237(19) 0.027(2) 0.0164(17) -0.0006(15) 0.0091(15) 0.0019(16)
C2 0.0248(19) 0.0236(19) 0.0197(18) -0.0026(15) 0.0133(15) -0.0022(15)
C3 0.023(2) 0.046(3) 0.023(2) -0.0097(19) 0.0100(17) -0.0053(19)
C4 0.021(2) 0.047(3) 0.030(2) -0.009(2) 0.0123(18) -0.0075(19)
C5 0.024(2) 0.039(2) 0.0223(19) -0.0057(17) 0.0148(16) -0.0037(17)
C6 0.0236(19) 0.0211(18) 0.0194(18) -0.0009(14) 0.0122(15) -0.0008(15)
C7 0.0203(18) 0.0222(18) 0.0192(18) -0.0013(15) 0.0115(15) 0.0003(14)
C8 0.0212(18) 0.0209(18) 0.0192(17) -0.0003(14) 0.0125(15) -0.0024(14)
C9 0.0183(17) 0.0247(19) 0.0147(16) 0.0005(14) 0.0085(14) -0.0001(14)
C10 0.025(2) 0.025(2) 0.0198(18) -0.0002(15) 0.0141(15) -0.0005(16)
C11 0.027(2) 0.025(2) 0.034(2) -0.0031(17) 0.0147(18) -0.0049(17)
C12 0.024(2) 0.031(2) 0.039(2) 0.0000(19) 0.0156(18) -0.0021(17)
C13 0.023(2) 0.028(2) 0.032(2) 0.0019(17) 0.0141(17) 0.0016(16)
C14 0.027(2) 0.0216(19) 0.0203(18) -0.0035(15) 0.0141(16) -0.0016(15)
C15 0.0204(18) 0.0211(19) 0.0213(18) 0.0011(15) 0.0086(15) 0.0017(15)
C16 0.025(2) 0.026(2) 0.0196(18) -0.0028(15) 0.0116(16) -0.0021(16)
C17 0.028(2) 0.088(4) 0.023(2) 0.000(3) 0.0107(19) -0.006(3)
C18 0.030(3) 0.134(6) 0.025(3) 0.005(3) 0.011(2) -0.014(3)
C19 0.019(2) 0.090(5) 0.039(3) 0.025(3) 0.009(2) 0.007(2)
C20 0.037(3) 0.049(3) 0.064(4) 0.009(3) 0.031(3) 0.011(2)
C21 0.030(2) 0.034(2) 0.047(3) -0.002(2) 0.023(2) 0.0022(19)
C22 0.024(5) 0.029(4) 0.055(5) 0.005(3) 0.017(4) 0.004(3)
C23 0.030(3) 0.052(3) 0.070(4) 0.003(3) 0.024(3) -0.006(2)
C24 0.030(3) 0.095(5) 0.083(5) 0.019(4) 0.018(3) -0.018(3)
C25 0.027(3) 0.120(6) 0.057(4) 0.045(4) 0.014(3) -0.004(3)
C26 0.034(3) 0.108(6) 0.076(5) 0.065(4) 0.028(3) 0.030(3)
C27 0.028(2) 0.061(3) 0.054(3) 0.032(3) 0.022(2) 0.016(2)
N1 0.0205(16) 0.0305(19) 0.0262(18) 0.0083(14) 0.0108(14) 0.0027(14)
N2 0.023(5) 0.042(5) 0.038(4) -0.002(3) 0.013(3) 0.004(3)
N3 0.0203(17) 0.042(2) 0.0262(18) 0.0060(16) 0.0123(14) -0.0003(15)
O1 0.0331(16) 0.0293(15) 0.0227(14) -0.0068(12) 0.0177(13) -0.0052(12)
O2 0.0365(17) 0.0341(17) 0.0278(15) -0.0023(13) 0.0204(13) -0.0080(13)
O3 0.0244(14) 0.0250(14) 0.0184(13) -0.0044(11) 0.0091(11) -0.0016(11)
O4 0.0262(14) 0.0228(14) 0.0197(13) -0.0015(11) 0.0099(11) 0.0015(11)
O5 0.0272(14) 0.0225(14) 0.0192(13) -0.0017(11) 0.0131(11) -0.0012(11)
O6 0.0338(16) 0.0205(14) 0.0263(15) -0.0033(11) 0.0184(13) -0.0013(12)
O7 0.0300(15) 0.0219(14) 0.0319(16) -0.0033(12) 0.0169(13) -0.0033(12)
O8 0.0272(15) 0.0200(14) 0.0334(16) -0.0020(12) 0.0161(13) -0.0003(11)
O9 0.029(2) 0.045(2) 0.118(4) -0.020(3) 0.020(2) -0.0030(18)
O10 0.0353(17) 0.0291(16) 0.0249(15) -0.0004(13) 0.0170(13) 0.0050(13)
Zn1 0.0204(2) 0.0229(2) 0.0158(2) 0.00064(16) 0.00934(18) 0.00053(17)
Zn2 0.0208(2) 0.0217(2) 0.0217(2) 0.00024(17) 0.01136(19) 0.00076(17)
N3A 0.0203 0.042 0.0262 -0.006 0.0123 0.0003
O3E 0.0244 0.025 0.0184 0.0044 0.0091 0.0016
O6F 0.0338 0.0205 0.0263 -0.0033 0.0184 -0.0013
O7C 0.03 0.0219 0.0319 0.0033 0.0169 0.0033
O8C 0.0272 0.02 0.0334 0.002 0.0161 0.0003
Zn1E 0.0204 0.0229 0.0158 -0.00064 0.00934 -0.00053
Zn1F 0.0204 0.0229 0.0158 0.00064 0.00934 0.00053
Zn2A 0.0208 0.0217 0.0217 -0.00024 0.01136 -0.00076
Zn2C 0.0208 0.0217 0.0217 -0.00024 0.01136 -0.00076
C32 0.138(13) 0.122(12) 0.102(12) -0.043(11) -0.006(11) 0.064(11)
C33 0.075(6) 0.070(8) 0.061(7) 0.017(6) 0.014(6) -0.009(6)
C34 0.078(8) 0.106(8) 0.106(10) -0.013(8) 0.055(8) 0.004(7)
N5 0.097(5) 0.148(7) 0.138(8) -0.061(7) 0.052(5) 0.004(5)
O11 0.130(6) 0.129(6) 0.112(5) -0.071(5) 0.076(5) -0.051(5)
C35 0.140(10) 0.121(8) 0.196(14) -0.077(9) -0.015(9) 0.037(7)
C36 0.082(6) 0.250(14) 0.066(5) 0.002(7) 0.041(5) -0.038(7)
C37 0.162(11) 0.136(8) 0.231(15) 0.084(10) 0.157(11) 0.033(8)
N6 0.064(3) 0.090(4) 0.048(3) 0.012(3) 0.023(3) 0.006(3)
O12 0.46(3) 0.170(10) 0.38(2) 0.060(13) -0.03(2) -0.148(16)
O13 0.045(2) 0.0389(19) 0.0369(18) -0.0022(15) 0.0218(16) -0.0063(16)
O14 0.218(15) 0.116(9) 0.124(10) 0.000 0.041(10) 0.000
loop_
_geom_bond_atom_site_label_1
_geom_bond_atom_site_label_2
_geom_bond_site_symmetry_1
_geom_bond_site_symmetry_2
C1 C2 1_555 1_555
C2 C3 1_555 1_555
C3 H1 1_555 1_555
C4 C3 1_555 1_555
H2 C4 1_555 1_555
C5 C4 1_555 1_555
H3 C5 1_555 1_555
C6 C5 1_555 1_555
C7 C2 1_555 1_555
C8 C6 1_555 1_555
C9 C7 1_555 1_555
C10 C9 1_555 1_555
C11 C10 1_555 1_555
H4 C11 1_555 1_555
C12 C11 1_555 1_555
H5 C12 1_555 1_555
C13 C12 1_555 1_555
H6 C13 1_555 1_555
C14 C9 1_555 1_555
C15 C14 1_555 1_555
C16 C10 1_555 1_555
C17 H7 1_555 1_555
C18 C17 1_555 1_555
H8 C18 1_555 1_555
C19 C18 1_555 1_555
C20 C19 1_555 1_555
H9 C20 1_555 1_555
C21 C20 1_555 1_555
H10 C21 1_555 1_555
C22 C25 1_555 1_555
C23 H11 1_555 1_555
C24 C23 1_555 1_555
H12 C24 1_555 1_555
C25 C24 1_555 1_555
C26 C25 1_555 1_555
H13 C26 1_555 1_555
C27 C26 1_555 1_555
H14 C27 1_555 1_555
H15 N2 1_555 1_555
N1 C17 1_555 1_555
N2 C19 1_555 1_555
N3 C23 1_555 1_555
O1 C1 1_555 1_555
O2 C1 1_555 1_555
O3 C8 1_555 1_555
O4 C8 1_555 1_555
O5 C15 1_555 1_555
O6 C15 1_555 1_555
O7 C16 1_555 1_555
O8 C16 1_555 1_555
O9 C22 1_555 1_555
O10 H16 1_555 1_555
H17 O10 1_555 1_555
Zn1 N1 1_555 1_555
Zn2 O4 1_555 1_555
C32 H25 1_555 1_555
H26 C32 1_555 1_555
H27 C32 1_555 1_555
C33 H28 1_555 1_555
H29 C33 1_555 1_555
H30 C33 1_555 1_555
C34 H31 1_555 1_555
N5 C32 1_555 1_555
O11 C34 1_555 1_555
C35 H32 1_555 1_555
C36 H33 1_555 1_555
H34 C36 1_555 1_555
H35 C36 1_555 1_555
C37 H36 1_555 1_555
H37 C37 1_555 1_555
H38 C37 1_555 1_555
N6 C35 1_555 1_555
O12 C35 1_555 1_555
O13 H39 1_555 1_555
H40 O13 1_555 1_555
O14 H41 1_555 1_555
N3A Zn2 1_555 1_555
O3E Zn1 1_555 1_555
O6F Zn1 1_555 1_555
O7C Zn2 1_555 1_555
O8C Zn2 1_555 1_555
Zn1E O3 1_555 1_555
Zn1F O6 1_555 1_555
Zn2A N3 1_555 1_555
Zn2C O7 1_555 1_555
H41A O14 1_555 1_555
C6 C7 1_555 1_555
C13 C14 1_555 1_555
C21 N1 1_555 1_555
C22 N2 1_555 1_555
C27 N3 1_555 1_555
O1 Zn1 1_555 1_555
O5 Zn2 1_555 1_555
O8 Zn2C 1_555 1_555
O10 Zn2 1_555 1_555
C33 N5 1_555 1_555
C34 N5 1_555 1_555
C36 N6 1_555 1_555
C37 N6 1_555 1_555

#END
