
#######################################################################
#
#                 Cambridge Crystallographic Data Centre
#                                CCDC 
#
#######################################################################
#
# If this CIF has been generated from an entry in the Cambridge 
# Structural Database, then it will include bibliographic, chemical, 
# crystal, experimental, refinement or atomic coordinate data resulting 
# from the CCDC's data processing and validation procedures.
#
#######################################################################

data_QAQKEB
_chemical_formula_moiety         '(C17 H10 N8 O7 Zn2)n'
_symmetry_cell_setting           monoclinic
_symmetry_space_group_name_H-M   'P 21/c'
_symmetry_Int_Tables_number      14
_space_group_name_Hall           '-P 2ybc'
loop_
_symmetry_equiv_pos_site_id
_symmetry_equiv_pos_as_xyz
1 x,y,z
2 -x,1/2+y,1/2-z
3 -x,-y,-z
4 x,1/2-y,1/2+z
_cell_length_a                   16.228(5)
_cell_length_b                   6.838(5)
_cell_length_c                   23.753(5)
_cell_angle_alpha                90
_cell_angle_beta                 101.728(5)
_cell_angle_gamma                90
_cell_volume                     2580.77
loop_
_atom_site_label
_atom_site_type_symbol
_atom_site_fract_x
_atom_site_fract_y
_atom_site_fract_z
Zn1 Zn -0.00084(3) 0.26684(9) 0.24929(2)
Zn2 Zn 0.17497(4) 0.02011(10) 0.21812(3)
C1 C 0.2205(3) 0.5173(7) 0.2193(2)
N1 N 0.1748(3) 0.6768(7) 0.2219(2)
O1 O 0.0806(2) 0.0182(5) 0.26017(17)
O2 O -0.0486(3) -0.1532(7) 0.16520(19)
N2 N 0.1736(3) 0.3533(7) 0.21989(19)
N3 N 0.5680(3) 0.5151(7) 0.2128(2)
C2 C 0.4809(4) 0.5151(8) 0.2152(3)
N4 N 0.7052(3) 0.5164(6) 0.2362(2)
O3 O -0.0507(3) 0.1853(7) 0.16407(19)
N5 N 0.0976(3) 0.4223(7) 0.2234(2)
N6 N 0.0993(3) 0.6107(7) 0.22455(19)
C3 C 0.3378(4) 0.5090(9) 0.1650(3)
H1 H 0.2981 0.5033 0.1307
C4 C 0.3106(3) 0.5138(8) 0.2179(3)
C5 C 0.4226(4) 0.5124(9) 0.1635(3)
H2 H 0.4402 0.5130 0.1286
C6 C 0.3702(4) 0.5151(8) 0.2670(3)
H3 H 0.3533 0.5167 0.3022
C7 C 0.4557(4) 0.5140(8) 0.2668(3)
H4 H 0.4952 0.5126 0.3012
C8 C 0.6344(4) 0.5174(8) 0.2568(3)
C9 C 0.6770(4) 0.5097(9) 0.1781(3)
N7 N 0.5951(4) 0.5092(8) 0.1622(3)
C10 C -0.0609(5) 0.0099(10) 0.1433(4)
C11 C -0.1578(4) -0.0024(8) -0.0401(3)
C12 C -0.0727(4) 0.0106(8) -0.0172(3)
C13 C -0.0446(4) 0.0148(8) 0.0417(3)
H5 H 0.0127 0.0235 0.0572
C14 C -0.1015(4) 0.0060(8) 0.0776(3)
C15 C -0.1866(4) -0.0069(8) 0.0546(3)
C16 C -0.2147(4) -0.0111(8) -0.0042(3)
H6 H -0.2721 -0.0199 -0.0197
C17 C -0.1918(7) -0.0114(11) -0.1060(4)
O4 O -0.2630(5) -0.0292(11) -0.1250(3)
O5 O -0.1338(4) -0.0068(6) -0.1354(2)
O6 O -0.2304(7) 0.0019(10) 0.1434(3)
N8 N -0.2489(6) -0.0100(11) 0.0915(3)
O7 O -0.3229(6) -0.0070(11) 0.0692(5)
Zn1A Zn 0.00084(3) -0.23316(9) 0.25071(2)
Zn1A_2 Zn 0.00084(3) 0.76684(9) 0.25071(2)
Zn2_2 Zn 0.17497(4) 1.02011(10) 0.21812(3)
Zn2A Zn 0.82503(4) 0.52011(10) 0.28188(3)
Zn2B Zn -0.17497(4) -0.02011(10) -0.21812(3)
N1_2 N 0.1748(3) -0.3232(7) 0.2219(2)
O1A O -0.0806(2) 0.5182(5) 0.23983(17)
O2A O 0.0486(3) 0.3468(7) 0.33480(19)
N4A N 0.2948(3) 0.0164(6) 0.2638(2)
N6A N -0.0993(3) 0.1107(7) 0.27545(19)
O5B O 0.1338(4) 0.0068(6) 0.1354(2)
loop_
_geom_bond_atom_site_label_1
_geom_bond_atom_site_label_2
_geom_bond_site_symmetry_1
_geom_bond_site_symmetry_2
Zn1 O1 1_555 1_555
Zn2 O1 1_555 1_555
C1 N1 1_555 1_555
N1 N6 1_555 1_555
O1 Zn1A 1_555 1_555
O2 C10 1_555 1_555
N2 Zn2 1_555 1_555
N3 C2 1_555 1_555
C2 C5 1_555 1_555
N4 C8 1_555 1_555
O3 Zn1 1_555 1_555
N5 Zn1 1_555 1_555
N6 N5 1_555 1_555
C3 H1 1_555 1_555
C4 C1 1_555 1_555
C5 C3 1_555 1_555
H2 C5 1_555 1_555
C6 C4 1_555 1_555
H3 C6 1_555 1_555
C7 C2 1_555 1_555
H4 C7 1_555 1_555
C8 N3 1_555 1_555
C9 N4 1_555 1_555
N7 N3 1_555 1_555
C10 O3 1_555 1_555
C11 C12 1_555 1_555
C12 C13 1_555 1_555
C13 H5 1_555 1_555
C14 C10 1_555 1_555
C15 C14 1_555 1_555
C16 C11 1_555 1_555
H6 C16 1_555 1_555
C17 C11 1_555 1_555
O4 C17 1_555 1_555
O5 C17 1_555 1_555
O6 N8 1_555 1_555
N8 C15 1_555 1_555
O7 N8 1_555 1_555
Zn1A O2 1_555 1_555
Zn1A_2 N6 1_555 1_555
Zn2_2 N1 1_555 1_555
Zn2A N4 1_555 1_555
Zn2B O5 1_555 1_555
N1_2 Zn2 1_555 1_555
O1A Zn1 1_555 1_555
O2A Zn1 1_555 1_555
N4A Zn2 1_555 1_555
N6A Zn1 1_555 1_555
O5B Zn2 1_555 1_555
C1 N2 1_555 1_555
N2 N5 1_555 1_555
C3 C4 1_555 1_555
C6 C7 1_555 1_555
C9 N7 1_555 1_555
C13 C14 1_555 1_555
C15 C16 1_555 1_555
Zn1A_2 O1A 1_555 1_555

#END
