
#######################################################################
#
#                 Cambridge Crystallographic Data Centre
#                                CCDC 
#
#######################################################################
#
# If this CIF has been generated from an entry in the Cambridge 
# Structural Database, then it will include bibliographic, chemical, 
# crystal, experimental, refinement or atomic coordinate data resulting 
# from the CCDC's data processing and validation procedures.
#
#######################################################################

data_RUHFOR
_chemical_formula_moiety         'C12 Cu7 O28 Pr1 S3'
_symmetry_cell_setting           cubic
_symmetry_space_group_name_H-M   'P 21 3'
_symmetry_Int_Tables_number      198
_space_group_name_Hall           'P 2ac 2ab 3'
loop_
_symmetry_equiv_pos_site_id
_symmetry_equiv_pos_as_xyz
1 x,y,z
2 1/2-x,-y,1/2+z
3 1/2+x,1/2-y,-z
4 -x,1/2+y,1/2-z
5 y,z,x
6 1/2-y,-z,1/2+x
7 1/2+y,1/2-z,-x
8 -y,1/2+z,1/2-x
9 z,x,y
10 -z,1/2+x,1/2-y
11 1/2-z,-x,1/2+y
12 1/2+z,1/2-x,-y
_cell_length_a                   17.580(2)
_cell_length_b                   17.580(2)
_cell_length_c                   17.580(2)
_cell_angle_alpha                90
_cell_angle_beta                 90
_cell_angle_gamma                90
_cell_volume                     5433.21
loop_
_atom_site_label
_atom_site_type_symbol
_atom_site_fract_x
_atom_site_fract_y
_atom_site_fract_z
_atom_site_U_iso_or_equiv
_atom_site_thermal_displace_type
Cu1 Cu 0.50127(9) 0.40556(11) 0.84804(10) 0.0778 Uani
Pr1 Pr 0.39864(5) 0.10136(5) 0.89864(5) 0.0701 Uani
C1 C 0.4923(8) 0.2637(8) 0.9090(10) 0.0797 Uani
C2 C 0.4136(8) 0.2898(8) 0.8853(8) 0.0747 Uani
C3 C 0.4871(8) 0.2423(11) 1.0004(10) 0.0820 Uani
O1 O 0.5461(4) 0.3222(5) 0.9021(5) 0.0670 Uani
O2 O 0.5090(5) 0.1987(5) 0.8731(5) 0.0767 Uani
O3 O 0.4531(7) 0.1765(6) 1.0121(6) 0.1007 Uani
O4 O 0.3608(5) 0.2402(5) 0.8890(5) 0.0753 Uani
O5 O 0.4019(5) 0.3560(5) 0.8676(6) 0.0823 Uani
O6 O 0.5191(7) 0.2811(6) 1.0463(6) 0.0860 Uani
O7 O 0.4793(9) 0.0207(9) 0.9793(9) 0.1450 Uani
O8 O 0.5295(5) 0.4705(5) 0.9705(5) 0.0960 Uani
C4 C 0.401(3) 0.545(4) 0.997(3) 0.3700 Uiso
S1 S 0.4710(10) 0.4800 1.0285(11) 0.2210 Uani
C4G C 0.455(4) 0.497(3) 1.099(3) 0.3700 Uiso
S1G S 0.5200 0.5285(11) 1.0290(10) 0.2210 Uani
C4J C 0.503(3) 0.599(3) 1.045(4) 0.3700 Uiso
S1J S 0.4715(11) 0.5290(10) 0.9800 0.2210 Uani
Cu1E Cu 0.09444(11) 0.15196(10) 1.00127(9) 0.0778 Uani
C1E C 0.2363(8) 0.0910(10) 0.9923(8) 0.0797 Uani
C2E C 0.2102(8) 0.1147(8) 0.9136(8) 0.0747 Uani
C3E C 0.2577(11) -0.0004(10) 0.9871(8) 0.0820 Uani
O1E O 0.1778(5) 0.0979(5) 1.0461(4) 0.0670 Uani
O2E O 0.3013(5) 0.1269(5) 1.0090(5) 0.0767 Uani
O3E O 0.3235(6) -0.0121(6) 0.9531(7) 0.1007 Uani
O4E O 0.2598(5) 0.1110(5) 0.8608(5) 0.0753 Uani
O5E O 0.1440(5) 0.1324(6) 0.9019(5) 0.0823 Uani
O6E O 0.2189(6) -0.0463(6) 1.0191(7) 0.0860 Uani
Cu1K Cu 0.34804(10) -0.00127(9) 0.59444(11) 0.0778 Uani
C1K C 0.4090(10) 0.0077(8) 0.7363(8) 0.0797 Uani
C2K C 0.3853(8) 0.0864(8) 0.7102(8) 0.0747 Uani
C3K C 0.5004(10) 0.0129(8) 0.7577(11) 0.0820 Uani
O1K O 0.4021(5) -0.0461(4) 0.6778(5) 0.0670 Uani
O2K O 0.3731(5) -0.0090(5) 0.8013(5) 0.0767 Uani
O3K O 0.5121(6) 0.0469(7) 0.8235(6) 0.1007 Uani
O4K O 0.3890(5) 0.1392(5) 0.7598(5) 0.0753 Uani
O5K O 0.3676(6) 0.0981(5) 0.6440(5) 0.0823 Uani
O6K O 0.5463(6) -0.0191(7) 0.7189(6) 0.0860 Uani
Cu1C Cu 0.49873(9) -0.09444(11) 0.65196(10) 0.0778 Uani
Cu1G Cu 0.59444(11) 0.34804(10) 0.99873(9) 0.0778 Uani
Cu1I Cu 0.15196(10) 0.00127(9) 1.09444(11) 0.0778 Uani
Cu1J Cu 0.65196(10) 0.49873(9) 0.90556(11) 0.0778 Uani
O1B O 0.0461(4) 0.1778(5) 1.0979(5) 0.0670 Uani
O1D O 0.3222(5) -0.0979(5) 0.5461(4) 0.0670 Uani
O1J O 0.5979(5) 0.4539(4) 0.8222(5) 0.0670 Uani
O6B O 0.0191(7) 0.2189(6) 0.9537(6) 0.0860 Uani
O6D O 0.2811(6) 0.0463(6) 0.5191(7) 0.0860 Uani
O6J O 0.4537(6) 0.4809(7) 0.7811(6) 0.0860 Uani
O8B O 0.0295(5) 0.0295(5) 1.0295(5) 0.0960 Uani
O8C O 0.4705(5) -0.0295(5) 0.5295(5) 0.0960 Uani
loop_
_atom_site_aniso_label
_atom_site_aniso_U_11
_atom_site_aniso_U_22
_atom_site_aniso_U_33
_atom_site_aniso_U_23
_atom_site_aniso_U_13
_atom_site_aniso_U_12
Cu1 0.0670(10) 0.0794(11) 0.0871(12) 0.0148(10) -0.0001(9) 0.0000(9)
Pr1 0.0701(5) 0.0701(5) 0.0701(5) -0.0023(4) 0.0023(4) -0.0023(4)
C1 0.067(8) 0.078(8) 0.094(10) -0.018(9) 0.002(9) -0.018(8)
C2 0.063(7) 0.083(9) 0.078(9) 0.026(8) -0.016(7) -0.023(7)
C3 0.054(7) 0.111(12) 0.081(9) 0.014(10) -0.012(7) -0.009(8)
O1 0.059(4) 0.086(5) 0.056(4) -0.014(5) -0.007(4) -0.018(4)
O2 0.082(6) 0.080(6) 0.068(5) -0.015(5) -0.019(5) 0.018(5)
O3 0.111(8) 0.096(8) 0.095(7) 0.024(6) -0.001(7) -0.048(7)
O4 0.074(5) 0.075(5) 0.077(6) 0.003(5) 0.000(5) -0.003(5)
O5 0.076(6) 0.063(5) 0.108(7) 0.019(5) 0.002(6) 0.003(5)
O6 0.101(7) 0.091(7) 0.066(6) -0.014(5) 0.002(6) -0.019(6)
O7 0.145(9) 0.145(9) 0.145(9) 0.006(10) -0.006(10) 0.006(10)
O8 0.096(5) 0.096(5) 0.096(5) -0.011(6) 0.011(6) 0.011(6)
S1 0.079(12) 0.49(5) 0.094(13) -0.04(3) 0.009(8) 0.08(2)
S1G 0.49 0.094 0.079 -0.009 0.08 0.04
S1J 0.094 0.079 0.49 -0.08 0.04 0.009
Cu1E 0.0794 0.0871 0.067 0.0001 0 0.0148
C1E 0.078 0.094 0.067 -0.002 0.018 -0.018
C2E 0.083 0.078 0.063 0.016 0.023 0.026
C3E 0.111 0.081 0.054 0.012 0.009 0.014
O1E 0.086 0.056 0.059 0.007 0.018 -0.014
O2E 0.08 0.068 0.082 0.019 -0.018 -0.015
O3E 0.096 0.095 0.111 0.001 0.048 0.024
O4E 0.075 0.077 0.074 0 0.003 0.003
O5E 0.063 0.108 0.076 -0.002 -0.003 0.019
O6E 0.091 0.066 0.101 -0.002 0.019 -0.014
Cu1K 0.0871 0.067 0.0794 0 -0.0148 0.0001
C1K 0.094 0.067 0.078 -0.018 0.018 -0.002
C2K 0.078 0.063 0.083 -0.023 -0.026 0.016
C3K 0.081 0.054 0.111 -0.009 -0.014 0.012
O1K 0.056 0.059 0.086 -0.018 0.014 0.007
O2K 0.068 0.082 0.08 0.018 0.015 0.019
O3K 0.095 0.111 0.096 -0.048 -0.024 0.001
O4K 0.077 0.074 0.075 -0.003 -0.003 0
O5K 0.108 0.076 0.063 0.003 -0.019 -0.002
O6K 0.066 0.101 0.091 -0.019 0.014 -0.002
Cu1C 0.067 0.0794 0.0871 -0.0148 -0.0001 0
Cu1G 0.0794 0.0871 0.067 0.0001 0 -0.0148
Cu1I 0.0871 0.067 0.0794 0 0.0148 0.0001
Cu1J 0.0871 0.067 0.0794 0 -0.0148 -0.0001
O1B 0.059 0.086 0.056 -0.014 0.007 0.018
O1D 0.086 0.056 0.059 -0.007 -0.018 -0.014
O1J 0.056 0.059 0.086 0.018 0.014 -0.007
O6B 0.101 0.091 0.066 -0.014 -0.002 0.019
O6D 0.091 0.066 0.101 0.002 -0.019 -0.014
O6J 0.066 0.101 0.091 0.019 0.014 0.002
O8B 0.096 0.096 0.096 -0.011 -0.011 -0.011
O8C 0.096 0.096 0.096 0.011 0.011 -0.011
loop_
_geom_bond_atom_site_label_1
_geom_bond_atom_site_label_2
_geom_bond_site_symmetry_1
_geom_bond_site_symmetry_2
Cu1 O1 1_555 1_555
Pr1 O2 1_555 1_555
C1 C2 1_555 1_555
C2 O4 1_555 1_555
C3 C1 1_555 1_555
O1 C1 1_555 1_555
O2 C1 1_555 1_555
O3 Pr1 1_555 1_555
O4 Pr1 1_555 1_555
O5 Cu1 1_555 1_555
O6 C3 1_555 1_555
O7 Pr1 1_555 1_555
O8 Cu1 1_555 1_555
C4 S1 1_555 1_555
S1 O8 1_555 1_555
C4G S1 1_555 1_555
S1G O8 1_555 1_555
C4J S1G 1_555 1_555
S1J O8 1_555 1_555
Cu1E O1E 1_555 1_555
C1E C2E 1_555 1_555
C2E O4E 1_555 1_555
C3E C1E 1_555 1_555
O1E C1E 1_555 1_555
O2E Pr1 1_555 1_555
O3E Pr1 1_555 1_555
O4E Pr1 1_555 1_555
O5E Cu1E 1_555 1_555
O6E C3E 1_555 1_555
Cu1K O1K 1_555 1_555
C1K C2K 1_555 1_555
C2K O4K 1_555 1_555
C3K C1K 1_555 1_555
O1K C1K 1_555 1_555
O2K Pr1 1_555 1_555
O3K Pr1 1_555 1_555
O4K Pr1 1_555 1_555
O5K Cu1K 1_555 1_555
O6K C3K 1_555 1_555
Cu1C O1K 1_555 1_555
Cu1G O1 1_555 1_555
Cu1I O1E 1_555 1_555
Cu1J O8 1_555 1_555
O1B Cu1E 1_555 1_555
O1D Cu1K 1_555 1_555
O1J Cu1 1_555 1_555
O6B Cu1E 1_555 1_555
O6D Cu1K 1_555 1_555
O6J Cu1 1_555 1_555
O8B Cu1E 1_555 1_555
O8C Cu1K 1_555 1_555
C2 O5 1_555 1_555
C3 O3 1_555 1_555
O6 Cu1G 1_555 1_555
O8 Cu1G 1_555 1_555
C4 S1J 1_555 1_555
S1 S1G 1_555 1_555
S1 S1J 1_555 1_555
C4G S1G 1_555 1_555
S1G S1J 1_555 1_555
C4J S1J 1_555 1_555
C1E O2E 1_555 1_555
C2E O5E 1_555 1_555
C3E O3E 1_555 1_555
O6E Cu1I 1_555 1_555
C1K O2K 1_555 1_555
C2K O5K 1_555 1_555
C3K O3K 1_555 1_555
O6K Cu1C 1_555 1_555
Cu1C O8C 1_555 1_555
Cu1I O8B 1_555 1_555
Cu1J O1J 1_555 1_555

#END
