
#######################################################################
#
#                 Cambridge Crystallographic Data Centre
#                                CCDC 
#
#######################################################################
#
# If this CIF has been generated from an entry in the Cambridge 
# Structural Database, then it will include bibliographic, chemical, 
# crystal, experimental, refinement or atomic coordinate data resulting 
# from the CCDC's data processing and validation procedures.
#
#######################################################################

data_GUXPUL
_chemical_formula_moiety         '(C16 H14 F2 N6 O5 Zn1)n'
_symmetry_cell_setting           tetragonal
_symmetry_space_group_name_H-M   'I 41/a'
_symmetry_Int_Tables_number      88
_space_group_name_Hall           '-I 4ad'
loop_
_symmetry_equiv_pos_site_id
_symmetry_equiv_pos_as_xyz
1 x,y,z
2 1/2-x,-y,1/2+z
3 3/4-y,1/4+x,1/4+z
4 3/4+y,3/4-x,3/4+z
5 1/2+x,1/2+y,1/2+z
6 -x,1/2-y,z
7 1/4-y,3/4+x,3/4+z
8 1/4+y,1/4-x,1/4+z
9 -x,-y,-z
10 1/2+x,y,1/2-z
11 1/4+y,3/4-x,3/4-z
12 1/4-y,1/4+x,1/4-z
13 1/2-x,1/2-y,1/2-z
14 x,1/2+y,-z
15 3/4+y,1/4-x,1/4-z
16 3/4-y,3/4+x,3/4-z
_cell_length_a                   30.1922(9)
_cell_length_b                   30.1922(9)
_cell_length_c                   8.6557(3)
_cell_angle_alpha                90
_cell_angle_beta                 90
_cell_angle_gamma                90
_cell_volume                     7890.27
loop_
_atom_site_label
_atom_site_type_symbol
_atom_site_fract_x
_atom_site_fract_y
_atom_site_fract_z
_atom_site_U_iso_or_equiv
_atom_site_thermal_displace_type
Zn1 Zn 0.896831(8) 0.261155(8) 0.05475(3) 0.0317 Uani
O1 O 0.72337(5) 0.20768(5) -0.09181(19) 0.0430 Uani
O2 O 0.93575(5) 0.21539(5) 0.17009(16) 0.0347 Uani
O3 O 0.86753(5) 0.27574(5) 0.25615(17) 0.0412 Uani
O4 O 0.85626(6) 0.26603(7) 0.50428(19) 0.0615 Uani
O5 O 0.97691(5) 0.19331(5) 0.36356(16) 0.0356 Uani
N1 N 0.86168(6) 0.21032(6) -0.0501(2) 0.0368 Uani
N2 N 0.81025(5) 0.16869(6) -0.1470(2) 0.0358 Uani
N3 N 0.84131(6) 0.13986(6) -0.0919(2) 0.0474 Uani
N4 N 0.67187(5) 0.14902(6) -0.2737(2) 0.0344 Uani
N5 N 0.68942(6) 0.13228(7) -0.4065(2) 0.0434 Uani
N6 N 0.64036(6) 0.18605(6) -0.4569(2) 0.0385 Uani
C1 C 0.82290(7) 0.21004(7) -0.1210(2) 0.0365 Uani
H1 H 0.8069 0.2351 -0.1486 0.0440 Uiso
C2 C 0.87118(7) 0.16688(8) -0.0359(3) 0.0454 Uani
H2 H 0.8971 0.1568 0.0104 0.0540 Uiso
C3 C 0.76754(7) 0.15225(8) -0.1997(3) 0.0395 Uani
H3 H 0.7695 0.1206 -0.2171 0.0470 Uiso
H4 H 0.7600 0.1662 -0.2971 0.0470 Uiso
C4 C 0.73093(7) 0.16178(8) -0.0809(2) 0.0367 Uani
C5 C 0.68869(7) 0.13580(8) -0.1230(3) 0.0407 Uani
H5 H 0.6952 0.1043 -0.1240 0.0490 Uiso
H6 H 0.6662 0.1411 -0.0453 0.0490 Uiso
C6 C 0.64315(7) 0.18054(8) -0.3065(3) 0.0384 Uani
H7 H 0.6271 0.1966 -0.2337 0.0460 Uiso
C7 C 0.66963(7) 0.15591(8) -0.5123(3) 0.0423 Uani
H8 H 0.6752 0.1524 -0.6173 0.0510 Uiso
C8 C 0.74718(7) 0.14964(9) 0.0806(3) 0.0470 Uani
C9 C 0.75569(10) 0.10731(12) 0.1265(3) 0.0680 Uani
C10 C 0.77504(12) 0.09594(15) 0.2672(4) 0.0943 Uani
H9 H 0.7802 0.0666 0.2948 0.1130 Uiso
C11 C 0.78582(11) 0.12979(18) 0.3606(3) 0.0975 Uani
C12 C 0.77911(11) 0.17305(17) 0.3250(3) 0.0924 Uani
H10 H 0.7875 0.1955 0.3923 0.1110 Uiso
C13 C 0.75929(9) 0.18242(12) 0.1849(3) 0.0650 Uani
H11 H 0.7538 0.2118 0.1595 0.0780 Uiso
C14 C 0.88055(7) 0.26543(7) 0.3894(2) 0.0345 Uani
C15 C 0.92882(7) 0.25346(7) 0.4143(2) 0.0372 Uani
H12 H 0.9463 0.2802 0.4035 0.0450 Uiso
H13 H 0.9322 0.2433 0.5199 0.0450 Uiso
C16 C 0.94796(6) 0.21869(6) 0.3083(2) 0.0297 Uani
F1 F 0.74710(8) 0.07308(6) 0.0287(2) 0.0999 Uani
F2 F 0.80606(8) 0.12018(11) 0.4970(2) 0.1531 Uani
H14 H 0.6996(5) 0.2154(9) -0.047(3) 0.0700 Uiso
Zn1K Zn 0.988845(8) 0.146831(8) 0.19525(3) 0.0317 Uani
Zn1L Zn 0.603169(8) 0.238845(8) -0.55475(3) 0.0317 Uani
O5N O 0.94331(5) 0.27309(5) -0.11356(16) 0.0356 Uani
N6L N 0.85964(6) 0.31395(6) -0.0431(2) 0.0385 Uani
loop_
_atom_site_aniso_label
_atom_site_aniso_U_11
_atom_site_aniso_U_22
_atom_site_aniso_U_33
_atom_site_aniso_U_23
_atom_site_aniso_U_13
_atom_site_aniso_U_12
Zn1 0.03032(14) 0.03418(15) 0.03056(14) 0.00049(10) -0.00252(10) 0.00142(10)
O1 0.0324(9) 0.0470(10) 0.0495(10) -0.0049(7) 0.0034(7) 0.0005(7)
O2 0.0354(8) 0.0366(8) 0.0320(8) -0.0047(6) -0.0037(6) 0.0070(6)
O3 0.0354(8) 0.0528(10) 0.0354(8) 0.0038(7) 0.0030(7) 0.0139(7)
O4 0.0433(10) 0.1040(15) 0.0372(9) -0.0032(9) 0.0095(8) 0.0247(10)
O5 0.0339(8) 0.0351(8) 0.0378(8) 0.0010(6) -0.0032(6) 0.0062(6)
N1 0.0284(9) 0.0392(10) 0.0429(10) 0.0000(8) -0.0065(8) -0.0032(8)
N2 0.0253(9) 0.0425(11) 0.0395(10) -0.0081(8) -0.0024(7) 0.0009(7)
N3 0.0305(10) 0.0397(11) 0.0721(14) -0.0100(10) -0.0096(9) 0.0043(8)
N4 0.0274(9) 0.0385(10) 0.0374(10) 0.0041(8) -0.0061(7) -0.0038(7)
N5 0.0409(11) 0.0467(11) 0.0425(11) -0.0052(9) -0.0096(9) 0.0068(9)
N6 0.0390(10) 0.0432(11) 0.0334(10) 0.0009(8) -0.0055(8) 0.0070(8)
C1 0.0302(11) 0.0386(12) 0.0406(12) -0.0004(10) -0.0049(9) 0.0008(9)
C2 0.0301(12) 0.0424(13) 0.0637(16) -0.0032(11) -0.0124(11) 0.0027(10)
C3 0.0280(11) 0.0514(14) 0.0391(12) -0.0093(10) -0.0061(9) -0.0026(10)
C4 0.0272(11) 0.0494(13) 0.0336(11) -0.0004(9) -0.0039(9) 0.0015(9)
C5 0.0326(11) 0.0490(13) 0.0405(12) 0.0146(10) -0.0064(10) -0.0047(10)
C6 0.0361(12) 0.0446(13) 0.0346(11) -0.0003(10) -0.0053(9) 0.0053(10)
C7 0.0395(13) 0.0528(14) 0.0345(12) -0.0047(10) -0.0071(10) 0.0066(11)
C8 0.0297(12) 0.0752(18) 0.0361(12) 0.0039(12) -0.0022(9) 0.0099(11)
C9 0.0656(19) 0.089(2) 0.0495(16) 0.0011(16) -0.0112(14) 0.0189(16)
C10 0.089(3) 0.135(3) 0.059(2) 0.020(2) -0.0091(18) 0.059(2)
C11 0.074(2) 0.188(4) 0.0306(15) -0.008(2) -0.0076(15) 0.071(3)
C12 0.064(2) 0.168(4) 0.0452(18) -0.033(2) -0.0129(15) 0.034(2)
C13 0.0518(16) 0.104(2) 0.0392(14) -0.0172(15) -0.0051(12) 0.0100(15)
C14 0.0323(11) 0.0371(12) 0.0341(11) -0.0062(9) 0.0018(9) 0.0055(9)
C15 0.0313(11) 0.0459(13) 0.0345(11) -0.0075(9) -0.0020(9) 0.0044(9)
C16 0.0245(10) 0.0293(10) 0.0354(11) 0.0023(8) 0.0013(8) -0.0024(8)
F1 0.1363(18) 0.0704(12) 0.0929(14) 0.0146(11) -0.0400(13) 0.0301(12)
F2 0.134(2) 0.289(3) 0.0364(9) -0.0140(15) -0.0250(11) 0.136(2)
Zn1K 0.03418 0.03032 0.03056 0.00252 0.00049 -0.00142
Zn1L 0.03032 0.03418 0.03056 0.00049 -0.00252 0.00142
O5N 0.0351 0.0339 0.0378 -0.0032 -0.001 -0.0062
N6L 0.039 0.0432 0.0334 0.0009 -0.0055 0.007
loop_
_geom_bond_atom_site_label_1
_geom_bond_atom_site_label_2
_geom_bond_site_symmetry_1
_geom_bond_site_symmetry_2
Zn1 O2 1_555 1_555
O1 C4 1_555 1_555
O2 C16 1_555 1_555
O3 Zn1 1_555 1_555
O4 C14 1_555 1_555
O5 C16 1_555 1_555
N1 Zn1 1_555 1_555
N2 N3 1_555 1_555
N3 C2 1_555 1_555
N4 N5 1_555 1_555
N5 C7 1_555 1_555
N6 C6 1_555 1_555
C1 N1 1_555 1_555
H1 C1 1_555 1_555
C2 N1 1_555 1_555
H2 C2 1_555 1_555
C3 N2 1_555 1_555
H3 C3 1_555 1_555
H4 C3 1_555 1_555
C4 C3 1_555 1_555
C5 N4 1_555 1_555
H5 C5 1_555 1_555
H6 C5 1_555 1_555
C6 N4 1_555 1_555
H7 C6 1_555 1_555
C7 N6 1_555 1_555
H8 C7 1_555 1_555
C8 C4 1_555 1_555
C9 C8 1_555 1_555
C10 C9 1_555 1_555
H9 C10 1_555 1_555
C11 C10 1_555 1_555
C12 C11 1_555 1_555
H10 C12 1_555 1_555
C13 C8 1_555 1_555
H11 C13 1_555 1_555
C14 O3 1_555 1_555
C15 C14 1_555 1_555
H12 C15 1_555 1_555
H13 C15 1_555 1_555
C16 C15 1_555 1_555
F1 C9 1_555 1_555
F2 C11 1_555 1_555
H14 O1 1_555 1_555
Zn1K O5 1_555 1_555
Zn1L N6 1_555 1_555
O5N Zn1 1_555 1_555
N6L Zn1 1_555 1_555
N2 C1 1_555 1_555
C4 C5 1_555 1_555
C12 C13 1_555 1_555

#END
