
#######################################################################
#
#                 Cambridge Crystallographic Data Centre
#                                CCDC 
#
#######################################################################
#
# If this CIF has been generated from an entry in the Cambridge 
# Structural Database, then it will include bibliographic, chemical, 
# crystal, experimental, refinement or atomic coordinate data resulting 
# from the CCDC's data processing and validation procedures.
#
#######################################################################

data_VIXPUP01
_chemical_formula_moiety         '(C108 H72 Cu12 N12 O72)n'
_symmetry_cell_setting           monoclinic
_symmetry_space_group_name_H-M   'P 21/c'
_symmetry_Int_Tables_number      14
_space_group_name_Hall           '-P 2ybc'
loop_
_symmetry_equiv_pos_site_id
_symmetry_equiv_pos_as_xyz
1 x,y,z
2 -x,1/2+y,1/2-z
3 -x,-y,-z
4 x,1/2-y,1/2+z
_cell_length_a                   27.9161(6)
_cell_length_b                   18.6627(4)
_cell_length_c                   32.3643(8)
_cell_angle_alpha                90
_cell_angle_beta                 112.655(3)
_cell_angle_gamma                90
_cell_volume                     15560.5
loop_
_atom_site_label
_atom_site_type_symbol
_atom_site_fract_x
_atom_site_fract_y
_atom_site_fract_z
Cu1 Cu 0.29473(2) 0.24459(4) 0.50960(2)
Cu2 Cu 0.20974(3) 0.31411(4) 0.50486(2)
Cu3 Cu 0.20176(3) 0.49803(4) 0.73041(2)
Cu4 Cu 0.28716(3) 0.49285(4) 0.80476(2)
Cu5 Cu 0.70301(3) 0.30913(4) 0.96817(2)
Cu6 Cu 0.78963(3) 0.23832(4) 0.97474(2)
O1 O 0.31716(14) 0.2691(2) 0.57280(13)
O2 O 0.24435(14) 0.3220(2) 0.57036(13)
O3 O 0.23921(14) 0.4303(2) 0.70696(12)
O4 O 0.31160(15) 0.4303(3) 0.76899(13)
O5 O 0.4738(2) 0.2787(6) 0.6804(2)
O6 O 0.5369(3) 0.2718(9) 0.7944(3)
O7 O 0.68719(14) 0.2791(2) 0.90422(12)
O8 O 0.76104(15) 0.2245(2) 0.91075(13)
O9 O 0.76298(14) 0.0768(2) 0.78632(11)
O10 O 0.69269(16) 0.0746(3) 0.72273(14)
N1 N 0.4430(2) 0.2948(6) 0.7334(2)
H1 H 0.4526 0.2933 0.7627
N2 N 0.5663(2) 0.2456(4) 0.74218(19)
H2 H 0.5581 0.2462 0.7131
C1 C 0.2900(2) 0.3020(3) 0.58996(17)
C2 C 0.3148(2) 0.3175(3) 0.63880(19)
C3 C 0.2882(2) 0.3524(3) 0.66053(18)
H3 H 0.2529 0.3651 0.6445
C4 C 0.3123(2) 0.3697(4) 0.7061(2)
C5 C 0.3632(2) 0.3495(5) 0.7290(2)
H4 H 0.3800 0.3605 0.7600
C6 C 0.3898(3) 0.3139(5) 0.7077(3)
C7 C 0.3658(3) 0.2942(4) 0.6625(2)
H5 H 0.3836 0.2661 0.6484
C8 C 0.2858(2) 0.4128(3) 0.73007(19)
C9 C 0.4779(3) 0.2798(6) 0.7180(3)
C10 C 0.5318(3) 0.2630(6) 0.7556(3)
C11 C 0.6185(3) 0.2243(5) 0.7698(2)
C12 C 0.6416(3) 0.2502(4) 0.8147(2)
H6 H 0.6244 0.2839 0.8262
C13 C 0.6924(2) 0.2223(3) 0.8417(2)
C14 C 0.7165(2) 0.1755(3) 0.82383(18)
H7 H 0.7502 0.1585 0.8420
C15 C 0.6932(2) 0.1516(3) 0.77944(18)
C16 C 0.6438(2) 0.1803(4) 0.75233(18)
H8 H 0.6286 0.1681 0.7215
C17 C 0.7141(2) 0.2447(3) 0.8892(2)
C18 C 0.71846(19) 0.0972(3) 0.76160(16)
O11 O 0.25701(14) 0.2311(2) 0.44579(13)
O12 O 0.18690(16) 0.2952(2) 0.44168(14)
O13 O 0.25249(15) 0.0883(2) 0.31891(13)
O14 O 0.17969(14) 0.0825(2) 0.25751(12)
O15 O 0.0306(3) 0.2052(5) 0.2214(2)
O16 O -0.0268(3) 0.3402(6) 0.2536(3)
O17 O -0.18707(16) 0.2547(3) 0.03758(13)
O18 O -0.25606(15) 0.3202(2) 0.03359(13)
O19 O -0.25075(15) 0.4437(2) 0.17002(12)
O20 O -0.18038(15) 0.4354(2) 0.23303(12)
N3 N 0.0624(2) 0.2689(5) 0.2837(2)
H9 H 0.0544 0.3065 0.2962
N4 N -0.0599(2) 0.2710(4) 0.1935(2)
H10 H -0.0514 0.2353 0.1799
C19 C 0.2135(2) 0.2563(3) 0.42525(18)
C20 C 0.1864(2) 0.2357(3) 0.37616(18)
C21 C 0.2098(2) 0.1883(3) 0.35772(19)
H11 H 0.2440 0.1715 0.3746
C22 C 0.1828(2) 0.1645(3) 0.31347(18)
C23 C 0.1341(2) 0.1903(4) 0.2888(2)
H12 H 0.1158 0.1734 0.2592
C24 C 0.1115(3) 0.2413(4) 0.3072(2)
C25 C 0.1372(3) 0.2635(4) 0.3512(2)
H13 H 0.1216 0.2973 0.3642
C26 C 0.2065(2) 0.1071(3) 0.29553(19)
C27 C 0.0250(3) 0.2480(5) 0.2452(2)
C28 C -0.0241(3) 0.2917(5) 0.2314(2)
C29 C -0.1101(3) 0.2985(4) 0.1718(2)
C30 C -0.1366(3) 0.2828(4) 0.1271(2)
H14 H -0.1206 0.2536 0.1120
C31 C -0.1861(2) 0.3089(3) 0.10403(19)
C32 C -0.2091(2) 0.3538(3) 0.12447(19)
H15 H -0.2426 0.3732 0.1082
C33 C -0.1825(2) 0.3703(3) 0.16941(18)
C34 C -0.1333(2) 0.3434(3) 0.19373(19)
H16 H -0.1157 0.3550 0.2245
C35 C -0.2128(2) 0.2924(3) 0.05472(19)
C36 C -0.2069(2) 0.4207(3) 0.19242(17)
O21 O 0.26098(15) 0.1583(2) 0.52108(15)
O22 O 0.18758(14) 0.2177(2) 0.51309(17)
O23 O 0.26507(14) -0.1039(2) 0.54009(14)
O24 O 0.19125(15) -0.1605(2) 0.53290(16)
O25 O 0.0322(2) -0.0692(4) 0.4862(4)
N5 N 0.0631(2) 0.0368(3) 0.5223(3)
H17 H 0.0537 0.0731 0.5349
C37 C 0.2154(2) 0.1614(3) 0.5196(2)
C38 C 0.1903(2) 0.0925(3) 0.5251(2)
C39 C 0.2171(2) 0.0287(3) 0.5307(2)
H18 H 0.2520 0.0281 0.5327
C40 C 0.1923(2) -0.0342(3) 0.5332(2)
C41 C 0.1414(2) -0.0332(3) 0.5314(3)
H19 H 0.1243 -0.0764 0.5332
C42 C 0.1160(3) 0.0333(4) 0.5269(3)
C43 C 0.1405(2) 0.0960(4) 0.5232(3)
H20 H 0.1231 0.1407 0.5194
C44 C 0.2179(2) -0.1051(3) 0.53661(19)
C45 C 0.0258(3) -0.0129(4) 0.4994(4)
O26 O 0.31726(15) 0.3399(2) 0.49927(16)
O27 O 0.24697(15) 0.3992(2) 0.49902(15)
O28 O 0.25260(15) 0.6570(2) 0.51902(15)
O29 O 0.32230(15) 0.7179(2) 0.52072(15)
O30 O 0.4625(3) 0.4268(4) 0.4935(5)
N6 N 0.4444(3) 0.5377(3) 0.5034(3)
H21 H 0.4580 0.5810 0.5078
C46 C 0.2919(2) 0.3961(3) 0.49876(19)
C47 C 0.3190(2) 0.4668(3) 0.5000(2)
C48 C 0.2947(2) 0.5292(3) 0.5054(2)
H22 H 0.2610 0.5274 0.5061
C49 C 0.3202(2) 0.5938(3) 0.5098(2)
C50 C 0.3708(2) 0.5959(3) 0.5087(3)
H23 H 0.3888 0.6401 0.5120
C51 C 0.3933(3) 0.5329(4) 0.5026(3)
C52 C 0.3678(2) 0.4662(3) 0.4991(2)
H24 H 0.3839 0.4226 0.4961
C53 C 0.2970(2) 0.6621(3) 0.5177(2)
C54 C 0.4735(3) 0.4881(4) 0.4985(4)
O31 O 0.36496(17) 0.1952(3) 0.5161(2)
H25 H 0.3763 0.1500 0.5283
H26 H 0.3904 0.2146 0.5072
O32 O 0.13814(17) 0.3632(3) 0.49670(17)
H27 H 0.1323 0.4127 0.4984
H28 H 0.1063 0.3394 0.4905
O33 O 0.13131(19) 0.5032(3) 0.67374(15)
H29 H 0.1008 0.4921 0.6735
H30 H 0.1282 0.5167 0.6470
O34 O 0.3592(2) 0.4885(3) 0.86051(17)
H31 H 0.3811 0.5266 0.8725
H32 H 0.3738 0.4481 0.8769
O35 O 0.86097(19) 0.1912(3) 0.98245(19)
H33 H 0.8850 0.1783 1.0079
H34 H 0.8711 0.1815 0.9607
O36 O 0.62950(16) 0.3556(3) 0.95339(19)
H35 H 0.6095 0.3504 0.9698
H36 H 0.6123 0.3843 0.9294
O21B O -0.26098(15) -0.1583(2) 0.47892(15)
O22B O -0.18758(14) -0.2177(2) 0.48691(17)
O23B O -0.26507(14) 0.1039(2) 0.45991(14)
O24B O -0.19125(15) 0.1605(2) 0.46710(16)
O25B O -0.0322(2) 0.0692(4) 0.5138(4)
N5B N -0.0631(2) -0.0368(3) 0.4777(3)
H17B H -0.0537 -0.0731 0.4651
C37B C -0.2154(2) -0.1614(3) 0.4804(2)
C38B C -0.1903(2) -0.0925(3) 0.4749(2)
C39B C -0.2171(2) -0.0287(3) 0.4693(2)
H18B H -0.2520 -0.0281 0.4673
C40B C -0.1923(2) 0.0342(3) 0.4668(2)
C41B C -0.1414(2) 0.0332(3) 0.4686(3)
H19B H -0.1243 0.0764 0.4668
C42B C -0.1160(3) -0.0333(4) 0.4731(3)
C43B C -0.1405(2) -0.0960(4) 0.4768(3)
H20B H -0.1231 -0.1407 0.4806
C44B C -0.2179(2) 0.1051(3) 0.46339(19)
C45B C -0.0258(3) 0.0129(4) 0.5006(4)
O26B O 0.68274(15) 0.6601(2) 0.50073(16)
O27B O 0.75303(15) 0.6008(2) 0.50098(15)
O28B O 0.74740(15) 0.3430(2) 0.48098(15)
O29B O 0.67770(15) 0.2821(2) 0.47928(15)
O30B O 0.5375(3) 0.5732(4) 0.5065(5)
N6B N 0.5556(3) 0.4623(3) 0.4966(3)
H21B H 0.5420 0.4190 0.4922
C46B C 0.7081(2) 0.6039(3) 0.50124(19)
C47B C 0.6810(2) 0.5332(3) 0.5000(2)
C48B C 0.7053(2) 0.4708(3) 0.4946(2)
H22B H 0.7390 0.4726 0.4939
C49B C 0.6798(2) 0.4062(3) 0.4902(2)
C50B C 0.6292(2) 0.4041(3) 0.4913(3)
H23B H 0.6112 0.3599 0.4880
C51B C 0.6067(3) 0.4671(4) 0.4974(3)
C52B C 0.6322(2) 0.5338(3) 0.5009(2)
H24B H 0.6161 0.5774 0.5039
C53B C 0.7030(2) 0.3379(3) 0.4823(2)
C54B C 0.5265(3) 0.5119(4) 0.5015(4)
Cu1B Cu -0.29473(2) -0.24459(4) 0.49040(2)
Cu2B Cu -0.20974(3) -0.31411(4) 0.49514(2)
Cu3B Cu -0.20176(3) -0.49803(4) 0.26959(2)
Cu4B Cu -0.28716(3) -0.49285(4) 0.19524(2)
Cu5B Cu -0.70301(3) -0.30913(4) 0.03183(2)
Cu6B Cu -0.78963(3) -0.23832(4) 0.02526(2)
O1B O -0.31716(14) -0.2691(2) 0.42720(13)
O2B O -0.24435(14) -0.3220(2) 0.42964(13)
O3B O -0.23921(14) -0.4303(2) 0.29304(12)
O4B O -0.31160(15) -0.4303(3) 0.23101(13)
O5B O -0.4738(2) -0.2787(6) 0.3196(2)
O6B O -0.5369(3) -0.2718(9) 0.2056(3)
O7B O -0.68719(14) -0.2791(2) 0.09578(12)
O8B O -0.76104(15) -0.2245(2) 0.08925(13)
O9B O -0.76298(14) -0.0768(2) 0.21368(11)
O10B O -0.69269(16) -0.0746(3) 0.27727(14)
N1B N -0.4430(2) -0.2948(6) 0.2666(2)
H1B H -0.4526 -0.2933 0.2373
N2B N -0.5663(2) -0.2456(4) 0.25782(19)
H2B H -0.5581 -0.2462 0.2869
C1B C -0.2900(2) -0.3020(3) 0.41004(17)
C2B C -0.3148(2) -0.3175(3) 0.36120(19)
C3B C -0.2882(2) -0.3524(3) 0.33947(18)
H3B H -0.2529 -0.3651 0.3555
C4B C -0.3123(2) -0.3697(4) 0.2939(2)
C5B C -0.3632(2) -0.3495(5) 0.2710(2)
H4B H -0.3800 -0.3605 0.2400
C6B C -0.3898(3) -0.3139(5) 0.2923(3)
C7B C -0.3658(3) -0.2942(4) 0.3375(2)
H5B H -0.3836 -0.2661 0.3516
C8B C -0.2858(2) -0.4128(3) 0.26993(19)
C9B C -0.4779(3) -0.2798(6) 0.2820(3)
C10B C -0.5318(3) -0.2630(6) 0.2444(3)
C11B C -0.6185(3) -0.2243(5) 0.2302(2)
C12B C -0.6416(3) -0.2502(4) 0.1853(2)
H6B H -0.6244 -0.2839 0.1738
C13B C -0.6924(2) -0.2223(3) 0.1583(2)
C14B C -0.7165(2) -0.1755(3) 0.17617(18)
H7B H -0.7502 -0.1585 0.1580
C15B C -0.6932(2) -0.1516(3) 0.22056(18)
C16B C -0.6438(2) -0.1803(4) 0.24767(18)
H8B H -0.6286 -0.1681 0.2785
C17B C -0.7141(2) -0.2447(3) 0.1108(2)
C18B C -0.71846(19) -0.0972(3) 0.23840(16)
O11B O -0.25701(14) -0.2311(2) 0.55421(13)
O12B O -0.18690(16) -0.2952(2) 0.55832(14)
O13B O -0.25249(15) -0.0883(2) 0.68109(13)
O14B O -0.17969(14) -0.0825(2) 0.74249(12)
O15B O -0.0306(3) -0.2052(5) 0.7786(2)
O16B O 0.0268(3) -0.3402(6) 0.7464(3)
O17B O 0.18707(16) -0.2547(3) 0.96242(13)
O18B O 0.25606(15) -0.3202(2) 0.96641(13)
O19B O 0.25075(15) -0.4437(2) 0.82998(12)
O20B O 0.18038(15) -0.4354(2) 0.76697(12)
N3B N -0.0624(2) -0.2689(5) 0.7163(2)
H9B H -0.0544 -0.3065 0.7038
N4B N 0.0599(2) -0.2710(4) 0.8065(2)
H10B H 0.0514 -0.2353 0.8201
C19B C -0.2135(2) -0.2563(3) 0.57475(18)
C20B C -0.1864(2) -0.2357(3) 0.62384(18)
C21B C -0.2098(2) -0.1883(3) 0.64228(19)
H11B H -0.2440 -0.1715 0.6254
C22B C -0.1828(2) -0.1645(3) 0.68653(18)
C23B C -0.1341(2) -0.1903(4) 0.7112(2)
H12B H -0.1158 -0.1734 0.7408
C24B C -0.1115(3) -0.2413(4) 0.6928(2)
C25B C -0.1372(3) -0.2635(4) 0.6488(2)
H13B H -0.1216 -0.2973 0.6358
C26B C -0.2065(2) -0.1071(3) 0.70447(19)
C27B C -0.0250(3) -0.2480(5) 0.7548(2)
C28B C 0.0241(3) -0.2917(5) 0.7686(2)
C29B C 0.1101(3) -0.2985(4) 0.8282(2)
C30B C 0.1366(3) -0.2828(4) 0.8729(2)
H14B H 0.1206 -0.2536 0.8880
C31B C 0.1861(2) -0.3089(3) 0.89597(19)
C32B C 0.2091(2) -0.3538(3) 0.87553(19)
H15B H 0.2426 -0.3732 0.8918
C33B C 0.1825(2) -0.3703(3) 0.83059(18)
C34B C 0.1333(2) -0.3434(3) 0.80627(19)
H16B H 0.1157 -0.3550 0.7755
C35B C 0.2128(2) -0.2924(3) 0.94528(19)
C36B C 0.2069(2) -0.4207(3) 0.80758(17)
O31B O -0.36496(17) -0.1952(3) 0.4839(2)
H25B H -0.3763 -0.1500 0.4717
H26B H -0.3904 -0.2146 0.4928
O32B O -0.13814(17) -0.3632(3) 0.50330(17)
H27B H -0.1323 -0.4127 0.5016
H28B H -0.1063 -0.3394 0.5095
O33B O -0.13131(19) -0.5032(3) 0.32626(15)
H29B H -0.1008 -0.4921 0.3265
H30B H -0.1282 -0.5167 0.3530
O34B O -0.3592(2) -0.4885(3) 0.13949(17)
H31B H -0.3811 -0.5266 0.1275
H32B H -0.3738 -0.4481 0.1231
O35B O -0.86097(19) -0.1912(3) 0.01755(19)
H33B H -0.8850 -0.1783 -0.0079
H34B H -0.8711 -0.1815 0.0393
O36B O -0.62950(16) -0.3556(3) 0.04661(19)
H35B H -0.6095 -0.3504 0.0302
H36B H -0.6123 -0.3843 0.0706
Cu1B_2 Cu 0.70527(2) 0.75541(4) 0.49040(2)
Cu2B_2 Cu 0.79026(3) 0.68589(4) 0.49514(2)
Cu3_2 Cu 0.20176(3) -0.50197(4) 0.73041(2)
Cu3A Cu -0.20176(3) -0.00197(4) 0.76959(2)
Cu3A_2 Cu 0.79824(3) -0.00197(4) 0.76959(2)
Cu3B_2 Cu -0.20176(3) 0.50197(4) 0.26959(2)
Cu3C Cu -0.79824(3) 0.00197(4) 0.23041(2)
Cu3C_2 Cu 0.20176(3) 0.00197(4) 0.23041(2)
Cu4_2 Cu 0.28716(3) -0.50715(4) 0.80476(2)
Cu4A Cu -0.28716(3) -0.00715(4) 0.69524(2)
Cu4A_2 Cu 0.71284(3) -0.00715(4) 0.69524(2)
Cu4B_2 Cu -0.28716(3) 0.50715(4) 0.19524(2)
Cu4C Cu -0.71284(3) 0.00715(4) 0.30476(2)
Cu4C_2 Cu 0.28716(3) 0.00715(4) 0.30476(2)
Cu5_2 Cu -0.29699(3) 0.30913(4) -0.03183(2)
Cu5A Cu 0.29699(3) -0.19087(4) 0.53183(2)
Cu5A_2 Cu 0.29699(3) 0.80913(4) 0.53183(2)
Cu5B_2 Cu 0.29699(3) -0.30913(4) 1.03183(2)
Cu5C Cu -0.29699(3) 0.19087(4) 0.46817(2)
Cu5C_2 Cu 0.70301(3) 0.19087(4) 0.46817(2)
Cu6_2 Cu -0.21037(3) 0.23832(4) -0.02526(2)
Cu6A Cu 0.21037(3) -0.26168(4) 0.52526(2)
Cu6A_2 Cu 0.21037(3) 0.73832(4) 0.52526(2)
Cu6B_2 Cu 0.21037(3) -0.23832(4) 1.02526(2)
Cu6C Cu -0.21037(3) 0.26168(4) 0.47474(2)
Cu6C_2 Cu 0.78963(3) 0.26168(4) 0.47474(2)
O9A O 0.23702(14) 0.5768(2) 0.71368(11)
O9C O -0.23702(14) -0.5768(2) 0.28632(11)
O10A O 0.30731(16) 0.5746(3) 0.77727(14)
O10C O -0.30731(16) -0.5746(3) 0.22273(14)
O13A O -0.25249(15) -0.4117(2) 0.18109(13)
O13C O 0.25249(15) 0.4117(2) 0.81891(13)
O14A O -0.17969(14) -0.4175(2) 0.24249(12)
O14C O 0.17969(14) 0.4175(2) 0.75751(12)
O17_2 O 0.81293(16) 0.2547(3) 1.03758(13)
O17B_2 O -0.81293(16) -0.2547(3) -0.03758(13)
O18_2 O 0.74394(15) 0.3202(2) 1.03359(13)
O18B_2 O -0.74394(15) -0.3202(2) -0.03359(13)
O19_2 O -0.25075(15) -0.5563(2) 0.17002(12)
O19B_2 O 0.25075(15) 0.5563(2) 0.82998(12)
O20_2 O -0.18038(15) -0.5646(2) 0.23303(12)
O20B_2 O 0.18038(15) 0.5646(2) 0.76697(12)
O23A O 0.73493(14) 0.3961(2) 0.95991(14)
O23C O -0.73493(14) -0.3961(2) 0.04009(14)
O24A O 0.80875(15) 0.3395(2) 0.96710(16)
O24C O -0.80875(15) -0.3395(2) 0.03290(16)
O26B_2 O -0.31726(15) -0.3399(2) 0.50073(16)
O27B_2 O -0.24697(15) -0.3992(2) 0.50098(15)
O28A O 0.74740(15) 0.1570(2) 0.98098(15)
O28C O -0.74740(15) -0.1570(2) 0.01902(15)
O29A O 0.67770(15) 0.2179(2) 0.97928(15)
O29C O -0.67770(15) -0.2179(2) 0.02072(15)
loop_
_geom_bond_atom_site_label_1
_geom_bond_atom_site_label_2
_geom_bond_site_symmetry_1
_geom_bond_site_symmetry_2
Cu1 O1 1_555 1_555
Cu2 O2 1_555 1_555
Cu3 O3 1_555 1_555
Cu4 O4 1_555 1_555
Cu5 O7 1_555 1_555
Cu6 O8 1_555 1_555
O1 C1 1_555 1_555
O2 C1 1_555 1_555
O3 C8 1_555 1_555
O4 C8 1_555 1_555
O5 C9 1_555 1_555
O6 C10 1_555 1_555
O7 C17 1_555 1_555
O8 C17 1_555 1_555
O9 C18 1_555 1_555
O10 C18 1_555 1_555
N1 H1 1_555 1_555
N2 H2 1_555 1_555
C1 C2 1_555 1_555
C2 C3 1_555 1_555
C3 H3 1_555 1_555
C4 C3 1_555 1_555
C5 C4 1_555 1_555
H4 C5 1_555 1_555
C6 N1 1_555 1_555
C7 C2 1_555 1_555
H5 C7 1_555 1_555
C8 C4 1_555 1_555
C9 N1 1_555 1_555
C10 N2 1_555 1_555
C11 N2 1_555 1_555
C12 C11 1_555 1_555
H6 C12 1_555 1_555
C13 C12 1_555 1_555
C14 C13 1_555 1_555
H7 C14 1_555 1_555
C15 C14 1_555 1_555
C16 C11 1_555 1_555
H8 C16 1_555 1_555
C17 C13 1_555 1_555
C18 C15 1_555 1_555
O11 Cu1 1_555 1_555
O12 Cu2 1_555 1_555
O13 C26 1_555 1_555
O14 C26 1_555 1_555
O15 C27 1_555 1_555
O16 C28 1_555 1_555
O17 C35 1_555 1_555
O18 C35 1_555 1_555
O19 C36 1_555 1_555
O20 C36 1_555 1_555
N3 H9 1_555 1_555
N4 H10 1_555 1_555
C19 O11 1_555 1_555
C20 C19 1_555 1_555
C21 C20 1_555 1_555
H11 C21 1_555 1_555
C22 C21 1_555 1_555
C23 C22 1_555 1_555
H12 C23 1_555 1_555
C24 N3 1_555 1_555
C25 C20 1_555 1_555
H13 C25 1_555 1_555
C26 C22 1_555 1_555
C27 N3 1_555 1_555
C28 N4 1_555 1_555
C29 N4 1_555 1_555
C30 C29 1_555 1_555
H14 C30 1_555 1_555
C31 C30 1_555 1_555
C32 C31 1_555 1_555
H15 C32 1_555 1_555
C33 C32 1_555 1_555
C34 C29 1_555 1_555
H16 C34 1_555 1_555
C35 C31 1_555 1_555
C36 C33 1_555 1_555
O21 Cu1 1_555 1_555
O22 Cu2 1_555 1_555
O23 C44 1_555 1_555
O24 C44 1_555 1_555
O25 C45 1_555 1_555
N5 H17 1_555 1_555
C37 O21 1_555 1_555
C38 C37 1_555 1_555
C39 C38 1_555 1_555
H18 C39 1_555 1_555
C40 C39 1_555 1_555
C41 C40 1_555 1_555
H19 C41 1_555 1_555
C42 N5 1_555 1_555
C43 C38 1_555 1_555
H20 C43 1_555 1_555
C44 C40 1_555 1_555
C45 N5 1_555 1_555
O26 Cu1 1_555 1_555
O27 Cu2 1_555 1_555
O28 C53 1_555 1_555
O29 C53 1_555 1_555
O30 C54 1_555 1_555
N6 H21 1_555 1_555
C46 O26 1_555 1_555
C47 C46 1_555 1_555
C48 C47 1_555 1_555
H22 C48 1_555 1_555
C49 C48 1_555 1_555
C50 C49 1_555 1_555
H23 C50 1_555 1_555
C51 N6 1_555 1_555
C52 C47 1_555 1_555
H24 C52 1_555 1_555
C53 C49 1_555 1_555
C54 N6 1_555 1_555
O31 Cu1 1_555 1_555
H25 O31 1_555 1_555
H26 O31 1_555 1_555
O32 Cu2 1_555 1_555
H27 O32 1_555 1_555
H28 O32 1_555 1_555
O33 Cu3 1_555 1_555
H29 O33 1_555 1_555
H30 O33 1_555 1_555
O34 Cu4 1_555 1_555
H31 O34 1_555 1_555
H32 O34 1_555 1_555
O35 Cu6 1_555 1_555
H33 O35 1_555 1_555
H34 O35 1_555 1_555
O36 Cu5 1_555 1_555
H35 O36 1_555 1_555
H36 O36 1_555 1_555
O21B C37B 1_555 1_555
O22B C37B 1_555 1_555
O23B C44B 1_555 1_555
O24B C44B 1_555 1_555
O25B C45B 1_555 1_555
N5B H17B 1_555 1_555
C37B C38B 1_555 1_555
C38B C39B 1_555 1_555
C39B H18B 1_555 1_555
C40B C39B 1_555 1_555
C41B C40B 1_555 1_555
H19B C41B 1_555 1_555
C42B N5B 1_555 1_555
C43B C38B 1_555 1_555
H20B C43B 1_555 1_555
C44B C40B 1_555 1_555
C45B C45 1_555 1_555
O26B C46B 1_555 1_555
O27B C46B 1_555 1_555
O28B C53B 1_555 1_555
O29B C53B 1_555 1_555
O30B C54B 1_555 1_555
N6B H21B 1_555 1_555
C46B C47B 1_555 1_555
C47B C48B 1_555 1_555
C48B H22B 1_555 1_555
C49B C48B 1_555 1_555
C50B C49B 1_555 1_555
H23B C50B 1_555 1_555
C51B N6B 1_555 1_555
C52B C47B 1_555 1_555
H24B C52B 1_555 1_555
C53B C49B 1_555 1_555
C54B C54 1_555 1_555
Cu1B O21B 1_555 1_555
Cu2B O22B 1_555 1_555
Cu3B O3B 1_555 1_555
Cu4B O4B 1_555 1_555
Cu5B O7B 1_555 1_555
Cu6B O8B 1_555 1_555
O1B Cu1B 1_555 1_555
O2B Cu2B 1_555 1_555
O3B C8B 1_555 1_555
O4B C8B 1_555 1_555
O5B C9B 1_555 1_555
O6B C10B 1_555 1_555
O7B C17B 1_555 1_555
O8B C17B 1_555 1_555
O9B C18B 1_555 1_555
O10B C18B 1_555 1_555
N1B H1B 1_555 1_555
N2B H2B 1_555 1_555
C1B O1B 1_555 1_555
C2B C1B 1_555 1_555
C3B C2B 1_555 1_555
H3B C3B 1_555 1_555
C4B C3B 1_555 1_555
C5B C4B 1_555 1_555
H4B C5B 1_555 1_555
C6B N1B 1_555 1_555
C7B C2B 1_555 1_555
H5B C7B 1_555 1_555
C8B C4B 1_555 1_555
C9B N1B 1_555 1_555
C10B N2B 1_555 1_555
C11B N2B 1_555 1_555
C12B C11B 1_555 1_555
H6B C12B 1_555 1_555
C13B C12B 1_555 1_555
C14B C13B 1_555 1_555
H7B C14B 1_555 1_555
C15B C14B 1_555 1_555
C16B C11B 1_555 1_555
H8B C16B 1_555 1_555
C17B C13B 1_555 1_555
C18B C15B 1_555 1_555
O11B Cu1B 1_555 1_555
O12B Cu2B 1_555 1_555
O13B C26B 1_555 1_555
O14B C26B 1_555 1_555
O15B C27B 1_555 1_555
O16B C28B 1_555 1_555
O17B C35B 1_555 1_555
O18B C35B 1_555 1_555
O19B C36B 1_555 1_555
O20B C36B 1_555 1_555
N3B H9B 1_555 1_555
N4B H10B 1_555 1_555
C19B O11B 1_555 1_555
C20B C19B 1_555 1_555
C21B C20B 1_555 1_555
H11B C21B 1_555 1_555
C22B C21B 1_555 1_555
C23B C22B 1_555 1_555
H12B C23B 1_555 1_555
C24B N3B 1_555 1_555
C25B C20B 1_555 1_555
H13B C25B 1_555 1_555
C26B C22B 1_555 1_555
C27B N3B 1_555 1_555
C28B N4B 1_555 1_555
C29B N4B 1_555 1_555
C30B C29B 1_555 1_555
H14B C30B 1_555 1_555
C31B C30B 1_555 1_555
C32B C31B 1_555 1_555
H15B C32B 1_555 1_555
C33B C32B 1_555 1_555
C34B C29B 1_555 1_555
H16B C34B 1_555 1_555
C35B C31B 1_555 1_555
C36B C33B 1_555 1_555
O31B Cu1B 1_555 1_555
H25B O31B 1_555 1_555
H26B O31B 1_555 1_555
O32B Cu2B 1_555 1_555
H27B O32B 1_555 1_555
H28B O32B 1_555 1_555
O33B Cu3B 1_555 1_555
H29B O33B 1_555 1_555
H30B O33B 1_555 1_555
O34B Cu4B 1_555 1_555
H31B O34B 1_555 1_555
H32B O34B 1_555 1_555
O35B Cu6B 1_555 1_555
H33B O35B 1_555 1_555
H34B O35B 1_555 1_555
O36B Cu5B 1_555 1_555
H35B O36B 1_555 1_555
H36B O36B 1_555 1_555
Cu1B_2 O26B 1_555 1_555
Cu2B_2 O27B 1_555 1_555
Cu3_2 O20B 1_555 1_555
Cu3A O14B 1_555 1_555
Cu3A_2 O9 1_555 1_555
Cu3B_2 O20 1_555 1_555
Cu3C O9B 1_555 1_555
Cu3C_2 O14 1_555 1_555
Cu4_2 O19B 1_555 1_555
Cu4A O13B 1_555 1_555
Cu4A_2 O10 1_555 1_555
Cu4B_2 O19 1_555 1_555
Cu4C O10B 1_555 1_555
Cu4C_2 O13 1_555 1_555
Cu5_2 O18 1_555 1_555
Cu5A O23 1_555 1_555
Cu5A_2 O29 1_555 1_555
Cu5B_2 O18B 1_555 1_555
Cu5C O23B 1_555 1_555
Cu5C_2 O29B 1_555 1_555
Cu6_2 O17 1_555 1_555
Cu6A O24 1_555 1_555
Cu6A_2 O28 1_555 1_555
Cu6B_2 O17B 1_555 1_555
Cu6C O24B 1_555 1_555
Cu6C_2 O28B 1_555 1_555
O9A Cu3 1_555 1_555
O9C Cu3B 1_555 1_555
O10A Cu4 1_555 1_555
O10C Cu4B 1_555 1_555
O13A Cu4B 1_555 1_555
O13C Cu4 1_555 1_555
O14A Cu3B 1_555 1_555
O14C Cu3 1_555 1_555
O17_2 Cu6 1_555 1_555
O17B_2 Cu6B 1_555 1_555
O18_2 Cu5 1_555 1_555
O18B_2 Cu5B 1_555 1_555
O19_2 Cu4B 1_555 1_555
O19B_2 Cu4 1_555 1_555
O20_2 Cu3B 1_555 1_555
O20B_2 Cu3 1_555 1_555
O23A Cu5 1_555 1_555
O23C Cu5B 1_555 1_555
O24A Cu6 1_555 1_555
O24C Cu6B 1_555 1_555
O26B_2 Cu1B 1_555 1_555
O27B_2 Cu2B 1_555 1_555
O28A Cu6 1_555 1_555
O28C Cu6B 1_555 1_555
O29A Cu5 1_555 1_555
O29C Cu5B 1_555 1_555
C5 C6 1_555 1_555
C6 C7 1_555 1_555
C9 C10 1_555 1_555
C15 C16 1_555 1_555
O12 C19 1_555 1_555
C23 C24 1_555 1_555
C24 C25 1_555 1_555
C27 C28 1_555 1_555
C33 C34 1_555 1_555
O22 C37 1_555 1_555
C41 C42 1_555 1_555
C42 C43 1_555 1_555
O27 C46 1_555 1_555
C50 C51 1_555 1_555
C51 C52 1_555 1_555
N5B C45B 1_555 1_555
C41B C42B 1_555 1_555
C42B C43B 1_555 1_555
N6B C54B 1_555 1_555
C50B C51B 1_555 1_555
C51B C52B 1_555 1_555
O2B C1B 1_555 1_555
C5B C6B 1_555 1_555
C6B C7B 1_555 1_555
C9B C10B 1_555 1_555
C15B C16B 1_555 1_555
O12B C19B 1_555 1_555
C23B C24B 1_555 1_555
C24B C25B 1_555 1_555
C27B C28B 1_555 1_555
C33B C34B 1_555 1_555

#END
