
#######################################################################
#
#                 Cambridge Crystallographic Data Centre
#                                CCDC 
#
#######################################################################
#
# If this CIF has been generated from an entry in the Cambridge 
# Structural Database, then it will include bibliographic, chemical, 
# crystal, experimental, refinement or atomic coordinate data resulting 
# from the CCDC's data processing and validation procedures.
#
#######################################################################

data_ICAGOK
_chemical_formula_moiety         '(C36 H24 Cu2 N6 O6)n'
_symmetry_cell_setting           monoclinic
_symmetry_space_group_name_H-M   'P 21/c'
_symmetry_Int_Tables_number      14
_space_group_name_Hall           '-P 2ybc'
loop_
_symmetry_equiv_pos_site_id
_symmetry_equiv_pos_as_xyz
1 x,y,z
2 -x,1/2+y,1/2-z
3 -x,-y,-z
4 x,1/2-y,1/2+z
_cell_length_a                   15.2793(12)
_cell_length_b                   19.3066(16)
_cell_length_c                   20.7718(16)
_cell_angle_alpha                90
_cell_angle_beta                 99.010(3)
_cell_angle_gamma                90
_cell_volume                     6051.89
loop_
_atom_site_label
_atom_site_type_symbol
_atom_site_fract_x
_atom_site_fract_y
_atom_site_fract_z
Cu1 Cu 0.32109(2) 0.462894(16) 0.236994(15)
Cu2 Cu -0.54312(3) 0.540690(19) 0.168540(18)
C1 C 0.3489(12) 0.1035(8) -0.1269(8)
H1 H 0.3653 0.0583 -0.1151
C2 C 0.3469(12) 0.1525(8) -0.0793(7)
H2 H 0.3547 0.1382 -0.0360
C3 C 0.335(2) 0.2159(11) -0.0914(15)
C4 C 0.3158(14) 0.2360(11) -0.1627(11)
H3 H 0.3068 0.2820 -0.1752
C5 C 0.3124(15) 0.1880(12) -0.2049(12)
H4 H 0.2987 0.2003 -0.2486
C6 C 0.334(2) 0.2764(16) -0.0371(15)
C7 C 0.3403(11) 0.2535(7) 0.0239(7)
H5 H 0.3459 0.2065 0.0331
C8 C 0.3383(11) 0.3001(8) 0.0720(8)
H6 H 0.3430 0.2857 0.1151
C9 C 0.3284(16) 0.3746(15) 0.0551(10)
C10 C 0.3391(10) 0.3906(5) -0.0014(8)
H7 H 0.3538 0.4365 -0.0081
C11 C 0.331(2) 0.3456(16) -0.0572(16)
H8 H 0.3248 0.3604 -0.1004
C12 C 0.1338(7) 0.4270(5) 0.2031(5)
H9 H 0.1587 0.3844 0.1958
C13 C 0.0395(6) 0.4318(4) 0.1926(4)
H10 H 0.0035 0.3939 0.1797
C14 C 0.0043(7) 0.4974(6) 0.2028(5)
C15 C 0.0605(5) 0.5484(4) 0.2239(4)
H11 H 0.0383 0.5913 0.2338
C16 C 0.1516(5) 0.5387(4) 0.2314(4)
H12 H 0.1885 0.5764 0.2432
C17 C -0.0946(7) 0.5043(9) 0.1949(8)
C18 C -0.1476(17) 0.4584(12) 0.1533(10)
H13 H -0.1209 0.4233 0.1325
C19 C -0.2364(13) 0.4643(12) 0.1428(13)
H14 H -0.2702 0.4340 0.1143
C20 C -0.277(3) 0.5141(15) 0.1735(13)
C21 C -0.2263(12) 0.5617(7) 0.2156(7)
H15 H -0.2538 0.5966 0.2360
C22 C -0.1321(11) 0.5554(6) 0.2260(6)
H16 H -0.0970 0.5858 0.2537
C23 C -0.3844(10) 0.5154(6) 0.1578(6)
O1 O -0.4228(4) 0.4788(3) 0.1166(3)
O2 O -0.4154(5) 0.5553(4) 0.1914(3)
C24 C 0.3319(2) 0.42216(14) 0.11241(14)
O3 O 0.31111(14) 0.39769(9) 0.16472(9)
O4 O 0.35560(15) 0.48330(10) 0.10495(9)
C25 C 0.4398(2) 0.90717(16) 0.53638(15)
H17 H 0.4441 0.9540 0.5271
C26 C 0.4300(2) 0.86126(16) 0.48596(15)
H18 H 0.4262 0.8772 0.4434
C27 C 0.4259(2) 0.79014(15) 0.49804(15)
C28 C 0.4326(3) 0.77113(17) 0.56260(16)
H19 H 0.4326 0.7244 0.5735
C29 C 0.4395(2) 0.82017(16) 0.61130(15)
H20 H 0.4414 0.8057 0.6542
C30 C 0.4120(2) 0.74026(15) 0.44489(14)
C31 C 0.4383(2) 0.75376(17) 0.38471(17)
H21 H 0.4661 0.7956 0.3788
C32 C 0.4247(2) 0.70746(16) 0.33401(16)
H22 H 0.4424 0.7190 0.2945
C33 C 0.3867(2) 0.64661(15) 0.34026(14)
C34 C 0.3592(2) 0.63059(17) 0.39996(15)
H23 H 0.3321 0.5883 0.4054
C35 C 0.3725(3) 0.67833(17) 0.45135(17)
H24 H 0.3538 0.6673 0.4906
C36 C 0.3713(2) 0.59362(14) 0.28645(14)
O5 O 0.39497(15) 0.60924(10) 0.23268(9)
O6 O 0.33508(14) 0.53741(9) 0.29889(9)
N1 N 0.32741(19) 0.12022(13) -0.19080(11)
N2 N 0.18789(19) 0.47818(14) 0.22237(13)
N3 N 0.45375(18) 0.46901(12) 0.23447(11)
N4 N 0.4977(2) 0.41865(16) 0.23769(15)
N5 N 0.5386(3) 0.3700(2) 0.2405(2)
N6 N 0.44342(16) 0.88806(12) 0.59878(12)
Cu1C Cu 0.32109(2) 0.037106(16) -0.263006(15)
Cu2_2 Cu 0.45688(3) 0.540690(19) 0.168540(18)
Cu2C Cu 0.45688(3) 0.959310(19) 0.668540(18)
O4_2 O -0.64440(15) 0.48330(10) 0.10495(9)
O5_2 O -0.60503(15) 0.60924(10) 0.23268(9)
N1C N 0.32741(19) 0.37978(13) 0.30920(11)
N3_2 N -0.54625(18) 0.46901(12) 0.23447(11)
N6C N -0.55658(16) 0.61194(12) 0.09878(12)
loop_
_geom_bond_atom_site_label_1
_geom_bond_atom_site_label_2
_geom_bond_site_symmetry_1
_geom_bond_site_symmetry_2
Cu1 O3 1_555 1_555
Cu2 O2 1_555 1_555
C1 H1 1_555 1_555
C2 C1 1_555 1_555
H2 C2 1_555 1_555
C3 C2 1_555 1_555
C4 C3 1_555 1_555
H3 C4 1_555 1_555
C5 C4 1_555 1_555
H4 C5 1_555 1_555
C6 C3 1_555 1_555
C7 C6 1_555 1_555
H5 C7 1_555 1_555
C8 C7 1_555 1_555
H6 C8 1_555 1_555
C9 C8 1_555 1_555
C10 C9 1_555 1_555
H7 C10 1_555 1_555
C11 C6 1_555 1_555
H8 C11 1_555 1_555
C12 H9 1_555 1_555
C13 C12 1_555 1_555
H10 C13 1_555 1_555
C14 C13 1_555 1_555
C15 C14 1_555 1_555
H11 C15 1_555 1_555
C16 C15 1_555 1_555
H12 C16 1_555 1_555
C17 C14 1_555 1_555
C18 C17 1_555 1_555
H13 C18 1_555 1_555
C19 C18 1_555 1_555
H14 C19 1_555 1_555
C20 C19 1_555 1_555
C21 C20 1_555 1_555
H15 C21 1_555 1_555
C22 C17 1_555 1_555
H16 C22 1_555 1_555
C23 C20 1_555 1_555
O1 C23 1_555 1_555
O2 C23 1_555 1_555
C24 C9 1_555 1_555
O3 C24 1_555 1_555
O4 C24 1_555 1_555
C25 H17 1_555 1_555
C26 C25 1_555 1_555
H18 C26 1_555 1_555
C27 C26 1_555 1_555
C28 C27 1_555 1_555
H19 C28 1_555 1_555
C29 C28 1_555 1_555
H20 C29 1_555 1_555
C30 C27 1_555 1_555
C31 C30 1_555 1_555
H21 C31 1_555 1_555
C32 C31 1_555 1_555
H22 C32 1_555 1_555
C33 C32 1_555 1_555
C34 C33 1_555 1_555
H23 C34 1_555 1_555
C35 C30 1_555 1_555
H24 C35 1_555 1_555
C36 C33 1_555 1_555
O5 C36 1_555 1_555
O6 Cu1 1_555 1_555
N1 C1 1_555 1_555
N2 Cu1 1_555 1_555
N3 Cu1 1_555 1_555
N4 N3 1_555 1_555
N5 N4 1_555 1_555
N6 C25 1_555 1_555
Cu1C N1 1_555 1_555
Cu2_2 O4 1_555 1_555
Cu2C N6 1_555 1_555
O4_2 Cu2 1_555 1_555
O5_2 Cu2 1_555 1_555
N1C Cu1 1_555 1_555
N3_2 Cu2 1_555 1_555
N6C Cu2 1_555 1_555
C5 N1 1_555 1_555
C10 C11 1_555 1_555
C12 N2 1_555 1_555
C16 N2 1_555 1_555
C21 C22 1_555 1_555
C29 N6 1_555 1_555
C34 C35 1_555 1_555
C36 O6 1_555 1_555
O5 Cu2_2 1_555 1_555
N3 Cu2_2 1_555 1_555

#END
