
#######################################################################
#
#                 Cambridge Crystallographic Data Centre
#                                CCDC 
#
#######################################################################
#
# If this CIF has been generated from an entry in the Cambridge 
# Structural Database, then it will include bibliographic, chemical, 
# crystal, experimental, refinement or atomic coordinate data resulting 
# from the CCDC's data processing and validation procedures.
#
#######################################################################

data_ZIBGIC
_chemical_formula_moiety         '(C24 H18 N4 O10 Sr1)n'
_symmetry_cell_setting           tetragonal
_symmetry_space_group_name_H-M   'I 41/a'
_symmetry_Int_Tables_number      88
_space_group_name_Hall           '-I 4ad'
loop_
_symmetry_equiv_pos_site_id
_symmetry_equiv_pos_as_xyz
1 x,y,z
2 1/2-x,-y,1/2+z
3 3/4-y,1/4+x,1/4+z
4 3/4+y,3/4-x,3/4+z
5 1/2+x,1/2+y,1/2+z
6 -x,1/2-y,z
7 1/4-y,3/4+x,3/4+z
8 1/4+y,1/4-x,1/4+z
9 -x,-y,-z
10 1/2+x,y,1/2-z
11 1/4+y,3/4-x,3/4-z
12 1/4-y,1/4+x,1/4-z
13 1/2-x,1/2-y,1/2-z
14 x,1/2+y,-z
15 3/4+y,1/4-x,1/4-z
16 3/4-y,3/4+x,3/4-z
_cell_length_a                   16.7894(12)
_cell_length_b                   16.7894(12)
_cell_length_c                   17.349(3)
_cell_angle_alpha                90
_cell_angle_beta                 90
_cell_angle_gamma                90
_cell_volume                     4890.4
loop_
_atom_site_label
_atom_site_type_symbol
_atom_site_fract_x
_atom_site_fract_y
_atom_site_fract_z
C1 C 0.8551(3) 0.6148(3) 1.0069(3)
H1 H 0.9079 0.6256 1.0192
C2 C 0.8068(3) 0.6739(3) 0.9772(3)
C3 C 0.7274(2) 0.6584(2) 0.9595(2)
H2 H 0.6950 0.6988 0.9405
C4 C 0.6969(2) 0.5822(2) 0.9705(2)
C5 C 0.7455(3) 0.5227(3) 0.9995(3)
H3 H 0.7254 0.4716 1.0065
C6 C 0.6147(2) 0.5650(2) 0.9474(2)
C7 C 0.5125(2) 0.4996(2) 0.8995(2)
C8 C 0.8034(4) 0.8034(4) 0.9231(5)
H4 H 0.7542 0.8174 0.9479
H5 H 0.7925 0.7828 0.8726
H6 H 0.8365 0.8498 0.9190
C9 C 0.4911(2) 0.5769(2) 0.9156(2)
C10 C 0.4682(2) 0.4303(2) 0.8670(2)
C11 C 0.4154(2) 0.6199(2) 0.9031(2)
C12 C 0.8240(3) 0.5392(3) 1.0180(3)
H7 H 0.8561 0.4991 1.0381
N1 N 0.55543(18) 0.61734(18) 0.94668(19)
N2 N 0.59023(18) 0.49343(18) 0.92072(19)
H8 H 0.6190 0.4511 0.9177
O1 O 0.8425(2) 0.7455(2) 0.9666(2)
O2 O 0.50493(16) 0.36619(16) 0.86543(17)
O3 O 0.39806(17) 0.44209(16) 0.84394(18)
O4 O 0.40740(17) 0.68834(17) 0.92628(19)
O5 O 0.35773(18) 0.58377(17) 0.8676(2)
H9 H 0.3707 0.5376 0.8588
Sr1 Sr 0.5000 0.7500 1.02105(3)
C1E C 0.1449(3) 0.8852(3) 1.0069(3)
H1E H 0.0921 0.8744 1.0192
C2E C 0.1932(3) 0.8261(3) 0.9772(3)
C3E C 0.2726(2) 0.8416(2) 0.9595(2)
H2E H 0.3050 0.8012 0.9405
C4E C 0.3031(2) 0.9178(2) 0.9705(2)
C5E C 0.2545(3) 0.9773(3) 0.9995(3)
H3E H 0.2746 1.0284 1.0065
C6E C 0.3853(2) 0.9350(2) 0.9474(2)
C7E C 0.4875(2) 1.0004(2) 0.8995(2)
C8E C 0.1966(4) 0.6966(4) 0.9231(5)
H4E H 0.2458 0.6826 0.9479
H5E H 0.2075 0.7172 0.8726
H6E H 0.1635 0.6502 0.9190
C9E C 0.5089(2) 0.9231(2) 0.9156(2)
C10E C 0.5318(2) 1.0697(2) 0.8670(2)
C11E C 0.5846(2) 0.8801(2) 0.9031(2)
C12E C 0.1760(3) 0.9608(3) 1.0180(3)
H7E H 0.1439 1.0009 1.0381
N1E N 0.44457(18) 0.88266(18) 0.94668(19)
N2E N 0.40977(18) 1.00657(18) 0.92072(19)
H8E H 0.3810 1.0489 0.9177
O1E O 0.1575(2) 0.7545(2) 0.9666(2)
O2E O 0.49507(16) 1.13381(16) 0.86543(17)
O3E O 0.60194(17) 1.05791(16) 0.84394(18)
O4E O 0.59260(17) 0.81166(17) 0.92628(19)
O5E O 0.64227(18) 0.91623(17) 0.8676(2)
H9E H 0.6293 0.9624 0.8588
O2B O 0.38381(16) 0.75493(16) 1.11543(17)
O2G O 0.61619(16) 0.74507(16) 1.11543(17)
O2H O 0.49507(16) 0.63381(16) 1.13457(17)
O2M O 0.50493(16) 0.86619(16) 1.13457(17)
Sr1C Sr 0.5000 0.2500 0.77105(3)
Sr1C_2 Sr 0.5000 1.2500 0.77105(3)
Sr1H Sr 0.5000 0.2500 0.97895(3)
Sr1H_2 Sr 0.5000 1.2500 0.97895(3)
loop_
_geom_bond_atom_site_label_1
_geom_bond_atom_site_label_2
_geom_bond_site_symmetry_1
_geom_bond_site_symmetry_2
C1 H1 1_555 1_555
C2 C1 1_555 1_555
C3 C2 1_555 1_555
H2 C3 1_555 1_555
C4 C3 1_555 1_555
C5 C4 1_555 1_555
H3 C5 1_555 1_555
C6 C4 1_555 1_555
C7 C9 1_555 1_555
C8 H4 1_555 1_555
H5 C8 1_555 1_555
H6 C8 1_555 1_555
C9 C11 1_555 1_555
C10 C7 1_555 1_555
C11 O4 1_555 1_555
C12 C1 1_555 1_555
H7 C12 1_555 1_555
N1 C6 1_555 1_555
N2 C6 1_555 1_555
H8 N2 1_555 1_555
O1 C2 1_555 1_555
O2 C10 1_555 1_555
O3 C10 1_555 1_555
O4 Sr1 1_555 1_555
O5 C11 1_555 1_555
H9 O5 1_555 1_555
Sr1 N1 1_555 1_555
C1E H1E 1_555 1_555
C2E C1E 1_555 1_555
C3E C2E 1_555 1_555
H2E C3E 1_555 1_555
C4E C3E 1_555 1_555
C5E C4E 1_555 1_555
H3E C5E 1_555 1_555
C6E C4E 1_555 1_555
C7E C9E 1_555 1_555
C8E H4E 1_555 1_555
H5E C8E 1_555 1_555
H6E C8E 1_555 1_555
C9E C11E 1_555 1_555
C10E C7E 1_555 1_555
C11E O4E 1_555 1_555
C12E C1E 1_555 1_555
H7E C12E 1_555 1_555
N1E Sr1 1_555 1_555
N2E C6E 1_555 1_555
H8E N2E 1_555 1_555
O1E C2E 1_555 1_555
O2E C10E 1_555 1_555
O3E C10E 1_555 1_555
O4E Sr1 1_555 1_555
O5E C11E 1_555 1_555
H9E O5E 1_555 1_555
O2B Sr1 1_555 1_555
O2G Sr1 1_555 1_555
O2H Sr1 1_555 1_555
O2M Sr1 1_555 1_555
Sr1C O2 1_555 1_555
Sr1C_2 O2E 1_555 1_555
Sr1H O2 1_555 1_555
Sr1H_2 O2E 1_555 1_555
C5 C12 1_555 1_555
C7 N2 1_555 1_555
C8 O1 1_555 1_555
C9 N1 1_555 1_555
C5E C12E 1_555 1_555
C6E N1E 1_555 1_555
C7E N2E 1_555 1_555
C8E O1E 1_555 1_555
C9E N1E 1_555 1_555

#END
