
#######################################################################
#
#                 Cambridge Crystallographic Data Centre
#                                CCDC 
#
#######################################################################
#
# If this CIF has been generated from an entry in the Cambridge 
# Structural Database, then it will include bibliographic, chemical, 
# crystal, experimental, refinement or atomic coordinate data resulting 
# from the CCDC's data processing and validation procedures.
#
#######################################################################

data_WORSUT
_chemical_formula_moiety         '(C57 H56 B2 F4 N6 O10 Zn2)n'
_symmetry_cell_setting           monoclinic
_symmetry_space_group_name_H-M   'C 2/c'
_symmetry_Int_Tables_number      15
_space_group_name_Hall           '-C 2yc'
loop_
_symmetry_equiv_pos_site_id
_symmetry_equiv_pos_as_xyz
1 x,y,z
2 -x,y,1/2-z
3 1/2+x,1/2+y,z
4 1/2-x,1/2+y,1/2-z
5 -x,-y,-z
6 x,-y,1/2+z
7 1/2-x,1/2-y,-z
8 1/2+x,1/2-y,1/2+z
_cell_length_a                   21.5265(6)
_cell_length_b                   20.3836(5)
_cell_length_c                   16.0286(6)
_cell_angle_alpha                90
_cell_angle_beta                 99.309(3)
_cell_angle_gamma                90
_cell_volume                     6940.53
loop_
_atom_site_label
_atom_site_type_symbol
_atom_site_fract_x
_atom_site_fract_y
_atom_site_fract_z
Zn1 Zn 1.00966(2) -0.11362(2) 0.84403(4)
F1 F 0.79780(16) 0.21134(15) 0.6257(2)
F2 F 0.72367(17) 0.13818(19) 0.5670(2)
O1 O 0.93938(15) -0.04932(16) 0.7943(2)
O2 O 0.92919(14) -0.03815(15) 0.6531(2)
O3 O 0.57936(15) 0.32405(16) 0.8199(2)
O4 O 0.55583(16) 0.31411(16) 0.6788(2)
N1 N 1.02057(17) -0.13405(18) 0.9710(3)
N2 N 0.79488(19) 0.10622(19) 0.6918(3)
N3 N 0.71092(18) 0.18887(19) 0.6993(3)
C1 C 1.0000 -0.2437(5) 1.2500
H1 H 1.0146 -0.2718 1.2980
C2 C 1.0541(4) -0.2036(4) 1.2308(4)
H2 H 1.0919 -0.2303 1.2390
H3 H 1.0610 -0.1670 1.2700
C3 C 1.0426(3) -0.1770(3) 1.1396(4)
C4 C 1.0369(3) -0.2208(3) 1.0728(4)
H4 H 1.0414 -0.2655 1.0835
C5 C 1.0248(3) -0.1984(2) 0.9907(3)
H5 H 1.0192 -0.2290 0.9471
C6 C 1.0267(2) -0.0926(3) 1.0356(4)
H6 H 1.0240 -0.0479 1.0237
C7 C 1.0369(3) -0.1118(3) 1.1200(4)
H7 H 1.0398 -0.0805 1.1627
C8 C 0.9139(2) -0.0252(2) 0.7247(3)
C9 C 0.8619(2) 0.0224(2) 0.7273(3)
C10 C 0.8396(2) 0.0694(2) 0.6647(3)
C11 C 0.8593(2) 0.0813(3) 0.5812(3)
H8 H 0.8227 0.0841 0.5383
H9 H 0.8855 0.0459 0.5683
H10 H 0.8824 0.1218 0.5831
C12 C 0.8283(2) 0.0300(2) 0.7950(3)
C13 C 0.8331(2) -0.0123(2) 0.8721(4)
H11 H 0.8486 -0.0549 0.8599
H12 H 0.7923 -0.0167 0.8882
H13 H 0.8615 0.0075 0.9174
C14 C 0.7870(2) 0.0837(2) 0.7722(3)
C15 C 0.7455(2) 0.1171(2) 0.8178(3)
C16 C 0.7095(2) 0.1699(2) 0.7824(3)
C17 C 0.7420(2) 0.0949(2) 0.9052(3)
C18 C 0.7879(3) 0.1139(3) 0.9724(4)
H14 H 0.8204 0.1414 0.9627
C19 C 0.7854(3) 0.0920(3) 1.0533(4)
H15 H 0.8156 0.1058 1.0981
C20 C 0.7383(3) 0.0497(4) 1.0677(4)
H16 H 0.7377 0.0334 1.1218
C21 C 0.6917(3) 0.0314(3) 1.0014(4)
H17 H 0.6594 0.0037 1.0115
C22 C 0.6932(3) 0.0542(3) 0.9202(4)
H18 H 0.6616 0.0423 0.8760
C23 C 0.6658(2) 0.2106(2) 0.8159(3)
C24 C 0.6507(3) 0.2103(3) 0.9035(4)
H19 H 0.6290 0.2501 0.9131
H20 H 0.6890 0.2073 0.9434
H21 H 0.6244 0.1733 0.9103
C25 C 0.6397(2) 0.2517(2) 0.7497(3)
C26 C 0.58788(19) 0.3000(2) 0.7496(3)
C27 C 0.6685(2) 0.2376(2) 0.6785(3)
C28 C 0.6596(3) 0.2689(3) 0.5939(4)
H22 H 0.6979 0.2657 0.5707
H23 H 0.6488 0.3142 0.5990
H24 H 0.6264 0.2470 0.5572
B1 B 0.7570(3) 0.1621(3) 0.6419(4)
H1A H 0.9854 -0.2718 1.2020
N1A N 0.97943(17) -0.13405(18) 1.5290(3)
C2A C 0.9459(4) -0.2036(4) 1.2692(4)
H2A H 0.9081 -0.2303 1.2610
H3A H 0.9390 -0.1670 1.2300
C3A C 0.9574(3) -0.1770(3) 1.3604(4)
C4A C 0.9631(3) -0.2208(3) 1.4272(4)
H4A H 0.9586 -0.2655 1.4165
C5A C 0.9752(3) -0.1984(2) 1.5093(3)
H5A H 0.9808 -0.2290 1.5529
C6A C 0.9733(2) -0.0926(3) 1.4644(4)
H6A H 0.9760 -0.0479 1.4763
C7A C 0.9631(3) -0.1118(3) 1.3800(4)
H7A H 0.9602 -0.0805 1.3373
Zn1A Zn 0.99034(2) -0.11362(2) 0.65597(4)
F1A F 1.20220(16) 0.21134(15) 0.8743(2)
F2A F 1.27633(17) 0.13818(19) 0.9330(2)
O1A O 1.06062(15) -0.04932(16) 0.7057(2)
O2A O 1.07081(14) -0.03815(15) 0.8469(2)
O3A O 1.42064(15) 0.32405(16) 0.6801(2)
O4A O 1.44417(16) 0.31411(16) 0.8212(2)
N2A N 1.20512(19) 0.10622(19) 0.8082(3)
N3A N 1.28908(18) 0.18887(19) 0.8007(3)
C8A C 1.0861(2) -0.0252(2) 0.7753(3)
C9A C 1.1381(2) 0.0224(2) 0.7727(3)
C10A C 1.1604(2) 0.0694(2) 0.8353(3)
C11A C 1.1407(2) 0.0813(3) 0.9188(3)
H8A H 1.1773 0.0841 0.9617
H9A H 1.1145 0.0459 0.9317
H10A H 1.1176 0.1218 0.9169
C12A C 1.1717(2) 0.0300(2) 0.7050(3)
C13A C 1.1669(2) -0.0123(2) 0.6279(4)
H11A H 1.1514 -0.0549 0.6401
H12A H 1.2077 -0.0167 0.6118
H13A H 1.1385 0.0075 0.5826
C14A C 1.2130(2) 0.0837(2) 0.7278(3)
C15A C 1.2545(2) 0.1171(2) 0.6822(3)
C16A C 1.2905(2) 0.1699(2) 0.7176(3)
C17A C 1.2580(2) 0.0949(2) 0.5948(3)
C18A C 1.2121(3) 0.1139(3) 0.5276(4)
H14A H 1.1796 0.1414 0.5373
C19A C 1.2146(3) 0.0920(3) 0.4467(4)
H15A H 1.1844 0.1058 0.4019
C20A C 1.2617(3) 0.0497(4) 0.4323(4)
H16A H 1.2623 0.0334 0.3782
C21A C 1.3083(3) 0.0314(3) 0.4986(4)
H17A H 1.3406 0.0037 0.4885
C22A C 1.3068(3) 0.0542(3) 0.5798(4)
H18A H 1.3384 0.0423 0.6240
C23A C 1.3342(2) 0.2106(2) 0.6841(3)
C24A C 1.3493(3) 0.2103(3) 0.5965(4)
H19A H 1.3710 0.2501 0.5869
H20A H 1.3110 0.2073 0.5566
H21A H 1.3756 0.1733 0.5897
C25A C 1.3603(2) 0.2517(2) 0.7503(3)
C26A C 1.41212(19) 0.3000(2) 0.7504(3)
C27A C 1.3315(2) 0.2376(2) 0.8215(3)
C28A C 1.3404(3) 0.2689(3) 0.9061(4)
H22A H 1.3021 0.2657 0.9293
H23A H 1.3512 0.3142 0.9010
H24A H 1.3736 0.2470 0.9428
B1A B 1.2430(3) 0.1621(3) 0.8581(4)
Zn1A_2 Zn 0.99034(2) -0.11362(2) 1.65597(4)
Zn1B Zn 0.50966(2) 0.38638(2) 0.84403(4)
Zn1B_2 Zn 1.50966(2) 0.38638(2) 0.84403(4)
Zn1C Zn 0.49034(2) 0.38638(2) 0.65597(4)
Zn1C_2 Zn 1.49034(2) 0.38638(2) 0.65597(4)
O3B O 1.07936(15) -0.17595(16) 0.8199(2)
O3C O 0.92064(15) -0.17595(16) 0.6801(2)
O4B O 1.05583(16) -0.18589(16) 0.6788(2)
O4C O 0.94417(16) -0.18589(16) 0.8212(2)
N1A_2 N 0.97943(17) -0.13405(18) 0.5290(3)
O5 O 0.5812(6) 0.1230(5) 0.1372(9)
H26 H 0.5669 0.1111 0.0869
H27 H 0.5968 0.0916 0.1688
O6 O 0.6485(10) 0.1278(9) 0.2886(14)
H28 H 0.6615 0.0943 0.3180
C29 C 0.6932(13) 0.1455(13) 0.2391(15)
H29 H 0.7092 0.1047 0.2197
H30 H 0.7277 0.1651 0.2774
C30 C 0.6816(8) 0.1894(9) 0.1638(13)
H31 H 0.6460 0.1737 0.1252
H32 H 0.7181 0.1897 0.1363
H33 H 0.6734 0.2331 0.1815
loop_
_geom_bond_atom_site_label_1
_geom_bond_atom_site_label_2
_geom_bond_site_symmetry_1
_geom_bond_site_symmetry_2
Zn1 O1 1_555 1_555
F1 B1 1_555 1_555
F2 B1 1_555 1_555
O1 C8 1_555 1_555
O2 C8 1_555 1_555
O3 C26 1_555 1_555
O4 C26 1_555 1_555
N1 Zn1 1_555 1_555
N2 C10 1_555 1_555
N3 C16 1_555 1_555
C1 H1 1_555 1_555
C2 C1 1_555 1_555
H2 C2 1_555 1_555
H3 C2 1_555 1_555
C3 C2 1_555 1_555
C4 C3 1_555 1_555
H4 C4 1_555 1_555
C5 N1 1_555 1_555
H5 C5 1_555 1_555
C6 N1 1_555 1_555
H6 C6 1_555 1_555
C7 C3 1_555 1_555
H7 C7 1_555 1_555
C8 C9 1_555 1_555
C9 C10 1_555 1_555
C10 C11 1_555 1_555
C11 H8 1_555 1_555
H9 C11 1_555 1_555
H10 C11 1_555 1_555
C12 C9 1_555 1_555
C13 C12 1_555 1_555
H11 C13 1_555 1_555
H12 C13 1_555 1_555
H13 C13 1_555 1_555
C14 N2 1_555 1_555
C15 C14 1_555 1_555
C16 C15 1_555 1_555
C17 C15 1_555 1_555
C18 C17 1_555 1_555
H14 C18 1_555 1_555
C19 C18 1_555 1_555
H15 C19 1_555 1_555
C20 C19 1_555 1_555
H16 C20 1_555 1_555
C21 C20 1_555 1_555
H17 C21 1_555 1_555
C22 C17 1_555 1_555
H18 C22 1_555 1_555
C23 C16 1_555 1_555
C24 C23 1_555 1_555
H19 C24 1_555 1_555
H20 C24 1_555 1_555
H21 C24 1_555 1_555
C25 C23 1_555 1_555
C26 C25 1_555 1_555
C27 N3 1_555 1_555
C28 C27 1_555 1_555
H22 C28 1_555 1_555
H23 C28 1_555 1_555
H24 C28 1_555 1_555
B1 N2 1_555 1_555
O5 H26 1_555 1_555
H27 O5 1_555 1_555
O6 H28 1_555 1_555
C29 O6 1_555 1_555
H29 C29 1_555 1_555
H30 C29 1_555 1_555
C30 C29 1_555 1_555
H31 C30 1_555 1_555
H32 C30 1_555 1_555
H33 C30 1_555 1_555
H1A C1 1_555 1_555
N1A C5A 1_555 1_555
C2A C1 1_555 1_555
H2A C2A 1_555 1_555
H3A C2A 1_555 1_555
C3A C2A 1_555 1_555
C4A C3A 1_555 1_555
H4A C4A 1_555 1_555
C5A C4A 1_555 1_555
H5A C5A 1_555 1_555
C6A N1A 1_555 1_555
H6A C6A 1_555 1_555
C7A C3A 1_555 1_555
H7A C7A 1_555 1_555
Zn1A O2 1_555 1_555
F1A B1A 1_555 1_555
F2A B1A 1_555 1_555
O1A Zn1A 1_555 1_555
O2A Zn1 1_555 1_555
O3A C26A 1_555 1_555
O4A C26A 1_555 1_555
N2A C10A 1_555 1_555
N3A C16A 1_555 1_555
C8A O1A 1_555 1_555
C9A C8A 1_555 1_555
C10A C9A 1_555 1_555
C11A C10A 1_555 1_555
H8A C11A 1_555 1_555
H9A C11A 1_555 1_555
H10A C11A 1_555 1_555
C12A C9A 1_555 1_555
C13A C12A 1_555 1_555
H11A C13A 1_555 1_555
H12A C13A 1_555 1_555
H13A C13A 1_555 1_555
C14A N2A 1_555 1_555
C15A C14A 1_555 1_555
C16A C15A 1_555 1_555
C17A C15A 1_555 1_555
C18A C17A 1_555 1_555
H14A C18A 1_555 1_555
C19A C18A 1_555 1_555
H15A C19A 1_555 1_555
C20A C19A 1_555 1_555
H16A C20A 1_555 1_555
C21A C20A 1_555 1_555
H17A C21A 1_555 1_555
C22A C17A 1_555 1_555
H18A C22A 1_555 1_555
C23A C16A 1_555 1_555
C24A C23A 1_555 1_555
H19A C24A 1_555 1_555
H20A C24A 1_555 1_555
H21A C24A 1_555 1_555
C25A C23A 1_555 1_555
C26A C25A 1_555 1_555
C27A N3A 1_555 1_555
C28A C27A 1_555 1_555
H22A C28A 1_555 1_555
H23A C28A 1_555 1_555
H24A C28A 1_555 1_555
B1A N2A 1_555 1_555
Zn1A_2 N1A 1_555 1_555
Zn1B O3 1_555 1_555
Zn1B_2 O4A 1_555 1_555
Zn1C O4 1_555 1_555
Zn1C_2 O3A 1_555 1_555
O3B Zn1 1_555 1_555
O3C Zn1A 1_555 1_555
O4B Zn1A 1_555 1_555
O4C Zn1 1_555 1_555
N1A_2 Zn1A 1_555 1_555
N3 B1 1_555 1_555
C4 C5 1_555 1_555
C6 C7 1_555 1_555
C12 C14 1_555 1_555
C21 C22 1_555 1_555
C25 C27 1_555 1_555
C6A C7A 1_555 1_555
O2A C8A 1_555 1_555
N3A B1A 1_555 1_555
C12A C14A 1_555 1_555
C21A C22A 1_555 1_555
C25A C27A 1_555 1_555

#END
