
#######################################################################
#
#                 Cambridge Crystallographic Data Centre
#                                CCDC 
#
#######################################################################
#
# If this CIF has been generated from an entry in the Cambridge 
# Structural Database, then it will include bibliographic, chemical, 
# crystal, experimental, refinement or atomic coordinate data resulting 
# from the CCDC's data processing and validation procedures.
#
#######################################################################

data_YAZZAC
_chemical_formula_moiety         '(C40 H38 Gd4 O40)n'
_symmetry_cell_setting           triclinic
_symmetry_space_group_name_H-M   'P -1'
_symmetry_Int_Tables_number      2
_space_group_name_Hall           '-P 1'
loop_
_symmetry_equiv_pos_site_id
_symmetry_equiv_pos_as_xyz
1 x,y,z
2 -x,-y,-z
_cell_length_a                   7.3991(9)
_cell_length_b                   11.4730(14)
_cell_length_c                   16.2335(19)
_cell_angle_alpha                79.038(2)
_cell_angle_beta                 82.588(2)
_cell_angle_gamma                79.972(2)
_cell_volume                     1325.68
loop_
_atom_site_label
_atom_site_type_symbol
_atom_site_fract_x
_atom_site_fract_y
_atom_site_fract_z
Gd1 Gd 0.94417(4) 0.06378(3) -0.227338(19)
Gd2 Gd 0.44670(4) 0.26273(3) -0.236454(19)
O1 O 0.9287(6) 0.2187(4) -0.1456(3)
O3 O 0.7046(6) 0.3415(4) -0.2101(3)
O5 O 0.7374(7) 0.5615(5) 0.1812(3)
O7 O 0.6208(7) 0.7154(4) 0.0905(3)
O9 O 0.9845(8) 0.2436(5) 0.0065(3)
H7 H 0.9977 0.2086 -0.0339
O10 O 0.5760(9) 0.6945(5) -0.0606(4)
H8 H 0.5659 0.7288 -0.0199
O11 O 0.9813(6) 0.2202(4) -0.3455(3)
O12 O 1.1972(7) 0.3134(5) -0.3164(3)
O13 O 0.7946(7) 0.3155(4) -0.4725(3)
H9 H 0.8419 0.2576 -0.4402
O14 O 0.6017(7) 0.1614(4) -0.3421(3)
O15 O 0.8080(7) -0.0027(4) -0.3376(3)
O16 O 0.7941(7) -0.1587(5) -0.4356(3)
H10 H 0.8468 -0.1277 -0.4060
O17 O 1.2716(6) 0.1042(4) -0.1990(3)
O18 O 1.1160(6) -0.0211(4) -0.1113(3)
O19 O 1.6342(6) 0.0895(4) -0.1648(3)
O20 O 1.1927(7) -0.0492(5) -0.3005(3)
H11 H 1.2924 -0.0698 -0.2809
H12 H 1.2044 -0.1072 -0.3244
O21 O 0.8887(7) -0.1426(4) -0.1727(3)
H13 H 0.7989 -0.1740 -0.1756
H14 H 0.9290 -0.1926 -0.1335
O22 O 0.5219(7) 0.4240(5) -0.3525(3)
H15 H 0.5619 0.4823 -0.3436
H16 H 0.5686 0.3970 -0.3950
C1 C 0.7960(9) 0.3923(6) -0.0877(4)
C2 C 0.8712(10) 0.3502(6) -0.0109(4)
C3 C 0.8354(10) 0.4191(6) 0.0525(4)
H17 H 0.8771 0.3879 0.1050
C4 C 0.7381(9) 0.5337(6) 0.0378(4)
C5 C 0.6735(10) 0.5803(6) -0.0411(4)
C6 C 0.6980(9) 0.5090(6) -0.1024(4)
H18 H 0.6492 0.5385 -0.1537
C7 C 0.8110(9) 0.3133(6) -0.1519(4)
C8 C 0.7009(9) 0.6064(6) 0.1069(4)
C9 C 0.9005(10) 0.4054(6) -0.4853(4)
C10 C 1.0342(9) 0.4060(6) -0.4335(4)
C11 C 1.1343(9) 0.5010(6) -0.4477(4)
H19 H 1.2238 0.5021 -0.4126
C12 C 1.0741(9) 0.3053(6) -0.3596(4)
C13 C 0.6498(9) -0.0782(6) -0.4666(4)
C14 C 0.4359(10) 0.1068(6) -0.4710(4)
H20 H 0.3934 0.1789 -0.4518
C15 C 0.5852(10) 0.0299(6) -0.4361(4)
C16 C 0.6693(10) 0.0652(6) -0.3670(4)
C17 C 1.3240(9) -0.0267(5) 0.0178(4)
H21 H 1.2039 -0.0436 0.0289
C18 C 1.5676(9) 0.0453(5) -0.0854(4)
C19 C 1.3881(8) 0.0159(6) -0.0649(4)
C20 C 1.2546(9) 0.0329(6) -0.1275(4)
Gd1A Gd 1.05583(4) 0.93622(3) -0.772662(19)
Gd1_2 Gd 1.94417(4) 0.06378(3) -0.227338(19)
Gd1A_2 Gd 0.05583(4) -0.06378(3) -0.772662(19)
Gd1A_3 Gd 1.05583(4) -0.06378(3) 0.227338(19)
Gd1A_4 Gd 2.05583(4) -0.06378(3) 0.227338(19)
Gd1A_5 Gd 0.05583(4) 0.93622(3) 0.227338(19)
Gd2A Gd 0.55330(4) 0.73727(3) 0.236454(19)
Gd2_2 Gd 1.44670(4) 0.26273(3) -0.236454(19)
Gd2A_2 Gd 0.55330(4) 0.73727(3) -0.763546(19)
Gd2A_3 Gd 0.55330(4) -0.26273(3) -0.763546(19)
Gd2A_4 Gd 1.55330(4) -0.26273(3) 0.236454(19)
O1A O 0.0713(6) 0.7813(4) 0.1456(3)
O1A_2 O 1.0713(6) 0.7813(4) -0.8544(3)
O3A O 0.2954(6) 0.6585(4) 0.2101(3)
O5A O 0.2626(7) 0.4385(5) -0.1812(3)
O7A O 0.3792(7) 0.2846(4) -0.0905(3)
O9A O 0.0155(8) 0.7564(5) -0.0065(3)
H7A H 0.0023 0.7914 0.0339
O10A O 0.4240(9) 0.3055(5) 0.0606(4)
H8A H 0.4341 0.2712 0.0199
O11A O 1.0187(6) 0.7798(4) -0.6545(3)
O12A O 0.8028(7) 0.6866(5) -0.6836(3)
O12_2 O 0.1972(7) 0.3134(5) -0.3164(3)
O12A_2 O 0.8028(7) 0.6866(5) 0.3164(3)
O13A O 1.2054(7) 0.6845(4) -0.5275(3)
H9A H 1.1581 0.7424 -0.5598
O14A O 0.3983(7) -0.1614(4) -0.6579(3)
O14A_2 O 0.3983(7) 0.8386(4) 0.3421(3)
O15A O 0.1920(7) 0.0027(4) -0.6624(3)
O15A_2 O 1.1920(7) 1.0027(4) -0.6624(3)
O16A O 0.2059(7) 0.1587(5) -0.5644(3)
H10A H 0.1532 0.1277 -0.5940
O17A O 1.7284(6) -0.1042(4) 0.1990(3)
O17_2 O 0.2716(6) 0.1042(4) -0.1990(3)
O17A_2 O 0.7284(6) 0.8958(4) -0.8010(3)
O17A_3 O 0.7284(6) 0.8958(4) 0.1990(3)
O18A O 1.8840(6) 0.0211(4) 0.1113(3)
O18A_2 O 0.8840(6) 1.0211(4) -0.8887(3)
O19A O 1.3658(6) -0.0895(4) 0.1648(3)
O19_2 O 0.6342(6) 0.0895(4) -0.1648(3)
O19A_2 O 1.3658(6) 0.9105(4) -0.8352(3)
O19A_3 O 0.3658(6) 0.9105(4) 0.1648(3)
O20A O 0.8073(7) 1.0492(5) -0.6995(3)
H11A H 0.7076 1.0698 -0.7191
H12A H 0.7956 1.1072 -0.6756
O21A O 1.1113(7) 1.1426(4) -0.8273(3)
H13A H 1.2011 1.1740 -0.8244
H14A H 1.0710 1.1926 -0.8665
O22A O 0.4781(7) 0.5760(5) 0.3525(3)
H15A H 0.4381 0.5177 0.3436
H16A H 0.4314 0.6030 0.3950
C1A C 0.2040(9) 0.6077(6) 0.0877(4)
C2A C 0.1288(10) 0.6498(6) 0.0109(4)
C3A C 0.1646(10) 0.5809(6) -0.0525(4)
H17A H 0.1229 0.6121 -0.1050
C4A C 0.2619(9) 0.4663(6) -0.0378(4)
C5A C 0.3265(10) 0.4197(6) 0.0411(4)
C6A C 0.3020(9) 0.4910(6) 0.1024(4)
H18A H 0.3508 0.4615 0.1537
C7A C 0.1890(9) 0.6867(6) 0.1519(4)
C8A C 0.2991(9) 0.3936(6) -0.1069(4)
C9A C 1.0995(10) 0.5946(6) -0.5147(4)
C10A C 0.9658(9) 0.5940(6) -0.5665(4)
C11A C 0.8657(9) 0.4990(6) -0.5523(4)
H19A H 0.7762 0.4979 -0.5874
C12A C 0.9259(9) 0.6947(6) -0.6404(4)
C13A C 0.3502(9) 0.0782(6) -0.5334(4)
C14A C 0.5641(10) -0.1068(6) -0.5290(4)
H20A H 0.6066 -0.1789 -0.5482
C15A C 0.4148(10) -0.0299(6) -0.5639(4)
C16A C 0.3307(10) -0.0652(6) -0.6330(4)
C17A C 1.6760(9) 0.0267(5) -0.0178(4)
H21A H 1.7961 0.0436 -0.0289
C18A C 1.4324(9) -0.0453(5) 0.0854(4)
C19A C 1.6119(8) -0.0159(6) 0.0649(4)
C20A C 1.7454(9) -0.0329(6) 0.1275(4)
O2 O 0.5159(10) 0.8254(7) -0.2224(4)
O4 O 0.9948(11) 0.3701(8) 0.2572(5)
H1 H 1.0536 0.4140 0.2736
H2 H 0.9597 0.4287 0.2224
O6 O 1.2172(13) -0.2413(7) -0.3725(5)
H3 H 1.2153 -0.2360 -0.4235
H4 H 1.2030 -0.3062 -0.3431
O8 O 0.6494(14) 0.6337(7) -0.3363(6)
H5 H 0.7058 0.6601 -0.3808
H6 H 0.5552 0.6686 -0.3137
loop_
_geom_bond_atom_site_label_1
_geom_bond_atom_site_label_2
_geom_bond_site_symmetry_1
_geom_bond_site_symmetry_2
Gd1 O1 1_555 1_555
Gd2 O3 1_555 1_555
O1 C7 1_555 1_555
O3 C7 1_555 1_555
O4 H1 1_555 1_555
H2 O4 1_555 1_555
O5 C8 1_555 1_555
O6 H3 1_555 1_555
H4 O6 1_555 1_555
O7 C8 1_555 1_555
O8 H5 1_555 1_555
H6 O8 1_555 1_555
O9 H7 1_555 1_555
O10 H8 1_555 1_555
O11 Gd1 1_555 1_555
O12 C12 1_555 1_555
O13 H9 1_555 1_555
O14 Gd2 1_555 1_555
O15 Gd1 1_555 1_555
O16 H10 1_555 1_555
O17 Gd1 1_555 1_555
O18 Gd1 1_555 1_555
O19 C18 1_555 1_555
O20 Gd1 1_555 1_555
H11 O20 1_555 1_555
H12 O20 1_555 1_555
O21 Gd1 1_555 1_555
H13 O21 1_555 1_555
H14 O21 1_555 1_555
O22 Gd2 1_555 1_555
H15 O22 1_555 1_555
H16 O22 1_555 1_555
C1 C2 1_555 1_555
C2 O9 1_555 1_555
C3 C2 1_555 1_555
H17 C3 1_555 1_555
C4 C3 1_555 1_555
C5 O10 1_555 1_555
C6 C1 1_555 1_555
H18 C6 1_555 1_555
C7 C1 1_555 1_555
C8 C4 1_555 1_555
C9 O13 1_555 1_555
C10 C9 1_555 1_555
C11 C10 1_555 1_555
H19 C11 1_555 1_555
C12 O11 1_555 1_555
C13 O16 1_555 1_555
C14 H20 1_555 1_555
C15 C13 1_555 1_555
C16 O14 1_555 1_555
C17 H21 1_555 1_555
C18 C19 1_555 1_555
C19 C17 1_555 1_555
C20 O17 1_555 1_555
Gd1A O1A_2 1_555 1_555
Gd1_2 O19 1_555 1_555
Gd1A_2 O15A 1_555 1_555
Gd1A_3 O19A 1_555 1_555
Gd1A_4 O17A 1_555 1_555
Gd1A_5 O1A 1_555 1_555
Gd2A O5 1_555 1_555
Gd2_2 O12 1_555 1_555
Gd2A_2 O12A 1_555 1_555
Gd2A_3 O14A 1_555 1_555
Gd2A_4 O17A 1_555 1_555
O1A C7A 1_555 1_555
O3A Gd2A 1_555 1_555
O5A Gd2 1_555 1_555
O7A Gd2 1_555 1_555
O9A H7A 1_555 1_555
O10A H8A 1_555 1_555
O11A Gd1A 1_555 1_555
O12A C12A 1_555 1_555
O12_2 Gd2 1_555 1_555
O12A_2 Gd2A 1_555 1_555
O13A H9A 1_555 1_555
O14A C16A 1_555 1_555
O14A_2 Gd2A 1_555 1_555
O15A C16A 1_555 1_555
O15A_2 Gd1A 1_555 1_555
O16A H10A 1_555 1_555
O17A C20A 1_555 1_555
O17_2 Gd2 1_555 1_555
O17A_2 Gd1A 1_555 1_555
O17A_3 Gd2A 1_555 1_555
O18A Gd1A_4 1_555 1_555
O18A_2 Gd1A 1_555 1_555
O19A Gd2A_4 1_555 1_555
O19_2 Gd1 1_555 1_555
O19A_2 Gd1A 1_555 1_555
O19A_3 Gd1A_5 1_555 1_555
O20A Gd1A 1_555 1_555
H11A O20A 1_555 1_555
H12A O20A 1_555 1_555
O21A Gd1A 1_555 1_555
H13A O21A 1_555 1_555
H14A O21A 1_555 1_555
O22A Gd2A 1_555 1_555
H15A O22A 1_555 1_555
H16A O22A 1_555 1_555
C1A C2A 1_555 1_555
C2A O9A 1_555 1_555
C3A C2A 1_555 1_555
H17A C3A 1_555 1_555
C4A C3A 1_555 1_555
C5A O10A 1_555 1_555
C6A C1A 1_555 1_555
H18A C6A 1_555 1_555
C7A O3A 1_555 1_555
C8A O5A 1_555 1_555
C9A C11 1_555 1_555
C10A C9A 1_555 1_555
C11A C9 1_555 1_555
H19A C11A 1_555 1_555
C12A O11A 1_555 1_555
C13A C14 1_555 1_555
C14A C13 1_555 1_555
H20A C14A 1_555 1_555
C15A C13A 1_555 1_555
C16A C15A 1_555 1_555
C17A C18 1_555 1_555
H21A C17A 1_555 1_555
C18A C17 1_555 1_555
C19A C17A 1_555 1_555
C20A O18A 1_555 1_555
Gd2 O19_2 1_555 1_555
O7 Gd2A 1_555 1_555
O15 C16 1_555 1_555
O17 Gd2_2 1_555 1_555
O18 C20 1_555 1_555
O19 Gd2_2 1_555 1_555
C4 C5 1_555 1_555
C5 C6 1_555 1_555
C10 C12 1_555 1_555
C14 C15 1_555 1_555
C15 C16 1_555 1_555
C19 C20 1_555 1_555
Gd2A O19A_3 1_555 1_555
Gd2A_2 O17A_2 1_555 1_555
O7A C8A 1_555 1_555
O13A C9A 1_555 1_555
O16A C13A 1_555 1_555
O19A C18A 1_555 1_555
C1A C7A 1_555 1_555
C4A C5A 1_555 1_555
C4A C8A 1_555 1_555
C5A C6A 1_555 1_555
C10A C11A 1_555 1_555
C10A C12A 1_555 1_555
C14A C15A 1_555 1_555
C18A C19A 1_555 1_555
C19A C20A 1_555 1_555

#END
