
#######################################################################
#
#                 Cambridge Crystallographic Data Centre
#                                CCDC 
#
#######################################################################
#
# If this CIF has been generated from an entry in the Cambridge 
# Structural Database, then it will include bibliographic, chemical, 
# crystal, experimental, refinement or atomic coordinate data resulting 
# from the CCDC's data processing and validation procedures.
#
#######################################################################

data_JUSGUB
_chemical_formula_moiety         'C81 H63 Co18 N6 O55'
_symmetry_cell_setting           hexagonal
_symmetry_space_group_name_H-M   'P 63/m'
_symmetry_Int_Tables_number      176
_space_group_name_Hall           '-P 6c'
loop_
_symmetry_equiv_pos_site_id
_symmetry_equiv_pos_as_xyz
1 x,y,z
2 x-y,x,1/2+z
3 -y,x-y,z
4 -x,-y,1/2+z
5 -x+y,-x,z
6 y,-x+y,1/2+z
7 -x,-y,-z
8 -x+y,-x,1/2-z
9 y,-x+y,-z
10 x,y,1/2-z
11 x-y,x,-z
12 -y,x-y,1/2-z
_cell_length_a                   23.0194(15)
_cell_length_b                   23.0194(15)
_cell_length_c                   12.7354(8)
_cell_angle_alpha                90
_cell_angle_beta                 90
_cell_angle_gamma                120
_cell_volume                     5844.28
loop_
_atom_site_label
_atom_site_type_symbol
_atom_site_fract_x
_atom_site_fract_y
_atom_site_fract_z
O8 O 0.8512(2) 0.5295(2) 0.7500
H11 H 0.8673 0.5647 0.7125
H11I H 0.8673 0.5647 0.7875
O9 O 0.1954(5) 0.6336(5) 0.6512(8)
H12 H 0.1747 0.5935 0.6094
H13 H 0.1928 0.6688 0.6150
O10 O 0.3333 0.6667 0.7500
C1 C 0.8960(3) 0.2428(2) 0.4448(4)
C2 C 0.9345(2) 0.2550(2) 0.3449(3)
C3 C 0.8979(4) 0.2400(4) 0.2500
H1 H 0.8515 0.2209 0.2500
C4 C 0.7800(2) 0.3108(2) 0.6155(3)
C5 C 0.72056(19) 0.32092(19) 0.6094(3)
C6 C 0.65610(19) 0.2677(2) 0.6077(3)
H2 H 0.6485 0.2241 0.6054
C7 C 0.9921(3) 0.4168(2) 0.5406(5)
H3 H 0.9530 0.4089 0.5068
C8 C 1.0492(3) 0.4307(3) 0.4791(5)
H4 H 1.0467 0.4286 0.4062
C9 C 1.1070(3) 0.4470(2) 0.5292(4)
H5 H 1.1453 0.4588 0.4897
C10 C 1.1109(2) 0.4469(3) 0.6397(5)
C11 C 1.0512(2) 0.4299(2) 0.6970(4)
C12 C 1.1690(3) 0.4623(3) 0.6948(5)
H6 H 1.2081 0.4726 0.6585
C13 C 1.1127(4) 0.3287(6) 0.2500
C14 C 1.0389(3) 0.2978(4) 0.2500
C15 C 1.0046(2) 0.2832(3) 0.3442(4)
H7 H 1.0279 0.2920 0.4072
Co1 Co 0.84542(3) 0.23688(3) 0.62146(4)
Co2 Co 0.91106(4) 0.38541(4) 0.7500
N1 N 0.99277(18) 0.41458(19) 0.6437(3)
O1 O 0.89405(19) 0.2877(2) 0.7500
H8 H 0.8686 0.2679 0.8021
O2 O 0.92730(15) 0.26145(14) 0.5281(2)
O3 O 0.83743(16) 0.21397(16) 0.4489(2)
O4 O 0.76678(16) 0.25019(15) 0.6139(2)
O5 O 0.83646(15) 0.35869(15) 0.6285(3)
O6 O 1.14299(16) 0.34168(24) 0.3383(3)
O7 O 0.9268(7) 0.4751(11) 0.777(4)
H9 H 0.9403 0.5015 0.7242
H10 H 0.8895 0.4701 0.7979
C1I C 0.8960(3) 0.2428(2) 0.0552(4)
C2I C 0.9345(2) 0.2550(2) 0.1551(3)
C15I C 1.0046(2) 0.2832(3) 0.1558(4)
H7I H 1.0279 0.2920 0.0928
O2I O 0.92730(15) 0.26145(14) -0.0281(2)
O3I O 0.83743(16) 0.21397(16) 0.0511(2)
O6I O 1.14299(16) 0.34168(24) 0.1617(3)
C4B C 0.6892(2) 0.4692(3) 0.6155(3)
C5B C 0.67908(19) 0.39964(27) 0.6094(3)
C6B C 0.7323(2) 0.38840(28) 0.6077(3)
H2B H 0.7759 0.4244 0.6054
O4B O 0.74981(15) 0.51659(22) 0.6139(2)
O5B O 0.64131(15) 0.47777(21) 0.6285(3)
C4D C 0.5308(3) 0.2200(2) 0.6155(3)
C5D C 0.60036(27) 0.27944(19) 0.6094(3)
C6D C 0.61160(28) 0.34390(19) 0.6077(3)
H2D H 0.5756 0.3515 0.6054
O4D O 0.48341(22) 0.23322(16) 0.6139(2)
O5D O 0.52223(21) 0.16354(15) 0.6285(3)
C7I C 0.9921(3) 0.4168(2) 0.9594(5)
H3I H 0.9530 0.4089 0.9932
C8I C 1.0492(3) 0.4307(3) 1.0209(5)
H4I H 1.0467 0.4286 1.0938
C9I C 1.1070(3) 0.4470(2) 0.9708(4)
H5I H 1.1453 0.4588 1.0103
C10I C 1.1109(2) 0.4469(3) 0.8603(5)
C11I C 1.0512(2) 0.4299(2) 0.8030(4)
C12I C 1.1690(3) 0.4623(3) 0.8052(5)
H6I H 1.2081 0.4726 0.8415
N1I N 0.99277(18) 0.41458(19) 0.8563(3)
H8I H 0.8686 0.2679 0.6979
O7I O 0.9268(7) 0.4751(11) 0.723(4)
H9I H 0.9403 0.5015 0.7758
H10I H 0.8895 0.4701 0.7021
C1B C 0.7572(2) 0.6532(4) 0.4448(4)
C2B C 0.7450(2) 0.6795(3) 0.3449(3)
C3B C 0.7600(4) 0.6579(6) 0.2500
H1B H 0.7791 0.6306 0.2500
C7B C 0.5832(2) 0.5753(4) 0.5406(5)
H3B H 0.5911 0.5441 0.5068
C8B C 0.5693(3) 0.6185(4) 0.4791(5)
H4B H 0.5714 0.6181 0.4062
C9B C 0.5530(2) 0.6600(4) 0.5292(4)
H5B H 0.5412 0.6865 0.4897
C10B C 0.5531(3) 0.6640(4) 0.6397(5)
C11B C 0.5701(2) 0.6213(3) 0.6970(4)
C12B C 0.5377(3) 0.7067(4) 0.6948(5)
H6B H 0.5274 0.7355 0.6585
C13B C 0.6713(6) 0.7840(7) 0.2500
C14B C 0.7022(4) 0.7411(5) 0.2500
C15B C 0.7168(3) 0.7214(4) 0.3442(4)
H7B H 0.7080 0.7359 0.4072
Co1B Co 0.76312(3) 0.60854(4) 0.62146(4)
Co2B Co 0.61459(4) 0.52565(6) 0.7500
N1B N 0.58542(19) 0.57819(26) 0.6437(3)
O1B O 0.7123(2) 0.60635(28) 0.7500
H8B H 0.7321 0.6007 0.8021
O2B O 0.73855(14) 0.66585(21) 0.5281(2)
O3B O 0.78603(16) 0.62346(23) 0.4489(2)
O6B O 0.65832(24) 0.80131(29) 0.3383(3)
O7B O 0.5249(11) 0.4517(13) 0.777(4)
H9B H 0.4985 0.4388 0.7242
H10B H 0.5299 0.4194 0.7979
C1K C 0.7572(2) 0.6532(4) 0.0552(4)
C2K C 0.7450(2) 0.6795(3) 0.1551(3)
C15K C 0.7168(3) 0.7214(4) 0.1558(4)
H7K H 0.7080 0.7359 0.0928
O2K O 0.73855(14) 0.66585(21) -0.0281(2)
O3K O 0.78603(16) 0.62346(23) 0.0511(2)
O6K O 0.65832(24) 0.80131(29) 0.1617(3)
C7K C 0.5832(2) 0.5753(4) 0.9594(5)
H3K H 0.5911 0.5441 0.9932
C8K C 0.5693(3) 0.6185(4) 1.0209(5)
H4K H 0.5714 0.6181 1.0938
C9K C 0.5530(2) 0.6600(4) 0.9708(4)
H5K H 0.5412 0.6865 1.0103
C10K C 0.5531(3) 0.6640(4) 0.8603(5)
C11K C 0.5701(2) 0.6213(3) 0.8030(4)
C12K C 0.5377(3) 0.7067(4) 0.8052(5)
H6K H 0.5274 0.7355 0.8415
N1K N 0.58542(19) 0.57819(26) 0.8563(3)
H8K H 0.7321 0.6007 0.6979
O7K O 0.5249(11) 0.4517(13) 0.723(4)
H9K H 0.4985 0.4388 0.7758
H10K H 0.5299 0.4194 0.7021
C1D C 0.3468(4) 0.1040(3) 0.4448(4)
C2D C 0.3205(3) 0.0655(2) 0.3449(3)
C3D C 0.3421(6) 0.1021(4) 0.2500
H1D H 0.3694 0.1485 0.2500
C7D C 0.4247(4) 0.0079(3) 0.5406(5)
H3D H 0.4559 0.0470 0.5068
C8D C 0.3815(4) -0.0492(3) 0.4791(5)
H4D H 0.3819 -0.0467 0.4062
C9D C 0.3400(4) -0.1070(3) 0.5292(4)
H5D H 0.3135 -0.1453 0.4897
C10D C 0.3360(4) -0.1109(2) 0.6397(5)
C11D C 0.3787(3) -0.0512(2) 0.6970(4)
C12D C 0.2933(4) -0.1690(3) 0.6948(5)
H6D H 0.2645 -0.2081 0.6585
C13D C 0.2160(7) -0.1127(4) 0.2500
C14D C 0.2589(5) -0.0389(3) 0.2500
C15D C 0.2786(4) -0.0046(2) 0.3442(4)
H7D H 0.2641 -0.0279 0.4072
Co1D Co 0.39146(4) 0.15458(3) 0.62146(4)
Co2D Co 0.47435(6) 0.08894(4) 0.7500
N1D N 0.42181(26) 0.00723(18) 0.6437(3)
O1D O 0.39365(28) 0.10595(19) 0.7500
H8D H 0.3993 0.1314 0.8021
O2D O 0.33415(21) 0.07270(15) 0.5281(2)
O3D O 0.37654(23) 0.16257(16) 0.4489(2)
O6D O 0.19869(29) -0.14299(16) 0.3383(3)
O7D O 0.5483(13) 0.0732(7) 0.777(4)
H9D H 0.5612 0.0597 0.7242
H10D H 0.5806 0.1105 0.7979
C1G C 0.3468(4) 0.1040(3) 0.0552(4)
C2G C 0.3205(3) 0.0655(2) 0.1551(3)
C15G C 0.2786(4) -0.0046(2) 0.1558(4)
H7G H 0.2641 -0.0279 0.0928
O2G O 0.33415(21) 0.07270(15) -0.0281(2)
O3G O 0.37654(23) 0.16257(16) 0.0511(2)
O6G O 0.19869(29) -0.14299(16) 0.1617(3)
C7G C 0.4247(4) 0.0079(3) 0.9594(5)
H3G H 0.4559 0.0470 0.9932
C8G C 0.3815(4) -0.0492(3) 1.0209(5)
H4G H 0.3819 -0.0467 1.0938
C9G C 0.3400(4) -0.1070(3) 0.9708(4)
H5G H 0.3135 -0.1453 1.0103
C10G C 0.3360(4) -0.1109(2) 0.8603(5)
C11G C 0.3787(3) -0.0512(2) 0.8030(4)
C12G C 0.2933(4) -0.1690(3) 0.8052(5)
H6G H 0.2645 -0.2081 0.8415
N1G N 0.42181(26) 0.00723(18) 0.8563(3)
H8G H 0.3993 0.1314 0.6979
O7G O 0.5483(13) 0.0732(7) 0.723(4)
H9G H 0.5612 0.0597 0.7758
H10G H 0.5806 0.1105 0.7021
C4I C 0.7800(2) 0.3108(2) 0.8845(3)
C5I C 0.72056(19) 0.32092(19) 0.8906(3)
C6I C 0.65610(19) 0.2677(2) 0.8923(3)
H2I H 0.6485 0.2241 0.8946
Co1I Co 0.84542(3) 0.23688(3) 0.87854(4)
O4I O 0.76678(16) 0.25019(15) 0.8861(2)
O5I O 0.83646(15) 0.35869(15) 0.8715(3)
C4K C 0.6892(2) 0.4692(3) 0.8845(3)
C5K C 0.67908(19) 0.39964(27) 0.8906(3)
C6K C 0.7323(2) 0.38840(28) 0.8923(3)
H2K H 0.7759 0.4244 0.8946
O4K O 0.74981(15) 0.51659(22) 0.8861(2)
O5K O 0.64131(15) 0.47777(21) 0.8715(3)
C4G C 0.5308(3) 0.2200(2) 0.8845(3)
C5G C 0.60036(27) 0.27944(19) 0.8906(3)
C6G C 0.61160(28) 0.34390(19) 0.8923(3)
H2G H 0.5756 0.3515 0.8946
O4G O 0.48341(22) 0.23322(16) 0.8861(2)
O5G O 0.52223(21) 0.16354(15) 0.8715(3)
Co1H Co 1.23688(3) 0.39146(4) 0.37854(4)
Co1I_2 Co 0.84542(3) 0.23688(3) -0.12146(4)
Co1A Co 0.60854(4) 0.84542(3) 0.12146(4)
Co1C Co 0.15458(3) -0.23688(3) 0.12146(4)
Co1E Co 1.23688(3) 0.39146(4) 0.12146(4)
Co1F Co 0.15458(3) -0.23688(3) 0.37854(4)
Co1G Co 0.39146(4) 0.15458(3) -0.12146(4)
Co1G_2 Co 0.39146(4) 0.15458(3) 0.87854(4)
Co1J Co 0.60854(4) 0.84542(3) 0.37854(4)
Co1K Co 0.76312(3) 0.60854(4) -0.12146(4)
Co1K_2 Co 0.76312(3) 0.60854(4) 0.87854(4)
O1_2 O 0.89405(19) 0.2877(2) -0.2500
O1E O 1.2877(2) 0.39365(28) 0.2500
O2H O 1.26145(14) 0.33415(21) 0.4719(2)
O2I_2 O 0.92730(15) 0.26145(14) 0.9719(2)
O3H O 1.21397(16) 0.37654(23) 0.5511(2)
O3I_2 O 0.83743(16) 0.21397(16) 1.0511(2)
O4H O 1.25019(15) 0.48341(22) 0.3861(2)
O4I_2 O 0.76678(16) 0.25019(15) -0.1139(2)
O6A O 0.80131(29) 0.14299(16) -0.1617(3)
O6A_2 O 0.80131(29) 0.14299(16) 0.8383(3)
O6F O 0.85701(16) 0.65832(24) 0.6617(3)
O6H O 0.34168(24) 0.19869(29) 0.6617(3)
O6J O 0.80131(29) 0.14299(16) 0.6617(3)
loop_
_geom_bond_atom_site_label_1
_geom_bond_atom_site_label_2
_geom_bond_site_symmetry_1
_geom_bond_site_symmetry_2
C1 C2 1_555 1_555
C2 C3 1_555 1_555
C3 H1 1_555 1_555
C4 C5 1_555 1_555
C5 C6 1_555 1_555
C6 H2 1_555 1_555
C7 H3 1_555 1_555
C8 C7 1_555 1_555
H4 C8 1_555 1_555
C9 C8 1_555 1_555
H5 C9 1_555 1_555
C10 C9 1_555 1_555
C11 C10 1_555 1_555
C12 C10 1_555 1_555
H6 C12 1_555 1_555
C13 C14 1_555 1_555
C14 C15 1_555 1_555
C15 C2 1_555 1_555
H7 C15 1_555 1_555
Co1 O1 1_555 1_555
Co2 N1 1_555 1_555
N1 C7 1_555 1_555
O1 Co2 1_555 1_555
H8 O1 1_555 1_555
O2 C1 1_555 1_555
O3 C1 1_555 1_555
O4 C4 1_555 1_555
O5 C4 1_555 1_555
O6 C13 1_555 1_555
O7 Co2 1_555 1_555
H9 O7 1_555 1_555
H10 O7 1_555 1_555
O8 H11 1_555 1_555
O9 H12 1_555 1_555
H13 O9 1_555 1_555
C1I C2I 1_555 1_555
C2I C3 1_555 1_555
C15I C14 1_555 1_555
H7I C15I 1_555 1_555
O2I C1I 1_555 1_555
O3I C1I 1_555 1_555
O6I C13 1_555 1_555
C4B C5B 1_555 1_555
C5B C6B 1_555 1_555
C6B C5 1_555 1_555
H2B C6B 1_555 1_555
O4B C4B 1_555 1_555
O5B C4B 1_555 1_555
C4D C5D 1_555 1_555
C5D C6 1_555 1_555
C6D C5B 1_555 1_555
H2D C6D 1_555 1_555
O4D C4D 1_555 1_555
O5D C4D 1_555 1_555
C7I H3I 1_555 1_555
C8I C7I 1_555 1_555
H4I C8I 1_555 1_555
C9I C8I 1_555 1_555
H5I C9I 1_555 1_555
C10I C9I 1_555 1_555
C11I C11 1_555 1_555
C12I C12 1_555 1_555
H6I C12I 1_555 1_555
N1I Co2 1_555 1_555
H8I O1 1_555 1_555
O7I Co2 1_555 1_555
H9I O7I 1_555 1_555
H10I O7 1_555 1_555
C1B C2B 1_555 1_555
C2B C3B 1_555 1_555
C3B H1B 1_555 1_555
C7B H3B 1_555 1_555
C8B C7B 1_555 1_555
H4B C8B 1_555 1_555
C9B C8B 1_555 1_555
H5B C9B 1_555 1_555
C10B C9B 1_555 1_555
C11B C10B 1_555 1_555
C12B C10B 1_555 1_555
H6B C12B 1_555 1_555
C13B C14B 1_555 1_555
C14B C15B 1_555 1_555
C15B C2B 1_555 1_555
H7B C15B 1_555 1_555
Co1B O4B 1_555 1_555
Co2B O5B 1_555 1_555
N1B C7B 1_555 1_555
O1B Co1B 1_555 1_555
H8B O1B 1_555 1_555
O2B C1B 1_555 1_555
O3B C1B 1_555 1_555
O6B C13B 1_555 1_555
O7B Co2B 1_555 1_555
H9B O7B 1_555 1_555
H10B O7B 1_555 1_555
C1K C2K 1_555 1_555
C2K C3B 1_555 1_555
C15K C14B 1_555 1_555
H7K C15K 1_555 1_555
O2K C1K 1_555 1_555
O3K C1K 1_555 1_555
O6K C13B 1_555 1_555
C7K H3K 1_555 1_555
C8K C7K 1_555 1_555
H4K C8K 1_555 1_555
C9K C8K 1_555 1_555
H5K C9K 1_555 1_555
C10K C9K 1_555 1_555
C11K C11B 1_555 1_555
C12K C12B 1_555 1_555
H6K C12K 1_555 1_555
N1K Co2B 1_555 1_555
H8K O1B 1_555 1_555
O7K Co2B 1_555 1_555
H9K O7K 1_555 1_555
H10K O7B 1_555 1_555
C1D C2D 1_555 1_555
C2D C3D 1_555 1_555
C3D H1D 1_555 1_555
C7D H3D 1_555 1_555
C8D C7D 1_555 1_555
H4D C8D 1_555 1_555
C9D C8D 1_555 1_555
H5D C9D 1_555 1_555
C10D C9D 1_555 1_555
C11D C10D 1_555 1_555
C12D C10D 1_555 1_555
H6D C12D 1_555 1_555
C13D C14D 1_555 1_555
C14D C15D 1_555 1_555
C15D C2D 1_555 1_555
H7D C15D 1_555 1_555
Co1D O4D 1_555 1_555
Co2D O5D 1_555 1_555
N1D C7D 1_555 1_555
O1D Co1D 1_555 1_555
H8D O1D 1_555 1_555
O2D C1D 1_555 1_555
O3D C1D 1_555 1_555
O6D C13D 1_555 1_555
O7D Co2D 1_555 1_555
H9D O7D 1_555 1_555
H10D O7D 1_555 1_555
C1G C2G 1_555 1_555
C2G C3D 1_555 1_555
C15G C14D 1_555 1_555
H7G C15G 1_555 1_555
O2G C1G 1_555 1_555
O3G C1G 1_555 1_555
O6G C13D 1_555 1_555
C7G H3G 1_555 1_555
C8G C7G 1_555 1_555
H4G C8G 1_555 1_555
C9G C8G 1_555 1_555
H5G C9G 1_555 1_555
C10G C9G 1_555 1_555
C11G C11D 1_555 1_555
C12G C12D 1_555 1_555
H6G C12G 1_555 1_555
N1G Co2D 1_555 1_555
H8G O1D 1_555 1_555
O7G Co2D 1_555 1_555
H9G O7G 1_555 1_555
H10G O7D 1_555 1_555
C4I C5I 1_555 1_555
C5I C6I 1_555 1_555
C6I H2I 1_555 1_555
Co1I O1 1_555 1_555
O4I C4I 1_555 1_555
O5I Co2 1_555 1_555
C4K C5K 1_555 1_555
C5K C6K 1_555 1_555
C6K C5I 1_555 1_555
H2K C6K 1_555 1_555
O4K C4K 1_555 1_555
O5K Co2B 1_555 1_555
C4G C5G 1_555 1_555
C5G C6I 1_555 1_555
C6G C5K 1_555 1_555
H2G C6G 1_555 1_555
O4G C4G 1_555 1_555
O5G Co2D 1_555 1_555
Co1H O6 1_555 1_555
Co1I_2 O2I 1_555 1_555
Co1A O6K 1_555 1_555
Co1C O6G 1_555 1_555
Co1E O6I 1_555 1_555
Co1F O6D 1_555 1_555
Co1G O2G 1_555 1_555
Co1G_2 O1D 1_555 1_555
Co1J O6B 1_555 1_555
Co1K O2K 1_555 1_555
Co1K_2 O1B 1_555 1_555
O1_2 Co1I_2 1_555 1_555
O1E Co1H 1_555 1_555
O2H Co1H 1_555 1_555
O2I_2 Co1I 1_555 1_555
O3H Co1H 1_555 1_555
O3I_2 Co1I 1_555 1_555
O4H Co1H 1_555 1_555
O4I_2 Co1I_2 1_555 1_555
O6A Co1I_2 1_555 1_555
O6A_2 Co1I 1_555 1_555
O6F Co1B 1_555 1_555
O6H Co1D 1_555 1_555
O6J Co1 1_555 1_555
H11I O8 1_555 1_555
C11 N1 1_555 1_555
Co1 O2 1_555 1_555
Co1 O3 1_555 1_555
Co1 O4 1_555 1_555
Co2 O5 1_555 1_555
O7 O7I 1_555 1_555
H10 O7I 1_555 1_555
C2I C15I 1_555 1_555
O3I Co1I_2 1_555 1_555
C5D C6D 1_555 1_555
C7I N1I 1_555 1_555
C10I C11I 1_555 1_555
C10I C12I 1_555 1_555
C11I N1I 1_555 1_555
O7I H10I 1_555 1_555
C11B N1B 1_555 1_555
Co1B O2B 1_555 1_555
Co1B O3B 1_555 1_555
Co2B N1B 1_555 1_555
Co2B O1B 1_555 1_555
O7B O7K 1_555 1_555
H10B O7K 1_555 1_555
C2K C15K 1_555 1_555
O3K Co1K 1_555 1_555
C7K N1K 1_555 1_555
C10K C11K 1_555 1_555
C10K C12K 1_555 1_555
C11K N1K 1_555 1_555
O7K H10K 1_555 1_555
C11D N1D 1_555 1_555
Co1D O2D 1_555 1_555
Co1D O3D 1_555 1_555
Co2D N1D 1_555 1_555
Co2D O1D 1_555 1_555
O7D O7G 1_555 1_555
H10D O7G 1_555 1_555
C2G C15G 1_555 1_555
O3G Co1G 1_555 1_555
C7G N1G 1_555 1_555
C10G C11G 1_555 1_555
C10G C12G 1_555 1_555
C11G N1G 1_555 1_555
O7G H10G 1_555 1_555
C4I O5I 1_555 1_555
Co1I O4I 1_555 1_555
C4K O5K 1_555 1_555
O4K Co1K_2 1_555 1_555
C4G O5G 1_555 1_555
C5G C6G 1_555 1_555
O4G Co1G_2 1_555 1_555
Co1E O1E 1_555 1_555

#END
