
#######################################################################
#
#                 Cambridge Crystallographic Data Centre
#                                CCDC 
#
#######################################################################
#
# If this CIF has been generated from an entry in the Cambridge 
# Structural Database, then it will include bibliographic, chemical, 
# crystal, experimental, refinement or atomic coordinate data resulting 
# from the CCDC's data processing and validation procedures.
#
#######################################################################

data_PEWKOT
_chemical_formula_moiety         '(C32 H16 Br2 Cd2 N6 O8)n'
_symmetry_cell_setting           tetragonal
_symmetry_space_group_name_H-M   'I 41/a'
_symmetry_Int_Tables_number      88
_space_group_name_Hall           '-I 4ad'
loop_
_symmetry_equiv_pos_site_id
_symmetry_equiv_pos_as_xyz
1 x,y,z
2 1/2-x,-y,1/2+z
3 3/4-y,1/4+x,1/4+z
4 3/4+y,3/4-x,3/4+z
5 1/2+x,1/2+y,1/2+z
6 -x,1/2-y,z
7 1/4-y,3/4+x,3/4+z
8 1/4+y,1/4-x,1/4+z
9 -x,-y,-z
10 1/2+x,y,1/2-z
11 1/4+y,3/4-x,3/4-z
12 1/4-y,1/4+x,1/4-z
13 1/2-x,1/2-y,1/2-z
14 x,1/2+y,-z
15 3/4+y,1/4-x,1/4-z
16 3/4-y,3/4+x,3/4-z
_cell_length_a                   21.9976(6)
_cell_length_b                   21.9976(6)
_cell_length_c                   16.5598(9)
_cell_angle_alpha                90
_cell_angle_beta                 90
_cell_angle_gamma                90
_cell_volume                     8013.19
loop_
_atom_site_label
_atom_site_type_symbol
_atom_site_fract_x
_atom_site_fract_y
_atom_site_fract_z
_atom_site_U_iso_or_equiv
_atom_site_thermal_displace_type
Cd1 Cd 0.261556(11) 0.830261(11) 0.798030(15) 0.0243 Uani
Br1 Br 0.32009(5) 1.13688(5) 0.94874(7) 0.1686 Uani
N1 N 0.31238(14) 0.88367(13) 0.70170(17) 0.0266 Uani
N2 N 0.36335(13) 0.94510(13) 0.61723(17) 0.0242 Uani
N3 N 0.35131(14) 0.80830(15) 0.8670(2) 0.0359 Uani
O1 O 0.39654(14) 0.92581(13) 0.45820(16) 0.0434 Uani
O2 O 0.35472(16) 0.83398(14) 0.45596(17) 0.0524 Uani
O3 O 0.30342(15) 0.76465(13) 0.55266(17) 0.0490 Uani
O4 O 0.27952(12) 0.76403(11) 0.68305(16) 0.0332 Uani
C1 C 0.30047(17) 0.78991(17) 0.6206(2) 0.0303 Uani
C2 C 0.32124(16) 0.85289(16) 0.6303(2) 0.0263 Uani
C3 C 0.35223(16) 0.89097(16) 0.5781(2) 0.0261 Uani
C4 C 0.36962(18) 0.88392(17) 0.4930(2) 0.0330 Uani
C5 C 0.33828(17) 0.93846(16) 0.6907(2) 0.0260 Uani
C6 C 0.33521(19) 0.98745(17) 0.7522(2) 0.0333 Uani
C7 C 0.3866(2) 1.0179(2) 0.7766(3) 0.0497 Uani
H1 H 0.4242 1.0084 0.7541 0.0600 Uiso
C8 C 0.3821(3) 1.0630(3) 0.8352(4) 0.0780 Uani
H2 H 0.4166 1.0837 0.8525 0.0940 Uiso
C9 C 0.3265(3) 1.0765(3) 0.8670(4) 0.0767 Uani
C10 C 0.2746(3) 1.0476(2) 0.8430(3) 0.0647 Uani
H3 H 0.2371 1.0581 0.8647 0.0780 Uiso
C11 C 0.2792(2) 1.0024(2) 0.7856(3) 0.0440 Uani
H4 H 0.2445 0.9817 0.7691 0.0530 Uiso
C12 C 0.4007(2) 0.8432(2) 0.8559(3) 0.0523 Uani
H5 H 0.3952 0.8833 0.8396 0.0630 Uiso
C13 C 0.45892(19) 0.8226(2) 0.8675(3) 0.0500 Uani
H6 H 0.4917 0.8486 0.8594 0.0600 Uiso
C14 C 0.46895(17) 0.76279(19) 0.8913(2) 0.0350 Uani
C15 C 0.41815(18) 0.72838(19) 0.9081(3) 0.0383 Uani
H7 H 0.4223 0.6892 0.9284 0.0460 Uiso
C16 C 0.36056(17) 0.75268(18) 0.8946(2) 0.0350 Uani
H8 H 0.3269 0.7285 0.9055 0.0420 Uiso
N3E N 0.64869(14) 0.69170(15) 0.8670(2) 0.0359 Uani
C12E C 0.5993(2) 0.6568(2) 0.8559(3) 0.0523 Uani
H5E H 0.6048 0.6167 0.8396 0.0630 Uiso
C13E C 0.54108(19) 0.6774(2) 0.8675(3) 0.0500 Uani
H6E H 0.5083 0.6514 0.8594 0.0600 Uiso
C14E C 0.53105(17) 0.73721(19) 0.8913(2) 0.0350 Uani
C15E C 0.58185(18) 0.77162(19) 0.9081(3) 0.0383 Uani
H7E H 0.5777 0.8108 0.9284 0.0460 Uiso
C16E C 0.63944(17) 0.74732(18) 0.8946(2) 0.0350 Uani
H8E H 0.6731 0.7715 0.9055 0.0420 Uiso
Cd1E Cd 0.738444(11) 0.669739(11) 0.798030(15) 0.0243 Uani
Br1E Br 0.67991(5) 0.36312(5) 0.94874(7) 0.1686 Uani
N1E N 0.68762(14) 0.61633(13) 0.70170(17) 0.0266 Uani
N2E N 0.63665(13) 0.55490(13) 0.61723(17) 0.0242 Uani
O1E O 0.60346(14) 0.57419(13) 0.45820(16) 0.0434 Uani
O2E O 0.64528(16) 0.66602(14) 0.45596(17) 0.0524 Uani
O3E O 0.69658(15) 0.73535(13) 0.55266(17) 0.0490 Uani
O4E O 0.72048(12) 0.73597(11) 0.68305(16) 0.0332 Uani
C1E C 0.69953(17) 0.71009(17) 0.6206(2) 0.0303 Uani
C2E C 0.67876(16) 0.64711(16) 0.6303(2) 0.0263 Uani
C3E C 0.64777(16) 0.60903(16) 0.5781(2) 0.0261 Uani
C4E C 0.63038(18) 0.61608(17) 0.4930(2) 0.0330 Uani
C5E C 0.66172(17) 0.56154(16) 0.6907(2) 0.0260 Uani
C6E C 0.66479(19) 0.51255(17) 0.7522(2) 0.0333 Uani
C7E C 0.6134(2) 0.4821(2) 0.7766(3) 0.0497 Uani
H1E H 0.5758 0.4916 0.7541 0.0600 Uiso
C8E C 0.6179(3) 0.4370(3) 0.8352(4) 0.0780 Uani
H2E H 0.5834 0.4163 0.8525 0.0940 Uiso
C9E C 0.6735(3) 0.4235(3) 0.8670(4) 0.0767 Uani
C10E C 0.7254(3) 0.4524(2) 0.8430(3) 0.0647 Uani
H3E H 0.7629 0.4419 0.8647 0.0780 Uiso
C11E C 0.7208(2) 0.4976(2) 0.7856(3) 0.0440 Uani
H4E H 0.7555 0.5183 0.7691 0.0530 Uiso
Cd1C Cd 0.580261(11) 0.488444(11) 0.548030(15) 0.0243 Uani
Cd1F Cd 0.419739(11) 1.011556(11) 0.548030(15) 0.0243 Uani
Cd1I Cd 0.761556(11) 0.830261(11) 0.701970(15) 0.0243 Uani
Cd1L Cd 0.238444(11) 0.669739(11) 0.701970(15) 0.0243 Uani
N2B N 0.80490(13) 0.61335(13) 0.86723(17) 0.0242 Uani
N2G N 0.19510(13) 0.88665(13) 0.86723(17) 0.0242 Uani
O1B O 0.82419(13) 0.64654(14) 0.70820(16) 0.0434 Uani
O1G O 0.17581(13) 0.85346(14) 0.70820(16) 0.0434 Uani
O4I O 0.77952(12) 0.76403(11) 0.81695(16) 0.0332 Uani
O4L O 0.22048(12) 0.73597(11) 0.81695(16) 0.0332 Uani
loop_
_atom_site_aniso_label
_atom_site_aniso_U_11
_atom_site_aniso_U_22
_atom_site_aniso_U_33
_atom_site_aniso_U_23
_atom_site_aniso_U_13
_atom_site_aniso_U_12
Cd1 0.02185(16) 0.02221(16) 0.02883(17) 0.00093(11) 0.00740(11) 0.00095(10)
Br1 0.1498(9) 0.1792(10) 0.1767(10) -0.1520(9) 0.0115(7) -0.0070(7)
N1 0.0315(17) 0.0221(16) 0.0263(17) 0.0004(13) 0.0087(13) -0.0033(13)
N2 0.0267(16) 0.0223(16) 0.0235(16) 0.0019(12) 0.0038(13) -0.0032(12)
N3 0.0246(18) 0.0360(19) 0.047(2) 0.0046(16) -0.0005(15) 0.0014(14)
O1 0.063(2) 0.0351(17) 0.0321(16) 0.0022(13) 0.0164(14) -0.0108(14)
O2 0.082(3) 0.0385(18) 0.0366(17) -0.0134(14) 0.0215(16) -0.0207(16)
O3 0.075(2) 0.0308(16) 0.0413(18) -0.0098(13) 0.0157(16) -0.0189(15)
O4 0.0368(16) 0.0231(14) 0.0398(16) 0.0012(12) 0.0146(13) -0.0060(11)
C1 0.030(2) 0.026(2) 0.035(2) 0.0007(17) 0.0098(17) -0.0039(16)
C2 0.0236(19) 0.0243(19) 0.031(2) 0.0001(15) 0.0039(16) -0.0031(15)
C3 0.030(2) 0.0204(18) 0.028(2) 0.0009(15) 0.0056(16) -0.0029(15)
C4 0.038(2) 0.030(2) 0.031(2) 0.0002(17) 0.0081(17) -0.0055(17)
C5 0.028(2) 0.0229(19) 0.027(2) -0.0011(15) 0.0032(15) -0.0015(14)
C6 0.047(3) 0.024(2) 0.029(2) -0.0009(16) 0.0064(18) -0.0013(17)
C7 0.045(3) 0.050(3) 0.054(3) -0.020(2) 0.006(2) -0.007(2)
C8 0.071(4) 0.079(4) 0.084(4) -0.043(3) -0.004(3) -0.020(3)
C9 0.093(5) 0.067(4) 0.070(4) -0.050(3) 0.004(3) -0.001(3)
C10 0.071(4) 0.065(4) 0.058(3) -0.023(3) 0.022(3) 0.001(3)
C11 0.046(3) 0.037(2) 0.049(3) -0.009(2) 0.009(2) -0.004(2)
C12 0.036(3) 0.040(3) 0.081(4) 0.019(2) -0.003(2) 0.000(2)
C13 0.024(2) 0.046(3) 0.080(4) 0.014(2) 0.001(2) -0.0072(19)
C14 0.027(2) 0.042(2) 0.036(2) 0.0002(18) -0.0019(17) 0.0044(17)
C15 0.029(2) 0.033(2) 0.053(3) 0.007(2) 0.0025(19) 0.0030(17)
C16 0.023(2) 0.039(2) 0.043(2) 0.0027(19) 0.0054(17) 0.0004(17)
N3E 0.0246 0.036 0.047 -0.0046 0.0005 0.0014
C12E 0.036 0.04 0.081 -0.019 0.003 0
C13E 0.024 0.046 0.08 -0.014 -0.001 -0.0072
C14E 0.027 0.042 0.036 -0.0002 0.0019 0.0044
C15E 0.029 0.033 0.053 -0.007 -0.0025 0.003
C16E 0.023 0.039 0.043 -0.0027 -0.0054 0.0004
Cd1E 0.02185 0.02221 0.02883 -0.00093 -0.0074 0.00095
Br1E 0.1498 0.1792 0.1767 0.152 -0.0115 -0.007
N1E 0.0315 0.0221 0.0263 -0.0004 -0.0087 -0.0033
N2E 0.0267 0.0223 0.0235 -0.0019 -0.0038 -0.0032
O1E 0.063 0.0351 0.0321 -0.0022 -0.0164 -0.0108
O2E 0.082 0.0385 0.0366 0.0134 -0.0215 -0.0207
O3E 0.075 0.0308 0.0413 0.0098 -0.0157 -0.0189
O4E 0.0368 0.0231 0.0398 -0.0012 -0.0146 -0.006
C1E 0.03 0.026 0.035 -0.0007 -0.0098 -0.0039
C2E 0.0236 0.0243 0.031 -0.0001 -0.0039 -0.0031
C3E 0.03 0.0204 0.028 -0.0009 -0.0056 -0.0029
C4E 0.038 0.03 0.031 -0.0002 -0.0081 -0.0055
C5E 0.028 0.0229 0.027 0.0011 -0.0032 -0.0015
C6E 0.047 0.024 0.029 0.0009 -0.0064 -0.0013
C7E 0.045 0.05 0.054 0.02 -0.006 -0.007
C8E 0.071 0.079 0.084 0.043 0.004 -0.02
C9E 0.093 0.067 0.07 0.05 -0.004 -0.001
C10E 0.071 0.065 0.058 0.023 -0.022 0.001
C11E 0.046 0.037 0.049 0.009 -0.009 -0.004
Cd1C 0.02221 0.02185 0.02883 -0.0074 0.00093 -0.00095
Cd1F 0.02221 0.02185 0.02883 0.0074 -0.00093 -0.00095
Cd1I 0.02185 0.02221 0.02883 -0.00093 -0.0074 0.00095
Cd1L 0.02185 0.02221 0.02883 0.00093 0.0074 0.00095
N2B 0.0223 0.0267 0.0235 0.0038 -0.0019 0.0032
N2G 0.0223 0.0267 0.0235 -0.0038 0.0019 0.0032
O1B 0.0351 0.063 0.0321 0.0164 -0.0022 0.0108
O1G 0.0351 0.063 0.0321 -0.0164 0.0022 0.0108
O4I 0.0368 0.0231 0.0398 -0.0012 -0.0146 -0.006
O4L 0.0368 0.0231 0.0398 0.0012 0.0146 -0.006
loop_
_geom_bond_atom_site_label_1
_geom_bond_atom_site_label_2
_geom_bond_site_symmetry_1
_geom_bond_site_symmetry_2
Cd1 N1 1_555 1_555
Br1 C9 1_555 1_555
N1 C2 1_555 1_555
N2 C3 1_555 1_555
N3 Cd1 1_555 1_555
O1 C4 1_555 1_555
O2 C4 1_555 1_555
O3 C1 1_555 1_555
O4 Cd1 1_555 1_555
C1 O4 1_555 1_555
C2 C1 1_555 1_555
C3 C2 1_555 1_555
C4 C3 1_555 1_555
C5 N1 1_555 1_555
C6 C5 1_555 1_555
C7 C6 1_555 1_555
H1 C7 1_555 1_555
C8 C7 1_555 1_555
H2 C8 1_555 1_555
C9 C8 1_555 1_555
C10 C9 1_555 1_555
H3 C10 1_555 1_555
C11 C6 1_555 1_555
H4 C11 1_555 1_555
C12 N3 1_555 1_555
H5 C12 1_555 1_555
C13 C12 1_555 1_555
H6 C13 1_555 1_555
C14 C13 1_555 1_555
C15 C14 1_555 1_555
H7 C15 1_555 1_555
C16 N3 1_555 1_555
H8 C16 1_555 1_555
N3E C12E 1_555 1_555
C12E H5E 1_555 1_555
C13E C12E 1_555 1_555
H6E C13E 1_555 1_555
C14E C14 1_555 1_555
C15E C14E 1_555 1_555
H7E C15E 1_555 1_555
C16E N3E 1_555 1_555
H8E C16E 1_555 1_555
Cd1E N3E 1_555 1_555
Br1E C9E 1_555 1_555
N1E Cd1E 1_555 1_555
N2E C3E 1_555 1_555
O1E C4E 1_555 1_555
O2E C4E 1_555 1_555
O3E C1E 1_555 1_555
O4E Cd1E 1_555 1_555
C1E O4E 1_555 1_555
C2E N1E 1_555 1_555
C3E C2E 1_555 1_555
C4E C3E 1_555 1_555
C5E N1E 1_555 1_555
C6E C5E 1_555 1_555
C7E C6E 1_555 1_555
H1E C7E 1_555 1_555
C8E C7E 1_555 1_555
H2E C8E 1_555 1_555
C9E C8E 1_555 1_555
C10E C9E 1_555 1_555
H3E C10E 1_555 1_555
C11E C6E 1_555 1_555
H4E C11E 1_555 1_555
Cd1C N2E 1_555 1_555
Cd1F N2 1_555 1_555
Cd1I O4E 1_555 1_555
Cd1L O4 1_555 1_555
N2B Cd1E 1_555 1_555
N2G Cd1 1_555 1_555
O1B Cd1E 1_555 1_555
O1G Cd1 1_555 1_555
O4I Cd1E 1_555 1_555
O4L Cd1 1_555 1_555
N2 C5 1_555 1_555
O1 Cd1F 1_555 1_555
C10 C11 1_555 1_555
C15 C16 1_555 1_555
C13E C14E 1_555 1_555
C15E C16E 1_555 1_555
N2E C5E 1_555 1_555
O1E Cd1C 1_555 1_555
C1E C2E 1_555 1_555
C10E C11E 1_555 1_555
Cd1I O4I 1_555 1_555
Cd1L O4L 1_555 1_555

#END
