
#######################################################################
#
#                 Cambridge Crystallographic Data Centre
#                                CCDC 
#
#######################################################################
#
# If this CIF has been generated from an entry in the Cambridge 
# Structural Database, then it will include bibliographic, chemical, 
# crystal, experimental, refinement or atomic coordinate data resulting 
# from the CCDC's data processing and validation procedures.
#
#######################################################################

data_AQIXUU
_chemical_formula_moiety         '(C18 H60 Co22 N3 O42 2-)n'
_symmetry_cell_setting           trigonal
_symmetry_space_group_name_H-M   'P -3'
_symmetry_Int_Tables_number      147
_space_group_name_Hall           '-P 3'
loop_
_symmetry_equiv_pos_site_id
_symmetry_equiv_pos_as_xyz
1 x,y,z
2 -y,x-y,z
3 -x+y,-x,z
4 -x,-y,-z
5 y,-x+y,-z
6 x-y,x,-z
_cell_length_a                   9.420(2)
_cell_length_b                   9.420(2)
_cell_length_c                   10.242(4)
_cell_angle_alpha                90
_cell_angle_beta                 90
_cell_angle_gamma                120
_cell_volume                     787.077
loop_
_atom_site_label
_atom_site_type_symbol
_atom_site_fract_x
_atom_site_fract_y
_atom_site_fract_z
Co4 Co -0.6666 -0.3333 1.0051(6)
O4 O -0.488(2) -0.134(2) 0.8921(17)
O5 O -0.354(2) 0.131(2) 0.8866(17)
C3 C -0.457(3) -0.000(4) 0.9348(16)
Co4C Co -0.3334 0.3333 0.9949(6)
Co4C_2 Co -1.3334 -0.6667 0.9949(6)
Co4D Co -0.3333 -0.6667 0.9949(6)
O4C O -0.512(2) 0.134(2) 1.1079(17)
O4A O -0.866(2) -0.354(3) 0.8921(17)
O4D O -1.134(2) -0.646(3) 1.1079(17)
O4B O -0.646(3) -0.512(2) 0.8921(17)
O4E O -0.354(3) -0.488(2) 1.1079(17)
O4D_2 O -0.134(2) 0.354(3) 1.1079(17)
O4E_2 O -0.354(3) 0.512(2) 1.1079(17)
O5C O -0.646(2) -0.131(2) 1.1134(17)
O5A O -1.131(2) -0.485(3) 0.8866(17)
O5D O -0.869(2) -0.515(3) 1.1134(17)
O5B O -0.515(3) -0.646(2) 0.8866(17)
O5E O -0.485(3) -0.354(2) 1.1134(17)
O5A_2 O -0.131(2) 0.515(3) 0.8866(17)
O5B_2 O -0.515(3) 0.354(2) 0.8866(17)
C3C C -0.543(3) -0.000(4) 1.0652(16)
C3A C -1.000(4) -0.457(5) 0.9348(16)
C3D C -1.000(4) -0.543(5) 1.0652(16)
C3B C -0.543(5) -0.543(3) 0.9348(16)
C3E C -0.457(5) -0.457(3) 1.0652(16)
Co1 Co -0.3358(3) -0.3348(2) 0.5038(2)
Co2 Co -0.3334 -0.6667 0.5026(4)
Co3 Co 0.0000 -0.0000 0.3375(4)
O1 O -0.2337(18) -0.1173(13) 0.3803(12)
H1 H -0.2942 -0.1494 0.2976
O2 O -0.2221(17) -0.4408(12) 0.4002(11)
H2 H -0.2242 -0.4409 0.3045
O3 O -0.1110(11) -0.5550(16) 0.6059(10)
H3 H -0.1099 -0.5523 0.7016
N1 N 0.0000 -0.0000 0.1440(4)
H4 H -0.0641 -0.1100 0.1320
C1 C 0.150(7) 0.099(9) 0.0679(5)
H5 H 0.2200 0.1991 0.1152
H6 H 0.2084 0.0386 0.0600
C2 C -0.119(7) -0.142(8) 0.0679(5)
H7 H 0.2190 0.1397 0.0600
H8 H 0.1964 -0.0255 0.1152
Co1A Co -0.6652(2) -1.0010(4) 0.5038(2)
Co1B Co 0.0010(4) -0.6642(3) 0.5038(2)
Co1E Co -0.0010(4) -0.3358(3) 0.4962(2)
Co1C Co -0.6642(3) -0.6652(2) 0.4962(2)
Co1D Co -0.3348(2) -0.9990(4) 0.4962(2)
Co1D_2 Co -0.3348(2) 0.0010(4) 0.4962(2)
Co1E_2 Co -1.0010(4) -1.3358(3) 0.4962(2)
Co1C_2 Co 0.3358(3) -0.6652(2) 0.4962(2)
Co2D Co -0.6667 -0.3333 0.4974(4)
Co2E Co -0.6667 -1.3334 0.4974(4)
Co2C Co 0.3334 -0.3333 0.4974(4)
Co3C Co 0.0000 -0.0000 0.6625(4)
Co3C_2 Co -0.0000 0.0000 -0.3375(4)
Co3_2 Co -1.0000 -1.0000 0.3375(4)
Co3C_3 Co -1.0000 -1.0000 0.6625(4)
Co3_3 Co -0.0000 -1.0000 0.3375(4)
Co3C_4 Co -0.0000 -1.0000 0.6625(4)
O1E O -0.1164(22) -0.2337(18) 0.6197(12)
O1A O -0.8827(13) -1.1164(22) 0.3803(12)
O1C O -0.7663(18) -0.8827(13) 0.6197(12)
O1B O 0.1164(22) -0.7663(18) 0.3803(12)
O1D O -0.1173(13) -0.8836(22) 0.6197(12)
O1A_2 O 0.1173(13) -0.1164(22) 0.3803(12)
O1B_2 O 0.1164(22) 0.2337(18) 0.3803(12)
O1B_3 O -0.8836(22) -0.7663(18) 0.3803(12)
O1_2 O -0.2337(18) -1.1173(13) 0.3803(12)
O1C_2 O 0.2337(18) 0.1173(13) 0.6197(12)
O1D_2 O -0.1173(13) 0.1164(22) 0.6197(12)
H1E H -0.1448 -0.2942 0.7024
H1A H -0.8506 -1.1448 0.2976
H1C H -0.7058 -0.8506 0.7024
H1B H 0.1448 -0.7058 0.2976
H1D H -0.1494 -0.8552 0.7024
H1A_2 H 0.1494 -0.1448 0.2976
H1B_2 H 0.1448 0.2942 0.2976
H1B_3 H -0.8552 -0.7058 0.2976
H1_2 H -0.2942 -1.1494 0.2976
H1C_2 H 0.2942 0.1494 0.7024
H1D_2 H -0.1494 0.1448 0.7024
O2A O -0.5592(12) -0.7813(21) 0.4002(11)
O2B O -0.2187(21) -0.7779(17) 0.4002(11)
O2D O -0.4408(12) -0.2187(21) 0.5998(11)
O2E O -0.7813(21) -1.2221(17) 0.5998(11)
O2C O 0.2221(17) -0.5592(12) 0.5998(11)
O2E_2 O 0.2187(21) -0.2221(17) 0.5998(11)
O2C_2 O -0.7779(17) -0.5592(12) 0.5998(11)
O2D_2 O -0.4408(12) -1.2187(21) 0.5998(11)
O2E_3 O -0.7813(21) -0.2221(17) 0.5998(11)
H2A H -0.5591 -0.7833 0.3045
H2B H -0.2167 -0.7758 0.3045
H2D H -0.4409 -0.2167 0.6955
H2E H -0.7833 -1.2242 0.6955
H2C H 0.2242 -0.5591 0.6955
H2E_2 H 0.2167 -0.2242 0.6955
H2C_2 H -0.7758 -0.5591 0.6955
H2D_2 H -0.4409 -1.2167 0.6955
H2E_3 H -0.7833 -0.2242 0.6955
O3A O -0.4450(16) -0.5560(19) 0.6059(10)
O3B O -0.4440(19) -0.8890(11) 0.6059(10)
O3D O -0.5550(16) -0.4440(19) 0.3941(10)
O3E O -0.5560(19) -1.1110(11) 0.3941(10)
O3C O 0.1110(11) -0.4450(16) 0.3941(10)
O3E_2 O -0.5560(19) -0.1110(11) 0.3941(10)
O3C_2 O -0.8890(11) -0.4450(16) 0.3941(10)
H3A H -0.4477 -0.5576 0.7016
H3B H -0.4424 -0.8901 0.7016
H3D H -0.5523 -0.4424 0.2984
H3E H -0.5576 -1.1099 0.2984
H3C H 0.1099 -0.4477 0.2984
H3E_2 H -0.5576 -0.1099 0.2984
H3C_2 H -0.8901 -0.4477 0.2984
N1C N -0.0000 0.0000 -0.1440(4)
N1C_2 N -0.0000 -0.0000 0.8560(4)
H4A H 0.1100 0.0459 0.1320
H4C H 0.0641 0.1100 -0.1320
H4B H -0.0459 0.0641 0.1320
H4E H 0.0459 -0.0641 -0.1320
H4D H -0.1100 -0.0459 -0.1320
C1B C -0.051(11) -0.150(7) 0.0679(5)
C1C C -0.150(7) -0.099(9) -0.0679(5)
C1E C 0.051(11) 0.150(7) -0.0679(5)
C1A C -0.099(9) 0.051(11) 0.0679(5)
C1D C 0.099(9) -0.051(11) -0.0679(5)
H5E H 0.0209 0.2200 -0.1152
H5D H 0.1991 -0.0209 -0.1152
H5C H -0.2200 -0.1991 -0.1152
H5A H -0.1991 0.0209 0.1152
H5B H -0.0209 -0.2200 0.1152
H6E H 0.1698 0.2084 -0.0600
H6D H 0.0386 -0.1698 -0.0600
H6C H -0.2084 -0.0386 -0.0600
H6A H -0.0386 0.1698 0.0600
H6B H -0.1698 -0.2084 0.0600
C2C C 0.119(7) 0.142(8) -0.0679(5)
C2A C 0.142(8) 0.023(11) 0.0679(5)
C2B C -0.023(11) 0.119(7) 0.0679(5)
C2E C 0.023(11) -0.119(7) -0.0679(5)
C2D C -0.142(8) -0.023(11) -0.0679(5)
H7E H 0.0793 0.2190 -0.0600
H7D H 0.1397 -0.0793 -0.0600
H7C H -0.2190 -0.1397 -0.0600
H7A H -0.1397 0.0793 0.0600
H7B H -0.0793 -0.2190 0.0600
H8E H 0.2219 0.1964 -0.1152
H8D H -0.0255 -0.2219 -0.1152
H8C H -0.1964 0.0255 -0.1152
H8A H 0.0255 0.2219 0.1152
H8B H -0.2219 -0.1964 0.1152
loop_
_geom_bond_atom_site_label_1
_geom_bond_atom_site_label_2
_geom_bond_site_symmetry_1
_geom_bond_site_symmetry_2
Co1 O1 1_555 1_555
Co2 O2 1_555 1_555
Co3 O1 1_555 1_555
Co4 O4 1_555 1_555
O1 H1 1_555 1_555
O2 Co1 1_555 1_555
H2 O2 1_555 1_555
O3 Co2 1_555 1_555
H3 O3 1_555 1_555
N1 Co3 1_555 1_555
H4 N1 1_555 1_555
C1 N1 1_555 1_555
H5 C1 1_555 1_555
H6 C1 1_555 1_555
C2 N1 1_555 1_555
H7 C1 1_555 1_555
H8 H6 1_555 1_555
O4 C3 1_555 1_555
O5 C3 1_555 1_555
C3 C3C 1_555 1_555
Co1A O1A 1_555 1_555
Co1B O3 1_555 1_555
Co1E O2 1_555 1_555
Co1C O1C 1_555 1_555
Co1D O1D 1_555 1_555
Co1D_2 O1 1_555 1_555
Co1E_2 O1A 1_555 1_555
Co1C_2 O1B 1_555 1_555
Co2D O2D 1_555 1_555
Co2E O2E 1_555 1_555
Co2C O2C 1_555 1_555
Co3C O1E 1_555 1_555
Co3C_2 N1C 1_555 1_555
Co3_2 O1A 1_555 1_555
Co3C_3 O1C 1_555 1_555
Co3_3 O1B 1_555 1_555
Co3C_4 O1D 1_555 1_555
Co4C O5 1_555 1_555
Co4C_2 O4D 1_555 1_555
Co4D O4E 1_555 1_555
O1E Co1 1_555 1_555
O1A H1A 1_555 1_555
O1C Co1A 1_555 1_555
O1B Co1B 1_555 1_555
O1D Co1B 1_555 1_555
O1A_2 Co3 1_555 1_555
O1B_2 Co3 1_555 1_555
O1B_3 Co1C 1_555 1_555
O1_2 Co1D 1_555 1_555
O1C_2 Co3C 1_555 1_555
O1D_2 Co1D_2 1_555 1_555
H1E O1E 1_555 1_555
H1C O1C 1_555 1_555
H1B O1B 1_555 1_555
H1D O1D 1_555 1_555
H1A_2 O1A_2 1_555 1_555
H1B_2 O1B_2 1_555 1_555
H1B_3 O1B_3 1_555 1_555
H1_2 O1_2 1_555 1_555
H1C_2 O1C_2 1_555 1_555
H1D_2 O1D_2 1_555 1_555
O2A Co2 1_555 1_555
O2B Co2 1_555 1_555
O2D Co1 1_555 1_555
O2E Co1A 1_555 1_555
O2C Co1B 1_555 1_555
O2E_2 Co1E 1_555 1_555
O2C_2 Co1C 1_555 1_555
O2D_2 Co1D 1_555 1_555
O2E_3 Co2D 1_555 1_555
H2A O2A 1_555 1_555
H2B O2B 1_555 1_555
H2D O2D 1_555 1_555
H2E O2E 1_555 1_555
H2C O2C 1_555 1_555
H2E_2 O2E_2 1_555 1_555
H2C_2 O2C_2 1_555 1_555
H2D_2 O2D_2 1_555 1_555
H2E_3 O2E_3 1_555 1_555
O3A Co1 1_555 1_555
O3B Co2 1_555 1_555
O3D Co1 1_555 1_555
O3E Co1A 1_555 1_555
O3C Co1B 1_555 1_555
O3E_2 Co1D_2 1_555 1_555
O3C_2 Co2D 1_555 1_555
H3A O3A 1_555 1_555
H3B O3B 1_555 1_555
H3D O3D 1_555 1_555
H3E O3E 1_555 1_555
H3C O3C 1_555 1_555
H3E_2 O3E_2 1_555 1_555
H3C_2 O3C_2 1_555 1_555
N1C H4C 1_555 1_555
N1C_2 Co3C 1_555 1_555
H4A N1 1_555 1_555
H4C C1E 1_555 1_555
H4B N1 1_555 1_555
H4E N1C 1_555 1_555
H4D N1C 1_555 1_555
C1B N1 1_555 1_555
C1C C2 1_555 1_555
C1E N1C 1_555 1_555
C1A N1 1_555 1_555
C1D N1C 1_555 1_555
H5E C1E 1_555 1_555
H5D C1D 1_555 1_555
H5C C1C 1_555 1_555
H5A C1A 1_555 1_555
H5B C1B 1_555 1_555
H6E C1E 1_555 1_555
H6D C1D 1_555 1_555
H6C C1C 1_555 1_555
H6A C1A 1_555 1_555
H6B C2 1_555 1_555
C2C C1 1_555 1_555
C2A N1 1_555 1_555
C2B N1 1_555 1_555
C2E N1C 1_555 1_555
C2D N1C 1_555 1_555
H7E C1E 1_555 1_555
H7D C1D 1_555 1_555
H7C C1C 1_555 1_555
H7A C1A 1_555 1_555
H7B C2 1_555 1_555
H8E H6E 1_555 1_555
H8D H6D 1_555 1_555
H8C H6C 1_555 1_555
H8A H6A 1_555 1_555
H8B C2 1_555 1_555
O4C Co4C 1_555 1_555
O4A Co4 1_555 1_555
O4D C3D 1_555 1_555
O4B Co4 1_555 1_555
O4E C3E 1_555 1_555
O4D_2 Co4C 1_555 1_555
O4E_2 Co4C 1_555 1_555
O5C Co4 1_555 1_555
O5A Co4C_2 1_555 1_555
O5D Co4 1_555 1_555
O5B Co4D 1_555 1_555
O5E Co4 1_555 1_555
O5A_2 Co4C 1_555 1_555
O5B_2 Co4C 1_555 1_555
C3C O4C 1_555 1_555
C3A O4A 1_555 1_555
C3D O5D 1_555 1_555
C3B O4B 1_555 1_555
C3E O5E 1_555 1_555
Co2 O3A 1_555 1_555
O3 Co1E 1_555 1_555
H4 C2 1_555 1_555
H4 C1B 1_555 1_555
C1 H4A 1_555 1_555
C1 C2A 1_555 1_555
C1 C2B 1_555 1_555
H5 H7 1_555 1_555
H6 C2A 1_555 1_555
C2 C1B 1_555 1_555
C2 C1A 1_555 1_555
H7 C2A 1_555 1_555
H8 C2A 1_555 1_555
Co1A O2A 1_555 1_555
Co1A O3B 1_555 1_555
Co1B O2B 1_555 1_555
Co1E O1E 1_555 1_555
Co1E O1A_2 1_555 1_555
Co1E O3C 1_555 1_555
Co1C O2A 1_555 1_555
Co1C O3A 1_555 1_555
Co1C O3D 1_555 1_555
Co1D O2B 1_555 1_555
Co1D O3B 1_555 1_555
Co1D O3E 1_555 1_555
Co1D_2 O2D 1_555 1_555
Co1E_2 O2E 1_555 1_555
Co1C_2 O2C 1_555 1_555
Co2D O2C_2 1_555 1_555
Co2D O3D 1_555 1_555
Co2D O3E_2 1_555 1_555
Co2E O2D_2 1_555 1_555
Co2E O3E 1_555 1_555
Co2C O2E_2 1_555 1_555
Co2C O3C 1_555 1_555
Co3C O1D_2 1_555 1_555
Co3_2 O1B_3 1_555 1_555
Co3_3 O1_2 1_555 1_555
N1C C1C 1_555 1_555
N1C C2C 1_555 1_555
H4A C2A 1_555 1_555
H4C C2C 1_555 1_555
H4B C1A 1_555 1_555
H4B C2B 1_555 1_555
H4E C1D 1_555 1_555
H4E C2E 1_555 1_555
H4D C1C 1_555 1_555
H4D C2D 1_555 1_555
C1B H6B 1_555 1_555
C1B C2A 1_555 1_555
C1B C2E 1_555 1_555
C1B H7B 1_555 1_555
C1C C2E 1_555 1_555
C1C C2D 1_555 1_555
C1E C2C 1_555 1_555
C1E C2B 1_555 1_555
C1E C2D 1_555 1_555
C1A C2B 1_555 1_555
C1A C2D 1_555 1_555
C1D C2C 1_555 1_555
C1D C2A 1_555 1_555
C1D C2E 1_555 1_555
H5E H7E 1_555 1_555
H5D H7D 1_555 1_555
H5C H7C 1_555 1_555
H5A H7A 1_555 1_555
H5B H7B 1_555 1_555
H6E C2C 1_555 1_555
H6D C2E 1_555 1_555
H6C C2D 1_555 1_555
H6A C2B 1_555 1_555
H6B H8B 1_555 1_555
C2C H7E 1_555 1_555
C2C H8E 1_555 1_555
C2B H7A 1_555 1_555
C2B H8A 1_555 1_555
C2E H7D 1_555 1_555
C2E H8D 1_555 1_555
C2D H7C 1_555 1_555
C2D H8C 1_555 1_555
O5C C3C 1_555 1_555
O5A C3A 1_555 1_555
O5B C3B 1_555 1_555
C3A C3D 1_555 1_555
C3B C3E 1_555 1_555

#END
