
#######################################################################
#
#                 Cambridge Crystallographic Data Centre
#                                CCDC 
#
#######################################################################
#
# If this CIF has been generated from an entry in the Cambridge 
# Structural Database, then it will include bibliographic, chemical, 
# crystal, experimental, refinement or atomic coordinate data resulting 
# from the CCDC's data processing and validation procedures.
#
#######################################################################

data_DOTHUR
_chemical_formula_moiety         '(C18 H18 N4 O4 Zn1)n'
_symmetry_cell_setting           trigonal
_symmetry_space_group_name_H-M   'P 32 1 2'
_symmetry_Int_Tables_number      153
_space_group_name_Hall           'P 32 2 (0 0 2)'
loop_
_symmetry_equiv_pos_site_id
_symmetry_equiv_pos_as_xyz
1 x,y,z
2 -y,x-y,2/3+z
3 -y,-x,1/3-z
4 -x+y,-x,1/3+z
5 -x+y,y,2/3-z
6 x,x-y,-z
_cell_length_a                   14.933(8)
_cell_length_b                   14.933(8)
_cell_length_c                   10.539(6)
_cell_angle_alpha                90
_cell_angle_beta                 90
_cell_angle_gamma                120
_cell_volume                     2035.28
loop_
_atom_site_label
_atom_site_type_symbol
_atom_site_fract_x
_atom_site_fract_y
_atom_site_fract_z
Zn1 Zn 0.81564(3) 0.63127(6) 0.3333
O1 O 1.0023(4) 0.6306(4) 0.4695(4)
O2 O 0.9285(3) 0.7247(3) 0.4414(3)
N1 N 0.6025(4) 0.5321(3) 0.4159(4)
H1 H 0.5894 0.5518 0.3451
N2 N 0.6949(3) 0.5439(3) 0.4460(4)
C1 C 0.4241(5) 0.4674(7) 0.4966(6)
H2 H 0.4211 0.5076 0.4273
H3 H 0.4047 0.4875 0.5738
H4 H 0.3774 0.3954 0.4808
C2 C 0.5324(4) 0.4861(5) 0.5091(5)
C3 C 0.5821(4) 0.4652(4) 0.6044(4)
C4 C 0.6813(4) 0.5009(4) 0.5626(4)
C5 C 0.7688(5) 0.4988(6) 0.6291(6)
H5 H 0.8229 0.5133 0.5693
H6 H 0.7446 0.4316 0.6656
H7 H 0.7950 0.5500 0.6949
C6 C 0.9972(6) 0.7083(6) 0.4872(6)
C7 C 1.1538(5) 0.7780(5) 0.6237(5)
H8 H 1.1623 0.7241 0.5938
C8 C 1.0737(5) 0.7883(5) 0.5814(5)
C9 C 1.0611(5) 0.8682(6) 0.6216(6)
H9 H 1.0073 0.8763 0.5905
O1B O 1.3694(4) 0.9977(4) 0.8638(4)
O2B O 1.2753(3) 1.0715(3) 0.8919(3)
C6B C 1.2917(6) 1.0028(6) 0.8461(6)
C7B C 1.2220(5) 0.8462(5) 0.7096(5)
H8B H 1.2759 0.8377 0.7395
C8B C 1.2117(5) 0.9263(5) 0.7519(5)
C9B C 1.1318(6) 0.9389(5) 0.7117(6)
H9B H 1.1237 0.9927 0.7428
N1B N 0.4679(3) 0.3975(4) 0.9174(4)
H1B H 0.4482 0.4106 0.9882
N2B N 0.4561(3) 0.3051(3) 0.8873(4)
C1B C 0.5326(7) 0.5759(5) 0.8367(6)
H2B H 0.4924 0.5789 0.9060
H3B H 0.5125 0.5953 0.7595
H4B H 0.6046 0.6226 0.8525
C2B C 0.5139(5) 0.4676(4) 0.8242(5)
C3B C 0.5348(4) 0.4179(4) 0.7289(4)
C4B C 0.4991(4) 0.3187(4) 0.7707(4)
C5B C 0.5012(6) 0.2312(5) 0.7042(6)
H5B H 0.4867 0.1771 0.7640
H6B H 0.5684 0.2554 0.6677
H7B H 0.4500 0.2050 0.6384
Zn1A Zn 0.36873(6) 0.18437(7) 1.0000
Zn1A_2 Zn 1.36873(6) 1.18437(7) 1.0000
O2D O 0.7962(4) 0.7247(3) 0.2253(3)
N2D N 0.8490(4) 0.5439(3) 0.2207(4)
loop_
_geom_bond_atom_site_label_1
_geom_bond_atom_site_label_2
_geom_bond_site_symmetry_1
_geom_bond_site_symmetry_2
Zn1 O2 1_555 1_555
O1 C6 1_555 1_555
O2 C6 1_555 1_555
N1 H1 1_555 1_555
N2 Zn1 1_555 1_555
C1 H2 1_555 1_555
H3 C1 1_555 1_555
H4 C1 1_555 1_555
C2 N1 1_555 1_555
C3 C2 1_555 1_555
C4 N2 1_555 1_555
C5 C4 1_555 1_555
H5 C5 1_555 1_555
H6 C5 1_555 1_555
H7 C5 1_555 1_555
C6 C8 1_555 1_555
C7 H8 1_555 1_555
C8 C7 1_555 1_555
C9 C8 1_555 1_555
H9 C9 1_555 1_555
O1B C6B 1_555 1_555
O2B C6B 1_555 1_555
C6B C8B 1_555 1_555
C7B C7 1_555 1_555
H8B C7B 1_555 1_555
C8B C7B 1_555 1_555
C9B C9 1_555 1_555
H9B C9B 1_555 1_555
N1B H1B 1_555 1_555
N2B N1B 1_555 1_555
C1B H2B 1_555 1_555
H3B C1B 1_555 1_555
H4B C1B 1_555 1_555
C2B N1B 1_555 1_555
C3B C3 1_555 1_555
C4B N2B 1_555 1_555
C5B C4B 1_555 1_555
H5B C5B 1_555 1_555
H6B C5B 1_555 1_555
H7B C5B 1_555 1_555
Zn1A N2B 1_555 1_555
Zn1A_2 O2B 1_555 1_555
O2D Zn1 1_555 1_555
N2D Zn1 1_555 1_555
N1 N2 1_555 1_555
C1 C2 1_555 1_555
C3 C4 1_555 1_555
C8B C9B 1_555 1_555
C1B C2B 1_555 1_555
C2B C3B 1_555 1_555
C3B C4B 1_555 1_555

#END
