
#######################################################################
#
#                 Cambridge Crystallographic Data Centre
#                                CCDC 
#
#######################################################################
#
# If this CIF has been generated from an entry in the Cambridge 
# Structural Database, then it will include bibliographic, chemical, 
# crystal, experimental, refinement or atomic coordinate data resulting 
# from the CCDC's data processing and validation procedures.
#
#######################################################################

data_JAHXUM
_chemical_formula_moiety         '(C76 H48 Cu1 Gd4 N4 O30)n'
_symmetry_cell_setting           monoclinic
_symmetry_space_group_name_H-M   'C 2/c'
_symmetry_Int_Tables_number      15
_space_group_name_Hall           '-C 2yc'
loop_
_symmetry_equiv_pos_site_id
_symmetry_equiv_pos_as_xyz
1 x,y,z
2 1/2+x,1/2+y,z
3 x,-y,1/2+z
4 1/2+x,1/2-y,1/2+z
5 -x,-y,-z
6 1/2-x,1/2-y,-z
7 -x,y,1/2-z
8 1/2-x,1/2+y,1/2-z
_cell_length_a                   26.359(2)
_cell_length_b                   14.3982(8)
_cell_length_c                   25.3106(19)
_cell_angle_alpha                90
_cell_angle_beta                 113.016(2)
_cell_angle_gamma                90
_cell_volume                     8841.26
loop_
_atom_site_label
_atom_site_type_symbol
_atom_site_fract_x
_atom_site_fract_y
_atom_site_fract_z
Gd1 Gd 0.213431(11) 0.637151(19) 0.310124(12)
Gd2 Gd 0.334420(11) 0.916870(19) 0.301350(12)
C1 C 0.1946(2) 0.8574(4) 0.2753(2)
C2 C 0.1579(2) 0.9420(4) 0.2598(3)
C3 C 0.1095(3) 0.9452(4) 0.2694(3)
H1 H 0.0974 0.8926 0.2825
C4 C 0.0794(3) 1.0266(4) 0.2597(3)
H2 H 0.0474 1.0288 0.2667
C5 C 0.0964(2) 1.1048(4) 0.2395(3)
H3 H 0.0763 1.1597 0.2339
C6 C 0.1436(2) 1.1014(4) 0.2276(2)
C7 C 0.1735(2) 1.0194(4) 0.2380(2)
H4 H 0.2050 1.0166 0.2301
C8 C 0.1643(2) 1.1849(4) 0.2059(2)
C9 C 0.2500(2) 0.4489(4) 0.3520(3)
C10 C 0.2727(2) 0.3574(4) 0.3786(2)
C11 C 0.2958(3) 0.3489(4) 0.4380(3)
H5 H 0.2949 0.3985 0.4612
C12 C 0.3202(3) 0.2658(5) 0.4624(3)
H6 H 0.3357 0.2600 0.5022
C13 C 0.3217(3) 0.1915(4) 0.4287(3)
H7 H 0.3384 0.1362 0.4458
C14 C 0.2987(2) 0.1993(4) 0.3698(2)
C15 C 0.2743(2) 0.2822(4) 0.3451(2)
H8 H 0.2587 0.2875 0.3053
C16 C 0.2991(2) 0.1201(4) 0.3313(3)
C17 C 0.1527(3) 0.6519(5) 0.4029(3)
C18 C 0.1211(2) 0.6004(4) 0.4323(3)
C19 C 0.0845(3) 0.5297(5) 0.4053(3)
H9 H 0.0792 0.5120 0.3682
C20 C 0.0554(3) 0.4848(5) 0.4338(3)
H10 H 0.0293 0.4398 0.4149
C21 C 0.0656(3) 0.5072(5) 0.4903(3)
H11 H 0.0473 0.4758 0.5097
C22 C 0.1030(2) 0.5762(4) 0.5178(3)
C23 C 0.1297(2) 0.6239(4) 0.4883(2)
H12 H 0.1537 0.6721 0.5064
C24 C 0.1171(2) 0.5971(4) 0.5802(2)
C25 C 0.0889(2) 0.5199(4) 0.2351(2)
C26 C 0.0436(2) 0.5717(4) 0.2443(2)
C27 C 0.0435(2) 0.6682(4) 0.2452(3)
H13 H 0.0727 0.7011 0.2424
C28 C 0.0000 0.7152(6) 0.2500
H14 H 0.0000 0.7797 0.2500
C29 C 0.0000 0.5234(5) 0.2500
H15 H 0.0000 0.4588 0.2500
O1 O 0.17303(16) 0.7815(3) 0.27929(19)
O2 O 0.24420(15) 0.8682(3) 0.28299(17)
O3 O 0.19650(15) 1.1706(3) 0.18110(17)
O4 O 0.14786(16) 1.2639(3) 0.21401(18)
O5 O 0.21750(16) 0.4532(3) 0.29911(17)
O6 O 0.26395(17) 0.5207(3) 0.38157(18)
O7 O 0.31478(19) 0.0421(3) 0.35301(19)
O8 O 0.28215(16) 0.1367(3) 0.27893(17)
O9 O 0.15487(16) 0.6166(3) 0.35826(18)
O10 O 0.1749(2) 0.7264(3) 0.4248(2)
O11 O 0.16036(16) 0.6438(3) 0.60732(16)
O12 O 0.08799(16) 0.5659(3) 0.60532(17)
O13 O 0.13034(15) 0.5660(3) 0.23452(17)
O14 O 0.08526(16) 0.4341(3) 0.22617(18)
O15 O 0.25883(17) 0.7295(3) 0.39486(17)
C27F C -0.0435(2) 0.6682(4) 0.2548(3)
C26F C -0.0436(2) 0.5717(4) 0.2557(2)
C25F C -0.0889(2) 0.5199(4) 0.2649(2)
O13F O -0.13034(15) 0.5660(3) 0.26548(17)
O14F O -0.08526(16) 0.4341(3) 0.27383(18)
H13F H -0.0727 0.7011 0.2576
C1G C 0.3054(2) 0.3574(4) 0.2247(2)
C2G C 0.3421(2) 0.4420(4) 0.2402(3)
C3G C 0.3905(3) 0.4452(4) 0.2306(3)
H1G H 0.4026 0.3926 0.2175
C4G C 0.4206(3) 0.5266(4) 0.2403(3)
H2G H 0.4526 0.5288 0.2333
C5G C 0.4036(2) 0.6048(4) 0.2605(3)
H3G H 0.4237 0.6597 0.2661
C6G C 0.3564(2) 0.6014(4) 0.2724(2)
C7G C 0.3265(2) 0.5194(4) 0.2620(2)
H4G H 0.2950 0.5166 0.2699
C8G C 0.3357(2) 0.6849(4) 0.2941(2)
O1G O 0.32697(16) 0.2815(3) 0.22071(19)
O2G O 0.25580(15) 0.3682(3) 0.21701(17)
O3G O 0.30350(15) 0.6706(3) 0.31890(17)
O4G O 0.35214(16) 0.7639(3) 0.28599(18)
C9G C 0.2500(2) 0.9489(4) 0.1480(3)
C10G C 0.2273(2) 0.8574(4) 0.1214(2)
C11G C 0.2042(3) 0.8489(4) 0.0620(3)
H5G H 0.2051 0.8985 0.0388
C12G C 0.1798(3) 0.7658(5) 0.0376(3)
H6G H 0.1643 0.7600 -0.0022
C13G C 0.1783(3) 0.6915(4) 0.0713(3)
H7G H 0.1616 0.6362 0.0542
C14G C 0.2013(2) 0.6993(4) 0.1302(2)
C15G C 0.2257(2) 0.7822(4) 0.1549(2)
H8G H 0.2413 0.7875 0.1947
C16G C 0.2009(2) 0.6201(4) 0.1687(3)
O5G O 0.28250(16) 0.9532(3) 0.20089(17)
O6G O 0.23605(17) 1.0207(3) 0.11843(18)
O7G O 0.18522(19) 0.5421(3) 0.14699(19)
O8G O 0.21785(16) 0.6367(3) 0.22107(17)
Gd1G Gd 0.286569(11) 0.137151(19) 0.189876(12)
Gd2G Gd 0.165580(11) 0.416870(19) 0.198650(12)
C17E C 0.3473(3) 0.8481(5) 0.5971(3)
C18E C 0.3789(2) 0.8996(4) 0.5677(3)
C19E C 0.4155(3) 0.9703(5) 0.5947(3)
H9E H 0.4208 0.9880 0.6318
C20E C 0.4446(3) 1.0152(5) 0.5662(3)
H10E H 0.4707 1.0602 0.5851
C21E C 0.4344(3) 0.9928(5) 0.5097(3)
H11E H 0.4527 1.0242 0.4903
C22E C 0.3970(2) 0.9238(4) 0.4822(3)
C23E C 0.3703(2) 0.8761(4) 0.5117(2)
H12E H 0.3463 0.8279 0.4936
C24E C 0.3829(2) 0.9029(4) 0.4198(2)
O9E O 0.34513(16) 0.8834(3) 0.64174(18)
O10E O 0.3251(2) 0.7736(3) 0.5752(2)
O11E O 0.33964(16) 0.8562(3) 0.39268(16)
O12E O 0.41201(16) 0.9341(3) 0.39468(17)
O15G O 0.24117(17) 0.2295(3) 0.10514(17)
O7_2 O 0.31478(19) 1.0421(3) 0.35301(19)
O13G O 0.36966(15) 1.0660(3) 0.26548(17)
O14G O 0.41474(16) 0.9341(3) 0.27383(18)
Gd1G_2 Gd 0.286569(11) 1.137151(19) 0.189876(12)
Gd2G_2 Gd 0.165580(11) 1.416870(19) 0.198650(12)
Gd2_2 Gd 0.334420(11) -0.083130(19) 0.301350(12)
Gd2E Gd 0.165580(11) 0.583130(19) 0.698650(12)
Gd1F Gd -0.213431(11) 0.637151(19) 0.189876(12)
Gd2A Gd -0.165580(11) 0.416870(19) 0.301350(12)
O3_2 O 0.19650(15) 0.1706(3) 0.18110(17)
O5G_2 O 0.28250(16) -0.0468(3) 0.20089(17)
O6G_2 O 0.23605(17) 0.0207(3) 0.11843(18)
O9G O 0.34513(16) 0.1166(3) 0.14174(18)
O13G_2 O 0.36966(15) 0.0660(3) 0.26548(17)
O4_2 O 0.14786(16) 0.2639(3) 0.21401(18)
O11B O 0.16036(16) 0.3562(3) 0.10732(16)
O12B O 0.08799(16) 0.4341(3) 0.10532(17)
Gd1E Gd 0.286569(11) 0.862849(19) 0.689876(12)
Cu1 Cu 0.55957(4) 0.52602(7) 0.42200(4)
C30 C 0.5349(4) 0.7114(6) 0.3532(3)
H16 H 0.4986 0.7063 0.3498
C31 C 0.5503(5) 0.7912(7) 0.3340(4)
H17 H 0.5251 0.8388 0.3179
C32 C 0.6032(5) 0.7988(7) 0.3393(4)
H18 H 0.6146 0.8517 0.3258
C33 C 0.6402(4) 0.7291(6) 0.3643(4)
H19 H 0.6769 0.7353 0.3694
C34 C 0.6221(3) 0.6493(5) 0.3820(3)
C35 C 0.6584(3) 0.5691(5) 0.4091(3)
C36 C 0.7076(3) 0.5536(6) 0.4038(4)
H20 H 0.7191 0.5934 0.3818
C37 C 0.7395(3) 0.4797(6) 0.4309(4)
H21 H 0.7726 0.4685 0.4269
C38 C 0.7227(3) 0.4218(5) 0.4641(3)
H22 H 0.7448 0.3732 0.4848
C39 C 0.6718(3) 0.4389(4) 0.4655(3)
H23 H 0.6592 0.3981 0.4862
C40 C 0.4911(4) 0.6544(6) 0.4600(3)
H24 H 0.5215 0.6934 0.4742
C41 C 0.4411(5) 0.6867(7) 0.4574(4)
H25 H 0.4378 0.7465 0.4697
C42 C 0.3967(4) 0.6296(8) 0.4368(4)
H26 H 0.3624 0.6508 0.4341
C43 C 0.4018(3) 0.5418(7) 0.4199(3)
H27 H 0.3715 0.5022 0.4065
C44 C 0.4533(3) 0.5117(6) 0.4230(3)
C45 C 0.4639(3) 0.4187(6) 0.4058(3)
C46 C 0.4282(3) 0.3434(7) 0.3972(4)
H28 H 0.3937 0.3519 0.3984
C47 C 0.4442(4) 0.2576(7) 0.3872(4)
H29 H 0.4207 0.2069 0.3817
C48 C 0.4948(4) 0.2465(6) 0.3855(4)
H30 H 0.5070 0.1882 0.3799
C49 C 0.5276(3) 0.3239(6) 0.3922(4)
H31 H 0.5619 0.3162 0.3903
N1 N 0.5693(2) 0.6399(4) 0.3766(3)
N2 N 0.6392(2) 0.5103(4) 0.4390(2)
N3 N 0.4977(2) 0.5691(4) 0.4428(3)
N4 N 0.5128(2) 0.4092(4) 0.4012(2)
loop_
_geom_bond_atom_site_label_1
_geom_bond_atom_site_label_2
_geom_bond_site_symmetry_1
_geom_bond_site_symmetry_2
Gd1 O1 1_555 1_555
Gd2 O2 1_555 1_555
Cu1 N1 1_555 1_555
C1 C2 1_555 1_555
C2 C3 1_555 1_555
C3 H1 1_555 1_555
C4 C3 1_555 1_555
H2 C4 1_555 1_555
C5 C4 1_555 1_555
H3 C5 1_555 1_555
C6 C5 1_555 1_555
C7 C2 1_555 1_555
H4 C7 1_555 1_555
C8 C6 1_555 1_555
C9 C10 1_555 1_555
C10 C11 1_555 1_555
C11 H5 1_555 1_555
C12 C11 1_555 1_555
H6 C12 1_555 1_555
C13 C12 1_555 1_555
H7 C13 1_555 1_555
C14 C13 1_555 1_555
C15 C10 1_555 1_555
H8 C15 1_555 1_555
C16 C14 1_555 1_555
C17 C18 1_555 1_555
C18 C19 1_555 1_555
C19 H9 1_555 1_555
C20 C19 1_555 1_555
H10 C20 1_555 1_555
C21 C20 1_555 1_555
H11 C21 1_555 1_555
C22 C21 1_555 1_555
C23 C18 1_555 1_555
H12 C23 1_555 1_555
C24 C22 1_555 1_555
C25 C26 1_555 1_555
C26 C27 1_555 1_555
C27 H13 1_555 1_555
C28 C27 1_555 1_555
H14 C28 1_555 1_555
C29 C26 1_555 1_555
H15 C29 1_555 1_555
C30 H16 1_555 1_555
C31 C30 1_555 1_555
H17 C31 1_555 1_555
C32 C31 1_555 1_555
H18 C32 1_555 1_555
C33 C32 1_555 1_555
H19 C33 1_555 1_555
C34 C33 1_555 1_555
C35 C34 1_555 1_555
C36 C35 1_555 1_555
H20 C36 1_555 1_555
C37 C36 1_555 1_555
H21 C37 1_555 1_555
C38 C37 1_555 1_555
H22 C38 1_555 1_555
C39 C38 1_555 1_555
H23 C39 1_555 1_555
C40 H24 1_555 1_555
C41 C40 1_555 1_555
H25 C41 1_555 1_555
C42 C41 1_555 1_555
H26 C42 1_555 1_555
C43 C42 1_555 1_555
H27 C43 1_555 1_555
C44 C43 1_555 1_555
C45 C44 1_555 1_555
C46 C45 1_555 1_555
H28 C46 1_555 1_555
C47 C46 1_555 1_555
H29 C47 1_555 1_555
C48 C47 1_555 1_555
H30 C48 1_555 1_555
C49 C48 1_555 1_555
H31 C49 1_555 1_555
N1 C30 1_555 1_555
N2 Cu1 1_555 1_555
N3 Cu1 1_555 1_555
N4 Cu1 1_555 1_555
O1 C1 1_555 1_555
O2 C1 1_555 1_555
O3 C8 1_555 1_555
O4 C8 1_555 1_555
O5 Gd1 1_555 1_555
O6 Gd1 1_555 1_555
O7 C16 1_555 1_555
O8 C16 1_555 1_555
O9 Gd1 1_555 1_555
O10 C17 1_555 1_555
O11 C24 1_555 1_555
O12 C24 1_555 1_555
O13 Gd1 1_555 1_555
O14 C25 1_555 1_555
O15 Gd1 1_555 1_555
C27F C28 1_555 1_555
C26F C29 1_555 1_555
C25F C26F 1_555 1_555
O13F C25F 1_555 1_555
O14F C25F 1_555 1_555
H13F C27F 1_555 1_555
C1G C2G 1_555 1_555
C2G C3G 1_555 1_555
C3G H1G 1_555 1_555
C4G C3G 1_555 1_555
H2G C4G 1_555 1_555
C5G C4G 1_555 1_555
H3G C5G 1_555 1_555
C6G C5G 1_555 1_555
C7G C2G 1_555 1_555
H4G C7G 1_555 1_555
C8G C6G 1_555 1_555
O1G C1G 1_555 1_555
O2G C1G 1_555 1_555
O3G Gd1 1_555 1_555
O4G Gd2 1_555 1_555
C9G C10G 1_555 1_555
C10G C11G 1_555 1_555
C11G H5G 1_555 1_555
C12G C11G 1_555 1_555
H6G C12G 1_555 1_555
C13G C12G 1_555 1_555
H7G C13G 1_555 1_555
C14G C13G 1_555 1_555
C15G C10G 1_555 1_555
H8G C15G 1_555 1_555
C16G C14G 1_555 1_555
O5G Gd2 1_555 1_555
O6G C9G 1_555 1_555
O7G C16G 1_555 1_555
O8G Gd1 1_555 1_555
Gd1G O8 1_555 1_555
Gd2G O5 1_555 1_555
C17E C18E 1_555 1_555
C18E C19E 1_555 1_555
C19E H9E 1_555 1_555
C20E C19E 1_555 1_555
H10E C20E 1_555 1_555
C21E C20E 1_555 1_555
H11E C21E 1_555 1_555
C22E C21E 1_555 1_555
C23E C18E 1_555 1_555
H12E C23E 1_555 1_555
C24E C22E 1_555 1_555
O9E C17E 1_555 1_555
O10E C17E 1_555 1_555
O11E Gd2 1_555 1_555
O12E Gd2 1_555 1_555
O15G Gd1G 1_555 1_555
O7_2 Gd2 1_555 1_555
O13G Gd2 1_555 1_555
O14G Gd2 1_555 1_555
Gd1G_2 O3 1_555 1_555
Gd2G_2 O4 1_555 1_555
Gd2_2 O7 1_555 1_555
Gd2E O11 1_555 1_555
Gd1F O13F 1_555 1_555
Gd2A O13F 1_555 1_555
O3_2 Gd1G 1_555 1_555
O5G_2 Gd1G 1_555 1_555
O6G_2 Gd1G 1_555 1_555
O9G Gd1G 1_555 1_555
O13G_2 Gd1G 1_555 1_555
O4_2 Gd2G 1_555 1_555
O11B Gd2G 1_555 1_555
O12B Gd2G 1_555 1_555
Gd1E O9E 1_555 1_555
C6 C7 1_555 1_555
C9 O5 1_555 1_555
C9 O6 1_555 1_555
C14 C15 1_555 1_555
C17 O9 1_555 1_555
C22 C23 1_555 1_555
C25 O13 1_555 1_555
C34 N1 1_555 1_555
C35 N2 1_555 1_555
C39 N2 1_555 1_555
C40 N3 1_555 1_555
C44 N3 1_555 1_555
C45 N4 1_555 1_555
C49 N4 1_555 1_555
O12 Gd2E 1_555 1_555
O13 Gd2G 1_555 1_555
O14 Gd2G 1_555 1_555
C27F C26F 1_555 1_555
O14F Gd2A 1_555 1_555
C6G C7G 1_555 1_555
C8G O3G 1_555 1_555
C8G O4G 1_555 1_555
O1G Gd1G 1_555 1_555
O2G Gd2G 1_555 1_555
C9G O5G 1_555 1_555
C14G C15G 1_555 1_555
C16G O8G 1_555 1_555
O5G Gd1G_2 1_555 1_555
O6G Gd1G_2 1_555 1_555
O7G Gd2G 1_555 1_555
C22E C23E 1_555 1_555
C24E O11E 1_555 1_555
C24E O12E 1_555 1_555
O13G Gd1G_2 1_555 1_555
Gd2_2 O5G_2 1_555 1_555
Gd2_2 O13G_2 1_555 1_555

#END
