
#######################################################################
#
#                 Cambridge Crystallographic Data Centre
#                                CCDC 
#
#######################################################################
#
# If this CIF has been generated from an entry in the Cambridge 
# Structural Database, then it will include bibliographic, chemical, 
# crystal, experimental, refinement or atomic coordinate data resulting 
# from the CCDC's data processing and validation procedures.
#
#######################################################################

data_YERJEL
_chemical_formula_moiety         '(C48 H34 N4 Ni2 O11)n'
_symmetry_cell_setting           triclinic
_symmetry_space_group_name_H-M   'P -1'
_symmetry_Int_Tables_number      2
_space_group_name_Hall           '-P 1'
loop_
_symmetry_equiv_pos_site_id
_symmetry_equiv_pos_as_xyz
1 x,y,z
2 -x,-y,-z
_cell_length_a                   11.269(4)
_cell_length_b                   11.270(4)
_cell_length_c                   20.711(7)
_cell_angle_alpha                77.608(5)
_cell_angle_beta                 77.603(5)
_cell_angle_gamma                64.727(4)
_cell_volume                     2300.49
loop_
_atom_site_label
_atom_site_type_symbol
_atom_site_fract_x
_atom_site_fract_y
_atom_site_fract_z
Ni1 Ni 0.36462(5) 0.53469(5) 0.93074(3)
Ni2 Ni -0.53470(5) 1.63547(5) 0.56919(3)
O1 O 0.1567(3) 0.6174(3) 0.93278(16)
O2 O 0.2884(3) 0.6070(3) 0.83808(15)
O3 O 0.5584(3) 0.4599(3) 0.89484(15)
O4 O 0.6430(3) 0.5087(3) 0.96820(15)
O5 O -0.4599(3) 1.4417(3) 0.60529(15)
O6 O -0.5081(3) 1.3570(3) 0.53184(15)
O7 O 1.3929(3) -0.2879(3) 0.66187(15)
O8 O 1.3827(3) -0.1565(3) 0.56702(15)
N1 N 0.3687(3) 0.3476(3) 0.92883(17)
C1 C 0.3301(6) 0.2790(5) 0.9831(2)
H1 H 0.3027 0.3149 1.0229
C2 C 0.3284(6) 0.1577(5) 0.9838(3)
H2 H 0.3013 0.1135 1.0236
C3 C 0.3662(4) 0.1013(4) 0.9267(2)
C4 C 0.4048(6) 0.1730(5) 0.8702(3)
H3 H 0.4313 0.1399 0.8297
C5 C 0.4041(6) 0.2945(5) 0.8737(3)
H4 H 0.4303 0.3412 0.8346
C6 C 0.3631(5) -0.0293(4) 0.9262(2)
C7 C 0.2778(5) -0.0749(5) 0.9732(3)
H5 H 0.2196 -0.0230 1.0052
C8 C 0.2805(5) -0.1974(4) 0.9717(3)
H6 H 0.2225 -0.2258 1.0033
C9 C 0.4397(5) -0.2318(4) 0.8815(2)
H7 H 0.4952 -0.2849 0.8494
C10 C 0.4429(4) -0.1100(4) 0.8790(2)
H8 H 0.4989 -0.0823 0.8455
N2 N 0.3607(4) -0.2774(3) 0.92794(19)
N3 N -0.3476(3) 1.6317(3) 0.57110(18)
C11 C -0.2934(5) 1.5959(5) 0.6267(3)
H9 H -0.3394 1.5689 0.6658
C12 C -0.1744(5) 1.5964(6) 0.6299(3)
H10 H -0.1419 1.5711 0.6706
C13 C -0.1015(4) 1.6342(4) 0.5733(2)
C14 C -0.1584(5) 1.6717(6) 0.5161(3)
H11 H -0.1145 1.6988 0.4762
C15 C -0.2792(5) 1.6695(6) 0.5169(3)
H12 H -0.3150 1.6961 0.4772
C16 C 0.2321(4) 1.5609(4) 0.6183(2)
H13 H 0.2854 1.5056 0.6504
C17 C 0.1105(4) 1.5574(4) 0.6210(2)
H14 H 0.0833 1.5012 0.6546
C18 C 0.0282(4) 1.6375(4) 0.5738(2)
C19 C 0.1970(5) 1.7195(5) 0.5280(3)
H15 H 0.2252 1.7774 0.4961
C20 C 0.0746(5) 1.7218(5) 0.5269(3)
H16 H 0.0228 1.7798 0.4948
N4 N 0.2773(3) 1.6396(4) 0.57191(19)
C21 C 0.1734(5) 0.6369(4) 0.8701(2)
C22 C 0.0561(4) 0.6949(4) 0.8338(2)
C23 C 0.0673(5) 0.7334(5) 0.7660(2)
H17 H 0.1497 0.7236 0.7417
C24 C -0.0439(6) 0.7868(5) 0.7337(3)
H18 H -0.0364 0.8150 0.6879
C25 C -0.1649(5) 0.7981(5) 0.7694(3)
C26 C -0.1770(5) 0.7573(6) 0.8363(3)
H19 H -0.2589 0.7631 0.8600
C27 C -0.0671(5) 0.7072(5) 0.8690(3)
H20 H -0.0759 0.6816 0.9149
O9 O -0.2755(4) 0.8416(3) 0.7376(2)
C28 C -0.3121(5) 0.9657(5) 0.6990(3)
C29 C -0.3089(6) 1.0715(5) 0.7194(3)
H21 H -0.2747 1.0603 0.7584
C30 C -0.3567(6) 1.1954(5) 0.6820(3)
H22 H -0.3547 1.2676 0.6959
C31 C -0.4073(4) 1.2124(4) 0.6238(2)
C32 C -0.4063(5) 1.1029(5) 0.6036(2)
H23 H -0.4372 1.1124 0.5638
C33 C -0.3606(5) 0.9797(5) 0.6414(3)
H24 H -0.3626 0.9071 0.6279
C34 C -0.4617(4) 1.3474(4) 0.5831(2)
C35 C 0.6527(4) 0.4611(4) 0.9165(2)
C36 C 0.7884(4) 0.4068(4) 0.8766(2)
C37 C 0.8966(4) 0.4068(5) 0.8967(2)
H25 H 0.8869 0.4376 0.9365
C38 C 1.0209(5) 0.3611(5) 0.8583(3)
H26 H 1.0935 0.3633 0.8717
C39 C 1.0342(5) 0.3133(5) 0.8008(3)
C40 C 0.9286(5) 0.3095(6) 0.7810(3)
H27 H 0.9398 0.2743 0.7423
C41 C 0.8052(5) 0.3576(5) 0.8179(3)
H28 H 0.7327 0.3571 0.8034
O10 O 1.1588(3) 0.2758(4) 0.7621(2)
C42 C 1.2023(5) 0.1650(5) 0.7304(3)
C43 C 1.2130(5) 0.0431(6) 0.7665(3)
H29 H 1.1845 0.0355 0.8122
C44 C 1.2661(5) -0.0668(5) 0.7341(2)
H30 H 1.2759 -0.1494 0.7583
C45 C 1.3051(4) -0.0553(4) 0.6660(2)
C46 C 1.2928(5) 0.0672(5) 0.6310(3)
H31 H 1.3183 0.0759 0.5851
C47 C 1.2427(6) 0.1774(5) 0.6637(3)
H32 H 1.2368 0.2593 0.6400
C48 C 1.3626(4) -0.1728(4) 0.6295(2)
Ni1A Ni 0.63538(5) 0.46531(5) 1.06926(3)
Ni1_2 Ni 0.36462(5) -0.46531(5) 0.93074(3)
Ni2A Ni -0.46530(5) 1.36453(5) 0.43081(3)
Ni2_2 Ni 1.46530(5) -0.36453(5) 0.56919(3)
Ni2_3 Ni 0.46530(5) 1.63547(5) 0.56919(3)
O4A O 0.3570(3) 0.4913(3) 1.03180(15)
O6A O -0.4919(3) 1.6430(3) 0.46816(15)
O7_2 O -0.6071(3) 1.7121(3) 0.66187(15)
O8_2 O -0.6173(3) 1.8435(3) 0.56702(15)
N2_2 N 0.3607(4) 0.7226(3) 0.92794(19)
N4_2 N -0.7227(3) 1.6396(4) 0.57191(19)
O11 O 0.5234(6) 0.4764(6) 0.7500(3)
loop_
_geom_bond_atom_site_label_1
_geom_bond_atom_site_label_2
_geom_bond_site_symmetry_1
_geom_bond_site_symmetry_2
Ni1 O1 1_555 1_555
Ni2 O5 1_555 1_555
O1 C21 1_555 1_555
O2 Ni1 1_555 1_555
O3 Ni1 1_555 1_555
O4 C35 1_555 1_555
O5 C34 1_555 1_555
O6 C34 1_555 1_555
O7 C48 1_555 1_555
O8 C48 1_555 1_555
N1 Ni1 1_555 1_555
C1 N1 1_555 1_555
H1 C1 1_555 1_555
C2 C1 1_555 1_555
H2 C2 1_555 1_555
C3 C2 1_555 1_555
C4 C3 1_555 1_555
H3 C4 1_555 1_555
C5 N1 1_555 1_555
H4 C5 1_555 1_555
C6 C3 1_555 1_555
C7 C6 1_555 1_555
H5 C7 1_555 1_555
C8 C7 1_555 1_555
H6 C8 1_555 1_555
C9 H7 1_555 1_555
C10 C6 1_555 1_555
H8 C10 1_555 1_555
N2 C8 1_555 1_555
N3 Ni2 1_555 1_555
C11 N3 1_555 1_555
H9 C11 1_555 1_555
C12 C11 1_555 1_555
H10 C12 1_555 1_555
C13 C12 1_555 1_555
C14 C13 1_555 1_555
H11 C14 1_555 1_555
C15 N3 1_555 1_555
H12 C15 1_555 1_555
C16 H13 1_555 1_555
C17 C16 1_555 1_555
H14 C17 1_555 1_555
C18 C13 1_555 1_555
C19 H15 1_555 1_555
C20 C18 1_555 1_555
H16 C20 1_555 1_555
N4 C16 1_555 1_555
C21 O2 1_555 1_555
C22 C21 1_555 1_555
C23 C22 1_555 1_555
H17 C23 1_555 1_555
C24 C23 1_555 1_555
H18 C24 1_555 1_555
C25 C24 1_555 1_555
C26 C25 1_555 1_555
H19 C26 1_555 1_555
C27 C22 1_555 1_555
H20 C27 1_555 1_555
O9 C25 1_555 1_555
C28 O9 1_555 1_555
C29 C28 1_555 1_555
H21 C29 1_555 1_555
C30 C29 1_555 1_555
H22 C30 1_555 1_555
C31 C30 1_555 1_555
C32 C31 1_555 1_555
H23 C32 1_555 1_555
C33 C28 1_555 1_555
H24 C33 1_555 1_555
C34 C31 1_555 1_555
C35 O3 1_555 1_555
C36 C35 1_555 1_555
C37 C36 1_555 1_555
H25 C37 1_555 1_555
C38 C37 1_555 1_555
H26 C38 1_555 1_555
C39 C38 1_555 1_555
C40 C39 1_555 1_555
H27 C40 1_555 1_555
C41 C36 1_555 1_555
H28 C41 1_555 1_555
O10 C39 1_555 1_555
C42 O10 1_555 1_555
C43 C42 1_555 1_555
H29 C43 1_555 1_555
C44 C43 1_555 1_555
H30 C44 1_555 1_555
C45 C44 1_555 1_555
C46 C45 1_555 1_555
H31 C46 1_555 1_555
C47 C42 1_555 1_555
H32 C47 1_555 1_555
C48 C45 1_555 1_555
Ni1A O4 1_555 1_555
Ni1_2 N2 1_555 1_555
Ni2A O6 1_555 1_555
Ni2_2 O7 1_555 1_555
Ni2_3 N4 1_555 1_555
O4A Ni1 1_555 1_555
O6A Ni2 1_555 1_555
O7_2 Ni2 1_555 1_555
O8_2 Ni2 1_555 1_555
N2_2 Ni1 1_555 1_555
N4_2 Ni2 1_555 1_555
O8 Ni2_2 1_555 1_555
C4 C5 1_555 1_555
C9 C10 1_555 1_555
C9 N2 1_555 1_555
C14 C15 1_555 1_555
C17 C18 1_555 1_555
C19 C20 1_555 1_555
C19 N4 1_555 1_555
C26 C27 1_555 1_555
C32 C33 1_555 1_555
C40 C41 1_555 1_555
C46 C47 1_555 1_555

#END
