
#######################################################################
#
#                 Cambridge Crystallographic Data Centre
#                                CCDC 
#
#######################################################################
#
# If this CIF has been generated from an entry in the Cambridge 
# Structural Database, then it will include bibliographic, chemical, 
# crystal, experimental, refinement or atomic coordinate data resulting 
# from the CCDC's data processing and validation procedures.
#
#######################################################################

data_YODRAM
_chemical_formula_moiety         '(C108 H84 Co9 N18 O42)n'
_symmetry_cell_setting           monoclinic
_symmetry_space_group_name_H-M   'C 2/m'
_symmetry_Int_Tables_number      12
_space_group_name_Hall           '-C 2y'
loop_
_symmetry_equiv_pos_site_id
_symmetry_equiv_pos_as_xyz
1 x,y,z
2 -x,y,-z
3 1/2+x,1/2+y,z
4 1/2-x,1/2+y,-z
5 -x,-y,-z
6 x,-y,z
7 1/2-x,1/2-y,-z
8 1/2+x,1/2-y,z
_cell_length_a                   31.3858(14)
_cell_length_b                   24.8618(13)
_cell_length_c                   13.1852(7)
_cell_angle_alpha                90
_cell_angle_beta                 112.774(5)
_cell_angle_gamma                90
_cell_volume                     9486.41
loop_
_atom_site_label
_atom_site_type_symbol
_atom_site_fract_x
_atom_site_fract_y
_atom_site_fract_z
Co1 Co -0.0000 0.0000 1.0000
Co2 Co 0.27567(3) 0.0000 0.93259(7)
Co3 Co 0.29254(3) 0.0000 0.67754(8)
Co4 Co 0.062676(18) -0.24465(3) 0.56307(5)
O1 O 0.07201(14) 0.0000 1.0441(4)
O2 O 0.32578(13) 0.0000 0.8512(3)
O3 O -0.03732(10) -0.18872(15) 0.5637(3)
O4 O -0.0000 -0.29144(19) 0.5000
N1 N 0.09360(12) -0.30072(17) 0.6962(3)
O5 O 0.03744(10) -0.20382(15) 0.6640(3)
C1 C 0.1128(2) 0.0000 1.1149(6)
N2 N 0.12405(12) 0.19624(17) 0.6254(3)
N3 N -0.00212(12) -0.06324(18) 0.8833(3)
O6 O 0.24625(11) 0.05979(17) 0.6713(3)
O7 O 0.40981(12) 0.20980(16) 0.5287(3)
N4 N 0.22331(18) 0.0000 0.9991(5)
C2 C -0.00117(15) -0.1812(2) 0.6446(4)
O8 O 0.26033(18) 0.0000 0.5049(4)
O9 O 0.18639(12) -0.44189(18) 0.9562(3)
C3 C 0.19305(14) 0.1199(2) 0.6982(4)
O10 O 0.23869(12) 0.05968(19) 0.8311(3)
C4 C -0.00219(14) -0.1406(2) 0.7289(4)
O11 O 0.12297(17) 0.0000 1.2154(4)
N5 N 0.33830(14) 0.0615(2) 0.6692(4)
O12 O 0.13480(16) -0.4207(2) 1.0255(4)
C5 C 0.17780(17) 0.1392(2) 0.5924(4)
H1 H 0.1906 0.1269 0.5438
C6 C 0.22954(15) 0.0753(2) 0.7359(4)
C7 C 0.1512(2) 0.0000 1.0738(6)
C8 C 0.03318(18) -0.0958(2) 0.9016(4)
H2 H 0.0582 -0.0926 0.9684
C9 C -0.03839(17) -0.0709(3) 0.7869(4)
H3 H -0.0643 -0.0493 0.7709
C10 C 0.17349(17) 0.1403(2) 0.7668(4)
H4 H 0.1835 0.1285 0.8392
C11 C 0.03578(16) -0.1345(2) 0.8287(4)
H5 H 0.0620 -0.1559 0.8455
C12 C -0.03886(16) -0.1091(2) 0.7114(4)
H6 H -0.0651 -0.1131 0.6471
C13 C 0.14275(15) 0.1776(2) 0.5596(4)
H7 H 0.1322 0.1905 0.4879
C14 C 0.13909(16) 0.1782(2) 0.7286(4)
H8 H 0.1260 0.1917 0.7758
C15 C 0.1420(2) 0.0000 0.9632(6)
H9 H 0.1117 0.0000 0.9117
C16 C 0.15432(19) -0.3628(3) 0.7982(5)
H10 H 0.1824 -0.3784 0.8070
C17 C 0.1325(2) -0.3749(3) 0.8671(5)
C18 C 0.0741(2) -0.3131(3) 0.7665(5)
H11 H 0.0464 -0.2962 0.7576
C19 C 0.0922(2) -0.3494(3) 0.8518(6)
H12 H 0.0769 -0.3563 0.8984
C20 C 0.1969(3) 0.0000 1.1457(7)
H13 H 0.2051 0.0000 1.2214
C21 C 0.3961(2) 0.1363(3) 0.6234(5)
C22 C 0.3215(3) 0.1002(4) 0.5943(7)
H14 H 0.2896 0.1015 0.5556
C23 C 0.1327(2) -0.3259(3) 0.7138(5)
H15 H 0.1473 -0.3184 0.6660
C24 C 0.1538(2) -0.4161(3) 0.9584(5)
C25 C 0.2306(2) 0.0000 1.0997(7)
H16 H 0.2614 0.0000 1.1488
C26 C 0.1792(3) 0.0000 0.9299(7)
H17 H 0.1728 0.0000 0.8549
C27 C 0.3498(2) 0.1413(3) 0.5681(6)
H18 H 0.3367 0.1687 0.5174
C28 C 0.4263(2) 0.1749(4) 0.5901(6)
O13 O 0.46817(16) 0.1609(3) 0.6246(5)
C29 C 0.4134(3) 0.0996(4) 0.7065(7)
H19 H 0.4450 0.0961 0.7467
C30 C 0.3809(3) 0.0669(4) 0.7287(8)
H20 H 0.3920 0.0474 0.7940
Co2A Co -0.27567(3) 0.0000 0.06741(7)
Co3A Co -0.29254(3) 0.0000 0.32246(8)
Co4A Co -0.062676(18) -0.24465(3) 0.43693(5)
O1A O -0.07201(14) -0.0000 -0.0441(4)
O2A O -0.32578(13) 0.0000 0.1488(3)
O3A O 0.03732(10) -0.18872(15) 0.4363(3)
N1A N -0.09360(12) -0.30072(17) 0.3038(3)
O5A O -0.03744(10) -0.20382(15) 0.3360(3)
C1A C -0.1128(2) 0.0000 -0.1149(6)
N2A N -0.12405(12) 0.19624(17) 0.3746(3)
N3A N 0.00212(12) -0.06324(18) 0.1167(3)
O6A O -0.24625(11) 0.05979(17) 0.3287(3)
O7A O -0.40981(12) 0.20980(16) 0.4713(3)
N4A N -0.22331(18) 0.0000 0.0009(5)
C2A C 0.00117(15) -0.1812(2) 0.3554(4)
O8A O -0.26033(18) 0.0000 0.4951(4)
O9A O -0.18639(12) -0.44189(18) 0.0438(3)
C3A C -0.19305(14) 0.1199(2) 0.3018(4)
O10A O -0.23869(12) 0.05968(19) 0.1689(3)
C4A C 0.00219(14) -0.1406(2) 0.2711(4)
O11A O -0.12297(17) -0.0000 -0.2154(4)
N5A N -0.33830(14) 0.0615(2) 0.3308(4)
O12A O -0.13480(16) -0.4207(2) -0.0255(4)
C5A C -0.17780(17) 0.1392(2) 0.4076(4)
H1A H -0.1906 0.1269 0.4562
C6A C -0.22954(15) 0.0753(2) 0.2641(4)
C7A C -0.1512(2) 0.0000 -0.0738(6)
C8A C -0.03318(18) -0.0958(2) 0.0984(4)
H2A H -0.0582 -0.0926 0.0316
C9A C 0.03839(17) -0.0709(3) 0.2131(4)
H3A H 0.0643 -0.0493 0.2291
C10A C -0.17349(17) 0.1403(2) 0.2332(4)
H4A H -0.1835 0.1285 0.1608
C11A C -0.03578(16) -0.1345(2) 0.1713(4)
H5A H -0.0620 -0.1559 0.1545
C12A C 0.03886(16) -0.1091(2) 0.2886(4)
H6A H 0.0651 -0.1131 0.3529
C13A C -0.14275(15) 0.1776(2) 0.4404(4)
H7A H -0.1322 0.1905 0.5121
C14A C -0.13909(16) 0.1782(2) 0.2714(4)
H8A H -0.1260 0.1917 0.2242
C15A C -0.1420(2) 0.0000 0.0368(6)
H9A H -0.1117 0.0000 0.0883
C16A C -0.15432(19) -0.3628(3) 0.2018(5)
H10A H -0.1824 -0.3784 0.1930
C17A C -0.1325(2) -0.3749(3) 0.1329(5)
C18A C -0.0741(2) -0.3131(3) 0.2335(5)
H11A H -0.0464 -0.2962 0.2424
C19A C -0.0922(2) -0.3494(3) 0.1482(6)
H12A H -0.0769 -0.3563 0.1016
C20A C -0.1969(3) -0.0000 -0.1457(7)
H13A H -0.2051 -0.0000 -0.2214
C21A C -0.3961(2) 0.1363(3) 0.3766(5)
C22A C -0.3215(3) 0.1002(4) 0.4057(7)
H14A H -0.2896 0.1015 0.4444
C23A C -0.1327(2) -0.3259(3) 0.2862(5)
H15A H -0.1473 -0.3184 0.3340
C24A C -0.1538(2) -0.4161(3) 0.0416(5)
C25A C -0.2306(2) 0.0000 -0.0997(7)
H16A H -0.2614 0.0000 -0.1488
C26A C -0.1792(3) 0.0000 0.0701(7)
H17A H -0.1728 0.0000 0.1451
C27A C -0.3498(2) 0.1413(3) 0.4319(6)
H18A H -0.3367 0.1687 0.4826
C28A C -0.4263(2) 0.1749(4) 0.4099(6)
O13A O -0.46817(16) 0.1609(3) 0.3754(5)
C29A C -0.4134(3) 0.0996(4) 0.2935(7)
H19A H -0.4450 0.0961 0.2533
C30A C -0.3809(3) 0.0669(4) 0.2713(8)
H20A H -0.3920 0.0474 0.2060
Co4D Co -0.062676(18) 0.24465(3) 0.43693(5)
O3D O 0.03732(10) 0.18872(15) 0.4363(3)
O4D O -0.0000 0.29144(19) 0.5000
N1D N -0.09360(12) 0.30072(17) 0.3038(3)
O5D O -0.03744(10) 0.20382(15) 0.3360(3)
N2D N -0.12405(12) -0.19624(17) 0.3746(3)
N3D N 0.00212(12) 0.06324(18) 0.1167(3)
O6D O -0.24625(11) -0.05979(17) 0.3287(3)
O7D O -0.40981(12) -0.20980(16) 0.4713(3)
C2D C 0.00117(15) 0.1812(2) 0.3554(4)
O9D O -0.18639(12) 0.44189(18) 0.0438(3)
C3D C -0.19305(14) -0.1199(2) 0.3018(4)
O10D O -0.23869(12) -0.05968(19) 0.1689(3)
C4D C 0.00219(14) 0.1406(2) 0.2711(4)
N5D N -0.33830(14) -0.0615(2) 0.3308(4)
O12D O -0.13480(16) 0.4207(2) -0.0255(4)
C5D C -0.17780(17) -0.1392(2) 0.4076(4)
H1D H -0.1906 -0.1269 0.4562
C6D C -0.22954(15) -0.0753(2) 0.2641(4)
C8D C -0.03318(18) 0.0958(2) 0.0984(4)
H2D H -0.0582 0.0926 0.0316
C9D C 0.03839(17) 0.0709(3) 0.2131(4)
H3D H 0.0643 0.0493 0.2291
C10D C -0.17349(17) -0.1403(2) 0.2332(4)
H4D H -0.1835 -0.1285 0.1608
C11D C -0.03578(16) 0.1345(2) 0.1713(4)
H5D H -0.0620 0.1559 0.1545
C12D C 0.03886(16) 0.1091(2) 0.2886(4)
H6D H 0.0651 0.1131 0.3529
C13D C -0.14275(15) -0.1776(2) 0.4404(4)
H7D H -0.1322 -0.1905 0.5121
C14D C -0.13909(16) -0.1782(2) 0.2714(4)
H8D H -0.1260 -0.1917 0.2242
C16D C -0.15432(19) 0.3628(3) 0.2018(5)
H10D H -0.1824 0.3784 0.1930
C17D C -0.1325(2) 0.3749(3) 0.1329(5)
C18D C -0.0741(2) 0.3131(3) 0.2335(5)
H11D H -0.0464 0.2962 0.2424
C19D C -0.0922(2) 0.3494(3) 0.1482(6)
H12D H -0.0769 0.3563 0.1016
C21D C -0.3961(2) -0.1363(3) 0.3766(5)
C22D C -0.3215(3) -0.1002(4) 0.4057(7)
H14D H -0.2896 -0.1015 0.4444
C23D C -0.1327(2) 0.3259(3) 0.2862(5)
H15D H -0.1473 0.3184 0.3340
C24D C -0.1538(2) 0.4161(3) 0.0416(5)
C27D C -0.3498(2) -0.1413(3) 0.4319(6)
H18D H -0.3367 -0.1687 0.4826
C28D C -0.4263(2) -0.1749(4) 0.4099(6)
O13D O -0.46817(16) -0.1609(3) 0.3754(5)
C29D C -0.4134(3) -0.0996(4) 0.2935(7)
H19D H -0.4450 -0.0961 0.2533
C30D C -0.3809(3) -0.0669(4) 0.2713(8)
H20D H -0.3920 -0.0474 0.2060
Co4E Co 0.062676(18) 0.24465(3) 0.56307(5)
O3E O -0.03732(10) 0.18872(15) 0.5637(3)
N1E N 0.09360(12) 0.30072(17) 0.6962(3)
O5E O 0.03744(10) 0.20382(15) 0.6640(3)
N2E N 0.12405(12) -0.19624(17) 0.6254(3)
N3E N -0.00212(12) 0.06324(18) 0.8833(3)
O6E O 0.24625(11) -0.05979(17) 0.6713(3)
O7E O 0.40981(12) -0.20980(16) 0.5287(3)
C2E C -0.00117(15) 0.1812(2) 0.6446(4)
O9E O 0.18639(12) 0.44189(18) 0.9562(3)
C3E C 0.19305(14) -0.1199(2) 0.6982(4)
O10E O 0.23869(12) -0.05968(19) 0.8311(3)
C4E C -0.00219(14) 0.1406(2) 0.7289(4)
N5E N 0.33830(14) -0.0615(2) 0.6692(4)
O12E O 0.13480(16) 0.4207(2) 1.0255(4)
C5E C 0.17780(17) -0.1392(2) 0.5924(4)
H1E H 0.1906 -0.1269 0.5438
C6E C 0.22954(15) -0.0753(2) 0.7359(4)
C8E C 0.03318(18) 0.0958(2) 0.9016(4)
H2E H 0.0582 0.0926 0.9684
C9E C -0.03839(17) 0.0709(3) 0.7869(4)
H3E H -0.0643 0.0493 0.7709
C10E C 0.17349(17) -0.1403(2) 0.7668(4)
H4E H 0.1835 -0.1285 0.8392
C11E C 0.03578(16) 0.1345(2) 0.8287(4)
H5E H 0.0620 0.1559 0.8455
C12E C -0.03886(16) 0.1091(2) 0.7114(4)
H6E H -0.0651 0.1131 0.6471
C13E C 0.14275(15) -0.1776(2) 0.5596(4)
H7E H 0.1322 -0.1905 0.4879
C14E C 0.13909(16) -0.1782(2) 0.7286(4)
H8E H 0.1260 -0.1917 0.7758
C16E C 0.15432(19) 0.3628(3) 0.7982(5)
H10E H 0.1824 0.3784 0.8070
C17E C 0.1325(2) 0.3749(3) 0.8671(5)
C18E C 0.0741(2) 0.3131(3) 0.7665(5)
H11E H 0.0464 0.2962 0.7576
C19E C 0.0922(2) 0.3494(3) 0.8518(6)
H12E H 0.0769 0.3563 0.8984
C21E C 0.3961(2) -0.1363(3) 0.6234(5)
C22E C 0.3215(3) -0.1002(4) 0.5943(7)
H14E H 0.2896 -0.1015 0.5556
C23E C 0.1327(2) 0.3259(3) 0.7138(5)
H15E H 0.1473 0.3184 0.6660
C24E C 0.1538(2) 0.4161(3) 0.9584(5)
C27E C 0.3498(2) -0.1413(3) 0.5681(6)
H18E H 0.3367 -0.1687 0.5174
C28E C 0.4263(2) -0.1749(4) 0.5901(6)
O13E O 0.46817(16) -0.1609(3) 0.6246(5)
C29E C 0.4134(3) -0.0996(4) 0.7065(7)
H19E H 0.4450 -0.0961 0.7467
C30E C 0.3809(3) -0.0669(4) 0.7287(8)
H20E H 0.3920 -0.0474 0.7940
Co1_2 Co 0.0000 0.0000 0.0000
Co2B Co -0.22433(3) -0.5000 -0.06741(7)
Co2B_2 Co -0.22433(3) 0.5000 -0.06741(7)
Co2C Co 0.22433(3) -0.5000 1.06741(7)
Co2C_2 Co 0.22433(3) 0.5000 1.06741(7)
Co4B Co -0.437324(18) 0.25535(3) 0.56307(5)
Co4C Co 0.437324(18) 0.25535(3) 0.43693(5)
Co4F Co 0.437324(18) -0.25535(3) 0.43693(5)
Co4G Co -0.437324(18) -0.25535(3) 0.56307(5)
O1A_2 O -0.07201(14) 0.0000 0.9559(4)
N3A_2 N 0.00212(12) -0.06324(18) 1.1167(3)
N3D_2 N 0.00212(12) 0.06324(18) 1.1167(3)
O7B O -0.09019(12) -0.29020(16) 0.5287(3)
O7C O 0.09019(12) -0.29020(16) 0.4713(3)
O7F O 0.09019(12) 0.29020(16) 0.4713(3)
O7G O -0.09019(12) 0.29020(16) 0.5287(3)
O9B O -0.31361(12) 0.05811(18) -0.0438(3)
O9C O 0.31361(12) 0.05811(18) 1.0438(3)
O9F O 0.31361(12) -0.05811(18) 1.0438(3)
O9G O -0.31361(12) -0.05811(18) -0.0438(3)
loop_
_geom_bond_atom_site_label_1
_geom_bond_atom_site_label_2
_geom_bond_site_symmetry_1
_geom_bond_site_symmetry_2
Co1 O1 1_555 1_555
Co2 O2 1_555 1_555
Co3 O2 1_555 1_555
Co4 O4 1_555 1_555
O1 C1 1_555 1_555
O3 C2 1_555 1_555
O4 Co4A 1_555 1_555
N1 Co4 1_555 1_555
O5 Co4 1_555 1_555
C1 O11 1_555 1_555
N2 C13 1_555 1_555
N3 Co1 1_555 1_555
O6 Co3 1_555 1_555
O7 C28 1_555 1_555
N4 Co2 1_555 1_555
C2 O5 1_555 1_555
O8 Co3 1_555 1_555
O9 C24 1_555 1_555
C3 C5 1_555 1_555
O10 Co2 1_555 1_555
C4 C2 1_555 1_555
N5 Co3 1_555 1_555
O12 C24 1_555 1_555
C5 H1 1_555 1_555
C6 O6 1_555 1_555
C7 C1 1_555 1_555
C8 N3 1_555 1_555
H2 C8 1_555 1_555
C9 N3 1_555 1_555
H3 C9 1_555 1_555
C10 C3 1_555 1_555
H4 C10 1_555 1_555
C11 C4 1_555 1_555
H5 C11 1_555 1_555
C12 C4 1_555 1_555
H6 C12 1_555 1_555
C13 C5 1_555 1_555
H7 C13 1_555 1_555
C14 N2 1_555 1_555
H8 C14 1_555 1_555
C15 C7 1_555 1_555
H9 C15 1_555 1_555
C16 H10 1_555 1_555
C17 C16 1_555 1_555
C18 N1 1_555 1_555
H11 C18 1_555 1_555
C19 C17 1_555 1_555
H12 C19 1_555 1_555
C20 C7 1_555 1_555
H13 C20 1_555 1_555
C21 C27 1_555 1_555
C22 N5 1_555 1_555
H14 C22 1_555 1_555
C23 N1 1_555 1_555
H15 C23 1_555 1_555
C24 C17 1_555 1_555
C25 N4 1_555 1_555
H16 C25 1_555 1_555
C26 N4 1_555 1_555
H17 C26 1_555 1_555
C27 C22 1_555 1_555
H18 C27 1_555 1_555
C28 C21 1_555 1_555
O13 C28 1_555 1_555
C29 C21 1_555 1_555
H19 C29 1_555 1_555
C30 N5 1_555 1_555
H20 C30 1_555 1_555
Co2A O2A 1_555 1_555
Co3A O2A 1_555 1_555
Co4A O3 1_555 1_555
O1A C1A 1_555 1_555
O3A Co4 1_555 1_555
N1A Co4A 1_555 1_555
O5A Co4A 1_555 1_555
C1A O11A 1_555 1_555
N2A C13A 1_555 1_555
N3A C8A 1_555 1_555
O6A Co3A 1_555 1_555
O7A C28A 1_555 1_555
N4A Co2A 1_555 1_555
C2A O3A 1_555 1_555
O8A Co3A 1_555 1_555
O9A C24A 1_555 1_555
C3A C5A 1_555 1_555
O10A Co2A 1_555 1_555
C4A C2A 1_555 1_555
N5A Co3A 1_555 1_555
O12A C24A 1_555 1_555
C5A H1A 1_555 1_555
C6A O6A 1_555 1_555
C7A C1A 1_555 1_555
C8A H2A 1_555 1_555
C9A N3A 1_555 1_555
H3A C9A 1_555 1_555
C10A C3A 1_555 1_555
H4A C10A 1_555 1_555
C11A C4A 1_555 1_555
H5A C11A 1_555 1_555
C12A C4A 1_555 1_555
H6A C12A 1_555 1_555
C13A C5A 1_555 1_555
H7A C13A 1_555 1_555
C14A N2A 1_555 1_555
H8A C14A 1_555 1_555
C15A C7A 1_555 1_555
H9A C15A 1_555 1_555
C16A H10A 1_555 1_555
C17A C16A 1_555 1_555
C18A N1A 1_555 1_555
H11A C18A 1_555 1_555
C19A C17A 1_555 1_555
H12A C19A 1_555 1_555
C20A C7A 1_555 1_555
H13A C20A 1_555 1_555
C21A C27A 1_555 1_555
C22A N5A 1_555 1_555
H14A C22A 1_555 1_555
C23A N1A 1_555 1_555
H15A C23A 1_555 1_555
C24A C17A 1_555 1_555
C25A N4A 1_555 1_555
H16A C25A 1_555 1_555
C26A N4A 1_555 1_555
H17A C26A 1_555 1_555
C27A C22A 1_555 1_555
H18A C27A 1_555 1_555
C28A C21A 1_555 1_555
O13A C28A 1_555 1_555
C29A C21A 1_555 1_555
H19A C29A 1_555 1_555
C30A N5A 1_555 1_555
H20A C30A 1_555 1_555
Co4D N2A 1_555 1_555
O3D C2D 1_555 1_555
O4D Co4D 1_555 1_555
N1D Co4D 1_555 1_555
O5D Co4D 1_555 1_555
N2D Co4A 1_555 1_555
N3D C8D 1_555 1_555
O6D Co3A 1_555 1_555
O7D C28D 1_555 1_555
C2D O5D 1_555 1_555
O9D C24D 1_555 1_555
C3D C5D 1_555 1_555
O10D Co2A 1_555 1_555
C4D C2D 1_555 1_555
N5D Co3A 1_555 1_555
O12D C24D 1_555 1_555
C5D H1D 1_555 1_555
C6D O6D 1_555 1_555
C8D H2D 1_555 1_555
C9D N3D 1_555 1_555
H3D C9D 1_555 1_555
C10D C3D 1_555 1_555
H4D C10D 1_555 1_555
C11D C4D 1_555 1_555
H5D C11D 1_555 1_555
C12D C4D 1_555 1_555
H6D C12D 1_555 1_555
C13D N2D 1_555 1_555
H7D C13D 1_555 1_555
C14D N2D 1_555 1_555
H8D C14D 1_555 1_555
C16D H10D 1_555 1_555
C17D C16D 1_555 1_555
C18D N1D 1_555 1_555
H11D C18D 1_555 1_555
C19D C17D 1_555 1_555
H12D C19D 1_555 1_555
C21D C27D 1_555 1_555
C22D N5D 1_555 1_555
H14D C22D 1_555 1_555
C23D N1D 1_555 1_555
H15D C23D 1_555 1_555
C24D C17D 1_555 1_555
C27D C22D 1_555 1_555
H18D C27D 1_555 1_555
C28D C21D 1_555 1_555
O13D C28D 1_555 1_555
C29D C21D 1_555 1_555
H19D C29D 1_555 1_555
C30D N5D 1_555 1_555
H20D C30D 1_555 1_555
Co4E N2 1_555 1_555
O3E Co4D 1_555 1_555
N1E Co4E 1_555 1_555
O5E Co4E 1_555 1_555
N2E Co4 1_555 1_555
N3E Co1 1_555 1_555
O6E Co3 1_555 1_555
O7E C28E 1_555 1_555
C2E O3E 1_555 1_555
O9E C24E 1_555 1_555
C3E C5E 1_555 1_555
O10E Co2 1_555 1_555
C4E C2E 1_555 1_555
N5E Co3 1_555 1_555
O12E C24E 1_555 1_555
C5E H1E 1_555 1_555
C6E O6E 1_555 1_555
C8E N3E 1_555 1_555
H2E C8E 1_555 1_555
C9E N3E 1_555 1_555
H3E C9E 1_555 1_555
C10E C3E 1_555 1_555
H4E C10E 1_555 1_555
C11E C4E 1_555 1_555
H5E C11E 1_555 1_555
C12E C4E 1_555 1_555
H6E C12E 1_555 1_555
C13E N2E 1_555 1_555
H7E C13E 1_555 1_555
C14E N2E 1_555 1_555
H8E C14E 1_555 1_555
C16E H10E 1_555 1_555
C17E C16E 1_555 1_555
C18E N1E 1_555 1_555
H11E C18E 1_555 1_555
C19E C17E 1_555 1_555
H12E C19E 1_555 1_555
C21E C27E 1_555 1_555
C22E N5E 1_555 1_555
H14E C22E 1_555 1_555
C23E N1E 1_555 1_555
H15E C23E 1_555 1_555
C24E C17E 1_555 1_555
C27E C22E 1_555 1_555
H18E C27E 1_555 1_555
C28E C21E 1_555 1_555
O13E C28E 1_555 1_555
C29E C21E 1_555 1_555
H19E C29E 1_555 1_555
C30E N5E 1_555 1_555
H20E C30E 1_555 1_555
Co1_2 O1A 1_555 1_555
Co2B O9A 1_555 1_555
Co2B_2 O9D 1_555 1_555
Co2C O9 1_555 1_555
Co2C_2 O9E 1_555 1_555
Co4B O7A 1_555 1_555
Co4C O7 1_555 1_555
Co4F O7E 1_555 1_555
Co4G O7D 1_555 1_555
O1A_2 Co1 1_555 1_555
N3A_2 Co1 1_555 1_555
N3D_2 Co1 1_555 1_555
O7B Co4A 1_555 1_555
O7C Co4 1_555 1_555
O7F Co4E 1_555 1_555
O7G Co4D 1_555 1_555
O9B Co2A 1_555 1_555
O9C Co2 1_555 1_555
O9F Co2 1_555 1_555
O9G Co2A 1_555 1_555
C3 C6 1_555 1_555
O10 C6 1_555 1_555
C8 C11 1_555 1_555
C9 C12 1_555 1_555
C10 C14 1_555 1_555
C15 C26 1_555 1_555
C16 C23 1_555 1_555
C18 C19 1_555 1_555
C20 C25 1_555 1_555
C29 C30 1_555 1_555
O5A C2A 1_555 1_555
N3A Co1_2 1_555 1_555
C3A C6A 1_555 1_555
O10A C6A 1_555 1_555
C8A C11A 1_555 1_555
C9A C12A 1_555 1_555
C10A C14A 1_555 1_555
C15A C26A 1_555 1_555
C16A C23A 1_555 1_555
C18A C19A 1_555 1_555
C20A C25A 1_555 1_555
C29A C30A 1_555 1_555
O3D Co4E 1_555 1_555
O4D Co4E 1_555 1_555
N3D Co1_2 1_555 1_555
C3D C6D 1_555 1_555
O10D C6D 1_555 1_555
C5D C13D 1_555 1_555
C8D C11D 1_555 1_555
C9D C12D 1_555 1_555
C10D C14D 1_555 1_555
C16D C23D 1_555 1_555
C18D C19D 1_555 1_555
C29D C30D 1_555 1_555
O5E C2E 1_555 1_555
C3E C6E 1_555 1_555
O10E C6E 1_555 1_555
C5E C13E 1_555 1_555
C8E C11E 1_555 1_555
C9E C12E 1_555 1_555
C10E C14E 1_555 1_555
C16E C23E 1_555 1_555
C18E C19E 1_555 1_555
C29E C30E 1_555 1_555

#END
