
#######################################################################
#
#                 Cambridge Crystallographic Data Centre
#                                CCDC 
#
#######################################################################
#
# If this CIF has been generated from an entry in the Cambridge 
# Structural Database, then it will include bibliographic, chemical, 
# crystal, experimental, refinement or atomic coordinate data resulting 
# from the CCDC's data processing and validation procedures.
#
#######################################################################

data_ISENIF
_chemical_formula_moiety         'C66 H26 Cl24 O28 Zr12'
_symmetry_cell_setting           cubic
_symmetry_space_group_name_H-M   'F m -3 m'
_symmetry_Int_Tables_number      225
_space_group_name_Hall           '-F 4 2 3'
loop_
_symmetry_equiv_pos_site_id
_symmetry_equiv_pos_as_xyz
1 x,y,z
2 -x,-y,z
3 -x,y,-z
4 x,-y,-z
5 z,x,y
6 z,-x,-y
7 -z,-x,y
8 -z,x,-y
9 y,z,x
10 -y,z,-x
11 y,-z,-x
12 -y,-z,x
13 y,x,-z
14 -y,-x,-z
15 y,-x,z
16 -y,x,z
17 x,z,-y
18 -x,z,y
19 -x,-z,-y
20 x,-z,y
21 z,y,-x
22 z,-y,x
23 -z,y,x
24 -z,-y,-x
25 x,1/2+y,1/2+z
26 -x,1/2-y,1/2+z
27 -x,1/2+y,1/2-z
28 x,1/2-y,1/2-z
29 z,1/2+x,1/2+y
30 z,1/2-x,1/2-y
31 -z,1/2-x,1/2+y
32 -z,1/2+x,1/2-y
33 y,1/2+z,1/2+x
34 -y,1/2+z,1/2-x
35 y,1/2-z,1/2-x
36 -y,1/2-z,1/2+x
37 y,1/2+x,1/2-z
38 -y,1/2-x,1/2-z
39 y,1/2-x,1/2+z
40 -y,1/2+x,1/2+z
41 x,1/2+z,1/2-y
42 -x,1/2+z,1/2+y
43 -x,1/2-z,1/2-y
44 x,1/2-z,1/2+y
45 z,1/2+y,1/2-x
46 z,1/2-y,1/2+x
47 -z,1/2+y,1/2+x
48 -z,1/2-y,1/2-x
49 1/2+x,y,1/2+z
50 1/2-x,-y,1/2+z
51 1/2-x,y,1/2-z
52 1/2+x,-y,1/2-z
53 1/2+z,x,1/2+y
54 1/2+z,-x,1/2-y
55 1/2-z,-x,1/2+y
56 1/2-z,x,1/2-y
57 1/2+y,z,1/2+x
58 1/2-y,z,1/2-x
59 1/2+y,-z,1/2-x
60 1/2-y,-z,1/2+x
61 1/2+y,x,1/2-z
62 1/2-y,-x,1/2-z
63 1/2+y,-x,1/2+z
64 1/2-y,x,1/2+z
65 1/2+x,z,1/2-y
66 1/2-x,z,1/2+y
67 1/2-x,-z,1/2-y
68 1/2+x,-z,1/2+y
69 1/2+z,y,1/2-x
70 1/2+z,-y,1/2+x
71 1/2-z,y,1/2+x
72 1/2-z,-y,1/2-x
73 1/2+x,1/2+y,z
74 1/2-x,1/2-y,z
75 1/2-x,1/2+y,-z
76 1/2+x,1/2-y,-z
77 1/2+z,1/2+x,y
78 1/2+z,1/2-x,-y
79 1/2-z,1/2-x,y
80 1/2-z,1/2+x,-y
81 1/2+y,1/2+z,x
82 1/2-y,1/2+z,-x
83 1/2+y,1/2-z,-x
84 1/2-y,1/2-z,x
85 1/2+y,1/2+x,-z
86 1/2-y,1/2-x,-z
87 1/2+y,1/2-x,z
88 1/2-y,1/2+x,z
89 1/2+x,1/2+z,-y
90 1/2-x,1/2+z,y
91 1/2-x,1/2-z,-y
92 1/2+x,1/2-z,y
93 1/2+z,1/2+y,-x
94 1/2+z,1/2-y,x
95 1/2-z,1/2+y,x
96 1/2-z,1/2-y,-x
97 -x,-y,-z
98 x,y,-z
99 x,-y,z
100 -x,y,z
101 -z,-x,-y
102 -z,x,y
103 z,x,-y
104 z,-x,y
105 -y,-z,-x
106 y,-z,x
107 -y,z,x
108 y,z,-x
109 -y,-x,z
110 y,x,z
111 -y,x,-z
112 y,-x,-z
113 -x,-z,y
114 x,-z,-y
115 x,z,y
116 -x,z,-y
117 -z,-y,x
118 -z,y,-x
119 z,-y,-x
120 z,y,x
121 -x,1/2-y,1/2-z
122 x,1/2+y,1/2-z
123 x,1/2-y,1/2+z
124 -x,1/2+y,1/2+z
125 -z,1/2-x,1/2-y
126 -z,1/2+x,1/2+y
127 z,1/2+x,1/2-y
128 z,1/2-x,1/2+y
129 -y,1/2-z,1/2-x
130 y,1/2-z,1/2+x
131 -y,1/2+z,1/2+x
132 y,1/2+z,1/2-x
133 -y,1/2-x,1/2+z
134 y,1/2+x,1/2+z
135 -y,1/2+x,1/2-z
136 y,1/2-x,1/2-z
137 -x,1/2-z,1/2+y
138 x,1/2-z,1/2-y
139 x,1/2+z,1/2+y
140 -x,1/2+z,1/2-y
141 -z,1/2-y,1/2+x
142 -z,1/2+y,1/2-x
143 z,1/2-y,1/2-x
144 z,1/2+y,1/2+x
145 1/2-x,-y,1/2-z
146 1/2+x,y,1/2-z
147 1/2+x,-y,1/2+z
148 1/2-x,y,1/2+z
149 1/2-z,-x,1/2-y
150 1/2-z,x,1/2+y
151 1/2+z,x,1/2-y
152 1/2+z,-x,1/2+y
153 1/2-y,-z,1/2-x
154 1/2+y,-z,1/2+x
155 1/2-y,z,1/2+x
156 1/2+y,z,1/2-x
157 1/2-y,-x,1/2+z
158 1/2+y,x,1/2+z
159 1/2-y,x,1/2-z
160 1/2+y,-x,1/2-z
161 1/2-x,-z,1/2+y
162 1/2+x,-z,1/2-y
163 1/2+x,z,1/2+y
164 1/2-x,z,1/2-y
165 1/2-z,-y,1/2+x
166 1/2-z,y,1/2-x
167 1/2+z,-y,1/2-x
168 1/2+z,y,1/2+x
169 1/2-x,1/2-y,-z
170 1/2+x,1/2+y,-z
171 1/2+x,1/2-y,z
172 1/2-x,1/2+y,z
173 1/2-z,1/2-x,-y
174 1/2-z,1/2+x,y
175 1/2+z,1/2+x,-y
176 1/2+z,1/2-x,y
177 1/2-y,1/2-z,-x
178 1/2+y,1/2-z,x
179 1/2-y,1/2+z,x
180 1/2+y,1/2+z,-x
181 1/2-y,1/2-x,z
182 1/2+y,1/2+x,z
183 1/2-y,1/2+x,-z
184 1/2+y,1/2-x,-z
185 1/2-x,1/2-z,y
186 1/2+x,1/2-z,-y
187 1/2+x,1/2+z,y
188 1/2-x,1/2+z,-y
189 1/2-z,1/2-y,x
190 1/2-z,1/2+y,-x
191 1/2+z,1/2-y,-x
192 1/2+z,1/2+y,x
_cell_length_a                   26.7863(16)
_cell_length_b                   26.7863(16)
_cell_length_c                   26.7863(16)
_cell_angle_alpha                90
_cell_angle_beta                 90
_cell_angle_gamma                90
_cell_volume                     19219.3
loop_
_atom_site_label
_atom_site_type_symbol
_atom_site_fract_x
_atom_site_fract_y
_atom_site_fract_z
O3 O 0.3880(4) 0.3880(4) 0.3880(4)
Zr1 Zr 0.40789(3) 0.5000 0.5000
O1 O 0.4604(2) 0.5396(2) 0.5396(2)
O2 O 0.36723(13) 0.42798(14) 0.5000
C1 C 0.38255(17) 0.38255(17) 0.5000
C2 C 0.34378(19) 0.34378(19) 0.5000
C3 C 0.2699(2) 0.2699(2) 0.5000
C4 C 0.2940(6) 0.3554(4) 0.4922(3)
C5 C 0.2558(6) 0.3204(5) 0.4919(3)
H1 H 0.2220 0.3297 0.4865
Cl1 Cl 0.2761(6) 0.4180(4) 0.4819(6)
O2L O 0.42798(14) 0.36723(13) 0.5000
C4L C 0.3554(4) 0.2940(6) 0.5078(3)
C5L C 0.3204(5) 0.2558(6) 0.5081(3)
H1L H 0.3297 0.2220 0.5135
Cl1L Cl 0.4180(4) 0.2761(6) 0.5181(6)
O2UB O 0.13277(13) 0.07202(14) 0.5000
C1UB C 0.11745(17) 0.11745(17) 0.5000
C2UB C 0.15622(19) 0.15622(19) 0.5000
C3UB C 0.2301(2) 0.2301(2) 0.5000
C4UB C 0.2060(6) 0.1446(4) 0.4922(3)
C5UB C 0.2442(6) 0.1796(5) 0.4919(3)
H1UB H 0.2780 0.1703 0.4865
Cl1UB Cl 0.2239(6) 0.0820(4) 0.4819(6)
O2GC O 0.07202(14) 0.13277(13) 0.5000
C4GC C 0.1446(4) 0.2060(6) 0.5078(3)
C5GC C 0.1796(5) 0.2442(6) 0.5081(3)
H1GC H 0.1703 0.2780 0.5135
Cl1GC Cl 0.0820(4) 0.2239(6) 0.5181(6)
C4SC C 0.2940(6) 0.3554(4) 0.5078(3)
C5SC C 0.2558(6) 0.3204(5) 0.5081(3)
H1SC H 0.2220 0.3297 0.5135
Cl1SC Cl 0.2761(6) 0.4180(4) 0.5181(6)
C4ED C 0.3554(4) 0.2940(6) 0.4922(3)
C5ED C 0.3204(5) 0.2558(6) 0.4919(3)
H1ED H 0.3297 0.2220 0.4865
Cl1ED Cl 0.4180(4) 0.2761(6) 0.4819(6)
C4LF C 0.2060(6) 0.1446(4) 0.5078(3)
C5LF C 0.2442(6) 0.1796(5) 0.5081(3)
H1LF H 0.2780 0.1703 0.5135
Cl1LF Cl 0.2239(6) 0.0820(4) 0.5181(6)
C4XF C 0.1446(4) 0.2060(6) 0.4922(3)
C5XF C 0.1796(5) 0.2442(6) 0.4919(3)
H1XF H 0.1703 0.2780 0.4865
Cl1XF Cl 0.0820(4) 0.2239(6) 0.4819(6)
O1C O 0.4604(2) 0.4604(2) 0.4604(2)
O2C O 0.36723(13) 0.57202(14) 0.5000
C1C C 0.38255(17) 0.61745(17) 0.5000
C2C C 0.34378(19) 0.65622(19) 0.5000
C3C C 0.2699(2) 0.7301(2) 0.5000
C4C C 0.2940(6) 0.6446(4) 0.5078(3)
C5C C 0.2558(6) 0.6796(5) 0.5081(3)
H1C H 0.2220 0.6703 0.5135
Cl1C Cl 0.2761(6) 0.5820(4) 0.5181(6)
O2N O 0.42798(14) 0.63277(13) 0.5000
C4N C 0.3554(4) 0.7060(6) 0.4922(3)
C5N C 0.3204(5) 0.7442(6) 0.4919(3)
H1N H 0.3297 0.7780 0.4865
Cl1N Cl 0.4180(4) 0.7239(6) 0.4819(6)
O2VB O 0.13277(13) 0.92798(14) 0.5000
C1VB C 0.11745(17) 0.88255(17) 0.5000
C2VB C 0.15622(19) 0.84378(19) 0.5000
C3VB C 0.2301(2) 0.7699(2) 0.5000
C4VB C 0.2060(6) 0.8554(4) 0.5078(3)
C5VB C 0.2442(6) 0.8204(5) 0.5081(3)
H1VB H 0.2780 0.8297 0.5135
Cl1VB Cl 0.2239(6) 0.9180(4) 0.5181(6)
O2IC O 0.07202(14) 0.86723(13) 0.5000
C4IC C 0.1446(4) 0.7940(6) 0.4922(3)
C5IC C 0.1796(5) 0.7558(6) 0.4919(3)
H1IC H 0.1703 0.7220 0.4865
Cl1IC Cl 0.0820(4) 0.7761(6) 0.4819(6)
C4TC C 0.2940(6) 0.6446(4) 0.4922(3)
C5TC C 0.2558(6) 0.6796(5) 0.4919(3)
H1TC H 0.2220 0.6703 0.4865
Cl1TC Cl 0.2761(6) 0.5820(4) 0.4819(6)
C4GD C 0.3554(4) 0.7060(6) 0.5078(3)
C5GD C 0.3204(5) 0.7442(6) 0.5081(3)
H1GD H 0.3297 0.7780 0.5135
Cl1GD Cl 0.4180(4) 0.7239(6) 0.5181(6)
C4OF C 0.2060(6) 0.8554(4) 0.4922(3)
C5OF C 0.2442(6) 0.8204(5) 0.4919(3)
H1OF H 0.2780 0.8297 0.4865
Cl1OF Cl 0.2239(6) 0.9180(4) 0.4819(6)
C4ZF C 0.1446(4) 0.7940(6) 0.5078(3)
C5ZF C 0.1796(5) 0.7558(6) 0.5081(3)
H1ZF H 0.1703 0.7220 0.5135
Cl1ZF Cl 0.0820(4) 0.7761(6) 0.5181(6)
Zr1D Zr 0.5000 0.40789(3) 0.5000
O1A O 0.5396(2) 0.4604(2) 0.5396(2)
O2D O 0.5000 0.36723(13) 0.42798(14)
C1D C 0.5000 0.38255(17) 0.38255(17)
C2D C 0.5000 0.34378(19) 0.34378(19)
C3D C 0.5000 0.2699(2) 0.2699(2)
C4D C 0.4922(3) 0.2940(6) 0.3554(4)
C5D C 0.4919(3) 0.2558(6) 0.3204(5)
H1D H 0.4865 0.2220 0.3297
Cl1D Cl 0.4819(6) 0.2761(6) 0.4180(4)
O2V O 0.5000 0.42798(14) 0.36723(13)
C4V C 0.5078(3) 0.3554(4) 0.2940(6)
C5V C 0.5081(3) 0.3204(5) 0.2558(6)
H1V H 0.5135 0.3297 0.2220
Cl1V Cl 0.5181(6) 0.4180(4) 0.2761(6)
O2CA O 0.5000 0.13277(13) 0.07202(14)
C1CA C 0.5000 0.11745(17) 0.11745(17)
C2CA C 0.5000 0.15622(19) 0.15622(19)
C3CA C 0.5000 0.2301(2) 0.2301(2)
C4CA C 0.4922(3) 0.2060(6) 0.1446(4)
C5CA C 0.4919(3) 0.2442(6) 0.1796(5)
H1CA H 0.4865 0.2780 0.1703
Cl1CA Cl 0.4819(6) 0.2239(6) 0.0820(4)
O2UA O 0.5000 0.07202(14) 0.13277(13)
C4UA C 0.5078(3) 0.1446(4) 0.2060(6)
C5UA C 0.5081(3) 0.1796(5) 0.2442(6)
H1UA H 0.5135 0.1703 0.2780
Cl1UA Cl 0.5181(6) 0.0820(4) 0.2239(6)
C4WC C 0.5078(3) 0.2940(6) 0.3554(4)
C5WC C 0.5081(3) 0.2558(6) 0.3204(5)
H1WC H 0.5135 0.2220 0.3297
Cl1WC Cl 0.5181(6) 0.2761(6) 0.4180(4)
C4OD C 0.4922(3) 0.3554(4) 0.2940(6)
C5OD C 0.4919(3) 0.3204(5) 0.2558(6)
H1OD H 0.4865 0.3297 0.2220
Cl1OD Cl 0.4819(6) 0.4180(4) 0.2761(6)
C4TD C 0.5078(3) 0.2060(6) 0.1446(4)
C5TD C 0.5081(3) 0.2442(6) 0.1796(5)
H1TD H 0.5135 0.2780 0.1703
Cl1TD Cl 0.5181(6) 0.2239(6) 0.0820(4)
C4LE C 0.4922(3) 0.1446(4) 0.2060(6)
C5LE C 0.4919(3) 0.1796(5) 0.2442(6)
H1LE H 0.4865 0.1703 0.2780
Cl1LE Cl 0.4819(6) 0.0820(4) 0.2239(6)
Zr1E Zr 0.5000 0.59211(3) 0.5000
O1B O 0.5396(2) 0.5396(2) 0.4604(2)
Zr1A Zr 0.59211(3) 0.5000 0.5000
Zr1H Zr 0.5000 0.5000 0.40789(3)
Zr1I Zr 0.5000 0.5000 0.59211(3)
Zr1CA Zr 0.5000 0.09211(3) 0.0000
Zr1GA Zr 0.5000 0.0000 0.09211(3)
Zr1UB Zr 0.09211(3) 0.0000 0.5000
Zr1UB_2 Zr 0.09211(3) 1.0000 0.5000
Zr1XB Zr 0.0000 0.90789(3) 0.5000
Zr1YB Zr -0.0000 0.09211(3) 0.5000
O1L O 0.5396(2) 0.4604(2) 0.4604(2)
O1M O 0.4604(2) 0.5396(2) 0.4604(2)
O1N O 0.5396(2) 0.5396(2) 0.5396(2)
O1O O 0.4604(2) 0.4604(2) 0.5396(2)
O2E O 0.5000 0.63277(13) 0.57202(14)
O2F O 0.5000 0.63277(13) 0.42798(14)
O2G O 0.5000 0.36723(13) 0.57202(14)
O2M O 0.57202(14) 0.63277(13) 0.5000
O2O O 0.57202(14) 0.36723(13) 0.5000
O2P O 0.36723(13) 0.5000 0.57202(14)
O2S O 0.36723(13) 0.5000 0.42798(14)
loop_
_geom_bond_atom_site_label_1
_geom_bond_atom_site_label_2
_geom_bond_site_symmetry_1
_geom_bond_site_symmetry_2
Zr1 O1 1_555 1_555
O1 Zr1E 1_555 1_555
O2 Zr1 1_555 1_555
C1 O2 1_555 1_555
C2 C1 1_555 1_555
C3 C5 1_555 1_555
C4 C2 1_555 1_555
C5 C4 1_555 1_555
H1 C5 1_555 1_555
Cl1 C4 1_555 1_555
O2L C1 1_555 1_555
C4L C2 1_555 1_555
C5L C3 1_555 1_555
H1L C5L 1_555 1_555
Cl1L C4L 1_555 1_555
O2UB C1UB 1_555 1_555
C1UB C2UB 1_555 1_555
C2UB C4UB 1_555 1_555
C3UB C3 1_555 1_555
C4UB C5UB 1_555 1_555
C5UB C3UB 1_555 1_555
H1UB C5UB 1_555 1_555
Cl1UB C4UB 1_555 1_555
O2GC C1UB 1_555 1_555
C4GC C2UB 1_555 1_555
C5GC C3UB 1_555 1_555
H1GC C5GC 1_555 1_555
Cl1GC C4GC 1_555 1_555
C4SC C2 1_555 1_555
C5SC C3 1_555 1_555
H1SC C5SC 1_555 1_555
Cl1SC C4SC 1_555 1_555
C4ED C2 1_555 1_555
C5ED C3 1_555 1_555
H1ED C5ED 1_555 1_555
Cl1ED C4ED 1_555 1_555
C4LF C2UB 1_555 1_555
C5LF C3UB 1_555 1_555
H1LF C5LF 1_555 1_555
Cl1LF C4LF 1_555 1_555
C4XF C2UB 1_555 1_555
C5XF C3UB 1_555 1_555
H1XF C5XF 1_555 1_555
Cl1XF C4XF 1_555 1_555
O1C Zr1 1_555 1_555
O2C Zr1 1_555 1_555
C1C O2C 1_555 1_555
C2C C1C 1_555 1_555
C3C C5C 1_555 1_555
C4C C2C 1_555 1_555
C5C C4C 1_555 1_555
H1C C5C 1_555 1_555
Cl1C C4C 1_555 1_555
O2N C1C 1_555 1_555
C4N C2C 1_555 1_555
C5N C3C 1_555 1_555
H1N C5N 1_555 1_555
Cl1N C4N 1_555 1_555
O2VB C1VB 1_555 1_555
C1VB C2VB 1_555 1_555
C2VB C4VB 1_555 1_555
C3VB C3C 1_555 1_555
C4VB C5VB 1_555 1_555
C5VB C3VB 1_555 1_555
H1VB C5VB 1_555 1_555
Cl1VB C4VB 1_555 1_555
O2IC C1VB 1_555 1_555
C4IC C2VB 1_555 1_555
C5IC C3VB 1_555 1_555
H1IC C5IC 1_555 1_555
Cl1IC C4IC 1_555 1_555
C4TC C2C 1_555 1_555
C5TC C3C 1_555 1_555
H1TC C5TC 1_555 1_555
Cl1TC C4TC 1_555 1_555
C4GD C2C 1_555 1_555
C5GD C3C 1_555 1_555
H1GD C5GD 1_555 1_555
Cl1GD C4GD 1_555 1_555
C4OF C2VB 1_555 1_555
C5OF C3VB 1_555 1_555
H1OF C5OF 1_555 1_555
Cl1OF C4OF 1_555 1_555
C4ZF C2VB 1_555 1_555
C5ZF C3VB 1_555 1_555
H1ZF C5ZF 1_555 1_555
Cl1ZF C4ZF 1_555 1_555
Zr1D O2L 1_555 1_555
O1A Zr1D 1_555 1_555
O2D Zr1D 1_555 1_555
C1D O2D 1_555 1_555
C2D C1D 1_555 1_555
C3D C5D 1_555 1_555
C4D C2D 1_555 1_555
C5D C4D 1_555 1_555
H1D C5D 1_555 1_555
Cl1D C4D 1_555 1_555
O2V C1D 1_555 1_555
C4V C2D 1_555 1_555
C5V C3D 1_555 1_555
H1V C5V 1_555 1_555
Cl1V C4V 1_555 1_555
O2CA C1CA 1_555 1_555
C1CA C2CA 1_555 1_555
C2CA C4CA 1_555 1_555
C3CA C3D 1_555 1_555
C4CA C5CA 1_555 1_555
C5CA C3CA 1_555 1_555
H1CA C5CA 1_555 1_555
Cl1CA C4CA 1_555 1_555
O2UA C1CA 1_555 1_555
C4UA C2CA 1_555 1_555
C5UA C3CA 1_555 1_555
H1UA C5UA 1_555 1_555
Cl1UA C4UA 1_555 1_555
C4WC C2D 1_555 1_555
C5WC C3D 1_555 1_555
H1WC C5WC 1_555 1_555
Cl1WC C4WC 1_555 1_555
C4OD C2D 1_555 1_555
C5OD C3D 1_555 1_555
H1OD C5OD 1_555 1_555
Cl1OD C4OD 1_555 1_555
C4TD C2CA 1_555 1_555
C5TD C3CA 1_555 1_555
H1TD C5TD 1_555 1_555
Cl1TD C4TD 1_555 1_555
C4LE C2CA 1_555 1_555
C5LE C3CA 1_555 1_555
H1LE C5LE 1_555 1_555
Cl1LE C4LE 1_555 1_555
Zr1E O2N 1_555 1_555
O1B Zr1E 1_555 1_555
Zr1A O1A 1_555 1_555
Zr1H O1C 1_555 1_555
Zr1I O1 1_555 1_555
Zr1CA O2CA 1_555 1_555
Zr1GA O2UA 1_555 1_555
Zr1UB O2UB 1_555 1_555
Zr1UB_2 O2VB 1_555 1_555
Zr1XB O2IC 1_555 1_555
Zr1YB O2GC 1_555 1_555
O1L Zr1D 1_555 1_555
O1M Zr1 1_555 1_555
O1N Zr1E 1_555 1_555
O1O Zr1 1_555 1_555
O2E Zr1E 1_555 1_555
O2F Zr1E 1_555 1_555
O2G Zr1D 1_555 1_555
O2M Zr1E 1_555 1_555
O2O Zr1D 1_555 1_555
O2P Zr1 1_555 1_555
O2S Zr1 1_555 1_555
C4 C5SC 1_555 1_555
C5 C4SC 1_555 1_555
C4L C5L 1_555 1_555
C4L C5ED 1_555 1_555
C5L C4ED 1_555 1_555
C4UB C5LF 1_555 1_555
C5UB C4LF 1_555 1_555
C4GC C5GC 1_555 1_555
C4GC C5XF 1_555 1_555
C5GC C4XF 1_555 1_555
C4SC C5SC 1_555 1_555
C4ED C5ED 1_555 1_555
C4LF C5LF 1_555 1_555
C4XF C5XF 1_555 1_555
O1C Zr1D 1_555 1_555
C4C C5TC 1_555 1_555
C5C C4TC 1_555 1_555
C4N C5N 1_555 1_555
C4N C5GD 1_555 1_555
C5N C4GD 1_555 1_555
C4VB C5OF 1_555 1_555
C5VB C4OF 1_555 1_555
C4IC C5IC 1_555 1_555
C4IC C5ZF 1_555 1_555
C5IC C4ZF 1_555 1_555
C4TC C5TC 1_555 1_555
C4GD C5GD 1_555 1_555
C4OF C5OF 1_555 1_555
C4ZF C5ZF 1_555 1_555
Zr1D O1O 1_555 1_555
O1A Zr1I 1_555 1_555
C4D C5WC 1_555 1_555
C5D C4WC 1_555 1_555
O2V Zr1H 1_555 1_555
C4V C5V 1_555 1_555
C4V C5OD 1_555 1_555
C5V C4OD 1_555 1_555
C4CA C5TD 1_555 1_555
C5CA C4TD 1_555 1_555
C4UA C5UA 1_555 1_555
C4UA C5LE 1_555 1_555
C5UA C4LE 1_555 1_555
C4WC C5WC 1_555 1_555
C4OD C5OD 1_555 1_555
C4TD C5TD 1_555 1_555
C4LE C5LE 1_555 1_555
Zr1E O1M 1_555 1_555
O1B Zr1A 1_555 1_555
O1B Zr1H 1_555 1_555
Zr1A O1L 1_555 1_555
Zr1A O1N 1_555 1_555
Zr1H O1L 1_555 1_555
Zr1H O1M 1_555 1_555
Zr1I O1N 1_555 1_555
Zr1I O1O 1_555 1_555

#END
