
#######################################################################
#
#                 Cambridge Crystallographic Data Centre
#                                CCDC 
#
#######################################################################
#
# If this CIF has been generated from an entry in the Cambridge 
# Structural Database, then it will include bibliographic, chemical, 
# crystal, experimental, refinement or atomic coordinate data resulting 
# from the CCDC's data processing and validation procedures.
#
#######################################################################

data_FAKZUP
_chemical_formula_moiety         '(C52 H56 Mo2 N8 Ni2 O8)n'
_symmetry_cell_setting           triclinic
_symmetry_space_group_name_H-M   'P -1'
_symmetry_Int_Tables_number      2
_space_group_name_Hall           '-P 1'
loop_
_symmetry_equiv_pos_site_id
_symmetry_equiv_pos_as_xyz
1 x,y,z
2 -x,-y,-z
_cell_length_a                   12.673(2)
_cell_length_b                   12.7426(19)
_cell_length_c                   13.598(2)
_cell_angle_alpha                115.976(2)
_cell_angle_beta                 105.206(3)
_cell_angle_gamma                102.326(3)
_cell_volume                     1763.22
loop_
_atom_site_label
_atom_site_type_symbol
_atom_site_fract_x
_atom_site_fract_y
_atom_site_fract_z
Ni1 Ni 0.5000 0.5000 1.0000
Ni2 Ni 0.5000 1.0000 1.0000
Mo1 Mo 0.62325(4) 0.85922(4) 1.17650(4)
C1 C 0.4623(5) 0.5710(5) 0.8131(5)
H1 H 0.5335 0.6368 0.8713
C2 C 0.4132(6) 0.5666(5) 0.7098(5)
H2 H 0.4508 0.6298 0.6995
C3 C 0.3080(6) 0.4702(6) 0.6186(4)
C4 C 0.2569(5) 0.3792(6) 0.6393(5)
H3 H 0.1876 0.3106 0.5807
C5 C 0.3114(5) 0.3916(5) 0.7506(4)
H4 H 0.2744 0.3317 0.7648
C6 C 0.2533(6) 0.4597(7) 0.5002(5)
H5 H 0.2632 0.5433 0.5139
H6 H 0.1692 0.4102 0.4639
C7 C 0.3080(6) 0.3986(6) 0.4142(5)
H7 H 0.3934 0.4391 0.4551
H8 H 0.2837 0.4113 0.3478
C8 C 0.2715(6) 0.2587(6) 0.3667(6)
H9 H 0.2963 0.2465 0.4334
H10 H 0.1860 0.2189 0.3269
C9 C 0.3240(6) 0.1946(6) 0.2794(6)
C10 C 0.4241(7) 0.1698(6) 0.3151(6)
H11 H 0.4590 0.1900 0.3936
C11 C 0.4718(6) 0.1160(5) 0.2362(5)
H12 H 0.5393 0.1009 0.2624
C12 C 0.3297(5) 0.1087(5) 0.0896(5)
H13 H 0.2960 0.0872 0.0105
C13 C 0.2784(6) 0.1623(6) 0.1627(6)
H14 H 0.2118 0.1774 0.1338
C14 C 0.3514(6) 0.5945(5) 1.1348(5)
H15 H 0.4195 0.6673 1.1787
C15 C 0.2563(6) 0.5962(6) 1.1681(6)
H16 H 0.2615 0.6697 1.2318
C16 C 0.1562(5) 0.4912(6) 1.1083(5)
C17 C 0.1545(5) 0.3858(6) 1.0150(5)
H17 H 0.0883 0.3110 0.9712
C18 C 0.2506(5) 0.3920(5) 0.9876(5)
H18 H 0.2470 0.3190 0.9246
C19 C 0.0508(5) 0.4915(7) 1.1436(6)
H19 H 0.0346 0.5660 1.1544
H20 H -0.0187 0.4179 1.0798
C20 C 0.0753(5) 0.4903(6) 1.2567(5)
H21 H 0.1494 0.5588 1.3181
H22 H 0.0836 0.4117 1.2432
C21 C -0.0243(5) 0.5042(5) 1.3011(5)
H23 H 0.0051 0.5288 1.3845
H24 H -0.0452 0.5713 1.2963
C22 C -0.3160(5) 0.2455(5) 1.0645(5)
H25 H -0.3710 0.2273 0.9929
C23 C -0.2171(5) 0.3534(6) 1.1261(6)
H26 H -0.2072 0.4055 1.0954
C24 C -0.1333(5) 0.3858(5) 1.2311(5)
C25 C -0.1555(6) 0.3019(6) 1.2692(5)
H27 H -0.1002 0.3170 1.3391
C26 C -0.2560(6) 0.1992(5) 1.2061(5)
H28 H -0.2693 0.1484 1.2377
N1 N 0.3493(4) 0.4936(4) 1.0432(4)
N2 N -0.3387(4) 0.1645(4) 1.1007(4)
N3 N 0.4123(4) 0.4839(4) 0.8358(4)
N4 N 0.4246(4) 0.0846(4) 0.1229(4)
O1 O 0.6167(11) 0.9189(14) 1.3087(12)
O2 O 0.7710(13) 0.9152(15) 1.2473(11)
O3 O 0.5710(3) 0.9284(3) 1.0988(3)
O4 O 0.5590(3) 0.6940(3) 1.0850(3)
C14A C -0.3514(6) 0.4055(5) 0.8652(5)
H15A H -0.4195 0.3327 0.8213
C15A C -0.2563(6) 0.4038(6) 0.8319(6)
H16A H -0.2615 0.3303 0.7682
C16A C -0.1562(5) 0.5088(6) 0.8917(5)
C17A C -0.1545(5) 0.6142(6) 0.9850(5)
H17A H -0.0883 0.6890 1.0288
C18A C -0.2506(5) 0.6080(5) 1.0124(5)
H18A H -0.2470 0.6810 1.0754
C19A C -0.0508(5) 0.5085(7) 0.8564(6)
H19A H -0.0346 0.4340 0.8456
H20A H 0.0187 0.5821 0.9202
C20A C -0.0753(5) 0.5097(6) 0.7433(5)
H21A H -0.1494 0.4412 0.6819
H22A H -0.0836 0.5883 0.7568
C21A C 0.0243(5) 0.4958(5) 0.6989(5)
H23A H -0.0051 0.4712 0.6155
H24A H 0.0452 0.4287 0.7037
C22A C 0.3160(5) 0.7545(5) 0.9355(5)
H25A H 0.3710 0.7727 1.0071
C23A C 0.2171(5) 0.6466(6) 0.8739(6)
H26A H 0.2072 0.5945 0.9046
C24A C 0.1333(5) 0.6142(5) 0.7689(5)
C25A C 0.1555(6) 0.6981(6) 0.7308(5)
H27A H 0.1002 0.6830 0.6609
C26A C 0.2560(6) 0.8008(5) 0.7939(5)
H28A H 0.2693 0.8516 0.7623
N1A N -0.3493(4) 0.5064(4) 0.9568(4)
N2A N 0.3387(4) 0.8355(4) 0.8993(4)
C1A C 0.5377(5) 0.4290(5) 1.1869(5)
H1A H 0.4665 0.3632 1.1287
C2A C 0.5868(6) 0.4334(5) 1.2902(5)
H2A H 0.5492 0.3702 1.3005
C3A C 0.6920(6) 0.5298(6) 1.3814(4)
C4A C 0.7431(5) 0.6208(6) 1.3607(5)
H3A H 0.8124 0.6894 1.4193
C5A C 0.6886(5) 0.6084(5) 1.2494(4)
H4A H 0.7256 0.6683 1.2352
C6A C 0.7467(6) 0.5403(7) 1.4998(5)
H5A H 0.7368 0.4567 1.4861
H6A H 0.8308 0.5898 1.5361
C7A C 0.6920(6) 0.6014(6) 1.5858(5)
H7A H 0.6066 0.5609 1.5449
H8A H 0.7163 0.5887 1.6522
C8A C 0.7285(6) 0.7413(6) 1.6333(6)
H9A H 0.7037 0.7535 1.5666
H10A H 0.8140 0.7811 1.6731
C9A C 0.6760(6) 0.8054(6) 1.7206(6)
C10A C 0.5759(7) 0.8302(6) 1.6849(6)
H11A H 0.5410 0.8100 1.6064
C11A C 0.5282(6) 0.8840(5) 1.7638(5)
H12A H 0.4607 0.8991 1.7376
C12A C 0.6703(5) 0.8913(5) 1.9104(5)
H13A H 0.7040 0.9128 1.9895
C13A C 0.7216(6) 0.8377(6) 1.8373(6)
H14A H 0.7882 0.8226 1.8662
N3A N 0.5877(4) 0.5161(4) 1.1642(4)
N4A N 0.5754(4) 0.9154(4) 1.8771(4)
Mo1A Mo 0.37675(4) 0.14078(4) 0.82350(4)
O1A O 0.3833(11) 0.0811(14) 0.6913(12)
O2A O 0.2290(13) 0.0848(15) 0.7527(11)
O3A O 0.4290(3) 0.0716(3) 0.9012(3)
O4A O 0.4410(3) 0.3060(3) 0.9150(3)
Ni1_2 Ni -0.5000 0.5000 1.0000
Ni2_2 Ni -0.5000 0.0000 1.0000
Ni2_3 Ni 0.5000 0.0000 0.0000
Ni2_4 Ni 0.5000 0.0000 1.0000
Ni2_5 Ni 0.5000 1.0000 2.0000
N1A_2 N 0.6507(4) 0.5064(4) 0.9568(4)
N2_2 N 0.6613(4) 1.1645(4) 1.1007(4)
N4_2 N 0.4246(4) 1.0846(4) 1.1229(4)
N4A_2 N 0.5754(4) 0.9154(4) 0.8771(4)
O3A_2 O 0.4290(3) 1.0716(3) 0.9012(3)
loop_
_geom_bond_atom_site_label_1
_geom_bond_atom_site_label_2
_geom_bond_site_symmetry_1
_geom_bond_site_symmetry_2
Ni1 N1 1_555 1_555
Ni2 O3 1_555 1_555
Mo1 O1 1_555 1_555
C1 H1 1_555 1_555
C2 C1 1_555 1_555
H2 C2 1_555 1_555
C3 C2 1_555 1_555
C4 C3 1_555 1_555
H3 C4 1_555 1_555
C5 C4 1_555 1_555
H4 C5 1_555 1_555
C6 C3 1_555 1_555
H5 C6 1_555 1_555
H6 C6 1_555 1_555
C7 C6 1_555 1_555
H7 C7 1_555 1_555
H8 C7 1_555 1_555
C8 C7 1_555 1_555
H9 C8 1_555 1_555
H10 C8 1_555 1_555
C9 C8 1_555 1_555
C10 C9 1_555 1_555
H11 C10 1_555 1_555
C11 C10 1_555 1_555
H12 C11 1_555 1_555
C12 H13 1_555 1_555
C13 C9 1_555 1_555
H14 C13 1_555 1_555
C14 H15 1_555 1_555
C15 C14 1_555 1_555
H16 C15 1_555 1_555
C16 C15 1_555 1_555
C17 C16 1_555 1_555
H17 C17 1_555 1_555
C18 C17 1_555 1_555
H18 C18 1_555 1_555
C19 C16 1_555 1_555
H19 C19 1_555 1_555
H20 C19 1_555 1_555
C20 C19 1_555 1_555
H21 C20 1_555 1_555
H22 C20 1_555 1_555
C21 C20 1_555 1_555
H23 C21 1_555 1_555
H24 C21 1_555 1_555
C22 H25 1_555 1_555
C23 C22 1_555 1_555
H26 C23 1_555 1_555
C24 C21 1_555 1_555
C25 C24 1_555 1_555
H27 C25 1_555 1_555
C26 C25 1_555 1_555
H28 C26 1_555 1_555
N1 C14 1_555 1_555
N2 C22 1_555 1_555
N3 Ni1 1_555 1_555
N4 C11 1_555 1_555
O2 Mo1 1_555 1_555
O3 Mo1 1_555 1_555
O4 Ni1 1_555 1_555
C14A H15A 1_555 1_555
C15A C14A 1_555 1_555
H16A C15A 1_555 1_555
C16A C15A 1_555 1_555
C17A C16A 1_555 1_555
H17A C17A 1_555 1_555
C18A C17A 1_555 1_555
H18A C18A 1_555 1_555
C19A C16A 1_555 1_555
H19A C19A 1_555 1_555
H20A C19A 1_555 1_555
C20A C19A 1_555 1_555
H21A C20A 1_555 1_555
H22A C20A 1_555 1_555
C21A C20A 1_555 1_555
H23A C21A 1_555 1_555
H24A C21A 1_555 1_555
C22A H25A 1_555 1_555
C23A C22A 1_555 1_555
H26A C23A 1_555 1_555
C24A C21A 1_555 1_555
C25A C24A 1_555 1_555
H27A C25A 1_555 1_555
C26A C25A 1_555 1_555
H28A C26A 1_555 1_555
N1A C14A 1_555 1_555
N2A Ni2 1_555 1_555
C1A H1A 1_555 1_555
C2A C1A 1_555 1_555
H2A C2A 1_555 1_555
C3A C2A 1_555 1_555
C4A C3A 1_555 1_555
H3A C4A 1_555 1_555
C5A C4A 1_555 1_555
H4A C5A 1_555 1_555
C6A C3A 1_555 1_555
H5A C6A 1_555 1_555
H6A C6A 1_555 1_555
C7A C6A 1_555 1_555
H7A C7A 1_555 1_555
H8A C7A 1_555 1_555
C8A C7A 1_555 1_555
H9A C8A 1_555 1_555
H10A C8A 1_555 1_555
C9A C8A 1_555 1_555
C10A C9A 1_555 1_555
H11A C10A 1_555 1_555
C11A C10A 1_555 1_555
H12A C11A 1_555 1_555
C12A H13A 1_555 1_555
C13A C9A 1_555 1_555
H14A C13A 1_555 1_555
N3A Ni1 1_555 1_555
N4A C11A 1_555 1_555
Mo1A O1A 1_555 1_555
O2A Mo1A 1_555 1_555
O3A Mo1A 1_555 1_555
O4A Ni1 1_555 1_555
Ni1_2 N1A 1_555 1_555
Ni2_2 N2 1_555 1_555
Ni2_3 N4 1_555 1_555
Ni2_4 O3A 1_555 1_555
Ni2_5 N4A 1_555 1_555
N1A_2 Ni1 1_555 1_555
N2_2 Ni2 1_555 1_555
N4_2 Ni2 1_555 1_555
N4A_2 Ni2 1_555 1_555
O3A_2 Ni2 1_555 1_555
Mo1 O4 1_555 1_555
C1 N3 1_555 1_555
C5 N3 1_555 1_555
C12 C13 1_555 1_555
C12 N4 1_555 1_555
C18 N1 1_555 1_555
C23 C24 1_555 1_555
C26 N2 1_555 1_555
C18A N1A 1_555 1_555
C22A N2A 1_555 1_555
C23A C24A 1_555 1_555
C26A N2A 1_555 1_555
C1A N3A 1_555 1_555
C5A N3A 1_555 1_555
C12A C13A 1_555 1_555
C12A N4A 1_555 1_555
Mo1A O4A 1_555 1_555

#END
