
#######################################################################
#
#                 Cambridge Crystallographic Data Centre
#                                CCDC 
#
#######################################################################
#
# If this CIF has been generated from an entry in the Cambridge 
# Structural Database, then it will include bibliographic, chemical, 
# crystal, experimental, refinement or atomic coordinate data resulting 
# from the CCDC's data processing and validation procedures.
#
#######################################################################

data_GIFKEL
_chemical_formula_moiety         '(C10 H16 Cd1 N6 Ni1)n'
_symmetry_cell_setting           monoclinic
_symmetry_space_group_name_H-M   'P 2/m'
_symmetry_Int_Tables_number      10
_space_group_name_Hall           '-P 2y'
loop_
_symmetry_equiv_pos_site_id
_symmetry_equiv_pos_as_xyz
1 x,y,z
2 -x,y,-z
3 -x,-y,-z
4 x,-y,z
_cell_length_a                   9.540(2)
_cell_length_b                   7.611(1)
_cell_length_c                   7.120(1)
_cell_angle_alpha                90
_cell_angle_beta                 100.95(1)
_cell_angle_gamma                90
_cell_volume                     507.563
loop_
_atom_site_label
_atom_site_type_symbol
_atom_site_fract_x
_atom_site_fract_y
_atom_site_fract_z
Cd1 Cd 0.0000 0.0000 0.0000
Ni1 Ni 0.0000 0.5000 0.5000
N1 N 0.0622(3) 0.2209(4) 0.2302(4)
C1 C 0.0405(3) 0.3273(4) 0.3340(4)
N2 N 0.2297(4) -0.0000 -0.0598(5)
C2 C 0.2522(5) -0.0000 -0.2581(7)
C3 C 0.4066(5) 0.0000 -0.2790(7)
C4 C 0.4227(5) -0.0000 -0.4888(7)
H1 H 0.287(4) 0.080(5) 0.022(6)
H2 H 0.200(3) 0.101(5) -0.323(4)
H3 H 0.474(4) 0.106(5) -0.192(5)
H4 H 0.363(4) 0.106(5) -0.569(5)
C1A C -0.0405(3) 0.3273(4) 0.6660(4)
N1A N -0.0622(3) 0.2209(4) 0.7698(4)
C1B C -0.0405(3) 0.6727(4) 0.6660(4)
N1B N -0.0622(3) 0.7791(4) 0.7698(4)
C1C C 0.0405(3) 0.6727(4) 0.3340(4)
N1C N 0.0622(3) 0.7791(4) 0.2302(4)
C4A C 0.5773(5) 0.0000 -0.5112(7)
C3A C 0.5934(5) -0.0000 -0.7210(7)
C2A C 0.7478(5) -0.0000 -0.7419(7)
N2A N 0.7703(4) 0.0000 -0.9402(5)
H1A H 0.713(4) 0.080(5) -1.022(6)
H1B H 0.713(4) -0.080(5) -1.022(6)
H2A H 0.800(3) 0.101(5) -0.677(4)
H2B H 0.800(3) -0.101(5) -0.677(4)
H3A H 0.526(4) 0.106(5) -0.808(5)
H3B H 0.526(4) -0.106(5) -0.808(5)
H4A H 0.637(4) 0.106(5) -0.431(5)
H4B H 0.637(4) -0.106(5) -0.431(5)
H4C H 0.363(4) -0.106(5) -0.569(5)
H3C H 0.474(4) -0.106(5) -0.192(5)
H2C H 0.200(3) -0.101(5) -0.323(4)
H1C H 0.287(4) -0.080(5) 0.022(6)
N1A_2 N -0.0622(3) 0.2209(4) -0.2302(4)
N1B_2 N -0.0622(3) -0.2209(4) -0.2302(4)
N1C_2 N 0.0622(3) -0.2209(4) 0.2302(4)
N2A_2 N -0.2297(4) 0.0000 0.0598(5)
H1A_2 H -0.287(4) 0.080(5) -0.022(6)
H1B_2 H -0.287(4) -0.080(5) -0.022(6)
Cd1A Cd 0.0000 0.0000 1.0000
Cd1B Cd 0.0000 1.0000 1.0000
Cd1C Cd 0.0000 1.0000 0.0000
Cd1A_2 Cd 1.0000 -0.0000 -1.0000
loop_
_geom_bond_atom_site_label_1
_geom_bond_atom_site_label_2
_geom_bond_site_symmetry_1
_geom_bond_site_symmetry_2
Cd1 N1 1_555 1_555
Ni1 C1 1_555 1_555
N1 C1 1_555 1_555
N2 Cd1 1_555 1_555
C2 N2 1_555 1_555
C3 C2 1_555 1_555
C4 C3 1_555 1_555
H1 N2 1_555 1_555
H2 C2 1_555 1_555
H3 C3 1_555 1_555
H4 C4 1_555 1_555
C1A Ni1 1_555 1_555
N1A C1A 1_555 1_555
C1B Ni1 1_555 1_555
N1B C1B 1_555 1_555
C1C Ni1 1_555 1_555
N1C C1C 1_555 1_555
C4A C4 1_555 1_555
C3A C4A 1_555 1_555
C2A C3A 1_555 1_555
N2A C2A 1_555 1_555
H1A N2A 1_555 1_555
H1B N2A 1_555 1_555
H2A C2A 1_555 1_555
H2B C2A 1_555 1_555
H3A C3A 1_555 1_555
H3B C3A 1_555 1_555
H4A C4A 1_555 1_555
H4B C4A 1_555 1_555
H4C C4 1_555 1_555
H3C C3 1_555 1_555
H2C C2 1_555 1_555
H1C N2 1_555 1_555
N1A_2 Cd1 1_555 1_555
N1B_2 Cd1 1_555 1_555
N1C_2 Cd1 1_555 1_555
N2A_2 Cd1 1_555 1_555
H1A_2 N2A_2 1_555 1_555
H1B_2 N2A_2 1_555 1_555
Cd1A N1A 1_555 1_555
Cd1B N1B 1_555 1_555
Cd1C N1C 1_555 1_555
Cd1A_2 N2A 1_555 1_555

#END
