
#######################################################################
#
#                 Cambridge Crystallographic Data Centre
#                                CCDC 
#
#######################################################################
#
# If this CIF has been generated from an entry in the Cambridge 
# Structural Database, then it will include bibliographic, chemical, 
# crystal, experimental, refinement or atomic coordinate data resulting 
# from the CCDC's data processing and validation procedures.
#
#######################################################################

data_FERVEF
_chemical_formula_moiety         '(C48 H24 Au6 Fe3 N24)n'
_symmetry_cell_setting           rhombohedral
_symmetry_space_group_name_H-M   'R -3 m'
_symmetry_Int_Tables_number      166
_space_group_name_Hall           '-R 3 2"'
loop_
_symmetry_equiv_pos_site_id
_symmetry_equiv_pos_as_xyz
1 x,y,z
2 -y,x-y,z
3 -x+y,-x,z
4 x-y,-y,-z
5 -x,-x+y,-z
6 y,x,-z
7 2/3+x,1/3+y,1/3+z
8 2/3-y,1/3+x-y,1/3+z
9 2/3-x+y,1/3-x,1/3+z
10 2/3+x-y,1/3-y,1/3-z
11 2/3-x,1/3-x+y,1/3-z
12 2/3+y,1/3+x,1/3-z
13 1/3+x,2/3+y,2/3+z
14 1/3-y,2/3+x-y,2/3+z
15 1/3-x+y,2/3-x,2/3+z
16 1/3+x-y,2/3-y,2/3-z
17 1/3-x,2/3-x+y,2/3-z
18 1/3+y,2/3+x,2/3-z
19 -x,-y,-z
20 y,-x+y,-z
21 x-y,x,-z
22 -x+y,y,z
23 x,x-y,z
24 -y,-x,z
25 1/3-x,2/3-y,2/3-z
26 1/3+y,2/3-x+y,2/3-z
27 1/3+x-y,2/3+x,2/3-z
28 1/3-x+y,2/3+y,2/3+z
29 1/3+x,2/3+x-y,2/3+z
30 1/3-y,2/3-x,2/3+z
31 2/3-x,1/3-y,1/3-z
32 2/3+y,1/3-x+y,1/3-z
33 2/3+x-y,1/3+x,1/3-z
34 2/3-x+y,1/3+y,1/3+z
35 2/3+x,1/3+x-y,1/3+z
36 2/3-y,1/3-x,1/3+z
_cell_length_a                   26.2270(19)
_cell_length_b                   26.2270(19)
_cell_length_c                   9.3541(9)
_cell_angle_alpha                90
_cell_angle_beta                 90
_cell_angle_gamma                120
_cell_volume                     5572.24
loop_
_atom_site_label
_atom_site_type_symbol
_atom_site_fract_x
_atom_site_fract_y
_atom_site_fract_z
Au1 Au 0.626252(19) 0.959585(19) 0.6667
Fe1 Fe 0.5000 1.0000 1.0000
N1 N 0.4560(2) 0.9120(4) 1.0059(11)
N2 N 0.5521(3) 0.9975(3) 0.8559(8)
N3 N 0.3938(4) 0.6969(2) 0.9964(13)
C1 C 0.4848(3) 0.8819(3) 1.0065(10)
H1 H 0.5257 0.9029 1.0086
C2 C 0.4562(4) 0.8204(4) 1.0040(11)
H2 H 0.4778 0.8012 1.0042
C3 C 0.3939(3) 0.7878(5) 1.0010(18)
C4 C 0.3621(3) 0.7242(5) 0.9951(17)
C5 C 0.5832(4) 0.9894(4) 0.7828(11)
N1A N 0.0880(4) 0.5440(4) 1.0059(11)
N3A N 0.3031(2) 0.6969(4) 0.9964(13)
C1A C 0.1181(3) 0.6029(4) 1.0065(10)
H1A H 0.0971 0.6228 1.0086
C2A C 0.1796(4) 0.6358(6) 1.0040(11)
H2A H 0.1988 0.6766 1.0042
C3A C 0.2122(5) 0.6061(6) 1.0010(18)
C4A C 0.2758(5) 0.6379(6) 0.9951(17)
N1B N 0.4560(4) 0.5440(2) 1.0059(11)
N3B N 0.3031(4) 0.6062(4) 0.9964(13)
C1B C 0.3971(4) 0.5152(3) 1.0065(10)
H1B H 0.3772 0.4743 1.0086
C2B C 0.3642(6) 0.5438(4) 1.0040(11)
H2B H 0.3234 0.5222 1.0042
C3B C 0.3939(6) 0.6061(3) 1.0010(18)
C4B C 0.3621(6) 0.6379(3) 0.9951(17)
C1U C 0.3971(4) 0.8819(3) 1.0065(10)
H1U H 0.3772 0.9029 1.0086
C2U C 0.3642(6) 0.8204(4) 1.0040(11)
H2U H 0.3234 0.8012 1.0042
C1V C 0.4848(3) 0.6029(4) 1.0065(10)
H1V H 0.5257 0.6228 1.0086
C2V C 0.4562(4) 0.6358(6) 1.0040(11)
H2V H 0.4778 0.6766 1.0042
C1W C 0.1181(3) 0.5152(3) 1.0065(10)
H1W H 0.0971 0.4743 1.0086
C2W C 0.1796(4) 0.5438(4) 1.0040(11)
H2W H 0.1988 0.5222 1.0042
Au1A Au 0.040415(19) 0.666667(27) 0.6667
Fe1A Fe -0.0000 0.5000 1.0000
N2A N 0.0025(3) 0.5546(4) 0.8559(8)
C5A C 0.0106(4) 0.5938(6) 0.7828(11)
Au1B Au 0.333333(27) 0.373748(19) 0.6667
Fe1B Fe 0.5000 0.5000 1.0000
N2B N 0.4454(4) 0.4479(3) 0.8559(8)
C5B C 0.4062(6) 0.4168(4) 0.7828(11)
N2I N 0.2213(4) 0.3358(3) 0.4774(8)
C5I C 0.2605(6) 0.3439(4) 0.5505(11)
N2J N 0.1146(3) 0.7787(4) 0.4774(8)
C5J C 0.0835(4) 0.7395(6) 0.5505(11)
N2K N 0.6642(3) 0.8854(3) 0.4774(8)
C5K C 0.6561(4) 0.9165(4) 0.5505(11)
Au1U Au 0.333333(27) 0.959585(19) 0.6667
N2U N 0.4454(4) 0.9975(3) 0.8559(8)
C5U C 0.4062(6) 0.9894(4) 0.7828(11)
Au1V Au 0.626252(19) 0.666667(27) 0.6667
N2V N 0.5521(3) 0.5546(4) 0.8559(8)
C5V C 0.5832(4) 0.5938(6) 0.7828(11)
Au1W Au 0.040415(19) 0.373748(19) 0.6667
N2W N 0.0025(3) 0.4479(3) 0.8559(8)
C5W C 0.0106(4) 0.4168(4) 0.7828(11)
N2DA N 0.1146(3) 0.3358(3) 0.4774(8)
C5DA C 0.0835(4) 0.3439(4) 0.5505(11)
N2EA N 0.6642(3) 0.7787(4) 0.4774(8)
C5EA C 0.6561(4) 0.7395(6) 0.5505(11)
N2FA N 0.2213(4) 0.8854(3) 0.4774(8)
C5FA C 0.2605(6) 0.9165(4) 0.5505(11)
N1C N 0.5440(4) 1.0880(4) 0.9941(11)
N3C N 0.6969(4) 1.3031(2) 1.0036(13)
C1C C 0.6029(4) 1.1181(3) 0.9935(10)
H1C H 0.6228 1.0971 0.9914
C2C C 0.6358(6) 1.1796(4) 0.9960(11)
H2C H 0.6766 1.1988 0.9958
C3C C 0.6061(6) 1.2122(5) 0.9990(18)
C4C C 0.6379(6) 1.2758(5) 1.0049(17)
N1D N 0.5440(2) 1.4560(4) 0.9941(11)
N3D N 0.6062(4) 1.3031(4) 1.0036(13)
C1D C 0.5152(3) 1.3971(4) 0.9935(10)
H1D H 0.4743 1.3772 0.9914
C2D C 0.5438(4) 1.3642(6) 0.9960(11)
H2D H 0.5222 1.3234 0.9958
C3D C 0.6061(3) 1.3939(6) 0.9990(18)
C4D C 0.6379(3) 1.3621(6) 1.0049(17)
N1E N 0.9120(4) 1.4560(2) 0.9941(11)
N3E N 0.6969(2) 1.3938(4) 1.0036(13)
C1E C 0.8819(3) 1.4848(3) 0.9935(10)
H1E H 0.9029 1.5257 0.9914
C2E C 0.8204(4) 1.4562(4) 0.9960(11)
H2E H 0.8012 1.4778 0.9958
C3E C 0.7878(5) 1.3939(3) 0.9990(18)
C4E C 0.7242(5) 1.3621(3) 1.0049(17)
C1R C 0.5152(3) 1.1181(3) 0.9935(10)
H1R H 0.4743 1.0971 0.9914
C2R C 0.5438(4) 1.1796(4) 0.9960(11)
H2R H 0.5222 1.1988 0.9958
C1S C 0.8819(3) 1.3971(4) 0.9935(10)
H1S H 0.9029 1.3772 0.9914
C2S C 0.8204(4) 1.3642(6) 0.9960(11)
H2S H 0.8012 1.3234 0.9958
C1T C 0.6029(4) 1.4848(3) 0.9935(10)
H1T H 0.6228 1.5257 0.9914
C2T C 0.6358(6) 1.4562(4) 0.9960(11)
H2T H 0.6766 1.4778 0.9958
Fe1A_2 Fe 1.0000 1.5000 1.0000
Fe1B_2 Fe 0.5000 1.5000 1.0000
Fe1F Fe 0.1667 0.3333 0.3333
Fe1G Fe 0.6667 0.8333 0.3333
Fe1H Fe 0.1667 0.8333 0.3333
N1D_2 N 0.5440(2) 0.4560(4) 0.9941(11)
N1E_2 N -0.0880(4) 0.4560(2) 0.9941(11)
N2C N 0.5546(4) 1.0025(3) 1.1441(8)
N2D N 0.4479(3) 0.4454(4) 1.1441(8)
N2E N -0.0025(3) 0.5521(3) 1.1441(8)
N2R N 0.4479(3) 1.0025(3) 1.1441(8)
N2S N -0.0025(3) 0.4454(4) 1.1441(8)
N2T N 0.5546(4) 0.5521(3) 1.1441(8)
loop_
_geom_bond_atom_site_label_1
_geom_bond_atom_site_label_2
_geom_bond_site_symmetry_1
_geom_bond_site_symmetry_2
Au1 C5 1_555 1_555
Fe1 N1 1_555 1_555
N1 C1 1_555 1_555
N2 Fe1 1_555 1_555
N3 C4 1_555 1_555
C1 H1 1_555 1_555
C2 C1 1_555 1_555
H2 C2 1_555 1_555
C3 C2 1_555 1_555
C4 C3 1_555 1_555
C5 N2 1_555 1_555
N1A C1A 1_555 1_555
N3A C4 1_555 1_555
C1A H1A 1_555 1_555
C2A C1A 1_555 1_555
H2A C2A 1_555 1_555
C3A C2A 1_555 1_555
C4A N3A 1_555 1_555
N1B C1B 1_555 1_555
N3B C4A 1_555 1_555
C1B H1B 1_555 1_555
C2B C1B 1_555 1_555
H2B C2B 1_555 1_555
C3B C2B 1_555 1_555
C4B N3 1_555 1_555
C1U N1 1_555 1_555
H1U C1U 1_555 1_555
C2U C3 1_555 1_555
H2U C2U 1_555 1_555
C1V N1B 1_555 1_555
H1V C1V 1_555 1_555
C2V C3B 1_555 1_555
H2V C2V 1_555 1_555
C1W N1A 1_555 1_555
H1W C1W 1_555 1_555
C2W C3A 1_555 1_555
H2W C2W 1_555 1_555
Au1A C5A 1_555 1_555
Fe1A N1A 1_555 1_555
N2A Fe1A 1_555 1_555
C5A N2A 1_555 1_555
Au1B C5B 1_555 1_555
Fe1B N1B 1_555 1_555
N2B Fe1B 1_555 1_555
C5B N2B 1_555 1_555
N2I C5I 1_555 1_555
C5I Au1B 1_555 1_555
N2J C5J 1_555 1_555
C5J Au1A 1_555 1_555
N2K C5K 1_555 1_555
C5K Au1 1_555 1_555
Au1U C5U 1_555 1_555
N2U Fe1 1_555 1_555
C5U N2U 1_555 1_555
Au1V C5V 1_555 1_555
N2V Fe1B 1_555 1_555
C5V N2V 1_555 1_555
Au1W C5W 1_555 1_555
N2W Fe1A 1_555 1_555
C5W N2W 1_555 1_555
N2DA C5DA 1_555 1_555
C5DA Au1W 1_555 1_555
N2EA C5EA 1_555 1_555
C5EA Au1V 1_555 1_555
N2FA C5FA 1_555 1_555
C5FA Au1U 1_555 1_555
N1C Fe1 1_555 1_555
N3C C4C 1_555 1_555
C1C N1C 1_555 1_555
H1C C1C 1_555 1_555
C2C C1C 1_555 1_555
H2C C2C 1_555 1_555
C3C C2C 1_555 1_555
C4C C3C 1_555 1_555
N1D C1D 1_555 1_555
N3D C4C 1_555 1_555
C1D H1D 1_555 1_555
C2D C1D 1_555 1_555
H2D C2D 1_555 1_555
C3D C2D 1_555 1_555
C4D N3D 1_555 1_555
N1E C1E 1_555 1_555
N3E C4D 1_555 1_555
C1E H1E 1_555 1_555
C2E C1E 1_555 1_555
H2E C2E 1_555 1_555
C3E C2E 1_555 1_555
C4E N3C 1_555 1_555
C1R N1C 1_555 1_555
H1R C1R 1_555 1_555
C2R C3C 1_555 1_555
H2R C2R 1_555 1_555
C1S N1E 1_555 1_555
H1S C1S 1_555 1_555
C2S C3E 1_555 1_555
H2S C2S 1_555 1_555
C1T N1D 1_555 1_555
H1T C1T 1_555 1_555
C2T C3D 1_555 1_555
H2T C2T 1_555 1_555
Fe1A_2 N1E 1_555 1_555
Fe1B_2 N1D 1_555 1_555
Fe1F N2I 1_555 1_555
Fe1G N2K 1_555 1_555
Fe1H N2J 1_555 1_555
N1D_2 Fe1B 1_555 1_555
N1E_2 Fe1A 1_555 1_555
N2C Fe1 1_555 1_555
N2D Fe1B 1_555 1_555
N2E Fe1A 1_555 1_555
N2R Fe1 1_555 1_555
N2S Fe1A 1_555 1_555
N2T Fe1B 1_555 1_555
C3A C4A 1_555 1_555
N3B C4B 1_555 1_555
C3B C4B 1_555 1_555
C1U C2U 1_555 1_555
C1V C2V 1_555 1_555
C1W C2W 1_555 1_555
N2DA Fe1F 1_555 1_555
N2EA Fe1G 1_555 1_555
N2FA Fe1H 1_555 1_555
C3D C4D 1_555 1_555
N3E C4E 1_555 1_555
C3E C4E 1_555 1_555
C1R C2R 1_555 1_555
C1S C2S 1_555 1_555
C1T C2T 1_555 1_555

#END
