
#######################################################################
#
#                 Cambridge Crystallographic Data Centre
#                                CCDC 
#
#######################################################################
#
# If this CIF has been generated from an entry in the Cambridge 
# Structural Database, then it will include bibliographic, chemical, 
# crystal, experimental, refinement or atomic coordinate data resulting 
# from the CCDC's data processing and validation procedures.
#
#######################################################################

data_RUZCOF
_chemical_formula_moiety         '(C8 H4 N2 O12 P4 Zn3 2-)n'
_symmetry_cell_setting           orthorhombic
_symmetry_space_group_name_H-M   'P b c n'
_symmetry_Int_Tables_number      60
_space_group_name_Hall           '-P 2n 2ab'
loop_
_symmetry_equiv_pos_site_id
_symmetry_equiv_pos_as_xyz
1 x,y,z
2 1/2-x,1/2-y,1/2+z
3 -x,y,1/2-z
4 1/2+x,1/2-y,-z
5 -x,-y,-z
6 1/2+x,1/2+y,1/2-z
7 x,-y,1/2+z
8 1/2-x,1/2+y,z
_cell_length_a                   9.9096(8)
_cell_length_b                   15.6780(6)
_cell_length_c                   13.8022(6)
_cell_angle_alpha                90
_cell_angle_beta                 90
_cell_angle_gamma                90
_cell_volume                     2144.35
loop_
_atom_site_label
_atom_site_type_symbol
_atom_site_fract_x
_atom_site_fract_y
_atom_site_fract_z
N1 N 0.7114(5) 0.2899(3) -0.0346(4)
C1 C 0.6397(13) 0.3430(7) -0.1171(9)
C3 C 0.611(2) 0.4055(12) -0.1069(15)
C5 C 0.485(2) 0.4567(15) -0.1108(18)
C7 C 0.4600(16) 0.5083(11) -0.0140(15)
N1D N 0.2886(5) 0.7101(3) 0.0346(4)
C1D C 0.3603(13) 0.6570(7) 0.1171(9)
C3D C 0.389(2) 0.5945(12) 0.1069(15)
C5D C 0.515(2) 0.5433(15) 0.1108(18)
C7D C 0.5400(16) 0.4917(11) 0.0140(15)
Zn1 Zn 0.04004(6) 0.58253(3) 0.60735(4)
Zn2 Zn 0.0000 0.22788(4) 0.7500
P1 P 0.23491(17) 0.61362(9) 0.78443(10)
H1 H 0.274(2) 0.533(5) 0.7729(7)
P2 P -0.02831(13) 0.38334(7) 0.61392(9)
H2 H -0.130(7) 0.3959(8) 0.684(4)
O1 O 0.3574(6) 0.6643(4) 0.8052(4)
O2 O 0.1650(5) 0.6402(2) 0.6922(3)
O3 O 0.1467(5) 0.6167(3) 0.8737(3)
O4 O 0.0511(4) 0.3039(2) 0.6437(3)
O5 O -0.0980(5) 0.3708(2) 0.5171(3)
O6 O 0.0613(4) 0.4604(2) 0.6162(3)
Zn1B Zn -0.04004(6) 0.58253(3) 0.89265(4)
Zn1D Zn -0.04004(6) 0.41747(3) 0.39265(4)
Zn1F Zn 0.04004(6) 0.41747(3) 1.10735(4)
Zn2E Zn -0.5000 0.72788(4) 0.7500
Zn2E_2 Zn 0.5000 0.72788(4) 0.7500
P1B P -0.23491(17) 0.61362(9) 0.71557(10)
H1B H -0.274(2) 0.533(5) 0.7271(7)
P2B P 0.02831(13) 0.38334(7) 0.88608(9)
H2B H 0.130(7) 0.3959(8) 0.816(4)
O1B O -0.3574(6) 0.6643(4) 0.6948(4)
O1E O -0.1426(6) 0.1643(4) 0.6948(4)
O1G O 0.1426(6) 0.1643(4) 0.8052(4)
O2B O -0.1650(5) 0.6402(2) 0.8078(3)
O3B O -0.1467(5) 0.6167(3) 0.6263(3)
O4B O -0.0511(4) 0.3039(2) 0.8563(3)
O5D O 0.0980(5) 0.6292(2) 0.4829(3)
O5F O -0.0980(5) 0.6292(2) 1.0171(3)
O5B O 0.0980(5) 0.3708(2) 0.9829(3)
O6B O -0.0613(4) 0.4604(2) 0.8838(3)
loop_
_geom_bond_atom_site_label_1
_geom_bond_atom_site_label_2
_geom_bond_site_symmetry_1
_geom_bond_site_symmetry_2
Zn1 O2 1_555 1_555
Zn2 O4 1_555 1_555
P1 H1 1_555 1_555
P2 H2 1_555 1_555
O1 P1 1_555 1_555
O2 P1 1_555 1_555
O3 P1 1_555 1_555
O4 P2 1_555 1_555
O5 P2 1_555 1_555
O6 Zn1 1_555 1_555
N1 C1 1_555 1_555
C1 C3 1_555 1_555
C3 C5 1_555 1_555
C5 C7 1_555 1_555
C7 C7D 1_555 1_555
Zn1B O3 1_555 1_555
Zn1D O5 1_555 1_555
Zn1F O5B 1_555 1_555
Zn2E O1B 1_555 1_555
Zn2E_2 O1 1_555 1_555
P1B H1B 1_555 1_555
P2B H2B 1_555 1_555
O1B P1B 1_555 1_555
O1E Zn2 1_555 1_555
O1G Zn2 1_555 1_555
O2B Zn1B 1_555 1_555
O3B Zn1 1_555 1_555
O4B Zn2 1_555 1_555
O5D Zn1 1_555 1_555
O5F Zn1B 1_555 1_555
O5B P2B 1_555 1_555
O6B Zn1B 1_555 1_555
N1D C1D 1_555 1_555
C1D C3D 1_555 1_555
C3D C5D 1_555 1_555
C5D C7D 1_555 1_555
P2 O6 1_555 1_555
P1B O2B 1_555 1_555
P1B O3B 1_555 1_555
P2B O4B 1_555 1_555
P2B O6B 1_555 1_555

#END
