
#######################################################################
#
#                 Cambridge Crystallographic Data Centre
#                                CCDC 
#
#######################################################################
#
# If this CIF has been generated from an entry in the Cambridge 
# Structural Database, then it will include bibliographic, chemical, 
# crystal, experimental, refinement or atomic coordinate data resulting 
# from the CCDC's data processing and validation procedures.
#
#######################################################################

data_IZUSEC
_chemical_formula_moiety         'C66 H24 N12 O32 Zn10'
_symmetry_cell_setting           cubic
_symmetry_space_group_name_H-M   'P -4 3 m'
_symmetry_Int_Tables_number      215
_space_group_name_Hall           'P -4 2 3'
loop_
_symmetry_equiv_pos_site_id
_symmetry_equiv_pos_as_xyz
1 x,y,z
2 -x,-y,z
3 -x,y,-z
4 x,-y,-z
5 z,x,y
6 z,-x,-y
7 -z,-x,y
8 -z,x,-y
9 y,z,x
10 -y,z,-x
11 y,-z,-x
12 -y,-z,x
13 y,x,z
14 -y,-x,z
15 y,-x,-z
16 -y,x,-z
17 x,z,y
18 -x,z,-y
19 -x,-z,y
20 x,-z,-y
21 z,y,x
22 z,-y,-x
23 -z,y,-x
24 -z,-y,x
_cell_length_a                   17.160(3)
_cell_length_b                   17.160(3)
_cell_length_c                   17.160(3)
_cell_angle_alpha                90
_cell_angle_beta                 90
_cell_angle_gamma                90
_cell_volume                     5053.03
loop_
_atom_site_label
_atom_site_type_symbol
_atom_site_fract_x
_atom_site_fract_y
_atom_site_fract_z
Zn1 Zn 0.5646(2) 0.4354(2) 0.4354(2)
O1 O 0.5000 0.5000 0.5000
O2 O 0.5483(10) 0.4517(10) 0.3325(18)
C1 C 0.5000 0.5000 0.298(2)
C2 C 0.5000 0.5000 0.2057(18)
C3 C 0.5496(3) 0.4504(3) 0.1654(15)
C4 C 0.5494(3) 0.4506(3) 0.0840(15)
C5 C 0.5000 0.5000 0.0431(17)
N1 N 0.6000 0.4000 0.0461
C6 C 0.7040 0.2960 0.0227
C7 C 0.6500 0.3500 0.0751
O3 O 0.6500 0.3500 0.1462
H1 H 0.5730 0.4269 0.1940
H10 H 0.5950 0.4050 -0.0022
Zn1A Zn 0.4354(2) 0.5646(2) 0.4354(2)
Zn1B Zn 0.4354(2) 0.4354(2) -0.4354(2)
Zn1C Zn 0.5646(2) 0.5646(2) -0.4354(2)
Zn1B_2 Zn 0.4354(2) 0.4354(2) 0.5646(2)
Zn1C_2 Zn 0.5646(2) 0.5646(2) 0.5646(2)
Zn1A_2 Zn 1.4354(2) 0.5646(2) 0.4354(2)
Zn1B_3 Zn 1.4354(2) 0.4354(2) 0.5646(2)
Zn1C_3 Zn 0.5646(2) -0.4354(2) 0.5646(2)
Zn1A_3 Zn 0.4354(2) -0.4354(2) 0.4354(2)
O1_2 O 0.5000 0.5000 -0.5000
O2A O 0.4517(10) 0.5483(10) 0.3325(18)
O2B O 0.4517(10) 0.4517(10) -0.3325(18)
O2C O 0.5483(10) 0.5483(10) -0.3325(18)
O2F O 0.6675(18) 0.4517(10) 0.4517(10)
O2G O 0.6675(18) 0.5483(10) 0.5483(10)
O2D O 1.3325(18) 0.5483(10) 0.4517(10)
O2E O 1.3325(18) 0.4517(10) 0.5483(10)
O2I O 0.5483(10) 0.3325(18) 0.4517(10)
O2H O 0.4517(10) 0.3325(18) 0.5483(10)
O2K O 0.5483(10) -0.3325(18) 0.5483(10)
O2J O 0.4517(10) -0.3325(18) 0.4517(10)
O2D_2 O 0.3325(18) 0.5483(10) 0.4517(10)
O2J_2 O 0.4517(10) 0.6675(18) 0.4517(10)
O2E_2 O 0.3325(18) 0.4517(10) -0.4517(10)
O2H_2 O 0.4517(10) 0.3325(18) -0.4517(10)
O2G_2 O 0.6675(18) 0.5483(10) -0.4517(10)
O2K_2 O 0.5483(10) 0.6675(18) -0.4517(10)
C1B C 0.5000 0.5000 -0.298(2)
C1F C 0.702(2) 0.5000 0.5000
C1D C 1.298(2) 0.5000 0.5000
C1H C 0.5000 0.298(2) 0.5000
C1J C 0.5000 -0.298(2) 0.5000
C2B C 0.5000 0.5000 -0.2057(18)
C2F C 0.7943(18) 0.5000 0.5000
C2D C 1.2057(18) 0.5000 0.5000
C2H C 0.5000 0.2057(18) 0.5000
C2J C 0.5000 -0.2057(18) 0.5000
C3A C 0.4504(3) 0.5496(3) 0.1654(15)
C3B C 0.4504(3) 0.4504(3) -0.1654(15)
C3C C 0.5496(3) 0.5496(3) -0.1654(15)
C3F C 0.8346(15) 0.4504(3) 0.4504(3)
C3G C 0.8346(15) 0.5496(3) 0.5496(3)
C3D C 1.1654(15) 0.5496(3) 0.4504(3)
C3E C 1.1654(15) 0.4504(3) 0.5496(3)
C3I C 0.5496(3) 0.1654(15) 0.4504(3)
C3H C 0.4504(3) 0.1654(15) 0.5496(3)
C3K C 0.5496(3) -0.1654(15) 0.5496(3)
C3J C 0.4504(3) -0.1654(15) 0.4504(3)
C4A C 0.4506(3) 0.5494(3) 0.0840(15)
C4B C 0.4506(3) 0.4506(3) -0.0840(15)
C4C C 0.5494(3) 0.5494(3) -0.0840(15)
C4F C 0.9160(15) 0.4506(3) 0.4506(3)
C4G C 0.9160(15) 0.5494(3) 0.5494(3)
C4D C 1.0840(15) 0.5494(3) 0.4506(3)
C4E C 1.0840(15) 0.4506(3) 0.5494(3)
C4I C 0.5494(3) 0.0840(15) 0.4506(3)
C4H C 0.4506(3) 0.0840(15) 0.5494(3)
C4K C 0.5494(3) -0.0840(15) 0.5494(3)
C4J C 0.4506(3) -0.0840(15) 0.4506(3)
C5B C 0.5000 0.5000 -0.0431(17)
C5F C 0.9569(17) 0.5000 0.5000
C5D C 1.0431(17) 0.5000 0.5000
C5H C 0.5000 0.0431(17) 0.5000
C5J C 0.5000 -0.0431(17) 0.5000
N1A N 0.4000 0.6000 0.0461
N1C N 0.6000 0.6000 -0.0461
N1B N 0.4000 0.4000 -0.0461
N1F N 0.9539 0.4000 0.4000
N1G N 0.9539 0.6000 0.6000
N1E N 1.0461 0.4000 0.6000
N1D N 1.0461 0.6000 0.4000
N1I N 0.6000 0.0461 0.4000
N1H N 0.4000 0.0461 0.6000
N1J N 0.4000 -0.0461 0.4000
N1K N 0.6000 -0.0461 0.6000
C6A C 0.2960 0.7040 0.0227
C6C C 0.7040 0.7040 -0.0227
C6B C 0.2960 0.2960 -0.0227
C6F C 0.9773 0.2960 0.2960
C6G C 0.9773 0.7040 0.7040
C6E C 1.0227 0.2960 0.7040
C6D C 1.0227 0.7040 0.2960
C6I C 0.7040 0.0227 0.2960
C6H C 0.2960 0.0227 0.7040
C6J C 0.2960 -0.0227 0.2960
C6K C 0.7040 -0.0227 0.7040
C7A C 0.3500 0.6500 0.0751
C7C C 0.6500 0.6500 -0.0751
C7B C 0.3500 0.3500 -0.0751
C7F C 0.9249 0.3500 0.3500
C7G C 0.9249 0.6500 0.6500
C7E C 1.0751 0.3500 0.6500
C7D C 1.0751 0.6500 0.3500
C7I C 0.6500 0.0751 0.3500
C7H C 0.3500 0.0751 0.6500
C7J C 0.3500 -0.0751 0.3500
C7K C 0.6500 -0.0751 0.6500
O3A O 0.3500 0.6500 0.1462
O3C O 0.6500 0.6500 -0.1462
O3B O 0.3500 0.3500 -0.1462
O3F O 0.8538 0.3500 0.3500
O3G O 0.8538 0.6500 0.6500
O3E O 1.1462 0.3500 0.6500
O3D O 1.1462 0.6500 0.3500
O3I O 0.6500 0.1462 0.3500
O3H O 0.3500 0.1462 0.6500
O3J O 0.3500 -0.1462 0.3500
O3K O 0.6500 -0.1462 0.6500
H1A H 0.4270 0.5731 0.1940
H1C H 0.5730 0.5731 -0.1940
H1B H 0.4270 0.4269 -0.1940
H1F H 0.8060 0.4270 0.4269
H1G H 0.8060 0.5730 0.5731
H1E H 1.1940 0.4270 0.5731
H1D H 1.1940 0.5730 0.4269
H1I H 0.5731 0.1940 0.4270
H1H H 0.4269 0.1940 0.5730
H1J H 0.4269 -0.1940 0.4270
H1K H 0.5731 -0.1940 0.5730
H10A H 0.4050 0.5950 -0.0022
H10C H 0.5950 0.5950 0.0022
H10B H 0.4050 0.4050 0.0022
H10F H 1.0022 0.4050 0.4050
H10G H 1.0022 0.5950 0.5950
H10E H 0.9978 0.4050 0.5950
H10D H 0.9978 0.5950 0.4050
H10I H 0.5950 -0.0022 0.4050
H10H H 0.4050 -0.0022 0.5950
H10J H 0.4050 0.0022 0.4050
H10K H 0.5950 0.0022 0.5950
loop_
_geom_bond_atom_site_label_1
_geom_bond_atom_site_label_2
_geom_bond_site_symmetry_1
_geom_bond_site_symmetry_2
Zn1 O1 1_555 1_555
O1 Zn1A 1_555 1_555
O2 Zn1 1_555 1_555
C1 O2 1_555 1_555
C2 C1 1_555 1_555
C3 C2 1_555 1_555
C4 C3 1_555 1_555
C5 C4 1_555 1_555
N1 C4 1_555 1_555
C6 C7 1_555 1_555
C7 N1 1_555 1_555
O3 C7 1_555 1_555
H1 C3 1_555 1_555
H10 N1 1_555 1_555
Zn1A O2A 1_555 1_555
Zn1B O1_2 1_555 1_555
Zn1C O1_2 1_555 1_555
Zn1B_2 O1 1_555 1_555
Zn1C_2 O1 1_555 1_555
Zn1A_2 O2D 1_555 1_555
Zn1B_3 O2E 1_555 1_555
Zn1C_3 O2K 1_555 1_555
Zn1A_3 O2J 1_555 1_555
O2A C1 1_555 1_555
O2B Zn1B 1_555 1_555
O2C Zn1C 1_555 1_555
O2F Zn1 1_555 1_555
O2G Zn1C_2 1_555 1_555
O2D C1D 1_555 1_555
O2E C1D 1_555 1_555
O2I Zn1 1_555 1_555
O2H Zn1B_2 1_555 1_555
O2K C1J 1_555 1_555
O2J C1J 1_555 1_555
O2D_2 Zn1A 1_555 1_555
O2J_2 Zn1A 1_555 1_555
O2E_2 Zn1B 1_555 1_555
O2H_2 Zn1B 1_555 1_555
O2G_2 Zn1C 1_555 1_555
O2K_2 Zn1C 1_555 1_555
C1B O2B 1_555 1_555
C1F O2F 1_555 1_555
C1D C2D 1_555 1_555
C1H O2I 1_555 1_555
C1J C2J 1_555 1_555
C2B C1B 1_555 1_555
C2F C1F 1_555 1_555
C2D C3D 1_555 1_555
C2H C1H 1_555 1_555
C2J C3K 1_555 1_555
C3A C2 1_555 1_555
C3B C2B 1_555 1_555
C3C C2B 1_555 1_555
C3F C2F 1_555 1_555
C3G C2F 1_555 1_555
C3D C4D 1_555 1_555
C3E C2D 1_555 1_555
C3I C2H 1_555 1_555
C3H C2H 1_555 1_555
C3K C4K 1_555 1_555
C3J C2J 1_555 1_555
C4A C5 1_555 1_555
C4B C3B 1_555 1_555
C4C C3C 1_555 1_555
C4F C3F 1_555 1_555
C4G C3G 1_555 1_555
C4D C5D 1_555 1_555
C4E C3E 1_555 1_555
C4I C3I 1_555 1_555
C4H C3H 1_555 1_555
C4K C5J 1_555 1_555
C4J C3J 1_555 1_555
C5B C5 1_555 1_555
C5F C4F 1_555 1_555
C5D C4E 1_555 1_555
C5H C4I 1_555 1_555
C5J C4J 1_555 1_555
N1A C4A 1_555 1_555
N1C C4C 1_555 1_555
N1B C4B 1_555 1_555
N1F C4F 1_555 1_555
N1G C4G 1_555 1_555
N1E C4E 1_555 1_555
N1D C4D 1_555 1_555
N1I C4I 1_555 1_555
N1H C4H 1_555 1_555
N1J C4J 1_555 1_555
N1K C4K 1_555 1_555
C6A C7A 1_555 1_555
C6C C7C 1_555 1_555
C6B C7B 1_555 1_555
C6F C7F 1_555 1_555
C6G C7G 1_555 1_555
C6E C7E 1_555 1_555
C6D C7D 1_555 1_555
C6I C7I 1_555 1_555
C6H C7H 1_555 1_555
C6J C7J 1_555 1_555
C6K C7K 1_555 1_555
C7A N1A 1_555 1_555
C7C N1C 1_555 1_555
C7B N1B 1_555 1_555
C7F N1F 1_555 1_555
C7G N1G 1_555 1_555
C7E N1E 1_555 1_555
C7D N1D 1_555 1_555
C7I N1I 1_555 1_555
C7H N1H 1_555 1_555
C7J N1J 1_555 1_555
C7K N1K 1_555 1_555
O3A C7A 1_555 1_555
O3C C7C 1_555 1_555
O3B C7B 1_555 1_555
O3F C7F 1_555 1_555
O3G C7G 1_555 1_555
O3E C7E 1_555 1_555
O3D C7D 1_555 1_555
O3I C7I 1_555 1_555
O3H C7H 1_555 1_555
O3J C7J 1_555 1_555
O3K C7K 1_555 1_555
H1A C3A 1_555 1_555
H1C C3C 1_555 1_555
H1B C3B 1_555 1_555
H1F C3F 1_555 1_555
H1G C3G 1_555 1_555
H1E C3E 1_555 1_555
H1D C3D 1_555 1_555
H1I C3I 1_555 1_555
H1H C3H 1_555 1_555
H1J C3J 1_555 1_555
H1K C3K 1_555 1_555
H10A N1A 1_555 1_555
H10C N1C 1_555 1_555
H10B N1B 1_555 1_555
H10F N1F 1_555 1_555
H10G N1G 1_555 1_555
H10E N1E 1_555 1_555
H10D N1D 1_555 1_555
H10I N1I 1_555 1_555
H10H N1H 1_555 1_555
H10J N1J 1_555 1_555
H10K N1K 1_555 1_555
O2C C1B 1_555 1_555
O2G C1F 1_555 1_555
O2H C1H 1_555 1_555
C3A C4A 1_555 1_555
C4B C5B 1_555 1_555
C4C C5B 1_555 1_555
C4G C5F 1_555 1_555
C4H C5H 1_555 1_555
C5F C5D 1_555 1_555
C5H C5J 1_555 1_555

#END
