
#######################################################################
#
#                 Cambridge Crystallographic Data Centre
#                                CCDC 
#
#######################################################################
#
# If this CIF has been generated from an entry in the Cambridge 
# Structural Database, then it will include bibliographic, chemical, 
# crystal, experimental, refinement or atomic coordinate data resulting 
# from the CCDC's data processing and validation procedures.
#
#######################################################################

data_FEBQIO
_chemical_formula_moiety         'C54 H36 Mn24 N31 O46'
_symmetry_cell_setting           cubic
_symmetry_space_group_name_H-M   'F -4 3 c'
_symmetry_Int_Tables_number      219
_space_group_name_Hall           'F -4a 2 3'
loop_
_symmetry_equiv_pos_site_id
_symmetry_equiv_pos_as_xyz
1 x,y,z
2 -x,-y,z
3 -x,y,-z
4 x,-y,-z
5 z,x,y
6 z,-x,-y
7 -z,-x,y
8 -z,x,-y
9 y,z,x
10 -y,z,-x
11 y,-z,-x
12 -y,-z,x
13 1/2+y,1/2+x,1/2+z
14 1/2-y,1/2-x,1/2+z
15 1/2+y,1/2-x,1/2-z
16 1/2-y,1/2+x,1/2-z
17 1/2+x,1/2+z,1/2+y
18 1/2-x,1/2+z,1/2-y
19 1/2-x,1/2-z,1/2+y
20 1/2+x,1/2-z,1/2-y
21 1/2+z,1/2+y,1/2+x
22 1/2+z,1/2-y,1/2-x
23 1/2-z,1/2+y,1/2-x
24 1/2-z,1/2-y,1/2+x
25 x,1/2+y,1/2+z
26 -x,1/2-y,1/2+z
27 -x,1/2+y,1/2-z
28 x,1/2-y,1/2-z
29 z,1/2+x,1/2+y
30 z,1/2-x,1/2-y
31 -z,1/2-x,1/2+y
32 -z,1/2+x,1/2-y
33 y,1/2+z,1/2+x
34 -y,1/2+z,1/2-x
35 y,1/2-z,1/2-x
36 -y,1/2-z,1/2+x
37 1/2+y,x,z
38 1/2-y,-x,z
39 1/2+y,-x,-z
40 1/2-y,x,-z
41 1/2+x,z,y
42 1/2-x,z,-y
43 1/2-x,-z,y
44 1/2+x,-z,-y
45 1/2+z,y,x
46 1/2+z,-y,-x
47 1/2-z,y,-x
48 1/2-z,-y,x
49 1/2+x,y,1/2+z
50 1/2-x,-y,1/2+z
51 1/2-x,y,1/2-z
52 1/2+x,-y,1/2-z
53 1/2+z,x,1/2+y
54 1/2+z,-x,1/2-y
55 1/2-z,-x,1/2+y
56 1/2-z,x,1/2-y
57 1/2+y,z,1/2+x
58 1/2-y,z,1/2-x
59 1/2+y,-z,1/2-x
60 1/2-y,-z,1/2+x
61 y,1/2+x,z
62 -y,1/2-x,z
63 y,1/2-x,-z
64 -y,1/2+x,-z
65 x,1/2+z,y
66 -x,1/2+z,-y
67 -x,1/2-z,y
68 x,1/2-z,-y
69 z,1/2+y,x
70 z,1/2-y,-x
71 -z,1/2+y,-x
72 -z,1/2-y,x
73 1/2+x,1/2+y,z
74 1/2-x,1/2-y,z
75 1/2-x,1/2+y,-z
76 1/2+x,1/2-y,-z
77 1/2+z,1/2+x,y
78 1/2+z,1/2-x,-y
79 1/2-z,1/2-x,y
80 1/2-z,1/2+x,-y
81 1/2+y,1/2+z,x
82 1/2-y,1/2+z,-x
83 1/2+y,1/2-z,-x
84 1/2-y,1/2-z,x
85 y,x,1/2+z
86 -y,-x,1/2+z
87 y,-x,1/2-z
88 -y,x,1/2-z
89 x,z,1/2+y
90 -x,z,1/2-y
91 -x,-z,1/2+y
92 x,-z,1/2-y
93 z,y,1/2+x
94 z,-y,1/2-x
95 -z,y,1/2-x
96 -z,-y,1/2+x
_cell_length_a                   39.6914(12)
_cell_length_b                   39.6914(12)
_cell_length_c                   39.6914(12)
_cell_angle_alpha                90
_cell_angle_beta                 90
_cell_angle_gamma                90
_cell_volume                     62530.1
loop_
_atom_site_label
_atom_site_type_symbol
_atom_site_fract_x
_atom_site_fract_y
_atom_site_fract_z
O1 O 0.94264(8) 0.87850(7) 0.42305(8)
H1 H 0.9440 0.8579 0.4216
O2 O 0.79591(5) 1.08705(5) 0.27509(6)
O3 O 0.74147(5) 1.07780(5) 0.29200(6)
O4 O 0.83221(5) 0.75273(6) 0.35482(5)
O5 O 0.75000(7) 0.7500 0.3560
O6 O 0.85318(5) 0.78755(5) 0.31738(5)
N1 N 0.80536(6) 0.91276(6) 0.33446(6)
N2 N 0.82629(7) 0.89105(7) 0.35144(7)
N3 N 0.84718(6) 0.90843(6) 0.37053(6)
N4 N 0.84009(7) 0.94183(7) 0.36562(6)
C1 C 0.81604(9) 0.94316(8) 0.34534(8)
C2 C 0.80308(9) 0.97695(10) 0.33018(9)
C3 C 0.76947(8) 0.98221(7) 0.32358(8)
H2 H 0.7538 0.9651 0.3269
C4 C 0.76017(8) 1.01157(8) 0.31257(8)
H3 H 0.7374 1.0149 0.3084
C5 C 0.81757(9) 1.03299(9) 0.31598(9)
H4 H 0.8338 1.0497 0.3129
C6 C 0.82558(8) 1.00296(8) 0.32914(9)
H5 H 0.8471 0.9997 0.3378
C7 C 0.78198(8) 1.03858(8) 0.30654(7)
C8 C 0.77175(8) 1.06923(9) 0.29107(9)
C9 C 0.84903(9) 0.75968(9) 0.33071(9)
H6 H 0.8604 0.7418 0.3207
Mn1 Mn 0.792190(12) 0.771100(13) 0.386780(13)
Mn2 Mn 0.836172(11) 0.836172(11) 0.336172(11)
Mn3 Mn 0.896189(14) 0.896189(14) 0.396189(14)
O1ZA O 0.92305(8) 0.94264(8) 0.37850(7)
O1FA O 0.87850(7) 0.92305(8) 0.44264(8)
O1MC O 0.94264(8) 0.57695(8) 0.62150(7)
O1U O 0.92305(8) 0.62150(7) 0.55736(8)
O1JB O 0.87850(7) 0.55736(8) 0.57695(8)
H1ZA H 0.9216 0.9440 0.3579
H1FA H 0.8579 0.9216 0.4440
H1MC H 0.9440 0.5784 0.6421
H1U H 0.9216 0.6421 0.5560
H1JB H 0.8579 0.5560 0.5784
O2ZA O 0.77509(6) 0.79591(5) 0.58705(5)
O2FA O 1.08705(5) 0.77509(6) 0.29591(5)
O2MC O 0.79591(5) 0.72491(6) 0.41295(5)
O2Q O 0.70409(5) 0.77509(6) 0.41295(5)
O2QC O 0.72491(6) 0.91295(5) 0.29591(5)
O2IC O 0.91295(5) 0.79591(5) 0.22491(6)
O3ZA O 0.79200(6) 0.74147(5) 0.57780(5)
O3FA O 1.07780(5) 0.79200(6) 0.24147(5)
O3MC O 0.74147(5) 0.70800(6) 0.42220(5)
O3Q O 0.75853(5) 0.79200(6) 0.42220(5)
O3QC O 0.70800(6) 0.92220(5) 0.24147(5)
O3SA O 0.79200(6) 0.92220(5) 0.25853(5)
O3IB O 0.92220(5) 0.75853(5) 0.29200(6)
O3XA O 0.75853(5) 1.07780(5) 0.20800(6)
O3DA O 0.70800(6) 0.75853(5) 0.57780(5)
O3J O 1.07780(5) 0.70800(6) 0.25853(5)
O4FA O 0.75273(6) 0.85482(5) 0.33221(5)
O4ZA O 0.85482(5) 0.83221(5) 0.25273(6)
O4OB O 0.83221(5) 1.14518(5) 0.24727(6)
O4HC O 0.75273(6) 1.16779(5) 0.14518(5)
O4MA O 0.74727(6) 0.83221(5) 0.64518(5)
O4W O 1.14518(5) 0.74727(6) 0.33221(5)
O5FA O 0.7500 0.8560 0.25000(7)
O5ZA O 0.8560 0.75000(7) 0.2500
O5R O 0.75000(7) 1.1440 0.2500
O5MA O 0.7500 0.75000(7) 0.6440
O5W O 1.1440 0.7500 0.25000(7)
O6FA O 0.78755(5) 0.81738(5) 0.35318(5)
O6ZA O 0.81738(5) 0.85318(5) 0.28755(5)
O6OB O 0.85318(5) 1.18262(5) 0.21245(5)
O6HC O 0.78755(5) 1.14682(5) 0.18262(5)
O6MA O 0.71245(5) 0.85318(5) 0.68262(5)
O6PC O 0.68262(5) 0.78755(5) 0.64682(5)
O6LC O 1.14682(5) 0.68262(5) 0.28755(5)
O6SA O 0.81738(5) 1.21245(5) 0.14682(5)
N1ZA N 0.83446(6) 0.80536(6) 0.41276(6)
N1FA N 0.91276(6) 0.83446(6) 0.30536(6)
N1MC N 0.80536(6) 0.66554(6) 0.58724(6)
N1Q N 0.69464(6) 0.83446(6) 0.58724(6)
N1QC N 0.66554(6) 1.08724(6) 0.30536(6)
N1SA N 0.83446(6) 1.08724(6) 0.19464(6)
N1IB N 1.08724(6) 0.69464(6) 0.33446(6)
N2ZA N 0.85144(7) 0.82629(7) 0.39105(7)
N2FA N 0.89105(7) 0.85144(7) 0.32629(7)
N2MC N 0.82629(7) 0.64856(7) 0.60895(7)
N2Q N 0.67371(7) 0.85144(7) 0.60895(7)
N2QC N 0.64856(7) 1.10895(7) 0.32629(7)
N2OB N 0.82629(7) 1.14856(7) 0.10895(7)
N2SA N 0.85144(7) 1.10895(7) 0.17371(7)
N2HC N 0.89105(7) 1.17371(7) 0.14856(7)
N3ZA N 0.87053(6) 0.84718(6) 0.40843(6)
N3FA N 0.90843(6) 0.87053(6) 0.34718(6)
N3MC N 0.84718(6) 0.62947(6) 0.59157(6)
N3Q N 0.65282(6) 0.87053(6) 0.59157(6)
N3QC N 0.62947(6) 1.09157(6) 0.34718(6)
N3U N 0.87053(6) 0.59157(6) 0.65282(6)
N3JB N 0.90843(6) 0.65282(6) 0.62947(6)
N4ZA N 0.86562(6) 0.84009(7) 0.44183(7)
N4FA N 0.94183(7) 0.86562(6) 0.34009(7)
N4MC N 0.84009(7) 0.63438(6) 0.55817(7)
N4Q N 0.65991(7) 0.86562(6) 0.55817(7)
N4QC N 0.63438(6) 1.05817(7) 0.34009(7)
C1ZA C 0.84534(8) 0.81604(9) 0.44316(8)
C1FA C 0.94316(8) 0.84534(8) 0.31604(9)
C1MC C 0.81604(9) 0.65466(8) 0.55684(8)
C1Q C 0.68396(9) 0.84534(8) 0.55684(8)
C1QC C 0.65466(8) 1.05684(8) 0.31604(9)
C2ZA C 0.83018(9) 0.80308(9) 0.47695(10)
C2FA C 0.97695(10) 0.83018(9) 0.30308(9)
C2MC C 0.80308(9) 0.66982(9) 0.52305(10)
C2Q C 0.69692(9) 0.83018(9) 0.52305(10)
C2QC C 0.66982(9) 1.02305(10) 0.30308(9)
C3ZA C 0.82358(8) 0.76947(8) 0.48221(7)
C3FA C 0.98221(7) 0.82358(8) 0.26947(8)
C3MC C 0.76947(8) 0.67642(8) 0.51779(7)
C3Q C 0.73053(8) 0.82358(8) 0.51779(7)
C3QC C 0.67642(8) 1.01779(7) 0.26947(8)
H2ZA H 0.8269 0.7538 0.4651
H2FA H 0.9651 0.8269 0.2538
H2MC H 0.7538 0.6731 0.5349
H2Q H 0.7462 0.8269 0.5349
H2QC H 0.6731 1.0349 0.2538
C4ZA C 0.81257(8) 0.76017(8) 0.51157(8)
C4FA C 1.01157(8) 0.81257(8) 0.26017(8)
C4MC C 0.76017(8) 0.68743(8) 0.48843(8)
C4Q C 0.73983(8) 0.81257(8) 0.48843(8)
C4QC C 0.68743(8) 0.98843(8) 0.26017(8)
H3ZA H 0.8084 0.7374 0.5149
H3FA H 1.0149 0.8084 0.2374
H3MC H 0.7374 0.6916 0.4851
H3Q H 0.7626 0.8084 0.4851
H3QC H 0.6916 0.9851 0.2374
C5ZA C 0.81598(9) 0.81757(9) 0.53299(9)
C5FA C 1.03299(9) 0.81598(9) 0.31757(9)
C5MC C 0.81757(9) 0.68402(9) 0.46701(9)
C5Q C 0.68243(9) 0.81598(9) 0.46701(9)
C5QC C 0.68402(9) 0.96701(9) 0.31757(9)
H4ZA H 0.8129 0.8338 0.5497
H4FA H 1.0497 0.8129 0.3338
H4MC H 0.8338 0.6871 0.4503
H4Q H 0.6662 0.8129 0.4503
H4QC H 0.6871 0.9503 0.3338
C6ZA C 0.82914(9) 0.82558(8) 0.50296(8)
C6FA C 1.00296(8) 0.82914(9) 0.32558(8)
C6MC C 0.82558(8) 0.67086(9) 0.49704(8)
C6Q C 0.67442(8) 0.82914(9) 0.49704(8)
C6QC C 0.67086(9) 0.99704(8) 0.32558(8)
H5ZA H 0.8378 0.8471 0.4997
H5FA H 0.9997 0.8378 0.3471
H5MC H 0.8471 0.6622 0.5003
H5Q H 0.6529 0.8378 0.5003
H5QC H 0.6622 1.0003 0.3471
C7ZA C 0.80654(7) 0.78198(8) 0.53858(8)
C7FA C 1.03858(8) 0.80654(7) 0.28198(8)
C7MC C 0.78198(8) 0.69346(7) 0.46142(8)
C7Q C 0.71802(8) 0.80654(7) 0.46142(8)
C7QC C 0.69346(7) 0.96142(8) 0.28198(8)
C8ZA C 0.79107(9) 0.77175(8) 0.56923(9)
C8FA C 1.06923(9) 0.79107(9) 0.27175(8)
C8MC C 0.77175(8) 0.70893(9) 0.43077(9)
C8Q C 0.72825(8) 0.79107(9) 0.43077(9)
C8QC C 0.70893(9) 0.93077(9) 0.27175(8)
C9FA C 0.75968(9) 0.83071(9) 0.34903(9)
C9ZA C 0.83071(9) 0.84903(9) 0.25968(9)
C9OB C 0.84903(9) 1.16929(9) 0.24032(9)
C9HC C 0.75968(9) 1.15097(9) 0.16929(9)
C9MA C 0.74032(9) 0.84903(9) 0.66929(9)
H6FA H 0.7418 0.8207 0.3604
H6ZA H 0.8207 0.8604 0.2418
H6OB H 0.8604 1.1793 0.2582
H6HC H 0.7418 1.1396 0.1793
H6MA H 0.7582 0.8604 0.6793
Mn1FA Mn 0.771100(13) 0.886780(13) 0.292190(12)
Mn1ZA Mn 0.886780(13) 0.792190(12) 0.271100(13)
Mn1OB Mn 0.792190(12) 1.113220(13) 0.228900(13)
Mn1MA Mn 0.728900(13) 0.792190(12) 0.613220(13)
Mn1W Mn 1.113220(13) 0.728900(13) 0.292190(12)
Mn1R Mn 0.707810(12) 1.113220(13) 0.271100(13)
Mn1UB Mn 0.707810(12) 0.728900(13) 0.386780(13)
Mn1JB Mn 0.771100(13) 0.707810(12) 0.613220(13)
Mn1TA Mn 1.113220(13) 0.771100(13) 0.207810(12)
Mn1CC Mn 0.728900(13) 0.886780(13) 0.207810(12)
Mn1YB Mn 0.886780(13) 0.707810(12) 0.228900(13)
Mn1SA Mn 0.886780(13) 1.228900(13) 0.207810(12)
Mn1HC Mn 0.771100(13) 1.207810(12) 0.113220(13)
Mn1Q Mn 0.707810(12) 0.886780(13) 0.728900(13)
Mn2SA Mn 0.836172(11) 1.163828(11) 0.163828(11)
Mn2U Mn 0.836172(11) 0.663828(11) 0.663828(11)
Mn2Q Mn 0.663828(11) 0.836172(11) 0.663828(11)
Mn2R Mn 0.663828(11) 1.163828(11) 0.336172(11)
Mn3U Mn 0.896189(14) 0.603811(14) 0.603811(14)
Mn3Q Mn 0.603811(14) 0.896189(14) 0.603811(14)
Mn3R Mn 0.603811(14) 1.103811(14) 0.396189(14)
loop_
_geom_bond_atom_site_label_1
_geom_bond_atom_site_label_2
_geom_bond_site_symmetry_1
_geom_bond_site_symmetry_2
O1 H1 1_555 1_555
O2 C8 1_555 1_555
O3 C8 1_555 1_555
O4 C9 1_555 1_555
O5 Mn1 1_555 1_555
O6 C9 1_555 1_555
N1 N2 1_555 1_555
N2 N3 1_555 1_555
N3 N4 1_555 1_555
N4 C1 1_555 1_555
C1 N1 1_555 1_555
C2 C1 1_555 1_555
C3 C2 1_555 1_555
H2 C3 1_555 1_555
C4 C3 1_555 1_555
H3 C4 1_555 1_555
C5 H4 1_555 1_555
C6 C2 1_555 1_555
H5 C6 1_555 1_555
C7 C4 1_555 1_555
C8 C7 1_555 1_555
C9 H6 1_555 1_555
Mn1 O4 1_555 1_555
Mn2 O6 1_555 1_555
Mn3 O1 1_555 1_555
O1ZA Mn3 1_555 1_555
O1FA Mn3 1_555 1_555
O1MC H1MC 1_555 1_555
O1U H1U 1_555 1_555
O1JB H1JB 1_555 1_555
H1ZA O1ZA 1_555 1_555
H1FA O1FA 1_555 1_555
O2ZA C8ZA 1_555 1_555
O2FA C8FA 1_555 1_555
O2MC Mn1 1_555 1_555
O2Q C8Q 1_555 1_555
O2QC C8QC 1_555 1_555
O2IC Mn1ZA 1_555 1_555
O3ZA C8ZA 1_555 1_555
O3FA C8FA 1_555 1_555
O3MC C8MC 1_555 1_555
O3Q Mn1 1_555 1_555
O3QC C8QC 1_555 1_555
O3SA Mn1FA 1_555 1_555
O3IB Mn1ZA 1_555 1_555
O3XA Mn1OB 1_555 1_555
O3DA Mn1MA 1_555 1_555
O3J Mn1W 1_555 1_555
O4FA C9FA 1_555 1_555
O4ZA C9ZA 1_555 1_555
O4OB C9OB 1_555 1_555
O4HC C9HC 1_555 1_555
O4MA C9MA 1_555 1_555
O4W Mn1W 1_555 1_555
O5FA Mn1FA 1_555 1_555
O5ZA Mn1ZA 1_555 1_555
O5R Mn1OB 1_555 1_555
O5MA Mn1MA 1_555 1_555
O5W Mn1W 1_555 1_555
O6FA Mn1 1_555 1_555
O6ZA Mn2 1_555 1_555
O6OB C9OB 1_555 1_555
O6HC C9HC 1_555 1_555
O6MA C9MA 1_555 1_555
O6PC Mn1MA 1_555 1_555
O6LC Mn1W 1_555 1_555
O6SA Mn1HC 1_555 1_555
N1ZA Mn1 1_555 1_555
N1FA N2FA 1_555 1_555
N1MC N2MC 1_555 1_555
N1Q N2Q 1_555 1_555
N1QC N2QC 1_555 1_555
N1SA N2SA 1_555 1_555
N1IB Mn1W 1_555 1_555
N2ZA Mn2 1_555 1_555
N2FA Mn2 1_555 1_555
N2MC N3MC 1_555 1_555
N2Q N3Q 1_555 1_555
N2QC N3QC 1_555 1_555
N2OB Mn2SA 1_555 1_555
N2SA Mn2SA 1_555 1_555
N2HC Mn2SA 1_555 1_555
N3ZA Mn3 1_555 1_555
N3FA Mn3 1_555 1_555
N3MC N4MC 1_555 1_555
N3Q N4Q 1_555 1_555
N3QC N4QC 1_555 1_555
N3U Mn3U 1_555 1_555
N3JB Mn3U 1_555 1_555
N4ZA N3ZA 1_555 1_555
N4FA N3FA 1_555 1_555
N4MC C1MC 1_555 1_555
N4Q C1Q 1_555 1_555
N4QC C1QC 1_555 1_555
C1ZA N1ZA 1_555 1_555
C1FA N1FA 1_555 1_555
C1MC N1MC 1_555 1_555
C1Q N1Q 1_555 1_555
C1QC N1QC 1_555 1_555
C2ZA C1ZA 1_555 1_555
C2FA C1FA 1_555 1_555
C2MC C1MC 1_555 1_555
C2Q C1Q 1_555 1_555
C2QC C1QC 1_555 1_555
C3ZA C2ZA 1_555 1_555
C3FA C2FA 1_555 1_555
C3MC C2MC 1_555 1_555
C3Q C2Q 1_555 1_555
C3QC C2QC 1_555 1_555
H2ZA C3ZA 1_555 1_555
H2FA C3FA 1_555 1_555
H2MC C3MC 1_555 1_555
H2Q C3Q 1_555 1_555
H2QC C3QC 1_555 1_555
C4ZA C3ZA 1_555 1_555
C4FA C3FA 1_555 1_555
C4MC C3MC 1_555 1_555
C4Q C3Q 1_555 1_555
C4QC C3QC 1_555 1_555
H3ZA C4ZA 1_555 1_555
H3FA C4FA 1_555 1_555
H3MC C4MC 1_555 1_555
H3Q C4Q 1_555 1_555
H3QC C4QC 1_555 1_555
C5ZA H4ZA 1_555 1_555
C5FA H4FA 1_555 1_555
C5MC H4MC 1_555 1_555
C5Q H4Q 1_555 1_555
C5QC H4QC 1_555 1_555
C6ZA C2ZA 1_555 1_555
C6FA C2FA 1_555 1_555
C6MC C2MC 1_555 1_555
C6Q C2Q 1_555 1_555
C6QC C2QC 1_555 1_555
H5ZA C6ZA 1_555 1_555
H5FA C6FA 1_555 1_555
H5MC C6MC 1_555 1_555
H5Q C6Q 1_555 1_555
H5QC C6QC 1_555 1_555
C7ZA C4ZA 1_555 1_555
C7FA C4FA 1_555 1_555
C7MC C4MC 1_555 1_555
C7Q C4Q 1_555 1_555
C7QC C4QC 1_555 1_555
C8ZA C7ZA 1_555 1_555
C8FA C7FA 1_555 1_555
C8MC O2MC 1_555 1_555
C8Q O3Q 1_555 1_555
C8QC C7QC 1_555 1_555
C9FA O6FA 1_555 1_555
C9ZA O6ZA 1_555 1_555
C9OB H6OB 1_555 1_555
C9HC H6HC 1_555 1_555
C9MA H6MA 1_555 1_555
H6FA C9FA 1_555 1_555
H6ZA C9ZA 1_555 1_555
Mn1FA N1 1_555 1_555
Mn1ZA O6 1_555 1_555
Mn1OB O2 1_555 1_555
Mn1MA O2ZA 1_555 1_555
Mn1W O2FA 1_555 1_555
Mn1R O3 1_555 1_555
Mn1UB O5 1_555 1_555
Mn1JB O3ZA 1_555 1_555
Mn1TA O3FA 1_555 1_555
Mn1CC O3QC 1_555 1_555
Mn1YB O5ZA 1_555 1_555
Mn1SA O6OB 1_555 1_555
Mn1HC O4HC 1_555 1_555
Mn1Q O6MA 1_555 1_555
Mn2SA O6OB 1_555 1_555
Mn2U N2MC 1_555 1_555
Mn2Q O6MA 1_555 1_555
Mn2R N2QC 1_555 1_555
Mn3U O1MC 1_555 1_555
Mn3Q N3Q 1_555 1_555
Mn3R N3QC 1_555 1_555
N2 Mn2 1_555 1_555
N3 Mn3 1_555 1_555
C5 C6 1_555 1_555
C5 C7 1_555 1_555
Mn2 O6FA 1_555 1_555
O1U Mn3U 1_555 1_555
O1JB Mn3U 1_555 1_555
O2Q Mn1UB 1_555 1_555
O2QC Mn1FA 1_555 1_555
O3MC Mn1UB 1_555 1_555
O4FA Mn1FA 1_555 1_555
O4ZA Mn1ZA 1_555 1_555
O4OB Mn1OB 1_555 1_555
O4MA Mn1MA 1_555 1_555
O5FA Mn1CC 1_555 1_555
O5R Mn1R 1_555 1_555
O5MA Mn1JB 1_555 1_555
O5W Mn1TA 1_555 1_555
O6ZA Mn1FA 1_555 1_555
O6HC Mn1OB 1_555 1_555
O6HC Mn2SA 1_555 1_555
O6PC Mn2Q 1_555 1_555
O6SA Mn2SA 1_555 1_555
N1ZA N2ZA 1_555 1_555
N1FA Mn1ZA 1_555 1_555
N1MC Mn1JB 1_555 1_555
N1Q Mn1MA 1_555 1_555
N1QC Mn1R 1_555 1_555
N1SA Mn1OB 1_555 1_555
N2ZA N3ZA 1_555 1_555
N2FA N3FA 1_555 1_555
N2Q Mn2Q 1_555 1_555
N3MC Mn3U 1_555 1_555
N4ZA C1ZA 1_555 1_555
N4FA C1FA 1_555 1_555
C5ZA C6ZA 1_555 1_555
C5ZA C7ZA 1_555 1_555
C5FA C6FA 1_555 1_555
C5FA C7FA 1_555 1_555
C5MC C6MC 1_555 1_555
C5MC C7MC 1_555 1_555
C5Q C6Q 1_555 1_555
C5Q C7Q 1_555 1_555
C5QC C6QC 1_555 1_555
C5QC C7QC 1_555 1_555
C7MC C8MC 1_555 1_555
C7Q C8Q 1_555 1_555

#END
