
#######################################################################
#
#                 Cambridge Crystallographic Data Centre
#                                CCDC 
#
#######################################################################
#
# If this CIF has been generated from an entry in the Cambridge 
# Structural Database, then it will include bibliographic, chemical, 
# crystal, experimental, refinement or atomic coordinate data resulting 
# from the CCDC's data processing and validation procedures.
#
#######################################################################

data_QUTVIM01
_chemical_formula_moiety         'C36 Fe1 K6 N48'
_symmetry_cell_setting           cubic
_symmetry_space_group_name_H-M   'F m -3 m'
_symmetry_Int_Tables_number      225
_space_group_name_Hall           '-F 4 2 3'
loop_
_symmetry_equiv_pos_site_id
_symmetry_equiv_pos_as_xyz
1 x,y,z
2 -x,-y,z
3 -x,y,-z
4 x,-y,-z
5 z,x,y
6 z,-x,-y
7 -z,-x,y
8 -z,x,-y
9 y,z,x
10 -y,z,-x
11 y,-z,-x
12 -y,-z,x
13 y,x,-z
14 -y,-x,-z
15 y,-x,z
16 -y,x,z
17 x,z,-y
18 -x,z,y
19 -x,-z,-y
20 x,-z,y
21 z,y,-x
22 z,-y,x
23 -z,y,x
24 -z,-y,-x
25 x,1/2+y,1/2+z
26 -x,1/2-y,1/2+z
27 -x,1/2+y,1/2-z
28 x,1/2-y,1/2-z
29 z,1/2+x,1/2+y
30 z,1/2-x,1/2-y
31 -z,1/2-x,1/2+y
32 -z,1/2+x,1/2-y
33 y,1/2+z,1/2+x
34 -y,1/2+z,1/2-x
35 y,1/2-z,1/2-x
36 -y,1/2-z,1/2+x
37 y,1/2+x,1/2-z
38 -y,1/2-x,1/2-z
39 y,1/2-x,1/2+z
40 -y,1/2+x,1/2+z
41 x,1/2+z,1/2-y
42 -x,1/2+z,1/2+y
43 -x,1/2-z,1/2-y
44 x,1/2-z,1/2+y
45 z,1/2+y,1/2-x
46 z,1/2-y,1/2+x
47 -z,1/2+y,1/2+x
48 -z,1/2-y,1/2-x
49 1/2+x,y,1/2+z
50 1/2-x,-y,1/2+z
51 1/2-x,y,1/2-z
52 1/2+x,-y,1/2-z
53 1/2+z,x,1/2+y
54 1/2+z,-x,1/2-y
55 1/2-z,-x,1/2+y
56 1/2-z,x,1/2-y
57 1/2+y,z,1/2+x
58 1/2-y,z,1/2-x
59 1/2+y,-z,1/2-x
60 1/2-y,-z,1/2+x
61 1/2+y,x,1/2-z
62 1/2-y,-x,1/2-z
63 1/2+y,-x,1/2+z
64 1/2-y,x,1/2+z
65 1/2+x,z,1/2-y
66 1/2-x,z,1/2+y
67 1/2-x,-z,1/2-y
68 1/2+x,-z,1/2+y
69 1/2+z,y,1/2-x
70 1/2+z,-y,1/2+x
71 1/2-z,y,1/2+x
72 1/2-z,-y,1/2-x
73 1/2+x,1/2+y,z
74 1/2-x,1/2-y,z
75 1/2-x,1/2+y,-z
76 1/2+x,1/2-y,-z
77 1/2+z,1/2+x,y
78 1/2+z,1/2-x,-y
79 1/2-z,1/2-x,y
80 1/2-z,1/2+x,-y
81 1/2+y,1/2+z,x
82 1/2-y,1/2+z,-x
83 1/2+y,1/2-z,-x
84 1/2-y,1/2-z,x
85 1/2+y,1/2+x,-z
86 1/2-y,1/2-x,-z
87 1/2+y,1/2-x,z
88 1/2-y,1/2+x,z
89 1/2+x,1/2+z,-y
90 1/2-x,1/2+z,y
91 1/2-x,1/2-z,-y
92 1/2+x,1/2-z,y
93 1/2+z,1/2+y,-x
94 1/2+z,1/2-y,x
95 1/2-z,1/2+y,x
96 1/2-z,1/2-y,-x
97 -x,-y,-z
98 x,y,-z
99 x,-y,z
100 -x,y,z
101 -z,-x,-y
102 -z,x,y
103 z,x,-y
104 z,-x,y
105 -y,-z,-x
106 y,-z,x
107 -y,z,x
108 y,z,-x
109 -y,-x,z
110 y,x,z
111 -y,x,-z
112 y,-x,-z
113 -x,-z,y
114 x,-z,-y
115 x,z,y
116 -x,z,-y
117 -z,-y,x
118 -z,y,-x
119 z,-y,-x
120 z,y,x
121 -x,1/2-y,1/2-z
122 x,1/2+y,1/2-z
123 x,1/2-y,1/2+z
124 -x,1/2+y,1/2+z
125 -z,1/2-x,1/2-y
126 -z,1/2+x,1/2+y
127 z,1/2+x,1/2-y
128 z,1/2-x,1/2+y
129 -y,1/2-z,1/2-x
130 y,1/2-z,1/2+x
131 -y,1/2+z,1/2+x
132 y,1/2+z,1/2-x
133 -y,1/2-x,1/2+z
134 y,1/2+x,1/2+z
135 -y,1/2+x,1/2-z
136 y,1/2-x,1/2-z
137 -x,1/2-z,1/2+y
138 x,1/2-z,1/2-y
139 x,1/2+z,1/2+y
140 -x,1/2+z,1/2-y
141 -z,1/2-y,1/2+x
142 -z,1/2+y,1/2-x
143 z,1/2-y,1/2-x
144 z,1/2+y,1/2+x
145 1/2-x,-y,1/2-z
146 1/2+x,y,1/2-z
147 1/2+x,-y,1/2+z
148 1/2-x,y,1/2+z
149 1/2-z,-x,1/2-y
150 1/2-z,x,1/2+y
151 1/2+z,x,1/2-y
152 1/2+z,-x,1/2+y
153 1/2-y,-z,1/2-x
154 1/2+y,-z,1/2+x
155 1/2-y,z,1/2+x
156 1/2+y,z,1/2-x
157 1/2-y,-x,1/2+z
158 1/2+y,x,1/2+z
159 1/2-y,x,1/2-z
160 1/2+y,-x,1/2-z
161 1/2-x,-z,1/2+y
162 1/2+x,-z,1/2-y
163 1/2+x,z,1/2+y
164 1/2-x,z,1/2-y
165 1/2-z,-y,1/2+x
166 1/2-z,y,1/2-x
167 1/2+z,-y,1/2-x
168 1/2+z,y,1/2+x
169 1/2-x,1/2-y,-z
170 1/2+x,1/2+y,-z
171 1/2+x,1/2-y,z
172 1/2-x,1/2+y,z
173 1/2-z,1/2-x,-y
174 1/2-z,1/2+x,y
175 1/2+z,1/2+x,-y
176 1/2+z,1/2-x,y
177 1/2-y,1/2-z,-x
178 1/2+y,1/2-z,x
179 1/2-y,1/2+z,x
180 1/2+y,1/2+z,-x
181 1/2-y,1/2-x,z
182 1/2+y,1/2+x,z
183 1/2-y,1/2+x,-z
184 1/2+y,1/2-x,-z
185 1/2-x,1/2-z,y
186 1/2+x,1/2-z,-y
187 1/2+x,1/2+z,y
188 1/2-x,1/2+z,-y
189 1/2-z,1/2-y,x
190 1/2-z,1/2+y,-x
191 1/2+z,1/2-y,-x
192 1/2+z,1/2+y,x
_cell_length_a                   12.104(2)
_cell_length_b                   12.104(2)
_cell_length_c                   12.104(2)
_cell_angle_alpha                90
_cell_angle_beta                 90
_cell_angle_gamma                90
_cell_volume                     1773.32
loop_
_atom_site_label
_atom_site_type_symbol
_atom_site_fract_x
_atom_site_fract_y
_atom_site_fract_z
Fe1 Fe 0.0000 0.5000 0.0000
K1 K 0.0000 0.5000 0.5000
C1 C -0.0159(9) 0.4841(9) 0.1596(6)
N1 N 0.019(2) 0.519(2) 0.2538(4)
C1A C 0.0159(9) 0.5159(9) 0.1596(6)
N1A N -0.019(2) 0.481(2) 0.2538(4)
C1HC C -0.0159(9) 0.5159(9) 0.1596(6)
N1HC N 0.019(2) 0.481(2) 0.2538(4)
C1IC C 0.0159(9) 0.4841(9) 0.1596(6)
N1IC N -0.019(2) 0.519(2) 0.2538(4)
C1B C 0.0159(9) 0.4841(9) -0.1596(6)
N1B N -0.019(2) 0.519(2) -0.2538(4)
C1C C -0.0159(9) 0.5159(9) -0.1596(6)
N1C N 0.019(2) 0.481(2) -0.2538(4)
C1GC C 0.0159(9) 0.5159(9) -0.1596(6)
N1GC N -0.019(2) 0.481(2) -0.2538(4)
C1FC C -0.0159(9) 0.4841(9) -0.1596(6)
N1FC N 0.019(2) 0.519(2) -0.2538(4)
C1T C 0.1596(6) 0.4841(9) 0.0159(9)
N1T N 0.2538(4) 0.519(2) -0.019(2)
C1U C 0.1596(6) 0.5159(9) -0.0159(9)
N1U N 0.2538(4) 0.481(2) 0.019(2)
C1CA C 0.1596(6) 0.5159(9) 0.0159(9)
N1CA N 0.2538(4) 0.481(2) -0.019(2)
C1BA C 0.1596(6) 0.4841(9) -0.0159(9)
N1BA N 0.2538(4) 0.519(2) 0.019(2)
C1V C -0.1596(6) 0.4841(9) -0.0159(9)
N1V N -0.2538(4) 0.519(2) 0.019(2)
C1W C -0.1596(6) 0.5159(9) 0.0159(9)
N1W N -0.2538(4) 0.481(2) -0.019(2)
C1DA C -0.1596(6) 0.5159(9) -0.0159(9)
N1DA N -0.2538(4) 0.481(2) 0.019(2)
C1EA C -0.1596(6) 0.4841(9) 0.0159(9)
N1EA N -0.2538(4) 0.519(2) -0.019(2)
C1NA C -0.0159(9) 0.6596(6) 0.0159(9)
N1NA N 0.019(2) 0.7538(4) -0.019(2)
C1OA C 0.0159(9) 0.6596(6) -0.0159(9)
N1OA N -0.019(2) 0.7538(4) 0.019(2)
C1BC C -0.0159(9) 0.6596(6) -0.0159(9)
N1BC N 0.019(2) 0.7538(4) 0.019(2)
C1CC C 0.0159(9) 0.6596(6) 0.0159(9)
N1CC N -0.019(2) 0.7538(4) -0.019(2)
C1PA C 0.0159(9) 0.3404(6) 0.0159(9)
N1PA N -0.019(2) 0.2462(4) -0.019(2)
C1QA C -0.0159(9) 0.3404(6) -0.0159(9)
N1QA N 0.019(2) 0.2462(4) 0.019(2)
C1EC C 0.0159(9) 0.3404(6) -0.0159(9)
N1EC N -0.019(2) 0.2462(4) 0.019(2)
C1DC C -0.0159(9) 0.3404(6) 0.0159(9)
N1DC N 0.019(2) 0.2462(4) -0.019(2)
K1_2 K 0.0000 0.5000 -0.5000
K1H K -0.5000 0.5000 0.0000
K1H_2 K 0.5000 0.5000 0.0000
K1X K 0.0000 0.0000 0.0000
K1X_2 K 0.0000 1.0000 0.0000
N1B_2 N -0.019(2) 0.519(2) 0.7462(4)
N1C_2 N 0.019(2) 0.481(2) 0.7462(4)
N1P N 0.019(2) 0.2538(4) 0.481(2)
N1Q N -0.019(2) 0.2538(4) 0.519(2)
N1R N -0.019(2) 0.7462(4) 0.481(2)
N1S N 0.019(2) 0.7462(4) 0.519(2)
N1DB N 0.019(2) 0.2538(4) 0.519(2)
N1EB N -0.019(2) 0.2538(4) 0.481(2)
N1FB N 0.019(2) 0.7462(4) 0.481(2)
N1GB N -0.019(2) 0.7462(4) 0.519(2)
N1PB N -0.2462(4) 0.519(2) 0.481(2)
N1QB N -0.2462(4) 0.481(2) 0.519(2)
N1RB N 0.2462(4) 0.519(2) 0.519(2)
N1SB N 0.2462(4) 0.481(2) 0.481(2)
N1XB N -0.2462(4) 0.519(2) 0.519(2)
N1YB N -0.2462(4) 0.481(2) 0.481(2)
N1ZB N 0.2462(4) 0.481(2) 0.519(2)
N1AC N 0.2462(4) 0.519(2) 0.481(2)
N1FC_2 N 0.019(2) 0.519(2) 0.7462(4)
N1GC_2 N -0.019(2) 0.481(2) 0.7462(4)
N2 N 0.2269(7) 0.7269(7) 0.2269(7)
C2 C 0.2326(8) 0.6707(9) 0.3293(9)
N2E N 0.2269(7) 0.7731(7) 0.2731(7)
C2E C 0.3293(9) 0.7674(8) 0.3293(9)
N2K N 0.2731(7) 0.7731(7) 0.2269(7)
C2K C 0.3293(9) 0.6707(9) 0.2326(8)
C2AA C 0.2326(8) 0.8293(9) 0.1707(9)
C2BA C 0.3293(9) 0.7326(8) 0.1707(9)
N2GA N 0.2731(7) 0.7269(7) 0.2731(7)
C2GA C 0.3293(9) 0.8293(9) 0.2674(8)
C2XA C 0.2674(8) 0.6707(9) 0.1707(9)
C2BB C 0.1707(9) 0.7674(8) 0.1707(9)
C2FB C 0.1707(9) 0.6707(9) 0.2674(8)
C2UB C 0.2674(8) 0.8293(9) 0.3293(9)
C2AC C 0.1707(9) 0.7326(8) 0.3293(9)
C2BC C 0.1707(9) 0.8293(9) 0.2326(8)
loop_
_geom_bond_atom_site_label_1
_geom_bond_atom_site_label_2
_geom_bond_site_symmetry_1
_geom_bond_site_symmetry_2
Fe1 C1 1_555 1_555
K1 N1 1_555 1_555
C1 N1 1_555 1_555
N1 C1A 1_555 1_555
N2 C2 1_555 1_555
C2 N2E 1_555 1_555
C1A Fe1 1_555 1_555
N1A K1 1_555 1_555
C1HC Fe1 1_555 1_555
N1HC K1 1_555 1_555
C1IC Fe1 1_555 1_555
N1IC K1 1_555 1_555
C1B Fe1 1_555 1_555
N1B C1B 1_555 1_555
C1C Fe1 1_555 1_555
N1C C1B 1_555 1_555
C1GC Fe1 1_555 1_555
N1GC C1B 1_555 1_555
C1FC Fe1 1_555 1_555
N1FC C1B 1_555 1_555
C1T Fe1 1_555 1_555
N1T C1T 1_555 1_555
C1U Fe1 1_555 1_555
N1U C1T 1_555 1_555
C1CA Fe1 1_555 1_555
N1CA C1T 1_555 1_555
C1BA Fe1 1_555 1_555
N1BA C1T 1_555 1_555
C1V Fe1 1_555 1_555
N1V C1V 1_555 1_555
C1W Fe1 1_555 1_555
N1W C1V 1_555 1_555
C1DA Fe1 1_555 1_555
N1DA C1V 1_555 1_555
C1EA Fe1 1_555 1_555
N1EA C1V 1_555 1_555
C1NA Fe1 1_555 1_555
N1NA C1NA 1_555 1_555
C1OA Fe1 1_555 1_555
N1OA C1NA 1_555 1_555
C1BC Fe1 1_555 1_555
N1BC C1NA 1_555 1_555
C1CC Fe1 1_555 1_555
N1CC C1NA 1_555 1_555
C1PA Fe1 1_555 1_555
N1PA C1PA 1_555 1_555
C1QA Fe1 1_555 1_555
N1QA C1PA 1_555 1_555
C1EC Fe1 1_555 1_555
N1EC C1PA 1_555 1_555
C1DC Fe1 1_555 1_555
N1DC C1PA 1_555 1_555
K1_2 N1B 1_555 1_555
K1H N1V 1_555 1_555
K1H_2 N1T 1_555 1_555
K1X N1PA 1_555 1_555
K1X_2 N1NA 1_555 1_555
N1B_2 K1 1_555 1_555
N1C_2 K1 1_555 1_555
N1P K1 1_555 1_555
N1Q K1 1_555 1_555
N1R K1 1_555 1_555
N1S K1 1_555 1_555
N1DB K1 1_555 1_555
N1EB K1 1_555 1_555
N1FB K1 1_555 1_555
N1GB K1 1_555 1_555
N1PB K1 1_555 1_555
N1QB K1 1_555 1_555
N1RB K1 1_555 1_555
N1SB K1 1_555 1_555
N1XB K1 1_555 1_555
N1YB K1 1_555 1_555
N1ZB K1 1_555 1_555
N1AC K1 1_555 1_555
N1FC_2 K1 1_555 1_555
N1GC_2 K1 1_555 1_555
N2E N2 1_555 1_555
C2E C2 1_555 1_555
N2K N2 1_555 1_555
C2K N2 1_555 1_555
C2AA N2 1_555 1_555
C2BA N2 1_555 1_555
N2GA N2 1_555 1_555
C2GA N2E 1_555 1_555
C2XA N2 1_555 1_555
C2BB N2 1_555 1_555
C2FB N2 1_555 1_555
C2UB N2E 1_555 1_555
C2AC N2 1_555 1_555
C2BC N2 1_555 1_555
C1 N1A 1_555 1_555
C1 N1HC 1_555 1_555
C1 N1IC 1_555 1_555
N1 N1A 1_555 1_555
N1 C1HC 1_555 1_555
N1 C1IC 1_555 1_555
C2 C2K 1_555 1_555
C2 N2GA 1_555 1_555
C2 C2FB 1_555 1_555
C2 C2AC 1_555 1_555
C1A N1A 1_555 1_555
C1A N1HC 1_555 1_555
C1A N1IC 1_555 1_555
N1A C1HC 1_555 1_555
N1A C1IC 1_555 1_555
C1HC N1HC 1_555 1_555
C1HC N1IC 1_555 1_555
N1HC C1IC 1_555 1_555
N1HC N1IC 1_555 1_555
C1IC N1IC 1_555 1_555
N1B C1C 1_555 1_555
N1B N1C 1_555 1_555
N1B C1GC 1_555 1_555
N1B C1FC 1_555 1_555
C1C N1C 1_555 1_555
C1C N1GC 1_555 1_555
C1C N1FC 1_555 1_555
N1C C1GC 1_555 1_555
N1C C1FC 1_555 1_555
N1C K1_2 1_555 1_555
C1GC N1GC 1_555 1_555
C1GC N1FC 1_555 1_555
N1GC C1FC 1_555 1_555
N1GC N1FC 1_555 1_555
N1GC K1_2 1_555 1_555
C1FC N1FC 1_555 1_555
N1FC K1_2 1_555 1_555
N1T C1U 1_555 1_555
N1T N1U 1_555 1_555
N1T C1CA 1_555 1_555
N1T C1BA 1_555 1_555
C1U N1U 1_555 1_555
C1U N1CA 1_555 1_555
C1U N1BA 1_555 1_555
N1U C1CA 1_555 1_555
N1U C1BA 1_555 1_555
N1U K1H_2 1_555 1_555
C1CA N1CA 1_555 1_555
C1CA N1BA 1_555 1_555
N1CA C1BA 1_555 1_555
N1CA N1BA 1_555 1_555
N1CA K1H_2 1_555 1_555
C1BA N1BA 1_555 1_555
N1BA K1H_2 1_555 1_555
N1V C1W 1_555 1_555
N1V N1W 1_555 1_555
N1V C1DA 1_555 1_555
N1V C1EA 1_555 1_555
C1W N1W 1_555 1_555
C1W N1DA 1_555 1_555
C1W N1EA 1_555 1_555
N1W C1DA 1_555 1_555
N1W C1EA 1_555 1_555
N1W K1H 1_555 1_555
C1DA N1DA 1_555 1_555
C1DA N1EA 1_555 1_555
N1DA C1EA 1_555 1_555
N1DA N1EA 1_555 1_555
N1DA K1H 1_555 1_555
C1EA N1EA 1_555 1_555
N1EA K1H 1_555 1_555
N1NA C1OA 1_555 1_555
N1NA N1OA 1_555 1_555
N1NA C1BC 1_555 1_555
N1NA C1CC 1_555 1_555
C1OA N1OA 1_555 1_555
C1OA N1BC 1_555 1_555
C1OA N1CC 1_555 1_555
N1OA C1BC 1_555 1_555
N1OA C1CC 1_555 1_555
N1OA K1X_2 1_555 1_555
C1BC N1BC 1_555 1_555
C1BC N1CC 1_555 1_555
N1BC C1CC 1_555 1_555
N1BC N1CC 1_555 1_555
N1BC K1X_2 1_555 1_555
C1CC N1CC 1_555 1_555
N1CC K1X_2 1_555 1_555
N1PA C1QA 1_555 1_555
N1PA N1QA 1_555 1_555
N1PA C1EC 1_555 1_555
N1PA C1DC 1_555 1_555
C1QA N1QA 1_555 1_555
C1QA N1EC 1_555 1_555
C1QA N1DC 1_555 1_555
N1QA C1EC 1_555 1_555
N1QA C1DC 1_555 1_555
N1QA K1X 1_555 1_555
C1EC N1EC 1_555 1_555
C1EC N1DC 1_555 1_555
N1EC C1DC 1_555 1_555
N1EC N1DC 1_555 1_555
N1EC K1X 1_555 1_555
C1DC N1DC 1_555 1_555
N1DC K1X 1_555 1_555
N1B_2 N1C_2 1_555 1_555
N1P N1Q 1_555 1_555
N1R N1S 1_555 1_555
N1DB N1EB 1_555 1_555
N1FB N1GB 1_555 1_555
N1PB N1QB 1_555 1_555
N1RB N1SB 1_555 1_555
N1XB N1YB 1_555 1_555
N1ZB N1AC 1_555 1_555
N1FC_2 N1GC_2 1_555 1_555
N2E C2E 1_555 1_555
N2E N2K 1_555 1_555
N2E C2AA 1_555 1_555
N2E N2GA 1_555 1_555
N2E C2BB 1_555 1_555
N2E C2FB 1_555 1_555
N2E C2AC 1_555 1_555
N2E C2BC 1_555 1_555
C2E N2K 1_555 1_555
C2E C2K 1_555 1_555
C2E N2GA 1_555 1_555
C2E C2GA 1_555 1_555
C2E C2UB 1_555 1_555
N2K C2K 1_555 1_555
N2K C2AA 1_555 1_555
N2K C2BA 1_555 1_555
N2K N2GA 1_555 1_555
N2K C2GA 1_555 1_555
N2K C2XA 1_555 1_555
N2K C2BB 1_555 1_555
N2K C2UB 1_555 1_555
N2K C2BC 1_555 1_555
C2K C2BA 1_555 1_555
C2K N2GA 1_555 1_555
C2K C2XA 1_555 1_555
C2AA C2BA 1_555 1_555
C2AA C2GA 1_555 1_555
C2AA C2BB 1_555 1_555
C2AA C2BC 1_555 1_555
C2BA N2GA 1_555 1_555
C2BA C2GA 1_555 1_555
C2BA C2XA 1_555 1_555
N2GA C2GA 1_555 1_555
N2GA C2XA 1_555 1_555
N2GA C2FB 1_555 1_555
N2GA C2UB 1_555 1_555
N2GA C2AC 1_555 1_555
C2GA C2UB 1_555 1_555
C2XA C2BB 1_555 1_555
C2XA C2FB 1_555 1_555
C2BB C2FB 1_555 1_555
C2BB C2BC 1_555 1_555
C2FB C2AC 1_555 1_555
C2UB C2AC 1_555 1_555
C2UB C2BC 1_555 1_555
C2AC C2BC 1_555 1_555

#END
