
#######################################################################
#
#                 Cambridge Crystallographic Data Centre
#                                CCDC 
#
#######################################################################
#
# If this CIF has been generated from an entry in the Cambridge 
# Structural Database, then it will include bibliographic, chemical, 
# crystal, experimental, refinement or atomic coordinate data resulting 
# from the CCDC's data processing and validation procedures.
#
#######################################################################

data_MAKRIC
_chemical_formula_moiety         'C58 H48 K8 N6 Ni1 O22'
_symmetry_cell_setting           triclinic
_symmetry_space_group_name_H-M   'P -1'
_symmetry_Int_Tables_number      2
_space_group_name_Hall           '-P 1'
loop_
_symmetry_equiv_pos_site_id
_symmetry_equiv_pos_as_xyz
1 x,y,z
2 -x,-y,-z
_cell_length_a                   8.4470(14)
_cell_length_b                   11.1251(19)
_cell_length_c                   17.581(3)
_cell_angle_alpha                77.882(3)
_cell_angle_beta                 88.741(3)
_cell_angle_gamma                79.060(3)
_cell_volume                     1585.71
loop_
_atom_site_label
_atom_site_type_symbol
_atom_site_fract_x
_atom_site_fract_y
_atom_site_fract_z
Ni1 Ni 0.0000 0.5000 0.5000
C1 C -0.2065(6) 0.4863(4) 0.3652(3)
C2 C -0.2040(7) 0.4279(5) 0.3012(3)
H1 H -0.2882 0.4374 0.2660
C3 C -0.0558(7) 0.3553(5) 0.3006(3)
H2 H -0.0189 0.3059 0.2649
C4 C 0.0343(6) 0.3697(4) 0.3667(3)
C5 C 0.1885(6) 0.3075(4) 0.3848(3)
C6 C 0.2686(6) 0.3171(4) 0.4480(3)
C7 C 0.4284(6) 0.2508(5) 0.4717(3)
H3 H 0.4939 0.1967 0.4452
C8 C 0.4667(6) 0.2782(6) 0.5358(3)
H4 H 0.5610 0.2433 0.5650
C9 C 0.3368(5) 0.3732(4) 0.5547(3)
C10 C 0.3395(6) 0.4237(5) 0.6178(3)
C11 C 0.2707(6) 0.2255(4) 0.3312(3)
C12 C 0.3569(7) 0.2781(5) 0.2685(3)
H5 H 0.3681 0.3613 0.2614
C13 C 0.4281(7) 0.2028(5) 0.2152(3)
H6 H 0.4851 0.2380 0.1732
C14 C 0.4141(6) 0.0843(4) 0.2247(3)
C15 C 0.3288(8) 0.0292(5) 0.2869(3)
H7 H 0.3178 -0.0539 0.2931
C16 C 0.2597(7) 0.1014(5) 0.3402(3)
H8 H 0.2053 0.0644 0.3826
C17 C 0.5822(6) 0.0392(5) 0.1179(3)
H9 H 0.6482 -0.0363 0.1068
H10 H 0.6530 0.0837 0.1392
C18 C 0.5082(6) 0.1212(5) 0.0416(3)
C19 C 0.4787(6) 0.3868(4) 0.6741(3)
C20 C 0.4539(6) 0.3242(5) 0.7500(3)
H11 H 0.3524 0.3069 0.7639
C21 C 0.5783(6) 0.2880(5) 0.8043(3)
H12 H 0.5605 0.2464 0.8545
C22 C 0.7302(6) 0.3137(5) 0.7842(3)
C23 C 0.7556(6) 0.3746(5) 0.7094(3)
H13 H 0.8572 0.3913 0.6953
C24 C 0.6293(6) 0.4112(5) 0.6548(3)
H14 H 0.6474 0.4527 0.6046
C25 C 0.9986(6) 0.2980(5) 0.8332(3)
H15 H 0.9938 0.3875 0.8262
H16 H 1.0474 0.2708 0.7877
C26 C 1.0950(6) 0.2305(5) 0.9043(3)
K1 K 0.84368(16) 0.00772(13) 0.90829(8)
N1 N -0.0603(4) 0.4494(3) 0.4068(2)
N2 N 0.2123(4) 0.3929(4) 0.5006(2)
O1 O 0.4696(5) 0.0042(3) 0.1756(2)
O2 O 0.3566(4) 0.1653(4) 0.0397(2)
O3 O 0.6008(5) 0.1370(4) -0.0133(2)
O4 O 0.8433(4) 0.2705(4) 0.8431(2)
O5 O 1.2254(4) 0.2730(4) 0.9123(2)
H17 H 1.2555 0.2527 0.9580
O6 O 1.0583(4) 0.1444(4) 0.9484(2)
C27 C 1.0913(11) -0.0126(9) 0.7310(6)
H18 H 1.1373 -0.0943 0.7548
C28 C 1.2235(15) -0.0535(11) 0.6103(7)
H19 H 1.2485 -0.1365 0.6420
H20 H 1.1677 -0.0555 0.5638
H21 H 1.3216 -0.0230 0.5968
C29 C 1.0504(18) 0.1464(10) 0.6102(8)
H22 H 0.9777 0.1880 0.6433
H23 H 1.1317 0.1950 0.5924
H24 H 0.9917 0.1373 0.5662
N3 N 1.1244(9) 0.0268(6) 0.6522(5)
O7 O 1.0123(9) 0.0470(7) 0.7689(4)
C1A C 0.2065(6) 0.5137(4) 0.6348(3)
C2A C 0.2040(7) 0.5721(5) 0.6988(3)
H1A H 0.2882 0.5626 0.7340
C3A C 0.0558(7) 0.6447(5) 0.6994(3)
H2A H 0.0189 0.6941 0.7351
C4A C -0.0343(6) 0.6303(4) 0.6333(3)
C5A C -0.1885(6) 0.6925(4) 0.6152(3)
C6A C -0.2686(6) 0.6829(4) 0.5520(3)
C7A C -0.4284(6) 0.7492(5) 0.5283(3)
H3A H -0.4939 0.8033 0.5548
C8A C -0.4667(6) 0.7218(6) 0.4642(3)
H4A H -0.5610 0.7567 0.4350
C9A C -0.3368(5) 0.6268(4) 0.4453(3)
C10A C -0.3395(6) 0.5763(5) 0.3822(3)
C11A C -0.2707(6) 0.7745(4) 0.6688(3)
C12A C -0.3569(7) 0.7219(5) 0.7315(3)
H5A H -0.3681 0.6387 0.7386
C13A C -0.4281(7) 0.7972(5) 0.7848(3)
H6A H -0.4851 0.7620 0.8268
C14A C -0.4141(6) 0.9157(4) 0.7753(3)
C15A C -0.3288(8) 0.9708(5) 0.7131(3)
H7A H -0.3178 1.0539 0.7069
C16A C -0.2597(7) 0.8986(5) 0.6598(3)
H8A H -0.2053 0.9356 0.6174
C17A C -0.5822(6) 0.9608(5) 0.8821(3)
H9A H -0.6482 1.0363 0.8932
H10A H -0.6530 0.9163 0.8608
C18A C -0.5082(6) 0.8788(5) 0.9584(3)
C19A C -0.4787(6) 0.6132(4) 0.3259(3)
C20A C -0.4539(6) 0.6758(5) 0.2500(3)
H11A H -0.3524 0.6931 0.2361
C21A C -0.5783(6) 0.7120(5) 0.1957(3)
H12A H -0.5605 0.7536 0.1455
C22A C -0.7302(6) 0.6863(5) 0.2158(3)
C23A C -0.7556(6) 0.6254(5) 0.2906(3)
H13A H -0.8572 0.6087 0.3047
C24A C -0.6293(6) 0.5888(5) 0.3452(3)
H14A H -0.6474 0.5473 0.3954
C25A C -0.9986(6) 0.7020(5) 0.1668(3)
H15A H -0.9938 0.6125 0.1738
H16A H -1.0474 0.7292 0.2123
C26A C -1.0950(6) 0.7695(5) 0.0957(3)
N1A N 0.0603(4) 0.5506(3) 0.5932(2)
N2A N -0.2123(4) 0.6071(4) 0.4994(2)
O1A O -0.4696(5) 0.9958(3) 0.8244(2)
O2A O -0.3566(4) 0.8347(4) 0.9603(2)
O3A O -0.6008(5) 0.8630(4) 1.0133(2)
O4A O -0.8433(4) 0.7295(4) 0.1569(2)
O5A O -1.2254(4) 0.7270(4) 0.0877(2)
H17A H -1.2555 0.7473 0.0420
O6A O -1.0583(4) 0.8556(4) 0.0516(2)
K1A K -0.84368(16) 0.99228(13) 0.09171(8)
C27A C -1.0913(11) 1.0126(9) 0.2690(6)
H18A H -1.1373 1.0943 0.2452
C28A C -1.2235(15) 1.0535(11) 0.3897(7)
H19A H -1.2485 1.1365 0.3580
H20A H -1.1677 1.0555 0.4362
H21A H -1.3216 1.0230 0.4032
C29A C -1.0504(18) 0.8536(10) 0.3898(8)
H22A H -0.9777 0.8120 0.3567
H23A H -1.1317 0.8050 0.4076
H24A H -0.9917 0.8627 0.4338
N3A N -1.1244(9) 0.9732(6) 0.3478(5)
O7A O -1.0123(9) 0.9530(7) 0.2311(4)
K1_2 K -1.15632(16) 1.00772(13) -0.09171(8)
K1_3 K -0.15632(16) 1.00772(13) 0.90829(8)
K1_4 K 0.84368(16) 0.00772(13) -0.09171(8)
K1A_2 K -0.84368(16) 0.99228(13) 1.09171(8)
K1A_3 K 0.15632(16) -0.00772(13) 0.09171(8)
K1A_4 K 1.15632(16) -0.00772(13) 1.09171(8)
O1_2 O -0.5304(5) 1.0042(3) 0.1756(2)
O1A_2 O 0.5304(5) -0.0042(3) 0.8244(2)
O2_2 O -0.6434(4) 1.1653(4) 0.0397(2)
O2A_2 O 0.6434(4) -0.1653(4) 0.9603(2)
O3_2 O 0.6008(5) 0.1370(4) 0.9867(2)
O3A_2 O -0.6008(5) 0.8630(4) 0.0133(2)
O6_2 O -0.9417(4) 1.1444(4) -0.0516(2)
O6A_2 O 0.9417(4) -0.1444(4) 1.0516(2)
loop_
_geom_bond_atom_site_label_1
_geom_bond_atom_site_label_2
_geom_bond_site_symmetry_1
_geom_bond_site_symmetry_2
Ni1 N1 1_555 1_555
C1 C2 1_555 1_555
C2 H1 1_555 1_555
C3 C2 1_555 1_555
H2 C3 1_555 1_555
C4 C3 1_555 1_555
C5 C4 1_555 1_555
C6 C5 1_555 1_555
C7 C6 1_555 1_555
H3 C7 1_555 1_555
C8 C7 1_555 1_555
H4 C8 1_555 1_555
C9 C8 1_555 1_555
C10 C9 1_555 1_555
C11 C5 1_555 1_555
C12 C11 1_555 1_555
H5 C12 1_555 1_555
C13 C12 1_555 1_555
H6 C13 1_555 1_555
C14 C13 1_555 1_555
C15 C14 1_555 1_555
H7 C15 1_555 1_555
C16 C11 1_555 1_555
H8 C16 1_555 1_555
C17 H9 1_555 1_555
H10 C17 1_555 1_555
C18 C17 1_555 1_555
C19 C10 1_555 1_555
C20 C19 1_555 1_555
H11 C20 1_555 1_555
C21 C20 1_555 1_555
H12 C21 1_555 1_555
C22 C21 1_555 1_555
C23 C22 1_555 1_555
H13 C23 1_555 1_555
C24 C19 1_555 1_555
H14 C24 1_555 1_555
C25 H15 1_555 1_555
H16 C25 1_555 1_555
C26 C25 1_555 1_555
K1 O4 1_555 1_555
N1 C1 1_555 1_555
N2 Ni1 1_555 1_555
O1 C14 1_555 1_555
O2 C18 1_555 1_555
O3 C18 1_555 1_555
O4 C22 1_555 1_555
O5 C26 1_555 1_555
H17 O5 1_555 1_555
O6 C26 1_555 1_555
C27 H18 1_555 1_555
C28 H19 1_555 1_555
H20 C28 1_555 1_555
H21 C28 1_555 1_555
C29 H22 1_555 1_555
H23 C29 1_555 1_555
H24 C29 1_555 1_555
N3 C27 1_555 1_555
O7 K1 1_555 1_555
C1A C10 1_555 1_555
C2A C1A 1_555 1_555
H1A C2A 1_555 1_555
C3A C2A 1_555 1_555
H2A C3A 1_555 1_555
C4A C3A 1_555 1_555
C5A C4A 1_555 1_555
C6A C5A 1_555 1_555
C7A C6A 1_555 1_555
H3A C7A 1_555 1_555
C8A C7A 1_555 1_555
H4A C8A 1_555 1_555
C9A C8A 1_555 1_555
C10A C1 1_555 1_555
C11A C5A 1_555 1_555
C12A C11A 1_555 1_555
H5A C12A 1_555 1_555
C13A C12A 1_555 1_555
H6A C13A 1_555 1_555
C14A C13A 1_555 1_555
C15A C14A 1_555 1_555
H7A C15A 1_555 1_555
C16A C11A 1_555 1_555
H8A C16A 1_555 1_555
C17A H9A 1_555 1_555
H10A C17A 1_555 1_555
C18A C17A 1_555 1_555
C19A C10A 1_555 1_555
C20A C19A 1_555 1_555
H11A C20A 1_555 1_555
C21A C20A 1_555 1_555
H12A C21A 1_555 1_555
C22A C21A 1_555 1_555
C23A C22A 1_555 1_555
H13A C23A 1_555 1_555
C24A C19A 1_555 1_555
H14A C24A 1_555 1_555
C25A H15A 1_555 1_555
H16A C25A 1_555 1_555
C26A C25A 1_555 1_555
N1A Ni1 1_555 1_555
N2A Ni1 1_555 1_555
O1A C14A 1_555 1_555
O2A C18A 1_555 1_555
O3A C18A 1_555 1_555
O4A C22A 1_555 1_555
O5A C26A 1_555 1_555
H17A O5A 1_555 1_555
O6A C26A 1_555 1_555
K1A O4A 1_555 1_555
C27A H18A 1_555 1_555
C28A H19A 1_555 1_555
H20A C28A 1_555 1_555
H21A C28A 1_555 1_555
C29A H22A 1_555 1_555
H23A C29A 1_555 1_555
H24A C29A 1_555 1_555
N3A C27A 1_555 1_555
O7A K1A 1_555 1_555
K1_2 O6A 1_555 1_555
K1_3 O1A 1_555 1_555
K1_4 O3 1_555 1_555
K1A_2 O3A 1_555 1_555
K1A_3 O1 1_555 1_555
K1A_4 O6 1_555 1_555
O1_2 K1A 1_555 1_555
O1A_2 K1 1_555 1_555
O2_2 K1A 1_555 1_555
O2A_2 K1 1_555 1_555
O3_2 K1 1_555 1_555
O3A_2 K1A 1_555 1_555
O6_2 K1A 1_555 1_555
O6A_2 K1 1_555 1_555
C4 N1 1_555 1_555
C6 N2 1_555 1_555
C9 N2 1_555 1_555
C15 C16 1_555 1_555
C17 O1 1_555 1_555
C23 C24 1_555 1_555
C25 O4 1_555 1_555
K1 O6 1_555 1_555
O2 K1A_3 1_555 1_555
C27 O7 1_555 1_555
C28 N3 1_555 1_555
C29 N3 1_555 1_555
C1A N1A 1_555 1_555
C4A N1A 1_555 1_555
C6A N2A 1_555 1_555
C9A C10A 1_555 1_555
C9A N2A 1_555 1_555
C15A C16A 1_555 1_555
C17A O1A 1_555 1_555
C23A C24A 1_555 1_555
C25A O4A 1_555 1_555
O2A K1_3 1_555 1_555
O6A K1A 1_555 1_555
C27A O7A 1_555 1_555
C28A N3A 1_555 1_555
C29A N3A 1_555 1_555
K1_2 O6_2 1_555 1_555
K1A_4 O6A_2 1_555 1_555

#END
