
#######################################################################
#
#                 Cambridge Crystallographic Data Centre
#                                CCDC 
#
#######################################################################
#
# If this CIF has been generated from an entry in the Cambridge 
# Structural Database, then it will include bibliographic, chemical, 
# crystal, experimental, refinement or atomic coordinate data resulting 
# from the CCDC's data processing and validation procedures.
#
#######################################################################

data_FAHBIC
_chemical_formula_moiety         '(C6 H12 Dy1 N1 O8)n'
_symmetry_cell_setting           orthorhombic
_symmetry_space_group_name_H-M   'P n a 21'
_symmetry_Int_Tables_number      33
_space_group_name_Hall           'P 2c -2n'
loop_
_symmetry_equiv_pos_site_id
_symmetry_equiv_pos_as_xyz
1 x,y,z
2 -x,-y,1/2+z
3 1/2+x,1/2-y,z
4 1/2-x,1/2+y,1/2+z
_cell_length_a                   8.73830(10)
_cell_length_b                   18.1604(2)
_cell_length_c                   6.70720(10)
_cell_angle_alpha                90
_cell_angle_beta                 90
_cell_angle_gamma                90
_cell_volume                     1064.37
loop_
_atom_site_label
_atom_site_type_symbol
_atom_site_fract_x
_atom_site_fract_y
_atom_site_fract_z
Dy1 Dy 0.744151(9) 0.605544(4) 0.40591(15)
O1 O 0.7215(3) 0.6541(2) -0.2627(6)
O2 O 0.8541(2) 0.51034(11) 0.2238(4)
O3 O 0.6541(2) 0.50168(11) 0.5936(4)
O4 O 1.10311(18) 0.78412(8) 0.4082(6)
C1 C 0.9867(3) 0.75330(14) 0.3431(4)
H1 H 0.9295 0.7779 0.2472
C2 C 0.5289(4) 0.47807(18) 0.6467(6)
H2 H 0.4460 0.5017 0.5879
C3 C 0.9840(4) 0.4959(2) 0.1625(6)
H3 H 1.0553 0.5338 0.1704
C4 C 0.7381(3) 0.62219(14) -0.0982(17)
H4 H 0.7392 0.5710 -0.1004
O5 O 1.0302(2) 0.43759(10) 0.0925(3)
O6 O 0.4939(2) 0.42954(11) 0.7620(3)
O7 O 0.94174(19) 0.69171(9) 0.3978(7)
O8 O 0.7530(2) 0.6518(3) 0.0656(7)
Dy1_2 Dy 0.744151(9) 0.605544(4) -0.59409(15)
Dy1A Dy 0.255849(9) 0.394456(4) 0.90591(15)
Dy1A_2 Dy 1.255849(9) 0.394456(4) -0.09409(15)
Dy1B Dy 1.244151(9) 0.894456(4) 0.40591(15)
O1_2 O 0.7215(3) 0.6541(2) 0.7373(6)
O4B O 0.60311(18) 0.71588(8) 0.4082(6)
O5A O 0.9698(2) 0.56241(10) 0.5925(3)
O6A O 0.5061(2) 0.57046(11) 0.2620(3)
N1 N 1.1727(3) 0.67814(15) 0.7268(4)
H5 H 1.1679 0.7231 0.6709
H6 H 1.1093 0.6484 0.6584
C5 C 1.1203(5) 0.6830(2) 0.9307(7)
H7 H 1.1312 0.6359 0.9941
H8 H 1.0146 0.6974 0.9325
H9 H 1.1802 0.7189 1.0010
C6 C 1.3280(6) 0.6504(2) 0.7086(11)
H10 H 1.3984 0.6863 0.7596
H11 H 1.3504 0.6410 0.5708
H12 H 1.3377 0.6056 0.7833
loop_
_geom_bond_atom_site_label_1
_geom_bond_atom_site_label_2
_geom_bond_site_symmetry_1
_geom_bond_site_symmetry_2
Dy1 O2 1_555 1_555
O1 C4 1_555 1_555
O2 C3 1_555 1_555
O3 Dy1 1_555 1_555
O4 C1 1_555 1_555
C1 H1 1_555 1_555
C2 O3 1_555 1_555
H2 C2 1_555 1_555
C3 H3 1_555 1_555
C4 H4 1_555 1_555
O5 C3 1_555 1_555
O6 C2 1_555 1_555
O7 Dy1 1_555 1_555
O8 Dy1 1_555 1_555
N1 H5 1_555 1_555
H6 N1 1_555 1_555
C5 N1 1_555 1_555
H7 C5 1_555 1_555
H8 C5 1_555 1_555
H9 C5 1_555 1_555
C6 N1 1_555 1_555
H10 C6 1_555 1_555
H11 C6 1_555 1_555
H12 C6 1_555 1_555
Dy1_2 O1 1_555 1_555
Dy1A O6 1_555 1_555
Dy1A_2 O5 1_555 1_555
Dy1B O4 1_555 1_555
O1_2 Dy1 1_555 1_555
O4B Dy1 1_555 1_555
O5A Dy1 1_555 1_555
O6A Dy1 1_555 1_555
C1 O7 1_555 1_555
C4 O8 1_555 1_555

#END
