
#######################################################################
#
#                 Cambridge Crystallographic Data Centre
#                                CCDC 
#
#######################################################################
#
# If this CIF has been generated from an entry in the Cambridge 
# Structural Database, then it will include bibliographic, chemical, 
# crystal, experimental, refinement or atomic coordinate data resulting 
# from the CCDC's data processing and validation procedures.
#
#######################################################################

data_ALASEN
_chemical_formula_moiety         '(C22 H15 In2 N2 O13)n'
_symmetry_cell_setting           orthorhombic
_symmetry_space_group_name_H-M   'P b c a'
_symmetry_Int_Tables_number      61
_space_group_name_Hall           '-P 2ac 2ab'
loop_
_symmetry_equiv_pos_site_id
_symmetry_equiv_pos_as_xyz
1 x,y,z
2 1/2-x,-y,1/2+z
3 1/2+x,1/2-y,-z
4 -x,1/2+y,1/2-z
5 -x,-y,-z
6 1/2+x,y,1/2-z
7 1/2-x,1/2+y,z
8 x,1/2-y,1/2+z
_cell_length_a                   15.4979(9)
_cell_length_b                   13.4644(7)
_cell_length_c                   32.4682(18)
_cell_angle_alpha                90
_cell_angle_beta                 90
_cell_angle_gamma                90
_cell_volume                     6775.14
loop_
_atom_site_label
_atom_site_type_symbol
_atom_site_fract_x
_atom_site_fract_y
_atom_site_fract_z
In1 In 0.22231(2) 0.68449(2) 0.38131(2)
In2 In 0.27873(2) 0.92592(2) 0.34124(2)
O1 O 0.1863(2) 0.8311(3) 0.36796(12)
O2 O 0.3251(3) 0.6764(3) 0.33570(12)
O3 O 0.3073(3) 0.8115(3) 0.29600(12)
O4 O 0.6238(3) 0.6538(3) 0.16470(16)
O5 O 0.6119(3) 0.4968(3) 0.18694(13)
O6 O 0.2968(3) 0.4970(3) 0.29451(12)
O7 O 0.4253(3) 0.4486(3) 0.31752(15)
O8 O 0.3761(3) 0.8643(3) 0.38304(12)
O9 O 0.3235(3) 0.7376(3) 0.42142(13)
O10 O 0.6818(4) 0.9540(4) 0.53607(16)
O11 O 0.6356(3) 0.8166(3) 0.56767(14)
O12 O 0.4131(9) 0.5949(10) 0.4905(4)
O13 O 0.2480(3) 0.5333(3) 0.38682(11)
N1 N 0.4774(9) 0.5790(8) 0.4322(5)
C1 C 0.3378(4) 0.7264(4) 0.30342(16)
C2 C 0.3971(4) 0.6843(4) 0.27175(18)
C3 C 0.4358(4) 0.7503(4) 0.2448(2)
H1 H 0.4194 0.8182 0.2453
C4 C 0.4981(5) 0.7193(4) 0.2170(2)
H2 H 0.5246 0.7658 0.1990
C5 C 0.5216(4) 0.6193(4) 0.21564(19)
C6 C 0.4826(4) 0.5525(4) 0.24234(18)
H3 H 0.4993 0.4846 0.2416
C7 C 0.4198(4) 0.5827(4) 0.27017(17)
C8 C 0.5909(4) 0.5871(4) 0.18679(18)
C9 C 0.3780(4) 0.5041(4) 0.29688(17)
C10 C 0.3769(4) 0.8064(4) 0.41345(17)
C11 C 0.4489(4) 0.8203(4) 0.44399(19)
C12 C 0.5734(4) 0.8560(5) 0.5038(2)
C13 C 0.6369(5) 0.8780(5) 0.5378(2)
C14 C 0.5151(12) 0.6176(14) 0.3945(5)
H4 H 0.5390 0.6847 0.3997
H5 H 0.4699 0.6235 0.3731
C15 C 0.5832(12) 0.5522(12) 0.3800(7)
H6 H 0.6308 0.5519 0.4004
H7 H 0.6063 0.5782 0.3537
C16 C 0.4452(10) 0.4796(8) 0.4265(5)
H8 H 0.3958 0.4813 0.4072
H9 H 0.4240 0.4538 0.4532
C17 C 0.4734(7) 0.7468(9) 0.4712(3)
C18 C 0.5357(7) 0.7649(9) 0.5005(3)
H10 H 0.5526 0.7132 0.5188
C19 C 0.5508(8) 0.9295(11) 0.4762(4)
H11 H 0.5779 0.9927 0.4777
C20 C 0.4894(7) 0.9118(8) 0.4468(3)
H12 H 0.4743 0.9630 0.4280
C21 C 0.4544(15) 0.6411(14) 0.4645(5)
N2 N 0.5529(11) 0.4510(12) 0.3738(5)
C22 C 0.5108(13) 0.4125(15) 0.4104(6)
H13 H 0.5548 0.4007 0.4320
H14 H 0.4837 0.3479 0.4038
In1B In 0.72231(2) 0.81551(2) 0.61869(2)
In1E In 0.72231(2) 0.68449(2) 0.11869(2)
In2C In 0.72127(2) 0.42592(2) 0.15876(2)
In2F In 0.22127(2) 0.42592(2) 0.34124(2)
O4E O 0.1238(3) 0.6538(3) 0.33530(16)
O5C O 0.3881(3) 0.9968(3) 0.31306(13)
O6F O 0.2032(3) 0.9970(3) 0.29451(12)
O11B O 0.1356(3) 0.6834(3) 0.43233(14)
O13F O 0.2520(3) 1.0333(3) 0.38682(11)
loop_
_geom_bond_atom_site_label_1
_geom_bond_atom_site_label_2
_geom_bond_site_symmetry_1
_geom_bond_site_symmetry_2
In1 O1 1_555 1_555
In2 O1 1_555 1_555
O2 In1 1_555 1_555
O3 In2 1_555 1_555
O4 C8 1_555 1_555
O5 C8 1_555 1_555
O6 C9 1_555 1_555
O7 C9 1_555 1_555
O8 In2 1_555 1_555
O9 In1 1_555 1_555
O10 C13 1_555 1_555
O11 C13 1_555 1_555
O12 C21 1_555 1_555
O13 In1 1_555 1_555
N1 C14 1_555 1_555
C1 O2 1_555 1_555
C2 C1 1_555 1_555
C3 C2 1_555 1_555
H1 C3 1_555 1_555
C4 C3 1_555 1_555
H2 C4 1_555 1_555
C5 C4 1_555 1_555
C6 C5 1_555 1_555
H3 C6 1_555 1_555
C7 C2 1_555 1_555
C8 C5 1_555 1_555
C9 C7 1_555 1_555
C10 O8 1_555 1_555
C11 C10 1_555 1_555
C12 C13 1_555 1_555
C14 H4 1_555 1_555
H5 C14 1_555 1_555
C15 C14 1_555 1_555
H6 C15 1_555 1_555
H7 C15 1_555 1_555
C16 N1 1_555 1_555
H8 C16 1_555 1_555
H9 C16 1_555 1_555
C17 C11 1_555 1_555
C18 C12 1_555 1_555
H10 C18 1_555 1_555
C19 C12 1_555 1_555
H11 C19 1_555 1_555
C20 C11 1_555 1_555
H12 C20 1_555 1_555
C21 N1 1_555 1_555
N2 C15 1_555 1_555
C22 C16 1_555 1_555
H13 C22 1_555 1_555
H14 C22 1_555 1_555
In1B O11 1_555 1_555
In1E O4 1_555 1_555
In2C O5 1_555 1_555
In2F O6 1_555 1_555
O4E In1 1_555 1_555
O5C In2 1_555 1_555
O6F In2 1_555 1_555
O11B In1 1_555 1_555
O13F In2 1_555 1_555
O3 C1 1_555 1_555
O9 C10 1_555 1_555
O13 In2F 1_555 1_555
C6 C7 1_555 1_555
C17 C18 1_555 1_555
C17 C21 1_555 1_555
C19 C20 1_555 1_555
N2 C22 1_555 1_555

#END
