
#######################################################################
#
#                 Cambridge Crystallographic Data Centre
#                                CCDC 
#
#######################################################################
#
# If this CIF has been generated from an entry in the Cambridge 
# Structural Database, then it will include bibliographic, chemical, 
# crystal, experimental, refinement or atomic coordinate data resulting 
# from the CCDC's data processing and validation procedures.
#
#######################################################################

data_DAGJAZ
_chemical_formula_moiety         '(C84 H54 Cd3 N12 O12)n'
_symmetry_cell_setting           cubic
_symmetry_space_group_name_H-M   'P 4 3 2'
_symmetry_Int_Tables_number      207
_space_group_name_Hall           'P 4 2 3'
loop_
_symmetry_equiv_pos_site_id
_symmetry_equiv_pos_as_xyz
1 x,y,z
2 -x,-y,z
3 x,-y,-z
4 -x,y,-z
5 z,x,y
6 y,z,x
7 -z,-x,y
8 -y,z,-x
9 z,-x,-y
10 -y,-z,x
11 -z,x,-y
12 y,-z,-x
13 -y,-x,-z
14 y,x,-z
15 y,-x,z
16 -y,x,z
17 -x,-z,-y
18 -z,-y,-x
19 x,z,-y
20 -z,y,x
21 x,-z,y
22 z,y,-x
23 -x,z,y
24 z,-y,x
_cell_length_a                   22.1980(14)
_cell_length_b                   22.1980(13)
_cell_length_c                   22.1980(13)
_cell_angle_alpha                90
_cell_angle_beta                 90
_cell_angle_gamma                90
_cell_volume                     10938.1
loop_
_atom_site_label
_atom_site_type_symbol
_atom_site_fract_x
_atom_site_fract_y
_atom_site_fract_z
Cd1 Cd 0.37466(2) 0.62534(2) 0.0000
N1 N 0.3527(3) 0.7036(2) -0.0602(2)
N2 N 0.2991(3) 0.7560(2) -0.1252(3)
O1 O 0.4312(2) 0.7039(3) 0.0673(2)
O2 O 0.4555(2) 0.6083(2) 0.05653(19)
C1 C 0.2707(3) 0.8163(3) -0.2116(3)
H1 H 0.3039 0.8410 -0.2051
C2 C 0.2587(3) 0.7677(3) -0.1734(3)
C3 C 0.3140(3) 0.7008(3) -0.1041(3)
H2 H 0.2984 0.6649 -0.1192
C4 C 0.3640(3) 0.7634(3) -0.0521(3)
H3 H 0.3902 0.7790 -0.0233
C5 C 0.3321(4) 0.7973(3) -0.0917(4)
H4 H 0.3323 0.8390 -0.0955
C6 C 0.4626(3) 0.6590(4) 0.0809(3)
C7 C 0.5075(3) 0.6656(3) 0.1306(2)
C8 C 0.5232(3) 0.7207(3) 0.1538(3)
H5 H 0.5054 0.7554 0.1384
C9 C 0.5342(3) 0.6142(3) 0.1551(3)
H6 H 0.5241 0.5764 0.1403
C10 C 0.5756(3) 0.6191(3) 0.2010(3)
H7 H 0.5926 0.5842 0.2167
C11 C 0.5654(3) 0.7254(3) 0.1998(3)
H8 H 0.5758 0.7632 0.2145
C12 C 0.5924(3) 0.6739(3) 0.2244(3)
C13 C 0.6388(4) 0.6776(4) 0.2722(3)
C14 C 0.6855(3) 0.6363(4) 0.2760(3)
H9 H 0.6887 0.6062 0.2470
N1F N 0.0602(2) 0.6473(3) -0.2964(2)
N2F N 0.1252(3) 0.7009(3) -0.2440(2)
C1F C 0.2116(3) 0.7293(3) -0.1837(3)
H1F H 0.2051 0.6961 -0.1590
C2F C 0.1734(3) 0.7413(3) -0.2323(3)
C3F C 0.1041(3) 0.6860(3) -0.2992(3)
H2F H 0.1192 0.7016 -0.3351
C4F C 0.0521(3) 0.6360(3) -0.2366(3)
H3F H 0.0233 0.6098 -0.2210
C5F C 0.0917(4) 0.6679(4) -0.2027(3)
H4F H 0.0955 0.6677 -0.1610
N1G N 0.2964(2) 0.9398(2) -0.3527(3)
N2G N 0.2440(2) 0.8748(3) -0.2991(3)
C1G C 0.1837(3) 0.7884(3) -0.2707(3)
H1G H 0.1590 0.7949 -0.3039
C2G C 0.2323(3) 0.8266(3) -0.2587(3)
C3G C 0.2992(3) 0.8959(3) -0.3140(3)
H2G H 0.3351 0.8808 -0.2984
C4G C 0.2366(3) 0.9479(3) -0.3640(3)
H3G H 0.2210 0.9767 -0.3902
C5G C 0.2027(3) 0.9083(4) -0.3321(4)
H4G H 0.1610 0.9045 -0.3323
O1J O 0.9327(2) 0.4312(2) 0.2961(3)
O2J O 0.94347(19) 0.4555(2) 0.3917(2)
C6J C 0.9191(3) 0.4626(3) 0.3410(4)
C7J C 0.8694(2) 0.5075(3) 0.3344(3)
C8J C 0.8462(3) 0.5232(3) 0.2793(3)
H5J H 0.8616 0.5054 0.2446
C9J C 0.8449(3) 0.5342(3) 0.3858(3)
H6J H 0.8597 0.5241 0.4236
C10J C 0.7990(3) 0.5756(3) 0.3809(3)
H7J H 0.7833 0.5926 0.4158
C11J C 0.8002(3) 0.5654(3) 0.2746(3)
H8J H 0.7855 0.5758 0.2368
C12J C 0.7756(3) 0.5924(3) 0.3261(3)
C13J C 0.7278(3) 0.6388(4) 0.3224(4)
C14J C 0.7240(3) 0.6855(3) 0.3637(4)
H9J H 0.7530 0.6887 0.3938
O1K O 0.7039(3) 0.9327(2) 0.5688(2)
O2K O 0.6083(2) 0.94347(19) 0.5445(2)
C6K C 0.6590(4) 0.9191(3) 0.5374(3)
C7K C 0.6656(3) 0.8694(2) 0.4925(3)
C8K C 0.7207(3) 0.8462(3) 0.4768(3)
H5K H 0.7554 0.8616 0.4946
C9K C 0.6142(3) 0.8449(3) 0.4658(3)
H6K H 0.5764 0.8597 0.4759
C10K C 0.6191(3) 0.7990(3) 0.4244(3)
H7K H 0.5842 0.7833 0.4074
C11K C 0.7254(3) 0.8002(3) 0.4346(3)
H8K H 0.7632 0.7855 0.4242
C12K C 0.6739(3) 0.7756(3) 0.4076(3)
C13K C 0.6776(4) 0.7278(3) 0.3612(4)
C14K C 0.6363(4) 0.7240(3) 0.3145(3)
H9K H 0.6062 0.7530 0.3113
Cd1F Cd 0.0000 0.62534(2) -0.37466(2)
Cd1G Cd 0.37466(2) 1.0000 -0.37466(2)
N1L N 0.2964(2) 0.6473(3) 0.0602(2)
N2L N 0.2440(2) 0.7009(3) 0.1252(3)
C1L C 0.1837(3) 0.7293(3) 0.2116(3)
H1L H 0.1590 0.6961 0.2051
C2L C 0.2323(3) 0.7413(3) 0.1734(3)
C3L C 0.2992(3) 0.6860(3) 0.1041(3)
H2L H 0.3351 0.7016 0.1192
C4L C 0.2366(3) 0.6360(3) 0.0521(3)
H3L H 0.2210 0.6098 0.0233
C5L C 0.2027(3) 0.6679(4) 0.0917(4)
H4L H 0.1610 0.6677 0.0955
N1R N 0.3527(3) 0.9398(2) 0.2964(2)
N2R N 0.2991(3) 0.8748(3) 0.2440(2)
C1R C 0.2707(3) 0.7884(3) 0.1837(3)
H1R H 0.3039 0.7949 0.1590
C2R C 0.2587(3) 0.8266(3) 0.2323(3)
C3R C 0.3140(3) 0.8959(3) 0.2992(3)
H2R H 0.2984 0.8808 0.3351
C4R C 0.3640(3) 0.9479(3) 0.2366(3)
H3R H 0.3902 0.9767 0.2210
C5R C 0.3321(4) 0.9083(4) 0.2027(3)
H4R H 0.3323 0.9045 0.1610
N1S N 0.0602(2) 0.7036(2) 0.3527(3)
N2S N 0.1252(3) 0.7560(2) 0.2991(3)
C1S C 0.2116(3) 0.8163(3) 0.2707(3)
H1S H 0.2051 0.8410 0.3039
C2S C 0.1734(3) 0.7677(3) 0.2587(3)
C3S C 0.1041(3) 0.7008(3) 0.3140(3)
H2S H 0.1192 0.6649 0.2984
C4S C 0.0521(3) 0.7634(3) 0.3640(3)
H3S H 0.0233 0.7790 0.3902
C5S C 0.0917(4) 0.7973(3) 0.3321(4)
H4S H 0.0955 0.8390 0.3323
O1L O 0.2961(3) 0.5688(2) -0.0673(2)
O2L O 0.3917(2) 0.5445(2) -0.05653(19)
C6L C 0.3410(4) 0.5374(3) -0.0809(3)
C7L C 0.3344(3) 0.4925(3) -0.1306(2)
C8L C 0.2793(3) 0.4768(3) -0.1538(3)
H5L H 0.2446 0.4946 -0.1384
C9L C 0.3858(3) 0.4658(3) -0.1551(3)
H6L H 0.4236 0.4759 -0.1403
C10L C 0.3809(3) 0.4244(3) -0.2010(3)
H7L H 0.4158 0.4074 -0.2167
C11L C 0.2746(3) 0.4346(3) -0.1998(3)
H8L H 0.2368 0.4242 -0.2145
C12L C 0.3261(3) 0.4076(3) -0.2244(3)
C13L C 0.3224(4) 0.3612(4) -0.2722(3)
C14L C 0.3637(4) 0.3145(3) -0.2760(3)
H9L H 0.3938 0.3113 -0.2470
O1V O 0.5688(2) 0.0673(2) -0.2961(3)
O2V O 0.5445(2) 0.05653(19) -0.3917(2)
C6V C 0.5374(3) 0.0809(3) -0.3410(4)
C7V C 0.4925(3) 0.1306(2) -0.3344(3)
C8V C 0.4768(3) 0.1538(3) -0.2793(3)
H5V H 0.4946 0.1384 -0.2446
C9V C 0.4658(3) 0.1551(3) -0.3858(3)
H6V H 0.4759 0.1403 -0.4236
C10V C 0.4244(3) 0.2010(3) -0.3809(3)
H7V H 0.4074 0.2167 -0.4158
C11V C 0.4346(3) 0.1998(3) -0.2746(3)
H8V H 0.4242 0.2145 -0.2368
C12V C 0.4076(3) 0.2244(3) -0.3261(3)
C13V C 0.3612(4) 0.2722(3) -0.3224(4)
C14V C 0.3145(3) 0.2760(3) -0.3637(4)
H9V H 0.3113 0.2470 -0.3938
O1W O 0.0673(2) 0.2961(3) -0.5688(2)
O2W O 0.05653(19) 0.3917(2) -0.5445(2)
C6W C 0.0809(3) 0.3410(4) -0.5374(3)
C7W C 0.1306(2) 0.3344(3) -0.4925(3)
C8W C 0.1538(3) 0.2793(3) -0.4768(3)
H5W H 0.1384 0.2446 -0.4946
C9W C 0.1551(3) 0.3858(3) -0.4658(3)
H6W H 0.1403 0.4236 -0.4759
C10W C 0.2010(3) 0.3809(3) -0.4244(3)
H7W H 0.2167 0.4158 -0.4074
C11W C 0.1998(3) 0.2746(3) -0.4346(3)
H8W H 0.2145 0.2368 -0.4242
C12W C 0.2244(3) 0.3261(3) -0.4076(3)
C13W C 0.2722(3) 0.3224(4) -0.3612(4)
C14W C 0.2760(3) 0.3637(4) -0.3145(3)
H9W H 0.2470 0.3938 -0.3113
Cd1H Cd -0.0000 0.62534(2) 0.37466(2)
Cd1I Cd 0.37466(2) 1.0000 0.37466(2)
Cd1J Cd 0.0000 0.37466(2) -0.62534(2)
Cd1J_2 Cd 1.0000 0.37466(2) 0.37466(2)
Cd1K Cd 0.62534(2) 0.0000 -0.37466(2)
Cd1K_2 Cd 0.62534(2) 1.0000 0.62534(2)
N1T N 0.3527(3) 1.0602(2) -0.2964(2)
N1U N -0.0602(2) 0.7036(2) -0.3527(3)
O1F O -0.0673(2) 0.5688(2) -0.2961(3)
O1G O 0.2961(3) 1.0673(2) -0.4312(2)
O1T O 0.4312(2) 0.9327(2) -0.2961(3)
O1U O 0.0673(2) 0.7039(3) -0.4312(2)
O2F O -0.05653(19) 0.5445(2) -0.3917(2)
O2G O 0.3917(2) 1.05653(19) -0.4555(2)
O2T O 0.4555(2) 0.94347(19) -0.3917(2)
O2U O 0.05653(19) 0.6083(2) -0.4555(2)
loop_
_geom_bond_atom_site_label_1
_geom_bond_atom_site_label_2
_geom_bond_site_symmetry_1
_geom_bond_site_symmetry_2
Cd1 N1 1_555 1_555
N1 C3 1_555 1_555
N2 C2 1_555 1_555
O1 Cd1 1_555 1_555
O2 Cd1 1_555 1_555
C1 H1 1_555 1_555
C2 C1 1_555 1_555
C3 N2 1_555 1_555
H2 C3 1_555 1_555
C4 N1 1_555 1_555
H3 C4 1_555 1_555
C5 N2 1_555 1_555
H4 C5 1_555 1_555
C6 O1 1_555 1_555
C7 C6 1_555 1_555
C8 C7 1_555 1_555
H5 C8 1_555 1_555
C9 C7 1_555 1_555
H6 C9 1_555 1_555
C10 C9 1_555 1_555
H7 C10 1_555 1_555
C11 C8 1_555 1_555
H8 C11 1_555 1_555
C12 C10 1_555 1_555
C13 C12 1_555 1_555
C14 C13 1_555 1_555
H9 C14 1_555 1_555
N1F C3F 1_555 1_555
N2F C2F 1_555 1_555
C1F C2 1_555 1_555
H1F C1F 1_555 1_555
C2F C1F 1_555 1_555
C3F N2F 1_555 1_555
H2F C3F 1_555 1_555
C4F N1F 1_555 1_555
H3F C4F 1_555 1_555
C5F N2F 1_555 1_555
H4F C5F 1_555 1_555
N1G C3G 1_555 1_555
N2G C2G 1_555 1_555
C1G C2F 1_555 1_555
H1G C1G 1_555 1_555
C2G C1 1_555 1_555
C3G N2G 1_555 1_555
H2G C3G 1_555 1_555
C4G N1G 1_555 1_555
H3G C4G 1_555 1_555
C5G N2G 1_555 1_555
H4G C5G 1_555 1_555
O1J C6J 1_555 1_555
O2J C6J 1_555 1_555
C6J C7J 1_555 1_555
C7J C8J 1_555 1_555
C8J H5J 1_555 1_555
C9J C7J 1_555 1_555
H6J C9J 1_555 1_555
C10J C9J 1_555 1_555
H7J C10J 1_555 1_555
C11J C8J 1_555 1_555
H8J C11J 1_555 1_555
C12J C10J 1_555 1_555
C13J C14 1_555 1_555
C14J C13J 1_555 1_555
H9J C14J 1_555 1_555
O1K C6K 1_555 1_555
O2K C6K 1_555 1_555
C6K C7K 1_555 1_555
C7K C8K 1_555 1_555
C8K H5K 1_555 1_555
C9K C7K 1_555 1_555
H6K C9K 1_555 1_555
C10K C9K 1_555 1_555
H7K C10K 1_555 1_555
C11K C8K 1_555 1_555
H8K C11K 1_555 1_555
C12K C10K 1_555 1_555
C13K C14J 1_555 1_555
C14K C13 1_555 1_555
H9K C14K 1_555 1_555
Cd1F N1F 1_555 1_555
Cd1G N1G 1_555 1_555
N1L Cd1 1_555 1_555
N2L C2L 1_555 1_555
C1L H1L 1_555 1_555
C2L C1L 1_555 1_555
C3L N1L 1_555 1_555
H2L C3L 1_555 1_555
C4L N1L 1_555 1_555
H3L C4L 1_555 1_555
C5L N2L 1_555 1_555
H4L C5L 1_555 1_555
N1R C3R 1_555 1_555
N2R C2R 1_555 1_555
C1R C2L 1_555 1_555
H1R C1R 1_555 1_555
C2R C1R 1_555 1_555
C3R N2R 1_555 1_555
H2R C3R 1_555 1_555
C4R N1R 1_555 1_555
H3R C4R 1_555 1_555
C5R N2R 1_555 1_555
H4R C5R 1_555 1_555
N1S C3S 1_555 1_555
N2S C2S 1_555 1_555
C1S C2R 1_555 1_555
H1S C1S 1_555 1_555
C2S C1L 1_555 1_555
C3S N2S 1_555 1_555
H2S C3S 1_555 1_555
C4S N1S 1_555 1_555
H3S C4S 1_555 1_555
C5S N2S 1_555 1_555
H4S C5S 1_555 1_555
O1L Cd1 1_555 1_555
O2L Cd1 1_555 1_555
C6L O1L 1_555 1_555
C7L C6L 1_555 1_555
C8L C7L 1_555 1_555
H5L C8L 1_555 1_555
C9L C7L 1_555 1_555
H6L C9L 1_555 1_555
C10L C9L 1_555 1_555
H7L C10L 1_555 1_555
C11L C8L 1_555 1_555
H8L C11L 1_555 1_555
C12L C10L 1_555 1_555
C13L C12L 1_555 1_555
C14L C13L 1_555 1_555
H9L C14L 1_555 1_555
O1V C6V 1_555 1_555
O2V C6V 1_555 1_555
C6V C7V 1_555 1_555
C7V C8V 1_555 1_555
C8V H5V 1_555 1_555
C9V C7V 1_555 1_555
H6V C9V 1_555 1_555
C10V C9V 1_555 1_555
H7V C10V 1_555 1_555
C11V C8V 1_555 1_555
H8V C11V 1_555 1_555
C12V C10V 1_555 1_555
C13V C14L 1_555 1_555
C14V C13V 1_555 1_555
H9V C14V 1_555 1_555
O1W C6W 1_555 1_555
O2W C6W 1_555 1_555
C6W C7W 1_555 1_555
C7W C8W 1_555 1_555
C8W H5W 1_555 1_555
C9W C7W 1_555 1_555
H6W C9W 1_555 1_555
C10W C9W 1_555 1_555
H7W C10W 1_555 1_555
C11W C8W 1_555 1_555
H8W C11W 1_555 1_555
C12W C10W 1_555 1_555
C13W C14V 1_555 1_555
C14W C13L 1_555 1_555
H9W C14W 1_555 1_555
Cd1H N1S 1_555 1_555
Cd1I N1R 1_555 1_555
Cd1J O1W 1_555 1_555
Cd1J_2 O1J 1_555 1_555
Cd1K O1V 1_555 1_555
Cd1K_2 O1K 1_555 1_555
N1T Cd1G 1_555 1_555
N1U Cd1F 1_555 1_555
O1F Cd1F 1_555 1_555
O1G Cd1G 1_555 1_555
O1T Cd1G 1_555 1_555
O1U Cd1F 1_555 1_555
O2F Cd1F 1_555 1_555
O2G Cd1G 1_555 1_555
O2T Cd1G 1_555 1_555
O2U Cd1F 1_555 1_555
O2 C6 1_555 1_555
C4 C5 1_555 1_555
C11 C12 1_555 1_555
C4F C5F 1_555 1_555
C1G C2G 1_555 1_555
C4G C5G 1_555 1_555
O2J Cd1J_2 1_555 1_555
C11J C12J 1_555 1_555
C12J C13J 1_555 1_555
O2K Cd1K_2 1_555 1_555
C11K C12K 1_555 1_555
C12K C13K 1_555 1_555
C13K C14K 1_555 1_555
N2L C3L 1_555 1_555
C4L C5L 1_555 1_555
C4R C5R 1_555 1_555
C1S C2S 1_555 1_555
C4S C5S 1_555 1_555
O2L C6L 1_555 1_555
C11L C12L 1_555 1_555
O2V Cd1K 1_555 1_555
C11V C12V 1_555 1_555
C12V C13V 1_555 1_555
O2W Cd1J 1_555 1_555
C11W C12W 1_555 1_555
C12W C13W 1_555 1_555
C13W C14W 1_555 1_555

#END
