
#######################################################################
#
#                 Cambridge Crystallographic Data Centre
#                                CCDC 
#
#######################################################################
#
# If this CIF has been generated from an entry in the Cambridge 
# Structural Database, then it will include bibliographic, chemical, 
# crystal, experimental, refinement or atomic coordinate data resulting 
# from the CCDC's data processing and validation procedures.
#
#######################################################################

data_BUCSIC01
_chemical_formula_moiety         '(C52 H44 Co3 Fe4 O20 2+)n'
_symmetry_cell_setting           monoclinic
_symmetry_space_group_name_H-M   'P 21/n'
_symmetry_Int_Tables_number      14
_space_group_name_Hall           '-P 2yn'
loop_
_symmetry_equiv_pos_site_id
_symmetry_equiv_pos_as_xyz
1 x,y,z
2 1/2-x,1/2+y,1/2-z
3 -x,-y,-z
4 1/2+x,1/2-y,1/2+z
_cell_length_a                   13.7239(7)
_cell_length_b                   15.0724(8)
_cell_length_c                   15.8600(8)
_cell_angle_alpha                90
_cell_angle_beta                 94.5040(10)
_cell_angle_gamma                90
_cell_volume                     3270.54
loop_
_atom_site_label
_atom_site_type_symbol
_atom_site_fract_x
_atom_site_fract_y
_atom_site_fract_z
Co1 Co -0.0000 -0.5000 0.0000
Co2 Co -0.26247(2) -0.09073(2) 0.496300(19)
Fe1 Fe -0.21987(3) -0.34037(2) 0.25053(2)
Fe2 Fe -0.25441(4) -0.32264(3) -0.23152(3)
O1 O -0.39730(15) -0.25536(14) -0.43038(15)
O2 O -0.24535(14) -0.22011(12) -0.45925(11)
O3 O -0.22084(13) -0.55025(11) -0.12046(10)
O4 O -0.07867(13) -0.47515(13) -0.11341(11)
O5 O -0.08160(13) -0.41098(12) 0.06543(13)
O6 O -0.23489(13) -0.46031(11) 0.04179(11)
O7 O -0.24536(13) -0.13212(12) 0.37081(11)
O8 O -0.40080(15) -0.16003(15) 0.32306(12)
O9 O -0.08446(12) -0.61073(11) 0.02504(12)
H1 H -0.082(2) -0.628(2) 0.079(2)
H2 H -0.075(2) -0.653(2) -0.0045(19)
O10 O -0.11156(15) -0.08122(18) 0.51037(19)
C1 C -0.16125(18) -0.49605(16) -0.14648(15)
C2 C -0.19264(18) -0.44703(16) -0.22774(15)
C3 C -0.2907(2) -0.45307(18) -0.26057(18)
H3 H -0.3327 -0.4959 -0.2385
C4 C -0.3268(2) -0.39581(19) -0.32619(19)
H4 H -0.3935 -0.3993 -0.3470
C5 C -0.2650(2) -0.33383(16) -0.36090(16)
C6 C -0.1666(2) -0.3315(2) -0.33074(18)
H5 H -0.1234 -0.2919 -0.3556
C7 C -0.1304(2) -0.3871(2) -0.26400(18)
H6 H -0.0635 -0.3839 -0.2436
C8 C -0.3063(2) -0.26410(17) -0.42246(16)
C9 C -0.17151(18) -0.40774(15) 0.07156(15)
C10 C -0.20854(19) -0.33180(16) 0.12207(15)
C11 C -0.1439(2) -0.27043(17) 0.16405(17)
H7 H -0.0775 -0.2688 0.1511
C12 C -0.1765(2) -0.21180(17) 0.22462(18)
H8 H -0.1321 -0.1714 0.2530
C13 C -0.27593(19) -0.21311(16) 0.24324(16)
C14 C -0.3418(2) -0.27036(18) 0.19847(16)
H9 H -0.4090 -0.2694 0.2089
C15 C -0.3084(2) -0.32964(17) 0.13777(16)
H10 H -0.3534 -0.3682 0.1075
C16 C -0.3110(2) -0.16390(16) 0.31912(15)
C17 C -0.1451(3) -0.4549(2) 0.2798(2)
H11 H -0.1041 -0.4854 0.2439
C18 C -0.2442(3) -0.4690(2) 0.2834(2)
H12 H -0.2828 -0.5102 0.2501
C19 C -0.2778(3) -0.4123(3) 0.3442(2)
H13 H -0.3431 -0.4089 0.3600
C20 C -0.1994(3) -0.3614(2) 0.3779(2)
H14 H -0.2022 -0.3168 0.4201
C21 C -0.1146(3) -0.3876(2) 0.3385(2)
H15 H -0.0504 -0.3647 0.3492
C22 C -0.3172(5) -0.3120(4) -0.1142(4)
H16 H -0.3225 -0.3584 -0.0742
C23 C -0.3909(3) -0.2854(4) -0.1770(4)
H17 H -0.4541 -0.3109 -0.1864
C24 C -0.3533(5) -0.2142(3) -0.2233(3)
H18 H -0.3871 -0.1835 -0.2691
C25 C -0.2565(5) -0.1967(4) -0.1891(4)
H19 H -0.2141 -0.1524 -0.2079
C26 C -0.2342(4) -0.2572(5) -0.1216(4)
H20 H -0.1742 -0.2604 -0.0875
H21 H -0.0832 -0.0690 0.5607
H22 H -0.0982 -0.0643 0.4605
Co2C Co 0.23753(2) -0.40927(2) -0.003700(19)
Co2_2 Co -0.26247(2) -0.09073(2) -0.503700(19)
Co2A Co -0.23753(2) -0.59073(2) 0.003700(19)
Co2B Co 0.26247(2) -0.90927(2) 0.503700(19)
Co2B_2 Co 0.26247(2) -0.90927(2) -0.496300(19)
Fe1B Fe 0.21987(3) -0.65963(2) -0.25053(2)
Fe2B Fe 0.25441(4) -0.67736(3) 0.23152(3)
O1B O 0.39730(15) -0.74464(14) 0.43038(15)
O2B O 0.24535(14) -0.77989(12) 0.45925(11)
O2_2 O -0.24535(14) -0.22011(12) 0.54075(11)
O2B_2 O 0.24535(14) -0.77989(12) -0.54075(11)
O3B O 0.22084(13) -0.44975(11) 0.12046(10)
O3A O -0.27916(13) -0.05025(11) 0.62046(10)
O3C O 0.27916(13) -0.94975(11) -0.62046(10)
O4B O 0.07867(13) -0.52485(13) 0.11341(11)
O5B O 0.08160(13) -0.58902(12) -0.06543(13)
O6B O 0.23489(13) -0.53969(11) -0.04179(11)
O6A O -0.26511(13) 0.03969(11) 0.45821(11)
O6C O 0.26511(13) -1.03969(11) -0.45821(11)
O7B O 0.24536(13) -0.86788(12) -0.37081(11)
O8B O 0.40080(15) -0.83997(15) -0.32306(12)
O9B O 0.08446(12) -0.38927(11) -0.02504(12)
O9A O -0.41554(12) -0.11073(11) 0.47496(12)
O9C O 0.41554(12) -0.88927(11) -0.47496(12)
H1B H 0.082(2) -0.372(2) -0.079(2)
H1A H -0.418(2) -0.128(2) 0.421(2)
H1C H 0.418(2) -0.872(2) -0.421(2)
H2B H 0.075(2) -0.347(2) 0.0045(19)
H2A H -0.425(2) -0.153(2) 0.5045(19)
H2C H 0.425(2) -0.847(2) -0.5045(19)
O10B O 0.11156(15) -0.91878(18) -0.51037(19)
C1B C 0.16125(18) -0.50395(16) 0.14648(15)
C2B C 0.19264(18) -0.55297(16) 0.22774(15)
C3B C 0.2907(2) -0.54693(18) 0.26057(18)
H3B H 0.3327 -0.5041 0.2385
C4B C 0.3268(2) -0.60419(19) 0.32619(19)
H4B H 0.3935 -0.6007 0.3470
C5B C 0.2650(2) -0.66617(16) 0.36090(16)
C6B C 0.1666(2) -0.6685(2) 0.33074(18)
H5B H 0.1234 -0.7081 0.3556
C7B C 0.1304(2) -0.6129(2) 0.26400(18)
H6B H 0.0635 -0.6161 0.2436
C8B C 0.3063(2) -0.73590(17) 0.42246(16)
C9B C 0.17151(18) -0.59226(15) -0.07156(15)
C10B C 0.20854(19) -0.66820(16) -0.12207(15)
C11B C 0.1439(2) -0.72957(17) -0.16405(17)
H7B H 0.0775 -0.7312 -0.1511
C12B C 0.1765(2) -0.78820(17) -0.22462(18)
H8B H 0.1321 -0.8286 -0.2530
C13B C 0.27593(19) -0.78689(16) -0.24324(16)
C14B C 0.3418(2) -0.72964(18) -0.19847(16)
H9B H 0.4090 -0.7306 -0.2089
C15B C 0.3084(2) -0.67036(17) -0.13777(16)
H10B H 0.3534 -0.6318 -0.1075
C16B C 0.3110(2) -0.83610(16) -0.31912(15)
C17B C 0.1451(3) -0.5451(2) -0.2798(2)
H11B H 0.1041 -0.5146 -0.2439
C18B C 0.2442(3) -0.5310(2) -0.2834(2)
H12B H 0.2828 -0.4898 -0.2501
C19B C 0.2778(3) -0.5877(3) -0.3442(2)
H13B H 0.3431 -0.5911 -0.3600
C20B C 0.1994(3) -0.6386(2) -0.3779(2)
H14B H 0.2022 -0.6832 -0.4201
C21B C 0.1146(3) -0.6124(2) -0.3385(2)
H15B H 0.0504 -0.6353 -0.3492
C22B C 0.3172(5) -0.6880(4) 0.1142(4)
H16B H 0.3225 -0.6416 0.0742
C23B C 0.3909(3) -0.7146(4) 0.1770(4)
H17B H 0.4541 -0.6891 0.1864
C24B C 0.3533(5) -0.7858(3) 0.2233(3)
H18B H 0.3871 -0.8165 0.2691
C25B C 0.2565(5) -0.8033(4) 0.1891(4)
H19B H 0.2141 -0.8476 0.2079
C26B C 0.2342(4) -0.7428(5) 0.1216(4)
H20B H 0.1742 -0.7396 0.0875
H21B H 0.0832 -0.9310 -0.5607
H22B H 0.0982 -0.9357 -0.4605
loop_
_geom_bond_atom_site_label_1
_geom_bond_atom_site_label_2
_geom_bond_site_symmetry_1
_geom_bond_site_symmetry_2
Co1 O4 1_555 1_555
Co2 O7 1_555 1_555
Fe1 C10 1_555 1_555
Fe2 C2 1_555 1_555
O1 C8 1_555 1_555
O2 C8 1_555 1_555
O3 C1 1_555 1_555
O4 C1 1_555 1_555
O5 Co1 1_555 1_555
O6 C9 1_555 1_555
O7 C16 1_555 1_555
O8 C16 1_555 1_555
O9 Co1 1_555 1_555
H1 O9 1_555 1_555
H2 O9 1_555 1_555
O10 Co2 1_555 1_555
C1 C2 1_555 1_555
C2 C3 1_555 1_555
C3 Fe2 1_555 1_555
H3 C3 1_555 1_555
C4 Fe2 1_555 1_555
H4 C4 1_555 1_555
C5 Fe2 1_555 1_555
C6 Fe2 1_555 1_555
H5 C6 1_555 1_555
C7 Fe2 1_555 1_555
H6 C7 1_555 1_555
C8 C5 1_555 1_555
C9 O5 1_555 1_555
C10 C9 1_555 1_555
C11 Fe1 1_555 1_555
H7 C11 1_555 1_555
C12 Fe1 1_555 1_555
H8 C12 1_555 1_555
C13 Fe1 1_555 1_555
C14 Fe1 1_555 1_555
H9 C14 1_555 1_555
C15 Fe1 1_555 1_555
H10 C15 1_555 1_555
C16 C13 1_555 1_555
C17 Fe1 1_555 1_555
H11 C17 1_555 1_555
C18 Fe1 1_555 1_555
H12 C18 1_555 1_555
C19 Fe1 1_555 1_555
H13 C19 1_555 1_555
C20 Fe1 1_555 1_555
H14 C20 1_555 1_555
C21 Fe1 1_555 1_555
H15 C21 1_555 1_555
C22 Fe2 1_555 1_555
H16 C22 1_555 1_555
C23 Fe2 1_555 1_555
H17 C23 1_555 1_555
C24 Fe2 1_555 1_555
H18 C24 1_555 1_555
C25 Fe2 1_555 1_555
H19 C25 1_555 1_555
C26 Fe2 1_555 1_555
H20 C26 1_555 1_555
H21 O10 1_555 1_555
H22 O10 1_555 1_555
Co2C O3B 1_555 1_555
Co2_2 O2 1_555 1_555
Co2A O3 1_555 1_555
Co2B O2B 1_555 1_555
Co2B_2 O2B_2 1_555 1_555
Fe1B C10B 1_555 1_555
Fe2B C2B 1_555 1_555
O1B C8B 1_555 1_555
O2B C8B 1_555 1_555
O2_2 Co2 1_555 1_555
O3B C1B 1_555 1_555
O3A Co2 1_555 1_555
O3C Co2B_2 1_555 1_555
O4B Co1 1_555 1_555
O5B Co1 1_555 1_555
O6B Co2C 1_555 1_555
O6A Co2 1_555 1_555
O6C Co2B_2 1_555 1_555
O7B Co2B_2 1_555 1_555
O8B C16B 1_555 1_555
O9B Co1 1_555 1_555
O9A Co2 1_555 1_555
O9C Co2B_2 1_555 1_555
H1B O9B 1_555 1_555
H1A O9A 1_555 1_555
H1C O9C 1_555 1_555
H2B O9B 1_555 1_555
H2A O9A 1_555 1_555
H2C O9C 1_555 1_555
O10B Co2B_2 1_555 1_555
C1B O4B 1_555 1_555
C2B C1B 1_555 1_555
C3B Fe2B 1_555 1_555
H3B C3B 1_555 1_555
C4B Fe2B 1_555 1_555
H4B C4B 1_555 1_555
C5B Fe2B 1_555 1_555
C6B Fe2B 1_555 1_555
H5B C6B 1_555 1_555
C7B Fe2B 1_555 1_555
H6B C7B 1_555 1_555
C8B C5B 1_555 1_555
C9B O5B 1_555 1_555
C10B C9B 1_555 1_555
C11B Fe1B 1_555 1_555
H7B C11B 1_555 1_555
C12B Fe1B 1_555 1_555
H8B C12B 1_555 1_555
C13B Fe1B 1_555 1_555
C14B Fe1B 1_555 1_555
H9B C14B 1_555 1_555
C15B Fe1B 1_555 1_555
H10B C15B 1_555 1_555
C16B O7B 1_555 1_555
C17B Fe1B 1_555 1_555
H11B C17B 1_555 1_555
C18B Fe1B 1_555 1_555
H12B C18B 1_555 1_555
C19B Fe1B 1_555 1_555
H13B C19B 1_555 1_555
C20B Fe1B 1_555 1_555
H14B C20B 1_555 1_555
C21B Fe1B 1_555 1_555
H15B C21B 1_555 1_555
C22B Fe2B 1_555 1_555
H16B C22B 1_555 1_555
C23B Fe2B 1_555 1_555
H17B C23B 1_555 1_555
C24B Fe2B 1_555 1_555
H18B C24B 1_555 1_555
C25B Fe2B 1_555 1_555
H19B C25B 1_555 1_555
C26B Fe2B 1_555 1_555
H20B C26B 1_555 1_555
H21B O10B 1_555 1_555
H22B O10B 1_555 1_555
O6 Co2A 1_555 1_555
O9 Co2A 1_555 1_555
C2 C7 1_555 1_555
C3 C4 1_555 1_555
C4 C5 1_555 1_555
C5 C6 1_555 1_555
C6 C7 1_555 1_555
C10 C11 1_555 1_555
C10 C15 1_555 1_555
C11 C12 1_555 1_555
C12 C13 1_555 1_555
C13 C14 1_555 1_555
C14 C15 1_555 1_555
C17 C18 1_555 1_555
C17 C21 1_555 1_555
C18 C19 1_555 1_555
C19 C20 1_555 1_555
C20 C21 1_555 1_555
C22 C23 1_555 1_555
C22 C26 1_555 1_555
C23 C24 1_555 1_555
C24 C25 1_555 1_555
C25 C26 1_555 1_555
Co2C O9B 1_555 1_555
O6B C9B 1_555 1_555
C2B C3B 1_555 1_555
C2B C7B 1_555 1_555
C3B C4B 1_555 1_555
C4B C5B 1_555 1_555
C5B C6B 1_555 1_555
C6B C7B 1_555 1_555
C10B C11B 1_555 1_555
C10B C15B 1_555 1_555
C11B C12B 1_555 1_555
C12B C13B 1_555 1_555
C13B C14B 1_555 1_555
C13B C16B 1_555 1_555
C14B C15B 1_555 1_555
C17B C18B 1_555 1_555
C17B C21B 1_555 1_555
C18B C19B 1_555 1_555
C19B C20B 1_555 1_555
C20B C21B 1_555 1_555
C22B C23B 1_555 1_555
C22B C26B 1_555 1_555
C23B C24B 1_555 1_555
C24B C25B 1_555 1_555
C25B C26B 1_555 1_555

#END
