
#######################################################################
#
#                 Cambridge Crystallographic Data Centre
#                                CCDC 
#
#######################################################################
#
# If this CIF has been generated from an entry in the Cambridge 
# Structural Database, then it will include bibliographic, chemical, 
# crystal, experimental, refinement or atomic coordinate data resulting 
# from the CCDC's data processing and validation procedures.
#
#######################################################################

data_BUCSAU
_chemical_formula_moiety         '(C52 H44 Co3 Fe4 O20 2+)n'
_symmetry_cell_setting           monoclinic
_symmetry_space_group_name_H-M   'P 21/n'
_symmetry_Int_Tables_number      14
_space_group_name_Hall           '-P 2yn'
loop_
_symmetry_equiv_pos_site_id
_symmetry_equiv_pos_as_xyz
1 x,y,z
2 1/2-x,1/2+y,1/2-z
3 -x,-y,-z
4 1/2+x,1/2-y,1/2+z
_cell_length_a                   13.5063(10)
_cell_length_b                   15.3586(11)
_cell_length_c                   15.8303(11)
_cell_angle_alpha                90
_cell_angle_beta                 95.8490(10)
_cell_angle_gamma                90
_cell_volume                     3266.71
loop_
_atom_site_label
_atom_site_type_symbol
_atom_site_fract_x
_atom_site_fract_y
_atom_site_fract_z
Co1 Co 0.5000 -0.5000 0.0000
O1 O 0.0943(2) -0.2470(2) -0.4265(2)
Co2 Co 0.24066(3) -0.09521(3) 0.49645(3)
O2 O 0.2504(2) -0.22034(16) -0.45596(17)
C1 C 0.2266(3) -0.3304(3) -0.3581(3)
Fe1 Fe 0.28448(5) -0.34587(4) 0.25418(4)
O3 O 0.42175(19) -0.48290(17) -0.11726(15)
C2 C 0.1624(4) -0.3838(4) -0.3183(4)
H1 H 0.0928 -0.3803 -0.3342
Fe2 Fe 0.25408(6) -0.31832(5) -0.22905(4)
O4 O 0.27223(19) -0.54696(16) -0.11877(16)
C3 C 0.1989(4) -0.4429(4) -0.2549(4)
H2 H 0.1542 -0.4816 -0.2314
O5 O 0.41723(16) -0.61028(14) 0.02636(14)
H3 H 0.4341 -0.6263 0.0867
H4 H 0.4377 -0.6592 -0.0087
C4 C 0.2987(3) -0.4455(2) -0.2262(2)
O6 O 0.3945(2) -0.0896(3) 0.5163(3)
H5 H 0.4117 -0.0690 0.5647
C5 C 0.3651(3) -0.3947(3) -0.2673(3)
H6 H 0.4346 -0.3983 -0.2510
O7 O 0.2587(2) -0.47046(17) 0.04899(19)
C6 C 0.3280(3) -0.3378(3) -0.3335(3)
H7 H 0.3734 -0.3038 -0.3616
O8 O 0.4106(2) -0.41255(16) 0.05868(18)
C7 C 0.3339(3) -0.4967(2) -0.1464(2)
O9 O 0.0985(2) -0.1632(2) 0.32220(18)
O10 O 0.2574(2) -0.14224(17) 0.37303(17)
C8 C 0.1854(3) -0.2602(2) -0.4191(2)
C9 C 0.3222(3) -0.4149(2) 0.0731(2)
C10 C 0.2863(3) -0.3412(2) 0.1256(2)
C11 C 0.3523(3) -0.2785(3) 0.1627(3)
H8 H 0.4179 -0.2746 0.1462
C12 C 0.3212(3) -0.2209(3) 0.2247(3)
H9 H 0.3671 -0.1801 0.2514
C13 C 0.2233(3) -0.2237(2) 0.2472(2)
C14 C 0.1559(3) -0.2822(3) 0.2039(3)
H10 H 0.0881 -0.2816 0.2152
C15 C 0.1867(3) -0.3410(3) 0.1448(3)
H11 H 0.1404 -0.3811 0.1174
C16 C 0.1906(3) -0.1717(2) 0.3208(2)
C17 C 0.3979(5) -0.3844(5) 0.3410(4)
H12 H 0.4613 -0.3572 0.3494
C18 C 0.3101(8) -0.3647(5) 0.3809(4)
H13 H 0.3045 -0.3207 0.4223
C19 C 0.2367(7) -0.4189(6) 0.3501(6)
H14 H 0.1713 -0.4195 0.3672
C20 C 0.2699(7) -0.4723(5) 0.2910(6)
H15 H 0.2310 -0.5147 0.2591
C21 C 0.3668(6) -0.4558(4) 0.2845(4)
H16 H 0.4079 -0.4859 0.2489
C22 C 0.1251(5) -0.2729(6) -0.1756(5)
H17 H 0.0571 -0.2885 -0.1879
C23 C 0.1760(7) -0.2069(6) -0.2168(5)
H18 H 0.1480 -0.1706 -0.2616
C24 C 0.2760(7) -0.2047(6) -0.1793(6)
H19 H 0.3267 -0.1667 -0.1947
C25 C 0.2870(5) -0.2694(5) -0.1149(5)
H20 H 0.3464 -0.2822 -0.0796
C26 C 0.1938(6) -0.3115(4) -0.1126(5)
H21 H 0.1798 -0.3574 -0.0754
H22 H 0.4254 -0.0910 0.4699
O1B O 0.9057(2) -0.7530(2) 0.4265(2)
Co2C Co 0.74066(3) -0.40479(3) -0.00355(3)
Co2_2 Co 0.24066(3) -0.09521(3) -0.50355(3)
Co2A Co 0.25934(3) -0.59521(3) 0.00355(3)
Co2B Co 0.75934(3) -0.90479(3) -0.49645(3)
Co2B_2 Co 0.75934(3) -0.90479(3) 0.50355(3)
O2B O 0.7496(2) -0.77966(16) 0.45596(17)
O2_2 O 0.2504(2) -0.22034(16) 0.54404(17)
O2B_2 O 0.7496(2) -0.77966(16) -0.54404(17)
C1B C 0.7734(3) -0.6696(3) 0.3581(3)
Fe1B Fe 0.71552(5) -0.65413(4) -0.25418(4)
O3B O 0.57825(19) -0.51710(17) 0.11726(15)
C2B C 0.8376(4) -0.6162(4) 0.3183(4)
H1B H 0.9072 -0.6197 0.3342
Fe2B Fe 0.74592(6) -0.68168(5) 0.22905(4)
O4B O 0.72777(19) -0.45304(16) 0.11877(16)
O4A O 0.22777(19) -0.04696(16) 0.61877(16)
O4C O 0.77223(19) -0.95304(16) -0.61877(16)
C3B C 0.8011(4) -0.5571(4) 0.2549(4)
H2B H 0.8458 -0.5184 0.2314
O5B O 0.58277(16) -0.38972(14) -0.02636(14)
O5A O 0.08277(16) -0.11028(14) 0.47364(14)
O5C O 0.91723(16) -0.88972(14) -0.47364(14)
H3B H 0.5659 -0.3737 -0.0867
H3A H 0.0659 -0.1263 0.4133
H3C H 0.9341 -0.8737 -0.4133
H4B H 0.5623 -0.3408 0.0087
H4A H 0.0623 -0.1592 0.5087
H4C H 0.9377 -0.8408 -0.5087
C4B C 0.7013(3) -0.5545(2) 0.2262(2)
O6B O 0.6055(2) -0.9104(3) -0.5163(3)
H5B H 0.5883 -0.9310 -0.5647
C5B C 0.6349(3) -0.6053(3) 0.2673(3)
H6B H 0.5654 -0.6017 0.2510
O7B O 0.7413(2) -0.52954(17) -0.04899(19)
O7A O 0.2413(2) 0.02954(17) 0.45101(19)
O7C O 0.7587(2) -1.02954(17) -0.45101(19)
C6B C 0.6720(3) -0.6622(3) 0.3335(3)
H7B H 0.6266 -0.6962 0.3616
O8B O 0.5894(2) -0.58745(16) -0.05868(18)
C7B C 0.6661(3) -0.5033(2) 0.1464(2)
O9B O 0.9015(2) -0.8368(2) -0.32220(18)
O10B O 0.7426(2) -0.85776(17) -0.37303(17)
C8B C 0.8146(3) -0.7398(2) 0.4191(2)
C9B C 0.6778(3) -0.5851(2) -0.0731(2)
C10B C 0.7137(3) -0.6588(2) -0.1256(2)
C11B C 0.6477(3) -0.7215(3) -0.1627(3)
H8B H 0.5821 -0.7254 -0.1462
C12B C 0.6788(3) -0.7791(3) -0.2247(3)
H9B H 0.6329 -0.8199 -0.2514
C13B C 0.7767(3) -0.7763(2) -0.2472(2)
C14B C 0.8441(3) -0.7178(3) -0.2039(3)
H10B H 0.9119 -0.7184 -0.2152
C15B C 0.8133(3) -0.6590(3) -0.1448(3)
H11B H 0.8596 -0.6189 -0.1174
C16B C 0.8094(3) -0.8283(2) -0.3208(2)
C17B C 0.6021(5) -0.6156(5) -0.3410(4)
H12B H 0.5387 -0.6428 -0.3494
C18B C 0.6899(8) -0.6353(5) -0.3809(4)
H13B H 0.6955 -0.6793 -0.4223
C19B C 0.7633(7) -0.5811(6) -0.3501(6)
H14B H 0.8287 -0.5805 -0.3672
C20B C 0.7301(7) -0.5277(5) -0.2910(6)
H15B H 0.7690 -0.4853 -0.2591
C21B C 0.6332(6) -0.5442(4) -0.2845(4)
H16B H 0.5921 -0.5141 -0.2489
C22B C 0.8749(5) -0.7271(6) 0.1756(5)
H17B H 0.9429 -0.7115 0.1879
C23B C 0.8240(7) -0.7931(6) 0.2168(5)
H18B H 0.8520 -0.8294 0.2616
C24B C 0.7240(7) -0.7953(6) 0.1793(6)
H19B H 0.6733 -0.8333 0.1947
C25B C 0.7130(5) -0.7306(5) 0.1149(5)
H20B H 0.6536 -0.7178 0.0796
C26B C 0.8062(6) -0.6885(4) 0.1126(5)
H21B H 0.8202 -0.6426 0.0754
H22B H 0.5746 -0.9090 -0.4699
loop_
_geom_bond_atom_site_label_1
_geom_bond_atom_site_label_2
_geom_bond_site_symmetry_1
_geom_bond_site_symmetry_2
Co1 O3 1_555 1_555
O1 C8 1_555 1_555
Co2 O6 1_555 1_555
O2 C8 1_555 1_555
C1 C2 1_555 1_555
Fe1 C10 1_555 1_555
O3 C7 1_555 1_555
C2 H1 1_555 1_555
Fe2 C1 1_555 1_555
O4 C7 1_555 1_555
C3 C2 1_555 1_555
H2 C3 1_555 1_555
O5 Co1 1_555 1_555
H3 O5 1_555 1_555
H4 O5 1_555 1_555
C4 Fe2 1_555 1_555
O6 H5 1_555 1_555
C5 Fe2 1_555 1_555
H6 C5 1_555 1_555
O7 C9 1_555 1_555
C6 C1 1_555 1_555
H7 C6 1_555 1_555
O8 Co1 1_555 1_555
C7 C4 1_555 1_555
O9 C16 1_555 1_555
O10 Co2 1_555 1_555
C8 C1 1_555 1_555
C9 O8 1_555 1_555
C10 C9 1_555 1_555
C11 Fe1 1_555 1_555
H8 C11 1_555 1_555
C12 Fe1 1_555 1_555
H9 C12 1_555 1_555
C13 Fe1 1_555 1_555
C14 Fe1 1_555 1_555
H10 C14 1_555 1_555
C15 Fe1 1_555 1_555
H11 C15 1_555 1_555
C16 O10 1_555 1_555
C17 Fe1 1_555 1_555
H12 C17 1_555 1_555
C18 Fe1 1_555 1_555
H13 C18 1_555 1_555
C19 Fe1 1_555 1_555
H14 C19 1_555 1_555
C20 Fe1 1_555 1_555
H15 C20 1_555 1_555
C21 Fe1 1_555 1_555
H16 C21 1_555 1_555
C22 Fe2 1_555 1_555
H17 C22 1_555 1_555
C23 Fe2 1_555 1_555
H18 C23 1_555 1_555
C24 Fe2 1_555 1_555
H19 C24 1_555 1_555
C25 Fe2 1_555 1_555
H20 C25 1_555 1_555
C26 Fe2 1_555 1_555
H21 C26 1_555 1_555
H22 O6 1_555 1_555
O1B C8B 1_555 1_555
Co2C O4B 1_555 1_555
Co2_2 O2 1_555 1_555
Co2A O4 1_555 1_555
Co2B O2B_2 1_555 1_555
Co2B_2 O2B 1_555 1_555
O2B C8B 1_555 1_555
O2_2 Co2 1_555 1_555
C1B C2B 1_555 1_555
Fe1B C10B 1_555 1_555
O3B Co1 1_555 1_555
C2B H1B 1_555 1_555
Fe2B C1B 1_555 1_555
O4B C7B 1_555 1_555
O4A Co2 1_555 1_555
O4C Co2B 1_555 1_555
C3B C2B 1_555 1_555
H2B C3B 1_555 1_555
O5B Co1 1_555 1_555
O5A Co2 1_555 1_555
O5C Co2B 1_555 1_555
H3B O5B 1_555 1_555
H3A O5A 1_555 1_555
H3C O5C 1_555 1_555
H4B O5B 1_555 1_555
H4A O5A 1_555 1_555
H4C O5C 1_555 1_555
C4B Fe2B 1_555 1_555
O6B Co2B 1_555 1_555
H5B O6B 1_555 1_555
C5B Fe2B 1_555 1_555
H6B C5B 1_555 1_555
O7B Co2C 1_555 1_555
O7A Co2 1_555 1_555
O7C Co2B 1_555 1_555
C6B C1B 1_555 1_555
H7B C6B 1_555 1_555
O8B Co1 1_555 1_555
C7B O3B 1_555 1_555
O9B C16B 1_555 1_555
O10B Co2B 1_555 1_555
C8B C1B 1_555 1_555
C9B O7B 1_555 1_555
C10B C9B 1_555 1_555
C11B Fe1B 1_555 1_555
H8B C11B 1_555 1_555
C12B Fe1B 1_555 1_555
H9B C12B 1_555 1_555
C13B Fe1B 1_555 1_555
C14B Fe1B 1_555 1_555
H10B C14B 1_555 1_555
C15B Fe1B 1_555 1_555
H11B C15B 1_555 1_555
C16B O10B 1_555 1_555
C17B Fe1B 1_555 1_555
H12B C17B 1_555 1_555
C18B Fe1B 1_555 1_555
H13B C18B 1_555 1_555
C19B Fe1B 1_555 1_555
H14B C19B 1_555 1_555
C20B Fe1B 1_555 1_555
H15B C20B 1_555 1_555
C21B Fe1B 1_555 1_555
H16B C21B 1_555 1_555
C22B Fe2B 1_555 1_555
H17B C22B 1_555 1_555
C23B Fe2B 1_555 1_555
H18B C23B 1_555 1_555
C24B Fe2B 1_555 1_555
H19B C24B 1_555 1_555
C25B Fe2B 1_555 1_555
H20B C25B 1_555 1_555
C26B Fe2B 1_555 1_555
H21B C26B 1_555 1_555
H22B O6B 1_555 1_555
C2 Fe2 1_555 1_555
Fe2 C3 1_555 1_555
Fe2 C6 1_555 1_555
C3 C4 1_555 1_555
O5 Co2A 1_555 1_555
C4 C5 1_555 1_555
C5 C6 1_555 1_555
O7 Co2A 1_555 1_555
C10 C11 1_555 1_555
C10 C15 1_555 1_555
C11 C12 1_555 1_555
C12 C13 1_555 1_555
C13 C14 1_555 1_555
C13 C16 1_555 1_555
C14 C15 1_555 1_555
C17 C18 1_555 1_555
C17 C21 1_555 1_555
C18 C19 1_555 1_555
C19 C20 1_555 1_555
C20 C21 1_555 1_555
C22 C23 1_555 1_555
C22 C26 1_555 1_555
C23 C24 1_555 1_555
C24 C25 1_555 1_555
C25 C26 1_555 1_555
Co2C O5B 1_555 1_555
C2B Fe2B 1_555 1_555
Fe2B C3B 1_555 1_555
Fe2B C6B 1_555 1_555
C3B C4B 1_555 1_555
C4B C5B 1_555 1_555
C4B C7B 1_555 1_555
C5B C6B 1_555 1_555
O8B C9B 1_555 1_555
C10B C11B 1_555 1_555
C10B C15B 1_555 1_555
C11B C12B 1_555 1_555
C12B C13B 1_555 1_555
C13B C14B 1_555 1_555
C13B C16B 1_555 1_555
C14B C15B 1_555 1_555
C17B C18B 1_555 1_555
C17B C21B 1_555 1_555
C18B C19B 1_555 1_555
C19B C20B 1_555 1_555
C20B C21B 1_555 1_555
C22B C23B 1_555 1_555
C22B C26B 1_555 1_555
C23B C24B 1_555 1_555
C24B C25B 1_555 1_555
C25B C26B 1_555 1_555

#END
