
#######################################################################
#
#                 Cambridge Crystallographic Data Centre
#                                CCDC 
#
#######################################################################
#
# If this CIF has been generated from an entry in the Cambridge 
# Structural Database, then it will include bibliographic, chemical, 
# crystal, experimental, refinement or atomic coordinate data resulting 
# from the CCDC's data processing and validation procedures.
#
#######################################################################

data_IQIDES
_chemical_formula_moiety         '(C2 H12 Be3 N1 O12 P4 1-)n'
_symmetry_cell_setting           monoclinic
_symmetry_space_group_name_H-M   'C 2/c'
_symmetry_Int_Tables_number      15
_space_group_name_Hall           '-C 2yc'
loop_
_symmetry_equiv_pos_site_id
_symmetry_equiv_pos_as_xyz
1 x,y,z
2 -x,y,1/2-z
3 1/2+x,1/2+y,z
4 1/2-x,1/2+y,1/2-z
5 -x,-y,-z
6 x,-y,1/2+z
7 1/2-x,1/2-y,-z
8 1/2+x,1/2-y,1/2+z
_cell_length_a                   14.6905(8)
_cell_length_b                   8.0472(4)
_cell_length_c                   15.8688(2)
_cell_angle_alpha                90
_cell_angle_beta                 112.929(7)
_cell_angle_gamma                90
_cell_volume                     1727.74
loop_
_atom_site_label
_atom_site_type_symbol
_atom_site_fract_x
_atom_site_fract_y
_atom_site_fract_z
P1 P 0.51646(5) 0.39359(10) 0.39624(5)
H1 H 0.543(2) 0.269(4) 0.3544(18)
P2 P 0.35225(6) 0.15057(11) 0.62141(5)
H2 H 0.409(2) 0.006(4) 0.6484(19)
Be1 Be 0.3616(3) 0.3681(5) 0.4714(2)
Be2 Be 0.5000 0.6341(7) 0.2500
O1 O 0.60778(15) 0.4498(3) 0.47698(14)
O2 O 0.43775(16) 0.3215(3) 0.42348(14)
O3 O 0.47610(16) 0.5266(3) 0.32434(14)
O4 O 0.24836(15) 0.1064(3) 0.60813(13)
O5 O 0.40071(16) 0.2532(3) 0.70613(13)
O6 O 0.36486(15) 0.2190(3) 0.53872(13)
P1A P 0.48354(5) 0.39359(10) 0.10376(5)
H1A H 0.457(2) 0.269(4) 0.1456(18)
P2A P 0.64775(6) 0.15057(11) -0.12141(5)
H2A H 0.591(2) 0.006(4) -0.1484(19)
Be1A Be 0.6384(3) 0.3681(5) 0.0286(2)
Be1D Be 0.6384(3) 0.6319(5) 0.5286(2)
Be1E Be 0.3616(3) 0.6319(5) -0.0286(2)
Be1F Be 0.1384(3) 0.1319(5) 0.5286(2)
Be1G Be 0.8616(3) 0.1319(5) -0.0286(2)
Be2D Be 0.5000 0.3659(7) -0.2500
Be2D_2 Be 0.5000 0.3659(7) 0.7500
O1A O 0.39222(15) 0.4498(3) 0.02302(14)
O1D O 0.39222(15) 0.5502(3) 0.52302(14)
O1E O 0.60778(15) 0.5502(3) -0.02302(14)
O2A O 0.56225(16) 0.3215(3) 0.07652(14)
O3A O 0.52390(16) 0.5266(3) 0.17566(14)
O4A O 0.75164(15) 0.1064(3) -0.10813(13)
O4F O 0.25164(15) 0.3936(3) 0.39187(13)
O4G O 0.74836(15) 0.3936(3) 0.10813(13)
O5A O 0.59929(16) 0.2532(3) -0.20613(13)
O5D O 0.59929(16) 0.7468(3) 0.29387(13)
O5E O 0.40071(16) 0.7468(3) 0.20613(13)
O6A O 0.63514(15) 0.2190(3) -0.03872(13)
N1 N 0.1661(2) -0.2626(4) 0.64142(18)
H3 H 0.1419 -0.2177 0.6803
H4 H 0.1577 -0.1881 0.5967
C1 C 0.2722(3) -0.2929(6) 0.6907(3)
H5 H 0.3048 -0.1904 0.7160
H6 H 0.2993 -0.3373 0.6493
H7 H 0.2820 -0.3711 0.7392
C2 C 0.1099(3) -0.4122(5) 0.6012(3)
H8 H 0.0414 -0.3842 0.5697
H9 H 0.1169 -0.4911 0.6487
H10 H 0.1345 -0.4598 0.5587
loop_
_geom_bond_atom_site_label_1
_geom_bond_atom_site_label_2
_geom_bond_site_symmetry_1
_geom_bond_site_symmetry_2
P1 H1 1_555 1_555
P2 H2 1_555 1_555
Be1 O2 1_555 1_555
Be2 O3 1_555 1_555
O1 P1 1_555 1_555
O2 P1 1_555 1_555
O3 P1 1_555 1_555
O4 P2 1_555 1_555
O5 P2 1_555 1_555
O6 P2 1_555 1_555
N1 H3 1_555 1_555
H4 N1 1_555 1_555
C1 N1 1_555 1_555
H5 C1 1_555 1_555
H6 C1 1_555 1_555
H7 C1 1_555 1_555
C2 N1 1_555 1_555
H8 C2 1_555 1_555
H9 C2 1_555 1_555
H10 C2 1_555 1_555
P1A H1A 1_555 1_555
P2A H2A 1_555 1_555
Be1A O1E 1_555 1_555
Be1D O1 1_555 1_555
Be1E O1A 1_555 1_555
Be1F O4 1_555 1_555
Be1G O4A 1_555 1_555
Be2D O5A 1_555 1_555
Be2D_2 O5 1_555 1_555
O1A P1A 1_555 1_555
O1D Be1 1_555 1_555
O2A P1A 1_555 1_555
O3A Be2 1_555 1_555
O4A P2A 1_555 1_555
O4F Be1 1_555 1_555
O4G Be1A 1_555 1_555
O5A P2A 1_555 1_555
O5D Be2 1_555 1_555
O5E Be2 1_555 1_555
O6A P2A 1_555 1_555
Be1 O6 1_555 1_555
P1A O3A 1_555 1_555
Be1A O2A 1_555 1_555
Be1A O6A 1_555 1_555

#END
