
#######################################################################
#
#                 Cambridge Crystallographic Data Centre
#                                CCDC 
#
#######################################################################
#
# If this CIF has been generated from an entry in the Cambridge 
# Structural Database, then it will include bibliographic, chemical, 
# crystal, experimental, refinement or atomic coordinate data resulting 
# from the CCDC's data processing and validation procedures.
#
#######################################################################

data_OFERUN09
_chemical_formula_moiety         '(C8 H10 N4 Zn1)n'
_symmetry_cell_setting           cubic
_symmetry_space_group_name_H-M   'I -4 3 m'
_symmetry_Int_Tables_number      217
_space_group_name_Hall           'I -4 2 3'
loop_
_symmetry_equiv_pos_site_id
_symmetry_equiv_pos_as_xyz
1 x,y,z
2 z,x,y
3 y,z,x
4 y,-x,-z
5 -z,y,-x
6 -x,-z,y
7 -x,-y,z
8 -z,x,-y
9 -y,-z,x
10 x,-y,-z
11 z,-x,-y
12 -y,z,-x
13 -y,x,-z
14 -z,-y,x
15 x,-z,-y
16 x,z,y
17 y,x,z
18 z,y,x
19 y,-z,-x
20 -y,-x,z
21 z,-y,-x
22 -x,z,-y
23 -x,y,-z
24 -z,-x,y
25 1/2+x,1/2+y,1/2+z
26 1/2+z,1/2+x,1/2+y
27 1/2+y,1/2+z,1/2+x
28 1/2+y,1/2-x,1/2-z
29 1/2-z,1/2+y,1/2-x
30 1/2-x,1/2-z,1/2+y
31 1/2-x,1/2-y,1/2+z
32 1/2-z,1/2+x,1/2-y
33 1/2-y,1/2-z,1/2+x
34 1/2+x,1/2-y,1/2-z
35 1/2+z,1/2-x,1/2-y
36 1/2-y,1/2+z,1/2-x
37 1/2-y,1/2+x,1/2-z
38 1/2-z,1/2-y,1/2+x
39 1/2+x,1/2-z,1/2-y
40 1/2+x,1/2+z,1/2+y
41 1/2+y,1/2+x,1/2+z
42 1/2+z,1/2+y,1/2+x
43 1/2+y,1/2-z,1/2-x
44 1/2-y,1/2-x,1/2+z
45 1/2+z,1/2-y,1/2-x
46 1/2-x,1/2+z,1/2-y
47 1/2-x,1/2+y,1/2-z
48 1/2-z,1/2-x,1/2+y
_cell_length_a                   17.01162(6)
_cell_length_b                   17.01162
_cell_length_c                   17.01162
_cell_angle_alpha                90
_cell_angle_beta                 90
_cell_angle_gamma                90
_cell_volume                     4923.08
loop_
_atom_site_label
_atom_site_type_symbol
_atom_site_fract_x
_atom_site_fract_y
_atom_site_fract_z
Zn1 Zn 0.500 1.0 0.750
C1 C 0.37657(23) 1.00821(28) 0.62343(23)
C2 C 0.36966(15) 0.90062(19) 0.68626(15)
H1 H 0.3777 0.8589 0.7234
C3 C 0.40448(21) 1.08675(28) 0.59552(21)
N1 N 0.41156(13) 0.97032(17) 0.68300(13)
C2D C 0.31374(15) 0.90062(19) 0.63034(15)
H1D H 0.2766 0.8589 0.6223
N1D N 0.31700(13) 0.97032(17) 0.58844(13)
C1F C 0.62343(23) 0.99179(28) 0.62343(23)
C2F C 0.63034(15) 1.09938(19) 0.68626(15)
H1F H 0.6223 1.1411 0.7234
C3F C 0.59552(21) 0.91325(28) 0.59552(21)
N1F N 0.58844(13) 1.02968(17) 0.68300(13)
C2T C 0.68626(15) 1.09938(19) 0.63034(15)
H1T H 0.7234 1.1411 0.6223
N1T N 0.68300(13) 1.02968(17) 0.58844(13)
Zn1D Zn 0.250 1.0 0.500
Zn1Q Zn 0.750 1.0 0.500
N1AA N 0.47032(17) 1.08844(13) 0.81700(13)
N1JA N 0.52968(17) 0.91156(13) 0.81700(13)
loop_
_geom_bond_atom_site_label_1
_geom_bond_atom_site_label_2
_geom_bond_site_symmetry_1
_geom_bond_site_symmetry_2
Zn1 N1 1_555 1_555
C1 C3 1_555 1_555
C2 H1 1_555 1_555
N1 C1 1_555 1_555
C2D C2 1_555 1_555
H1D C2D 1_555 1_555
N1D C1 1_555 1_555
C1F C3F 1_555 1_555
C2F H1F 1_555 1_555
N1F Zn1 1_555 1_555
C2T C2F 1_555 1_555
H1T C2T 1_555 1_555
N1T C1F 1_555 1_555
Zn1D N1D 1_555 1_555
Zn1Q N1T 1_555 1_555
N1AA Zn1 1_555 1_555
N1JA Zn1 1_555 1_555
C2 N1 1_555 1_555
C2D N1D 1_555 1_555
C1F N1F 1_555 1_555
C2F N1F 1_555 1_555
C2T N1T 1_555 1_555

#END
