
#######################################################################
#
#                 Cambridge Crystallographic Data Centre
#                                CCDC 
#
#######################################################################
#
# If this CIF has been generated from an entry in the Cambridge 
# Structural Database, then it will include bibliographic, chemical, 
# crystal, experimental, refinement or atomic coordinate data resulting 
# from the CCDC's data processing and validation procedures.
#
#######################################################################

data_KOSJEJ
_chemical_formula_moiety         '(C8 H4 Co2 O6)n'
_symmetry_cell_setting           rhombohedral
_symmetry_space_group_name_H-M   'R 3 m'
_symmetry_Int_Tables_number      160
_space_group_name_Hall           'R 3 -2"'
loop_
_symmetry_equiv_pos_site_id
_symmetry_equiv_pos_as_xyz
1 x,y,z
2 -y,x-y,z
3 -x+y,-x,z
4 -x+y,y,z
5 -y,-x,z
6 x,x-y,z
7 1/3+x,2/3+y,2/3+z
8 1/3-y,2/3+x-y,2/3+z
9 1/3-x+y,2/3-x,2/3+z
10 1/3-x+y,2/3+y,2/3+z
11 1/3-y,2/3-x,2/3+z
12 1/3+x,2/3+x-y,2/3+z
13 2/3+x,1/3+y,1/3+z
14 2/3-y,1/3+x-y,1/3+z
15 2/3-x+y,1/3-x,1/3+z
16 2/3-x+y,1/3+y,1/3+z
17 2/3-y,1/3-x,1/3+z
18 2/3+x,1/3+x-y,1/3+z
_cell_length_a                   25.8518(12)
_cell_length_b                   25.8518
_cell_length_c                   6.7881(5)
_cell_angle_alpha                90
_cell_angle_beta                 90
_cell_angle_gamma                120
_cell_volume                     3928.8
loop_
_atom_site_label
_atom_site_type_symbol
_atom_site_fract_x
_atom_site_fract_y
_atom_site_fract_z
_atom_site_U_iso_or_equiv
_atom_site_thermal_displace_type
D1 D 0.2044(4) 0.2145(5) 0.0189(14) 0.0710 Uiso
D2 D 0.7909(24) 0.9523(23) 0.414(6) 0.1530 Uiso
C1 C 0.6567(6) 0.8752(6) -0.1627(24) 0.0100 Uiso
C2 C 0.6664(9) 0.8332(4) -0.2469(35) 0.0100 Uiso
C3 C 0.6414(6) 0.8682(6) 0.0403(24) 0.0140 Uiso
C4 C 0.6337(5) 0.9093(5) 0.1599(20) 0.0076 Uiso
H1 H 0.6743(19) 0.8372(10) -0.392(7) 0.0450 Uiso
O1 O 0.6723(6) 0.9273(6) -0.2567(24) 0.0050 Uiso
O2 O 0.6511(7) 0.9636(7) 0.0857(22) 0.0180 Uiso
O3 O 0.6103(7) 0.8947(6) 0.3379(22) 0.0100 Uiso
C5 C 0.6275(8) 0.8137(4) 0.1361(30) 0.0120 Uiso
H2 H 0.6181(18) 0.8091(9) 0.275(7) 0.0350 Uiso
Co1 Co 0.6273(12) 0.9554(20) -0.430(4) 0.0020 Uiso
C3E C 0.6414(6) 0.7732(8) 0.0403(24) 0.0140 Uiso
C4E C 0.6337(5) 0.7244(7) 0.1599(20) 0.0076 Uiso
O2E O 0.6511(7) 0.6875(10) 0.0857(22) 0.0180 Uiso
O3E O 0.6103(7) 0.7156(9) 0.3379(22) 0.0100 Uiso
C1E C 0.6567(6) 0.7815(8) -0.1627(24) 0.0100 Uiso
O1E O 0.6723(6) 0.7450(8) -0.2567(24) 0.0050 Uiso
Co1E Co 0.6273(12) 0.6719(23) -0.430(4) 0.0020 Uiso
O1H O 0.5883(8) 0.9944(6) -0.5900(24) 0.0050 Uiso
O1I O 0.5883(8) 0.5940(6) -0.5900(24) 0.0050 Uiso
O2H O 0.6458(10) 1.0156(7) -0.2476(22) 0.0180 Uiso
O2I O 0.6458(10) 0.6303(7) -0.2476(22) 0.0180 Uiso
O2M O 0.7031(7) 1.0208(10) -0.5810(22) 0.0180 Uiso
O2P O 0.7031(7) 0.6822(7) -0.5810(22) 0.0180 Uiso
O3_2 O 0.6103(7) 0.8947(6) -0.6621(22) 0.0100 Uiso
O3E_2 O 0.6103(7) 0.7156(9) -0.6621(22) 0.0100 Uiso
Co1_2 Co 0.6273(12) 0.9554(20) 0.570(4) 0.0020 Uiso
Co1E_2 Co 0.6273(12) 0.6719(23) 0.570(4) 0.0020 Uiso
Co1H Co 0.6614(23) 1.0394(12) -0.763(4) 0.0020 Uiso
Co1H_2 Co 0.6614(23) 1.0394(12) 0.237(4) 0.0020 Uiso
Co1I Co 0.6614(23) 0.6221(20) -0.763(4) 0.0020 Uiso
Co1I_2 Co 0.6614(23) 0.6221(20) 0.237(4) 0.0020 Uiso
Co1M Co 0.7113(20) 1.0052(23) -0.097(4) 0.0020 Uiso
Co1P Co 0.7113(20) 0.7060(12) -0.097(4) 0.0020 Uiso
loop_
_geom_bond_atom_site_label_1
_geom_bond_atom_site_label_2
_geom_bond_site_symmetry_1
_geom_bond_site_symmetry_2
C1 C2 1_555 1_555
C2 H1 1_555 1_555
C3 C1 1_555 1_555
C4 C3 1_555 1_555
O1 C1 1_555 1_555
O2 C4 1_555 1_555
O3 C4 1_555 1_555
C5 C3 1_555 1_555
H2 C5 1_555 1_555
Co1 O1 1_555 1_555
C3E C5 1_555 1_555
C4E C3E 1_555 1_555
O2E C4E 1_555 1_555
O3E C4E 1_555 1_555
C1E C2 1_555 1_555
O1E C1E 1_555 1_555
Co1E O1E 1_555 1_555
O1H Co1 1_555 1_555
O1I Co1E 1_555 1_555
O2H Co1 1_555 1_555
O2I Co1E 1_555 1_555
O2M Co1 1_555 1_555
O2P Co1E 1_555 1_555
O3_2 Co1 1_555 1_555
O3E_2 Co1E 1_555 1_555
Co1_2 O3 1_555 1_555
Co1E_2 O3E 1_555 1_555
Co1H Co1 1_555 1_555
Co1H_2 O2 1_555 1_555
Co1I Co1E 1_555 1_555
Co1I_2 O2E 1_555 1_555
Co1M O1 1_555 1_555
Co1P O2E 1_555 1_555
O2 Co1M 1_555 1_555
Co1 Co1M 1_555 1_555
C3E C1E 1_555 1_555
O1E Co1P 1_555 1_555
Co1E Co1P 1_555 1_555
O1H Co1H 1_555 1_555
O1I Co1I 1_555 1_555
O2H Co1M 1_555 1_555
O2I Co1P 1_555 1_555
O2M Co1H 1_555 1_555
O2P Co1I 1_555 1_555
Co1_2 Co1H_2 1_555 1_555
Co1E_2 Co1I_2 1_555 1_555
Co1H_2 Co1M 1_555 1_555
Co1I_2 Co1P 1_555 1_555

#END
