
#######################################################################
#
#                 Cambridge Crystallographic Data Centre
#                                CCDC 
#
#######################################################################
#
# If this CIF has been generated from an entry in the Cambridge 
# Structural Database, then it will include bibliographic, chemical, 
# crystal, experimental, refinement or atomic coordinate data resulting 
# from the CCDC's data processing and validation procedures.
#
#######################################################################

data_KOSJUZ
_chemical_formula_moiety         '(C8 H5 Co2 O6)n'
_symmetry_cell_setting           rhombohedral
_symmetry_space_group_name_H-M   'R 3 m'
_symmetry_Int_Tables_number      160
_space_group_name_Hall           'R 3 -2"'
loop_
_symmetry_equiv_pos_site_id
_symmetry_equiv_pos_as_xyz
1 x,y,z
2 -y,x-y,z
3 -x+y,-x,z
4 -x+y,y,z
5 -y,-x,z
6 x,x-y,z
7 1/3+x,2/3+y,2/3+z
8 1/3-y,2/3+x-y,2/3+z
9 1/3-x+y,2/3-x,2/3+z
10 1/3-x+y,2/3+y,2/3+z
11 1/3-y,2/3-x,2/3+z
12 1/3+x,2/3+x-y,2/3+z
13 2/3+x,1/3+y,1/3+z
14 2/3-y,1/3+x-y,1/3+z
15 2/3-x+y,1/3-x,1/3+z
16 2/3-x+y,1/3+y,1/3+z
17 2/3-y,1/3-x,1/3+z
18 2/3+x,1/3+x-y,1/3+z
_cell_length_a                   25.8806(17)
_cell_length_b                   25.8806
_cell_length_c                   6.8038(6)
_cell_angle_alpha                90
_cell_angle_beta                 90
_cell_angle_gamma                120
_cell_volume                     3946.67
loop_
_atom_site_label
_atom_site_type_symbol
_atom_site_fract_x
_atom_site_fract_y
_atom_site_fract_z
_atom_site_U_iso_or_equiv
_atom_site_thermal_displace_type
D1 D 0.2076(7) 0.2162(7) 0.0084(27) 0.1100 Uiso
D2 D 0.7754(11) 0.9469(9) 0.426(4) 0.1200 Uiso
D3 D 0.5813(26) 0.163(5) 0.492(17) 0.1900 Uiso
C1 C 0.6572(9) 0.8750(9) -0.165(4) 0.0160 Uiso
C2 C 0.6656(12) 0.8328(6) -0.251(5) 0.0150 Uiso
C3 C 0.6414(9) 0.8681(8) 0.0444(35) 0.0170 Uiso
C4 C 0.6338(7) 0.9098(7) 0.1621(31) 0.0120 Uiso
H1 H 0.6781(28) 0.8390(14) -0.398(12) 0.0710 Uiso
O1 O 0.6718(9) 0.9267(9) -0.249(4) 0.0140 Uiso
O2 O 0.6523(9) 0.9635(10) 0.0925(33) 0.0170 Uiso
O3 O 0.6107(9) 0.8939(9) 0.3312(33) 0.0180 Uiso
C5 C 0.6283(12) 0.8141(6) 0.131(5) 0.0140 Uiso
H2 H 0.6161(24) 0.8080(12) 0.280(9) 0.0320 Uiso
Co1 Co 0.6279(19) 0.9533(29) -0.442(7) 0.0020 Uiso
C3E C 0.6414(9) 0.7733(12) 0.0444(35) 0.0170 Uiso
C4E C 0.6338(7) 0.7240(10) 0.1621(31) 0.0120 Uiso
O2E O 0.6523(9) 0.6888(13) 0.0925(33) 0.0170 Uiso
O3E O 0.6107(9) 0.7168(13) 0.3312(33) 0.0180 Uiso
C1E C 0.6572(9) 0.7822(13) -0.165(4) 0.0160 Uiso
O1E O 0.6718(9) 0.7451(13) -0.249(4) 0.0140 Uiso
Co1E Co 0.6279(19) 0.6746(35) -0.442(7) 0.0020 Uiso
O1H O 0.5882(13) 0.9949(9) -0.582(4) 0.0140 Uiso
O1I O 0.5882(13) 0.5934(9) -0.582(4) 0.0140 Uiso
O2H O 0.6445(13) 1.0144(9) -0.2408(33) 0.0170 Uiso
O2I O 0.6445(13) 0.6302(10) -0.2408(33) 0.0170 Uiso
O2M O 0.7032(10) 1.0221(13) -0.5742(33) 0.0170 Uiso
O2P O 0.7032(10) 0.6810(9) -0.5742(33) 0.0170 Uiso
O3_2 O 0.6107(9) 0.8939(9) -0.6688(33) 0.0180 Uiso
O3E_2 O 0.6107(9) 0.7168(13) -0.6688(33) 0.0180 Uiso
Co1_2 Co 0.6279(19) 0.9533(29) 0.558(7) 0.0020 Uiso
Co1E_2 Co 0.6279(19) 0.6746(35) 0.558(7) 0.0020 Uiso
Co1H Co 0.6587(35) 1.0388(19) -0.775(7) 0.0020 Uiso
Co1H_2 Co 0.6587(35) 1.0388(19) 0.225(7) 0.0020 Uiso
Co1I Co 0.6587(35) 0.6200(29) -0.775(7) 0.0020 Uiso
Co1I_2 Co 0.6587(35) 0.6200(29) 0.225(7) 0.0020 Uiso
Co1M Co 0.7134(29) 1.0079(35) -0.109(7) 0.0020 Uiso
Co1P Co 0.7134(29) 0.7054(19) -0.109(7) 0.0020 Uiso
loop_
_geom_bond_atom_site_label_1
_geom_bond_atom_site_label_2
_geom_bond_site_symmetry_1
_geom_bond_site_symmetry_2
C1 C2 1_555 1_555
C2 H1 1_555 1_555
C3 C1 1_555 1_555
C4 C3 1_555 1_555
O1 C1 1_555 1_555
O2 C4 1_555 1_555
O3 C4 1_555 1_555
C5 C3 1_555 1_555
H2 C5 1_555 1_555
Co1 O1 1_555 1_555
C3E C5 1_555 1_555
C4E C3E 1_555 1_555
O2E C4E 1_555 1_555
O3E C4E 1_555 1_555
C1E C2 1_555 1_555
O1E C1E 1_555 1_555
Co1E O1E 1_555 1_555
O1H Co1 1_555 1_555
O1I Co1E 1_555 1_555
O2H Co1 1_555 1_555
O2I Co1E 1_555 1_555
O2M Co1 1_555 1_555
O2P Co1E 1_555 1_555
O3_2 Co1 1_555 1_555
O3E_2 Co1E 1_555 1_555
Co1_2 O3 1_555 1_555
Co1E_2 O3E 1_555 1_555
Co1H Co1 1_555 1_555
Co1H_2 O2 1_555 1_555
Co1I Co1E 1_555 1_555
Co1I_2 O2E 1_555 1_555
Co1M O1 1_555 1_555
Co1P O2E 1_555 1_555
O2 Co1M 1_555 1_555
Co1 Co1M 1_555 1_555
C3E C1E 1_555 1_555
O1E Co1P 1_555 1_555
Co1E Co1P 1_555 1_555
O1H Co1H 1_555 1_555
O1I Co1I 1_555 1_555
O2H Co1M 1_555 1_555
O2I Co1P 1_555 1_555
O2M Co1H 1_555 1_555
O2P Co1I 1_555 1_555
Co1_2 Co1H_2 1_555 1_555
Co1E_2 Co1I_2 1_555 1_555
Co1H_2 Co1M 1_555 1_555
Co1I_2 Co1P 1_555 1_555

#END
