
#######################################################################
#
#                 Cambridge Crystallographic Data Centre
#                                CCDC 
#
#######################################################################
#
# If this CIF has been generated from an entry in the Cambridge 
# Structural Database, then it will include bibliographic, chemical, 
# crystal, experimental, refinement or atomic coordinate data resulting 
# from the CCDC's data processing and validation procedures.
#
#######################################################################

data_KOSKIO01
_chemical_formula_moiety         '(C8 H2 Co2 O6)n'
_symmetry_cell_setting           rhombohedral
_symmetry_space_group_name_H-M   'R 3 m'
_symmetry_Int_Tables_number      160
_space_group_name_Hall           'R 3 -2"'
loop_
_symmetry_equiv_pos_site_id
_symmetry_equiv_pos_as_xyz
1 x,y,z
2 -y,x-y,z
3 -x+y,-x,z
4 -x+y,y,z
5 -y,-x,z
6 x,x-y,z
7 1/3+x,2/3+y,2/3+z
8 1/3-y,2/3+x-y,2/3+z
9 1/3-x+y,2/3-x,2/3+z
10 1/3-x+y,2/3+y,2/3+z
11 1/3-y,2/3-x,2/3+z
12 1/3+x,2/3+x-y,2/3+z
13 2/3+x,1/3+y,1/3+z
14 2/3-y,1/3+x-y,1/3+z
15 2/3-x+y,1/3-x,1/3+z
16 2/3-x+y,1/3+y,1/3+z
17 2/3-y,1/3-x,1/3+z
18 2/3+x,1/3+x-y,1/3+z
_cell_length_a                   25.8902(7)
_cell_length_b                   25.8902
_cell_length_c                   6.79046(29)
_cell_angle_alpha                90
_cell_angle_beta                 90
_cell_angle_gamma                120
_cell_volume                     3941.85
loop_
_atom_site_label
_atom_site_type_symbol
_atom_site_fract_x
_atom_site_fract_y
_atom_site_fract_z
_atom_site_U_iso_or_equiv
_atom_site_thermal_displace_type
C1 C 0.6577(22) 0.8767(19) -0.163(9) 0.1710 Uiso
C2 C 0.6692(34) 0.8347(17) -0.261(10) 0.1060 Uiso
C3 C 0.6391(13) 0.8663(11) 0.036(7) 0.0260 Uiso
C4 C 0.6315(11) 0.9083(11) 0.163(8) 0.0220 Uiso
H1 H 0.691(12) 0.845(6) -0.42(4) 0.1700 Uiso
O1 O 0.6704(9) 0.9263(6) -0.253(8) 0.0220 Uiso
O2 O 0.6516(7) 0.9614(8) 0.098(7) 0.0670 Uiso
O3 O 0.6103(6) 0.8919(7) 0.339(6) 0.0520 Uiso
C5 C 0.6266(23) 0.8134(12) 0.127(7) 0.0900 Uiso
H2 H 0.626(11) 0.813(5) 0.29(4) 0.0600 Uiso
Co1 Co 0.62491(20) 0.95254(34) -0.443(6) 0.0213 Uiso
C3E C 0.6391(13) 0.7728(17) 0.036(7) 0.0260 Uiso
C4E C 0.6315(11) 0.7232(16) 0.163(8) 0.0220 Uiso
O2E O 0.6516(7) 0.6902(11) 0.098(7) 0.0670 Uiso
O3E O 0.6103(6) 0.7184(9) 0.339(6) 0.0520 Uiso
C1E C 0.6577(22) 0.7810(29) -0.163(9) 0.1710 Uiso
O1E O 0.6704(9) 0.7441(11) -0.253(8) 0.0220 Uiso
Co1E Co 0.62491(20) 0.67237(39) -0.443(6) 0.0213 Uiso
O1H O 0.5892(11) 0.9963(9) -0.586(8) 0.0220 Uiso
O1I O 0.5892(11) 0.5930(6) -0.586(8) 0.0220 Uiso
O2H O 0.6431(11) 1.0151(7) -0.235(7) 0.0670 Uiso
O2I O 0.6431(11) 0.6281(8) -0.235(7) 0.0670 Uiso
O2M O 0.7053(8) 1.0235(11) -0.569(7) 0.0670 Uiso
O2P O 0.7053(8) 0.6817(7) -0.569(7) 0.0670 Uiso
O3_2 O 0.6103(6) 0.8919(7) -0.661(6) 0.0520 Uiso
O3E_2 O 0.6103(6) 0.7184(9) -0.661(6) 0.0520 Uiso
Co1_2 Co 0.62491(20) 0.95254(34) 0.557(6) 0.0213 Uiso
Co1E_2 Co 0.62491(20) 0.67237(39) 0.557(6) 0.0213 Uiso
Co1H Co 0.66096(39) 1.04176(20) -0.776(6) 0.0213 Uiso
Co1H_2 Co 0.66096(39) 1.04176(20) 0.224(6) 0.0213 Uiso
Co1I Co 0.66096(39) 0.61921(34) -0.776(6) 0.0213 Uiso
Co1I_2 Co 0.66096(39) 0.61921(34) 0.224(6) 0.0213 Uiso
Co1M Co 0.71413(34) 1.00570(39) -0.110(6) 0.0213 Uiso
Co1P Co 0.71413(34) 0.70842(20) -0.110(6) 0.0213 Uiso
loop_
_geom_bond_atom_site_label_1
_geom_bond_atom_site_label_2
_geom_bond_site_symmetry_1
_geom_bond_site_symmetry_2
C1 C2 1_555 1_555
C2 H1 1_555 1_555
C3 C1 1_555 1_555
C4 C3 1_555 1_555
O1 C1 1_555 1_555
O2 C4 1_555 1_555
O3 C4 1_555 1_555
C5 C3 1_555 1_555
H2 C5 1_555 1_555
Co1 O1 1_555 1_555
C3E C5 1_555 1_555
C4E C3E 1_555 1_555
O2E C4E 1_555 1_555
O3E C4E 1_555 1_555
C1E C2 1_555 1_555
O1E C1E 1_555 1_555
Co1E O1E 1_555 1_555
O1H Co1 1_555 1_555
O1I Co1E 1_555 1_555
O2H Co1 1_555 1_555
O2I Co1E 1_555 1_555
O2M Co1 1_555 1_555
O2P Co1E 1_555 1_555
O3_2 Co1 1_555 1_555
O3E_2 Co1E 1_555 1_555
Co1_2 O3 1_555 1_555
Co1E_2 O3E 1_555 1_555
Co1H Co1 1_555 1_555
Co1H_2 O2 1_555 1_555
Co1I Co1E 1_555 1_555
Co1I_2 O2E 1_555 1_555
Co1M O1 1_555 1_555
Co1P O2E 1_555 1_555
O2 Co1M 1_555 1_555
Co1 Co1M 1_555 1_555
C3E C1E 1_555 1_555
O1E Co1P 1_555 1_555
Co1E Co1P 1_555 1_555
O1H Co1H 1_555 1_555
O1I Co1I 1_555 1_555
O2H Co1M 1_555 1_555
O2I Co1P 1_555 1_555
O2M Co1H 1_555 1_555
O2P Co1I 1_555 1_555
Co1_2 Co1H_2 1_555 1_555
Co1E_2 Co1I_2 1_555 1_555
Co1H_2 Co1M 1_555 1_555
Co1I_2 Co1P 1_555 1_555

#END
