
#######################################################################
#
#                 Cambridge Crystallographic Data Centre
#                                CCDC 
#
#######################################################################
#
# If this CIF has been generated from an entry in the Cambridge 
# Structural Database, then it will include bibliographic, chemical, 
# crystal, experimental, refinement or atomic coordinate data resulting 
# from the CCDC's data processing and validation procedures.
#
#######################################################################

data_KOSKUA
_chemical_formula_moiety         '(C8 H3 Co2 O6)n'
_symmetry_cell_setting           rhombohedral
_symmetry_space_group_name_H-M   'R -3'
_symmetry_Int_Tables_number      148
_space_group_name_Hall           '-R 3'
loop_
_symmetry_equiv_pos_site_id
_symmetry_equiv_pos_as_xyz
1 x,y,z
2 -y,x-y,z
3 -x+y,-x,z
4 1/3+x,2/3+y,2/3+z
5 1/3-y,2/3+x-y,2/3+z
6 1/3-x+y,2/3-x,2/3+z
7 2/3+x,1/3+y,1/3+z
8 2/3-y,1/3+x-y,1/3+z
9 2/3-x+y,1/3-x,1/3+z
10 -x,-y,-z
11 y,-x+y,-z
12 x-y,x,-z
13 2/3-x,1/3-y,1/3-z
14 2/3+y,1/3-x+y,1/3-z
15 2/3+x-y,1/3+x,1/3-z
16 1/3-x,2/3-y,2/3-z
17 1/3+y,2/3-x+y,2/3-z
18 1/3+x-y,2/3+x,2/3-z
_cell_length_a                   25.8707(10)
_cell_length_b                   25.8707
_cell_length_c                   6.8687(4)
_cell_angle_alpha                90
_cell_angle_beta                 90
_cell_angle_gamma                120
_cell_volume                     3981.27
loop_
_atom_site_label
_atom_site_type_symbol
_atom_site_fract_x
_atom_site_fract_y
_atom_site_fract_z
_atom_site_U_iso_or_equiv
_atom_site_thermal_displace_type
D1 D 0.4659(4) 0.3498(4) 0.2648(13) 0.0890 Uiso
Co1 Co 0.3857(10) 0.3549(11) 0.1342(33) 0.0040 Uiso
O1 O 0.3229(5) 0.2946(5) 0.3716(17) 0.0169 Uiso
O2 O 0.3040(5) 0.2292(5) 0.6005(13) 0.0048 Uiso
O3 O 0.3577(5) 0.2742(5) 0.0017(18) 0.0052 Uiso
C1 C 0.3147(5) 0.2463(5) 0.4283(14) 0.0303 Uiso
C2 C 0.3300(4) 0.2086(4) 0.2811(13) 0.0180 Uiso
C3 C 0.3491(4) 0.2278(4) 0.0895(12) 0.0103 Uiso
C4 C 0.3525(4) 0.1839(5) -0.0347(12) 0.0038 Uiso
H1 H 0.3601(7) 0.1925(6) -0.1593(25) 0.0010 Uiso
O1L O 0.3438(5) 0.0387(5) -0.0383(17) 0.0169 Uiso
O2L O 0.3627(5) 0.1041(5) -0.2672(13) 0.0048 Uiso
O3L O 0.3090(5) 0.0591(5) 0.3316(18) 0.0052 Uiso
C1L C 0.3520(5) 0.0870(5) -0.0950(14) 0.0303 Uiso
C2L C 0.3367(4) 0.1247(4) 0.0522(13) 0.0180 Uiso
C3L C 0.3176(4) 0.1055(4) 0.2438(12) 0.0103 Uiso
C4L C 0.3142(4) 0.1494(5) 0.3680(12) 0.0038 Uiso
H1L H 0.3066(7) 0.1408(6) 0.4926(25) 0.0010 Uiso
Co1J Co 0.3549(11) -0.0308(15) -0.1342(33) 0.0040 Uiso
Co1E Co 0.3025(15) 0.2810(10) -0.1991(33) 0.0040 Uiso
Co1E_2 Co 0.3025(15) 0.2810(10) 0.8009(33) 0.0040 Uiso
Co1L Co 0.2810(10) -0.0216(11) 0.1991(33) 0.0040 Uiso
Co1G Co 0.3118(11) 0.3641(15) 0.4675(33) 0.0040 Uiso
Co1Q Co 0.3641(15) 0.0524(10) -0.4675(33) 0.0040 Uiso
Co1Q_2 Co 0.3641(15) 0.0524(10) 0.5325(33) 0.0040 Uiso
O1J O 0.2946(5) -0.0283(7) -0.3716(17) 0.0169 Uiso
O1E O 0.3050(7) 0.3438(5) 0.0383(17) 0.0169 Uiso
O2G O 0.4375(5) 0.4081(7) -0.0662(13) 0.0048 Uiso
O2Q O 0.4081(7) -0.0293(5) 0.0662(13) 0.0048 Uiso
O3J O 0.2742(5) -0.0835(7) -0.0017(18) 0.0052 Uiso
O3G O 0.3925(5) 0.4168(7) 0.3350(18) 0.0052 Uiso
O3Q O 0.4168(7) 0.0244(5) -0.3350(18) 0.0052 Uiso
loop_
_geom_bond_atom_site_label_1
_geom_bond_atom_site_label_2
_geom_bond_site_symmetry_1
_geom_bond_site_symmetry_2
Co1 O1 1_555 1_555
O1 C1 1_555 1_555
O2 C1 1_555 1_555
O3 Co1 1_555 1_555
C1 C2 1_555 1_555
C2 C3 1_555 1_555
C3 O3 1_555 1_555
C4 C3 1_555 1_555
H1 C4 1_555 1_555
O1L C1L 1_555 1_555
O2L C1L 1_555 1_555
O3L C3L 1_555 1_555
C1L C2L 1_555 1_555
C2L C4 1_555 1_555
C3L C2L 1_555 1_555
C4L C2 1_555 1_555
H1L C4L 1_555 1_555
Co1J O1L 1_555 1_555
Co1E Co1 1_555 1_555
Co1E_2 O2 1_555 1_555
Co1L O1L 1_555 1_555
Co1G Co1 1_555 1_555
Co1Q O2L 1_555 1_555
Co1Q_2 O3L 1_555 1_555
O1J Co1J 1_555 1_555
O1E Co1 1_555 1_555
O2G Co1 1_555 1_555
O2Q Co1J 1_555 1_555
O3J Co1J 1_555 1_555
O3G Co1 1_555 1_555
O3Q Co1J 1_555 1_555
O1 Co1G 1_555 1_555
O3 Co1E 1_555 1_555
O3L Co1L 1_555 1_555
C3L C4L 1_555 1_555
Co1J Co1L 1_555 1_555
Co1J Co1Q 1_555 1_555
Co1E O1E 1_555 1_555
Co1E_2 Co1G 1_555 1_555
Co1L Co1Q_2 1_555 1_555
Co1L O3J 1_555 1_555
Co1G O3G 1_555 1_555
Co1Q O1J 1_555 1_555
Co1Q O3Q 1_555 1_555

#END
