
#######################################################################
#
#                 Cambridge Crystallographic Data Centre
#                                CCDC 
#
#######################################################################
#
# If this CIF has been generated from an entry in the Cambridge 
# Structural Database, then it will include bibliographic, chemical, 
# crystal, experimental, refinement or atomic coordinate data resulting 
# from the CCDC's data processing and validation procedures.
#
#######################################################################

data_KOSLIP
_chemical_formula_moiety         '(C8 H5 Ni2 O6)n'
_symmetry_cell_setting           rhombohedral
_symmetry_space_group_name_H-M   'R 3 m'
_symmetry_Int_Tables_number      160
_space_group_name_Hall           'R 3 -2"'
loop_
_symmetry_equiv_pos_site_id
_symmetry_equiv_pos_as_xyz
1 x,y,z
2 -y,x-y,z
3 -x+y,-x,z
4 -x+y,y,z
5 -y,-x,z
6 x,x-y,z
7 1/3+x,2/3+y,2/3+z
8 1/3-y,2/3+x-y,2/3+z
9 1/3-x+y,2/3-x,2/3+z
10 1/3-x+y,2/3+y,2/3+z
11 1/3-y,2/3-x,2/3+z
12 1/3+x,2/3+x-y,2/3+z
13 2/3+x,1/3+y,1/3+z
14 2/3-y,1/3+x-y,1/3+z
15 2/3-x+y,1/3-x,1/3+z
16 2/3-x+y,1/3+y,1/3+z
17 2/3-y,1/3-x,1/3+z
18 2/3+x,1/3+x-y,1/3+z
_cell_length_a                   25.776(5)
_cell_length_b                   25.776
_cell_length_c                   6.7544(17)
_cell_angle_alpha                90
_cell_angle_beta                 90
_cell_angle_gamma                120
_cell_volume                     3886.41
loop_
_atom_site_label
_atom_site_type_symbol
_atom_site_fract_x
_atom_site_fract_y
_atom_site_fract_z
_atom_site_U_iso_or_equiv
_atom_site_thermal_displace_type
D1 D 0.2106(12) 0.2178(13) 0.009(4) 0.0890 Uiso
D2 D 0.7823(22) 0.9545(19) 0.434(7) 0.1630 Uiso
D3 D 0.5690(27) 0.138(5) 0.484(14) 0.0100 Uiso
C1 C 0.6596(17) 0.8767(17) -0.168(7) 0.0170 Uiso
C2 C 0.6717(25) 0.8359(13) -0.260(10) 0.0070 Uiso
C3 C 0.6479(18) 0.8693(18) 0.051(6) 0.0180 Uiso
C4 C 0.6320(15) 0.9094(14) 0.162(5) 0.0050 Uiso
H1 H 0.673(4) 0.8364(20) -0.414(18) 0.0240 Uiso
O1 O 0.6741(16) 0.9280(17) -0.236(6) 0.0080 Uiso
O2 O 0.6556(15) 0.9640(17) 0.097(7) 0.0150 Uiso
O3 O 0.6148(24) 0.8940(21) 0.351(8) 0.0490 Uiso
C5 C 0.6269(24) 0.8134(12) 0.138(8) 0.0090 Uiso
H2 H 0.623(4) 0.8116(20) 0.260(15) 0.0030 Uiso
Ni1 Ni 0.6303(9) 0.9557(13) -0.4431(32) 0.0020 Uiso
C3E C 0.6479(18) 0.7786(25) 0.051(6) 0.0180 Uiso
C4E C 0.6320(15) 0.7226(21) 0.162(5) 0.0050 Uiso
O2E O 0.6556(15) 0.6916(23) 0.097(7) 0.0150 Uiso
O3E O 0.6148(24) 0.7208(32) 0.351(8) 0.0490 Uiso
C1E C 0.6596(17) 0.7829(24) -0.168(7) 0.0170 Uiso
O1E O 0.6741(16) 0.7461(23) -0.236(6) 0.0080 Uiso
Ni1E Ni 0.6303(9) 0.6746(16) -0.4431(32) 0.0020 Uiso
O1H O 0.5872(23) 0.9926(16) -0.569(6) 0.0080 Uiso
O1I O 0.5872(23) 0.5947(17) -0.569(6) 0.0080 Uiso
O2H O 0.6417(23) 1.0111(15) -0.236(7) 0.0150 Uiso
O2I O 0.6417(23) 0.6307(17) -0.236(7) 0.0150 Uiso
O2M O 0.7027(17) 1.0249(23) -0.570(7) 0.0150 Uiso
O2P O 0.7027(17) 0.6777(15) -0.570(7) 0.0150 Uiso
O3_2 O 0.6148(24) 0.8940(21) -0.649(8) 0.0490 Uiso
O3E_2 O 0.6148(24) 0.7208(32) -0.649(8) 0.0490 Uiso
Ni1_2 Ni 0.6303(9) 0.9557(13) 0.5569(32) 0.0020 Uiso
Ni1E_2 Ni 0.6303(9) 0.6746(16) 0.5569(32) 0.0020 Uiso
Ni1H Ni 0.6587(16) 1.0364(9) -0.7764(32) 0.0020 Uiso
Ni1H_2 Ni 0.6587(16) 1.0364(9) 0.2236(32) 0.0020 Uiso
Ni1I Ni 0.6587(16) 0.6224(13) -0.7764(32) 0.0020 Uiso
Ni1I_2 Ni 0.6587(16) 0.6224(13) 0.2236(32) 0.0020 Uiso
Ni1M Ni 0.7110(13) 1.0079(16) -0.1098(32) 0.0020 Uiso
Ni1P Ni 0.7110(13) 0.7030(9) -0.1098(32) 0.0020 Uiso
loop_
_geom_bond_atom_site_label_1
_geom_bond_atom_site_label_2
_geom_bond_site_symmetry_1
_geom_bond_site_symmetry_2
C1 C2 1_555 1_555
C2 H1 1_555 1_555
C3 C1 1_555 1_555
C4 C3 1_555 1_555
O1 C1 1_555 1_555
O2 C4 1_555 1_555
O3 C4 1_555 1_555
C5 C3 1_555 1_555
H2 C5 1_555 1_555
Ni1 O1 1_555 1_555
C3E C5 1_555 1_555
C4E C3E 1_555 1_555
O2E C4E 1_555 1_555
O3E C4E 1_555 1_555
C1E C2 1_555 1_555
O1E C1E 1_555 1_555
Ni1E O1E 1_555 1_555
O1H Ni1 1_555 1_555
O1I Ni1E 1_555 1_555
O2H Ni1 1_555 1_555
O2I Ni1E 1_555 1_555
O2M Ni1 1_555 1_555
O2P Ni1E 1_555 1_555
O3_2 Ni1 1_555 1_555
O3E_2 Ni1E 1_555 1_555
Ni1_2 O3 1_555 1_555
Ni1E_2 O3E 1_555 1_555
Ni1H Ni1 1_555 1_555
Ni1H_2 O2 1_555 1_555
Ni1I Ni1E 1_555 1_555
Ni1I_2 O2E 1_555 1_555
Ni1M O1 1_555 1_555
Ni1P O2E 1_555 1_555
O2 Ni1M 1_555 1_555
Ni1 Ni1M 1_555 1_555
C3E C1E 1_555 1_555
O1E Ni1P 1_555 1_555
Ni1E Ni1P 1_555 1_555
O1H Ni1H 1_555 1_555
O1I Ni1I 1_555 1_555
O2H Ni1M 1_555 1_555
O2I Ni1P 1_555 1_555
O2M Ni1H 1_555 1_555
O2P Ni1I 1_555 1_555
Ni1_2 Ni1H_2 1_555 1_555
Ni1E_2 Ni1I_2 1_555 1_555
Ni1H_2 Ni1M 1_555 1_555
Ni1I_2 Ni1P 1_555 1_555

#END
