
#######################################################################
#
#                 Cambridge Crystallographic Data Centre
#                                CCDC 
#
#######################################################################
#
# If this CIF has been generated from an entry in the Cambridge 
# Structural Database, then it will include bibliographic, chemical, 
# crystal, experimental, refinement or atomic coordinate data resulting 
# from the CCDC's data processing and validation procedures.
#
#######################################################################

data_KOSMAI
_chemical_formula_moiety         '(C8 H3 Co2 O6)n'
_symmetry_cell_setting           rhombohedral
_symmetry_space_group_name_H-M   'R 3 m'
_symmetry_Int_Tables_number      160
_space_group_name_Hall           'R 3 -2"'
loop_
_symmetry_equiv_pos_site_id
_symmetry_equiv_pos_as_xyz
1 x,y,z
2 -y,x-y,z
3 -x+y,-x,z
4 -x+y,y,z
5 -y,-x,z
6 x,x-y,z
7 1/3+x,2/3+y,2/3+z
8 1/3-y,2/3+x-y,2/3+z
9 1/3-x+y,2/3-x,2/3+z
10 1/3-x+y,2/3+y,2/3+z
11 1/3-y,2/3-x,2/3+z
12 1/3+x,2/3+x-y,2/3+z
13 2/3+x,1/3+y,1/3+z
14 2/3-y,1/3+x-y,1/3+z
15 2/3-x+y,1/3-x,1/3+z
16 2/3-x+y,1/3+y,1/3+z
17 2/3-y,1/3-x,1/3+z
18 2/3+x,1/3+x-y,1/3+z
_cell_length_a                   25.8595(10)
_cell_length_b                   25.8595
_cell_length_c                   6.7766(4)
_cell_angle_alpha                90
_cell_angle_beta                 90
_cell_angle_gamma                120
_cell_volume                     3924.49
loop_
_atom_site_label
_atom_site_type_symbol
_atom_site_fract_x
_atom_site_fract_y
_atom_site_fract_z
_atom_site_U_iso_or_equiv
_atom_site_thermal_displace_type
C1 C 0.6571(4) 0.8756(4) -0.1590(17) 0.0110 Uiso
C2 C 0.6687(8) 0.8344(4) -0.2480(26) 0.0180 Uiso
C3 C 0.6388(5) 0.8658(4) 0.0446(16) 0.0099 Uiso
C4 C 0.6325(4) 0.9102(4) 0.1706(14) 0.0115 Uiso
H1 H 0.6797(12) 0.8399(6) -0.403(4) 0.0290 Uiso
O1 O 0.6715(4) 0.9268(5) -0.2516(18) 0.0100 Uiso
O2 O 0.6529(4) 0.9633(5) 0.0952(16) 0.0140 Uiso
O3 O 0.6076(4) 0.8932(5) 0.3452(16) 0.0151 Uiso
C5 C 0.6288(6) 0.81446(28) 0.1394(20) 0.0020 Uiso
H2 H 0.6190(11) 0.8094(6) 0.273(4) 0.0210 Uiso
Co1 Co 0.6255(12) 0.9525(18) -0.440(4) 0.0200 Uiso
C3E C 0.6388(5) 0.7730(6) 0.0446(16) 0.0099 Uiso
C4E C 0.6325(4) 0.7223(6) 0.1706(14) 0.0115 Uiso
O2E O 0.6529(4) 0.6896(6) 0.0952(16) 0.0140 Uiso
O3E O 0.6076(4) 0.7144(6) 0.3452(16) 0.0151 Uiso
C1E C 0.6571(4) 0.7815(6) -0.1590(17) 0.0110 Uiso
O1E O 0.6715(4) 0.7447(6) -0.2516(18) 0.0100 Uiso
Co1E Co 0.6255(12) 0.6730(22) -0.440(4) 0.0200 Uiso
O1H O 0.5886(6) 0.9952(4) -0.5849(18) 0.0100 Uiso
O1I O 0.5886(6) 0.5935(5) -0.5849(18) 0.0100 Uiso
O2H O 0.6437(6) 1.0138(4) -0.2381(16) 0.0140 Uiso
O2I O 0.6437(6) 0.6300(5) -0.2381(16) 0.0140 Uiso
O2M O 0.7034(5) 1.0229(6) -0.5715(16) 0.0140 Uiso
O2P O 0.7034(5) 0.6804(4) -0.5715(16) 0.0140 Uiso
O3_2 O 0.6076(4) 0.8932(5) -0.6548(16) 0.0151 Uiso
O3E_2 O 0.6076(4) 0.7144(6) -0.6548(16) 0.0151 Uiso
Co1_2 Co 0.6255(12) 0.9525(18) 0.560(4) 0.0200 Uiso
Co1E_2 Co 0.6255(12) 0.6730(22) 0.560(4) 0.0200 Uiso
Co1H Co 0.6603(22) 1.0412(12) -0.773(4) 0.0200 Uiso
Co1H_2 Co 0.6603(22) 1.0412(12) 0.227(4) 0.0200 Uiso
Co1I Co 0.6603(22) 0.6192(18) -0.773(4) 0.0200 Uiso
Co1I_2 Co 0.6603(22) 0.6192(18) 0.227(4) 0.0200 Uiso
Co1M Co 0.7142(18) 1.0063(22) -0.107(4) 0.0200 Uiso
Co1P Co 0.7142(18) 0.7078(12) -0.107(4) 0.0200 Uiso
H3 H 0.2075(11) 0.2141(10) 0.0346(29) 0.0850 Uiso
loop_
_geom_bond_atom_site_label_1
_geom_bond_atom_site_label_2
_geom_bond_site_symmetry_1
_geom_bond_site_symmetry_2
C1 C2 1_555 1_555
C2 H1 1_555 1_555
C3 C1 1_555 1_555
C4 C3 1_555 1_555
O1 C1 1_555 1_555
O2 C4 1_555 1_555
O3 C4 1_555 1_555
C5 C3 1_555 1_555
H2 C5 1_555 1_555
Co1 O1 1_555 1_555
C3E C5 1_555 1_555
C4E C3E 1_555 1_555
O2E C4E 1_555 1_555
O3E C4E 1_555 1_555
C1E C2 1_555 1_555
O1E C1E 1_555 1_555
Co1E O1E 1_555 1_555
O1H Co1 1_555 1_555
O1I Co1E 1_555 1_555
O2H Co1 1_555 1_555
O2I Co1E 1_555 1_555
O2M Co1 1_555 1_555
O2P Co1E 1_555 1_555
O3_2 Co1 1_555 1_555
O3E_2 Co1E 1_555 1_555
Co1_2 O3 1_555 1_555
Co1E_2 O3E 1_555 1_555
Co1H Co1 1_555 1_555
Co1H_2 O2 1_555 1_555
Co1I Co1E 1_555 1_555
Co1I_2 O2E 1_555 1_555
Co1M O1 1_555 1_555
Co1P O2E 1_555 1_555
O2 Co1M 1_555 1_555
Co1 Co1M 1_555 1_555
C3E C1E 1_555 1_555
O1E Co1P 1_555 1_555
Co1E Co1P 1_555 1_555
O1H Co1H 1_555 1_555
O1I Co1I 1_555 1_555
O2H Co1M 1_555 1_555
O2I Co1P 1_555 1_555
O2M Co1H 1_555 1_555
O2P Co1I 1_555 1_555
Co1_2 Co1H_2 1_555 1_555
Co1E_2 Co1I_2 1_555 1_555
Co1H_2 Co1M 1_555 1_555
Co1I_2 Co1P 1_555 1_555

#END
