
#######################################################################
#
#                 Cambridge Crystallographic Data Centre
#                                CCDC 
#
#######################################################################
#
# If this CIF has been generated from an entry in the Cambridge 
# Structural Database, then it will include bibliographic, chemical, 
# crystal, experimental, refinement or atomic coordinate data resulting 
# from the CCDC's data processing and validation procedures.
#
#######################################################################

data_OROLUD
_chemical_formula_moiety         '(C7 H28 N2 O24 P8 Zn6 2-)n'
_symmetry_cell_setting           monoclinic
_symmetry_space_group_name_H-M   'P 21/c'
_symmetry_Int_Tables_number      14
_space_group_name_Hall           '-P 2ybc'
loop_
_symmetry_equiv_pos_site_id
_symmetry_equiv_pos_as_xyz
1 x,y,z
2 -x,1/2+y,1/2-z
3 -x,-y,-z
4 x,1/2-y,1/2+z
_cell_length_a                   9.6380(3)
_cell_length_b                   20.5979(6)
_cell_length_c                   10.4207(3)
_cell_angle_alpha                90
_cell_angle_beta                 95.034(3)
_cell_angle_gamma                90
_cell_volume                     2060.76
loop_
_atom_site_label
_atom_site_type_symbol
_atom_site_fract_x
_atom_site_fract_y
_atom_site_fract_z
Zn1 Zn 0.17007(4) 0.307399(16) 0.36014(3)
Zn2 Zn 0.69379(4) 0.457043(16) 0.59123(3)
Zn3 Zn 0.92422(4) 0.429638(17) 1.12006(3)
P1 P 0.06112(9) 0.29241(4) 0.05967(8)
H1 H -0.029(3) 0.2437(15) 0.080(3)
P2 P 0.43148(8) 0.39996(4) 0.43668(8)
H2 H 0.475(3) 0.4171(13) 0.326(2)
P3 P 0.78878(9) 0.49864(4) 0.87175(7)
H3 H 0.732(3) 0.5574(13) 0.868(3)
P4 P 0.88514(8) 0.38787(4) 0.40393(7)
H4 H 0.810(3) 0.3355(13) 0.415(2)
O1 O -0.0224(3) 0.35326(13) 0.0365(3)
O2 O 0.1597(3) 0.29428(13) 0.1783(2)
O3 O 0.1334(2) 0.27431(10) -0.05811(18)
O4 O 0.3558(2) 0.33635(10) 0.4189(2)
O5 O 0.3379(2) 0.45546(9) 0.4722(2)
O6 O 0.5574(2) 0.39255(10) 0.5330(2)
O7 O 0.6989(2) 0.45588(10) 0.77826(19)
O8 O 0.7832(2) 0.47472(11) 1.00785(19)
O9 O 0.9341(2) 0.50605(11) 0.82964(19)
O10 O 0.8638(2) 0.43175(10) 0.5185(2)
O11 O 1.0360(2) 0.36926(11) 0.4113(2)
O12 O 0.8303(2) 0.41805(12) 0.2777(2)
Zn1B Zn 0.82993(4) 0.692601(16) 0.63986(3)
Zn1_2 Zn 1.17007(4) 0.307399(16) 0.36014(3)
Zn1A Zn 0.82993(4) 0.807399(16) 1.13986(3)
Zn1B_2 Zn -0.17007(4) 0.692601(16) 0.63986(3)
Zn1C Zn 0.17007(4) 0.192601(16) -0.13986(3)
Zn2B Zn 0.30621(4) 0.542957(16) 0.40877(3)
Zn3B Zn 0.07578(4) 0.570362(17) -0.12006(3)
Zn3_2 Zn -0.07578(4) 0.429638(17) 0.12006(3)
Zn3_3 Zn 0.92422(4) 0.429638(17) 0.12006(3)
Zn3B_2 Zn 0.07578(4) 0.570362(17) 0.87994(3)
Zn3B_3 Zn 1.07578(4) 0.570362(17) 0.87994(3)
P1B P 0.93888(9) 0.70759(4) 0.94033(8)
H1B H 1.029(3) 0.7563(15) 0.920(3)
P2B P 0.56852(8) 0.60004(4) 0.56332(8)
H2B H 0.525(3) 0.5829(13) 0.674(2)
P3B P 0.21122(9) 0.50136(4) 0.12825(7)
H3B H 0.268(3) 0.4426(13) 0.132(3)
P4B P 0.11486(8) 0.61213(4) 0.59607(7)
H4B H 0.190(3) 0.6645(13) 0.585(2)
O1B O 1.0224(3) 0.64674(13) 0.9635(3)
O1_2 O 0.9776(3) 0.35326(13) 1.0365(3)
O1B_2 O 0.0224(3) 0.64674(13) -0.0365(3)
O2B O 0.8403(3) 0.70572(13) 0.8217(2)
O3B O 0.8666(2) 0.72569(10) 1.05811(18)
O3A O 0.8666(2) 0.77431(10) 0.55811(18)
O3C O 0.1334(2) 0.22569(10) 0.44189(18)
O4B O 0.6442(2) 0.66365(10) 0.5811(2)
O5B O 0.6621(2) 0.54454(9) 0.5278(2)
O6B O 0.4426(2) 0.60745(10) 0.4670(2)
O7B O 0.3011(2) 0.54412(10) 0.22174(19)
O8B O 0.2168(2) 0.52528(11) -0.00785(19)
O9B O 0.0659(2) 0.49395(11) 0.17036(19)
O9_2 O -0.0659(2) 0.50605(11) -0.17036(19)
O9B_2 O 1.0659(2) 0.49395(11) 1.17036(19)
O10B O 0.1362(2) 0.56825(10) 0.4815(2)
O11B O -0.0360(2) 0.63074(11) 0.5887(2)
O11_2 O 0.0360(2) 0.36926(11) 0.4113(2)
O11B_2 O 0.9640(2) 0.63074(11) 0.5887(2)
O12B O 0.1697(2) 0.58195(12) 0.7223(2)
O12_2 O 0.8303(2) 0.41805(12) 1.2777(2)
O12B_2 O 0.1697(2) 0.58195(12) -0.2777(2)
N1 N 0.1341(3) 0.43897(13) -0.3400(3)
H5 H 0.0542 0.4270 -0.3827
H6 H 0.1893 0.4567 -0.3945
H7 H 0.1171 0.4678 -0.2798
N2 N 0.5664(3) 0.34935(13) -0.1114(2)
H8 H 0.6075 0.3845 -0.1450
C1 C 0.2028(4) 0.38195(17) -0.2788(4)
H9 H 0.2182 0.3501 -0.3446
H10 H 0.1418 0.3626 -0.2202
C2 C 0.3396(4) 0.39808(17) -0.2059(3)
H11 H 0.3235 0.4148 -0.1215
H12 H 0.3863 0.4315 -0.2515
C3 C 0.4311(3) 0.33870(16) -0.1911(3)
H13 H 0.3802 0.3044 -0.1519
H14 H 0.4508 0.3239 -0.2760
C4 C 0.5491(4) 0.36479(17) 0.0275(3)
H15 H 0.6401 0.3725 0.0723
H16 H 0.4951 0.4044 0.0317
C5 C 0.4782(5) 0.3115(2) 0.0944(4)
H17 H 0.4693 0.3238 0.1822
H18 H 0.5325 0.2725 0.0927
H19 H 0.3874 0.3041 0.0513
C6 C 0.6636(4) 0.29278(18) -0.1230(4)
H20 H 0.7267 0.2902 -0.0453
H21 H 0.6095 0.2530 -0.1294
C7 C 0.7470(4) 0.29755(18) -0.2368(4)
H22 H 0.8056 0.2600 -0.2400
H23 H 0.8038 0.3359 -0.2295
H24 H 0.6853 0.2998 -0.3142
loop_
_geom_bond_atom_site_label_1
_geom_bond_atom_site_label_2
_geom_bond_site_symmetry_1
_geom_bond_site_symmetry_2
Zn1 O2 1_555 1_555
Zn2 O6 1_555 1_555
Zn3 O8 1_555 1_555
P1 H1 1_555 1_555
P2 H2 1_555 1_555
P3 H3 1_555 1_555
P4 H4 1_555 1_555
O1 P1 1_555 1_555
O2 P1 1_555 1_555
O3 P1 1_555 1_555
O4 Zn1 1_555 1_555
O5 P2 1_555 1_555
O6 P2 1_555 1_555
O7 Zn2 1_555 1_555
O8 P3 1_555 1_555
O9 P3 1_555 1_555
O10 Zn2 1_555 1_555
O11 P4 1_555 1_555
O12 P4 1_555 1_555
N1 H5 1_555 1_555
H6 N1 1_555 1_555
H7 N1 1_555 1_555
N2 H8 1_555 1_555
C1 N1 1_555 1_555
H9 C1 1_555 1_555
H10 C1 1_555 1_555
C2 C1 1_555 1_555
H11 C2 1_555 1_555
H12 C2 1_555 1_555
C3 N2 1_555 1_555
H13 C3 1_555 1_555
H14 C3 1_555 1_555
C4 N2 1_555 1_555
H15 C4 1_555 1_555
H16 C4 1_555 1_555
C5 C4 1_555 1_555
H17 C5 1_555 1_555
H18 C5 1_555 1_555
H19 C5 1_555 1_555
C6 N2 1_555 1_555
H20 C6 1_555 1_555
H21 C6 1_555 1_555
C7 C6 1_555 1_555
H22 C7 1_555 1_555
H23 C7 1_555 1_555
H24 C7 1_555 1_555
Zn1B O2B 1_555 1_555
Zn1_2 O11 1_555 1_555
Zn1A O3B 1_555 1_555
Zn1B_2 O11B 1_555 1_555
Zn1C O3 1_555 1_555
Zn2B O5 1_555 1_555
Zn3B O1B_2 1_555 1_555
Zn3_2 O1 1_555 1_555
Zn3_3 O12 1_555 1_555
Zn3B_2 O12B 1_555 1_555
Zn3B_3 O9 1_555 1_555
P1B H1B 1_555 1_555
P2B H2B 1_555 1_555
P3B H3B 1_555 1_555
P4B H4B 1_555 1_555
O1B Zn3B_3 1_555 1_555
O1_2 Zn3 1_555 1_555
O2B P1B 1_555 1_555
O3B P1B 1_555 1_555
O3A Zn1B 1_555 1_555
O3C Zn1 1_555 1_555
O4B Zn1B 1_555 1_555
O5B Zn2 1_555 1_555
O6B Zn2B 1_555 1_555
O7B Zn2B 1_555 1_555
O8B Zn3B 1_555 1_555
O9B Zn3_2 1_555 1_555
O9_2 Zn3B 1_555 1_555
O9B_2 Zn3 1_555 1_555
O10B Zn2B 1_555 1_555
O11B P4B 1_555 1_555
O11_2 Zn1 1_555 1_555
O11B_2 Zn1B 1_555 1_555
O12B P4B 1_555 1_555
O12_2 Zn3 1_555 1_555
O12B_2 Zn3B 1_555 1_555
P2 O4 1_555 1_555
P3 O7 1_555 1_555
P4 O10 1_555 1_555
C2 C3 1_555 1_555
P1B O1B 1_555 1_555
P2B O4B 1_555 1_555
P2B O5B 1_555 1_555
P2B O6B 1_555 1_555
P3B O7B 1_555 1_555
P3B O8B 1_555 1_555
P3B O9B 1_555 1_555
P4B O10B 1_555 1_555

#END
