
#######################################################################
#
#                 Cambridge Crystallographic Data Centre
#                                CCDC 
#
#######################################################################
#
# If this CIF has been generated from an entry in the Cambridge 
# Structural Database, then it will include bibliographic, chemical, 
# crystal, experimental, refinement or atomic coordinate data resulting 
# from the CCDC's data processing and validation procedures.
#
#######################################################################

data_OROMAK
_chemical_formula_moiety         '(C5 H24 N2 O24 P8 Zn6 2-)n'
_symmetry_cell_setting           triclinic
_symmetry_space_group_name_H-M   'P -1'
_symmetry_Int_Tables_number      2
_space_group_name_Hall           '-P 1'
loop_
_symmetry_equiv_pos_site_id
_symmetry_equiv_pos_as_xyz
1 x,y,z
2 -x,-y,-z
_cell_length_a                   7.7782(3)
_cell_length_b                   9.9174(4)
_cell_length_c                   12.7946(4)
_cell_angle_alpha                99.559(3)
_cell_angle_beta                 94.030(3)
_cell_angle_gamma                94.803(3)
_cell_volume                     966.282
loop_
_atom_site_label
_atom_site_type_symbol
_atom_site_fract_x
_atom_site_fract_y
_atom_site_fract_z
Zn1 Zn 0.06072(5) 0.61808(4) 0.13647(3)
Zn2 Zn 0.45431(5) 0.14424(4) 0.12316(3)
Zn3 Zn -0.22993(5) 0.56377(4) 0.50060(3)
P1 P 0.07832(11) 0.66381(9) 0.39125(6)
H1 H 0.222(4) 0.748(3) 0.437(2)
P2 P 0.23942(12) 0.36886(9) 0.04032(7)
H2 H 0.388(4) 0.452(3) 0.055(2)
P3 P -0.48567(11) 0.35205(8) 0.34672(6)
H3 H -0.568(4) 0.438(3) 0.296(2)
P4 P 0.25925(11) 0.85431(8) 0.04232(6)
H4 H 0.101(4) 0.903(3) 0.031(2)
O1 O 0.0475(4) 0.7020(3) 0.28313(17)
O2 O -0.0699(3) 0.7040(2) 0.45815(18)
O3 O 0.1142(3) 0.5162(2) 0.38796(16)
O4 O 0.1661(3) 0.3707(3) -0.07121(18)
O5 O 0.2722(3) 0.2257(2) 0.0569(2)
O6 O 0.1257(3) 0.4322(2) 0.12434(17)
O7 O -0.3028(3) 0.4205(2) 0.38008(17)
O8 O -0.5857(3) 0.3362(2) 0.44164(17)
O9 O -0.4793(3) 0.2177(2) 0.27292(17)
O10 O 0.2397(3) 0.7166(2) 0.0748(2)
O11 O 0.3712(3) 0.9572(2) 0.12413(18)
O12 O 0.3194(3) 0.8469(3) -0.06838(17)
Zn1A Zn -1.06072(5) 0.38192(4) 0.86353(3)
Zn1_2 Zn -0.93928(5) 0.61808(4) 1.13647(3)
Zn1A_2 Zn -0.06072(5) 0.38192(4) -0.13647(3)
Zn2A Zn -1.45431(5) 0.85576(4) 0.87684(3)
Zn2_2 Zn -1.54569(5) 0.14424(4) 1.12316(3)
Zn2_3 Zn -0.54569(5) 0.14424(4) 0.12316(3)
Zn2_4 Zn 0.45431(5) 1.14424(4) 0.12316(3)
Zn2A_2 Zn -1.45431(5) -0.14424(4) 0.87684(3)
Zn2A_3 Zn -0.45431(5) 0.85576(4) 0.87684(3)
Zn2A_4 Zn 0.54569(5) 0.85576(4) -0.12316(3)
Zn3A Zn -0.77007(5) 0.43623(4) 0.49940(3)
Zn3_2 Zn -1.22993(5) 0.56377(4) 0.50060(3)
Zn3A_2 Zn 0.22993(5) 0.43623(4) 0.49940(3)
P1A P -1.07832(11) 0.33619(9) 0.60875(6)
H1A H -1.222(4) 0.252(3) 0.563(2)
P2A P -1.23942(12) 0.63114(9) 0.95968(7)
H2A H -1.388(4) 0.548(3) 0.945(2)
P3A P -0.51433(11) 0.64795(8) 0.65328(6)
H3A H -0.432(4) 0.562(3) 0.704(2)
P4A P -1.25925(11) 0.14569(8) 0.95768(6)
H4A H -1.101(4) 0.097(3) 0.969(2)
O1A O -1.0475(4) 0.2980(3) 0.71687(17)
O2A O -0.9301(3) 0.2960(2) 0.54185(18)
O3A O -1.1142(3) 0.4838(2) 0.61204(16)
O3_2 O -0.8858(3) 0.5162(2) 0.38796(16)
O3A_2 O -0.1142(3) 0.4838(2) 0.61204(16)
O4A O -1.1661(3) 0.6293(3) 1.07121(18)
O4_2 O -0.8339(3) 0.3707(3) 0.92879(18)
O4A_2 O -0.1661(3) 0.6293(3) 0.07121(18)
O5A O -1.2722(3) 0.7743(2) 0.9431(2)
O6A O -1.1257(3) 0.5678(2) 0.87566(17)
O7A O -0.6972(3) 0.5795(2) 0.61992(17)
O8A O -0.4143(3) 0.6638(2) 0.55836(17)
O9A O -0.5207(3) 0.7823(2) 0.72708(17)
O9_2 O 0.5207(3) 0.2177(2) 0.27292(17)
O9A_2 O -1.5207(3) 0.7823(2) 0.72708(17)
O10A O -1.2397(3) 0.2834(2) 0.9252(2)
O11A O -1.3712(3) 0.0428(2) 0.87587(18)
O11_2 O 0.3712(3) -0.0428(2) 0.12413(18)
O11A_2 O -1.3712(3) 1.0428(2) 0.87587(18)
O12A O -1.3194(3) 0.1531(3) 1.06838(17)
O12_2 O -1.6806(3) 0.8469(3) 0.93162(17)
O12A_2 O 0.6806(3) 0.1531(3) 0.06838(17)
N1 N 0.0697(4) 0.7368(3) 0.7623(2)
H5 H 0.0103 0.6841 0.7999
H6 H 0.1696 0.7715 0.7989
H7 H 0.0906 0.6866 0.7009
N2 N 0.2819(4) 1.1428(3) 0.6765(2)
H8 H 0.1938 1.1849 0.6493
C1 C -0.0326(5) 0.8506(4) 0.7409(3)
H9 H -0.0585 0.9025 0.8082
H10 H -0.1418 0.8118 0.7018
C2 C 0.0588(6) 0.9475(4) 0.6783(3)
H11 H 0.1050 0.8934 0.6183
H12 H -0.0257 1.0017 0.6502
C3 C 0.2043(5) 1.0438(4) 0.7409(3)
H13 H 0.1607 1.0949 0.8033
H14 H 0.2936 0.9906 0.7649
C4 C 0.3677(8) 1.0717(5) 0.5847(4)
H15 H 0.4146 1.1383 0.5452
H16 H 0.2843 1.0073 0.5392
H17 H 0.4594 1.0237 0.6107
C5 C 0.4046(5) 1.2507(4) 0.7412(3)
H18 H 0.3482 1.2970 0.7993
H19 H 0.4436 1.3156 0.6979
H20 H 0.5021 1.2100 0.7685
loop_
_geom_bond_atom_site_label_1
_geom_bond_atom_site_label_2
_geom_bond_site_symmetry_1
_geom_bond_site_symmetry_2
Zn1 O1 1_555 1_555
Zn2 O5 1_555 1_555
Zn3 O2 1_555 1_555
P1 H1 1_555 1_555
P2 H2 1_555 1_555
P3 H3 1_555 1_555
P4 H4 1_555 1_555
O1 P1 1_555 1_555
O2 P1 1_555 1_555
O3 P1 1_555 1_555
O4 P2 1_555 1_555
O5 P2 1_555 1_555
O6 Zn1 1_555 1_555
O7 Zn3 1_555 1_555
O8 P3 1_555 1_555
O9 P3 1_555 1_555
O10 Zn1 1_555 1_555
O11 P4 1_555 1_555
O12 P4 1_555 1_555
N1 H5 1_555 1_555
H6 N1 1_555 1_555
H7 N1 1_555 1_555
N2 H8 1_555 1_555
C1 N1 1_555 1_555
H9 C1 1_555 1_555
H10 C1 1_555 1_555
C2 C1 1_555 1_555
H11 C2 1_555 1_555
H12 C2 1_555 1_555
C3 N2 1_555 1_555
H13 C3 1_555 1_555
H14 C3 1_555 1_555
C4 N2 1_555 1_555
H15 C4 1_555 1_555
H16 C4 1_555 1_555
H17 C4 1_555 1_555
C5 N2 1_555 1_555
H18 C5 1_555 1_555
H19 C5 1_555 1_555
H20 C5 1_555 1_555
Zn1A O1A 1_555 1_555
Zn1_2 O4A 1_555 1_555
Zn1A_2 O4 1_555 1_555
Zn2A O5A 1_555 1_555
Zn2_2 O12A 1_555 1_555
Zn2_3 O9 1_555 1_555
Zn2_4 O11 1_555 1_555
Zn2A_2 O11A 1_555 1_555
Zn2A_3 O9A 1_555 1_555
Zn2A_4 O12 1_555 1_555
Zn3A O8 1_555 1_555
Zn3_2 O3A 1_555 1_555
Zn3A_2 O3 1_555 1_555
P1A H1A 1_555 1_555
P2A H2A 1_555 1_555
P3A H3A 1_555 1_555
P4A H4A 1_555 1_555
O1A P1A 1_555 1_555
O2A Zn3A 1_555 1_555
O3A P1A 1_555 1_555
O3_2 Zn3A 1_555 1_555
O3A_2 Zn3 1_555 1_555
O4A P2A 1_555 1_555
O4_2 Zn1A 1_555 1_555
O4A_2 Zn1 1_555 1_555
O5A P2A 1_555 1_555
O6A Zn1A 1_555 1_555
O7A Zn3A 1_555 1_555
O8A Zn3 1_555 1_555
O9A P3A 1_555 1_555
O9_2 Zn2 1_555 1_555
O9A_2 Zn2A 1_555 1_555
O10A Zn1A 1_555 1_555
O11A P4A 1_555 1_555
O11_2 Zn2 1_555 1_555
O11A_2 Zn2A 1_555 1_555
O12A P4A 1_555 1_555
O12_2 Zn2A 1_555 1_555
O12A_2 Zn2 1_555 1_555
P2 O6 1_555 1_555
P3 O7 1_555 1_555
P4 O10 1_555 1_555
C2 C3 1_555 1_555
P1A O2A 1_555 1_555
P2A O6A 1_555 1_555
P3A O7A 1_555 1_555
P3A O8A 1_555 1_555
P4A O10A 1_555 1_555

#END
