
#######################################################################
#
#                 Cambridge Crystallographic Data Centre
#                                CCDC 
#
#######################################################################
#
# If this CIF has been generated from an entry in the Cambridge 
# Structural Database, then it will include bibliographic, chemical, 
# crystal, experimental, refinement or atomic coordinate data resulting 
# from the CCDC's data processing and validation procedures.
#
#######################################################################

data_YOTREG
_chemical_formula_moiety         '(C182 H272 Cl4 Fe12 N12 O57 2+)n'
_symmetry_cell_setting           hexagonal
_symmetry_space_group_name_H-M   'P 6/m c c'
_symmetry_Int_Tables_number      192
_space_group_name_Hall           '-P 6 2c'
loop_
_symmetry_equiv_pos_site_id
_symmetry_equiv_pos_as_xyz
1 x,y,z
2 -y,x-y,z
3 -x+y,-x,z
4 -x,-y,z
5 y,-x+y,z
6 x-y,x,z
7 y,x,1/2-z
8 x-y,-y,1/2-z
9 -x,-x+y,1/2-z
10 -y,-x,1/2-z
11 -x+y,y,1/2-z
12 x,x-y,1/2-z
13 -x,-y,-z
14 y,-x+y,-z
15 x-y,x,-z
16 x,y,-z
17 -y,x-y,-z
18 -x+y,-x,-z
19 -y,-x,1/2+z
20 -x+y,y,1/2+z
21 x,x-y,1/2+z
22 y,x,1/2+z
23 x-y,-y,1/2+z
24 -x,-x+y,1/2+z
_cell_length_a                   38.8452(8)
_cell_length_b                   38.8452(8)
_cell_length_c                   24.8241(7)
_cell_angle_alpha                90
_cell_angle_beta                 90
_cell_angle_gamma                120
_cell_volume                     32439.9
loop_
_atom_site_label
_atom_site_type_symbol
_atom_site_fract_x
_atom_site_fract_y
_atom_site_fract_z
Cl1 Cl 0.8161(3) 0.2732(3) 0.2790(2)
Cl2 Cl 0.7448(4) 0.1917(4) 0.3047(3)
C35 C 0.7894(8) 0.2366(6) 0.3343(14)
Cl1I Cl 0.7268(3) 0.1839(3) 0.2210(2)
Cl2I Cl 0.8083(4) 0.2552(4) 0.1953(3)
C35I C 0.7634(6) 0.2106(8) 0.1657(14)
O11 O 0.8911(10) 0.3134(11) 0.3030(12)
O12 O 0.8026(4) 0.3195(4) 0.2962(6)
O13 O 0.0810(18) 0.5226(17) -0.083(2)
O14 O 0.075(2) 0.523(2) 0.0000
O15 O -0.0853(10) 0.0853(10) 0.2500
Fe1 Fe -0.06601(5) 0.23947(5) 0.06611(6)
O1 O -0.0423(3) 0.2648(3) 0.0000
O2 O -0.0630(3) 0.2874(3) 0.0992(3)
O3 O -0.0159(3) 0.2506(3) 0.1018(3)
O4 O -0.0727(2) 0.1862(2) 0.0447(3)
O5 O -0.1216(2) 0.2244(2) 0.0441(3)
N1 N -0.0935(3) 0.2092(3) 0.1393(4)
Fe2 Fe 0.00408(7) 0.31434(7) 0.0000
C1 C -0.0404(5) 0.3243(5) 0.0898(6)
C2 C 0.0194(4) 0.2765(5) 0.0941(5)
C3 C -0.0706(4) 0.1738(4) 0.0000
C4 C -0.1376(4) 0.2219(5) 0.0000
C5 C -0.1216(5) 0.2153(4) 0.1605(5)
C6 C -0.0872(3) 0.1823(5) 0.1624(5)
O6 O -0.0146(3) 0.3384(3) 0.0552(4)
O7 O 0.0318(2) 0.3007(3) 0.0559(3)
N2 N 0.0585(4) 0.3726(4) 0.0000
C7 C -0.0478(4) 0.3517(5) 0.1265(7)
C8 C 0.0513(5) 0.2778(4) 0.1316(6)
C9 C -0.0657(6) 0.1372(7) 0.0000
C10 C -0.1810(6) 0.2130(5) 0.0000
H1 H -0.1261 0.2346 0.1454
C11 C -0.1446(4) 0.1934(4) 0.2050(5)
C12 C -0.1083(4) 0.1598(4) 0.2054(5)
H2 H -0.0671 0.1784 0.1485
C13 C 0.0759(4) 0.3909(5) 0.0456(4)
C14 C -0.0904(6) 0.3372(10) 0.133(2)
C15 C -0.0281(13) 0.3929(5) 0.1059(15)
C16 C -0.0302(17) 0.3533(14) 0.1807(9)
C17 C 0.0417(11) 0.2824(16) 0.1885(6)
C18 C 0.0909(5) 0.3126(12) 0.1197(15)
C19 C 0.0512(17) 0.2396(12) 0.1278(19)
C20 C -0.0219(7) 0.1512(9) 0.0000
C21 C -0.0829(8) 0.1128(6) 0.0491(8)
C22 C -0.1815(10) 0.2511(8) 0.0000
C23 C -0.2018(5) 0.1911(8) 0.0491(8)
H3 H -0.1634 0.1989 0.2194
C24 C -0.1391(4) 0.1634(4) 0.2274(4)
H4 H -0.1019 0.1417 0.2202
H5 H 0.0646 0.3783 0.0780
C25 C 0.1097(4) 0.4276(4) 0.0474(5)
H6 H 0.1208 0.4394 0.0803
C26 C 0.1271(6) 0.4467(6) 0.0000
C27 C 0.1642(5) 0.4852(5) 0.0000
C28 C 0.1835(4) 0.5051(5) 0.0473(5)
H7 H 0.1730 0.4937 0.0806
C29 C 0.2175(4) 0.5410(4) 0.0450(6)
N3 N 0.2343(5) 0.5591(5) 0.0000
H8 H 0.2296 0.5533 0.0773
Fe3 Fe 0.28701(7) 0.61637(7) 0.0000
O8 O 0.3333 0.6667 0.0000
O9 O 0.2587(3) 0.6295(3) -0.0576(4)
O10 O 0.2883(5) 0.6950(3) -0.0571(4)
C30 C 0.2653(4) 0.6620(5) -0.0749(6)
C31 C 0.2391(5) 0.6613(4) -0.1207(8)
C32 C 0.2124(7) 0.6756(9) -0.1007(11)
C33 C 0.2142(8) 0.6208(6) -0.1421(9)
C34 C 0.2632(7) 0.6874(8) -0.1650(8)
O4O O -0.0727(2) 0.1862(2) -0.0447(3)
C21O C -0.0829(8) 0.1128(6) -0.0491(8)
O5O O -0.1216(2) 0.2244(2) -0.0441(3)
C23O C -0.2018(5) 0.1911(8) -0.0491(8)
N1I N -0.2092(3) 0.0935(3) 0.3607(4)
C5I C -0.2153(4) 0.1216(5) 0.3395(5)
C6I C -0.1823(5) 0.0872(3) 0.3376(5)
H1I H -0.2346 0.1261 0.3546
C11I C -0.1934(4) 0.1446(4) 0.2950(5)
C12I C -0.1598(4) 0.1083(4) 0.2946(5)
H2I H -0.1784 0.0671 0.3515
H3I H -0.1989 0.1634 0.2806
C24I C -0.1634(4) 0.1391(4) 0.2726(4)
H4I H -0.1417 0.1019 0.2798
C13O C 0.0759(4) 0.3909(5) -0.0456(4)
H5O H 0.0646 0.3783 -0.0780
C25O C 0.1097(4) 0.4276(4) -0.0474(5)
H6O H 0.1208 0.4394 -0.0803
C28O C 0.1835(4) 0.5051(5) -0.0473(5)
H7O H 0.1730 0.4937 -0.0806
C29O C 0.2175(4) 0.5410(4) -0.0450(6)
H8O H 0.2296 0.5533 -0.0773
Fe1A Fe 0.76053(5) 0.69452(7) 0.06611(6)
O1A O 0.7352(3) 0.6929(4) 0.0000
O2A O 0.7126(3) 0.6496(4) 0.0992(3)
O3A O 0.7494(3) 0.7335(4) 0.1018(3)
O4A O 0.8138(2) 0.7411(3) 0.0447(3)
O5A O 0.7756(2) 0.6540(3) 0.0441(3)
N1A N 0.7908(3) 0.6973(4) 0.1393(4)
Fe2A Fe 0.68566(7) 0.68974(10) 0.0000
C1A C 0.6757(5) 0.6353(7) 0.0898(6)
C2A C 0.7235(5) 0.7429(6) 0.0941(5)
C3A C 0.8262(4) 0.7556(6) 0.0000
C4A C 0.7781(5) 0.6405(6) 0.0000
C5A C 0.7847(4) 0.6631(6) 0.1605(5)
C6A C 0.8177(5) 0.7305(6) 0.1624(5)
O6A O 0.6616(3) 0.6470(4) 0.0552(4)
O7A O 0.6993(3) 0.7311(4) 0.0559(3)
N2A N 0.6274(4) 0.6859(6) 0.0000
C7A C 0.6483(5) 0.6005(6) 0.1265(7)
C8A C 0.7222(4) 0.7735(6) 0.1316(6)
C9A C 0.8628(7) 0.7971(9) 0.0000
C10A C 0.7870(5) 0.6060(8) 0.0000
H1A H 0.7654 0.6393 0.1454
C11A C 0.8066(4) 0.6620(6) 0.2050(5)
C12A C 0.8402(4) 0.7319(6) 0.2054(5)
H2A H 0.8216 0.7545 0.1485
C13A C 0.6091(5) 0.6850(6) 0.0456(4)
C14A C 0.6628(10) 0.5724(12) 0.133(2)
C15A C 0.6071(5) 0.5790(14) 0.1059(15)
C16A C 0.6467(14) 0.6165(22) 0.1807(9)
C17A C 0.7176(16) 0.7593(19) 0.1885(6)
C18A C 0.6874(12) 0.7783(13) 0.1197(15)
C19A C 0.7604(12) 0.8116(21) 0.1278(19)
C20A C 0.8488(9) 0.8269(11) 0.0000
C21A C 0.8872(6) 0.8043(10) 0.0491(8)
C22A C 0.7489(8) 0.5674(13) 0.0000
C23A C 0.8089(8) 0.6071(9) 0.0491(8)
H3A H 0.8011 0.6377 0.2194
C24A C 0.8366(4) 0.6975(6) 0.2274(4)
H4A H 0.8583 0.7564 0.2202
H5A H 0.6217 0.6863 0.0780
C25A C 0.5724(4) 0.6821(6) 0.0474(5)
H6A H 0.5606 0.6814 0.0803
C26A C 0.5533(6) 0.6804(8) 0.0000
C27A C 0.5148(5) 0.6790(7) 0.0000
C28A C 0.4949(5) 0.6784(6) 0.0473(5)
H7A H 0.5063 0.6793 0.0806
C29A C 0.4590(4) 0.6765(6) 0.0450(6)
N3A N 0.4409(5) 0.6752(7) 0.0000
H8A H 0.4467 0.6763 0.0773
Fe3A Fe 0.38363(7) 0.67064(10) 0.0000
O9A O 0.3705(3) 0.6292(4) -0.0576(4)
O10A O 0.3050(3) 0.5933(6) -0.0571(4)
C30A C 0.3380(5) 0.6033(6) -0.0749(6)
C31A C 0.3387(4) 0.5778(6) -0.1207(8)
C32A C 0.3244(9) 0.5368(11) -0.1007(11)
C33A C 0.3792(6) 0.5934(10) -0.1421(9)
C34A C 0.3126(8) 0.5758(11) -0.1650(8)
O4P O 0.8138(2) 0.7411(3) -0.0447(3)
C21P C 0.8872(6) 0.8043(10) -0.0491(8)
O5P O 0.7756(2) 0.6540(3) -0.0441(3)
C23P C 0.8089(8) 0.6071(9) -0.0491(8)
N1K N 0.9065(3) 0.6973(4) 0.3607(4)
C5K C 0.8784(5) 0.6631(6) 0.3395(5)
C6K C 0.9128(3) 0.7305(6) 0.3376(5)
H1K H 0.8739 0.6393 0.3546
C11K C 0.8554(4) 0.6620(6) 0.2950(5)
C12K C 0.8917(4) 0.7319(6) 0.2946(5)
H2K H 0.9329 0.7545 0.3515
H3K H 0.8366 0.6377 0.2806
C24K C 0.8609(4) 0.6975(6) 0.2726(4)
H4K H 0.8981 0.7564 0.2798
C13P C 0.6091(5) 0.6850(6) -0.0456(4)
H5P H 0.6217 0.6863 -0.0780
C25P C 0.5724(4) 0.6821(6) -0.0474(5)
H6P H 0.5606 0.6814 -0.0803
C28P C 0.4949(5) 0.6784(6) -0.0473(5)
H7P H 0.5063 0.6793 -0.0806
C29P C 0.4590(4) 0.6765(6) -0.0450(6)
H8P H 0.4467 0.6763 -0.0773
Fe1B Fe 0.30548(7) 1.06601(5) 0.06611(6)
O1B O 0.3071(4) 1.0423(3) 0.0000
O2B O 0.3504(4) 1.0630(3) 0.0992(3)
O3B O 0.2665(4) 1.0159(3) 0.1018(3)
O4B O 0.2589(3) 1.0727(2) 0.0447(3)
O5B O 0.3460(3) 1.1216(2) 0.0441(3)
N1B N 0.3027(4) 1.0935(3) 0.1393(4)
Fe2B Fe 0.31026(10) 0.99592(7) 0.0000
C1B C 0.3647(7) 1.0404(5) 0.0898(6)
C2B C 0.2571(6) 0.9806(4) 0.0941(5)
C3B C 0.2444(6) 1.0706(4) 0.0000
C4B C 0.3595(6) 1.1376(4) 0.0000
C5B C 0.3369(6) 1.1216(5) 0.1605(5)
C6B C 0.2695(6) 1.0872(3) 0.1624(5)
O6B O 0.3530(4) 1.0146(3) 0.0552(4)
O7B O 0.2689(4) 0.9682(2) 0.0559(3)
N2B N 0.3141(6) 0.9415(4) 0.0000
C7B C 0.3995(6) 1.0478(4) 0.1265(7)
C8B C 0.2265(6) 0.9487(5) 0.1316(6)
C9B C 0.2029(9) 1.0657(6) 0.0000
C10B C 0.3940(8) 1.1810(6) 0.0000
H1B H 0.3607 1.1261 0.1454
C11B C 0.3380(6) 1.1446(4) 0.2050(5)
C12B C 0.2681(6) 1.1083(4) 0.2054(5)
H2B H 0.2455 1.0671 0.1485
C13B C 0.3150(6) 0.9241(4) 0.0456(4)
C14B C 0.4276(12) 1.0904(6) 0.133(2)
C15B C 0.4210(14) 1.0281(13) 0.1059(15)
C16B C 0.3835(22) 1.0302(17) 0.1807(9)
C17B C 0.2407(19) 0.9583(11) 0.1885(6)
C18B C 0.2217(13) 0.9091(5) 0.1197(15)
C19B C 0.1884(21) 0.9488(17) 0.1278(19)
C20B C 0.1731(11) 1.0219(7) 0.0000
C21B C 0.1957(10) 1.0829(8) 0.0491(8)
C22B C 0.4326(13) 1.1815(10) 0.0000
C23B C 0.3929(9) 1.2018(5) 0.0491(8)
H3B H 0.3623 1.1634 0.2194
C24B C 0.3025(6) 1.1391(4) 0.2274(4)
H4B H 0.2436 1.1019 0.2202
H5B H 0.3137 0.9354 0.0780
C25B C 0.3179(6) 0.8903(4) 0.0474(5)
H6B H 0.3186 0.8792 0.0803
C26B C 0.3196(8) 0.8729(6) 0.0000
C27B C 0.3210(7) 0.8358(5) 0.0000
C28B C 0.3216(6) 0.8165(4) 0.0473(5)
H7B H 0.3207 0.8270 0.0806
C29B C 0.3235(6) 0.7825(4) 0.0450(6)
N3B N 0.3248(7) 0.7657(5) 0.0000
H8B H 0.3237 0.7704 0.0773
Fe3B Fe 0.32936(10) 0.71299(7) 0.0000
O9B O 0.3708(4) 0.7413(3) -0.0576(4)
O10B O 0.4067(6) 0.7117(5) -0.0571(4)
C30B C 0.3967(6) 0.7347(4) -0.0749(6)
C31B C 0.4222(6) 0.7609(5) -0.1207(8)
C32B C 0.4632(11) 0.7876(7) -0.1007(11)
C33B C 0.4066(10) 0.7858(8) -0.1421(9)
C34B C 0.4242(11) 0.7368(7) -0.1650(8)
O4Q O 0.2589(3) 1.0727(2) -0.0447(3)
C21Q C 0.1957(10) 1.0829(8) -0.0491(8)
O5Q O 0.3460(3) 1.1216(2) -0.0441(3)
C23Q C 0.3929(9) 1.2018(5) -0.0491(8)
N1J N 0.3027(4) 1.2092(3) 0.3607(4)
C5J C 0.3369(6) 1.2153(4) 0.3395(5)
C6J C 0.2695(6) 1.1823(5) 0.3376(5)
H1J H 0.3607 1.2346 0.3546
C11J C 0.3380(6) 1.1934(4) 0.2950(5)
C12J C 0.2681(6) 1.1598(4) 0.2946(5)
H2J H 0.2455 1.1784 0.3515
H3J H 0.3623 1.1989 0.2806
C24J C 0.3025(6) 1.1634(4) 0.2726(4)
H4J H 0.2436 1.1417 0.2798
C13Q C 0.3150(6) 0.9241(4) -0.0456(4)
H5Q H 0.3137 0.9354 -0.0780
C25Q C 0.3179(6) 0.8903(4) -0.0474(5)
H6Q H 0.3186 0.8792 -0.0803
C28Q C 0.3216(6) 0.8165(4) -0.0473(5)
H7Q H 0.3207 0.8270 -0.0806
C29Q C 0.3235(6) 0.7825(4) -0.0450(6)
H8Q H 0.3237 0.7704 -0.0773
Fe1O Fe -0.06601(5) 0.23947(5) -0.06611(6)
O2O O -0.0630(3) 0.2874(3) -0.0992(3)
O3O O -0.0159(3) 0.2506(3) -0.1018(3)
C1O C -0.0404(5) 0.3243(5) -0.0898(6)
C2O C 0.0194(4) 0.2765(5) -0.0941(5)
O6O O -0.0146(3) 0.3384(3) -0.0552(4)
O7O O 0.0318(2) 0.3007(3) -0.0559(3)
C7O C -0.0478(4) 0.3517(5) -0.1265(7)
C8O C 0.0513(5) 0.2778(4) -0.1316(6)
C14O C -0.0904(6) 0.3372(10) -0.133(2)
C15O C -0.0281(13) 0.3929(5) -0.1059(15)
C16O C -0.0302(17) 0.3533(14) -0.1807(9)
C17O C 0.0417(11) 0.2824(16) -0.1885(6)
C18O C 0.0909(5) 0.3126(12) -0.1197(15)
C19O C 0.0512(17) 0.2396(12) -0.1278(19)
O9O O 0.2587(3) 0.6295(3) 0.0576(4)
O10O O 0.2883(5) 0.6950(3) 0.0571(4)
C30O C 0.2653(4) 0.6620(5) 0.0749(6)
C31O C 0.2391(5) 0.6613(4) 0.1207(8)
C32O C 0.2124(7) 0.6756(9) 0.1007(11)
C33O C 0.2142(8) 0.6208(6) 0.1421(9)
C34O C 0.2632(7) 0.6874(8) 0.1650(8)
Fe1P Fe 0.76053(5) 0.69452(7) -0.06611(6)
O2P O 0.7126(3) 0.6496(4) -0.0992(3)
O3P O 0.7494(3) 0.7335(4) -0.1018(3)
C1P C 0.6757(5) 0.6353(7) -0.0898(6)
C2P C 0.7235(5) 0.7429(6) -0.0941(5)
O6P O 0.6616(3) 0.6470(4) -0.0552(4)
O7P O 0.6993(3) 0.7311(4) -0.0559(3)
C7P C 0.6483(5) 0.6005(6) -0.1265(7)
C8P C 0.7222(4) 0.7735(6) -0.1316(6)
C14P C 0.6628(10) 0.5724(12) -0.133(2)
C15P C 0.6071(5) 0.5790(14) -0.1059(15)
C16P C 0.6467(14) 0.6165(22) -0.1807(9)
C17P C 0.7176(16) 0.7593(19) -0.1885(6)
C18P C 0.6874(12) 0.7783(13) -0.1197(15)
C19P C 0.7604(12) 0.8116(21) -0.1278(19)
O9P O 0.3705(3) 0.6292(4) 0.0576(4)
O10P O 0.3050(3) 0.5933(6) 0.0571(4)
C30P C 0.3380(5) 0.6033(6) 0.0749(6)
C31P C 0.3387(4) 0.5778(6) 0.1207(8)
C32P C 0.3244(9) 0.5368(11) 0.1007(11)
C33P C 0.3792(6) 0.5934(10) 0.1421(9)
C34P C 0.3126(8) 0.5758(11) 0.1650(8)
Fe1Q Fe 0.30548(7) 1.06601(5) -0.06611(6)
O2Q O 0.3504(4) 1.0630(3) -0.0992(3)
O3Q O 0.2665(4) 1.0159(3) -0.1018(3)
C1Q C 0.3647(7) 1.0404(5) -0.0898(6)
C2Q C 0.2571(6) 0.9806(4) -0.0941(5)
O6Q O 0.3530(4) 1.0146(3) -0.0552(4)
O7Q O 0.2689(4) 0.9682(2) -0.0559(3)
C7Q C 0.3995(6) 1.0478(4) -0.1265(7)
C8Q C 0.2265(6) 0.9487(5) -0.1316(6)
C14Q C 0.4276(12) 1.0904(6) -0.133(2)
C15Q C 0.4210(14) 1.0281(13) -0.1059(15)
C16Q C 0.3835(22) 1.0302(17) -0.1807(9)
C17Q C 0.2407(19) 0.9583(11) -0.1885(6)
C18Q C 0.2217(13) 0.9091(5) -0.1197(15)
C19Q C 0.1884(21) 0.9488(17) -0.1278(19)
O9Q O 0.3708(4) 0.7413(3) 0.0576(4)
O10Q O 0.4067(6) 0.7117(5) 0.0571(4)
C30Q C 0.3967(6) 0.7347(4) 0.0749(6)
C31Q C 0.4222(6) 0.7609(5) 0.1207(8)
C32Q C 0.4632(11) 0.7876(7) 0.1007(11)
C33Q C 0.4066(10) 0.7858(8) 0.1421(9)
C34Q C 0.4242(11) 0.7368(7) 0.1650(8)
Fe1I Fe -0.23947(5) 0.06601(5) 0.43389(6)
Fe1J Fe 0.30548(7) 1.23947(5) 0.43389(6)
Fe1K Fe 0.93399(5) 0.69452(7) 0.43389(6)
N1O N -0.0935(3) 0.2092(3) -0.1393(4)
N1P N 0.7908(3) 0.6973(4) -0.1393(4)
N1Q N 0.3027(4) 1.0935(3) -0.1393(4)
loop_
_geom_bond_atom_site_label_1
_geom_bond_atom_site_label_2
_geom_bond_site_symmetry_1
_geom_bond_site_symmetry_2
Fe1 O1 1_555 1_555
O1 Fe2 1_555 1_555
O2 Fe1 1_555 1_555
O3 Fe1 1_555 1_555
O4 Fe1 1_555 1_555
O5 Fe1 1_555 1_555
N1 Fe1 1_555 1_555
Fe2 O6 1_555 1_555
C1 O2 1_555 1_555
C2 O3 1_555 1_555
C3 O4 1_555 1_555
C4 O5 1_555 1_555
C5 N1 1_555 1_555
C6 N1 1_555 1_555
O6 C1 1_555 1_555
O7 Fe2 1_555 1_555
N2 Fe2 1_555 1_555
C7 C1 1_555 1_555
C8 C2 1_555 1_555
C9 C3 1_555 1_555
C10 C4 1_555 1_555
H1 C5 1_555 1_555
C11 C5 1_555 1_555
C12 C6 1_555 1_555
H2 C6 1_555 1_555
C13 N2 1_555 1_555
C14 C7 1_555 1_555
C15 C7 1_555 1_555
C16 C7 1_555 1_555
C17 C8 1_555 1_555
C18 C8 1_555 1_555
C19 C8 1_555 1_555
C20 C9 1_555 1_555
C21 C9 1_555 1_555
C22 C10 1_555 1_555
C23 C10 1_555 1_555
H3 C11 1_555 1_555
C24 C11 1_555 1_555
H4 C12 1_555 1_555
H5 C13 1_555 1_555
C25 C13 1_555 1_555
H6 C25 1_555 1_555
C26 C25 1_555 1_555
C27 C26 1_555 1_555
C28 C27 1_555 1_555
H7 C28 1_555 1_555
C29 C28 1_555 1_555
N3 C29 1_555 1_555
H8 C29 1_555 1_555
Fe3 N3 1_555 1_555
O8 Fe3 1_555 1_555
O9 Fe3 1_555 1_555
O10 C30 1_555 1_555
C30 O9 1_555 1_555
C31 C30 1_555 1_555
C32 C31 1_555 1_555
C33 C31 1_555 1_555
C34 C31 1_555 1_555
Cl1 C35 1_555 1_555
Cl2 C35 1_555 1_555
O4O C3 1_555 1_555
C21O C9 1_555 1_555
O5O C4 1_555 1_555
C23O C10 1_555 1_555
N1I C5I 1_555 1_555
C5I H1I 1_555 1_555
C6I N1I 1_555 1_555
C11I C5I 1_555 1_555
C12I C6I 1_555 1_555
H2I C6I 1_555 1_555
H3I C11I 1_555 1_555
C24I C24 1_555 1_555
H4I C12I 1_555 1_555
C13O N2 1_555 1_555
H5O C13O 1_555 1_555
C25O C26 1_555 1_555
H6O C25O 1_555 1_555
C28O C27 1_555 1_555
H7O C28O 1_555 1_555
C29O N3 1_555 1_555
H8O C29O 1_555 1_555
Fe1A O1A 1_555 1_555
O1A Fe2A 1_555 1_555
O2A Fe1A 1_555 1_555
O3A Fe1A 1_555 1_555
O4A Fe1A 1_555 1_555
O5A Fe1A 1_555 1_555
N1A Fe1A 1_555 1_555
Fe2A O6A 1_555 1_555
C1A O2A 1_555 1_555
C2A O3A 1_555 1_555
C3A O4A 1_555 1_555
C4A O5A 1_555 1_555
C5A N1A 1_555 1_555
C6A N1A 1_555 1_555
O6A C1A 1_555 1_555
O7A Fe2A 1_555 1_555
N2A Fe2A 1_555 1_555
C7A C1A 1_555 1_555
C8A C2A 1_555 1_555
C9A C3A 1_555 1_555
C10A C4A 1_555 1_555
H1A C5A 1_555 1_555
C11A C5A 1_555 1_555
C12A C6A 1_555 1_555
H2A C6A 1_555 1_555
C13A N2A 1_555 1_555
C14A C7A 1_555 1_555
C15A C7A 1_555 1_555
C16A C7A 1_555 1_555
C17A C8A 1_555 1_555
C18A C8A 1_555 1_555
C19A C8A 1_555 1_555
C20A C9A 1_555 1_555
C21A C9A 1_555 1_555
C22A C10A 1_555 1_555
C23A C10A 1_555 1_555
H3A C11A 1_555 1_555
C24A C11A 1_555 1_555
H4A C12A 1_555 1_555
H5A C13A 1_555 1_555
C25A C13A 1_555 1_555
H6A C25A 1_555 1_555
C26A C25A 1_555 1_555
C27A C26A 1_555 1_555
C28A C27A 1_555 1_555
H7A C28A 1_555 1_555
C29A C28A 1_555 1_555
N3A C29A 1_555 1_555
H8A C29A 1_555 1_555
Fe3A O8 1_555 1_555
O9A Fe3A 1_555 1_555
O10A Fe3 1_555 1_555
C30A O9A 1_555 1_555
C31A C30A 1_555 1_555
C32A C31A 1_555 1_555
C33A C31A 1_555 1_555
C34A C31A 1_555 1_555
O4P C3A 1_555 1_555
C21P C9A 1_555 1_555
O5P C4A 1_555 1_555
C23P C10A 1_555 1_555
N1K C5K 1_555 1_555
C5K H1K 1_555 1_555
C6K N1K 1_555 1_555
C11K C5K 1_555 1_555
C12K C6K 1_555 1_555
H2K C6K 1_555 1_555
H3K C11K 1_555 1_555
C24K C24A 1_555 1_555
H4K C12K 1_555 1_555
C13P N2A 1_555 1_555
H5P C13P 1_555 1_555
C25P C26A 1_555 1_555
H6P C25P 1_555 1_555
C28P C27A 1_555 1_555
H7P C28P 1_555 1_555
C29P N3A 1_555 1_555
H8P C29P 1_555 1_555
Fe1B O1B 1_555 1_555
O1B Fe2B 1_555 1_555
O2B Fe1B 1_555 1_555
O3B Fe1B 1_555 1_555
O4B Fe1B 1_555 1_555
O5B Fe1B 1_555 1_555
N1B Fe1B 1_555 1_555
Fe2B O6B 1_555 1_555
C1B O2B 1_555 1_555
C2B O3B 1_555 1_555
C3B O4B 1_555 1_555
C4B O5B 1_555 1_555
C5B N1B 1_555 1_555
C6B N1B 1_555 1_555
O6B C1B 1_555 1_555
O7B Fe2B 1_555 1_555
N2B Fe2B 1_555 1_555
C7B C1B 1_555 1_555
C8B C2B 1_555 1_555
C9B C3B 1_555 1_555
C10B C4B 1_555 1_555
H1B C5B 1_555 1_555
C11B C5B 1_555 1_555
C12B C6B 1_555 1_555
H2B C6B 1_555 1_555
C13B N2B 1_555 1_555
C14B C7B 1_555 1_555
C15B C7B 1_555 1_555
C16B C7B 1_555 1_555
C17B C8B 1_555 1_555
C18B C8B 1_555 1_555
C19B C8B 1_555 1_555
C20B C9B 1_555 1_555
C21B C9B 1_555 1_555
C22B C10B 1_555 1_555
C23B C10B 1_555 1_555
H3B C11B 1_555 1_555
C24B C11B 1_555 1_555
H4B C12B 1_555 1_555
H5B C13B 1_555 1_555
C25B C13B 1_555 1_555
H6B C25B 1_555 1_555
C26B C25B 1_555 1_555
C27B C26B 1_555 1_555
C28B C27B 1_555 1_555
H7B C28B 1_555 1_555
C29B C28B 1_555 1_555
N3B C29B 1_555 1_555
H8B C29B 1_555 1_555
Fe3B O8 1_555 1_555
O9B Fe3B 1_555 1_555
O10B Fe3A 1_555 1_555
C30B O9B 1_555 1_555
C31B C30B 1_555 1_555
C32B C31B 1_555 1_555
C33B C31B 1_555 1_555
C34B C31B 1_555 1_555
O4Q C3B 1_555 1_555
C21Q C9B 1_555 1_555
O5Q C4B 1_555 1_555
C23Q C10B 1_555 1_555
N1J C5J 1_555 1_555
C5J H1J 1_555 1_555
C6J N1J 1_555 1_555
C11J C5J 1_555 1_555
C12J C6J 1_555 1_555
H2J C6J 1_555 1_555
H3J C11J 1_555 1_555
C24J C24B 1_555 1_555
H4J C12J 1_555 1_555
C13Q N2B 1_555 1_555
H5Q C13Q 1_555 1_555
C25Q C26B 1_555 1_555
H6Q C25Q 1_555 1_555
C28Q C27B 1_555 1_555
H7Q C28Q 1_555 1_555
C29Q N3B 1_555 1_555
H8Q C29Q 1_555 1_555
Fe1O O1 1_555 1_555
O2O Fe1O 1_555 1_555
O3O Fe1O 1_555 1_555
C1O O2O 1_555 1_555
C2O O3O 1_555 1_555
O6O Fe2 1_555 1_555
O7O Fe2 1_555 1_555
C7O C1O 1_555 1_555
C8O C2O 1_555 1_555
C14O C7O 1_555 1_555
C15O C7O 1_555 1_555
C16O C7O 1_555 1_555
C17O C8O 1_555 1_555
C18O C8O 1_555 1_555
C19O C8O 1_555 1_555
O9O Fe3 1_555 1_555
O10O Fe3B 1_555 1_555
C30O O9O 1_555 1_555
C31O C30O 1_555 1_555
C32O C31O 1_555 1_555
C33O C31O 1_555 1_555
C34O C31O 1_555 1_555
Fe1P O1A 1_555 1_555
O2P Fe1P 1_555 1_555
O3P Fe1P 1_555 1_555
C1P O2P 1_555 1_555
C2P O3P 1_555 1_555
O6P Fe2A 1_555 1_555
O7P Fe2A 1_555 1_555
C7P C1P 1_555 1_555
C8P C2P 1_555 1_555
C14P C7P 1_555 1_555
C15P C7P 1_555 1_555
C16P C7P 1_555 1_555
C17P C8P 1_555 1_555
C18P C8P 1_555 1_555
C19P C8P 1_555 1_555
O9P Fe3A 1_555 1_555
O10P Fe3 1_555 1_555
C30P O9P 1_555 1_555
C31P C30P 1_555 1_555
C32P C31P 1_555 1_555
C33P C31P 1_555 1_555
C34P C31P 1_555 1_555
Fe1Q O1B 1_555 1_555
O2Q Fe1Q 1_555 1_555
O3Q Fe1Q 1_555 1_555
C1Q O2Q 1_555 1_555
C2Q O3Q 1_555 1_555
O6Q Fe2B 1_555 1_555
O7Q Fe2B 1_555 1_555
C7Q C1Q 1_555 1_555
C8Q C2Q 1_555 1_555
C14Q C7Q 1_555 1_555
C15Q C7Q 1_555 1_555
C16Q C7Q 1_555 1_555
C17Q C8Q 1_555 1_555
C18Q C8Q 1_555 1_555
C19Q C8Q 1_555 1_555
O9Q Fe3B 1_555 1_555
O10Q Fe3A 1_555 1_555
C30Q O9Q 1_555 1_555
C31Q C30Q 1_555 1_555
C32Q C31Q 1_555 1_555
C33Q C31Q 1_555 1_555
C34Q C31Q 1_555 1_555
Fe1I N1I 1_555 1_555
Fe1J N1J 1_555 1_555
Fe1K N1K 1_555 1_555
N1O Fe1O 1_555 1_555
N1P Fe1P 1_555 1_555
N1Q Fe1Q 1_555 1_555
Cl1I Cl2 1_555 1_555
Cl2I Cl1 1_555 1_555
C35I Cl1I 1_555 1_555
C2 O7 1_555 1_555
C12 C24 1_555 1_555
O10 Fe3B 1_555 1_555
O4O Fe1O 1_555 1_555
O5O Fe1O 1_555 1_555
C11I C24I 1_555 1_555
C12I C24I 1_555 1_555
C13O C25O 1_555 1_555
C28O C29O 1_555 1_555
C2A O7A 1_555 1_555
C12A C24A 1_555 1_555
N3A Fe3A 1_555 1_555
O10A C30A 1_555 1_555
O4P Fe1P 1_555 1_555
O5P Fe1P 1_555 1_555
C11K C24K 1_555 1_555
C12K C24K 1_555 1_555
C13P C25P 1_555 1_555
C28P C29P 1_555 1_555
C2B O7B 1_555 1_555
C12B C24B 1_555 1_555
N3B Fe3B 1_555 1_555
O10B C30B 1_555 1_555
O4Q Fe1Q 1_555 1_555
O5Q Fe1Q 1_555 1_555
C11J C24J 1_555 1_555
C12J C24J 1_555 1_555
C13Q C25Q 1_555 1_555
C28Q C29Q 1_555 1_555
C1O O6O 1_555 1_555
C2O O7O 1_555 1_555
O10O C30O 1_555 1_555
C1P O6P 1_555 1_555
C2P O7P 1_555 1_555
O10P C30P 1_555 1_555
C1Q O6Q 1_555 1_555
C2Q O7Q 1_555 1_555
O10Q C30Q 1_555 1_555
Cl2I C35I 1_555 1_555

#END
