
#######################################################################
#
#                 Cambridge Crystallographic Data Centre
#                                CCDC 
#
#######################################################################
#
# If this CIF has been generated from an entry in the Cambridge 
# Structural Database, then it will include bibliographic, chemical, 
# crystal, experimental, refinement or atomic coordinate data resulting 
# from the CCDC's data processing and validation procedures.
#
#######################################################################

data_JUGQOT
_chemical_formula_moiety         '(C33 H49 N7 O23 Tb2)n'
_symmetry_cell_setting           triclinic
_symmetry_space_group_name_H-M   'P -1'
_symmetry_Int_Tables_number      2
_space_group_name_Hall           '-P 1'
loop_
_symmetry_equiv_pos_site_id
_symmetry_equiv_pos_as_xyz
1 x,y,z
2 -x,-y,-z
_cell_length_a                   13.0090(10)
_cell_length_b                   13.7701(7)
_cell_length_c                   15.0439(7)
_cell_angle_alpha                99.513(4)
_cell_angle_beta                 90.402(5)
_cell_angle_gamma                116.522(6)
_cell_volume                     2368.14
loop_
_atom_site_label
_atom_site_type_symbol
_atom_site_fract_x
_atom_site_fract_y
_atom_site_fract_z
C2 C 0.279(3) 0.786(3) 0.776(3)
H4 H 0.2355 0.8246 0.7650
H5 H 0.2971 0.7564 0.7193
H6 H 0.3496 0.8370 0.8125
C3 C 0.238(3) 0.605(2) 0.814(2)
H7 H 0.1753 0.5429 0.8307
H8 H 0.3066 0.6258 0.8529
H9 H 0.2518 0.5868 0.7524
C4 C 0.1452(18) 0.7095(17) 0.8831(14)
H10 H 0.1217 0.6602 0.9230
C5 C -0.224(2) 0.655(2) 0.6468(16)
H11 H -0.2421 0.5902 0.6727
H12 H -0.2509 0.6324 0.5837
H13 H -0.2609 0.6957 0.6773
C6 C -0.0306(19) 0.7349(18) 0.5780(12)
H14 H 0.0476 0.7894 0.5967
H15 H -0.0625 0.7576 0.5324
H16 H -0.0320 0.6653 0.5536
C7 C -0.0484(16) 0.7706(14) 0.7379(10)
H17 H 0.0314 0.8118 0.7421
C8 C 0.1367(12) 1.0746(11) 0.8670(10)
C9 C 0.2376(12) 1.1254(11) 0.8101(9)
C10 C 0.3069(11) 1.2397(11) 0.8291(10)
H18 H 0.2898 1.2839 0.8741
C11 C 0.3997(13) 1.2862(12) 0.7812(11)
C12 C 0.4209(13) 1.2208(12) 0.7088(11)
H19 H 0.4836 1.2533 0.6759
C13 C 0.3488(12) 1.1076(11) 0.6860(10)
C14 C 0.2566(12) 1.0602(11) 0.7405(10)
H20 H 0.2092 0.9843 0.7285
C15 C 0.3643(12) 1.0346(12) 0.6086(10)
C16 C 0.4493(13) 1.4658(11) 0.8622(12)
H21 H 0.4509 1.4448 0.9204
H22 H 0.3729 1.4581 0.8476
C17 C 0.5382(14) 1.5829(12) 0.8657(12)
H23 H 0.5356 1.6297 0.9205
H24 H 0.6147 1.5874 0.8652
C18 C 0.5751(12) 1.7271(11) 0.7836(10)
C19 C 0.5414(12) 1.7668(11) 0.7155(10)
H25 H 0.4778 1.7184 0.6750
C20 C 0.5998(12) 1.8768(11) 0.7062(10)
C21 C 0.6944(12) 1.9495(11) 0.7692(10)
H26 H 0.7331 2.0240 0.7657
C22 C 0.7303(12) 1.9103(11) 0.8371(10)
C23 C 0.6730(13) 1.7990(12) 0.8428(11)
H27 H 0.6998 1.7724 0.8858
C24 C 0.8291(12) 1.9867(11) 0.9044(10)
C25 C 0.5621(12) 1.9220(11) 0.6381(9)
C26 C 0.026(2) 0.9718(18) 0.3468(17)
H28 H 0.0792 1.0249 0.3144
H29 H 0.0305 1.0065 0.4085
H30 H -0.0508 0.9435 0.3190
C27 C 0.0099(19) 0.7892(17) 0.2639(16)
H31 H -0.0683 0.7716 0.2459
H32 H 0.0125 0.7255 0.2796
H33 H 0.0565 0.8113 0.2148
C28 C 0.1281(15) 0.8880(14) 0.4092(12)
H34 H 0.1567 0.9490 0.4562
C29 C 0.106(3) 0.596(3) 0.1281(19)
H35 H 0.1129 0.6626 0.1103
H36 H 0.0316 0.5581 0.1492
H37 H 0.1153 0.5495 0.0772
C30 C 0.214(3) 0.532(2) 0.230(2)
H38 H 0.2737 0.5229 0.1977
H39 H 0.1432 0.4652 0.2156
H40 H 0.2360 0.5485 0.2940
C31 C 0.2513(19) 0.7207(18) 0.2516(14)
H41 H 0.2375 0.7762 0.2348
N1 N -0.1563(11) 0.6361(10) 1.0069(9)
N2 N 0.2112(16) 0.6962(15) 0.8236(12)
N3 N -0.1001(14) 0.7232(13) 0.6570(9)
N4 N 0.0555(13) 0.8824(12) 0.3446(11)
N5 N 0.1987(18) 0.6259(17) 0.2032(14)
N6 N 0.2772(17) 0.6366(13) 0.5120(11)
O1 O -0.0473(10) 0.6828(9) 1.0245(8)
O2 O -0.1960(9) 0.6787(9) 0.9573(8)
O3 O -0.2168(12) 0.5544(10) 1.0365(10)
O4 O 0.1101(11) 0.7779(11) 0.8934(9)
O5 O -0.0944(11) 0.7664(10) 0.8098(7)
O6 O 0.1037(9) 0.9745(8) 0.8712(7)
O7 O 0.0979(9) 1.1361(8) 0.9063(7)
O8 O 0.4748(9) 1.3974(8) 0.7949(8)
O9 O 0.5121(9) 1.6184(8) 0.7870(7)
O10 O 0.8868(7) 1.9511(7) 0.9426(6)
O11 O 0.8509(9) 2.0887(8) 0.9246(7)
O12 O 0.6298(9) 2.0150(8) 0.6245(7)
O13 O 0.4601(8) 1.8623(8) 0.5977(6)
O14 O 0.2859(9) 0.9390(8) 0.5830(7)
O15 O 0.4540(8) 1.0732(8) 0.5681(7)
O16 O 0.2206(12) 0.6929(10) 0.5218(10)
O17 O 0.3631(13) 0.6714(11) 0.4684(9)
O18 O 0.2402(18) 0.5484(12) 0.5375(12)
O19 O 0.3191(10) 0.7473(10) 0.3190(8)
O20 O 0.1611(9) 0.8133(9) 0.4103(7)
Tb1 Tb -0.00908(5) 0.85127(5) 0.96030(4)
Tb2 Tb 0.35606(5) 0.85596(5) 0.46486(4)
O7A O -0.0979(9) 0.8639(8) 1.0937(7)
O10_2 O -0.1132(7) 0.9511(7) 0.9426(6)
O10A O 0.1132(7) 1.0489(7) 1.0574(6)
O11A O 0.1491(9) 0.9113(8) 1.0754(7)
O12A O 0.3702(9) 0.9850(8) 0.3755(7)
O13_2 O 0.4601(8) 0.8623(8) 0.5977(6)
O15A O 0.5460(8) 0.9268(8) 0.4319(7)
Tb1_2 Tb 0.99092(5) 1.85127(5) 0.96030(4)
Tb1A Tb 0.00908(5) 1.14873(5) 1.03970(4)
Tb1A_2 Tb 1.00908(5) 2.14873(5) 1.03970(4)
Tb2_2 Tb 0.35606(5) 1.85596(5) 0.46486(4)
Tb2A Tb 0.64394(5) 1.14404(5) 0.53514(4)
Tb2A_2 Tb 0.64394(5) 2.14404(5) 0.53514(4)
C32 C 0.248(3) 1.348(2) 0.6281(17)
H42 H 0.1727 1.2865 0.6106
H43 H 0.2458 1.4147 0.6199
H44 H 0.2694 1.3535 0.6906
C33 C 0.440(3) 1.428(2) 0.580(2)
H45 H 0.4272 1.4908 0.5779
H46 H 0.4832 1.4185 0.5300
H47 H 0.4832 1.4390 0.6357
C34 C 0.319(3) 1.237(3) 0.5250(18)
H48 H 0.3796 1.2312 0.4972
N7 N 0.331(3) 1.331(2) 0.5724(14)
O21 O 0.217(2) 1.1520(19) 0.5180(14)
O22 O -0.003(3) 0.547(3) 0.366(2)
O23 O 0.693(3) 1.179(2) 0.936(2)
loop_
_geom_bond_atom_site_label_1
_geom_bond_atom_site_label_2
_geom_bond_site_symmetry_1
_geom_bond_site_symmetry_2
C2 H4 1_555 1_555
H5 C2 1_555 1_555
H6 C2 1_555 1_555
C3 H7 1_555 1_555
H8 C3 1_555 1_555
H9 C3 1_555 1_555
C4 H10 1_555 1_555
C5 H11 1_555 1_555
H12 C5 1_555 1_555
H13 C5 1_555 1_555
C6 H14 1_555 1_555
H15 C6 1_555 1_555
H16 C6 1_555 1_555
C7 H17 1_555 1_555
C8 C9 1_555 1_555
C9 C10 1_555 1_555
C10 H18 1_555 1_555
C11 C10 1_555 1_555
C12 C11 1_555 1_555
H19 C12 1_555 1_555
C13 C12 1_555 1_555
C14 C9 1_555 1_555
H20 C14 1_555 1_555
C15 C13 1_555 1_555
C16 H21 1_555 1_555
H22 C16 1_555 1_555
C17 C16 1_555 1_555
H23 C17 1_555 1_555
H24 C17 1_555 1_555
C18 C19 1_555 1_555
C19 H25 1_555 1_555
C20 C19 1_555 1_555
C21 C20 1_555 1_555
H26 C21 1_555 1_555
C22 C21 1_555 1_555
C23 C18 1_555 1_555
H27 C23 1_555 1_555
C24 C22 1_555 1_555
C25 C20 1_555 1_555
C26 H28 1_555 1_555
H29 C26 1_555 1_555
H30 C26 1_555 1_555
C27 H31 1_555 1_555
H32 C27 1_555 1_555
H33 C27 1_555 1_555
C28 H34 1_555 1_555
C29 H35 1_555 1_555
H36 C29 1_555 1_555
H37 C29 1_555 1_555
C30 H38 1_555 1_555
H39 C30 1_555 1_555
H40 C30 1_555 1_555
C31 H41 1_555 1_555
N1 O1 1_555 1_555
N2 C2 1_555 1_555
N3 C5 1_555 1_555
N4 C26 1_555 1_555
N5 C29 1_555 1_555
N6 O16 1_555 1_555
O1 Tb1 1_555 1_555
O2 N1 1_555 1_555
O3 N1 1_555 1_555
O4 C4 1_555 1_555
O5 C7 1_555 1_555
O6 C8 1_555 1_555
O7 C8 1_555 1_555
O8 C11 1_555 1_555
O9 C17 1_555 1_555
O10 C24 1_555 1_555
O11 C24 1_555 1_555
O12 C25 1_555 1_555
O13 C25 1_555 1_555
O14 C15 1_555 1_555
O15 C15 1_555 1_555
O16 Tb2 1_555 1_555
O17 N6 1_555 1_555
O18 N6 1_555 1_555
O19 C31 1_555 1_555
O20 C28 1_555 1_555
Tb1 O2 1_555 1_555
Tb2 O14 1_555 1_555
C32 H42 1_555 1_555
H43 C32 1_555 1_555
H44 C32 1_555 1_555
C33 H45 1_555 1_555
H46 C33 1_555 1_555
H47 C33 1_555 1_555
C34 H48 1_555 1_555
N7 C32 1_555 1_555
O21 C34 1_555 1_555
O7A Tb1 1_555 1_555
O10_2 Tb1 1_555 1_555
O10A Tb1 1_555 1_555
O11A Tb1 1_555 1_555
O12A Tb2 1_555 1_555
O13_2 Tb2 1_555 1_555
O15A Tb2 1_555 1_555
Tb1_2 O10 1_555 1_555
Tb1A O7 1_555 1_555
Tb1A_2 O10 1_555 1_555
Tb2_2 O13 1_555 1_555
Tb2A O15 1_555 1_555
Tb2A_2 O12 1_555 1_555
C3 N2 1_555 1_555
C4 N2 1_555 1_555
C6 N3 1_555 1_555
C7 N3 1_555 1_555
C13 C14 1_555 1_555
C16 O8 1_555 1_555
C18 O9 1_555 1_555
C22 C23 1_555 1_555
C27 N4 1_555 1_555
C28 N4 1_555 1_555
C30 N5 1_555 1_555
C31 N5 1_555 1_555
O4 Tb1 1_555 1_555
O5 Tb1 1_555 1_555
O6 Tb1 1_555 1_555
O11 Tb1A_2 1_555 1_555
O15 Tb2 1_555 1_555
O17 Tb2 1_555 1_555
O19 Tb2 1_555 1_555
O20 Tb2 1_555 1_555
C33 N7 1_555 1_555
C34 N7 1_555 1_555
O10_2 Tb1A 1_555 1_555
O10A Tb1A 1_555 1_555
O15A Tb2A 1_555 1_555

#END
