
#######################################################################
#
#                 Cambridge Crystallographic Data Centre
#                                CCDC 
#
#######################################################################
#
# If this CIF has been generated from an entry in the Cambridge 
# Structural Database, then it will include bibliographic, chemical, 
# crystal, experimental, refinement or atomic coordinate data resulting 
# from the CCDC's data processing and validation procedures.
#
#######################################################################

data_CUBBEI
_chemical_formula_moiety         '(C42 H34 O12 Zn3)n'
_symmetry_cell_setting           trigonal
_symmetry_space_group_name_H-M   'P 32 2 1'
_symmetry_Int_Tables_number      154
_space_group_name_Hall           'P 32 2"'
loop_
_symmetry_equiv_pos_site_id
_symmetry_equiv_pos_as_xyz
1 x,y,z
2 -y,x-y,2/3+z
3 -x+y,-x,1/3+z
4 y,x,-z
5 -x,-x+y,2/3-z
6 x-y,-y,1/3-z
_cell_length_a                   18.1019(8)
_cell_length_b                   18.1019(8)
_cell_length_c                   24.668(2)
_cell_angle_alpha                90
_cell_angle_beta                 90
_cell_angle_gamma                120
_cell_volume                     7000.24
loop_
_atom_site_label
_atom_site_type_symbol
_atom_site_fract_x
_atom_site_fract_y
_atom_site_fract_z
C1 C 0.3848(13) 0.5241(9) 1.0309(5)
H1 H 0.4286 0.5790 1.0184
H2 H 0.4032 0.5098 1.0637
H3 H 0.3335 0.5259 1.0377
C2 C 0.3725(6) 0.4219(6) 0.9022(3)
C3 C 0.3966(6) 0.4886(6) 0.9396(3)
C4 C 0.4450(7) 0.5732(6) 0.9247(4)
H4 H 0.4602 0.6167 0.9499
C5 C 0.4714(8) 0.5923(6) 0.8687(4)
C6 C 0.4422(9) 0.5276(7) 0.8325(4)
H5 H 0.4540 0.5405 0.7959
C7 C 0.3945(7) 0.4416(7) 0.8482(3)
H6 H 0.3779 0.3984 0.8226
C8 C 0.5299(7) 0.6799(7) 0.8509(4)
H7 H 0.5339 0.6897 0.8138
C9 C 0.5789(8) 0.7483(7) 0.8831(4)
H8 H 0.5730 0.7411 0.9205
C10 C 0.6399(6) 0.8319(6) 0.8623(3)
C11 C 0.7001(7) 0.8883(6) 0.8956(4)
H9 H 0.6933 0.8735 0.9321
C12 C 0.7728(6) 0.9675(7) 0.8825(3)
C13 C 0.8383(7) 1.0157(6) 0.9236(3)
H10 H 0.8293 0.9965 0.9593
C14 C 0.9109(6) 1.0869(7) 0.9104(4)
H11 H 0.9152 1.1048 0.8746
C15 C 0.9830(6) 1.1391(6) 0.9446(3)
C16 C 1.0505(6) 1.2086(7) 0.9205(4)
H12 H 1.0461 1.2199 0.8842
C17 C 1.1252(7) 1.2629(7) 0.9485(4)
H13 H 1.1681 1.3112 0.9315
C18 C 1.1359(6) 1.2448(6) 1.0023(3)
C19 C 1.0671(6) 1.1752(6) 1.0276(3)
C20 C 0.9918(6) 1.1232(6) 0.9992(4)
H14 H 0.9469 1.0773 1.0168
C21 C 1.0230(7) 1.0904(8) 1.1090(4)
H15 H 0.9737 1.0948 1.1178
H16 H 1.0488 1.0855 1.1418
H17 H 1.0062 1.0409 1.0869
O1 O 0.3692(5) 0.4630(4) 0.9915(2)
O2 O 0.3295(4) 0.3425(4) 0.92086(19)
O3 O 0.6351(4) 0.8413(4) 0.8119(2)
O4 O 0.7893(4) 1.0003(4) 0.8350(2)
O5 O 1.2072(4) 1.2916(4) 1.0288(2)
O6 O 1.0829(4) 1.1649(4) 1.0801(2)
Zn1 Zn 0.32423(8) 0.32423(8) 1.0000
Zn2 Zn 0.28048(7) 0.22203(6) 0.89374(4)
C1C C 0.5241(9) 0.3848(13) 0.9691(5)
H1C H 0.5790 0.4286 0.9816
H2C H 0.5098 0.4032 0.9363
H3C H 0.5259 0.3335 0.9623
C2C C 0.4219(6) 0.3725(6) 1.0978(3)
C3C C 0.4886(6) 0.3966(6) 1.0604(3)
C4C C 0.5732(6) 0.4450(7) 1.0753(4)
H4C H 0.6167 0.4602 1.0501
C5C C 0.5923(6) 0.4714(8) 1.1313(4)
C6C C 0.5276(7) 0.4422(9) 1.1675(4)
H5C H 0.5405 0.4540 1.2041
C7C C 0.4416(7) 0.3945(7) 1.1518(3)
H6C H 0.3984 0.3779 1.1774
C8C C 0.6799(7) 0.5299(7) 1.1491(4)
H7C H 0.6897 0.5339 1.1862
C9C C 0.7483(7) 0.5789(8) 1.1169(4)
H8C H 0.7411 0.5730 1.0795
C10C C 0.8319(6) 0.6399(6) 1.1377(3)
C11C C 0.8883(6) 0.7001(7) 1.1044(4)
H9C H 0.8735 0.6933 1.0679
C12C C 0.9675(7) 0.7728(6) 1.1175(3)
C13C C 1.0157(6) 0.8383(7) 1.0764(3)
H10C H 0.9965 0.8293 1.0407
C14C C 1.0869(7) 0.9109(6) 1.0896(4)
H11C H 1.1048 0.9152 1.1254
C15C C 1.1391(6) 0.9830(6) 1.0554(3)
C16C C 1.2086(7) 1.0505(6) 1.0795(4)
H12C H 1.2199 1.0461 1.1158
C17C C 1.2629(7) 1.1252(7) 1.0515(4)
H13C H 1.3112 1.1681 1.0685
C18C C 1.2448(6) 1.1359(6) 0.9977(3)
C19C C 1.1752(6) 1.0671(6) 0.9724(3)
C20C C 1.1232(6) 0.9918(6) 1.0008(4)
H14C H 1.0773 0.9469 0.9832
C21C C 1.0904(8) 1.0230(7) 0.8910(4)
H15C H 1.0948 0.9737 0.8822
H16C H 1.0855 1.0488 0.8582
H17C H 1.0409 1.0062 0.9131
O1C O 0.4630(4) 0.3692(5) 1.0085(2)
O2C O 0.3425(4) 0.3295(4) 1.07914(19)
O3C O 0.8413(4) 0.6351(4) 1.1881(2)
O4C O 1.0003(4) 0.7893(4) 1.1650(2)
O5C O 1.2916(4) 1.2072(4) 0.9712(2)
O6C O 1.1649(4) 1.0829(4) 0.9199(2)
Zn2C Zn 0.22203(6) 0.28048(7) 1.10626(4)
O3B O 0.2062(6) 0.3649(4) 1.1452(2)
O3D O 0.3649(4) 0.2062(6) 0.8548(2)
O4B O 0.2110(6) 0.2107(4) 1.1683(2)
O4D O 0.2107(4) 0.2110(6) 0.8317(2)
O5_2 O 0.2072(4) 0.2916(4) 1.0288(2)
O5C_2 O 0.2916(4) 0.2072(4) 0.9712(2)
O6_2 O 0.0829(4) 0.1649(4) 1.0801(2)
O6C_2 O 0.1649(4) 0.0829(4) 0.9199(2)
Zn1_2 Zn 1.32423(8) 1.32423(8) 1.0000
Zn2_2 Zn 1.28048(7) 1.22203(6) 0.89374(4)
Zn2B Zn 0.94155(9) 0.71952(7) 1.22707(4)
Zn2C_2 Zn 1.22203(6) 1.28048(7) 1.10626(4)
Zn2D Zn 0.71952(7) 0.94155(9) 0.77293(4)
loop_
_geom_bond_atom_site_label_1
_geom_bond_atom_site_label_2
_geom_bond_site_symmetry_1
_geom_bond_site_symmetry_2
C1 H1 1_555 1_555
H2 C1 1_555 1_555
H3 C1 1_555 1_555
C2 C3 1_555 1_555
C3 C4 1_555 1_555
C4 H4 1_555 1_555
C5 C4 1_555 1_555
C6 C5 1_555 1_555
H5 C6 1_555 1_555
C7 C2 1_555 1_555
H6 C7 1_555 1_555
C8 C5 1_555 1_555
H7 C8 1_555 1_555
C9 C8 1_555 1_555
H8 C9 1_555 1_555
C10 C9 1_555 1_555
C11 C10 1_555 1_555
H9 C11 1_555 1_555
C12 C11 1_555 1_555
C13 C12 1_555 1_555
H10 C13 1_555 1_555
C14 C13 1_555 1_555
H11 C14 1_555 1_555
C15 C14 1_555 1_555
C16 C15 1_555 1_555
H12 C16 1_555 1_555
C17 C16 1_555 1_555
H13 C17 1_555 1_555
C18 C17 1_555 1_555
C19 C18 1_555 1_555
C20 C15 1_555 1_555
H14 C20 1_555 1_555
C21 H15 1_555 1_555
H16 C21 1_555 1_555
H17 C21 1_555 1_555
O1 C1 1_555 1_555
O2 C2 1_555 1_555
O3 C10 1_555 1_555
O4 C12 1_555 1_555
O5 C18 1_555 1_555
O6 C19 1_555 1_555
Zn1 O1 1_555 1_555
Zn2 O2 1_555 1_555
C1C H1C 1_555 1_555
H2C C1C 1_555 1_555
H3C C1C 1_555 1_555
C2C C3C 1_555 1_555
C3C C4C 1_555 1_555
C4C H4C 1_555 1_555
C5C C4C 1_555 1_555
C6C C5C 1_555 1_555
H5C C6C 1_555 1_555
C7C C2C 1_555 1_555
H6C C7C 1_555 1_555
C8C C5C 1_555 1_555
H7C C8C 1_555 1_555
C9C C8C 1_555 1_555
H8C C9C 1_555 1_555
C10C C9C 1_555 1_555
C11C C10C 1_555 1_555
H9C C11C 1_555 1_555
C12C C11C 1_555 1_555
C13C C12C 1_555 1_555
H10C C13C 1_555 1_555
C14C C13C 1_555 1_555
H11C C14C 1_555 1_555
C15C C14C 1_555 1_555
C16C C15C 1_555 1_555
H12C C16C 1_555 1_555
C17C C16C 1_555 1_555
H13C C17C 1_555 1_555
C18C C17C 1_555 1_555
C19C C18C 1_555 1_555
C20C C15C 1_555 1_555
H14C C20C 1_555 1_555
C21C H15C 1_555 1_555
H16C C21C 1_555 1_555
H17C C21C 1_555 1_555
O1C Zn1 1_555 1_555
O2C Zn1 1_555 1_555
O3C C10C 1_555 1_555
O4C C12C 1_555 1_555
O5C C18C 1_555 1_555
O6C C19C 1_555 1_555
Zn2C O2C 1_555 1_555
O3B Zn2C 1_555 1_555
O3D Zn2 1_555 1_555
O4B Zn2C 1_555 1_555
O4D Zn2 1_555 1_555
O5_2 Zn1 1_555 1_555
O5C_2 Zn1 1_555 1_555
O6_2 Zn2C 1_555 1_555
O6C_2 Zn2 1_555 1_555
Zn1_2 O5 1_555 1_555
Zn2_2 O5C 1_555 1_555
Zn2B O3C 1_555 1_555
Zn2C_2 O5 1_555 1_555
Zn2D O3 1_555 1_555
C3 O1 1_555 1_555
C6 C7 1_555 1_555
C19 C20 1_555 1_555
C21 O6 1_555 1_555
O2 Zn1 1_555 1_555
O4 Zn2D 1_555 1_555
O6 Zn2C_2 1_555 1_555
Zn2 O5C_2 1_555 1_555
C1C O1C 1_555 1_555
C2C O2C 1_555 1_555
C3C O1C 1_555 1_555
C6C C7C 1_555 1_555
C19C C20C 1_555 1_555
C21C O6C 1_555 1_555
O4C Zn2B 1_555 1_555
O5C Zn1_2 1_555 1_555
O6C Zn2_2 1_555 1_555
Zn2C O5_2 1_555 1_555

#END
