
#######################################################################
#
#                 Cambridge Crystallographic Data Centre
#                                CCDC 
#
#######################################################################
#
# If this CIF has been generated from an entry in the Cambridge 
# Structural Database, then it will include bibliographic, chemical, 
# crystal, experimental, refinement or atomic coordinate data resulting 
# from the CCDC's data processing and validation procedures.
#
#######################################################################

data_IBITEU
_chemical_formula_moiety         '(C43 H32 Cl3 F12 Mn1 N12 O4 1+)n'
_symmetry_cell_setting           monoclinic
_symmetry_space_group_name_H-M   'C 2/c'
_symmetry_Int_Tables_number      15
_space_group_name_Hall           '-C 2yc'
loop_
_symmetry_equiv_pos_site_id
_symmetry_equiv_pos_as_xyz
1 x,y,z
2 -x,y,1/2-z
3 1/2+x,1/2+y,z
4 1/2-x,1/2+y,1/2-z
5 -x,-y,-z
6 x,-y,1/2+z
7 1/2-x,1/2-y,-z
8 1/2+x,1/2-y,1/2+z
_cell_length_a                   26.122(3)
_cell_length_b                   12.7436(12)
_cell_length_c                   20.789(3)
_cell_angle_alpha                90
_cell_angle_beta                 122.125(2)
_cell_angle_gamma                90
_cell_volume                     5860.83
loop_
_atom_site_label
_atom_site_type_symbol
_atom_site_fract_x
_atom_site_fract_y
_atom_site_fract_z
Mn1 Mn 0.0000 0.0000 0.0000
N1 N 0.09505(16) 0.0170(3) 0.1051(2)
N2 N 0.19442(15) 0.0254(3) 0.1763(2)
N3 N 0.4390(2) -0.2027(3) 0.5391(2)
N4 N 0.48799(17) -0.3437(3) 0.5399(2)
N5 N -0.03775(15) 0.0799(3) 0.0641(2)
N6 N -0.08554(16) 0.1932(3) 0.0932(2)
C1 C 0.1467(2) -0.0153(4) 0.1141(3)
H1 H 0.1493 -0.0610 0.0811
C2 C 0.1119(2) 0.0828(4) 0.1642(3)
H2 H 0.0853 0.1185 0.1734
C3 C 0.1729(2) 0.0890(4) 0.2083(3)
H3 H 0.1955 0.1292 0.2519
C4 C 0.2584(2) 0.0068(4) 0.2030(3)
H4 H 0.2763 0.0711 0.1987
H5 H 0.2613 -0.0461 0.1715
C5 C 0.29266(19) -0.0295(4) 0.2850(3)
C6 C 0.2805(2) -0.1231(4) 0.3054(3)
C7 C 0.3104(2) -0.1576(4) 0.3788(3)
C8 C 0.3564(2) -0.0961(4) 0.4382(3)
C9 C 0.3686(2) -0.0037(4) 0.4169(3)
C10 C 0.3374(2) 0.0306(4) 0.3427(3)
C11 C 0.3894(3) -0.1307(5) 0.5200(3)
H6 H 0.4053 -0.0695 0.5525
H7 H 0.3610 -0.1649 0.5298
C12 C 0.4989(3) -0.1833(5) 0.5846(4)
H8 H 0.5167 -0.1209 0.6098
C13 C 0.5275(2) -0.2707(4) 0.5864(3)
H9 H 0.5692 -0.2800 0.6158
C14 C 0.4354(3) -0.2984(4) 0.5129(3)
H10 H 0.3989 -0.3307 0.4784
C15 C -0.0457(3) 0.0377(5) 0.1173(3)
H11 H -0.0330 -0.0291 0.1378
C16 C -0.0753(3) 0.1073(5) 0.1374(3)
H12 H -0.0860 0.0976 0.1731
C17 C -0.0628(2) 0.1740(4) 0.0510(3)
H13 H -0.0643 0.2212 0.0160
C18 C -0.1191(2) 0.2870(4) 0.0900(3)
H14 H -0.1095 0.3441 0.0673
H15 H -0.1068 0.3078 0.1411
C19 C -0.1872(2) 0.2676(4) 0.0437(3)
C20 C -0.2192(2) 0.2516(4) 0.0770(3)
C21 C -0.2188(2) 0.2664(4) -0.0337(3)
F1 F -0.19139(15) 0.2518(3) 0.15282(17)
F2 F -0.18959(15) 0.2810(3) -0.07126(18)
F3 F 0.35063(13) 0.1246(2) 0.32708(18)
F4 F 0.41146(15) 0.0581(3) 0.47042(18)
F5 F 0.29673(18) -0.2495(3) 0.3964(3)
F6 F 0.23807(14) -0.1869(2) 0.2517(2)
Mn1C Mn 0.5000 -0.5000 0.5000
Mn1B Mn -0.5000 0.5000 0.0000
Mn1C_2 Mn -0.5000 0.5000 -0.5000
N1D N -0.09505(16) -0.0170(3) -0.1051(2)
N2D N -0.19442(15) -0.0254(3) -0.1763(2)
N3D N -0.4390(2) 0.2027(3) -0.5391(2)
N4D N -0.48799(17) 0.3437(3) -0.5399(2)
N4C N 0.01201(17) 0.1563(3) -0.0399(2)
N4G N -0.01201(17) -0.1563(3) 0.0399(2)
N5F N -0.46225(15) 0.4201(3) -0.0641(2)
N5D N 0.03775(15) -0.0799(3) -0.0641(2)
N6F N -0.41446(16) 0.3068(3) -0.0932(2)
C1D C -0.1467(2) 0.0153(4) -0.1141(3)
H1D H -0.1493 0.0610 -0.0811
C2D C -0.1119(2) -0.0828(4) -0.1642(3)
H2D H -0.0853 -0.1185 -0.1734
C3D C -0.1729(2) -0.0890(4) -0.2083(3)
H3D H -0.1955 -0.1292 -0.2519
C4D C -0.2584(2) -0.0068(4) -0.2030(3)
H4D H -0.2763 -0.0711 -0.1987
H5D H -0.2613 0.0461 -0.1715
C5D C -0.29266(19) 0.0295(4) -0.2850(3)
C6D C -0.2805(2) 0.1231(4) -0.3054(3)
C7D C -0.3104(2) 0.1576(4) -0.3788(3)
C8D C -0.3564(2) 0.0961(4) -0.4382(3)
C9D C -0.3686(2) 0.0037(4) -0.4169(3)
C10D C -0.3374(2) -0.0306(4) -0.3427(3)
C11D C -0.3894(3) 0.1307(5) -0.5200(3)
H6D H -0.4053 0.0695 -0.5525
H7D H -0.3610 0.1649 -0.5298
C12D C -0.4989(3) 0.1833(5) -0.5846(4)
H8D H -0.5167 0.1209 -0.6098
C13D C -0.5275(2) 0.2707(4) -0.5864(3)
H9D H -0.5692 0.2800 -0.6158
C14D C -0.4354(3) 0.2984(4) -0.5129(3)
H10D H -0.3989 0.3307 -0.4784
C15F C -0.4543(3) 0.4623(5) -0.1173(3)
H11F H -0.4670 0.5291 -0.1378
C16F C -0.4247(3) 0.3927(5) -0.1374(3)
H12F H -0.4140 0.4024 -0.1731
C17F C -0.4372(2) 0.3260(4) -0.0510(3)
H13F H -0.4357 0.2788 -0.0160
C18F C -0.3809(2) 0.2130(4) -0.0900(3)
H14F H -0.3905 0.1559 -0.0673
H15F H -0.3932 0.1922 -0.1411
C19F C -0.3128(2) 0.2324(4) -0.0437(3)
C20F C -0.2808(2) 0.2484(4) -0.0770(3)
C21F C -0.2812(2) 0.2336(4) 0.0337(3)
F1F F -0.30861(15) 0.2482(3) -0.15282(17)
F2F F -0.31041(15) 0.2190(3) 0.07126(18)
F3D F -0.35063(13) -0.1246(2) -0.32708(18)
F4D F -0.41146(15) -0.0581(3) -0.47042(18)
F5D F -0.29673(18) 0.2495(3) -0.3964(3)
F6D F -0.23807(14) 0.1869(2) -0.2517(2)
Cl1 Cl 0.24027(17) 0.0482(3) -0.0010(2)
O1 O 0.2952(8) 0.0179(12) 0.0595(10)
O2 O 0.2288(8) 0.0089(11) -0.0692(11)
O3 O 0.2074(7) 0.0066(10) 0.0196(8)
O4 O 0.2432(9) 0.1468(18) -0.0057(12)
C22 C 0.1326(12) 0.231(2) 0.8247(15)
H16 H 0.1430 0.2831 0.7997
H17 H 0.1596 0.2374 0.8793
Cl2 Cl 0.1344(6) 0.1156(13) 0.7966(9)
Cl3 Cl 0.0620(9) 0.2401(18) 0.7992(11)
loop_
_geom_bond_atom_site_label_1
_geom_bond_atom_site_label_2
_geom_bond_site_symmetry_1
_geom_bond_site_symmetry_2
Mn1 N1 1_555 1_555
N1 C1 1_555 1_555
N2 C1 1_555 1_555
N3 C11 1_555 1_555
N4 C13 1_555 1_555
N5 Mn1 1_555 1_555
N6 C16 1_555 1_555
C1 H1 1_555 1_555
C2 N1 1_555 1_555
H2 C2 1_555 1_555
C3 N2 1_555 1_555
H3 C3 1_555 1_555
C4 N2 1_555 1_555
H4 C4 1_555 1_555
H5 C4 1_555 1_555
C5 C4 1_555 1_555
C6 C5 1_555 1_555
C7 C6 1_555 1_555
C8 C7 1_555 1_555
C9 C8 1_555 1_555
C10 C5 1_555 1_555
C11 C8 1_555 1_555
H6 C11 1_555 1_555
H7 C11 1_555 1_555
C12 N3 1_555 1_555
H8 C12 1_555 1_555
C13 C12 1_555 1_555
H9 C13 1_555 1_555
C14 N3 1_555 1_555
H10 C14 1_555 1_555
C15 N5 1_555 1_555
H11 C15 1_555 1_555
C16 C15 1_555 1_555
H12 C16 1_555 1_555
C17 N5 1_555 1_555
H13 C17 1_555 1_555
C18 N6 1_555 1_555
H14 C18 1_555 1_555
H15 C18 1_555 1_555
C19 C18 1_555 1_555
C20 C19 1_555 1_555
C21 C19 1_555 1_555
F1 C20 1_555 1_555
F2 C21 1_555 1_555
F3 C10 1_555 1_555
F4 C9 1_555 1_555
F5 C7 1_555 1_555
F6 C6 1_555 1_555
Cl1 O1 1_555 1_555
O2 Cl1 1_555 1_555
O3 Cl1 1_555 1_555
O4 Cl1 1_555 1_555
C22 H16 1_555 1_555
H17 C22 1_555 1_555
Cl2 C22 1_555 1_555
Cl3 C22 1_555 1_555
Mn1C N4 1_555 1_555
Mn1B N5F 1_555 1_555
Mn1C_2 N4D 1_555 1_555
N1D Mn1 1_555 1_555
N2D C1D 1_555 1_555
N3D C11D 1_555 1_555
N4D C13D 1_555 1_555
N4C Mn1 1_555 1_555
N4G Mn1 1_555 1_555
N5F C15F 1_555 1_555
N5D Mn1 1_555 1_555
N6F C16F 1_555 1_555
C1D N1D 1_555 1_555
H1D C1D 1_555 1_555
C2D N1D 1_555 1_555
H2D C2D 1_555 1_555
C3D N2D 1_555 1_555
H3D C3D 1_555 1_555
C4D N2D 1_555 1_555
H4D C4D 1_555 1_555
H5D C4D 1_555 1_555
C5D C4D 1_555 1_555
C6D C5D 1_555 1_555
C7D C6D 1_555 1_555
C8D C7D 1_555 1_555
C9D C8D 1_555 1_555
C10D C5D 1_555 1_555
C11D C8D 1_555 1_555
H6D C11D 1_555 1_555
H7D C11D 1_555 1_555
C12D N3D 1_555 1_555
H8D C12D 1_555 1_555
C13D C12D 1_555 1_555
H9D C13D 1_555 1_555
C14D N3D 1_555 1_555
H10D C14D 1_555 1_555
C15F H11F 1_555 1_555
C16F C15F 1_555 1_555
H12F C16F 1_555 1_555
C17F N5F 1_555 1_555
H13F C17F 1_555 1_555
C18F N6F 1_555 1_555
H14F C18F 1_555 1_555
H15F C18F 1_555 1_555
C19F C18F 1_555 1_555
C20F C21 1_555 1_555
C21F C20 1_555 1_555
F1F C20F 1_555 1_555
F2F C21F 1_555 1_555
F3D C10D 1_555 1_555
F4D C9D 1_555 1_555
F5D C7D 1_555 1_555
F6D C6D 1_555 1_555
N4 C14 1_555 1_555
N6 C17 1_555 1_555
C2 C3 1_555 1_555
C9 C10 1_555 1_555
N4D C14D 1_555 1_555
N6F C17F 1_555 1_555
C2D C3D 1_555 1_555
C9D C10D 1_555 1_555
C19F C20F 1_555 1_555
C19F C21F 1_555 1_555

#END
