
#######################################################################
#
#                 Cambridge Crystallographic Data Centre
#                                CCDC 
#
#######################################################################
#
# If this CIF has been generated from an entry in the Cambridge 
# Structural Database, then it will include bibliographic, chemical, 
# crystal, experimental, refinement or atomic coordinate data resulting 
# from the CCDC's data processing and validation procedures.
#
#######################################################################

data_MINCOD
_chemical_formula_moiety         '(C23 H17 O8 Tb1)n'
_symmetry_cell_setting           monoclinic
_symmetry_space_group_name_H-M   'C 2/c'
_symmetry_Int_Tables_number      15
_space_group_name_Hall           '-C 2yc'
loop_
_symmetry_equiv_pos_site_id
_symmetry_equiv_pos_as_xyz
1 x,y,z
2 -x,y,1/2-z
3 1/2+x,1/2+y,z
4 1/2-x,1/2+y,1/2-z
5 -x,-y,-z
6 x,-y,1/2+z
7 1/2-x,1/2-y,-z
8 1/2+x,1/2-y,1/2+z
_cell_length_a                   27.162(3)
_cell_length_b                   13.2751(16)
_cell_length_c                   27.128(2)
_cell_angle_alpha                90
_cell_angle_beta                 108.438(9)
_cell_angle_gamma                90
_cell_volume                     9279.63
loop_
_atom_site_label
_atom_site_type_symbol
_atom_site_fract_x
_atom_site_fract_y
_atom_site_fract_z
_atom_site_U_iso_or_equiv
_atom_site_thermal_displace_type
C1 C 0.1112(5) 0.4467(11) 0.1535(5) 0.0333 Uani
C2 C 0.1389(5) 0.4901(12) 0.2051(5) 0.0346 Uani
C3 C 0.1174(5) 0.4823(11) 0.2449(5) 0.0333 Uani
H1 H 0.0843 0.4512 0.2378 0.0400 Uiso
C4 C 0.1421(5) 0.5181(11) 0.2946(5) 0.0327 Uani
C5 C 0.1908(5) 0.5663(12) 0.3041(5) 0.0359 Uani
C6 C 0.2127(5) 0.5742(13) 0.2642(5) 0.0424 Uani
H2 H 0.2458 0.6046 0.2711 0.0510 Uiso
C7 C 0.1868(5) 0.5382(12) 0.2145(5) 0.0427 Uani
H3 H 0.2016 0.5462 0.1873 0.0520 Uiso
C8 C 0.3448(5) 0.7364(12) 0.4283(5) 0.0352 Uani
C9 C 0.2946(5) 0.6866(12) 0.4178(5) 0.0379 Uani
C10 C 0.2668(5) 0.6518(11) 0.3676(5) 0.0339 Uani
H4 H 0.2814 0.6599 0.3403 0.0410 Uiso
C11 C 0.2193(5) 0.6064(12) 0.3571(5) 0.0352 Uani
C12 C 0.1958(5) 0.5965(12) 0.3969(5) 0.0355 Uani
C13 C 0.2239(5) 0.6331(11) 0.4463(5) 0.0378 Uani
H5 H 0.2090 0.6279 0.4736 0.0460 Uiso
C14 C 0.2724(5) 0.6764(12) 0.4568(5) 0.0388 Uani
H6 H 0.2905 0.6993 0.4909 0.0470 Uiso
C15 C 0.0527(5) 0.4802(11) 0.4606(5) 0.0322 Uani
C16 C 0.0759(4) 0.4878(10) 0.4174(4) 0.0271 Uani
C17 C 0.1220(5) 0.5398(11) 0.4264(5) 0.0341 Uani
H7 H 0.1380 0.5699 0.4594 0.0400 Uiso
C18 C 0.1458(5) 0.5489(10) 0.3871(5) 0.0305 Uani
C19 C 0.1187(4) 0.5088(11) 0.3367(5) 0.0298 Uani
C20 C 0.0695(5) 0.4628(11) 0.3280(5) 0.0375 Uani
H8 H 0.0506 0.4392 0.2943 0.0450 Uiso
C21 C 0.0493(5) 0.4524(12) 0.3675(5) 0.0359 Uani
H9 H 0.0166 0.4204 0.3611 0.0430 Uiso
O1 O 0.0197(4) 0.2977(11) -0.0312(5) 0.0329 Uani
H10 H 0.0368 0.3376 -0.0458 0.0490 Uiso
C22 C -0.0325(5) 0.2938(14) -0.0569(6) 0.0337 Uani
H11 H -0.0503 0.3417 -0.0403 0.0410 Uiso
H12 H -0.0452 0.2254 -0.0529 0.0410 Uiso
C23 C -0.0475(8) 0.3181(17) -0.1141(6) 0.0423 Uani
H13 H -0.0753 0.3684 -0.1230 0.0640 Uiso
H14 H -0.0595 0.2568 -0.1344 0.0640 Uiso
H15 H -0.0173 0.3451 -0.1222 0.0640 Uiso
O2 O 0.0148(7) 0.2183(17) 0.0714(8) 0.0527 Uani
H16 H 0.0276 0.1596 0.0783 0.0790 Uiso
H17 H -0.0093 0.2263 0.0849 0.0790 Uiso
O3 O 0.1274(4) 0.4665(8) 0.1149(3) 0.0411 Uani
O4 O 0.0738(3) 0.3871(8) 0.1477(3) 0.0352 Uani
O5 O 0.0112(3) 0.4292(8) 0.4517(3) 0.0379 Uani
O6 O 0.0776(3) 0.5160(7) 0.5040(3) 0.0312 Uani
O7 O 0.3650(3) 0.7839(8) 0.4703(3) 0.0416 Uani
O8 O 0.3688(3) 0.7383(8) 0.3933(3) 0.0396 Uani
Tb1 Tb 0.06503(3) 0.35467(6) 0.05667(3) 0.0286 Uani
O5A O -0.0112(3) 0.4292(8) 0.0483(3) 0.0379 Uani
O6E O 0.0776(3) 0.4840(7) 0.0040(3) 0.0312 Uani
O7C O 0.1350(3) 0.2839(8) 0.0297(3) 0.0416 Uani
O8C O 0.1312(3) 0.2383(8) 0.1067(3) 0.0396 Uani
Tb1A Tb -0.06503(3) 0.35467(6) 0.44333(3) 0.0286 Uani
Tb1C Tb 0.43497(3) 0.85467(6) 0.44333(3) 0.0286 Uani
Tb1E Tb 0.06503(3) 0.64533(6) 0.55667(3) 0.0286 Uani
loop_
_atom_site_aniso_label
_atom_site_aniso_U_11
_atom_site_aniso_U_22
_atom_site_aniso_U_33
_atom_site_aniso_U_23
_atom_site_aniso_U_13
_atom_site_aniso_U_12
C1 0.030(6) 0.050(7) 0.023(5) 0.001(5) 0.013(5) 0.004(6)
C2 0.031(5) 0.053(6) 0.023(5) 0.001(5) 0.013(4) -0.005(5)
C3 0.029(5) 0.049(7) 0.027(5) -0.003(5) 0.016(4) -0.004(5)
C4 0.028(5) 0.051(7) 0.024(5) -0.002(5) 0.015(4) -0.003(5)
C5 0.028(5) 0.054(6) 0.031(5) -0.007(5) 0.017(4) -0.006(5)
C6 0.033(6) 0.070(8) 0.031(6) -0.007(6) 0.020(5) -0.013(6)
C7 0.033(6) 0.070(8) 0.032(6) -0.005(6) 0.020(5) -0.010(6)
C8 0.015(5) 0.057(7) 0.037(7) -0.005(6) 0.013(5) -0.009(5)
C9 0.031(5) 0.057(7) 0.032(5) -0.011(5) 0.019(5) -0.010(5)
C10 0.024(5) 0.058(7) 0.028(5) -0.007(5) 0.020(5) -0.010(5)
C11 0.027(5) 0.053(6) 0.031(5) -0.008(5) 0.017(4) -0.010(5)
C12 0.027(6) 0.055(7) 0.030(6) -0.005(5) 0.017(5) -0.009(5)
C13 0.030(6) 0.060(7) 0.030(6) -0.007(5) 0.019(5) -0.009(5)
C14 0.031(6) 0.061(7) 0.031(6) -0.008(6) 0.019(5) -0.011(6)
C15 0.022(6) 0.051(9) 0.026(7) -0.009(6) 0.011(5) -0.008(6)
C16 0.020(6) 0.046(8) 0.022(6) -0.004(6) 0.016(5) -0.003(6)
C17 0.032(7) 0.049(9) 0.023(6) -0.008(6) 0.011(5) -0.014(6)
C18 0.029(6) 0.045(8) 0.026(6) -0.003(6) 0.021(5) -0.009(6)
C19 0.024(6) 0.043(8) 0.026(6) 0.001(6) 0.013(5) -0.001(6)
C20 0.030(7) 0.064(10) 0.025(6) -0.012(7) 0.018(5) -0.010(7)
C21 0.017(6) 0.067(10) 0.026(7) -0.008(7) 0.010(5) -0.013(6)
O1 0.029(4) 0.036(6) 0.033(5) 0.000(4) 0.009(4) 0.000(4)
C22 0.030(5) 0.036(6) 0.033(5) -0.005(5) 0.007(4) -0.002(5)
C23 0.041(7) 0.043(7) 0.039(6) 0.003(6) 0.007(5) 0.000(6)
O2 0.046 0.06 0.053 0.009 0.017 -0.001
O3 0.043(5) 0.067(7) 0.019(4) -0.007(4) 0.018(4) -0.018(5)
O4 0.012(4) 0.073(7) 0.023(5) -0.017(5) 0.009(3) -0.012(4)
O5 0.032(5) 0.064(6) 0.026(4) -0.012(5) 0.021(4) -0.021(5)
O6 0.025(4) 0.055(6) 0.018(4) -0.006(4) 0.013(3) -0.005(4)
O7 0.032(5) 0.077(7) 0.023(5) -0.017(5) 0.019(4) -0.027(5)
O8 0.026(5) 0.073(7) 0.028(5) -0.007(5) 0.020(4) -0.013(5)
Tb1 0.0171(4) 0.0547(6) 0.0180(4) 0.0000(4) 0.0114(3) 0.0075(4)
O5A 0.032 0.064 0.026 0.012 0.021 0.021
O6E 0.025 0.055 0.018 0.006 0.013 0.005
O7C 0.032 0.077 0.023 0.017 0.019 0.027
O8C 0.026 0.073 0.028 0.007 0.02 0.013
Tb1A 0.0171 0.0547 0.018 0 0.0114 -0.0075
Tb1C 0.0171 0.0547 0.018 0 0.0114 -0.0075
Tb1E 0.0171 0.0547 0.018 0 0.0114 -0.0075
loop_
_geom_bond_atom_site_label_1
_geom_bond_atom_site_label_2
_geom_bond_site_symmetry_1
_geom_bond_site_symmetry_2
C1 C2 1_555 1_555
C2 C3 1_555 1_555
C3 H1 1_555 1_555
C4 C3 1_555 1_555
C5 C4 1_555 1_555
C6 C5 1_555 1_555
H2 C6 1_555 1_555
C7 C2 1_555 1_555
H3 C7 1_555 1_555
C8 C9 1_555 1_555
C9 C10 1_555 1_555
C10 H4 1_555 1_555
C11 C5 1_555 1_555
C12 C11 1_555 1_555
C13 C12 1_555 1_555
H5 C13 1_555 1_555
C14 C9 1_555 1_555
H6 C14 1_555 1_555
C15 C16 1_555 1_555
C16 C17 1_555 1_555
C17 H7 1_555 1_555
C18 C12 1_555 1_555
C19 C4 1_555 1_555
C20 C19 1_555 1_555
H8 C20 1_555 1_555
C21 C16 1_555 1_555
H9 C21 1_555 1_555
O1 H10 1_555 1_555
C22 O1 1_555 1_555
H11 C22 1_555 1_555
H12 C22 1_555 1_555
C23 C22 1_555 1_555
H13 C23 1_555 1_555
H14 C23 1_555 1_555
H15 C23 1_555 1_555
O2 H16 1_555 1_555
H17 O2 1_555 1_555
O3 C1 1_555 1_555
O4 C1 1_555 1_555
O5 C15 1_555 1_555
O6 C15 1_555 1_555
O7 C8 1_555 1_555
O8 C8 1_555 1_555
Tb1 O1 1_555 1_555
O5A Tb1 1_555 1_555
O6E Tb1 1_555 1_555
O7C Tb1 1_555 1_555
O8C Tb1 1_555 1_555
Tb1A O5 1_555 1_555
Tb1C O7 1_555 1_555
Tb1E O6 1_555 1_555
C6 C7 1_555 1_555
C10 C11 1_555 1_555
C13 C14 1_555 1_555
C17 C18 1_555 1_555
C18 C19 1_555 1_555
C20 C21 1_555 1_555
O2 Tb1 1_555 1_555
O3 Tb1 1_555 1_555
O4 Tb1 1_555 1_555
O8 Tb1C 1_555 1_555

#END
