
#######################################################################
#
#                 Cambridge Crystallographic Data Centre
#                                CCDC 
#
#######################################################################
#
# If this CIF has been generated from an entry in the Cambridge 
# Structural Database, then it will include bibliographic, chemical, 
# crystal, experimental, refinement or atomic coordinate data resulting 
# from the CCDC's data processing and validation procedures.
#
#######################################################################

data_MINCET
_chemical_formula_moiety         '(C25 H20 N1 O8 Tb1)n'
_symmetry_cell_setting           monoclinic
_symmetry_space_group_name_H-M   'C 2/c'
_symmetry_Int_Tables_number      15
_space_group_name_Hall           '-C 2yc'
loop_
_symmetry_equiv_pos_site_id
_symmetry_equiv_pos_as_xyz
1 x,y,z
2 -x,y,1/2-z
3 1/2+x,1/2+y,z
4 1/2-x,1/2+y,1/2-z
5 -x,-y,-z
6 x,-y,1/2+z
7 1/2-x,1/2-y,-z
8 1/2+x,1/2-y,1/2+z
_cell_length_a                   25.6621(2)
_cell_length_b                   16.1587(2)
_cell_length_c                   26.5745(2)
_cell_angle_alpha                90
_cell_angle_beta                 113.210(2)
_cell_angle_gamma                90
_cell_volume                     10127.7
loop_
_atom_site_label
_atom_site_type_symbol
_atom_site_fract_x
_atom_site_fract_y
_atom_site_fract_z
_atom_site_U_iso_or_equiv
_atom_site_thermal_displace_type
C1 C 0.1179(3) 0.9249(5) 0.1559(3) 0.0528 Uani
C2 C 0.1452(3) 0.9708(6) 0.2088(3) 0.0608 Uani
C3 C 0.1236(3) 0.9648(6) 0.2491(3) 0.0604 Uani
H1 H 0.0912 0.9311 0.2427 0.0720 Uiso
C4 C 0.1488(3) 1.0078(6) 0.2996(3) 0.0571 Uani
C5 C 0.1955(3) 1.0564(6) 0.3090(3) 0.0671 Uani
C6 C 0.2174(4) 1.0653(8) 0.2670(3) 0.0959 Uani
H2 H 0.2478 1.1023 0.2718 0.1150 Uiso
C7 C 0.1933(3) 1.0192(7) 0.2199(3) 0.0767 Uani
H3 H 0.2103 1.0204 0.1939 0.0920 Uiso
C8 C 0.0543(3) 0.9835(5) 0.4640(3) 0.0557 Uani
C9 C 0.0786(3) 0.9885(5) 0.4207(3) 0.0560 Uani
C10 C 0.1251(3) 1.0373(5) 0.4301(3) 0.0631 Uani
H4 H 0.1414 1.0668 0.4637 0.0760 Uiso
C11 C 0.1495(3) 1.0448(5) 0.3903(3) 0.0571 Uani
C12 C 0.1236(3) 1.0000(6) 0.3403(3) 0.0565 Uani
C13 C 0.0767(3) 0.9515(6) 0.3327(3) 0.0674 Uani
H5 H 0.0589 0.9232 0.2989 0.0810 Uiso
C14 C 0.0543(3) 0.9422(6) 0.3725(3) 0.0686 Uani
H6 H 0.0235 0.9056 0.3670 0.0820 Uiso
C15 C 0.3446(3) 1.2519(6) 0.4302(4) 0.0692 Uani
C16 C 0.2946(4) 1.1955(6) 0.4195(3) 0.0666 Uani
C17 C 0.2701(3) 1.1531(6) 0.3720(3) 0.0650 Uani
H7 H 0.2860 1.1582 0.3454 0.0780 Uiso
C18 C 0.2231(3) 1.1026(6) 0.3601(3) 0.0664 Uani
C19 C 0.1988(3) 1.0971(5) 0.4004(3) 0.0576 Uani
C20 C 0.2258(4) 1.1410(6) 0.4499(3) 0.0705 Uani
H8 H 0.2116 1.1359 0.4779 0.0850 Uiso
C21 C 0.2709(4) 1.1895(6) 0.4586(3) 0.0737 Uani
H9 H 0.2870 1.2202 0.4917 0.0890 Uiso
O1 O 0.1371(2) 0.9334(5) 0.1191(2) 0.0796 Uani
O2 O 0.0756(2) 0.8805(4) 0.1476(2) 0.0624 Uani
O3 O 0.0188(2) 0.9286(4) 0.4586(2) 0.0643 Uani
O4 O 0.0732(2) 1.0312(4) 0.5031(2) 0.0678 Uani
O5 O 0.3573(2) 1.3044(4) 0.4681(2) 0.0661 Uani
O6 O 0.3705(3) 1.2459(4) 0.3980(2) 0.0840 Uani
O7 O 0.0041(3) 0.7523(5) 0.0629(3) 0.1000 Uani
H10 H -0.0080 0.7635 0.0903 0.1500 Uiso
H11 H -0.0273 0.7453 0.0312 0.1500 Uiso
Tb1 Tb 0.062938(18) 0.85610(3) 0.052939(18) 0.0523 Uani
O8 O 0.0172(5) 0.8078(8) -0.0352(4) 0.1268 Uani
C22 C -0.0024(4) 0.8327(5) -0.0880(5) 0.1339 Uani
C23 C -0.0535(5) 0.8879(8) -0.1105(6) 0.1402 Uani
H12 H -0.0745 0.8756 -0.1494 0.2110 Uiso
H13 H -0.0413 0.9458 -0.1062 0.2110 Uiso
H14 H -0.0779 0.8781 -0.0906 0.2110 Uiso
C24 C 0.0738(5) 0.7537(8) -0.0961(6) 0.1344 Uani
H15 H 0.0634 0.7101 -0.0762 0.2020 Uiso
H16 H 0.1051 0.7865 -0.0703 0.2020 Uiso
H17 H 0.0856 0.7287 -0.1235 0.2020 Uiso
N1 N 0.0233(4) 0.8093(6) -0.1244(4) 0.1367 Uani
C25 C -0.0058(7) 0.8437(10) -0.1815(4) 0.1376 Uani
H18 H -0.0469 0.8428 -0.1921 0.2070 Uiso
H19 H 0.0040 0.8099 -0.2071 0.2070 Uiso
H20 H 0.0067 0.9008 -0.1824 0.2070 Uiso
O3A O -0.0188(2) 0.9286(4) 0.0414(2) 0.0643 Uani
O4E O 0.0732(2) 0.9688(4) 0.0031(2) 0.0678 Uani
O5C O 0.1427(2) 0.8044(4) 0.0319(2) 0.0661 Uani
O6C O 0.1295(3) 0.7459(4) 0.1020(2) 0.0840 Uani
Tb1A Tb -0.062938(18) 0.85610(3) 0.447061(18) 0.0523 Uani
Tb1C Tb 0.437062(18) 1.35610(3) 0.447061(18) 0.0523 Uani
Tb1E Tb 0.062938(18) 1.14390(3) 0.552939(18) 0.0523 Uani
loop_
_atom_site_aniso_label
_atom_site_aniso_U_11
_atom_site_aniso_U_22
_atom_site_aniso_U_33
_atom_site_aniso_U_23
_atom_site_aniso_U_13
_atom_site_aniso_U_12
C1 0.034(4) 0.076(6) 0.049(4) 0.003(4) 0.017(3) 0.009(4)
C2 0.041(4) 0.106(7) 0.044(4) -0.010(4) 0.026(4) -0.011(4)
C3 0.046(4) 0.092(7) 0.060(5) -0.010(4) 0.039(4) -0.022(4)
C4 0.052(4) 0.077(6) 0.060(4) -0.023(4) 0.041(4) -0.022(4)
C5 0.065(5) 0.084(6) 0.079(6) -0.016(5) 0.057(5) -0.030(5)
C6 0.072(6) 0.181(12) 0.056(5) -0.039(6) 0.048(5) -0.062(7)
C7 0.057(5) 0.133(9) 0.058(5) -0.011(5) 0.042(4) -0.033(5)
C8 0.041(4) 0.059(5) 0.081(5) -0.041(5) 0.039(4) -0.035(4)
C9 0.043(4) 0.082(6) 0.066(4) -0.024(4) 0.046(4) -0.033(4)
C10 0.057(5) 0.079(6) 0.066(5) -0.022(4) 0.038(4) -0.026(4)
C11 0.056(5) 0.076(6) 0.064(5) -0.024(4) 0.050(4) -0.037(4)
C12 0.049(4) 0.080(6) 0.062(4) -0.013(4) 0.045(4) -0.027(4)
C13 0.065(5) 0.089(7) 0.070(5) -0.031(5) 0.050(4) -0.038(5)
C14 0.050(5) 0.095(7) 0.083(6) -0.026(5) 0.050(4) -0.041(5)
C15 0.049(5) 0.075(7) 0.097(6) -0.010(5) 0.043(5) -0.039(5)
C16 0.074(6) 0.076(6) 0.063(5) -0.028(5) 0.041(5) -0.038(5)
C17 0.062(5) 0.086(7) 0.071(5) -0.020(5) 0.052(4) -0.034(5)
C18 0.062(5) 0.098(7) 0.062(5) -0.028(5) 0.049(4) -0.036(5)
C19 0.047(4) 0.079(6) 0.063(5) -0.013(4) 0.039(4) -0.031(4)
C20 0.076(6) 0.088(7) 0.071(5) -0.013(5) 0.054(5) -0.041(5)
C21 0.066(5) 0.101(7) 0.078(5) -0.034(5) 0.054(5) -0.057(5)
O1 0.046(3) 0.152(6) 0.054(3) -0.015(3) 0.034(3) -0.021(4)
O2 0.036(3) 0.095(5) 0.067(3) -0.010(3) 0.032(3) -0.002(3)
O3 0.044(3) 0.086(4) 0.077(3) -0.022(3) 0.039(3) -0.033(3)
O4 0.065(3) 0.082(4) 0.081(4) -0.017(3) 0.055(3) -0.039(3)
O5 0.053(3) 0.083(4) 0.087(4) -0.025(3) 0.054(3) -0.043(3)
O6 0.083(4) 0.097(5) 0.107(4) -0.053(4) 0.075(4) -0.054(4)
O7 0.066(4) 0.127(7) 0.114(5) -0.012(4) 0.043(4) 0.011(4)
Tb1 0.0478(3) 0.0600(3) 0.0645(3) 0.0064(2) 0.0386(2) 0.0236(2)
O8 0.125 0.128 0.134 -0.003 0.058 0.003
C22 0.134 0.133 0.137 -0.002 0.056 0
C23 0.137 0.136 0.142 -0.001 0.049 0.003
C24 0.136 0.135 0.134 -0.006 0.055 0
N1 0.137 0.137 0.137 -0.003 0.055 -0.001
C25 0.141 0.138 0.136 -0.001 0.057 -0.002
O3A 0.044 0.086 0.077 0.022 0.039 0.033
O4E 0.065 0.082 0.081 0.017 0.055 0.039
O5C 0.053 0.083 0.087 0.025 0.054 0.043
O6C 0.083 0.097 0.107 0.053 0.075 0.054
Tb1A 0.0478 0.06 0.0645 -0.0064 0.0386 -0.0236
Tb1C 0.0478 0.06 0.0645 -0.0064 0.0386 -0.0236
Tb1E 0.0478 0.06 0.0645 -0.0064 0.0386 -0.0236
loop_
_geom_bond_atom_site_label_1
_geom_bond_atom_site_label_2
_geom_bond_site_symmetry_1
_geom_bond_site_symmetry_2
C1 C2 1_555 1_555
C2 C3 1_555 1_555
C3 H1 1_555 1_555
C4 C3 1_555 1_555
C5 C4 1_555 1_555
C6 C5 1_555 1_555
H2 C6 1_555 1_555
C7 C2 1_555 1_555
H3 C7 1_555 1_555
C8 C9 1_555 1_555
C9 C10 1_555 1_555
C10 H4 1_555 1_555
C11 C10 1_555 1_555
C12 C4 1_555 1_555
C13 C12 1_555 1_555
H5 C13 1_555 1_555
C14 C9 1_555 1_555
H6 C14 1_555 1_555
C15 C16 1_555 1_555
C16 C17 1_555 1_555
C17 H7 1_555 1_555
C18 C5 1_555 1_555
C19 C11 1_555 1_555
C20 C19 1_555 1_555
H8 C20 1_555 1_555
C21 C16 1_555 1_555
H9 C21 1_555 1_555
O1 C1 1_555 1_555
O2 C1 1_555 1_555
O3 C8 1_555 1_555
O4 C8 1_555 1_555
O5 C15 1_555 1_555
O6 C15 1_555 1_555
O7 H10 1_555 1_555
H11 O7 1_555 1_555
Tb1 O1 1_555 1_555
O8 Tb1 1_555 1_555
C22 O8 1_555 1_555
C23 C22 1_555 1_555
H12 C23 1_555 1_555
H13 C23 1_555 1_555
H14 C23 1_555 1_555
C24 H15 1_555 1_555
H16 C24 1_555 1_555
H17 C24 1_555 1_555
N1 C22 1_555 1_555
C25 N1 1_555 1_555
H18 C25 1_555 1_555
H19 C25 1_555 1_555
H20 C25 1_555 1_555
O3A Tb1 1_555 1_555
O4E Tb1 1_555 1_555
O5C Tb1 1_555 1_555
O6C Tb1 1_555 1_555
Tb1A O3 1_555 1_555
Tb1C O5 1_555 1_555
Tb1E O4 1_555 1_555
C6 C7 1_555 1_555
C11 C12 1_555 1_555
C13 C14 1_555 1_555
C17 C18 1_555 1_555
C18 C19 1_555 1_555
C20 C21 1_555 1_555
O2 Tb1 1_555 1_555
O6 Tb1C 1_555 1_555
O7 Tb1 1_555 1_555
C24 N1 1_555 1_555

#END
