
#######################################################################
#
#                 Cambridge Crystallographic Data Centre
#                                CCDC 
#
#######################################################################
#
# If this CIF has been generated from an entry in the Cambridge 
# Structural Database, then it will include bibliographic, chemical, 
# crystal, experimental, refinement or atomic coordinate data resulting 
# from the CCDC's data processing and validation procedures.
#
#######################################################################

data_MINCUJ
_chemical_formula_moiety         '(C24 H19 O8 Tb1)n'
_symmetry_cell_setting           monoclinic
_symmetry_space_group_name_H-M   'C 2/c'
_symmetry_Int_Tables_number      15
_space_group_name_Hall           '-C 2yc'
loop_
_symmetry_equiv_pos_site_id
_symmetry_equiv_pos_as_xyz
1 x,y,z
2 -x,y,1/2-z
3 1/2+x,1/2+y,z
4 1/2-x,1/2+y,1/2-z
5 -x,-y,-z
6 x,-y,1/2+z
7 1/2-x,1/2-y,-z
8 1/2+x,1/2-y,1/2+z
_cell_length_a                   25.9498(2)
_cell_length_b                   15.6298(2)
_cell_length_c                   26.8239(2)
_cell_angle_alpha                90
_cell_angle_beta                 114.532(2)
_cell_angle_gamma                90
_cell_volume                     9897.41
loop_
_atom_site_label
_atom_site_type_symbol
_atom_site_fract_x
_atom_site_fract_y
_atom_site_fract_z
_atom_site_U_iso_or_equiv
_atom_site_thermal_displace_type
C1 C 0.1126(3) 0.0675(6) 0.1544(3) 0.0615 Uani
C2 C 0.1403(3) 0.0235(6) 0.2061(3) 0.0711 Uani
C3 C 0.1216(3) 0.0313(6) 0.2476(3) 0.0676 Uani
H1 H 0.0903 0.0678 0.2415 0.0810 Uiso
C4 C 0.1462(3) -0.0114(6) 0.2972(3) 0.0635 Uani
C5 C 0.1940(3) -0.0627(7) 0.3084(3) 0.0759 Uani
C6 C 0.2130(4) -0.0714(8) 0.2662(3) 0.1031 Uani
H2 H 0.2441 -0.1083 0.2720 0.1240 Uiso
C7 C 0.1887(4) -0.0290(8) 0.2177(3) 0.1071 Uani
H3 H 0.2041 -0.0345 0.1913 0.1280 Uiso
C8 C 0.0529(3) 0.0110(6) 0.4580(3) 0.0611 Uani
C9 C 0.0775(3) 0.0074(6) 0.4166(3) 0.0619 Uani
C10 C 0.1247(3) -0.0415(6) 0.4280(3) 0.0670 Uani
H4 H 0.1413 -0.0713 0.4618 0.0810 Uiso
C11 C 0.1493(3) -0.0480(6) 0.3889(3) 0.0594 Uani
C12 C 0.1225(3) -0.0055(6) 0.3387(3) 0.0638 Uani
C13 C 0.0736(3) 0.0438(7) 0.3289(3) 0.0806 Uani
H5 H 0.0549 0.0716 0.2945 0.0960 Uiso
C14 C 0.0520(3) 0.0527(6) 0.3681(3) 0.0728 Uani
H6 H 0.0205 0.0890 0.3618 0.0870 Uiso
C15 C 0.3485(4) -0.2495(7) 0.4330(4) 0.0772 Uani
C16 C 0.2975(3) -0.1956(6) 0.4216(3) 0.0677 Uani
C17 C 0.2706(4) -0.1548(6) 0.3729(3) 0.0763 Uani
H7 H 0.2858 -0.1590 0.3463 0.0910 Uiso
C18 C 0.2220(3) -0.1076(6) 0.3606(3) 0.0651 Uani
C19 C 0.2002(3) -0.0982(6) 0.4009(3) 0.0610 Uani
C20 C 0.2302(4) -0.1391(7) 0.4512(3) 0.0807 Uani
H8 H 0.2164 -0.1331 0.4788 0.0970 Uiso
C21 C 0.2771(3) -0.1861(6) 0.4631(3) 0.0695 Uani
H9 H 0.2960 -0.2122 0.4980 0.0830 Uiso
C22 C 0.0016(6) 0.2011(10) -0.0899(6) 0.1466 Uani
H10 H 0.0416 0.1898 -0.0827 0.1760 Uiso
H11 H -0.0062 0.2620 -0.1006 0.1760 Uiso
C23 C -0.0365(7) 0.1454(11) -0.1388(6) 0.1569 Uani
H12 H -0.0767 0.1621 -0.1509 0.1880 Uiso
H13 H -0.0326 0.0843 -0.1281 0.1880 Uiso
C24 C -0.0171(7) 0.1599(11) -0.1859(6) 0.1709 Uani
H14 H -0.0465 0.1916 -0.2158 0.2570 Uiso
H15 H -0.0109 0.1045 -0.1996 0.2570 Uiso
H16 H 0.0182 0.1928 -0.1720 0.2570 Uiso
O1 O 0.1260(3) 0.0474(4) 0.1140(2) 0.0748 Uani
O2 O 0.0763(2) 0.1255(4) 0.1473(2) 0.0644 Uani
O3 O 0.0164(2) 0.0678(4) 0.45288(19) 0.0734 Uani
O4 O 0.0729(2) -0.0368(4) 0.4983(2) 0.0736 Uani
O5 O 0.3731(3) -0.2862(5) 0.4766(2) 0.0946 Uani
O6 O 0.3688(3) -0.2553(6) 0.3978(2) 0.1229 Uani
O7 O -0.0053(4) 0.1879(6) -0.0395(3) 0.1309 Uani
H17 H -0.0282 0.1473 -0.0451 0.1960 Uiso
O8 O 0.0075(3) 0.2607(5) 0.0626(3) 0.1220 Uani
H18 H -0.0284 0.2588 0.0462 0.1830 Uiso
H19 H 0.0171 0.2809 0.0947 0.1830 Uiso
Tb1 Tb 0.058923(19) 0.14322(4) 0.050970(17) 0.0591 Uani
O3A O -0.0164(2) 0.0678(4) 0.04712(19) 0.0734 Uani
O4E O 0.0729(2) 0.0368(4) -0.0017(2) 0.0736 Uani
O5C O 0.1269(3) 0.2138(5) 0.0234(2) 0.0946 Uani
O6C O 0.1312(3) 0.2447(6) 0.1022(2) 0.1229 Uani
Tb1A Tb -0.058923(19) 0.14322(4) 0.449030(17) 0.0591 Uani
Tb1C Tb 0.441077(19) -0.35678(4) 0.449030(17) 0.0591 Uani
Tb1E Tb 0.058923(19) -0.14322(4) 0.550970(17) 0.0591 Uani
loop_
_atom_site_aniso_label
_atom_site_aniso_U_11
_atom_site_aniso_U_22
_atom_site_aniso_U_33
_atom_site_aniso_U_23
_atom_site_aniso_U_13
_atom_site_aniso_U_12
C1 0.056(5) 0.105(7) 0.028(4) -0.003(4) 0.022(4) 0.011(5)
C2 0.064(5) 0.118(9) 0.043(4) 0.016(5) 0.034(4) 0.042(5)
C3 0.058(5) 0.109(8) 0.052(4) 0.021(5) 0.039(4) 0.033(5)
C4 0.056(5) 0.101(7) 0.048(4) 0.008(5) 0.036(4) 0.021(5)
C5 0.062(5) 0.131(8) 0.048(4) 0.015(5) 0.036(4) 0.037(6)
C6 0.096(7) 0.177(11) 0.055(5) 0.046(6) 0.050(5) 0.105(8)
C7 0.103(7) 0.182(13) 0.058(5) 0.037(6) 0.055(6) 0.071(8)
C8 0.051(5) 0.102(7) 0.032(4) 0.024(5) 0.019(4) 0.039(5)
C9 0.057(5) 0.095(6) 0.052(4) 0.021(5) 0.041(4) 0.041(5)
C10 0.057(5) 0.102(7) 0.054(4) 0.005(5) 0.035(4) 0.022(5)
C11 0.051(5) 0.092(6) 0.052(4) 0.008(4) 0.038(4) 0.024(5)
C12 0.057(5) 0.109(7) 0.041(4) 0.020(5) 0.036(4) 0.035(5)
C13 0.074(6) 0.138(9) 0.046(4) 0.026(5) 0.041(4) 0.052(6)
C14 0.064(5) 0.118(8) 0.054(4) 0.040(5) 0.042(4) 0.052(5)
C15 0.064(6) 0.116(8) 0.074(6) 0.037(6) 0.051(5) 0.054(6)
C16 0.051(5) 0.102(7) 0.061(5) 0.007(5) 0.034(4) 0.026(5)
C17 0.082(6) 0.112(8) 0.057(5) 0.027(5) 0.051(5) 0.055(6)
C18 0.062(5) 0.095(7) 0.050(4) 0.010(4) 0.035(4) 0.035(5)
C19 0.051(5) 0.093(7) 0.050(4) 0.013(4) 0.032(4) 0.028(5)
C20 0.076(6) 0.125(8) 0.070(5) 0.036(6) 0.059(5) 0.056(6)
C21 0.068(5) 0.108(7) 0.051(4) 0.021(5) 0.043(4) 0.040(5)
C22 0.149(4) 0.150(4) 0.134(3) 0.009(3) 0.052(3) -0.002(3)
C23 0.160(4) 0.160(4) 0.142(4) -0.002(3) 0.054(3) -0.002(4)
C24 0.179(6) 0.174(6) 0.157(5) -0.001(4) 0.067(4) -0.004(4)
O1 0.078(2) 0.089(2) 0.068(2) -0.006(1) 0.041(1) 0.005(1)
O2 0.067(2) 0.081(2) 0.060(1) -0.003(1) 0.041(1) -0.004(1)
O3 0.069(4) 0.114(5) 0.053(3) 0.030(3) 0.041(3) 0.049(4)
O4 0.063(3) 0.117(5) 0.066(3) 0.019(3) 0.052(3) 0.032(4)
O5 0.098(5) 0.149(6) 0.066(4) 0.035(4) 0.063(4) 0.080(5)
O6 0.130(6) 0.201(8) 0.072(4) 0.066(5) 0.076(4) 0.121(6)
O7 0.132(3) 0.140(3) 0.112(2) 0.017(2) 0.042(2) 0.004(3)
O8 0.122(4) 0.119(3) 0.123(3) 0.009(3) 0.049(3) 0.018(3)
Tb1 0.0513(3) 0.0944(4) 0.0449(3) -0.0071(3) 0.0331(2) -0.0225(3)
O3A 0.069 0.114 0.053 -0.03 0.041 -0.049
O4E 0.063 0.117 0.066 -0.019 0.052 -0.032
O5C 0.098 0.149 0.066 -0.035 0.063 -0.08
O6C 0.13 0.201 0.072 -0.066 0.076 -0.121
Tb1A 0.0513 0.0944 0.0449 0.0071 0.0331 0.0225
Tb1C 0.0513 0.0944 0.0449 0.0071 0.0331 0.0225
Tb1E 0.0513 0.0944 0.0449 0.0071 0.0331 0.0225
loop_
_geom_bond_atom_site_label_1
_geom_bond_atom_site_label_2
_geom_bond_site_symmetry_1
_geom_bond_site_symmetry_2
C1 C2 1_555 1_555
C2 C3 1_555 1_555
C3 H1 1_555 1_555
C4 C3 1_555 1_555
C5 C4 1_555 1_555
C6 C5 1_555 1_555
H2 C6 1_555 1_555
C7 C2 1_555 1_555
H3 C7 1_555 1_555
C8 C9 1_555 1_555
C9 C10 1_555 1_555
C10 H4 1_555 1_555
C11 C10 1_555 1_555
C12 C4 1_555 1_555
C13 C12 1_555 1_555
H5 C13 1_555 1_555
C14 C9 1_555 1_555
H6 C14 1_555 1_555
C15 C16 1_555 1_555
C16 C17 1_555 1_555
C17 H7 1_555 1_555
C18 C5 1_555 1_555
C19 C11 1_555 1_555
C20 C19 1_555 1_555
H8 C20 1_555 1_555
C21 C16 1_555 1_555
H9 C21 1_555 1_555
C22 H10 1_555 1_555
H11 C22 1_555 1_555
C23 C22 1_555 1_555
H12 C23 1_555 1_555
H13 C23 1_555 1_555
C24 C23 1_555 1_555
H14 C24 1_555 1_555
H15 C24 1_555 1_555
H16 C24 1_555 1_555
O1 C1 1_555 1_555
O2 C1 1_555 1_555
O3 C8 1_555 1_555
O4 C8 1_555 1_555
O5 C15 1_555 1_555
O6 C15 1_555 1_555
O7 C22 1_555 1_555
H17 O7 1_555 1_555
O8 H18 1_555 1_555
H19 O8 1_555 1_555
Tb1 O1 1_555 1_555
O3A Tb1 1_555 1_555
O4E Tb1 1_555 1_555
O5C Tb1 1_555 1_555
O6C Tb1 1_555 1_555
Tb1A O3 1_555 1_555
Tb1C O5 1_555 1_555
Tb1E O4 1_555 1_555
C6 C7 1_555 1_555
C11 C12 1_555 1_555
C13 C14 1_555 1_555
C17 C18 1_555 1_555
C18 C19 1_555 1_555
C20 C21 1_555 1_555
O2 Tb1 1_555 1_555
O6 Tb1C 1_555 1_555
O7 Tb1 1_555 1_555
O8 Tb1 1_555 1_555

#END
