
#######################################################################
#
#                 Cambridge Crystallographic Data Centre
#                                CCDC 
#
#######################################################################
#
# If this CIF has been generated from an entry in the Cambridge 
# Structural Database, then it will include bibliographic, chemical, 
# crystal, experimental, refinement or atomic coordinate data resulting 
# from the CCDC's data processing and validation procedures.
#
#######################################################################

data_MINDAQ
_chemical_formula_moiety         '(C25 H21 O8 Tb1)n'
_symmetry_cell_setting           monoclinic
_symmetry_space_group_name_H-M   'C 2/c'
_symmetry_Int_Tables_number      15
_space_group_name_Hall           '-C 2yc'
loop_
_symmetry_equiv_pos_site_id
_symmetry_equiv_pos_as_xyz
1 x,y,z
2 -x,y,1/2-z
3 1/2+x,1/2+y,z
4 1/2-x,1/2+y,1/2-z
5 -x,-y,-z
6 x,-y,1/2+z
7 1/2-x,1/2-y,-z
8 1/2+x,1/2-y,1/2+z
_cell_length_a                   26.8247(8)
_cell_length_b                   14.1562(5)
_cell_length_c                   27.3046(10)
_cell_angle_alpha                90
_cell_angle_beta                 112.393(4)
_cell_angle_gamma                90
_cell_volume                     9586.67
loop_
_atom_site_label
_atom_site_type_symbol
_atom_site_fract_x
_atom_site_fract_y
_atom_site_fract_z
_atom_site_U_iso_or_equiv
_atom_site_thermal_displace_type
C1 C 0.0170(9) 0.2553(16) -0.0983(8) 0.0885 Uani
O1 O 0.0302(5) 0.2914(10) 0.0775(6) 0.0412 Uani
H1 H -0.0033 0.3056 0.0678 0.0620 Uiso
H2 H 0.0490 0.3273 0.1029 0.0620 Uiso
O2 O 0.0004(7) 0.207(2) -0.0253(8) 0.0851 Uani
H3 H -0.0268 0.1957 -0.0183 0.1280 Uiso
C2 C 0.0004(9) 0.2837(15) -0.0568(9) 0.0835 Uani
H4 H 0.0252 0.3329 -0.0350 0.1000 Uiso
H5 H -0.0363 0.3111 -0.0721 0.1000 Uiso
H6 H 0.0512 0.2239 -0.0864 0.1000 Uiso
H7 H 0.0208 0.3150 -0.1188 0.1000 Uiso
C3 C -0.0236(9) 0.1949(18) -0.1391(9) 0.0869 Uani
H8 H -0.0206 0.1300 -0.1248 0.1040 Uiso
H9 H -0.0600 0.2186 -0.1442 0.1040 Uiso
C4 C -0.0197(12) 0.190(2) -0.1918(11) 0.1062 Uani
H10 H -0.0480 0.1480 -0.2150 0.1600 Uiso
H11 H 0.0157 0.1647 -0.1878 0.1600 Uiso
H12 H -0.0243 0.2530 -0.2074 0.1600 Uiso
C5 C 0.1047(3) 0.0499(7) 0.1531(3) 0.0374 Uani
C6 C 0.1311(3) 0.0018(7) 0.2037(3) 0.0385 Uani
C7 C 0.1138(3) 0.0181(7) 0.2451(3) 0.0358 Uani
H13 H 0.0841 0.0594 0.2393 0.0430 Uiso
C8 C 0.1384(3) -0.0239(7) 0.2946(3) 0.0370 Uani
C9 C 0.1842(3) -0.0827(7) 0.3036(3) 0.0384 Uani
C10 C 0.2002(4) -0.1005(9) 0.2611(4) 0.0575 Uani
H14 H 0.2299 -0.1413 0.2664 0.0690 Uiso
C11 C 0.1741(4) -0.0609(8) 0.2124(4) 0.0542 Uani
H15 H 0.1853 -0.0759 0.1842 0.0650 Uiso
C12 C 0.0537(3) 0.0133(6) 0.4588(3) 0.0311 Uani
C13 C 0.0761(3) 0.0059(7) 0.4161(3) 0.0342 Uani
C14 C 0.1221(3) -0.0458(6) 0.4254(3) 0.0355 Uani
H16 H 0.1389 -0.0770 0.4584 0.0420 Uiso
C15 C 0.1450(3) -0.0536(6) 0.3872(3) 0.0359 Uani
C16 C 0.1178(3) -0.0108(7) 0.3369(3) 0.0359 Uani
C17 C 0.0709(3) 0.0414(7) 0.3285(3) 0.0454 Uani
H17 H 0.0527 0.0710 0.2952 0.0540 Uiso
C18 C 0.0503(3) 0.0507(7) 0.3677(3) 0.0387 Uani
H18 H 0.0189 0.0875 0.3616 0.0460 Uiso
C19 C 0.3449(3) -0.2498(7) 0.4290(4) 0.0419 Uani
C20 C 0.2935(3) -0.1998(7) 0.4184(3) 0.0392 Uani
C21 C 0.2629(3) -0.1684(7) 0.3683(3) 0.0375 Uani
H19 H 0.2754 -0.1794 0.3406 0.0450 Uiso
C22 C 0.2142(3) -0.1210(7) 0.3566(4) 0.0378 Uani
C23 C 0.1958(3) -0.1046(7) 0.3979(3) 0.0371 Uani
C24 C 0.2271(4) -0.1375(7) 0.4488(4) 0.0442 Uani
H20 H 0.2145 -0.1288 0.4766 0.0530 Uiso
C25 C 0.2757(3) -0.1821(7) 0.4595(4) 0.0413 Uani
H21 H 0.2971 -0.2008 0.4947 0.0500 Uiso
O3 O 0.1134(2) 0.0208(5) 0.1123(2) 0.0482 Uani
O4 O 0.0748(2) 0.1206(4) 0.1488(2) 0.0329 Uani
O5 O 0.0156(2) 0.0698(4) 0.4519(2) 0.0379 Uani
O6 O 0.0741(2) -0.0368(4) 0.4990(2) 0.0387 Uani
O7 O 0.3765(2) -0.2692(5) 0.4751(2) 0.0499 Uani
O8 O 0.3573(3) -0.2746(6) 0.3901(2) 0.0623 Uani
Tb1 Tb 0.061337(16) 0.14527(3) 0.055227(17) 0.0287 Uani
O5A O -0.0156(2) 0.0698(4) 0.0481(2) 0.0379 Uani
O6E O 0.0741(2) 0.0368(4) -0.0010(2) 0.0387 Uani
O7C O 0.1235(2) 0.2308(5) 0.0249(2) 0.0499 Uani
O8C O 0.1427(3) 0.2254(6) 0.1099(2) 0.0623 Uani
Tb1A Tb -0.061337(16) 0.14527(3) 0.444773(17) 0.0287 Uani
Tb1C Tb 0.438663(16) -0.35473(3) 0.444773(17) 0.0287 Uani
Tb1E Tb 0.061337(16) -0.14527(3) 0.555227(17) 0.0287 Uani
loop_
_atom_site_aniso_label
_atom_site_aniso_U_11
_atom_site_aniso_U_22
_atom_site_aniso_U_33
_atom_site_aniso_U_23
_atom_site_aniso_U_13
_atom_site_aniso_U_12
C1 0.086(6) 0.086(7) 0.088(6) 0.004(5) 0.027(5) -0.006(5)
O1 0.04 0.043 0.038 -0.006 0.012 0.003
O2 0.081(8) 0.086(8) 0.082(8) 0.011(6) 0.024(6) -0.005(6)
C2 0.081(6) 0.082(7) 0.082(6) 0.012(5) 0.025(5) -0.008(5)
C3 0.085(7) 0.084(7) 0.089(7) 0.001(5) 0.030(5) -0.006(6)
C4 0.117(9) 0.105(9) 0.099(8) -0.002(7) 0.044(7) -0.005(7)
C5 0.030(4) 0.067(6) 0.020(4) 0.001(4) 0.015(3) -0.001(4)
C6 0.035(4) 0.064(6) 0.022(4) 0.005(4) 0.017(3) 0.011(4)
C7 0.027(4) 0.061(6) 0.021(4) 0.006(4) 0.011(3) 0.014(4)
C8 0.033(4) 0.063(6) 0.021(4) 0.008(4) 0.017(3) 0.016(4)
C9 0.038(4) 0.058(6) 0.023(4) 0.010(4) 0.016(4) 0.018(4)
C10 0.047(5) 0.099(8) 0.031(5) 0.012(5) 0.020(5) 0.039(6)
C11 0.055(5) 0.090(8) 0.026(5) 0.011(5) 0.025(4) 0.037(5)
C12 0.022(3) 0.050(5) 0.022(4) 0.003(4) 0.009(3) 0.011(4)
C13 0.028(4) 0.055(5) 0.025(4) 0.004(4) 0.016(3) 0.013(4)
C14 0.033(4) 0.049(5) 0.026(4) 0.008(4) 0.013(3) 0.015(4)
C15 0.032(4) 0.057(5) 0.025(4) 0.010(4) 0.018(3) 0.019(4)
C16 0.035(4) 0.058(5) 0.022(4) 0.011(4) 0.019(3) 0.013(4)
C17 0.041(5) 0.073(7) 0.026(5) 0.013(4) 0.017(4) 0.024(4)
C18 0.030(4) 0.067(6) 0.025(4) 0.011(4) 0.017(3) 0.020(4)
C19 0.039(4) 0.059(6) 0.034(5) 0.014(4) 0.021(4) 0.020(4)
C20 0.035(4) 0.057(6) 0.032(5) 0.012(4) 0.020(4) 0.019(4)
C21 0.029(4) 0.061(6) 0.028(5) 0.009(4) 0.017(4) 0.018(4)
C22 0.033(4) 0.056(5) 0.029(5) 0.007(4) 0.017(4) 0.014(4)
C23 0.033(4) 0.056(5) 0.028(5) 0.011(4) 0.018(4) 0.018(4)
C24 0.044(5) 0.069(6) 0.028(5) 0.011(4) 0.023(4) 0.025(4)
C25 0.035(4) 0.064(6) 0.026(5) 0.012(4) 0.013(4) 0.018(4)
O3 0.054(3) 0.073(5) 0.021(3) 0.002(3) 0.018(3) 0.018(3)
O4 0.025(3) 0.057(4) 0.019(3) -0.001(2) 0.011(2) -0.003(3)
O5 0.034(3) 0.058(4) 0.025(3) 0.008(3) 0.015(2) 0.017(3)
O6 0.032(3) 0.067(4) 0.023(3) 0.010(3) 0.017(2) 0.014(3)
O7 0.047(3) 0.082(5) 0.027(3) 0.010(3) 0.021(3) 0.038(3)
O8 0.058(4) 0.109(6) 0.026(3) 0.016(4) 0.023(3) 0.054(4)
Tb1 0.0228(3) 0.0471(4) 0.0174(3) -0.00211(19) 0.0091(2) -0.01050(19)
O5A 0.034 0.058 0.025 -0.008 0.015 -0.017
O6E 0.032 0.067 0.023 -0.01 0.017 -0.014
O7C 0.047 0.082 0.027 -0.01 0.021 -0.038
O8C 0.058 0.109 0.026 -0.016 0.023 -0.054
Tb1A 0.0228 0.0471 0.0174 0.00211 0.0091 0.0105
Tb1C 0.0228 0.0471 0.0174 0.00211 0.0091 0.0105
Tb1E 0.0228 0.0471 0.0174 0.00211 0.0091 0.0105
loop_
_geom_bond_atom_site_label_1
_geom_bond_atom_site_label_2
_geom_bond_site_symmetry_1
_geom_bond_site_symmetry_2
C1 C2 1_555 1_555
O1 H1 1_555 1_555
H2 O1 1_555 1_555
O2 H3 1_555 1_555
C2 O2 1_555 1_555
H4 C2 1_555 1_555
H5 C2 1_555 1_555
H6 C1 1_555 1_555
H7 C1 1_555 1_555
C3 C1 1_555 1_555
H8 C3 1_555 1_555
H9 C3 1_555 1_555
C4 C3 1_555 1_555
H10 C4 1_555 1_555
H11 C4 1_555 1_555
H12 C4 1_555 1_555
C5 C6 1_555 1_555
C6 C7 1_555 1_555
C7 H13 1_555 1_555
C8 C7 1_555 1_555
C9 C8 1_555 1_555
C10 C9 1_555 1_555
H14 C10 1_555 1_555
C11 C6 1_555 1_555
H15 C11 1_555 1_555
C12 C13 1_555 1_555
C13 C14 1_555 1_555
C14 H16 1_555 1_555
C15 C14 1_555 1_555
C16 C8 1_555 1_555
C17 C16 1_555 1_555
H17 C17 1_555 1_555
C18 C13 1_555 1_555
H18 C18 1_555 1_555
C19 C20 1_555 1_555
C20 C21 1_555 1_555
C21 H19 1_555 1_555
C22 C9 1_555 1_555
C23 C15 1_555 1_555
C24 C23 1_555 1_555
H20 C24 1_555 1_555
C25 C20 1_555 1_555
H21 C25 1_555 1_555
O3 C5 1_555 1_555
O4 C5 1_555 1_555
O5 C12 1_555 1_555
O6 C12 1_555 1_555
O7 C19 1_555 1_555
O8 C19 1_555 1_555
Tb1 O1 1_555 1_555
O5A Tb1 1_555 1_555
O6E Tb1 1_555 1_555
O7C Tb1 1_555 1_555
O8C Tb1 1_555 1_555
Tb1A O5 1_555 1_555
Tb1C O7 1_555 1_555
Tb1E O6 1_555 1_555
O2 Tb1 1_555 1_555
C10 C11 1_555 1_555
C15 C16 1_555 1_555
C17 C18 1_555 1_555
C21 C22 1_555 1_555
C22 C23 1_555 1_555
C24 C25 1_555 1_555
O3 Tb1 1_555 1_555
O4 Tb1 1_555 1_555
O8 Tb1C 1_555 1_555

#END
