
#######################################################################
#
#                 Cambridge Crystallographic Data Centre
#                                CCDC 
#
#######################################################################
#
# If this CIF has been generated from an entry in the Cambridge 
# Structural Database, then it will include bibliographic, chemical, 
# crystal, experimental, refinement or atomic coordinate data resulting 
# from the CCDC's data processing and validation procedures.
#
#######################################################################

data_GOBCUX
_chemical_formula_moiety         '(C38 H26 Cu5 N4 O18)n'
_symmetry_cell_setting           tetragonal
_symmetry_space_group_name_H-M   'P 42/m'
_symmetry_Int_Tables_number      84
_space_group_name_Hall           '-P 4c'
loop_
_symmetry_equiv_pos_site_id
_symmetry_equiv_pos_as_xyz
1 x,y,z
2 -x,-y,z
3 -y,x,1/2+z
4 y,-x,1/2+z
5 -x,-y,-z
6 x,y,-z
7 y,-x,1/2-z
8 -y,x,1/2-z
_cell_length_a                   12.1998(17)
_cell_length_b                   12.1998(17)
_cell_length_c                   20.909(4)
_cell_angle_alpha                90
_cell_angle_beta                 90
_cell_angle_gamma                90
_cell_volume                     3111.99
loop_
_atom_site_label
_atom_site_type_symbol
_atom_site_fract_x
_atom_site_fract_y
_atom_site_fract_z
Cu1 Cu 0.33823(5) 0.86886(4) 0.08106(2)
O1 O 0.5411(2) 0.8898(2) 0.06673(13)
O2 O 0.7941(3) 0.6491(3) 0.33833(15)
O3 O 0.6591(3) 0.9888(3) 0.12597(14)
O4 O 0.3268(4) 0.9425(3) 0.0000
C1 C 0.6349(4) 0.8029(4) 0.1513(2)
C2 C 0.6933(4) 0.8124(4) 0.2071(2)
H1 H 0.7180 0.8810 0.2199
C3 C 0.6086(4) 0.9014(4) 0.11205(19)
C4 C 0.6804(4) 0.6194(4) 0.2254(2)
H2 H 0.6950 0.5578 0.2501
C5 C 0.5993(4) 0.7010(4) 0.1321(2)
H3 H 0.5595 0.6934 0.0944
C6 C 0.6231(4) 0.6093(4) 0.1694(2)
H4 H 0.5998 0.5404 0.1561
C7 C 0.7164(4) 0.7210(4) 0.2450(2)
C8 C 0.3323(6) 0.6276(4) 0.0513(3)
H5 H 0.3333 0.6046 0.0937
C9 C 0.3341(10) 0.5594(7) 0.0000
H6 H 0.331(8) 0.481(9) 0.0000
C10 C 0.7786(5) 0.7345(4) 0.3076(2)
N1 N 0.3289(3) 0.7316(3) 0.03277(18)
Cu2 Cu 0.5000 1.0000 0.0000
O5 O 0.8329(7) 0.8227(6) 0.3177(4)
C8E C 0.3323(6) 0.6276(4) -0.0513(3)
H5E H 0.3333 0.6046 -0.0937
N1E N 0.3289(3) 0.7316(3) -0.03277(18)
Cu1A Cu 0.66177(5) 1.13114(4) 0.08106(2)
O1A O 0.4589(2) 1.1102(2) 0.06673(13)
O2A O 0.2059(3) 1.3509(3) 0.33833(15)
O3A O 0.3409(3) 1.0112(3) 0.12597(14)
O4A O 0.6732(4) 1.0575(3) 0.0000
C1A C 0.3651(4) 1.1971(4) 0.1513(2)
C2A C 0.3067(4) 1.1876(4) 0.2071(2)
H1A H 0.2820 1.1190 0.2199
C3A C 0.3914(4) 1.0986(4) 0.11205(19)
C4A C 0.3196(4) 1.3806(4) 0.2254(2)
H2A H 0.3050 1.4422 0.2501
C5A C 0.4007(4) 1.2990(4) 0.1321(2)
H3A H 0.4405 1.3066 0.0944
C6A C 0.3769(4) 1.3907(4) 0.1694(2)
H4A H 0.4002 1.4596 0.1561
C7A C 0.2836(4) 1.2790(4) 0.2450(2)
C8A C 0.6677(6) 1.3724(4) 0.0513(3)
H5A H 0.6667 1.3954 0.0937
C9A C 0.6659(10) 1.4406(7) 0.0000
H6A H 0.669(8) 1.519(9) 0.0000
C10A C 0.2214(5) 1.2655(4) 0.3076(2)
N1A N 0.6711(3) 1.2684(3) 0.03277(18)
O5A O 0.1671(7) 1.1773(6) 0.3177(4)
C8D C 0.6677(6) 1.3724(4) -0.0513(3)
H5D H 0.6667 1.3954 -0.0937
N1D N 0.6711(3) 1.2684(3) -0.03277(18)
Cu1D Cu 0.66177(5) 1.13114(4) -0.08106(2)
O1D O 0.4589(2) 1.1102(2) -0.06673(13)
O2D O 0.2059(3) 1.3509(3) -0.33833(15)
O3D O 0.3409(3) 1.0112(3) -0.12597(14)
C1D C 0.3651(4) 1.1971(4) -0.1513(2)
C2D C 0.3067(4) 1.1876(4) -0.2071(2)
H1D H 0.2820 1.1190 -0.2199
C3D C 0.3914(4) 1.0986(4) -0.11205(19)
C4D C 0.3196(4) 1.3806(4) -0.2254(2)
H2D H 0.3050 1.4422 -0.2501
C5D C 0.4007(4) 1.2990(4) -0.1321(2)
H3D H 0.4405 1.3066 -0.0944
C6D C 0.3769(4) 1.3907(4) -0.1694(2)
H4D H 0.4002 1.4596 -0.1561
C7D C 0.2836(4) 1.2790(4) -0.2450(2)
C10D C 0.2214(5) 1.2655(4) -0.3076(2)
O5D O 0.1671(7) 1.1773(6) -0.3177(4)
Cu1E Cu 0.33823(5) 0.86886(4) -0.08106(2)
O1E O 0.5411(2) 0.8898(2) -0.06673(13)
O2E O 0.7941(3) 0.6491(3) -0.33833(15)
O3E O 0.6591(3) 0.9888(3) -0.12597(14)
C1E C 0.6349(4) 0.8029(4) -0.1513(2)
C2E C 0.6933(4) 0.8124(4) -0.2071(2)
H1E H 0.7180 0.8810 -0.2199
C3E C 0.6086(4) 0.9014(4) -0.11205(19)
C4E C 0.6804(4) 0.6194(4) -0.2254(2)
H2E H 0.6950 0.5578 -0.2501
C5E C 0.5993(4) 0.7010(4) -0.1321(2)
H3E H 0.5595 0.6934 -0.0944
C6E C 0.6231(4) 0.6093(4) -0.1694(2)
H4E H 0.5998 0.5404 -0.1561
C7E C 0.7164(4) 0.7210(4) -0.2450(2)
C10E C 0.7786(5) 0.7345(4) -0.3076(2)
O5E O 0.8329(7) 0.8227(6) -0.3177(4)
Cu1B Cu 0.13114(4) 1.33823(5) -0.41894(2)
Cu1C Cu 0.86886(4) 0.66177(5) -0.41894(2)
Cu1F Cu 0.86886(4) 0.66177(5) 0.41894(2)
Cu1G Cu 0.13114(4) 1.33823(5) 0.41894(2)
O2B O 0.3509(3) 0.7941(3) -0.16167(15)
O2C O 0.6491(3) 1.2059(3) -0.16167(15)
O2F O 0.6491(3) 1.2059(3) 0.16167(15)
O2G O 0.3509(3) 0.7941(3) 0.16167(15)
loop_
_geom_bond_atom_site_label_1
_geom_bond_atom_site_label_2
_geom_bond_site_symmetry_1
_geom_bond_site_symmetry_2
Cu1 O1 1_555 1_555
O1 C3 1_555 1_555
O2 C10 1_555 1_555
O3 C3 1_555 1_555
O4 Cu1 1_555 1_555
C1 C2 1_555 1_555
C2 H1 1_555 1_555
C3 C1 1_555 1_555
C4 H2 1_555 1_555
C5 C1 1_555 1_555
H3 C5 1_555 1_555
C6 C4 1_555 1_555
H4 C6 1_555 1_555
C7 C2 1_555 1_555
C8 H5 1_555 1_555
C9 C8 1_555 1_555
H6 C9 1_555 1_555
C10 C7 1_555 1_555
N1 Cu1 1_555 1_555
Cu2 O1 1_555 1_555
O5 C10 1_555 1_555
C8E C9 1_555 1_555
H5E C8E 1_555 1_555
N1E N1 1_555 1_555
Cu1A O3 1_555 1_555
O1A Cu2 1_555 1_555
O2A C10A 1_555 1_555
O3A Cu1 1_555 1_555
O4A Cu2 1_555 1_555
C1A C2A 1_555 1_555
C2A H1A 1_555 1_555
C3A O1A 1_555 1_555
C4A H2A 1_555 1_555
C5A C1A 1_555 1_555
H3A C5A 1_555 1_555
C6A C4A 1_555 1_555
H4A C6A 1_555 1_555
C7A C2A 1_555 1_555
C8A H5A 1_555 1_555
C9A C8A 1_555 1_555
H6A C9A 1_555 1_555
C10A C7A 1_555 1_555
N1A Cu1A 1_555 1_555
O5A C10A 1_555 1_555
C8D C9A 1_555 1_555
H5D C8D 1_555 1_555
N1D N1A 1_555 1_555
Cu1D O4A 1_555 1_555
O1D Cu2 1_555 1_555
O2D C10D 1_555 1_555
O3D C3D 1_555 1_555
C1D C2D 1_555 1_555
C2D H1D 1_555 1_555
C3D O1D 1_555 1_555
C4D H2D 1_555 1_555
C5D C1D 1_555 1_555
H3D C5D 1_555 1_555
C6D C4D 1_555 1_555
H4D C6D 1_555 1_555
C7D C2D 1_555 1_555
C10D C7D 1_555 1_555
O5D C10D 1_555 1_555
Cu1E O4 1_555 1_555
O1E Cu2 1_555 1_555
O2E C10E 1_555 1_555
O3E Cu1D 1_555 1_555
C1E C2E 1_555 1_555
C2E H1E 1_555 1_555
C3E O1E 1_555 1_555
C4E H2E 1_555 1_555
C5E C1E 1_555 1_555
H3E C5E 1_555 1_555
C6E C4E 1_555 1_555
H4E C6E 1_555 1_555
C7E C2E 1_555 1_555
C10E C7E 1_555 1_555
O5E C10E 1_555 1_555
Cu1B O2D 1_555 1_555
Cu1C O2E 1_555 1_555
Cu1F O2 1_555 1_555
Cu1G O2A 1_555 1_555
O2B Cu1E 1_555 1_555
O2C Cu1D 1_555 1_555
O2F Cu1A 1_555 1_555
O2G Cu1 1_555 1_555
O4 Cu2 1_555 1_555
C4 C7 1_555 1_555
C5 C6 1_555 1_555
C8 N1 1_555 1_555
C8E N1E 1_555 1_555
N1E Cu1E 1_555 1_555
Cu1A O1A 1_555 1_555
Cu1A O4A 1_555 1_555
O3A C3A 1_555 1_555
C1A C3A 1_555 1_555
C4A C7A 1_555 1_555
C5A C6A 1_555 1_555
C8A N1A 1_555 1_555
C8D N1D 1_555 1_555
N1D Cu1D 1_555 1_555
Cu1D O1D 1_555 1_555
O3D Cu1E 1_555 1_555
C1D C3D 1_555 1_555
C4D C7D 1_555 1_555
C5D C6D 1_555 1_555
Cu1E O1E 1_555 1_555
O3E C3E 1_555 1_555
C1E C3E 1_555 1_555
C4E C7E 1_555 1_555
C5E C6E 1_555 1_555

#END
