
#######################################################################
#
#                 Cambridge Crystallographic Data Centre
#                                CCDC 
#
#######################################################################
#
# If this CIF has been generated from an entry in the Cambridge 
# Structural Database, then it will include bibliographic, chemical, 
# crystal, experimental, refinement or atomic coordinate data resulting 
# from the CCDC's data processing and validation procedures.
#
#######################################################################

data_OPIXUI
_chemical_formula_moiety         '(C16 H13 Cu2 N1 O10)n'
_symmetry_cell_setting           orthorhombic
_symmetry_space_group_name_H-M   'F d d d'
_symmetry_Int_Tables_number      70
_space_group_name_Hall           '-F 2uv 2vw'
loop_
_symmetry_equiv_pos_site_id
_symmetry_equiv_pos_as_xyz
1 x,y,z
2 3/4-x,3/4-y,z
3 3/4-x,y,3/4-z
4 x,3/4-y,3/4-z
5 x,1/2+y,1/2+z
6 3/4-x,1/4-y,1/2+z
7 3/4-x,1/2+y,1/4-z
8 x,1/4-y,1/4-z
9 1/2+x,y,1/2+z
10 1/4-x,3/4-y,1/2+z
11 1/4-x,y,1/4-z
12 1/2+x,3/4-y,1/4-z
13 1/2+x,1/2+y,z
14 1/4-x,1/4-y,z
15 1/4-x,1/2+y,3/4-z
16 1/2+x,1/4-y,3/4-z
17 -x,-y,-z
18 1/4+x,1/4+y,-z
19 1/4+x,-y,1/4+z
20 -x,1/4+y,1/4+z
21 -x,1/2-y,1/2-z
22 1/4+x,3/4+y,1/2-z
23 1/4+x,1/2-y,3/4+z
24 -x,3/4+y,3/4+z
25 1/2-x,-y,1/2-z
26 3/4+x,1/4+y,1/2-z
27 3/4+x,-y,3/4+z
28 1/2-x,1/4+y,3/4+z
29 1/2-x,1/2-y,-z
30 3/4+x,3/4+y,-z
31 3/4+x,1/2-y,1/4+z
32 1/2-x,3/4+y,1/4+z
_cell_length_a                   18.990(4)
_cell_length_b                   34.418(6)
_cell_length_c                   38.393(6)
_cell_angle_alpha                90
_cell_angle_beta                 90
_cell_angle_gamma                90
_cell_volume                     25093.6
loop_
_atom_site_label
_atom_site_type_symbol
_atom_site_fract_x
_atom_site_fract_y
_atom_site_fract_z
_atom_site_U_iso_or_equiv
_atom_site_thermal_displace_type
H1 H 0.295(4) 0.2772(13) 0.8713(17) 0.1000 Uiso
C1 C 0.3545(4) 0.16071(19) 0.83473(12) 0.0537 Uani
C2 C 0.2594(4) 0.0782(2) 0.83661(15) 0.0593 Uani
C3 C 0.3777(3) 0.11908(16) 0.83006(12) 0.0487 Uani
C4 C 0.3359(3) 0.08385(16) 0.83073(12) 0.0470 Uani
C5 C 0.3820(3) 0.05381(17) 0.82458(13) 0.0517 Uani
C6 C 0.4459(3) 0.10936(17) 0.82335(13) 0.0507 Uani
C7 C 0.5120(4) 0.1328(2) 0.81898(19) 0.0700 Uani
H2 H 0.5017 0.1598 0.8226 0.1050 Uiso
H3 H 0.5302 0.1292 0.7959 0.1050 Uiso
H4 H 0.5464 0.1245 0.8357 0.1050 Uiso
C8 C 0.3714(4) 0.0108(2) 0.8234(2) 0.0760 Uani
H5 H 0.4152 -0.0017 0.8180 0.1140 Uiso
H6 H 0.3372 0.0045 0.8059 0.1140 Uiso
H7 H 0.3549 0.0019 0.8457 0.1140 Uiso
C9 C 0.5085(3) 0.04821(16) 0.80688(12) 0.0470 Uani
C10 C 0.5102(3) 0.03591(17) 0.77279(12) 0.0487 Uani
H8 H 0.4709 0.0392 0.7587 0.0580 Uiso
C11 C 0.5704(3) 0.01870(17) 0.75945(11) 0.0490 Uani
C12 C 0.6307(3) 0.01429(16) 0.78003(11) 0.0473 Uani
H9 H 0.6719 0.0042 0.7706 0.0570 Uiso
C13 C 0.6278(3) 0.02540(16) 0.81516(11) 0.0457 Uani
C14 C 0.5675(3) 0.04269(17) 0.82844(12) 0.0523 Uani
H10 H 0.5661 0.0506 0.8516 0.0630 Uiso
C15 C 0.6916(3) 0.01925(16) 0.83818(11) 0.0433 Uani
C16 C 0.5737(3) 0.00681(17) 0.72166(12) 0.0517 Uani
Cu1 Cu 0.40952(4) 0.24751(2) 0.840673(13) 0.0458 Uani
Cu2 Cu 0.23940(4) 0.22641(2) 0.838171(14) 0.0495 Uani
N1 N 0.4480(3) 0.06920(13) 0.81952(10) 0.0477 Uani
O1 O 0.3139(2) 0.25644(11) 0.86008(8) 0.0472 Uani
O2 O 0.1535(3) 0.20691(18) 0.81473(10) 0.0850 Uani
O3 O 0.4010(3) 0.18622(14) 0.83500(12) 0.0753 Uani
O4 O 0.2882(3) 0.16779(13) 0.83662(11) 0.0670 Uani
O5 O 0.2191(3) 0.10771(16) 0.84132(15) 0.0860 Uani
O6 O 0.2336(3) 0.04533(16) 0.83725(12) 0.0753 Uani
O7 O 0.6851(2) 0.03046(12) 0.86884(8) 0.0557 Uani
O8 O 0.7438(2) 0.00299(13) 0.82434(9) 0.0549 Uani
O9 O 0.6322(2) 0.00924(14) 0.70733(9) 0.0643 Uani
O10 O 0.5161(2) -0.00437(13) 0.70846(8) 0.0632 Uani
H11 H 0.247(3) 0.1272(15) 0.8458(18) 0.0750 Uiso
H12 H 0.143(3) 0.2258(13) 0.8016(13) 0.0750 Uiso
H13 H 0.118(2) 0.2044(17) 0.8283(14) 0.0750 Uiso
Cu1B Cu 0.34048(4) 0.24751(2) 0.909327(13) 0.0458 Uani
Cu1M Cu 0.84048(4) 0.00249(2) 0.840673(13) 0.0458 Uani
Cu1U Cu 0.65952(4) -0.00249(2) 0.659327(13) 0.0458 Uani
Cu2O Cu 0.73940(4) 0.02359(2) 0.911829(14) 0.0495 Uani
Cu2U Cu 0.48940(4) -0.02359(2) 0.661829(14) 0.0495 Uani
O1B O 0.4361(2) 0.25644(11) 0.88992(8) 0.0472 Uani
O7O O 0.1851(2) 0.21954(12) 0.88116(8) 0.0557 Uani
O8M O 0.5062(2) 0.24701(13) 0.82434(9) 0.0549 Uani
O9Y O 0.3822(2) 0.25924(14) 0.79267(9) 0.0643 Uani
O10Y O 0.2661(2) 0.24563(13) 0.79154(8) 0.0632 Uani
loop_
_atom_site_aniso_label
_atom_site_aniso_U_11
_atom_site_aniso_U_22
_atom_site_aniso_U_33
_atom_site_aniso_U_23
_atom_site_aniso_U_13
_atom_site_aniso_U_12
C1 0.044(4) 0.085(4) 0.032(2) -0.005(2) 0.004(2) 0.002(3)
C2 0.031(3) 0.096(5) 0.051(3) -0.004(3) 0.005(3) 0.005(4)
C3 0.034(3) 0.081(3) 0.031(2) -0.005(2) -0.002(2) 0.007(3)
C4 0.032(3) 0.078(3) 0.031(2) -0.005(2) 0.001(2) 0.004(3)
C5 0.036(3) 0.083(4) 0.036(2) -0.003(2) -0.001(2) -0.003(3)
C6 0.029(3) 0.086(4) 0.037(2) -0.008(2) -0.003(2) 0.000(3)
C7 0.043(4) 0.089(4) 0.078(4) -0.007(3) 0.013(3) -0.001(3)
C8 0.050(5) 0.099(5) 0.079(4) -0.004(4) 0.017(4) 0.000(4)
C9 0.031(3) 0.075(3) 0.035(2) -0.009(2) 0.004(2) 0.003(3)
C10 0.027(3) 0.086(3) 0.033(2) -0.009(2) -0.005(2) 0.007(3)
C11 0.032(3) 0.093(4) 0.022(2) -0.012(2) -0.004(2) 0.009(3)
C12 0.028(3) 0.089(3) 0.025(2) -0.006(2) -0.003(2) 0.014(3)
C13 0.027(3) 0.084(3) 0.026(2) -0.002(2) -0.003(2) 0.003(3)
C14 0.038(3) 0.094(4) 0.025(2) -0.010(2) -0.007(2) 0.007(3)
C15 0.027(3) 0.077(3) 0.026(2) -0.001(2) -0.009(2) -0.003(3)
C16 0.035(3) 0.096(4) 0.024(2) -0.008(2) -0.012(2) 0.005(3)
Cu1 0.0283(4) 0.0878(5) 0.0214(3) 0.0029(2) 0.0051(2) 0.0035(3)
Cu2 0.0324(4) 0.0917(5) 0.0244(3) 0.0002(3) 0.0050(3) -0.0014(4)
N1 0.029(3) 0.082(3) 0.0322(19) -0.0071(19) -0.0016(18) 0.002(2)
O1 0.030(2) 0.085(2) 0.0267(15) -0.0018(15) 0.0040(15) 0.0004(19)
O2 0.046(3) 0.174(5) 0.035(2) -0.003(2) -0.0003(19) -0.024(3)
O3 0.058(3) 0.085(3) 0.083(3) -0.016(2) 0.013(3) 0.004(3)
O4 0.043(3) 0.094(3) 0.064(2) -0.015(2) 0.003(2) 0.011(3)
O5 0.035(3) 0.105(4) 0.118(4) -0.016(3) 0.013(3) 0.007(3)
O6 0.043(3) 0.104(4) 0.079(3) -0.005(2) 0.011(2) -0.012(3)
O7 0.040(2) 0.101(3) 0.0261(16) -0.0090(15) -0.0104(16) 0.011(2)
O8 0.029(2) 0.107(3) 0.0286(16) -0.0123(17) -0.0051(16) 0.004(2)
O9 0.032(2) 0.130(3) 0.0309(17) -0.0124(19) -0.0048(17) 0.012(3)
O10 0.035(2) 0.131(3) 0.0235(15) -0.0129(18) -0.0088(16) 0.004(2)
Cu1B 0.0283 0.0878 0.0214 -0.0029 0.0051 -0.0035
Cu1M 0.0283 0.0878 0.0214 -0.0029 -0.0051 0.0035
Cu1U 0.0283 0.0878 0.0214 -0.0029 -0.0051 0.0035
Cu2O 0.0324 0.0917 0.0244 0.0002 -0.005 0.0014
Cu2U 0.0324 0.0917 0.0244 -0.0002 -0.005 -0.0014
O1B 0.03 0.085 0.0267 0.0018 0.004 -0.0004
O7O 0.04 0.101 0.0261 -0.009 0.0104 -0.011
O8M 0.029 0.107 0.0286 0.0123 0.0051 0.004
O9Y 0.032 0.13 0.0309 0.0124 0.0048 0.012
O10Y 0.035 0.131 0.0235 0.0129 0.0088 0.004
loop_
_geom_bond_atom_site_label_1
_geom_bond_atom_site_label_2
_geom_bond_site_symmetry_1
_geom_bond_site_symmetry_2
H1 O1 1_555 1_555
C1 C3 1_555 1_555
C2 C4 1_555 1_555
C3 C4 1_555 1_555
C4 C5 1_555 1_555
C5 C8 1_555 1_555
C6 C3 1_555 1_555
C7 C6 1_555 1_555
H2 C7 1_555 1_555
H3 C7 1_555 1_555
H4 C7 1_555 1_555
C8 H5 1_555 1_555
H6 C8 1_555 1_555
H7 C8 1_555 1_555
C9 C10 1_555 1_555
C10 H8 1_555 1_555
C11 C10 1_555 1_555
C12 C11 1_555 1_555
H9 C12 1_555 1_555
C13 C12 1_555 1_555
C14 C9 1_555 1_555
H10 C14 1_555 1_555
C15 C13 1_555 1_555
C16 C11 1_555 1_555
Cu1 O1 1_555 1_555
Cu2 O1 1_555 1_555
N1 C5 1_555 1_555
O1 Cu1B 1_555 1_555
O2 Cu2 1_555 1_555
O3 C1 1_555 1_555
O4 C1 1_555 1_555
O5 C2 1_555 1_555
O6 C2 1_555 1_555
O7 C15 1_555 1_555
O8 C15 1_555 1_555
O9 C16 1_555 1_555
O10 C16 1_555 1_555
H11 O5 1_555 1_555
H12 O2 1_555 1_555
H13 O2 1_555 1_555
Cu1B O1B 1_555 1_555
Cu1M O8 1_555 1_555
Cu1U O9 1_555 1_555
Cu2O O7 1_555 1_555
Cu2U O10 1_555 1_555
O1B Cu1 1_555 1_555
O7O Cu2 1_555 1_555
O8M Cu1 1_555 1_555
O9Y Cu1 1_555 1_555
O10Y Cu2 1_555 1_555
C6 N1 1_555 1_555
C9 N1 1_555 1_555
C13 C14 1_555 1_555
Cu1 O3 1_555 1_555
Cu2 O4 1_555 1_555

#END
