
#######################################################################
#
#                 Cambridge Crystallographic Data Centre
#                                CCDC 
#
#######################################################################
#
# If this CIF has been generated from an entry in the Cambridge 
# Structural Database, then it will include bibliographic, chemical, 
# crystal, experimental, refinement or atomic coordinate data resulting 
# from the CCDC's data processing and validation procedures.
#
#######################################################################

data_OPIYAP
_chemical_formula_moiety         '(C35 H35 Cu4 N3 O22)n'
_symmetry_cell_setting           monoclinic
_symmetry_space_group_name_H-M   'P 21/c'
_symmetry_Int_Tables_number      14
_space_group_name_Hall           '-P 2ybc'
loop_
_symmetry_equiv_pos_site_id
_symmetry_equiv_pos_as_xyz
1 x,y,z
2 -x,1/2+y,1/2-z
3 -x,-y,-z
4 x,1/2-y,1/2+z
_cell_length_a                   18.744(2)
_cell_length_b                   15.6943(18)
_cell_length_c                   21.529(2)
_cell_angle_alpha                90
_cell_angle_beta                 112.251(5)
_cell_angle_gamma                90
_cell_volume                     5861.66
loop_
_atom_site_label
_atom_site_type_symbol
_atom_site_fract_x
_atom_site_fract_y
_atom_site_fract_z
_atom_site_U_iso_or_equiv
_atom_site_thermal_displace_type
O1 O 0.42709(17) 0.2338(2) -0.09210(15) 0.0519 Uani
O2 O 0.31645(17) 0.2671(2) -0.08058(14) 0.0484 Uani
O3 O 0.70976(19) -0.1039(2) 0.15347(19) 0.0668 Uani
O4 O -0.2105(2) -0.1078(2) 0.34700(18) 0.0582 Uani
O5 O 0.15682(17) 0.2817(2) 0.60603(15) 0.0588 Uani
O6 O 0.04927(18) 0.2329(3) 0.61533(15) 0.0591 Uani
C1 C 0.0903(2) 0.2506(3) 0.5829(2) 0.0425 Uani
C2 C 0.0540(2) 0.2329(3) 0.5078(2) 0.0424 Uani
O7 O -0.0356(8) 0.3177(9) 0.1987(8) 0.1714 Uani
H1 H -0.0452 0.3463 0.2282 0.2060 Uiso
H2 H -0.0187 0.3521 0.1769 0.2060 Uiso
O8 O 0.0007(7) 0.1261(9) 0.1772(4) 0.1555 Uani
H3 H -0.0246 0.0807 0.1760 0.1870 Uiso
H4 H 0.0093 0.1502 0.2147 0.1870 Uiso
C3 C 0.3814(2) 0.2331(3) 0.1726(2) 0.0418 Uani
C4 C 0.4215(2) 0.2169(3) 0.1249(2) 0.0379 Uani
C5 C 0.3850(2) 0.2352(3) 0.05686(19) 0.0338 Uani
H5 H 0.3345 0.2549 0.0400 0.0410 Uiso
C6 C 0.4244(2) 0.2238(3) 0.0140(2) 0.0349 Uani
C7 C 0.4993(2) 0.1938(3) 0.0395(2) 0.0404 Uani
H6 H 0.5261 0.1874 0.0112 0.0480 Uiso
C8 C 0.5345(2) 0.1735(3) 0.1061(2) 0.0372 Uani
C9 C 0.4966(2) 0.1860(3) 0.1490(2) 0.0433 Uani
H7 H 0.5213 0.1737 0.1944 0.0520 Uiso
C10 C 0.5662(3) -0.0109(4) 0.1108(3) 0.0794 Uani
H8 H 0.5172 0.0172 0.0930 0.1190 Uiso
H9 H 0.5685 -0.0465 0.1478 0.1190 Uiso
H10 H 0.5727 -0.0454 0.0764 0.1190 Uiso
C11 C 0.6286(2) 0.0537(3) 0.1342(2) 0.0439 Uani
C12 C 0.6790(2) 0.1879(3) 0.1585(2) 0.0450 Uani
C13 C 0.6755(3) 0.2829(4) 0.1619(3) 0.0703 Uani
H11 H 0.7268 0.3054 0.1817 0.1060 Uiso
H12 H 0.6467 0.2988 0.1887 0.1060 Uiso
H13 H 0.6507 0.3055 0.1174 0.1060 Uiso
C14 C 0.7392(2) 0.1303(3) 0.1778(2) 0.0438 Uani
C15 C 0.7084(2) 0.0446(3) 0.1633(2) 0.0402 Uani
C16 C 0.8208(3) 0.1602(5) 0.2077(3) 0.0566 Uani
C17 C 0.1002(3) 0.2445(4) 0.3523(2) 0.0550 Uani
C18 C 0.0582(2) 0.2295(3) 0.3983(2) 0.0457 Uani
C19 C -0.0160(2) 0.1971(3) 0.3736(2) 0.0449 Uani
H14 H -0.0401 0.1860 0.3280 0.0540 Uiso
C20 C -0.0545(2) 0.1812(3) 0.4151(2) 0.0402 Uani
C21 C -0.0201(2) 0.1994(3) 0.4829(2) 0.0414 Uani
H15 H -0.0462 0.1893 0.5113 0.0500 Uiso
C22 C 0.0937(2) 0.2483(3) 0.4670(2) 0.0422 Uani
H16 H 0.1432 0.2709 0.4844 0.0500 Uiso
C23 C -0.1413(2) 0.0571(3) 0.3792(2) 0.0432 Uani
C24 C -0.2199(2) 0.0425(4) 0.3507(2) 0.0468 Uani
C25 C -0.2567(2) 0.1248(4) 0.3429(2) 0.0457 Uani
C26 C -0.2000(3) 0.1845(4) 0.3667(2) 0.0480 Uani
C27 C -0.2019(3) 0.2780(4) 0.3715(3) 0.0725 Uani
H17 H -0.2544 0.2971 0.3548 0.1090 Uiso
H18 H -0.1756 0.3029 0.3454 0.1090 Uiso
H19 H -0.1768 0.2948 0.4176 0.1090 Uiso
C28 C -0.0743(3) -0.0048(4) 0.3973(3) 0.0695 Uani
H20 H -0.0266 0.0258 0.4169 0.1040 Uiso
H21 H -0.0756 -0.0336 0.3575 0.1040 Uiso
H22 H -0.0782 -0.0459 0.4288 0.1040 Uiso
C29 C -0.3395(3) 0.1455(5) 0.3144(3) 0.0602 Uani
C30 C 0.7461(3) -0.0373(4) 0.1754(2) 0.0469 Uani
C31 C -0.2535(3) -0.0435(4) 0.3310(2) 0.0582 Uani
C32 C 0.3855(2) 0.2431(3) -0.0586(2) 0.0371 Uani
Cu1 Cu 0.24203(3) 0.26680(4) 0.33156(3) 0.0441 Uani
Cu2 Cu 0.24333(3) 0.27807(5) 0.19458(3) 0.0495 Uani
Cu3 Cu 0.41520(3) 0.23786(5) 0.31776(3) 0.0502 Uani
Cu4 Cu 0.06734(3) 0.24424(5) 0.20637(3) 0.0632 Uani
N1 N 0.61203(18) 0.1389(3) 0.13171(16) 0.0374 Uani
N2 N -0.12925(18) 0.1409(3) 0.38817(17) 0.0405 Uani
O9 O 0.42372(19) 0.2224(3) 0.23340(16) 0.0847 Uani
O10 O 0.31271(17) 0.2512(2) 0.14922(16) 0.0557 Uani
O11 O 0.30464(19) 0.2214(3) 0.28101(16) 0.0603 Uani
O12 O 0.16979(16) 0.2960(2) 0.24175(14) 0.0492 Uani
O13 O 0.16693(17) 0.2666(2) 0.37532(14) 0.0517 Uani
O14 O 0.0626(3) 0.2277(5) 0.29239(19) 0.1511 Uani
O15 O 0.87465(18) 0.1016(3) 0.22718(19) 0.0645 Uani
O16 O 0.8383(2) 0.2361(3) 0.2129(2) 0.0735 Uani
O17 O -0.3611(2) 0.2194(3) 0.3149(2) 0.0779 Uani
H23 H -0.3917 0.2324 0.2754 0.0930 Uiso
O18 O -0.38850(19) 0.0841(3) 0.2918(2) 0.0824 Uani
O19 O 0.82020(17) -0.0405(2) 0.21120(17) 0.0615 Uani
O20 O -0.3262(2) -0.0506(3) 0.2972(2) 0.0876 Uani
O21 O 0.5228(2) 0.2768(4) 0.3468(2) 0.1174 Uani
H24 H 0.5672 0.2541 0.3625 0.1410 Uiso
H25 H 0.5267 0.3237 0.3287 0.1410 Uiso
O22 O 0.4454(5) 0.1025(5) 0.3476(3) 0.1864 Uani
C33 C 0.4466(7) 0.0498(10) 0.3093(8) 0.0825 Uani
H26 H 0.4278 0.0690 0.2652 0.0990 Uiso
N3 N 0.4694(8) -0.0341(7) 0.3151(9) 0.1097 Uani
C34 C 0.4747(8) -0.0914(8) 0.2741(8) 0.0984 Uani
H27 H 0.4445 -0.0745 0.2288 0.1480 Uiso
H28 H 0.4559 -0.1448 0.2835 0.1480 Uiso
H29 H 0.5277 -0.0975 0.2793 0.1480 Uiso
C35 C 0.5124(11) -0.0611(12) 0.3838(12) 0.2034 Uani
H30 H 0.5262 -0.1201 0.3842 0.3030 Uiso
H31 H 0.4811 -0.0537 0.4099 0.3030 Uiso
H32 H 0.5584 -0.0273 0.4027 0.3030 Uiso
H33 H 0.851(6) 0.055(4) 0.210(5) 0.2420 Uiso
H34 H 0.316(7) 0.276(2) 0.282(6) 0.2420 Uiso
H35 H 0.189(7) 0.251(5) 0.231(6) 0.2420 Uiso
O1C O 0.42709(17) 0.2662(2) 0.40790(15) 0.0519 Uani
O2C O 0.31645(17) 0.2329(2) 0.41942(14) 0.0484 Uani
O3A O 0.29024(19) 0.3961(2) 0.34653(19) 0.0668 Uani
O4A O 0.2105(2) 0.3922(2) 0.15300(18) 0.0582 Uani
O5C O 0.15682(17) 0.2183(2) 0.10603(15) 0.0588 Uani
O6C O 0.04927(18) 0.2671(3) 0.11533(15) 0.0591 Uani
Cu1A Cu 0.75797(3) -0.23320(4) 0.16844(3) 0.0441 Uani
Cu1C Cu 0.24203(3) 0.23320(4) -0.16844(3) 0.0441 Uani
Cu2A Cu -0.24333(3) -0.22193(5) 0.30542(3) 0.0495 Uani
Cu2C Cu 0.24333(3) 0.22193(5) 0.69458(3) 0.0495 Uani
Cu3C Cu 0.41520(3) 0.26214(5) -0.18224(3) 0.0502 Uani
Cu4C Cu 0.06734(3) 0.25576(5) 0.70637(3) 0.0632 Uani
loop_
_atom_site_aniso_label
_atom_site_aniso_U_11
_atom_site_aniso_U_22
_atom_site_aniso_U_33
_atom_site_aniso_U_23
_atom_site_aniso_U_13
_atom_site_aniso_U_12
O1 0.0304(17) 0.103(3) 0.0210(16) 0.0032(17) 0.0082(13) 0.0043(17)
O2 0.0285(16) 0.091(3) 0.0190(15) -0.0021(16) 0.0014(12) 0.0093(16)
O3 0.0363(19) 0.069(3) 0.073(3) -0.015(2) -0.0044(18) 0.0157(19)
O4 0.044(2) 0.073(3) 0.062(2) -0.011(2) 0.0249(18) -0.0080(19)
O5 0.0302(17) 0.119(3) 0.0222(16) 0.0119(18) 0.0043(13) -0.0227(19)
O6 0.0292(16) 0.131(3) 0.0187(16) -0.0013(18) 0.0110(13) -0.0169(19)
C1 0.024(2) 0.086(4) 0.014(2) 0.012(2) 0.0032(16) 0.003(2)
C2 0.028(2) 0.078(4) 0.018(2) 0.004(2) 0.0050(17) -0.006(2)
O7 0.197(15) 0.159(14) 0.227(19) 0.026(12) 0.158(14) 0.038(12)
O8 0.134(10) 0.269(17) 0.067(6) -0.057(8) 0.042(7) -0.159(12)
C3 0.029(2) 0.077(4) 0.022(2) -0.001(2) 0.0127(17) 0.011(2)
C4 0.024(2) 0.069(3) 0.021(2) 0.002(2) 0.0089(16) 0.007(2)
C5 0.022(2) 0.061(3) 0.0164(19) -0.0035(19) 0.0051(15) 0.006(2)
C6 0.024(2) 0.055(3) 0.023(2) -0.006(2) 0.0057(16) 0.005(2)
C7 0.031(2) 0.071(3) 0.021(2) -0.003(2) 0.0119(17) 0.006(2)
C8 0.020(2) 0.064(3) 0.025(2) -0.005(2) 0.0057(16) 0.006(2)
C9 0.027(2) 0.082(4) 0.019(2) 0.004(2) 0.0066(17) 0.015(2)
C10 0.029(3) 0.076(4) 0.103(5) -0.019(4) -0.009(3) 0.002(3)
C11 0.021(2) 0.072(4) 0.034(2) -0.012(2) 0.0051(18) 0.007(2)
C12 0.031(2) 0.072(4) 0.031(2) 0.001(2) 0.0106(19) 0.001(2)
C13 0.042(3) 0.079(5) 0.080(4) -0.005(3) 0.012(3) 0.000(3)
C14 0.025(2) 0.078(4) 0.027(2) 0.001(2) 0.0084(18) 0.001(2)
C15 0.023(2) 0.069(4) 0.026(2) -0.003(2) 0.0064(17) 0.008(2)
C16 0.031(3) 0.093(5) 0.043(3) -0.003(3) 0.011(2) 0.007(3)
C17 0.033(3) 0.102(5) 0.026(2) -0.009(3) 0.0066(19) -0.023(3)
C18 0.028(2) 0.091(4) 0.017(2) 0.002(2) 0.0074(17) -0.010(2)
C19 0.030(2) 0.080(4) 0.023(2) -0.009(2) 0.0082(18) -0.016(2)
C20 0.020(2) 0.068(3) 0.030(2) -0.001(2) 0.0065(17) -0.010(2)
C21 0.029(2) 0.072(4) 0.023(2) 0.005(2) 0.0097(17) -0.007(2)
C22 0.021(2) 0.080(4) 0.025(2) -0.004(2) 0.0082(17) -0.013(2)
C23 0.027(2) 0.067(4) 0.033(2) -0.003(2) 0.0085(19) -0.007(2)
C24 0.024(2) 0.086(4) 0.030(2) -0.004(2) 0.0098(19) -0.010(2)
C25 0.019(2) 0.083(4) 0.031(2) -0.005(2) 0.0049(18) -0.007(2)
C26 0.033(2) 0.075(4) 0.036(3) 0.005(3) 0.013(2) 0.001(3)
C27 0.050(3) 0.083(5) 0.085(5) 0.000(4) 0.026(3) -0.001(3)
C28 0.049(3) 0.074(4) 0.079(4) 0.002(3) 0.017(3) -0.003(3)
C29 0.029(3) 0.100(5) 0.050(3) 0.009(3) 0.013(2) 0.002(3)
C30 0.029(2) 0.068(4) 0.037(3) -0.007(3) 0.005(2) 0.010(2)
C31 0.043(3) 0.098(5) 0.034(3) -0.010(3) 0.015(2) -0.025(3)
C32 0.028(2) 0.057(3) 0.025(2) -0.002(2) 0.0087(17) -0.004(2)
Cu1 0.0228(3) 0.0905(5) 0.0181(3) -0.0038(3) 0.0067(2) -0.0097(3)
Cu2 0.0264(3) 0.1017(6) 0.0217(3) 0.0117(3) 0.0107(2) 0.0184(3)
Cu3 0.0301(3) 0.0986(6) 0.0209(3) 0.0015(3) 0.0084(2) 0.0142(3)
Cu4 0.0322(3) 0.1380(7) 0.0184(3) -0.0099(3) 0.0085(2) -0.0243(4)
N1 0.0198(17) 0.068(3) 0.0244(18) -0.0005(18) 0.0083(14) 0.0053(18)
N2 0.0207(18) 0.069(3) 0.0292(19) -0.0015(19) 0.0065(15) -0.0090(18)
O9 0.0350(19) 0.201(5) 0.0147(16) 0.001(2) 0.0054(14) 0.038(2)
O10 0.0240(16) 0.117(3) 0.0292(17) 0.0064(18) 0.0135(13) 0.0265(18)
O11 0.0328(18) 0.120(3) 0.0296(18) 0.003(2) 0.0135(14) 0.006(2)
O12 0.0245(15) 0.102(3) 0.0197(15) -0.0006(17) 0.0068(12) -0.0040(17)
O13 0.0285(16) 0.106(3) 0.0196(15) 0.0003(17) 0.0080(12) -0.0206(17)
O14 0.073(3) 0.360(9) 0.025(2) -0.040(3) 0.024(2) -0.118(4)
O15 0.0251(17) 0.093(3) 0.063(2) 0.004(2) 0.0027(16) 0.0083(19)
O16 0.040(2) 0.083(3) 0.096(3) -0.009(3) 0.024(2) -0.008(2)
O17 0.036(2) 0.120(4) 0.075(3) 0.006(3) 0.018(2) 0.012(2)
O18 0.0274(18) 0.111(3) 0.086(3) 0.008(3) -0.0042(19) -0.017(2)
O19 0.0253(16) 0.084(3) 0.059(2) 0.002(2) -0.0022(15) 0.0117(17)
O20 0.045(2) 0.103(3) 0.082(3) -0.009(3) -0.013(2) -0.029(2)
O21 0.041(2) 0.245(7) 0.066(3) -0.030(3) 0.020(2) -0.011(3)
O22 0.296(10) 0.142(6) 0.122(5) 0.021(4) 0.080(6) 0.103(6)
C33 0.065(8) 0.085(11) 0.128(13) 0.066(9) 0.071(9) 0.021(8)
N3 0.122(11) 0.039(7) 0.225(17) 0.004(9) 0.130(12) -0.016(7)
C34 0.091(10) 0.064(9) 0.167(16) -0.046(10) 0.079(11) 0.004(8)
C35 0.153(19) 0.105(16) 0.27(3) 0.079(19) -0.013(19) 0.015(14)
O1C 0.0304 0.103 0.021 -0.0032 0.0082 -0.0043
O2C 0.0285 0.091 0.019 0.0021 0.0014 -0.0093
O3A 0.0363 0.069 0.073 0.015 -0.0044 -0.0157
O4A 0.044 0.073 0.062 0.011 0.0249 0.008
O5C 0.0302 0.119 0.0222 -0.0119 0.0043 0.0227
O6C 0.0292 0.131 0.0187 0.0013 0.011 0.0169
Cu1A 0.0228 0.0905 0.0181 0.0038 0.0067 0.0097
Cu1C 0.0228 0.0905 0.0181 0.0038 0.0067 0.0097
Cu2A 0.0264 0.1017 0.0217 -0.0117 0.0107 -0.0184
Cu2C 0.0264 0.1017 0.0217 -0.0117 0.0107 -0.0184
Cu3C 0.0301 0.0986 0.0209 -0.0015 0.0084 -0.0142
Cu4C 0.0322 0.138 0.0184 0.0099 0.0085 0.0243
loop_
_geom_bond_atom_site_label_1
_geom_bond_atom_site_label_2
_geom_bond_site_symmetry_1
_geom_bond_site_symmetry_2
O1 C32 1_555 1_555
O2 C32 1_555 1_555
O3 C30 1_555 1_555
O4 C31 1_555 1_555
O5 C1 1_555 1_555
O6 C1 1_555 1_555
C1 C2 1_555 1_555
C2 C21 1_555 1_555
O7 H1 1_555 1_555
H2 O7 1_555 1_555
O8 H3 1_555 1_555
H4 O8 1_555 1_555
C3 C4 1_555 1_555
C4 C5 1_555 1_555
C5 H5 1_555 1_555
C6 C5 1_555 1_555
C7 C6 1_555 1_555
H6 C7 1_555 1_555
C8 C7 1_555 1_555
C9 C4 1_555 1_555
H7 C9 1_555 1_555
C10 H8 1_555 1_555
H9 C10 1_555 1_555
H10 C10 1_555 1_555
C11 C10 1_555 1_555
C12 C13 1_555 1_555
C13 H11 1_555 1_555
H12 C13 1_555 1_555
H13 C13 1_555 1_555
C14 C12 1_555 1_555
C15 C11 1_555 1_555
C16 C14 1_555 1_555
C17 C18 1_555 1_555
C18 C19 1_555 1_555
C19 H14 1_555 1_555
C20 C19 1_555 1_555
C21 C20 1_555 1_555
H15 C21 1_555 1_555
C22 C2 1_555 1_555
H16 C22 1_555 1_555
C23 C24 1_555 1_555
C24 C25 1_555 1_555
C25 C26 1_555 1_555
C26 C27 1_555 1_555
C27 H17 1_555 1_555
H18 C27 1_555 1_555
H19 C27 1_555 1_555
C28 C23 1_555 1_555
H20 C28 1_555 1_555
H21 C28 1_555 1_555
H22 C28 1_555 1_555
C29 C25 1_555 1_555
C30 C15 1_555 1_555
C31 C24 1_555 1_555
C32 C6 1_555 1_555
Cu1 O11 1_555 1_555
Cu2 O10 1_555 1_555
Cu3 O9 1_555 1_555
Cu4 O7 1_555 1_555
N1 C8 1_555 1_555
N2 C20 1_555 1_555
O9 C3 1_555 1_555
O10 C3 1_555 1_555
O11 Cu2 1_555 1_555
O12 Cu1 1_555 1_555
O13 C17 1_555 1_555
O14 C17 1_555 1_555
O15 C16 1_555 1_555
O16 C16 1_555 1_555
O17 C29 1_555 1_555
H23 O17 1_555 1_555
O18 C29 1_555 1_555
O19 C30 1_555 1_555
O20 C31 1_555 1_555
O21 Cu3 1_555 1_555
H24 O21 1_555 1_555
H25 O21 1_555 1_555
O22 Cu3 1_555 1_555
C33 O22 1_555 1_555
H26 C33 1_555 1_555
N3 C33 1_555 1_555
C34 N3 1_555 1_555
H27 C34 1_555 1_555
H28 C34 1_555 1_555
H29 C34 1_555 1_555
C35 N3 1_555 1_555
H30 C35 1_555 1_555
H31 C35 1_555 1_555
H32 C35 1_555 1_555
H33 O15 1_555 1_555
H34 O11 1_555 1_555
H35 O12 1_555 1_555
O1C Cu3 1_555 1_555
O2C Cu1 1_555 1_555
O3A Cu1 1_555 1_555
O4A Cu2 1_555 1_555
O5C Cu2 1_555 1_555
O6C Cu4 1_555 1_555
Cu1A O3 1_555 1_555
Cu1C O2 1_555 1_555
Cu2A O4 1_555 1_555
Cu2C O5 1_555 1_555
Cu3C O1 1_555 1_555
Cu4C O6 1_555 1_555
O8 Cu4 1_555 1_555
C8 C9 1_555 1_555
C11 N1 1_555 1_555
C12 N1 1_555 1_555
C14 C15 1_555 1_555
C18 C22 1_555 1_555
C23 N2 1_555 1_555
C26 N2 1_555 1_555
Cu1 O13 1_555 1_555
Cu2 O12 1_555 1_555
Cu3 O11 1_555 1_555
Cu4 O12 1_555 1_555
Cu4 O14 1_555 1_555

#END
