
#######################################################################
#
#                 Cambridge Crystallographic Data Centre
#                                CCDC 
#
#######################################################################
#
# If this CIF has been generated from an entry in the Cambridge 
# Structural Database, then it will include bibliographic, chemical, 
# crystal, experimental, refinement or atomic coordinate data resulting 
# from the CCDC's data processing and validation procedures.
#
#######################################################################

data_ICODIP
_chemical_formula_moiety         '(C54 H26 N12 O25 Zn2)n'
_symmetry_cell_setting           cubic
_symmetry_space_group_name_H-M   'I 41 3 2'
_symmetry_Int_Tables_number      214
_space_group_name_Hall           'I 4bd 2c 3'
loop_
_symmetry_equiv_pos_site_id
_symmetry_equiv_pos_as_xyz
1 x,y,z
2 1/2-x,-y,1/2+z
3 -x,1/2+y,1/2-z
4 1/2+x,1/2-y,-z
5 z,x,y
6 1/2+z,1/2-x,-y
7 1/2-z,-x,1/2+y
8 -z,1/2+x,1/2-y
9 y,z,x
10 -y,1/2+z,1/2-x
11 1/2+y,1/2-z,-x
12 1/2-y,-z,1/2+x
13 3/4+y,1/4+x,1/4-z
14 3/4-y,3/4-x,3/4-z
15 1/4+y,1/4-x,3/4+z
16 1/4-y,3/4+x,1/4+z
17 3/4+x,1/4+z,1/4-y
18 1/4-x,3/4+z,1/4+y
19 3/4-x,3/4-z,3/4-y
20 1/4+x,1/4-z,3/4+y
21 3/4+z,1/4+y,1/4-x
22 1/4+z,1/4-y,3/4+x
23 1/4-z,3/4+y,1/4+x
24 3/4-z,3/4-y,3/4-x
25 1/2+x,1/2+y,1/2+z
26 -x,1/2-y,z
27 1/2-x,y,-z
28 x,-y,1/2-z
29 1/2+z,1/2+x,1/2+y
30 z,-x,1/2-y
31 -z,1/2-x,y
32 1/2-z,x,-y
33 1/2+y,1/2+z,1/2+x
34 1/2-y,z,-x
35 y,-z,1/2-x
36 -y,1/2-z,x
37 1/4+y,3/4+x,3/4-z
38 1/4-y,1/4-x,1/4-z
39 3/4+y,3/4-x,1/4+z
40 3/4-y,1/4+x,3/4+z
41 1/4+x,3/4+z,3/4-y
42 3/4-x,1/4+z,3/4+y
43 1/4-x,1/4-z,1/4-y
44 3/4+x,3/4-z,1/4+y
45 1/4+z,3/4+y,3/4-x
46 3/4+z,3/4-y,1/4+x
47 3/4-z,1/4+y,3/4+x
48 1/4-z,1/4-y,1/4-x
_cell_length_a                   35.9299(12)
_cell_length_b                   35.9299(12)
_cell_length_c                   35.9299(12)
_cell_angle_alpha                90
_cell_angle_beta                 90
_cell_angle_gamma                90
_cell_volume                     46384
loop_
_atom_site_label
_atom_site_type_symbol
_atom_site_fract_x
_atom_site_fract_y
_atom_site_fract_z
_atom_site_U_iso_or_equiv
_atom_site_thermal_displace_type
Zn1 Zn 0.7500 1.10961(2) 0.0000 0.0417 Uani
Zn2 Zn 0.6250 1.125640(17) 0.124360(17) 0.0630 Uani
C1 C 0.87879(14) 0.99987(12) 0.01244(13) 0.0490 Uani
O1 O 0.61913(9) 1.17948(11) 0.12752(12) 0.0763 Uani
O2 O 0.72529(9) 1.13553(8) 0.04133(8) 0.0488 Uani
N1 N 0.77181(11) 1.21726(12) 0.17797(11) 0.0577 Uani
H1 H 0.7924 1.2050 0.1771 0.0690 Uiso
N2 N 0.95355(10) 0.99595(12) -0.05452(11) 0.0497 Uani
N3 N 0.79761(10) 1.24306(10) 0.23095(10) 0.0437 Uani
C2 C 0.82214(14) 0.99685(14) 0.06514(13) 0.0557 Uani
H2 H 0.8033 0.9957 0.0828 0.0670 Uiso
N4 N 0.90563(11) 1.00314(11) -0.01460(10) 0.0527 Uani
H3 H 0.9029 1.0226 -0.0283 0.0630 Uiso
C3 C 0.79023(12) 1.05229(13) 0.03324(14) 0.0450 Uani
C4 C 0.77039(12) 1.24365(12) 0.20443(13) 0.0397 Uani
O3 O 0.76410(12) 1.05103(11) 0.05529(12) 0.0893 Uani
C5 C 0.87797(13) 0.97265(13) 0.04004(13) 0.0497 Uani
H4 H 0.8965 0.9546 0.0409 0.0600 Uiso
C6 C 0.70831(13) 1.21092(14) 0.15614(12) 0.0503 Uani
H5 H 0.6996 1.2232 0.1772 0.0600 Uiso
O4 O 0.78069(11) 1.15939(12) 0.05063(11) 0.0897 Uani
C7 C 0.74597(14) 1.20670(12) 0.15220(12) 0.0437 Uani
C8 C 0.84941(14) 0.97242(13) 0.06651(13) 0.0477 Uani
C9 C 0.75805(13) 1.18943(12) 0.11989(14) 0.0513 Uani
H6 H 0.7835 1.1874 0.1156 0.0610 Uiso
C10 C 0.85018(14) 1.02464(14) 0.01228(13) 0.0567 Uani
H7 H 0.8502 1.0429 -0.0061 0.0680 Uiso
C11 C 0.68322(12) 1.19839(14) 0.13153(14) 0.0533 Uani
C12 C 0.69711(16) 1.17779(14) 0.10076(14) 0.0573 Uani
H8 H 0.6803 1.1659 0.0851 0.0690 Uiso
C13 C 0.73354(13) 1.17496(13) 0.09355(13) 0.0423 Uani
C14 C 0.93520(13) 0.98237(15) -0.02416(14) 0.0513 Uani
C15 C 0.74794(15) 1.15575(14) 0.06106(13) 0.0473 Uani
O5 O 0.63335(12) 1.2370(2) 0.1490(2) 0.1763 Uani
C16 C 0.82077(13) 1.02464(13) 0.03772(13) 0.0503 Uani
O6 O 0.79300(8) 1.07650(9) 0.00834(9) 0.0520 Uani
C17 C 0.64163(17) 1.2022(2) 0.13771(17) 0.0923 Uani
O7 O 0.86787(11) 0.91293(10) 0.08906(11) 0.0757 Uani
O8 O 0.83328(12) 0.94804(12) 0.12518(12) 0.0877 Uani
C18 C 0.84990(17) 0.94210(17) 0.09714(17) 0.0633 Uani
Zn1G Zn 1.0000 1.2500 0.39039(2) 0.0417 Uani
Zn1J Zn 0.60961(2) 1.5000 0.2500 0.0417 Uani
Zn1D Zn 1.0000 0.7500 0.10961(2) 0.0417 Uani
Zn1H Zn 1.10961(2) 1.0000 -0.2500 0.0417 Uani
Zn2G Zn 0.875640(17) 1.1250 0.374360(17) 0.0630 Uani
Zn2J Zn 0.625640(17) 1.375640(17) 0.3750 0.0630 Uani
Zn2L Zn 0.875640(17) 0.8750 0.125640(17) 0.0630 Uani
Zn2S Zn 0.8750 1.125640(17) -0.124360(17) 0.0630 Uani
Zn2V Zn 1.125640(17) 0.875640(17) -0.1250 0.0630 Uani
C1D C 1.01244(13) 0.87879(14) -0.00013(12) 0.0490 Uani
C1H C 0.99987(12) 1.01244(13) -0.12121(14) 0.0490 Uani
O1G O 0.87248(12) 1.11913(9) 0.32052(11) 0.0763 Uani
O1J O 0.67948(11) 1.37248(12) 0.38087(9) 0.0763 Uani
O1PA O 0.63087(9) 1.12248(12) 0.07052(11) 0.0763 Uani
O2G O 0.95867(8) 1.22529(9) 0.36447(8) 0.0488 Uani
O2J O 0.63553(8) 1.45867(8) 0.27471(9) 0.0488 Uani
O2Z O 0.77471(9) 1.13553(8) -0.04133(8) 0.0488 Uani
N1G N 0.82203(11) 1.27181(11) 0.28274(12) 0.0577 Uani
N1J N 0.71726(12) 1.32203(11) 0.22819(11) 0.0577 Uani
H1G H 0.8229 1.2924 0.2950 0.0690 Uiso
H1J H 0.7050 1.3229 0.2076 0.0690 Uiso
N2D N 0.94548(11) 0.95355(10) -0.00405(12) 0.0497 Uani
N2H N 0.99595(12) 0.94548(11) -0.04645(10) 0.0497 Uani
N3G N 0.76905(10) 1.29761(10) 0.25694(10) 0.0437 Uani
N3J N 0.74306(10) 1.26905(10) 0.20239(10) 0.0437 Uani
C2D C 1.06514(13) 0.82214(14) -0.00315(14) 0.0557 Uani
C2H C 0.99685(14) 1.06514(13) -0.17786(14) 0.0557 Uani
H2D H 1.0828 0.8033 -0.0043 0.0670 Uiso
H2H H 0.9957 1.0828 -0.1967 0.0670 Uiso
N4D N 0.98540(10) 0.90563(11) 0.00314(11) 0.0527 Uani
N4H N 1.00314(11) 0.98540(10) -0.09437(11) 0.0527 Uani
H3D H 0.9717 0.9029 0.0226 0.0630 Uiso
H3H H 1.0226 0.9717 -0.0971 0.0630 Uiso
C3D C 1.03324(14) 0.79023(12) 0.05229(13) 0.0450 Uani
C3H C 1.05229(13) 1.03324(14) -0.20977(12) 0.0450 Uani
C4G C 0.79557(13) 1.27039(12) 0.25635(12) 0.0397 Uani
C4J C 0.74365(12) 1.29557(13) 0.22961(12) 0.0397 Uani
O3D O 1.05529(12) 0.76410(12) 0.05103(11) 0.0893 Uani
O3H O 1.05103(11) 1.05529(12) -0.23590(12) 0.0893 Uani
C5D C 1.04004(13) 0.87797(13) -0.02735(13) 0.0497 Uani
C5H C 0.97265(13) 1.04004(13) -0.12203(13) 0.0497 Uani
H4D H 1.0409 0.8965 -0.0454 0.0600 Uiso
H4H H 0.9546 1.0409 -0.1035 0.0600 Uiso
C6G C 0.84386(12) 1.20831(13) 0.28908(14) 0.0503 Uani
C6J C 0.71092(14) 1.34386(12) 0.29169(13) 0.0503 Uani
H5G H 0.8228 1.1996 0.2768 0.0600 Uiso
H5J H 0.7232 1.3228 0.3004 0.0600 Uiso
O4G O 0.94937(11) 1.28069(11) 0.34061(12) 0.0897 Uani
O4J O 0.65939(12) 1.44937(11) 0.21931(11) 0.0897 Uani
C7G C 0.84780(12) 1.24597(14) 0.29330(12) 0.0437 Uani
C7J C 0.70670(12) 1.34780(12) 0.25403(14) 0.0437 Uani
C8D C 1.06651(13) 0.84941(14) -0.02758(13) 0.0477 Uani
C8H C 0.97242(13) 1.06651(13) -0.15059(14) 0.0477 Uani
C9G C 0.88011(14) 1.25805(13) 0.31057(12) 0.0513 Uani
C9J C 0.68943(12) 1.38011(14) 0.24195(13) 0.0513 Uani
H6G H 0.8844 1.2835 0.3126 0.0610 Uiso
H6J H 0.6874 1.3844 0.2165 0.0610 Uiso
C10D C 1.01228(13) 0.85018(14) 0.02464(14) 0.0567 Uani
C10H C 1.02464(14) 1.01228(13) -0.14982(14) 0.0567 Uani
H7D H 0.9939 0.8502 0.0429 0.0680 Uiso
H7H H 1.0429 0.9939 -0.1498 0.0680 Uiso
C11G C 0.86847(14) 1.18322(12) 0.30161(14) 0.0533 Uani
C11J C 0.69839(14) 1.36847(14) 0.31678(12) 0.0533 Uani
C12G C 0.89924(14) 1.19711(16) 0.32221(14) 0.0573 Uani
C12J C 0.67779(14) 1.39924(14) 0.30289(16) 0.0573 Uani
H8G H 0.9149 1.1803 0.3341 0.0690 Uiso
H8J H 0.6659 1.4149 0.3197 0.0690 Uiso
C13G C 0.90645(13) 1.23354(13) 0.32504(13) 0.0423 Uani
C13J C 0.67496(13) 1.40645(13) 0.26646(13) 0.0423 Uani
C14D C 0.97584(14) 0.93520(13) -0.01763(15) 0.0513 Uani
C14H C 0.98237(15) 0.97584(14) -0.06480(13) 0.0513 Uani
C15G C 0.93894(13) 1.24794(15) 0.34425(14) 0.0473 Uani
C15J C 0.65575(14) 1.43894(13) 0.25206(15) 0.0473 Uani
O5G O 0.8510(2) 1.13335(12) 0.2630(2) 0.1763 Uani
O5J O 0.7370(2) 1.3510(2) 0.36665(12) 0.1763 Uani
C16D C 1.03772(13) 0.82077(13) 0.02464(13) 0.0503 Uani
C16H C 1.02464(13) 1.03772(13) -0.17923(13) 0.0503 Uani
O6D O 1.00834(9) 0.79300(8) 0.07650(9) 0.0520 Uani
O6H O 1.07650(9) 1.00834(9) -0.20700(8) 0.0520 Uani
O6Z O 0.70700(8) 1.07650(9) -0.00834(9) 0.0520 Uani
C17G C 0.86229(17) 1.14163(17) 0.2978(2) 0.0923 Uani
C17J C 0.7022(2) 1.36229(17) 0.35837(17) 0.0923 Uani
O7D O 1.08906(11) 0.86787(11) -0.08707(10) 0.0757 Uani
O7H O 0.91293(10) 1.08906(11) -0.13213(11) 0.0757 Uani
O7L O 0.66293(10) 1.11787(11) 0.16094(11) 0.0757 Uani
O7GA O 0.58707(10) 1.08906(11) 0.13213(11) 0.0757 Uani
O8D O 1.12518(12) 0.83328(12) -0.05196(12) 0.0877 Uani
O8H O 0.94804(12) 1.12518(12) -0.16672(12) 0.0877 Uani
C18D C 1.09714(17) 0.84990(17) -0.05790(17) 0.0633 Uani
C18H C 0.94210(17) 1.09714(17) -0.15010(17) 0.0633 Uani
O9 O 0.82867(7) 0.94340(7) 0.18864(7) 0.0360 Uiso
loop_
_atom_site_aniso_label
_atom_site_aniso_U_11
_atom_site_aniso_U_22
_atom_site_aniso_U_33
_atom_site_aniso_U_23
_atom_site_aniso_U_13
_atom_site_aniso_U_12
Zn1 0.0424(5) 0.0414(5) 0.0414(5) 0.000 0.0106(4) 0.000
Zn2 0.0371(5) 0.0760(4) 0.0760(4) 0.0086(5) -0.0074(3) -0.0074(3)
C1 0.061(3) 0.031(3) 0.055(3) 0.009(3) 0.013(3) 0.019(3)
O1 0.042(2) 0.077(3) 0.110(3) -0.007(2) -0.028(2) -0.014(2)
O2 0.059(2) 0.052(2) 0.0354(19) -0.0112(16) 0.0029(16) -0.0004(17)
N1 0.047(3) 0.071(3) 0.055(3) -0.030(2) -0.022(2) 0.028(2)
N2 0.041(2) 0.058(3) 0.050(3) 0.015(2) 0.014(2) 0.016(2)
N3 0.039(2) 0.042(3) 0.050(3) -0.007(2) -0.008(2) 0.0022(18)
C2 0.054(3) 0.063(3) 0.050(3) 0.023(3) 0.027(2) -0.008(3)
N4 0.041(2) 0.054(3) 0.063(3) 0.023(2) 0.019(2) 0.014(2)
C3 0.033(3) 0.050(3) 0.052(3) 0.005(3) 0.025(3) 0.005(2)
C4 0.041(3) 0.028(3) 0.050(3) -0.003(2) -0.002(3) 0.007(3)
O3 0.107(3) 0.076(3) 0.085(3) 0.032(2) 0.036(3) 0.044(2)
C5 0.045(3) 0.052(3) 0.052(3) 0.017(3) 0.005(3) 0.013(2)
C6 0.043(3) 0.076(4) 0.032(3) -0.022(3) 0.013(2) -0.003(3)
O4 0.054(3) 0.126(4) 0.089(3) -0.054(3) 0.029(2) -0.024(2)
C7 0.047(3) 0.045(3) 0.039(3) -0.013(2) -0.001(3) 0.019(2)
C8 0.045(3) 0.047(3) 0.051(3) 0.008(3) 0.003(3) 0.011(3)
C9 0.038(3) 0.047(3) 0.069(4) -0.015(3) 0.004(3) -0.001(2)
C10 0.069(4) 0.058(3) 0.043(3) 0.019(2) 0.013(3) 0.005(3)
C11 0.028(3) 0.075(4) 0.057(3) -0.025(3) 0.011(3) -0.017(2)
C12 0.069(4) 0.055(3) 0.048(3) -0.020(3) -0.003(3) -0.025(3)
C13 0.033(3) 0.045(3) 0.049(3) -0.001(2) 0.000(3) 0.009(2)
C14 0.040(3) 0.072(4) 0.042(3) 0.014(3) -0.004(3) 0.005(3)
C15 0.037(3) 0.063(3) 0.042(3) -0.003(3) 0.001(3) 0.015(3)
O5 0.056(3) 0.213(7) 0.260(7) -0.139(6) 0.013(4) -0.005(3)
C16 0.048(3) 0.052(3) 0.051(3) 0.003(3) 0.013(3) -0.004(3)
O6 0.044(2) 0.055(2) 0.057(2) 0.0130(19) 0.0115(17) 0.0052(16)
C17 0.051(4) 0.142(6) 0.084(5) -0.079(4) 0.000(3) 0.034(4)
O7 0.100(3) 0.040(2) 0.087(3) 0.030(2) 0.016(2) 0.014(2)
O8 0.116(3) 0.104(3) 0.043(2) 0.007(2) 0.021(3) 0.022(3)
C18 0.075(4) 0.058(4) 0.057(4) 0.028(3) -0.009(3) -0.011(3)
Zn1G 0.0414 0.0424 0.0414 0 0 -0.0106
Zn1J 0.0414 0.0414 0.0424 0.0106 0 0
Zn1D 0.0414 0.0424 0.0414 0 0 0.0106
Zn1H 0.0414 0.0414 0.0424 0.0106 0 0
Zn2G 0.076 0.0371 0.076 0.0074 0.0086 0.0074
Zn2J 0.076 0.076 0.0371 -0.0074 0.0074 -0.0086
Zn2L 0.076 0.0371 0.076 0.0074 -0.0086 -0.0074
Zn2S 0.0371 0.076 0.076 -0.0086 -0.0074 0.0074
Zn2V 0.076 0.076 0.0371 -0.0074 0.0074 -0.0086
C1D 0.055 0.061 0.031 0.019 0.009 0.013
C1H 0.031 0.055 0.061 0.013 0.019 0.009
O1G 0.11 0.042 0.077 0.014 -0.007 0.028
O1J 0.077 0.11 0.042 -0.028 0.014 0.007
O1PA 0.042 0.11 0.077 -0.007 -0.014 -0.028
O2G 0.0354 0.059 0.052 0.0004 -0.0112 -0.0029
O2J 0.052 0.0354 0.059 0.0029 0.0004 0.0112
O2Z 0.059 0.052 0.0354 0.0112 0.0029 0.0004
N1G 0.055 0.047 0.071 -0.028 -0.03 0.022
N1J 0.071 0.055 0.047 -0.022 -0.028 0.03
N2D 0.05 0.041 0.058 0.016 0.015 0.014
N2H 0.058 0.05 0.041 0.014 0.016 0.015
N3G 0.05 0.039 0.042 -0.0022 -0.007 0.008
N3J 0.042 0.05 0.039 -0.008 -0.0022 0.007
C2D 0.05 0.054 0.063 -0.008 0.023 0.027
C2H 0.063 0.05 0.054 0.027 -0.008 0.023
N4D 0.063 0.041 0.054 0.014 0.023 0.019
N4H 0.054 0.063 0.041 0.019 0.014 0.023
C3D 0.052 0.033 0.05 0.005 0.005 0.025
C3H 0.05 0.052 0.033 0.025 0.005 0.005
C4G 0.05 0.041 0.028 -0.007 -0.003 0.002
C4J 0.028 0.05 0.041 -0.002 -0.007 0.003
O3D 0.085 0.107 0.076 0.044 0.032 0.036
O3H 0.076 0.085 0.107 0.036 0.044 0.032
C5D 0.052 0.045 0.052 0.013 0.017 0.005
C5H 0.052 0.052 0.045 0.005 0.013 0.017
C6G 0.032 0.043 0.076 0.003 -0.022 -0.013
C6J 0.076 0.032 0.043 0.013 0.003 0.022
O4G 0.089 0.054 0.126 0.024 -0.054 -0.029
O4J 0.126 0.089 0.054 0.029 0.024 0.054
C7G 0.039 0.047 0.045 -0.019 -0.013 0.001
C7J 0.045 0.039 0.047 -0.001 -0.019 0.013
C8D 0.051 0.045 0.047 0.011 0.008 0.003
C8H 0.047 0.051 0.045 0.003 0.011 0.008
C9G 0.069 0.038 0.047 0.001 -0.015 -0.004
C9J 0.047 0.069 0.038 0.004 0.001 0.015
C10D 0.043 0.069 0.058 0.005 0.019 0.013
C10H 0.058 0.043 0.069 0.013 0.005 0.019
C11G 0.057 0.028 0.075 0.017 -0.025 -0.011
C11J 0.075 0.057 0.028 0.011 0.017 0.025
C12G 0.048 0.069 0.055 0.025 -0.02 0.003
C12J 0.055 0.048 0.069 -0.003 0.025 0.02
C13G 0.049 0.033 0.045 -0.009 -0.001 0
C13J 0.045 0.049 0.033 0 -0.009 0.001
C14D 0.042 0.04 0.072 0.005 0.014 -0.004
C14H 0.072 0.042 0.04 -0.004 0.005 0.014
C15G 0.042 0.037 0.063 -0.015 -0.003 -0.001
C15J 0.063 0.042 0.037 0.001 -0.015 0.003
O5G 0.26 0.056 0.213 0.005 -0.139 -0.013
O5J 0.213 0.26 0.056 0.013 0.005 0.139
C16D 0.051 0.048 0.052 -0.004 0.003 0.013
C16H 0.052 0.051 0.048 0.013 -0.004 0.003
O6D 0.057 0.044 0.055 0.0052 0.013 0.0115
O6H 0.055 0.057 0.044 0.0115 0.0052 0.013
O6Z 0.044 0.055 0.057 -0.013 0.0115 -0.0052
C17G 0.084 0.051 0.142 -0.034 -0.079 0
C17J 0.142 0.084 0.051 0 -0.034 0.079
O7D 0.087 0.1 0.04 0.014 0.03 0.016
O7H 0.04 0.087 0.1 0.016 0.014 0.03
O7L 0.04 0.1 0.087 -0.016 -0.03 0.014
O7GA 0.04 0.087 0.1 -0.016 0.014 -0.03
O8D 0.043 0.116 0.104 0.022 0.007 0.021
O8H 0.104 0.043 0.116 0.021 0.022 0.007
C18D 0.057 0.075 0.058 -0.011 0.028 -0.009
C18H 0.058 0.057 0.075 -0.009 -0.011 0.028
loop_
_geom_bond_atom_site_label_1
_geom_bond_atom_site_label_2
_geom_bond_site_symmetry_1
_geom_bond_site_symmetry_2
Zn1 O2 1_555 1_555
Zn2 O1 1_555 1_555
C1 N4 1_555 1_555
O1 C17 1_555 1_555
O2 C15 1_555 1_555
N1 H1 1_555 1_555
N2 C14 1_555 1_555
N3 C4 1_555 1_555
C2 H2 1_555 1_555
N4 H3 1_555 1_555
C3 O3 1_555 1_555
C4 N1 1_555 1_555
C5 C1 1_555 1_555
H4 C5 1_555 1_555
C6 H5 1_555 1_555
O4 C15 1_555 1_555
C7 N1 1_555 1_555
C8 C2 1_555 1_555
C9 C7 1_555 1_555
H6 C9 1_555 1_555
C10 C1 1_555 1_555
H7 C10 1_555 1_555
C11 C6 1_555 1_555
C12 C11 1_555 1_555
H8 C12 1_555 1_555
C13 C9 1_555 1_555
C14 N4 1_555 1_555
C15 C13 1_555 1_555
O5 C17 1_555 1_555
C16 C2 1_555 1_555
O6 Zn1 1_555 1_555
C17 C11 1_555 1_555
O7 C18 1_555 1_555
O8 C18 1_555 1_555
C18 C8 1_555 1_555
Zn1G O2G 1_555 1_555
Zn1J O2J 1_555 1_555
Zn1D O6D 1_555 1_555
Zn1H O6H 1_555 1_555
Zn2G O1G 1_555 1_555
Zn2J O1J 1_555 1_555
Zn2L O7 1_555 1_555
Zn2S O7H 1_555 1_555
Zn2V O7D 1_555 1_555
C1D N4D 1_555 1_555
C1H N4H 1_555 1_555
O1G C17G 1_555 1_555
O1J C17J 1_555 1_555
O1PA Zn2 1_555 1_555
O2G C15G 1_555 1_555
O2J C15J 1_555 1_555
O2Z Zn1 1_555 1_555
N1G H1G 1_555 1_555
N1J H1J 1_555 1_555
N2D C14 1_555 1_555
N2H C14D 1_555 1_555
N3G C4G 1_555 1_555
N3J C4 1_555 1_555
C2D H2D 1_555 1_555
C2H H2H 1_555 1_555
N4D H3D 1_555 1_555
N4H H3H 1_555 1_555
C3D O3D 1_555 1_555
C3H O3H 1_555 1_555
C4G N3 1_555 1_555
C4J N1J 1_555 1_555
C5D C1D 1_555 1_555
C5H C1H 1_555 1_555
H4D C5D 1_555 1_555
H4H C5H 1_555 1_555
C6G H5G 1_555 1_555
C6J H5J 1_555 1_555
O4G C15G 1_555 1_555
O4J C15J 1_555 1_555
C7G N1G 1_555 1_555
C7J N1J 1_555 1_555
C8D C2D 1_555 1_555
C8H C2H 1_555 1_555
C9G C7G 1_555 1_555
C9J C7J 1_555 1_555
H6G C9G 1_555 1_555
H6J C9J 1_555 1_555
C10D C1D 1_555 1_555
C10H C1H 1_555 1_555
H7D C10D 1_555 1_555
H7H C10H 1_555 1_555
C11G C6G 1_555 1_555
C11J C6J 1_555 1_555
C12G C11G 1_555 1_555
C12J C11J 1_555 1_555
H8G C12G 1_555 1_555
H8J C12J 1_555 1_555
C13G C9G 1_555 1_555
C13J C9J 1_555 1_555
C14D N2D 1_555 1_555
C14H N2 1_555 1_555
C15G C13G 1_555 1_555
C15J C13J 1_555 1_555
O5G C17G 1_555 1_555
O5J C17J 1_555 1_555
C16D C2D 1_555 1_555
C16H C2H 1_555 1_555
O6D C3D 1_555 1_555
O6H C3H 1_555 1_555
O6Z Zn1 1_555 1_555
C17G C11G 1_555 1_555
C17J C11J 1_555 1_555
O7D C18D 1_555 1_555
O7H C18H 1_555 1_555
O7L Zn2 1_555 1_555
O7GA Zn2 1_555 1_555
O8D C18D 1_555 1_555
O8H C18H 1_555 1_555
C18D C8D 1_555 1_555
C18H C8H 1_555 1_555
C3 C16 1_555 1_555
C3 O6 1_555 1_555
C5 C8 1_555 1_555
C6 C7 1_555 1_555
C10 C16 1_555 1_555
C12 C13 1_555 1_555
N1G C4G 1_555 1_555
N2H C14H 1_555 1_555
N3G C4J 1_555 1_555
N3J C4J 1_555 1_555
N4D C14D 1_555 1_555
N4H C14H 1_555 1_555
C3D C16D 1_555 1_555
C3H C16H 1_555 1_555
C5D C8D 1_555 1_555
C5H C8H 1_555 1_555
C6G C7G 1_555 1_555
C6J C7J 1_555 1_555
C10D C16D 1_555 1_555
C10H C16H 1_555 1_555
C12G C13G 1_555 1_555
C12J C13J 1_555 1_555

#END
