
#######################################################################
#
#                 Cambridge Crystallographic Data Centre
#                                CCDC 
#
#######################################################################
#
# If this CIF has been generated from an entry in the Cambridge 
# Structural Database, then it will include bibliographic, chemical, 
# crystal, experimental, refinement or atomic coordinate data resulting 
# from the CCDC's data processing and validation procedures.
#
#######################################################################

data_DOMCUE
_chemical_formula_moiety         '(C31 H21 Cl12 N3 O9 Tb1)n'
_symmetry_cell_setting           tetragonal
_symmetry_space_group_name_H-M   'I 41/a'
_symmetry_Int_Tables_number      88
_space_group_name_Hall           '-I 4ad'
loop_
_symmetry_equiv_pos_site_id
_symmetry_equiv_pos_as_xyz
1 x,y,z
2 3/4-y,1/4+x,1/4+z
3 1/4+y,1/4-x,1/4+z
4 1/2+x,1/2+y,1/2+z
5 1/4-y,3/4+x,3/4+z
6 -x,1/2-y,z
7 1/2-x,-y,1/2+z
8 3/4+y,3/4-x,3/4+z
9 -x,-y,-z
10 1/4+y,3/4-x,3/4-z
11 3/4-y,3/4+x,3/4-z
12 1/2-x,1/2-y,1/2-z
13 3/4+y,1/4-x,1/4-z
14 x,1/2+y,-z
15 1/2+x,y,1/2-z
16 1/4-y,1/4+x,1/4-z
_cell_length_a                   27.920(5)
_cell_length_b                   27.920(5)
_cell_length_c                   46.940(5)
_cell_angle_alpha                90
_cell_angle_beta                 90
_cell_angle_gamma                90
_cell_volume                     36591
loop_
_atom_site_label
_atom_site_type_symbol
_atom_site_fract_x
_atom_site_fract_y
_atom_site_fract_z
_atom_site_U_iso_or_equiv
_atom_site_thermal_displace_type
C1 C 0.7312(4) 0.0855(5) 0.2912(2) 0.0830 Uani
C2 C 0.6826(3) 0.0805(3) 0.3053(2) 0.0637 Uani
C3 C 0.6443(4) 0.0594(3) 0.29106(18) 0.0630 Uani
C4 C 0.6006(3) 0.0555(3) 0.3034(2) 0.0603 Uani
C5 C 0.5918(3) 0.0721(3) 0.33156(18) 0.0513 Uani
C6 C 0.6304(3) 0.0914(3) 0.34625(16) 0.0503 Uani
C7 C 0.6748(3) 0.0958(3) 0.3328(2) 0.0633 Uani
C8 C 0.5432(3) 0.0693(3) 0.34443(17) 0.0717 Uani
C9 C 0.3749(3) 0.1307(3) 0.2811(2) 0.0577 Uani
C10 C 0.4180(3) 0.1155(3) 0.29834(16) 0.0517 Uani
C11 C 0.4201(3) 0.0713(3) 0.31147(17) 0.0557 Uani
C12 C 0.4595(3) 0.0564(3) 0.32595(15) 0.0523 Uani
C13 C 0.5013(3) 0.0853(3) 0.32809(15) 0.0527 Uani
C14 C 0.4987(3) 0.1297(3) 0.31445(16) 0.0523 Uani
C15 C 0.4572(3) 0.1443(3) 0.30034(14) 0.0490 Uani
C16 C 0.5065(4) 0.0001(3) 0.45830(19) 0.0557 Uani
C17 C 0.5177(3) 0.0183(3) 0.42872(17) 0.0527 Uani
C18 C 0.5001(3) 0.0622(3) 0.42006(16) 0.0513 Uani
C19 C 0.5097(3) 0.0803(3) 0.39340(19) 0.0527 Uani
C20 C 0.5360(3) 0.0529(3) 0.37344(17) 0.0537 Uani
C21 C 0.5539(3) 0.0076(3) 0.38293(18) 0.0567 Uani
C22 C 0.5443(3) -0.0090(3) 0.40988(19) 0.0500 Uani
C23 C 0.8561(4) 0.2656(5) 0.25978(16) 0.0687 Uani
H1 H 0.8258 0.2779 0.2560 0.0830 Uiso
C24 C 0.9384(4) 0.2818(4) 0.2712(2) 0.0983 Uani
H2 H 0.9480 0.2973 0.2885 0.1480 Uiso
H3 H 0.9601 0.2904 0.2562 0.1480 Uiso
H4 H 0.9390 0.2477 0.2738 0.1480 Uiso
C25 C 0.8797(4) 0.3465(3) 0.2605(2) 0.0850 Uani
H5 H 0.8992 0.3598 0.2457 0.1270 Uiso
H6 H 0.8862 0.3629 0.2781 0.1270 Uiso
H7 H 0.8465 0.3504 0.2557 0.1270 Uiso
C26 C 0.7661(3) 0.0967(4) 0.1990(3) 0.0887 Uani
H8 H 0.7770 0.1220 0.1879 0.1060 Uiso
C27 C 0.7501(4) 0.0548(4) 0.1541(2) 0.1070 Uani
H9 H 0.7674 0.0267 0.1483 0.1600 Uiso
H10 H 0.7649 0.0827 0.1460 0.1600 Uiso
H11 H 0.7176 0.0526 0.1477 0.1600 Uiso
C28 C 0.7410(6) 0.0134(5) 0.2014(3) 0.1663 Uani
H12 H 0.7077 0.0052 0.1997 0.2500 Uiso
H13 H 0.7486 0.0187 0.2211 0.2500 Uiso
H14 H 0.7603 -0.0122 0.1941 0.2500 Uiso
C29 C 0.8376(5) 0.1455(11) 0.3177(4) 0.2783 Uani
H15 H 0.8318 0.1783 0.3180 0.3320 Uiso
C30 C 0.8461(12) 0.0785(7) 0.3445(6) 0.3467 Uani
H16 H 0.8407 0.0654 0.3259 0.5150 Uiso
H17 H 0.8217 0.0674 0.3573 0.5150 Uiso
H18 H 0.8769 0.0685 0.3513 0.5150 Uiso
C31 C 0.8441(7) 0.1455(12) 0.3716(6) 0.6003 Uani
H19 H 0.8352 0.1784 0.3743 0.9020 Uiso
H20 H 0.8755 0.1403 0.3794 0.9020 Uiso
H21 H 0.8215 0.1252 0.3812 0.9020 Uiso
N1 N 0.8903(3) 0.2968(3) 0.26370(14) 0.0673 Uani
N2 N 0.7509(3) 0.0583(4) 0.1847(2) 0.0997 Uani
N3 N 0.8444(3) 0.1349(6) 0.3429(3) 0.1490 Uani
O1 O 0.7379(2) 0.1230(2) 0.27725(13) 0.0813 Uani
O2 O 0.7587(3) 0.0518(3) 0.29436(16) 0.1070 Uani
O3 O 0.3476(2) 0.1614(2) 0.29103(11) 0.0593 Uani
O4 O 0.3694(2) 0.1135(2) 0.25709(14) 0.0717 Uani
O5 O 0.4673(2) -0.0203(2) 0.46164(11) 0.0660 Uani
O6 O 0.5378(2) 0.00644(18) 0.47684(12) 0.0603 Uani
O7 O 0.85996(19) 0.2204(2) 0.26065(10) 0.0640 Uani
O8 O 0.7676(2) 0.1031(2) 0.22463(17) 0.0903 Uani
O9 O 0.8352(2) 0.1365(2) 0.29677(14) 0.0810 Uani
Cl1 Cl 0.65409(10) 0.03809(9) 0.25696(5) 0.0901 Uani
Cl2 Cl 0.55539(8) 0.02616(9) 0.28493(5) 0.0801 Uani
Cl3 Cl 0.62325(7) 0.11428(7) 0.37980(4) 0.0624 Uani
Cl4 Cl 0.72187(7) 0.12247(9) 0.35108(5) 0.0798 Uani
Cl5 Cl 0.36995(8) 0.03411(7) 0.30877(5) 0.0721 Uani
Cl6 Cl 0.46032(7) -0.00135(7) 0.33981(5) 0.0702 Uani
Cl7 Cl 0.54658(7) 0.16874(7) 0.31712(4) 0.0616 Uani
Cl8 Cl 0.45622(7) 0.20114(7) 0.28503(4) 0.0677 Uani
Cl9 Cl 0.46514(7) 0.09578(7) 0.44311(4) 0.0607 Uani
Cl10 Cl 0.49255(7) 0.13720(7) 0.38466(4) 0.0602 Uani
Cl11 Cl 0.58478(8) -0.02855(8) 0.35964(4) 0.0722 Uani
Cl12 Cl 0.56481(8) -0.06390(7) 0.42104(4) 0.0716 Uani
Tb1 Tb 0.800274(15) 0.160818(14) 0.254870(8) 0.0601 Uani
O3N O 0.8476(2) 0.1614(2) 0.20897(11) 0.0593 Uani
O4N O 0.8694(2) 0.1135(2) 0.24291(14) 0.0717 Uani
O5J O 0.7703(2) 0.2173(2) 0.28836(11) 0.0660 Uani
O6G O 0.75644(18) 0.2122(2) 0.22684(12) 0.0603 Uani
Tb1N Tb 0.300274(15) 0.160818(14) 0.245130(8) 0.0601 Uani
Tb1I Tb 0.410818(14) -0.050274(15) 0.495130(8) 0.0601 Uani
Tb1A Tb 0.589182(14) 0.050274(15) 0.504870(8) 0.0601 Uani
loop_
_atom_site_aniso_label
_atom_site_aniso_U_11
_atom_site_aniso_U_22
_atom_site_aniso_U_33
_atom_site_aniso_U_23
_atom_site_aniso_U_13
_atom_site_aniso_U_12
C1 0.065 0.083 0.101 -0.015 0.025 0.013
C2 0.069 0.06 0.062 0.004 0.023 0.007
C3 0.075 0.056 0.058 0.001 0.034 0.003
C4 0.073 0.058 0.05 0.018 -0.001 -0.005
C5 0.057 0.056 0.041 0.022 0.007 0.006
C6 0.042 0.059 0.05 0.01 0.004 0
C7 0.06 0.06 0.07 0.009 0.002 -0.004
C8 0.055 0.12 0.04 0.038 -0.004 0
C9 0.071 0.045 0.057 -0.001 -0.011 0.006
C10 0.043 0.064 0.048 -0.007 -0.022 0.005
C11 0.069 0.049 0.049 0.007 -0.005 0.011
C12 0.065 0.052 0.04 0.019 -0.005 0.008
C13 0.062 0.065 0.031 0.009 0.005 0.005
C14 0.052 0.066 0.039 0.005 0 -0.01
C15 0.066 0.058 0.023 0.004 -0.009 0.011
C16 0.063 0.059 0.045 0.014 -0.009 -0.006
C17 0.054 0.068 0.036 0.024 -0.004 -0.015
C18 0.059 0.066 0.029 0.021 0.002 -0.007
C19 0.036 0.068 0.054 0.01 0 0.005
C20 0.036 0.078 0.047 0.024 -0.004 -0.009
C21 0.044 0.075 0.051 0.006 0.006 0.005
C22 0.057 0.056 0.037 0.014 0.003 0.001
C23 0.089(8) 0.072(8) 0.045(6) -0.005(5) 0.031(5) 0.009(8)
C24 0.088(9) 0.111(8) 0.096(8) -0.016(6) -0.006(6) -0.004(7)
C25 0.107(8) 0.064(7) 0.084(7) -0.004(5) 0.030(6) -0.009(6)
C26 0.066(7) 0.063(8) 0.137(12) -0.011(8) 0.016(7) -0.011(6)
C27 0.128(9) 0.124(9) 0.069(9) -0.012(6) 0.007(6) -0.031(7)
C28 0.225(16) 0.158(13) 0.116(11) -0.032(10) 0.064(11) -0.069(12)
C29 0.096(10) 0.69(5) 0.049(12) 0.035(18) -0.027(10) 0.047(17)
C30 0.47(5) 0.28(3) 0.29(3) 0.04(3) -0.09(3) 0.00(3)
C31 0.121(15) 1.45(14) 0.23(3) -0.41(5) -0.001(16) 0.10(4)
N1 0.075(6) 0.065(6) 0.062(5) -0.013(4) 0.020(4) -0.022(6)
N2 0.099(6) 0.094(7) 0.106(9) -0.018(6) 0.050(5) -0.038(6)
N3 0.079(6) 0.270(15) 0.098(10) 0.010(9) 0.011(6) 0.016(8)
O1 0.097 0.077 0.07 0.009 0.033 -0.014
O2 0.076 0.097 0.148 0.019 0.061 0.013
O3 0.064 0.063 0.051 0.007 -0.02 0.007
O4 0.092 0.067 0.056 -0.017 -0.029 0.011
O5 0.072 0.076 0.05 0.027 -0.004 -0.01
O6 0.067 0.071 0.043 0.024 0.005 0.004
O7 0.066(4) 0.072(5) 0.054(4) -0.007(3) 0.021(3) 0.001(4)
O8 0.104(5) 0.093(5) 0.074(5) -0.018(4) 0.043(4) -0.021(4)
O9 0.099(5) 0.100(5) 0.044(5) 0.008(3) 0.012(4) 0.012(4)
Cl1 0.115 0.0917 0.0636 -0.0102 0.0308 0.0048
Cl2 0.0834 0.0989 0.058 -0.0037 -0.0026 -0.0024
Cl3 0.0622 0.0787 0.0464 0.0032 0.0064 0.0053
Cl4 0.0633 0.0927 0.0835 0.0003 0.0109 -0.0152
Cl5 0.0696 0.0604 0.0862 0.0075 -0.0253 -0.0119
Cl6 0.0722 0.0653 0.073 0.0215 -0.0072 0.0056
Cl7 0.0584 0.0763 0.05 0.0122 -0.003 -0.0081
Cl8 0.0744 0.062 0.0668 0.0179 -0.0141 -0.0028
Cl9 0.0635 0.0729 0.0458 0.0158 0.0087 0.0106
Cl10 0.0655 0.0666 0.0486 0.0235 0.0007 0.006
Cl11 0.0764 0.0876 0.0527 0.0071 0.0089 0.0174
Cl12 0.0889 0.0664 0.0594 0.0183 0.0042 0.0165
Tb1 0.0709(4) 0.0593(4) 0.0501(4) -0.00125(19) 0.0271(2) 0.0001(2)
O3N 0.064(4) 0.063(4) 0.051(4) -0.007(3) 0.020(3) 0.007(3)
O4N 0.092(4) 0.067(4) 0.056(4) 0.017(3) 0.029(3) 0.011(3)
O5J 0.076 0.072 0.05 0.004 0.027 0.01
O6G 0.071 0.067 0.043 -0.005 0.024 -0.004
Tb1N 0.0709 0.0593 0.0501 0.00125 -0.0271 0.0001
Tb1I 0.0593 0.0709 0.0501 0.0271 0.00125 -0.0001
Tb1A 0.0593 0.0709 0.0501 0.0271 0.00125 -0.0001
loop_
_geom_bond_atom_site_label_1
_geom_bond_atom_site_label_2
_geom_bond_site_symmetry_1
_geom_bond_site_symmetry_2
C1 C2 1_555 1_555
C2 C3 1_555 1_555
C3 C4 1_555 1_555
C4 C5 1_555 1_555
C5 C6 1_555 1_555
C6 C7 1_555 1_555
C7 C2 1_555 1_555
C8 C5 1_555 1_555
C9 C10 1_555 1_555
C10 C11 1_555 1_555
C11 C12 1_555 1_555
C12 C13 1_555 1_555
C13 C8 1_555 1_555
C14 C13 1_555 1_555
C15 C10 1_555 1_555
C16 C17 1_555 1_555
C17 C18 1_555 1_555
C18 C19 1_555 1_555
C19 C20 1_555 1_555
C20 C8 1_555 1_555
C21 C20 1_555 1_555
C22 C17 1_555 1_555
C23 H1 1_555 1_555
C24 H2 1_555 1_555
H3 C24 1_555 1_555
H4 C24 1_555 1_555
C25 H5 1_555 1_555
H6 C25 1_555 1_555
H7 C25 1_555 1_555
C26 H8 1_555 1_555
C27 H9 1_555 1_555
H10 C27 1_555 1_555
H11 C27 1_555 1_555
C28 H12 1_555 1_555
H13 C28 1_555 1_555
H14 C28 1_555 1_555
C29 H15 1_555 1_555
C30 H16 1_555 1_555
H17 C30 1_555 1_555
H18 C30 1_555 1_555
C31 H19 1_555 1_555
H20 C31 1_555 1_555
H21 C31 1_555 1_555
N1 C23 1_555 1_555
N2 C26 1_555 1_555
N3 C29 1_555 1_555
O1 C1 1_555 1_555
O2 C1 1_555 1_555
O3 C9 1_555 1_555
O4 C9 1_555 1_555
O5 C16 1_555 1_555
O6 C16 1_555 1_555
O7 C23 1_555 1_555
O8 C26 1_555 1_555
O9 C29 1_555 1_555
Cl1 C3 1_555 1_555
Cl2 C4 1_555 1_555
Cl3 C6 1_555 1_555
Cl4 C7 1_555 1_555
Cl5 C11 1_555 1_555
Cl6 C12 1_555 1_555
Cl7 C14 1_555 1_555
Cl8 C15 1_555 1_555
Cl9 C18 1_555 1_555
Cl10 C19 1_555 1_555
Cl11 C21 1_555 1_555
Cl12 C22 1_555 1_555
Tb1 O1 1_555 1_555
O3N Tb1 1_555 1_555
O4N Tb1 1_555 1_555
O5J Tb1 1_555 1_555
O6G Tb1 1_555 1_555
Tb1N O3 1_555 1_555
Tb1I O5 1_555 1_555
Tb1A O6 1_555 1_555
C14 C15 1_555 1_555
C21 C22 1_555 1_555
C24 N1 1_555 1_555
C25 N1 1_555 1_555
C27 N2 1_555 1_555
C28 N2 1_555 1_555
C30 N3 1_555 1_555
C31 N3 1_555 1_555
O4 Tb1N 1_555 1_555
O7 Tb1 1_555 1_555
O8 Tb1 1_555 1_555
O9 Tb1 1_555 1_555

#END
