
#######################################################################
#
#                 Cambridge Crystallographic Data Centre
#                                CCDC 
#
#######################################################################
#
# If this CIF has been generated from an entry in the Cambridge 
# Structural Database, then it will include bibliographic, chemical, 
# crystal, experimental, refinement or atomic coordinate data resulting 
# from the CCDC's data processing and validation procedures.
#
#######################################################################

data_NOQGIL
_chemical_formula_moiety         '(C59 H50 N16 O2 Zn4)n'
_symmetry_cell_setting           orthorhombic
_symmetry_space_group_name_H-M   'P n m a'
_symmetry_Int_Tables_number      62
_space_group_name_Hall           '-P 2ac 2n'
loop_
_symmetry_equiv_pos_site_id
_symmetry_equiv_pos_as_xyz
1 x,y,z
2 1/2-x,-y,1/2+z
3 -x,1/2+y,-z
4 1/2+x,1/2-y,1/2-z
5 -x,-y,-z
6 1/2+x,y,1/2-z
7 x,1/2-y,z
8 1/2-x,1/2+y,1/2+z
_cell_length_a                   15.014(3)
_cell_length_b                   20.223(4)
_cell_length_c                   19.843(4)
_cell_angle_alpha                90
_cell_angle_beta                 90
_cell_angle_gamma                90
_cell_volume                     6024.89
loop_
_atom_site_label
_atom_site_type_symbol
_atom_site_fract_x
_atom_site_fract_y
_atom_site_fract_z
Zn1 Zn 0.32141(8) 0.39760(7) 0.62661(6)
Zn2 Zn 0.27549(8) 0.60370(7) 0.41876(6)
N1 N 0.2729(6) 0.3067(5) 0.6140(5)
N2 N 0.2584(6) 0.4659(5) 0.5745(5)
N3 N 0.2392(6) 0.5472(5) 0.4951(5)
N4 N 0.4081(6) 0.6090(5) 0.4289(4)
N5 N 0.5565(6) 0.6051(5) 0.4125(5)
N6 N 0.2393(6) 0.5690(5) 0.3296(5)
N7 N 0.1943(6) 0.5708(5) 0.2206(5)
N8 N 0.2235(6) 0.6929(5) 0.4208(5)
C1 C 0.3908(15) 0.2500 0.6817(11)
H1 H 0.3817 0.2818 0.7170
C2 C 0.3109(11) 0.2500 0.6350(9)
C3 C 0.2109(7) 0.2839(5) 0.5683(6)
C4 C 0.1537(7) 0.3204(7) 0.5236(6)
H2 H 0.1545 0.3664 0.5219
C5 C 0.0974(7) 0.2834(6) 0.4832(7)
H3 H 0.0580 0.3054 0.4548
C6 C 0.2927(7) 0.5002(6) 0.5224(6)
H4 H 0.3498 0.4921 0.5061
C7 C 0.1747(7) 0.4921(6) 0.5795(6)
C8 C 0.1086(9) 0.4767(6) 0.6281(7)
H5 H 0.1196 0.4464 0.6624
C9 C 0.0286(9) 0.5079(8) 0.6227(8)
H6 H -0.0173 0.4962 0.6519
C10 C 0.0136(9) 0.5572(8) 0.5745(8)
H7 H -0.0413 0.5784 0.5727
C11 C 0.0798(8) 0.5744(8) 0.5295(8)
H8 H 0.0701 0.6076 0.4980
C12 C 0.1618(9) 0.5414(6) 0.5319(6)
C13 C 0.4617(11) 0.5748(12) 0.3197(10)
H9 H 0.5159 0.5776 0.2942
H10 H 0.4171 0.6022 0.2991
H11 H 0.4414 0.5298 0.3205
C14 C 0.4777(9) 0.5972(7) 0.3882(6)
C15 C 0.4489(8) 0.6285(7) 0.4881(7)
C16 C 0.4144(9) 0.6467(7) 0.5494(8)
H12 H 0.3532 0.6460 0.5565
C17 C 0.4705(11) 0.6659(8) 0.5998(7)
H13 H 0.4473 0.6801 0.6408
C18 C 0.5639(11) 0.6643(8) 0.5900(7)
H14 H 0.6019 0.6770 0.6247
C19 C 0.5991(9) 0.6435(7) 0.5284(8)
H15 H 0.6604 0.6405 0.5222
C20 C 0.5406(8) 0.6276(6) 0.4765(7)
C21 C 0.2277(7) 0.6048(7) 0.2733(6)
H16 H 0.2417 0.6495 0.2708
C22 C 0.2147(8) 0.5059(7) 0.3119(6)
C23 C 0.2137(8) 0.4451(8) 0.3469(7)
H17 H 0.2348 0.4428 0.3909
C24 C 0.1820(10) 0.3903(8) 0.3163(7)
H18 H 0.1795 0.3506 0.3399
C25 C 0.1537(10) 0.3928(10) 0.2509(9)
H19 H 0.1332 0.3540 0.2310
C26 C 0.1538(10) 0.4487(8) 0.2136(7)
H20 H 0.1350 0.4491 0.1690
C27 C 0.1839(8) 0.5055(7) 0.2460(7)
C28 C 0.2670(11) 0.7500 0.4329(8)
C29 C 0.1438(8) 0.7164(5) 0.3926(6)
C30 C 0.0727(9) 0.6791(7) 0.3700(7)
H21 H 0.0732 0.6331 0.3705
C31 C -0.0007(9) 0.7158(7) 0.3461(6)
H22 H -0.0504 0.6934 0.3299
N1F N 0.2729(6) 0.1933(5) 0.6140(5)
H1F H 0.3817 0.2182 0.7170
C3F C 0.2109(7) 0.2161(5) 0.5683(6)
C4F C 0.1537(7) 0.1796(7) 0.5236(6)
H2F H 0.1545 0.1336 0.5219
C5F C 0.0974(7) 0.2166(6) 0.4832(7)
H3F H 0.0580 0.1946 0.4548
N8F N 0.2235(6) 0.8071(5) 0.4208(5)
C29F C 0.1438(8) 0.7836(5) 0.3926(6)
C30F C 0.0727(9) 0.8209(7) 0.3700(7)
H21F H 0.0732 0.8669 0.3705
C31F C -0.0007(9) 0.7842(7) 0.3461(6)
H22F H -0.0504 0.8066 0.3299
Zn1D Zn 0.67859(8) 0.60240(7) 0.37339(6)
Zn2D Zn 0.72451(8) 0.39630(7) 0.58124(6)
N2D N 0.7416(6) 0.5341(5) 0.4255(5)
N3D N 0.7608(6) 0.4528(5) 0.5049(5)
N4D N 0.5919(6) 0.3910(5) 0.5711(4)
N5D N 0.4435(6) 0.3949(5) 0.5875(5)
N6D N 0.7607(6) 0.4310(5) 0.6704(5)
N7D N 0.8057(6) 0.4292(5) 0.7794(5)
C6D C 0.7073(7) 0.4998(6) 0.4776(6)
H4D H 0.6502 0.5079 0.4939
C7D C 0.8253(7) 0.5079(6) 0.4205(6)
C8D C 0.8914(9) 0.5233(6) 0.3719(7)
H5D H 0.8804 0.5536 0.3376
C9D C 0.9714(9) 0.4921(8) 0.3773(8)
H6D H 1.0173 0.5038 0.3481
C10D C 0.9864(9) 0.4428(8) 0.4255(8)
H7D H 1.0413 0.4216 0.4273
C11D C 0.9202(8) 0.4256(8) 0.4705(8)
H8D H 0.9299 0.3924 0.5020
C12D C 0.8382(9) 0.4586(6) 0.4681(6)
C13D C 0.5383(11) 0.4252(12) 0.6803(10)
H9D H 0.4841 0.4224 0.7058
H10D H 0.5829 0.3978 0.7009
H11D H 0.5586 0.4702 0.6795
C14D C 0.5223(9) 0.4028(7) 0.6118(6)
C15D C 0.5511(8) 0.3715(7) 0.5119(7)
C16D C 0.5856(9) 0.3533(7) 0.4506(8)
H12D H 0.6468 0.3540 0.4435
C17D C 0.5295(11) 0.3341(8) 0.4002(7)
H13D H 0.5527 0.3199 0.3592
C18D C 0.4361(11) 0.3357(8) 0.4100(7)
H14D H 0.3981 0.3230 0.3753
C19D C 0.4009(9) 0.3565(7) 0.4716(8)
H15D H 0.3396 0.3595 0.4778
C20D C 0.4594(8) 0.3724(6) 0.5235(7)
C21D C 0.7723(7) 0.3952(7) 0.7267(6)
H16D H 0.7583 0.3505 0.7292
C22D C 0.7853(8) 0.4941(7) 0.6881(6)
C23D C 0.7863(8) 0.5549(8) 0.6531(7)
H17D H 0.7652 0.5572 0.6091
C24D C 0.8180(10) 0.6097(8) 0.6837(7)
H18D H 0.8205 0.6494 0.6601
C25D C 0.8463(10) 0.6072(10) 0.7491(9)
H19D H 0.8668 0.6460 0.7690
C26D C 0.8462(10) 0.5513(8) 0.7864(7)
H20D H 0.8650 0.5509 0.8310
C27D C 0.8161(8) 0.4945(7) 0.7540(7)
Zn1A Zn 0.17859(8) 0.60240(7) 0.12661(6)
Zn1E Zn 0.82141(8) 0.39760(7) 0.87339(6)
Zn1F Zn 0.32141(8) 0.10240(7) 0.62661(6)
Zn2F Zn 0.27549(8) 0.89630(7) 0.41876(6)
N1D N 0.7271(6) 0.6933(5) 0.3860(5)
N7A N 0.3057(6) 0.4292(5) 0.7206(5)
N7E N 0.6943(6) 0.5708(5) 0.2794(5)
N8D N 0.7765(6) 0.3071(5) 0.5792(5)
O1 O 0.5110(19) 0.2500 0.2334(13)
O2 O 0.393(2) 0.2500 0.1782(15)
loop_
_geom_bond_atom_site_label_1
_geom_bond_atom_site_label_2
_geom_bond_site_symmetry_1
_geom_bond_site_symmetry_2
Zn1 N1 1_555 1_555
Zn2 N3 1_555 1_555
N1 C2 1_555 1_555
N2 Zn1 1_555 1_555
N3 C6 1_555 1_555
N4 Zn2 1_555 1_555
N5 C14 1_555 1_555
N6 Zn2 1_555 1_555
N7 C21 1_555 1_555
N8 Zn2 1_555 1_555
C1 H1 1_555 1_555
C2 C1 1_555 1_555
C3 N1 1_555 1_555
C4 C3 1_555 1_555
H2 C4 1_555 1_555
C5 C4 1_555 1_555
H3 C5 1_555 1_555
C6 N2 1_555 1_555
H4 C6 1_555 1_555
C7 N2 1_555 1_555
C8 C7 1_555 1_555
H5 C8 1_555 1_555
C9 C8 1_555 1_555
H6 C9 1_555 1_555
C10 C9 1_555 1_555
H7 C10 1_555 1_555
C11 C10 1_555 1_555
H8 C11 1_555 1_555
C12 N3 1_555 1_555
C13 H9 1_555 1_555
H10 C13 1_555 1_555
H11 C13 1_555 1_555
C14 N4 1_555 1_555
C15 N4 1_555 1_555
C16 C15 1_555 1_555
H12 C16 1_555 1_555
C17 C16 1_555 1_555
H13 C17 1_555 1_555
C18 C17 1_555 1_555
H14 C18 1_555 1_555
C19 C18 1_555 1_555
H15 C19 1_555 1_555
C20 N5 1_555 1_555
C21 N6 1_555 1_555
H16 C21 1_555 1_555
C22 N6 1_555 1_555
C23 C22 1_555 1_555
H17 C23 1_555 1_555
C24 C23 1_555 1_555
H18 C24 1_555 1_555
C25 C24 1_555 1_555
H19 C25 1_555 1_555
C26 C25 1_555 1_555
H20 C26 1_555 1_555
C27 N7 1_555 1_555
C28 N8 1_555 1_555
C29 N8 1_555 1_555
C30 C29 1_555 1_555
H21 C30 1_555 1_555
C31 C30 1_555 1_555
H22 C31 1_555 1_555
N1F C2 1_555 1_555
H1F C1 1_555 1_555
C3F C3 1_555 1_555
C4F C3F 1_555 1_555
H2F C4F 1_555 1_555
C5F C5 1_555 1_555
H3F C5F 1_555 1_555
N8F C28 1_555 1_555
C29F C29 1_555 1_555
C30F C29F 1_555 1_555
H21F C30F 1_555 1_555
C31F C31 1_555 1_555
H22F C31F 1_555 1_555
Zn1D N5 1_555 1_555
Zn2D N3D 1_555 1_555
N2D Zn1D 1_555 1_555
N3D C6D 1_555 1_555
N4D Zn2D 1_555 1_555
N5D Zn1 1_555 1_555
N6D Zn2D 1_555 1_555
N7D C21D 1_555 1_555
C6D N2D 1_555 1_555
H4D C6D 1_555 1_555
C7D N2D 1_555 1_555
C8D C7D 1_555 1_555
H5D C8D 1_555 1_555
C9D C8D 1_555 1_555
H6D C9D 1_555 1_555
C10D C9D 1_555 1_555
H7D C10D 1_555 1_555
C11D C10D 1_555 1_555
H8D C11D 1_555 1_555
C12D N3D 1_555 1_555
C13D H9D 1_555 1_555
H10D C13D 1_555 1_555
H11D C13D 1_555 1_555
C14D N4D 1_555 1_555
C15D N4D 1_555 1_555
C16D C15D 1_555 1_555
H12D C16D 1_555 1_555
C17D C16D 1_555 1_555
H13D C17D 1_555 1_555
C18D C17D 1_555 1_555
H14D C18D 1_555 1_555
C19D C18D 1_555 1_555
H15D C19D 1_555 1_555
C20D N5D 1_555 1_555
C21D N6D 1_555 1_555
H16D C21D 1_555 1_555
C22D N6D 1_555 1_555
C23D C22D 1_555 1_555
H17D C23D 1_555 1_555
C24D C23D 1_555 1_555
H18D C24D 1_555 1_555
C25D C24D 1_555 1_555
H19D C25D 1_555 1_555
C26D C25D 1_555 1_555
H20D C26D 1_555 1_555
C27D N7D 1_555 1_555
Zn1A N7 1_555 1_555
Zn1E N7D 1_555 1_555
Zn1F N1F 1_555 1_555
Zn2F N8F 1_555 1_555
N1D Zn1D 1_555 1_555
N7A Zn1 1_555 1_555
N7E Zn1D 1_555 1_555
N8D Zn2D 1_555 1_555
C7 C12 1_555 1_555
C11 C12 1_555 1_555
C13 C14 1_555 1_555
C15 C20 1_555 1_555
C19 C20 1_555 1_555
C22 C27 1_555 1_555
C26 C27 1_555 1_555
N1F C3F 1_555 1_555
C4F C5F 1_555 1_555
N8F C29F 1_555 1_555
C30F C31F 1_555 1_555
N5D C14D 1_555 1_555
C7D C12D 1_555 1_555
C11D C12D 1_555 1_555
C13D C14D 1_555 1_555
C15D C20D 1_555 1_555
C19D C20D 1_555 1_555
C22D C27D 1_555 1_555
C26D C27D 1_555 1_555

#END
