
#######################################################################
#
#                 Cambridge Crystallographic Data Centre
#                                CCDC 
#
#######################################################################
#
# If this CIF has been generated from an entry in the Cambridge 
# Structural Database, then it will include bibliographic, chemical, 
# crystal, experimental, refinement or atomic coordinate data resulting 
# from the CCDC's data processing and validation procedures.
#
#######################################################################

data_XALTIP
_chemical_formula_moiety         '(C72 H24 Cl8 Co8 N36 O12 Zn2)n'
_symmetry_cell_setting           cubic
_symmetry_space_group_name_H-M   'F m -3 m'
_symmetry_Int_Tables_number      225
_space_group_name_Hall           '-F 4 2 3'
loop_
_symmetry_equiv_pos_site_id
_symmetry_equiv_pos_as_xyz
1 x,y,z
2 -x,-y,z
3 -x,y,-z
4 x,-y,-z
5 z,x,y
6 z,-x,-y
7 -z,-x,y
8 -z,x,-y
9 y,z,x
10 -y,z,-x
11 y,-z,-x
12 -y,-z,x
13 y,x,-z
14 -y,-x,-z
15 y,-x,z
16 -y,x,z
17 x,z,-y
18 -x,z,y
19 -x,-z,-y
20 x,-z,y
21 z,y,-x
22 z,-y,x
23 -z,y,x
24 -z,-y,-x
25 x,1/2+y,1/2+z
26 -x,1/2-y,1/2+z
27 -x,1/2+y,1/2-z
28 x,1/2-y,1/2-z
29 z,1/2+x,1/2+y
30 z,1/2-x,1/2-y
31 -z,1/2-x,1/2+y
32 -z,1/2+x,1/2-y
33 y,1/2+z,1/2+x
34 -y,1/2+z,1/2-x
35 y,1/2-z,1/2-x
36 -y,1/2-z,1/2+x
37 y,1/2+x,1/2-z
38 -y,1/2-x,1/2-z
39 y,1/2-x,1/2+z
40 -y,1/2+x,1/2+z
41 x,1/2+z,1/2-y
42 -x,1/2+z,1/2+y
43 -x,1/2-z,1/2-y
44 x,1/2-z,1/2+y
45 z,1/2+y,1/2-x
46 z,1/2-y,1/2+x
47 -z,1/2+y,1/2+x
48 -z,1/2-y,1/2-x
49 1/2+x,y,1/2+z
50 1/2-x,-y,1/2+z
51 1/2-x,y,1/2-z
52 1/2+x,-y,1/2-z
53 1/2+z,x,1/2+y
54 1/2+z,-x,1/2-y
55 1/2-z,-x,1/2+y
56 1/2-z,x,1/2-y
57 1/2+y,z,1/2+x
58 1/2-y,z,1/2-x
59 1/2+y,-z,1/2-x
60 1/2-y,-z,1/2+x
61 1/2+y,x,1/2-z
62 1/2-y,-x,1/2-z
63 1/2+y,-x,1/2+z
64 1/2-y,x,1/2+z
65 1/2+x,z,1/2-y
66 1/2-x,z,1/2+y
67 1/2-x,-z,1/2-y
68 1/2+x,-z,1/2+y
69 1/2+z,y,1/2-x
70 1/2+z,-y,1/2+x
71 1/2-z,y,1/2+x
72 1/2-z,-y,1/2-x
73 1/2+x,1/2+y,z
74 1/2-x,1/2-y,z
75 1/2-x,1/2+y,-z
76 1/2+x,1/2-y,-z
77 1/2+z,1/2+x,y
78 1/2+z,1/2-x,-y
79 1/2-z,1/2-x,y
80 1/2-z,1/2+x,-y
81 1/2+y,1/2+z,x
82 1/2-y,1/2+z,-x
83 1/2+y,1/2-z,-x
84 1/2-y,1/2-z,x
85 1/2+y,1/2+x,-z
86 1/2-y,1/2-x,-z
87 1/2+y,1/2-x,z
88 1/2-y,1/2+x,z
89 1/2+x,1/2+z,-y
90 1/2-x,1/2+z,y
91 1/2-x,1/2-z,-y
92 1/2+x,1/2-z,y
93 1/2+z,1/2+y,-x
94 1/2+z,1/2-y,x
95 1/2-z,1/2+y,x
96 1/2-z,1/2-y,-x
97 -x,-y,-z
98 x,y,-z
99 x,-y,z
100 -x,y,z
101 -z,-x,-y
102 -z,x,y
103 z,x,-y
104 z,-x,y
105 -y,-z,-x
106 y,-z,x
107 -y,z,x
108 y,z,-x
109 -y,-x,z
110 y,x,z
111 -y,x,-z
112 y,-x,-z
113 -x,-z,y
114 x,-z,-y
115 x,z,y
116 -x,z,-y
117 -z,-y,x
118 -z,y,-x
119 z,-y,-x
120 z,y,x
121 -x,1/2-y,1/2-z
122 x,1/2+y,1/2-z
123 x,1/2-y,1/2+z
124 -x,1/2+y,1/2+z
125 -z,1/2-x,1/2-y
126 -z,1/2+x,1/2+y
127 z,1/2+x,1/2-y
128 z,1/2-x,1/2+y
129 -y,1/2-z,1/2-x
130 y,1/2-z,1/2+x
131 -y,1/2+z,1/2+x
132 y,1/2+z,1/2-x
133 -y,1/2-x,1/2+z
134 y,1/2+x,1/2+z
135 -y,1/2+x,1/2-z
136 y,1/2-x,1/2-z
137 -x,1/2-z,1/2+y
138 x,1/2-z,1/2-y
139 x,1/2+z,1/2+y
140 -x,1/2+z,1/2-y
141 -z,1/2-y,1/2+x
142 -z,1/2+y,1/2-x
143 z,1/2-y,1/2-x
144 z,1/2+y,1/2+x
145 1/2-x,-y,1/2-z
146 1/2+x,y,1/2-z
147 1/2+x,-y,1/2+z
148 1/2-x,y,1/2+z
149 1/2-z,-x,1/2-y
150 1/2-z,x,1/2+y
151 1/2+z,x,1/2-y
152 1/2+z,-x,1/2+y
153 1/2-y,-z,1/2-x
154 1/2+y,-z,1/2+x
155 1/2-y,z,1/2+x
156 1/2+y,z,1/2-x
157 1/2-y,-x,1/2+z
158 1/2+y,x,1/2+z
159 1/2-y,x,1/2-z
160 1/2+y,-x,1/2-z
161 1/2-x,-z,1/2+y
162 1/2+x,-z,1/2-y
163 1/2+x,z,1/2+y
164 1/2-x,z,1/2-y
165 1/2-z,-y,1/2+x
166 1/2-z,y,1/2-x
167 1/2+z,-y,1/2-x
168 1/2+z,y,1/2+x
169 1/2-x,1/2-y,-z
170 1/2+x,1/2+y,-z
171 1/2+x,1/2-y,z
172 1/2-x,1/2+y,z
173 1/2-z,1/2-x,-y
174 1/2-z,1/2+x,y
175 1/2+z,1/2+x,-y
176 1/2+z,1/2-x,y
177 1/2-y,1/2-z,-x
178 1/2+y,1/2-z,x
179 1/2-y,1/2+z,x
180 1/2+y,1/2+z,-x
181 1/2-y,1/2-x,z
182 1/2+y,1/2+x,z
183 1/2-y,1/2+x,-z
184 1/2+y,1/2-x,-z
185 1/2-x,1/2-z,y
186 1/2+x,1/2-z,-y
187 1/2+x,1/2+z,y
188 1/2-x,1/2+z,-y
189 1/2-z,1/2-y,x
190 1/2-z,1/2+y,-x
191 1/2+z,1/2-y,-x
192 1/2+z,1/2+y,x
_cell_length_a                   30.9950(7)
_cell_length_b                   30.9950(7)
_cell_length_c                   30.9950(7)
_cell_angle_alpha                90
_cell_angle_beta                 90
_cell_angle_gamma                90
_cell_volume                     29776.6
loop_
_atom_site_label
_atom_site_type_symbol
_atom_site_fract_x
_atom_site_fract_y
_atom_site_fract_z
Co1 Co 0.3185(3) 0.3185(3) 0.181542
Cl1 Cl 0.356(2) 0.356(2) 0.144360
N1 N 0.3399(3) 0.2752(2) 0.224812
C1 C 0.38267(10) 0.2665(3) 0.233457
N2 N 0.3146(6) 0.25000 0.25000
C2 C 0.4215(2) 0.2826(2) 0.217351
C3 C 0.4612(2) 0.2669(2) 0.233142
O1 O 0.50000 0.2834(4) 0.216589
Zn1 Zn 0.25000 0.25000 0.25000
H1 H 0.421274 0.303866 0.196134
Co1O Co 0.6815(3) 0.3185(3) 0.181542
Co1Q Co 0.6815(3) 0.181542 0.3185(3)
Co1H Co 0.3185(3) 0.181542 0.3185(3)
Co1D Co 0.181542 0.3185(3) 0.3185(3)
Co1U Co 0.181542 0.6815(3) 0.3185(3)
Co1N Co 0.3185(3) 0.6815(3) 0.181542
Co1P Co 0.3185(3) 0.181542 0.6815(3)
Co1T Co 0.181542 0.3185(3) 0.6815(3)
Co1CA Co 0.181542 0.1815(3) 0.1815(3)
Co1RA Co 0.181542 -0.1815(3) 0.1815(3)
Co1JA Co 0.3185(3) -0.1815(3) 0.318458
Co1QA Co 0.3185(3) 0.318458 -0.1815(3)
Co1SA Co 0.181542 0.1815(3) -0.1815(3)
Co1HB Co -0.1815(3) 0.3185(3) 0.318458
Co1LB Co -0.1815(3) 0.181542 0.1815(3)
Cl1O Cl 0.644(2) 0.356(2) 0.144360
Cl1Q Cl 0.644(2) 0.144360 0.356(2)
Cl1H Cl 0.356(2) 0.144360 0.356(2)
Cl1D Cl 0.144360 0.356(2) 0.356(2)
Cl1U Cl 0.144360 0.644(2) 0.356(2)
Cl1N Cl 0.356(2) 0.644(2) 0.144360
Cl1P Cl 0.356(2) 0.144360 0.644(2)
N1UC N 0.6601(3) 0.2752(2) 0.224812
N1Q N 0.6601(3) 0.224812 0.2752(2)
N1JD N 0.3399(3) 0.224812 0.2752(2)
N1D N 0.224812 0.3399(3) 0.2752(2)
N1YC N 0.224812 0.6601(3) 0.2752(2)
N1N N 0.2752(2) 0.6601(3) 0.224812
N1ED N 0.2752(2) 0.3399(3) 0.224812
N1H N 0.2752(2) 0.224812 0.3399(3)
N1CD N 0.2752(2) 0.224812 0.6601(3)
N1T N 0.224812 0.2752(2) 0.6601(3)
N1OD N 0.224812 0.2752(2) 0.3399(3)
N1CA N 0.224812 0.1601(3) 0.2248(2)
N1VD N 0.224812 -0.1601(3) 0.2248(2)
N1JA N 0.2752(2) -0.1601(3) 0.275188
N1EE N 0.2752(2) 0.1601(3) 0.275188
N1HA N 0.2752(2) 0.275188 0.1601(3)
N1YD N 0.2752(2) 0.275188 -0.1601(3)
N1SA N 0.224812 0.2248(2) -0.1601(3)
N1LE N 0.224812 0.2248(2) 0.1601(3)
N1XA N 0.1601(3) 0.2752(2) 0.275188
N1OE N -0.1601(3) 0.2752(2) 0.275188
N1LB N -0.1601(3) 0.224812 0.2248(2)
N1GF N 0.1601(3) 0.224812 0.2248(2)
N1TE N 0.724812 0.3399(3) 0.2248(2)
N1PB N 0.724812 0.2752(2) 0.1601(3)
N1OC N 0.724812 0.2248(2) 0.3399(3)
N1SF N 0.724812 0.1601(3) 0.2752(2)
N1VF N 0.2248(2) 0.724812 0.3399(3)
N1KC N 0.1601(3) 0.724812 0.2752(2)
N1NA N 0.3399(3) 0.724812 0.2248(2)
N1AE N 0.2752(2) 0.724812 0.1601(3)
N1RD N 0.3399(3) 0.2248(2) 0.724812
N1LA N 0.2752(2) 0.1601(3) 0.724812
C1UC C 0.61733(10) 0.2665(3) 0.233457
C1Q C 0.61733(10) 0.233457 0.2665(3)
C1JD C 0.38267(10) 0.233457 0.2665(3)
C1D C 0.233457 0.38267(10) 0.2665(3)
C1YC C 0.233457 0.61733(10) 0.2665(3)
C1N C 0.2665(3) 0.61733(10) 0.233457
C1ED C 0.2665(3) 0.38267(10) 0.233457
C1H C 0.2665(3) 0.233457 0.38267(10)
C1CD C 0.2665(3) 0.233457 0.61733(10)
C1T C 0.233457 0.2665(3) 0.61733(10)
C1OD C 0.233457 0.2665(3) 0.38267(10)
C1CA C 0.233457 0.11733(10) 0.2335(3)
C1VD C 0.233457 -0.11733(10) 0.2335(3)
C1JA C 0.2665(3) -0.11733(10) 0.266543
C1EE C 0.2665(3) 0.11733(10) 0.266543
C1HA C 0.2665(3) 0.266543 0.11733(10)
C1YD C 0.2665(3) 0.266543 -0.11733(10)
C1SA C 0.233457 0.2335(3) -0.11733(10)
C1LE C 0.233457 0.2335(3) 0.11733(10)
C1XA C 0.11733(10) 0.2665(3) 0.266543
C1OE C -0.11733(10) 0.2665(3) 0.266543
C1LB C -0.11733(10) 0.233457 0.2335(3)
C1GF C 0.11733(10) 0.233457 0.2335(3)
N2Q N 0.6854(6) 0.25000 0.25000
N2D N 0.25000 0.3146(6) 0.25000
N2N N 0.25000 0.6854(6) 0.25000
N2H N 0.25000 0.25000 0.3146(6)
N2T N 0.25000 0.25000 0.6854(6)
N2CA N 0.25000 0.1854(6) 0.25000
N2JA N 0.25000 -0.1854(6) 0.25000
N2HA N 0.25000 0.25000 0.1854(6)
N2SA N 0.25000 0.25000 -0.1854(6)
N2XA N 0.1854(6) 0.25000 0.25000
N2LB N -0.1854(6) 0.25000 0.25000
N2O N 0.75000 0.3146(6) 0.25000
N2V N 0.75000 0.25000 0.3146(6)
N2KA N 0.75000 0.1854(6) 0.25000
N2UA N 0.75000 0.25000 0.1854(6)
N2LB_2 N 0.8146(6) 0.25000 0.25000
C2UC C 0.5785(2) 0.2826(2) 0.217351
C2Q C 0.5785(2) 0.217351 0.2826(2)
C2JD C 0.4215(2) 0.217351 0.2826(2)
C2D C 0.217351 0.4215(2) 0.2826(2)
C2YC C 0.217351 0.5785(2) 0.2826(2)
C2N C 0.2826(2) 0.5785(2) 0.217351
C2ED C 0.2826(2) 0.4215(2) 0.217351
C2H C 0.2826(2) 0.217351 0.4215(2)
C2CD C 0.2826(2) 0.217351 0.5785(2)
C2T C 0.217351 0.2826(2) 0.5785(2)
C2OD C 0.217351 0.2826(2) 0.4215(2)
C2CA C 0.217351 0.0785(2) 0.2174(2)
C2VD C 0.217351 -0.0785(2) 0.2174(2)
C2JA C 0.2826(2) -0.0785(2) 0.282649
C2EE C 0.2826(2) 0.0785(2) 0.282649
C2HA C 0.2826(2) 0.282649 0.0785(2)
C2YD C 0.2826(2) 0.282649 -0.0785(2)
C2SA C 0.217351 0.2174(2) -0.0785(2)
C2LE C 0.217351 0.2174(2) 0.0785(2)
C2XA C 0.0785(2) 0.2826(2) 0.282649
C2OE C -0.0785(2) 0.2826(2) 0.282649
C2LB C -0.0785(2) 0.217351 0.2174(2)
C2GF C 0.0785(2) 0.217351 0.2174(2)
C3UC C 0.5388(2) 0.2669(2) 0.233142
C3Q C 0.5388(2) 0.233142 0.2669(2)
C3JD C 0.4612(2) 0.233142 0.2669(2)
C3D C 0.233142 0.4612(2) 0.2669(2)
C3YC C 0.233142 0.5388(2) 0.2669(2)
C3N C 0.2669(2) 0.5388(2) 0.233142
C3ED C 0.2669(2) 0.4612(2) 0.233142
C3H C 0.2669(2) 0.233142 0.4612(2)
C3CD C 0.2669(2) 0.233142 0.5388(2)
C3T C 0.233142 0.2669(2) 0.5388(2)
C3OD C 0.233142 0.2669(2) 0.4612(2)
C3CA C 0.233142 0.0388(2) 0.2331(2)
C3VD C 0.233142 -0.0388(2) 0.2331(2)
C3JA C 0.2669(2) -0.0388(2) 0.266858
C3EE C 0.2669(2) 0.0388(2) 0.266858
C3HA C 0.2669(2) 0.266858 0.0388(2)
C3YD C 0.2669(2) 0.266858 -0.0388(2)
C3SA C 0.233142 0.2331(2) -0.0388(2)
C3LE C 0.233142 0.2331(2) 0.0388(2)
C3XA C 0.0388(2) 0.2669(2) 0.266858
C3OE C -0.0388(2) 0.2669(2) 0.266858
C3LB C -0.0388(2) 0.233142 0.2331(2)
C3GF C 0.0388(2) 0.233142 0.2331(2)
O1Q O 0.50000 0.216589 0.2834(4)
O1D O 0.216589 0.50000 0.2834(4)
O1N O 0.2834(4) 0.50000 0.216589
O1H O 0.2834(4) 0.216589 0.50000
O1T O 0.216589 0.2834(4) 0.50000
O1CA O 0.216589 0.00000 0.2166(4)
O1JA O 0.2834(4) 0.00000 0.283411
O1HA O 0.2834(4) 0.283411 0.00000
O1SA O 0.216589 0.2166(4) 0.00000
O1XA O 0.00000 0.2834(4) 0.283411
O1LB O 0.00000 0.216589 0.2166(4)
Zn1O Zn 0.75000 0.25000 0.25000
Zn1N Zn 0.25000 0.75000 0.25000
Zn1L Zn 0.25000 0.25000 0.75000
Zn1N_2 Zn 0.25000 -0.25000 0.25000
Zn1L_2 Zn 0.25000 0.25000 -0.25000
Zn1O_2 Zn -0.25000 0.25000 0.25000
H1AA H 0.421274 0.196134 0.303866
H1Q H 0.578726 0.196134 0.303866
H1PA H 0.578726 0.303866 0.196134
H1D H 0.196134 0.421274 0.303866
H1CB H 0.303866 0.421274 0.196134
H1N H 0.303866 0.578726 0.196134
H1IB H 0.196134 0.578726 0.303866
H1H H 0.303866 0.196134 0.421274
H1EC H 0.196134 0.303866 0.421274
H1T H 0.196134 0.303866 0.578726
H1QC H 0.303866 0.196134 0.578726
H1CA H 0.196134 0.078726 0.196134
H1ZB H 0.303866 0.078726 0.303866
H1JA H 0.303866 -0.078726 0.303866
H1IC H 0.196134 -0.078726 0.196134
H1HA H 0.303866 0.303866 0.078726
H1EB H 0.196134 0.196134 0.078726
H1SA H 0.196134 0.196134 -0.078726
H1RB H 0.303866 0.303866 -0.078726
H1XA H 0.078726 0.303866 0.303866
H1UB H 0.078726 0.196134 0.196134
H1LB H -0.078726 0.196134 0.196134
H1MC H -0.078726 0.303866 0.303866
loop_
_geom_bond_atom_site_label_1
_geom_bond_atom_site_label_2
_geom_bond_site_symmetry_1
_geom_bond_site_symmetry_2
Co1 Cl1 1_555 1_555
N1 Co1 1_555 1_555
C1 N1 1_555 1_555
N2 N1 1_555 1_555
C2 C1 1_555 1_555
C3 C2 1_555 1_555
O1 C3 1_555 1_555
Zn1 N2 1_555 1_555
H1 C2 1_555 1_555
Co1O Cl1O 1_555 1_555
Co1Q Cl1Q 1_555 1_555
Co1H Cl1H 1_555 1_555
Co1D Cl1D 1_555 1_555
Co1U Cl1U 1_555 1_555
Co1N Cl1N 1_555 1_555
Co1P Cl1P 1_555 1_555
Co1T N1T 1_555 1_555
Co1CA N1CA 1_555 1_555
Co1RA N1VD 1_555 1_555
Co1JA N1JA 1_555 1_555
Co1QA N1YD 1_555 1_555
Co1SA N1SA 1_555 1_555
Co1HB N1OE 1_555 1_555
Co1LB N1LB 1_555 1_555
N1UC Co1O 1_555 1_555
N1Q Co1Q 1_555 1_555
N1JD N2 1_555 1_555
N1D Co1D 1_555 1_555
N1YC Co1U 1_555 1_555
N1N Co1N 1_555 1_555
N1ED Co1 1_555 1_555
N1H Co1H 1_555 1_555
N1CD Co1P 1_555 1_555
N1T C1T 1_555 1_555
N1OD Co1D 1_555 1_555
N1CA C1CA 1_555 1_555
N1VD C1VD 1_555 1_555
N1JA C1JA 1_555 1_555
N1EE Co1H 1_555 1_555
N1HA Co1 1_555 1_555
N1YD C1YD 1_555 1_555
N1SA C1SA 1_555 1_555
N1LE Co1CA 1_555 1_555
N1XA Co1D 1_555 1_555
N1OE C1OE 1_555 1_555
N1LB C1LB 1_555 1_555
N1GF Co1CA 1_555 1_555
N1TE Co1O 1_555 1_555
N1PB Co1O 1_555 1_555
N1OC Co1Q 1_555 1_555
N1SF Co1Q 1_555 1_555
N1VF Co1U 1_555 1_555
N1KC Co1U 1_555 1_555
N1NA Co1N 1_555 1_555
N1AE Co1N 1_555 1_555
N1RD Co1P 1_555 1_555
N1LA Co1P 1_555 1_555
C1UC N1UC 1_555 1_555
C1Q N1Q 1_555 1_555
C1JD C1 1_555 1_555
C1D N1D 1_555 1_555
C1YC N1YC 1_555 1_555
C1N N1N 1_555 1_555
C1ED N1ED 1_555 1_555
C1H N1H 1_555 1_555
C1CD N1CD 1_555 1_555
C1T C1CD 1_555 1_555
C1OD N1OD 1_555 1_555
C1CA C1EE 1_555 1_555
C1VD C1JA 1_555 1_555
C1JA C2JA 1_555 1_555
C1EE N1EE 1_555 1_555
C1HA N1HA 1_555 1_555
C1YD C1SA 1_555 1_555
C1SA C2SA 1_555 1_555
C1LE N1LE 1_555 1_555
C1XA N1XA 1_555 1_555
C1OE C1LB 1_555 1_555
C1LB C2LB 1_555 1_555
C1GF N1GF 1_555 1_555
N2Q N1UC 1_555 1_555
N2D Zn1 1_555 1_555
N2N N1YC 1_555 1_555
N2H Zn1 1_555 1_555
N2T N1CD 1_555 1_555
N2CA Zn1 1_555 1_555
N2JA N1VD 1_555 1_555
N2HA Zn1 1_555 1_555
N2SA N1YD 1_555 1_555
N2XA Zn1 1_555 1_555
N2LB N1OE 1_555 1_555
N2O N1TE 1_555 1_555
N2V N1OC 1_555 1_555
N2KA N1SF 1_555 1_555
N2UA N1PB 1_555 1_555
N2LB_2 Zn1O 1_555 1_555
C2UC C1UC 1_555 1_555
C2Q C1Q 1_555 1_555
C2JD C1JD 1_555 1_555
C2D C1D 1_555 1_555
C2YC C1YC 1_555 1_555
C2N C1N 1_555 1_555
C2ED C1ED 1_555 1_555
C2H C1H 1_555 1_555
C2CD C1CD 1_555 1_555
C2T C1T 1_555 1_555
C2OD C1OD 1_555 1_555
C2CA C1CA 1_555 1_555
C2VD C1VD 1_555 1_555
C2JA C3JA 1_555 1_555
C2EE C1EE 1_555 1_555
C2HA C1HA 1_555 1_555
C2YD C1YD 1_555 1_555
C2SA C3SA 1_555 1_555
C2LE C1LE 1_555 1_555
C2XA C1XA 1_555 1_555
C2OE C1OE 1_555 1_555
C2LB C3LB 1_555 1_555
C2GF C1GF 1_555 1_555
C3UC O1 1_555 1_555
C3Q C2Q 1_555 1_555
C3JD C3 1_555 1_555
C3D C2D 1_555 1_555
C3YC C2YC 1_555 1_555
C3N C2N 1_555 1_555
C3ED C2ED 1_555 1_555
C3H C2H 1_555 1_555
C3CD C2CD 1_555 1_555
C3T C2T 1_555 1_555
C3OD C2OD 1_555 1_555
C3CA C2CA 1_555 1_555
C3VD C2VD 1_555 1_555
C3JA C3VD 1_555 1_555
C3EE C2EE 1_555 1_555
C3HA C2HA 1_555 1_555
C3YD C2YD 1_555 1_555
C3SA C3YD 1_555 1_555
C3LE C2LE 1_555 1_555
C3XA C2XA 1_555 1_555
C3OE C2OE 1_555 1_555
C3LB C3OE 1_555 1_555
C3GF C2GF 1_555 1_555
O1Q C3Q 1_555 1_555
O1D C3D 1_555 1_555
O1N C3N 1_555 1_555
O1H C3H 1_555 1_555
O1T C3T 1_555 1_555
O1CA C3CA 1_555 1_555
O1JA C3JA 1_555 1_555
O1HA C3HA 1_555 1_555
O1SA C3SA 1_555 1_555
O1XA C3XA 1_555 1_555
O1LB C3LB 1_555 1_555
Zn1O N2Q 1_555 1_555
Zn1N N2N 1_555 1_555
Zn1L N2T 1_555 1_555
Zn1N_2 N2JA 1_555 1_555
Zn1L_2 N2SA 1_555 1_555
Zn1O_2 N2LB 1_555 1_555
H1AA C2JD 1_555 1_555
H1Q C2Q 1_555 1_555
H1PA C2UC 1_555 1_555
H1D C2D 1_555 1_555
H1CB C2ED 1_555 1_555
H1N C2N 1_555 1_555
H1IB C2YC 1_555 1_555
H1H C2H 1_555 1_555
H1EC C2OD 1_555 1_555
H1T C2T 1_555 1_555
H1QC C2CD 1_555 1_555
H1CA C2CA 1_555 1_555
H1ZB C2EE 1_555 1_555
H1JA C2JA 1_555 1_555
H1IC C2VD 1_555 1_555
H1HA C2HA 1_555 1_555
H1EB C2LE 1_555 1_555
H1SA C2SA 1_555 1_555
H1RB C2YD 1_555 1_555
H1XA C2XA 1_555 1_555
H1UB C2GF 1_555 1_555
H1LB C2LB 1_555 1_555
H1MC C2OE 1_555 1_555
Co1H N1JD 1_555 1_555
N1Q N2Q 1_555 1_555
N1JD C1JD 1_555 1_555
N1D N2D 1_555 1_555
N1N N2N 1_555 1_555
N1ED N2D 1_555 1_555
N1H N2H 1_555 1_555
N1T N2T 1_555 1_555
N1OD N2H 1_555 1_555
N1CA N2CA 1_555 1_555
N1JA N2JA 1_555 1_555
N1EE N2CA 1_555 1_555
N1HA N2HA 1_555 1_555
N1SA N2SA 1_555 1_555
N1LE N2HA 1_555 1_555
N1XA N2XA 1_555 1_555
N1LB N2LB 1_555 1_555
N1GF N2XA 1_555 1_555
C1UC C1Q 1_555 1_555
C1D C1ED 1_555 1_555
C1YC C1N 1_555 1_555
C1H C1OD 1_555 1_555
C1HA C1LE 1_555 1_555
C1XA C1GF 1_555 1_555
N2O Zn1O 1_555 1_555
N2V Zn1O 1_555 1_555
N2KA Zn1O 1_555 1_555
N2UA Zn1O 1_555 1_555
C2UC C3UC 1_555 1_555
C2JD C3JD 1_555 1_555
C3UC C3Q 1_555 1_555
C3JD O1Q 1_555 1_555
C3D C3ED 1_555 1_555
C3YC C3N 1_555 1_555
C3YC O1D 1_555 1_555
C3ED O1N 1_555 1_555
C3H C3OD 1_555 1_555
C3CD C3T 1_555 1_555
C3CD O1H 1_555 1_555
C3OD O1T 1_555 1_555
C3CA C3EE 1_555 1_555
C3VD O1CA 1_555 1_555
C3EE O1JA 1_555 1_555
C3HA C3LE 1_555 1_555
C3YD O1HA 1_555 1_555
C3LE O1SA 1_555 1_555
C3XA C3GF 1_555 1_555
C3OE O1XA 1_555 1_555
C3GF O1LB 1_555 1_555

#END
