
#######################################################################
#
#                 Cambridge Crystallographic Data Centre
#                                CCDC 
#
#######################################################################
#
# If this CIF has been generated from an entry in the Cambridge 
# Structural Database, then it will include bibliographic, chemical, 
# crystal, experimental, refinement or atomic coordinate data resulting 
# from the CCDC's data processing and validation procedures.
#
#######################################################################

data_XALTOV
_chemical_formula_moiety         '(C18 H6 Cl4 Co5 N18)n'
_symmetry_cell_setting           cubic
_symmetry_space_group_name_H-M   'F m -3 m'
_symmetry_Int_Tables_number      225
_space_group_name_Hall           '-F 4 2 3'
loop_
_symmetry_equiv_pos_site_id
_symmetry_equiv_pos_as_xyz
1 x,y,z
2 -x,-y,z
3 -x,y,-z
4 x,-y,-z
5 z,x,y
6 z,-x,-y
7 -z,-x,y
8 -z,x,-y
9 y,z,x
10 -y,z,-x
11 y,-z,-x
12 -y,-z,x
13 y,x,-z
14 -y,-x,-z
15 y,-x,z
16 -y,x,z
17 x,z,-y
18 -x,z,y
19 -x,-z,-y
20 x,-z,y
21 z,y,-x
22 z,-y,x
23 -z,y,x
24 -z,-y,-x
25 x,1/2+y,1/2+z
26 -x,1/2-y,1/2+z
27 -x,1/2+y,1/2-z
28 x,1/2-y,1/2-z
29 z,1/2+x,1/2+y
30 z,1/2-x,1/2-y
31 -z,1/2-x,1/2+y
32 -z,1/2+x,1/2-y
33 y,1/2+z,1/2+x
34 -y,1/2+z,1/2-x
35 y,1/2-z,1/2-x
36 -y,1/2-z,1/2+x
37 y,1/2+x,1/2-z
38 -y,1/2-x,1/2-z
39 y,1/2-x,1/2+z
40 -y,1/2+x,1/2+z
41 x,1/2+z,1/2-y
42 -x,1/2+z,1/2+y
43 -x,1/2-z,1/2-y
44 x,1/2-z,1/2+y
45 z,1/2+y,1/2-x
46 z,1/2-y,1/2+x
47 -z,1/2+y,1/2+x
48 -z,1/2-y,1/2-x
49 1/2+x,y,1/2+z
50 1/2-x,-y,1/2+z
51 1/2-x,y,1/2-z
52 1/2+x,-y,1/2-z
53 1/2+z,x,1/2+y
54 1/2+z,-x,1/2-y
55 1/2-z,-x,1/2+y
56 1/2-z,x,1/2-y
57 1/2+y,z,1/2+x
58 1/2-y,z,1/2-x
59 1/2+y,-z,1/2-x
60 1/2-y,-z,1/2+x
61 1/2+y,x,1/2-z
62 1/2-y,-x,1/2-z
63 1/2+y,-x,1/2+z
64 1/2-y,x,1/2+z
65 1/2+x,z,1/2-y
66 1/2-x,z,1/2+y
67 1/2-x,-z,1/2-y
68 1/2+x,-z,1/2+y
69 1/2+z,y,1/2-x
70 1/2+z,-y,1/2+x
71 1/2-z,y,1/2+x
72 1/2-z,-y,1/2-x
73 1/2+x,1/2+y,z
74 1/2-x,1/2-y,z
75 1/2-x,1/2+y,-z
76 1/2+x,1/2-y,-z
77 1/2+z,1/2+x,y
78 1/2+z,1/2-x,-y
79 1/2-z,1/2-x,y
80 1/2-z,1/2+x,-y
81 1/2+y,1/2+z,x
82 1/2-y,1/2+z,-x
83 1/2+y,1/2-z,-x
84 1/2-y,1/2-z,x
85 1/2+y,1/2+x,-z
86 1/2-y,1/2-x,-z
87 1/2+y,1/2-x,z
88 1/2-y,1/2+x,z
89 1/2+x,1/2+z,-y
90 1/2-x,1/2+z,y
91 1/2-x,1/2-z,-y
92 1/2+x,1/2-z,y
93 1/2+z,1/2+y,-x
94 1/2+z,1/2-y,x
95 1/2-z,1/2+y,x
96 1/2-z,1/2-y,-x
97 -x,-y,-z
98 x,y,-z
99 x,-y,z
100 -x,y,z
101 -z,-x,-y
102 -z,x,y
103 z,x,-y
104 z,-x,y
105 -y,-z,-x
106 y,-z,x
107 -y,z,x
108 y,z,-x
109 -y,-x,z
110 y,x,z
111 -y,x,-z
112 y,-x,-z
113 -x,-z,y
114 x,-z,-y
115 x,z,y
116 -x,z,-y
117 -z,-y,x
118 -z,y,-x
119 z,-y,-x
120 z,y,x
121 -x,1/2-y,1/2-z
122 x,1/2+y,1/2-z
123 x,1/2-y,1/2+z
124 -x,1/2+y,1/2+z
125 -z,1/2-x,1/2-y
126 -z,1/2+x,1/2+y
127 z,1/2+x,1/2-y
128 z,1/2-x,1/2+y
129 -y,1/2-z,1/2-x
130 y,1/2-z,1/2+x
131 -y,1/2+z,1/2+x
132 y,1/2+z,1/2-x
133 -y,1/2-x,1/2+z
134 y,1/2+x,1/2+z
135 -y,1/2+x,1/2-z
136 y,1/2-x,1/2-z
137 -x,1/2-z,1/2+y
138 x,1/2-z,1/2-y
139 x,1/2+z,1/2+y
140 -x,1/2+z,1/2-y
141 -z,1/2-y,1/2+x
142 -z,1/2+y,1/2-x
143 z,1/2-y,1/2-x
144 z,1/2+y,1/2+x
145 1/2-x,-y,1/2-z
146 1/2+x,y,1/2-z
147 1/2+x,-y,1/2+z
148 1/2-x,y,1/2+z
149 1/2-z,-x,1/2-y
150 1/2-z,x,1/2+y
151 1/2+z,x,1/2-y
152 1/2+z,-x,1/2+y
153 1/2-y,-z,1/2-x
154 1/2+y,-z,1/2+x
155 1/2-y,z,1/2+x
156 1/2+y,z,1/2-x
157 1/2-y,-x,1/2+z
158 1/2+y,x,1/2+z
159 1/2-y,x,1/2-z
160 1/2+y,-x,1/2-z
161 1/2-x,-z,1/2+y
162 1/2+x,-z,1/2-y
163 1/2+x,z,1/2+y
164 1/2-x,z,1/2-y
165 1/2-z,-y,1/2+x
166 1/2-z,y,1/2-x
167 1/2+z,-y,1/2-x
168 1/2+z,y,1/2+x
169 1/2-x,1/2-y,-z
170 1/2+x,1/2+y,-z
171 1/2+x,1/2-y,z
172 1/2-x,1/2+y,z
173 1/2-z,1/2-x,-y
174 1/2-z,1/2+x,y
175 1/2+z,1/2+x,-y
176 1/2+z,1/2-x,y
177 1/2-y,1/2-z,-x
178 1/2+y,1/2-z,x
179 1/2-y,1/2+z,x
180 1/2+y,1/2+z,-x
181 1/2-y,1/2-x,z
182 1/2+y,1/2+x,z
183 1/2-y,1/2+x,-z
184 1/2+y,1/2-x,-z
185 1/2-x,1/2-z,y
186 1/2+x,1/2-z,-y
187 1/2+x,1/2+z,y
188 1/2-x,1/2+z,-y
189 1/2-z,1/2-y,x
190 1/2-z,1/2+y,-x
191 1/2+z,1/2-y,-x
192 1/2+z,1/2+y,x
_cell_length_a                   21.7309(4)
_cell_length_b                   21.7309(4)
_cell_length_c                   21.7309(4)
_cell_angle_alpha                90
_cell_angle_beta                 90
_cell_angle_gamma                90
_cell_volume                     10262
loop_
_atom_site_label
_atom_site_type_symbol
_atom_site_fract_x
_atom_site_fract_y
_atom_site_fract_z
_atom_site_U_iso_or_equiv
_atom_site_thermal_displace_type
Co1 Co 0.7500 0.7500 0.75000 0.0140 Uiso
Co2 Co 0.6589(2) 0.6589(2) 0.6589(2) 0.0140 Uiso
Cl1 Cl 0.6054(3) 0.6054(3) 0.6054(3) 0.0440 Uiso
N1 N 0.7137(2) 0.7137(2) 0.6123(4) 0.0430 Uiso
N2 N 0.7500 0.7500 0.64464(10) 0.0430 Uiso
C1 C 0.7259(4) 0.7259(4) 0.5526(2) 0.0510 Uiso
C2 C 0.7001(6) 0.7001(6) 0.50000 0.0510 Uiso
H1 H 0.6698 0.6698 0.500 0.0380 Uiso
Co1L Co 0.7500 0.7500 0.25000 0.0140 Uiso
Co1O Co 0.2500 0.7500 0.75000 0.0140 Uiso
Co1N Co 0.7500 0.2500 0.75000 0.0140 Uiso
Co2UB Co 0.8411(2) 0.8411(2) 0.6589(2) 0.0140 Uiso
Co2GC Co 0.8411(2) 0.8411(2) 0.3411(2) 0.0140 Uiso
Co2L Co 0.6589(2) 0.6589(2) 0.3411(2) 0.0140 Uiso
Co2AA Co 0.6589(2) 0.8411(2) 0.8411(2) 0.0140 Uiso
Co2KA Co 0.3411(2) 0.8411(2) 0.8411(2) 0.0140 Uiso
Co2O Co 0.3411(2) 0.6589(2) 0.6589(2) 0.0140 Uiso
Co2XA Co 0.8411(2) 0.6589(2) 0.8411(2) 0.0140 Uiso
Co2IB Co 0.8411(2) 0.3411(2) 0.8411(2) 0.0140 Uiso
Co2N Co 0.6589(2) 0.3411(2) 0.6589(2) 0.0140 Uiso
Cl1UB Cl 0.8946(3) 0.8946(3) 0.6054(3) 0.0440 Uiso
Cl1GC Cl 0.8946(3) 0.8946(3) 0.3946(3) 0.0440 Uiso
Cl1L Cl 0.6054(3) 0.6054(3) 0.3946(3) 0.0440 Uiso
N1UB N 0.7863(2) 0.7863(2) 0.6123(4) 0.0430 Uiso
N1GC N 0.7863(2) 0.7863(2) 0.3877(4) 0.0430 Uiso
N1L N 0.7137(2) 0.7137(2) 0.3877(4) 0.0430 Uiso
N1D N 0.6123(4) 0.7137(2) 0.7137(2) 0.0430 Uiso
N1CA N 0.6123(4) 0.7863(2) 0.7863(2) 0.0430 Uiso
N1UA N 0.3877(4) 0.7863(2) 0.7863(2) 0.0430 Uiso
N1V N 0.3877(4) 0.7137(2) 0.7137(2) 0.0430 Uiso
N1H N 0.7137(2) 0.6123(4) 0.7137(2) 0.0430 Uiso
N1EB N 0.7863(2) 0.6123(4) 0.7863(2) 0.0430 Uiso
N1NB N 0.7863(2) 0.3877(4) 0.7863(2) 0.0430 Uiso
N1S N 0.7137(2) 0.3877(4) 0.7137(2) 0.0430 Uiso
N1ZB N 0.8877(4) 0.7863(2) 0.7137(2) 0.0430 Uiso
N1EC N 0.7863(2) 0.8877(4) 0.7137(2) 0.0430 Uiso
N1LC N 0.7863(2) 0.8877(4) 0.2863(2) 0.0430 Uiso
N1QC N 0.8877(4) 0.7863(2) 0.2863(2) 0.0430 Uiso
N1P N 0.7137(2) 0.6123(4) 0.2863(2) 0.0430 Uiso
N1T N 0.6123(4) 0.7137(2) 0.2863(2) 0.0430 Uiso
N2L N 0.7500 0.7500 0.35536(10) 0.0430 Uiso
N2D N 0.64464(10) 0.7500 0.7500 0.0430 Uiso
N2V N 0.35536(10) 0.7500 0.7500 0.0430 Uiso
N2H N 0.7500 0.64464(10) 0.7500 0.0430 Uiso
N2S N 0.7500 0.35536(10) 0.7500 0.0430 Uiso
N2HA N 0.7500 0.85536(10) 0.7500 0.0430 Uiso
N2AA N 0.7500 0.7500 0.85536(10) 0.0430 Uiso
N2CB N 0.85536(10) 0.7500 0.7500 0.0430 Uiso
C1UB C 0.7741(4) 0.7741(4) 0.5526(2) 0.0510 Uiso
C1GC C 0.7741(4) 0.7741(4) 0.4474(2) 0.0510 Uiso
C1L C 0.7259(4) 0.7259(4) 0.4474(2) 0.0510 Uiso
C1D C 0.5526(2) 0.7259(4) 0.7259(4) 0.0510 Uiso
C1CA C 0.5526(2) 0.7741(4) 0.7741(4) 0.0510 Uiso
C1UA C 0.4474(2) 0.7741(4) 0.7741(4) 0.0510 Uiso
C1V C 0.4474(2) 0.7259(4) 0.7259(4) 0.0510 Uiso
C1H C 0.7259(4) 0.5526(2) 0.7259(4) 0.0510 Uiso
C1EB C 0.7741(4) 0.5526(2) 0.7741(4) 0.0510 Uiso
C1NB C 0.7741(4) 0.4474(2) 0.7741(4) 0.0510 Uiso
C1S C 0.7259(4) 0.4474(2) 0.7259(4) 0.0510 Uiso
C2UB C 0.7999(6) 0.7999(6) 0.50000 0.0510 Uiso
C2D C 0.50000 0.7001(6) 0.7001(6) 0.0510 Uiso
C2CA C 0.50000 0.7999(6) 0.7999(6) 0.0510 Uiso
C2H C 0.7001(6) 0.50000 0.7001(6) 0.0510 Uiso
C2EB C 0.7999(6) 0.50000 0.7999(6) 0.0510 Uiso
H1UB H 0.8302 0.8302 0.500 0.0380 Uiso
H1D H 0.500 0.6698 0.6698 0.0380 Uiso
H1CA H 0.500 0.8302 0.8302 0.0380 Uiso
H1H H 0.6698 0.500 0.6698 0.0380 Uiso
H1EB H 0.8302 0.500 0.8302 0.0380 Uiso
loop_
_geom_bond_atom_site_label_1
_geom_bond_atom_site_label_2
_geom_bond_site_symmetry_1
_geom_bond_site_symmetry_2
Co1 N2 1_555 1_555
Co2 Cl1 1_555 1_555
N1 Co2 1_555 1_555
N2 N1 1_555 1_555
C1 N1 1_555 1_555
C2 C1 1_555 1_555
H1 C2 1_555 1_555
Co1L N2L 1_555 1_555
Co1O N2V 1_555 1_555
Co1N N2S 1_555 1_555
Co2UB Cl1UB 1_555 1_555
Co2GC Cl1GC 1_555 1_555
Co2L Cl1L 1_555 1_555
Co2AA N1CA 1_555 1_555
Co2KA N1UA 1_555 1_555
Co2O N1V 1_555 1_555
Co2XA N1EB 1_555 1_555
Co2IB N1NB 1_555 1_555
Co2N N1S 1_555 1_555
N1UB N2 1_555 1_555
N1GC Co2GC 1_555 1_555
N1L Co2L 1_555 1_555
N1D Co2 1_555 1_555
N1CA N2D 1_555 1_555
N1UA N2V 1_555 1_555
N1V N2V 1_555 1_555
N1H Co2 1_555 1_555
N1EB N2H 1_555 1_555
N1NB N2S 1_555 1_555
N1S N2S 1_555 1_555
N1ZB Co2UB 1_555 1_555
N1EC Co2UB 1_555 1_555
N1LC Co2GC 1_555 1_555
N1QC Co2GC 1_555 1_555
N1P Co2L 1_555 1_555
N1T Co2L 1_555 1_555
N2L N1GC 1_555 1_555
N2D Co1 1_555 1_555
N2H Co1 1_555 1_555
N2HA Co1 1_555 1_555
N2AA Co1 1_555 1_555
N2CB Co1 1_555 1_555
C1UB C1 1_555 1_555
C1GC N1GC 1_555 1_555
C1L C2 1_555 1_555
C1D N1D 1_555 1_555
C1CA N1CA 1_555 1_555
C1UA N1UA 1_555 1_555
C1V N1V 1_555 1_555
C1H N1H 1_555 1_555
C1EB N1EB 1_555 1_555
C1NB N1NB 1_555 1_555
C1S N1S 1_555 1_555
C2UB C1UB 1_555 1_555
C2D C1D 1_555 1_555
C2CA C1CA 1_555 1_555
C2H C1H 1_555 1_555
C2EB C1EB 1_555 1_555
H1UB C2UB 1_555 1_555
H1D C2D 1_555 1_555
H1CA C2CA 1_555 1_555
H1H C2H 1_555 1_555
H1EB C2EB 1_555 1_555
Co2UB N1UB 1_555 1_555
N1UB C1UB 1_555 1_555
N1L N2L 1_555 1_555
N1L C1L 1_555 1_555
N1D N2D 1_555 1_555
N1H N2H 1_555 1_555
N1ZB N2CB 1_555 1_555
N1EC N2HA 1_555 1_555
C1GC C1L 1_555 1_555
C1GC C2UB 1_555 1_555
C1D C1CA 1_555 1_555
C1UA C1V 1_555 1_555
C1UA C2CA 1_555 1_555
C1V C2D 1_555 1_555
C1H C1EB 1_555 1_555
C1NB C1S 1_555 1_555
C1NB C2EB 1_555 1_555
C1S C2H 1_555 1_555

#END
