
#######################################################################
#
#                 Cambridge Crystallographic Data Centre
#                                CCDC 
#
#######################################################################
#
# If this CIF has been generated from an entry in the Cambridge 
# Structural Database, then it will include bibliographic, chemical, 
# crystal, experimental, refinement or atomic coordinate data resulting 
# from the CCDC's data processing and validation procedures.
#
#######################################################################

data_XESKAJ
_chemical_formula_moiety         '(C6 H24 Mg2 N2 O12 P2)n'
_symmetry_cell_setting           rhombohedral
_symmetry_space_group_name_H-M   'R -3'
_symmetry_Int_Tables_number      148
_space_group_name_Hall           '-R 3'
loop_
_symmetry_equiv_pos_site_id
_symmetry_equiv_pos_as_xyz
1 x,y,z
2 -y,x-y,z
3 -x+y,-x,z
4 2/3+x,1/3+y,1/3+z
5 2/3-y,1/3+x-y,1/3+z
6 2/3-x+y,1/3-x,1/3+z
7 1/3+x,2/3+y,2/3+z
8 1/3-y,2/3+x-y,2/3+z
9 1/3-x+y,2/3-x,2/3+z
10 -x,-y,-z
11 y,-x+y,-z
12 x-y,x,-z
13 1/3-x,2/3-y,2/3-z
14 1/3+y,2/3-x+y,2/3-z
15 1/3+x-y,2/3+x,2/3-z
16 2/3-x,1/3-y,1/3-z
17 2/3+y,1/3-x+y,1/3-z
18 2/3+x-y,1/3+x,1/3-z
_cell_length_a                   28.1046(8)
_cell_length_b                   28.1046(8)
_cell_length_c                   6.2967(3)
_cell_angle_alpha                90
_cell_angle_beta                 90
_cell_angle_gamma                120
_cell_volume                     4307.23
loop_
_atom_site_label
_atom_site_type_symbol
_atom_site_fract_x
_atom_site_fract_y
_atom_site_fract_z
Mg1 Mg 0.03070(5) 0.64192(5) -0.06645(18)
P1 P 0.04165(4) 0.61889(4) 0.41403(14)
O1 O 0.09501(12) 0.62121(13) 0.4684(4)
O2 O 0.01155(10) 0.62170(10) 0.6131(4)
O3 O 0.04772(10) 0.66238(10) 0.2526(4)
N1 N 0.00818(13) 0.55615(13) 0.0489(5)
C1 C -0.00545(16) 0.55464(15) 0.2799(6)
H1 H -0.0037 0.5246 0.3479
H2 H -0.0427 0.5478 0.2940
C2 C 0.05432(16) 0.54545(15) 0.0149(6)
H3 H 0.0852 0.5708 0.1017
H4 H 0.0657 0.5529 -0.1325
C3 C -0.04054(16) 0.51313(15) -0.0679(6)
H5 H -0.0337 0.5191 -0.2192
H6 H -0.0721 0.5171 -0.0347
O4 O 0.11026(11) 0.66405(11) -0.1382(4)
H7 H 0.1134 0.6514 -0.2662
H8 H 0.1435 0.6877 -0.1109
Mg1I Mg -0.03070(5) 0.35808(5) -0.93355(18)
Mg1_2 Mg 0.03070(5) 0.64192(5) 0.93355(18)
Mg1D Mg 0.02475(5) 0.72211(7) 0.26688(18)
Mg1H Mg -0.05545(7) 0.63597(5) 0.60022(18)
Mg1I_2 Mg -0.03070(5) 0.35808(5) 0.06645(18)
Mg1Q Mg 0.05545(7) 0.36403(5) -0.60022(18)
Mg1M Mg -0.02475(5) 0.27789(7) -0.26688(18)
P1I P -0.04165(4) 0.38111(4) -0.41403(14)
O1I O -0.09501(12) 0.37879(13) -0.4684(4)
O2I O -0.01155(10) 0.37830(10) -0.6131(4)
O2_2 O 0.01155(10) 0.62170(10) -0.3869(4)
O2D O 0.04497(10) 0.72318(14) -0.0536(4)
O2M O -0.04497(10) 0.27682(14) -0.9464(4)
O3I O -0.04772(10) 0.33762(10) -0.2526(4)
O3H O -0.05201(14) 0.61895(10) -0.0807(4)
O3Q O 0.05201(14) 0.38105(10) -0.9193(4)
O3I_2 O -0.04772(10) 0.33762(10) -1.2526(4)
N1I N -0.00818(13) 0.44385(13) -0.0489(5)
N1I_2 N -0.00818(13) 0.44385(13) -1.0489(5)
C1I C 0.00545(16) 0.44536(15) -0.2799(6)
H1I H 0.0037 0.4754 -0.3479
H2I H 0.0427 0.4522 -0.2940
C2I C -0.05432(16) 0.45455(15) -0.0149(6)
H3I H -0.0852 0.4292 -0.1017
H4I H -0.0657 0.4471 0.1325
C3I C 0.04054(16) 0.48687(15) 0.0679(6)
H5I H 0.0337 0.4809 0.2192
H6I H 0.0721 0.4829 0.0347
O4I O -0.11026(11) 0.33595(11) -0.8618(4)
H7I H -0.1134 0.3486 -0.7338
H8I H -0.1435 0.3123 -0.8891
O5 O 0.2185(2) 0.7475(2) -0.1103(12)
O6 O 0.2669(4) 0.7083(4) -0.3821(15)
O7 O 0.2678(7) 0.7136(6) -0.804(3)
O8 O 0.2995(11) 0.7753(9) -0.044(4)
loop_
_geom_bond_atom_site_label_1
_geom_bond_atom_site_label_2
_geom_bond_site_symmetry_1
_geom_bond_site_symmetry_2
Mg1 O3 1_555 1_555
P1 O1 1_555 1_555
O2 P1 1_555 1_555
O3 P1 1_555 1_555
N1 Mg1 1_555 1_555
C1 P1 1_555 1_555
H1 C1 1_555 1_555
H2 C1 1_555 1_555
C2 N1 1_555 1_555
H3 C2 1_555 1_555
H4 C2 1_555 1_555
C3 N1 1_555 1_555
H5 C3 1_555 1_555
H6 C3 1_555 1_555
O4 Mg1 1_555 1_555
H7 O4 1_555 1_555
H8 O4 1_555 1_555
Mg1I O2I 1_555 1_555
Mg1_2 O2 1_555 1_555
Mg1D O3 1_555 1_555
Mg1H O2 1_555 1_555
Mg1I_2 O3I 1_555 1_555
Mg1Q O2I 1_555 1_555
Mg1M O3I 1_555 1_555
P1I O1I 1_555 1_555
O2I P1I 1_555 1_555
O2_2 Mg1 1_555 1_555
O2D Mg1 1_555 1_555
O2M Mg1I 1_555 1_555
O3I P1I 1_555 1_555
O3H Mg1 1_555 1_555
O3Q Mg1I 1_555 1_555
O3I_2 Mg1I 1_555 1_555
N1I Mg1I_2 1_555 1_555
N1I_2 Mg1I 1_555 1_555
C1I P1I 1_555 1_555
H1I C1I 1_555 1_555
H2I C1I 1_555 1_555
C2I C3 1_555 1_555
H3I C2I 1_555 1_555
H4I C2I 1_555 1_555
C3I C2 1_555 1_555
H5I C3I 1_555 1_555
H6I C3I 1_555 1_555
O4I Mg1I 1_555 1_555
H7I O4I 1_555 1_555
H8I O4I 1_555 1_555
N1 C1 1_555 1_555
Mg1D O2D 1_555 1_555
Mg1Q O3Q 1_555 1_555
N1I C1I 1_555 1_555
N1I C2I 1_555 1_555
N1I C3I 1_555 1_555

#END
