
#######################################################################
#
#                 Cambridge Crystallographic Data Centre
#                                CCDC 
#
#######################################################################
#
# If this CIF has been generated from an entry in the Cambridge 
# Structural Database, then it will include bibliographic, chemical, 
# crystal, experimental, refinement or atomic coordinate data resulting 
# from the CCDC's data processing and validation procedures.
#
#######################################################################

data_MUMLOX
_chemical_formula_moiety         '(C18 H11 Br1 N6 O5 Zn2)n'
_symmetry_cell_setting           monoclinic
_symmetry_space_group_name_H-M   'P 21/c'
_symmetry_Int_Tables_number      14
_space_group_name_Hall           '-P 2ybc'
loop_
_symmetry_equiv_pos_site_id
_symmetry_equiv_pos_as_xyz
1 x,y,z
2 -x,1/2+y,1/2-z
3 -x,-y,-z
4 x,1/2-y,1/2+z
_cell_length_a                   16.279(5)
_cell_length_b                   6.820(5)
_cell_length_c                   23.711(5)
_cell_angle_alpha                90
_cell_angle_beta                 103.970(5)
_cell_angle_gamma                90
_cell_volume                     2554.6
loop_
_atom_site_label
_atom_site_type_symbol
_atom_site_fract_x
_atom_site_fract_y
_atom_site_fract_z
Zn1 Zn 0.17448(3) -0.41947(8) 0.72299(2)
Zn2 Zn 0.00321(3) 0.32605(8) 0.75473(2)
Br1 Br 0.09178(5) -0.87725(11) 0.57236(3)
O1 O 0.0455(2) -0.4065(5) 0.33225(17)
O2 O 0.0460(2) -0.7398(5) 0.34115(16)
O3 O 0.0817(2) -0.4194(4) 0.76425(15)
C1 C 0.2212(3) 0.0747(6) 0.7224(2)
O4 O 0.1266(3) -0.4533(6) 0.64027(18)
O5 O 0.2527(4) -0.4304(8) 0.6282(3)
N1 N 0.1732(2) -0.0876(5) 0.72041(19)
C2 C 0.5860(4) 0.0883(12) 0.6588(3)
C3 C 0.1792(4) -0.4600(9) 0.6097(3)
C4 C 0.0550(4) -0.5640(8) 0.3608(3)
C5 C 0.0834(4) -0.5386(9) 0.4257(3)
N2 N 0.0979(2) -0.0167(6) 0.72527(18)
N3 N 0.1017(2) 0.1703(5) 0.73067(18)
N4 N 0.7026(3) 0.0848(6) 0.7319(2)
C6 C 0.1027(3) -0.6666(8) 0.5236(3)
C7 C 0.6350(3) 0.0818(7) 0.7530(2)
H1 H 0.6360 0.0790 0.7924
C8 C 0.1490(4) -0.3465(10) 0.5069(3)
H2 H 0.1745 -0.2290 0.5214
N5 N 0.1787(2) 0.2341(6) 0.72991(19)
C9 C 0.1444(4) -0.4968(9) 0.5458(3)
C10 C 0.1182(4) -0.3644(9) 0.4490(3)
H3 H 0.1205 -0.2583 0.4248
C11 C 0.0741(4) -0.6967(9) 0.4644(3)
H4 H 0.0495 -0.8152 0.4499
C12 C 0.6688(4) 0.0852(14) 0.6740(3)
H5 H 0.7018 0.0834 0.6470
N6 N 0.5661(2) 0.0833(6) 0.7111(2)
C13 C 0.3115(2) 0.0580(5) 0.71940(15)
C14 C 0.3740(2) 0.0892(6) 0.76876(14)
H6 H 0.3601 0.1102 0.8041
C15 C 0.45719(19) 0.0894(6) 0.76612(14)
H7 H 0.4997 0.1106 0.7996
C16 C 0.4778(2) 0.0585(6) 0.71411(15)
C17 C 0.4152(2) 0.0272(7) 0.66476(16)
H8 H 0.4292 0.0062 0.6295
C18 C 0.3321(2) 0.0270(7) 0.66739(16)
H9 H 0.2896 0.0058 0.6339
Zn1_2 Zn 0.17448(3) 0.58053(8) 0.72299(2)
Zn1A Zn 0.82552(3) 0.08053(8) 0.77701(2)
Zn2_2 Zn 0.00321(3) -0.67395(8) 0.75473(2)
Zn2A Zn -0.00321(3) -0.17395(8) 0.74527(2)
Zn2B Zn -0.00321(3) -0.32605(8) 0.24527(2)
Zn2C Zn 0.00321(3) -0.82605(8) 0.25473(2)
O1B O -0.0455(2) 0.4065(5) 0.66775(17)
O2C O 0.0460(2) 0.2398(5) 0.84115(16)
O3_2 O 0.0817(2) 0.5806(4) 0.76425(15)
O3A O -0.0817(2) 0.0806(4) 0.73575(15)
N2A N -0.0979(2) 0.4833(6) 0.77473(18)
N4A N 0.2974(3) -0.4152(6) 0.7681(2)
N5_2 N 0.1787(2) -0.7659(6) 0.72991(19)
loop_
_geom_bond_atom_site_label_1
_geom_bond_atom_site_label_2
_geom_bond_site_symmetry_1
_geom_bond_site_symmetry_2
Zn1 O3 1_555 1_555
Zn2 N3 1_555 1_555
Br1 C6 1_555 1_555
O1 C4 1_555 1_555
O2 C4 1_555 1_555
O3 Zn2_2 1_555 1_555
C1 N1 1_555 1_555
O4 Zn1 1_555 1_555
O5 C3 1_555 1_555
N1 Zn1 1_555 1_555
C2 C12 1_555 1_555
C3 O4 1_555 1_555
C4 C5 1_555 1_555
C5 C10 1_555 1_555
N2 N1 1_555 1_555
N3 N2 1_555 1_555
N4 C7 1_555 1_555
C6 C9 1_555 1_555
C7 H1 1_555 1_555
C8 H2 1_555 1_555
N5 C1 1_555 1_555
C9 C3 1_555 1_555
C10 C8 1_555 1_555
H3 C10 1_555 1_555
C11 C5 1_555 1_555
H4 C11 1_555 1_555
C12 N4 1_555 1_555
H5 C12 1_555 1_555
N6 C2 1_555 1_555
C13 C1 1_555 1_555
C14 C13 1_555 1_555
H6 C14 1_555 1_555
C15 C14 1_555 1_555
H7 C15 1_555 1_555
C16 N6 1_555 1_555
C17 C16 1_555 1_555
H8 C17 1_555 1_555
C18 C13 1_555 1_555
H9 C18 1_555 1_555
Zn1_2 N5 1_555 1_555
Zn1A N4 1_555 1_555
Zn2A O3 1_555 1_555
Zn2B O1 1_555 1_555
Zn2C O2 1_555 1_555
O1B Zn2 1_555 1_555
O2C Zn2 1_555 1_555
O3_2 Zn2 1_555 1_555
O3A Zn2 1_555 1_555
N2A Zn2 1_555 1_555
N4A Zn1 1_555 1_555
N5_2 Zn1 1_555 1_555
N2 Zn2A 1_555 1_555
N3 N5 1_555 1_555
C6 C11 1_555 1_555
C7 N6 1_555 1_555
C8 C9 1_555 1_555
C15 C16 1_555 1_555
C17 C18 1_555 1_555
Zn1_2 O3_2 1_555 1_555
Zn2A O3A 1_555 1_555

#END
