
#######################################################################
#
#                 Cambridge Crystallographic Data Centre
#                                CCDC 
#
#######################################################################
#
# If this CIF has been generated from an entry in the Cambridge 
# Structural Database, then it will include bibliographic, chemical, 
# crystal, experimental, refinement or atomic coordinate data resulting 
# from the CCDC's data processing and validation procedures.
#
#######################################################################

data_DEJROB
_chemical_formula_moiety         '(C14 H15 B1 Co1 N8 O2)n'
_symmetry_cell_setting           orthorhombic
_symmetry_space_group_name_H-M   'I 2 2 2'
_symmetry_Int_Tables_number      23
_space_group_name_Hall           'I 2 2'
loop_
_symmetry_equiv_pos_site_id
_symmetry_equiv_pos_as_xyz
1 x,y,z
2 -x,-y,z
3 x,-y,-z
4 -x,y,-z
5 1/2+x,1/2+y,1/2+z
6 1/2-x,1/2-y,1/2+z
7 1/2+x,1/2-y,1/2-z
8 1/2-x,1/2+y,1/2-z
_cell_length_a                   13.2281(12)
_cell_length_b                   20.861(2)
_cell_length_c                   16.773(3)
_cell_angle_alpha                90
_cell_angle_beta                 90
_cell_angle_gamma                90
_cell_volume                     4628.53
loop_
_atom_site_label
_atom_site_type_symbol
_atom_site_fract_x
_atom_site_fract_y
_atom_site_fract_z
_atom_site_U_iso_or_equiv
_atom_site_thermal_displace_type
Co1 Co 0.27535(10) 0.64143(6) 0.81711(9) 0.0312 Uani
N1 N 0.5978(5) 0.6244(3) 0.8109(5) 0.0237 Uani
N2 N 0.4285(6) 0.6195(4) 0.8001(5) 0.0340 Uani
C1 C 0.5094(7) 0.6314(5) 0.8481(6) 0.0293 Uani
H1 H 0.5036 0.6431 0.9014 0.0350 Uiso
C2 C 0.4740(8) 0.6047(5) 0.7276(7) 0.0350 Uani
H2 H 0.4388 0.5950 0.6811 0.0420 Uiso
B1 B 0.7059(9) 0.6295(5) 0.8462(8) 0.0373 Uani
C3 C 0.5745(9) 0.6061(5) 0.7334(7) 0.0430 Uani
H3 H 0.6204 0.5966 0.6931 0.0520 Uiso
O1 O 0.1141(7) 0.6543(6) 0.7932(7) 0.0920 Uiso
O2 O 0.2353(7) 0.6150(4) 0.6947(5) 0.0730 Uiso
C4 C 0.0681(13) 0.6133(10) 0.6597(11) 0.1270 Uiso
H4 H 0.1019 0.5960 0.6138 0.1900 Uiso
H5 H 0.0322 0.6514 0.6448 0.1900 Uiso
H6 H 0.0213 0.5822 0.6802 0.1900 Uiso
N3 N 0.7515(6) 0.5614(3) 0.8524(5) 0.0267 Uani
C5 C 0.7052(7) 0.5048(5) 0.8333(6) 0.0280 Uani
H7 H 0.6408 0.5022 0.8112 0.0340 Uiso
C6 C 0.8424(8) 0.5449(5) 0.8824(7) 0.0360 Uani
H8 H 0.8922 0.5730 0.9004 0.0430 Uiso
C7 C 0.8481(9) 0.4798(5) 0.8817(8) 0.0457 Uani
H9 H 0.9025 0.4559 0.9002 0.0550 Uiso
N4 N 0.7612(7) 0.4549(4) 0.8494(5) 0.0360 Uani
N5 N 0.7664(7) 0.6732(4) 0.7891(5) 0.0320 Uani
N6 N 0.7045(6) 0.6583(3) 0.9302(5) 0.0313 Uani
C8 C 0.7305(8) 0.7277(5) 0.7569(6) 0.0337 Uani
H10 H 0.6629 0.7396 0.7602 0.0400 Uiso
C9 C 0.7086(7) 0.6292(4) 1.0013(6) 0.0293 Uani
H11 H 0.7115 0.5848 1.0066 0.0350 Uiso
C10 C 0.8683(9) 0.6755(7) 0.7737(9) 0.0673 Uani
H12 H 0.9159 0.6448 0.7880 0.0810 Uiso
C11 C 0.6946(8) 0.7227(7) 0.9519(9) 0.0570 Uiso
H13 H 0.6856 0.7572 0.9175 0.0680 Uiso
N7 N 0.7081(7) 0.6673(4) 1.0621(5) 0.0370 Uani
N8 N 0.7978(6) 0.7620(4) 0.7212(6) 0.0373 Uani
C12 C 0.8864(11) 0.7286(7) 0.7355(9) 0.0620 Uiso
H14 H 0.9503 0.7423 0.7200 0.0740 Uiso
C13 C 0.7003(12) 0.7253(5) 1.0290(8) 0.0673 Uani
H15 H 0.6991 0.7633 1.0580 0.0810 Uiso
C14 C 0.1434(12) 0.6290(8) 0.7216(10) 0.1200 Uiso
Co1A Co 0.72465(10) 0.35857(6) 0.81711(9) 0.0312 Uani
Co1C Co 0.72465(10) 0.64143(6) 1.18289(9) 0.0312 Uani
Co1F Co 0.77535(10) 0.85857(6) 0.68289(9) 0.0312 Uani
N4A N 0.2388(7) 0.5451(4) 0.8494(5) 0.0360 Uani
N7C N 0.2919(7) 0.6673(4) 0.9379(5) 0.0370 Uani
N8F N 0.2978(6) 0.7380(4) 0.7788(6) 0.0373 Uani
loop_
_atom_site_aniso_label
_atom_site_aniso_U_11
_atom_site_aniso_U_22
_atom_site_aniso_U_33
_atom_site_aniso_U_23
_atom_site_aniso_U_13
_atom_site_aniso_U_12
Co1 0.0341(7) 0.0222(7) 0.0373(8) 0.0083(7) 0.0004(7) 0.0020(7)
N1 0.028(4) 0.015(4) 0.028(5) 0.006(4) -0.006(4) -0.004(3)
N2 0.030(5) 0.034(5) 0.038(6) 0.015(5) -0.003(4) 0.009(4)
C1 0.029(5) 0.028(6) 0.031(6) 0.005(5) 0.001(5) -0.007(5)
C2 0.022(6) 0.039(7) 0.044(8) 0.011(6) -0.010(5) 0.001(5)
B1 0.046(8) 0.015(6) 0.051(8) 0.005(6) 0.010(6) -0.015(6)
C3 0.053(8) 0.047(8) 0.029(7) -0.003(6) 0.000(6) 0.006(6)
N3 0.033(5) 0.013(4) 0.034(5) -0.003(4) 0.000(4) 0.004(3)
C5 0.034(6) 0.024(5) 0.026(6) -0.005(5) -0.003(5) -0.002(5)
C6 0.037(6) 0.021(6) 0.050(8) 0.010(6) -0.020(6) -0.001(5)
C7 0.048(7) 0.029(7) 0.060(9) 0.008(7) 0.000(7) 0.005(6)
N4 0.058(7) 0.015(4) 0.035(5) 0.000(4) -0.002(5) 0.007(4)
N5 0.033(5) 0.030(5) 0.033(5) 0.014(4) 0.007(4) -0.004(4)
N6 0.042(5) 0.012(4) 0.040(6) 0.005(4) -0.004(4) 0.001(4)
C8 0.023(5) 0.037(6) 0.041(7) 0.022(6) 0.008(6) 0.004(5)
C9 0.040(6) 0.007(5) 0.041(7) 0.002(5) -0.010(5) -0.003(5)
C10 0.031(7) 0.070(10) 0.101(12) 0.061(9) 0.014(7) 0.009(6)
N7 0.066(6) 0.018(4) 0.027(5) 0.002(4) -0.011(5) -0.004(5)
N8 0.029(5) 0.042(5) 0.041(6) 0.022(5) 0.003(4) -0.003(4)
C13 0.145(14) 0.018(6) 0.039(8) -0.004(6) -0.031(8) 0.014(8)
Co1A 0.0341 0.0222 0.0373 -0.0083 -0.0004 0.002
Co1C 0.0341 0.0222 0.0373 -0.0083 0.0004 -0.002
Co1F 0.0341 0.0222 0.0373 0.0083 -0.0004 -0.002
N4A 0.058 0.015 0.035 0 0.002 0.007
N7C 0.066 0.018 0.027 -0.002 -0.011 0.004
N8F 0.029 0.042 0.041 0.022 -0.003 0.003
loop_
_geom_bond_atom_site_label_1
_geom_bond_atom_site_label_2
_geom_bond_site_symmetry_1
_geom_bond_site_symmetry_2
Co1 N2 1_555 1_555
N1 C1 1_555 1_555
N2 C1 1_555 1_555
C1 H1 1_555 1_555
C2 N2 1_555 1_555
H2 C2 1_555 1_555
B1 N1 1_555 1_555
C3 N1 1_555 1_555
H3 C3 1_555 1_555
O1 Co1 1_555 1_555
O2 Co1 1_555 1_555
C4 H4 1_555 1_555
H5 C4 1_555 1_555
H6 C4 1_555 1_555
N3 B1 1_555 1_555
C5 N3 1_555 1_555
H7 C5 1_555 1_555
C6 N3 1_555 1_555
H8 C6 1_555 1_555
C7 C6 1_555 1_555
H9 C7 1_555 1_555
N4 C5 1_555 1_555
N5 B1 1_555 1_555
N6 B1 1_555 1_555
C8 N5 1_555 1_555
H10 C8 1_555 1_555
C9 N6 1_555 1_555
H11 C9 1_555 1_555
C10 N5 1_555 1_555
H12 C10 1_555 1_555
C11 N6 1_555 1_555
H13 C11 1_555 1_555
N7 C9 1_555 1_555
N8 C8 1_555 1_555
C12 C10 1_555 1_555
H14 C12 1_555 1_555
C13 C11 1_555 1_555
H15 C13 1_555 1_555
C14 O1 1_555 1_555
Co1A N4 1_555 1_555
Co1C N7 1_555 1_555
Co1F N8 1_555 1_555
N4A Co1 1_555 1_555
N7C Co1 1_555 1_555
N8F Co1 1_555 1_555
C2 C3 1_555 1_555
O2 C14 1_555 1_555
C4 C14 1_555 1_555
C7 N4 1_555 1_555
N7 C13 1_555 1_555
N8 C12 1_555 1_555

#END
