
#######################################################################
#
#                 Cambridge Crystallographic Data Centre
#                                CCDC 
#
#######################################################################
#
# If this CIF has been generated from an entry in the Cambridge 
# Structural Database, then it will include bibliographic, chemical, 
# crystal, experimental, refinement or atomic coordinate data resulting 
# from the CCDC's data processing and validation procedures.
#
#######################################################################

data_MARJAQ
_chemical_formula_moiety         '(C20 H60 F4 Ga9 N4 O40 P9)n'
_symmetry_cell_setting           orthorhombic
_symmetry_space_group_name_H-M   'P c a 21'
_symmetry_Int_Tables_number      29
_space_group_name_Hall           'P 2c -2ac'
loop_
_symmetry_equiv_pos_site_id
_symmetry_equiv_pos_as_xyz
1 x,y,z
2 -x,-y,1/2+z
3 1/2+x,-y,z
4 1/2-x,y,1/2+z
_cell_length_a                   17.49410(10)
_cell_length_b                   32.3930(4)
_cell_length_c                   10.0749(2)
_cell_angle_alpha                90
_cell_angle_beta                 90
_cell_angle_gamma                90
_cell_volume                     5709.31
loop_
_atom_site_label
_atom_site_type_symbol
_atom_site_fract_x
_atom_site_fract_y
_atom_site_fract_z
Ga1 Ga 0.42596(7) -0.07945(4) 0.06059(14)
Ga2 Ga 0.48608(7) 0.02560(4) 0.03538(14)
Ga3 Ga 0.15986(7) -0.00750(4) -0.12445(13)
Ga4 Ga 0.34307(7) -0.49390(4) -0.40586(14)
Ga5 Ga 0.08020(7) -0.41875(4) -0.58201(15)
Ga6 Ga 0.01609(7) -0.52439(4) -0.55859(14)
Ga7 Ga 0.34114(7) -0.33234(4) -0.40115(14)
Ga8 Ga 0.15626(7) -0.17809(4) -0.12577(14)
Ga9 Ga 0.30031(6) -0.24113(4) -0.07907(12)
P1 P 0.3131(2) -0.00363(9) 0.0605(3)
P2 P 0.5214(2) -0.04666(10) -0.1656(3)
P3 P 0.0679(2) -0.09293(10) -0.1456(4)
P4 P -0.0186(2) -0.45188(11) -0.3587(3)
P5 P 0.1886(2) -0.49631(10) -0.5911(3)
P6 P 0.4370(2) -0.40943(10) -0.3742(3)
P7 P 0.35025(15) -0.24133(8) -0.3854(3)
P8 P 0.3185(2) -0.15945(10) 0.0473(4)
P9 P 0.3098(2) -0.33726(10) -0.0885(3)
O1 O 0.3671(4) -0.4386(3) -0.3618(8)
O2 O 0.1343(4) -0.0623(3) -0.1657(9)
O3 O 0.1277(4) -0.5276(2) -0.5594(10)
O4 O 0.3602(4) -0.2288(2) -0.2402(7)
O5 O 0.0230(4) -0.4918(3) -0.3975(8)
O6 O 0.2086(4) -0.2298(2) -0.1735(7)
O7 O 0.3757(4) 0.0295(2) 0.0372(9)
O8 O 0.4805(4) -0.0070(2) -0.1247(9)
O9 O 0.2648(4) -0.2489(2) -0.4150(7)
O10 O 0.2441(5) -0.1565(3) -0.0311(8)
O11 O 0.2587(5) -0.5076(3) -0.5047(8)
O12 O 0.3416(4) -0.2944(3) -0.0589(10)
O13 O 0.2467(5) 0.0070(3) -0.0294(8)
O14 O 0.0007(4) -0.0746(3) -0.0709(9)
O15 O 0.3548(4) -0.2028(2) 0.0262(9)
O16 O 0.5067(4) -0.4273(2) -0.4438(9)
O17 O 0.4956(4) -0.0831(2) -0.0773(10)
O18 O 0.0120(4) -0.4143(2) -0.4405(9)
O19 O 0.6082(4) -0.0418(3) -0.1520(9)
O20 O 0.3393(4) -0.0480(3) 0.0249(9)
O21 O 0.1663(5) -0.4512(3) -0.5512(9)
O22 O -0.1050(4) -0.4561(3) -0.3838(9)
O23 O 0.2978(5) -0.3446(3) -0.2411(8)
O24 O 0.5001(4) -0.0586(3) -0.3076(8)
O25 O 0.2839(4) -0.0029(3) 0.2056(8)
O26 O 0.2123(5) -0.4976(3) -0.7383(8)
O27 O 0.3053(5) -0.1532(3) 0.1961(8)
O28 O 0.4576(5) -0.3942(3) -0.2337(9)
O29 O -0.0038(5) -0.4414(3) -0.2115(8)
O30 O 0.4118(4) -0.3707(2) -0.4571(10)
O31 O 0.0411(5) -0.1071(3) -0.2879(8)
O32 O 0.0962(4) -0.1318(3) -0.0745(9)
O33 O 0.3752(5) -0.1278(3) -0.0079(8)
O34 O 0.3636(5) -0.3691(3) -0.0271(9)
O35 O 0.3872(4) -0.2081(2) -0.4737(7)
O36 O 0.2284(4) -0.3416(3) -0.0324(8)
O37 O 0.3923(4) -0.2834(2) -0.4090(8)
O38 O 0.0604(4) -0.1955(3) -0.2408(8)
F1 F 0.6003(4) 0.0159(2) 0.0416(8)
F2 F 0.0258(4) -0.4705(2) -0.6506(8)
F3 F 0.4776(4) -0.0283(2) 0.1313(8)
F4 F 0.4040(4) -0.4848(2) -0.5710(9)
O24A O 0.4999(4) 0.0586(3) 0.1924(8)
O19B O 0.1082(4) 0.0418(3) -0.1520(9)
O25C O 0.2161(4) -0.0029(3) -0.2944(8)
F1B F 0.1003(4) -0.0159(2) 0.0416(8)
O28C O 0.0424(5) -0.3942(3) -0.7337(9)
O34C O 0.1364(5) -0.3691(3) -0.5271(9)
O16B O 0.0067(4) -0.5727(2) -0.4438(9)
F4B F -0.0960(4) -0.5152(2) -0.5710(9)
O36C O 0.2716(4) -0.3416(3) -0.5324(8)
O14B O 0.5007(4) 0.0746(3) -0.0709(9)
O31C O 0.4589(5) -0.1071(3) 0.2121(8)
O22B O 0.3950(4) -0.5439(3) -0.3838(9)
O29A O 0.0038(5) -0.5586(3) -0.7115(8)
O26C O 0.2877(5) -0.4976(3) -0.2383(8)
O9C O 0.2352(4) -0.2489(2) 0.0850(7)
O35C O 0.1128(4) -0.2081(2) 0.0263(7)
O27C O 0.1947(5) -0.1532(3) -0.3039(8)
Ga6B Ga 0.51609(7) -0.47561(4) -0.55859(14)
Ga3B Ga 0.65986(7) 0.00750(4) -0.12445(13)
Ga2A Ga 0.51392(7) -0.02560(4) -0.46462(14)
Ga3C Ga 0.34014(7) -0.00750(4) 0.37555(13)
Ga5C Ga 0.41980(7) -0.41875(4) -0.08201(15)
Ga7C Ga 0.15886(7) -0.33234(4) 0.09885(14)
Ga2B Ga -0.01392(7) -0.02560(4) 0.03538(14)
Ga4B Ga -0.15693(7) -0.50610(4) -0.40586(14)
Ga1C Ga 0.07404(7) -0.07945(4) -0.43941(14)
Ga6A Ga -0.01609(7) -0.47561(4) -0.05859(14)
Ga4C Ga 0.15693(7) -0.49390(4) -0.90586(14)
Ga9C Ga 0.19969(6) -0.24113(4) -0.57907(12)
Ga8C Ga 0.34374(7) -0.17809(4) -0.62577(14)
Ga8C_2 Ga 0.34374(7) -0.17809(4) 0.37423(14)
O39 O 0.8182(8) 0.4259(4) -0.7464(16)
O40 O 0.8064(9) 0.0845(4) -0.2671(18)
N1 N 0.5457(6) 0.1471(4) -0.7895(11)
N2 N 0.3610(7) 0.4534(4) -0.7638(12)
C1 C 0.3299(15) 0.4135(7) -0.7973(26)
C2 C 0.2870(16) 0.3896(8) -0.7133(37)
C3 C 0.3146(21) 0.3664(10) -0.6045(32)
C4 C 0.3491(23) 0.3272(10) -0.6237(45)
C5 C 0.4119(22) 0.3153(9) -0.5422(41)
C6 C 0.4468(20) 0.2762(8) -0.5554(43)
C7 C 0.4175(25) 0.2440(8) -0.6311(43)
C8 C 0.4473(13) 0.2018(7) -0.6163(21)
C9 C 0.4223(12) 0.1743(8) -0.7175(28)
C10 C 0.4666(9) 0.1580(6) -0.8210(18)
N3 N 0.1400(6) 0.0440(3) -0.7575(12)
N4 N -0.0876(9) 0.3593(6) -0.7457(18)
C11 C 0.1504(7) 0.0837(4) -0.8317(13)
C12 C 0.2237(11) 0.1061(6) -0.7951(22)
C13 C 0.2235(14) 0.1207(7) -0.6555(23)
C14 C 0.1713(18) 0.1536(8) -0.6141(33)
C15 C 0.1791(21) 0.1967(8) -0.6575(36)
C16 C 0.1436(24) 0.2298(8) -0.5701(34)
C17 C 0.1330(21) 0.2712(9) -0.6361(41)
C18 C 0.0678(16) 0.2970(10) -0.5907(31)
C19 C 0.0384(13) 0.3292(9) -0.6853(38)
C20 C -0.0473(14) 0.3172(8) -0.7371(31)
loop_
_geom_bond_atom_site_label_1
_geom_bond_atom_site_label_2
_geom_bond_site_symmetry_1
_geom_bond_site_symmetry_2
Ga1 O17 1_555 1_555
Ga2 O7 1_555 1_555
Ga3 O2 1_555 1_555
Ga4 O1 1_555 1_555
Ga5 O18 1_555 1_555
Ga6 O3 1_555 1_555
Ga7 O23 1_555 1_555
Ga8 O6 1_555 1_555
Ga9 O4 1_555 1_555
P1 O7 1_555 1_555
P2 O8 1_555 1_555
P3 O2 1_555 1_555
P4 O5 1_555 1_555
P5 O3 1_555 1_555
P6 O1 1_555 1_555
P7 O4 1_555 1_555
P8 O10 1_555 1_555
P9 O12 1_555 1_555
O5 Ga6 1_555 1_555
O6 Ga9 1_555 1_555
O8 Ga2 1_555 1_555
O9 P7 1_555 1_555
O10 Ga8 1_555 1_555
O11 Ga4 1_555 1_555
O12 Ga9 1_555 1_555
O13 Ga3 1_555 1_555
O14 P3 1_555 1_555
O15 Ga9 1_555 1_555
O16 P6 1_555 1_555
O17 P2 1_555 1_555
O18 P4 1_555 1_555
O19 P2 1_555 1_555
O20 Ga1 1_555 1_555
O21 Ga5 1_555 1_555
O22 P4 1_555 1_555
O23 P9 1_555 1_555
O24 P2 1_555 1_555
O25 P1 1_555 1_555
O26 P5 1_555 1_555
O27 P8 1_555 1_555
O28 P6 1_555 1_555
O29 P4 1_555 1_555
O30 Ga7 1_555 1_555
O31 P3 1_555 1_555
O32 Ga8 1_555 1_555
O33 Ga1 1_555 1_555
O34 P9 1_555 1_555
O35 P7 1_555 1_555
O36 P9 1_555 1_555
O37 Ga7 1_555 1_555
O38 Ga8 1_555 1_555
F1 Ga2 1_555 1_555
F2 Ga5 1_555 1_555
F3 Ga1 1_555 1_555
F4 Ga4 1_555 1_555
N1 C10 1_555 1_555
N2 C1 1_555 1_555
C1 C2 1_555 1_555
C2 C3 1_555 1_555
C3 C4 1_555 1_555
C4 C5 1_555 1_555
C5 C6 1_555 1_555
C6 C7 1_555 1_555
C7 C8 1_555 1_555
C8 C9 1_555 1_555
C9 C10 1_555 1_555
N3 C11 1_555 1_555
N4 C20 1_555 1_555
C11 C12 1_555 1_555
C12 C13 1_555 1_555
C13 C14 1_555 1_555
C14 C15 1_555 1_555
C15 C16 1_555 1_555
C16 C17 1_555 1_555
C17 C18 1_555 1_555
C18 C19 1_555 1_555
C19 C20 1_555 1_555
O24A Ga2 1_555 1_555
O19B Ga3 1_555 1_555
O25C Ga3 1_555 1_555
F1B Ga3 1_555 1_555
O28C Ga5 1_555 1_555
O34C Ga5 1_555 1_555
O16B Ga6 1_555 1_555
F4B Ga6 1_555 1_555
O36C Ga7 1_555 1_555
O14B Ga2 1_555 1_555
O31C Ga1 1_555 1_555
O22B Ga4 1_555 1_555
O29A Ga6 1_555 1_555
O26C Ga4 1_555 1_555
O9C Ga9 1_555 1_555
O35C Ga8 1_555 1_555
O27C Ga8 1_555 1_555
Ga6B O16 1_555 1_555
Ga3B O19 1_555 1_555
Ga2A O24 1_555 1_555
Ga3C O25 1_555 1_555
Ga5C O28 1_555 1_555
Ga7C O36 1_555 1_555
Ga2B O14 1_555 1_555
Ga4B O22 1_555 1_555
Ga1C O31 1_555 1_555
Ga6A O29 1_555 1_555
Ga4C O26 1_555 1_555
Ga9C O9 1_555 1_555
Ga8C O35 1_555 1_555
Ga8C_2 O27 1_555 1_555
Ga2 F3 1_555 1_555
Ga6 F2 1_555 1_555
P1 O13 1_555 1_555
P1 O20 1_555 1_555
P3 O32 1_555 1_555
P5 O11 1_555 1_555
P5 O21 1_555 1_555
P6 O30 1_555 1_555
P7 O37 1_555 1_555
P8 O15 1_555 1_555
P8 O33 1_555 1_555
O34 Ga5C 1_555 1_555
F1 Ga3B 1_555 1_555
F4 Ga6B 1_555 1_555
F1B Ga2B 1_555 1_555
F4B Ga4B 1_555 1_555

#END
