
#######################################################################
#
#                 Cambridge Crystallographic Data Centre
#                                CCDC 
#
#######################################################################
#
# If this CIF has been generated from an entry in the Cambridge 
# Structural Database, then it will include bibliographic, chemical, 
# crystal, experimental, refinement or atomic coordinate data resulting 
# from the CCDC's data processing and validation procedures.
#
#######################################################################

data_IZEWAN
_chemical_formula_moiety         '(C27 H18 O11 Zn2)n'
_symmetry_cell_setting           monoclinic
_symmetry_space_group_name_H-M   'P 21/c'
_symmetry_Int_Tables_number      14
_space_group_name_Hall           '-P 2ybc'
loop_
_symmetry_equiv_pos_site_id
_symmetry_equiv_pos_as_xyz
1 x,y,z
2 -x,1/2+y,1/2-z
3 -x,-y,-z
4 x,1/2-y,1/2+z
_cell_length_a                   7.3800(15)
_cell_length_b                   28.290(6)
_cell_length_c                   22.470(5)
_cell_angle_alpha                90
_cell_angle_beta                 99.13(3)
_cell_angle_gamma                90
_cell_volume                     4631.86
loop_
_atom_site_label
_atom_site_type_symbol
_atom_site_fract_x
_atom_site_fract_y
_atom_site_fract_z
C1 C -0.0896(6) 0.08731(18) 0.2554(2)
C2 C 0.0634(6) 0.12059(17) 0.2798(2)
C3 C 0.0210(7) 0.16242(18) 0.3070(2)
H1 H -0.1014 0.1692 0.3085
C4 C 0.1542(7) 0.19446(17) 0.3319(2)
C5 C 0.3378(7) 0.18303(19) 0.3278(3)
H2 H 0.4306 0.2039 0.3435
C6 C 0.3830(7) 0.1416(2) 0.3010(3)
H3 H 0.5056 0.1352 0.2992
C7 C 0.2509(7) 0.10932(17) 0.2769(2)
C8 C 0.1120(7) 0.23982(17) 0.3612(2)
C9 C -0.0465(7) 0.26561(18) 0.3418(3)
H4 H -0.1321 0.2539 0.3104
C10 C -0.0801(7) 0.30849(18) 0.3681(2)
C11 C 0.0531(7) 0.3265(2) 0.4146(3)
H5 H 0.0342 0.3556 0.4318
C12 C 0.2145(7) 0.30086(19) 0.4354(3)
C13 C 0.2378(7) 0.25780(18) 0.4076(3)
H6 H 0.3433 0.2404 0.4209
C14 C -0.2478(7) 0.33654(17) 0.3464(2)
C15 C -0.4162(7) 0.31398(19) 0.3317(3)
H7 H -0.4197 0.2812 0.3340
C16 C -0.5815(8) 0.3385(2) 0.3134(3)
H8 H -0.6930 0.3225 0.3063
C17 C -0.5737(7) 0.3874(2) 0.3062(3)
C18 C -0.4065(7) 0.41142(19) 0.3175(3)
C19 C -0.2470(7) 0.38505(18) 0.3381(3)
H9 H -0.1356 0.4010 0.3466
C20 C -0.3916(8) 0.46233(19) 0.3087(3)
C21 C 0.3600(7) 0.3204(2) 0.4830(3)
C22 C 0.3227(7) 0.34952(19) 0.5302(3)
H10 H 0.2010 0.3568 0.5323
C23 C 0.4572(7) 0.3679(2) 0.5734(3)
C24 C 0.6388(7) 0.3564(2) 0.5709(3)
C25 C 0.6834(8) 0.3269(2) 0.5251(3)
H11 H 0.8049 0.3194 0.5231
C26 C 0.5451(8) 0.3096(2) 0.4841(3)
H12 H 0.5753 0.2892 0.4547
C27 C 0.4085(7) 0.39921(19) 0.6218(3)
O1 O 0.2966(5) 0.06872(13) 0.25272(18)
O2 O -0.0754(5) 0.05735(13) 0.21536(19)
O3 O -0.2382(5) 0.09121(13) 0.27741(18)
O4 O -0.7366(5) 0.41018(15) 0.2877(2)
H13 H -0.7162 0.4376 0.2788
O5 O -0.5389(5) 0.48561(13) 0.2907(2)
O6 O -0.2363(5) 0.48133(13) 0.31958(19)
O7 O 0.2382(5) 0.40869(14) 0.6213(2)
O8 O 0.5349(5) 0.41591(16) 0.6599(2)
O9 O 0.7844(6) 0.3739(2) 0.6115(3)
H14 H 0.7457 0.3921 0.6349
O10 O -0.4053(6) 0.01926(18) 0.3345(2)
H15 H -0.4708 -0.0055 0.3339
H16 H -0.2935 0.0113 0.3443
O11 O -0.0406(7) 0.02441(16) 0.0937(2)
H17 H -0.0029 -0.0019 0.0822
H18 H -0.0403 0.0442 0.0671
Zn1 Zn 0.13730(8) 0.04717(2) 0.17419(3)
Zn2 Zn -0.44598(8) 0.05087(2) 0.24499(3)
O1_2 O -0.7034(5) 0.06872(13) 0.25272(18)
O5A O -0.4611(5) -0.01439(13) 0.2093(2)
O6A O 0.2363(5) -0.01867(13) 0.18042(19)
O7C O 0.2382(5) 0.09131(14) 0.1213(2)
O8C O -0.4651(5) 0.08409(16) 0.1599(2)
Zn1A Zn -0.13730(8) 0.54717(2) 0.32581(3)
Zn1C Zn 0.13730(8) 0.45283(2) 0.67419(3)
Zn2_2 Zn 0.55402(8) 0.05087(2) 0.24499(3)
Zn2A Zn -0.55402(8) 0.55087(2) 0.25501(3)
Zn2C Zn 0.55402(8) 0.44913(2) 0.74499(3)
loop_
_geom_bond_atom_site_label_1
_geom_bond_atom_site_label_2
_geom_bond_site_symmetry_1
_geom_bond_site_symmetry_2
C1 C2 1_555 1_555
C2 C3 1_555 1_555
C3 H1 1_555 1_555
C4 C3 1_555 1_555
C5 C4 1_555 1_555
H2 C5 1_555 1_555
C6 C5 1_555 1_555
H3 C6 1_555 1_555
C7 C2 1_555 1_555
C8 C4 1_555 1_555
C9 C8 1_555 1_555
H4 C9 1_555 1_555
C10 C9 1_555 1_555
C11 C10 1_555 1_555
H5 C11 1_555 1_555
C12 C11 1_555 1_555
C13 C8 1_555 1_555
H6 C13 1_555 1_555
C14 C10 1_555 1_555
C15 C14 1_555 1_555
H7 C15 1_555 1_555
C16 C15 1_555 1_555
H8 C16 1_555 1_555
C17 C16 1_555 1_555
C18 C17 1_555 1_555
C19 C14 1_555 1_555
H9 C19 1_555 1_555
C20 C18 1_555 1_555
C21 C12 1_555 1_555
C22 C21 1_555 1_555
H10 C22 1_555 1_555
C23 C22 1_555 1_555
C24 C23 1_555 1_555
C25 C24 1_555 1_555
H11 C25 1_555 1_555
C26 C21 1_555 1_555
H12 C26 1_555 1_555
C27 C23 1_555 1_555
O1 C7 1_555 1_555
O2 C1 1_555 1_555
O3 C1 1_555 1_555
O4 C17 1_555 1_555
H13 O4 1_555 1_555
O5 C20 1_555 1_555
O6 C20 1_555 1_555
O7 C27 1_555 1_555
O8 C27 1_555 1_555
O9 C24 1_555 1_555
H14 O9 1_555 1_555
O10 H15 1_555 1_555
H16 O10 1_555 1_555
O11 H17 1_555 1_555
H18 O11 1_555 1_555
Zn1 O1 1_555 1_555
Zn2 O3 1_555 1_555
O1_2 Zn2 1_555 1_555
O5A Zn2 1_555 1_555
O6A Zn1 1_555 1_555
O7C Zn1 1_555 1_555
O8C Zn2 1_555 1_555
Zn1A O6 1_555 1_555
Zn1C O7 1_555 1_555
Zn2_2 O1 1_555 1_555
Zn2A O5 1_555 1_555
Zn2C O8 1_555 1_555
C6 C7 1_555 1_555
C12 C13 1_555 1_555
C18 C19 1_555 1_555
C25 C26 1_555 1_555
O2 Zn1 1_555 1_555
O10 Zn2 1_555 1_555
O11 Zn1 1_555 1_555

#END
