
#######################################################################
#
#                 Cambridge Crystallographic Data Centre
#                                CCDC 
#
#######################################################################
#
# If this CIF has been generated from an entry in the Cambridge 
# Structural Database, then it will include bibliographic, chemical, 
# crystal, experimental, refinement or atomic coordinate data resulting 
# from the CCDC's data processing and validation procedures.
#
#######################################################################

data_QAVZAQ
_chemical_formula_moiety         '(C26 H28 N6 Nd2 Ni1 O23)n'
_symmetry_cell_setting           triclinic
_symmetry_space_group_name_H-M   'P -1'
_symmetry_Int_Tables_number      2
_space_group_name_Hall           '-P 1'
loop_
_symmetry_equiv_pos_site_id
_symmetry_equiv_pos_as_xyz
1 x,y,z
2 -x,-y,-z
_cell_length_a                   7.2904(12)
_cell_length_b                   9.2414(15)
_cell_length_c                   14.014(2)
_cell_angle_alpha                83.886(2)
_cell_angle_beta                 85.398(2)
_cell_angle_gamma                72.647(2)
_cell_volume                     894.903
loop_
_atom_site_label
_atom_site_type_symbol
_atom_site_fract_x
_atom_site_fract_y
_atom_site_fract_z
Nd1 Nd -0.49527(3) 0.28690(3) 0.095490(16)
Ni1 Ni -0.5000 0.5000 0.5000
O1 O 0.2318(5) 0.3417(4) 0.2244(2)
O2 O 0.1662(5) 0.4840(4) 0.0900(2)
O3 O -0.4848(5) 1.0631(4) 0.2337(3)
O4 O -0.2809(5) 1.0167(4) 0.1101(2)
O5 O -0.4754(5) 0.5613(4) 0.0776(2)
O6 O -0.5951(6) 0.8095(4) 0.0751(2)
O7 O -0.3525(5) 0.3313(4) 0.2378(2)
O8 O -0.3741(5) 0.3541(4) 0.3950(2)
O9 O -0.7144(5) 0.1430(4) 0.0519(3)
H1 H -0.7095 0.0921 0.0068
H2 H -0.7453 0.0866 0.0953
O10 O -0.1582(5) 0.2898(4) 0.0500(3)
H3 H -0.1597 0.3552 0.0053
H4 H -0.0571 0.2253 0.0638
N1 N -0.2643(6) 0.6013(5) 0.4759(3)
H5 H -0.2717 0.6748 0.5135
H6 H -0.1636 0.5274 0.4978
N2 N -0.7254(6) 0.7959(5) 0.2632(3)
H7 H -0.7828 0.8837 0.2376
N3 N -0.6316(6) 0.6243(5) 0.3827(3)
C1 C 0.1317(6) 0.4592(5) 0.1778(3)
C2 C -0.0223(6) 0.5722(5) 0.2312(3)
C3 C -0.0685(6) 0.5370(5) 0.3271(3)
H8 H -0.0079 0.4416 0.3568
C4 C -0.2039(7) 0.6424(5) 0.3791(3)
C5 C -0.2901(6) 0.7852(5) 0.3359(3)
H9 H -0.3779 0.8573 0.3713
C6 C -0.2463(6) 0.8220(5) 0.2397(3)
C7 C -0.1111(6) 0.7148(5) 0.1873(3)
H10 H -0.0807 0.7391 0.1231
C8 C -0.3437(7) 0.9765(5) 0.1922(3)
C9 C -0.5556(7) 0.6804(6) 0.1185(3)
C10 C -0.6068(7) 0.6693(5) 0.2232(3)
C11 C -0.5490(7) 0.5619(5) 0.2991(3)
C12 C -0.7366(7) 0.7634(6) 0.3583(3)
H11 H -0.8093 0.8307 0.4015
C13 C -0.4162(7) 0.4037(5) 0.3096(3)
Nd1A Nd -1.50473(3) 0.71310(3) 0.904510(16)
Nd1_2 Nd -0.49527(3) 1.28690(3) 0.095490(16)
Nd1A_2 Nd -0.50473(3) -0.28690(3) 0.904510(16)
Nd1_3 Nd 0.50473(3) 0.28690(3) 0.095490(16)
Nd1A_3 Nd -0.50473(3) 0.71310(3) 0.904510(16)
Nd1A_4 Nd -0.50473(3) 0.71310(3) -0.095490(16)
Nd1_4 Nd -0.49527(3) 0.28690(3) 1.095490(16)
O1A O -1.2318(5) 0.6583(4) 0.7756(2)
O1_2 O -0.7682(5) 0.3417(4) 0.2244(2)
O1A_2 O -0.2318(5) 0.6583(4) 0.7756(2)
O2A O -1.1662(5) 0.5160(4) 0.9100(2)
O2_2 O -0.8338(5) 0.4840(4) 0.0900(2)
O2A_2 O -0.1662(5) 0.5160(4) 0.9100(2)
O3A O -0.5152(5) -0.0631(4) 0.7663(3)
O3_2 O -0.4848(5) 0.0631(4) 0.2337(3)
O3A_2 O -0.5152(5) 0.9369(4) 0.7663(3)
O4A O -0.7191(5) -0.0167(4) 0.8899(2)
O4_2 O -0.2809(5) 0.0167(4) 0.1101(2)
O4A_2 O -0.7191(5) 0.9833(4) 0.8899(2)
O5A O -0.5246(5) 0.4387(4) 0.9224(2)
O5A_2 O -0.5246(5) 0.4387(4) -0.0776(2)
O5_2 O -0.4754(5) 0.5613(4) 1.0776(2)
O6A O -0.4049(6) 0.1905(4) 0.9249(2)
O6A_2 O -0.4049(6) 0.1905(4) -0.0751(2)
O6_2 O -0.5951(6) 0.8095(4) 1.0751(2)
O7A O -0.6475(5) 0.6687(4) 0.7622(2)
O8A O -0.6259(5) 0.6459(4) 0.6050(2)
O9A O -0.2856(5) 0.8570(4) 0.9481(3)
H1A H -0.2905 0.9079 0.9932
H2A H -0.2547 0.9134 0.9047
O10A O -0.8418(5) 0.7102(4) 0.9500(3)
H3A H -0.8403 0.6448 0.9947
H4A H -0.9429 0.7747 0.9362
N1A N -0.7357(6) 0.3987(5) 0.5241(3)
H5A H -0.7283 0.3252 0.4865
H6A H -0.8364 0.4726 0.5022
N2A N -0.2746(6) 0.2041(5) 0.7368(3)
H7A H -0.2172 0.1163 0.7624
N3A N -0.3684(6) 0.3757(5) 0.6173(3)
C1A C -1.1317(6) 0.5408(5) 0.8222(3)
C2A C -0.9777(6) 0.4278(5) 0.7688(3)
C3A C -0.9315(6) 0.4630(5) 0.6729(3)
H8A H -0.9921 0.5584 0.6432
C4A C -0.7961(7) 0.3576(5) 0.6209(3)
C5A C -0.7099(6) 0.2148(5) 0.6641(3)
H9A H -0.6221 0.1427 0.6287
C6A C -0.7537(6) 0.1780(5) 0.7603(3)
C7A C -0.8889(6) 0.2852(5) 0.8127(3)
H10A H -0.9193 0.2609 0.8769
C8A C -0.6563(7) 0.0235(5) 0.8078(3)
C9A C -0.4444(7) 0.3196(6) 0.8815(3)
C10A C -0.3932(7) 0.3307(5) 0.7768(3)
C11A C -0.4510(7) 0.4381(5) 0.7009(3)
C12A C -0.2634(7) 0.2366(6) 0.6417(3)
H11A H -0.1907 0.1693 0.5985
C13A C -0.5838(7) 0.5963(5) 0.6904(3)
O11 O 0.3640(9) 0.1099(6) 0.4280(4)
H12 H 0.3950 0.0827 0.3737
H13 H 0.4547 0.0961 0.4623
O12 O 0.0510(7) 0.0983(6) 0.2329(5)
H14 H -0.0565 0.1599 0.2336
H15 H 0.1011 0.1671 0.2207
O13 O 0.9651(18) 0.1184(15) 0.4411(9)
H16 H 0.9526 0.1174 0.3835
H17 H 1.0250 0.1535 0.4749
loop_
_geom_bond_atom_site_label_1
_geom_bond_atom_site_label_2
_geom_bond_site_symmetry_1
_geom_bond_site_symmetry_2
Nd1 O5 1_555 1_555
Ni1 O8 1_555 1_555
O1 C1 1_555 1_555
O2 C1 1_555 1_555
O3 C8 1_555 1_555
O4 C8 1_555 1_555
O5 C9 1_555 1_555
O6 C9 1_555 1_555
O7 Nd1 1_555 1_555
O8 C13 1_555 1_555
O9 Nd1 1_555 1_555
H1 O9 1_555 1_555
H2 O9 1_555 1_555
O10 Nd1 1_555 1_555
H3 O10 1_555 1_555
H4 O10 1_555 1_555
N1 Ni1 1_555 1_555
H5 N1 1_555 1_555
H6 N1 1_555 1_555
N2 H7 1_555 1_555
N3 Ni1 1_555 1_555
C1 C2 1_555 1_555
C2 C3 1_555 1_555
C3 H8 1_555 1_555
C4 N1 1_555 1_555
C5 C4 1_555 1_555
H9 C5 1_555 1_555
C6 C5 1_555 1_555
C7 C2 1_555 1_555
H10 C7 1_555 1_555
C8 C6 1_555 1_555
C9 C10 1_555 1_555
C10 N2 1_555 1_555
C11 N3 1_555 1_555
C12 N2 1_555 1_555
H11 C12 1_555 1_555
C13 O7 1_555 1_555
O11 H12 1_555 1_555
H13 O11 1_555 1_555
O12 H14 1_555 1_555
H15 O12 1_555 1_555
O13 H16 1_555 1_555
H17 O13 1_555 1_555
Nd1A O1A 1_555 1_555
Nd1_2 O3 1_555 1_555
Nd1A_2 O3A 1_555 1_555
Nd1_3 O1 1_555 1_555
Nd1A_3 O1A_2 1_555 1_555
Nd1A_4 O5 1_555 1_555
Nd1_4 O5A 1_555 1_555
O1A C1A 1_555 1_555
O1_2 Nd1 1_555 1_555
O2A Nd1A 1_555 1_555
O2_2 Nd1 1_555 1_555
O2A_2 Nd1A_3 1_555 1_555
O3A C8A 1_555 1_555
O3_2 Nd1 1_555 1_555
O3A_2 Nd1A_3 1_555 1_555
O4A Nd1A_2 1_555 1_555
O4_2 Nd1 1_555 1_555
O4A_2 Nd1A_3 1_555 1_555
O5A Nd1A_3 1_555 1_555
O5A_2 Nd1 1_555 1_555
O5_2 Nd1A_3 1_555 1_555
O6A Nd1_4 1_555 1_555
O6A_2 Nd1 1_555 1_555
O6_2 Nd1A_3 1_555 1_555
O7A Nd1A_3 1_555 1_555
O8A Ni1 1_555 1_555
O9A Nd1A_3 1_555 1_555
H1A O9A 1_555 1_555
H2A O9A 1_555 1_555
O10A Nd1A_3 1_555 1_555
H3A O10A 1_555 1_555
H4A O10A 1_555 1_555
N1A Ni1 1_555 1_555
H5A N1A 1_555 1_555
H6A N1A 1_555 1_555
N2A H7A 1_555 1_555
N3A Ni1 1_555 1_555
C1A O2A 1_555 1_555
C2A C1A 1_555 1_555
C3A C2A 1_555 1_555
H8A C3A 1_555 1_555
C4A N1A 1_555 1_555
C5A C4A 1_555 1_555
H9A C5A 1_555 1_555
C6A C5A 1_555 1_555
C7A C2A 1_555 1_555
H10A C7A 1_555 1_555
C8A O4A 1_555 1_555
C9A O5A 1_555 1_555
C10A N2A 1_555 1_555
C11A N3A 1_555 1_555
C12A N2A 1_555 1_555
H11A C12A 1_555 1_555
C13A O7A 1_555 1_555
O2 Nd1_3 1_555 1_555
O4 Nd1_2 1_555 1_555
O6 Nd1A_4 1_555 1_555
N3 C12 1_555 1_555
C3 C4 1_555 1_555
C6 C7 1_555 1_555
C10 C11 1_555 1_555
C11 C13 1_555 1_555
Nd1A_4 O5A_2 1_555 1_555
Nd1_4 O5_2 1_555 1_555
O6A C9A 1_555 1_555
O8A C13A 1_555 1_555
N3A C12A 1_555 1_555
C3A C4A 1_555 1_555
C6A C7A 1_555 1_555
C6A C8A 1_555 1_555
C9A C10A 1_555 1_555
C10A C11A 1_555 1_555
C11A C13A 1_555 1_555

#END
