
#######################################################################
#
#                 Cambridge Crystallographic Data Centre
#                                CCDC 
#
#######################################################################
#
# If this CIF has been generated from an entry in the Cambridge 
# Structural Database, then it will include bibliographic, chemical, 
# crystal, experimental, refinement or atomic coordinate data resulting 
# from the CCDC's data processing and validation procedures.
#
#######################################################################

data_PAPXUB
_chemical_formula_moiety         '(C28 H22 Cd1 N6 O2 S2)n'
_symmetry_cell_setting           monoclinic
_symmetry_space_group_name_H-M   'C 2/c'
_symmetry_Int_Tables_number      15
_space_group_name_Hall           '-C 2yc'
loop_
_symmetry_equiv_pos_site_id
_symmetry_equiv_pos_as_xyz
1 x,y,z
2 -x,y,1/2-z
3 1/2+x,1/2+y,z
4 1/2-x,1/2+y,1/2-z
5 -x,-y,-z
6 x,-y,1/2+z
7 1/2-x,1/2-y,-z
8 1/2+x,1/2-y,1/2+z
_cell_length_a                   23.712(5)
_cell_length_b                   12.822(3)
_cell_length_c                   10.888(2)
_cell_angle_alpha                90
_cell_angle_beta                 112.132(2)
_cell_angle_gamma                90
_cell_volume                     3066.42
loop_
_atom_site_label
_atom_site_type_symbol
_atom_site_fract_x
_atom_site_fract_y
_atom_site_fract_z
C1 C -0.08226(19) -0.2887(3) 0.1807(4)
H1 H -0.0700 -0.2856 0.1071
C2 C -0.1189(2) -0.3694(3) 0.1877(4)
H2 H -0.1314 -0.4212 0.1204
C3 C -0.13750(19) -0.3746(3) 0.2940(4)
H3 H -0.1629 -0.4299 0.3006
C4 C -0.11846(17) -0.2977(3) 0.3904(4)
C5 C -0.08120(18) -0.2196(3) 0.3753(4)
H4 H -0.0678 -0.1669 0.4414
C6 C -0.13713(19) -0.2947(3) 0.5076(4)
H5 H -0.1006 -0.2932 0.5908
H6 H -0.1615 -0.2313 0.5041
C7 C -0.20768(19) -0.3872(3) 0.5783(4)
C8 C -0.2534(2) -0.4612(3) 0.5392(4)
H7 H -0.2587 -0.5043 0.4647
C9 C -0.29104(19) -0.4723(3) 0.6082(4)
H8 H -0.3226 -0.5229 0.5807
C10 C -0.28320(18) -0.4102(3) 0.7175(4)
H9 H -0.3094 -0.4182 0.7648
C11 C -0.23682(17) -0.3358(3) 0.7580(4)
C12 C -0.19878(18) -0.3240(3) 0.6868(4)
H10 H -0.1673 -0.2731 0.7127
C13 C -0.22674(18) -0.2716(3) 0.8752(4)
H11 H -0.1960 -0.2194 0.8992
C14 C 0.06226(17) 0.0792(3) 0.0912(4)
Cd1 Cd 0.0000 -0.07914(3) 0.2500
N1 N -0.06302(15) -0.2140(3) 0.2734(3)
N2 N -0.25853(15) -0.2845(3) 0.9459(3)
N3 N 0.04898(17) 0.0881(3) -0.0219(4)
O1 O -0.17210(16) -0.3849(2) 0.5038(3)
S1 S 0.08348(5) 0.06619(9) 0.25213(10)
C1F C -0.41774(19) -0.2113(3) 1.8193(4)
H1F H -0.4300 -0.2144 1.8929
C2F C -0.3811(2) -0.1306(3) 1.8123(4)
H2F H -0.3686 -0.0788 1.8796
C3F C -0.36250(19) -0.1254(3) 1.7060(4)
H3F H -0.3371 -0.0701 1.6994
C4F C -0.38154(17) -0.2023(3) 1.6096(4)
C5F C -0.41880(18) -0.2804(3) 1.6247(4)
H4F H -0.4322 -0.3331 1.5586
C6F C -0.36287(19) -0.2053(3) 1.4924(4)
H5F H -0.3994 -0.2068 1.4092
H6F H -0.3385 -0.2687 1.4959
C7F C -0.29232(19) -0.1128(3) 1.4217(4)
C8F C -0.2466(2) -0.0388(3) 1.4608(4)
H7F H -0.2413 0.0043 1.5353
C9F C -0.20896(19) -0.0277(3) 1.3918(4)
H8F H -0.1774 0.0229 1.4193
C10F C -0.21680(18) -0.0898(3) 1.2825(4)
H9F H -0.1906 -0.0818 1.2352
C11F C -0.26318(17) -0.1642(3) 1.2420(4)
C12F C -0.30122(18) -0.1760(3) 1.3132(4)
H10F H -0.3327 -0.2269 1.2873
C13F C -0.27326(18) -0.2284(3) 1.1248(4)
H11F H -0.3040 -0.2806 1.1008
C14A C -0.06226(17) 0.0792(3) 0.4088(4)
Cd1D Cd 0.0000 0.07914(3) -0.2500
Cd1F Cd -0.5000 -0.42086(3) 1.7500
Cd1D_2 Cd 0.0000 0.07914(3) 0.7500
N1F N -0.43698(15) -0.2860(3) 1.7266(3)
N1A N 0.06302(15) -0.2140(3) 0.2266(3)
N2F N -0.24147(15) -0.2155(3) 1.0541(3)
N3E N 0.04898(17) -0.0881(3) 0.4781(4)
N3D N -0.04898(17) -0.0881(3) 0.0219(4)
N3A N -0.04898(17) 0.0881(3) 0.5219(4)
O1F O -0.32790(16) -0.1151(2) 1.4962(3)
S1A S -0.08348(5) 0.06619(9) 0.24787(10)
loop_
_geom_bond_atom_site_label_1
_geom_bond_atom_site_label_2
_geom_bond_site_symmetry_1
_geom_bond_site_symmetry_2
C1 H1 1_555 1_555
C2 C1 1_555 1_555
H2 C2 1_555 1_555
C3 C2 1_555 1_555
H3 C3 1_555 1_555
C4 C3 1_555 1_555
C5 C4 1_555 1_555
H4 C5 1_555 1_555
C6 C4 1_555 1_555
H5 C6 1_555 1_555
H6 C6 1_555 1_555
C7 C8 1_555 1_555
C8 H7 1_555 1_555
C9 C8 1_555 1_555
H8 C9 1_555 1_555
C10 C9 1_555 1_555
H9 C10 1_555 1_555
C11 C10 1_555 1_555
C12 C7 1_555 1_555
H10 C12 1_555 1_555
C13 C11 1_555 1_555
H11 C13 1_555 1_555
C14 N3 1_555 1_555
Cd1 N1 1_555 1_555
N1 C1 1_555 1_555
N2 C13 1_555 1_555
N3 Cd1D 1_555 1_555
O1 C6 1_555 1_555
S1 C14 1_555 1_555
C1F H1F 1_555 1_555
C2F C1F 1_555 1_555
H2F C2F 1_555 1_555
C3F C2F 1_555 1_555
H3F C3F 1_555 1_555
C4F C3F 1_555 1_555
C5F C4F 1_555 1_555
H4F C5F 1_555 1_555
C6F C4F 1_555 1_555
H5F C6F 1_555 1_555
H6F C6F 1_555 1_555
C7F C8F 1_555 1_555
C8F H7F 1_555 1_555
C9F C8F 1_555 1_555
H8F C9F 1_555 1_555
C10F C9F 1_555 1_555
H9F C10F 1_555 1_555
C11F C10F 1_555 1_555
C12F C7F 1_555 1_555
H10F C12F 1_555 1_555
C13F C11F 1_555 1_555
H11F C13F 1_555 1_555
C14A N3A 1_555 1_555
Cd1F N1F 1_555 1_555
Cd1D_2 N3A 1_555 1_555
N1F C1F 1_555 1_555
N1A Cd1 1_555 1_555
N2F N2 1_555 1_555
N3E Cd1 1_555 1_555
N3D Cd1 1_555 1_555
O1F C6F 1_555 1_555
S1A Cd1 1_555 1_555
C5 N1 1_555 1_555
C7 O1 1_555 1_555
C11 C12 1_555 1_555
Cd1 S1 1_555 1_555
C5F N1F 1_555 1_555
C7F O1F 1_555 1_555
C11F C12F 1_555 1_555
C13F N2F 1_555 1_555
C14A S1A 1_555 1_555

#END
