
#######################################################################
#
#                 Cambridge Crystallographic Data Centre
#                                CCDC 
#
#######################################################################
#
# If this CIF has been generated from an entry in the Cambridge 
# Structural Database, then it will include bibliographic, chemical, 
# crystal, experimental, refinement or atomic coordinate data resulting 
# from the CCDC's data processing and validation procedures.
#
#######################################################################

data_GOTDIE
_chemical_formula_moiety         '(C68 H48 Cd1 Cl2 Co2 N20 O10)n'
_symmetry_cell_setting           tetragonal
_symmetry_space_group_name_H-M   'I 41/a'
_symmetry_Int_Tables_number      88
_space_group_name_Hall           '-I 4ad'
loop_
_symmetry_equiv_pos_site_id
_symmetry_equiv_pos_as_xyz
1 x,y,z
2 1/2-x,-y,1/2+z
3 3/4-y,1/4+x,1/4+z
4 3/4+y,3/4-x,3/4+z
5 1/2+x,1/2+y,1/2+z
6 -x,1/2-y,z
7 1/4-y,3/4+x,3/4+z
8 1/4+y,1/4-x,1/4+z
9 -x,-y,-z
10 1/2+x,y,1/2-z
11 1/4+y,3/4-x,3/4-z
12 1/4-y,1/4+x,1/4-z
13 1/2-x,1/2-y,1/2-z
14 x,1/2+y,-z
15 3/4+y,1/4-x,1/4-z
16 3/4-y,3/4+x,3/4-z
_cell_length_a                   39.2197(9)
_cell_length_b                   39.2197(9)
_cell_length_c                   9.1561(3)
_cell_angle_alpha                90
_cell_angle_beta                 90
_cell_angle_gamma                90
_cell_volume                     14083.8
loop_
_atom_site_label
_atom_site_type_symbol
_atom_site_fract_x
_atom_site_fract_y
_atom_site_fract_z
_atom_site_U_iso_or_equiv
_atom_site_thermal_displace_type
C1 C 0.7666(7) 0.6092(11) 1.427(4) 0.2767 Uani
H1 H 0.7463 0.6025 1.3832 0.3360 Uiso
C2 C 0.7743(7) 0.5975(9) 1.568(3) 0.1857 Uani
H2 H 0.7587 0.5850 1.6226 0.2240 Uiso
C3 C 0.8033(7) 0.6048(8) 1.616(3) 0.1663 Uani
H3 H 0.8109 0.5954 1.7035 0.2020 Uiso
C4 C 0.9578(7) 0.7092(7) 1.470(4) 0.1733 Uani
H4 H 0.9786 0.7184 1.4427 0.2070 Uiso
C5 C 0.9130(7) 0.7069(7) 1.625(3) 0.1533 Uani
H5 H 0.9022 0.7151 1.7076 0.1890 Uiso
Cl1 Cl 0.9769(3) 0.4954(2) 0.7617(11) 0.2373 Uani
N1 N 0.7870(5) 0.6292(8) 1.357(3) 0.2190 Uani
O1 O 0.9246(3) 0.5973(3) 1.5339(13) 0.0983 Uani
C6 C 0.8237(6) 0.6266(7) 1.540(2) 0.1393 Uani
H6 H 0.8447 0.6327 1.5796 0.1680 Uiso
C7 C 0.8148(4) 0.6396(5) 1.4102(18) 0.0857 Uani
C8 C 0.8341(4) 0.6948(4) 1.3160(19) 0.0897 Uani
C9 C 0.8592(4) 0.7103(4) 1.2217(15) 0.0700 Uani
C10 C 0.8614(5) 0.7444(4) 1.185(2) 0.1093 Uani
H7 H 0.8464 0.7603 1.2244 0.1310 Uiso
C11 C 0.8868(7) 0.7542(5) 1.088(2) 0.1303 Uani
H8 H 0.8891 0.7769 1.0595 0.1560 Uiso
C12 C 0.9075(6) 0.7304(4) 1.037(2) 0.1147 Uani
H9 H 0.9251 0.7369 0.9740 0.1360 Uiso
C13 C 0.9043(4) 0.6969(3) 1.0717(15) 0.0730 Uani
C14 C 0.9256(4) 0.6686(3) 1.0276(16) 0.0677 Uani
C15 C 0.9306(3) 0.6089(3) 1.0561(14) 0.0523 Uani
C16 C 0.9230(4) 0.5847(4) 0.9553(16) 0.0887 Uani
H10 H 0.9049 0.5884 0.8919 0.1060 Uiso
C17 C 0.9411(4) 0.5551(4) 0.944(2) 0.0973 Uani
H11 H 0.9352 0.5394 0.8717 0.1170 Uiso
C18 C 0.9741(4) 0.5705(4) 1.1279(15) 0.0707 Uani
H12 H 0.9919 0.5656 1.1915 0.0850 Uiso
C19 C 0.9569(3) 0.6017(3) 1.1430(17) 0.0743 Uani
H13 H 0.9639 0.6173 1.2134 0.0900 Uiso
C20 C 0.9396(8) 0.7227(5) 1.581(3) 0.1237 Uani
H14 H 0.9462 0.7430 1.6242 0.1490 Uiso
C21 C 0.8999(5) 0.6799(6) 1.561(2) 0.1307 Uani
H15 H 0.8794 0.6708 1.5948 0.1580 Uiso
C22 C 0.9159(4) 0.6658(4) 1.4508(15) 0.0643 Uani
C23 C 0.9061(4) 0.6061(4) 1.4338(16) 0.0730 Uani
C24 C 0.8853(3) 0.5803(3) 1.3496(15) 0.0617 Uani
C25 C 0.8820(4) 0.5465(3) 1.3841(17) 0.0797 Uani
H16 H 0.8948 0.5368 1.4586 0.0960 Uiso
C26 C 0.8592(4) 0.5275(4) 1.306(2) 0.0913 Uani
H17 H 0.8556 0.5048 1.3303 0.1100 Uiso
C27 C 0.8412(4) 0.5422(3) 1.1868(17) 0.0733 Uani
H18 H 0.8265 0.5293 1.1292 0.0880 Uiso
C28 C 0.8463(3) 0.5766(3) 1.1603(14) 0.0527 Uani
C29 C 0.8282(3) 0.5977(4) 1.0526(14) 0.0603 Uani
C30 C 0.8211(3) 0.6559(3) 0.9755(12) 0.0513 Uani
C31 C 0.7903(3) 0.6669(4) 1.0316(15) 0.0720 Uani
H19 H 0.7810 0.6571 1.1152 0.0870 Uiso
C32 C 0.7740(3) 0.6930(4) 0.9582(17) 0.0763 Uani
H20 H 0.7535 0.7009 0.9965 0.0920 Uiso
C33 C 0.8146(4) 0.6974(4) 0.7949(16) 0.0837 Uani
H21 H 0.8237 0.7084 0.7139 0.1010 Uiso
C34 C 0.8340(3) 0.6714(4) 0.8580(13) 0.0710 Uani
H22 H 0.8550 0.6652 0.8198 0.0850 Uiso
Cd1 Cd 1.0000 0.5000 1.0000 0.0512 Uani
Co1 Co 0.87260(4) 0.64101(4) 1.20738(17) 0.0496 Uani
N2 N 0.8359(3) 0.6593(3) 1.3278(11) 0.0697 Uani
N3 N 0.8791(3) 0.6880(2) 1.1637(11) 0.0607 Uani
N4 N 0.9111(2) 0.6383(2) 1.0737(12) 0.0560 Uani
N5 N 0.9662(2) 0.5483(2) 1.0300(12) 0.0547 Uani
N6 N 0.9442(5) 0.6806(4) 1.396(2) 0.1460 Uani
N7 N 0.9024(3) 0.6374(3) 1.3780(12) 0.0650 Uani
N8 N 0.8675(2) 0.5941(2) 1.2427(11) 0.0520 Uani
N9 N 0.8400(2) 0.6300(2) 1.0521(10) 0.0503 Uani
N10 N 0.7850(2) 0.7071(3) 0.8412(11) 0.0623 Uani
O2 O 0.8046(3) 0.5861(2) 0.9770(10) 0.0747 Uani
O3 O 0.8126(3) 0.7123(3) 1.3893(15) 0.1243 Uani
O4 O 0.9510(3) 0.6720(3) 0.9518(12) 0.0920 Uani
C1H C 1.2334(7) 0.3908(11) 0.573(4) 0.2767 Uani
H1H H 1.2537 0.3975 0.6168 0.3360 Uiso
C2H C 1.2257(7) 0.4025(9) 0.432(3) 0.1857 Uani
H2H H 1.2413 0.4150 0.3774 0.2240 Uiso
C3H C 1.1967(7) 0.3952(8) 0.384(3) 0.1663 Uani
H3H H 1.1891 0.4046 0.2965 0.2020 Uiso
C4H C 1.0422(7) 0.2908(7) 0.530(4) 0.1733 Uani
H4H H 1.0214 0.2816 0.5573 0.2070 Uiso
C5H C 1.0870(7) 0.2931(7) 0.375(3) 0.1533 Uani
H5H H 1.0978 0.2849 0.2924 0.1890 Uiso
Cl1H Cl 1.0231(3) 0.5046(2) 1.2383(11) 0.2373 Uani
N1H N 1.2130(5) 0.3708(8) 0.643(3) 0.2190 Uani
O1H O 1.0754(3) 0.4027(3) 0.4661(13) 0.0983 Uani
C6H C 1.1763(6) 0.3734(7) 0.460(2) 0.1393 Uani
H6H H 1.1553 0.3673 0.4204 0.1680 Uiso
C7H C 1.1852(4) 0.3604(5) 0.5898(18) 0.0857 Uani
C8H C 1.1659(4) 0.3052(4) 0.6840(19) 0.0897 Uani
C9H C 1.1408(4) 0.2897(4) 0.7783(15) 0.0700 Uani
C10H C 1.1386(5) 0.2556(4) 0.815(2) 0.1093 Uani
H7H H 1.1536 0.2397 0.7756 0.1310 Uiso
C11H C 1.1132(7) 0.2458(5) 0.912(2) 0.1303 Uani
H8H H 1.1109 0.2231 0.9405 0.1560 Uiso
C12H C 1.0925(6) 0.2696(4) 0.963(2) 0.1147 Uani
H9H H 1.0749 0.2631 1.0260 0.1360 Uiso
C13H C 1.0957(4) 0.3031(3) 0.9283(15) 0.0730 Uani
C14H C 1.0744(4) 0.3314(3) 0.9724(16) 0.0677 Uani
C15H C 1.0694(3) 0.3911(3) 0.9439(14) 0.0523 Uani
C16H C 1.0770(4) 0.4153(4) 1.0447(16) 0.0887 Uani
H10H H 1.0951 0.4116 1.1081 0.1060 Uiso
C17H C 1.0589(4) 0.4449(4) 1.056(2) 0.0973 Uani
H11H H 1.0648 0.4606 1.1283 0.1170 Uiso
C18H C 1.0259(4) 0.4295(4) 0.8721(15) 0.0707 Uani
H12H H 1.0081 0.4344 0.8085 0.0850 Uiso
C19H C 1.0431(3) 0.3983(3) 0.8570(17) 0.0743 Uani
H13H H 1.0361 0.3827 0.7866 0.0900 Uiso
C20H C 1.0604(8) 0.2773(5) 0.419(3) 0.1237 Uani
H14H H 1.0538 0.2570 0.3758 0.1490 Uiso
C21H C 1.1001(5) 0.3201(6) 0.439(2) 0.1307 Uani
H15H H 1.1206 0.3292 0.4052 0.1580 Uiso
C22H C 1.0841(4) 0.3342(4) 0.5492(15) 0.0643 Uani
C23H C 1.0939(4) 0.3939(4) 0.5662(16) 0.0730 Uani
C24H C 1.1147(3) 0.4197(3) 0.6504(15) 0.0617 Uani
C25H C 1.1180(4) 0.4535(3) 0.6159(17) 0.0797 Uani
H16H H 1.1052 0.4632 0.5414 0.0960 Uiso
C26H C 1.1408(4) 0.4725(4) 0.694(2) 0.0913 Uani
H17H H 1.1444 0.4952 0.6697 0.1100 Uiso
C27H C 1.1588(4) 0.4578(3) 0.8132(17) 0.0733 Uani
H18H H 1.1735 0.4707 0.8708 0.0880 Uiso
C28H C 1.1537(3) 0.4234(3) 0.8397(14) 0.0527 Uani
C29H C 1.1718(3) 0.4023(4) 0.9474(14) 0.0603 Uani
C30H C 1.1789(3) 0.3441(3) 1.0245(12) 0.0513 Uani
C31H C 1.2097(3) 0.3331(4) 0.9684(15) 0.0720 Uani
H19H H 1.2190 0.3429 0.8848 0.0870 Uiso
C32H C 1.2260(3) 0.3070(4) 1.0418(17) 0.0763 Uani
H20H H 1.2465 0.2991 1.0035 0.0920 Uiso
C33H C 1.1854(4) 0.3026(4) 1.2051(16) 0.0837 Uani
H21H H 1.1763 0.2916 1.2861 0.1010 Uiso
C34H C 1.1660(3) 0.3286(4) 1.1420(13) 0.0710 Uani
H22H H 1.1450 0.3348 1.1802 0.0850 Uiso
Co1H Co 1.12740(4) 0.35899(4) 0.79262(17) 0.0496 Uani
N2H N 1.1641(3) 0.3407(3) 0.6722(11) 0.0697 Uani
N3H N 1.1209(3) 0.3120(2) 0.8363(11) 0.0607 Uani
N4H N 1.0889(2) 0.3617(2) 0.9263(12) 0.0560 Uani
N5H N 1.0338(2) 0.4517(2) 0.9700(12) 0.0547 Uani
N6H N 1.0558(5) 0.3194(4) 0.604(2) 0.1460 Uani
N7H N 1.0976(3) 0.3626(3) 0.6220(12) 0.0650 Uani
N8H N 1.1325(2) 0.4059(2) 0.7573(11) 0.0520 Uani
N9H N 1.1600(2) 0.3700(2) 0.9479(10) 0.0503 Uani
N10H N 1.2150(2) 0.2929(3) 1.1588(11) 0.0623 Uani
O2H O 1.1954(3) 0.4139(2) 1.0230(10) 0.0747 Uani
O3H O 1.1874(3) 0.2877(3) 0.6107(15) 0.1243 Uani
O4H O 1.0490(3) 0.3280(3) 1.0482(12) 0.0920 Uani
Cd1B Cd 1.2500 0.2500 1.2500 0.0512 Uani
Cd1F Cd 0.7500 0.7500 0.7500 0.0512 Uani
N10G N 0.9571(3) 0.4650(2) 1.0912(11) 0.0623 Uani
N10O N 1.0429(3) 0.5350(2) 0.9088(11) 0.0623 Uani
O5 O 0.7863(3) 0.7823(4) 1.2280(19) 0.1603 Uani
O6 O 0.7745(4) 0.4810(4) 1.194(2) 0.1553 Uani
loop_
_atom_site_aniso_label
_atom_site_aniso_U_11
_atom_site_aniso_U_22
_atom_site_aniso_U_33
_atom_site_aniso_U_23
_atom_site_aniso_U_13
_atom_site_aniso_U_12
C1 0.12(2) 0.50(6) 0.21(3) 0.19(4) -0.11(2) -0.13(3)
C2 0.12(2) 0.34(4) 0.097(18) 0.06(2) 0.006(15) -0.05(2)
C3 0.13(2) 0.27(4) 0.099(18) 0.02(2) -0.044(17) -0.04(2)
C4 0.15(2) 0.16(2) 0.21(3) -0.05(2) 0.06(2) -0.053(18)
C5 0.17(2) 0.17(2) 0.12(2) -0.090(19) 0.009(18) -0.02(2)
Cl1 0.327(13) 0.186(8) 0.199(9) 0.002(7) -0.060(9) -0.002(8)
N1 0.097(14) 0.38(4) 0.18(2) 0.17(2) -0.013(14) -0.079(18)
O1 0.105(8) 0.082(7) 0.108(9) 0.054(6) -0.049(7) -0.009(6)
C6 0.122(17) 0.23(3) 0.066(13) 0.050(15) -0.012(12) -0.032(17)
C7 0.038(8) 0.150(16) 0.069(11) 0.008(10) 0.011(7) 0.023(9)
C8 0.074(10) 0.098(12) 0.097(12) -0.049(10) -0.016(9) 0.055(9)
C9 0.091(10) 0.064(9) 0.055(9) -0.005(7) 0.010(8) 0.021(8)
C10 0.168(19) 0.041(9) 0.119(15) -0.028(9) 0.012(14) 0.037(10)
C11 0.23(3) 0.055(11) 0.106(16) 0.003(11) 0.014(17) -0.003(14)
C12 0.21(2) 0.038(8) 0.096(13) -0.001(9) -0.004(14) -0.013(11)
C13 0.121(13) 0.056(8) 0.042(8) 0.005(6) 0.011(8) -0.001(8)
C14 0.084(10) 0.050(8) 0.069(10) -0.008(7) 0.005(8) 0.001(7)
C15 0.058(7) 0.031(6) 0.068(8) 0.012(6) 0.007(6) 0.003(5)
C16 0.086(11) 0.112(12) 0.068(10) -0.035(9) -0.045(8) 0.043(9)
C17 0.077(10) 0.103(12) 0.112(13) -0.062(11) -0.040(10) 0.030(9)
C18 0.075(9) 0.077(9) 0.060(9) -0.018(7) -0.028(7) 0.016(8)
C19 0.070(9) 0.057(8) 0.096(11) -0.023(8) -0.028(8) 0.022(7)
C20 0.17(2) 0.086(14) 0.115(18) -0.005(13) -0.041(17) -0.039(15)
C21 0.150(18) 0.17(2) 0.072(12) -0.050(13) 0.062(12) -0.079(16)
C22 0.072(9) 0.072(9) 0.049(8) 0.017(7) -0.013(7) -0.013(7)
C23 0.071(9) 0.080(10) 0.068(9) 0.042(8) -0.022(7) 0.010(7)
C24 0.052(7) 0.051(7) 0.082(10) 0.017(7) -0.023(7) -0.002(6)
C25 0.084(10) 0.060(9) 0.095(11) 0.037(8) -0.033(9) -0.012(8)
C26 0.090(11) 0.053(8) 0.131(15) 0.041(9) -0.034(10) -0.008(8)
C27 0.071(9) 0.055(8) 0.094(11) 0.007(8) -0.006(8) -0.005(7)
C28 0.044(7) 0.041(6) 0.073(9) 0.004(6) -0.004(6) 0.000(5)
C29 0.061 0.072 0.048 0.008 -0.005 0.014
C30 0.05 0.064 0.04 0.011 -0.002 0.016
C31 0.055 0.1 0.061 0.032 0.005 0.019
C32 0.039 0.093 0.097 0.02 -0.002 0.033
C33 0.072 0.113 0.066 0.047 0.033 0.034
C34 0.065 0.107 0.041 0.032 0.016 0.056
Cd1 0.0579(8) 0.0310(6) 0.0647(8) -0.0034(6) 0.0244(6) -0.0113(5)
Co1 0.0585(10) 0.0417(9) 0.0487(9) 0.0086(7) -0.0032(8) 0.0173(7)
N2 0.076(8) 0.097(9) 0.036(6) -0.004(6) 0.005(5) 0.030(7)
N3 0.097(8) 0.039(5) 0.046(6) -0.016(5) -0.023(6) 0.030(6)
N4 0.059(6) 0.037(5) 0.072(7) 0.012(5) 0.010(5) -0.004(5)
N5 0.048(6) 0.042(5) 0.074(7) -0.017(5) -0.001(5) -0.004(4)
N6 0.142(16) 0.096(12) 0.20(2) -0.030(13) 0.038(15) -0.022(11)
N7 0.062(7) 0.059(7) 0.074(8) 0.018(6) -0.024(6) -0.007(5)
N8 0.047(5) 0.052(6) 0.057(6) 0.015(5) -0.002(5) 0.009(4)
N9 0.052 0.054 0.045 0.007 -0.014 0.019
N10 0.038 0.087 0.062 0.049 0.017 0.02
O2 0.088 0.073 0.063 0.009 -0.024 -0.001
O3 0.097(9) 0.136(11) 0.140(11) -0.065(9) 0.003(8) 0.037(8)
O4 0.102(8) 0.079(7) 0.095(8) 0.017(6) 0.029(7) -0.023(6)
C1H 0.12 0.5 0.21 0.19 -0.11 -0.13
C2H 0.12 0.34 0.097 0.06 0.006 -0.05
C3H 0.13 0.27 0.099 0.02 -0.044 -0.04
C4H 0.15 0.16 0.21 -0.05 0.06 -0.053
C5H 0.17 0.17 0.12 -0.09 0.009 -0.02
Cl1H 0.327 0.186 0.199 0.002 -0.06 -0.002
N1H 0.097 0.38 0.18 0.17 -0.013 -0.079
O1H 0.105 0.082 0.108 0.054 -0.049 -0.009
C6H 0.122 0.23 0.066 0.05 -0.012 -0.032
C7H 0.038 0.15 0.069 0.008 0.011 0.023
C8H 0.074 0.098 0.097 -0.049 -0.016 0.055
C9H 0.091 0.064 0.055 -0.005 0.01 0.021
C10H 0.168 0.041 0.119 -0.028 0.012 0.037
C11H 0.23 0.055 0.106 0.003 0.014 -0.003
C12H 0.21 0.038 0.096 -0.001 -0.004 -0.013
C13H 0.121 0.056 0.042 0.005 0.011 -0.001
C14H 0.084 0.05 0.069 -0.008 0.005 0.001
C15H 0.058 0.031 0.068 0.012 0.007 0.003
C16H 0.086 0.112 0.068 -0.035 -0.045 0.043
C17H 0.077 0.103 0.112 -0.062 -0.04 0.03
C18H 0.075 0.077 0.06 -0.018 -0.028 0.016
C19H 0.07 0.057 0.096 -0.023 -0.028 0.022
C20H 0.17 0.086 0.115 -0.005 -0.041 -0.039
C21H 0.15 0.17 0.072 -0.05 0.062 -0.079
C22H 0.072 0.072 0.049 0.017 -0.013 -0.013
C23H 0.071 0.08 0.068 0.042 -0.022 0.01
C24H 0.052 0.051 0.082 0.017 -0.023 -0.002
C25H 0.084 0.06 0.095 0.037 -0.033 -0.012
C26H 0.09 0.053 0.131 0.041 -0.034 -0.008
C27H 0.071 0.055 0.094 0.007 -0.006 -0.005
C28H 0.044 0.041 0.073 0.004 -0.004 0
C29H 0.061 0.072 0.048 0.008 -0.005 0.014
C30H 0.05 0.064 0.04 0.011 -0.002 0.016
C31H 0.055 0.1 0.061 0.032 0.005 0.019
C32H 0.039 0.093 0.097 0.02 -0.002 0.033
C33H 0.072 0.113 0.066 0.047 0.033 0.034
C34H 0.065 0.107 0.041 0.032 0.016 0.056
Co1H 0.0585 0.0417 0.0487 0.0086 -0.0032 0.0173
N2H 0.076 0.097 0.036 -0.004 0.005 0.03
N3H 0.097 0.039 0.046 -0.016 -0.023 0.03
N4H 0.059 0.037 0.072 0.012 0.01 -0.004
N5H 0.048 0.042 0.074 -0.017 -0.001 -0.004
N6H 0.142 0.096 0.2 -0.03 0.038 -0.022
N7H 0.062 0.059 0.074 0.018 -0.024 -0.007
N8H 0.047 0.052 0.057 0.015 -0.002 0.009
N9H 0.052 0.054 0.045 0.007 -0.014 0.019
N10H 0.038 0.087 0.062 0.049 0.017 0.02
O2H 0.088 0.073 0.063 0.009 -0.024 -0.001
O3H 0.097 0.136 0.14 -0.065 0.003 0.037
O4H 0.102 0.079 0.095 0.017 0.029 -0.023
Cd1B 0.031 0.0579 0.0647 0.0244 0.0034 0.0113
Cd1F 0.031 0.0579 0.0647 0.0244 0.0034 0.0113
N10G 0.087 0.038 0.062 -0.017 0.049 -0.02
N10O 0.087 0.038 0.062 -0.017 0.049 -0.02
O5 0.095(9) 0.213(16) 0.173(15) -0.022(13) -0.044(10) -0.021(10)
O6 0.127(11) 0.125(11) 0.214(17) 0.037(11) 0.024(11) 0.006(9)
loop_
_geom_bond_atom_site_label_1
_geom_bond_atom_site_label_2
_geom_bond_site_symmetry_1
_geom_bond_site_symmetry_2
C1 H1 1_555 1_555
C2 C1 1_555 1_555
H2 C2 1_555 1_555
C3 C2 1_555 1_555
H3 C3 1_555 1_555
C4 H4 1_555 1_555
C5 H5 1_555 1_555
Cl1 Cd1 1_555 1_555
N1 C1 1_555 1_555
O1 C23 1_555 1_555
C6 C3 1_555 1_555
H6 C6 1_555 1_555
C7 N1 1_555 1_555
C8 C9 1_555 1_555
C9 C10 1_555 1_555
C10 H7 1_555 1_555
C11 C10 1_555 1_555
H8 C11 1_555 1_555
C12 C11 1_555 1_555
H9 C12 1_555 1_555
C13 C12 1_555 1_555
C14 C13 1_555 1_555
C15 C16 1_555 1_555
C16 H10 1_555 1_555
C17 C16 1_555 1_555
H11 C17 1_555 1_555
C18 H12 1_555 1_555
C19 C15 1_555 1_555
H13 C19 1_555 1_555
C20 C4 1_555 1_555
H14 C20 1_555 1_555
C21 C5 1_555 1_555
H15 C21 1_555 1_555
C22 C21 1_555 1_555
C23 C24 1_555 1_555
C24 C25 1_555 1_555
C25 H16 1_555 1_555
C26 C25 1_555 1_555
H17 C26 1_555 1_555
C27 C26 1_555 1_555
H18 C27 1_555 1_555
C28 C27 1_555 1_555
C29 C28 1_555 1_555
C30 C31 1_555 1_555
C31 H19 1_555 1_555
C32 C31 1_555 1_555
H20 C32 1_555 1_555
C33 H21 1_555 1_555
C34 C30 1_555 1_555
H22 C34 1_555 1_555
Cd1 N5 1_555 1_555
Co1 N2 1_555 1_555
N2 C7 1_555 1_555
N3 C9 1_555 1_555
N4 C14 1_555 1_555
N5 C17 1_555 1_555
N6 C4 1_555 1_555
N7 C22 1_555 1_555
N8 C24 1_555 1_555
N9 C29 1_555 1_555
N10 C32 1_555 1_555
O2 C29 1_555 1_555
O3 C8 1_555 1_555
O4 C14 1_555 1_555
C1H H1H 1_555 1_555
C2H C1H 1_555 1_555
H2H C2H 1_555 1_555
C3H C2H 1_555 1_555
H3H C3H 1_555 1_555
C4H H4H 1_555 1_555
C5H H5H 1_555 1_555
Cl1H Cd1 1_555 1_555
N1H C1H 1_555 1_555
O1H C23H 1_555 1_555
C6H C3H 1_555 1_555
H6H C6H 1_555 1_555
C7H N1H 1_555 1_555
C8H C9H 1_555 1_555
C9H C10H 1_555 1_555
C10H H7H 1_555 1_555
C11H C10H 1_555 1_555
H8H C11H 1_555 1_555
C12H C11H 1_555 1_555
H9H C12H 1_555 1_555
C13H C12H 1_555 1_555
C14H C13H 1_555 1_555
C15H C16H 1_555 1_555
C16H H10H 1_555 1_555
C17H C16H 1_555 1_555
H11H C17H 1_555 1_555
C18H H12H 1_555 1_555
C19H C15H 1_555 1_555
H13H C19H 1_555 1_555
C20H C4H 1_555 1_555
H14H C20H 1_555 1_555
C21H C5H 1_555 1_555
H15H C21H 1_555 1_555
C22H C21H 1_555 1_555
C23H C24H 1_555 1_555
C24H C25H 1_555 1_555
C25H H16H 1_555 1_555
C26H C25H 1_555 1_555
H17H C26H 1_555 1_555
C27H C26H 1_555 1_555
H18H C27H 1_555 1_555
C28H C27H 1_555 1_555
C29H C28H 1_555 1_555
C30H C31H 1_555 1_555
C31H H19H 1_555 1_555
C32H C31H 1_555 1_555
H20H C32H 1_555 1_555
C33H H21H 1_555 1_555
C34H C30H 1_555 1_555
H22H C34H 1_555 1_555
Co1H N2H 1_555 1_555
N2H C7H 1_555 1_555
N3H C9H 1_555 1_555
N4H C14H 1_555 1_555
N5H Cd1 1_555 1_555
N6H C4H 1_555 1_555
N7H C22H 1_555 1_555
N8H C24H 1_555 1_555
N9H C29H 1_555 1_555
N10H C32H 1_555 1_555
O2H C29H 1_555 1_555
O3H C8H 1_555 1_555
O4H C14H 1_555 1_555
Cd1B N10H 1_555 1_555
Cd1F N10 1_555 1_555
N10G Cd1 1_555 1_555
N10O Cd1 1_555 1_555
C5 C20 1_555 1_555
C6 C7 1_555 1_555
C8 N2 1_555 1_555
C13 N3 1_555 1_555
C15 N4 1_555 1_555
C18 C19 1_555 1_555
C18 N5 1_555 1_555
C22 N6 1_555 1_555
C23 N7 1_555 1_555
C28 N8 1_555 1_555
C30 N9 1_555 1_555
C33 C34 1_555 1_555
C33 N10 1_555 1_555
Co1 N3 1_555 1_555
Co1 N4 1_555 1_555
Co1 N7 1_555 1_555
Co1 N8 1_555 1_555
Co1 N9 1_555 1_555
C5H C20H 1_555 1_555
C6H C7H 1_555 1_555
C8H N2H 1_555 1_555
C13H N3H 1_555 1_555
C15H N4H 1_555 1_555
C17H N5H 1_555 1_555
C18H C19H 1_555 1_555
C18H N5H 1_555 1_555
C22H N6H 1_555 1_555
C23H N7H 1_555 1_555
C28H N8H 1_555 1_555
C30H N9H 1_555 1_555
C33H C34H 1_555 1_555
C33H N10H 1_555 1_555
Co1H N3H 1_555 1_555
Co1H N4H 1_555 1_555
Co1H N7H 1_555 1_555
Co1H N8H 1_555 1_555
Co1H N9H 1_555 1_555

#END
