
#######################################################################
#
#                 Cambridge Crystallographic Data Centre
#                                CCDC 
#
#######################################################################
#
# If this CIF has been generated from an entry in the Cambridge 
# Structural Database, then it will include bibliographic, chemical, 
# crystal, experimental, refinement or atomic coordinate data resulting 
# from the CCDC's data processing and validation procedures.
#
#######################################################################

data_CIQQIE
_chemical_formula_moiety         '(C126 H84 La3 N3 O21)n'
_symmetry_cell_setting           hexagonal
_symmetry_space_group_name_H-M   'P 65'
_symmetry_Int_Tables_number      170
_space_group_name_Hall           'P 65'
loop_
_symmetry_equiv_pos_site_id
_symmetry_equiv_pos_as_xyz
1 x,y,z
2 x-y,x,5/6+z
3 -y,x-y,2/3+z
4 -x,-y,1/2+z
5 -x+y,-x,1/3+z
6 y,-x+y,1/6+z
_cell_length_a                   34.2658(14)
_cell_length_b                   34.2658(14)
_cell_length_c                   21.8681(14)
_cell_angle_alpha                90
_cell_angle_beta                 90
_cell_angle_gamma                120
_cell_volume                     22236.3
loop_
_atom_site_label
_atom_site_type_symbol
_atom_site_fract_x
_atom_site_fract_y
_atom_site_fract_z
La1 La 0.04516(4) -0.03081(3) 0.66368(12)
La2 La 0.40953(4) 0.69778(4) 0.37481(12)
La3 La 0.36418(4) 0.62098(4) 0.54099(12)
O1 O 0.1301(4) 0.0385(4) 0.6928(6)
O2 O 0.1008(7) -0.0148(5) 0.4736(6)
O3 O -0.0250(5) -0.0067(6) 0.7862(6)
O4 O 0.0574(4) -0.0365(3) 0.5518(5)
O5 O 0.1037(6) 0.0495(4) 0.6060(6)
O6 O 0.0357(4) 0.0244(4) 0.7263(6)
O7 O 0.2848(6) 0.5699(4) 0.5948(6)
O8 O 0.6474(4) 0.3025(6) 0.4844(6)
O9 O 0.4906(3) 0.7287(4) 0.3914(4)
O10 O 0.3431(5) -0.3087(5) 0.4258(6)
O11 O -0.2201(4) -0.6544(6) 0.5666(6)
O12 O -0.2877(4) 0.2980(6) 0.6605(6)
O13 O 0.3119(4) -0.3653(4) 0.4843(7)
O14 O 0.6765(6) 0.3582(5) 0.4249(6)
O15 O 0.3920(4) 0.5696(4) 0.5591(5)
O16 O 0.3816(4) 0.6172(4) 0.4267(6)
O17 O 0.3017(4) 0.5408(4) 0.5154(6)
O18 O -0.3237(5) 0.2313(6) 0.7302(6)
O19 O 0.4280(4) 0.6355(4) 0.3527(5)
O20 O 0.0858(5) -0.0752(4) 0.6541(6)
O21 O -0.2524(4) -0.6229(4) 0.4927(6)
N1 N 0.1250(4) -0.1081(5) 0.6337(6)
N2 N 0.4144(6) 0.5171(5) 0.5938(7)
N3 N 0.5581(6) 0.7934(5) 0.3647(6)
C1 C 0.0704(5) -0.0907(6) 0.4923(8)
C2 C -0.1749(3) -0.5783(3) 0.5397(6)
C3 C -0.1324(6) 0.3198(6) 0.6418(9)
C4 C -0.2454(6) 0.2619(6) 0.7068(10)
C5 C 0.1707(7) 0.1042(7) 0.6432(9)
C6 C -0.0930(6) 0.3191(6) 0.6465(9)
C7 C 0.1331(6) 0.0624(7) 0.6509(10)
C8 C 0.1638(5) -0.3732(5) 0.5490(8)
C9 C -0.0041(6) 0.0178(6) 0.7519(10)
C10 C 0.4186(6) 0.5556(6) 0.5608(8)
C11 C 0.3720(7) 0.4946(9) 0.6276(12)
C12 C 0.4280(8) 0.4853(8) 0.6147(11)
C13 C 0.5321(4) 0.7486(5) 0.3943(7)
C14 C 0.6057(5) 0.8266(7) 0.3577(10)
C15 C 0.5435(7) 0.8202(8) 0.3308(11)
C16 C 0.4596(6) 0.3314(7) 0.5178(10)
C17 C 0.1727(7) 0.1383(6) 0.6127(9)
C18 C 0.2926(7) 0.2231(6) 0.6032(9)
C19 C 0.0354(6) 0.2870(6) 0.6635(7)
C20 C 0.0688(7) -0.2126(6) 0.4820(9)
C21 C 0.0435(5) -0.1254(6) 0.5251(7)
C22 C 0.0689(6) -0.1724(6) 0.4802(8)
C23 C 0.2547(6) 0.1848(6) 0.6211(9)
C24 C 0.2520(6) 0.2496(6) 0.5385(7)
C25 C 0.0003(5) 0.2054(7) 0.6836(9)
C26 C 0.4163(6) 0.3679(6) 0.4989(7)
C27 C 0.0135(4) 0.0900(4) 0.7001(6)
C28 C 0.4172(6) 0.3328(8) 0.5194(8)
C29 C -0.0405(6) 0.2502(6) 0.6893(6)
C30 C 0.2112(6) 0.2100(6) 0.5562(8)
C31 C 0.0403(6) -0.3743(6) 0.5208(6)
C32 C 0.0839(7) -0.2940(7) 0.5105(6)
C33 C -0.0018(6) 0.2508(7) 0.6792(6)
C34 C 0.1993(3) -0.3475(4) 0.5060(5)
C35 C 0.0968(6) -0.0947(6) 0.4502(8)
C36 C 0.1982(3) -0.3151(4) 0.4689(6)
C37 C 0.3769(6) 0.2940(6) 0.5414(6)
C38 C 0.0395(6) -0.2487(6) 0.5247(9)
C39 C 0.3354(6) 0.2941(6) 0.5399(6)
C40 C -0.1617(6) 0.2638(6) 0.7182(9)
C41 C 0.0745(6) -0.0447(6) 0.5028(9)
C42 C -0.0055(6) 0.3277(6) 0.6678(7)
C43 C 0.1250(6) -0.3338(8) 0.5162(11)
C44 C 0.2952(6) 0.2584(6) 0.5598(8)
C45 C 0.2349(3) -0.3559(4) 0.5013(5)
C46 C 0.4861(6) 0.3492(6) 0.4739(9)
C47 C 0.0097(4) 0.1283(3) 0.6938(5)
C48 C 0.1452(6) 0.4132(6) 0.5797(9)
C49 C 0.0404(7) -0.2929(7) 0.5191(6)
C50 C 0.2112(6) 0.1148(6) 0.6679(9)
C51 C 0.0269(6) 0.1584(6) 0.6374(9)
C52 C 0.0818(6) -0.3346(8) 0.5115(7)
C53 C 0.0941(6) -0.1357(6) 0.4423(8)
C54 C -0.1219(6) 0.2607(6) 0.7222(9)
C55 C 0.4016(6) 0.4810(6) 0.4211(8)
C56 C -0.0438(6) 0.2891(6) 0.6839(6)
C57 C 0.0096(6) -0.2465(6) 0.5616(9)
C58 C 0.0774(6) 0.3718(6) 0.6352(9)
C59 C 0.4045(6) 0.4406(6) 0.4362(8)
C60 C -0.1422(3) -0.5737(3) 0.5814(5)
C61 C -0.0962(3) -0.4957(3) 0.5532(6)
C62 C -0.0523(6) -0.4541(6) 0.5543(9)
C63 C 0.2693(3) -0.3320(4) 0.4595(6)
C64 C 0.5742(5) 0.3170(6) 0.5044(8)
C65 C 0.1962(6) 0.4949(6) 0.5945(9)
C66 C 0.0341(6) 0.3270(6) 0.6573(7)
C67 C 0.2681(3) -0.2997(4) 0.4223(5)
C68 C -0.0154(4) 0.1371(3) 0.7359(6)
C69 C 0.2513(6) 0.1508(6) 0.6619(9)
C70 C 0.0015(6) -0.3313(7) 0.5276(6)
C71 C 0.0119(7) -0.2075(6) 0.5622(9)
C72 C 0.3406(6) 0.4186(6) 0.4983(8)
C73 C 0.5362(5) 0.3216(5) 0.5091(8)
C74 C -0.0076(4) 0.0605(3) 0.7484(6)
C75 C 0.3733(6) 0.3696(6) 0.4959(7)
C76 C 0.3374(6) 0.4551(6) 0.4813(8)
C77 C 0.0824(6) 0.4116(6) 0.6612(8)
C78 C 0.1070(6) 0.3724(6) 0.5983(9)
C79 C 0.0005(7) -0.3746(6) 0.5286(5)
C80 C 0.3668(6) 0.5287(6) 0.4301(7)
C81 C -0.0327(4) 0.0693(3) 0.7905(5)
C82 C 0.2115(6) 0.1781(6) 0.5982(9)
C83 C 0.2268(6) 0.4956(6) 0.5586(10)
C84 C 0.0216(6) 0.1955(6) 0.6421(10)
C85 C 0.3990(6) 0.5615(6) 0.3918(8)
C86 C -0.2097(6) 0.2941(6) 0.6718(9)
C87 C -0.0222(5) 0.1739(6) 0.7353(9)
C88 C 0.5068(6) 0.3028(5) 0.5565(8)
C89 C 0.2736(6) 0.5379(6) 0.5545(10)
C90 C 0.6033(5) 0.3352(6) 0.4588(8)
C91 C -0.1289(4) -0.5002(3) 0.5115(6)
C92 C 0.3730(6) 0.4117(6) 0.4737(8)
C93 C -0.1682(3) -0.5415(3) 0.5048(5)
C94 C 0.3683(6) 0.4865(5) 0.4454(7)
C95 C 0.1800(6) 0.4131(6) 0.5445(10)
C96 C -0.1677(6) 0.2949(6) 0.6751(9)
C97 C 0.5305(6) 0.3490(6) 0.4645(8)
C98 C -0.0458(6) -0.4186(6) 0.5232(9)
C99 C 0.1557(6) -0.3119(6) 0.4757(9)
C100 C 0.1199(6) 0.4505(6) 0.6474(8)
C101 C 0.3364(6) 0.3312(7) 0.5178(7)
C102 C -0.0866(6) 0.2888(5) 0.6874(8)
C103 C 0.0396(5) -0.1694(5) 0.5254(7)
C104 C 0.4338(6) 0.5118(6) 0.3822(8)
C105 C -0.1154(6) -0.4629(6) 0.4805(8)
C106 C -0.2381(6) 0.2369(6) 0.7479(9)
C107 C -0.1029(3) -0.5324(4) 0.5881(5)
C108 C 0.4676(6) 0.3055(5) 0.5648(9)
C109 C -0.0366(4) 0.1076(4) 0.7842(5)
C110 C 0.5623(6) 0.3664(6) 0.4169(8)
C111 C -0.2181(4) -0.6224(4) 0.5326(8)
C112 C -0.0785(6) -0.4243(6) 0.4840(8)
C113 C 0.1286(6) -0.3688(5) 0.5567(8)
C114 C 0.4339(6) 0.5559(6) 0.3669(8)
C115 C 0.2326(4) -0.2912(4) 0.4270(6)
C116 C 0.1514(6) 0.4525(6) 0.6090(10)
C117 C -0.1987(6) 0.2375(6) 0.7545(9)
C118 C 0.5987(5) 0.3597(6) 0.4105(8)
C119 C 0.2210(6) 0.4533(6) 0.5341(9)
C120 C -0.2893(6) 0.2591(6) 0.6974(10)
C121 C 0.4023(6) 0.6056(6) 0.3877(9)
C122 C 0.6440(5) 0.3275(6) 0.4542(8)
C123 C 0.3097(5) -0.3385(6) 0.4575(9)
C124 C 0.0847(5) -0.1119(5) 0.6632(8)
C125 C 0.1547(7) -0.0642(5) 0.6038(9)
C126 C 0.1554(6) -0.1248(6) 0.6170(9)
H1 H -0.13407 0.33937 0.61256
H2 H -0.0683 0.33955 0.62201
H3 H 0.16621 -0.39479 0.5734
H4 H 0.14043 -0.04561 0.60521
H5 H 0.15974 -0.06926 0.56111
H6 H 0.18369 -0.04874 0.6253
H7 H 0.14498 -0.15425 0.63618
H8 H 0.1859 -0.10353 0.63131
H9 H 0.15558 -0.12783 0.57251
H10 H 0.44543 0.57217 0.53757
H11 H 0.36933 0.46797 0.64838
H12 H 0.34676 0.48525 0.59924
H13 H 0.37153 0.51533 0.65803
H14 H 0.40313 0.46062 0.63703
H15 H 0.45426 0.50075 0.64168
H16 H 0.43595 0.47302 0.5793
H17 H 0.54714 0.73551 0.41505
H18 H 0.6239 0.81629 0.37931
H19 H 0.61155 0.85548 0.37483
H20 H 0.6136 0.83045 0.31416
H21 H 0.5105 0.80385 0.32824
H22 H 0.55626 0.82577 0.28954
H23 H 0.55378 0.84893 0.35185
H24 H 0.14499 0.13522 0.59927
H25 H 0.32033 0.22811 0.61991
H26 H 0.06242 0.28631 0.65647
H27 H 0.0879 -0.21715 0.45516
H28 H 0.02397 -0.12149 0.55202
H29 H 0.25041 0.27062 0.51182
H30 H 0.44362 0.39318 0.4854
H31 H 0.03067 0.08405 0.67138
H32 H -0.06642 0.22266 0.70054
H33 H 0.1833 0.20475 0.53972
H34 H 0.03992 -0.40224 0.52176
H35 H 0.11179 -0.26703 0.50463
H36 H 0.11702 -0.06945 0.42623
H37 H 0.37803 0.2686 0.55667
H38 H -0.00585 0.3551 0.66379
H39 H 0.23569 -0.37799 0.52666
H40 H 0.47815 0.36397 0.44389
H41 H 0.21052 0.09226 0.69396
H42 H 0.03982 0.1522 0.60295
H43 H 0.11029 -0.13912 0.40939
H44 H -0.12036 0.2396 0.74872
H45 H -0.01148 -0.27131 0.58542
H46 H 0.42738 0.43571 0.42005
H47 H -0.14671 -0.59878 0.60525
H48 H -0.02835 -0.45281 0.57783
H49 H 0.57938 0.30037 0.5348
H50 H 0.20208 0.52246 0.61286
H51 H 0.29165 -0.28334 0.39372
H52 H 0.27675 0.15405 0.68377
H53 H -0.02558 -0.33059 0.533
H54 H -0.00724 -0.20412 0.59044
H55 H 0.32012 0.3979 0.52741
H56 H 0.3128 0.45803 0.49531
H57 H 0.06001 0.41106 0.68751
H58 H 0.10313 0.34463 0.58322
H59 H 0.34358 0.53301 0.44679
H60 H -0.04719 0.04915 0.82352
H61 H 0.03534 0.21715 0.61044
H62 H -0.21319 0.31468 0.64668
H63 H -0.03959 0.17843 0.76531
H64 H 0.51326 0.28664 0.58614
H65 H -0.19056 -0.54467 0.47634
H66 H 0.17564 0.38562 0.52774
H67 H 0.1515 -0.29256 0.44867
H68 H 0.12425 0.4776 0.66552
H69 H 0.30853 0.33087 0.5172
H70 H 0.45575 0.50601 0.36483
H71 H -0.13608 -0.46434 0.45038
H72 H -0.2623 0.21754 0.77388
H73 H -0.08054 -0.52926 0.61657
H74 H 0.4477 0.2917 0.59833
H75 H -0.05372 0.1136 0.81296
H76 H 0.55854 0.38415 0.38664
H77 H -0.07461 -0.39995 0.45896
H78 H 0.10602 -0.3864 0.586
H79 H 0.45664 0.57832 0.34168
H80 H 0.23177 -0.26914 0.40165
H81 H -0.19632 0.21916 0.78524
H82 H 0.6187 0.37053 0.37657
H83 H 0.2445 0.45301 0.51153
H84 H 0.06225 -0.13725 0.68487
La1A La 0.07597(5) 0.04516(4) 0.49701(12)
La1E La -0.03081(3) -0.07597(5) 0.83035(12)
La2_2 La 0.40953(4) -0.30222(4) 0.37481(12)
La2D La 0.28825(6) 0.59047(4) 0.70814(12)
La2E La -0.30222(4) -0.71175(6) 0.54148(12)
La2E_2 La -0.30222(4) 0.28825(6) 0.54148(12)
La2E_3 La 0.69778(4) 0.28825(6) 0.54148(12)
La3_2 La 0.36418(4) -0.37902(4) 0.54099(12)
La3A La -0.25680(6) -0.63582(4) 0.37432(12)
La3A_2 La 0.74320(6) 0.36418(4) 0.37432(12)
La3E La -0.37902(4) 0.25680(6) 0.70766(12)
O2E O -0.0148(5) -0.1156(9) 0.6403(6)
O3A O -0.0183(8) -0.0250(5) 0.6195(6)
O4E O -0.0365(3) -0.0939(5) 0.7185(5)
O5E O 0.0495(4) -0.0542(7) 0.7727(6)
O7B O 0.4301(4) 0.7149(7) 0.2615(6)
O8A O 0.3449(7) 0.6474(4) 0.3177(6)
O10_2 O 0.3431(5) 0.6913(5) 0.4258(6)
O11A O 0.4343(7) 0.7799(4) 0.3999(6)
O12A O 0.4143(7) 0.7123(4) 0.4938(6)
O13_2 O 0.3119(4) 0.6347(4) 0.4843(7)
O14E O 0.3582(5) 0.6817(8) 0.5916(6)
O18A O 0.4450(8) 0.6763(5) 0.5635(6)
O21A O 0.3705(6) 0.7476(4) 0.3260(6)
O21E O 0.3771(4) 0.6295(6) 0.6594(6)
loop_
_geom_bond_atom_site_label_1
_geom_bond_atom_site_label_2
_geom_bond_site_symmetry_1
_geom_bond_site_symmetry_2
La1 O1 1_555 1_555
La2 O9 1_555 1_555
La3 O7 1_555 1_555
O1 C7 1_555 1_555
O2 C41 1_555 1_555
O3 C9 1_555 1_555
O4 La1 1_555 1_555
O5 La1 1_555 1_555
O6 La1 1_555 1_555
O7 C89 1_555 1_555
O8 C122 1_555 1_555
O9 C13 1_555 1_555
O10 C123 1_555 1_555
O11 C111 1_555 1_555
O12 C120 1_555 1_555
O13 C123 1_555 1_555
O14 C122 1_555 1_555
O15 La3 1_555 1_555
O16 La2 1_555 1_555
O17 La3 1_555 1_555
O18 C120 1_555 1_555
O19 La2 1_555 1_555
O20 La1 1_555 1_555
O21 C111 1_555 1_555
N1 C124 1_555 1_555
N2 C10 1_555 1_555
N3 C13 1_555 1_555
C1 C21 1_555 1_555
C2 C60 1_555 1_555
C3 C6 1_555 1_555
C4 C86 1_555 1_555
C5 C7 1_555 1_555
C6 C102 1_555 1_555
C7 O5 1_555 1_555
C8 C34 1_555 1_555
C9 O6 1_555 1_555
C10 O15 1_555 1_555
C11 N2 1_555 1_555
C12 N2 1_555 1_555
C13 H17 1_555 1_555
C14 N3 1_555 1_555
C15 N3 1_555 1_555
C16 C28 1_555 1_555
C17 C5 1_555 1_555
C18 C23 1_555 1_555
C19 C33 1_555 1_555
C20 C22 1_555 1_555
C21 C103 1_555 1_555
C22 C53 1_555 1_555
C23 C69 1_555 1_555
C24 C30 1_555 1_555
C25 C33 1_555 1_555
C26 C28 1_555 1_555
C27 C47 1_555 1_555
C28 C37 1_555 1_555
C29 C33 1_555 1_555
C30 C82 1_555 1_555
C31 C52 1_555 1_555
C32 C49 1_555 1_555
C34 C36 1_555 1_555
C35 C1 1_555 1_555
C36 C99 1_555 1_555
C37 C39 1_555 1_555
C38 C20 1_555 1_555
C39 C44 1_555 1_555
C40 C54 1_555 1_555
C41 O4 1_555 1_555
C42 C56 1_555 1_555
C43 C52 1_555 1_555
C44 C18 1_555 1_555
C45 C34 1_555 1_555
C46 C16 1_555 1_555
C47 C51 1_555 1_555
C48 C78 1_555 1_555
C49 C38 1_555 1_555
C50 C5 1_555 1_555
C51 C84 1_555 1_555
C52 C32 1_555 1_555
C53 C35 1_555 1_555
C54 C102 1_555 1_555
C55 C59 1_555 1_555
C56 C29 1_555 1_555
C57 C38 1_555 1_555
C58 C66 1_555 1_555
C59 C92 1_555 1_555
C60 C107 1_555 1_555
C61 C62 1_555 1_555
C62 C98 1_555 1_555
C63 C45 1_555 1_555
C64 C73 1_555 1_555
C65 C83 1_555 1_555
C66 C19 1_555 1_555
C67 C63 1_555 1_555
C68 C47 1_555 1_555
C69 C50 1_555 1_555
C70 C49 1_555 1_555
C71 C57 1_555 1_555
C72 C76 1_555 1_555
C73 C88 1_555 1_555
C74 C9 1_555 1_555
C75 C26 1_555 1_555
C76 C94 1_555 1_555
C77 C58 1_555 1_555
C78 C58 1_555 1_555
C79 C31 1_555 1_555
C80 C85 1_555 1_555
C81 C74 1_555 1_555
C82 C17 1_555 1_555
C83 C89 1_555 1_555
C84 C25 1_555 1_555
C85 C114 1_555 1_555
C86 C96 1_555 1_555
C87 C25 1_555 1_555
C88 C108 1_555 1_555
C89 O17 1_555 1_555
C90 C64 1_555 1_555
C91 C61 1_555 1_555
C92 C72 1_555 1_555
C93 C2 1_555 1_555
C94 C55 1_555 1_555
C95 C48 1_555 1_555
C96 C3 1_555 1_555
C97 C46 1_555 1_555
C98 C79 1_555 1_555
C99 C43 1_555 1_555
C100 C77 1_555 1_555
C101 C39 1_555 1_555
C102 C56 1_555 1_555
C103 C22 1_555 1_555
C104 C55 1_555 1_555
C105 C91 1_555 1_555
C106 C4 1_555 1_555
C107 C61 1_555 1_555
C108 C16 1_555 1_555
C109 C68 1_555 1_555
C110 C97 1_555 1_555
C111 C2 1_555 1_555
C112 C98 1_555 1_555
C113 C8 1_555 1_555
C114 C104 1_555 1_555
C115 C36 1_555 1_555
C116 C48 1_555 1_555
C117 C40 1_555 1_555
C118 C90 1_555 1_555
C119 C83 1_555 1_555
C120 C4 1_555 1_555
C121 O16 1_555 1_555
C122 C90 1_555 1_555
C123 C63 1_555 1_555
C124 O20 1_555 1_555
C125 N1 1_555 1_555
C126 N1 1_555 1_555
H1 C3 1_555 1_555
H2 C6 1_555 1_555
H3 C8 1_555 1_555
H4 C125 1_555 1_555
H5 C125 1_555 1_555
H6 C125 1_555 1_555
H7 C126 1_555 1_555
H8 C126 1_555 1_555
H9 C126 1_555 1_555
H10 C10 1_555 1_555
H11 C11 1_555 1_555
H12 C11 1_555 1_555
H13 C11 1_555 1_555
H14 C12 1_555 1_555
H15 C12 1_555 1_555
H16 C12 1_555 1_555
H18 C14 1_555 1_555
H19 C14 1_555 1_555
H20 C14 1_555 1_555
H21 C15 1_555 1_555
H22 C15 1_555 1_555
H23 C15 1_555 1_555
H24 C17 1_555 1_555
H25 C18 1_555 1_555
H26 C19 1_555 1_555
H27 C20 1_555 1_555
H28 C21 1_555 1_555
H29 C24 1_555 1_555
H30 C26 1_555 1_555
H31 C27 1_555 1_555
H32 C29 1_555 1_555
H33 C30 1_555 1_555
H34 C31 1_555 1_555
H35 C32 1_555 1_555
H36 C35 1_555 1_555
H37 C37 1_555 1_555
H38 C42 1_555 1_555
H39 C45 1_555 1_555
H40 C46 1_555 1_555
H41 C50 1_555 1_555
H42 C51 1_555 1_555
H43 C53 1_555 1_555
H44 C54 1_555 1_555
H45 C57 1_555 1_555
H46 C59 1_555 1_555
H47 C60 1_555 1_555
H48 C62 1_555 1_555
H49 C64 1_555 1_555
H50 C65 1_555 1_555
H51 C67 1_555 1_555
H52 C69 1_555 1_555
H53 C70 1_555 1_555
H54 C71 1_555 1_555
H55 C72 1_555 1_555
H56 C76 1_555 1_555
H57 C77 1_555 1_555
H58 C78 1_555 1_555
H59 C80 1_555 1_555
H60 C81 1_555 1_555
H61 C84 1_555 1_555
H62 C86 1_555 1_555
H63 C87 1_555 1_555
H64 C88 1_555 1_555
H65 C93 1_555 1_555
H66 C95 1_555 1_555
H67 C99 1_555 1_555
H68 C100 1_555 1_555
H69 C101 1_555 1_555
H70 C104 1_555 1_555
H71 C105 1_555 1_555
H72 C106 1_555 1_555
H73 C107 1_555 1_555
H74 C108 1_555 1_555
H75 C109 1_555 1_555
H76 C110 1_555 1_555
H77 C112 1_555 1_555
H78 C113 1_555 1_555
H79 C114 1_555 1_555
H80 C115 1_555 1_555
H81 C117 1_555 1_555
H82 C118 1_555 1_555
H83 C119 1_555 1_555
H84 C124 1_555 1_555
La1A O2 1_555 1_555
La1E O3 1_555 1_555
La2_2 O10 1_555 1_555
La2D O7 1_555 1_555
La2E O11 1_555 1_555
La2E_2 O12 1_555 1_555
La2E_3 O8 1_555 1_555
La3_2 O13 1_555 1_555
La3A O21 1_555 1_555
La3A_2 O14 1_555 1_555
La3E O12 1_555 1_555
O2E La1 1_555 1_555
O3A La1 1_555 1_555
O4E La1 1_555 1_555
O5E La1 1_555 1_555
O7B La2 1_555 1_555
O8A La2 1_555 1_555
O10_2 La2 1_555 1_555
O11A La2 1_555 1_555
O12A La2 1_555 1_555
O13_2 La3 1_555 1_555
O14E La3 1_555 1_555
O18A La3 1_555 1_555
O21A La2 1_555 1_555
O21E La3 1_555 1_555
La3 O16 1_555 1_555
La3 O12A 1_555 1_555
O4 La1A 1_555 1_555
O5 La1A 1_555 1_555
O18 La3E 1_555 1_555
O19 C121 1_555 1_555
O21 La2E 1_555 1_555
C1 C41 1_555 1_555
C23 C82 1_555 1_555
C24 C44 1_555 1_555
C27 C74 1_555 1_555
C40 C96 1_555 1_555
C42 C66 1_555 1_555
C43 C113 1_555 1_555
C65 C116 1_555 1_555
C67 C115 1_555 1_555
C68 C87 1_555 1_555
C70 C79 1_555 1_555
C71 C103 1_555 1_555
C73 C97 1_555 1_555
C75 C92 1_555 1_555
C75 C101 1_555 1_555
C80 C94 1_555 1_555
C81 C109 1_555 1_555
C85 C121 1_555 1_555
C91 C93 1_555 1_555
C95 C119 1_555 1_555
C100 C116 1_555 1_555
C105 C112 1_555 1_555
C106 C117 1_555 1_555
C110 C118 1_555 1_555
La1E O4E 1_555 1_555
La1E O5E 1_555 1_555
La2D O21E 1_555 1_555

#END
