
#######################################################################
#
#                 Cambridge Crystallographic Data Centre
#                                CCDC 
#
#######################################################################
#
# If this CIF has been generated from an entry in the Cambridge 
# Structural Database, then it will include bibliographic, chemical, 
# crystal, experimental, refinement or atomic coordinate data resulting 
# from the CCDC's data processing and validation procedures.
#
#######################################################################

data_LUKREO
_chemical_formula_moiety         '(C26 H30 Mn1 O10 P2)n'
_symmetry_cell_setting           orthorhombic
_symmetry_space_group_name_H-M   'P 21 21 21'
_symmetry_Int_Tables_number      19
_space_group_name_Hall           'P 2ac 2ab'
loop_
_symmetry_equiv_pos_site_id
_symmetry_equiv_pos_as_xyz
1 x,y,z
2 1/2-x,-y,1/2+z
3 -x,1/2+y,1/2-z
4 1/2+x,1/2-y,-z
_cell_length_a                   7.9137(7)
_cell_length_b                   12.7304(11)
_cell_length_c                   27.357(2)
_cell_angle_alpha                90
_cell_angle_beta                 90
_cell_angle_gamma                90
_cell_volume                     2756.07
loop_
_atom_site_label
_atom_site_type_symbol
_atom_site_fract_x
_atom_site_fract_y
_atom_site_fract_z
_atom_site_U_iso_or_equiv
_atom_site_thermal_displace_type
Mn1 Mn 0.65555(12) 0.74247(8) 0.97713(4) 0.0183 Uani
P1 P 0.4064(2) 0.55152(14) 1.03237(7) 0.0186 Uani
O1 O 0.4789(6) 0.7431(4) 0.91717(16) 0.0307 Uani
O2 O 1.0386(6) 0.3659(4) 1.25124(17) 0.0283 Uani
O3 O 0.5317(5) 0.6018(3) 0.99782(15) 0.0220 Uani
C1 C 0.4501(10) 0.4116(5) 1.1111(3) 0.0190 Uani
O4 O 0.3206(6) 0.4538(4) 1.00706(18) 0.0230 Uani
C2 C 0.5208(9) 0.2512(6) 1.3568(2) 0.0190 Uani
O5 O 0.7816(6) 0.1590(4) 1.17299(17) 0.0283 Uani
C3 C 0.7962(8) 0.3610(5) 1.2000(2) 0.0167 Uani
C4 C 0.6360(10) 0.0979(6) 1.2461(3) 0.0217 Uani
C5 C 1.0421(10) 0.4639(6) 1.1747(2) 0.0230 Uani
C6 C 0.5788(9) 0.2267(5) 1.3098(2) 0.0190 Uani
C7 C 0.5377(9) 0.3697(6) 1.1487(3) 0.0210 Uani
C8 C 0.6714(9) 0.4098(5) 1.3009(3) 0.0200 Uani
C9 C 0.7863(8) 0.4703(5) 1.1262(2) 0.0170 Uani
C10 C 0.9599(9) 0.3964(5) 1.2081(2) 0.0197 Uani
C11 C 0.6909(9) 0.5139(6) 1.0875(2) 0.0173 Uani
C12 C 0.5686(9) 0.1257(6) 1.2910(3) 0.0210 Uani
C13 C 0.7186(9) 0.2810(5) 1.2331(3) 0.0187 Uani
C14 C 0.7117(9) 0.1788(6) 1.2176(3) 0.0220 Uani
C15 C 0.6571(9) 0.3068(5) 1.2810(2) 0.0167 Uani
C16 C 0.5245(9) 0.4888(5) 1.0800(2) 0.0183 Uani
C17 C 0.6171(9) 0.4307(6) 1.3476(3) 0.0237 Uani
C18 C 0.9560(10) 0.4977(6) 1.1346(3) 0.0237 Uani
C19 C 1.2014(10) 0.3163(7) 1.2463(3) 0.0360 Uani
C20 C 0.8195(12) 0.0508(6) 1.1594(3) 0.0297 Uani
C21 C 0.9305(10) 0.0587(6) 1.1135(3) 0.0403 Uani
H1 H 0.8694 0.0969 1.0880 0.0600 Uiso
H2 H 0.9581 -0.0120 1.1019 0.0600 Uiso
H3 H 1.0350 0.0963 1.1215 0.0600 Uiso
C22 C 0.7064(8) 0.3992(5) 1.1592(2) 0.0153 Uani
C23 C 0.5401(8) 0.3497(5) 1.3765(2) 0.0203 Uani
P2 P 0.4827(2) 0.37191(14) 1.43897(7) 0.0197 Uani
O6 O 0.6236(5) 0.3443(3) 1.47297(16) 0.0237 Uani
O7 O 0.3227(6) 0.3132(3) 1.45058(16) 0.0240 Uani
O8 O 0.2738(5) 0.6227(4) 1.05344(16) 0.0250 Uani
O9 O 0.4474(7) 0.4932(4) 1.44408(18) 0.0240 Uani
C24 C 1.1848(13) 0.2073(7) 1.2246(4) 0.0667 Uani
H4 H 1.1197 0.1626 1.2469 0.1000 Uiso
H5 H 1.2974 0.1771 1.2198 0.1000 Uiso
H6 H 1.1264 0.2117 1.1930 0.1000 Uiso
C25 C 0.4986(12) 0.7375(8) 0.8659(3) 0.0643 Uani
H7 H 0.6054 0.7708 0.8565 0.0960 Uiso
H8 H 0.4045 0.7741 0.8500 0.0960 Uiso
H9 H 0.4994 0.6638 0.8556 0.0960 Uiso
H10 H 0.491(7) 0.314(4) 1.1686(19) 0.0000 Uiso
H11 H 1.226(10) 0.300(6) 1.288(3) 0.0600 Uiso
H12 H 0.992(8) 0.538(5) 1.117(2) 0.0100 Uiso
H13 H 0.531(8) 0.079(5) 1.306(2) 0.0100 Uiso
H14 H 0.726(7) 0.463(4) 1.2824(19) 0.0000 Uiso
H15 H 1.292(8) 0.364(5) 1.224(2) 0.0250 Uiso
H16 H 0.339(9) 0.390(5) 1.106(2) 0.0300 Uiso
H17 H 0.636(9) 0.500(5) 1.360(2) 0.0400 Uiso
H18 H 1.177(11) 0.490(6) 1.187(3) 0.0600 Uiso
H19 H 0.470(12) 0.193(7) 1.375(3) 0.1000 Uiso
H20 H 0.878(9) 0.027(5) 1.189(3) 0.0400 Uiso
H21 H 0.715(10) 0.029(6) 1.146(3) 0.0500 Uiso
H22 H 0.744(9) 0.565(5) 1.070(2) 0.0300 Uiso
H23 H 0.603(8) 0.037(5) 1.234(2) 0.0200 Uiso
H24 H 0.533(9) 0.530(6) 1.449(3) 0.0400 Uiso
H25 H 0.261(9) 0.470(6) 0.987(2) 0.0300 Uiso
O6A O 0.8764(5) 0.6557(3) 0.97297(16) 0.0237 Uani
O7B O 0.6773(6) 0.8132(3) 1.04942(16) 0.0240 Uani
O8C O 0.7738(5) 0.8773(4) 0.94656(16) 0.0250 Uani
Mn1A Mn 0.84445(12) 0.25753(8) 1.47713(4) 0.0183 Uani
Mn1B Mn 0.34445(12) 0.24247(8) 1.52287(4) 0.0183 Uani
Mn1C Mn 0.15555(12) 0.75753(8) 1.02287(4) 0.0183 Uani
O10 O 0.7372(7) 0.5723(4) 1.46543(19) 0.0440 Uiso
C26 C 0.7755(16) 0.6772(9) 1.4860(5) 0.1343 Uani
H26 H 0.8905 0.6774 1.4994 0.2010 Uiso
H27 H 0.6948 0.6934 1.5121 0.2010 Uiso
H28 H 0.7666 0.7303 1.4602 0.2010 Uiso
loop_
_atom_site_aniso_label
_atom_site_aniso_U_11
_atom_site_aniso_U_22
_atom_site_aniso_U_33
_atom_site_aniso_U_23
_atom_site_aniso_U_13
_atom_site_aniso_U_12
Mn1 0.0174(5) 0.0194(6) 0.0182(5) 0.0020(5) -0.0009(5) -0.0013(5)
P1 0.0157(10) 0.0213(11) 0.0188(11) 0.0044(9) -0.0011(8) 0.0015(8)
O1 0.029(3) 0.047(3) 0.016(3) 0.006(3) 0.001(2) -0.015(3)
O2 0.019(3) 0.044(3) 0.022(3) 0.000(3) -0.007(2) 0.003(3)
O3 0.018(3) 0.026(3) 0.022(3) 0.009(2) 0.000(2) -0.001(2)
C1 0.019(5) 0.018(4) 0.020(4) 0.007(3) 0.000(4) 0.000(4)
O4 0.026(3) 0.021(3) 0.022(3) 0.000(2) -0.005(3) 0.003(3)
C2 0.021(4) 0.025(4) 0.011(4) 0.009(4) 0.000(3) 0.001(4)
O5 0.039(3) 0.029(3) 0.017(3) -0.003(2) 0.006(3) 0.007(3)
C3 0.019(4) 0.016(4) 0.015(4) 0.001(3) 0.004(3) -0.003(3)
C4 0.019(4) 0.022(5) 0.024(5) 0.003(4) -0.007(4) -0.005(4)
C5 0.029(5) 0.025(4) 0.015(4) 0.004(3) -0.002(4) -0.005(4)
C6 0.024(4) 0.013(4) 0.020(4) 0.004(3) -0.006(3) 0.003(3)
C7 0.022(4) 0.015(4) 0.026(4) 0.005(4) 0.008(4) 0.002(4)
C8 0.020(4) 0.019(4) 0.021(4) 0.005(3) 0.013(4) 0.001(4)
C9 0.021(4) 0.009(4) 0.021(4) 0.003(3) 0.003(3) 0.005(3)
C10 0.019(4) 0.026(4) 0.014(4) 0.006(3) 0.004(4) 0.005(4)
C11 0.016(5) 0.025(4) 0.011(4) 0.000(3) -0.006(3) -0.003(4)
C12 0.024(5) 0.023(5) 0.016(4) 0.008(4) -0.005(4) -0.008(4)
C13 0.020(4) 0.015(4) 0.021(4) 0.004(3) 0.000(3) 0.002(3)
C14 0.023(4) 0.026(5) 0.017(4) 0.005(4) -0.003(4) 0.004(4)
C15 0.011(4) 0.022(4) 0.017(4) 0.001(3) 0.002(3) 0.001(4)
C16 0.021(4) 0.012(4) 0.022(4) 0.001(3) 0.003(4) 0.003(3)
C17 0.024(5) 0.027(5) 0.020(4) 0.004(4) -0.002(4) -0.004(4)
C18 0.027(5) 0.024(5) 0.020(5) 0.007(4) 0.003(4) -0.002(4)
C19 0.025(5) 0.043(6) 0.040(6) 0.015(5) 0.008(4) 0.012(4)
C20 0.041(6) 0.024(5) 0.024(5) -0.008(4) 0.005(5) 0.003(5)
C21 0.055(6) 0.036(5) 0.030(5) -0.010(4) 0.016(4) -0.005(5)
C22 0.015(4) 0.017(4) 0.014(4) 0.000(3) -0.003(3) 0.004(3)
C23 0.011(4) 0.022(4) 0.028(4) 0.000(3) 0.005(3) 0.002(3)
P2 0.0187(11) 0.0232(10) 0.0171(10) 0.0011(9) 0.0040(9) 0.0025(9)
O6 0.024(3) 0.028(3) 0.019(3) -0.003(2) -0.014(3) 0.006(2)
O7 0.020(3) 0.029(3) 0.023(3) 0.000(2) 0.007(2) -0.009(2)
O8 0.027(3) 0.030(3) 0.018(3) 0.000(2) 0.000(2) 0.002(3)
O9 0.032(3) 0.015(3) 0.025(3) -0.002(2) -0.001(3) 0.005(3)
C24 0.057(7) 0.049(6) 0.094(8) -0.009(6) -0.024(6) 0.015(5)
C25 0.054(7) 0.069(7) 0.070(7) -0.008(6) 0.008(5) -0.010(6)
O6A 0.024 0.028 0.019 0.003 0.014 0.006
O7B 0.02 0.029 0.023 0 0.007 0.009
O8C 0.027 0.03 0.018 0 0 -0.002
Mn1A 0.0174 0.0194 0.0182 -0.002 0.0009 -0.0013
Mn1B 0.0174 0.0194 0.0182 -0.002 -0.0009 0.0013
Mn1C 0.0174 0.0194 0.0182 0.002 0.0009 0.0013
C26 0.129(12) 0.093(10) 0.181(15) -0.003(10) -0.073(11) 0.002(9)
loop_
_geom_bond_atom_site_label_1
_geom_bond_atom_site_label_2
_geom_bond_site_symmetry_1
_geom_bond_site_symmetry_2
Mn1 O1 1_555 1_555
P1 O3 1_555 1_555
O1 C25 1_555 1_555
O2 C10 1_555 1_555
O3 Mn1 1_555 1_555
C1 C7 1_555 1_555
O4 P1 1_555 1_555
C2 C6 1_555 1_555
O5 C14 1_555 1_555
C3 C10 1_555 1_555
C4 C12 1_555 1_555
C5 C10 1_555 1_555
C6 C12 1_555 1_555
C7 C22 1_555 1_555
C8 C15 1_555 1_555
C9 C11 1_555 1_555
C11 C16 1_555 1_555
C12 H13 1_555 1_555
C13 C3 1_555 1_555
C14 C4 1_555 1_555
C15 C6 1_555 1_555
C16 P1 1_555 1_555
C17 C8 1_555 1_555
C18 C5 1_555 1_555
C19 O2 1_555 1_555
C20 O5 1_555 1_555
C21 C20 1_555 1_555
H1 C21 1_555 1_555
H2 C21 1_555 1_555
H3 C21 1_555 1_555
C22 C3 1_555 1_555
C23 C2 1_555 1_555
P2 C23 1_555 1_555
O6 P2 1_555 1_555
O7 P2 1_555 1_555
O8 P1 1_555 1_555
O9 P2 1_555 1_555
C24 C19 1_555 1_555
H4 C24 1_555 1_555
H5 C24 1_555 1_555
H6 C24 1_555 1_555
C25 H7 1_555 1_555
H8 C25 1_555 1_555
H9 C25 1_555 1_555
H10 C7 1_555 1_555
H11 C19 1_555 1_555
H12 C18 1_555 1_555
H14 C8 1_555 1_555
H15 C19 1_555 1_555
H16 C1 1_555 1_555
H17 C17 1_555 1_555
H18 C5 1_555 1_555
H19 C2 1_555 1_555
H20 C20 1_555 1_555
H21 C20 1_555 1_555
H22 C11 1_555 1_555
H23 C4 1_555 1_555
H24 O9 1_555 1_555
H25 O4 1_555 1_555
O10 C26 1_555 1_555
C26 H26 1_555 1_555
H27 C26 1_555 1_555
H28 C26 1_555 1_555
O6A Mn1 1_555 1_555
O7B Mn1 1_555 1_555
O8C Mn1 1_555 1_555
Mn1A O6 1_555 1_555
Mn1B O7 1_555 1_555
Mn1C O8 1_555 1_555
C1 C16 1_555 1_555
C9 C18 1_555 1_555
C9 C22 1_555 1_555
C13 C14 1_555 1_555
C13 C15 1_555 1_555
C17 C23 1_555 1_555

#END
