
#######################################################################
#
#                 Cambridge Crystallographic Data Centre
#                                CCDC 
#
#######################################################################
#
# If this CIF has been generated from an entry in the Cambridge 
# Structural Database, then it will include bibliographic, chemical, 
# crystal, experimental, refinement or atomic coordinate data resulting 
# from the CCDC's data processing and validation procedures.
#
#######################################################################

data_LUKRIS
_chemical_formula_moiety         '(C48 H58 Co2 O23 P4)n'
_symmetry_cell_setting           monoclinic
_symmetry_space_group_name_H-M   'P 21'
_symmetry_Int_Tables_number      4
_space_group_name_Hall           'P 2yb'
loop_
_symmetry_equiv_pos_site_id
_symmetry_equiv_pos_as_xyz
1 x,y,z
2 -x,1/2+y,-z
_cell_length_a                   14.963(2)
_cell_length_b                   12.3428(17)
_cell_length_c                   16.137(2)
_cell_angle_alpha                90
_cell_angle_beta                 116.589(3)
_cell_angle_gamma                90
_cell_volume                     2665.07
loop_
_atom_site_label
_atom_site_type_symbol
_atom_site_fract_x
_atom_site_fract_y
_atom_site_fract_z
Co1 Co 0.25075(9) 0.82243(10) 0.97498(8)
Co2 Co 0.47858(9) 0.45167(9) 1.00611(8)
P1 P 0.35936(17) 0.8141(2) 0.83972(15)
P2 P 0.36763(18) 0.6081(2) 1.08876(16)
O1 O 0.2777(4) 0.6800(5) 1.0497(4)
O2 O 0.3753(4) 0.5288(5) 1.0228(4)
O3 O 0.3684(5) 0.2006(5) 1.4871(4)
O4 O 0.4474(4) 0.7377(5) 0.8485(4)
O5 O 0.2178(5) 0.9745(5) 0.8994(4)
C1 C 0.2878(6) 0.8294(8) 0.7162(5)
C2 C 0.3602(6) 0.4218(7) 1.3346(6)
C3 C 0.3790(6) 0.4377(7) 1.5641(5)
O6 O 0.1602(4) 0.4206(6) 1.3401(4)
O7 O 0.4031(4) 0.9245(4) 0.8789(4)
O8 O 0.1211(5) 1.1216(5) 0.4756(4)
C4 C 0.3673(6) 0.5364(8) 1.1846(5)
O9 O 0.4675(4) 0.6815(5) 1.1313(4)
C5 C 0.2193(7) 0.4515(9) 1.4312(6)
C6 C 0.4125(6) 0.2560(7) 1.2849(6)
H1 H 0.4320 0.2198 1.2437
C7 C -0.0416(7) 0.9186(7) 0.3133(6)
C8 C 0.3801(7) 0.2539(7) 1.4175(6)
C9 C -0.1304(6) 0.9783(7) 0.2613(5)
C10 C 0.2764(6) 0.8171(8) 0.5616(5)
C11 C 0.3875(6) 0.3678(7) 1.2720(6)
C12 C 0.1895(7) 0.8803(7) 0.3778(6)
O10 O 0.1471(4) 0.9121(5) 0.2837(4)
O11 O 0.1069(4) 0.7506(5) 0.8807(4)
C13 C 0.0432(6) 0.9694(7) 0.3833(5)
C14 C 0.4086(7) 0.2002(8) 1.3564(6)
H2 H 0.4251 0.1253 1.3647
C15 C 0.0369(7) 1.0759(8) 0.4046(6)
C16 C 0.3897(6) 0.4247(7) 1.1972(5)
H3 H 0.4064 0.3874 1.1545
C17 C 0.3408(6) 0.5878(8) 1.2491(6)
H4 H 0.3254 0.6630 1.2425
C18 C 0.2396(7) 0.5324(8) 1.5729(6)
H5 H 0.2131 0.5717 1.6075
C19 C 0.3167(7) 0.4170(7) 1.4679(6)
C20 C 0.1950(6) 0.8865(7) 0.6782(6)
H6 H 0.1672 0.9089 0.7180
C21 C 0.3371(6) 0.5321(7) 1.3197(6)
H7 H 0.3180 0.5694 1.3608
C22 C 0.3542(6) 0.3627(7) 1.4070(6)
C23 C 0.1405(6) 0.9097(7) 0.4305(6)
C24 C 0.2763(7) 0.8191(8) 0.4124(6)
H8 H 0.3057 0.7988 0.3734
C25 C 0.3260(7) 0.7962(7) 0.6586(6)
H9 H 0.3877 0.7580 0.6836
C26 C -0.0508(6) 1.1379(7) 0.3539(5)
H10 H -0.0540 1.2118 0.3687
C27 C 0.4118(7) 0.0957(7) 1.5155(6)
H11 H 0.4831 0.0966 1.5289
H12 H 0.3764 0.0417 1.4662
C28 C 0.3412(6) 0.4952(6) 1.6178(6)
C29 C -0.1311(6) 1.0886(7) 0.2828(6)
H13 H -0.1890 1.1305 0.2472
C30 C 0.1830(7) 0.8790(7) 0.5239(6)
C31 C 0.3187(7) 0.7887(7) 0.5027(6)
H14 H 0.3785 0.7472 0.5266
C32 C -0.2144(7) 0.9283(8) 0.1914(6)
H15 H -0.2727 0.9697 0.1562
C33 C 0.1802(8) 0.5122(8) 1.4808(6)
H16 H 0.1137 0.5388 1.4511
C34 C 0.1847(11) 1.0103(13) 0.2664(9)
H17 H 0.2584 1.0033 0.2974
H18 H 0.1644 1.0115 0.1990
C35 C 0.2054(7) 1.2449(9) 0.5983(6)
H19 H 0.2163 1.1862 0.6427
H20 H 0.2002 1.3139 0.6258
H21 H 0.2618 1.2480 0.5829
C36 C 0.1452(6) 0.9097(7) 0.5854(6)
H22 H 0.0834 0.9475 0.5624
C37 C 0.4803(7) 0.4006(7) 1.6100(6)
H23 H 0.5090 0.3663 1.5749
C38 C -0.0422(7) 0.8057(7) 0.2917(6)
H24 H 0.0163 0.7635 0.3244
C39 C 0.4011(7) 0.0685(8) 1.6011(6)
H25 H 0.4330 0.1251 1.6478
H26 H 0.4333 -0.0013 1.6256
H27 H 0.3300 0.0641 1.5859
C40 C 0.0702(8) 0.4846(16) 1.2868(7)
H28 H 0.0115 0.4375 1.2721
H29 H 0.0675 0.5435 1.3273
C41 C 0.1093(7) 1.2241(7) 0.5107(6)
H30 H 0.0515 1.2224 0.5249
H31 H 0.0982 1.2818 0.4645
C42 C -0.2127(6) 0.8205(9) 0.1738(5)
C43 C -0.1249(7) 0.7584(8) 0.2254(6)
H32 H -0.1244 0.6832 0.2131
C44 C 0.5364(6) 0.4134(6) 1.7031(5)
H33 H 0.6023 0.3847 1.7323
C45 C 0.4008(7) 0.5086(7) 1.7123(6)
H34 H 0.3742 0.5462 1.7477
C46 C 0.4976(6) 0.4691(7) 1.7570(6)
O12 O 0.2966(4) 0.7648(5) 0.8804(4)
O13 O 0.1779(5) 0.8905(5) 1.0471(4)
P3 P 0.56988(19) 0.48904(19) 1.87930(16)
O14 O 0.6570(4) 0.5680(5) 1.8904(4)
O15 O 0.6101(4) 0.3789(4) 1.9239(4)
P4 P -0.32009(18) 0.7524(2) 0.08337(16)
O16 O -0.2902(5) 0.7179(6) 0.0111(4)
O17 O -0.3370(5) 0.6461(5) 0.1306(4)
O18 O 0.5039(4) 0.5418(5) 1.9177(4)
O19 O -0.4106(4) 0.8193(5) 0.0565(4)
C47 C 0.0616(16) 0.524(3) 1.2179(19)
H35 H 0.0671 0.6026 1.2249
H36 H -0.0039 0.5047 1.1677
H37 H 0.1143 0.4965 1.2032
C48 C 0.1647(18) 1.1094(16) 0.288(2)
H38 H 0.2002 1.1639 0.2698
H39 H 0.1866 1.1139 0.3549
H40 H 0.0926 1.1230 0.2550
O15A O 0.3899(4) 0.8789(4) 1.0761(4)
O7A O 0.5969(4) 0.4245(4) 1.1211(4)
O18_2 O 0.5039(4) 0.5418(5) 0.9177(4)
O19A O 0.4106(4) 0.3193(5) 0.9435(4)
Co2A Co 0.52142(9) 0.95167(9) 0.99389(8)
Co1A Co 0.74925(9) 0.32243(10) 2.02502(8)
Co2_2 Co 0.47858(9) 0.45167(9) 2.00611(8)
Co2A_2 Co -0.47858(9) 0.95167(9) -0.00611(8)
O20 O 0.0548(7) 0.7968(8) 1.1129(6)
O21 O -0.1434(8) 0.8338(10) 0.9821(7)
O22 O 0.0900(8) 0.5933(10) 1.0011(8)
O23 O 0.1047(9) 1.0947(11) 0.9954(9)
loop_
_geom_bond_atom_site_label_1
_geom_bond_atom_site_label_2
_geom_bond_site_symmetry_1
_geom_bond_site_symmetry_2
Co1 O1 1_555 1_555
Co2 O2 1_555 1_555
P1 O4 1_555 1_555
P2 O1 1_555 1_555
O2 P2 1_555 1_555
O3 C8 1_555 1_555
O5 Co1 1_555 1_555
C1 P1 1_555 1_555
C2 C11 1_555 1_555
C3 C19 1_555 1_555
O6 C5 1_555 1_555
O7 P1 1_555 1_555
O8 C15 1_555 1_555
C4 P2 1_555 1_555
O9 P2 1_555 1_555
C5 C19 1_555 1_555
C6 H1 1_555 1_555
C7 C9 1_555 1_555
C8 C14 1_555 1_555
C9 C29 1_555 1_555
C10 C25 1_555 1_555
C11 C6 1_555 1_555
C12 O10 1_555 1_555
O10 C34 1_555 1_555
O11 Co1 1_555 1_555
C13 C7 1_555 1_555
C14 C6 1_555 1_555
H2 C14 1_555 1_555
C15 C13 1_555 1_555
C16 C4 1_555 1_555
H3 C16 1_555 1_555
C17 C4 1_555 1_555
H4 C17 1_555 1_555
C18 H5 1_555 1_555
C19 C22 1_555 1_555
C20 C1 1_555 1_555
H6 C20 1_555 1_555
C21 C2 1_555 1_555
H7 C21 1_555 1_555
C22 C2 1_555 1_555
C23 C12 1_555 1_555
C24 C12 1_555 1_555
H8 C24 1_555 1_555
C25 C1 1_555 1_555
H9 C25 1_555 1_555
C26 C15 1_555 1_555
H10 C26 1_555 1_555
C27 O3 1_555 1_555
H11 C27 1_555 1_555
H12 C27 1_555 1_555
C28 C3 1_555 1_555
C29 C26 1_555 1_555
H13 C29 1_555 1_555
C30 C10 1_555 1_555
C31 C10 1_555 1_555
H14 C31 1_555 1_555
C32 C9 1_555 1_555
H15 C32 1_555 1_555
C33 C5 1_555 1_555
H16 C33 1_555 1_555
C34 H17 1_555 1_555
H18 C34 1_555 1_555
C35 H19 1_555 1_555
H20 C35 1_555 1_555
H21 C35 1_555 1_555
C36 C20 1_555 1_555
H22 C36 1_555 1_555
C37 C3 1_555 1_555
H23 C37 1_555 1_555
C38 C7 1_555 1_555
H24 C38 1_555 1_555
C39 C27 1_555 1_555
H25 C39 1_555 1_555
H26 C39 1_555 1_555
H27 C39 1_555 1_555
C40 O6 1_555 1_555
H28 C40 1_555 1_555
H29 C40 1_555 1_555
C41 O8 1_555 1_555
H30 C41 1_555 1_555
H31 C41 1_555 1_555
C42 C32 1_555 1_555
C43 C38 1_555 1_555
H32 C43 1_555 1_555
C44 C37 1_555 1_555
H33 C44 1_555 1_555
C45 C28 1_555 1_555
H34 C45 1_555 1_555
C46 C44 1_555 1_555
O12 Co1 1_555 1_555
O13 Co1 1_555 1_555
P3 C46 1_555 1_555
O14 P3 1_555 1_555
O15 P3 1_555 1_555
P4 C42 1_555 1_555
O16 P4 1_555 1_555
O17 P4 1_555 1_555
O18 P3 1_555 1_555
O19 P4 1_555 1_555
C47 C40 1_555 1_555
H35 C47 1_555 1_555
H36 C47 1_555 1_555
H37 C47 1_555 1_555
C48 C34 1_555 1_555
H38 C48 1_555 1_555
H39 C48 1_555 1_555
H40 C48 1_555 1_555
O15A Co1 1_555 1_555
O7A Co2 1_555 1_555
O18_2 Co2 1_555 1_555
O19A Co2 1_555 1_555
Co2A O7 1_555 1_555
Co1A O15 1_555 1_555
Co2_2 O18 1_555 1_555
Co2A_2 O19 1_555 1_555
P1 O12 1_555 1_555
C8 C22 1_555 1_555
C11 C16 1_555 1_555
C13 C23 1_555 1_555
C17 C21 1_555 1_555
C18 C28 1_555 1_555
C18 C33 1_555 1_555
C23 C30 1_555 1_555
C24 C31 1_555 1_555
C30 C36 1_555 1_555
C35 C41 1_555 1_555
C42 C43 1_555 1_555
C45 C46 1_555 1_555

#END
