
#######################################################################
#
#                 Cambridge Crystallographic Data Centre
#                                CCDC 
#
#######################################################################
#
# If this CIF has been generated from an entry in the Cambridge 
# Structural Database, then it will include bibliographic, chemical, 
# crystal, experimental, refinement or atomic coordinate data resulting 
# from the CCDC's data processing and validation procedures.
#
#######################################################################

data_KAVJEX01
_chemical_formula_moiety         'C48 H20 N6 Nd9 O37'
_symmetry_cell_setting           cubic
_symmetry_space_group_name_H-M   'I a -3'
_symmetry_Int_Tables_number      206
_space_group_name_Hall           '-I 2b 2c 3'
loop_
_symmetry_equiv_pos_site_id
_symmetry_equiv_pos_as_xyz
1 x,y,z
2 -x,1/2-y,z
3 x,-y,1/2-z
4 1/2-x,y,-z
5 z,x,y
6 y,z,x
7 -z,1/2-x,y
8 1/2-y,z,-x
9 z,-x,1/2-y
10 -y,1/2-z,x
11 1/2-z,x,-y
12 y,-z,1/2-x
13 1/2+x,1/2+y,1/2+z
14 1/2-x,-y,1/2+z
15 1/2+x,1/2-y,-z
16 -x,1/2+y,1/2-z
17 1/2+z,1/2+x,1/2+y
18 1/2+y,1/2+z,1/2+x
19 1/2-z,-x,1/2+y
20 -y,1/2+z,1/2-x
21 1/2+z,1/2-x,-y
22 1/2-y,-z,1/2+x
23 -z,1/2+x,1/2-y
24 1/2+y,1/2-z,-x
25 -x,-y,-z
26 x,1/2+y,-z
27 -x,y,1/2+z
28 1/2+x,-y,z
29 -z,-x,-y
30 -y,-z,-x
31 z,1/2+x,-y
32 1/2+y,-z,x
33 -z,x,1/2+y
34 y,1/2+z,-x
35 1/2+z,-x,y
36 -y,z,1/2+x
37 1/2-x,1/2-y,1/2-z
38 1/2+x,y,1/2-z
39 1/2-x,1/2+y,z
40 x,1/2-y,1/2+z
41 1/2-z,1/2-x,1/2-y
42 1/2-y,1/2-z,1/2-x
43 1/2+z,x,1/2-y
44 y,1/2-z,1/2+x
45 1/2-z,1/2+x,y
46 1/2+y,z,1/2-x
47 z,1/2-x,1/2+y
48 1/2-y,1/2+z,x
_cell_length_a                   26.8056(5)
_cell_length_b                   26.8056(5)
_cell_length_c                   26.8056(5)
_cell_angle_alpha                90
_cell_angle_beta                 90
_cell_angle_gamma                90
_cell_volume                     19260.9
loop_
_atom_site_label
_atom_site_type_symbol
_atom_site_fract_x
_atom_site_fract_y
_atom_site_fract_z
O5 O 0.11465(18) 0.19120(18) 0.3310(2)
Nd1 Nd 0.25000 0.25000 0.25000
O1 O 0.21830(12) 0.22683(11) 0.33917(10)
O2 O 0.24825(10) 0.30257(10) 0.33303(9)
C1 C 0.22569(15) 0.26900(16) 0.35767(15)
C2 C 0.20876(15) 0.28011(16) 0.40951(15)
Nd2 Nd 0.334166(8) 0.334166(8) 0.334166(8)
O3 O 0.16714(11) 0.27722(11) 0.59200(10)
O4 O 0.16947(11) 0.35771(11) 0.57602(10)
C3 C 0.17194(15) 0.31255(17) 0.56073(15)
C4 C 0.18170(15) 0.30156(16) 0.50721(15)
C5 C 0.18437(18) 0.25272(17) 0.49111(16)
N1 N 0.1705(7) 0.2096(5) 0.5200(5)
C6 C 0.19667(19) 0.24208(17) 0.44185(17)
H1 H 0.1967 0.2085 0.4305
C7 C 0.19224(18) 0.33976(17) 0.47385(17)
H2 H 0.19 0.3735 0.4844
C8 C 0.20585(16) 0.32897(17) 0.42563(16)
H3 H 0.2133 0.3553 0.4032
O1D O 0.33917(10) 0.21830(12) 0.22683(11)
O1E O 0.22683(11) 0.33917(10) 0.21830(12)
O1JA O 0.28170(12) 0.27317(11) 0.16083(10)
O1NA O 0.16083(10) 0.28170(12) 0.27317(11)
O1OA O 0.27317(11) 0.16083(10) 0.28170(12)
O2D O 0.33303(9) 0.24825(10) 0.30257(10)
O2E O 0.30257(10) 0.33303(9) 0.24825(10)
O2JA O 0.25175(10) 0.19743(10) 0.16697(9)
O2NA O 0.16697(9) 0.25175(10) 0.19743(10)
O2OA O 0.19743(10) 0.16697(9) 0.25175(10)
C1D C 0.35767(15) 0.22569(15) 0.26900(16)
C1E C 0.26900(16) 0.35767(15) 0.22569(15)
C1JA C 0.27431(15) 0.23100(16) 0.14233(15)
C1NA C 0.14233(15) 0.27431(15) 0.23100(16)
C1OA C 0.23100(16) 0.14233(15) 0.27431(15)
C2D C 0.40951(15) 0.20876(15) 0.28011(16)
C2E C 0.28011(16) 0.40951(15) 0.20876(15)
C2JA C 0.29124(15) 0.21989(16) 0.09049(15)
C2NA C 0.09049(15) 0.29124(15) 0.21989(16)
C2OA C 0.21989(16) 0.09049(15) 0.29124(15)
Nd2JA Nd 0.165834(8) 0.165834(8) 0.165834(8)
Nd2C Nd 0.165834(8) 0.334166(8) 0.665834(8)
Nd2A Nd 0.665834(8) 0.165834(8) 0.334166(8)
Nd2B Nd 0.334166(8) 0.665834(8) 0.165834(8)
Nd2MA Nd 0.334166(8) 0.165834(8) -0.165834(8)
Nd2KA Nd -0.165834(8) 0.334166(8) 0.165834(8)
Nd2LA Nd 0.165834(8) -0.165834(8) 0.334166(8)
O3D O 0.59200(10) 0.16714(11) 0.27722(11)
O3E O 0.27722(11) 0.59200(10) 0.16714(11)
O3JA O 0.33286(11) 0.22278(11) -0.09200(10)
O3NA O -0.09200(10) 0.33286(11) 0.22278(11)
O3OA O 0.22278(11) -0.09200(10) 0.33286(11)
O3C O 0.33286(11) 0.27722(11) 0.40800(10)
O3F O 0.40800(10) 0.33286(11) 0.27722(11)
O3K O 0.27722(11) 0.40800(10) 0.33286(11)
O3MA O 0.16714(11) 0.22278(11) 0.09200(10)
O3PA O 0.09200(10) 0.16714(11) 0.22278(11)
O3UA O 0.22278(11) 0.09200(10) 0.16714(11)
O4D O 0.57602(10) 0.16947(11) 0.35771(11)
O4E O 0.35771(11) 0.57602(10) 0.16947(11)
O4JA O 0.33053(11) 0.14229(11) -0.07602(10)
O4NA O -0.07602(10) 0.33053(11) 0.14229(11)
O4OA O 0.14229(11) -0.07602(10) 0.33053(11)
O4C O 0.33053(11) 0.35771(11) 0.42398(10)
O4F O 0.42398(10) 0.33053(11) 0.35771(11)
O4K O 0.35771(11) 0.42398(10) 0.33053(11)
O4MA O 0.16947(11) 0.14229(11) 0.07602(10)
O4PA O 0.07602(10) 0.16947(11) 0.14229(11)
O4UA O 0.14229(11) 0.07602(10) 0.16947(11)
C3D C 0.56073(15) 0.17194(15) 0.31255(17)
C3E C 0.31255(17) 0.56073(15) 0.17194(15)
C3JA C 0.32806(15) 0.18745(17) -0.06073(15)
C3NA C -0.06073(15) 0.32806(15) 0.18745(17)
C3OA C 0.18745(17) -0.06073(15) 0.32806(15)
C4D C 0.50721(15) 0.18170(15) 0.30156(16)
C4E C 0.30156(16) 0.50721(15) 0.18170(15)
C4JA C 0.31830(15) 0.19844(16) -0.00721(15)
C4NA C -0.00721(15) 0.31830(15) 0.19844(16)
C4OA C 0.19844(16) -0.00721(15) 0.31830(15)
C5D C 0.49111(16) 0.18437(18) 0.25272(17)
C5E C 0.25272(17) 0.49111(16) 0.18437(18)
C5JA C 0.31563(18) 0.24728(17) 0.00889(16)
C5NA C 0.00889(16) 0.31563(18) 0.24728(17)
C5OA C 0.24728(17) 0.00889(16) 0.31563(18)
N1D N 0.5200(5) 0.1705(7) 0.2096(5)
N1E N 0.2096(5) 0.5200(5) 0.1705(7)
N1JA N 0.3295(7) 0.2904(5) -0.0200(5)
N1NA N -0.0200(5) 0.3295(7) 0.2904(5)
N1OA N 0.2904(5) -0.0200(5) 0.3295(7)
C6D C 0.44185(17) 0.19667(19) 0.24208(17)
C6E C 0.24208(17) 0.44185(17) 0.19667(19)
C6JA C 0.30333(19) 0.25792(17) 0.05815(17)
C6NA C 0.05815(17) 0.30333(19) 0.25792(17)
C6OA C 0.25792(17) 0.05815(17) 0.30333(19)
H1D H 0.4305 0.1967 0.2085
H1E H 0.2085 0.4305 0.1967
H1JA H 0.3033 0.2915 0.0695
H1NA H 0.0695 0.3033 0.2915
H1OA H 0.2915 0.0695 0.3033
C7D C 0.47385(17) 0.19224(18) 0.33976(17)
C7E C 0.33976(17) 0.47385(17) 0.19224(18)
C7JA C 0.30776(18) 0.16024(17) 0.02615(17)
C7NA C 0.02615(17) 0.30776(18) 0.16024(17)
C7OA C 0.16024(17) 0.02615(17) 0.30776(18)
H2D H 0.4844 0.19 0.3735
H2E H 0.3735 0.4844 0.19
H2JA H 0.31 0.1265 0.0156
H2NA H 0.0156 0.31 0.1265
H2OA H 0.1265 0.0156 0.31
C8D C 0.42563(16) 0.20585(16) 0.32897(17)
C8E C 0.32897(17) 0.42563(16) 0.20585(16)
C8JA C 0.29415(16) 0.17103(17) 0.07437(16)
C8NA C 0.07437(16) 0.29415(16) 0.17103(17)
C8OA C 0.17103(17) 0.07437(16) 0.29415(16)
H3D H 0.4032 0.2133 0.3553
H3E H 0.3553 0.4032 0.2133
H3JA H 0.2867 0.1447 0.0968
H3NA H 0.0968 0.2867 0.1447
H3OA H 0.1447 0.0968 0.2867
loop_
_geom_bond_atom_site_label_1
_geom_bond_atom_site_label_2
_geom_bond_site_symmetry_1
_geom_bond_site_symmetry_2
Nd1 O1 1_555 1_555
O1 C1 1_555 1_555
O2 Nd1 1_555 1_555
C1 O2 1_555 1_555
C2 C1 1_555 1_555
Nd2 O2 1_555 1_555
O3 C3 1_555 1_555
O4 C3 1_555 1_555
C3 C4 1_555 1_555
C4 C5 1_555 1_555
C5 N1 1_555 1_555
C6 C2 1_555 1_555
H1 C6 1_555 1_555
C7 C4 1_555 1_555
H2 C7 1_555 1_555
C8 C2 1_555 1_555
H3 C8 1_555 1_555
O1D Nd1 1_555 1_555
O1E Nd1 1_555 1_555
O1JA Nd1 1_555 1_555
O1NA Nd1 1_555 1_555
O1OA Nd1 1_555 1_555
O2D Nd1 1_555 1_555
O2E Nd1 1_555 1_555
O2JA Nd1 1_555 1_555
O2NA Nd1 1_555 1_555
O2OA Nd1 1_555 1_555
C1D O1D 1_555 1_555
C1E O1E 1_555 1_555
C1JA O1JA 1_555 1_555
C1NA O1NA 1_555 1_555
C1OA O1OA 1_555 1_555
C2D C1D 1_555 1_555
C2E C1E 1_555 1_555
C2JA C1JA 1_555 1_555
C2NA C1NA 1_555 1_555
C2OA C1OA 1_555 1_555
Nd2JA O2JA 1_555 1_555
Nd2C O3 1_555 1_555
Nd2A O3D 1_555 1_555
Nd2B O3E 1_555 1_555
Nd2MA O3JA 1_555 1_555
Nd2KA O3NA 1_555 1_555
Nd2LA O3OA 1_555 1_555
O3D C3D 1_555 1_555
O3E C3E 1_555 1_555
O3JA C3JA 1_555 1_555
O3NA C3NA 1_555 1_555
O3OA C3OA 1_555 1_555
O3C Nd2 1_555 1_555
O3F Nd2 1_555 1_555
O3K Nd2 1_555 1_555
O3MA Nd2JA 1_555 1_555
O3PA Nd2JA 1_555 1_555
O3UA Nd2JA 1_555 1_555
O4D Nd2A 1_555 1_555
O4E Nd2B 1_555 1_555
O4JA Nd2MA 1_555 1_555
O4NA Nd2KA 1_555 1_555
O4OA Nd2LA 1_555 1_555
O4C Nd2 1_555 1_555
O4F Nd2 1_555 1_555
O4K Nd2 1_555 1_555
O4MA Nd2JA 1_555 1_555
O4PA Nd2JA 1_555 1_555
O4UA Nd2JA 1_555 1_555
C3D O4D 1_555 1_555
C3E O4E 1_555 1_555
C3JA O4JA 1_555 1_555
C3NA O4NA 1_555 1_555
C3OA O4OA 1_555 1_555
C4D C3D 1_555 1_555
C4E C3E 1_555 1_555
C4JA C3JA 1_555 1_555
C4NA C3NA 1_555 1_555
C4OA C3OA 1_555 1_555
C5D C4D 1_555 1_555
C5E C4E 1_555 1_555
C5JA C4JA 1_555 1_555
C5NA C4NA 1_555 1_555
C5OA C4OA 1_555 1_555
N1D C5D 1_555 1_555
N1E C5E 1_555 1_555
N1JA C5JA 1_555 1_555
N1NA C5NA 1_555 1_555
N1OA C5OA 1_555 1_555
C6D C2D 1_555 1_555
C6E C2E 1_555 1_555
C6JA C2JA 1_555 1_555
C6NA C2NA 1_555 1_555
C6OA C2OA 1_555 1_555
H1D C6D 1_555 1_555
H1E C6E 1_555 1_555
H1JA C6JA 1_555 1_555
H1NA C6NA 1_555 1_555
H1OA C6OA 1_555 1_555
C7D C4D 1_555 1_555
C7E C4E 1_555 1_555
C7JA C4JA 1_555 1_555
C7NA C4NA 1_555 1_555
C7OA C4OA 1_555 1_555
H2D C7D 1_555 1_555
H2E C7E 1_555 1_555
H2JA C7JA 1_555 1_555
H2NA C7NA 1_555 1_555
H2OA C7OA 1_555 1_555
C8D C2D 1_555 1_555
C8E C2E 1_555 1_555
C8JA C2JA 1_555 1_555
C8NA C2NA 1_555 1_555
C8OA C2OA 1_555 1_555
H3D C8D 1_555 1_555
H3E C8E 1_555 1_555
H3JA C8JA 1_555 1_555
H3NA C8NA 1_555 1_555
H3OA C8OA 1_555 1_555
Nd2 O2D 1_555 1_555
Nd2 O2E 1_555 1_555
O4 Nd2C 1_555 1_555
C5 C6 1_555 1_555
C7 C8 1_555 1_555
O2D C1D 1_555 1_555
O2E C1E 1_555 1_555
O2JA C1JA 1_555 1_555
O2NA C1NA 1_555 1_555
O2NA Nd2JA 1_555 1_555
O2OA C1OA 1_555 1_555
O2OA Nd2JA 1_555 1_555
C5D C6D 1_555 1_555
C5E C6E 1_555 1_555
C5JA C6JA 1_555 1_555
C5NA C6NA 1_555 1_555
C5OA C6OA 1_555 1_555
C7D C8D 1_555 1_555
C7E C8E 1_555 1_555
C7JA C8JA 1_555 1_555
C7NA C8NA 1_555 1_555
C7OA C8OA 1_555 1_555

#END
