
#######################################################################
#
#                 Cambridge Crystallographic Data Centre
#                                CCDC 
#
#######################################################################
#
# If this CIF has been generated from an entry in the Cambridge 
# Structural Database, then it will include bibliographic, chemical, 
# crystal, experimental, refinement or atomic coordinate data resulting 
# from the CCDC's data processing and validation procedures.
#
#######################################################################

data_LUZJAT
_chemical_formula_moiety         'C24 H22 N2 O23 Zn10'
_symmetry_cell_setting           tetragonal
_symmetry_space_group_name_H-M   'I 4 c m'
_symmetry_Int_Tables_number      108
_space_group_name_Hall           'I 4 -2c'
loop_
_symmetry_equiv_pos_site_id
_symmetry_equiv_pos_as_xyz
1 x,y,z
2 -x,-y,z
3 -y,x,z
4 y,-x,z
5 -x,y,1/2+z
6 x,-y,1/2+z
7 y,x,1/2+z
8 -y,-x,1/2+z
9 1/2+x,1/2+y,1/2+z
10 1/2-x,1/2-y,1/2+z
11 1/2-y,1/2+x,1/2+z
12 1/2+y,1/2-x,1/2+z
13 1/2-x,1/2+y,z
14 1/2+x,1/2-y,z
15 1/2+y,1/2+x,z
16 1/2-y,1/2-x,z
_cell_length_a                   20.5138(10)
_cell_length_b                   20.5138
_cell_length_c                   17.8100(8)
_cell_angle_alpha                90
_cell_angle_beta                 90
_cell_angle_gamma                90
_cell_volume                     7494.73
loop_
_atom_site_label
_atom_site_type_symbol
_atom_site_fract_x
_atom_site_fract_y
_atom_site_fract_z
_atom_site_U_iso_or_equiv
_atom_site_thermal_displace_type
O9 O 0.4303(4) 0.0697(4) 0.2938(8) 0.1563 Uani
H11 H 0.4412 0.0588 0.2501 0.2350 Uiso
H12 H 0.4507 0.0493 0.3272 0.2350 Uiso
Zn1 Zn 0.25748(2) 0.11945(2) 0.33239(3) 0.0281 Uani
Zn2 Zn 0.34369(2) 0.15631(2) 0.47802(3) 0.0249 Uani
O1 O 0.2352(2) 0.1295(2) 0.2269(2) 0.0567 Uani
O2 O 0.3129(3) 0.0562(2) 0.2142(2) 0.0768 Uani
O3 O 0.33707(15) -0.05489(14) -0.0308(2) 0.0398 Uani
O4 O 0.2574(2) -0.03470(17) -0.1157(2) 0.0548 Uani
O5 O 0.17330(19) 0.19184(17) -0.11562(17) 0.0514 Uani
O6 O 0.1603(2) 0.24205(16) -0.00609(19) 0.0506 Uani
O7 O 0.3587(2) 0.1413(2) 0.5910(3) 0.0527 Uani
O8 O 0.33956(14) 0.16044(14) 0.3601(2) 0.0302 Uani
N1 N 0.3341(8) 0.1498(8) 0.7122(5) 0.0813 Uani
C1 C 0.2713(3) 0.0931(3) 0.1873(3) 0.0460 Uani
C2 C 0.2607(2) 0.0932(2) 0.1040(2) 0.0393 Uani
C3 C 0.2836(2) 0.04054(19) 0.0621(2) 0.0347 Uani
H1 H 0.3074 0.0077 0.0854 0.0410 Uiso
C4 C 0.2709(2) 0.03711(19) -0.0148(2) 0.0360 Uani
C5 C 0.2374(2) 0.0875(2) -0.0487(2) 0.0381 Uani
H2 H 0.2289 0.0855 -0.0999 0.0460 Uiso
C6 C 0.2160(2) 0.1412(2) -0.0079(2) 0.0376 Uani
C7 C 0.2267(2) 0.1434(2) 0.0692(2) 0.0377 Uani
H3 H 0.2113 0.1783 0.0974 0.0450 Uiso
C8 C 0.2914(3) -0.0219(2) -0.0576(2) 0.0424 Uani
C9 C 0.1811(2) 0.1965(2) -0.0455(2) 0.0386 Uani
C10 C 0.3237(6) 0.1601(7) 0.6397(5) 0.0630 Uani
H4 H 0.2867 0.1835 0.6260 0.0760 Uiso
C11 C 0.391(2) 0.114(3) 0.7390(10) 0.1510 Uani
H5 H 0.4038 0.1303 0.7871 0.2240 Uiso
H6 H 0.4261 0.1187 0.7040 0.2240 Uiso
H7 H 0.3799 0.0684 0.7435 0.2240 Uiso
C12 C 0.2881(11) 0.1750(11) 0.7667(10) 0.1530 Uani
H8 H 0.2923 0.1513 0.8129 0.2320 Uiso
H9 H 0.2445 0.1701 0.7477 0.2320 Uiso
H10 H 0.2968 0.2203 0.7755 0.2320 Uiso
N1O N 0.3502(8) 0.1659(8) 0.7122(5) 0.0813 Uani
C10O C 0.3399(7) 0.1763(6) 0.6397(5) 0.0630 Uani
H4O H 0.3165 0.2133 0.6260 0.0760 Uiso
C11O C 0.386(3) 0.109(2) 0.7390(10) 0.1510 Uani
H5O H 0.3697 0.0962 0.7871 0.2240 Uiso
H6O H 0.3813 0.0739 0.7040 0.2240 Uiso
H7O H 0.4316 0.1201 0.7435 0.2240 Uiso
C12O C 0.3250(11) 0.2119(11) 0.7667(10) 0.1530 Uani
H8O H 0.3487 0.2077 0.8129 0.2320 Uiso
H9O H 0.3299 0.2555 0.7477 0.2320 Uiso
H10O H 0.2797 0.2032 0.7755 0.2320 Uiso
Zn1O Zn 0.38055(2) 0.24252(2) 0.33239(3) 0.0281 Uani
O1O O 0.3705(2) 0.2648(2) 0.2269(2) 0.0567 Uani
O2O O 0.4438(2) 0.1871(3) 0.2142(2) 0.0768 Uani
O3O O 0.55489(14) 0.16293(15) -0.0308(2) 0.0398 Uani
O4O O 0.53470(17) 0.2426(2) -0.1157(2) 0.0548 Uani
O5O O 0.30816(17) 0.32670(19) -0.11562(17) 0.0514 Uani
O6O O 0.25795(16) 0.3397(2) -0.00609(19) 0.0506 Uani
C1O C 0.4069(3) 0.2287(3) 0.1873(3) 0.0460 Uani
C2O C 0.4068(2) 0.2393(2) 0.1040(2) 0.0393 Uani
C3O C 0.45946(19) 0.2164(2) 0.0621(2) 0.0347 Uani
H1O H 0.4923 0.1926 0.0854 0.0410 Uiso
C4O C 0.46289(19) 0.2291(2) -0.0148(2) 0.0360 Uani
C5O C 0.4125(2) 0.2626(2) -0.0487(2) 0.0381 Uani
H2O H 0.4145 0.2711 -0.0999 0.0460 Uiso
C6O C 0.3588(2) 0.2840(2) -0.0079(2) 0.0376 Uani
C7O C 0.3566(2) 0.2733(2) 0.0692(2) 0.0377 Uani
H3O H 0.3217 0.2887 0.0974 0.0450 Uiso
C8O C 0.5219(2) 0.2086(3) -0.0576(2) 0.0424 Uani
C9O C 0.3035(2) 0.3189(2) -0.0455(2) 0.0386 Uani
Zn1E Zn 0.25748(2) -0.11945(2) -0.16761(3) 0.0281 Uani
Zn1F Zn 0.11945(2) 0.25748(2) -0.16761(3) 0.0281 Uani
Zn1I Zn 0.24252(2) 0.38055(2) -0.16761(3) 0.0281 Uani
Zn1K Zn 0.61945(2) 0.24252(2) -0.16761(3) 0.0281 Uani
Zn2D Zn 0.65631(2) 0.15631(2) -0.02198(3) 0.0249 Uani
Zn2E Zn 0.34369(2) -0.15631(2) -0.02198(3) 0.0249 Uani
Zn2F Zn 0.15631(2) 0.34369(2) -0.02198(3) 0.0249 Uani
O3E O 0.33707(15) 0.05489(14) 0.4692(2) 0.0398 Uani
O3K O 0.44511(14) 0.16293(15) 0.4692(2) 0.0398 Uani
O4E O 0.2574(2) 0.03470(17) 0.3843(2) 0.0548 Uani
O4K O 0.46530(17) 0.2426(2) 0.3843(2) 0.0548 Uani
O5F O 0.19184(17) 0.17330(19) 0.38438(17) 0.0514 Uani
O5I O 0.32670(19) 0.30816(17) 0.38438(17) 0.0514 Uani
O6F O 0.24205(16) 0.1603(2) 0.49391(19) 0.0506 Uani
O6I O 0.3397(2) 0.25795(16) 0.49391(19) 0.0506 Uani
loop_
_atom_site_aniso_label
_atom_site_aniso_U_11
_atom_site_aniso_U_22
_atom_site_aniso_U_33
_atom_site_aniso_U_23
_atom_site_aniso_U_13
_atom_site_aniso_U_12
O9 0.147(7) 0.147(7) 0.175(11) -0.039(5) 0.039(5) 0.038(8)
Zn1 0.0331(3) 0.0365(3) 0.0147(2) 0.0013(2) -0.0022(2) 0.00487(17)
Zn2 0.0292(2) 0.0292(2) 0.0163(3) 0.00153(16) -0.00153(16) 0.0030(2)
O1 0.084(3) 0.066(2) 0.0200(17) -0.0077(14) -0.0113(17) 0.019(2)
O2 0.120(4) 0.075(3) 0.0355(19) -0.0014(19) -0.031(2) 0.042(3)
O3 0.0492(17) 0.0303(14) 0.0398(17) -0.0081(13) -0.0042(14) 0.0095(12)
O4 0.086(3) 0.0450(19) 0.0335(15) -0.0109(15) -0.0152(17) 0.0175(16)
O5 0.085(2) 0.048(2) 0.0211(13) 0.0058(13) -0.0014(15) 0.0306(17)
O6 0.089(3) 0.0310(15) 0.0318(19) 0.0030(12) -0.0020(16) 0.0180(15)
O7 0.068(2) 0.068(2) 0.022(2) 0.0033(16) -0.0033(16) 0.005(3)
O8 0.0366(14) 0.0366(14) 0.0175(19) 0.0004(11) -0.0004(11) -0.0030(16)
N1 0.084(9) 0.115(12) 0.045(5) 0.009(5) 0.007(5) 0.002(8)
C1 0.067(3) 0.050(3) 0.021(2) -0.0069(19) -0.011(2) 0.006(2)
C2 0.058(3) 0.042(2) 0.018(2) -0.0029(17) -0.0073(17) 0.014(2)
C3 0.052(2) 0.0297(19) 0.0224(18) 0.0021(15) -0.0088(17) 0.0072(17)
C4 0.055(2) 0.0316(19) 0.0213(18) -0.0032(16) -0.0017(17) 0.0067(17)
C5 0.065(3) 0.034(2) 0.0152(17) -0.0026(15) -0.0062(17) 0.011(2)
C6 0.055(2) 0.0308(19) 0.027(2) 0.0008(15) -0.0034(17) 0.0104(17)
C7 0.061(3) 0.031(2) 0.021(2) -0.0058(15) -0.0036(18) 0.0114(19)
C8 0.076(3) 0.032(2) 0.0193(17) -0.0005(15) -0.0002(18) 0.009(2)
C9 0.058(3) 0.033(2) 0.0249(19) 0.0003(15) -0.0025(17) 0.0111(18)
C10 0.052(7) 0.081(10) 0.056(5) 0.005(5) -0.007(5) 0.000(7)
C11 0.17(2) 0.19(2) 0.093(10) 0.04(2) -0.03(2) 0.040(14)
C12 0.16(2) 0.23(3) 0.069(10) -0.036(13) 0.034(11) 0.016(18)
N1O 0.115 0.084 0.045 -0.007 -0.009 0.002
C10O 0.081 0.052 0.056 0.007 -0.005 0
C11O 0.19 0.17 0.093 0.03 -0.04 0.04
C12O 0.23 0.16 0.069 -0.034 0.036 0.016
Zn1O 0.0365 0.0331 0.0147 0.0022 -0.0013 0.00487
O1O 0.066 0.084 0.02 0.0113 0.0077 0.019
O2O 0.075 0.12 0.0355 0.031 0.0014 0.042
O3O 0.0303 0.0492 0.0398 0.0042 0.0081 0.0095
O4O 0.045 0.086 0.0335 0.0152 0.0109 0.0175
O5O 0.048 0.085 0.0211 0.0014 -0.0058 0.0306
O6O 0.031 0.089 0.0318 0.002 -0.003 0.018
C1O 0.05 0.067 0.021 0.011 0.0069 0.006
C2O 0.042 0.058 0.018 0.0073 0.0029 0.014
C3O 0.0297 0.052 0.0224 0.0088 -0.0021 0.0072
C4O 0.0316 0.055 0.0213 0.0017 0.0032 0.0067
C5O 0.034 0.065 0.0152 0.0062 0.0026 0.011
C6O 0.0308 0.055 0.027 0.0034 -0.0008 0.0104
C7O 0.031 0.061 0.021 0.0036 0.0058 0.0114
C8O 0.032 0.076 0.0193 0.0002 0.0005 0.009
C9O 0.033 0.058 0.0249 0.0025 -0.0003 0.0111
Zn1E 0.0331 0.0365 0.0147 -0.0013 -0.0022 -0.00487
Zn1F 0.0365 0.0331 0.0147 -0.0022 0.0013 0.00487
Zn1I 0.0331 0.0365 0.0147 -0.0013 0.0022 0.00487
Zn1K 0.0365 0.0331 0.0147 0.0022 0.0013 -0.00487
Zn2D 0.0292 0.0292 0.0163 0.00153 0.00153 -0.003
Zn2E 0.0292 0.0292 0.0163 -0.00153 -0.00153 -0.003
Zn2F 0.0292 0.0292 0.0163 -0.00153 0.00153 0.003
O3E 0.0492 0.0303 0.0398 0.0081 -0.0042 -0.0095
O3K 0.0303 0.0492 0.0398 0.0042 -0.0081 -0.0095
O4E 0.086 0.045 0.0335 0.0109 -0.0152 -0.0175
O4K 0.045 0.086 0.0335 0.0152 -0.0109 -0.0175
O5F 0.048 0.085 0.0211 -0.0014 0.0058 0.0306
O5I 0.085 0.048 0.0211 -0.0058 0.0014 0.0306
O6F 0.031 0.089 0.0318 -0.002 0.003 0.018
O6I 0.089 0.031 0.0318 -0.003 0.002 0.018
loop_
_geom_bond_atom_site_label_1
_geom_bond_atom_site_label_2
_geom_bond_site_symmetry_1
_geom_bond_site_symmetry_2
Zn1 O1 1_555 1_555
Zn2 O7 1_555 1_555
O1 C1 1_555 1_555
O2 C1 1_555 1_555
O3 C8 1_555 1_555
O4 C8 1_555 1_555
O5 C9 1_555 1_555
O6 C9 1_555 1_555
O7 C10 1_555 1_555
O8 Zn1 1_555 1_555
N1 C10 1_555 1_555
C1 C2 1_555 1_555
C2 C3 1_555 1_555
C3 H1 1_555 1_555
C4 C3 1_555 1_555
C5 C4 1_555 1_555
H2 C5 1_555 1_555
C6 C5 1_555 1_555
C7 C2 1_555 1_555
H3 C7 1_555 1_555
C8 C4 1_555 1_555
C9 C6 1_555 1_555
C10 H4 1_555 1_555
H4 C10O 1_555 1_555
C11 N1 1_555 1_555
H5 C11 1_555 1_555
H6 C11 1_555 1_555
H7 C11 1_555 1_555
C12 N1 1_555 1_555
H8 C12 1_555 1_555
H9 C12 1_555 1_555
H10 C12 1_555 1_555
O9 H11 1_555 1_555
H12 O9 1_555 1_555
N1O C10 1_555 1_555
C10O O7 1_555 1_555
H4O C10 1_555 1_555
C11O N1 1_555 1_555
H5O C11 1_555 1_555
H6O C11 1_555 1_555
H7O C11 1_555 1_555
C12O N1 1_555 1_555
H8O C12O 1_555 1_555
H9O C12O 1_555 1_555
H10O C12 1_555 1_555
Zn1O O8 1_555 1_555
O1O Zn1O 1_555 1_555
O2O C1O 1_555 1_555
O3O C8O 1_555 1_555
O4O C8O 1_555 1_555
O5O C9O 1_555 1_555
O6O C9O 1_555 1_555
C1O O1O 1_555 1_555
C2O C1O 1_555 1_555
C3O C2O 1_555 1_555
H1O C3O 1_555 1_555
C4O C3O 1_555 1_555
C5O C4O 1_555 1_555
H2O C5O 1_555 1_555
C6O C5O 1_555 1_555
C7O C2O 1_555 1_555
H3O C7O 1_555 1_555
C8O C4O 1_555 1_555
C9O C6O 1_555 1_555
Zn1E O4 1_555 1_555
Zn1F O5 1_555 1_555
Zn1I O5O 1_555 1_555
Zn1K O4O 1_555 1_555
Zn2D O3O 1_555 1_555
Zn2E O3 1_555 1_555
Zn2F O6 1_555 1_555
O3E Zn2 1_555 1_555
O3K Zn2 1_555 1_555
O4E Zn1 1_555 1_555
O4K Zn1O 1_555 1_555
O5F Zn1 1_555 1_555
O5I Zn1O 1_555 1_555
O6F Zn2 1_555 1_555
O6I Zn2 1_555 1_555
Zn2 O8 1_555 1_555
N1 C10O 1_555 1_555
C6 C7 1_555 1_555
C11 N1O 1_555 1_555
H5 C11O 1_555 1_555
H6 C11O 1_555 1_555
H7 C11O 1_555 1_555
C12 N1O 1_555 1_555
C12 C12O 1_555 1_555
H10 C12O 1_555 1_555
N1O C10O 1_555 1_555
N1O C11O 1_555 1_555
N1O C12O 1_555 1_555
C10O H4O 1_555 1_555
C11O H5O 1_555 1_555
C11O H6O 1_555 1_555
C11O H7O 1_555 1_555
C12O H10O 1_555 1_555
O6O Zn2F 1_555 1_555
C6O C7O 1_555 1_555

#END
