
#######################################################################
#
#                 Cambridge Crystallographic Data Centre
#                                CCDC 
#
#######################################################################
#
# If this CIF has been generated from an entry in the Cambridge 
# Structural Database, then it will include bibliographic, chemical, 
# crystal, experimental, refinement or atomic coordinate data resulting 
# from the CCDC's data processing and validation procedures.
#
#######################################################################

data_GAZLAW
_chemical_formula_moiety         '(C27 H53 Co1 Na1 O22)n'
_symmetry_cell_setting           orthorhombic
_symmetry_space_group_name_H-M   'P 21 21 21'
_symmetry_Int_Tables_number      19
_space_group_name_Hall           'P 2ac 2ab'
loop_
_symmetry_equiv_pos_site_id
_symmetry_equiv_pos_as_xyz
1 x,y,z
2 1/2-x,-y,1/2+z
3 -x,1/2+y,1/2-z
4 1/2+x,1/2-y,-z
_cell_length_a                   14.9414(8)
_cell_length_b                   15.9918(9)
_cell_length_c                   16.0381(9)
_cell_angle_alpha                90
_cell_angle_beta                 90
_cell_angle_gamma                90
_cell_volume                     3832.14
loop_
_atom_site_label
_atom_site_type_symbol
_atom_site_fract_x
_atom_site_fract_y
_atom_site_fract_z
O1 O 0.73188(14) 0.09589(12) 0.35551(13)
O2 O 0.60412(11) -0.36184(12) -0.24343(13)
O3 O 0.08732(10) 0.23993(12) -0.07073(11)
O4 O 0.40565(10) 0.26372(10) 0.05233(11)
H1 H 0.4089 0.3133 0.0399
C1 C 0.36885(13) 0.12356(15) 0.00075(14)
H2 H 0.3552 0.0936 -0.0510
C2 C 0.37653(13) 0.21662(15) -0.01865(15)
H3 H 0.4202 0.2241 -0.0637
C3 C 0.20699(14) 0.14226(15) 0.03583(15)
H4 H 0.1874 0.1145 -0.0147
H5 H 0.1623 0.1323 0.0785
C4 C 0.29616(15) 0.10490(14) 0.06380(15)
H6 H 0.3130 0.1291 0.1177
C5 C 0.47742(14) -0.11487(13) -0.14062(15)
H7 H 0.5368 -0.1176 -0.1148
C6 C 0.53314(15) -0.19427(15) -0.26460(16)
H8 H 0.5930 -0.1974 -0.2414
H9 H 0.5383 -0.1935 -0.3249
C7 C 0.42327(15) -0.19032(15) -0.11246(14)
H10 H 0.3624 -0.1861 -0.1349
C8 C 0.63310(15) -0.01781(15) 0.10229(14)
H11 H 0.6095 0.0394 0.1025
C9 C 0.48851(15) -0.11487(15) -0.23550(15)
H12 H 0.5252 -0.0669 -0.2520
C10 C 0.62636(15) -0.02406(17) 0.25820(15)
H13 H 0.6017 0.0319 0.2621
H14 H 0.6039 -0.0562 0.3050
C11 C 0.59525(15) -0.06452(16) 0.17692(14)
H15 H 0.6151 -0.1229 0.1753
C12 C 0.76551(15) 0.02687(16) 0.18745(15)
H16 H 0.7454 0.0845 0.1885
H17 H 0.8304 0.0269 0.1901
C13 C 0.46598(15) -0.27135(15) -0.14261(16)
H18 H 0.4282 -0.3181 -0.1269
H19 H 0.5235 -0.2785 -0.1155
O5 O 0.45026(10) 0.09150(11) 0.03428(11)
O6 O 0.60320(11) -0.05906(11) 0.02874(11)
O7 O 0.40398(11) -0.11070(11) -0.27785(10)
H20 H 0.3777 -0.0679 -0.2641
O8 O 0.77501(10) -0.09592(11) 0.10683(11)
H21 H 0.7605 -0.1209 0.0643
O9 O 0.41967(13) -0.18812(12) -0.02267(11)
O10 O 0.49901(11) -0.06131(13) 0.17027(12)
O11 O 0.43364(10) -0.04147(11) -0.11275(10)
O12 O 0.29120(11) 0.01583(11) 0.07182(13)
C14 C 0.28634(14) 0.25272(15) -0.04705(15)
H22 H 0.2688 0.2273 -0.0995
H23 H 0.2920 0.3125 -0.0557
C15 C 0.73542(15) -0.01408(16) 0.10655(15)
H24 H 0.7584 0.0180 0.0590
Na1 Na 0.43793(6) -0.05301(6) 0.03770(6)
H25 H 0.3893(18) -0.2178(18) -0.0063(18)
H26 H 0.6281(19) -0.0382(19) -0.0042(18)
H27 H 0.2784(18) 0.0031(18) 0.1168(18)
H28 H 0.765(2) -0.120(2) 0.219(2)
H29 H 0.3745(18) -0.2186(12) -0.2781(18)
H30 H 0.2890(13) 0.276(2) 0.108(2)
H31 H 0.481(2) -0.086(2) 0.205(2)
H32 H 0.4585(15) 0.0015(12) -0.1313(15)
H33 H 0.4997(13) 0.1123(16) 0.0132(16)
Co1 Co 0.855790(19) -0.13324(2) 0.354890(19)
O13 O 0.81476(10) -0.01522(11) 0.39059(10)
O14 O 0.23644(10) 0.27855(11) 0.09577(10)
O15 O 0.48170(10) -0.40339(10) -0.31139(10)
O16 O 0.76323(11) -0.10414(11) 0.26588(12)
O17 O 0.39216(10) -0.27007(11) -0.27655(11)
O18 O 0.09101(10) 0.33078(10) 0.03343(11)
C16 C 0.75982(16) 0.02400(16) 0.34366(16)
C17 C 0.12407(14) 0.27098(16) -0.00931(15)
C18 C 0.21423(14) 0.23532(15) 0.01981(15)
C19 C 0.52570(15) -0.35214(15) -0.26583(16)
C20 C 0.47932(14) -0.27174(15) -0.23757(16)
C21 C 0.72796(15) -0.01940(15) 0.26327(15)
H29C H 0.8745(18) -0.2814(12) 0.2781(18)
H30B H 0.7110(13) -0.224(2) 0.392(2)
Co1B Co 0.144210(19) 0.36676(2) 0.145110(19)
Co1C Co 0.355790(19) -0.36676(2) -0.354890(19)
O14B O 0.76356(10) -0.22145(11) 0.40423(10)
O15C O 0.98170(10) -0.09661(10) 0.31139(10)
O17C O 0.89216(10) -0.22993(11) 0.27655(11)
O18B O 0.90899(10) -0.16922(10) 0.46657(11)
O19 O 0.21747(11) 0.98785(11) 0.23307(11)
H34 H 0.1796 0.9514 0.2400
C22 C 0.27382(17) 0.99240(19) 0.30502(18)
H35 H 0.3032 0.9391 0.3143
H36 H 0.2386 1.0059 0.3540
C23 C 0.3424(2) 1.0597(2) 0.2895(2)
H37 H 0.3813 1.0641 0.3370
H38 H 0.3127 1.1121 0.2806
H39 H 0.3771 1.0456 0.2411
O20 O 0.27333(11) 0.70751(11) 0.02233(11)
H40 H 0.2770 0.6712 0.0583
C24 C 0.1929(2) 0.7543(2) 0.0343(3)
H41 H 0.1423 0.7164 0.0344
H42 H 0.1951 0.7818 0.0881
C25 C 0.1808(3) 0.8150(3) -0.0288(4)
H43 H 0.1258 0.8446 -0.0192
H44 H 0.1784 0.7880 -0.0822
H45 H 0.2298 0.8538 -0.0278
O21 O 0.08688(15) 0.17399(14) -0.22803(13)
H46 H 0.0528 0.1424 -0.2528
C26 C 0.1084(3) 0.2417(3) -0.2795(2)
H47 H 0.1356 0.2209 -0.3303
H48 H 0.1520 0.2767 -0.2514
C27 C 0.0311(3) 0.2919(3) -0.3008(4)
H49 H 0.0495 0.3385 -0.3344
H50 H 0.0033 0.3120 -0.2507
H51 H -0.0109 0.2584 -0.3314
O22 O 0.6106(4) 0.9393(4) 0.4701(4)
loop_
_geom_bond_atom_site_label_1
_geom_bond_atom_site_label_2
_geom_bond_site_symmetry_1
_geom_bond_site_symmetry_2
O1 C16 1_555 1_555
O2 C19 1_555 1_555
O3 C17 1_555 1_555
O4 H1 1_555 1_555
C1 H2 1_555 1_555
C2 O4 1_555 1_555
H3 C2 1_555 1_555
C3 H4 1_555 1_555
H5 C3 1_555 1_555
C4 C1 1_555 1_555
H6 C4 1_555 1_555
C5 H7 1_555 1_555
C6 H8 1_555 1_555
H9 C6 1_555 1_555
C7 C5 1_555 1_555
H10 C7 1_555 1_555
C8 H11 1_555 1_555
C9 C5 1_555 1_555
H12 C9 1_555 1_555
C10 H13 1_555 1_555
H14 C10 1_555 1_555
C11 C8 1_555 1_555
H15 C11 1_555 1_555
C12 H16 1_555 1_555
H17 C12 1_555 1_555
C13 C7 1_555 1_555
H18 C13 1_555 1_555
H19 C13 1_555 1_555
O5 C1 1_555 1_555
O6 C8 1_555 1_555
O7 C9 1_555 1_555
H20 O7 1_555 1_555
O8 H21 1_555 1_555
O9 C7 1_555 1_555
O10 C11 1_555 1_555
O11 C5 1_555 1_555
O12 C4 1_555 1_555
C14 C2 1_555 1_555
H22 C14 1_555 1_555
H23 C14 1_555 1_555
C15 C8 1_555 1_555
H24 C15 1_555 1_555
Na1 O5 1_555 1_555
H25 O9 1_555 1_555
H26 O6 1_555 1_555
H27 O12 1_555 1_555
H28 O16 1_555 1_555
H29 O17 1_555 1_555
H30 O14 1_555 1_555
H31 O10 1_555 1_555
H32 O11 1_555 1_555
H33 O5 1_555 1_555
Co1 O13 1_555 1_555
O13 C16 1_555 1_555
O14 C18 1_555 1_555
O15 C19 1_555 1_555
O16 Co1 1_555 1_555
O17 C20 1_555 1_555
O18 C17 1_555 1_555
C16 C21 1_555 1_555
C17 C18 1_555 1_555
C18 C3 1_555 1_555
C19 C20 1_555 1_555
C20 C6 1_555 1_555
C21 C10 1_555 1_555
O19 H34 1_555 1_555
C22 O19 1_555 1_555
H35 C22 1_555 1_555
H36 C22 1_555 1_555
C23 C22 1_555 1_555
H37 C23 1_555 1_555
H38 C23 1_555 1_555
H39 C23 1_555 1_555
O20 H40 1_555 1_555
C24 O20 1_555 1_555
H41 C24 1_555 1_555
H42 C24 1_555 1_555
C25 C24 1_555 1_555
H43 C25 1_555 1_555
H44 C25 1_555 1_555
H45 C25 1_555 1_555
O21 H46 1_555 1_555
C26 O21 1_555 1_555
H47 C26 1_555 1_555
H48 C26 1_555 1_555
C27 C26 1_555 1_555
H49 C27 1_555 1_555
H50 C27 1_555 1_555
H51 C27 1_555 1_555
H29C O17C 1_555 1_555
H30B O14B 1_555 1_555
Co1B O14 1_555 1_555
Co1C O15 1_555 1_555
O14B Co1 1_555 1_555
O15C Co1 1_555 1_555
O17C Co1 1_555 1_555
O18B Co1 1_555 1_555
C1 C2 1_555 1_555
C3 C4 1_555 1_555
C6 C9 1_555 1_555
C10 C11 1_555 1_555
C12 C15 1_555 1_555
C12 C21 1_555 1_555
C13 C20 1_555 1_555
O6 Na1 1_555 1_555
O8 C15 1_555 1_555
O9 Na1 1_555 1_555
O10 Na1 1_555 1_555
O11 Na1 1_555 1_555
O12 Na1 1_555 1_555
C14 C18 1_555 1_555
O16 C21 1_555 1_555
O17 Co1C 1_555 1_555
O18 Co1B 1_555 1_555

#END
