
#######################################################################
#
#                 Cambridge Crystallographic Data Centre
#                                CCDC 
#
#######################################################################
#
# If this CIF has been generated from an entry in the Cambridge 
# Structural Database, then it will include bibliographic, chemical, 
# crystal, experimental, refinement or atomic coordinate data resulting 
# from the CCDC's data processing and validation procedures.
#
#######################################################################

data_MIHHOA
_chemical_formula_moiety         '(C42 H52 Cd1 N4 O9)n'
_symmetry_cell_setting           orthorhombic
_symmetry_space_group_name_H-M   'P 21 21 21'
_symmetry_Int_Tables_number      19
_space_group_name_Hall           'P 2ac 2ab'
loop_
_symmetry_equiv_pos_site_id
_symmetry_equiv_pos_as_xyz
1 x,y,z
2 1/2-x,-y,1/2+z
3 -x,1/2+y,1/2-z
4 1/2+x,1/2-y,-z
_cell_length_a                   13.7818(9)
_cell_length_b                   15.0617(10)
_cell_length_c                   19.3555(13)
_cell_angle_alpha                90
_cell_angle_beta                 90
_cell_angle_gamma                90
_cell_volume                     4017.76
loop_
_atom_site_label
_atom_site_type_symbol
_atom_site_fract_x
_atom_site_fract_y
_atom_site_fract_z
_atom_site_U_iso_or_equiv
_atom_site_thermal_displace_type
Cd1 Cd 0.302315(18) 0.139032(17) 0.966301(13) 0.0361 Uani
O1 O 0.1988(2) 0.04906(16) 1.13345(12) 0.0475 Uani
H1 H 0.2440 0.0349 1.1082 0.0710 Uiso
C1 C 0.3171(3) 0.1374(3) 0.73545(17) 0.0478 Uani
H2 H 0.3339 0.0916 0.7055 0.0570 Uiso
O2 O 0.3946(2) 0.1989(2) 0.60840(14) 0.0576 Uani
H3 H 0.4004 0.2067 0.5667 0.0860 Uiso
N1 N 0.2918(2) 0.18230(19) 0.85177(14) 0.0393 Uani
C2 C 0.1732(2) 0.1395(3) 1.12081(16) 0.0369 Uani
H4 H 0.2318 0.1730 1.1088 0.0440 Uiso
C3 C 0.0988(2) 0.1480(2) 1.06189(16) 0.0341 Uani
H5 H 0.0846 0.2116 1.0576 0.0410 Uiso
C4 C 0.2955(3) 0.2198(2) 0.70914(17) 0.0415 Uani
C5 C 0.0729(3) 0.2986(3) 1.2586(2) 0.0470 Uani
C6 C -0.0344(3) 0.1491(3) 0.95465(18) 0.0424 Uani
H6 H -0.0639 0.1283 0.9115 0.0510 Uiso
C7 C 0.2675(3) 0.2655(2) 0.82817(19) 0.0392 Uani
N2 N 0.0437(3) 0.2409(3) 1.30977(17) 0.0551 Uani
C8 C 0.1300(3) 0.1774(2) 1.18605(18) 0.0389 Uani
C9 C 0.1154(3) 0.2705(3) 1.19493(19) 0.0409 Uani
C10 C 0.1017(3) 0.1212(3) 1.23849(18) 0.0479 Uani
H7 H 0.1111 0.0603 1.2340 0.0580 Uiso
C11 C 0.0593(3) 0.1550(3) 1.2981(2) 0.0548 Uani
H8 H 0.0406 0.1149 1.3321 0.0660 Uiso
C12 C -0.0435(3) 0.0742(3) 1.0080(2) 0.0470 Uani
H9 H -0.1117 0.0576 1.0142 0.0560 Uiso
N3 N 0.1360(2) 0.11881(18) 0.99263(14) 0.0359 Uani
C13 C 0.1402(3) 0.3355(3) 1.1459(2) 0.0463 Uani
H10 H 0.1687 0.3185 1.1044 0.0550 Uiso
C14 C 0.0604(4) 0.3898(3) 1.2713(2) 0.0620 Uani
H11 H 0.0362 0.4087 1.3137 0.0740 Uiso
C15 C 0.0141(3) -0.0037(3) 0.9819(3) 0.0583 Uani
H12 H -0.0044 -0.0175 0.9348 0.0700 Uiso
H13 H 0.0018 -0.0554 1.0104 0.0700 Uiso
C16 C 0.1218(2) 0.02109(18) 0.98496(13) 0.0487 Uani
H14 H 0.1519 -0.0091 1.0237 0.0580 Uiso
H15 H 0.1535 0.0011 0.9430 0.0580 Uiso
C17 C 0.3067(2) 0.23413(18) 0.63049(13) 0.0466 Uani
H16 H 0.3042 0.2977 0.6199 0.0560 Uiso
C18 C 0.1232(3) 0.4225(3) 1.1582(2) 0.0567 Uani
C19 C 0.2662(3) 0.2865(2) 0.75658(19) 0.0394 Uani
C20 C 0.0010(3) 0.1023(3) 1.0770(2) 0.0470 Uani
H17 H 0.0109 0.0508 1.1062 0.0560 Uiso
H18 H -0.0422 0.1431 1.1008 0.0560 Uiso
C21 C 0.3143(3) 0.1214(2) 0.80584(19) 0.0472 Uani
H19 H 0.3291 0.0647 0.8214 0.0570 Uiso
C22 C 0.2147(4) 0.4124(3) 0.8553(2) 0.0597 Uani
H20 H 0.1992 0.4551 0.8882 0.0720 Uiso
C23 C 0.2356(3) 0.3721(3) 0.7372(2) 0.0527 Uani
H21 H 0.2337 0.3870 0.6905 0.0630 Uiso
O3 O 0.1404(3) 0.4902(2) 1.11312(19) 0.0712 Uani
C24 C 0.0835(4) 0.4502(3) 1.2222(3) 0.0640 Uani
H22 H 0.0733 0.5102 1.2306 0.0770 Uiso
C25 C 0.2424(3) 0.3314(3) 0.8759(2) 0.0463 Uani
H23 H 0.2450 0.3187 0.9229 0.0560 Uiso
O4 O 0.1750(4) 0.5138(2) 0.7680(3) 0.1157 Uani
C26 C 0.2087(4) 0.4337(3) 0.7853(2) 0.0617 Uani
C27 C 0.0736(3) 0.1643(2) 0.94100(18) 0.0402 Uani
H24 H 0.0896 0.1426 0.8952 0.0480 Uiso
H25 H 0.0870 0.2275 0.9421 0.0480 Uiso
C28 C -0.0912(3) 0.2300(3) 0.97898(17) 0.0403 Uani
O5 O -0.18162(18) 0.22859(17) 0.97292(13) 0.0453 Uani
O6 O -0.0483(2) 0.29243(19) 1.00786(15) 0.0533 Uani
C29 C 0.1637(5) 0.4664(4) 1.0459(3) 0.0920 Uani
H26 H 0.1739 0.5190 1.0188 0.1380 Uiso
H27 H 0.1115 0.4325 1.0263 0.1380 Uiso
H28 H 0.2218 0.4313 1.0460 0.1380 Uiso
C31 C 0.1386(8) 0.5374(6) 0.7096(4) 0.1463 Uani
H30 H 0.1204 0.5989 0.7116 0.2190 Uiso
H31 H 0.0824 0.5019 0.6999 0.2190 Uiso
H32 H 0.1860 0.5290 0.6738 0.2190 Uiso
C35 C 0.2285(3) 0.1855(3) 0.58987(18) 0.0424 Uani
H42 H 0.2343 0.1225 0.6019 0.0510 Uiso
C36 C 0.2472(3) 0.1923(3) 0.51202(19) 0.0490 Uani
H43 H 0.2820 0.2467 0.5016 0.0590 Uiso
H44 H 0.2859 0.1424 0.4965 0.0590 Uiso
N4 N 0.1286(3) 0.2119(2) 0.60651(18) 0.0537 Uani
C37 C 0.0642(3) 0.1418(3) 0.5807(2) 0.0590 Uani
H45 H -0.0026 0.1611 0.5852 0.0710 Uiso
H46 H 0.0724 0.0891 0.6088 0.0710 Uiso
C38 C 0.1054(4) 0.2952(3) 0.5691(2) 0.0673 Uani
H47 H 0.1551 0.3391 0.5788 0.0810 Uiso
H48 H 0.0439 0.3183 0.5856 0.0810 Uiso
C39 C 0.0993(4) 0.2802(3) 0.4913(2) 0.0710 Uani
H49 H 0.0320 0.2787 0.4766 0.0850 Uiso
H50 H 0.1319 0.3279 0.4669 0.0850 Uiso
C40 C 0.1481(3) 0.1922(3) 0.4756(2) 0.0557 Uani
H51 H 0.1563 0.1846 0.4256 0.0670 Uiso
C41 C 0.0844(3) 0.1185(3) 0.5053(2) 0.0533 Uani
H52 H 0.0222 0.1204 0.4807 0.0640 Uiso
C42 C 0.1284(3) 0.0260(3) 0.4932(2) 0.0450 Uani
O8 O 0.1518(2) -0.02162(19) 0.54352(15) 0.0542 Uani
O9 O 0.1393(3) 0.00037(19) 0.43235(16) 0.0596 Uani
O5C O 0.31838(18) 0.27141(17) 1.02708(13) 0.0453 Uani
O6C O 0.4517(2) 0.20757(19) 0.99214(15) 0.0533 Uani
O8A O 0.3482(2) 0.02162(19) 1.04352(15) 0.0542 Uani
O9A O 0.3607(3) -0.00037(19) 0.93235(16) 0.0596 Uani
Cd1C Cd -0.197685(18) 0.360968(17) 1.033699(13) 0.0361 Uani
Cd1A Cd 0.197685(18) -0.139032(17) 0.466301(13) 0.0361 Uani
C30 C 0.5410(11) -0.3158(8) 1.2440(8) 0.1850 Uani
H29 H 0.4947 -0.3601 1.2269 0.2220 Uiso
C32 C 0.5512(9) -0.3284(10) 1.3165(5) 0.2340 Uani
H33 H 0.4887 -0.3244 1.3382 0.3540 Uiso
H34 H 0.5932 -0.2835 1.3350 0.3540 Uiso
H35 H 0.5787 -0.3859 1.3253 0.3540 Uiso
C33 C 0.6345(10) -0.3180(14) 1.1944(8) 0.2777 Uani
H36 H 0.6893 -0.2845 1.2120 0.3340 Uiso
H37 H 0.6206 -0.3021 1.1468 0.3340 Uiso
O7 O 0.4867(8) -0.2195(7) 1.2442(6) 0.2437 Uani
H38 H 0.4397 -0.2213 1.2701 0.3660 Uiso
C34 C 0.6430(15) -0.4254(12) 1.2074(10) 0.3833 Uani
H39 H 0.6973 -0.4484 1.1820 0.5770 Uiso
H40 H 0.5846 -0.4539 1.1919 0.5770 Uiso
H41 H 0.6521 -0.4367 1.2557 0.5770 Uiso
loop_
_atom_site_aniso_label
_atom_site_aniso_U_11
_atom_site_aniso_U_22
_atom_site_aniso_U_33
_atom_site_aniso_U_23
_atom_site_aniso_U_13
_atom_site_aniso_U_12
Cd1 0.03834(12) 0.03602(12) 0.03393(12) 0.00135(12) 0.00265(11) -0.00044(12)
O1 0.0569(16) 0.0421(14) 0.0434(13) 0.0076(11) 0.0094(14) 0.0167(14)
C1 0.067(3) 0.0424(19) 0.0339(17) -0.0069(17) 0.0016(17) 0.005(2)
O2 0.0525(18) 0.087(2) 0.0332(14) -0.0071(15) 0.0022(13) -0.0045(16)
N1 0.0481(19) 0.0384(15) 0.0314(14) 0.0013(12) -0.0011(14) 0.0039(15)
C2 0.0401(19) 0.0363(17) 0.0344(16) 0.0033(16) 0.0076(13) 0.0006(17)
C3 0.0344(17) 0.0310(17) 0.0370(16) -0.0007(15) 0.0061(13) 0.0012(15)
C4 0.049(2) 0.0418(19) 0.0337(17) 0.0020(15) -0.0080(17) -0.0041(19)
C5 0.042(2) 0.058(3) 0.041(2) -0.0102(19) 0.0011(17) 0.0003(19)
C6 0.0393(19) 0.045(2) 0.043(2) -0.0100(18) -0.0065(15) 0.0011(16)
C7 0.0365(19) 0.042(2) 0.0391(19) 0.0014(16) -0.0004(15) -0.0017(16)
N2 0.054(2) 0.070(3) 0.0414(19) -0.0029(18) 0.0098(16) 0.0079(19)
C8 0.039(2) 0.046(2) 0.0317(18) 0.0008(15) -0.0025(15) 0.0030(16)
C9 0.038(2) 0.049(2) 0.0358(19) -0.0075(17) 0.0005(15) -0.0001(17)
C10 0.060(2) 0.049(3) 0.0348(18) -0.0002(17) 0.0033(17) 0.003(2)
C11 0.062(3) 0.069(3) 0.0334(19) 0.006(2) 0.0066(17) 0.003(2)
C12 0.035(2) 0.039(2) 0.067(3) -0.0043(19) 0.0010(18) -0.0069(17)
N3 0.0373(16) 0.0323(17) 0.0381(15) -0.0058(12) 0.0031(12) -0.0011(12)
C13 0.052(2) 0.043(2) 0.044(2) -0.0116(17) 0.0060(18) 0.0019(17)
C14 0.064(3) 0.062(3) 0.060(3) -0.015(2) 0.015(2) 0.006(2)
C15 0.056(3) 0.039(2) 0.080(4) -0.007(2) -0.006(2) -0.0049(19)
C16 0.048(2) 0.036(2) 0.062(3) -0.0109(17) 0.0016(18) 0.0063(17)
C17 0.064(3) 0.046(2) 0.0298(17) -0.0009(15) -0.0036(19) 0.000(2)
C18 0.058(3) 0.047(2) 0.065(3) -0.004(2) 0.007(2) -0.009(2)
C19 0.044(2) 0.038(2) 0.0361(19) 0.0033(15) -0.0066(15) -0.0031(16)
C20 0.037(2) 0.050(2) 0.054(2) 0.0129(18) 0.0076(17) 0.0001(17)
C21 0.059(2) 0.040(2) 0.0425(19) 0.0021(16) -0.0023(18) 0.0104(19)
C22 0.078(3) 0.049(2) 0.052(2) -0.012(2) 0.004(2) 0.005(2)
C23 0.073(3) 0.045(2) 0.040(2) 0.0088(18) -0.0112(18) 0.000(2)
O3 0.094(3) 0.0407(17) 0.079(2) -0.0007(16) 0.022(2) -0.0011(16)
C24 0.070(3) 0.044(3) 0.078(3) -0.023(2) 0.012(3) 0.001(2)
C25 0.060(3) 0.043(2) 0.036(2) 0.0007(16) 0.0012(17) 0.0021(18)
O4 0.178(5) 0.056(2) 0.113(3) 0.011(2) -0.061(4) 0.026(3)
C26 0.088(4) 0.039(2) 0.058(3) 0.0040(19) -0.006(3) 0.012(2)
C27 0.045(2) 0.041(2) 0.0345(17) -0.0029(15) 0.0008(15) 0.0038(16)
C28 0.045(2) 0.044(2) 0.032(2) -0.0003(16) -0.0028(16) 0.0058(17)
O5 0.0365(15) 0.0553(15) 0.0442(14) -0.0011(12) -0.0041(13) 0.0078(11)
O6 0.0474(16) 0.0463(17) 0.0661(18) -0.0155(14) -0.0062(14) 0.0063(13)
C29 0.144(6) 0.058(3) 0.074(4) 0.015(3) 0.031(4) 0.004(3)
C31 0.174(9) 0.132(7) 0.133(7) 0.012(6) 0.011(7) 0.007(7)
C35 0.054(2) 0.039(2) 0.0343(19) -0.0014(16) -0.0074(16) 0.0077(17)
C36 0.063(3) 0.042(2) 0.042(2) -0.0024(17) -0.0073(18) 0.0073(19)
N4 0.060(2) 0.053(2) 0.048(2) -0.0122(17) -0.0086(17) 0.0169(18)
C37 0.045(2) 0.065(3) 0.067(3) -0.014(3) -0.0034(19) 0.019(2)
C38 0.080(4) 0.049(3) 0.073(3) -0.013(2) -0.019(3) 0.033(2)
C39 0.098(4) 0.054(3) 0.061(3) -0.004(2) -0.027(3) 0.028(3)
C40 0.083(3) 0.042(2) 0.042(2) -0.0057(19) -0.023(2) 0.017(2)
C41 0.051(2) 0.050(3) 0.059(2) -0.0175(19) -0.020(2) 0.0189(19)
C42 0.042(2) 0.038(2) 0.055(2) -0.0067(19) -0.0078(18) 0.0064(17)
O8 0.0576(17) 0.0534(17) 0.0516(18) -0.0009(14) -0.0081(15) 0.0090(13)
O9 0.082(2) 0.0461(17) 0.0506(18) -0.0094(14) -0.0043(16) 0.0159(15)
O5C 0.0365 0.0553 0.0442 -0.0011 0.0041 -0.0078
O6C 0.0474 0.0463 0.0661 -0.0155 0.0062 -0.0063
O8A 0.0576 0.0534 0.0516 0.0009 0.0081 0.009
O9A 0.082 0.0461 0.0506 0.0094 0.0043 0.0159
Cd1C 0.03834 0.03602 0.03393 0.00135 -0.00265 0.00044
Cd1A 0.03834 0.03602 0.03393 -0.00135 -0.00265 -0.00044
C30 0.181(13) 0.156(10) 0.218(14) -0.019(10) -0.039(11) 0.000(9)
C32 0.183(11) 0.40(2) 0.119(8) 0.013(11) -0.046(8) 0.017(14)
C33 0.139(11) 0.51(4) 0.184(13) 0.051(19) -0.046(10) -0.006(17)
O7 0.204(9) 0.270(10) 0.257(10) 0.019(8) -0.034(7) -0.084(9)
C34 0.40(3) 0.38(3) 0.37(3) -0.24(3) -0.18(2) 0.21(3)
loop_
_geom_bond_atom_site_label_1
_geom_bond_atom_site_label_2
_geom_bond_site_symmetry_1
_geom_bond_site_symmetry_2
Cd1 N1 1_555 1_555
O1 H1 1_555 1_555
C1 H2 1_555 1_555
O2 H3 1_555 1_555
N1 C7 1_555 1_555
C2 O1 1_555 1_555
H4 C2 1_555 1_555
C3 C2 1_555 1_555
H5 C3 1_555 1_555
C4 C1 1_555 1_555
C5 N2 1_555 1_555
C6 H6 1_555 1_555
C7 C19 1_555 1_555
N2 C11 1_555 1_555
C8 C2 1_555 1_555
C9 C5 1_555 1_555
C10 C8 1_555 1_555
H7 C10 1_555 1_555
C11 C10 1_555 1_555
H8 C11 1_555 1_555
C12 C6 1_555 1_555
H9 C12 1_555 1_555
N3 Cd1 1_555 1_555
C13 C9 1_555 1_555
H10 C13 1_555 1_555
C14 C5 1_555 1_555
H11 C14 1_555 1_555
C15 C12 1_555 1_555
H12 C15 1_555 1_555
H13 C15 1_555 1_555
C16 N3 1_555 1_555
H14 C16 1_555 1_555
H15 C16 1_555 1_555
C17 O2 1_555 1_555
H16 C17 1_555 1_555
C18 C13 1_555 1_555
C19 C4 1_555 1_555
C20 C3 1_555 1_555
H17 C20 1_555 1_555
H18 C20 1_555 1_555
C21 C1 1_555 1_555
H19 C21 1_555 1_555
C22 H20 1_555 1_555
C23 C19 1_555 1_555
H21 C23 1_555 1_555
O3 C18 1_555 1_555
C24 C14 1_555 1_555
H22 C24 1_555 1_555
C25 C7 1_555 1_555
H23 C25 1_555 1_555
O4 C26 1_555 1_555
C26 C22 1_555 1_555
C27 C6 1_555 1_555
H24 C27 1_555 1_555
H25 C27 1_555 1_555
C28 C6 1_555 1_555
O5 C28 1_555 1_555
O6 C28 1_555 1_555
C29 O3 1_555 1_555
H26 C29 1_555 1_555
H27 C29 1_555 1_555
H28 C29 1_555 1_555
C30 H29 1_555 1_555
C31 O4 1_555 1_555
H30 C31 1_555 1_555
H31 C31 1_555 1_555
H32 C31 1_555 1_555
C32 C30 1_555 1_555
H33 C32 1_555 1_555
H34 C32 1_555 1_555
H35 C32 1_555 1_555
C33 C30 1_555 1_555
H36 C33 1_555 1_555
H37 C33 1_555 1_555
O7 C30 1_555 1_555
H38 O7 1_555 1_555
C34 C33 1_555 1_555
H39 C34 1_555 1_555
H40 C34 1_555 1_555
H41 C34 1_555 1_555
C35 C17 1_555 1_555
H42 C35 1_555 1_555
C36 C35 1_555 1_555
H43 C36 1_555 1_555
H44 C36 1_555 1_555
N4 C35 1_555 1_555
C37 N4 1_555 1_555
H45 C37 1_555 1_555
H46 C37 1_555 1_555
C38 N4 1_555 1_555
H47 C38 1_555 1_555
H48 C38 1_555 1_555
C39 C38 1_555 1_555
H49 C39 1_555 1_555
H50 C39 1_555 1_555
C40 C36 1_555 1_555
H51 C40 1_555 1_555
C41 C37 1_555 1_555
H52 C41 1_555 1_555
C42 C41 1_555 1_555
O8 C42 1_555 1_555
O9 C42 1_555 1_555
O5C Cd1 1_555 1_555
O6C Cd1 1_555 1_555
O8A Cd1 1_555 1_555
O9A Cd1 1_555 1_555
Cd1C O5 1_555 1_555
Cd1A O8 1_555 1_555
N1 C21 1_555 1_555
C3 N3 1_555 1_555
C4 C17 1_555 1_555
C8 C9 1_555 1_555
C12 C20 1_555 1_555
N3 C27 1_555 1_555
C15 C16 1_555 1_555
C18 C24 1_555 1_555
C22 C25 1_555 1_555
C23 C26 1_555 1_555
O6 Cd1C 1_555 1_555
C39 C40 1_555 1_555
C40 C41 1_555 1_555
O9 Cd1A 1_555 1_555

#END
