
#######################################################################
#
#                 Cambridge Crystallographic Data Centre
#                                CCDC 
#
#######################################################################
#
# If this CIF has been generated from an entry in the Cambridge 
# Structural Database, then it will include bibliographic, chemical, 
# crystal, experimental, refinement or atomic coordinate data resulting 
# from the CCDC's data processing and validation procedures.
#
#######################################################################

data_NUYQUU
_chemical_formula_moiety         '(C4 H5 Cd1 N5 S1)n'
_symmetry_cell_setting           monoclinic
_symmetry_space_group_name_H-M   'C 2/c'
_symmetry_Int_Tables_number      15
_space_group_name_Hall           '-C 2yc'
loop_
_symmetry_equiv_pos_site_id
_symmetry_equiv_pos_as_xyz
1 x,y,z
2 -x,y,1/2-z
3 1/2+x,1/2+y,z
4 1/2-x,1/2+y,1/2-z
5 -x,-y,-z
6 x,-y,1/2+z
7 1/2-x,1/2-y,-z
8 1/2+x,1/2-y,1/2+z
_cell_length_a                   10.488(4)
_cell_length_b                   10.212(4)
_cell_length_c                   11.273(4)
_cell_angle_alpha                90
_cell_angle_beta                 92.890(8)
_cell_angle_gamma                90
_cell_volume                     1205.84
loop_
_atom_site_label
_atom_site_type_symbol
_atom_site_fract_x
_atom_site_fract_y
_atom_site_fract_z
_atom_site_U_iso_or_equiv
_atom_site_thermal_displace_type
N4 N 0.0279(17) -0.0923(18) 0.4124(13) 0.2566 Uani
H1 H 0.1038 -0.0610 0.4223 0.3080 Uiso
C3 C -0.0075(18) -0.1190(19) 0.3114(13) 0.2399 Uani
H3 H -0.0848 -0.1617 0.3196 0.2880 Uiso
N4A N -0.0279(17) -0.0923(18) 0.0876(13) 0.2566 Uani
H1A H -0.1038 -0.0610 0.0777 0.3080 Uiso
C3A C 0.0075(18) -0.1190(19) 0.1886(13) 0.2399 Uani
H3A H 0.0848 -0.1617 0.1804 0.2880 Uiso
Cd1 Cd 0.63410(3) 0.13621(3) 0.60660(2) 0.0223 Uani
S1 S 0.39839(9) 0.14701(9) 0.56416(9) 0.0234 Uani
N1 N 0.2909(3) -0.0934(3) 0.5712(3) 0.0227 Uani
N2 N 0.2366(3) -0.1759(3) 0.6519(3) 0.0275 Uani
N3 N 0.3107(3) -0.0005(3) 0.7493(3) 0.0249 Uani
C1 C 0.3338(3) 0.0113(3) 0.6324(3) 0.0194 Uani
C2 C 0.2509(4) -0.1167(4) 0.7556(4) 0.0281 Uani
H2 H 0.2226 -0.1516 0.8258 0.0340 Uiso
Cd1D Cd 0.36590(3) -0.13621(3) 0.39340(2) 0.0223 Uani
Cd1B Cd 0.13410(3) -0.36379(3) 0.60660(2) 0.0223 Uani
Cd1A Cd 0.36590(3) 0.13621(3) 0.89340(2) 0.0223 Uani
N1D N 0.7091(3) 0.0934(3) 0.4288(3) 0.0227 Uani
N2B N 0.7366(3) 0.3241(3) 0.6519(3) 0.0275 Uani
N3A N 0.6893(3) -0.0005(3) 0.7507(3) 0.0249 Uani
loop_
_atom_site_aniso_label
_atom_site_aniso_U_11
_atom_site_aniso_U_22
_atom_site_aniso_U_33
_atom_site_aniso_U_23
_atom_site_aniso_U_13
_atom_site_aniso_U_12
N4 0.196 0.345 0.225 0.002 -0.027 -0.069
C3 0.157 0.338 0.219 0.007 -0.046 -0.061
N4A 0.196(9) 0.345(10) 0.225(10) -0.002(10) -0.027(9) 0.069(9)
C3A 0.157(7) 0.338(8) 0.219(9) -0.007(8) -0.046(8) 0.061(7)
Cd1 0.03029 0.02106 0.01555 0.00107 0.00148 -0.00508
S1 0.0251 0.0197 0.0256 0.0039 0.0037 -0.0008
N1 0.028 0.0237 0.0171 -0.0019 0.0077 -0.0081
N2 0.0355 0.0263 0.0213 -0.0004 0.0071 -0.0116
N3 0.0351 0.0229 0.017 -0.0019 0.0035 -0.0076
C1 0.0189 0.0195 0.02 -0.0027 0.0035 -0.0021
C2 0.034 0.029 0.022 -0.0002 0.0092 -0.0101
Cd1D 0.03029 0.02106 0.01555 0.00107 0.00148 -0.00508
Cd1B 0.03029 0.02106 0.01555 0.00107 0.00148 -0.00508
Cd1A 0.03029 0.02106 0.01555 -0.00107 0.00148 0.00508
N1D 0.028 0.0237 0.0171 -0.0019 0.0077 -0.0081
N2B 0.0355 0.0263 0.0213 -0.0004 0.0071 -0.0116
N3A 0.0351 0.0229 0.017 0.0019 0.0035 0.0076
loop_
_geom_bond_atom_site_label_1
_geom_bond_atom_site_label_2
_geom_bond_site_symmetry_1
_geom_bond_site_symmetry_2
Cd1 S1 1_555 1_555
S1 C1 1_555 1_555
N1 N2 1_555 1_555
N2 C2 1_555 1_555
N3 C1 1_555 1_555
N4 H1 1_555 1_555
C1 N1 1_555 1_555
C2 N3 1_555 1_555
H2 C2 1_555 1_555
C3 N4 1_555 1_555
H3 C3 1_555 1_555
Cd1D N1 1_555 1_555
Cd1B N2 1_555 1_555
Cd1A N3 1_555 1_555
N1D Cd1 1_555 1_555
N2B Cd1 1_555 1_555
N3A Cd1 1_555 1_555
N4A H1A 1_555 1_555
C3A C3 1_555 1_555
H3A C3A 1_555 1_555
N4A C3A 1_555 1_555

#END
