
#######################################################################
#
#                 Cambridge Crystallographic Data Centre
#                                CCDC 
#
#######################################################################
#
# If this CIF has been generated from an entry in the Cambridge 
# Structural Database, then it will include bibliographic, chemical, 
# crystal, experimental, refinement or atomic coordinate data resulting 
# from the CCDC's data processing and validation procedures.
#
#######################################################################

data_ADABAK01
_chemical_formula_moiety         '(C17 H14 Cu2 N10 O4)n'
_symmetry_cell_setting           monoclinic
_symmetry_space_group_name_H-M   'C 2/c'
_symmetry_Int_Tables_number      15
_space_group_name_Hall           '-C 2yc'
loop_
_symmetry_equiv_pos_site_id
_symmetry_equiv_pos_as_xyz
1 x,y,z
2 -x,y,1/2-z
3 1/2+x,1/2+y,z
4 1/2-x,1/2+y,1/2-z
5 -x,-y,-z
6 x,-y,1/2+z
7 1/2-x,1/2-y,-z
8 1/2+x,1/2-y,1/2+z
_cell_length_a                   28.668(6)
_cell_length_b                   9.2413(14)
_cell_length_c                   9.2844(15)
_cell_angle_alpha                90
_cell_angle_beta                 115.953(10)
_cell_angle_gamma                90
_cell_volume                     2211.66
loop_
_atom_site_label
_atom_site_type_symbol
_atom_site_fract_x
_atom_site_fract_y
_atom_site_fract_z
_atom_site_U_iso_or_equiv
_atom_site_thermal_displace_type
Cu1 Cu 0.1897(5) 0.8354(19) 0.3150(19) 0.0210 Uiso
O1 O 0.1229(13) 0.974(3) -0.149(4) 0.0210 Uiso
O2 O 0.1460(11) 0.831(4) 0.068(3) 0.0210 Uiso
N1 N 0.2312(9) 0.991(3) 0.225(2) 0.0210 Uiso
N2 N 0.2673(8) 1.095(3) 0.280(2) 0.0210 Uiso
N3 N 0.2534(8) 1.198(2) 0.170(3) 0.0210 Uiso
N4 N 0.2093(8) 1.161(2) 0.046(3) 0.0210 Uiso
N5 N 0.1342(7) 0.6752(17) 0.308(2) 0.0210 Uiso
C1 C 0.1507(6) 0.939(3) -0.010(3) 0.0210 Uiso
C2 C 0.1963(6) 1.0339(19) 0.083(2) 0.0210 Uiso
C3 C 0.1027(10) 0.7265(16) 0.369(2) 0.0210 Uiso
C4 C 0.0679(9) 0.6427(17) 0.400(2) 0.0210 Uiso
C5 C 0.0657(3) 0.4961(16) 0.3645(8) 0.0210 Uiso
C6 C 0.0976(5) 0.4395(15) 0.301(2) 0.0210 Uiso
C7 C 0.1312(6) 0.5327(16) 0.274(3) 0.0210 Uiso
C8 C 0.0288(2) 0.398(2) 0.39497(19) 0.0210 Uiso
C9 C 0.0000 0.304(2) 0.25000 0.0210 Uiso
Cu1C Cu 0.3103(5) 0.3354(19) 0.1850(19) 0.0210 Uiso
Cu1C_2 Cu 0.3103(5) 1.3354(19) 0.1850(19) 0.0210 Uiso
Cu1E Cu 0.1897(5) 1.1646(19) -0.1850(19) 0.0210 Uiso
Cu1A Cu -0.1897(5) 0.8354(19) 0.1850(19) 0.0210 Uiso
Cu1F Cu 0.3103(5) 0.6646(19) 0.6850(19) 0.0210 Uiso
O1C O 0.3771(13) 0.474(3) 0.649(4) 0.0210 Uiso
O2C O 0.3540(11) 0.331(4) 0.432(3) 0.0210 Uiso
N1C N 0.2688(9) 0.491(3) 0.275(2) 0.0210 Uiso
N2C N 0.2327(8) 0.595(3) 0.220(2) 0.0210 Uiso
N3C N 0.2466(8) 0.698(2) 0.330(3) 0.0210 Uiso
N3_2 N 0.2534(8) 0.198(2) 0.170(3) 0.0210 Uiso
N4C N 0.2907(8) 0.661(2) 0.454(3) 0.0210 Uiso
N4E N 0.2093(8) 0.839(2) 0.546(3) 0.0210 Uiso
N4F N 0.2907(8) 0.339(2) -0.046(3) 0.0210 Uiso
N5A N -0.1342(7) 0.6752(17) 0.192(2) 0.0210 Uiso
N5C N 0.3658(7) 0.1752(17) 0.192(2) 0.0210 Uiso
C1C C 0.3493(6) 0.439(3) 0.510(3) 0.0210 Uiso
C2C C 0.3037(6) 0.5339(19) 0.417(2) 0.0210 Uiso
C3A C -0.1027(10) 0.7265(16) 0.131(2) 0.0210 Uiso
C4A C -0.0679(9) 0.6427(17) 0.100(2) 0.0210 Uiso
C5A C -0.0657(3) 0.4961(16) 0.1355(8) 0.0210 Uiso
C6A C -0.0976(5) 0.4395(15) 0.199(2) 0.0210 Uiso
C7A C -0.1312(6) 0.5327(16) 0.226(3) 0.0210 Uiso
C8A C -0.0288(2) 0.398(2) 0.10503(19) 0.0210 Uiso
loop_
_geom_bond_atom_site_label_1
_geom_bond_atom_site_label_2
_geom_bond_site_symmetry_1
_geom_bond_site_symmetry_2
Cu1 O2 1_555 1_555
O1 C1 1_555 1_555
O2 C1 1_555 1_555
N1 Cu1 1_555 1_555
N2 N1 1_555 1_555
N3 N2 1_555 1_555
N4 N3 1_555 1_555
N5 Cu1 1_555 1_555
C1 C2 1_555 1_555
C2 N1 1_555 1_555
C3 N5 1_555 1_555
C4 C3 1_555 1_555
C5 C4 1_555 1_555
C6 C5 1_555 1_555
C7 N5 1_555 1_555
C8 C5 1_555 1_555
C9 C8 1_555 1_555
Cu1C O2C 1_555 1_555
Cu1C_2 N3 1_555 1_555
Cu1E N4 1_555 1_555
Cu1A N5A 1_555 1_555
Cu1F N4C 1_555 1_555
O1C C1C 1_555 1_555
O2C C1C 1_555 1_555
N1C Cu1C 1_555 1_555
N2C N1C 1_555 1_555
N3C Cu1 1_555 1_555
N3_2 Cu1C 1_555 1_555
N4C N3C 1_555 1_555
N4E Cu1 1_555 1_555
N4F Cu1C 1_555 1_555
N5A C3A 1_555 1_555
N5C Cu1C 1_555 1_555
C1C C2C 1_555 1_555
C2C N1C 1_555 1_555
C3A C4A 1_555 1_555
C4A C5A 1_555 1_555
C5A C6A 1_555 1_555
C6A C7A 1_555 1_555
C7A N5A 1_555 1_555
C8A C9 1_555 1_555
N4 C2 1_555 1_555
C6 C7 1_555 1_555
N2C N3C 1_555 1_555
N4C C2C 1_555 1_555
C5A C8A 1_555 1_555

#END
