
#######################################################################
#
#                 Cambridge Crystallographic Data Centre
#                                CCDC 
#
#######################################################################
#
# If this CIF has been generated from an entry in the Cambridge 
# Structural Database, then it will include bibliographic, chemical, 
# crystal, experimental, refinement or atomic coordinate data resulting 
# from the CCDC's data processing and validation procedures.
#
#######################################################################

data_KIFDIM
_chemical_formula_moiety         '(C40 H56 Fe3 N8 O27 S4)n'
_symmetry_cell_setting           triclinic
_symmetry_space_group_name_H-M   'P -1'
_symmetry_Int_Tables_number      2
_space_group_name_Hall           '-P 1'
loop_
_symmetry_equiv_pos_site_id
_symmetry_equiv_pos_as_xyz
1 x,y,z
2 -x,-y,-z
_cell_length_a                   12.000(3)
_cell_length_b                   12.611(4)
_cell_length_c                   11.526(3)
_cell_angle_alpha                115.75(2)
_cell_angle_beta                 106.99(2)
_cell_angle_gamma                69.34(2)
_cell_volume                     1449.9
loop_
_atom_site_label
_atom_site_type_symbol
_atom_site_fract_x
_atom_site_fract_y
_atom_site_fract_z
_atom_site_U_iso_or_equiv
_atom_site_thermal_displace_type
Fe1 Fe 0.5000 0.5000 1.0000 0.0225 Uiso
Fe2 Fe 1.0000 1.0000 2.0000 0.0250 Uiso
Fe3 Fe 1.0000 0.5000 1.0000 0.0294 Uiso
S1 S 0.7430(3) 0.3944(3) 0.8467(3) 0.0306 Uiso
S2 S 0.7557(3) 1.1070(3) 2.1496(3) 0.0336 Uiso
O1 O 0.6601(7) 0.4010(7) 0.9240(7) 0.0370 Uiso
O2 O 0.8225(8) 0.4703(10) 0.9291(9) 0.0390 Uiso
O3 O 0.6808(9) 0.4230(9) 0.7312(9) 0.0430 Uiso
O4 O 0.8189(10) 0.2627(9) 0.800(1) 0.0530 Uiso
O8 O 0.8572(6) 1.0138(6) 2.0896(7) 0.0330 Uiso
O9 O 0.7448(8) 1.2229(7) 2.1414(9) 0.0520 Uiso
O10 O 0.7734(8) 1.1190(8) 2.2851(7) 0.0570 Uiso
O11 O 0.6445(7) 1.0697(8) 2.0779(7) 0.0460 Uiso
O12 O 0.5269(7) 0.3502(6) 1.0619(7) 0.0340 Uiso
O13 O 0.9024(7) 1.1697(7) 1.9849(8) 0.0430 Uiso
O14 O 0.9061(8) 0.6869(8) 1.0516(8) 0.0600 Uiso
N1 N 0.6024(8) 0.5915(8) 1.1877(8) 0.0300 Uiso
N2 N 0.9060(8) 0.9069(8) 1.8094(9) 0.0350 Uiso
N3 N 1.0044(9) 0.4943(9) 0.8061(8) 0.0340 Uiso
C1 C 0.592(1) 0.587(1) 1.297(1) 0.0370 Uiso
C2 C 0.649(1) 0.649(1) 1.420(1) 0.0360 Uiso
C3 C 0.7221(9) 0.7200(9) 1.4345(10) 0.0240 Uiso
C4 C 0.7335(10) 0.7222(10) 1.319(1) 0.0280 Uiso
C5 C 0.674(1) 0.660(1) 1.2019(10) 0.0310 Uiso
C6 C 0.909(1) 0.921(1) 1.703(1) 0.0360 Uiso
C7 C 0.851(1) 0.862(1) 1.582(1) 0.0390 Uiso
C8 C 0.7845(9) 0.7836(8) 1.5635(10) 0.0210 Uiso
C9 C 0.782(1) 0.7726(10) 1.676(1) 0.0350 Uiso
C10 C 0.842(1) 0.8334(10) 1.7960(10) 0.0300 Uiso
C11 C 0.945(1) 0.425(1) 0.693(1) 0.0520 Uiso
C12 C 0.941(1) 0.430(1) 0.574(1) 0.0490 Uiso
C13 C 1.002(1) 0.5003(10) 0.5629(10) 0.0290 Uiso
C14 C 1.068(1) 0.5642(10) 0.678(1) 0.0400 Uiso
C15 C 1.069(1) 0.559(1) 0.7948(10) 0.0400 Uiso
H1 H 0.5404 0.5383 1.2904 0.0444 Uiso
H2 H 0.6386 0.6411 1.4957 0.0437 Uiso
H3 H 0.7836 0.7680 1.3221 0.0360 Uiso
H4 H 0.6843 0.6622 1.1230 0.0352 Uiso
H5 H 0.9552 0.9757 1.7116 0.0466 Uiso
H6 H 0.8551 0.8751 1.5065 0.0464 Uiso
H7 H 0.7371 0.7211 1.6710 0.0371 Uiso
H8 H 0.8387 0.8219 1.8722 0.0351 Uiso
H9 H 0.9043 0.3695 0.6960 0.0636 Uiso
H10 H 0.8947 0.3817 0.4953 0.0586 Uiso
H11 H 1.1106 0.6143 0.6755 0.0457 Uiso
H12 H 1.1184 0.6042 0.8737 0.0455 Uiso
O2A O 1.1775(8) 0.5297(10) 1.0709(9) 0.0390 Uiso
O14A O 1.0939(8) 0.3131(8) 0.9484(8) 0.0600 Uiso
C13A C 0.998(1) 0.4997(10) 0.4371(10) 0.0290 Uiso
C12A C 1.059(1) 0.570(1) 0.426(1) 0.0490 Uiso
C11A C 1.055(1) 0.575(1) 0.307(1) 0.0520 Uiso
N3A N 0.9956(9) 0.5057(9) 0.1939(8) 0.0340 Uiso
Fe3A Fe 1.0000 0.5000 0.0000 0.0294 Uiso
C15A C 0.931(1) 0.441(1) 0.2052(10) 0.0400 Uiso
C14A C 0.932(1) 0.4358(10) 0.322(1) 0.0400 Uiso
H11A H 0.8894 0.3857 0.3245 0.0457 Uiso
H12A H 0.8816 0.3958 0.1263 0.0455 Uiso
H9A H 1.0957 0.6305 0.3040 0.0636 Uiso
H10A H 1.1053 0.6183 0.5047 0.0586 Uiso
N3A_2 N 0.9956(9) 0.5057(9) 1.1939(8) 0.0340 Uiso
O1A O 0.3399(7) 0.5990(7) 1.0760(7) 0.0370 Uiso
O12A O 0.4731(7) 0.6498(6) 0.9381(7) 0.0340 Uiso
N1A N 0.3976(8) 0.4085(8) 0.8123(8) 0.0300 Uiso
O8A O 1.1428(6) 0.9862(6) 1.9104(7) 0.0330 Uiso
O13A O 1.0976(7) 0.8303(7) 2.0151(8) 0.0430 Uiso
N2A N 1.0940(8) 1.0931(8) 2.1906(9) 0.0350 Uiso
S1A S 0.2570(3) 0.6056(3) 1.1533(3) 0.0306 Uiso
C1A C 0.408(1) 0.413(1) 0.703(1) 0.0370 Uiso
C5A C 0.326(1) 0.340(1) 0.7981(10) 0.0310 Uiso
S2A S 1.2443(3) 0.8930(3) 1.8504(3) 0.0336 Uiso
O2A_2 O 0.1775(8) 0.5297(10) 1.0709(9) 0.0390 Uiso
O3A O 0.3192(9) 0.5770(9) 1.2688(9) 0.0430 Uiso
O4A O 0.1811(10) 0.7373(9) 1.200(1) 0.0530 Uiso
C2A C 0.351(1) 0.351(1) 0.580(1) 0.0360 Uiso
H1A H 0.4596 0.4617 0.7096 0.0444 Uiso
C4A C 0.2665(10) 0.2778(10) 0.681(1) 0.0280 Uiso
H4A H 0.3157 0.3378 0.8770 0.0352 Uiso
O9A O 1.2552(8) 0.7771(7) 1.8586(9) 0.0520 Uiso
O10A O 1.2266(8) 0.8810(8) 1.7149(7) 0.0570 Uiso
O11A O 1.3555(7) 0.9303(8) 1.9221(7) 0.0460 Uiso
Fe3_2 Fe 0.0000 0.5000 1.0000 0.0294 Uiso
C3A C 0.2779(9) 0.2800(9) 0.5655(10) 0.0240 Uiso
H2A H 0.3614 0.3589 0.5043 0.0437 Uiso
H3A H 0.2164 0.2320 0.6779 0.0360 Uiso
C8A C 0.2155(9) 0.2164(8) 0.4365(10) 0.0210 Uiso
C7A C 0.149(1) 0.138(1) 0.418(1) 0.0390 Uiso
C9A C 0.218(1) 0.2274(10) 0.324(1) 0.0350 Uiso
C6A C 0.091(1) 0.079(1) 0.297(1) 0.0360 Uiso
H6A H 0.1449 0.1249 0.4935 0.0464 Uiso
C10A C 0.158(1) 0.1666(10) 0.2040(10) 0.0300 Uiso
H7A H 0.2629 0.2789 0.3290 0.0371 Uiso
N2A_2 N 0.0940(8) 0.0931(8) 0.1906(9) 0.0350 Uiso
H5A H 0.0448 0.0243 0.2884 0.0466 Uiso
H8A H 0.1613 0.1781 0.1278 0.0351 Uiso
Fe2_2 Fe 0.0000 0.0000 0.0000 0.0250 Uiso
O15 O 0.3321(9) 0.1919(8) 0.0146(9) 0.0680 Uiso
O16 O 0.412(1) 0.341(1) 0.268(1) 0.1010 Uiso
O17 O 0.616(1) 0.323(1) 0.448(1) 0.1490 Uiso
O18 O 0.862(1) 0.122(1) 0.5530(10) 0.1010 Uiso
O19 O 0.0924(10) 0.1254(8) 0.7049(10) 0.0720 Uiso
N4 N 0.5605(10) 0.0663(9) 0.8316(9) 0.0450 Uiso
C16 C 0.490(1) -0.009(1) 0.760(1) 0.0510 Uiso
C17 C 0.464(1) -0.037(1) 0.625(1) 0.0480 Uiso
C18 C 0.5121(10) 0.0150(10) 0.5701(10) 0.0270 Uiso
C19 C 0.583(1) 0.093(1) 0.656(1) 0.0400 Uiso
C20 C 0.607(1) 0.117(1) 0.787(1) 0.0410 Uiso
H13 H 0.4576 -0.0420 0.8025 0.0627 Uiso
H14 H 0.4118 -0.0897 0.5693 0.0601 Uiso
H15 H 0.6166 0.1307 0.6217 0.0492 Uiso
H16 H 0.6548 0.1734 0.8484 0.0480 Uiso
H17 H 0.5819 0.0855 0.9253 0.0526 Uiso
C18A C 0.4879(10) -0.0150(10) 0.4299(10) 0.0270 Uiso
C17A C 0.536(1) 0.037(1) 0.375(1) 0.0480 Uiso
C16A C 0.510(1) 0.009(1) 0.240(1) 0.0510 Uiso
N4A N 0.4395(10) -0.0663(9) 0.1684(9) 0.0450 Uiso
C20A C 0.393(1) -0.117(1) 0.213(1) 0.0410 Uiso
C19A C 0.417(1) -0.093(1) 0.344(1) 0.0400 Uiso
H15A H 0.3834 -0.1307 0.3783 0.0492 Uiso
H16A H 0.3452 -0.1734 0.1516 0.0480 Uiso
H17A H 0.4181 -0.0855 0.0747 0.0526 Uiso
H13A H 0.5424 0.0420 0.1975 0.0627 Uiso
H14A H 0.5882 0.0897 0.4307 0.0601 Uiso
loop_
_geom_bond_atom_site_label_1
_geom_bond_atom_site_label_2
_geom_bond_site_symmetry_1
_geom_bond_site_symmetry_2
Fe1 O1 1_555 1_555
Fe2 O8 1_555 1_555
Fe3 O2 1_555 1_555
S1 O1 1_555 1_555
S2 O8 1_555 1_555
O2 S1 1_555 1_555
O3 S1 1_555 1_555
O4 S1 1_555 1_555
O9 S2 1_555 1_555
O10 S2 1_555 1_555
O11 S2 1_555 1_555
O12 Fe1 1_555 1_555
O13 Fe2 1_555 1_555
O14 Fe3 1_555 1_555
N1 Fe1 1_555 1_555
N2 Fe2 1_555 1_555
N3 Fe3 1_555 1_555
N4 C16 1_555 1_555
C1 N1 1_555 1_555
C2 C1 1_555 1_555
C3 C2 1_555 1_555
C4 C3 1_555 1_555
C5 N1 1_555 1_555
C6 N2 1_555 1_555
C7 C6 1_555 1_555
C8 C3 1_555 1_555
C9 C8 1_555 1_555
C10 N2 1_555 1_555
C11 N3 1_555 1_555
C12 C11 1_555 1_555
C13 C12 1_555 1_555
C14 C13 1_555 1_555
C15 N3 1_555 1_555
C16 C17 1_555 1_555
C17 C18 1_555 1_555
C18 C19 1_555 1_555
C19 C20 1_555 1_555
C20 N4 1_555 1_555
H1 C1 1_555 1_555
H2 C2 1_555 1_555
H3 C4 1_555 1_555
H4 C5 1_555 1_555
H5 C6 1_555 1_555
H6 C7 1_555 1_555
H7 C9 1_555 1_555
H8 C10 1_555 1_555
H9 C11 1_555 1_555
H10 C12 1_555 1_555
H11 C14 1_555 1_555
H12 C15 1_555 1_555
H13 C16 1_555 1_555
H14 C17 1_555 1_555
H15 C19 1_555 1_555
H16 C20 1_555 1_555
H17 N4 1_555 1_555
O2A Fe3 1_555 1_555
O14A Fe3 1_555 1_555
C13A C13 1_555 1_555
C12A C13A 1_555 1_555
C11A C12A 1_555 1_555
N3A C11A 1_555 1_555
Fe3A N3A 1_555 1_555
C15A N3A 1_555 1_555
C14A C13A 1_555 1_555
H11A C14A 1_555 1_555
H12A C15A 1_555 1_555
H9A C11A 1_555 1_555
H10A C12A 1_555 1_555
N3A_2 Fe3 1_555 1_555
O1A Fe1 1_555 1_555
O12A Fe1 1_555 1_555
N1A Fe1 1_555 1_555
O8A Fe2 1_555 1_555
O13A Fe2 1_555 1_555
N2A Fe2 1_555 1_555
C18A C18 1_555 1_555
C17A C18A 1_555 1_555
C16A C17A 1_555 1_555
N4A C16A 1_555 1_555
C20A N4A 1_555 1_555
C19A C18A 1_555 1_555
H15A C19A 1_555 1_555
H16A C20A 1_555 1_555
H17A N4A 1_555 1_555
H13A C16A 1_555 1_555
H14A C17A 1_555 1_555
S1A O1A 1_555 1_555
C1A N1A 1_555 1_555
C5A N1A 1_555 1_555
S2A O8A 1_555 1_555
O2A_2 S1A 1_555 1_555
O3A S1A 1_555 1_555
O4A S1A 1_555 1_555
C2A C1A 1_555 1_555
H1A C1A 1_555 1_555
C4A C5A 1_555 1_555
H4A C5A 1_555 1_555
O9A S2A 1_555 1_555
O10A S2A 1_555 1_555
O11A S2A 1_555 1_555
Fe3_2 O2A_2 1_555 1_555
C3A C2A 1_555 1_555
H2A C2A 1_555 1_555
H3A C4A 1_555 1_555
C8A C3A 1_555 1_555
C7A C8A 1_555 1_555
C9A C8A 1_555 1_555
C6A C7A 1_555 1_555
H6A C7A 1_555 1_555
C10A C9A 1_555 1_555
H7A C9A 1_555 1_555
N2A_2 C6A 1_555 1_555
H5A C6A 1_555 1_555
H8A C10A 1_555 1_555
Fe2_2 N2A_2 1_555 1_555
C4 C5 1_555 1_555
C7 C8 1_555 1_555
C9 C10 1_555 1_555
C14 C15 1_555 1_555
C15A C14A 1_555 1_555
C20A C19A 1_555 1_555
C4A C3A 1_555 1_555
C10A N2A_2 1_555 1_555

#END
