
#######################################################################
#
#                 Cambridge Crystallographic Data Centre
#                                CCDC 
#
#######################################################################
#
# If this CIF has been generated from an entry in the Cambridge 
# Structural Database, then it will include bibliographic, chemical, 
# crystal, experimental, refinement or atomic coordinate data resulting 
# from the CCDC's data processing and validation procedures.
#
#######################################################################

data_OLANEW
_chemical_formula_moiety         '(C92 H134 Cd8 Co2 N12 O88)n'
_symmetry_cell_setting           triclinic
_symmetry_space_group_name_H-M   'P -1'
_symmetry_Int_Tables_number      2
_space_group_name_Hall           '-P 1'
loop_
_symmetry_equiv_pos_site_id
_symmetry_equiv_pos_as_xyz
1 x,y,z
2 -x,-y,-z
_cell_length_a                   16.413(5)
_cell_length_b                   18.430(5)
_cell_length_c                   24.700(5)
_cell_angle_alpha                87.900(5)
_cell_angle_beta                 85.395(5)
_cell_angle_gamma                75.058(5)
_cell_volume                     7194.62
loop_
_atom_site_label
_atom_site_type_symbol
_atom_site_fract_x
_atom_site_fract_y
_atom_site_fract_z
Cd1 Cd 0.24619(4) 0.17842(4) 0.35282(3)
Cd2 Cd -0.08111(6) 0.32951(6) 0.55407(4)
Cd3 Cd -0.36404(6) 0.48584(6) 0.49610(5)
Cd4 Cd 0.72753(6) 0.23500(4) 0.03138(3)
Cd5 Cd 0.83462(6) -0.30010(5) 0.15594(4)
Cd6 Cd -0.39361(5) -0.00351(4) 0.64364(3)
Cd7 Cd 0.60974(7) 0.49941(6) 0.18520(5)
Cd8 Cd 0.66898(7) 0.05213(6) -0.00105(5)
Co1 Co -0.20927(8) 0.10140(7) 0.33712(5)
Co2 Co 0.23631(8) 0.36464(7) 0.15232(5)
O1 O -0.3345(5) -0.0561(4) 0.3208(3)
O2 O -0.1758(8) 0.2548(8) 0.5553(5)
O3 O -0.2727(5) 0.3013(4) 0.2593(3)
O4 O 0.8502(8) 0.1983(9) -0.0191(5)
O5 O 0.1158(4) 0.1706(4) 0.3239(3)
O6 O 0.0120(8) 0.4030(8) 0.5323(6)
O7 O 0.1201(4) 0.2361(5) 0.3969(3)
O8 O -0.3404(8) 0.4137(9) 0.5742(5)
O9 O -0.1480(6) 0.3979(5) 0.4833(4)
O10 O -0.2482(7) 0.5330(6) 0.5141(5)
O11 O -0.2627(6) 0.4136(6) 0.4390(4)
O12 O -0.3998(9) 0.5555(8) 0.4192(6)
O13 O -0.3622(5) 0.0052(5) 0.5494(3)
O14 O -0.3322(9) 0.0904(8) 0.6596(6)
O15 O -0.2622(5) -0.0717(4) 0.5915(3)
O16 O -0.5207(6) 0.0808(5) 0.6299(4)
O17 O -0.0232(6) -0.2341(6) 0.4807(4)
O18 O 0.9619(7) -0.3176(6) 0.1015(5)
O19 O -0.0130(7) -0.2258(5) 0.3928(4)
O20 O 0.9126(9) -0.3805(6) 0.2173(5)
O21 O 1.0192(5) -0.0224(5) 0.2784(3)
O22 O 0.7081(8) -0.2904(7) 0.2089(6)
O23 O 0.7566(5) 0.1733(5) 0.4911(3)
O24 O 0.5966(5) 0.2521(5) 0.0782(4)
O25 O 0.3547(4) 0.2048(4) 0.3846(4)
O26 O 0.6712(6) 0.1810(5) -0.0373(3)
O27 O 0.4536(5) 0.0981(5) 0.3682(4)
O28 O 0.6987(10) -0.0766(6) 0.0030(6)
O29 O 0.4373(7) 0.4226(6) 0.4513(5)
O30 O 0.5892(14) 0.0552(9) -0.0748(7)
O31 O 0.5614(7) 0.4031(6) 0.4824(6)
O32 O 0.7992(9) 0.0285(8) -0.0476(7)
O33 O 0.8047(7) -0.1714(5) 0.1296(4)
O34 O 0.6259(9) 0.4469(8) 0.2747(6)
O35 O 0.8591(7) -0.2012(5) 0.2073(4)
O36 O 0.5980(9) 0.6228(8) 0.1594(8)
O37 O 0.7939(5) 0.1778(4) 0.1061(3)
O38 O 0.7475(6) 0.4964(6) 0.1886(4)
O39 O 0.7465(6) 0.0967(5) 0.0622(3)
O40 O 0.6668(6) 0.3718(5) 0.1646(4)
O41 O 0.0765(7) 0.5704(5) 0.1583(5)
O42 O 0.5724(6) 0.4842(6) 0.0964(4)
O43 O 0.1957(5) 0.2030(4) 0.0604(3)
O44 O 0.3112(5) 0.0964(4) 0.2872(3)
O45 O 0.4292(5) 0.0111(4) 0.2644(3)
O46 O 0.5504(6) 0.1304(6) 0.0428(4)
O47 O 0.5579(9) 0.0167(6) 0.0690(5)
O48 O 0.4723(6) 0.5161(7) 0.1999(5)
O49 O 0.4544(8) 0.5868(9) 0.2694(6)
O50 O 0.1849(7) 0.6105(7) 0.3881(4)
O51 O 0.0750(8) 0.6021(10) 0.3519(5)
O52 O 0.4627(5) 0.3863(4) 0.0855(3)
O53 O 0.2123(4) 0.2973(4) 0.3086(3)
O54 O -0.0074(7) 0.1963(7) 0.1379(6)
O55 O -0.1350(5) 0.2592(5) 0.1642(4)
H1 H -0.1468 0.2295 0.1442
O56 O -0.1828(6) 0.4723(6) 0.2890(4)
H2 H -0.2094 0.5041 0.3107
O57 O -0.0781(6) 0.4791(6) 0.3368(4)
O58 O 0.2478(5) 0.6513(4) -0.0606(3)
O59 O 0.3087(7) 0.6476(5) 0.0158(4)
O60 O 0.1811(6) 0.4154(4) -0.1217(3)
O61 O 0.2314(7) 0.3106(5) -0.0757(4)
N1 N -0.2485(5) 0.0112(4) 0.3524(3)
N2 N -0.2938(5) 0.1200(4) 0.2892(3)
N3 N -0.1980(5) 0.2001(4) 0.3086(3)
N4 N 0.8787(5) 0.0450(4) 0.2851(3)
N5 N 0.8816(5) 0.0799(4) 0.3811(3)
N6 N 0.7298(5) 0.1513(4) 0.4028(3)
N7 N 0.1906(6) 0.4702(5) 0.1712(4)
N8 N 0.1431(5) 0.3865(5) 0.1105(3)
N9 N 0.2517(5) 0.2656(5) 0.1209(4)
N10 N 0.1829(5) 0.3341(5) 0.2198(3)
N11 N 0.3303(5) 0.3429(4) 0.1938(3)
N12 N 0.3206(5) 0.3897(4) 0.0983(3)
C1 C -0.3031(6) -0.0007(5) 0.3207(4)
C2 C -0.3294(6) 0.0628(5) 0.2811(4)
C3 C -0.3839(7) 0.0715(7) 0.2408(5)
H3 H -0.4115 0.0345 0.2353
C4 C -0.3975(8) 0.1353(7) 0.2086(5)
H4 H -0.4337 0.1403 0.1808
C5 C -0.3596(7) 0.1915(6) 0.2163(4)
H5 H -0.3685 0.2343 0.1942
C6 C -0.3065(6) 0.1819(6) 0.2592(4)
C7 C -0.2573(6) 0.2349(5) 0.2762(4)
C8 C -0.1502(6) 0.2400(5) 0.3345(4)
C9 C -0.0626(6) 0.2151(5) 0.3310(4)
H6 H -0.0355 0.1789 0.3057
C10 C -0.0153(6) 0.2436(6) 0.3645(4)
C11 C -0.0546(7) 0.2979(6) 0.4015(4)
H7 H -0.0226 0.3164 0.4244
C12 C -0.1431(7) 0.3256(6) 0.4047(4)
C13 C -0.1892(6) 0.2971(5) 0.3704(4)
H8 H -0.2475 0.3165 0.3714
C14 C 0.0807(7) 0.2150(6) 0.3620(4)
C15 C -0.1878(7) 0.3828(7) 0.4452(5)
C16 C -0.2241(6) -0.0367(5) 0.3982(4)
C17 C -0.2697(6) -0.0197(5) 0.4488(4)
H9 H -0.3185 0.0195 0.4513
C18 C -0.2422(6) -0.0608(6) 0.4947(4)
C19 C -0.1707(7) -0.1204(6) 0.4911(4)
H10 H -0.1535 -0.1489 0.5219
C20 C -0.1249(7) -0.1377(5) 0.4415(4)
C21 C -0.1526(7) -0.0953(5) 0.3955(4)
H11 H -0.1219 -0.1070 0.3622
C22 C -0.2927(7) -0.0411(6) 0.5481(4)
C23 C -0.0485(7) -0.2033(7) 0.4389(5)
C24 C 0.9546(6) 0.0189(5) 0.3029(4)
C25 C 0.9572(6) 0.0421(5) 0.3601(4)
C26 C 1.0266(7) 0.0302(7) 0.3908(5)
H12 H 1.0798 0.0039 0.3767
C27 C 1.0152(7) 0.0582(7) 0.4424(5)
H13 H 1.0611 0.0510 0.4636
C28 C 0.9352(7) 0.0972(7) 0.4633(5)
H14 H 0.9269 0.1158 0.4984
C29 C 0.8687(6) 0.1075(5) 0.4306(4)
C30 C 0.7789(6) 0.1485(6) 0.4447(4)
C31 C 0.6440(6) 0.1920(5) 0.4092(4)
C32 C 0.6200(7) 0.2651(6) 0.4293(4)
H15 H 0.6613 0.2871 0.4395
C33 C 0.5359(7) 0.3056(6) 0.4343(5)
C34 C 0.4745(7) 0.2735(6) 0.4178(4)
H16 H 0.4183 0.3009 0.4199
C35 C 0.4958(6) 0.2011(6) 0.3982(4)
C36 C 0.5806(6) 0.1618(6) 0.3945(4)
H17 H 0.5951 0.1130 0.3815
C37 C 0.5105(8) 0.3823(7) 0.4594(6)
C38 C 0.4305(6) 0.1638(6) 0.3828(4)
C39 C 0.8623(6) 0.0220(5) 0.2339(4)
C40 C 0.8597(6) -0.0521(6) 0.2262(4)
H18 H 0.8743 -0.0873 0.2540
C41 C 0.8360(7) -0.0743(6) 0.1786(4)
C42 C 0.8102(8) -0.0202(6) 0.1373(4)
H19 H 0.7903 -0.0335 0.1058
C43 C 0.8146(7) 0.0530(6) 0.1441(4)
C44 C 0.8425(6) 0.0721(5) 0.1916(4)
H20 H 0.8481 0.1207 0.1950
C45 C 0.8309(8) -0.1536(7) 0.1710(5)
C46 C 0.7832(7) 0.1123(7) 0.1012(4)
C47 C 0.1179(7) 0.5043(6) 0.1506(5)
C48 C 0.0913(7) 0.4549(6) 0.1134(5)
C49 C 0.0187(9) 0.4719(7) 0.0839(6)
H21 H -0.0192 0.5191 0.0858
C50 C 0.0055(9) 0.4171(8) 0.0526(6)
H22 H -0.0422 0.4269 0.0328
C51 C 0.0626(8) 0.3468(7) 0.0499(5)
H23 H 0.0542 0.3101 0.0277
C52 C 0.1302(7) 0.3325(6) 0.0798(5)
C53 C 0.1975(7) 0.2594(6) 0.0855(5)
C54 C 0.3161(6) 0.2004(6) 0.1339(5)
C55 C 0.3110(7) 0.1641(5) 0.1841(4)
H24 H 0.2646 0.1810 0.2087
C56 C 0.3753(6) 0.1029(6) 0.1972(4)
C57 C 0.4422(6) 0.0751(6) 0.1595(4)
H25 H 0.4831 0.0316 0.1676
C58 C 0.4488(6) 0.1114(6) 0.1100(4)
C59 C 0.3862(7) 0.1756(5) 0.0972(4)
H26 H 0.3913 0.2015 0.0646
C60 C 0.3706(7) 0.0684(6) 0.2527(4)
C61 C 0.5231(8) 0.0836(6) 0.0704(4)
C62 C 0.2215(7) 0.5081(6) 0.2115(4)
C63 C 0.3026(7) 0.5172(6) 0.2044(5)
H27 H 0.3341 0.5035 0.1716
C64 C 0.3379(8) 0.5461(7) 0.2443(5)
C65 C 0.2864(8) 0.5726(7) 0.2911(5)
H28 H 0.3073 0.5960 0.3176
C66 C 0.2067(8) 0.5646(7) 0.2983(5)
C67 C 0.1722(8) 0.5327(6) 0.2587(4)
H29 H 0.1171 0.5279 0.2638
C68 C 0.4266(9) 0.5522(8) 0.2365(6)
C69 C 0.1502(9) 0.5937(8) 0.3496(6)
C70 C 0.3981(6) 0.3768(5) 0.1128(4)
C71 C 0.4040(7) 0.3503(6) 0.1710(4)
C72 C 0.4711(7) 0.3412(6) 0.2017(5)
H30 H 0.5228 0.3463 0.1861
C73 C 0.4620(7) 0.3244(7) 0.2558(5)
H31 H 0.5075 0.3191 0.2772
C74 C 0.3840(7) 0.3151(7) 0.2797(5)
H32 H 0.3763 0.3039 0.3165
C75 C 0.3206(6) 0.3234(5) 0.2456(4)
C76 C 0.2311(6) 0.3178(5) 0.2609(4)
C77 C 0.0950(6) 0.3348(6) 0.2269(4)
C78 C 0.0382(7) 0.3880(7) 0.2614(5)
H33 H 0.0592 0.4181 0.2831
C79 C -0.0477(7) 0.3953(6) 0.2631(4)
C80 C -0.0794(7) 0.3493(6) 0.2299(4)
H34 H -0.1373 0.3555 0.2292
C81 C -0.0244(7) 0.2964(6) 0.1993(5)
C82 C 0.0625(7) 0.2878(6) 0.1990(4)
H35 H 0.0991 0.2491 0.1792
C83 C -0.1061(8) 0.4536(7) 0.2991(5)
C84 C -0.0540(8) 0.2461(7) 0.1644(5)
C85 C 0.2993(6) 0.4247(5) 0.0472(4)
C86 C 0.2759(7) 0.3870(6) 0.0068(4)
H36 H 0.2800 0.3358 0.0109
C87 C 0.2461(7) 0.4245(6) -0.0403(4)
C88 C 0.2443(7) 0.4999(6) -0.0481(5)
H37 H 0.2249 0.5248 -0.0798
C89 C 0.2711(7) 0.5378(6) -0.0088(4)
C90 C 0.2986(7) 0.5007(6) 0.0397(4)
H38 H 0.3160 0.5263 0.0666
C91 C 0.2189(7) 0.3812(6) -0.0818(5)
C92 C 0.2757(8) 0.6172(6) -0.0182(5)
Cd1A Cd -0.24619(4) -0.17842(4) 0.64718(3)
Cd2A Cd 0.08111(6) -0.32951(6) 0.44593(4)
Cd2A_2 Cd 0.08111(6) 0.67049(6) 0.44593(4)
Cd3_2 Cd 0.63596(6) 0.48584(6) 0.49610(5)
Cd3A Cd 0.36404(6) 0.51416(6) 0.50390(5)
Cd4A Cd 0.27247(6) 0.76500(4) -0.03138(3)
Cd5A Cd 0.16538(6) 0.30010(5) -0.15594(4)
Cd6A Cd 0.39361(5) 0.00351(4) 0.35636(3)
Co1_2 Co 0.79073(8) 0.10140(7) 0.33712(5)
O15A O 0.2622(5) 0.0717(4) 0.4085(3)
O17A O 0.0232(6) 0.2341(6) 0.5193(4)
O19A O 0.0130(7) 0.2258(5) 0.6072(4)
O27A O -0.4536(5) -0.0981(5) 0.6318(4)
O29A O -0.4373(7) 0.5774(6) 0.5487(5)
O31_2 O -0.4386(7) 0.4031(6) 0.4824(6)
O44A O -0.3112(5) -0.0964(4) 0.7128(3)
O45A O -0.4292(5) -0.0111(4) 0.7356(3)
O50A O -0.1849(7) 0.3895(7) 0.6119(4)
O51A O -0.0750(8) 0.3979(10) 0.6481(5)
O58A O 0.7522(5) 0.3487(4) 0.0606(3)
O59A O 0.6913(7) 0.3524(5) -0.0158(4)
O60A O 0.8189(6) -0.4154(4) 0.1217(3)
O61A O 0.7686(7) -0.3106(5) 0.0757(4)
N4_2 N -0.1213(5) 0.0450(4) 0.2851(3)
N5_2 N -0.1184(5) 0.0799(4) 0.3811(3)
N6_2 N -0.2702(5) 0.1513(4) 0.4028(3)
O62 O 0.4942(7) 0.5987(6) 0.0264(4)
O63 O 0.6290(9) 0.8077(8) 0.0510(6)
O64 O 0.0260(12) 0.4564(10) 0.4214(6)
O65 O 0.4864(10) 0.7455(8) 0.0576(9)
O66 O 0.1750(12) 0.3038(10) 0.4863(8)
O67 O 0.8838(11) 0.8269(12) 0.0260(6)
O68 O 0.5998(14) 0.1813(11) 0.5505(8)
O69 O 0.1989(15) 0.3953(10) 0.3976(7)
O70 O 0.4995(11) 0.4961(16) 0.3564(8)
O71 O 0.9886(12) 0.1279(13) 0.0368(9)
O72 O 0.0611(13) 0.9282(16) 0.1651(10)
O73 O 0.7981(13) 0.0971(14) 0.5915(11)
O74 O 0.7605(15) 0.1649(14) 0.8618(9)
O75 O 0.3814(17) 0.1461(13) 0.7619(10)
O76 O 0.1836(17) 0.0682(10) 0.1272(9)
O77 O 0.914(3) 0.170(2) 0.6826(19)
O78 O 0.1465(17) 0.0544(18) 0.2457(11)
O79 O 0.9437(19) 0.2098(19) -0.1142(11)
O80 O 0.387(2) 0.0938(15) 0.8593(11)
O81 O -0.5400(14) 0.095(2) 0.5181(9)
O82 O -0.4461(17) 0.7108(14) 0.4313(11)
O83 O 0.4482(19) 0.7272(14) 0.1738(10)
O84 O -0.0796(18) 0.672(2) 0.3194(12)
O85 O -0.250(2) -0.2108(15) 0.3380(17)
O86 O 0.3169(19) 0.2312(16) 0.5372(15)
O87 O 0.884(3) 0.289(2) -0.2002(19)
O88 O -0.2821(10) 0.5207(9) 0.3544(7)
loop_
_geom_bond_atom_site_label_1
_geom_bond_atom_site_label_2
_geom_bond_site_symmetry_1
_geom_bond_site_symmetry_2
Cd1 O5 1_555 1_555
Cd2 O2 1_555 1_555
Cd3 O8 1_555 1_555
Cd4 O4 1_555 1_555
Cd5 O18 1_555 1_555
Cd6 O13 1_555 1_555
Cd7 O34 1_555 1_555
Cd8 O26 1_555 1_555
Co1 N1 1_555 1_555
Co2 N7 1_555 1_555
O1 C1 1_555 1_555
O3 C7 1_555 1_555
O5 C14 1_555 1_555
O6 Cd2 1_555 1_555
O7 Cd1 1_555 1_555
O9 Cd2 1_555 1_555
O10 Cd3 1_555 1_555
O11 Cd3 1_555 1_555
O12 Cd3 1_555 1_555
O13 C22 1_555 1_555
O14 Cd6 1_555 1_555
O15 Cd6 1_555 1_555
O16 Cd6 1_555 1_555
O17 C23 1_555 1_555
O19 C23 1_555 1_555
O20 Cd5 1_555 1_555
O21 C24 1_555 1_555
O22 Cd5 1_555 1_555
O23 C30 1_555 1_555
O24 Cd4 1_555 1_555
O25 Cd1 1_555 1_555
O26 Cd4 1_555 1_555
O27 C38 1_555 1_555
O28 Cd8 1_555 1_555
O29 C37 1_555 1_555
O30 Cd8 1_555 1_555
O31 C37 1_555 1_555
O32 Cd8 1_555 1_555
O33 Cd5 1_555 1_555
O35 Cd5 1_555 1_555
O36 Cd7 1_555 1_555
O37 Cd4 1_555 1_555
O38 Cd7 1_555 1_555
O39 Cd4 1_555 1_555
O40 Cd7 1_555 1_555
O41 C47 1_555 1_555
O42 Cd7 1_555 1_555
O43 C53 1_555 1_555
O44 Cd1 1_555 1_555
O45 C60 1_555 1_555
O46 Cd8 1_555 1_555
O47 Cd8 1_555 1_555
O48 Cd7 1_555 1_555
O49 C68 1_555 1_555
O50 C69 1_555 1_555
O51 C69 1_555 1_555
O52 C70 1_555 1_555
O53 Cd1 1_555 1_555
O54 C84 1_555 1_555
O55 H1 1_555 1_555
O56 H2 1_555 1_555
O57 C83 1_555 1_555
O58 C92 1_555 1_555
O59 C92 1_555 1_555
O60 C91 1_555 1_555
O61 C91 1_555 1_555
N1 C1 1_555 1_555
N2 Co1 1_555 1_555
N3 Co1 1_555 1_555
N4 C24 1_555 1_555
N5 C25 1_555 1_555
N6 C30 1_555 1_555
N7 C47 1_555 1_555
N8 Co2 1_555 1_555
N9 Co2 1_555 1_555
N10 Co2 1_555 1_555
N11 Co2 1_555 1_555
N12 Co2 1_555 1_555
C1 C2 1_555 1_555
C2 N2 1_555 1_555
C3 C2 1_555 1_555
H3 C3 1_555 1_555
C4 C3 1_555 1_555
H4 C4 1_555 1_555
C5 C4 1_555 1_555
H5 C5 1_555 1_555
C6 N2 1_555 1_555
C7 N3 1_555 1_555
C8 N3 1_555 1_555
C9 C8 1_555 1_555
H6 C9 1_555 1_555
C10 C9 1_555 1_555
C11 C10 1_555 1_555
H7 C11 1_555 1_555
C12 C11 1_555 1_555
C13 C8 1_555 1_555
H8 C13 1_555 1_555
C14 O7 1_555 1_555
C15 O9 1_555 1_555
C16 N1 1_555 1_555
C17 C16 1_555 1_555
H9 C17 1_555 1_555
C18 C17 1_555 1_555
C19 C18 1_555 1_555
H10 C19 1_555 1_555
C20 C19 1_555 1_555
C21 C16 1_555 1_555
H11 C21 1_555 1_555
C22 O15 1_555 1_555
C23 C20 1_555 1_555
C24 C25 1_555 1_555
C25 C26 1_555 1_555
C26 H12 1_555 1_555
C27 C26 1_555 1_555
H13 C27 1_555 1_555
C28 C27 1_555 1_555
H14 C28 1_555 1_555
C29 N5 1_555 1_555
C30 C29 1_555 1_555
C31 N6 1_555 1_555
C32 C31 1_555 1_555
H15 C32 1_555 1_555
C33 C32 1_555 1_555
C34 C33 1_555 1_555
H16 C34 1_555 1_555
C35 C34 1_555 1_555
C36 C31 1_555 1_555
H17 C36 1_555 1_555
C37 C33 1_555 1_555
C38 O25 1_555 1_555
C39 N4 1_555 1_555
C40 C39 1_555 1_555
H18 C40 1_555 1_555
C41 C40 1_555 1_555
C42 C41 1_555 1_555
H19 C42 1_555 1_555
C43 C42 1_555 1_555
C44 C39 1_555 1_555
H20 C44 1_555 1_555
C45 O33 1_555 1_555
C46 O37 1_555 1_555
C47 C48 1_555 1_555
C48 N8 1_555 1_555
C49 C48 1_555 1_555
H21 C49 1_555 1_555
C50 C49 1_555 1_555
H22 C50 1_555 1_555
C51 C50 1_555 1_555
H23 C51 1_555 1_555
C52 N8 1_555 1_555
C53 N9 1_555 1_555
C54 N9 1_555 1_555
C55 C54 1_555 1_555
H24 C55 1_555 1_555
C56 C55 1_555 1_555
C57 C56 1_555 1_555
H25 C57 1_555 1_555
C58 C57 1_555 1_555
C59 C54 1_555 1_555
H26 C59 1_555 1_555
C60 O44 1_555 1_555
C61 O46 1_555 1_555
C62 N7 1_555 1_555
C63 C62 1_555 1_555
H27 C63 1_555 1_555
C64 C63 1_555 1_555
C65 C64 1_555 1_555
H28 C65 1_555 1_555
C66 C65 1_555 1_555
C67 C62 1_555 1_555
H29 C67 1_555 1_555
C68 O48 1_555 1_555
C69 C66 1_555 1_555
C70 N12 1_555 1_555
C71 N11 1_555 1_555
C72 C71 1_555 1_555
H30 C72 1_555 1_555
C73 C72 1_555 1_555
H31 C73 1_555 1_555
C74 C73 1_555 1_555
H32 C74 1_555 1_555
C75 N11 1_555 1_555
C76 O53 1_555 1_555
C77 N10 1_555 1_555
C78 C77 1_555 1_555
H33 C78 1_555 1_555
C79 C78 1_555 1_555
C80 C79 1_555 1_555
H34 C80 1_555 1_555
C81 C80 1_555 1_555
C82 C77 1_555 1_555
H35 C82 1_555 1_555
C83 O56 1_555 1_555
C84 O55 1_555 1_555
C85 N12 1_555 1_555
C86 C85 1_555 1_555
H36 C86 1_555 1_555
C87 C86 1_555 1_555
C88 C87 1_555 1_555
H37 C88 1_555 1_555
C89 C88 1_555 1_555
C90 C85 1_555 1_555
H38 C90 1_555 1_555
C91 C87 1_555 1_555
C92 C89 1_555 1_555
Cd1A O15 1_555 1_555
Cd2A O17 1_555 1_555
Cd2A_2 O50 1_555 1_555
Cd3_2 O31 1_555 1_555
Cd3A O29 1_555 1_555
Cd4A O58 1_555 1_555
Cd5A O60 1_555 1_555
Cd6A O27 1_555 1_555
Co1_2 N4 1_555 1_555
O15A Cd1 1_555 1_555
O17A Cd2 1_555 1_555
O19A Cd2 1_555 1_555
O27A Cd6 1_555 1_555
O29A Cd3 1_555 1_555
O31_2 Cd3 1_555 1_555
O44A Cd6 1_555 1_555
O45A Cd6 1_555 1_555
O50A Cd2 1_555 1_555
O51A Cd2 1_555 1_555
O58A Cd4 1_555 1_555
O59A Cd4 1_555 1_555
O60A Cd5 1_555 1_555
O61A Cd5 1_555 1_555
N4_2 Co1 1_555 1_555
N5_2 Co1 1_555 1_555
N6_2 Co1 1_555 1_555
Cd8 O39 1_555 1_555
O11 C15 1_555 1_555
O19 Cd2A 1_555 1_555
O35 C45 1_555 1_555
O39 C46 1_555 1_555
O44 Cd6A 1_555 1_555
O45 Cd6A 1_555 1_555
O47 C61 1_555 1_555
O51 Cd2A_2 1_555 1_555
O59 Cd4A 1_555 1_555
O61 Cd5A 1_555 1_555
N5 Co1_2 1_555 1_555
N6 Co1_2 1_555 1_555
N10 C76 1_555 1_555
C5 C6 1_555 1_555
C6 C7 1_555 1_555
C10 C14 1_555 1_555
C12 C13 1_555 1_555
C12 C15 1_555 1_555
C18 C22 1_555 1_555
C20 C21 1_555 1_555
C28 C29 1_555 1_555
C35 C36 1_555 1_555
C35 C38 1_555 1_555
C41 C45 1_555 1_555
C43 C44 1_555 1_555
C43 C46 1_555 1_555
C51 C52 1_555 1_555
C52 C53 1_555 1_555
C56 C60 1_555 1_555
C58 C59 1_555 1_555
C58 C61 1_555 1_555
C64 C68 1_555 1_555
C66 C67 1_555 1_555
C70 C71 1_555 1_555
C74 C75 1_555 1_555
C75 C76 1_555 1_555
C79 C83 1_555 1_555
C81 C82 1_555 1_555
C81 C84 1_555 1_555
C89 C90 1_555 1_555
Cd1A O44A 1_555 1_555
Cd6A O15A 1_555 1_555

#END
