
#######################################################################
#
#                 Cambridge Crystallographic Data Centre
#                                CCDC 
#
#######################################################################
#
# If this CIF has been generated from an entry in the Cambridge 
# Structural Database, then it will include bibliographic, chemical, 
# crystal, experimental, refinement or atomic coordinate data resulting 
# from the CCDC's data processing and validation procedures.
#
#######################################################################

data_OLANIA
_chemical_formula_moiety         'C92 H40 Co2 Mn17 N12 Na5 O83'
_symmetry_cell_setting           triclinic
_symmetry_space_group_name_H-M   'P -1'
_symmetry_Int_Tables_number      2
_space_group_name_Hall           '-P 1'
loop_
_symmetry_equiv_pos_site_id
_symmetry_equiv_pos_as_xyz
1 x,y,z
2 -x,-y,-z
_cell_length_a                   16.280(5)
_cell_length_b                   18.430(5)
_cell_length_c                   23.550(5)
_cell_angle_alpha                89.061(5)
_cell_angle_beta                 89.688(5)
_cell_angle_gamma                77.706(5)
_cell_volume                     6902.97
loop_
_atom_site_label
_atom_site_type_symbol
_atom_site_fract_x
_atom_site_fract_y
_atom_site_fract_z
O67 O 0.3063(3) 0.5590(3) 0.7952(2)
O68 O 0.2035(8) 0.4943(4) 0.6948(3)
Co1 Co 0.75710(4) 0.61740(4) 0.66672(3)
Co2 Co 0.77730(4) 0.10698(3) 0.15561(3)
Mn1 Mn 0.76220(8) 0.21368(7) 0.48766(4)
Mn2 Mn 0.62149(5) 0.98886(4) 0.84895(3)
Mn3 Mn 0.76244(4) 0.81815(4) 0.85318(3)
Mn4 Mn 0.63677(4) 0.49720(4) 1.02566(3)
Mn5 Mn 0.83853(4) 0.55527(4) 0.99513(3)
Mn6 Mn 1.05241(6) -0.26377(5) 0.16850(6)
O1 O 0.7737(2) 0.70958(19) 0.81836(15)
O2 O 0.6287(5) 0.2235(5) 0.4923(6)
O3 O 0.5348(2) 0.5870(3) 0.60770(18)
O4 O 0.8983(4) 0.2010(4) 0.4820(3)
O5 O 0.7514(4) 0.3191(3) 0.5435(2)
O6 O 0.7073(4) 0.7302(4) 0.2986(2)
O7 O 0.7389(4) 0.3355(4) 0.4487(2)
O8 O 0.8961(6) 0.6359(3) 0.2936(4)
O9 O 0.8241(4) 0.5884(4) 0.3841(3)
O10 O 0.9176(9) 0.7110(5) 0.4163(5)
O11 O 0.7517(4) 0.6795(4) 0.4261(2)
O12 O 0.7126(2) 1.0518(2) 0.82096(17)
O13 O 0.5090(3) 1.0765(2) 0.85573(19)
O14 O 1.1403(3) 0.7355(3) 0.67495(17)
O15 O 0.4870(8) 0.4550(5) 0.5891(6)
O16 O 1.1566(2) 0.5182(2) 0.81036(17)
O17 O 0.4754(4) 0.2879(5) 0.6461(4)
O18 O 1.0370(2) 0.4932(2) 0.84328(15)
O19 O 0.8937(3) 0.4128(2) 0.70167(17)
O20 O 0.3663(3) 0.3761(2) 0.75731(17)
O21 O 0.8312(3) 0.7490(3) 0.5478(2)
O22 O 0.4698(3) 0.9641(2) 0.56794(18)
O23 O 0.5904(2) 0.5096(2) 1.11411(16)
O24 O 0.5108(4) 0.8672(3) 0.5138(2)
O25 O 0.9558(2) 0.5465(2) 0.94727(15)
O26 O 0.5967(2) 0.9740(2) 0.75755(16)
O27 O 0.8013(3) 0.6728(2) 0.9685(2)
O28 O 0.7038(2) 0.8841(2) 0.78275(16)
O29 O 0.8979(2) 0.5981(2) 1.06665(16)
O30 O 0.5083(2) 0.3908(2) 0.80295(18)
O31 O 0.7140(2) 0.58877(19) 1.04296(15)
O32 O 1.0993(4) -0.3043(4) 0.0860(3)
O33 O 0.6939(2) 0.4703(2) 0.94478(14)
O34 O 1.1782(4) -0.3013(4) 0.2042(6)
O35 O 0.7914(2) 0.5308(2) 0.91576(15)
O36 O 1.0293(4) -0.3725(3) 0.1976(3)
O37 O 0.7153(2) 0.30065(19) 0.23817(15)
O38 O 1.0716(3) -0.1521(3) 0.1518(3)
O39 O 0.6439(2) -0.05185(19) 0.18116(15)
O40 O 1.0052(3) -0.2219(3) 0.2515(2)
O41 O 0.9304(2) -0.2336(2) 0.13092(18)
O42 O 0.9352(3) -0.2640(2) 0.0396(2)
O43 O 0.7571(2) -0.0817(2) -0.10026(16)
O44 O 0.6544(2) -0.0002(3) -0.06274(17)
O45 O 0.74873(19) 0.42952(19) 0.06226(14)
O46 O 0.87463(19) 0.44682(18) 0.03468(14)
O47 O 1.12500(19) 0.24160(18) 0.09929(14)
O48 O 1.10556(19) 0.17821(18) 0.17660(14)
O49 O 0.99840(19) -0.01996(18) 0.20767(15)
O50 O 0.7517(2) 0.18830(19) -0.00535(14)
O51 O 0.5737(2) 0.41087(19) 0.01156(15)
O52 O 0.4397(2) 0.4055(2) 0.00943(18)
O53 O 0.3466(2) 0.1958(2) 0.10268(16)
O54 O 0.4432(2) 0.0946(2) 0.12837(17)
O55 O 0.7767(5) -0.1650(3) 0.3797(2)
O56 O 0.8500(3) -0.1946(2) 0.3021(2)
O57 O 0.7639(4) 0.0951(3) 0.45383(18)
O58 O 0.7857(3) 0.1813(2) 0.39370(17)
N1 N 0.8080(2) 0.6573(2) 0.73073(17)
N2 N 0.6605(2) 0.6481(2) 0.70981(17)
N3 N 0.6770(3) 0.5867(2) 0.61612(17)
N4 N 0.7879(3) 0.5181(2) 0.70117(17)
N5 N 0.8546(3) 0.5825(2) 0.62536(17)
N6 N 0.7588(2) 0.7063(2) 0.62204(19)
N7 N 0.7898(2) 0.2032(2) 0.18472(16)
N8 N 0.6909(2) 0.1217(2) 0.20898(16)
N9 N 0.7345(2) 0.0173(2) 0.14257(17)
N10 N 0.8624(2) 0.0504(2) 0.20718(16)
N11 N 0.8687(2) 0.0891(2) 0.10613(16)
N12 N 0.7222(2) 0.1592(2) 0.08820(16)
C1 C 0.7561(3) 0.6816(3) 0.7732(2)
C2 C 0.6683(3) 0.6740(3) 0.7617(2)
C3 C 0.6010(3) 0.6875(3) 0.7985(2)
H1 H 0.6064 0.7054 0.8347
C4 C 0.5248(3) 0.6736(3) 0.7803(2)
H2 H 0.4786 0.6823 0.8046
C5 C 0.5170(3) 0.6466(3) 0.7257(2)
H3 H 0.4662 0.6373 0.7131
C6 C 0.5878(3) 0.6341(3) 0.6912(2)
C7 C 0.5967(3) 0.6001(3) 0.6342(2)
C8 C 0.6976(3) 0.5525(3) 0.5631(2)
C9 C 0.7091(3) 0.4768(3) 0.5569(2)
H4 H 0.7028 0.4472 0.5883
C10 C 0.7299(3) 0.4439(3) 0.5048(2)
C11 C 0.7430(5) 0.4887(4) 0.4585(3)
H5 H 0.7573 0.4676 0.4232
C12 C 0.7346(6) 0.5640(4) 0.4652(3)
C13 C 0.7110(4) 0.5955(4) 0.5167(3)
H6 H 0.7038 0.6466 0.5205
C14 C 0.7418(5) 0.3614(4) 0.4983(3)
C15 C 0.7596(11) 0.6159(6) 0.4206(4)
C16 C 0.8957(3) 0.6542(3) 0.7361(2)
C17 C 0.9346(3) 0.6983(3) 0.7026(3)
H7 H 0.9035 0.7336 0.6781
C18 C 1.0232(3) 0.6892(3) 0.7061(2)
C19 C 1.0703(3) 0.6371(3) 0.7418(2)
H8 H 1.1284 0.6315 0.7434
C20 C 1.0295(3) 0.5928(3) 0.7758(2)
C21 C 0.9427(3) 0.6022(3) 0.77356(19)
H9 H 0.9156 0.5736 0.7972
C22 C 1.0777(3) 0.5307(3) 0.8133(2)
C23 C 1.0642(4) 0.7344(4) 0.6657(3)
C24 C 0.8594(3) 0.4765(3) 0.6844(2)
C25 C 0.9000(3) 0.5143(3) 0.6379(2)
C26 C 0.9756(3) 0.4882(3) 0.6106(2)
H10 H 1.0076 0.4412 0.6189
C27 C 1.0024(4) 0.5338(4) 0.5706(3)
H11 H 1.0539 0.5177 0.5526
C28 C 0.9529(4) 0.6042(4) 0.5566(2)
H12 H 0.9693 0.6340 0.5283
C29 C 0.8786(3) 0.6272(3) 0.5865(2)
C30 C 0.8200(3) 0.7010(3) 0.5826(3)
C31 C 0.7020(3) 0.7767(3) 0.6290(2)
C32 C 0.6409(3) 0.8054(3) 0.5892(2)
H13 H 0.6361 0.7792 0.5564
C33 C 0.5864(3) 0.8737(3) 0.5986(2)
C34 C 0.5909(3) 0.9110(3) 0.6483(2)
H14 H 0.5544 0.9565 0.6540
C35 C 0.6497(3) 0.8815(3) 0.6903(2)
C36 C 0.7073(3) 0.8150(3) 0.6790(2)
H15 H 0.7495 0.7963 0.7051
C37 C 0.5198(4) 0.9013(4) 0.5552(2)
C38 C 0.6506(3) 0.9154(3) 0.7461(2)
C39 C 0.7409(3) 0.4934(3) 0.7463(2)
C40 C 0.6699(4) 0.4666(3) 0.7346(2)
H16 H 0.6553 0.4596 0.6973
C41 C 0.6202(4) 0.4500(4) 0.7797(2)
C42 C 0.6418(3) 0.4587(3) 0.8347(2)
H17 H 0.6081 0.4477 0.8642
C43 C 0.7141(3) 0.4837(3) 0.8464(2)
C44 C 0.7628(3) 0.5024(3) 0.80242(19)
H18 H 0.8102 0.5210 0.8104
C45 C 0.5405(6) 0.4243(7) 0.7671(3)
C46 C 0.7355(3) 0.4958(3) 0.9073(2)
C47 C 0.7304(3) 0.2360(3) 0.2200(2)
C48 C 0.6785(3) 0.1824(3) 0.24005(19)
C49 C 0.6240(3) 0.1903(3) 0.2868(2)
H19 H 0.6142 0.2329 0.3086
C50 C 0.5855(4) 0.1324(3) 0.2992(2)
H20 H 0.5506 0.1353 0.3309
C51 C 0.5970(3) 0.0700(3) 0.2659(2)
H21 H 0.5691 0.0319 0.2739
C52 C 0.6518(3) 0.0658(3) 0.2198(2)
C53 C 0.6776(3) 0.0036(3) 0.1792(2)
C54 C 0.7621(3) -0.0348(3) 0.0983(2)
C55 C 0.8203(3) -0.1000(3) 0.1095(2)
H22 H 0.8411 -0.1107 0.1461
C56 C 0.8475(3) -0.1493(3) 0.0660(2)
C57 C 0.8167(3) -0.1325(3) 0.0107(2)
H23 H 0.8357 -0.1649 -0.0187
C58 C 0.7580(3) -0.0675(3) 0.0002(2)
C59 C 0.7307(3) -0.0190(3) 0.0442(2)
H24 H 0.6908 0.0245 0.0372
C60 C 0.9107(4) -0.2208(3) 0.0787(3)
C61 C 0.7217(3) -0.0492(3) -0.0575(2)
C62 C 0.8442(3) 0.2441(2) 0.15809(19)
C63 C 0.9301(3) 0.2192(2) 0.16357(19)
H25 H 0.9516 0.1804 0.1886
C64 C 0.9847(3) 0.2528(2) 0.13125(18)
C65 C 0.9533(3) 0.3132(2) 0.09565(19)
H26 H 0.9894 0.3346 0.0735
C66 C 0.8664(3) 0.3412(2) 0.09375(19)
C67 C 0.8129(3) 0.3056(3) 0.12399(19)
H27 H 0.7551 0.3233 0.1214
C68 C 1.0771(3) 0.2219(2) 0.13602(19)
C69 C 0.8274(3) 0.4112(3) 0.06080(19)
C70 C 0.9377(3) 0.0225(2) 0.1842(2)
C71 C 0.9422(3) 0.0500(2) 0.1250(2)
C72 C 1.0137(3) 0.0404(3) 0.0900(2)
H28 H 1.0650 0.0122 0.1023
C73 C 1.0057(3) 0.0737(3) 0.0375(2)
H29 H 1.0526 0.0688 0.0140
C74 C 0.9294(3) 0.1146(3) 0.0185(2)
H30 H 0.9243 0.1374 -0.0172
C75 C 0.8603(3) 0.1207(2) 0.0545(2)
C76 C 0.7721(3) 0.1611(2) 0.04297(19)
C77 C 0.6367(3) 0.1978(2) 0.08274(19)
C78 C 0.6164(3) 0.2699(2) 0.06036(18)
H31 H 0.6591 0.2948 0.0520
C79 C 0.5336(3) 0.3047(3) 0.05038(19)
C80 C 0.4696(3) 0.2684(3) 0.0649(2)
H32 H 0.4138 0.2915 0.0582
C81 C 0.4890(3) 0.1975(3) 0.0894(2)
C82 C 0.5719(3) 0.1620(3) 0.0970(2)
H33 H 0.5847 0.1139 0.1118
C83 C 0.5141(3) 0.3808(3) 0.02199(19)
C84 C 0.4207(3) 0.1594(3) 0.1076(2)
C85 C 0.8455(3) 0.0276(2) 0.26266(19)
C86 C 0.8409(3) -0.0464(3) 0.2738(2)
H34 H 0.8537 -0.0814 0.2453
C87 C 0.8176(3) -0.0675(3) 0.3272(2)
C88 C 0.7976(4) -0.0150(3) 0.3687(2)
H35 H 0.7803 -0.0291 0.4042
C89 C 0.8025(3) 0.0588(3) 0.3591(2)
C90 C 0.8269(3) 0.0788(3) 0.3056(2)
H36 H 0.8309 0.1277 0.2984
C91 C 0.8146(5) -0.1464(4) 0.3369(3)
C92 C 0.7827(4) 0.1148(4) 0.4040(2)
O59 O 0.7742(11) 0.1544(6) 0.5684(3)
O60 O 1.1720(5) 0.3003(3) 0.8053(4)
O61 O 0.5418(6) 0.3951(6) 0.7144(4)
O62 O 1.0325(5) 0.7519(7) 0.6163(4)
Mn7 Mn 0.42215(13) 0.41155(11) 0.67265(8)
Na1 Na 1.2570(2) 0.3952(2) 0.84645(19)
Na2 Na 0.3401(3) 0.9946(2) 0.50073(19)
Mn8 Mn 0.81889(11) 0.71154(7) 0.35376(5)
O63 O 0.3884(6) 0.4168(5) 0.6437(5)
O64 O 0.3017(10) 0.4143(7) 0.6376(5)
O65 O 0.2679(5) 1.1358(4) 0.5126(3)
O66 O 0.4814(5) 0.4784(5) 0.7305(3)
Mn2_2 Mn 0.62149(5) -0.01114(4) -0.15105(3)
Mn2A Mn 0.37851(5) 0.01114(4) 0.15105(3)
Mn3_2 Mn 0.76244(4) -0.18185(4) -0.14682(3)
Mn3A Mn 0.23756(4) 0.18185(4) 0.14682(3)
Mn3A_2 Mn 1.23756(4) 0.18185(4) 0.14682(3)
Mn4_2 Mn 0.63677(4) 0.49720(4) 0.02566(3)
Mn4A Mn 0.36323(4) 0.50280(4) -0.02566(3)
Mn5_2 Mn 0.83853(4) 0.55527(4) -0.00487(3)
O20_2 O 1.3663(3) 0.3761(2) 0.75731(17)
O31A O 1.2860(2) 0.41123(19) 0.95704(15)
O43_2 O 0.7571(2) 0.9183(2) 0.89974(16)
O44_2 O 0.6544(2) 0.9998(3) 0.93726(17)
O45_2 O 0.74873(19) 0.42952(19) 1.06226(14)
O46_2 O 0.87463(19) 0.44682(18) 1.03468(14)
O47A O 0.87500(19) 0.75840(18) 0.90071(14)
O48A O 0.89444(19) 0.82179(18) 0.82340(14)
O51_2 O 0.5737(2) 0.41087(19) 1.01156(15)
O52A O 0.5603(2) 0.5945(2) 0.99057(18)
O53A O 0.6534(2) 0.8042(2) 0.89732(16)
O54A O 0.5568(2) 0.9054(2) 0.87163(17)
O55_2 O 0.7767(5) 0.8350(3) 0.3797(2)
O56_2 O 0.8500(3) 0.8054(2) 0.3021(2)
O57A O 0.2361(4) 0.9049(3) 0.54617(18)
Na1_2 Na 0.2570(2) 0.3952(2) 0.84645(19)
Na1A Na 0.7430(2) 0.6048(2) 1.15355(19)
Na2A Na 0.6599(3) 0.0054(2) 0.49927(19)
Mn8_2 Mn 0.81889(11) -0.28846(7) 0.35376(5)
loop_
_geom_bond_atom_site_label_1
_geom_bond_atom_site_label_2
_geom_bond_site_symmetry_1
_geom_bond_site_symmetry_2
Co1 N1 1_555 1_555
Co2 N7 1_555 1_555
Mn1 O2 1_555 1_555
Mn2 O12 1_555 1_555
Mn3 O1 1_555 1_555
Mn4 O23 1_555 1_555
Mn5 O25 1_555 1_555
Mn6 O32 1_555 1_555
O1 C1 1_555 1_555
O3 C7 1_555 1_555
O4 Mn1 1_555 1_555
O5 Mn1 1_555 1_555
O6 Mn8 1_555 1_555
O7 Mn1 1_555 1_555
O8 Mn8 1_555 1_555
O9 C15 1_555 1_555
O10 Mn8 1_555 1_555
O11 C15 1_555 1_555
O13 Mn2 1_555 1_555
O14 C23 1_555 1_555
O15 Mn7 1_555 1_555
O16 C22 1_555 1_555
O17 Mn7 1_555 1_555
O18 C22 1_555 1_555
O19 C24 1_555 1_555
O20 Mn7 1_555 1_555
O21 C30 1_555 1_555
O22 C37 1_555 1_555
O24 C37 1_555 1_555
O26 Mn2 1_555 1_555
O27 Mn5 1_555 1_555
O28 Mn3 1_555 1_555
O29 Mn5 1_555 1_555
O30 C45 1_555 1_555
O31 Mn4 1_555 1_555
O33 Mn4 1_555 1_555
O34 Mn6 1_555 1_555
O35 Mn5 1_555 1_555
O36 Mn6 1_555 1_555
O37 C47 1_555 1_555
O38 Mn6 1_555 1_555
O39 C53 1_555 1_555
O40 Mn6 1_555 1_555
O41 Mn6 1_555 1_555
O42 C60 1_555 1_555
O43 C61 1_555 1_555
O44 C61 1_555 1_555
O45 C69 1_555 1_555
O46 C69 1_555 1_555
O47 C68 1_555 1_555
O48 C68 1_555 1_555
O49 C70 1_555 1_555
O50 C76 1_555 1_555
O51 C83 1_555 1_555
O52 C83 1_555 1_555
O53 C84 1_555 1_555
O54 C84 1_555 1_555
O55 C91 1_555 1_555
O56 C91 1_555 1_555
O57 Mn1 1_555 1_555
O58 Mn1 1_555 1_555
N1 C1 1_555 1_555
N2 Co1 1_555 1_555
N3 Co1 1_555 1_555
N4 Co1 1_555 1_555
N5 Co1 1_555 1_555
N6 Co1 1_555 1_555
N7 C47 1_555 1_555
N8 Co2 1_555 1_555
N9 Co2 1_555 1_555
N10 Co2 1_555 1_555
N11 Co2 1_555 1_555
N12 Co2 1_555 1_555
C1 C2 1_555 1_555
C2 N2 1_555 1_555
C3 C2 1_555 1_555
H1 C3 1_555 1_555
C4 C3 1_555 1_555
H2 C4 1_555 1_555
C5 C4 1_555 1_555
H3 C5 1_555 1_555
C6 N2 1_555 1_555
C7 N3 1_555 1_555
C8 N3 1_555 1_555
C9 C8 1_555 1_555
H4 C9 1_555 1_555
C10 C9 1_555 1_555
C11 C10 1_555 1_555
H5 C11 1_555 1_555
C12 C11 1_555 1_555
C13 C8 1_555 1_555
H6 C13 1_555 1_555
C14 O5 1_555 1_555
C15 C12 1_555 1_555
C16 N1 1_555 1_555
C17 C16 1_555 1_555
H7 C17 1_555 1_555
C18 C17 1_555 1_555
C19 C18 1_555 1_555
H8 C19 1_555 1_555
C20 C19 1_555 1_555
C21 C16 1_555 1_555
H9 C21 1_555 1_555
C22 C20 1_555 1_555
C23 C18 1_555 1_555
C24 N4 1_555 1_555
C25 N5 1_555 1_555
C26 C25 1_555 1_555
H10 C26 1_555 1_555
C27 C26 1_555 1_555
H11 C27 1_555 1_555
C28 C27 1_555 1_555
H12 C28 1_555 1_555
C29 N5 1_555 1_555
C30 N6 1_555 1_555
C31 N6 1_555 1_555
C32 C31 1_555 1_555
H13 C32 1_555 1_555
C33 C32 1_555 1_555
C34 C33 1_555 1_555
H14 C34 1_555 1_555
C35 C34 1_555 1_555
C36 C31 1_555 1_555
H15 C36 1_555 1_555
C37 C33 1_555 1_555
C38 O26 1_555 1_555
C39 N4 1_555 1_555
C40 C39 1_555 1_555
H16 C40 1_555 1_555
C41 C40 1_555 1_555
C42 C41 1_555 1_555
H17 C42 1_555 1_555
C43 C42 1_555 1_555
C44 C39 1_555 1_555
H18 C44 1_555 1_555
C45 C41 1_555 1_555
C46 O33 1_555 1_555
C47 C48 1_555 1_555
C48 N8 1_555 1_555
C49 C48 1_555 1_555
H19 C49 1_555 1_555
C50 C49 1_555 1_555
H20 C50 1_555 1_555
C51 C50 1_555 1_555
H21 C51 1_555 1_555
C52 N8 1_555 1_555
C53 N9 1_555 1_555
C54 N9 1_555 1_555
C55 C54 1_555 1_555
H22 C55 1_555 1_555
C56 C55 1_555 1_555
C57 C56 1_555 1_555
H23 C57 1_555 1_555
C58 C57 1_555 1_555
C59 C54 1_555 1_555
H24 C59 1_555 1_555
C60 O41 1_555 1_555
C61 C58 1_555 1_555
C62 N7 1_555 1_555
C63 C62 1_555 1_555
H25 C63 1_555 1_555
C64 C63 1_555 1_555
C65 C64 1_555 1_555
H26 C65 1_555 1_555
C66 C65 1_555 1_555
C67 C62 1_555 1_555
H27 C67 1_555 1_555
C68 C64 1_555 1_555
C69 C66 1_555 1_555
C70 N10 1_555 1_555
C71 N11 1_555 1_555
C72 C71 1_555 1_555
H28 C72 1_555 1_555
C73 C72 1_555 1_555
H29 C73 1_555 1_555
C74 C73 1_555 1_555
H30 C74 1_555 1_555
C75 N11 1_555 1_555
C76 N12 1_555 1_555
C77 N12 1_555 1_555
C78 C77 1_555 1_555
H31 C78 1_555 1_555
C79 C78 1_555 1_555
C80 C79 1_555 1_555
H32 C80 1_555 1_555
C81 C80 1_555 1_555
C82 C77 1_555 1_555
H33 C82 1_555 1_555
C83 C79 1_555 1_555
C84 C81 1_555 1_555
C85 N10 1_555 1_555
C86 C85 1_555 1_555
H34 C86 1_555 1_555
C87 C86 1_555 1_555
C88 C87 1_555 1_555
H35 C88 1_555 1_555
C89 C88 1_555 1_555
C90 C85 1_555 1_555
H36 C90 1_555 1_555
C91 C87 1_555 1_555
C92 O57 1_555 1_555
O59 Mn1 1_555 1_555
O60 Na1 1_555 1_555
O61 C45 1_555 1_555
O62 C23 1_555 1_555
Mn7 O61 1_555 1_555
Na1 O16 1_555 1_555
Na2 O22 1_555 1_555
Mn8 O9 1_555 1_555
O63 Mn7 1_555 1_555
O64 Mn7 1_555 1_555
O65 Na2 1_555 1_555
O66 C45 1_555 1_555
Mn2_2 O44 1_555 1_555
Mn2A O54 1_555 1_555
Mn3_2 O43 1_555 1_555
Mn3A O53 1_555 1_555
Mn3A_2 O47 1_555 1_555
Mn4_2 O45 1_555 1_555
Mn4A O52 1_555 1_555
Mn5_2 O46 1_555 1_555
O20_2 Na1 1_555 1_555
O31A Na1 1_555 1_555
O43_2 Mn3 1_555 1_555
O44_2 Mn2 1_555 1_555
O45_2 Mn4 1_555 1_555
O46_2 Mn5 1_555 1_555
O47A Mn3 1_555 1_555
O48A Mn3 1_555 1_555
O51_2 Mn4 1_555 1_555
O52A Mn4 1_555 1_555
O53A Mn3 1_555 1_555
O54A Mn2 1_555 1_555
O55_2 Mn8 1_555 1_555
O56_2 Mn8 1_555 1_555
O57A Na2 1_555 1_555
Na1_2 O20 1_555 1_555
Na1A O31 1_555 1_555
Na2A O57 1_555 1_555
Mn8_2 O55 1_555 1_555
Mn5 O31 1_555 1_555
O7 C14 1_555 1_555
O11 Mn8 1_555 1_555
O28 C38 1_555 1_555
O35 C46 1_555 1_555
O48 Mn3A_2 1_555 1_555
O51 Mn4_2 1_555 1_555
O56 Mn8_2 1_555 1_555
O58 C92 1_555 1_555
C5 C6 1_555 1_555
C6 C7 1_555 1_555
C10 C14 1_555 1_555
C12 C13 1_555 1_555
C20 C21 1_555 1_555
C24 C25 1_555 1_555
C28 C29 1_555 1_555
C29 C30 1_555 1_555
C35 C36 1_555 1_555
C35 C38 1_555 1_555
C43 C44 1_555 1_555
C43 C46 1_555 1_555
C51 C52 1_555 1_555
C52 C53 1_555 1_555
C56 C60 1_555 1_555
C58 C59 1_555 1_555
C66 C67 1_555 1_555
C70 C71 1_555 1_555
C74 C75 1_555 1_555
C75 C76 1_555 1_555
C81 C82 1_555 1_555
C89 C90 1_555 1_555
C89 C92 1_555 1_555
Mn7 O66 1_555 1_555

#END
