
#######################################################################
#
#                 Cambridge Crystallographic Data Centre
#                                CCDC 
#
#######################################################################
#
# If this CIF has been generated from an entry in the Cambridge 
# Structural Database, then it will include bibliographic, chemical, 
# crystal, experimental, refinement or atomic coordinate data resulting 
# from the CCDC's data processing and validation procedures.
#
#######################################################################

data_AVIHIY
_chemical_formula_moiety         '(C9 H5 Ho1 O7)n'
_symmetry_cell_setting           tetragonal
_symmetry_space_group_name_H-M   'P 43'
_symmetry_Int_Tables_number      78
_space_group_name_Hall           'P 4cw'
loop_
_symmetry_equiv_pos_site_id
_symmetry_equiv_pos_as_xyz
1 x,y,z
2 -x,-y,1/2+z
3 -y,x,3/4+z
4 y,-x,1/4+z
_cell_length_a                   10.2550(3)
_cell_length_b                   10.2550(3)
_cell_length_c                   14.4940(3)
_cell_angle_alpha                90
_cell_angle_beta                 90
_cell_angle_gamma                90
_cell_volume                     1524.26
loop_
_atom_site_label
_atom_site_type_symbol
_atom_site_fract_x
_atom_site_fract_y
_atom_site_fract_z
Ho1 Ho 0.85022(3) 0.84983(3) 0.70535(7)
O1 O 0.9339(7) 0.6643(5) 0.6408(4)
C1 C 0.9090(8) 0.1831(8) 0.7406(5)
C2 C 1.0447(8) 0.3936(8) 0.5040(5)
H1 H 1.0756 0.4387 0.4529
C3 C 1.0844(8) 0.1827(9) 0.4199(5)
O2 O 1.0943(6) 0.2412(5) 0.3443(3)
C4 C 0.9582(8) 0.3938(8) 0.6583(5)
H2 H 0.9304 0.4393 0.7102
C5 C 1.0020(9) 0.4618(7) 0.5814(6)
O3 O 1.0789(7) 0.6629(5) 0.5251(4)
C6 C 0.9558(8) 0.2595(8) 0.6583(5)
O4 O 1.1082(8) 0.0652(6) 0.4296(4)
C7 C 1.0412(8) 0.2604(8) 0.5032(5)
C8 C 1.0036(9) 0.6105(7) 0.5829(6)
C9 C 0.9978(9) 0.1917(7) 0.5797(5)
H3 H 0.9966 0.1010 0.5789
O5 O 0.9053(6) 0.2388(6) 0.8162(3)
O6 O 0.6874(7) 0.6840(7) 0.7018(11)
O7 O 0.8798(8) 0.0679(6) 0.7297(4)
Ho1_2 Ho 0.85022(3) -0.15017(3) 0.70535(7)
Ho1A Ho 1.14978(3) 0.15017(3) 0.20535(7)
Ho1B Ho 1.15017(3) -0.14978(3) 0.45535(7)
Ho1B_2 Ho 1.15017(3) 0.85022(3) 0.45535(7)
Ho1C Ho 0.84983(3) 0.14978(3) 0.95535(7)
O2A O 0.9057(6) 0.7588(5) 0.8443(3)
O3C O 0.6629(5) 0.9211(7) 0.7751(4)
O4C O 1.0652(6) 0.8918(8) 0.6796(4)
O5B O 0.7612(6) 0.9053(6) 0.5662(3)
O7_2 O 0.8798(8) 1.0679(6) 0.7297(4)
loop_
_geom_bond_atom_site_label_1
_geom_bond_atom_site_label_2
_geom_bond_site_symmetry_1
_geom_bond_site_symmetry_2
Ho1 O1 1_555 1_555
O1 C8 1_555 1_555
C1 C6 1_555 1_555
C2 H1 1_555 1_555
C3 O2 1_555 1_555
O2 Ho1A 1_555 1_555
C4 H2 1_555 1_555
C5 C2 1_555 1_555
O3 C8 1_555 1_555
C6 C4 1_555 1_555
O4 C3 1_555 1_555
C7 C2 1_555 1_555
C8 C5 1_555 1_555
C9 C6 1_555 1_555
H3 C9 1_555 1_555
O5 C1 1_555 1_555
O6 Ho1 1_555 1_555
O7 C1 1_555 1_555
Ho1_2 O7 1_555 1_555
Ho1B O4 1_555 1_555
Ho1B_2 O3 1_555 1_555
Ho1C O5 1_555 1_555
O2A Ho1 1_555 1_555
O3C Ho1 1_555 1_555
O4C Ho1 1_555 1_555
O5B Ho1 1_555 1_555
O7_2 Ho1 1_555 1_555
C3 C7 1_555 1_555
C4 C5 1_555 1_555
C7 C9 1_555 1_555

#END
