
#######################################################################
#
#                 Cambridge Crystallographic Data Centre
#                                CCDC 
#
#######################################################################
#
# If this CIF has been generated from an entry in the Cambridge 
# Structural Database, then it will include bibliographic, chemical, 
# crystal, experimental, refinement or atomic coordinate data resulting 
# from the CCDC's data processing and validation procedures.
#
#######################################################################

data_MAPCIP
_chemical_formula_moiety         '(C4 H25 Ga4 N2 O26 P5 2-)n'
_symmetry_cell_setting           tetragonal
_symmetry_space_group_name_H-M   'I 41/a'
_symmetry_Int_Tables_number      88
_space_group_name_Hall           '-I 4ad'
loop_
_symmetry_equiv_pos_site_id
_symmetry_equiv_pos_as_xyz
1 x,y,z
2 3/4-y,1/4+x,1/4+z
3 1/2-x,-y,1/2+z
4 3/4+y,3/4-x,3/4+z
5 1/2+x,1/2+y,1/2+z
6 1/4-y,3/4+x,3/4+z
7 -x,1/2-y,z
8 1/4+y,1/4-x,1/4+z
9 -x,-y,-z
10 1/4+y,3/4-x,3/4-z
11 1/2+x,y,1/2-z
12 1/4-y,1/4+x,1/4-z
13 1/2-x,1/2-y,1/2-z
14 3/4+y,1/4-x,1/4-z
15 x,1/2+y,-z
16 3/4-y,3/4+x,3/4-z
_cell_length_a                   15.261(1)
_cell_length_b                   15.261(1)
_cell_length_c                   28.898(2)
_cell_angle_alpha                90
_cell_angle_beta                 90
_cell_angle_gamma                90
_cell_volume                     6730.29
loop_
_atom_site_label
_atom_site_type_symbol
_atom_site_fract_x
_atom_site_fract_y
_atom_site_fract_z
Ga1 Ga 0.19942(2) 0.25867(2) 0.29642(1)
Ga2 Ga 0.06992(2) 0.15520(2) 0.19930(1)
P1 P 0.22778(4) 0.07486(5) 0.25108(2)
P2 P 0.20545(5) 0.17983(5) 0.11171(2)
P3 P 0.50000 0.25000 0.21256(3)
O1 O 0.2126(1) 0.1327(1) 0.29438(7)
O2 O 0.1283(1) 0.1432(1) 0.13902(7)
O3 O 0.2945(1) 0.1195(1) 0.21846(7)
O4 O 0.1785(1) 0.2280(1) 0.06803(7)
O5 O 0.2359(1) 0.2623(1) 0.35885(7)
O6 O 0.2359(1) 0.4001(1) 0.40368(8)
O7 O -0.00000 0.25000 0.1743(1)
O8 O 0.4929(1) 0.3323(1) 0.24256(7)
O9 O 0.1658(1) 0.2432(1) 0.22517(7)
O10 O 0.5807(1) 0.2594(1) 0.18149(7)
O11 O 0.2334(1) 0.5119(1) 0.23328(7)
O12 O 0.3592(1) 0.4396(1) 0.27491(7)
Ga2F Ga -0.06992(2) 0.34480(2) 0.19930(1)
Ga2K Ga 0.09480(2) 0.31992(2) 0.05070(1)
O4M O -0.0220(1) 0.0715(1) 0.18197(7)
O8L O 0.0071(1) 0.1677(1) 0.25744(7)
Ga1L Ga 0.30058(2) 0.24133(2) 0.20358(1)
O1L O 0.2874(1) 0.3673(1) 0.20562(7)
P1L P 0.27222(4) 0.42514(5) 0.24892(2)
O3L O 0.2055(1) 0.3805(1) 0.28154(7)
P2L P 0.29455(5) 0.32017(5) 0.38829(2)
O2L O 0.3717(1) 0.3568(1) 0.36098(7)
Ga2L Ga 0.43008(2) 0.34480(2) 0.30070(1)
O4A O 0.5220(1) 0.4285(1) 0.31803(7)
Ga2J Ga 0.56992(2) 0.15520(2) 0.30070(1)
Ga2G Ga 0.40520(2) 0.18008(2) 0.44930(1)
O4L O 0.3215(1) 0.2720(1) 0.43197(7)
O7J O 0.50000 0.25000 0.3257(1)
O8F O 0.5071(1) 0.1677(1) 0.24256(7)
Ga1J Ga 0.69942(2) 0.25867(2) 0.20358(1)
O10F O 0.4193(1) 0.2406(1) 0.18149(7)
O9L O 0.3342(1) 0.2568(1) 0.27483(7)
O10J O 0.0807(1) 0.2594(1) 0.31851(7)
O5L O 0.2641(1) 0.2377(1) 0.14115(7)
O11L O 0.2666(1) -0.0119(1) 0.26672(7)
O12L O 0.1408(1) 0.0604(1) 0.22509(7)
O6L O 0.2641(1) 0.0999(1) 0.09632(8)
O13 O 0.5594(6) 0.3257(7) 0.0906(3)
O14 O 0.5737(6) 0.0573(6) -0.0194(3)
O15 O 0.6286(9) 0.2000(9) 0.0333(5)
N1 N 0.1560(2) -0.0527(2) 0.1421(1)
N2 N 0.2516(2) -0.3051(2) 0.0242(1)
C1 C 0.2429(3) -0.0893(3) 0.1519(2)
C2 C 0.2538(4) -0.1830(4) 0.1387(2)
C3 C 0.2446(4) -0.1990(3) 0.0872(2)
C4 C 0.2612(4) -0.2948(3) 0.0743(2)
H1 H 0.1543 0.0101 0.1520
H2 H 0.1106 -0.0865 0.1596
H3 H 0.1437 -0.0567 0.1082
H4 H 0.2540 -0.0839 0.1858
H5 H 0.2873 -0.0541 0.1345
H6 H 0.3134 -0.2027 0.1486
H7 H 0.2083 -0.2183 0.1551
H8 H 0.2879 -0.1613 0.0705
H9 H 0.1839 -0.1827 0.0775
H10 H 0.3220 -0.3118 0.0837
H11 H 0.2179 -0.3331 0.0906
H12 H 0.2624 -0.3677 0.0156
H13 H 0.2949 -0.2667 0.0080
H14 H 0.1909 -0.2881 0.0148
loop_
_geom_bond_atom_site_label_1
_geom_bond_atom_site_label_2
_geom_bond_site_symmetry_1
_geom_bond_site_symmetry_2
Ga1 O1 1_555 1_555
Ga2 O2 1_555 1_555
P1 O1 1_555 1_555
P2 O2 1_555 1_555
P3 O8 1_555 1_555
O3 P1 1_555 1_555
O4 P2 1_555 1_555
O5 Ga1 1_555 1_555
O6 P2L 1_555 1_555
O7 Ga2 1_555 1_555
O8 Ga2L 1_555 1_555
O9 Ga1 1_555 1_555
O10 P3 1_555 1_555
O11 P1L 1_555 1_555
O12 P1L 1_555 1_555
N1 C1 1_555 1_555
N2 C4 1_555 1_555
C1 C2 1_555 1_555
C2 C3 1_555 1_555
C3 C4 1_555 1_555
C4 H10 1_555 1_555
H1 N1 1_555 1_555
H2 N1 1_555 1_555
H3 N1 1_555 1_555
H4 C1 1_555 1_555
H5 C1 1_555 1_555
H6 C2 1_555 1_555
H7 C2 1_555 1_555
H8 C3 1_555 1_555
H9 C3 1_555 1_555
H11 C4 1_555 1_555
H12 N2 1_555 1_555
H13 N2 1_555 1_555
H14 N2 1_555 1_555
Ga2F O7 1_555 1_555
Ga2K O4 1_555 1_555
O4M Ga2 1_555 1_555
O8L Ga2 1_555 1_555
Ga1L O3 1_555 1_555
O1L Ga1L 1_555 1_555
P1L O1L 1_555 1_555
O3L Ga1 1_555 1_555
P2L O5 1_555 1_555
O2L P2L 1_555 1_555
Ga2L O12 1_555 1_555
O4A Ga2L 1_555 1_555
Ga2J O7J 1_555 1_555
Ga2G O4L 1_555 1_555
O4L P2L 1_555 1_555
O7J Ga2L 1_555 1_555
O8F P3 1_555 1_555
Ga1J O10 1_555 1_555
O10F P3 1_555 1_555
O9L Ga1 1_555 1_555
O10J Ga1 1_555 1_555
O5L P2 1_555 1_555
O11L P1 1_555 1_555
O12L Ga2 1_555 1_555
O6L P2 1_555 1_555
Ga2 O9 1_555 1_555
P1 O12L 1_555 1_555
O9 Ga1L 1_555 1_555
Ga1L O10F 1_555 1_555
Ga1L O9L 1_555 1_555
Ga1L O5L 1_555 1_555
P1L O3L 1_555 1_555
O2L Ga2L 1_555 1_555
Ga2L O9L 1_555 1_555
Ga2J O8F 1_555 1_555

#END
