
#######################################################################
#
#                 Cambridge Crystallographic Data Centre
#                                CCDC 
#
#######################################################################
#
# If this CIF has been generated from an entry in the Cambridge 
# Structural Database, then it will include bibliographic, chemical, 
# crystal, experimental, refinement or atomic coordinate data resulting 
# from the CCDC's data processing and validation procedures.
#
#######################################################################

data_AWUNUD
_chemical_formula_moiety         'C100 H52 Cl2 In8 Mn1 N4 O28'
_symmetry_cell_setting           orthorhombic
_symmetry_space_group_name_H-M   'P n n m'
_symmetry_Int_Tables_number      58
_space_group_name_Hall           '-P 2 2n'
loop_
_symmetry_equiv_pos_site_id
_symmetry_equiv_pos_as_xyz
1 x,y,z
2 -x,-y,z
3 1/2-x,1/2+y,1/2-z
4 1/2+x,1/2-y,1/2-z
5 -x,-y,-z
6 x,y,-z
7 1/2+x,1/2-y,1/2+z
8 1/2-x,1/2+y,1/2+z
_cell_length_a                   23.767(10)
_cell_length_b                   23.767
_cell_length_c                   29.459(12)
_cell_angle_alpha                90
_cell_angle_beta                 90
_cell_angle_gamma                90
_cell_volume                     16640.5
loop_
_atom_site_label
_atom_site_type_symbol
_atom_site_fract_x
_atom_site_fract_y
_atom_site_fract_z
In1 In 0.5000 0.0000 0.75042(4)
Mn1 Mn 0.5000 0.5000 0.5000
O1 O 0.4637(4) 0.0858(3) 0.7651(3)
N1 N 0.4376(8) 0.4380(8) 0.5000
O2 O 0.4779(3) 0.0591(3) 0.6923(3)
O3 O 0.0874(5) 0.4639(5) 0.7657(3)
O4 O 0.0612(3) 0.4797(3) 0.6922(3)
C1 C 0.4653(7) 0.0950(6) 0.7237(5)
N2 N 0.5000 0.5000 0.5692(4)
Cl1 Cl 0.4371(4) 0.5657(3) 0.5000
C2 C 0.4248(7) 0.4245(7) 0.5801(6)
C3 C 0.4454(5) 0.1515(5) 0.7100(5)
C4 C 0.4068(6) 0.2598(6) 0.6790(6)
C5 C 0.4223(7) 0.4193(6) 0.5367(6)
C6 C 0.4205(4) 0.1909(4) 0.7382(4)
H1 H 0.4169 0.1814 0.7694
C7 C 0.2609(7) 0.4075(5) 0.6786(6)
C8 C 0.3862(7) 0.3149(6) 0.6629(5)
C9 C 0.3952(7) 0.3950(6) 0.6151(5)
C10 C 0.3158(7) 0.3865(6) 0.6641(5)
C11 C 0.3375(5) 0.3376(5) 0.6793(4)
H2 H 0.3180 0.3179 0.7026
C12 C 0.3469(6) 0.4158(5) 0.6324(4)
H3 H 0.3340 0.4515 0.6225
C13 C 0.1900(5) 0.4201(5) 0.7380(5)
H4 H 0.1811 0.4175 0.7694
C14 C 0.4655(6) 0.4655(5) 0.5935(5)
C15 C 0.4008(5) 0.2413(5) 0.7250(4)
H5 H 0.3827 0.2650 0.7465
C16 C 0.2421(6) 0.4007(5) 0.7236(5)
H6 H 0.2658 0.3821 0.7448
C17 C 0.4477(5) 0.1691(5) 0.6646(4)
H7 H 0.4617 0.1436 0.6425
C18 C 0.4306(5) 0.2225(6) 0.6505(5)
H8 H 0.4358 0.2328 0.6197
C19 C 0.4162(5) 0.3472(5) 0.6319(4)
H9 H 0.4524 0.3350 0.6224
C20 C 0.2226(7) 0.4299(5) 0.6506(5)
H10 H 0.2325 0.4345 0.6196
C21 C 0.3770(6) 0.3795(4) 0.5222(3)
H11 H 0.3529 0.3584 0.5415
C22 C 0.1688(6) 0.4470(5) 0.6643(5)
H12 H 0.1437 0.4620 0.6422
C23 C 0.4791(5) 0.4790(4) 0.6395(4)
H13 H 0.4628 0.4624 0.6657
C24 C 0.0953(7) 0.4640(5) 0.7260(7)
C25 C 0.1510(7) 0.4429(5) 0.7094(6)
O1A O 0.5363(4) 0.9142(3) 0.7651(3)
N1A N 0.5624(8) 0.5620(8) 0.5000
O2A O 0.5221(3) 0.9409(3) 0.6923(3)
O3A O 0.9126(5) 0.5361(5) 0.7657(3)
O4A O 0.9388(3) 0.5203(3) 0.6922(3)
C1A C 0.5347(7) 0.9050(6) 0.7237(5)
C2A C 0.5752(7) 0.5755(7) 0.5801(6)
C3A C 0.5546(5) 0.8485(5) 0.7100(5)
C4A C 0.5932(6) 0.7402(6) 0.6790(6)
C5A C 0.5777(7) 0.5807(6) 0.5367(6)
C6A C 0.5795(4) 0.8091(4) 0.7382(4)
H1A H 0.5831 0.8186 0.7694
C7A C 0.7391(7) 0.5925(5) 0.6786(6)
C8A C 0.6138(7) 0.6851(6) 0.6629(5)
C9A C 0.6048(7) 0.6050(6) 0.6151(5)
C10A C 0.6842(7) 0.6135(6) 0.6641(5)
C11A C 0.6625(5) 0.6624(5) 0.6793(4)
H2A H 0.6820 0.6821 0.7026
C12A C 0.6531(6) 0.5842(5) 0.6324(4)
H3A H 0.6660 0.5485 0.6225
C13A C 0.8100(5) 0.5799(5) 0.7380(5)
H4A H 0.8189 0.5825 0.7694
C14A C 0.5345(6) 0.5345(5) 0.5935(5)
C15A C 0.5992(5) 0.7587(5) 0.7250(4)
H5A H 0.6173 0.7350 0.7465
C16A C 0.7579(6) 0.5993(5) 0.7236(5)
H6A H 0.7342 0.6179 0.7448
C17A C 0.5523(5) 0.8309(5) 0.6646(4)
H7A H 0.5383 0.8564 0.6425
C18A C 0.5694(5) 0.7775(6) 0.6505(5)
H8A H 0.5642 0.7672 0.6197
C19A C 0.5838(5) 0.6528(5) 0.6319(4)
H9A H 0.5476 0.6650 0.6224
C20A C 0.7774(7) 0.5701(5) 0.6506(5)
H10A H 0.7675 0.5655 0.6196
C21A C 0.6230(6) 0.6205(4) 0.5222(3)
H11A H 0.6471 0.6416 0.5415
C22A C 0.8312(6) 0.5530(5) 0.6643(5)
H12A H 0.8563 0.5380 0.6422
C23A C 0.5209(5) 0.5210(4) 0.6395(4)
H13A H 0.5372 0.5376 0.6657
C24A C 0.9047(7) 0.5360(5) 0.7260(7)
C25A C 0.8490(7) 0.5571(5) 0.7094(6)
O1D O 0.5363(4) 0.9142(3) 0.2349(3)
O2D O 0.5221(3) 0.9409(3) 0.3077(3)
O3D O 0.9126(5) 0.5361(5) 0.2343(3)
O4D O 0.9388(3) 0.5203(3) 0.3078(3)
C1D C 0.5347(7) 0.9050(6) 0.2763(5)
N2D N 0.5000 0.5000 0.4308(4)
C2D C 0.5752(7) 0.5755(7) 0.4199(6)
C3D C 0.5546(5) 0.8485(5) 0.2900(5)
C4D C 0.5932(6) 0.7402(6) 0.3210(6)
C5D C 0.5777(7) 0.5807(6) 0.4633(6)
C6D C 0.5795(4) 0.8091(4) 0.2618(4)
H1D H 0.5831 0.8186 0.2306
C7D C 0.7391(7) 0.5925(5) 0.3214(6)
C8D C 0.6138(7) 0.6851(6) 0.3371(5)
C9D C 0.6048(7) 0.6050(6) 0.3849(5)
C10D C 0.6842(7) 0.6135(6) 0.3359(5)
C11D C 0.6625(5) 0.6624(5) 0.3207(4)
H2D H 0.6820 0.6821 0.2974
C12D C 0.6531(6) 0.5842(5) 0.3676(4)
H3D H 0.6660 0.5485 0.3775
C13D C 0.8100(5) 0.5799(5) 0.2620(5)
H4D H 0.8189 0.5825 0.2306
C14D C 0.5345(6) 0.5345(5) 0.4065(5)
C15D C 0.5992(5) 0.7587(5) 0.2750(4)
H5D H 0.6173 0.7350 0.2535
C16D C 0.7579(6) 0.5993(5) 0.2764(5)
H6D H 0.7342 0.6179 0.2552
C17D C 0.5523(5) 0.8309(5) 0.3354(4)
H7D H 0.5383 0.8564 0.3575
C18D C 0.5694(5) 0.7775(6) 0.3495(5)
H8D H 0.5642 0.7672 0.3803
C19D C 0.5838(5) 0.6528(5) 0.3681(4)
H9D H 0.5476 0.6650 0.3776
C20D C 0.7774(7) 0.5701(5) 0.3494(5)
H10D H 0.7675 0.5655 0.3804
C21D C 0.6230(6) 0.6205(4) 0.4778(3)
H11D H 0.6471 0.6416 0.4585
C22D C 0.8312(6) 0.5530(5) 0.3357(5)
H12D H 0.8563 0.5380 0.3578
C23D C 0.5209(5) 0.5210(4) 0.3605(4)
H13D H 0.5372 0.5376 0.3343
C24D C 0.9047(7) 0.5360(5) 0.2740(7)
C25D C 0.8490(7) 0.5571(5) 0.2906(6)
O1E O 0.4637(4) 0.0858(3) 0.2349(3)
O2E O 0.4779(3) 0.0591(3) 0.3077(3)
O3E O 0.0874(5) 0.4639(5) 0.2343(3)
O4E O 0.0612(3) 0.4797(3) 0.3078(3)
C1E C 0.4653(7) 0.0950(6) 0.2763(5)
C2E C 0.4248(7) 0.4245(7) 0.4199(6)
C3E C 0.4454(5) 0.1515(5) 0.2900(5)
C4E C 0.4068(6) 0.2598(6) 0.3210(6)
C5E C 0.4223(7) 0.4193(6) 0.4633(6)
C6E C 0.4205(4) 0.1909(4) 0.2618(4)
H1E H 0.4169 0.1814 0.2306
C7E C 0.2609(7) 0.4075(5) 0.3214(6)
C8E C 0.3862(7) 0.3149(6) 0.3371(5)
C9E C 0.3952(7) 0.3950(6) 0.3849(5)
C10E C 0.3158(7) 0.3865(6) 0.3359(5)
C11E C 0.3375(5) 0.3376(5) 0.3207(4)
H2E H 0.3180 0.3179 0.2974
C12E C 0.3469(6) 0.4158(5) 0.3676(4)
H3E H 0.3340 0.4515 0.3775
C13E C 0.1900(5) 0.4201(5) 0.2620(5)
H4E H 0.1811 0.4175 0.2306
C14E C 0.4655(6) 0.4655(5) 0.4065(5)
C15E C 0.4008(5) 0.2413(5) 0.2750(4)
H5E H 0.3827 0.2650 0.2535
C16E C 0.2421(6) 0.4007(5) 0.2764(5)
H6E H 0.2658 0.3821 0.2552
C17E C 0.4477(5) 0.1691(5) 0.3354(4)
H7E H 0.4617 0.1436 0.3575
C18E C 0.4306(5) 0.2225(6) 0.3495(5)
H8E H 0.4358 0.2328 0.3803
C19E C 0.4162(5) 0.3472(5) 0.3681(4)
H9E H 0.4524 0.3350 0.3776
C20E C 0.2226(7) 0.4299(5) 0.3494(5)
H10E H 0.2325 0.4345 0.3804
C21E C 0.3770(6) 0.3795(4) 0.4778(3)
H11E H 0.3529 0.3584 0.4585
C22E C 0.1688(6) 0.4470(5) 0.3357(5)
H12E H 0.1437 0.4620 0.3578
C23E C 0.4791(5) 0.4790(4) 0.3605(4)
H13E H 0.4628 0.4624 0.3343
C24E C 0.0953(7) 0.4640(5) 0.2740(7)
C25E C 0.1510(7) 0.4429(5) 0.2906(6)
In1D In 0.5000 0.0000 0.24958(4)
Cl1A Cl 0.5629(4) 0.4343(3) 0.5000
In1_2 In 0.5000 1.0000 0.75042(4)
In1B In 0.0000 0.5000 0.74958(4)
In1B_2 In 1.0000 0.5000 0.74958(4)
In1D_2 In 0.5000 1.0000 0.24958(4)
In1F In 0.0000 0.5000 0.25042(4)
In1F_2 In 1.0000 0.5000 0.25042(4)
O1A_2 O 0.5363(4) -0.0858(3) 0.7651(3)
O1D_2 O 0.5363(4) -0.0858(3) 0.2349(3)
O2A_2 O 0.5221(3) -0.0591(3) 0.6923(3)
O2D_2 O 0.5221(3) -0.0591(3) 0.3077(3)
O3B O 0.4126(5) -0.0361(5) 0.7343(3)
O3C O 0.5874(5) 0.0361(5) 0.7343(3)
O3F O 0.5874(5) 0.0361(5) 0.2657(3)
O3G O 0.4126(5) -0.0361(5) 0.2657(3)
O4B O 0.4388(3) -0.0203(3) 0.8078(3)
O4C O 0.5612(3) 0.0203(3) 0.8078(3)
O4F O 0.5612(3) 0.0203(3) 0.1922(3)
O4G O 0.4388(3) -0.0203(3) 0.1922(3)
loop_
_geom_bond_atom_site_label_1
_geom_bond_atom_site_label_2
_geom_bond_site_symmetry_1
_geom_bond_site_symmetry_2
In1 O1 1_555 1_555
Mn1 N1 1_555 1_555
O1 C1 1_555 1_555
N1 C5 1_555 1_555
O2 In1 1_555 1_555
O3 C24 1_555 1_555
O4 C24 1_555 1_555
C1 O2 1_555 1_555
N2 Mn1 1_555 1_555
Cl1 Mn1 1_555 1_555
C2 C5 1_555 1_555
C3 C1 1_555 1_555
C4 C8 1_555 1_555
C5 C21 1_555 1_555
C6 C3 1_555 1_555
H1 C6 1_555 1_555
C7 C10 1_555 1_555
C8 C11 1_555 1_555
C9 C2 1_555 1_555
C10 C11 1_555 1_555
C11 H2 1_555 1_555
C12 C9 1_555 1_555
H3 C12 1_555 1_555
C13 H4 1_555 1_555
C14 N2 1_555 1_555
C15 C4 1_555 1_555
H5 C15 1_555 1_555
C16 C7 1_555 1_555
H6 C16 1_555 1_555
C17 C3 1_555 1_555
H7 C17 1_555 1_555
C18 C4 1_555 1_555
H8 C18 1_555 1_555
C19 C8 1_555 1_555
H9 C19 1_555 1_555
C20 C7 1_555 1_555
H10 C20 1_555 1_555
C21 H11 1_555 1_555
C22 C20 1_555 1_555
H12 C22 1_555 1_555
C23 C14 1_555 1_555
H13 C23 1_555 1_555
C24 C25 1_555 1_555
C25 C13 1_555 1_555
O1A C1A 1_555 1_555
N1A Mn1 1_555 1_555
O2A C1A 1_555 1_555
O3A C24A 1_555 1_555
O4A C24A 1_555 1_555
C1A C3A 1_555 1_555
C2A C5A 1_555 1_555
C3A C6A 1_555 1_555
C4A C8A 1_555 1_555
C5A N1A 1_555 1_555
C6A H1A 1_555 1_555
C7A C10A 1_555 1_555
C8A C11A 1_555 1_555
C9A C2A 1_555 1_555
C10A C11A 1_555 1_555
C11A H2A 1_555 1_555
C12A C9A 1_555 1_555
H3A C12A 1_555 1_555
C13A H4A 1_555 1_555
C14A N2 1_555 1_555
C15A C4A 1_555 1_555
H5A C15A 1_555 1_555
C16A C7A 1_555 1_555
H6A C16A 1_555 1_555
C17A C3A 1_555 1_555
H7A C17A 1_555 1_555
C18A C4A 1_555 1_555
H8A C18A 1_555 1_555
C19A C8A 1_555 1_555
H9A C19A 1_555 1_555
C20A C7A 1_555 1_555
H10A C20A 1_555 1_555
C21A C5A 1_555 1_555
H11A C21A 1_555 1_555
C22A C20A 1_555 1_555
H12A C22A 1_555 1_555
C23A C23 1_555 1_555
H13A C23A 1_555 1_555
C24A C25A 1_555 1_555
C25A C13A 1_555 1_555
O1D C1D 1_555 1_555
O2D C1D 1_555 1_555
O3D C24D 1_555 1_555
O4D C24D 1_555 1_555
C1D C3D 1_555 1_555
N2D Mn1 1_555 1_555
C2D C5D 1_555 1_555
C3D C6D 1_555 1_555
C4D C8D 1_555 1_555
C5D N1A 1_555 1_555
C6D H1D 1_555 1_555
C7D C10D 1_555 1_555
C8D C11D 1_555 1_555
C9D C2D 1_555 1_555
C10D C11D 1_555 1_555
C11D H2D 1_555 1_555
C12D C9D 1_555 1_555
H3D C12D 1_555 1_555
C13D H4D 1_555 1_555
C14D N2D 1_555 1_555
C15D C4D 1_555 1_555
H5D C15D 1_555 1_555
C16D C7D 1_555 1_555
H6D C16D 1_555 1_555
C17D C3D 1_555 1_555
H7D C17D 1_555 1_555
C18D C4D 1_555 1_555
H8D C18D 1_555 1_555
C19D C8D 1_555 1_555
H9D C19D 1_555 1_555
C20D C7D 1_555 1_555
H10D C20D 1_555 1_555
C21D C21A 1_555 1_555
H11D C21D 1_555 1_555
C22D C20D 1_555 1_555
H12D C22D 1_555 1_555
C23D C14D 1_555 1_555
H13D C23D 1_555 1_555
C24D C25D 1_555 1_555
C25D C13D 1_555 1_555
O1E C1E 1_555 1_555
O2E C1E 1_555 1_555
O3E C24E 1_555 1_555
O4E C24E 1_555 1_555
C1E C3E 1_555 1_555
C2E C5E 1_555 1_555
C3E C6E 1_555 1_555
C4E C8E 1_555 1_555
C5E N1 1_555 1_555
C6E H1E 1_555 1_555
C7E C10E 1_555 1_555
C8E C11E 1_555 1_555
C9E C2E 1_555 1_555
C10E C11E 1_555 1_555
C11E H2E 1_555 1_555
C12E C9E 1_555 1_555
H3E C12E 1_555 1_555
C13E H4E 1_555 1_555
C14E N2D 1_555 1_555
C15E C4E 1_555 1_555
H5E C15E 1_555 1_555
C16E C7E 1_555 1_555
H6E C16E 1_555 1_555
C17E C3E 1_555 1_555
H7E C17E 1_555 1_555
C18E C4E 1_555 1_555
H8E C18E 1_555 1_555
C19E C8E 1_555 1_555
H9E C19E 1_555 1_555
C20E C7E 1_555 1_555
H10E C20E 1_555 1_555
C21E C21 1_555 1_555
H11E C21E 1_555 1_555
C22E C20E 1_555 1_555
H12E C22E 1_555 1_555
C23E C23D 1_555 1_555
H13E C23E 1_555 1_555
C24E C25E 1_555 1_555
C25E C13E 1_555 1_555
In1D O1E 1_555 1_555
Cl1A Mn1 1_555 1_555
In1_2 O1A 1_555 1_555
In1B O3 1_555 1_555
In1B_2 O3A 1_555 1_555
In1D_2 O1D 1_555 1_555
In1F O3E 1_555 1_555
In1F_2 O3D 1_555 1_555
O1A_2 In1 1_555 1_555
O1D_2 In1D 1_555 1_555
O2A_2 In1 1_555 1_555
O2D_2 In1D 1_555 1_555
O3B In1 1_555 1_555
O3C In1 1_555 1_555
O3F In1D 1_555 1_555
O3G In1D 1_555 1_555
O4B In1 1_555 1_555
O4C In1 1_555 1_555
O4F In1D 1_555 1_555
O4G In1D 1_555 1_555
O4 In1B 1_555 1_555
C2 C14 1_555 1_555
C6 C15 1_555 1_555
C9 C19 1_555 1_555
C10 C12 1_555 1_555
C13 C16 1_555 1_555
C17 C18 1_555 1_555
C22 C25 1_555 1_555
O2A In1_2 1_555 1_555
O4A In1B_2 1_555 1_555
C2A C14A 1_555 1_555
C6A C15A 1_555 1_555
C9A C19A 1_555 1_555
C10A C12A 1_555 1_555
C13A C16A 1_555 1_555
C14A C23A 1_555 1_555
C17A C18A 1_555 1_555
C22A C25A 1_555 1_555
O2D In1D_2 1_555 1_555
O4D In1F_2 1_555 1_555
C2D C14D 1_555 1_555
C5D C21D 1_555 1_555
C6D C15D 1_555 1_555
C9D C19D 1_555 1_555
C10D C12D 1_555 1_555
C13D C16D 1_555 1_555
C17D C18D 1_555 1_555
C22D C25D 1_555 1_555
O2E In1D 1_555 1_555
O4E In1F 1_555 1_555
C2E C14E 1_555 1_555
C5E C21E 1_555 1_555
C6E C15E 1_555 1_555
C9E C19E 1_555 1_555
C10E C12E 1_555 1_555
C13E C16E 1_555 1_555
C14E C23E 1_555 1_555
C17E C18E 1_555 1_555
C22E C25E 1_555 1_555

#END
