
#######################################################################
#
#                 Cambridge Crystallographic Data Centre
#                                CCDC 
#
#######################################################################
#
# If this CIF has been generated from an entry in the Cambridge 
# Structural Database, then it will include bibliographic, chemical, 
# crystal, experimental, refinement or atomic coordinate data resulting 
# from the CCDC's data processing and validation procedures.
#
#######################################################################

data_AWUNOX
_chemical_formula_moiety         'C100 H52 Cl2 Fe1 In8 N4 O28'
_symmetry_cell_setting           orthorhombic
_symmetry_space_group_name_H-M   'P n n m'
_symmetry_Int_Tables_number      58
_space_group_name_Hall           '-P 2 2n'
loop_
_symmetry_equiv_pos_site_id
_symmetry_equiv_pos_as_xyz
1 x,y,z
2 -x,-y,z
3 1/2-x,1/2+y,1/2-z
4 1/2+x,1/2-y,1/2-z
5 -x,-y,-z
6 x,y,-z
7 1/2+x,1/2-y,1/2+z
8 1/2-x,1/2+y,1/2+z
_cell_length_a                   23.412(6)
_cell_length_b                   23.428(6)
_cell_length_c                   32.108(9)
_cell_angle_alpha                90
_cell_angle_beta                 90
_cell_angle_gamma                90
_cell_volume                     17611.1
loop_
_atom_site_label
_atom_site_type_symbol
_atom_site_fract_x
_atom_site_fract_y
_atom_site_fract_z
In1 In 0.5000 0.0000 0.75015(3)
Fe1 Fe 0.5000 0.5000 0.5000
O1 O 0.4672(4) 0.0909(2) 0.7591(3)
N1 N 0.4408(4) 0.4406(4) 0.5000
O2 O 0.4825(4) 0.0610(3) 0.6956(3)
O3 O 0.0910(3) 0.4692(3) 0.7593(3)
O4 O 0.0602(3) 0.4832(4) 0.6951(3)
C1 C 0.4665(6) 0.0995(6) 0.7184(4)
N2 N 0.5000 0.5000 0.5622(3)
C2 C 0.4267(4) 0.4263(4) 0.5764(3)
C3 C 0.4483(4) 0.1559(5) 0.7016(4)
C4 C 0.4103(4) 0.2609(4) 0.6718(4)
C5 C 0.4164(4) 0.4148(3) 0.5344(3)
C6 C 0.4280(5) 0.1971(5) 0.7314(3)
H1 H 0.4283 0.1896 0.7598
C7 C 0.2615(5) 0.4102(4) 0.6733(4)
C8 C 0.3860(4) 0.3155(3) 0.6565(3)
C9 C 0.3940(4) 0.3942(4) 0.6100(3)
C10 C 0.3163(4) 0.3872(4) 0.6570(3)
C11 C 0.3380(4) 0.3385(3) 0.6725(3)
H2 H 0.3196 0.3204 0.6945
C12 C 0.3423(4) 0.4172(4) 0.6249(3)
H3 H 0.3265 0.4503 0.6139
C13 C 0.1963(5) 0.4264(5) 0.7328(4)
H4 H 0.1885 0.4253 0.7612
C14 C 0.4679(4) 0.4673(4) 0.5910(4)
C15 C 0.4066(4) 0.2516(4) 0.7149(4)
H5 H 0.3911 0.2791 0.7325
C16 C 0.2502(5) 0.4067(4) 0.7164(4)
H6 H 0.2776 0.3917 0.7342
C17 C 0.4525(5) 0.1692(4) 0.6616(4)
H7 H 0.4675 0.1421 0.6434
C18 C 0.4355(4) 0.2219(4) 0.6454(4)
H8 H 0.4410 0.2305 0.6174
C19 C 0.4162(4) 0.3430(3) 0.6260(3)
H9 H 0.4505 0.3282 0.6161
C20 C 0.2227(4) 0.4337(4) 0.6463(4)
H10 H 0.2319 0.4383 0.6183
C21 C 0.3721(4) 0.3718(4) 0.5209(2)
H11 H 0.3492 0.3496 0.5381
C22 C 0.1683(4) 0.4510(4) 0.6613(4)
H12 H 0.1411 0.4647 0.6426
C23 C 0.4816(5) 0.4804(4) 0.6348(3)
H13 H 0.4659 0.4629 0.6581
C24 C 0.0975(7) 0.4654(5) 0.7173(6)
C25 C 0.1550(5) 0.4478(4) 0.7033(4)
Cl1 Cl 0.4348(4) 0.5679(4) 0.5000
O1A O 0.5328(4) 0.9091(2) 0.7591(3)
N1A N 0.5592(4) 0.5594(4) 0.5000
O2A O 0.5175(4) 0.9390(3) 0.6956(3)
O3A O 0.9090(3) 0.5308(3) 0.7593(3)
O4A O 0.9398(3) 0.5168(4) 0.6951(3)
C1A C 0.5335(6) 0.9005(6) 0.7184(4)
C2A C 0.5733(4) 0.5737(4) 0.5764(3)
C3A C 0.5517(4) 0.8441(5) 0.7016(4)
C4A C 0.5897(4) 0.7391(4) 0.6718(4)
C5A C 0.5836(4) 0.5852(3) 0.5344(3)
C6A C 0.5720(5) 0.8029(5) 0.7314(3)
H1A H 0.5717 0.8104 0.7598
C7A C 0.7385(5) 0.5898(4) 0.6733(4)
C8A C 0.6140(4) 0.6845(3) 0.6565(3)
C9A C 0.6060(4) 0.6058(4) 0.6100(3)
C10A C 0.6837(4) 0.6128(4) 0.6570(3)
C11A C 0.6620(4) 0.6615(3) 0.6725(3)
H2A H 0.6804 0.6796 0.6945
C12A C 0.6577(4) 0.5828(4) 0.6249(3)
H3A H 0.6735 0.5497 0.6139
C13A C 0.8037(5) 0.5736(5) 0.7328(4)
H4A H 0.8115 0.5747 0.7612
C14A C 0.5321(4) 0.5327(4) 0.5910(4)
C15A C 0.5934(4) 0.7484(4) 0.7149(4)
H5A H 0.6089 0.7209 0.7325
C16A C 0.7498(5) 0.5933(4) 0.7164(4)
H6A H 0.7224 0.6083 0.7342
C17A C 0.5475(5) 0.8308(4) 0.6616(4)
H7A H 0.5325 0.8579 0.6434
C18A C 0.5645(4) 0.7781(4) 0.6454(4)
H8A H 0.5590 0.7695 0.6174
C19A C 0.5838(4) 0.6570(3) 0.6260(3)
H9A H 0.5495 0.6718 0.6161
C20A C 0.7773(4) 0.5663(4) 0.6463(4)
H10A H 0.7681 0.5617 0.6183
C21A C 0.6279(4) 0.6282(4) 0.5209(2)
H11A H 0.6508 0.6504 0.5381
C22A C 0.8317(4) 0.5490(4) 0.6613(4)
H12A H 0.8589 0.5353 0.6426
C23A C 0.5184(5) 0.5196(4) 0.6348(3)
H13A H 0.5341 0.5371 0.6581
C24A C 0.9025(7) 0.5346(5) 0.7173(6)
C25A C 0.8450(5) 0.5522(4) 0.7033(4)
O1D O 0.5328(4) 0.9091(2) 0.2409(3)
O2D O 0.5175(4) 0.9390(3) 0.3044(3)
O3D O 0.9090(3) 0.5308(3) 0.2407(3)
O4D O 0.9398(3) 0.5168(4) 0.3049(3)
C1D C 0.5335(6) 0.9005(6) 0.2816(4)
N2D N 0.5000 0.5000 0.4378(3)
C2D C 0.5733(4) 0.5737(4) 0.4236(3)
C3D C 0.5517(4) 0.8441(5) 0.2984(4)
C4D C 0.5897(4) 0.7391(4) 0.3282(4)
C5D C 0.5836(4) 0.5852(3) 0.4656(3)
C6D C 0.5720(5) 0.8029(5) 0.2686(3)
H1D H 0.5717 0.8104 0.2402
C7D C 0.7385(5) 0.5898(4) 0.3267(4)
C8D C 0.6140(4) 0.6845(3) 0.3435(3)
C9D C 0.6060(4) 0.6058(4) 0.3900(3)
C10D C 0.6837(4) 0.6128(4) 0.3430(3)
C11D C 0.6620(4) 0.6615(3) 0.3275(3)
H2D H 0.6804 0.6796 0.3055
C12D C 0.6577(4) 0.5828(4) 0.3751(3)
H3D H 0.6735 0.5497 0.3861
C13D C 0.8037(5) 0.5736(5) 0.2672(4)
H4D H 0.8115 0.5747 0.2388
C14D C 0.5321(4) 0.5327(4) 0.4090(4)
C15D C 0.5934(4) 0.7484(4) 0.2851(4)
H5D H 0.6089 0.7209 0.2675
C16D C 0.7498(5) 0.5933(4) 0.2836(4)
H6D H 0.7224 0.6083 0.2658
C17D C 0.5475(5) 0.8308(4) 0.3384(4)
H7D H 0.5325 0.8579 0.3566
C18D C 0.5645(4) 0.7781(4) 0.3546(4)
H8D H 0.5590 0.7695 0.3826
C19D C 0.5838(4) 0.6570(3) 0.3740(3)
H9D H 0.5495 0.6718 0.3839
C20D C 0.7773(4) 0.5663(4) 0.3537(4)
H10D H 0.7681 0.5617 0.3817
C21D C 0.6279(4) 0.6282(4) 0.4791(2)
H11D H 0.6508 0.6504 0.4619
C22D C 0.8317(4) 0.5490(4) 0.3387(4)
H12D H 0.8589 0.5353 0.3574
C23D C 0.5184(5) 0.5196(4) 0.3652(3)
H13D H 0.5341 0.5371 0.3419
C24D C 0.9025(7) 0.5346(5) 0.2827(6)
C25D C 0.8450(5) 0.5522(4) 0.2967(4)
O1E O 0.4672(4) 0.0909(2) 0.2409(3)
O2E O 0.4825(4) 0.0610(3) 0.3044(3)
O3E O 0.0910(3) 0.4692(3) 0.2407(3)
O4E O 0.0602(3) 0.4832(4) 0.3049(3)
C1E C 0.4665(6) 0.0995(6) 0.2816(4)
C2E C 0.4267(4) 0.4263(4) 0.4236(3)
C3E C 0.4483(4) 0.1559(5) 0.2984(4)
C4E C 0.4103(4) 0.2609(4) 0.3282(4)
C5E C 0.4164(4) 0.4148(3) 0.4656(3)
C6E C 0.4280(5) 0.1971(5) 0.2686(3)
H1E H 0.4283 0.1896 0.2402
C7E C 0.2615(5) 0.4102(4) 0.3267(4)
C8E C 0.3860(4) 0.3155(3) 0.3435(3)
C9E C 0.3940(4) 0.3942(4) 0.3900(3)
C10E C 0.3163(4) 0.3872(4) 0.3430(3)
C11E C 0.3380(4) 0.3385(3) 0.3275(3)
H2E H 0.3196 0.3204 0.3055
C12E C 0.3423(4) 0.4172(4) 0.3751(3)
H3E H 0.3265 0.4503 0.3861
C13E C 0.1963(5) 0.4264(5) 0.2672(4)
H4E H 0.1885 0.4253 0.2388
C14E C 0.4679(4) 0.4673(4) 0.4090(4)
C15E C 0.4066(4) 0.2516(4) 0.2851(4)
H5E H 0.3911 0.2791 0.2675
C16E C 0.2502(5) 0.4067(4) 0.2836(4)
H6E H 0.2776 0.3917 0.2658
C17E C 0.4525(5) 0.1692(4) 0.3384(4)
H7E H 0.4675 0.1421 0.3566
C18E C 0.4355(4) 0.2219(4) 0.3546(4)
H8E H 0.4410 0.2305 0.3826
C19E C 0.4162(4) 0.3430(3) 0.3740(3)
H9E H 0.4505 0.3282 0.3839
C20E C 0.2227(4) 0.4337(4) 0.3537(4)
H10E H 0.2319 0.4383 0.3817
C21E C 0.3721(4) 0.3718(4) 0.4791(2)
H11E H 0.3492 0.3496 0.4619
C22E C 0.1683(4) 0.4510(4) 0.3387(4)
H12E H 0.1411 0.4647 0.3574
C23E C 0.4816(5) 0.4804(4) 0.3652(3)
H13E H 0.4659 0.4629 0.3419
C24E C 0.0975(7) 0.4654(5) 0.2827(6)
C25E C 0.1550(5) 0.4478(4) 0.2967(4)
In1D In 0.5000 0.0000 0.24985(3)
Cl1A Cl 0.5652(4) 0.4321(4) 0.5000
In1_2 In 0.5000 1.0000 0.75015(3)
In1B In 0.0000 0.5000 0.74985(3)
In1B_2 In 1.0000 0.5000 0.74985(3)
In1D_2 In 0.5000 1.0000 0.24985(3)
In1F In 0.0000 0.5000 0.25015(3)
In1F_2 In 1.0000 0.5000 0.25015(3)
O1A_2 O 0.5328(4) -0.0909(2) 0.7591(3)
O1D_2 O 0.5328(4) -0.0909(2) 0.2409(3)
O2A_2 O 0.5175(4) -0.0610(3) 0.6956(3)
O2D_2 O 0.5175(4) -0.0610(3) 0.3044(3)
O3B O 0.4090(3) -0.0308(3) 0.7407(3)
O3C O 0.5910(3) 0.0308(3) 0.7407(3)
O3F O 0.5910(3) 0.0308(3) 0.2593(3)
O3G O 0.4090(3) -0.0308(3) 0.2593(3)
O4B O 0.4398(3) -0.0168(4) 0.8049(3)
O4C O 0.5602(3) 0.0168(4) 0.8049(3)
O4F O 0.5602(3) 0.0168(4) 0.1951(3)
O4G O 0.4398(3) -0.0168(4) 0.1951(3)
loop_
_geom_bond_atom_site_label_1
_geom_bond_atom_site_label_2
_geom_bond_site_symmetry_1
_geom_bond_site_symmetry_2
In1 O1 1_555 1_555
Fe1 N1 1_555 1_555
O1 C1 1_555 1_555
N1 C5 1_555 1_555
O2 In1 1_555 1_555
O3 C24 1_555 1_555
O4 C24 1_555 1_555
C1 O2 1_555 1_555
N2 Fe1 1_555 1_555
C2 C5 1_555 1_555
C3 C1 1_555 1_555
C4 C8 1_555 1_555
C5 C21 1_555 1_555
C6 C3 1_555 1_555
H1 C6 1_555 1_555
C7 C10 1_555 1_555
C8 C11 1_555 1_555
C9 C2 1_555 1_555
C10 C11 1_555 1_555
C11 H2 1_555 1_555
C12 C9 1_555 1_555
H3 C12 1_555 1_555
C13 H4 1_555 1_555
C14 N2 1_555 1_555
C15 C4 1_555 1_555
H5 C15 1_555 1_555
C16 C7 1_555 1_555
H6 C16 1_555 1_555
C17 C3 1_555 1_555
H7 C17 1_555 1_555
C18 C4 1_555 1_555
H8 C18 1_555 1_555
C19 C8 1_555 1_555
H9 C19 1_555 1_555
C20 C7 1_555 1_555
H10 C20 1_555 1_555
C21 H11 1_555 1_555
C22 C20 1_555 1_555
H12 C22 1_555 1_555
C23 C14 1_555 1_555
H13 C23 1_555 1_555
C24 C25 1_555 1_555
C25 C13 1_555 1_555
Cl1 Fe1 1_555 1_555
O1A C1A 1_555 1_555
N1A Fe1 1_555 1_555
O2A C1A 1_555 1_555
O3A C24A 1_555 1_555
O4A C24A 1_555 1_555
C1A C3A 1_555 1_555
C2A C5A 1_555 1_555
C3A C6A 1_555 1_555
C4A C8A 1_555 1_555
C5A N1A 1_555 1_555
C6A H1A 1_555 1_555
C7A C10A 1_555 1_555
C8A C11A 1_555 1_555
C9A C2A 1_555 1_555
C10A C11A 1_555 1_555
C11A H2A 1_555 1_555
C12A C9A 1_555 1_555
H3A C12A 1_555 1_555
C13A H4A 1_555 1_555
C14A N2 1_555 1_555
C15A C4A 1_555 1_555
H5A C15A 1_555 1_555
C16A C7A 1_555 1_555
H6A C16A 1_555 1_555
C17A C3A 1_555 1_555
H7A C17A 1_555 1_555
C18A C4A 1_555 1_555
H8A C18A 1_555 1_555
C19A C8A 1_555 1_555
H9A C19A 1_555 1_555
C20A C7A 1_555 1_555
H10A C20A 1_555 1_555
C21A C5A 1_555 1_555
H11A C21A 1_555 1_555
C22A C20A 1_555 1_555
H12A C22A 1_555 1_555
C23A C23 1_555 1_555
H13A C23A 1_555 1_555
C24A C25A 1_555 1_555
C25A C13A 1_555 1_555
O1D C1D 1_555 1_555
O2D C1D 1_555 1_555
O3D C24D 1_555 1_555
O4D C24D 1_555 1_555
C1D C3D 1_555 1_555
N2D Fe1 1_555 1_555
C2D C5D 1_555 1_555
C3D C6D 1_555 1_555
C4D C8D 1_555 1_555
C5D N1A 1_555 1_555
C6D H1D 1_555 1_555
C7D C10D 1_555 1_555
C8D C11D 1_555 1_555
C9D C2D 1_555 1_555
C10D C11D 1_555 1_555
C11D H2D 1_555 1_555
C12D C9D 1_555 1_555
H3D C12D 1_555 1_555
C13D H4D 1_555 1_555
C14D N2D 1_555 1_555
C15D C4D 1_555 1_555
H5D C15D 1_555 1_555
C16D C7D 1_555 1_555
H6D C16D 1_555 1_555
C17D C3D 1_555 1_555
H7D C17D 1_555 1_555
C18D C4D 1_555 1_555
H8D C18D 1_555 1_555
C19D C8D 1_555 1_555
H9D C19D 1_555 1_555
C20D C7D 1_555 1_555
H10D C20D 1_555 1_555
C21D C21A 1_555 1_555
H11D C21D 1_555 1_555
C22D C20D 1_555 1_555
H12D C22D 1_555 1_555
C23D C14D 1_555 1_555
H13D C23D 1_555 1_555
C24D C25D 1_555 1_555
C25D C13D 1_555 1_555
O1E C1E 1_555 1_555
O2E C1E 1_555 1_555
O3E C24E 1_555 1_555
O4E C24E 1_555 1_555
C1E C3E 1_555 1_555
C2E C5E 1_555 1_555
C3E C6E 1_555 1_555
C4E C8E 1_555 1_555
C5E N1 1_555 1_555
C6E H1E 1_555 1_555
C7E C10E 1_555 1_555
C8E C11E 1_555 1_555
C9E C2E 1_555 1_555
C10E C11E 1_555 1_555
C11E H2E 1_555 1_555
C12E C9E 1_555 1_555
H3E C12E 1_555 1_555
C13E H4E 1_555 1_555
C14E N2D 1_555 1_555
C15E C4E 1_555 1_555
H5E C15E 1_555 1_555
C16E C7E 1_555 1_555
H6E C16E 1_555 1_555
C17E C3E 1_555 1_555
H7E C17E 1_555 1_555
C18E C4E 1_555 1_555
H8E C18E 1_555 1_555
C19E C8E 1_555 1_555
H9E C19E 1_555 1_555
C20E C7E 1_555 1_555
H10E C20E 1_555 1_555
C21E C21 1_555 1_555
H11E C21E 1_555 1_555
C22E C20E 1_555 1_555
H12E C22E 1_555 1_555
C23E C23D 1_555 1_555
H13E C23E 1_555 1_555
C24E C25E 1_555 1_555
C25E C13E 1_555 1_555
In1D O1E 1_555 1_555
Cl1A Fe1 1_555 1_555
In1_2 O1A 1_555 1_555
In1B O3 1_555 1_555
In1B_2 O3A 1_555 1_555
In1D_2 O1D 1_555 1_555
In1F O3E 1_555 1_555
In1F_2 O3D 1_555 1_555
O1A_2 In1 1_555 1_555
O1D_2 In1D 1_555 1_555
O2A_2 In1 1_555 1_555
O2D_2 In1D 1_555 1_555
O3B In1 1_555 1_555
O3C In1 1_555 1_555
O3F In1D 1_555 1_555
O3G In1D 1_555 1_555
O4B In1 1_555 1_555
O4C In1 1_555 1_555
O4F In1D 1_555 1_555
O4G In1D 1_555 1_555
O4 In1B 1_555 1_555
C2 C14 1_555 1_555
C6 C15 1_555 1_555
C9 C19 1_555 1_555
C10 C12 1_555 1_555
C13 C16 1_555 1_555
C17 C18 1_555 1_555
C22 C25 1_555 1_555
O2A In1_2 1_555 1_555
O4A In1B_2 1_555 1_555
C2A C14A 1_555 1_555
C6A C15A 1_555 1_555
C9A C19A 1_555 1_555
C10A C12A 1_555 1_555
C13A C16A 1_555 1_555
C14A C23A 1_555 1_555
C17A C18A 1_555 1_555
C22A C25A 1_555 1_555
O2D In1D_2 1_555 1_555
O4D In1F_2 1_555 1_555
C2D C14D 1_555 1_555
C5D C21D 1_555 1_555
C6D C15D 1_555 1_555
C9D C19D 1_555 1_555
C10D C12D 1_555 1_555
C13D C16D 1_555 1_555
C17D C18D 1_555 1_555
C22D C25D 1_555 1_555
O2E In1D 1_555 1_555
O4E In1F 1_555 1_555
C2E C14E 1_555 1_555
C5E C21E 1_555 1_555
C6E C15E 1_555 1_555
C9E C19E 1_555 1_555
C10E C12E 1_555 1_555
C13E C16E 1_555 1_555
C14E C23E 1_555 1_555
C17E C18E 1_555 1_555
C22E C25E 1_555 1_555

#END
