
#######################################################################
#
#                 Cambridge Crystallographic Data Centre
#                                CCDC 
#
#######################################################################
#
# If this CIF has been generated from an entry in the Cambridge 
# Structural Database, then it will include bibliographic, chemical, 
# crystal, experimental, refinement or atomic coordinate data resulting 
# from the CCDC's data processing and validation procedures.
#
#######################################################################

data_AWUPAL
_chemical_formula_moiety         'C100 H52 Fe1 In8 N4 O30'
_symmetry_cell_setting           orthorhombic
_symmetry_space_group_name_H-M   'P n n m'
_symmetry_Int_Tables_number      58
_space_group_name_Hall           '-P 2 2n'
loop_
_symmetry_equiv_pos_site_id
_symmetry_equiv_pos_as_xyz
1 x,y,z
2 -x,-y,z
3 1/2-x,1/2+y,1/2-z
4 1/2+x,1/2-y,1/2-z
5 -x,-y,-z
6 x,y,-z
7 1/2+x,1/2-y,1/2+z
8 1/2-x,1/2+y,1/2+z
_cell_length_a                   23.4897(13)
_cell_length_b                   23.4895(13)
_cell_length_c                   31.9645(18)
_cell_angle_alpha                90
_cell_angle_beta                 90
_cell_angle_gamma                90
_cell_volume                     17636.8
loop_
_atom_site_label
_atom_site_type_symbol
_atom_site_fract_x
_atom_site_fract_y
_atom_site_fract_z
In1 In 0.5000 0.0000 0.750024(13)
Fe1 Fe 0.5000 0.5000 0.5000
O1 O 0.46869(16) 0.09080(15) 0.75980(11)
N1 N 0.43900(18) 0.43932(18) 0.5000
O2 O 0.48198(14) 0.06052(14) 0.69527(11)
O3 O 0.09091(14) 0.46929(17) 0.75965(12)
O4 O 0.06031(14) 0.48235(15) 0.69501(11)
C1 C 0.46815(19) 0.0986(2) 0.7210(2)
N2 N 0.5000 0.5000 0.56278(15)
O5 O 0.4318(2) 0.5688(3) 0.5000
C2 C 0.42662(17) 0.42644(18) 0.57546(13)
C3 C 0.44914(19) 0.15638(19) 0.70379(16)
C4 C 0.4102(2) 0.2607(2) 0.67367(15)
C5 C 0.41443(17) 0.41480(18) 0.53514(13)
C6 C 0.4286(2) 0.1962(2) 0.73131(17)
H1 H 0.4280 0.1887 0.7599
C7 C 0.26051(19) 0.4102(2) 0.67362(16)
C8 C 0.38833(18) 0.31548(18) 0.65720(13)
C9 C 0.39533(18) 0.39491(18) 0.60991(12)
C10 C 0.31543(18) 0.3878(2) 0.65686(14)
C11 C 0.33876(19) 0.3388(2) 0.67228(14)
H2 H 0.3201 0.3203 0.6941
C12 C 0.34408(19) 0.41692(19) 0.62515(13)
H3 H 0.3293 0.4505 0.6143
C13 C 0.1975(2) 0.4290(3) 0.73225(17)
H4 H 0.1906 0.4296 0.7609
C14 C 0.46718(17) 0.46760(18) 0.58927(12)
C15 C 0.4083(2) 0.2493(2) 0.71568(16)
H5 H 0.3936 0.2763 0.7341
C16 C 0.2484(2) 0.4079(3) 0.71670(17)
H6 H 0.2749 0.3922 0.7350
C17 C 0.4507(2) 0.1674(2) 0.66141(16)
H7 H 0.4636 0.1397 0.6429
C18 C 0.4330(2) 0.2198(2) 0.64666(17)
H8 H 0.4364 0.2281 0.6183
C19 C 0.41758(18) 0.34379(19) 0.62541(13)
H9 H 0.4513 0.3290 0.6147
C20 C 0.2190(2) 0.4340(2) 0.64644(17)
H10 H 0.2267 0.4371 0.6180
C21 C 0.3743(2) 0.3744(2) 0.52101(12)
H11 H 0.3516 0.3515 0.5380
C22 C 0.1680(2) 0.4524(2) 0.66173(17)
H12 H 0.1408 0.4670 0.6435
C23 C 0.4795(2) 0.4798(2) 0.63117(15)
H13 H 0.4627 0.4632 0.6545
C24 C 0.0980(2) 0.4683(2) 0.7207(2)
C25 C 0.15644(19) 0.4493(2) 0.70381(17)
O1A O 0.53131(16) 0.90920(15) 0.75980(11)
N1A N 0.56100(18) 0.56068(18) 0.5000
O2A O 0.51802(14) 0.93948(14) 0.69527(11)
O3A O 0.90909(14) 0.53071(17) 0.75965(12)
O4A O 0.93969(14) 0.51765(15) 0.69501(11)
C1A C 0.53185(19) 0.9014(2) 0.7210(2)
C2A C 0.57338(17) 0.57356(18) 0.57546(13)
C3A C 0.55086(19) 0.84362(19) 0.70379(16)
C4A C 0.5898(2) 0.7393(2) 0.67367(15)
C5A C 0.58557(17) 0.58520(18) 0.53514(13)
C6A C 0.5714(2) 0.8038(2) 0.73131(17)
H1A H 0.5720 0.8113 0.7599
C7A C 0.73949(19) 0.5898(2) 0.67362(16)
C8A C 0.61167(18) 0.68452(18) 0.65720(13)
C9A C 0.60467(18) 0.60509(18) 0.60991(12)
C10A C 0.68457(18) 0.6122(2) 0.65686(14)
C11A C 0.66124(19) 0.6612(2) 0.67228(14)
H2A H 0.6799 0.6797 0.6941
C12A C 0.65592(19) 0.58308(19) 0.62515(13)
H3A H 0.6707 0.5495 0.6143
C13A C 0.8025(2) 0.5710(3) 0.73225(17)
H4A H 0.8094 0.5704 0.7609
C14A C 0.53282(17) 0.53240(18) 0.58927(12)
C15A C 0.5917(2) 0.7507(2) 0.71568(16)
H5A H 0.6064 0.7237 0.7341
C16A C 0.7516(2) 0.5921(3) 0.71670(17)
H6A H 0.7251 0.6078 0.7350
C17A C 0.5493(2) 0.8326(2) 0.66141(16)
H7A H 0.5364 0.8603 0.6429
C18A C 0.5670(2) 0.7802(2) 0.64666(17)
H8A H 0.5636 0.7719 0.6183
C19A C 0.58242(18) 0.65621(19) 0.62541(13)
H9A H 0.5487 0.6710 0.6147
C20A C 0.7810(2) 0.5660(2) 0.64644(17)
H10A H 0.7733 0.5629 0.6180
C21A C 0.6257(2) 0.6256(2) 0.52101(12)
H11A H 0.6484 0.6485 0.5380
C22A C 0.8320(2) 0.5476(2) 0.66173(17)
H12A H 0.8592 0.5330 0.6435
C23A C 0.5205(2) 0.5202(2) 0.63117(15)
H13A H 0.5373 0.5368 0.6545
C24A C 0.9020(2) 0.5317(2) 0.7207(2)
C25A C 0.84356(19) 0.5507(2) 0.70381(17)
O1D O 0.53131(16) 0.90920(15) 0.24020(11)
O2D O 0.51802(14) 0.93948(14) 0.30473(11)
O3D O 0.90909(14) 0.53071(17) 0.24035(12)
O4D O 0.93969(14) 0.51765(15) 0.30499(11)
C1D C 0.53185(19) 0.9014(2) 0.2790(2)
N2D N 0.5000 0.5000 0.43722(15)
C2D C 0.57338(17) 0.57356(18) 0.42454(13)
C3D C 0.55086(19) 0.84362(19) 0.29621(16)
C4D C 0.5898(2) 0.7393(2) 0.32633(15)
C5D C 0.58557(17) 0.58520(18) 0.46486(13)
C6D C 0.5714(2) 0.8038(2) 0.26869(17)
H1D H 0.5720 0.8113 0.2401
C7D C 0.73949(19) 0.5898(2) 0.32638(16)
C8D C 0.61167(18) 0.68452(18) 0.34280(13)
C9D C 0.60467(18) 0.60509(18) 0.39009(12)
C10D C 0.68457(18) 0.6122(2) 0.34314(14)
C11D C 0.66124(19) 0.6612(2) 0.32772(14)
H2D H 0.6799 0.6797 0.3059
C12D C 0.65592(19) 0.58308(19) 0.37485(13)
H3D H 0.6707 0.5495 0.3857
C13D C 0.8025(2) 0.5710(3) 0.26775(17)
H4D H 0.8094 0.5704 0.2391
C14D C 0.53282(17) 0.53240(18) 0.41073(12)
C15D C 0.5917(2) 0.7507(2) 0.28432(16)
H5D H 0.6064 0.7237 0.2659
C16D C 0.7516(2) 0.5921(3) 0.28330(17)
H6D H 0.7251 0.6078 0.2650
C17D C 0.5493(2) 0.8326(2) 0.33859(16)
H7D H 0.5364 0.8603 0.3571
C18D C 0.5670(2) 0.7802(2) 0.35334(17)
H8D H 0.5636 0.7719 0.3817
C19D C 0.58242(18) 0.65621(19) 0.37459(13)
H9D H 0.5487 0.6710 0.3853
C20D C 0.7810(2) 0.5660(2) 0.35356(17)
H10D H 0.7733 0.5629 0.3820
C21D C 0.6257(2) 0.6256(2) 0.47899(12)
H11D H 0.6484 0.6485 0.4620
C22D C 0.8320(2) 0.5476(2) 0.33827(17)
H12D H 0.8592 0.5330 0.3565
C23D C 0.5205(2) 0.5202(2) 0.36883(15)
H13D H 0.5373 0.5368 0.3455
C24D C 0.9020(2) 0.5317(2) 0.2793(2)
C25D C 0.84356(19) 0.5507(2) 0.29619(17)
O1E O 0.46869(16) 0.09080(15) 0.24020(11)
O2E O 0.48198(14) 0.06052(14) 0.30473(11)
O3E O 0.09091(14) 0.46929(17) 0.24035(12)
O4E O 0.06031(14) 0.48235(15) 0.30499(11)
C1E C 0.46815(19) 0.0986(2) 0.2790(2)
C2E C 0.42662(17) 0.42644(18) 0.42454(13)
C3E C 0.44914(19) 0.15638(19) 0.29621(16)
C4E C 0.4102(2) 0.2607(2) 0.32633(15)
C5E C 0.41443(17) 0.41480(18) 0.46486(13)
C6E C 0.4286(2) 0.1962(2) 0.26869(17)
H1E H 0.4280 0.1887 0.2401
C7E C 0.26051(19) 0.4102(2) 0.32638(16)
C8E C 0.38833(18) 0.31548(18) 0.34280(13)
C9E C 0.39533(18) 0.39491(18) 0.39009(12)
C10E C 0.31543(18) 0.3878(2) 0.34314(14)
C11E C 0.33876(19) 0.3388(2) 0.32772(14)
H2E H 0.3201 0.3203 0.3059
C12E C 0.34408(19) 0.41692(19) 0.37485(13)
H3E H 0.3293 0.4505 0.3857
C13E C 0.1975(2) 0.4290(3) 0.26775(17)
H4E H 0.1906 0.4296 0.2391
C14E C 0.46718(17) 0.46760(18) 0.41073(12)
C15E C 0.4083(2) 0.2493(2) 0.28432(16)
H5E H 0.3936 0.2763 0.2659
C16E C 0.2484(2) 0.4079(3) 0.28330(17)
H6E H 0.2749 0.3922 0.2650
C17E C 0.4507(2) 0.1674(2) 0.33859(16)
H7E H 0.4636 0.1397 0.3571
C18E C 0.4330(2) 0.2198(2) 0.35334(17)
H8E H 0.4364 0.2281 0.3817
C19E C 0.41758(18) 0.34379(19) 0.37459(13)
H9E H 0.4513 0.3290 0.3853
C20E C 0.2190(2) 0.4340(2) 0.35356(17)
H10E H 0.2267 0.4371 0.3820
C21E C 0.3743(2) 0.3744(2) 0.47899(12)
H11E H 0.3516 0.3515 0.4620
C22E C 0.1680(2) 0.4524(2) 0.33827(17)
H12E H 0.1408 0.4670 0.3565
C23E C 0.4795(2) 0.4798(2) 0.36883(15)
H13E H 0.4627 0.4632 0.3455
C24E C 0.0980(2) 0.4683(2) 0.2793(2)
C25E C 0.15644(19) 0.4493(2) 0.29619(17)
In1D In 0.5000 0.0000 0.249976(13)
O5A O 0.5682(2) 0.4312(3) 0.5000
In1_2 In 0.5000 1.0000 0.750024(13)
In1B In 0.0000 0.5000 0.749976(13)
In1B_2 In 1.0000 0.5000 0.749976(13)
In1D_2 In 0.5000 1.0000 0.249976(13)
In1F In 0.0000 0.5000 0.250024(13)
In1F_2 In 1.0000 0.5000 0.250024(13)
O1A_2 O 0.53131(16) -0.09080(15) 0.75980(11)
O1D_2 O 0.53131(16) -0.09080(15) 0.24020(11)
O2A_2 O 0.51802(14) -0.06052(14) 0.69527(11)
O2D_2 O 0.51802(14) -0.06052(14) 0.30473(11)
O3B O 0.40909(14) -0.03071(17) 0.74035(12)
O3C O 0.59091(14) 0.03071(17) 0.74035(12)
O3F O 0.59091(14) 0.03071(17) 0.25965(12)
O3G O 0.40909(14) -0.03071(17) 0.25965(12)
O4B O 0.43969(14) -0.01765(15) 0.80499(11)
O4C O 0.56031(14) 0.01765(15) 0.80499(11)
O4F O 0.56031(14) 0.01765(15) 0.19501(11)
O4G O 0.43969(14) -0.01765(15) 0.19501(11)
loop_
_geom_bond_atom_site_label_1
_geom_bond_atom_site_label_2
_geom_bond_site_symmetry_1
_geom_bond_site_symmetry_2
In1 O1 1_555 1_555
Fe1 N1 1_555 1_555
O1 C1 1_555 1_555
N1 C5 1_555 1_555
O2 In1 1_555 1_555
O3 C24 1_555 1_555
O4 C24 1_555 1_555
C1 O2 1_555 1_555
N2 Fe1 1_555 1_555
O5 Fe1 1_555 1_555
C2 C5 1_555 1_555
C3 C1 1_555 1_555
C4 C8 1_555 1_555
C5 C21 1_555 1_555
C6 C3 1_555 1_555
H1 C6 1_555 1_555
C7 C10 1_555 1_555
C8 C11 1_555 1_555
C9 C2 1_555 1_555
C10 C11 1_555 1_555
C11 H2 1_555 1_555
C12 C9 1_555 1_555
H3 C12 1_555 1_555
C13 H4 1_555 1_555
C14 N2 1_555 1_555
C15 C4 1_555 1_555
H5 C15 1_555 1_555
C16 C7 1_555 1_555
H6 C16 1_555 1_555
C17 C3 1_555 1_555
H7 C17 1_555 1_555
C18 C4 1_555 1_555
H8 C18 1_555 1_555
C19 C8 1_555 1_555
H9 C19 1_555 1_555
C20 C7 1_555 1_555
H10 C20 1_555 1_555
C21 H11 1_555 1_555
C22 C20 1_555 1_555
H12 C22 1_555 1_555
C23 C14 1_555 1_555
H13 C23 1_555 1_555
C24 C25 1_555 1_555
C25 C13 1_555 1_555
O1A C1A 1_555 1_555
N1A Fe1 1_555 1_555
O2A C1A 1_555 1_555
O3A C24A 1_555 1_555
O4A C24A 1_555 1_555
C1A C3A 1_555 1_555
C2A C5A 1_555 1_555
C3A C6A 1_555 1_555
C4A C8A 1_555 1_555
C5A N1A 1_555 1_555
C6A H1A 1_555 1_555
C7A C10A 1_555 1_555
C8A C11A 1_555 1_555
C9A C2A 1_555 1_555
C10A C11A 1_555 1_555
C11A H2A 1_555 1_555
C12A C9A 1_555 1_555
H3A C12A 1_555 1_555
C13A H4A 1_555 1_555
C14A N2 1_555 1_555
C15A C4A 1_555 1_555
H5A C15A 1_555 1_555
C16A C7A 1_555 1_555
H6A C16A 1_555 1_555
C17A C3A 1_555 1_555
H7A C17A 1_555 1_555
C18A C4A 1_555 1_555
H8A C18A 1_555 1_555
C19A C8A 1_555 1_555
H9A C19A 1_555 1_555
C20A C7A 1_555 1_555
H10A C20A 1_555 1_555
C21A C5A 1_555 1_555
H11A C21A 1_555 1_555
C22A C20A 1_555 1_555
H12A C22A 1_555 1_555
C23A C23 1_555 1_555
H13A C23A 1_555 1_555
C24A C25A 1_555 1_555
C25A C13A 1_555 1_555
O1D C1D 1_555 1_555
O2D C1D 1_555 1_555
O3D C24D 1_555 1_555
O4D C24D 1_555 1_555
C1D C3D 1_555 1_555
N2D Fe1 1_555 1_555
C2D C5D 1_555 1_555
C3D C6D 1_555 1_555
C4D C8D 1_555 1_555
C5D N1A 1_555 1_555
C6D H1D 1_555 1_555
C7D C10D 1_555 1_555
C8D C11D 1_555 1_555
C9D C2D 1_555 1_555
C10D C11D 1_555 1_555
C11D H2D 1_555 1_555
C12D C9D 1_555 1_555
H3D C12D 1_555 1_555
C13D H4D 1_555 1_555
C14D N2D 1_555 1_555
C15D C4D 1_555 1_555
H5D C15D 1_555 1_555
C16D C7D 1_555 1_555
H6D C16D 1_555 1_555
C17D C3D 1_555 1_555
H7D C17D 1_555 1_555
C18D C4D 1_555 1_555
H8D C18D 1_555 1_555
C19D C8D 1_555 1_555
H9D C19D 1_555 1_555
C20D C7D 1_555 1_555
H10D C20D 1_555 1_555
C21D C21A 1_555 1_555
H11D C21D 1_555 1_555
C22D C20D 1_555 1_555
H12D C22D 1_555 1_555
C23D C14D 1_555 1_555
H13D C23D 1_555 1_555
C24D C25D 1_555 1_555
C25D C13D 1_555 1_555
O1E C1E 1_555 1_555
O2E C1E 1_555 1_555
O3E C24E 1_555 1_555
O4E C24E 1_555 1_555
C1E C3E 1_555 1_555
C2E C5E 1_555 1_555
C3E C6E 1_555 1_555
C4E C8E 1_555 1_555
C5E N1 1_555 1_555
C6E H1E 1_555 1_555
C7E C10E 1_555 1_555
C8E C11E 1_555 1_555
C9E C2E 1_555 1_555
C10E C11E 1_555 1_555
C11E H2E 1_555 1_555
C12E C9E 1_555 1_555
H3E C12E 1_555 1_555
C13E H4E 1_555 1_555
C14E N2D 1_555 1_555
C15E C4E 1_555 1_555
H5E C15E 1_555 1_555
C16E C7E 1_555 1_555
H6E C16E 1_555 1_555
C17E C3E 1_555 1_555
H7E C17E 1_555 1_555
C18E C4E 1_555 1_555
H8E C18E 1_555 1_555
C19E C8E 1_555 1_555
H9E C19E 1_555 1_555
C20E C7E 1_555 1_555
H10E C20E 1_555 1_555
C21E C21 1_555 1_555
H11E C21E 1_555 1_555
C22E C20E 1_555 1_555
H12E C22E 1_555 1_555
C23E C23D 1_555 1_555
H13E C23E 1_555 1_555
C24E C25E 1_555 1_555
C25E C13E 1_555 1_555
In1D O1E 1_555 1_555
O5A Fe1 1_555 1_555
In1_2 O1A 1_555 1_555
In1B O3 1_555 1_555
In1B_2 O3A 1_555 1_555
In1D_2 O1D 1_555 1_555
In1F O3E 1_555 1_555
In1F_2 O3D 1_555 1_555
O1A_2 In1 1_555 1_555
O1D_2 In1D 1_555 1_555
O2A_2 In1 1_555 1_555
O2D_2 In1D 1_555 1_555
O3B In1 1_555 1_555
O3C In1 1_555 1_555
O3F In1D 1_555 1_555
O3G In1D 1_555 1_555
O4B In1 1_555 1_555
O4C In1 1_555 1_555
O4F In1D 1_555 1_555
O4G In1D 1_555 1_555
O4 In1B 1_555 1_555
C2 C14 1_555 1_555
C6 C15 1_555 1_555
C9 C19 1_555 1_555
C10 C12 1_555 1_555
C13 C16 1_555 1_555
C17 C18 1_555 1_555
C22 C25 1_555 1_555
O2A In1_2 1_555 1_555
O4A In1B_2 1_555 1_555
C2A C14A 1_555 1_555
C6A C15A 1_555 1_555
C9A C19A 1_555 1_555
C10A C12A 1_555 1_555
C13A C16A 1_555 1_555
C14A C23A 1_555 1_555
C17A C18A 1_555 1_555
C22A C25A 1_555 1_555
O2D In1D_2 1_555 1_555
O4D In1F_2 1_555 1_555
C2D C14D 1_555 1_555
C5D C21D 1_555 1_555
C6D C15D 1_555 1_555
C9D C19D 1_555 1_555
C10D C12D 1_555 1_555
C13D C16D 1_555 1_555
C17D C18D 1_555 1_555
C22D C25D 1_555 1_555
O2E In1D 1_555 1_555
O4E In1F 1_555 1_555
C2E C14E 1_555 1_555
C5E C21E 1_555 1_555
C6E C15E 1_555 1_555
C9E C19E 1_555 1_555
C10E C12E 1_555 1_555
C13E C16E 1_555 1_555
C14E C23E 1_555 1_555
C17E C18E 1_555 1_555
C22E C25E 1_555 1_555

#END
