
#######################################################################
#
#                 Cambridge Crystallographic Data Centre
#                                CCDC 
#
#######################################################################
#
# If this CIF has been generated from an entry in the Cambridge 
# Structural Database, then it will include bibliographic, chemical, 
# crystal, experimental, refinement or atomic coordinate data resulting 
# from the CCDC's data processing and validation procedures.
#
#######################################################################

data_EKEVAT
_chemical_formula_moiety         '(C20 H16 Er1 N5 O8)n'
_symmetry_cell_setting           monoclinic
_symmetry_space_group_name_H-M   'C 2/c'
_symmetry_Int_Tables_number      15
_space_group_name_Hall           '-C 2yc'
loop_
_symmetry_equiv_pos_site_id
_symmetry_equiv_pos_as_xyz
1 x,y,z
2 -x,y,1/2-z
3 1/2+x,1/2+y,z
4 1/2-x,1/2+y,1/2-z
5 -x,-y,-z
6 x,-y,1/2+z
7 1/2-x,1/2-y,-z
8 1/2+x,1/2-y,1/2+z
_cell_length_a                   19.810(10)
_cell_length_b                   13.153(7)
_cell_length_c                   9.806(5)
_cell_angle_alpha                90
_cell_angle_beta                 113.196(8)
_cell_angle_gamma                90
_cell_volume                     2348.52
loop_
_atom_site_label
_atom_site_type_symbol
_atom_site_fract_x
_atom_site_fract_y
_atom_site_fract_z
Er1 Er 0.0000 0.05874(2) 0.7500
N1 N 0.43144(19) 0.2854(3) 1.1181(4)
N2 N 0.39779(19) 0.2684(3) 0.9707(4)
H1 H 0.4082 0.3010 0.9054
N3 N 0.0000 -0.1634(5) 0.7500
C1 C 0.1140(2) 0.0527(3) 0.5692(4)
C2 C 0.1909(2) 0.0905(3) 0.6081(4)
C3 C 0.2319(2) 0.1273(3) 0.7476(4)
H2 H 0.2115 0.1296 0.8183
C4 C 0.3032(2) 0.1610(4) 0.7844(5)
C5 C 0.3322(3) 0.1592(4) 0.6771(5)
H3 H 0.3800 0.1817 0.7004
C6 C 0.2910(3) 0.1246(5) 0.5362(6)
H4 H 0.3106 0.1257 0.4642
C7 C 0.2209(3) 0.0882(4) 0.5014(5)
H5 H 0.1938 0.0623 0.4073
C8 C 0.3462(2) 0.1950(4) 0.9367(5)
C9 C 0.3464(3) 0.1626(4) 1.0695(5)
H6 H 0.3169 0.1124 1.0842
C10 C 0.3996(3) 0.2197(4) 1.1777(5)
H7 H 0.4116 0.2131 1.2790
O1 O 0.08108(17) 0.0843(3) 0.6470(3)
O2 O 0.08805(15) -0.0076(2) 0.4629(3)
O3 O -0.04069(16) -0.1129(3) 0.7960(3)
O4 O 0.0000 -0.2547(5) 0.7500
O3A O 0.04069(16) -0.1129(3) 0.7040(3)
N1A N -0.43144(19) 0.2854(3) 0.3819(4)
N2A N -0.39779(19) 0.2684(3) 0.5293(4)
H1A H -0.4082 0.3010 0.5946
C1A C -0.1140(2) 0.0527(3) 0.9308(4)
C2A C -0.1909(2) 0.0905(3) 0.8919(4)
C3A C -0.2319(2) 0.1273(3) 0.7524(4)
H2A H -0.2115 0.1296 0.6817
C4A C -0.3032(2) 0.1610(4) 0.7156(5)
C5A C -0.3322(3) 0.1592(4) 0.8229(5)
H3A H -0.3800 0.1817 0.7996
C6A C -0.2910(3) 0.1246(5) 0.9638(6)
H4A H -0.3106 0.1257 1.0358
C7A C -0.2209(3) 0.0882(4) 0.9986(5)
H5A H -0.1938 0.0623 1.0927
C8A C -0.3462(2) 0.1950(4) 0.5633(5)
C9A C -0.3464(3) 0.1626(4) 0.4305(5)
H6A H -0.3169 0.1124 0.4158
C10A C -0.3996(3) 0.2197(4) 0.3223(5)
H7A H -0.4116 0.2131 0.2210
O1A O -0.08108(17) 0.0843(3) 0.8530(3)
O2A O -0.08805(15) -0.0076(2) 1.0371(3)
Er1D Er 0.0000 -0.05874(2) 0.2500
Er1D_2 Er 0.0000 -0.05874(2) 1.2500
Er1F Er -0.5000 0.44126(2) 0.2500
Er1F_2 Er 0.5000 0.44126(2) 1.2500
N1F N 0.06856(19) 0.2146(3) 0.8819(4)
N1G N -0.06856(19) 0.2146(3) 0.6181(4)
O2D O -0.08805(15) 0.0076(2) 0.5371(3)
O2E O 0.08805(15) 0.0076(2) 0.9629(3)
O5 O 0.481(2) 0.028(4) 1.543(7)
loop_
_geom_bond_atom_site_label_1
_geom_bond_atom_site_label_2
_geom_bond_site_symmetry_1
_geom_bond_site_symmetry_2
Er1 O1 1_555 1_555
N1 N2 1_555 1_555
N2 H1 1_555 1_555
N3 O3 1_555 1_555
C1 C2 1_555 1_555
C2 C3 1_555 1_555
C3 H2 1_555 1_555
C4 C3 1_555 1_555
C5 C4 1_555 1_555
H3 C5 1_555 1_555
C6 C5 1_555 1_555
H4 C6 1_555 1_555
C7 C2 1_555 1_555
H5 C7 1_555 1_555
C8 N2 1_555 1_555
C9 C8 1_555 1_555
H6 C9 1_555 1_555
C10 N1 1_555 1_555
H7 C10 1_555 1_555
O1 C1 1_555 1_555
O2 C1 1_555 1_555
O3 Er1 1_555 1_555
O4 N3 1_555 1_555
O3A Er1 1_555 1_555
N1A N2A 1_555 1_555
N2A H1A 1_555 1_555
C1A C2A 1_555 1_555
C2A C3A 1_555 1_555
C3A H2A 1_555 1_555
C4A C3A 1_555 1_555
C5A C4A 1_555 1_555
H3A C5A 1_555 1_555
C6A C5A 1_555 1_555
H4A C6A 1_555 1_555
C7A C2A 1_555 1_555
H5A C7A 1_555 1_555
C8A N2A 1_555 1_555
C9A C8A 1_555 1_555
H6A C9A 1_555 1_555
C10A N1A 1_555 1_555
H7A C10A 1_555 1_555
O1A Er1 1_555 1_555
O2A C1A 1_555 1_555
Er1D O2 1_555 1_555
Er1D_2 O2A 1_555 1_555
Er1F N1A 1_555 1_555
Er1F_2 N1 1_555 1_555
N1F Er1 1_555 1_555
N1G Er1 1_555 1_555
O2D Er1 1_555 1_555
O2E Er1 1_555 1_555
N3 O3A 1_555 1_555
C4 C8 1_555 1_555
C6 C7 1_555 1_555
C9 C10 1_555 1_555
C1A O1A 1_555 1_555
C4A C8A 1_555 1_555
C6A C7A 1_555 1_555
C9A C10A 1_555 1_555

#END
