
#######################################################################
#
#                 Cambridge Crystallographic Data Centre
#                                CCDC 
#
#######################################################################
#
# If this CIF has been generated from an entry in the Cambridge 
# Structural Database, then it will include bibliographic, chemical, 
# crystal, experimental, refinement or atomic coordinate data resulting 
# from the CCDC's data processing and validation procedures.
#
#######################################################################

data_GURPUF
_chemical_formula_moiety         '(C54 H56 Cr2 In2 Mn2 N10 O33)n'
_symmetry_cell_setting           orthorhombic
_symmetry_space_group_name_H-M   'P n a 21'
_symmetry_Int_Tables_number      33
_space_group_name_Hall           'P 2c -2n'
loop_
_symmetry_equiv_pos_site_id
_symmetry_equiv_pos_as_xyz
1 x,y,z
2 -x,-y,1/2+z
3 1/2-x,1/2+y,1/2+z
4 1/2+x,1/2-y,z
_cell_length_a                   20.4650(3)
_cell_length_b                   21.2430(5)
_cell_length_c                   16.2740(5)
_cell_angle_alpha                90
_cell_angle_beta                 90
_cell_angle_gamma                90
_cell_volume                     7074.93
loop_
_atom_site_label
_atom_site_type_symbol
_atom_site_fract_x
_atom_site_fract_y
_atom_site_fract_z
_atom_site_U_iso_or_equiv
_atom_site_thermal_displace_type
In1 In 0.55129(3) 0.17232(2) 0.34112(4) 0.0380 Uani
C1 C 0.6560(4) 0.2346(4) 0.2289(5) 0.0430 Uani
C2 C 0.7113(5) 0.2751(5) 0.2231(6) 0.0577 Uani
H1 H 0.7258 0.2967 0.2693 0.0500 Uiso
C3 C 0.7431(9) 0.2822(7) 0.1502(9) 0.1073 Uani
H2 H 0.7737 0.3145 0.1462 0.0500 Uiso
C4 C 0.7331(12) 0.2453(8) 0.0825(10) 0.1550 Uani
H3 H 0.7617 0.2439 0.0382 0.1870 Uiso
C5 C 0.6748(10) 0.2095(7) 0.0867(8) 0.1143 Uani
H4 H 0.6607 0.1897 0.0389 0.0500 Uiso
C6 C 0.6375(5) 0.2017(4) 0.1567(6) 0.0513 Uani
C7 C 0.5822(6) 0.1595(4) 0.1523(6) 0.0543 Uani
H5 H 0.5728 0.1422 0.1012 0.0500 Uiso
C8 C 0.4901(6) 0.0988(5) 0.1987(7) 0.0607 Uani
H6 H 0.5011 0.0579 0.2211 0.0500 Uiso
H7 H 0.4822 0.0941 0.1403 0.0500 Uiso
C9 C 0.4295(5) 0.1241(4) 0.2406(7) 0.0557 Uani
H8 H 0.4156 0.1627 0.2140 0.0500 Uiso
H9 H 0.3943 0.0937 0.2365 0.0500 Uiso
C10 C 0.3988(4) 0.1809(4) 0.3694(7) 0.0513 Uani
H10 H 0.3996 0.1746 0.4284 0.0500 Uiso
H11 H 0.3548 0.1728 0.3500 0.0500 Uiso
C11 C 0.4175(5) 0.2476(4) 0.3499(7) 0.0560 Uani
H12 H 0.4117 0.2554 0.2916 0.0500 Uiso
H13 H 0.3893 0.2763 0.3798 0.0500 Uiso
C12 C 0.4968(5) 0.2764(5) 0.4589(7) 0.0553 Uani
H14 H 0.4679 0.2515 0.4931 0.0500 Uiso
H15 H 0.4860 0.3205 0.4670 0.0500 Uiso
C13 C 0.5664(5) 0.2650(4) 0.4841(6) 0.0463 Uani
H16 H 0.5954 0.2927 0.4538 0.0500 Uiso
H17 H 0.5718 0.2735 0.5423 0.0500 Uiso
C14 C 0.6072(5) 0.1629(5) 0.5207(6) 0.0483 Uani
H18 H 0.6194 0.1815 0.5701 0.0500 Uiso
C15 C 0.6182(5) 0.0954(5) 0.5126(6) 0.0487 Uani
C16 C 0.6380(8) 0.0638(6) 0.5838(7) 0.0800 Uani
H19 H 0.6467 0.0870 0.6311 0.0500 Uiso
C17 C 0.6450(10) -0.0014(8) 0.5860(11) 0.1127 Uani
H20 H 0.6611 -0.0211 0.6328 0.0500 Uiso
C18 C 0.6276(7) -0.0364(6) 0.5178(10) 0.0820 Uani
H21 H 0.6287 -0.0801 0.5200 0.0500 Uiso
C19 C 0.6095(5) -0.0075(5) 0.4490(8) 0.0617 Uani
H22 H 0.6007 -0.0322 0.4031 0.0500 Uiso
C20 C 0.6026(5) 0.0595(4) 0.4412(7) 0.0533 Uani
O1 O 0.6264(3) 0.2311(3) 0.2992(3) 0.0420 Uani
O2 O 0.5843(4) 0.0820(3) 0.3708(4) 0.0553 Uani
N1 N 0.5446(4) 0.1434(3) 0.2126(5) 0.0450 Uani
N2 N 0.4451(4) 0.1366(3) 0.3293(5) 0.0487 Uani
H23 H 0.4424 0.0993 0.3565 0.0500 Uiso
N3 N 0.4870(4) 0.2597(3) 0.3729(6) 0.0500 Uani
H24 H 0.5015 0.2925 0.3418 0.0500 Uiso
N4 N 0.5824(4) 0.1985(3) 0.4662(4) 0.0427 Uani
In2 In 0.83003(3) 0.06079(4) 0.37405(5) 0.0546 Uani
C21 C 0.7793(4) 0.1748(5) 0.4730(6) 0.0477 Uani
C22 C 0.7516(5) 0.2348(6) 0.4687(6) 0.0563 Uani
H25 H 0.7285 0.2462 0.4218 0.0680 Uiso
C23 C 0.7577(6) 0.2780(5) 0.5327(9) 0.0693 Uani
H26 H 0.7388 0.3176 0.5288 0.0830 Uiso
C24 C 0.7921(9) 0.2610(6) 0.6015(10) 0.1053 Uani
H27 H 0.7992 0.2901 0.6432 0.1260 Uiso
C25 C 0.8163(7) 0.2002(6) 0.6085(7) 0.0797 Uani
H28 H 0.8359 0.1882 0.6576 0.0960 Uiso
C26 C 0.8123(4) 0.1573(4) 0.5465(6) 0.0443 Uani
C27 C 0.8439(5) 0.0971(5) 0.5586(6) 0.0537 Uani
H29 H 0.8610 0.0896 0.6106 0.0640 Uiso
C28 C 0.8883(7) -0.0037(5) 0.5271(9) 0.0763 Uani
H30 H 0.9334 0.0011 0.5097 0.0920 Uiso
H31 H 0.8878 -0.0104 0.5860 0.0920 Uiso
C29 C 0.8589(8) -0.0573(7) 0.4854(11) 0.0980 Uani
H32 H 0.8155 -0.0647 0.5074 0.1180 Uiso
H33 H 0.8851 -0.0946 0.4954 0.1180 Uiso
C30 C 0.8089(7) -0.0864(7) 0.3537(10) 0.0957 Uani
H34 H 0.8129 -0.1288 0.3753 0.1150 Uiso
H35 H 0.8190 -0.0875 0.2955 0.1150 Uiso
C31 C 0.7428(7) -0.0642(7) 0.3653(14) 0.1087 Uani
H36 H 0.7310 -0.0668 0.4229 0.1300 Uiso
H37 H 0.7128 -0.0903 0.3342 0.1300 Uiso
C32 C 0.7276(9) 0.0085(11) 0.2499(9) 0.1447 Uani
H38 H 0.6822 -0.0004 0.2371 0.1750 Uiso
H39 H 0.7551 -0.0218 0.2218 0.1750 Uiso
C33 C 0.7470(8) 0.0812(10) 0.2225(12) 0.1283 Uani
H40 H 0.7410 0.0865 0.1638 0.1540 Uiso
H41 H 0.7192 0.1112 0.2508 0.1540 Uiso
C34 C 0.8639(7) 0.1134(5) 0.1962(6) 0.0687 Uani
H42 H 0.8501 0.1269 0.1447 0.0830 Uiso
C35 C 0.9310(6) 0.1175(4) 0.2125(6) 0.0540 Uani
C36 C 0.9727(10) 0.1362(6) 0.1497(7) 0.0963 Uani
H43 H 0.9548 0.1458 0.0987 0.1150 Uiso
C37 C 1.0437(8) 0.1416(7) 0.1606(10) 0.0897 Uani
H44 H 1.0705 0.1557 0.1183 0.1080 Uiso
C38 C 1.0688(6) 0.1252(5) 0.2350(8) 0.0667 Uani
H45 H 1.1137 0.1268 0.2437 0.0800 Uiso
C39 C 1.0291(5) 0.1068(4) 0.2958(6) 0.0477 Uani
H46 H 1.0484 0.0971 0.3460 0.0570 Uiso
C40 C 0.9607(5) 0.1010(4) 0.2904(6) 0.0470 Uani
O3 O 0.7748(4) 0.1383(5) 0.4099(5) 0.0973 Uani
O4 O 0.9285(3) 0.0818(3) 0.3535(4) 0.0527 Uani
N5 N 0.8508(5) 0.0538(4) 0.5064(5) 0.0510 Uani
N6 N 0.8545(5) -0.0455(5) 0.3953(8) 0.0797 Uani
H47 H 0.8947 -0.0528 0.3735 0.0960 Uiso
N7 N 0.7383(5) 0.0065(7) 0.3350(8) 0.1123 Uani
H48 H 0.7032 0.0246 0.3600 0.1350 Uiso
N8 N 0.8189(5) 0.0927(5) 0.2455(6) 0.0690 Uani
Mn1 Mn 0.99111(7) 0.37051(5) 0.74185(8) 0.0366 Uani
Mn2 Mn 1.37477(6) 0.50538(6) 0.98338(8) 0.0355 Uani
Cr1 Cr 1.11203(6) 0.49831(6) 0.98791(8) 0.0322 Uani
Cr2 Cr 1.00011(7) 0.11672(6) 0.73828(9) 0.0380 Uani
C41 C 1.2402(4) 0.4647(4) 0.9856(5) 0.0333 Uani
C42 C 1.2387(4) 0.5379(4) 0.9834(5) 0.0367 Uani
C43 C 1.0680(4) 0.4579(3) 0.8367(5) 0.0327 Uani
C44 C 1.0327(4) 0.4166(4) 0.9014(5) 0.0353 Uani
C45 C 0.9185(4) 0.4576(4) 0.6411(5) 0.0333 Uani
C46 C 0.9573(4) 0.4166(4) 0.5800(5) 0.0340 Uani
C47 C 1.0829(4) 0.0443(4) 0.6459(5) 0.0360 Uani
C48 C 1.0397(4) 0.0813(4) 0.5836(5) 0.0350 Uani
C49 C 0.9577(4) 0.2390(4) 0.7469(5) 0.0363 Uani
C50 C 1.0345(4) 0.2410(4) 0.7351(5) 0.0357 Uani
C51 C 0.9624(4) 0.0724(4) 0.8892(5) 0.0357 Uani
C52 C 0.9197(4) 0.0393(4) 0.8244(5) 0.0350 Uani
O5 O 1.1853(3) 0.4385(2) 0.9842(4) 0.0333 Uani
O6 O 1.1813(3) 0.5619(3) 0.9870(4) 0.0387 Uani
O7 O 1.2943(3) 0.4381(2) 0.9888(4) 0.0377 Uani
O8 O 1.2914(3) 0.5670(3) 0.9813(4) 0.0407 Uani
O9 O 1.1043(3) 0.5016(2) 0.8673(3) 0.0340 Uani
O10 O 1.0467(3) 0.4302(3) 0.9768(3) 0.0347 Uani
O11 O 1.0605(3) 0.4461(3) 0.7643(3) 0.0397 Uani
O12 O 0.9952(3) 0.3768(3) 0.8762(4) 0.0393 Uani
O13 O 0.8874(3) 0.5043(3) 0.6091(3) 0.0373 Uani
O14 O 0.9527(3) 0.4331(3) 0.5045(3) 0.0340 Uani
O15 O 0.9203(3) 0.4435(3) 0.7146(3) 0.0387 Uani
O16 O 0.9874(3) 0.3718(3) 0.6075(3) 0.0393 Uani
O17 O 1.1255(3) 0.0089(3) 0.6181(4) 0.0400 Uani
O18 O 1.0506(3) 0.0767(3) 0.5104(3) 0.0370 Uani
O19 O 0.9953(3) 0.1158(3) 0.6176(4) 0.0443 Uani
O20 O 1.0708(3) 0.0550(3) 0.7215(3) 0.0400 Uani
O21 O 0.9274(3) 0.2884(3) 0.7507(3) 0.0373 Uani
O22 O 1.0604(3) 0.2926(3) 0.7322(4) 0.0397 Uani
O23 O 0.9341(3) 0.1835(3) 0.7487(4) 0.0420 Uani
O24 O 1.0620(3) 0.1880(3) 0.7352(4) 0.0420 Uani
O25 O 1.0065(3) 0.1083(3) 0.8588(3) 0.0387 Uani
O26 O 0.9313(3) 0.0525(3) 0.7505(4) 0.0407 Uani
O27 O 0.9524(3) 0.0632(3) 0.9624(3) 0.0370 Uani
O28 O 0.8765(3) 0.0028(2) 0.8506(4) 0.0380 Uani
Mn2B Mn 1.12523(6) 0.00538(6) 0.48338(8) 0.0355 Uani
Mn2C Mn 0.87477(6) -0.00538(6) 0.98338(8) 0.0355 Uani
Cr1A Cr 0.88797(6) 0.50169(6) 0.48791(8) 0.0322 Uani
O13A O 1.1126(3) 0.4957(3) 1.1091(3) 0.0373 Uani
O14A O 1.0473(3) 0.5669(3) 1.0045(3) 0.0340 Uani
O17B O 1.3745(3) 0.5089(3) 1.1181(4) 0.0400 Uani
O18B O 1.4494(3) 0.5767(3) 1.0104(3) 0.0370 Uani
O27C O 1.4524(3) 0.4368(3) 0.9624(3) 0.0370 Uani
O28C O 1.3765(3) 0.4972(2) 0.8506(4) 0.0380 Uani
N9 N 0.7621(7) 0.9744(10) 0.7390(12) 0.1177 Uani
O29 O 0.7936(7) 0.9582(9) 0.6762(12) 0.1740 Uani
C53 C 0.7477(10) 1.0373(8) 0.7542(13) 0.1163 Uani
O30 O 0.7433(7) 0.9348(8) 0.7851(12) 0.1487 Uani
N10 N 0.9300(13) 0.2694(13) 0.0046(17) 0.0950 Uiso
C54 C 1.0026(13) 0.2429(13) -0.015(2) 0.0830 Uiso
O31 O 0.9232(8) 0.2989(8) 0.0634(10) 0.0720 Uiso
O32 O 0.8640(15) 0.2833(14) -0.023(2) 0.1520 Uiso
O33 O 0.6929(18) 0.1518(16) -0.177(2) 0.1580 Uiso
loop_
_atom_site_aniso_label
_atom_site_aniso_U_11
_atom_site_aniso_U_22
_atom_site_aniso_U_33
_atom_site_aniso_U_23
_atom_site_aniso_U_13
_atom_site_aniso_U_12
In1 0.0453(3) 0.0317(3) 0.0371(3) -0.0037(3) 0.0019(3) 0.0022(2)
C1 0.047(5) 0.044(5) 0.038(5) -0.002(4) 0.005(4) -0.005(4)
C2 0.055(6) 0.062(6) 0.056(6) -0.004(5) 0.015(5) -0.024(5)
C3 0.155(15) 0.082(9) 0.085(10) -0.022(8) 0.058(9) -0.081(10)
C4 0.26(2) 0.127(15) 0.078(10) -0.040(10) 0.087(14) -0.131(16)
C5 0.214(19) 0.085(10) 0.044(6) -0.021(7) 0.042(9) -0.073(11)
C6 0.076(7) 0.040(5) 0.038(5) -0.004(4) 0.006(5) -0.004(5)
C7 0.087(8) 0.039(5) 0.037(5) -0.002(4) -0.008(5) -0.003(5)
C8 0.066(7) 0.050(6) 0.066(7) -0.014(5) -0.011(5) -0.012(5)
C9 0.058(6) 0.042(5) 0.067(7) 0.007(5) -0.015(5) -0.015(4)
C10 0.031(4) 0.036(4) 0.087(7) 0.007(5) -0.001(5) -0.004(3)
C11 0.058(6) 0.035(4) 0.075(7) -0.006(5) -0.008(6) 0.009(4)
C12 0.066(7) 0.044(5) 0.056(6) -0.007(5) 0.021(5) -0.005(5)
C13 0.057(6) 0.039(5) 0.043(5) -0.015(4) 0.005(4) -0.002(4)
C14 0.053(6) 0.060(6) 0.032(5) -0.007(4) 0.010(4) -0.007(5)
C15 0.048(6) 0.053(6) 0.045(5) 0.013(5) 0.010(4) -0.005(4)
C16 0.111(11) 0.089(10) 0.040(6) 0.008(6) -0.001(6) 0.001(8)
C17 0.153(15) 0.099(12) 0.086(11) 0.069(10) 0.037(11) 0.033(11)
C18 0.099(10) 0.051(7) 0.096(10) 0.028(8) 0.018(8) 0.006(7)
C19 0.047(6) 0.042(5) 0.096(9) 0.021(6) 0.024(5) 0.012(4)
C20 0.043(5) 0.045(5) 0.072(7) 0.024(5) 0.024(5) 0.004(4)
O1 0.047(3) 0.046(3) 0.033(3) -0.007(3) 0.001(3) -0.006(3)
O2 0.076(5) 0.034(3) 0.056(4) -0.003(3) 0.004(4) 0.020(3)
N1 0.057(5) 0.034(4) 0.044(4) -0.010(3) -0.007(4) 0.002(3)
N2 0.042(4) 0.041(4) 0.063(5) 0.002(4) 0.009(4) -0.008(3)
N3 0.059(5) 0.030(4) 0.061(5) -0.004(4) 0.000(4) 0.000(3)
N4 0.054(5) 0.039(4) 0.035(4) -0.004(3) 0.008(3) -0.004(3)
In2 0.0359(3) 0.0780(5) 0.0499(4) -0.0259(4) -0.0042(3) 0.0024(3)
C21 0.030(4) 0.075(7) 0.038(5) 0.001(5) 0.002(4) 0.004(4)
C22 0.045(6) 0.084(8) 0.040(5) 0.004(5) -0.001(4) 0.014(5)
C23 0.062(7) 0.041(6) 0.105(10) -0.014(6) -0.012(6) 0.003(5)
C24 0.140(14) 0.078(9) 0.098(11) -0.046(8) -0.078(10) 0.032(9)
C25 0.119(10) 0.064(7) 0.056(7) -0.025(6) -0.049(7) 0.038(7)
C26 0.045(5) 0.049(5) 0.039(5) -0.004(4) -0.004(4) -0.004(4)
C27 0.074(7) 0.051(6) 0.036(5) 0.006(5) 0.005(5) 0.008(5)
C28 0.096(10) 0.051(7) 0.082(9) 0.017(6) 0.013(7) 0.011(6)
C29 0.097(11) 0.069(9) 0.128(14) -0.022(9) 0.010(10) 0.019(8)
C30 0.086(9) 0.093(9) 0.108(12) -0.025(9) 0.024(9) -0.027(8)
C31 0.090(10) 0.082(10) 0.154(17) -0.056(11) 0.009(10) 0.000(8)
C32 0.114(14) 0.23(3) 0.090(12) -0.091(15) 0.000(10) -0.069(15)
C33 0.109(12) 0.148(16) 0.128(14) -0.067(13) -0.101(12) 0.062(11)
C34 0.113(11) 0.062(7) 0.031(5) -0.012(5) -0.020(6) 0.035(7)
C35 0.080(8) 0.040(5) 0.042(5) -0.009(4) -0.003(5) 0.005(5)
C36 0.197(18) 0.062(8) 0.030(6) 0.002(5) 0.007(8) -0.018(9)
C37 0.118(13) 0.063(8) 0.088(10) 0.025(7) 0.023(9) -0.014(8)
C38 0.072(7) 0.049(6) 0.079(8) 0.003(6) 0.023(6) -0.010(5)
C39 0.056(6) 0.036(5) 0.051(6) -0.007(4) 0.005(5) 0.002(4)
C40 0.063(6) 0.032(4) 0.046(5) -0.012(4) -0.002(4) -0.002(4)
O3 0.087(6) 0.149(9) 0.056(5) -0.057(5) -0.038(4) 0.072(6)
O4 0.051(4) 0.064(4) 0.043(4) 0.005(3) -0.004(3) -0.011(3)
N5 0.065(5) 0.041(4) 0.047(5) 0.001(4) 0.008(4) 0.004(4)
N6 0.061(6) 0.068(6) 0.110(9) -0.039(6) 0.031(6) -0.010(5)
N7 0.033(5) 0.189(15) 0.115(10) -0.072(11) 0.015(6) -0.020(6)
N8 0.061(6) 0.086(7) 0.060(6) -0.033(6) -0.032(5) 0.032(5)
Mn1 0.0496(8) 0.0302(6) 0.0300(6) -0.0007(6) -0.0037(5) 0.0031(5)
Mn2 0.0322(6) 0.0414(7) 0.0330(6) -0.0044(5) 0.0024(5) -0.0027(5)
Cr1 0.0304(6) 0.0369(6) 0.0294(6) -0.0031(5) -0.0018(5) 0.0016(6)
Cr2 0.0544(8) 0.0295(6) 0.0302(6) 0.0022(6) 0.0083(6) 0.0004(6)
C41 0.032(4) 0.045(5) 0.023(4) -0.006(4) 0.002(3) -0.005(4)
C42 0.044(5) 0.029(4) 0.037(4) -0.008(4) 0.006(4) 0.005(4)
C43 0.046(4) 0.028(3) 0.024(4) 0.000(4) 0.006(4) 0.001(3)
C44 0.046(5) 0.035(4) 0.025(4) -0.002(3) -0.005(3) 0.007(4)
C45 0.032(4) 0.030(4) 0.038(5) -0.004(4) 0.007(3) 0.000(3)
C46 0.038(5) 0.034(4) 0.030(4) -0.001(3) -0.003(3) 0.001(3)
C47 0.038(5) 0.033(4) 0.037(5) -0.001(4) -0.005(4) -0.002(4)
C48 0.039(5) 0.034(4) 0.032(5) -0.004(4) 0.003(3) 0.004(3)
C49 0.045(5) 0.029(4) 0.035(4) -0.001(4) -0.003(4) -0.001(4)
C50 0.051(5) 0.033(4) 0.023(4) 0.007(3) 0.005(4) 0.005(4)
C51 0.030(4) 0.034(4) 0.043(5) -0.001(4) 0.002(3) -0.006(3)
C52 0.038(4) 0.035(4) 0.032(5) -0.002(3) -0.002(3) 0.007(4)
O5 0.026(3) 0.036(3) 0.038(3) -0.004(2) 0.000(2) 0.001(2)
O6 0.034(3) 0.035(3) 0.047(3) -0.004(3) -0.001(3) 0.001(2)
O7 0.035(3) 0.034(3) 0.044(3) -0.004(3) 0.002(3) 0.001(2)
O8 0.039(3) 0.037(3) 0.046(3) -0.006(3) 0.005(3) -0.009(3)
O9 0.040(3) 0.032(3) 0.030(3) 0.002(2) 0.003(2) -0.001(2)
O10 0.033(3) 0.045(3) 0.026(3) 0.003(3) -0.004(2) 0.000(2)
O11 0.060(4) 0.030(3) 0.029(3) 0.004(2) 0.000(3) -0.001(3)
O12 0.045(3) 0.043(3) 0.030(3) -0.005(3) 0.004(3) -0.006(3)
O13 0.039(3) 0.043(3) 0.030(3) 0.000(2) 0.004(2) 0.010(3)
O14 0.033(3) 0.042(3) 0.027(3) -0.006(2) 0.001(2) 0.005(2)
O15 0.046(3) 0.045(3) 0.025(3) -0.004(3) 0.003(2) 0.009(3)
O16 0.048(4) 0.035(3) 0.035(3) -0.006(3) -0.008(3) 0.008(3)
O17 0.045(4) 0.041(3) 0.034(3) -0.002(3) -0.008(3) 0.011(3)
O18 0.047(3) 0.039(3) 0.025(3) 0.000(2) -0.001(2) 0.009(3)
O19 0.060(4) 0.037(3) 0.036(3) 0.008(3) 0.007(3) 0.012(3)
O20 0.059(4) 0.030(3) 0.031(3) 0.003(2) -0.001(3) 0.011(3)
O21 0.040(3) 0.036(3) 0.036(3) -0.006(3) 0.002(2) 0.007(2)
O22 0.045(3) 0.033(3) 0.041(3) 0.005(3) 0.007(3) 0.002(2)
O23 0.043(3) 0.037(3) 0.046(3) -0.006(3) 0.009(3) 0.002(3)
O24 0.046(3) 0.029(3) 0.051(4) 0.005(3) 0.012(3) 0.002(2)
O25 0.050(3) 0.039(3) 0.027(3) -0.005(2) 0.004(2) -0.014(3)
O26 0.061(4) 0.034(3) 0.027(3) 0.001(3) -0.002(3) 0.000(3)
O27 0.036(3) 0.050(4) 0.025(3) 0.004(3) 0.005(2) -0.009(3)
O28 0.042(3) 0.040(3) 0.032(3) 0.006(3) -0.005(3) -0.003(2)
Mn2B 0.0322 0.0414 0.033 -0.0044 -0.0024 0.0027
Mn2C 0.0322 0.0414 0.033 0.0044 0.0024 0.0027
Cr1A 0.0304 0.0369 0.0294 0.0031 0.0018 0.0016
O13A 0.039 0.043 0.03 0 -0.004 0.01
O14A 0.033 0.042 0.027 0.006 -0.001 0.005
O17B 0.045 0.041 0.034 -0.002 0.008 -0.011
O18B 0.047 0.039 0.025 0 0.001 -0.009
O27C 0.036 0.05 0.025 -0.004 0.005 0.009
O28C 0.042 0.04 0.032 -0.006 -0.005 0.003
N9 0.084(10) 0.151(15) 0.118(12) 0.030(12) -0.013(9) -0.010(10)
O29 0.125(12) 0.241(19) 0.156(14) 0.000(13) 0.051(11) 0.044(12)
C53 0.146(17) 0.074(10) 0.129(16) -0.026(10) 0.011(12) 0.020(10)
O30 0.125(11) 0.140(13) 0.181(16) 0.027(11) 0.022(10) -0.023(9)
loop_
_geom_bond_atom_site_label_1
_geom_bond_atom_site_label_2
_geom_bond_site_symmetry_1
_geom_bond_site_symmetry_2
In1 O1 1_555 1_555
C1 C2 1_555 1_555
C2 H1 1_555 1_555
C3 C2 1_555 1_555
H2 C3 1_555 1_555
C4 C3 1_555 1_555
H3 C4 1_555 1_555
C5 C4 1_555 1_555
H4 C5 1_555 1_555
C6 C1 1_555 1_555
C7 C6 1_555 1_555
H5 C7 1_555 1_555
C8 H6 1_555 1_555
H7 C8 1_555 1_555
C9 C8 1_555 1_555
H8 C9 1_555 1_555
H9 C9 1_555 1_555
C10 H10 1_555 1_555
H11 C10 1_555 1_555
C11 C10 1_555 1_555
H12 C11 1_555 1_555
H13 C11 1_555 1_555
C12 H14 1_555 1_555
H15 C12 1_555 1_555
C13 C12 1_555 1_555
H16 C13 1_555 1_555
H17 C13 1_555 1_555
C14 H18 1_555 1_555
C15 C14 1_555 1_555
C16 C15 1_555 1_555
H19 C16 1_555 1_555
C17 C16 1_555 1_555
H20 C17 1_555 1_555
C18 C17 1_555 1_555
H21 C18 1_555 1_555
C19 C18 1_555 1_555
H22 C19 1_555 1_555
C20 C15 1_555 1_555
O1 C1 1_555 1_555
O2 In1 1_555 1_555
N1 In1 1_555 1_555
N2 In1 1_555 1_555
H23 N2 1_555 1_555
N3 In1 1_555 1_555
H24 N3 1_555 1_555
N4 In1 1_555 1_555
In2 O3 1_555 1_555
C21 C22 1_555 1_555
C22 H25 1_555 1_555
C23 C22 1_555 1_555
H26 C23 1_555 1_555
C24 C23 1_555 1_555
H27 C24 1_555 1_555
C25 C24 1_555 1_555
H28 C25 1_555 1_555
C26 C21 1_555 1_555
C27 C26 1_555 1_555
H29 C27 1_555 1_555
C28 H30 1_555 1_555
H31 C28 1_555 1_555
C29 C28 1_555 1_555
H32 C29 1_555 1_555
H33 C29 1_555 1_555
C30 H34 1_555 1_555
H35 C30 1_555 1_555
C31 C30 1_555 1_555
H36 C31 1_555 1_555
H37 C31 1_555 1_555
C32 H38 1_555 1_555
H39 C32 1_555 1_555
C33 C32 1_555 1_555
H40 C33 1_555 1_555
H41 C33 1_555 1_555
C34 H42 1_555 1_555
C35 C34 1_555 1_555
C36 C35 1_555 1_555
H43 C36 1_555 1_555
C37 C36 1_555 1_555
H44 C37 1_555 1_555
C38 C37 1_555 1_555
H45 C38 1_555 1_555
C39 C38 1_555 1_555
H46 C39 1_555 1_555
C40 C35 1_555 1_555
O3 C21 1_555 1_555
O4 In2 1_555 1_555
N5 In2 1_555 1_555
N6 In2 1_555 1_555
H47 N6 1_555 1_555
N7 In2 1_555 1_555
H48 N7 1_555 1_555
N8 In2 1_555 1_555
Mn1 O11 1_555 1_555
Mn2 O7 1_555 1_555
Cr1 O5 1_555 1_555
Cr2 O19 1_555 1_555
C41 C42 1_555 1_555
C42 O6 1_555 1_555
C43 C44 1_555 1_555
C44 O10 1_555 1_555
C45 C46 1_555 1_555
C46 O14 1_555 1_555
C47 C48 1_555 1_555
C48 O18 1_555 1_555
C49 C50 1_555 1_555
C50 O22 1_555 1_555
C51 C52 1_555 1_555
C52 O26 1_555 1_555
O5 C41 1_555 1_555
O6 Cr1 1_555 1_555
O7 C41 1_555 1_555
O8 Mn2 1_555 1_555
O9 Cr1 1_555 1_555
O10 Cr1 1_555 1_555
O11 C43 1_555 1_555
O12 Mn1 1_555 1_555
O13 C45 1_555 1_555
O14 Cr1A 1_555 1_555
O15 Mn1 1_555 1_555
O16 Mn1 1_555 1_555
O17 C47 1_555 1_555
O18 Mn2B 1_555 1_555
O19 C48 1_555 1_555
O20 Cr2 1_555 1_555
O21 Mn1 1_555 1_555
O22 Mn1 1_555 1_555
O23 Cr2 1_555 1_555
O24 Cr2 1_555 1_555
O25 Cr2 1_555 1_555
O26 Cr2 1_555 1_555
O27 C51 1_555 1_555
O28 C52 1_555 1_555
N9 O29 1_555 1_555
C53 N9 1_555 1_555
O30 N9 1_555 1_555
N10 C54 1_555 1_555
O31 N10 1_555 1_555
O32 N10 1_555 1_555
Mn2B O17 1_555 1_555
Mn2C O27 1_555 1_555
Cr1A O13 1_555 1_555
O13A Cr1 1_555 1_555
O14A Cr1 1_555 1_555
O17B Mn2 1_555 1_555
O18B Mn2 1_555 1_555
O27C Mn2 1_555 1_555
O28C Mn2 1_555 1_555
C5 C6 1_555 1_555
C7 N1 1_555 1_555
C8 N1 1_555 1_555
C9 N2 1_555 1_555
C10 N2 1_555 1_555
C11 N3 1_555 1_555
C12 N3 1_555 1_555
C13 N4 1_555 1_555
C14 N4 1_555 1_555
C19 C20 1_555 1_555
C20 O2 1_555 1_555
C25 C26 1_555 1_555
C27 N5 1_555 1_555
C28 N5 1_555 1_555
C29 N6 1_555 1_555
C30 N6 1_555 1_555
C31 N7 1_555 1_555
C32 N7 1_555 1_555
C33 N8 1_555 1_555
C34 N8 1_555 1_555
C39 C40 1_555 1_555
C40 O4 1_555 1_555
C42 O8 1_555 1_555
C43 O9 1_555 1_555
C44 O12 1_555 1_555
C45 O15 1_555 1_555
C46 O16 1_555 1_555
C47 O20 1_555 1_555
C49 O21 1_555 1_555
C49 O23 1_555 1_555
C50 O24 1_555 1_555
C51 O25 1_555 1_555
O28 Mn2C 1_555 1_555

#END
