
#######################################################################
#
#                 Cambridge Crystallographic Data Centre
#                                CCDC 
#
#######################################################################
#
# If this CIF has been generated from an entry in the Cambridge 
# Structural Database, then it will include bibliographic, chemical, 
# crystal, experimental, refinement or atomic coordinate data resulting 
# from the CCDC's data processing and validation procedures.
#
#######################################################################

data_GURPOZ
_chemical_formula_moiety         '(C55 H57 Cr2 In2 Mn2 N9 O30)n'
_symmetry_cell_setting           monoclinic
_symmetry_space_group_name_H-M   'C c'
_symmetry_Int_Tables_number      9
_space_group_name_Hall           'C -2yc'
loop_
_symmetry_equiv_pos_site_id
_symmetry_equiv_pos_as_xyz
1 x,y,z
2 x,-y,1/2+z
3 1/2+x,1/2+y,z
4 1/2+x,1/2-y,1/2+z
_cell_length_a                   21.3209(8)
_cell_length_b                   14.1337(5)
_cell_length_c                   22.8816(8)
_cell_angle_alpha                90
_cell_angle_beta                 90.717(3)
_cell_angle_gamma                90
_cell_volume                     6894.67
loop_
_atom_site_label
_atom_site_type_symbol
_atom_site_fract_x
_atom_site_fract_y
_atom_site_fract_z
Cr1 Cr 0.39573(13) 0.04609(7) 0.48245(13)
Cr2 Cr 0.53410(13) 0.26786(8) 0.62588(13)
Mn1 Mn 0.14459(13) 0.04556(7) 0.50238(13)
Mn2 Mn 0.51183(13) -0.22324(8) 0.35978(13)
C1 C 0.4269(3) -0.1301(4) 0.4306(3)
C2 C 0.4671(3) -0.0500(5) 0.3990(3)
C3 C 0.5601(5) 0.2387(6) 0.7438(5)
C4 C 0.4872(4) 0.2559(5) 0.7390(4)
C5 C 0.5751(3) 0.4432(5) 0.5842(3)
C6 C 0.6127(3) 0.3682(5) 0.5507(3)
C7 C 0.2671(4) 0.0586(4) 0.4591(3)
C8 C 0.2744(4) 0.0516(4) 0.5269(3)
C9 C 0.4842(3) 0.1122(5) 0.5663(3)
C10 C 0.4537(3) 0.2022(4) 0.5368(3)
C11 C 0.0902(3) 0.2049(5) 0.4503(3)
C12 C 0.0604(4) 0.1191(5) 0.4205(3)
O1 O 0.4567(2) 0.0343(3) 0.4137(2)
O2 O 0.5045(3) -0.0788(3) 0.3613(2)
O3 O 0.3924(2) -0.0986(3) 0.4699(2)
O4 O 0.4363(3) -0.2107(3) 0.4167(2)
O5 O 0.5804(3) 0.2232(4) 0.7955(3)
O6 O 0.5902(3) 0.2416(4) 0.6988(3)
O7 O 0.4565(3) 0.2517(4) 0.7851(3)
O8 O 0.4658(3) 0.2699(4) 0.6899(3)
O9 O 0.6056(3) 0.2838(3) 0.5659(2)
O10 O 0.6467(2) 0.3981(3) 0.5100(2)
O11 O 0.5411(2) 0.4140(4) 0.6243(2)
O12 O 0.5802(2) 0.5263(3) 0.5687(2)
O13 O 0.2245(3) 0.0514(3) 0.5552(2)
O14 O 0.3279(3) 0.0459(3) 0.5474(2)
O15 O 0.2128(3) 0.0543(4) 0.4389(2)
O16 O 0.3175(3) 0.0646(3) 0.4308(2)
O17 O 0.4668(2) 0.0337(3) 0.5455(2)
O18 O 0.5220(2) 0.1250(3) 0.6059(2)
O19 O 0.4158(2) 0.1879(3) 0.4957(2)
O20 O 0.4690(2) 0.2788(3) 0.5570(2)
O21 O 0.0757(2) 0.0393(3) 0.4383(2)
O22 O 0.0200(3) 0.1345(4) 0.3802(2)
O23 O 0.1256(2) 0.1890(4) 0.4918(2)
O24 O 0.0758(3) 0.2844(3) 0.4299(2)
Mn1B Mn 0.64459(13) 0.54556(7) 0.50238(13)
Mn2A Mn 0.51183(13) 0.22324(8) 0.85978(13)
Mn2B Mn 0.01183(13) 0.27676(8) 0.35978(13)
O5A O 0.5804(3) -0.2232(4) 0.2955(3)
O7A O 0.4565(3) -0.2517(4) 0.2851(3)
O10B O 0.1467(2) -0.1019(3) 0.5100(2)
O12B O 0.0802(2) 0.0263(3) 0.5687(2)
O22B O 0.5200(3) -0.3655(4) 0.3802(2)
O24B O 0.5758(3) -0.2156(3) 0.4299(2)
In1 In -0.05839(12) 0.15184(3) 0.68767(13)
C13 C 0.0840(2) 0.1032(3) 0.7077(2)
C14 C 0.1445(2) 0.1166(3) 0.6874(2)
H1 H 0.1523 0.1624 0.6592
C15 C 0.19353(19) 0.0616(4) 0.7093(3)
H2 H 0.2340 0.0706 0.6957
C16 C 0.1820(2) -0.0068(3) 0.7514(3)
H3 H 0.2148 -0.0436 0.7660
C17 C 0.1215(2) -0.0203(3) 0.7717(2)
H4 H 0.1138 -0.0660 0.7999
C18 C 0.0725(2) 0.0347(3) 0.7498(2)
C19 C 0.0112(3) 0.0109(4) 0.7716(3)
H5 H 0.0099 -0.0368 0.7996
C20 C -0.1008(3) 0.0122(5) 0.7809(3)
H6 H -0.1213 0.0612 0.8033
H7 H -0.0928 -0.0415 0.8064
C21 C -0.1413(3) -0.0170(4) 0.7299(3)
H8 H -0.1222 -0.0700 0.7099
H9 H -0.1821 -0.0370 0.7436
C22 C -0.1642(4) 0.0321(5) 0.6291(3)
H10 H -0.1851 0.0827 0.6078
H11 H -0.1929 -0.0212 0.6309
C23 C -0.1052(4) 0.0025(5) 0.5965(4)
H12 H -0.0877 -0.0540 0.6145
H13 H -0.1160 -0.0123 0.5563
C24 C -0.0653(4) 0.1502(5) 0.5522(3)
H14 H -0.1096 0.1603 0.5443
H15 H -0.0464 0.1270 0.5166
C25 C -0.0357(4) 0.2414(5) 0.5691(3)
H16 H 0.0095 0.2340 0.5713
H17 H -0.0454 0.2892 0.5400
C26 C -0.0769(3) 0.3564(4) 0.6362(3)
H18 H -0.0751 0.3985 0.6051
C27 C -0.0989(2) 0.3941(2) 0.69130(18)
C28 C -0.1118(2) 0.4905(2) 0.69068(19)
H19 H -0.1052 0.5256 0.6569
C29 C -0.1346(2) 0.5343(2) 0.7405(2)
H20 H -0.1432 0.5988 0.7401
C30 C -0.1444(2) 0.4818(3) 0.79089(19)
H21 H -0.1596 0.5112 0.8242
C31 C -0.1315(2) 0.3854(3) 0.79151(18)
H22 H -0.1381 0.3503 0.8252
C32 C -0.1087(2) 0.34156(19) 0.74171(19)
N1 N -0.0415(3) 0.0478(4) 0.7569(3)
N2 N -0.1489(3) 0.0643(4) 0.6887(3)
H23 H -0.1807 0.1017 0.7014
N3 N -0.0581(3) 0.0791(4) 0.5981(3)
H24 H -0.0197 0.0519 0.5938
N4 N -0.0594(3) 0.2706(4) 0.6259(2)
O25 O 0.0409(2) 0.1612(3) 0.6874(2)
O26 O -0.0952(3) 0.2491(3) 0.7464(2)
In2 In 0.18127(12) 0.35638(4) 0.80647(13)
C33 C 0.2510(4) 0.5275(6) 0.8652(4)
C34 C 0.2565(4) 0.6255(6) 0.8675(4)
H25 H 0.2289 0.6633 0.8461
C35 C 0.3032(5) 0.6668(5) 0.9018(5)
H26 H 0.3069 0.7324 0.9033
C36 C 0.3445(4) 0.6103(6) 0.9338(4)
H27 H 0.3758 0.6380 0.9568
C37 C 0.3390(4) 0.5124(6) 0.9315(4)
H28 H 0.3665 0.4745 0.9530
C38 C 0.2922(4) 0.4710(5) 0.8972(4)
C39 C 0.2927(7) 0.3726(11) 0.8972(6)
H29 H 0.3239 0.3428 0.9192
C40 C 0.2608(10) 0.2230(15) 0.8765(9)
H30 H 0.2806 0.2094 0.9139
H31 H 0.2872 0.1980 0.8459
C41 C 0.1947(13) 0.1749(15) 0.8732(11)
H32 H 0.2013 0.1081 0.8657
H33 H 0.1765 0.1796 0.9117
C42 C 0.0796(8) 0.2093(11) 0.8472(7)
H34 H 0.0553 0.2067 0.8111
H35 H 0.0689 0.1544 0.8704
C43 C 0.0650(12) 0.2886(16) 0.8767(11)
H36 H 0.0904 0.2927 0.9121
H37 H 0.0212 0.2869 0.8877
C44 C 0.0417(8) 0.3997(12) 0.7893(7)
H38 H 0.0310 0.3401 0.7706
H39 H 0.0029 0.4267 0.8035
C45 C 0.0628(7) 0.4558(12) 0.7492(7)
H40 H 0.0727 0.5178 0.7651
H41 H 0.0330 0.4627 0.7172
C46 C 0.1349(7) 0.3930(13) 0.6749(7)
H42 H 0.1045 0.4152 0.6489
C47 C 0.1874(4) 0.3528(7) 0.6503(4)
C48 C 0.1873(4) 0.3516(7) 0.5896(3)
H43 H 0.1533 0.3760 0.5687
C49 C 0.2382(4) 0.3142(7) 0.5600(3)
H44 H 0.2382 0.3134 0.5194
C50 C 0.2891(4) 0.2778(6) 0.5912(3)
H45 H 0.3231 0.2527 0.5715
C51 C 0.2891(4) 0.2789(5) 0.6520(3)
H46 H 0.3232 0.2546 0.6728
C52 C 0.2383(4) 0.3164(6) 0.6815(3)
O27 O 0.2088(5) 0.4936(7) 0.8254(5)
O28 O 0.2415(6) 0.3115(9) 0.7371(6)
N5 N 0.2542(6) 0.3199(10) 0.8696(6)
N6 N 0.1496(7) 0.2066(10) 0.8331(6)
H47 H 0.1534 0.1696 0.8008
N7 N 0.0778(5) 0.3802(8) 0.8356(5)
H48 H 0.0776 0.4321 0.8591
N8 N 0.1230(5) 0.4035(10) 0.7294(5)
C53 C 0.2432(7) -0.1537(11) 0.6430(6)
H49 H 0.2565 -0.0893 0.6379
H50 H 0.2592 -0.1774 0.6796
H51 H 0.1982 -0.1563 0.6429
C54 C 0.2657(7) -0.2082(11) 0.5980(7)
N9 N 0.2792(6) -0.2448(10) 0.5596(6)
O29 O -0.2855(4) 0.1076(6) 0.7130(4)
H52 H -0.285(5) 0.049(3) 0.734(3)
H53 H -0.298(5) 0.090(6) 0.6739(16)
C55 C 0.1434(9) 0.4535(13) 0.9938(8)
H54 H 0.1362 0.4910 1.0280
H55 H 0.1878 0.4467 0.9881
H56 H 0.1249 0.3922 0.9986
O30 O 0.1154(5) 0.4998(8) 0.9432(5)
H57 H 0.0800 0.5176 0.9511
loop_
_geom_bond_atom_site_label_1
_geom_bond_atom_site_label_2
_geom_bond_site_symmetry_1
_geom_bond_site_symmetry_2
Cr1 O1 1_555 1_555
Cr2 O6 1_555 1_555
Mn1 O13 1_555 1_555
Mn2 O2 1_555 1_555
C1 C2 1_555 1_555
C2 O1 1_555 1_555
C3 C4 1_555 1_555
C4 O7 1_555 1_555
C5 C6 1_555 1_555
C6 O9 1_555 1_555
C7 C8 1_555 1_555
C8 O13 1_555 1_555
C9 C10 1_555 1_555
C10 O19 1_555 1_555
C11 C12 1_555 1_555
C12 O21 1_555 1_555
O2 C2 1_555 1_555
O3 Cr1 1_555 1_555
O4 Mn2 1_555 1_555
O5 C3 1_555 1_555
O6 C3 1_555 1_555
O7 Mn2A 1_555 1_555
O8 Cr2 1_555 1_555
O9 Cr2 1_555 1_555
O10 C6 1_555 1_555
O11 Cr2 1_555 1_555
O12 C5 1_555 1_555
O14 Cr1 1_555 1_555
O15 Mn1 1_555 1_555
O16 Cr1 1_555 1_555
O17 Cr1 1_555 1_555
O18 Cr2 1_555 1_555
O19 Cr1 1_555 1_555
O20 Cr2 1_555 1_555
O21 Mn1 1_555 1_555
O22 C12 1_555 1_555
O23 Mn1 1_555 1_555
O24 C11 1_555 1_555
In1 N1 1_555 1_555
C13 C14 1_555 1_555
C14 H1 1_555 1_555
C15 C14 1_555 1_555
H2 C15 1_555 1_555
C16 C15 1_555 1_555
H3 C16 1_555 1_555
C17 C16 1_555 1_555
H4 C17 1_555 1_555
C18 C13 1_555 1_555
C19 C18 1_555 1_555
H5 C19 1_555 1_555
C20 H6 1_555 1_555
H7 C20 1_555 1_555
C21 C20 1_555 1_555
H8 C21 1_555 1_555
H9 C21 1_555 1_555
C22 H10 1_555 1_555
H11 C22 1_555 1_555
C23 C22 1_555 1_555
H12 C23 1_555 1_555
H13 C23 1_555 1_555
C24 H14 1_555 1_555
H15 C24 1_555 1_555
C25 C24 1_555 1_555
H16 C25 1_555 1_555
H17 C25 1_555 1_555
C26 H18 1_555 1_555
C27 C26 1_555 1_555
C28 C27 1_555 1_555
H19 C28 1_555 1_555
C29 C28 1_555 1_555
H20 C29 1_555 1_555
C30 C29 1_555 1_555
H21 C30 1_555 1_555
C31 C30 1_555 1_555
H22 C31 1_555 1_555
C32 C27 1_555 1_555
N1 C19 1_555 1_555
N2 In1 1_555 1_555
H23 N2 1_555 1_555
N3 In1 1_555 1_555
H24 N3 1_555 1_555
N4 In1 1_555 1_555
O25 In1 1_555 1_555
O26 In1 1_555 1_555
In2 O27 1_555 1_555
C33 C34 1_555 1_555
C34 H25 1_555 1_555
C35 C34 1_555 1_555
H26 C35 1_555 1_555
C36 C35 1_555 1_555
H27 C36 1_555 1_555
C37 C36 1_555 1_555
H28 C37 1_555 1_555
C38 C33 1_555 1_555
C39 C38 1_555 1_555
H29 C39 1_555 1_555
C40 H30 1_555 1_555
H31 C40 1_555 1_555
C41 C40 1_555 1_555
H32 C41 1_555 1_555
H33 C41 1_555 1_555
C42 H34 1_555 1_555
H35 C42 1_555 1_555
C43 C42 1_555 1_555
H36 C43 1_555 1_555
H37 C43 1_555 1_555
C44 H38 1_555 1_555
H39 C44 1_555 1_555
C45 C44 1_555 1_555
H40 C45 1_555 1_555
H41 C45 1_555 1_555
C46 H42 1_555 1_555
C47 C46 1_555 1_555
C48 C47 1_555 1_555
H43 C48 1_555 1_555
C49 C48 1_555 1_555
H44 C49 1_555 1_555
C50 C49 1_555 1_555
H45 C50 1_555 1_555
C51 C50 1_555 1_555
H46 C51 1_555 1_555
C52 C47 1_555 1_555
O27 C33 1_555 1_555
O28 In2 1_555 1_555
N5 In2 1_555 1_555
N6 In2 1_555 1_555
H47 N6 1_555 1_555
N7 In2 1_555 1_555
H48 N7 1_555 1_555
N8 In2 1_555 1_555
C53 H49 1_555 1_555
H50 C53 1_555 1_555
H51 C53 1_555 1_555
C54 C53 1_555 1_555
N9 C54 1_555 1_555
O29 H52 1_555 1_555
H53 O29 1_555 1_555
C55 H54 1_555 1_555
H55 C55 1_555 1_555
H56 C55 1_555 1_555
O30 C55 1_555 1_555
H57 O30 1_555 1_555
Mn1B O10 1_555 1_555
Mn2A O5 1_555 1_555
Mn2B O22 1_555 1_555
O5A Mn2 1_555 1_555
O7A Mn2 1_555 1_555
O10B Mn1 1_555 1_555
O12B Mn1 1_555 1_555
O22B Mn2 1_555 1_555
O24B Mn2 1_555 1_555
C1 O3 1_555 1_555
C1 O4 1_555 1_555
C4 O8 1_555 1_555
C5 O11 1_555 1_555
C7 O15 1_555 1_555
C7 O16 1_555 1_555
C8 O14 1_555 1_555
C9 O17 1_555 1_555
C9 O18 1_555 1_555
C10 O20 1_555 1_555
C11 O23 1_555 1_555
O12 Mn1B 1_555 1_555
O24 Mn2B 1_555 1_555
C13 O25 1_555 1_555
C17 C18 1_555 1_555
C20 N1 1_555 1_555
C21 N2 1_555 1_555
C22 N2 1_555 1_555
C23 N3 1_555 1_555
C24 N3 1_555 1_555
C25 N4 1_555 1_555
C26 N4 1_555 1_555
C31 C32 1_555 1_555
C32 O26 1_555 1_555
C37 C38 1_555 1_555
C39 N5 1_555 1_555
C40 N5 1_555 1_555
C41 N6 1_555 1_555
C42 N6 1_555 1_555
C43 N7 1_555 1_555
C44 N7 1_555 1_555
C45 N8 1_555 1_555
C46 N8 1_555 1_555
C51 C52 1_555 1_555
C52 O28 1_555 1_555

#END
