
#######################################################################
#
#                 Cambridge Crystallographic Data Centre
#                                CCDC 
#
#######################################################################
#
# If this CIF has been generated from an entry in the Cambridge 
# Structural Database, then it will include bibliographic, chemical, 
# crystal, experimental, refinement or atomic coordinate data resulting 
# from the CCDC's data processing and validation procedures.
#
#######################################################################

data_GURPIT
_chemical_formula_moiety         '(C56 H64 Cr2 Fe2 Mn2 N8 O32)n'
_symmetry_cell_setting           monoclinic
_symmetry_space_group_name_H-M   'C c'
_symmetry_Int_Tables_number      9
_space_group_name_Hall           'C -2yc'
loop_
_symmetry_equiv_pos_site_id
_symmetry_equiv_pos_as_xyz
1 x,y,z
2 x,-y,1/2+z
3 1/2+x,1/2+y,z
4 1/2+x,1/2-y,1/2+z
_cell_length_a                   21.9180(9)
_cell_length_b                   14.0330(9)
_cell_length_c                   22.4670(15)
_cell_angle_alpha                90
_cell_angle_beta                 92.639(4)
_cell_angle_gamma                90
_cell_volume                     6902.97
loop_
_atom_site_label
_atom_site_type_symbol
_atom_site_fract_x
_atom_site_fract_y
_atom_site_fract_z
_atom_site_U_iso_or_equiv
_atom_site_thermal_displace_type
Cr1 Cr 0.76410(10) 0.96190(16) 0.65939(11) 0.0642 Uani
Mn1 Mn 0.51994(10) 0.96637(16) 0.67579(11) 0.0656 Uani
Cr2 Cr 0.88276(12) 1.22569(18) 0.53793(11) 0.0714 Uani
Mn2 Mn 0.91044(13) 0.74084(18) 0.80089(13) 0.0783 Uani
O1 O 0.6867(6) 0.9434(8) 0.6064(6) 0.0855 Uani
O2 O 0.6993(6) 0.9629(8) 0.7233(5) 0.0747 Uani
O3 O 0.5842(7) 0.9593(8) 0.6119(5) 0.0811 Uani
O4 O 0.5985(6) 0.9628(7) 0.7311(5) 0.0783 Uani
O5 O 0.7626(5) 1.1069(7) 0.6463(5) 0.0694 Uani
O6 O 0.8245(4) 0.9696(7) 0.5923(5) 0.0620 Uani
O7 O 0.8080(5) 1.2173(8) 0.5935(6) 0.0814 Uani
O8 O 0.8732(5) 1.0798(7) 0.5412(5) 0.0721 Uani
O9 O 0.8340(4) 0.9760(7) 0.7238(5) 0.0678 Uani
O10 O 0.7832(5) 0.8229(7) 0.6749(5) 0.0650 Uani
O11 O 0.8951(5) 0.8832(8) 0.7849(5) 0.0728 Uani
O12 O 0.8451(5) 0.7297(7) 0.7323(5) 0.0691 Uani
O13 O 0.4496(4) 0.9696(7) 0.6106(4) 0.0596 Uani
O14 O 0.5019(4) 0.8208(7) 0.6703(5) 0.0681 Uani
O15 O 0.3928(5) 0.8708(7) 0.5559(5) 0.0753 Uani
O16 O 0.4468(5) 0.7215(8) 0.6103(5) 0.0737 Uani
O17 O 0.5199(5) 1.1160(8) 0.6833(6) 0.0761 Uani
O18 O 0.4602(5) 0.9828(8) 0.7427(5) 0.0779 Uani
O19 O 0.4778(5) 1.2284(8) 0.7399(5) 0.0756 Uani
O20 O 0.4195(5) 1.0953(7) 0.7991(5) 0.0695 Uani
O21 O 0.8308(5) 1.2516(7) 0.4584(6) 0.0767 Uani
O22 O 0.9506(5) 1.2236(8) 0.4749(8) 0.0957 Uani
O23 O 0.8420(5) 1.2647(8) 0.3613(6) 0.0729 Uani
O24 O 0.9627(6) 1.2389(8) 0.3775(7) 0.0919 Uani
C1 C 0.6373(12) 0.9540(12) 0.6337(9) 0.0779 Uani
C2 C 0.6468(9) 0.9588(10) 0.7021(8) 0.0617 Uani
C3 C 0.7986(8) 1.1302(12) 0.6069(8) 0.0656 Uani
C4 C 0.8342(6) 1.0521(12) 0.5795(6) 0.0573 Uani
C5 C 0.8546(8) 0.8959(12) 0.7450(8) 0.0694 Uani
C6 C 0.8238(8) 0.8103(10) 0.7146(8) 0.0655 Uani
C7 C 0.4323(6) 0.8876(11) 0.5960(8) 0.0692 Uani
C8 C 0.4625(7) 0.8014(12) 0.6277(8) 0.0591 Uani
C9 C 0.4864(7) 1.1443(12) 0.7237(7) 0.0646 Uani
C10 C 0.4528(8) 1.0677(13) 0.7592(8) 0.0649 Uani
C11 C 0.8603(9) 1.2528(11) 0.4109(9) 0.0694 Uani
C12 C 0.9314(8) 1.2373(12) 0.4209(12) 0.0756 Uani
Cr2B Cr 0.38276(12) 0.72569(18) 0.53793(11) 0.0714 Uani
Mn2B Mn 0.41044(13) 1.24084(18) 0.80089(13) 0.0783 Uani
Mn2A Mn 0.91044(13) 1.25916(18) 0.30089(13) 0.0783 Uani
O15B O 0.8928(5) 1.3708(7) 0.5559(5) 0.0753 Uani
O16B O 0.9468(5) 1.2215(8) 0.6103(5) 0.0737 Uani
O19B O 0.9778(5) 0.7284(8) 0.7399(5) 0.0756 Uani
O20B O 0.9195(5) 0.5953(7) 0.7991(5) 0.0695 Uani
O23A O 0.8420(5) 0.7353(8) 0.8613(6) 0.0729 Uani
O24A O 0.9627(6) 0.7611(8) 0.8775(7) 0.0919 Uani
Fe1 Fe 0.81990(10) 0.64263(16) 0.35944(11) 0.0687 Uani
O25 O 0.7995(6) 0.7290(9) 0.4195(5) 0.0888 Uani
O26 O 0.9055(6) 0.6537(8) 0.3565(6) 0.0925 Uani
N1 N 0.8108(6) 0.7434(11) 0.2979(7) 0.0788 Uani
N2 N 0.8187(6) 0.5588(9) 0.2834(6) 0.0780 Uani
H1 H 0.8559 0.5303 0.2826 0.0940 Uiso
N3 N 0.7297(6) 0.5853(11) 0.3597(8) 0.0945 Uani
H2 H 0.7040 0.6363 0.3576 0.1140 Uiso
N4 N 0.8322(6) 0.5430(11) 0.4204(7) 0.0929 Uani
C13 C 0.7750(5) 0.8167(7) 0.4156(5) 0.0757 Uani
C14 C 0.7537(5) 0.8587(10) 0.4667(4) 0.0927 Uani
H3 H 0.7527 0.8239 0.5018 0.1130 Uiso
C15 C 0.7340(5) 0.9529(10) 0.4653(4) 0.0796 Uani
H4 H 0.7198 0.9810 0.4995 0.0950 Uiso
C16 C 0.7355(5) 1.0050(7) 0.4127(6) 0.0829 Uani
H5 H 0.7223 1.0680 0.4118 0.0990 Uiso
C17 C 0.7568(5) 0.9630(9) 0.3616(4) 0.0870 Uani
H6 H 0.7578 0.9979 0.3265 0.1040 Uiso
C18 C 0.7765(5) 0.8689(9) 0.3631(4) 0.0752 Uani
C19 C 0.7971(7) 0.8287(12) 0.3066(7) 0.0668 Uani
H7 H 0.8000 0.8705 0.2747 0.0800 Uiso
C20 C 0.8350(10) 0.7139(12) 0.2423(8) 0.0958 Uani
H8 H 0.8792 0.7134 0.2454 0.1150 Uiso
H9 H 0.8220 0.7576 0.2108 0.1150 Uiso
C21 C 0.8121(10) 0.6187(15) 0.2289(8) 0.1088 Uani
H10 H 0.8349 0.5907 0.1973 0.1300 Uiso
H11 H 0.7694 0.6220 0.2155 0.1300 Uiso
C22 C 0.7747(8) 0.4841(12) 0.2876(8) 0.0838 Uani
H12 H 0.7890 0.4376 0.3170 0.1000 Uiso
H13 H 0.7689 0.4522 0.2495 0.1000 Uiso
C23 C 0.7143(9) 0.5273(13) 0.3059(8) 0.0951 Uani
H14 H 0.6967 0.5669 0.2742 0.1140 Uiso
H15 H 0.6854 0.4776 0.3148 0.1140 Uiso
C24 C 0.7256(10) 0.548(2) 0.4178(10) 0.1335 Uani
H16 H 0.7202 0.6006 0.4449 0.1590 Uiso
H17 H 0.6892 0.5087 0.4184 0.1590 Uiso
C25 C 0.7720(12) 0.4968(17) 0.4384(13) 0.1507 Uani
H18 H 0.7689 0.4327 0.4224 0.1810 Uiso
H19 H 0.7713 0.4928 0.4815 0.1810 Uiso
C26 C 0.8838(10) 0.5112(12) 0.4433(8) 0.0904 Uani
H20 H 0.8812 0.4659 0.4733 0.1080 Uiso
C27 C 0.9448(4) 0.5381(8) 0.4276(5) 0.0690 Uani
C28 C 0.9952(6) 0.4918(8) 0.4540(5) 0.0826 Uani
H21 H 0.9901 0.4499 0.4854 0.0990 Uiso
C29 C 1.0530(5) 0.5083(9) 0.4333(6) 0.0937 Uani
H22 H 1.0868 0.4773 0.4510 0.1120 Uiso
C30 C 1.0605(4) 0.5709(9) 0.3863(6) 0.0845 Uani
H23 H 1.0993 0.5819 0.3725 0.1010 Uiso
C31 C 1.0102(6) 0.6172(7) 0.3600(5) 0.0811 Uani
H24 H 1.0152 0.6592 0.3285 0.0970 Uiso
C32 C 0.9523(5) 0.6008(7) 0.3806(5) 0.0828 Uani
Fe2 Fe 0.05136(13) 0.87343(18) 0.47773(14) 0.0930 Uani
O27 O 0.1182(4) 0.8315(8) 0.4370(5) 0.0838 Uani
O28 O 0.0649(6) 1.0042(10) 0.4815(8) 0.1314 Uani
N5 N 0.0031(5) 0.8773(8) 0.3928(8) 0.0831 Uani
N6 N -0.0426(9) 0.8911(15) 0.5021(10) 0.1442 Uani
H25 H -0.0438 0.9257 0.5362 0.1740 Uiso
N7 N 0.0299(8) 0.7315(12) 0.5062(9) 0.1204 Uani
H26 H 0.0210 0.6949 0.4735 0.1450 Uiso
N8 N 0.0993(9) 0.8637(14) 0.5596(8) 0.1315 Uani
C33 C 0.1287(5) 0.8107(8) 0.3810(4) 0.0740 Uiso
C34 C 0.1856(4) 0.7742(8) 0.3680(4) 0.0830 Uiso
H27 H 0.2145 0.7620 0.3986 0.0990 Uiso
C35 C 0.1991(4) 0.7559(8) 0.3093(5) 0.0970 Uiso
H28 H 0.2372 0.7315 0.3006 0.1160 Uiso
C36 C 0.1559(5) 0.7741(8) 0.2635(4) 0.0780 Uiso
H29 H 0.1649 0.7619 0.2242 0.0940 Uiso
C37 C 0.0990(4) 0.8106(8) 0.2765(4) 0.0980 Uiso
H30 H 0.0701 0.8227 0.2459 0.1180 Uiso
C38 C 0.0855(4) 0.8289(8) 0.3353(5) 0.0770 Uiso
C39 C 0.0243(7) 0.8610(12) 0.3431(9) 0.0790 Uiso
H31 H -0.0010 0.8702 0.3092 0.0940 Uiso
C40 C -0.0635(8) 0.9033(14) 0.3894(9) 0.0930 Uiso
H32 H -0.0726 0.9448 0.3556 0.1110 Uiso
H33 H -0.0886 0.8466 0.3852 0.1110 Uiso
C41 C -0.0747(12) 0.9526(18) 0.4456(11) 0.1330 Uiso
H34 H -0.1183 0.9581 0.4504 0.1600 Uiso
H35 H -0.0576 1.0163 0.4449 0.1600 Uiso
C42 C -0.0683(14) 0.792(2) 0.5119(14) 0.1600 Uiso
H36 H -0.1066 0.7980 0.5317 0.1920 Uiso
H37 H -0.0768 0.7621 0.4736 0.1920 Uiso
C43 C -0.0290(12) 0.737(2) 0.5456(14) 0.1510 Uiso
H38 H -0.0460 0.6737 0.5516 0.1810 Uiso
H39 H -0.0192 0.7655 0.5841 0.1810 Uiso
C44 C 0.0861(12) 0.692(2) 0.5388(13) 0.1470 Uiso
H40 H 0.1164 0.6760 0.5102 0.1760 Uiso
H41 H 0.0753 0.6335 0.5591 0.1760 Uiso
C45 C 0.1146(10) 0.7650(17) 0.5860(11) 0.1240 Uiso
H42 H 0.0966 0.7571 0.6243 0.1860 Uiso
H43 H 0.1585 0.7564 0.5910 0.1860 Uiso
C46 C 0.1335(12) 0.932(2) 0.5852(13) 0.1470 Uiso
H44 H 0.1592 0.9168 0.6179 0.1760 Uiso
C47 C 0.1319(7) 1.0296(9) 0.5637(8) 0.1300 Uiso
C48 C 0.1652(7) 1.0927(14) 0.6001(6) 0.1760 Uiso
H45 H 0.1894 1.0699 0.6321 0.2110 Uiso
C49 C 0.1623(7) 1.1900(12) 0.5887(7) 0.1570 Uiso
H46 H 0.1845 1.2323 0.6131 0.1880 Uiso
C50 C 0.1261(8) 1.2242(8) 0.5409(8) 0.1380 Uiso
H47 H 0.1242 1.2893 0.5333 0.1650 Uiso
C51 C 0.0929(6) 1.1610(11) 0.5045(6) 0.1150 Uiso
H48 H 0.0687 1.1838 0.4725 0.1390 Uiso
C52 C 0.0958(6) 1.0637(10) 0.5159(7) 0.0990 Uiso
C53 C 0.6138(11) 0.8340(17) 0.3305(11) 0.0530 Uiso
H49 H 0.6442 0.8530 0.3603 0.0790 Uiso
H50 H 0.5830 0.7967 0.3486 0.0790 Uiso
H51 H 0.5955 0.8896 0.3124 0.0790 Uiso
O29 O 0.6421(11) 0.7782(17) 0.2858(11) 0.1030 Uiso
H52 H 0.6207 0.7796 0.2549 0.1550 Uiso
C54 C -0.0070(15) 0.985(3) 0.6722(13) 0.0910 Uiso
H53 H 0.0358 0.9854 0.6834 0.1370 Uiso
H54 H -0.0221 0.9207 0.6740 0.1370 Uiso
H55 H -0.0286 1.0244 0.6990 0.1370 Uiso
O30 O -0.0156(11) 1.0187(19) 0.6154(12) 0.1110 Uiso
H56 H -0.0013 1.0725 0.6132 0.1670 Uiso
C55 C 0.5507(12) 0.590(2) 0.3158(11) 0.0730 Uiso
H57 H 0.5198 0.5426 0.3211 0.1100 Uiso
H58 H 0.5745 0.5728 0.2827 0.1100 Uiso
H59 H 0.5316 0.6506 0.3082 0.1100 Uiso
O31 O 0.5884(8) 0.5957(14) 0.3671(8) 0.0690 Uiso
H60 H 0.6218 0.5724 0.3607 0.1030 Uiso
C56 C -0.182(2) 0.579(4) 0.635(3) 0.1570 Uiso
H61 H -0.1456 0.5644 0.6590 0.2360 Uiso
H62 H -0.2011 0.5210 0.6219 0.2360 Uiso
H63 H -0.2095 0.6146 0.6587 0.2360 Uiso
O32 O -0.1682(17) 0.627(3) 0.5913(19) 0.1630 Uiso
H64 H -0.1409 0.6651 0.6009 0.2450 Uiso
loop_
_atom_site_aniso_label
_atom_site_aniso_U_11
_atom_site_aniso_U_22
_atom_site_aniso_U_33
_atom_site_aniso_U_23
_atom_site_aniso_U_13
_atom_site_aniso_U_12
Cr1 0.0667(15) 0.0562(15) 0.0709(18) 0.0006(13) 0.0159(12) -0.0030(12)
Mn1 0.0713(16) 0.0520(14) 0.0746(19) -0.0025(13) 0.0142(13) 0.0008(12)
Cr2 0.0883(17) 0.0635(16) 0.0625(18) 0.0093(14) 0.0044(14) -0.0116(13)
Mn2 0.109(2) 0.0609(16) 0.0665(19) -0.0002(14) 0.0191(15) 0.0163(14)
O1 0.106(9) 0.074(8) 0.080(9) -0.014(6) 0.042(8) -0.008(6)
O2 0.094(9) 0.074(8) 0.056(8) 0.011(6) 0.002(7) -0.010(6)
O3 0.120(11) 0.064(7) 0.061(9) 0.013(6) 0.024(8) -0.013(7)
O4 0.129(11) 0.060(7) 0.047(7) 0.000(5) 0.017(7) 0.018(6)
O5 0.084(7) 0.059(7) 0.066(8) -0.016(6) 0.013(6) 0.003(6)
O6 0.057(6) 0.054(7) 0.075(8) -0.020(6) 0.004(5) -0.013(5)
O7 0.105(9) 0.058(8) 0.082(9) -0.014(6) 0.013(7) 0.013(6)
O8 0.083(7) 0.063(7) 0.069(8) -0.021(6) -0.011(6) 0.014(6)
O9 0.068(7) 0.043(6) 0.092(9) 0.004(6) -0.001(6) -0.002(5)
O10 0.068(6) 0.048(6) 0.079(8) 0.016(6) 0.003(6) -0.007(5)
O11 0.059(6) 0.090(8) 0.069(8) -0.011(6) -0.002(6) 0.010(5)
O12 0.076(7) 0.063(7) 0.068(8) 0.009(6) 0.001(6) -0.004(5)
O13 0.068(6) 0.054(7) 0.057(7) 0.017(5) 0.005(5) 0.000(5)
O14 0.066(6) 0.071(7) 0.066(7) -0.001(6) -0.012(6) -0.003(5)
O15 0.103 0.046 0.075 0.013 -0.016 -0.009
O16 0.102 0.045 0.072 0.015 -0.018 -0.012
O17 0.069(7) 0.074(8) 0.085(9) 0.005(7) 0.000(6) 0.004(6)
O18 0.071(7) 0.059(8) 0.105(10) 0.003(7) 0.017(6) -0.004(5)
O19 0.083 0.063 0.08 -0.015 -0.005 -0.013
O20 0.077 0.074 0.058 0.004 0.009 0.005
O21 0.070(7) 0.065(7) 0.096(10) 0.002(6) 0.012(7) -0.007(5)
O22 0.069(8) 0.076(9) 0.142(14) 0.025(8) 0.004(9) -0.014(6)
O23 0.075 0.077 0.067 0.011 0.008 -0.008
O24 0.08 0.069 0.13 0.01 0.039 -0.008
C1 0.121(18) 0.068(13) 0.046(14) 0.006(9) 0.017(12) 0.017(11)
C2 0.079(12) 0.045(10) 0.064(14) -0.008(8) 0.034(11) 0.003(8)
C3 0.094(12) 0.042(10) 0.060(12) -0.012(9) -0.004(10) -0.001(9)
C4 0.060(10) 0.078(13) 0.036(10) -0.004(9) 0.024(8) -0.018(9)
C5 0.072(11) 0.068(12) 0.070(12) -0.012(10) 0.024(10) -0.035(10)
C6 0.092(12) 0.044(10) 0.061(12) 0.024(9) 0.008(10) 0.023(9)
C7 0.052(9) 0.056(12) 0.097(14) -0.010(9) -0.026(9) -0.036(8)
C8 0.064(10) 0.055(11) 0.060(12) 0.015(9) 0.021(9) 0.017(8)
C9 0.083(11) 0.051(10) 0.060(11) -0.026(9) 0.004(9) -0.001(9)
C10 0.074(11) 0.054(11) 0.066(13) 0.014(10) -0.004(9) -0.013(9)
C11 0.100(14) 0.047(9) 0.064(14) 0.001(9) 0.033(12) -0.015(9)
C12 0.054(12) 0.053(10) 0.119(19) 0.010(12) -0.006(12) -0.010(8)
Cr2B 0.0883 0.0635 0.0625 0.0093 0.0044 -0.0116
Mn2B 0.109 0.0609 0.0665 -0.0002 0.0191 0.0163
Mn2A 0.109 0.0609 0.0665 0.0002 0.0191 -0.0163
O15B 0.103 0.046 0.075 0.013 -0.016 -0.009
O16B 0.102 0.045 0.072 0.015 -0.018 -0.012
O19B 0.083 0.063 0.08 -0.015 -0.005 -0.013
O20B 0.077 0.074 0.058 0.004 0.009 0.005
O23A 0.075 0.077 0.067 -0.011 0.008 0.008
O24A 0.08 0.069 0.13 -0.01 0.039 0.008
Fe1 0.0777(14) 0.0604(14) 0.0682(16) 0.0125(12) 0.0067(11) 0.0062(11)
O25 0.133(10) 0.088(9) 0.045(7) 0.002(6) 0.000(6) -0.004(7)
O26 0.118(9) 0.072(7) 0.089(9) 0.001(7) 0.022(7) -0.040(7)
N1 0.077(9) 0.087(11) 0.072(10) 0.017(8) -0.001(7) 0.015(7)
N2 0.103(9) 0.062(8) 0.071(10) -0.006(8) 0.026(8) -0.016(7)
N3 0.090(10) 0.080(10) 0.112(15) -0.024(10) -0.010(9) 0.018(8)
N4 0.070(9) 0.092(11) 0.116(13) 0.043(9) -0.004(9) 0.002(7)
C13 0.079(10) 0.092(14) 0.055(12) 0.026(11) -0.008(9) -0.006(10)
C14 0.093(12) 0.15(2) 0.035(11) 0.010(12) 0.002(9) -0.003(12)
C15 0.053(9) 0.123(16) 0.062(13) -0.027(12) -0.007(8) 0.004(9)
C16 0.096(13) 0.111(14) 0.040(11) 0.008(11) -0.016(9) 0.023(11)
C17 0.083(11) 0.119(17) 0.058(12) -0.013(11) -0.008(9) 0.000(10)
C18 0.070(10) 0.097(14) 0.059(12) -0.007(10) 0.007(8) 0.006(9)
C19 0.078(10) 0.056(11) 0.067(11) 0.005(8) 0.011(8) -0.007(8)
C20 0.165(18) 0.073(13) 0.051(12) 0.016(9) 0.022(12) 0.039(12)
C21 0.146(17) 0.119(18) 0.061(13) -0.017(13) 0.002(11) -0.025(13)
C22 0.106(12) 0.067(11) 0.078(13) -0.049(10) -0.001(10) 0.015(10)
C23 0.134(16) 0.085(13) 0.065(12) -0.009(11) -0.010(11) -0.003(11)
C24 0.113(17) 0.22(3) 0.069(16) 0.050(17) 0.022(12) -0.017(18)
C25 0.15(2) 0.117(18) 0.19(3) 0.11(2) 0.06(2) 0.010(15)
C26 0.147(18) 0.059(11) 0.065(12) 0.020(9) 0.003(12) 0.004(11)
C27 0.072(11) 0.065(10) 0.071(11) 0.023(9) 0.015(9) -0.011(8)
C28 0.083(12) 0.097(13) 0.067(12) 0.017(10) -0.005(10) 0.003(10)
C29 0.069(13) 0.096(14) 0.113(18) 0.003(13) -0.028(12) 0.018(10)
C30 0.057(10) 0.085(13) 0.112(16) -0.029(12) 0.009(10) -0.001(9)
C31 0.108(14) 0.051(10) 0.085(13) -0.021(9) 0.013(11) -0.049(10)
C32 0.054(10) 0.055(10) 0.136(17) 0.007(11) -0.032(10) 0.016(8)
Fe2 0.1133(19) 0.0746(17) 0.093(2) -0.0269(15) 0.0248(16) -0.0147(15)
O27 0.072(7) 0.070(7) 0.109(10) -0.021(6) 0.000(6) -0.013(5)
O28 0.102(9) 0.098(9) 0.193(16) -0.082(11) -0.006(10) -0.005(7)
N5 0.058(8) 0.050(8) 0.142(14) -0.018(8) 0.011(8) -0.001(6)
N6 0.143(16) 0.135(17) 0.16(2) -0.048(15) 0.064(15) -0.020(13)
N7 0.113(13) 0.108(13) 0.142(16) -0.023(11) 0.024(12) -0.021(10)
N8 0.167(17) 0.125(16) 0.103(14) -0.015(12) 0.013(12) -0.033(13)
loop_
_geom_bond_atom_site_label_1
_geom_bond_atom_site_label_2
_geom_bond_site_symmetry_1
_geom_bond_site_symmetry_2
Cr1 O1 1_555 1_555
Mn1 O3 1_555 1_555
Cr2 O7 1_555 1_555
Mn2 O11 1_555 1_555
O1 C1 1_555 1_555
O2 Cr1 1_555 1_555
O3 C1 1_555 1_555
O4 Mn1 1_555 1_555
O5 Cr1 1_555 1_555
O6 Cr1 1_555 1_555
O7 C3 1_555 1_555
O8 Cr2 1_555 1_555
O9 Cr1 1_555 1_555
O10 Cr1 1_555 1_555
O11 C5 1_555 1_555
O12 Mn2 1_555 1_555
O13 Mn1 1_555 1_555
O14 Mn1 1_555 1_555
O15 C7 1_555 1_555
O16 C8 1_555 1_555
O17 Mn1 1_555 1_555
O18 Mn1 1_555 1_555
O19 C9 1_555 1_555
O20 C10 1_555 1_555
O21 Cr2 1_555 1_555
O22 Cr2 1_555 1_555
O23 C11 1_555 1_555
O24 C12 1_555 1_555
C1 C2 1_555 1_555
C2 O2 1_555 1_555
C3 O5 1_555 1_555
C4 O6 1_555 1_555
C5 O9 1_555 1_555
C6 O10 1_555 1_555
C7 O13 1_555 1_555
C8 O14 1_555 1_555
C9 O17 1_555 1_555
C10 O18 1_555 1_555
C11 O21 1_555 1_555
C12 O22 1_555 1_555
Fe1 O25 1_555 1_555
O25 C13 1_555 1_555
O26 Fe1 1_555 1_555
N1 Fe1 1_555 1_555
N2 Fe1 1_555 1_555
H1 N2 1_555 1_555
N3 Fe1 1_555 1_555
H2 N3 1_555 1_555
N4 Fe1 1_555 1_555
C13 C14 1_555 1_555
C14 H3 1_555 1_555
C15 C14 1_555 1_555
H4 C15 1_555 1_555
C16 C15 1_555 1_555
H5 C16 1_555 1_555
C17 C16 1_555 1_555
H6 C17 1_555 1_555
C18 C13 1_555 1_555
C19 N1 1_555 1_555
H7 C19 1_555 1_555
C20 N1 1_555 1_555
H8 C20 1_555 1_555
H9 C20 1_555 1_555
C21 N2 1_555 1_555
H10 C21 1_555 1_555
H11 C21 1_555 1_555
C22 N2 1_555 1_555
H12 C22 1_555 1_555
H13 C22 1_555 1_555
C23 N3 1_555 1_555
H14 C23 1_555 1_555
H15 C23 1_555 1_555
C24 N3 1_555 1_555
H16 C24 1_555 1_555
H17 C24 1_555 1_555
C25 N4 1_555 1_555
H18 C25 1_555 1_555
H19 C25 1_555 1_555
C26 N4 1_555 1_555
H20 C26 1_555 1_555
C27 C26 1_555 1_555
C28 C27 1_555 1_555
H21 C28 1_555 1_555
C29 C28 1_555 1_555
H22 C29 1_555 1_555
C30 C29 1_555 1_555
H23 C30 1_555 1_555
C31 C30 1_555 1_555
H24 C31 1_555 1_555
C32 O26 1_555 1_555
Fe2 O27 1_555 1_555
O27 C33 1_555 1_555
O28 Fe2 1_555 1_555
N5 Fe2 1_555 1_555
N6 Fe2 1_555 1_555
H25 N6 1_555 1_555
N7 Fe2 1_555 1_555
H26 N7 1_555 1_555
N8 Fe2 1_555 1_555
C33 C34 1_555 1_555
C34 H27 1_555 1_555
C35 C34 1_555 1_555
H28 C35 1_555 1_555
C36 C35 1_555 1_555
H29 C36 1_555 1_555
C37 C36 1_555 1_555
H30 C37 1_555 1_555
C38 C33 1_555 1_555
C39 N5 1_555 1_555
H31 C39 1_555 1_555
C40 N5 1_555 1_555
H32 C40 1_555 1_555
H33 C40 1_555 1_555
C41 N6 1_555 1_555
H34 C41 1_555 1_555
H35 C41 1_555 1_555
C42 N6 1_555 1_555
H36 C42 1_555 1_555
H37 C42 1_555 1_555
C43 N7 1_555 1_555
H38 C43 1_555 1_555
H39 C43 1_555 1_555
C44 N7 1_555 1_555
H40 C44 1_555 1_555
H41 C44 1_555 1_555
C45 N8 1_555 1_555
H42 C45 1_555 1_555
H43 C45 1_555 1_555
C46 N8 1_555 1_555
H44 C46 1_555 1_555
C47 C46 1_555 1_555
C48 C47 1_555 1_555
H45 C48 1_555 1_555
C49 C48 1_555 1_555
H46 C49 1_555 1_555
C50 C49 1_555 1_555
H47 C50 1_555 1_555
C51 C50 1_555 1_555
H48 C51 1_555 1_555
C52 O28 1_555 1_555
C53 H49 1_555 1_555
H50 C53 1_555 1_555
H51 C53 1_555 1_555
O29 C53 1_555 1_555
H52 O29 1_555 1_555
C54 H53 1_555 1_555
H54 C54 1_555 1_555
H55 C54 1_555 1_555
O30 C54 1_555 1_555
H56 O30 1_555 1_555
C55 H57 1_555 1_555
H58 C55 1_555 1_555
H59 C55 1_555 1_555
O31 C55 1_555 1_555
H60 O31 1_555 1_555
C56 H61 1_555 1_555
H62 C56 1_555 1_555
H63 C56 1_555 1_555
O32 C56 1_555 1_555
H64 O32 1_555 1_555
Cr2B O15 1_555 1_555
Mn2B O19 1_555 1_555
Mn2A O23 1_555 1_555
O15B Cr2 1_555 1_555
O16B Cr2 1_555 1_555
O19B Mn2 1_555 1_555
O20B Mn2 1_555 1_555
O23A Mn2 1_555 1_555
O24A Mn2 1_555 1_555
O4 C2 1_555 1_555
O8 C4 1_555 1_555
O12 C6 1_555 1_555
O16 Cr2B 1_555 1_555
O20 Mn2B 1_555 1_555
O24 Mn2A 1_555 1_555
C3 C4 1_555 1_555
C5 C6 1_555 1_555
C7 C8 1_555 1_555
C9 C10 1_555 1_555
C11 C12 1_555 1_555
C17 C18 1_555 1_555
C18 C19 1_555 1_555
C20 C21 1_555 1_555
C22 C23 1_555 1_555
C24 C25 1_555 1_555
C27 C32 1_555 1_555
C31 C32 1_555 1_555
C37 C38 1_555 1_555
C38 C39 1_555 1_555
C40 C41 1_555 1_555
C42 C43 1_555 1_555
C44 C45 1_555 1_555
C47 C52 1_555 1_555
C51 C52 1_555 1_555

#END
