
#######################################################################
#
#                 Cambridge Crystallographic Data Centre
#                                CCDC 
#
#######################################################################
#
# If this CIF has been generated from an entry in the Cambridge 
# Structural Database, then it will include bibliographic, chemical, 
# crystal, experimental, refinement or atomic coordinate data resulting 
# from the CCDC's data processing and validation procedures.
#
#######################################################################

data_FOXNIQ
_chemical_formula_moiety         '(C42 H48 Co2 Gd4 N6 O41)n'
_symmetry_cell_setting           triclinic
_symmetry_space_group_name_H-M   'P -1'
_symmetry_Int_Tables_number      2
_space_group_name_Hall           '-P 1'
loop_
_symmetry_equiv_pos_site_id
_symmetry_equiv_pos_as_xyz
1 x,y,z
2 -x,-y,-z
_cell_length_a                   11.9248(2)
_cell_length_b                   16.1606(3)
_cell_length_c                   17.5254(3)
_cell_angle_alpha                90.0880(10)
_cell_angle_beta                 98.5630(10)
_cell_angle_gamma                109.9390(10)
_cell_volume                     3134.54
loop_
_atom_site_label
_atom_site_type_symbol
_atom_site_fract_x
_atom_site_fract_y
_atom_site_fract_z
C1 C 0.5202(9) 0.0568(6) 0.3430(6)
C2 C 0.5574(9) -0.0244(6) 0.3583(5)
C3 C 0.5310(9) -0.0719(6) 0.4210(5)
H1 H 0.4864 -0.0553 0.4534
C4 C 0.6279(9) -0.1656(6) 0.3911(5)
C5 C 0.6593(10) -0.1211(7) 0.3273(5)
H2 H 0.7045 -0.1387 0.2960
C6 C 0.6238(10) -0.0494(7) 0.3091(5)
H3 H 0.6435 -0.0187 0.2654
C7 C 0.6578(8) -0.2445(6) 0.4152(5)
C8 C 0.6757(10) -0.6051(8) 0.1761(6)
C9 C 0.7610(11) -0.5538(8) 0.1215(6)
C10 C 0.7339(12) -0.5737(8) 0.0429(7)
H4 H 0.6667 -0.6217 0.0220
C11 C 0.8085(12) -0.5210(8) -0.0039(7)
H5 H 0.7911 -0.5318 -0.0572
C12 C 0.9081(10) -0.4529(7) 0.0289(6)
C13 C 0.8617(9) -0.4826(6) 0.1525(6)
H6 H 0.8782 -0.4693 0.2056
C14 C 0.9962(12) -0.3896(8) -0.0154(7)
C15 C 0.9151(10) -0.2874(7) 0.2305(5)
C16 C 0.8616(10) -0.2682(7) 0.1526(6)
C17 C 0.7554(12) -0.2490(9) 0.1389(6)
H7 H 0.7134 -0.2456 0.1787
C18 C 0.7151(13) -0.2354(10) 0.0642(7)
H8 H 0.6431 -0.2242 0.0528
C19 C 0.7804(10) -0.2380(7) 0.0048(6)
C20 C 0.8841(10) -0.2543(8) 0.0234(6)
H9 H 0.9293 -0.2549 -0.0154
C21 C 0.7372(11) -0.2264(7) -0.0797(6)
C22 C 1.3463(12) -0.5042(8) 0.2568(6)
C23 C 1.3274(12) -0.4188(8) 0.2323(7)
C24 C 1.2180(12) -0.4150(7) 0.2015(6)
H10 H 1.1510 -0.4666 0.1958
C25 C 1.3021(14) -0.2640(8) 0.1866(10)
C26 C 1.4166(17) -0.2632(9) 0.2138(14)
H11 H 1.4825 -0.2112 0.2160
C27 C 1.4330(16) -0.3407(9) 0.2382(12)
H12 H 1.5093 -0.3419 0.2575
C28 C 1.2758(16) -0.1825(9) 0.1656(11)
C29 C 0.8286(9) -0.5023(6) 0.3719(6)
C30 C 0.9638(8) -0.4607(6) 0.3961(5)
C31 C 1.0393(9) -0.5095(7) 0.4029(6)
H13 H 1.0101 -0.5691 0.3874
C32 C 1.1596(9) -0.4675(7) 0.4332(6)
H14 H 1.2135 -0.4981 0.4382
C33 C 1.1990(8) -0.3776(6) 0.4562(5)
C34 C 1.1167(9) -0.3351(7) 0.4437(5)
H15 H 1.1442 -0.2749 0.4565
C35 C 1.3248(9) -0.3313(8) 0.4991(5)
C36 C 0.8914(8) -0.2655(6) 0.5611(5)
C37 C 0.9729(8) -0.1862(6) 0.5252(5)
C38 C 1.0491(9) -0.1098(6) 0.5654(5)
H16 H 1.0556 -0.1044 0.6189
C39 C 1.1149(9) -0.0420(6) 0.5267(6)
H17 H 1.1672 0.0092 0.5543
C40 C 1.1055(9) -0.0479(7) 0.4473(5)
C41 C 1.0269(9) -0.1277(6) 0.4099(5)
H18 H 1.0174 -0.1337 0.3563
C42 C 1.1712(10) 0.0261(7) 0.4009(6)
Co1 Co 0.85610(11) -0.32033(8) 0.39936(7)
Co2 Co 1.05705(13) -0.31342(9) 0.13092(8)
Gd1 Gd 0.56283(4) -0.58396(3) 0.33627(3)
Gd2 Gd 0.53038(4) -0.19726(3) -0.21115(2)
Gd3 Gd 0.77613(4) -0.27682(3) 0.73687(3)
Gd4 Gd 0.57011(4) -0.20626(3) 0.57543(2)
N1 N 0.5646(7) -0.1403(5) 0.4391(4)
N2 N 0.9357(8) -0.4330(5) 0.1066(5)
N3 N 0.9246(8) -0.2696(6) 0.0952(4)
N4 N 1.0009(7) -0.3732(5) 0.4147(4)
N5 N 0.9649(7) -0.1954(5) 0.4477(4)
N6 N 1.2026(9) -0.3386(6) 0.1787(5)
O1 O 0.3767(5) -0.6705(4) 0.3755(3)
H19 H 0.3533 -0.6469 0.4083
O2 O 0.6785(5) -0.1728(4) -0.2926(3)
H20 H 0.7239 -0.1225 -0.2971
O3 O 0.4198(5) -0.6731(4) 0.2294(3)
H21 H 0.4105 -0.6494 0.1889
O4 O 0.5629(5) -0.7297(4) 0.3334(3)
H22 H 0.6201 -0.7405 0.3574
O5 O 0.4762(6) 0.0813(4) 0.3957(4)
O6 O 0.5352(7) 0.0915(5) 0.2804(4)
O7 O 0.6269(6) -0.2777(4) 0.4767(4)
O8 O 0.7087(6) -0.2763(4) 0.3703(4)
O9 O 1.2562(8) -0.5705(5) 0.2502(5)
O10 O 1.4541(8) -0.4964(5) 0.2807(5)
O11 O 1.3573(14) -0.1113(7) 0.1754(10)
O12 O 1.1637(8) -0.1937(5) 0.1411(5)
O13 O 0.7639(6) -0.4542(4) 0.3697(4)
O14 O 0.7829(6) -0.5850(4) 0.3606(4)
O15 O 1.3619(7) -0.2492(5) 0.5058(4)
O16 O 1.3860(7) -0.3779(5) 0.5274(4)
O17 O 0.8402(6) -0.3335(4) 0.5181(3)
O18 O 0.8839(6) -0.2573(5) 0.6306(4)
O19 O 1.1506(8) 0.0134(5) 0.3297(4)
O20 O 1.2415(6) 0.0957(4) 0.4382(4)
O21 O 0.6300(7) -0.6867(5) 0.1664(5)
O22 O 0.6578(7) -0.5566(5) 0.2250(4)
O23 O 1.0814(7) -0.3285(5) 0.0260(5)
O24 O 0.9835(8) -0.4023(5) -0.0873(5)
O25 O 0.8670(7) -0.2855(5) 0.2862(4)
O26 O 1.0119(7) -0.3055(5) 0.2311(4)
O27 O 0.6428(8) -0.2072(5) -0.0919(4)
O28 O 0.7981(7) -0.2383(6) -0.1277(4)
O29 O 0.6733(8) -0.0498(5) -0.1650(5)
H23 H 0.7417 -0.0396 -0.1412
H24 H 0.6816 -0.0102 -0.1952
O30 O 0.4292(10) -0.1367(6) -0.1268(6)
H25 H 0.3570 -0.1387 -0.1320
H26 H 0.4442 -0.1460 -0.0809
O31 O 0.9373(7) -0.1287(5) 0.7642(4)
H27 H 0.9613 -0.1606 0.7395
H28 H 0.9346 -0.0896 0.7350
O32 O 0.9699(7) -0.2937(6) 0.7901(5)
H29 H 0.9601 -0.3297 0.7545
H30 H 0.9760 -0.3212 0.8289
O33 O 0.5543(8) -0.4729(5) 0.4356(5)
H31 H 0.5112 -0.4707 0.4673
H32 H 0.5994 -0.4216 0.4351
Gd1_2 Gd 1.56283(4) -0.58396(3) 0.33627(3)
Gd1A Gd 1.43717(4) -0.41604(3) 0.66373(3)
Gd2A Gd 0.46962(4) -0.80274(3) 0.21115(2)
Gd2A_2 Gd 0.46962(4) 0.19726(3) 0.21115(2)
Gd3A Gd 0.22387(4) -0.72318(3) 0.26313(3)
Gd3_2 Gd 0.77613(4) -0.27682(3) -0.26313(3)
Gd3A_2 Gd 1.22387(4) -0.72318(3) 0.26313(3)
Gd4A Gd 0.42989(4) -0.79374(3) 0.42457(2)
Gd4_2 Gd 0.57011(4) -0.20626(3) -0.42457(2)
Gd4A_2 Gd 0.42989(4) 0.20626(3) 0.42457(2)
Gd4_3 Gd 1.57011(4) -0.20626(3) 0.57543(2)
Gd4A_3 Gd 1.42989(4) 0.20626(3) 0.42457(2)
O1A O 0.6233(5) -0.3295(4) 0.6245(3)
H19A H 0.6467 -0.3531 0.5917
O2_2 O 0.6785(5) -0.1728(4) 0.7074(3)
H20_2 H 0.7239 -0.1225 0.7029
O3A O 0.5802(5) -0.3269(4) -0.2294(3)
O3A_2 O 0.5802(5) -0.3269(4) 0.7706(3)
H21A H 0.5895 -0.3506 -0.1889
H21A_2 H 0.5895 -0.3506 0.8111
O4A O 0.4371(5) -0.2703(4) -0.3334(3)
O4A_2 O 0.4371(5) -0.2703(4) 0.6666(3)
H22A H 0.3799 -0.2595 -0.3574
H22A_2 H 0.3799 -0.2595 0.6426
O5A O 0.5238(6) -0.0813(4) 0.6043(4)
O6A O 0.4648(7) -0.0915(5) -0.2804(4)
O9A O 0.7438(8) -0.4295(5) 0.7498(5)
O10_2 O 0.4541(8) -0.4964(5) 0.2807(5)
O15_2 O 0.3619(7) -0.2492(5) 0.5058(4)
O16A O 0.6140(7) -0.6221(5) 0.4726(4)
O20A O 0.7585(6) -0.0957(4) 0.5618(4)
O21A O 0.3700(7) -0.3133(5) -0.1664(5)
O28_2 O 0.7981(7) -0.2383(6) 0.8723(4)
O34 O 0.751(3) 0.1906(17) 0.0381(15)
O35 O 0.819(3) 0.1425(18) 0.2177(16)
O36 O 0.823(3) 0.254(2) 0.328(2)
O37 O 0.785(3) 0.019(2) 0.0038(19)
O38 O 0.011(3) 1.021(2) 0.0742(19)
O39 O 0.428(2) 0.4510(14) 0.0825(12)
O40 O 0.047(2) 0.9191(13) 0.1943(12)
O41 O 0.578(3) 0.959(2) 0.0923(17)
loop_
_geom_bond_atom_site_label_1
_geom_bond_atom_site_label_2
_geom_bond_site_symmetry_1
_geom_bond_site_symmetry_2
C1 C2 1_555 1_555
C2 C3 1_555 1_555
C3 H1 1_555 1_555
C4 C5 1_555 1_555
C5 H2 1_555 1_555
C6 C2 1_555 1_555
H3 C6 1_555 1_555
C7 C4 1_555 1_555
C8 C9 1_555 1_555
C9 C10 1_555 1_555
C10 H4 1_555 1_555
C11 C10 1_555 1_555
H5 C11 1_555 1_555
C12 C11 1_555 1_555
C13 C9 1_555 1_555
H6 C13 1_555 1_555
C14 C12 1_555 1_555
C15 C16 1_555 1_555
C16 C17 1_555 1_555
C17 H7 1_555 1_555
C18 C17 1_555 1_555
H8 C18 1_555 1_555
C19 C18 1_555 1_555
C20 C19 1_555 1_555
H9 C20 1_555 1_555
C21 C19 1_555 1_555
C22 C23 1_555 1_555
C23 C24 1_555 1_555
C24 H10 1_555 1_555
C25 C26 1_555 1_555
C26 H11 1_555 1_555
C27 C23 1_555 1_555
H12 C27 1_555 1_555
C28 C25 1_555 1_555
C29 C30 1_555 1_555
C30 C31 1_555 1_555
C31 H13 1_555 1_555
C32 C31 1_555 1_555
H14 C32 1_555 1_555
C33 C32 1_555 1_555
C34 C33 1_555 1_555
H15 C34 1_555 1_555
C35 C33 1_555 1_555
C36 C37 1_555 1_555
C37 C38 1_555 1_555
C38 H16 1_555 1_555
C39 C38 1_555 1_555
H17 C39 1_555 1_555
C40 C39 1_555 1_555
C41 C40 1_555 1_555
H18 C41 1_555 1_555
C42 C40 1_555 1_555
Co1 N4 1_555 1_555
Co2 N2 1_555 1_555
Gd1 O1 1_555 1_555
Gd2 O2 1_555 1_555
Gd3 O18 1_555 1_555
Gd4 N1 1_555 1_555
N1 C3 1_555 1_555
N2 C12 1_555 1_555
N3 C16 1_555 1_555
N4 C30 1_555 1_555
N5 C37 1_555 1_555
N6 C24 1_555 1_555
O1 H19 1_555 1_555
O2 H20 1_555 1_555
O3 Gd1 1_555 1_555
H21 O3 1_555 1_555
O4 Gd1 1_555 1_555
H22 O4 1_555 1_555
O5 C1 1_555 1_555
O6 C1 1_555 1_555
O7 C7 1_555 1_555
O8 C7 1_555 1_555
O9 C22 1_555 1_555
O10 C22 1_555 1_555
O11 C28 1_555 1_555
O12 C28 1_555 1_555
O13 C29 1_555 1_555
O14 C29 1_555 1_555
O15 C35 1_555 1_555
O16 C35 1_555 1_555
O17 C36 1_555 1_555
O18 C36 1_555 1_555
O19 C42 1_555 1_555
O20 C42 1_555 1_555
O21 C8 1_555 1_555
O22 C8 1_555 1_555
O23 C14 1_555 1_555
O24 C14 1_555 1_555
O25 C15 1_555 1_555
O26 C15 1_555 1_555
O27 C21 1_555 1_555
O28 C21 1_555 1_555
O29 Gd2 1_555 1_555
H23 O29 1_555 1_555
H24 O29 1_555 1_555
O30 Gd2 1_555 1_555
H25 O30 1_555 1_555
H26 O30 1_555 1_555
O31 Gd3 1_555 1_555
H27 O31 1_555 1_555
H28 O31 1_555 1_555
O32 Gd3 1_555 1_555
H29 O32 1_555 1_555
H30 O32 1_555 1_555
O33 Gd1 1_555 1_555
H31 O33 1_555 1_555
H32 O33 1_555 1_555
Gd1_2 O10 1_555 1_555
Gd1A O16 1_555 1_555
Gd2A O3 1_555 1_555
Gd2A_2 O6 1_555 1_555
Gd3A O1 1_555 1_555
Gd3_2 O2 1_555 1_555
Gd3A_2 O9 1_555 1_555
Gd4A O1 1_555 1_555
Gd4_2 O2 1_555 1_555
Gd4A_2 O5 1_555 1_555
Gd4_3 O15 1_555 1_555
Gd4A_3 O20 1_555 1_555
O1A Gd3 1_555 1_555
H19A O1A 1_555 1_555
O2_2 Gd3 1_555 1_555
H20_2 O2_2 1_555 1_555
O3A Gd2 1_555 1_555
O3A_2 Gd3 1_555 1_555
H21A O3A 1_555 1_555
H21A_2 O3A_2 1_555 1_555
O4A Gd2 1_555 1_555
O4A_2 Gd4 1_555 1_555
H22A O4A 1_555 1_555
H22A_2 O4A_2 1_555 1_555
O5A Gd4 1_555 1_555
O6A Gd2 1_555 1_555
O9A Gd3 1_555 1_555
O10_2 Gd1 1_555 1_555
O15_2 Gd4 1_555 1_555
O16A Gd1 1_555 1_555
O20A Gd4 1_555 1_555
O21A Gd2 1_555 1_555
O28_2 Gd3 1_555 1_555
C4 N1 1_555 1_555
C5 C6 1_555 1_555
C13 N2 1_555 1_555
C20 N3 1_555 1_555
C25 N6 1_555 1_555
C26 C27 1_555 1_555
C34 N4 1_555 1_555
C41 N5 1_555 1_555
Co1 N5 1_555 1_555
Co1 O8 1_555 1_555
Co1 O13 1_555 1_555
Co1 O17 1_555 1_555
Co1 O25 1_555 1_555
Co2 N3 1_555 1_555
Co2 N6 1_555 1_555
Co2 O12 1_555 1_555
Co2 O23 1_555 1_555
Co2 O26 1_555 1_555
Gd1 O13 1_555 1_555
Gd1 O14 1_555 1_555
Gd1 O22 1_555 1_555
Gd2 O27 1_555 1_555
Gd4 O7 1_555 1_555
Gd4 O1A 1_555 1_555
Gd4 O2_2 1_555 1_555
O3 Gd3A 1_555 1_555
O4 Gd2A 1_555 1_555
O4 Gd4A 1_555 1_555
O21 Gd2A 1_555 1_555
O28 Gd3_2 1_555 1_555
Gd3_2 O3A 1_555 1_555
Gd4_2 O4A 1_555 1_555

#END
