
#######################################################################
#
#                 Cambridge Crystallographic Data Centre
#                                CCDC 
#
#######################################################################
#
# If this CIF has been generated from an entry in the Cambridge 
# Structural Database, then it will include bibliographic, chemical, 
# crystal, experimental, refinement or atomic coordinate data resulting 
# from the CCDC's data processing and validation procedures.
#
#######################################################################

data_EXEXAH
_chemical_formula_moiety         '(C16 H16 Co1 N4)n'
_symmetry_cell_setting           tetragonal
_symmetry_space_group_name_H-M   'P 42/n c m'
_symmetry_Int_Tables_number      138
_space_group_name_Hall           '-P 4ac 2ac'
loop_
_symmetry_equiv_pos_site_id
_symmetry_equiv_pos_as_xyz
1 x,y,z
2 1/2+x,-y,1/2-z
3 1/2-x,1/2-y,z
4 -x,1/2+y,1/2-z
5 1/2+y,1/2+x,-z
6 y,1/2-x,1/2+z
7 1/2-y,x,1/2+z
8 -y,-x,-z
9 -x,-y,-z
10 1/2-x,y,1/2+z
11 1/2+x,1/2+y,-z
12 x,1/2-y,1/2+z
13 1/2-y,1/2-x,z
14 -y,1/2+x,1/2-z
15 1/2+y,-x,1/2-z
16 y,x,z
_cell_length_a                   18.6070(8)
_cell_length_b                   18.6070(8)
_cell_length_c                   7.1635(5)
_cell_angle_alpha                90
_cell_angle_beta                 90
_cell_angle_gamma                90
_cell_volume                     2480.15
loop_
_atom_site_label
_atom_site_type_symbol
_atom_site_fract_x
_atom_site_fract_y
_atom_site_fract_z
_atom_site_U_iso_or_equiv
_atom_site_thermal_displace_type
Co1 Co -0.2500 0.2500 0.2500 0.0372 Uani
N1 N -0.3222(3) 0.2964(3) 0.4162(6) 0.0397 Uani
C1 C -0.4222(4) 0.3182(4) 0.1951(10) 0.0693 Uani
H1 H -0.3918 0.3216 0.0837 0.1040 Uiso
H2 H -0.4627 0.3516 0.1836 0.1040 Uiso
H3 H -0.4405 0.2690 0.2071 0.1040 Uiso
C2 C -0.3779(4) 0.3374(4) 0.3684(9) 0.0437 Uani
C3 C -0.3901(3) 0.3901(3) 0.5000 0.0473 Uani
C4 C -0.4464(4) 0.4464(4) 0.5000 0.0530 Uani
C5 C -0.4858(5) 0.4632(5) 0.6584(12) 0.0677 Uani
H4 H -0.4764 0.4377 0.7707 0.0810 Uiso
Co1D Co -0.2500 0.2500 0.7500 0.0372 Uani
Co1A Co -0.7500 0.7500 0.2500 0.0372 Uani
Co1E Co -0.7500 0.7500 0.7500 0.0372 Uani
N1G N -0.2964(3) 0.3222(3) 0.5838(6) 0.0397 Uani
N1O N -0.7036(3) 0.6778(3) 0.4162(6) 0.0397 Uani
N1H N -0.6778(3) 0.7036(3) 0.5838(6) 0.0397 Uani
N1B N -0.1778(3) 0.2036(3) 0.4162(6) 0.0397 Uani
N1M N -0.2964(3) 0.1778(3) 0.0838(6) 0.0397 Uani
N1N N -0.2036(3) 0.3222(3) 0.0838(6) 0.0397 Uani
C1G C -0.3182(4) 0.4222(4) 0.8049(10) 0.0693 Uani
C1O C -0.6818(4) 0.5778(4) 0.1951(10) 0.0693 Uani
C1H C -0.5778(4) 0.6818(4) 0.8049(10) 0.0693 Uani
H1G H -0.3216 0.3918 0.9163 0.1040 Uiso
H1O H -0.6784 0.6082 0.0837 0.1040 Uiso
H1H H -0.6082 0.6784 0.9163 0.1040 Uiso
H2G H -0.3516 0.4627 0.8164 0.1040 Uiso
H2O H -0.6484 0.5373 0.1836 0.1040 Uiso
H2H H -0.5373 0.6484 0.8164 0.1040 Uiso
H3G H -0.2690 0.4405 0.7929 0.1040 Uiso
H3O H -0.7310 0.5595 0.2071 0.1040 Uiso
H3H H -0.5595 0.7310 0.7929 0.1040 Uiso
C2G C -0.3374(4) 0.3779(4) 0.6316(9) 0.0437 Uani
C2O C -0.6626(4) 0.6221(4) 0.3684(9) 0.0437 Uani
C2H C -0.6221(4) 0.6626(4) 0.6316(9) 0.0437 Uani
C3H C -0.6099(3) 0.6099(3) 0.5000 0.0473 Uani
C4H C -0.5536(4) 0.5536(4) 0.5000 0.0530 Uani
C5O C -0.5368(5) 0.5142(5) 0.6584(12) 0.0677 Uani
C5H C -0.5142(5) 0.5368(5) 0.3416(12) 0.0677 Uani
C5G C -0.4632(5) 0.4858(5) 0.3416(12) 0.0677 Uani
H4H H -0.5236 0.5623 0.2293 0.0810 Uiso
H4G H -0.4377 0.4764 0.2293 0.0810 Uiso
H4O H -0.5623 0.5236 0.7707 0.0810 Uiso
loop_
_atom_site_aniso_label
_atom_site_aniso_U_11
_atom_site_aniso_U_22
_atom_site_aniso_U_33
_atom_site_aniso_U_23
_atom_site_aniso_U_13
_atom_site_aniso_U_12
Co1 0.0400(9) 0.0400(9) 0.0316(12) 0.000 0.000 0.000
N1 0.046(3) 0.043(3) 0.030(3) 0.001(2) 0.004(2) 0.005(3)
C1 0.077(6) 0.084(6) 0.047(5) -0.005(4) -0.014(4) 0.023(5)
C2 0.046(4) 0.051(4) 0.034(4) 0.001(3) 0.003(3) 0.015(4)
C3 0.053(4) 0.053(4) 0.036(5) 0.010(4) 0.010(4) 0.020(5)
C4 0.063(4) 0.063(4) 0.033(5) 0.003(5) 0.003(5) 0.017(6)
C5 0.085(7) 0.078(7) 0.040(5) 0.012(5) 0.012(5) 0.046(6)
Co1D 0.04 0.04 0.0316 0 0 0
Co1A 0.04 0.04 0.0316 0 0 0
Co1E 0.04 0.04 0.0316 0 0 0
N1G 0.043 0.046 0.03 0.004 0.001 0.005
N1O 0.043 0.046 0.03 0.004 0.001 0.005
N1H 0.046 0.043 0.03 0.001 0.004 0.005
N1B 0.046 0.043 0.03 -0.001 -0.004 0.005
N1M 0.043 0.046 0.03 -0.004 0.001 -0.005
N1N 0.043 0.046 0.03 0.004 -0.001 -0.005
C1G 0.084 0.077 0.047 -0.014 -0.005 0.023
C1O 0.084 0.077 0.047 -0.014 -0.005 0.023
C1H 0.077 0.084 0.047 -0.005 -0.014 0.023
C2G 0.051 0.046 0.034 0.003 0.001 0.015
C2O 0.051 0.046 0.034 0.003 0.001 0.015
C2H 0.046 0.051 0.034 0.001 0.003 0.015
C3H 0.053 0.053 0.036 0.01 0.01 0.02
C4H 0.063 0.063 0.033 0.003 0.003 0.017
C5O 0.078 0.085 0.04 0.012 0.012 0.046
C5H 0.085 0.078 0.04 0.012 0.012 0.046
C5G 0.078 0.085 0.04 0.012 0.012 0.046
loop_
_geom_bond_atom_site_label_1
_geom_bond_atom_site_label_2
_geom_bond_site_symmetry_1
_geom_bond_site_symmetry_2
Co1 N1 1_555 1_555
N1 C2 1_555 1_555
C1 H1 1_555 1_555
H2 C1 1_555 1_555
H3 C1 1_555 1_555
C2 C1 1_555 1_555
C3 C2 1_555 1_555
C4 C3 1_555 1_555
C5 C4 1_555 1_555
H4 C5 1_555 1_555
Co1D N1G 1_555 1_555
Co1A N1O 1_555 1_555
Co1E N1H 1_555 1_555
N1G N1 1_555 1_555
N1O N1H 1_555 1_555
N1H C2H 1_555 1_555
N1B Co1 1_555 1_555
N1M Co1 1_555 1_555
N1N Co1 1_555 1_555
C1G H1G 1_555 1_555
C1O H1O 1_555 1_555
C1H H1H 1_555 1_555
H2G C1G 1_555 1_555
H2O C1O 1_555 1_555
H2H C1H 1_555 1_555
H3G C1G 1_555 1_555
H3O C1O 1_555 1_555
H3H C1H 1_555 1_555
C2G C3 1_555 1_555
C2O N1O 1_555 1_555
C2H C1H 1_555 1_555
C3H C2O 1_555 1_555
C4H C3H 1_555 1_555
C5O C5 1_555 1_555
C5H C4H 1_555 1_555
C5G C4 1_555 1_555
H4H C5H 1_555 1_555
H4G C5G 1_555 1_555
H4O C5O 1_555 1_555
N1G C2G 1_555 1_555
C1G C2G 1_555 1_555
C1O C2O 1_555 1_555
C2H C3H 1_555 1_555
C4H C5O 1_555 1_555
C5H C5G 1_555 1_555

#END
