
#######################################################################
#
#                 Cambridge Crystallographic Data Centre
#                                CCDC 
#
#######################################################################
#
# If this CIF has been generated from an entry in the Cambridge 
# Structural Database, then it will include bibliographic, chemical, 
# crystal, experimental, refinement or atomic coordinate data resulting 
# from the CCDC's data processing and validation procedures.
#
#######################################################################

data_EXEXEL
_chemical_formula_moiety         'C60 H24 Co10 N18 O2'
_symmetry_cell_setting           cubic
_symmetry_space_group_name_H-M   'P -4 3 m'
_symmetry_Int_Tables_number      215
_space_group_name_Hall           'P -4 2 3'
loop_
_symmetry_equiv_pos_site_id
_symmetry_equiv_pos_as_xyz
1 x,y,z
2 -x,-y,z
3 -x,y,-z
4 x,-y,-z
5 z,x,y
6 z,-x,-y
7 -z,-x,y
8 -z,x,-y
9 y,z,x
10 -y,z,-x
11 y,-z,-x
12 -y,-z,x
13 y,x,z
14 -y,-x,z
15 y,-x,-z
16 -y,x,-z
17 x,z,y
18 -x,z,-y
19 -x,-z,y
20 x,-z,-y
21 z,y,x
22 z,-y,-x
23 -z,y,-x
24 -z,-y,x
_cell_length_a                   15.7904(2)
_cell_length_b                   15.7904(2)
_cell_length_c                   15.7904(2)
_cell_angle_alpha                90
_cell_angle_beta                 90
_cell_angle_gamma                90
_cell_volume                     3937.13
loop_
_atom_site_label
_atom_site_type_symbol
_atom_site_fract_x
_atom_site_fract_y
_atom_site_fract_z
O1 O 0.5000 0.5000 0.5000
Co1 Co 0.57122(3) 0.42878(3) 0.42878(3)
N1 N 0.53090(18) 0.46910(18) 0.31772(19)
C1 C 0.6137(3) 0.3863(3) 0.2136(4)
C2 C 0.5493(2) 0.4507(2) 0.2364(2)
C5 C 0.5000 0.5000 0.1823(3)
C6 C 0.5000 0.5000 0.0876(3)
C7 C 0.5002(5) 0.4293(5) 0.0441(3)
H13 H 0.5005 0.3767 0.0734
O1_2 O 0.5000 0.5000 -0.5000
Co1A Co 0.42878(3) 0.57122(3) 0.42878(3)
Co1B Co 0.42878(3) 0.42878(3) -0.42878(3)
Co1C Co 0.57122(3) 0.57122(3) -0.42878(3)
Co1B_2 Co 0.42878(3) 0.42878(3) 0.57122(3)
Co1C_2 Co 0.57122(3) 0.57122(3) 0.57122(3)
Co1A_2 Co 1.42878(3) 0.57122(3) 0.42878(3)
Co1B_3 Co 1.42878(3) 0.42878(3) 0.57122(3)
Co1C_3 Co 0.57122(3) -0.42878(3) 0.57122(3)
Co1A_3 Co 0.42878(3) -0.42878(3) 0.42878(3)
N1A N 0.46910(18) 0.53090(18) 0.31772(19)
N1B N 0.46910(18) 0.46910(18) -0.31772(19)
N1C N 0.53090(18) 0.53090(18) -0.31772(19)
N1F N 0.68228(19) 0.46910(18) 0.46910(18)
N1G N 0.68228(19) 0.53090(18) 0.53090(18)
N1D N 1.31772(19) 0.53090(18) 0.46910(18)
N1E N 1.31772(19) 0.46910(18) 0.53090(18)
N1I N 0.53090(18) 0.31772(19) 0.46910(18)
N1H N 0.46910(18) 0.31772(19) 0.53090(18)
N1K N 0.53090(18) -0.31772(19) 0.53090(18)
N1J N 0.46910(18) -0.31772(19) 0.46910(18)
N1D_2 N 0.31772(19) 0.53090(18) 0.46910(18)
N1J_2 N 0.46910(18) 0.68228(19) 0.46910(18)
N1E_2 N 0.31772(19) 0.46910(18) -0.46910(18)
N1H_2 N 0.46910(18) 0.31772(19) -0.46910(18)
N1G_2 N 0.68228(19) 0.53090(18) -0.46910(18)
N1K_2 N 0.53090(18) 0.68228(19) -0.46910(18)
C1A C 0.3863(3) 0.6137(3) 0.2136(4)
C1C C 0.6137(3) 0.6137(3) -0.2136(4)
C1B C 0.3863(3) 0.3863(3) -0.2136(4)
C1F C 0.7864(4) 0.3863(3) 0.3863(3)
C1G C 0.7864(4) 0.6137(3) 0.6137(3)
C1E C 1.2136(4) 0.3863(3) 0.6137(3)
C1D C 1.2136(4) 0.6137(3) 0.3863(3)
C1I C 0.6137(3) 0.2136(4) 0.3863(3)
C1H C 0.3863(3) 0.2136(4) 0.6137(3)
C1J C 0.3863(3) -0.2136(4) 0.3863(3)
C1K C 0.6137(3) -0.2136(4) 0.6137(3)
C2A C 0.4507(2) 0.5493(2) 0.2364(2)
C2B C 0.4507(2) 0.4507(2) -0.2364(2)
C2C C 0.5493(2) 0.5493(2) -0.2364(2)
C2F C 0.7636(2) 0.4507(2) 0.4507(2)
C2G C 0.7636(2) 0.5493(2) 0.5493(2)
C2D C 1.2364(2) 0.5493(2) 0.4507(2)
C2E C 1.2364(2) 0.4507(2) 0.5493(2)
C2I C 0.5493(2) 0.2364(2) 0.4507(2)
C2H C 0.4507(2) 0.2364(2) 0.5493(2)
C2K C 0.5493(2) -0.2364(2) 0.5493(2)
C2J C 0.4507(2) -0.2364(2) 0.4507(2)
C5B C 0.5000 0.5000 -0.1823(3)
C5F C 0.8177(3) 0.5000 0.5000
C5D C 1.1823(3) 0.5000 0.5000
C5H C 0.5000 0.1823(3) 0.5000
C5J C 0.5000 -0.1823(3) 0.5000
C6B C 0.5000 0.5000 -0.0876(3)
C6F C 0.9124(3) 0.5000 0.5000
C6D C 1.0876(3) 0.5000 0.5000
C6H C 0.5000 0.0876(3) 0.5000
C6J C 0.5000 -0.0876(3) 0.5000
C7B C 0.4998(5) 0.4293(5) -0.0441(3)
C7C C 0.5002(5) 0.5707(5) -0.0441(3)
C7A C 0.4998(5) 0.5707(5) 0.0441(3)
C7L C 0.4293(5) 0.5002(5) 0.0441(3)
C7N C 0.4293(5) 0.4998(5) -0.0441(3)
C7O C 0.5707(5) 0.5002(5) -0.0441(3)
C7M C 0.5707(5) 0.4998(5) 0.0441(3)
C7F C 0.9559(3) 0.4998(5) 0.4293(5)
C7D C 1.0441(3) 0.5002(5) 0.4293(5)
C7E C 1.0441(3) 0.4998(5) 0.5707(5)
C7G C 0.9559(3) 0.5002(5) 0.5707(5)
C7W C 0.9559(3) 0.5707(5) 0.5002(5)
C7U C 1.0441(3) 0.5707(5) 0.4998(5)
C7T C 1.0441(3) 0.4293(5) 0.5002(5)
C7V C 0.9559(3) 0.4293(5) 0.4998(5)
C7I C 0.5707(5) 0.0441(3) 0.4998(5)
C7K C 0.5707(5) -0.0441(3) 0.5002(5)
C7J C 0.4293(5) -0.0441(3) 0.4998(5)
C7H C 0.4293(5) 0.0441(3) 0.5002(5)
C7Q C 0.4998(5) 0.0441(3) 0.5707(5)
C7S C 0.5002(5) -0.0441(3) 0.5707(5)
C7R C 0.4998(5) -0.0441(3) 0.4293(5)
C7P C 0.5002(5) 0.0441(3) 0.4293(5)
H13C H 0.5005 0.6233 -0.0734
H13L H 0.3767 0.5005 0.0734
H13O H 0.6233 0.5005 -0.0734
H13M H 0.6233 0.4995 0.0734
H13A H 0.4995 0.6233 0.0734
H13B H 0.4995 0.3767 -0.0734
H13N H 0.3767 0.4995 -0.0734
H13F H 0.9266 0.4995 0.3767
H13E H 1.0734 0.4995 0.6233
H13W H 0.9266 0.6233 0.5005
H13T H 1.0734 0.3767 0.5005
H13V H 0.9266 0.3767 0.4995
H13G H 0.9266 0.5005 0.6233
H13D H 1.0734 0.5005 0.3767
H13U H 1.0734 0.6233 0.4995
H13I H 0.6233 0.0734 0.4995
H13J H 0.3767 -0.0734 0.4995
H13Q H 0.4995 0.0734 0.6233
H13R H 0.4995 -0.0734 0.3767
H13P H 0.5005 0.0734 0.3767
H13H H 0.3767 0.0734 0.5005
H13K H 0.6233 -0.0734 0.5005
H13S H 0.5005 -0.0734 0.6233
loop_
_geom_bond_atom_site_label_1
_geom_bond_atom_site_label_2
_geom_bond_site_symmetry_1
_geom_bond_site_symmetry_2
O1 Co1 1_555 1_555
Co1 N1 1_555 1_555
N1 C2 1_555 1_555
C1 C2 1_555 1_555
C2 C5 1_555 1_555
C5 C6 1_555 1_555
C6 C7 1_555 1_555
C7 H13 1_555 1_555
O1_2 Co1B 1_555 1_555
Co1A O1 1_555 1_555
Co1B N1B 1_555 1_555
Co1C O1_2 1_555 1_555
Co1B_2 O1 1_555 1_555
Co1C_2 O1 1_555 1_555
Co1A_2 N1D 1_555 1_555
Co1B_3 N1E 1_555 1_555
Co1C_3 N1K 1_555 1_555
Co1A_3 N1J 1_555 1_555
N1A N1 1_555 1_555
N1B N1C 1_555 1_555
N1C Co1C 1_555 1_555
N1F Co1 1_555 1_555
N1G Co1C_2 1_555 1_555
N1D N1E 1_555 1_555
N1E C2E 1_555 1_555
N1I Co1 1_555 1_555
N1H Co1B_2 1_555 1_555
N1K N1J 1_555 1_555
N1J C2J 1_555 1_555
N1D_2 Co1A 1_555 1_555
N1J_2 Co1A 1_555 1_555
N1E_2 Co1B 1_555 1_555
N1H_2 Co1B 1_555 1_555
N1G_2 Co1C 1_555 1_555
N1K_2 Co1C 1_555 1_555
C1A C2A 1_555 1_555
C1C C2C 1_555 1_555
C1B C2B 1_555 1_555
C1F C2F 1_555 1_555
C1G C2G 1_555 1_555
C1E C2E 1_555 1_555
C1D C2D 1_555 1_555
C1I C2I 1_555 1_555
C1H C2H 1_555 1_555
C1J C2J 1_555 1_555
C1K C2K 1_555 1_555
C2A C5 1_555 1_555
C2B N1B 1_555 1_555
C2C N1C 1_555 1_555
C2F N1F 1_555 1_555
C2G N1G 1_555 1_555
C2D N1D 1_555 1_555
C2E C5D 1_555 1_555
C2I N1I 1_555 1_555
C2H N1H 1_555 1_555
C2K N1K 1_555 1_555
C2J C5J 1_555 1_555
C5B C2B 1_555 1_555
C5F C2F 1_555 1_555
C5D C2D 1_555 1_555
C5H C2I 1_555 1_555
C5J C2K 1_555 1_555
C6B C5B 1_555 1_555
C6F C5F 1_555 1_555
C6D C5D 1_555 1_555
C6H C5H 1_555 1_555
C6J C5J 1_555 1_555
C7B C7 1_555 1_555
C7C C6B 1_555 1_555
C7A C6 1_555 1_555
C7L C6 1_555 1_555
C7N C6B 1_555 1_555
C7O C6B 1_555 1_555
C7M C6 1_555 1_555
C7F C6F 1_555 1_555
C7D C6D 1_555 1_555
C7E C6D 1_555 1_555
C7G C6F 1_555 1_555
C7W C6F 1_555 1_555
C7U C6D 1_555 1_555
C7T C6D 1_555 1_555
C7V C6F 1_555 1_555
C7I C6H 1_555 1_555
C7K C6J 1_555 1_555
C7J C6J 1_555 1_555
C7H C6H 1_555 1_555
C7Q C6H 1_555 1_555
C7S C6J 1_555 1_555
C7R C6J 1_555 1_555
C7P C6H 1_555 1_555
H13C C7C 1_555 1_555
H13L C7L 1_555 1_555
H13O C7O 1_555 1_555
H13M C7M 1_555 1_555
H13A C7A 1_555 1_555
H13B C7B 1_555 1_555
H13N C7N 1_555 1_555
H13F C7F 1_555 1_555
H13E C7E 1_555 1_555
H13W C7W 1_555 1_555
H13T C7T 1_555 1_555
H13V C7V 1_555 1_555
H13G C7G 1_555 1_555
H13D C7D 1_555 1_555
H13U C7U 1_555 1_555
H13I C7I 1_555 1_555
H13J C7J 1_555 1_555
H13Q C7Q 1_555 1_555
H13R C7R 1_555 1_555
H13P C7P 1_555 1_555
H13H C7H 1_555 1_555
H13K C7K 1_555 1_555
H13S C7S 1_555 1_555
C7 C7L 1_555 1_555
C7 C7M 1_555 1_555
Co1A N1A 1_555 1_555
N1A C2A 1_555 1_555
N1F N1G 1_555 1_555
N1I N1H 1_555 1_555
C2C C5B 1_555 1_555
C2G C5F 1_555 1_555
C2H C5H 1_555 1_555
C6B C7B 1_555 1_555
C7B C7N 1_555 1_555
C7B C7O 1_555 1_555
C7C C7A 1_555 1_555
C7C C7N 1_555 1_555
C7C C7O 1_555 1_555
C7A C7L 1_555 1_555
C7A C7M 1_555 1_555
C7L C7N 1_555 1_555
C7O C7M 1_555 1_555
C7F C7D 1_555 1_555
C7F C7W 1_555 1_555
C7F C7V 1_555 1_555
C7D C7U 1_555 1_555
C7D C7T 1_555 1_555
C7E C7G 1_555 1_555
C7E C7U 1_555 1_555
C7E C7T 1_555 1_555
C7G C7W 1_555 1_555
C7G C7V 1_555 1_555
C7W C7U 1_555 1_555
C7T C7V 1_555 1_555
C7I C7K 1_555 1_555
C7I C7Q 1_555 1_555
C7I C7P 1_555 1_555
C7K C7S 1_555 1_555
C7K C7R 1_555 1_555
C7J C7H 1_555 1_555
C7J C7S 1_555 1_555
C7J C7R 1_555 1_555
C7H C7Q 1_555 1_555
C7H C7P 1_555 1_555
C7Q C7S 1_555 1_555
C7R C7P 1_555 1_555

#END
