
#######################################################################
#
#                 Cambridge Crystallographic Data Centre
#                                CCDC 
#
#######################################################################
#
# If this CIF has been generated from an entry in the Cambridge 
# Structural Database, then it will include bibliographic, chemical, 
# crystal, experimental, refinement or atomic coordinate data resulting 
# from the CCDC's data processing and validation procedures.
#
#######################################################################

data_LITDAV
_chemical_formula_moiety         '(C68 H52 O28 Zn4)n'
_symmetry_cell_setting           monoclinic
_symmetry_space_group_name_H-M   'P 21/c'
_symmetry_Int_Tables_number      14
_space_group_name_Hall           '-P 2ybc'
loop_
_symmetry_equiv_pos_site_id
_symmetry_equiv_pos_as_xyz
1 x,y,z
2 -x,1/2+y,1/2-z
3 -x,-y,-z
4 x,1/2-y,1/2+z
_cell_length_a                   10.107(4)
_cell_length_b                   18.338(7)
_cell_length_c                   27.084(11)
_cell_angle_alpha                90
_cell_angle_beta                 99.285(8)
_cell_angle_gamma                90
_cell_volume                     4954.04
loop_
_atom_site_label
_atom_site_type_symbol
_atom_site_fract_x
_atom_site_fract_y
_atom_site_fract_z
Zn1 Zn 0.46427(4) 0.80393(2) 0.307576(14)
Zn2 Zn 0.63667(4) 0.73013(2) 0.219178(15)
O1 O -0.3532(2) 0.82958(15) 0.33933(10)
O2 O 0.4835(3) 0.69871(14) 0.31377(11)
C1 C -0.1132(3) 0.88177(19) 0.38873(13)
H1 H -0.1912 0.8933 0.4011
C2 C -0.1214(3) 0.83738(18) 0.34702(12)
O3 O 0.5664(3) 0.64691(13) 0.25119(9)
O4 O -0.2540(3) 0.77277(16) 0.28356(10)
C3 C -0.0054(3) 0.81919(18) 0.32940(13)
H2 H -0.0093 0.7890 0.3016
C4 C 0.5099(4) 0.44396(18) 0.31553(13)
C5 C -0.2525(3) 0.8104(2) 0.32107(13)
C6 C 0.5016(4) 0.50493(18) 0.44826(13)
C7 C 0.5257(4) 0.64519(19) 0.29228(14)
C8 C 0.0740(3) 0.9347(2) 0.50403(13)
C9 C 0.0086(3) 0.9572(2) 0.45756(13)
O5 O 0.2928(3) 0.78713(16) 0.56520(11)
C10 C 0.1163(3) 0.8455(2) 0.35284(13)
C11 C 0.0646(3) 0.9773(2) 0.54769(13)
C12 C 0.5007(4) 0.44277(19) 0.36595(13)
H3 H 0.4905 0.3985 0.3816
C13 C 0.0076(3) 0.9095(2) 0.41251(13)
C14 C 0.5065(4) 0.50727(19) 0.39349(13)
C15 C 0.5223(3) 0.57361(18) 0.31818(12)
C16 C 0.5130(4) 0.57191(18) 0.36805(13)
H4 H 0.5111 0.6157 0.3853
C17 C 0.1234(3) 0.8909(2) 0.39433(13)
H5 H 0.2059 0.9088 0.4098
C18 C 0.6131(4) 0.47673(18) 0.48071(13)
C19 C 0.5247(3) 0.50925(18) 0.29211(12)
H6 H 0.5362 0.5100 0.2587
C20 C 0.3899(4) 0.52919(19) 0.46752(13)
C21 C 0.1505(4) 0.8685(2) 0.51082(14)
H7 H 0.1556 0.8392 0.4832
C22 C 0.7336(4) 0.4562(2) 0.46289(15)
H8 H 0.7388 0.4623 0.4292
O6 O 0.0599(3) 0.6157(2) 0.42883(12)
C23 C 0.2012(4) 0.8887(2) 0.59945(15)
C24 C 0.2756(4) 0.5603(2) 0.43582(15)
H9 H 0.2770 0.5656 0.4018
C25 C 0.1292(4) 0.9507(2) 0.59530(14)
H10 H 0.1210 0.9769 0.6240
C26 C 0.2150(4) 0.8476(2) 0.55590(16)
O7 O 0.9568(3) 0.4083(2) 0.48040(12)
C27 C 0.9688(6) 0.4221(4) 0.4287(2)
H11 H 0.9078 0.3912 0.4073
H12 H 1.0589 0.4122 0.4237
H13 H 0.9476 0.4722 0.4208
C28 C 0.8387(5) 0.4288(2) 0.49328(16)
C29 C 0.3079(6) 0.7435(3) 0.5228(2)
H14 H 0.3380 0.7735 0.4978
H15 H 0.2232 0.7218 0.5093
H16 H 0.3725 0.7057 0.5328
C30 C 0.1679(5) 0.5817(2) 0.45464(16)
O8 O 0.3533(2) 0.84565(16) 0.35613(10)
O9 O 0.2355(2) 0.78669(16) 0.29485(10)
O10 O 0.5468(3) 0.69222(16) 0.14686(10)
H17 H 0.4593 0.6884 0.1450
H18 H 0.5776 0.6489 0.1401
O11 O 0.5518(3) 0.37242(14) 0.24843(11)
C31 C 0.2417(3) 0.8241(2) 0.33300(14)
O12 O 0.4423(4) 0.32323(15) 0.30357(11)
O13 O 0.8059(3) 0.7007(2) 0.19800(13)
H19 H 0.8200 0.6483 0.1813
H20 H 0.8920 0.6974 0.2251
C32 C 0.0654(7) 0.6394(4) 0.3790(2)
H21 H 0.0747 0.5978 0.3583
H22 H 0.1408 0.6713 0.3792
H23 H -0.0156 0.6650 0.3661
C33 C 0.5005(4) 0.3738(2) 0.28674(13)
O14 O 0.2663(3) 0.86003(18) 0.64279(11)
C34 C 0.2452(6) 0.8953(4) 0.68812(18)
H24 H 0.1508 0.9005 0.6882
H25 H 0.2865 0.9426 0.6901
H26 H 0.2843 0.8665 0.7163
O1B O 0.3532(2) 1.17042(15) 0.66067(10)
C1B C 0.1132(3) 1.11823(19) 0.61127(13)
H1B H 0.1912 1.1067 0.5989
C2B C 0.1214(3) 1.16262(18) 0.65298(12)
O4B O 0.2540(3) 1.22723(16) 0.71644(10)
C3B C 0.0054(3) 1.18081(18) 0.67060(13)
H2B H 0.0093 1.2110 0.6984
C5B C 0.2525(3) 1.1896(2) 0.67893(13)
C8B C -0.0740(3) 1.0653(2) 0.49597(13)
C9B C -0.0086(3) 1.0428(2) 0.54244(13)
O5B O -0.2928(3) 1.21287(16) 0.43480(11)
C10B C -0.1163(3) 1.1545(2) 0.64716(13)
C11B C -0.0646(3) 1.0227(2) 0.45231(13)
C13B C -0.0076(3) 1.0905(2) 0.58749(13)
C17B C -0.1234(3) 1.1091(2) 0.60567(13)
H5B H -0.2059 1.0912 0.5902
C21B C -0.1505(4) 1.1315(2) 0.48918(14)
H7B H -0.1556 1.1608 0.5168
C23B C -0.2012(4) 1.1113(2) 0.40055(15)
C25B C -0.1292(4) 1.0493(2) 0.40470(14)
H10B H -0.1210 1.0231 0.3760
C26B C -0.2150(4) 1.1524(2) 0.44410(16)
C29B C -0.3079(6) 1.2565(3) 0.4772(2)
H14B H -0.3380 1.2265 0.5022
H15B H -0.2232 1.2782 0.4907
H16B H -0.3725 1.2943 0.4672
O8B O -0.3533(2) 1.15435(16) 0.64387(10)
O9B O -0.2355(2) 1.21331(16) 0.70515(10)
C31B C -0.2417(3) 1.1759(2) 0.66700(14)
O14B O -0.2663(3) 1.13997(18) 0.35721(11)
C34B C -0.2452(6) 1.1047(4) 0.31188(18)
H24B H -0.1508 1.0995 0.3118
H25B H -0.2865 1.0574 0.3099
H26B H -0.2843 1.1335 0.2837
O2B O 0.5165(3) 0.30129(14) 0.68623(11)
O3B O 0.4336(3) 0.35309(13) 0.74881(9)
C4B C 0.4901(4) 0.55604(18) 0.68447(13)
C6B C 0.4984(4) 0.49507(18) 0.55174(13)
C7B C 0.4743(4) 0.35481(19) 0.70772(14)
C12B C 0.4993(4) 0.55723(19) 0.63405(13)
H3B H 0.5095 0.6015 0.6184
C14B C 0.4935(4) 0.49273(19) 0.60651(13)
C15B C 0.4777(3) 0.42639(18) 0.68182(12)
C16B C 0.4870(4) 0.42809(18) 0.63195(13)
H4B H 0.4889 0.3843 0.6147
C18B C 0.3869(4) 0.52327(18) 0.51929(13)
C19B C 0.4753(3) 0.49075(18) 0.70789(12)
H6B H 0.4638 0.4900 0.7413
C20B C 0.6101(4) 0.47081(19) 0.53248(13)
C22B C 0.2664(4) 0.5438(2) 0.53711(15)
H8B H 0.2612 0.5377 0.5708
O6B O 0.9401(3) 0.3843(2) 0.57117(12)
C24B C 0.7244(4) 0.4397(2) 0.56418(15)
H9B H 0.7230 0.4344 0.5982
O7B O 0.0432(3) 0.5917(2) 0.51960(12)
C27B C 0.0312(6) 0.5779(4) 0.5713(2)
H11B H 0.0922 0.6088 0.5927
H12B H -0.0589 0.5878 0.5763
H13B H 0.0524 0.5278 0.5792
C28B C 0.1613(5) 0.5712(2) 0.50672(16)
C30B C 0.8321(5) 0.4183(2) 0.54536(16)
O11B O 0.4482(3) 0.62758(14) 0.75157(11)
O12B O 0.5577(4) 0.67677(15) 0.69643(11)
C32B C 0.9346(7) 0.3606(4) 0.6210(2)
H21B H 0.9253 0.4022 0.6417
H22B H 0.8592 0.3287 0.6208
H23B H 1.0156 0.3350 0.6339
C33B C 0.4995(4) 0.6262(2) 0.71326(13)
Zn1B Zn -0.46427(4) 1.19607(2) 0.692424(14)
Zn2_2 Zn -0.36333(4) 0.73013(2) 0.219178(15)
O10_2 O -0.4532(3) 0.69222(16) 0.14686(10)
H17_2 H -0.5407 0.6884 0.1450
H18_2 H -0.4224 0.6489 0.1401
O13_2 O -0.1941(3) 0.7007(2) 0.19800(13)
H19_2 H -0.1800 0.6483 0.1813
H20_2 H -0.1080 0.6974 0.2251
Zn1_2 Zn -0.53573(4) 0.80393(2) 0.307576(14)
Zn1A Zn 0.53573(4) 0.30393(2) 0.192424(14)
Zn1B_2 Zn 0.53573(4) 0.19607(2) 0.692424(14)
Zn1B_3 Zn 0.53573(4) 1.19607(2) 0.692424(14)
Zn1C Zn 0.46427(4) 0.69607(2) 0.807576(14)
Zn2A Zn 0.36333(4) 0.23013(2) 0.280822(15)
Zn2B Zn 0.36333(4) 0.26987(2) 0.780822(15)
Zn2B_2 Zn 0.36333(4) 1.26987(2) 0.780822(15)
Zn2C Zn 0.63667(4) 0.76987(2) 0.719178(15)
O1_2 O 0.6468(2) 0.82958(15) 0.33933(10)
O1B_2 O -0.6468(2) 1.17042(15) 0.66067(10)
O2B_2 O -0.4835(3) 1.30129(14) 0.68623(11)
O3_2 O -0.4336(3) 0.64691(13) 0.25119(9)
O4_2 O 0.7460(3) 0.77277(16) 0.28356(10)
O11A O 0.4482(3) 0.87242(14) 0.25157(11)
O11C O -0.4482(3) 1.12758(14) 0.74843(11)
O12A O -0.4423(4) 0.82323(15) 0.19643(11)
O12A_2 O 0.5577(4) 0.82323(15) 0.19643(11)
loop_
_geom_bond_atom_site_label_1
_geom_bond_atom_site_label_2
_geom_bond_site_symmetry_1
_geom_bond_site_symmetry_2
Zn1 O2 1_555 1_555
Zn2 O3 1_555 1_555
O1 C5 1_555 1_555
O2 C7 1_555 1_555
C1 H1 1_555 1_555
C2 C1 1_555 1_555
O3 C7 1_555 1_555
O4 C5 1_555 1_555
C3 C2 1_555 1_555
H2 C3 1_555 1_555
C4 C12 1_555 1_555
C5 C2 1_555 1_555
C6 C14 1_555 1_555
C7 C15 1_555 1_555
C8 C9 1_555 1_555
C9 C13 1_555 1_555
O5 C26 1_555 1_555
C10 C3 1_555 1_555
C11 C8 1_555 1_555
C12 H3 1_555 1_555
C13 C1 1_555 1_555
C14 C12 1_555 1_555
C15 C16 1_555 1_555
C16 C14 1_555 1_555
H4 C16 1_555 1_555
C17 C10 1_555 1_555
H5 C17 1_555 1_555
C18 C6 1_555 1_555
C19 C4 1_555 1_555
H6 C19 1_555 1_555
C20 C6 1_555 1_555
C21 C8 1_555 1_555
H7 C21 1_555 1_555
C22 C18 1_555 1_555
H8 C22 1_555 1_555
O6 C30 1_555 1_555
C23 C25 1_555 1_555
C24 C20 1_555 1_555
H9 C24 1_555 1_555
C25 C11 1_555 1_555
H10 C25 1_555 1_555
C26 C21 1_555 1_555
O7 C27 1_555 1_555
C27 H11 1_555 1_555
H12 C27 1_555 1_555
H13 C27 1_555 1_555
C28 C22 1_555 1_555
C29 O5 1_555 1_555
H14 C29 1_555 1_555
H15 C29 1_555 1_555
H16 C29 1_555 1_555
C30 C24 1_555 1_555
O8 Zn1 1_555 1_555
O9 Zn1 1_555 1_555
O10 Zn2 1_555 1_555
H17 O10 1_555 1_555
H18 O10 1_555 1_555
O11 C33 1_555 1_555
C31 C10 1_555 1_555
O12 C33 1_555 1_555
O13 Zn2 1_555 1_555
H19 O13 1_555 1_555
H20 O13 1_555 1_555
C32 O6 1_555 1_555
H21 C32 1_555 1_555
H22 C32 1_555 1_555
H23 C32 1_555 1_555
C33 C4 1_555 1_555
O14 C23 1_555 1_555
C34 O14 1_555 1_555
H24 C34 1_555 1_555
H25 C34 1_555 1_555
H26 C34 1_555 1_555
O1B C5B 1_555 1_555
C1B H1B 1_555 1_555
C2B C1B 1_555 1_555
O4B C5B 1_555 1_555
C3B C2B 1_555 1_555
H2B C3B 1_555 1_555
C5B C2B 1_555 1_555
C8B C9B 1_555 1_555
C9B C11 1_555 1_555
O5B C26B 1_555 1_555
C10B C3B 1_555 1_555
C11B C9 1_555 1_555
C13B C1B 1_555 1_555
C17B C10B 1_555 1_555
H5B C17B 1_555 1_555
C21B C8B 1_555 1_555
H7B C21B 1_555 1_555
C23B C25B 1_555 1_555
C25B C11B 1_555 1_555
H10B C25B 1_555 1_555
C26B C21B 1_555 1_555
C29B O5B 1_555 1_555
H14B C29B 1_555 1_555
H15B C29B 1_555 1_555
H16B C29B 1_555 1_555
O8B C31B 1_555 1_555
O9B C31B 1_555 1_555
C31B C10B 1_555 1_555
O14B C23B 1_555 1_555
C34B O14B 1_555 1_555
H24B C34B 1_555 1_555
H25B C34B 1_555 1_555
H26B C34B 1_555 1_555
O2B C7B 1_555 1_555
O3B C7B 1_555 1_555
C4B C12B 1_555 1_555
C6B C14B 1_555 1_555
C7B C15B 1_555 1_555
C12B H3B 1_555 1_555
C14B C12B 1_555 1_555
C15B C16B 1_555 1_555
C16B C14B 1_555 1_555
H4B C16B 1_555 1_555
C18B C20 1_555 1_555
C19B C4B 1_555 1_555
H6B C19B 1_555 1_555
C20B C18 1_555 1_555
C22B C18B 1_555 1_555
H8B C22B 1_555 1_555
O6B C30B 1_555 1_555
C24B C20B 1_555 1_555
H9B C24B 1_555 1_555
O7B C27B 1_555 1_555
C27B H11B 1_555 1_555
H12B C27B 1_555 1_555
H13B C27B 1_555 1_555
C28B C30 1_555 1_555
C30B C28 1_555 1_555
O11B C33B 1_555 1_555
O12B C33B 1_555 1_555
C32B O6B 1_555 1_555
H21B C32B 1_555 1_555
H22B C32B 1_555 1_555
H23B C32B 1_555 1_555
C33B C4B 1_555 1_555
Zn1B O8B 1_555 1_555
Zn2_2 O4 1_555 1_555
O10_2 Zn2_2 1_555 1_555
H17_2 O10_2 1_555 1_555
H18_2 O10_2 1_555 1_555
O13_2 Zn2_2 1_555 1_555
H19_2 O13_2 1_555 1_555
H20_2 O13_2 1_555 1_555
Zn1_2 O1 1_555 1_555
Zn1A O11 1_555 1_555
Zn1B_2 O2B 1_555 1_555
Zn1B_3 O1B 1_555 1_555
Zn1C O11B 1_555 1_555
Zn2A O12 1_555 1_555
Zn2B O3B 1_555 1_555
Zn2B_2 O4B 1_555 1_555
Zn2C O12B 1_555 1_555
O1_2 Zn1 1_555 1_555
O1B_2 Zn1B 1_555 1_555
O2B_2 Zn1B 1_555 1_555
O3_2 Zn2_2 1_555 1_555
O4_2 Zn2 1_555 1_555
O11A Zn1 1_555 1_555
O11C Zn1B 1_555 1_555
O12A Zn2_2 1_555 1_555
O12A_2 Zn2 1_555 1_555
C13 C17 1_555 1_555
C15 C19 1_555 1_555
C23 C26 1_555 1_555
O7 C28 1_555 1_555
O8 C31 1_555 1_555
O9 C31 1_555 1_555
C8B C11B 1_555 1_555
C9B C13B 1_555 1_555
C13B C17B 1_555 1_555
C23B C26B 1_555 1_555
O9B Zn1B 1_555 1_555
C6B C18B 1_555 1_555
C6B C20B 1_555 1_555
C15B C19B 1_555 1_555
C22B C28B 1_555 1_555
C24B C30B 1_555 1_555
O7B C28B 1_555 1_555

#END
