
#######################################################################
#
#                 Cambridge Crystallographic Data Centre
#                                CCDC 
#
#######################################################################
#
# If this CIF has been generated from an entry in the Cambridge 
# Structural Database, then it will include bibliographic, chemical, 
# crystal, experimental, refinement or atomic coordinate data resulting 
# from the CCDC's data processing and validation procedures.
#
#######################################################################

data_EGIFUV
_chemical_formula_moiety         'C39 H37 Cd6 N2 O6 S6'
_symmetry_cell_setting           monoclinic
_symmetry_space_group_name_H-M   'C 2/m'
_symmetry_Int_Tables_number      12
_space_group_name_Hall           '-C 2y'
loop_
_symmetry_equiv_pos_site_id
_symmetry_equiv_pos_as_xyz
1 x,y,z
2 1/2+x,1/2+y,z
3 x,-y,z
4 1/2+x,1/2-y,z
5 -x,-y,-z
6 1/2-x,1/2-y,-z
7 -x,y,-z
8 1/2-x,1/2+y,-z
_cell_length_a                   27.156(3)
_cell_length_b                   26.242(3)
_cell_length_c                   13.2949(16)
_cell_angle_alpha                90.00
_cell_angle_beta                 90.570(3)
_cell_angle_gamma                90.00
_cell_volume                     9473.85
loop_
_atom_site_label
_atom_site_type_symbol
_atom_site_fract_x
_atom_site_fract_y
_atom_site_fract_z
O3 O 0.4932(8) 0.5000 -0.2154(17)
O4 O -0.0543(6) 0.0836(6) -0.5143(13)
O5 O -0.1033(8) 0.0765(8) -0.6589(16)
O7 O -0.027(3) -0.0000 -0.429(6)
Cd1 Cd 0.06174(2) 0.42034(3) -0.82123(5)
Cd2 Cd 0.08705(3) 0.42014(3) -0.12559(5)
N1 N 0.1138(3) 0.3748(3) -0.7113(5)
N2 N 0.1401(3) 0.3686(3) -0.2228(5)
C1 C 0.1805(4) 0.3189(4) -0.5949(6)
C2 C 0.1902(4) 0.3111(4) -0.3669(7)
C3 C 0.1424(4) 0.3183(4) -0.2169(7)
H1 H 0.1272 0.3025 -0.1629
C4 C 0.1617(4) 0.3820(4) -0.7164(7)
H2 H 0.1724 0.4071 -0.7603
C5 C 0.1321(5) 0.3118(5) -0.5862(9)
H3 H 0.1203 0.2879 -0.5407
C6 C 0.1663(4) 0.2878(5) -0.2864(7)
H4 H 0.1663 0.2525 -0.2796
C7 C 0.2481(4) 0.2556(5) -0.6038(7)
H5 H 0.2459 0.2585 -0.6734
C8 C 0.2185(4) 0.2791(5) -0.4399(7)
C9 C 0.1974(4) 0.3560(5) -0.6628(8)
H6 H 0.2307 0.3626 -0.6710
C10 C 0.1865(4) 0.3632(5) -0.3744(8)
H7 H 0.2005 0.3801 -0.4286
C11 C 0.1621(5) 0.3903(5) -0.3021(8)
H8 H 0.1607 0.4256 -0.3083
C12 C 0.2172(4) 0.2867(5) -0.5405(8)
C13 C 0.0988(4) 0.3403(5) -0.6457(9)
H9 H 0.0652 0.3347 -0.6386
S2 S -0.02052(11) 0.40776(16) -0.7404(3)
C14 C -0.0248(4) 0.3408(6) -0.7219(8)
C15 C -0.0375(5) 0.3219(9) -0.6271(10)
H10 H -0.0443 0.3447 -0.5756
C16 C -0.0400(7) 0.2704(9) -0.6081(17)
H11 H -0.0482 0.2587 -0.5444
C17 C -0.0303(8) 0.2362(10) -0.6851(17)
H12 H -0.0327 0.2014 -0.6732
C18 C -0.0169(6) 0.2537(6) -0.7800(17)
H13 H -0.0095 0.2310 -0.8313
C19 C -0.0149(5) 0.3059(5) -0.7957(10)
H14 H -0.0065 0.3178 -0.8592
S3 S 0.08078(12) 0.36502(12) -0.97335(17)
C20 C 0.1395(6) 0.3374(5) -0.9471(8)
C21 C 0.1828(5) 0.3593(8) -0.9727(10)
H15 H 0.1826 0.3910 -1.0040
C22 C 0.2276(7) 0.3351(11) -0.9530(13)
H16 H 0.2564 0.3508 -0.9742
C23 C 0.2312(10) 0.2896(10) -0.9042(19)
H17 H 0.2613 0.2749 -0.8868
C24 C 0.1871(10) 0.2670(9) -0.8828(18)
H18 H 0.1871 0.2343 -0.8559
C25 C 0.1423(11) 0.2910(6) -0.8995(11)
H19 H 0.1135 0.2754 -0.8781
S4 S 0.1349(2) 0.5000 -0.1633(3)
C26 C 0.1891(9) 0.5000 -0.0940(17)
C27 C 0.1913(12) 0.5000 0.0105(19)
H20 H 0.1622 0.5000 0.0470
C28 C 0.2364(13) 0.5000 0.061(4)
H21 H 0.2392 0.5000 0.1310
C29 C 0.2312(11) 0.5000 -0.152(3)
H22 H 0.2284 0.5000 -0.2216
C30 C 0.2775(16) 0.5000 -0.107(4)
H23 H 0.3065 0.5000 -0.1432
C31 C 0.2770(16) 0.5000 -0.002(4)
H24 H 0.3077 0.5000 0.0296
S5 S 0.11032(16) 0.5000 -0.7848(3)
C32 C 0.1096(8) 0.5000 -0.6494(15)
C33 C 0.0683(12) 0.5000 -0.5951(13)
H25 H 0.0385 0.5000 -0.6302
C34 C 0.0662(13) 0.5000 -0.4935(14)
H26 H 0.0366 0.5000 -0.4589
C35 C 0.1107(12) 0.5000 -0.446(2)
H27 H 0.1107 0.5000 -0.3761
C36 C 0.1545(14) 0.5000 -0.4915(15)
H28 H 0.1843 0.5000 -0.4565
C37 C 0.1513(10) 0.5000 -0.5947(15)
H29 H 0.1807 0.5000 -0.6297
O1 O -0.0062(5) 0.4653(7) -0.9179(11)
S2F S 0.02052(11) 0.40776(16) -0.2596(3)
S3_2 S 0.08078(12) 0.36502(12) 0.02665(17)
O1F O 0.0062(5) 0.4653(7) -0.0821(11)
C8E C 0.2815(4) 0.2209(5) -0.5601(7)
C7E C 0.2519(4) 0.2444(5) -0.3962(7)
Cd2F Cd -0.08705(3) 0.42014(3) -0.87441(5)
Cd2_2 Cd 0.08705(3) 0.42014(3) -1.12559(5)
Cd2B Cd 0.08705(3) 0.57986(3) -0.12559(5)
Cd1B Cd 0.06174(2) 0.57966(3) -0.82123(5)
loop_
_geom_bond_atom_site_label_1
_geom_bond_atom_site_label_2
_geom_bond_site_symmetry_1
_geom_bond_site_symmetry_2
Cd1 N1 1_555 1_555
Cd2 N2 1_555 1_555
N1 C4 1_555 1_555
N2 C3 1_555 1_555
C1 C5 1_555 1_555
C2 C6 1_555 1_555
C3 H1 1_555 1_555
C4 H2 1_555 1_555
C5 H3 1_555 1_555
C6 C3 1_555 1_555
H4 C6 1_555 1_555
C7 H5 1_555 1_555
C8 C2 1_555 1_555
C9 C1 1_555 1_555
H6 C9 1_555 1_555
C10 C2 1_555 1_555
H7 C10 1_555 1_555
C11 N2 1_555 1_555
H8 C11 1_555 1_555
C12 C1 1_555 1_555
C13 N1 1_555 1_555
H9 C13 1_555 1_555
S2 Cd1 1_555 1_555
C14 S2 1_555 1_555
C15 C14 1_555 1_555
H10 C15 1_555 1_555
C16 C15 1_555 1_555
H11 C16 1_555 1_555
C17 C16 1_555 1_555
H12 C17 1_555 1_555
C18 C17 1_555 1_555
H13 C18 1_555 1_555
C19 C14 1_555 1_555
H14 C19 1_555 1_555
S3 Cd1 1_555 1_555
C20 S3 1_555 1_555
C21 C20 1_555 1_555
H15 C21 1_555 1_555
C22 C21 1_555 1_555
H16 C22 1_555 1_555
C23 C22 1_555 1_555
H17 C23 1_555 1_555
C24 C23 1_555 1_555
H18 C24 1_555 1_555
C25 C20 1_555 1_555
H19 C25 1_555 1_555
S4 Cd2 1_555 1_555
C26 S4 1_555 1_555
C27 C26 1_555 1_555
H20 C27 1_555 1_555
C28 C27 1_555 1_555
H21 C28 1_555 1_555
C29 C26 1_555 1_555
H22 C29 1_555 1_555
C30 C29 1_555 1_555
H23 C30 1_555 1_555
C31 C28 1_555 1_555
H24 C31 1_555 1_555
S5 Cd1 1_555 1_555
C32 S5 1_555 1_555
C33 C32 1_555 1_555
H25 C33 1_555 1_555
C34 C33 1_555 1_555
H26 C34 1_555 1_555
C35 C34 1_555 1_555
H27 C35 1_555 1_555
C36 C35 1_555 1_555
H28 C36 1_555 1_555
C37 C32 1_555 1_555
H29 C37 1_555 1_555
O1 Cd1 1_555 1_555
S2F Cd2 1_555 1_555
S3_2 Cd2 1_555 1_555
O1F Cd2 1_555 1_555
C8E C7 1_555 1_555
C7E C8 1_555 1_555
Cd2F S2 1_555 1_555
Cd2_2 S3 1_555 1_555
Cd2B S4 1_555 1_555
Cd1B S5 1_555 1_555
C4 C9 1_555 1_555
C5 C13 1_555 1_555
C7 C12 1_555 1_555
C8 C12 1_555 1_555
C10 C11 1_555 1_555
C18 C19 1_555 1_555
C24 C25 1_555 1_555
C30 C31 1_555 1_555
C36 C37 1_555 1_555
O1 Cd2F 1_555 1_555

#END
