
#######################################################################
#
#                 Cambridge Crystallographic Data Centre
#                                CCDC 
#
#######################################################################
#
# If this CIF has been generated from an entry in the Cambridge 
# Structural Database, then it will include bibliographic, chemical, 
# crystal, experimental, refinement or atomic coordinate data resulting 
# from the CCDC's data processing and validation procedures.
#
#######################################################################

data_FOHQUO
_chemical_formula_moiety         '(C6 H18 Co1 O15 Sr1)n'
_symmetry_cell_setting           monoclinic
_symmetry_space_group_name_H-M   'P 21/c'
_symmetry_Int_Tables_number      14
_space_group_name_Hall           '-P 2ybc'
loop_
_symmetry_equiv_pos_site_id
_symmetry_equiv_pos_as_xyz
1 x,y,z
2 x,1/2-y,1/2+z
3 -x,-y,-z
4 -x,1/2+y,1/2-z
_cell_length_a                   6.8800(10)
_cell_length_b                   14.360(2)
_cell_length_c                   15.800(2)
_cell_angle_alpha                90
_cell_angle_beta                 101.690(10)
_cell_angle_gamma                90
_cell_volume                     1528.61
loop_
_atom_site_label
_atom_site_type_symbol
_atom_site_fract_x
_atom_site_fract_y
_atom_site_fract_z
_atom_site_U_iso_or_equiv
_atom_site_thermal_displace_type
O1 O 0.3174(7) 0.1587(3) 0.1269(4) 0.0453 Uani
O2 O 0.1248(6) 0.3756(3) 0.2704(3) 0.0306 Uani
O3 O 0.1138(6) -0.0844(3) 0.4877(3) 0.0252 Uani
O4 O 0.1010(7) 0.2537(3) 0.4539(3) 0.0351 Uani
O5 O 0.5458(6) 0.1806(3) 0.4372(3) 0.0247 Uani
O8 O 0.1368(6) 0.1641(3) 0.2830(3) 0.0231 Uani
O9 O -0.0222(7) 0.0406(3) 0.3128(3) 0.0287 Uani
O10 O -0.0517(7) 0.2558(3) 0.1254(3) 0.0336 Uani
O11 O -0.3507(6) 0.2016(4) 0.0721(3) 0.0390 Uani
O12 O 0.5047(6) 0.2693(3) 0.2784(3) 0.0262 Uani
O13 O 0.7911(7) 0.3338(4) 0.3341(3) 0.0403 Uani
O14 O 0.3148(6) 0.3607(3) 0.1209(2) 0.0218 Uani
O15 O 0.5089(6) 0.4698(3) 0.0873(3) 0.0262 Uani
C1 C -0.0056(9) 0.1086(4) 0.2654(4) 0.0198 Uani
C2 C -0.1690(11) 0.1189(5) 0.1868(5) 0.0471 Uani
H1 H -0.1645(11) 0.0632(5) 0.1526(5) 0.0580 Uiso
H2 H -0.2923(11) 0.1159(5) 0.2075(5) 0.0580 Uiso
C3 C -0.1909(9) 0.1985(4) 0.1248(4) 0.0245 Uani
C4 C 0.6254(9) 0.3361(4) 0.2849(4) 0.0222 Uani
C5 C 0.5691(9) 0.4246(5) 0.2337(4) 0.0274 Uani
H3 H 0.6902(9) 0.4590(5) 0.2334(4) 0.0580 Uiso
H4 H 0.4895(9) 0.4620(5) 0.2648(4) 0.0580 Uiso
C6 C 0.4568(8) 0.4165(4) 0.1408(4) 0.0173 Uani
Sr1 Sr 0.23371(8) 0.08472(4) 0.45142(3) 0.0174 Uani
Co1 Co 0.22493(12) 0.26270(5) 0.20304(5) 0.0192 Uani
Sr1B Sr -0.23371(8) -0.08472(4) 0.54858(3) 0.0174 Uani
Sr1A Sr 0.23371(8) 0.41528(4) -0.04858(3) 0.0174 Uani
Sr1C Sr 0.76629(8) 0.58472(4) 0.04858(3) 0.0174 Uani
O3B O -0.1138(6) 0.0844(3) 0.5123(3) 0.0252 Uani
O14A O 0.3148(6) 0.1393(3) 0.6209(2) 0.0218 Uani
O15A O 0.5089(6) 0.0302(3) 0.5873(3) 0.0262 Uani
O15C O 0.4911(6) -0.0302(3) 0.4127(3) 0.0262 Uani
O6 O 0.1739(12) -0.0071(4) 0.0605(5) 0.0900 Uani
O7 O 0.5918(13) -0.0706(6) 0.0664(5) 0.1055 Uani
loop_
_atom_site_aniso_label
_atom_site_aniso_U_11
_atom_site_aniso_U_22
_atom_site_aniso_U_33
_atom_site_aniso_U_23
_atom_site_aniso_U_13
_atom_site_aniso_U_12
O1 0.037(3) 0.036(3) 0.069(4) -0.017(3) 0.025(3) -0.011(2)
O2 0.028(3) 0.024(2) 0.043(3) 0.001(2) 0.015(2) 0.002(2)
O3 0.019(2) 0.024(2) 0.033(2) 0.000(2) 0.006(2) 0.000(2)
O4 0.046(3) 0.035(3) 0.023(2) 0.000(2) 0.004(2) 0.012(2)
O5 0.021(2) 0.026(2) 0.026(2) 0.001(2) 0.002(2) -0.003(2)
O8 0.022(2) 0.025(2) 0.021(2) 0.005(2) 0.001(2) -0.009(2)
O9 0.032(3) 0.027(2) 0.023(2) 0.006(2) -0.004(2) -0.008(2)
O10 0.027(2) 0.041(3) 0.028(3) 0.015(2) -0.006(2) -0.010(2)
O11 0.016(2) 0.056(3) 0.040(3) 0.023(2) -0.006(2) -0.007(2)
O12 0.023(2) 0.025(2) 0.028(2) 0.010(2) -0.001(2) -0.005(2)
O13 0.024(3) 0.051(3) 0.039(3) 0.017(2) -0.010(2) -0.008(2)
O14 0.018(2) 0.027(2) 0.018(2) 0.004(2) -0.002(2) -0.009(2)
O15 0.026(2) 0.028(2) 0.023(2) 0.006(2) 0.001(2) -0.007(2)
C1 0.027(3) 0.016(3) 0.018(3) 0.002(2) 0.008(3) 0.004(3)
C2 0.039(4) 0.038(4) 0.052(5) 0.022(4) -0.020(4) -0.020(4)
C3 0.014(3) 0.033(4) 0.027(3) 0.006(3) 0.005(3) -0.007(3)
C4 0.021(3) 0.034(4) 0.011(3) 0.004(3) 0.002(3) -0.005(3)
C5 0.023(3) 0.031(4) 0.024(3) 0.009(3) -0.005(3) -0.009(3)
C6 0.014(3) 0.018(3) 0.021(3) 0.004(3) 0.006(2) 0.002(3)
Sr1 0.0152(3) 0.0198(3) 0.0169(3) -0.0008(2) 0.0022(2) 0.0015(2)
Co1 0.0164(4) 0.0215(4) 0.0183(4) 0.0038(3) 0.0004(3) -0.0049(3)
Sr1B 0.0152 0.0198 0.0169 -0.0008 0.0022 0.0015
Sr1A 0.0152 0.0198 0.0169 0.0008 0.0022 -0.0015
Sr1C 0.0152 0.0198 0.0169 0.0008 0.0022 -0.0015
O3B 0.019 0.024 0.033 0 0.006 0
O14A 0.018 0.027 0.018 -0.004 -0.002 0.009
O15A 0.026 0.028 0.023 -0.006 0.001 0.007
O15C 0.026 0.028 0.023 -0.006 0.001 0.007
O6 0.099(6) 0.057(4) 0.094(5) -0.001(4) -0.028(4) -0.031(4)
O7 0.113(7) 0.116(7) 0.085(6) -0.021(5) 0.014(5) -0.004(6)
loop_
_geom_bond_atom_site_label_1
_geom_bond_atom_site_label_2
_geom_bond_site_symmetry_1
_geom_bond_site_symmetry_2
O1 Co1 1_555 1_555
O2 Co1 1_555 1_555
O3 Sr1 1_555 1_555
O4 Sr1 1_555 1_555
O5 Sr1 1_555 1_555
O8 C1 1_555 1_555
O9 C1 1_555 1_555
O10 C3 1_555 1_555
O11 C3 1_555 1_555
O12 C4 1_555 1_555
O13 C4 1_555 1_555
O14 C6 1_555 1_555
O15 C6 1_555 1_555
C1 C2 1_555 1_555
C2 H1 1_555 1_555
H2 C2 1_555 1_555
C3 C2 1_555 1_555
C4 C5 1_555 1_555
C5 H3 1_555 1_555
H4 C5 1_555 1_555
C6 C5 1_555 1_555
Sr1 O8 1_555 1_555
Co1 O8 1_555 1_555
Sr1B O3 1_555 1_555
Sr1A O14 1_555 1_555
Sr1C O15 1_555 1_555
O3B Sr1 1_555 1_555
O14A Sr1 1_555 1_555
O15A Sr1 1_555 1_555
O15C Sr1 1_555 1_555
O9 Sr1 1_555 1_555
O10 Co1 1_555 1_555
O12 Co1 1_555 1_555
O14 Co1 1_555 1_555
O15 Sr1A 1_555 1_555
Sr1B O3B 1_555 1_555

#END
