
#######################################################################
#
#                 Cambridge Crystallographic Data Centre
#                                CCDC 
#
#######################################################################
#
# If this CIF has been generated from an entry in the Cambridge 
# Structural Database, then it will include bibliographic, chemical, 
# crystal, experimental, refinement or atomic coordinate data resulting 
# from the CCDC's data processing and validation procedures.
#
#######################################################################

data_LIFWOO
_chemical_formula_moiety         '(C42 H34 F6 N4 O1 S1 Si1 Zn1)n'
_symmetry_cell_setting           tetragonal
_symmetry_space_group_name_H-M   'P 4/n c c'
_symmetry_Int_Tables_number      130
_space_group_name_Hall           '-P 4a 2ac'
loop_
_symmetry_equiv_pos_site_id
_symmetry_equiv_pos_as_xyz
1 x,y,z
2 1/2-x,1/2-y,z
3 1/2-y,x,z
4 y,1/2-x,z
5 -x,1/2+y,1/2-z
6 1/2+x,-y,1/2-z
7 1/2+y,1/2+x,1/2-z
8 -y,-x,1/2-z
9 -x,-y,-z
10 1/2+x,1/2+y,-z
11 1/2+y,-x,-z
12 -y,1/2+x,-z
13 x,1/2-y,1/2+z
14 1/2-x,y,1/2+z
15 1/2-y,1/2-x,1/2+z
16 y,x,1/2+z
_cell_length_a                   17.7892(3)
_cell_length_b                   17.7892(3)
_cell_length_c                   15.0473(3)
_cell_angle_alpha                90
_cell_angle_beta                 90
_cell_angle_gamma                90
_cell_volume                     4761.8
loop_
_atom_site_label
_atom_site_type_symbol
_atom_site_fract_x
_atom_site_fract_y
_atom_site_fract_z
S1 S 0.4418(2) 0.0478(5) 0.3733(2)
C11 C 0.3782(5) 0.0154(5) 0.2933(6)
H8 H 0.3307 0.0429 0.2990
H9 H 0.3692 -0.0384 0.3023
H10 H 0.3992 0.0236 0.2339
C12 C 0.3928(7) 0.0224(7) 0.4578(8)
H11 H 0.4183 0.0380 0.5125
H12 H 0.3870 -0.0323 0.4576
H13 H 0.3431 0.0462 0.4549
O1 O 0.4508(4) 0.1183(4) 0.3839(4)
Zn1 Zn 0.2500 0.2500 0.12844(3)
N1 N 0.24398(14) 0.13016(16) 0.12807(13)
C1 C 0.20017(18) 0.09347(17) 0.1860(2)
H1 H 0.1732 0.1219 0.2289
C2 C 0.19238(19) 0.01631(17) 0.1862(2)
H2 H 0.1596 -0.0075 0.2274
C3 C 0.2332(2) -0.0264(2) 0.12525(18)
C4 C 0.2789(2) 0.01173(17) 0.0658(2)
H3 H 0.3077 -0.0154 0.0233
C5 C 0.28261(19) 0.08939(17) 0.0687(2)
H4 H 0.3137 0.1148 0.0270
C6 C 0.2270(2) -0.10940(19) 0.12371(19)
C7 C 0.2903(2) -0.15379(19) 0.12173(19)
H5 H 0.3384 -0.1306 0.1199
C8 C 0.2855(2) -0.23265(19) 0.12236(18)
C9 C 0.1491(2) -0.2211(2) 0.1245(2)
H6 H 0.1007 -0.2437 0.1248
C10 C 0.1552(2) -0.1446(2) 0.1263(2)
H7 H 0.1111 -0.1146 0.1293
Si1 Si 0.2500 0.2500 0.37853(8)
F1 F 0.2500 0.2500 0.2657(3)
F2 F 0.30070(17) 0.17104(16) 0.37863(12)
F3 F 0.2500 0.2500 0.4913(2)
N1A N 0.25602(14) -0.63016(16) 0.12807(13)
C1A C 0.29983(18) -0.59347(17) 0.1860(2)
H1A H 0.3268 -0.6219 0.2289
C2A C 0.30762(19) -0.51631(17) 0.1862(2)
H2A H 0.3404 -0.4925 0.2274
C3A C 0.2668(2) -0.4736(2) 0.12525(18)
C4A C 0.2211(2) -0.51173(17) 0.0658(2)
H3A H 0.1923 -0.4846 0.0233
C5A C 0.21739(19) -0.58939(17) 0.0687(2)
H4A H 0.1863 -0.6148 0.0270
C6A C 0.2730(2) -0.39060(19) 0.12371(19)
C7A C 0.2097(2) -0.34621(19) 0.12173(19)
H5A H 0.1616 -0.3694 0.1199
C8A C 0.2145(2) -0.26735(19) 0.12236(18)
C9A C 0.3509(2) -0.2789(2) 0.1245(2)
H6A H 0.3993 -0.2563 0.1248
C10A C 0.3448(2) -0.3554(2) 0.1263(2)
H7A H 0.3889 -0.3854 0.1293
F2A F 0.19930(17) 0.32896(16) 0.37863(12)
F2B F 0.32896(16) 0.30070(17) 0.37863(12)
F2C F 0.17104(16) 0.19930(17) 0.37863(12)
N1B N 0.36984(16) 0.24398(14) 0.12807(13)
C1B C 0.40653(17) 0.20017(18) 0.1860(2)
H1B H 0.3781 0.1732 0.2289
C2B C 0.48369(17) 0.19238(19) 0.1862(2)
H2B H 0.5075 0.1596 0.2274
C3B C 0.5264(2) 0.2332(2) 0.12525(18)
C4B C 0.48827(17) 0.2789(2) 0.0658(2)
H3B H 0.5154 0.3077 0.0233
C5B C 0.41061(17) 0.28261(19) 0.0687(2)
H4B H 0.3852 0.3137 0.0270
C6B C 0.60940(19) 0.2270(2) 0.12371(19)
C7B C 0.65379(19) 0.2903(2) 0.12173(19)
H5B H 0.6306 0.3384 0.1199
C8B C 0.73265(19) 0.2855(2) 0.12236(18)
C9B C 0.7211(2) 0.1491(2) 0.1245(2)
H6B H 0.7437 0.1007 0.1248
C10B C 0.6446(2) 0.1552(2) 0.1263(2)
H7B H 0.6146 0.1111 0.1293
N1C N 1.13016(16) 0.25602(14) 0.12807(13)
C1C C 1.09347(17) 0.29983(18) 0.1860(2)
H1C H 1.1219 0.3268 0.2289
C2C C 1.01631(17) 0.30762(19) 0.1862(2)
H2C H 0.9925 0.3404 0.2274
C3C C 0.9736(2) 0.2668(2) 0.12525(18)
C4C C 1.01173(17) 0.2211(2) 0.0658(2)
H3C H 0.9846 0.1923 0.0233
C5C C 1.08939(17) 0.21739(19) 0.0687(2)
H4C H 1.1148 0.1863 0.0270
C6C C 0.89060(19) 0.2730(2) 0.12371(19)
C7C C 0.84621(19) 0.2097(2) 0.12173(19)
H5C H 0.8694 0.1616 0.1199
C8C C 0.76735(19) 0.2145(2) 0.12236(18)
C9C C 0.7789(2) 0.3509(2) 0.1245(2)
H6C H 0.7563 0.3993 0.1248
C10C C 0.8554(2) 0.3448(2) 0.1263(2)
H7C H 0.8854 0.3889 0.1293
Zn1_2 Zn 0.2500 -0.7500 0.12844(3)
Zn1_3 Zn 1.2500 0.2500 0.12844(3)
Zn1L Zn 0.2500 0.2500 0.62844(3)
N1A_2 N 0.25602(14) 0.36984(16) 0.12807(13)
N1C_2 N 0.13016(16) 0.25602(14) 0.12807(13)
F3L F 0.2500 0.2500 -0.0087(2)
loop_
_geom_bond_atom_site_label_1
_geom_bond_atom_site_label_2
_geom_bond_site_symmetry_1
_geom_bond_site_symmetry_2
Zn1 N1 1_555 1_555
N1 C1 1_555 1_555
C1 H1 1_555 1_555
C2 C1 1_555 1_555
H2 C2 1_555 1_555
C3 C2 1_555 1_555
C4 C3 1_555 1_555
H3 C4 1_555 1_555
C5 N1 1_555 1_555
H4 C5 1_555 1_555
C6 C3 1_555 1_555
C7 C6 1_555 1_555
H5 C7 1_555 1_555
C8 C7 1_555 1_555
C9 H6 1_555 1_555
C10 C6 1_555 1_555
H7 C10 1_555 1_555
Si1 F1 1_555 1_555
F1 Zn1 1_555 1_555
F2 Si1 1_555 1_555
F3 Si1 1_555 1_555
S1 C11 1_555 1_555
C11 H8 1_555 1_555
H9 C11 1_555 1_555
H10 C11 1_555 1_555
C12 S1 1_555 1_555
H11 C12 1_555 1_555
H12 C12 1_555 1_555
H13 C12 1_555 1_555
O1 S1 1_555 1_555
N1A C1A 1_555 1_555
C1A H1A 1_555 1_555
C2A C1A 1_555 1_555
H2A C2A 1_555 1_555
C3A C2A 1_555 1_555
C4A C3A 1_555 1_555
H3A C4A 1_555 1_555
C5A N1A 1_555 1_555
H4A C5A 1_555 1_555
C6A C3A 1_555 1_555
C7A C6A 1_555 1_555
H5A C7A 1_555 1_555
C8A C8 1_555 1_555
C9A C8 1_555 1_555
H6A C9A 1_555 1_555
C10A C6A 1_555 1_555
H7A C10A 1_555 1_555
F2A Si1 1_555 1_555
F2B Si1 1_555 1_555
F2C Si1 1_555 1_555
N1B Zn1 1_555 1_555
C1B N1B 1_555 1_555
H1B C1B 1_555 1_555
C2B C1B 1_555 1_555
H2B C2B 1_555 1_555
C3B C2B 1_555 1_555
C4B C3B 1_555 1_555
H3B C4B 1_555 1_555
C5B N1B 1_555 1_555
H4B C5B 1_555 1_555
C6B C3B 1_555 1_555
C7B C6B 1_555 1_555
H5B C7B 1_555 1_555
C8B C7B 1_555 1_555
C9B H6B 1_555 1_555
C10B C6B 1_555 1_555
H7B C10B 1_555 1_555
N1C C1C 1_555 1_555
C1C H1C 1_555 1_555
C2C C1C 1_555 1_555
H2C C2C 1_555 1_555
C3C C2C 1_555 1_555
C4C C3C 1_555 1_555
H3C C4C 1_555 1_555
C5C N1C 1_555 1_555
H4C C5C 1_555 1_555
C6C C3C 1_555 1_555
C7C C6C 1_555 1_555
H5C C7C 1_555 1_555
C8C C8B 1_555 1_555
C9C C8B 1_555 1_555
H6C C9C 1_555 1_555
C10C C6C 1_555 1_555
H7C C10C 1_555 1_555
Zn1_2 N1A 1_555 1_555
Zn1_3 N1C 1_555 1_555
Zn1L F3 1_555 1_555
N1A_2 Zn1 1_555 1_555
N1C_2 Zn1 1_555 1_555
F3L Zn1 1_555 1_555
C4 C5 1_555 1_555
C9 C10 1_555 1_555
C9 C8A 1_555 1_555
C4A C5A 1_555 1_555
C7A C8A 1_555 1_555
C9A C10A 1_555 1_555
C4B C5B 1_555 1_555
C9B C10B 1_555 1_555
C9B C8C 1_555 1_555
C4C C5C 1_555 1_555
C7C C8C 1_555 1_555
C9C C10C 1_555 1_555

#END
