
#######################################################################
#
#                 Cambridge Crystallographic Data Centre
#                                CCDC 
#
#######################################################################
#
# If this CIF has been generated from an entry in the Cambridge 
# Structural Database, then it will include bibliographic, chemical, 
# crystal, experimental, refinement or atomic coordinate data resulting 
# from the CCDC's data processing and validation procedures.
#
#######################################################################

data_JALLEQ
_chemical_formula_moiety         '(C10 H12 Ce3 N4 O17)n'
_symmetry_cell_setting           cubic
_symmetry_space_group_name_H-M   'F m -3 m'
_symmetry_Int_Tables_number      225
_space_group_name_Hall           '-F 4 2 3'
loop_
_symmetry_equiv_pos_site_id
_symmetry_equiv_pos_as_xyz
1 x,y,z
2 -x,-y,z
3 -x,-z,-y
4 -x,z,y
5 -x,y,-z
6 -y,-x,-z
7 -y,-z,x
8 -y,z,-x
9 -y,x,z
10 -z,-x,y
11 -z,-y,-x
12 -z,y,x
13 -z,x,-y
14 z,-x,-y
15 z,-y,x
16 z,y,-x
17 z,x,y
18 y,-x,z
19 y,-z,-x
20 y,z,x
21 y,x,-z
22 x,-y,-z
23 x,-z,y
24 x,z,-y
25 1/2-x,1/2-y,z
26 1/2-x,1/2-z,-y
27 1/2-x,1/2+z,y
28 1/2-x,1/2+y,-z
29 1/2-y,1/2-x,-z
30 1/2-y,1/2-z,x
31 1/2-y,1/2+z,-x
32 1/2-y,1/2+x,z
33 1/2-z,1/2-x,y
34 1/2-z,1/2-y,-x
35 1/2-z,1/2+y,x
36 1/2-z,1/2+x,-y
37 1/2+z,1/2-x,-y
38 1/2+z,1/2-y,x
39 1/2+z,1/2+y,-x
40 1/2+z,1/2+x,y
41 1/2+y,1/2-x,z
42 1/2+y,1/2-z,-x
43 1/2+y,1/2+z,x
44 1/2+y,1/2+x,-z
45 1/2+x,1/2-y,-z
46 1/2+x,1/2-z,y
47 1/2+x,1/2+z,-y
48 1/2+x,1/2+y,z
49 1/2-x,-y,1/2+z
50 1/2-x,-z,1/2-y
51 1/2-x,z,1/2+y
52 1/2-x,y,1/2-z
53 1/2-y,-x,1/2-z
54 1/2-y,-z,1/2+x
55 1/2-y,z,1/2-x
56 1/2-y,x,1/2+z
57 1/2-z,-x,1/2+y
58 1/2-z,-y,1/2-x
59 1/2-z,y,1/2+x
60 1/2-z,x,1/2-y
61 1/2+z,-x,1/2-y
62 1/2+z,-y,1/2+x
63 1/2+z,y,1/2-x
64 1/2+z,x,1/2+y
65 1/2+y,-x,1/2+z
66 1/2+y,-z,1/2-x
67 1/2+y,z,1/2+x
68 1/2+y,x,1/2-z
69 1/2+x,-y,1/2-z
70 1/2+x,-z,1/2+y
71 1/2+x,z,1/2-y
72 1/2+x,y,1/2+z
73 -x,1/2-y,1/2+z
74 -x,1/2-z,1/2-y
75 -x,1/2+z,1/2+y
76 -x,1/2+y,1/2-z
77 -y,1/2-x,1/2-z
78 -y,1/2-z,1/2+x
79 -y,1/2+z,1/2-x
80 -y,1/2+x,1/2+z
81 -z,1/2-x,1/2+y
82 -z,1/2-y,1/2-x
83 -z,1/2+y,1/2+x
84 -z,1/2+x,1/2-y
85 z,1/2-x,1/2-y
86 z,1/2-y,1/2+x
87 z,1/2+y,1/2-x
88 z,1/2+x,1/2+y
89 y,1/2-x,1/2+z
90 y,1/2-z,1/2-x
91 y,1/2+z,1/2+x
92 y,1/2+x,1/2-z
93 x,1/2-y,1/2-z
94 x,1/2-z,1/2+y
95 x,1/2+z,1/2-y
96 x,1/2+y,1/2+z
97 -x,-y,-z
98 x,y,-z
99 x,z,y
100 x,-z,-y
101 x,-y,z
102 y,x,z
103 y,z,-x
104 y,-z,x
105 y,-x,-z
106 z,x,-y
107 z,y,x
108 z,-y,-x
109 z,-x,y
110 -z,x,y
111 -z,y,-x
112 -z,-y,x
113 -z,-x,-y
114 -y,x,-z
115 -y,z,x
116 -y,-z,-x
117 -y,-x,z
118 -x,y,z
119 -x,z,-y
120 -x,-z,y
121 1/2+x,1/2+y,-z
122 1/2+x,1/2+z,y
123 1/2+x,1/2-z,-y
124 1/2+x,1/2-y,z
125 1/2+y,1/2+x,z
126 1/2+y,1/2+z,-x
127 1/2+y,1/2-z,x
128 1/2+y,1/2-x,-z
129 1/2+z,1/2+x,-y
130 1/2+z,1/2+y,x
131 1/2+z,1/2-y,-x
132 1/2+z,1/2-x,y
133 1/2-z,1/2+x,y
134 1/2-z,1/2+y,-x
135 1/2-z,1/2-y,x
136 1/2-z,1/2-x,-y
137 1/2-y,1/2+x,-z
138 1/2-y,1/2+z,x
139 1/2-y,1/2-z,-x
140 1/2-y,1/2-x,z
141 1/2-x,1/2+y,z
142 1/2-x,1/2+z,-y
143 1/2-x,1/2-z,y
144 1/2-x,1/2-y,-z
145 1/2+x,y,1/2-z
146 1/2+x,z,1/2+y
147 1/2+x,-z,1/2-y
148 1/2+x,-y,1/2+z
149 1/2+y,x,1/2+z
150 1/2+y,z,1/2-x
151 1/2+y,-z,1/2+x
152 1/2+y,-x,1/2-z
153 1/2+z,x,1/2-y
154 1/2+z,y,1/2+x
155 1/2+z,-y,1/2-x
156 1/2+z,-x,1/2+y
157 1/2-z,x,1/2+y
158 1/2-z,y,1/2-x
159 1/2-z,-y,1/2+x
160 1/2-z,-x,1/2-y
161 1/2-y,x,1/2-z
162 1/2-y,z,1/2+x
163 1/2-y,-z,1/2-x
164 1/2-y,-x,1/2+z
165 1/2-x,y,1/2+z
166 1/2-x,z,1/2-y
167 1/2-x,-z,1/2+y
168 1/2-x,-y,1/2-z
169 x,1/2+y,1/2-z
170 x,1/2+z,1/2+y
171 x,1/2-z,1/2-y
172 x,1/2-y,1/2+z
173 y,1/2+x,1/2+z
174 y,1/2+z,1/2-x
175 y,1/2-z,1/2+x
176 y,1/2-x,1/2-z
177 z,1/2+x,1/2-y
178 z,1/2+y,1/2+x
179 z,1/2-y,1/2-x
180 z,1/2-x,1/2+y
181 -z,1/2+x,1/2+y
182 -z,1/2+y,1/2-x
183 -z,1/2-y,1/2+x
184 -z,1/2-x,1/2-y
185 -y,1/2+x,1/2-z
186 -y,1/2+z,1/2+x
187 -y,1/2-z,1/2-x
188 -y,1/2-x,1/2+z
189 -x,1/2+y,1/2+z
190 -x,1/2+z,1/2-y
191 -x,1/2-z,1/2+y
192 -x,1/2-y,1/2-z
_cell_length_a                   39.91937(94)
_cell_length_b                   39.91937(94)
_cell_length_c                   39.91937(94)
_cell_angle_alpha                90
_cell_angle_beta                 90
_cell_angle_gamma                90
_cell_volume                     63613.8
loop_
_atom_site_label
_atom_site_type_symbol
_atom_site_fract_x
_atom_site_fract_y
_atom_site_fract_z
_atom_site_U_iso_or_equiv
_atom_site_thermal_displace_type
O7 O 0.7313(19) 0.7313(19) 0.7313(19) 0.1013 Uiso
Ce1 Ce 0.21648(15) 0.28352(15) 0.04783(19) 0.0038 Uiso
Ce2 Ce 0.20151(24) 0.20151(24) 0.000 0.0038 Uiso
O1 O 0.2222(14) 0.2778(14) 0.10759(90) 0.1013 Uiso
O2 O 0.17329(73) 0.32671(73) 0.0430(22) 0.1013 Uiso
O3 O 0.22650(81) 0.22650(81) 0.0486(15) 0.1013 Uiso
O4 O 0.2419(15) 0.3020(17) 0.000 0.1013 Uiso
C1 C 0.2369(17) 0.1091(12) 0.1091(12) 0.1013 Uiso
C2 C 0.2298(14) 0.15453(92) 0.0601(10) 0.1013 Uiso
C3 C 0.2194(11) 0.1259(10) 0.08414(93) 0.1013 Uiso
N1 N 0.18951(75) 0.10880(92) 0.08382(80) 0.1013 Uiso
O5 O 0.20920(76) 0.15773(72) 0.03671(70) 0.1013 Uiso
O6 O 0.25719(86) 0.16882(69) 0.06869(70) 0.1013 Uiso
C2TC C 0.2298(14) 0.0601(10) 0.15453(92) 0.1013 Uiso
C3TC C 0.2194(11) 0.08414(93) 0.1259(10) 0.1013 Uiso
N1TC N 0.18951(75) 0.08382(80) 0.10880(92) 0.1013 Uiso
O5TC O 0.20920(76) 0.03671(70) 0.15773(72) 0.1013 Uiso
O6TC O 0.25719(86) 0.06869(70) 0.16882(69) 0.1013 Uiso
C1AD C 0.1091(12) 0.2369(17) -0.1091(12) 0.1013 Uiso
C2AD C 0.0601(10) 0.2298(14) -0.15453(92) 0.1013 Uiso
C3AD C 0.08414(93) 0.2194(11) -0.1259(10) 0.1013 Uiso
N1AD N 0.08382(80) 0.18951(75) -0.10880(92) 0.1013 Uiso
O5AD O 0.03671(70) 0.20920(76) -0.15773(72) 0.1013 Uiso
O6AD O 0.06869(70) 0.25719(86) -0.16882(69) 0.1013 Uiso
C2T C 0.15453(92) 0.2298(14) -0.0601(10) 0.1013 Uiso
C3T C 0.1259(10) 0.2194(11) -0.08414(93) 0.1013 Uiso
N1T N 0.10880(92) 0.18951(75) -0.08382(80) 0.1013 Uiso
O5T O 0.15773(72) 0.20920(76) -0.03671(70) 0.1013 Uiso
O6T O 0.16882(69) 0.25719(86) -0.06869(70) 0.1013 Uiso
Ce1WC Ce 0.28352(15) 0.21648(15) 0.04783(19) 0.0038 Uiso
O1WC O 0.2778(14) 0.2222(14) 0.10759(90) 0.1013 Uiso
O2WC O 0.32671(73) 0.17329(73) 0.0430(22) 0.1013 Uiso
O3X O 0.27350(81) 0.27350(81) 0.0486(15) 0.1013 Uiso
O4BA O 0.1980(17) 0.2581(15) 0.000 0.1013 Uiso
Ce1O Ce 0.04783(19) 0.28352(15) -0.21648(15) 0.0038 Uiso
Ce1S Ce 0.28352(15) 0.04783(19) 0.21648(15) 0.0038 Uiso
Ce1SC Ce 0.21648(15) 0.28352(15) -0.04783(19) 0.0038 Uiso
Ce2FD Ce 0.000 0.20151(24) -0.20151(24) 0.0038 Uiso
Ce2YC Ce 0.20151(24) 0.000 0.20151(24) 0.0038 Uiso
Ce2ME Ce 0.29849(24) 0.29849(24) 0.000 0.0038 Uiso
O3T O 0.22650(81) 0.22650(81) -0.0486(15) 0.1013 Uiso
O4T O 0.3020(17) 0.2419(15) 0.000 0.1013 Uiso
O4ME O 0.2581(15) 0.1980(17) 0.000 0.1013 Uiso
O5WC O 0.15773(72) 0.20920(76) 0.03671(70) 0.1013 Uiso
O5SC O 0.20920(76) 0.15773(72) -0.03671(70) 0.1013 Uiso
O6WC O 0.16882(69) 0.25719(86) 0.06869(70) 0.1013 Uiso
O6X O 0.24281(86) 0.33118(69) 0.06869(70) 0.1013 Uiso
O6IE O 0.33118(69) 0.24281(86) 0.06869(70) 0.1013 Uiso
loop_
_geom_bond_atom_site_label_1
_geom_bond_atom_site_label_2
_geom_bond_site_symmetry_1
_geom_bond_site_symmetry_2
Ce1 O1 1_555 1_555
Ce2 O3 1_555 1_555
O2 Ce1 1_555 1_555
O3 Ce1 1_555 1_555
O4 Ce1 1_555 1_555
C1 C3 1_555 1_555
C2 C3 1_555 1_555
C3 N1 1_555 1_555
N1 N1TC 1_555 1_555
O5 Ce2 1_555 1_555
O6 C2 1_555 1_555
C2TC C3TC 1_555 1_555
C3TC C1 1_555 1_555
N1TC C3TC 1_555 1_555
O5TC C2TC 1_555 1_555
O6TC C2TC 1_555 1_555
C1AD C3AD 1_555 1_555
C2AD C3AD 1_555 1_555
C3AD N1AD 1_555 1_555
N1AD N1T 1_555 1_555
O5AD C2AD 1_555 1_555
O6AD C2AD 1_555 1_555
C2T C3T 1_555 1_555
C3T C1AD 1_555 1_555
N1T C3T 1_555 1_555
O5T Ce2 1_555 1_555
O6T C2T 1_555 1_555
Ce1WC O3 1_555 1_555
O1WC Ce1WC 1_555 1_555
O2WC Ce1WC 1_555 1_555
O3X Ce1 1_555 1_555
O4BA Ce1 1_555 1_555
Ce1O O6AD 1_555 1_555
Ce1S O6TC 1_555 1_555
Ce1SC O4 1_555 1_555
Ce2FD O5AD 1_555 1_555
Ce2YC O5TC 1_555 1_555
Ce2ME O4 1_555 1_555
O3T Ce2 1_555 1_555
O4T Ce1WC 1_555 1_555
O4ME Ce2 1_555 1_555
O5WC Ce2 1_555 1_555
O5SC Ce2 1_555 1_555
O6WC Ce1 1_555 1_555
O6X Ce1 1_555 1_555
O6IE Ce1WC 1_555 1_555
Ce2 O4BA 1_555 1_555
C2 O5 1_555 1_555
O6 Ce1WC 1_555 1_555
C2T O5T 1_555 1_555
O6T Ce1SC 1_555 1_555
Ce1WC O3X 1_555 1_555
Ce1WC O4ME 1_555 1_555
O3X Ce2ME 1_555 1_555
O4BA Ce1SC 1_555 1_555
Ce1SC O3T 1_555 1_555
Ce2ME O4T 1_555 1_555

#END
