
#######################################################################
#
#                 Cambridge Crystallographic Data Centre
#                                CCDC 
#
#######################################################################
#
# If this CIF has been generated from an entry in the Cambridge 
# Structural Database, then it will include bibliographic, chemical, 
# crystal, experimental, refinement or atomic coordinate data resulting 
# from the CCDC's data processing and validation procedures.
#
#######################################################################

data_JALLIU
_chemical_formula_moiety         'C30 Ce12 N12 O28'
_symmetry_cell_setting           cubic
_symmetry_space_group_name_H-M   'F m -3 m'
_symmetry_Int_Tables_number      225
_space_group_name_Hall           '-F 4 2 3'
loop_
_symmetry_equiv_pos_site_id
_symmetry_equiv_pos_as_xyz
1 x,y,z
2 -x,-y,z
3 -x,-z,-y
4 -x,z,y
5 -x,y,-z
6 -y,-x,-z
7 -y,-z,x
8 -y,z,-x
9 -y,x,z
10 -z,-x,y
11 -z,-y,-x
12 -z,y,x
13 -z,x,-y
14 z,-x,-y
15 z,-y,x
16 z,y,-x
17 z,x,y
18 y,-x,z
19 y,-z,-x
20 y,z,x
21 y,x,-z
22 x,-y,-z
23 x,-z,y
24 x,z,-y
25 1/2-x,1/2-y,z
26 1/2-x,1/2-z,-y
27 1/2-x,1/2+z,y
28 1/2-x,1/2+y,-z
29 1/2-y,1/2-x,-z
30 1/2-y,1/2-z,x
31 1/2-y,1/2+z,-x
32 1/2-y,1/2+x,z
33 1/2-z,1/2-x,y
34 1/2-z,1/2-y,-x
35 1/2-z,1/2+y,x
36 1/2-z,1/2+x,-y
37 1/2+z,1/2-x,-y
38 1/2+z,1/2-y,x
39 1/2+z,1/2+y,-x
40 1/2+z,1/2+x,y
41 1/2+y,1/2-x,z
42 1/2+y,1/2-z,-x
43 1/2+y,1/2+z,x
44 1/2+y,1/2+x,-z
45 1/2+x,1/2-y,-z
46 1/2+x,1/2-z,y
47 1/2+x,1/2+z,-y
48 1/2+x,1/2+y,z
49 1/2-x,-y,1/2+z
50 1/2-x,-z,1/2-y
51 1/2-x,z,1/2+y
52 1/2-x,y,1/2-z
53 1/2-y,-x,1/2-z
54 1/2-y,-z,1/2+x
55 1/2-y,z,1/2-x
56 1/2-y,x,1/2+z
57 1/2-z,-x,1/2+y
58 1/2-z,-y,1/2-x
59 1/2-z,y,1/2+x
60 1/2-z,x,1/2-y
61 1/2+z,-x,1/2-y
62 1/2+z,-y,1/2+x
63 1/2+z,y,1/2-x
64 1/2+z,x,1/2+y
65 1/2+y,-x,1/2+z
66 1/2+y,-z,1/2-x
67 1/2+y,z,1/2+x
68 1/2+y,x,1/2-z
69 1/2+x,-y,1/2-z
70 1/2+x,-z,1/2+y
71 1/2+x,z,1/2-y
72 1/2+x,y,1/2+z
73 -x,1/2-y,1/2+z
74 -x,1/2-z,1/2-y
75 -x,1/2+z,1/2+y
76 -x,1/2+y,1/2-z
77 -y,1/2-x,1/2-z
78 -y,1/2-z,1/2+x
79 -y,1/2+z,1/2-x
80 -y,1/2+x,1/2+z
81 -z,1/2-x,1/2+y
82 -z,1/2-y,1/2-x
83 -z,1/2+y,1/2+x
84 -z,1/2+x,1/2-y
85 z,1/2-x,1/2-y
86 z,1/2-y,1/2+x
87 z,1/2+y,1/2-x
88 z,1/2+x,1/2+y
89 y,1/2-x,1/2+z
90 y,1/2-z,1/2-x
91 y,1/2+z,1/2+x
92 y,1/2+x,1/2-z
93 x,1/2-y,1/2-z
94 x,1/2-z,1/2+y
95 x,1/2+z,1/2-y
96 x,1/2+y,1/2+z
97 -x,-y,-z
98 x,y,-z
99 x,z,y
100 x,-z,-y
101 x,-y,z
102 y,x,z
103 y,z,-x
104 y,-z,x
105 y,-x,-z
106 z,x,-y
107 z,y,x
108 z,-y,-x
109 z,-x,y
110 -z,x,y
111 -z,y,-x
112 -z,-y,x
113 -z,-x,-y
114 -y,x,-z
115 -y,z,x
116 -y,-z,-x
117 -y,-x,z
118 -x,y,z
119 -x,z,-y
120 -x,-z,y
121 1/2+x,1/2+y,-z
122 1/2+x,1/2+z,y
123 1/2+x,1/2-z,-y
124 1/2+x,1/2-y,z
125 1/2+y,1/2+x,z
126 1/2+y,1/2+z,-x
127 1/2+y,1/2-z,x
128 1/2+y,1/2-x,-z
129 1/2+z,1/2+x,-y
130 1/2+z,1/2+y,x
131 1/2+z,1/2-y,-x
132 1/2+z,1/2-x,y
133 1/2-z,1/2+x,y
134 1/2-z,1/2+y,-x
135 1/2-z,1/2-y,x
136 1/2-z,1/2-x,-y
137 1/2-y,1/2+x,-z
138 1/2-y,1/2+z,x
139 1/2-y,1/2-z,-x
140 1/2-y,1/2-x,z
141 1/2-x,1/2+y,z
142 1/2-x,1/2+z,-y
143 1/2-x,1/2-z,y
144 1/2-x,1/2-y,-z
145 1/2+x,y,1/2-z
146 1/2+x,z,1/2+y
147 1/2+x,-z,1/2-y
148 1/2+x,-y,1/2+z
149 1/2+y,x,1/2+z
150 1/2+y,z,1/2-x
151 1/2+y,-z,1/2+x
152 1/2+y,-x,1/2-z
153 1/2+z,x,1/2-y
154 1/2+z,y,1/2+x
155 1/2+z,-y,1/2-x
156 1/2+z,-x,1/2+y
157 1/2-z,x,1/2+y
158 1/2-z,y,1/2-x
159 1/2-z,-y,1/2+x
160 1/2-z,-x,1/2-y
161 1/2-y,x,1/2-z
162 1/2-y,z,1/2+x
163 1/2-y,-z,1/2-x
164 1/2-y,-x,1/2+z
165 1/2-x,y,1/2+z
166 1/2-x,z,1/2-y
167 1/2-x,-z,1/2+y
168 1/2-x,-y,1/2-z
169 x,1/2+y,1/2-z
170 x,1/2+z,1/2+y
171 x,1/2-z,1/2-y
172 x,1/2-y,1/2+z
173 y,1/2+x,1/2+z
174 y,1/2+z,1/2-x
175 y,1/2-z,1/2+x
176 y,1/2-x,1/2-z
177 z,1/2+x,1/2-y
178 z,1/2+y,1/2+x
179 z,1/2-y,1/2-x
180 z,1/2-x,1/2+y
181 -z,1/2+x,1/2+y
182 -z,1/2+y,1/2-x
183 -z,1/2-y,1/2+x
184 -z,1/2-x,1/2-y
185 -y,1/2+x,1/2-z
186 -y,1/2+z,1/2+x
187 -y,1/2-z,1/2-x
188 -y,1/2-x,1/2+z
189 -x,1/2+y,1/2+z
190 -x,1/2+z,1/2-y
191 -x,1/2-z,1/2+y
192 -x,1/2-y,1/2-z
_cell_length_a                   27.31953(30)
_cell_length_b                   27.31953(30)
_cell_length_c                   27.31953(30)
_cell_angle_alpha                90
_cell_angle_beta                 90
_cell_angle_gamma                90
_cell_volume                     20390.1
loop_
_atom_site_label
_atom_site_type_symbol
_atom_site_fract_x
_atom_site_fract_y
_atom_site_fract_z
_atom_site_U_iso_or_equiv
_atom_site_thermal_displace_type
Ce1 Ce 0.402513(90) 0.000 0.500 0.0154 Uiso
O1 O 0.36342(22) -0.000 0.42183(19) 0.0328 Uiso
O2 O 0.45088(35) 0.04912(35) 0.54912(35) 0.0328 Uiso
C1 C 0.37854(28) -0.000 0.37854(28) 0.1070 Uiso
C2 C 0.33963(27) -0.000 0.33963(27) 0.1070 Uiso
C3 C 0.29150(26) -0.000 0.35484(26) 0.1070 Uiso
N1 N 0.25548(25) -0.000 0.31806(24) 0.1070 Uiso
C4 C 0.26993(34) -0.000 0.26993(34) 0.1070 Uiso
O1N O 0.42183(19) -0.000 0.36342(22) 0.0328 Uiso
C3N C 0.35484(26) -0.000 0.29150(26) 0.1070 Uiso
N1N N 0.31806(24) -0.000 0.25548(25) 0.1070 Uiso
O1KF O 0.13658(22) -0.000 0.07817(19) 0.0328 Uiso
C1KF C 0.12146(28) -0.000 0.12146(28) 0.1070 Uiso
C2KF C 0.16037(27) -0.000 0.16037(27) 0.1070 Uiso
C3KF C 0.20850(26) -0.000 0.14516(26) 0.1070 Uiso
N1KF N 0.24452(25) -0.000 0.18194(24) 0.1070 Uiso
C4KF C 0.23007(34) -0.000 0.23007(34) 0.1070 Uiso
O1EB O 0.07817(19) -0.000 0.13658(22) 0.0328 Uiso
C3EB C 0.14516(26) -0.000 0.20850(26) 0.1070 Uiso
N1EB N 0.18194(24) -0.000 0.24452(25) 0.1070 Uiso
Ce1J Ce 0.500 -0.000 0.597487(90) 0.0154 Uiso
O1J O 0.57817(19) -0.000 0.63658(22) 0.0328 Uiso
O2J O 0.45088(35) -0.04912(35) 0.54912(35) 0.0328 Uiso
C1RC C 0.62146(28) -0.000 0.62146(28) 0.1070 Uiso
C2RC C 0.66037(27) -0.000 0.66037(27) 0.1070 Uiso
C3J C 0.64516(26) -0.000 0.70850(26) 0.1070 Uiso
N1J N 0.68194(24) -0.000 0.74452(25) 0.1070 Uiso
C4RC C 0.73007(34) -0.000 0.73007(34) 0.1070 Uiso
O1RC O 0.63658(22) -0.000 0.57817(19) 0.0328 Uiso
C3RC C 0.70850(26) -0.000 0.64516(26) 0.1070 Uiso
N1RC N 0.74452(25) -0.000 0.68194(24) 0.1070 Uiso
O1IB O 0.92183(19) -0.000 0.86342(22) 0.0328 Uiso
C1IB C 0.87854(28) -0.000 0.87854(28) 0.1070 Uiso
C2IB C 0.83963(27) -0.000 0.83963(27) 0.1070 Uiso
C3IB C 0.85484(26) -0.000 0.79150(26) 0.1070 Uiso
N1IB N 0.81806(24) -0.000 0.75548(25) 0.1070 Uiso
C4IB C 0.76993(34) -0.000 0.76993(34) 0.1070 Uiso
O1QE O 0.86342(22) 0.000 0.92183(19) 0.0328 Uiso
C3QE C 0.79150(26) -0.000 0.85484(26) 0.1070 Uiso
N1QE N 0.75548(25) -0.000 0.81806(24) 0.1070 Uiso
Ce1GD Ce 0.500 -0.000 0.402513(90) 0.0154 Uiso
O1GD O 0.57817(19) -0.000 0.36342(22) 0.0328 Uiso
O2GD O 0.45088(35) -0.04912(35) 0.45088(35) 0.0328 Uiso
C1A C 0.62146(28) -0.000 0.37854(28) 0.1070 Uiso
C2A C 0.66037(27) -0.000 0.33963(27) 0.1070 Uiso
C3GD C 0.64516(26) -0.000 0.29150(26) 0.1070 Uiso
N1GD N 0.68194(24) -0.000 0.25548(25) 0.1070 Uiso
C4A C 0.73007(34) -0.000 0.26993(34) 0.1070 Uiso
O1A O 0.63658(22) -0.000 0.42183(19) 0.0328 Uiso
C3A C 0.70850(26) -0.000 0.35484(26) 0.1070 Uiso
N1A N 0.74452(25) -0.000 0.31806(24) 0.1070 Uiso
O1XE O 0.92183(19) -0.000 0.13658(22) 0.0328 Uiso
C1XE C 0.87854(28) -0.000 0.12146(28) 0.1070 Uiso
C2XE C 0.83963(27) -0.000 0.16037(27) 0.1070 Uiso
C3XE C 0.85484(26) -0.000 0.20850(26) 0.1070 Uiso
N1XE N 0.81806(24) -0.000 0.24452(25) 0.1070 Uiso
C4XE C 0.76993(34) -0.000 0.23007(34) 0.1070 Uiso
O1PB O 0.86342(22) -0.000 0.07817(19) 0.0328 Uiso
C3PB C 0.79150(26) -0.000 0.14516(26) 0.1070 Uiso
N1PB N 0.75548(25) -0.000 0.18194(24) 0.1070 Uiso
O2K O 0.45088(35) 0.04912(35) 0.45088(35) 0.0328 Uiso
Ce1RC Ce 0.597487(90) 0.000 0.500 0.0154 Uiso
Ce1Y Ce 0.097487(90) 0.000 0.000 0.0154 Uiso
Ce1BA Ce 0.500 0.097487(90) 0.500 0.0154 Uiso
Ce1FE Ce 0.500 -0.097487(90) 0.500 0.0154 Uiso
Ce1RD Ce 0.902513(90) 0.000 0.000 0.0154 Uiso
Ce1RD_2 Ce 0.902513(90) 0.000 1.000 0.0154 Uiso
Ce1EB Ce -0.000 -0.000 0.097487(90) 0.0154 Uiso
Ce1EB_2 Ce 1.000 -0.000 0.097487(90) 0.0154 Uiso
Ce1BF Ce 1.000 -0.000 0.902513(90) 0.0154 Uiso
O1CD O 0.42183(19) -0.000 0.63658(22) 0.0328 Uiso
O1U O 0.36342(22) -0.000 0.57817(19) 0.0328 Uiso
O1HE O 0.500 0.07817(19) 0.63658(22) 0.0328 Uiso
O1CA O 0.500 0.07817(19) 0.36342(22) 0.0328 Uiso
O1DA O 0.500 -0.07817(19) 0.63658(22) 0.0328 Uiso
O1GE O 0.500 -0.07817(19) 0.36342(22) 0.0328 Uiso
O1NF O 0.36342(22) 0.07817(19) 0.500 0.0328 Uiso
O1PC O 0.36342(22) -0.07817(19) 0.500 0.0328 Uiso
O2RC O 0.54912(35) -0.04912(35) 0.45088(35) 0.0328 Uiso
O2A O 0.54912(35) -0.04912(35) 0.54912(35) 0.0328 Uiso
O2D O 0.54912(35) 0.04912(35) 0.45088(35) 0.0328 Uiso
O2MD O 0.54912(35) 0.04912(35) 0.54912(35) 0.0328 Uiso
loop_
_geom_bond_atom_site_label_1
_geom_bond_atom_site_label_2
_geom_bond_site_symmetry_1
_geom_bond_site_symmetry_2
Ce1 O1 1_555 1_555
O1 C1 1_555 1_555
O2 Ce1 1_555 1_555
C1 C2 1_555 1_555
C2 C3 1_555 1_555
C3 N1 1_555 1_555
N1 C4 1_555 1_555
C4 N1N 1_555 1_555
O1N C1 1_555 1_555
C3N C2 1_555 1_555
N1N C3N 1_555 1_555
O1KF C1KF 1_555 1_555
C1KF C2KF 1_555 1_555
C2KF C3KF 1_555 1_555
C3KF N1KF 1_555 1_555
N1KF C4KF 1_555 1_555
C4KF C4 1_555 1_555
O1EB C1KF 1_555 1_555
C3EB C2KF 1_555 1_555
N1EB C4KF 1_555 1_555
Ce1J O2 1_555 1_555
O1J Ce1J 1_555 1_555
O2J Ce1 1_555 1_555
C1RC O1J 1_555 1_555
C2RC C1RC 1_555 1_555
C3J C2RC 1_555 1_555
N1J C3J 1_555 1_555
C4RC N1J 1_555 1_555
O1RC C1RC 1_555 1_555
C3RC C2RC 1_555 1_555
N1RC C4RC 1_555 1_555
O1IB C1IB 1_555 1_555
C1IB C2IB 1_555 1_555
C2IB C3IB 1_555 1_555
C3IB N1IB 1_555 1_555
N1IB C4IB 1_555 1_555
C4IB C4RC 1_555 1_555
O1QE C1IB 1_555 1_555
C3QE C2IB 1_555 1_555
N1QE C4IB 1_555 1_555
Ce1GD O1N 1_555 1_555
O1GD Ce1GD 1_555 1_555
O2GD Ce1 1_555 1_555
C1A O1GD 1_555 1_555
C2A C1A 1_555 1_555
C3GD C2A 1_555 1_555
N1GD C3GD 1_555 1_555
C4A N1GD 1_555 1_555
O1A C1A 1_555 1_555
C3A C2A 1_555 1_555
N1A C4A 1_555 1_555
O1XE C1XE 1_555 1_555
C1XE C2XE 1_555 1_555
C2XE C3XE 1_555 1_555
C3XE N1XE 1_555 1_555
N1XE C4XE 1_555 1_555
C4XE C4A 1_555 1_555
O1PB C1XE 1_555 1_555
C3PB C2XE 1_555 1_555
N1PB C4XE 1_555 1_555
O2K Ce1 1_555 1_555
Ce1RC O1RC 1_555 1_555
Ce1Y O1KF 1_555 1_555
Ce1BA O2 1_555 1_555
Ce1FE O2J 1_555 1_555
Ce1RD O1PB 1_555 1_555
Ce1RD_2 O1QE 1_555 1_555
Ce1EB O1EB 1_555 1_555
Ce1EB_2 O1XE 1_555 1_555
Ce1BF O1IB 1_555 1_555
O1CD Ce1J 1_555 1_555
O1U Ce1 1_555 1_555
O1HE Ce1J 1_555 1_555
O1CA Ce1GD 1_555 1_555
O1DA Ce1J 1_555 1_555
O1GE Ce1GD 1_555 1_555
O1NF Ce1 1_555 1_555
O1PC Ce1 1_555 1_555
O2RC Ce1GD 1_555 1_555
O2A Ce1J 1_555 1_555
O2D Ce1GD 1_555 1_555
O2MD Ce1J 1_555 1_555
C3EB N1EB 1_555 1_555
Ce1J O2J 1_555 1_555
C3RC N1RC 1_555 1_555
C3QE N1QE 1_555 1_555
Ce1GD O2GD 1_555 1_555
Ce1GD O2K 1_555 1_555
O2GD Ce1FE 1_555 1_555
O1A Ce1RC 1_555 1_555
C3A N1A 1_555 1_555
C3PB N1PB 1_555 1_555
O2K Ce1BA 1_555 1_555
Ce1RC O2RC 1_555 1_555
Ce1RC O2A 1_555 1_555
Ce1RC O2D 1_555 1_555
Ce1RC O2MD 1_555 1_555
Ce1BA O2D 1_555 1_555
Ce1BA O2MD 1_555 1_555
Ce1FE O2RC 1_555 1_555
Ce1FE O2A 1_555 1_555

#END
