
#######################################################################
#
#                 Cambridge Crystallographic Data Centre
#                                CCDC 
#
#######################################################################
#
# If this CIF has been generated from an entry in the Cambridge 
# Structural Database, then it will include bibliographic, chemical, 
# crystal, experimental, refinement or atomic coordinate data resulting 
# from the CCDC's data processing and validation procedures.
#
#######################################################################

data_KEQYOU
_chemical_formula_moiety         '(C12 H54 N8 O43 P10 Zn12)n'
_symmetry_cell_setting           monoclinic
_symmetry_space_group_name_H-M   'P n'
_symmetry_Int_Tables_number      7
_space_group_name_Hall           'P -2yac'
loop_
_symmetry_equiv_pos_site_id
_symmetry_equiv_pos_as_xyz
1 x,y,z
2 1/2+x,-y,1/2+z
_cell_length_a                   13.0923(2)
_cell_length_b                   14.2717(2)
_cell_length_c                   14.21970(10)
_cell_angle_alpha                90
_cell_angle_beta                 90.3080(10)
_cell_angle_gamma                90
_cell_volume                     2656.9
loop_
_atom_site_label
_atom_site_type_symbol
_atom_site_fract_x
_atom_site_fract_y
_atom_site_fract_z
Zn1 Zn 0.75723(11) 0.53094(10) 0.66994(10)
Zn2 Zn 0.54230(11) 1.02430(10) 1.16801(11)
Zn3 Zn 0.58391(11) 0.98582(10) 0.92037(10)
Zn4 Zn 0.66793(11) 0.62427(9) 1.07923(10)
Zn5 Zn 0.64804(11) 0.87753(9) 0.51074(10)
Zn6 Zn 0.47820(11) 0.48421(10) 0.52262(11)
Zn7 Zn 0.66739(11) 0.13159(9) 0.53930(10)
Zn8 Zn 0.80757(13) 0.49608(10) 0.42315(11)
Zn9 Zn 0.86295(12) -0.01201(10) 1.07041(11)
Zn10 Zn 0.69539(12) 0.37248(9) 1.04693(11)
Zn11 Zn 0.8708(2) 0.9562(2) 0.3019(2)
Zn12 Zn 0.6245(2) 0.5715(2) 0.2928(2)
P1 P 0.8603(3) 0.9975(2) 0.5119(3)
P2 P 0.6923(3) 0.1421(2) 1.0465(3)
P3 P 0.9820(3) 0.5236(2) 0.5752(3)
P4 P 0.6717(3) 0.3602(2) 0.5482(2)
P5 P 0.6496(3) 0.6452(2) 0.5026(2)
P6 P 0.6689(3) 0.8556(2) 1.0885(2)
P7 P 0.8235(3) 0.4988(2) 1.1932(2)
P8 P 0.7712(3) 0.5312(2) 0.9023(2)
P9 P 0.5209(3) 1.0275(2) 0.3972(2)
P10 P 0.5670(3) 0.9842(2) 0.6869(2)
O1 O 0.9034(9) 0.5307(7) 0.6527(8)
O2 O 0.6784(7) 0.4232(6) 0.6347(7)
O3 O 0.7370(7) 0.5528(6) 0.8027(6)
O4 O 0.7145(7) 0.6364(6) 0.5901(7)
O5 O 0.6306(7) 0.9180(6) 1.1698(7)
O6 O 0.5982(7) 0.1386(6) 1.1105(7)
O7 O 0.4924(7) 1.0456(6) 0.2934(6)
O8 O 0.9145(9) 1.0064(7) 0.6038(8)
O9 O 0.6106(8) 0.8770(6) 0.9974(7)
O10 O 0.6755(7) 0.0872(6) 0.9528(7)
O11 O 0.9373(7) 0.9854(7) 0.4306(7)
O12 O 0.5971(7) 0.9580(6) 0.7882(6)
O13 O 0.7372(8) 0.6120(6) 0.9655(7)
O14 O 0.6452(8) 0.7529(6) 1.1157(7)
O15 O 1.0325(8) 0.4266(6) 0.5789(8)
O16 O 0.7320(7) 0.5692(6) 1.1916(6)
O17 O 0.5994(7) 0.9472(7) 0.4012(6)
O18 O 0.7927(7) 0.9111(6) 0.5099(7)
O19 O 0.5717(7) 0.8982(6) 0.6242(7)
O20 O 0.6451(8) 0.7482(6) 0.4702(6)
O21 O 0.5675(7) 0.3776(6) 0.4969(6)
O22 O 0.9152(8) 0.5405(7) 1.1444(7)
O23 O 0.5413(7) 0.6090(6) 0.5185(7)
O24 O 0.8904(8) 0.5236(8) 0.9086(8)
O25 O 0.6803(7) 0.2578(6) 0.5786(7)
O26 O 0.7993(7) 1.0878(6) 0.4923(7)
O27 O 0.6425(8) 1.0593(6) 0.6540(7)
O28 O 0.5664(8) 1.1177(6) 0.4404(7)
O29 O 0.9314(8) 0.5403(8) 0.4783(8)
O30 O 0.7626(7) 0.3799(6) 0.4821(7)
O31 O 0.6974(7) 0.5892(6) 0.4190(6)
O32 O 0.8527(7) 0.4793(6) 1.2945(6)
O33 O 0.7828(7) 0.1000(6) 1.1004(7)
O34 O 0.4247(9) 0.9994(7) 0.4501(8)
O35 O 0.7852(8) 0.8691(6) 1.0764(8)
O36 O 0.4573(8) 1.0199(6) 0.6839(7)
O37 O 0.7219(8) 0.4392(7) 0.9318(7)
O38 O 1.0592(7) 0.6018(6) 0.5937(7)
O39 O 0.7898(8) 0.4073(6) 1.1472(8)
O40 O 0.7183(8) 0.2422(6) 1.0217(7)
O41 O 0.7664(11) 1.0455(9) 0.2896(9)
O42 O 0.5798(12) 0.4343(10) 0.2968(10)
C1 C 0.3705(22) 0.7622(17) 0.3274(20)
C2 C 0.4216(18) 0.6819(14) 0.2863(15)
N1 N 1.0536(9) 0.5959(8) 0.3043(9)
N2 N 0.3033(9) 0.9262(8) 0.2863(9)
C3 C 1.0766(15) 0.6934(12) 0.3062(13)
C4 C 0.8916(27) 0.7521(21) 0.3362(23)
C5 C 0.9875(34) 0.7464(27) 0.3411(30)
C6 C 0.3484(29) 0.8224(25) 0.2606(27)
N3 N 0.8146(15) 0.8170(13) 0.2972(14)
N4 N 0.5441(14) 0.6936(12) 0.2828(12)
O6_2 O 0.5982(7) 1.1386(6) 1.1105(7)
O7_2 O 0.4924(7) 1.0456(6) 1.2934(6)
O8A O 0.4145(9) 0.9936(7) 1.1038(8)
O10_2 O 0.6755(7) 1.0872(6) 0.9528(7)
O11A O 0.4373(7) 1.0146(7) 0.9306(7)
O15A O 0.5325(8) 0.5734(6) 1.0789(8)
O22A O 0.4152(8) 0.4595(7) 0.6444(7)
O24A O 0.3904(8) 0.4764(8) 0.4086(8)
O26_2 O 0.7993(7) 0.0878(6) 0.4923(7)
O27_2 O 0.6425(8) 0.0593(6) 0.6540(7)
O28_2 O 0.5664(8) 0.1177(6) 0.4404(7)
O32_2 O 0.8527(7) 0.4793(6) 0.2945(6)
O34A O 0.9247(9) 0.0006(7) 0.9501(8)
O35_2 O 0.7852(8) -0.1309(6) 1.0764(8)
O36A O 0.9573(8) -0.0199(6) 1.1839(7)
O38A O 0.5592(7) 0.3982(6) 1.0937(7)
O36A_2 O 0.9573(8) 0.9801(6) 0.1839(7)
O16_2 O 0.7320(7) 0.5692(6) 0.1916(6)
Zn2_2 Zn 0.54230(11) 0.02430(10) 1.16801(11)
Zn2_3 Zn 0.54230(11) 1.02430(10) 0.16801(11)
Zn2A Zn 1.04230(11) 0.97570(10) 0.66801(11)
Zn3_2 Zn 0.58391(11) -0.01418(10) 0.92037(10)
Zn3A Zn 1.08391(11) 1.01418(10) 0.42037(10)
Zn4A Zn 1.16793(11) 0.37573(9) 0.57923(10)
Zn12_2 Zn 0.6245(2) 0.5715(2) 1.2928(2)
Zn6A Zn 0.97820(11) 0.51579(10) 1.02262(11)
Zn7_2 Zn 0.66739(11) 1.13159(9) 0.53930(10)
Zn8_2 Zn 0.80757(13) 0.49608(10) 1.42315(11)
Zn9A Zn 0.36295(12) 1.01201(10) 0.57041(11)
Zn9_2 Zn 0.86295(12) 0.98799(10) 1.07041(11)
Zn11A Zn 0.3708(2) 1.0438(2) 0.8019(2)
Zn10A Zn 1.19539(12) 0.62752(9) 0.54693(11)
O43 O 1.1669(22) 0.7698(39) -0.2115(35)
N5 N 0.9364(9) 0.2614(7) 0.1366(8)
H1 H 0.9696(9) 0.2827(7) 0.0865(8)
H2 H 0.8735(9) 0.2850(7) 0.1371(8)
H3 H 0.9332(9) 0.1992(7) 0.1342(8)
N6 N 0.9281(10) 0.2613(8) 0.4850(11)
H4 H 0.9595(10) 0.2824(8) 0.5365(11)
H5 H 0.9241(10) 0.1991(8) 0.4875(11)
H6 H 0.8655(10) 0.2854(8) 0.4817(11)
C7 C 0.9913(13) 0.2904(10) 0.2232(11)
H7 H 0.9958(13) 0.3582(10) 0.2251(11)
H8 H 1.0603(13) 0.2656(10) 0.2220(11)
C8 C 0.9370(12) 0.2554(9) 0.3110(12)
H9 H 0.8667(12) 0.2767(9) 0.3098(12)
H10 H 0.9367(12) 0.1875(9) 0.3111(12)
C9 C 0.9881(11) 0.2901(10) 0.3988(11)
H11 H 0.9934(11) 0.3579(10) 0.3966(11)
H12 H 1.0567(11) 0.2646(10) 0.4028(11)
N7 N 0.8920(10) 0.7559(8) 0.9535(10)
H13 H 0.8574(10) 0.7759(8) 1.0033(10)
H14 H 0.9537(10) 0.7819(8) 0.9535(10)
H15 H 0.8981(10) 0.6938(8) 0.9560(10)
N8 N 0.8961(10) 0.7637(8) 0.6039(8)
H16 H 0.8655(10) 0.7908(8) 0.5549(8)
H17 H 0.8921(10) 0.7017(8) 0.5981(8)
H18 H 0.9614(10) 0.7809(8) 0.6058(8)
C10 C 0.8364(12) 0.7826(9) 0.8664(11)
H19 H 0.8288(12) 0.8502(9) 0.8642(11)
H20 H 0.7687(12) 0.7551(9) 0.8670(11)
C11 C 0.8920(13) 0.7503(10) 0.7809(14)
H21 H 0.8887(13) 0.6826(10) 0.7766(14)
H22 H 0.9633(13) 0.7685(10) 0.7853(14)
C12 C 0.8437(12) 0.7940(9) 0.6941(10)
H23 H 0.8471(12) 0.8617(9) 0.6993(10)
H24 H 0.7722(12) 0.7763(9) 0.6910(10)
loop_
_geom_bond_atom_site_label_1
_geom_bond_atom_site_label_2
_geom_bond_site_symmetry_1
_geom_bond_site_symmetry_2
Zn1 O1 1_555 1_555
Zn2 O5 1_555 1_555
Zn3 O9 1_555 1_555
Zn4 O13 1_555 1_555
Zn5 O17 1_555 1_555
Zn6 O21 1_555 1_555
Zn7 O25 1_555 1_555
Zn8 O29 1_555 1_555
Zn9 O33 1_555 1_555
Zn10 O37 1_555 1_555
Zn11 O11 1_555 1_555
Zn12 O31 1_555 1_555
P1 O8 1_555 1_555
P2 O6 1_555 1_555
P3 O1 1_555 1_555
P4 O2 1_555 1_555
P5 O4 1_555 1_555
P6 O5 1_555 1_555
P7 O16 1_555 1_555
P8 O3 1_555 1_555
P9 O7 1_555 1_555
P10 O12 1_555 1_555
O2 Zn1 1_555 1_555
O3 Zn1 1_555 1_555
O4 Zn1 1_555 1_555
O6 Zn2_2 1_555 1_555
O7 Zn2_3 1_555 1_555
O8 Zn2A 1_555 1_555
O9 P6 1_555 1_555
O10 P2 1_555 1_555
O11 P1 1_555 1_555
O12 Zn3 1_555 1_555
O13 P8 1_555 1_555
O14 Zn4 1_555 1_555
O15 P3 1_555 1_555
O16 Zn4 1_555 1_555
O17 P9 1_555 1_555
O18 Zn5 1_555 1_555
O19 Zn5 1_555 1_555
O20 Zn5 1_555 1_555
O21 P4 1_555 1_555
O22 P7 1_555 1_555
O23 Zn6 1_555 1_555
O24 P8 1_555 1_555
O25 P4 1_555 1_555
O26 P1 1_555 1_555
O27 P10 1_555 1_555
O28 P9 1_555 1_555
O29 P3 1_555 1_555
O30 Zn8 1_555 1_555
O31 Zn8 1_555 1_555
O32 P7 1_555 1_555
O33 P2 1_555 1_555
O34 P9 1_555 1_555
O35 P6 1_555 1_555
O36 P10 1_555 1_555
O37 P8 1_555 1_555
O38 P3 1_555 1_555
O39 Zn10 1_555 1_555
O40 Zn10 1_555 1_555
O41 Zn11 1_555 1_555
O42 Zn12 1_555 1_555
C1 C2 1_555 1_555
C2 N4 1_555 1_555
N1 C3 1_555 1_555
N2 C6 1_555 1_555
C3 C5 1_555 1_555
C4 C5 1_555 1_555
C6 C1 1_555 1_555
N3 Zn11 1_555 1_555
N4 Zn12 1_555 1_555
N5 H1 1_555 1_555
H2 N5 1_555 1_555
H3 N5 1_555 1_555
N6 H4 1_555 1_555
H5 N6 1_555 1_555
H6 N6 1_555 1_555
C7 N5 1_555 1_555
H7 C7 1_555 1_555
H8 C7 1_555 1_555
C8 C7 1_555 1_555
H9 C8 1_555 1_555
H10 C8 1_555 1_555
C9 N6 1_555 1_555
H11 C9 1_555 1_555
H12 C9 1_555 1_555
N7 H13 1_555 1_555
H14 N7 1_555 1_555
H15 N7 1_555 1_555
N8 H16 1_555 1_555
H17 N8 1_555 1_555
H18 N8 1_555 1_555
C10 N7 1_555 1_555
H19 C10 1_555 1_555
H20 C10 1_555 1_555
C11 C10 1_555 1_555
H21 C11 1_555 1_555
H22 C11 1_555 1_555
C12 N8 1_555 1_555
H23 C12 1_555 1_555
H24 C12 1_555 1_555
O6_2 Zn2 1_555 1_555
O7_2 Zn2 1_555 1_555
O8A Zn2 1_555 1_555
O10_2 Zn3 1_555 1_555
O11A Zn3 1_555 1_555
O15A Zn4 1_555 1_555
O22A Zn6 1_555 1_555
O24A Zn6 1_555 1_555
O26_2 Zn7 1_555 1_555
O27_2 Zn7 1_555 1_555
O28_2 Zn7 1_555 1_555
O32_2 Zn8 1_555 1_555
O34A Zn9 1_555 1_555
O35_2 Zn9 1_555 1_555
O36A Zn9 1_555 1_555
O38A Zn10 1_555 1_555
O36A_2 Zn11 1_555 1_555
O16_2 Zn12 1_555 1_555
Zn3_2 O10 1_555 1_555
Zn3A O11 1_555 1_555
Zn4A O15 1_555 1_555
Zn12_2 O16 1_555 1_555
Zn6A O22 1_555 1_555
Zn7_2 O26 1_555 1_555
Zn8_2 O32 1_555 1_555
Zn9A O34 1_555 1_555
Zn9_2 O35 1_555 1_555
Zn11A O36 1_555 1_555
Zn10A O38 1_555 1_555
P1 O18 1_555 1_555
P2 O40 1_555 1_555
P4 O30 1_555 1_555
P5 O20 1_555 1_555
P5 O23 1_555 1_555
P5 O31 1_555 1_555
P6 O14 1_555 1_555
P7 O39 1_555 1_555
P10 O19 1_555 1_555
O24 Zn6A 1_555 1_555
O27 Zn7_2 1_555 1_555
O28 Zn7_2 1_555 1_555
O36 Zn9A 1_555 1_555
C4 N3 1_555 1_555
C8 C9 1_555 1_555
C11 C12 1_555 1_555
O11A Zn11A 1_555 1_555

#END
