
#######################################################################
#
#                 Cambridge Crystallographic Data Centre
#                                CCDC 
#
#######################################################################
#
# If this CIF has been generated from an entry in the Cambridge 
# Structural Database, then it will include bibliographic, chemical, 
# crystal, experimental, refinement or atomic coordinate data resulting 
# from the CCDC's data processing and validation procedures.
#
#######################################################################

data_GIZVER
_chemical_formula_moiety         '(C34 H36 Co5 O27)n'
_symmetry_cell_setting           monoclinic
_symmetry_space_group_name_H-M   'P 21/n'
_symmetry_Int_Tables_number      14
_space_group_name_Hall           '-P 2yn'
loop_
_symmetry_equiv_pos_site_id
_symmetry_equiv_pos_as_xyz
1 x,y,z
2 1/2-x,1/2+y,1/2-z
3 -x,-y,-z
4 1/2+x,1/2-y,1/2+z
_cell_length_a                   9.9387(16)
_cell_length_b                   8.4653(14)
_cell_length_c                   25.115(4)
_cell_angle_alpha                90
_cell_angle_beta                 90.560(3)
_cell_angle_gamma                90
_cell_volume                     2112.93
loop_
_atom_site_label
_atom_site_type_symbol
_atom_site_fract_x
_atom_site_fract_y
_atom_site_fract_z
C1 C -0.8937(6) 0.1385(6) 0.1275(2)
C2 C -0.8752(5) 0.0326(6) 0.1688(2)
H1 H -0.9488 -0.0100 0.1863
C3 C -0.7416(5) -0.0105(6) 0.18406(19)
C4 C -0.6345(5) 0.0567(5) 0.15821(18)
H2 H -0.5471 0.0320 0.1689
C5 C -0.6565(5) 0.1630(6) 0.11549(19)
C6 C -0.7852(4) 0.2034(5) 0.10079(17)
H3 H -0.7998 0.2741 0.0730
C7 C -1.0351(4) 0.1949(6) 0.11410(19)
C8 C -0.5390(4) 0.2439(6) 0.08950(18)
C9 C -0.7191(5) -0.1310(6) 0.2288(2)
H4 H -0.7969 -0.1997 0.2314
H5 H -0.6413 -0.1958 0.2209
C10 C -0.6970(5) -0.0461(6) 0.28053(19)
C11 C -0.8039(5) -0.0007(6) 0.3110(2)
H6 H -0.8908 -0.0193 0.2984
C12 C -0.7860(5) 0.0734(6) 0.3607(2)
C13 C -0.6590(4) 0.1059(6) 0.37869(18)
H7 H -0.6465 0.1572 0.4111
C14 C -0.5481(4) 0.0623(5) 0.34853(18)
C15 C -0.5658(5) -0.0168(6) 0.3006(2)
H8 H -0.4913 -0.0506 0.2816
C16 C -0.9073(5) 0.1167(6) 0.3926(2)
C17 C -0.4091(5) 0.1002(6) 0.36798(18)
Co1 Co -0.25494(7) 0.32667(8) 0.08763(3)
Co2 Co -0.31571(7) 0.70410(8) 0.09786(3)
Co3 Co -0.5000 0.5000 0.0000
O1 O -0.3194(4) 0.5138(4) 0.04284(14)
H9 H -0.2487 0.5351 0.0169
O2 O -1.1375(3) 0.1509(4) 0.13924(13)
O3 O -1.0508(3) 0.2957(4) 0.07606(14)
O4 O -0.5571(3) 0.2925(4) 0.04316(13)
O5 O -0.4333(3) 0.2570(4) 0.11703(14)
O6 O -1.0160(4) 0.1354(4) 0.36789(14)
O7 O -0.8942(3) 0.1326(4) 0.44282(13)
O8 O -0.3925(3) 0.2157(4) 0.39800(13)
O9 O -0.3094(3) 0.0183(4) 0.35464(13)
O10 O -0.2873(4) 0.1836(4) 0.01879(14)
H10 H -0.2717 0.2421 -0.0080
H11 H -0.3702 0.1597 0.0168
O11 O -0.3525(3) 0.8670(4) 0.04083(12)
H12 H -0.3582 0.8217 0.0107
H13 H -0.2884 0.9334 0.0405
O12 O -0.3143(3) 0.8833(4) 0.15785(13)
H14 H -0.2469 0.8687 0.1784
H15 H -0.3085 0.9739 0.1435
C1B C -0.1063(6) 0.8615(6) -0.1275(2)
C2B C -0.1248(5) 0.9674(6) -0.1688(2)
H1B H -0.0512 1.0100 -0.1863
C3B C -0.2584(5) 1.0105(6) -0.18406(19)
C4B C -0.3655(5) 0.9433(5) -0.15821(18)
H2B H -0.4529 0.9680 -0.1689
C5B C -0.3435(5) 0.8370(6) -0.11549(19)
C6B C -0.2148(4) 0.7966(5) -0.10079(17)
H3B H -0.2002 0.7259 -0.0730
C7B C 0.0351(4) 0.8051(6) -0.11410(19)
C8B C -0.4610(4) 0.7561(6) -0.08950(18)
C9B C -0.2809(5) 1.1310(6) -0.2288(2)
H4B H -0.2031 1.1997 -0.2314
H5B H -0.3587 1.1958 -0.2209
C10B C -0.3030(5) 1.0461(6) -0.28053(19)
C11B C -0.1961(5) 1.0007(6) -0.3110(2)
H6B H -0.1092 1.0193 -0.2984
C12B C -0.2140(5) 0.9266(6) -0.3607(2)
C13B C -0.3410(4) 0.8941(6) -0.37869(18)
H7B H -0.3535 0.8428 -0.4111
C14B C -0.4519(4) 0.9377(5) -0.34853(18)
C15B C -0.4342(5) 1.0168(6) -0.3006(2)
H8B H -0.5087 1.0506 -0.2816
C16B C -0.0927(5) 0.8833(6) -0.3926(2)
C17B C -0.5909(5) 0.8998(6) -0.36798(18)
Co1B Co -0.74506(7) 0.67333(8) -0.08763(3)
Co1_2 Co -1.25494(7) 0.32667(8) 0.08763(3)
Co1A Co -0.24506(7) -0.17333(8) 0.41237(3)
Co1B_2 Co 0.25494(7) 0.67333(8) -0.08763(3)
Co1C Co -0.75494(7) 1.17333(8) -0.41237(3)
Co2B Co -0.68429(7) 0.29590(8) -0.09786(3)
Co2A Co -1.18429(7) 0.20410(8) 0.40214(3)
Co2A_2 Co -0.18429(7) 0.20410(8) 0.40214(3)
Co2C Co 0.18429(7) 0.79590(8) -0.40214(3)
Co2C_2 Co -0.81571(7) 0.79590(8) -0.40214(3)
Co3C Co -1.0000 0.0000 0.5000
Co3C_2 Co -0.0000 1.0000 -0.5000
O1B O -0.6806(4) 0.4862(4) -0.04284(14)
H9B H -0.7513 0.4649 -0.0169
O2B O 0.1375(3) 0.8491(4) -0.13924(13)
O2_2 O -0.1375(3) 0.1509(4) 0.13924(13)
O2B_2 O -0.8625(3) 0.8491(4) -0.13924(13)
O3B O 0.0508(3) 0.7043(4) -0.07606(14)
O3_2 O -0.0508(3) 0.2957(4) 0.07606(14)
O3B_2 O -0.9492(3) 0.7043(4) -0.07606(14)
O4B O -0.4429(3) 0.7075(4) -0.04316(13)
O5B O -0.5667(3) 0.7430(4) -0.11703(14)
O6B O 0.0160(4) 0.8646(4) -0.36789(14)
O6A O -0.4840(4) 0.6354(4) 0.13211(14)
O6C O -0.5160(4) 0.3646(4) -0.13211(14)
O7B O -0.1058(3) 0.8674(4) -0.44282(13)
O7C O -0.3942(3) 0.3674(4) -0.05718(13)
O7A O -0.6058(3) 0.6326(4) 0.05718(13)
O8B O -0.6075(3) 0.7843(4) -0.39800(13)
O8A O -0.1075(3) 0.7157(4) 0.10200(13)
O8C O -0.8925(3) 0.2843(4) -0.10200(13)
O9B O -0.6906(3) 0.9817(4) -0.35464(13)
O9A O -0.1906(3) 0.5183(4) 0.14536(13)
O9C O -0.8094(3) 0.4817(4) -0.14536(13)
O10B O -0.7127(4) 0.8164(4) -0.01879(14)
H10B H -0.7283 0.7579 0.0080
H11B H -0.6298 0.8403 -0.0168
O11B O -0.6475(3) 0.1330(4) -0.04083(12)
H12B H -0.6418 0.1783 -0.0107
H13B H -0.7116 0.0666 -0.0405
O12B O -0.6857(3) 0.1167(4) -0.15785(13)
H14B H -0.7531 0.1313 -0.1784
H15B H -0.6915 0.0261 -0.1435
O13 O 0.6646(3) 0.6769(4) 0.24695(12)
H16 H 0.6033 0.6179 0.2339
H17 H 0.6385 0.7146 0.2765
O14 O 0.9697(4) 0.1155(4) 0.97144(15)
H18 H 0.8973 0.0833 0.9855
H19 H 0.9695 0.0872 0.9390
O15 O 0.5962(3) 0.3432(4) 0.23008(13)
H20 H 0.5813 0.2504 0.2185
H21 H 0.6787 0.3662 0.2259
loop_
_geom_bond_atom_site_label_1
_geom_bond_atom_site_label_2
_geom_bond_site_symmetry_1
_geom_bond_site_symmetry_2
C1 C2 1_555 1_555
C2 H1 1_555 1_555
C3 C2 1_555 1_555
C4 C3 1_555 1_555
H2 C4 1_555 1_555
C5 C4 1_555 1_555
C6 C1 1_555 1_555
H3 C6 1_555 1_555
C7 C1 1_555 1_555
C8 C5 1_555 1_555
C9 C3 1_555 1_555
H4 C9 1_555 1_555
H5 C9 1_555 1_555
C10 C9 1_555 1_555
C11 C10 1_555 1_555
H6 C11 1_555 1_555
C12 C11 1_555 1_555
C13 C12 1_555 1_555
H7 C13 1_555 1_555
C14 C13 1_555 1_555
C15 C10 1_555 1_555
H8 C15 1_555 1_555
C16 C12 1_555 1_555
C17 C14 1_555 1_555
Co1 O1 1_555 1_555
Co2 O1 1_555 1_555
Co3 O1 1_555 1_555
O1 H9 1_555 1_555
O2 C7 1_555 1_555
O3 C7 1_555 1_555
O4 C8 1_555 1_555
O5 C8 1_555 1_555
O6 C16 1_555 1_555
O7 C16 1_555 1_555
O8 C17 1_555 1_555
O9 C17 1_555 1_555
O10 Co1 1_555 1_555
H10 O10 1_555 1_555
H11 O10 1_555 1_555
O11 Co2 1_555 1_555
H12 O11 1_555 1_555
H13 O11 1_555 1_555
O12 Co2 1_555 1_555
H14 O12 1_555 1_555
H15 O12 1_555 1_555
O13 H16 1_555 1_555
H17 O13 1_555 1_555
O14 H18 1_555 1_555
H19 O14 1_555 1_555
O15 H20 1_555 1_555
H21 O15 1_555 1_555
C1B C2B 1_555 1_555
C2B H1B 1_555 1_555
C3B C2B 1_555 1_555
C4B C3B 1_555 1_555
H2B C4B 1_555 1_555
C5B C4B 1_555 1_555
C6B C1B 1_555 1_555
H3B C6B 1_555 1_555
C7B C1B 1_555 1_555
C8B C5B 1_555 1_555
C9B C3B 1_555 1_555
H4B C9B 1_555 1_555
H5B C9B 1_555 1_555
C10B C9B 1_555 1_555
C11B C10B 1_555 1_555
H6B C11B 1_555 1_555
C12B C11B 1_555 1_555
C13B C12B 1_555 1_555
H7B C13B 1_555 1_555
C14B C13B 1_555 1_555
C15B C10B 1_555 1_555
H8B C15B 1_555 1_555
C16B C12B 1_555 1_555
C17B C14B 1_555 1_555
Co1B O1B 1_555 1_555
Co1_2 O2 1_555 1_555
Co1A O9 1_555 1_555
Co1B_2 O2B 1_555 1_555
Co1C O9B 1_555 1_555
Co2B O1B 1_555 1_555
Co2A O6 1_555 1_555
Co2A_2 O8 1_555 1_555
Co2C O6B 1_555 1_555
Co2C_2 O8B 1_555 1_555
Co3C O7 1_555 1_555
Co3C_2 O7B 1_555 1_555
O1B Co3 1_555 1_555
H9B O1B 1_555 1_555
O2B C7B 1_555 1_555
O2_2 Co1 1_555 1_555
O2B_2 Co1B 1_555 1_555
O3B C7B 1_555 1_555
O3_2 Co1 1_555 1_555
O3B_2 Co1B 1_555 1_555
O4B Co3 1_555 1_555
O5B C8B 1_555 1_555
O6B C16B 1_555 1_555
O6A Co2 1_555 1_555
O6C Co2B 1_555 1_555
O7B C16B 1_555 1_555
O7C Co3 1_555 1_555
O7A Co3 1_555 1_555
O8B C17B 1_555 1_555
O8A Co2 1_555 1_555
O8C Co2B 1_555 1_555
O9B C17B 1_555 1_555
O9A Co1 1_555 1_555
O9C Co1B 1_555 1_555
O10B Co1B 1_555 1_555
H10B O10B 1_555 1_555
H11B O10B 1_555 1_555
O11B Co2B 1_555 1_555
H12B O11B 1_555 1_555
H13B O11B 1_555 1_555
O12B Co2B 1_555 1_555
H14B O12B 1_555 1_555
H15B O12B 1_555 1_555
C5 C6 1_555 1_555
C14 C15 1_555 1_555
Co1 O5 1_555 1_555
Co2 O9A 1_555 1_555
Co3 O4 1_555 1_555
O3 Co1_2 1_555 1_555
O9 Co2A_2 1_555 1_555
C5B C6B 1_555 1_555
C8B O4B 1_555 1_555
C14B C15B 1_555 1_555
Co1B O5B 1_555 1_555
Co1B_2 O3B 1_555 1_555
Co2B O9C 1_555 1_555
Co2C_2 O9B 1_555 1_555

#END
