
#######################################################################
#
#                 Cambridge Crystallographic Data Centre
#                                CCDC 
#
#######################################################################
#
# If this CIF has been generated from an entry in the Cambridge 
# Structural Database, then it will include bibliographic, chemical, 
# crystal, experimental, refinement or atomic coordinate data resulting 
# from the CCDC's data processing and validation procedures.
#
#######################################################################

data_REKZIR
_chemical_formula_moiety         '(C136 H98 Cd6 N8 O35)n'
_symmetry_cell_setting           monoclinic
_symmetry_space_group_name_H-M   'C 2/c'
_symmetry_Int_Tables_number      15
_space_group_name_Hall           '-C 2yc'
loop_
_symmetry_equiv_pos_site_id
_symmetry_equiv_pos_as_xyz
1 x,y,z
2 1/2+x,1/2+y,z
3 -x,y,1/2-z
4 1/2-x,1/2+y,1/2-z
5 -x,-y,-z
6 1/2-x,1/2-y,-z
7 x,-y,1/2+z
8 1/2+x,1/2-y,1/2+z
_cell_length_a                   31.0998(15)
_cell_length_b                   24.0457(12)
_cell_length_c                   23.0064(11)
_cell_angle_alpha                90
_cell_angle_beta                 131.4200(10)
_cell_angle_gamma                90
_cell_volume                     12901.4
loop_
_atom_site_label
_atom_site_type_symbol
_atom_site_fract_x
_atom_site_fract_y
_atom_site_fract_z
Cd1 Cd 0.044187(10) 0.461141(9) 0.978716(14)
Cd2 Cd 0.198986(10) 0.374988(9) 1.041253(13)
Cd3 Cd 0.139063(10) 0.324180(9) 1.135402(13)
O1 O 0.27703(11) 0.43112(10) 1.08539(14)
O2 O 0.23007(11) 0.39243(11) 0.97115(15)
O3 O 0.24888(11) 0.42591(11) 0.88400(14)
H1 H 0.2341 0.4092 0.8997
O4 O 0.26072(12) 0.55421(11) 0.85414(14)
H2 H 0.2387 0.5790 0.8245
O5 O 0.20275(11) 0.61450(10) 0.73584(14)
O6 O 0.20151(11) 0.60366(10) 0.64036(14)
O7 O 0.05767(12) 0.27055(10) 1.07987(15)
O8 O 0.10957(12) 0.29177(11) 1.20325(16)
O9 O 0.07737(12) 0.26649(12) 1.27599(16)
H3 H 0.0974 0.2816 1.2673
O10 O 0.13068(11) 0.29606(11) 1.03344(14)
O11 O 0.14210(11) 0.30941(11) 0.94985(14)
O12 O 0.07332(11) 0.26679(11) 0.81498(14)
H4 H 0.0976 0.2877 0.8535
O13 O 0.04549(11) 0.48168(11) 0.88099(14)
O14 O 0.11779(11) 0.42956(11) 0.97279(15)
O15 O 0.07848(10) 0.40028(9) 1.08472(14)
O16 O 0.02562(11) 0.46939(10) 1.06598(16)
N1 N 0.29138(13) 0.75731(12) 1.28840(17)
N2 N 0.10740(13) 0.53297(12) 1.05314(19)
N3 N -0.02347(12) 0.39387(11) 0.89519(17)
N4 N -0.23098(12) 0.19229(11) 0.62547(16)
C1 C 0.27124(15) 0.42175(13) 1.0268(2)
C2 C 0.31279(15) 0.44567(13) 1.02129(19)
C3 C 0.36296(16) 0.46821(17) 1.0853(2)
H5 H 0.3710 0.4685 1.1320
C4 C 0.40299(17) 0.4911(2) 1.0816(2)
C5 C 0.4550(2) 0.5145(3) 1.1477(3)
H6 H 0.4637 0.5141 1.1949
C6 C 0.4925(2) 0.5378(3) 1.1430(3)
H7 H 0.5265 0.5535 1.1868
C7 C 0.4804(2) 0.5381(2) 1.0733(3)
H8 H 0.5067 0.5533 1.0711
C8 C 0.43005(18) 0.51629(19) 1.0074(3)
H9 H 0.4225 0.5172 0.9610
C9 C 0.38990(15) 0.49262(16) 1.0098(2)
C10 C 0.33609(15) 0.47178(13) 0.9423(2)
C11 C 0.29959(14) 0.44709(14) 0.94901(19)
C12 C 0.31639(14) 0.48290(14) 0.8645(2)
C13 C 0.33550(15) 0.45179(14) 0.8331(2)
C14 C 0.37222(16) 0.40509(16) 0.8724(3)
H10 H 0.3863 0.3959 0.9216
C15 C 0.3870(2) 0.37372(18) 0.8388(3)
H11 H 0.4110 0.3432 0.8653
C16 C 0.3667(2) 0.3864(2) 0.7655(3)
H12 H 0.3765 0.3639 0.7429
C17 C 0.3321(2) 0.43217(19) 0.7259(3)
H13 H 0.3194 0.4409 0.6773
C18 C 0.31594(17) 0.46582(15) 0.7589(2)
C19 C 0.27918(16) 0.51215(15) 0.7193(2)
H14 H 0.2672 0.5223 0.6716
C20 C 0.26085(15) 0.54240(13) 0.7500(2)
C21 C 0.27944(15) 0.52654(14) 0.82310(19)
C22 C 0.21987(15) 0.58938(13) 0.70576(19)
C23 C 0.06540(17) 0.26947(14) 1.1407(2)
C24 C 0.02388(17) 0.24124(14) 1.1423(2)
C25 C -0.0228(2) 0.21595(18) 1.0769(3)
H15 H -0.0284 0.2173 1.0319
C26 C -0.0630(2) 0.1875(2) 1.0762(3)
C27 C -0.1111(3) 0.1597(3) 1.0095(4)
H16 H -0.1178 0.1607 0.9637
C28 C -0.1476(4) 0.1313(3) 1.0124(5)
H17 H -0.1797 0.1138 0.9680
C29 C -0.1373(4) 0.1280(3) 1.0823(5)
H18 H -0.1615 0.1074 1.0844
C30 C -0.0932(3) 0.1543(2) 1.1438(4)
H19 H -0.0878 0.1531 1.1886
C31 C -0.0531(2) 0.18450(19) 1.1456(3)
C32 C -0.0053(2) 0.21189(16) 1.2129(3)
C33 C 0.03220(18) 0.23952(15) 1.2110(2)
C34 C 0.11780(14) 0.28491(14) 0.97065(19)
C35 C 0.07394(14) 0.24137(14) 0.91767(18)
C36 C 0.05172(15) 0.20830(14) 0.94097(19)
H20 H 0.0650 0.2127 0.9907
C37 C 0.00964(15) 0.16812(14) 0.8919(2)
C38 C -0.01417(18) 0.13419(16) 0.9146(2)
H21 H -0.0010 0.1377 0.9643
C39 C -0.0560(2) 0.09642(17) 0.8649(3)
H22 H -0.0714 0.0746 0.8807
C40 C -0.0760(2) 0.09042(17) 0.7897(3)
H23 H -0.1040 0.0641 0.7563
C41 C -0.05478(17) 0.12264(15) 0.7650(2)
H24 H -0.0692 0.1186 0.7147
C42 C -0.01127(15) 0.16213(13) 0.81457(19)
C43 C 0.01168(13) 0.19654(13) 0.79057(17)
C44 C 0.05335(14) 0.23494(13) 0.84107(18)
C45 C 0.0946(6) 0.4333(5) 0.8508(6)
H25 H 0.0707 0.4010 0.8255
H26 H 0.1337 0.4234 0.8773
H27 H 0.0822 0.4614 0.8129
C47 C 0.0906(2) 0.4554(2) 0.9089(3)
C48 C 0.0620(3) 0.4118(2) 1.1730(3)
H31 H 0.0413 0.4376 1.1784
H32 H 0.1018 0.4125 1.2189
H33 H 0.0470 0.3750 1.1655
C49 C 0.05530(16) 0.42764(14) 1.1047(2)
C50 C 0.1104(2) 0.5773(2) 1.0224(3)
H34 H 0.0882 0.5781 0.9689
C51 C 0.1448(2) 0.6228(2) 1.0651(3)
H35 H 0.1445 0.6534 1.0402
C52 C 0.17950(15) 0.62286(14) 1.1447(2)
C53 C 0.17658(17) 0.57609(15) 1.1764(2)
H36 H 0.1989 0.5736 1.2298
C54 C 0.14059(16) 0.53296(15) 1.1292(2)
H37 H 0.1397 0.5019 1.1525
C55 C 0.21767(15) 0.66975(14) 1.1934(2)
C56 C 0.2236(2) 0.71580(17) 1.1633(2)
H38 H 0.2029 0.7182 1.1103
C57 C 0.2601(2) 0.75799(17) 1.2117(2)
H39 H 0.2633 0.7886 1.1901
C58 C 0.24990(15) 0.66941(13) 1.2726(2)
H40 H 0.2473 0.6395 1.2958
C59 C 0.28591(14) 0.71324(13) 1.3173(2)
H41 H 0.3075 0.7117 1.3705
C60 C -0.0646(2) 0.40489(18) 0.8212(3)
H42 H -0.0671 0.4409 0.8044
C61 C -0.1044(2) 0.36652(19) 0.7668(3)
H43 H -0.1316 0.3769 0.7150
C62 C -0.10427(14) 0.31344(13) 0.78789(19)
C63 C -0.06280(19) 0.30278(16) 0.8652(2)
H44 H -0.0606 0.2677 0.8839
C64 C -0.02391(19) 0.34328(16) 0.9161(2)
H45 H 0.0036 0.3341 0.9684
C65 C -0.14766(13) 0.27140(13) 0.73121(19)
C66 C -0.14845(16) 0.21864(15) 0.7549(2)
H46 H -0.1211 0.2087 0.8069
C67 C -0.18980(16) 0.18095(14) 0.7013(2)
H47 H -0.1892 0.1457 0.7186
C68 C -0.18930(15) 0.28256(13) 0.6520(2)
H48 H -0.1900 0.3169 0.6327
C69 C -0.22911(15) 0.24288(14) 0.60278(19)
H49 H -0.2566 0.2515 0.5503
Cd1D Cd -0.044187(10) 0.538859(9) 1.021284(14)
Cd1G Cd 0.544187(10) 0.038859(9) 1.478716(14)
Cd1C Cd 0.455813(10) -0.038859(9) 1.521284(14)
Cd2G Cd -0.301014(10) 0.125012(9) 0.541253(13)
Cd2F Cd 0.198986(10) 0.625012(9) 0.541253(13)
Cd2B Cd -0.198986(10) 0.374988(9) 0.458747(13)
Cd2F_2 Cd 0.198986(10) 0.625012(9) 1.541253(13)
Cd2D Cd -0.198986(10) 0.625012(9) 0.958747(13)
Cd3D Cd -0.139063(10) 0.675820(9) 0.864598(13)
Cd3F Cd 0.139063(10) 0.675820(9) 0.635402(13)
Cd3C Cd 0.360937(10) 0.824180(9) 1.364598(13)
Cd3B Cd -0.139063(10) 0.324180(9) 1.364598(13)
Cd3B_2 Cd -0.139063(10) 0.324180(9) 0.364598(13)
O1F O 0.27703(11) 0.56888(10) 1.58539(14)
O1G O -0.22297(11) 0.06888(10) 0.58539(14)
O2F O 0.23007(11) 0.60757(11) 1.47115(15)
O2G O -0.26993(11) 0.10757(11) 0.47115(15)
O3F O 0.24888(11) 0.57409(11) 1.38400(14)
H1F H 0.2341 0.5908 1.3997
O4F O 0.26072(12) 0.44579(11) 1.35414(14)
H2F H 0.2387 0.4210 1.3245
O5F O 0.20275(11) 0.38550(10) 1.23584(14)
O5B O -0.20275(11) 0.61450(10) 0.76416(14)
O6F O 0.20151(11) 0.39634(10) 1.14036(14)
O6A O -0.29849(11) 0.10366(10) 0.64036(14)
O6B O -0.20151(11) 0.60366(10) 0.85964(14)
O7B O -0.05767(12) 0.27055(10) 1.42013(15)
O7D O -0.05767(12) 0.72945(10) 0.92013(15)
O8B O -0.10957(12) 0.29177(11) 1.29675(16)
O8D O -0.10957(12) 0.70823(11) 0.79675(16)
O9B O -0.07737(12) 0.26649(12) 1.22401(16)
H3B H -0.0974 0.2816 1.2327
O10B O -0.13068(11) 0.29606(11) 0.46656(14)
O10D O -0.13068(11) 0.70394(11) 0.96656(14)
O11B O -0.14210(11) 0.30941(11) 0.55015(14)
O11G O -0.35790(11) 0.19059(11) 0.44985(14)
O12B O -0.07332(11) 0.26679(11) 0.68502(14)
H4B H -0.0976 0.2877 0.6465
O13D O -0.04549(11) 0.51832(11) 1.11901(14)
O14D O -0.11779(11) 0.57044(11) 1.02721(15)
O14G O -0.38221(11) 0.07044(11) 0.47279(15)
O15D O -0.07848(10) 0.59972(9) 0.91528(14)
O16D O -0.02562(11) 0.53061(10) 0.93402(16)
N1C N 0.20862(13) 0.25731(12) 1.21160(17)
N1G N -0.20862(13) 0.74269(12) 0.78840(17)
N2C N 0.39260(13) 0.03297(12) 1.44686(19)
N2D N -0.10740(13) 0.46703(12) 0.94686(19)
N3G N 0.47653(12) 0.10613(11) 1.39519(17)
N3D N 0.02347(12) 0.60613(11) 1.10481(17)
N4G N 0.26902(12) 0.30771(11) 1.12547(16)
C1F C 0.27124(15) 0.57825(13) 1.5268(2)
C2F C 0.31279(15) 0.55433(13) 1.52129(19)
C3F C 0.36296(16) 0.53179(17) 1.5853(2)
H5F H 0.3710 0.5315 1.6320
C4F C 0.40299(17) 0.5089(2) 1.5816(2)
C5F C 0.4550(2) 0.4855(3) 1.6477(3)
H6F H 0.4637 0.4859 1.6949
C6F C 0.4925(2) 0.4622(3) 1.6430(3)
H7F H 0.5265 0.4465 1.6868
C7F C 0.4804(2) 0.4619(2) 1.5733(3)
H8F H 0.5067 0.4467 1.5711
C8F C 0.43005(18) 0.48371(19) 1.5074(3)
H9F H 0.4225 0.4828 1.4610
C9F C 0.38990(15) 0.50738(16) 1.5098(2)
C10F C 0.33609(15) 0.52822(13) 1.4423(2)
C11F C 0.29959(14) 0.55291(14) 1.44901(19)
C12F C 0.31639(14) 0.51710(14) 1.3645(2)
C13F C 0.33550(15) 0.54821(14) 1.3331(2)
C14F C 0.37222(16) 0.59491(16) 1.3724(3)
H10F H 0.3863 0.6041 1.4216
C15F C 0.3870(2) 0.62628(18) 1.3388(3)
H11F H 0.4110 0.6568 1.3653
C16F C 0.3667(2) 0.6136(2) 1.2655(3)
H12F H 0.3765 0.6361 1.2429
C17F C 0.3321(2) 0.56783(19) 1.2259(3)
H13F H 0.3194 0.5591 1.1773
C18F C 0.31594(17) 0.53418(15) 1.2589(2)
C19F C 0.27918(16) 0.48785(15) 1.2193(2)
H14F H 0.2672 0.4777 1.1716
C20F C 0.26085(15) 0.45760(13) 1.2500(2)
C21F C 0.27944(15) 0.47346(14) 1.32310(19)
C22F C 0.21987(15) 0.41062(13) 1.20576(19)
C23B C -0.06540(17) 0.26947(14) 1.3593(2)
C24B C -0.02388(17) 0.24124(14) 1.3577(2)
C25B C 0.0228(2) 0.21595(18) 1.4231(3)
H15B H 0.0284 0.2173 1.4681
C26B C 0.0630(2) 0.1875(2) 1.4238(3)
C27B C 0.1111(3) 0.1597(3) 1.4905(4)
H16B H 0.1178 0.1607 1.5363
C28B C 0.1476(4) 0.1313(3) 1.4876(5)
H17B H 0.1797 0.1138 1.5320
C29B C 0.1373(4) 0.1280(3) 1.4177(5)
H18B H 0.1615 0.1074 1.4156
C30B C 0.0932(3) 0.1543(2) 1.3562(4)
H19B H 0.0878 0.1531 1.3114
C31B C 0.0531(2) 0.18450(19) 1.3544(3)
C32B C 0.0053(2) 0.21189(16) 1.2871(3)
C33B C -0.03220(18) 0.23952(15) 1.2890(2)
C34B C -0.11780(14) 0.28491(14) 0.52935(19)
C35B C -0.07394(14) 0.24137(14) 0.58233(18)
C36B C -0.05172(15) 0.20830(14) 0.55903(19)
H20B H -0.0650 0.2127 0.5093
C37B C -0.00964(15) 0.16812(14) 0.6081(2)
C38B C 0.01417(18) 0.13419(16) 0.5854(2)
H21B H 0.0010 0.1377 0.5357
C39B C 0.0560(2) 0.09642(17) 0.6351(3)
H22B H 0.0714 0.0746 0.6193
C40B C 0.0760(2) 0.09042(17) 0.7103(3)
H23B H 0.1040 0.0641 0.7437
C41B C 0.05478(17) 0.12264(15) 0.7350(2)
H24B H 0.0692 0.1186 0.7853
C42B C 0.01127(15) 0.16213(13) 0.68543(19)
C43B C -0.01168(13) 0.19654(13) 0.70943(17)
C44B C -0.05335(14) 0.23494(13) 0.65893(18)
C45D C -0.0946(6) 0.5667(5) 1.1492(6)
H25D H -0.0707 0.5990 1.1745
H26D H -0.1337 0.5766 1.1227
H27D H -0.0822 0.5386 1.1871
C47D C -0.0906(2) 0.5446(2) 1.0911(3)
C48D C -0.0620(3) 0.5882(2) 0.8270(3)
H31D H -0.0413 0.5624 0.8216
H32D H -0.1018 0.5875 0.7811
H33D H -0.0470 0.6250 0.8345
C49D C -0.05530(16) 0.57236(14) 0.8953(2)
C50C C 0.3896(2) 0.0773(2) 1.4776(3)
H34C H 0.4118 0.0781 1.5311
C51C C 0.3552(2) 0.1228(2) 1.4349(3)
H35C H 0.3555 0.1534 1.4598
C52C C 0.32050(15) 0.12286(14) 1.3553(2)
C53C C 0.32342(17) 0.07609(15) 1.3236(2)
H36C H 0.3011 0.0736 1.2702
C54C C 0.35941(16) 0.03296(15) 1.3708(2)
H37C H 0.3603 0.0019 1.3475
C55C C 0.28233(15) 0.16975(14) 1.3066(2)
C56C C 0.2764(2) 0.21580(17) 1.3367(2)
H38C H 0.2971 0.2182 1.3897
C57C C 0.2399(2) 0.25799(17) 1.2883(2)
H39C H 0.2367 0.2886 1.3099
C58C C 0.25010(15) 0.16941(13) 1.2274(2)
H40C H 0.2527 0.1395 1.2042
C59C C 0.21409(14) 0.21324(13) 1.1827(2)
H41C H 0.1925 0.2117 1.1295
C60G C 0.4354(2) 0.09511(18) 1.3212(3)
H42G H 0.4329 0.0591 1.3044
C61G C 0.3956(2) 0.13348(19) 1.2668(3)
H43G H 0.3684 0.1231 1.2150
C62G C 0.39573(14) 0.18656(13) 1.28789(19)
C63G C 0.43720(19) 0.19722(16) 1.3652(2)
H44G H 0.4394 0.2323 1.3839
C64G C 0.47609(19) 0.15672(16) 1.4161(2)
H45G H 0.5036 0.1659 1.4684
C65G C 0.35234(13) 0.22860(13) 1.23121(19)
C66G C 0.35155(16) 0.28136(15) 1.2549(2)
H46G H 0.3789 0.2913 1.3069
C67G C 0.31020(16) 0.31905(14) 1.2013(2)
H47G H 0.3108 0.3543 1.2186
C68G C 0.31070(15) 0.21744(13) 1.1520(2)
H48G H 0.3100 0.1831 1.1327
C69G C 0.27089(15) 0.25712(14) 1.10278(19)
H49G H 0.2434 0.2485 1.0503
O17 O 0.0000 0.54694(19) 0.7500
H50 H 0.0212 0.5404 0.7397
H50B H -0.0212 0.5404 0.7603
O18 O 0.4329(3) 0.1409(3) 1.6478(4)
H52 H 0.4539 0.1433 1.6366
H53 H 0.4481 0.1394 1.6949
O19 O 0.1537(8) 0.4920(7) 1.2886(13)
H54 H 0.1396 0.5182 1.2557
H55 H 0.1354 0.4796 1.3014
loop_
_geom_bond_atom_site_label_1
_geom_bond_atom_site_label_2
_geom_bond_site_symmetry_1
_geom_bond_site_symmetry_2
Cd1 O13 1_555 1_555
Cd2 O1 1_555 1_555
Cd3 O7 1_555 1_555
O1 C1 1_555 1_555
O2 Cd2 1_555 1_555
O3 H1 1_555 1_555
O4 H2 1_555 1_555
O5 C22 1_555 1_555
O6 C22 1_555 1_555
O7 C23 1_555 1_555
O8 Cd3 1_555 1_555
O9 H3 1_555 1_555
O10 Cd3 1_555 1_555
O11 Cd2 1_555 1_555
O12 H4 1_555 1_555
O13 C47 1_555 1_555
O14 Cd1 1_555 1_555
O15 Cd1 1_555 1_555
O16 Cd1 1_555 1_555
N1 C57 1_555 1_555
N2 Cd1 1_555 1_555
N3 Cd1 1_555 1_555
N4 C67 1_555 1_555
C1 O2 1_555 1_555
C2 C1 1_555 1_555
C3 C2 1_555 1_555
H5 C3 1_555 1_555
C4 C3 1_555 1_555
C5 C4 1_555 1_555
H6 C5 1_555 1_555
C6 C5 1_555 1_555
H7 C6 1_555 1_555
C7 C6 1_555 1_555
H8 C7 1_555 1_555
C8 C7 1_555 1_555
H9 C8 1_555 1_555
C9 C4 1_555 1_555
C10 C9 1_555 1_555
C11 O3 1_555 1_555
C12 C10 1_555 1_555
C13 C12 1_555 1_555
C14 C13 1_555 1_555
H10 C14 1_555 1_555
C15 C14 1_555 1_555
H11 C15 1_555 1_555
C16 C15 1_555 1_555
H12 C16 1_555 1_555
C17 C16 1_555 1_555
H13 C17 1_555 1_555
C18 C13 1_555 1_555
C19 C18 1_555 1_555
H14 C19 1_555 1_555
C20 C19 1_555 1_555
C21 O4 1_555 1_555
C22 C20 1_555 1_555
C23 O8 1_555 1_555
C24 C23 1_555 1_555
C25 C24 1_555 1_555
H15 C25 1_555 1_555
C26 C25 1_555 1_555
C27 C26 1_555 1_555
H16 C27 1_555 1_555
C28 C27 1_555 1_555
H17 C28 1_555 1_555
C29 C28 1_555 1_555
H18 C29 1_555 1_555
C30 C29 1_555 1_555
H19 C30 1_555 1_555
C31 C26 1_555 1_555
C32 C31 1_555 1_555
C33 O9 1_555 1_555
C34 O10 1_555 1_555
C35 C34 1_555 1_555
C36 C35 1_555 1_555
H20 C36 1_555 1_555
C37 C36 1_555 1_555
C38 C37 1_555 1_555
H21 C38 1_555 1_555
C39 C38 1_555 1_555
H22 C39 1_555 1_555
C40 C39 1_555 1_555
H23 C40 1_555 1_555
C41 C40 1_555 1_555
H24 C41 1_555 1_555
C42 C37 1_555 1_555
C43 C42 1_555 1_555
C44 O12 1_555 1_555
C45 H25 1_555 1_555
H26 C45 1_555 1_555
H27 C45 1_555 1_555
C47 O14 1_555 1_555
C48 H31 1_555 1_555
H32 C48 1_555 1_555
H33 C48 1_555 1_555
C49 O15 1_555 1_555
C50 N2 1_555 1_555
H34 C50 1_555 1_555
C51 C50 1_555 1_555
H35 C51 1_555 1_555
C52 C51 1_555 1_555
C53 C52 1_555 1_555
H36 C53 1_555 1_555
C54 N2 1_555 1_555
H37 C54 1_555 1_555
C55 C52 1_555 1_555
C56 C55 1_555 1_555
H38 C56 1_555 1_555
C57 C56 1_555 1_555
H39 C57 1_555 1_555
C58 C55 1_555 1_555
H40 C58 1_555 1_555
C59 N1 1_555 1_555
H41 C59 1_555 1_555
C60 N3 1_555 1_555
H42 C60 1_555 1_555
C61 C60 1_555 1_555
H43 C61 1_555 1_555
C62 C61 1_555 1_555
C63 C62 1_555 1_555
H44 C63 1_555 1_555
C64 N3 1_555 1_555
H45 C64 1_555 1_555
C65 C62 1_555 1_555
C66 C65 1_555 1_555
H46 C66 1_555 1_555
C67 C66 1_555 1_555
H47 C67 1_555 1_555
C68 C65 1_555 1_555
H48 C68 1_555 1_555
C69 N4 1_555 1_555
H49 C69 1_555 1_555
O17 H50 1_555 1_555
O18 H52 1_555 1_555
H53 O18 1_555 1_555
O19 H54 1_555 1_555
H55 O19 1_555 1_555
Cd1D O16 1_555 1_555
Cd1G N3G 1_555 1_555
Cd1C N2C 1_555 1_555
Cd2G N4 1_555 1_555
Cd2F O6 1_555 1_555
Cd2B O11B 1_555 1_555
Cd2F_2 O1F 1_555 1_555
Cd2D O6B 1_555 1_555
Cd3D O5B 1_555 1_555
Cd3F O5 1_555 1_555
Cd3C N1 1_555 1_555
Cd3B O7B 1_555 1_555
Cd3B_2 O10B 1_555 1_555
O1F C1F 1_555 1_555
O1G Cd2G 1_555 1_555
O2F Cd2F_2 1_555 1_555
O2G Cd2G 1_555 1_555
O3F H1F 1_555 1_555
O4F H2F 1_555 1_555
O5F Cd3 1_555 1_555
O6F Cd2 1_555 1_555
O6A Cd2G 1_555 1_555
O6B Cd3D 1_555 1_555
O7B C23B 1_555 1_555
O7D Cd3D 1_555 1_555
O8B Cd3B 1_555 1_555
O8D Cd3D 1_555 1_555
O9B H3B 1_555 1_555
O10B C34B 1_555 1_555
O10D Cd3D 1_555 1_555
O11B C34B 1_555 1_555
O11G Cd2G 1_555 1_555
O12B H4B 1_555 1_555
O13D Cd1D 1_555 1_555
O14D Cd1D 1_555 1_555
O14G Cd2G 1_555 1_555
O15D Cd1D 1_555 1_555
O16D Cd1 1_555 1_555
N1C Cd3 1_555 1_555
N1G Cd3D 1_555 1_555
N2C C50C 1_555 1_555
N2D Cd1D 1_555 1_555
N3G C60G 1_555 1_555
N3D Cd1D 1_555 1_555
N4G Cd2 1_555 1_555
C1F O2F 1_555 1_555
C2F C1F 1_555 1_555
C3F C2F 1_555 1_555
H5F C3F 1_555 1_555
C4F C3F 1_555 1_555
C5F C4F 1_555 1_555
H6F C5F 1_555 1_555
C6F C5F 1_555 1_555
H7F C6F 1_555 1_555
C7F C6F 1_555 1_555
H8F C7F 1_555 1_555
C8F C7F 1_555 1_555
H9F C8F 1_555 1_555
C9F C4F 1_555 1_555
C10F C9F 1_555 1_555
C11F O3F 1_555 1_555
C12F C10F 1_555 1_555
C13F C12F 1_555 1_555
C14F C13F 1_555 1_555
H10F C14F 1_555 1_555
C15F C14F 1_555 1_555
H11F C15F 1_555 1_555
C16F C15F 1_555 1_555
H12F C16F 1_555 1_555
C17F C16F 1_555 1_555
H13F C17F 1_555 1_555
C18F C13F 1_555 1_555
C19F C18F 1_555 1_555
H14F C19F 1_555 1_555
C20F C19F 1_555 1_555
C21F O4F 1_555 1_555
C22F O5F 1_555 1_555
C23B O8B 1_555 1_555
C24B C23B 1_555 1_555
C25B C24B 1_555 1_555
H15B C25B 1_555 1_555
C26B C25B 1_555 1_555
C27B C26B 1_555 1_555
H16B C27B 1_555 1_555
C28B C27B 1_555 1_555
H17B C28B 1_555 1_555
C29B C28B 1_555 1_555
H18B C29B 1_555 1_555
C30B C29B 1_555 1_555
H19B C30B 1_555 1_555
C31B C26B 1_555 1_555
C32B C32 1_555 1_555
C33B O9B 1_555 1_555
C34B C35B 1_555 1_555
C35B C36B 1_555 1_555
C36B H20B 1_555 1_555
C37B C36B 1_555 1_555
C38B C37B 1_555 1_555
H21B C38B 1_555 1_555
C39B C38B 1_555 1_555
H22B C39B 1_555 1_555
C40B C39B 1_555 1_555
H23B C40B 1_555 1_555
C41B C40B 1_555 1_555
H24B C41B 1_555 1_555
C42B C37B 1_555 1_555
C43B C43 1_555 1_555
C44B O12B 1_555 1_555
C45D H25D 1_555 1_555
H26D C45D 1_555 1_555
H27D C45D 1_555 1_555
C47D O13D 1_555 1_555
C48D H31D 1_555 1_555
H32D C48D 1_555 1_555
H33D C48D 1_555 1_555
C49D O15D 1_555 1_555
C50C H34C 1_555 1_555
C51C C50C 1_555 1_555
H35C C51C 1_555 1_555
C52C C51C 1_555 1_555
C53C C52C 1_555 1_555
H36C C53C 1_555 1_555
C54C N2C 1_555 1_555
H37C C54C 1_555 1_555
C55C C52C 1_555 1_555
C56C C55C 1_555 1_555
H38C C56C 1_555 1_555
C57C N1C 1_555 1_555
H39C C57C 1_555 1_555
C58C C55C 1_555 1_555
H40C C58C 1_555 1_555
C59C N1C 1_555 1_555
H41C C59C 1_555 1_555
C60G H42G 1_555 1_555
C61G C60G 1_555 1_555
H43G C61G 1_555 1_555
C62G C61G 1_555 1_555
C63G C62G 1_555 1_555
H44G C63G 1_555 1_555
C64G N3G 1_555 1_555
H45G C64G 1_555 1_555
C65G C62G 1_555 1_555
C66G C65G 1_555 1_555
H46G C66G 1_555 1_555
C67G N4G 1_555 1_555
H47G C67G 1_555 1_555
C68G C65G 1_555 1_555
H48G C68G 1_555 1_555
C69G N4G 1_555 1_555
H49G C69G 1_555 1_555
H50B O17 1_555 1_555
Cd2 O14 1_555 1_555
Cd3 O15 1_555 1_555
Cd3 O6F 1_555 1_555
O6 Cd3F 1_555 1_555
O11 C34 1_555 1_555
O16 C49 1_555 1_555
C2 C11 1_555 1_555
C8 C9 1_555 1_555
C10 C11 1_555 1_555
C12 C21 1_555 1_555
C17 C18 1_555 1_555
C20 C21 1_555 1_555
C24 C33 1_555 1_555
C30 C31 1_555 1_555
C32 C33 1_555 1_555
C35 C44 1_555 1_555
C41 C42 1_555 1_555
C43 C44 1_555 1_555
C45 C47 1_555 1_555
C48 C49 1_555 1_555
C53 C54 1_555 1_555
C58 C59 1_555 1_555
C63 C64 1_555 1_555
C68 C69 1_555 1_555
Cd1D O16D 1_555 1_555
Cd2D O14D 1_555 1_555
Cd3D O15D 1_555 1_555
O6F C22F 1_555 1_555
O14D C47D 1_555 1_555
O16D C49D 1_555 1_555
C2F C11F 1_555 1_555
C8F C9F 1_555 1_555
C10F C11F 1_555 1_555
C12F C21F 1_555 1_555
C17F C18F 1_555 1_555
C20F C21F 1_555 1_555
C20F C22F 1_555 1_555
C24B C33B 1_555 1_555
C30B C31B 1_555 1_555
C31B C32B 1_555 1_555
C32B C33B 1_555 1_555
C35B C44B 1_555 1_555
C41B C42B 1_555 1_555
C42B C43B 1_555 1_555
C43B C44B 1_555 1_555
C45D C47D 1_555 1_555
C48D C49D 1_555 1_555
C53C C54C 1_555 1_555
C56C C57C 1_555 1_555
C58C C59C 1_555 1_555
C63G C64G 1_555 1_555
C66G C67G 1_555 1_555
C68G C69G 1_555 1_555

#END
