
#######################################################################
#
#                 Cambridge Crystallographic Data Centre
#                                CCDC 
#
#######################################################################
#
# If this CIF has been generated from an entry in the Cambridge 
# Structural Database, then it will include bibliographic, chemical, 
# crystal, experimental, refinement or atomic coordinate data resulting 
# from the CCDC's data processing and validation procedures.
#
#######################################################################

data_ONALEV
_chemical_formula_moiety         '(C2 H12 N1 O25 P6 Zn6 1-)n'
_symmetry_cell_setting           monoclinic
_symmetry_space_group_name_H-M   'P 21/c'
_symmetry_Int_Tables_number      14
_space_group_name_Hall           '-P 2ybc'
loop_
_symmetry_equiv_pos_site_id
_symmetry_equiv_pos_as_xyz
1 x,y,z
2 -x,1/2+y,1/2-z
3 -x,-y,-z
4 x,1/2-y,1/2+z
_cell_length_a                   12.641(3)
_cell_length_b                   5.1953(10)
_cell_length_c                   21.150(4)
_cell_angle_alpha                90
_cell_angle_beta                 95.11(3)
_cell_angle_gamma                90
_cell_volume                     1383.48
loop_
_atom_site_label
_atom_site_type_symbol
_atom_site_fract_x
_atom_site_fract_y
_atom_site_fract_z
Zn1 Zn 0.49393(3) 0.21496(6) 0.429696(16)
Zn2 Zn 0.50116(3) 0.73341(6) 0.327199(15)
Zn3 Zn 0.10038(3) -0.22208(6) 0.445321(16)
P1 P 0.35972(6) -0.26684(13) 0.44730(3)
P2 P 0.62654(6) 0.24253(13) 0.31363(3)
P3 P 0.02793(6) -0.29860(14) 0.58311(4)
O1 O 0.53766(17) 0.3767(4) 0.34953(9)
O2 O 0.60123(19) 0.2961(4) 0.24281(10)
O3 O 0.24598(16) -0.2196(4) 0.42017(10)
O4 O 0.43347(16) -0.1291(4) 0.40186(9)
O5 O 0.10565(18) -0.3307(5) 0.53274(10)
O6 O 0.73267(17) 0.3619(4) 0.33405(11)
O7 O 0.38240(17) -0.1408(4) 0.51260(10)
O8 O -0.06845(18) -0.1389(4) 0.56108(12)
O9 O 0.62322(17) -0.0439(4) 0.32947(10)
O10 O 0.38435(18) -0.5531(4) 0.45057(11)
O11 O 0.08957(19) -0.1495(4) 0.63986(11)
O12 O -0.00531(19) -0.5602(4) 0.60716(10)
H1 H 0.156(4) -0.227(9) 0.653(2)
Zn1B Zn -0.49393(3) -1.21496(6) 0.570304(16)
Zn1_2 Zn -0.50607(3) -0.78504(6) 0.429696(16)
Zn1_3 Zn 0.49393(3) -0.78504(6) 0.429696(16)
Zn1B_2 Zn -0.49393(3) -0.21496(6) 0.570304(16)
Zn1B_3 Zn 0.50607(3) -0.21496(6) 0.570304(16)
Zn2B Zn -0.50116(3) -1.73341(6) 0.672801(15)
Zn2_2 Zn 0.50116(3) -0.26659(6) 0.327199(15)
Zn2A Zn 0.49884(3) 0.23341(6) 0.172801(15)
Zn2B_2 Zn -0.50116(3) -0.73341(6) 0.672801(15)
Zn2C Zn -0.49884(3) -1.23341(6) 0.827199(15)
Zn3B Zn -0.10038(3) -0.77792(6) 0.554679(16)
Zn3_2 Zn 0.10038(3) -1.22208(6) 0.445321(16)
Zn3B_2 Zn -0.10038(3) 0.22208(6) 0.554679(16)
P1B P -0.35972(6) -0.73316(13) 0.55270(3)
P2B P -0.62654(6) -1.24253(13) 0.68637(3)
P3B P -0.02793(6) -0.70140(14) 0.41689(4)
O1B O -0.53766(17) -1.3767(4) 0.65047(9)
O2B O -0.60123(19) -1.2961(4) 0.75719(10)
O2A O 0.39877(19) 0.7961(4) 0.25719(10)
O2C O -0.39877(19) -1.7961(4) 0.74281(10)
O3B O -0.24598(16) -0.7804(4) 0.57983(10)
O4B O -0.43347(16) -0.8709(4) 0.59814(9)
O4_2 O 0.43347(16) 0.8709(4) 0.40186(9)
O4B_2 O -0.43347(16) -1.8709(4) 0.59814(9)
O5B O -0.10565(18) -0.6693(5) 0.46726(10)
O6B O -0.73267(17) -1.3619(4) 0.66595(11)
O7B O -0.38240(17) -0.8592(4) 0.48740(10)
O7_2 O -0.61760(17) -1.1408(4) 0.51260(10)
O7B_2 O 0.61760(17) 0.1408(4) 0.48740(10)
O8B O 0.06845(18) -0.8611(4) 0.43892(12)
O8_2 O -0.06845(18) -1.1389(4) 0.56108(12)
O8B_2 O 0.06845(18) 0.1389(4) 0.43892(12)
O9B O -0.62322(17) -0.9561(4) 0.67053(10)
O9_2 O 0.62322(17) 0.9561(4) 0.32947(10)
O9B_2 O -0.62322(17) -1.9561(4) 0.67053(10)
O10B O -0.38435(18) -0.4469(4) 0.54943(11)
O10_2 O 0.38435(18) 0.4469(4) 0.45057(11)
O10B_2 O -0.38435(18) -1.4469(4) 0.54943(11)
O11B O -0.08957(19) -0.8505(4) 0.36014(11)
O12B O 0.00531(19) -0.4398(4) 0.39284(10)
H1B H -0.156(4) -0.773(9) 0.347(2)
O13 O 0.2331(3) 0.2303(6) 0.56262(15)
N1 N 0.2140(2) 0.0372(6) 0.30069(15)
C1 C 0.2385(5) 0.3119(9) 0.3039(2)
H2 H 0.3108 0.3354 0.3210
H3 H 0.1918 0.3961 0.3307
H4 H 0.2291 0.3846 0.2621
C2 C 0.1046(4) -0.0208(10) 0.2754(2)
H5 H 0.0941 -0.2038 0.2748
H6 H 0.0925 0.0455 0.2330
H7 H 0.0558 0.0579 0.3018
H8 H 0.257(4) -0.042(9) 0.274(2)
H9 H 0.228(4) -0.041(11) 0.343(3)
loop_
_geom_bond_atom_site_label_1
_geom_bond_atom_site_label_2
_geom_bond_site_symmetry_1
_geom_bond_site_symmetry_2
Zn1 O1 1_555 1_555
Zn2 O1 1_555 1_555
Zn3 O3 1_555 1_555
P1 O3 1_555 1_555
P2 O1 1_555 1_555
P3 O5 1_555 1_555
O2 P2 1_555 1_555
O4 Zn1 1_555 1_555
O5 Zn3 1_555 1_555
O6 P2 1_555 1_555
O7 P1 1_555 1_555
O8 P3 1_555 1_555
O9 P2 1_555 1_555
O10 P1 1_555 1_555
O11 P3 1_555 1_555
O12 P3 1_555 1_555
H1 O11 1_555 1_555
N1 C1 1_555 1_555
C1 H2 1_555 1_555
H3 C1 1_555 1_555
H4 C1 1_555 1_555
C2 N1 1_555 1_555
H5 C2 1_555 1_555
H6 C2 1_555 1_555
H7 C2 1_555 1_555
H8 N1 1_555 1_555
H9 N1 1_555 1_555
Zn1B O1B 1_555 1_555
Zn1_2 O7B 1_555 1_555
Zn1_3 O10 1_555 1_555
Zn1B_2 O10B 1_555 1_555
Zn1B_3 O7 1_555 1_555
Zn2B O1B 1_555 1_555
Zn2_2 O4 1_555 1_555
Zn2A O2 1_555 1_555
Zn2B_2 O4B 1_555 1_555
Zn2C O2B 1_555 1_555
Zn3B O12 1_555 1_555
Zn3_2 O8B 1_555 1_555
Zn3B_2 O8 1_555 1_555
P1B O3B 1_555 1_555
P2B O1B 1_555 1_555
P3B O5B 1_555 1_555
O2B P2B 1_555 1_555
O2A Zn2 1_555 1_555
O2C Zn2B 1_555 1_555
O3B Zn3B 1_555 1_555
O4B Zn1B 1_555 1_555
O4_2 Zn2 1_555 1_555
O4B_2 Zn2B 1_555 1_555
O5B Zn3B 1_555 1_555
O6B P2B 1_555 1_555
O7B P1B 1_555 1_555
O7_2 Zn1B 1_555 1_555
O7B_2 Zn1 1_555 1_555
O8B P3B 1_555 1_555
O8_2 Zn3B 1_555 1_555
O8B_2 Zn3 1_555 1_555
O9B Zn2B_2 1_555 1_555
O9_2 Zn2 1_555 1_555
O9B_2 Zn2B 1_555 1_555
O10B P1B 1_555 1_555
O10_2 Zn1 1_555 1_555
O10B_2 Zn1B 1_555 1_555
O11B P3B 1_555 1_555
O12B Zn3 1_555 1_555
H1B O11B 1_555 1_555
P1 O4 1_555 1_555
O9 Zn2_2 1_555 1_555
P1B O4B 1_555 1_555
P2B O9B 1_555 1_555
P3B O12B 1_555 1_555

#END
