
#######################################################################
#
#                 Cambridge Crystallographic Data Centre
#                                CCDC 
#
#######################################################################
#
# If this CIF has been generated from an entry in the Cambridge 
# Structural Database, then it will include bibliographic, chemical, 
# crystal, experimental, refinement or atomic coordinate data resulting 
# from the CCDC's data processing and validation procedures.
#
#######################################################################

data_DUKNII
_chemical_formula_moiety         '(C53 H44 N4 Ni2 O16)n'
_symmetry_cell_setting           monoclinic
_symmetry_space_group_name_H-M   'C 2/c'
_symmetry_Int_Tables_number      15
_space_group_name_Hall           '-C 2yc'
loop_
_symmetry_equiv_pos_site_id
_symmetry_equiv_pos_as_xyz
1 x,y,z
2 -x,y,1/2-z
3 1/2+x,1/2+y,z
4 1/2-x,1/2+y,1/2-z
5 -x,-y,-z
6 x,-y,1/2+z
7 1/2-x,1/2-y,-z
8 1/2+x,1/2-y,1/2+z
_cell_length_a                   46.108(8)
_cell_length_b                   10.6758(19)
_cell_length_c                   23.633(4)
_cell_angle_alpha                90
_cell_angle_beta                 95.274(4)
_cell_angle_gamma                90
_cell_volume                     11583.9
loop_
_atom_site_label
_atom_site_type_symbol
_atom_site_fract_x
_atom_site_fract_y
_atom_site_fract_z
_atom_site_U_iso_or_equiv
_atom_site_thermal_displace_type
C1 C 0.18885(9) 1.1003(3) 0.04983(17) 0.0619 Uani
C2 C 0.17083(8) 1.2031(3) 0.06756(16) 0.0539 Uani
C3 C 0.15268(8) 1.1884(3) 0.10967(15) 0.0550 Uani
H1 H 0.1518 1.1107 0.1272 0.0660 Uiso
C4 C 0.13534(8) 1.2867(3) 0.12736(16) 0.0592 Uani
H2 H 0.1227 1.2749 0.1554 0.0710 Uiso
C5 C 0.13783(9) 1.3996(4) 0.10173(16) 0.0573 Uani
C6 C 0.15587(9) 1.4162(4) 0.06074(17) 0.0776 Uani
H3 H 0.1577 1.4952 0.0449 0.0940 Uiso
C7 C 0.17157(9) 1.3175(4) 0.04211(17) 0.0752 Uani
H4 H 0.1828 1.3288 0.0118 0.0900 Uiso
C8 C 0.10316(8) 1.5631(3) 0.08621(15) 0.0438 Uani
C9 C 0.08891(8) 1.5067(3) 0.04055(15) 0.0517 Uani
H5 H 0.0938 1.4255 0.0307 0.0620 Uiso
C10 C 0.06724(8) 1.5701(3) 0.00904(15) 0.0534 Uani
H6 H 0.0572 1.5312 -0.0221 0.0640 Uiso
C11 C 0.06007(7) 1.6905(3) 0.02290(14) 0.0375 Uani
C12 C 0.07514(7) 1.7481(3) 0.06745(15) 0.0453 Uani
H7 H 0.0709 1.8307 0.0762 0.0550 Uiso
C13 C 0.09687(8) 1.6838(3) 0.10000(16) 0.0511 Uani
H8 H 0.1071 1.7225 0.1310 0.0610 Uiso
C14 C 0.03459(8) 1.7504(3) -0.00950(14) 0.0387 Uani
C15 C 0.28812(8) 0.7131(3) 0.15057(15) 0.0434 Uani
C16 C 0.30343(8) 0.7770(4) 0.19379(16) 0.0598 Uani
H9 H 0.2971 0.8561 0.2037 0.0720 Uiso
C17 C 0.32853(8) 0.7263(4) 0.22358(17) 0.0683 Uani
H10 H 0.3386 0.7708 0.2530 0.0820 Uiso
C18 C 0.33811(8) 0.6082(4) 0.20831(16) 0.0536 Uani
C19 C 0.32362(9) 0.5453(4) 0.16506(17) 0.0692 Uani
H11 H 0.3302 0.4676 0.1540 0.0830 Uiso
C20 C 0.29854(9) 0.5983(4) 0.13697(17) 0.0638 Uani
H12 H 0.2885 0.5533 0.1077 0.0760 Uiso
C21 C 0.38735(8) 0.5504(3) 0.21460(16) 0.0469 Uani
C22 C 0.39313(8) 0.6136(3) 0.16710(15) 0.0520 Uani
H13 H 0.3785 0.6609 0.1477 0.0620 Uiso
C23 C 0.42019(8) 0.6090(3) 0.14714(15) 0.0512 Uani
H14 H 0.4236 0.6549 0.1150 0.0610 Uiso
C24 C 0.44241(8) 0.5375(3) 0.17389(15) 0.0424 Uani
C25 C 0.43600(8) 0.4697(3) 0.22118(15) 0.0503 Uani
H15 H 0.4502 0.4178 0.2391 0.0610 Uiso
C26 C 0.40873(8) 0.4770(3) 0.24275(16) 0.0563 Uani
H16 H 0.4051 0.4332 0.2754 0.0680 Uiso
C27 C 0.47215(8) 0.5366(4) 0.15191(15) 0.0458 Uani
C28 C 0.17751(8) 0.8332(3) 0.17179(14) 0.0451 Uani
H17 H 0.1763 0.9192 0.1657 0.0540 Uiso
C29 C 0.16138(8) 0.7837(3) 0.21267(15) 0.0477 Uani
H18 H 0.1495 0.8345 0.2327 0.0570 Uiso
C30 C 0.16329(8) 0.6559(3) 0.22305(15) 0.0434 Uani
C31 C 0.18150(8) 0.5880(3) 0.19142(15) 0.0560 Uani
H19 H 0.1834 0.5021 0.1969 0.0670 Uiso
C32 C 0.19666(8) 0.6464(3) 0.15207(15) 0.0526 Uani
H20 H 0.2092 0.5982 0.1323 0.0630 Uiso
C33 C 0.19328(8) 0.3300(3) 0.48396(13) 0.0445 Uani
H21 H 0.2128 0.3535 0.4882 0.0530 Uiso
C34 C 0.17517(7) 0.3962(3) 0.44475(14) 0.0431 Uani
H22 H 0.1822 0.4617 0.4240 0.0520 Uiso
C35 C 0.14653(7) 0.3618(3) 0.43760(14) 0.0347 Uani
C36 C 0.13742(8) 0.2662(3) 0.47008(14) 0.0460 Uani
H23 H 0.1181 0.2405 0.4664 0.0550 Uiso
C37 C 0.15721(8) 0.2096(3) 0.50779(15) 0.0480 Uani
H24 H 0.1505 0.1459 0.5300 0.0580 Uiso
C38 C 0.05023(8) 0.2276(3) 0.17153(15) 0.0518 Uani
H25 H 0.0504 0.1411 0.1760 0.0620 Uiso
C39 C 0.06683(8) 0.2958(3) 0.21100(15) 0.0542 Uani
H26 H 0.0781 0.2559 0.2404 0.0650 Uiso
C40 C 0.06683(8) 0.4219(3) 0.20707(15) 0.0416 Uani
C41 C 0.04952(8) 0.4741(3) 0.16191(15) 0.0549 Uani
H27 H 0.0483 0.5606 0.1577 0.0660 Uiso
C42 C 0.03413(9) 0.3964(3) 0.12337(16) 0.0539 Uani
H28 H 0.0233 0.4331 0.0926 0.0650 Uiso
C43 C 0.06451(8) 0.8428(4) 0.51117(15) 0.0553 Uani
H29 H 0.0707 0.8920 0.5424 0.0660 Uiso
C44 C 0.08421(8) 0.8147(3) 0.47370(15) 0.0604 Uani
H30 H 0.1034 0.8422 0.4798 0.0720 Uiso
C45 C 0.07516(8) 0.7452(3) 0.42709(16) 0.0476 Uani
C46 C 0.04661(8) 0.7072(4) 0.41849(16) 0.0598 Uani
H31 H 0.0397 0.6607 0.3868 0.0720 Uiso
C47 C 0.02898(8) 0.7417(4) 0.45932(16) 0.0606 Uani
H32 H 0.0095 0.7185 0.4537 0.0730 Uiso
C48 C 0.08675(7) 0.6140(3) 0.35034(14) 0.0474 Uani
H33 H 0.0730 0.6498 0.3213 0.0570 Uiso
H34 H 0.0771 0.5469 0.3689 0.0570 Uiso
C49 C 0.10101(8) 0.4533(3) 0.28668(14) 0.0454 Uani
H35 H 0.1168 0.4086 0.2713 0.0540 Uiso
H36 H 0.0908 0.3954 0.3094 0.0540 Uiso
C50 C 0.13629(7) 0.5167(3) 0.36709(13) 0.0410 Uani
H37 H 0.1530 0.4891 0.3484 0.0490 Uiso
H38 H 0.1425 0.5856 0.3922 0.0490 Uiso
C51 C 0.12692(7) 0.6576(3) 0.28808(14) 0.0432 Uani
H39 H 0.1125 0.6959 0.2610 0.0520 Uiso
H40 H 0.1360 0.7227 0.3123 0.0520 Uiso
C52 C 0.26162(8) 0.7661(4) 0.12141(15) 0.0474 Uani
C53 C 0.11294(8) 0.5619(3) 0.32303(15) 0.0365 Uani
N1 N 0.19466(6) 0.7678(3) 0.14023(11) 0.0378 Uani
N2 N 0.03389(6) 0.2736(3) 0.12743(11) 0.0356 Uani
N3 N 0.18558(6) 0.2375(3) 0.51574(12) 0.0403 Uani
N4 N 0.03723(6) 0.8053(3) 0.50616(12) 0.0447 Uani
Ni1 Ni 0.214948(10) 0.84612(4) 0.07397(2) 0.0388 Uani
Ni2 Ni -0.008503(10) 1.83131(4) -0.06997(2) 0.0407 Uani
O1 O 0.23695(5) 0.9277(2) 0.01092(9) 0.0455 Uani
H41 H 0.2277 1.0055 -0.0004 0.0680 Uiso
O2 O 0.19148(5) 1.0049(2) 0.08052(10) 0.0489 Uani
O3 O 0.20131(8) 1.1124(3) 0.00568(13) 0.1249 Uani
O4 O 0.25277(5) 0.8738(2) 0.13389(10) 0.0533 Uani
O5 O 0.24714(5) 0.7035(2) 0.08168(9) 0.0414 Uani
O6 O 0.47798(5) 0.6342(2) 0.12478(10) 0.0514 Uani
O7 O 0.48837(6) 0.4455(2) 0.16262(11) 0.0675 Uani
O8 O 0.02870(5) 1.8650(2) -0.00315(9) 0.0465 Uani
O9 O 0.01844(5) 1.6837(2) -0.04378(9) 0.0442 Uani
O10 O -0.02760(5) 1.99944(19) -0.09102(9) 0.0436 Uani
H42 H -0.0211 2.0283 -0.1262 0.0650 Uiso
H43 H -0.0222 2.0592 -0.0616 0.0650 Uiso
O11 O 0.36198(5) 0.5589(3) 0.24019(11) 0.0660 Uani
O12 O 0.12309(6) 1.5007(2) 0.12378(10) 0.0700 Uani
O13 O 0.09626(5) 0.7094(2) 0.39164(10) 0.0532 Uani
O14 O 0.08155(5) 0.5022(2) 0.24166(10) 0.0483 Uani
O15 O 0.12617(5) 0.4154(2) 0.40013(10) 0.0440 Uani
O16 O 0.14829(6) 0.5931(2) 0.25915(10) 0.0542 Uani
H44 H 0.2364 0.8723 -0.0211 0.0680 Uiso
N2D N -0.03389(6) 1.7264(3) -0.12743(11) 0.0356 Uani
N3E N 0.18558(6) 0.7625(3) 0.01574(12) 0.0403 Uani
N4A N -0.03723(6) 1.8053(3) -0.00616(12) 0.0447 Uani
Ni1E Ni 0.214948(10) 0.15388(4) 0.57397(2) 0.0388 Uani
Ni2A Ni 0.008503(10) 0.83131(4) 0.56997(2) 0.0407 Uani
Ni2D Ni 0.008503(10) 0.16869(4) 0.06997(2) 0.0407 Uani
Ni2F Ni 0.508503(10) 0.66869(4) 0.06997(2) 0.0407 Uani
O6F O 0.02202(5) 1.8658(2) -0.12478(10) 0.0514 Uani
loop_
_atom_site_aniso_label
_atom_site_aniso_U_11
_atom_site_aniso_U_22
_atom_site_aniso_U_33
_atom_site_aniso_U_23
_atom_site_aniso_U_13
_atom_site_aniso_U_12
C1 0.0717(14) 0.0442(10) 0.0747(18) 0.0157(8) 0.0330(12) 0.0207(12)
C2 0.0504(12) 0.0505(10) 0.0633(14) 0.0127(12) 0.0194(9) 0.0196(10)
C3 0.0557(14) 0.0530(8) 0.0587(17) 0.0124(13) 0.0182(11) 0.0169(10)
C4 0.0475(18) 0.0701(7) 0.062(2) 0.0086(10) 0.0152(14) 0.0242(11)
C5 0.0532(15) 0.0629(8) 0.055(2) 0.0047(9) 0.0006(17) 0.0330(9)
C6 0.089(4) 0.060(3) 0.089(4) 0.024(3) 0.036(3) 0.030(3)
C7 0.084(3) 0.065(3) 0.086(3) 0.029(3) 0.058(3) 0.031(3)
C8 0.0288(15) 0.0498(9) 0.053(2) -0.0043(12) 0.0044(13) 0.0160(10)
C9 0.052(3) 0.038(2) 0.064(3) -0.016(2) -0.001(2) 0.020(2)
C10 0.060(3) 0.051(3) 0.048(3) -0.013(2) -0.002(2) 0.013(2)
C11 0.035(2) 0.038(2) 0.039(2) -0.0019(19) 0.001(2) 0.012(2)
C12 0.039(2) 0.044(2) 0.052(3) -0.013(2) -0.001(2) 0.016(2)
C13 0.039(2) 0.0492(9) 0.063(3) -0.0126(14) -0.007(2) 0.0128(12)
C14 0.039(2) 0.0411(9) 0.038(2) -0.0068(18) 0.015(2) 0.0012(17)
C15 0.035(2) 0.053(2) 0.041(2) 0.013(2) -0.003(2) -0.006(2)
C16 0.055(3) 0.064(3) 0.059(3) -0.005(2) -0.003(3) 0.010(3)
C17 0.049(3) 0.094(3) 0.058(3) 0.000(3) -0.016(3) -0.017(3)
C18 0.033(2) 0.069(2) 0.0597(19) 0.0154(15) 0.0091(17) -0.005(2)
C19 0.067(3) 0.051(3) 0.087(3) -0.007(2) -0.007(2) 0.017(2)
C20 0.056(3) 0.068(3) 0.062(3) -0.009(3) -0.023(3) 0.009(3)
C21 0.030(2) 0.059(3) 0.051(3) 0.014(2) 0.000(2) -0.001(2)
C22 0.031(2) 0.066(3) 0.057(3) 0.015(2) -0.006(2) 0.005(2)
C23 0.052(3) 0.059(3) 0.042(3) 0.008(2) 0.001(2) 0.001(2)
C24 0.039(2) 0.049(2) 0.039(2) 0.000(2) 0.002(2) -0.002(2)
C25 0.043(3) 0.045(2) 0.062(3) 0.016(2) 0.000(2) 0.003(2)
C26 0.041(3) 0.065(3) 0.063(3) 0.026(2) 0.005(2) -0.008(2)
C27 0.038(3) 0.055(3) 0.045(3) -0.003(2) 0.007(2) 0.004(2)
C28 0.060(3) 0.037(2) 0.040(2) 0.002(2) 0.014(2) 0.000(2)
C29 0.052(3) 0.049(3) 0.045(3) 0.001(2) 0.020(2) 0.006(2)
C30 0.040(2) 0.046(2) 0.046(2) -0.002(2) 0.013(2) 0.005(2)
C31 0.069(3) 0.038(2) 0.065(3) 0.009(2) 0.027(3) 0.016(2)
C32 0.055(3) 0.0408(9) 0.066(3) -0.0005(18) 0.027(2) 0.011(2)
C33 0.0342(18) 0.0613(14) 0.0398(17) 0.0100(11) 0.0126(11) -0.0038(13)
C34 0.038(2) 0.0531(15) 0.0388(17) 0.0055(11) 0.0062(16) -0.0072(18)
C35 0.028(2) 0.045(2) 0.032(2) 0.0044(19) 0.0071(18) -0.005(2)
C36 0.030(2) 0.064(3) 0.044(3) 0.005(2) 0.004(2) -0.014(2)
C37 0.040(3) 0.052(3) 0.051(3) 0.009(2) -0.001(2) -0.009(2)
C38 0.054(3) 0.047(2) 0.051(3) 0.002(2) -0.013(2) -0.004(2)
C39 0.061(3) 0.058(3) 0.040(3) 0.005(2) -0.014(2) 0.003(2)
C40 0.045(3) 0.038(2) 0.041(2) -0.005(2) 0.000(2) 0.006(2)
C41 0.065(3) 0.043(2) 0.054(3) 0.010(2) -0.009(2) -0.008(2)
C42 0.072(3) 0.041(2) 0.047(3) 0.008(2) -0.004(2) -0.002(2)
C43 0.045(3) 0.073(3) 0.050(3) -0.010(2) 0.015(2) -0.009(3)
C44 0.049(3) 0.071(3) 0.064(3) -0.031(2) 0.020(2) -0.017(3)
C45 0.047(3) 0.046(3) 0.051(3) 0.006(2) 0.011(2) 0.003(2)
C46 0.051(3) 0.088(3) 0.042(3) -0.020(2) 0.013(2) 0.011(3)
C47 0.034(3) 0.087(3) 0.061(3) -0.007(3) 0.005(2) -0.002(3)
C48 0.0347(18) 0.065(3) 0.043(2) -0.003(2) 0.0058(16) -0.0005(19)
C49 0.043(3) 0.050(3) 0.044(2) 0.001(2) 0.009(2) -0.002(2)
C50 0.029(2) 0.057(3) 0.037(2) 0.000(2) 0.003(2) -0.003(2)
C51 0.049(3) 0.046(2) 0.036(2) 0.004(2) 0.011(2) 0.003(2)
C52 0.038(3) 0.066(3) 0.039(2) 0.011(2) 0.008(2) -0.001(2)
C53 0.0304(19) 0.042(2) 0.037(2) -0.004(2) 0.0020(16) -0.0043(19)
N1 0.0376(19) 0.0416(10) 0.0350(19) 0.0009(15) 0.0083(16) 0.0021(17)
N2 0.0329(19) 0.0434(19) 0.0296(18) -0.0048(16) -0.0026(16) -0.0004(17)
N3 0.0312(18) 0.0556(15) 0.0336(16) 0.0045(10) 0.0006(14) -0.0136(15)
N4 0.045(2) 0.052(2) 0.037(2) -0.0026(16) 0.0040(18) -0.0032(18)
Ni1 0.0328(3) 0.0436(3) 0.0406(3) 0.0004(3) 0.0069(2) 0.0068(3)
Ni2 0.0371(3) 0.0445(3) 0.0404(3) -0.0014(3) 0.0023(3) 0.0038(3)
O1 0.0419(16) 0.0519(16) 0.0443(16) 0.0024(13) 0.0125(14) 0.0073(14)
O2 0.0472(16) 0.0406(10) 0.0606(16) 0.0080(10) 0.0137(15) 0.0083(11)
O3 0.173(3) 0.094(2) 0.124(3) 0.054(2) 0.102(2) 0.068(2)
O4 0.0563(18) 0.0539(18) 0.0488(17) -0.0051(14) -0.0004(15) 0.0095(15)
O5 0.0347(15) 0.0474(16) 0.0423(16) -0.0013(13) 0.0047(13) 0.0033(13)
O6 0.0437(16) 0.0518(17) 0.0617(18) 0.0100(15) 0.0209(14) 0.0035(15)
O7 0.064(2) 0.0598(19) 0.080(2) 0.0101(17) 0.0134(18) 0.0186(17)
O8 0.0484(17) 0.0435(10) 0.0472(16) -0.0035(13) 0.0021(14) 0.0128(13)
O9 0.0372(15) 0.0459(16) 0.0480(16) -0.0030(13) -0.0046(13) 0.0025(14)
O10 0.0412(16) 0.0422(15) 0.0473(16) -0.0020(13) 0.0041(14) 0.0066(14)
O11 0.0258(16) 0.107(2) 0.0656(19) 0.0436(17) 0.0057(15) 0.0095(17)
O12 0.0752(17) 0.0778(9) 0.0546(17) -0.0071(11) -0.0068(12) 0.0456(10)
O13 0.0544(18) 0.0569(17) 0.0500(17) -0.0139(14) 0.0137(15) -0.0117(15)
O14 0.0529(18) 0.0476(16) 0.0403(16) 0.0016(14) -0.0173(15) -0.0056(15)
O15 0.0354(16) 0.0568(17) 0.0391(16) 0.0070(14) 0.0004(13) -0.0105(14)
O16 0.0634(19) 0.0548(17) 0.0498(17) 0.0093(14) 0.0338(15) 0.0079(16)
N2D 0.0329 0.0434 0.0296 -0.0048 -0.0026 -0.0004
N3E 0.0312 0.0556 0.0336 -0.0045 0.0006 0.0136
N4A 0.045 0.052 0.037 0.0026 0.004 0.0032
Ni1E 0.0328 0.0436 0.0406 -0.0004 0.0069 -0.0068
Ni2A 0.0371 0.0445 0.0404 0.0014 0.0023 -0.0038
Ni2D 0.0371 0.0445 0.0404 -0.0014 0.0023 0.0038
Ni2F 0.0371 0.0445 0.0404 -0.0014 0.0023 0.0038
O6F 0.0437 0.0518 0.0617 0.01 0.0209 0.0035
loop_
_geom_bond_atom_site_label_1
_geom_bond_atom_site_label_2
_geom_bond_site_symmetry_1
_geom_bond_site_symmetry_2
C1 C2 1_555 1_555
C2 C3 1_555 1_555
C3 H1 1_555 1_555
C4 C3 1_555 1_555
H2 C4 1_555 1_555
C5 C4 1_555 1_555
C6 C5 1_555 1_555
H3 C6 1_555 1_555
C7 C2 1_555 1_555
H4 C7 1_555 1_555
C8 C9 1_555 1_555
C9 H5 1_555 1_555
C10 C9 1_555 1_555
H6 C10 1_555 1_555
C11 C10 1_555 1_555
C12 C11 1_555 1_555
H7 C12 1_555 1_555
C13 C8 1_555 1_555
H8 C13 1_555 1_555
C14 C11 1_555 1_555
C15 C16 1_555 1_555
C16 H9 1_555 1_555
C17 C16 1_555 1_555
H10 C17 1_555 1_555
C18 C17 1_555 1_555
C19 C18 1_555 1_555
H11 C19 1_555 1_555
C20 C15 1_555 1_555
H12 C20 1_555 1_555
C21 C22 1_555 1_555
C22 H13 1_555 1_555
C23 C22 1_555 1_555
H14 C23 1_555 1_555
C24 C23 1_555 1_555
C25 C24 1_555 1_555
H15 C25 1_555 1_555
C26 C21 1_555 1_555
H16 C26 1_555 1_555
C27 C24 1_555 1_555
C28 H17 1_555 1_555
C29 C28 1_555 1_555
H18 C29 1_555 1_555
C30 C29 1_555 1_555
C31 C30 1_555 1_555
H19 C31 1_555 1_555
C32 C31 1_555 1_555
H20 C32 1_555 1_555
C33 H21 1_555 1_555
C34 C33 1_555 1_555
H22 C34 1_555 1_555
C35 C34 1_555 1_555
C36 C35 1_555 1_555
H23 C36 1_555 1_555
C37 C36 1_555 1_555
H24 C37 1_555 1_555
C38 H25 1_555 1_555
C39 C38 1_555 1_555
H26 C39 1_555 1_555
C40 C39 1_555 1_555
C41 C40 1_555 1_555
H27 C41 1_555 1_555
C42 C41 1_555 1_555
H28 C42 1_555 1_555
C43 H29 1_555 1_555
C44 C43 1_555 1_555
H30 C44 1_555 1_555
C45 C44 1_555 1_555
C46 C45 1_555 1_555
H31 C46 1_555 1_555
C47 C46 1_555 1_555
H32 C47 1_555 1_555
C48 H33 1_555 1_555
H34 C48 1_555 1_555
C49 H35 1_555 1_555
H36 C49 1_555 1_555
C50 H37 1_555 1_555
H38 C50 1_555 1_555
C51 H39 1_555 1_555
H40 C51 1_555 1_555
C52 C15 1_555 1_555
C53 C48 1_555 1_555
N1 C28 1_555 1_555
N2 C38 1_555 1_555
N3 C33 1_555 1_555
N4 C43 1_555 1_555
Ni1 N1 1_555 1_555
Ni2 O8 1_555 1_555
O1 Ni1 1_555 1_555
H41 O1 1_555 1_555
O2 C1 1_555 1_555
O3 C1 1_555 1_555
O4 C52 1_555 1_555
O5 C52 1_555 1_555
O6 C27 1_555 1_555
O7 C27 1_555 1_555
O8 C14 1_555 1_555
O9 C14 1_555 1_555
O10 Ni2 1_555 1_555
H42 O10 1_555 1_555
H43 O10 1_555 1_555
O11 C18 1_555 1_555
O12 C5 1_555 1_555
O13 C45 1_555 1_555
O14 C40 1_555 1_555
O15 C35 1_555 1_555
O16 C30 1_555 1_555
H44 O1 1_555 1_555
N2D Ni2 1_555 1_555
N3E Ni1 1_555 1_555
N4A Ni2 1_555 1_555
Ni1E N3 1_555 1_555
Ni2A N4 1_555 1_555
Ni2D N2 1_555 1_555
Ni2F O6 1_555 1_555
O6F Ni2 1_555 1_555
C6 C7 1_555 1_555
C8 O12 1_555 1_555
C12 C13 1_555 1_555
C19 C20 1_555 1_555
C21 O11 1_555 1_555
C25 C26 1_555 1_555
C32 N1 1_555 1_555
C37 N3 1_555 1_555
C42 N2 1_555 1_555
C47 N4 1_555 1_555
C48 O13 1_555 1_555
C49 C53 1_555 1_555
C49 O14 1_555 1_555
C50 C53 1_555 1_555
C50 O15 1_555 1_555
C51 C53 1_555 1_555
C51 O16 1_555 1_555
Ni1 O2 1_555 1_555
Ni1 O4 1_555 1_555
Ni1 O5 1_555 1_555
Ni2 O9 1_555 1_555

#END
