
#######################################################################
#
#                 Cambridge Crystallographic Data Centre
#                                CCDC 
#
#######################################################################
#
# If this CIF has been generated from an entry in the Cambridge 
# Structural Database, then it will include bibliographic, chemical, 
# crystal, experimental, refinement or atomic coordinate data resulting 
# from the CCDC's data processing and validation procedures.
#
#######################################################################

data_DUKNOO
_chemical_formula_moiety         '(C59 H40 Co2 F12 N4 O12)n'
_symmetry_cell_setting           monoclinic
_symmetry_space_group_name_H-M   'P 21/c'
_symmetry_Int_Tables_number      14
_space_group_name_Hall           '-P 2ybc'
loop_
_symmetry_equiv_pos_site_id
_symmetry_equiv_pos_as_xyz
1 x,y,z
2 -x,1/2+y,1/2-z
3 -x,-y,-z
4 x,1/2-y,1/2+z
_cell_length_a                   16.6278(19)
_cell_length_b                   13.9706(16)
_cell_length_c                   29.131(3)
_cell_angle_alpha                90
_cell_angle_beta                 94.532(2)
_cell_angle_gamma                90
_cell_volume                     6745.98
loop_
_atom_site_label
_atom_site_type_symbol
_atom_site_fract_x
_atom_site_fract_y
_atom_site_fract_z
C1 C 0.3970(3) 0.1348(4) 0.82585(18)
H1 H 0.4501 0.1495 0.8359
C2 C 0.3669(3) 0.1737(4) 0.78462(19)
H2 H 0.3989 0.2126 0.7676
C3 C 0.2896(3) 0.1541(3) 0.76944(17)
C4 C 0.2448(3) 0.0962(4) 0.79629(18)
H3 H 0.1913 0.0819 0.7872
C5 C 0.2810(3) 0.0601(4) 0.83676(17)
H4 H 0.2507 0.0204 0.8544
C6 C 0.2992(3) 0.2361(3) 0.69891(16)
H5 H 0.3437 0.1961 0.6908
H6 H 0.3214 0.2939 0.7134
C7 C 0.2456(3) 0.2614(3) 0.65598(15)
C8 C 0.2049(4) 0.1711(5) 0.6338(2)
H7 H 0.1940 0.1818 0.6010
H8 H 0.2416 0.1174 0.6379
C9 C 0.1219(4) 0.0584(5) 0.6727(2)
C10 C 0.1719(4) -0.0094(5) 0.6741(2)
H9 H 0.2225 -0.0026 0.6631
C11 C 0.1466(6) -0.0987(6) 0.6939(3)
H10 H 0.1812 -0.1508 0.6932
C12 C 0.0307(6) -0.0313(5) 0.7097(3)
H11 H -0.0192 -0.0367 0.7217
C13 C 0.0512(5) 0.0582(5) 0.6900(3)
H12 H 0.0177 0.1115 0.6894
C14 C 0.1826(3) 0.3334(3) 0.66599(17)
H13 H 0.1517 0.3520 0.6378
H14 H 0.1460 0.3066 0.6869
C15 C 0.1805(3) 0.4907(4) 0.69900(17)
C16 C 0.2199(3) 0.5610(4) 0.7240(2)
H15 H 0.2751 0.5559 0.7319
C17 C 0.1784(4) 0.6388(4) 0.7375(2)
H16 H 0.2059 0.6851 0.7555
C18 C 0.0615(3) 0.5812(4) 0.7009(2)
H17 H 0.0068 0.5888 0.6924
C19 C 0.0969(3) 0.5008(4) 0.68764(19)
H18 H 0.0675 0.4534 0.6715
C20 C 0.3022(3) 0.2995(3) 0.62204(15)
H19 H 0.3343 0.3517 0.6357
H20 H 0.3384 0.2493 0.6134
C21 C 0.2921(3) 0.3646(3) 0.54594(14)
C22 C 0.3744(3) 0.3694(3) 0.54409(15)
H21 H 0.4088 0.3510 0.5693
C23 C 0.4047(3) 0.4015(3) 0.50478(14)
H22 H 0.4604 0.4039 0.5038
C24 C 0.2789(3) 0.4259(3) 0.47049(15)
H23 H 0.2456 0.4467 0.4453
C25 C 0.2437(3) 0.3937(3) 0.50754(15)
H24 H 0.1878 0.3911 0.5074
C26 C 0.3709(3) 0.6535(3) 0.41324(16)
C27 C 0.3649(3) 0.7599(3) 0.41858(17)
C28 C 0.4340(4) 0.8142(4) 0.4280(2)
H25 H 0.4843 0.7848 0.4303
C29 C 0.4282(4) 0.9126(4) 0.4339(3)
H26 H 0.4746 0.9483 0.4415
C30 C 0.3546(4) 0.9576(4) 0.4288(2)
C31 C 0.2851(3) 0.9016(4) 0.41924(18)
H27 H 0.2346 0.9305 0.4167
C32 C 0.2914(3) 0.8042(3) 0.41360(17)
H28 H 0.2451 0.7681 0.4063
C33 C 0.3424(4) 1.0665(4) 0.4374(2)
C34 C 0.2777(4) 1.1068(4) 0.4024(2)
C35 C 0.2810(4) 1.0804(4) 0.3566(2)
H29 H 0.3214 1.0390 0.3487
C36 C 0.2264(4) 1.1138(4) 0.3229(2)
H30 H 0.2294 1.0949 0.2925
C37 C 0.1666(3) 1.1761(4) 0.3345(2)
C38 C 0.1658(4) 1.2055(4) 0.3786(2)
H31 H 0.1273 1.2497 0.3863
C39 C 0.2207(4) 1.1714(4) 0.4124(2)
H32 H 0.2188 1.1929 0.4425
C40 C 0.1012(4) 1.2034(4) 0.2978(3)
C41 C 0.5720(3) 0.4318(3) 0.40216(16)
C42 C 0.6564(2) 0.3965(3) 0.41962(14)
C43 C 0.7214(3) 0.4177(3) 0.39517(16)
H33 H 0.7138 0.4531 0.3682
C44 C 0.7975(3) 0.3871(4) 0.41013(17)
H34 H 0.8407 0.4013 0.3929
C45 C 0.9645(4) 0.3588(7) 0.4515(2)
C46 C 0.8104(3) 0.3354(4) 0.45058(16)
C47 C 0.7445(3) 0.3134(4) 0.47407(16)
H35 H 0.7515 0.2765 0.5007
C48 C 0.6685(3) 0.3443(4) 0.45953(17)
H36 H 0.6252 0.3299 0.4766
C49 C 0.8940(3) 0.2975(4) 0.46829(18)
C50 C 0.9059(3) 0.2977(5) 0.52126(19)
C51 C 0.8990(6) 0.1968(8) 0.4489(3)
C52 C 0.8832(4) 0.3791(5) 0.54391(19)
H37 H 0.8613 0.4305 0.5269
C53 C 0.8925(4) 0.3853(6) 0.5910(2)
H38 H 0.8776 0.4420 0.6048
C54 C 0.4212(6) 1.1209(5) 0.4330(4)
C55 C 0.9215(4) 0.3152(6) 0.61784(19)
C56 C 0.9464(4) 0.2353(6) 0.5964(2)
H39 H 0.9690 0.1856 0.6143
C57 C 0.9392(4) 0.2244(5) 0.5476(2)
H40 H 0.9568 0.1689 0.5339
C58 C 0.9236(4) 0.3215(7) 0.6711(2)
C59 C 0.3262(8) 1.0777(6) 0.4843(3)
Co1 Co 0.41261(3) 0.47806(4) 0.410935(19)
Co2 Co 0.03477(4) 0.77143(5) 0.74226(2)
F1 F 0.8512(4) 0.1371(3) 0.4662(2)
F2 F 0.9759(3) 0.1608(4) 0.45442(16)
F3 F 0.8811(3) 0.1969(4) 0.40317(15)
F4 F 1.0338(2) 0.3377(4) 0.47439(15)
F5 F 0.9744(2) 0.3515(4) 0.40749(14)
F6 F 0.9508(2) 0.4509(4) 0.45885(15)
F7 F 0.3722(4) 1.0269(3) 0.51514(16)
F8 F 0.2482(4) 1.0426(3) 0.49093(15)
F9 F 0.3239(4) 1.1651(3) 0.50160(17)
F10 F 0.4528(3) 1.1036(3) 0.3927(3)
F11 F 0.4791(3) 1.1081(3) 0.4655(2)
F12 F 0.4058(3) 1.2178(3) 0.4320(2)
N1 N 0.3575(2) 0.0789(3) 0.85213(12)
N2 N 0.0810(4) -0.1104(4) 0.71180(17)
N3 N 0.0987(3) 0.6514(3) 0.72554(16)
N4 N 0.3583(2) 0.4299(2) 0.46749(12)
O1 O 0.4411(2) 0.6158(2) 0.41748(13)
O2 O 0.5648(2) 0.4778(3) 0.36609(12)
O3 O 0.31087(19) 0.6040(2) 0.40548(11)
O4 O 0.0942(3) 1.1605(4) 0.26057(15)
O5 O 0.0517(3) 1.2632(3) 0.30801(19)
O6 O 0.51597(18) 0.4124(2) 0.42693(11)
O7 O 0.8926(5) 0.3980(6) 0.6864(2)
O8 O 0.9595(5) 0.2619(5) 0.69142(18)
O9 O 0.2517(2) 0.1862(3) 0.72976(12)
O10 O 0.1363(3) 0.1496(3) 0.65189(19)
O11 O 0.22416(19) 0.4153(2) 0.68673(12)
O12 O 0.25345(18) 0.3327(2) 0.58217(10)
Co1C Co 0.41261(3) 0.02194(4) 0.910935(19)
Co2_2 Co 0.03477(4) -0.22857(5) 0.74226(2)
Co2A Co 0.96523(4) 0.27143(5) 0.75774(2)
Co2B Co -0.03477(4) 1.22857(5) 0.25774(2)
N1C N 0.3575(2) 0.4211(3) 0.35213(12)
N2_2 N 0.0810(4) 0.8896(4) 0.71180(17)
O4B O -0.0942(3) 0.8395(4) 0.73943(15)
O5B O -0.0517(3) 0.7368(3) 0.69199(19)
O8A O 0.0405(5) 0.7619(5) 0.80858(18)
loop_
_geom_bond_atom_site_label_1
_geom_bond_atom_site_label_2
_geom_bond_site_symmetry_1
_geom_bond_site_symmetry_2
C1 H1 1_555 1_555
C2 C1 1_555 1_555
H2 C2 1_555 1_555
C3 C2 1_555 1_555
C4 C3 1_555 1_555
H3 C4 1_555 1_555
C5 C4 1_555 1_555
H4 C5 1_555 1_555
C6 H5 1_555 1_555
H6 C6 1_555 1_555
C7 C6 1_555 1_555
C8 C7 1_555 1_555
H7 C8 1_555 1_555
H8 C8 1_555 1_555
C9 C10 1_555 1_555
C10 H9 1_555 1_555
C11 C10 1_555 1_555
H10 C11 1_555 1_555
C12 H11 1_555 1_555
C13 C9 1_555 1_555
H12 C13 1_555 1_555
C14 C7 1_555 1_555
H13 C14 1_555 1_555
H14 C14 1_555 1_555
C15 C16 1_555 1_555
C16 H15 1_555 1_555
C17 C16 1_555 1_555
H16 C17 1_555 1_555
C18 H17 1_555 1_555
C19 C15 1_555 1_555
H18 C19 1_555 1_555
C20 C7 1_555 1_555
H19 C20 1_555 1_555
H20 C20 1_555 1_555
C21 C22 1_555 1_555
C22 H21 1_555 1_555
C23 C22 1_555 1_555
H22 C23 1_555 1_555
C24 H23 1_555 1_555
C25 C21 1_555 1_555
H24 C25 1_555 1_555
C26 C27 1_555 1_555
C27 C28 1_555 1_555
C28 H25 1_555 1_555
C29 C28 1_555 1_555
H26 C29 1_555 1_555
C30 C29 1_555 1_555
C31 C30 1_555 1_555
H27 C31 1_555 1_555
C32 C27 1_555 1_555
H28 C32 1_555 1_555
C33 C30 1_555 1_555
C34 C33 1_555 1_555
C35 C34 1_555 1_555
H29 C35 1_555 1_555
C36 C35 1_555 1_555
H30 C36 1_555 1_555
C37 C36 1_555 1_555
C38 C37 1_555 1_555
H31 C38 1_555 1_555
C39 C34 1_555 1_555
H32 C39 1_555 1_555
C40 C37 1_555 1_555
C41 C42 1_555 1_555
C42 C43 1_555 1_555
C43 H33 1_555 1_555
C44 C43 1_555 1_555
H34 C44 1_555 1_555
C45 C49 1_555 1_555
C46 C44 1_555 1_555
C47 C46 1_555 1_555
H35 C47 1_555 1_555
C48 C42 1_555 1_555
H36 C48 1_555 1_555
C49 C46 1_555 1_555
C50 C49 1_555 1_555
C51 C49 1_555 1_555
C52 C50 1_555 1_555
H37 C52 1_555 1_555
C53 C52 1_555 1_555
H38 C53 1_555 1_555
C54 C33 1_555 1_555
C55 C53 1_555 1_555
C56 C55 1_555 1_555
H39 C56 1_555 1_555
C57 C50 1_555 1_555
H40 C57 1_555 1_555
C58 C55 1_555 1_555
C59 C33 1_555 1_555
Co1 N4 1_555 1_555
Co2 N3 1_555 1_555
F1 C51 1_555 1_555
F2 C51 1_555 1_555
F3 C51 1_555 1_555
F4 C45 1_555 1_555
F5 C45 1_555 1_555
F6 C45 1_555 1_555
F7 C59 1_555 1_555
F8 C59 1_555 1_555
F9 C59 1_555 1_555
F10 C54 1_555 1_555
F11 C54 1_555 1_555
F12 C54 1_555 1_555
N1 C1 1_555 1_555
N2 C11 1_555 1_555
N3 C17 1_555 1_555
N4 C23 1_555 1_555
O1 C26 1_555 1_555
O2 C41 1_555 1_555
O3 C26 1_555 1_555
O4 C40 1_555 1_555
O5 C40 1_555 1_555
O6 C41 1_555 1_555
O7 C58 1_555 1_555
O8 C58 1_555 1_555
O9 C3 1_555 1_555
O10 C8 1_555 1_555
O11 C14 1_555 1_555
O12 C20 1_555 1_555
Co1C N1 1_555 1_555
Co2_2 N2 1_555 1_555
Co2A O8 1_555 1_555
Co2B O4 1_555 1_555
N1C Co1 1_555 1_555
N2_2 Co2 1_555 1_555
O4B Co2 1_555 1_555
O5B Co2 1_555 1_555
O8A Co2 1_555 1_555
C5 N1 1_555 1_555
C6 O9 1_555 1_555
C9 O10 1_555 1_555
C12 C13 1_555 1_555
C12 N2 1_555 1_555
C15 O11 1_555 1_555
C18 C19 1_555 1_555
C18 N3 1_555 1_555
C21 O12 1_555 1_555
C24 C25 1_555 1_555
C24 N4 1_555 1_555
C31 C32 1_555 1_555
C38 C39 1_555 1_555
C47 C48 1_555 1_555
C56 C57 1_555 1_555
Co1 O1 1_555 1_555
Co1 O3 1_555 1_555
Co1 O6 1_555 1_555
O5 Co2B 1_555 1_555

#END
