
#######################################################################
#
#                 Cambridge Crystallographic Data Centre
#                                CCDC 
#
#######################################################################
#
# If this CIF has been generated from an entry in the Cambridge 
# Structural Database, then it will include bibliographic, chemical, 
# crystal, experimental, refinement or atomic coordinate data resulting 
# from the CCDC's data processing and validation procedures.
#
#######################################################################

data_KULZEY
_chemical_formula_moiety         '(C53 H44 Co2 N4 O16)n'
_symmetry_cell_setting           monoclinic
_symmetry_space_group_name_H-M   'C 2/c'
_symmetry_Int_Tables_number      15
_space_group_name_Hall           '-C 2yc'
loop_
_symmetry_equiv_pos_site_id
_symmetry_equiv_pos_as_xyz
1 x,y,z
2 -x,y,1/2-z
3 1/2+x,1/2+y,z
4 1/2-x,1/2+y,1/2-z
5 -x,-y,-z
6 x,-y,1/2+z
7 1/2-x,1/2-y,-z
8 1/2+x,1/2-y,1/2+z
_cell_length_a                   46.330(7)
_cell_length_b                   10.7270(15)
_cell_length_c                   23.714(3)
_cell_angle_alpha                90
_cell_angle_beta                 95.872(3)
_cell_angle_gamma                90
_cell_volume                     11723.6
loop_
_atom_site_label
_atom_site_type_symbol
_atom_site_fract_x
_atom_site_fract_y
_atom_site_fract_z
_atom_site_U_iso_or_equiv
_atom_site_thermal_displace_type
C1 C 0.96536(6) 0.2458(3) 0.00762(12) 0.0416 Uani
C2 C 0.93969(6) 0.1860(2) -0.02559(12) 0.0394 Uani
C3 C 0.90251(6) 0.1817(3) -0.10282(13) 0.0534 Uani
H1 H 0.8922 0.2208 -0.1336 0.0640 Uiso
C4 C 0.89628(6) 0.0617(3) -0.08893(13) 0.0487 Uani
C5 C 0.93237(6) 0.0657(3) -0.01098(13) 0.0517 Uani
H2 H 0.9424 0.0270 0.0203 0.0620 Uiso
C6 C 0.91025(6) 0.0032(3) -0.04283(13) 0.0565 Uani
H3 H 0.9050 -0.0770 -0.0330 0.0680 Uiso
C7 C 0.92442(6) 0.2441(3) -0.07023(12) 0.0483 Uani
H4 H 0.9287 0.3261 -0.0788 0.0580 Uiso
C8 C 0.82867(6) -0.2916(3) -0.06969(13) 0.0568 Uani
C9 C 0.86151(6) -0.1004(3) -0.10500(14) 0.0581 Uani
C10 C 0.84323(7) -0.0794(3) -0.06530(15) 0.0776 Uani
H5 H 0.8415 0.0004 -0.0508 0.0930 Uiso
C11 C 0.86390(6) -0.2131(3) -0.12834(14) 0.0609 Uani
H6 H 0.8765 -0.2265 -0.1558 0.0730 Uiso
C12 C 0.84701(6) -0.3098(3) -0.11039(14) 0.0609 Uani
H7 H 0.8483 -0.3884 -0.1265 0.0730 Uiso
C13 C 0.82726(7) -0.1749(3) -0.04632(15) 0.0781 Uani
H8 H 0.8154 -0.1609 -0.0176 0.0930 Uiso
C14 C 0.81027(7) -0.3966(3) -0.05113(14) 0.0657 Uani
C15 C 0.76232(6) 0.2374(3) 0.12012(12) 0.0439 Uani
C16 C 0.78956(6) 0.2895(3) 0.15004(12) 0.0460 Uani
C17 C 0.80483(6) 0.2236(3) 0.19302(13) 0.0609 Uani
H9 H 0.7984 0.1451 0.2027 0.0730 Uiso
C18 C 0.79952(6) 0.4022(3) 0.13581(14) 0.0619 Uani
H10 H 0.7894 0.4467 0.1064 0.0750 Uiso
C19 C 0.83914(6) 0.3884(3) 0.20702(14) 0.0579 Uani
C20 C 0.82972(7) 0.2730(3) 0.22212(14) 0.0682 Uani
H11 H 0.8399 0.2285 0.2514 0.0810 Uiso
C21 C 0.82485(7) 0.4540(3) 0.16435(14) 0.0658 Uani
H12 H 0.8316 0.5316 0.1541 0.0790 Uiso
C22 C 0.93684(6) 0.5271(3) 0.22180(12) 0.0486 Uani
H13 H 0.9511 0.5775 0.2403 0.0580 Uiso
C23 C 0.94286(6) 0.4610(3) 0.17419(13) 0.0434 Uani
C24 C 0.89375(6) 0.3852(3) 0.16580(13) 0.0533 Uani
H14 H 0.8790 0.3394 0.1459 0.0640 Uiso
C25 C 0.88858(6) 0.4475(3) 0.21384(13) 0.0488 Uani
C26 C 0.97223(6) 0.4633(3) 0.15247(13) 0.0457 Uani
C27 C 0.91002(6) 0.5197(3) 0.24241(13) 0.0526 Uani
H15 H 0.9065 0.5627 0.2751 0.0630 Uiso
C28 C 0.92094(6) 0.3900(3) 0.14666(13) 0.0532 Uani
H16 H 0.9245 0.3447 0.1147 0.0640 Uiso
C29 C 1.06705(6) 0.0733(3) 0.20704(12) 0.0447 Uani
C30 C 1.05143(6) 0.2692(3) 0.17036(12) 0.0529 Uani
H17 H 1.0525 0.3555 0.1735 0.0630 Uiso
C31 C 1.06783(6) 0.1998(3) 0.21029(13) 0.0530 Uani
H18 H 1.0794 0.2390 0.2394 0.0640 Uiso
C32 C 1.03384(6) 0.1009(3) 0.12481(13) 0.0522 Uani
H19 H 1.0226 0.0646 0.0944 0.0630 Uiso
C33 C 1.04889(6) 0.0227(3) 0.16342(13) 0.0519 Uani
H20 H 1.0468 -0.0633 0.1601 0.0620 Uiso
C34 C 1.10135(6) 0.0427(2) 0.28628(12) 0.0446 Uani
H21 H 1.0916 0.1023 0.3086 0.0540 Uiso
H22 H 1.1172 0.0847 0.2703 0.0540 Uiso
C35 C 1.02922(6) -0.2446(3) 0.45765(13) 0.0571 Uani
H23 H 1.0098 -0.2214 0.4514 0.0690 Uiso
C36 C 1.06505(6) -0.3460(3) 0.51022(13) 0.0603 Uani
H24 H 1.0713 -0.3949 0.5415 0.0720 Uiso
C37 C 1.08454(7) -0.3177(3) 0.47365(13) 0.0620 Uani
H25 H 1.1036 -0.3460 0.4802 0.0740 Uiso
C38 C 1.04689(6) -0.2100(3) 0.41776(13) 0.0582 Uani
H26 H 1.0398 -0.1641 0.3861 0.0700 Uiso
C39 C 1.07587(6) -0.2458(3) 0.42607(13) 0.0502 Uani
C40 C 1.08723(6) -0.1180(3) 0.34971(12) 0.0457 Uani
H27 H 1.0773 -0.0510 0.3673 0.0550 Uiso
H28 H 1.0737 -0.1549 0.3205 0.0550 Uiso
C41 C 1.12668(6) -0.1631(3) 0.28835(12) 0.0474 Uani
H29 H 1.1350 -0.2294 0.3127 0.0570 Uiso
H30 H 1.1124 -0.1989 0.2601 0.0570 Uiso
C42 C 1.11279(6) -0.0652(3) 0.32289(12) 0.0384 Uani
C43 C 1.13647(6) -0.0210(3) 0.36780(11) 0.0440 Uani
H31 H 1.1427 -0.0901 0.3925 0.0530 Uiso
H32 H 1.1531 0.0074 0.3495 0.0530 Uiso
C44 C 1.17679(6) -0.3368(3) 0.17204(13) 0.0551 Uani
H33 H 1.1750 -0.4217 0.1646 0.0660 Uiso
C45 C 1.16326(6) -0.1627(3) 0.22508(13) 0.0493 Uani
C46 C 1.19675(7) -0.1537(3) 0.15546(13) 0.0599 Uani
H34 H 1.2094 -0.1061 0.1362 0.0720 Uiso
C47 C 1.16083(6) -0.2880(3) 0.21318(13) 0.0524 Uani
H35 H 1.1488 -0.3387 0.2323 0.0630 Uiso
C48 C 1.18213(7) -0.0934(3) 0.19552(14) 0.0612 Uani
H36 H 1.1848 -0.0086 0.2025 0.0740 Uiso
C49 C 1.15653(6) 0.2873(3) 0.50885(12) 0.0526 Uani
H37 H 1.1497 0.3506 0.5308 0.0630 Uiso
C50 C 1.14606(6) 0.1333(3) 0.43777(12) 0.0397 Uani
C51 C 1.13705(6) 0.2269(3) 0.47039(12) 0.0482 Uani
H38 H 1.1176 0.2504 0.4667 0.0580 Uiso
C52 C 1.17467(6) 0.1007(3) 0.44502(12) 0.0448 Uani
H39 H 1.1818 0.0364 0.4241 0.0540 Uiso
C53 C 1.19254(6) 0.1660(3) 0.48430(12) 0.0485 Uani
H40 H 1.2120 0.1426 0.4891 0.0580 Uiso
Co1 Co 1.008540(8) 0.33105(4) 0.069107(17) 0.0402 Uani
Co2 Co 0.714902(8) 0.15164(4) 0.074686(17) 0.0409 Uani
N1 N 1.03733(5) -0.3085(2) 0.50475(10) 0.0464 Uani
N2 N 1.18474(5) 0.2594(2) 0.51605(10) 0.0458 Uani
N3 N 1.03426(5) 0.2226(2) 0.12791(10) 0.0426 Uani
N4 N 1.19441(5) -0.2717(2) 0.14228(10) 0.0438 Uani
O1 O 0.73662(4) 0.06998(17) 0.00953(8) 0.0491 Uani
H41 H 0.7251 0.0030 -0.0075 0.0740 Uiso
H42 H 0.7394 0.1318 -0.0187 0.0740 Uiso
O2 O 0.74815(4) 0.29807(16) 0.08169(8) 0.0455 Uani
O3 O 0.75372(4) 0.13046(18) 0.13415(8) 0.0555 Uani
O4 O 0.97763(4) 0.37051(18) 0.12293(9) 0.0560 Uani
O5 O 0.98889(4) 0.55155(18) 0.16421(9) 0.0647 Uani
O6 O 0.98100(4) 0.18032(16) 0.04303(8) 0.0476 Uani
O7 O 0.97132(4) 0.35876(17) -0.00030(8) 0.0475 Uani
O8 O 0.80818(4) -0.49173(17) -0.08136(8) 0.0522 Uani
O9 O 0.79819(6) -0.3809(2) -0.00707(12) 0.1289 Uani
O10 O 0.87618(5) 0.00029(19) -0.12674(9) 0.0687 Uani
O11 O 0.86324(4) 0.4398(2) 0.23925(9) 0.0654 Uani
O12 O 1.02789(4) 0.50068(15) 0.09254(8) 0.0466 Uani
H43 H 1.0172 0.5400 0.1203 0.0700 Uiso
O13 O 1.08142(4) -0.00738(17) 0.24222(8) 0.0478 Uani
O14 O 1.12621(4) 0.07824(17) 0.40072(8) 0.0467 Uani
O15 O 1.09613(4) -0.21119(18) 0.39189(9) 0.0537 Uani
O16 O 1.14870(4) -0.10070(18) 0.26183(9) 0.0559 Uani
H44 H 1.0277 0.5533 0.0598 0.0700 Uiso
Co1E Co 1.008540(8) -0.33105(4) 0.569107(17) 0.0402 Uani
Co2B Co 1.214902(8) -0.34836(4) 0.074686(17) 0.0409 Uani
Co2F Co 0.785098(8) -0.65164(4) -0.074686(17) 0.0409 Uani
Co2G Co 1.214902(8) 0.34836(4) 0.574686(17) 0.0409 Uani
N1E N 1.03733(5) 0.3085(2) 0.00475(10) 0.0464 Uani
N2G N 0.68474(5) 0.2406(2) 0.01605(10) 0.0458 Uani
N4B N 0.69441(5) 0.2283(2) 0.14228(10) 0.0438 Uani
O8F O 0.69182(4) -0.00827(17) 0.08136(8) 0.0522 Uani
loop_
_atom_site_aniso_label
_atom_site_aniso_U_11
_atom_site_aniso_U_22
_atom_site_aniso_U_33
_atom_site_aniso_U_23
_atom_site_aniso_U_13
_atom_site_aniso_U_12
C1 0.0378(16) 0.0450(18) 0.0427(19) 0.0026(15) 0.0069(15) -0.0051(15)
C2 0.0366(16) 0.0410(17) 0.0404(18) 0.0022(15) 0.0033(14) -0.0077(14)
C3 0.0477(18) 0.0541(19) 0.055(2) 0.0135(17) -0.0111(16) -0.0143(17)
C4 0.0436(17) 0.0557(18) 0.0458(19) 0.0035(16) -0.0008(16) -0.0208(16)
C5 0.0517(19) 0.0491(19) 0.052(2) 0.0156(17) -0.0059(17) -0.0062(17)
C6 0.061(2) 0.0500(19) 0.056(2) 0.0130(17) -0.0057(18) -0.0207(17)
C7 0.0473(18) 0.0435(18) 0.052(2) 0.0106(16) -0.0048(17) -0.0136(16)
C8 0.0592(19) 0.0506(18) 0.064(2) -0.0183(17) 0.0233(17) -0.0265(16)
C9 0.0519(18) 0.070(2) 0.053(2) -0.0079(17) 0.0082(16) -0.0343(17)
C10 0.091(2) 0.057(2) 0.089(3) -0.022(2) 0.029(2) -0.036(2)
C11 0.0499(19) 0.073(2) 0.062(2) -0.0098(19) 0.0169(17) -0.0215(18)
C12 0.058(2) 0.061(2) 0.066(2) -0.0162(19) 0.0178(18) -0.0141(18)
C13 0.089(2) 0.071(2) 0.082(2) -0.030(2) 0.046(2) -0.023(2)
C14 0.073(2) 0.0580(16) 0.071(2) -0.0200(14) 0.0314(19) -0.0269(18)
C15 0.0364(16) 0.0542(18) 0.0419(17) -0.0060(13) 0.0079(13) 0.0019(15)
C16 0.0389(17) 0.0548(18) 0.0447(19) -0.0075(16) 0.0056(15) -0.0017(16)
C17 0.059(2) 0.062(2) 0.059(2) 0.0040(18) -0.0077(18) -0.0106(18)
C18 0.050(2) 0.063(2) 0.068(2) 0.0117(19) -0.0174(18) -0.0080(18)
C19 0.0327(15) 0.079(2) 0.061(2) -0.0244(17) 0.0003(13) 0.0020(15)
C20 0.054(2) 0.080(2) 0.066(2) -0.001(2) -0.0155(19) 0.003(2)
C21 0.058(2) 0.060(2) 0.076(2) 0.0022(19) -0.0090(19) -0.0142(18)
C22 0.0398(18) 0.0530(19) 0.052(2) -0.0127(17) -0.0007(16) -0.0031(16)
C23 0.0378(17) 0.0456(17) 0.0463(19) 0.0014(16) 0.0018(15) 0.0038(15)
C24 0.0315(17) 0.069(2) 0.058(2) -0.0222(17) -0.0029(16) -0.0107(16)
C25 0.0298(16) 0.0651(19) 0.050(2) -0.0141(17) -0.0034(15) 0.0007(16)
C26 0.0435(18) 0.0514(19) 0.0426(19) 0.0052(16) 0.0067(16) -0.0010(17)
C27 0.0411(18) 0.061(2) 0.055(2) -0.0214(17) 0.0010(17) 0.0076(17)
C28 0.0438(18) 0.062(2) 0.053(2) -0.0150(17) 0.0016(17) -0.0002(17)
C29 0.0435(17) 0.0489(18) 0.0398(18) 0.0020(16) -0.0046(15) -0.0032(16)
C30 0.060(2) 0.0496(19) 0.046(2) -0.0004(16) -0.0095(17) -0.0006(17)
C31 0.0533(19) 0.057(2) 0.045(2) -0.0005(17) -0.0124(17) -0.0101(17)
C32 0.0537(19) 0.0507(12) 0.049(2) -0.0060(17) -0.0102(17) -0.0007(17)
C33 0.058(2) 0.0409(18) 0.054(2) -0.0039(17) -0.0075(18) 0.0003(17)
C34 0.0410(17) 0.0503(18) 0.0421(19) 0.0071(16) 0.0023(15) -0.0048(16)
C35 0.0378(18) 0.082(2) 0.052(2) 0.0103(18) 0.0068(16) -0.0018(18)
C36 0.0533(19) 0.072(2) 0.058(2) 0.0192(19) 0.0178(17) 0.0075(19)
C37 0.0526(19) 0.072(2) 0.064(2) 0.0245(19) 0.0191(17) 0.0206(18)
C38 0.0503(19) 0.079(2) 0.046(2) 0.0230(18) 0.0087(17) 0.0009(18)
C39 0.0497(18) 0.0523(19) 0.051(2) 0.0066(16) 0.0170(16) 0.0016(17)
C40 0.0414(17) 0.0560(19) 0.0402(19) 0.0024(16) 0.0063(15) -0.0035(16)
C41 0.0423(17) 0.0528(18) 0.0481(19) 0.0014(17) 0.0093(15) -0.0045(16)
C42 0.0338(15) 0.0459(17) 0.0358(17) -0.0006(15) 0.0057(14) -0.0035(15)
C43 0.0360(16) 0.0564(16) 0.0400(18) -0.0008(13) 0.0052(14) 0.0052(14)
C44 0.0598(17) 0.0516(14) 0.057(2) -0.0075(15) 0.0204(14) -0.0057(14)
C45 0.0520(18) 0.0439(17) 0.0529(19) -0.0035(17) 0.0099(16) -0.0009(17)
C46 0.067(2) 0.0513(12) 0.066(2) -0.0050(15) 0.0296(17) -0.0066(15)
C47 0.0485(18) 0.0552(19) 0.056(2) 0.0018(17) 0.0168(17) -0.0029(17)
C48 0.073(2) 0.0465(19) 0.068(2) -0.0124(18) 0.0266(19) -0.0112(18)
C49 0.0421(18) 0.066(2) 0.049(2) -0.0113(17) 0.0019(16) 0.0090(17)
C50 0.0328(16) 0.0508(18) 0.0351(17) -0.0011(15) 0.0021(14) 0.0029(15)
C51 0.0282(16) 0.066(2) 0.050(2) -0.0080(17) 0.0020(15) 0.0128(16)
C52 0.0372(17) 0.0581(19) 0.0385(19) -0.0101(16) 0.0012(15) 0.0048(16)
C53 0.0318(16) 0.0697(17) 0.0442(18) -0.0042(13) 0.0053(14) 0.0068(16)
Co1 0.0348(2) 0.0462(3) 0.0393(3) 0.0013(2) 0.0021(2) -0.0039(2)
Co2 0.0335(2) 0.0461(3) 0.0433(3) -0.0001(2) 0.0052(2) -0.0065(2)
N1 0.0405(14) 0.0574(16) 0.0421(16) 0.0050(13) 0.0074(13) 0.0015(13)
N2 0.0323(14) 0.0598(15) 0.0452(16) -0.0036(12) 0.0039(12) 0.0049(13)
N3 0.0459(15) 0.0461(11) 0.0348(15) 0.0036(13) -0.0014(13) -0.0014(13)
N4 0.0457(14) 0.0429(12) 0.0441(16) -0.0050(12) 0.0109(12) -0.0035(12)
O1 0.0477(12) 0.0520(13) 0.0490(14) -0.0054(11) 0.0112(11) -0.0089(11)
O2 0.0360(11) 0.0557(13) 0.0445(13) 0.0024(10) 0.0031(10) -0.0050(10)
O3 0.0502(13) 0.0583(14) 0.0562(15) 0.0037(12) -0.0030(11) -0.0096(12)
O4 0.0425(12) 0.0604(14) 0.0677(15) -0.0131(12) 0.0179(11) -0.0046(12)
O5 0.0623(14) 0.0622(14) 0.0721(17) -0.0139(13) 0.0195(13) -0.0226(13)
O6 0.0424(12) 0.0486(13) 0.0493(14) 0.0044(11) -0.0071(11) -0.0055(11)
O7 0.0425(12) 0.0451(12) 0.0540(14) 0.0067(11) 0.0001(11) -0.0149(11)
O8 0.0542(13) 0.0451(12) 0.0598(14) -0.0117(10) 0.0185(11) -0.0177(11)
O9 0.178(2) 0.0984(19) 0.130(2) -0.0587(16) 0.1116(18) -0.0853(17)
O10 0.0725(15) 0.0782(15) 0.0530(15) 0.0081(12) -0.0052(13) -0.0426(13)
O11 0.0301(11) 0.0993(16) 0.0662(15) -0.0366(13) 0.0026(11) -0.0053(12)
O12 0.0470(12) 0.0449(12) 0.0478(14) -0.0013(11) 0.0043(11) -0.0117(10)
O13 0.0511(13) 0.0476(12) 0.0410(13) 0.0011(11) -0.0135(11) 0.0006(11)
O14 0.0332(11) 0.0622(13) 0.0437(13) -0.0096(10) -0.0010(10) 0.0086(10)
O15 0.0505(12) 0.0604(13) 0.0526(14) 0.0194(11) 0.0169(11) 0.0098(11)
O16 0.0529(13) 0.0597(14) 0.0597(15) -0.0114(12) 0.0273(11) -0.0070(12)
Co1E 0.0348 0.0462 0.0393 -0.0013 0.0021 0.0039
Co2B 0.0335 0.0461 0.0433 -0.0001 0.0052 -0.0065
Co2F 0.0335 0.0461 0.0433 -0.0001 0.0052 -0.0065
Co2G 0.0335 0.0461 0.0433 0.0001 0.0052 0.0065
N1E 0.0405 0.0574 0.0421 -0.005 0.0074 -0.0015
N2G 0.0323 0.0598 0.0452 0.0036 0.0039 -0.0049
N4B 0.0457 0.0429 0.0441 -0.005 0.0109 -0.0035
O8F 0.0542 0.0451 0.0598 -0.0117 0.0185 -0.0177
loop_
_geom_bond_atom_site_label_1
_geom_bond_atom_site_label_2
_geom_bond_site_symmetry_1
_geom_bond_site_symmetry_2
C1 C2 1_555 1_555
C2 C5 1_555 1_555
C3 H1 1_555 1_555
C4 C3 1_555 1_555
C5 H2 1_555 1_555
C6 C4 1_555 1_555
H3 C6 1_555 1_555
C7 C2 1_555 1_555
H4 C7 1_555 1_555
C8 C12 1_555 1_555
C9 C10 1_555 1_555
C10 H5 1_555 1_555
C11 C9 1_555 1_555
H6 C11 1_555 1_555
C12 C11 1_555 1_555
H7 C12 1_555 1_555
C13 C8 1_555 1_555
H8 C13 1_555 1_555
C14 C8 1_555 1_555
C15 C16 1_555 1_555
C16 C17 1_555 1_555
C17 H9 1_555 1_555
C18 C16 1_555 1_555
H10 C18 1_555 1_555
C19 C20 1_555 1_555
C20 C17 1_555 1_555
H11 C20 1_555 1_555
C21 C18 1_555 1_555
H12 C21 1_555 1_555
C22 H13 1_555 1_555
C23 C22 1_555 1_555
C24 H14 1_555 1_555
C25 C24 1_555 1_555
C26 C23 1_555 1_555
C27 C22 1_555 1_555
H15 C27 1_555 1_555
C28 C23 1_555 1_555
H16 C28 1_555 1_555
C29 C31 1_555 1_555
C30 H17 1_555 1_555
C31 C30 1_555 1_555
H18 C31 1_555 1_555
C32 H19 1_555 1_555
C33 C29 1_555 1_555
H20 C33 1_555 1_555
C34 H21 1_555 1_555
H22 C34 1_555 1_555
C35 H23 1_555 1_555
C36 H24 1_555 1_555
C37 C36 1_555 1_555
H25 C37 1_555 1_555
C38 C35 1_555 1_555
H26 C38 1_555 1_555
C39 C37 1_555 1_555
C40 H27 1_555 1_555
H28 C40 1_555 1_555
C41 H29 1_555 1_555
H30 C41 1_555 1_555
C42 C34 1_555 1_555
C43 C42 1_555 1_555
H31 C43 1_555 1_555
H32 C43 1_555 1_555
C44 H33 1_555 1_555
C45 C47 1_555 1_555
C46 H34 1_555 1_555
C47 C44 1_555 1_555
H35 C47 1_555 1_555
C48 C45 1_555 1_555
H36 C48 1_555 1_555
C49 H37 1_555 1_555
C50 C51 1_555 1_555
C51 C49 1_555 1_555
H38 C51 1_555 1_555
C52 C50 1_555 1_555
H39 C52 1_555 1_555
C53 C52 1_555 1_555
H40 C53 1_555 1_555
Co1 N3 1_555 1_555
Co2 O1 1_555 1_555
N1 C35 1_555 1_555
N2 C49 1_555 1_555
N3 C30 1_555 1_555
N4 C44 1_555 1_555
O1 H41 1_555 1_555
H42 O1 1_555 1_555
O2 C15 1_555 1_555
O3 C15 1_555 1_555
O4 C26 1_555 1_555
O5 C26 1_555 1_555
O6 C1 1_555 1_555
O7 C1 1_555 1_555
O8 C14 1_555 1_555
O9 C14 1_555 1_555
O10 C4 1_555 1_555
O11 C19 1_555 1_555
O12 Co1 1_555 1_555
H43 O12 1_555 1_555
O13 C29 1_555 1_555
O14 C43 1_555 1_555
O15 C39 1_555 1_555
O16 C41 1_555 1_555
H44 O12 1_555 1_555
Co1E N1 1_555 1_555
Co2B N4 1_555 1_555
Co2F O8 1_555 1_555
Co2G N2 1_555 1_555
N1E Co1 1_555 1_555
N2G Co2 1_555 1_555
N4B Co2 1_555 1_555
O8F Co2 1_555 1_555
C3 C7 1_555 1_555
C5 C6 1_555 1_555
C9 O10 1_555 1_555
C10 C13 1_555 1_555
C19 C21 1_555 1_555
C24 C28 1_555 1_555
C25 C27 1_555 1_555
C25 O11 1_555 1_555
C32 C33 1_555 1_555
C32 N3 1_555 1_555
C34 O13 1_555 1_555
C36 N1 1_555 1_555
C38 C39 1_555 1_555
C40 C42 1_555 1_555
C40 O15 1_555 1_555
C41 C42 1_555 1_555
C45 O16 1_555 1_555
C46 C48 1_555 1_555
C46 N4 1_555 1_555
C50 O14 1_555 1_555
C53 N2 1_555 1_555
Co1 O4 1_555 1_555
Co1 O6 1_555 1_555
Co1 O7 1_555 1_555
Co2 O2 1_555 1_555
Co2 O3 1_555 1_555

#END
