
#######################################################################
#
#                 Cambridge Crystallographic Data Centre
#                                CCDC 
#
#######################################################################
#
# If this CIF has been generated from an entry in the Cambridge 
# Structural Database, then it will include bibliographic, chemical, 
# crystal, experimental, refinement or atomic coordinate data resulting 
# from the CCDC's data processing and validation procedures.
#
#######################################################################

data_CIXCOC
_chemical_formula_moiety         'C3 H9 Co18 O50 P9 1+'
_symmetry_cell_setting           hexagonal
_symmetry_space_group_name_H-M   'P 63 c m'
_symmetry_Int_Tables_number      185
_space_group_name_Hall           'P 6c -2'
loop_
_symmetry_equiv_pos_site_id
_symmetry_equiv_pos_as_xyz
1 x,y,z
2 -y,x-y,z
3 -x+y,-x,z
4 -x,-y,1/2+z
5 y,-x+y,1/2+z
6 x-y,x,1/2+z
7 -y,-x,1/2+z
8 -x+y,y,1/2+z
9 x,x-y,1/2+z
10 y,x,z
11 x-y,-y,z
12 -x,-x+y,z
_cell_length_a                   15.141(2)
_cell_length_b                   15.141(2)
_cell_length_c                   9.3313(19)
_cell_angle_alpha                90
_cell_angle_beta                 90
_cell_angle_gamma                120
_cell_volume                     1852.6
loop_
_atom_site_label
_atom_site_type_symbol
_atom_site_fract_x
_atom_site_fract_y
_atom_site_fract_z
Co1 Co 0.47894(9) 0.36502(10) 0.29865(16)
Co2 Co 0.6667 0.3333 0.3724(2)
P1 P 0.49458(16) 0.30724(17) 0.6283(3)
H1 H 0.4314(17) 0.344(2) 0.628(3)
P2 P 0.4120(4) 0.4120(4) -0.0241(4)
O2 O 0.5354(5) 0.3214(5) 0.4752(7)
O3 O 0.5789(5) 0.3715(5) 0.7349(7)
O4 O 0.4268(9) 0.4268(9) 0.1334(13)
O5 O 0.3273(9) 0.3273(9) 0.3711(13)
O6 O 0.4955(9) 0.4955(9) -0.1109(12)
O7 O 0.4321(5) 0.1962(5) 0.6728(8)
O8 O 0.3119(14) 0.3798(15) -0.072(2)
C1 C 0.2344(6) 0.2344(6) 0.3582(12)
Co1A Co 0.63498(10) 0.11392(13) 0.29865(16)
Co1B Co 0.88608(13) 0.52106(9) 0.29865(16)
Co1F Co 0.63498(10) 0.52106(9) -0.20135(16)
Co1G Co 0.88608(13) 0.36502(10) -0.20135(16)
Co1H Co 0.47894(9) 0.11392(13) -0.20135(16)
Co1F_2 Co 0.63498(10) 0.52106(9) 0.79865(16)
Co1I Co 0.36502(10) 0.47894(9) 0.29865(16)
Co1C Co 0.52106(9) 0.63498(10) -0.20135(16)
Co1H_2 Co 0.47894(9) 0.11392(13) 0.79865(16)
Co1G_2 Co 0.88608(13) 0.36502(10) 0.79865(16)
Co1C_2 Co 0.52106(9) 0.63498(10) 0.79865(16)
Co1K Co 0.52106(9) -0.11392(13) 0.29865(16)
Co1D Co 0.36502(10) -0.11392(13) -0.20135(16)
Co1J Co 1.11392(13) 0.63498(10) 0.29865(16)
Co2F Co 0.6667 0.3333 -0.1276(2)
Co2F_2 Co 0.6667 0.3333 0.8724(2)
P1A P 0.69276(17) 0.18734(23) 0.6283(3)
P1B P 0.81266(23) 0.50542(16) 0.6283(3)
P1F P 0.69276(17) 0.50542(16) 0.1283(3)
P1G P 0.81266(23) 0.30724(17) 0.1283(3)
P1H P 0.49458(16) 0.18734(23) 0.1283(3)
H1A H 0.656(2) 0.0874(26) 0.628(3)
H1B H 0.9126(26) 0.5686(17) 0.628(3)
H1F H 0.656(2) 0.5686(17) 0.128(3)
H1G H 0.9126(26) 0.344(2) 0.128(3)
H1H H 0.4314(17) 0.0874(26) 0.128(3)
P2C P 0.5880(4) 0.5880(4) 0.4759(4)
P2A P 0.5880(4) 0.0000(6) -0.0241(4)
O2A O 0.6786(5) 0.2140(7) 0.4752(7)
O2B O 0.7860(7) 0.4646(5) 0.4752(7)
O2F O 0.6786(5) 0.4646(5) -0.0248(7)
O2G O 0.7860(7) 0.3214(5) -0.0248(7)
O2H O 0.5354(5) 0.2140(7) -0.0248(7)
O3A O 0.6285(5) 0.2074(7) 0.7349(7)
O3B O 0.7926(7) 0.4211(5) 0.7349(7)
O3F O 0.6285(5) 0.4211(5) 0.2349(7)
O3G O 0.7926(7) 0.3715(5) 0.2349(7)
O3H O 0.5789(5) 0.2074(7) 0.2349(7)
O3_2 O 0.5789(5) 0.3715(5) -0.2651(7)
O3A_2 O 0.6285(5) 0.2074(7) -0.2651(7)
O3B_2 O 0.7926(7) 0.4211(5) -0.2651(7)
O4C O 0.5732(9) 0.5732(9) 0.6334(13)
O4A O 0.5732(9) 0.0000(13) 0.1334(13)
O4B O 1.0000(13) 0.5732(9) 0.1334(13)
O4C_2 O 0.5732(9) 0.5732(9) -0.3666(13)
O4E O 1.0000(13) 0.4268(9) -0.3666(13)
O4D O 0.4268(9) -0.0000(13) -0.3666(13)
O5A O 0.6727(9) 0.0000(13) 0.3711(13)
O5B O 1.0000(13) 0.6727(9) 0.3711(13)
O5C O 0.6727(9) 0.6727(9) -0.1289(13)
O5E O 1.0000(13) 0.3273(9) -0.1289(13)
O5D O 0.3273(9) -0.0000(13) -0.1289(13)
O6C O 0.5045(9) 0.5045(9) 0.3891(12)
O6A O 0.5045(9) -0.0000(13) -0.1109(12)
O6D O 0.4955(9) 0.0000(13) 0.3891(12)
O6E O 1.0000(13) 0.4955(9) 0.3891(12)
O6B O 1.0000(13) 0.5045(9) -0.1109(12)
O7A O 0.8038(5) 0.2359(7) 0.6728(8)
O7B O 0.7641(7) 0.5679(5) 0.6728(8)
O7F O 0.8038(5) 0.5679(5) 0.1728(8)
O7G O 0.7641(7) 0.1962(5) 0.1728(8)
O7H O 0.4321(5) 0.2359(7) 0.1728(8)
O7B_2 O 0.7641(7) 0.5679(5) -0.3272(8)
O7A_2 O 0.8038(5) 0.2359(7) -0.3272(8)
O7_2 O 0.4321(5) 0.1962(5) -0.3272(8)
O8I O 0.3798(15) 0.3119(14) -0.072(2)
O8C O 0.6881(14) 0.6202(15) 0.428(2)
O8F O 0.6202(15) 0.6881(14) 0.428(2)
O8A O 0.6202(15) -0.0679(21) -0.072(2)
O8K O 0.6881(14) 0.0679(21) -0.072(2)
C1A C 0.7656(6) 0.0000(8) 0.3582(12)
C1B C 1.0000(8) 0.7656(6) 0.3582(12)
O1 O 0.3082(7) 0.2020(7) 0.0559(10)
loop_
_geom_bond_atom_site_label_1
_geom_bond_atom_site_label_2
_geom_bond_site_symmetry_1
_geom_bond_site_symmetry_2
Co1 O2 1_555 1_555
Co2 O2 1_555 1_555
P1 H1 1_555 1_555
P2 O4 1_555 1_555
O2 P1 1_555 1_555
O3 P1 1_555 1_555
O4 Co1 1_555 1_555
O5 Co1 1_555 1_555
O6 P2 1_555 1_555
O7 P1 1_555 1_555
O8 P2 1_555 1_555
C1 O5 1_555 1_555
Co1A O2A 1_555 1_555
Co1B O2B 1_555 1_555
Co1F O6 1_555 1_555
Co1G O2G 1_555 1_555
Co1H O2H 1_555 1_555
Co1F_2 O3 1_555 1_555
Co1I O4 1_555 1_555
Co1C O6 1_555 1_555
Co1H_2 O7 1_555 1_555
Co1G_2 O3B 1_555 1_555
Co1C_2 O4C 1_555 1_555
Co1K O4A 1_555 1_555
Co1D O4D 1_555 1_555
Co1J O4B 1_555 1_555
Co2F O2F 1_555 1_555
Co2F_2 O3 1_555 1_555
P1A H1A 1_555 1_555
P1B H1B 1_555 1_555
P1F H1F 1_555 1_555
P1G H1G 1_555 1_555
P1H H1H 1_555 1_555
P2C O4C 1_555 1_555
P2A O4A 1_555 1_555
O2A Co2 1_555 1_555
O2B Co2 1_555 1_555
O2F Co1F 1_555 1_555
O2G Co2F 1_555 1_555
O2H Co2F 1_555 1_555
O3A Co1H_2 1_555 1_555
O3B Co2F_2 1_555 1_555
O3F Co1 1_555 1_555
O3G Co2 1_555 1_555
O3H Co2 1_555 1_555
O3_2 Co1F 1_555 1_555
O3A_2 Co1H 1_555 1_555
O3B_2 Co1G 1_555 1_555
O4C Co1F_2 1_555 1_555
O4A Co1A 1_555 1_555
O4B Co1B 1_555 1_555
O4C_2 Co1F 1_555 1_555
O4E Co1G 1_555 1_555
O4D Co1H 1_555 1_555
O5A Co1A 1_555 1_555
O5B Co1B 1_555 1_555
O5C Co1F 1_555 1_555
O5E Co1G 1_555 1_555
O5D Co1H 1_555 1_555
O6C Co1 1_555 1_555
O6A Co1H 1_555 1_555
O6D Co1A 1_555 1_555
O6E Co1B 1_555 1_555
O6B Co1G 1_555 1_555
O7A Co1G_2 1_555 1_555
O7B Co1F_2 1_555 1_555
O7F Co1B 1_555 1_555
O7G Co1A 1_555 1_555
O7H Co1 1_555 1_555
O7B_2 Co1F 1_555 1_555
O7A_2 Co1G 1_555 1_555
O7_2 Co1H 1_555 1_555
O8I P2 1_555 1_555
O8C P2C 1_555 1_555
O8F P2C 1_555 1_555
O8A P2A 1_555 1_555
O8K P2A 1_555 1_555
C1A O5A 1_555 1_555
C1B O5B 1_555 1_555
Co2 O3F 1_555 1_555
O5 Co1I 1_555 1_555
Co1A O3H 1_555 1_555
Co1B O3G 1_555 1_555
Co1I O6C 1_555 1_555
Co1C O4C_2 1_555 1_555
Co1C O5C 1_555 1_555
Co1K O5A 1_555 1_555
Co1K O6D 1_555 1_555
Co1D O5D 1_555 1_555
Co1D O6A 1_555 1_555
Co1J O5B 1_555 1_555
Co1J O6E 1_555 1_555
Co2F O3_2 1_555 1_555
Co2F O3A_2 1_555 1_555
Co2F O3B_2 1_555 1_555
Co2F_2 O3A 1_555 1_555
P1A O2A 1_555 1_555
P1A O3A 1_555 1_555
P1A O7A 1_555 1_555
P1B O2B 1_555 1_555
P1B O3B 1_555 1_555
P1B O7B 1_555 1_555
P1F O2F 1_555 1_555
P1F O3F 1_555 1_555
P1F O7F 1_555 1_555
P1G O2G 1_555 1_555
P1G O3G 1_555 1_555
P1G O7G 1_555 1_555
P1H O2H 1_555 1_555
P1H O3H 1_555 1_555
P1H O7H 1_555 1_555
P2C O6C 1_555 1_555
P2A O6A 1_555 1_555

#END
