
#######################################################################
#
#                 Cambridge Crystallographic Data Centre
#                                CCDC 
#
#######################################################################
#
# If this CIF has been generated from an entry in the Cambridge 
# Structural Database, then it will include bibliographic, chemical, 
# crystal, experimental, refinement or atomic coordinate data resulting 
# from the CCDC's data processing and validation procedures.
#
#######################################################################

data_MARLUP
_chemical_formula_moiety         '(C18 H38 Ce2 O22)n'
_symmetry_cell_setting           monoclinic
_symmetry_space_group_name_H-M   'P 21/n'
_symmetry_Int_Tables_number      14
_space_group_name_Hall           '-P 2yn'
loop_
_symmetry_equiv_pos_site_id
_symmetry_equiv_pos_as_xyz
1 x,y,z
2 1/2-x,1/2+y,1/2-z
3 -x,-y,-z
4 1/2+x,1/2-y,1/2+z
_cell_length_a                   18.208(2)
_cell_length_b                   8.7970(10)
_cell_length_c                   20.665(3)
_cell_angle_alpha                90
_cell_angle_beta                 112.430(10)
_cell_angle_gamma                90
_cell_volume                     3059.62
loop_
_atom_site_label
_atom_site_type_symbol
_atom_site_fract_x
_atom_site_fract_y
_atom_site_fract_z
Ce1 Ce 0.97806(3) 0.47194(8) 0.23361(3)
O1 O 1.0442(4) 0.2461(8) 0.2117(3)
O2 O 0.9553(4) 0.2072(8) 0.2952(3)
O3 O 0.8933(4) 0.4131(9) 0.3058(4)
O4 O 1.0860(4) 0.3997(10) 0.3534(4)
O5 O 1.1204(5) 0.5720(10) 0.2454(5)
O6 O 0.8391(5) 0.6073(10) 0.1832(4)
O7 O 0.9844(4) 0.7519(8) 0.1793(3)
O8 O 0.9713(4) 0.5497(9) 0.1122(3)
O9 O 0.8755(4) 0.3089(9) 0.1460(4)
O10 O 0.9954(4) 0.6977(8) 0.3126(3)
Ce2 Ce 1.00141(3) -0.02710(8) 0.25754(3)
C1 C 1.0807(6) 0.1707(14) 0.1806(5)
C2 C 0.9134(6) 0.2777(14) 0.3227(5)
H1 H 1.127(4) 0.448(12) 0.378(6)
H2 H 1.099(7) 0.308(4) 0.359(7)
H3 H 1.159(5) 0.549(15) 0.234(7)
H4 H 1.138(7) 0.657(7) 0.262(7)
H5 H 0.847(8) 0.679(9) 0.211(5)
H6 H 0.826(8) 0.643(13) 0.143(3)
C3 C 0.8764(6) 0.1890(13) 0.1167(5)
O11 O 1.0913(4) 0.0308(9) 0.1881(3)
O12 O 1.1237(4) 0.0970(9) 0.3458(4)
O13 O 1.1483(4) -0.1389(9) 0.3245(3)
O14 O 0.8573(4) -0.0987(10) 0.2506(4)
O15 O 0.8985(4) 0.0590(8) 0.1456(3)
O16 O 1.0135(5) -0.1036(8) 0.3812(3)
C4 C 1.1133(6) 0.2568(12) 0.1336(5)
C5 C 0.8932(6) 0.2002(13) 0.3776(5)
C6 C 0.8488(10) 0.1821(16) 0.0373(6)
H7 H 0.8204 -0.042(7) 0.226(5)
H8 H 0.8435 -0.110(16) 0.2845(15)
H9 H 1.0975 0.3626 0.1314
H10 H 1.1709 0.2527 0.1539
C7 C 1.0840(6) 0.1922(14) 0.0603(5)
H11 H 0.8958 0.0909 0.3726
H12 H 0.8394 0.2264 0.3722
C8 C 0.952(2) 0.249(4) 0.4516(19)
H13 H 0.8908 0.1369 0.0258
C9 C 0.8264(8) 0.3306(15) -0.0005(6)
H14 H 0.8032 0.1148 0.0197
H15 H 1.0977 0.0932 0.0537
C10 C 1.0400(7) 0.2719(14) 0.0062(5)
C11 C 0.936(2) 0.305(4) 0.5010(19)
C12 C 0.7791(6) 0.3426(15) -0.0652(6)
H16 H 0.8478 0.4191 0.0240
H17 H 1.0285 0.3721 0.0133
C13 C 1.0066(7) 0.2094(13) -0.0680(5)
C14 C 0.9948(8) 0.3484(14) 0.5695(5)
H18 H 0.7539 0.2543 -0.0874
C15 C 0.7608(6) 0.4853(14) -0.1080(6)
H19 H 1.0316 0.1122 -0.0682
H20 H 0.9502 0.1911 -0.0811
C16 C 1.0177(7) 0.3107(14) -0.1228(5)
H21 H 0.9845 0.4518 0.5799
H22 H 1.0472 0.3462 0.5677
C17 C 0.9942(6) 0.2448(13) 0.6280(5)
C18 C 0.6718(6) 0.5093(13) -0.1464(5)
H23 H 0.7857 0.4803 -0.1419
H24 H 0.7831 0.5715 -0.0776
O7_2 O 0.9844(4) -0.2481(8) 0.1793(3)
O10_2 O 0.9954(4) -0.3023(8) 0.3126(3)
O7B O 1.0156(4) 0.2481(8) -0.1793(3)
O8B O 1.0287(4) 0.4503(9) -0.1122(3)
O16B O 0.9865(5) 0.1036(8) 0.6188(3)
O10B O 1.0046(4) 0.3023(8) 0.6874(3)
O12C O 0.6237(4) 0.4030(9) -0.1542(4)
O13C O 0.6483(4) 0.6389(9) -0.1755(3)
Ce1B Ce 1.02194(3) 0.52806(8) -0.23361(3)
Ce2B Ce 0.99859(3) 0.02710(8) -0.25754(3)
Ce2B_2 Ce 0.99859(3) 0.02710(8) 0.74246(3)
Ce1B_2 Ce 1.02194(3) 0.52806(8) 0.76639(3)
Ce2C Ce 0.50141(3) 0.52710(8) -0.24246(3)
O17 O 0.2889(6) 0.1077(12) 0.0828(5)
H25 H 0.317(7) 0.137(16) 0.061(6)
H26 H 0.298(8) 0.174(12) 0.114(5)
O18 O 0.7239(5) 0.0429(13) 0.1582(6)
H27 H 0.734(8) 0.100(14) 0.193(5)
H28 H 0.685(5) -0.005(13) 0.159(6)
O19 O 0.7080(6) 0.3604(12) 0.1447(5)
H29 H 0.689(7) 0.382(15) 0.1026(19)
H30 H 0.744(6) 0.423(12) 0.161(6)
O20 O 0.7868(7) 0.8275(15) 0.0670(7)
H31 H 0.832(4) 0.821(15) 0.066(8)
H32 H 0.767(7) 0.742(8) 0.051(8)
O21 O 0.2369(6) 0.9109(18) 0.2008(7)
H33 H 0.189(3) 0.92(2) 0.194(8)
H34 H 0.238(9) 0.96(2) 0.167(7)
O22 O 0.3589(6) 0.5531(15) -0.0028(6)
H35 H 0.317(4) 0.505(13) -0.022(7)
H36 H 0.401(4) 0.505(12) 0.014(7)
loop_
_geom_bond_atom_site_label_1
_geom_bond_atom_site_label_2
_geom_bond_site_symmetry_1
_geom_bond_site_symmetry_2
Ce1 O1 1_555 1_555
O1 Ce2 1_555 1_555
O2 Ce1 1_555 1_555
O3 Ce1 1_555 1_555
O4 Ce1 1_555 1_555
O5 Ce1 1_555 1_555
O6 Ce1 1_555 1_555
O7 Ce1 1_555 1_555
O8 Ce1 1_555 1_555
O9 Ce1 1_555 1_555
O10 Ce1 1_555 1_555
Ce2 O2 1_555 1_555
C1 O1 1_555 1_555
C2 O2 1_555 1_555
H1 O4 1_555 1_555
H2 O4 1_555 1_555
H3 O5 1_555 1_555
H4 O5 1_555 1_555
H5 O6 1_555 1_555
H6 O6 1_555 1_555
C3 O9 1_555 1_555
O11 Ce2 1_555 1_555
O12 Ce2 1_555 1_555
O13 Ce2 1_555 1_555
O14 Ce2 1_555 1_555
O15 Ce2 1_555 1_555
O16 Ce2 1_555 1_555
C4 C1 1_555 1_555
C5 C2 1_555 1_555
C6 C3 1_555 1_555
H7 O14 1_555 1_555
H8 O14 1_555 1_555
H9 C4 1_555 1_555
H10 C4 1_555 1_555
C7 C4 1_555 1_555
H11 C5 1_555 1_555
H12 C5 1_555 1_555
C8 C5 1_555 1_555
H13 C6 1_555 1_555
C9 C6 1_555 1_555
H14 C6 1_555 1_555
H15 C7 1_555 1_555
C10 C7 1_555 1_555
C11 C8 1_555 1_555
C12 C9 1_555 1_555
H16 C9 1_555 1_555
H17 C10 1_555 1_555
C13 C10 1_555 1_555
C14 C11 1_555 1_555
H18 C12 1_555 1_555
C15 C12 1_555 1_555
H19 C13 1_555 1_555
H20 C13 1_555 1_555
C16 C13 1_555 1_555
H21 C14 1_555 1_555
H22 C14 1_555 1_555
C17 C14 1_555 1_555
C18 C15 1_555 1_555
H23 C15 1_555 1_555
H24 C15 1_555 1_555
O17 H25 1_555 1_555
H26 O17 1_555 1_555
O18 H27 1_555 1_555
H28 O18 1_555 1_555
O19 H29 1_555 1_555
H30 O19 1_555 1_555
O20 H31 1_555 1_555
H32 O20 1_555 1_555
O21 H33 1_555 1_555
H34 O21 1_555 1_555
O22 H35 1_555 1_555
H36 O22 1_555 1_555
O7_2 Ce2 1_555 1_555
O10_2 Ce2 1_555 1_555
O7B C16 1_555 1_555
O8B C16 1_555 1_555
O16B C17 1_555 1_555
O10B C17 1_555 1_555
O12C C18 1_555 1_555
O13C C18 1_555 1_555
Ce1B O7B 1_555 1_555
Ce2B O7B 1_555 1_555
Ce2B_2 O16B 1_555 1_555
Ce1B_2 O10B 1_555 1_555
Ce2C O12C 1_555 1_555
O3 C2 1_555 1_555
C1 O11 1_555 1_555
C3 O15 1_555 1_555
O8B Ce1B 1_555 1_555
O10B Ce2B_2 1_555 1_555
O13C Ce2C 1_555 1_555

#END
