
#######################################################################
#
#                 Cambridge Crystallographic Data Centre
#                                CCDC 
#
#######################################################################
#
# If this CIF has been generated from an entry in the Cambridge 
# Structural Database, then it will include bibliographic, chemical, 
# crystal, experimental, refinement or atomic coordinate data resulting 
# from the CCDC's data processing and validation procedures.
#
#######################################################################

data_MARLOJ
_chemical_formula_moiety         '(C18 H38 La2 O22)n'
_symmetry_cell_setting           monoclinic
_symmetry_space_group_name_H-M   'P 21/n'
_symmetry_Int_Tables_number      14
_space_group_name_Hall           '-P 2yn'
loop_
_symmetry_equiv_pos_site_id
_symmetry_equiv_pos_as_xyz
1 x,y,z
2 1/2-x,1/2+y,1/2-z
3 -x,-y,-z
4 1/2+x,1/2-y,1/2+z
_cell_length_a                   18.255(2)
_cell_length_b                   8.8340(10)
_cell_length_c                   20.698(2)
_cell_angle_alpha                90
_cell_angle_beta                 112.470(10)
_cell_angle_gamma                90
_cell_volume                     3084.45
loop_
_atom_site_label
_atom_site_type_symbol
_atom_site_fract_x
_atom_site_fract_y
_atom_site_fract_z
La1 La 0.978130(17) 0.47166(4) 0.233527(14)
La2 La 1.001381(17) -0.02736(4) 0.257616(14)
O1 O 1.0916(2) 0.0313(4) 0.1882(2)
O2 O 1.0436(2) 0.2427(4) 0.21020(19)
O3 O 1.0155(2) 0.2498(4) -0.17860(18)
O4 O 1.0285(3) 0.4489(4) -0.1111(2)
O5 O 0.8977(2) 0.0593(4) 0.14501(19)
O6 O 0.8754(2) 0.3070(4) 0.14591(19)
O7 O 0.6251(2) 0.4033(4) -0.1532(2)
O8 O 0.6496(2) 0.6392(4) -0.1744(2)
O9 O 0.9550(2) 0.2083(4) 0.29586(18)
O10 O 0.8927(2) 0.4123(4) 0.3063(2)
O11 O 0.9873(3) 0.1047(4) 0.61845(19)
O12 O 1.0055(2) 0.3022(4) 0.68705(18)
O13 O 0.8565(2) -0.0974(5) 0.2506(2)
O14 O 1.1208(3) 0.5709(5) 0.2440(3)
O15 O 0.8383(3) 0.6086(5) 0.1826(2)
O16 O 1.0870(3) 0.4004(5) 0.3536(2)
C1 C 1.0813(3) 0.1706(6) 0.1799(3)
C2 C 1.1148(3) 0.2558(7) 0.1340(3)
H1 H 1.1007 0.3619 0.1328
H2 H 1.1722 0.2484 0.1539
C3 C 1.0840(4) 0.1941(7) 0.0610(3)
H3 H 1.0977 0.0954 0.0548
C4 C 1.0396(4) 0.2689(7) 0.0060(3)
H4 H 1.0273 0.3683 0.0127
C5 C 1.0060(4) 0.2088(7) -0.0682(3)
H5 H 1.0299 0.1112 -0.0689
H6 H 0.9495 0.1929 -0.0817
C6 C 1.0186(3) 0.3094(6) -0.1214(3)
C7 C 0.8752(3) 0.1846(6) 0.1159(3)
C8 C 0.8497(6) 0.1827(8) 0.0377(3)
H7 H 0.8930 0.1409 0.0270
H8 H 0.8054 0.1133 0.0189
C9 C 0.8257(5) 0.3301(8) -0.0010(3)
H9 H 0.8452 0.4192 0.0234
C10 C 0.7799(4) 0.3403(7) -0.0657(3)
H10 H 0.7568 0.2514 -0.0886
C11 C 0.7606(4) 0.4824(8) -0.1072(3)
H11 H 0.7860 0.4794 -0.1407
H12 H 0.7831 0.5668 -0.0759
C12 C 0.6734(3) 0.5117(7) -0.1463(3)
C13 C 0.9130(3) 0.2786(6) 0.3230(3)
C14 C 0.8923(4) 0.1998(7) 0.3788(3)
H13 H 0.8928 0.0909 0.3731
H14 H 0.8397 0.2297 0.3752
C15 C 0.9539(10) 0.2460(16) 0.4499(9)
C16 C 0.9351(11) 0.3070(19) 0.5003(8)
C17 C 0.9954(4) 0.3463(8) 0.5691(3)
H15 H 0.9865 0.4495 0.5803
H16 H 1.0473 0.3424 0.5664
C18 C 0.9954(3) 0.2438(6) 0.6273(3)
H17 H 1.094(5) 0.311(3) 0.365(4)
H18 H 1.131(2) 0.436(8) 0.377(4)
H19 H 1.163(3) 0.523(8) 0.264(4)
H20 H 1.140(4) 0.657(4) 0.249(4)
H21 H 0.837(5) 0.681(6) 0.208(3)
H22 H 0.815(4) 0.641(8) 0.1425(17)
H23 H 0.820(3) -0.049(8) 0.222(3)
H24 H 0.843(4) -0.115(9) 0.284(3)
La1B La 1.021870(17) 0.52834(4) -0.233527(14)
La1B_2 La 1.021870(17) 0.52834(4) 0.766473(14)
La2B La 0.998619(17) 0.02736(4) -0.257616(14)
La2B_2 La 0.998619(17) 0.02736(4) 0.742384(14)
La2C La 0.501381(17) 0.52736(4) -0.242384(14)
O3B O 0.9845(2) -0.2498(4) 0.17860(18)
O3B_2 O 0.9845(2) 0.7502(4) 0.17860(18)
O4B O 0.9715(3) 0.5511(4) 0.1111(2)
O7C O 1.1251(2) 0.0967(4) 0.3468(2)
O8C O 1.1496(2) -0.1392(4) 0.3256(2)
O11B O 1.0127(3) -0.1047(4) 0.38155(19)
O12B O 0.9945(2) -0.3022(4) 0.31295(18)
O12B_2 O 0.9945(2) 0.6978(4) 0.31295(18)
O17 O 0.2899(3) 0.1075(6) 0.0835(3)
H25 H 0.274(5) 0.134(9) 0.0422(15)
H26 H 0.299(5) 0.188(5) 0.106(3)
O18 O 0.7240(3) 0.0413(7) 0.1581(4)
H27 H 0.736(4) 0.092(9) 0.197(3)
H28 H 0.677(2) 0.019(9) 0.152(4)
O19 O 0.7080(3) 0.3603(7) 0.1444(3)
H29 H 0.679(4) 0.387(9) 0.105(2)
H30 H 0.749(3) 0.401(9) 0.146(4)
O20 O 0.7871(4) 0.8313(8) 0.0667(4)
H31 H 0.827(3) 0.883(8) 0.083(4)
H32 H 0.776(5) 0.742(4) 0.050(4)
O21 O 0.2385(4) 0.9166(10) 0.1987(6)
H33 H 0.239(6) 0.825(3) 0.205(6)
H34 H 0.192(2) 0.946(10) 0.183(5)
O22 O 0.3603(4) 0.5521(8) -0.0026(4)
H35 H 0.396(4) 0.490(9) 0.018(5)
H36 H 0.319(3) 0.502(10) -0.022(5)
loop_
_geom_bond_atom_site_label_1
_geom_bond_atom_site_label_2
_geom_bond_site_symmetry_1
_geom_bond_site_symmetry_2
La1 O2 1_555 1_555
La2 O1 1_555 1_555
O1 C1 1_555 1_555
O2 La2 1_555 1_555
O3 C6 1_555 1_555
O4 C6 1_555 1_555
O5 La2 1_555 1_555
O6 La1 1_555 1_555
O7 C12 1_555 1_555
O8 C12 1_555 1_555
O9 La1 1_555 1_555
O10 La1 1_555 1_555
O11 C18 1_555 1_555
O12 C18 1_555 1_555
O13 La2 1_555 1_555
O14 La1 1_555 1_555
O15 La1 1_555 1_555
O16 La1 1_555 1_555
C1 O2 1_555 1_555
C2 C1 1_555 1_555
H1 C2 1_555 1_555
H2 C2 1_555 1_555
C3 C2 1_555 1_555
H3 C3 1_555 1_555
C4 C3 1_555 1_555
H4 C4 1_555 1_555
C5 C4 1_555 1_555
H5 C5 1_555 1_555
H6 C5 1_555 1_555
C6 C5 1_555 1_555
C7 O5 1_555 1_555
C8 C7 1_555 1_555
H7 C8 1_555 1_555
H8 C8 1_555 1_555
C9 C8 1_555 1_555
H9 C9 1_555 1_555
C10 C9 1_555 1_555
H10 C10 1_555 1_555
C11 C10 1_555 1_555
H11 C11 1_555 1_555
H12 C11 1_555 1_555
C12 C11 1_555 1_555
C13 O9 1_555 1_555
C14 C13 1_555 1_555
H13 C14 1_555 1_555
H14 C14 1_555 1_555
C15 C14 1_555 1_555
C16 C15 1_555 1_555
C17 C16 1_555 1_555
H15 C17 1_555 1_555
H16 C17 1_555 1_555
C18 C17 1_555 1_555
H17 O16 1_555 1_555
H18 O16 1_555 1_555
H19 O14 1_555 1_555
H20 O14 1_555 1_555
H21 O15 1_555 1_555
H22 O15 1_555 1_555
H23 O13 1_555 1_555
H24 O13 1_555 1_555
O17 H25 1_555 1_555
H26 O17 1_555 1_555
O18 H27 1_555 1_555
H28 O18 1_555 1_555
O19 H29 1_555 1_555
H30 O19 1_555 1_555
O20 H31 1_555 1_555
H32 O20 1_555 1_555
O21 H33 1_555 1_555
H34 O21 1_555 1_555
O22 H35 1_555 1_555
H36 O22 1_555 1_555
La1B O3 1_555 1_555
La1B_2 O12 1_555 1_555
La2B O3 1_555 1_555
La2B_2 O11 1_555 1_555
La2C O7 1_555 1_555
O3B La2 1_555 1_555
O3B_2 La1 1_555 1_555
O4B La1 1_555 1_555
O7C La2 1_555 1_555
O8C La2 1_555 1_555
O11B La2 1_555 1_555
O12B La2 1_555 1_555
O12B_2 La1 1_555 1_555
La2 O9 1_555 1_555
O4 La1B 1_555 1_555
O6 C7 1_555 1_555
O8 La2C 1_555 1_555
O10 C13 1_555 1_555
O12 La2B_2 1_555 1_555

#END
