
#######################################################################
#
#                 Cambridge Crystallographic Data Centre
#                                CCDC 
#
#######################################################################
#
# If this CIF has been generated from an entry in the Cambridge 
# Structural Database, then it will include bibliographic, chemical, 
# crystal, experimental, refinement or atomic coordinate data resulting 
# from the CCDC's data processing and validation procedures.
#
#######################################################################

data_AQUDIB
_chemical_formula_moiety         '(C8 H2 Ne1 Ni2 O6)n'
_symmetry_cell_setting           rhombohedral
_symmetry_space_group_name_H-M   'R -3'
_symmetry_Int_Tables_number      148
_space_group_name_Hall           '-R 3'
loop_
_symmetry_equiv_pos_site_id
_symmetry_equiv_pos_as_xyz
1 x,y,z
2 -y,x-y,z
3 -x+y,-x,z
4 2/3+x,1/3+y,1/3+z
5 2/3-y,1/3+x-y,1/3+z
6 2/3-x+y,1/3-x,1/3+z
7 1/3+x,2/3+y,2/3+z
8 1/3-y,2/3+x-y,2/3+z
9 1/3-x+y,2/3-x,2/3+z
10 -x,-y,-z
11 y,-x+y,-z
12 x-y,x,-z
13 1/3-x,2/3-y,2/3-z
14 1/3+y,2/3-x+y,2/3-z
15 1/3+x-y,2/3+x,2/3-z
16 2/3-x,1/3-y,1/3-z
17 2/3+y,1/3-x+y,1/3-z
18 2/3+x-y,1/3+x,1/3-z
_cell_length_a                   25.7522(3)
_cell_length_b                   25.7522(3)
_cell_length_c                   6.7576(3)
_cell_angle_alpha                90
_cell_angle_beta                 90
_cell_angle_gamma                120
_cell_volume                     3881.07
loop_
_atom_site_label
_atom_site_type_symbol
_atom_site_fract_x
_atom_site_fract_y
_atom_site_fract_z
_atom_site_U_iso_or_equiv
_atom_site_thermal_displace_type
Ni1 Ni 0.61899(8) 0.64771(9) 0.3532(3) 0.0621 Uiso
O1 O 0.438614 0.406244 0.434232 0.0621 Uiso
O2 O 0.368971 0.365436 0.216567 0.0621 Uiso
O3 O 0.614437 0.582814 0.157977 0.0621 Uiso
C1 C 0.418153 0.406857 0.253761 0.0621 Uiso
C2 C 0.462557 0.4533 0.11806 0.0621 Uiso
C3 C 0.559669 0.548566 0.080323 0.0621 Uiso
C4 C 0.518049 0.496704 0.194141 0.0621 Uiso
H1 H 0.528839 0.491907 0.32607 0.0745 Uiso
O1I O 0.561386 0.593756 -0.434232 0.0621 Uiso
O2I O 0.631029 0.634564 -0.216567 0.0621 Uiso
O3I O 0.385563 0.417186 -0.157977 0.0621 Uiso
C1I C 0.581847 0.593143 -0.253761 0.0621 Uiso
C2I C 0.537443 0.5467 -0.11806 0.0621 Uiso
C3I C 0.440331 0.451434 -0.080323 0.0621 Uiso
C4I C 0.481951 0.503296 -0.194141 0.0621 Uiso
H1I H 0.471161 0.508093 -0.32607 0.0745 Uiso
Ni1I Ni 0.38101(8) 0.35229(9) -0.3532(3) 0.0621 Uiso
Ni1_2 Ni 0.61899(8) 0.64771(9) -0.6468(3) 0.0621 Uiso
Ni1I_2 Ni 0.38101(8) 0.35229(9) 0.6468(3) 0.0621 Uiso
Ni1E Ni 0.69539(12) 0.71434(8) -0.3135(3) 0.0621 Uiso
Ni1P Ni 0.31438(9) 0.36205(12) -0.0199(3) 0.0621 Uiso
Ni1G Ni 0.68562(9) 0.63795(12) 0.0199(3) 0.0621 Uiso
Ni1N Ni 0.30461(12) 0.28566(8) 0.3135(3) 0.0621 Uiso
O1_2 O 0.438614 0.406244 -0.565768 0.0621 Uiso
O1I_2 O 0.561386 0.593756 0.565768 0.0621 Uiso
O2D O 0.301231 0.336868 -0.450100 0.0621 Uiso
O2Q O 0.670202 0.702304 0.116766 0.0621 Uiso
O2H O 0.329798 0.297696 -0.116766 0.0621 Uiso
O2M O 0.698769 0.663132 0.450100 0.0621 Uiso
O3E O 0.635044 0.718896 0.491310 0.0621 Uiso
O3N O 0.364956 0.281104 -0.491310 0.0621 Uiso
Ne1 Ne 0.1912(13) 0.5242(12) 0.173(5) 0.1860 Uiso
loop_
_geom_bond_atom_site_label_1
_geom_bond_atom_site_label_2
_geom_bond_site_symmetry_1
_geom_bond_site_symmetry_2
Ni1 O3 1_555 1_555
O1 C1 1_555 1_555
O2 C1 1_555 1_555
O3 C3 1_555 1_555
C1 C2 1_555 1_555
C2 C4 1_555 1_555
C3 C4 1_555 1_555
C4 H1 1_555 1_555
O1I C1I 1_555 1_555
O2I C1I 1_555 1_555
O3I C3I 1_555 1_555
C1I C2I 1_555 1_555
C2I C3 1_555 1_555
C3I C2 1_555 1_555
C4I C2I 1_555 1_555
H1I C4I 1_555 1_555
Ni1I O3I 1_555 1_555
Ni1_2 O1I 1_555 1_555
Ni1I_2 O1 1_555 1_555
Ni1E O2I 1_555 1_555
Ni1P O2 1_555 1_555
Ni1G O3 1_555 1_555
Ni1N O2 1_555 1_555
O1_2 Ni1I 1_555 1_555
O1I_2 Ni1 1_555 1_555
O2D Ni1I 1_555 1_555
O2Q Ni1 1_555 1_555
O2H Ni1I 1_555 1_555
O2M Ni1 1_555 1_555
O3E Ni1 1_555 1_555
O3N Ni1I 1_555 1_555
O2I Ni1G 1_555 1_555
O3I Ni1P 1_555 1_555
C3I C4I 1_555 1_555
Ni1P O2H 1_555 1_555
Ni1G O2Q 1_555 1_555

#END
