
#######################################################################
#
#                 Cambridge Crystallographic Data Centre
#                                CCDC 
#
#######################################################################
#
# If this CIF has been generated from an entry in the Cambridge 
# Structural Database, then it will include bibliographic, chemical, 
# crystal, experimental, refinement or atomic coordinate data resulting 
# from the CCDC's data processing and validation procedures.
#
#######################################################################

data_NUDLAA
_chemical_formula_moiety         '(C104 H64 N20 O25 Zn8)n'
_symmetry_cell_setting           tetragonal
_symmetry_space_group_name_H-M   'I 41 2 2'
_symmetry_Int_Tables_number      98
_space_group_name_Hall           'I 4bw 2bw'
loop_
_symmetry_equiv_pos_site_id
_symmetry_equiv_pos_as_xyz
1 x,y,z
2 1/2-x,1/2-y,1/2+z
3 -y,1/2+x,1/4+z
4 1/2+y,-x,3/4+z
5 1/2-x,y,3/4-z
6 x,1/2-y,1/4-z
7 1/2+y,1/2+x,1/2-z
8 -y,-x,-z
9 1/2+x,1/2+y,1/2+z
10 -x,-y,z
11 1/2-y,x,3/4+z
12 y,1/2-x,1/4+z
13 -x,1/2+y,1/4-z
14 1/2+x,-y,3/4-z
15 y,x,-z
16 1/2-y,1/2-x,1/2-z
_cell_length_a                   38.237(2)
_cell_length_b                   38.237(2)
_cell_length_c                   11.1753(12)
_cell_angle_alpha                90
_cell_angle_beta                 90
_cell_angle_gamma                90
_cell_volume                     16339.1
loop_
_atom_site_label
_atom_site_type_symbol
_atom_site_fract_x
_atom_site_fract_y
_atom_site_fract_z
Zn1 Zn 0.50060(2) 0.04085(4) -0.35350(8)
Zn2 Zn 0.41168(3) 0.41168(3) 0.0000
Zn3 Zn 0.58676(3) 0.41324(3) 0.0000
O1 O 0.5000 0.0000 -0.2500
O2 O 0.50160(18) 0.1082(4) -0.4233(8)
O3 O 0.48810(19) 0.0817(3) -0.2556(8)
O4 O 0.42990(19) 0.3702(3) -0.0711(8)
O5 O 0.4016(2) 0.3484(2) 0.0769(7)
O6 O 0.6290(2) 0.4313(3) 0.0840(9)
O7 O 0.6213(4) 0.3793(5) 0.1426(15)
N1 N 0.4670(2) 0.4612(3) 0.2780(8)
N2 N 0.5285(3) 0.4586(3) 0.2752(11)
N3 N 0.5477(2) 0.4250(2) 0.1190(11)
N4 N 0.4508(3) 0.4236(3) 0.1195(10)
N5 N 0.5001(4) 0.39191(19) -0.0175(7)
H1 H 0.4783 0.3870 -0.0268
H2 H 0.5155 0.3828 -0.0642
C1 C 0.4416(4) 0.4472(4) 0.2124(13)
H3 H 0.4183 0.4528 0.2271
C2 C 0.4957(3) 0.4502(3) 0.2354(9)
C3 C 0.5549(4) 0.4444(3) 0.2098(10)
H4 H 0.5781 0.4486 0.2306
C4 C 0.5110(2) 0.4157(3) 0.0777(11)
C5 C 0.4869(3) 0.4280(3) 0.1425(10)
C6 C 0.4935(3) 0.1082(5) -0.3203(12)
C7 C 0.49060(19) 0.1733(3) -0.3272(8)
H5 H 0.5013 0.1719 -0.4018
C8 C 0.48080(15) 0.2056(3) -0.2810(9)
H6 H 0.4850 0.2259 -0.3246
C9 C 0.46480(14) 0.2076(3) -0.1695(8)
C10 C 0.45860(19) 0.1773(3) -0.1043(7)
H7 H 0.4479 0.1786 -0.0297
C11 C 0.46840(15) 0.1449(3) -0.1505(8)
H8 H 0.4642 0.1247 -0.1068
C12 C 0.48440(14) 0.1430(3) -0.2619(8)
C13 C 0.4725(2) 0.2714(3) -0.1567(13)
H9 H 0.4922 0.2690 -0.2051
C14 C 0.46160(16) 0.3045(3) -0.1210(13)
H10 H 0.4739 0.3241 -0.1455
C15 C 0.43230(14) 0.3081(3) -0.0487(9)
C16 C 0.41380(19) 0.2786(2) -0.0121(9)
H11 H 0.3942 0.2810 0.0363
C17 C 0.42470(15) 0.2456(3) -0.0478(9)
H12 H 0.4124 0.2259 -0.0233
C18 C 0.45410(14) 0.2419(3) -0.1201(10)
C19 C 0.4195(3) 0.3441(3) -0.0101(13)
C20 C 0.6383(4) 0.4078(5) 0.1442(16)
C21 C 0.6764(4) 0.3828(4) 0.310(2)
H13 H 0.6598 0.3659 0.3282
C22 C 0.7077(5) 0.3842(5) 0.3729(17)
H14 H 0.7120 0.3681 0.4335
C23 C 0.7325(4) 0.4095(5) 0.345(2)
C24 C 0.7260(5) 0.4335(5) 0.255(2)
H15 H 0.7426 0.4505 0.2362
C25 C 0.6947(5) 0.4322(5) 0.1915(17)
H16 H 0.6903 0.4483 0.1308
C26 C 0.6699(3) 0.4069(4) 0.2191(15)
Zn1N Zn 0.04085(4) 0.50060(2) 0.35350(8)
Zn1J Zn 0.45915(4) 0.50060(2) 0.39650(8)
Zn1E Zn 0.50060(2) 0.45915(4) -0.39650(8)
Zn1F Zn 0.54085(4) 0.00060(2) -0.14650(8)
Zn1I Zn 0.49940(2) -0.04085(4) -0.35350(8)
Zn1O Zn 0.45915(4) -0.00060(2) -0.14650(8)
Zn1C Zn 0.54085(4) 0.49940(2) 0.39650(8)
Zn1L Zn 0.49940(2) 0.54085(4) -0.39650(8)
Zn2D Zn 0.08832(3) 0.41168(3) 0.7500
Zn2E Zn 0.41168(3) 0.08832(3) -0.7500
Zn2B Zn 0.58832(3) -0.08832(3) -0.7500
Zn3I Zn 0.41324(3) 0.58676(3) 0.0000
Zn3C Zn 0.91324(3) 0.41324(3) 0.7500
Zn3K Zn 0.41324(3) -0.08676(3) -0.7500
Zn3B Zn 0.58676(3) 0.08676(3) -0.7500
O1A O -0.0000 0.5000 0.2500
O1C O 0.5000 0.5000 0.5000
O1C_2 O 0.5000 0.5000 -0.5000
O2N O 0.1082(4) 0.50160(18) 0.4233(8)
O2J O 0.3918(4) 0.50160(18) 0.3267(8)
O2E O 0.50160(18) 0.3918(4) -0.3267(8)
O3N O 0.0817(3) 0.48810(19) 0.2556(8)
O3J O 0.4183(3) 0.48810(19) 0.4944(8)
O3E O 0.48810(19) 0.4183(3) -0.4944(8)
O4N O 0.3702(3) 0.42990(19) 0.0711(8)
O4J O 0.1298(3) 0.42990(19) 0.6789(8)
O4E O 0.42990(19) 0.1298(3) -0.6789(8)
O4D O 0.07010(19) 0.3702(3) 0.8211(8)
O5N O 0.3484(2) 0.4016(2) -0.0769(7)
O5J O 0.1516(2) 0.4016(2) 0.8269(7)
O5E O 0.4016(2) 0.1516(2) -0.8269(7)
O6D O 0.8710(2) 0.4313(3) 0.6660(9)
O6G O 0.5687(3) 0.3710(2) -0.0840(9)
O6B O 0.5687(3) 0.1290(2) -0.6660(9)
O6N O 0.4313(3) 0.6290(2) -0.0840(9)
O6I O 0.3710(2) 0.5687(3) 0.0840(9)
O7D O 0.8787(4) 0.3793(5) 0.6074(15)
O7G O 0.6207(5) 0.3787(4) -0.1426(15)
O7B O 0.6207(5) 0.1213(4) -0.6074(15)
O7N O 0.3793(5) 0.6213(4) -0.1426(15)
O7I O 0.3787(4) 0.6207(5) 0.1426(15)
N1N N 0.4612(3) 0.4670(2) -0.2780(8)
N1K N 0.4612(3) 0.0330(2) -0.4720(8)
N1B N 0.5388(3) -0.0330(2) -0.4720(8)
N1D N 0.0330(2) 0.4612(3) 0.4720(8)
N2N N 0.4586(3) 0.5285(3) -0.2752(11)
N2K N 0.4586(3) -0.0285(3) -0.4748(11)
N2B N 0.5414(3) 0.0285(3) -0.4748(11)
N2M N 0.0285(3) 0.5414(3) 0.4748(11)
N2I N 0.4715(3) 0.5414(3) 0.2752(11)
N2G N 0.5414(3) 0.4715(3) -0.2752(11)
N3N N 0.4250(2) 0.5477(2) -0.1190(11)
N3K N 0.4250(2) -0.0477(2) -0.6310(11)
N3B N 0.5750(2) 0.0477(2) -0.6310(11)
N3G N 0.5750(2) 0.4523(2) -0.1190(11)
N3I N 0.4523(2) 0.5750(2) 0.1190(11)
N4N N 0.4236(3) 0.4508(3) -0.1195(10)
N4K N 0.4236(3) 0.0492(3) -0.6305(10)
N4B N 0.5764(3) -0.0492(3) -0.6305(10)
N4J N 0.0764(3) 0.4508(3) 0.8695(10)
N4D N 0.0492(3) 0.4236(3) 0.6305(10)
N5N N 0.39191(19) 0.5001(4) 0.0175(7)
N5K N 0.39191(19) -0.0001(4) -0.7675(7)
N5B N 0.60809(19) 0.0001(4) -0.7675(7)
H1N H 0.3870 0.4783 0.0268
H1K H 0.3870 0.0217 -0.7768
H1B H 0.6130 -0.0217 -0.7768
H2N H 0.3828 0.5155 0.0642
H2K H 0.3828 -0.0155 -0.8142
H2B H 0.6172 0.0155 -0.8142
C1N C 0.4472(4) 0.4416(4) -0.2124(13)
C1K C 0.4472(4) 0.0584(4) -0.5376(13)
C1B C 0.5528(4) -0.0584(4) -0.5376(13)
H3N H 0.4528 0.4183 -0.2271
H3K H 0.4528 0.0817 -0.5229
H3B H 0.5472 -0.0817 -0.5229
C2N C 0.4502(3) 0.4957(3) -0.2354(9)
C2K C 0.4502(3) 0.0043(3) -0.5146(9)
C2B C 0.5498(3) -0.0043(3) -0.5146(9)
C3N C 0.4444(3) 0.5549(4) -0.2098(10)
C3K C 0.4444(3) -0.0549(4) -0.5402(10)
C3B C 0.5556(3) 0.0549(4) -0.5402(10)
H4N H 0.4486 0.5781 -0.2306
H4K H 0.4486 -0.0781 -0.5194
H4B H 0.5514 0.0781 -0.5194
C4N C 0.4157(3) 0.5110(2) -0.0777(11)
C4K C 0.4157(3) -0.0110(2) -0.6723(11)
C4B C 0.5843(3) 0.0110(2) -0.6723(11)
C5N C 0.4280(3) 0.4869(3) -0.1425(10)
C5K C 0.4280(3) 0.0131(3) -0.6075(10)
C5B C 0.5720(3) -0.0131(3) -0.6075(10)
C6N C 0.1082(5) 0.4935(3) 0.3203(12)
C6J C 0.3918(5) 0.4935(3) 0.4297(12)
C6E C 0.4935(3) 0.3918(5) -0.4297(12)
C7N C 0.1733(3) 0.49060(19) 0.3272(8)
C7J C 0.3267(3) 0.49060(19) 0.4228(8)
C7E C 0.49060(19) 0.3267(3) -0.4228(8)
H5N H 0.1719 0.5013 0.4018
H5J H 0.3281 0.5013 0.3482
H5E H 0.5013 0.3281 -0.3482
C8N C 0.2056(3) 0.48080(15) 0.2810(9)
C8J C 0.2944(3) 0.48080(15) 0.4690(9)
C8E C 0.48080(15) 0.2944(3) -0.4690(9)
H6N H 0.2259 0.4850 0.3246
H6J H 0.2741 0.4850 0.4254
H6E H 0.4850 0.2741 -0.4254
C9N C 0.2076(3) 0.46480(14) 0.1695(8)
C9J C 0.2924(3) 0.46480(14) 0.5805(8)
C9E C 0.46480(14) 0.2924(3) -0.5805(8)
C10N C 0.1773(3) 0.45860(19) 0.1043(7)
C10J C 0.3227(3) 0.45860(19) 0.6457(7)
C10E C 0.45860(19) 0.3227(3) -0.6457(7)
H7N H 0.1786 0.4479 0.0297
H7J H 0.3214 0.4479 0.7203
H7E H 0.4479 0.3214 -0.7203
C11N C 0.1449(3) 0.46840(15) 0.1505(8)
C11J C 0.3551(3) 0.46840(15) 0.5995(8)
C11E C 0.46840(15) 0.3551(3) -0.5995(8)
H8N H 0.1247 0.4642 0.1068
H8J H 0.3753 0.4642 0.6432
H8E H 0.4642 0.3753 -0.6432
C12N C 0.1430(3) 0.48440(14) 0.2619(8)
C12J C 0.3570(3) 0.48440(14) 0.4881(8)
C12E C 0.48440(14) 0.3570(3) -0.4881(8)
C13N C 0.2714(3) 0.4725(2) 0.1567(13)
C13J C 0.2286(3) 0.4725(2) 0.5933(13)
C13E C 0.4725(2) 0.2286(3) -0.5933(13)
H9N H 0.2690 0.4922 0.2051
H9J H 0.2310 0.4922 0.5449
H9E H 0.4922 0.2310 -0.5449
C14N C 0.3045(3) 0.46160(16) 0.1210(13)
C14J C 0.1955(3) 0.46160(16) 0.6290(13)
C14E C 0.46160(16) 0.1955(3) -0.6290(13)
H10N H 0.3241 0.4739 0.1455
H10J H 0.1759 0.4739 0.6045
H10E H 0.4739 0.1759 -0.6045
C15N C 0.3081(3) 0.43230(14) 0.0487(9)
C15J C 0.1919(3) 0.43230(14) 0.7013(9)
C15E C 0.43230(14) 0.1919(3) -0.7013(9)
C16N C 0.2786(2) 0.41380(19) 0.0121(9)
C16J C 0.2214(2) 0.41380(19) 0.7379(9)
C16E C 0.41380(19) 0.2214(2) -0.7379(9)
H11N H 0.2810 0.3942 -0.0363
H11J H 0.2190 0.3942 0.7863
H11E H 0.3942 0.2190 -0.7863
C17N C 0.2456(3) 0.42470(15) 0.0478(9)
C17J C 0.2544(3) 0.42470(15) 0.7022(9)
C17E C 0.42470(15) 0.2544(3) -0.7022(9)
H12N H 0.2259 0.4124 0.0233
H12J H 0.2741 0.4124 0.7267
H12E H 0.4124 0.2741 -0.7267
C18N C 0.2419(3) 0.45410(14) 0.1201(10)
C18J C 0.2581(3) 0.45410(14) 0.6299(10)
C18E C 0.45410(14) 0.2581(3) -0.6299(10)
C19N C 0.3441(3) 0.4195(3) 0.0101(13)
C19J C 0.1559(3) 0.4195(3) 0.7399(13)
C19E C 0.4195(3) 0.1559(3) -0.7399(13)
C20D C 0.8617(4) 0.4078(5) 0.6058(16)
C20G C 0.5922(5) 0.3617(4) -0.1442(16)
C20B C 0.5922(5) 0.1383(4) -0.6058(16)
C21D C 0.8236(4) 0.3828(4) 0.440(2)
C21G C 0.6172(4) 0.3236(4) -0.310(2)
C21B C 0.6172(4) 0.1764(4) -0.440(2)
H13D H 0.8402 0.3659 0.4218
H13G H 0.6341 0.3402 -0.3282
H13B H 0.6341 0.1598 -0.4218
C22D C 0.7923(5) 0.3842(5) 0.3771(17)
C22G C 0.6158(5) 0.2923(5) -0.3729(17)
C22B C 0.6158(5) 0.2077(5) -0.3771(17)
H14D H 0.7880 0.3681 0.3165
H14G H 0.6319 0.2880 -0.4335
H14B H 0.6319 0.2120 -0.3165
C23D C 0.7675(4) 0.4095(5) 0.405(2)
C23G C 0.5905(5) 0.2675(4) -0.345(2)
C23B C 0.5905(5) 0.2325(4) -0.405(2)
C24D C 0.7740(5) 0.4335(5) 0.495(2)
C24G C 0.5665(5) 0.2740(5) -0.255(2)
C24B C 0.5665(5) 0.2260(5) -0.495(2)
H15D H 0.7574 0.4505 0.5138
H15G H 0.5495 0.2574 -0.2362
H15B H 0.5495 0.2426 -0.5138
C25D C 0.8053(5) 0.4322(5) 0.5585(17)
C25G C 0.5678(5) 0.3053(5) -0.1915(17)
C25B C 0.5678(5) 0.1947(5) -0.5585(17)
H16D H 0.8097 0.4483 0.6192
H16G H 0.5517 0.3097 -0.1308
H16B H 0.5517 0.1903 -0.6192
C26D C 0.8301(3) 0.4069(4) 0.5309(15)
C26G C 0.5931(4) 0.3301(3) -0.2191(15)
C26B C 0.5931(4) 0.1699(3) -0.5309(15)
loop_
_geom_bond_atom_site_label_1
_geom_bond_atom_site_label_2
_geom_bond_site_symmetry_1
_geom_bond_site_symmetry_2
Zn1 O1 1_555 1_555
Zn2 O4 1_555 1_555
Zn3 O6 1_555 1_555
O1 Zn1F 1_555 1_555
O2 C6 1_555 1_555
O3 Zn1 1_555 1_555
O4 C19 1_555 1_555
O5 C19 1_555 1_555
O6 C20 1_555 1_555
O7 Zn3 1_555 1_555
N1 C1 1_555 1_555
N2 C2 1_555 1_555
N3 Zn3 1_555 1_555
N4 Zn2 1_555 1_555
N5 H1 1_555 1_555
H2 N5 1_555 1_555
C1 N4 1_555 1_555
H3 C1 1_555 1_555
C2 N1 1_555 1_555
C3 N2 1_555 1_555
H4 C3 1_555 1_555
C4 N3 1_555 1_555
C5 N4 1_555 1_555
C6 O3 1_555 1_555
C7 H5 1_555 1_555
C8 C7 1_555 1_555
H6 C8 1_555 1_555
C9 C8 1_555 1_555
C10 C9 1_555 1_555
H7 C10 1_555 1_555
C11 C10 1_555 1_555
H8 C11 1_555 1_555
C12 C6 1_555 1_555
C13 H9 1_555 1_555
C14 C13 1_555 1_555
H10 C14 1_555 1_555
C15 C14 1_555 1_555
C16 C15 1_555 1_555
H11 C16 1_555 1_555
C17 C16 1_555 1_555
H12 C17 1_555 1_555
C18 C9 1_555 1_555
C19 C15 1_555 1_555
C20 O7 1_555 1_555
C21 H13 1_555 1_555
C22 C21 1_555 1_555
H14 C22 1_555 1_555
C23 C22 1_555 1_555
C24 C23 1_555 1_555
H15 C24 1_555 1_555
C25 C24 1_555 1_555
H16 C25 1_555 1_555
C26 C20 1_555 1_555
Zn1N O1A 1_555 1_555
Zn1J N1 1_555 1_555
Zn1E O1C_2 1_555 1_555
Zn1I O1 1_555 1_555
Zn1O O1 1_555 1_555
Zn1C N2 1_555 1_555
Zn1L O1C_2 1_555 1_555
Zn2D O4J 1_555 1_555
Zn2E O4E 1_555 1_555
Zn2B N4B 1_555 1_555
Zn3I O6N 1_555 1_555
Zn3C O6D 1_555 1_555
Zn3K N3K 1_555 1_555
Zn3B O6B 1_555 1_555
O1C Zn1J 1_555 1_555
O2N C6N 1_555 1_555
O2J C6J 1_555 1_555
O2E C6E 1_555 1_555
O3N Zn1N 1_555 1_555
O3J Zn1J 1_555 1_555
O3E Zn1E 1_555 1_555
O4N Zn2 1_555 1_555
O4J C19J 1_555 1_555
O4E C19E 1_555 1_555
O4D Zn2D 1_555 1_555
O5N C19N 1_555 1_555
O5J C19J 1_555 1_555
O5E C19E 1_555 1_555
O6D C20D 1_555 1_555
O6G Zn3 1_555 1_555
O6B C20B 1_555 1_555
O6I Zn3I 1_555 1_555
O7D Zn3C 1_555 1_555
O7G Zn3 1_555 1_555
O7B Zn3B 1_555 1_555
O7N Zn3I 1_555 1_555
O7I Zn3I 1_555 1_555
N1N Zn1E 1_555 1_555
N1K Zn1 1_555 1_555
N1B Zn1I 1_555 1_555
N1D Zn1N 1_555 1_555
N2N Zn1L 1_555 1_555
N2K Zn1I 1_555 1_555
N2B Zn1 1_555 1_555
N2M Zn1N 1_555 1_555
N2I Zn1J 1_555 1_555
N2G Zn1E 1_555 1_555
N3N Zn3I 1_555 1_555
N3K C3K 1_555 1_555
N3B Zn3B 1_555 1_555
N3G Zn3 1_555 1_555
N3I Zn3I 1_555 1_555
N4N Zn2 1_555 1_555
N4K Zn2E 1_555 1_555
N4B C1B 1_555 1_555
N4J Zn2D 1_555 1_555
N4D Zn2D 1_555 1_555
N5N H1N 1_555 1_555
N5K H1K 1_555 1_555
N5B H1B 1_555 1_555
H2N N5N 1_555 1_555
H2K N5K 1_555 1_555
H2B N5B 1_555 1_555
C1N N1N 1_555 1_555
C1K N1K 1_555 1_555
C1B N1B 1_555 1_555
H3N C1N 1_555 1_555
H3K C1K 1_555 1_555
H3B C1B 1_555 1_555
C2N N1N 1_555 1_555
C2K N1K 1_555 1_555
C2B N1B 1_555 1_555
C3N N2N 1_555 1_555
C3K N2K 1_555 1_555
C3B N2B 1_555 1_555
H4N C3N 1_555 1_555
H4K C3K 1_555 1_555
H4B C3B 1_555 1_555
C4N N3N 1_555 1_555
C4K N3K 1_555 1_555
C4B N3B 1_555 1_555
C5N N4N 1_555 1_555
C5K N4K 1_555 1_555
C5B N4B 1_555 1_555
C6N O3N 1_555 1_555
C6J O3J 1_555 1_555
C6E O3E 1_555 1_555
C7N H5N 1_555 1_555
C7J H5J 1_555 1_555
C7E H5E 1_555 1_555
C8N C7N 1_555 1_555
C8J C7J 1_555 1_555
C8E C7E 1_555 1_555
H6N C8N 1_555 1_555
H6J C8J 1_555 1_555
H6E C8E 1_555 1_555
C9N C8N 1_555 1_555
C9J C8J 1_555 1_555
C9E C8E 1_555 1_555
C10N C9N 1_555 1_555
C10J C9J 1_555 1_555
C10E C9E 1_555 1_555
H7N C10N 1_555 1_555
H7J C10J 1_555 1_555
H7E C10E 1_555 1_555
C11N C10N 1_555 1_555
C11J C10J 1_555 1_555
C11E C10E 1_555 1_555
H8N C11N 1_555 1_555
H8J C11J 1_555 1_555
H8E C11E 1_555 1_555
C12N C6N 1_555 1_555
C12J C6J 1_555 1_555
C12E C6E 1_555 1_555
C13N H9N 1_555 1_555
C13J H9J 1_555 1_555
C13E H9E 1_555 1_555
C14N C13N 1_555 1_555
C14J C13J 1_555 1_555
C14E C13E 1_555 1_555
H10N C14N 1_555 1_555
H10J C14J 1_555 1_555
H10E C14E 1_555 1_555
C15N C14N 1_555 1_555
C15J C14J 1_555 1_555
C15E C14E 1_555 1_555
C16N C15N 1_555 1_555
C16J C15J 1_555 1_555
C16E C15E 1_555 1_555
H11N C16N 1_555 1_555
H11J C16J 1_555 1_555
H11E C16E 1_555 1_555
C17N C16N 1_555 1_555
C17J C16J 1_555 1_555
C17E C16E 1_555 1_555
H12N C17N 1_555 1_555
H12J C17J 1_555 1_555
H12E C17E 1_555 1_555
C18N C9N 1_555 1_555
C18J C9J 1_555 1_555
C18E C9E 1_555 1_555
C19N O4N 1_555 1_555
C19J C15J 1_555 1_555
C19E C15E 1_555 1_555
C20D O7D 1_555 1_555
C20G O6G 1_555 1_555
C20B O7B 1_555 1_555
C21D H13D 1_555 1_555
C21G H13G 1_555 1_555
C21B H13B 1_555 1_555
C22D C21D 1_555 1_555
C22G C21G 1_555 1_555
C22B C21B 1_555 1_555
H14D C22D 1_555 1_555
H14G C22G 1_555 1_555
H14B C22B 1_555 1_555
C23D C23 1_555 1_555
C23G C22G 1_555 1_555
C23B C22B 1_555 1_555
C24D C23D 1_555 1_555
C24G C23G 1_555 1_555
C24B C23B 1_555 1_555
H15D C24D 1_555 1_555
H15G C24G 1_555 1_555
H15B C24B 1_555 1_555
C25D C24D 1_555 1_555
C25G C24G 1_555 1_555
C25B C24B 1_555 1_555
H16D C25D 1_555 1_555
H16G C25G 1_555 1_555
H16B C25B 1_555 1_555
C26D C20D 1_555 1_555
C26G C20G 1_555 1_555
C26B C20B 1_555 1_555
N3 C3 1_555 1_555
N5 C4 1_555 1_555
C2 C5 1_555 1_555
C4 C5 1_555 1_555
C7 C12 1_555 1_555
C11 C12 1_555 1_555
C13 C18 1_555 1_555
C17 C18 1_555 1_555
C21 C26 1_555 1_555
C25 C26 1_555 1_555
Zn1C O1C 1_555 1_555
O7G C20G 1_555 1_555
N2N C2N 1_555 1_555
N2K C2K 1_555 1_555
N2B C2B 1_555 1_555
N3N C3N 1_555 1_555
N3B C3B 1_555 1_555
N4N C1N 1_555 1_555
N4K C1K 1_555 1_555
N5N C4N 1_555 1_555
N5K C4K 1_555 1_555
N5B C4B 1_555 1_555
C2N C5N 1_555 1_555
C2K C5K 1_555 1_555
C2B C5B 1_555 1_555
C4N C5N 1_555 1_555
C4K C5K 1_555 1_555
C4B C5B 1_555 1_555
C7N C12N 1_555 1_555
C7J C12J 1_555 1_555
C7E C12E 1_555 1_555
C11N C12N 1_555 1_555
C11J C12J 1_555 1_555
C11E C12E 1_555 1_555
C13N C18N 1_555 1_555
C13J C18J 1_555 1_555
C13E C18E 1_555 1_555
C15N C19N 1_555 1_555
C17N C18N 1_555 1_555
C17J C18J 1_555 1_555
C17E C18E 1_555 1_555
C21D C26D 1_555 1_555
C21G C26G 1_555 1_555
C21B C26B 1_555 1_555
C22D C23D 1_555 1_555
C23G C23B 1_555 1_555
C25D C26D 1_555 1_555
C25G C26G 1_555 1_555
C25B C26B 1_555 1_555

#END
