
#######################################################################
#
#                 Cambridge Crystallographic Data Centre
#                                CCDC 
#
#######################################################################
#
# If this CIF has been generated from an entry in the Cambridge 
# Structural Database, then it will include bibliographic, chemical, 
# crystal, experimental, refinement or atomic coordinate data resulting 
# from the CCDC's data processing and validation procedures.
#
#######################################################################

data_RITGUY
_chemical_formula_moiety         '(C26 H40 Ag8 F12 N2 O28)n'
_symmetry_cell_setting           triclinic
_symmetry_space_group_name_H-M   'P -1'
_symmetry_Int_Tables_number      2
_space_group_name_Hall           '-P 1'
loop_
_symmetry_equiv_pos_site_id
_symmetry_equiv_pos_as_xyz
1 x,y,z
2 -x,-y,-z
_cell_length_a                   8.2222(7)
_cell_length_b                   16.2247(14)
_cell_length_c                   16.4614(14)
_cell_angle_alpha                93.275(2)
_cell_angle_beta                 95.7970(10)
_cell_angle_gamma                97.8950(10)
_cell_volume                     2158.43
loop_
_atom_site_label
_atom_site_type_symbol
_atom_site_fract_x
_atom_site_fract_y
_atom_site_fract_z
Ag1 Ag 0.52053(7) 0.56661(4) 0.55714(4)
Ag2 Ag 0.86810(7) 0.60514(4) 0.63444(4)
Ag3 Ag 0.81738(8) 0.41957(4) 0.60770(4)
Ag4 Ag 0.81583(8) 0.34626(4) 0.44151(4)
Ag5 Ag 0.83327(7) 0.49037(4) 0.34775(4)
Ag6 Ag 0.84632(8) 0.63660(4) 0.45633(4)
Ag7 Ag 0.54569(13) 0.76279(5) 0.68416(7)
Ag8 Ag 0.47232(13) 0.36038(6) 0.72300(5)
C1 C 0.7646(9) 0.5253(5) 0.5260(5)
C2 C 0.7706(9) 0.4729(6) 0.4705(6)
C3 C 0.5413(10) 0.5810(5) 0.7400(5)
C4 C 0.5528(9) 0.5990(6) 0.8294(5)
C5 C 0.4293(11) 0.5615(7) 0.8729(6)
H1 H 0.3435 0.5234 0.8458
C6 C 0.4334(12) 0.5806(7) 0.9563(6)
H2 H 0.3481 0.5581 0.9850
C7 C 0.5675(13) 0.6339(7) 0.9957(6)
C8 C 0.6939(14) 0.6716(8) 0.9530(7)
H3 H 0.7822 0.7076 0.9809
C9 C 0.6865(11) 0.6551(7) 0.8694(6)
H4 H 0.7682 0.6805 0.8401
C10 C 0.5689(13) 0.6502(8) 1.0838(6)
C11 C 0.5064(9) 0.7213(5) 0.4584(5)
C12 C 0.5072(9) 0.8048(5) 0.4261(5)
C13 C 0.4004(11) 0.8567(6) 0.4566(6)
H5 H 0.3340 0.8391 0.4966
C14 C 0.3950(12) 0.9345(6) 0.4263(6)
H6 H 0.3235 0.9687 0.4458
C15 C 0.4947(13) 0.9617(6) 0.3675(6)
C16 C 0.6037(13) 0.9100(6) 0.3378(7)
H7 H 0.6720 0.9279 0.2987
C17 C 0.6074(11) 0.8320(6) 0.3678(6)
H8 H 0.6785 0.7975 0.3484
C18 C 0.4885(14) 1.0436(6) 0.3405(7)
C19 C 1.1473(11) 0.6962(6) 0.7560(6)
C20 C 1.2034(14) 0.7561(8) 0.8324(7)
C21 C 0.9848(10) 0.7982(5) 0.5727(6)
C22 C 0.9790(13) 0.8915(7) 0.5954(9)
C23 C 1.0354(12) 0.7320(6) 0.3288(6)
C24 C 1.0375(15) 0.7997(10) 0.2682(11)
C25 C 1.0534(11) 0.5384(7) 0.2120(6)
C26 C 1.0598(15) 0.5493(12) 0.1203(7)
F1 F 1.1360(18) 0.8202(7) 0.8333(9)
F2 F 1.1574(15) 0.7202(9) 0.8987(6)
F3 F 1.3641(10) 0.7735(6) 0.8488(6)
F4 F 0.8472(13) 0.9151(6) 0.5715(11)
F5 F 0.984(4) 0.9039(10) 0.6713(10)
F6 F 1.1032(14) 0.9387(6) 0.5769(13)
F7 F 1.0144(18) 0.8736(7) 0.3091(10)
F8 F 0.9183(16) 0.7953(9) 0.2168(9)
F9 F 1.1839(11) 0.8245(7) 0.2456(7)
F10 F 0.958(6) 0.594(4) 0.091(3)
F11 F 1.196(2) 0.5619(17) 0.0953(13)
F12 F 0.994(3) 0.4709(16) 0.0814(10)
N1 N 0.5648(12) 0.6595(6) 1.1525(5)
N2 N 0.4805(14) 1.1095(6) 0.3202(6)
O1 O 0.4623(7) 0.5120(4) 0.7077(4)
O2 O 0.6113(7) 0.6349(4) 0.6963(4)
O3 O 0.4747(7) 0.7102(4) 0.5297(4)
O4 O 0.5415(8) 0.6616(4) 0.4119(4)
O5 O 0.9962(9) 0.6798(6) 0.7412(5)
O6 O 1.2552(8) 0.6732(5) 0.7178(4)
O7 O 0.8523(9) 0.7554(5) 0.5557(7)
O8 O 1.1264(9) 0.7798(4) 0.5747(5)
O9 O 0.8982(11) 0.7137(6) 0.3537(6)
O10 O 1.1634(9) 0.7026(5) 0.3419(6)
O11 O 0.9137(8) 0.5312(5) 0.2344(4)
O12 O 1.1904(9) 0.5360(6) 0.2540(5)
Ag1A Ag 0.47947(7) 0.43339(4) 0.44286(4)
Ag2A Ag 1.13190(7) 0.39486(4) 0.36556(4)
Ag3A Ag 1.18262(8) 0.58043(4) 0.39230(4)
Ag4A Ag 0.18417(8) 0.65374(4) 0.55849(4)
Ag4A_2 Ag 1.18417(8) 0.65374(4) 0.55849(4)
Ag5A Ag 0.16673(7) 0.50963(4) 0.65225(4)
Ag5A_2 Ag 1.16673(7) 0.50963(4) 0.65225(4)
Ag6A Ag 1.15368(8) 0.36340(4) 0.54367(4)
Ag7A Ag 0.45431(13) 1.23721(5) 0.31584(7)
Ag8A Ag 0.52768(13) 0.63962(6) 0.27700(5)
Ag8A_2 Ag 0.52768(13) 0.63962(6) 1.27700(5)
C2A C 0.2294(9) 0.5271(6) 0.5295(6)
N1A N 0.4352(12) 0.3405(6) 0.8475(5)
N2A N 0.5195(14) 0.8905(6) 0.6798(6)
O1A O 0.5377(7) 0.4880(4) 0.2923(4)
O3A O 0.5253(7) 0.2898(4) 0.4703(4)
O4A O 0.4585(8) 0.3384(4) 0.5881(4)
O6A O 0.7448(8) 0.3268(5) 0.2822(4)
O8A O 0.8736(9) 0.2202(4) 0.4253(5)
O10A O 0.8366(9) 0.2974(5) 0.6581(6)
O12A O 0.8096(9) 0.4640(6) 0.7460(5)
O13 O 0.422(7) 0.991(4) 0.129(4)
O14 O 1.015(6) 1.000(3) 0.129(3)
O15 O 0.231(7) 1.002(4) 0.133(4)
O16 O 0.718(7) 0.977(3) 0.122(3)
O17 O 0.424(6) 0.935(3) 0.090(3)
O18 O 0.589(7) 0.994(4) 0.129(4)
O19 O 0.886(6) 0.994(3) 0.132(3)
O20 O 0.261(6) 0.942(3) 0.093(3)
O21 O 0.571(6) 0.938(3) 0.086(3)
O22 O 0.691(7) 0.891(4) 0.047(4)
O23 O 0.863(6) 0.893(3) 0.045(3)
O24 O 0.341(8) 0.878(4) 0.046(4)
O25 O 0.977(7) 0.944(4) 0.087(3)
O26 O 0.043(6) 0.892(3) 0.045(3)
O27 O 0.218(6) 0.879(3) 0.045(3)
O28 O 0.473(8) 0.884(4) 0.045(4)
loop_
_geom_bond_atom_site_label_1
_geom_bond_atom_site_label_2
_geom_bond_site_symmetry_1
_geom_bond_site_symmetry_2
Ag1 Ag2 1_555 1_555
Ag2 Ag3 1_555 1_555
Ag3 Ag4 1_555 1_555
Ag4 Ag5 1_555 1_555
Ag5 Ag6 1_555 1_555
Ag6 Ag2 1_555 1_555
Ag7 O2 1_555 1_555
Ag8 O1 1_555 1_555
C1 Ag1 1_555 1_555
C2 Ag3 1_555 1_555
C3 C4 1_555 1_555
C4 C5 1_555 1_555
C5 H1 1_555 1_555
C6 C5 1_555 1_555
H2 C6 1_555 1_555
C7 C6 1_555 1_555
C8 C7 1_555 1_555
H3 C8 1_555 1_555
C9 C4 1_555 1_555
H4 C9 1_555 1_555
C10 C7 1_555 1_555
C11 C12 1_555 1_555
C12 C13 1_555 1_555
C13 H5 1_555 1_555
C14 C13 1_555 1_555
H6 C14 1_555 1_555
C15 C14 1_555 1_555
C16 C15 1_555 1_555
H7 C16 1_555 1_555
C17 C12 1_555 1_555
H8 C17 1_555 1_555
C18 C15 1_555 1_555
C19 C20 1_555 1_555
C20 F1 1_555 1_555
C21 C22 1_555 1_555
C22 F4 1_555 1_555
C23 C24 1_555 1_555
C24 F7 1_555 1_555
C25 C26 1_555 1_555
C26 F10 1_555 1_555
F2 C20 1_555 1_555
F3 C20 1_555 1_555
F5 C22 1_555 1_555
F6 C22 1_555 1_555
F8 C24 1_555 1_555
F9 C24 1_555 1_555
F11 C26 1_555 1_555
F12 C26 1_555 1_555
N1 C10 1_555 1_555
N2 C18 1_555 1_555
O1 C3 1_555 1_555
O2 Ag1 1_555 1_555
O3 Ag1 1_555 1_555
O4 Ag6 1_555 1_555
O5 Ag2 1_555 1_555
O6 C19 1_555 1_555
O7 Ag6 1_555 1_555
O8 C21 1_555 1_555
O9 Ag6 1_555 1_555
O10 C23 1_555 1_555
O11 Ag5 1_555 1_555
O12 C25 1_555 1_555
Ag1A Ag1 1_555 1_555
Ag2A Ag4 1_555 1_555
Ag3A Ag5 1_555 1_555
Ag4A O3 1_555 1_555
Ag4A_2 Ag2 1_555 1_555
Ag5A O1 1_555 1_555
Ag5A_2 Ag2 1_555 1_555
Ag6A Ag4 1_555 1_555
Ag7A N2 1_555 1_555
Ag8A O4 1_555 1_555
Ag8A_2 N1 1_555 1_555
C2A Ag1 1_555 1_555
N1A Ag8 1_555 1_555
N2A Ag7 1_555 1_555
O1A Ag5 1_555 1_555
O3A Ag4 1_555 1_555
O4A Ag8 1_555 1_555
O6A Ag4 1_555 1_555
O8A Ag4 1_555 1_555
O10A Ag3 1_555 1_555
O12A Ag3 1_555 1_555
Ag2 C1 1_555 1_555
Ag2 O2 1_555 1_555
Ag3 C1 1_555 1_555
Ag3 Ag5A_2 1_555 1_555
Ag4 C2 1_555 1_555
Ag5 C2 1_555 1_555
Ag5 Ag2A 1_555 1_555
Ag6 C1 1_555 1_555
Ag6 C2 1_555 1_555
Ag6 Ag4A_2 1_555 1_555
Ag7 O3 1_555 1_555
C1 C2 1_555 1_555
C2 Ag1A 1_555 1_555
C3 O2 1_555 1_555
C8 C9 1_555 1_555
C11 O3 1_555 1_555
C11 O4 1_555 1_555
C16 C17 1_555 1_555
C19 O5 1_555 1_555
C21 O7 1_555 1_555
C23 O9 1_555 1_555
C25 O11 1_555 1_555
O6 Ag4A_2 1_555 1_555
O8 Ag4A_2 1_555 1_555
O10 Ag3A 1_555 1_555
O12 Ag3A 1_555 1_555
Ag1A O3A 1_555 1_555
Ag2A Ag3A 1_555 1_555
Ag2A Ag6A 1_555 1_555
Ag3A Ag4A_2 1_555 1_555
Ag4A Ag5A 1_555 1_555
Ag4A C2A 1_555 1_555
Ag4A_2 Ag5A_2 1_555 1_555
Ag5A C2A 1_555 1_555
Ag5A_2 Ag6A 1_555 1_555
Ag8A O1A 1_555 1_555

#END
