
#######################################################################
#
#                 Cambridge Crystallographic Data Centre
#                                CCDC 
#
#######################################################################
#
# If this CIF has been generated from an entry in the Cambridge 
# Structural Database, then it will include bibliographic, chemical, 
# crystal, experimental, refinement or atomic coordinate data resulting 
# from the CCDC's data processing and validation procedures.
#
#######################################################################

data_DUZKEQ
_chemical_formula_moiety         '(C39 H50 Cu3 K2 Mn2 N6 O28)n'
_symmetry_cell_setting           tetragonal
_symmetry_space_group_name_H-M   'P 4/m m m'
_symmetry_Int_Tables_number      123
_space_group_name_Hall           '-P 4 2'
loop_
_symmetry_equiv_pos_site_id
_symmetry_equiv_pos_as_xyz
1 x,y,z
2 -x,-y,z
3 -y,x,z
4 y,-x,z
5 -x,y,-z
6 x,-y,-z
7 y,x,-z
8 -y,-x,-z
9 -x,-y,-z
10 x,y,-z
11 y,-x,-z
12 -y,x,-z
13 x,-y,z
14 -x,y,z
15 -y,-x,z
16 y,x,z
_cell_length_a                   37.492(8)
_cell_length_b                   37.492(8)
_cell_length_c                   15.557(3)
_cell_angle_alpha                90
_cell_angle_beta                 90
_cell_angle_gamma                90
_cell_volume                     21867.7
loop_
_atom_site_label
_atom_site_type_symbol
_atom_site_fract_x
_atom_site_fract_y
_atom_site_fract_z
Cu1 Cu -0.0000 0.33268(7) 0.27403(13)
Cu2 Cu 0.14659(9) 0.5000 0.26827(14)
Cu3 Cu 0.24088(6) 0.24088(6) 0.23048(13)
Mn1 Mn 0.14613(9) 0.35170(6) 0.24810(11)
N1 N 0.0482(4) 0.3177(3) 0.3404(5)
N2 N 0.1343(3) 0.4566(3) 0.3385(5)
N3 N 0.1989(3) 0.2615(3) 0.1607(5)
O1 O 0.0341 0.3578 0.2009
O2 O 0.0958(3) 0.3648(3) 0.1860(6)
O3 O 0.1062(4) 0.3181(2) 0.3246(5)
O4 O 0.1722(4) 0.4609(3) 0.1912(5)
O5 O 0.1696(4) 0.3995(3) 0.1840(5)
O6 O 0.1375(4) 0.3931(3) 0.3363(5)
O7 O 0.1609(3) 0.3119(3) 0.1666(4)
O8 O 0.1945 0.3329 0.3118
O9 O 0.2333 0.2846 0.3019
C1 C 0.0658 0.3548 0.2252
C2 C 0.0748 0.3279 0.3055
C3 C 0.1432 0.4264 0.3053
C4 C 0.1572 0.4306 0.2127
C5 C 0.2064 0.3004 0.2796
C6 C 0.1877 0.2906 0.1961
C7 C 0.0440(5) 0.2956(5) 0.4226(8)
C8 C 0.0461(7) 0.3144(5) 0.5000
C9 C 0.0487(5) 0.2589(4) 0.4206(7)
C10 C 0.0479(6) 0.2370(7) 0.5000
H1 H 0.0469 0.2117 0.5000
C11 C 0.1130(5) 0.4555(4) 0.4250(7)
C12 C 0.1305(8) 0.4608(9) 0.5000
C13 C 0.1694(9) 0.4556(6) 0.5000
C14 C 0.1827 0.2478 0.0781
C15 C 0.1959(5) 0.2601(7) 0.0000
C16 C 0.2258(7) 0.2912(7) 0.0000
C17 C 0.1516(5) 0.2222(5) 0.0728(10)
C18 C 0.1391(8) 0.2050(7) 0.0000
H2 H 0.1243 0.1845 0.0000
C19 C 0.0798(5) 0.4538(4) 0.4211(7)
C20 C 0.0552(5) 0.4473(5) 0.3335(8)
H3 H 0.0705 0.4482 0.2825
H4 H 0.0369 0.4660 0.3296
H5 H 0.0436 0.4239 0.3369
C21 C 0.0597(5) 0.4528(4) 0.5000
H6 H 0.0344 0.4516 0.5000
C22 C 0.0479(5) 0.3597(4) 0.5000
C23 C 0.0479(5) 0.2379(4) 0.3313(8)
H7 H 0.0485 0.2550 0.2837
H8 H 0.0261 0.2236 0.3278
H9 H 0.0687 0.2221 0.3276
C24 C 0.1344(5) 0.2113(7) 0.1722(9)
H10 H 0.1143 0.1949 0.1649
H11 H 0.1262 0.2330 0.2012
H12 H 0.1529 0.1999 0.2069
O10 O 0.0961(5) 0.5000 0.1501(10)
N1I N 0.0482(4) 0.3177(3) 0.6596(5)
O1I O 0.0341 0.3578 0.7991
O2I O 0.0958(3) 0.3648(3) 0.8140(6)
O3I O 0.1062(4) 0.3181(2) 0.6754(5)
C1I C 0.0658 0.3548 0.7748
C2I C 0.0748 0.3279 0.6945
C7I C 0.0440(5) 0.2956(5) 0.5774(8)
C9I C 0.0487(5) 0.2589(4) 0.5794(7)
C23I C 0.0479(5) 0.2379(4) 0.6687(8)
H7I H 0.0485 0.2550 0.7163
H8I H 0.0261 0.2236 0.6722
H9I H 0.0687 0.2221 0.6724
N2I N 0.1343(3) 0.4566(3) 0.6615(5)
O4I O 0.1722(4) 0.4609(3) 0.8088(5)
O5I O 0.1696(4) 0.3995(3) 0.8160(5)
O6I O 0.1375(4) 0.3931(3) 0.6637(5)
C3I C 0.1432 0.4264 0.6947
C4I C 0.1572 0.4306 0.7873
C11I C 0.1130(5) 0.4555(4) 0.5750(7)
C19I C 0.0798(5) 0.4538(4) 0.5789(7)
C20I C 0.0552(5) 0.4473(5) 0.6665(8)
H3I H 0.0705 0.4482 0.7175
H4I H 0.0369 0.4660 0.6704
H5I H 0.0436 0.4239 0.6631
N3I N 0.1989(3) 0.2615(3) -0.1607(5)
O7I O 0.1609(3) 0.3119(3) -0.1666(4)
O8I O 0.1945 0.3329 -0.3118
O9I O 0.2333 0.2846 -0.3019
C5I C 0.2064 0.3004 -0.2796
C6I C 0.1877 0.2906 -0.1961
C14I C 0.1827 0.2478 -0.0781
C17I C 0.1516(5) 0.2222(5) -0.0728(10)
C24I C 0.1344(5) 0.2113(7) -0.1722(9)
H10I H 0.1143 0.1949 -0.1649
H11I H 0.1262 0.2330 -0.2012
H12I H 0.1529 0.1999 -0.2069
Mn1I Mn 0.14613(9) 0.35170(6) 0.75190(11)
Cu1D Cu -0.0000 0.33268(7) 0.72597(13)
Cu2E Cu 0.14659(9) 0.5000 0.73173(14)
Cu3F Cu 0.24088(6) 0.24088(6) -0.23048(13)
Mn1I_2 Mn 0.14613(9) 0.35170(6) -0.24810(11)
N1M N -0.0482(4) 0.3177(3) 0.3404(5)
N2L N 0.1343(3) 0.5434(3) 0.3385(5)
N3O N 0.2615(3) 0.1989(3) 0.1607(5)
O1M O -0.0341 0.3578 0.2009
O4L O 0.1722(4) 0.5391(3) 0.1912(5)
O7I_2 O 0.1609(3) 0.3119(3) 0.8334(4)
O8I_2 O 0.1945 0.3329 0.6882
O9O O 0.2846 0.2333 0.3019
K1 K 0.2156 0.4256 0.0678
O11 O 0.1900 0.3897 0.0000
K2 K -0.0000 0.4502 0.0000
O12 O 0.0387 0.5000 0.0000
O13 O -0.0662 0.4295 0.0981
O14 O -0.0525(10) 0.3162(9) 0.0000
O15 O 0.1886(7) 0.1337(6) 0.4026(13)
O16 O -0.0376 0.2057 0.1020
O17 O 0.3586(7) 0.4423(11) 0.0000
O18 O 0.1615 0.1615 0.5000
O19 O 0.0986 0.2104 0.5000
loop_
_geom_bond_atom_site_label_1
_geom_bond_atom_site_label_2
_geom_bond_site_symmetry_1
_geom_bond_site_symmetry_2
Cu1 N1 1_555 1_555
Cu2 N2 1_555 1_555
Cu3 N3 1_555 1_555
Mn1 O2 1_555 1_555
N1 C2 1_555 1_555
N2 C3 1_555 1_555
N3 C6 1_555 1_555
O1 Cu1 1_555 1_555
O2 C1 1_555 1_555
O3 Mn1 1_555 1_555
O4 Cu2 1_555 1_555
O5 Mn1 1_555 1_555
O6 Mn1 1_555 1_555
O7 Mn1 1_555 1_555
O8 Mn1 1_555 1_555
O9 Cu3 1_555 1_555
C1 O1 1_555 1_555
C2 O3 1_555 1_555
C3 O6 1_555 1_555
C4 O4 1_555 1_555
C5 O8 1_555 1_555
C6 O7 1_555 1_555
C7 N1 1_555 1_555
C8 C7 1_555 1_555
C9 C7 1_555 1_555
C10 C9 1_555 1_555
H1 C10 1_555 1_555
C11 N2 1_555 1_555
C12 C11 1_555 1_555
C13 C12 1_555 1_555
C14 N3 1_555 1_555
C15 C14 1_555 1_555
C16 C15 1_555 1_555
C17 C14 1_555 1_555
C18 C17 1_555 1_555
H2 C18 1_555 1_555
C19 C11 1_555 1_555
C20 C19 1_555 1_555
H3 C20 1_555 1_555
H4 C20 1_555 1_555
H5 C20 1_555 1_555
C21 C19 1_555 1_555
H6 C21 1_555 1_555
C22 C8 1_555 1_555
C23 C9 1_555 1_555
H7 C23 1_555 1_555
H8 C23 1_555 1_555
H9 C23 1_555 1_555
C24 C17 1_555 1_555
H10 C24 1_555 1_555
H11 C24 1_555 1_555
H12 C24 1_555 1_555
O10 Cu2 1_555 1_555
N1I C2I 1_555 1_555
O1I C1I 1_555 1_555
O2I C1I 1_555 1_555
O3I C2I 1_555 1_555
C1I C2I 1_555 1_555
C7I C8 1_555 1_555
C9I C10 1_555 1_555
C23I C9I 1_555 1_555
H7I C23I 1_555 1_555
H8I C23I 1_555 1_555
H9I C23I 1_555 1_555
N2I C3I 1_555 1_555
O4I C4I 1_555 1_555
O5I C4I 1_555 1_555
O6I C3I 1_555 1_555
C3I C4I 1_555 1_555
C11I C12 1_555 1_555
C19I C21 1_555 1_555
C20I C19I 1_555 1_555
H3I C20I 1_555 1_555
H4I C20I 1_555 1_555
H5I C20I 1_555 1_555
N3I C6I 1_555 1_555
O7I C6I 1_555 1_555
O8I C5I 1_555 1_555
O9I C5I 1_555 1_555
C5I C6I 1_555 1_555
C14I C15 1_555 1_555
C17I C18 1_555 1_555
C24I C17I 1_555 1_555
H10I C24I 1_555 1_555
H11I C24I 1_555 1_555
H12I C24I 1_555 1_555
Mn1I O2I 1_555 1_555
Cu1D N1I 1_555 1_555
Cu2E N2I 1_555 1_555
Cu3F N3I 1_555 1_555
Mn1I_2 O7I 1_555 1_555
N1M Cu1 1_555 1_555
N2L Cu2 1_555 1_555
N3O Cu3 1_555 1_555
O1M Cu1 1_555 1_555
O4L Cu2 1_555 1_555
O7I_2 Mn1I 1_555 1_555
O8I_2 Mn1I 1_555 1_555
O9O Cu3 1_555 1_555
O5 C4 1_555 1_555
O9 C5 1_555 1_555
C1 C2 1_555 1_555
C3 C4 1_555 1_555
C5 C6 1_555 1_555
N1I C7I 1_555 1_555
O1I Cu1D 1_555 1_555
O3I Mn1I 1_555 1_555
C7I C9I 1_555 1_555
N2I C11I 1_555 1_555
O4I Cu2E 1_555 1_555
O5I Mn1I 1_555 1_555
O6I Mn1I 1_555 1_555
C11I C19I 1_555 1_555
N3I C14I 1_555 1_555
O8I Mn1I_2 1_555 1_555
O9I Cu3F 1_555 1_555
C14I C17I 1_555 1_555

#END
