
#######################################################################
#
#                 Cambridge Crystallographic Data Centre
#                                CCDC 
#
#######################################################################
#
# If this CIF has been generated from an entry in the Cambridge 
# Structural Database, then it will include bibliographic, chemical, 
# crystal, experimental, refinement or atomic coordinate data resulting 
# from the CCDC's data processing and validation procedures.
#
#######################################################################

data_RAKMOF
_chemical_formula_moiety         '(C27 H26 Cd3 Cl2 N8)n'
_symmetry_cell_setting           orthorhombic
_symmetry_space_group_name_H-M   'P n m a'
_symmetry_Int_Tables_number      62
_space_group_name_Hall           '-P 2ac 2n'
loop_
_symmetry_equiv_pos_site_id
_symmetry_equiv_pos_as_xyz
1 x,y,z
2 1/2+x,y,1/2-z
3 1/2-x,1/2+y,1/2+z
4 x,1/2-y,z
5 -x,-y,-z
6 1/2-x,-y,1/2+z
7 1/2+x,1/2-y,1/2-z
8 -x,1/2+y,-z
_cell_length_a                   23.7905(7)
_cell_length_b                   8.8535(2)
_cell_length_c                   15.5522(4)
_cell_angle_alpha                90
_cell_angle_beta                 90
_cell_angle_gamma                90
_cell_volume                     3275.75
loop_
_atom_site_label
_atom_site_type_symbol
_atom_site_fract_x
_atom_site_fract_y
_atom_site_fract_z
Cd1 Cd 0.34236(3) 0.75000 0.07154(4)
Cd2 Cd 0.51878(3) 0.75000 -0.16299(4)
Cd3 Cd 0.26836(3) 0.75000 0.41988(4)
Cl1 Cl 0.4925(2) 0.75000 -0.3179(2)
Cl2 Cl 0.3713(1) 0.75000 0.4670(2)
N1 N 0.4028(4) 0.75000 -0.0438(5)
C1 C 0.4422(5) 0.75000 -0.0844(6)
N2 N 0.2983(4) 0.75000 0.2078(5)
C2 C 0.2846(4) 0.75000 0.2781(6)
N3 N 0.4008(3) 0.5543(6) 0.1275(4)
C3 C 0.4284(3) 0.4535(7) 0.1410(4)
N4 N 0.2862(3) 0.5597(6) 0.0107(4)
C4 C 0.2679(3) 0.4588(7) -0.0233(4)
N3C N 0.4008(3) 0.9457(6) 0.1275(4)
C3C C 0.4284(3) 1.0465(7) 0.1410(4)
N4C N 0.2862(3) 0.9403(6) 0.0107(4)
C4C C 0.2679(3) 1.0412(7) -0.0233(4)
C3D C 0.5716(3) 0.5465(7) -0.1410(4)
C3G C 0.5716(3) 0.9535(7) -0.1410(4)
C4B C 0.2321(3) 0.9588(7) 0.4767(4)
C4E C 0.2321(3) 0.5412(7) 0.4767(4)
Cd2D Cd 0.48122(3) 0.25000 0.16299(4)
Cd3B Cd 0.23164(3) 0.25000 -0.08012(4)
Cd2D_2 Cd 0.48122(3) 1.25000 0.16299(4)
Cd3B_2 Cd 0.23164(3) 1.25000 -0.08012(4)
C5 C 0.3372(3) 0.1189(8) 0.2956(5)
C6 C 0.3646(3) 0.1149(7) 0.3749(5)
C7 C 0.3799(4) 0.25000 0.4127(6)
C8 C 0.4157(4) 0.25000 0.4943(6)
C9 C 0.4327(3) 0.1154(8) 0.5305(4)
C10 C 0.4680(4) 0.1160(8) 0.6026(5)
C11 C 0.2985(5) 0.25000 0.1698(6)
C12 C 0.5234(6) 0.25000 0.7136(7)
N5 N 0.3244(4) 0.25000 0.2592(5)
N6 N 0.4844(4) 0.25000 0.6361(6)
C6C C 0.3646(3) 0.3851(7) 0.3749(5)
C5C C 0.3372(3) 0.3811(8) 0.2956(5)
C10C C 0.4680(4) 0.3840(8) 0.6026(5)
C9C C 0.4327(3) 0.3846(8) 0.5305(4)
C13 C 0.4033(6) 0.25000 0.8499(7)
C14 C 0.3884(4) 0.116(1) 0.8141(6)
C15 C 0.3585(4) 0.113(1) 0.7368(7)
C16 C 0.3445(5) 0.25000 0.6995(8)
C17 C 0.4379(9) 0.25000 0.935(1)
C18 C 0.3392(5) -0.034(1) 0.695(1)
C15C C 0.3585(4) 0.387(1) 0.7368(7)
C14C C 0.3884(4) 0.384(1) 0.8141(6)
C18C C 0.3392(5) 0.534(1) 0.695(1)
loop_
_geom_bond_atom_site_label_1
_geom_bond_atom_site_label_2
_geom_bond_site_symmetry_1
_geom_bond_site_symmetry_2
Cd1 N1 1_555 1_555
Cd2 Cl1 1_555 1_555
Cd3 Cl2 1_555 1_555
N1 C1 1_555 1_555
C1 Cd2 1_555 1_555
N2 Cd1 1_555 1_555
C2 Cd3 1_555 1_555
N3 Cd1 1_555 1_555
C3 N3 1_555 1_555
N4 Cd1 1_555 1_555
C4 N4 1_555 1_555
C5 C6 1_555 1_555
C6 C7 1_555 1_555
C7 C8 1_555 1_555
C8 C9 1_555 1_555
C9 C10 1_555 1_555
C10 N6 1_555 1_555
C11 N5 1_555 1_555
C12 N6 1_555 1_555
N5 C5 1_555 1_555
N6 C10C 1_555 1_555
C13 C14 1_555 1_555
C14 C15 1_555 1_555
C15 C16 1_555 1_555
C16 C15C 1_555 1_555
C17 C13 1_555 1_555
C18 C15 1_555 1_555
C6C C7 1_555 1_555
C5C N5 1_555 1_555
C10C C9C 1_555 1_555
C9C C8 1_555 1_555
C15C C14C 1_555 1_555
C14C C13 1_555 1_555
C18C C15C 1_555 1_555
N3C Cd1 1_555 1_555
C3C N3C 1_555 1_555
N4C Cd1 1_555 1_555
C4C N4C 1_555 1_555
C3D Cd2 1_555 1_555
C3G Cd2 1_555 1_555
C4B Cd3 1_555 1_555
C4E Cd3 1_555 1_555
Cd2D C3 1_555 1_555
Cd3B C4 1_555 1_555
Cd2D_2 C3C 1_555 1_555
Cd3B_2 C4C 1_555 1_555
N2 C2 1_555 1_555
C6C C5C 1_555 1_555

#END
