
#######################################################################
#
#                 Cambridge Crystallographic Data Centre
#                                CCDC 
#
#######################################################################
#
# If this CIF has been generated from an entry in the Cambridge 
# Structural Database, then it will include bibliographic, chemical, 
# crystal, experimental, refinement or atomic coordinate data resulting 
# from the CCDC's data processing and validation procedures.
#
#######################################################################

data_RAFMUH
_chemical_formula_moiety         '(H2 B3 O25 P6 Zn3 3-)n'
_symmetry_cell_setting           hexagonal
_symmetry_space_group_name_H-M   'P 65 2 2'
_symmetry_Int_Tables_number      179
_space_group_name_Hall           'P 65 2 (0 0 1)'
loop_
_symmetry_equiv_pos_site_id
_symmetry_equiv_pos_as_xyz
1 x,y,z
2 -y,x-y,2/3+z
3 -x+y,-x,1/3+z
4 -x,-y,1/2+z
5 y,-x+y,1/6+z
6 x-y,x,5/6+z
7 y,x,2/3-z
8 x-y,-y,-z
9 -x,-x+y,1/3-z
10 -y,-x,1/6-z
11 -x+y,y,1/2-z
12 x,x-y,5/6-z
_cell_length_a                   9.6673(14)
_cell_length_b                   9.6673(14)
_cell_length_c                   14.860(3)
_cell_angle_alpha                90
_cell_angle_beta                 90
_cell_angle_gamma                120
_cell_volume                     1202.71
loop_
_atom_site_label
_atom_site_type_symbol
_atom_site_fract_x
_atom_site_fract_y
_atom_site_fract_z
O5 O 0.0800(11) 0.0800(11) 0.3333
Zn1 Zn 0.48981(3) 0.51019(3) 0.0833
P1 P 0.60843(10) 0.76331(10) 0.23980(5)
B1 B 0.8361(6) 0.6722(3) 0.2500
O1 O 0.7761(3) 0.7809(3) 0.22678(14)
O2 O 0.4794(3) 0.6152(3) 0.19288(15)
O3 O 0.7056(3) 0.6219(3) 0.03767(15)
O4 O 0.5658(3) 0.7451(3) 0.34208(15)
O2I O 0.3848(3) 0.5206(3) -0.02621(15)
O3I O 0.3781(3) 0.2944(3) 0.12900(15)
O3D O 0.6219(3) 0.9163(4) 0.20434(15)
O1J O 1.0048(4) 0.7809(3) 0.27322(14)
O4E O 0.8207(4) 0.5658(3) 0.17541(15)
O4F O 0.7451(3) 0.5658(3) 0.32459(15)
P1E P 0.84512(14) 0.60843(10) 0.07313(5)
B1D B 0.6722(3) 0.8361(7) 0.4167
Zn1D Zn 0.51019(3) 1.02038(4) 0.2500
P1F P 0.76331(10) 0.60843(10) 0.42687(5)
P1J P 1.15488(14) 0.76331(10) 0.26020(5)
O1E O 0.9952(4) 0.7761(3) 0.06011(14)
O2E O 0.8642(4) 0.4794(3) 0.02621(15)
P1H P 0.39157(10) 0.15488(14) 0.09353(5)
P1I P 0.23669(10) 0.39157(10) -0.07313(5)
O2D O 0.6152(3) 1.1358(4) 0.35955(15)
O2H O 0.5206(3) 1.1358(4) 0.14045(15)
O3H O 0.2944(3) 0.9163(4) 0.29566(15)
O1D O 0.7809(3) 1.0048(4) 0.39345(14)
O1F O 0.7809(3) 0.7761(3) 0.43989(14)
O4K O 0.5658(3) 0.8207(4) 0.49125(15)
O2F O 0.6152(3) 0.4794(3) 0.47379(15)
O3J O 0.9163(4) 0.6219(3) 0.46233(15)
O2J O 1.1358(4) 0.6152(3) 0.30712(15)
O3H_2 O 1.2944(3) 0.9163(4) 0.29566(15)
O4J O 1.1793(4) 0.7451(3) 0.15792(15)
B1E B 1.1639(7) 0.8361(6) 0.0833
Zn1E Zn 0.97962(4) 0.48981(3) -0.0834
O1H O 0.2239(3) 0.0048(4) 0.10655(14)
O2H_2 O 0.5206(3) 0.1358(4) 0.14045(15)
O4H O 0.4342(3) 0.1793(4) -0.00875(15)
O1I O 0.2191(3) 0.2239(3) -0.06011(14)
O3G O 0.0837(4) 0.3781(3) -0.03767(15)
O4I O 0.2549(3) 0.4342(3) -0.17541(15)
O1H_2 O 1.2239(3) 1.0048(4) 0.10655(14)
O4A O 1.2549(3) 0.8207(4) 0.00875(15)
Zn1C Zn 0.51019(3) 0.48981(3) 0.5833
Zn1B Zn 1.02038(4) 0.51019(3) 0.4166
Zn1D_2 Zn 1.51019(3) 1.02038(4) 0.2500
Zn1D_3 Zn 0.51019(3) 0.02038(4) 0.2500
B1E_2 B 0.1639(7) -0.1639(6) 0.0833
B1A B 0.3278(3) 0.1639(7) -0.0833
B1C B 0.1639(6) 0.3278(3) -0.2500
Zn1E_2 Zn -0.02038(4) 0.48981(3) -0.0834
O2G O 0.8642(4) 0.3848(3) -0.19288(15)
O3E O 1.0837(4) 0.7056(3) -0.12900(15)
O3G_2 O 1.0837(4) 0.3781(3) -0.03767(15)
loop_
_geom_bond_atom_site_label_1
_geom_bond_atom_site_label_2
_geom_bond_site_symmetry_1
_geom_bond_site_symmetry_2
Zn1 O2 1_555 1_555
P1 O1 1_555 1_555
B1 O1 1_555 1_555
O2 P1 1_555 1_555
O3 Zn1 1_555 1_555
O4 P1 1_555 1_555
O2I Zn1 1_555 1_555
O3I Zn1 1_555 1_555
O3D P1 1_555 1_555
O1J B1 1_555 1_555
O4E B1 1_555 1_555
O4F B1 1_555 1_555
P1E O3 1_555 1_555
B1D O4 1_555 1_555
Zn1D O3D 1_555 1_555
P1F O4F 1_555 1_555
P1J O1J 1_555 1_555
O1E P1E 1_555 1_555
O2E P1E 1_555 1_555
P1H O3I 1_555 1_555
P1I O2I 1_555 1_555
O2D Zn1D 1_555 1_555
O2H Zn1D 1_555 1_555
O3H Zn1D 1_555 1_555
O1D B1D 1_555 1_555
O1F B1D 1_555 1_555
O4K B1D 1_555 1_555
O2F P1F 1_555 1_555
O3J P1F 1_555 1_555
O2J P1J 1_555 1_555
O3H_2 P1J 1_555 1_555
O4J P1J 1_555 1_555
B1E O1E 1_555 1_555
Zn1E O2E 1_555 1_555
O1H P1H 1_555 1_555
O2H_2 P1H 1_555 1_555
O4H P1H 1_555 1_555
O1I P1I 1_555 1_555
O3G P1I 1_555 1_555
O4I P1I 1_555 1_555
O1H_2 B1E 1_555 1_555
O4A B1E 1_555 1_555
Zn1C O2F 1_555 1_555
Zn1B O3J 1_555 1_555
Zn1D_2 O3H_2 1_555 1_555
Zn1D_3 O2H_2 1_555 1_555
B1E_2 O1H 1_555 1_555
B1A O4H 1_555 1_555
B1C O4I 1_555 1_555
Zn1E_2 O3G 1_555 1_555
O2G Zn1E 1_555 1_555
O3E Zn1E 1_555 1_555
O3G_2 Zn1E 1_555 1_555
O4E P1E 1_555 1_555
P1F O1F 1_555 1_555
O2J Zn1B 1_555 1_555
O4J B1E 1_555 1_555
O1I B1A 1_555 1_555

#END
