
#######################################################################
#
#                 Cambridge Crystallographic Data Centre
#                                CCDC 
#
#######################################################################
#
# If this CIF has been generated from an entry in the Cambridge 
# Structural Database, then it will include bibliographic, chemical, 
# crystal, experimental, refinement or atomic coordinate data resulting 
# from the CCDC's data processing and validation procedures.
#
#######################################################################

data_VOCNOQ
_chemical_formula_moiety         '(C48 H34 N8 Ni4 O19)n'
_symmetry_cell_setting           tetragonal
_symmetry_space_group_name_H-M   'P 4/n c c'
_symmetry_Int_Tables_number      130
_space_group_name_Hall           '-P 4a 2ac'
loop_
_symmetry_equiv_pos_site_id
_symmetry_equiv_pos_as_xyz
1 x,y,z
2 1/2-y,x,z
3 y,1/2-x,z
4 1/2+y,1/2+x,1/2-z
5 1/2+x,1/2+y,-z
6 x,1/2-y,1/2+z
7 1/2-x,y,1/2+z
8 y,x,1/2+z
9 -x,-y,-z
10 1/2+y,-x,-z
11 -y,1/2+x,-z
12 1/2-y,1/2-x,1/2+z
13 1/2-x,1/2-y,z
14 -x,1/2+y,1/2-z
15 1/2+x,-y,1/2-z
16 -y,-x,1/2-z
_cell_length_a                   20.0890(5)
_cell_length_b                   20.0890(5)
_cell_length_c                   14.0156(5)
_cell_angle_alpha                90
_cell_angle_beta                 90
_cell_angle_gamma                90
_cell_volume                     5656.25
loop_
_atom_site_label
_atom_site_type_symbol
_atom_site_fract_x
_atom_site_fract_y
_atom_site_fract_z
O7 O 0.7500 0.2500 0.0000
Ni1 Ni 0.61829(2) 0.03349(2) 0.15862(3)
O1 O 0.60740(15) 0.09473(15) 0.03994(19)
O2 O 0.6051(3) 0.19520(18) 0.1034(3)
O3 O 0.51460(14) 0.03415(14) 0.15108(18)
O4 O 0.47292(13) 0.12399(13) 0.22676(19)
O5 O 0.61740(13) 0.11740(13) 0.2500
N1 N 0.53795(17) 0.27730(17) -0.1501(2)
N2 N 0.38247(15) 0.04734(17) -0.0665(2)
C1 C 0.5962(3) 0.1543(2) 0.0351(3)
C2 C 0.5679(2) 0.1817(2) -0.0577(3)
C3 C 0.5463(3) 0.1403(2) -0.1300(4)
H1 H 0.5481 0.0933 -0.1230
C4 C 0.5224(3) 0.1680(3) -0.2112(4)
H2 H 0.5083 0.1405 -0.2624
C5 C 0.5185(3) 0.2368(2) -0.2193(3)
H3 H 0.5014 0.2554 -0.2765
C6 C 0.5613(2) 0.2491(2) -0.0702(3)
H4 H 0.5740 0.2775 -0.0192
C7 C 0.47481(19) 0.08206(19) 0.1595(3)
C8 C 0.42559(19) 0.0920(2) 0.0793(3)
C9 C 0.3878(3) 0.1486(3) 0.0686(4)
H5 H 0.3884 0.1829 0.1153
C10 C 0.3488(4) 0.1540(3) -0.0124(4)
H6 H 0.3222 0.1926 -0.0218
C11 C 0.3482(3) 0.1041(3) -0.0792(4)
H7 H 0.3229 0.1098 -0.1359
C12 C 0.42085(18) 0.04311(19) 0.0106(3)
H8 H 0.4466 0.0039 0.0188
O3C O 0.53415(14) 0.01460(14) 0.34892(18)
O4C O 0.62399(13) -0.02708(13) 0.27324(19)
N2C N 0.54734(17) -0.11753(15) 0.5665(2)
C7C C 0.58206(19) -0.02519(19) 0.3405(3)
C8C C 0.5920(2) -0.07441(19) 0.4207(3)
C9C C 0.6486(3) -0.1122(3) 0.4314(4)
H5C H 0.6829 -0.1116 0.3847
C10C C 0.6540(3) -0.1512(4) 0.5124(4)
H6C H 0.6926 -0.1778 0.5218
C11C C 0.6041(3) -0.1518(3) 0.5792(4)
H7C H 0.6098 -0.1771 0.6359
C12C C 0.54311(19) -0.07915(18) 0.4894(3)
H8C H 0.5039 -0.0534 0.4812
O1J O 0.90527(15) 0.10740(15) -0.03994(19)
O2J O 0.80480(18) 0.1051(3) -0.1034(3)
N1J N 0.72270(17) 0.03795(17) 0.1501(2)
C1J C 0.8457(2) 0.0962(3) -0.0351(3)
C2J C 0.8183(2) 0.0679(2) 0.0577(3)
C3J C 0.8597(2) 0.0463(3) 0.1300(4)
H1J H 0.9067 0.0481 0.1230
C4J C 0.8320(3) 0.0224(3) 0.2112(4)
H2J H 0.8595 0.0083 0.2624
C5J C 0.7632(2) 0.0185(3) 0.2193(3)
H3J H 0.7446 0.0014 0.2765
C6J C 0.7509(2) 0.0613(2) 0.0702(3)
H4J H 0.7225 0.0740 0.0192
O3H O 0.48540(14) -0.03415(14) -0.15108(18)
O4H O 0.52708(13) -0.12399(13) -0.22676(19)
N2H N 0.61753(15) -0.04734(17) 0.0665(2)
C7H C 0.52519(19) -0.08206(19) -0.1595(3)
C8H C 0.57441(19) -0.0920(2) -0.0793(3)
C9H C 0.6122(3) -0.1486(3) -0.0686(4)
H5H H 0.6116 -0.1829 -0.1153
C10H C 0.6512(4) -0.1540(3) 0.0124(4)
H6H H 0.6778 -0.1926 0.0218
C11H C 0.6518(3) -0.1041(3) 0.0792(4)
H7H H 0.6771 -0.1098 0.1359
C12H C 0.57915(18) -0.04311(19) -0.0106(3)
H8H H 0.5534 -0.0039 -0.0188
Ni1J Ni 0.96651(2) 0.11829(2) -0.15862(3)
Ni1C Ni 0.53349(2) 0.11829(2) 0.34138(3)
Ni1H Ni 0.38171(2) -0.03349(2) -0.15862(3)
O3J O 0.96585(14) 0.01460(14) -0.15108(18)
O4J O 0.87601(13) -0.02708(13) -0.22676(19)
N2J N 0.95266(17) -0.11753(15) 0.0665(2)
C7J C 0.91794(19) -0.02519(19) -0.1595(3)
C8J C 0.9080(2) -0.07441(19) -0.0793(3)
C9J C 0.8514(3) -0.1122(3) -0.0686(4)
H5J H 0.8171 -0.1116 -0.1153
C10J C 0.8460(3) -0.1512(4) 0.0124(4)
H6J H 0.8074 -0.1778 0.0218
C11J C 0.8959(3) -0.1518(3) 0.0792(4)
H7J H 0.8902 -0.1771 0.1359
C12J C 0.95689(19) -0.07915(18) -0.0106(3)
H8J H 0.9961 -0.0534 -0.0188
O5J O 0.88260(13) 0.11740(13) -0.2500
O1L O 0.89260(15) 0.40527(15) 0.03994(19)
O2L O 0.8949(3) 0.30480(18) 0.1034(3)
N1L N 0.96205(17) 0.22270(17) -0.1501(2)
C1L C 0.9038(3) 0.3457(2) 0.0351(3)
C2L C 0.9321(2) 0.3183(2) -0.0577(3)
C3L C 0.9537(3) 0.3597(2) -0.1300(4)
H1L H 0.9519 0.4067 -0.1230
C4L C 0.9776(3) 0.3320(3) -0.2112(4)
H2L H 0.9917 0.3595 -0.2624
C5L C 0.9815(3) 0.2632(2) -0.2193(3)
H3L H 0.9986 0.2446 -0.2765
C6L C 0.9387(2) 0.2509(2) -0.0702(3)
H4L H 0.9260 0.2225 -0.0192
O1H O 0.39260(15) -0.09473(15) -0.03994(19)
O2H O 0.3949(3) -0.19520(18) -0.1034(3)
N1H N 0.46205(17) -0.27730(17) 0.1501(2)
C1H C 0.4038(3) -0.1543(2) -0.0351(3)
C2H C 0.4321(2) -0.1817(2) 0.0577(3)
C3H C 0.4537(3) -0.1403(2) 0.1300(4)
H1H H 0.4519 -0.0933 0.1230
C4H C 0.4776(3) -0.1680(3) 0.2112(4)
H2H H 0.4917 -0.1405 0.2624
C5H C 0.4815(3) -0.2368(2) 0.2193(3)
H3H H 0.4986 -0.2554 0.2765
C6H C 0.4387(2) -0.2491(2) 0.0702(3)
H4H H 0.4260 -0.2775 0.0192
Ni1I Ni 0.53349(2) 0.38171(2) -0.15862(3)
Ni1K Ni 0.46651(2) -0.11829(2) 0.65862(3)
Ni1K_2 Ni 0.46651(2) -0.11829(2) -0.34138(3)
O4F O 1.02708(13) 0.12399(13) -0.27324(19)
N2B N 1.04734(17) 0.11753(15) -0.0665(2)
O1C O 0.59473(15) 0.10740(15) 0.46006(19)
N1E N 0.53795(17) 0.22270(17) 0.3499(2)
N2K N 0.45266(17) 0.11753(15) 0.4335(2)
O4K O 0.37601(13) 0.02708(13) -0.27324(19)
O5H O 0.38260(13) -0.11740(13) -0.2500
N1B N 0.27730(17) -0.03795(17) -0.1501(2)
Ni1F Ni 0.88171(2) 0.03349(2) -0.34138(3)
Ni1B Ni 1.03349(2) -0.11829(2) 0.15862(3)
Ni1L Ni 0.88171(2) 0.46651(2) 0.15862(3)
Ni1A Ni 0.46651(2) -0.38171(2) 0.15862(3)
loop_
_geom_bond_atom_site_label_1
_geom_bond_atom_site_label_2
_geom_bond_site_symmetry_1
_geom_bond_site_symmetry_2
Ni1 O1 1_555 1_555
O1 C1 1_555 1_555
O2 C1 1_555 1_555
O3 Ni1 1_555 1_555
O4 C7 1_555 1_555
O5 Ni1 1_555 1_555
N1 C5 1_555 1_555
N2 C11 1_555 1_555
C1 C2 1_555 1_555
C2 C3 1_555 1_555
C3 H1 1_555 1_555
C4 C3 1_555 1_555
H2 C4 1_555 1_555
C5 C4 1_555 1_555
H3 C5 1_555 1_555
C6 N1 1_555 1_555
H4 C6 1_555 1_555
C7 O3 1_555 1_555
C8 C7 1_555 1_555
C9 C8 1_555 1_555
H5 C9 1_555 1_555
C10 C9 1_555 1_555
H6 C10 1_555 1_555
C11 C10 1_555 1_555
H7 C11 1_555 1_555
C12 N2 1_555 1_555
H8 C12 1_555 1_555
O3C C7C 1_555 1_555
O4C Ni1 1_555 1_555
N2C C11C 1_555 1_555
C7C O4C 1_555 1_555
C8C C7C 1_555 1_555
C9C C8C 1_555 1_555
H5C C9C 1_555 1_555
C10C C9C 1_555 1_555
H6C C10C 1_555 1_555
C11C C10C 1_555 1_555
H7C C11C 1_555 1_555
C12C N2C 1_555 1_555
H8C C12C 1_555 1_555
O1J C1J 1_555 1_555
O2J C1J 1_555 1_555
N1J Ni1 1_555 1_555
C1J C2J 1_555 1_555
C2J C3J 1_555 1_555
C3J H1J 1_555 1_555
C4J C3J 1_555 1_555
H2J C4J 1_555 1_555
C5J N1J 1_555 1_555
H3J C5J 1_555 1_555
C6J N1J 1_555 1_555
H4J C6J 1_555 1_555
O3H C7H 1_555 1_555
O4H C7H 1_555 1_555
N2H Ni1 1_555 1_555
C7H C8H 1_555 1_555
C8H C9H 1_555 1_555
C9H H5H 1_555 1_555
C10H C9H 1_555 1_555
H6H C10H 1_555 1_555
C11H N2H 1_555 1_555
H7H C11H 1_555 1_555
C12H N2H 1_555 1_555
H8H C12H 1_555 1_555
Ni1J O1J 1_555 1_555
Ni1C O4 1_555 1_555
Ni1H N2 1_555 1_555
O3J Ni1J 1_555 1_555
O4J C7J 1_555 1_555
N2J C11J 1_555 1_555
C7J O3J 1_555 1_555
C8J C7J 1_555 1_555
C9J C8J 1_555 1_555
H5J C9J 1_555 1_555
C10J C9J 1_555 1_555
H6J C10J 1_555 1_555
C11J C10J 1_555 1_555
H7J C11J 1_555 1_555
C12J N2J 1_555 1_555
H8J C12J 1_555 1_555
O5J Ni1J 1_555 1_555
O1L C1L 1_555 1_555
O2L C1L 1_555 1_555
N1L Ni1J 1_555 1_555
C1L C2L 1_555 1_555
C2L C3L 1_555 1_555
C3L H1L 1_555 1_555
C4L C3L 1_555 1_555
H2L C4L 1_555 1_555
C5L N1L 1_555 1_555
H3L C5L 1_555 1_555
C6L N1L 1_555 1_555
H4L C6L 1_555 1_555
O1H Ni1H 1_555 1_555
O2H C1H 1_555 1_555
N1H C5H 1_555 1_555
C1H O1H 1_555 1_555
C2H C1H 1_555 1_555
C3H C2H 1_555 1_555
H1H C3H 1_555 1_555
C4H C3H 1_555 1_555
H2H C4H 1_555 1_555
C5H C4H 1_555 1_555
H3H C5H 1_555 1_555
C6H N1H 1_555 1_555
H4H C6H 1_555 1_555
Ni1I N1 1_555 1_555
Ni1K N2C 1_555 1_555
Ni1K_2 O4H 1_555 1_555
O4F Ni1J 1_555 1_555
N2B Ni1J 1_555 1_555
O1C Ni1C 1_555 1_555
N1E Ni1C 1_555 1_555
N2K Ni1C 1_555 1_555
O4K Ni1H 1_555 1_555
O5H Ni1H 1_555 1_555
N1B Ni1H 1_555 1_555
Ni1F O4J 1_555 1_555
Ni1B N2J 1_555 1_555
Ni1L O1L 1_555 1_555
Ni1A N1H 1_555 1_555
O5 Ni1C 1_555 1_555
C2 C6 1_555 1_555
C8 C12 1_555 1_555
O3C Ni1C 1_555 1_555
C8C C12C 1_555 1_555
C2J C6J 1_555 1_555
C4J C5J 1_555 1_555
O3H Ni1H 1_555 1_555
C8H C12H 1_555 1_555
C10H C11H 1_555 1_555
C8J C12J 1_555 1_555
O5J Ni1F 1_555 1_555
C2L C6L 1_555 1_555
C4L C5L 1_555 1_555
C2H C6H 1_555 1_555
Ni1K_2 O5H 1_555 1_555

#END
