
#######################################################################
#
#                 Cambridge Crystallographic Data Centre
#                                CCDC 
#
#######################################################################
#
# If this CIF has been generated from an entry in the Cambridge 
# Structural Database, then it will include bibliographic, chemical, 
# crystal, experimental, refinement or atomic coordinate data resulting 
# from the CCDC's data processing and validation procedures.
#
#######################################################################

data_PUDSIR
_chemical_formula_moiety         '(C54 H46 Eu2 N4 O22 S3)n'
_symmetry_cell_setting           monoclinic
_symmetry_space_group_name_H-M   'C 2/c'
_symmetry_Int_Tables_number      15
_space_group_name_Hall           '-C 2yc'
loop_
_symmetry_equiv_pos_site_id
_symmetry_equiv_pos_as_xyz
1 x,y,z
2 -x,y,1/2-z
3 1/2+x,1/2+y,z
4 1/2-x,1/2+y,1/2-z
5 -x,-y,-z
6 x,-y,1/2+z
7 1/2-x,1/2-y,-z
8 1/2+x,1/2-y,1/2+z
_cell_length_a                   34.8041(14)
_cell_length_b                   14.8602(6)
_cell_length_c                   29.7740(12)
_cell_angle_alpha                90
_cell_angle_beta                 98.8010(10)
_cell_angle_gamma                90
_cell_volume                     15217.7
loop_
_atom_site_label
_atom_site_type_symbol
_atom_site_fract_x
_atom_site_fract_y
_atom_site_fract_z
Eu1 Eu 0.209651(8) 0.596897(19) 0.358952(9)
Eu2 Eu 0.087049(8) 0.553416(19) 0.343792(9)
S1 S 0.09373(5) 0.48043(14) 0.09196(5)
S2 S 0.20479(5) 1.06166(11) 0.35285(7)
S3 S 0.40547(5) 0.32681(12) 0.40418(5)
C1 C 0.14195(17) 0.5905(4) 0.2609(2)
C2 C 0.14447(17) 0.5902(4) 0.2110(2)
C3 C 0.11694(17) 0.5459(4) 0.1805(2)
H1 H 0.0950 0.5182 0.1903
C4 C 0.17572(17) 0.6328(5) 0.1945(2)
H2 H 0.1947 0.6635 0.2153
C5 C 0.12212(16) 0.5429(4) 0.1353(2)
C6 C 0.17954(17) 0.6314(5) 0.1497(2)
H3 H 0.2002 0.6631 0.1392
C7 C 0.15278(18) 0.5829(4) 0.1194(2)
C8 C 0.15425(18) 0.5638(4) 0.0710(2)
C9 C 0.12409(17) 0.5075(5) 0.0518(2)
C10 C 0.18278(17) 0.5894(4) 0.0452(2)
H4 H 0.2031 0.6293 0.0573
C11 C 0.12161(17) 0.4756(5) 0.0082(2)
H5 H 0.1002 0.4396 -0.0048
C12 C 0.18070(17) 0.5553(4) 0.0021(2)
H6 H 0.2001 0.5718 -0.0157
C13 C 0.15094(16) 0.4971(4) -0.01652(18)
C14 C 0.15254(17) 0.4541(4) -0.06168(18)
C15 C 0.13099(18) 0.7466(4) 0.35215(19)
C16 C 0.13256(19) 0.8477(4) 0.3511(2)
C17 C 0.0978(2) 0.8940(6) 0.3477(3)
H7 H 0.0741 0.8612 0.3446
C18 C 0.16707(19) 0.8926(4) 0.3533(2)
H8 H 0.1912 0.8617 0.3552
C19 C 0.0967(2) 0.9879(5) 0.3487(3)
H9 H 0.0728 1.0191 0.3483
C20 C 0.16492(18) 0.9880(4) 0.3526(2)
C21 C 0.1309(2) 1.0337(5) 0.3504(3)
C22 C 0.13625(19) 1.1346(5) 0.3512(3)
C23 C 0.1089(2) 1.1992(5) 0.3508(3)
H10 H 0.0824 1.1839 0.3505
C24 C 0.17508(18) 1.1563(4) 0.3540(2)
C25 C 0.1204(2) 1.2869(5) 0.3508(3)
H11 H 0.1013 1.3330 0.3493
C26 C 0.1881(2) 1.2460(4) 0.3557(2)
H12 H 0.2149 1.2609 0.3587
C27 C 0.15946(17) 1.3110(4) 0.3529(2)
C28 C 0.16990(16) 1.4098(4) 0.35179(19)
C29 C 0.27817(17) 0.5136(4) 0.3417(2)
C30 C 0.31243(17) 0.4555(4) 0.3343(2)
C31 C 0.33802(17) 0.4254(4) 0.3716(2)
H13 H 0.3347 0.4413 0.4016
C32 C 0.31724(18) 0.4318(4) 0.2905(2)
H14 H 0.2991 0.4526 0.2655
C33 C 0.36870(17) 0.3710(4) 0.3632(2)
C34 C 0.34803(19) 0.3782(5) 0.2826(2)
H15 H 0.3510 0.3623 0.2524
C35 C 0.37453(17) 0.3480(4) 0.3192(2)
C36 C 0.40971(16) 0.2916(4) 0.3195(2)
C37 C 0.42878(17) 0.2755(4) 0.36234(19)
C38 C 0.42328(17) 0.2550(4) 0.28206(19)
H16 H 0.4097 0.2643 0.2522
C39 C 0.46266(17) 0.2242(4) 0.3704(2)
H17 H 0.4756 0.2138 0.4004
C40 C 0.45693(16) 0.2047(4) 0.2891(2)
H18 H 0.4668 0.1803 0.2637
C41 C 0.47681(16) 0.1890(4) 0.3329(2)
C42 C 0.51375(16) 0.1368(4) 0.33924(19)
C43 C 0.0416(2) 0.4358(5) 0.4187(2)
H19 H 0.0220 0.4806 0.4175
C44 C 0.0157(3) 0.3731(8) 0.4822(3)
H20 H -0.0039 0.4203 0.4744
H21 H 0.0290 0.3825 0.5133
H22 H 0.0029 0.3141 0.4800
C45 C 0.0742(3) 0.3069(7) 0.4559(4)
H23 H 0.0958 0.3274 0.4409
H24 H 0.0636 0.2509 0.4417
H25 H 0.0837 0.2963 0.4882
C46 C 0.04689(18) 0.4376(4) 0.2523(2)
H26 H 0.0370 0.4951 0.2426
C47 C 0.0236(3) 0.3819(6) 0.1762(3)
H27 H 0.0154 0.4445 0.1706
H28 H 0.0007 0.3426 0.1714
H29 H 0.0415 0.3648 0.1552
C48 C 0.0585(3) 0.2845(6) 0.2367(3)
H30 H 0.0633 0.2819 0.2699
H31 H 0.0830 0.2745 0.2248
H32 H 0.0398 0.2377 0.2250
C49 C 0.2538(2) 0.7451(7) 0.2962(3)
H33 H 0.2496 0.7016 0.2726
C50 C 0.2898(5) 0.8284(11) 0.2458(4)
H34 H 0.2792 0.7812 0.2245
H35 H 0.3182 0.8240 0.2514
H36 H 0.2822 0.8875 0.2328
C51 C 0.2838(3) 0.8834(6) 0.3230(5)
H37 H 0.2701 0.8696 0.3485
H38 H 0.2758 0.9428 0.3107
H39 H 0.3119 0.8835 0.3335
C52 C 0.2716(3) 0.6938(8) 0.4404(5)
H40 H 0.2870 0.6407 0.4421
C53 C 0.2641(6) 0.8462(9) 0.4591(5)
H41 H 0.2374 0.8278 0.4475
H42 H 0.2728 0.8905 0.4384
H43 H 0.2651 0.8730 0.4893
C54 C 0.3263(6) 0.7558(9) 0.4950(5)
H44 H 0.3241 0.7821 0.5246
H45 H 0.3480 0.7840 0.4828
H46 H 0.3310 0.6909 0.4984
N1 N 0.04287(18) 0.3728(4) 0.22207(19)
N2 N 0.0435(2) 0.3765(5) 0.4512(2)
N3 N 0.27468(19) 0.8174(5) 0.2886(3)
N4 N 0.2882(3) 0.7719(8) 0.4620(4)
O1 O 0.10953(12) 0.5758(3) 0.27232(13)
O2 O 0.17323(13) 0.6054(3) 0.28671(14)
O3 O 0.05567(13) 0.5194(4) 0.08043(16)
O4 O 0.09600(17) 0.3864(4) 0.10184(18)
O5 O 0.12097(12) 0.4231(3) -0.08251(13)
O6 O 0.18501(11) 0.4520(3) -0.07494(13)
O7 O 0.09870(12) 0.7095(3) 0.34068(14)
O8 O 0.16280(13) 0.7071(3) 0.36403(15)
O9 O 0.21975(16) 1.0590(4) 0.3096(2)
O10 O 0.23190(15) 1.0531(3) 0.3935(2)
O11 O 0.14280(11) 1.4664(3) 0.34766(14)
O12 O 0.20468(12) 1.4314(3) 0.35428(16)
O13 O 0.27456(11) 0.5343(3) 0.38216(14)
O14 O 0.25474(13) 0.5384(3) 0.30809(15)
O15 O 0.42923(14) 0.3980(4) 0.42671(17)
O16 O 0.39037(15) 0.2612(4) 0.43257(16)
O17 O 0.53303(11) 0.1271(3) 0.37809(13)
O18 O 0.52458(11) 0.1019(3) 0.30441(14)
O19 O 0.06294(13) 0.4389(3) 0.38957(16)
O20 O 0.06225(13) 0.4305(3) 0.29195(16)
O21 O 0.24002(13) 0.6907(3) 0.42067(16)
O22 O 0.23994(14) 0.7294(3) 0.32953(18)
Eu1E Eu 0.209651(8) 0.403103(19) -0.141048(9)
Eu1_2 Eu 0.209651(8) 1.596897(19) 0.358952(9)
Eu2E Eu 0.087049(8) 0.446584(19) -0.156208(9)
Eu2_2 Eu 0.087049(8) 1.553416(19) 0.343792(9)
Eu2B Eu 0.587049(8) 0.053416(19) 0.343792(9)
O5E O 0.12097(12) 0.5769(3) 0.41749(13)
O6E O 0.18501(11) 0.5480(3) 0.42506(13)
O11_2 O 0.14280(11) 0.4664(3) 0.34766(14)
O12_2 O 0.20468(12) 0.4314(3) 0.35428(16)
O17B O 0.03303(11) 0.6271(3) 0.37809(13)
O18B O 0.02458(11) 0.6019(3) 0.30441(14)
loop_
_geom_bond_atom_site_label_1
_geom_bond_atom_site_label_2
_geom_bond_site_symmetry_1
_geom_bond_site_symmetry_2
Eu1 O2 1_555 1_555
Eu2 O1 1_555 1_555
S1 C5 1_555 1_555
S2 C20 1_555 1_555
S3 C33 1_555 1_555
C1 C2 1_555 1_555
C2 C3 1_555 1_555
C3 H1 1_555 1_555
C4 C2 1_555 1_555
H2 C4 1_555 1_555
C5 C3 1_555 1_555
C6 C4 1_555 1_555
H3 C6 1_555 1_555
C7 C5 1_555 1_555
C8 C7 1_555 1_555
C9 S1 1_555 1_555
C10 C8 1_555 1_555
H4 C10 1_555 1_555
C11 C9 1_555 1_555
H5 C11 1_555 1_555
C12 C10 1_555 1_555
H6 C12 1_555 1_555
C13 C11 1_555 1_555
C14 C13 1_555 1_555
C15 C16 1_555 1_555
C16 C17 1_555 1_555
C17 H7 1_555 1_555
C18 C16 1_555 1_555
H8 C18 1_555 1_555
C19 C17 1_555 1_555
H9 C19 1_555 1_555
C20 C18 1_555 1_555
C21 C19 1_555 1_555
C22 C21 1_555 1_555
C23 C22 1_555 1_555
H10 C23 1_555 1_555
C24 S2 1_555 1_555
C25 C23 1_555 1_555
H11 C25 1_555 1_555
C26 C24 1_555 1_555
H12 C26 1_555 1_555
C27 C25 1_555 1_555
C28 C27 1_555 1_555
C29 C30 1_555 1_555
C30 C31 1_555 1_555
C31 H13 1_555 1_555
C32 C30 1_555 1_555
H14 C32 1_555 1_555
C33 C31 1_555 1_555
C34 C32 1_555 1_555
H15 C34 1_555 1_555
C35 C33 1_555 1_555
C36 C35 1_555 1_555
C37 S3 1_555 1_555
C38 C36 1_555 1_555
H16 C38 1_555 1_555
C39 C37 1_555 1_555
H17 C39 1_555 1_555
C40 C38 1_555 1_555
H18 C40 1_555 1_555
C41 C39 1_555 1_555
C42 C41 1_555 1_555
C43 H19 1_555 1_555
C44 H20 1_555 1_555
H21 C44 1_555 1_555
H22 C44 1_555 1_555
C45 H23 1_555 1_555
H24 C45 1_555 1_555
H25 C45 1_555 1_555
C46 H26 1_555 1_555
C47 H27 1_555 1_555
H28 C47 1_555 1_555
H29 C47 1_555 1_555
C48 H30 1_555 1_555
H31 C48 1_555 1_555
H32 C48 1_555 1_555
C49 H33 1_555 1_555
C50 H34 1_555 1_555
H35 C50 1_555 1_555
H36 C50 1_555 1_555
C51 H37 1_555 1_555
H38 C51 1_555 1_555
H39 C51 1_555 1_555
C52 H40 1_555 1_555
C53 H41 1_555 1_555
H42 C53 1_555 1_555
H43 C53 1_555 1_555
C54 H44 1_555 1_555
H45 C54 1_555 1_555
H46 C54 1_555 1_555
N1 C46 1_555 1_555
N2 C43 1_555 1_555
N3 C49 1_555 1_555
N4 C52 1_555 1_555
O1 C1 1_555 1_555
O2 C1 1_555 1_555
O3 S1 1_555 1_555
O4 S1 1_555 1_555
O5 C14 1_555 1_555
O6 C14 1_555 1_555
O7 Eu2 1_555 1_555
O8 Eu1 1_555 1_555
O9 S2 1_555 1_555
O10 S2 1_555 1_555
O11 C28 1_555 1_555
O12 C28 1_555 1_555
O13 Eu1 1_555 1_555
O14 Eu1 1_555 1_555
O15 S3 1_555 1_555
O16 S3 1_555 1_555
O17 C42 1_555 1_555
O18 C42 1_555 1_555
O19 Eu2 1_555 1_555
O20 Eu2 1_555 1_555
O21 Eu1 1_555 1_555
O22 Eu1 1_555 1_555
Eu1E O6 1_555 1_555
Eu1_2 O12 1_555 1_555
Eu2E O5 1_555 1_555
Eu2_2 O11 1_555 1_555
Eu2B O17 1_555 1_555
O5E Eu2 1_555 1_555
O6E Eu1 1_555 1_555
O11_2 Eu2 1_555 1_555
O12_2 Eu1 1_555 1_555
O17B Eu2 1_555 1_555
O18B Eu2 1_555 1_555
C6 C7 1_555 1_555
C8 C9 1_555 1_555
C12 C13 1_555 1_555
C15 O7 1_555 1_555
C15 O8 1_555 1_555
C20 C21 1_555 1_555
C22 C24 1_555 1_555
C26 C27 1_555 1_555
C29 O13 1_555 1_555
C29 O14 1_555 1_555
C34 C35 1_555 1_555
C36 C37 1_555 1_555
C40 C41 1_555 1_555
C43 O19 1_555 1_555
C44 N2 1_555 1_555
C45 N2 1_555 1_555
C46 O20 1_555 1_555
C47 N1 1_555 1_555
C48 N1 1_555 1_555
C49 O22 1_555 1_555
C50 N3 1_555 1_555
C51 N3 1_555 1_555
C52 O21 1_555 1_555
C53 N4 1_555 1_555
C54 N4 1_555 1_555
O18 Eu2B 1_555 1_555

#END
