
#######################################################################
#
#                 Cambridge Crystallographic Data Centre
#                                CCDC 
#
#######################################################################
#
# If this CIF has been generated from an entry in the Cambridge 
# Structural Database, then it will include bibliographic, chemical, 
# crystal, experimental, refinement or atomic coordinate data resulting 
# from the CCDC's data processing and validation procedures.
#
#######################################################################

data_PUDSOX
_chemical_formula_moiety         '(C54 H46 Gd2 N4 O22 S3)n'
_symmetry_cell_setting           monoclinic
_symmetry_space_group_name_H-M   'C 2/c'
_symmetry_Int_Tables_number      15
_space_group_name_Hall           '-C 2yc'
loop_
_symmetry_equiv_pos_site_id
_symmetry_equiv_pos_as_xyz
1 x,y,z
2 -x,y,1/2-z
3 1/2+x,1/2+y,z
4 1/2-x,1/2+y,1/2-z
5 -x,-y,-z
6 x,-y,1/2+z
7 1/2-x,1/2-y,-z
8 1/2+x,1/2-y,1/2+z
_cell_length_a                   35.0016(12)
_cell_length_b                   14.8987(5)
_cell_length_c                   30.0846(10)
_cell_angle_alpha                90
_cell_angle_beta                 97.9730(10)
_cell_angle_gamma                90
_cell_volume                     15536.8
loop_
_atom_site_label
_atom_site_type_symbol
_atom_site_fract_x
_atom_site_fract_y
_atom_site_fract_z
Gd1 Gd 0.208643(6) 0.570723(13) 0.356642(7)
Gd2 Gd 0.085835(6) 0.532020(13) 0.343122(7)
S1 S 0.09311(4) 0.46852(11) 0.09157(4)
S2 S 0.20286(4) 1.04039(8) 0.35191(6)
S3 S 0.40340(4) 0.30325(11) 0.40200(4)
C1 C 0.14058(15) 0.5589(3) 0.26138(15)
C2 C 0.14470(13) 0.5601(3) 0.21218(14)
C3 C 0.11609(13) 0.5216(3) 0.18095(15)
H1 H 0.0937 0.4977 0.1897
C4 C 0.17717(14) 0.5971(4) 0.19780(16)
H2 H 0.1961 0.6223 0.2188
C5 C 0.12240(13) 0.5205(3) 0.13633(15)
C6 C 0.18209(15) 0.5975(4) 0.15294(16)
H3 H 0.2038 0.6242 0.1440
C7 C 0.15486(13) 0.5583(3) 0.12177(15)
C8 C 0.15636(13) 0.5438(3) 0.07371(14)
C9 C 0.12481(14) 0.4962(3) 0.05277(15)
C10 C 0.18517(14) 0.5688(4) 0.04907(16)
H4 H 0.2061 0.6026 0.0620
C11 C 0.12135(14) 0.4713(3) 0.00859(15)
H5 H 0.0996 0.4407 -0.0049
C12 C 0.18200(14) 0.5425(3) 0.00499(16)
H6 H 0.2014 0.5586 -0.0117
C13 C 0.15100(13) 0.4930(3) -0.01548(14)
C14 C 0.15031(14) 0.4631(3) -0.06332(14)
C15 C 0.13270(14) 0.7237(3) 0.34864(15)
C16 C 0.13212(14) 0.8247(3) 0.34871(16)
C17 C 0.09780(15) 0.8698(3) 0.3473(2)
H7 H 0.0750 0.8371 0.3453
C18 C 0.16609(14) 0.8724(3) 0.35072(16)
H8 H 0.1897 0.8432 0.3517
C19 C 0.09598(17) 0.9616(4) 0.3487(3)
H9 H 0.0725 0.9909 0.3485
C20 C 0.16394(14) 0.9638(3) 0.35129(17)
C21 C 0.12994(15) 1.0095(3) 0.3506(2)
C22 C 0.13475(14) 1.1089(3) 0.35321(19)
C23 C 0.10731(16) 1.1736(3) 0.3532(3)
H10 H 0.0815 1.1579 0.3526
C24 C 0.17295(14) 1.1344(3) 0.35461(17)
C25 C 0.11792(16) 1.2616(3) 0.3540(2)
H11 H 0.0990 1.3055 0.3539
C26 C 0.18444(14) 1.2233(3) 0.35644(16)
H12 H 0.2104 1.2389 0.3586
C27 C 0.15616(13) 1.2877(3) 0.35494(16)
C28 C 0.16627(14) 1.3861(3) 0.35355(15)
C29 C 0.27592(14) 0.4821(3) 0.33962(18)
C30 C 0.31000(14) 0.4253(3) 0.33268(17)
C31 C 0.33567(14) 0.3968(3) 0.36905(17)
H13 H 0.3322 0.4123 0.3982
C32 C 0.31566(14) 0.4006(4) 0.29001(18)
H14 H 0.2980 0.4194 0.2658
C33 C 0.36628(13) 0.3453(3) 0.36109(16)
C34 C 0.34706(15) 0.3484(4) 0.28207(17)
H15 H 0.3506 0.3326 0.2530
C35 C 0.37278(14) 0.3206(3) 0.31847(16)
C36 C 0.40838(13) 0.2671(3) 0.31840(15)
C37 C 0.42821(14) 0.2522(3) 0.36112(16)
C38 C 0.42340(13) 0.2315(3) 0.28155(16)
H16 H 0.4108 0.2401 0.2526
C39 C 0.46179(13) 0.2058(3) 0.36873(16)
H17 H 0.4744 0.1978 0.3978
C40 C 0.45722(13) 0.1833(3) 0.28891(15)
H18 H 0.4672 0.1587 0.2645
C41 C 0.47697(12) 0.1705(3) 0.33205(15)
C42 C 0.51385(13) 0.1192(3) 0.33827(15)
C43 C 0.0161(3) 0.3695(7) 0.4857(3)
H19 H -0.0026 0.4164 0.4792
H20 H 0.0309 0.3799 0.5146
H21 H 0.0032 0.3127 0.4858
C44 C 0.03915(17) 0.4245(4) 0.41930(18)
H22 H 0.0206 0.4694 0.4188
C45 C 0.0719(3) 0.3044(7) 0.4579(3)
H23 H 0.0873 0.3094 0.4340
H24 H 0.0612 0.2452 0.4580
H25 H 0.0878 0.3154 0.4861
C46 C 0.04623(19) 0.4173(4) 0.2532(3)
H26 H 0.0368 0.4737 0.2441
C47 C 0.0250(3) 0.3634(7) 0.1776(3)
H27 H 0.0159 0.4239 0.1728
H28 H 0.0036 0.3227 0.1723
H29 H 0.0431 0.3500 0.1573
C48 C 0.0620(3) 0.2644(7) 0.2379(3)
H30 H 0.0728 0.2678 0.2689
H31 H 0.0820 0.2509 0.2201
H32 H 0.0428 0.2180 0.2339
C49 C 0.2554(2) 0.7115(6) 0.2942(2)
H33 H 0.2562 0.6647 0.2739
C50 C 0.2785(5) 0.8605(9) 0.3122(4)
H34 H 0.2660 0.8508 0.3383
H35 H 0.2673 0.9119 0.2961
H36 H 0.3055 0.8708 0.3214
C51 C 0.2912(5) 0.7883(8) 0.2437(4)
H37 H 0.2855 0.7338 0.2271
H38 H 0.3186 0.7946 0.2511
H39 H 0.2811 0.8385 0.2258
C52 C 0.2669(4) 0.6868(8) 0.4281(5)
H40 H 0.2867 0.6459 0.4265
C53 C 0.2510(4) 0.8377(8) 0.4552(5)
H41 H 0.2649 0.8907 0.4660
H42 H 0.2356 0.8174 0.4772
H43 H 0.2346 0.8513 0.4278
C54 C 0.3140(4) 0.8043(8) 0.4420(5)
H44 H 0.3169 0.8623 0.4559
H45 H 0.3160 0.8100 0.4106
H46 H 0.3339 0.7650 0.4558
N1 N 0.04352(17) 0.3538(4) 0.2230(2)
N2 N 0.04163(16) 0.3686(4) 0.45159(17)
N3 N 0.27361(16) 0.7855(4) 0.2847(2)
N4 N 0.2778(4) 0.7689(8) 0.4472(4)
O1 O 0.10804(10) 0.5465(2) 0.27196(10)
O2 O 0.17132(10) 0.5701(3) 0.28736(11)
O3 O 0.05653(11) 0.5129(4) 0.08114(13)
O4 O 0.09226(14) 0.3736(3) 0.09840(13)
O5 O 0.11827(9) 0.4390(2) -0.08436(10)
O6 O 0.18167(9) 0.4645(2) -0.07825(10)
O7 O 0.10124(10) 0.6844(2) 0.33779(11)
O8 O 0.16438(10) 0.6868(2) 0.35993(12)
O9 O 0.21796(13) 1.0402(3) 0.30939(17)
O10 O 0.22960(12) 1.0302(2) 0.39191(17)
O11 O 0.13890(9) 1.44078(19) 0.34988(11)
O12 O 0.20077(9) 1.40750(19) 0.35572(12)
O13 O 0.27247(9) 0.5063(2) 0.37935(12)
O14 O 0.25202(10) 0.5035(2) 0.30664(12)
O15 O 0.42586(12) 0.3747(3) 0.42360(14)
O16 O 0.38858(12) 0.2369(3) 0.42988(13)
O17 O 0.53364(9) 0.1151(2) 0.37641(10)
O18 O 0.52478(9) 0.0823(2) 0.30458(11)
O19 O 0.05910(10) 0.4242(2) 0.38865(12)
O20 O 0.06086(10) 0.4081(2) 0.29438(13)
O21 O 0.23965(12) 0.6652(3) 0.41538(14)
O22 O 0.23905(12) 0.6968(3) 0.32321(15)
Gd1E Gd 0.208643(6) 0.429277(13) -0.143358(7)
Gd1_2 Gd 0.208643(6) 1.570723(13) 0.356642(7)
Gd2E Gd 0.085835(6) 0.467980(13) -0.156878(7)
Gd2_2 Gd 0.085835(6) 1.532020(13) 0.343122(7)
Gd2B Gd 0.585835(6) 0.032020(13) 0.343122(7)
O5E O 0.11827(9) 0.5610(2) 0.41564(10)
O6E O 0.18167(9) 0.5355(2) 0.42175(10)
O11_2 O 0.13890(9) 0.44078(19) 0.34988(11)
O12_2 O 0.20077(9) 0.40750(19) 0.35572(12)
O17B O 0.03364(9) 0.6151(2) 0.37641(10)
O18B O 0.02478(9) 0.5823(2) 0.30458(11)
loop_
_geom_bond_atom_site_label_1
_geom_bond_atom_site_label_2
_geom_bond_site_symmetry_1
_geom_bond_site_symmetry_2
Gd1 O2 1_555 1_555
Gd2 O1 1_555 1_555
S1 C5 1_555 1_555
S2 C20 1_555 1_555
S3 C33 1_555 1_555
C1 C2 1_555 1_555
C2 C3 1_555 1_555
C3 H1 1_555 1_555
C4 C2 1_555 1_555
H2 C4 1_555 1_555
C5 C3 1_555 1_555
C6 C4 1_555 1_555
H3 C6 1_555 1_555
C7 C5 1_555 1_555
C8 C7 1_555 1_555
C9 S1 1_555 1_555
C10 C8 1_555 1_555
H4 C10 1_555 1_555
C11 C9 1_555 1_555
H5 C11 1_555 1_555
C12 C10 1_555 1_555
H6 C12 1_555 1_555
C13 C11 1_555 1_555
C14 C13 1_555 1_555
C15 C16 1_555 1_555
C16 C17 1_555 1_555
C17 H7 1_555 1_555
C18 C16 1_555 1_555
H8 C18 1_555 1_555
C19 C17 1_555 1_555
H9 C19 1_555 1_555
C20 C18 1_555 1_555
C21 C19 1_555 1_555
C22 C21 1_555 1_555
C23 C22 1_555 1_555
H10 C23 1_555 1_555
C24 S2 1_555 1_555
C25 C23 1_555 1_555
H11 C25 1_555 1_555
C26 C24 1_555 1_555
H12 C26 1_555 1_555
C27 C25 1_555 1_555
C28 C27 1_555 1_555
C29 C30 1_555 1_555
C30 C31 1_555 1_555
C31 H13 1_555 1_555
C32 C30 1_555 1_555
H14 C32 1_555 1_555
C33 C31 1_555 1_555
C34 C32 1_555 1_555
H15 C34 1_555 1_555
C35 C33 1_555 1_555
C36 C35 1_555 1_555
C37 S3 1_555 1_555
C38 C36 1_555 1_555
H16 C38 1_555 1_555
C39 C37 1_555 1_555
H17 C39 1_555 1_555
C40 C38 1_555 1_555
H18 C40 1_555 1_555
C41 C39 1_555 1_555
C42 C41 1_555 1_555
C43 H19 1_555 1_555
H20 C43 1_555 1_555
H21 C43 1_555 1_555
C44 H22 1_555 1_555
C45 H23 1_555 1_555
H24 C45 1_555 1_555
H25 C45 1_555 1_555
C46 H26 1_555 1_555
C47 H27 1_555 1_555
H28 C47 1_555 1_555
H29 C47 1_555 1_555
C48 H30 1_555 1_555
H31 C48 1_555 1_555
H32 C48 1_555 1_555
C49 H33 1_555 1_555
C50 H34 1_555 1_555
H35 C50 1_555 1_555
H36 C50 1_555 1_555
C51 H37 1_555 1_555
H38 C51 1_555 1_555
H39 C51 1_555 1_555
C52 H40 1_555 1_555
C53 H41 1_555 1_555
H42 C53 1_555 1_555
H43 C53 1_555 1_555
C54 H44 1_555 1_555
H45 C54 1_555 1_555
H46 C54 1_555 1_555
N1 C46 1_555 1_555
N2 C43 1_555 1_555
N3 C49 1_555 1_555
N4 C52 1_555 1_555
O1 C1 1_555 1_555
O2 C1 1_555 1_555
O3 S1 1_555 1_555
O4 S1 1_555 1_555
O5 C14 1_555 1_555
O6 C14 1_555 1_555
O7 Gd2 1_555 1_555
O8 Gd1 1_555 1_555
O9 S2 1_555 1_555
O10 S2 1_555 1_555
O11 C28 1_555 1_555
O12 C28 1_555 1_555
O13 Gd1 1_555 1_555
O14 Gd1 1_555 1_555
O15 S3 1_555 1_555
O16 S3 1_555 1_555
O17 C42 1_555 1_555
O18 C42 1_555 1_555
O19 Gd2 1_555 1_555
O20 Gd2 1_555 1_555
O21 Gd1 1_555 1_555
O22 Gd1 1_555 1_555
Gd1E O6 1_555 1_555
Gd1_2 O12 1_555 1_555
Gd2E O5 1_555 1_555
Gd2_2 O11 1_555 1_555
Gd2B O17 1_555 1_555
O5E Gd2 1_555 1_555
O6E Gd1 1_555 1_555
O11_2 Gd2 1_555 1_555
O12_2 Gd1 1_555 1_555
O17B Gd2 1_555 1_555
O18B Gd2 1_555 1_555
C6 C7 1_555 1_555
C8 C9 1_555 1_555
C12 C13 1_555 1_555
C15 O7 1_555 1_555
C15 O8 1_555 1_555
C20 C21 1_555 1_555
C22 C24 1_555 1_555
C26 C27 1_555 1_555
C29 O13 1_555 1_555
C29 O14 1_555 1_555
C34 C35 1_555 1_555
C36 C37 1_555 1_555
C40 C41 1_555 1_555
C44 N2 1_555 1_555
C44 O19 1_555 1_555
C45 N2 1_555 1_555
C46 O20 1_555 1_555
C47 N1 1_555 1_555
C48 N1 1_555 1_555
C49 O22 1_555 1_555
C50 N3 1_555 1_555
C51 N3 1_555 1_555
C52 O21 1_555 1_555
C53 N4 1_555 1_555
C54 N4 1_555 1_555
O18 Gd2B 1_555 1_555

#END
