
#######################################################################
#
#                 Cambridge Crystallographic Data Centre
#                                CCDC 
#
#######################################################################
#
# If this CIF has been generated from an entry in the Cambridge 
# Structural Database, then it will include bibliographic, chemical, 
# crystal, experimental, refinement or atomic coordinate data resulting 
# from the CCDC's data processing and validation procedures.
#
#######################################################################

data_WIHWAN
_chemical_formula_moiety         '(C40 H28 F12 N2 O8 Zn2)n'
_symmetry_cell_setting           tetragonal
_symmetry_space_group_name_H-M   'I 41/a m d'
_symmetry_Int_Tables_number      141
_space_group_name_Hall           '-I 4bd 2'
loop_
_symmetry_equiv_pos_site_id
_symmetry_equiv_pos_as_xyz
1 x,y,z
2 1/2-x,-y,1/2+z
3 1/4-y,3/4+x,1/4+z
4 1/4+y,1/4-x,3/4+z
5 1/2-x,y,1/2-z
6 x,-y,-z
7 1/4+y,3/4+x,1/4-z
8 1/4-y,1/4-x,3/4-z
9 1/2+x,1/2+y,1/2+z
10 -x,1/2-y,z
11 3/4-y,1/4+x,3/4+z
12 3/4+y,3/4-x,1/4+z
13 -x,1/2+y,-z
14 1/2+x,1/2-y,1/2-z
15 3/4+y,1/4+x,3/4-z
16 3/4-y,3/4-x,1/4-z
17 -x,-y,-z
18 1/2+x,y,1/2-z
19 3/4+y,1/4-x,3/4-z
20 3/4-y,3/4+x,1/4-z
21 1/2+x,-y,1/2+z
22 -x,y,z
23 3/4-y,1/4-x,3/4+z
24 3/4+y,3/4+x,1/4+z
25 1/2-x,1/2-y,1/2-z
26 x,1/2+y,-z
27 1/4+y,3/4-x,1/4-z
28 1/4-y,1/4+x,3/4-z
29 x,1/2-y,z
30 1/2-x,1/2+y,1/2+z
31 1/4-y,3/4-x,1/4+z
32 1/4+y,1/4+x,3/4+z
_cell_length_a                   19.0903(3)
_cell_length_b                   19.0903(3)
_cell_length_c                   47.756(2)
_cell_angle_alpha                90
_cell_angle_beta                 90
_cell_angle_gamma                90
_cell_volume                     17404.2
loop_
_atom_site_label
_atom_site_type_symbol
_atom_site_fract_x
_atom_site_fract_y
_atom_site_fract_z
Zn1 Zn 0.5000 -0.074823(19) -0.005758(9)
O1 O 0.42729(12) -0.06485(9) 0.02486(4)
O2 O 0.42508(12) 0.04932(10) 0.03396(4)
C1 C 0.35145(18) -0.02427(15) 0.06017(6)
C2 C 0.31647(17) 0.03223(17) 0.07249(6)
H1 H 0.3264 0.0786 0.0665
C3 C 0.26855(19) 0.02129(19) 0.09296(7)
H2 H 0.2452 0.0603 0.1011
C4 C 0.25278(19) -0.04642(19) 0.10234(8)
C5 C 0.2849(2) -0.1009(2) 0.08936(8)
H3 H 0.2738 -0.1475 0.0947
C6 C 0.3338(2) -0.08933(17) 0.06830(8)
H4 H 0.3553 -0.1284 0.0594
C7 C 0.40610(17) -0.01213(14) 0.03777(6)
C8 C 0.1973(2) -0.0527(2) 0.1250
C9 C 0.2027(3) -0.1244(2) 0.13893(10)
F1 F 0.15998(18) -0.12655(16) 0.16215(7)
F2 F 0.18171(18) -0.17851(14) 0.12294(8)
F3 F 0.26777(19) -0.13936(14) 0.14924(6)
N1 N 0.5000 -0.18174(13) -0.00786(5)
C10 C 0.5616(2) -0.20922(15) -0.02202(9)
H5 H 0.6043 -0.1920 -0.0125
H6 H 0.5625 -0.1920 -0.0416
C11 C 0.5000 -0.2101(2) 0.02069(10)
H7 H 0.4581 -0.1930 0.0308
O1F O 0.18515(9) 0.17729(12) 0.22514(4)
O2F O 0.29932(10) 0.17508(12) 0.21604(4)
C1F C 0.22573(15) 0.10145(18) 0.18983(6)
C2F C 0.28223(17) 0.06647(17) 0.17751(6)
H1F H 0.3286 0.0764 0.1835
C3F C 0.27129(19) 0.01855(19) 0.15704(7)
H2F H 0.3103 -0.0048 0.1489
C4F C 0.20358(19) 0.00278(19) 0.14766(8)
C5F C 0.1491(2) 0.0349(2) 0.16064(8)
H3F H 0.1025 0.0238 0.1553
C6F C 0.16067(17) 0.0838(2) 0.18170(8)
H4F H 0.1216 0.1053 0.1906
C7F C 0.23787(14) 0.15610(17) 0.21223(6)
C9F C 0.1256(2) -0.0473(3) 0.11107(10)
F1F F 0.12345(16) -0.09002(18) 0.08785(7)
F2F F 0.07149(14) -0.06829(18) 0.12706(8)
F3F F 0.11064(14) 0.01777(19) 0.10076(6)
N1I N 0.5000 -0.31826(13) -0.00786(5)
C10I C 0.4384(2) -0.29078(15) -0.02202(9)
H5I H 0.3957 -0.3080 -0.0125
H6I H 0.4375 -0.3080 -0.0416
C11I C 0.5000 -0.2899(2) 0.02069(10)
H7I H 0.5419 -0.3070 0.0308
C10U C 0.4384(2) -0.20922(15) -0.02202(9)
H5U H 0.3957 -0.1920 -0.0125
H6U H 0.4375 -0.1920 -0.0416
H7U H 0.5419 -0.1930 0.0308
C10BA C 0.5616(2) -0.29078(15) -0.02202(9)
H5BA H 0.6043 -0.3080 -0.0125
H6BA H 0.5625 -0.3080 -0.0416
H7BA H 0.4581 -0.3070 0.0308
Zn1E Zn 0.5000 0.074823(19) 0.005758(9)
O1U O 0.57271(12) -0.06485(9) 0.02486(4)
O2U O 0.57492(12) 0.04932(10) 0.03396(4)
C1U C 0.64855(18) -0.02427(15) 0.06017(6)
C2U C 0.68353(17) 0.03223(17) 0.07249(6)
H1U H 0.6736 0.0786 0.0665
C3U C 0.73145(19) 0.02129(19) 0.09296(7)
H2U H 0.7548 0.0603 0.1011
C4U C 0.74722(19) -0.04642(19) 0.10234(8)
C5U C 0.7151(2) -0.1009(2) 0.08936(8)
H3U H 0.7262 -0.1475 0.0947
C6U C 0.6662(2) -0.08933(17) 0.06830(8)
H4U H 0.6447 -0.1284 0.0594
C7U C 0.59390(17) -0.01213(14) 0.03777(6)
C8S C 0.8027(2) -0.0527(2) 0.1250
C9U C 0.7973(3) -0.1244(2) 0.13893(10)
F1U F 0.84002(18) -0.12655(16) 0.16215(7)
F2U F 0.81829(18) -0.17851(14) 0.12294(8)
F3U F 0.73223(19) -0.13936(14) 0.14924(6)
O1S O 0.81485(9) 0.17729(12) 0.22514(4)
O2S O 0.70068(10) 0.17508(12) 0.21604(4)
C1S C 0.77427(15) 0.10145(18) 0.18983(6)
C2S C 0.71777(17) 0.06647(17) 0.17751(6)
H1S H 0.6714 0.0764 0.1835
C3S C 0.72871(19) 0.01855(19) 0.15704(7)
H2S H 0.6897 -0.0048 0.1489
C4S C 0.79642(19) 0.00278(19) 0.14766(8)
C5S C 0.8509(2) 0.0349(2) 0.16064(8)
H3S H 0.8975 0.0238 0.1553
C6S C 0.83933(17) 0.0838(2) 0.18170(8)
H4S H 0.8784 0.1053 0.1906
C7S C 0.76213(14) 0.15610(17) 0.21223(6)
C9S C 0.8744(2) -0.0473(3) 0.11107(10)
F1S F 0.87655(16) -0.09002(18) 0.08785(7)
F2S F 0.92851(14) -0.06829(18) 0.12706(8)
F3S F 0.88936(14) 0.01777(19) 0.10076(6)
Zn1B Zn 0.324823(19) 0.2500 0.244242(9)
Zn1F Zn 0.175177(19) 0.2500 0.255758(9)
Zn1I Zn 0.5000 -0.425177(19) -0.005758(9)
Zn1K Zn 0.675177(19) 0.2500 0.244242(9)
Zn1O Zn 0.824823(19) 0.2500 0.255758(9)
O1E O 0.42729(12) 0.06485(9) -0.02486(4)
O1P O 0.57271(12) 0.06485(9) -0.02486(4)
O2E O 0.42508(12) -0.04932(10) -0.03396(4)
O2P O 0.57492(12) -0.04932(10) -0.03396(4)
N1E N 0.5000 0.18174(13) 0.00786(5)
loop_
_geom_bond_atom_site_label_1
_geom_bond_atom_site_label_2
_geom_bond_site_symmetry_1
_geom_bond_site_symmetry_2
Zn1 O1 1_555 1_555
O1 C7 1_555 1_555
O2 C7 1_555 1_555
C1 C2 1_555 1_555
C2 H1 1_555 1_555
C3 C2 1_555 1_555
H2 C3 1_555 1_555
C4 C3 1_555 1_555
C5 C4 1_555 1_555
H3 C5 1_555 1_555
C6 C1 1_555 1_555
H4 C6 1_555 1_555
C7 C1 1_555 1_555
C8 C4 1_555 1_555
C9 C8 1_555 1_555
F1 C9 1_555 1_555
F2 C9 1_555 1_555
F3 C9 1_555 1_555
N1 Zn1 1_555 1_555
C10 N1 1_555 1_555
H5 C10 1_555 1_555
H6 C10 1_555 1_555
C11 N1 1_555 1_555
H7 C11 1_555 1_555
O1F C7F 1_555 1_555
O2F C7F 1_555 1_555
C1F C2F 1_555 1_555
C2F H1F 1_555 1_555
C3F C2F 1_555 1_555
H2F C3F 1_555 1_555
C4F C8 1_555 1_555
C5F C4F 1_555 1_555
H3F C5F 1_555 1_555
C6F C1F 1_555 1_555
H4F C6F 1_555 1_555
C7F C1F 1_555 1_555
C9F C8 1_555 1_555
F1F C9F 1_555 1_555
F2F C9F 1_555 1_555
F3F C9F 1_555 1_555
N1I C10I 1_555 1_555
C10I H5I 1_555 1_555
H6I C10I 1_555 1_555
C11I C11 1_555 1_555
H7I C11I 1_555 1_555
C10U N1 1_555 1_555
H5U C10U 1_555 1_555
H6U C10U 1_555 1_555
H7U C11 1_555 1_555
C10BA C10 1_555 1_555
H5BA C10BA 1_555 1_555
H6BA C10BA 1_555 1_555
H7BA C11I 1_555 1_555
Zn1E O2 1_555 1_555
O1U Zn1 1_555 1_555
O2U Zn1E 1_555 1_555
C1U C2U 1_555 1_555
C2U H1U 1_555 1_555
C3U C2U 1_555 1_555
H2U C3U 1_555 1_555
C4U C3U 1_555 1_555
C5U C4U 1_555 1_555
H3U C5U 1_555 1_555
C6U C1U 1_555 1_555
H4U C6U 1_555 1_555
C7U O1U 1_555 1_555
C8S C4U 1_555 1_555
C9U C8S 1_555 1_555
F1U C9U 1_555 1_555
F2U C9U 1_555 1_555
F3U C9U 1_555 1_555
O1S C7S 1_555 1_555
O2S C7S 1_555 1_555
C1S C2S 1_555 1_555
C2S H1S 1_555 1_555
C3S C2S 1_555 1_555
H2S C3S 1_555 1_555
C4S C8S 1_555 1_555
C5S C4S 1_555 1_555
H3S C5S 1_555 1_555
C6S C1S 1_555 1_555
H4S C6S 1_555 1_555
C7S C1S 1_555 1_555
C9S C8S 1_555 1_555
F1S C9S 1_555 1_555
F2S C9S 1_555 1_555
F3S C9S 1_555 1_555
Zn1B O2F 1_555 1_555
Zn1F O1F 1_555 1_555
Zn1I N1I 1_555 1_555
Zn1K O2S 1_555 1_555
Zn1O O1S 1_555 1_555
O1E Zn1E 1_555 1_555
O1P Zn1E 1_555 1_555
O2E Zn1 1_555 1_555
O2P Zn1 1_555 1_555
N1E Zn1E 1_555 1_555
C5 C6 1_555 1_555
C3F C4F 1_555 1_555
C5F C6F 1_555 1_555
N1I C11I 1_555 1_555
N1I C10BA 1_555 1_555
C10I C10U 1_555 1_555
O2U C7U 1_555 1_555
C1U C7U 1_555 1_555
C5U C6U 1_555 1_555
C3S C4S 1_555 1_555
C5S C6S 1_555 1_555

#END
