
#######################################################################
#
#                 Cambridge Crystallographic Data Centre
#                                CCDC 
#
#######################################################################
#
# If this CIF has been generated from an entry in the Cambridge 
# Structural Database, then it will include bibliographic, chemical, 
# crystal, experimental, refinement or atomic coordinate data resulting 
# from the CCDC's data processing and validation procedures.
#
#######################################################################

data_SIXFIQ01
_chemical_formula_moiety         '(C24 H14 Cu1 N2 O4)n'
_symmetry_cell_setting           monoclinic
_symmetry_space_group_name_H-M   'P 21/c'
_symmetry_Int_Tables_number      14
_space_group_name_Hall           '-P 2ybc'
loop_
_symmetry_equiv_pos_site_id
_symmetry_equiv_pos_as_xyz
1 x,y,z
2 -x,1/2+y,1/2-z
3 -x,-y,-z
4 x,1/2-y,1/2+z
_cell_length_a                   13.8641(6)
_cell_length_b                   18.1349(9)
_cell_length_c                   26.5914(12)
_cell_angle_alpha                90
_cell_angle_beta                 117.3390(10)
_cell_angle_gamma                90
_cell_volume                     5938.96
loop_
_atom_site_label
_atom_site_type_symbol
_atom_site_fract_x
_atom_site_fract_y
_atom_site_fract_z
O1 O 0.03164(10) 0.41655(8) 0.44926(5)
O2 O 0.14917(10) 0.51053(7) 0.48375(5)
O3 O 0.03008(10) 0.10176(7) 0.05262(5)
O4 O 0.14827(10) 0.00799(8) 0.08586(5)
N1 N 0.83431(12) 0.34519(9) 0.44581(6)
N2 N 0.31830(12) 0.27509(9) 0.31480(6)
C1 C 0.11616(15) 0.45093(12) 0.45683(7)
C2 C 0.18314(16) 0.41770(11) 0.43144(8)
C3 C 0.28156(17) 0.44659(13) 0.44132(9)
H1 H 0.3065 0.4891 0.4631
C4 C 0.34455(18) 0.41406(13) 0.41965(10)
H2 H 0.4121 0.4339 0.4281
C5 C 0.30846(16) 0.35239(12) 0.38566(8)
C6 C 0.20712(18) 0.32411(15) 0.37478(10)
H3 H 0.1802 0.2830 0.3515
C7 C 0.14676(17) 0.35562(14) 0.39769(10)
H4 H 0.0802 0.3350 0.3905
C8 C 0.11485(15) 0.07128(11) 0.08916(7)
C9 C 0.18278(15) 0.11532(11) 0.14233(7)
C10 C 0.28366(16) 0.08976(12) 0.18060(8)
H5 H 0.3097 0.0456 0.1738
C11 C 0.34643(16) 0.12999(12) 0.22929(8)
H6 H 0.4150 0.1129 0.2546
C12 C 0.30848(15) 0.19457(12) 0.24049(8)
C13 C 0.20634(17) 0.21965(13) 0.20218(9)
H7 H 0.1790 0.2629 0.2095
C14 C 0.14495(17) 0.18028(13) 0.15292(9)
H8 H 0.0775 0.1981 0.1269
C15 C 0.37518(16) 0.23753(11) 0.29366(8)
C16 C 0.48744(16) 0.23833(11) 0.31823(8)
H9 H 0.5238 0.2114 0.3024
C17 C 0.54522(15) 0.27980(11) 0.36690(8)
C18 C 0.48758(15) 0.31834(11) 0.38858(8)
H10 H 0.5242 0.3466 0.4211
C19 C 0.37506(16) 0.31530(11) 0.36229(8)
C20 C 0.72641(15) 0.34244(11) 0.42036(7)
H11 H 0.6888 0.3853 0.4195
C21 C 0.66626(15) 0.27973(11) 0.39508(8)
C22 C 0.72405(17) 0.21671(12) 0.39704(10)
H12 H 0.6876 0.1735 0.3801
C23 C 0.83610(18) 0.21825(13) 0.42427(12)
H13 H 0.8762 0.1761 0.4267
C24 C 0.88693(16) 0.28349(12) 0.44770(10)
H14 H 0.9624 0.2844 0.4659
Cu1 Cu 0.069147(17) 0.556040(12) 0.520087(8)
O1B O -0.03164(10) 0.58345(8) 0.55074(5)
O3A O -0.03008(10) 0.60176(7) 0.44738(5)
O4C O 0.14827(10) 0.49201(8) 0.58586(5)
N1B N 0.16569(12) 0.65481(9) 0.55419(6)
Cu1A Cu -0.069147(17) 0.056040(12) -0.020087(8)
Cu1B Cu -0.069147(17) 0.443960(12) 0.479913(8)
Cu1B_2 Cu 0.930853(17) 0.443960(12) 0.479913(8)
Cu1C Cu 0.069147(17) -0.056040(12) 0.020087(8)
loop_
_geom_bond_atom_site_label_1
_geom_bond_atom_site_label_2
_geom_bond_site_symmetry_1
_geom_bond_site_symmetry_2
O1 C1 1_555 1_555
O2 C1 1_555 1_555
O3 C8 1_555 1_555
O4 C8 1_555 1_555
N1 C20 1_555 1_555
N2 C15 1_555 1_555
C1 C2 1_555 1_555
C2 C3 1_555 1_555
C3 H1 1_555 1_555
C4 C3 1_555 1_555
H2 C4 1_555 1_555
C5 C4 1_555 1_555
C6 C5 1_555 1_555
H3 C6 1_555 1_555
C7 C2 1_555 1_555
H4 C7 1_555 1_555
C8 C9 1_555 1_555
C9 C10 1_555 1_555
C10 H5 1_555 1_555
C11 C10 1_555 1_555
H6 C11 1_555 1_555
C12 C11 1_555 1_555
C13 C12 1_555 1_555
H7 C13 1_555 1_555
C14 C9 1_555 1_555
H8 C14 1_555 1_555
C15 C12 1_555 1_555
C16 C15 1_555 1_555
H9 C16 1_555 1_555
C17 C16 1_555 1_555
C18 C17 1_555 1_555
H10 C18 1_555 1_555
C19 N2 1_555 1_555
C20 H11 1_555 1_555
C21 C17 1_555 1_555
C22 C21 1_555 1_555
H12 C22 1_555 1_555
C23 C22 1_555 1_555
H13 C23 1_555 1_555
C24 N1 1_555 1_555
H14 C24 1_555 1_555
Cu1 O2 1_555 1_555
O1B Cu1 1_555 1_555
O3A Cu1 1_555 1_555
O4C Cu1 1_555 1_555
N1B Cu1 1_555 1_555
Cu1A O3 1_555 1_555
Cu1B O1 1_555 1_555
Cu1B_2 N1 1_555 1_555
Cu1C O4 1_555 1_555
C5 C19 1_555 1_555
C6 C7 1_555 1_555
C13 C14 1_555 1_555
C18 C19 1_555 1_555
C20 C21 1_555 1_555
C23 C24 1_555 1_555

#END
