
#######################################################################
#
#                 Cambridge Crystallographic Data Centre
#                                CCDC 
#
#######################################################################
#
# If this CIF has been generated from an entry in the Cambridge 
# Structural Database, then it will include bibliographic, chemical, 
# crystal, experimental, refinement or atomic coordinate data resulting 
# from the CCDC's data processing and validation procedures.
#
#######################################################################

data_SIXFIQ
_chemical_formula_moiety         '(C24 H14 Cu1 N2 O4)n'
_symmetry_cell_setting           monoclinic
_symmetry_space_group_name_H-M   'P 21/c'
_symmetry_Int_Tables_number      14
_space_group_name_Hall           '-P 2ybc'
loop_
_symmetry_equiv_pos_site_id
_symmetry_equiv_pos_as_xyz
1 x,y,z
2 -x,1/2+y,1/2-z
3 -x,-y,-z
4 x,1/2-y,1/2+z
_cell_length_a                   13.8932(6)
_cell_length_b                   14.9017(8)
_cell_length_c                   28.2244(15)
_cell_angle_alpha                90
_cell_angle_beta                 117.982(6)
_cell_angle_gamma                90
_cell_volume                     5160.24
loop_
_atom_site_label
_atom_site_type_symbol
_atom_site_fract_x
_atom_site_fract_y
_atom_site_fract_z
O1 O 0.04819(14) 0.38973(15) 0.46338(8)
O2 O 0.14945(14) 0.51379(16) 0.48622(7)
O3 O 0.04080(14) 0.11157(15) 0.06045(7)
O4 O 0.14248(14) -0.01234(15) 0.08237(7)
N1 N 0.84867(15) 0.30278(16) 0.46055(8)
N2 N 0.32874(16) 0.24336(19) 0.32851(9)
C1 C 0.12622(19) 0.4360(2) 0.46692(10)
C2 C 0.1950(2) 0.3952(2) 0.44451(10)
C3 C 0.2962(2) 0.4329(2) 0.45611(11)
H1 H 0.3231 0.4835 0.4791
C4 C 0.3555(2) 0.3960(2) 0.43398(12)
H2 H 0.4238 0.4221 0.4420
C5 C 0.3208(2) 0.3233(2) 0.40085(11)
C6 C 0.2207(2) 0.2858(3) 0.38956(14)
H3 H 0.1941 0.2354 0.3663
C7 C 0.1595(2) 0.3216(3) 0.41208(14)
H4 H 0.0921 0.2946 0.4049
C8 C 0.1188(2) 0.0632(2) 0.09230(10)
C9 C 0.1882(2) 0.0999(2) 0.14774(10)
C10 C 0.2805(2) 0.0562(2) 0.18320(11)
H5 H 0.3011 0.0022 0.1724
C11 C 0.3448(2) 0.0890(2) 0.23455(11)
H6 H 0.4095 0.0581 0.2581
C12 C 0.3161(2) 0.1647(2) 0.25146(10)
C13 C 0.2221(3) 0.2085(3) 0.21651(14)
H7 H 0.1998 0.2605 0.2282
C14 C 0.1598(3) 0.1780(3) 0.16455(13)
H8 H 0.0973 0.2108 0.1404
C15 C 0.3835(2) 0.2017(2) 0.30653(10)
C16 C 0.4957(2) 0.1944(2) 0.33286(11)
H9 H 0.5319 0.1621 0.3168
C17 C 0.5559(2) 0.2340(2) 0.38278(10)
C18 C 0.50024(19) 0.2791(2) 0.40516(10)
H10 H 0.5387 0.3079 0.4390
C19 C 0.3858(2) 0.2817(2) 0.37716(10)
C20 C 0.73924(19) 0.3036(2) 0.43479(9)
H11 H 0.7030 0.3586 0.4328
C21 C 0.6769(2) 0.2288(2) 0.41117(11)
C22 C 0.7304(3) 0.1501(3) 0.41342(15)
H12 H 0.6903 0.0976 0.3965
C23 C 0.8441(3) 0.1480(3) 0.44065(19)
H13 H 0.8827 0.0939 0.4437
C24 C 0.8981(2) 0.2260(2) 0.46283(14)
H14 H 0.9755 0.2250 0.4809
Cu1 Cu 0.05970(2) 0.57382(3) 0.513383(13)
O1B O -0.04819(14) 0.61027(15) 0.53662(8)
O3A O -0.04080(14) 0.61157(15) 0.43955(7)
O4C O 0.14248(14) 0.51234(15) 0.58237(7)
N1B N 0.15133(15) 0.69722(16) 0.53945(8)
Cu1A Cu -0.05970(2) 0.07382(3) -0.013383(13)
Cu1B Cu -0.05970(2) 0.42618(3) 0.486617(13)
Cu1B_2 Cu 0.94030(2) 0.42618(3) 0.486617(13)
Cu1C Cu 0.05970(2) -0.07382(3) 0.013383(13)
loop_
_geom_bond_atom_site_label_1
_geom_bond_atom_site_label_2
_geom_bond_site_symmetry_1
_geom_bond_site_symmetry_2
O1 C1 1_555 1_555
O2 C1 1_555 1_555
O3 C8 1_555 1_555
O4 C8 1_555 1_555
N1 C20 1_555 1_555
N2 C15 1_555 1_555
C1 C2 1_555 1_555
C2 C3 1_555 1_555
C3 H1 1_555 1_555
C4 C3 1_555 1_555
H2 C4 1_555 1_555
C5 C4 1_555 1_555
C6 C5 1_555 1_555
H3 C6 1_555 1_555
C7 C2 1_555 1_555
H4 C7 1_555 1_555
C8 C9 1_555 1_555
C9 C10 1_555 1_555
C10 H5 1_555 1_555
C11 C10 1_555 1_555
H6 C11 1_555 1_555
C12 C11 1_555 1_555
C13 C12 1_555 1_555
H7 C13 1_555 1_555
C14 C9 1_555 1_555
H8 C14 1_555 1_555
C15 C12 1_555 1_555
C16 C15 1_555 1_555
H9 C16 1_555 1_555
C17 C16 1_555 1_555
C18 C17 1_555 1_555
H10 C18 1_555 1_555
C19 N2 1_555 1_555
C20 H11 1_555 1_555
C21 C17 1_555 1_555
C22 C21 1_555 1_555
H12 C22 1_555 1_555
C23 C22 1_555 1_555
H13 C23 1_555 1_555
C24 N1 1_555 1_555
H14 C24 1_555 1_555
Cu1 O2 1_555 1_555
O1B Cu1 1_555 1_555
O3A Cu1 1_555 1_555
O4C Cu1 1_555 1_555
N1B Cu1 1_555 1_555
Cu1A O3 1_555 1_555
Cu1B O1 1_555 1_555
Cu1B_2 N1 1_555 1_555
Cu1C O4 1_555 1_555
C5 C19 1_555 1_555
C6 C7 1_555 1_555
C13 C14 1_555 1_555
C18 C19 1_555 1_555
C20 C21 1_555 1_555
C23 C24 1_555 1_555

#END
