
#######################################################################
#
#                 Cambridge Crystallographic Data Centre
#                                CCDC 
#
#######################################################################
#
# If this CIF has been generated from an entry in the Cambridge 
# Structural Database, then it will include bibliographic, chemical, 
# crystal, experimental, refinement or atomic coordinate data resulting 
# from the CCDC's data processing and validation procedures.
#
#######################################################################

data_KAHKUB
_chemical_formula_moiety         '(C12 H6 Fe1 K1 N6 2-)n'
_symmetry_cell_setting           rhombohedral
_symmetry_space_group_name_H-M   'R -3 m'
_symmetry_Int_Tables_number      166
_space_group_name_Hall           '-R 3 2"'
loop_
_symmetry_equiv_pos_site_id
_symmetry_equiv_pos_as_xyz
1 x,y,z
2 -y,x-y,z
3 -x+y,-x,z
4 y,x,-z
5 x-y,-y,-z
6 -x,-x+y,-z
7 2/3+x,1/3+y,1/3+z
8 2/3-y,1/3+x-y,1/3+z
9 2/3-x+y,1/3-x,1/3+z
10 2/3+y,1/3+x,1/3-z
11 2/3+x-y,1/3-y,1/3-z
12 2/3-x,1/3-x+y,1/3-z
13 1/3+x,2/3+y,2/3+z
14 1/3-y,2/3+x-y,2/3+z
15 1/3-x+y,2/3-x,2/3+z
16 1/3+y,2/3+x,2/3-z
17 1/3+x-y,2/3-y,2/3-z
18 1/3-x,2/3-x+y,2/3-z
19 -x,-y,-z
20 y,-x+y,-z
21 x-y,x,-z
22 -y,-x,z
23 -x+y,y,z
24 x,x-y,z
25 1/3-x,2/3-y,2/3-z
26 1/3+y,2/3-x+y,2/3-z
27 1/3+x-y,2/3+x,2/3-z
28 1/3-y,2/3-x,2/3+z
29 1/3-x+y,2/3+y,2/3+z
30 1/3+x,2/3+x-y,2/3+z
31 2/3-x,1/3-y,1/3-z
32 2/3+y,1/3-x+y,1/3-z
33 2/3+x-y,1/3+x,1/3-z
34 2/3-y,1/3-x,1/3+z
35 2/3-x+y,1/3+y,1/3+z
36 2/3+x,1/3+x-y,1/3+z
_cell_length_a                   8.7498(17)
_cell_length_b                   8.7498(17)
_cell_length_c                   19.029(3)
_cell_angle_alpha                90
_cell_angle_beta                 90
_cell_angle_gamma                120
_cell_volume                     1261.66
loop_
_atom_site_label
_atom_site_type_symbol
_atom_site_fract_x
_atom_site_fract_y
_atom_site_fract_z
Fe1 Fe -0.0000 -0.0000 0.5000
K1 K 0.3333 0.6667 0.6667
N1 N 0.17007(14) 0.3401(3) 0.58933(11)
C3 C 0.10601(15) 0.2120(3) 0.55711(12)
K1_2 K -0.6667 -0.3333 0.6667
K1_3 K 0.3333 -0.3333 0.6667
K1C K -0.3333 -0.6667 0.3333
K1C_2 K -0.3333 0.3333 0.3333
K1D K 0.6666 0.3333 0.3333
N1A N -0.3401(3) -0.17003(33) 0.58933(11)
N1B N 0.17003(33) -0.17007(14) 0.58933(11)
N1C N 0.3401(3) 0.17007(14) 0.41067(11)
N1D N -0.17003(33) -0.3401(3) 0.41067(11)
N1E N -0.17007(14) 0.17003(33) 0.41067(11)
N1A_2 N 0.6599(3) 0.82997(33) 0.58933(11)
N1B_2 N 0.17003(33) 0.82993(14) 0.58933(11)
N1I N 0.0068(3) 0.50340(14) 0.74400(11)
N1J N 0.49664(33) 0.9932(3) 0.74400(11)
N1K N 0.49660(14) 0.50336(33) 0.74400(11)
C3A C -0.2120(3) -0.10599(34) 0.55711(12)
C3B C 0.10599(34) -0.10601(15) 0.55711(12)
C3C C 0.2120(3) 0.10601(15) 0.44289(12)
C3D C -0.10599(34) -0.2120(3) 0.44289(12)
C3E C -0.10601(15) 0.10599(34) 0.44289(12)
C1 C 0.7371(3) 0.2629(3) 0.5848(4)
H1 H 0.7984 0.2016 0.5821
C2 C 0.5957(4) 0.1915(7) 0.5864(4)
H2 H 0.5345 0.0689 0.5890
C1A C 0.7371(3) 0.4742(4) 0.5848(4)
C1B C 0.5258(4) 0.2629(3) 0.5848(4)
H1A H 0.7984 0.5968 0.5821
H1B H 0.4032 0.2016 0.5821
C2A C 0.8085(7) 0.4042(8) 0.5864(4)
C2B C 0.5958(8) 0.4043(4) 0.5864(4)
H2A H 0.9311 0.4656 0.5890
H2B H 0.5344 0.4655 0.5890
loop_
_geom_bond_atom_site_label_1
_geom_bond_atom_site_label_2
_geom_bond_site_symmetry_1
_geom_bond_site_symmetry_2
C1 H1 1_555 1_555
C2 C1 1_555 1_555
H2 C2 1_555 1_555
Fe1 C3 1_555 1_555
K1 N1 1_555 1_555
N1 C3 1_555 1_555
C1A H1A 1_555 1_555
C1B C2 1_555 1_555
H1B C1B 1_555 1_555
C2A C1 1_555 1_555
C2B C1A 1_555 1_555
H2A C2A 1_555 1_555
H2B C2B 1_555 1_555
K1_2 N1A 1_555 1_555
K1_3 N1B 1_555 1_555
K1C N1D 1_555 1_555
K1C_2 N1E 1_555 1_555
K1D N1C 1_555 1_555
N1A C3A 1_555 1_555
N1B C3B 1_555 1_555
N1C C3C 1_555 1_555
N1D C3D 1_555 1_555
N1E C3E 1_555 1_555
N1A_2 K1 1_555 1_555
N1B_2 K1 1_555 1_555
N1I K1 1_555 1_555
N1J K1 1_555 1_555
N1K K1 1_555 1_555
C3A Fe1 1_555 1_555
C3B Fe1 1_555 1_555
C3C Fe1 1_555 1_555
C3D Fe1 1_555 1_555
C3E Fe1 1_555 1_555
C1A C2A 1_555 1_555
C1B C2B 1_555 1_555

#END
