
#######################################################################
#
#                 Cambridge Crystallographic Data Centre
#                                CCDC 
#
#######################################################################
#
# If this CIF has been generated from an entry in the Cambridge 
# Structural Database, then it will include bibliographic, chemical, 
# crystal, experimental, refinement or atomic coordinate data resulting 
# from the CCDC's data processing and validation procedures.
#
#######################################################################

data_NEDXOL
_chemical_formula_moiety         '(C62 H48 N8 O24 P4 Zn4 2+)n'
_symmetry_cell_setting           orthorhombic
_symmetry_space_group_name_H-M   'P n n m'
_symmetry_Int_Tables_number      58
_space_group_name_Hall           '-P 2 2n'
loop_
_symmetry_equiv_pos_site_id
_symmetry_equiv_pos_as_xyz
1 x,y,z
2 -x,-y,z
3 1/2-x,1/2+y,1/2-z
4 1/2+x,1/2-y,1/2-z
5 -x,-y,-z
6 x,y,-z
7 1/2+x,1/2-y,1/2+z
8 1/2-x,1/2+y,1/2+z
_cell_length_a                   9.2671(5)
_cell_length_b                   17.1198(9)
_cell_length_c                   24.8416(13)
_cell_angle_alpha                90
_cell_angle_beta                 90
_cell_angle_gamma                90
_cell_volume                     3941.14
loop_
_atom_site_label
_atom_site_type_symbol
_atom_site_fract_x
_atom_site_fract_y
_atom_site_fract_z
Zn1 Zn 0.18146(4) 0.19998(2) 0.249117(13)
P1 P -0.15504(9) 0.14213(5) 0.24568(3)
O1 O -0.0234(3) 0.19137(15) 0.25523(9)
O2 O -0.1617(3) 0.07109(14) 0.28521(9)
O3 O -0.1453(3) 0.09978(15) 0.19075(9)
O4 O -0.2899(3) 0.18986(15) 0.25091(10)
N1 N 0.2649(3) 0.14324(16) 0.31314(10)
N2 N 0.2778(3) 0.14707(16) 0.18615(10)
C1 C 0.1803(3) 0.1150(2) 0.35272(13)
C2 C 0.2343(4) 0.0751(2) 0.39655(12)
C3 C 0.3831(4) 0.06461(19) 0.40120(11)
C4 C 0.4696(3) 0.0920(2) 0.35976(13)
C5 C 0.4084(4) 0.1308(2) 0.31696(13)
C6 C 0.4443(3) 0.02808(18) 0.45067(12)
C7 C 0.3908(5) 0.0533(3) 0.5000
C8 C 0.2502(5) 0.0724(2) 0.17506(17)
C9 C 0.3115(5) 0.0340(2) 0.13242(17)
C10 C 0.4041(4) 0.07252(19) 0.09881(12)
C11 C 0.4365(5) 0.1499(2) 0.11092(15)
C12 C 0.3712(5) 0.1848(2) 0.15425(15)
C13 C 0.4610(3) 0.03498(17) 0.04895(11)
C14 C 0.4224(5) 0.0683(3) 0.0000
H2 H 0.3266 0.0914 0.5000
H3 H 0.1737 0.0592 0.4260
H4 H 0.5799 0.0906 0.3617
H5 H 0.4641 0.1566 0.2887
H6 H 0.0796 0.1192 0.3484
H7 H 0.1790 0.0491 0.2015
H8 H 0.3072 -0.0233 0.1277
H9 H 0.4922 0.1804 0.0850
H10 H 0.3954 0.2349 0.1647
H11 H -0.1605 0.0915 0.3173
H13 H 0.3642 0.1138 0.0000
H15 H -0.1209 0.1313 0.1602
Zn1C Zn -0.31854(4) 0.30002(2) 0.250883(13)
Zn1E Zn 0.18146(4) 0.19998(2) 0.750883(13)
Zn1D Zn 0.81854(4) -0.19998(2) 0.750883(13)
Zn1A Zn 0.81854(4) -0.19998(2) 0.249117(13)
Zn1E_2 Zn 0.18146(4) 0.19998(2) -0.249117(13)
Zn1D_2 Zn 0.81854(4) -0.19998(2) -0.249117(13)
Zn1B Zn 1.31854(4) -0.30002(2) 0.250883(13)
Zn1F Zn -0.31854(4) 0.30002(2) -0.250883(13)
Zn1G Zn 1.31854(4) -0.30002(2) -0.250883(13)
P1A P 1.15504(9) -0.14213(5) 0.24568(3)
P1E P -0.15504(9) 0.14213(5) -0.24568(3)
P1D P 1.15504(9) -0.14213(5) -0.24568(3)
O1A O 1.0234(3) -0.19137(15) 0.25523(9)
O1E O -0.0234(3) 0.19137(15) -0.25523(9)
O1D O 1.0234(3) -0.19137(15) -0.25523(9)
O2A O 1.1617(3) -0.07109(14) 0.28521(9)
O2E O -0.1617(3) 0.07109(14) -0.28521(9)
O2D O 1.1617(3) -0.07109(14) -0.28521(9)
O3A O 1.1453(3) -0.09978(15) 0.19075(9)
O3E O -0.1453(3) 0.09978(15) -0.19075(9)
O3D O 1.1453(3) -0.09978(15) -0.19075(9)
O4C O 0.2101(3) 0.31014(15) 0.24909(10)
O4B O 0.7899(3) -0.31014(15) 0.24909(10)
O4F O 0.2101(3) 0.31014(15) -0.24909(10)
O4G O 0.7899(3) -0.31014(15) -0.24909(10)
O4A O 1.2899(3) -0.18986(15) 0.25091(10)
O4E O -0.2899(3) 0.18986(15) -0.25091(10)
O4D O 1.2899(3) -0.18986(15) -0.25091(10)
N1E N 0.2649(3) 0.14324(16) 0.68686(10)
N1D N 0.7351(3) -0.14324(16) 0.68686(10)
N1A N 0.7351(3) -0.14324(16) 0.31314(10)
N1E_2 N 0.2649(3) 0.14324(16) -0.31314(10)
N1D_2 N 0.7351(3) -0.14324(16) -0.31314(10)
N2E N 0.2778(3) 0.14707(16) -0.18615(10)
N2D N 0.7222(3) -0.14707(16) -0.18615(10)
N2A N 0.7222(3) -0.14707(16) 0.18615(10)
C1E C 0.1803(3) 0.1150(2) 0.64728(13)
C1D C 0.8197(3) -0.1150(2) 0.64728(13)
C1A C 0.8197(3) -0.1150(2) 0.35272(13)
C2E C 0.2343(4) 0.0751(2) 0.60345(12)
C2D C 0.7657(4) -0.0751(2) 0.60345(12)
C2A C 0.7657(4) -0.0751(2) 0.39655(12)
C3E C 0.3831(4) 0.06461(19) 0.59880(11)
C3D C 0.6169(4) -0.06461(19) 0.59880(11)
C3A C 0.6169(4) -0.06461(19) 0.40120(11)
C4E C 0.4696(3) 0.0920(2) 0.64024(13)
C4D C 0.5304(3) -0.0920(2) 0.64024(13)
C4A C 0.5304(3) -0.0920(2) 0.35976(13)
C5E C 0.4084(4) 0.1308(2) 0.68304(13)
C5D C 0.5916(4) -0.1308(2) 0.68304(13)
C5A C 0.5916(4) -0.1308(2) 0.31696(13)
C6E C 0.4443(3) 0.02808(18) 0.54933(12)
C6D C 0.5557(3) -0.02808(18) 0.54933(12)
C6A C 0.5557(3) -0.02808(18) 0.45067(12)
C7A C 0.6092(5) -0.0533(3) 0.5000
C8E C 0.2502(5) 0.0724(2) -0.17506(17)
C8D C 0.7498(5) -0.0724(2) -0.17506(17)
C8A C 0.7498(5) -0.0724(2) 0.17506(17)
C9E C 0.3115(5) 0.0340(2) -0.13242(17)
C9D C 0.6885(5) -0.0340(2) -0.13242(17)
C9A C 0.6885(5) -0.0340(2) 0.13242(17)
C10E C 0.4041(4) 0.07252(19) -0.09881(12)
C10D C 0.5959(4) -0.07252(19) -0.09881(12)
C10A C 0.5959(4) -0.07252(19) 0.09881(12)
C11E C 0.4365(5) 0.1499(2) -0.11092(15)
C11D C 0.5635(5) -0.1499(2) -0.11092(15)
C11A C 0.5635(5) -0.1499(2) 0.11092(15)
C12E C 0.3712(5) 0.1848(2) -0.15425(15)
C12D C 0.6288(5) -0.1848(2) -0.15425(15)
C12A C 0.6288(5) -0.1848(2) 0.15425(15)
C13E C 0.4610(3) 0.03498(17) -0.04895(11)
C13D C 0.5390(3) -0.03498(17) -0.04895(11)
C13A C 0.5390(3) -0.03498(17) 0.04895(11)
C14A C 0.5776(5) -0.0683(3) 0.0000
H2A H 0.6734 -0.0914 0.5000
H3E H 0.1737 0.0592 0.5740
H3D H 0.8263 -0.0592 0.5740
H3A H 0.8263 -0.0592 0.4260
H4E H 0.5799 0.0906 0.6383
H4D H 0.4201 -0.0906 0.6383
H4A H 0.4201 -0.0906 0.3617
H5E H 0.4641 0.1566 0.7113
H5D H 0.5359 -0.1566 0.7113
H5A H 0.5359 -0.1566 0.2887
H6E H 0.0796 0.1192 0.6516
H6D H 0.9204 -0.1192 0.6516
H6A H 0.9204 -0.1192 0.3484
H7E H 0.1790 0.0491 -0.2015
H7D H 0.8210 -0.0491 -0.2015
H7A H 0.8210 -0.0491 0.2015
H8E H 0.3072 -0.0233 -0.1277
H8D H 0.6928 0.0233 -0.1277
H8A H 0.6928 0.0233 0.1277
H9E H 0.4922 0.1804 -0.0850
H9D H 0.5078 -0.1804 -0.0850
H9A H 0.5078 -0.1804 0.0850
H10E H 0.3954 0.2349 -0.1647
H10D H 0.6046 -0.2349 -0.1647
H10A H 0.6046 -0.2349 0.1647
H11A H 1.1605 -0.0915 0.3173
H11E H -0.1605 0.0915 -0.3173
H11D H 1.1605 -0.0915 -0.3173
H13A H 0.6358 -0.1138 0.0000
H15A H 1.1209 -0.1313 0.1602
H15E H -0.1209 0.1313 -0.1602
H15D H 1.1209 -0.1313 -0.1602
O5 O 0.3228(5) 0.3574(3) 0.45149(14)
O6 O 0.4559(4) 0.3175(2) 0.38571(11)
O7 O 0.8004(3) 0.13591(17) 0.38500(10)
O8 O 0.9244(3) 0.0906(2) 0.45213(12)
C15 C 0.4283(5) 0.3194(3) 0.43336(17)
C16 C 0.5260(4) 0.2737(2) 0.47153(13)
C17 C 0.6276(4) 0.2269(2) 0.44561(13)
C18 C 0.7280(4) 0.1790(2) 0.47179(12)
C19 C 0.8240(4) 0.1326(2) 0.43332(14)
H1 H 0.6296 0.2240 0.4080
O5E O 0.3228(5) 0.3574(3) 0.54851(14)
O6E O 0.4559(4) 0.3175(2) 0.61429(11)
O7E O 0.8004(3) 0.13591(17) 0.61500(10)
O8E O 0.9244(3) 0.0906(2) 0.54787(12)
C15E C 0.4283(5) 0.3194(3) 0.56664(17)
C16E C 0.5260(4) 0.2737(2) 0.52847(13)
C17E C 0.6276(4) 0.2269(2) 0.55439(13)
C18E C 0.7280(4) 0.1790(2) 0.52821(12)
C19E C 0.8240(4) 0.1326(2) 0.56668(14)
H1E H 0.6296 0.2240 0.5920
loop_
_geom_bond_atom_site_label_1
_geom_bond_atom_site_label_2
_geom_bond_site_symmetry_1
_geom_bond_site_symmetry_2
Zn1 O1 1_555 1_555
P1 O1 1_555 1_555
O2 P1 1_555 1_555
O3 P1 1_555 1_555
O4 P1 1_555 1_555
O5 C15 1_555 1_555
O6 C15 1_555 1_555
O7 C19 1_555 1_555
O8 C19 1_555 1_555
N1 Zn1 1_555 1_555
N2 Zn1 1_555 1_555
C1 N1 1_555 1_555
C2 C1 1_555 1_555
C3 C2 1_555 1_555
C4 C3 1_555 1_555
C5 N1 1_555 1_555
C6 C3 1_555 1_555
C7 C6 1_555 1_555
C8 N2 1_555 1_555
C9 C8 1_555 1_555
C10 C9 1_555 1_555
C11 C10 1_555 1_555
C12 N2 1_555 1_555
C13 C10 1_555 1_555
C14 C13 1_555 1_555
C15 C16 1_555 1_555
C16 C17 1_555 1_555
C17 C18 1_555 1_555
C18 C19 1_555 1_555
H1 C17 1_555 1_555
H2 C7 1_555 1_555
H3 C2 1_555 1_555
H4 C4 1_555 1_555
H5 C5 1_555 1_555
H6 C1 1_555 1_555
H7 C8 1_555 1_555
H8 C9 1_555 1_555
H9 C11 1_555 1_555
H10 C12 1_555 1_555
H11 O2 1_555 1_555
H13 C14 1_555 1_555
H15 O3 1_555 1_555
Zn1C O4 1_555 1_555
Zn1E N1E 1_555 1_555
Zn1D N1D 1_555 1_555
Zn1A O1A 1_555 1_555
Zn1E_2 O1E 1_555 1_555
Zn1D_2 O1D 1_555 1_555
Zn1B O4A 1_555 1_555
Zn1F O4E 1_555 1_555
Zn1G O4D 1_555 1_555
P1A O1A 1_555 1_555
P1E O1E 1_555 1_555
P1D O1D 1_555 1_555
O2A P1A 1_555 1_555
O2E P1E 1_555 1_555
O2D P1D 1_555 1_555
O3A P1A 1_555 1_555
O3E P1E 1_555 1_555
O3D P1D 1_555 1_555
O4C Zn1 1_555 1_555
O4B Zn1A 1_555 1_555
O4F Zn1E_2 1_555 1_555
O4G Zn1D_2 1_555 1_555
O4A P1A 1_555 1_555
O4E P1E 1_555 1_555
O4D P1D 1_555 1_555
O5E C15E 1_555 1_555
O6E C15E 1_555 1_555
O7E C19E 1_555 1_555
O8E C19E 1_555 1_555
N1E C1E 1_555 1_555
N1D C1D 1_555 1_555
N1A Zn1A 1_555 1_555
N1E_2 Zn1E_2 1_555 1_555
N1D_2 Zn1D_2 1_555 1_555
N2E Zn1E_2 1_555 1_555
N2D Zn1D_2 1_555 1_555
N2A Zn1A 1_555 1_555
C1E C2E 1_555 1_555
C1D C2D 1_555 1_555
C1A N1A 1_555 1_555
C2E C3E 1_555 1_555
C2D C3D 1_555 1_555
C2A C1A 1_555 1_555
C3E C4E 1_555 1_555
C3D C4D 1_555 1_555
C3A C2A 1_555 1_555
C4E C5E 1_555 1_555
C4D C5D 1_555 1_555
C4A C3A 1_555 1_555
C5E N1E 1_555 1_555
C5D N1D 1_555 1_555
C5A N1A 1_555 1_555
C6E C7 1_555 1_555
C6D C3D 1_555 1_555
C6A C6 1_555 1_555
C7A C6D 1_555 1_555
C8E N2E 1_555 1_555
C8D N2D 1_555 1_555
C8A N2A 1_555 1_555
C9E C8E 1_555 1_555
C9D C8D 1_555 1_555
C9A C8A 1_555 1_555
C10E C9E 1_555 1_555
C10D C9D 1_555 1_555
C10A C9A 1_555 1_555
C11E C10E 1_555 1_555
C11D C10D 1_555 1_555
C11A C10A 1_555 1_555
C12E N2E 1_555 1_555
C12D N2D 1_555 1_555
C12A N2A 1_555 1_555
C13E C14 1_555 1_555
C13D C10D 1_555 1_555
C13A C13 1_555 1_555
C14A C13D 1_555 1_555
C15E C16E 1_555 1_555
C16E C16 1_555 1_555
C17E C16E 1_555 1_555
C18E C18 1_555 1_555
C19E C18E 1_555 1_555
H1E C17E 1_555 1_555
H2A C7A 1_555 1_555
H3E C2E 1_555 1_555
H3D C2D 1_555 1_555
H3A C2A 1_555 1_555
H4E C4E 1_555 1_555
H4D C4D 1_555 1_555
H4A C4A 1_555 1_555
H5E C5E 1_555 1_555
H5D C5D 1_555 1_555
H5A C5A 1_555 1_555
H6E C1E 1_555 1_555
H6D C1D 1_555 1_555
H6A C1A 1_555 1_555
H7E C8E 1_555 1_555
H7D C8D 1_555 1_555
H7A C8A 1_555 1_555
H8E C9E 1_555 1_555
H8D C9D 1_555 1_555
H8A C9A 1_555 1_555
H9E C11E 1_555 1_555
H9D C11D 1_555 1_555
H9A C11A 1_555 1_555
H10E C12E 1_555 1_555
H10D C12D 1_555 1_555
H10A C12A 1_555 1_555
H11A O2A 1_555 1_555
H11E O2E 1_555 1_555
H11D O2D 1_555 1_555
H13A C14A 1_555 1_555
H15A O3A 1_555 1_555
H15E O3E 1_555 1_555
H15D O3D 1_555 1_555
C4 C5 1_555 1_555
C11 C12 1_555 1_555
C3E C6E 1_555 1_555
C3A C6A 1_555 1_555
C4A C5A 1_555 1_555
C6E C6D 1_555 1_555
C6A C7A 1_555 1_555
C10E C13E 1_555 1_555
C10A C13A 1_555 1_555
C11E C12E 1_555 1_555
C11D C12D 1_555 1_555
C11A C12A 1_555 1_555
C13E C13D 1_555 1_555
C13A C14A 1_555 1_555
C17E C18E 1_555 1_555

#END
