
#######################################################################
#
#                 Cambridge Crystallographic Data Centre
#                                CCDC 
#
#######################################################################
#
# If this CIF has been generated from an entry in the Cambridge 
# Structural Database, then it will include bibliographic, chemical, 
# crystal, experimental, refinement or atomic coordinate data resulting 
# from the CCDC's data processing and validation procedures.
#
#######################################################################

data_RIPTEQ
_chemical_formula_moiety         '(C6 H57 Mo12 N6 Na2 O70 P8 Zn2 1-)n'
_symmetry_cell_setting           triclinic
_symmetry_space_group_name_H-M   'P -1'
_symmetry_Int_Tables_number      2
_space_group_name_Hall           '-P 1'
loop_
_symmetry_equiv_pos_site_id
_symmetry_equiv_pos_as_xyz
1 x,y,z
2 -x,-y,-z
_cell_length_a                   12.420(4)
_cell_length_b                   13.666(5)
_cell_length_c                   14.234(5)
_cell_angle_alpha                96.943(15)
_cell_angle_beta                 114.715(14)
_cell_angle_gamma                110.568(16)
_cell_volume                     1950.26
loop_
_atom_site_label
_atom_site_type_symbol
_atom_site_fract_x
_atom_site_fract_y
_atom_site_fract_z
Mo1 Mo 0.31504(4) 0.46533(3) 0.15966(3)
Mo2 Mo 0.31902(4) 0.71535(3) 0.26853(3)
Mo3 Mo 0.11232(4) 0.71400(3) 0.27257(3)
Mo4 Mo -0.17569(4) 0.45828(3) 0.17190(3)
Mo5 Mo -0.17581(4) 0.27440(3) 0.10063(3)
Mo6 Mo 0.10851(4) 0.27985(3) 0.09043(3)
Zn1 Zn 0.15752(5) 0.32103(4) 0.42837(4)
Na1 Na 0.0000 0.5000 0.0000
Na2 Na 0.0000 0.0000 0.0000
P1 P 0.13756(11) 0.47321(9) 0.28854(9)
P2 P 0.57695(12) 0.66462(11) 0.38033(11)
P3 P -0.07669(13) 0.66445(10) 0.38296(10)
P4 P -0.02936(12) 0.11998(9) 0.20718(10)
O1 O 0.4939(4) 0.5470(3) 0.3025(3)
O2 O 0.2508(3) 0.5373(3) 0.2680(3)
O3 O 0.2804(3) 0.3458(3) 0.2209(3)
O4 O 0.3432(3) 0.6255(3) 0.1527(3)
O5 O 0.1310(3) 0.4139(3) 0.0508(3)
O6 O 0.3802(4) 0.4388(3) 0.0825(3)
O7 O 0.4905(3) 0.7178(3) 0.3874(3)
O8 O 0.2814(3) 0.7357(3) 0.3866(3)
O9 O 0.1363(3) 0.6584(3) 0.1533(2)
O10 O 0.3928(4) 0.8413(3) 0.2621(3)
O11 O 0.0620(4) 0.7177(3) 0.3943(3)
O12 O 0.0518(3) 0.5344(3) 0.2757(3)
O13 O -0.0925(3) 0.6181(3) 0.1617(2)
O14 O 0.1265(4) 0.8392(3) 0.2660(3)
O15 O -0.1459(4) 0.5408(3) 0.3198(3)
O16 O -0.1651(3) 0.3412(3) 0.2344(3)
O17 O -0.1412(3) 0.4075(3) 0.0585(3)
O18 O -0.3366(3) 0.4294(3) 0.1010(3)
O19 O -0.0981(3) 0.2324(3) 0.0024(2)
O20 O -0.1400(3) 0.1564(3) 0.1679(3)
O21 O 0.0521(3) 0.3575(3) 0.2041(3)
O22 O -0.3367(4) 0.1924(3) 0.0129(3)
O23 O 0.0466(4) 0.1487(3) 0.1440(3)
O24 O 0.1198(4) 0.2026(3) -0.0034(3)
O25 O 0.6643(5) 0.7398(4) 0.3424(5)
O26 O -0.1553(4) 0.7245(3) 0.3251(3)
O27 O 0.0671(4) 0.1777(3) 0.3285(3)
O28 O -0.0908(4) -0.0035(3) 0.1863(3)
O29 O -0.0588(4) 0.6763(3) 0.4964(3)
O30 O 0.6615(4) 0.6599(4) 0.4909(3)
O31 O 0.1951(3) 0.4647(3) 0.4035(3)
O32 O -0.2031(6) 0.0033(5) -0.1090(6)
Mo1A Mo -0.31504(4) 0.53467(3) -0.15966(3)
Mo2A Mo -0.31902(4) 0.28465(3) -0.26853(3)
Mo3A Mo -0.11232(4) 0.28600(3) -0.27257(3)
Mo4A Mo 0.17569(4) 0.54172(3) -0.17190(3)
Mo5A Mo 0.17581(4) 0.72560(3) -0.10063(3)
Mo6A Mo -0.10851(4) 0.72015(3) -0.09043(3)
Zn1A Zn -0.15752(5) 0.67897(4) -0.42837(4)
Zn1A_2 Zn -0.15752(5) 0.67897(4) 0.57163(4)
Zn1A_3 Zn 0.84248(5) 0.67897(4) 0.57163(4)
Zn1_2 Zn -0.84248(5) 0.32103(4) -0.57163(4)
Zn1_3 Zn 0.15752(5) 0.32103(4) -0.57163(4)
Na2_2 Na 0.0000 1.0000 0.0000
P1A P -0.13756(11) 0.52679(9) -0.28854(9)
P2A P -0.57695(12) 0.33538(11) -0.38033(11)
P3A P 0.07669(13) 0.33555(10) -0.38296(10)
P4A P 0.02936(12) 0.88002(9) -0.20718(10)
O1A O -0.4939(4) 0.4530(3) -0.3025(3)
O2A O -0.2508(3) 0.4627(3) -0.2680(3)
O3A O -0.2804(3) 0.6542(3) -0.2209(3)
O4A O -0.3432(3) 0.3745(3) -0.1527(3)
O5A O -0.1310(3) 0.5861(3) -0.0508(3)
O6A O -0.3802(4) 0.5612(3) -0.0825(3)
O7A O -0.4905(3) 0.2822(3) -0.3874(3)
O8A O -0.2814(3) 0.2643(3) -0.3866(3)
O9A O -0.1363(3) 0.3416(3) -0.1533(2)
O10A O -0.3928(4) 0.1587(3) -0.2621(3)
O11A O -0.0620(4) 0.2823(3) -0.3943(3)
O12A O -0.0518(3) 0.4656(3) -0.2757(3)
O13A O 0.0925(3) 0.3819(3) -0.1617(2)
O14A O -0.1265(4) 0.1608(3) -0.2660(3)
O15A O 0.1459(4) 0.4592(3) -0.3198(3)
O16A O 0.1651(3) 0.6588(3) -0.2344(3)
O17A O 0.1412(3) 0.5925(3) -0.0585(3)
O18A O 0.3366(3) 0.5706(3) -0.1010(3)
O19A O 0.0981(3) 0.7676(3) -0.0024(2)
O20A O 0.1400(3) 0.8436(3) -0.1679(3)
O21A O -0.0521(3) 0.6425(3) -0.2041(3)
O22A O 0.3367(4) 0.8076(3) -0.0129(3)
O23A O -0.0466(4) 0.8513(3) -0.1440(3)
O23A_2 O -0.0466(4) -0.1487(3) -0.1440(3)
O24A O -0.1198(4) 0.7974(3) 0.0034(3)
O24A_2 O -0.1198(4) -0.2026(3) 0.0034(3)
O25A O -0.6643(5) 0.2602(4) -0.3424(5)
O26A O 0.1553(4) 0.2755(3) -0.3251(3)
O27A O -0.0671(4) 0.8223(3) -0.3285(3)
O28A O 0.0908(4) 1.0035(3) -0.1863(3)
O29A O 0.0588(4) 0.3237(3) -0.4964(3)
O29A_2 O 0.0588(4) 0.3237(3) 0.5036(3)
O29_2 O -0.0588(4) 0.6763(3) -0.5036(3)
O30A O -0.6615(4) 0.3401(4) -0.4909(3)
O30A_2 O 0.3385(4) 0.3401(4) 0.5091(3)
O30_2 O -0.3385(4) 0.6599(4) -0.5091(3)
O31A O -0.1951(3) 0.5353(3) -0.4035(3)
O32A O 0.2031(6) -0.0033(5) 0.1090(6)
N1 N 0.2051(7) 0.6141(5) 0.5694(5)
N2 N 0.4671(6) 0.6152(6) 0.5805(5)
C1 C 0.4298(14) 0.6551(13) 0.6612(9)
C2 C 0.3421(11) 0.6815(13) 0.6470(10)
N3 N 0.0201(6) -0.0442(4) 0.3799(5)
C3 C -0.0212(9) 0.0111(6) 0.4461(6)
N3A N -0.0201(6) 0.0442(4) 0.6201(5)
C3A C 0.0212(9) -0.0111(6) 0.5539(6)
N4 N 0.3602(14) 0.0809(12) -0.0796(12)
N5 N 0.3941(11) 0.3623(9) -0.0991(9)
C4 C 0.3920(16) 0.1846(13) -0.1368(13)
C5 C 0.3673(10) 0.2543(9) -0.0834(8)
O33 O 0.7917(12) 0.1450(10) 0.3443(10)
O35 O 0.4570(16) 0.9375(13) 0.5463(13)
O37 O 0.7077(13) 0.9528(10) 0.4908(11)
O40 O 0.3115(12) 0.1473(11) 0.3255(10)
O42 O 0.5608(12) -0.1138(10) -0.1190(10)
O43 O 0.5730(15) -0.0166(12) 0.1991(12)
loop_
_geom_bond_atom_site_label_1
_geom_bond_atom_site_label_2
_geom_bond_site_symmetry_1
_geom_bond_site_symmetry_2
Mo1 Mo6 1_555 1_555
Mo2 Mo3 1_555 1_555
Mo3 O8 1_555 1_555
Mo4 Mo5 1_555 1_555
Mo5 O16 1_555 1_555
Mo6 O3 1_555 1_555
Zn1 O27 1_555 1_555
Na1 O5 1_555 1_555
Na2 O23 1_555 1_555
P1 O2 1_555 1_555
P2 O1 1_555 1_555
P3 O11 1_555 1_555
P4 O20 1_555 1_555
O1 Mo1 1_555 1_555
O2 Mo1 1_555 1_555
O3 Mo1 1_555 1_555
O4 Mo1 1_555 1_555
O5 Mo1 1_555 1_555
O6 Mo1 1_555 1_555
O7 Mo2 1_555 1_555
O8 Mo2 1_555 1_555
O9 Mo2 1_555 1_555
O10 Mo2 1_555 1_555
O11 Mo3 1_555 1_555
O12 Mo3 1_555 1_555
O13 Mo3 1_555 1_555
O14 Mo3 1_555 1_555
O15 Mo4 1_555 1_555
O16 Mo4 1_555 1_555
O17 Mo4 1_555 1_555
O18 Mo4 1_555 1_555
O19 Mo5 1_555 1_555
O20 Mo5 1_555 1_555
O21 Mo5 1_555 1_555
O22 Mo5 1_555 1_555
O23 Mo6 1_555 1_555
O24 Mo6 1_555 1_555
O25 P2 1_555 1_555
O26 P3 1_555 1_555
O27 P4 1_555 1_555
O28 P4 1_555 1_555
O29 P3 1_555 1_555
O30 P2 1_555 1_555
O31 Zn1 1_555 1_555
O32 Na2 1_555 1_555
N1 C2 1_555 1_555
N2 C1 1_555 1_555
C1 C2 1_555 1_555
N3 C3 1_555 1_555
C3 C3A 1_555 1_555
N4 C4 1_555 1_555
N5 C5 1_555 1_555
C4 C5 1_555 1_555
Mo1A Mo6A 1_555 1_555
Mo2A Mo3A 1_555 1_555
Mo3A O8A 1_555 1_555
Mo4A Mo5A 1_555 1_555
Mo5A O16A 1_555 1_555
Mo6A O3A 1_555 1_555
Zn1A O27A 1_555 1_555
Zn1A_2 O29 1_555 1_555
Zn1A_3 O30 1_555 1_555
Zn1_2 O30A 1_555 1_555
Zn1_3 O29A 1_555 1_555
Na2_2 O23A 1_555 1_555
P1A O2A 1_555 1_555
P2A O1A 1_555 1_555
P3A O11A 1_555 1_555
P4A O20A 1_555 1_555
O1A Mo1A 1_555 1_555
O2A Mo1A 1_555 1_555
O3A Mo1A 1_555 1_555
O4A Mo1A 1_555 1_555
O5A Na1 1_555 1_555
O6A Mo1A 1_555 1_555
O7A Mo2A 1_555 1_555
O8A Mo2A 1_555 1_555
O9A Na1 1_555 1_555
O10A Mo2A 1_555 1_555
O11A Mo3A 1_555 1_555
O12A Mo3A 1_555 1_555
O13A Mo3A 1_555 1_555
O14A Mo3A 1_555 1_555
O15A Mo4A 1_555 1_555
O16A Mo4A 1_555 1_555
O17A Na1 1_555 1_555
O18A Mo4A 1_555 1_555
O19A Mo5A 1_555 1_555
O20A Mo5A 1_555 1_555
O21A Mo5A 1_555 1_555
O22A Mo5A 1_555 1_555
O23A Mo6A 1_555 1_555
O23A_2 Na2 1_555 1_555
O24A Mo6A 1_555 1_555
O24A_2 Na2 1_555 1_555
O25A P2A 1_555 1_555
O26A P3A 1_555 1_555
O27A P4A 1_555 1_555
O28A P4A 1_555 1_555
O29A P3A 1_555 1_555
O29A_2 Zn1 1_555 1_555
O29_2 Zn1A 1_555 1_555
O30A P2A 1_555 1_555
O30A_2 Zn1 1_555 1_555
O30_2 Zn1A 1_555 1_555
O31A Zn1A 1_555 1_555
O32A Na2 1_555 1_555
N3A C3A 1_555 1_555
Mo2 O2 1_555 1_555
Mo2 O4 1_555 1_555
Mo3 O9 1_555 1_555
Mo4 O12 1_555 1_555
Mo4 O13 1_555 1_555
Mo5 O17 1_555 1_555
Mo6 O5 1_555 1_555
Mo6 O19 1_555 1_555
Mo6 O21 1_555 1_555
Na1 O9 1_555 1_555
Na1 O17 1_555 1_555
Na2 O24 1_555 1_555
P1 O12 1_555 1_555
P1 O21 1_555 1_555
P1 O31 1_555 1_555
P2 O7 1_555 1_555
P3 O15 1_555 1_555
P4 O23 1_555 1_555
Mo1A O5A 1_555 1_555
Mo2A O2A 1_555 1_555
Mo2A O4A 1_555 1_555
Mo2A O9A 1_555 1_555
Mo3A O9A 1_555 1_555
Mo4A O12A 1_555 1_555
Mo4A O13A 1_555 1_555
Mo4A O17A 1_555 1_555
Mo5A O17A 1_555 1_555
Mo6A O5A 1_555 1_555
Mo6A O19A 1_555 1_555
Mo6A O21A 1_555 1_555
Na2_2 O24A 1_555 1_555
P1A O12A 1_555 1_555
P1A O21A 1_555 1_555
P1A O31A 1_555 1_555
P2A O7A 1_555 1_555
P3A O15A 1_555 1_555
P4A O23A 1_555 1_555

#END
