
#######################################################################
#
#                 Cambridge Crystallographic Data Centre
#                                CCDC 
#
#######################################################################
#
# If this CIF has been generated from an entry in the Cambridge 
# Structural Database, then it will include bibliographic, chemical, 
# crystal, experimental, refinement or atomic coordinate data resulting 
# from the CCDC's data processing and validation procedures.
#
#######################################################################

data_ETUWOG
_chemical_formula_moiety         '(C49 H34 Co6 O28)n'
_symmetry_cell_setting           triclinic
_symmetry_space_group_name_H-M   'P -1'
_symmetry_Int_Tables_number      2
_space_group_name_Hall           '-P 1'
loop_
_symmetry_equiv_pos_site_id
_symmetry_equiv_pos_as_xyz
1 x,y,z
2 -x,-y,-z
_cell_length_a                   9.8456(11)
_cell_length_b                   12.0753(15)
_cell_length_c                   13.0039(16)
_cell_angle_alpha                91.842(2)
_cell_angle_beta                 100.9250(10)
_cell_angle_gamma                101.7450(10)
_cell_volume                     1482.19
loop_
_atom_site_label
_atom_site_type_symbol
_atom_site_fract_x
_atom_site_fract_y
_atom_site_fract_z
C1 C 0.7655(4) 0.4662(3) 0.7910(3)
C2 C 0.7907(5) 0.3680(4) 0.7456(4)
H1 H 0.7628 0.3508 0.6719
C3 C 0.8574(5) 0.2946(4) 0.8090(4)
H2 H 0.8717 0.2262 0.7790
C4 C 0.9021(5) 0.3234(3) 0.9161(3)
C5 C 0.8818(5) 0.4247(4) 0.9588(4)
H3 H 0.9157 0.4461 1.0315
C6 C 0.8129(5) 0.4934(4) 0.8958(3)
H4 H 0.7980 0.5615 0.9261
C7 C 0.6950(5) 0.5449(4) 0.7247(4)
C8 C 0.9731(5) 0.2503(3) 0.9811(4)
C9 C 0.7203(4) 0.8267(3) 0.4169(3)
C10 C 0.6962(5) 0.7946(4) 0.3063(4)
H5 H 0.6323 0.7266 0.2758
C11 C 0.7716(5) 0.8688(4) 0.2457(4)
H6 H 0.7599 0.8486 0.1728
C12 C 0.8616(5) 0.9694(3) 0.2872(3)
C13 C 0.8770(5) 1.0004(4) 0.3927(4)
H7 H 0.9324 1.0721 0.4222
C14 C 0.8078(5) 0.9223(4) 0.4566(3)
H8 H 0.8257 0.9401 0.5302
C15 C 0.6447(4) 0.7483(3) 0.4814(3)
C16 C 0.9373(4) 1.0442(4) 0.2203(3)
C17 C 0.2859(4) 0.6297(4) 0.5711(3)
C18 C 0.1060(5) 0.4418(4) 0.5392(4)
H9 H 0.1803 0.4042 0.5644
C19 C 0.1364(4) 0.5612(4) 0.5314(3)
C20 C 0.0241(4) 0.6157(4) 0.4882(3)
H10 H 0.0448 0.6948 0.4795
C21 C 1.3134(4) 0.1321(4) 1.0668(4)
C22 C 1.5397(5) 0.1132(4) 0.9919(3)
H11 H 1.5718 0.1927 0.9901
C23 C 1.4218(5) 0.0740(3) 1.0374(3)
C24 C 1.3909(5) -0.0434(4) 1.0493(4)
H12 H 1.3199 -0.0738 1.0871
Co1 Co 0.53756(6) 0.71571(5) 0.67841(4)
Co2 Co 0.5000 0.5000 0.5000
Co3 Co 1.15981(5) 0.21536(4) 1.17863(4)
Co4 Co 1.0000 1.0000 0.0000
O1 O 0.6831(3) 0.6278(3) 0.7537(2)
O2 O 0.6588(3) 0.5129(3) 0.6183(2)
O3 O 0.9700(3) 0.1490(2) 0.9415(2)
O4 O 1.0326(3) 0.2841(2) 1.0748(2)
O5 O 0.6481(3) 0.7837(3) 0.5886(3)
O6 O 0.5728(3) 0.6495(2) 0.4424(2)
O7 O 0.9028(3) 1.0201(2) 0.1217(2)
O8 O 1.0366(3) 1.1244(3) 0.2642(2)
O9 O 0.3832(3) 0.5818(2) 0.6010(2)
O10 O 0.3048(3) 0.7359(3) 0.5713(3)
O11 O 1.2079(3) 0.0796(2) 1.0968(2)
O12 O 1.3470(3) 0.2378(3) 1.0664(2)
O14 O 0.4003(3) 0.7587(3) 0.7928(3)
H17 H 0.3246 0.7899 0.7555
H18 H 0.4577 0.8130 0.8474
C1A C 0.2345(4) 0.5338(3) 0.2090(3)
C2A C 0.2093(5) 0.6320(4) 0.2544(4)
H1A H 0.2372 0.6492 0.3281
C3A C 0.1426(5) 0.7054(4) 0.1910(4)
H2A H 0.1283 0.7738 0.2210
C4A C 0.0979(5) 0.6766(3) 0.0839(3)
C5A C 0.1182(5) 0.5753(4) 0.0412(4)
H3A H 0.0843 0.5539 -0.0315
C6A C 0.1871(5) 0.5066(4) 0.1042(3)
H4A H 0.2020 0.4385 0.0739
C7A C 0.3050(5) 0.4551(4) 0.2753(4)
C8A C 0.0269(5) 0.7497(3) 0.0189(4)
C9A C 0.2797(4) 0.1733(3) 0.5831(3)
C10A C 0.3038(5) 0.2054(4) 0.6937(4)
H5A H 0.3677 0.2734 0.7242
C11A C 0.2284(5) 0.1312(4) 0.7543(4)
H6A H 0.2401 0.1514 0.8272
C12A C 0.1384(5) 0.0306(3) 0.7128(3)
C13A C 0.1230(5) -0.0004(4) 0.6073(4)
H7A H 0.0676 -0.0721 0.5778
C14A C 0.1922(5) 0.0777(4) 0.5434(3)
H8A H 0.1743 0.0599 0.4698
C15A C 0.3553(4) 0.2517(3) 0.5186(3)
C16A C 0.0627(4) -0.0442(4) 0.7797(3)
C17A C -0.2859(4) 0.3703(4) 0.4289(3)
C18A C -0.1060(5) 0.5582(4) 0.4608(4)
H9A H -0.1803 0.5958 0.4356
C19A C -0.1364(4) 0.4388(4) 0.4686(3)
C20A C -0.0241(4) 0.3843(4) 0.5118(3)
H10A H -0.0448 0.3052 0.5205
C21A C 1.6866(4) -0.1321(4) 0.9332(4)
C22A C 1.4603(5) -0.1132(4) 1.0081(3)
H11A H 1.4282 -0.1927 1.0099
C23A C 1.5782(5) -0.0740(3) 0.9626(3)
C24A C 1.6091(5) 0.0434(4) 0.9507(4)
H12A H 1.6801 0.0738 0.9129
Co1A Co 0.46244(6) 0.28429(5) 0.32159(4)
Co1A_2 Co -0.53756(6) 0.28429(5) 0.32159(4)
Co2_2 Co -0.5000 0.5000 0.5000
Co3A Co -0.15981(5) 0.78464(4) -0.17863(4)
Co3A_2 Co 0.84019(5) 0.78464(4) 0.82137(4)
Co3_2 Co 1.15981(5) 1.21536(4) 0.17863(4)
Co3A_3 Co 1.84019(5) -0.21536(4) 0.82137(4)
Co3_3 Co 0.15981(5) 0.21536(4) 0.17863(4)
Co3A_4 Co -0.15981(5) -0.21536(4) 0.82137(4)
Co4_2 Co 1.0000 0.0000 1.0000
Co4_3 Co 2.0000 0.0000 1.0000
Co4_4 Co -0.0000 1.0000 0.0000
Co4_5 Co 0.0000 0.0000 1.0000
O1A O 0.3169(3) 0.3722(3) 0.2463(2)
O1A_2 O 1.3169(3) 0.3722(3) 1.2463(2)
O1_2 O -0.3169(3) 0.6278(3) -0.2463(2)
O2A O 0.3412(3) 0.4871(3) 0.3817(2)
O3A O 0.0300(3) 0.8510(2) 0.0585(2)
O3_2 O 0.9700(3) 1.1490(2) -0.0585(2)
O3A_2 O 1.0300(3) 0.8510(2) 0.0585(2)
O4A O -0.0326(3) 0.7159(2) -0.0748(2)
O5A O 0.3519(3) 0.2163(3) 0.4114(3)
O6A O 0.4272(3) 0.3505(2) 0.5576(2)
O7A O 0.0972(3) -0.0201(2) 0.8783(2)
O7A_2 O 1.0972(3) 0.9799(2) -0.1217(2)
O8A O -0.0366(3) -0.1244(3) 0.7358(2)
O8_2 O 1.0366(3) 0.1244(3) 1.2642(2)
O8A_2 O -0.0366(3) 0.8756(3) -0.2642(2)
O9A O -0.3832(3) 0.4182(2) 0.3990(2)
O9A_2 O 0.6168(3) 0.4182(2) 0.3990(2)
O10A O -0.3048(3) 0.2641(3) 0.4287(3)
O11A O 1.7921(3) -0.0796(2) 0.9032(2)
O11_2 O 1.2079(3) 1.0796(2) 0.0968(2)
O11A_2 O 0.7921(3) 0.9204(2) -0.0968(2)
O11A_3 O -0.2079(3) 0.9204(2) -0.0968(2)
O12A O 1.6530(3) -0.2378(3) 0.9336(2)
O14A O 0.5997(3) 0.2413(3) 0.2072(3)
H17A H 0.6754 0.2101 0.2445
H18A H 0.5423 0.1870 0.1526
C25 C 0.2871(5) 0.4940(4) 0.8243(4)
H13 H 0.1955 0.4495 0.8330
H14 H 0.3313 0.4480 0.7826
H15 H 0.2728 0.5619 0.7881
O13 O 0.3793(3) 0.5276(3) 0.9276(2)
H16 H 0.4504 0.5936 0.9225
O15 O 0.6664(4) 0.9904(3) 0.6639(3)
H19 H 0.6605 0.9232 0.6394
H20 H 0.7051 0.9975 0.7287
loop_
_geom_bond_atom_site_label_1
_geom_bond_atom_site_label_2
_geom_bond_site_symmetry_1
_geom_bond_site_symmetry_2
C1 C2 1_555 1_555
C2 H1 1_555 1_555
C3 C2 1_555 1_555
H2 C3 1_555 1_555
C4 C3 1_555 1_555
C5 C4 1_555 1_555
H3 C5 1_555 1_555
C6 C1 1_555 1_555
H4 C6 1_555 1_555
C7 C1 1_555 1_555
C8 C4 1_555 1_555
C9 C10 1_555 1_555
C10 H5 1_555 1_555
C11 C10 1_555 1_555
H6 C11 1_555 1_555
C12 C11 1_555 1_555
C13 C12 1_555 1_555
H7 C13 1_555 1_555
C14 C9 1_555 1_555
H8 C14 1_555 1_555
C15 C9 1_555 1_555
C16 C12 1_555 1_555
C17 C19 1_555 1_555
C18 H9 1_555 1_555
C19 C18 1_555 1_555
C20 C19 1_555 1_555
H10 C20 1_555 1_555
C21 C23 1_555 1_555
C22 H11 1_555 1_555
C23 C22 1_555 1_555
C24 C23 1_555 1_555
H12 C24 1_555 1_555
C25 H13 1_555 1_555
H14 C25 1_555 1_555
H15 C25 1_555 1_555
Co1 O1 1_555 1_555
Co2 O2 1_555 1_555
Co3 O4 1_555 1_555
Co4 O7 1_555 1_555
O1 C7 1_555 1_555
O2 C7 1_555 1_555
O3 C8 1_555 1_555
O4 C8 1_555 1_555
O5 C15 1_555 1_555
O6 C15 1_555 1_555
O7 C16 1_555 1_555
O8 C16 1_555 1_555
O9 C17 1_555 1_555
O10 C17 1_555 1_555
O11 C21 1_555 1_555
O12 C21 1_555 1_555
O13 C25 1_555 1_555
H16 O13 1_555 1_555
O14 Co1 1_555 1_555
H17 O14 1_555 1_555
H18 O14 1_555 1_555
O15 H19 1_555 1_555
H20 O15 1_555 1_555
C1A C2A 1_555 1_555
C2A H1A 1_555 1_555
C3A C2A 1_555 1_555
H2A C3A 1_555 1_555
C4A C3A 1_555 1_555
C5A C4A 1_555 1_555
H3A C5A 1_555 1_555
C6A C1A 1_555 1_555
H4A C6A 1_555 1_555
C7A C1A 1_555 1_555
C8A C4A 1_555 1_555
C9A C10A 1_555 1_555
C10A H5A 1_555 1_555
C11A C10A 1_555 1_555
H6A C11A 1_555 1_555
C12A C11A 1_555 1_555
C13A C12A 1_555 1_555
H7A C13A 1_555 1_555
C14A C9A 1_555 1_555
H8A C14A 1_555 1_555
C15A C9A 1_555 1_555
C16A C12A 1_555 1_555
C17A C19A 1_555 1_555
C18A C20 1_555 1_555
H9A C18A 1_555 1_555
C19A C18A 1_555 1_555
C20A C18 1_555 1_555
H10A C20A 1_555 1_555
C21A C23A 1_555 1_555
C22A C24 1_555 1_555
H11A C22A 1_555 1_555
C23A C22A 1_555 1_555
C24A C22 1_555 1_555
H12A C24A 1_555 1_555
Co1A O1A 1_555 1_555
Co1A_2 O9A 1_555 1_555
Co2_2 O9A 1_555 1_555
Co3A O1_2 1_555 1_555
Co3A_2 O1 1_555 1_555
Co3_2 O8 1_555 1_555
Co3A_3 O11A 1_555 1_555
Co3_3 O1A 1_555 1_555
Co3A_4 O8A 1_555 1_555
Co4_2 O3 1_555 1_555
Co4_3 O11A 1_555 1_555
Co4_4 O3A 1_555 1_555
Co4_5 O7A 1_555 1_555
O1A C7A 1_555 1_555
O1A_2 Co3 1_555 1_555
O2A Co2 1_555 1_555
O3A C8A 1_555 1_555
O3_2 Co4 1_555 1_555
O3A_2 Co4 1_555 1_555
O4A C8A 1_555 1_555
O5A C15A 1_555 1_555
O6A Co2 1_555 1_555
O7A C16A 1_555 1_555
O7A_2 Co4 1_555 1_555
O8A C16A 1_555 1_555
O8_2 Co3 1_555 1_555
O8A_2 Co3A 1_555 1_555
O9A C17A 1_555 1_555
O9A_2 Co2 1_555 1_555
O10A C17A 1_555 1_555
O11A C21A 1_555 1_555
O11_2 Co4 1_555 1_555
O11A_2 Co4 1_555 1_555
O11A_3 Co3A 1_555 1_555
O12A C21A 1_555 1_555
O14A Co1A 1_555 1_555
H17A O14A 1_555 1_555
H18A O14A 1_555 1_555
C5 C6 1_555 1_555
C13 C14 1_555 1_555
Co1 O5 1_555 1_555
Co1 O9 1_555 1_555
Co2 O6 1_555 1_555
Co2 O9 1_555 1_555
Co3 O11 1_555 1_555
O11 Co4_2 1_555 1_555
C5A C6A 1_555 1_555
C7A O2A 1_555 1_555
C13A C14A 1_555 1_555
C15A O6A 1_555 1_555
C19A C20A 1_555 1_555
C23A C24A 1_555 1_555
Co1A O5A 1_555 1_555
Co1A O9A_2 1_555 1_555
Co3A O4A 1_555 1_555
Co3_2 O11_2 1_555 1_555
Co4_4 O11A_3 1_555 1_555

#END
