
#######################################################################
#
#                 Cambridge Crystallographic Data Centre
#                                CCDC 
#
#######################################################################
#
# If this CIF has been generated from an entry in the Cambridge 
# Structural Database, then it will include bibliographic, chemical, 
# crystal, experimental, refinement or atomic coordinate data resulting 
# from the CCDC's data processing and validation procedures.
#
#######################################################################

data_CUMJEB
_chemical_formula_moiety         '(C4 H7 Cd1 N9 O1)n'
_symmetry_cell_setting           rhombohedral
_symmetry_space_group_name_H-M   'R -3'
_symmetry_Int_Tables_number      148
_space_group_name_Hall           '-R 3'
loop_
_symmetry_equiv_pos_site_id
_symmetry_equiv_pos_as_xyz
1 x,y,z
2 -y,x-y,z
3 -x+y,-x,z
4 2/3+x,1/3+y,1/3+z
5 2/3-y,1/3+x-y,1/3+z
6 2/3-x+y,1/3-x,1/3+z
7 1/3+x,2/3+y,2/3+z
8 1/3-y,2/3+x-y,2/3+z
9 1/3-x+y,2/3-x,2/3+z
10 -x,-y,-z
11 y,-x+y,-z
12 x-y,x,-z
13 1/3-x,2/3-y,2/3-z
14 1/3+y,2/3-x+y,2/3-z
15 1/3+x-y,2/3+x,2/3-z
16 2/3-x,1/3-y,1/3-z
17 2/3+y,1/3-x+y,1/3-z
18 2/3+x-y,1/3+x,1/3-z
_cell_length_a                   20.8197(13)
_cell_length_b                   20.8197(13)
_cell_length_c                   11.5581(15)
_cell_angle_alpha                90
_cell_angle_beta                 90
_cell_angle_gamma                120
_cell_volume                     4338.76
loop_
_atom_site_label
_atom_site_type_symbol
_atom_site_fract_x
_atom_site_fract_y
_atom_site_fract_z
_atom_site_U_iso_or_equiv
_atom_site_thermal_displace_type
C1 C 0.1889(2) 0.9646(2) 0.1081(3) 0.0317 Uani
H1 H 0.2258 1.0101 0.1450 0.0380 Uiso
H2 H 0.1415 0.9627 0.1130 0.0380 Uiso
C2 C 0.2537(2) 0.9168(2) 0.2279(3) 0.0323 Uani
H3 H 0.2423 0.8918 0.3021 0.0390 Uiso
H4 H 0.2834 0.9697 0.2422 0.0390 Uiso
C3 C 0.2091(2) 0.96605(19) -0.0170(3) 0.0224 Uani
C4 C 0.29769(18) 0.89246(19) 0.1573(3) 0.0223 Uani
Cd1 Cd 0.462625(12) 0.983782(13) 0.30224(2) 0.0186 Uani
N1 N 0.18426(15) 0.90099(16) 0.1706(2) 0.0213 Uani
H5 H 0.1484 0.8867 0.2257 0.0260 Uiso
N2 N 0.25481(17) 1.02608(16) -0.0758(3) 0.0239 Uani
N3 N 0.25285(18) 1.00393(16) -0.1857(3) 0.0272 Uani
N4 N 0.20840(16) 0.93254(15) -0.1898(2) 0.0226 Uani
N5 N 0.17908(17) 0.90622(16) -0.0840(3) 0.0239 Uani
N6 N 0.26981(16) 0.84697(17) 0.0670(3) 0.0240 Uani
N7 N 0.32421(18) 0.83470(18) 0.0299(3) 0.0307 Uani
N8 N 0.38271(18) 0.87177(19) 0.0949(3) 0.0310 Uani
N9 N 0.36736(16) 0.90907(17) 0.1769(3) 0.0258 Uani
Cd1E Cd 0.187824(18) 0.870708(12) -0.36443(2) 0.0186 Uani
Cd1G Cd 0.349551(13) 1.145510(18) -0.03109(2) 0.0186 Uani
Cd1Q Cd 0.145510(18) 0.795958(12) 0.03109(2) 0.0186 Uani
N1P N 0.56766(16) 1.05006(22) 0.1627(2) 0.0213 Uani
N2E N 0.43794(23) 1.07852(17) 0.2575(3) 0.0239 Uani
N4G N 0.40079(15) 0.94253(22) 0.4769(2) 0.0226 Uani
N5P N 0.57289(16) 1.06047(23) 0.4173(3) 0.0239 Uani
N6P N 0.51364(17) 0.91049(23) 0.2663(3) 0.0240 Uani
O1 O 0.4199(12) 0.6603(13) 0.4001(16) 0.4134 Uani
loop_
_atom_site_aniso_label
_atom_site_aniso_U_11
_atom_site_aniso_U_22
_atom_site_aniso_U_33
_atom_site_aniso_U_23
_atom_site_aniso_U_13
_atom_site_aniso_U_12
C1 0.050(2) 0.0289(19) 0.0195(19) 0.0005(15) 0.0065(16) 0.0222(18)
C2 0.0252(18) 0.044(2) 0.026(2) -0.0120(16) -0.0070(15) 0.0160(17)
C3 0.0311(18) 0.0208(16) 0.0170(17) -0.0006(13) -0.0001(14) 0.0143(15)
C4 0.0211(17) 0.0234(17) 0.0169(17) -0.0004(13) -0.0021(13) 0.0071(14)
Cd1 0.01714(17) 0.02614(18) 0.01567(19) -0.00110(9) -0.00047(8) 0.01311(11)
N1 0.0193(14) 0.0244(14) 0.0154(14) 0.0018(11) 0.0014(11) 0.0073(12)
N2 0.0304(16) 0.0194(14) 0.0173(15) -0.0022(11) -0.0013(12) 0.0089(13)
N3 0.0339(16) 0.0223(15) 0.0179(16) -0.0010(12) 0.0020(12) 0.0084(13)
N4 0.0264(15) 0.0192(14) 0.0154(14) 0.0010(11) 0.0015(11) 0.0062(12)
N5 0.0300(15) 0.0193(14) 0.0175(15) 0.0000(11) 0.0017(12) 0.0086(12)
N6 0.0218(14) 0.0254(15) 0.0216(16) -0.0011(12) -0.0016(12) 0.0094(12)
N7 0.0316(17) 0.0359(17) 0.0239(16) -0.0058(13) -0.0027(13) 0.0164(14)
N8 0.0269(16) 0.0388(18) 0.0300(18) -0.0064(14) -0.0053(13) 0.0185(14)
N9 0.0239(15) 0.0284(16) 0.0229(16) -0.0055(12) -0.0051(12) 0.0115(13)
Cd1E 0.01706 0.01714 0.01567 0.00047 -0.00063 0.00403
Cd1G 0.02614 0.01706 0.01567 0.00063 0.0011 0.01303
Cd1Q 0.01706 0.01714 0.01567 0.00047 -0.00063 0.00403
N1P 0.0244 0.0291 0.0154 -0.0004 -0.0018 0.0171
N2E 0.032 0.0304 0.0173 0.0013 -0.0009 0.0215
N4G 0.0192 0.0332 0.0154 0.0005 -0.001 0.013
N5P 0.0193 0.0321 0.0175 0.0017 0 0.0107
N6P 0.0254 0.0284 0.0216 -0.0005 0.0011 0.016
O1 0.413(13) 0.408(13) 0.431(13) -0.003(7) -0.005(7) 0.214(8)
loop_
_geom_bond_atom_site_label_1
_geom_bond_atom_site_label_2
_geom_bond_site_symmetry_1
_geom_bond_site_symmetry_2
C1 H1 1_555 1_555
H2 C1 1_555 1_555
C2 H3 1_555 1_555
H4 C2 1_555 1_555
C3 C1 1_555 1_555
C4 C2 1_555 1_555
Cd1 N9 1_555 1_555
N1 C1 1_555 1_555
H5 N1 1_555 1_555
N2 C3 1_555 1_555
N3 N2 1_555 1_555
N4 N3 1_555 1_555
N5 C3 1_555 1_555
N6 C4 1_555 1_555
N7 N6 1_555 1_555
N8 N7 1_555 1_555
N9 C4 1_555 1_555
Cd1E N4 1_555 1_555
Cd1G N2 1_555 1_555
Cd1Q N1 1_555 1_555
N1P Cd1 1_555 1_555
N2E Cd1 1_555 1_555
N4G Cd1 1_555 1_555
N5P Cd1 1_555 1_555
N6P Cd1 1_555 1_555
C2 N1 1_555 1_555
N4 N5 1_555 1_555
N5 Cd1Q 1_555 1_555
N6 Cd1Q 1_555 1_555
N8 N9 1_555 1_555

#END
