
#######################################################################
#
#                 Cambridge Crystallographic Data Centre
#                                CCDC 
#
#######################################################################
#
# If this CIF has been generated from an entry in the Cambridge 
# Structural Database, then it will include bibliographic, chemical, 
# crystal, experimental, refinement or atomic coordinate data resulting 
# from the CCDC's data processing and validation procedures.
#
#######################################################################

data_YAPLOS
_chemical_formula_moiety         '(C8 H6 Mn1 N6)n'
_symmetry_cell_setting           cubic
_symmetry_space_group_name_H-M   'I a -3 d'
_symmetry_Int_Tables_number      230
_space_group_name_Hall           '-I 4bd 2c 3'
loop_
_symmetry_equiv_pos_site_id
_symmetry_equiv_pos_as_xyz
1 x,y,z
2 1/4-y,3/4+x,1/4+z
3 -x,1/2-y,z
4 1/4+y,1/4-x,3/4+z
5 1/4+x,1/4-z,3/4+y
6 x,-y,1/2-z
7 3/4+x,1/4+z,1/4-y
8 3/4+z,1/4+y,1/4-x
9 1/2-x,y,-z
10 1/4-z,3/4+y,1/4+x
11 z,x,y
12 y,z,x
13 -y,1/2-z,x
14 z,-x,1/2-y
15 1/2-y,z,-x
16 -z,1/2-x,y
17 1/2-z,x,-y
18 y,-z,1/2-x
19 3/4+y,1/4+x,1/4-z
20 1/4-y,1/4-x,1/4-z
21 1/4-x,3/4+z,1/4+y
22 1/4-x,1/4-z,1/4-y
23 1/4+z,1/4-y,3/4+x
24 1/4-z,1/4-y,1/4-x
25 1/2+x,1/2+y,1/2+z
26 3/4-y,1/4+x,3/4+z
27 1/2-x,-y,1/2+z
28 3/4+y,3/4-x,1/4+z
29 3/4+x,3/4-z,1/4+y
30 1/2+x,1/2-y,-z
31 1/4+x,3/4+z,3/4-y
32 1/4+z,3/4+y,3/4-x
33 -x,1/2+y,1/2-z
34 3/4-z,1/4+y,3/4+x
35 1/2+z,1/2+x,1/2+y
36 1/2+y,1/2+z,1/2+x
37 1/2-y,-z,1/2+x
38 1/2+z,1/2-x,-y
39 -y,1/2+z,1/2-x
40 1/2-z,-x,1/2+y
41 -z,1/2+x,1/2-y
42 1/2+y,1/2-z,-x
43 1/4+y,3/4+x,3/4-z
44 3/4-y,3/4-x,3/4-z
45 3/4-x,1/4+z,3/4+y
46 3/4-x,3/4-z,3/4-y
47 3/4+z,3/4-y,1/4+x
48 3/4-z,3/4-y,3/4-x
49 -x,-y,-z
50 3/4+y,1/4-x,3/4-z
51 x,1/2+y,-z
52 3/4-y,3/4+x,1/4-z
53 3/4-x,3/4+z,1/4-y
54 -x,y,1/2+z
55 1/4-x,3/4-z,3/4+y
56 1/4-z,3/4-y,3/4+x
57 1/2+x,-y,z
58 3/4+z,1/4-y,3/4-x
59 -z,-x,-y
60 -y,-z,-x
61 y,1/2+z,-x
62 -z,x,1/2+y
63 1/2+y,-z,x
64 z,1/2+x,-y
65 1/2+z,-x,y
66 -y,z,1/2+x
67 1/4-y,3/4-x,3/4+z
68 3/4+y,3/4+x,3/4+z
69 3/4+x,1/4-z,3/4-y
70 3/4+x,3/4+z,3/4+y
71 3/4-z,3/4+y,1/4-x
72 3/4+z,3/4+y,3/4+x
73 1/2-x,1/2-y,1/2-z
74 1/4+y,3/4-x,1/4-z
75 1/2+x,y,1/2-z
76 1/4-y,1/4+x,3/4-z
77 1/4-x,1/4+z,3/4-y
78 1/2-x,1/2+y,z
79 3/4-x,1/4-z,1/4+y
80 3/4-z,1/4-y,1/4+x
81 x,1/2-y,1/2+z
82 1/4+z,3/4-y,1/4-x
83 1/2-z,1/2-x,1/2-y
84 1/2-y,1/2-z,1/2-x
85 1/2+y,z,1/2-x
86 1/2-z,1/2+x,y
87 y,1/2-z,1/2+x
88 1/2+z,x,1/2-y
89 z,1/2-x,1/2+y
90 1/2-y,1/2+z,x
91 3/4-y,1/4-x,1/4+z
92 1/4+y,1/4+x,1/4+z
93 1/4+x,3/4-z,1/4-y
94 1/4+x,1/4+z,1/4+y
95 1/4-z,1/4+y,3/4-x
96 1/4+z,1/4+y,1/4+x
_cell_length_a                   35.7950(4)
_cell_length_b                   35.7950(4)
_cell_length_c                   35.7950(4)
_cell_angle_alpha                90
_cell_angle_beta                 90
_cell_angle_gamma                90
_cell_volume                     45863.5
loop_
_atom_site_label
_atom_site_type_symbol
_atom_site_fract_x
_atom_site_fract_y
_atom_site_fract_z
_atom_site_U_iso_or_equiv
_atom_site_thermal_displace_type
C1 C 0.42397(15) 0.87565(13) 0.97236(14) 0.0977 Uani
H1 H 0.4068 0.8652 0.9559 0.1170 Uiso
C2 C 0.44566(14) 0.90586(14) 1.01844(13) 0.1050 Uani
H2 H 0.4479 0.9200 1.0401 0.1260 Uiso
C3 C 0.47526(15) 0.89256(16) 0.99718(16) 0.1070 Uani
C4 C 0.57394(16) 0.83787(17) 0.91416(17) 0.1257 Uani
C5 C 0.60040(14) 0.81792(17) 0.89472(18) 0.1420 Uani
H3 H 0.6258 0.8174 0.9002 0.1700 Uiso
C6 C 0.54776(13) 0.80764(11) 0.86983(13) 0.0850 Uani
H4 H 0.5296 0.7987 0.8536 0.1020 Uiso
Mn1 Mn 0.491855(17) 0.858917(19) 0.91968(2) 0.0840 Uani
N1 N 0.46057(11) 0.87252(10) 0.96748(11) 0.0927 Uani
N2 N 0.41340(10) 0.89507(10) 1.00285(11) 0.0947 Uani
C7 C 0.5131(2) 0.9018(3) 1.0068(4) 0.1363 Uani
H5 H 0.5148 0.9180 1.0270 0.1640 Uiso
C8 C 0.5746(3) 0.8599(6) 0.9475(5) 0.1750 Uani
H6 H 0.5967 0.8653 0.9600 0.2100 Uiso
N3 N 0.5453(2) 0.8926(2) 0.9935(2) 0.1610 Uani
N4 N 0.5406(2) 0.8728(3) 0.9602(3) 0.1123 Uani
N5 N 0.53958(10) 0.83001(10) 0.89845(11) 0.0953 Uani
N6 N 0.58366(11) 0.79904(10) 0.86612(12) 0.1017 Uani
Mn1FC Mn 0.358917(19) 0.91968(2) 1.008145(17) 0.0840 Uani
Mn1WA Mn 0.608917(19) 0.758145(17) 0.83032(2) 0.0840 Uani
N2GC N 0.49715(11) 0.91340(10) 0.89507(10) 0.0947 Uani
N6WB N 0.45096(10) 0.83366(11) 0.88388(12) 0.1017 Uani
loop_
_atom_site_aniso_label
_atom_site_aniso_U_11
_atom_site_aniso_U_22
_atom_site_aniso_U_33
_atom_site_aniso_U_23
_atom_site_aniso_U_13
_atom_site_aniso_U_12
C1 0.103(4) 0.095(3) 0.095(4) -0.012(3) 0.011(3) -0.029(3)
C2 0.085(4) 0.138(4) 0.092(3) -0.026(3) -0.002(3) -0.004(3)
C3 0.081(4) 0.128(4) 0.112(4) -0.009(4) 0.001(3) -0.003(3)
C4 0.099(4) 0.151(5) 0.127(5) -0.053(4) -0.004(4) 0.022(4)
C5 0.080(4) 0.173(6) 0.173(6) -0.071(5) -0.008(4) 0.017(4)
C6 0.093(4) 0.060(3) 0.102(3) -0.018(3) 0.005(3) -0.002(2)
Mn1 0.0653(4) 0.0876(5) 0.0992(5) -0.0218(4) 0.0037(4) -0.0091(4)
N1 0.073(3) 0.098(3) 0.107(3) -0.015(2) 0.017(2) -0.015(2)
N2 0.080(3) 0.116(3) 0.088(3) -0.023(2) 0.010(2) -0.008(2)
C7 0.101(5) 0.122(10) 0.186(9) -0.068(6) 0.009(5) 0.020(5)
C8 0.106(7) 0.227(10) 0.192(12) -0.126(11) -0.023(9) 0.034(11)
N3 0.097(4) 0.229(8) 0.157(6) -0.110(6) -0.010(4) -0.006(5)
N4 0.092(4) 0.124(5) 0.121(5) -0.045(4) -0.010(4) -0.019(5)
N5 0.081(3) 0.093(3) 0.112(3) -0.017(2) 0.002(2) 0.004(2)
N6 0.078(3) 0.101(3) 0.126(3) -0.024(3) 0.012(3) 0.021(2)
Mn1FC 0.0876 0.0992 0.0653 -0.0037 0.0091 -0.0218
Mn1WA 0.0876 0.0653 0.0992 0.0037 0.0218 0.0091
N2GC 0.088 0.08 0.116 -0.008 0.023 -0.01
N6WB 0.101 0.078 0.126 -0.012 -0.024 -0.021
loop_
_geom_bond_atom_site_label_1
_geom_bond_atom_site_label_2
_geom_bond_site_symmetry_1
_geom_bond_site_symmetry_2
C1 H1 1_555 1_555
C2 H2 1_555 1_555
C3 C2 1_555 1_555
C4 C5 1_555 1_555
C5 H3 1_555 1_555
C6 H4 1_555 1_555
Mn1 N1 1_555 1_555
N1 C1 1_555 1_555
N2 C1 1_555 1_555
C7 C3 1_555 1_555
H5 C7 1_555 1_555
C8 C4 1_555 1_555
H6 C8 1_555 1_555
N3 C7 1_555 1_555
N4 Mn1 1_555 1_555
N5 C4 1_555 1_555
N6 C5 1_555 1_555
Mn1FC N2 1_555 1_555
Mn1WA N6 1_555 1_555
N2GC Mn1 1_555 1_555
N6WB Mn1 1_555 1_555
C2 N2 1_555 1_555
C3 N1 1_555 1_555
C6 N5 1_555 1_555
C6 N6 1_555 1_555
Mn1 N5 1_555 1_555
C8 N4 1_555 1_555
N3 N4 1_555 1_555

#END
