
#######################################################################
#
#                 Cambridge Crystallographic Data Centre
#                                CCDC 
#
#######################################################################
#
# If this CIF has been generated from an entry in the Cambridge 
# Structural Database, then it will include bibliographic, chemical, 
# crystal, experimental, refinement or atomic coordinate data resulting 
# from the CCDC's data processing and validation procedures.
#
#######################################################################

data_YAPLIM
_chemical_formula_moiety         '(C8 H6 N6 Zn1)n'
_symmetry_cell_setting           cubic
_symmetry_space_group_name_H-M   'I a -3 d'
_symmetry_Int_Tables_number      230
_space_group_name_Hall           '-I 4bd 2c 3'
loop_
_symmetry_equiv_pos_site_id
_symmetry_equiv_pos_as_xyz
1 x,y,z
2 1/4-y,3/4+x,1/4+z
3 -x,1/2-y,z
4 1/4+y,1/4-x,3/4+z
5 1/4+x,1/4-z,3/4+y
6 x,-y,1/2-z
7 3/4+x,1/4+z,1/4-y
8 3/4+z,1/4+y,1/4-x
9 1/2-x,y,-z
10 1/4-z,3/4+y,1/4+x
11 z,x,y
12 y,z,x
13 -y,1/2-z,x
14 z,-x,1/2-y
15 1/2-y,z,-x
16 -z,1/2-x,y
17 1/2-z,x,-y
18 y,-z,1/2-x
19 3/4+y,1/4+x,1/4-z
20 1/4-y,1/4-x,1/4-z
21 1/4-x,3/4+z,1/4+y
22 1/4-x,1/4-z,1/4-y
23 1/4+z,1/4-y,3/4+x
24 1/4-z,1/4-y,1/4-x
25 1/2+x,1/2+y,1/2+z
26 3/4-y,1/4+x,3/4+z
27 1/2-x,-y,1/2+z
28 3/4+y,3/4-x,1/4+z
29 3/4+x,3/4-z,1/4+y
30 1/2+x,1/2-y,-z
31 1/4+x,3/4+z,3/4-y
32 1/4+z,3/4+y,3/4-x
33 -x,1/2+y,1/2-z
34 3/4-z,1/4+y,3/4+x
35 1/2+z,1/2+x,1/2+y
36 1/2+y,1/2+z,1/2+x
37 1/2-y,-z,1/2+x
38 1/2+z,1/2-x,-y
39 -y,1/2+z,1/2-x
40 1/2-z,-x,1/2+y
41 -z,1/2+x,1/2-y
42 1/2+y,1/2-z,-x
43 1/4+y,3/4+x,3/4-z
44 3/4-y,3/4-x,3/4-z
45 3/4-x,1/4+z,3/4+y
46 3/4-x,3/4-z,3/4-y
47 3/4+z,3/4-y,1/4+x
48 3/4-z,3/4-y,3/4-x
49 -x,-y,-z
50 3/4+y,1/4-x,3/4-z
51 x,1/2+y,-z
52 3/4-y,3/4+x,1/4-z
53 3/4-x,3/4+z,1/4-y
54 -x,y,1/2+z
55 1/4-x,3/4-z,3/4+y
56 1/4-z,3/4-y,3/4+x
57 1/2+x,-y,z
58 3/4+z,1/4-y,3/4-x
59 -z,-x,-y
60 -y,-z,-x
61 y,1/2+z,-x
62 -z,x,1/2+y
63 1/2+y,-z,x
64 z,1/2+x,-y
65 1/2+z,-x,y
66 -y,z,1/2+x
67 1/4-y,3/4-x,3/4+z
68 3/4+y,3/4+x,3/4+z
69 3/4+x,1/4-z,3/4-y
70 3/4+x,3/4+z,3/4+y
71 3/4-z,3/4+y,1/4-x
72 3/4+z,3/4+y,3/4+x
73 1/2-x,1/2-y,1/2-z
74 1/4+y,3/4-x,1/4-z
75 1/2+x,y,1/2-z
76 1/4-y,1/4+x,3/4-z
77 1/4-x,1/4+z,3/4-y
78 1/2-x,1/2+y,z
79 3/4-x,1/4-z,1/4+y
80 3/4-z,1/4-y,1/4+x
81 x,1/2-y,1/2+z
82 1/4+z,3/4-y,1/4-x
83 1/2-z,1/2-x,1/2-y
84 1/2-y,1/2-z,1/2-x
85 1/2+y,z,1/2-x
86 1/2-z,1/2+x,y
87 y,1/2-z,1/2+x
88 1/2+z,x,1/2-y
89 z,1/2-x,1/2+y
90 1/2-y,1/2+z,x
91 3/4-y,1/4-x,1/4+z
92 1/4+y,1/4+x,1/4+z
93 1/4+x,3/4-z,1/4-y
94 1/4+x,1/4+z,1/4+y
95 1/4-z,1/4+y,3/4-x
96 1/4+z,1/4+y,1/4+x
_cell_length_a                   34.6471(2)
_cell_length_b                   34.6471(2)
_cell_length_c                   34.6471(2)
_cell_angle_alpha                90
_cell_angle_beta                 90
_cell_angle_gamma                90
_cell_volume                     41591.1
loop_
_atom_site_label
_atom_site_type_symbol
_atom_site_fract_x
_atom_site_fract_y
_atom_site_fract_z
Zn1 Zn 0.389110(15) -0.248920(15) 0.332850(17)
N1 N 0.45826(11) -0.33723(11) 0.38044(10)
N2 N 0.35564(11) -0.16410(10) 0.25485(11)
N3 N 0.37889(11) -0.21525(11) 0.28676(10)
C1 C 0.36024(15) -0.22777(13) 0.25366(16)
C2 C 0.37478(13) -0.17726(13) 0.28555(12)
H1 H 0.3845 -0.1610 0.3046
C3 C 0.34667(14) -0.19634(14) 0.23496(14)
H2 H 0.3331 -0.1969 0.2118
N4 N 0.42124(11) -0.29480(10) 0.34851(10)
C4 C 0.44559(14) -0.30107(13) 0.37737(12)
H3 H 0.4533 -0.2816 0.3942
C5 C 0.44018(16) -0.35534(14) 0.35143(15)
H4 H 0.4431 -0.3814 0.3456
C6 C 0.41689(15) -0.33050(15) 0.33149(15)
N5 N 0.3789(4) -0.2967(3) 0.2861(5)
N6 N 0.3584(2) -0.3010(2) 0.2520(2)
C7 C 0.3515(3) -0.2660(2) 0.2388(4)
H5 H 0.3385 -0.2658 0.2153
C8 C 0.3978(3) -0.3266(4) 0.2945(4)
H6 H 0.3996 -0.3465 0.2766
Zn1KB Zn 0.332850(17) -0.110890(15) 0.248920(15)
Zn1WB Zn 0.498920(15) -0.360890(15) 0.417150(17)
N1WA N 0.41277(11) -0.20826(11) 0.36956(10)
N2JB N 0.33590(10) -0.25485(11) 0.35564(11)
loop_
_geom_bond_atom_site_label_1
_geom_bond_atom_site_label_2
_geom_bond_site_symmetry_1
_geom_bond_site_symmetry_2
Zn1 N3 1_555 1_555
N1 C4 1_555 1_555
N2 C2 1_555 1_555
N3 C1 1_555 1_555
C1 C3 1_555 1_555
C2 N3 1_555 1_555
H1 C2 1_555 1_555
C3 N2 1_555 1_555
H2 C3 1_555 1_555
N4 Zn1 1_555 1_555
C4 N4 1_555 1_555
H3 C4 1_555 1_555
C5 N1 1_555 1_555
H4 C5 1_555 1_555
C6 N4 1_555 1_555
N5 Zn1 1_555 1_555
N6 N5 1_555 1_555
C7 C1 1_555 1_555
H5 C7 1_555 1_555
C8 C6 1_555 1_555
H6 C8 1_555 1_555
Zn1KB N2 1_555 1_555
Zn1WB N1 1_555 1_555
N1WA Zn1 1_555 1_555
N2JB Zn1 1_555 1_555
C5 C6 1_555 1_555
N5 C8 1_555 1_555
N6 C7 1_555 1_555

#END
