
#######################################################################
#
#                 Cambridge Crystallographic Data Centre
#                                CCDC 
#
#######################################################################
#
# If this CIF has been generated from an entry in the Cambridge 
# Structural Database, then it will include bibliographic, chemical, 
# crystal, experimental, refinement or atomic coordinate data resulting 
# from the CCDC's data processing and validation procedures.
#
#######################################################################

data_YAPMAF
_chemical_formula_moiety         '(C8 H8 N6 Ni1 O1)n'
_symmetry_cell_setting           cubic
_symmetry_space_group_name_H-M   'I a -3 d'
_symmetry_Int_Tables_number      230
_space_group_name_Hall           '-I 4bd 2c 3'
loop_
_symmetry_equiv_pos_site_id
_symmetry_equiv_pos_as_xyz
1 x,y,z
2 1/4-y,3/4+x,1/4+z
3 -x,1/2-y,z
4 1/4+y,1/4-x,3/4+z
5 1/4+x,1/4-z,3/4+y
6 x,-y,1/2-z
7 3/4+x,1/4+z,1/4-y
8 3/4+z,1/4+y,1/4-x
9 1/2-x,y,-z
10 1/4-z,3/4+y,1/4+x
11 z,x,y
12 y,z,x
13 -y,1/2-z,x
14 z,-x,1/2-y
15 1/2-y,z,-x
16 -z,1/2-x,y
17 1/2-z,x,-y
18 y,-z,1/2-x
19 3/4+y,1/4+x,1/4-z
20 1/4-y,1/4-x,1/4-z
21 1/4-x,3/4+z,1/4+y
22 1/4-x,1/4-z,1/4-y
23 1/4+z,1/4-y,3/4+x
24 1/4-z,1/4-y,1/4-x
25 1/2+x,1/2+y,1/2+z
26 3/4-y,1/4+x,3/4+z
27 1/2-x,-y,1/2+z
28 3/4+y,3/4-x,1/4+z
29 3/4+x,3/4-z,1/4+y
30 1/2+x,1/2-y,-z
31 1/4+x,3/4+z,3/4-y
32 1/4+z,3/4+y,3/4-x
33 -x,1/2+y,1/2-z
34 3/4-z,1/4+y,3/4+x
35 1/2+z,1/2+x,1/2+y
36 1/2+y,1/2+z,1/2+x
37 1/2-y,-z,1/2+x
38 1/2+z,1/2-x,-y
39 -y,1/2+z,1/2-x
40 1/2-z,-x,1/2+y
41 -z,1/2+x,1/2-y
42 1/2+y,1/2-z,-x
43 1/4+y,3/4+x,3/4-z
44 3/4-y,3/4-x,3/4-z
45 3/4-x,1/4+z,3/4+y
46 3/4-x,3/4-z,3/4-y
47 3/4+z,3/4-y,1/4+x
48 3/4-z,3/4-y,3/4-x
49 -x,-y,-z
50 3/4+y,1/4-x,3/4-z
51 x,1/2+y,-z
52 3/4-y,3/4+x,1/4-z
53 3/4-x,3/4+z,1/4-y
54 -x,y,1/2+z
55 1/4-x,3/4-z,3/4+y
56 1/4-z,3/4-y,3/4+x
57 1/2+x,-y,z
58 3/4+z,1/4-y,3/4-x
59 -z,-x,-y
60 -y,-z,-x
61 y,1/2+z,-x
62 -z,x,1/2+y
63 1/2+y,-z,x
64 z,1/2+x,-y
65 1/2+z,-x,y
66 -y,z,1/2+x
67 1/4-y,3/4-x,3/4+z
68 3/4+y,3/4+x,3/4+z
69 3/4+x,1/4-z,3/4-y
70 3/4+x,3/4+z,3/4+y
71 3/4-z,3/4+y,1/4-x
72 3/4+z,3/4+y,3/4+x
73 1/2-x,1/2-y,1/2-z
74 1/4+y,3/4-x,1/4-z
75 1/2+x,y,1/2-z
76 1/4-y,1/4+x,3/4-z
77 1/4-x,1/4+z,3/4-y
78 1/2-x,1/2+y,z
79 3/4-x,1/4-z,1/4+y
80 3/4-z,1/4-y,1/4+x
81 x,1/2-y,1/2+z
82 1/4+z,3/4-y,1/4-x
83 1/2-z,1/2-x,1/2-y
84 1/2-y,1/2-z,1/2-x
85 1/2+y,z,1/2-x
86 1/2-z,1/2+x,y
87 y,1/2-z,1/2+x
88 1/2+z,x,1/2-y
89 z,1/2-x,1/2+y
90 1/2-y,1/2+z,x
91 3/4-y,1/4-x,1/4+z
92 1/4+y,1/4+x,1/4+z
93 1/4+x,3/4-z,1/4-y
94 1/4+x,1/4+z,1/4+y
95 1/4-z,1/4+y,3/4-x
96 1/4+z,1/4+y,1/4+x
_cell_length_a                   33.8514(19)
_cell_length_b                   33.8514(19)
_cell_length_c                   33.8514(19)
_cell_angle_alpha                90
_cell_angle_beta                 90
_cell_angle_gamma                90
_cell_volume                     38790.9
loop_
_atom_site_label
_atom_site_type_symbol
_atom_site_fract_x
_atom_site_fract_y
_atom_site_fract_z
Ni1 Ni 0.14884(4) 0.43077(4) 0.00796(4)
N1 N 0.1729(2) 0.4018(2) -0.0379(2)
N2 N 0.2015(2) 0.3584(2) -0.0818(2)
N3 N 0.0951(2) 0.50332(19) 0.09480(18)
N4 N 0.1277(2) 0.4715(2) 0.0448(2)
C1 C 0.1937(3) 0.3687(3) -0.0436(2)
H1 H 0.2026 0.3531 -0.0220
C2 C 0.1206(3) 0.4727(3) 0.0832(3)
H2 H 0.1318 0.4545 0.1014
C3 C 0.1656(3) 0.4164(3) -0.0764(3)
C4 C 0.0871(3) 0.5221(3) 0.0591(3)
H3 H 0.0701 0.5443 0.0561
C5 C 0.1841(3) 0.3886(3) -0.1021(3)
H4 H 0.1843 0.3908 -0.1301
C6 C 0.1075(3) 0.5038(3) 0.0280(3)
N5 N 0.1396(8) 0.4661(9) -0.0411(8)
C7 C 0.1067(9) 0.5186(9) -0.0106(8)
H5 H 0.0983 0.5453 -0.0129
C8 C 0.1430(7) 0.451(2) -0.079(3)
H6 H 0.1323 0.4626 -0.1019
N6 N 0.1160(5) 0.5005(7) -0.0456(6)
Ni1CB Ni 0.24204(4) 0.31923(4) -0.10116(4)
Ni1KC Ni 0.06923(4) 0.50796(4) 0.14884(4)
N2CC N 0.1682(2) 0.3916(2) 0.0485(2)
N3JC N 0.09480(18) 0.4049(2) 0.00332(19)
O1 O 0.2094(2) 0.4640(3) 0.0131(3)
H7 H 0.2094 0.4838 -0.0023
H8 H 0.2126 0.4718 0.0367
loop_
_geom_bond_atom_site_label_1
_geom_bond_atom_site_label_2
_geom_bond_site_symmetry_1
_geom_bond_site_symmetry_2
Ni1 N1 1_555 1_555
N1 C1 1_555 1_555
N2 C1 1_555 1_555
N3 C2 1_555 1_555
N4 Ni1 1_555 1_555
C1 H1 1_555 1_555
C2 N4 1_555 1_555
H2 C2 1_555 1_555
C3 N1 1_555 1_555
C4 N3 1_555 1_555
H3 C4 1_555 1_555
C5 N2 1_555 1_555
H4 C5 1_555 1_555
C6 N4 1_555 1_555
N5 Ni1 1_555 1_555
C7 C6 1_555 1_555
H5 C7 1_555 1_555
C8 C3 1_555 1_555
H6 C8 1_555 1_555
N6 N5 1_555 1_555
O1 H7 1_555 1_555
H8 O1 1_555 1_555
Ni1CB N2 1_555 1_555
Ni1KC N3 1_555 1_555
N2CC Ni1 1_555 1_555
N3JC Ni1 1_555 1_555
C3 C5 1_555 1_555
C4 C6 1_555 1_555
N5 C8 1_555 1_555
C7 N6 1_555 1_555

#END
