
#######################################################################
#
#                 Cambridge Crystallographic Data Centre
#                                CCDC 
#
#######################################################################
#
# If this CIF has been generated from an entry in the Cambridge 
# Structural Database, then it will include bibliographic, chemical, 
# crystal, experimental, refinement or atomic coordinate data resulting 
# from the CCDC's data processing and validation procedures.
#
#######################################################################

data_QUBZAP
_chemical_formula_moiety         '(C48 H60 Ag12 Cl6 N30 O42)n'
_symmetry_cell_setting           rhombohedral
_symmetry_space_group_name_H-M   'R 3'
_symmetry_Int_Tables_number      146
_space_group_name_Hall           'R 3'
loop_
_symmetry_equiv_pos_site_id
_symmetry_equiv_pos_as_xyz
1 x,y,z
2 -y,x-y,z
3 -x+y,-x,z
4 2/3+x,1/3+y,1/3+z
5 2/3-y,1/3+x-y,1/3+z
6 2/3-x+y,1/3-x,1/3+z
7 1/3+x,2/3+y,2/3+z
8 1/3-y,2/3+x-y,2/3+z
9 1/3-x+y,2/3-x,2/3+z
_cell_length_a                   18.5055(14)
_cell_length_b                   18.5055(14)
_cell_length_c                   22.556(2)
_cell_angle_alpha                90
_cell_angle_beta                 90
_cell_angle_gamma                120
_cell_volume                     6689.51
loop_
_atom_site_label
_atom_site_type_symbol
_atom_site_fract_x
_atom_site_fract_y
_atom_site_fract_z
Ag1 Ag 0.89287(4) 0.14668(4) 0.34571(3)
N1 N 0.6295(4) -0.1854(5) 0.4631(3)
C1 C 0.7141(6) -0.0001(6) 0.3789(4)
C2 C 0.6291(6) -0.2513(5) 0.4988(4)
H1 H 0.6853 -0.2455 0.4978
H2 H 0.5892 -0.3062 0.4814
N2 N 0.5745(4) -0.1170(4) 0.4179(4)
O1 O 0.6400(4) -0.1598(4) 0.6458(3)
N3 N 0.6897(5) 0.0477(5) 0.3518(4)
H3 H 0.7266 0.0939 0.3340
H4 H 0.6366 0.0332 0.3516
C3 C 0.6633(6) -0.1689(6) 0.5957(4)
C4 C 0.6937(5) -0.1186(6) 0.4364(4)
C5 C 0.6047(6) -0.2484(5) 0.5631(4)
H5 H 0.5480 -0.2555 0.5636
H6 H 0.6022 -0.2962 0.5847
C6 C 0.6603(6) -0.0755(6) 0.4087(4)
N4 N 0.7759(5) -0.0955(4) 0.4350(3)
Ag2 Ag 0.47397(4) -0.09912(4) 0.38519(3)
C7 C 0.7679(7) 0.1535(7) 0.5039(4)
H7 H 0.7222 0.1099 0.4799
H8 H 0.7690 0.2068 0.4965
O2 O 0.8768(5) 0.1188(5) 0.5064(3)
O3 O 0.8917(5) 0.2151(6) 0.4445(4)
C8 C 0.8510(6) 0.1623(8) 0.4833(5)
Ag3 Ag 0.82012(4) 0.00273(5) 0.59868(3)
Ag4 Ag 0.83540(5) -0.16090(5) 0.47339(3)
O4 O 0.7311(4) -0.1212(4) 0.5705(3)
C9 C 0.8225(6) -0.0244(6) 0.4060(4)
H9 H 0.8807 -0.0050 0.4043
C10 C 0.8313(6) 0.2723(5) 0.6177(4)
H10 H 0.7961 0.2917 0.6027
C11 C 0.9302(5) 0.2676(5) 0.6618(4)
N5 N 0.8962(5) 0.3184(5) 0.6498(3)
N6 N 1.0516(5) 0.3503(5) 0.7216(4)
H11 H 1.0951 0.3546 0.7405
H12 H 1.0411 0.3917 0.7224
C12 C 1.0020(6) 0.2818(5) 0.6921(4)
C13 C 0.8830(5) 0.1919(6) 0.6345(4)
N7 N 0.8970(5) 0.1269(5) 0.6358(4)
N8 N 1.0200(5) 0.2181(5) 0.6918(3)
N9 N 0.8174(5) 0.1949(5) 0.6070(3)
C14 C 0.9682(5) 0.1465(6) 0.6654(4)
H13 H 0.9825 0.1039 0.6676
C15 C 0.7491(6) 0.1310(6) 0.5699(4)
H14 H 0.6957 0.1278 0.5806
H15 H 0.7435 0.0757 0.5772
C16 C 0.5594(5) -0.1801(5) 0.4505(4)
H16 H 0.5052 -0.2191 0.4646
N10 N 0.7960(5) 0.0229(5) 0.3789(3)
O5 O 0.8040(5) 0.2176(4) 0.3159(3)
Cl2 Cl 0.52988(18) 0.01469(17) 0.51446(12)
O8 O 0.5430(5) 0.0421(5) 0.4527(3)
O9 O 0.5493(5) 0.0844(5) 0.5510(3)
Cl3 Cl 1.0001 0.0000 0.54371(19)
O11 O 1.0001 0.0000 0.4820(7)
O13 O 0.5831(5) -0.0173(5) 0.5324(3)
O14 O 0.4457(6) -0.0525(5) 0.5217(4)
O15 O 0.9175(5) -0.0543(5) 0.5655(4)
Ag1G Ag 1.18665(4) 0.41286(6) 0.01238(3)
Ag1E Ag 0.92048(6) 0.44046(4) 0.67904(3)
Ag1H Ag 0.58714(6) -0.22620(4) 0.01238(3)
Ag1F Ag 0.22620(4) -0.18665(4) 0.01238(3)
Ag1B Ag 0.25381(6) 0.10713(4) 0.34571(3)
N1H N 0.5184(6) 0.0372(4) 0.1298(3)
N1G N 1.5187(5) 0.4816(6) 0.1298(3)
C1H C 0.6191(8) -0.0474(6) 0.0456(4)
C1G C 1.3334(6) 0.3809(8) 0.0456(4)
C2H C 0.4529(8) 0.0376(6) 0.1655(4)
C2G C 1.5846(5) 0.5471(8) 0.1655(4)
H1H H 0.4025 -0.0186 0.1645
H1G H 1.5788 0.5975 0.1645
H2H H 0.4379 0.0775 0.1481
H2G H 1.6395 0.5621 0.1481
N2H N 0.6418(6) 0.0922(4) 0.0846(4)
N2G N 1.4503(4) 0.3582(6) 0.0846(4)
N2D N 0.7837(4) 0.0248(6) 0.7512(4)
N2C N 1.2412(4) 0.2163(4) 0.7512(4)
O1H O 0.5335(6) 0.0267(4) 0.3125(3)
O1G O 1.4931(4) 0.4665(6) 0.3125(3)
O1B O 1.2002(6) 0.3600(4) 0.6458(3)
N3H N 0.6913(7) -0.0230(5) 0.0185(4)
N3G N 1.2856(5) 0.3087(7) 0.0185(4)
H3H H 0.7006 -0.0599 0.0007
H3G H 1.2394 0.2994 0.0007
H4H H 0.7299 0.0301 0.0183
H4G H 1.3001 0.2701 0.0183
C3H C 0.5011(8) 0.0034(6) 0.2624(4)
C3G C 1.5022(6) 0.4989(8) 0.2624(4)
C4H C 0.5210(8) -0.0270(5) 0.1031(4)
C4G C 1.4519(6) 0.4790(8) 0.1031(4)
C5H C 0.4802(8) 0.0620(6) 0.2298(4)
C5G C 1.5817(5) 0.5198(8) 0.2298(4)
H5H H 0.5298 0.1187 0.2303
H5G H 1.5888 0.4702 0.2303
H6H H 0.4349 0.0645 0.2514
H6G H 1.6295 0.5651 0.2514
C6H C 0.5975(8) 0.0064(6) 0.0754(4)
C6G C 1.4088(6) 0.4025(8) 0.0754(4)
N4H N 0.4619(6) -0.1092(5) 0.1017(3)
N4G N 1.4288(4) 0.5381(6) 0.1017(3)
N4B N 1.1286(6) 0.2241(5) 0.4350(3)
N4F N 1.1092(5) 0.5712(4) 0.1017(3)
Ag2D Ag 0.76579(4) -0.09358(6) 0.71852(3)
Ag2C Ag 1.14064(4) 0.23421(4) 0.71852(3)
Ag2A Ag 1.09912(4) 0.57309(6) 0.38519(3)
Ag2H Ag 0.76024(6) 0.19270(4) 0.05186(3)
Ag2G Ag 1.43245(4) 0.23976(6) 0.05186(3)
Ag2B Ag 1.42691(6) 0.52603(4) 0.38519(3)
C7G C 1.1798(7) 0.2811(10) 0.1706(4)
C7F C 0.1012(7) -0.1798(7) 0.1706(4)
H7G H 1.2234 0.2790 0.1466
H7F H 0.0555 -0.2234 0.1466
H8G H 1.1265 0.2289 0.1632
H8F H 0.1023 -0.1265 0.1632
O2G O 1.2145(5) 0.4247(7) 0.1731(3)
O2F O 0.2101(5) -0.2145(5) 0.1731(3)
O2A O 0.8812(5) -0.2420(7) 0.5064(3)
O3G O 1.1182(6) 0.3433(8) 0.1112(4)
O3F O 0.2250(5) -0.1182(6) 0.1112(4)
O3A O 0.7849(6) -0.3234(8) 0.4445(4)
O3E O 0.9901(8) 0.4416(5) 0.7778(4)
C8G C 1.1710(8) 0.3554(10) 0.1500(5)
C8F C 0.1843(6) -0.1710(8) 0.1500(5)
Ag3G Ag 1.33060(5) 0.48406(6) 0.26535(3)
Ag3F Ag 0.15345(4) -0.33060(5) 0.26535(3)
Ag3A Ag 0.99727(5) -0.18261(6) 0.59868(3)
Ag3B Ag 1.18261(6) 0.17988(4) 0.59868(3)
Ag3H Ag 0.51594(6) -0.15345(4) 0.26535(3)
Ag4B Ag 1.00370(7) 0.16460(5) 0.47339(3)
Ag4F Ag 1.16873(5) 0.50577(5) 0.14006(3)
Ag4A Ag 1.16090(5) -0.00370(7) 0.47339(3)
Ag4H Ag 0.33703(7) -0.16873(5) 0.14006(3)
Ag4G Ag 1.49423(5) 0.66297(7) 0.14006(3)
O4H O 0.4810(6) -0.0644(4) 0.2372(3)
O4G O 1.4545(4) 0.5190(6) 0.2372(3)
O4F O 0.0644(4) -0.4545(4) 0.2372(3)
C9H C 0.4864(8) -0.1558(6) 0.0727(4)
C9G C 1.3577(6) 0.5136(8) 0.0727(4)
H9H H 0.4476 -0.2140 0.0710
H9G H 1.3383 0.5524 0.0710
C10G C 1.0610(5) 0.2257(8) 0.2844(4)
C10F C 0.1646(6) -0.0610(5) 0.2844(4)
H10G H 1.0416 0.1711 0.2694
H10F H 0.1294 -0.0416 0.2694
C11G C 1.0657(5) 0.3293(7) 0.3285(4)
C11F C 0.2635(5) -0.0657(5) 0.3285(4)
N5G N 1.0149(5) 0.2445(7) 0.3165(3)
N5F N 0.2295(5) -0.0149(5) 0.3165(3)
N5E N 1.0889(7) 0.4371(5) -0.0169(3)
N6G N 0.9830(5) 0.3680(7) 0.3883(4)
N6F N 0.3849(5) 0.0170(5) 0.3883(4)
H11G H 0.9787 0.4072 0.4072
H11F H 0.4284 0.0213 0.4072
H12G H 0.9416 0.3161 0.3891
H12F H 0.3744 0.0584 0.3891
C12G C 1.0515(5) 0.3869(8) 0.3588(4)
C12F C 0.3353(6) -0.0515(5) 0.3588(4)
C13G C 1.1414(6) 0.3578(8) 0.3012(4)
C13F C 0.2163(5) -0.1414(6) 0.3012(4)
N7G N 1.2064(5) 0.4368(7) 0.3025(4)
N7F N 0.2303(5) -0.2064(5) 0.3025(4)
N8G N 1.1152(5) 0.4686(7) 0.3585(3)
N8F N 0.3533(5) -0.1152(5) 0.3585(3)
N8A N 0.7819(5) -0.1981(7) 0.6918(3)
N9G N 1.1384(5) 0.2892(7) 0.2737(3)
N9F N 0.1507(5) -0.1384(5) 0.2737(3)
C14G C 1.1868(6) 0.4884(8) 0.3321(4)
C14F C 0.3015(5) -0.1868(6) 0.3321(4)
H13G H 1.2294 0.5453 0.3343
H13F H 0.3158 -0.2294 0.3343
C15G C 1.2023(6) 0.2848(8) 0.2366(4)
C15F C 0.0824(6) -0.2023(6) 0.2366(4)
H14G H 1.2055 0.2346 0.2473
H14F H 0.0290 -0.2055 0.2473
H15G H 1.2576 0.3345 0.2439
H15F H 0.0768 -0.2576 0.2439
C16H C 0.5938(7) 0.1073(5) 0.1172(4)
C16G C 1.5134(5) 0.4062(7) 0.1172(4)
H16H H 0.6090 0.1615 0.1313
H16G H 1.5524 0.3910 0.1313
N10H N 0.5602(7) -0.1293(5) 0.0456(3)
N10G N 1.3104(5) 0.4398(7) 0.0456(3)
N10E N 0.8936(7) 0.5373(5) 0.7122(3)
O5G O 1.1157(4) 0.2531(6) -0.0174(3)
O5E O 1.0803(6) 0.5293(5) 0.6492(3)
Cl2D Cl 0.65198(17) -0.15148(25) 0.84779(12)
Cl2C Cl 1.19655(18) 0.34802(17) 0.84779(12)
O8D O 0.6246(5) -0.1658(7) 0.7860(3)
O8C O 1.2097(5) 0.3754(5) 0.7860(3)
O9D O 0.5823(5) -0.2018(7) 0.8843(3)
O9C O 1.2160(5) 0.4177(5) 0.8843(3)
O13D O 0.6840(5) -0.0663(7) 0.8657(3)
O13C O 1.2498(5) 0.3160(5) 0.8657(3)
O14D O 0.7192(5) -0.1685(8) 0.8550(4)
O14C O 1.1124(6) 0.2808(5) 0.8550(4)
O15A O 1.0543(5) -0.0282(7) 0.5655(4)
O15B O 1.0282(7) 0.0825(5) 0.5655(4)
O15G O 1.3876(5) 0.6385(7) 0.2322(4)
O15F O 1.2508(5) 0.6124(5) 0.2322(4)
O15F_2 O 0.2508(5) -0.3876(5) 0.2322(4)
Cl1 Cl 1.0000 0.0000 0.29855(19)
O6 O 1.0824(4) 0.0603(4) 0.2770(4)
O7 O 1.0000 -0.0000 0.3620(6)
O6A O 0.9397(4) 0.0221(6) 0.2770(4)
O6B O 0.9779(6) -0.0824(4) 0.2770(4)
Cl4 Cl 0.3333 -0.3333 0.4408(2)
O10 O 0.3897(4) -0.3608(4) 0.4603(4)
O12 O 0.3333 -0.3333 0.3763(7)
O10A O 0.3608(4) -0.2495(6) 0.4603(4)
O10B O 0.2495(6) -0.3897(4) 0.4603(4)
O16 O 0.8173(5) 0.3700(6) 0.3566(4)
O17 O 0.6667 0.3333 0.3088(7)
O18 O 0.9764(8) 0.0803(10) 0.1427(5)
loop_
_geom_bond_atom_site_label_1
_geom_bond_atom_site_label_2
_geom_bond_site_symmetry_1
_geom_bond_site_symmetry_2
Ag1 O3 1_555 1_555
N1 C2 1_555 1_555
C1 N3 1_555 1_555
C2 H1 1_555 1_555
H2 C2 1_555 1_555
N2 C6 1_555 1_555
O1 C3 1_555 1_555
N3 H3 1_555 1_555
H4 N3 1_555 1_555
C3 C5 1_555 1_555
C4 N1 1_555 1_555
C5 C2 1_555 1_555
H5 C5 1_555 1_555
H6 C5 1_555 1_555
C6 C1 1_555 1_555
N4 C4 1_555 1_555
Ag2 N2 1_555 1_555
C7 H7 1_555 1_555
H8 C7 1_555 1_555
O2 C8 1_555 1_555
O3 C8 1_555 1_555
C8 C7 1_555 1_555
Ag3 O2 1_555 1_555
Ag4 N4 1_555 1_555
O4 C3 1_555 1_555
C9 N4 1_555 1_555
H9 C9 1_555 1_555
C10 H10 1_555 1_555
C11 N5 1_555 1_555
N5 C10 1_555 1_555
N6 H11 1_555 1_555
H12 N6 1_555 1_555
C12 C11 1_555 1_555
C13 C11 1_555 1_555
N7 Ag3 1_555 1_555
N8 C12 1_555 1_555
N9 C10 1_555 1_555
C14 N7 1_555 1_555
H13 C14 1_555 1_555
C15 C7 1_555 1_555
H14 C15 1_555 1_555
H15 C15 1_555 1_555
C16 N1 1_555 1_555
H16 C16 1_555 1_555
N10 Ag1 1_555 1_555
O5 Ag1 1_555 1_555
Cl1 O6 1_555 1_555
O7 Cl1 1_555 1_555
Cl2 O8 1_555 1_555
O8 Ag2 1_555 1_555
O9 Cl2 1_555 1_555
Cl3 O11 1_555 1_555
Cl4 O10 1_555 1_555
O12 Cl4 1_555 1_555
O13 Cl2 1_555 1_555
O14 Cl2 1_555 1_555
O15 Ag3 1_555 1_555
Ag1G O3G 1_555 1_555
Ag1E N5 1_555 1_555
Ag1H N10H 1_555 1_555
Ag1F O3F 1_555 1_555
Ag1B N5F 1_555 1_555
N1H C2H 1_555 1_555
N1G C2G 1_555 1_555
C1H N3H 1_555 1_555
C1G N3G 1_555 1_555
C2H H1H 1_555 1_555
C2G H1G 1_555 1_555
H2H C2H 1_555 1_555
H2G C2G 1_555 1_555
N2H C6H 1_555 1_555
N2G C6G 1_555 1_555
N2D Ag2D 1_555 1_555
N2C Ag2C 1_555 1_555
O1H Ag2 1_555 1_555
O1G C3G 1_555 1_555
O1B Ag2C 1_555 1_555
N3H H3H 1_555 1_555
N3G H3G 1_555 1_555
H4H N3H 1_555 1_555
H4G N3G 1_555 1_555
C3H O1H 1_555 1_555
C3G C5G 1_555 1_555
C4H N1H 1_555 1_555
C4G N1G 1_555 1_555
C5H C2H 1_555 1_555
C5G C2G 1_555 1_555
H5H C5H 1_555 1_555
H5G C5G 1_555 1_555
H6H C5H 1_555 1_555
H6G C5G 1_555 1_555
C6H C1H 1_555 1_555
C6G C1G 1_555 1_555
N4H C4H 1_555 1_555
N4G C4G 1_555 1_555
N4B Ag4B 1_555 1_555
N4F Ag4F 1_555 1_555
Ag2D O1 1_555 1_555
Ag2C N8 1_555 1_555
Ag2A N8G 1_555 1_555
Ag2H N2H 1_555 1_555
Ag2G N2G 1_555 1_555
Ag2B O1G 1_555 1_555
C7G H7G 1_555 1_555
C7F H7F 1_555 1_555
H8G C7G 1_555 1_555
H8F C7F 1_555 1_555
O2G C8G 1_555 1_555
O2F C8F 1_555 1_555
O2A Ag4 1_555 1_555
O3G C8G 1_555 1_555
O3F C8F 1_555 1_555
O3A Ag4 1_555 1_555
O3E Ag1E 1_555 1_555
C8G C7G 1_555 1_555
C8F C7F 1_555 1_555
Ag3G O2G 1_555 1_555
Ag3F O2F 1_555 1_555
Ag3A O2A 1_555 1_555
Ag3B O15B 1_555 1_555
Ag3H O4H 1_555 1_555
Ag4B O2 1_555 1_555
Ag4F O2G 1_555 1_555
Ag4A O15A 1_555 1_555
Ag4H N4H 1_555 1_555
Ag4G N4G 1_555 1_555
O4H C3H 1_555 1_555
O4G C3G 1_555 1_555
O4F Ag3F 1_555 1_555
C9H N4H 1_555 1_555
C9G N4G 1_555 1_555
H9H C9H 1_555 1_555
H9G C9G 1_555 1_555
C10G H10G 1_555 1_555
C10F H10F 1_555 1_555
C11G N5G 1_555 1_555
C11F N5F 1_555 1_555
N5G Ag1 1_555 1_555
N5F C10F 1_555 1_555
N5E Ag1G 1_555 1_555
N6G H11G 1_555 1_555
N6F H11F 1_555 1_555
H12G N6G 1_555 1_555
H12F N6F 1_555 1_555
C12G C11G 1_555 1_555
C12F C11F 1_555 1_555
C13G C11G 1_555 1_555
C13F C11F 1_555 1_555
N7G Ag3G 1_555 1_555
N7F Ag3F 1_555 1_555
N8G C12G 1_555 1_555
N8F Ag2 1_555 1_555
N8A Ag2D 1_555 1_555
N9G C10G 1_555 1_555
N9F C10F 1_555 1_555
C14G N7G 1_555 1_555
C14F N7F 1_555 1_555
H13G C14G 1_555 1_555
H13F C14F 1_555 1_555
C15G C7G 1_555 1_555
C15F C7F 1_555 1_555
H14G C15G 1_555 1_555
H14F C15F 1_555 1_555
H15G C15G 1_555 1_555
H15F C15F 1_555 1_555
C16H N1H 1_555 1_555
C16G N1G 1_555 1_555
H16H C16H 1_555 1_555
H16G C16G 1_555 1_555
N10H C1H 1_555 1_555
N10G Ag1G 1_555 1_555
N10E Ag1E 1_555 1_555
O5G Ag1G 1_555 1_555
O5E Ag1E 1_555 1_555
O6A Cl1 1_555 1_555
O6B Cl1 1_555 1_555
Cl2D O8D 1_555 1_555
Cl2C O8C 1_555 1_555
O8D Ag2D 1_555 1_555
O8C Ag2C 1_555 1_555
O9D Cl2D 1_555 1_555
O9C Cl2C 1_555 1_555
O10A Cl4 1_555 1_555
O10B Cl4 1_555 1_555
O13D Cl2D 1_555 1_555
O13C Cl2C 1_555 1_555
O14D Cl2D 1_555 1_555
O14C Cl2C 1_555 1_555
O15A Cl3 1_555 1_555
O15B Cl3 1_555 1_555
O15G Ag3G 1_555 1_555
O15F Ag4F 1_555 1_555
O15F_2 Ag3F 1_555 1_555
C1 N10 1_555 1_555
N2 C16 1_555 1_555
C4 C6 1_555 1_555
O3 Ag4B 1_555 1_555
Ag3 O4 1_555 1_555
Ag4 O15 1_555 1_555
C9 N10 1_555 1_555
N6 C12 1_555 1_555
C13 N7 1_555 1_555
C13 N9 1_555 1_555
N8 C14 1_555 1_555
N9 C15 1_555 1_555
Cl3 O15 1_555 1_555
C1G N10G 1_555 1_555
N2H C16H 1_555 1_555
N2G C16G 1_555 1_555
C3H C5H 1_555 1_555
C4H C6H 1_555 1_555
C4G C6G 1_555 1_555
O2F Ag4H 1_555 1_555
O3G Ag4F 1_555 1_555
O3F Ag4H 1_555 1_555
Ag3G O4G 1_555 1_555
Ag3A O15A 1_555 1_555
Ag4B O15B 1_555 1_555
Ag4G O15G 1_555 1_555
C9H N10H 1_555 1_555
C9G N10G 1_555 1_555
C10G N5G 1_555 1_555
N6G C12G 1_555 1_555
N6F C12F 1_555 1_555
C12F N8F 1_555 1_555
C13G N7G 1_555 1_555
C13G N9G 1_555 1_555
C13F N7F 1_555 1_555
C13F N9F 1_555 1_555
N8G C14G 1_555 1_555
N8F C14F 1_555 1_555
N9G C15G 1_555 1_555
N9F C15F 1_555 1_555

#END
