
#######################################################################
#
#                 Cambridge Crystallographic Data Centre
#                                CCDC 
#
#######################################################################
#
# If this CIF has been generated from an entry in the Cambridge 
# Structural Database, then it will include bibliographic, chemical, 
# crystal, experimental, refinement or atomic coordinate data resulting 
# from the CCDC's data processing and validation procedures.
#
#######################################################################

data_IYATEI
_chemical_formula_moiety         'C48 H16 N3 O12 Zn7'
_symmetry_cell_setting           tetragonal
_symmetry_space_group_name_H-M   'I 4/m c m'
_symmetry_Int_Tables_number      140
_space_group_name_Hall           '-I 4 2c'
loop_
_symmetry_equiv_pos_site_id
_symmetry_equiv_pos_as_xyz
1 x,y,z
2 -y,x,z
3 -x,-y,z
4 y,-x,z
5 x,-y,1/2-z
6 -y,-x,1/2-z
7 -x,y,1/2-z
8 y,x,1/2-z
9 1/2+x,1/2+y,1/2+z
10 1/2-y,1/2+x,1/2+z
11 1/2-x,1/2-y,1/2+z
12 1/2+y,1/2-x,1/2+z
13 1/2+x,1/2-y,-z
14 1/2-y,1/2-x,-z
15 1/2-x,1/2+y,-z
16 1/2+y,1/2+x,-z
17 -x,-y,-z
18 y,-x,-z
19 x,y,-z
20 -y,x,-z
21 -x,y,1/2+z
22 y,x,1/2+z
23 x,-y,1/2+z
24 -y,-x,1/2+z
25 1/2-x,1/2-y,1/2-z
26 1/2+y,1/2-x,1/2-z
27 1/2+x,1/2+y,1/2-z
28 1/2-y,1/2+x,1/2-z
29 1/2-x,1/2+y,z
30 1/2+y,1/2+x,z
31 1/2+x,1/2-y,z
32 1/2-y,1/2-x,z
_cell_length_a                   15.336(14)
_cell_length_b                   15.336(14)
_cell_length_c                   19.081(17)
_cell_angle_alpha                90
_cell_angle_beta                 90
_cell_angle_gamma                90
_cell_volume                     4487.72
loop_
_atom_site_label
_atom_site_type_symbol
_atom_site_fract_x
_atom_site_fract_y
_atom_site_fract_z
Zn1 Zn -0.0000 -0.0000 0.17446(5)
O1 O 0.1047(3) 0.0774(3) 0.1935(3)
N1 N 0.0000 0.0000 0.0669(4)
C1 C 0.1856(3) 0.1856(3) 0.2500
C2 C 0.2644(4) 0.1697(4) 0.2838(3)
C3 C 0.1167(3) 0.1167(3) 0.2500
C4 C 0.2819(5) 0.0883(5) 0.3170(4)
C5 C 0.3608(6) 0.0743(6) 0.3464(6)
C6 C -0.045(6) -0.080(2) 0.0430(12)
C7 C 0.027(5) -0.0898(14) 0.0396(10)
H1 H 0.2389 0.0447 0.3184
H2 H 0.3726 0.0200 0.3673
Zn1D Zn -0.0000 -0.0000 0.32554(5)
Zn1BA Zn 0.5000 0.5000 0.17446(5)
Zn1X Zn 0.5000 0.5000 0.32554(5)
Zn1P Zn 0.0000 0.0000 -0.17446(5)
Zn1BA_2 Zn -0.5000 0.5000 0.17446(5)
Zn1X_2 Zn -0.5000 0.5000 0.32554(5)
O1G O 0.0774(3) 0.1047(3) 0.3065(3)
O1EA O 0.4226(3) 0.3953(3) 0.1935(3)
O1X O 0.3953(3) 0.4226(3) 0.3065(3)
O1A O -0.0774(3) 0.1047(3) 0.1935(3)
O1F O -0.1047(3) 0.0774(3) 0.3065(3)
O1DA O -0.3953(3) 0.4226(3) 0.1935(3)
O1Y O -0.4226(3) 0.3953(3) 0.3065(3)
O1C O 0.0774(3) -0.1047(3) 0.1935(3)
O1B O -0.1047(3) -0.0774(3) 0.1935(3)
O1D O 0.1047(3) -0.0774(3) 0.3065(3)
O1E O -0.0774(3) -0.1047(3) 0.3065(3)
N1P N 0.0000 0.0000 -0.0669(4)
N1D N -0.0000 -0.0000 0.4331(4)
C1X C 0.3144(3) 0.3144(3) 0.2500
C1A C -0.1856(3) 0.1856(3) 0.2500
C1Y C -0.3144(3) 0.3144(3) 0.2500
C2EA C 0.3303(4) 0.2356(4) 0.2838(3)
C2X C 0.2356(4) 0.3303(4) 0.2162(3)
C2G C 0.1697(4) 0.2644(4) 0.2162(3)
C2A C -0.1697(4) 0.2644(4) 0.2838(3)
C2DA C -0.2356(4) 0.3303(4) 0.2838(3)
C2Y C -0.3303(4) 0.2356(4) 0.2162(3)
C2F C -0.2644(4) 0.1697(4) 0.2162(3)
C3X C 0.3833(3) 0.3833(3) 0.2500
C3A C -0.1167(3) 0.1167(3) 0.2500
C3Y C -0.3833(3) 0.3833(3) 0.2500
C4G C 0.0883(5) 0.2819(5) 0.1830(4)
C4X C 0.2181(5) 0.4117(5) 0.1830(4)
C4EA C 0.4117(5) 0.2181(5) 0.3170(4)
C4A C -0.0883(5) 0.2819(5) 0.3170(4)
C4F C -0.2819(5) 0.0883(5) 0.1830(4)
C4Y C -0.4117(5) 0.2181(5) 0.1830(4)
C4DA C -0.2181(5) 0.4117(5) 0.3170(4)
C5G C 0.0743(6) 0.3608(6) 0.1536(6)
C5X C 0.1392(6) 0.4257(6) 0.1536(6)
C5EA C 0.4257(6) 0.1392(6) 0.3464(6)
C5A C -0.0743(6) 0.3608(6) 0.3464(6)
C5F C -0.3608(6) 0.0743(6) 0.1536(6)
C5Y C -0.4257(6) 0.1392(6) 0.1536(6)
C5DA C -0.1392(6) 0.4257(6) 0.3464(6)
C6R C -0.045(6) -0.080(2) -0.0430(12)
C6S C 0.080(2) -0.045(6) -0.0430(12)
C6A C 0.080(2) -0.045(6) 0.0430(12)
C6B C 0.045(6) 0.080(2) 0.0430(12)
C6P C 0.045(6) 0.080(2) -0.0430(12)
C6C C -0.080(2) 0.045(6) 0.0430(12)
C6Q C -0.080(2) 0.045(6) -0.0430(12)
C7B C -0.027(5) 0.0898(14) 0.0396(10)
C7C C -0.0898(14) -0.027(5) 0.0396(10)
C7Q C -0.0898(14) -0.027(5) -0.0396(10)
C7P C -0.027(5) 0.0898(14) -0.0396(10)
C7R C 0.027(5) -0.0898(14) -0.0396(10)
C7S C 0.0898(14) 0.027(5) -0.0396(10)
C7A C 0.0898(14) 0.027(5) 0.0396(10)
H1X H 0.2611 0.4553 0.1816
H1G H 0.0447 0.2389 0.1816
H1EA H 0.4553 0.2611 0.3184
H1A H -0.0447 0.2389 0.3184
H1Y H -0.4553 0.2611 0.1816
H1F H -0.2389 0.0447 0.1816
H1DA H -0.2611 0.4553 0.3184
H2X H 0.1274 0.4800 0.1327
H2G H 0.0200 0.3726 0.1327
H2EA H 0.4800 0.1274 0.3673
H2A H -0.0200 0.3726 0.3673
H2Y H -0.4800 0.1274 0.1327
H2F H -0.3726 0.0200 0.1327
H2DA H -0.1274 0.4800 0.3673
loop_
_geom_bond_atom_site_label_1
_geom_bond_atom_site_label_2
_geom_bond_site_symmetry_1
_geom_bond_site_symmetry_2
Zn1 O1 1_555 1_555
O1 C3 1_555 1_555
N1 Zn1 1_555 1_555
C1 C2 1_555 1_555
C2 C4 1_555 1_555
C3 C1 1_555 1_555
C4 C5 1_555 1_555
C5 H2 1_555 1_555
C6 N1 1_555 1_555
C7 N1 1_555 1_555
H1 C4 1_555 1_555
Zn1D O1G 1_555 1_555
Zn1BA O1EA 1_555 1_555
Zn1X O1X 1_555 1_555
Zn1P N1P 1_555 1_555
Zn1BA_2 O1DA 1_555 1_555
Zn1X_2 O1Y 1_555 1_555
O1G C3 1_555 1_555
O1EA C3X 1_555 1_555
O1X C3X 1_555 1_555
O1A Zn1 1_555 1_555
O1F Zn1D 1_555 1_555
O1DA C3Y 1_555 1_555
O1Y C3Y 1_555 1_555
O1C Zn1 1_555 1_555
O1B Zn1 1_555 1_555
O1D Zn1D 1_555 1_555
O1E Zn1D 1_555 1_555
N1P C6R 1_555 1_555
N1D Zn1D 1_555 1_555
C1X C2EA 1_555 1_555
C1A C2A 1_555 1_555
C1Y C2DA 1_555 1_555
C2EA C2 1_555 1_555
C2X C1X 1_555 1_555
C2G C1 1_555 1_555
C2A C2DA 1_555 1_555
C2DA C4DA 1_555 1_555
C2Y C1Y 1_555 1_555
C2F C1A 1_555 1_555
C3X C1X 1_555 1_555
C3A O1A 1_555 1_555
C3Y C1Y 1_555 1_555
C4G C2G 1_555 1_555
C4X C2X 1_555 1_555
C4EA C2EA 1_555 1_555
C4A C2A 1_555 1_555
C4F C2F 1_555 1_555
C4Y C2Y 1_555 1_555
C4DA C5DA 1_555 1_555
C5G C4G 1_555 1_555
C5X C4X 1_555 1_555
C5EA C5 1_555 1_555
C5A C4A 1_555 1_555
C5F C4F 1_555 1_555
C5Y C4Y 1_555 1_555
C5DA C5A 1_555 1_555
C6R C6 1_555 1_555
C6S N1P 1_555 1_555
C6A N1 1_555 1_555
C6B N1 1_555 1_555
C6P N1P 1_555 1_555
C6C N1 1_555 1_555
C6Q N1P 1_555 1_555
C7B N1 1_555 1_555
C7C N1 1_555 1_555
C7Q N1P 1_555 1_555
C7P N1P 1_555 1_555
C7R C7 1_555 1_555
C7S N1P 1_555 1_555
C7A N1 1_555 1_555
H1X C4X 1_555 1_555
H1G C4G 1_555 1_555
H1EA C4EA 1_555 1_555
H1A C4A 1_555 1_555
H1Y C4Y 1_555 1_555
H1F C4F 1_555 1_555
H1DA C4DA 1_555 1_555
H2X C5X 1_555 1_555
H2G C5G 1_555 1_555
H2EA C5EA 1_555 1_555
H2A C5A 1_555 1_555
H2Y C5Y 1_555 1_555
H2F C5F 1_555 1_555
H2DA C5DA 1_555 1_555
C6 C7 1_555 1_555
C6 C7C 1_555 1_555
C7 C6A 1_555 1_555
O1F C3A 1_555 1_555
N1P C7R 1_555 1_555
C1A C3A 1_555 1_555
C2X C2G 1_555 1_555
C2Y C2F 1_555 1_555
C4EA C5EA 1_555 1_555
C5G C5X 1_555 1_555
C5F C5Y 1_555 1_555
C6R C7Q 1_555 1_555
C6R C7R 1_555 1_555
C6S C6A 1_555 1_555
C6S C7R 1_555 1_555
C6S C7S 1_555 1_555
C6A C7A 1_555 1_555
C6B C6P 1_555 1_555
C6B C7B 1_555 1_555
C6B C7A 1_555 1_555
C6P C7P 1_555 1_555
C6P C7S 1_555 1_555
C6C C6Q 1_555 1_555
C6C C7B 1_555 1_555
C6C C7C 1_555 1_555
C6Q C7Q 1_555 1_555
C6Q C7P 1_555 1_555
C7B C7P 1_555 1_555
C7C C7Q 1_555 1_555
C7S C7A 1_555 1_555

#END
