
#######################################################################
#
#                 Cambridge Crystallographic Data Centre
#                                CCDC 
#
#######################################################################
#
# If this CIF has been generated from an entry in the Cambridge 
# Structural Database, then it will include bibliographic, chemical, 
# crystal, experimental, refinement or atomic coordinate data resulting 
# from the CCDC's data processing and validation procedures.
#
#######################################################################

data_KINRIK
_chemical_formula_moiety         '(C15 H54 Cu6 Gd2 N6 O33 6+)n'
_symmetry_cell_setting           rhombohedral
_symmetry_space_group_name_H-M   'R -3'
_symmetry_Int_Tables_number      148
_space_group_name_Hall           '-R 3'
loop_
_symmetry_equiv_pos_site_id
_symmetry_equiv_pos_as_xyz
1 x,y,z
2 -y,x-y,z
3 -x+y,-x,z
4 2/3+x,1/3+y,1/3+z
5 2/3-y,1/3+x-y,1/3+z
6 2/3-x+y,1/3-x,1/3+z
7 1/3+x,2/3+y,2/3+z
8 1/3-y,2/3+x-y,2/3+z
9 1/3-x+y,2/3-x,2/3+z
10 -x,-y,-z
11 y,-x+y,-z
12 x-y,x,-z
13 1/3-x,2/3-y,2/3-z
14 1/3+y,2/3-x+y,2/3-z
15 1/3+x-y,2/3+x,2/3-z
16 2/3-x,1/3-y,1/3-z
17 2/3+y,1/3-x+y,1/3-z
18 2/3+x-y,1/3+x,1/3-z
_cell_length_a                   38.074(10)
_cell_length_b                   38.074(10)
_cell_length_c                   24.316(13)
_cell_angle_alpha                90
_cell_angle_beta                 90
_cell_angle_gamma                120
_cell_volume                     30526.7
loop_
_atom_site_label
_atom_site_type_symbol
_atom_site_fract_x
_atom_site_fract_y
_atom_site_fract_z
Gd1 Gd 0.562809(19) 1.12459(2) 0.66625(2)
Gd2 Gd 0.448856(17) 0.901832(17) 0.825129(19)
Cu1 Cu 0.52574(4) 0.99857(4) 0.78976(5)
Cu2 Cu 0.36845(4) 0.89711(4) 0.75036(5)
Cu3 Cu 0.47464(5) 0.84620(5) 0.73877(5)
Cu4 Cu 0.51230(4) 0.97353(4) 0.91923(5)
Cu5 Cu 0.46192(5) 0.82253(4) 0.86765(5)
Cu6 Cu 0.35375(4) 0.87325(4) 0.88086(5)
O1 O 0.5074(2) 0.9421(2) 0.7649(3)
O2 O 0.5176(3) 0.9075(3) 0.6972(3)
O3 O 0.4267(2) 0.9375(2) 0.7621(3)
O4 O 0.4748(3) 0.9998(2) 0.7389(3)
O5 O 0.4329(2) 0.8615(2) 0.7412(3)
O6 O 0.3848(2) 0.8618(2) 0.6892(3)
O7 O 0.4941(2) 0.9167(2) 0.9053(3)
O8 O 0.5022(3) 0.8658(3) 0.9360(3)
O9 O 0.4199(2) 0.8394(2) 0.8772(3)
O10 O 0.3605(3) 0.8211(2) 0.9172(3)
O11 O 0.4119(2) 0.91213(19) 0.8991(3)
O12 O 0.4506(2) 0.9505(2) 0.9669(3)
O13 O 0.5563(2) 1.0853(2) 0.7423(3)
O14 O 0.5435(2) 1.0511(2) 0.8230(3)
O15 O 0.2668(2) 0.8140(2) 0.9258(4)
O16 O 0.2984(2) 0.8462(2) 0.8512(3)
O17 O 0.5105(3) 0.7865(3) 0.9271(3)
O18 O 0.5023(3) 0.8078(3) 0.8446(3)
O19 O 0.48628(19) 0.97176(19) 0.8494(2)
O20 O 0.3746(2) 0.86696(19) 0.8110(2)
O21 O 0.4861(2) 0.8672(2) 0.8138(2)
O22 O 0.5725(2) 0.9919(3) 0.8571(3)
O23 O 0.3531(3) 0.9337(3) 0.8236(4)
O24 O 0.4216(3) 0.7803(3) 0.7852(3)
O25 O 0.3094(2) 0.8574(2) 0.7425(3)
O26 O 0.5177(3) 0.8320(3) 0.7432(3)
O27 O 0.5289(2) 1.0306(2) 0.9301(3)
O28 O 0.5691(3) 1.1925(2) 0.6460(3)
O29 O 0.4938(2) 1.0634(2) 0.6746(4)
O30 O 0.5577(3) 1.0655(3) 0.6154(4)
O31 O 0.6273(3) 1.1229(3) 0.6779(4)
O32 O 0.6102(3) 1.1769(3) 0.7289(4)
O33 O 0.5196(4) 1.1378(3) 0.7246(4)
N1 N 0.5638(3) 1.0133(3) 0.7257(4)
H1 H 0.5589 1.0283 0.7016
H2 H 0.5895 1.0284 0.7376
N2 N 0.3725(3) 0.9368(3) 0.6961(4)
H3 H 0.3699 0.9264 0.6620
H4 H 0.3523 0.9422 0.7013
N3 N 0.4504(3) 0.8195(3) 0.6689(4)
H5 H 0.4699 0.8254 0.6437
H6 H 0.4362 0.7925 0.6734
N4 N 0.5390(3) 0.9672(3) 0.9840(4)
H7 H 0.5660 0.9836 0.9813
H8 H 0.5305 0.9741 1.0145
N5 N 0.4315(4) 0.7808(3) 0.9191(4)
H9 H 0.4268 0.7568 0.9057
H10 H 0.4454 0.7857 0.9507
N6 N 0.3422(3) 0.8891(3) 0.9545(4)
H11 H 0.3316 0.9055 0.9502
H12 H 0.3242 0.8669 0.9732
C1 C 0.5588(4) 0.9764(4) 0.6979(6)
H13 H 0.5837 0.9756 0.7020
H14 H 0.5547 0.9785 0.6590
C2 C 0.5237(4) 0.9367(5) 0.7195(6)
C3 C 0.4108(4) 0.9734(4) 0.7008(6)
H15 H 0.4061 0.9948 0.7138
H16 H 0.4228 0.9811 0.6644
C4 C 0.4399(4) 0.9711(4) 0.7374(4)
C5 C 0.4253(4) 0.8336(4) 0.6520(5)
H17 H 0.4009 0.8109 0.6370
H18 H 0.4387 0.8526 0.6222
C6 C 0.4125(4) 0.8546(4) 0.6961(5)
C7 C 0.5296(4) 0.9260(4) 0.9879(5)
H19 H 0.5127 0.9137 1.0200
H20 H 0.5546 0.9254 0.9931
C8 C 0.5085(4) 0.9018(4) 0.9390(4)
C9 C 0.3893(5) 0.7794(4) 0.9303(5)
H21 H 0.3674 0.7551 0.9137
H22 H 0.3844 0.7778 0.9696
C10 C 0.3888(4) 0.8158(4) 0.9076(4)
C11 C 0.3809(4) 0.9104(4) 0.9848(5)
H23 H 0.3818 0.8920 1.0116
H24 H 0.3819 0.9330 1.0047
C12 C 0.4179(4) 0.9263(4) 0.9479(5)
C13 C 0.5534(4) 1.0832(4) 0.7955(5)
H25 H 0.5587 1.1065 0.8147
C14 C 0.2688(4) 0.8255(4) 0.8777(5)
H26 H 0.2441 0.8168 0.8600
C15 C 0.5192(5) 0.7970(4) 0.8766(5)
H27 H 0.5415 0.7961 0.8628
Gd1D Gd 0.54208(2) 0.771552(28) 0.99958(2)
Gd1E Gd 0.228448(28) 0.770524(19) 0.99958(2)
O15G O 0.5193(2) 1.1195(3) 0.5925(4)
O17H O 0.6093(4) 1.1562(3) 0.5938(3)
loop_
_geom_bond_atom_site_label_1
_geom_bond_atom_site_label_2
_geom_bond_site_symmetry_1
_geom_bond_site_symmetry_2
Gd1 O13 1_555 1_555
Gd2 O1 1_555 1_555
Cu1 O1 1_555 1_555
Cu2 O3 1_555 1_555
Cu3 O2 1_555 1_555
Cu4 O7 1_555 1_555
Cu5 O8 1_555 1_555
Cu6 O10 1_555 1_555
O1 C2 1_555 1_555
O2 C2 1_555 1_555
O3 Gd2 1_555 1_555
O4 Cu1 1_555 1_555
O5 Gd2 1_555 1_555
O6 Cu2 1_555 1_555
O7 Gd2 1_555 1_555
O8 C8 1_555 1_555
O9 Gd2 1_555 1_555
O10 C10 1_555 1_555
O11 Gd2 1_555 1_555
O12 Cu4 1_555 1_555
O13 C13 1_555 1_555
O14 Cu1 1_555 1_555
O15 C14 1_555 1_555
O16 Cu6 1_555 1_555
O17 C15 1_555 1_555
O18 Cu5 1_555 1_555
O19 Gd2 1_555 1_555
O20 Gd2 1_555 1_555
O21 Gd2 1_555 1_555
O22 Cu1 1_555 1_555
O23 Cu2 1_555 1_555
O24 Cu3 1_555 1_555
O25 Cu2 1_555 1_555
O26 Cu3 1_555 1_555
O27 Cu4 1_555 1_555
O28 Gd1 1_555 1_555
O29 Gd1 1_555 1_555
O30 Gd1 1_555 1_555
O31 Gd1 1_555 1_555
O32 Gd1 1_555 1_555
O33 Gd1 1_555 1_555
N1 Cu1 1_555 1_555
H1 N1 1_555 1_555
H2 N1 1_555 1_555
N2 Cu2 1_555 1_555
H3 N2 1_555 1_555
H4 N2 1_555 1_555
N3 Cu3 1_555 1_555
H5 N3 1_555 1_555
H6 N3 1_555 1_555
N4 Cu4 1_555 1_555
H7 N4 1_555 1_555
H8 N4 1_555 1_555
N5 Cu5 1_555 1_555
H9 N5 1_555 1_555
H10 N5 1_555 1_555
N6 Cu6 1_555 1_555
H11 N6 1_555 1_555
H12 N6 1_555 1_555
C1 N1 1_555 1_555
H13 C1 1_555 1_555
H14 C1 1_555 1_555
C2 C1 1_555 1_555
C3 N2 1_555 1_555
H15 C3 1_555 1_555
H16 C3 1_555 1_555
C4 O3 1_555 1_555
C5 N3 1_555 1_555
H17 C5 1_555 1_555
H18 C5 1_555 1_555
C6 O5 1_555 1_555
C7 N4 1_555 1_555
H19 C7 1_555 1_555
H20 C7 1_555 1_555
C8 O7 1_555 1_555
C9 N5 1_555 1_555
H21 C9 1_555 1_555
H22 C9 1_555 1_555
C10 O9 1_555 1_555
C11 N6 1_555 1_555
H23 C11 1_555 1_555
H24 C11 1_555 1_555
C12 O11 1_555 1_555
C13 O14 1_555 1_555
H25 C13 1_555 1_555
C14 O16 1_555 1_555
H26 C14 1_555 1_555
C15 O18 1_555 1_555
H27 C15 1_555 1_555
Gd1D O17 1_555 1_555
Gd1E O15 1_555 1_555
O15G Gd1 1_555 1_555
O17H Gd1 1_555 1_555
Cu1 O19 1_555 1_555
Cu2 O20 1_555 1_555
Cu3 O5 1_555 1_555
Cu3 O21 1_555 1_555
Cu4 O19 1_555 1_555
Cu4 O22 1_555 1_555
Cu5 O9 1_555 1_555
Cu5 O21 1_555 1_555
Cu5 O24 1_555 1_555
Cu6 O11 1_555 1_555
Cu6 O20 1_555 1_555
Cu6 O23 1_555 1_555
O4 C4 1_555 1_555
O6 C6 1_555 1_555
O12 C12 1_555 1_555
C3 C4 1_555 1_555
C5 C6 1_555 1_555
C7 C8 1_555 1_555
C9 C10 1_555 1_555
C11 C12 1_555 1_555

#END
