
#######################################################################
#
#                 Cambridge Crystallographic Data Centre
#                                CCDC 
#
#######################################################################
#
# If this CIF has been generated from an entry in the Cambridge 
# Structural Database, then it will include bibliographic, chemical, 
# crystal, experimental, refinement or atomic coordinate data resulting 
# from the CCDC's data processing and validation procedures.
#
#######################################################################

data_BUBQOE
_chemical_formula_moiety         '(C8 H36 N4 O32 P8 U4)n'
_symmetry_cell_setting           monoclinic
_symmetry_space_group_name_H-M   'P 21/n'
_symmetry_Int_Tables_number      14
_space_group_name_Hall           '-P 2yn'
loop_
_symmetry_equiv_pos_site_id
_symmetry_equiv_pos_as_xyz
1 x,y,z
2 1/2+x,1/2-y,1/2+z
3 -x,-y,-z
4 1/2-x,1/2+y,1/2-z
_cell_length_a                   13.758(5)
_cell_length_b                   8.180(5)
_cell_length_c                   18.037(5)
_cell_angle_alpha                90
_cell_angle_beta                 106.647(5)
_cell_angle_gamma                90
_cell_volume                     1944.81
loop_
_atom_site_label
_atom_site_type_symbol
_atom_site_fract_x
_atom_site_fract_y
_atom_site_fract_z
U1 U 0.76746(4) 1.07603(6) 0.45994(3)
U2 U 0.91195(4) 0.78605(6) 0.73467(3)
P1 P 1.0049(3) 1.0550(4) 0.6096(2)
H1 H 1.0272 1.1211 0.6567
P2 P 0.7693(3) 1.1553(4) 0.6578(2)
H2 H 0.8381 1.2001 0.6758
O1 O 0.9261(7) 1.1573(13) 0.5503(6)
O2 O 0.9546(8) 0.9033(11) 0.6304(6)
O3 O 0.7541(8) 0.8740(12) 0.4910(6)
O4 O 0.8575(8) 0.6211(12) 0.6728(6)
O5 O 0.7736(8) 1.2763(13) 0.4234(6)
O6 O 1.0975(8) 1.0178(14) 0.5853(6)
O7 O 0.7328(7) 1.1770(12) 0.5701(5)
O8 O 0.6985(8) 0.9881(16) 0.3271(7)
O9 O 0.9733(8) 0.9486(12) 0.7961(6)
O10 O 0.7755(7) 0.9752(12) 0.6796(6)
O11 O 0.7038(8) 1.2530(12) 0.6946(6)
O12 O 0.4844(8) 0.8926(11) 0.3455(6)
O13 O 0.5765(8) 0.8088(15) 0.2301(7)
O14 O 0.5852(8) 1.1221(12) 0.4266(6)
P3 P 0.4983(3) 1.0739(4) 0.3581(2)
H9 H 0.5096 1.1224 0.3116
P4 P 0.6784(3) 0.8255(7) 0.2890(3)
H10 H 0.6795 0.7461 0.33
O15 O 0.4040(8) 1.1563(13) 0.3726(8)
H11 H 0.3984 1.1267 0.4146
O16 O 0.7679(11) 0.783(3) 0.2578(11)
H14 H 0.7905 0.8665 0.2441
P1B P 0.9951(3) 0.9450(4) 0.3904(2)
H1B H 0.9728 0.8789 0.3433
O1B O 1.0739(7) 0.8427(13) 0.4497(6)
O2B O 1.0454(8) 1.0967(11) 0.3696(6)
O6B O 0.9025(8) 0.9822(14) 0.4147(6)
U1B U 1.23254(4) 0.92397(6) 0.54006(3)
U2B U 1.08805(4) 1.21395(6) 0.26533(3)
P2C P 0.7307(3) 0.6553(4) 0.8422(2)
H2C H 0.6619 0.7001 0.8242
O7C O 0.7672(7) 0.6770(12) 0.9299(5)
O10C O 0.7245(7) 0.4752(12) 0.8204(6)
O11C O 0.7962(8) 0.7530(12) 0.8054(6)
O12A O 0.9844(8) 0.6074(11) 0.8455(6)
O14A O 1.0852(8) 0.3779(12) 0.9266(6)
P3A P 0.9983(3) 0.4261(4) 0.8581(2)
H9A H 1.0096 0.3776 0.8116
O15A O 0.9040(8) 0.3437(13) 0.8726(8)
H11A H 0.8984 0.3733 0.9146
O8A O 1.1985(8) 0.5119(16) 0.8271(7)
O13A O 1.0765(8) 0.6912(15) 0.7301(7)
P4A P 1.1784(3) 0.6745(7) 0.7890(3)
H10A H 1.1795 0.7539 0.83
O16A O 1.2679(11) 0.717(3) 0.7578(11)
H14A H 1.2905 0.6335 0.7441
O3B O 1.2459(8) 1.1260(12) 0.5090(6)
O5B O 1.2264(8) 0.7237(13) 0.5766(6)
O4B O 1.1425(8) 1.3789(12) 0.3272(6)
O9B O 1.0267(8) 1.0514(12) 0.2039(6)
U2C U 0.58805(4) 1.28605(6) 0.76533(3)
U2A U 0.41195(4) 0.71395(6) 0.23467(3)
O7B O 1.2672(7) 0.8230(12) 0.4299(5)
O8B O 1.3015(8) 1.0119(16) 0.6729(7)
O14B O 1.4148(8) 0.8779(12) 0.5734(6)
O10B O 1.2245(7) 1.0248(12) 0.3204(6)
O11A O 1.2038(8) 1.2470(12) 0.1946(6)
O12C O 1.0156(8) 1.3926(11) 0.1545(6)
O13C O 0.9235(8) 1.3088(15) 0.2699(7)
U1C U 0.73254(4) 0.57603(6) 1.04006(3)
U2C_2 U 0.58805(4) 0.28605(6) 0.76533(3)
U1A U 1.26746(4) 0.42397(6) 0.95994(3)
N1 N 0.5373(9) 1.3413(14) 0.5361(7)
H3 H 0.5468 1.2831 0.4964
H4 H 0.5553 1.2786 0.5789
C1 C 0.6037(11) 1.497(2) 0.5487(9)
H5 H 0.5995 1.5525 0.5952
H6 H 0.6739 1.4669 0.5558
C2 C 0.4305(10) 1.3882(17) 0.5193(8)
H7 H 0.3889 1.2903 0.5088
H8 H 0.4199 1.4404 0.5647
C2B C 0.5695(10) 1.6118(17) 0.4807(8)
N1B N 0.4627(9) 1.6587(14) 0.4639(7)
H3B H 0.4532 1.7169 0.5036
H4B H 0.4447 1.7214 0.4211
C1B C 0.3963(11) 1.503(2) 0.4513(9)
H5B H 0.4005 1.4475 0.4048
H6B H 0.3261 1.5331 0.4442
H7B H 0.6111 1.7097 0.4912
H8B H 0.5801 1.5596 0.4353
N2 N 0.9979(13) 1.3699(18) 0.4546(9)
H12 H 1.0214 1.3178 0.4192
H13 H 0.9578 1.3002 0.4709
C3 C 0.9435(19) 1.501(2) 0.4217(12)
H15 H 0.8856 1.4663 0.3798
H16 H 0.9848 1.5731 0.4007
C4 C 1.0881(16) 1.421(3) 0.524(3)
H17 H 1.133 1.4919 0.5057
H18 H 1.1262 1.3243 0.5463
C4B C 0.9119(16) 1.579(3) 0.476(3)
N2B N 1.0021(13) 1.6301(18) 0.5454(9)
H12B H 0.9786 1.6822 0.5808
H13B H 1.0422 1.6998 0.5291
C3B C 1.0565(19) 1.499(2) 0.5783(12)
H15B H 1.1144 1.5337 0.6202
H16B H 1.0152 1.4269 0.5993
H17B H 0.867 1.5081 0.4943
H18B H 0.8738 1.6757 0.4537
loop_
_geom_bond_atom_site_label_1
_geom_bond_atom_site_label_2
_geom_bond_site_symmetry_1
_geom_bond_site_symmetry_2
U1 O1 1_555 1_555
U2 O2 1_555 1_555
P1 H1 1_555 1_555
P2 H2 1_555 1_555
O1 P1 1_555 1_555
O2 P1 1_555 1_555
O3 U1 1_555 1_555
O4 U2 1_555 1_555
O5 U1 1_555 1_555
O6 P1 1_555 1_555
O7 U1 1_555 1_555
O8 U1 1_555 1_555
N1 H3 1_555 1_555
H4 N1 1_555 1_555
C1 N1 1_555 1_555
H5 C1 1_555 1_555
H6 C1 1_555 1_555
C2 N1 1_555 1_555
H7 C2 1_555 1_555
H8 C2 1_555 1_555
O9 U2 1_555 1_555
O10 U2 1_555 1_555
O11 P2 1_555 1_555
O12 P3 1_555 1_555
O13 P4 1_555 1_555
O14 U1 1_555 1_555
P3 O14 1_555 1_555
H9 P3 1_555 1_555
P4 O8 1_555 1_555
H10 P4 1_555 1_555
O15 P3 1_555 1_555
H11 O15 1_555 1_555
N2 H12 1_555 1_555
H13 N2 1_555 1_555
O16 P4 1_555 1_555
H14 O16 1_555 1_555
C3 N2 1_555 1_555
H15 C3 1_555 1_555
H16 C3 1_555 1_555
C4 N2 1_555 1_555
H17 C4 1_555 1_555
H18 C4 1_555 1_555
C2B C1 1_555 1_555
N1B C2B 1_555 1_555
H3B N1B 1_555 1_555
H4B N1B 1_555 1_555
C1B C2 1_555 1_555
H5B C1B 1_555 1_555
H6B C1B 1_555 1_555
H7B C2B 1_555 1_555
H8B C2B 1_555 1_555
C4B C3 1_555 1_555
N2B C4B 1_555 1_555
H12B N2B 1_555 1_555
H13B N2B 1_555 1_555
C3B C4 1_555 1_555
H15B C3B 1_555 1_555
H16B C3B 1_555 1_555
H17B C4B 1_555 1_555
H18B C4B 1_555 1_555
P1B H1B 1_555 1_555
O1B P1B 1_555 1_555
O2B P1B 1_555 1_555
O6B U1 1_555 1_555
U1B O6 1_555 1_555
U2B O2B 1_555 1_555
P2C H2C 1_555 1_555
O7C P2C 1_555 1_555
O10C P2C 1_555 1_555
O11C U2 1_555 1_555
O12A U2 1_555 1_555
O14A P3A 1_555 1_555
P3A O12A 1_555 1_555
H9A P3A 1_555 1_555
O15A P3A 1_555 1_555
H11A O15A 1_555 1_555
O8A P4A 1_555 1_555
O13A U2 1_555 1_555
P4A O13A 1_555 1_555
H10A P4A 1_555 1_555
O16A P4A 1_555 1_555
H14A O16A 1_555 1_555
O3B U1B 1_555 1_555
O5B U1B 1_555 1_555
O4B U2B 1_555 1_555
O9B U2B 1_555 1_555
U2C O11 1_555 1_555
U2A O12 1_555 1_555
O7B U1B 1_555 1_555
O8B U1B 1_555 1_555
O14B U1B 1_555 1_555
O10B U2B 1_555 1_555
O11A U2B 1_555 1_555
O12C U2B 1_555 1_555
O13C U2B 1_555 1_555
U1C O7C 1_555 1_555
U2C_2 O10C 1_555 1_555
U1A O14A 1_555 1_555
P2 O7 1_555 1_555
P2 O10 1_555 1_555
O13 U2A 1_555 1_555
N1B C1B 1_555 1_555
N2B C3B 1_555 1_555
P1B O6B 1_555 1_555
O1B U1B 1_555 1_555
P2C O11C 1_555 1_555
O8A U1A 1_555 1_555

#END
