
#######################################################################
#
#                 Cambridge Crystallographic Data Centre
#                                CCDC 
#
#######################################################################
#
# If this CIF has been generated from an entry in the Cambridge 
# Structural Database, then it will include bibliographic, chemical, 
# crystal, experimental, refinement or atomic coordinate data resulting 
# from the CCDC's data processing and validation procedures.
#
#######################################################################

data_ZUZZAX
_chemical_formula_moiety         '(C57 H45 Er4 N3 O20 2+)n'
_symmetry_cell_setting           cubic
_symmetry_space_group_name_H-M   'P a -3'
_symmetry_Int_Tables_number      205
_space_group_name_Hall           '-P 2ac 2ab 3'
loop_
_symmetry_equiv_pos_site_id
_symmetry_equiv_pos_as_xyz
1 x,y,z
2 1/2-x,-y,1/2+z
3 1/2+x,1/2-y,-z
4 -x,1/2+y,1/2-z
5 z,x,y
6 y,z,x
7 1/2-z,-x,1/2+y
8 -y,1/2+z,1/2-x
9 1/2+z,1/2-x,-y
10 1/2-y,-z,1/2+x
11 -z,1/2+x,1/2-y
12 1/2+y,1/2-z,-x
13 -x,-y,-z
14 1/2+x,y,1/2-z
15 1/2-x,1/2+y,z
16 x,1/2-y,1/2+z
17 -z,-x,-y
18 -y,-z,-x
19 1/2+z,x,1/2-y
20 y,1/2-z,1/2+x
21 1/2-z,1/2+x,y
22 1/2+y,z,1/2-x
23 z,1/2-x,1/2+y
24 1/2-y,1/2+z,x
_cell_length_a                   29.881(5)
_cell_length_b                   29.881(5)
_cell_length_c                   29.881(5)
_cell_angle_alpha                90
_cell_angle_beta                 90
_cell_angle_gamma                90
_cell_volume                     26680
loop_
_atom_site_label
_atom_site_type_symbol
_atom_site_fract_x
_atom_site_fract_y
_atom_site_fract_z
Er1 Er 0.24316(2) 0.18123(2) 0.14139(2)
Er2 Er 0.24763(2) 0.24763(2) 0.24763(2)
O1 O 0.31556(11) 0.20182(15) 0.15652(12)
O2 O 0.31787(13) 0.24746(19) 0.21811(19)
O3 O 0.64100(11) 0.25869(11) -0.10580(10)
O4 O 0.69875(10) 0.29889(12) -0.08033(9)
O5 O 0.29453(13) 0.29453(13) 0.29453(13)
H1 H 0.3175 0.2800 0.3029
O6 O 0.24750(7) 0.17303(7) 0.22105(7)
H2 H 0.2737 0.1620 0.2298
O7 O 0.17074(8) 0.17074(8) 0.17074(8)
H3 H 0.15427(17) 0.1543(2) 0.1543(2)
O8 O 0.28615(13) 0.16532(18) 0.07392(12)
H4 H 0.2716 0.1471 0.0576
H5 H 0.2905 0.1895 0.0596
N1 N 0.60501(14) 0.24403(16) 0.18525(12)
C1 C 0.33628(17) 0.2267(2) 0.18531(19)
C2 C 0.38596(16) 0.2300(2) 0.17903(16)
C3 C 0.40616(16) 0.2133(2) 0.14008(16)
H6 H 0.3889 0.1986 0.1188
C4 C 0.41357(18) 0.2497(2) 0.21113(19)
H7 H 0.4007 0.2593 0.2378
C5 C 0.45209(15) 0.2185(2) 0.13311(16)
H8 H 0.4647 0.2078 0.1067
C6 C 0.45908(17) 0.2556(2) 0.20522(19)
H9 H 0.4762 0.2697 0.2270
C7 C 0.47953(15) 0.2394(2) 0.16457(16)
C8 C 0.56083(16) 0.2413(2) 0.19107(16)
H10 H 0.5503 0.2366 0.2200
C9 C 0.52887(15) 0.24481(19) 0.15652(15)
C10 C 0.54512(15) 0.25245(18) 0.11384(16)
H11 H 0.5252 0.2554 0.0901
C11 C 0.59190(14) 0.25587(19) 0.10589(15)
C12 C 0.61960(15) 0.2505(2) 0.14276(16)
H12 H 0.6503 0.2514 0.1380
C13 C 0.61008(16) 0.2608(2) 0.05978(15)
C14 C 0.58807(19) 0.2435(2) 0.02251(18)
H13 H 0.5617 0.2274 0.0265
C15 C 0.65052(17) 0.2831(3) 0.05184(16)
H14 H 0.6665 0.2943 0.0761
C16 C 0.60462(19) 0.2498(2) -0.02040(16)
H15 H 0.5887 0.2388 -0.0448
C17 C 0.66757(17) 0.2891(2) 0.00923(15)
H16 H 0.6944 0.3044 0.0053
C18 C 0.64509(15) 0.2725(2) -0.02744(15)
C19 C 0.66282(16) 0.27707(18) -0.07523(14)
H1D H 0.3029 0.3175 0.2800
Er1D Er 0.14139(2) 0.24316(2) 0.18123(2)
O1D O 0.15652(12) 0.31556(11) 0.20182(15)
O2D O 0.21811(19) 0.31787(13) 0.24746(19)
O3D O -0.10580(10) 0.64100(11) 0.25869(11)
O4D O -0.08033(9) 0.69875(10) 0.29889(12)
O6D O 0.22105(7) 0.24750(7) 0.17303(7)
H2D H 0.2298 0.2737 0.1620
O8D O 0.07392(12) 0.28615(13) 0.16532(18)
H4D H 0.0576 0.2716 0.1471
H5D H 0.0596 0.2905 0.1895
N1D N 0.18525(12) 0.60501(14) 0.24403(16)
C1D C 0.18531(19) 0.33628(17) 0.2267(2)
C2D C 0.17903(16) 0.38596(16) 0.2300(2)
C3D C 0.14008(16) 0.40616(16) 0.2133(2)
H6D H 0.1188 0.3889 0.1986
C4D C 0.21113(19) 0.41357(18) 0.2497(2)
H7D H 0.2378 0.4007 0.2593
C5D C 0.13311(16) 0.45209(15) 0.2185(2)
H8D H 0.1067 0.4647 0.2078
C6D C 0.20522(19) 0.45908(17) 0.2556(2)
H9D H 0.2270 0.4762 0.2697
C7D C 0.16457(16) 0.47953(15) 0.2394(2)
C8D C 0.19107(16) 0.56083(16) 0.2413(2)
H10D H 0.2200 0.5503 0.2366
C9D C 0.15652(15) 0.52887(15) 0.24481(19)
C10D C 0.11384(16) 0.54512(15) 0.25245(18)
H11D H 0.0901 0.5252 0.2554
C11D C 0.10589(15) 0.59190(14) 0.25587(19)
C12D C 0.14276(16) 0.61960(15) 0.2505(2)
H12D H 0.1380 0.6503 0.2514
C13D C 0.05978(15) 0.61008(16) 0.2608(2)
C14D C 0.02251(18) 0.58807(19) 0.2435(2)
H13D H 0.0265 0.5617 0.2274
C15D C 0.05184(16) 0.65052(17) 0.2831(3)
H14D H 0.0761 0.6665 0.2943
C16D C -0.02040(16) 0.60462(19) 0.2498(2)
H15D H -0.0448 0.5887 0.2388
C17D C 0.00923(15) 0.66757(17) 0.2891(2)
H16D H 0.0053 0.6944 0.3044
C18D C -0.02744(15) 0.64509(15) 0.2725(2)
C19D C -0.07523(14) 0.66282(16) 0.27707(18)
Er1E Er 0.18123(2) 0.14139(2) 0.24316(2)
O1E O 0.20182(15) 0.15652(12) 0.31556(11)
O2E O 0.24746(19) 0.21811(19) 0.31787(13)
O3E O 0.25869(11) -0.10580(10) 0.64100(11)
O4E O 0.29889(12) -0.08033(9) 0.69875(10)
O6E O 0.17303(7) 0.22105(7) 0.24750(7)
H2E H 0.1620 0.2298 0.2737
O8E O 0.16532(18) 0.07392(12) 0.28615(13)
H4E H 0.1471 0.0576 0.2716
H5E H 0.1895 0.0596 0.2905
N1E N 0.24403(16) 0.18525(12) 0.60501(14)
C1E C 0.2267(2) 0.18531(19) 0.33628(17)
C2E C 0.2300(2) 0.17903(16) 0.38596(16)
C3E C 0.2133(2) 0.14008(16) 0.40616(16)
H6E H 0.1986 0.1188 0.3889
C4E C 0.2497(2) 0.21113(19) 0.41357(18)
H7E H 0.2593 0.2378 0.4007
C5E C 0.2185(2) 0.13311(16) 0.45209(15)
H8E H 0.2078 0.1067 0.4647
C6E C 0.2556(2) 0.20522(19) 0.45908(17)
H9E H 0.2697 0.2270 0.4762
C7E C 0.2394(2) 0.16457(16) 0.47953(15)
C8E C 0.2413(2) 0.19107(16) 0.56083(16)
H10E H 0.2366 0.2200 0.5503
C9E C 0.24481(19) 0.15652(15) 0.52887(15)
C10E C 0.25245(18) 0.11384(16) 0.54512(15)
H11E H 0.2554 0.0901 0.5252
C11E C 0.25587(19) 0.10589(15) 0.59190(14)
C12E C 0.2505(2) 0.14276(16) 0.61960(15)
H12E H 0.2514 0.1380 0.6503
C13E C 0.2608(2) 0.05978(15) 0.61008(16)
C14E C 0.2435(2) 0.02251(18) 0.58807(19)
H13E H 0.2274 0.0265 0.5617
C15E C 0.2831(3) 0.05184(16) 0.65052(17)
H14E H 0.2943 0.0761 0.6665
C16E C 0.2498(2) -0.02040(16) 0.60462(19)
H15E H 0.2388 -0.0448 0.5887
C17E C 0.2891(2) 0.00923(15) 0.66757(17)
H16E H 0.3044 0.0053 0.6944
C18E C 0.2725(2) -0.02744(15) 0.64509(15)
C19E C 0.27707(18) -0.07523(14) 0.66282(16)
Er1A Er 0.25684(2) -0.18123(2) 0.64139(2)
Er1B Er 0.74316(2) 0.31877(2) -0.14139(2)
Er1G Er -0.18123(2) 0.64139(2) 0.25684(2)
Er1H Er 0.64139(2) 0.25684(2) -0.18123(2)
Er1I Er 0.31877(2) -0.14139(2) 0.74316(2)
Er1J Er -0.14139(2) 0.74316(2) 0.31877(2)
O3B O 0.14100(11) 0.24131(11) 0.10580(10)
O3I O 0.24131(11) 0.10580(10) 0.14100(11)
O3J O 0.10580(10) 0.14100(11) 0.24131(11)
O4B O 0.19875(10) 0.20111(12) 0.08033(9)
O4I O 0.20111(12) 0.08033(9) 0.19875(10)
O4J O 0.08033(9) 0.19875(10) 0.20111(12)
loop_
_geom_bond_atom_site_label_1
_geom_bond_atom_site_label_2
_geom_bond_site_symmetry_1
_geom_bond_site_symmetry_2
Er1 O1 1_555 1_555
Er2 O2 1_555 1_555
O1 C1 1_555 1_555
O2 C1 1_555 1_555
O3 C19 1_555 1_555
O4 C19 1_555 1_555
O5 Er2 1_555 1_555
H1 O5 1_555 1_555
O6 Er1 1_555 1_555
H2 O6 1_555 1_555
O7 Er1 1_555 1_555
H3 O7 1_555 1_555
O8 Er1 1_555 1_555
H4 O8 1_555 1_555
H5 O8 1_555 1_555
N1 C8 1_555 1_555
C1 C2 1_555 1_555
C2 C3 1_555 1_555
C3 H6 1_555 1_555
C4 C2 1_555 1_555
H7 C4 1_555 1_555
C5 C3 1_555 1_555
H8 C5 1_555 1_555
C6 C4 1_555 1_555
H9 C6 1_555 1_555
C7 C5 1_555 1_555
C8 H10 1_555 1_555
C9 C7 1_555 1_555
C10 C9 1_555 1_555
H11 C10 1_555 1_555
C11 C10 1_555 1_555
C12 N1 1_555 1_555
H12 C12 1_555 1_555
C13 C11 1_555 1_555
C14 C13 1_555 1_555
H13 C14 1_555 1_555
C15 C13 1_555 1_555
H14 C15 1_555 1_555
C16 C14 1_555 1_555
H15 C16 1_555 1_555
C17 C15 1_555 1_555
H16 C17 1_555 1_555
C18 C16 1_555 1_555
C19 C18 1_555 1_555
H1D O5 1_555 1_555
Er1D O7 1_555 1_555
O1D Er1D 1_555 1_555
O2D Er2 1_555 1_555
O3D C19D 1_555 1_555
O4D C19D 1_555 1_555
O6D Er1 1_555 1_555
H2D O6D 1_555 1_555
O8D Er1D 1_555 1_555
H4D O8D 1_555 1_555
H5D O8D 1_555 1_555
N1D C8D 1_555 1_555
C1D O1D 1_555 1_555
C2D C1D 1_555 1_555
C3D C2D 1_555 1_555
H6D C3D 1_555 1_555
C4D C2D 1_555 1_555
H7D C4D 1_555 1_555
C5D C3D 1_555 1_555
H8D C5D 1_555 1_555
C6D C4D 1_555 1_555
H9D C6D 1_555 1_555
C7D C5D 1_555 1_555
C8D H10D 1_555 1_555
C9D C7D 1_555 1_555
C10D C9D 1_555 1_555
H11D C10D 1_555 1_555
C11D C10D 1_555 1_555
C12D N1D 1_555 1_555
H12D C12D 1_555 1_555
C13D C11D 1_555 1_555
C14D C13D 1_555 1_555
H13D C14D 1_555 1_555
C15D C13D 1_555 1_555
H14D C15D 1_555 1_555
C16D C14D 1_555 1_555
H15D C16D 1_555 1_555
C17D C15D 1_555 1_555
H16D C17D 1_555 1_555
C18D C16D 1_555 1_555
C19D C18D 1_555 1_555
Er1E O6 1_555 1_555
O1E Er1E 1_555 1_555
O2E Er2 1_555 1_555
O3E C19E 1_555 1_555
O4E C19E 1_555 1_555
O6E Er2 1_555 1_555
H2E O6E 1_555 1_555
O8E Er1E 1_555 1_555
H4E O8E 1_555 1_555
H5E O8E 1_555 1_555
N1E C8E 1_555 1_555
C1E O1E 1_555 1_555
C2E C1E 1_555 1_555
C3E C2E 1_555 1_555
H6E C3E 1_555 1_555
C4E C2E 1_555 1_555
H7E C4E 1_555 1_555
C5E C3E 1_555 1_555
H8E C5E 1_555 1_555
C6E C4E 1_555 1_555
H9E C6E 1_555 1_555
C7E C5E 1_555 1_555
C8E H10E 1_555 1_555
C9E C7E 1_555 1_555
C10E C9E 1_555 1_555
H11E C10E 1_555 1_555
C11E C10E 1_555 1_555
C12E N1E 1_555 1_555
H12E C12E 1_555 1_555
C13E C11E 1_555 1_555
C14E C13E 1_555 1_555
H13E C14E 1_555 1_555
C15E C13E 1_555 1_555
H14E C15E 1_555 1_555
C16E C14E 1_555 1_555
H15E C16E 1_555 1_555
C17E C15E 1_555 1_555
H16E C17E 1_555 1_555
C18E C16E 1_555 1_555
C19E C18E 1_555 1_555
Er1A O3E 1_555 1_555
Er1B O4 1_555 1_555
Er1G O3D 1_555 1_555
Er1H O3 1_555 1_555
Er1I O4E 1_555 1_555
Er1J O4D 1_555 1_555
O3B Er1D 1_555 1_555
O3I Er1 1_555 1_555
O3J Er1E 1_555 1_555
O4B Er1 1_555 1_555
O4I Er1E 1_555 1_555
O4J Er1D 1_555 1_555
Er2 O6 1_555 1_555
Er2 O6D 1_555 1_555
O7 Er1E 1_555 1_555
C6 C7 1_555 1_555
C8 C9 1_555 1_555
C11 C12 1_555 1_555
C17 C18 1_555 1_555
Er1D O6D 1_555 1_555
Er1D O6E 1_555 1_555
O2D C1D 1_555 1_555
C6D C7D 1_555 1_555
C8D C9D 1_555 1_555
C11D C12D 1_555 1_555
C17D C18D 1_555 1_555
Er1E O6E 1_555 1_555
O2E C1E 1_555 1_555
C6E C7E 1_555 1_555
C8E C9E 1_555 1_555
C11E C12E 1_555 1_555
C17E C18E 1_555 1_555

#END
