
#######################################################################
#
#                 Cambridge Crystallographic Data Centre
#                                CCDC 
#
#######################################################################
#
# If this CIF has been generated from an entry in the Cambridge 
# Structural Database, then it will include bibliographic, chemical, 
# crystal, experimental, refinement or atomic coordinate data resulting 
# from the CCDC's data processing and validation procedures.
#
#######################################################################

data_RIBTAZ
_chemical_formula_moiety         '(C31 H26 Cu4 N8 O17)n'
_symmetry_cell_setting           monoclinic
_symmetry_space_group_name_H-M   'P 21/c'
_symmetry_Int_Tables_number      14
_space_group_name_Hall           '-P 2ybc'
loop_
_symmetry_equiv_pos_site_id
_symmetry_equiv_pos_as_xyz
1 x,y,z
2 -x,1/2+y,1/2-z
3 -x,-y,-z
4 x,1/2-y,1/2+z
_cell_length_a                   16.000(4)
_cell_length_b                   21.411(5)
_cell_length_c                   19.198(5)
_cell_angle_alpha                90
_cell_angle_beta                 99.861(3)
_cell_angle_gamma                90
_cell_volume                     6479.61
loop_
_atom_site_label
_atom_site_type_symbol
_atom_site_fract_x
_atom_site_fract_y
_atom_site_fract_z
Cu1 Cu 0.36123(2) 0.649047(16) 1.02191(2)
Cu2 Cu 0.48953(2) 0.772055(16) 1.09584(2)
Cu3 Cu 0.31256(2) 0.738431(17) 1.12940(2)
Cu4 Cu 0.18732(2) 0.625899(17) 1.08536(2)
N1 N 0.77032(15) 0.78105(11) 0.95393(15)
N2 N 0.83685(15) 0.85885(11) 0.89240(14)
N3 N 0.89667(15) 0.75648(11) 0.90915(14)
N4 N 0.82995(15) 0.68169(11) 0.96181(14)
H1 H 0.8774 0.6624 0.9632
N5 N 0.95831(15) 0.83524(12) 0.85202(14)
H2 H 0.9516 0.8713 0.8322
C1 C 1.03381(18) 0.80257(14) 0.84530(17)
C2 C 0.77312(18) 0.58080(13) 0.97697(16)
H3 H 0.8227 0.5641 0.9656
C3 C 0.83092(19) 0.74217(14) 0.94130(17)
C4 C 0.89551(18) 0.81553(14) 0.88639(17)
C5 C 0.69400(18) 0.66933(14) 1.00414(16)
H4 H 0.6900 0.7121 1.0117
C6 C 0.70881(17) 0.54093(13) 0.98935(16)
C7 C 0.76479(18) 0.64494(13) 0.98123(17)
C8 C 0.77808(19) 0.83878(14) 0.92859(18)
C9 C 0.63466(18) 0.56561(13) 1.00683(16)
H5 H 0.5898 0.5395 1.0123
C10 C 1.06906(18) 0.81441(14) 0.78453(17)
H6 H 1.0423 0.8414 0.7498
N6 N 0.71614(16) 0.87886(11) 0.94116(15)
H7 H 0.6805 0.8629 0.9650
C11 C 0.7002(2) 0.94154(14) 0.92218(19)
C12 C 1.07552(18) 0.76451(14) 0.89768(17)
H8 H 1.0522 0.7571 0.9381
C13 C 0.7509(2) 0.97893(16) 0.8881(2)
H9 H 0.7988 0.9623 0.8736
C14 C 0.71711(19) 0.47140(14) 0.98025(17)
O1 O 0.65604(12) 0.43862(9) 0.99323(12)
O2 O 0.78355(12) 0.45185(9) 0.96108(12)
C15 C 0.7306(2) 1.04080(15) 0.8758(2)
H10 H 0.7666 1.0659 0.8547
C16 C 0.65781(19) 1.06680(14) 0.89396(17)
C17 C 0.6062(2) 1.02842(16) 0.9256(2)
H11 H 0.5561 1.0443 0.9369
C18 C 0.6369(2) 1.13446(14) 0.88372(17)
C19 C 0.6274(2) 0.96700(16) 0.9407(2)
H12 H 0.5926 0.9424 0.9636
O3 O 0.69340(14) 1.17115(9) 0.87033(12)
O4 O 0.56255(13) 1.14938(9) 0.88946(13)
C20 C 1.14527(19) 0.78493(14) 0.77698(16)
C21 C 1.15264(18) 0.73686(14) 0.89060(16)
C22 C 1.2017(2) 0.70107(14) 0.95174(17)
C23 C 1.18591(19) 0.74632(14) 0.82978(17)
H13 H 1.2361 0.7265 0.8243
C24 C 1.1829(2) 0.79637(15) 0.71106(17)
O5 O 1.26918(13) 0.67466(10) 0.94135(11)
O6 O 1.17571(14) 0.70250(11) 1.00979(12)
O7 O 1.24247(13) 0.76069(10) 0.70211(11)
O8 O 1.15213(13) 0.83915(11) 0.67137(12)
O9 O 0.30446(11) 0.64851(9) 1.11492(10)
O10 O 0.38065(11) 0.73687(8) 1.05049(10)
O11 O 0.45097(13) 0.72782(11) 1.19686(12)
O12 O 0.48227(13) 0.62905(10) 1.02038(14)
O13 O 0.56043(13) 0.70766(10) 1.06996(13)
C25 C 0.62833(17) 0.62937(13) 1.01592(16)
C26 C 0.54969(19) 0.65742(14) 1.03664(17)
N7 N 0.5465(2) 0.72759(18) 1.29845(19)
C27 C 0.4732(2) 0.73836(18) 1.2608(2)
C28 C 0.6174(3) 0.7018(3) 1.2681(3)
H14 H 0.5981 0.6915 1.2193
H15 H 0.6383 0.6649 1.2936
H16 H 0.6619 0.7323 1.2715
C29 C 0.4170(3) 0.7652(3) 1.3087(3)
H17 H 0.3930 0.8048 1.2905
H18 H 0.3711 0.7367 1.3132
C30 C 0.4738(4) 0.7739(3) 1.3779(3)
H19 H 0.4498 0.7540 1.4154
H20 H 0.4812 0.8180 1.3888
C31 C 0.5581(3) 0.7442(3) 1.3712(3)
H21 H 0.6044 0.7735 1.3832
H22 H 0.5691 0.7076 1.4012
O14 O 0.59710(14) 0.81198(10) 1.14481(13)
O15 O 0.06810(13) 0.60252(11) 1.05774(13)
O16 O 0.59104(17) 0.84021(12) 1.03544(15)
N8 N 0.6285(2) 0.84280(14) 1.0976(2)
O17 O 0.69380(19) 0.87313(15) 1.11567(19)
Cu1_2 Cu 1.36123(2) 0.649047(16) 1.02191(2)
Cu1B Cu 0.63877(2) 0.350953(16) 0.97809(2)
Cu2B Cu 0.51047(2) 1.227945(16) 0.90416(2)
Cu3B Cu 0.68744(2) 1.261569(17) 0.87060(2)
Cu3C Cu 1.31256(2) 0.761569(17) 0.62940(2)
Cu4_2 Cu 1.18732(2) 0.625899(17) 1.08536(2)
Cu4B Cu 0.81268(2) 0.374101(17) 0.91464(2)
Cu4C Cu 1.18732(2) 0.874101(17) 0.58536(2)
O1B O 0.34396(12) 0.56138(9) 1.00677(12)
O2B O 0.21645(12) 0.54815(9) 1.03892(12)
O3B O 0.30660(14) 0.82885(9) 1.12967(12)
O4B O 0.43745(13) 0.85062(9) 1.11054(13)
O5_2 O 0.26918(13) 0.67466(10) 0.94135(11)
O6_2 O 0.17571(14) 0.70250(11) 1.00979(12)
O7C O 0.24247(13) 0.73931(10) 1.20211(11)
O8C O 0.15213(13) 0.66085(11) 1.17137(12)
loop_
_geom_bond_atom_site_label_1
_geom_bond_atom_site_label_2
_geom_bond_site_symmetry_1
_geom_bond_site_symmetry_2
Cu1 O9 1_555 1_555
Cu2 O10 1_555 1_555
Cu3 O9 1_555 1_555
Cu4 O9 1_555 1_555
N1 C3 1_555 1_555
N2 C4 1_555 1_555
N3 C3 1_555 1_555
N4 H1 1_555 1_555
N5 H2 1_555 1_555
C1 N5 1_555 1_555
C2 H3 1_555 1_555
C3 N4 1_555 1_555
C4 N3 1_555 1_555
C5 H4 1_555 1_555
C6 C2 1_555 1_555
C7 N4 1_555 1_555
C8 N1 1_555 1_555
C9 C6 1_555 1_555
H5 C9 1_555 1_555
C10 C1 1_555 1_555
H6 C10 1_555 1_555
N6 C8 1_555 1_555
H7 N6 1_555 1_555
C11 N6 1_555 1_555
C12 C1 1_555 1_555
H8 C12 1_555 1_555
C13 C11 1_555 1_555
H9 C13 1_555 1_555
C14 C6 1_555 1_555
O1 C14 1_555 1_555
O2 C14 1_555 1_555
C15 C13 1_555 1_555
H10 C15 1_555 1_555
C16 C15 1_555 1_555
C17 C16 1_555 1_555
H11 C17 1_555 1_555
C18 C16 1_555 1_555
C19 C11 1_555 1_555
H12 C19 1_555 1_555
O3 C18 1_555 1_555
O4 C18 1_555 1_555
C20 C10 1_555 1_555
C21 C12 1_555 1_555
C22 C21 1_555 1_555
C23 C20 1_555 1_555
H13 C23 1_555 1_555
C24 C20 1_555 1_555
O5 C22 1_555 1_555
O6 C22 1_555 1_555
O7 C24 1_555 1_555
O8 C24 1_555 1_555
O10 Cu1 1_555 1_555
O11 Cu2 1_555 1_555
O12 Cu1 1_555 1_555
O13 Cu2 1_555 1_555
C25 C5 1_555 1_555
C26 O12 1_555 1_555
N7 C27 1_555 1_555
C27 O11 1_555 1_555
C28 N7 1_555 1_555
H14 C28 1_555 1_555
H15 C28 1_555 1_555
H16 C28 1_555 1_555
C29 C27 1_555 1_555
H17 C29 1_555 1_555
H18 C29 1_555 1_555
C30 C29 1_555 1_555
H19 C30 1_555 1_555
H20 C30 1_555 1_555
C31 N7 1_555 1_555
H21 C31 1_555 1_555
H22 C31 1_555 1_555
O14 Cu2 1_555 1_555
O15 Cu4 1_555 1_555
O16 N8 1_555 1_555
N8 O14 1_555 1_555
O17 N8 1_555 1_555
Cu1_2 O5 1_555 1_555
Cu1B O1 1_555 1_555
Cu2B O4 1_555 1_555
Cu3B O3 1_555 1_555
Cu3C O7 1_555 1_555
Cu4_2 O6 1_555 1_555
Cu4B O2 1_555 1_555
Cu4C O8 1_555 1_555
O1B Cu1 1_555 1_555
O2B Cu4 1_555 1_555
O3B Cu3 1_555 1_555
O4B Cu2 1_555 1_555
O5_2 Cu1 1_555 1_555
O6_2 Cu4 1_555 1_555
O7C Cu3 1_555 1_555
O8C Cu4 1_555 1_555
Cu3 O10 1_555 1_555
Cu3 O11 1_555 1_555
N2 C8 1_555 1_555
N5 C4 1_555 1_555
C2 C7 1_555 1_555
C5 C7 1_555 1_555
C9 C25 1_555 1_555
C17 C19 1_555 1_555
C21 C23 1_555 1_555
O13 C26 1_555 1_555
C25 C26 1_555 1_555
C30 C31 1_555 1_555

#END
