
#######################################################################
#
#                 Cambridge Crystallographic Data Centre
#                                CCDC 
#
#######################################################################
#
# If this CIF has been generated from an entry in the Cambridge 
# Structural Database, then it will include bibliographic, chemical, 
# crystal, experimental, refinement or atomic coordinate data resulting 
# from the CCDC's data processing and validation procedures.
#
#######################################################################

data_RIBTED
_chemical_formula_moiety         '(C26 H15 Mn2 N6 O11 1-)n'
_symmetry_cell_setting           monoclinic
_symmetry_space_group_name_H-M   'C 2'
_symmetry_Int_Tables_number      5
_space_group_name_Hall           'C 2y'
loop_
_symmetry_equiv_pos_site_id
_symmetry_equiv_pos_as_xyz
1 x,y,z
2 -x,y,-z
3 1/2+x,1/2+y,z
4 1/2-x,1/2+y,-z
_cell_length_a                   18.871(13)
_cell_length_b                   18.123(13)
_cell_length_c                   14.501(10)
_cell_angle_alpha                90
_cell_angle_beta                 95.280(9)
_cell_angle_gamma                90
_cell_volume                     4938.29
loop_
_atom_site_label
_atom_site_type_symbol
_atom_site_fract_x
_atom_site_fract_y
_atom_site_fract_z
Mn1 Mn 0.15830(4) 0.28116(4) 0.39246(4)
Mn2 Mn 0.29445(4) 0.21883(5) 0.57412(4)
O1 O -0.03488(19) 0.2878(3) 0.6215(2)
O2 O -0.0943(2) 0.3031(4) 0.7339(2)
O3 O 0.25216(15) 0.2874(3) 1.3219(2)
O4 O 0.3203(2) 0.2722(4) 1.4522(3)
O5 O 0.5751(2) 0.1828(3) 1.4151(3)
O6 O 0.6256(2) 0.2579(3) 1.3289(3)
O7 O 0.3421(2) 0.66786(19) 0.5977(2)
O8 O 0.2530(3) 0.6346(3) 0.4957(4)
O9 O 0.17640(18) 0.3823(2) 0.4683(2)
O10 O 0.2137(2) 0.2997(2) 0.5711(3)
O11 O 0.277(3) 0.132(4) 0.6796(19)
N1 N 0.2916(2) 0.3832(3) 0.8769(3)
N2 N 0.32064(19) 0.3374(3) 1.0316(2)
N3 N 0.40987(19) 0.3947(2) 0.9485(2)
N4 N 0.2096(2) 0.3257(4) 0.9631(3)
H1 H 0.2020 0.3088 1.0168
N5 N 0.43908(19) 0.3509(3) 1.0932(2)
H2 H 0.4807 0.3669 1.0836
N6 N 0.3789(2) 0.4428(2) 0.8055(2)
H3 H 0.4224 0.4573 0.8090
C1 C 0.2758(2) 0.3486(4) 0.9545(3)
C2 C 0.3866(2) 0.3628(3) 1.0222(3)
C3 C 0.3571(2) 0.4056(3) 0.8793(3)
C4 C 0.1494(3) 0.3252(5) 0.8954(3)
C5 C 0.1561(3) 0.3178(6) 0.7985(4)
H4 H 0.2006 0.3187 0.7759
C6 C 0.0940(3) 0.3091(5) 0.7378(4)
H5 H 0.0979 0.3016 0.6750
C7 C 0.0276(3) 0.3116(5) 0.7701(3)
C8 C 0.0243(3) 0.3062(7) 0.8641(4)
H6 H -0.0192 0.3001 0.8884
C9 C 0.0874(3) 0.3101(6) 0.9230(3)
H7 H 0.0848 0.3012 0.9857
C10 C -0.0381(4) 0.3031(5) 0.7079(3)
C11 C 0.4341(2) 0.3162(3) 1.1795(3)
C12 C 0.3735(2) 0.3101(3) 1.2262(3)
H8 H 0.3303 0.3275 1.1984
C13 C 0.3759(2) 0.2785(4) 1.3138(3)
C14 C 0.4393(2) 0.2511(3) 1.3542(3)
H9 H 0.4409 0.2286 1.4119
C15 C 0.5013(2) 0.2569(3) 1.3089(3)
C16 C 0.4985(2) 0.2930(3) 1.2222(3)
H10 H 0.5401 0.3011 1.1940
C17 C 0.3116(3) 0.2769(5) 1.3643(3)
C18 C 0.5727(3) 0.2314(4) 1.3540(3)
C19 C 0.3349(2) 0.4594(3) 0.7227(3)
C20 C 0.3374(2) 0.5311(3) 0.6871(3)
H11 H 0.3651 0.5674 0.7181
C21 C 0.2969(3) 0.5464(3) 0.6034(4)
C22 C 0.2536(3) 0.4916(3) 0.5588(3)
H12 H 0.2251 0.5031 0.5049
C23 C 0.2531(2) 0.4236(3) 0.5926(3)
C24 C 0.2937(2) 0.4058(3) 0.6774(3)
H13 H 0.2923 0.3584 0.7018
C25 C 0.2987(3) 0.6235(3) 0.5616(4)
C26 C 0.2107(3) 0.3656(4) 0.5409(3)
Mn1_2 Mn 0.15830(4) 0.28116(4) 1.39246(4)
Mn1A Mn -0.15830(4) 0.28116(4) 0.60754(4)
Mn1C Mn 0.34170(4) 0.78116(4) 0.60754(4)
Mn2_2 Mn 0.29445(4) 0.21883(5) 1.57412(4)
Mn2A Mn 0.70555(4) 0.21883(5) 1.42588(4)
Mn2C Mn 0.20555(4) 0.71883(5) 0.42588(4)
O1A O 0.03488(19) 0.2878(3) 0.3785(2)
O2A O 0.0943(2) 0.3031(4) 0.2661(2)
O3_2 O 0.25216(15) 0.2874(3) 0.3219(2)
O4_2 O 0.3203(2) 0.2722(4) 0.4522(3)
O6A O 0.3744(2) 0.2579(3) 0.6711(3)
O7C O 0.1579(2) 0.16786(19) 0.4023(2)
O8C O 0.2470(3) 0.1346(3) 0.5043(4)
loop_
_geom_bond_atom_site_label_1
_geom_bond_atom_site_label_2
_geom_bond_site_symmetry_1
_geom_bond_site_symmetry_2
Mn1 O9 1_555 1_555
Mn2 O10 1_555 1_555
O1 C10 1_555 1_555
O2 C10 1_555 1_555
O3 C17 1_555 1_555
O4 C17 1_555 1_555
O5 C18 1_555 1_555
O6 C18 1_555 1_555
O7 C25 1_555 1_555
O8 C25 1_555 1_555
O9 C26 1_555 1_555
O10 C26 1_555 1_555
O11 Mn2 1_555 1_555
N1 C1 1_555 1_555
N2 C1 1_555 1_555
N3 C2 1_555 1_555
N4 H1 1_555 1_555
N5 H2 1_555 1_555
N6 H3 1_555 1_555
C1 N4 1_555 1_555
C2 N2 1_555 1_555
C3 N1 1_555 1_555
C4 N4 1_555 1_555
C5 C4 1_555 1_555
H4 C5 1_555 1_555
C6 C5 1_555 1_555
H5 C6 1_555 1_555
C7 C6 1_555 1_555
C8 C7 1_555 1_555
H6 C8 1_555 1_555
C9 C4 1_555 1_555
H7 C9 1_555 1_555
C10 C7 1_555 1_555
C11 N5 1_555 1_555
C12 C11 1_555 1_555
H8 C12 1_555 1_555
C13 C12 1_555 1_555
C14 C13 1_555 1_555
H9 C14 1_555 1_555
C15 C14 1_555 1_555
C16 C11 1_555 1_555
H10 C16 1_555 1_555
C17 C13 1_555 1_555
C18 C15 1_555 1_555
C19 N6 1_555 1_555
C20 C19 1_555 1_555
H11 C20 1_555 1_555
C21 C20 1_555 1_555
C22 C21 1_555 1_555
H12 C22 1_555 1_555
C23 C22 1_555 1_555
C24 C19 1_555 1_555
H13 C24 1_555 1_555
C25 C21 1_555 1_555
C26 C23 1_555 1_555
Mn1_2 O3 1_555 1_555
Mn1A O1 1_555 1_555
Mn1C O7 1_555 1_555
Mn2_2 O4 1_555 1_555
Mn2A O6 1_555 1_555
Mn2C O8 1_555 1_555
O1A Mn1 1_555 1_555
O2A Mn1 1_555 1_555
O3_2 Mn1 1_555 1_555
O4_2 Mn2 1_555 1_555
O6A Mn2 1_555 1_555
O7C Mn1 1_555 1_555
O8C Mn2 1_555 1_555
O2 Mn1A 1_555 1_555
N3 C3 1_555 1_555
N5 C2 1_555 1_555
N6 C3 1_555 1_555
C8 C9 1_555 1_555
C15 C16 1_555 1_555
C23 C24 1_555 1_555

#END
