
#######################################################################
#
#                 Cambridge Crystallographic Data Centre
#                                CCDC 
#
#######################################################################
#
# If this CIF has been generated from an entry in the Cambridge 
# Structural Database, then it will include bibliographic, chemical, 
# crystal, experimental, refinement or atomic coordinate data resulting 
# from the CCDC's data processing and validation procedures.
#
#######################################################################

data_ZUJVAD
_chemical_formula_moiety         '(C56 H28 O16 Zn3 2-)n'
_symmetry_cell_setting           triclinic
_symmetry_space_group_name_H-M   'P -1'
_symmetry_Int_Tables_number      2
_space_group_name_Hall           '-P 1'
loop_
_symmetry_equiv_pos_site_id
_symmetry_equiv_pos_as_xyz
1 x,y,z
2 -x,-y,-z
_cell_length_a                   9.598(3)
_cell_length_b                   10.184(3)
_cell_length_c                   18.288(5)
_cell_angle_alpha                102.759(4)
_cell_angle_beta                 96.644(4)
_cell_angle_gamma                96.740(4)
_cell_volume                     1712.78
loop_
_atom_site_label
_atom_site_type_symbol
_atom_site_fract_x
_atom_site_fract_y
_atom_site_fract_z
C1 C 0.2302(6) -0.2212(5) -0.0851(3)
C2 C -0.2729(5) -0.1692(5) -0.0489(3)
C3 C -0.0805(6) -0.1340(5) 0.0592(3)
H1 H -0.1514 -0.1146 0.0905
C4 C -0.1177(6) -0.1691(5) -0.0192(3)
C5 C -0.0182(5) -0.1980(4) -0.0653(3)
H2 H -0.0449 -0.2238 -0.1187
C6 C 0.1231(5) -0.1899(5) -0.0341(3)
C7 C 0.1610(5) -0.1554(4) 0.0444(3)
H3 H 0.2570 -0.1510 0.0656
C8 C 0.0586(5) -0.1270(5) 0.0922(3)
C9 C 0.0987(6) -0.0890(6) 0.1766(3)
C10 C 0.1721(7) -0.0130(6) 0.3351(3)
C11 C 0.2147(7) 0.0285(6) 0.4191(3)
C12 C 0.3008(8) 0.1095(6) 0.5776(3)
C13 C 0.3484(7) 0.1535(5) 0.6611(3)
C14 C 0.0055(13) -0.1305(11) 0.2251(6)
H4 H -0.0830 -0.1855 0.2038
C15 C 0.0428(13) -0.0916(13) 0.3029(6)
H5 H -0.0209 -0.1190 0.3346
C16 C 0.2598(12) 0.0343(11) 0.2877(6)
H6 H 0.3463 0.0930 0.3089
C17 C 0.2212(11) -0.0037(11) 0.2109(6)
H7 H 0.2820 0.0306 0.1798
C18 C 0.1716(16) 0.1399(16) 0.4637(7)
H8 H 0.1126 0.1928 0.4408
C19 C 0.2122(19) 0.1746(15) 0.5396(8)
H9 H 0.1764 0.2496 0.5683
C20 C 0.3449(18) -0.0040(15) 0.5331(7)
H10 H 0.4044 -0.0552 0.5570
C21 C 0.3043(19) -0.0445(16) 0.4544(7)
H11 H 0.3374 -0.1210 0.4254
C22 C 0.3694(7) 0.2908(6) 0.6977(3)
H12 H 0.3550 0.3567 0.6691
C23 C 0.4109(6) 0.3322(5) 0.7752(3)
C24 C 0.4342(6) 0.2385(5) 0.8174(3)
H13 H 0.4609 0.2672 0.8708
C25 C 0.4184(6) 0.1015(5) 0.7813(3)
C26 C 0.3726(6) 0.0595(5) 0.7035(3)
H14 H 0.3578 -0.0348 0.6794
C27 C 0.4334(7) 0.4839(5) 0.8136(3)
C28 C 0.4534(5) -0.0023(5) 0.8260(3)
O1 O 0.1915(4) -0.2801(5) -0.1523(2)
O2 O 0.3635(4) -0.1899(3) -0.05813(19)
O3 O -0.3192(4) -0.2322(4) -0.1157(2)
O4 O -0.3391(4) -0.1039(4) -0.0026(2)
O5 O 0.4302(5) 0.5667(4) 0.7726(2)
O6 O 0.4560(6) 0.5204(4) 0.8838(2)
O7 O 0.4327(4) -0.1248(3) 0.79174(19)
O8 O 0.5083(4) 0.0440(3) 0.89413(18)
Zn1 Zn 0.5000 0.0000 0.0000
Zn2 Zn 0.46795(7) -0.25882(6) -0.14611(3)
C1A C -0.2302(6) 0.2212(5) 0.0851(3)
C2A C 0.2729(5) 0.1692(5) 0.0489(3)
C3A C 0.0805(6) 0.1340(5) -0.0592(3)
H1A H 0.1514 0.1146 -0.0905
C4A C 0.1177(6) 0.1691(5) 0.0192(3)
C5A C 0.0182(5) 0.1980(4) 0.0653(3)
H2A H 0.0449 0.2238 0.1187
C6A C -0.1231(5) 0.1899(5) 0.0341(3)
C7A C -0.1610(5) 0.1554(4) -0.0444(3)
H3A H -0.2570 0.1510 -0.0656
C8A C -0.0586(5) 0.1270(5) -0.0922(3)
C9A C -0.0987(6) 0.0890(6) -0.1766(3)
C10A C -0.1721(7) 0.0130(6) -0.3351(3)
C11A C -0.2147(7) -0.0285(6) -0.4191(3)
C12A C -0.3008(8) -0.1095(6) -0.5776(3)
C13A C -0.3484(7) -0.1535(5) -0.6611(3)
C14A C -0.0055(13) 0.1305(11) -0.2251(6)
H4A H 0.0830 0.1855 -0.2038
C15A C -0.0428(13) 0.0916(13) -0.3029(6)
H5A H 0.0209 0.1190 -0.3346
C16A C -0.2598(12) -0.0343(11) -0.2877(6)
H6A H -0.3463 -0.0930 -0.3089
C17A C -0.2212(11) 0.0037(11) -0.2109(6)
H7A H -0.2820 -0.0306 -0.1798
C18A C -0.1716(16) -0.1399(16) -0.4637(7)
H8A H -0.1126 -0.1928 -0.4408
C19A C -0.2122(19) -0.1746(15) -0.5396(8)
H9A H -0.1764 -0.2496 -0.5683
C20A C -0.3449(18) 0.0040(15) -0.5331(7)
H10A H -0.4044 0.0552 -0.5570
C21A C -0.3043(19) 0.0445(16) -0.4544(7)
H11A H -0.3374 0.1210 -0.4254
C22A C -0.3694(7) -0.2908(6) -0.6977(3)
H12A H -0.3550 -0.3567 -0.6691
C23A C -0.4109(6) -0.3322(5) -0.7752(3)
C24A C -0.4342(6) -0.2385(5) -0.8174(3)
H13A H -0.4609 -0.2672 -0.8708
C25A C -0.4184(6) -0.1015(5) -0.7813(3)
C26A C -0.3726(6) -0.0595(5) -0.7035(3)
H14A H -0.3578 0.0348 -0.6794
C27A C -0.4334(7) -0.4839(5) -0.8136(3)
C28A C -0.4534(5) 0.0023(5) -0.8260(3)
O1A O -0.1915(4) 0.2801(5) 0.1523(2)
O2A O -0.3635(4) 0.1899(3) 0.05813(19)
O3A O 0.3192(4) 0.2322(4) 0.1157(2)
O4A O 0.3391(4) 0.1039(4) 0.0026(2)
O5A O -0.4302(5) -0.5667(4) -0.7726(2)
O6A O -0.4560(6) -0.5204(4) -0.8838(2)
O7A O -0.4327(4) 0.1248(3) -0.79174(19)
O8A O -0.5083(4) -0.0440(3) -0.89413(18)
Zn2A Zn -0.46795(7) 0.25882(6) 0.14611(3)
O2A_2 O 0.6365(4) 0.1899(3) 0.05813(19)
O3_2 O 0.6808(4) -0.2322(4) -0.1157(2)
O3A_2 O -0.6808(4) 0.2322(4) 0.1157(2)
O4_2 O 0.6609(4) -0.1039(4) -0.0026(2)
O5_2 O 0.4302(5) -0.4333(4) -0.2274(2)
O5A_2 O -0.4302(5) 0.4333(4) 0.2274(2)
O6_2 O 0.4560(6) -0.4796(4) -0.1162(2)
O6A_2 O -0.4560(6) 0.4796(4) 0.1162(2)
O7_2 O 0.4327(4) -0.1248(3) -0.20826(19)
O7A_2 O -0.4327(4) 0.1248(3) 0.20826(19)
O8_2 O 0.5083(4) 0.0440(3) -0.10587(18)
O8A_2 O 0.4917(4) -0.0440(3) 0.10587(18)
Zn1_2 Zn -0.5000 0.0000 -1.0000
Zn1_3 Zn -0.5000 0.0000 0.0000
Zn1_4 Zn 0.5000 -0.0000 1.0000
Zn2_2 Zn -0.53205(7) -0.25882(6) -0.14611(3)
Zn2_3 Zn 0.46795(7) -0.25882(6) 0.85389(3)
Zn2_4 Zn 0.46795(7) 0.74118(6) 0.85389(3)
Zn2A_2 Zn -0.46795(7) -0.74118(6) -0.85389(3)
Zn2A_3 Zn -0.46795(7) 0.25882(6) -0.85389(3)
Zn2A_4 Zn 0.53205(7) 0.25882(6) 0.14611(3)
loop_
_geom_bond_atom_site_label_1
_geom_bond_atom_site_label_2
_geom_bond_site_symmetry_1
_geom_bond_site_symmetry_2
C1 C6 1_555 1_555
C2 C4 1_555 1_555
C3 H1 1_555 1_555
C4 C3 1_555 1_555
C5 C4 1_555 1_555
H2 C5 1_555 1_555
C6 C5 1_555 1_555
C7 C6 1_555 1_555
H3 C7 1_555 1_555
C8 C3 1_555 1_555
C9 C8 1_555 1_555
C10 C11 1_555 1_555
C11 C18 1_555 1_555
C12 C13 1_555 1_555
C13 C22 1_555 1_555
C14 C9 1_555 1_555
H4 C14 1_555 1_555
C15 C10 1_555 1_555
H5 C15 1_555 1_555
C16 C10 1_555 1_555
H6 C16 1_555 1_555
C17 C9 1_555 1_555
H7 C17 1_555 1_555
C18 H8 1_555 1_555
C19 C12 1_555 1_555
H9 C19 1_555 1_555
C20 C12 1_555 1_555
H10 C20 1_555 1_555
C21 C11 1_555 1_555
H11 C21 1_555 1_555
C22 H12 1_555 1_555
C23 C22 1_555 1_555
C24 C23 1_555 1_555
H13 C24 1_555 1_555
C25 C24 1_555 1_555
C26 C13 1_555 1_555
H14 C26 1_555 1_555
C27 C23 1_555 1_555
C28 C25 1_555 1_555
O1 C1 1_555 1_555
O2 C1 1_555 1_555
O3 C2 1_555 1_555
O4 C2 1_555 1_555
O5 C27 1_555 1_555
O6 C27 1_555 1_555
O7 C28 1_555 1_555
O8 C28 1_555 1_555
Zn1 O2 1_555 1_555
Zn2 O2 1_555 1_555
C1A C6A 1_555 1_555
C2A C4A 1_555 1_555
C3A H1A 1_555 1_555
C4A C3A 1_555 1_555
C5A C4A 1_555 1_555
H2A C5A 1_555 1_555
C6A C5A 1_555 1_555
C7A C6A 1_555 1_555
H3A C7A 1_555 1_555
C8A C3A 1_555 1_555
C9A C8A 1_555 1_555
C10A C11A 1_555 1_555
C11A C18A 1_555 1_555
C12A C13A 1_555 1_555
C13A C22A 1_555 1_555
C14A C9A 1_555 1_555
H4A C14A 1_555 1_555
C15A C10A 1_555 1_555
H5A C15A 1_555 1_555
C16A C10A 1_555 1_555
H6A C16A 1_555 1_555
C17A C9A 1_555 1_555
H7A C17A 1_555 1_555
C18A H8A 1_555 1_555
C19A C12A 1_555 1_555
H9A C19A 1_555 1_555
C20A C12A 1_555 1_555
H10A C20A 1_555 1_555
C21A C11A 1_555 1_555
H11A C21A 1_555 1_555
C22A H12A 1_555 1_555
C23A C22A 1_555 1_555
C24A C23A 1_555 1_555
H13A C24A 1_555 1_555
C25A C24A 1_555 1_555
C26A C13A 1_555 1_555
H14A C26A 1_555 1_555
C27A C23A 1_555 1_555
C28A C25A 1_555 1_555
O1A C1A 1_555 1_555
O2A C1A 1_555 1_555
O3A C2A 1_555 1_555
O4A Zn1 1_555 1_555
O5A C27A 1_555 1_555
O6A C27A 1_555 1_555
O7A C28A 1_555 1_555
O8A C28A 1_555 1_555
Zn2A O2A 1_555 1_555
O2A_2 Zn1 1_555 1_555
O3_2 Zn2 1_555 1_555
O3A_2 Zn2A 1_555 1_555
O4_2 Zn1 1_555 1_555
O5_2 Zn2 1_555 1_555
O5A_2 Zn2A 1_555 1_555
O6_2 Zn2 1_555 1_555
O6A_2 Zn2A 1_555 1_555
O7_2 Zn2 1_555 1_555
O7A_2 Zn2A 1_555 1_555
O8_2 Zn1 1_555 1_555
O8A_2 Zn1 1_555 1_555
Zn1_2 O8A 1_555 1_555
Zn1_3 O4 1_555 1_555
Zn1_4 O8 1_555 1_555
Zn2_2 O3 1_555 1_555
Zn2_3 O7 1_555 1_555
Zn2_4 O5 1_555 1_555
Zn2A_2 O5A 1_555 1_555
Zn2A_3 O7A 1_555 1_555
Zn2A_4 O3A 1_555 1_555
C7 C8 1_555 1_555
C14 C15 1_555 1_555
C16 C17 1_555 1_555
C18 C19 1_555 1_555
C20 C21 1_555 1_555
C25 C26 1_555 1_555
O6 Zn2_4 1_555 1_555
C2A O4A 1_555 1_555
C7A C8A 1_555 1_555
C14A C15A 1_555 1_555
C16A C17A 1_555 1_555
C18A C19A 1_555 1_555
C20A C21A 1_555 1_555
C25A C26A 1_555 1_555
O2A Zn1_3 1_555 1_555
O6A Zn2A_2 1_555 1_555
O2A_2 Zn2A_4 1_555 1_555

#END
