
#######################################################################
#
#                 Cambridge Crystallographic Data Centre
#                                CCDC 
#
#######################################################################
#
# If this CIF has been generated from an entry in the Cambridge 
# Structural Database, then it will include bibliographic, chemical, 
# crystal, experimental, refinement or atomic coordinate data resulting 
# from the CCDC's data processing and validation procedures.
#
#######################################################################

data_DAMDUT
_chemical_formula_moiety         '(C56 H39 I6 N13 O1 Zn3)n'
_symmetry_cell_setting           orthorhombic
_symmetry_space_group_name_H-M   'P b c a'
_symmetry_Int_Tables_number      61
_space_group_name_Hall           '-P 2ac 2ab'
loop_
_symmetry_equiv_pos_site_id
_symmetry_equiv_pos_as_xyz
1 x,y,z
2 1/2-x,-y,1/2+z
3 1/2+x,1/2-y,-z
4 -x,1/2+y,1/2-z
5 -x,-y,-z
6 1/2+x,y,1/2-z
7 1/2-x,1/2+y,z
8 x,1/2-y,1/2+z
_cell_length_a                   28.0724(2)
_cell_length_b                   14.00074(9)
_cell_length_c                   44.7159(3)
_cell_angle_alpha                90
_cell_angle_beta                 90
_cell_angle_gamma                90
_cell_volume                     17574.9
loop_
_atom_site_label
_atom_site_type_symbol
_atom_site_fract_x
_atom_site_fract_y
_atom_site_fract_z
_atom_site_U_iso_or_equiv
_atom_site_thermal_displace_type
O1 O 0.1182(5) 0.7430(11) 0.6981(3) 0.2500 Uiso
N13 N 0.1223(3) 0.8105(10) 0.6483(3) 0.2500 Uiso
C37 C 0.3343(4) 0.7695(5) 0.6890(2) 0.1483 Uani
C38 C 0.3628(3) 0.7499(6) 0.7137(3) 0.1733 Uani
H25 H 0.3964 0.7555 0.7122 0.2080 Uiso
C39 C 0.3420(4) 0.7221(6) 0.7405(2) 0.1857 Uani
H26 H 0.3614 0.7087 0.7574 0.2230 Uiso
C40 C 0.2927(5) 0.7139(5) 0.74265(17) 0.1567 Uani
H27 H 0.2785 0.6949 0.7610 0.1880 Uiso
C41 C 0.2643(3) 0.7335(5) 0.7180(2) 0.1387 Uani
H28 H 0.2307 0.7279 0.7194 0.1670 Uiso
C42 C 0.2851(4) 0.7613(5) 0.69112(17) 0.1143 Uani
C43 C 0.3578(4) 0.7964(5) 0.65969(19) 0.1433 Uani
C44 C 0.4070(4) 0.8011(6) 0.6565(3) 0.1677 Uani
H29 H 0.4270 0.7913 0.6734 0.2010 Uiso
C45 C 0.4269(3) 0.8202(6) 0.6287(3) 0.1667 Uani
H30 H 0.4605 0.8234 0.6266 0.2000 Uiso
C46 C 0.3976(5) 0.8345(6) 0.6040(2) 0.1877 Uani
H31 H 0.4113 0.8475 0.5850 0.2250 Uiso
C47 C 0.3484(4) 0.8298(5) 0.6072(2) 0.1637 Uani
H32 H 0.3284 0.8396 0.5903 0.1960 Uiso
C48 C 0.3285(3) 0.8107(5) 0.6350(3) 0.1293 Uani
C49 C 0.2092(4) 0.7790(5) 0.6716(2) 0.1517 Uani
H33 H 0.1984 0.7608 0.6909 0.1820 Uiso
C50 C 0.2577(3) 0.7831(5) 0.6656(2) 0.1190 Uani
C51 C 0.2735(3) 0.8097(5) 0.6373(3) 0.1323 Uani
C52 C 0.2407(4) 0.8323(5) 0.61509(19) 0.1723 Uani
H34 H 0.2515 0.8504 0.5958 0.2070 Uiso
C53 C 0.1922(4) 0.8282(5) 0.6211(2) 0.1730 Uani
H35 H 0.1698 0.8436 0.6060 0.2080 Uiso
C54 C 0.1764(3) 0.8016(6) 0.6494(3) 0.1723 Uani
C55 C 0.1006(3) 0.7748(14) 0.6776(3) 0.2500 Uiso
C56 C 0.0456(3) 0.7839(17) 0.6731(4) 0.2500 Uiso
I1 I 0.19848(2) 0.66410(4) 0.81559(2) 0.0834 Uani
I2 I 0.32596(2) 0.82782(6) 0.83457(2) 0.1051 Uani
I3 I 0.42567(3) 0.30643(5) 0.37482(2) 0.1092 Uani
I4 I 0.49551(2) 0.30448(4) 0.46362(2) 0.0870 Uani
I5 I 0.44196(3) 1.31918(4) 0.58343(2) 0.1134 Uani
I6 I 0.51462(2) 1.05536(5) 0.61641(2) 0.0915 Uani
Zn1 Zn 0.23815(3) 0.82645(6) 0.82081(2) 0.0595 Uani
Zn2 Zn 0.47724(3) 0.38529(6) 0.41372(2) 0.0628 Uani
Zn3 Zn 0.45002(3) 1.13820(7) 0.58689(2) 0.0640 Uani
N1 N 0.2291(2) 0.8997(4) 0.78160(11) 0.0560 Uani
N2 N 0.3859(2) 1.0949(4) 0.60540(11) 0.0597 Uani
N3 N 0.0414(2) 1.0849(4) 0.60711(12) 0.0593 Uani
N4 N 0.25743(19) 1.0243(3) 0.67933(10) 0.0517 Uani
N5 N 0.1740(2) 1.0196(3) 0.68089(11) 0.0557 Uani
N6 N 0.21355(19) 1.0624(3) 0.63608(11) 0.0547 Uani
N7 N 0.44581(19) 1.0805(4) 0.54458(11) 0.0593 Uani
N8 N 0.4490(2) 0.5180(4) 0.42261(12) 0.0597 Uani
N9 N 0.3004(2) 1.0939(4) 0.35082(11) 0.0600 Uani
N10 N 0.4218(2) 0.8472(4) 0.46103(11) 0.0620 Uani
N11 N 0.3783(2) 0.8468(4) 0.41542(12) 0.0620 Uani
N12 N 0.3867(2) 0.9904(4) 0.44279(11) 0.0593 Uani
C1 C 0.1871(3) 0.8978(6) 0.76721(15) 0.0683 Uani
H1 H 0.1606 0.8693 0.7769 0.0820 Uiso
C2 C 0.1810(3) 0.9354(5) 0.73903(15) 0.0673 Uani
H2 H 0.1506 0.9344 0.7297 0.0810 Uiso
C3 C 0.2201(2) 0.9748(4) 0.72458(13) 0.0537 Uani
C4 C 0.2624(2) 0.9778(5) 0.73905(14) 0.0607 Uani
H3 H 0.2894 1.0052 0.7296 0.0730 Uiso
C5 C 0.2662(2) 0.9407(4) 0.76785(14) 0.0583 Uani
H4 H 0.2959 0.9444 0.7780 0.0700 Uiso
C6 C 0.2158(2) 1.0097(4) 0.69293(13) 0.0543 Uani
C7 C 0.1743(2) 1.0465(4) 0.65206(13) 0.0530 Uani
C8 C 0.2543(2) 1.0491(4) 0.65055(13) 0.0510 Uani
C9 C 0.1281(2) 1.0585(4) 0.63677(14) 0.0557 Uani
C10 C 0.0855(3) 1.0483(5) 0.65141(16) 0.0683 Uani
H5 H 0.0848 1.0319 0.6720 0.0820 Uiso
C11 C 0.0435(3) 1.0622(6) 0.63592(16) 0.0693 Uani
H6 H 0.0144 1.0551 0.6465 0.0830 Uiso
C12 C 0.0832(2) 1.0928(5) 0.59278(16) 0.0657 Uani
H7 H 0.0827 1.1075 0.5720 0.0790 Uiso
C13 C 0.1263(3) 1.0811(5) 0.60628(14) 0.0640 Uani
H8 H 0.1549 1.0881 0.5951 0.0770 Uiso
C14 C 0.2997(2) 1.0640(4) 0.63445(12) 0.0520 Uani
C15 C 0.3006(3) 1.0943(5) 0.60500(15) 0.0660 Uani
H9 H 0.2719 1.1051 0.5943 0.0790 Uiso
C16 C 0.3448(3) 1.1088(6) 0.59134(15) 0.0703 Uani
H10 H 0.3454 1.1296 0.5711 0.0840 Uiso
C17 C 0.3843(3) 1.0641(5) 0.63388(15) 0.0670 Uani
H11 H 0.4135 1.0530 0.6441 0.0810 Uiso
C18 C 0.3430(3) 1.0483(5) 0.64874(14) 0.0620 Uani
H12 H 0.3436 1.0266 0.6689 0.0740 Uiso
C19 C 0.4281(3) 1.1291(5) 0.52159(15) 0.0730 Uani
H13 H 0.4226 1.1956 0.5239 0.0880 Uiso
C20 C 0.4176(3) 1.0872(5) 0.49459(15) 0.0703 Uani
H14 H 0.4054 1.1242 0.4785 0.0840 Uiso
C21 C 0.4250(2) 0.9902(5) 0.49124(14) 0.0583 Uani
C22 C 0.4448(3) 0.9407(5) 0.51468(14) 0.0637 Uani
H15 H 0.4519 0.8747 0.5127 0.0760 Uiso
C23 C 0.4545(3) 0.9876(5) 0.54122(14) 0.0647 Uani
H16 H 0.4677 0.9527 0.5575 0.0770 Uiso
C24 C 0.4104(2) 0.9396(4) 0.46339(13) 0.0563 Uani
C25 C 0.3718(2) 0.9392(5) 0.41972(13) 0.0583 Uani
C26 C 0.4052(2) 0.8043(4) 0.43686(13) 0.0567 Uani
C27 C 0.4540(3) 0.5602(5) 0.44913(15) 0.0670 Uani
H17 H 0.4686 0.5250 0.4648 0.0800 Uiso
C28 C 0.4392(3) 0.6517(5) 0.45508(15) 0.0663 Uani
H18 H 0.4429 0.6783 0.4745 0.0800 Uiso
C29 C 0.4188(2) 0.7043(5) 0.43222(14) 0.0587 Uani
C30 C 0.4118(3) 0.6591(5) 0.40510(15) 0.0660 Uani
H19 H 0.3963 0.6919 0.3892 0.0790 Uiso
C31 C 0.4269(3) 0.5676(5) 0.40115(16) 0.0677 Uani
H20 H 0.4216 0.5378 0.3824 0.0810 Uiso
C32 C 0.3467(2) 0.9933(5) 0.39526(14) 0.0597 Uani
C33 C 0.3462(3) 1.0900(5) 0.39558(18) 0.0840 Uani
H21 H 0.3615 1.1242 0.4112 0.1010 Uiso
C34 C 0.3231(3) 1.1385(5) 0.37270(16) 0.0780 Uani
H22 H 0.3235 1.2064 0.3728 0.0940 Uiso
C35 C 0.3016(3) 1.0009(5) 0.35050(16) 0.0757 Uani
H23 H 0.2855 0.9683 0.3348 0.0910 Uiso
C36 C 0.3252(3) 0.9472(5) 0.37194(17) 0.0770 Uani
H24 H 0.3265 0.8795 0.3704 0.0920 Uiso
Zn1A Zn 0.26185(3) 1.17355(6) 0.32081(2) 0.0595 Uani
Zn2B Zn -0.02276(3) 1.11471(6) 0.58628(2) 0.0628 Uani
N3B N 0.5414(2) 0.4151(4) 0.39289(12) 0.0593 Uani
N9A N 0.1996(2) 0.9061(4) 0.85082(11) 0.0600 Uani
loop_
_atom_site_aniso_label
_atom_site_aniso_U_11
_atom_site_aniso_U_22
_atom_site_aniso_U_33
_atom_site_aniso_U_23
_atom_site_aniso_U_13
_atom_site_aniso_U_12
C37 0.222(11) 0.060(5) 0.163(9) -0.015(6) 0.016(9) 0.007(7)
C38 0.259(13) 0.094(8) 0.167(11) -0.004(8) 0.009(11) 0.025(9)
C39 0.299(15) 0.096(8) 0.162(11) -0.015(8) 0.012(12) 0.005(11)
C40 0.275(14) 0.056(5) 0.139(9) -0.033(6) 0.060(10) -0.008(8)
C41 0.238(12) 0.054(5) 0.124(8) -0.033(5) 0.029(8) -0.002(7)
C42 0.173(9) 0.050(4) 0.120(7) -0.025(5) 0.045(7) -0.009(5)
C43 0.184(10) 0.065(5) 0.181(10) -0.003(6) 0.058(9) 0.008(7)
C44 0.189(11) 0.073(6) 0.241(13) -0.007(8) 0.053(11) 0.004(8)
C45 0.186(12) 0.067(6) 0.247(14) -0.016(8) 0.089(11) -0.006(7)
C46 0.254(15) 0.083(7) 0.226(13) 0.008(9) 0.097(12) -0.014(10)
C47 0.249(13) 0.072(6) 0.170(10) -0.002(6) 0.091(10) -0.011(8)
C48 0.202(10) 0.045(4) 0.141(8) -0.007(5) 0.049(8) 0.002(6)
C49 0.159(10) 0.085(7) 0.211(12) -0.075(8) -0.003(9) 0.002(7)
C50 0.156(8) 0.052(4) 0.149(8) -0.040(5) 0.030(7) 0.000(5)
C51 0.200(10) 0.046(4) 0.151(9) -0.022(5) 0.004(8) 0.020(6)
C52 0.252(13) 0.059(6) 0.206(12) -0.033(7) -0.005(12) 0.000(9)
C53 0.181(12) 0.077(7) 0.261(14) -0.072(9) -0.016(12) 0.008(8)
C54 0.192(12) 0.098(8) 0.227(14) -0.074(10) -0.001(11) 0.006(8)
I1 0.1086(4) 0.0568(3) 0.0849(3) -0.0086(2) 0.0214(3) 0.0005(2)
I2 0.0827(4) 0.1423(6) 0.0904(4) 0.0409(4) -0.0173(3) -0.0036(3)
I3 0.1053(5) 0.0929(4) 0.1295(5) -0.0230(4) -0.0254(4) -0.0230(3)
I4 0.0965(4) 0.0733(3) 0.0912(4) 0.0367(3) 0.0068(3) 0.0106(3)
I5 0.1065(5) 0.0655(3) 0.1682(7) -0.0210(4) 0.0146(4) -0.0183(3)
I6 0.0694(3) 0.1320(5) 0.0732(3) 0.0096(3) -0.0042(2) 0.0003(3)
Zn1 0.0730(5) 0.0598(5) 0.0456(4) -0.0008(3) 0.0083(4) 0.0063(4)
Zn2 0.0679(5) 0.0492(5) 0.0714(5) 0.0057(4) 0.0004(4) 0.0009(4)
Zn3 0.0681(5) 0.0671(5) 0.0567(5) -0.0076(4) 0.0012(4) -0.0078(4)
N1 0.073(3) 0.052(3) 0.043(2) -0.003(2) 0.009(2) 0.005(2)
N2 0.073(3) 0.056(3) 0.050(3) -0.004(2) 0.003(2) -0.002(2)
N3 0.070(3) 0.047(3) 0.061(3) 0.003(2) -0.002(2) -0.001(2)
N4 0.069(3) 0.038(2) 0.048(2) -0.0006(19) 0.002(2) -0.002(2)
N5 0.076(3) 0.044(3) 0.047(3) -0.004(2) 0.002(2) 0.000(2)
N6 0.072(3) 0.047(3) 0.045(2) -0.004(2) 0.001(2) -0.006(2)
N7 0.068(3) 0.059(3) 0.051(3) 0.003(2) 0.007(2) -0.003(2)
N8 0.068(3) 0.051(3) 0.060(3) 0.005(2) -0.003(2) 0.003(2)
N9 0.076(3) 0.055(3) 0.049(3) 0.007(2) -0.005(2) 0.006(2)
N10 0.077(4) 0.059(3) 0.050(3) 0.007(2) -0.004(2) 0.008(3)
N11 0.070(3) 0.064(3) 0.052(3) 0.005(2) -0.005(2) 0.009(3)
N12 0.070(3) 0.055(3) 0.053(3) 0.006(2) -0.002(2) 0.007(2)
C1 0.064(4) 0.090(5) 0.051(3) 0.009(3) 0.009(3) 0.001(3)
C2 0.066(4) 0.083(5) 0.053(3) -0.002(3) -0.002(3) 0.008(3)
C3 0.075(4) 0.040(3) 0.046(3) -0.005(2) 0.008(3) 0.004(3)
C4 0.075(4) 0.054(3) 0.053(3) 0.005(3) 0.005(3) -0.006(3)
C5 0.071(4) 0.053(3) 0.051(3) -0.001(3) -0.005(3) -0.003(3)
C6 0.078(4) 0.037(3) 0.048(3) -0.007(2) 0.000(3) -0.001(3)
C7 0.063(3) 0.040(3) 0.056(3) -0.006(2) -0.002(3) -0.004(2)
C8 0.068(4) 0.037(3) 0.048(3) -0.007(2) 0.003(3) -0.001(2)
C9 0.068(4) 0.045(3) 0.054(3) -0.005(2) 0.000(3) -0.005(3)
C10 0.080(5) 0.065(4) 0.060(4) 0.003(3) 0.003(3) -0.007(3)
C11 0.069(4) 0.082(5) 0.057(4) 0.004(3) 0.003(3) -0.008(4)
C12 0.067(4) 0.072(4) 0.058(4) 0.009(3) 0.001(3) 0.000(3)
C13 0.070(4) 0.071(4) 0.051(3) 0.005(3) 0.006(3) 0.001(3)
C14 0.069(4) 0.043(3) 0.044(3) -0.003(2) -0.001(3) -0.001(3)
C15 0.069(4) 0.072(4) 0.057(4) 0.006(3) -0.004(3) -0.009(3)
C16 0.079(5) 0.079(5) 0.053(4) 0.007(3) -0.005(3) -0.015(4)
C17 0.072(4) 0.075(4) 0.054(3) -0.007(3) -0.002(3) 0.011(3)
C18 0.076(4) 0.063(4) 0.047(3) 0.004(3) 0.004(3) 0.002(3)
C19 0.109(6) 0.050(4) 0.060(4) 0.007(3) -0.002(4) 0.000(4)
C20 0.101(5) 0.058(4) 0.052(3) 0.007(3) -0.002(3) -0.005(4)
C21 0.065(4) 0.062(4) 0.048(3) 0.002(3) -0.002(3) 0.001(3)
C22 0.086(4) 0.054(4) 0.051(3) -0.003(3) -0.005(3) 0.009(3)
C23 0.075(4) 0.065(4) 0.054(3) 0.001(3) -0.008(3) 0.007(3)
C24 0.069(4) 0.054(3) 0.046(3) 0.002(2) 0.004(3) 0.006(3)
C25 0.066(4) 0.061(4) 0.048(3) 0.005(3) -0.004(3) 0.005(3)
C26 0.067(4) 0.057(3) 0.046(3) 0.006(3) 0.000(3) 0.006(3)
C27 0.092(5) 0.054(4) 0.055(3) 0.008(3) -0.007(3) 0.012(3)
C28 0.094(5) 0.057(4) 0.048(3) 0.003(3) -0.008(3) 0.011(3)
C29 0.068(4) 0.055(3) 0.053(3) 0.004(3) -0.002(3) 0.009(3)
C30 0.075(4) 0.068(4) 0.055(3) 0.002(3) -0.016(3) 0.014(3)
C31 0.081(4) 0.062(4) 0.060(4) 0.004(3) -0.012(3) 0.009(3)
C32 0.070(4) 0.058(4) 0.051(3) 0.002(3) -0.004(3) 0.004(3)
C33 0.122(7) 0.055(4) 0.075(5) 0.010(3) -0.038(5) -0.006(4)
C34 0.121(6) 0.049(4) 0.064(4) 0.005(3) -0.038(4) -0.006(4)
C35 0.115(6) 0.050(4) 0.062(4) -0.001(3) -0.026(4) -0.002(4)
C36 0.113(6) 0.050(4) 0.068(4) 0.000(3) -0.022(4) 0.010(4)
Zn1A 0.073 0.0598 0.0456 0.0008 -0.0083 0.0063
Zn2B 0.0679 0.0492 0.0714 0.0057 -0.0004 -0.0009
N3B 0.07 0.047 0.061 0.003 0.002 0.001
N9A 0.076 0.055 0.049 -0.007 0.005 0.006
loop_
_geom_bond_atom_site_label_1
_geom_bond_atom_site_label_2
_geom_bond_site_symmetry_1
_geom_bond_site_symmetry_2
I1 Zn1 1_555 1_555
I2 Zn1 1_555 1_555
I3 Zn2 1_555 1_555
I4 Zn2 1_555 1_555
I5 Zn3 1_555 1_555
I6 Zn3 1_555 1_555
Zn1 N1 1_555 1_555
Zn2 N8 1_555 1_555
Zn3 N2 1_555 1_555
N1 C1 1_555 1_555
N2 C16 1_555 1_555
N3 C11 1_555 1_555
N4 C6 1_555 1_555
N5 C6 1_555 1_555
N6 C7 1_555 1_555
N7 Zn3 1_555 1_555
N8 C27 1_555 1_555
N9 C34 1_555 1_555
N10 C24 1_555 1_555
N11 C25 1_555 1_555
N12 C24 1_555 1_555
C1 H1 1_555 1_555
C2 C1 1_555 1_555
H2 C2 1_555 1_555
C3 C2 1_555 1_555
C4 C3 1_555 1_555
H3 C4 1_555 1_555
C5 N1 1_555 1_555
H4 C5 1_555 1_555
C6 C3 1_555 1_555
C7 N5 1_555 1_555
C8 N4 1_555 1_555
C9 C7 1_555 1_555
C10 C9 1_555 1_555
H5 C10 1_555 1_555
C11 C10 1_555 1_555
H6 C11 1_555 1_555
C12 N3 1_555 1_555
H7 C12 1_555 1_555
C13 C9 1_555 1_555
H8 C13 1_555 1_555
C14 C8 1_555 1_555
C15 C14 1_555 1_555
H9 C15 1_555 1_555
C16 C15 1_555 1_555
H10 C16 1_555 1_555
C17 N2 1_555 1_555
H11 C17 1_555 1_555
C18 C14 1_555 1_555
H12 C18 1_555 1_555
C19 N7 1_555 1_555
H13 C19 1_555 1_555
C20 C19 1_555 1_555
H14 C20 1_555 1_555
C21 C20 1_555 1_555
C22 C21 1_555 1_555
H15 C22 1_555 1_555
C23 N7 1_555 1_555
H16 C23 1_555 1_555
C24 C21 1_555 1_555
C25 N12 1_555 1_555
C26 N10 1_555 1_555
C27 H17 1_555 1_555
C28 C27 1_555 1_555
H18 C28 1_555 1_555
C29 C26 1_555 1_555
C30 C29 1_555 1_555
H19 C30 1_555 1_555
C31 N8 1_555 1_555
H20 C31 1_555 1_555
C32 C25 1_555 1_555
C33 C32 1_555 1_555
H21 C33 1_555 1_555
C34 C33 1_555 1_555
H22 C34 1_555 1_555
C35 N9 1_555 1_555
H23 C35 1_555 1_555
C36 C32 1_555 1_555
H24 C36 1_555 1_555
O1 C55 1_555 1_555
N13 C54 1_555 1_555
C37 C38 1_555 1_555
C38 H25 1_555 1_555
C39 C38 1_555 1_555
H26 C39 1_555 1_555
C40 C39 1_555 1_555
H27 C40 1_555 1_555
C41 C40 1_555 1_555
H28 C41 1_555 1_555
C42 C37 1_555 1_555
C43 C37 1_555 1_555
C44 C43 1_555 1_555
H29 C44 1_555 1_555
C45 C44 1_555 1_555
H30 C45 1_555 1_555
C46 C45 1_555 1_555
H31 C46 1_555 1_555
C47 C46 1_555 1_555
H32 C47 1_555 1_555
C48 C43 1_555 1_555
C49 H33 1_555 1_555
C50 C42 1_555 1_555
C51 C48 1_555 1_555
C52 C51 1_555 1_555
H34 C52 1_555 1_555
C53 C52 1_555 1_555
H35 C53 1_555 1_555
C54 C49 1_555 1_555
C55 N13 1_555 1_555
C56 C55 1_555 1_555
Zn1A N9 1_555 1_555
Zn2B N3 1_555 1_555
N3B Zn2 1_555 1_555
N9A Zn1 1_555 1_555
N6 C8 1_555 1_555
N11 C26 1_555 1_555
C4 C5 1_555 1_555
C12 C13 1_555 1_555
C17 C18 1_555 1_555
C22 C23 1_555 1_555
C28 C29 1_555 1_555
C30 C31 1_555 1_555
C35 C36 1_555 1_555
C41 C42 1_555 1_555
C47 C48 1_555 1_555
C49 C50 1_555 1_555
C50 C51 1_555 1_555
C53 C54 1_555 1_555

#END
