
#######################################################################
#
#                 Cambridge Crystallographic Data Centre
#                                CCDC 
#
#######################################################################
#
# If this CIF has been generated from an entry in the Cambridge 
# Structural Database, then it will include bibliographic, chemical, 
# crystal, experimental, refinement or atomic coordinate data resulting 
# from the CCDC's data processing and validation procedures.
#
#######################################################################

data_DAMFAB
_chemical_formula_moiety         'C28 H8 N7 O12 Zn7'
_symmetry_cell_setting           monoclinic
_symmetry_space_group_name_H-M   'C 2/m'
_symmetry_Int_Tables_number      12
_space_group_name_Hall           '-C 2y'
loop_
_symmetry_equiv_pos_site_id
_symmetry_equiv_pos_as_xyz
1 x,y,z
2 -x,y,-z
3 1/2+x,1/2+y,z
4 1/2-x,1/2+y,-z
5 -x,-y,-z
6 x,-y,z
7 1/2-x,1/2-y,-z
8 1/2+x,1/2-y,z
_cell_length_a                   13.9532(6)
_cell_length_b                   16.6496(5)
_cell_length_c                   9.5586(3)
_cell_angle_alpha                90
_cell_angle_beta                 100.526(3)
_cell_angle_gamma                90
_cell_volume                     2183.24
loop_
_atom_site_label
_atom_site_type_symbol
_atom_site_fract_x
_atom_site_fract_y
_atom_site_fract_z
Zn1 Zn 0.52108(6) 0.5000 0.65711(8)
O1 O 0.4188(3) 0.4144(3) 0.5894(4)
O2 O 0.3769(3) 0.4141(3) 0.3520(4)
N1 N 0.5073(4) 0.5000 0.8673(6)
N2 N 0.2326(11) 0.3190(10) 0.2312(19)
H1 H 0.2717 0.3588 0.2297
C1 C 0.3717(4) 0.3880(3) 0.4746(6)
C2 C 0.3075(4) 0.3163(4) 0.4854(6)
C3 C 0.2415(6) 0.2872(5) 0.3679(7)
C4 C 0.3144(6) 0.2784(5) 0.6138(7)
H2 H 0.3585 0.2978 0.6913
C5 C 0.4560(13) 0.4279(9) 0.9019(16)
C6 C 0.5469(14) 0.4248(10) 0.9363(15)
C7 C 0.4033(15) 0.5000 0.879(2)
C8 C 0.6087(16) 0.5000 0.962(2)
O1F O 0.0812(3) 0.0856(3) 0.4106(4)
O2F O 0.1231(3) 0.0859(3) 0.6480(4)
N2F N 0.2674(11) 0.1810(10) 0.7688(19)
H1F H 0.2283 0.1412 0.7703
C1F C 0.1283(4) 0.1120(3) 0.5254(6)
C2F C 0.1925(4) 0.1837(4) 0.5146(6)
C3F C 0.2585(6) 0.2128(5) 0.6321(7)
C4F C 0.1856(6) 0.2216(5) 0.3862(7)
H2F H 0.1415 0.2022 0.3087
N1A N 0.4927(4) 0.5000 1.1327(6)
C5A C 0.5440(13) 0.4279(9) 1.0981(16)
C6A C 0.4531(14) 0.4248(10) 1.0637(15)
C7A C 0.5967(15) 0.5000 1.121(2)
C8A C 0.3913(16) 0.5000 1.038(2)
C5D C 0.5440(13) 0.5721(9) 1.0981(16)
C6D C 0.4531(14) 0.5752(10) 1.0637(15)
C5E C 0.4560(13) 0.5721(9) 0.9019(16)
C6E C 0.5469(14) 0.5752(10) 0.9363(15)
Zn1A Zn 0.47892(6) 0.5000 0.34289(8)
O1A O 0.5812(3) 0.4144(3) 0.4106(4)
O2A O 0.6231(3) 0.4141(3) 0.6480(4)
N2A N 0.7674(11) 0.3190(10) 0.7688(19)
H1A H 0.7283 0.3588 0.7703
C1A C 0.6283(4) 0.3880(3) 0.5254(6)
C2A C 0.6925(4) 0.3163(4) 0.5146(6)
C3A C 0.7585(6) 0.2872(5) 0.6321(7)
C4A C 0.6856(6) 0.2784(5) 0.3862(7)
H2A H 0.6415 0.2978 0.3087
O1G O 0.9188(3) 0.0856(3) 0.5894(4)
O2G O 0.8769(3) 0.0859(3) 0.3520(4)
N2G N 0.7326(11) 0.1810(10) 0.2312(19)
H1G H 0.7717 0.1412 0.2297
C1G C 0.8717(4) 0.1120(3) 0.4746(6)
C2G C 0.8075(4) 0.1837(4) 0.4854(6)
C3G C 0.7415(6) 0.2128(5) 0.3679(7)
C4G C 0.8144(6) 0.2216(5) 0.6138(7)
H2G H 0.8585 0.2022 0.6913
Zn1A_2 Zn 0.47892(6) 0.5000 1.34289(8)
Zn1B Zn 0.02108(6) -0.0000 0.65711(8)
Zn1B_2 Zn 1.02108(6) -0.0000 0.65711(8)
Zn1C Zn -0.02108(6) -0.0000 0.34289(8)
Zn1C_2 Zn 0.97892(6) -0.0000 0.34289(8)
O1D O 0.5812(3) 0.5856(3) 0.4106(4)
O1E O 0.4188(3) 0.5856(3) 0.5894(4)
O2D O 0.6231(3) 0.5859(3) 0.6480(4)
O2E O 0.3769(3) 0.5859(3) 0.3520(4)
N1A_2 N 0.4927(4) 0.5000 0.1327(6)
loop_
_geom_bond_atom_site_label_1
_geom_bond_atom_site_label_2
_geom_bond_site_symmetry_1
_geom_bond_site_symmetry_2
Zn1 O1 1_555 1_555
O1 C1 1_555 1_555
O2 C1 1_555 1_555
N1 Zn1 1_555 1_555
N2 H1 1_555 1_555
C1 C2 1_555 1_555
C2 C3 1_555 1_555
C3 N2 1_555 1_555
C4 C2 1_555 1_555
H2 C4 1_555 1_555
C5 N1 1_555 1_555
C6 N1 1_555 1_555
C7 N1 1_555 1_555
C8 N1 1_555 1_555
O1F C1F 1_555 1_555
O2F C1F 1_555 1_555
N2F H1F 1_555 1_555
C1F C2F 1_555 1_555
C2F C3F 1_555 1_555
C3F C4 1_555 1_555
C4F C3 1_555 1_555
H2F C4F 1_555 1_555
N1A C5A 1_555 1_555
C5A C6 1_555 1_555
C6A C5 1_555 1_555
C7A C8 1_555 1_555
C8A C7 1_555 1_555
C5D N1A 1_555 1_555
C6D N1A 1_555 1_555
C5E N1 1_555 1_555
C6E N1 1_555 1_555
Zn1A O2 1_555 1_555
O1A Zn1A 1_555 1_555
O2A Zn1 1_555 1_555
N2A H1A 1_555 1_555
C1A O1A 1_555 1_555
C2A C1A 1_555 1_555
C3A N2A 1_555 1_555
C4A C2A 1_555 1_555
H2A C4A 1_555 1_555
O1G C1G 1_555 1_555
O2G C1G 1_555 1_555
N2G H1G 1_555 1_555
C1G C2G 1_555 1_555
C2G C3G 1_555 1_555
C3G C4A 1_555 1_555
C4G C3A 1_555 1_555
H2G C4G 1_555 1_555
Zn1A_2 N1A 1_555 1_555
Zn1B O2F 1_555 1_555
Zn1B_2 O1G 1_555 1_555
Zn1C O1F 1_555 1_555
Zn1C_2 O2G 1_555 1_555
O1D Zn1A 1_555 1_555
O1E Zn1 1_555 1_555
O2D Zn1 1_555 1_555
O2E Zn1A 1_555 1_555
N1A_2 Zn1A 1_555 1_555
C5 C6 1_555 1_555
C5 C7 1_555 1_555
C6 C8 1_555 1_555
C7 C5E 1_555 1_555
C8 C6E 1_555 1_555
N2F C3F 1_555 1_555
C2F C4F 1_555 1_555
N1A C6A 1_555 1_555
N1A C7A 1_555 1_555
N1A C8A 1_555 1_555
C5A C6A 1_555 1_555
C5A C7A 1_555 1_555
C6A C8A 1_555 1_555
C7A C5D 1_555 1_555
C8A C6D 1_555 1_555
C5D C6D 1_555 1_555
C5D C6E 1_555 1_555
C6D C5E 1_555 1_555
C5E C6E 1_555 1_555
O2A C1A 1_555 1_555
C2A C3A 1_555 1_555
N2G C3G 1_555 1_555
C2G C4G 1_555 1_555

#END
