
#######################################################################
#
#                 Cambridge Crystallographic Data Centre
#                                CCDC 
#
#######################################################################
#
# If this CIF has been generated from an entry in the Cambridge 
# Structural Database, then it will include bibliographic, chemical, 
# crystal, experimental, refinement or atomic coordinate data resulting 
# from the CCDC's data processing and validation procedures.
#
#######################################################################

data_NOQKOV
_chemical_formula_moiety         '(C74 H56 Co3 N12 O11)n'
_symmetry_cell_setting           triclinic
_symmetry_space_group_name_H-M   'P -1'
_symmetry_Int_Tables_number      2
_space_group_name_Hall           '-P 1'
loop_
_symmetry_equiv_pos_site_id
_symmetry_equiv_pos_as_xyz
1 x,y,z
2 -x,-y,-z
_cell_length_a                   11.5618(8)
_cell_length_b                   11.8493(8)
_cell_length_c                   15.7206(12)
_cell_angle_alpha                76.325(2)
_cell_angle_beta                 71.246(2)
_cell_angle_gamma                65.330(2)
_cell_volume                     1840.1
loop_
_atom_site_label
_atom_site_type_symbol
_atom_site_fract_x
_atom_site_fract_y
_atom_site_fract_z
Co1 Co 0.5000 0.5000 0.0000
Co2 Co 1.0000 0.0000 0.0000
Co3 Co 1.0000 0.5000 0.0000
N1 N 0.6822(3) 0.3545(4) -0.0208(3)
N2 N 0.8601(4) 0.1769(4) -0.0199(3)
N3 N 0.5467(4) -0.4110(4) 0.8634(3)
N4 N 1.0160(4) 0.5041(4) 0.1324(3)
N5 N 0.8830(4) -0.0243(4) 0.1389(3)
O1 O 0.8054(3) 0.5319(3) 0.0578(2)
O2 O 0.6105(3) 0.5746(3) 0.0371(2)
O3 O 1.0550(3) 0.3061(3) 0.0321(2)
O4 O 1.0742(3) 0.1098(3) 0.0389(2)
C1 C 0.8817(4) 0.2667(4) 0.0065(3)
C2 C 0.7708(4) 0.3761(4) 0.0065(3)
C3 C 0.7402(4) 0.2347(4) -0.0363(3)
H1 H 0.7005 0.1941 -0.0570
C4 C 1.0103(4) 0.2284(4) 0.0279(3)
C5 C 0.7290(4) 0.5030(4) 0.0350(3)
C6 C 0.9316(5) -0.0326(5) 0.2078(4)
H2 H 1.0124 -0.0213 0.1951
C7 C 0.8678(6) -0.0569(6) 0.2968(3)
H3 H 0.9048 -0.0605 0.3437
C8 C 0.7516(5) -0.0762(5) 0.3188(3)
C9 C 0.7016(5) -0.0662(5) 0.2468(3)
H4 H 0.6209 -0.0771 0.2581
C10 C 0.7683(5) -0.0406(5) 0.1592(3)
H5 H 0.7318 -0.0341 0.1112
C11 C 0.6886(5) -0.1146(5) 0.4154(3)
C12 C 0.7045(6) -0.0770(5) 0.4861(4)
H6 H 0.7425 -0.0157 0.4740
C13 C 0.6660(6) -0.1273(5) 0.5747(4)
H7 H 0.6774 -0.0999 0.6225
C14 C 0.6111(5) -0.2171(6) 0.5943(3)
C15 C 0.5862(6) -0.2485(6) 0.5230(4)
H8 H 0.5416 -0.3044 0.5353
C16 C 0.6266(6) -0.1982(6) 0.4346(4)
H9 H 0.6113 -0.2217 0.3867
C17 C 0.5845(5) -0.2809(5) 0.6871(3)
C18 C 0.5526(5) -0.2241(5) 0.7639(3)
H10 H 0.5432 -0.1392 0.7578
C19 C 0.5347(5) -0.2895(5) 0.8481(3)
H11 H 0.5126 -0.2474 0.8989
C20 C 0.5781(6) -0.4667(6) 0.7894(4)
H12 H 0.5879 -0.5519 0.7974
C21 C 0.5965(6) -0.4068(6) 0.7037(4)
H13 H 0.6180 -0.4509 0.6541
C22 C 0.9345(5) 0.5994(5) 0.1799(3)
H14 H 0.8760 0.6696 0.1511
C23 C 0.9295(5) 0.6027(5) 0.2680(3)
H15 H 0.8692 0.6737 0.2979
C24 C 1.0131(5) 0.5017(5) 0.3131(3)
C25 C 1.0988(5) 0.4025(5) 0.2638(3)
H16 H 1.1582 0.3312 0.2911
C26 C 1.0979(5) 0.4070(5) 0.1757(3)
H17 H 1.1582 0.3379 0.1436
C27 C 1.0076(5) 0.5002(5) 0.4089(3)
C28 C 0.9832(6) 0.6109(5) 0.4412(4)
H18 H 0.9733 0.6863 0.4010
C29 C 1.0264(5) 0.3894(5) 0.4684(3)
H19 H 1.0459 0.3135 0.4467
N4A N 0.9840(4) 0.4959(4) 0.8676(3)
C22A C 1.0655(5) 0.4006(5) 0.8201(3)
H14A H 1.1240 0.3304 0.8489
C23A C 1.0705(5) 0.3973(5) 0.7320(3)
H15A H 1.1308 0.3263 0.7021
C24A C 0.9869(5) 0.4983(5) 0.6869(3)
C25A C 0.9012(5) 0.5975(5) 0.7362(3)
H16A H 0.8418 0.6688 0.7089
C26A C 0.9021(5) 0.5930(5) 0.8243(3)
H17A H 0.8418 0.6621 0.8564
C27A C 0.9924(5) 0.4998(5) 0.5911(3)
C28A C 1.0168(6) 0.3891(5) 0.5588(4)
H18A H 1.0267 0.3137 0.5990
C29A C 0.9736(5) 0.6106(5) 0.5316(3)
H19A H 0.9541 0.6865 0.5533
N3A N 0.4533(4) 0.4110(4) 0.1366(3)
N5A N 0.1170(4) 0.0243(4) 0.8611(3)
C6A C 0.0684(5) 0.0326(5) 0.7922(4)
H2A H -0.0124 0.0213 0.8049
C7A C 0.1322(6) 0.0569(6) 0.7032(3)
H3A H 0.0952 0.0605 0.6563
C8A C 0.2484(5) 0.0762(5) 0.6812(3)
C9A C 0.2984(5) 0.0662(5) 0.7532(3)
H4A H 0.3791 0.0771 0.7419
C10A C 0.2317(5) 0.0406(5) 0.8408(3)
H5A H 0.2682 0.0341 0.8888
C11A C 0.3114(5) 0.1146(5) 0.5846(3)
C12A C 0.2955(6) 0.0770(5) 0.5139(4)
H6A H 0.2575 0.0157 0.5260
C13A C 0.3340(6) 0.1273(5) 0.4253(4)
H7A H 0.3226 0.0999 0.3775
C14A C 0.3889(5) 0.2171(6) 0.4057(3)
C15A C 0.4138(6) 0.2485(6) 0.4770(4)
H8A H 0.4584 0.3044 0.4647
C16A C 0.3734(6) 0.1982(6) 0.5654(4)
H9A H 0.3887 0.2217 0.6133
C17A C 0.4155(5) 0.2809(5) 0.3129(3)
C18A C 0.4474(5) 0.2241(5) 0.2361(3)
H10A H 0.4568 0.1392 0.2422
C19A C 0.4653(5) 0.2895(5) 0.1519(3)
H11A H 0.4874 0.2474 0.1011
C20A C 0.4219(6) 0.4667(6) 0.2106(4)
H12A H 0.4121 0.5519 0.2026
C21A C 0.4035(6) 0.4068(6) 0.2963(4)
H13A H 0.3820 0.4509 0.3459
N1A N 0.3178(3) 0.6455(4) 0.0208(3)
N2A N 0.1399(4) 0.8231(4) 0.0199(3)
O1A O 0.1946(3) 0.4681(3) -0.0578(2)
O2A O 0.3895(3) 0.4254(3) -0.0371(2)
O3A O -0.0550(3) 0.6939(3) -0.0321(2)
O4A O -0.0742(3) 0.8902(3) -0.0389(2)
C1A C 0.1183(4) 0.7333(4) -0.0065(3)
C2A C 0.2292(4) 0.6239(4) -0.0065(3)
C3A C 0.2598(4) 0.7653(4) 0.0363(3)
H1A H 0.2995 0.8059 0.0570
C4A C -0.0103(4) 0.7716(4) -0.0279(3)
C5A C 0.2710(4) 0.4970(4) -0.0350(3)
Co1_2 Co 0.5000 -0.5000 1.0000
Co2_2 Co 0.0000 0.0000 1.0000
Co2_3 Co -0.0000 1.0000 0.0000
Co3_2 Co -0.0000 0.5000 0.0000
Co3_3 Co 1.0000 0.5000 1.0000
N2A_2 N 1.1399(4) -0.1769(4) 0.0199(3)
N3_2 N 0.5467(4) 0.5890(4) -0.1366(3)
N4A_2 N 0.9840(4) 0.4959(4) -0.1324(3)
N5A_2 N 1.1170(4) 0.0243(4) -0.1389(3)
O1A_2 O 1.1946(3) 0.4681(3) -0.0578(2)
O3A_2 O 0.9450(3) 0.6939(3) -0.0321(2)
O4A_2 O 0.9258(3) -0.1098(3) -0.0389(2)
N6 N 0.6793(11) 0.4659(11) 0.3301(8)
C30 C 0.6758(11) 0.4407(12) 0.4219(8)
H20 H 0.6155 0.5028 0.4603
C31 C 0.7536(12) 0.3330(13) 0.4589(8)
H21 H 0.7445 0.3220 0.5222
C32 C 0.8421(13) 0.2415(15) 0.4114(10)
C33 C 0.8538(14) 0.2565(13) 0.3245(11)
H22 H 0.9163 0.1911 0.2896
C34 C 0.7736(15) 0.3713(14) 0.2797(7)
H23 H 0.7859 0.3812 0.2160
C35 C 0.9266(14) 0.1172(14) 0.4573(7)
C36 C 0.8797(13) 0.0666(14) 0.5505(8)
H24 H 0.7947 0.1125 0.5846
C37 C 0.9545(12) -0.0457(14) 0.5905(9)
H25 H 0.9224 -0.0729 0.6522
N6A N 1.3207(11) -0.4659(11) 0.6699(8)
C30A C 1.3242(11) -0.4407(12) 0.5781(8)
H20A H 1.3845 -0.5028 0.5397
C31A C 1.2464(12) -0.3330(13) 0.5411(8)
H21A H 1.2555 -0.3220 0.4778
C32A C 1.1579(13) -0.2415(15) 0.5886(10)
C33A C 1.1462(14) -0.2565(13) 0.6755(11)
H22A H 1.0837 -0.1911 0.7104
C34A C 1.2264(15) -0.3713(14) 0.7203(7)
H23A H 1.2141 -0.3812 0.7840
C35A C 1.0734(14) -0.1172(14) 0.5427(7)
C36A C 1.1203(13) -0.0666(14) 0.4495(8)
H24A H 1.2053 -0.1125 0.4154
C37A C 1.0455(12) 0.0457(14) 0.4095(9)
H25A H 1.0776 0.0729 0.3478
O5 O 0.6480(5) 0.8057(4) 0.0176(4)
H26 H 0.6314 0.7402 0.0244
H27 H 0.7305 0.7883 0.0031
O6 O 1.2103(8) 0.0197(9) 0.1808(6)
H28 H 1.2892 0.0161 0.1612
H29 H 1.1730 0.0470 0.1375
O7 O 0.4744(6) 0.0031(8) 0.1186(6)
H30 H 0.4371 0.0598 0.0809
H31 H 0.5290 -0.0610 0.0927
loop_
_geom_bond_atom_site_label_1
_geom_bond_atom_site_label_2
_geom_bond_site_symmetry_1
_geom_bond_site_symmetry_2
Co1 N1 1_555 1_555
Co2 N2 1_555 1_555
Co3 N4 1_555 1_555
N1 C2 1_555 1_555
N2 C1 1_555 1_555
N3 C19 1_555 1_555
N4 C22 1_555 1_555
N5 Co2 1_555 1_555
O1 Co3 1_555 1_555
O2 Co1 1_555 1_555
O3 Co3 1_555 1_555
O4 Co2 1_555 1_555
C1 C2 1_555 1_555
C2 C5 1_555 1_555
C3 N1 1_555 1_555
H1 C3 1_555 1_555
C4 O3 1_555 1_555
C5 O1 1_555 1_555
C6 N5 1_555 1_555
H2 C6 1_555 1_555
C7 C6 1_555 1_555
H3 C7 1_555 1_555
C8 C7 1_555 1_555
C9 C8 1_555 1_555
H4 C9 1_555 1_555
C10 N5 1_555 1_555
H5 C10 1_555 1_555
C11 C8 1_555 1_555
C12 C11 1_555 1_555
H6 C12 1_555 1_555
C13 C12 1_555 1_555
H7 C13 1_555 1_555
C14 C13 1_555 1_555
C15 C14 1_555 1_555
H8 C15 1_555 1_555
C16 C11 1_555 1_555
H9 C16 1_555 1_555
C17 C14 1_555 1_555
C18 C17 1_555 1_555
H10 C18 1_555 1_555
C19 C18 1_555 1_555
H11 C19 1_555 1_555
C20 N3 1_555 1_555
H12 C20 1_555 1_555
C21 C17 1_555 1_555
H13 C21 1_555 1_555
C22 H14 1_555 1_555
C23 C22 1_555 1_555
H15 C23 1_555 1_555
C24 C23 1_555 1_555
C25 C24 1_555 1_555
H16 C25 1_555 1_555
C26 N4 1_555 1_555
H17 C26 1_555 1_555
C27 C24 1_555 1_555
C28 C27 1_555 1_555
H18 C28 1_555 1_555
C29 C27 1_555 1_555
H19 C29 1_555 1_555
N6 C30 1_555 1_555
C30 H20 1_555 1_555
C31 C30 1_555 1_555
H21 C31 1_555 1_555
C32 C31 1_555 1_555
C33 C32 1_555 1_555
H22 C33 1_555 1_555
C34 N6 1_555 1_555
H23 C34 1_555 1_555
C35 C32 1_555 1_555
C36 C35 1_555 1_555
H24 C36 1_555 1_555
C37 C36 1_555 1_555
H25 C37 1_555 1_555
O5 H26 1_555 1_555
H27 O5 1_555 1_555
O6 H28 1_555 1_555
H29 O6 1_555 1_555
O7 H30 1_555 1_555
H31 O7 1_555 1_555
N4A C22A 1_555 1_555
C22A H14A 1_555 1_555
C23A C22A 1_555 1_555
H15A C23A 1_555 1_555
C24A C23A 1_555 1_555
C25A C24A 1_555 1_555
H16A C25A 1_555 1_555
C26A N4A 1_555 1_555
H17A C26A 1_555 1_555
C27A C24A 1_555 1_555
C28A C29 1_555 1_555
H18A C28A 1_555 1_555
C29A C28 1_555 1_555
H19A C29A 1_555 1_555
N3A Co1 1_555 1_555
N5A C6A 1_555 1_555
C6A H2A 1_555 1_555
C7A C6A 1_555 1_555
H3A C7A 1_555 1_555
C8A C7A 1_555 1_555
C9A C8A 1_555 1_555
H4A C9A 1_555 1_555
C10A N5A 1_555 1_555
H5A C10A 1_555 1_555
C11A C8A 1_555 1_555
C12A C11A 1_555 1_555
H6A C12A 1_555 1_555
C13A C12A 1_555 1_555
H7A C13A 1_555 1_555
C14A C13A 1_555 1_555
C15A C14A 1_555 1_555
H8A C15A 1_555 1_555
C16A C11A 1_555 1_555
H9A C16A 1_555 1_555
C17A C14A 1_555 1_555
C18A C17A 1_555 1_555
H10A C18A 1_555 1_555
C19A N3A 1_555 1_555
H11A C19A 1_555 1_555
C20A N3A 1_555 1_555
H12A C20A 1_555 1_555
C21A C17A 1_555 1_555
H13A C21A 1_555 1_555
N1A Co1 1_555 1_555
N2A C1A 1_555 1_555
O1A C5A 1_555 1_555
O2A Co1 1_555 1_555
O3A C4A 1_555 1_555
O4A C4A 1_555 1_555
C1A C2A 1_555 1_555
C2A N1A 1_555 1_555
C3A N1A 1_555 1_555
H1A C3A 1_555 1_555
C4A C1A 1_555 1_555
C5A O2A 1_555 1_555
Co1_2 N3 1_555 1_555
Co2_2 N5A 1_555 1_555
Co2_3 N2A 1_555 1_555
Co3_2 O1A 1_555 1_555
Co3_3 N4A 1_555 1_555
N2A_2 Co2 1_555 1_555
N3_2 Co1 1_555 1_555
N4A_2 Co3 1_555 1_555
N5A_2 Co2 1_555 1_555
O1A_2 Co3 1_555 1_555
O3A_2 Co3 1_555 1_555
O4A_2 Co2 1_555 1_555
N6A C30A 1_555 1_555
C30A H20A 1_555 1_555
C31A C30A 1_555 1_555
H21A C31A 1_555 1_555
C32A C31A 1_555 1_555
C33A C32A 1_555 1_555
H22A C33A 1_555 1_555
C34A N6A 1_555 1_555
H23A C34A 1_555 1_555
C35A C37 1_555 1_555
C36A C35A 1_555 1_555
H24A C36A 1_555 1_555
C37A C35 1_555 1_555
H25A C37A 1_555 1_555
N2 C3 1_555 1_555
O2 C5 1_555 1_555
O4 C4 1_555 1_555
C1 C4 1_555 1_555
C9 C10 1_555 1_555
C15 C16 1_555 1_555
C20 C21 1_555 1_555
C25 C26 1_555 1_555
C33 C34 1_555 1_555
C25A C26A 1_555 1_555
C27A C28A 1_555 1_555
C27A C29A 1_555 1_555
C9A C10A 1_555 1_555
C15A C16A 1_555 1_555
C18A C19A 1_555 1_555
C20A C21A 1_555 1_555
N2A C3A 1_555 1_555
O3A Co3_2 1_555 1_555
O4A Co2_3 1_555 1_555
C2A C5A 1_555 1_555
C32A C35A 1_555 1_555
C33A C34A 1_555 1_555
C36A C37A 1_555 1_555

#END
