
#######################################################################
#
#                 Cambridge Crystallographic Data Centre
#                                CCDC 
#
#######################################################################
#
# If this CIF has been generated from an entry in the Cambridge 
# Structural Database, then it will include bibliographic, chemical, 
# crystal, experimental, refinement or atomic coordinate data resulting 
# from the CCDC's data processing and validation procedures.
#
#######################################################################

data_SOKXOH
_chemical_formula_moiety         'C74 H78 B57 Co4 Cu14 O40'
_symmetry_cell_setting           orthorhombic
_symmetry_space_group_name_H-M   'I m m m'
_symmetry_Int_Tables_number      71
_space_group_name_Hall           '-I 2 2'
loop_
_symmetry_equiv_pos_site_id
_symmetry_equiv_pos_as_xyz
1 x,y,z
2 -x,-y,z
3 -x,y,-z
4 x,-y,-z
5 1/2+x,1/2+y,1/2+z
6 1/2-x,1/2-y,1/2+z
7 1/2-x,1/2+y,1/2-z
8 1/2+x,1/2-y,1/2-z
9 -x,-y,-z
10 x,y,-z
11 x,-y,z
12 -x,y,z
13 1/2-x,1/2-y,1/2-z
14 1/2+x,1/2+y,1/2-z
15 1/2+x,1/2-y,1/2+z
16 1/2-x,1/2+y,1/2+z
_cell_length_a                   36.549(3)
_cell_length_b                   38.148(3)
_cell_length_c                   55.536(4)
_cell_angle_alpha                90
_cell_angle_beta                 90
_cell_angle_gamma                90
_cell_volume                     77432.2
loop_
_atom_site_label
_atom_site_type_symbol
_atom_site_fract_x
_atom_site_fract_y
_atom_site_fract_z
Cu1 Cu 0.5000 0.29917(7) 0.36148(4)
Cu2 Cu 0.5000 0.34662(6) 0.39675(3)
Cu3 Cu 0.29861(5) 0.5000 0.36854(4)
Cu4 Cu 0.35214(4) 0.5000 0.40026(4)
Cu5 Cu 0.30036(5) 0.29778(7) 0.5000
Cu6 Cu 0.35461(5) 0.34367(6) 0.5000
Co1 Co 0.26730(5) 0.33741(6) 0.19325(4)
Co2 Co -0.0000 0.37999(9) 0.42383(7)
O1 O 0.0383(2) 0.2222(2) 0.11838(15)
O2 O 0.03686(18) 0.1831(2) 0.08828(11)
O3 O 0.46185(17) 0.3292(2) 0.34574(12)
O4 O 0.46268(14) 0.36895(19) 0.37722(12)
O5 O 0.5000 0.2610(3) 0.33409(16)
O6 O 0.5000 0.3855(3) 0.42349(16)
O7 O 0.32883(16) 0.4629(2) 0.35277(11)
O8 O 0.37295(15) 0.4662(2) 0.38127(13)
O9 O 0.27771(14) 0.4642(2) 0.38870(13)
O10 O 0.32291(16) 0.46339(19) 0.41564(12)
O11 O 0.25472(19) 0.5000 0.34281(16)
O12 O 0.39474(18) 0.5000 0.42574(14)
O13 O 0.27985(19) 0.3280(2) 0.47776(15)
O14 O 0.32570(16) 0.36868(19) 0.47539(12)
O15 O 0.17094(19) 0.22637(19) 0.02501(11)
O16 O 0.12471(16) 0.1860(2) 0.02454(12)
O17 O 0.2547(3) 0.2597(3) 0.5000
O18 O 0.3968(2) 0.3823(2) 0.5000
C1 C 0.0494(3) 0.2082(4) 0.1002(2)
C2 C 0.4504(3) 0.3568(4) 0.3574(2)
C3 C 0.4205(3) 0.3778(3) 0.3460(2)
C4 C 0.4096(3) 0.3667(3) 0.32257(19)
H1 H 0.4209 0.3479 0.3142
C5 C 0.3785(3) 0.3876(4) 0.3124(2)
C6 C 0.3628(3) 0.4168(3) 0.3249(2)
H2 H 0.3450 0.4315 0.3175
C7 C 0.3746(3) 0.4225(3) 0.3477(2)
C8 C 0.4046(3) 0.4057(3) 0.35832(19)
H3 H 0.4138 0.4132 0.3735
C9 C 0.3598(3) 0.4533(4) 0.3641(2)
C10 C 0.3650(3) 0.3776(3) 0.2880(3)
C11 C 0.3509(3) 0.3715(4) 0.2699(3)
C12 C 0.2718(3) 0.3771(3) 0.2154(2)
H4 H 0.2504 0.3966 0.2100
C13 C 0.2628(3) 0.3384(3) 0.22878(17)
H5 H 0.2342 0.3298 0.2331
C14 C 0.2157(3) 0.3427(3) 0.1840(2)
H6 H 0.2022 0.3565 0.1994
C15 C 0.2282(3) 0.3006(3) 0.1871(2)
H7 H 0.2242 0.2837 0.2034
C16 C 0.1807(3) 0.3000(4) 0.1198(2)
C17 C 0.1588(4) 0.2882(3) 0.1062(2)
C18 C 0.1341(3) 0.2650(3) 0.0907(2)
C19 C 0.1474(3) 0.2547(3) 0.06808(19)
H8 H 0.1684 0.2653 0.0611
C20 C 0.1281(3) 0.2281(3) 0.0565(2)
C21 C 0.0965(3) 0.2136(3) 0.06609(17)
H9 H 0.0839 0.1954 0.0578
C22 C 0.0828(3) 0.2264(3) 0.08892(18)
C23 C 0.1016(3) 0.2515(3) 0.09985(19)
H10 H 0.0924 0.2607 0.1146
C24 C 0.2930(3) 0.4529(3) 0.4083(2)
C25 C 0.2742(2) 0.4224(3) 0.4222(2)
C26 C 0.2359(2) 0.4153(3) 0.4180(2)
H11 H 0.2228 0.4283 0.4062
C27 C 0.2189(3) 0.3906(4) 0.4307(2)
C28 C 0.2382(3) 0.3706(3) 0.4466(2)
H12 H 0.2271 0.3522 0.4555
C29 C 0.2745(3) 0.3784(4) 0.4492(2)
C30 C 0.2929(3) 0.4034(3) 0.4391(2)
H13 H 0.3176 0.4082 0.4431
C31 C 0.2921(3) 0.3558(4) 0.4676(2)
C32 C 0.1806(3) 0.3865(4) 0.4258(2)
C33 C 0.1482(3) 0.3824(4) 0.4244(3)
C34 C 0.1393(3) 0.2117(4) 0.0340(2)
C35 C 0.0383(4) 0.4133(6) 0.4131(6)
H14 H 0.0249 0.4367 0.4048
C36 C 0.0384(4) 0.4036(8) 0.4432(5)
H15 H 0.0243 0.4202 0.4570
B1 B 0.3275(3) 0.3609(4) 0.2481(2)
B2 B 0.3124(4) 0.3922(4) 0.2272(2)
H16 H 0.3189 0.4207 0.2295
B3 B 0.2815(3) 0.3711(4) 0.2458(2)
H17 H 0.2666 0.3854 0.2604
B4 B 0.2948(4) 0.3279(4) 0.2492(2)
H18 H 0.2892 0.3132 0.2663
B5 B 0.3351(4) 0.3214(4) 0.2326(2)
H19 H 0.3572 0.3026 0.2380
B6 B 0.3451(4) 0.3610(4) 0.2188(2)
H20 H 0.3743 0.3679 0.2150
B7 B 0.3101(4) 0.3737(4) 0.1986(2)
H21 H 0.3167 0.3897 0.1822
B8 B 0.3216(3) 0.3296(4) 0.2027(2)
H22 H 0.3357 0.3150 0.1879
B9 B 0.2919(4) 0.3073(4) 0.2211(2)
H23 H 0.2858 0.2786 0.2197
B10 B 0.2423(4) 0.3676(4) 0.1659(2)
H24 H 0.2482 0.3963 0.1676
B11 B 0.2728(4) 0.3373(4) 0.15631(19)
H25 H 0.3011 0.3457 0.1513
B12 B 0.2653(3) 0.2978(4) 0.1687(2)
H26 H 0.2882 0.2789 0.1721
B13 B 0.2229(4) 0.2822(4) 0.1589(2)
H27 H 0.2168 0.2537 0.1563
B14 B 0.2514(3) 0.3054(4) 0.1390(2)
H28 H 0.2647 0.2926 0.1231
B15 B 0.2365(3) 0.3487(4) 0.1375(2)
H29 H 0.2396 0.3648 0.1208
B16 B 0.1991(4) 0.3524(4) 0.1560(2)
H30 H 0.1763 0.3711 0.1520
B17 B 0.1912(3) 0.3114(4) 0.1699(2)
H31 H 0.1631 0.3031 0.1755
B18 B 0.2041(3) 0.3137(4) 0.1393(2)
B19 B 0.1041(5) 0.3828(6) 0.4250(4)
B20 B 0.0765(4) 0.4196(6) 0.4295(8)
H32 H 0.0876 0.4465 0.4330
B21 B 0.0794(4) 0.3864(10) 0.4515(4)
H33 H 0.0930 0.3906 0.4694
B22 B 0.0806(5) 0.3466(7) 0.4354(6)
H34 H 0.0953 0.3229 0.4425
B23 B 0.0842(6) 0.3545(8) 0.4042(5)
H35 H 0.1005 0.3386 0.3910
B24 B 0.0786(4) 0.4001(9) 0.4010(5)
H36 H 0.0908 0.4138 0.3851
B25 B 0.0409(4) 0.3726(10) 0.3993(4)
H37 H 0.0292 0.3659 0.3813
B26 B 0.0384(5) 0.3392(5) 0.4211(7)
H38 H 0.0254 0.3127 0.4193
B27 B 0.0397(4) 0.3609(9) 0.4480(4)
H39 H 0.0278 0.3478 0.4642
O9I O 0.27771(14) 0.4642(2) 0.61130(13)
O10I O 0.32291(16) 0.46339(19) 0.58436(12)
O13I O 0.27985(19) 0.3280(2) 0.52224(15)
O14I O 0.32570(16) 0.36868(19) 0.52461(12)
C24I C 0.2930(3) 0.4529(3) 0.5917(2)
C25I C 0.2742(2) 0.4224(3) 0.5778(2)
C26I C 0.2359(2) 0.4153(3) 0.5820(2)
H11I H 0.2228 0.4283 0.5938
C27I C 0.2189(3) 0.3906(4) 0.5693(2)
C28I C 0.2382(3) 0.3706(3) 0.5534(2)
H12I H 0.2271 0.3522 0.5445
C29I C 0.2745(3) 0.3784(4) 0.5508(2)
C30I C 0.2929(3) 0.4034(3) 0.5609(2)
H13I H 0.3176 0.4082 0.5569
C31I C 0.2921(3) 0.3558(4) 0.5324(2)
C32I C 0.1806(3) 0.3865(4) 0.5742(2)
C33I C 0.1482(3) 0.3824(4) 0.5756(3)
C35I C 0.0383(4) 0.4133(6) 0.5869(6)
H14I H 0.0249 0.4367 0.5952
C36I C 0.0384(4) 0.4036(8) 0.5568(5)
H15I H 0.0243 0.4202 0.5430
B19I B 0.1041(5) 0.3828(6) 0.5750(4)
B20I B 0.0765(4) 0.4196(6) 0.5705(8)
H32I H 0.0876 0.4465 0.5670
B21I B 0.0794(4) 0.3864(10) 0.5485(4)
H33I H 0.0930 0.3906 0.5306
B22I B 0.0806(5) 0.3466(7) 0.5646(6)
H34I H 0.0953 0.3229 0.5575
B23I B 0.0842(6) 0.3545(8) 0.5958(5)
H35I H 0.1005 0.3386 0.6090
B24I B 0.0786(4) 0.4001(9) 0.5990(5)
H36I H 0.0908 0.4138 0.6149
B25I B 0.0409(4) 0.3726(10) 0.6007(4)
H37I H 0.0292 0.3659 0.6187
B26I B 0.0384(5) 0.3392(5) 0.5789(7)
H38I H 0.0254 0.3127 0.5807
B27I B 0.0397(4) 0.3609(9) 0.5520(4)
H39I H 0.0278 0.3478 0.5358
Co1L Co 0.23270(5) 0.16259(6) 0.30675(4)
O1L O 0.4617(2) 0.2778(2) 0.38162(15)
O2L O 0.46314(18) 0.3169(2) 0.41172(11)
O3L O 0.03815(17) 0.1708(2) 0.15426(12)
O4L O 0.03732(14) 0.13105(19) 0.12278(12)
O7L O 0.17117(16) 0.0371(2) 0.14723(11)
O8L O 0.12705(15) 0.0338(2) 0.11873(13)
O15L O 0.32906(19) 0.27363(19) 0.47499(11)
O16L O 0.37529(16) 0.3140(2) 0.47546(12)
C1L C 0.4506(3) 0.2918(4) 0.3998(2)
C2L C 0.0496(3) 0.1432(4) 0.1426(2)
C3L C 0.0795(3) 0.1222(3) 0.1540(2)
C4L C 0.0904(3) 0.1333(3) 0.17743(19)
H1L H 0.0791 0.1521 0.1858
C5L C 0.1215(3) 0.1124(4) 0.1876(2)
C6L C 0.1372(3) 0.0832(3) 0.1751(2)
H2L H 0.1550 0.0685 0.1825
C7L C 0.1254(3) 0.0775(3) 0.1523(2)
C8L C 0.0954(3) 0.0943(3) 0.14168(19)
H3L H 0.0862 0.0868 0.1265
C9L C 0.1402(3) 0.0467(4) 0.1359(2)
C10L C 0.1350(3) 0.1224(3) 0.2120(3)
C11L C 0.1491(3) 0.1285(4) 0.2301(3)
C12L C 0.2282(3) 0.1229(3) 0.2846(2)
H4L H 0.2496 0.1034 0.2900
C13L C 0.2372(3) 0.1616(3) 0.27122(17)
H5L H 0.2658 0.1702 0.2669
C14L C 0.2843(3) 0.1573(3) 0.3160(2)
H6L H 0.2978 0.1435 0.3006
C15L C 0.2718(3) 0.1994(3) 0.3129(2)
H7L H 0.2758 0.2163 0.2966
C16L C 0.3193(3) 0.2000(4) 0.3802(2)
C17L C 0.3412(4) 0.2118(3) 0.3938(2)
C18L C 0.3659(3) 0.2350(3) 0.4093(2)
C19L C 0.3526(3) 0.2453(3) 0.43192(19)
H8L H 0.3316 0.2347 0.4389
C20L C 0.3719(3) 0.2719(3) 0.4435(2)
C21L C 0.4035(3) 0.2864(3) 0.43391(17)
H9L H 0.4161 0.3046 0.4422
C22L C 0.4172(3) 0.2736(3) 0.41108(18)
C23L C 0.3984(3) 0.2485(3) 0.40015(19)
H10L H 0.4076 0.2393 0.3854
C34L C 0.3607(3) 0.2883(4) 0.4660(2)
B1L B 0.1725(3) 0.1391(4) 0.2519(2)
B2L B 0.1876(4) 0.1078(4) 0.2728(2)
H16L H 0.1811 0.0793 0.2705
B3L B 0.2185(3) 0.1289(4) 0.2542(2)
H17L H 0.2334 0.1146 0.2396
B4L B 0.2052(4) 0.1721(4) 0.2508(2)
H18L H 0.2108 0.1868 0.2337
B5L B 0.1649(4) 0.1786(4) 0.2674(2)
H19L H 0.1428 0.1974 0.2620
B6L B 0.1549(4) 0.1390(4) 0.2812(2)
H20L H 0.1257 0.1321 0.2850
B7L B 0.1899(4) 0.1263(4) 0.3014(2)
H21L H 0.1833 0.1103 0.3178
B8L B 0.1784(3) 0.1704(4) 0.2973(2)
H22L H 0.1643 0.1850 0.3121
B9L B 0.2081(4) 0.1927(4) 0.2789(2)
H23L H 0.2142 0.2214 0.2803
B10L B 0.2577(4) 0.1324(4) 0.3341(2)
H24L H 0.2518 0.1037 0.3324
B11L B 0.2272(4) 0.1627(4) 0.34369(19)
H25L H 0.1989 0.1543 0.3487
B12L B 0.2347(3) 0.2022(4) 0.3313(2)
H26L H 0.2118 0.2211 0.3279
B13L B 0.2771(4) 0.2178(4) 0.3411(2)
H27L H 0.2832 0.2463 0.3437
B14L B 0.2486(3) 0.1946(4) 0.3610(2)
H28L H 0.2353 0.2074 0.3769
B15L B 0.2635(3) 0.1513(4) 0.3625(2)
H29L H 0.2604 0.1352 0.3792
B16L B 0.3009(4) 0.1476(4) 0.3440(2)
H30L H 0.3237 0.1289 0.3480
B17L B 0.3088(3) 0.1886(4) 0.3301(2)
H31L H 0.3369 0.1969 0.3245
B18L B 0.2959(3) 0.1863(4) 0.3607(2)
Cu1G Cu -0.0000 0.20083(7) 0.13852(4)
Cu2G Cu 0.0000 0.15338(6) 0.10325(3)
Cu3C Cu 0.29861(5) 0.5000 0.63146(4)
Cu3F Cu 0.20139(5) 0.0000 0.13146(4)
Cu4C Cu 0.35214(4) 0.5000 0.59974(4)
Cu4F Cu 0.14786(4) 0.0000 0.09974(4)
Cu5E Cu 0.19964(5) 0.20222(7) 0.0000
Cu6E Cu 0.14539(5) 0.15633(6) 0.0000
Co2B Co 0.0000 0.37999(9) 0.57617(7)
O1G O 0.5383(2) 0.2778(2) 0.38162(15)
O2G O 0.53686(18) 0.3169(2) 0.41172(11)
O3K O 0.53815(17) 0.3292(2) 0.34574(12)
O4K O 0.53732(14) 0.36895(19) 0.37722(12)
O7J O 0.32883(16) 0.5371(2) 0.35277(11)
O8J O 0.37295(15) 0.5338(2) 0.38127(13)
O9J O 0.27771(14) 0.5358(2) 0.38870(13)
O10J O 0.32291(16) 0.53661(19) 0.41564(12)
O15E O 0.32906(19) 0.27363(19) 0.52501(11)
O16E O 0.37529(16) 0.3140(2) 0.52454(12)
C35K C -0.0383(4) 0.4133(6) 0.4131(6)
C36K C -0.0384(4) 0.4036(8) 0.4432(5)
B25K B -0.0409(4) 0.3726(10) 0.3993(4)
B26K B -0.0384(5) 0.3392(5) 0.4211(7)
B27K B -0.0397(4) 0.3609(9) 0.4480(4)
loop_
_geom_bond_atom_site_label_1
_geom_bond_atom_site_label_2
_geom_bond_site_symmetry_1
_geom_bond_site_symmetry_2
Cu1 Cu2 1_555 1_555
Cu2 O4 1_555 1_555
Cu3 Cu4 1_555 1_555
Cu4 O8 1_555 1_555
Cu5 Cu6 1_555 1_555
Cu6 O14 1_555 1_555
Co1 C12 1_555 1_555
Co2 C35 1_555 1_555
O1 C1 1_555 1_555
O2 C1 1_555 1_555
O3 Cu1 1_555 1_555
O4 C2 1_555 1_555
O5 Cu1 1_555 1_555
O6 Cu2 1_555 1_555
O7 Cu3 1_555 1_555
O8 C9 1_555 1_555
O9 Cu3 1_555 1_555
O10 Cu4 1_555 1_555
O11 Cu3 1_555 1_555
O12 Cu4 1_555 1_555
O13 Cu5 1_555 1_555
O14 C31 1_555 1_555
O15 C34 1_555 1_555
O16 C34 1_555 1_555
O17 Cu5 1_555 1_555
O18 Cu6 1_555 1_555
C1 C22 1_555 1_555
C2 O3 1_555 1_555
C3 C2 1_555 1_555
C4 C3 1_555 1_555
H1 C4 1_555 1_555
C5 C4 1_555 1_555
C6 C5 1_555 1_555
H2 C6 1_555 1_555
C7 C6 1_555 1_555
C8 C3 1_555 1_555
H3 C8 1_555 1_555
C9 O7 1_555 1_555
C10 C5 1_555 1_555
C11 C10 1_555 1_555
C12 H4 1_555 1_555
C13 Co1 1_555 1_555
H5 C13 1_555 1_555
C14 Co1 1_555 1_555
H6 C14 1_555 1_555
C15 Co1 1_555 1_555
H7 C15 1_555 1_555
C16 C17 1_555 1_555
C17 C18 1_555 1_555
C18 C19 1_555 1_555
C19 H8 1_555 1_555
C20 C19 1_555 1_555
C21 C20 1_555 1_555
H9 C21 1_555 1_555
C22 C21 1_555 1_555
C23 C18 1_555 1_555
H10 C23 1_555 1_555
C24 O9 1_555 1_555
C25 C24 1_555 1_555
C26 C25 1_555 1_555
H11 C26 1_555 1_555
C27 C26 1_555 1_555
C28 C27 1_555 1_555
H12 C28 1_555 1_555
C29 C28 1_555 1_555
C30 C25 1_555 1_555
H13 C30 1_555 1_555
C31 O13 1_555 1_555
C32 C27 1_555 1_555
C33 C32 1_555 1_555
C34 C20 1_555 1_555
C35 H14 1_555 1_555
C36 Co2 1_555 1_555
H15 C36 1_555 1_555
B1 C11 1_555 1_555
B2 C12 1_555 1_555
H16 B2 1_555 1_555
B3 C12 1_555 1_555
H17 B3 1_555 1_555
B4 C13 1_555 1_555
H18 B4 1_555 1_555
B5 B1 1_555 1_555
H19 B5 1_555 1_555
B6 B1 1_555 1_555
H20 B6 1_555 1_555
B7 Co1 1_555 1_555
H21 B7 1_555 1_555
B8 Co1 1_555 1_555
H22 B8 1_555 1_555
B9 Co1 1_555 1_555
H23 B9 1_555 1_555
B10 Co1 1_555 1_555
H24 B10 1_555 1_555
B11 Co1 1_555 1_555
H25 B11 1_555 1_555
B12 Co1 1_555 1_555
H26 B12 1_555 1_555
B13 C15 1_555 1_555
H27 B13 1_555 1_555
B14 B11 1_555 1_555
H28 B14 1_555 1_555
B15 B10 1_555 1_555
H29 B15 1_555 1_555
B16 C14 1_555 1_555
H30 B16 1_555 1_555
B17 C14 1_555 1_555
H31 B17 1_555 1_555
B18 C16 1_555 1_555
B19 C33 1_555 1_555
B20 C35 1_555 1_555
H32 B20 1_555 1_555
B21 C36 1_555 1_555
H33 B21 1_555 1_555
B22 B19 1_555 1_555
H34 B22 1_555 1_555
B23 B19 1_555 1_555
H35 B23 1_555 1_555
B24 C35 1_555 1_555
H36 B24 1_555 1_555
B25 Co2 1_555 1_555
H37 B25 1_555 1_555
B26 Co2 1_555 1_555
H38 B26 1_555 1_555
B27 Co2 1_555 1_555
H39 B27 1_555 1_555
O9I C24I 1_555 1_555
O10I C24I 1_555 1_555
O13I Cu5 1_555 1_555
O14I Cu6 1_555 1_555
C24I C25I 1_555 1_555
C25I C26I 1_555 1_555
C26I H11I 1_555 1_555
C27I C26I 1_555 1_555
C28I C27I 1_555 1_555
H12I C28I 1_555 1_555
C29I C28I 1_555 1_555
C30I C25I 1_555 1_555
H13I C30I 1_555 1_555
C31I O13I 1_555 1_555
C32I C27I 1_555 1_555
C33I C32I 1_555 1_555
C35I H14I 1_555 1_555
C36I C35I 1_555 1_555
H15I C36I 1_555 1_555
B19I C33I 1_555 1_555
B20I C35I 1_555 1_555
H32I B20I 1_555 1_555
B21I C36I 1_555 1_555
H33I B21I 1_555 1_555
B22I B19I 1_555 1_555
H34I B22I 1_555 1_555
B23I B19I 1_555 1_555
H35I B23I 1_555 1_555
B24I C35I 1_555 1_555
H36I B24I 1_555 1_555
B25I C35I 1_555 1_555
H37I B25I 1_555 1_555
B26I B22I 1_555 1_555
H38I B26I 1_555 1_555
B27I C36I 1_555 1_555
H39I B27I 1_555 1_555
Co1L C12L 1_555 1_555
O1L Cu1 1_555 1_555
O2L Cu2 1_555 1_555
O3L C2L 1_555 1_555
O4L C2L 1_555 1_555
O7L C9L 1_555 1_555
O8L C9L 1_555 1_555
O15L Cu5 1_555 1_555
O16L Cu6 1_555 1_555
C1L O1L 1_555 1_555
C2L C3L 1_555 1_555
C3L C4L 1_555 1_555
C4L H1L 1_555 1_555
C5L C4L 1_555 1_555
C6L C5L 1_555 1_555
H2L C6L 1_555 1_555
C7L C6L 1_555 1_555
C8L C3L 1_555 1_555
H3L C8L 1_555 1_555
C9L C7L 1_555 1_555
C10L C5L 1_555 1_555
C11L C10L 1_555 1_555
C12L H4L 1_555 1_555
C13L Co1L 1_555 1_555
H5L C13L 1_555 1_555
C14L Co1L 1_555 1_555
H6L C14L 1_555 1_555
C15L Co1L 1_555 1_555
H7L C15L 1_555 1_555
C16L C17L 1_555 1_555
C17L C18L 1_555 1_555
C18L C19L 1_555 1_555
C19L H8L 1_555 1_555
C20L C19L 1_555 1_555
C21L C20L 1_555 1_555
H9L C21L 1_555 1_555
C22L C1L 1_555 1_555
C23L C18L 1_555 1_555
H10L C23L 1_555 1_555
C34L O15L 1_555 1_555
B1L C11L 1_555 1_555
B2L C12L 1_555 1_555
H16L B2L 1_555 1_555
B3L C12L 1_555 1_555
H17L B3L 1_555 1_555
B4L C13L 1_555 1_555
H18L B4L 1_555 1_555
B5L B1L 1_555 1_555
H19L B5L 1_555 1_555
B6L B1L 1_555 1_555
H20L B6L 1_555 1_555
B7L Co1L 1_555 1_555
H21L B7L 1_555 1_555
B8L Co1L 1_555 1_555
H22L B8L 1_555 1_555
B9L Co1L 1_555 1_555
H23L B9L 1_555 1_555
B10L Co1L 1_555 1_555
H24L B10L 1_555 1_555
B11L Co1L 1_555 1_555
H25L B11L 1_555 1_555
B12L Co1L 1_555 1_555
H26L B12L 1_555 1_555
B13L C15L 1_555 1_555
H27L B13L 1_555 1_555
B14L B11L 1_555 1_555
H28L B14L 1_555 1_555
B15L B10L 1_555 1_555
H29L B15L 1_555 1_555
B16L C14L 1_555 1_555
H30L B16L 1_555 1_555
B17L C14L 1_555 1_555
H31L B17L 1_555 1_555
B18L C16L 1_555 1_555
Cu1G O1 1_555 1_555
Cu2G O2 1_555 1_555
Cu3C O9I 1_555 1_555
Cu3F O7L 1_555 1_555
Cu4C O10I 1_555 1_555
Cu4F O8L 1_555 1_555
Cu5E O15 1_555 1_555
Cu6E O16 1_555 1_555
Co2B C35I 1_555 1_555
O1G Cu1 1_555 1_555
O2G Cu2 1_555 1_555
O3K Cu1 1_555 1_555
O4K Cu2 1_555 1_555
O7J Cu3 1_555 1_555
O8J Cu4 1_555 1_555
O9J Cu3 1_555 1_555
O10J Cu4 1_555 1_555
O15E Cu5 1_555 1_555
O16E Cu6 1_555 1_555
C35K Co2 1_555 1_555
C36K Co2 1_555 1_555
B25K Co2 1_555 1_555
B26K Co2 1_555 1_555
B27K Co2 1_555 1_555
O10 C24 1_555 1_555
C7 C8 1_555 1_555
C7 C9 1_555 1_555
C12 C13 1_555 1_555
C12 B7 1_555 1_555
C13 B3 1_555 1_555
C13 B9 1_555 1_555
C14 C15 1_555 1_555
C14 B10 1_555 1_555
C15 B12 1_555 1_555
C15 B17 1_555 1_555
C22 C23 1_555 1_555
C29 C30 1_555 1_555
C29 C31 1_555 1_555
C35 C36 1_555 1_555
C35 B25 1_555 1_555
C36 B20 1_555 1_555
C36 B27 1_555 1_555
B1 B2 1_555 1_555
B1 B3 1_555 1_555
B1 B4 1_555 1_555
B2 B3 1_555 1_555
B2 B6 1_555 1_555
B2 B7 1_555 1_555
B3 B4 1_555 1_555
B4 B5 1_555 1_555
B4 B9 1_555 1_555
B5 B6 1_555 1_555
B5 B8 1_555 1_555
B5 B9 1_555 1_555
B6 B7 1_555 1_555
B6 B8 1_555 1_555
B7 B8 1_555 1_555
B8 B9 1_555 1_555
B10 B11 1_555 1_555
B10 B16 1_555 1_555
B11 B12 1_555 1_555
B11 B15 1_555 1_555
B12 B13 1_555 1_555
B12 B14 1_555 1_555
B13 B14 1_555 1_555
B13 B17 1_555 1_555
B13 B18 1_555 1_555
B14 B15 1_555 1_555
B14 B18 1_555 1_555
B15 B16 1_555 1_555
B15 B18 1_555 1_555
B16 B17 1_555 1_555
B16 B18 1_555 1_555
B17 B18 1_555 1_555
B19 B20 1_555 1_555
B19 B21 1_555 1_555
B19 B24 1_555 1_555
B20 B21 1_555 1_555
B20 B24 1_555 1_555
B21 B22 1_555 1_555
B21 B27 1_555 1_555
B22 B23 1_555 1_555
B22 B26 1_555 1_555
B22 B27 1_555 1_555
B23 B24 1_555 1_555
B23 B25 1_555 1_555
B23 B26 1_555 1_555
B24 B25 1_555 1_555
B25 B26 1_555 1_555
B26 B27 1_555 1_555
O14I C31I 1_555 1_555
C29I C30I 1_555 1_555
C29I C31I 1_555 1_555
C36I B20I 1_555 1_555
C36I Co2B 1_555 1_555
B19I B20I 1_555 1_555
B19I B21I 1_555 1_555
B19I B24I 1_555 1_555
B20I B21I 1_555 1_555
B20I B24I 1_555 1_555
B21I B22I 1_555 1_555
B21I B27I 1_555 1_555
B22I B23I 1_555 1_555
B22I B27I 1_555 1_555
B23I B24I 1_555 1_555
B23I B25I 1_555 1_555
B23I B26I 1_555 1_555
B24I B25I 1_555 1_555
B25I B26I 1_555 1_555
B25I Co2B 1_555 1_555
B26I B27I 1_555 1_555
B26I Co2B 1_555 1_555
B27I Co2B 1_555 1_555
O2L C1L 1_555 1_555
O3L Cu1G 1_555 1_555
O4L Cu2G 1_555 1_555
O16L C34L 1_555 1_555
C7L C8L 1_555 1_555
C12L C13L 1_555 1_555
C12L B7L 1_555 1_555
C13L B3L 1_555 1_555
C13L B9L 1_555 1_555
C14L C15L 1_555 1_555
C14L B10L 1_555 1_555
C15L B12L 1_555 1_555
C15L B17L 1_555 1_555
C20L C34L 1_555 1_555
C21L C22L 1_555 1_555
C22L C23L 1_555 1_555
B1L B2L 1_555 1_555
B1L B3L 1_555 1_555
B1L B4L 1_555 1_555
B2L B3L 1_555 1_555
B2L B6L 1_555 1_555
B2L B7L 1_555 1_555
B3L B4L 1_555 1_555
B4L B5L 1_555 1_555
B4L B9L 1_555 1_555
B5L B6L 1_555 1_555
B5L B8L 1_555 1_555
B5L B9L 1_555 1_555
B6L B7L 1_555 1_555
B6L B8L 1_555 1_555
B7L B8L 1_555 1_555
B8L B9L 1_555 1_555
B10L B11L 1_555 1_555
B10L B16L 1_555 1_555
B11L B12L 1_555 1_555
B11L B15L 1_555 1_555
B12L B13L 1_555 1_555
B12L B14L 1_555 1_555
B13L B14L 1_555 1_555
B13L B17L 1_555 1_555
B13L B18L 1_555 1_555
B14L B15L 1_555 1_555
B14L B18L 1_555 1_555
B15L B16L 1_555 1_555
B15L B18L 1_555 1_555
B16L B17L 1_555 1_555
B16L B18L 1_555 1_555
B17L B18L 1_555 1_555
Cu1G Cu2G 1_555 1_555
Cu3C Cu4C 1_555 1_555
Cu3F Cu4F 1_555 1_555
Cu5E Cu6E 1_555 1_555
C35K C36K 1_555 1_555
C35K B25K 1_555 1_555
C36K B27K 1_555 1_555
B25K B26K 1_555 1_555
B26K B27K 1_555 1_555

#END
