
#######################################################################
#
#                 Cambridge Crystallographic Data Centre
#                                CCDC 
#
#######################################################################
#
# If this CIF has been generated from an entry in the Cambridge 
# Structural Database, then it will include bibliographic, chemical, 
# crystal, experimental, refinement or atomic coordinate data resulting 
# from the CCDC's data processing and validation procedures.
#
#######################################################################

data_PAHPOG
_chemical_formula_moiety         '(C116 H68 Ag2 F36 Fe2 N20 O8 P6)n'
_symmetry_cell_setting           triclinic
_symmetry_space_group_name_H-M   'P -1'
_symmetry_Int_Tables_number      2
_space_group_name_Hall           '-P 1'
loop_
_symmetry_equiv_pos_site_id
_symmetry_equiv_pos_as_xyz
1 x,y,z
2 -x,-y,-z
_cell_length_a                   17.3266(2)
_cell_length_b                   21.9786(3)
_cell_length_c                   23.2172(2)
_cell_angle_alpha                99.590(1)
_cell_angle_beta                 108.832(1)
_cell_angle_gamma                107.228(1)
_cell_volume                     7649.13
loop_
_atom_site_label
_atom_site_type_symbol
_atom_site_fract_x
_atom_site_fract_y
_atom_site_fract_z
P1 P 0.50043(8) 0.00953(6) 0.70571(6)
F1 F 0.49147(18) 0.01626(13) 0.63674(10)
F2 F 0.39988(14) -0.00277(16) 0.68769(14)
F3 F 0.51036(19) 0.00232(14) 0.77447(10)
F4 F 0.60156(14) 0.02071(14) 0.72342(14)
F5 F 0.52645(19) 0.08708(10) 0.73136(13)
F6 F 0.4756(2) -0.06856(10) 0.68011(13)
P2 P 0.88672(9) 0.29198(7) 0.43336(6)
F7 F 0.8206(5) 0.3252(5) 0.4433(3)
F8 F 0.9634(4) 0.3457(3) 0.4956(3)
F9 F 0.9532(5) 0.2583(5) 0.4237(3)
F10 F 0.8105(6) 0.2392(7) 0.3700(6)
F11 F 0.9110(6) 0.3381(4) 0.3913(4)
F12 F 0.8623(6) 0.2443(4) 0.4746(4)
P3 P 0.17066(10) 0.12023(7) 0.71720(7)
F13 F 0.2364(5) 0.1063(3) 0.6871(3)
F14 F 0.0902(4) 0.06461(18) 0.6576(2)
F15 F 0.1037(5) 0.1336(3) 0.7462(4)
F16 F 0.2508(4) 0.17533(18) 0.7765(2)
F17 F 0.1623(2) 0.17454(14) 0.68090(15)
F18 F 0.1791(2) 0.06554(15) 0.75314(16)
P4 P 0.45246(14) 0.24961(9) 0.23221(10)
F19 F 0.4579(4) 0.2539(3) 0.16548(18)
F20 F 0.3531(2) 0.2444(3) 0.2039(3)
F21 F 0.4462(4) 0.2453(2) 0.29780(17)
F22 F 0.5513(2) 0.2548(2) 0.2592(3)
F23 F 0.4198(3) 0.17086(13) 0.2080(3)
F24 F 0.4849(3) 0.32840(13) 0.2554(3)
P5 P 0.47830(10) 0.51533(7) 0.20379(8)
F25 F 0.57794(17) 0.5208(2) 0.22645(18)
F26 F 0.4775(2) 0.51951(16) 0.13612(12)
F27 F 0.37951(16) 0.5094(2) 0.18179(17)
F28 F 0.4802(2) 0.51108(17) 0.27219(12)
F29 F 0.5115(3) 0.59391(11) 0.22835(17)
F30 F 0.4470(3) 0.43667(11) 0.18031(17)
P6 P 0.00786(11) 0.30764(12) 0.09495(8)
F31 F 0.0619(2) 0.2822(2) 0.05926(17)
F32 F 0.0157(3) 0.36760(17) 0.06480(17)
F33 F -0.04627(19) 0.33228(17) 0.13076(13)
F34 F 0.0009(2) 0.24759(17) 0.12568(17)
F35 F -0.08109(19) 0.26262(18) 0.03573(13)
F36 F 0.09684(17) 0.3526(2) 0.15422(14)
Ag1 Ag 1.07168(2) 0.876551(15) 0.171788(16)
N1 N 1.1919(2) 0.88446(18) 0.26521(17)
N2 N 1.0100(3) 0.76471(18) 0.13771(18)
N3 N 1.0309(3) 0.96442(18) 0.18317(18)
N4 N 1.1630(3) 0.91056(19) 0.11276(18)
C1 C 1.2288(3) 0.8389(2) 0.2602(2)
C2 C 1.2236(3) 0.9276(2) 0.3218(2)
C3 C 0.9633(4) 0.7289(2) 0.1643(2)
C4 C 1.0286(3) 0.7314(2) 0.0934(3)
C5 C 1.2966(3) 0.8366(2) 0.3098(2)
H1 H 1.2069 0.8066 0.2202
H2 H 1.1990 0.9606 0.3262
C6 C 1.2894(3) 0.9287(2) 0.3748(2)
C7 C 0.9335(4) 0.6603(2) 0.1492(2)
H3 H 0.9496 0.7519 0.1956
H4 H 1.0616 0.7561 0.0736
C8 C 1.0018(4) 0.6627(2) 0.0752(3)
C9 C 1.3279(3) 0.8818(2) 0.36884(19)
H5 H 1.3216 0.8042 0.3036
H6 H 1.3082 0.9605 0.4145
C10 C 0.9542(3) 0.6260(2) 0.1036(2)
H7 H 0.8998 0.6369 0.1693
H8 H 1.0161 0.6411 0.0434
C11 C 1.3982(3) 0.8803(2) 0.4236(2)
C12 C 0.9213(3) 0.5536(2) 0.0820(2)
O1 O 1.43735(19) 0.83684(15) 0.40972(13)
C13 C 1.4319(3) 0.9122(2) 0.4866(2)
O2 O 0.8864(2) 0.52090(14) 0.11901(15)
C14 C 0.9116(4) 0.5088(2) 0.0293(3)
C15 C 1.4990(3) 0.8422(2) 0.46726(19)
C16 C 1.4976(3) 0.8873(2) 0.5162(2)
H9 H 1.4154 0.9445 0.5069
C17 C 0.8517(3) 0.4546(2) 0.0869(2)
H10 H 0.9323 0.5190 -0.0025
C18 C 0.8651(3) 0.4445(2) 0.0305(2)
C19 C 1.5550(3) 0.8084(2) 0.47616(19)
C20 C 1.5554(3) 0.8968(2) 0.57786(19)
C21 C 0.8046(3) 0.40448(19) 0.1038(2)
C22 C 0.8283(3) 0.3799(2) -0.0093(2)
N5 N 1.6106(2) 0.81811(16) 0.53513(15)
H11 H 1.5542 0.7786 0.4410
C23 C 1.6093(3) 0.86096(18) 0.58561(18)
H12 H 1.5576 0.9270 0.6133
N6 N 0.7653(2) 0.34154(17) 0.06330(16)
H13 H 0.7993 0.4133 0.1436
H14 H 0.8377 0.3699 -0.0474
C24 C 0.7772(3) 0.3301(2) 0.0079(2)
Fe1 Fe 1.70133(4) 0.77885(3) 0.56034(2)
C25 C 1.6700(3) 0.86292(19) 0.64719(18)
Fe2 Fe 0.67591(4) 0.26649(3) 0.07026(3)
C26 C 0.7258(3) 0.2613(2) -0.0328(2)
N7 N 1.7912(2) 0.74890(16) 0.61156(16)
N8 N 1.7148(2) 0.82288(15) 0.64161(15)
N9 N 1.6080(2) 0.69192(16) 0.54245(16)
N10 N 1.6910(2) 0.73797(15) 0.47848(15)
N11 N 1.7861(2) 0.85460(15) 0.55043(15)
C27 C 1.6842(3) 0.8999(2) 0.70747(19)
N12 N 0.7610(2) 0.23471(15) 0.12385(15)
N13 N 0.6850(2) 0.30996(15) 0.15070(16)
N14 N 0.5896(2) 0.30890(16) 0.04262(15)
N15 N 0.6724(2) 0.22641(16) -0.00928(16)
N16 N 0.5797(2) 0.18090(16) 0.04880(15)
C28 C 0.7270(3) 0.2320(2) -0.0905(2)
C29 C 1.8200(3) 0.70411(19) 0.58862(19)
C30 C 1.8157(3) 0.77190(19) 0.67598(18)
C31 C 1.7747(3) 0.81810(19) 0.69370(19)
C32 C 1.5677(3) 0.6747(2) 0.58107(19)
C33 C 1.5807(3) 0.6496(2) 0.48297(19)
C34 C 1.6321(3) 0.67619(19) 0.44739(19)
C35 C 1.7410(3) 0.7732(2) 0.4522(2)
C36 C 1.7934(3) 0.84222(19) 0.49241(19)
C37 C 1.8234(3) 0.9167(2) 0.58861(19)
C38 C 1.7436(3) 0.8939(2) 0.7604(2)
H15 H 1.6534 0.9286 0.7119
C39 C 0.7923(3) 0.1906(2) 0.1032(2)
C40 C 0.7815(3) 0.25718(19) 0.18816(19)
C41 C 0.7411(3) 0.30358(19) 0.20319(19)
C42 C 0.6405(3) 0.3500(2) 0.15469(19)
C43 C 0.5856(3) 0.35048(19) 0.09155(19)
C44 C 0.5403(3) 0.3017(2) -0.01770(19)
C45 C 0.6152(3) 0.1637(2) -0.0417(2)
C46 C 0.5586(3) 0.1369(2) -0.00880(19)
C47 C 0.5313(3) 0.1640(2) 0.08299(19)
H16 H 0.7659 0.2563 -0.1069
C48 C 0.6710(3) 0.1674(2) -0.1232(2)
H17 H 1.8051 0.6886 0.5443
C49 C 1.8718(3) 0.6810(2) 0.6310(2)
C50 C 1.8687(3) 0.7509(2) 0.7196(2)
C51 C 1.7904(3) 0.8533(2) 0.7542(2)
H18 H 1.5871 0.7030 0.6227
C52 C 1.4976(3) 0.6149(2) 0.5589(2)
C53 C 1.5103(3) 0.5896(2) 0.4590(2)
C54 C 1.6223(3) 0.6444(2) 0.3870(2)
C55 C 1.7355(3) 0.7450(2) 0.3924(2)
C56 C 1.8394(3) 0.8910(2) 0.4722(2)
C57 C 1.8667(3) 0.96687(19) 0.5691(2)
H19 H 1.8200 0.9262 0.6290
H20 H 1.7526 0.9178 0.8015
H21 H 0.7800 0.1755 0.0592
C58 C 0.8429(3) 0.1675(2) 0.1466(2)
C59 C 0.8347(3) 0.23721(19) 0.23314(19)
C60 C 0.7539(3) 0.3384(2) 0.2638(2)
C61 C 0.6493(3) 0.3850(2) 0.2132(2)
C62 C 0.5345(3) 0.3887(2) 0.08175(19)
C63 C 0.4870(3) 0.3376(2) -0.02868(18)
H22 H 0.5421 0.2727 -0.0520
C64 C 0.6139(3) 0.1326(2) -0.0989(2)
C65 C 0.4896(3) 0.0765(2) -0.0346(2)
C66 C 0.4632(3) 0.1037(2) 0.0591(2)
H23 H 0.5442 0.1933 0.1228
H24 H 0.6711 0.1465 -0.1624
O3 O 1.9006(2) 0.63146(14) 0.61512(13)
C67 C 1.8978(3) 0.7030(2) 0.6963(2)
H25 H 1.8850 0.7683 0.7639
H26 H 1.8321 0.8498 0.7907
O4 O 1.4484(2) 0.59088(14) 0.59061(14)
C68 C 1.4658(3) 0.5716(2) 0.4982(2)
H27 H 1.4925 0.5615 0.4174
H28 H 1.5808 0.6003 0.3647
C69 C 1.6756(4) 0.6796(3) 0.3602(2)
H29 H 1.7711 0.7692 0.3738
H30 H 1.8458 0.8804 0.4330
C70 C 1.8759(3) 0.9560(2) 0.5112(2)
O5 O 1.8984(2) 1.03244(14) 0.59993(15)
O6 O 0.8761(2) 0.12100(15) 0.13270(14)
C71 C 0.8654(3) 0.1902(2) 0.2119(2)
H31 H 0.8497 0.2551 0.2772
H32 H 0.7935 0.3344 0.3010
C72 C 0.7070(4) 0.3790(3) 0.2679(2)
H33 H 0.6167 0.4125 0.2161
H34 H 0.5339 0.4179 0.1166
C73 C 0.4842(3) 0.3832(2) 0.01941(19)
O7 O 0.4328(2) 0.33552(15) -0.08708(13)
H35 H 0.5746 0.0880 -0.1214
H36 H 0.4768 0.0478 -0.0747
C74 C 0.4383(3) 0.0589(2) 0.0008(2)
O8 O 0.4082(2) 0.07935(14) 0.08826(14)
C75 C 1.9457(3) 0.6231(2) 0.6725(2)
C76 C 1.9457(3) 0.6642(2) 0.7223(2)
C77 C 1.3822(3) 0.5324(2) 0.5483(2)
C78 C 1.3905(3) 0.5184(2) 0.4924(2)
H37 H 1.6712 0.6588 0.3193
C79 C 1.9176(3) 1.0205(2) 0.5067(2)
C80 C 1.9289(3) 1.0642(2) 0.5601(2)
C81 C 0.9198(3) 0.1127(2) 0.1911(2)
C82 C 0.9164(3) 0.1531(2) 0.2397(2)
H38 H 0.7141 0.4031 0.3085
C83 C 0.4248(3) 0.4114(2) -0.0128(2)
C84 C 0.3961(3) 0.3819(2) -0.0750(2)
C85 C 0.3620(3) 0.0043(2) -0.0073(2)
C86 C 0.3468(3) 0.0186(2) 0.0466(2)
C87 C 1.9782(3) 0.5690(2) 0.6691(2)
H39 H 1.9721 0.6669 0.7659
C88 C 1.3198(3) 0.4962(2) 0.5718(2)
H40 H 1.3536 0.4807 0.4565
H41 H 1.9341 1.0307 0.4731
C89 C 1.9647(3) 1.1372(2) 0.5835(2)
C90 C 0.9610(3) 0.0636(2) 0.1884(2)
H42 H 0.9424 0.1567 0.2835
H43 H 0.4087 0.4448 0.0063
C91 C 0.3304(3) 0.38536(19) -0.13177(19)
H44 H 0.3287 -0.0341 -0.0430
C92 C 0.2833(3) -0.0173(2) 0.0690(2)
C93 C 1.9756(4) 0.5338(2) 0.6139(2)
C94 C 2.0137(4) 0.5516(2) 0.7237(2)
C95 C 1.3397(3) 0.5040(2) 0.6356(2)
C96 C 1.2367(3) 0.4521(2) 0.5290(2)
C97 C 1.9619(3) 1.1702(2) 0.6372(2)
C98 C 2.0026(3) 1.1744(2) 0.5494(2)
C99 C 0.9746(4) 0.0391(2) 0.1352(2)
C100 C 0.9860(3) 0.0388(2) 0.2402(2)
C101 C 0.2897(3) 0.3335(2) -0.1873(2)
C102 C 0.3086(3) 0.4415(2) -0.1308(2)
C103 C 0.3033(3) -0.0060(2) 0.1336(2)
C104 C 0.2015(3) -0.0643(2) 0.0267(2)
H45 H 1.9521 0.5443 0.5755
C105 C 2.0071(4) 0.4832(3) 0.6134(2)
C106 C 2.0425(4) 0.4995(3) 0.7195(2)
H46 H 2.0182 0.5754 0.7635
H47 H 1.3954 0.5345 0.6664
C107 C 1.2769(3) 0.4664(2) 0.6542(2)
C108 C 1.1781(3) 0.4182(2) 0.5512(2)
H48 H 1.2207 0.4456 0.4846
H49 H 1.9362 1.1462 0.6611
C109 C 1.9969(4) 1.2390(2) 0.6568(2)
C110 C 2.0361(3) 1.2427(2) 0.5724(2)
H50 H 2.0051 1.1530 0.5114
H51 H 0.9600 0.0556 0.0995
C111 C 1.0097(3) -0.0098(3) 0.1346(2)
C112 C 1.0194(3) -0.0104(2) 0.2346(2)
H52 H 0.9800 0.0554 0.2783
H53 H 0.3041 0.2949 -0.1898
C113 C 0.2276(3) 0.3388(2) -0.2392(2)
C114 C 0.2470(3) 0.4424(2) -0.1847(2)
H54 H 0.3359 0.4783 -0.0935
H55 H 0.3575 0.0267 0.1642
C115 C 0.2404(3) -0.0446(2) 0.1517(2)
C116 C 0.1444(3) -0.0989(2) 0.0503(2)
H56 H 0.1853 -0.0725 -0.0178
N17 N 2.0403(3) 0.4655(2) 0.6656(2)
H57 H 2.0050 0.4597 0.5743
H58 H 2.0649 0.4873 0.7570
N18 N 1.1975(3) 0.42545(18) 0.61309(19)
H59 H 1.2917 0.4704 0.6981
H60 H 1.1214 0.3883 0.5215
N19 N 2.0340(3) 1.27512(18) 0.62512(18)
H61 H 1.9944 1.2616 0.6945
H62 H 2.0621 1.2680 0.5494
H63 H 1.0192 -0.0259 0.0979
H64 H 1.0354 -0.0275 0.2698
N20 N 0.2055(2) 0.39232(18) -0.23952(17)
H65 H 0.1988 0.3024 -0.2769
H66 H 0.2324 0.4809 -0.1836
H67 H 0.2549 -0.0379 0.1960
H68 H 0.0890 -0.1311 0.0209
Ag2 Ag 2.09824(2) 0.387449(15) 0.662515(17)
N3_2 N 1.0309(3) -0.03558(18) 0.18317(18)
N4_2 N 0.1630(3) -0.08944(19) 0.11276(18)
Ag2_2 Ag 1.09824(2) 0.387449(15) 0.662515(17)
Ag2_3 Ag 2.09824(2) 1.387449(15) 0.662515(17)
Ag1_2 Ag 1.07168(2) -0.123449(15) 0.171788(16)
Ag2_4 Ag 0.09824(2) 0.387449(15) -0.337485(17)
Ag1_3 Ag 0.07168(2) -0.123449(15) 0.171788(16)
N20_2 N 2.2055(2) 1.39232(18) 0.76048(17)
N18_2 N 2.1975(3) 1.42545(18) 0.61309(19)
N17_2 N 2.0403(3) 1.4655(2) 0.6656(2)
loop_
_geom_bond_atom_site_label_1
_geom_bond_atom_site_label_2
_geom_bond_site_symmetry_1
_geom_bond_site_symmetry_2
Ag1 N1 1_555 1_555
N1 C1 1_555 1_555
N2 Ag1 1_555 1_555
N3 Ag1 1_555 1_555
N4 Ag1 1_555 1_555
C1 C5 1_555 1_555
C2 N1 1_555 1_555
C3 N2 1_555 1_555
C4 N2 1_555 1_555
C5 C9 1_555 1_555
H1 C1 1_555 1_555
H2 C2 1_555 1_555
C6 C2 1_555 1_555
C7 C3 1_555 1_555
H3 C3 1_555 1_555
H4 C4 1_555 1_555
C8 C4 1_555 1_555
C9 C6 1_555 1_555
H5 C5 1_555 1_555
H6 C6 1_555 1_555
C10 C7 1_555 1_555
H7 C7 1_555 1_555
H8 C8 1_555 1_555
C11 C9 1_555 1_555
C12 C10 1_555 1_555
O1 C11 1_555 1_555
C13 C11 1_555 1_555
O2 C12 1_555 1_555
C14 C12 1_555 1_555
C15 O1 1_555 1_555
C16 C13 1_555 1_555
H9 C13 1_555 1_555
C17 O2 1_555 1_555
H10 C14 1_555 1_555
C18 C14 1_555 1_555
C19 C15 1_555 1_555
C20 C16 1_555 1_555
C21 C17 1_555 1_555
C22 C18 1_555 1_555
N5 C19 1_555 1_555
H11 C19 1_555 1_555
C23 C20 1_555 1_555
H12 C20 1_555 1_555
N6 C21 1_555 1_555
H13 C21 1_555 1_555
H14 C22 1_555 1_555
C24 C22 1_555 1_555
Fe1 N5 1_555 1_555
C25 C23 1_555 1_555
Fe2 N6 1_555 1_555
C26 C24 1_555 1_555
N7 Fe1 1_555 1_555
N8 Fe1 1_555 1_555
N9 Fe1 1_555 1_555
N10 Fe1 1_555 1_555
N11 Fe1 1_555 1_555
C27 C25 1_555 1_555
N12 Fe2 1_555 1_555
N13 Fe2 1_555 1_555
N14 Fe2 1_555 1_555
N15 Fe2 1_555 1_555
N16 Fe2 1_555 1_555
C28 C26 1_555 1_555
C29 N7 1_555 1_555
C30 N7 1_555 1_555
C31 N8 1_555 1_555
C32 N9 1_555 1_555
C33 N9 1_555 1_555
C34 N10 1_555 1_555
C35 N10 1_555 1_555
C36 N11 1_555 1_555
C37 N11 1_555 1_555
C38 C27 1_555 1_555
H15 C27 1_555 1_555
C39 N12 1_555 1_555
C40 N12 1_555 1_555
C41 N13 1_555 1_555
C42 N13 1_555 1_555
C43 N14 1_555 1_555
C44 N14 1_555 1_555
C45 N15 1_555 1_555
C46 N16 1_555 1_555
C47 N16 1_555 1_555
H16 C28 1_555 1_555
C48 C28 1_555 1_555
H17 C29 1_555 1_555
C49 C29 1_555 1_555
C50 C30 1_555 1_555
C51 C31 1_555 1_555
H18 C32 1_555 1_555
C52 C32 1_555 1_555
C53 C33 1_555 1_555
C54 C34 1_555 1_555
C55 C35 1_555 1_555
C56 C36 1_555 1_555
C57 C37 1_555 1_555
H19 C37 1_555 1_555
H20 C38 1_555 1_555
H21 C39 1_555 1_555
C58 C39 1_555 1_555
C59 C40 1_555 1_555
C60 C41 1_555 1_555
C61 C42 1_555 1_555
C62 C43 1_555 1_555
C63 C44 1_555 1_555
H22 C44 1_555 1_555
C64 C45 1_555 1_555
C65 C46 1_555 1_555
C66 C47 1_555 1_555
H23 C47 1_555 1_555
H24 C48 1_555 1_555
O3 C49 1_555 1_555
C67 C49 1_555 1_555
H25 C50 1_555 1_555
H26 C51 1_555 1_555
O4 C52 1_555 1_555
C68 C52 1_555 1_555
H27 C53 1_555 1_555
H28 C54 1_555 1_555
C69 C54 1_555 1_555
H29 C55 1_555 1_555
H30 C56 1_555 1_555
C70 C56 1_555 1_555
O5 C57 1_555 1_555
O6 C58 1_555 1_555
C71 C58 1_555 1_555
H31 C59 1_555 1_555
H32 C60 1_555 1_555
C72 C60 1_555 1_555
H33 C61 1_555 1_555
H34 C62 1_555 1_555
C73 C62 1_555 1_555
O7 C63 1_555 1_555
H35 C64 1_555 1_555
H36 C65 1_555 1_555
C74 C65 1_555 1_555
O8 C66 1_555 1_555
C75 O3 1_555 1_555
C76 C67 1_555 1_555
C77 O4 1_555 1_555
C78 C68 1_555 1_555
H37 C69 1_555 1_555
C79 C70 1_555 1_555
C80 O5 1_555 1_555
C81 O6 1_555 1_555
C82 C71 1_555 1_555
H38 C72 1_555 1_555
C83 C73 1_555 1_555
C84 O7 1_555 1_555
C85 C74 1_555 1_555
C86 O8 1_555 1_555
C87 C75 1_555 1_555
H39 C76 1_555 1_555
C88 C77 1_555 1_555
H40 C78 1_555 1_555
H41 C79 1_555 1_555
C89 C80 1_555 1_555
C90 C81 1_555 1_555
H42 C82 1_555 1_555
H43 C83 1_555 1_555
C91 C84 1_555 1_555
H44 C85 1_555 1_555
C92 C86 1_555 1_555
C93 C87 1_555 1_555
C94 C87 1_555 1_555
C95 C88 1_555 1_555
C96 C88 1_555 1_555
C97 C89 1_555 1_555
C98 C89 1_555 1_555
C99 C90 1_555 1_555
C100 C90 1_555 1_555
C101 C91 1_555 1_555
C102 C91 1_555 1_555
C103 C92 1_555 1_555
C104 C92 1_555 1_555
H45 C93 1_555 1_555
C105 C93 1_555 1_555
C106 C94 1_555 1_555
H46 C94 1_555 1_555
H47 C95 1_555 1_555
C107 C95 1_555 1_555
C108 C96 1_555 1_555
H48 C96 1_555 1_555
H49 C97 1_555 1_555
C109 C97 1_555 1_555
C110 C98 1_555 1_555
H50 C98 1_555 1_555
H51 C99 1_555 1_555
C111 C99 1_555 1_555
C112 C100 1_555 1_555
H52 C100 1_555 1_555
H53 C101 1_555 1_555
C113 C101 1_555 1_555
C114 C102 1_555 1_555
H54 C102 1_555 1_555
H55 C103 1_555 1_555
C115 C103 1_555 1_555
C116 C104 1_555 1_555
H56 C104 1_555 1_555
N17 C105 1_555 1_555
H57 C105 1_555 1_555
H58 C106 1_555 1_555
N18 C107 1_555 1_555
H59 C107 1_555 1_555
H60 C108 1_555 1_555
N19 C109 1_555 1_555
H61 C109 1_555 1_555
H62 C110 1_555 1_555
H63 C111 1_555 1_555
H64 C112 1_555 1_555
N20 C113 1_555 1_555
H65 C113 1_555 1_555
H66 C114 1_555 1_555
H67 C115 1_555 1_555
H68 C116 1_555 1_555
Ag2 N17 1_555 1_555
P1 F1 1_555 1_555
F2 P1 1_555 1_555
F3 P1 1_555 1_555
F4 P1 1_555 1_555
F5 P1 1_555 1_555
F6 P1 1_555 1_555
P2 F7 1_555 1_555
F8 P2 1_555 1_555
F9 P2 1_555 1_555
F10 P2 1_555 1_555
F11 P2 1_555 1_555
F12 P2 1_555 1_555
P3 F13 1_555 1_555
F14 P3 1_555 1_555
F15 P3 1_555 1_555
F16 P3 1_555 1_555
F17 P3 1_555 1_555
F18 P3 1_555 1_555
P4 F19 1_555 1_555
F20 P4 1_555 1_555
F21 P4 1_555 1_555
F22 P4 1_555 1_555
F23 P4 1_555 1_555
F24 P4 1_555 1_555
P5 F25 1_555 1_555
F26 P5 1_555 1_555
F27 P5 1_555 1_555
F28 P5 1_555 1_555
F29 P5 1_555 1_555
F30 P5 1_555 1_555
P6 F31 1_555 1_555
F32 P6 1_555 1_555
F33 P6 1_555 1_555
F34 P6 1_555 1_555
F35 P6 1_555 1_555
F36 P6 1_555 1_555
N3_2 C111 1_555 1_555
N4_2 C115 1_555 1_555
Ag2_2 N18 1_555 1_555
Ag2_3 N19 1_555 1_555
Ag1_2 N3_2 1_555 1_555
Ag2_4 N20 1_555 1_555
Ag1_3 N4_2 1_555 1_555
N20_2 Ag2_3 1_555 1_555
N18_2 Ag2_3 1_555 1_555
N17_2 Ag2_3 1_555 1_555
C8 C10 1_555 1_555
C15 C16 1_555 1_555
C17 C18 1_555 1_555
N5 C23 1_555 1_555
N6 C24 1_555 1_555
C25 N8 1_555 1_555
C26 N15 1_555 1_555
C30 C31 1_555 1_555
C33 C34 1_555 1_555
C35 C36 1_555 1_555
C38 C51 1_555 1_555
C40 C41 1_555 1_555
C42 C43 1_555 1_555
C45 C46 1_555 1_555
C48 C64 1_555 1_555
C50 C67 1_555 1_555
C53 C68 1_555 1_555
C55 C69 1_555 1_555
C57 C70 1_555 1_555
C59 C71 1_555 1_555
C61 C72 1_555 1_555
C63 C73 1_555 1_555
C66 C74 1_555 1_555
C75 C76 1_555 1_555
C77 C78 1_555 1_555
C79 C80 1_555 1_555
C81 C82 1_555 1_555
C83 C84 1_555 1_555
C85 C86 1_555 1_555
C106 N17 1_555 1_555
C108 N18 1_555 1_555
C110 N19 1_555 1_555
C112 N3_2 1_555 1_555
C114 N20 1_555 1_555
C116 N4_2 1_555 1_555

#END
