
#######################################################################
#
#                 Cambridge Crystallographic Data Centre
#                                CCDC 
#
#######################################################################
#
# If this CIF has been generated from an entry in the Cambridge 
# Structural Database, then it will include bibliographic, chemical, 
# crystal, experimental, refinement or atomic coordinate data resulting 
# from the CCDC's data processing and validation procedures.
#
#######################################################################

data_MECVUM
_chemical_formula_moiety         '(C1 H6 Ga3 Mn6 N1 O51 P12 4-)n'
_symmetry_cell_setting           cubic
_symmetry_space_group_name_H-M   'I -4 3 m'
_symmetry_Int_Tables_number      217
_space_group_name_Hall           'I -4 2 3'
loop_
_symmetry_equiv_pos_site_id
_symmetry_equiv_pos_as_xyz
1 x,y,z
2 -x,-y,z
3 -x,y,-z
4 x,-y,-z
5 z,x,y
6 z,-x,-y
7 -z,-x,y
8 -z,x,-y
9 y,z,x
10 -y,z,-x
11 y,-z,-x
12 -y,-z,x
13 y,x,z
14 -y,-x,z
15 y,-x,-z
16 -y,x,-z
17 x,z,y
18 -x,z,-y
19 -x,-z,y
20 x,-z,-y
21 z,y,x
22 z,-y,-x
23 -z,y,-x
24 -z,-y,x
25 1/2+x,1/2+y,1/2+z
26 1/2-x,1/2-y,1/2+z
27 1/2-x,1/2+y,1/2-z
28 1/2+x,1/2-y,1/2-z
29 1/2+z,1/2+x,1/2+y
30 1/2+z,1/2-x,1/2-y
31 1/2-z,1/2-x,1/2+y
32 1/2-z,1/2+x,1/2-y
33 1/2+y,1/2+z,1/2+x
34 1/2-y,1/2+z,1/2-x
35 1/2+y,1/2-z,1/2-x
36 1/2-y,1/2-z,1/2+x
37 1/2+y,1/2+x,1/2+z
38 1/2-y,1/2-x,1/2+z
39 1/2+y,1/2-x,1/2-z
40 1/2-y,1/2+x,1/2-z
41 1/2+x,1/2+z,1/2+y
42 1/2-x,1/2+z,1/2-y
43 1/2-x,1/2-z,1/2+y
44 1/2+x,1/2-z,1/2-y
45 1/2+z,1/2+y,1/2+x
46 1/2+z,1/2-y,1/2-x
47 1/2-z,1/2+y,1/2-x
48 1/2-z,1/2-y,1/2+x
_cell_length_a                   16.94400(10)
_cell_length_b                   16.94400(10)
_cell_length_c                   16.94400(10)
_cell_angle_alpha                90
_cell_angle_beta                 90
_cell_angle_gamma                90
_cell_volume                     4864.61
loop_
_atom_site_label
_atom_site_type_symbol
_atom_site_fract_x
_atom_site_fract_y
_atom_site_fract_z
C2 C -0.14389(19) 0.3256(3) -0.14389(19)
N2 N -0.1947(2) 0.37350(16) -0.19465(16)
O4 O 0.0000 0.0000 0.0000
O5 O -0.0950(4) 0.0950(4) 0.0950(4)
O6 O -0.0537(6) 0.0537(6) 0.2426(5)
Ga1 Ga 0.0000 0.5000 0.0000
Mn1 Mn -0.2500 0.5000 0.0000
P1 P -0.12399(3) 0.56587(4) -0.12399(3)
O1 O -0.14550(15) 0.64854(17) -0.14550(15)
O2 O -0.19457(12) 0.51755(14) -0.09450(13)
O3 O -0.05985(11) 0.56863(18) -0.05985(11)
Ga1BA Ga -0.5000 0.5000 0.0000
Ga1FA Ga 0.0000 0.5000 -0.5000
Ga1BA_2 Ga 0.5000 0.5000 0.0000
Ga1FA_2 Ga 0.0000 0.5000 0.5000
Mn1T Mn 0.0000 0.5000 -0.2500
Mn1A Mn 0.2500 0.5000 0.0000
Mn1U Mn 0.0000 0.5000 0.2500
Mn1M Mn -0.5000 0.2500 0.0000
Mn1L Mn -0.5000 0.7500 0.0000
Mn1E Mn 0.0000 0.2500 -0.5000
Mn1D Mn 0.0000 0.7500 -0.5000
Mn1L_2 Mn 0.5000 0.7500 0.0000
Mn1M_2 Mn 0.5000 0.2500 0.0000
Mn1E_2 Mn 0.0000 0.2500 0.5000
Mn1D_2 Mn 0.0000 0.7500 0.5000
P1A P 0.12399(3) 0.43413(4) -0.12399(3)
P1B P 0.12399(3) 0.56587(4) 0.12399(3)
P1C P -0.12399(3) 0.43413(4) 0.12399(3)
P1EA P -0.37601(3) 0.37601(3) -0.06587(4)
P1DA P -0.37601(3) 0.62399(3) 0.06587(4)
P1GA P -0.06587(4) 0.37601(3) -0.37601(3)
P1HA P 0.06587(4) 0.62399(3) -0.37601(3)
P1CA P 0.37601(3) 0.62399(3) -0.06587(4)
P1BA P 0.37601(3) 0.37601(3) 0.06587(4)
P1FA P 0.06587(4) 0.37601(3) 0.37601(3)
P1IA P -0.06587(4) 0.62399(3) 0.37601(3)
O1A O 0.14550(15) 0.35146(17) -0.14550(15)
O1B O 0.14550(15) 0.64854(17) 0.14550(15)
O1C O -0.14550(15) 0.35146(17) 0.14550(15)
O1EA O -0.35450(15) 0.35450(15) -0.14854(17)
O1DA O -0.35450(15) 0.64550(15) 0.14854(17)
O1GA O -0.14854(17) 0.35450(15) -0.35450(15)
O1HA O 0.14854(17) 0.64550(15) -0.35450(15)
O1CA O 0.35450(15) 0.64550(15) -0.14854(17)
O1BA O 0.35450(15) 0.35450(15) 0.14854(17)
O1FA O 0.14854(17) 0.35450(15) 0.35450(15)
O1IA O -0.14854(17) 0.64550(15) 0.35450(15)
O2T O -0.09450(13) 0.51755(14) -0.19457(12)
O2A O 0.19457(12) 0.48245(14) -0.09450(13)
O2W O 0.09450(13) 0.48245(14) -0.19457(12)
O2B O 0.19457(12) 0.51755(14) 0.09450(13)
O2V O 0.09450(13) 0.51755(14) 0.19457(12)
O2C O -0.19457(12) 0.48245(14) 0.09450(13)
O2U O -0.09450(13) 0.48245(14) 0.19457(12)
O2OA O -0.30543(12) 0.40550(13) -0.01755(14)
O2EA O -0.40550(13) 0.30543(12) -0.01755(14)
O2PA O -0.30543(12) 0.59450(13) 0.01755(14)
O2DA O -0.40550(13) 0.69457(12) 0.01755(14)
O2GA O -0.01755(14) 0.40550(13) -0.30543(12)
O2MA O -0.01755(14) 0.30543(12) -0.40550(13)
O2HA O 0.01755(14) 0.59450(13) -0.30543(12)
O2LA O 0.01755(14) 0.69457(12) -0.40550(13)
O2QA O 0.30543(12) 0.59450(13) -0.01755(14)
O2CA O 0.40550(13) 0.69457(12) -0.01755(14)
O2NA O 0.30543(12) 0.40550(13) 0.01755(14)
O2BA O 0.40550(13) 0.30543(12) 0.01755(14)
O2FA O 0.01755(14) 0.40550(13) 0.30543(12)
O2JA O 0.01755(14) 0.30543(12) 0.40550(13)
O2IA O -0.01755(14) 0.59450(13) 0.30543(12)
O2KA O -0.01755(14) 0.69457(12) 0.40550(13)
O2M O -0.51755(14) 0.19457(12) -0.09450(13)
O2N O -0.48245(14) 0.19457(12) 0.09450(13)
O2BA_2 O -0.59450(13) 0.30543(12) 0.01755(14)
O2L O -0.48245(14) 0.80543(12) -0.09450(13)
O2O O -0.51755(14) 0.80543(12) 0.09450(13)
O2CA_2 O -0.59450(13) 0.69457(12) -0.01755(14)
O3A O 0.05985(11) 0.43137(18) -0.05985(11)
O3B O 0.05985(11) 0.56863(18) 0.05985(11)
O3C O -0.05985(11) 0.43137(18) 0.05985(11)
O3EA O -0.44015(11) 0.44015(11) -0.06863(18)
O3DA O -0.44015(11) 0.55985(11) 0.06863(18)
O3GA O -0.06863(18) 0.44015(11) -0.44015(11)
O3HA O 0.06863(18) 0.55985(11) -0.44015(11)
O3CA O 0.44015(11) 0.55985(11) -0.06863(18)
O3BA O 0.44015(11) 0.44015(11) 0.06863(18)
O3FA O 0.06863(18) 0.44015(11) 0.44015(11)
O3IA O -0.06863(18) 0.55985(11) 0.44015(11)
O3BA_2 O -0.55985(11) 0.44015(11) 0.06863(18)
O3CA_2 O -0.55985(11) 0.55985(11) -0.06863(18)
O3FA_2 O 0.06863(18) 0.44015(11) -0.55985(11)
O3IA_2 O -0.06863(18) 0.55985(11) -0.55985(11)
loop_
_geom_bond_atom_site_label_1
_geom_bond_atom_site_label_2
_geom_bond_site_symmetry_1
_geom_bond_site_symmetry_2
Ga1 O3 1_555 1_555
Mn1 O2 1_555 1_555
P1 O1 1_555 1_555
O2 P1 1_555 1_555
O3 P1 1_555 1_555
C2 N2 1_555 1_555
Ga1BA O3EA 1_555 1_555
Ga1FA O3GA 1_555 1_555
Ga1BA_2 O3CA 1_555 1_555
Ga1FA_2 O3FA 1_555 1_555
Mn1T O2T 1_555 1_555
Mn1A O2A 1_555 1_555
Mn1U O2V 1_555 1_555
Mn1M O2EA 1_555 1_555
Mn1L O2DA 1_555 1_555
Mn1E O2MA 1_555 1_555
Mn1D O2LA 1_555 1_555
Mn1L_2 O2CA 1_555 1_555
Mn1M_2 O2BA 1_555 1_555
Mn1E_2 O2JA 1_555 1_555
Mn1D_2 O2KA 1_555 1_555
P1A O1A 1_555 1_555
P1B O1B 1_555 1_555
P1C O1C 1_555 1_555
P1EA O1EA 1_555 1_555
P1DA O1DA 1_555 1_555
P1GA O1GA 1_555 1_555
P1HA O1HA 1_555 1_555
P1CA O1CA 1_555 1_555
P1BA O1BA 1_555 1_555
P1FA O1FA 1_555 1_555
P1IA O1IA 1_555 1_555
O2T P1 1_555 1_555
O2A P1A 1_555 1_555
O2W Mn1T 1_555 1_555
O2B Mn1A 1_555 1_555
O2V P1B 1_555 1_555
O2C Mn1 1_555 1_555
O2U Mn1U 1_555 1_555
O2OA Mn1 1_555 1_555
O2EA P1EA 1_555 1_555
O2PA Mn1 1_555 1_555
O2DA P1DA 1_555 1_555
O2GA Mn1T 1_555 1_555
O2MA P1GA 1_555 1_555
O2HA Mn1T 1_555 1_555
O2LA P1HA 1_555 1_555
O2QA Mn1A 1_555 1_555
O2CA P1CA 1_555 1_555
O2NA Mn1A 1_555 1_555
O2BA P1BA 1_555 1_555
O2FA Mn1U 1_555 1_555
O2JA P1FA 1_555 1_555
O2IA Mn1U 1_555 1_555
O2KA P1IA 1_555 1_555
O2M Mn1M 1_555 1_555
O2N Mn1M 1_555 1_555
O2BA_2 Mn1M 1_555 1_555
O2L Mn1L 1_555 1_555
O2O Mn1L 1_555 1_555
O2CA_2 Mn1L 1_555 1_555
O3A Ga1 1_555 1_555
O3B Ga1 1_555 1_555
O3C Ga1 1_555 1_555
O3EA P1EA 1_555 1_555
O3DA Ga1BA 1_555 1_555
O3GA P1GA 1_555 1_555
O3HA Ga1FA 1_555 1_555
O3CA P1CA 1_555 1_555
O3BA Ga1BA_2 1_555 1_555
O3FA P1FA 1_555 1_555
O3IA Ga1FA_2 1_555 1_555
O3BA_2 Ga1BA 1_555 1_555
O3CA_2 Ga1BA 1_555 1_555
O3FA_2 Ga1FA 1_555 1_555
O3IA_2 Ga1FA 1_555 1_555
P1A O2W 1_555 1_555
P1A O3A 1_555 1_555
P1B O2B 1_555 1_555
P1B O3B 1_555 1_555
P1C O2C 1_555 1_555
P1C O2U 1_555 1_555
P1C O3C 1_555 1_555
P1EA O2OA 1_555 1_555
P1DA O2PA 1_555 1_555
P1DA O3DA 1_555 1_555
P1GA O2GA 1_555 1_555
P1HA O2HA 1_555 1_555
P1HA O3HA 1_555 1_555
P1CA O2QA 1_555 1_555
P1BA O2NA 1_555 1_555
P1BA O3BA 1_555 1_555
P1FA O2FA 1_555 1_555
P1IA O2IA 1_555 1_555
P1IA O3IA 1_555 1_555

#END
