
#######################################################################
#
#                 Cambridge Crystallographic Data Centre
#                                CCDC 
#
#######################################################################
#
# If this CIF has been generated from an entry in the Cambridge 
# Structural Database, then it will include bibliographic, chemical, 
# crystal, experimental, refinement or atomic coordinate data resulting 
# from the CCDC's data processing and validation procedures.
#
#######################################################################

data_MECVOG
_chemical_formula_moiety         'C1 H6 Fe1 Ga1 N1 O13 P1'
_symmetry_cell_setting           cubic
_symmetry_space_group_name_H-M   'I -4 3 m'
_symmetry_Int_Tables_number      217
_space_group_name_Hall           'I -4 2 3'
loop_
_symmetry_equiv_pos_site_id
_symmetry_equiv_pos_as_xyz
1 x,y,z
2 -x,-y,z
3 -x,y,-z
4 x,-y,-z
5 z,x,y
6 z,-x,-y
7 -z,-x,y
8 -z,x,-y
9 y,z,x
10 -y,z,-x
11 y,-z,-x
12 -y,-z,x
13 y,x,z
14 -y,-x,z
15 y,-x,-z
16 -y,x,-z
17 x,z,y
18 -x,z,-y
19 -x,-z,y
20 x,-z,-y
21 z,y,x
22 z,-y,-x
23 -z,y,-x
24 -z,-y,x
25 1/2+x,1/2+y,1/2+z
26 1/2-x,1/2-y,1/2+z
27 1/2-x,1/2+y,1/2-z
28 1/2+x,1/2-y,1/2-z
29 1/2+z,1/2+x,1/2+y
30 1/2+z,1/2-x,1/2-y
31 1/2-z,1/2-x,1/2+y
32 1/2-z,1/2+x,1/2-y
33 1/2+y,1/2+z,1/2+x
34 1/2-y,1/2+z,1/2-x
35 1/2+y,1/2-z,1/2-x
36 1/2-y,1/2-z,1/2+x
37 1/2+y,1/2+x,1/2+z
38 1/2-y,1/2-x,1/2+z
39 1/2+y,1/2-x,1/2-z
40 1/2-y,1/2+x,1/2-z
41 1/2+x,1/2+z,1/2+y
42 1/2-x,1/2+z,1/2-y
43 1/2-x,1/2-z,1/2+y
44 1/2+x,1/2-z,1/2-y
45 1/2+z,1/2+y,1/2+x
46 1/2+z,1/2-y,1/2-x
47 1/2-z,1/2+y,1/2-x
48 1/2-z,1/2-y,1/2+x
_cell_length_a                   16.8701(3)
_cell_length_b                   16.8701(3)
_cell_length_c                   16.8701(3)
_cell_angle_alpha                90
_cell_angle_beta                 90
_cell_angle_gamma                90
_cell_volume                     4801.24
loop_
_atom_site_label
_atom_site_type_symbol
_atom_site_fract_x
_atom_site_fract_y
_atom_site_fract_z
_atom_site_U_iso_or_equiv
_atom_site_thermal_displace_type
C2 C -0.1760(3) 0.64231(18) 0.35769(18) 0.0417 Uani
N2 N -0.12812(15) 0.69375(19) 0.30625(15) 0.0416 Uani
O4 O 0.0000 1.0000 0.0000 0.0810 Uani
O5 O -0.0946(3) 0.9054(3) 0.0946(3) 0.0960 Uani
O6 O -0.0531(5) 0.9469(5) 0.2421(4) 0.2303 Uani
Ga1 Ga 0.0000 0.5000 0.5000 0.0205 Uani
Fe1 Fe 0.0000 0.5000 0.2500 0.0170 Uiso
P1 P 0.06541(4) 0.62451(3) 0.37549(3) 0.0203 Uani
O1 O 0.14853(17) 0.64631(14) 0.35369(14) 0.0536 Uani
O2 O 0.01704(14) 0.59499(12) 0.30414(11) 0.0406 Uani
O3 O 0.06784(16) 0.56019(11) 0.43981(11) 0.0367 Uani
O2A O -0.01704(14) 0.40501(12) 0.30414(11) 0.0406 Uani
O2LA O 0.09499(12) 0.48296(14) 0.19586(11) 0.0406 Uani
O2MA O -0.09499(12) 0.51704(14) 0.19586(11) 0.0406 Uani
O2S O 0.01704(14) 0.69586(11) 0.40501(12) 0.0406 Uani
O3A O -0.06784(16) 0.43981(11) 0.43981(11) 0.0367 Uani
O3B O -0.06784(16) 0.56019(11) 0.56019(11) 0.0367 Uani
O3C O 0.06784(16) 0.43981(11) 0.56019(11) 0.0367 Uani
loop_
_atom_site_aniso_label
_atom_site_aniso_U_11
_atom_site_aniso_U_22
_atom_site_aniso_U_33
_atom_site_aniso_U_23
_atom_site_aniso_U_13
_atom_site_aniso_U_12
C2 0.04 0.0425 0.0425 0.0048 -0.0114 0.0114
N2 0.0259 0.0495 0.0495 0.003 -0.008 0.008
O4 0.081(4) 0.081(4) 0.081(4) 0.000 0.000 0.000
O5 0.096(3) 0.096(3) 0.096(3) 0.008(3) 0.008(3) -0.008(3)
O6 0.311(10) 0.311(10) 0.069(4) 0.056(4) 0.056(4) -0.084(12)
Ga1 0.0216(3) 0.0199(2) 0.0199(2) 0.000 0.000 0.000
P1 0.0206(3) 0.0202(2) 0.0202(2) 0.0003(3) 0.00115(19) -0.00115(19)
O1 0.0252(13) 0.0678(15) 0.0678(15) 0.0345(17) 0.0083(8) -0.0083(8)
O2 0.0501(12) 0.0380(10) 0.0337(9) -0.0172(8) -0.0131(8) 0.0143(8)
O3 0.0318(12) 0.0391(9) 0.0391(9) 0.0185(12) 0.0034(7) -0.0034(7)
O2A 0.0501 0.038 0.0337 0.0172 0.0131 0.0143
O2LA 0.038 0.0501 0.0337 -0.0131 0.0172 -0.0143
O2MA 0.038 0.0501 0.0337 0.0131 -0.0172 -0.0143
O2S 0.0501 0.0337 0.038 -0.0172 -0.0143 0.0131
O3A 0.0318 0.0391 0.0391 -0.0185 -0.0034 -0.0034
O3B 0.0318 0.0391 0.0391 -0.0185 0.0034 0.0034
O3C 0.0318 0.0391 0.0391 0.0185 -0.0034 0.0034
loop_
_geom_bond_atom_site_label_1
_geom_bond_atom_site_label_2
_geom_bond_site_symmetry_1
_geom_bond_site_symmetry_2
Ga1 O3 1_555 1_555
Fe1 O2 1_555 1_555
P1 O1 1_555 1_555
O2 P1 1_555 1_555
O3 P1 1_555 1_555
C2 N2 1_555 1_555
O2A Fe1 1_555 1_555
O2LA Fe1 1_555 1_555
O2MA Fe1 1_555 1_555
O2S P1 1_555 1_555
O3A Ga1 1_555 1_555
O3B Ga1 1_555 1_555
O3C Ga1 1_555 1_555

#END
