
#######################################################################
#
#                 Cambridge Crystallographic Data Centre
#                                CCDC 
#
#######################################################################
#
# If this CIF has been generated from an entry in the Cambridge 
# Structural Database, then it will include bibliographic, chemical, 
# crystal, experimental, refinement or atomic coordinate data resulting 
# from the CCDC's data processing and validation procedures.
#
#######################################################################

data_REBRUM
_chemical_formula_moiety         '(C1 H6 Ga9 N1 O51 P12 4-)n'
_symmetry_cell_setting           cubic
_symmetry_space_group_name_H-M   'I -4 3 m'
_symmetry_Int_Tables_number      217
_space_group_name_Hall           'I -4 2 3'
loop_
_symmetry_equiv_pos_site_id
_symmetry_equiv_pos_as_xyz
1 x,y,z
2 -x,-y,z
3 -x,y,-z
4 x,-y,-z
5 z,x,y
6 z,-x,-y
7 -z,-x,y
8 -z,x,-y
9 y,z,x
10 -y,z,-x
11 y,-z,-x
12 -y,-z,x
13 y,x,z
14 -y,-x,z
15 y,-x,-z
16 -y,x,-z
17 x,z,y
18 -x,z,-y
19 -x,-z,y
20 x,-z,-y
21 z,y,x
22 z,-y,-x
23 -z,y,-x
24 -z,-y,x
25 1/2+x,1/2+y,1/2+z
26 1/2-x,1/2-y,1/2+z
27 1/2-x,1/2+y,1/2-z
28 1/2+x,1/2-y,1/2-z
29 1/2+z,1/2+x,1/2+y
30 1/2+z,1/2-x,1/2-y
31 1/2-z,1/2-x,1/2+y
32 1/2-z,1/2+x,1/2-y
33 1/2+y,1/2+z,1/2+x
34 1/2-y,1/2+z,1/2-x
35 1/2+y,1/2-z,1/2-x
36 1/2-y,1/2-z,1/2+x
37 1/2+y,1/2+x,1/2+z
38 1/2-y,1/2-x,1/2+z
39 1/2+y,1/2-x,1/2-z
40 1/2-y,1/2+x,1/2-z
41 1/2+x,1/2+z,1/2+y
42 1/2-x,1/2+z,1/2-y
43 1/2-x,1/2-z,1/2+y
44 1/2+x,1/2-z,1/2-y
45 1/2+z,1/2+y,1/2+x
46 1/2+z,1/2-y,1/2-x
47 1/2-z,1/2+y,1/2-x
48 1/2-z,1/2-y,1/2+x
_cell_length_a                   16.8306(3)
_cell_length_b                   16.8306(3)
_cell_length_c                   16.8306(3)
_cell_angle_alpha                90
_cell_angle_beta                 90
_cell_angle_gamma                90
_cell_volume                     4767.59
loop_
_atom_site_label
_atom_site_type_symbol
_atom_site_fract_x
_atom_site_fract_y
_atom_site_fract_z
C2 C 1.1711(4) 0.3547(3) 0.6453(3)
N2 N 1.1218(2) 0.3038(3) 0.6962(2)
O4 O 1.0000 0.0000 1.0000
O5 O 0.5946 0.4054 0.5946
O6 O 0.5538 0.4462 0.7368
Ga1 Ga 1.0000 0.5000 0.5000
Ga2 Ga 1.0000 0.5000 0.7500
P1 P 0.92977(6) 0.37768(4) 0.62232(4)
O1 O 0.8444(2) 0.35738(19) 0.64262(19)
O2 O 0.97569(18) 0.40691(16) 0.69480(15)
O3 O 0.9296(2) 0.44212(16) 0.55788(16)
Ga1BA Ga 1.0000 0.5000 1.0000
Ga1FA Ga 1.0000 0.0000 0.5000
Ga1FA_2 Ga 1.0000 1.0000 0.5000
Ga1BA_2 Ga 1.0000 0.5000 0.0000
Ga2R Ga 1.0000 0.2500 0.5000
Ga2P Ga 1.0000 0.7500 0.5000
Ga2B Ga 1.0000 0.5000 0.2500
Ga2T Ga 0.7500 0.5000 1.0000
Ga2V Ga 1.2500 0.5000 1.0000
Ga2D Ga 0.7500 0.0000 0.5000
Ga2F Ga 1.2500 0.0000 0.5000
Ga2F_2 Ga 1.2500 1.0000 0.5000
Ga2D_2 Ga 0.7500 1.0000 0.5000
Ga2V_2 Ga 1.2500 0.5000 0.0000
Ga2T_2 Ga 0.7500 0.5000 0.0000
P1A P 1.07023(6) 0.62232(4) 0.62232(4)
P1B P 1.07023(6) 0.37768(4) 0.37768(4)
P1C P 0.92977(6) 0.62232(4) 0.37768(4)
P1DA P 0.87768(4) 0.57023(6) 0.87768(4)
P1BA P 1.12232(4) 0.42977(6) 0.87768(4)
P1FA P 0.87768(4) 0.12232(4) 0.42977(6)
P1GA P 1.12232(4) 0.12232(4) 0.57023(6)
P1IA P 1.12232(4) 0.87768(4) 0.42977(6)
P1HA P 0.87768(4) 0.87768(4) 0.57023(6)
P1CA P 1.12232(4) 0.57023(6) 0.12232(4)
P1EA P 0.87768(4) 0.42977(6) 0.12232(4)
O1A O 1.1556(2) 0.64262(19) 0.64262(19)
O1B O 1.1556(2) 0.35738(19) 0.35738(19)
O1C O 0.8444(2) 0.64262(19) 0.35738(19)
O1DA O 0.85738(19) 0.6556(2) 0.85738(19)
O1BA O 1.14262(19) 0.3444(2) 0.85738(19)
O1FA O 0.85738(19) 0.14262(19) 0.3444(2)
O1GA O 1.14262(19) 0.14262(19) 0.6556(2)
O1IA O 1.14262(19) 0.85738(19) 0.3444(2)
O1HA O 0.85738(19) 0.85738(19) 0.6556(2)
O1CA O 1.14262(19) 0.6556(2) 0.14262(19)
O1EA O 0.85738(19) 0.3444(2) 0.14262(19)
O2S O 0.97569(18) 0.30520(15) 0.59309(16)
O2A O 1.02431(18) 0.59309(16) 0.69480(15)
O2Q O 1.02431(18) 0.69480(15) 0.59309(16)
O2B O 1.02431(18) 0.40691(16) 0.30520(15)
O2R O 1.02431(18) 0.30520(15) 0.40691(16)
O2C O 0.97569(18) 0.59309(16) 0.30520(15)
O2P O 0.97569(18) 0.69480(15) 0.40691(16)
O2LA O 0.90691(16) 0.52431(18) 0.80520(15)
O2DA O 0.80520(15) 0.52431(18) 0.90691(16)
O2MA O 1.09309(16) 0.47569(18) 0.80520(15)
O2BA O 1.19480(15) 0.47569(18) 0.90691(16)
O2FA O 0.90691(16) 0.19480(15) 0.47569(18)
O2UA O 0.80520(15) 0.09309(16) 0.47569(18)
O2GA O 1.09309(16) 0.19480(15) 0.52431(18)
O2SA O 1.19480(15) 0.09309(16) 0.52431(18)
O2IA O 1.09309(16) 0.80520(15) 0.47569(18)
O2RA O 1.19480(15) 0.90691(16) 0.47569(18)
O2HA O 0.90691(16) 0.80520(15) 0.52431(18)
O2TA O 0.80520(15) 0.90691(16) 0.52431(18)
O2KA O 1.09309(16) 0.52431(18) 0.19480(15)
O2CA O 1.19480(15) 0.52431(18) 0.09309(16)
O2JA O 0.90691(16) 0.47569(18) 0.19480(15)
O2EA O 0.80520(15) 0.47569(18) 0.09309(16)
O2T O 0.69480(15) 0.40691(16) 0.97569(18)
O2U O 0.69480(15) 0.59309(16) 1.02431(18)
O2EA_2 O 0.80520(15) 0.47569(18) 1.09309(16)
O2V O 1.30520(15) 0.40691(16) 1.02431(18)
O2W O 1.30520(15) 0.59309(16) 0.97569(18)
O2CA_2 O 1.19480(15) 0.52431(18) 1.09309(16)
O3A O 1.0704(2) 0.55788(16) 0.55788(16)
O3B O 1.0704(2) 0.44212(16) 0.44212(16)
O3C O 0.9296(2) 0.55788(16) 0.44212(16)
O3DA O 0.94212(16) 0.5704(2) 0.94212(16)
O3BA O 1.05788(16) 0.4296(2) 0.94212(16)
O3FA O 0.94212(16) 0.05788(16) 0.4296(2)
O3GA O 1.05788(16) 0.05788(16) 0.5704(2)
O3IA O 1.05788(16) 0.94212(16) 0.4296(2)
O3HA O 0.94212(16) 0.94212(16) 0.5704(2)
O3CA O 1.05788(16) 0.5704(2) 0.05788(16)
O3EA O 0.94212(16) 0.4296(2) 0.05788(16)
O3CA_2 O 1.05788(16) 0.5704(2) 1.05788(16)
O3EA_2 O 0.94212(16) 0.4296(2) 1.05788(16)
O3HA_2 O 0.94212(16) -0.05788(16) 0.5704(2)
O3IA_2 O 1.05788(16) -0.05788(16) 0.4296(2)
loop_
_geom_bond_atom_site_label_1
_geom_bond_atom_site_label_2
_geom_bond_site_symmetry_1
_geom_bond_site_symmetry_2
Ga1 O3 1_555 1_555
Ga2 O2 1_555 1_555
P1 O1 1_555 1_555
O2 P1 1_555 1_555
O3 P1 1_555 1_555
C2 N2 1_555 1_555
Ga1BA O3DA 1_555 1_555
Ga1FA O3FA 1_555 1_555
Ga1FA_2 O3IA 1_555 1_555
Ga1BA_2 O3CA 1_555 1_555
Ga2R O2S 1_555 1_555
Ga2P O2Q 1_555 1_555
Ga2B O2B 1_555 1_555
Ga2T O2DA 1_555 1_555
Ga2V O2BA 1_555 1_555
Ga2D O2UA 1_555 1_555
Ga2F O2SA 1_555 1_555
Ga2F_2 O2RA 1_555 1_555
Ga2D_2 O2TA 1_555 1_555
Ga2V_2 O2CA 1_555 1_555
Ga2T_2 O2EA 1_555 1_555
P1A O1A 1_555 1_555
P1B O1B 1_555 1_555
P1C O1C 1_555 1_555
P1DA O1DA 1_555 1_555
P1BA O1BA 1_555 1_555
P1FA O1FA 1_555 1_555
P1GA O1GA 1_555 1_555
P1IA O1IA 1_555 1_555
P1HA O1HA 1_555 1_555
P1CA O1CA 1_555 1_555
P1EA O1EA 1_555 1_555
O2S P1 1_555 1_555
O2A Ga2 1_555 1_555
O2Q P1A 1_555 1_555
O2B P1B 1_555 1_555
O2R Ga2R 1_555 1_555
O2C Ga2B 1_555 1_555
O2P Ga2P 1_555 1_555
O2LA Ga2 1_555 1_555
O2DA P1DA 1_555 1_555
O2MA Ga2 1_555 1_555
O2BA P1BA 1_555 1_555
O2FA Ga2R 1_555 1_555
O2UA P1FA 1_555 1_555
O2GA Ga2R 1_555 1_555
O2SA P1GA 1_555 1_555
O2IA Ga2P 1_555 1_555
O2RA P1IA 1_555 1_555
O2HA Ga2P 1_555 1_555
O2TA P1HA 1_555 1_555
O2KA Ga2B 1_555 1_555
O2CA P1CA 1_555 1_555
O2JA Ga2B 1_555 1_555
O2EA P1EA 1_555 1_555
O2T Ga2T 1_555 1_555
O2U Ga2T 1_555 1_555
O2EA_2 Ga2T 1_555 1_555
O2V Ga2V 1_555 1_555
O2W Ga2V 1_555 1_555
O2CA_2 Ga2V 1_555 1_555
O3A Ga1 1_555 1_555
O3B Ga1 1_555 1_555
O3C Ga1 1_555 1_555
O3DA P1DA 1_555 1_555
O3BA Ga1BA 1_555 1_555
O3FA P1FA 1_555 1_555
O3GA Ga1FA 1_555 1_555
O3IA P1IA 1_555 1_555
O3HA Ga1FA_2 1_555 1_555
O3CA P1CA 1_555 1_555
O3EA Ga1BA_2 1_555 1_555
O3CA_2 Ga1BA 1_555 1_555
O3EA_2 Ga1BA 1_555 1_555
O3HA_2 Ga1FA 1_555 1_555
O3IA_2 Ga1FA 1_555 1_555
P1A O2A 1_555 1_555
P1A O3A 1_555 1_555
P1B O2R 1_555 1_555
P1B O3B 1_555 1_555
P1C O2C 1_555 1_555
P1C O2P 1_555 1_555
P1C O3C 1_555 1_555
P1DA O2LA 1_555 1_555
P1BA O2MA 1_555 1_555
P1BA O3BA 1_555 1_555
P1FA O2FA 1_555 1_555
P1GA O2GA 1_555 1_555
P1GA O3GA 1_555 1_555
P1IA O2IA 1_555 1_555
P1HA O2HA 1_555 1_555
P1HA O3HA 1_555 1_555
P1CA O2KA 1_555 1_555
P1EA O2JA 1_555 1_555
P1EA O3EA 1_555 1_555

#END
