
#######################################################################
#
#                 Cambridge Crystallographic Data Centre
#                                CCDC 
#
#######################################################################
#
# If this CIF has been generated from an entry in the Cambridge 
# Structural Database, then it will include bibliographic, chemical, 
# crystal, experimental, refinement or atomic coordinate data resulting 
# from the CCDC's data processing and validation procedures.
#
#######################################################################

data_REBSIB
_chemical_formula_moiety         '(C1 H6 Ga9 N1 O51 P12 4-)n'
_symmetry_cell_setting           cubic
_symmetry_space_group_name_H-M   'I -4 3 m'
_symmetry_Int_Tables_number      217
_space_group_name_Hall           'I -4 2 3'
loop_
_symmetry_equiv_pos_site_id
_symmetry_equiv_pos_as_xyz
1 x,y,z
2 -x,-y,z
3 -x,y,-z
4 x,-y,-z
5 z,x,y
6 z,-x,-y
7 -z,-x,y
8 -z,x,-y
9 y,z,x
10 -y,z,-x
11 y,-z,-x
12 -y,-z,x
13 y,x,z
14 -y,-x,z
15 y,-x,-z
16 -y,x,-z
17 x,z,y
18 -x,z,-y
19 -x,-z,y
20 x,-z,-y
21 z,y,x
22 z,-y,-x
23 -z,y,-x
24 -z,-y,x
25 1/2+x,1/2+y,1/2+z
26 1/2-x,1/2-y,1/2+z
27 1/2-x,1/2+y,1/2-z
28 1/2+x,1/2-y,1/2-z
29 1/2+z,1/2+x,1/2+y
30 1/2+z,1/2-x,1/2-y
31 1/2-z,1/2-x,1/2+y
32 1/2-z,1/2+x,1/2-y
33 1/2+y,1/2+z,1/2+x
34 1/2-y,1/2+z,1/2-x
35 1/2+y,1/2-z,1/2-x
36 1/2-y,1/2-z,1/2+x
37 1/2+y,1/2+x,1/2+z
38 1/2-y,1/2-x,1/2+z
39 1/2+y,1/2-x,1/2-z
40 1/2-y,1/2+x,1/2-z
41 1/2+x,1/2+z,1/2+y
42 1/2-x,1/2+z,1/2-y
43 1/2-x,1/2-z,1/2+y
44 1/2+x,1/2-z,1/2-y
45 1/2+z,1/2+y,1/2+x
46 1/2+z,1/2-y,1/2-x
47 1/2-z,1/2+y,1/2-x
48 1/2-z,1/2-y,1/2+x
_cell_length_a                   16.83750(10)
_cell_length_b                   16.83750(10)
_cell_length_c                   16.83750(10)
_cell_angle_alpha                90
_cell_angle_beta                 90
_cell_angle_gamma                90
_cell_volume                     4773.45
loop_
_atom_site_label
_atom_site_type_symbol
_atom_site_fract_x
_atom_site_fract_y
_atom_site_fract_z
C2 C -0.14068(15) 0.3240(2) -0.14068(15)
N2 N -0.19257(16) 0.37248(13) -0.19257(13)
O4 O 0.0000 1.0000 0.0000
O5 O -0.0956(7) 0.9044(7) -0.0956(7)
O6 O -0.0560(8) 0.9440(8) -0.2407(6)
Ga1 Ga 0.0000 0.5000 0.0000
Ga2 Ga -0.2500 0.5000 0.0000
P1 P -0.12362(3) 0.56648(4) -0.12362(3)
O1 O -0.14715(12) 0.65002(14) -0.14715(12)
O2 O -0.19503(9) 0.51783(11) -0.09398(10)
O3 O -0.05928(9) 0.57099(14) -0.05928(9)
Ga1BA Ga -0.5000 0.5000 0.0000
Ga1FA Ga 0.0000 0.5000 -0.5000
Ga1BA_2 Ga 0.5000 0.5000 0.0000
Ga1FA_2 Ga 0.0000 0.5000 0.5000
Ga2T Ga 0.0000 0.5000 -0.2500
Ga2A Ga 0.2500 0.5000 0.0000
Ga2U Ga 0.0000 0.5000 0.2500
Ga2M Ga -0.5000 0.2500 0.0000
Ga2L Ga -0.5000 0.7500 0.0000
Ga2E Ga 0.0000 0.2500 -0.5000
Ga2D Ga -0.0000 0.7500 -0.5000
Ga2L_2 Ga 0.5000 0.7500 0.0000
Ga2M_2 Ga 0.5000 0.2500 0.0000
Ga2E_2 Ga 0.0000 0.2500 0.5000
Ga2D_2 Ga 0.0000 0.7500 0.5000
P1A P 0.12362(3) 0.43352(4) -0.12362(3)
P1B P 0.12362(3) 0.56648(4) 0.12362(3)
P1C P -0.12362(3) 0.43352(4) 0.12362(3)
P1EA P -0.37638(3) 0.37638(3) -0.06648(4)
P1DA P -0.37638(3) 0.62362(3) 0.06648(4)
P1GA P -0.06648(4) 0.37638(3) -0.37638(3)
P1HA P 0.06648(4) 0.62362(3) -0.37638(3)
P1CA P 0.37638(3) 0.62362(3) -0.06648(4)
P1BA P 0.37638(3) 0.37638(3) 0.06648(4)
P1FA P 0.06648(4) 0.37638(3) 0.37638(3)
P1IA P -0.06648(4) 0.62362(3) 0.37638(3)
O1A O 0.14715(12) 0.34998(14) -0.14715(12)
O1B O 0.14715(12) 0.65002(14) 0.14715(12)
O1C O -0.14715(12) 0.34998(14) 0.14715(12)
O1EA O -0.35285(12) 0.35285(12) -0.15002(14)
O1DA O -0.35285(12) 0.64715(12) 0.15002(14)
O1GA O -0.15002(14) 0.35285(12) -0.35285(12)
O1HA O 0.15002(14) 0.64715(12) -0.35285(12)
O1CA O 0.35285(12) 0.64715(12) -0.15002(14)
O1BA O 0.35285(12) 0.35285(12) 0.15002(14)
O1FA O 0.15002(14) 0.35285(12) 0.35285(12)
O1IA O -0.15002(14) 0.64715(12) 0.35285(12)
O2T O -0.09398(10) 0.51783(11) -0.19503(9)
O2A O 0.19503(9) 0.48217(11) -0.09398(10)
O2W O 0.09398(10) 0.48217(11) -0.19503(9)
O2B O 0.19503(9) 0.51783(11) 0.09398(10)
O2V O 0.09398(10) 0.51783(11) 0.19503(9)
O2C O -0.19503(9) 0.48217(11) 0.09398(10)
O2U O -0.09398(10) 0.48217(11) 0.19503(9)
O2OA O -0.30497(9) 0.40602(10) -0.01783(11)
O2EA O -0.40602(10) 0.30497(9) -0.01783(11)
O2PA O -0.30497(9) 0.59398(10) 0.01783(11)
O2DA O -0.40602(10) 0.69503(9) 0.01783(11)
O2GA O -0.01783(11) 0.40602(10) -0.30497(9)
O2MA O -0.01783(11) 0.30497(9) -0.40602(10)
O2HA O 0.01783(11) 0.59398(10) -0.30497(9)
O2LA O 0.01783(11) 0.69503(9) -0.40602(10)
O2QA O 0.30497(9) 0.59398(10) -0.01783(11)
O2CA O 0.40602(10) 0.69503(9) -0.01783(11)
O2NA O 0.30497(9) 0.40602(10) 0.01783(11)
O2BA O 0.40602(10) 0.30497(9) 0.01783(11)
O2FA O 0.01783(11) 0.40602(10) 0.30497(9)
O2JA O 0.01783(11) 0.30497(9) 0.40602(10)
O2IA O -0.01783(11) 0.59398(10) 0.30497(9)
O2KA O -0.01783(11) 0.69503(9) 0.40602(10)
O2M O -0.51783(11) 0.19503(9) -0.09398(10)
O2N O -0.48217(11) 0.19503(9) 0.09398(10)
O2BA_2 O -0.59398(10) 0.30497(9) 0.01783(11)
O2L O -0.48217(11) 0.80497(9) -0.09398(10)
O2O O -0.51783(11) 0.80497(9) 0.09398(10)
O2CA_2 O -0.59398(10) 0.69503(9) -0.01783(11)
O3A O 0.05928(9) 0.42901(14) -0.05928(9)
O3B O 0.05928(9) 0.57099(14) 0.05928(9)
O3C O -0.05928(9) 0.42901(14) 0.05928(9)
O3EA O -0.44072(9) 0.44072(9) -0.07099(14)
O3DA O -0.44072(9) 0.55928(9) 0.07099(14)
O3GA O -0.07099(14) 0.44072(9) -0.44072(9)
O3HA O 0.07099(14) 0.55928(9) -0.44072(9)
O3CA O 0.44072(9) 0.55928(9) -0.07099(14)
O3BA O 0.44072(9) 0.44072(9) 0.07099(14)
O3FA O 0.07099(14) 0.44072(9) 0.44072(9)
O3IA O -0.07099(14) 0.55928(9) 0.44072(9)
O3BA_2 O -0.55928(9) 0.44072(9) 0.07099(14)
O3CA_2 O -0.55928(9) 0.55928(9) -0.07099(14)
O3FA_2 O 0.07099(14) 0.44072(9) -0.55928(9)
O3IA_2 O -0.07099(14) 0.55928(9) -0.55928(9)
loop_
_geom_bond_atom_site_label_1
_geom_bond_atom_site_label_2
_geom_bond_site_symmetry_1
_geom_bond_site_symmetry_2
Ga1 O3 1_555 1_555
Ga2 O2 1_555 1_555
P1 O1 1_555 1_555
O2 P1 1_555 1_555
O3 P1 1_555 1_555
C2 N2 1_555 1_555
Ga1BA O3EA 1_555 1_555
Ga1FA O3GA 1_555 1_555
Ga1BA_2 O3CA 1_555 1_555
Ga1FA_2 O3FA 1_555 1_555
Ga2T O2T 1_555 1_555
Ga2A O2A 1_555 1_555
Ga2U O2V 1_555 1_555
Ga2M O2EA 1_555 1_555
Ga2L O2DA 1_555 1_555
Ga2E O2MA 1_555 1_555
Ga2D O2LA 1_555 1_555
Ga2L_2 O2CA 1_555 1_555
Ga2M_2 O2BA 1_555 1_555
Ga2E_2 O2JA 1_555 1_555
Ga2D_2 O2KA 1_555 1_555
P1A O1A 1_555 1_555
P1B O1B 1_555 1_555
P1C O1C 1_555 1_555
P1EA O1EA 1_555 1_555
P1DA O1DA 1_555 1_555
P1GA O1GA 1_555 1_555
P1HA O1HA 1_555 1_555
P1CA O1CA 1_555 1_555
P1BA O1BA 1_555 1_555
P1FA O1FA 1_555 1_555
P1IA O1IA 1_555 1_555
O2T P1 1_555 1_555
O2A P1A 1_555 1_555
O2W Ga2T 1_555 1_555
O2B Ga2A 1_555 1_555
O2V P1B 1_555 1_555
O2C Ga2 1_555 1_555
O2U Ga2U 1_555 1_555
O2OA Ga2 1_555 1_555
O2EA P1EA 1_555 1_555
O2PA Ga2 1_555 1_555
O2DA P1DA 1_555 1_555
O2GA Ga2T 1_555 1_555
O2MA P1GA 1_555 1_555
O2HA Ga2T 1_555 1_555
O2LA P1HA 1_555 1_555
O2QA Ga2A 1_555 1_555
O2CA P1CA 1_555 1_555
O2NA Ga2A 1_555 1_555
O2BA P1BA 1_555 1_555
O2FA Ga2U 1_555 1_555
O2JA P1FA 1_555 1_555
O2IA Ga2U 1_555 1_555
O2KA P1IA 1_555 1_555
O2M Ga2M 1_555 1_555
O2N Ga2M 1_555 1_555
O2BA_2 Ga2M 1_555 1_555
O2L Ga2L 1_555 1_555
O2O Ga2L 1_555 1_555
O2CA_2 Ga2L 1_555 1_555
O3A Ga1 1_555 1_555
O3B Ga1 1_555 1_555
O3C Ga1 1_555 1_555
O3EA P1EA 1_555 1_555
O3DA Ga1BA 1_555 1_555
O3GA P1GA 1_555 1_555
O3HA Ga1FA 1_555 1_555
O3CA P1CA 1_555 1_555
O3BA Ga1BA_2 1_555 1_555
O3FA P1FA 1_555 1_555
O3IA Ga1FA_2 1_555 1_555
O3BA_2 Ga1BA 1_555 1_555
O3CA_2 Ga1BA 1_555 1_555
O3FA_2 Ga1FA 1_555 1_555
O3IA_2 Ga1FA 1_555 1_555
P1A O2W 1_555 1_555
P1A O3A 1_555 1_555
P1B O2B 1_555 1_555
P1B O3B 1_555 1_555
P1C O2C 1_555 1_555
P1C O2U 1_555 1_555
P1C O3C 1_555 1_555
P1EA O2OA 1_555 1_555
P1DA O2PA 1_555 1_555
P1DA O3DA 1_555 1_555
P1GA O2GA 1_555 1_555
P1HA O2HA 1_555 1_555
P1HA O3HA 1_555 1_555
P1CA O2QA 1_555 1_555
P1BA O2NA 1_555 1_555
P1BA O3BA 1_555 1_555
P1FA O2FA 1_555 1_555
P1IA O2IA 1_555 1_555
P1IA O3IA 1_555 1_555

#END
