
#######################################################################
#
#                 Cambridge Crystallographic Data Centre
#                                CCDC 
#
#######################################################################
#
# If this CIF has been generated from an entry in the Cambridge 
# Structural Database, then it will include bibliographic, chemical, 
# crystal, experimental, refinement or atomic coordinate data resulting 
# from the CCDC's data processing and validation procedures.
#
#######################################################################

data_REBSAT
_chemical_formula_moiety         '(C1 H6 Al9 N1 O51 P12 4-)n'
_symmetry_cell_setting           cubic
_symmetry_space_group_name_H-M   'I -4 3 m'
_symmetry_Int_Tables_number      217
_space_group_name_Hall           'I -4 2 3'
loop_
_symmetry_equiv_pos_site_id
_symmetry_equiv_pos_as_xyz
1 x,y,z
2 -x,-y,z
3 -x,y,-z
4 x,-y,-z
5 z,x,y
6 z,-x,-y
7 -z,-x,y
8 -z,x,-y
9 y,z,x
10 -y,z,-x
11 y,-z,-x
12 -y,-z,x
13 y,x,z
14 -y,-x,z
15 y,-x,-z
16 -y,x,-z
17 x,z,y
18 -x,z,-y
19 -x,-z,y
20 x,-z,-y
21 z,y,x
22 z,-y,-x
23 -z,y,-x
24 -z,-y,x
25 1/2+x,1/2+y,1/2+z
26 1/2-x,1/2-y,1/2+z
27 1/2-x,1/2+y,1/2-z
28 1/2+x,1/2-y,1/2-z
29 1/2+z,1/2+x,1/2+y
30 1/2+z,1/2-x,1/2-y
31 1/2-z,1/2-x,1/2+y
32 1/2-z,1/2+x,1/2-y
33 1/2+y,1/2+z,1/2+x
34 1/2-y,1/2+z,1/2-x
35 1/2+y,1/2-z,1/2-x
36 1/2-y,1/2-z,1/2+x
37 1/2+y,1/2+x,1/2+z
38 1/2-y,1/2-x,1/2+z
39 1/2+y,1/2-x,1/2-z
40 1/2-y,1/2+x,1/2-z
41 1/2+x,1/2+z,1/2+y
42 1/2-x,1/2+z,1/2-y
43 1/2-x,1/2-z,1/2+y
44 1/2+x,1/2-z,1/2-y
45 1/2+z,1/2+y,1/2+x
46 1/2+z,1/2-y,1/2-x
47 1/2-z,1/2+y,1/2-x
48 1/2-z,1/2-y,1/2+x
_cell_length_a                   16.78870(10)
_cell_length_b                   16.78870(10)
_cell_length_c                   16.78870(10)
_cell_angle_alpha                90
_cell_angle_beta                 90
_cell_angle_gamma                90
_cell_volume                     4732.07
loop_
_atom_site_label
_atom_site_type_symbol
_atom_site_fract_x
_atom_site_fract_y
_atom_site_fract_z
C2 C -0.1724(3) 0.6449(3) 0.3551(3)
N2 N -0.1223(2) 0.6970(3) 0.3030(2)
O4 O 0.5000 0.5000 0.5000
O5 O 0.589(2) 0.589(2) 0.589(2)
O6 O 0.7330(11) 0.5542(10) 0.5542(10)
Al1 Al 0.0000 0.5000 0.5000
Al2 Al -0.0000 0.5000 0.2500
P1 P 0.07050(6) 0.62256(4) 0.37744(4)
O1 O 0.1561(2) 0.6421(2) 0.3579(2)
O2 O 0.02460(17) 0.5938(2) 0.30472(16)
O3 O 0.0674(3) 0.55800(16) 0.44200(16)
Al1BA Al 0.0000 0.5000 0.0000
Al1FA Al -0.0000 1.0000 0.5000
Al1FA_2 Al 0.0000 0.0000 0.5000
Al1BA_2 Al -0.0000 0.5000 1.0000
Al2R Al 0.0000 0.7500 0.5000
Al2P Al -0.0000 0.2500 0.5000
Al2B Al 0.0000 0.5000 0.7500
Al2T Al 0.2500 0.5000 0.0000
Al2V Al -0.2500 0.5000 0.0000
Al2D Al 0.2500 1.0000 0.5000
Al2F Al -0.2500 1.0000 0.5000
Al2F_2 Al -0.2500 0.0000 0.5000
Al2D_2 Al 0.2500 0.0000 0.5000
Al2V_2 Al -0.2500 0.5000 1.0000
Al2T_2 Al 0.2500 0.5000 1.0000
P1A P -0.07050(6) 0.37744(4) 0.37744(4)
P1B P -0.07050(6) 0.62256(4) 0.62256(4)
P1C P 0.07050(6) 0.37744(4) 0.62256(4)
P1DA P 0.12256(4) 0.42950(6) 0.12256(4)
P1BA P -0.12256(4) 0.57050(6) 0.12256(4)
P1FA P 0.12256(4) 0.87744(4) 0.57050(6)
P1GA P -0.12256(4) 0.87744(4) 0.42950(6)
P1IA P -0.12256(4) 0.12256(4) 0.57050(6)
P1HA P 0.12256(4) 0.12256(4) 0.42950(6)
P1CA P -0.12256(4) 0.42950(6) 0.87744(4)
P1EA P 0.12256(4) 0.57050(6) 0.87744(4)
O1A O -0.1561(2) 0.3579(2) 0.3579(2)
O1B O -0.1561(2) 0.6421(2) 0.6421(2)
O1C O 0.1561(2) 0.3579(2) 0.6421(2)
O1DA O 0.1421(2) 0.3439(2) 0.1421(2)
O1BA O -0.1421(2) 0.6561(2) 0.1421(2)
O1FA O 0.1421(2) 0.8579(2) 0.6561(2)
O1GA O -0.1421(2) 0.8579(2) 0.3439(2)
O1IA O -0.1421(2) 0.1421(2) 0.6561(2)
O1HA O 0.1421(2) 0.1421(2) 0.3439(2)
O1CA O -0.1421(2) 0.3439(2) 0.8579(2)
O1EA O 0.1421(2) 0.6561(2) 0.8579(2)
O2S O 0.02460(17) 0.69528(16) 0.4062(2)
O2A O -0.02460(17) 0.4062(2) 0.30472(16)
O2Q O -0.02460(17) 0.30472(16) 0.4062(2)
O2B O -0.02460(17) 0.5938(2) 0.69528(16)
O2R O -0.02460(17) 0.69528(16) 0.5938(2)
O2C O 0.02460(17) 0.4062(2) 0.69528(16)
O2P O 0.02460(17) 0.30472(16) 0.5938(2)
O2LA O 0.0938(2) 0.47540(17) 0.19528(16)
O2DA O 0.19528(16) 0.47540(17) 0.0938(2)
O2MA O -0.0938(2) 0.52460(17) 0.19528(16)
O2BA O -0.19528(16) 0.52460(17) 0.0938(2)
O2FA O 0.0938(2) 0.80472(16) 0.52460(17)
O2UA O 0.19528(16) 0.9062(2) 0.52460(17)
O2GA O -0.0938(2) 0.80472(16) 0.47540(17)
O2SA O -0.19528(16) 0.9062(2) 0.47540(17)
O2IA O -0.0938(2) 0.19528(16) 0.52460(17)
O2RA O -0.19528(16) 0.0938(2) 0.52460(17)
O2HA O 0.0938(2) 0.19528(16) 0.47540(17)
O2TA O 0.19528(16) 0.0938(2) 0.47540(17)
O2KA O -0.0938(2) 0.47540(17) 0.80472(16)
O2CA O -0.19528(16) 0.47540(17) 0.9062(2)
O2JA O 0.0938(2) 0.52460(17) 0.80472(16)
O2EA O 0.19528(16) 0.52460(17) 0.9062(2)
O2T O 0.30472(16) 0.5938(2) 0.02460(17)
O2U O 0.30472(16) 0.4062(2) -0.02460(17)
O2EA_2 O 0.19528(16) 0.52460(17) -0.0938(2)
O2V O -0.30472(16) 0.5938(2) -0.02460(17)
O2W O -0.30472(16) 0.4062(2) 0.02460(17)
O2CA_2 O -0.19528(16) 0.47540(17) -0.0938(2)
O3A O -0.0674(3) 0.44200(16) 0.44200(16)
O3B O -0.0674(3) 0.55800(16) 0.55800(16)
O3C O 0.0674(3) 0.44200(16) 0.55800(16)
O3DA O 0.05800(16) 0.4326(3) 0.05800(16)
O3BA O -0.05800(16) 0.5674(3) 0.05800(16)
O3FA O 0.05800(16) 0.94200(16) 0.5674(3)
O3GA O -0.05800(16) 0.94200(16) 0.4326(3)
O3IA O -0.05800(16) 0.05800(16) 0.5674(3)
O3HA O 0.05800(16) 0.05800(16) 0.4326(3)
O3CA O -0.05800(16) 0.4326(3) 0.94200(16)
O3EA O 0.05800(16) 0.5674(3) 0.94200(16)
O3CA_2 O -0.05800(16) 0.4326(3) -0.05800(16)
O3EA_2 O 0.05800(16) 0.5674(3) -0.05800(16)
O3HA_2 O 0.05800(16) 1.05800(16) 0.4326(3)
O3IA_2 O -0.05800(16) 1.05800(16) 0.5674(3)
loop_
_geom_bond_atom_site_label_1
_geom_bond_atom_site_label_2
_geom_bond_site_symmetry_1
_geom_bond_site_symmetry_2
Al1 O3 1_555 1_555
Al2 O2 1_555 1_555
P1 O1 1_555 1_555
O2 P1 1_555 1_555
O3 P1 1_555 1_555
C2 N2 1_555 1_555
Al1BA O3DA 1_555 1_555
Al1FA O3FA 1_555 1_555
Al1FA_2 O3IA 1_555 1_555
Al1BA_2 O3CA 1_555 1_555
Al2R O2S 1_555 1_555
Al2P O2Q 1_555 1_555
Al2B O2B 1_555 1_555
Al2T O2DA 1_555 1_555
Al2V O2BA 1_555 1_555
Al2D O2UA 1_555 1_555
Al2F O2SA 1_555 1_555
Al2F_2 O2RA 1_555 1_555
Al2D_2 O2TA 1_555 1_555
Al2V_2 O2CA 1_555 1_555
Al2T_2 O2EA 1_555 1_555
P1A O1A 1_555 1_555
P1B O1B 1_555 1_555
P1C O1C 1_555 1_555
P1DA O1DA 1_555 1_555
P1BA O1BA 1_555 1_555
P1FA O1FA 1_555 1_555
P1GA O1GA 1_555 1_555
P1IA O1IA 1_555 1_555
P1HA O1HA 1_555 1_555
P1CA O1CA 1_555 1_555
P1EA O1EA 1_555 1_555
O2S P1 1_555 1_555
O2A Al2 1_555 1_555
O2Q P1A 1_555 1_555
O2B P1B 1_555 1_555
O2R Al2R 1_555 1_555
O2C Al2B 1_555 1_555
O2P Al2P 1_555 1_555
O2LA Al2 1_555 1_555
O2DA P1DA 1_555 1_555
O2MA Al2 1_555 1_555
O2BA P1BA 1_555 1_555
O2FA Al2R 1_555 1_555
O2UA P1FA 1_555 1_555
O2GA Al2R 1_555 1_555
O2SA P1GA 1_555 1_555
O2IA Al2P 1_555 1_555
O2RA P1IA 1_555 1_555
O2HA Al2P 1_555 1_555
O2TA P1HA 1_555 1_555
O2KA Al2B 1_555 1_555
O2CA P1CA 1_555 1_555
O2JA Al2B 1_555 1_555
O2EA P1EA 1_555 1_555
O2T Al2T 1_555 1_555
O2U Al2T 1_555 1_555
O2EA_2 Al2T 1_555 1_555
O2V Al2V 1_555 1_555
O2W Al2V 1_555 1_555
O2CA_2 Al2V 1_555 1_555
O3A Al1 1_555 1_555
O3B Al1 1_555 1_555
O3C Al1 1_555 1_555
O3DA P1DA 1_555 1_555
O3BA Al1BA 1_555 1_555
O3FA P1FA 1_555 1_555
O3GA Al1FA 1_555 1_555
O3IA P1IA 1_555 1_555
O3HA Al1FA_2 1_555 1_555
O3CA P1CA 1_555 1_555
O3EA Al1BA_2 1_555 1_555
O3CA_2 Al1BA 1_555 1_555
O3EA_2 Al1BA 1_555 1_555
O3HA_2 Al1FA 1_555 1_555
O3IA_2 Al1FA 1_555 1_555
P1A O2A 1_555 1_555
P1A O3A 1_555 1_555
P1B O2R 1_555 1_555
P1B O3B 1_555 1_555
P1C O2C 1_555 1_555
P1C O2P 1_555 1_555
P1C O3C 1_555 1_555
P1DA O2LA 1_555 1_555
P1BA O2MA 1_555 1_555
P1BA O3BA 1_555 1_555
P1FA O2FA 1_555 1_555
P1GA O2GA 1_555 1_555
P1GA O3GA 1_555 1_555
P1IA O2IA 1_555 1_555
P1HA O2HA 1_555 1_555
P1HA O3HA 1_555 1_555
P1CA O2KA 1_555 1_555
P1EA O2JA 1_555 1_555
P1EA O3EA 1_555 1_555

#END
