
#######################################################################
#
#                 Cambridge Crystallographic Data Centre
#                                CCDC 
#
#######################################################################
#
# If this CIF has been generated from an entry in the Cambridge 
# Structural Database, then it will include bibliographic, chemical, 
# crystal, experimental, refinement or atomic coordinate data resulting 
# from the CCDC's data processing and validation procedures.
#
#######################################################################

data_NIKHOF
_chemical_formula_moiety         '(C48 H31 Dy1 N4 O10)n'
_symmetry_cell_setting           monoclinic
_symmetry_space_group_name_H-M   'C 2/c'
_symmetry_Int_Tables_number      15
_space_group_name_Hall           '-C 2yc'
loop_
_symmetry_equiv_pos_site_id
_symmetry_equiv_pos_as_xyz
1 x,y,z
2 1/2+x,1/2+y,z
3 -x,y,1/2-z
4 1/2-x,1/2+y,1/2-z
5 -x,-y,-z
6 1/2-x,1/2-y,-z
7 x,-y,1/2+z
8 1/2+x,1/2-y,1/2+z
_cell_length_a                   20.8851(5)
_cell_length_b                   26.4514(7)
_cell_length_c                   9.39160(10)
_cell_angle_alpha                90
_cell_angle_beta                 99.6484(14)
_cell_angle_gamma                90
_cell_volume                     5114.91
loop_
_atom_site_label
_atom_site_type_symbol
_atom_site_fract_x
_atom_site_fract_y
_atom_site_fract_z
Dy1 Dy 0.5000 0.506357(6) 0.7500
C1 C 0.5000 0.18236(12) 0.7500
C2 C 0.44734(12) 0.15818(9) 0.7953(3)
C3 C 0.39121(12) 0.18345(9) 0.8334(3)
H1 H 0.3828 0.2188 0.8286
C4 C 0.35300(12) 0.14738(10) 0.8771(3)
H2 H 0.3125 0.1526 0.9081
C5 C 0.38517(11) 0.09949(9) 0.8678(2)
C6 C 0.36544(11) 0.05317(9) 0.9178(2)
C7 C 0.39875(12) 0.00685(9) 0.9124(3)
C8 C 0.38356(12) -0.04028(9) 0.9755(3)
H3 H 0.3524 -0.0453 1.0372
C9 C 0.42188(12) -0.07635(9) 0.9304(2)
H4 H 0.4232 -0.1111 0.9566
C10 C 0.46036(11) -0.05227(9) 0.8354(2)
C11 C 0.5000 -0.07744(12) 0.7500
N1 N 0.44153(9) 0.10727(7) 0.8146(2)
N2 N 0.44704(11) -0.00134(7) 0.8325(2)
C12 C 0.5000 0.23856(13) 0.7500
C13 C 0.51593(17) 0.26511(11) 0.8769(3)
H7 H 0.5267 0.2473 0.9656
C14 C 0.51643(17) 0.31739(11) 0.8770(3)
H8 H 0.5282 0.3352 0.9654
C15 C 0.5000 0.34383(13) 0.7500
C16 C 0.5000 0.40023(13) 0.7500
O1 O 0.52158(8) 0.42385(6) 0.86508(16)
C17 C 0.30074(11) 0.05249(9) 0.9671(2)
C18 C 0.24569(11) 0.06300(9) 0.8652(2)
H9 H 0.2506 0.0737 0.7711
C19 C 0.18389(11) 0.05804(9) 0.8990(2)
H10 H 0.1469 0.0650 0.8281
C20 C 0.17609(11) 0.04282(9) 1.0372(2)
C21 C 0.23096(11) 0.03605(10) 1.1427(2)
H11 H 0.2261 0.0285 1.2392
C22 C 0.29300(11) 0.04027(10) 1.1072(2)
H12 H 0.3301 0.0348 1.1791
C23 C 0.10945(11) 0.02984(9) 1.0668(2)
O2 O 0.10185(8) 0.02256(7) 1.19595(17)
O3 O 0.06441(8) 0.02527(7) 0.96071(17)
C24 C 0.5000 -0.13349(12) 0.7500
C25 C 0.55767(12) -0.16095(10) 0.7864(3)
H13 H 0.5976 -0.1434 0.8123
C26 C 0.55763(13) -0.21362(10) 0.7853(3)
H14 H 0.5976 -0.2313 0.8090
C27 C 0.5000 -0.24078(14) 0.7500
C28 C 0.5000 -0.29814(14) 0.7500
O4 O 0.55367(11) -0.32054(7) 0.7571(2)
O5 O 0.54910(8) 0.58088(6) 0.65790(17)
H16 H 0.5366 0.5824 0.5548
H17 H 0.5656 0.5517 0.6752
Dy1G Dy 0.0000 -0.006357(6) 1.2500
Dy1A Dy -0.0000 0.006357(6) 0.7500
Dy1G_2 Dy 1.0000 -0.006357(6) 0.2500
Dy1A_2 Dy 1.0000 0.006357(6) 0.7500
C2B C 0.55266(12) 0.15818(9) 0.7047(3)
C3B C 0.60879(12) 0.18345(9) 0.6666(3)
H1B H 0.6172 0.2188 0.6714
C4B C 0.64700(12) 0.14738(10) 0.6229(3)
H2B H 0.6875 0.1526 0.5919
C5B C 0.61483(11) 0.09949(9) 0.6322(2)
C6B C 0.63456(11) 0.05317(9) 0.5822(2)
C7B C 0.60125(12) 0.00685(9) 0.5876(3)
C8B C 0.61644(12) -0.04028(9) 0.5245(3)
H3B H 0.6476 -0.0453 0.4628
C9B C 0.57812(12) -0.07635(9) 0.5696(2)
H4B H 0.5768 -0.1111 0.5434
C10B C 0.53964(11) -0.05227(9) 0.6646(2)
N1B N 0.55847(9) 0.10727(7) 0.6854(2)
N2B N 0.55296(11) -0.00134(7) 0.6675(2)
C13B C 0.48407(17) 0.26511(11) 0.6231(3)
H7B H 0.4733 0.2473 0.5344
C14B C 0.48357(17) 0.31739(11) 0.6230(3)
H8B H 0.4718 0.3352 0.5346
O1B O 0.47842(8) 0.42385(6) 0.63492(16)
C17B C 0.69926(11) 0.05249(9) 0.5329(2)
C18B C 0.75431(11) 0.06300(9) 0.6348(2)
H9B H 0.7494 0.0737 0.7289
C19B C 0.81611(11) 0.05804(9) 0.6010(2)
H10B H 0.8531 0.0650 0.6719
C20B C 0.82391(11) 0.04282(9) 0.4628(2)
C21B C 0.76904(11) 0.03605(10) 0.3573(2)
H11B H 0.7739 0.0285 0.2608
C22B C 0.70700(11) 0.04027(10) 0.3928(2)
H12B H 0.6699 0.0348 0.3209
C23B C 0.89055(11) 0.02984(9) 0.4332(2)
O2B O 0.89815(8) 0.02256(7) 0.30405(17)
O2G O 0.60185(8) 0.47744(7) 0.69595(17)
O2E O 0.39815(8) 0.47744(7) 0.80405(17)
O3B O 0.93559(8) 0.02527(7) 0.53929(17)
O3A O 0.56441(8) 0.52527(7) 0.96071(17)
O3C O 0.43559(8) 0.52527(7) 0.53929(17)
C25B C 0.44233(12) -0.16095(10) 0.7136(3)
H13B H 0.4024 -0.1434 0.6877
C26B C 0.44237(13) -0.21362(10) 0.7147(3)
H14B H 0.4024 -0.2313 0.6910
O4B O 0.44633(11) -0.32054(7) 0.7429(2)
O5B O 0.45090(8) 0.58088(6) 0.84210(17)
H16B H 0.4634 0.5824 0.9452
H17B H 0.4344 0.5517 0.8248
loop_
_geom_bond_atom_site_label_1
_geom_bond_atom_site_label_2
_geom_bond_site_symmetry_1
_geom_bond_site_symmetry_2
Dy1 O1 1_555 1_555
C1 C2 1_555 1_555
C2 C3 1_555 1_555
C3 H1 1_555 1_555
C4 C3 1_555 1_555
H2 C4 1_555 1_555
C5 C4 1_555 1_555
C6 C5 1_555 1_555
C7 C6 1_555 1_555
C8 C7 1_555 1_555
H3 C8 1_555 1_555
C9 C8 1_555 1_555
H4 C9 1_555 1_555
C10 C9 1_555 1_555
C11 C10 1_555 1_555
N1 C2 1_555 1_555
N2 C7 1_555 1_555
C12 C1 1_555 1_555
C13 C12 1_555 1_555
H7 C13 1_555 1_555
C14 C13 1_555 1_555
H8 C14 1_555 1_555
C15 C14 1_555 1_555
C16 C15 1_555 1_555
O1 C16 1_555 1_555
C17 C6 1_555 1_555
C18 C17 1_555 1_555
H9 C18 1_555 1_555
C19 C18 1_555 1_555
H10 C19 1_555 1_555
C20 C19 1_555 1_555
C21 C20 1_555 1_555
H11 C21 1_555 1_555
C22 C17 1_555 1_555
H12 C22 1_555 1_555
C23 C20 1_555 1_555
O2 C23 1_555 1_555
O3 C23 1_555 1_555
C24 C11 1_555 1_555
C25 C24 1_555 1_555
H13 C25 1_555 1_555
C26 C25 1_555 1_555
H14 C26 1_555 1_555
C27 C26 1_555 1_555
C28 C27 1_555 1_555
O4 C28 1_555 1_555
O5 Dy1 1_555 1_555
H16 O5 1_555 1_555
H17 O5 1_555 1_555
Dy1G O2 1_555 1_555
Dy1A O3 1_555 1_555
Dy1G_2 O2B 1_555 1_555
Dy1A_2 O3B 1_555 1_555
C2B C1 1_555 1_555
C3B C2B 1_555 1_555
H1B C3B 1_555 1_555
C4B C3B 1_555 1_555
H2B C4B 1_555 1_555
C5B C4B 1_555 1_555
C6B C5B 1_555 1_555
C7B C6B 1_555 1_555
C8B C7B 1_555 1_555
H3B C8B 1_555 1_555
C9B C8B 1_555 1_555
H4B C9B 1_555 1_555
C10B C11 1_555 1_555
N1B C2B 1_555 1_555
N2B C7B 1_555 1_555
C13B C12 1_555 1_555
H7B C13B 1_555 1_555
C14B C15 1_555 1_555
H8B C14B 1_555 1_555
O1B Dy1 1_555 1_555
C17B C6B 1_555 1_555
C18B C17B 1_555 1_555
H9B C18B 1_555 1_555
C19B C18B 1_555 1_555
H10B C19B 1_555 1_555
C20B C19B 1_555 1_555
C21B C20B 1_555 1_555
H11B C21B 1_555 1_555
C22B C17B 1_555 1_555
H12B C22B 1_555 1_555
C23B C20B 1_555 1_555
O2B C23B 1_555 1_555
O2G Dy1 1_555 1_555
O2E Dy1 1_555 1_555
O3B C23B 1_555 1_555
O3A Dy1 1_555 1_555
O3C Dy1 1_555 1_555
C25B C24 1_555 1_555
H13B C25B 1_555 1_555
C26B C27 1_555 1_555
H14B C26B 1_555 1_555
O4B C28 1_555 1_555
O5B Dy1 1_555 1_555
H16B O5B 1_555 1_555
H17B O5B 1_555 1_555
C5 N1 1_555 1_555
C10 N2 1_555 1_555
C16 O1B 1_555 1_555
C21 C22 1_555 1_555
C5B N1B 1_555 1_555
C9B C10B 1_555 1_555
C10B N2B 1_555 1_555
C13B C14B 1_555 1_555
C21B C22B 1_555 1_555
C25B C26B 1_555 1_555

#END
