
#######################################################################
#
#                 Cambridge Crystallographic Data Centre
#                                CCDC 
#
#######################################################################
#
# If this CIF has been generated from an entry in the Cambridge 
# Structural Database, then it will include bibliographic, chemical, 
# crystal, experimental, refinement or atomic coordinate data resulting 
# from the CCDC's data processing and validation procedures.
#
#######################################################################

data_NIKHUL
_chemical_formula_moiety         '(C48 H31 N4 O10 Sm1)n'
_symmetry_cell_setting           monoclinic
_symmetry_space_group_name_H-M   'C 2/c'
_symmetry_Int_Tables_number      15
_space_group_name_Hall           '-C 2yc'
loop_
_symmetry_equiv_pos_site_id
_symmetry_equiv_pos_as_xyz
1 x,y,z
2 1/2+x,1/2+y,z
3 -x,y,1/2-z
4 1/2-x,1/2+y,1/2-z
5 -x,-y,-z
6 1/2-x,1/2-y,-z
7 x,-y,1/2+z
8 1/2+x,1/2-y,1/2+z
_cell_length_a                   21.3217(3)
_cell_length_b                   26.5463(5)
_cell_length_c                   9.63690(10)
_cell_angle_alpha                90
_cell_angle_beta                 105.8907(9)
_cell_angle_gamma                90
_cell_volume                     5246.16
loop_
_atom_site_label
_atom_site_type_symbol
_atom_site_fract_x
_atom_site_fract_y
_atom_site_fract_z
Sm1 Sm 0.5000 0.509876(5) 0.7500
C1 C 0.5000 0.18259(11) 0.7500
C2 C 0.55369(10) 0.15804(8) 0.8417(2)
C3 C 0.61249(11) 0.18192(8) 0.9269(3)
H1 H 0.6230 0.2167 0.9267
C4 C 0.64992(10) 0.14540(9) 1.0072(3)
H2 H 0.6914 0.1500 1.0744
C5 C 0.61555(9) 0.09852(8) 0.9724(2)
C6 C 0.63469(9) 0.05257(8) 1.0417(2)
C7 C 0.60128(10) 0.00663(7) 1.0050(2)
C8 C 0.61753(10) -0.04049(8) 1.0811(2)
H3 H 0.6491 -0.0453 1.1711
C9 C 0.57943(10) -0.07670(8) 1.0005(2)
H4 H 0.5787 -0.1114 1.0245
C10 C 0.54011(9) -0.05269(7) 0.8713(2)
C11 C 0.5000 -0.07742(11) 0.7500
N1 N 0.55780(8) 0.10712(6) 0.86891(18)
N2 N 0.55259(8) -0.00184(7) 0.8814(2)
C12 C 0.5000 0.23859(11) 0.7500
C13 C 0.50851(14) 0.26530(9) 0.8767(3)
H7 H 0.5136 0.2476 0.9648
C14 C 0.50982(14) 0.31793(9) 0.8774(3)
H8 H 0.5175 0.3356 0.9662
C15 C 0.5000 0.34436(11) 0.7500
C16 C 0.5000 0.40047(10) 0.7500
O1 O 0.53709(7) 0.42386(5) 0.85600(15)
C17 C 0.69896(9) 0.05142(7) 1.1540(2)
C18 C 0.70490(10) 0.04289(8) 1.2996(2)
H9 H 0.6669 0.0403 1.3326
C19 C 0.76656(10) 0.03816(8) 1.3973(2)
H10 H 0.7702 0.0330 1.4968
C20 C 0.82260(9) 0.04091(7) 1.3506(2)
C21 C 0.81699(9) 0.05200(8) 1.2061(2)
H11 H 0.8550 0.0555 1.1737
C22 C 0.75581(10) 0.05786(8) 1.1100(2)
H12 H 0.7524 0.0664 1.0125
C23 C 0.88857(9) 0.02923(7) 1.4509(2)
O2 O 0.93401(7) 0.01739(6) 1.39646(17)
O3 O 0.89525(7) 0.03076(6) 1.58509(15)
C24 C 0.5000 -0.13368(11) 0.7500
C25 C 0.44317(11) -0.16065(9) 0.7427(3)
H13 H 0.4038 -0.1430 0.7371
C26 C 0.44330(12) -0.21315(9) 0.7435(3)
H14 H 0.4041 -0.2309 0.7396
C27 C 0.5000 -0.23981(12) 0.7500
C28 C 0.5000 -0.29688(12) 0.7500
O4 O 0.45064(10) -0.31913(6) 0.7683(2)
O5 O 0.46964(8) 0.58449(6) 0.86070(16)
H16 H 0.4745 0.5784 0.9647
H17 H 0.4452 0.5643 0.8006
Sm1G Sm 1.0000 -0.009876(5) 1.2500
Sm1A Sm 1.0000 0.009876(5) 1.7500
Sm1G_2 Sm 0.0000 -0.009876(5) 0.2500
Sm1A_2 Sm 0.0000 0.009876(5) -0.2500
C2B C 0.44631(10) 0.15804(8) 0.6583(2)
C3B C 0.38751(11) 0.18192(8) 0.5731(3)
H1B H 0.3770 0.2167 0.5733
C4B C 0.35008(10) 0.14540(9) 0.4928(3)
H2B H 0.3086 0.1500 0.4256
C5B C 0.38445(9) 0.09852(8) 0.5276(2)
C6B C 0.36531(9) 0.05257(8) 0.4583(2)
C7B C 0.39872(10) 0.00663(7) 0.4950(2)
C8B C 0.38247(10) -0.04049(8) 0.4189(2)
H3B H 0.3509 -0.0453 0.3289
C9B C 0.42057(10) -0.07670(8) 0.4995(2)
H4B H 0.4213 -0.1114 0.4755
C10B C 0.45989(9) -0.05269(7) 0.6287(2)
N1B N 0.44220(8) 0.10712(6) 0.63109(18)
N2B N 0.44741(8) -0.00184(7) 0.6186(2)
C13B C 0.49149(14) 0.26530(9) 0.6233(3)
H7B H 0.4864 0.2476 0.5352
C14B C 0.49018(14) 0.31793(9) 0.6226(3)
H8B H 0.4825 0.3356 0.5338
O1B O 0.46291(7) 0.42386(5) 0.64400(15)
C17B C 0.30104(9) 0.05142(7) 0.3460(2)
C18B C 0.29510(10) 0.04289(8) 0.2004(2)
H9B H 0.3331 0.0403 0.1674
C19B C 0.23344(10) 0.03816(8) 0.1027(2)
H10B H 0.2298 0.0330 0.0032
C20B C 0.17740(9) 0.04091(7) 0.1494(2)
C21B C 0.18301(9) 0.05200(8) 0.2939(2)
H11B H 0.1450 0.0555 0.3263
C22B C 0.24419(10) 0.05786(8) 0.3900(2)
H12B H 0.2476 0.0664 0.4875
C23B C 0.11143(9) 0.02923(7) 0.0491(2)
O2B O 0.06599(7) 0.01739(6) 0.10354(17)
O2G O 0.43401(7) 0.48261(6) 0.89646(17)
O2E O 0.56599(7) 0.48261(6) 0.60354(17)
O3B O 0.10475(7) 0.03076(6) -0.08509(15)
O3A O 0.39525(7) 0.53076(6) 0.58509(15)
O3C O 0.60475(7) 0.53076(6) 0.91491(15)
C25B C 0.55683(11) -0.16065(9) 0.7573(3)
H13B H 0.5962 -0.1430 0.7629
C26B C 0.55670(12) -0.21315(9) 0.7565(3)
H14B H 0.5959 -0.2309 0.7604
O4B O 0.54936(10) -0.31913(6) 0.7317(2)
O5B O 0.53036(8) 0.58449(6) 0.63930(16)
H16B H 0.5255 0.5784 0.5353
H17B H 0.5548 0.5643 0.6994
loop_
_geom_bond_atom_site_label_1
_geom_bond_atom_site_label_2
_geom_bond_site_symmetry_1
_geom_bond_site_symmetry_2
Sm1 O1 1_555 1_555
C1 C2 1_555 1_555
C2 C3 1_555 1_555
C3 H1 1_555 1_555
C4 C3 1_555 1_555
H2 C4 1_555 1_555
C5 C4 1_555 1_555
C6 C5 1_555 1_555
C7 C6 1_555 1_555
C8 C7 1_555 1_555
H3 C8 1_555 1_555
C9 C8 1_555 1_555
H4 C9 1_555 1_555
C10 C9 1_555 1_555
C11 C10 1_555 1_555
N1 C2 1_555 1_555
N2 C7 1_555 1_555
C12 C1 1_555 1_555
C13 C12 1_555 1_555
H7 C13 1_555 1_555
C14 C13 1_555 1_555
H8 C14 1_555 1_555
C15 C14 1_555 1_555
C16 C15 1_555 1_555
O1 C16 1_555 1_555
C17 C6 1_555 1_555
C18 C17 1_555 1_555
H9 C18 1_555 1_555
C19 C18 1_555 1_555
H10 C19 1_555 1_555
C20 C19 1_555 1_555
C21 C20 1_555 1_555
H11 C21 1_555 1_555
C22 C17 1_555 1_555
H12 C22 1_555 1_555
C23 C20 1_555 1_555
O2 C23 1_555 1_555
O3 C23 1_555 1_555
C24 C11 1_555 1_555
C25 C24 1_555 1_555
H13 C25 1_555 1_555
C26 C25 1_555 1_555
H14 C26 1_555 1_555
C27 C26 1_555 1_555
C28 C27 1_555 1_555
O4 C28 1_555 1_555
O5 Sm1 1_555 1_555
H16 O5 1_555 1_555
H17 O5 1_555 1_555
Sm1G O2 1_555 1_555
Sm1A O3 1_555 1_555
Sm1G_2 O2B 1_555 1_555
Sm1A_2 O3B 1_555 1_555
C2B C1 1_555 1_555
C3B C2B 1_555 1_555
H1B C3B 1_555 1_555
C4B C3B 1_555 1_555
H2B C4B 1_555 1_555
C5B C4B 1_555 1_555
C6B C5B 1_555 1_555
C7B C6B 1_555 1_555
C8B C7B 1_555 1_555
H3B C8B 1_555 1_555
C9B C8B 1_555 1_555
H4B C9B 1_555 1_555
C10B C11 1_555 1_555
N1B C2B 1_555 1_555
N2B C7B 1_555 1_555
C13B C12 1_555 1_555
H7B C13B 1_555 1_555
C14B C15 1_555 1_555
H8B C14B 1_555 1_555
O1B Sm1 1_555 1_555
C17B C6B 1_555 1_555
C18B C17B 1_555 1_555
H9B C18B 1_555 1_555
C19B C18B 1_555 1_555
H10B C19B 1_555 1_555
C20B C19B 1_555 1_555
C21B C20B 1_555 1_555
H11B C21B 1_555 1_555
C22B C17B 1_555 1_555
H12B C22B 1_555 1_555
C23B C20B 1_555 1_555
O2B C23B 1_555 1_555
O2G Sm1 1_555 1_555
O2E Sm1 1_555 1_555
O3B C23B 1_555 1_555
O3A Sm1 1_555 1_555
O3C Sm1 1_555 1_555
C25B C24 1_555 1_555
H13B C25B 1_555 1_555
C26B C27 1_555 1_555
H14B C26B 1_555 1_555
O4B C28 1_555 1_555
O5B Sm1 1_555 1_555
H16B O5B 1_555 1_555
H17B O5B 1_555 1_555
C5 N1 1_555 1_555
C10 N2 1_555 1_555
C16 O1B 1_555 1_555
C21 C22 1_555 1_555
C5B N1B 1_555 1_555
C9B C10B 1_555 1_555
C10B N2B 1_555 1_555
C13B C14B 1_555 1_555
C21B C22B 1_555 1_555
C25B C26B 1_555 1_555

#END
