
#######################################################################
#
#                 Cambridge Crystallographic Data Centre
#                                CCDC 
#
#######################################################################
#
# If this CIF has been generated from an entry in the Cambridge 
# Structural Database, then it will include bibliographic, chemical, 
# crystal, experimental, refinement or atomic coordinate data resulting 
# from the CCDC's data processing and validation procedures.
#
#######################################################################

data_NIKJEX
_chemical_formula_moiety         '(C48 H31 Gd1 N4 O10)n'
_symmetry_cell_setting           monoclinic
_symmetry_space_group_name_H-M   'C 2/c'
_symmetry_Int_Tables_number      15
_space_group_name_Hall           '-C 2yc'
loop_
_symmetry_equiv_pos_site_id
_symmetry_equiv_pos_as_xyz
1 x,y,z
2 1/2+x,1/2+y,z
3 -x,y,1/2-z
4 1/2-x,1/2+y,1/2-z
5 -x,-y,-z
6 1/2-x,1/2-y,-z
7 x,-y,1/2+z
8 1/2+x,1/2-y,1/2+z
_cell_length_a                   21.3667(4)
_cell_length_b                   26.5131(6)
_cell_length_c                   9.6096(2)
_cell_angle_alpha                90
_cell_angle_beta                 106.1315(16)
_cell_angle_gamma                90
_cell_volume                     5229.47
loop_
_atom_site_label
_atom_site_type_symbol
_atom_site_fract_x
_atom_site_fract_y
_atom_site_fract_z
Gd1 Gd -0.0000 0.010150(9) -0.2500
C1 C 0.0000 -0.57742(17) -0.2500
C2 C 0.04040(15) -0.55269(13) -0.1278(3)
C3 C 0.07982(15) -0.57648(13) 0.0013(3)
H1 H 0.0792 -0.6112 0.0254
C4 C 0.11809(15) -0.54032(13) 0.0825(3)
H2 H 0.1498 -0.5451 0.1728
C5 C 0.10147(15) -0.49350(12) 0.0061(3)
C6 C 0.13441(14) -0.44708(13) 0.0431(3)
C7 C 0.11521(15) -0.40117(13) -0.0253(3)
C8 C 0.14995(16) -0.35402(14) 0.0088(4)
H3 H 0.1917 -0.3494 0.0752
C9 C 0.11222(17) -0.31763(14) -0.0709(4)
H4 H 0.1226 -0.2828 -0.0703
C10 C 0.05316(15) -0.34134(12) -0.1575(3)
C11 C -0.0000 -0.31638(18) -0.2500
N1 N 0.05297(13) -0.50169(10) -0.1181(3)
N2 N 0.05811(13) -0.39213(10) -0.1300(3)
C12 C 0.0000 -0.63412(18) -0.2500
C13 C 0.05717(18) -0.66093(14) -0.2404(4)
H7 H 0.0965 -0.6431 -0.2336
C14 C 0.05759(19) -0.71314(14) -0.2404(4)
H8 H 0.0969 -0.7308 -0.2340
C15 C -0.0000 -0.7398(2) -0.2500
C16 C -0.0000 -0.7969(2) -0.2500
O1 O -0.05048(15) -0.81945(10) -0.2370(3)
C17 C 0.19921(14) -0.44865(12) 0.1546(3)
C18 C 0.25594(15) -0.44260(14) 0.1091(3)
H10 H 0.2521 -0.4341 0.0111
C19 C 0.31700(15) -0.44875(13) 0.2040(3)
H11 H 0.3546 -0.4460 0.1702
C20 C 0.32353(15) -0.45902(12) 0.3490(3)
C21 C 0.26828(15) -0.46096(13) 0.3976(3)
H12 H 0.2726 -0.4658 0.4978
C22 C 0.20656(15) -0.45596(13) 0.3015(3)
H13 H 0.1692 -0.4575 0.3365
C23 C 0.38963(15) -0.47077(13) 0.4488(3)
O2 O 0.39720(11) -0.46906(10) 0.5834(2)
O3 O 0.43461(10) -0.48309(8) 0.3933(2)
C24 C -0.0000 -0.26077(19) -0.2500
C25 C -0.0076(2) -0.23382(15) -0.3758(4)
H14 H -0.0122 -0.2514 -0.4643
C26 C -0.0088(2) -0.18139(15) -0.3762(4)
H15 H -0.0157 -0.1637 -0.4652
C27 C -0.0000 -0.15486(19) -0.2500
C28 C 0.0000 -0.09870(18) -0.2500
O4 O -0.03710(10) -0.07511(8) -0.3559(2)
O5 O 0.03080(13) 0.08433(9) -0.3605(2)
H16 H 0.0415 0.0795 -0.4507
H17 H 0.0523 0.0634 -0.2942
Gd1G Gd 0.5000 -0.510150(9) 0.2500
Gd1A Gd 0.5000 -0.489850(9) 0.7500
Gd1A_2 Gd -0.5000 -0.489850(9) -1.2500
Gd1G_2 Gd -0.5000 -0.510150(9) -0.7500
C2B C -0.04040(15) -0.55269(13) -0.3722(3)
C3B C -0.07982(15) -0.57648(13) -0.5013(3)
H1B H -0.0792 -0.6112 -0.5254
C4B C -0.11809(15) -0.54032(13) -0.5825(3)
H2B H -0.1498 -0.5451 -0.6728
C5B C -0.10147(15) -0.49350(12) -0.5061(3)
C6B C -0.13441(14) -0.44708(13) -0.5431(3)
C7B C -0.11521(15) -0.40117(13) -0.4747(3)
C8B C -0.14995(16) -0.35402(14) -0.5088(4)
H3B H -0.1917 -0.3494 -0.5752
C9B C -0.11222(17) -0.31763(14) -0.4291(4)
H4B H -0.1226 -0.2828 -0.4297
C10B C -0.05316(15) -0.34134(12) -0.3425(3)
N1B N -0.05297(13) -0.50169(10) -0.3819(3)
N2B N -0.05811(13) -0.39213(10) -0.3700(3)
C13B C -0.05717(18) -0.66093(14) -0.2596(4)
H7B H -0.0965 -0.6431 -0.2664
C14B C -0.05759(19) -0.71314(14) -0.2596(4)
H8B H -0.0969 -0.7308 -0.2660
O1B O 0.05048(15) -0.81945(10) -0.2630(3)
C17B C -0.19921(14) -0.44865(12) -0.6546(3)
C18B C -0.25594(15) -0.44260(14) -0.6091(3)
H10B H -0.2521 -0.4341 -0.5111
C19B C -0.31700(15) -0.44875(13) -0.7040(3)
H11B H -0.3546 -0.4460 -0.6702
C20B C -0.32353(15) -0.45902(12) -0.8490(3)
C21B C -0.26828(15) -0.46096(13) -0.8976(3)
H12B H -0.2726 -0.4658 -0.9978
C22B C -0.20656(15) -0.45596(13) -0.8015(3)
H13B H -0.1692 -0.4575 -0.8365
C23B C -0.38963(15) -0.47077(13) -0.9488(3)
O2B O -0.39720(11) -0.46906(10) -1.0834(2)
O2A O -0.10280(11) 0.03094(10) -0.4166(2)
O2C O 0.10280(11) 0.03094(10) -0.0834(2)
O3B O -0.43461(10) -0.48309(8) -0.8933(2)
O3G O -0.06539(10) -0.01691(8) -0.1067(2)
O3E O 0.06539(10) -0.01691(8) -0.3933(2)
C25B C 0.0076(2) -0.23382(15) -0.1242(4)
H14B H 0.0122 -0.2514 -0.0357
C26B C 0.0088(2) -0.18139(15) -0.1238(4)
H15B H 0.0157 -0.1637 -0.0348
O4B O 0.03710(10) -0.07511(8) -0.1441(2)
O5B O -0.03080(13) 0.08433(9) -0.1395(2)
H16B H -0.0415 0.0795 -0.0493
H17B H -0.0523 0.0634 -0.2058
loop_
_geom_bond_atom_site_label_1
_geom_bond_atom_site_label_2
_geom_bond_site_symmetry_1
_geom_bond_site_symmetry_2
Gd1 O4 1_555 1_555
C1 C2 1_555 1_555
C2 C3 1_555 1_555
C3 H1 1_555 1_555
C4 C3 1_555 1_555
H2 C4 1_555 1_555
C5 C4 1_555 1_555
C6 C5 1_555 1_555
C7 C6 1_555 1_555
C8 C7 1_555 1_555
H3 C8 1_555 1_555
C9 C8 1_555 1_555
H4 C9 1_555 1_555
C10 C9 1_555 1_555
C11 C10 1_555 1_555
N1 C2 1_555 1_555
N2 C7 1_555 1_555
C12 C1 1_555 1_555
C13 C12 1_555 1_555
H7 C13 1_555 1_555
C14 C13 1_555 1_555
H8 C14 1_555 1_555
C15 C14 1_555 1_555
C16 C15 1_555 1_555
O1 C16 1_555 1_555
C17 C6 1_555 1_555
C18 C17 1_555 1_555
H10 C18 1_555 1_555
C19 C18 1_555 1_555
H11 C19 1_555 1_555
C20 C19 1_555 1_555
C21 C20 1_555 1_555
H12 C21 1_555 1_555
C22 C17 1_555 1_555
H13 C22 1_555 1_555
C23 C20 1_555 1_555
O2 C23 1_555 1_555
O3 C23 1_555 1_555
C24 C11 1_555 1_555
C25 C24 1_555 1_555
H14 C25 1_555 1_555
C26 C25 1_555 1_555
H15 C26 1_555 1_555
C27 C26 1_555 1_555
C28 C27 1_555 1_555
O4 C28 1_555 1_555
O5 Gd1 1_555 1_555
H16 O5 1_555 1_555
H17 O5 1_555 1_555
Gd1G O3 1_555 1_555
Gd1A O2 1_555 1_555
Gd1A_2 O2B 1_555 1_555
Gd1G_2 O3B 1_555 1_555
C2B C1 1_555 1_555
C3B C2B 1_555 1_555
H1B C3B 1_555 1_555
C4B C3B 1_555 1_555
H2B C4B 1_555 1_555
C5B C4B 1_555 1_555
C6B C5B 1_555 1_555
C7B C6B 1_555 1_555
C8B C7B 1_555 1_555
H3B C8B 1_555 1_555
C9B C8B 1_555 1_555
H4B C9B 1_555 1_555
C10B C11 1_555 1_555
N1B C2B 1_555 1_555
N2B C7B 1_555 1_555
C13B C12 1_555 1_555
H7B C13B 1_555 1_555
C14B C15 1_555 1_555
H8B C14B 1_555 1_555
O1B C16 1_555 1_555
C17B C6B 1_555 1_555
C18B C17B 1_555 1_555
H10B C18B 1_555 1_555
C19B C18B 1_555 1_555
H11B C19B 1_555 1_555
C20B C19B 1_555 1_555
C21B C20B 1_555 1_555
H12B C21B 1_555 1_555
C22B C17B 1_555 1_555
H13B C22B 1_555 1_555
C23B C20B 1_555 1_555
O2B C23B 1_555 1_555
O2A Gd1 1_555 1_555
O2C Gd1 1_555 1_555
O3B C23B 1_555 1_555
O3G Gd1 1_555 1_555
O3E Gd1 1_555 1_555
C25B C24 1_555 1_555
H14B C25B 1_555 1_555
C26B C27 1_555 1_555
H15B C26B 1_555 1_555
O4B Gd1 1_555 1_555
O5B Gd1 1_555 1_555
H16B O5B 1_555 1_555
H17B O5B 1_555 1_555
C5 N1 1_555 1_555
C10 N2 1_555 1_555
C21 C22 1_555 1_555
C28 O4B 1_555 1_555
C5B N1B 1_555 1_555
C9B C10B 1_555 1_555
C10B N2B 1_555 1_555
C13B C14B 1_555 1_555
C21B C22B 1_555 1_555
C25B C26B 1_555 1_555

#END
