
#######################################################################
#
#                 Cambridge Crystallographic Data Centre
#                                CCDC 
#
#######################################################################
#
# If this CIF has been generated from an entry in the Cambridge 
# Structural Database, then it will include bibliographic, chemical, 
# crystal, experimental, refinement or atomic coordinate data resulting 
# from the CCDC's data processing and validation procedures.
#
#######################################################################

data_NIKJIB
_chemical_formula_moiety         '(C48 H31 Er1 N4 O10)n'
_symmetry_cell_setting           orthorhombic
_symmetry_space_group_name_H-M   'P n n a'
_symmetry_Int_Tables_number      52
_space_group_name_Hall           '-P 2a 2bc'
loop_
_symmetry_equiv_pos_site_id
_symmetry_equiv_pos_as_xyz
1 x,y,z
2 1/2-x,-y,z
3 x,1/2-y,1/2-z
4 1/2-x,1/2+y,1/2-z
5 -x,-y,-z
6 1/2+x,y,-z
7 -x,1/2+y,1/2+z
8 1/2+x,1/2-y,1/2+z
_cell_length_a                   9.4217(8)
_cell_length_b                   22.1411(19)
_cell_length_c                   26.340(6)
_cell_angle_alpha                90
_cell_angle_beta                 90
_cell_angle_gamma                90
_cell_volume                     5494.7
loop_
_atom_site_label
_atom_site_type_symbol
_atom_site_fract_x
_atom_site_fract_y
_atom_site_fract_z
Er1 Er 0.2500 0.0000 0.513810(8)
C1 C 0.2500 0.0000 -0.0762(2)
C2 C 0.2051(6) 0.0529(2) -0.05128(17)
C3 C 0.1482(7) 0.1050(3) -0.07586(19)
H1 H 0.1313 0.1095 -0.1112
C4 C 0.1228(7) 0.1469(2) -0.03948(19)
H2 H 0.0888 0.1869 -0.0446
C5 C 0.1572(7) 0.1193(2) 0.00833(18)
C6 C 0.1494(6) 0.14934(19) 0.05552(17)
C7 C 0.1763(6) 0.1223(2) 0.10278(17)
C8 C 0.1625(6) 0.1522(2) 0.15145(16)
H3 H 0.1393 0.1935 0.1568
C9 C 0.1882(6) 0.1112(2) 0.18749(17)
H4 H 0.1848 0.1180 0.2231
C10 C 0.2223(5) 0.0546(2) 0.16269(16)
C11 C 0.2500 0.0000 0.1873(2)
N1 N 0.2087(5) 0.06225(18) 0.00018(16)
N2 N 0.2131(4) 0.06329(17) 0.11119(13)
C12 C 0.2500 0.0000 -0.1325(2)
C13 C 0.3473(6) 0.0343(3) -0.1596(2)
H5 H 0.4144 0.0586 -0.1421
C14 C 0.3467(7) 0.0332(3) -0.2119(2)
H6 H 0.4155 0.0561 -0.2299
C15 C 0.2500 -0.0000 -0.2386(3)
C16 C 0.2500 -0.0000 -0.2974(3)
O1 O 0.1575(5) -0.0296(3) -0.31921(18)
C17 C 0.1115(6) 0.2136(2) 0.05410(16)
C18 C 0.2059(7) 0.2571(3) 0.0375(3)
H7 H 0.3008 0.2452 0.0305
C19 C 0.1698(6) 0.3168(2) 0.0304(3)
H8 H 0.2378 0.3447 0.0178
C20 C 0.0351(4) 0.33550(18) 0.04164(15)
C21 C -0.0599(5) 0.2944(2) 0.0609(2)
H9 H -0.1533 0.3072 0.0692
C22 C -0.0221(5) 0.2342(2) 0.0686(2)
H10 H -0.0878 0.2071 0.0837
C23 C -0.0111(4) 0.3982(2) 0.02950(14)
O2 O 0.0782(3) 0.43393(12) 0.01085(10)
O3 O -0.1371(3) 0.41226(13) 0.03765(11)
C24 C 0.2500 0.0000 0.2441(2)
C25 C 0.1567(5) -0.0352(2) 0.27093(17)
H11 H 0.0908 -0.0599 0.2532
C26 C 0.1572(5) -0.0355(2) 0.32345(16)
H12 H 0.0923 -0.0605 0.3413
C27 C 0.2500 0.0000 0.3500(2)
C28 C 0.2500 0.0000 0.40709(18)
O4 O 0.1661(3) -0.03485(12) 0.43084(10)
O5 O 0.3822(3) -0.02934(14) 0.58702(10)
H13 H 0.4773 -0.0311 0.5812
H14 H 0.3695 -0.0111 0.6173
Er1F Er -0.2500 0.5000 0.013810(8)
Er1B Er 0.2500 0.5000 -0.013810(8)
Er1B_2 Er 0.2500 -0.5000 -0.013810(8)
Er1F_2 Er 0.7500 -0.5000 0.013810(8)
C2A C 0.2949(6) -0.0529(2) -0.05128(17)
C3A C 0.3518(7) -0.1050(3) -0.07586(19)
H1A H 0.3687 -0.1095 -0.1112
C4A C 0.3772(7) -0.1469(2) -0.03948(19)
H2A H 0.4112 -0.1869 -0.0446
C5A C 0.3428(7) -0.1193(2) 0.00833(18)
C6A C 0.3506(6) -0.14934(19) 0.05552(17)
C7A C 0.3237(6) -0.1223(2) 0.10278(17)
C8A C 0.3375(6) -0.1522(2) 0.15145(16)
H3A H 0.3607 -0.1935 0.1568
C9A C 0.3118(6) -0.1112(2) 0.18749(17)
H4A H 0.3152 -0.1180 0.2231
C10A C 0.2777(5) -0.0546(2) 0.16269(16)
N1A N 0.2913(5) -0.06225(18) 0.00018(16)
N2A N 0.2869(4) -0.06329(17) 0.11119(13)
C13A C 0.1527(6) -0.0343(3) -0.1596(2)
H5A H 0.0856 -0.0586 -0.1421
C14A C 0.1533(7) -0.0332(3) -0.2119(2)
H6A H 0.0845 -0.0561 -0.2299
O1A O 0.3425(5) 0.0296(3) -0.31921(18)
C17A C 0.3885(6) -0.2136(2) 0.05410(16)
C18A C 0.2941(7) -0.2571(3) 0.0375(3)
H7A H 0.1992 -0.2452 0.0305
C19A C 0.3302(6) -0.3168(2) 0.0304(3)
H8A H 0.2622 -0.3447 0.0178
C20A C 0.4649(4) -0.33550(18) 0.04164(15)
C21A C 0.5599(5) -0.2944(2) 0.0609(2)
H9A H 0.6533 -0.3072 0.0692
C22A C 0.5221(5) -0.2342(2) 0.0686(2)
H10A H 0.5878 -0.2071 0.0837
C23A C 0.5111(4) -0.3982(2) 0.02950(14)
O2A O 0.4218(3) -0.43393(12) 0.01085(10)
O2B O 0.0782(3) 0.06607(12) 0.48915(10)
O2C O 0.4218(3) -0.06607(12) 0.48915(10)
O3A O 0.6371(3) -0.41226(13) 0.03765(11)
O3F O 0.1371(3) -0.08774(13) 0.53765(11)
O3G O 0.3629(3) 0.08774(13) 0.53765(11)
C25A C 0.3433(5) 0.0352(2) 0.27093(17)
H11A H 0.4092 0.0599 0.2532
C26A C 0.3428(5) 0.0355(2) 0.32345(16)
H12A H 0.4077 0.0605 0.3413
O4A O 0.3339(3) 0.03485(12) 0.43084(10)
O5A O 0.1178(3) 0.02934(14) 0.58702(10)
H13A H 0.0227 0.0311 0.5812
H14A H 0.1305 0.0111 0.6173
loop_
_geom_bond_atom_site_label_1
_geom_bond_atom_site_label_2
_geom_bond_site_symmetry_1
_geom_bond_site_symmetry_2
Er1 O4 1_555 1_555
C1 C2 1_555 1_555
C2 C3 1_555 1_555
C3 H1 1_555 1_555
C4 C3 1_555 1_555
H2 C4 1_555 1_555
C5 C4 1_555 1_555
C6 C5 1_555 1_555
C7 C6 1_555 1_555
C8 C7 1_555 1_555
H3 C8 1_555 1_555
C9 C8 1_555 1_555
H4 C9 1_555 1_555
C10 C9 1_555 1_555
C11 C10 1_555 1_555
N1 C2 1_555 1_555
N2 C7 1_555 1_555
C12 C1 1_555 1_555
C13 C12 1_555 1_555
H5 C13 1_555 1_555
C14 C13 1_555 1_555
H6 C14 1_555 1_555
C15 C14 1_555 1_555
C16 C15 1_555 1_555
O1 C16 1_555 1_555
C17 C6 1_555 1_555
C18 C17 1_555 1_555
H7 C18 1_555 1_555
C19 C18 1_555 1_555
H8 C19 1_555 1_555
C20 C19 1_555 1_555
C21 C20 1_555 1_555
H9 C21 1_555 1_555
C22 C17 1_555 1_555
H10 C22 1_555 1_555
C23 C20 1_555 1_555
O2 C23 1_555 1_555
O3 C23 1_555 1_555
C24 C11 1_555 1_555
C25 C24 1_555 1_555
H11 C25 1_555 1_555
C26 C25 1_555 1_555
H12 C26 1_555 1_555
C27 C26 1_555 1_555
C28 C27 1_555 1_555
O4 C28 1_555 1_555
O5 Er1 1_555 1_555
H13 O5 1_555 1_555
H14 O5 1_555 1_555
Er1F O3 1_555 1_555
Er1B O2 1_555 1_555
Er1B_2 O2A 1_555 1_555
Er1F_2 O3A 1_555 1_555
C2A C1 1_555 1_555
C3A C2A 1_555 1_555
H1A C3A 1_555 1_555
C4A C3A 1_555 1_555
H2A C4A 1_555 1_555
C5A C4A 1_555 1_555
C6A C5A 1_555 1_555
C7A C6A 1_555 1_555
C8A C7A 1_555 1_555
H3A C8A 1_555 1_555
C9A C8A 1_555 1_555
H4A C9A 1_555 1_555
C10A C11 1_555 1_555
N1A C2A 1_555 1_555
N2A C7A 1_555 1_555
C13A C12 1_555 1_555
H5A C13A 1_555 1_555
C14A C15 1_555 1_555
H6A C14A 1_555 1_555
O1A C16 1_555 1_555
C17A C6A 1_555 1_555
C18A C17A 1_555 1_555
H7A C18A 1_555 1_555
C19A C18A 1_555 1_555
H8A C19A 1_555 1_555
C20A C19A 1_555 1_555
C21A C20A 1_555 1_555
H9A C21A 1_555 1_555
C22A C17A 1_555 1_555
H10A C22A 1_555 1_555
C23A C20A 1_555 1_555
O2A C23A 1_555 1_555
O2B Er1 1_555 1_555
O2C Er1 1_555 1_555
O3A C23A 1_555 1_555
O3F Er1 1_555 1_555
O3G Er1 1_555 1_555
C25A C24 1_555 1_555
H11A C25A 1_555 1_555
C26A C27 1_555 1_555
H12A C26A 1_555 1_555
O4A Er1 1_555 1_555
O5A Er1 1_555 1_555
H13A O5A 1_555 1_555
H14A O5A 1_555 1_555
C5 N1 1_555 1_555
C10 N2 1_555 1_555
C21 C22 1_555 1_555
C28 O4A 1_555 1_555
C5A N1A 1_555 1_555
C9A C10A 1_555 1_555
C10A N2A 1_555 1_555
C13A C14A 1_555 1_555
C21A C22A 1_555 1_555
C25A C26A 1_555 1_555

#END
