
#######################################################################
#
#                 Cambridge Crystallographic Data Centre
#                                CCDC 
#
#######################################################################
#
# If this CIF has been generated from an entry in the Cambridge 
# Structural Database, then it will include bibliographic, chemical, 
# crystal, experimental, refinement or atomic coordinate data resulting 
# from the CCDC's data processing and validation procedures.
#
#######################################################################

data_NIKJOH
_chemical_formula_moiety         '(C150 H102 N14 O30 Sm4)n'
_symmetry_cell_setting           monoclinic
_symmetry_space_group_name_H-M   'C 2/c'
_symmetry_Int_Tables_number      15
_space_group_name_Hall           '-C 2yc'
loop_
_symmetry_equiv_pos_site_id
_symmetry_equiv_pos_as_xyz
1 x,y,z
2 1/2+x,1/2+y,z
3 -x,y,1/2-z
4 1/2-x,1/2+y,1/2-z
5 -x,-y,-z
6 1/2-x,1/2-y,-z
7 x,-y,1/2+z
8 1/2+x,1/2-y,1/2+z
_cell_length_a                   21.5598(3)
_cell_length_b                   24.0771(3)
_cell_length_c                   31.2327(6)
_cell_angle_alpha                90
_cell_angle_beta                 105.0195(5)
_cell_angle_gamma                90
_cell_volume                     15658.9
loop_
_atom_site_label
_atom_site_type_symbol
_atom_site_fract_x
_atom_site_fract_y
_atom_site_fract_z
Sm1 Sm 0.914384(14) 0.229593(11) 0.199273(9)
Sm2 Sm 0.672640(17) -0.190080(12) 0.413130(10)
C1 C 0.6627(3) 0.2548(2) 0.5167(2)
C2 C 0.6736(3) 0.2025(2) 0.5391(2)
H1 H 0.6749 0.1959 0.5694
C3 C 0.6816(3) 0.1647(3) 0.5100(2)
H2 H 0.6908 0.1264 0.5158
C4 C 0.6738(3) 0.1924(2) 0.4679(2)
C5 C 0.6685(3) 0.1669(2) 0.4270(2)
C6 C 0.6633(3) 0.1956(2) 0.3869(2)
C7 C 0.6548(3) 0.1708(3) 0.3435(2)
H3 H 0.6464 0.1327 0.3365
C8 C 0.6610(3) 0.2106(2) 0.3150(2)
H4 H 0.6580 0.2059 0.2843
C9 C 0.6730(3) 0.2618(2) 0.3396(2)
C10 C 0.6903(3) 0.3121(2) 0.32481(18)
C11 C 0.6944(3) 0.3631(2) 0.34770(19)
C12 C 0.7082(3) 0.4166(2) 0.33193(19)
H5 H 0.7216 0.4236 0.3058
C13 C 0.6987(3) 0.4550(2) 0.36105(18)
H6 H 0.7035 0.4940 0.3591
C14 C 0.6799(3) 0.4251(2) 0.39589(19)
C15 C 0.6624(3) 0.4502(2) 0.4315(2)
C16 C 0.6473(3) 0.4227(2) 0.4669(2)
C17 C 0.6273(4) 0.4481(2) 0.5028(2)
H7 H 0.6187 0.4864 0.5054
C18 C 0.6230(4) 0.4083(2) 0.5319(2)
H8 H 0.6120 0.4132 0.5592
C19 C 0.6385(3) 0.3561(2) 0.51343(19)
C20 C 0.6443(3) 0.3046(2) 0.53442(19)
N1 N 0.6661(2) 0.24786(17) 0.47404(16)
H9 H 0.6638 0.2742 0.4542
N2 N 0.6693(2) 0.25143(19) 0.38230(16)
N3 N 0.6793(2) 0.36928(18) 0.38794(16)
H10 H 0.6710 0.3427 0.4049
N4 N 0.6516(3) 0.36675(18) 0.47351(16)
C21 C 0.6693(3) 0.1049(2) 0.4249(2)
C22 C 0.6240(4) 0.0747(3) 0.4406(3)
H11 H 0.5939 0.0937 0.4527
C23 C 0.6231(5) 0.0163(3) 0.4382(3)
H12 H 0.5923 -0.0042 0.4487
C24 C 0.6686(4) -0.0119(3) 0.4201(3)
C25 C 0.7125(4) 0.0189(3) 0.4052(3)
H13 H 0.7427 0.0006 0.3927
C26 C 0.7131(4) 0.0770(3) 0.4084(3)
H14 H 0.7446 0.0974 0.3987
C27 C 0.6695(5) -0.0746(3) 0.4170(3)
O1 O 0.6305(7) -0.1014(4) 0.4362(4)
O2 O 0.7029(6) -0.0968(3) 0.3949(4)
C28 C 0.7086(3) 0.3141(2) 0.28139(19)
C29 C 0.7721(3) 0.3258(2) 0.2814(2)
H15 H 0.8019 0.3350 0.3087
C30 C 0.7927(3) 0.3245(2) 0.24330(19)
H16 H 0.8360 0.3330 0.2440
C31 C 0.7480(3) 0.3104(2) 0.20301(19)
C32 C 0.6844(3) 0.3011(3) 0.2026(2)
H17 H 0.6539 0.2940 0.1752
C33 C 0.6644(3) 0.3022(2) 0.2414(2)
H18 H 0.6209 0.2947 0.2406
C34 C 0.7705(3) 0.3035(2) 0.16214(19)
O5 O 0.83124(19) 0.29511(15) 0.16649(13)
O6 O 0.7325(2) 0.30499(17) 0.12468(13)
C35 C 0.6585(3) 0.5127(2) 0.42959(19)
C36 C 0.6041(3) 0.5381(3) 0.4033(2)
H19 H 0.5669 0.5170 0.3902
C37 C 0.6052(3) 0.5953(2) 0.3963(2)
H20 H 0.5684 0.6129 0.3779
C38 C 0.6581(3) 0.6268(2) 0.41546(18)
C39 C 0.7112(3) 0.6009(2) 0.4435(2)
H21 H 0.7478 0.6224 0.4576
C40 C 0.7110(3) 0.5448(2) 0.4510(2)
H22 H 0.7468 0.5277 0.4710
C41 C 0.6608(3) 0.6875(2) 0.4060(2)
O7 O 0.7090(3) 0.71366(17) 0.42615(17)
O8 O 0.6139(2) 0.71014(16) 0.37851(14)
C42 C 0.6285(3) 0.3009(2) 0.57823(19)
C43 C 0.5636(4) 0.3012(3) 0.5796(2)
H23 H 0.5306 0.3060 0.5531
C44 C 0.5480(3) 0.2945(3) 0.6194(2)
H24 H 0.5043 0.2947 0.6201
C45 C 0.5963(3) 0.2875(2) 0.65869(18)
C46 C 0.6605(3) 0.2891(3) 0.6573(2)
H25 H 0.6938 0.2855 0.6838
C47 C 0.6755(3) 0.2958(3) 0.6172(2)
H26 H 0.7193 0.2970 0.6166
C48 C 0.5794(3) 0.2789(2) 0.7008(2)
O9 O 0.5215(2) 0.27281(16) 0.70127(14)
O10 O 0.6247(2) 0.27633(16) 0.73587(14)
C49 C 1.0009(3) -0.1532(2) 0.21048(18)
C50 C 1.0074(3) -0.1268(2) 0.1706(2)
H27 H 1.0068 -0.0879 0.1654
C51 C 1.0144(3) -0.1668(2) 0.1418(2)
H28 H 1.0203 -0.1612 0.1130
C52 C 1.0112(3) -0.2200(2) 0.16302(19)
C53 C 1.0196(3) -0.2718(2) 0.14509(19)
C54 C 1.0159(3) -0.3232(2) 0.16399(19)
C55 C 1.0196(3) -0.3762(2) 0.1423(2)
H29 H 1.0265 -0.3821 0.1139
C56 C 1.0109(3) -0.4160(2) 0.1719(2)
H30 H 1.0091 -0.4549 0.1669
C57 C 1.0051(3) -0.3893(2) 0.2113(2)
C58 C 1.0000 -0.4159(3) 0.2500
C59 C 1.0000 -0.1262(3) 0.2500
N5 N 1.0024(2) -0.21068(19) 0.20433(16)
N6 N 1.0079(2) -0.33317(18) 0.20565(16)
C60 C 1.0000 -0.0643(3) 0.2500
C61 C 0.9514(3) -0.0342(2) 0.2209(2)
H33 H 0.9183 -0.0538 0.2004
C62 C 0.9500(3) 0.0231(2) 0.2210(2)
H34 H 0.9156 0.0426 0.2017
C63 C 1.0000 0.0525(3) 0.2500
C64 C 1.0000 0.1148(4) 0.2500
O11 O 0.9521(2) 0.13892(15) 0.22534(14)
C65 C 1.0370(3) -0.2731(2) 0.1012(2)
C66 C 1.1012(4) -0.2795(3) 0.1012(3)
H35 H 1.1333 -0.2813 0.1285
C67 C 1.1185(5) -0.2833(3) 0.0615(3)
H36 H 1.1625 -0.2864 0.0618
C68 C 1.0716(5) -0.2826(3) 0.0214(3)
C69 C 1.0107(5) -0.2763(4) 0.0227(3)
H37 H 0.9784 -0.2750 -0.0045
C70 C 0.9924(4) -0.2714(4) 0.0619(2)
H38 H 0.9484 -0.2670 0.0612
C71 C 1.0772(9) -0.2888(6) -0.0247(6)
O12 O 1.0337(8) -0.2981(5) -0.0577(5)
O13 O 1.1290(5) -0.2797(4) -0.0320(4)
C73 C 1.0000 -0.4787(3) 0.2500
C74 C 0.9457(3) -0.5071(2) 0.2256(2)
H39 H 0.9090 -0.4874 0.2092
C75 C 0.9468(3) -0.5664(2) 0.2261(2)
H40 H 0.9103 -0.5864 0.2096
C76 C 1.0000 -0.5953(3) 0.2500
C77 C 1.0000 -0.6568(3) 0.2500
O16 O 0.94955(19) -0.68136(16) 0.22840(15)
O17 O 0.81422(19) 0.17508(16) 0.18074(13)
C78 C 0.7754(3) 0.1636(3) 0.2028(2)
H41 H 0.7830 0.1792 0.2316
N7 N 0.7251(3) 0.1318(2) 0.18929(19)
C79 C 0.7089(4) 0.1059(4) 0.1455(3)
H42 H 0.7232 0.1299 0.1246
H43 H 0.6623 0.1007 0.1354
H44 H 0.7304 0.0698 0.1472
C80 C 0.6820(4) 0.1204(4) 0.2182(3)
H45 H 0.7022 0.1333 0.2484
H46 H 0.6740 0.0803 0.2188
H47 H 0.6411 0.1399 0.2067
O18 O 0.7729(4) -0.1877(3) 0.4721(3)
H48 H 0.7817 -0.1504 0.4815
H49 H 0.8071 -0.2085 0.4611
O19 O 0.5635(3) -0.1825(3) 0.3644(2)
H50 H 0.5619 -0.1518 0.3450
H51 H 0.5340 -0.1767 0.3819
Sm1C Sm 0.585616(14) -0.270407(11) 0.300727(9)
Sm1C_2 Sm 0.585616(14) 0.729593(11) 0.300727(9)
Sm1G Sm 0.414384(14) 0.270407(11) 0.699273(9)
Sm1E Sm 0.585616(14) 0.270407(11) 0.800727(9)
Sm1_2 Sm 0.914384(14) -0.770407(11) 0.199273(9)
Sm1B Sm 1.085616(14) 0.229593(11) 0.300727(9)
Sm1B_2 Sm 1.085616(14) -0.770407(11) 0.300727(9)
Sm1D Sm 1.085616(14) -0.229593(11) -0.199273(9)
Sm1F Sm 0.914384(14) -0.229593(11) -0.300727(9)
Sm2C Sm 0.827360(17) -0.690080(12) 0.086870(10)
Sm2C_2 Sm 0.827360(17) 0.309920(12) 0.086870(10)
Sm2_2 Sm 0.672640(17) 0.809920(12) 0.413130(10)
Sm2G Sm 1.172640(17) -0.309920(12) -0.086870(10)
Sm2E Sm 0.827360(17) -0.309920(12) 0.586870(10)
C1C C 0.8373(3) -0.2452(2) -0.0167(2)
C2C C 0.8264(3) -0.2975(2) -0.0391(2)
H1C H 0.8251 -0.3041 -0.0694
C3C C 0.8184(3) -0.3353(3) -0.0100(2)
H2C H 0.8092 -0.3736 -0.0158
C4C C 0.8262(3) -0.3076(2) 0.0321(2)
C5C C 0.8315(3) -0.3331(2) 0.0730(2)
C6C C 0.8367(3) -0.3044(2) 0.1131(2)
C7C C 0.8452(3) -0.3292(3) 0.1565(2)
H3C H 0.8536 -0.3673 0.1635
C8C C 0.8390(3) -0.2894(2) 0.1850(2)
H4C H 0.8420 -0.2941 0.2157
C9C C 0.8270(3) -0.2382(2) 0.1604(2)
C10C C 0.8097(3) -0.1879(2) 0.17519(18)
C11C C 0.8056(3) -0.1369(2) 0.15230(19)
C12C C 0.7918(3) -0.0834(2) 0.16807(19)
H5C H 0.7784 -0.0764 0.1942
C13C C 0.8013(3) -0.0450(2) 0.13895(18)
H6C H 0.7965 -0.0060 0.1409
C14C C 0.8201(3) -0.0749(2) 0.10411(19)
C15C C 0.8376(3) -0.0498(2) 0.0685(2)
C16C C 0.8527(3) -0.0773(2) 0.0331(2)
C17C C 0.8727(4) -0.0519(2) -0.0028(2)
H7C H 0.8813 -0.0136 -0.0054
C18C C 0.8770(4) -0.0917(2) -0.0319(2)
H8C H 0.8880 -0.0868 -0.0592
C19C C 0.8615(3) -0.1439(2) -0.01343(19)
C20C C 0.8557(3) -0.1954(2) -0.03442(19)
N1C N 0.8339(2) -0.25214(17) 0.02596(16)
H9C H 0.8362 -0.2258 0.0458
N2C N 0.8307(2) -0.24857(19) 0.11770(16)
N3C N 0.8207(2) -0.13072(18) 0.11206(16)
H10C H 0.8290 -0.1573 0.0951
N4C N 0.8484(3) -0.13325(18) 0.02649(16)
C21C C 0.8307(3) -0.3951(2) 0.0751(2)
C22C C 0.8760(4) -0.4253(3) 0.0594(3)
H11C H 0.9061 -0.4063 0.0473
C23C C 0.8769(5) -0.4837(3) 0.0618(3)
H12C H 0.9077 -0.5042 0.0513
C24C C 0.8314(4) -0.5119(3) 0.0799(3)
C25C C 0.7875(4) -0.4811(3) 0.0948(3)
H13C H 0.7573 -0.4994 0.1073
C26C C 0.7869(4) -0.4230(3) 0.0916(3)
H14C H 0.7554 -0.4026 0.1013
C27C C 0.8305(5) -0.5746(3) 0.0830(3)
O1C O 0.8695(7) -0.6014(4) 0.0638(4)
O2C O 0.7971(6) -0.5968(3) 0.1051(4)
C28C C 0.7914(3) -0.1859(2) 0.21861(19)
C29C C 0.7279(3) -0.1742(2) 0.2186(2)
H15C H 0.6981 -0.1650 0.1913
C30C C 0.7073(3) -0.1755(2) 0.25670(19)
H16C H 0.6640 -0.1670 0.2560
C31C C 0.7520(3) -0.1896(2) 0.29699(19)
C32C C 0.8156(3) -0.1989(3) 0.2974(2)
H17C H 0.8461 -0.2060 0.3248
C33C C 0.8356(3) -0.1978(2) 0.2586(2)
H18C H 0.8791 -0.2053 0.2594
C34C C 0.7295(3) -0.1965(2) 0.33786(19)
O5C O 0.66876(19) -0.20489(15) 0.33351(13)
O5_2 O 0.83124(19) -0.70489(15) 0.16649(13)
O6C O 0.7675(2) -0.19501(17) 0.37532(13)
O6_2 O 0.7325(2) -0.69501(17) 0.12468(13)
C35C C 0.8415(3) 0.0127(2) 0.07041(19)
C36C C 0.8959(3) 0.0381(3) 0.0967(2)
H19C H 0.9331 0.0170 0.1098
C37C C 0.8948(3) 0.0953(2) 0.1037(2)
H20C H 0.9316 0.1129 0.1221
C38C C 0.8419(3) 0.1268(2) 0.08454(18)
C39C C 0.7888(3) 0.1009(2) 0.0565(2)
H21C H 0.7522 0.1224 0.0424
C40C C 0.7890(3) 0.0448(2) 0.0490(2)
H22C H 0.7532 0.0277 0.0290
C41C C 0.8392(3) 0.1875(2) 0.0940(2)
O7C O 0.7910(3) 0.21366(17) 0.07385(17)
O7_2 O 0.7090(3) -0.28634(17) 0.42615(17)
O7C_2 O 0.7910(3) -0.78634(17) 0.07385(17)
O8C O 0.8861(2) 0.21014(16) 0.12149(14)
O8_2 O 0.6139(2) -0.28986(16) 0.37851(14)
C42C C 0.8715(3) -0.1991(2) -0.07823(19)
C43C C 0.9364(4) -0.1988(3) -0.0796(2)
H23C H 0.9694 -0.1940 -0.0531
C44C C 0.9520(3) -0.2055(3) -0.1194(2)
H24C H 0.9957 -0.2053 -0.1201
C45C C 0.9037(3) -0.2125(2) -0.15869(18)
C46C C 0.8395(3) -0.2109(3) -0.1573(2)
H25C H 0.8062 -0.2145 -0.1838
C47C C 0.8245(3) -0.2042(3) -0.1172(2)
H26C H 0.7807 -0.2030 -0.1166
C48C C 0.9206(3) -0.2211(2) -0.2008(2)
O9C O 0.9785(2) -0.22719(16) -0.20127(14)
O9G O 1.0215(2) 0.22719(16) 0.20127(14)
O9D O 0.4785(2) -0.27281(16) 0.29873(14)
O10C O 0.8753(2) -0.22367(16) -0.23587(14)
O10E O 0.8753(2) 0.22367(16) 0.26413(14)
O10F O 0.6247(2) -0.27633(16) 0.23587(14)
C49B C 0.9991(3) -0.1532(2) 0.28952(18)
C50B C 0.9926(3) -0.1268(2) 0.3294(2)
H27B H 0.9932 -0.0879 0.3346
C51B C 0.9856(3) -0.1668(2) 0.3582(2)
H28B H 0.9797 -0.1612 0.3870
C52B C 0.9888(3) -0.2200(2) 0.33698(19)
C53B C 0.9804(3) -0.2718(2) 0.35491(19)
C54B C 0.9841(3) -0.3232(2) 0.33601(19)
C55B C 0.9804(3) -0.3762(2) 0.3577(2)
H29B H 0.9735 -0.3821 0.3861
C56B C 0.9891(3) -0.4160(2) 0.3281(2)
H30B H 0.9909 -0.4549 0.3331
C57B C 0.9949(3) -0.3893(2) 0.2887(2)
N5B N 0.9976(2) -0.21068(19) 0.29567(16)
N6B N 0.9921(2) -0.33317(18) 0.29435(16)
C61B C 1.0486(3) -0.0342(2) 0.2791(2)
H33B H 1.0817 -0.0538 0.2996
C62B C 1.0500(3) 0.0231(2) 0.2790(2)
H34B H 1.0844 0.0426 0.2983
O11B O 1.0479(2) 0.13892(15) 0.27466(14)
O11C O 0.5479(2) -0.36108(15) 0.27466(14)
C65B C 0.9630(3) -0.2731(2) 0.3988(2)
C66B C 0.8988(4) -0.2795(3) 0.3988(3)
H35B H 0.8667 -0.2813 0.3715
C67B C 0.8815(5) -0.2833(3) 0.4385(3)
H36B H 0.8375 -0.2864 0.4382
C68B C 0.9284(5) -0.2826(3) 0.4786(3)
C69B C 0.9893(5) -0.2763(4) 0.4773(3)
H37B H 1.0216 -0.2750 0.5045
C70B C 1.0076(4) -0.2714(4) 0.4381(2)
H38B H 1.0516 -0.2670 0.4388
C71B C 0.9228(9) -0.2888(6) 0.5247(6)
O12B O 0.9663(8) -0.2981(5) 0.5577(5)
O13B O 0.8710(5) -0.2797(4) 0.5320(4)
O13G O 0.6290(5) -0.2203(4) 0.4680(4)
O13D O 0.8710(5) -0.7203(4) 0.0320(4)
C74B C 1.0543(3) -0.5071(2) 0.2744(2)
H39B H 1.0910 -0.4874 0.2908
C75B C 1.0532(3) -0.5664(2) 0.2739(2)
H40B H 1.0897 -0.5864 0.2904
O16B O 1.05045(19) -0.68136(16) 0.27160(15)
O16_2 O 0.94955(19) 0.31864(16) 0.22840(15)
O16C O 0.55045(19) -0.18136(16) 0.27160(15)
O17C O 0.68578(19) -0.32492(16) 0.31926(13)
C78C C 0.7246(3) -0.3364(3) 0.2972(2)
H41C H 0.7170 -0.3208 0.2684
N7C N 0.7749(3) -0.3682(2) 0.31071(19)
C79C C 0.7911(4) -0.3941(4) 0.3545(3)
H42C H 0.7768 -0.3701 0.3754
H43C H 0.8377 -0.3993 0.3646
H44C H 0.7696 -0.4302 0.3528
C80C C 0.8180(4) -0.3796(4) 0.2818(3)
H45C H 0.7978 -0.3667 0.2516
H46C H 0.8260 -0.4197 0.2812
H47C H 0.8589 -0.3601 0.2933
O18C O 0.7271(4) -0.6877(3) 0.0279(3)
H48C H 0.7183 -0.6504 0.0185
H49C H 0.6929 -0.7085 0.0389
O19C O 0.9365(3) -0.6825(3) 0.1356(2)
H50C H 0.9381 -0.6518 0.1550
H51C H 0.9660 -0.6767 0.1181
loop_
_geom_bond_atom_site_label_1
_geom_bond_atom_site_label_2
_geom_bond_site_symmetry_1
_geom_bond_site_symmetry_2
Sm1 O5 1_555 1_555
Sm2 O1 1_555 1_555
C1 C2 1_555 1_555
C2 H1 1_555 1_555
C3 C2 1_555 1_555
H2 C3 1_555 1_555
C4 C3 1_555 1_555
C5 C4 1_555 1_555
C6 C5 1_555 1_555
C7 C6 1_555 1_555
H3 C7 1_555 1_555
C8 C7 1_555 1_555
H4 C8 1_555 1_555
C9 C8 1_555 1_555
C10 C9 1_555 1_555
C11 C10 1_555 1_555
C12 C11 1_555 1_555
H5 C12 1_555 1_555
C13 C12 1_555 1_555
H6 C13 1_555 1_555
C14 C13 1_555 1_555
C15 C14 1_555 1_555
C16 C15 1_555 1_555
C17 C16 1_555 1_555
H7 C17 1_555 1_555
C18 C17 1_555 1_555
H8 C18 1_555 1_555
C19 C18 1_555 1_555
C20 C1 1_555 1_555
N1 C1 1_555 1_555
H9 N1 1_555 1_555
N2 C6 1_555 1_555
N3 C11 1_555 1_555
H10 N3 1_555 1_555
N4 C16 1_555 1_555
C21 C5 1_555 1_555
C22 C21 1_555 1_555
H11 C22 1_555 1_555
C23 C22 1_555 1_555
H12 C23 1_555 1_555
C24 C23 1_555 1_555
C25 C24 1_555 1_555
H13 C25 1_555 1_555
C26 C21 1_555 1_555
H14 C26 1_555 1_555
C27 C24 1_555 1_555
O1 C27 1_555 1_555
O2 Sm2 1_555 1_555
C28 C10 1_555 1_555
C29 C28 1_555 1_555
H15 C29 1_555 1_555
C30 C29 1_555 1_555
H16 C30 1_555 1_555
C31 C30 1_555 1_555
C32 C31 1_555 1_555
H17 C32 1_555 1_555
C33 C28 1_555 1_555
H18 C33 1_555 1_555
C34 C31 1_555 1_555
O5 C34 1_555 1_555
O6 C34 1_555 1_555
C35 C15 1_555 1_555
C36 C35 1_555 1_555
H19 C36 1_555 1_555
C37 C36 1_555 1_555
H20 C37 1_555 1_555
C38 C37 1_555 1_555
C39 C38 1_555 1_555
H21 C39 1_555 1_555
C40 C35 1_555 1_555
H22 C40 1_555 1_555
C41 C38 1_555 1_555
O7 C41 1_555 1_555
O8 C41 1_555 1_555
C42 C20 1_555 1_555
C43 C42 1_555 1_555
H23 C43 1_555 1_555
C44 C43 1_555 1_555
H24 C44 1_555 1_555
C45 C44 1_555 1_555
C46 C45 1_555 1_555
H25 C46 1_555 1_555
C47 C42 1_555 1_555
H26 C47 1_555 1_555
C48 C45 1_555 1_555
O9 C48 1_555 1_555
O10 C48 1_555 1_555
C49 C50 1_555 1_555
C50 H27 1_555 1_555
C51 C50 1_555 1_555
H28 C51 1_555 1_555
C52 C51 1_555 1_555
C53 C52 1_555 1_555
C54 C53 1_555 1_555
C55 C54 1_555 1_555
H29 C55 1_555 1_555
C56 C55 1_555 1_555
H30 C56 1_555 1_555
C57 C56 1_555 1_555
C58 C57 1_555 1_555
C59 C49 1_555 1_555
N5 C49 1_555 1_555
N6 C54 1_555 1_555
C60 C59 1_555 1_555
C61 C60 1_555 1_555
H33 C61 1_555 1_555
C62 C61 1_555 1_555
H34 C62 1_555 1_555
C63 C62 1_555 1_555
C64 C63 1_555 1_555
O11 Sm1 1_555 1_555
C65 C53 1_555 1_555
C66 C65 1_555 1_555
H35 C66 1_555 1_555
C67 C66 1_555 1_555
H36 C67 1_555 1_555
C68 C67 1_555 1_555
C69 C68 1_555 1_555
H37 C69 1_555 1_555
C70 C65 1_555 1_555
H38 C70 1_555 1_555
C71 C68 1_555 1_555
O12 C71 1_555 1_555
O13 C71 1_555 1_555
C73 C58 1_555 1_555
C74 C73 1_555 1_555
H39 C74 1_555 1_555
C75 C74 1_555 1_555
H40 C75 1_555 1_555
C76 C75 1_555 1_555
C77 C76 1_555 1_555
O16 C77 1_555 1_555
O17 Sm1 1_555 1_555
C78 O17 1_555 1_555
H41 C78 1_555 1_555
N7 C78 1_555 1_555
C79 N7 1_555 1_555
H42 C79 1_555 1_555
H43 C79 1_555 1_555
H44 C79 1_555 1_555
C80 N7 1_555 1_555
H45 C80 1_555 1_555
H46 C80 1_555 1_555
H47 C80 1_555 1_555
O18 Sm2 1_555 1_555
H48 O18 1_555 1_555
H49 O18 1_555 1_555
O19 Sm2 1_555 1_555
H50 O19 1_555 1_555
H51 O19 1_555 1_555
Sm1C O5C 1_555 1_555
Sm1C_2 O8 1_555 1_555
Sm1G O9 1_555 1_555
Sm1E O10 1_555 1_555
Sm1_2 O16 1_555 1_555
Sm1B O11B 1_555 1_555
Sm1B_2 O16B 1_555 1_555
Sm1D O9C 1_555 1_555
Sm1F O10C 1_555 1_555
Sm2C O1C 1_555 1_555
Sm2C_2 O5 1_555 1_555
Sm2_2 O7 1_555 1_555
Sm2G O13 1_555 1_555
Sm2E O13B 1_555 1_555
C1C C2C 1_555 1_555
C2C H1C 1_555 1_555
C3C C2C 1_555 1_555
H2C C3C 1_555 1_555
C4C C3C 1_555 1_555
C5C C4C 1_555 1_555
C6C C5C 1_555 1_555
C7C C6C 1_555 1_555
H3C C7C 1_555 1_555
C8C C7C 1_555 1_555
H4C C8C 1_555 1_555
C9C C8C 1_555 1_555
C10C C9C 1_555 1_555
C11C C10C 1_555 1_555
C12C C11C 1_555 1_555
H5C C12C 1_555 1_555
C13C C12C 1_555 1_555
H6C C13C 1_555 1_555
C14C C13C 1_555 1_555
C15C C14C 1_555 1_555
C16C C15C 1_555 1_555
C17C C16C 1_555 1_555
H7C C17C 1_555 1_555
C18C C17C 1_555 1_555
H8C C18C 1_555 1_555
C19C C18C 1_555 1_555
C20C C1C 1_555 1_555
N1C C1C 1_555 1_555
H9C N1C 1_555 1_555
N2C C6C 1_555 1_555
N3C C11C 1_555 1_555
H10C N3C 1_555 1_555
N4C C16C 1_555 1_555
C21C C5C 1_555 1_555
C22C C21C 1_555 1_555
H11C C22C 1_555 1_555
C23C C22C 1_555 1_555
H12C C23C 1_555 1_555
C24C C23C 1_555 1_555
C25C C24C 1_555 1_555
H13C C25C 1_555 1_555
C26C C21C 1_555 1_555
H14C C26C 1_555 1_555
C27C C24C 1_555 1_555
O1C C27C 1_555 1_555
O2C Sm2C 1_555 1_555
C28C C10C 1_555 1_555
C29C C28C 1_555 1_555
H15C C29C 1_555 1_555
C30C C29C 1_555 1_555
H16C C30C 1_555 1_555
C31C C30C 1_555 1_555
C32C C31C 1_555 1_555
H17C C32C 1_555 1_555
C33C C28C 1_555 1_555
H18C C33C 1_555 1_555
C34C C31C 1_555 1_555
O5C Sm2 1_555 1_555
O5_2 Sm1_2 1_555 1_555
O6C Sm2 1_555 1_555
O6_2 Sm2C 1_555 1_555
C35C C15C 1_555 1_555
C36C C35C 1_555 1_555
H19C C36C 1_555 1_555
C37C C36C 1_555 1_555
H20C C37C 1_555 1_555
C38C C37C 1_555 1_555
C39C C38C 1_555 1_555
H21C C39C 1_555 1_555
C40C C35C 1_555 1_555
H22C C40C 1_555 1_555
C41C C38C 1_555 1_555
O7C Sm2C_2 1_555 1_555
O7_2 Sm2 1_555 1_555
O7C_2 Sm2C 1_555 1_555
O8C Sm1 1_555 1_555
O8_2 Sm1C 1_555 1_555
C42C C20C 1_555 1_555
C43C C42C 1_555 1_555
H23C C43C 1_555 1_555
C44C C43C 1_555 1_555
H24C C44C 1_555 1_555
C45C C44C 1_555 1_555
C46C C45C 1_555 1_555
H25C C46C 1_555 1_555
C47C C42C 1_555 1_555
H26C C47C 1_555 1_555
C48C C45C 1_555 1_555
O9C C48C 1_555 1_555
O9G Sm1 1_555 1_555
O9D Sm1C 1_555 1_555
O10C C48C 1_555 1_555
O10E Sm1 1_555 1_555
O10F Sm1C 1_555 1_555
C49B C59 1_555 1_555
C50B C49B 1_555 1_555
H27B C50B 1_555 1_555
C51B C50B 1_555 1_555
H28B C51B 1_555 1_555
C52B C51B 1_555 1_555
C53B C52B 1_555 1_555
C54B C53B 1_555 1_555
C55B C54B 1_555 1_555
H29B C55B 1_555 1_555
C56B C55B 1_555 1_555
H30B C56B 1_555 1_555
C57B C58 1_555 1_555
N5B C49B 1_555 1_555
N6B C54B 1_555 1_555
C61B C60 1_555 1_555
H33B C61B 1_555 1_555
C62B C63 1_555 1_555
H34B C62B 1_555 1_555
O11B C64 1_555 1_555
O11C Sm1C 1_555 1_555
C65B C53B 1_555 1_555
C66B C65B 1_555 1_555
H35B C66B 1_555 1_555
C67B C66B 1_555 1_555
H36B C67B 1_555 1_555
C68B C67B 1_555 1_555
C69B C68B 1_555 1_555
H37B C69B 1_555 1_555
C70B C65B 1_555 1_555
H38B C70B 1_555 1_555
C71B C68B 1_555 1_555
O12B C71B 1_555 1_555
O13B C71B 1_555 1_555
O13G Sm2 1_555 1_555
O13D Sm2C 1_555 1_555
C74B C73 1_555 1_555
H39B C74B 1_555 1_555
C75B C76 1_555 1_555
H40B C75B 1_555 1_555
O16B C77 1_555 1_555
O16_2 Sm1 1_555 1_555
O16C Sm1C 1_555 1_555
O17C Sm1C 1_555 1_555
C78C O17C 1_555 1_555
H41C C78C 1_555 1_555
N7C C78C 1_555 1_555
C79C N7C 1_555 1_555
H42C C79C 1_555 1_555
H43C C79C 1_555 1_555
H44C C79C 1_555 1_555
C80C N7C 1_555 1_555
H45C C80C 1_555 1_555
H46C C80C 1_555 1_555
H47C C80C 1_555 1_555
O18C Sm2C 1_555 1_555
H48C O18C 1_555 1_555
H49C O18C 1_555 1_555
O19C Sm2C 1_555 1_555
H50C O19C 1_555 1_555
H51C O19C 1_555 1_555
C4 N1 1_555 1_555
C9 N2 1_555 1_555
C14 N3 1_555 1_555
C19 C20 1_555 1_555
C19 N4 1_555 1_555
C25 C26 1_555 1_555
C27 O2 1_555 1_555
C32 C33 1_555 1_555
O6 Sm2C_2 1_555 1_555
C39 C40 1_555 1_555
C46 C47 1_555 1_555
C52 N5 1_555 1_555
C57 N6 1_555 1_555
C64 O11 1_555 1_555
C69 C70 1_555 1_555
Sm2C O5_2 1_555 1_555
C4C N1C 1_555 1_555
C9C N2C 1_555 1_555
C14C N3C 1_555 1_555
C19C C20C 1_555 1_555
C19C N4C 1_555 1_555
C25C C26C 1_555 1_555
C27C O2C 1_555 1_555
C32C C33C 1_555 1_555
C34C O5C 1_555 1_555
C34C O6C 1_555 1_555
C39C C40C 1_555 1_555
C41C O7C 1_555 1_555
C41C O8C 1_555 1_555
C46C C47C 1_555 1_555
C52B N5B 1_555 1_555
C56B C57B 1_555 1_555
C57B N6B 1_555 1_555
C61B C62B 1_555 1_555
C69B C70B 1_555 1_555
C74B C75B 1_555 1_555

#END
