
#######################################################################
#
#                 Cambridge Crystallographic Data Centre
#                                CCDC 
#
#######################################################################
#
# If this CIF has been generated from an entry in the Cambridge 
# Structural Database, then it will include bibliographic, chemical, 
# crystal, experimental, refinement or atomic coordinate data resulting 
# from the CCDC's data processing and validation procedures.
#
#######################################################################

data_NIKJAT
_chemical_formula_moiety         '(C48 H31 N4 O10 Pr1)n'
_symmetry_cell_setting           monoclinic
_symmetry_space_group_name_H-M   'C 2/c'
_symmetry_Int_Tables_number      15
_space_group_name_Hall           '-C 2yc'
loop_
_symmetry_equiv_pos_site_id
_symmetry_equiv_pos_as_xyz
1 x,y,z
2 1/2+x,1/2+y,z
3 -x,y,1/2-z
4 1/2-x,1/2+y,1/2-z
5 -x,-y,-z
6 1/2-x,1/2-y,-z
7 x,-y,1/2+z
8 1/2+x,1/2-y,1/2+z
_cell_length_a                   21.2748(6)
_cell_length_b                   26.6527(10)
_cell_length_c                   9.6303(3)
_cell_angle_alpha                90
_cell_angle_beta                 105.503(2)
_cell_angle_gamma                90
_cell_volume                     5262
loop_
_atom_site_label
_atom_site_type_symbol
_atom_site_fract_x
_atom_site_fract_y
_atom_site_fract_z
Pr1 Pr 0.5000 0.510444(11) 0.7500
C1 C 0.5000 0.1820(2) 0.7500
C2 C 0.55407(17) 0.15748(14) 0.8407(4)
C3 C 0.61251(19) 0.18122(15) 0.9239(4)
H1 H 0.6230 0.2159 0.9234
C4 C 0.64996(19) 0.14484(15) 1.0034(4)
H2 H 0.6915 0.1495 1.0696
C5 C 0.61589(17) 0.09809(14) 0.9703(4)
C6 C 0.63490(16) 0.05244(14) 1.0390(3)
C7 C 0.60165(17) 0.00667(13) 1.0041(4)
C8 C 0.61766(17) -0.04029(15) 1.0795(4)
H3 H 0.6493 -0.0451 1.1691
C9 C 0.57954(17) -0.07642(14) 1.0000(4)
H4 H 0.5788 -0.1109 1.0243
C10 C 0.53990(16) -0.05230(14) 0.8703(4)
C11 C 0.5000 -0.07693(19) 0.7500
N1 N 0.55806(14) 0.10692(11) 0.8683(3)
N2 N 0.55261(14) -0.00181(11) 0.8809(3)
C12 C 0.5000 0.2383(2) 0.7500
C13 C 0.4918(2) 0.26488(16) 0.6246(4)
H7 H 0.4870 0.2473 0.5366
C14 C 0.4905(2) 0.31660(15) 0.6233(4)
H8 H 0.4829 0.3340 0.5342
C15 C 0.5000 0.3435(2) 0.7500
C16 C 0.5000 0.3992(2) 0.7500
O1 O 0.53698(12) 0.42275(10) 0.8554(2)
C17 C 0.69932(16) 0.05146(14) 1.1530(4)
C18 C 0.70376(17) 0.04266(15) 1.2973(4)
H9 H 0.6651 0.0394 1.3282
C19 C 0.76456(16) 0.03850(15) 1.3972(4)
H10 H 0.7672 0.0336 1.4963
C20 C 0.82125(16) 0.04153(14) 1.3518(3)
C21 C 0.81714(17) 0.05248(15) 1.2085(4)
H11 H 0.8558 0.0561 1.1778
C22 C 0.75661(17) 0.05814(15) 1.1105(4)
H12 H 0.7541 0.0667 1.0133
C23 C 0.88658(17) 0.02999(15) 1.4546(4)
O2 O 0.93339(12) 0.01770(10) 1.4046(3)
O3 O 0.89197(12) 0.03231(11) 1.5888(2)
C24 C 0.5000 -0.1331(2) 0.7500
C25 C 0.5573(2) -0.16014(15) 0.7585(4)
H13 H 0.5969 -0.1426 0.7661
C26 C 0.5569(2) -0.21231(15) 0.7562(4)
H14 H 0.5964 -0.2295 0.7588
C27 C 0.5000 -0.24101(18) 0.7500
C28 C 0.5000 -0.29409(18) 0.7500
O4 O 0.54989(16) -0.31806(12) 0.7326(3)
O5 O 0.53061(15) 0.58671(10) 0.6378(3)
H16 H 0.5329 0.5839 0.5389
H17 H 0.5527 0.5619 0.6875
Pr1G Pr 1.0000 -0.010444(11) 1.2500
Pr1A Pr 1.0000 0.010444(11) 1.7500
Pr1G_2 Pr 0.0000 -0.010444(11) 0.2500
Pr1A_2 Pr -0.0000 0.010444(11) -0.2500
C2B C 0.44593(17) 0.15748(14) 0.6593(4)
C3B C 0.38749(19) 0.18122(15) 0.5761(4)
H1B H 0.3770 0.2159 0.5766
C4B C 0.35004(19) 0.14484(15) 0.4966(4)
H2B H 0.3085 0.1495 0.4304
C5B C 0.38411(17) 0.09809(14) 0.5297(4)
C6B C 0.36510(16) 0.05244(14) 0.4610(3)
C7B C 0.39835(17) 0.00667(13) 0.4959(4)
C8B C 0.38234(17) -0.04029(15) 0.4205(4)
H3B H 0.3507 -0.0451 0.3309
C9B C 0.42046(17) -0.07642(14) 0.5000(4)
H4B H 0.4212 -0.1109 0.4757
C10B C 0.46010(16) -0.05230(14) 0.6297(4)
N1B N 0.44194(14) 0.10692(11) 0.6317(3)
N2B N 0.44739(14) -0.00181(11) 0.6191(3)
C13B C 0.5082(2) 0.26488(16) 0.8754(4)
H7B H 0.5130 0.2473 0.9634
C14B C 0.5095(2) 0.31660(15) 0.8767(4)
H8B H 0.5171 0.3340 0.9658
O1B O 0.46302(12) 0.42275(10) 0.6446(2)
C17B C 0.30068(16) 0.05146(14) 0.3470(4)
C18B C 0.29624(17) 0.04266(15) 0.2027(4)
H9B H 0.3349 0.0394 0.1718
C19B C 0.23544(16) 0.03850(15) 0.1028(4)
H10B H 0.2328 0.0336 0.0037
C20B C 0.17875(16) 0.04153(14) 0.1482(3)
C21B C 0.18286(17) 0.05248(15) 0.2915(4)
H11B H 0.1442 0.0561 0.3222
C22B C 0.24339(17) 0.05814(15) 0.3895(4)
H12B H 0.2459 0.0667 0.4867
C23B C 0.11342(17) 0.02999(15) 0.0454(4)
O2B O 0.06661(12) 0.01770(10) 0.0954(3)
O2G O 0.43339(12) 0.48230(10) 0.9046(3)
O2E O 0.56661(12) 0.48230(10) 0.5954(3)
O3B O 0.10803(12) 0.03231(11) -0.0888(2)
O3A O 0.39197(12) 0.53231(11) 0.5888(2)
O3C O 0.60803(12) 0.53231(11) 0.9112(2)
C25B C 0.4427(2) -0.16014(15) 0.7415(4)
H13B H 0.4031 -0.1426 0.7339
C26B C 0.4431(2) -0.21231(15) 0.7438(4)
H14B H 0.4036 -0.2295 0.7412
O4B O 0.45011(16) -0.31806(12) 0.7674(3)
O5B O 0.46939(15) 0.58671(10) 0.8622(3)
H16B H 0.4671 0.5839 0.9611
H17B H 0.4473 0.5619 0.8125
loop_
_geom_bond_atom_site_label_1
_geom_bond_atom_site_label_2
_geom_bond_site_symmetry_1
_geom_bond_site_symmetry_2
Pr1 O1 1_555 1_555
C1 C2 1_555 1_555
C2 C3 1_555 1_555
C3 H1 1_555 1_555
C4 C3 1_555 1_555
H2 C4 1_555 1_555
C5 C4 1_555 1_555
C6 C5 1_555 1_555
C7 C6 1_555 1_555
C8 C7 1_555 1_555
H3 C8 1_555 1_555
C9 C8 1_555 1_555
H4 C9 1_555 1_555
C10 C9 1_555 1_555
C11 C10 1_555 1_555
N1 C2 1_555 1_555
N2 C7 1_555 1_555
C12 C1 1_555 1_555
C13 C12 1_555 1_555
H7 C13 1_555 1_555
C14 C13 1_555 1_555
H8 C14 1_555 1_555
C15 C14 1_555 1_555
C16 C15 1_555 1_555
O1 C16 1_555 1_555
C17 C6 1_555 1_555
C18 C17 1_555 1_555
H9 C18 1_555 1_555
C19 C18 1_555 1_555
H10 C19 1_555 1_555
C20 C19 1_555 1_555
C21 C20 1_555 1_555
H11 C21 1_555 1_555
C22 C17 1_555 1_555
H12 C22 1_555 1_555
C23 C20 1_555 1_555
O2 C23 1_555 1_555
O3 C23 1_555 1_555
C24 C11 1_555 1_555
C25 C24 1_555 1_555
H13 C25 1_555 1_555
C26 C25 1_555 1_555
H14 C26 1_555 1_555
C27 C26 1_555 1_555
C28 C27 1_555 1_555
O4 C28 1_555 1_555
O5 Pr1 1_555 1_555
H16 O5 1_555 1_555
H17 O5 1_555 1_555
Pr1G O2 1_555 1_555
Pr1A O3 1_555 1_555
Pr1G_2 O2B 1_555 1_555
Pr1A_2 O3B 1_555 1_555
C2B C1 1_555 1_555
C3B C2B 1_555 1_555
H1B C3B 1_555 1_555
C4B C3B 1_555 1_555
H2B C4B 1_555 1_555
C5B C4B 1_555 1_555
C6B C5B 1_555 1_555
C7B C6B 1_555 1_555
C8B C7B 1_555 1_555
H3B C8B 1_555 1_555
C9B C8B 1_555 1_555
H4B C9B 1_555 1_555
C10B C11 1_555 1_555
N1B C2B 1_555 1_555
N2B C7B 1_555 1_555
C13B C12 1_555 1_555
H7B C13B 1_555 1_555
C14B C15 1_555 1_555
H8B C14B 1_555 1_555
O1B Pr1 1_555 1_555
C17B C6B 1_555 1_555
C18B C17B 1_555 1_555
H9B C18B 1_555 1_555
C19B C18B 1_555 1_555
H10B C19B 1_555 1_555
C20B C19B 1_555 1_555
C21B C20B 1_555 1_555
H11B C21B 1_555 1_555
C22B C17B 1_555 1_555
H12B C22B 1_555 1_555
C23B C20B 1_555 1_555
O2B C23B 1_555 1_555
O2G Pr1 1_555 1_555
O2E Pr1 1_555 1_555
O3B C23B 1_555 1_555
O3A Pr1 1_555 1_555
O3C Pr1 1_555 1_555
C25B C24 1_555 1_555
H13B C25B 1_555 1_555
C26B C27 1_555 1_555
H14B C26B 1_555 1_555
O4B C28 1_555 1_555
O5B Pr1 1_555 1_555
H16B O5B 1_555 1_555
H17B O5B 1_555 1_555
C5 N1 1_555 1_555
C10 N2 1_555 1_555
C16 O1B 1_555 1_555
C21 C22 1_555 1_555
C5B N1B 1_555 1_555
C9B C10B 1_555 1_555
C10B N2B 1_555 1_555
C13B C14B 1_555 1_555
C21B C22B 1_555 1_555
C25B C26B 1_555 1_555

#END
