
#######################################################################
#
#                 Cambridge Crystallographic Data Centre
#                                CCDC 
#
#######################################################################
#
# If this CIF has been generated from an entry in the Cambridge 
# Structural Database, then it will include bibliographic, chemical, 
# crystal, experimental, refinement or atomic coordinate data resulting 
# from the CCDC's data processing and validation procedures.
#
#######################################################################

data_NIKKAU
_chemical_formula_moiety         '(C150 H102 Eu4 N14 O30)n'
_symmetry_cell_setting           monoclinic
_symmetry_space_group_name_H-M   'C 2/c'
_symmetry_Int_Tables_number      15
_space_group_name_Hall           '-C 2yc'
loop_
_symmetry_equiv_pos_site_id
_symmetry_equiv_pos_as_xyz
1 x,y,z
2 1/2+x,1/2+y,z
3 -x,y,1/2-z
4 1/2-x,1/2+y,1/2-z
5 -x,-y,-z
6 1/2-x,1/2-y,-z
7 x,-y,1/2+z
8 1/2+x,1/2-y,1/2+z
_cell_length_a                   21.5909(3)
_cell_length_b                   24.0263(4)
_cell_length_c                   31.1146(5)
_cell_angle_alpha                90
_cell_angle_beta                 105.7945(8)
_cell_angle_gamma                90
_cell_volume                     15531.3
loop_
_atom_site_label
_atom_site_type_symbol
_atom_site_fract_x
_atom_site_fract_y
_atom_site_fract_z
Eu1 Eu 0.913776(10) 0.229188(8) 0.198660(6)
Eu2 Eu 0.824790(11) -0.309570(8) 0.587270(6)
C1 C 0.8243(2) 0.30742(16) 0.53066(13)
C2 C 0.8167(2) 0.33557(17) 0.48909(14)
H1 H 0.8077 0.3740 0.4835
C3 C 0.8247(2) 0.29720(17) 0.45935(14)
H2 H 0.8232 0.3037 0.4290
C4 C 0.8359(2) 0.24463(16) 0.48235(13)
C5 C 0.8540(2) 0.19467(16) 0.46511(13)
C6 C 0.8605(2) 0.14305(17) 0.48629(13)
C7 C 0.8764(2) 0.09158(18) 0.46904(14)
H3 H 0.8888 0.0868 0.4422
C8 C 0.8707(3) 0.05100(18) 0.49745(14)
H4 H 0.8784 0.0125 0.4944
C9 C 0.8510(2) 0.07676(17) 0.53335(14)
C10 C 0.8357(2) 0.04920(16) 0.56858(13)
C11 C 0.8174(2) 0.07494(15) 0.60352(13)
C12 C 0.7980(2) 0.04562(18) 0.63812(13)
H5 H 0.7926 0.0065 0.6400
C13 C 0.7889(2) 0.08416(16) 0.66740(13)
H6 H 0.7757 0.0773 0.6937
C14 C 0.80293(19) 0.13783(16) 0.65126(12)
C15 C 0.80862(19) 0.18802(16) 0.67522(13)
C16 C 0.82617(19) 0.23876(16) 0.65964(13)
C17 C 0.8390(2) 0.28915(17) 0.68435(14)
H7 H 0.8411 0.2936 0.7151
C18 C 0.8477(2) 0.32974(18) 0.65630(14)
H8 H 0.8585 0.3675 0.6638
C19 C 0.8376(2) 0.30486(16) 0.61312(14)
C20 C 0.8308(2) 0.33331(16) 0.57280(14)
N1 N 0.83239(16) 0.25076(13) 0.52513(11)
N2 N 0.84687(17) 0.13319(13) 0.52627(11)
N3 N 0.81866(16) 0.13067(13) 0.61138(10)
N4 N 0.82911(16) 0.24850(13) 0.61722(11)
C21 C 0.8711(2) 0.19846(16) 0.42151(12)
C22 C 0.8235(2) 0.20171(16) 0.38138(13)
H9 H 0.7794 0.1993 0.3810
C23 C 0.8404(2) 0.20847(17) 0.34187(13)
H10 H 0.8077 0.2112 0.3145
C24 C 0.9044(2) 0.21134(15) 0.34179(12)
C25 C 0.9514(2) 0.2053(2) 0.38118(14)
H11 H 0.9954 0.2054 0.3814
C26 C 0.9340(2) 0.1991(2) 0.42118(14)
H12 H 0.9667 0.1953 0.4485
C27 C 0.9216(2) 0.22126(15) 0.29960(13)
O1 O 0.87734(15) 0.22344(11) 0.26352(9)
O2 O 0.98061(15) 0.22695(11) 0.30058(9)
C28 C 0.8385(2) -0.01303(16) 0.57052(13)
C29 C 0.8932(2) -0.03965(17) 0.59662(15)
H13 H 0.9312 -0.0189 0.6093
C30 C 0.8920(2) -0.09618(16) 0.60401(14)
H14 H 0.9290 -0.1139 0.6226
C31 C 0.8376(2) -0.12744(17) 0.58469(12)
C32 C 0.7835(2) -0.10111(16) 0.55687(13)
H15 H 0.7464 -0.1223 0.5428
C33 C 0.7842(2) -0.04469(17) 0.54988(13)
H16 H 0.7474 -0.0270 0.5309
C34 C 0.8347(2) -0.18791(17) 0.59256(13)
O3 O 0.78593(16) -0.21484(12) 0.57285(10)
O4 O 0.88297(15) -0.21147(11) 0.61986(9)
C35 C 0.7897(2) 0.18675(15) 0.71798(13)
C36 C 0.7263(2) 0.17523(16) 0.71755(13)
H17 H 0.6959 0.1661 0.6901
C37 C 0.7069(2) 0.17694(16) 0.75646(12)
H18 H 0.6635 0.1692 0.7557
C38 C 0.7512(2) 0.19002(16) 0.79656(12)
C39 C 0.8150(2) 0.19834(18) 0.79797(14)
H19 H 0.8457 0.2048 0.8258
C40 C 0.8351(2) 0.19726(17) 0.75854(14)
H20 H 0.8789 0.2036 0.7596
C41 C 0.7295(2) 0.19682(15) 0.83813(13)
O5 O 0.66933(13) 0.20530(10) 0.83369(8)
O6 O 0.76844(14) 0.19433(11) 0.87614(9)
C42 C 0.8310(2) 0.39537(17) 0.57436(14)
C43 C 0.8768(2) 0.42612(18) 0.55984(15)
H21 H 0.9075 0.4073 0.5483
C44 C 0.8776(3) 0.48342(19) 0.56227(17)
H22 H 0.9086 0.5040 0.5523
C45 C 0.8326(3) 0.51134(19) 0.57935(16)
C46 C 0.7872(3) 0.48084(18) 0.59355(18)
H23 H 0.7565 0.4995 0.6051
C47 C 0.7866(2) 0.42312(17) 0.59086(16)
H24 H 0.7552 0.4026 0.6005
C48 C 0.8319(3) 0.57345(19) 0.58190(18)
O7 O 0.8067(2) 0.59678(13) 0.60965(13)
O8 O 0.8555(2) 0.60282(13) 0.55580(13)
C49 C 1.0000 -0.1267(2) 0.2500
C50 C 0.99801(19) -0.15422(15) 0.28976(13)
C51 C 0.9919(2) -0.12741(17) 0.32941(15)
H25 H 0.9925 -0.0884 0.3346
C52 C 0.9850(2) -0.16768(17) 0.35824(14)
H26 H 0.9795 -0.1621 0.3872
C53 C 0.9875(2) -0.22018(16) 0.33713(13)
C54 C 0.97904(19) -0.27182(16) 0.35545(13)
C55 C 0.9835(2) -0.32399(16) 0.33582(12)
C56 C 0.9805(2) -0.37692(16) 0.35722(13)
H27 H 0.9749 -0.3827 0.3861
C57 C 0.9874(2) -0.41686(16) 0.32792(13)
H28 H 0.9879 -0.4559 0.3329
C58 C 0.99386(19) -0.39007(15) 0.28853(13)
C59 C 1.0000 -0.4166(2) 0.2500
N5 N 0.99645(16) -0.21119(13) 0.29539(11)
N6 N 0.99138(15) -0.33294(13) 0.29398(10)
C60 C 1.0000 -0.0650(2) 0.2500
C61 C 1.0503(2) -0.03456(17) 0.27799(15)
H29 H 1.0853 -0.0538 0.2974
C62 C 1.0500(2) 0.02291(16) 0.27802(14)
H30 H 1.0846 0.0425 0.2976
C63 C 1.0000 0.0522(2) 0.2500
C64 C 1.0000 0.1153(2) 0.2500
O9 O 0.95159(14) 0.13924(11) 0.22502(9)
C65 C 0.9634(2) -0.27330(15) 0.39944(13)
C66 C 0.9012(2) -0.2764(2) 0.40207(17)
H31 H 0.8674 -0.2751 0.3751
C67 C 0.8855(3) -0.2811(2) 0.44152(19)
H32 H 0.8417 -0.2829 0.4419
C68 C 0.9340(3) -0.2833(2) 0.48085(17)
C69 C 0.9956(3) -0.2803(3) 0.47871(17)
H33 H 1.0296 -0.2824 0.5055
C70 C 1.0098(3) -0.2743(3) 0.43860(17)
H34 H 1.0535 -0.2707 0.4384
C71 C 0.9204(4) -0.2897(2) 0.5271(2)
O10 O 0.9666(3) -0.3041(3) 0.55900(16)
O11 O 0.8671(3) -0.28126(14) 0.52955(15)
C72 C 1.0000 -0.4789(2) 0.2500
C73 C 1.0528(2) -0.50826(16) 0.27545(13)
H35 H 1.0891 -0.4886 0.2930
C74 C 1.0528(2) -0.56656(16) 0.27537(14)
H36 H 1.0892 -0.5862 0.2928
C75 C 1.0000 -0.5958(2) 0.2500
C76 C 1.0000 -0.6579(2) 0.2500
O12 O 1.04991(14) -0.68263(11) 0.27255(9)
O13 O 0.81429(14) 0.17436(11) 0.18012(9)
C77 C 0.7777(3) 0.1604(2) 0.20284(16)
H37 H 0.7885 0.1728 0.2330
N7 N 0.7260(2) 0.13061(18) 0.18934(14)
C78 C 0.7057(3) 0.1092(3) 0.14534(18)
H38 H 0.7191 0.1345 0.1249
H39 H 0.6587 0.1057 0.1363
H40 H 0.7252 0.0725 0.1444
C79 C 0.6836(3) 0.1184(3) 0.2187(2)
H41 H 0.6775 0.0780 0.2199
H42 H 0.6418 0.1364 0.2065
H43 H 0.7036 0.1325 0.2488
O14 O 0.7310(3) -0.3372(4) 0.5361(3)
O16 O 0.93397(19) -0.3212(2) 0.63332(12)
H44 H 0.9424 -0.3585 0.6473
H45 H 0.9669 -0.3115 0.6178
Eu1B Eu 1.086224(10) 0.229188(8) 0.301340(6)
Eu1F Eu 0.913776(10) -0.229188(8) 0.698660(6)
Eu1E Eu 0.586224(10) 0.270812(8) 0.801340(6)
Eu1B_2 Eu 1.086224(10) -0.770812(8) 0.301340(6)
Eu1_2 Eu 0.913776(10) -0.770812(8) 0.198660(6)
Eu1D Eu 1.086224(10) -0.229188(8) -0.198660(6)
Eu1G Eu 1.413776(10) 0.270812(8) -0.301340(6)
Eu2B Eu 1.175210(11) -0.309570(8) -0.087270(6)
Eu2C Eu 0.675210(11) 0.190430(8) 0.912730(6)
Eu2_2 Eu 0.824790(11) 0.690430(8) 0.587270(6)
Eu2A Eu 1.324790(11) 0.190430(8) -0.412730(6)
Eu2B_2 Eu 1.175210(11) 0.690430(8) -0.087270(6)
C1B C 1.1757(2) 0.30742(16) -0.03066(13)
C2B C 1.1833(2) 0.33557(17) 0.01091(14)
H1B H 1.1923 0.3740 0.0165
C3B C 1.1753(2) 0.29720(17) 0.04065(14)
H2B H 1.1768 0.3037 0.0710
C4B C 1.1641(2) 0.24463(16) 0.01765(13)
C5B C 1.1460(2) 0.19467(16) 0.03489(13)
C6B C 1.1395(2) 0.14305(17) 0.01371(13)
C7B C 1.1236(2) 0.09158(18) 0.03096(14)
H3B H 1.1112 0.0868 0.0578
C8B C 1.1293(3) 0.05100(18) 0.00255(14)
H4B H 1.1216 0.0125 0.0056
C9B C 1.1490(2) 0.07676(17) -0.03335(14)
C10B C 1.1643(2) 0.04920(16) -0.06858(13)
C11B C 1.1826(2) 0.07494(15) -0.10352(13)
C12B C 1.2020(2) 0.04562(18) -0.13812(13)
H5B H 1.2074 0.0065 -0.1400
C13B C 1.2111(2) 0.08416(16) -0.16740(13)
H6B H 1.2243 0.0773 -0.1937
C14B C 1.19707(19) 0.13783(16) -0.15126(12)
C15B C 1.19138(19) 0.18802(16) -0.17522(13)
C16B C 1.17383(19) 0.23876(16) -0.15964(13)
C17B C 1.1610(2) 0.28915(17) -0.18435(14)
H7B H 1.1589 0.2936 -0.2151
C18B C 1.1523(2) 0.32974(18) -0.15630(14)
H8B H 1.1415 0.3675 -0.1638
C19B C 1.1624(2) 0.30486(16) -0.11312(14)
C20B C 1.1692(2) 0.33331(16) -0.07280(14)
N1B N 1.16761(16) 0.25076(13) -0.02513(11)
N2B N 1.15313(17) 0.13319(13) -0.02627(11)
N3B N 1.18134(16) 0.13067(13) -0.11138(10)
N4B N 1.17089(16) 0.24850(13) -0.11722(11)
C21B C 1.1289(2) 0.19846(16) 0.07849(12)
C22B C 1.1765(2) 0.20171(16) 0.11862(13)
H9B H 1.2206 0.1993 0.1190
C23B C 1.1596(2) 0.20847(17) 0.15813(13)
H10B H 1.1923 0.2112 0.1855
C24B C 1.0956(2) 0.21134(15) 0.15821(12)
C25B C 1.0486(2) 0.2053(2) 0.11882(14)
H11B H 1.0046 0.2054 0.1186
C26B C 1.0660(2) 0.1991(2) 0.07882(14)
H12B H 1.0333 0.1953 0.0515
C27B C 1.0784(2) 0.22126(15) 0.20040(13)
O1B O 1.12266(15) 0.22344(11) 0.23648(9)
O2B O 1.01939(15) 0.22695(11) 0.19942(9)
C28B C 1.1615(2) -0.01303(16) -0.07052(13)
C29B C 1.1068(2) -0.03965(17) -0.09662(15)
H13B H 1.0688 -0.0189 -0.1093
C30B C 1.1080(2) -0.09618(16) -0.10401(14)
H14B H 1.0710 -0.1139 -0.1226
C31B C 1.1624(2) -0.12744(17) -0.08469(12)
C32B C 1.2165(2) -0.10111(16) -0.05687(13)
H15B H 1.2536 -0.1223 -0.0428
C33B C 1.2158(2) -0.04469(17) -0.04988(13)
H16B H 1.2526 -0.0270 -0.0309
C34B C 1.1653(2) -0.18791(17) -0.09256(13)
O3B O 1.21407(16) -0.21484(12) -0.07285(10)
O4B O 1.11703(15) -0.21147(11) -0.11986(9)
O4F O 0.88297(15) 0.21147(11) 0.11986(9)
O4D O 1.11703(15) 0.21147(11) 0.38014(9)
C35B C 1.2103(2) 0.18675(15) -0.21798(13)
C36B C 1.2737(2) 0.17523(16) -0.21755(13)
H17B H 1.3041 0.1661 -0.1901
C37B C 1.2931(2) 0.17694(16) -0.25646(12)
H18B H 1.3365 0.1692 -0.2557
C38B C 1.2488(2) 0.19002(16) -0.29656(12)
C39B C 1.1850(2) 0.19834(18) -0.29797(14)
H19B H 1.1543 0.2048 -0.3258
C40B C 1.1649(2) 0.19726(17) -0.25854(14)
H20B H 1.1211 0.2036 -0.2596
C41B C 1.2705(2) 0.19682(15) -0.33813(13)
O5B O 1.33067(13) 0.20530(10) -0.33369(8)
O5E O 0.83067(13) 0.29470(10) 0.16631(8)
O5C O 0.83067(13) -0.29470(10) 0.66631(8)
O5G O 1.16933(13) 0.29470(10) 0.33369(8)
O5A O 1.16933(13) -0.29470(10) -0.16631(8)
O6B O 1.23156(14) 0.19433(11) -0.37614(9)
O6C O 0.73156(14) -0.30567(11) 0.62386(9)
O6A O 1.26844(14) -0.30567(11) -0.12386(9)
C42B C 1.1690(2) 0.39537(17) -0.07436(14)
C43B C 1.1232(2) 0.42612(18) -0.05984(15)
H21B H 1.0925 0.4073 -0.0483
C44B C 1.1224(3) 0.48342(19) -0.06227(17)
H22B H 1.0914 0.5040 -0.0523
C45B C 1.1674(3) 0.51134(19) -0.07935(16)
C46B C 1.2128(3) 0.48084(18) -0.09355(18)
H23B H 1.2435 0.4995 -0.1051
C47B C 1.2134(2) 0.42312(17) -0.09086(16)
H24B H 1.2448 0.4026 -0.1005
C48B C 1.1681(3) 0.57345(19) -0.08190(18)
O7B O 1.1933(2) 0.59678(13) -0.10965(13)
O7_2 O 0.8067(2) -0.40322(13) 0.60965(13)
O7B_2 O 1.1933(2) -0.40322(13) -0.10965(13)
O8B O 1.1445(2) 0.60282(13) -0.05580(13)
O8_2 O 0.8555(2) -0.39718(13) 0.55580(13)
O8B_2 O 1.1445(2) -0.39718(13) -0.05580(13)
C50B C 1.00199(19) -0.15422(15) 0.21024(13)
C51B C 1.0081(2) -0.12741(17) 0.17059(15)
H25B H 1.0075 -0.0884 0.1654
C52B C 1.0150(2) -0.16768(17) 0.14176(14)
H26B H 1.0205 -0.1621 0.1128
C53B C 1.0125(2) -0.22018(16) 0.16287(13)
C54B C 1.02096(19) -0.27182(16) 0.14455(13)
C55B C 1.0165(2) -0.32399(16) 0.16418(12)
C56B C 1.0195(2) -0.37692(16) 0.14278(13)
H27B H 1.0251 -0.3827 0.1139
C57B C 1.0126(2) -0.41686(16) 0.17208(13)
H28B H 1.0121 -0.4559 0.1671
C58B C 1.00614(19) -0.39007(15) 0.21147(13)
N5B N 1.00355(16) -0.21119(13) 0.20461(11)
N6B N 1.00862(15) -0.33294(13) 0.20602(10)
C61B C 0.9497(2) -0.03456(17) 0.22201(15)
H29B H 0.9147 -0.0538 0.2026
C62B C 0.9500(2) 0.02291(16) 0.22198(14)
H30B H 0.9154 0.0425 0.2024
O9B O 1.04841(14) 0.13924(11) 0.27498(9)
C65B C 1.0366(2) -0.27330(15) 0.10056(13)
C66B C 1.0988(2) -0.2764(2) 0.09793(17)
H31B H 1.1326 -0.2751 0.1249
C67B C 1.1145(3) -0.2811(2) 0.05848(19)
H32B H 1.1583 -0.2829 0.0581
C68B C 1.0660(3) -0.2833(2) 0.01915(17)
C69B C 1.0044(3) -0.2803(3) 0.02129(17)
H33B H 0.9704 -0.2824 -0.0055
C70B C 0.9902(3) -0.2743(3) 0.06140(17)
H34B H 0.9465 -0.2707 0.0616
C71B C 1.0796(4) -0.2897(2) -0.0271(2)
O10B O 1.0334(3) -0.3041(3) -0.05900(16)
O11B O 1.1329(3) -0.28126(14) -0.02955(15)
C73B C 0.9472(2) -0.50826(16) 0.22455(13)
H35B H 0.9109 -0.4886 0.2070
C74B C 0.9472(2) -0.56656(16) 0.22463(14)
H36B H 0.9108 -0.5862 0.2072
O12B O 0.95009(14) -0.68263(11) 0.22745(9)
O12B_2 O 0.95009(14) 0.31737(11) 0.22745(9)
O12_2 O 1.04991(14) 0.31737(11) 0.27255(9)
O13B O 1.18571(14) 0.17436(11) 0.31988(9)
C77B C 1.2223(3) 0.1604(2) 0.29716(16)
H37B H 1.2115 0.1728 0.2670
N7B N 1.2740(2) 0.13061(18) 0.31066(14)
C78B C 1.2943(3) 0.1092(3) 0.35466(18)
H38B H 1.2809 0.1345 0.3751
H39B H 1.3413 0.1057 0.3637
H40B H 1.2748 0.0725 0.3556
C79B C 1.3164(3) 0.1184(3) 0.2813(2)
H41B H 1.3225 0.0780 0.2801
H42B H 1.3582 0.1364 0.2935
H43B H 1.2964 0.1325 0.2512
O14B O 1.2690(3) -0.3372(4) -0.0361(3)
O16B O 1.06603(19) -0.3212(2) -0.13332(12)
H44B H 1.0576 -0.3585 -0.1473
H45B H 1.0331 -0.3115 -0.1178
loop_
_geom_bond_atom_site_label_1
_geom_bond_atom_site_label_2
_geom_bond_site_symmetry_1
_geom_bond_site_symmetry_2
Eu1 O1 1_555 1_555
Eu2 O3 1_555 1_555
C1 C2 1_555 1_555
C2 H1 1_555 1_555
C3 C2 1_555 1_555
H2 C3 1_555 1_555
C4 C3 1_555 1_555
C5 C4 1_555 1_555
C6 C5 1_555 1_555
C7 C6 1_555 1_555
H3 C7 1_555 1_555
C8 C7 1_555 1_555
H4 C8 1_555 1_555
C9 C8 1_555 1_555
C10 C9 1_555 1_555
C11 C10 1_555 1_555
C12 C11 1_555 1_555
H5 C12 1_555 1_555
C13 C12 1_555 1_555
H6 C13 1_555 1_555
C14 C13 1_555 1_555
C15 C14 1_555 1_555
C16 C15 1_555 1_555
C17 C16 1_555 1_555
H7 C17 1_555 1_555
C18 C17 1_555 1_555
H8 C18 1_555 1_555
C19 C18 1_555 1_555
C20 C1 1_555 1_555
N1 C1 1_555 1_555
N2 C6 1_555 1_555
N3 C11 1_555 1_555
N4 C16 1_555 1_555
C21 C5 1_555 1_555
C22 C21 1_555 1_555
H9 C22 1_555 1_555
C23 C22 1_555 1_555
H10 C23 1_555 1_555
C24 C23 1_555 1_555
C25 C24 1_555 1_555
H11 C25 1_555 1_555
C26 C21 1_555 1_555
H12 C26 1_555 1_555
C27 C24 1_555 1_555
O1 C27 1_555 1_555
O2 C27 1_555 1_555
C28 C10 1_555 1_555
C29 C28 1_555 1_555
H13 C29 1_555 1_555
C30 C29 1_555 1_555
H14 C30 1_555 1_555
C31 C30 1_555 1_555
C32 C31 1_555 1_555
H15 C32 1_555 1_555
C33 C28 1_555 1_555
H16 C33 1_555 1_555
C34 C31 1_555 1_555
O3 C34 1_555 1_555
O4 C34 1_555 1_555
C35 C15 1_555 1_555
C36 C35 1_555 1_555
H17 C36 1_555 1_555
C37 C36 1_555 1_555
H18 C37 1_555 1_555
C38 C37 1_555 1_555
C39 C38 1_555 1_555
H19 C39 1_555 1_555
C40 C35 1_555 1_555
H20 C40 1_555 1_555
C41 C38 1_555 1_555
O5 C41 1_555 1_555
O6 C41 1_555 1_555
C42 C20 1_555 1_555
C43 C42 1_555 1_555
H21 C43 1_555 1_555
C44 C43 1_555 1_555
H22 C44 1_555 1_555
C45 C44 1_555 1_555
C46 C45 1_555 1_555
H23 C46 1_555 1_555
C47 C42 1_555 1_555
H24 C47 1_555 1_555
C48 C45 1_555 1_555
O7 C48 1_555 1_555
O8 C48 1_555 1_555
C49 C50 1_555 1_555
C50 C51 1_555 1_555
C51 H25 1_555 1_555
C52 C51 1_555 1_555
H26 C52 1_555 1_555
C53 C52 1_555 1_555
C54 C53 1_555 1_555
C55 C54 1_555 1_555
C56 C55 1_555 1_555
H27 C56 1_555 1_555
C57 C56 1_555 1_555
H28 C57 1_555 1_555
C58 C57 1_555 1_555
C59 C58 1_555 1_555
N5 C50 1_555 1_555
N6 C55 1_555 1_555
C60 C49 1_555 1_555
C61 C60 1_555 1_555
H29 C61 1_555 1_555
C62 C61 1_555 1_555
H30 C62 1_555 1_555
C63 C62 1_555 1_555
C64 C63 1_555 1_555
O9 Eu1 1_555 1_555
C65 C54 1_555 1_555
C66 C65 1_555 1_555
H31 C66 1_555 1_555
C67 C66 1_555 1_555
H32 C67 1_555 1_555
C68 C67 1_555 1_555
C69 C68 1_555 1_555
H33 C69 1_555 1_555
C70 C65 1_555 1_555
H34 C70 1_555 1_555
C71 C68 1_555 1_555
O10 C71 1_555 1_555
O11 Eu2 1_555 1_555
C72 C59 1_555 1_555
C73 C72 1_555 1_555
H35 C73 1_555 1_555
C74 C73 1_555 1_555
H36 C74 1_555 1_555
C75 C74 1_555 1_555
C76 C75 1_555 1_555
O12 C76 1_555 1_555
O13 Eu1 1_555 1_555
C77 O13 1_555 1_555
H37 C77 1_555 1_555
N7 C77 1_555 1_555
C78 N7 1_555 1_555
H38 C78 1_555 1_555
H39 C78 1_555 1_555
H40 C78 1_555 1_555
C79 N7 1_555 1_555
H41 C79 1_555 1_555
H42 C79 1_555 1_555
H43 C79 1_555 1_555
O14 Eu2 1_555 1_555
O16 Eu2 1_555 1_555
H44 O16 1_555 1_555
H45 O16 1_555 1_555
Eu1B O2 1_555 1_555
Eu1F O4 1_555 1_555
Eu1E O5 1_555 1_555
Eu1B_2 O12 1_555 1_555
Eu1_2 O12B 1_555 1_555
Eu1D O4B 1_555 1_555
Eu1G O5B 1_555 1_555
Eu2B O3B 1_555 1_555
Eu2C O5 1_555 1_555
Eu2_2 O7 1_555 1_555
Eu2A O5B 1_555 1_555
Eu2B_2 O7B 1_555 1_555
C1B C2B 1_555 1_555
C2B H1B 1_555 1_555
C3B C2B 1_555 1_555
H2B C3B 1_555 1_555
C4B C3B 1_555 1_555
C5B C4B 1_555 1_555
C6B C5B 1_555 1_555
C7B C6B 1_555 1_555
H3B C7B 1_555 1_555
C8B C7B 1_555 1_555
H4B C8B 1_555 1_555
C9B C8B 1_555 1_555
C10B C9B 1_555 1_555
C11B C10B 1_555 1_555
C12B C11B 1_555 1_555
H5B C12B 1_555 1_555
C13B C12B 1_555 1_555
H6B C13B 1_555 1_555
C14B C13B 1_555 1_555
C15B C14B 1_555 1_555
C16B C15B 1_555 1_555
C17B C16B 1_555 1_555
H7B C17B 1_555 1_555
C18B C17B 1_555 1_555
H8B C18B 1_555 1_555
C19B C18B 1_555 1_555
C20B C1B 1_555 1_555
N1B C1B 1_555 1_555
N2B C6B 1_555 1_555
N3B C11B 1_555 1_555
N4B C16B 1_555 1_555
C21B C5B 1_555 1_555
C22B C21B 1_555 1_555
H9B C22B 1_555 1_555
C23B C22B 1_555 1_555
H10B C23B 1_555 1_555
C24B C23B 1_555 1_555
C25B C24B 1_555 1_555
H11B C25B 1_555 1_555
C26B C21B 1_555 1_555
H12B C26B 1_555 1_555
C27B C24B 1_555 1_555
O1B Eu1B 1_555 1_555
O2B Eu1 1_555 1_555
C28B C10B 1_555 1_555
C29B C28B 1_555 1_555
H13B C29B 1_555 1_555
C30B C29B 1_555 1_555
H14B C30B 1_555 1_555
C31B C30B 1_555 1_555
C32B C31B 1_555 1_555
H15B C32B 1_555 1_555
C33B C28B 1_555 1_555
H16B C33B 1_555 1_555
C34B C31B 1_555 1_555
O3B C34B 1_555 1_555
O4B C34B 1_555 1_555
O4F Eu1 1_555 1_555
O4D Eu1B 1_555 1_555
C35B C15B 1_555 1_555
C36B C35B 1_555 1_555
H17B C36B 1_555 1_555
C37B C36B 1_555 1_555
H18B C37B 1_555 1_555
C38B C37B 1_555 1_555
C39B C38B 1_555 1_555
H19B C39B 1_555 1_555
C40B C35B 1_555 1_555
H20B C40B 1_555 1_555
C41B C38B 1_555 1_555
O5B C41B 1_555 1_555
O5E Eu1 1_555 1_555
O5C Eu2 1_555 1_555
O5G Eu1B 1_555 1_555
O5A Eu1D 1_555 1_555
O6B Eu2A 1_555 1_555
O6C Eu2 1_555 1_555
O6A Eu2B 1_555 1_555
C42B C20B 1_555 1_555
C43B C42B 1_555 1_555
H21B C43B 1_555 1_555
C44B C43B 1_555 1_555
H22B C44B 1_555 1_555
C45B C44B 1_555 1_555
C46B C45B 1_555 1_555
H23B C46B 1_555 1_555
C47B C42B 1_555 1_555
H24B C47B 1_555 1_555
C48B C45B 1_555 1_555
O7B C48B 1_555 1_555
O7_2 Eu2 1_555 1_555
O7B_2 Eu2B 1_555 1_555
O8B Eu2B_2 1_555 1_555
O8_2 Eu2 1_555 1_555
O8B_2 Eu2B 1_555 1_555
C50B C49 1_555 1_555
C51B C50B 1_555 1_555
H25B C51B 1_555 1_555
C52B C51B 1_555 1_555
H26B C52B 1_555 1_555
C53B C52B 1_555 1_555
C54B C53B 1_555 1_555
C55B C54B 1_555 1_555
C56B C55B 1_555 1_555
H27B C56B 1_555 1_555
C57B C56B 1_555 1_555
H28B C57B 1_555 1_555
C58B C59 1_555 1_555
N5B C50B 1_555 1_555
N6B C55B 1_555 1_555
C61B C60 1_555 1_555
H29B C61B 1_555 1_555
C62B C63 1_555 1_555
H30B C62B 1_555 1_555
O9B C64 1_555 1_555
C65B C54B 1_555 1_555
C66B C65B 1_555 1_555
H31B C66B 1_555 1_555
C67B C66B 1_555 1_555
H32B C67B 1_555 1_555
C68B C67B 1_555 1_555
C69B C68B 1_555 1_555
H33B C69B 1_555 1_555
C70B C65B 1_555 1_555
H34B C70B 1_555 1_555
C71B C68B 1_555 1_555
O10B C71B 1_555 1_555
O11B Eu2B 1_555 1_555
C73B C72 1_555 1_555
H35B C73B 1_555 1_555
C74B C75 1_555 1_555
H36B C74B 1_555 1_555
O12B C76 1_555 1_555
O12B_2 Eu1 1_555 1_555
O12_2 Eu1B 1_555 1_555
O13B Eu1B 1_555 1_555
C77B O13B 1_555 1_555
H37B C77B 1_555 1_555
N7B C77B 1_555 1_555
C78B N7B 1_555 1_555
H38B C78B 1_555 1_555
H39B C78B 1_555 1_555
H40B C78B 1_555 1_555
C79B N7B 1_555 1_555
H41B C79B 1_555 1_555
H42B C79B 1_555 1_555
H43B C79B 1_555 1_555
O14B Eu2B 1_555 1_555
O16B Eu2B 1_555 1_555
H44B O16B 1_555 1_555
H45B O16B 1_555 1_555
C4 N1 1_555 1_555
C9 N2 1_555 1_555
C14 N3 1_555 1_555
C19 C20 1_555 1_555
C19 N4 1_555 1_555
C25 C26 1_555 1_555
C32 C33 1_555 1_555
C39 C40 1_555 1_555
O6 Eu2C 1_555 1_555
C46 C47 1_555 1_555
O8 Eu2_2 1_555 1_555
C53 N5 1_555 1_555
C58 N6 1_555 1_555
C64 O9 1_555 1_555
C69 C70 1_555 1_555
C71 O11 1_555 1_555
Eu1B O9B 1_555 1_555
Eu1F O5C 1_555 1_555
Eu2B O5A 1_555 1_555
C4B N1B 1_555 1_555
C9B N2B 1_555 1_555
C14B N3B 1_555 1_555
C19B C20B 1_555 1_555
C19B N4B 1_555 1_555
C25B C26B 1_555 1_555
C27B O1B 1_555 1_555
C27B O2B 1_555 1_555
C32B C33B 1_555 1_555
C39B C40B 1_555 1_555
C41B O6B 1_555 1_555
C46B C47B 1_555 1_555
C48B O8B 1_555 1_555
C53B N5B 1_555 1_555
C57B C58B 1_555 1_555
C58B N6B 1_555 1_555
C61B C62B 1_555 1_555
C69B C70B 1_555 1_555
C71B O11B 1_555 1_555
C73B C74B 1_555 1_555

#END
