
#######################################################################
#
#                 Cambridge Crystallographic Data Centre
#                                CCDC 
#
#######################################################################
#
# If this CIF has been generated from an entry in the Cambridge 
# Structural Database, then it will include bibliographic, chemical, 
# crystal, experimental, refinement or atomic coordinate data resulting 
# from the CCDC's data processing and validation procedures.
#
#######################################################################

data_LEYLUX
_chemical_formula_moiety         '(C30 H80 Ag3 Cu3 N9 O31 S6)n'
_symmetry_cell_setting           orthorhombic
_symmetry_space_group_name_H-M   'P 21 21 21'
_symmetry_Int_Tables_number      19
_space_group_name_Hall           'P 2ac 2ab'
loop_
_symmetry_equiv_pos_site_id
_symmetry_equiv_pos_as_xyz
1 x,y,z
2 1/2-x,-y,1/2+z
3 1/2+x,1/2-y,-z
4 -x,1/2+y,1/2-z
_cell_length_a                   15.87300(10)
_cell_length_b                   16.90610(10)
_cell_length_c                   22.8297(2)
_cell_angle_alpha                90
_cell_angle_beta                 90
_cell_angle_gamma                90
_cell_volume                     6126.36
loop_
_atom_site_label
_atom_site_type_symbol
_atom_site_fract_x
_atom_site_fract_y
_atom_site_fract_z
_atom_site_U_iso_or_equiv
_atom_site_thermal_displace_type
Ag1 Ag 0.31211(2) 0.79303(3) 0.801752(15) 0.0425 Uani
Ag2 Ag 0.60041(2) 0.80381(3) 0.811856(16) 0.0477 Uani
Ag3 Ag 0.88722(2) 0.84802(3) 0.822436(17) 0.0494 Uani
Cu1 Cu 0.04281(3) 0.88170(3) 0.49996(2) 0.0254 Uani
Cu2 Cu 0.37574(3) 0.87844(3) 0.48875(2) 0.0292 Uani
Cu3 Cu 0.21302(3) 0.62133(3) 0.50208(2) 0.0244 Uani
C1 C -0.0153(2) 0.7622(3) 0.57148(18) 0.0273 Uani
C2 C 0.0738(2) 0.7752(3) 0.59604(17) 0.0243 Uani
H1 H 0.106 0.7266 0.5892 0.0290 Uiso
C3 C 0.0737(2) 0.7910(3) 0.66174(18) 0.0315 Uani
H2 H 0.0372 0.753 0.681 0.0380 Uiso
H3 H 0.0515 0.8435 0.6692 0.0380 Uiso
C4 C 0.1625(3) 0.7847(3) 0.68726(19) 0.0377 Uani
H4 H 0.2018 0.8105 0.6609 0.0450 Uiso
H5 H 0.1782 0.7293 0.6898 0.0450 Uiso
C5 C 0.1746(4) 0.9323(3) 0.7404(3) 0.0587 Uani
H6 H 0.1795 0.9633 0.7755 0.0880 Uiso
H7 H 0.1238 0.9465 0.7201 0.0880 Uiso
H8 H 0.2222 0.9422 0.7156 0.0880 Uiso
C6 C 0.3231(2) 0.7556(2) 0.55869(17) 0.0241 Uani
C7 C 0.4069(2) 0.7777(2) 0.58855(16) 0.0230 Uani
H9 H 0.4434 0.731 0.5885 0.0280 Uiso
C8 C 0.3908(2) 0.8018(3) 0.65241(15) 0.0253 Uani
H10 H 0.3688 0.8553 0.6535 0.0300 Uiso
H11 H 0.3488 0.767 0.6693 0.0300 Uiso
C9 C 0.4710(2) 0.7976(3) 0.68850(16) 0.0297 Uani
H12 H 0.5147 0.8275 0.6686 0.0360 Uiso
H13 H 0.4893 0.743 0.6905 0.0360 Uiso
C10 C 0.4560(3) 0.9409(3) 0.7506(2) 0.0447 Uani
H14 H 0.4501 0.9676 0.7875 0.0670 Uiso
H15 H 0.4087 0.9533 0.7261 0.0670 Uiso
H16 H 0.507 0.9579 0.7318 0.0670 Uiso
C11 C 0.6493(2) 0.7543(3) 0.56152(18) 0.0243 Uani
C12 C 0.7288(2) 0.7736(2) 0.59654(16) 0.0223 Uani
H17 H 0.7637 0.726 0.5997 0.0270 Uiso
C13 C 0.7014(2) 0.7996(3) 0.65801(16) 0.0250 Uani
H18 H 0.6756 0.8516 0.6556 0.0300 Uiso
H19 H 0.6593 0.763 0.6726 0.0300 Uiso
C14 C 0.7741(2) 0.8027(3) 0.70048(16) 0.0285 Uani
H20 H 0.8198 0.8325 0.6829 0.0340 Uiso
H21 H 0.7941 0.7493 0.7075 0.0340 Uiso
C15 C 0.7323(3) 0.9490(3) 0.7479(2) 0.0437 Uani
H22 H 0.7167 0.9801 0.7814 0.0660 Uiso
H23 H 0.6886 0.952 0.7189 0.0660 Uiso
H24 H 0.784 0.9689 0.7318 0.0660 Uiso
C16 C 0.5133(2) 1.0083(3) 0.92067(18) 0.0283 Uani
C17 C 0.4435(2) 0.9650(3) 0.95364(19) 0.0280 Uani
C18 C 0.4010(3) 0.9012(3) 0.91728(18) 0.0297 Uani
H25 H 0.4432 0.8642 0.9034 0.0360 Uiso
H26 H 0.3747 0.9253 0.8833 0.0360 Uiso
C19 C 0.3345(3) 0.8564(3) 0.95232(19) 0.0327 Uani
H27 H 0.2907 0.8932 0.964 0.0390 Uiso
H28 H 0.3603 0.8359 0.9877 0.0390 Uiso
C20 C 0.3587(4) 0.6967(3) 0.9304(2) 0.0523 Uani
H29 H 0.3404 0.6486 0.9119 0.0790 Uiso
H30 H 0.3603 0.6893 0.9721 0.0790 Uiso
H31 H 0.414 0.7102 0.9166 0.0790 Uiso
C21 C 0.8363(2) 1.0107(3) 0.91704(19) 0.0287 Uani
C22 C 0.7705(2) 0.9672(2) 0.95439(19) 0.0260 Uani
H32 H 0.8011 0.9418 0.9865 0.0310 Uiso
C23 C 0.7249(2) 0.9017(3) 0.92125(19) 0.0293 Uani
H33 H 0.6954 0.9247 0.8882 0.0350 Uiso
H34 H 0.7663 0.8648 0.906 0.0350 Uiso
C24 C 0.6620(3) 0.8565(3) 0.95889(19) 0.0327 Uani
H35 H 0.6198 0.8932 0.9731 0.0390 Uiso
H36 H 0.6914 0.8352 0.9927 0.0390 Uiso
C25 C 0.6904(4) 0.7019(3) 0.9240(2) 0.0550 Uani
H37 H 0.6707 0.6546 0.9053 0.0820 Uiso
H38 H 0.7042 0.6906 0.9641 0.0820 Uiso
H39 H 0.7397 0.721 0.9041 0.0820 Uiso
C26 C 0.3161(2) 0.9867(3) 0.40960(19) 0.0297 Uani
C27 C 0.3899(3) 1.0292(3) 0.4395(2) 0.0303 Uani
C28 C 0.4322(3) 1.0929(3) 0.4033(2) 0.0340 Uani
H40 H 0.3895 1.1248 0.3841 0.0410 Uiso
H41 H 0.4666 1.0685 0.3732 0.0410 Uiso
C29 C 0.4869(3) 1.1456(3) 0.4416(2) 0.0410 Uani
H42 H 0.526 1.1121 0.4628 0.0490 Uiso
H43 H 0.4509 1.171 0.4703 0.0490 Uiso
C30 C 0.4662(4) 1.2872(3) 0.3768(3) 0.0677 Uani
H44 H 0.4919 1.3303 0.356 0.1020 Uiso
H45 H 0.4339 1.3076 0.409 0.1020 Uiso
H46 H 0.4298 1.2585 0.3508 0.1020 Uiso
N1 N 0.1162(2) 0.8399(2) 0.56366(15) 0.0308 Uani
H47 H 0.1646 0.8217 0.5481 0.0370 Uiso
H48 H 0.129 0.8793 0.5886 0.0370 Uiso
N2 N 0.4490(2) 0.8411(2) 0.55473(14) 0.0277 Uani
H49 H 0.498 0.8227 0.5402 0.0330 Uiso
H50 H 0.4608 0.882 0.5786 0.0330 Uiso
N3 N 0.7772(2) 0.8364(2) 0.56662(15) 0.0249 Uani
H51 H 0.8269 0.8167 0.5544 0.0300 Uiso
H52 H 0.7879 0.8759 0.592 0.0300 Uiso
N4 N 0.3860(2) 1.0249(2) 0.97934(17) 0.0274 Uani
N5 N 0.71533(19) 1.0272(2) 0.98101(15) 0.0251 Uani
H53 H 0.6924 1.0085 1.0143 0.0300 Uiso
H54 H 0.6735 1.0402 0.9562 0.0300 Uiso
N6 N 0.4480(2) 0.9673(3) 0.4617(2) 0.0353 Uani
N7 N 0.2720(3) 1.0002(3) 0.5964(2) 0.0547 Uani
O1 O -0.03921(16) 0.80643(17) 0.52979(12) 0.0287 Uani
O2 O -0.05942(18) 0.7083(2) 0.59144(13) 0.0405 Uani
O3 O 0.29707(15) 0.79806(18) 0.51657(12) 0.0280 Uani
O4 O 0.28373(17) 0.69723(18) 0.57678(12) 0.0300 Uani
O5 O 0.62838(15) 0.80133(17) 0.52035(11) 0.0258 Uani
O6 O 0.60698(17) 0.69553(18) 0.57534(12) 0.0316 Uani
O7 O 0.54801(19) 0.97710(19) 0.87851(14) 0.0381 Uani
O8 O 0.53477(17) 1.07559(17) 0.94149(13) 0.0307 Uani
O9 O 0.85756(17) 1.07948(18) 0.93515(14) 0.0322 Uani
O10 O 0.86696(19) 0.9800(2) 0.87331(15) 0.0448 Uani
O11 O 0.27380(19) 1.0214(2) 0.37276(15) 0.0437 Uani
O12 O 0.29883(17) 0.91758(18) 0.42833(14) 0.0352 Uani
O13 O 0.3573(3) 0.6538(2) 0.77822(19) 0.0517 Uani
O14 O 0.6492(3) 0.6629(3) 0.77121(17) 0.0557 Uani
O15 O 0.9589(2) 0.9282(2) 0.75343(17) 0.0610 Uani
O16 O 0.3258(4) 1.0089(4) 0.6315(3) 0.1383 Uani
O17 O 0.2821(4) 0.9733(6) 0.5531(4) 0.1773 Uani
O18 O 0.1986(4) 1.0298(5) 0.6003(3) 0.1307 Uani
S1 S 0.17124(7) 0.82909(8) 0.75914(5) 0.0390 Uani
S2 S 0.46011(7) 0.83552(7) 0.76276(4) 0.0297 Uani
S3 S 0.74652(6) 0.84769(8) 0.76985(5) 0.0303 Uani
S4 S 0.28654(7) 0.77514(7) 0.91285(5) 0.0320 Uani
S5 S 0.60927(7) 0.77619(7) 0.92145(4) 0.0313 Uani
S6 S 0.54716(7) 1.22180(7) 0.40428(5) 0.0374 Uani
H55 H 0.358(3) 0.625(3) 0.743(3) 0.0490 Uiso
H56 H 0.407(3) 0.645(3) 0.786(2) 0.0510 Uiso
H57 H 0.949 0.9262 0.7164 0.0610 Uiso
H58 H 0.9675 0.9771 0.7614 0.0610 Uiso
H59 H 0.346(3) 1.041(3) 0.9478(19) 0.0270 Uiso
H60 H 0.651(3) 0.626(3) 0.747(2) 0.0470 Uiso
H61 H 0.364(3) 1.007(3) 1.008(2) 0.0420 Uiso
H62 H 0.6603 0.6571 0.8081 0.0630 Uiso
H63 H 0.476(3) 0.982(3) 0.486(2) 0.0220 Uiso
H64 H 0.480(3) 0.946(3) 0.428(2) 0.0350 Uiso
H65 H 0.474(3) 0.943(3) 0.988(2) 0.0550 Uiso
H66 H 0.367(3) 1.054(4) 0.473(3) 0.0660 Uiso
Ag3A Ag 0.61278(2) 1.15198(3) 0.322436(17) 0.0494 Uani
Cu1A Cu 0.45719(3) 1.11830(3) 0.99996(2) 0.0254 Uani
Cu1B Cu 0.54281(3) 0.61830(3) 0.50004(2) 0.0254 Uani
Cu2B Cu -0.12426(3) 0.62156(3) 0.51125(2) 0.0292 Uani
Cu3B Cu 0.71302(3) 0.87867(3) 0.49792(2) 0.0244 Uani
Cu3C Cu 0.78698(3) 1.12133(3) 0.99792(2) 0.0244 Uani
N3B N 0.2772(2) 0.6636(2) 0.43338(15) 0.0249 Uani
H51B H 0.3269 0.6833 0.4456 0.0300 Uiso
H52B H 0.2879 0.6241 0.408 0.0300 Uiso
N4A N 0.1140(2) 0.9751(2) 0.47934(17) 0.0274 Uani
N5C N 0.28467(19) 0.5272(2) 0.51899(15) 0.0251 Uani
H53C H 0.3076 0.5085 0.4857 0.0300 Uiso
H54C H 0.3265 0.5402 0.5438 0.0300 Uiso
O2B O 0.44058(18) 0.7917(2) 0.40856(13) 0.0405 Uani
O5B O 0.12838(15) 0.69867(17) 0.47965(11) 0.0258 Uani
O6B O 0.10698(17) 0.80447(18) 0.42466(12) 0.0316 Uani
O8A O -0.03477(17) 0.92441(17) 0.44149(13) 0.0307 Uani
O9C O 0.14244(17) 0.57948(18) 0.56485(14) 0.0322 Uani
S6A S 0.95284(7) 0.77820(7) 0.90428(5) 0.0374 Uani
H59A H 0.154(3) 0.959(3) 0.4478(19) 0.0270 Uiso
H61A H 0.136(3) 0.993(3) 0.508(2) 0.0420 Uiso
N8 N -0.0664(2) 0.9882(3) 0.60585(19) 0.0403 Uani
O19 O -0.0973(4) 1.0324(4) 0.5716(3) 0.1247 Uani
O20 O -0.1113(3) 0.9497(3) 0.6384(2) 0.1017 Uani
O21 O 0.0094(3) 0.9836(4) 0.6075(3) 0.1320 Uani
N9 N 0.6010(2) 0.9909(2) 0.59226(17) 0.0357 Uani
O22 O 0.6789(2) 0.9933(3) 0.5959(2) 0.0677 Uani
O23 O 0.5600(3) 0.9549(3) 0.62911(18) 0.0670 Uani
O24 O 0.5656(3) 1.0259(3) 0.5525(2) 0.0797 Uani
O25 O 0.3403(2) 0.5967(2) 0.66632(15) 0.0550 Uani
H67 H 0.2919 0.6022 0.6493 0.0830 Uiso
H80 H 0.3887 0.5724 0.6529 0.0470 Uiso
O26 O -0.1933(2) 1.1193(3) 0.6846(2) 0.0770 Uani
H68 H -0.2462 1.1074 0.6846 0.0830 Uiso
H69 H -0.1676 1.0764 0.6741 0.0830 Uiso
O27 O 0.5084(2) 0.6231(3) 0.83500(19) 0.0680 Uani
H70 H 0.5257 0.5864 0.8583 0.0830 Uiso
H71 H 0.5511 0.636 0.8141 0.0830 Uiso
O28 O 0.6428(2) 0.5867(2) 0.66548(16) 0.0527 Uani
H72 H 0.6209 0.6242 0.6452 0.0830 Uiso
H73 H 0.6944 0.5833 0.654 0.0830 Uiso
O29 O 0.4169(3) 0.8757(4) 0.3007(2) 0.1053 Uani
H74 H 0.3942 0.8538 0.2698 0.0830 Uiso
H75 H 0.4619 0.898 0.2879 0.0830 Uiso
O30 O 0.8195(3) 0.6480(3) 0.8039(2) 0.0920 Uani
H76 H 0.848 0.6039 0.8043 0.0830 Uiso
H77 H 0.7695 0.6342 0.7927 0.0830 Uiso
O31 O 0.9135(3) 0.0855(3) 0.7799(2) 0.0797 Uani
H78 H 0.8855 0.0663 0.809 0.0830 Uiso
H79 H 0.8845 0.1271 0.7691 0.0830 Uiso
loop_
_atom_site_aniso_label
_atom_site_aniso_U_11
_atom_site_aniso_U_22
_atom_site_aniso_U_33
_atom_site_aniso_U_23
_atom_site_aniso_U_13
_atom_site_aniso_U_12
Ag1 0.04044(18) 0.0566(2) 0.03045(18) 0.00163(18) -0.00496(14) -0.00514(18)
Ag2 0.0425(2) 0.0657(3) 0.03503(19) 0.00964(19) -0.01241(15) -0.01072(18)
Ag3 0.0508(2) 0.0549(3) 0.0425(2) -0.00719(19) -0.01631(17) 0.00477(19)
Cu1 0.0207(2) 0.0284(3) 0.0270(3) 0.0026(2) -0.0023(2) -0.0025(2)
Cu2 0.0242(2) 0.0326(3) 0.0309(3) 0.0057(2) -0.0059(2) -0.0047(2)
Cu3 0.022 0.026 0.0253 0.004 0.00204 0.00236
C1 0.0249(19) 0.035(3) 0.022(2) -0.0009(19) -0.0032(16) -0.0012(17)
C2 0.0228(18) 0.028(2) 0.022(2) 0.0022(17) 0.0001(15) -0.0030(16)
C3 0.0236(19) 0.041(3) 0.030(2) -0.002(2) 0.0003(16) 0.0019(18)
C4 0.034(2) 0.048(3) 0.031(2) -0.001(2) -0.0029(18) 0.004(2)
C5 0.057(3) 0.057(4) 0.062(4) -0.006(3) -0.018(3) 0.004(3)
C6 0.0228(19) 0.029(2) 0.0206(19) -0.0051(17) 0.0022(16) -0.0004(17)
C7 0.0213(18) 0.028(2) 0.0198(18) -0.0027(16) 0.0015(14) 0.0003(16)
C8 0.0234(18) 0.032(2) 0.0205(18) -0.0031(17) -0.0007(15) 0.0012(18)
C9 0.028(2) 0.037(2) 0.024(2) 0.001(2) -0.0017(16) 0.0019(18)
C10 0.059(3) 0.037(3) 0.038(3) -0.004(2) -0.002(2) -0.003(3)
C11 0.0199(18) 0.029(2) 0.024(2) -0.0082(18) 0.0029(15) 0.0015(16)
C12 0.0238(19) 0.023(2) 0.0200(19) -0.0009(17) -0.0001(14) 0.0017(16)
C13 0.0254(19) 0.031(2) 0.0186(18) -0.0016(18) 0.0022(14) 0.0004(18)
C14 0.031(2) 0.035(3) 0.0194(19) -0.0017(19) -0.0023(15) -0.0010(19)
C15 0.054(3) 0.032(3) 0.045(3) -0.005(2) -0.002(2) -0.001(2)
C16 0.0188 0.038 0.028 -0.004 -0.0017 0.0036
C17 0.024(2) 0.031(3) 0.029(2) -0.001(2) -0.0006(16) 0.0030(17)
C18 0.030(2) 0.032(2) 0.027(2) -0.0018(18) 0.0048(17) -0.0015(18)
C19 0.038(2) 0.031(3) 0.029(2) -0.006(2) 0.0016(18) -0.0049(19)
C20 0.076(4) 0.034(3) 0.047(3) 0.006(3) -0.009(3) 0.002(3)
C21 0.027 0.025 0.034 -0.0068 0.0041 0.0029
C22 0.029(2) 0.021(2) 0.028(2) -0.0058(18) -0.0014(16) 0.0016(17)
C23 0.025(2) 0.034(3) 0.029(2) -0.0048(19) 0.0005(16) -0.0041(18)
C24 0.032(2) 0.039(3) 0.027(2) -0.004(2) -0.0002(17) -0.0049(19)
C25 0.075(4) 0.034(3) 0.056(3) -0.011(3) -0.020(3) 0.014(3)
C26 0.021 0.035 0.033 0.002 0.0021 0.0017
C27 0.028 0.027 0.036 0.0045 0.0003 -0.0009
C28 0.034 0.035 0.033 0.003 -0.0012 -0.0008
C29 0.044 0.044 0.035 -0.001 0.006 -0.012
C30 0.058 0.038 0.107 0.008 0.001 0.014
N1 0.0243(17) 0.037(2) 0.0312(18) -0.0003(16) -0.0027(14) -0.0044(16)
N2 0.0225(16) 0.038(2) 0.0227(17) -0.0010(16) -0.0007(13) -0.0025(15)
N3 0.0241(16) 0.026(2) 0.0247(18) -0.0012(15) -0.0015(13) -0.0021(14)
N4 0.0215 0.031 0.0298 -0.0012 0.0046 -0.0016
N5 0.0228 0.0252 0.0272 -0.0031 0.0022 -0.0007
N6 0.028 0.04 0.038 0.01 -0.0091 -0.0027
N7 0.057(3) 0.057(3) 0.050(3) -0.006(3) 0.004(2) -0.007(3)
O1 0.0212(13) 0.0360(17) 0.0289(15) 0.0066(13) -0.0033(11) -0.0054(13)
O2 0.0379(17) 0.045(2) 0.0387(18) 0.0157(16) -0.0118(13) -0.0185(15)
O3 0.0239(13) 0.0337(17) 0.0263(14) 0.0056(13) -0.0053(11) -0.0053(12)
O4 0.0336(15) 0.0317(18) 0.0248(15) 0.0017(14) -0.0029(11) -0.0063(14)
O5 0.0232(13) 0.0265(16) 0.0277(14) 0.0035(13) -0.0066(11) -0.0031(12)
O6 0.0304 0.0349 0.0295 0.0058 -0.0059 -0.0112
O7 0.0345 0.04 0.0398 -0.0072 0.0094 0.001
O8 0.0253 0.0285 0.0382 -0.0046 0.004 -0.0021
O9 0.0291 0.0291 0.0384 -0.0059 0.0071 -0.0028
O10 0.0435 0.039 0.052 -0.0207 0.0219 -0.0075
O11 0.0352 0.049 0.047 0.0118 -0.0144 0.0006
O12 0.0315 0.0341 0.04 0.0046 -0.0116 -0.0067
O13 0.056(3) 0.047(2) 0.052(2) -0.008(2) 0.0062(18) 0.0038(19)
O14 0.078(3) 0.052(3) 0.037(2) -0.002(2) 0.0111(18) -0.004(2)
O15 0.056(2) 0.071(3) 0.056(2) 0.002(2) 0.0053(19) 0.001(2)
O16 0.133(5) 0.104(5) 0.178(7) 0.016(5) -0.109(5) -0.017(4)
O17 0.113(5) 0.274(11) 0.145(7) -0.133(7) -0.015(4) 0.048(6)
O18 0.086(4) 0.187(7) 0.119(5) -0.058(5) -0.018(3) 0.030(4)
S1 0.0368(6) 0.0569(8) 0.0234(5) -0.0015(5) -0.0033(4) -0.0036(5)
S2 0.0307(5) 0.0385(6) 0.0198(5) -0.0011(4) -0.0032(4) -0.0040(5)
S3 0.0335(5) 0.0361(7) 0.0214(5) -0.0017(5) -0.0026(4) -0.0032(4)
S4 0.0366(6) 0.0318(7) 0.0276(5) 0.0006(5) 0.0021(4) -0.0073(5)
S5 0.0347(5) 0.0324(6) 0.0268(5) 0.0013(4) -0.0030(4) -0.0064(5)
S6 0.0375 0.0337 0.0411 0.0008 0.0009 -0.0059
Ag3A 0.0508 0.0549 0.0425 0.00719 0.01631 0.00477
Cu1A 0.0207 0.0284 0.027 -0.0026 0.0023 -0.0025
Cu1B 0.0207 0.0284 0.027 0.0026 0.0023 0.0025
Cu2B 0.0242 0.0326 0.0309 0.0057 0.0059 0.0047
Cu3B 0.0220(2) 0.0260(3) 0.0253(2) 0.0040(2) -0.00204(18) -0.00236(19)
Cu3C 0.022 0.026 0.0253 -0.004 0.00204 -0.00236
N3B 0.0241 0.026 0.0247 -0.0012 0.0015 0.0021
N4A 0.0215 0.031 0.0298 0.0012 -0.0046 -0.0016
N5C 0.0228 0.0252 0.0272 0.0031 0.0022 0.0007
O2B 0.0379 0.045 0.0387 0.0157 0.0118 0.0185
O5B 0.0232 0.0265 0.0277 0.0035 0.0066 0.0031
O6B 0.0304 0.0349 0.0295 0.0058 0.0059 0.0112
O8A 0.0253 0.0285 0.0382 0.0046 -0.004 -0.0021
O9C 0.0291 0.0291 0.0384 0.0059 0.0071 0.0028
S6A 0.0375 0.0337 0.0411 -0.0008 -0.0009 -0.0059
N8 0.040(2) 0.043(3) 0.038(2) -0.006(2) -0.0003(17) 0.0009(18)
O19 0.171(6) 0.098(4) 0.105(4) 0.030(4) -0.086(4) -0.060(4)
O20 0.117(4) 0.129(5) 0.059(3) -0.006(3) 0.025(3) -0.073(4)
O21 0.052(3) 0.127(6) 0.217(8) 0.004(5) 0.011(4) 0.022(3)
N9 0.039(2) 0.030(2) 0.038(2) -0.0008(18) 0.0064(18) -0.0069(17)
O22 0.045(2) 0.067(3) 0.091(3) 0.024(3) 0.010(2) 0.005(2)
O23 0.072(3) 0.067(3) 0.062(3) 0.013(2) 0.017(2) -0.016(2)
O24 0.090(3) 0.086(3) 0.063(3) 0.026(3) -0.037(2) -0.033(3)
O25 0.071(2) 0.056(2) 0.038(2) 0.0039(18) 0.0116(17) 0.0171(18)
O26 0.055(2) 0.070(3) 0.106(4) 0.015(3) 0.013(2) 0.003(2)
O27 0.052(2) 0.077(3) 0.075(3) 0.020(2) 0.0119(19) 0.003(2)
O28 0.056(2) 0.056(2) 0.046(2) 0.0101(19) 0.0106(16) 0.0081(17)
O29 0.077(3) 0.155(5) 0.084(3) 0.047(4) -0.007(3) -0.018(3)
O30 0.075(3) 0.098(4) 0.103(4) 0.000(3) 0.001(3) 0.006(3)
O31 0.080(3) 0.079(3) 0.080(3) 0.005(3) 0.015(2) -0.019(2)
loop_
_geom_bond_atom_site_label_1
_geom_bond_atom_site_label_2
_geom_bond_site_symmetry_1
_geom_bond_site_symmetry_2
Ag1 O13 1_555 1_555
Ag2 O14 1_555 1_555
Ag3 O10 1_555 1_555
Cu1 N1 1_555 1_555
Cu2 N2 1_555 1_555
Cu3 O4 1_555 1_555
C1 C2 1_555 1_555
C2 H1 1_555 1_555
C3 C2 1_555 1_555
H2 C3 1_555 1_555
H3 C3 1_555 1_555
C4 C3 1_555 1_555
H4 C4 1_555 1_555
H5 C4 1_555 1_555
C5 H6 1_555 1_555
H7 C5 1_555 1_555
H8 C5 1_555 1_555
C6 C7 1_555 1_555
C7 H9 1_555 1_555
C8 C7 1_555 1_555
H10 C8 1_555 1_555
H11 C8 1_555 1_555
C9 C8 1_555 1_555
H12 C9 1_555 1_555
H13 C9 1_555 1_555
C10 H14 1_555 1_555
H15 C10 1_555 1_555
H16 C10 1_555 1_555
C11 C12 1_555 1_555
C12 H17 1_555 1_555
C13 C12 1_555 1_555
H18 C13 1_555 1_555
H19 C13 1_555 1_555
C14 C13 1_555 1_555
H20 C14 1_555 1_555
H21 C14 1_555 1_555
C15 H22 1_555 1_555
H23 C15 1_555 1_555
H24 C15 1_555 1_555
C16 C17 1_555 1_555
C17 C18 1_555 1_555
C18 H25 1_555 1_555
H26 C18 1_555 1_555
C19 C18 1_555 1_555
H27 C19 1_555 1_555
H28 C19 1_555 1_555
C20 H29 1_555 1_555
H30 C20 1_555 1_555
H31 C20 1_555 1_555
C21 C22 1_555 1_555
C22 H32 1_555 1_555
C23 C22 1_555 1_555
H33 C23 1_555 1_555
H34 C23 1_555 1_555
C24 C23 1_555 1_555
H35 C24 1_555 1_555
H36 C24 1_555 1_555
C25 H37 1_555 1_555
H38 C25 1_555 1_555
H39 C25 1_555 1_555
C26 C27 1_555 1_555
C27 C28 1_555 1_555
C28 H40 1_555 1_555
H41 C28 1_555 1_555
C29 C28 1_555 1_555
H42 C29 1_555 1_555
H43 C29 1_555 1_555
C30 H44 1_555 1_555
H45 C30 1_555 1_555
H46 C30 1_555 1_555
N1 C2 1_555 1_555
H47 N1 1_555 1_555
H48 N1 1_555 1_555
N2 C7 1_555 1_555
H49 N2 1_555 1_555
H50 N2 1_555 1_555
N3 C12 1_555 1_555
H51 N3 1_555 1_555
H52 N3 1_555 1_555
N4 C17 1_555 1_555
N5 C22 1_555 1_555
H53 N5 1_555 1_555
H54 N5 1_555 1_555
N6 Cu2 1_555 1_555
N7 O16 1_555 1_555
N8 O19 1_555 1_555
N9 O22 1_555 1_555
O1 Cu1 1_555 1_555
O2 C1 1_555 1_555
O3 Cu2 1_555 1_555
O4 C6 1_555 1_555
O5 C11 1_555 1_555
O6 C11 1_555 1_555
O7 C16 1_555 1_555
O8 C16 1_555 1_555
O9 C21 1_555 1_555
O10 C21 1_555 1_555
O11 C26 1_555 1_555
O12 Cu2 1_555 1_555
O13 H55 1_555 1_555
O14 H60 1_555 1_555
O15 Ag3 1_555 1_555
O17 Cu2 1_555 1_555
O18 N7 1_555 1_555
O20 N8 1_555 1_555
O21 N8 1_555 1_555
O23 N9 1_555 1_555
O24 N9 1_555 1_555
O25 H67 1_555 1_555
O26 H68 1_555 1_555
O27 H70 1_555 1_555
O28 H72 1_555 1_555
O29 H74 1_555 1_555
O30 H76 1_555 1_555
O31 H78 1_555 1_555
S1 Ag1 1_555 1_555
S2 Ag1 1_555 1_555
S3 Ag2 1_555 1_555
S4 Ag1 1_555 1_555
S5 Ag2 1_555 1_555
S6 C29 1_555 1_555
H56 O13 1_555 1_555
H57 O15 1_555 1_555
H58 O15 1_555 1_555
H59 N4 1_555 1_555
H61 N4 1_555 1_555
H62 O14 1_555 1_555
H63 N6 1_555 1_555
H64 N6 1_555 1_555
H65 C17 1_555 1_555
H66 C27 1_555 1_555
H69 O26 1_555 1_555
H71 O27 1_555 1_555
H73 O28 1_555 1_555
H75 O29 1_555 1_555
H77 O30 1_555 1_555
H79 O31 1_555 1_555
H80 O25 1_555 1_555
Ag3A S6 1_555 1_555
Cu1A N4 1_555 1_555
Cu1B O6 1_555 1_555
Cu2B O2 1_555 1_555
Cu3B N3 1_555 1_555
Cu3C N5 1_555 1_555
N3B Cu3 1_555 1_555
H51B N3B 1_555 1_555
H52B N3B 1_555 1_555
N4A Cu1 1_555 1_555
N5C Cu3 1_555 1_555
H53C N5C 1_555 1_555
H54C N5C 1_555 1_555
O2B Cu2 1_555 1_555
O5B Cu3 1_555 1_555
O6B Cu1 1_555 1_555
O8A Cu1 1_555 1_555
O9C Cu3 1_555 1_555
S6A Ag3 1_555 1_555
H59A N4A 1_555 1_555
H61A N4A 1_555 1_555
Ag2 S2 1_555 1_555
Ag3 S3 1_555 1_555
C1 O1 1_555 1_555
C4 S1 1_555 1_555
C5 S1 1_555 1_555
C6 O3 1_555 1_555
C9 S2 1_555 1_555
C10 S2 1_555 1_555
C14 S3 1_555 1_555
C15 S3 1_555 1_555
C19 S4 1_555 1_555
C20 S4 1_555 1_555
C24 S5 1_555 1_555
C25 S5 1_555 1_555
C26 O12 1_555 1_555
C27 N6 1_555 1_555
C30 S6 1_555 1_555
N7 O17 1_555 1_555
O5 Cu3B 1_555 1_555
O8 Cu1A 1_555 1_555
O9 Cu3C 1_555 1_555

#END
