
#######################################################################
#
#                 Cambridge Crystallographic Data Centre
#                                CCDC 
#
#######################################################################
#
# If this CIF has been generated from an entry in the Cambridge 
# Structural Database, then it will include bibliographic, chemical, 
# crystal, experimental, refinement or atomic coordinate data resulting 
# from the CCDC's data processing and validation procedures.
#
#######################################################################

data_YINCOP
_chemical_formula_moiety         '(C48 H40 Mn3 N2 O20)n'
_symmetry_cell_setting           monoclinic
_symmetry_space_group_name_H-M   'C 2/c'
_symmetry_Int_Tables_number      15
_space_group_name_Hall           '-C 2yc'
loop_
_symmetry_equiv_pos_site_id
_symmetry_equiv_pos_as_xyz
1 x,y,z
2 -x,y,1/2-z
3 1/2+x,1/2+y,z
4 1/2-x,1/2+y,1/2-z
5 -x,-y,-z
6 x,-y,1/2+z
7 1/2-x,1/2-y,-z
8 1/2+x,1/2-y,1/2+z
_cell_length_a                   27.565(3)
_cell_length_b                   21.395(3)
_cell_length_c                   9.3865(10)
_cell_angle_alpha                90
_cell_angle_beta                 106.317(3)
_cell_angle_gamma                90
_cell_volume                     5312.75
loop_
_atom_site_label
_atom_site_type_symbol
_atom_site_fract_x
_atom_site_fract_y
_atom_site_fract_z
_atom_site_U_iso_or_equiv
_atom_site_thermal_displace_type
Mn1 Mn 0.75265(2) 0.43413(3) 0.94067(6) 0.0358 Uani
Mn2 Mn 0.7500 0.2500 1.0000 0.0470 Uani
O1 O 0.81573(10) 0.38415(13) 0.9094(3) 0.0463 Uani
O2 O 1.22789(11) 0.48255(14) 1.1432(4) 0.0564 Uani
O3 O 0.68932(12) 0.49040(19) 0.9957(4) 0.0693 Uani
H1 H 0.6623 0.4823 0.9350 0.1040 Uiso
O4 O 1.19603(10) 0.08545(14) 1.2334(3) 0.0485 Uani
O5 O 1.19998(11) 0.15780(13) 1.4040(3) 0.0479 Uani
O6 O 0.81220(11) 0.28041(14) 0.9318(3) 0.0508 Uani
O7 O 1.21603(12) 0.43432(17) 1.3372(3) 0.0747 Uani
O8 O 0.98335(11) 0.20458(13) 0.9326(4) 0.0612 Uani
O9 O 0.99244(11) 0.42909(14) 0.9204(4) 0.0622 Uani
O10 O 0.71650(13) 0.21471(16) 0.7822(3) 0.0633 Uani
N1 N 0.71542(16) 0.18151(18) 0.5548(4) 0.0565 Uani
C1 C 0.88918(14) 0.32514(18) 0.9213(4) 0.0328 Uani
C2 C 0.83460(16) 0.3309(2) 0.9208(4) 0.0354 Uani
C3 C 0.91198(15) 0.26715(19) 0.9267(4) 0.0394 Uani
H2 H 0.8933 0.2309 0.9260 0.0470 Uiso
C4 C 1.04390(16) 0.43174(19) 0.9931(5) 0.0465 Uani
C5 C 1.17792(16) 0.1329(2) 1.2799(5) 0.0422 Uani
C6 C 1.14537(15) 0.44669(18) 1.1305(4) 0.0371 Uani
C7 C 0.99061(16) 0.3169(2) 0.9295(4) 0.0454 Uani
H3 H 1.0243 0.3144 0.9293 0.0540 Uiso
C8 C 1.20034(16) 0.4564(2) 1.2081(5) 0.0411 Uani
C9 C 1.07433(16) 0.46024(19) 0.9173(5) 0.0451 Uani
H4 H 1.0606 0.4745 0.8207 0.0540 Uiso
C10 C 0.96239(16) 0.2635(2) 0.9333(5) 0.0446 Uani
C11 C 1.12501(15) 0.46719(18) 0.9862(4) 0.0399 Uani
H5 H 1.1458 0.4858 0.9356 0.0480 Uiso
C12 C 1.11458(16) 0.41758(19) 1.2049(5) 0.0442 Uani
H6 H 1.1284 0.4029 1.3010 0.0530 Uiso
C13 C 0.96699(16) 0.3737(2) 0.9261(5) 0.0446 Uani
C14 C 1.10208(17) 0.2035(2) 1.2353(5) 0.0483 Uani
H7 H 1.1171 0.2229 1.3255 0.0580 Uiso
C15 C 1.12747(16) 0.15724(19) 1.1865(5) 0.0420 Uani
C16 C 1.06412(17) 0.4104(2) 1.1374(5) 0.0538 Uani
H8 H 1.0434 0.3914 1.1877 0.0650 Uiso
C17 C 1.10484(18) 0.1303(2) 1.0503(5) 0.0677 Uani
H9 H 1.1219 0.0989 1.0158 0.0810 Uiso
C18 C 0.7367(2) 0.1890(2) 0.6980(5) 0.0561 Uani
H10 H 0.7693 0.1736 0.7375 0.0680 Uiso
C19 C 0.6663(2) 0.2039(2) 0.4824(5) 0.0771 Uani
H11 H 0.6513 0.2210 0.5546 0.1160 Uiso
H12 H 0.6458 0.1701 0.4310 0.1160 Uiso
H13 H 0.6684 0.2358 0.4125 0.1160 Uiso
C20 C 0.91680(15) 0.3786(2) 0.9199(4) 0.0401 Uani
H14 H 0.9016 0.4177 0.9149 0.0480 Uiso
C21 C 1.05771(19) 0.1485(2) 0.9635(6) 0.0743 Uani
H15 H 1.0436 0.1312 0.8701 0.0890 Uiso
C22 C 1.03253(17) 0.1929(2) 1.0199(5) 0.0507 Uani
C23 C 1.05510(17) 0.2216(2) 1.1543(5) 0.0513 Uani
H16 H 1.0382 0.2532 1.1892 0.0620 Uiso
C24 C 0.7423(2) 0.1500(2) 0.4626(6) 0.0827 Uani
H17 H 0.7740 0.1345 0.5239 0.1240 Uiso
H18 H 0.7484 0.1790 0.3914 0.1240 Uiso
H19 H 0.7223 0.1158 0.4116 0.1240 Uiso
H20 H 0.6907(17) 0.510(3) 1.075(4) 0.1700 Uiso
Mn1A Mn 1.24735(2) 0.43413(3) 1.55933(6) 0.0358 Uani
O1A O 1.18427(10) 0.38415(13) 1.5906(3) 0.0463 Uani
O2A O 0.77211(11) 0.48255(14) 1.3568(4) 0.0564 Uani
O3A O 1.31068(12) 0.49040(19) 1.5043(4) 0.0693 Uani
H1A H 1.3377 0.4823 1.5650 0.1040 Uiso
O4A O 0.80397(10) 0.08545(14) 1.2666(3) 0.0485 Uani
O5A O 0.80002(11) 0.15780(13) 1.0960(3) 0.0479 Uani
O6A O 1.18780(11) 0.28041(14) 1.5682(3) 0.0508 Uani
O7A O 0.78397(12) 0.43432(17) 1.1628(3) 0.0747 Uani
O8A O 1.01665(11) 0.20458(13) 1.5674(4) 0.0612 Uani
O9A O 1.00756(11) 0.42909(14) 1.5796(4) 0.0622 Uani
C1A C 1.11082(14) 0.32514(18) 1.5787(4) 0.0328 Uani
C2A C 1.16540(16) 0.3309(2) 1.5792(4) 0.0354 Uani
C3A C 1.08802(15) 0.26715(19) 1.5733(4) 0.0394 Uani
H2A H 1.1067 0.2309 1.5740 0.0470 Uiso
C4A C 0.95610(16) 0.43174(19) 1.5069(5) 0.0465 Uani
C5A C 0.82208(16) 0.1329(2) 1.2201(5) 0.0422 Uani
C6A C 0.85463(15) 0.44669(18) 1.3695(4) 0.0371 Uani
C7A C 1.00939(16) 0.3169(2) 1.5705(4) 0.0454 Uani
H3A H 0.9757 0.3144 1.5707 0.0540 Uiso
C8A C 0.79966(16) 0.4564(2) 1.2919(5) 0.0411 Uani
C9A C 0.92567(16) 0.46024(19) 1.5827(5) 0.0451 Uani
H4A H 0.9394 0.4745 1.6793 0.0540 Uiso
C10A C 1.03761(16) 0.2635(2) 1.5667(5) 0.0446 Uani
C11A C 0.87499(15) 0.46719(18) 1.5138(4) 0.0399 Uani
H5A H 0.8542 0.4858 1.5644 0.0480 Uiso
C12A C 0.88542(16) 0.41758(19) 1.2951(5) 0.0442 Uani
H6A H 0.8716 0.4029 1.1990 0.0530 Uiso
C13A C 1.03301(16) 0.3737(2) 1.5739(5) 0.0446 Uani
C14A C 0.89792(17) 0.2035(2) 1.2647(5) 0.0483 Uani
H7A H 0.8829 0.2229 1.1745 0.0580 Uiso
C15A C 0.87253(16) 0.15724(19) 1.3135(5) 0.0420 Uani
C16A C 0.93588(17) 0.4104(2) 1.3626(5) 0.0538 Uani
H8A H 0.9566 0.3914 1.3123 0.0650 Uiso
C17A C 0.89516(18) 0.1303(2) 1.4497(5) 0.0677 Uani
H9A H 0.8781 0.0989 1.4842 0.0810 Uiso
C20A C 1.08320(15) 0.3786(2) 1.5801(4) 0.0401 Uani
H14A H 1.0984 0.4177 1.5851 0.0480 Uiso
C21A C 0.94229(19) 0.1485(2) 1.5365(6) 0.0743 Uani
H15A H 0.9564 0.1312 1.6299 0.0890 Uiso
C22A C 0.96747(17) 0.1929(2) 1.4801(5) 0.0507 Uani
C23A C 0.94490(17) 0.2216(2) 1.3457(5) 0.0513 Uani
H16A H 0.9618 0.2532 1.3108 0.0620 Uiso
H20A H 1.3093(17) 0.510(3) 1.425(4) 0.1700 Uiso
O10F O 0.78350(13) 0.28529(16) 1.2178(3) 0.0633 Uani
N1F N 0.78458(16) 0.31849(18) 1.4452(4) 0.0565 Uani
C18F C 0.7633(2) 0.3110(2) 1.3020(5) 0.0561 Uani
H10F H 0.7307 0.3264 1.2625 0.0680 Uiso
C19F C 0.8337(2) 0.2961(2) 1.5176(5) 0.0771 Uani
H11F H 0.8487 0.2790 1.4454 0.1160 Uiso
H12F H 0.8542 0.3299 1.5690 0.1160 Uiso
H13F H 0.8316 0.2642 1.5875 0.1160 Uiso
C24F C 0.7577(2) 0.3500(2) 1.5374(6) 0.0827 Uani
H17F H 0.7260 0.3655 1.4761 0.1240 Uiso
H18F H 0.7516 0.3210 1.6086 0.1240 Uiso
H19F H 0.7777 0.3842 1.5884 0.1240 Uiso
Mn1D Mn 1.24735(2) 0.56587(3) 1.05933(6) 0.0358 Uani
Mn1E Mn 0.75265(2) 0.56587(3) 1.44067(6) 0.0358 Uani
Mn1F Mn 0.74735(2) 0.06587(3) 1.05933(6) 0.0358 Uani
Mn1G Mn 1.25265(2) 0.06587(3) 1.44067(6) 0.0358 Uani
Mn2A Mn 1.2500 0.2500 1.5000 0.0470 Uani
O2D O 0.77211(11) 0.51745(14) 0.8568(4) 0.0564 Uani
O2E O 1.22789(11) 0.51745(14) 1.6432(4) 0.0564 Uani
O4F O 1.30397(10) 0.41455(14) 1.7666(3) 0.0485 Uani
O4G O 0.69603(10) 0.41455(14) 0.7334(3) 0.0485 Uani
O5F O 1.30002(11) 0.34220(13) 1.5960(3) 0.0479 Uani
O5G O 0.69998(11) 0.34220(13) 0.9040(3) 0.0479 Uani
O6F O 0.68780(11) 0.21959(14) 1.0682(3) 0.0508 Uani
loop_
_atom_site_aniso_label
_atom_site_aniso_U_11
_atom_site_aniso_U_22
_atom_site_aniso_U_33
_atom_site_aniso_U_23
_atom_site_aniso_U_13
_atom_site_aniso_U_12
Mn1 0.0273(4) 0.0407(4) 0.0364(3) -0.0010(3) 0.0042(3) -0.0011(3)
Mn2 0.0431(6) 0.0631(7) 0.0375(5) -0.0111(5) 0.0158(4) -0.0233(5)
O1 0.0288(17) 0.0428(18) 0.069(2) -0.0043(15) 0.0167(14) 0.0051(14)
O2 0.032(2) 0.052(2) 0.081(2) 0.0139(18) 0.0092(16) -0.0071(15)
O3 0.044(2) 0.089(3) 0.071(3) -0.026(2) 0.0099(17) 0.0058(19)
O4 0.0389(19) 0.0527(19) 0.0492(18) 0.0007(15) 0.0046(14) 0.0135(15)
O5 0.0369(18) 0.0572(19) 0.0454(18) 0.0022(15) 0.0046(15) 0.0086(14)
O6 0.0340(18) 0.0526(19) 0.069(2) 0.0052(16) 0.0196(15) -0.0041(15)
O7 0.054(2) 0.113(3) 0.0427(19) 0.004(2) -0.0101(17) -0.018(2)
O8 0.0281(18) 0.0478(19) 0.090(2) -0.0136(17) -0.0122(16) 0.0130(14)
O9 0.0234(17) 0.052(2) 0.102(3) 0.0239(18) 0.0023(16) -0.0066(15)
O10 0.063(2) 0.079(2) 0.0476(19) -0.0232(18) 0.0148(17) -0.0094(19)
N1 0.071(3) 0.058(3) 0.039(2) -0.007(2) 0.013(2) -0.007(2)
C1 0.021(2) 0.038(2) 0.037(2) 0.0044(19) 0.0042(17) 0.0018(18)
C2 0.032(2) 0.044(3) 0.029(2) -0.0049(19) 0.0065(18) -0.007(2)
C3 0.029(3) 0.041(3) 0.042(2) 0.001(2) -0.0002(19) -0.0043(19)
C4 0.026(2) 0.047(3) 0.063(3) 0.005(2) 0.007(2) -0.002(2)
C5 0.034(3) 0.045(3) 0.048(3) 0.009(2) 0.012(2) 0.011(2)
C6 0.029(2) 0.040(2) 0.039(2) -0.0045(19) 0.0042(18) -0.0033(18)
C7 0.024(2) 0.056(3) 0.052(3) 0.005(2) 0.004(2) 0.002(2)
C8 0.035(3) 0.038(2) 0.048(3) -0.008(2) 0.008(2) -0.006(2)
C9 0.037(3) 0.048(3) 0.044(3) 0.007(2) 0.001(2) -0.008(2)
C10 0.030(3) 0.043(3) 0.052(3) -0.003(2) -0.003(2) 0.007(2)
C11 0.030(3) 0.042(3) 0.044(2) 0.001(2) 0.0043(19) -0.0078(19)
C12 0.040(3) 0.048(3) 0.043(2) 0.001(2) 0.009(2) -0.007(2)
C13 0.030(3) 0.044(3) 0.056(3) 0.007(2) 0.006(2) -0.001(2)
C14 0.041(3) 0.056(3) 0.043(3) 0.001(2) 0.004(2) 0.014(2)
C15 0.033(3) 0.044(3) 0.043(3) 0.004(2) 0.001(2) 0.014(2)
C16 0.047(3) 0.066(3) 0.052(3) 0.008(3) 0.020(2) -0.011(2)
C17 0.056(4) 0.064(3) 0.067(3) -0.016(3) -0.009(3) 0.033(3)
C18 0.061(4) 0.056(3) 0.053(3) -0.002(3) 0.019(3) -0.011(3)
C19 0.088(5) 0.078(4) 0.056(3) -0.004(3) 0.005(3) 0.006(3)
C20 0.030(2) 0.042(3) 0.046(2) 0.004(2) 0.0067(19) 0.0085(19)
C21 0.049(3) 0.079(4) 0.073(4) -0.024(3) -0.019(3) 0.032(3)
C22 0.031(3) 0.046(3) 0.069(3) 0.003(2) 0.004(2) 0.010(2)
C23 0.037(3) 0.055(3) 0.058(3) -0.002(2) 0.007(2) 0.017(2)
C24 0.122(6) 0.072(4) 0.066(4) -0.013(3) 0.046(4) -0.005(3)
Mn1A 0.0273 0.0407 0.0364 0.001 0.0042 0.0011
O1A 0.0288 0.0428 0.069 0.0043 0.0167 -0.0051
O2A 0.032 0.052 0.081 -0.0139 0.0092 0.0071
O3A 0.044 0.089 0.071 0.026 0.0099 -0.0058
O4A 0.0389 0.0527 0.0492 -0.0007 0.0046 -0.0135
O5A 0.0369 0.0572 0.0454 -0.0022 0.0046 -0.0086
O6A 0.034 0.0526 0.069 -0.0052 0.0196 0.0041
O7A 0.054 0.113 0.0427 -0.004 -0.0101 0.018
O8A 0.0281 0.0478 0.09 0.0136 -0.0122 -0.013
O9A 0.0234 0.052 0.102 -0.0239 0.0023 0.0066
C1A 0.021 0.038 0.037 -0.0044 0.0042 -0.0018
C2A 0.032 0.044 0.029 0.0049 0.0065 0.007
C3A 0.029 0.041 0.042 -0.001 -0.0002 0.0043
C4A 0.026 0.047 0.063 -0.005 0.007 0.002
C5A 0.034 0.045 0.048 -0.009 0.012 -0.011
C6A 0.029 0.04 0.039 0.0045 0.0042 0.0033
C7A 0.024 0.056 0.052 -0.005 0.004 -0.002
C8A 0.035 0.038 0.048 0.008 0.008 0.006
C9A 0.037 0.048 0.044 -0.007 0.001 0.008
C10A 0.03 0.043 0.052 0.003 -0.003 -0.007
C11A 0.03 0.042 0.044 -0.001 0.0043 0.0078
C12A 0.04 0.048 0.043 -0.001 0.009 0.007
C13A 0.03 0.044 0.056 -0.007 0.006 0.001
C14A 0.041 0.056 0.043 -0.001 0.004 -0.014
C15A 0.033 0.044 0.043 -0.004 0.001 -0.014
C16A 0.047 0.066 0.052 -0.008 0.02 0.011
C17A 0.056 0.064 0.067 0.016 -0.009 -0.033
C20A 0.03 0.042 0.046 -0.004 0.0067 -0.0085
C21A 0.049 0.079 0.073 0.024 -0.019 -0.032
C22A 0.031 0.046 0.069 -0.003 0.004 -0.01
C23A 0.037 0.055 0.058 0.002 0.007 -0.017
O10F 0.063 0.079 0.0476 -0.0232 0.0148 -0.0094
N1F 0.071 0.058 0.039 -0.007 0.013 -0.007
C18F 0.061 0.056 0.053 -0.002 0.019 -0.011
C19F 0.088 0.078 0.056 -0.004 0.005 0.006
C24F 0.122 0.072 0.066 -0.013 0.046 -0.005
Mn1D 0.0273 0.0407 0.0364 -0.001 0.0042 -0.0011
Mn1E 0.0273 0.0407 0.0364 0.001 0.0042 0.0011
Mn1F 0.0273 0.0407 0.0364 -0.001 0.0042 -0.0011
Mn1G 0.0273 0.0407 0.0364 0.001 0.0042 0.0011
Mn2A 0.0431 0.0631 0.0375 0.0111 0.0158 0.0233
O2D 0.032 0.052 0.081 0.0139 0.0092 -0.0071
O2E 0.032 0.052 0.081 -0.0139 0.0092 0.0071
O4F 0.0389 0.0527 0.0492 0.0007 0.0046 0.0135
O4G 0.0389 0.0527 0.0492 -0.0007 0.0046 -0.0135
O5F 0.0369 0.0572 0.0454 0.0022 0.0046 0.0086
O5G 0.0369 0.0572 0.0454 -0.0022 0.0046 -0.0086
O6F 0.034 0.0526 0.069 0.0052 0.0196 -0.0041
loop_
_geom_bond_atom_site_label_1
_geom_bond_atom_site_label_2
_geom_bond_site_symmetry_1
_geom_bond_site_symmetry_2
Mn1 O1 1_555 1_555
Mn2 O6 1_555 1_555
O1 C2 1_555 1_555
O2 C8 1_555 1_555
O3 Mn1 1_555 1_555
H1 O3 1_555 1_555
O4 C5 1_555 1_555
O5 C5 1_555 1_555
O6 C2 1_555 1_555
O7 C8 1_555 1_555
O8 C10 1_555 1_555
O9 C4 1_555 1_555
O10 Mn2 1_555 1_555
N1 C18 1_555 1_555
C1 C2 1_555 1_555
C3 C1 1_555 1_555
H2 C3 1_555 1_555
C4 C9 1_555 1_555
C5 C15 1_555 1_555
C6 C8 1_555 1_555
C7 H3 1_555 1_555
C9 H4 1_555 1_555
C10 C3 1_555 1_555
C11 C6 1_555 1_555
H5 C11 1_555 1_555
C12 C6 1_555 1_555
H6 C12 1_555 1_555
C13 O9 1_555 1_555
C14 H7 1_555 1_555
C15 C14 1_555 1_555
C16 C4 1_555 1_555
H8 C16 1_555 1_555
C17 C15 1_555 1_555
H9 C17 1_555 1_555
C18 O10 1_555 1_555
H10 C18 1_555 1_555
C19 N1 1_555 1_555
H11 C19 1_555 1_555
H12 C19 1_555 1_555
H13 C19 1_555 1_555
C20 C1 1_555 1_555
H14 C20 1_555 1_555
C21 C17 1_555 1_555
H15 C21 1_555 1_555
C22 O8 1_555 1_555
C23 C14 1_555 1_555
H16 C23 1_555 1_555
C24 N1 1_555 1_555
H17 C24 1_555 1_555
H18 C24 1_555 1_555
H19 C24 1_555 1_555
H20 O3 1_555 1_555
Mn1A O7 1_555 1_555
O1A Mn1A 1_555 1_555
O2A C8A 1_555 1_555
O3A Mn1A 1_555 1_555
H1A O3A 1_555 1_555
O4A C5A 1_555 1_555
O5A Mn2 1_555 1_555
O6A C2A 1_555 1_555
O7A Mn1 1_555 1_555
O8A C10A 1_555 1_555
O9A C4A 1_555 1_555
C1A C2A 1_555 1_555
C2A O1A 1_555 1_555
C3A C1A 1_555 1_555
H2A C3A 1_555 1_555
C4A C9A 1_555 1_555
C5A O5A 1_555 1_555
C6A C8A 1_555 1_555
C7A H3A 1_555 1_555
C8A O7A 1_555 1_555
C9A H4A 1_555 1_555
C10A C3A 1_555 1_555
C11A C6A 1_555 1_555
H5A C11A 1_555 1_555
C12A C6A 1_555 1_555
H6A C12A 1_555 1_555
C13A O9A 1_555 1_555
C14A H7A 1_555 1_555
C15A C5A 1_555 1_555
C16A C4A 1_555 1_555
H8A C16A 1_555 1_555
C17A C15A 1_555 1_555
H9A C17A 1_555 1_555
C20A C1A 1_555 1_555
H14A C20A 1_555 1_555
C21A C17A 1_555 1_555
H15A C21A 1_555 1_555
C22A O8A 1_555 1_555
C23A C14A 1_555 1_555
H16A C23A 1_555 1_555
H20A O3A 1_555 1_555
O10F Mn2 1_555 1_555
N1F C18F 1_555 1_555
C18F O10F 1_555 1_555
H10F C18F 1_555 1_555
C19F N1F 1_555 1_555
H11F C19F 1_555 1_555
H12F C19F 1_555 1_555
H13F C19F 1_555 1_555
C24F N1F 1_555 1_555
H17F C24F 1_555 1_555
H18F C24F 1_555 1_555
H19F C24F 1_555 1_555
Mn1D O2 1_555 1_555
Mn1E O2A 1_555 1_555
Mn1F O4A 1_555 1_555
Mn1G O4 1_555 1_555
Mn2A O5 1_555 1_555
O2D Mn1 1_555 1_555
O2E Mn1A 1_555 1_555
O4F Mn1A 1_555 1_555
O4G Mn1 1_555 1_555
O5F Mn1A 1_555 1_555
O5G Mn1 1_555 1_555
O6F Mn2 1_555 1_555
Mn2 O5G 1_555 1_555
O5 Mn1G 1_555 1_555
C7 C10 1_555 1_555
C7 C13 1_555 1_555
C9 C11 1_555 1_555
C12 C16 1_555 1_555
C13 C20 1_555 1_555
C21 C22 1_555 1_555
C22 C23 1_555 1_555
O5A Mn1F 1_555 1_555
O6A Mn2A 1_555 1_555
C7A C10A 1_555 1_555
C7A C13A 1_555 1_555
C9A C11A 1_555 1_555
C12A C16A 1_555 1_555
C13A C20A 1_555 1_555
C14A C15A 1_555 1_555
C21A C22A 1_555 1_555
C22A C23A 1_555 1_555
Mn2A O5F 1_555 1_555

#END
