
#######################################################################
#
#                 Cambridge Crystallographic Data Centre
#                                CCDC 
#
#######################################################################
#
# If this CIF has been generated from an entry in the Cambridge 
# Structural Database, then it will include bibliographic, chemical, 
# crystal, experimental, refinement or atomic coordinate data resulting 
# from the CCDC's data processing and validation procedures.
#
#######################################################################

data_YINCEF
_chemical_formula_moiety         '(C52 H44 Mn3 N2 O20)n'
_symmetry_cell_setting           monoclinic
_symmetry_space_group_name_H-M   'C 2/c'
_symmetry_Int_Tables_number      15
_space_group_name_Hall           '-C 2yc'
loop_
_symmetry_equiv_pos_site_id
_symmetry_equiv_pos_as_xyz
1 x,y,z
2 -x,y,1/2-z
3 1/2+x,1/2+y,z
4 1/2-x,1/2+y,1/2-z
5 -x,-y,-z
6 x,-y,1/2+z
7 1/2-x,1/2-y,-z
8 1/2+x,1/2-y,1/2+z
_cell_length_a                   27.752(4)
_cell_length_b                   21.889(3)
_cell_length_c                   9.5237(13)
_cell_angle_alpha                90
_cell_angle_beta                 107.685(3)
_cell_angle_gamma                90
_cell_volume                     5511.89
loop_
_atom_site_label
_atom_site_type_symbol
_atom_site_fract_x
_atom_site_fract_y
_atom_site_fract_z
_atom_site_U_iso_or_equiv
_atom_site_thermal_displace_type
Mn1 Mn 0.7500 0.2500 0.5000 0.0408 Uani
Mn2 Mn 0.75478(2) 0.43248(3) 0.43578(8) 0.0395 Uani
O1 O 0.81674(11) 0.38306(15) 0.4117(4) 0.0488 Uani
O2 O 0.98343(11) 0.20818(15) 0.4357(4) 0.0645 Uani
O3 O 0.99153(11) 0.42783(15) 0.4165(5) 0.0715 Uani
O4 O 1.22601(11) 0.48796(14) 0.6553(4) 0.0564 Uani
O5 O 1.19430(12) 0.08792(16) 0.7439(4) 0.0596 Uani
O6 O 1.20253(12) 0.16207(15) 0.9053(4) 0.0509 Uani
O7 O 0.69059(17) 0.4826(2) 0.5031(5) 0.0990 Uani
H1 H 0.7032 0.5074 0.5685 0.1490 Uiso
O8 O 0.71644(12) 0.21356(16) 0.2848(4) 0.0572 Uani
O9 O 0.81355(11) 0.28200(14) 0.4396(4) 0.0475 Uani
O10 O 1.21344(14) 0.44186(19) 0.8453(4) 0.0812 Uani
N1 N 0.70607(18) 0.17972(19) 0.0517(5) 0.0576 Uani
C1 C 1.04263(16) 0.4323(2) 0.4909(6) 0.0501 Uani
C2 C 0.91677(16) 0.3779(2) 0.4212(5) 0.0448 Uani
H2 H 0.9013 0.4158 0.4158 0.0540 Uiso
C3 C 0.88968(15) 0.3255(2) 0.4253(5) 0.0346 Uani
C4 C 1.03254(17) 0.1968(2) 0.5241(6) 0.0474 Uani
C5 C 0.91257(16) 0.2693(2) 0.4338(5) 0.0413 Uani
H3 H 0.8948 0.2339 0.4393 0.0490 Uiso
C6 C 0.83532(16) 0.3307(2) 0.4262(5) 0.0358 Uani
C7 C 1.17783(17) 0.1359(2) 0.7867(6) 0.0458 Uani
C8 C 0.96681(16) 0.3743(2) 0.4251(6) 0.0463 Uani
C9 C 1.12771(16) 0.1591(2) 0.6928(6) 0.0419 Uani
C10 C 1.07242(16) 0.4615(2) 0.4187(6) 0.0490 Uani
H4 H 1.0586 0.4751 0.3223 0.0590 Uiso
C11 C 1.14351(17) 0.4507(2) 0.6363(5) 0.0390 Uani
C12 C 1.19823(18) 0.4618(2) 0.7168(6) 0.0421 Uani
C13 C 1.10366(17) 0.2076(2) 0.7378(5) 0.0453 Uani
H5 H 1.1200 0.2282 0.8248 0.0540 Uiso
C14 C 0.96246(17) 0.2661(2) 0.4340(5) 0.0451 Uani
C15 C 1.12268(16) 0.4700(2) 0.4917(5) 0.0419 Uani
H6 H 1.1432 0.4890 0.4437 0.0500 Uiso
C16 C 1.10255(18) 0.1300(2) 0.5616(6) 0.0541 Uani
H7 H 1.1177 0.0968 0.5310 0.0650 Uiso
C17 C 0.98965(17) 0.3177(2) 0.4300(6) 0.0541 Uani
H8 H 1.0231 0.3149 0.4306 0.0650 Uiso
C18 C 1.06263(19) 0.4129(2) 0.6340(6) 0.0548 Uani
H9 H 1.0419 0.3942 0.6818 0.0660 Uiso
C19 C 1.05579(17) 0.2259(2) 0.6554(6) 0.0516 Uani
H10 H 1.0395 0.2574 0.6881 0.0620 Uiso
C20 C 0.73305(19) 0.1886(2) 0.1920(6) 0.0467 Uani
C21 C 1.11259(18) 0.4208(2) 0.7059(6) 0.0476 Uani
H11 H 1.1262 0.4064 0.8016 0.0570 Uiso
C22 C 0.7851(2) 0.1642(3) 0.2166(7) 0.0719 Uani
H12 H 0.7920 0.1311 0.2877 0.0860 Uiso
H13 H 0.8101 0.1961 0.2524 0.0860 Uiso
C23 C 0.7859(3) 0.1414(3) 0.0673(8) 0.0934 Uani
H14 H 0.8098 0.1648 0.0331 0.1120 Uiso
H15 H 0.7957 0.0987 0.0730 0.1120 Uiso
C24 C 0.7329(3) 0.1495(3) -0.0360(7) 0.0810 Uani
H16 H 0.7331 0.1743 -0.1203 0.0970 Uiso
H17 H 0.7177 0.1102 -0.0708 0.0970 Uiso
C25 C 0.6533(2) 0.1971(3) -0.0092(6) 0.0759 Uani
H18 H 0.6421 0.2164 0.0659 0.1140 Uiso
H19 H 0.6333 0.1613 -0.0440 0.1140 Uiso
H20 H 0.6497 0.2249 -0.0895 0.1140 Uiso
C26 C 1.05559(18) 0.1492(2) 0.4757(6) 0.0605 Uani
H21 H 1.0397 0.1303 0.3861 0.0730 Uiso
H22 H 0.6586(13) 0.474(3) 0.511(7) 0.1700 Uiso
Mn2A Mn 1.24522(2) 0.43248(3) 1.06422(8) 0.0395 Uani
O1A O 1.18326(11) 0.38306(15) 1.0883(4) 0.0488 Uani
O2A O 1.01657(11) 0.20818(15) 1.0643(4) 0.0645 Uani
O3A O 1.00847(11) 0.42783(15) 1.0835(5) 0.0715 Uani
O4A O 0.77399(11) 0.48796(14) 0.8447(4) 0.0564 Uani
O5A O 0.80570(12) 0.08792(16) 0.7561(4) 0.0596 Uani
O6A O 0.79747(12) 0.16207(15) 0.5947(4) 0.0509 Uani
O7A O 1.30941(17) 0.4826(2) 0.9969(5) 0.0990 Uani
H1A H 1.2968 0.5074 0.9315 0.1490 Uiso
O9A O 1.18645(11) 0.28200(14) 1.0604(4) 0.0475 Uani
O10A O 0.78656(14) 0.44186(19) 0.6547(4) 0.0812 Uani
C1A C 0.95737(16) 0.4323(2) 1.0091(6) 0.0501 Uani
C2A C 1.08323(16) 0.3779(2) 1.0788(5) 0.0448 Uani
H2A H 1.0987 0.4158 1.0842 0.0540 Uiso
C3A C 1.11032(15) 0.3255(2) 1.0747(5) 0.0346 Uani
C4A C 0.96746(17) 0.1968(2) 0.9759(6) 0.0474 Uani
C5A C 1.08743(16) 0.2693(2) 1.0662(5) 0.0413 Uani
H3A H 1.1052 0.2339 1.0607 0.0490 Uiso
C6A C 1.16468(16) 0.3307(2) 1.0738(5) 0.0358 Uani
C7A C 0.82217(17) 0.1359(2) 0.7133(6) 0.0458 Uani
C8A C 1.03319(16) 0.3743(2) 1.0749(6) 0.0463 Uani
C9A C 0.87229(16) 0.1591(2) 0.8072(6) 0.0419 Uani
C10A C 0.92758(16) 0.4615(2) 1.0813(6) 0.0490 Uani
H4A H 0.9414 0.4751 1.1777 0.0590 Uiso
C11A C 0.85649(17) 0.4507(2) 0.8637(5) 0.0390 Uani
C12A C 0.80177(18) 0.4618(2) 0.7832(6) 0.0421 Uani
C13A C 0.89634(17) 0.2076(2) 0.7622(5) 0.0453 Uani
H5A H 0.8800 0.2282 0.6752 0.0540 Uiso
C14A C 1.03754(17) 0.2661(2) 1.0660(5) 0.0451 Uani
C15A C 0.87732(16) 0.4700(2) 1.0083(5) 0.0419 Uani
H6A H 0.8568 0.4890 1.0563 0.0500 Uiso
C16A C 0.89745(18) 0.1300(2) 0.9384(6) 0.0541 Uani
H7A H 0.8823 0.0968 0.9690 0.0650 Uiso
C17A C 1.01035(17) 0.3177(2) 1.0700(6) 0.0541 Uani
H8A H 0.9769 0.3149 1.0694 0.0650 Uiso
C18A C 0.93737(19) 0.4129(2) 0.8660(6) 0.0548 Uani
H9A H 0.9581 0.3942 0.8182 0.0660 Uiso
C19A C 0.94421(17) 0.2259(2) 0.8446(6) 0.0516 Uani
H10A H 0.9605 0.2574 0.8119 0.0620 Uiso
C21A C 0.88741(18) 0.4208(2) 0.7941(6) 0.0476 Uani
H11A H 0.8738 0.4064 0.6984 0.0570 Uiso
C26A C 0.94441(18) 0.1492(2) 1.0243(6) 0.0605 Uani
H21A H 0.9603 0.1303 1.1139 0.0730 Uiso
H22A H 1.3414(13) 0.474(3) 0.989(7) 0.1700 Uiso
O8F O 0.78356(12) 0.28644(16) 0.7152(4) 0.0572 Uani
N1F N 0.79393(18) 0.32028(19) 0.9483(5) 0.0576 Uani
C20F C 0.76695(19) 0.3114(2) 0.8080(6) 0.0467 Uani
C22F C 0.7149(2) 0.3358(3) 0.7834(7) 0.0719 Uani
H12F H 0.7080 0.3689 0.7123 0.0860 Uiso
H13F H 0.6899 0.3039 0.7476 0.0860 Uiso
C23F C 0.7141(3) 0.3586(3) 0.9327(8) 0.0934 Uani
H14F H 0.6902 0.3352 0.9669 0.1120 Uiso
H15F H 0.7043 0.4013 0.9270 0.1120 Uiso
C24F C 0.7671(3) 0.3505(3) 1.0360(7) 0.0810 Uani
H16F H 0.7669 0.3257 1.1203 0.0970 Uiso
H17F H 0.7823 0.3898 1.0708 0.0970 Uiso
C25F C 0.8467(2) 0.3029(3) 1.0092(6) 0.0759 Uani
H18F H 0.8579 0.2836 0.9341 0.1140 Uiso
H19F H 0.8667 0.3387 1.0440 0.1140 Uiso
H20F H 0.8503 0.2751 1.0895 0.1140 Uiso
Mn1A Mn 1.2500 0.2500 1.0000 0.0408 Uani
Mn2D Mn 1.24522(2) 0.56752(3) 0.56422(8) 0.0395 Uani
Mn2E Mn 0.75478(2) 0.56752(3) 0.93578(8) 0.0395 Uani
Mn2F Mn 0.74522(2) 0.06752(3) 0.56422(8) 0.0395 Uani
Mn2G Mn 1.25478(2) 0.06752(3) 0.93578(8) 0.0395 Uani
O4D O 0.77399(11) 0.51204(14) 0.3447(4) 0.0564 Uani
O4E O 1.22601(11) 0.51204(14) 1.1553(4) 0.0564 Uani
O5F O 1.30570(12) 0.41208(16) 1.2561(4) 0.0596 Uani
O5G O 0.69430(12) 0.41208(16) 0.2439(4) 0.0596 Uani
O6G O 0.70253(12) 0.33793(15) 0.4053(4) 0.0509 Uani
O9F O 0.68645(11) 0.21800(14) 0.5604(4) 0.0475 Uani
loop_
_atom_site_aniso_label
_atom_site_aniso_U_11
_atom_site_aniso_U_22
_atom_site_aniso_U_33
_atom_site_aniso_U_23
_atom_site_aniso_U_13
_atom_site_aniso_U_12
Mn1 0.0297(5) 0.0557(7) 0.0379(6) -0.0067(5) 0.0117(5) -0.0138(5)
Mn2 0.0322(4) 0.0444(5) 0.0371(5) 0.0024(4) 0.0035(3) -0.0053(3)
O1 0.0333(18) 0.045(2) 0.071(3) -0.0021(18) 0.0200(19) -0.0024(16)
O2 0.0292(19) 0.054(2) 0.092(3) -0.010(2) -0.009(2) 0.0134(17)
O3 0.0229(17) 0.056(2) 0.127(4) 0.032(2) 0.010(2) -0.0120(16)
O4 0.0330(19) 0.046(2) 0.086(3) 0.0163(19) 0.012(2) -0.0084(16)
O5 0.048(2) 0.063(3) 0.062(3) 0.0029(19) 0.008(2) 0.0256(19)
O6 0.0353(18) 0.059(2) 0.053(2) 0.0066(18) 0.0053(19) 0.0068(17)
O7 0.084(3) 0.091(4) 0.123(4) -0.028(3) 0.033(3) -0.003(3)
O8 0.053(2) 0.075(3) 0.043(2) -0.0196(19) 0.0137(19) -0.0030(19)
O9 0.0334(18) 0.049(2) 0.064(2) 0.0024(17) 0.0205(18) -0.0081(16)
O10 0.069(3) 0.124(4) 0.039(2) 0.010(2) -0.001(2) -0.010(2)
N1 0.073(3) 0.057(3) 0.043(3) -0.009(2) 0.018(3) -0.011(3)
C1 0.026(3) 0.045(3) 0.078(4) 0.008(3) 0.014(3) -0.006(2)
C2 0.029(3) 0.035(3) 0.068(4) 0.009(2) 0.011(3) 0.002(2)
C3 0.026(2) 0.037(3) 0.037(3) 0.001(2) 0.004(2) -0.003(2)
C4 0.031(3) 0.041(3) 0.065(4) 0.002(3) 0.007(3) 0.010(2)
C5 0.035(3) 0.041(3) 0.044(3) 0.006(2) 0.006(2) -0.003(2)
C6 0.030(2) 0.046(3) 0.030(3) 0.000(2) 0.007(2) -0.007(2)
C7 0.032(3) 0.051(4) 0.053(4) 0.006(3) 0.011(3) -0.001(2)
C8 0.025(2) 0.046(3) 0.066(4) 0.013(3) 0.011(3) -0.004(2)
C9 0.030(3) 0.046(3) 0.049(3) 0.010(2) 0.011(3) 0.008(2)
C10 0.028(3) 0.054(3) 0.062(4) 0.006(3) 0.009(3) -0.009(2)
C11 0.040(3) 0.035(3) 0.040(3) -0.001(2) 0.009(2) -0.004(2)
C12 0.045(3) 0.031(3) 0.047(3) -0.007(2) 0.009(3) -0.001(2)
C13 0.035(3) 0.053(3) 0.045(3) -0.002(2) 0.008(3) 0.010(2)
C14 0.028(3) 0.043(3) 0.057(4) 0.000(3) 0.002(2) 0.004(2)
C15 0.035(3) 0.038(3) 0.053(3) 0.008(2) 0.014(3) -0.007(2)
C16 0.043(3) 0.056(3) 0.057(4) -0.007(3) 0.006(3) 0.019(3)
C17 0.024(3) 0.068(4) 0.069(4) 0.009(3) 0.012(3) -0.003(3)
C18 0.044(3) 0.055(3) 0.073(4) 0.008(3) 0.029(3) -0.009(3)
C19 0.035(3) 0.053(3) 0.063(4) -0.006(3) 0.009(3) 0.012(2)
C20 0.053(3) 0.040(3) 0.047(4) -0.002(3) 0.015(3) -0.014(3)
C21 0.051(3) 0.049(3) 0.047(3) 0.000(2) 0.021(3) -0.010(3)
C22 0.071(4) 0.080(5) 0.076(5) -0.008(3) 0.039(4) -0.005(3)
C23 0.114(6) 0.088(5) 0.100(6) -0.034(4) 0.065(5) -0.028(4)
C24 0.114(6) 0.089(5) 0.055(5) -0.021(4) 0.048(5) -0.021(4)
C25 0.081(4) 0.072(4) 0.059(4) 0.003(3) -0.002(4) -0.009(4)
C26 0.040(3) 0.071(4) 0.059(4) -0.007(3) -0.002(3) 0.012(3)
Mn2A 0.0322 0.0444 0.0371 -0.0024 0.0035 0.0053
O1A 0.0333 0.045 0.071 0.0021 0.02 0.0024
O2A 0.0292 0.054 0.092 0.01 -0.009 -0.0134
O3A 0.0229 0.056 0.127 -0.032 0.01 0.012
O4A 0.033 0.046 0.086 -0.0163 0.012 0.0084
O5A 0.048 0.063 0.062 -0.0029 0.008 -0.0256
O6A 0.0353 0.059 0.053 -0.0066 0.0053 -0.0068
O7A 0.084 0.091 0.123 0.028 0.033 0.003
O9A 0.0334 0.049 0.064 -0.0024 0.0205 0.0081
O10A 0.069 0.124 0.039 -0.01 -0.001 0.01
C1A 0.026 0.045 0.078 -0.008 0.014 0.006
C2A 0.029 0.035 0.068 -0.009 0.011 -0.002
C3A 0.026 0.037 0.037 -0.001 0.004 0.003
C4A 0.031 0.041 0.065 -0.002 0.007 -0.01
C5A 0.035 0.041 0.044 -0.006 0.006 0.003
C6A 0.03 0.046 0.03 0 0.007 0.007
C7A 0.032 0.051 0.053 -0.006 0.011 0.001
C8A 0.025 0.046 0.066 -0.013 0.011 0.004
C9A 0.03 0.046 0.049 -0.01 0.011 -0.008
C10A 0.028 0.054 0.062 -0.006 0.009 0.009
C11A 0.04 0.035 0.04 0.001 0.009 0.004
C12A 0.045 0.031 0.047 0.007 0.009 0.001
C13A 0.035 0.053 0.045 0.002 0.008 -0.01
C14A 0.028 0.043 0.057 0 0.002 -0.004
C15A 0.035 0.038 0.053 -0.008 0.014 0.007
C16A 0.043 0.056 0.057 0.007 0.006 -0.019
C17A 0.024 0.068 0.069 -0.009 0.012 0.003
C18A 0.044 0.055 0.073 -0.008 0.029 0.009
C19A 0.035 0.053 0.063 0.006 0.009 -0.012
C21A 0.051 0.049 0.047 0 0.021 0.01
C26A 0.04 0.071 0.059 0.007 -0.002 -0.012
O8F 0.053 0.075 0.043 -0.0196 0.0137 -0.003
N1F 0.073 0.057 0.043 -0.009 0.018 -0.011
C20F 0.053 0.04 0.047 -0.002 0.015 -0.014
C22F 0.071 0.08 0.076 -0.008 0.039 -0.005
C23F 0.114 0.088 0.1 -0.034 0.065 -0.028
C24F 0.114 0.089 0.055 -0.021 0.048 -0.021
C25F 0.081 0.072 0.059 0.003 -0.002 -0.009
Mn1A 0.0297 0.0557 0.0379 0.0067 0.0117 0.0138
Mn2D 0.0322 0.0444 0.0371 0.0024 0.0035 -0.0053
Mn2E 0.0322 0.0444 0.0371 -0.0024 0.0035 0.0053
Mn2F 0.0322 0.0444 0.0371 0.0024 0.0035 -0.0053
Mn2G 0.0322 0.0444 0.0371 -0.0024 0.0035 0.0053
O4D 0.033 0.046 0.086 0.0163 0.012 -0.0084
O4E 0.033 0.046 0.086 -0.0163 0.012 0.0084
O5F 0.048 0.063 0.062 0.0029 0.008 0.0256
O5G 0.048 0.063 0.062 -0.0029 0.008 -0.0256
O6G 0.0353 0.059 0.053 -0.0066 0.0053 -0.0068
O9F 0.0334 0.049 0.064 0.0024 0.0205 -0.0081
loop_
_geom_bond_atom_site_label_1
_geom_bond_atom_site_label_2
_geom_bond_site_symmetry_1
_geom_bond_site_symmetry_2
Mn1 O8 1_555 1_555
Mn2 O1 1_555 1_555
O1 C6 1_555 1_555
O2 C4 1_555 1_555
O3 C1 1_555 1_555
O4 C12 1_555 1_555
O5 C7 1_555 1_555
O6 C7 1_555 1_555
O7 Mn2 1_555 1_555
H1 O7 1_555 1_555
O8 C20 1_555 1_555
O9 Mn1 1_555 1_555
O10 C12 1_555 1_555
N1 C20 1_555 1_555
C1 C10 1_555 1_555
C2 H2 1_555 1_555
C3 C2 1_555 1_555
C4 C19 1_555 1_555
C5 C3 1_555 1_555
H3 C5 1_555 1_555
C6 O9 1_555 1_555
C7 C9 1_555 1_555
C8 O3 1_555 1_555
C9 C13 1_555 1_555
C10 H4 1_555 1_555
C11 C12 1_555 1_555
C13 H5 1_555 1_555
C14 O2 1_555 1_555
C15 C10 1_555 1_555
H6 C15 1_555 1_555
C16 C9 1_555 1_555
H7 C16 1_555 1_555
C17 C8 1_555 1_555
H8 C17 1_555 1_555
C18 C1 1_555 1_555
H9 C18 1_555 1_555
C19 C13 1_555 1_555
H10 C19 1_555 1_555
C20 C22 1_555 1_555
C21 C11 1_555 1_555
H11 C21 1_555 1_555
C22 H12 1_555 1_555
H13 C22 1_555 1_555
C23 C22 1_555 1_555
H14 C23 1_555 1_555
H15 C23 1_555 1_555
C24 N1 1_555 1_555
H16 C24 1_555 1_555
H17 C24 1_555 1_555
C25 N1 1_555 1_555
H18 C25 1_555 1_555
H19 C25 1_555 1_555
H20 C25 1_555 1_555
C26 C4 1_555 1_555
H21 C26 1_555 1_555
H22 O7 1_555 1_555
Mn2A O10 1_555 1_555
O1A Mn2A 1_555 1_555
O2A C4A 1_555 1_555
O3A C1A 1_555 1_555
O4A C12A 1_555 1_555
O5A C7A 1_555 1_555
O6A Mn1 1_555 1_555
O7A Mn2A 1_555 1_555
H1A O7A 1_555 1_555
O9A C6A 1_555 1_555
O10A Mn2 1_555 1_555
C1A C10A 1_555 1_555
C2A H2A 1_555 1_555
C3A C2A 1_555 1_555
C4A C19A 1_555 1_555
C5A C3A 1_555 1_555
H3A C5A 1_555 1_555
C6A O1A 1_555 1_555
C7A O6A 1_555 1_555
C8A O3A 1_555 1_555
C9A C7A 1_555 1_555
C10A H4A 1_555 1_555
C11A C12A 1_555 1_555
C12A O10A 1_555 1_555
C13A C9A 1_555 1_555
H5A C13A 1_555 1_555
C14A O2A 1_555 1_555
C15A C10A 1_555 1_555
H6A C15A 1_555 1_555
C16A C9A 1_555 1_555
H7A C16A 1_555 1_555
C17A C8A 1_555 1_555
H8A C17A 1_555 1_555
C18A C1A 1_555 1_555
H9A C18A 1_555 1_555
C19A C13A 1_555 1_555
H10A C19A 1_555 1_555
C21A C11A 1_555 1_555
H11A C21A 1_555 1_555
C26A C4A 1_555 1_555
H21A C26A 1_555 1_555
H22A O7A 1_555 1_555
O8F Mn1 1_555 1_555
N1F C20F 1_555 1_555
C20F O8F 1_555 1_555
C22F C20F 1_555 1_555
H12F C22F 1_555 1_555
H13F C22F 1_555 1_555
C23F C22F 1_555 1_555
H14F C23F 1_555 1_555
H15F C23F 1_555 1_555
C24F N1F 1_555 1_555
H16F C24F 1_555 1_555
H17F C24F 1_555 1_555
C25F N1F 1_555 1_555
H18F C25F 1_555 1_555
H19F C25F 1_555 1_555
H20F C25F 1_555 1_555
Mn1A O6 1_555 1_555
Mn2D O4 1_555 1_555
Mn2E O4A 1_555 1_555
Mn2F O5A 1_555 1_555
Mn2G O5 1_555 1_555
O4D Mn2 1_555 1_555
O4E Mn2A 1_555 1_555
O5F Mn2A 1_555 1_555
O5G Mn2 1_555 1_555
O6G Mn1 1_555 1_555
O9F Mn1 1_555 1_555
C2 C8 1_555 1_555
C3 C6 1_555 1_555
C5 C14 1_555 1_555
C11 C15 1_555 1_555
C14 C17 1_555 1_555
C16 C26 1_555 1_555
C18 C21 1_555 1_555
C23 C24 1_555 1_555
O9A Mn1A 1_555 1_555
C2A C8A 1_555 1_555
C3A C6A 1_555 1_555
C5A C14A 1_555 1_555
C11A C15A 1_555 1_555
C14A C17A 1_555 1_555
C16A C26A 1_555 1_555
C18A C21A 1_555 1_555
C23F C24F 1_555 1_555

#END
