
#######################################################################
#
#                 Cambridge Crystallographic Data Centre
#                                CCDC 
#
#######################################################################
#
# If this CIF has been generated from an entry in the Cambridge 
# Structural Database, then it will include bibliographic, chemical, 
# crystal, experimental, refinement or atomic coordinate data resulting 
# from the CCDC's data processing and validation procedures.
#
#######################################################################

data_YINCIJ
_chemical_formula_moiety         '(C50 H44 Mn3 N2 O20)n'
_symmetry_cell_setting           monoclinic
_symmetry_space_group_name_H-M   'C 2/c'
_symmetry_Int_Tables_number      15
_space_group_name_Hall           '-C 2yc'
loop_
_symmetry_equiv_pos_site_id
_symmetry_equiv_pos_as_xyz
1 x,y,z
2 -x,y,1/2-z
3 1/2+x,1/2+y,z
4 1/2-x,1/2+y,1/2-z
5 -x,-y,-z
6 x,-y,1/2+z
7 1/2-x,1/2-y,-z
8 1/2+x,1/2-y,1/2+z
_cell_length_a                   27.579
_cell_length_b                   21.701
_cell_length_c                   9.515
_cell_angle_alpha                90
_cell_angle_beta                 106.34
_cell_angle_gamma                90
_cell_volume                     5464.64
loop_
_atom_site_label
_atom_site_type_symbol
_atom_site_fract_x
_atom_site_fract_y
_atom_site_fract_z
_atom_site_U_iso_or_equiv
_atom_site_thermal_displace_type
Mn1 Mn 0.24615(4) 0.06681(5) 0.56499(11) 0.0319 Uani
O1 O 0.3093(2) 0.0148(3) 0.4997(7) 0.0751 Uani
H1 H 0.3004 -0.0224 0.4788 0.1130 Uiso
H2 H 0.3146 0.0323 0.4254 0.1130 Uiso
Mn2 Mn 0.2500 0.2500 0.5000 0.0362 Uani
O2 O 0.68386(18) 0.2843(2) 1.0472(6) 0.0461 Uani
O3 O 0.29775(18) 0.1612(2) 0.6036(5) 0.0415 Uani
O4 O 0.30531(18) 0.0864(2) 0.7623(6) 0.0485 Uani
C1 C 0.3216(3) 0.1353(4) 0.7225(8) 0.0383 Uani
C2 C 0.3699(3) 0.1605(3) 0.8162(8) 0.0368 Uani
C3 C 0.3955(3) 0.2065(4) 0.7663(8) 0.0453 Uani
H3 H 0.3805 0.2255 0.6769 0.0550 Uiso
C4 C 0.3920(3) 0.1339(4) 0.9492(9) 0.0506 Uani
H4 H 0.3750 0.1024 0.9819 0.0610 Uiso
O5 O 0.27083(18) 0.4853(2) 0.8414(7) 0.0528 Uani
O6 O 0.2869(2) 0.4387(3) 0.6539(6) 0.0697 Uani
C5 C 0.3004(3) 0.4588(3) 0.7814(8) 0.0363 Uani
C6 C 0.3539(2) 0.4491(3) 0.8641(7) 0.0328 Uani
C7 C 0.3735(3) 0.4689(3) 1.0084(7) 0.0349 Uani
H5 H 0.3522 0.4878 1.0557 0.0420 Uiso
C8 C 0.3867(3) 0.4222(3) 0.7935(8) 0.0415 Uani
H6 H 0.3745 0.4090 0.6970 0.0490 Uiso
O7 O 0.68265(17) 0.3852(2) 1.0921(6) 0.0425 Uani
O8 O 0.50632(18) 0.4300(2) 1.0844(7) 0.0605 Uani
O9 O 0.2260(2) 0.2107(3) 0.2848(6) 0.0543 Uani
O10 O 0.51476(18) 0.2090(2) 1.0689(7) 0.0561 Uani
C9 C 0.6086(3) 0.3277(3) 1.0746(7) 0.0351 Uani
C10 C 0.4553(3) 0.4340(3) 1.0110(9) 0.0450 Uani
C11 C 0.5814(2) 0.3801(3) 1.0786(8) 0.0385 Uani
H7 H 0.5966 0.4186 1.0823 0.0460 Uiso
C12 C 0.2360(4) 0.1448(5) -0.0520(10) 0.0772 Uani
H8 H 0.2648 0.1199 -0.0048 0.1160 Uiso
H9 H 0.2458 0.1753 -0.1119 0.1160 Uiso
H10 H 0.2100 0.1191 -0.1120 0.1160 Uiso
C13 C 0.5851(3) 0.2702(3) 1.0689(7) 0.0364 Uani
H11 H 0.6031 0.2342 1.0662 0.0430 Uiso
C14 C 0.6628(2) 0.3327(3) 1.0698(7) 0.0303 Uani
C15 C 0.5353(2) 0.2674(3) 1.0675(8) 0.0361 Uani
C16 C 0.5312(3) 0.3754(4) 1.0770(8) 0.0407 Uani
C17 C 0.4654(3) 0.1979(4) 0.9828(9) 0.0461 Uani
C18 C 0.4239(2) 0.4611(4) 1.0824(9) 0.0421 Uani
H12 H 0.4363 0.4739 1.1792 0.0510 Uiso
N1 N 0.2170(3) 0.1754(3) 0.0594(7) 0.0547 Uani
C19 C 0.4398(3) 0.1528(4) 1.0386(9) 0.0544 Uani
H13 H 0.4537 0.1359 1.1309 0.0650 Uiso
C20 C 0.2963(4) 0.1565(4) 0.2465(11) 0.0615 Uani
H14 H 0.3075 0.1555 0.3515 0.0920 Uiso
H15 H 0.3189 0.1817 0.2107 0.0920 Uiso
H16 H 0.2960 0.1155 0.2088 0.0920 Uiso
C21 C 0.5079(3) 0.3185(4) 1.0728(9) 0.0450 Uani
H17 H 0.4743 0.3157 1.0735 0.0540 Uiso
C22 C 0.4441(3) 0.2249(4) 0.8500(9) 0.0492 Uani
H18 H 0.4616 0.2552 0.8151 0.0590 Uiso
C23 C 0.4373(3) 0.4150(4) 0.8668(10) 0.0498 Uani
H19 H 0.4592 0.3975 0.8194 0.0600 Uiso
C24 C 0.1654(4) 0.2003(4) 0.0094(10) 0.0704 Uani
H20 H 0.1578 0.2221 0.0883 0.1050 Uiso
H21 H 0.1419 0.1671 -0.0220 0.1050 Uiso
H22 H 0.1630 0.2281 -0.0709 0.1050 Uiso
C25 C 0.2444(3) 0.1829(4) 0.1975(9) 0.0454 Uani
Mn1A Mn 0.75385(4) 0.06681(5) 0.93501(11) 0.0319 Uani
O1A O 0.6907(2) 0.0148(3) 1.0003(7) 0.0751 Uani
H1A H 0.6996 -0.0224 1.0212 0.1130 Uiso
H2A H 0.6854 0.0323 1.0746 0.1130 Uiso
O2A O 0.31614(18) 0.2843(2) 0.4528(6) 0.0461 Uani
O3A O 0.70225(18) 0.1612(2) 0.8964(5) 0.0415 Uani
O4A O 0.69469(18) 0.0864(2) 0.7377(6) 0.0485 Uani
C1A C 0.6784(3) 0.1353(4) 0.7775(8) 0.0383 Uani
C2A C 0.6301(3) 0.1605(3) 0.6838(8) 0.0368 Uani
C3A C 0.6045(3) 0.2065(4) 0.7337(8) 0.0453 Uani
H3A H 0.6195 0.2255 0.8231 0.0550 Uiso
C4A C 0.6080(3) 0.1339(4) 0.5508(9) 0.0506 Uani
H4A H 0.6250 0.1024 0.5181 0.0610 Uiso
O5A O 0.72917(18) 0.4853(2) 0.6586(7) 0.0528 Uani
O6A O 0.7131(2) 0.4387(3) 0.8461(6) 0.0697 Uani
C5A C 0.6996(3) 0.4588(3) 0.7186(8) 0.0363 Uani
C6A C 0.6461(2) 0.4491(3) 0.6359(7) 0.0328 Uani
C7A C 0.6265(3) 0.4689(3) 0.4916(7) 0.0349 Uani
H5A H 0.6478 0.4878 0.4443 0.0420 Uiso
C8A C 0.6133(3) 0.4222(3) 0.7065(8) 0.0415 Uani
H6A H 0.6255 0.4090 0.8030 0.0490 Uiso
O7A O 0.31735(17) 0.3852(2) 0.4079(6) 0.0425 Uani
O8A O 0.49368(18) 0.4300(2) 0.4156(7) 0.0605 Uani
O10A O 0.48524(18) 0.2090(2) 0.4311(7) 0.0561 Uani
C9A C 0.3914(3) 0.3277(3) 0.4254(7) 0.0351 Uani
C10A C 0.5447(3) 0.4340(3) 0.4890(9) 0.0450 Uani
C11A C 0.4186(2) 0.3801(3) 0.4214(8) 0.0385 Uani
H7A H 0.4034 0.4186 0.4177 0.0460 Uiso
C13A C 0.4149(3) 0.2702(3) 0.4311(7) 0.0364 Uani
H11A H 0.3969 0.2342 0.4338 0.0430 Uiso
C14A C 0.3372(2) 0.3327(3) 0.4302(7) 0.0303 Uani
C15A C 0.4647(2) 0.2674(3) 0.4325(8) 0.0361 Uani
C16A C 0.4688(3) 0.3754(4) 0.4230(8) 0.0407 Uani
C17A C 0.5346(3) 0.1979(4) 0.5172(9) 0.0461 Uani
C18A C 0.5761(2) 0.4611(4) 0.4176(9) 0.0421 Uani
H12A H 0.5637 0.4739 0.3208 0.0510 Uiso
C19A C 0.5602(3) 0.1528(4) 0.4614(9) 0.0544 Uani
H13A H 0.5463 0.1359 0.3691 0.0650 Uiso
C21A C 0.4921(3) 0.3185(4) 0.4272(9) 0.0450 Uani
H17A H 0.5257 0.3157 0.4265 0.0540 Uiso
C22A C 0.5559(3) 0.2249(4) 0.6500(9) 0.0492 Uani
H18A H 0.5384 0.2552 0.6849 0.0590 Uiso
C23A C 0.5627(3) 0.4150(4) 0.6332(10) 0.0498 Uani
H19A H 0.5408 0.3975 0.6806 0.0600 Uiso
O9F O 0.2740(2) 0.2893(3) 0.7152(6) 0.0543 Uani
C12F C 0.2640(4) 0.3552(5) 1.0520(10) 0.0772 Uani
H8F H 0.2352 0.3801 1.0048 0.1160 Uiso
H9F H 0.2542 0.3247 1.1119 0.1160 Uiso
H10F H 0.2900 0.3809 1.1120 0.1160 Uiso
N1F N 0.2830(3) 0.3246(3) 0.9406(7) 0.0547 Uani
C20F C 0.2037(4) 0.3435(4) 0.7535(11) 0.0615 Uani
H14F H 0.1925 0.3445 0.6485 0.0920 Uiso
H15F H 0.1811 0.3183 0.7893 0.0920 Uiso
H16F H 0.2040 0.3845 0.7912 0.0920 Uiso
C24F C 0.3346(4) 0.2997(4) 0.9906(10) 0.0704 Uani
H20F H 0.3422 0.2779 0.9117 0.1050 Uiso
H21F H 0.3581 0.3329 1.0220 0.1050 Uiso
H22F H 0.3370 0.2719 1.0709 0.1050 Uiso
C25F C 0.2556(3) 0.3171(4) 0.8025(9) 0.0454 Uani
Mn1B Mn 0.74615(4) 0.56681(5) 0.56499(11) 0.0319 Uani
Mn1C Mn 0.25385(4) 0.56681(5) 0.93501(11) 0.0319 Uani
Mn1F Mn 0.25385(4) 0.43319(5) 0.43501(11) 0.0319 Uani
Mn1G Mn 0.74615(4) 0.43319(5) 1.06499(11) 0.0319 Uani
Mn2A Mn 0.7500 0.2500 1.0000 0.0362 Uani
O2G O 0.18386(18) 0.2157(2) 0.5472(6) 0.0461 Uani
O3F O 0.20225(18) 0.3388(2) 0.3964(5) 0.0415 Uani
O5B O 0.77083(18) -0.0147(2) 0.8414(7) 0.0528 Uani
O5C O 0.22917(18) -0.0147(2) 0.6586(7) 0.0528 Uani
O6F O 0.2131(2) 0.0613(3) 0.3461(6) 0.0697 Uani
O6G O 0.7869(2) 0.0613(3) 1.1539(6) 0.0697 Uani
O7F O 0.81735(17) 0.1148(2) 0.9079(6) 0.0425 Uani
O7G O 0.18265(17) 0.1148(2) 0.5921(6) 0.0425 Uani
loop_
_atom_site_aniso_label
_atom_site_aniso_U_11
_atom_site_aniso_U_22
_atom_site_aniso_U_33
_atom_site_aniso_U_23
_atom_site_aniso_U_13
_atom_site_aniso_U_12
Mn1 0.0278(6) 0.0385(6) 0.0273(6) 0.0009(5) 0.0041(4) -0.0031(4)
O1 0.074(4) 0.084(5) 0.072(5) -0.019(4) 0.028(4) 0.011(4)
Mn2 0.0344(9) 0.0466(10) 0.0304(8) -0.0068(7) 0.0135(6) -0.0123(7)
O2 0.036(3) 0.050(3) 0.056(4) -0.004(3) 0.019(2) 0.006(2)
O3 0.037(3) 0.053(3) 0.030(3) -0.003(2) 0.002(2) -0.007(2)
O4 0.038(3) 0.049(3) 0.051(3) -0.005(3) 0.000(2) -0.016(2)
C1 0.033(4) 0.045(4) 0.038(4) -0.012(3) 0.012(3) -0.003(3)
C2 0.033(4) 0.040(4) 0.033(4) -0.010(3) 0.002(3) -0.006(3)
C3 0.045(4) 0.052(5) 0.035(4) 0.001(4) 0.005(3) -0.009(4)
C4 0.039(4) 0.056(5) 0.052(5) 0.004(4) 0.005(4) -0.027(4)
O5 0.032(3) 0.049(3) 0.072(4) -0.016(3) 0.006(3) 0.007(2)
O6 0.057(4) 0.109(5) 0.033(3) -0.007(3) -0.004(3) 0.004(3)
C5 0.042(4) 0.032(4) 0.030(4) 0.005(3) 0.002(3) -0.001(3)
C6 0.034(4) 0.034(4) 0.032(4) 0.000(3) 0.012(3) 0.004(3)
C7 0.035(4) 0.040(4) 0.028(4) -0.007(3) 0.006(3) 0.011(3)
C8 0.047(4) 0.043(4) 0.037(4) -0.001(3) 0.016(3) 0.005(3)
O7 0.033(3) 0.048(3) 0.047(3) 0.004(2) 0.012(2) -0.002(2)
O8 0.023(3) 0.055(4) 0.097(5) -0.031(3) 0.006(3) 0.007(2)
O9 0.051(3) 0.071(4) 0.041(3) -0.017(3) 0.013(3) -0.009(3)
O10 0.032(3) 0.053(3) 0.069(4) 0.015(3) -0.009(3) -0.017(2)
C9 0.031(4) 0.046(4) 0.027(4) 0.006(3) 0.006(3) 0.004(3)
C10 0.025(4) 0.044(4) 0.060(5) -0.012(4) 0.002(3) -0.001(3)
C11 0.030(4) 0.038(4) 0.046(4) -0.004(3) 0.008(3) 0.000(3)
C12 0.106(8) 0.091(8) 0.037(5) -0.020(5) 0.024(5) 0.006(6)
C13 0.035(4) 0.041(4) 0.030(4) -0.005(3) 0.004(3) 0.000(3)
C14 0.028(4) 0.041(4) 0.023(3) 0.004(3) 0.009(3) 0.006(3)
C15 0.024(3) 0.043(4) 0.036(4) 0.000(3) 0.000(3) -0.009(3)
C16 0.026(4) 0.053(5) 0.040(4) -0.008(4) 0.004(3) 0.004(3)
C17 0.034(4) 0.047(5) 0.053(5) -0.004(4) 0.005(4) -0.010(3)
C18 0.028(4) 0.052(5) 0.042(4) -0.013(4) 0.003(3) 0.010(3)
N1 0.081(5) 0.056(4) 0.032(4) -0.006(3) 0.024(4) 0.000(4)
C19 0.043(5) 0.061(5) 0.050(5) 0.017(4) -0.002(4) -0.012(4)
C20 0.064(6) 0.063(6) 0.063(6) -0.009(5) 0.027(5) -0.007(5)
C21 0.024(4) 0.059(5) 0.051(5) -0.003(4) 0.009(3) 0.001(4)
C22 0.043(4) 0.054(5) 0.046(5) 0.014(4) 0.005(4) -0.018(4)
C23 0.039(4) 0.053(5) 0.066(6) -0.002(4) 0.029(4) 0.012(4)
C24 0.094(8) 0.063(6) 0.043(5) -0.003(4) 0.001(5) 0.010(5)
C25 0.057(5) 0.046(5) 0.040(5) -0.005(4) 0.025(4) -0.008(4)
Mn1A 0.0278 0.0385 0.0273 -0.0009 0.0041 0.0031
O1A 0.074 0.084 0.072 0.019 0.028 -0.011
O2A 0.036 0.05 0.056 0.004 0.019 -0.006
O3A 0.037 0.053 0.03 0.003 0.002 0.007
O4A 0.038 0.049 0.051 0.005 0 0.016
C1A 0.033 0.045 0.038 0.012 0.012 0.003
C2A 0.033 0.04 0.033 0.01 0.002 0.006
C3A 0.045 0.052 0.035 -0.001 0.005 0.009
C4A 0.039 0.056 0.052 -0.004 0.005 0.027
O5A 0.032 0.049 0.072 0.016 0.006 -0.007
O6A 0.057 0.109 0.033 0.007 -0.004 -0.004
C5A 0.042 0.032 0.03 -0.005 0.002 0.001
C6A 0.034 0.034 0.032 0 0.012 -0.004
C7A 0.035 0.04 0.028 0.007 0.006 -0.011
C8A 0.047 0.043 0.037 0.001 0.016 -0.005
O7A 0.033 0.048 0.047 -0.004 0.012 0.002
O8A 0.023 0.055 0.097 0.031 0.006 -0.007
O10A 0.032 0.053 0.069 -0.015 -0.009 0.017
C9A 0.031 0.046 0.027 -0.006 0.006 -0.004
C10A 0.025 0.044 0.06 0.012 0.002 0.001
C11A 0.03 0.038 0.046 0.004 0.008 0
C13A 0.035 0.041 0.03 0.005 0.004 0
C14A 0.028 0.041 0.023 -0.004 0.009 -0.006
C15A 0.024 0.043 0.036 0 0 0.009
C16A 0.026 0.053 0.04 0.008 0.004 -0.004
C17A 0.034 0.047 0.053 0.004 0.005 0.01
C18A 0.028 0.052 0.042 0.013 0.003 -0.01
C19A 0.043 0.061 0.05 -0.017 -0.002 0.012
C21A 0.024 0.059 0.051 0.003 0.009 -0.001
C22A 0.043 0.054 0.046 -0.014 0.005 0.018
C23A 0.039 0.053 0.066 0.002 0.029 -0.012
O9F 0.051 0.071 0.041 -0.017 0.013 -0.009
C12F 0.106 0.091 0.037 -0.02 0.024 0.006
N1F 0.081 0.056 0.032 -0.006 0.024 0
C20F 0.064 0.063 0.063 -0.009 0.027 -0.007
C24F 0.094 0.063 0.043 -0.003 0.001 0.01
C25F 0.057 0.046 0.04 -0.005 0.025 -0.008
Mn1B 0.0278 0.0385 0.0273 0.0009 0.0041 -0.0031
Mn1C 0.0278 0.0385 0.0273 -0.0009 0.0041 0.0031
Mn1F 0.0278 0.0385 0.0273 0.0009 0.0041 -0.0031
Mn1G 0.0278 0.0385 0.0273 -0.0009 0.0041 0.0031
Mn2A 0.0344 0.0466 0.0304 0.0068 0.0135 0.0123
O2G 0.036 0.05 0.056 0.004 0.019 -0.006
O3F 0.037 0.053 0.03 -0.003 0.002 -0.007
O5B 0.032 0.049 0.072 -0.016 0.006 0.007
O5C 0.032 0.049 0.072 0.016 0.006 -0.007
O6F 0.057 0.109 0.033 -0.007 -0.004 0.004
O6G 0.057 0.109 0.033 0.007 -0.004 -0.004
O7F 0.033 0.048 0.047 0.004 0.012 -0.002
O7G 0.033 0.048 0.047 -0.004 0.012 0.002
loop_
_geom_bond_atom_site_label_1
_geom_bond_atom_site_label_2
_geom_bond_site_symmetry_1
_geom_bond_site_symmetry_2
Mn1 O1 1_555 1_555
O1 H1 1_555 1_555
H2 O1 1_555 1_555
Mn2 O3 1_555 1_555
O2 C14 1_555 1_555
O3 Mn1 1_555 1_555
O4 Mn1 1_555 1_555
C1 O3 1_555 1_555
C2 C1 1_555 1_555
C3 C2 1_555 1_555
H3 C3 1_555 1_555
C4 C2 1_555 1_555
H4 C4 1_555 1_555
O5 C5 1_555 1_555
O6 C5 1_555 1_555
C5 C6 1_555 1_555
C6 C7 1_555 1_555
C7 H5 1_555 1_555
C8 C6 1_555 1_555
H6 C8 1_555 1_555
O7 C14 1_555 1_555
O8 C10 1_555 1_555
O9 Mn2 1_555 1_555
O10 C15 1_555 1_555
C9 C11 1_555 1_555
C10 C18 1_555 1_555
C11 H7 1_555 1_555
C12 H8 1_555 1_555
H9 C12 1_555 1_555
H10 C12 1_555 1_555
C13 C9 1_555 1_555
H11 C13 1_555 1_555
C14 C9 1_555 1_555
C15 C13 1_555 1_555
C16 O8 1_555 1_555
C17 O10 1_555 1_555
C18 C7 1_555 1_555
H12 C18 1_555 1_555
N1 C12 1_555 1_555
C19 C4 1_555 1_555
H13 C19 1_555 1_555
C20 H14 1_555 1_555
H15 C20 1_555 1_555
H16 C20 1_555 1_555
C21 C15 1_555 1_555
H17 C21 1_555 1_555
C22 C3 1_555 1_555
H18 C22 1_555 1_555
C23 C8 1_555 1_555
H19 C23 1_555 1_555
C24 N1 1_555 1_555
H20 C24 1_555 1_555
H21 C24 1_555 1_555
H22 C24 1_555 1_555
C25 O9 1_555 1_555
Mn1A O1A 1_555 1_555
O1A H1A 1_555 1_555
H2A O1A 1_555 1_555
O2A Mn2 1_555 1_555
O3A Mn1A 1_555 1_555
O4A Mn1A 1_555 1_555
C1A O3A 1_555 1_555
C2A C1A 1_555 1_555
C3A C2A 1_555 1_555
H3A C3A 1_555 1_555
C4A C2A 1_555 1_555
H4A C4A 1_555 1_555
O5A C5A 1_555 1_555
O6A C5A 1_555 1_555
C5A C6A 1_555 1_555
C6A C7A 1_555 1_555
C7A H5A 1_555 1_555
C8A C6A 1_555 1_555
H6A C8A 1_555 1_555
O7A C14A 1_555 1_555
O8A C10A 1_555 1_555
O10A C15A 1_555 1_555
C9A C11A 1_555 1_555
C10A C18A 1_555 1_555
C11A H7A 1_555 1_555
C13A C9A 1_555 1_555
H11A C13A 1_555 1_555
C14A O2A 1_555 1_555
C15A C13A 1_555 1_555
C16A O8A 1_555 1_555
C17A O10A 1_555 1_555
C18A C7A 1_555 1_555
H12A C18A 1_555 1_555
C19A C4A 1_555 1_555
H13A C19A 1_555 1_555
C21A C15A 1_555 1_555
H17A C21A 1_555 1_555
C22A C3A 1_555 1_555
H18A C22A 1_555 1_555
C23A C8A 1_555 1_555
H19A C23A 1_555 1_555
O9F Mn2 1_555 1_555
C12F H8F 1_555 1_555
H9F C12F 1_555 1_555
H10F C12F 1_555 1_555
N1F C12F 1_555 1_555
C20F H14F 1_555 1_555
H15F C20F 1_555 1_555
H16F C20F 1_555 1_555
C24F N1F 1_555 1_555
H20F C24F 1_555 1_555
H21F C24F 1_555 1_555
H22F C24F 1_555 1_555
C25F O9F 1_555 1_555
Mn1B O5A 1_555 1_555
Mn1C O5 1_555 1_555
Mn1F O6 1_555 1_555
Mn1G O7 1_555 1_555
Mn2A O2 1_555 1_555
O2G Mn2 1_555 1_555
O3F Mn2 1_555 1_555
O5B Mn1A 1_555 1_555
O5C Mn1 1_555 1_555
O6F Mn1 1_555 1_555
O6G Mn1A 1_555 1_555
O7F Mn1A 1_555 1_555
O7G Mn1 1_555 1_555
O4 C1 1_555 1_555
C10 C23 1_555 1_555
C11 C16 1_555 1_555
C16 C21 1_555 1_555
C17 C19 1_555 1_555
C17 C22 1_555 1_555
N1 C25 1_555 1_555
C20 C25 1_555 1_555
O3A Mn2A 1_555 1_555
O4A C1A 1_555 1_555
O6A Mn1G 1_555 1_555
O7A Mn1F 1_555 1_555
C9A C14A 1_555 1_555
C10A C23A 1_555 1_555
C11A C16A 1_555 1_555
C16A C21A 1_555 1_555
C17A C19A 1_555 1_555
C17A C22A 1_555 1_555
N1F C25F 1_555 1_555
C20F C25F 1_555 1_555
Mn1F O3F 1_555 1_555

#END
