
#######################################################################
#
#                 Cambridge Crystallographic Data Centre
#                                CCDC 
#
#######################################################################
#
# If this CIF has been generated from an entry in the Cambridge 
# Structural Database, then it will include bibliographic, chemical, 
# crystal, experimental, refinement or atomic coordinate data resulting 
# from the CCDC's data processing and validation procedures.
#
#######################################################################

data_DAXHIV01
_chemical_formula_moiety         '(C26 H18 Fe3 N24 O6)n'
_symmetry_cell_setting           monoclinic
_symmetry_space_group_name_H-M   'C 2/m'
_symmetry_Int_Tables_number      12
_space_group_name_Hall           '-C 2y'
loop_
_symmetry_equiv_pos_site_id
_symmetry_equiv_pos_as_xyz
1 x,y,z
2 -x,y,-z
3 1/2+x,1/2+y,z
4 1/2-x,1/2+y,-z
5 -x,-y,-z
6 x,-y,z
7 1/2-x,1/2-y,-z
8 1/2+x,1/2-y,z
_cell_length_a                   12.0115(10)
_cell_length_b                   24.5797(17)
_cell_length_c                   12.1020(9)
_cell_angle_alpha                90
_cell_angle_beta                 110.112(9)
_cell_angle_gamma                90
_cell_volume                     3355.11
loop_
_atom_site_label
_atom_site_type_symbol
_atom_site_fract_x
_atom_site_fract_y
_atom_site_fract_z
Fe1 Fe 0.5000 0.5000 0.0000
Fe2 Fe 0.39336(6) 0.5000 0.25873(5)
N1 N 0.7335(3) 0.5000 0.2127(3)
N2 N 0.6138(3) 0.5000 0.1737(3)
N3 N 0.5761(3) 0.5000 0.2631(3)
N4 N 0.6685(3) 0.5000 0.3641(3)
N5 N 0.3696(2) 0.39099(11) -0.0198(2)
N6 N 0.3961(2) 0.43858(10) 0.0363(2)
N7 N 0.3607(2) 0.43764(11) 0.1283(2)
N8 N 0.3111(3) 0.38984(11) 0.1351(3)
O1 O 0.44819(18) 0.44516(8) 0.40361(17)
O2 O 0.2136(3) 0.5000 0.2435(4)
H5 H 0.1920 0.4753 0.2809
C1 C 0.9828(5) 0.5000 0.3823(5)
H6 H 0.9722 0.5000 0.3009
C2 C 0.8855(4) 0.5000 0.4173(4)
C3 C 0.9021(5) 0.5000 0.5339(5)
H7 H 0.8354 0.5000 0.5592
C4 C 0.7635(4) 0.5000 0.3306(4)
C5 C 0.3283(4) 0.27245(16) -0.0468(4)
H8 H 0.3825 0.2877 -0.0799
C6 C 0.2821(3) 0.30468(15) 0.0193(3)
C7 C 0.2027(4) 0.28201(16) 0.0662(4)
H9 H 0.1693 0.3038 0.1117
C8 C 0.3180(3) 0.36209(14) 0.0424(3)
C9 C 0.5000 0.46864(17) 0.5000
Fe1_2 Fe 1.5000 0.5000 1.0000
Fe1B Fe 0.0000 0.0000 0.0000
Fe1B_2 Fe 1.0000 0.0000 0.0000
Fe2A Fe 1.60664(6) 0.5000 0.74127(5)
Fe2C Fe 0.10664(6) 0.0000 -0.25873(5)
Fe2A_2 Fe 0.60664(6) 0.5000 0.74127(5)
Fe2A_3 Fe 0.60664(6) 0.5000 -0.25873(5)
Fe2B Fe 0.89336(6) -0.0000 0.25873(5)
N1A N 1.2665(3) 0.5000 0.7873(3)
N2A N 1.3862(3) 0.5000 0.8263(3)
N2A_2 N 0.3862(3) 0.5000 -0.1737(3)
N3A N 1.4239(3) 0.5000 0.7369(3)
N4A N 1.3315(3) 0.5000 0.6359(3)
N5F N 0.1304(2) 0.10901(11) 0.0198(2)
N5A N 0.6304(2) 0.39099(11) 0.0198(2)
N5G N 0.8696(2) 0.10901(11) -0.0198(2)
N6F N 0.1039(2) 0.06142(10) -0.0363(2)
N6A N 0.6039(2) 0.43858(10) -0.0363(2)
N6G N 0.8961(2) 0.06142(10) 0.0363(2)
N6D N 0.6039(2) 0.56142(10) -0.0363(2)
N6E N 0.3961(2) 0.56142(10) 0.0363(2)
N7F N 0.1393(2) 0.06236(11) -0.1283(2)
N7A N 0.6393(2) 0.43764(11) -0.1283(2)
N7G N 0.8607(2) 0.06236(11) 0.1283(2)
N7E N 0.3607(2) 0.56236(11) 0.1283(2)
N7A_2 N 1.6393(2) 0.43764(11) 0.8717(2)
N7D N 1.6393(2) 0.56236(11) 0.8717(2)
N8F N 0.1889(3) 0.11016(11) -0.1351(3)
N8A N 0.6889(3) 0.38984(11) -0.1351(3)
N8G N 0.8111(3) 0.11016(11) 0.1351(3)
O1A O 0.55181(18) 0.44516(8) 0.59639(17)
O1D O 0.55181(18) 0.55484(8) 0.59639(17)
O1E O 0.44819(18) 0.55484(8) 0.40361(17)
O1A_2 O 1.55181(18) 0.44516(8) 0.59639(17)
O1D_2 O 1.55181(18) 0.55484(8) 0.59639(17)
O2A O 1.7864(3) 0.5000 0.7565(4)
H5E H 0.1920 0.5247 0.2809
H5A H 1.8080 0.4753 0.7191
H5D H 1.8080 0.5247 0.7191
C1A C 1.0172(5) 0.5000 0.6177(5)
H6A H 1.0278 0.5000 0.6991
C2A C 1.1145(4) 0.5000 0.5827(4)
C3A C 1.0979(5) 0.5000 0.4661(5)
H7A H 1.1646 0.5000 0.4408
C4A C 1.2365(4) 0.5000 0.6694(4)
C5F C 0.1717(4) 0.22755(16) 0.0468(4)
C5A C 0.6717(4) 0.27245(16) 0.0468(4)
C5G C 0.8283(4) 0.22755(16) -0.0468(4)
H8F H 0.1175 0.2123 0.0799
H8A H 0.6175 0.2877 0.0799
H8G H 0.8825 0.2123 -0.0799
C6F C 0.2179(3) 0.19532(15) -0.0193(3)
C6A C 0.7179(3) 0.30468(15) -0.0193(3)
C6G C 0.7821(3) 0.19532(15) 0.0193(3)
C7F C 0.2973(4) 0.21799(16) -0.0662(4)
C7A C 0.7973(4) 0.28201(16) -0.0662(4)
C7G C 0.7027(4) 0.21799(16) 0.0662(4)
H9F H 0.3307 0.1962 -0.1117
H9A H 0.8307 0.3038 -0.1117
H9G H 0.6693 0.1962 0.1117
C8F C 0.1820(3) 0.13791(14) -0.0424(3)
C8A C 0.6820(3) 0.36209(14) -0.0424(3)
C8G C 0.8180(3) 0.13791(14) 0.0424(3)
C9D C 0.5000 0.53136(17) 0.5000
loop_
_geom_bond_atom_site_label_1
_geom_bond_atom_site_label_2
_geom_bond_site_symmetry_1
_geom_bond_site_symmetry_2
Fe1 N2 1_555 1_555
Fe2 N3 1_555 1_555
N1 N2 1_555 1_555
N2 N3 1_555 1_555
N3 N4 1_555 1_555
N4 C4 1_555 1_555
N5 N6 1_555 1_555
N6 Fe1 1_555 1_555
N7 Fe2 1_555 1_555
N8 N7 1_555 1_555
O1 Fe2 1_555 1_555
O2 Fe2 1_555 1_555
H5 O2 1_555 1_555
C1 H6 1_555 1_555
C2 C1 1_555 1_555
C3 C2 1_555 1_555
H7 C3 1_555 1_555
C4 N1 1_555 1_555
C5 H8 1_555 1_555
C6 C5 1_555 1_555
C7 C6 1_555 1_555
H9 C7 1_555 1_555
C8 N5 1_555 1_555
C9 O1 1_555 1_555
Fe1_2 N2A 1_555 1_555
Fe1B N6F 1_555 1_555
Fe1B_2 N6G 1_555 1_555
Fe2A N3A 1_555 1_555
Fe2C N7F 1_555 1_555
Fe2A_2 O1A 1_555 1_555
Fe2A_3 N7A 1_555 1_555
Fe2B N7G 1_555 1_555
N1A N2A 1_555 1_555
N2A N3A 1_555 1_555
N2A_2 Fe1 1_555 1_555
N3A N4A 1_555 1_555
N4A C4A 1_555 1_555
N5F N6F 1_555 1_555
N5A N6A 1_555 1_555
N5G N6G 1_555 1_555
N6F N7F 1_555 1_555
N6A Fe1 1_555 1_555
N6G N7G 1_555 1_555
N6D Fe1 1_555 1_555
N6E Fe1 1_555 1_555
N7F N8F 1_555 1_555
N7A N6A 1_555 1_555
N7G N8G 1_555 1_555
N7E Fe2 1_555 1_555
N7A_2 Fe2A 1_555 1_555
N7D Fe2A 1_555 1_555
N8F C8F 1_555 1_555
N8A N7A 1_555 1_555
N8G C8G 1_555 1_555
O1A C9 1_555 1_555
O1D Fe2A_2 1_555 1_555
O1E Fe2 1_555 1_555
O1A_2 Fe2A 1_555 1_555
O1D_2 Fe2A 1_555 1_555
O2A Fe2A 1_555 1_555
H5E O2 1_555 1_555
H5A O2A 1_555 1_555
H5D O2A 1_555 1_555
C1A C3 1_555 1_555
H6A C1A 1_555 1_555
C2A C1A 1_555 1_555
C3A C1 1_555 1_555
H7A C3A 1_555 1_555
C4A N1A 1_555 1_555
C5F C7 1_555 1_555
C5A H8A 1_555 1_555
C5G H8G 1_555 1_555
H8F C5F 1_555 1_555
C6F C5F 1_555 1_555
C6A C5A 1_555 1_555
C6G C5G 1_555 1_555
C7F C5 1_555 1_555
C7A C5G 1_555 1_555
C7G C5A 1_555 1_555
H9F C7F 1_555 1_555
H9A C7A 1_555 1_555
H9G C7G 1_555 1_555
C8F N5F 1_555 1_555
C8A N5A 1_555 1_555
C8G N5G 1_555 1_555
C9D C9 1_555 1_555
N6 N7 1_555 1_555
N8 C8 1_555 1_555
C2 C4 1_555 1_555
C6 C8 1_555 1_555
N6E N7E 1_555 1_555
N8A C8A 1_555 1_555
O1D C9D 1_555 1_555
O1E C9D 1_555 1_555
C2A C3A 1_555 1_555
C2A C4A 1_555 1_555
C6F C7F 1_555 1_555
C6F C8F 1_555 1_555
C6A C7A 1_555 1_555
C6A C8A 1_555 1_555
C6G C7G 1_555 1_555
C6G C8G 1_555 1_555

#END
