
#######################################################################
#
#                 Cambridge Crystallographic Data Centre
#                                CCDC 
#
#######################################################################
#
# If this CIF has been generated from an entry in the Cambridge 
# Structural Database, then it will include bibliographic, chemical, 
# crystal, experimental, refinement or atomic coordinate data resulting 
# from the CCDC's data processing and validation procedures.
#
#######################################################################

data_DAXHUH01
_chemical_formula_moiety         '(C26 H18 Fe3 N24 O6)n'
_symmetry_cell_setting           monoclinic
_symmetry_space_group_name_H-M   'C 2/m'
_symmetry_Int_Tables_number      12
_space_group_name_Hall           '-C 2y'
loop_
_symmetry_equiv_pos_site_id
_symmetry_equiv_pos_as_xyz
1 x,y,z
2 -x,y,-z
3 1/2+x,1/2+y,z
4 1/2-x,1/2+y,-z
5 -x,-y,-z
6 x,-y,z
7 1/2-x,1/2-y,-z
8 1/2+x,1/2-y,z
_cell_length_a                   12.114(3)
_cell_length_b                   24.506(5)
_cell_length_c                   11.950(3)
_cell_angle_alpha                90
_cell_angle_beta                 110.264(6)
_cell_angle_gamma                90
_cell_volume                     3327.98
loop_
_atom_site_label
_atom_site_type_symbol
_atom_site_fract_x
_atom_site_fract_y
_atom_site_fract_z
Fe1 Fe 0.5000 0.5000 0.0000
Fe2 Fe 0.39478(10) 0.5000 0.26032(11)
N1 N 0.7316(5) 0.5000 0.2135(8)
N2 N 0.6168(5) 0.5000 0.1779(6)
N3 N 0.5790(6) 0.5000 0.2672(6)
N4 N 0.6704(6) 0.5000 0.3685(7)
N5 N 0.3710(4) 0.39097(19) -0.0206(5)
N6 N 0.3967(4) 0.43794(17) 0.0341(4)
N7 N 0.3680(4) 0.43710(16) 0.1324(5)
N8 N 0.3178(5) 0.38952(19) 0.1382(5)
O1 O 0.4512(4) 0.44546(15) 0.4038(4)
O2 O 0.2240(7) 0.5000 0.2423(8)
H5 H 0.2023 0.4751 0.2800
C1 C 0.9779(11) 0.5000 0.3813(14)
H6 H 0.9671 0.5000 0.3004
C2 C 0.8834(9) 0.5000 0.4172(9)
C3 C 0.9035(11) 0.5000 0.5305(14)
H7 H 0.8398 0.5000 0.5571
C4 C 0.7635(6) 0.5000 0.3359(7)
C5 C 0.3246(8) 0.2724(3) -0.0496(9)
H8 H 0.3745 0.2874 -0.0855
C6 C 0.2820(6) 0.3050(2) 0.0184(7)
C7 C 0.2040(7) 0.2820(3) 0.0667(9)
H9 H 0.1707 0.3035 0.1109
C8 C 0.3222(6) 0.3615(2) 0.0434(6)
C9 C 0.5000 0.4687(3) 0.5000
Fe1_2 Fe 1.5000 0.5000 1.0000
Fe1B Fe 0.0000 0.0000 0.0000
Fe1B_2 Fe 1.0000 0.0000 0.0000
Fe2A Fe 1.60522(10) 0.5000 0.73968(11)
Fe2C Fe 0.10522(10) 0.0000 -0.26032(11)
Fe2A_2 Fe 0.60522(10) 0.5000 0.73968(11)
Fe2A_3 Fe 0.60522(10) 0.5000 -0.26032(11)
Fe2B Fe 0.89478(10) -0.0000 0.26032(11)
N1A N 1.2684(5) 0.5000 0.7865(8)
N2A N 1.3832(5) 0.5000 0.8221(6)
N2A_2 N 0.3832(5) 0.5000 -0.1779(6)
N3A N 1.4210(6) 0.5000 0.7328(6)
N4A N 1.3296(6) 0.5000 0.6315(7)
N5F N 0.1290(4) 0.10903(19) 0.0206(5)
N5A N 0.6290(4) 0.39097(19) 0.0206(5)
N5G N 0.8710(4) 0.10903(19) -0.0206(5)
N6F N 0.1033(4) 0.06206(17) -0.0341(4)
N6A N 0.6033(4) 0.43794(17) -0.0341(4)
N6G N 0.8967(4) 0.06206(17) 0.0341(4)
N6D N 0.6033(4) 0.56206(17) -0.0341(4)
N6E N 0.3967(4) 0.56206(17) 0.0341(4)
N7F N 0.1320(4) 0.06290(16) -0.1324(5)
N7A N 0.6320(4) 0.43710(16) -0.1324(5)
N7G N 0.8680(4) 0.06290(16) 0.1324(5)
N7E N 0.3680(4) 0.56290(16) 0.1324(5)
N7A_2 N 1.6320(4) 0.43710(16) 0.8676(5)
N7D N 1.6320(4) 0.56290(16) 0.8676(5)
N8F N 0.1822(5) 0.11048(19) -0.1382(5)
N8A N 0.6822(5) 0.38952(19) -0.1382(5)
N8G N 0.8178(5) 0.11048(19) 0.1382(5)
O1A O 0.5488(4) 0.44546(15) 0.5962(4)
O1D O 0.5488(4) 0.55454(15) 0.5962(4)
O1E O 0.4512(4) 0.55454(15) 0.4038(4)
O1A_2 O 1.5488(4) 0.44546(15) 0.5962(4)
O1D_2 O 1.5488(4) 0.55454(15) 0.5962(4)
O2A O 1.7760(7) 0.5000 0.7577(8)
H5E H 0.2023 0.5249 0.2800
H5A H 1.7977 0.4751 0.7200
H5D H 1.7977 0.5249 0.7200
C1A C 1.0221(11) 0.5000 0.6187(14)
H6A H 1.0329 0.5000 0.6996
C2A C 1.1166(9) 0.5000 0.5828(9)
C3A C 1.0965(11) 0.5000 0.4695(14)
H7A H 1.1602 0.5000 0.4429
C4A C 1.2365(6) 0.5000 0.6641(7)
C5F C 0.1754(8) 0.2276(3) 0.0496(9)
C5A C 0.6754(8) 0.2724(3) 0.0496(9)
C5G C 0.8246(8) 0.2276(3) -0.0496(9)
H8F H 0.1255 0.2126 0.0855
H8A H 0.6255 0.2874 0.0855
H8G H 0.8745 0.2126 -0.0855
C6F C 0.2180(6) 0.1950(2) -0.0184(7)
C6A C 0.7180(6) 0.3050(2) -0.0184(7)
C6G C 0.7820(6) 0.1950(2) 0.0184(7)
C7F C 0.2960(7) 0.2180(3) -0.0667(9)
C7A C 0.7960(7) 0.2820(3) -0.0667(9)
C7G C 0.7040(7) 0.2180(3) 0.0667(9)
H9F H 0.3293 0.1965 -0.1109
H9A H 0.8293 0.3035 -0.1109
H9G H 0.6707 0.1965 0.1109
C8F C 0.1778(6) 0.1385(2) -0.0434(6)
C8A C 0.6778(6) 0.3615(2) -0.0434(6)
C8G C 0.8222(6) 0.1385(2) 0.0434(6)
C9D C 0.5000 0.5313(3) 0.5000
loop_
_geom_bond_atom_site_label_1
_geom_bond_atom_site_label_2
_geom_bond_site_symmetry_1
_geom_bond_site_symmetry_2
Fe1 N2 1_555 1_555
Fe2 N3 1_555 1_555
N1 N2 1_555 1_555
N2 N3 1_555 1_555
N3 N4 1_555 1_555
N4 C4 1_555 1_555
N5 N6 1_555 1_555
N6 Fe1 1_555 1_555
N7 Fe2 1_555 1_555
N8 N7 1_555 1_555
O1 Fe2 1_555 1_555
O2 Fe2 1_555 1_555
H5 O2 1_555 1_555
C1 H6 1_555 1_555
C2 C1 1_555 1_555
C3 C2 1_555 1_555
H7 C3 1_555 1_555
C4 N1 1_555 1_555
C5 H8 1_555 1_555
C6 C5 1_555 1_555
C7 C6 1_555 1_555
H9 C7 1_555 1_555
C8 N5 1_555 1_555
C9 O1 1_555 1_555
Fe1_2 N2A 1_555 1_555
Fe1B N6F 1_555 1_555
Fe1B_2 N6G 1_555 1_555
Fe2A N3A 1_555 1_555
Fe2C N7F 1_555 1_555
Fe2A_2 O1A 1_555 1_555
Fe2A_3 N7A 1_555 1_555
Fe2B N7G 1_555 1_555
N1A N2A 1_555 1_555
N2A N3A 1_555 1_555
N2A_2 Fe1 1_555 1_555
N3A N4A 1_555 1_555
N4A C4A 1_555 1_555
N5F N6F 1_555 1_555
N5A N6A 1_555 1_555
N5G N6G 1_555 1_555
N6F N7F 1_555 1_555
N6A Fe1 1_555 1_555
N6G N7G 1_555 1_555
N6D Fe1 1_555 1_555
N6E Fe1 1_555 1_555
N7F N8F 1_555 1_555
N7A N6A 1_555 1_555
N7G N8G 1_555 1_555
N7E Fe2 1_555 1_555
N7A_2 Fe2A 1_555 1_555
N7D Fe2A 1_555 1_555
N8F C8F 1_555 1_555
N8A N7A 1_555 1_555
N8G C8G 1_555 1_555
O1A C9 1_555 1_555
O1D Fe2A_2 1_555 1_555
O1E Fe2 1_555 1_555
O1A_2 Fe2A 1_555 1_555
O1D_2 Fe2A 1_555 1_555
O2A Fe2A 1_555 1_555
H5E O2 1_555 1_555
H5A O2A 1_555 1_555
H5D O2A 1_555 1_555
C1A C3 1_555 1_555
H6A C1A 1_555 1_555
C2A C1A 1_555 1_555
C3A C1 1_555 1_555
H7A C3A 1_555 1_555
C4A N1A 1_555 1_555
C5F C7 1_555 1_555
C5A H8A 1_555 1_555
C5G H8G 1_555 1_555
H8F C5F 1_555 1_555
C6F C5F 1_555 1_555
C6A C5A 1_555 1_555
C6G C5G 1_555 1_555
C7F C5 1_555 1_555
C7A C5G 1_555 1_555
C7G C5A 1_555 1_555
H9F C7F 1_555 1_555
H9A C7A 1_555 1_555
H9G C7G 1_555 1_555
C8F N5F 1_555 1_555
C8A N5A 1_555 1_555
C8G N5G 1_555 1_555
C9D C9 1_555 1_555
N6 N7 1_555 1_555
N8 C8 1_555 1_555
C2 C4 1_555 1_555
C6 C8 1_555 1_555
N6E N7E 1_555 1_555
N8A C8A 1_555 1_555
O1D C9D 1_555 1_555
O1E C9D 1_555 1_555
C2A C3A 1_555 1_555
C2A C4A 1_555 1_555
C6F C7F 1_555 1_555
C6F C8F 1_555 1_555
C6A C7A 1_555 1_555
C6A C8A 1_555 1_555
C6G C7G 1_555 1_555
C6G C8G 1_555 1_555

#END
