
#######################################################################
#
#                 Cambridge Crystallographic Data Centre
#                                CCDC 
#
#######################################################################
#
# If this CIF has been generated from an entry in the Cambridge 
# Structural Database, then it will include bibliographic, chemical, 
# crystal, experimental, refinement or atomic coordinate data resulting 
# from the CCDC's data processing and validation procedures.
#
#######################################################################

data_DAXHIV
_chemical_formula_moiety         '(C26 H18 Fe3 N24 O6)n'
_symmetry_cell_setting           monoclinic
_symmetry_space_group_name_H-M   'C 2/m'
_symmetry_Int_Tables_number      12
_space_group_name_Hall           '-C 2y'
loop_
_symmetry_equiv_pos_site_id
_symmetry_equiv_pos_as_xyz
1 x,y,z
2 -x,y,-z
3 1/2+x,1/2+y,z
4 1/2-x,1/2+y,-z
5 -x,-y,-z
6 x,-y,z
7 1/2-x,1/2-y,-z
8 1/2+x,1/2-y,z
_cell_length_a                   12.078(2)
_cell_length_b                   24.560(5)
_cell_length_c                   12.087(2)
_cell_angle_alpha                90
_cell_angle_beta                 110.48(2)
_cell_angle_gamma                90
_cell_volume                     3358.82
loop_
_atom_site_label
_atom_site_type_symbol
_atom_site_fract_x
_atom_site_fract_y
_atom_site_fract_z
Fe1 Fe 0.5000 0.5000 0.0000
Fe2 Fe 0.39561(9) 0.5000 0.25846(11)
N1 N 0.7327(5) 0.5000 0.2151(6)
N2 N 0.6139(5) 0.5000 0.1746(6)
N3 N 0.5796(5) 0.5000 0.2647(6)
N4 N 0.6687(5) 0.5000 0.3628(6)
N5 N 0.3715(4) 0.39094(19) -0.0207(4)
N6 N 0.3981(3) 0.43856(17) 0.0370(4)
N7 N 0.3639(4) 0.43776(18) 0.1262(4)
N8 N 0.3139(4) 0.38990(18) 0.1326(5)
O1 O 0.4482(3) 0.44532(14) 0.4021(3)
O2 O 0.2110(4) 0.5000 0.2371(6)
H5 H 0.1893 0.4751 0.2748
C1 C 0.9826(7) 0.5000 0.3744(8)
H6 H 0.9717 0.5000 0.2926
C2 C 0.8836(6) 0.5000 0.4172(8)
C3 C 0.9034(7) 0.5000 0.5362(9)
H7 H 0.8366 0.5000 0.5604
C4 C 0.7642(7) 0.5000 0.3322(7)
C5 C 0.3283(5) 0.2711(3) -0.0482(6)
H8 H 0.3832 0.2854 -0.0809
C6 C 0.2826(5) 0.3050(3) 0.0193(6)
C7 C 0.2048(5) 0.2814(3) 0.0670(7)
H9 H 0.1739 0.3030 0.1146
C8 C 0.3220(5) 0.3614(3) 0.0423(6)
C9 C 0.5000 0.4694(3) 0.5000
Fe1_2 Fe 1.5000 0.5000 1.0000
Fe1B Fe 0.0000 0.0000 0.0000
Fe1B_2 Fe 1.0000 0.0000 0.0000
Fe2A Fe 1.60439(9) 0.5000 0.74154(11)
Fe2C Fe 0.10439(9) 0.0000 -0.25846(11)
Fe2A_2 Fe 0.60439(9) 0.5000 0.74154(11)
Fe2A_3 Fe 0.60439(9) 0.5000 -0.25846(11)
Fe2B Fe 0.89561(9) 0.0000 0.25846(11)
N1A N 1.2673(5) 0.5000 0.7849(6)
N2A N 1.3861(5) 0.5000 0.8254(6)
N2A_2 N 0.3861(5) 0.5000 -0.1746(6)
N3A N 1.4204(5) 0.5000 0.7353(6)
N4A N 1.3313(5) 0.5000 0.6372(6)
N5F N 0.1285(4) 0.10906(19) 0.0207(4)
N5A N 0.6285(4) 0.39094(19) 0.0207(4)
N5G N 0.8715(4) 0.10906(19) -0.0207(4)
N6F N 0.1019(3) 0.06144(17) -0.0370(4)
N6A N 0.6019(3) 0.43856(17) -0.0370(4)
N6G N 0.8981(3) 0.06144(17) 0.0370(4)
N6D N 0.6019(3) 0.56144(17) -0.0370(4)
N6E N 0.3981(3) 0.56144(17) 0.0370(4)
N7F N 0.1361(4) 0.06224(18) -0.1262(4)
N7A N 0.6361(4) 0.43776(18) -0.1262(4)
N7G N 0.8639(4) 0.06224(18) 0.1262(4)
N7E N 0.3639(4) 0.56224(18) 0.1262(4)
N7A_2 N 1.6361(4) 0.43776(18) 0.8738(4)
N7D N 1.6361(4) 0.56224(18) 0.8738(4)
N8F N 0.1861(4) 0.11010(18) -0.1326(5)
N8A N 0.6861(4) 0.38990(18) -0.1326(5)
N8G N 0.8139(4) 0.11010(18) 0.1326(5)
O1A O 0.5518(3) 0.44532(14) 0.5979(3)
O1D O 0.5518(3) 0.55468(14) 0.5979(3)
O1E O 0.4482(3) 0.55468(14) 0.4021(3)
O1A_2 O 1.5518(3) 0.44532(14) 0.5979(3)
O1D_2 O 1.5518(3) 0.55468(14) 0.5979(3)
O2A O 1.7890(4) 0.5000 0.7629(6)
H5E H 0.1893 0.5249 0.2748
H5A H 1.8107 0.4751 0.7252
H5D H 1.8107 0.5249 0.7252
C1A C 1.0174(7) 0.5000 0.6256(8)
H6A H 1.0283 0.5000 0.7074
C2A C 1.1164(6) 0.5000 0.5828(8)
C3A C 1.0966(7) 0.5000 0.4638(9)
H7A H 1.1634 0.5000 0.4396
C4A C 1.2358(7) 0.5000 0.6678(7)
C5F C 0.1717(5) 0.2289(3) 0.0482(6)
C5A C 0.6717(5) 0.2711(3) 0.0482(6)
C5G C 0.8283(5) 0.2289(3) -0.0482(6)
H8F H 0.1168 0.2146 0.0809
H8A H 0.6168 0.2854 0.0809
H8G H 0.8832 0.2146 -0.0809
C6F C 0.2174(5) 0.1950(3) -0.0193(6)
C6A C 0.7174(5) 0.3050(3) -0.0193(6)
C6G C 0.7826(5) 0.1950(3) 0.0193(6)
C7F C 0.2952(5) 0.2186(3) -0.0670(7)
C7A C 0.7952(5) 0.2814(3) -0.0670(7)
C7G C 0.7048(5) 0.2186(3) 0.0670(7)
H9F H 0.3261 0.1970 -0.1146
H9A H 0.8261 0.3030 -0.1146
H9G H 0.6739 0.1970 0.1146
C8F C 0.1780(5) 0.1386(3) -0.0423(6)
C8A C 0.6780(5) 0.3614(3) -0.0423(6)
C8G C 0.8220(5) 0.1386(3) 0.0423(6)
C9D C 0.5000 0.5306(3) 0.5000
loop_
_geom_bond_atom_site_label_1
_geom_bond_atom_site_label_2
_geom_bond_site_symmetry_1
_geom_bond_site_symmetry_2
Fe1 N2 1_555 1_555
Fe2 N3 1_555 1_555
N1 N2 1_555 1_555
N2 N3 1_555 1_555
N3 N4 1_555 1_555
N4 C4 1_555 1_555
N5 N6 1_555 1_555
N6 Fe1 1_555 1_555
N7 Fe2 1_555 1_555
N8 N7 1_555 1_555
O1 Fe2 1_555 1_555
O2 Fe2 1_555 1_555
H5 O2 1_555 1_555
C1 H6 1_555 1_555
C2 C1 1_555 1_555
C3 C2 1_555 1_555
H7 C3 1_555 1_555
C4 N1 1_555 1_555
C5 H8 1_555 1_555
C6 C5 1_555 1_555
C7 C6 1_555 1_555
H9 C7 1_555 1_555
C8 N5 1_555 1_555
C9 O1 1_555 1_555
Fe1_2 N2A 1_555 1_555
Fe1B N6F 1_555 1_555
Fe1B_2 N6G 1_555 1_555
Fe2A N3A 1_555 1_555
Fe2C N7F 1_555 1_555
Fe2A_2 O1A 1_555 1_555
Fe2A_3 N7A 1_555 1_555
Fe2B N7G 1_555 1_555
N1A N2A 1_555 1_555
N2A N3A 1_555 1_555
N2A_2 Fe1 1_555 1_555
N3A N4A 1_555 1_555
N4A C4A 1_555 1_555
N5F N6F 1_555 1_555
N5A N6A 1_555 1_555
N5G N6G 1_555 1_555
N6F N7F 1_555 1_555
N6A Fe1 1_555 1_555
N6G N7G 1_555 1_555
N6D Fe1 1_555 1_555
N6E Fe1 1_555 1_555
N7F N8F 1_555 1_555
N7A N6A 1_555 1_555
N7G N8G 1_555 1_555
N7E Fe2 1_555 1_555
N7A_2 Fe2A 1_555 1_555
N7D Fe2A 1_555 1_555
N8F C8F 1_555 1_555
N8A N7A 1_555 1_555
N8G C8G 1_555 1_555
O1A C9 1_555 1_555
O1D Fe2A_2 1_555 1_555
O1E Fe2 1_555 1_555
O1A_2 Fe2A 1_555 1_555
O1D_2 Fe2A 1_555 1_555
O2A Fe2A 1_555 1_555
H5E O2 1_555 1_555
H5A O2A 1_555 1_555
H5D O2A 1_555 1_555
C1A C3 1_555 1_555
H6A C1A 1_555 1_555
C2A C1A 1_555 1_555
C3A C1 1_555 1_555
H7A C3A 1_555 1_555
C4A N1A 1_555 1_555
C5F C7 1_555 1_555
C5A H8A 1_555 1_555
C5G H8G 1_555 1_555
H8F C5F 1_555 1_555
C6F C5F 1_555 1_555
C6A C5A 1_555 1_555
C6G C5G 1_555 1_555
C7F C5 1_555 1_555
C7A C5G 1_555 1_555
C7G C5A 1_555 1_555
H9F C7F 1_555 1_555
H9A C7A 1_555 1_555
H9G C7G 1_555 1_555
C8F N5F 1_555 1_555
C8A N5A 1_555 1_555
C8G N5G 1_555 1_555
C9D C9 1_555 1_555
N6 N7 1_555 1_555
N8 C8 1_555 1_555
C2 C4 1_555 1_555
C6 C8 1_555 1_555
N6E N7E 1_555 1_555
N8A C8A 1_555 1_555
O1D C9D 1_555 1_555
O1E C9D 1_555 1_555
C2A C3A 1_555 1_555
C2A C4A 1_555 1_555
C6F C7F 1_555 1_555
C6F C8F 1_555 1_555
C6A C7A 1_555 1_555
C6A C8A 1_555 1_555
C6G C7G 1_555 1_555
C6G C8G 1_555 1_555

#END
