
#######################################################################
#
#                 Cambridge Crystallographic Data Centre
#                                CCDC 
#
#######################################################################
#
# If this CIF has been generated from an entry in the Cambridge 
# Structural Database, then it will include bibliographic, chemical, 
# crystal, experimental, refinement or atomic coordinate data resulting 
# from the CCDC's data processing and validation procedures.
#
#######################################################################

data_DAXHUH
_chemical_formula_moiety         '(C26 H18 Fe3 N24 O6)n'
_symmetry_cell_setting           monoclinic
_symmetry_space_group_name_H-M   'C 2/m'
_symmetry_Int_Tables_number      12
_space_group_name_Hall           '-C 2y'
loop_
_symmetry_equiv_pos_site_id
_symmetry_equiv_pos_as_xyz
1 x,y,z
2 -x,y,-z
3 1/2+x,1/2+y,z
4 1/2-x,1/2+y,-z
5 -x,-y,-z
6 x,-y,z
7 1/2-x,1/2-y,-z
8 1/2+x,1/2-y,z
_cell_length_a                   12.106(2)
_cell_length_b                   24.627(3)
_cell_length_c                   12.118(2)
_cell_angle_alpha                90
_cell_angle_beta                 110.68(2)
_cell_angle_gamma                90
_cell_volume                     3380.01
loop_
_atom_site_label
_atom_site_type_symbol
_atom_site_fract_x
_atom_site_fract_y
_atom_site_fract_z
Fe1 Fe 0.5000 0.5000 0.0000
Fe2 Fe 0.39597(10) 0.5000 0.25705(11)
N1 N 0.7306(6) 0.5000 0.2120(7)
N2 N 0.6124(5) 0.5000 0.1757(6)
N3 N 0.5786(6) 0.5000 0.2648(6)
N4 N 0.6704(5) 0.5000 0.3645(6)
N5 N 0.3718(5) 0.3902(2) -0.0201(5)
N6 N 0.3978(4) 0.43858(18) 0.0358(4)
N7 N 0.3608(4) 0.4378(2) 0.1251(5)
N8 N 0.3154(5) 0.3900(2) 0.1354(5)
O1 O 0.4493(4) 0.44459(15) 0.4028(4)
O2 O 0.2187(6) 0.5000 0.2471(9)
H5 H 0.1970 0.4751 0.2848
C1 C 0.9811(11) 0.5000 0.3833(13)
H6 H 0.9705 0.5000 0.3018
C2 C 0.8856(8) 0.5000 0.4146(8)
C3 C 0.9029(11) 0.5000 0.5329(14)
H7 H 0.8371 0.5000 0.5583
C4 C 0.7634(7) 0.5000 0.3324(9)
C5 C 0.3243(7) 0.2716(3) -0.0523(8)
H8 H 0.3768 0.2860 -0.0874
C6 C 0.2865(6) 0.3044(3) 0.0183(7)
C7 C 0.2109(8) 0.2810(3) 0.0741(11)
H9 H 0.1854 0.3023 0.1260
C8 C 0.3218(6) 0.3611(3) 0.0433(6)
C9 C 0.5000 0.4682(3) 0.5000
Fe1_2 Fe 1.5000 0.5000 1.0000
Fe1B Fe 0.0000 0.0000 0.0000
Fe1B_2 Fe 1.0000 0.0000 0.0000
Fe2A Fe 1.60403(10) 0.5000 0.74295(11)
Fe2C Fe 0.10403(10) -0.0000 -0.25705(11)
Fe2A_2 Fe 0.60403(10) 0.5000 0.74295(11)
Fe2A_3 Fe 0.60403(10) 0.5000 -0.25705(11)
Fe2B Fe 0.89597(10) 0.0000 0.25705(11)
N1A N 1.2694(6) 0.5000 0.7880(7)
N2A N 1.3876(5) 0.5000 0.8243(6)
N2A_2 N 0.3876(5) 0.5000 -0.1757(6)
N3A N 1.4214(6) 0.5000 0.7352(6)
N4A N 1.3296(5) 0.5000 0.6355(6)
N5F N 0.1282(5) 0.1098(2) 0.0201(5)
N5A N 0.6282(5) 0.3902(2) 0.0201(5)
N5G N 0.8718(5) 0.1098(2) -0.0201(5)
N6F N 0.1022(4) 0.06142(18) -0.0358(4)
N6A N 0.6022(4) 0.43858(18) -0.0358(4)
N6G N 0.8978(4) 0.06142(18) 0.0358(4)
N6D N 0.6022(4) 0.56142(18) -0.0358(4)
N6E N 0.3978(4) 0.56142(18) 0.0358(4)
N7F N 0.1392(4) 0.0622(2) -0.1251(5)
N7A N 0.6392(4) 0.4378(2) -0.1251(5)
N7G N 0.8608(4) 0.0622(2) 0.1251(5)
N7E N 0.3608(4) 0.5622(2) 0.1251(5)
N7A_2 N 1.6392(4) 0.4378(2) 0.8749(5)
N7D N 1.6392(4) 0.5622(2) 0.8749(5)
N8F N 0.1846(5) 0.1100(2) -0.1354(5)
N8A N 0.6846(5) 0.3900(2) -0.1354(5)
N8G N 0.8154(5) 0.1100(2) 0.1354(5)
O1A O 0.5507(4) 0.44459(15) 0.5972(4)
O1D O 0.5507(4) 0.55541(15) 0.5972(4)
O1E O 0.4493(4) 0.55541(15) 0.4028(4)
O1A_2 O 1.5507(4) 0.44459(15) 0.5972(4)
O1D_2 O 1.5507(4) 0.55541(15) 0.5972(4)
O2A O 1.7813(6) 0.5000 0.7529(9)
H5E H 0.1970 0.5249 0.2848
H5A H 1.8030 0.4751 0.7152
H5D H 1.8030 0.5249 0.7152
C1A C 1.0189(11) 0.5000 0.6167(13)
H6A H 1.0295 0.5000 0.6982
C2A C 1.1144(8) 0.5000 0.5854(8)
C3A C 1.0971(11) 0.5000 0.4671(14)
H7A H 1.1629 0.5000 0.4417
C4A C 1.2366(7) 0.5000 0.6676(9)
C5F C 0.1757(7) 0.2284(3) 0.0523(8)
C5A C 0.6757(7) 0.2716(3) 0.0523(8)
C5G C 0.8243(7) 0.2284(3) -0.0523(8)
H8F H 0.1232 0.2140 0.0874
H8A H 0.6232 0.2860 0.0874
H8G H 0.8768 0.2140 -0.0874
C6F C 0.2135(6) 0.1956(3) -0.0183(7)
C6A C 0.7135(6) 0.3044(3) -0.0183(7)
C6G C 0.7865(6) 0.1956(3) 0.0183(7)
C7F C 0.2891(8) 0.2190(3) -0.0741(11)
C7A C 0.7891(8) 0.2810(3) -0.0741(11)
C7G C 0.7109(8) 0.2190(3) 0.0741(11)
H9F H 0.3146 0.1977 -0.1260
H9A H 0.8146 0.3023 -0.1260
H9G H 0.6854 0.1977 0.1260
C8F C 0.1782(6) 0.1389(3) -0.0433(6)
C8A C 0.6782(6) 0.3611(3) -0.0433(6)
C8G C 0.8218(6) 0.1389(3) 0.0433(6)
C9D C 0.5000 0.5318(3) 0.5000
loop_
_geom_bond_atom_site_label_1
_geom_bond_atom_site_label_2
_geom_bond_site_symmetry_1
_geom_bond_site_symmetry_2
Fe1 N2 1_555 1_555
Fe2 N3 1_555 1_555
N1 N2 1_555 1_555
N2 N3 1_555 1_555
N3 N4 1_555 1_555
N4 C4 1_555 1_555
N5 N6 1_555 1_555
N6 Fe1 1_555 1_555
N7 Fe2 1_555 1_555
N8 N7 1_555 1_555
O1 Fe2 1_555 1_555
O2 Fe2 1_555 1_555
H5 O2 1_555 1_555
C1 H6 1_555 1_555
C2 C1 1_555 1_555
C3 C2 1_555 1_555
H7 C3 1_555 1_555
C4 N1 1_555 1_555
C5 H8 1_555 1_555
C6 C5 1_555 1_555
C7 C6 1_555 1_555
H9 C7 1_555 1_555
C8 N5 1_555 1_555
C9 O1 1_555 1_555
Fe1_2 N2A 1_555 1_555
Fe1B N6F 1_555 1_555
Fe1B_2 N6G 1_555 1_555
Fe2A N3A 1_555 1_555
Fe2C N7F 1_555 1_555
Fe2A_2 O1A 1_555 1_555
Fe2A_3 N7A 1_555 1_555
Fe2B N7G 1_555 1_555
N1A N2A 1_555 1_555
N2A N3A 1_555 1_555
N2A_2 Fe1 1_555 1_555
N3A N4A 1_555 1_555
N4A C4A 1_555 1_555
N5F N6F 1_555 1_555
N5A N6A 1_555 1_555
N5G N6G 1_555 1_555
N6F N7F 1_555 1_555
N6A Fe1 1_555 1_555
N6G N7G 1_555 1_555
N6D Fe1 1_555 1_555
N6E Fe1 1_555 1_555
N7F N8F 1_555 1_555
N7A N6A 1_555 1_555
N7G N8G 1_555 1_555
N7E Fe2 1_555 1_555
N7A_2 Fe2A 1_555 1_555
N7D Fe2A 1_555 1_555
N8F C8F 1_555 1_555
N8A N7A 1_555 1_555
N8G C8G 1_555 1_555
O1A C9 1_555 1_555
O1D Fe2A_2 1_555 1_555
O1E Fe2 1_555 1_555
O1A_2 Fe2A 1_555 1_555
O1D_2 Fe2A 1_555 1_555
O2A Fe2A 1_555 1_555
H5E O2 1_555 1_555
H5A O2A 1_555 1_555
H5D O2A 1_555 1_555
C1A C3 1_555 1_555
H6A C1A 1_555 1_555
C2A C1A 1_555 1_555
C3A C1 1_555 1_555
H7A C3A 1_555 1_555
C4A N1A 1_555 1_555
C5F C7 1_555 1_555
C5A H8A 1_555 1_555
C5G H8G 1_555 1_555
H8F C5F 1_555 1_555
C6F C5F 1_555 1_555
C6A C5A 1_555 1_555
C6G C5G 1_555 1_555
C7F C5 1_555 1_555
C7A C5G 1_555 1_555
C7G C5A 1_555 1_555
H9F C7F 1_555 1_555
H9A C7A 1_555 1_555
H9G C7G 1_555 1_555
C8F N5F 1_555 1_555
C8A N5A 1_555 1_555
C8G N5G 1_555 1_555
C9D C9 1_555 1_555
N6 N7 1_555 1_555
N8 C8 1_555 1_555
C2 C4 1_555 1_555
C6 C8 1_555 1_555
N6E N7E 1_555 1_555
N8A C8A 1_555 1_555
O1D C9D 1_555 1_555
O1E C9D 1_555 1_555
C2A C3A 1_555 1_555
C2A C4A 1_555 1_555
C6F C7F 1_555 1_555
C6F C8F 1_555 1_555
C6A C7A 1_555 1_555
C6A C8A 1_555 1_555
C6G C7G 1_555 1_555
C6G C8G 1_555 1_555

#END
