
#######################################################################
#
#                 Cambridge Crystallographic Data Centre
#                                CCDC 
#
#######################################################################
#
# If this CIF has been generated from an entry in the Cambridge 
# Structural Database, then it will include bibliographic, chemical, 
# crystal, experimental, refinement or atomic coordinate data resulting 
# from the CCDC's data processing and validation procedures.
#
#######################################################################

data_MIKJAR
_chemical_formula_moiety         '(C4 H17 Ga2 N3 O10 P2)n'
_symmetry_cell_setting           rhombohedral
_symmetry_space_group_name_H-M   'R -3'
_symmetry_Int_Tables_number      148
_space_group_name_Hall           '-R 3'
loop_
_symmetry_equiv_pos_site_id
_symmetry_equiv_pos_as_xyz
1 x,y,z
2 -y,x-y,z
3 -x+y,-x,z
4 1/3+x,2/3+y,2/3+z
5 1/3-y,2/3+x-y,2/3+z
6 1/3-x+y,2/3-x,2/3+z
7 2/3+x,1/3+y,1/3+z
8 2/3-y,1/3+x-y,1/3+z
9 2/3-x+y,1/3-x,1/3+z
10 -x,-y,-z
11 y,-x+y,-z
12 x-y,x,-z
13 2/3-x,1/3-y,1/3-z
14 2/3+y,1/3-x+y,1/3-z
15 2/3+x-y,1/3+x,1/3-z
16 1/3-x,2/3-y,2/3-z
17 1/3+y,2/3-x+y,2/3-z
18 1/3+x-y,2/3+x,2/3-z
_cell_length_a                   23.7807(15)
_cell_length_b                   23.7807(15)
_cell_length_c                   13.4664(12)
_cell_angle_alpha                90
_cell_angle_beta                 90
_cell_angle_gamma                120
_cell_volume                     6595.25
loop_
_atom_site_label
_atom_site_type_symbol
_atom_site_fract_x
_atom_site_fract_y
_atom_site_fract_z
_atom_site_U_iso_or_equiv
_atom_site_thermal_displace_type
Ga1 Ga 0.3599(1) 0.0930(1) 0.1205(1) 0.0210 Uani
Ga2 Ga 0.3498(1) 0.2428(1) -0.0855(1) 0.0219 Uani
P1 P 0.4184(1) 0.2359(1) 0.1186(1) 0.0219 Uani
P2 P 0.3269(1) -0.0127(1) 0.2780(1) 0.0191 Uani
O1 O 0.3666(1) 0.2100(1) 0.0371(2) 0.0280 Uani
O2 O 0.4216(1) 0.1752(1) 0.1558(2) 0.0252 Uani
O3 O 0.3914(1) 0.2589(1) 0.2064(2) 0.0263 Uani
O4 O 0.4835(1) 0.2890(1) 0.0878(2) 0.0402 Uani
O5 O 0.3749(1) 0.0447(1) 0.2121(1) 0.0233 Uani
O6 O 0.3677(1) -0.0402(1) 0.3264(1) 0.0265 Uani
O7 O 0.2719(1) -0.0648(1) 0.2185(1) 0.0286 Uani
O8 O 0.3003(1) 0.0109(1) 0.3610(1) 0.0243 Uani
N1 N 0.4441(1) 0.2752(1) -0.1308(2) 0.0324 Uani
N2 N 0.3323(2) 0.1566(1) -0.1494(2) 0.0352 Uani
N3 N 0.2511(1) 0.1892(1) -0.0599(2) 0.0298 Uani
C1 C 0.4477(2) 0.2188(2) -0.1696(3) 0.0479 Uani
C2 C 0.3847(2) 0.1726(2) -0.2204(3) 0.0483 Uani
C3 C 0.2647(2) 0.1224(2) -0.1828(3) 0.0458 Uani
C4 C 0.2242(2) 0.1219(2) -0.0973(3) 0.0450 Uani
H1 H 0.4568 0.3047 -0.1730 0.0500 Uiso
H2 H 0.4710 0.2918 -0.0765 0.0500 Uiso
H3 H 0.3335 0.1256 -0.1000 0.0500 Uiso
H4 H 0.2276 0.2052 -0.0895 0.0500 Uiso
H5 H 0.2426 0.1866 0.0064 0.0500 Uiso
H6 H 0.4832 0.2336 -0.2137 0.0500 Uiso
H7 H 0.4499 0.1912 -0.1110 0.0500 Uiso
H8 H 0.2519 0.0792 -0.2068 0.0500 Uiso
H9 H 0.2601 0.1457 -0.2392 0.0500 Uiso
H10 H 0.3833 0.1349 -0.2500 0.0500 Uiso
H11 H 0.3742 0.1984 -0.2813 0.0500 Uiso
H12 H 0.1817 0.1054 -0.1194 0.0500 Uiso
H13 H 0.2271 0.0959 -0.0388 0.0500 Uiso
O3L O 0.2753(1) 0.0744(1) 0.1269(2) 0.0263 Uani
O6D O 0.3735(1) 0.0746(1) -0.0069(1) 0.0265 Uani
O7K O 0.3367(1) 0.2719(1) -0.2185(1) 0.0286 Uani
O8L O 0.3664(1) 0.3224(1) -0.0277(1) 0.0243 Uani
Ga1L Ga 0.3068(1) 0.2403(1) 0.2128(1) 0.0210 Uani
Ga1H Ga 0.3998(1) -0.0266(1) 0.4538(1) 0.0210 Uani
Ga2J Ga 0.2428(1) -0.1070(1) 0.0855(1) 0.0219 Uani
Ga2L Ga 0.3169(1) 0.0905(1) 0.4188(1) 0.0219 Uani
O9 O 0.5355(4) 0.1935(6) 0.0080(6) 0.1997 Uani
O10 O 0.6006(5) 0.3295(11) 0.1400(30) 0.9542 Uani
loop_
_atom_site_aniso_label
_atom_site_aniso_U_11
_atom_site_aniso_U_22
_atom_site_aniso_U_33
_atom_site_aniso_U_23
_atom_site_aniso_U_13
_atom_site_aniso_U_12
Ga1 0.02369(17) 0.02205(16) 0.01354(15) 0.00126(10) -0.00195(10) 0.00867(12)
Ga2 0.03160(18) 0.02091(16) 0.01485(15) -0.00059(10) -0.00243(11) 0.01439(13)
P1 0.0216(3) 0.0195(3) 0.0198(3) 0.0027(2) -0.0003(3) 0.0066(3)
P2 0.0246(3) 0.0192(3) 0.0114(3) -0.0004(2) -0.0005(2) 0.0094(3)
O1 0.0339(11) 0.0265(10) 0.0190(9) 0.0030(8) -0.0049(8) 0.0116(9)
O2 0.0250(10) 0.0230(10) 0.0248(10) -0.0001(8) -0.0062(8) 0.0098(8)
O3 0.0246 0.0277 0.0243 -0.0037 -0.0034 0.0114
O4 0.0291(12) 0.0296(12) 0.0476(15) 0.0076(10) 0.0083(10) 0.0039(10)
O5 0.0260(10) 0.0235(10) 0.0167(9) 0.0044(7) -0.0009(7) 0.0095(8)
O6 0.0407 0.0305 0.0153 0.0009 -0.0004 0.0231
O7 0.0304 0.0271 0.0163 -0.0044 0.0002 0.0053
O8 0.0342 0.0225 0.017 -0.0008 0.0029 0.0147
N1 0.0395(15) 0.0318(13) 0.0300(13) 0.0039(11) 0.0027(11) 0.0208(12)
N2 0.0552(18) 0.0306(14) 0.0266(13) -0.0057(11) -0.0105(12) 0.0266(13)
N3 0.0329(13) 0.0280(13) 0.0258(12) 0.0027(10) -0.0043(10) 0.0131(11)
C1 0.059(2) 0.054(2) 0.049(2) -0.0011(18) 0.0079(18) 0.042(2)
C2 0.081(3) 0.047(2) 0.0330(18) -0.0093(16) 0.0006(18) 0.044(2)
C3 0.066(3) 0.0321(17) 0.0371(19) -0.0124(15) -0.0185(17) 0.0229(18)
C4 0.046(2) 0.0305(17) 0.046(2) 0.0002(15) -0.0135(16) 0.0098(15)
O3L 0.0246 0.0277 0.0243 -0.0037 -0.0034 0.0114
O6D 0.0305 0.025 0.0153 -0.0013 -0.0009 0.0074
O7K 0.0469 0.0304 0.0163 -0.0002 -0.0046 0.0251
O8L 0.0342 0.0225 0.017 -0.0008 0.0029 0.0147
Ga1L 0.02369 0.02205 0.01354 0.00126 -0.00195 0.00867
Ga1H 0.0284 0.02369 0.01354 0.00195 0.00321 0.01502
Ga2J 0.02091 0.02373 0.01485 -0.00184 0.00059 0.00652
Ga2L 0.0316 0.02091 0.01485 -0.00059 -0.00243 0.01439
O9 0.198(8) 0.289(11) 0.187(8) -0.016(8) 0.020(6) 0.178(9)
O10 0.113(9) 0.74(4) 2.00(10) -1.00(6) -0.34(3) 0.206(16)
loop_
_geom_bond_atom_site_label_1
_geom_bond_atom_site_label_2
_geom_bond_site_symmetry_1
_geom_bond_site_symmetry_2
Ga1 O2 1_555 1_555
Ga2 O1 1_555 1_555
P1 O1 1_555 1_555
P2 O5 1_555 1_555
O2 P1 1_555 1_555
O3 P1 1_555 1_555
O4 P1 1_555 1_555
O5 Ga1 1_555 1_555
O6 P2 1_555 1_555
O7 P2 1_555 1_555
O8 P2 1_555 1_555
N1 Ga2 1_555 1_555
N2 Ga2 1_555 1_555
N3 Ga2 1_555 1_555
C1 N1 1_555 1_555
C2 N2 1_555 1_555
C3 N2 1_555 1_555
C4 N3 1_555 1_555
H1 N1 1_555 1_555
H2 N1 1_555 1_555
H3 N2 1_555 1_555
H4 N3 1_555 1_555
H5 N3 1_555 1_555
H6 C1 1_555 1_555
H7 C1 1_555 1_555
H8 C3 1_555 1_555
H9 C3 1_555 1_555
H10 C2 1_555 1_555
H11 C2 1_555 1_555
H12 C4 1_555 1_555
H13 C4 1_555 1_555
O3L Ga1 1_555 1_555
O6D Ga1 1_555 1_555
O7K Ga2 1_555 1_555
O8L Ga2 1_555 1_555
Ga1L O3 1_555 1_555
Ga1H O6 1_555 1_555
Ga2J O7 1_555 1_555
Ga2L O8 1_555 1_555
C1 C2 1_555 1_555
C3 C4 1_555 1_555

#END
