
#######################################################################
#
#                 Cambridge Crystallographic Data Centre
#                                CCDC 
#
#######################################################################
#
# If this CIF has been generated from an entry in the Cambridge 
# Structural Database, then it will include bibliographic, chemical, 
# crystal, experimental, refinement or atomic coordinate data resulting 
# from the CCDC's data processing and validation procedures.
#
#######################################################################

data_TORPUN
_chemical_formula_moiety         '(C66 H48 N2 O22 Tb2)n'
_symmetry_cell_setting           orthorhombic
_symmetry_space_group_name_H-M   'F d d 2'
_symmetry_Int_Tables_number      43
_space_group_name_Hall           'F 2 -2d'
loop_
_symmetry_equiv_pos_site_id
_symmetry_equiv_pos_as_xyz
1 x,y,z
2 -x,-y,z
3 1/4-x,1/4+y,1/4+z
4 1/4+x,1/4-y,1/4+z
5 x,1/2+y,1/2+z
6 -x,1/2-y,1/2+z
7 1/4-x,3/4+y,3/4+z
8 1/4+x,3/4-y,3/4+z
9 1/2+x,y,1/2+z
10 1/2-x,-y,1/2+z
11 3/4-x,1/4+y,3/4+z
12 3/4+x,1/4-y,3/4+z
13 1/2+x,1/2+y,z
14 1/2-x,1/2-y,z
15 3/4-x,3/4+y,1/4+z
16 3/4+x,3/4-y,1/4+z
_cell_length_a                   8.487(5)
_cell_length_b                   34.829(5)
_cell_length_c                   52.441(5)
_cell_angle_alpha                90
_cell_angle_beta                 90
_cell_angle_gamma                90
_cell_volume                     15501.2
loop_
_atom_site_label
_atom_site_type_symbol
_atom_site_fract_x
_atom_site_fract_y
_atom_site_fract_z
O11 O 0.235(4) -0.2985(11) 0.1127(7)
O12 O 0.293(5) -0.3286(15) 0.0776(8)
Tb1 Tb 0.2500 0.2500 0.381316(11)
Tb2 Tb -0.2500 0.2500 0.355653(12)
O1 O 0.3065(11) 0.1649(3) 0.21505(17)
O2 O 0.1896(14) 0.2121(3) 0.3445(2)
O3 O -0.0577(14) 0.2204(3) 0.3336(2)
O4 O -0.1897(11) 0.2988(3) 0.22253(19)
O5 O -0.3153(12) 0.4583(3) 0.1463(2)
O6 O -0.0513(14) 0.4580(3) 0.1382(2)
O7 O 0.0644(17) 0.2411(3) 0.1153(3)
O8 O 0.3798(10) 0.0576(3) 0.08850(19)
O9 O 0.2329(11) 0.03338(19) 0.1193(3)
O10 O 0.1438(11) 0.2819(3) 0.41943(18)
N1 N -0.0230(19) 0.2995(6) 0.4502(3)
C1 C 0.1132(14) 0.2101(4) 0.2036(2)
C2 C 0.0305(15) 0.2427(4) 0.2104(3)
H1 H 0.0232 0.2494 0.2275
C3 C -0.0443(14) 0.2665(4) 0.1916(3)
C4 C -0.0343(15) 0.2568(4) 0.1664(3)
H2 H -0.0840 0.2719 0.1541
C5 C 0.0518(16) 0.2240(4) 0.1590(3)
C6 C 0.1239(15) 0.2013(4) 0.1778(3)
H3 H 0.1805 0.1797 0.1729
C7 C 0.2042(16) 0.1868(4) 0.2212(3)
C8 C 0.1720(15) 0.1921(4) 0.2496(3)
C9 C 0.2972(15) 0.1934(4) 0.2662(3)
H4 H 0.3994 0.1903 0.2601
C10 C 0.2697(14) 0.1996(4) 0.2928(3)
H5 H 0.3533 0.2012 0.3042
C11 C 0.1148(14) 0.2032(3) 0.3012(3)
C12 C -0.0146(14) 0.1993(4) 0.2847(2)
H6 H -0.1170 0.1996 0.2911
C13 C 0.0130(14) 0.1948(4) 0.2588(3)
H7 H -0.0710 0.1937 0.2475
C14 C 0.0857(16) 0.2118(4) 0.3293(3)
C15 C -0.1305(14) 0.3003(4) 0.2007(3)
C16 C -0.1478(12) 0.3354(3) 0.1852(2)
C17 C -0.2681(13) 0.3607(4) 0.1909(3)
H8 H -0.3411 0.3545 0.2034
C18 C -0.2799(13) 0.3946(4) 0.1782(3)
H9 H -0.3634 0.4111 0.1817
C19 C -0.1684(13) 0.4047(4) 0.1602(2)
C20 C -0.0470(13) 0.3802(3) 0.1552(2)
H10 H 0.0294 0.3868 0.1432
C21 C -0.0380(15) 0.3463(4) 0.1675(3)
H11 H 0.0452 0.3298 0.1638
C22 C -0.1804(16) 0.4432(4) 0.1469(2)
C23 C 0.0742(18) 0.2158(4) 0.1308(3)
C24 C 0.1173(16) 0.1753(4) 0.1232(3)
C25 C 0.2202(18) 0.1701(4) 0.1039(3)
H12 H 0.2592 0.1911 0.0950
C26 C 0.2680(19) 0.1331(5) 0.0974(3)
H13 H 0.3414 0.1298 0.0844
C27 C 0.2081(14) 0.1006(4) 0.1099(2)
C28 C 0.0973(15) 0.1076(4) 0.1286(3)
H14 H 0.0515 0.0871 0.1372
C29 C 0.0550(17) 0.1436(5) 0.1345(3)
H15 H -0.0211 0.1471 0.1471
C30 C 0.2738(13) 0.0611(4) 0.1054(3)
C31 C 0.010(2) 0.2850(8) 0.4281(4)
H16 H -0.0730 0.2764 0.4181
C32 C -0.179(3) 0.3050(8) 0.4603(4)
H17 H -0.1723 0.3148 0.4773
H18 H -0.2338 0.2808 0.4604
H19 H -0.2356 0.3229 0.4497
C33 C 0.096(2) 0.3102(7) 0.4674(4)
H20 H 0.0483 0.3187 0.4831
H21 H 0.1571 0.3307 0.4603
H22 H 0.1625 0.2885 0.4708
O1M O -0.8065(11) 0.3351(3) 0.21505(17)
O2M O -0.6896(14) 0.2879(3) 0.3445(2)
O3M O -0.4423(14) 0.2796(3) 0.3336(2)
O4M O -0.3103(11) 0.2012(3) 0.22253(19)
O5M O -0.1847(12) 0.0417(3) 0.1463(2)
O6M O -0.4487(14) 0.0420(3) 0.1382(2)
O7M O -0.5644(17) 0.2589(3) 0.1153(3)
O8M O -0.8798(10) 0.4424(3) 0.08850(19)
O9M O -0.7329(11) 0.46662(19) 0.1193(3)
C1M C -0.6132(14) 0.2899(4) 0.2036(2)
C2M C -0.5305(15) 0.2573(4) 0.2104(3)
H1M H -0.5232 0.2506 0.2275
C3M C -0.4557(14) 0.2335(4) 0.1916(3)
C4M C -0.4657(15) 0.2432(4) 0.1664(3)
H2M H -0.4160 0.2281 0.1541
C5M C -0.5518(16) 0.2760(4) 0.1590(3)
C6M C -0.6239(15) 0.2987(4) 0.1778(3)
H3M H -0.6805 0.3203 0.1729
C7M C -0.7042(16) 0.3132(4) 0.2212(3)
C8M C -0.6720(15) 0.3079(4) 0.2496(3)
C9M C -0.7972(15) 0.3066(4) 0.2662(3)
H4M H -0.8994 0.3097 0.2601
C10M C -0.7697(14) 0.3004(4) 0.2928(3)
H5M H -0.8533 0.2988 0.3042
C11M C -0.6148(14) 0.2968(3) 0.3012(3)
C12M C -0.4854(14) 0.3007(4) 0.2847(2)
H6M H -0.3830 0.3004 0.2911
C13M C -0.5130(14) 0.3052(4) 0.2588(3)
H7M H -0.4290 0.3063 0.2475
C14M C -0.5857(16) 0.2882(4) 0.3293(3)
C15M C -0.3695(14) 0.1997(4) 0.2007(3)
C16M C -0.3522(12) 0.1646(3) 0.1852(2)
C17M C -0.2319(13) 0.1393(4) 0.1909(3)
H8M H -0.1589 0.1455 0.2034
C18M C -0.2201(13) 0.1054(4) 0.1782(3)
H9M H -0.1366 0.0889 0.1817
C19M C -0.3316(13) 0.0953(4) 0.1602(2)
C20M C -0.4530(13) 0.1198(3) 0.1552(2)
H10M H -0.5294 0.1132 0.1432
C21M C -0.4620(15) 0.1537(4) 0.1675(3)
H11M H -0.5452 0.1702 0.1638
C22M C -0.3196(16) 0.0568(4) 0.1469(2)
C23M C -0.5742(18) 0.2842(4) 0.1308(3)
C24M C -0.6173(16) 0.3247(4) 0.1232(3)
C25M C -0.7202(18) 0.3299(4) 0.1039(3)
H12M H -0.7592 0.3089 0.0950
C26M C -0.7680(19) 0.3669(5) 0.0974(3)
H13M H -0.8414 0.3702 0.0844
C27M C -0.7081(14) 0.3994(4) 0.1099(2)
C28M C -0.5973(15) 0.3924(4) 0.1286(3)
H14M H -0.5515 0.4129 0.1372
C29M C -0.5550(17) 0.3564(5) 0.1345(3)
H15M H -0.4789 0.3529 0.1471
C30M C -0.7738(13) 0.4389(4) 0.1054(3)
O10M O 0.3562(11) 0.2181(3) 0.41943(18)
N1M N 0.5230(19) 0.2005(6) 0.4502(3)
C31M C 0.490(2) 0.2150(8) 0.4281(4)
H16M H 0.5730 0.2236 0.4181
C32M C 0.679(3) 0.1950(8) 0.4603(4)
H17M H 0.6723 0.1852 0.4773
H18M H 0.7338 0.2192 0.4604
H19M H 0.7356 0.1771 0.4497
C33M C 0.404(2) 0.1898(7) 0.4674(4)
H20M H 0.4517 0.1813 0.4831
H21M H 0.3429 0.1693 0.4603
H22M H 0.3375 0.2115 0.4708
Tb1_2 Tb -0.7500 0.2500 0.381316(11)
Tb1F Tb 0.0000 0.0000 0.131316(11)
Tb1G Tb -0.5000 0.5000 0.131316(11)
Tb2F Tb -0.5000 0.0000 0.105653(12)
Tb2F_2 Tb 0.5000 0.0000 0.105653(12)
Tb2G Tb -1.0000 0.5000 0.105653(12)
Tb2G_2 Tb 0.0000 0.5000 0.105653(12)
O2M_2 O 0.3104(14) 0.2879(3) 0.3445(2)
O5N O 0.0653(12) 0.2083(3) 0.3963(2)
O5O O 0.4347(12) 0.2917(3) 0.3963(2)
O6N O -0.1987(14) 0.2080(3) 0.3882(2)
O6O O -0.3013(14) 0.2920(3) 0.3882(2)
O8B O -0.1298(10) 0.3076(3) 0.33850(19)
O8C O -0.3702(10) 0.1924(3) 0.33850(19)
O9B O 0.0171(11) 0.28338(19) 0.3693(3)
O9C O -0.5171(11) 0.21662(19) 0.3693(3)
O9C_2 O 0.4829(11) 0.21662(19) 0.3693(3)
loop_
_geom_bond_atom_site_label_1
_geom_bond_atom_site_label_2
_geom_bond_site_symmetry_1
_geom_bond_site_symmetry_2
Tb1 O2 1_555 1_555
Tb2 O3 1_555 1_555
O1 C7 1_555 1_555
O2 C14 1_555 1_555
O3 C14 1_555 1_555
O4 C15 1_555 1_555
O5 C22 1_555 1_555
O6 C22 1_555 1_555
O7 C23 1_555 1_555
O8 C30 1_555 1_555
O9 C30 1_555 1_555
O10 Tb1 1_555 1_555
N1 C31 1_555 1_555
C1 C2 1_555 1_555
C2 H1 1_555 1_555
C3 C2 1_555 1_555
C4 C3 1_555 1_555
H2 C4 1_555 1_555
C5 C4 1_555 1_555
C6 C1 1_555 1_555
H3 C6 1_555 1_555
C7 C1 1_555 1_555
C8 C7 1_555 1_555
C9 C8 1_555 1_555
H4 C9 1_555 1_555
C10 C9 1_555 1_555
H5 C10 1_555 1_555
C11 C10 1_555 1_555
C12 C11 1_555 1_555
H6 C12 1_555 1_555
C13 C8 1_555 1_555
H7 C13 1_555 1_555
C14 C11 1_555 1_555
C15 C3 1_555 1_555
C16 C15 1_555 1_555
C17 C16 1_555 1_555
H8 C17 1_555 1_555
C18 C17 1_555 1_555
H9 C18 1_555 1_555
C19 C18 1_555 1_555
C20 C19 1_555 1_555
H10 C20 1_555 1_555
C21 C16 1_555 1_555
H11 C21 1_555 1_555
C22 C19 1_555 1_555
C23 C5 1_555 1_555
C24 C23 1_555 1_555
C25 C24 1_555 1_555
H12 C25 1_555 1_555
C26 C25 1_555 1_555
H13 C26 1_555 1_555
C27 C26 1_555 1_555
C28 C27 1_555 1_555
H14 C28 1_555 1_555
C29 C24 1_555 1_555
H15 C29 1_555 1_555
C30 C27 1_555 1_555
C31 O10 1_555 1_555
H16 C31 1_555 1_555
C32 N1 1_555 1_555
H17 C32 1_555 1_555
H18 C32 1_555 1_555
H19 C32 1_555 1_555
C33 N1 1_555 1_555
H20 C33 1_555 1_555
H21 C33 1_555 1_555
H22 C33 1_555 1_555
O1M C7M 1_555 1_555
O2M C14M 1_555 1_555
O3M Tb2 1_555 1_555
O4M C15M 1_555 1_555
O5M C22M 1_555 1_555
O6M C22M 1_555 1_555
O7M C23M 1_555 1_555
O8M C30M 1_555 1_555
O9M C30M 1_555 1_555
C1M C2M 1_555 1_555
C2M H1M 1_555 1_555
C3M C2M 1_555 1_555
C4M C3M 1_555 1_555
H2M C4M 1_555 1_555
C5M C4M 1_555 1_555
C6M C1M 1_555 1_555
H3M C6M 1_555 1_555
C7M C1M 1_555 1_555
C8M C7M 1_555 1_555
C9M C8M 1_555 1_555
H4M C9M 1_555 1_555
C10M C9M 1_555 1_555
H5M C10M 1_555 1_555
C11M C10M 1_555 1_555
C12M C11M 1_555 1_555
H6M C12M 1_555 1_555
C13M C8M 1_555 1_555
H7M C13M 1_555 1_555
C14M O3M 1_555 1_555
C15M C3M 1_555 1_555
C16M C15M 1_555 1_555
C17M C16M 1_555 1_555
H8M C17M 1_555 1_555
C18M C17M 1_555 1_555
H9M C18M 1_555 1_555
C19M C18M 1_555 1_555
C20M C19M 1_555 1_555
H10M C20M 1_555 1_555
C21M C16M 1_555 1_555
H11M C21M 1_555 1_555
C22M C19M 1_555 1_555
C23M C5M 1_555 1_555
C24M C23M 1_555 1_555
C25M C24M 1_555 1_555
H12M C25M 1_555 1_555
C26M C25M 1_555 1_555
H13M C26M 1_555 1_555
C27M C26M 1_555 1_555
C28M C27M 1_555 1_555
H14M C28M 1_555 1_555
C29M C24M 1_555 1_555
H15M C29M 1_555 1_555
C30M C27M 1_555 1_555
O10M Tb1 1_555 1_555
N1M C31M 1_555 1_555
C31M O10M 1_555 1_555
H16M C31M 1_555 1_555
C32M N1M 1_555 1_555
H17M C32M 1_555 1_555
H18M C32M 1_555 1_555
H19M C32M 1_555 1_555
C33M N1M 1_555 1_555
H20M C33M 1_555 1_555
H21M C33M 1_555 1_555
H22M C33M 1_555 1_555
Tb1_2 O2M 1_555 1_555
Tb1F O9 1_555 1_555
Tb1G O5 1_555 1_555
Tb2F O6M 1_555 1_555
Tb2F_2 O8 1_555 1_555
Tb2G O8M 1_555 1_555
Tb2G_2 O6 1_555 1_555
O2M_2 Tb1 1_555 1_555
O5N Tb1 1_555 1_555
O5O Tb1 1_555 1_555
O6N Tb2 1_555 1_555
O6O Tb2 1_555 1_555
O8B Tb2 1_555 1_555
O8C Tb2 1_555 1_555
O9B Tb1 1_555 1_555
O9C Tb2 1_555 1_555
O9C_2 Tb1 1_555 1_555
Tb2 O9B 1_555 1_555
O9 Tb2F_2 1_555 1_555
C5 C6 1_555 1_555
C12 C13 1_555 1_555
C20 C21 1_555 1_555
C28 C29 1_555 1_555
O5M Tb1F 1_555 1_555
O9M Tb1G 1_555 1_555
O9M Tb2G 1_555 1_555
C5M C6M 1_555 1_555
C11M C14M 1_555 1_555
C12M C13M 1_555 1_555
C20M C21M 1_555 1_555
C28M C29M 1_555 1_555
Tb1_2 O9C 1_555 1_555

#END
