
#######################################################################
#
#                 Cambridge Crystallographic Data Centre
#                                CCDC 
#
#######################################################################
#
# If this CIF has been generated from an entry in the Cambridge 
# Structural Database, then it will include bibliographic, chemical, 
# crystal, experimental, refinement or atomic coordinate data resulting 
# from the CCDC's data processing and validation procedures.
#
#######################################################################

data_GIYSUD
_chemical_formula_moiety         '(C37 H49 Cd3 N5 O16)n'
_symmetry_cell_setting           triclinic
_symmetry_space_group_name_H-M   'P -1'
_symmetry_Int_Tables_number      2
_space_group_name_Hall           '-P 1'
loop_
_symmetry_equiv_pos_site_id
_symmetry_equiv_pos_as_xyz
1 x,y,z
2 -x,-y,-z
_cell_length_a                   8.969(3)
_cell_length_b                   9.419(3)
_cell_length_c                   17.290(5)
_cell_angle_alpha                100.468(5)
_cell_angle_beta                 92.754(6)
_cell_angle_gamma                117.702(4)
_cell_volume                     1256.88
loop_
_atom_site_label
_atom_site_type_symbol
_atom_site_fract_x
_atom_site_fract_y
_atom_site_fract_z
Cd1 Cd 0.54275(4) 0.15036(4) 0.200717(19)
Cd2 Cd 0.5000 0.0000 0.0000
N1 N 0.7194(6) 0.2786(5) 0.3179(3)
N2 N 0.2534(11) 0.4276(12) 0.2354(4)
O1 O 0.6812(5) 0.3661(4) 0.1452(2)
O2 O 0.6403(4) 0.2720(4) 0.0133(2)
O3 O 1.2708(4) 0.9272(4) 0.1862(2)
O4 O 1.3159(4) 1.0374(4) 0.0822(2)
O5 O 0.6413(6) 0.9028(5) 0.2157(2)
O6 O 0.6484(4) 1.0208(4) 0.1166(2)
O7 O 0.4034(6) 0.2951(6) 0.2540(3)
C1 C 0.6888(5) 0.3838(5) 0.0751(3)
C2 C 0.7637(5) 0.5598(5) 0.0641(3)
H1 H 0.749(5) 0.551(5) 0.008(2)
C3 C 0.6732(5) 0.6474(5) 0.1082(3)
H2 H 0.5524 0.5869 0.0875
H3 H 0.6865 0.6485 0.1643
C4 C 0.7463(6) 0.8244(5) 0.0981(3)
H4 H 0.703(6) 0.821(6) 0.035(3)
C5 C 0.6698(6) 0.9179(5) 0.1480(3)
C6 C 0.9395(5) 0.9203(5) 0.1265(3)
H5 H 0.9850 1.0294 0.1160
H6 H 0.9609 0.9332 0.1836
C7 C 1.0315(6) 0.8330(5) 0.0852(3)
H7 H 1.025(5) 0.834(5) 0.036(3)
C8 C 1.2189(5) 0.9354(5) 0.1191(3)
C9 C 0.9533(5) 0.6542(5) 0.0948(3)
H8 H 1.0094 0.5996 0.0658
H9 H 0.9719 0.6545 0.1506
C10 C 0.7915(8) 0.4408(7) 0.3409(4)
H10 H 0.7668 0.4972 0.3078
C11 C 0.9014(8) 0.5312(7) 0.4113(4)
H11 H 0.9486 0.6453 0.4243
C12 C 0.9411(7) 0.4542(6) 0.4618(3)
C13 C 0.8647(10) 0.2851(8) 0.4384(4)
H12 H 0.8864 0.2261 0.4709
C14 C 0.7563(10) 0.2024(7) 0.3672(4)
H13 H 0.7068 0.0881 0.3529
C15 C 0.3392(9) 0.3495(9) 0.2153(4)
H14 H 0.3518 0.3342 0.1618
C17 C 0.315(3) 0.538(3) 0.3205(14)
C18 C 0.1790(19) 0.4872(19) 0.1807(8)
Cd1A Cd 0.45725(4) -0.15036(4) -0.200717(19)
Cd1_2 Cd 1.54275(4) 1.15036(4) 0.200717(19)
Cd1_3 Cd 0.54275(4) 1.15036(4) 0.200717(19)
Cd1A_2 Cd 1.45725(4) 0.84964(4) 0.799283(19)
Cd1A_3 Cd -0.54275(4) -1.15036(4) -0.200717(19)
Cd1A_4 Cd 0.45725(4) -1.15036(4) -0.200717(19)
Cd2_2 Cd 1.5000 1.0000 0.0000
Cd2_3 Cd 0.5000 1.0000 0.0000
Cd2_4 Cd -0.5000 -1.0000 0.0000
Cd2_5 Cd 0.5000 -1.0000 0.0000
N1A N 1.2806(6) 0.7214(5) 0.6821(3)
N1A_2 N 0.2806(6) -0.2786(5) -0.3179(3)
N2A N 0.7466(11) -0.4276(12) -0.2354(4)
O1A O 0.3188(5) -0.3661(4) -0.1452(2)
O2A O 0.3597(4) -0.2720(4) -0.0133(2)
O3A O -0.2708(4) -0.9272(4) -0.1862(2)
O3_2 O 0.2708(4) -0.0728(4) 0.1862(2)
O3A_2 O 0.7292(4) 0.0728(4) -0.1862(2)
O4A O -0.3159(4) -1.0374(4) -0.0822(2)
O4_2 O 0.3159(4) 0.0374(4) 0.0822(2)
O4A_2 O 0.6841(4) -0.0374(4) -0.0822(2)
O5A O 0.3587(6) -0.9028(5) -0.2157(2)
O6A O 0.3516(4) -1.0208(4) -0.1166(2)
O6_2 O 0.6484(4) 0.0208(4) 0.1166(2)
O6A_2 O 0.3516(4) -0.0208(4) -0.1166(2)
O7A O 0.5966(6) -0.2951(6) -0.2540(3)
C1A C 0.3112(5) -0.3838(5) -0.0751(3)
C2A C 0.2363(5) -0.5598(5) -0.0641(3)
H1A H 0.251(5) -0.551(5) -0.008(2)
C3A C 0.3268(5) -0.6474(5) -0.1082(3)
H2A H 0.4476 -0.5869 -0.0875
H3A H 0.3135 -0.6485 -0.1643
C4A C 0.2537(6) -0.8244(5) -0.0981(3)
H4A H 0.297(6) -0.821(6) -0.035(3)
C5A C 0.3302(6) -0.9179(5) -0.1480(3)
C6A C 0.0605(5) -0.9203(5) -0.1265(3)
H5A H 0.0150 -1.0294 -0.1160
H6A H 0.0391 -0.9332 -0.1836
C7A C -0.0315(6) -0.8330(5) -0.0852(3)
H7A H -0.025(5) -0.834(5) -0.036(3)
C8A C -0.2189(5) -0.9354(5) -0.1191(3)
C9A C 0.0467(5) -0.6542(5) -0.0948(3)
H8A H -0.0094 -0.5996 -0.0658
H9A H 0.0281 -0.6545 -0.1506
C10A C 1.2085(8) 0.5592(7) 0.6591(4)
H10A H 1.2332 0.5028 0.6922
C11A C 1.0986(8) 0.4688(7) 0.5887(4)
H11A H 1.0514 0.3547 0.5757
C12A C 1.0589(7) 0.5458(6) 0.5382(3)
C13A C 1.1353(10) 0.7149(8) 0.5616(4)
H12A H 1.1136 0.7739 0.5291
C14A C 1.2437(10) 0.7976(7) 0.6328(4)
H13A H 1.2932 0.9119 0.6471
C15A C 0.6608(9) -0.3495(9) -0.2153(4)
H14A H 0.6482 -0.3342 -0.1618
C17A C 0.685(3) -0.538(3) -0.3205(14)
C18A C 0.8210(19) -0.4872(19) -0.1807(8)
N3 N 0.736(4) 0.882(3) 0.5417(15)
O8 O 0.8701(13) 1.1320(15) 0.6715(6)
C19 C 0.872(3) 0.966(3) 0.5059(10)
C20 C 0.778(5) 0.981(4) 0.623(2)
C21 C 0.594(4) 0.761(4) 0.5132(18)
O9 O 0.7917(15) 0.8247(14) 0.3395(5)
loop_
_geom_bond_atom_site_label_1
_geom_bond_atom_site_label_2
_geom_bond_site_symmetry_1
_geom_bond_site_symmetry_2
Cd1 N1 1_555 1_555
Cd2 O2 1_555 1_555
N1 C10 1_555 1_555
N2 C15 1_555 1_555
N3 C19 1_555 1_555
O1 Cd1 1_555 1_555
O2 C1 1_555 1_555
O3 C8 1_555 1_555
O4 C8 1_555 1_555
O5 C5 1_555 1_555
O6 C5 1_555 1_555
O7 Cd1 1_555 1_555
O8 C20 1_555 1_555
C1 O1 1_555 1_555
C2 C1 1_555 1_555
H1 C2 1_555 1_555
C3 C2 1_555 1_555
H2 C3 1_555 1_555
H3 C3 1_555 1_555
C4 C3 1_555 1_555
H4 C4 1_555 1_555
C5 C4 1_555 1_555
C6 C4 1_555 1_555
H5 C6 1_555 1_555
H6 C6 1_555 1_555
C7 C6 1_555 1_555
H7 C7 1_555 1_555
C8 C7 1_555 1_555
C9 C2 1_555 1_555
H8 C9 1_555 1_555
H9 C9 1_555 1_555
C10 H10 1_555 1_555
C11 C10 1_555 1_555
H11 C11 1_555 1_555
C12 C11 1_555 1_555
C13 C12 1_555 1_555
H12 C13 1_555 1_555
C14 N1 1_555 1_555
H13 C14 1_555 1_555
C15 O7 1_555 1_555
H14 C15 1_555 1_555
C17 N2 1_555 1_555
C18 N2 1_555 1_555
C20 N3 1_555 1_555
C21 N3 1_555 1_555
Cd1A N1A_2 1_555 1_555
Cd1_2 O3 1_555 1_555
Cd1_3 O6 1_555 1_555
Cd1A_2 N1A 1_555 1_555
Cd1A_3 O3A 1_555 1_555
Cd1A_4 O6A 1_555 1_555
Cd2_2 O4 1_555 1_555
Cd2_3 O6 1_555 1_555
Cd2_4 O4A 1_555 1_555
Cd2_5 O6A 1_555 1_555
N1A C10A 1_555 1_555
N2A C15A 1_555 1_555
O1A Cd1A 1_555 1_555
O2A Cd2 1_555 1_555
O3A C8A 1_555 1_555
O3_2 Cd1 1_555 1_555
O3A_2 Cd1A 1_555 1_555
O4A Cd1A_3 1_555 1_555
O4_2 Cd1 1_555 1_555
O4A_2 Cd2 1_555 1_555
O5A C5A 1_555 1_555
O6A C5A 1_555 1_555
O6_2 Cd1 1_555 1_555
O6A_2 Cd2 1_555 1_555
O7A Cd1A 1_555 1_555
C1A O1A 1_555 1_555
C2A C1A 1_555 1_555
H1A C2A 1_555 1_555
C3A C2A 1_555 1_555
H2A C3A 1_555 1_555
H3A C3A 1_555 1_555
C4A C3A 1_555 1_555
H4A C4A 1_555 1_555
C5A C4A 1_555 1_555
C6A C4A 1_555 1_555
H5A C6A 1_555 1_555
H6A C6A 1_555 1_555
C7A C6A 1_555 1_555
H7A C7A 1_555 1_555
C8A O4A 1_555 1_555
C9A C2A 1_555 1_555
H8A C9A 1_555 1_555
H9A C9A 1_555 1_555
C10A H10A 1_555 1_555
C11A C10A 1_555 1_555
H11A C11A 1_555 1_555
C12A C12 1_555 1_555
C13A C12A 1_555 1_555
H12A C13A 1_555 1_555
C14A N1A 1_555 1_555
H13A C14A 1_555 1_555
C15A O7A 1_555 1_555
H14A C15A 1_555 1_555
C17A N2A 1_555 1_555
C18A N2A 1_555 1_555
Cd2 O4_2 1_555 1_555
Cd2 O6_2 1_555 1_555
O4 Cd1_2 1_555 1_555
C7 C9 1_555 1_555
C13 C14 1_555 1_555
Cd1A O4A_2 1_555 1_555
Cd1A O6A_2 1_555 1_555
O2A C1A 1_555 1_555
C7A C8A 1_555 1_555
C7A C9A 1_555 1_555
C11A C12A 1_555 1_555
C13A C14A 1_555 1_555

#END
