
#######################################################################
#
#                 Cambridge Crystallographic Data Centre
#                                CCDC 
#
#######################################################################
#
# If this CIF has been generated from an entry in the Cambridge 
# Structural Database, then it will include bibliographic, chemical, 
# crystal, experimental, refinement or atomic coordinate data resulting 
# from the CCDC's data processing and validation procedures.
#
#######################################################################

data_PEQTEM
_chemical_formula_moiety         '(C36 H26 Cu1 Dy2 N6 O16 2+)n'
_symmetry_cell_setting           monoclinic
_symmetry_space_group_name_H-M   'C 2/c'
_symmetry_Int_Tables_number      15
_space_group_name_Hall           '-C 2yc'
loop_
_symmetry_equiv_pos_site_id
_symmetry_equiv_pos_as_xyz
1 x,y,z
2 -x,y,1/2-z
3 1/2+x,1/2+y,z
4 1/2-x,1/2+y,1/2-z
5 -x,-y,-z
6 x,-y,1/2+z
7 1/2-x,1/2-y,-z
8 1/2+x,1/2-y,1/2+z
_cell_length_a                   17.6348(11)
_cell_length_b                   16.9383(6)
_cell_length_c                   19.9934(12)
_cell_angle_alpha                90
_cell_angle_beta                 107.770(7)
_cell_angle_gamma                90
_cell_volume                     5687.17
loop_
_atom_site_label
_atom_site_type_symbol
_atom_site_fract_x
_atom_site_fract_y
_atom_site_fract_z
Cu1 Cu 0.5000 0.93937(8) 0.2500
Dy1 Dy 0.47504(3) 0.43827(2) 0.08381(2)
C1 C 0.4891(6) 0.2807(6) 0.1233(5)
C2 C 0.4958(5) 0.1930(5) 0.1398(5)
C3 C 0.4296(5) 0.1483(5) 0.1319(4)
H1 H 0.3793 0.1703 0.1130
C4 C 0.4377(5) 0.0693(5) 0.1524(5)
C5 C 0.5737(5) 0.0775(6) 0.1812(7)
H2 H 0.6230 0.0525 0.1963
C6 C 0.5705(6) 0.1561(6) 0.1622(5)
H3 H 0.6167 0.1838 0.1641
C7 C 0.3711(4) 0.0172(5) 0.1484(5)
C8 C 0.2953(5) 0.0326(5) 0.1029(5)
H4 H 0.2872 0.0760 0.0731
C9 C 0.2314(5) -0.0164(5) 0.1015(6)
C10 C 0.2481(5) -0.0813(6) 0.1480(6)
H5 H 0.2079 -0.1158 0.1502
C11 C 0.3256(5) -0.0925(5) 0.1901(5)
H6 H 0.3368 -0.1362 0.2196
C12 C 0.1498(6) -0.0008(6) 0.0529(8)
N1 N 0.3841(4) -0.0450(4) 0.1905(4)
N2 N 0.5090(5) 0.0366(4) 0.1787(5)
O1 O 0.5580(9) 0.3151(10) 0.1239(9)
O2 O 0.4203(4) 0.3102(4) 0.0994(4)
O3 O 0.0942(9) -0.0299(10) 0.0854(12)
O4 O 0.5711(13) 0.4630(11) 0.2021(9)
O5 O 0.1463(4) 0.0421(4) 0.0024(5)
C13 C 0.4984(7) 0.6361(6) 0.0612(7)
C14 C 0.5034(6) 0.7078(5) 0.1063(5)
C15 C 0.4962(5) 0.7040(5) 0.1724(5)
H7 H 0.4871 0.6554 0.1902
C16 C 0.5025(5) 0.7725(5) 0.2144(4)
C17 C 0.5187(6) 0.8470(6) 0.1226(5)
H8 H 0.5238 0.8963 0.1041
C18 C 0.5162(6) 0.7808(6) 0.0813(5)
H9 H 0.5230 0.7857 0.0371
N3 N 0.5140(4) 0.8430(4) 0.1884(4)
O6 O 0.4711(5) 0.5733(4) 0.0860(4)
O7 O 0.5198(4) 0.6393(4) 0.0097(4)
O8 O 0.3577(13) 0.4652(11) 0.1265(12)
C13A C 0.5016(7) 0.6361(6) 0.4388(7)
C14A C 0.4966(6) 0.7078(5) 0.3937(5)
C15A C 0.5038(5) 0.7040(5) 0.3276(5)
H7A H 0.5129 0.6554 0.3098
C16A C 0.4975(5) 0.7725(5) 0.2856(4)
C17A C 0.4813(6) 0.8470(6) 0.3774(5)
H8A H 0.4762 0.8963 0.3959
C18A C 0.4838(6) 0.7808(6) 0.4187(5)
H9A H 0.4770 0.7857 0.4629
N3A N 0.4860(4) 0.8430(4) 0.3116(4)
O6A O 0.5289(5) 0.5733(4) 0.4140(4)
O7A O 0.4802(4) 0.6393(4) 0.4903(4)
Dy1A Dy 0.52496(3) 0.43827(2) 0.41619(2)
C1A C 0.5109(6) 0.2807(6) 0.3767(5)
C2A C 0.5042(5) 0.1930(5) 0.3602(5)
C3A C 0.5704(5) 0.1483(5) 0.3681(4)
H1A H 0.6207 0.1703 0.3870
C4A C 0.5623(5) 0.0693(5) 0.3476(5)
C5A C 0.4263(5) 0.0775(6) 0.3188(7)
H2A H 0.3770 0.0525 0.3037
C6A C 0.4295(6) 0.1561(6) 0.3378(5)
H3A H 0.3833 0.1838 0.3359
C7A C 0.6289(4) 0.0172(5) 0.3516(5)
C8A C 0.7047(5) 0.0326(5) 0.3971(5)
H4A H 0.7128 0.0760 0.4269
C9A C 0.7686(5) -0.0164(5) 0.3985(6)
C10A C 0.7519(5) -0.0813(6) 0.3520(6)
H5A H 0.7921 -0.1158 0.3498
C11A C 0.6744(5) -0.0925(5) 0.3099(5)
H6A H 0.6632 -0.1362 0.2804
C12A C 0.8502(6) -0.0008(6) 0.4471(8)
N1A N 0.6159(4) -0.0450(4) 0.3095(4)
N2A N 0.4910(5) 0.0366(4) 0.3213(5)
O1A O 0.4420(9) 0.3151(10) 0.3761(9)
O2A O 0.5797(4) 0.3102(4) 0.4006(4)
O3A O 0.9058(9) -0.0299(10) 0.4146(12)
O4A O 0.4289(13) 0.4630(11) 0.2979(9)
O5A O 0.8537(4) 0.0421(4) 0.4976(5)
O8A O 0.6423(13) 0.4652(11) 0.3735(12)
Cu1_2 Cu 0.5000 -0.06063(8) 0.2500
Dy1B Dy -0.02496(3) -0.06173(2) 0.08381(2)
Dy1C Dy 1.02496(3) -0.06173(2) 0.41619(2)
Dy1D Dy 0.52496(3) 0.56173(2) -0.08381(2)
Dy1E Dy 0.47504(3) 0.56173(2) 0.58381(2)
Dy1F Dy 0.02496(3) 0.06173(2) -0.08381(2)
Dy1G Dy 0.97504(3) 0.06173(2) 0.58381(2)
N1_2 N 0.3841(4) 0.9550(4) 0.1905(4)
N1A_2 N 0.6159(4) 0.9550(4) 0.3095(4)
N2_2 N 0.5090(5) 1.0366(4) 0.1787(5)
N2A_2 N 0.4910(5) 1.0366(4) 0.3213(5)
O3B O 0.5942(9) 0.4701(10) 0.0854(12)
O3C O 0.4058(9) 0.4701(10) 0.4146(12)
O5F O 0.3537(4) 0.4579(4) -0.0024(5)
O5G O 0.6463(4) 0.4579(4) 0.5024(5)
O7D O 0.4802(4) 0.3607(4) -0.0097(4)
O7E O 0.5198(4) 0.3607(4) 0.5097(4)
loop_
_geom_bond_atom_site_label_1
_geom_bond_atom_site_label_2
_geom_bond_site_symmetry_1
_geom_bond_site_symmetry_2
Cu1 N3 1_555 1_555
Dy1 O1 1_555 1_555
C1 C2 1_555 1_555
C2 C3 1_555 1_555
C3 H1 1_555 1_555
C4 C3 1_555 1_555
C5 H2 1_555 1_555
C6 C2 1_555 1_555
H3 C6 1_555 1_555
C7 C4 1_555 1_555
C8 C7 1_555 1_555
H4 C8 1_555 1_555
C9 C8 1_555 1_555
C10 C9 1_555 1_555
H5 C10 1_555 1_555
C11 C10 1_555 1_555
H6 C11 1_555 1_555
C12 C9 1_555 1_555
N1 C7 1_555 1_555
N2 C4 1_555 1_555
O1 C1 1_555 1_555
O2 Dy1 1_555 1_555
O3 C12 1_555 1_555
O4 Dy1 1_555 1_555
O5 C12 1_555 1_555
C13 C14 1_555 1_555
C14 C15 1_555 1_555
C15 H7 1_555 1_555
C16 C15 1_555 1_555
C17 H8 1_555 1_555
C18 C14 1_555 1_555
H9 C18 1_555 1_555
N3 C16 1_555 1_555
O6 Dy1 1_555 1_555
O7 C13 1_555 1_555
O8 Dy1 1_555 1_555
C13A C14A 1_555 1_555
C14A C15A 1_555 1_555
C15A H7A 1_555 1_555
C16A C16 1_555 1_555
C17A H8A 1_555 1_555
C18A C14A 1_555 1_555
H9A C18A 1_555 1_555
N3A Cu1 1_555 1_555
O6A C13A 1_555 1_555
O7A C13A 1_555 1_555
Dy1A O6A 1_555 1_555
C1A C2A 1_555 1_555
C2A C3A 1_555 1_555
C3A H1A 1_555 1_555
C4A C3A 1_555 1_555
C5A H2A 1_555 1_555
C6A C2A 1_555 1_555
H3A C6A 1_555 1_555
C7A C4A 1_555 1_555
C8A C7A 1_555 1_555
H4A C8A 1_555 1_555
C9A C8A 1_555 1_555
C10A C9A 1_555 1_555
H5A C10A 1_555 1_555
C11A C10A 1_555 1_555
H6A C11A 1_555 1_555
C12A C9A 1_555 1_555
N1A C7A 1_555 1_555
N2A C4A 1_555 1_555
O1A Dy1A 1_555 1_555
O2A Dy1A 1_555 1_555
O3A C12A 1_555 1_555
O4A Dy1A 1_555 1_555
O5A C12A 1_555 1_555
O8A Dy1A 1_555 1_555
Cu1_2 N1 1_555 1_555
Dy1B O3 1_555 1_555
Dy1C O3A 1_555 1_555
Dy1D O7 1_555 1_555
Dy1E O7A 1_555 1_555
Dy1F O5 1_555 1_555
Dy1G O5A 1_555 1_555
N1_2 Cu1 1_555 1_555
N1A_2 Cu1 1_555 1_555
N2_2 Cu1 1_555 1_555
N2A_2 Cu1 1_555 1_555
O3B Dy1 1_555 1_555
O3C Dy1A 1_555 1_555
O5F Dy1 1_555 1_555
O5G Dy1A 1_555 1_555
O7D Dy1 1_555 1_555
O7E Dy1A 1_555 1_555
C1 O2 1_555 1_555
C5 C6 1_555 1_555
C5 N2 1_555 1_555
C11 N1 1_555 1_555
N2 Cu1_2 1_555 1_555
C13 O6 1_555 1_555
C17 C18 1_555 1_555
C17 N3 1_555 1_555
C15A C16A 1_555 1_555
C16A N3A 1_555 1_555
C17A C18A 1_555 1_555
C17A N3A 1_555 1_555
C1A O1A 1_555 1_555
C1A O2A 1_555 1_555
C5A C6A 1_555 1_555
C5A N2A 1_555 1_555
C11A N1A 1_555 1_555
N1A Cu1_2 1_555 1_555
N2A Cu1_2 1_555 1_555

#END
