
#######################################################################
#
#                 Cambridge Crystallographic Data Centre
#                                CCDC 
#
#######################################################################
#
# If this CIF has been generated from an entry in the Cambridge 
# Structural Database, then it will include bibliographic, chemical, 
# crystal, experimental, refinement or atomic coordinate data resulting 
# from the CCDC's data processing and validation procedures.
#
#######################################################################

data_PEQTIQ
_chemical_formula_moiety         '(C24 H24 Cl1 Cu1 Dy1 N4 O14)n'
_symmetry_cell_setting           monoclinic
_symmetry_space_group_name_H-M   'C 2/c'
_symmetry_Int_Tables_number      15
_space_group_name_Hall           '-C 2yc'
loop_
_symmetry_equiv_pos_site_id
_symmetry_equiv_pos_as_xyz
1 x,y,z
2 -x,y,1/2-z
3 1/2+x,1/2+y,z
4 1/2-x,1/2+y,1/2-z
5 -x,-y,-z
6 x,-y,1/2+z
7 1/2-x,1/2-y,-z
8 1/2+x,1/2-y,1/2+z
_cell_length_a                   21.6096(5)
_cell_length_b                   12.5320(5)
_cell_length_c                   24.0555(10)
_cell_angle_alpha                90
_cell_angle_beta                 116.147(2)
_cell_angle_gamma                90
_cell_volume                     5847.85
loop_
_atom_site_label
_atom_site_type_symbol
_atom_site_fract_x
_atom_site_fract_y
_atom_site_fract_z
Dy1 Dy 0.191226(12) 0.237222(19) -0.139990(11)
Cu1 Cu -0.06723(3) 0.27584(5) 0.07894(3)
C1 C 0.1160(3) 0.2611(4) -0.0698(3)
C2 C 0.0738(3) 0.2722(4) -0.0345(2)
C3 C 0.0838(3) 0.3564(4) 0.0059(3)
H1 H 0.1164 0.4089 0.0115
C4 C 0.0440(3) 0.3605(4) 0.0378(3)
H2 H 0.0507 0.4168 0.0651
C5 C 0.0234(3) 0.1968(4) -0.0421(2)
H3 H 0.0153 0.1402 -0.0694
C6 C -0.0144(3) 0.2069(4) -0.0089(2)
C7 C -0.0703(2) 0.1315(4) -0.0146(2)
C8 C -0.0898(3) 0.0425(4) -0.0530(2)
H4 H -0.0669 0.0256 -0.0768
C9 C -0.1772(3) 0.0081(4) -0.0215(3)
H5 H -0.2143 -0.0321 -0.0235
C10 C -0.1433(3) -0.0205(4) -0.0556(2)
C11 C -0.1561(3) 0.0958(5) 0.0155(3)
H6 H -0.1797 0.1147 0.0384
C12 C -0.1656(3) -0.1200(5) -0.0958(3)
C13 C 0.1472(3) 0.0142(5) 0.3117(3)
C14 C 0.0941(3) 0.0718(4) 0.2544(3)
C15 C 0.0924(3) 0.1829(4) 0.2518(2)
H7 H 0.1244 0.2232 0.2842
C16 C 0.0423(3) 0.2320(4) 0.2003(3)
C17 C -0.0026(3) 0.0704(4) 0.1555(3)
H8 H -0.0350 0.0316 0.1226
C18 C 0.0457(3) 0.0155(4) 0.2053(3)
H9 H 0.0456 -0.0587 0.2058
C19 C 0.0356(3) 0.3506(4) 0.1946(2)
C20 C 0.0794(3) 0.4211(4) 0.2382(3)
H10 H 0.1169 0.3960 0.2733
C21 C 0.0670(3) 0.5292(4) 0.2293(2)
C22 C 0.0106(3) 0.5649(4) 0.1764(3)
H11 H 0.0013 0.6374 0.1694
C23 C -0.0309(3) 0.4910(4) 0.1349(3)
H12 H -0.0690 0.5147 0.0999
C24 C 0.1130(3) 0.6092(4) 0.2762(3)
N1 N -0.0038(2) 0.2875(4) 0.0313(2)
N2 N -0.1030(2) 0.1558(3) 0.02025(19)
N3 N -0.0049(2) 0.1780(3) 0.15223(19)
N4 N -0.0188(2) 0.3856(3) 0.14277(19)
O1 O 0.16886(19) 0.3190(3) -0.05574(18)
O2 O 0.0975(2) 0.1948(4) -0.1132(2)
O3 O -0.1424(3) -0.1370(4) -0.1330(3)
O4 O -0.20765(18) -0.1785(3) -0.08618(18)
O5 O 0.2538(3) 0.2221(4) -0.1987(2)
H13 H 0.2271 0.2326 -0.2384
H14 H 0.2868 0.2701 -0.1867
O6 O 0.24835(19) 0.1068(3) -0.06521(18)
H15 H 0.2694 0.1364 -0.0298
H16 H 0.2191 0.0621 -0.0641
O7 O 0.1511(2) -0.0839(3) 0.30570(18)
O8 O 0.1812(3) 0.0667(4) 0.3588(2)
O9 O 0.1636(2) 0.5783(3) 0.3228(2)
O10 O 0.0979(2) 0.7055(3) 0.2668(2)
Cl1 Cl -0.16590(8) 0.37285(15) 0.02581(10)
Dy1B Dy -0.308774(12) -0.262778(19) -0.139990(11)
Dy1E Dy 0.191226(12) -0.237222(19) 0.360010(11)
Dy1E_2 Dy 0.191226(12) 0.762778(19) 0.360010(11)
O4B O 0.29235(18) 0.3215(3) -0.08618(18)
O7E O 0.1511(2) 0.0839(3) -0.19430(18)
O9E O 0.1636(2) 0.4217(3) -0.1772(2)
O10E O 0.0979(2) 0.2945(3) -0.2332(2)
O11 O 0.2223(5) 0.2987(8) 0.3747(4)
O12 O 0.2380(5) 0.0999(8) 0.7033(4)
O13 O 0.1124(6) 0.7861(10) 0.1589(5)
O14 O 0.1344(9) 0.5963(14) 0.1067(8)
loop_
_geom_bond_atom_site_label_1
_geom_bond_atom_site_label_2
_geom_bond_site_symmetry_1
_geom_bond_site_symmetry_2
Dy1 O1 1_555 1_555
Cu1 N1 1_555 1_555
C1 C2 1_555 1_555
C2 C3 1_555 1_555
C3 H1 1_555 1_555
C4 C3 1_555 1_555
H2 C4 1_555 1_555
C5 C2 1_555 1_555
H3 C5 1_555 1_555
C6 C5 1_555 1_555
C7 C6 1_555 1_555
C8 C7 1_555 1_555
H4 C8 1_555 1_555
C9 H5 1_555 1_555
C10 C8 1_555 1_555
C11 C9 1_555 1_555
H6 C11 1_555 1_555
C12 C10 1_555 1_555
C13 C14 1_555 1_555
C14 C15 1_555 1_555
C15 H7 1_555 1_555
C16 C15 1_555 1_555
C17 H8 1_555 1_555
C18 C14 1_555 1_555
H9 C18 1_555 1_555
C19 C16 1_555 1_555
C20 C19 1_555 1_555
H10 C20 1_555 1_555
C21 C20 1_555 1_555
C22 C21 1_555 1_555
H11 C22 1_555 1_555
C23 C22 1_555 1_555
H12 C23 1_555 1_555
C24 C21 1_555 1_555
N1 C4 1_555 1_555
N2 Cu1 1_555 1_555
N3 Cu1 1_555 1_555
N4 Cu1 1_555 1_555
O1 C1 1_555 1_555
O2 Dy1 1_555 1_555
O3 C12 1_555 1_555
O4 C12 1_555 1_555
O5 Dy1 1_555 1_555
H13 O5 1_555 1_555
H14 O5 1_555 1_555
O6 Dy1 1_555 1_555
H15 O6 1_555 1_555
H16 O6 1_555 1_555
O7 C13 1_555 1_555
O8 C13 1_555 1_555
O9 C24 1_555 1_555
O10 C24 1_555 1_555
Cl1 Cu1 1_555 1_555
Dy1B O4 1_555 1_555
Dy1E O7 1_555 1_555
Dy1E_2 O9 1_555 1_555
O4B Dy1 1_555 1_555
O7E Dy1 1_555 1_555
O9E Dy1 1_555 1_555
O10E Dy1 1_555 1_555
C1 O2 1_555 1_555
C6 N1 1_555 1_555
C7 N2 1_555 1_555
C9 C10 1_555 1_555
C11 N2 1_555 1_555
C16 N3 1_555 1_555
C17 C18 1_555 1_555
C17 N3 1_555 1_555
C19 N4 1_555 1_555
C23 N4 1_555 1_555
O10 Dy1E_2 1_555 1_555

#END
