
#######################################################################
#
#                 Cambridge Crystallographic Data Centre
#                                CCDC 
#
#######################################################################
#
# If this CIF has been generated from an entry in the Cambridge 
# Structural Database, then it will include bibliographic, chemical, 
# crystal, experimental, refinement or atomic coordinate data resulting 
# from the CCDC's data processing and validation procedures.
#
#######################################################################

data_KONYOB
_chemical_formula_moiety         '(C26 H44 Cd2 N12 Ni2)n'
_symmetry_cell_setting           triclinic
_symmetry_space_group_name_H-M   'P -1'
_symmetry_Int_Tables_number      2
_space_group_name_Hall           '-P 1'
loop_
_symmetry_equiv_pos_site_id
_symmetry_equiv_pos_as_xyz
1 x,y,z
2 -x,-y,-z
_cell_length_a                   15.118(3)
_cell_length_b                   14.048(4)
_cell_length_c                   7.325(1)
_cell_angle_alpha                91.50(2)
_cell_angle_beta                 131.66(3)
_cell_angle_gamma                107.50(2)
_cell_volume                     1051.18
loop_
_atom_site_label
_atom_site_type_symbol
_atom_site_fract_x
_atom_site_fract_y
_atom_site_fract_z
Cd1 Cd 1.00000 1.00000 1.0000
Cd2 Cd -0.00000 0.50000 1.0000
Ni1 Ni 0.92284(9) 0.73270(6) 1.4065(2)
N1 N 0.0164(8) 0.6364(5) 1.2301(15)
N2 N 0.9364(7) 0.9000(5) 1.1718(14)
N3 N -0.0830(7) 0.5707(5) 0.6632(14)
N4 N 0.8659(7) 0.8514(5) 0.6349(14)
N5 N 0.8188(7) 1.0388(6) 0.7377(14)
N6 N 0.2118(7) 0.5980(6) 1.1897(14)
C1 C -0.0202(8) 0.6719(5) 1.2954(15)
C2 C 0.9313(7) 0.8372(5) 1.2625(15)
C3 C -0.0838(7) 0.6297(5) 0.5589(15)
C4 C 0.8794(7) 0.8018(5) 0.5353(14)
C5 C 0.7945(9) 1.1112(7) 0.8320(18)
C6 C 0.7748(8) 1.0705(6) 0.9971(17)
C7 C 0.6498(9) 0.9725(7) 0.8566(17)
C8 C 0.6356(9) 0.9414(7) 1.0344(18)
C9 C 0.5094(9) 0.8462(8) 0.9043(19)
C10 C 0.5002(9) 0.8148(8) 1.0889(19)
C11 C 0.3739(9) 0.7245(7) 0.9607(18)
C12 C 0.3624(9) 0.7013(7) 1.1509(19)
C13 C 0.2321(9) 0.6185(8) 1.0220(20)
H1 H 0.8319 1.0689 0.6176
H2 H 0.7312 0.9623 0.6164
H3 H 0.7103 1.1225 0.6709
H5 H 0.7718 1.1301 1.0899
H6 H 0.8544 1.0502 1.1474
H7 H 0.6517 0.9090 0.7701
H8 H 0.5674 0.9888 0.6998
H9 H 0.6407 1.0077 1.1308
H10 H 0.7176 0.9227 1.1884
H11 H 0.5006 0.7791 0.8017
H12 H 0.4252 0.8643 0.7539
H13 H 0.5114 0.8829 1.1932
H14 H 0.5809 0.7938 1.2315
H15 H 0.3662 0.6542 0.8718
H16 H 0.2923 0.7425 0.8069
H17 H 0.3810 0.7737 1.2563
H18 H 0.4380 0.6749 1.2946
H19 H 0.1577 0.6434 0.8664
H20 H 0.2179 0.5455 0.9263
H21 H 0.2847 0.5731 1.3411
H22 H 0.2245 0.6710 1.2812
N2A N 1.0636(7) 1.1000(5) 0.8282(14)
C2A C 1.0687(7) 1.1628(5) 0.7375(15)
N4A N 1.1341(7) 1.1486(5) 1.3651(14)
C4A C 1.1206(7) 1.1982(5) 1.4647(14)
N5A N 1.1812(7) 0.9612(6) 1.2623(14)
N6A N 1.7882(7) 1.4020(6) 0.8103(14)
C5A C 1.2055(9) 0.8888(7) 1.1680(18)
C6A C 1.2252(8) 0.9295(6) 1.0029(17)
C7A C 1.3502(9) 1.0275(7) 1.1434(17)
C8A C 1.3644(9) 1.0586(7) 0.9656(18)
C9A C 1.4906(9) 1.1538(8) 1.0957(19)
C10A C 1.4998(9) 1.1852(8) 0.9111(19)
C11A C 1.6261(9) 1.2755(7) 1.0393(18)
C12A C 1.6376(9) 1.2987(7) 0.8491(19)
C13A C 1.7679(9) 1.3815(8) 0.9780(20)
H1A H 1.1681 0.9311 1.3824
H2A H 1.2688 1.0377 1.3836
H3A H 1.2897 0.8775 1.3291
H5A H 1.2282 0.8699 0.9101
H6A H 1.1456 0.9498 0.8526
H7A H 1.3483 1.0910 1.2299
H8A H 1.4326 1.0112 1.3002
H9A H 1.3593 0.9923 0.8692
H10A H 1.2824 1.0773 0.8116
H11A H 1.4994 1.2209 1.1983
H12A H 1.5748 1.1357 1.2461
H13A H 1.4886 1.1171 0.8068
H14A H 1.4191 1.2062 0.7685
H15A H 1.6338 1.3458 1.1282
H16A H 1.7077 1.2575 1.1931
H17A H 1.6190 1.2263 0.7437
H18A H 1.5620 1.3251 0.7054
H19A H 1.8423 1.3566 1.1336
H20A H 1.7821 1.4545 1.0737
H21A H 1.7153 1.4269 0.6589
H22A H 1.7755 1.3290 0.7188
Ni1A Ni 1.07716(9) 1.26730(6) 0.5935(2)
N1A N -0.0164(8) 0.3636(5) 0.7699(15)
C1A C 0.0202(8) 0.3281(5) 0.7046(15)
N3A N 0.0830(7) 0.4293(5) 1.3368(14)
C3A C 0.0838(7) 0.3703(5) 1.4411(15)
N6A_2 N -0.2118(7) 0.4020(6) 0.8103(14)
C1_2 C 0.9798(8) 0.6719(5) 1.2954(15)
C3_2 C 0.9162(7) 0.6297(5) 1.5589(15)
C4_2 C 0.8794(7) 0.8018(5) 1.5353(14)
Ni1_2 Ni -0.07716(9) 0.73270(6) 1.4065(2)
Ni1_3 Ni -0.07716(9) 0.73270(6) 0.4065(2)
Ni1_4 Ni 0.92284(9) 0.73270(6) 0.4065(2)
Ni1A_2 Ni 1.07716(9) 1.26730(6) 1.5935(2)
Cd2_2 Cd 2.00000 1.50000 1.0000
C1A_2 C 1.0202(8) 1.3281(5) 0.7046(15)
C3A_2 C 1.0838(7) 1.3703(5) 0.4411(15)
C4A_2 C 1.1206(7) 1.1982(5) 0.4647(14)
Ni1A_3 Ni 0.07716(9) 0.26730(6) 0.5935(2)
Ni1A_4 Ni 0.07716(9) 0.26730(6) 1.5935(2)
H21A_2 H -0.2847 0.4269 0.6589
H22A_2 H -0.2245 0.3290 0.7188
loop_
_geom_bond_atom_site_label_1
_geom_bond_atom_site_label_2
_geom_bond_site_symmetry_1
_geom_bond_site_symmetry_2
Cd1 N2 1_555 1_555
Cd2 N1 1_555 1_555
Ni1 C2 1_555 1_555
N1 C1 1_555 1_555
N2 C2 1_555 1_555
N3 Cd2 1_555 1_555
N4 Cd1 1_555 1_555
N5 Cd1 1_555 1_555
N6 Cd2 1_555 1_555
C1 Ni1_2 1_555 1_555
C3 N3 1_555 1_555
C4 N4 1_555 1_555
C5 N5 1_555 1_555
C6 C5 1_555 1_555
C7 C6 1_555 1_555
C8 C7 1_555 1_555
C9 C8 1_555 1_555
C10 C9 1_555 1_555
C11 C10 1_555 1_555
C12 C11 1_555 1_555
C13 N6 1_555 1_555
H1 N5 1_555 1_555
H2 N5 1_555 1_555
H3 C5 1_555 1_555
H5 C6 1_555 1_555
H6 C6 1_555 1_555
H7 C7 1_555 1_555
H8 C7 1_555 1_555
H9 C8 1_555 1_555
H10 C8 1_555 1_555
H11 C9 1_555 1_555
H12 C9 1_555 1_555
H13 C10 1_555 1_555
H14 C10 1_555 1_555
H15 C11 1_555 1_555
H16 C11 1_555 1_555
H17 C12 1_555 1_555
H18 C12 1_555 1_555
H19 C13 1_555 1_555
H20 C13 1_555 1_555
H21 N6 1_555 1_555
H22 N6 1_555 1_555
N2A Cd1 1_555 1_555
C2A N2A 1_555 1_555
N4A Cd1 1_555 1_555
C4A N4A 1_555 1_555
N5A Cd1 1_555 1_555
N6A C13A 1_555 1_555
C5A N5A 1_555 1_555
C6A C5A 1_555 1_555
C7A C6A 1_555 1_555
C8A C7A 1_555 1_555
C9A C8A 1_555 1_555
C10A C9A 1_555 1_555
C11A C10A 1_555 1_555
C12A C11A 1_555 1_555
C13A C12A 1_555 1_555
H1A N5A 1_555 1_555
H2A N5A 1_555 1_555
H3A C5A 1_555 1_555
H5A C6A 1_555 1_555
H6A C6A 1_555 1_555
H7A C7A 1_555 1_555
H8A C7A 1_555 1_555
H9A C8A 1_555 1_555
H10A C8A 1_555 1_555
H11A C9A 1_555 1_555
H12A C9A 1_555 1_555
H13A C10A 1_555 1_555
H14A C10A 1_555 1_555
H15A C11A 1_555 1_555
H16A C11A 1_555 1_555
H17A C12A 1_555 1_555
H18A C12A 1_555 1_555
H19A C13A 1_555 1_555
H20A C13A 1_555 1_555
H21A N6A 1_555 1_555
H22A N6A 1_555 1_555
Ni1A C2A 1_555 1_555
N1A Cd2 1_555 1_555
C1A N1A 1_555 1_555
N3A Cd2 1_555 1_555
C3A N3A 1_555 1_555
N6A_2 Cd2 1_555 1_555
C1_2 Ni1 1_555 1_555
C3_2 Ni1 1_555 1_555
C4_2 Ni1 1_555 1_555
Ni1_3 C3 1_555 1_555
Ni1_4 C4 1_555 1_555
Ni1A_2 C4A 1_555 1_555
Cd2_2 N6A 1_555 1_555
C1A_2 Ni1A 1_555 1_555
C3A_2 Ni1A 1_555 1_555
C4A_2 Ni1A 1_555 1_555
Ni1A_3 C1A 1_555 1_555
Ni1A_4 C3A 1_555 1_555
H21A_2 N6A_2 1_555 1_555
H22A_2 N6A_2 1_555 1_555
C12 C13 1_555 1_555

#END
