
#######################################################################
#
#                 Cambridge Crystallographic Data Centre
#                                CCDC 
#
#######################################################################
#
# If this CIF has been generated from an entry in the Cambridge 
# Structural Database, then it will include bibliographic, chemical, 
# crystal, experimental, refinement or atomic coordinate data resulting 
# from the CCDC's data processing and validation procedures.
#
#######################################################################

data_ROYMOJ
_chemical_formula_moiety         '(C42 H40 Cd2 N2 O13 S4)n'
_symmetry_cell_setting           hexagonal
_symmetry_space_group_name_H-M   'P 65'
_symmetry_Int_Tables_number      170
_space_group_name_Hall           'P 65'
loop_
_symmetry_equiv_pos_site_id
_symmetry_equiv_pos_as_xyz
1 x,y,z
2 -y,x-y,2/3+z
3 -x+y,-x,1/3+z
4 -x,-y,1/2+z
5 y,-x+y,1/6+z
6 x-y,x,5/6+z
_cell_length_a                   19.600(3)
_cell_length_b                   19.600(3)
_cell_length_c                   20.760(3)
_cell_angle_alpha                90
_cell_angle_beta                 90
_cell_angle_gamma                120
_cell_volume                     6906.69
loop_
_atom_site_label
_atom_site_type_symbol
_atom_site_fract_x
_atom_site_fract_y
_atom_site_fract_z
Cd1 Cd 0.69038(2) 0.25956(2) 0.08877(2)
Cd2 Cd 0.72692(2) 0.34505(2) -0.06851(2)
S1 S 0.99434(8) 1.05688(7) -0.07336(8)
S2 S 1.16712(8) 1.14514(7) -0.07232(8)
S3 S 0.99829(8) 0.89515(8) -0.09969(8)
S4 S 1.17123(8) 0.98412(8) -0.09162(7)
O1 O 0.7722(4) 1.2264(4) 0.0508(3)
O2 O 0.8145(3) 1.3092(3) -0.0332(2)
O3 O 1.3876(3) 1.5641(3) -0.0670(3)
O4 O 1.3031(3) 1.5764(3) -0.0040(2)
O5 O 0.7670(2) 0.4839(3) -0.1438(2)
O6 O 0.8345(2) 0.4634(2) -0.0678(2)
O7 O 1.3880(2) 0.7777(3) -0.0470(2)
O8 O 1.3277(2) 0.7027(2) -0.1303(2)
O9 O 0.6126(3) 0.3453(4) -0.0899(3)
H1 H 0.611(6) 0.362(5) -0.127(2)
H2 H 0.605(5) 0.375(4) -0.067(4)
O10 O 0.6398(3) 0.2191(3) -0.0277(3)
C1 C 1.0816(3) 1.0528(3) -0.0785(3)
C2 C 1.0398(4) 1.1571(3) -0.0541(3)
C3 C 1.1193(4) 1.1986(3) -0.0548(3)
C4 C 1.0830(3) 0.9871(3) -0.0877(3)
C5 C 1.0472(3) 0.8409(3) -0.0993(3)
C6 C 1.1258(3) 0.8808(3) -0.0952(3)
C7 C 0.9837(4) 1.1848(3) -0.0409(3)
C8 C 0.9224(5) 1.1422(5) 0.0031(4)
H3 H 0.9177 1.0966 0.0234
C9 C 0.8685(5) 1.1668(5) 0.0170(4)
H4 H 0.8278 1.1386 0.0475
C10 C 0.8742(4) 1.2321(4) -0.0136(3)
C11 C 0.9339(4) 1.2729(3) -0.0584(3)
H5 H 0.9379 1.3178 -0.0794
C12 C 0.9872(3) 1.2490(3) -0.0724(3)
H6 H 1.0268 1.2765 -0.1039
C13 C 0.8152(4) 1.2580(4) 0.0025(3)
C14 C 1.1718(4) 1.2838(3) -0.0456(3)
C15 C 1.1526(4) 1.3293(3) -0.0056(3)
H7 H 1.1052 1.3046 0.0186
C16 C 1.2023(4) 1.4099(3) -0.0012(3)
H8 H 1.1881 1.4402 0.0255
C17 C 1.2727(4) 1.4470(3) -0.0352(3)
C18 C 1.2939(4) 1.4022(3) -0.0728(4)
H9 H 1.3429 1.4267 -0.0950
C19 C 1.2434(4) 1.3211(3) -0.0780(4)
H10 H 1.2583 1.2909 -0.1041
C20 C 1.3250(4) 1.5349(4) -0.0345(3)
C21 C 0.9931(3) 0.7538(3) -0.1022(3)
C22 C 0.9347(4) 0.7235(4) -0.1489(3)
H11 H 0.9313 0.7576 -0.1795
C23 C 0.8810(4) 0.6430(4) -0.1507(3)
H12 H 0.8410 0.6223 -0.1827
C24 C 0.8857(3) 0.5930(3) -0.1064(3)
C25 C 0.9452(3) 0.6239(3) -0.0600(3)
H13 H 0.9491 0.5898 -0.0296
C26 C 0.9987(3) 0.7040(3) -0.0581(3)
H14 H 1.0393 0.7247 -0.0265
C27 C 0.8250(3) 0.5070(3) -0.1071(3)
C28 C 1.1797(3) 0.8483(3) -0.0951(3)
C29 C 1.1682(3) 0.7878(3) -0.1357(3)
H15 H 1.1250 0.7666 -0.1648
C30 C 1.2188(3) 0.7574(3) -0.1347(3)
H16 H 1.2101 0.7158 -0.1631
C31 C 1.2821(3) 0.7878(3) -0.0923(3)
C32 C 1.2957(4) 0.8500(4) -0.0522(3)
H17 H 1.3395 0.8718 -0.0238
C33 C 1.2453(4) 0.8804(4) -0.0536(3)
H18 H 1.2552 0.9234 -0.0264
C34 C 1.3361(3) 0.7547(3) -0.0897(3)
Cd1_2 Cd 0.69038(2) 1.25956(2) 0.08877(2)
Cd1A Cd 0.74044(2) 0.43082(3) -0.24456(2)
Cd1E Cd 1.43082(3) 0.69038(2) -0.07790(2)
Cd1E_2 Cd 1.43082(3) 1.69038(2) -0.07790(2)
Cd2_2 Cd 0.72692(2) 1.34505(2) -0.06851(2)
Cd2D Cd 1.34505(2) 1.61813(3) 0.09816(2)
Cd2E Cd 1.38187(3) 0.72692(2) -0.23518(2)
O1_2 O 0.7722(4) 0.2264(4) 0.0508(3)
O2_2 O 0.8145(3) 0.3092(3) -0.0332(2)
O3D O 0.5641(3) 0.1765(4) 0.0997(3)
O4E O 0.7267(4) 0.3031(3) -0.1707(2)
O5B O 0.7169(4) 0.2330(2) 0.1895(2)
O7D O 0.7777(3) 0.3897(4) 0.1197(2)
O8D O 0.7027(2) 0.3750(3) 0.0364(2)
N1 N 0.5168(5) 0.4384(5) 0.0765(4)
C35 C 0.5524(6) 0.4102(7) 0.0417(6)
H19 H 0.5734 0.3818 0.0629
C36 C 0.5094(9) 0.4320(8) 0.1437(7)
H20 H 0.4771 0.3764 0.1557
H21 H 0.4842 0.4614 0.1591
H22 H 0.5617 0.4538 0.1632
C37 C 0.4827(9) 0.4799(9) 0.0436(8)
H23 H 0.5250 0.5302 0.0269
H24 H 0.4503 0.4898 0.0739
H25 H 0.4499 0.4477 0.0077
O11 O 0.5606(5) 0.4183(5) -0.0186(4)
N2 N 0.9859(4) 1.3843(5) 0.1718(4)
O13 O 1.098(2) 1.431(3) 0.1062(17)
C38 C 1.0346(11) 1.3793(14) 0.1317(14)
H26 H 1.0192 1.3268 0.1194
C39 C 0.9093(14) 1.3226(15) 0.1909(17)
H27 H 0.8710 1.3145 0.1572
H28 H 0.8940 1.3374 0.2312
H29 H 0.9108 1.2738 0.1974
C40 C 1.0016(17) 1.4676(13) 0.1828(15)
H30 H 1.0418 1.4931 0.2163
H31 H 0.9529 1.4658 0.1965
H32 H 1.0203 1.4977 0.1427
C46 C 0.3926(11) 0.2269(14) -0.0377(10)
H45 H 0.3407 0.2171 -0.0517
H46 H 0.4327 0.2807 -0.0494
H47 H 0.3924 0.2206 0.0092
C47 C 0.4138(7) 0.1605(9) -0.0748(8)
H48 H 0.3764 0.1134 -0.0959
O15 O 0.4936(6) 0.1865(8) -0.0693(8)
H49 H 0.5171 0.2118 -0.1025
loop_
_geom_bond_atom_site_label_1
_geom_bond_atom_site_label_2
_geom_bond_site_symmetry_1
_geom_bond_site_symmetry_2
Cd1 O10 1_555 1_555
Cd2 O6 1_555 1_555
S1 C1 1_555 1_555
S2 C1 1_555 1_555
S3 C4 1_555 1_555
S4 C4 1_555 1_555
O1 C13 1_555 1_555
O2 C13 1_555 1_555
O3 C20 1_555 1_555
O4 C20 1_555 1_555
O5 C27 1_555 1_555
O6 C27 1_555 1_555
O7 C34 1_555 1_555
O8 C34 1_555 1_555
O9 Cd2 1_555 1_555
H1 O9 1_555 1_555
H2 O9 1_555 1_555
O10 Cd2 1_555 1_555
C1 C4 1_555 1_555
C2 S1 1_555 1_555
C3 S2 1_555 1_555
C5 S3 1_555 1_555
C6 S4 1_555 1_555
C7 C2 1_555 1_555
C8 C7 1_555 1_555
H3 C8 1_555 1_555
C9 C8 1_555 1_555
H4 C9 1_555 1_555
C10 C9 1_555 1_555
C11 C10 1_555 1_555
H5 C11 1_555 1_555
C12 C7 1_555 1_555
H6 C12 1_555 1_555
C13 C10 1_555 1_555
C14 C3 1_555 1_555
C15 C14 1_555 1_555
H7 C15 1_555 1_555
C16 C15 1_555 1_555
H8 C16 1_555 1_555
C17 C16 1_555 1_555
C18 C17 1_555 1_555
H9 C18 1_555 1_555
C19 C14 1_555 1_555
H10 C19 1_555 1_555
C20 C17 1_555 1_555
C21 C5 1_555 1_555
C22 C21 1_555 1_555
H11 C22 1_555 1_555
C23 C22 1_555 1_555
H12 C23 1_555 1_555
C24 C23 1_555 1_555
C25 C24 1_555 1_555
H13 C25 1_555 1_555
C26 C21 1_555 1_555
H14 C26 1_555 1_555
C27 C24 1_555 1_555
C28 C6 1_555 1_555
C29 C28 1_555 1_555
H15 C29 1_555 1_555
C30 C29 1_555 1_555
H16 C30 1_555 1_555
C31 C30 1_555 1_555
C32 C31 1_555 1_555
H17 C32 1_555 1_555
C33 C28 1_555 1_555
H18 C33 1_555 1_555
C34 C31 1_555 1_555
N1 C35 1_555 1_555
C35 H19 1_555 1_555
C36 N1 1_555 1_555
H20 C36 1_555 1_555
H21 C36 1_555 1_555
H22 C36 1_555 1_555
C37 N1 1_555 1_555
H23 C37 1_555 1_555
H24 C37 1_555 1_555
H25 C37 1_555 1_555
O11 C35 1_555 1_555
N2 C38 1_555 1_555
O13 C38 1_555 1_555
C38 H26 1_555 1_555
C39 N2 1_555 1_555
H27 C39 1_555 1_555
H28 C39 1_555 1_555
H29 C39 1_555 1_555
C40 N2 1_555 1_555
H30 C40 1_555 1_555
H31 C40 1_555 1_555
H32 C40 1_555 1_555
C46 H45 1_555 1_555
H46 C46 1_555 1_555
H47 C46 1_555 1_555
C47 C46 1_555 1_555
H48 C47 1_555 1_555
O15 C47 1_555 1_555
H49 O15 1_555 1_555
Cd1_2 O1 1_555 1_555
Cd1A O5 1_555 1_555
Cd1E O7 1_555 1_555
Cd1E_2 O3 1_555 1_555
Cd2_2 O2 1_555 1_555
Cd2D O4 1_555 1_555
Cd2E O8 1_555 1_555
O1_2 Cd1 1_555 1_555
O2_2 Cd2 1_555 1_555
O3D Cd1 1_555 1_555
O4E Cd2 1_555 1_555
O5B Cd1 1_555 1_555
O7D Cd1 1_555 1_555
O8D Cd1 1_555 1_555
Cd2 O8D 1_555 1_555
O8 Cd1E 1_555 1_555
C2 C3 1_555 1_555
C5 C6 1_555 1_555
C11 C12 1_555 1_555
C18 C19 1_555 1_555
C25 C26 1_555 1_555
C32 C33 1_555 1_555

#END
