
#######################################################################
#
#                 Cambridge Crystallographic Data Centre
#                                CCDC 
#
#######################################################################
#
# If this CIF has been generated from an entry in the Cambridge 
# Structural Database, then it will include bibliographic, chemical, 
# crystal, experimental, refinement or atomic coordinate data resulting 
# from the CCDC's data processing and validation procedures.
#
#######################################################################

data_WODFOL
_chemical_formula_moiety         '(C18 H18 Co2 N4 O8)n'
_symmetry_cell_setting           orthorhombic
_symmetry_space_group_name_H-M   'P 21 21 2'
_symmetry_Int_Tables_number      18
_space_group_name_Hall           'P 2 2ab'
loop_
_symmetry_equiv_pos_site_id
_symmetry_equiv_pos_as_xyz
1 x,y,z
2 1/2+x,1/2-y,-z
3 1/2-x,1/2+y,-z
4 -x,-y,z
_cell_length_a                   22.113(3)
_cell_length_b                   6.9149(12)
_cell_length_c                   7.7209(14)
_cell_angle_alpha                90
_cell_angle_beta                 90
_cell_angle_gamma                90
_cell_volume                     1180.6
loop_
_atom_site_label
_atom_site_type_symbol
_atom_site_fract_x
_atom_site_fract_y
_atom_site_fract_z
Co1 Co 0.71252(4) 0.45830(13) 0.24225(15)
N1 N 0.8017(3) 0.5653(8) 0.2199(10)
H1 H 0.8036 0.6629 0.1392
H2 H 0.8153 0.6115 0.3246
O1 O 0.8292(3) 0.1563(9) -0.0615(9)
O2 O 0.7449(3) 0.2960(9) 0.0367(7)
O3 O 0.7530(2) 0.2536(9) 0.4186(7)
O4 O 0.8271(3) 0.1144(12) 0.5668(10)
C1 C 0.8013(4) 0.2687(13) 0.0408(11)
C2 C 0.8376(3) 0.3958(11) 0.1636(11)
H3 H 0.8746 0.4426 0.1019
C3 C 0.8567(4) 0.2778(12) 0.3170(11)
H4 H 0.8877 0.3521 0.3814
H5 H 0.8765 0.1588 0.2736
C4 C 0.8055(5) 0.2160(15) 0.4496(13)
N2 N 0.6318(4) 0.288(2) 0.2670(16)
C5 C 0.5774(5) 0.3730(15) 0.3151(16)
H6 H 0.5758 0.5080 0.3377
C6 C 0.5255(4) 0.2610(16) 0.3303(16)
H7 H 0.4884 0.3194 0.3631
C7 C 0.5280(5) 0.0635(16) 0.2973(17)
C8 C 0.5823(7) -0.0219(15) 0.2492(19)
H8 H 0.5840 -0.1568 0.2266
C9 C 0.6342(5) 0.090(2) 0.2340(19)
H9 H 0.6714 0.0318 0.2012
Co1B Co 0.78748(4) 0.95830(13) -0.24225(15)
Co1B_2 Co 0.78748(4) -0.04170(13) -0.24225(15)
Co1B_3 Co 0.78748(4) -0.04170(13) 0.75775(15)
Co1C Co 0.28748(4) -0.45830(13) 0.24225(15)
Co1_2 Co 0.71252(4) 0.45830(13) -0.75775(15)
N1B N 0.6983(3) 1.0653(8) -0.2199(10)
H1B H 0.6964 1.1629 -0.1392
H2B H 0.6847 1.1115 -0.3246
O1B O 0.6708(3) 0.6563(9) 0.0615(9)
O1_2 O 0.8292(3) 1.1563(9) -0.0615(9)
O2B O 0.7551(3) 0.7960(9) -0.0367(7)
O3B O 0.7470(2) 0.7536(9) -0.4186(7)
O4B O 0.6729(3) 0.6144(12) -0.5668(10)
O4B_2 O 0.6729(3) 0.6144(12) 0.4332(10)
O4_2 O 0.8271(3) 1.1144(12) -0.4332(10)
C1B C 0.6987(4) 0.7687(13) -0.0408(11)
C2B C 0.6624(3) 0.8958(11) -0.1636(11)
H3B H 0.6254 0.9426 -0.1019
C3B C 0.6433(4) 0.7778(12) -0.3170(11)
H4B H 0.6123 0.8521 -0.3814
H5B H 0.6235 0.6588 -0.2736
C4B C 0.6945(5) 0.7160(15) -0.4496(13)
N2C N 0.3682(4) -0.288(2) 0.2670(16)
N2B N 0.8682(4) 0.788(2) -0.2670(16)
C5C C 0.4226(5) -0.3730(15) 0.3151(16)
H6C H 0.4242 -0.5080 0.3377
C6C C 0.4745(4) -0.2610(16) 0.3303(16)
H7C H 0.5116 -0.3194 0.3631
C7C C 0.4720(5) -0.0635(16) 0.2973(17)
C8C C 0.4177(7) 0.0219(15) 0.2492(19)
H8C H 0.4160 0.1568 0.2266
C9C C 0.3658(5) -0.090(2) 0.2340(19)
H9C H 0.3286 -0.0318 0.2012
loop_
_geom_bond_atom_site_label_1
_geom_bond_atom_site_label_2
_geom_bond_site_symmetry_1
_geom_bond_site_symmetry_2
Co1 N1 1_555 1_555
N1 H1 1_555 1_555
H2 N1 1_555 1_555
O1 C1 1_555 1_555
O2 Co1 1_555 1_555
O3 Co1 1_555 1_555
O4 C4 1_555 1_555
C1 O2 1_555 1_555
C2 N1 1_555 1_555
H3 C2 1_555 1_555
C3 C2 1_555 1_555
H4 C3 1_555 1_555
H5 C3 1_555 1_555
C4 O3 1_555 1_555
N2 Co1 1_555 1_555
C5 N2 1_555 1_555
H6 C5 1_555 1_555
C6 C5 1_555 1_555
H7 C6 1_555 1_555
C7 C6 1_555 1_555
C8 C7 1_555 1_555
H8 C8 1_555 1_555
C9 N2 1_555 1_555
H9 C9 1_555 1_555
Co1B N1B 1_555 1_555
Co1B_2 O1 1_555 1_555
Co1B_3 O4 1_555 1_555
Co1C N2C 1_555 1_555
Co1_2 O4B 1_555 1_555
N1B H1B 1_555 1_555
H2B N1B 1_555 1_555
O1B Co1 1_555 1_555
O1_2 Co1B 1_555 1_555
O2B Co1B 1_555 1_555
O3B Co1B 1_555 1_555
O4B C4B 1_555 1_555
O4B_2 Co1 1_555 1_555
O4_2 Co1B 1_555 1_555
C1B O1B 1_555 1_555
C2B N1B 1_555 1_555
H3B C2B 1_555 1_555
C3B C2B 1_555 1_555
H4B C3B 1_555 1_555
H5B C3B 1_555 1_555
C4B O3B 1_555 1_555
N2C C5C 1_555 1_555
N2B Co1B 1_555 1_555
C5C H6C 1_555 1_555
C6C C5C 1_555 1_555
H7C C6C 1_555 1_555
C7C C7 1_555 1_555
C8C C7C 1_555 1_555
H8C C8C 1_555 1_555
C9C N2C 1_555 1_555
H9C C9C 1_555 1_555
C1 C2 1_555 1_555
C3 C4 1_555 1_555
C8 C9 1_555 1_555
O2B C1B 1_555 1_555
C1B C2B 1_555 1_555
C3B C4B 1_555 1_555
C6C C7C 1_555 1_555
C8C C9C 1_555 1_555

#END
