
#######################################################################
#
#                 Cambridge Crystallographic Data Centre
#                                CCDC 
#
#######################################################################
#
# If this CIF has been generated from an entry in the Cambridge 
# Structural Database, then it will include bibliographic, chemical, 
# crystal, experimental, refinement or atomic coordinate data resulting 
# from the CCDC's data processing and validation procedures.
#
#######################################################################

data_TAFTUS
_chemical_formula_moiety         '(C32 H36 Cu6 I4 N8)n'
_symmetry_cell_setting           hexagonal
_symmetry_space_group_name_H-M   'P 61 2 2'
_symmetry_Int_Tables_number      178
_space_group_name_Hall           'P 61 2 (0 0 5)'
loop_
_symmetry_equiv_pos_site_id
_symmetry_equiv_pos_as_xyz
1 x,y,z
2 -y,x-y,1/3+z
3 -x+y,-x,2/3+z
4 -x,-y,1/2+z
5 y,-x+y,5/6+z
6 x-y,x,1/6+z
7 y,x,1/3-z
8 x-y,-y,-z
9 -x,-x+y,2/3-z
10 -y,-x,5/6-z
11 -x+y,y,1/2-z
12 x,x-y,1/6-z
_cell_length_a                   22.901(3)
_cell_length_b                   22.901(3)
_cell_length_c                   22.272(5)
_cell_angle_alpha                90
_cell_angle_beta                 90
_cell_angle_gamma                120
_cell_volume                     10115.8
loop_
_atom_site_label
_atom_site_type_symbol
_atom_site_fract_x
_atom_site_fract_y
_atom_site_fract_z
_atom_site_U_iso_or_equiv
_atom_site_thermal_displace_type
Cu3 Cu 0.13645(8) 0.21976(8) 0.39233(6) 0.0672 Uani
N3 N 0.2251(5) 0.1454(5) 0.2829(3) 0.0588 Uani
N4 N 0.1943(5) 0.2040(4) 0.3434(4) 0.0552 Uani
C7 C 0.0769(4) 0.1537(8) 0.2500 0.0543 Uani
H13 H 0.1003 0.2006 0.2500 0.0650 Uiso
C8 C 0.1065(7) 0.1214(6) 0.2734(4) 0.0613 Uani
C9 C 0.0696(7) 0.0498(7) 0.2706(5) 0.0724 Uani
H14 H 0.0901 0.0259 0.2840 0.0870 Uiso
C10 C 0.0081(5) 0.0162(9) 0.2500 0.0697 Uani
H15 H -0.0153 -0.0307 0.2500 0.0830 Uiso
C11 C 0.1762(6) 0.1570(6) 0.2988(5) 0.0587 Uani
C12 C 0.2786(4) 0.1882(4) 0.3188(4) 0.0836 Uani
C13 C 0.2580(3) 0.2237(5) 0.3554(4) 0.0836 Uani
C14 C 0.3031(4) 0.2714(4) 0.3956(4) 0.0836 Uani
H16 H 0.2893 0.2951 0.4200 0.1000 Uiso
C15 C 0.3688(4) 0.2836(4) 0.3992(3) 0.0836 Uani
H17 H 0.3990 0.3155 0.4261 0.1000 Uiso
C16 C 0.3895(4) 0.2481(5) 0.3626(4) 0.0836 Uani
H18 H 0.4335 0.2562 0.3651 0.1000 Uiso
C17 C 0.3444(5) 0.2004(4) 0.3225(4) 0.0836 Uani
H19 H 0.3582 0.1766 0.2980 0.1000 Uiso
N3J N -0.0797(7) 0.1454(5) 0.2171(3) 0.0588 Uani
N4J N 0.0097(6) 0.2040(4) 0.1566(4) 0.0552 Uani
C8J C 0.0149(9) 0.1214(6) 0.2266(4) 0.0613 Uani
C9J C -0.0198(10) 0.0498(7) 0.2294(5) 0.0724 Uani
H14J H -0.0642 0.0259 0.2160 0.0870 Uiso
C11J C -0.0192(8) 0.1570(6) 0.2012(5) 0.0587 Uani
C12J C -0.0904(6) 0.1882(4) 0.1812(4) 0.0836 Uani
C13J C -0.0343(6) 0.2237(5) 0.1446(4) 0.0836 Uani
C14J C -0.0317(6) 0.2714(4) 0.1044(4) 0.0836 Uani
H16J H 0.0058 0.2951 0.0800 0.1000 Uiso
C15J C -0.0852(6) 0.2836(4) 0.1008(3) 0.0836 Uani
H17J H -0.0835 0.3155 0.0739 0.1000 Uiso
C16J C -0.1414(6) 0.2481(5) 0.1374(4) 0.0836 Uani
H18J H -0.1773 0.2562 0.1349 0.1000 Uiso
C17J C -0.1440(6) 0.2004(4) 0.1775(4) 0.0836 Uani
H19J H -0.1816 0.1766 0.2020 0.1000 Uiso
Cu3H Cu -0.13645(8) 0.08331(11) 0.27434(6) 0.0672 Uani
Cu3D Cu 0.21976(8) 0.08331(11) 0.22566(6) 0.0672 Uani
Cu3J Cu 0.08331(11) 0.21976(8) 0.10767(6) 0.0672 Uani
N3E N 0.0797(7) 0.2251(5) 0.4496(3) 0.0588 Uani
N4H N -0.1943(5) 0.0097(6) 0.3233(4) 0.0552 Uani
I1 I 0.76274(4) 0.60953(4) 0.83788(3) 0.0677 Uani
I2 I 0.81052(5) 0.44464(4) 0.79101(4) 0.0685 Uani
Cu1 Cu 0.71652(9) 0.48121(8) 0.80421(6) 0.0738 Uani
Cu2 Cu 0.84155(8) 0.57580(8) 0.77745(7) 0.0712 Uani
N1 N 0.6562(5) 0.4214(5) 0.8739(4) 0.0643 Uani
N2 N 0.9379(5) 0.6271(5) 0.8116(4) 0.0592 Uani
C1 C 0.6043(8) 0.4371(8) 0.8878(6) 0.0917 Uani
H1 H 0.5740 0.4258 0.8538 0.1100 Uiso
H2 H 0.6245 0.4850 0.8955 0.1100 Uiso
C2 C 0.6973(8) 0.4306(7) 0.9268(5) 0.0854 Uani
H3 H 0.7170 0.4766 0.9413 0.1020 Uiso
H4 H 0.7334 0.4219 0.9170 0.1020 Uiso
C3 C 0.6217(7) 0.3513(7) 0.8557(5) 0.0806 Uani
H5 H 0.6547 0.3374 0.8480 0.0970 Uiso
H6 H 0.5974 0.3463 0.8187 0.0970 Uiso
C4 C 0.9858(6) 0.6188(7) 0.7713(5) 0.0700 Uani
H7 H 0.9838 0.6343 0.7312 0.0840 Uiso
H8 H 0.9725 0.5715 0.7689 0.0840 Uiso
C5 C 0.9419(6) 0.6012(7) 0.8712(5) 0.0689 Uani
H9 H 0.9229 0.5528 0.8686 0.0830 Uiso
H10 H 0.9149 0.6099 0.8994 0.0830 Uiso
C6 C 0.9630(6) 0.7015(7) 0.8181(6) 0.0782 Uani
H11 H 0.9319 0.7082 0.8428 0.0940 Uiso
H12 H 0.9652 0.7210 0.7789 0.0940 Uiso
N1I N 0.5786(5) 0.3438(5) 0.9594(4) 0.0643 Uani
C1I C 0.5629(8) 0.3957(8) 0.9455(6) 0.0917 Uani
H1I H 0.5742 0.4260 0.9795 0.1100 Uiso
H2I H 0.5150 0.3755 0.9378 0.1100 Uiso
C2I C 0.5694(7) 0.3027(8) 0.9065(5) 0.0854 Uani
H3I H 0.5234 0.2830 0.8920 0.1020 Uiso
H4I H 0.5781 0.2666 0.9163 0.1020 Uiso
C3I C 0.6487(7) 0.3783(7) 0.9776(5) 0.0806 Uani
H5I H 0.6626 0.3453 0.9853 0.0970 Uiso
H6I H 0.6537 0.4026 1.0146 0.0970 Uiso
N2H N 1.0621(5) 0.6892(7) 0.8551(4) 0.0592 Uani
C4H C 1.0142(6) 0.6330(9) 0.8954(5) 0.0700 Uani
H7H H 1.0162 0.6505 0.9355 0.0840 Uiso
H8H H 1.0275 0.5990 0.8978 0.0840 Uiso
C5H C 1.0581(6) 0.6593(9) 0.7955(5) 0.0689 Uani
H9H H 1.0771 0.6299 0.7981 0.0830 Uiso
H10H H 1.0851 0.6950 0.7673 0.0830 Uiso
C6H C 1.0370(6) 0.7385(9) 0.8486(6) 0.0782 Uani
H11H H 1.0681 0.7763 0.8239 0.0940 Uiso
H12H H 1.0348 0.7558 0.8878 0.0940 Uiso
I1H I 1.23726(4) 0.84679(6) 0.82879(3) 0.0677 Uani
I2H I 1.18948(5) 0.63412(6) 0.87566(4) 0.0685 Uani
Cu1H Cu 1.28348(9) 0.76469(12) 0.86246(6) 0.0738 Uani
Cu2H Cu 1.15845(8) 0.73425(11) 0.88922(7) 0.0712 Uani
I1E I 1.15321(6) 0.76274(4) 1.00455(3) 0.0677 Uani
I1J I 0.84679(6) 0.60953(4) 0.66212(3) 0.0677 Uani
I2E I 1.36588(6) 0.81052(5) 0.95768(4) 0.0685 Uani
I2J I 0.63412(6) 0.44464(4) 0.70899(4) 0.0685 Uani
Cu1E Cu 1.23531(12) 0.71652(9) 0.97088(6) 0.0738 Uani
Cu1I Cu 0.51879(8) 0.28348(9) 1.02912(6) 0.0738 Uani
Cu1J Cu 0.76469(12) 0.48121(8) 0.69579(6) 0.0738 Uani
Cu2E Cu 1.26575(11) 0.84155(8) 0.94412(7) 0.0712 Uani
Cu2J Cu 0.73425(11) 0.57580(8) 0.72255(7) 0.0712 Uani
N1H N 1.3438(5) 0.7652(7) 0.7928(4) 0.0643 Uani
loop_
_atom_site_aniso_label
_atom_site_aniso_U_11
_atom_site_aniso_U_22
_atom_site_aniso_U_33
_atom_site_aniso_U_23
_atom_site_aniso_U_13
_atom_site_aniso_U_12
Cu3 0.0716(10) 0.0837(11) 0.0450(7) -0.0064(7) 0.0020(7) 0.0379(9)
N3 0.069(7) 0.075(7) 0.039(5) -0.004(4) -0.007(4) 0.041(6)
N4 0.066(6) 0.057(6) 0.047(5) 0.000(4) 0.007(4) 0.034(5)
C7 0.071(9) 0.038(9) 0.043(8) 0.000 -0.005(7) 0.019(4)
C8 0.095(10) 0.067(8) 0.028(5) 0.010(5) 0.005(5) 0.045(8)
C9 0.090(10) 0.075(10) 0.052(7) 0.008(6) 0.007(7) 0.041(9)
C10 0.067(9) 0.057(12) 0.081(11) 0.000 -0.008(9) 0.028(6)
C11 0.072(8) 0.062(7) 0.044(6) 0.012(5) -0.007(6) 0.035(7)
C12 0.0835(17) 0.0838(17) 0.0834(17) -0.0005(5) -0.0001(5) 0.0418(9)
C13 0.0835(17) 0.0838(17) 0.0834(17) -0.0005(5) -0.0001(5) 0.0418(9)
C14 0.0835(17) 0.0838(17) 0.0834(17) -0.0005(5) -0.0001(5) 0.0418(9)
C15 0.0835(17) 0.0838(17) 0.0834(17) -0.0005(5) -0.0001(5) 0.0418(9)
C16 0.0835(17) 0.0838(17) 0.0834(17) -0.0005(5) -0.0001(5) 0.0418(9)
C17 0.0835(17) 0.0838(17) 0.0834(17) -0.0005(5) -0.0001(5) 0.0418(9)
N3J 0.062 0.075 0.039 0.004 -0.003 0.034
N4J 0.055 0.057 0.047 0 0.007 0.023
C8J 0.072 0.067 0.028 -0.01 -0.005 0.022
C9J 0.083 0.075 0.052 -0.008 -0.001 0.034
C11J 0.064 0.062 0.044 -0.012 -0.019 0.027
C12J 0.0837 0.0838 0.0834 0.0005 0.0004 0.042
C13J 0.0837 0.0838 0.0834 0.0005 0.0004 0.042
C14J 0.0837 0.0838 0.0834 0.0005 0.0004 0.042
C15J 0.0837 0.0838 0.0834 0.0005 0.0004 0.042
C16J 0.0837 0.0838 0.0834 0.0005 0.0004 0.042
C17J 0.0837 0.0838 0.0834 0.0005 0.0004 0.042
Cu3H 0.0716 0.0795 0.045 0.0084 0.002 0.0337
Cu3D 0.0837 0.0795 0.045 -0.0084 -0.0064 0.0458
Cu3J 0.0795 0.0837 0.045 0.0064 0.0084 0.0458
N3E 0.062 0.069 0.039 -0.007 -0.003 0.028
N4H 0.066 0.055 0.047 0.007 0.007 0.032
I1 0.0783(6) 0.0700(5) 0.0580(4) -0.0114(4) -0.0088(4) 0.0395(5)
I2 0.0803(6) 0.0650(5) 0.0619(5) -0.0006(4) -0.0026(4) 0.0376(5)
Cu1 0.0818(11) 0.0718(10) 0.0594(9) 0.0080(8) 0.0124(8) 0.0320(9)
Cu2 0.0646(10) 0.0748(11) 0.0670(9) -0.0057(8) -0.0094(7) 0.0294(9)
N1 0.064(7) 0.059(7) 0.061(6) 0.004(5) 0.008(5) 0.024(5)
N2 0.061(6) 0.061(6) 0.055(6) -0.001(4) -0.007(4) 0.030(5)
C1 0.094(11) 0.080(10) 0.099(11) 0.018(8) 0.031(8) 0.042(9)
C2 0.098(11) 0.091(10) 0.059(8) 0.012(7) 0.005(7) 0.041(9)
C3 0.094(10) 0.092(11) 0.055(7) 0.015(7) 0.017(7) 0.046(9)
C4 0.082(9) 0.085(9) 0.050(6) -0.008(6) 0.003(6) 0.047(8)
C5 0.069(9) 0.068(8) 0.056(7) 0.005(6) 0.004(6) 0.024(7)
C6 0.063(8) 0.083(10) 0.092(9) -0.003(7) -0.011(7) 0.039(8)
N1I 0.059 0.064 0.061 0.008 0.004 0.024
C1I 0.08 0.094 0.099 0.031 0.018 0.042
C2I 0.091 0.098 0.059 0.005 0.012 0.041
C3I 0.092 0.094 0.055 0.017 0.015 0.046
N2H 0.061 0.062 0.055 -0.006 -0.007 0.031
C4H 0.082 0.073 0.05 0.011 0.003 0.035
C5H 0.069 0.089 0.056 -0.001 0.004 0.045
C6H 0.063 0.068 0.092 -0.008 -0.011 0.024
I1H 0.0783 0.0693 0.058 0.0026 -0.0088 0.0388
I2H 0.0803 0.0701 0.0619 -0.002 -0.0026 0.0427
Cu1H 0.0818 0.0896 0.0594 0.0044 0.0124 0.0498
Cu2H 0.0646 0.0806 0.067 -0.0037 -0.0094 0.0352
I1E 0.0693 0.0783 0.058 -0.0088 0.0026 0.0388
I1J 0.0693 0.07 0.058 0.0114 0.0026 0.0305
I2E 0.0701 0.0803 0.0619 -0.0026 -0.002 0.0427
I2J 0.0701 0.065 0.0619 0.0006 -0.002 0.0274
Cu1E 0.0896 0.0818 0.0594 0.0124 0.0044 0.0498
Cu1I 0.0718 0.0818 0.0594 0.0124 0.008 0.032
Cu1J 0.0896 0.0718 0.0594 -0.008 0.0044 0.0398
Cu2E 0.0806 0.0646 0.067 -0.0094 -0.0037 0.0352
Cu2J 0.0806 0.0748 0.067 0.0057 -0.0037 0.0454
N1H 0.064 0.075 0.061 0.004 0.008 0.04
loop_
_geom_bond_atom_site_label_1
_geom_bond_atom_site_label_2
_geom_bond_site_symmetry_1
_geom_bond_site_symmetry_2
I1 Cu1 1_555 1_555
I2 Cu1 1_555 1_555
Cu1 N1 1_555 1_555
Cu2 I1 1_555 1_555
N1 C1 1_555 1_555
N2 Cu2 1_555 1_555
C1 H1 1_555 1_555
H2 C1 1_555 1_555
C2 N1 1_555 1_555
H3 C2 1_555 1_555
H4 C2 1_555 1_555
C3 N1 1_555 1_555
H5 C3 1_555 1_555
H6 C3 1_555 1_555
C4 N2 1_555 1_555
H7 C4 1_555 1_555
H8 C4 1_555 1_555
C5 N2 1_555 1_555
H9 C5 1_555 1_555
H10 C5 1_555 1_555
C6 N2 1_555 1_555
H11 C6 1_555 1_555
H12 C6 1_555 1_555
Cu3 N4 1_555 1_555
N3 C11 1_555 1_555
N4 C11 1_555 1_555
C7 H13 1_555 1_555
C8 C7 1_555 1_555
C9 C8 1_555 1_555
H14 C9 1_555 1_555
C10 C9 1_555 1_555
H15 C10 1_555 1_555
C11 C8 1_555 1_555
C12 N3 1_555 1_555
C13 N4 1_555 1_555
C14 C13 1_555 1_555
H16 C14 1_555 1_555
C15 C14 1_555 1_555
H17 C15 1_555 1_555
C16 C15 1_555 1_555
H18 C16 1_555 1_555
C17 C12 1_555 1_555
H19 C17 1_555 1_555
N1I C1I 1_555 1_555
C1I C1 1_555 1_555
H1I C1I 1_555 1_555
H2I C1I 1_555 1_555
C2I C3 1_555 1_555
H3I C2I 1_555 1_555
H4I C2I 1_555 1_555
C3I C2 1_555 1_555
H5I C3I 1_555 1_555
H6I C3I 1_555 1_555
N2H C4H 1_555 1_555
C4H C5 1_555 1_555
H7H C4H 1_555 1_555
H8H C4H 1_555 1_555
C5H C4 1_555 1_555
H9H C5H 1_555 1_555
H10H C5H 1_555 1_555
C6H C6 1_555 1_555
H11H C6H 1_555 1_555
H12H C6H 1_555 1_555
I1H Cu1H 1_555 1_555
I2H Cu1H 1_555 1_555
Cu1H I2E 1_555 1_555
Cu2H N2H 1_555 1_555
I1E Cu2H 1_555 1_555
I1J Cu2 1_555 1_555
I2E Cu1E 1_555 1_555
I2J Cu1 1_555 1_555
Cu1E I2H 1_555 1_555
Cu1I N1I 1_555 1_555
Cu1J I2 1_555 1_555
Cu2E I1H 1_555 1_555
Cu2J I1 1_555 1_555
N1H Cu1H 1_555 1_555
N3J C11J 1_555 1_555
N4J C11J 1_555 1_555
C8J C7 1_555 1_555
C9J C10 1_555 1_555
H14J C9J 1_555 1_555
C11J C8J 1_555 1_555
C12J N3J 1_555 1_555
C13J N4J 1_555 1_555
C14J C13J 1_555 1_555
H16J C14J 1_555 1_555
C15J C14J 1_555 1_555
H17J C15J 1_555 1_555
C16J C15J 1_555 1_555
H18J C16J 1_555 1_555
C17J C12J 1_555 1_555
H19J C17J 1_555 1_555
Cu3H N3J 1_555 1_555
Cu3D N3 1_555 1_555
Cu3J N4J 1_555 1_555
N3E Cu3 1_555 1_555
N4H Cu3H 1_555 1_555
I2 Cu2 1_555 1_555
C12 C13 1_555 1_555
C16 C17 1_555 1_555
N1I C2I 1_555 1_555
N1I C3I 1_555 1_555
N2H C5H 1_555 1_555
N2H C6H 1_555 1_555
I1H Cu2H 1_555 1_555
I2H Cu2H 1_555 1_555
I1E Cu1E 1_555 1_555
I1E Cu2E 1_555 1_555
I1J Cu1J 1_555 1_555
I1J Cu2J 1_555 1_555
I2E Cu2E 1_555 1_555
I2J Cu1J 1_555 1_555
I2J Cu2J 1_555 1_555
C8J C9J 1_555 1_555
C12J C13J 1_555 1_555
C16J C17J 1_555 1_555

#END
