
#######################################################################
#
#                 Cambridge Crystallographic Data Centre
#                                CCDC 
#
#######################################################################
#
# If this CIF has been generated from an entry in the Cambridge 
# Structural Database, then it will include bibliographic, chemical, 
# crystal, experimental, refinement or atomic coordinate data resulting 
# from the CCDC's data processing and validation procedures.
#
#######################################################################

data_TAFTOM
_chemical_formula_moiety         '(C32 H36 Cu6 I4 N8)n'
_symmetry_cell_setting           hexagonal
_symmetry_space_group_name_H-M   'P 61 2 2'
_symmetry_Int_Tables_number      178
_space_group_name_Hall           'P 61 2 (0 0 5)'
loop_
_symmetry_equiv_pos_site_id
_symmetry_equiv_pos_as_xyz
1 x,y,z
2 -y,x-y,1/3+z
3 -x+y,-x,2/3+z
4 -x,-y,1/2+z
5 y,-x+y,5/6+z
6 x-y,x,1/6+z
7 y,x,1/3-z
8 x-y,-y,-z
9 -x,-x+y,2/3-z
10 -y,-x,5/6-z
11 -x+y,y,1/2-z
12 x,x-y,1/6-z
_cell_length_a                   22.220(3)
_cell_length_b                   22.220(3)
_cell_length_c                   22.487(5)
_cell_angle_alpha                90
_cell_angle_beta                 90
_cell_angle_gamma                120
_cell_volume                     9615.02
loop_
_atom_site_label
_atom_site_type_symbol
_atom_site_fract_x
_atom_site_fract_y
_atom_site_fract_z
_atom_site_U_iso_or_equiv
_atom_site_thermal_displace_type
Cu3 Cu 0.85862(7) 0.77425(7) 0.39303(5) 0.0448 Uani
N3 N 0.8011(4) 0.7927(4) 0.3433(4) 0.0402 Uani
N4 N 0.7678(4) 0.8504(4) 0.2834(3) 0.0379 Uani
C7 C 0.8889(5) 0.8750(5) 0.2736(4) 0.0389 Uani
C8 C 0.9257(6) 0.9491(6) 0.2725(4) 0.0467 Uani
H13 H 0.9043 0.9728 0.2871 0.0800 Uiso
C9 C 0.9935(4) 0.9870(8) 0.2500 0.0448 Uani
H14 H 1.0177 1.0354 0.2500 0.0800 Uiso
C10 C 0.9216(3) 0.8433(7) 0.2500 0.0401 Uani
H15 H 0.8975 0.7950 0.2500 0.0800 Uiso
C11 C 0.8176(5) 0.8390(5) 0.2997(4) 0.0423 Uani
C12 C 0.7323(6) 0.7727(6) 0.3562(5) 0.0530 Uani
C13 C 0.7120(6) 0.8082(5) 0.3194(4) 0.0428 Uani
C14 C 0.6446(6) 0.8001(6) 0.3241(5) 0.0558 Uani
H16 H 0.6315 0.8257 0.3000 0.0800 Uiso
C15 C 0.5981(7) 0.7524(7) 0.3660(5) 0.0667 Uani
H17 H 0.5531 0.7446 0.3695 0.0800 Uiso
C16 C 0.6215(7) 0.7170(7) 0.4022(6) 0.0693 Uani
H18 H 0.5909 0.6868 0.4306 0.0800 Uiso
C17 C 0.6871(6) 0.7239(7) 0.3989(5) 0.0563 Uani
H19 H 0.7004 0.6983 0.4228 0.0800 Uiso
N3J N 0.9916(6) 0.7927(4) 0.1567(4) 0.0402 Uani
N4J N 1.0826(6) 0.8504(4) 0.2166(3) 0.0379 Uani
C7J C 0.9861(7) 0.8750(5) 0.2264(4) 0.0389 Uani
C8J C 1.0234(8) 0.9491(6) 0.2275(4) 0.0467 Uani
H13J H 1.0685 0.9728 0.2129 0.0800 Uiso
C11J C 1.0214(7) 0.8390(5) 0.2003(4) 0.0423 Uani
C12J C 1.0404(8) 0.7727(6) 0.1438(5) 0.0530 Uani
C13J C 1.0962(8) 0.8082(5) 0.1806(4) 0.0428 Uani
C14J C 1.1555(8) 0.8001(6) 0.1759(5) 0.0558 Uani
H16J H 1.1942 0.8257 0.2000 0.0800 Uiso
C15J C 1.1543(10) 0.7524(7) 0.1340(5) 0.0667 Uani
H17J H 1.1915 0.7446 0.1305 0.0800 Uiso
C16J C 1.0955(10) 0.7170(7) 0.0978(6) 0.0693 Uani
H18J H 1.0959 0.6868 0.0694 0.0800 Uiso
C17J C 1.0368(9) 0.7239(7) 0.1011(5) 0.0563 Uani
H19J H 0.9979 0.6983 0.0772 0.0800 Uiso
Cu3H Cu 1.14138(7) 0.91563(10) 0.27364(5) 0.0448 Uani
Cu3D Cu 0.77425(7) 0.91563(10) 0.22636(5) 0.0448 Uani
Cu3J Cu 0.91563(10) 0.77425(7) 0.10697(5) 0.0448 Uani
N3H N 1.1989(4) 0.9916(6) 0.3234(4) 0.0402 Uani
N4E N 0.9174(6) 0.7678(4) 0.4501(3) 0.0379 Uani
I1 I 0.39077(3) 0.23829(4) 0.49576(3) 0.0439 Uani
I2 I 0.56337(4) 0.37383(4) 0.62163(3) 0.0483 Uani
Cu1 Cu 0.52290(7) 0.28471(7) 0.53072(5) 0.0479 Uani
Cu2 Cu 0.42842(7) 0.26793(7) 0.60888(5) 0.0460 Uani
N1 N 0.5819(4) 0.3434(5) 0.4601(4) 0.0488 Uani
N2 N 0.3756(4) 0.3121(4) 0.6436(4) 0.0429 Uani
C1 C 0.5702(6) 0.2995(6) 0.4081(5) 0.0532 Uani
H1 H 0.5222 0.2790 0.3953 0.0800 Uiso
H2 H 0.5789 0.2621 0.4184 0.0800 Uiso
C2 C 0.5629(6) 0.3953(6) 0.4442(5) 0.0547 Uani
H3 H 0.5725 0.4267 0.4774 0.0800 Uiso
H4 H 0.5136 0.3726 0.4357 0.0800 Uiso
C3 C 0.6567(5) 0.3805(6) 0.4770(5) 0.0523 Uani
H5 H 0.6718 0.3472 0.4849 0.0800 Uiso
H6 H 0.6634 0.4074 0.5129 0.0800 Uiso
C4 C 0.2973(6) 0.2629(5) 0.6496(5) 0.0484 Uani
H7 H 0.2890 0.2212 0.6703 0.0800 Uiso
H8 H 0.2767 0.2496 0.6103 0.0800 Uiso
C5 C 0.4027(6) 0.3402(6) 0.7044(4) 0.0449 Uani
H9 H 0.4530 0.3672 0.7032 0.0800 Uiso
H10 H 0.3895 0.3018 0.7318 0.0800 Uiso
C6 C 0.3869(6) 0.3733(5) 0.6060(4) 0.0447 Uani
H11 H 0.3755 0.3588 0.5649 0.0800 Uiso
H12 H 0.4353 0.4093 0.6079 0.0800 Uiso
N1I N 0.6566(5) 0.4181(4) 0.3732(4) 0.0488 Uani
C1I C 0.7005(6) 0.4298(6) 0.4252(5) 0.0532 Uani
H1I H 0.7210 0.4778 0.4380 0.0800 Uiso
H2I H 0.7379 0.4211 0.4149 0.0800 Uiso
C2I C 0.6047(6) 0.4371(6) 0.3891(5) 0.0547 Uani
H3I H 0.5733 0.4275 0.3559 0.0800 Uiso
H4I H 0.6274 0.4864 0.3976 0.0800 Uiso
C3I C 0.6195(6) 0.3433(5) 0.3563(5) 0.0523 Uani
H5I H 0.6528 0.3282 0.3484 0.0800 Uiso
H6I H 0.5926 0.3366 0.3204 0.0800 Uiso
N2F N 0.3121(4) 0.3756(4) 0.6897(4) 0.0429 Uani
C4F C 0.2629(5) 0.2973(6) 0.6837(5) 0.0484 Uani
H7F H 0.2212 0.2890 0.6630 0.0800 Uiso
H8F H 0.2496 0.2767 0.7230 0.0800 Uiso
C5F C 0.3402(6) 0.4027(6) 0.6289(4) 0.0449 Uani
H9F H 0.3672 0.4530 0.6301 0.0800 Uiso
H10F H 0.3018 0.3895 0.6015 0.0800 Uiso
C6F C 0.3733(5) 0.3869(6) 0.7273(4) 0.0447 Uani
H11F H 0.3588 0.3755 0.7684 0.0800 Uiso
H12F H 0.4093 0.4353 0.7254 0.0800 Uiso
I1F I 0.23829(4) 0.39077(3) 0.83757(3) 0.0439 Uani
I2F I 0.37383(4) 0.56337(4) 0.71170(3) 0.0483 Uani
Cu1F Cu 0.28471(7) 0.52290(7) 0.80261(5) 0.0479 Uani
Cu2F Cu 0.26793(7) 0.42842(7) 0.72445(5) 0.0460 Uani
I1E I 0.15248(5) 0.39077(3) 0.66243(3) 0.0439 Uani
I1K I 0.39077(3) 0.15248(5) 0.67091(3) 0.0439 Uani
I2E I 0.18954(6) 0.56337(4) 0.78830(3) 0.0483 Uani
I2K I 0.56337(4) 0.18954(6) 0.54504(3) 0.0483 Uani
Cu1E Cu 0.23819(10) 0.52290(7) 0.69739(5) 0.0479 Uani
Cu1I Cu 0.71529(7) 0.47710(7) 0.30261(5) 0.0479 Uani
Cu1K Cu 0.52290(7) 0.23819(10) 0.63595(5) 0.0479 Uani
Cu2E Cu 0.16049(10) 0.42842(7) 0.77555(5) 0.0460 Uani
Cu2K Cu 0.42842(7) 0.16049(10) 0.55779(5) 0.0460 Uani
N1F N 0.3434(5) 0.5819(4) 0.8732(4) 0.0488 Uani
loop_
_atom_site_aniso_label
_atom_site_aniso_U_11
_atom_site_aniso_U_22
_atom_site_aniso_U_33
_atom_site_aniso_U_23
_atom_site_aniso_U_13
_atom_site_aniso_U_12
Cu3 0.0488(7) 0.0546(8) 0.0296(6) 0.0044(5) 0.0007(5) 0.0248(6)
N3 0.039(4) 0.040(4) 0.038(4) 0.003(4) 0.002(4) 0.017(4)
N4 0.046(5) 0.044(5) 0.027(4) 0.004(3) 0.009(4) 0.025(4)
C7 0.056(6) 0.042(5) 0.026(4) -0.002(4) -0.003(4) 0.030(5)
C8 0.059(7) 0.056(6) 0.028(5) -0.005(5) -0.010(5) 0.031(6)
C9 0.043(6) 0.060(9) 0.037(7) 0.000 -0.003(5) 0.030(5)
C10 0.055(7) 0.036(7) 0.023(6) 0.000 -0.001(5) 0.018(4)
C11 0.054(6) 0.046(6) 0.027(5) -0.011(4) -0.007(4) 0.025(5)
C12 0.059(7) 0.061(7) 0.035(5) -0.002(5) 0.002(5) 0.027(6)
C13 0.062(7) 0.057(6) 0.023(5) -0.004(4) 0.001(4) 0.040(6)
C14 0.072(8) 0.068(8) 0.034(5) 0.007(5) 0.008(5) 0.040(6)
C15 0.064(8) 0.087(10) 0.048(6) 0.005(7) 0.002(6) 0.037(7)
C16 0.077(9) 0.076(9) 0.052(7) 0.010(7) 0.016(7) 0.036(8)
C17 0.046(6) 0.075(8) 0.037(6) 0.007(5) 0.005(5) 0.022(6)
N3J 0.045 0.04 0.038 -0.003 -0.001 0.023
N4J 0.04 0.044 0.027 -0.004 0.005 0.019
C7J 0.038 0.042 0.026 0.002 -0.001 0.012
C8J 0.053 0.056 0.028 0.005 -0.005 0.025
C11J 0.05 0.046 0.027 0.011 0.004 0.021
C12J 0.066 0.061 0.035 0.002 0.004 0.034
C13J 0.039 0.057 0.023 0.004 0.005 0.017
C14J 0.06 0.068 0.034 -0.007 0.001 0.028
C15J 0.077 0.087 0.048 -0.005 -0.003 0.05
C16J 0.081 0.076 0.052 -0.01 0.006 0.04
C17J 0.077 0.075 0.037 -0.007 -0.002 0.053
Cu3H 0.0488 0.0538 0.0296 -0.0037 0.0007 0.024
Cu3D 0.0546 0.0538 0.0296 0.0037 0.0044 0.0298
Cu3J 0.0538 0.0546 0.0296 -0.0044 -0.0037 0.0298
N3H 0.039 0.045 0.038 -0.001 0.002 0.022
N4E 0.04 0.046 0.027 0.009 0.005 0.021
I1 0.0429(4) 0.0499(4) 0.0357(3) 0.0003(3) -0.0039(3) 0.0207(3)
I2 0.0450(4) 0.0514(4) 0.0422(4) -0.0001(3) -0.0011(3) 0.0193(3)
Cu1 0.0447(7) 0.0536(8) 0.0378(7) 0.0074(6) 0.0038(6) 0.0189(6)
Cu2 0.0499(7) 0.0525(8) 0.0395(7) 0.0012(6) 0.0016(6) 0.0285(6)
N1 0.047(5) 0.053(5) 0.037(4) 0.002(4) 0.003(4) 0.018(4)
N2 0.040(5) 0.048(5) 0.038(4) -0.001(4) -0.001(4) 0.020(4)
C1 0.059(7) 0.057(7) 0.037(6) 0.007(5) 0.010(5) 0.024(6)
C2 0.056(7) 0.051(6) 0.044(6) 0.006(5) 0.004(5) 0.017(6)
C3 0.035(6) 0.072(8) 0.041(6) 0.006(5) 0.000(4) 0.020(5)
C4 0.052(6) 0.047(6) 0.048(6) -0.007(5) 0.000(5) 0.026(5)
C5 0.047(6) 0.061(7) 0.028(5) 0.002(5) 0.004(4) 0.028(5)
C6 0.065(7) 0.052(6) 0.030(5) 0.005(4) -0.003(5) 0.039(5)
N1I 0.053 0.047 0.037 0.003 0.002 0.018
C1I 0.057 0.059 0.037 0.01 0.007 0.024
C2I 0.051 0.056 0.044 0.004 0.006 0.017
C3I 0.072 0.035 0.041 0 0.006 0.02
N2F 0.048 0.04 0.038 0.001 0.001 0.02
C4F 0.047 0.052 0.048 0 0.007 0.026
C5F 0.061 0.047 0.028 -0.004 -0.002 0.028
C6F 0.052 0.065 0.03 0.003 -0.005 0.039
I1F 0.0499 0.0429 0.0357 0.0039 -0.0003 0.0207
I2F 0.0514 0.045 0.0422 0.0011 0.0001 0.0193
Cu1F 0.0536 0.0447 0.0378 -0.0038 -0.0074 0.0189
Cu2F 0.0525 0.0499 0.0395 -0.0016 -0.0012 0.0285
I1E 0.0514 0.0429 0.0357 -0.0039 -0.0042 0.0222
I1K 0.0429 0.0514 0.0357 0.0042 0.0039 0.0222
I2E 0.0578 0.045 0.0422 -0.0011 -0.001 0.0257
I2K 0.045 0.0578 0.0422 0.001 0.0011 0.0257
Cu1E 0.0605 0.0447 0.0378 0.0038 -0.0036 0.0258
Cu1I 0.0536 0.0447 0.0378 0.0038 0.0074 0.0189
Cu1K 0.0447 0.0605 0.0378 0.0036 -0.0038 0.0258
Cu2E 0.0454 0.0499 0.0395 0.0016 0.0004 0.0214
Cu2K 0.0499 0.0454 0.0395 -0.0004 -0.0016 0.0214
N1F 0.053 0.047 0.037 -0.003 -0.002 0.018
loop_
_geom_bond_atom_site_label_1
_geom_bond_atom_site_label_2
_geom_bond_site_symmetry_1
_geom_bond_site_symmetry_2
I1 Cu1 1_555 1_555
I2 Cu1 1_555 1_555
Cu1 N1 1_555 1_555
Cu2 I1 1_555 1_555
N1 C1 1_555 1_555
N2 Cu2 1_555 1_555
C1 H1 1_555 1_555
H2 C1 1_555 1_555
C2 N1 1_555 1_555
H3 C2 1_555 1_555
H4 C2 1_555 1_555
C3 N1 1_555 1_555
H5 C3 1_555 1_555
H6 C3 1_555 1_555
C4 N2 1_555 1_555
H7 C4 1_555 1_555
H8 C4 1_555 1_555
C5 N2 1_555 1_555
H9 C5 1_555 1_555
H10 C5 1_555 1_555
C6 N2 1_555 1_555
H11 C6 1_555 1_555
H12 C6 1_555 1_555
Cu3 N3 1_555 1_555
N3 C11 1_555 1_555
N4 C11 1_555 1_555
C7 C8 1_555 1_555
C8 H13 1_555 1_555
C9 C8 1_555 1_555
H14 C9 1_555 1_555
C10 C7 1_555 1_555
H15 C10 1_555 1_555
C11 C7 1_555 1_555
C12 N3 1_555 1_555
C13 N4 1_555 1_555
C14 C13 1_555 1_555
H16 C14 1_555 1_555
C15 C14 1_555 1_555
H17 C15 1_555 1_555
C16 C15 1_555 1_555
H18 C16 1_555 1_555
C17 C12 1_555 1_555
H19 C17 1_555 1_555
N1I C1I 1_555 1_555
C1I C3 1_555 1_555
H1I C1I 1_555 1_555
H2I C1I 1_555 1_555
C2I C2 1_555 1_555
H3I C2I 1_555 1_555
H4I C2I 1_555 1_555
C3I C1 1_555 1_555
H5I C3I 1_555 1_555
H6I C3I 1_555 1_555
N2F C4F 1_555 1_555
C4F C4 1_555 1_555
H7F C4F 1_555 1_555
H8F C4F 1_555 1_555
C5F C6 1_555 1_555
H9F C5F 1_555 1_555
H10F C5F 1_555 1_555
C6F C5 1_555 1_555
H11F C6F 1_555 1_555
H12F C6F 1_555 1_555
I1F Cu1F 1_555 1_555
I2F Cu1F 1_555 1_555
Cu1F I2E 1_555 1_555
Cu2F N2F 1_555 1_555
I1E Cu2F 1_555 1_555
I1K Cu2 1_555 1_555
I2E Cu1E 1_555 1_555
I2K Cu1 1_555 1_555
Cu1E I2F 1_555 1_555
Cu1I N1I 1_555 1_555
Cu1K I2 1_555 1_555
Cu2E I1F 1_555 1_555
Cu2K I1 1_555 1_555
N1F Cu1F 1_555 1_555
N3J C11J 1_555 1_555
N4J C11J 1_555 1_555
C7J C10 1_555 1_555
C8J C9 1_555 1_555
H13J C8J 1_555 1_555
C11J C7J 1_555 1_555
C12J N3J 1_555 1_555
C13J N4J 1_555 1_555
C14J C13J 1_555 1_555
H16J C14J 1_555 1_555
C15J C14J 1_555 1_555
H17J C15J 1_555 1_555
C16J C15J 1_555 1_555
H18J C16J 1_555 1_555
C17J C12J 1_555 1_555
H19J C17J 1_555 1_555
Cu3H N4J 1_555 1_555
Cu3D N4 1_555 1_555
Cu3J N3J 1_555 1_555
N3H Cu3H 1_555 1_555
N4E Cu3 1_555 1_555
I2 Cu2 1_555 1_555
C12 C13 1_555 1_555
C16 C17 1_555 1_555
N1I C2I 1_555 1_555
N1I C3I 1_555 1_555
N2F C5F 1_555 1_555
N2F C6F 1_555 1_555
I1F Cu2F 1_555 1_555
I2F Cu2F 1_555 1_555
I1E Cu1E 1_555 1_555
I1E Cu2E 1_555 1_555
I1K Cu1K 1_555 1_555
I1K Cu2K 1_555 1_555
I2E Cu2E 1_555 1_555
I2K Cu1K 1_555 1_555
I2K Cu2K 1_555 1_555
C7J C8J 1_555 1_555
C12J C13J 1_555 1_555
C16J C17J 1_555 1_555

#END
