
#######################################################################
#
#                 Cambridge Crystallographic Data Centre
#                                CCDC 
#
#######################################################################
#
# If this CIF has been generated from an entry in the Cambridge 
# Structural Database, then it will include bibliographic, chemical, 
# crystal, experimental, refinement or atomic coordinate data resulting 
# from the CCDC's data processing and validation procedures.
#
#######################################################################

data_TAFVAA
_chemical_formula_moiety         '(C32 H36 Cu6 I4 N8)n'
_symmetry_cell_setting           hexagonal
_symmetry_space_group_name_H-M   'P 65 2 2'
_symmetry_Int_Tables_number      179
_space_group_name_Hall           'P 65 2 (0 0 1)'
loop_
_symmetry_equiv_pos_site_id
_symmetry_equiv_pos_as_xyz
1 x,y,z
2 -y,x-y,2/3+z
3 -x+y,-x,1/3+z
4 -x,-y,1/2+z
5 y,-x+y,1/6+z
6 x-y,x,5/6+z
7 y,x,2/3-z
8 x-y,-y,-z
9 -x,-x+y,1/3-z
10 -y,-x,1/6-z
11 -x+y,y,1/2-z
12 x,x-y,5/6-z
_cell_length_a                   22.920(3)
_cell_length_b                   22.920(3)
_cell_length_c                   22.270(5)
_cell_angle_alpha                90
_cell_angle_beta                 90
_cell_angle_gamma                120
_cell_volume                     10131.6
loop_
_atom_site_label
_atom_site_type_symbol
_atom_site_fract_x
_atom_site_fract_y
_atom_site_fract_z
_atom_site_U_iso_or_equiv
_atom_site_thermal_displace_type
Cu3 Cu 0.08317(9) 0.21976(10) 0.39233(7) 0.0673 Uani
N3 N 0.1469(6) 0.2253(6) 0.4502(4) 0.0616 Uani
N4 N 0.2034(5) 0.1935(6) 0.5103(4) 0.0589 Uani
C7 C 0.1526(9) 0.0763(4) 0.4167 0.0494 Uani
H13 H 0.1994 0.0997 0.4167 0.0590 Uiso
C8 C 0.1218(7) 0.1063(7) 0.4404(5) 0.0560 Uani
C9 C 0.0505(8) 0.0705(8) 0.4369(6) 0.0719 Uani
H14 H 0.0266 0.0914 0.4493 0.0860 Uiso
C10 C 0.0178(10) 0.0089(5) 0.4167 0.0604 Uani
H15 H -0.0291 -0.0145 0.4167 0.0730 Uiso
C11 C 0.1576(7) 0.1760(8) 0.4657(5) 0.0569 Uani
C12 C 0.2229(5) 0.2577(4) 0.5227(5) 0.0850 Uani
C13 C 0.1884(5) 0.2787(5) 0.4853(4) 0.0850 Uani
C14 C 0.2012(5) 0.3446(5) 0.4883(4) 0.0850 Uani
H16 H 0.1782 0.3587 0.4633 0.1020 Uiso
C15 C 0.2485(6) 0.3896(4) 0.5288(5) 0.0850 Uani
H17 H 0.2571 0.4337 0.5308 0.1020 Uiso
C16 C 0.2830(5) 0.3686(5) 0.5662(4) 0.0850 Uani
H18 H 0.3147 0.3986 0.5933 0.1020 Uiso
C17 C 0.2702(5) 0.3026(5) 0.5632(4) 0.0850 Uani
H19 H 0.2933 0.2885 0.5882 0.1020 Uiso
N3K N 0.1469(6) -0.0784(8) 0.3831(4) 0.0616 Uani
N4K N 0.2034(5) 0.0099(8) 0.3230(4) 0.0589 Uani
C8K C 0.1218(7) 0.0155(10) 0.3929(5) 0.0560 Uani
C9K C 0.0505(8) -0.0200(11) 0.3964(6) 0.0719 Uani
H14K H 0.0266 -0.0648 0.3840 0.0860 Uiso
C11K C 0.1576(7) -0.0184(11) 0.3676(5) 0.0569 Uani
C12K C 0.2229(5) -0.0348(6) 0.3106(5) 0.0850 Uani
C13K C 0.1884(5) -0.0903(7) 0.3480(4) 0.0850 Uani
C14K C 0.2012(5) -0.1434(7) 0.3450(4) 0.0850 Uani
H16K H 0.1782 -0.1805 0.3700 0.1020 Uiso
C15K C 0.2485(6) -0.1411(7) 0.3045(5) 0.0850 Uani
H17K H 0.2571 -0.1766 0.3025 0.1020 Uiso
C16K C 0.2830(5) -0.0856(7) 0.2671(4) 0.0850 Uani
H18K H 0.3147 -0.0839 0.2400 0.1020 Uiso
C17K C 0.2702(5) -0.0324(7) 0.2701(4) 0.0850 Uani
H19K H 0.2933 0.0048 0.2451 0.1020 Uiso
Cu3F Cu 0.21976(10) 0.08317(9) 0.27434(7) 0.0673 Uani
Cu3D Cu 0.21976(10) 0.13659(13) 0.55900(7) 0.0673 Uani
Cu3K Cu 0.08317(9) -0.13659(13) 0.44100(7) 0.0673 Uani
N3F N 0.2253(6) 0.1469(6) 0.2165(4) 0.0616 Uani
N4E N 0.0099(8) 0.2034(5) 0.3436(4) 0.0589 Uani
I1 I 0.84675(5) 0.60946(5) 0.83789(4) 0.0671 Uani
I2 I 0.81050(5) 0.44476(5) 0.70891(4) 0.0676 Uani
Cu1 Cu 0.84154(9) 0.57577(10) 0.72245(8) 0.0718 Uani
Cu2 Cu 0.76475(11) 0.48131(10) 0.80428(7) 0.0734 Uani
N1 N 0.9380(6) 0.6266(6) 0.6886(5) 0.0599 Uani
N2 N 0.7652(7) 0.4206(6) 0.8733(5) 0.0661 Uani
C1 C 0.9417(7) 0.6015(7) 0.6299(6) 0.0649 Uani
H1 H 0.9142 0.6099 0.6020 0.0780 Uiso
H2 H 0.9231 0.5531 0.6323 0.0780 Uiso
C2 C 0.9861(8) 0.6200(8) 0.7282(6) 0.0733 Uani
H3 H 0.9729 0.5728 0.7317 0.0880 Uiso
H4 H 0.9846 0.6365 0.7679 0.0880 Uiso
C3 C 0.9639(7) 0.7009(8) 0.6836(6) 0.0730 Uani
H5 H 0.9687 0.7201 0.7234 0.0880 Uiso
H6 H 0.9320 0.7085 0.6612 0.0880 Uiso
C4 C 0.7326(9) 0.4302(9) 0.9270(6) 0.0817 Uani
H7 H 0.6876 0.4211 0.9172 0.0980 Uiso
H8 H 0.7586 0.4762 0.9414 0.0980 Uiso
C5 C 0.8322(9) 0.4364(9) 0.8890(7) 0.0898 Uani
H9 H 0.8592 0.4842 0.8976 0.1080 Uiso
H10 H 0.8526 0.4265 0.8553 0.1080 Uiso
C6 C 0.7295(10) 0.3510(8) 0.8558(6) 0.0843 Uani
H11 H 0.7486 0.3456 0.8188 0.1010 Uiso
H12 H 0.6827 0.3375 0.8482 0.1010 Uiso
N1H N 1.0620(6) 0.6886(8) 0.6447(5) 0.0599 Uani
C1H C 1.0583(7) 0.6598(10) 0.7034(6) 0.0649 Uani
H1H H 1.0858 0.6957 0.7313 0.0780 Uiso
H2H H 1.0769 0.6300 0.7010 0.0780 Uiso
C2H C 1.0139(8) 0.6339(11) 0.6051(6) 0.0733 Uani
H3H H 1.0271 0.5999 0.6016 0.0880 Uiso
H4H H 1.0154 0.6519 0.5654 0.0880 Uiso
C3H C 1.0361(7) 0.7370(11) 0.6497(6) 0.0730 Uani
H5H H 1.0313 0.7514 0.6099 0.0880 Uiso
H6H H 1.0680 0.7765 0.6721 0.0880 Uiso
N2K N 0.7652(7) 0.3446(9) 0.9600(5) 0.0661 Uani
C4K C 0.7326(9) 0.3024(13) 0.9063(6) 0.0817 Uani
H7K H 0.6876 0.2665 0.9161 0.0980 Uiso
H8K H 0.7586 0.2824 0.8919 0.0980 Uiso
C5K C 0.8322(9) 0.3958(13) 0.9443(7) 0.0898 Uani
H9K H 0.8592 0.3750 0.9357 0.1080 Uiso
H10K H 0.8526 0.4261 0.9780 0.1080 Uiso
C6K C 0.7295(10) 0.3785(13) 0.9775(6) 0.0843 Uani
H11K H 0.7486 0.4030 1.0145 0.1010 Uiso
H12K H 0.6827 0.3452 0.9851 0.1010 Uiso
I1H I 1.15325(5) 0.76271(7) 0.49544(4) 0.0671 Uani
I2H I 1.18950(5) 0.63426(7) 0.62442(4) 0.0676 Uani
Cu1H Cu 1.15846(9) 0.73423(13) 0.61088(8) 0.0718 Uani
Cu2H Cu 1.23525(11) 0.71656(15) 0.52905(7) 0.0734 Uani
I1E I 1.23729(7) 0.84675(5) 0.67122(4) 0.0671 Uani
I1J I 0.76271(7) 0.60946(5) 0.66211(4) 0.0671 Uani
I2E I 1.36574(7) 0.81050(5) 0.54224(4) 0.0676 Uani
I2J I 0.63426(7) 0.44476(5) 0.79109(4) 0.0676 Uani
Cu1E Cu 1.26577(13) 0.84154(9) 0.55578(8) 0.0718 Uani
Cu1J Cu 0.73423(13) 0.57577(10) 0.77755(8) 0.0718 Uani
Cu2E Cu 1.28344(15) 0.76475(11) 0.63761(7) 0.0734 Uani
Cu2J Cu 0.71656(15) 0.48131(10) 0.69572(7) 0.0734 Uani
Cu2K Cu 0.76475(11) 0.28344(15) 1.02905(7) 0.0734 Uani
N2H N 1.2348(7) 0.6554(9) 0.4600(5) 0.0661 Uani
loop_
_atom_site_aniso_label
_atom_site_aniso_U_11
_atom_site_aniso_U_22
_atom_site_aniso_U_33
_atom_site_aniso_U_23
_atom_site_aniso_U_13
_atom_site_aniso_U_12
Cu3 0.0788(13) 0.0819(13) 0.0485(9) -0.0067(9) -0.0090(8) 0.0456(11)
N3 0.082(8) 0.070(8) 0.038(5) -0.009(6) -0.010(6) 0.042(7)
N4 0.062(7) 0.068(8) 0.054(6) 0.006(6) -0.003(6) 0.038(6)
C7 0.030(10) 0.061(10) 0.047(9) -0.007(8) 0.000 0.015(5)
C8 0.046(9) 0.082(11) 0.040(7) 0.006(7) 0.009(6) 0.032(8)
C9 0.098(13) 0.076(11) 0.053(8) 0.008(8) -0.004(8) 0.052(11)
C10 0.053(13) 0.065(11) 0.060(11) 0.009(10) 0.000 0.027(7)
C11 0.055(9) 0.084(11) 0.040(7) 0.008(7) 0.014(7) 0.041(9)
C12 0.085(2) 0.085(2) 0.085(2) -0.0001(5) -0.0003(5) 0.0424(11)
C13 0.085(2) 0.085(2) 0.085(2) -0.0001(5) -0.0003(5) 0.0424(11)
C14 0.085(2) 0.085(2) 0.085(2) -0.0001(5) -0.0003(5) 0.0424(11)
C15 0.085(2) 0.085(2) 0.085(2) -0.0001(5) -0.0003(5) 0.0424(11)
C16 0.085(2) 0.085(2) 0.085(2) -0.0001(5) -0.0003(5) 0.0424(11)
C17 0.085(2) 0.085(2) 0.085(2) -0.0001(5) -0.0003(5) 0.0424(11)
N3K 0.082 0.068 0.038 0.001 0.01 0.04
N4K 0.062 0.054 0.054 0.009 0.003 0.024
C8K 0.046 0.064 0.04 -0.003 -0.009 0.014
C9K 0.098 0.07 0.053 0.012 0.004 0.046
C11K 0.055 0.057 0.04 -0.006 -0.014 0.014
C12K 0.085 0.0852 0.085 0.0002 0.0003 0.0426
C13K 0.085 0.0852 0.085 0.0002 0.0003 0.0426
C14K 0.085 0.0852 0.085 0.0002 0.0003 0.0426
C15K 0.085 0.0852 0.085 0.0002 0.0003 0.0426
C16K 0.085 0.0852 0.085 0.0002 0.0003 0.0426
C17K 0.085 0.0852 0.085 0.0002 0.0003 0.0426
Cu3F 0.0819 0.0788 0.0485 0.009 0.0067 0.0456
Cu3D 0.0819 0.0695 0.0485 0.0023 -0.0067 0.0363
Cu3K 0.0788 0.0695 0.0485 0.0023 0.009 0.0332
N3F 0.07 0.082 0.038 0.01 0.009 0.042
N4E 0.054 0.062 0.054 -0.003 -0.009 0.024
I1 0.0658(6) 0.0669(6) 0.0629(5) -0.0116(5) -0.0024(5) 0.0288(5)
I2 0.0767(7) 0.0624(6) 0.0657(6) 0.0003(5) 0.0027(5) 0.0363(6)
Cu1 0.0631(12) 0.0747(13) 0.0702(11) 0.0041(9) 0.0096(9) 0.0288(10)
Cu2 0.0893(15) 0.0700(12) 0.0613(10) 0.0072(9) -0.0043(10) 0.0401(11)
N1 0.061(7) 0.059(8) 0.057(7) 0.004(5) 0.013(6) 0.028(7)
N2 0.075(9) 0.063(8) 0.057(7) 0.005(6) -0.002(6) 0.032(7)
C1 0.060(9) 0.059(9) 0.060(8) -0.007(7) 0.003(7) 0.018(8)
C2 0.077(11) 0.084(12) 0.060(8) 0.007(8) -0.008(8) 0.041(10)
C3 0.069(10) 0.087(12) 0.067(9) 0.001(8) 0.012(7) 0.042(9)
C4 0.092(12) 0.101(13) 0.065(9) 0.008(9) -0.002(9) 0.058(11)
C5 0.095(14) 0.080(12) 0.080(10) 0.026(9) -0.007(9) 0.033(10)
C6 0.129(15) 0.079(12) 0.061(9) 0.016(8) 0.012(9) 0.064(12)
N1H 0.061 0.064 0.057 0.009 0.013 0.033
C1H 0.06 0.083 0.06 0.01 0.003 0.042
C2H 0.077 0.079 0.06 -0.015 -0.008 0.036
C3H 0.069 0.072 0.067 0.011 0.012 0.027
N2K 0.075 0.074 0.057 0.007 0.002 0.043
C4K 0.092 0.077 0.065 0.01 0.002 0.034
C5K 0.095 0.109 0.08 0.033 0.007 0.062
C6K 0.129 0.08 0.061 0.004 -0.012 0.065
I1H 0.0658 0.0751 0.0629 0.0092 -0.0024 0.037
I2H 0.0767 0.0665 0.0657 0.0024 0.0027 0.0404
Cu1H 0.0631 0.0802 0.0702 0.0055 0.0096 0.0343
Cu2H 0.0893 0.0791 0.0613 -0.0115 -0.0043 0.0492
I1E 0.0751 0.0658 0.0629 -0.0024 0.0092 0.037
I1J 0.0751 0.0669 0.0629 0.0116 0.0092 0.0381
I2E 0.0665 0.0767 0.0657 0.0027 0.0024 0.0404
I2J 0.0665 0.0624 0.0657 -0.0003 0.0024 0.0261
Cu1E 0.0802 0.0631 0.0702 0.0096 0.0055 0.0343
Cu1J 0.0802 0.0747 0.0702 -0.0041 0.0055 0.0459
Cu2E 0.0791 0.0893 0.0613 -0.0043 -0.0115 0.0492
Cu2J 0.0791 0.07 0.0613 -0.0072 -0.0115 0.0299
Cu2K 0.0893 0.0791 0.0613 0.0115 0.0043 0.0492
N2H 0.075 0.074 0.057 -0.007 -0.002 0.043
loop_
_geom_bond_atom_site_label_1
_geom_bond_atom_site_label_2
_geom_bond_site_symmetry_1
_geom_bond_site_symmetry_2
I1 Cu1 1_555 1_555
I2 Cu1 1_555 1_555
Cu1 N1 1_555 1_555
Cu2 I1 1_555 1_555
N1 C1 1_555 1_555
N2 Cu2 1_555 1_555
C1 H1 1_555 1_555
H2 C1 1_555 1_555
C2 N1 1_555 1_555
H3 C2 1_555 1_555
H4 C2 1_555 1_555
C3 N1 1_555 1_555
H5 C3 1_555 1_555
H6 C3 1_555 1_555
C4 N2 1_555 1_555
H7 C4 1_555 1_555
H8 C4 1_555 1_555
C5 N2 1_555 1_555
H9 C5 1_555 1_555
H10 C5 1_555 1_555
C6 N2 1_555 1_555
H11 C6 1_555 1_555
H12 C6 1_555 1_555
Cu3 N3 1_555 1_555
N3 C11 1_555 1_555
N4 C11 1_555 1_555
C7 H13 1_555 1_555
C8 C7 1_555 1_555
C9 C8 1_555 1_555
H14 C9 1_555 1_555
C10 C9 1_555 1_555
H15 C10 1_555 1_555
C11 C8 1_555 1_555
C12 N4 1_555 1_555
C13 N3 1_555 1_555
C14 C13 1_555 1_555
H16 C14 1_555 1_555
C15 C14 1_555 1_555
H17 C15 1_555 1_555
C16 C15 1_555 1_555
H18 C16 1_555 1_555
C17 C12 1_555 1_555
H19 C17 1_555 1_555
N1H C1H 1_555 1_555
C1H C2 1_555 1_555
H1H C1H 1_555 1_555
H2H C1H 1_555 1_555
C2H C1 1_555 1_555
H3H C2H 1_555 1_555
H4H C2H 1_555 1_555
C3H C3 1_555 1_555
H5H C3H 1_555 1_555
H6H C3H 1_555 1_555
N2K C4K 1_555 1_555
C4K C6 1_555 1_555
H7K C4K 1_555 1_555
H8K C4K 1_555 1_555
C5K C5 1_555 1_555
H9K C5K 1_555 1_555
H10K C5K 1_555 1_555
C6K C4 1_555 1_555
H11K C6K 1_555 1_555
H12K C6K 1_555 1_555
I1H Cu1H 1_555 1_555
I2H Cu1H 1_555 1_555
Cu1H N1H 1_555 1_555
Cu2H I1H 1_555 1_555
I1E Cu1H 1_555 1_555
I1J Cu1 1_555 1_555
I2E Cu2H 1_555 1_555
I2J Cu2 1_555 1_555
Cu1E I1H 1_555 1_555
Cu1J I1 1_555 1_555
Cu2E I2H 1_555 1_555
Cu2J I2 1_555 1_555
Cu2K N2K 1_555 1_555
N2H Cu2H 1_555 1_555
N3K C11K 1_555 1_555
N4K C11K 1_555 1_555
C8K C7 1_555 1_555
C9K C10 1_555 1_555
H14K C9K 1_555 1_555
C11K C8K 1_555 1_555
C12K N4K 1_555 1_555
C13K N3K 1_555 1_555
C14K C13K 1_555 1_555
H16K C14K 1_555 1_555
C15K C14K 1_555 1_555
H17K C15K 1_555 1_555
C16K C15K 1_555 1_555
H18K C16K 1_555 1_555
C17K C12K 1_555 1_555
H19K C17K 1_555 1_555
Cu3F N4K 1_555 1_555
Cu3D N4 1_555 1_555
Cu3K N3K 1_555 1_555
N3F Cu3F 1_555 1_555
N4E Cu3 1_555 1_555
I2 Cu2 1_555 1_555
C12 C13 1_555 1_555
C16 C17 1_555 1_555
N1H C2H 1_555 1_555
N1H C3H 1_555 1_555
N2K C5K 1_555 1_555
N2K C6K 1_555 1_555
I2H Cu2H 1_555 1_555
I1E Cu1E 1_555 1_555
I1E Cu2E 1_555 1_555
I1J Cu1J 1_555 1_555
I1J Cu2J 1_555 1_555
I2E Cu1E 1_555 1_555
I2E Cu2E 1_555 1_555
I2J Cu1J 1_555 1_555
I2J Cu2J 1_555 1_555
C8K C9K 1_555 1_555
C12K C13K 1_555 1_555
C16K C17K 1_555 1_555

#END
