
#######################################################################
#
#                 Cambridge Crystallographic Data Centre
#                                CCDC 
#
#######################################################################
#
# If this CIF has been generated from an entry in the Cambridge 
# Structural Database, then it will include bibliographic, chemical, 
# crystal, experimental, refinement or atomic coordinate data resulting 
# from the CCDC's data processing and validation procedures.
#
#######################################################################

data_HIQWOV
_chemical_formula_moiety         '(C48 H24 Cd3 Na2 O24)n'
_symmetry_cell_setting           orthorhombic
_symmetry_space_group_name_H-M   'F d d 2'
_symmetry_Int_Tables_number      43
_space_group_name_Hall           'F 2 -2d'
loop_
_symmetry_equiv_pos_site_id
_symmetry_equiv_pos_as_xyz
1 x,y,z
2 -x,-y,z
3 1/4+x,1/4-y,1/4+z
4 1/4-x,1/4+y,1/4+z
5 x,1/2+y,1/2+z
6 -x,1/2-y,1/2+z
7 1/4+x,3/4-y,3/4+z
8 1/4-x,3/4+y,3/4+z
9 1/2+x,y,1/2+z
10 1/2-x,-y,1/2+z
11 3/4+x,1/4-y,3/4+z
12 3/4-x,1/4+y,3/4+z
13 1/2+x,1/2+y,z
14 1/2-x,1/2-y,z
15 3/4+x,3/4-y,1/4+z
16 3/4-x,3/4+y,1/4+z
_cell_length_a                   29.370(6)
_cell_length_b                   20.998(3)
_cell_length_c                   27.360(4)
_cell_angle_alpha                90
_cell_angle_beta                 90
_cell_angle_gamma                90
_cell_volume                     16873.2
loop_
_atom_site_label
_atom_site_type_symbol
_atom_site_fract_x
_atom_site_fract_y
_atom_site_fract_z
_atom_site_U_iso_or_equiv
_atom_site_thermal_displace_type
Cd1 Cd 0.0000 0.0000 0.20471(4) 0.0399 Uani
Cd2 Cd 0.07052(4) 0.25151(5) 0.06894(4) 0.0542 Uani
Na1 Na 0.03267(7) 0.12417(11) 0.13453(9) 0.0402 Uani
O1 O 0.1869(4) 0.2731(6) 0.3759(4) 0.0710 Uani
O2 O 0.0014(4) 0.2223(7) 0.1440(5) 0.0833 Uani
O3 O 0.2145(4) 0.1794(5) 0.4042(4) 0.0600 Uani
O4 O 0.1363(5) 0.2623(6) 0.1319(5) 0.0760 Uani
O5 O -0.1252(5) 0.4883(7) 0.2566(5) 0.0787 Uani
O6 O 0.1027(4) 0.1693(6) 0.1127(4) 0.0737 Uani
O7 O 0.2628(5) 0.0033(7) 0.2600(6) 0.0897 Uani
O8 O 0.0286(5) 0.3079(7) 0.1196(5) 0.0837 Uani
C1 C 0.1518(6) 0.1130(9) 0.3497(6) 0.0633 Uani
H1 H 0.1701 0.0911 0.3718 0.0760 Uiso
C2 C 0.0034(8) 0.2825(12) 0.1426(9) 0.0817 Uani
C3 C 0.1865(6) 0.2153(8) 0.3767(6) 0.0503 Uani
C4 C 0.1265(6) 0.2127(8) 0.3128(6) 0.0633 Uani
H2 H 0.1275 0.2568 0.3108 0.0760 Uiso
C5 C -0.0901(7) 0.3887(9) 0.2332(7) 0.0790 Uani
O9 O 0.0395(4) 0.1074(6) 0.2207(5) 0.0807 Uani
C6 C 0.1549(5) 0.1781(8) 0.3465(6) 0.0557 Uani
O10 O -0.1496(5) 0.4010(7) 0.2875(5) 0.0857 Uani
C7 C 0.1215(6) 0.0795(9) 0.3200(6) 0.0667 Uani
H3 H 0.1189 0.0355 0.3220 0.0800 Uiso
C8 C -0.0300(7) 0.3822(9) 0.1692(7) 0.0797 Uani
H4 H -0.0112 0.4034 0.1472 0.0960 Uiso
C9 C 0.1316(7) 0.2019(9) 0.1371(7) 0.0700 Uani
C10 C 0.0952(6) 0.1146(9) 0.2872(6) 0.0640 Uani
C11 C 0.0604(7) 0.0733(10) 0.2558(7) 0.0670 Uani
C12 C 0.0968(6) 0.1764(9) 0.2825(6) 0.0667 Uani
H5 H 0.0786 0.1966 0.2594 0.0800 Uiso
C13 C 0.2239(7) 0.0987(10) 0.2293(7) 0.0803 Uani
C14 C 0.2583(8) 0.0572(12) 0.2638(8) 0.0847 Uani
C15 C -0.0909(7) 0.3231(9) 0.2312(7) 0.0813 Uani
H6 H -0.1105 0.2988 0.2504 0.0970 Uiso
C16 C -0.0295(7) 0.3189(10) 0.1728(7) 0.0783 Uani
C17 C 0.2219(8) 0.1699(11) 0.2299(7) 0.0880 Uani
H7 H 0.2398 0.1928 0.2517 0.1060 Uiso
C18 C 0.1629(6) 0.1670(9) 0.1705(6) 0.0643 Uani
C19 C -0.1251(7) 0.4289(11) 0.2618(7) 0.0787 Uani
C20 C 0.1631(6) 0.1020(9) 0.1734(6) 0.0700 Uani
H8 H 0.1429 0.0783 0.1545 0.0840 Uiso
C21 C 0.1948(6) 0.2000(9) 0.1992(6) 0.0703 Uani
H9 H 0.1968 0.2440 0.1965 0.0840 Uiso
C22 C 0.1934(7) 0.0710(10) 0.2045(7) 0.0810 Uani
H10 H 0.1911 0.0270 0.2073 0.0970 Uiso
O11 O 0.2763(5) 0.0946(7) 0.2968(5) 0.0907 Uani
C23 C -0.0603(8) 0.2958(10) 0.1983(8) 0.0870 Uani
H11 H -0.0636 0.2520 0.1948 0.1040 Uiso
C24 C -0.0626(7) 0.4185(9) 0.2025(7) 0.0837 Uani
H12 H -0.0631 0.4627 0.2012 0.1000 Uiso
O12 O 0.0574(5) 0.0176(7) 0.2598(5) 0.0753 Uani
Cd2A Cd -0.07052(4) -0.25151(5) 0.06894(4) 0.0542 Uani
Na1A Na -0.03267(7) -0.12417(11) 0.13453(9) 0.0402 Uani
O1A O -0.1869(4) -0.2731(6) 0.3759(4) 0.0710 Uani
O2A O -0.0014(4) -0.2223(7) 0.1440(5) 0.0833 Uani
O3A O -0.2145(4) -0.1794(5) 0.4042(4) 0.0600 Uani
O4A O -0.1363(5) -0.2623(6) 0.1319(5) 0.0760 Uani
O5A O 0.1252(5) -0.4883(7) 0.2566(5) 0.0787 Uani
O6A O -0.1027(4) -0.1693(6) 0.1127(4) 0.0737 Uani
O7A O -0.2628(5) -0.0033(7) 0.2600(6) 0.0897 Uani
O8A O -0.0286(5) -0.3079(7) 0.1196(5) 0.0837 Uani
C1A C -0.1518(6) -0.1130(9) 0.3497(6) 0.0633 Uani
H1A H -0.1701 -0.0911 0.3718 0.0760 Uiso
C2A C -0.0034(8) -0.2825(12) 0.1426(9) 0.0817 Uani
C3A C -0.1865(6) -0.2153(8) 0.3767(6) 0.0503 Uani
C4A C -0.1265(6) -0.2127(8) 0.3128(6) 0.0633 Uani
H2A H -0.1275 -0.2568 0.3108 0.0760 Uiso
C5A C 0.0901(7) -0.3887(9) 0.2332(7) 0.0790 Uani
O9A O -0.0395(4) -0.1074(6) 0.2207(5) 0.0807 Uani
C6A C -0.1549(5) -0.1781(8) 0.3465(6) 0.0557 Uani
O10A O 0.1496(5) -0.4010(7) 0.2875(5) 0.0857 Uani
C7A C -0.1215(6) -0.0795(9) 0.3200(6) 0.0667 Uani
H3A H -0.1189 -0.0355 0.3220 0.0800 Uiso
C8A C 0.0300(7) -0.3822(9) 0.1692(7) 0.0797 Uani
H4A H 0.0112 -0.4034 0.1472 0.0960 Uiso
C9A C -0.1316(7) -0.2019(9) 0.1371(7) 0.0700 Uani
C10A C -0.0952(6) -0.1146(9) 0.2872(6) 0.0640 Uani
C11A C -0.0604(7) -0.0733(10) 0.2558(7) 0.0670 Uani
C12A C -0.0968(6) -0.1764(9) 0.2825(6) 0.0667 Uani
H5A H -0.0786 -0.1966 0.2594 0.0800 Uiso
C13A C -0.2239(7) -0.0987(10) 0.2293(7) 0.0803 Uani
C14A C -0.2583(8) -0.0572(12) 0.2638(8) 0.0847 Uani
C15A C 0.0909(7) -0.3231(9) 0.2312(7) 0.0813 Uani
H6A H 0.1105 -0.2988 0.2504 0.0970 Uiso
C16A C 0.0295(7) -0.3189(10) 0.1728(7) 0.0783 Uani
C17A C -0.2219(8) -0.1699(11) 0.2299(7) 0.0880 Uani
H7A H -0.2398 -0.1928 0.2517 0.1060 Uiso
C18A C -0.1629(6) -0.1670(9) 0.1705(6) 0.0643 Uani
C19A C 0.1251(7) -0.4289(11) 0.2618(7) 0.0787 Uani
C20A C -0.1631(6) -0.1020(9) 0.1734(6) 0.0700 Uani
H8A H -0.1429 -0.0783 0.1545 0.0840 Uiso
C21A C -0.1948(6) -0.2000(9) 0.1992(6) 0.0703 Uani
H9A H -0.1968 -0.2440 0.1965 0.0840 Uiso
C22A C -0.1934(7) -0.0710(10) 0.2045(7) 0.0810 Uani
H10A H -0.1911 -0.0270 0.2073 0.0970 Uiso
O11A O -0.2763(5) -0.0946(7) 0.2968(5) 0.0907 Uani
C23A C 0.0603(8) -0.2958(10) 0.1983(8) 0.0870 Uani
H11A H 0.0636 -0.2520 0.1948 0.1040 Uiso
C24A C 0.0626(7) -0.4185(9) 0.2025(7) 0.0837 Uani
H12A H 0.0631 -0.4627 0.2012 0.1000 Uiso
O12A O -0.0574(5) -0.0176(7) 0.2598(5) 0.0753 Uani
Cd1B Cd 0.2500 0.2500 0.45471(4) 0.0399 Uani
Cd1N Cd -0.2500 -0.2500 0.45471(4) 0.0399 Uani
Cd2B Cd 0.32052(4) -0.00151(5) 0.31894(4) 0.0542 Uani
Cd2C Cd 0.17948(4) -0.49849(5) 0.31894(4) 0.0542 Uani
Cd2N Cd -0.17948(4) 0.49849(5) 0.31894(4) 0.0542 Uani
Cd2O Cd -0.32052(4) 0.00151(5) 0.31894(4) 0.0542 Uani
Na1B Na 0.28267(7) 0.12583(11) 0.38453(9) 0.0402 Uani
Na1C Na 0.21733(7) 0.37417(11) 0.38453(9) 0.0402 Uani
Na1N Na -0.21733(7) -0.37417(11) 0.38453(9) 0.0402 Uani
Na1O Na -0.28267(7) -0.12583(11) 0.38453(9) 0.0402 Uani
O1G O 0.0631(4) 0.0231(6) 0.1259(4) 0.0710 Uani
O1J O -0.0631(4) -0.0231(6) 0.1259(4) 0.0710 Uani
O3G O 0.0355(4) -0.0706(5) 0.1542(4) 0.0600 Uani
O3J O -0.0355(4) 0.0706(5) 0.1542(4) 0.0600 Uani
O5F O 0.1248(5) 0.2617(7) 0.0066(5) 0.0787 Uani
O5K O -0.1248(5) -0.2617(7) 0.0066(5) 0.0787 Uani
O7G O -0.0128(5) -0.2467(7) 0.0100(6) 0.0897 Uani
O7J O 0.0128(5) 0.2467(7) 0.0100(6) 0.0897 Uani
O10F O 0.1004(5) 0.3490(7) 0.0375(5) 0.0857 Uani
O10K O -0.1004(5) -0.3490(7) 0.0375(5) 0.0857 Uani
O11G O -0.0263(5) -0.1554(7) 0.0468(5) 0.0907 Uani
O11J O 0.0263(5) 0.1554(7) 0.0468(5) 0.0907 Uani
loop_
_atom_site_aniso_label
_atom_site_aniso_U_11
_atom_site_aniso_U_22
_atom_site_aniso_U_33
_atom_site_aniso_U_23
_atom_site_aniso_U_13
_atom_site_aniso_U_12
Cd1 0.0295(7) 0.0488(8) 0.0413(7) 0.000 0.000 -0.0023(8)
Cd2 0.0449(6) 0.0567(6) 0.0610(7) 0.0003(5) 0.0095(6) -0.0039(7)
Na1 0.0273(8) 0.0417(8) 0.0517(9) -0.0003(8) 0.0024(9) 0.0020(8)
O1 0.061 0.072 0.08 -0.015 -0.004 -0.001
O2 0.079(10) 0.086(9) 0.085(9) -0.004(8) 0.005(8) 0.006(7)
O3 0.048 0.065 0.067 -0.036 0.001 0
O4 0.072(9) 0.080(8) 0.076(8) 0.003(7) 0.004(7) -0.004(7)
O5 0.077 0.083 0.076 -0.005 0.011 0.006
O6 0.066(8) 0.080(8) 0.075(7) -0.001(6) 0.006(7) -0.006(7)
O7 0.086 0.097 0.086 0.001 0.004 0.002
O8 0.078(10) 0.086(10) 0.087(10) -0.002(7) 0.016(8) -0.001(8)
C1 0.050(10) 0.075(12) 0.065(10) -0.008(9) -0.018(9) -0.002(9)
C2 0.080(16) 0.082(16) 0.083(15) -0.004(13) 0.010(13) 0.001(13)
C3 0.044 0.052 0.055 -0.023 -0.006 0.001
C4 0.057(11) 0.072(11) 0.061(9) 0.000(9) -0.009(9) 0.001(9)
C5 0.076 0.079 0.082 -0.007 0.018 0.002
O9 0.070(8) 0.093(9) 0.079(8) -0.017(7) -0.010(7) 0.003(7)
C6 0.048(10) 0.064(11) 0.055(9) -0.005(8) -0.010(9) -0.001(9)
O10 0.081 0.09 0.086 -0.007 0.015 0.005
C7 0.057(11) 0.074(12) 0.069(11) -0.010(10) -0.009(10) -0.003(10)
C8 0.077(13) 0.080(14) 0.082(12) -0.001(10) 0.014(12) 0.002(11)
C9 0.062(11) 0.081(12) 0.067(10) 0.002(10) 0.009(11) -0.005(10)
C10 0.054(11) 0.076(13) 0.062(10) -0.011(9) -0.007(9) 0.000(10)
C11 0.058(12) 0.077(13) 0.066(11) -0.011(10) -0.008(10) 0.008(10)
C12 0.057(11) 0.078(12) 0.065(10) -0.004(9) -0.010(10) 0.001(9)
C13 0.077 0.093 0.071 0.003 0.001 0
C14 0.082 0.092 0.08 0.005 0.003 -0.007
C15 0.081 0.078 0.085 -0.007 0.019 -0.001
C16 0.076(14) 0.076(13) 0.083(13) -0.005(10) 0.009(13) 0.003(12)
C17 0.082 0.103 0.079 0.005 0 -0.005
C18 0.058(11) 0.072(12) 0.063(10) 0.003(9) 0.004(9) -0.003(9)
C19 0.077 0.081 0.078 -0.005 0.011 0
C20 0.061(11) 0.079(12) 0.070(10) -0.001(9) 0.002(10) -0.003(10)
C21 0.063(11) 0.079(12) 0.069(11) 0.001(9) -0.002(10) -0.001(10)
C22 0.076 0.088 0.079 0.006 -0.001 0
O11 0.084 0.099 0.089 0.01 0 -0.007
C23 0.085(15) 0.081(13) 0.095(14) -0.004(11) 0.013(13) 0.006(12)
C24 0.081(14) 0.077(13) 0.093(14) 0.004(11) 0.014(13) 0.009(11)
O12 0.064(9) 0.086(9) 0.076(8) -0.019(7) -0.012(8) -0.013(7)
Cd2A 0.0449 0.0567 0.061 -0.0003 -0.0095 -0.0039
Na1A 0.0273 0.0417 0.0517 0.0003 -0.0024 0.002
O1A 0.061 0.072 0.08 0.015 0.004 -0.001
O2A 0.079 0.086 0.085 0.004 -0.005 0.006
O3A 0.048 0.065 0.067 0.036 -0.001 0
O4A 0.072 0.08 0.076 -0.003 -0.004 -0.004
O5A 0.077 0.083 0.076 0.005 -0.011 0.006
O6A 0.066 0.08 0.075 0.001 -0.006 -0.006
O7A 0.086 0.097 0.086 -0.001 -0.004 0.002
O8A 0.078 0.086 0.087 0.002 -0.016 -0.001
C1A 0.05 0.075 0.065 0.008 0.018 -0.002
C2A 0.08 0.082 0.083 0.004 -0.01 0.001
C3A 0.044 0.052 0.055 0.023 0.006 0.001
C4A 0.057 0.072 0.061 0 0.009 0.001
C5A 0.076 0.079 0.082 0.007 -0.018 0.002
O9A 0.07 0.093 0.079 0.017 0.01 0.003
C6A 0.048 0.064 0.055 0.005 0.01 -0.001
O10A 0.081 0.09 0.086 0.007 -0.015 0.005
C7A 0.057 0.074 0.069 0.01 0.009 -0.003
C8A 0.077 0.08 0.082 0.001 -0.014 0.002
C9A 0.062 0.081 0.067 -0.002 -0.009 -0.005
C10A 0.054 0.076 0.062 0.011 0.007 0
C11A 0.058 0.077 0.066 0.011 0.008 0.008
C12A 0.057 0.078 0.065 0.004 0.01 0.001
C13A 0.077 0.093 0.071 -0.003 -0.001 0
C14A 0.082 0.092 0.08 -0.005 -0.003 -0.007
C15A 0.081 0.078 0.085 0.007 -0.019 -0.001
C16A 0.076 0.076 0.083 0.005 -0.009 0.003
C17A 0.082 0.103 0.079 -0.005 0 -0.005
C18A 0.058 0.072 0.063 -0.003 -0.004 -0.003
C19A 0.077 0.081 0.078 0.005 -0.011 0
C20A 0.061 0.079 0.07 0.001 -0.002 -0.003
C21A 0.063 0.079 0.069 -0.001 0.002 -0.001
C22A 0.076 0.088 0.079 -0.006 0.001 0
O11A 0.084 0.099 0.089 -0.01 0 -0.007
C23A 0.085 0.081 0.095 0.004 -0.013 0.006
C24A 0.081 0.077 0.093 -0.004 -0.014 0.009
O12A 0.064 0.086 0.076 0.019 0.012 -0.013
Cd1B 0.0295 0.0488 0.0413 0 0 0.0023
Cd1N 0.0295 0.0488 0.0413 0 0 0.0023
Cd2B 0.0449 0.0567 0.061 -0.0003 0.0095 0.0039
Cd2C 0.0449 0.0567 0.061 0.0003 -0.0095 0.0039
Cd2N 0.0449 0.0567 0.061 -0.0003 0.0095 0.0039
Cd2O 0.0449 0.0567 0.061 0.0003 -0.0095 0.0039
Na1B 0.0273 0.0417 0.0517 0.0003 0.0024 -0.002
Na1C 0.0273 0.0417 0.0517 -0.0003 -0.0024 -0.002
Na1N 0.0273 0.0417 0.0517 0.0003 0.0024 -0.002
Na1O 0.0273 0.0417 0.0517 -0.0003 -0.0024 -0.002
O1G 0.061 0.072 0.08 -0.015 0.004 0.001
O1J 0.061 0.072 0.08 0.015 -0.004 0.001
O3G 0.048 0.065 0.067 -0.036 -0.001 0
O3J 0.048 0.065 0.067 0.036 0.001 0
O5F 0.077 0.083 0.076 0.005 0.011 -0.006
O5K 0.077 0.083 0.076 -0.005 -0.011 -0.006
O7G 0.086 0.097 0.086 0.001 -0.004 -0.002
O7J 0.086 0.097 0.086 -0.001 0.004 -0.002
O10F 0.081 0.09 0.086 0.007 0.015 -0.005
O10K 0.081 0.09 0.086 -0.007 -0.015 -0.005
O11G 0.084 0.099 0.089 0.01 0 0.007
O11J 0.084 0.099 0.089 -0.01 0 0.007
loop_
_geom_bond_atom_site_label_1
_geom_bond_atom_site_label_2
_geom_bond_site_symmetry_1
_geom_bond_site_symmetry_2
Cd1 O9 1_555 1_555
Cd2 O4 1_555 1_555
Na1 O2 1_555 1_555
O1 C3 1_555 1_555
O2 C2 1_555 1_555
O3 C3 1_555 1_555
O4 C9 1_555 1_555
O5 C19 1_555 1_555
O6 Cd2 1_555 1_555
O7 C14 1_555 1_555
O8 Cd2 1_555 1_555
C1 H1 1_555 1_555
C2 O8 1_555 1_555
C3 C6 1_555 1_555
C4 H2 1_555 1_555
C5 C15 1_555 1_555
O9 Na1 1_555 1_555
C6 C1 1_555 1_555
O10 C19 1_555 1_555
C7 C1 1_555 1_555
H3 C7 1_555 1_555
C8 H4 1_555 1_555
C9 O6 1_555 1_555
C10 C7 1_555 1_555
C11 O9 1_555 1_555
C12 C4 1_555 1_555
H5 C12 1_555 1_555
C13 C14 1_555 1_555
C14 O11 1_555 1_555
C15 H6 1_555 1_555
C16 C2 1_555 1_555
C17 C13 1_555 1_555
H7 C17 1_555 1_555
C18 C9 1_555 1_555
C19 C5 1_555 1_555
C20 C18 1_555 1_555
H8 C20 1_555 1_555
C21 C17 1_555 1_555
H9 C21 1_555 1_555
C22 C13 1_555 1_555
H10 C22 1_555 1_555
O11 Cd2B 1_555 1_555
C23 C15 1_555 1_555
H11 C23 1_555 1_555
C24 C5 1_555 1_555
H12 C24 1_555 1_555
O12 Cd1 1_555 1_555
Cd2A O4A 1_555 1_555
Na1A O2A 1_555 1_555
O1A C3A 1_555 1_555
O2A C2A 1_555 1_555
O3A C3A 1_555 1_555
O4A C9A 1_555 1_555
O5A C19A 1_555 1_555
O6A Cd2A 1_555 1_555
O7A C14A 1_555 1_555
O8A Cd2A 1_555 1_555
C1A H1A 1_555 1_555
C2A O8A 1_555 1_555
C3A C6A 1_555 1_555
C4A H2A 1_555 1_555
C5A C15A 1_555 1_555
O9A Cd1 1_555 1_555
C6A C1A 1_555 1_555
O10A C19A 1_555 1_555
C7A C1A 1_555 1_555
H3A C7A 1_555 1_555
C8A H4A 1_555 1_555
C9A O6A 1_555 1_555
C10A C7A 1_555 1_555
C11A O9A 1_555 1_555
C12A C4A 1_555 1_555
H5A C12A 1_555 1_555
C13A C14A 1_555 1_555
C14A O11A 1_555 1_555
C15A H6A 1_555 1_555
C16A C2A 1_555 1_555
C17A C13A 1_555 1_555
H7A C17A 1_555 1_555
C18A C9A 1_555 1_555
C19A C5A 1_555 1_555
C20A C18A 1_555 1_555
H8A C20A 1_555 1_555
C21A C17A 1_555 1_555
H9A C21A 1_555 1_555
C22A C13A 1_555 1_555
H10A C22A 1_555 1_555
O11A Cd2O 1_555 1_555
C23A C15A 1_555 1_555
H11A C23A 1_555 1_555
C24A C5A 1_555 1_555
H12A C24A 1_555 1_555
O12A Cd1 1_555 1_555
Cd1B O3 1_555 1_555
Cd1N O3A 1_555 1_555
Cd2B O7 1_555 1_555
Cd2C O5A 1_555 1_555
Cd2N O5 1_555 1_555
Cd2O O7A 1_555 1_555
Na1B O3 1_555 1_555
Na1C O1 1_555 1_555
Na1N O1A 1_555 1_555
Na1O O3A 1_555 1_555
O1G Na1 1_555 1_555
O1J Na1A 1_555 1_555
O3G Cd1 1_555 1_555
O3J Cd1 1_555 1_555
O5F Cd2 1_555 1_555
O5K Cd2A 1_555 1_555
O7G Cd2A 1_555 1_555
O7J Cd2 1_555 1_555
O10F Cd2 1_555 1_555
O10K Cd2A 1_555 1_555
O11G Cd2A 1_555 1_555
O11J Cd2 1_555 1_555
Na1 O6 1_555 1_555
Na1 O3J 1_555 1_555
Na1 O11J 1_555 1_555
C4 C6 1_555 1_555
O10 Cd2N 1_555 1_555
C8 C16 1_555 1_555
C8 C24 1_555 1_555
C10 C11 1_555 1_555
C10 C12 1_555 1_555
C11 O12 1_555 1_555
C16 C23 1_555 1_555
C18 C21 1_555 1_555
C20 C22 1_555 1_555
O11 Na1B 1_555 1_555
Na1A O6A 1_555 1_555
Na1A O9A 1_555 1_555
Na1A O3G 1_555 1_555
Na1A O11G 1_555 1_555
C4A C6A 1_555 1_555
O10A Cd2C 1_555 1_555
C8A C16A 1_555 1_555
C8A C24A 1_555 1_555
C10A C11A 1_555 1_555
C10A C12A 1_555 1_555
C11A O12A 1_555 1_555
C16A C23A 1_555 1_555
C18A C21A 1_555 1_555
C20A C22A 1_555 1_555
O11A Na1O 1_555 1_555

#END
