
#######################################################################
#
#                 Cambridge Crystallographic Data Centre
#                                CCDC 
#
#######################################################################
#
# If this CIF has been generated from an entry in the Cambridge 
# Structural Database, then it will include bibliographic, chemical, 
# crystal, experimental, refinement or atomic coordinate data resulting 
# from the CCDC's data processing and validation procedures.
#
#######################################################################

data_NENFAN
_chemical_formula_moiety         '(C7 H13 F1 Ga4 N2 O17 P4)n'
_symmetry_cell_setting           monoclinic
_symmetry_space_group_name_H-M   'C 2/c'
_symmetry_Int_Tables_number      15
_space_group_name_Hall           '-C 2yc'
loop_
_symmetry_equiv_pos_site_id
_symmetry_equiv_pos_as_xyz
1 x,y,z
2 1/2+x,1/2+y,z
3 -x,y,1/2-z
4 1/2-x,1/2+y,1/2-z
5 -x,-y,-z
6 1/2-x,1/2-y,-z
7 x,-y,1/2+z
8 1/2+x,1/2-y,1/2+z
_cell_length_a                   22.093(4)
_cell_length_b                   13.904(2)
_cell_length_c                   14.230(2)
_cell_angle_alpha                90
_cell_angle_beta                 98.431(3)
_cell_angle_gamma                90
_cell_volume                     4323.95
loop_
_atom_site_label
_atom_site_type_symbol
_atom_site_fract_x
_atom_site_fract_y
_atom_site_fract_z
_atom_site_U_iso_or_equiv
_atom_site_thermal_displace_type
Ga1 Ga 0.41649(2) -0.40412(3) 0.49217(3) 0.0081 Uani
Ga2 Ga 0.33742(2) -0.29855(4) 0.08604(3) 0.0087 Uani
Ga3 Ga 0.25552(2) -0.38940(3) 0.43993(3) 0.0083 Uani
Ga4 Ga 0.33987(2) -0.60223(4) 0.30601(4) 0.0098 Uani
P1 P 0.44220(6) -0.61956(8) 0.48348(9) 0.0089 Uani
P2 P 0.26344(6) -0.10948(8) 0.05925(8) 0.0087 Uani
P3 P 0.34371(6) -0.38147(9) 0.29360(8) 0.0098 Uani
P4 P 0.32839(6) -0.28615(8) 0.60949(8) 0.0083 Uani
F1 F 0.33218(11) -0.46518(18) 0.46955(17) 0.0107 Uani
O1 O 0.27130(14) -0.3391(2) 0.5617(2) 0.0100 Uani
O2 O 0.28570(14) -0.0058(2) 0.0690(2) 0.0101 Uani
O3 O 0.38581(15) -0.3149(2) 0.5685(2) 0.0141 Uani
O4 O 0.22416(14) -0.1384(2) 0.1344(2) 0.0133 Uani
O5 O 0.40329(14) -0.3789(2) 0.3631(2) 0.0110 Uani
O6 O 0.44238(14) -0.5240(2) 0.5364(2) 0.0113 Uani
O7 O 0.32838(15) -0.4832(2) 0.2544(2) 0.0146 Uani
O8 O 0.35423(14) -0.3159(2) 0.2114(2) 0.0134 Uani
O9 O 0.22850(14) -0.1281(2) -0.0405(2) 0.0118 Uani
O10 O 0.32175(14) -0.1702(2) 0.0725(2) 0.0135 Uani
O11 O 0.40443(15) -0.6945(2) 0.5286(2) 0.0149 Uani
O12 O 0.28954(14) -0.3417(2) 0.3378(2) 0.0126 Uani
O13 O 0.41419(15) -0.6084(2) 0.3788(2) 0.0150 Uani
O14 O 0.32024(14) -0.1772(2) 0.5950(2) 0.0104 Uani
O15 O 0.50646(13) -0.6582(2) 0.4876(2) 0.0104 Uani
O16 O 0.33800(15) -0.3056(2) 0.7161(2) 0.0151 Uani
O15D O 0.49354(13) -0.3418(2) 0.5124(2) 0.0104 Uani
Ga1D Ga 0.58351(2) -0.59588(3) 0.50783(3) 0.0081 Uani
Ga2F Ga 0.33742(2) -0.70145(4) 0.58604(3) 0.0087 Uani
Ga3E Ga 0.24448(2) -0.11060(3) 0.56007(3) 0.0083 Uani
O9E O 0.27150(14) -0.3719(2) 0.0405(2) 0.0118 Uani
O14E O 0.17976(14) -0.3228(2) 0.4050(2) 0.0104 Uani
O11F O 0.40443(15) -0.3055(2) 0.0286(2) 0.0149 Uani
O2C O 0.21430(14) -0.5058(2) 0.4310(2) 0.0101 Uani
O4C O 0.27584(14) -0.6384(2) 0.3656(2) 0.0133 Uani
O16F O 0.33800(15) -0.6944(2) 0.2161(2) 0.0151 Uani
Ga2E Ga 0.16258(2) -0.20145(4) -0.08604(3) 0.0087 Uani
Ga4F Ga 0.33987(2) -0.39777(4) 0.80601(4) 0.0098 Uani
Ga3C Ga 0.24448(2) 0.11060(3) 0.06007(3) 0.0083 Uani
Ga4C Ga 0.16013(2) -0.10223(4) 0.19399(4) 0.0098 Uani
C1 C 0.6267(3) 0.1234(4) 0.6562(5) 0.0436 Uani
H1 H 0.6181 0.1506 0.5937 0.0650 Uiso
H2 H 0.6694 0.131 0.68 0.0650 Uiso
H3 H 0.6027 0.1557 0.6977 0.0650 Uiso
C2 C 0.6623(3) -0.0469(5) 0.6647(4) 0.0410 Uani
H4 H 0.6629 -0.0808 0.7236 0.0620 Uiso
H5 H 0.6999 -0.0122 0.6656 0.0620 Uiso
H6 H 0.6577 -0.092 0.6131 0.0620 Uiso
N1 N 0.6111(2) 0.0204(3) 0.6522(3) 0.0255 Uani
C3 C 0.5535(2) -0.0086(3) 0.6375(3) 0.0190 Uani
C4 C 0.5026(3) 0.0556(4) 0.6246(4) 0.0253 Uani
H7 H 0.5092 0.1216 0.6261 0.0300 Uiso
C5 C 0.4449(3) 0.0213(4) 0.6102(4) 0.0289 Uani
H8 H 0.4124 0.0645 0.602 0.0340 Uiso
C6 C 0.4791(3) -0.1365(4) 0.6191(4) 0.0297 Uani
H9 H 0.4701 -0.2019 0.6162 0.0350 Uiso
C7 C 0.5381(2) -0.1084(4) 0.6349(4) 0.0260 Uani
H10 H 0.569 -0.1543 0.6442 0.0310 Uiso
N2 N 0.4331(2) -0.0730(4) 0.6075(3) 0.0293 Uani
H11 H 0.3959 -0.0929 0.5982 0.0350 Uiso
O17 O 0.50000 0.2728(6) 0.75000 0.1040 Uani
loop_
_atom_site_aniso_label
_atom_site_aniso_U_11
_atom_site_aniso_U_22
_atom_site_aniso_U_33
_atom_site_aniso_U_23
_atom_site_aniso_U_13
_atom_site_aniso_U_12
Ga1 0.0065 0.0073 0.0109 -0.0006 0.0025 0.0003
Ga2 0.0084 0.007 0.0112 0.0002 0.003 0.0007
Ga3 0.0068 0.0063 0.0121 -0.0001 0.0021 -0.0001
Ga4 0.0089 0.0098 0.011 -0.0008 0.002 0.0001
P1 0.0066 0.0089 0.0117 -0.0008 0.0031 -0.001
P2 0.007 0.0071 0.0123 -0.0002 0.0024 0.0005
P3 0.0106 0.0095 0.0094 0.001 0.0019 -0.0008
P4 0.0071 0.0079 0.0103 0.0007 0.0022 0.0003
F1 0.0071 0.0095 0.0155 0.0009 0.002 0.0001
O1 0.0082 0.0099 0.0124 -0.0009 0.0034 0.0014
O2 0.0036 0.0053 0.0211 -0.0007 0.0009 0.0013
O3 0.0098 0.0131 0.0202 -0.0082 0.0046 -0.0022
O4 0.0119 0.0135 0.0156 0.0017 0.0056 0.0014
O5 0.0065 0.0135 0.0143 0.0012 0.0058 -0.0036
O6 0.0099 0.0078 0.0158 0.0005 0.0009 0.0021
O7 0.016 0.0124 0.0145 -0.0003 -0.0004 -0.0002
O8 0.015 0.0119 0.0137 0.0018 0.0037 -0.0035
O9 0.0118 0.0107 0.0126 -0.0023 0.0011 -0.0031
O10 0.012 0.0056 0.0234 0.0029 0.0046 0.0023
O11 0.015 0.0107 0.021 0.0015 0.0094 -0.0015
O12 0.0098 0.016 0.0128 0.0046 0.0044 0.0043
O13 0.011 0.019 0.0144 -0.0031 -0.0002 0.0016
O14 0.0082 0.0053 0.0174 0.0026 0.0012 0.0002
O15 0.0081 0.0087 0.0148 0.0018 0.0034 -0.0008
O16 0.02 0.0112 0.0136 0.0026 0.0005 -0.0014
O15D 0.0081 0.0087 0.0148 0.0018 0.0034 -0.0008
Ga1D 0.0065 0.0073 0.0109 -0.0006 0.0025 0.0003
Ga2F 0.0084 0.007 0.0112 -0.0002 0.003 -0.0007
Ga3E 0.0068 0.0063 0.0121 -0.0001 0.0021 -0.0001
O9E 0.0118 0.0107 0.0126 -0.0023 0.0011 -0.0031
O14E 0.0082 0.0053 0.0174 0.0026 0.0012 0.0002
O11F 0.015 0.0107 0.021 -0.0015 0.0094 0.0015
O2C 0.0036 0.0053 0.0211 0.0007 0.0009 -0.0013
O4C 0.0119 0.0135 0.0156 -0.0017 0.0056 -0.0014
O16F 0.02 0.0112 0.0136 -0.0026 0.0005 0.0014
Ga2E 0.0084 0.007 0.0112 0.0002 0.003 0.0007
Ga4F 0.0089 0.0098 0.011 0.0008 0.002 -0.0001
Ga3C 0.0068 0.0063 0.0121 0.0001 0.0021 0.0001
Ga4C 0.0089 0.0098 0.011 0.0008 0.002 -0.0001
C1 0.035 0.034 0.063 -0.013 0.011 -0.022
C2 0.015 0.064 0.045 -0.01 0.008 0.003
N1 0.015 0.025 0.036 -0.006 0.002 -0.007
C3 0.019 0.02 0.018 -0.005 0.003 -0.004
C4 0.028 0.015 0.034 -0.004 0.008 -0.003
C5 0.02 0.038 0.028 -0.005 0.001 0.007
C6 0.034 0.027 0.03 -0.014 0.011 -0.009
C7 0.018 0.024 0.037 -0.006 0.007 -0.001
N2 0.016 0.045 0.027 -0.01 0.003 -0.015
O17 0.081 0.1 0.134 0 0.026 0
loop_
_geom_bond_atom_site_label_1
_geom_bond_atom_site_label_2
_geom_bond_site_symmetry_1
_geom_bond_site_symmetry_2
Ga1 F1 1_555 1_555
Ga2 O8 1_555 1_555
Ga3 F1 1_555 1_555
Ga4 O7 1_555 1_555
P1 O6 1_555 1_555
P2 O2 1_555 1_555
P3 O5 1_555 1_555
P4 O1 1_555 1_555
O1 Ga3 1_555 1_555
O2 Ga3C 1_555 1_555
O3 Ga1 1_555 1_555
O4 P2 1_555 1_555
O5 Ga1 1_555 1_555
O6 Ga1 1_555 1_555
O7 P3 1_555 1_555
O8 P3 1_555 1_555
O9 P2 1_555 1_555
O10 Ga2 1_555 1_555
O11 P1 1_555 1_555
O12 Ga3 1_555 1_555
O13 Ga4 1_555 1_555
O14 P4 1_555 1_555
O15 P1 1_555 1_555
O16 P4 1_555 1_555
C1 H1 1_555 1_555
H2 C1 1_555 1_555
H3 C1 1_555 1_555
C2 H4 1_555 1_555
H5 C2 1_555 1_555
H6 C2 1_555 1_555
N1 C1 1_555 1_555
C3 N1 1_555 1_555
C4 C3 1_555 1_555
H7 C4 1_555 1_555
C5 C4 1_555 1_555
H8 C5 1_555 1_555
C6 H9 1_555 1_555
C7 C3 1_555 1_555
H10 C7 1_555 1_555
N2 C5 1_555 1_555
H11 N2 1_555 1_555
O15D Ga1 1_555 1_555
Ga1D O15 1_555 1_555
Ga2F O11 1_555 1_555
Ga3E O14 1_555 1_555
O9E Ga2 1_555 1_555
O14E Ga3 1_555 1_555
O11F Ga2 1_555 1_555
O2C Ga3 1_555 1_555
O4C Ga4 1_555 1_555
O16F Ga4 1_555 1_555
Ga2E O9 1_555 1_555
Ga4F O16 1_555 1_555
Ga4C O4 1_555 1_555
P1 O13 1_555 1_555
P2 O10 1_555 1_555
P3 O12 1_555 1_555
P4 O3 1_555 1_555
C2 N1 1_555 1_555
C6 C7 1_555 1_555
C6 N2 1_555 1_555

#END
