
#######################################################################
#
#                 Cambridge Crystallographic Data Centre
#                                CCDC 
#
#######################################################################
#
# If this CIF has been generated from an entry in the Cambridge 
# Structural Database, then it will include bibliographic, chemical, 
# crystal, experimental, refinement or atomic coordinate data resulting 
# from the CCDC's data processing and validation procedures.
#
#######################################################################

data_OSAXAI
_chemical_formula_moiety         '(C58 H40 N10 O8 Zn2)n'
_symmetry_cell_setting           monoclinic
_symmetry_space_group_name_H-M   'C 2/c'
_symmetry_Int_Tables_number      15
_space_group_name_Hall           '-C 2yc'
loop_
_symmetry_equiv_pos_site_id
_symmetry_equiv_pos_as_xyz
1 x,y,z
2 -x,y,1/2-z
3 1/2+x,1/2+y,z
4 1/2-x,1/2+y,1/2-z
5 -x,-y,-z
6 x,-y,1/2+z
7 1/2-x,1/2-y,-z
8 1/2+x,1/2-y,1/2+z
_cell_length_a                   24.175(6)
_cell_length_b                   11.436(3)
_cell_length_c                   18.386(5)
_cell_angle_alpha                90
_cell_angle_beta                 101.507(4)
_cell_angle_gamma                90
_cell_volume                     4980.92
loop_
_atom_site_label
_atom_site_type_symbol
_atom_site_fract_x
_atom_site_fract_y
_atom_site_fract_z
Zn1 Zn 0.303491(13) 0.27724(3) 0.596805(19)
O1 O 0.22027(9) 0.2969(2) 0.58799(13)
O2 O 0.30118(11) 0.2556(2) 0.74480(15)
O3 O 0.36958(10) 0.25473(19) 0.68089(12)
O4 O 0.15930(9) 0.22478(19) 0.49116(11)
N1 N 0.30945(11) 0.4661(2) 0.60127(15)
N2 N 0.29808(10) 1.0845(2) 0.59672(14)
N3 N -0.00705(12) 0.2897(3) 0.71539(15)
N4 N 0.50906(13) 0.0162(3) 0.97259(15)
C1 C 0.17225(12) 0.2651(2) 0.55607(16)
C2 C 0.12564(12) 0.2757(3) 0.59876(16)
C3 C 0.13742(13) 0.3100(3) 0.67266(18)
H1 H 0.1742 0.3293 0.6952
C4 C 0.09522(14) 0.3157(3) 0.71278(19)
H2 H 0.1035 0.3370 0.7626
C5 C 0.03992(13) 0.2894(3) 0.67840(18)
C6 C 0.02761(13) 0.2580(3) 0.60457(19)
H3 H -0.0094 0.2415 0.5816
C7 C 0.07040(13) 0.2511(3) 0.56429(18)
H4 H 0.0621 0.2300 0.5144
C8 C 0.35005(15) 0.2355(3) 0.73912(18)
C9 C 0.39077(13) 0.1802(3) 0.80318(17)
C10 C 0.37317(16) 0.1402(4) 0.8654(2)
H5 H 0.3357 0.1501 0.8695
C11 C 0.41052(16) 0.0852(4) 0.9219(2)
H6 H 0.3979 0.0569 0.9632
C12 C 0.46615(15) 0.0723(3) 0.91713(18)
C13 C 0.48388(16) 0.1127(4) 0.8562(2)
H7 H 0.5215 0.1048 0.8526
C14 C 0.44584(16) 0.1657(4) 0.7994(2)
H8 H 0.4584 0.1919 0.7576
C15 C 0.33446(14) 0.5302(3) 0.55619(19)
H9 H 0.3522 0.4919 0.5225
C16 C 0.33502(15) 0.6510(3) 0.5575(2)
H10 H 0.3532 0.6924 0.5256
C17 C 0.30834(13) 0.7105(3) 0.60677(18)
C18 C 0.28341(13) 0.6437(3) 0.65408(18)
H11 H 0.2658 0.6799 0.6887
C19 C 0.28472(14) 0.5237(3) 0.64983(18)
H12 H 0.2677 0.4804 0.6821
C20 C 0.30548(14) 0.8401(3) 0.60644(18)
C21 C 0.34843(15) 0.9076(3) 0.5878(2)
H13 H 0.3808 0.8718 0.5781
C22 C 0.34311(14) 1.0268(3) 0.58370(19)
H14 H 0.3725 1.0698 0.5712
C23 C 0.25816(14) 1.0204(3) 0.6178(2)
H15 H 0.2272 1.0591 0.6293
C24 C 0.25989(14) 0.9001(3) 0.6236(2)
H16 H 0.2308 0.8597 0.6388
Zn1A Zn -0.303491(13) 0.27724(3) 0.903195(19)
Zn1F Zn 0.196509(13) 0.22276(3) 0.403195(19)
Zn1_2 Zn 0.303491(13) 1.27724(3) 0.596805(19)
Zn1G Zn -0.196509(13) 0.22276(3) 1.096805(19)
Zn1D Zn 0.696509(13) -0.27724(3) 1.403195(19)
Zn1_3 Zn 0.303491(13) -0.72276(3) 0.596805(19)
O1A O -0.22027(9) 0.2969(2) 0.91201(13)
O2D O 0.69882(11) -0.2556(2) 1.25520(15)
O3D O 0.63042(10) -0.25473(19) 1.31911(12)
O3A O -0.36958(10) 0.25473(19) 0.81911(12)
O4A O -0.15930(9) 0.22478(19) 1.00884(11)
O4F O 0.34070(9) 0.27522(19) 0.50884(11)
O4G O -0.34070(9) 0.27522(19) 0.99116(11)
N1_2 N 0.30945(11) -0.5339(2) 0.60127(15)
N1A N -0.30945(11) 0.4661(2) 0.89873(15)
N2_2 N 0.29808(10) 0.0845(2) 0.59672(14)
N2A N -0.29808(10) 0.0845(2) 0.90328(14)
N3A N 0.00705(12) 0.2897(3) 0.78461(15)
N4D N 0.49094(13) -0.0162(3) 1.02741(15)
C1A C -0.17225(12) 0.2651(2) 0.94393(16)
C2A C -0.12564(12) 0.2757(3) 0.90124(16)
C3A C -0.13742(13) 0.3100(3) 0.82734(18)
H1A H -0.1742 0.3293 0.8048
C4A C -0.09522(14) 0.3157(3) 0.78722(19)
H2A H -0.1035 0.3370 0.7374
C5A C -0.03992(13) 0.2894(3) 0.82160(18)
C6A C -0.02761(13) 0.2580(3) 0.89543(19)
H3A H 0.0094 0.2415 0.9184
C7A C -0.07040(13) 0.2511(3) 0.93571(18)
H4A H -0.0621 0.2300 0.9856
C8D C 0.64995(15) -0.2355(3) 1.26088(18)
C9D C 0.60923(13) -0.1802(3) 1.19682(17)
C10D C 0.62683(16) -0.1402(4) 1.1346(2)
H5D H 0.6643 -0.1501 1.1305
C11D C 0.58948(16) -0.0852(4) 1.0781(2)
H6D H 0.6021 -0.0569 1.0368
C12D C 0.53385(15) -0.0723(3) 1.08287(18)
C13D C 0.51612(16) -0.1127(4) 1.1438(2)
H7D H 0.4785 -0.1048 1.1474
C14D C 0.55416(16) -0.1657(4) 1.2006(2)
H8D H 0.5416 -0.1919 1.2424
C15_2 C 0.33446(14) -0.4698(3) 0.55619(19)
H9_2 H 0.3522 -0.5081 0.5225
C16_2 C 0.33502(15) -0.3490(3) 0.5575(2)
H10_2 H 0.3532 -0.3076 0.5256
C17_2 C 0.30834(13) -0.2895(3) 0.60677(18)
C18_2 C 0.28341(13) -0.3563(3) 0.65408(18)
H11_2 H 0.2658 -0.3201 0.6887
C19_2 C 0.28472(14) -0.4763(3) 0.64983(18)
H12_2 H 0.2677 -0.5196 0.6821
C20_2 C 0.30548(14) -0.1599(3) 0.60644(18)
C21_2 C 0.34843(15) -0.0924(3) 0.5878(2)
H13_2 H 0.3808 -0.1282 0.5781
C22_2 C 0.34311(14) 0.0268(3) 0.58370(19)
H14_2 H 0.3725 0.0698 0.5712
C23_2 C 0.25816(14) 0.0204(3) 0.6178(2)
H15_2 H 0.2272 0.0591 0.6293
C24_2 C 0.25989(14) -0.0999(3) 0.6236(2)
H16_2 H 0.2308 -0.1403 0.6388
N5 N 0.4219(2) 0.4605(4) 0.8949(3)
C25 C 0.4764(3) 0.4329(5) 0.9060(3)
H17 H 0.4941 0.4106 0.9536
C26 C 0.5087(2) 0.4349(4) 0.8519(3)
H18 H 0.5466 0.4139 0.8634
C27 C 0.48420(18) 0.4685(3) 0.7804(2)
C28 C 0.42755(19) 0.4989(4) 0.7686(3)
H19 H 0.4088 0.5228 0.7218
C29 C 0.3994(2) 0.4935(4) 0.8265(3)
H20 H 0.3615 0.5147 0.8167
N5A N 0.5781(2) 0.4605(4) 0.6051(3)
C25A C 0.5236(3) 0.4329(5) 0.5940(3)
H17A H 0.5059 0.4106 0.5464
C26A C 0.4913(2) 0.4349(4) 0.6481(3)
H18A H 0.4534 0.4139 0.6366
C27A C 0.51580(18) 0.4685(3) 0.7196(2)
C28A C 0.57245(19) 0.4989(4) 0.7314(3)
H19A H 0.5912 0.5228 0.7782
C29A C 0.6006(2) 0.4935(4) 0.6735(3)
H20A H 0.6385 0.5147 0.6833
loop_
_geom_bond_atom_site_label_1
_geom_bond_atom_site_label_2
_geom_bond_site_symmetry_1
_geom_bond_site_symmetry_2
Zn1 O1 1_555 1_555
O1 C1 1_555 1_555
O2 C8 1_555 1_555
O3 Zn1 1_555 1_555
O4 C1 1_555 1_555
N1 Zn1 1_555 1_555
N2 C22 1_555 1_555
N3 C5 1_555 1_555
N4 C12 1_555 1_555
N5 C25 1_555 1_555
C1 C2 1_555 1_555
C2 C3 1_555 1_555
C3 H1 1_555 1_555
C4 C3 1_555 1_555
H2 C4 1_555 1_555
C5 C4 1_555 1_555
C6 C5 1_555 1_555
H3 C6 1_555 1_555
C7 C2 1_555 1_555
H4 C7 1_555 1_555
C8 O3 1_555 1_555
C9 C8 1_555 1_555
C10 C9 1_555 1_555
H5 C10 1_555 1_555
C11 C10 1_555 1_555
H6 C11 1_555 1_555
C12 C11 1_555 1_555
C13 C12 1_555 1_555
H7 C13 1_555 1_555
C14 C9 1_555 1_555
H8 C14 1_555 1_555
C15 N1 1_555 1_555
H9 C15 1_555 1_555
C16 C15 1_555 1_555
H10 C16 1_555 1_555
C17 C16 1_555 1_555
C18 C17 1_555 1_555
H11 C18 1_555 1_555
C19 N1 1_555 1_555
H12 C19 1_555 1_555
C20 C17 1_555 1_555
C21 C20 1_555 1_555
H13 C21 1_555 1_555
C22 C21 1_555 1_555
H14 C22 1_555 1_555
C23 N2 1_555 1_555
H15 C23 1_555 1_555
C24 C20 1_555 1_555
H16 C24 1_555 1_555
C25 H17 1_555 1_555
C26 C25 1_555 1_555
H18 C26 1_555 1_555
C27 C26 1_555 1_555
C28 C27 1_555 1_555
H19 C28 1_555 1_555
C29 N5 1_555 1_555
H20 C29 1_555 1_555
Zn1A O1A 1_555 1_555
Zn1F O4 1_555 1_555
Zn1_2 N2 1_555 1_555
Zn1G O4A 1_555 1_555
Zn1D O3D 1_555 1_555
Zn1_3 N1_2 1_555 1_555
O1A C1A 1_555 1_555
O2D C8D 1_555 1_555
O3D C8D 1_555 1_555
O3A Zn1A 1_555 1_555
O4A C1A 1_555 1_555
O4F Zn1 1_555 1_555
O4G Zn1A 1_555 1_555
N1_2 C15_2 1_555 1_555
N1A Zn1A 1_555 1_555
N2_2 Zn1 1_555 1_555
N2A Zn1A 1_555 1_555
N3A N3 1_555 1_555
N4D N4 1_555 1_555
N5A C25A 1_555 1_555
C1A C2A 1_555 1_555
C2A C3A 1_555 1_555
C3A H1A 1_555 1_555
C4A C3A 1_555 1_555
H2A C4A 1_555 1_555
C5A N3A 1_555 1_555
C6A C5A 1_555 1_555
H3A C6A 1_555 1_555
C7A C2A 1_555 1_555
H4A C7A 1_555 1_555
C8D C9D 1_555 1_555
C9D C10D 1_555 1_555
C10D H5D 1_555 1_555
C11D C10D 1_555 1_555
H6D C11D 1_555 1_555
C12D N4D 1_555 1_555
C13D C12D 1_555 1_555
H7D C13D 1_555 1_555
C14D C9D 1_555 1_555
H8D C14D 1_555 1_555
C15_2 H9_2 1_555 1_555
C16_2 C15_2 1_555 1_555
H10_2 C16_2 1_555 1_555
C17_2 C16_2 1_555 1_555
C18_2 C17_2 1_555 1_555
H11_2 C18_2 1_555 1_555
C19_2 N1_2 1_555 1_555
H12_2 C19_2 1_555 1_555
C20_2 C17_2 1_555 1_555
C21_2 C20_2 1_555 1_555
H13_2 C21_2 1_555 1_555
C22_2 N2_2 1_555 1_555
H14_2 C22_2 1_555 1_555
C23_2 N2_2 1_555 1_555
H15_2 C23_2 1_555 1_555
C24_2 C20_2 1_555 1_555
H16_2 C24_2 1_555 1_555
C25A H17A 1_555 1_555
C26A C25A 1_555 1_555
H18A C26A 1_555 1_555
C27A C27 1_555 1_555
C28A C27A 1_555 1_555
H19A C28A 1_555 1_555
C29A N5A 1_555 1_555
H20A C29A 1_555 1_555
C6 C7 1_555 1_555
C13 C14 1_555 1_555
C18 C19 1_555 1_555
C23 C24 1_555 1_555
C28 C29 1_555 1_555
C4A C5A 1_555 1_555
C6A C7A 1_555 1_555
C11D C12D 1_555 1_555
C13D C14D 1_555 1_555
C18_2 C19_2 1_555 1_555
C21_2 C22_2 1_555 1_555
C23_2 C24_2 1_555 1_555
C26A C27A 1_555 1_555
C28A C29A 1_555 1_555

#END
