
#######################################################################
#
#                 Cambridge Crystallographic Data Centre
#                                CCDC 
#
#######################################################################
#
# If this CIF has been generated from an entry in the Cambridge 
# Structural Database, then it will include bibliographic, chemical, 
# crystal, experimental, refinement or atomic coordinate data resulting 
# from the CCDC's data processing and validation procedures.
#
#######################################################################

data_POLBIB
_chemical_formula_moiety         '(C3 H16 N2 O15 P2 V3)n'
_symmetry_cell_setting           orthorhombic
_symmetry_space_group_name_H-M   'P n m a'
_symmetry_Int_Tables_number      62
_space_group_name_Hall           '-P 2ac 2n'
loop_
_symmetry_equiv_pos_site_id
_symmetry_equiv_pos_as_xyz
1 x,y,z
2 1/2-x,-y,1/2+z
3 1/2+x,1/2-y,1/2-z
4 -x,1/2+y,-z
5 -x,-y,-z
6 1/2+x,y,1/2-z
7 1/2-x,1/2+y,1/2+z
8 x,1/2-y,z
_cell_length_a                   10.567(1)
_cell_length_b                   16.970(2)
_cell_length_c                   8.413(1)
_cell_angle_alpha                90
_cell_angle_beta                 90
_cell_angle_gamma                90
_cell_volume                     1508.64
loop_
_atom_site_label
_atom_site_type_symbol
_atom_site_fract_x
_atom_site_fract_y
_atom_site_fract_z
V1 V 0.1406(1) 0.5643(1) 0.7798(1)
V2 V -0.2209(1) 0.7500 0.8261(1)
P1 P -0.1293(1) 0.5868(1) 0.9709(1)
O1 O 0.0159(1) 0.5853(1) 0.9492(2)
O2 O -0.1641(1) 0.5454(1) 1.1283(2)
O3 O -0.1940(1) 0.5457(1) 0.8296(2)
O4 O -0.1740(2) 0.6730(1) 0.9892(2)
O5 O -0.3408(2) 0.8261(1) 0.7586(2)
O6 O -0.1099(3) 0.7500 0.6961(3)
O7 O 0.0480(2) 0.5408(1) 0.6354(2)
O8 O 0.2829(2) 0.5949(1) 0.9862(2)
P1G P -0.1293(1) 0.9132(1) 0.9709(1)
O1G O 0.0159(1) 0.9147(1) 0.9492(2)
O2G O -0.1641(1) 0.9546(1) 1.1283(2)
O3G O -0.1940(1) 0.9543(1) 0.8296(2)
O4G O -0.1740(2) 0.8270(1) 0.9892(2)
O5G O -0.3408(2) 0.6739(1) 0.7586(2)
V1G V 0.1406(1) 0.9357(1) 0.7798(1)
O7G O 0.0480(2) 0.9592(1) 0.6354(2)
O8G O 0.2829(2) 0.9051(1) 0.9862(2)
O2D O 0.1641(1) 0.4546(1) 0.8717(2)
O3E O 0.3060(1) 0.5457(1) 0.6704(2)
O5B O 0.1592(2) 0.6739(1) 0.7414(2)
V1D V -0.1406(1) 0.4357(1) 1.2202(1)
V1E V -0.3594(1) 0.5643(1) 0.7202(1)
V1B V -0.3594(1) 0.9357(1) 0.7202(1)
V1C V -0.1406(1) 1.0643(1) 1.2202(1)
O2C O 0.1641(1) 1.0454(1) 0.8717(2)
O3B O 0.3060(1) 0.9543(1) 0.6704(2)
O5E O 0.1592(2) 0.8261(1) 0.7414(2)
N1 N 0.4045(2) 0.1038(1) 0.7721(2)
C1 C 0.4015(4) 0.2500 0.7595(4)
C2 C 0.4628(2) 0.1775(1) 0.8316(3)
H1 H 0.312(4) 0.2500 0.784(4)
H2 H 0.411(5) 0.2500 0.663(6)
H3 H 0.455(3) 0.177(2) 0.952(4)
H4 H 0.548(4) 0.182(2) 0.813(4)
H5 H 0.410(3) 0.101(2) 0.673(4)
H6 H 0.447(4) 0.063(2) 0.818(4)
H7 H 0.317(4) 0.093(3) 0.805(5)
C2G C 0.4628(2) 0.3225(1) 0.8316(3)
N1G N 0.4045(2) 0.3962(1) 0.7721(2)
H5G H 0.410(3) 0.399(2) 0.673(4)
H6G H 0.447(4) 0.437(2) 0.818(4)
H7G H 0.317(4) 0.407(3) 0.805(5)
H3G H 0.455(3) 0.323(2) 0.952(4)
H4G H 0.548(4) 0.318(2) 0.813(4)
loop_
_geom_bond_atom_site_label_1
_geom_bond_atom_site_label_2
_geom_bond_site_symmetry_1
_geom_bond_site_symmetry_2
V1 O1 1_555 1_555
V2 O4 1_555 1_555
P1 O1 1_555 1_555
O2 P1 1_555 1_555
O3 P1 1_555 1_555
O4 P1 1_555 1_555
O5 V2 1_555 1_555
O6 V2 1_555 1_555
O7 V1 1_555 1_555
O8 V1 1_555 1_555
N1 C2 1_555 1_555
C1 C2 1_555 1_555
C2 H3 1_555 1_555
H1 C1 1_555 1_555
H2 C1 1_555 1_555
H4 C2 1_555 1_555
H5 N1 1_555 1_555
H6 N1 1_555 1_555
H7 N1 1_555 1_555
P1G O1G 1_555 1_555
O1G V1G 1_555 1_555
O2G P1G 1_555 1_555
O3G P1G 1_555 1_555
O4G V2 1_555 1_555
O5G V2 1_555 1_555
V1G O7G 1_555 1_555
O8G V1G 1_555 1_555
O2D V1 1_555 1_555
O3E V1 1_555 1_555
O5B V1 1_555 1_555
V1D O2 1_555 1_555
V1E O3 1_555 1_555
V1B O5 1_555 1_555
V1C O2G 1_555 1_555
O2C V1G 1_555 1_555
O3B V1G 1_555 1_555
O5E V1G 1_555 1_555
C2G C1 1_555 1_555
N1G C2G 1_555 1_555
H5G N1G 1_555 1_555
H6G N1G 1_555 1_555
H7G N1G 1_555 1_555
H3G C2G 1_555 1_555
H4G C2G 1_555 1_555
P1G O4G 1_555 1_555
O3G V1B 1_555 1_555
O5G V1E 1_555 1_555

#END
