
#######################################################################
#
#                 Cambridge Crystallographic Data Centre
#                                CCDC 
#
#######################################################################
#
# If this CIF has been generated from an entry in the Cambridge 
# Structural Database, then it will include bibliographic, chemical, 
# crystal, experimental, refinement or atomic coordinate data resulting 
# from the CCDC's data processing and validation procedures.
#
#######################################################################

data_TISJOW
_chemical_formula_moiety         '(C56 H44 Co2 N4 O13)n'
_symmetry_cell_setting           monoclinic
_symmetry_space_group_name_H-M   'P 21/c'
_symmetry_Int_Tables_number      14
_space_group_name_Hall           '-P 2ybc'
loop_
_symmetry_equiv_pos_site_id
_symmetry_equiv_pos_as_xyz
1 x,y,z
2 -x,1/2+y,1/2-z
3 -x,-y,-z
4 x,1/2-y,1/2+z
_cell_length_a                   8.855(4)
_cell_length_b                   17.267(8)
_cell_length_c                   34.250(15)
_cell_angle_alpha                90
_cell_angle_beta                 102.274(12)
_cell_angle_gamma                90
_cell_volume                     5117.1
loop_
_atom_site_label
_atom_site_type_symbol
_atom_site_fract_x
_atom_site_fract_y
_atom_site_fract_z
Co1 Co 0.48095(8) 0.78612(4) 0.80336(2)
Co2 Co 0.12866(8) 0.82210(4) 0.83739(2)
O1 O 0.9109(5) 0.8280(3) 0.84275(13)
O2 O 0.2009(5) 0.7213(2) 0.85798(13)
O3 O 0.4128(5) 0.6934(2) 0.83402(12)
O4 O 0.4283(5) 0.4121(3) 0.95113(14)
O5 O -0.0713(4) 0.3284(3) 0.72112(11)
O6 O -0.2750(4) 0.2782(2) 0.74120(12)
O7 O 0.2352(5) 0.2769(3) 0.90299(12)
O8 O 1.7875(5) 1.0825(3) 1.13194(14)
O9 O 1.6161(5) 1.1359(2) 1.15990(13)
O10 O 1.3125(5) 0.8052(2) 1.11381(16)
O11 O 0.6812(4) 0.7848(3) 0.84860(13)
O12 O 1.0596(5) 0.6452(3) 1.00919(13)
N1 N 0.5919(5) 0.7120(3) 0.76827(14)
N2 N 0.7677(5) 0.6439(3) 0.74664(14)
N3 N 1.4576(5) 0.3850(3) 0.72666(14)
N4 N 1.3091(5) 0.4779(3) 0.74097(15)
C1 C -0.1377(7) 0.2998(3) 0.74708(18)
C2 C -0.0397(6) 0.2913(3) 0.78855(17)
C3 C 0.0904(7) 0.3378(4) 0.80100(18)
H1 H 0.1184 0.3730 0.7832
C4 C 0.1784(7) 0.3322(4) 0.83945(19)
H2 H 0.2641 0.3640 0.8476
C5 C 0.1384(7) 0.2792(4) 0.86575(17)
C6 C 0.0107(7) 0.2322(4) 0.85365(19)
H3 H -0.0160 0.1961 0.8712
C7 C -0.0769(7) 0.2391(4) 0.81527(19)
H4 H -0.1631 0.2075 0.8073
C8 C 0.1793(8) 0.2381(4) 0.93407(18)
H5 H 0.1518 0.1851 0.9262
H6 H 0.0877 0.2641 0.9388
C9 C 1.3942(8) 0.7358(4) 1.1090(2)
H7 H 1.4237 0.7362 1.0833
H8 H 1.4874 0.7324 1.1298
C10 C 1.3962(7) 0.8723(4) 1.1172(2)
C11 C 1.5377(8) 0.8796(4) 1.1070(2)
H9 H 1.5797 0.8381 1.0956
C12 C 1.6160(8) 0.9482(4) 1.1135(2)
H10 H 1.7120 0.9524 1.1067
C13 C 1.5570(7) 1.0115(3) 1.12983(18)
C14 C 1.4111(8) 1.0056(4) 1.1387(2)
H11 H 1.3680 1.0480 1.1491
C15 C 1.3306(8) 0.9364(4) 1.1321(2)
H12 H 1.2324 0.9326 1.1375
C16 C 1.6557(7) 1.0809(4) 1.14118(18)
C17 C 1.1681(7) 0.5694(4) 0.7738(2)
H13 H 1.2559 0.5753 0.7940
C18 C 1.1708(7) 0.5201(3) 0.74259(19)
C19 C 1.0416(7) 0.5114(4) 0.71242(19)
H14 H 1.0442 0.4789 0.6909
C20 C 1.4595(7) 0.5028(4) 0.7529(2)
H15 H 1.4926 0.5499 0.7648
C21 C 1.5490(7) 0.4456(4) 0.7439(2)
H16 H 1.6563 0.4467 0.7486
C22 C 1.3152(7) 0.4066(3) 0.72570(18)
H17 H 1.2288 0.3763 0.7157
C23 C 1.0346(8) 0.6105(4) 0.7753(2)
H18 H 1.0328 0.6444 0.7963
C24 C 0.9059(6) 0.6008(3) 0.74570(18)
C25 C 0.9094(7) 0.5509(4) 0.71437(19)
H19 H 0.8210 0.5441 0.6944
C26 C 0.7230(7) 0.6743(4) 0.77826(18)
H20 H 0.7786 0.6694 0.8044
C27 C 0.6557(8) 0.6641(5) 0.7139(2)
H21 H 0.6545 0.6518 0.6874
C28 C 0.5482(8) 0.7051(4) 0.7274(2)
H22 H 0.4585 0.7255 0.7116
C29 C 0.8232(7) 0.7922(4) 0.86138(18)
C30 C 0.8911(6) 0.7543(4) 0.90072(17)
C31 C 1.0237(7) 0.7815(4) 0.92545(18)
H23 H 1.0737 0.8242 0.9174
C32 C 1.0850(7) 0.7473(4) 0.96186(19)
H24 H 1.1738 0.7672 0.9783
C33 C 1.0134(7) 0.6838(4) 0.97340(19)
C34 C 0.8848(8) 0.6525(4) 0.9482(2)
H25 H 0.8414 0.6068 0.9550
C35 C 0.8217(8) 0.6893(4) 0.9129(2)
H26 H 0.7310 0.6703 0.8969
C36 C 1.1851(8) 0.6779(4) 1.03765(18)
H27 H 1.1688 0.7331 1.0404
H28 H 1.2813 0.6707 1.0288
C37 C 1.1932(7) 0.6381(3) 1.07704(18)
C38 C 1.2919(7) 0.6675(4) 1.11154(19)
C39 C 1.2975(9) 0.6312(4) 1.1480(2)
H29 H 1.3611 0.6511 1.1710
C40 C 1.2112(9) 0.5668(4) 1.1507(2)
H30 H 1.2175 0.5429 1.1753
C41 C 1.1150(8) 0.5367(4) 1.1173(2)
H31 H 1.0559 0.4929 1.1192
C42 C 1.1077(7) 0.5726(4) 1.0808(2)
H32 H 1.0433 0.5521 1.0581
C43 C 0.3189(7) 0.6804(3) 0.85535(17)
C44 C 0.3411(7) 0.6087(3) 0.88041(17)
C45 C 0.4660(7) 0.5597(3) 0.88001(19)
H33 H 0.5324 0.5705 0.8630
C46 C 0.4920(8) 0.4966(4) 0.9041(2)
H34 H 0.5774 0.4654 0.9039
C47 C 0.3926(7) 0.4782(3) 0.92909(19)
C48 C 0.2702(7) 0.5253(3) 0.93042(19)
H35 H 0.2044 0.5139 0.9475
C49 C 0.2442(7) 0.5908(3) 0.90596(18)
H36 H 0.1606 0.6228 0.9069
C50 C 0.3197(8) 0.3851(4) 0.9739(2)
H37 H 0.2171 0.3824 0.9569
H38 H 0.3166 0.4209 0.9955
C51 C 0.3675(8) 0.3069(4) 0.99042(18)
C52 C 0.4746(8) 0.3012(4) 1.0259(2)
H39 H 0.5187 0.3465 1.0380
C53 C 0.5186(9) 0.2324(5) 1.0441(2)
H40 H 0.5890 0.2310 1.0685
C54 C 0.4575(11) 0.1650(5) 1.0259(2)
H41 H 0.4870 0.1174 1.0378
C55 C 0.3524(10) 0.1684(4) 0.9900(2)
H42 H 0.3127 0.1226 0.9777
C56 C 0.3043(8) 0.2387(4) 0.97183(18)
Co1A Co -0.48095(8) 0.28612(4) 0.69664(2)
Co1A_2 Co 1.51905(8) 0.28612(4) 0.69664(2)
Co1B Co 1.51905(8) 1.21388(4) 1.19664(2)
Co2_2 Co 1.12866(8) 0.82210(4) 0.83739(2)
Co2A Co -0.12866(8) 0.32210(4) 0.66261(2)
Co2B Co 1.87134(8) 1.17790(4) 1.16261(2)
O1_2 O -0.0891(5) 0.8280(3) 0.84275(13)
O5A O 0.0713(4) 0.8284(3) 0.77888(11)
O6A O 0.2750(4) 0.7782(2) 0.75880(12)
O8B O 0.2125(5) 0.9175(3) 0.86806(14)
O9B O 0.3839(5) 0.8641(2) 0.84010(13)
N3A N 0.5424(5) 0.8850(3) 0.77334(14)
O13 O 0.057(9) 0.954(3) 0.048(2)
loop_
_geom_bond_atom_site_label_1
_geom_bond_atom_site_label_2
_geom_bond_site_symmetry_1
_geom_bond_site_symmetry_2
Co1 O3 1_555 1_555
Co2 O2 1_555 1_555
O1 C29 1_555 1_555
O2 C43 1_555 1_555
O3 C43 1_555 1_555
O4 C47 1_555 1_555
O5 C1 1_555 1_555
O6 C1 1_555 1_555
O7 C5 1_555 1_555
O8 C16 1_555 1_555
O9 C16 1_555 1_555
O10 C9 1_555 1_555
O11 Co1 1_555 1_555
O12 C33 1_555 1_555
N1 Co1 1_555 1_555
N2 C24 1_555 1_555
N3 C21 1_555 1_555
N4 C18 1_555 1_555
C1 C2 1_555 1_555
C2 C3 1_555 1_555
C3 H1 1_555 1_555
C4 C3 1_555 1_555
H2 C4 1_555 1_555
C5 C4 1_555 1_555
C6 C5 1_555 1_555
H3 C6 1_555 1_555
C7 C2 1_555 1_555
H4 C7 1_555 1_555
C8 O7 1_555 1_555
H5 C8 1_555 1_555
H6 C8 1_555 1_555
C9 H7 1_555 1_555
H8 C9 1_555 1_555
C10 O10 1_555 1_555
C11 C10 1_555 1_555
H9 C11 1_555 1_555
C12 C11 1_555 1_555
H10 C12 1_555 1_555
C13 C12 1_555 1_555
C14 C13 1_555 1_555
H11 C14 1_555 1_555
C15 C10 1_555 1_555
H12 C15 1_555 1_555
C16 C13 1_555 1_555
C17 H13 1_555 1_555
C18 C17 1_555 1_555
C19 C18 1_555 1_555
H14 C19 1_555 1_555
C20 N4 1_555 1_555
H15 C20 1_555 1_555
C21 C20 1_555 1_555
H16 C21 1_555 1_555
C22 N3 1_555 1_555
H17 C22 1_555 1_555
C23 C17 1_555 1_555
H18 C23 1_555 1_555
C24 C23 1_555 1_555
C25 C19 1_555 1_555
H19 C25 1_555 1_555
C26 N1 1_555 1_555
H20 C26 1_555 1_555
C27 N2 1_555 1_555
H21 C27 1_555 1_555
C28 N1 1_555 1_555
H22 C28 1_555 1_555
C29 O11 1_555 1_555
C30 C29 1_555 1_555
C31 C30 1_555 1_555
H23 C31 1_555 1_555
C32 C31 1_555 1_555
H24 C32 1_555 1_555
C33 C32 1_555 1_555
C34 C33 1_555 1_555
H25 C34 1_555 1_555
C35 C30 1_555 1_555
H26 C35 1_555 1_555
C36 O12 1_555 1_555
H27 C36 1_555 1_555
H28 C36 1_555 1_555
C37 C36 1_555 1_555
C38 C9 1_555 1_555
C39 C38 1_555 1_555
H29 C39 1_555 1_555
C40 C39 1_555 1_555
H30 C40 1_555 1_555
C41 C40 1_555 1_555
H31 C41 1_555 1_555
C42 C37 1_555 1_555
H32 C42 1_555 1_555
C43 C44 1_555 1_555
C44 C45 1_555 1_555
C45 H33 1_555 1_555
C46 C45 1_555 1_555
H34 C46 1_555 1_555
C47 C46 1_555 1_555
C48 C47 1_555 1_555
H35 C48 1_555 1_555
C49 C44 1_555 1_555
H36 C49 1_555 1_555
C50 O4 1_555 1_555
H37 C50 1_555 1_555
H38 C50 1_555 1_555
C51 C50 1_555 1_555
C52 C51 1_555 1_555
H39 C52 1_555 1_555
C53 C52 1_555 1_555
H40 C53 1_555 1_555
C54 C53 1_555 1_555
H41 C54 1_555 1_555
C55 C54 1_555 1_555
H42 C55 1_555 1_555
C56 C8 1_555 1_555
Co1A O6 1_555 1_555
Co1A_2 N3 1_555 1_555
Co1B O9 1_555 1_555
Co2_2 O1 1_555 1_555
Co2A O5 1_555 1_555
Co2B O8 1_555 1_555
O1_2 Co2 1_555 1_555
O5A Co2 1_555 1_555
O6A Co1 1_555 1_555
O8B Co2 1_555 1_555
O9B Co1 1_555 1_555
N3A Co1 1_555 1_555
Co2 O9B 1_555 1_555
O9 Co2B 1_555 1_555
N2 C26 1_555 1_555
N4 C22 1_555 1_555
C6 C7 1_555 1_555
C14 C15 1_555 1_555
C24 C25 1_555 1_555
C27 C28 1_555 1_555
C34 C35 1_555 1_555
C37 C38 1_555 1_555
C41 C42 1_555 1_555
C48 C49 1_555 1_555
C51 C56 1_555 1_555
C55 C56 1_555 1_555

#END
