
#######################################################################
#
#                 Cambridge Crystallographic Data Centre
#                                CCDC 
#
#######################################################################
#
# If this CIF has been generated from an entry in the Cambridge 
# Structural Database, then it will include bibliographic, chemical, 
# crystal, experimental, refinement or atomic coordinate data resulting 
# from the CCDC's data processing and validation procedures.
#
#######################################################################

data_EBITAL
_chemical_formula_moiety         '(C3 H16 Be3 N2 O12 P4)n'
_symmetry_cell_setting           monoclinic
_symmetry_space_group_name_H-M   'P 21/c'
_symmetry_Int_Tables_number      14
_space_group_name_Hall           '-P 2ybc'
loop_
_symmetry_equiv_pos_site_id
_symmetry_equiv_pos_as_xyz
1 x,y,z
2 -x,1/2+y,1/2-z
3 -x,-y,-z
4 x,1/2-y,1/2+z
_cell_length_a                   8.5983(15)
_cell_length_b                   13.1561(19)
_cell_length_c                   13.460(2)
_cell_angle_alpha                90
_cell_angle_beta                 92.470(5)
_cell_angle_gamma                90
_cell_volume                     1521.18
loop_
_atom_site_label
_atom_site_type_symbol
_atom_site_fract_x
_atom_site_fract_y
_atom_site_fract_z
Be1 Be 0.5783(4) 0.1196(3) 0.2505(3)
Be2 Be 0.1562(4) -0.0046(3) 0.2395(3)
Be3 Be 0.6770(4) -0.1738(3) 0.4046(3)
P1 P 0.30853(9) 0.13665(6) 0.37579(6)
H1 H 0.297(5) 0.238(3) 0.359(3)
P2 P 0.34087(8) 0.10041(5) 0.09261(5)
H2 H 0.360(5) 0.073(4) -0.010(3)
P3 P 0.60424(8) 0.34124(6) 0.22833(6)
H3 H 0.532(3) 0.3778(18) 0.3161(17)
P4 P 0.81211(8) -0.04609(6) 0.24883(5)
H4 H 0.734(5) -0.080(3) 0.168(3)
O1 O 0.4631(3) 0.09761(19) 0.34086(17)
O2 O 0.5017(2) 0.09475(16) 0.14257(16)
O3 O 0.6363(3) 0.23533(18) 0.26471(19)
O4 O 0.7361(3) 0.05449(18) 0.27050(17)
O5 O 0.1711(2) 0.09024(17) 0.31845(16)
O6 O 0.2253(2) 0.02654(15) 0.13365(15)
O7 O 0.9757(2) -0.03150(18) 0.21888(17)
O8 O 0.8015(3) -0.12143(18) 0.33271(17)
O9 O 0.2974(3) 0.11930(17) 0.48664(16)
O10 O 0.2749(2) 0.20713(15) 0.08997(18)
O11 O 0.7570(2) 0.39515(16) 0.21216(15)
O12 O 0.5028(2) 0.34341(16) 0.13332(17)
O7_2 O -0.0243(2) -0.03150(18) 0.21888(17)
O11A O 0.2430(2) -0.10485(16) 0.28784(15)
O9B O 0.7026(3) -0.11930(17) 0.51336(16)
O10A O 0.7251(2) -0.29287(15) 0.41003(18)
O12A O 0.4972(2) -0.15659(16) 0.36668(17)
Be2_2 Be 1.1562(4) -0.0046(3) 0.2395(3)
Be3B Be 0.3230(4) 0.1738(3) 0.5954(3)
Be3A Be 0.3230(4) 0.3262(3) 0.0954(3)
Be2A Be 0.8438(4) 0.4954(3) 0.2605(3)
N1 N 0.7270(3) 0.0968(2) 0.4849(2)
H5 H 0.7252 0.0298 0.4941
H6 H 0.6826 0.1118 0.4258
H7 H 0.6751 0.1272 0.5324
N2 N 0.9494(3) 0.2922(2) 0.6552(2)
H8 H 0.9160 0.3338 0.7019
H9 H 1.0509 0.3016 0.6486
H10 H 0.9322 0.2281 0.6728
C1 C 0.8912(4) 0.1329(3) 0.4891(2)
H11 H 0.9466 0.0978 0.4380
H12 H 0.9390 0.1136 0.5529
C2 C 0.9128(4) 0.2453(3) 0.4755(3)
H13 H 0.8552 0.2654 0.4151
H14 H 1.0221 0.2577 0.4651
C3 C 0.8638(4) 0.3142(3) 0.5586(3)
H15 H 0.8823 0.3843 0.5402
H16 H 0.7530 0.3061 0.5670
loop_
_geom_bond_atom_site_label_1
_geom_bond_atom_site_label_2
_geom_bond_site_symmetry_1
_geom_bond_site_symmetry_2
Be1 O1 1_555 1_555
Be2 O5 1_555 1_555
Be3 O8 1_555 1_555
P1 H1 1_555 1_555
P2 H2 1_555 1_555
P3 H3 1_555 1_555
P4 H4 1_555 1_555
O1 P1 1_555 1_555
O2 Be1 1_555 1_555
O3 Be1 1_555 1_555
O4 Be1 1_555 1_555
O5 P1 1_555 1_555
O6 Be2 1_555 1_555
O7 P4 1_555 1_555
O8 P4 1_555 1_555
O9 P1 1_555 1_555
O10 P2 1_555 1_555
O11 P3 1_555 1_555
O12 P3 1_555 1_555
N1 H5 1_555 1_555
H6 N1 1_555 1_555
H7 N1 1_555 1_555
N2 H8 1_555 1_555
H9 N2 1_555 1_555
H10 N2 1_555 1_555
C1 N1 1_555 1_555
H11 C1 1_555 1_555
H12 C1 1_555 1_555
C2 C1 1_555 1_555
H13 C2 1_555 1_555
H14 C2 1_555 1_555
C3 N2 1_555 1_555
H15 C3 1_555 1_555
H16 C3 1_555 1_555
O7_2 Be2 1_555 1_555
O11A Be2 1_555 1_555
O9B Be3 1_555 1_555
O10A Be3 1_555 1_555
O12A Be3 1_555 1_555
Be2_2 O7 1_555 1_555
Be3B O9 1_555 1_555
Be3A O10 1_555 1_555
Be2A O11 1_555 1_555
P2 O2 1_555 1_555
P2 O6 1_555 1_555
P3 O3 1_555 1_555
P4 O4 1_555 1_555
O12 Be3A 1_555 1_555
C2 C3 1_555 1_555

#END
