
#######################################################################
#
#                 Cambridge Crystallographic Data Centre
#                                CCDC 
#
#######################################################################
#
# If this CIF has been generated from an entry in the Cambridge 
# Structural Database, then it will include bibliographic, chemical, 
# crystal, experimental, refinement or atomic coordinate data resulting 
# from the CCDC's data processing and validation procedures.
#
#######################################################################

data_TANBOZ
_chemical_formula_moiety         '(C11 H11 Cu2 N3 S1)n'
_symmetry_cell_setting           monoclinic
_symmetry_space_group_name_H-M   'P 21/n'
_symmetry_Int_Tables_number      14
_space_group_name_Hall           '-P 2yn'
loop_
_symmetry_equiv_pos_site_id
_symmetry_equiv_pos_as_xyz
1 x,y,z
2 1/2-x,1/2+y,1/2-z
3 -x,-y,-z
4 1/2+x,1/2-y,1/2+z
_cell_length_a                   8.582(5)
_cell_length_b                   12.979(5)
_cell_length_c                   11.745(6)
_cell_angle_alpha                90
_cell_angle_beta                 101.10(4)
_cell_angle_gamma                90
_cell_volume                     1283.75
loop_
_atom_site_label
_atom_site_type_symbol
_atom_site_fract_x
_atom_site_fract_y
_atom_site_fract_z
Cu1 Cu 0.04411(13) 0.19869(8) 0.35379(9)
Cu2 Cu -0.05193(13) 0.51027(8) 0.09881(10)
N1 N 0.2488(8) 0.1330(5) 0.4030(5)
N2 N -0.0072(8) 0.3922(5) 0.2070(6)
N3 N -0.2510(10) 0.0846(5) 0.3920(6)
C1 C 0.3616(10) 0.0859(5) 0.4215(7)
C2 C 0.0185(9) 0.3230(6) 0.2660(7)
C3 C -0.1338(10) 0.1263(6) 0.3836(7)
Cu2B Cu 0.05193(13) 0.48973(8) -0.09881(10)
N3A N -0.2490(10) 0.5846(5) 0.1080(6)
C1A C 0.1384(10) 0.5859(5) 0.0785(7)
C1C C -0.1384(10) 0.4141(5) -0.0785(7)
Cu2A Cu -0.44807(13) 0.01027(8) 0.40119(10)
Cu2A_2 Cu 0.55193(13) 0.01027(8) 0.40119(10)
Cu2C Cu 0.44807(13) -0.01027(8) 0.59881(10)
S1 S 0.4935(4) 0.2972(2) 0.2559(3)
C4 C 0.6252(16) 0.2763(10) 0.1551(11)
C5 C 0.3825(14) 0.4060(9) 0.1851(12)
C6 C 0.5920(10) 0.3192(5) 0.4857(6)
C7 C 0.6770(10) 0.3659(5) 0.5855(6)
C8 C 0.7751(10) 0.4500(5) 0.5763(6)
C9 C 0.7882(10) 0.4873(5) 0.4672(6)
C10 C 0.7032(10) 0.4406(5) 0.3673(6)
C11 C 0.6051(10) 0.3566(5) 0.3765(6)
loop_
_geom_bond_atom_site_label_1
_geom_bond_atom_site_label_2
_geom_bond_site_symmetry_1
_geom_bond_site_symmetry_2
Cu1 N1 1_555 1_555
Cu2 N2 1_555 1_555
S1 C4 1_555 1_555
N1 C1 1_555 1_555
N2 C2 1_555 1_555
N3 C3 1_555 1_555
C1 Cu2A_2 1_555 1_555
C2 Cu1 1_555 1_555
C3 Cu1 1_555 1_555
C5 S1 1_555 1_555
C6 C7 1_555 1_555
C7 C8 1_555 1_555
C8 C9 1_555 1_555
C9 C10 1_555 1_555
C10 C11 1_555 1_555
C11 S1 1_555 1_555
Cu2B Cu2 1_555 1_555
N3A Cu2 1_555 1_555
C1A Cu2 1_555 1_555
C1C Cu2 1_555 1_555
Cu2A N3 1_555 1_555
Cu2A_2 Cu2C 1_555 1_555
Cu2C C1 1_555 1_555
C6 C11 1_555 1_555
Cu2B C1A 1_555 1_555
Cu2B C1C 1_555 1_555

#END
