
#######################################################################
#
#                 Cambridge Crystallographic Data Centre
#                                CCDC 
#
#######################################################################
#
# If this CIF has been generated from an entry in the Cambridge 
# Structural Database, then it will include bibliographic, chemical, 
# crystal, experimental, refinement or atomic coordinate data resulting 
# from the CCDC's data processing and validation procedures.
#
#######################################################################

data_LAGWIB
_chemical_formula_moiety         'C37 H12 Co13 N2 O27'
_symmetry_cell_setting           monoclinic
_symmetry_space_group_name_H-M   'C 2/c'
_symmetry_Int_Tables_number      15
_space_group_name_Hall           '-C 2yc'
loop_
_symmetry_equiv_pos_site_id
_symmetry_equiv_pos_as_xyz
1 x,y,z
2 -x,y,1/2-z
3 1/2+x,1/2+y,z
4 1/2-x,1/2+y,1/2-z
5 -x,-y,-z
6 x,-y,1/2+z
7 1/2-x,1/2-y,-z
8 1/2+x,1/2-y,1/2+z
_cell_length_a                   33.2277(16)
_cell_length_b                   9.7252(5)
_cell_length_c                   18.2913(8)
_cell_angle_alpha                90
_cell_angle_beta                 93.676(3)
_cell_angle_gamma                90
_cell_volume                     5898.6
loop_
_atom_site_label
_atom_site_type_symbol
_atom_site_fract_x
_atom_site_fract_y
_atom_site_fract_z
O9 O 0.0907(4) -0.1959(19) 0.6319(10)
N1 N 0.0947(9) -0.083(3) 0.497(2)
N2 N 0.0477(7) -0.031(3) 0.5988(18)
C16 C 0.0574(18) -0.030(6) 0.454(3)
C17 C 0.0796(15) -0.104(3) 0.572(3)
C21 C 0.1384(7) -0.163(2) 0.507(2)
C22 C 0.0500(8) 0.115(2) 0.5834(18)
C23 C 0.0272(9) -0.074(4) 0.6714(18)
Co1 Co 0.347798(19) 1.19901(7) 0.51686(3)
Co2 Co 0.2522(9) 1.254(4) 0.5053(17)
O1 O 0.34052(11) 1.3214(4) 0.60029(19)
O2 O 0.34657(12) 1.6904(4) 0.9256(2)
O3 O 0.27320(11) 1.3153(4) 0.60004(18)
O4 O 0.29733(10) 1.0912(4) 0.49470(19)
O5 O 0.28456(11) 1.6179(4) 0.94386(18)
C1 C 0.27326(15) 0.8637(6) 0.5193(3)
C2 C 0.31459(16) 1.6270(6) 0.9063(3)
C3 C 0.30707(15) 1.3472(6) 0.6272(2)
C4 C 0.29953(16) 0.9857(5) 0.5398(3)
O6 O 0.32245(16) 0.9852(5) 0.5947(3)
C5 C 0.25144(17) 0.8598(6) 0.4522(3)
C6 C 0.27654(17) 1.4991(7) 0.8057(3)
C7 C 0.34513(17) 1.4781(8) 0.7269(3)
C8 C 0.31284(15) 1.5560(6) 0.8339(3)
O7 O 0.4048(2) 1.1560(10) 0.5392(4)
C9 C 0.34685(17) 1.5463(7) 0.7945(3)
C10 C 0.30917(15) 1.4219(6) 0.6992(3)
C11 C 0.27472(17) 1.4329(7) 0.7382(3)
C12 C 0.27168(18) 0.7531(6) 0.5669(3)
C13 C 0.4601(2) 1.0383(11) 0.4985(6)
O8 O 0.3910(2) 1.0290(9) 0.4471(6)
C14 C 0.4151(3) 1.0791(13) 0.4974(6)
C19 C 0.4876(3) 1.1041(15) 0.5441(7)
C20 C 0.4720(3) 0.9385(14) 0.4513(8)
Co1E Co 0.347798(19) 1.80099(7) 0.01686(3)
Co1E_2 Co 0.347798(19) 1.80099(7) 1.01686(3)
Co1F Co 0.152202(19) 0.30099(7) 0.48314(3)
Co1D Co 0.652202(19) 0.80099(7) 0.48314(3)
Co2E Co 0.2522(9) 1.746(4) 0.0053(17)
Co2F Co 0.2478(9) 1.246(4) 0.4947(17)
Co2C Co 0.2478(9) 1.754(4) 0.9947(17)
Co2E_2 Co 0.2522(9) 1.746(4) 1.0053(17)
Co2F_2 Co 0.2478(9) 0.246(4) 0.4947(17)
Co2_2 Co 0.2522(9) 0.254(4) 0.5053(17)
Co2C_2 Co 0.2478(9) 1.754(4) -0.0053(17)
O1E O 0.34052(11) 1.6786(4) 0.10029(19)
O2E O 0.34657(12) 1.3096(4) 0.4256(2)
O2_2 O 0.34657(12) 1.6904(4) -0.0744(2)
O3E O 0.27320(11) 1.6847(4) 0.10004(18)
O3F O 0.22680(11) 1.1847(4) 0.39996(18)
O3C O 0.22680(11) 1.8153(4) -0.10004(18)
O4F O 0.20267(10) 0.4088(4) 0.50530(19)
O4F_2 O 0.20267(10) 1.4088(4) 0.50530(19)
O4E O 0.29733(10) 1.9088(4) -0.00530(19)
O4C O 0.20267(10) 1.5912(4) 0.00530(19)
O5E O 0.28456(11) 1.3821(4) 0.44386(18)
O5C O 0.21544(11) 1.1179(4) 0.55614(18)
O5F O 0.21544(11) 1.8821(4) 0.05614(18)
O5_2 O 0.28456(11) 1.6179(4) -0.05614(18)
C1F C 0.22674(15) 0.6363(6) 0.4807(3)
C2E C 0.31459(16) 1.3730(6) 0.4063(3)
C3E C 0.30707(15) 1.6528(6) 0.1272(2)
C4F C 0.20047(16) 0.5143(5) 0.4602(3)
O6F O 0.17755(16) 0.5148(5) 0.4053(3)
C5F C 0.24856(17) 0.6402(6) 0.5478(3)
C6E C 0.27654(17) 1.5009(7) 0.3057(3)
C7E C 0.34513(17) 1.5219(8) 0.2269(3)
C8E C 0.31284(15) 1.4440(6) 0.3339(3)
O7D O 0.5952(2) 0.8440(10) 0.4608(4)
O7E O 0.4048(2) 1.8440(10) 0.0392(4)
C9E C 0.34685(17) 1.4537(7) 0.2945(3)
C10E C 0.30917(15) 1.5781(6) 0.1992(3)
C11E C 0.27472(17) 1.5671(7) 0.2382(3)
C12F C 0.22832(18) 0.7469(6) 0.4331(3)
C13D C 0.5399(2) 0.9617(11) 0.5015(6)
O8D O 0.6090(2) 0.9710(9) 0.5529(6)
C14D C 0.5849(3) 0.9209(13) 0.5026(6)
C19D C 0.5124(3) 0.8959(15) 0.4559(7)
C20D C 0.5280(3) 1.0615(14) 0.5487(8)
loop_
_geom_bond_atom_site_label_1
_geom_bond_atom_site_label_2
_geom_bond_site_symmetry_1
_geom_bond_site_symmetry_2
Co1 O1 1_555 1_555
Co2 O3 1_555 1_555
O1 C3 1_555 1_555
O2 C2 1_555 1_555
O3 C3 1_555 1_555
O4 Co1 1_555 1_555
O5 C2 1_555 1_555
C1 C4 1_555 1_555
C2 C8 1_555 1_555
C3 C10 1_555 1_555
C4 O4 1_555 1_555
O6 C4 1_555 1_555
C5 C1 1_555 1_555
C6 C8 1_555 1_555
C7 C9 1_555 1_555
C8 C9 1_555 1_555
O7 Co1 1_555 1_555
C10 C7 1_555 1_555
C11 C6 1_555 1_555
C12 C1 1_555 1_555
C13 C14 1_555 1_555
O8 C14 1_555 1_555
C14 O7 1_555 1_555
O9 C17 1_555 1_555
N1 C16 1_555 1_555
N2 C17 1_555 1_555
C17 N1 1_555 1_555
C19 C13 1_555 1_555
C20 C13 1_555 1_555
C21 N1 1_555 1_555
C22 N2 1_555 1_555
C23 N2 1_555 1_555
Co1E O1E 1_555 1_555
Co1E_2 O2 1_555 1_555
Co1F O4F 1_555 1_555
Co1D O7D 1_555 1_555
Co2E Co2C_2 1_555 1_555
Co2F Co2 1_555 1_555
Co2C O5 1_555 1_555
Co2E_2 O5 1_555 1_555
Co2F_2 Co2_2 1_555 1_555
Co2_2 O4F 1_555 1_555
Co2C_2 O3E 1_555 1_555
O1E C3E 1_555 1_555
O2E Co1 1_555 1_555
O2_2 Co1E 1_555 1_555
O3E Co2E 1_555 1_555
O3F Co2 1_555 1_555
O3C Co2E 1_555 1_555
O4F Co2F_2 1_555 1_555
O4F_2 Co2 1_555 1_555
O4E Co1E 1_555 1_555
O4C Co2E 1_555 1_555
O5E Co2 1_555 1_555
O5C Co2 1_555 1_555
O5F Co2E 1_555 1_555
O5_2 Co2E 1_555 1_555
C1F C4F 1_555 1_555
C2E O2E 1_555 1_555
C3E O3E 1_555 1_555
C4F O4F 1_555 1_555
O6F C4F 1_555 1_555
C5F C12 1_555 1_555
C6E C8E 1_555 1_555
C7E C9E 1_555 1_555
C8E C2E 1_555 1_555
O7D C14D 1_555 1_555
O7E Co1E 1_555 1_555
C9E C8E 1_555 1_555
C10E C3E 1_555 1_555
C11E C6E 1_555 1_555
C12F C5 1_555 1_555
C13D C14D 1_555 1_555
O8D C14D 1_555 1_555
C19D C20 1_555 1_555
C20D C19 1_555 1_555
Co2 O4 1_555 1_555
O3 Co2F 1_555 1_555
O4 Co2F 1_555 1_555
C10 C11 1_555 1_555
Co2E O4E 1_555 1_555
Co2F O3F 1_555 1_555
Co2F O4F_2 1_555 1_555
Co2F O5E 1_555 1_555
Co2F O5C 1_555 1_555
Co2C Co2E_2 1_555 1_555
Co2C_2 O3C 1_555 1_555
Co2C_2 O4E 1_555 1_555
Co2C_2 O4C 1_555 1_555
Co2C_2 O5F 1_555 1_555
Co2C_2 O5_2 1_555 1_555
O5E C2E 1_555 1_555
C1F C5F 1_555 1_555
C1F C12F 1_555 1_555
C7E C10E 1_555 1_555
C10E C11E 1_555 1_555
C13D C19D 1_555 1_555
C13D C20D 1_555 1_555

#END
