
#######################################################################
#
#                 Cambridge Crystallographic Data Centre
#                                CCDC 
#
#######################################################################
#
# If this CIF has been generated from an entry in the Cambridge 
# Structural Database, then it will include bibliographic, chemical, 
# crystal, experimental, refinement or atomic coordinate data resulting 
# from the CCDC's data processing and validation procedures.
#
#######################################################################

data_GUPNUC01
_chemical_formula_moiety         '(C3 H2 Cd1 N11 1-)n'
_symmetry_cell_setting           monoclinic
_symmetry_space_group_name_H-M   'C 2/c'
_symmetry_Int_Tables_number      15
_space_group_name_Hall           '-C 2yc'
loop_
_symmetry_equiv_pos_site_id
_symmetry_equiv_pos_as_xyz
1 x,y,z
2 -x,y,1/2-z
3 1/2+x,1/2+y,z
4 1/2-x,1/2+y,1/2-z
5 -x,-y,-z
6 x,-y,1/2+z
7 1/2-x,1/2-y,-z
8 1/2+x,1/2-y,1/2+z
_cell_length_a                   8.6276(7)
_cell_length_b                   9.4066(10)
_cell_length_c                   13.0569(12)
_cell_angle_alpha                90
_cell_angle_beta                 105.504(3)
_cell_angle_gamma                90
_cell_volume                     1021.09
loop_
_atom_site_label
_atom_site_type_symbol
_atom_site_fract_x
_atom_site_fract_y
_atom_site_fract_z
N7 N 0.4489(13) 0.9759(7) 0.2244(7)
H1 H 0.3497 0.9757 0.1793
C1 C 0.5000 0.8247(7) 0.2500
C2 C 0.5583(8) 1.0542(7) 0.1742(5)
N7A N 0.5511(13) 0.9759(7) 0.2756(7)
H1A H 0.6503 0.9757 0.3207
C2A C 0.4417(8) 1.0542(7) 0.3258(5)
Cd1 Cd 1.0000 1.0000 0.0000
N1 N 1.0626(6) 0.9445(6) 0.1817(3)
N2 N 1.0000 0.9472(6) 0.2500
N3 N 1.2276(4) 0.8717(4) -0.0069(3)
N4 N 1.2500 0.7500 0.0000
N5 N 0.8388(4) 0.7985(4) -0.0427(3)
N6 N 0.7500 0.7500 0.0000
N1A N 0.9374(6) 0.9445(6) 0.3183(3)
N3F N 1.2724(4) 0.6283(4) 0.0069(3)
N5F N 0.6612(4) 0.7015(4) 0.0427(3)
Cd1A Cd 1.0000 1.0000 0.5000
Cd1B Cd 0.5000 0.5000 0.0000
Cd1B_2 Cd 1.5000 0.5000 0.0000
N1D N 0.9374(6) 1.0555(6) -0.1817(3)
N3D N 0.7724(4) 1.1283(4) 0.0069(3)
N5D N 1.1612(4) 1.2015(4) 0.0427(3)
loop_
_geom_bond_atom_site_label_1
_geom_bond_atom_site_label_2
_geom_bond_site_symmetry_1
_geom_bond_site_symmetry_2
Cd1 N1 1_555 1_555
N1 N2 1_555 1_555
N2 N1A 1_555 1_555
N3 Cd1 1_555 1_555
N4 N3 1_555 1_555
N5 Cd1 1_555 1_555
N6 N5 1_555 1_555
N7 H1 1_555 1_555
C1 N7 1_555 1_555
C2 N7 1_555 1_555
N1A Cd1A 1_555 1_555
N3F N4 1_555 1_555
N5F N6 1_555 1_555
Cd1B N5F 1_555 1_555
Cd1B_2 N3F 1_555 1_555
N1D Cd1 1_555 1_555
N3D Cd1 1_555 1_555
N5D Cd1 1_555 1_555
N7A C1 1_555 1_555
H1A N7A 1_555 1_555
C2A N7 1_555 1_555
C2 N7A 1_555 1_555
N7A C2A 1_555 1_555

#END
