
#######################################################################
#
#                 Cambridge Crystallographic Data Centre
#                                CCDC 
#
#######################################################################
#
# If this CIF has been generated from an entry in the Cambridge 
# Structural Database, then it will include bibliographic, chemical, 
# crystal, experimental, refinement or atomic coordinate data resulting 
# from the CCDC's data processing and validation procedures.
#
#######################################################################

data_GUPNUC
_chemical_formula_moiety         '(C3 H10 Cd2 N19 1-)n'
_symmetry_cell_setting           monoclinic
_symmetry_space_group_name_H-M   'P 21/c'
_symmetry_Int_Tables_number      14
_space_group_name_Hall           '-P 2ybc'
loop_
_symmetry_equiv_pos_site_id
_symmetry_equiv_pos_as_xyz
1 x,y,z
2 -x,1/2+y,1/2-z
3 -x,-y,-z
4 x,1/2-y,1/2+z
_cell_length_a                   8.6061(5)
_cell_length_b                   9.3656(5)
_cell_length_c                   13.0160(8)
_cell_angle_alpha                90
_cell_angle_beta                 105.803(2)
_cell_angle_gamma                90
_cell_volume                     1009.45
loop_
_atom_site_label
_atom_site_type_symbol
_atom_site_fract_x
_atom_site_fract_y
_atom_site_fract_z
Cd1 Cd 0.24515(2) 0.251600(15) 0.990824(18)
N1 N 0.1668(3) 0.1974(4) 0.8069(2)
N2 N 0.2324(3) 0.1947(3) 0.73929(16)
N3 N 0.2969(3) 0.1858(3) 0.6715(2)
N4 N 0.0122(3) 0.1247(3) 0.9963(2)
N5 N 0.0000 0.0000 1.0000
N6 N 0.4682(3) 0.3797(3) 0.9796(2)
N7 N 0.5000 0.5000 1.0000
N8 N 0.3946(3) 0.0443(3) 1.0323(2)
N9 N 0.5000 0.0000 1.0000
N10 N 0.0719(3) 0.4486(3) 0.9439(2)
N11 N 0.0000 0.5000 1.0000
N4B N -0.0122(3) -0.1247(3) 1.0037(2)
N6B N 0.5318(3) 0.6203(3) 1.0204(2)
N8B N 0.6054(3) -0.0443(3) 0.9677(2)
N10B N -0.0719(3) 0.5514(3) 1.0561(2)
Cd1B Cd -0.24515(2) -0.251600(15) 1.009176(18)
N1B N -0.1668(3) -0.1974(4) 1.1931(2)
N2B N -0.2324(3) -0.1947(3) 1.26071(16)
N3B N -0.2969(3) -0.1858(3) 1.3285(2)
Cd1A Cd -0.24515(2) -0.248400(15) 1.509176(18)
Cd1B_2 Cd -0.24515(2) 0.748400(15) 1.009176(18)
Cd1B_3 Cd 0.75485(2) -0.251600(15) 1.009176(18)
Cd1B_4 Cd 0.75485(2) 0.748400(15) 1.009176(18)
Cd1C Cd 0.24515(2) 0.248400(15) 0.490824(18)
N3A N -0.2969(3) -0.3142(3) 0.8285(2)
N3C N 0.2969(3) 0.3142(3) 1.1715(2)
N6B_2 N -0.4682(3) -0.3797(3) 1.0204(2)
N8B_2 N -0.3946(3) -0.0443(3) 0.9677(2)
N10B_2 N -0.0719(3) -0.4486(3) 1.0561(2)
N12 N 0.7914(4) 0.2248(3) 0.7718(2)
H1 H 0.8933 0.2253 0.8163
C1 C 0.7459(4) 0.0742(4) 0.7503(2)
H2 H 0.7477 0.0270 0.8161
H3 H 0.8212 0.0285 0.7184
H4 H 0.6393 0.0686 0.7024
C2 C 0.6879(5) 0.2964(5) 0.8292(3)
H5 H 0.7215 0.3939 0.8428
H6 H 0.6969 0.2483 0.8957
H7 H 0.5777 0.2936 0.7866
C3 C 0.7988(5) 0.3006(5) 0.6738(3)
H8 H 0.8385 0.3958 0.6917
H9 H 0.6928 0.3048 0.6250
H10 H 0.8701 0.2505 0.6409
loop_
_geom_bond_atom_site_label_1
_geom_bond_atom_site_label_2
_geom_bond_site_symmetry_1
_geom_bond_site_symmetry_2
Cd1 N1 1_555 1_555
N1 N2 1_555 1_555
N2 N3 1_555 1_555
N3 Cd1C 1_555 1_555
N4 Cd1 1_555 1_555
N5 N4 1_555 1_555
N6 Cd1 1_555 1_555
N7 N6 1_555 1_555
N8 Cd1 1_555 1_555
N9 N8 1_555 1_555
N10 Cd1 1_555 1_555
N11 N10 1_555 1_555
N12 H1 1_555 1_555
C1 N12 1_555 1_555
H2 C1 1_555 1_555
H3 C1 1_555 1_555
H4 C1 1_555 1_555
C2 N12 1_555 1_555
H5 C2 1_555 1_555
H6 C2 1_555 1_555
H7 C2 1_555 1_555
C3 N12 1_555 1_555
H8 C3 1_555 1_555
H9 C3 1_555 1_555
H10 C3 1_555 1_555
N4B N5 1_555 1_555
N6B N7 1_555 1_555
N8B N9 1_555 1_555
N10B N11 1_555 1_555
Cd1B N4B 1_555 1_555
N1B Cd1B 1_555 1_555
N2B N1B 1_555 1_555
N3B N2B 1_555 1_555
Cd1A N3B 1_555 1_555
Cd1B_2 N10B 1_555 1_555
Cd1B_3 N8B 1_555 1_555
Cd1B_4 N6B 1_555 1_555
N3A Cd1B 1_555 1_555
N3C Cd1 1_555 1_555
N6B_2 Cd1B 1_555 1_555
N8B_2 Cd1B 1_555 1_555
N10B_2 Cd1B 1_555 1_555

#END
