
#######################################################################
#
#                 Cambridge Crystallographic Data Centre
#                                CCDC 
#
#######################################################################
#
# If this CIF has been generated from an entry in the Cambridge 
# Structural Database, then it will include bibliographic, chemical, 
# crystal, experimental, refinement or atomic coordinate data resulting 
# from the CCDC's data processing and validation procedures.
#
#######################################################################

data_LUMZUO
_chemical_formula_moiety         '(C6 H48 Mn3 N6 O24 S8 W6)n'
_symmetry_cell_setting           monoclinic
_symmetry_space_group_name_H-M   'C 2/c'
_symmetry_Int_Tables_number      15
_space_group_name_Hall           '-C 2yc'
loop_
_symmetry_equiv_pos_site_id
_symmetry_equiv_pos_as_xyz
1 x,y,z
2 1/2+x,1/2+y,z
3 -x,y,1/2-z
4 1/2-x,1/2+y,1/2-z
5 -x,-y,-z
6 1/2-x,1/2-y,-z
7 x,-y,1/2+z
8 1/2+x,1/2-y,1/2+z
_cell_length_a                   14.6782(11)
_cell_length_b                   22.0639(17)
_cell_length_c                   18.4989(14)
_cell_angle_alpha                90
_cell_angle_beta                 94.618(2)
_cell_angle_gamma                90
_cell_volume                     5971.57
loop_
_atom_site_label
_atom_site_type_symbol
_atom_site_fract_x
_atom_site_fract_y
_atom_site_fract_z
W1 W 0.24222(3) 0.207310(16) -0.08918(2)
W2 W 0.24517(3) 0.324480(16) -0.05098(2)
W3 W 0.12130(3) 0.249806(18) -0.00120(3)
S1 S 0.1205(2) 0.27920(13) -0.12997(17)
S2 S 0.1344(2) 0.35718(12) 0.03409(17)
S3 S 0.3565(2) 0.27918(13) -0.12767(17)
S4 S 0.1287(2) 0.14225(12) -0.03523(18)
Mn1 Mn 0.25272(14) 0.04029(7) -0.30304(11)
Mn2 Mn -0.2500 0.2500 0.0000
O1 O 0.1231(9) 0.0578(6) -0.3659(7)
O2 O 0.1845(6) -0.0134(4) -0.2223(6)
O3 O 0.3824(7) 0.0170(4) -0.2438(6)
O4 O 0.3318(8) 0.0940(4) -0.3795(6)
O5 O -0.2286(7) 0.2845(5) 0.1137(10)
O6 O -0.2394(12) 0.1584(7) 0.0514(13)
N1 N 0.2378(7) 0.1199(4) -0.2357(6)
C1 C 0.2354(8) 0.1533(5) -0.1879(7)
C2 C 0.2413(8) 0.4113(5) -0.1041(7)
N2 N 0.2392(9) 0.4586(4) -0.1338(7)
C3 C -0.0264(9) 0.2501(7) -0.0031(10)
N3 N -0.1044(11) 0.2501(8) -0.0059(11)
O5E O -0.2714(7) 0.2155(5) -0.1137(10)
O6E O -0.2606(12) 0.3416(7) -0.0514(13)
C3E C -0.4736(9) 0.2499(7) 0.0031(10)
N3E N -0.3956(11) 0.2499(8) 0.0059(11)
W3E W -0.62130(3) 0.250194(18) 0.00120(3)
S1E S -0.6205(2) 0.22080(13) 0.12997(17)
S2E S -0.6344(2) 0.14282(12) -0.03409(17)
S3_2 S -0.6435(2) 0.27918(13) -0.12767(17)
S4E S -0.6287(2) 0.35775(12) 0.03523(18)
W1E W -0.74222(3) 0.292690(16) 0.08918(2)
W2E W -0.74517(3) 0.175520(16) 0.05098(2)
N1E N -0.7378(7) 0.3801(4) 0.2357(6)
C1E C -0.7354(8) 0.3467(5) 0.1879(7)
C2E C -0.7413(8) 0.0887(5) 0.1041(7)
N2E N -0.7392(9) 0.0414(4) 0.1338(7)
Mn1E Mn -0.75272(14) 0.45971(7) 0.30304(11)
O1E O -0.6231(9) 0.4422(6) 0.3659(7)
O2E O -0.6845(6) 0.5134(4) 0.2223(6)
O3E O -0.8824(7) 0.4830(4) 0.2438(6)
O4E O -0.8318(8) 0.4060(4) 0.3795(6)
W2E_2 W 0.25483(3) 0.175520(16) 0.05098(2)
W3E_2 W 0.37870(3) 0.250194(18) 0.00120(3)
S2E_2 S 0.3656(2) 0.14282(12) -0.03409(17)
S3E S 0.1435(2) 0.22082(13) 0.12767(17)
W1E_2 W 0.25778(3) 0.292690(16) 0.08918(2)
S4E_2 S 0.3713(2) 0.35775(12) 0.03523(18)
N2C N 0.2608(9) -0.0414(4) -0.3662(7)
Mn1C Mn 0.24728(14) 0.54029(7) -0.19696(11)
W1_2 W -0.75778(3) 0.207310(16) -0.08918(2)
W2_2 W -0.75483(3) 0.324480(16) -0.05098(2)
W3_2 W -0.87870(3) 0.249806(18) -0.00120(3)
S2_2 S -0.8656(2) 0.35718(12) 0.03409(17)
S3E_2 S -0.8565(2) 0.22082(13) 0.12767(17)
S4_2 S -0.8713(2) 0.14225(12) -0.03523(18)
Mn1F Mn -0.74728(14) -0.04029(7) 0.19696(11)
N2F N -0.7608(9) 0.5414(4) 0.3662(7)
O7 O 0.2660(7) 0.4836(5) 0.0791(6)
O8 O 0.4858(9) 0.3520(5) 0.3211(8)
O9 O -0.3722(10) 0.2506(5) 0.1922(8)
O10 O 0.2714(9) 0.6372(6) 0.2296(8)
O11 O 0.097(2) 0.5255(13) -0.0003(18)
O12 O -0.1079(19) 0.2126(10) 0.1697(14)
O13 O -0.0736(15) 0.3890(9) -0.2095(13)
O14 O -0.0002(13) 0.4363(8) -0.0777(11)
O15 O 0.3698(13) 0.4330(8) 0.5202(11)
O16 O 0.0252(15) 0.3850(9) 0.1785(13)
O17 O 0.4686(18) 0.3765(11) 0.5931(15)
O18 O 0.5000 0.466(3) 0.7500
loop_
_geom_bond_atom_site_label_1
_geom_bond_atom_site_label_2
_geom_bond_site_symmetry_1
_geom_bond_site_symmetry_2
W1 W2 1_555 1_555
W2 W3 1_555 1_555
W3 W1 1_555 1_555
S1 W1 1_555 1_555
S2 W2 1_555 1_555
S3 W1 1_555 1_555
S4 W1 1_555 1_555
Mn1 O1 1_555 1_555
Mn2 O5 1_555 1_555
O2 Mn1 1_555 1_555
O3 Mn1 1_555 1_555
O4 Mn1 1_555 1_555
O6 Mn2 1_555 1_555
N1 Mn1 1_555 1_555
C1 W1 1_555 1_555
C2 W2 1_555 1_555
N2 C2 1_555 1_555
C3 W3 1_555 1_555
N3 Mn2 1_555 1_555
O5E Mn2 1_555 1_555
O6E Mn2 1_555 1_555
C3E N3E 1_555 1_555
N3E Mn2 1_555 1_555
W3E C3E 1_555 1_555
S1E W3E 1_555 1_555
S2E W3E 1_555 1_555
S3_2 W3E 1_555 1_555
S4E W3E 1_555 1_555
W1E W3E 1_555 1_555
W2E W3E 1_555 1_555
N1E C1E 1_555 1_555
C1E W1E 1_555 1_555
C2E W2E 1_555 1_555
N2E C2E 1_555 1_555
Mn1E N1E 1_555 1_555
O1E Mn1E 1_555 1_555
O2E Mn1E 1_555 1_555
O3E Mn1E 1_555 1_555
O4E Mn1E 1_555 1_555
W2E_2 W1 1_555 1_555
W3E_2 W1 1_555 1_555
S2E_2 W1 1_555 1_555
S3E W3 1_555 1_555
W1E_2 W2 1_555 1_555
S4E_2 W2 1_555 1_555
N2C Mn1 1_555 1_555
Mn1C N2 1_555 1_555
W1_2 W3E 1_555 1_555
W2_2 W3E 1_555 1_555
W3_2 W1E 1_555 1_555
S2_2 W1E 1_555 1_555
S3E_2 W1E 1_555 1_555
S4_2 W2E 1_555 1_555
Mn1F N2E 1_555 1_555
N2F Mn1E 1_555 1_555
W2 S1 1_555 1_555
W2 S3 1_555 1_555
W2 W3E_2 1_555 1_555
W3 S1 1_555 1_555
W3 S2 1_555 1_555
W3 S4 1_555 1_555
W3 W2E_2 1_555 1_555
W3 W1E_2 1_555 1_555
S2 W1E_2 1_555 1_555
S3 W3E_2 1_555 1_555
S4 W2E_2 1_555 1_555
N1 C1 1_555 1_555
C3 N3 1_555 1_555
S1E W1E 1_555 1_555
S1E W2E 1_555 1_555
S2E W2E 1_555 1_555
S2E W1_2 1_555 1_555
S3_2 W1_2 1_555 1_555
S3_2 W2_2 1_555 1_555
S4E W1E 1_555 1_555
S4E W2_2 1_555 1_555
W1E W2E 1_555 1_555
W1E W2_2 1_555 1_555
W2E W1_2 1_555 1_555
W2E W3_2 1_555 1_555
W2E S3E_2 1_555 1_555
W2E_2 W3E_2 1_555 1_555
W2E_2 S2E_2 1_555 1_555
W2E_2 S3E 1_555 1_555
W2E_2 W1E_2 1_555 1_555
W3E_2 S2E_2 1_555 1_555
W3E_2 W1E_2 1_555 1_555
W3E_2 S4E_2 1_555 1_555
S3E W1E_2 1_555 1_555
W1E_2 S4E_2 1_555 1_555
W1_2 W2_2 1_555 1_555
W1_2 W3_2 1_555 1_555
W1_2 S4_2 1_555 1_555
W2_2 W3_2 1_555 1_555
W2_2 S2_2 1_555 1_555
W3_2 S2_2 1_555 1_555
W3_2 S3E_2 1_555 1_555
W3_2 S4_2 1_555 1_555

#END
