
#######################################################################
#
#                 Cambridge Crystallographic Data Centre
#                                CCDC 
#
#######################################################################
#
# If this CIF has been generated from an entry in the Cambridge 
# Structural Database, then it will include bibliographic, chemical, 
# crystal, experimental, refinement or atomic coordinate data resulting 
# from the CCDC's data processing and validation procedures.
#
#######################################################################

data_LUNBAX
_chemical_formula_moiety         '(C6 H50 Fe3 N6 O25 S8 W6)n'
_symmetry_cell_setting           monoclinic
_symmetry_space_group_name_H-M   'C 2/c'
_symmetry_Int_Tables_number      15
_space_group_name_Hall           '-C 2yc'
loop_
_symmetry_equiv_pos_site_id
_symmetry_equiv_pos_as_xyz
1 x,y,z
2 1/2+x,1/2+y,z
3 -x,y,1/2-z
4 1/2-x,1/2+y,1/2-z
5 -x,-y,-z
6 1/2-x,1/2-y,-z
7 x,-y,1/2+z
8 1/2+x,1/2-y,1/2+z
_cell_length_a                   14.6008(15)
_cell_length_b                   21.968(2)
_cell_length_c                   18.286(2)
_cell_angle_alpha                90
_cell_angle_beta                 94.940(6)
_cell_angle_gamma                90
_cell_volume                     5843.45
loop_
_atom_site_label
_atom_site_type_symbol
_atom_site_fract_x
_atom_site_fract_y
_atom_site_fract_z
W1 W 0.25577(5) 0.29357(3) 0.08969(4)
W2 W 0.25709(5) 0.17560(3) 0.05241(4)
W3 W 0.12038(5) 0.24778(3) -0.00214(4)
S1 S 0.1437(3) 0.2198(2) 0.1286(3)
S2 S 0.3809(3) 0.2231(2) 0.1325(3)
S3 S 0.1295(3) 0.3554(2) 0.0319(3)
S4 S 0.1322(3) 0.14023(19) -0.0352(3)
Fe1 Fe 0.24473(19) 0.45994(11) 0.30402(15)
Fe2 Fe -0.2500 0.2500 0.0000
O1 O 0.1707(9) 0.4089(5) 0.3818(7)
O2 O 0.1191(10) 0.4815(6) 0.2441(8)
O3 O 0.3749(10) 0.4434(6) 0.3682(7)
O4 O 0.3145(9) 0.5124(5) 0.2235(7)
O5 O -0.2492(10) 0.1603(6) 0.0451(10)
O6 O -0.2250(9) 0.2858(5) 0.1118(8)
C1 C 0.2600(11) 0.3494(7) 0.1885(9)
N1 N 0.2601(10) 0.3822(6) 0.2379(8)
C2 C 0.2625(12) 0.0886(8) 0.1078(9)
N2 N 0.2684(11) 0.0419(7) 0.1356(8)
C3 C -0.0277(15) 0.2445(9) -0.0047(11)
N3 N -0.1072(13) 0.2444(8) -0.0055(10)
O5E O -0.2508(10) 0.3397(6) -0.0451(10)
O6E O -0.2750(9) 0.2142(5) -0.1118(8)
C3E C -0.4723(15) 0.2555(9) 0.0047(11)
N3E N -0.3928(13) 0.2556(8) 0.0055(10)
W3E W -0.62038(5) 0.25222(3) 0.00214(4)
S1E S -0.6437(3) 0.2802(2) -0.1286(3)
S2_2 S -0.6191(3) 0.2231(2) 0.1325(3)
S3E S -0.6295(3) 0.1446(2) -0.0319(3)
S4E S -0.6322(3) 0.35977(19) 0.0352(3)
W1E W -0.75577(5) 0.20643(3) -0.08969(4)
W2E W -0.75709(5) 0.32440(3) -0.05241(4)
C1E C -0.7600(11) 0.1506(7) -0.1885(9)
N1E N -0.7601(10) 0.1178(6) -0.2379(8)
C2E C -0.7625(12) 0.4114(8) -0.1078(9)
N2E N -0.7684(11) 0.4581(7) -0.1356(8)
Fe1E Fe -0.74473(19) 0.04006(11) -0.30402(15)
O1E O -0.6707(9) 0.0911(5) -0.3818(7)
O2E O -0.6191(10) 0.0185(6) -0.2441(8)
O3E O -0.8749(10) 0.0566(6) -0.3682(7)
O4E O -0.8145(9) -0.0124(5) -0.2235(7)
W2E_2 W 0.24291(5) 0.32440(3) -0.05241(4)
W3E_2 W 0.37962(5) 0.25222(3) 0.00214(4)
S2E S 0.1191(3) 0.2769(2) -0.1325(3)
S4E_2 S 0.3678(3) 0.35977(19) 0.0352(3)
W1E_2 W 0.24423(5) 0.20643(3) -0.08969(4)
S3E_2 S 0.3705(3) 0.1446(2) -0.0319(3)
N2C N 0.2316(11) 0.5419(7) 0.3644(8)
Fe1C Fe 0.25527(19) -0.04006(11) 0.19598(15)
W1_2 W -0.74423(5) 0.29357(3) 0.08969(4)
W2_2 W -0.74291(5) 0.17560(3) 0.05241(4)
W3_2 W -0.87962(5) 0.24778(3) -0.00214(4)
S2E_2 S -0.8809(3) 0.2769(2) -0.1325(3)
S4_2 S -0.8678(3) 0.14023(19) -0.0352(3)
S3_2 S -0.8705(3) 0.3554(2) 0.0319(3)
Fe1F Fe -0.75527(19) 0.54006(11) -0.19598(15)
N2F N -0.7316(11) -0.0419(7) -0.3644(8)
O7 O 0.2419(9) -0.0149(6) 0.4197(7)
O8 O 0.0206(10) -0.1479(6) 0.1779(8)
O9 O 0.1321(10) -0.0688(7) -0.0197(8)
O10 O 0.3703(10) 0.2518(6) 0.3118(8)
O11 O -0.3962(16) 0.0339(10) 0.0000(13)
O12 O 0.0338(14) 0.0666(9) 0.1122(10)
O13 O -0.204(3) 0.1338(10) 0.2230(17)
O14 O 0.4774(16) -0.1136(13) 0.3249(13)
O15 O 0.5000 0.0754(17) 0.2500
O16 O -0.0912(15) 0.2176(10) 0.1718(12)
O17 O 0.0000 0.2970(19) 0.2500
O18 O 0.0000 0.113(3) 0.2500
O19 O 0.0000 0.008(3) 0.2500
loop_
_geom_bond_atom_site_label_1
_geom_bond_atom_site_label_2
_geom_bond_site_symmetry_1
_geom_bond_site_symmetry_2
W1 W2 1_555 1_555
W2 W3 1_555 1_555
W3 W1 1_555 1_555
S1 W1 1_555 1_555
S2 W1 1_555 1_555
S3 W1 1_555 1_555
S4 W2 1_555 1_555
Fe1 O1 1_555 1_555
Fe2 O5 1_555 1_555
O2 Fe1 1_555 1_555
O3 Fe1 1_555 1_555
O4 Fe1 1_555 1_555
O6 Fe2 1_555 1_555
C1 W1 1_555 1_555
N1 Fe1 1_555 1_555
C2 W2 1_555 1_555
N2 C2 1_555 1_555
C3 W3 1_555 1_555
N3 Fe2 1_555 1_555
O5E Fe2 1_555 1_555
O6E Fe2 1_555 1_555
C3E N3E 1_555 1_555
N3E Fe2 1_555 1_555
W3E C3E 1_555 1_555
S1E W3E 1_555 1_555
S2_2 W3E 1_555 1_555
S3E W3E 1_555 1_555
S4E W3E 1_555 1_555
W1E W3E 1_555 1_555
W2E W3E 1_555 1_555
C1E W1E 1_555 1_555
N1E C1E 1_555 1_555
C2E W2E 1_555 1_555
N2E C2E 1_555 1_555
Fe1E N1E 1_555 1_555
O1E Fe1E 1_555 1_555
O2E Fe1E 1_555 1_555
O3E Fe1E 1_555 1_555
O4E Fe1E 1_555 1_555
W2E_2 W1 1_555 1_555
W3E_2 W1 1_555 1_555
S2E W3 1_555 1_555
S4E_2 W1 1_555 1_555
W1E_2 W2 1_555 1_555
S3E_2 W2 1_555 1_555
N2C Fe1 1_555 1_555
Fe1C N2 1_555 1_555
W1_2 W3E 1_555 1_555
W2_2 W3E 1_555 1_555
W3_2 W1E 1_555 1_555
S2E_2 W1E 1_555 1_555
S4_2 W1E 1_555 1_555
S3_2 W2E 1_555 1_555
Fe1F N2E 1_555 1_555
N2F Fe1E 1_555 1_555
W2 S1 1_555 1_555
W2 S2 1_555 1_555
W2 W3E_2 1_555 1_555
W3 S1 1_555 1_555
W3 S3 1_555 1_555
W3 S4 1_555 1_555
W3 W2E_2 1_555 1_555
W3 W1E_2 1_555 1_555
S2 W3E_2 1_555 1_555
S3 W2E_2 1_555 1_555
S4 W1E_2 1_555 1_555
C1 N1 1_555 1_555
C3 N3 1_555 1_555
S1E W1E 1_555 1_555
S1E W2E 1_555 1_555
S2_2 W1_2 1_555 1_555
S2_2 W2_2 1_555 1_555
S3E W1E 1_555 1_555
S3E W2_2 1_555 1_555
S4E W2E 1_555 1_555
S4E W1_2 1_555 1_555
W1E W2E 1_555 1_555
W1E W2_2 1_555 1_555
W2E W1_2 1_555 1_555
W2E W3_2 1_555 1_555
W2E S2E_2 1_555 1_555
W2E_2 W3E_2 1_555 1_555
W2E_2 S2E 1_555 1_555
W2E_2 S4E_2 1_555 1_555
W2E_2 W1E_2 1_555 1_555
W3E_2 S4E_2 1_555 1_555
W3E_2 W1E_2 1_555 1_555
W3E_2 S3E_2 1_555 1_555
S2E W1E_2 1_555 1_555
W1E_2 S3E_2 1_555 1_555
W1_2 W2_2 1_555 1_555
W1_2 W3_2 1_555 1_555
W1_2 S3_2 1_555 1_555
W2_2 W3_2 1_555 1_555
W2_2 S4_2 1_555 1_555
W3_2 S2E_2 1_555 1_555
W3_2 S4_2 1_555 1_555
W3_2 S3_2 1_555 1_555

#END
