
#######################################################################
#
#                 Cambridge Crystallographic Data Centre
#                                CCDC 
#
#######################################################################
#
# If this CIF has been generated from an entry in the Cambridge 
# Structural Database, then it will include bibliographic, chemical, 
# crystal, experimental, refinement or atomic coordinate data resulting 
# from the CCDC's data processing and validation procedures.
#
#######################################################################

data_LUNBEB
_chemical_formula_moiety         '(C6 H50 Co3 N6 O25 S8 W6)n'
_symmetry_cell_setting           monoclinic
_symmetry_space_group_name_H-M   'C 2/c'
_symmetry_Int_Tables_number      15
_space_group_name_Hall           '-C 2yc'
loop_
_symmetry_equiv_pos_site_id
_symmetry_equiv_pos_as_xyz
1 x,y,z
2 1/2+x,1/2+y,z
3 -x,y,1/2-z
4 1/2-x,1/2+y,1/2-z
5 -x,-y,-z
6 1/2-x,1/2-y,-z
7 x,-y,1/2+z
8 1/2+x,1/2-y,1/2+z
_cell_length_a                   14.448(9)
_cell_length_b                   21.885(13)
_cell_length_c                   18.030(10)
_cell_angle_alpha                90
_cell_angle_beta                 94.879(10)
_cell_angle_gamma                90
_cell_volume                     5680.33
loop_
_atom_site_label
_atom_site_type_symbol
_atom_site_fract_x
_atom_site_fract_y
_atom_site_fract_z
W1 W 0.25474(6) 0.20662(4) 0.09125(5)
W2 W 0.25780(7) 0.32487(4) 0.05245(5)
W3 W 0.11961(6) 0.25301(4) -0.00202(6)
S1 S 0.1419(4) 0.2815(3) 0.1304(3)
S2 S 0.1263(4) 0.1447(3) 0.0335(4)
S3 S 0.3810(4) 0.2766(3) 0.1345(3)
S4 S 0.1323(4) 0.3605(3) -0.0364(3)
Co1 Co 0.2446(3) 0.04011(14) 0.30560(19)
Co2 Co -0.2500 0.2500 0.0000
O1 O 0.3142(14) -0.0108(9) 0.2261(11)
O2 O 0.1178(13) 0.0217(9) 0.2443(12)
O3 O 0.1696(14) 0.0899(8) 0.3837(10)
O4 O 0.3712(12) 0.0576(10) 0.3692(11)
O5 O -0.2555(14) 0.3372(9) 0.0472(14)
O6 O -0.2291(13) 0.2153(8) 0.1111(12)
C1 C 0.2558(15) 0.1509(10) 0.1908(12)
N1 N 0.2584(13) 0.1175(9) 0.2399(11)
C2 C 0.2676(16) 0.4106(11) 0.1076(13)
N2 N 0.2703(15) 0.4585(10) 0.1365(12)
C3 C -0.0273(19) 0.2551(11) -0.0069(14)
N3 N -0.1062(18) 0.2579(11) -0.0031(14)
O5E O -0.2445(14) 0.1628(9) -0.0472(14)
O6E O -0.2709(13) 0.2847(8) -0.1111(12)
C3E C -0.4727(19) 0.2449(11) 0.0069(14)
N3E N -0.3938(18) 0.2421(11) 0.0031(14)
W3E W -0.61961(6) 0.24699(4) 0.00202(6)
S1E S -0.6419(4) 0.2185(3) -0.1304(3)
S2E S -0.6263(4) 0.3553(3) -0.0335(4)
S3_2 S -0.6190(4) 0.2766(3) 0.1345(3)
S4E S -0.6323(4) 0.1395(3) 0.0364(3)
W1E W -0.75474(6) 0.29338(4) -0.09125(5)
W2E W -0.75780(7) 0.17513(4) -0.05245(5)
C1E C -0.7558(15) 0.3491(10) -0.1908(12)
N1E N -0.7584(13) 0.3825(9) -0.2399(11)
C2E C -0.7676(16) 0.0894(11) -0.1076(13)
N2E N -0.7703(15) 0.0415(10) -0.1365(12)
Co1E Co -0.7446(3) 0.45989(14) -0.30560(19)
O1E O -0.8142(14) 0.5108(9) -0.2261(11)
O2E O -0.6178(13) 0.4783(9) -0.2443(12)
O3E O -0.6696(14) 0.4101(8) -0.3837(10)
O4E O -0.8712(12) 0.4424(10) -0.3692(11)
W2E_2 W 0.24220(7) 0.17513(4) -0.05245(5)
W3E_2 W 0.38039(6) 0.24699(4) 0.00202(6)
S3E S 0.1190(4) 0.2234(3) -0.1345(3)
S4E_2 S 0.3677(4) 0.1395(3) 0.0364(3)
W1E_2 W 0.24526(6) 0.29338(4) -0.09125(5)
S2E_2 S 0.3737(4) 0.3553(3) -0.0335(4)
N2C N 0.2297(15) -0.0415(10) 0.3635(12)
Co1C Co 0.2554(3) 0.54011(14) 0.19440(19)
W1_2 W -0.74526(6) 0.20662(4) 0.09125(5)
W2_2 W -0.74220(7) 0.32487(4) 0.05245(5)
W3_2 W -0.88039(6) 0.25301(4) -0.00202(6)
S3E_2 S -0.8810(4) 0.2234(3) -0.1345(3)
S4_2 S -0.8677(4) 0.3605(3) -0.0364(3)
S2_2 S -0.8737(4) 0.1447(3) 0.0335(4)
Co1F Co -0.7554(3) -0.04011(14) -0.19440(19)
N2F N -0.7297(15) 0.5415(10) -0.3635(12)
O7 O 0.2468(13) 0.0156(8) 0.0794(10)
O8 O -0.1346(14) 0.4321(9) 0.0207(11)
O9 O 0.199(6) 0.3683(19) 0.279(2)
O10 O 0.0351(18) 0.4352(12) 0.1113(14)
O11 O 0.3735(17) 0.2468(12) 0.3114(14)
O12 O 0.483(2) 0.1462(14) 0.3210(16)
O13 O 0.089(2) -0.0365(14) 0.0056(16)
O14 O -0.433(2) 0.3688(16) 0.1057(19)
O15 O 0.019(3) 0.120(2) 0.181(2)
O16 O -0.0000 -0.078(3) 0.2500
O17 O -0.090(2) 0.2763(16) 0.1751(19)
O18 O -0.0000 0.401(4) 0.2500
O19 O 0.5000 0.032(7) 0.2500
loop_
_geom_bond_atom_site_label_1
_geom_bond_atom_site_label_2
_geom_bond_site_symmetry_1
_geom_bond_site_symmetry_2
W1 W2 1_555 1_555
W2 W3 1_555 1_555
W3 W1 1_555 1_555
S1 W1 1_555 1_555
S2 W1 1_555 1_555
S3 W1 1_555 1_555
S4 W2 1_555 1_555
Co1 O1 1_555 1_555
Co2 O5 1_555 1_555
O2 Co1 1_555 1_555
O3 Co1 1_555 1_555
O4 Co1 1_555 1_555
O6 Co2 1_555 1_555
C1 W1 1_555 1_555
N1 Co1 1_555 1_555
C2 W2 1_555 1_555
N2 C2 1_555 1_555
C3 W3 1_555 1_555
N3 Co2 1_555 1_555
O5E Co2 1_555 1_555
O6E Co2 1_555 1_555
C3E N3E 1_555 1_555
N3E Co2 1_555 1_555
W3E C3E 1_555 1_555
S1E W3E 1_555 1_555
S2E W3E 1_555 1_555
S3_2 W3E 1_555 1_555
S4E W3E 1_555 1_555
W1E W3E 1_555 1_555
W2E W3E 1_555 1_555
C1E W1E 1_555 1_555
N1E C1E 1_555 1_555
C2E W2E 1_555 1_555
N2E C2E 1_555 1_555
Co1E N1E 1_555 1_555
O1E Co1E 1_555 1_555
O2E Co1E 1_555 1_555
O3E Co1E 1_555 1_555
O4E Co1E 1_555 1_555
W2E_2 W1 1_555 1_555
W3E_2 W1 1_555 1_555
S3E W3 1_555 1_555
S4E_2 W1 1_555 1_555
W1E_2 W2 1_555 1_555
S2E_2 W2 1_555 1_555
N2C Co1 1_555 1_555
Co1C N2 1_555 1_555
W1_2 W3E 1_555 1_555
W2_2 W3E 1_555 1_555
W3_2 W1E 1_555 1_555
S3E_2 W1E 1_555 1_555
S4_2 W1E 1_555 1_555
S2_2 W2E 1_555 1_555
Co1F N2E 1_555 1_555
N2F Co1E 1_555 1_555
W2 S1 1_555 1_555
W2 S3 1_555 1_555
W2 W3E_2 1_555 1_555
W3 S1 1_555 1_555
W3 S2 1_555 1_555
W3 S4 1_555 1_555
W3 W2E_2 1_555 1_555
W3 W1E_2 1_555 1_555
S2 W2E_2 1_555 1_555
S3 W3E_2 1_555 1_555
S4 W1E_2 1_555 1_555
C1 N1 1_555 1_555
C3 N3 1_555 1_555
S1E W1E 1_555 1_555
S1E W2E 1_555 1_555
S2E W1E 1_555 1_555
S2E W2_2 1_555 1_555
S3_2 W1_2 1_555 1_555
S3_2 W2_2 1_555 1_555
S4E W2E 1_555 1_555
S4E W1_2 1_555 1_555
W1E W2E 1_555 1_555
W1E W2_2 1_555 1_555
W2E W1_2 1_555 1_555
W2E W3_2 1_555 1_555
W2E S3E_2 1_555 1_555
W2E_2 W3E_2 1_555 1_555
W2E_2 S3E 1_555 1_555
W2E_2 S4E_2 1_555 1_555
W2E_2 W1E_2 1_555 1_555
W3E_2 S4E_2 1_555 1_555
W3E_2 W1E_2 1_555 1_555
W3E_2 S2E_2 1_555 1_555
S3E W1E_2 1_555 1_555
W1E_2 S2E_2 1_555 1_555
W1_2 W2_2 1_555 1_555
W1_2 W3_2 1_555 1_555
W1_2 S2_2 1_555 1_555
W2_2 W3_2 1_555 1_555
W2_2 S4_2 1_555 1_555
W3_2 S3E_2 1_555 1_555
W3_2 S4_2 1_555 1_555
W3_2 S2_2 1_555 1_555

#END
