
#######################################################################
#
#                 Cambridge Crystallographic Data Centre
#                                CCDC 
#
#######################################################################
#
# If this CIF has been generated from an entry in the Cambridge 
# Structural Database, then it will include bibliographic, chemical, 
# crystal, experimental, refinement or atomic coordinate data resulting 
# from the CCDC's data processing and validation procedures.
#
#######################################################################

data_LUNBIF
_chemical_formula_moiety         '(C6 H22 K2 N6 O11 S8 W6 Zn2)n'
_symmetry_cell_setting           orthorhombic
_symmetry_space_group_name_H-M   'P n n m'
_symmetry_Int_Tables_number      58
_space_group_name_Hall           '-P 2 2n'
loop_
_symmetry_equiv_pos_site_id
_symmetry_equiv_pos_as_xyz
1 x,y,z
2 -x,-y,z
3 1/2-x,1/2+y,1/2-z
4 1/2+x,1/2-y,1/2-z
5 -x,-y,-z
6 x,y,-z
7 1/2+x,1/2-y,1/2+z
8 1/2-x,1/2+y,1/2+z
_cell_length_a                   15.693(2)
_cell_length_b                   16.914(3)
_cell_length_c                   11.0355(16)
_cell_angle_alpha                90
_cell_angle_beta                 90
_cell_angle_gamma                90
_cell_volume                     2929.17
loop_
_atom_site_label
_atom_site_type_symbol
_atom_site_fract_x
_atom_site_fract_y
_atom_site_fract_z
_atom_site_U_iso_or_equiv
_atom_site_thermal_displace_type
W1 W 0.40268(11) -0.06608(11) 0.5000 0.0396 Uani
W2 W 0.55007(7) -0.06359(7) 0.37878(9) 0.0360 Uani
S1 S 0.4095(5) -0.0612(5) 0.2783(6) 0.0467 Uani
S2 S 0.3190(7) 0.0571(7) 0.5000 0.0487 Uani
S3 S 0.5027(7) -0.1769(6) 0.5000 0.0473 Uani
Zn1 Zn 0.1646(3) -0.2823(2) 0.5000 0.0393 Uani
O1 O 0.0455(18) -0.2081(13) 0.5000 0.0727 Uani
O2 O 0.2794(17) -0.3623(17) 0.5000 0.0767 Uani
C1 C 0.300(3) -0.140(2) 0.5000 0.0570 Uiso
N1 N 0.242(2) -0.192(2) 0.5000 0.0590 Uiso
C2 C 0.6027(16) -0.1316(15) 0.231(2) 0.0360 Uiso
N2 N 0.6279(12) -0.1717(12) 0.1538(18) 0.0390 Uiso
S1E S 0.4095(5) -0.0612(5) 0.7217(6) 0.0467 Uani
W2E W 0.55007(7) -0.06359(7) 0.62122(9) 0.0360 Uani
W2A W 0.44993(7) 0.06359(7) 0.37878(9) 0.0360 Uani
W2D W 0.44993(7) 0.06359(7) 0.62122(9) 0.0360 Uani
S1A S 0.5905(5) 0.0612(5) 0.2783(6) 0.0467 Uani
S2D S 0.6810(7) -0.0571(7) 0.5000 0.0487 Uani
N2C N 0.1279(12) -0.3283(12) 0.3462(18) 0.0390 Uiso
N2F N 0.1279(12) -0.3283(12) 0.6538(18) 0.0390 Uiso
S1D S 0.5905(5) 0.0612(5) 0.7217(6) 0.0467 Uani
C2E C 0.6027(16) -0.1316(15) 0.769(2) 0.0360 Uiso
N2E N 0.6279(12) -0.1717(12) 0.8462(18) 0.0390 Uiso
S3A S 0.4973(7) 0.1769(6) 0.5000 0.0473 Uani
C2A C 0.3973(16) 0.1316(15) 0.231(2) 0.0360 Uiso
N2A N 0.3721(12) 0.1717(12) 0.1538(18) 0.0390 Uiso
C2D C 0.3973(16) 0.1316(15) 0.769(2) 0.0360 Uiso
N2D N 0.3721(12) 0.1717(12) 0.8462(18) 0.0390 Uiso
W1A W 0.59732(11) 0.06608(11) 0.5000 0.0396 Uani
Zn1C Zn 0.6646(3) -0.2177(2) 0.0000 0.0393 Uani
Zn1F Zn 0.6646(3) -0.2177(2) 1.0000 0.0393 Uani
Zn1B Zn 0.3354(3) 0.2177(2) 0.0000 0.0393 Uani
Zn1G Zn 0.3354(3) 0.2177(2) 1.0000 0.0393 Uani
C1A C 0.700(3) 0.140(2) 0.5000 0.0570 Uiso
N1A N 0.758(2) 0.192(2) 0.5000 0.0590 Uiso
Zn1A Zn 0.8354(3) 0.2823(2) 0.5000 0.0393 Uani
O1A O 0.9545(18) 0.2081(13) 0.5000 0.0727 Uani
O2A O 0.7206(17) 0.3623(17) 0.5000 0.0767 Uani
N2B N 0.8721(12) 0.3283(12) 0.3462(18) 0.0390 Uiso
N2G N 0.8721(12) 0.3283(12) 0.6538(18) 0.0390 Uiso
K1 K 0.303(2) -0.006(2) 0.0000 0.1800 Uiso
K2 K 0.074(3) 0.245(3) 0.293(4) 0.1420 Uiso
O3 O 0.260(2) -0.240(3) 0.113(3) 0.2700 Uiso
O4 O -0.068(3) -0.320(4) 0.5000 0.1300 Uiso
O5 O 0.433(3) 0.448(3) 0.0000 0.0500 Uiso
O6 O 0.391(3) -0.370(2) 0.331(4) 0.1030 Uiso
O7 O 0.395(5) -0.650(5) 0.303(8) 0.2600 Uiso
O8 O -0.024(3) 0.091(3) 0.0000 0.1700 Uiso
O9 O 0.400(12) 0.542(10) 0.128(14) 0.6600 Uiso
loop_
_atom_site_aniso_label
_atom_site_aniso_U_11
_atom_site_aniso_U_22
_atom_site_aniso_U_33
_atom_site_aniso_U_23
_atom_site_aniso_U_13
_atom_site_aniso_U_12
W1 0.0637(13) 0.0421(11) 0.0129(9) 0.000 0.000 -0.0304(11)
W2 0.0613(9) 0.0364(7) 0.0104(6) -0.0013(6) 0.0008(6) -0.0212(7)
S1 0.068(5) 0.047(5) 0.025(4) 0.002(4) -0.001(4) -0.025(5)
S2 0.056(8) 0.062(8) 0.028(6) 0.000 0.000 -0.024(7)
S3 0.084(9) 0.043(7) 0.015(5) 0.000 0.000 -0.039(6)
Zn1 0.055(3) 0.037(3) 0.026(3) 0.000 0.000 -0.023(2)
O1 0.11(2) 0.018(15) 0.09(2) 0.000 0.000 -0.007(16)
O2 0.06(2) 0.09(2) 0.08(2) 0.000 0.000 -0.002(18)
S1E 0.068 0.047 0.025 -0.002 0.001 -0.025
W2E 0.0613 0.0364 0.0104 0.0013 -0.0008 -0.0212
W2A 0.0613 0.0364 0.0104 0.0013 -0.0008 -0.0212
W2D 0.0613 0.0364 0.0104 -0.0013 0.0008 -0.0212
S1A 0.068 0.047 0.025 -0.002 0.001 -0.025
S2D 0.056 0.062 0.028 0 0 -0.024
S1D 0.068 0.047 0.025 0.002 -0.001 -0.025
S3A 0.084 0.043 0.015 0 0 -0.039
W1A 0.0637 0.0421 0.0129 0 0 -0.0304
Zn1C 0.055 0.037 0.026 0 0 0.023
Zn1F 0.055 0.037 0.026 0 0 0.023
Zn1B 0.055 0.037 0.026 0 0 0.023
Zn1G 0.055 0.037 0.026 0 0 0.023
Zn1A 0.055 0.037 0.026 0 0 -0.023
O1A 0.11 0.018 0.09 0 0 -0.007
O2A 0.06 0.09 0.08 0 0 -0.002
loop_
_geom_bond_atom_site_label_1
_geom_bond_atom_site_label_2
_geom_bond_site_symmetry_1
_geom_bond_site_symmetry_2
W1 W2 1_555 1_555
W2 S1 1_555 1_555
S1 W1 1_555 1_555
S2 W1 1_555 1_555
S3 W1 1_555 1_555
Zn1 O1 1_555 1_555
O2 Zn1 1_555 1_555
C1 W1 1_555 1_555
N1 Zn1 1_555 1_555
C2 W2 1_555 1_555
N2 C2 1_555 1_555
S1E W1 1_555 1_555
W2E W1 1_555 1_555
W2A W1 1_555 1_555
W2D W1 1_555 1_555
S1A W2 1_555 1_555
S2D W2 1_555 1_555
N2C Zn1 1_555 1_555
N2F Zn1 1_555 1_555
S1D W2E 1_555 1_555
C2E W2E 1_555 1_555
N2E C2E 1_555 1_555
S3A W2A 1_555 1_555
C2A W2A 1_555 1_555
N2A C2A 1_555 1_555
C2D W2D 1_555 1_555
N2D C2D 1_555 1_555
W1A W2 1_555 1_555
Zn1C N2 1_555 1_555
Zn1F N2E 1_555 1_555
Zn1B N2A 1_555 1_555
Zn1G N2D 1_555 1_555
C1A W1A 1_555 1_555
N1A C1A 1_555 1_555
Zn1A N1A 1_555 1_555
O1A Zn1A 1_555 1_555
O2A Zn1A 1_555 1_555
N2B Zn1A 1_555 1_555
N2G Zn1A 1_555 1_555
W2 S3 1_555 1_555
W2 W2E 1_555 1_555
W2 W2A 1_555 1_555
S1 W2A 1_555 1_555
S2 W2A 1_555 1_555
S2 W2D 1_555 1_555
S3 W2E 1_555 1_555
C1 N1 1_555 1_555
S1E W2E 1_555 1_555
S1E W2D 1_555 1_555
W2E W2D 1_555 1_555
W2E S2D 1_555 1_555
W2E W1A 1_555 1_555
W2A W2D 1_555 1_555
W2A S1A 1_555 1_555
W2A W1A 1_555 1_555
W2D S1D 1_555 1_555
W2D S3A 1_555 1_555
W2D W1A 1_555 1_555
S1A W1A 1_555 1_555
S2D W1A 1_555 1_555
S1D W1A 1_555 1_555
S3A W1A 1_555 1_555

#END
