
#######################################################################
#
#                 Cambridge Crystallographic Data Centre
#                                CCDC 
#
#######################################################################
#
# If this CIF has been generated from an entry in the Cambridge 
# Structural Database, then it will include bibliographic, chemical, 
# crystal, experimental, refinement or atomic coordinate data resulting 
# from the CCDC's data processing and validation procedures.
#
#######################################################################

data_LAYGAV
_chemical_formula_moiety         '(C57 H41 Co3 N5 O13)n'
_symmetry_cell_setting           monoclinic
_symmetry_space_group_name_H-M   'C 2/c'
_symmetry_Int_Tables_number      15
_space_group_name_Hall           '-C 2yc'
loop_
_symmetry_equiv_pos_site_id
_symmetry_equiv_pos_as_xyz
1 x,y,z
2 -x,y,1/2-z
3 1/2+x,1/2+y,z
4 1/2-x,1/2+y,1/2-z
5 -x,-y,-z
6 x,-y,1/2+z
7 1/2-x,1/2-y,-z
8 1/2+x,1/2-y,1/2+z
_cell_length_a                   44.781(9)
_cell_length_b                   13.959(3)
_cell_length_c                   26.181(5)
_cell_angle_alpha                90
_cell_angle_beta                 119.71(3)
_cell_angle_gamma                90
_cell_volume                     14214.3
loop_
_atom_site_label
_atom_site_type_symbol
_atom_site_fract_x
_atom_site_fract_y
_atom_site_fract_z
Co1 Co 0.37314(2) 0.24982(6) 0.24146(3)
Co2 Co 0.28308(2) 0.26669(6) 0.16527(3)
Co3 Co 0.45546(2) 1.22893(6) 0.30952(3)
N2 N 0.23217(13) 0.2396(4) 0.1150(2)
N3 N 0.17513(14) 0.2457(4) 0.0737(2)
N4 N 0.05633(15) 0.3208(5) -0.0612(3)
N5 N 0.00350(15) 0.3144(4) -0.1386(3)
O2 O 0.33274(12) 0.3493(3) 0.2004(2)
O3 O 0.28281(14) 0.4141(3) 0.1727(2)
O4 O 0.41461(11) 1.1437(3) 0.28327(17)
O5 O 0.44621(15) 1.0871(3) 0.2485(2)
O6 O 0.29356(12) 0.2106(3) 0.24088(19)
O7 O 0.34970(12) 0.1809(3) 0.28130(19)
O8 O 0.35078(12) -0.1635(3) 0.66930(19)
O9 O 0.29532(12) -0.1920(3) 0.61458(18)
O10 O 0.39789(12) 0.3175(3) 0.20259(19)
O11 O 0.45482(14) 0.3090(3) 0.24717(19)
O12 O 0.39656(14) 0.6631(3) -0.1857(2)
O13 O 0.45222(15) 0.6889(3) -0.1319(2)
C4 C 0.31477(17) 0.4228(5) 0.1930(3)
C5 C 0.33032(18) 0.5203(4) 0.2038(3)
C6 C 0.3615(2) 0.5345(5) 0.2125(4)
H8 H 0.3747 0.4816 0.2144
C7 C 0.3756(2) 0.6250(5) 0.2189(4)
H9 H 0.3974 0.6326 0.2237
C8 C 0.3565(2) 0.7050(4) 0.2183(3)
C9 C 0.3251(2) 0.6912(4) 0.2104(4)
H10 H 0.3121 0.7440 0.2092
C10 C 0.31118(19) 0.6006(4) 0.2039(3)
H11 H 0.2895 0.5926 0.1997
C11 C 0.37252(18) 0.8019(5) 0.2254(3)
C12 C 0.3614(2) 0.8783(5) 0.2463(3)
H12 H 0.3433 0.8699 0.2538
C13 C 0.3778(2) 0.9686(4) 0.2557(3)
H13 H 0.3707 1.0186 0.2706
C14 C 0.40359(18) 0.9839(4) 0.2436(3)
C15 C 0.42202(17) 1.0757(4) 0.2581(3)
C16 C 0.4135(2) 0.9101(5) 0.2198(4)
H14 H 0.4301 0.9197 0.2089
C17 C 0.3975(2) 0.8198(5) 0.2125(4)
H15 H 0.4048 0.7698 0.1978
C18 C 0.3220(2) 0.1779(4) 0.2805(3)
C19 C 0.32126(19) 0.1299(5) 0.3316(3)
C20 C 0.2922(2) 0.1265(6) 0.3354(3)
H16 H 0.2720 0.1542 0.3062
C21 C 0.2927(2) 0.0812(6) 0.3835(4)
H17 H 0.2727 0.0796 0.3859
C22 C 0.3218(2) 0.0393(5) 0.4270(3)
C23 C 0.3499(2) 0.0416(7) 0.4209(4)
H18 H 0.3697 0.0111 0.4491
C24 C 0.3507(2) 0.0876(6) 0.3744(3)
H19 H 0.3709 0.0896 0.3725
C25 C 0.3210(2) -0.0101(5) 0.4776(3)
C26 C 0.2917(2) -0.0540(5) 0.4711(3)
H20 H 0.2715 -0.0515 0.4350
C27 C 0.2921(2) -0.1022(5) 0.5183(3)
H21 H 0.2724 -0.1328 0.5136
C28 C 0.32219(18) -0.1039(4) 0.5724(3)
C29 C 0.32309(19) -0.1573(4) 0.6232(3)
C30 C 0.3512(2) -0.0589(5) 0.5799(3)
H22 H 0.3711 -0.0596 0.6165
C31 C 0.3512(2) -0.0113(5) 0.5324(3)
H23 H 0.3710 0.0188 0.5374
C32 C 0.20606(16) 0.2728(5) 0.1196(3)
H24 H 0.2085 0.3105 0.1508
C33 C 0.14223(18) 0.2707(7) 0.0637(3)
C34 C 0.11563(17) 0.2826(5) 0.0079(3)
H25 H 0.1192 0.2728 -0.0238
C35 C 0.0847(2) 0.3082(7) -0.0016(3)
C36 C 0.02388(19) 0.2967(5) -0.0805(3)
H26 H 0.0160 0.2706 -0.0567
C37 C 0.0262(2) 0.3520(5) -0.1548(4)
H27 H 0.0200 0.3711 -0.1928
C38 C 0.0586(2) 0.3575(6) -0.1082(3)
H28 H 0.0782 0.3809 -0.1079
C39 C 0.0768(3) 0.3175(12) 0.0437(4)
H29 H 0.0548 0.3308 0.0367
C40 C 0.1053(3) 0.3049(14) 0.1014(4)
H30 H 0.1023 0.3159 0.1336
C41 C 0.1363(2) 0.2777(12) 0.1109(4)
H31 H 0.1538 0.2636 0.1488
C42 C 0.1833(2) 0.1907(5) 0.0386(3)
H32 H 0.1677 0.1610 0.0037
C43 C 0.2173(2) 0.1876(5) 0.0633(3)
H33 H 0.2293 0.1551 0.0481
C44 C 0.42506(18) 0.3314(4) 0.2047(3)
C45 C 0.42649(18) 0.3789(4) 0.1535(3)
C46 C 0.4558(2) 0.3865(5) 0.1507(3)
H34 H 0.4763 0.3647 0.1821
C47 C 0.4561(2) 0.4255(5) 0.1029(3)
H35 H 0.4763 0.4271 0.1011
C48 C 0.4256(2) 0.4629(5) 0.0569(3)
C49 C 0.3962(2) 0.4580(5) 0.0590(3)
H36 H 0.3761 0.4828 0.0281
C50 C 0.39532(19) 0.4159(4) 0.1075(3)
H37 H 0.3750 0.4127 0.1089
C51 C 0.4264(2) 0.5063(6) 0.0046(3)
C52 C 0.4542(3) 0.5508(7) 0.0099(3)
H38 H 0.4741 0.5529 0.0465
C53 C 0.3967(3) 0.5052(7) -0.0510(4)
H39 H 0.3772 0.4714 -0.0573
C54 C 0.4242(2) 0.6530(5) -0.1415(4)
C55 C 0.4254(2) 0.6011(5) -0.0905(3)
C56 C 0.4542(2) 0.5941(7) -0.0383(4)
H40 H 0.4747 0.6186 -0.0341
C57 C 0.3970(2) 0.5564(7) -0.0966(4)
H41 H 0.3768 0.5597 -0.1327
Co1_2 Co 0.37314(2) 1.24982(6) 0.24146(3)
Co1E Co 0.37314(2) -0.24982(6) 0.74146(3)
Co1E_2 Co 0.37314(2) 0.75018(6) -0.25854(3)
Co2E Co 0.28308(2) -0.26669(6) 0.66527(3)
Co3G Co -0.04454(2) 0.27107(6) -0.19048(3)
Co3_2 Co 0.45546(2) 0.22893(6) 0.30952(3)
Co3E Co 0.45546(2) 0.77107(6) -0.19048(3)
N5G N 0.50350(15) 1.1856(4) 0.3614(3)
O4_2 O 0.41461(11) 0.1437(3) 0.28327(17)
O8E O 0.35078(12) 0.1635(3) 0.16930(19)
O9E O 0.29532(12) 0.1920(3) 0.11458(18)
O11_2 O 0.45482(14) 1.3090(3) 0.24717(19)
O12E O 0.39656(14) 0.3369(3) 0.3143(2)
O13E O 0.45222(15) 1.3111(3) 0.3681(2)
N1 N 0.2564(3) 0.4514(6) 0.3050(4)
O1 O 0.2147(2) 0.3513(6) 0.2430(3)
C1 C 0.2416(4) 0.3933(10) 0.2629(6)
H1 H 0.2539 0.3805 0.2435
C2 C 0.2333(5) 0.4764(11) 0.3316(7)
H2 H 0.2109 0.4492 0.3076
H3 H 0.2313 0.5448 0.3329
H4 H 0.2433 0.4509 0.3707
C3 C 0.2863(4) 0.5084(12) 0.3225(7)
H5 H 0.3002 0.5073 0.3645
H6 H 0.2796 0.5731 0.3094
H7 H 0.2992 0.4831 0.3053
loop_
_geom_bond_atom_site_label_1
_geom_bond_atom_site_label_2
_geom_bond_site_symmetry_1
_geom_bond_site_symmetry_2
N1 C1 1_555 1_555
O1 C1 1_555 1_555
C1 H1 1_555 1_555
C2 N1 1_555 1_555
H2 C2 1_555 1_555
H3 C2 1_555 1_555
H4 C2 1_555 1_555
C3 N1 1_555 1_555
H5 C3 1_555 1_555
H6 C3 1_555 1_555
H7 C3 1_555 1_555
Co1 O2 1_555 1_555
Co2 N2 1_555 1_555
Co3 O4 1_555 1_555
N2 C32 1_555 1_555
N3 C32 1_555 1_555
N4 C35 1_555 1_555
N5 C36 1_555 1_555
O2 Co2 1_555 1_555
O3 Co2 1_555 1_555
O4 C15 1_555 1_555
O5 Co3 1_555 1_555
O6 Co2 1_555 1_555
O7 Co1 1_555 1_555
O8 C29 1_555 1_555
O9 C29 1_555 1_555
O10 Co1 1_555 1_555
O11 C44 1_555 1_555
O12 C54 1_555 1_555
O13 C54 1_555 1_555
C4 O2 1_555 1_555
C5 C4 1_555 1_555
C6 C5 1_555 1_555
H8 C6 1_555 1_555
C7 C6 1_555 1_555
H9 C7 1_555 1_555
C8 C7 1_555 1_555
C9 C8 1_555 1_555
H10 C9 1_555 1_555
C10 C5 1_555 1_555
H11 C10 1_555 1_555
C11 C8 1_555 1_555
C12 C11 1_555 1_555
H12 C12 1_555 1_555
C13 C12 1_555 1_555
H13 C13 1_555 1_555
C14 C13 1_555 1_555
C15 O5 1_555 1_555
C16 C14 1_555 1_555
H14 C16 1_555 1_555
C17 C11 1_555 1_555
H15 C17 1_555 1_555
C18 O6 1_555 1_555
C19 C18 1_555 1_555
C20 C19 1_555 1_555
H16 C20 1_555 1_555
C21 C20 1_555 1_555
H17 C21 1_555 1_555
C22 C21 1_555 1_555
C23 C22 1_555 1_555
H18 C23 1_555 1_555
C24 C19 1_555 1_555
H19 C24 1_555 1_555
C25 C22 1_555 1_555
C26 C25 1_555 1_555
H20 C26 1_555 1_555
C27 C26 1_555 1_555
H21 C27 1_555 1_555
C28 C27 1_555 1_555
C29 C28 1_555 1_555
C30 C28 1_555 1_555
H22 C30 1_555 1_555
C31 C25 1_555 1_555
H23 C31 1_555 1_555
C32 H24 1_555 1_555
C33 N3 1_555 1_555
C34 C33 1_555 1_555
H25 C34 1_555 1_555
C35 C34 1_555 1_555
C36 N4 1_555 1_555
H26 C36 1_555 1_555
C37 N5 1_555 1_555
H27 C37 1_555 1_555
C38 N4 1_555 1_555
H28 C38 1_555 1_555
C39 C35 1_555 1_555
H29 C39 1_555 1_555
C40 C39 1_555 1_555
H30 C40 1_555 1_555
C41 C33 1_555 1_555
H31 C41 1_555 1_555
C42 N3 1_555 1_555
H32 C42 1_555 1_555
C43 N2 1_555 1_555
H33 C43 1_555 1_555
C44 O10 1_555 1_555
C45 C44 1_555 1_555
C46 C45 1_555 1_555
H34 C46 1_555 1_555
C47 C46 1_555 1_555
H35 C47 1_555 1_555
C48 C47 1_555 1_555
C49 C48 1_555 1_555
H36 C49 1_555 1_555
C50 C45 1_555 1_555
H37 C50 1_555 1_555
C51 C48 1_555 1_555
C52 C51 1_555 1_555
H38 C52 1_555 1_555
C53 C51 1_555 1_555
H39 C53 1_555 1_555
C54 C55 1_555 1_555
C55 C56 1_555 1_555
C56 C52 1_555 1_555
H40 C56 1_555 1_555
C57 C53 1_555 1_555
H41 C57 1_555 1_555
Co1_2 O4 1_555 1_555
Co1E O8 1_555 1_555
Co1E_2 O12 1_555 1_555
Co2E O9 1_555 1_555
Co3G N5 1_555 1_555
Co3_2 O11 1_555 1_555
Co3E O13 1_555 1_555
N5G Co3 1_555 1_555
O4_2 Co1 1_555 1_555
O8E Co1 1_555 1_555
O9E Co2 1_555 1_555
O11_2 Co3 1_555 1_555
O12E Co1 1_555 1_555
O13E Co3 1_555 1_555
O3 C4 1_555 1_555
O7 C18 1_555 1_555
C9 C10 1_555 1_555
C14 C15 1_555 1_555
C16 C17 1_555 1_555
C23 C24 1_555 1_555
C30 C31 1_555 1_555
C37 C38 1_555 1_555
C40 C41 1_555 1_555
C42 C43 1_555 1_555
C49 C50 1_555 1_555
C55 C57 1_555 1_555
Co3_2 O4_2 1_555 1_555

#END
