
#######################################################################
#
#                 Cambridge Crystallographic Data Centre
#                                CCDC 
#
#######################################################################
#
# If this CIF has been generated from an entry in the Cambridge 
# Structural Database, then it will include bibliographic, chemical, 
# crystal, experimental, refinement or atomic coordinate data resulting 
# from the CCDC's data processing and validation procedures.
#
#######################################################################

data_LABZOG
_chemical_formula_moiety         '(C38 H22 N4 O12 Zn3)n'
_symmetry_cell_setting           tetragonal
_symmetry_space_group_name_H-M   'P 43 21 2'
_symmetry_Int_Tables_number      96
_space_group_name_Hall           'P 4nw 2abw'
loop_
_symmetry_equiv_pos_site_id
_symmetry_equiv_pos_as_xyz
1 x,y,z
2 1/2-y,1/2+x,3/4+z
3 -x,-y,1/2+z
4 1/2+y,1/2-x,1/4+z
5 1/2+x,1/2-y,1/4-z
6 y,x,-z
7 1/2-x,1/2+y,3/4-z
8 -y,-x,1/2-z
_cell_length_a                   15.160(2)
_cell_length_b                   15.160(2)
_cell_length_c                   23.030(5)
_cell_angle_alpha                90
_cell_angle_beta                 90
_cell_angle_gamma                90
_cell_volume                     5292.88
loop_
_atom_site_label
_atom_site_type_symbol
_atom_site_fract_x
_atom_site_fract_y
_atom_site_fract_z
Zn1 Zn 0.21492(4) 0.21492(4) 0.0000
Zn2 Zn 0.16181(4) 0.25464(4) 0.14319(2)
C1 C 0.1921(4) 0.3948(3) 0.0557(2)
C2 C 0.1870(6) 0.4930(4) 0.0421(3)
C3 C 0.1559(11) 0.5538(5) 0.0821(4)
H1 H 0.1380 0.5348 0.1186
C4 C 0.1514(12) 0.6407(5) 0.0685(3)
H2 H 0.1289 0.6811 0.0950
C5 C 0.1812(8) 0.6684(4) 0.0142(3)
C6 C 0.2130(4) 0.5253(4) -0.0110(2)
H3 H 0.2326 0.4855 -0.0389
C7 C 0.1831(8) 0.7608(4) -0.0033(3)
C8 C 0.1558(12) 0.8282(5) 0.0352(4)
H4 H 0.1315 0.8148 0.0712
C9 C 0.1668(10) 0.9162(4) 0.0171(3)
H5 H 0.1540 0.9625 0.0422
C10 C 0.1970(5) 0.9331(3) -0.0390(3)
C11 C 0.2162(5) 0.8618(3) -0.0739(2)
H6 H 0.2336 0.8727 -0.1119
C12 C 0.2098(4) 1.0276(3) -0.0592(2)
C13 C 0.2445(5) 0.1100(5) 0.1205(3)
C14 C 0.3064(6) 0.0352(5) 0.1091(4)
C15 C 0.3684(7) 0.0426(5) 0.0649(4)
H7 H 0.3725 0.0946 0.0436
C16 C 0.4243(7) -0.0276(7) 0.0526(4)
H8 H 0.4658 -0.0226 0.0230
C17 C 0.4183(9) -0.1052(6) 0.0845(5)
H9 H 0.4557 -0.1522 0.0763
C18 C 0.3563(9) -0.1126(5) 0.1287(6)
H10 H 0.3522 -0.1645 0.1500
C19 C 0.3004(7) -0.0424(6) 0.1410(5)
H11 H 0.2589 -0.0473 0.1706
N1 N 0.2116(4) 0.6104(3) -0.02450(18)
N2 N 0.2111(4) 0.7776(3) -0.0562(2)
O1 O 0.2218(3) 0.3475(2) 0.01774(18)
O2 O 0.1645(3) 0.3735(3) 0.10557(18)
O3 O 0.2085(4) 1.0828(3) -0.0200(2)
O4 O 0.2213(3) 1.0397(2) -0.11150(17)
O5 O 0.2448(3) 0.1789(3) 0.08816(17)
O6 O 0.1941(5) 0.1090(5) 0.1637(3)
Zn2E Zn 0.25464(4) 0.16181(4) -0.14319(2)
C1E C 0.3948(3) 0.1921(4) -0.0557(2)
C2E C 0.4930(4) 0.1870(6) -0.0421(3)
C3E C 0.5538(5) 0.1559(11) -0.0821(4)
H1E H 0.5348 0.1380 -0.1186
C4E C 0.6407(5) 0.1514(12) -0.0685(3)
H2E H 0.6811 0.1289 -0.0950
C5E C 0.6684(4) 0.1812(8) -0.0142(3)
C6E C 0.5253(4) 0.2130(4) 0.0110(2)
H3E H 0.4855 0.2326 0.0389
C7E C 0.7608(4) 0.1831(8) 0.0033(3)
C8E C 0.8282(5) 0.1558(12) -0.0352(4)
H4E H 0.8148 0.1315 -0.0712
C9E C 0.9162(4) 0.1668(10) -0.0171(3)
H5E H 0.9625 0.1540 -0.0422
C10E C 0.9331(3) 0.1970(5) 0.0390(3)
C11E C 0.8618(3) 0.2162(5) 0.0739(2)
H6E H 0.8727 0.2336 0.1119
C12E C 1.0276(3) 0.2098(4) 0.0592(2)
C13E C 0.1100(5) 0.2445(5) -0.1205(3)
C14E C 0.0352(5) 0.3064(6) -0.1091(4)
C15E C 0.0426(5) 0.3684(7) -0.0649(4)
H7E H 0.0946 0.3725 -0.0436
C16E C -0.0276(7) 0.4243(7) -0.0526(4)
H8E H -0.0226 0.4658 -0.0230
C17E C -0.1052(6) 0.4183(9) -0.0845(5)
H9E H -0.1522 0.4557 -0.0763
C18E C -0.1126(5) 0.3563(9) -0.1287(6)
H10E H -0.1645 0.3522 -0.1500
C19E C -0.0424(6) 0.3004(7) -0.1410(5)
H11E H -0.0473 0.2589 -0.1706
N1E N 0.6104(3) 0.2116(4) 0.02450(18)
N2E N 0.7776(3) 0.2111(4) 0.0562(2)
O1E O 0.3475(2) 0.2218(3) -0.01774(18)
O2E O 0.3735(3) 0.1645(3) -0.10557(18)
O3E O 1.0828(3) 0.2085(4) 0.0200(2)
O4E O 1.0397(2) 0.2213(3) 0.11150(17)
O5E O 0.1789(3) 0.2448(3) -0.08816(17)
O6E O 0.1090(5) 0.1941(5) -0.1637(3)
Zn1_2 Zn 0.21492(4) 1.21492(4) 0.0000
Zn1_3 Zn 1.21492(4) 0.21492(4) 0.0000
Zn2_2 Zn 1.16181(4) 0.25464(4) 0.14319(2)
Zn2A Zn 0.24536(4) 0.66181(4) -0.10681(2)
Zn2D Zn 0.66181(4) 0.24536(4) 0.10681(2)
Zn2E_2 Zn 0.25464(4) 1.16181(4) -0.14319(2)
N1C N 0.1104(3) 0.2884(4) 0.22550(18)
N1F N 0.2884(4) 0.1104(3) -0.22550(18)
N2C N 0.2776(3) 0.2889(4) 0.1938(2)
N2F N 0.2889(4) 0.2776(3) -0.1938(2)
O3_2 O 0.2085(4) 0.0828(3) -0.0200(2)
O3E_2 O 0.0828(3) 0.2085(4) 0.0200(2)
O4_2 O 0.2213(3) 0.0397(2) -0.11150(17)
O4E_2 O 0.0397(2) 0.2213(3) 0.11150(17)
loop_
_geom_bond_atom_site_label_1
_geom_bond_atom_site_label_2
_geom_bond_site_symmetry_1
_geom_bond_site_symmetry_2
Zn1 O1 1_555 1_555
Zn2 O2 1_555 1_555
C1 C2 1_555 1_555
C2 C3 1_555 1_555
C3 H1 1_555 1_555
C4 C3 1_555 1_555
H2 C4 1_555 1_555
C5 C4 1_555 1_555
C6 C2 1_555 1_555
H3 C6 1_555 1_555
C7 C5 1_555 1_555
C8 C7 1_555 1_555
H4 C8 1_555 1_555
C9 C8 1_555 1_555
H5 C9 1_555 1_555
C10 C9 1_555 1_555
C11 C10 1_555 1_555
H6 C11 1_555 1_555
C12 C10 1_555 1_555
C13 C14 1_555 1_555
C14 C15 1_555 1_555
C15 H7 1_555 1_555
C16 C15 1_555 1_555
H8 C16 1_555 1_555
C17 C16 1_555 1_555
H9 C17 1_555 1_555
C18 C17 1_555 1_555
H10 C18 1_555 1_555
C19 C14 1_555 1_555
H11 C19 1_555 1_555
N1 C5 1_555 1_555
N2 C7 1_555 1_555
O1 C1 1_555 1_555
O2 C1 1_555 1_555
O3 C12 1_555 1_555
O4 C12 1_555 1_555
O5 Zn1 1_555 1_555
O6 Zn2 1_555 1_555
Zn2E O2E 1_555 1_555
C1E C2E 1_555 1_555
C2E C3E 1_555 1_555
C3E H1E 1_555 1_555
C4E C3E 1_555 1_555
H2E C4E 1_555 1_555
C5E C4E 1_555 1_555
C6E C2E 1_555 1_555
H3E C6E 1_555 1_555
C7E C5E 1_555 1_555
C8E C7E 1_555 1_555
H4E C8E 1_555 1_555
C9E C8E 1_555 1_555
H5E C9E 1_555 1_555
C10E C9E 1_555 1_555
C11E C10E 1_555 1_555
H6E C11E 1_555 1_555
C12E C10E 1_555 1_555
C13E C14E 1_555 1_555
C14E C15E 1_555 1_555
C15E H7E 1_555 1_555
C16E C15E 1_555 1_555
H8E C16E 1_555 1_555
C17E C16E 1_555 1_555
H9E C17E 1_555 1_555
C18E C17E 1_555 1_555
H10E C18E 1_555 1_555
C19E C14E 1_555 1_555
H11E C19E 1_555 1_555
N1E C5E 1_555 1_555
N2E C7E 1_555 1_555
O1E Zn1 1_555 1_555
O2E C1E 1_555 1_555
O3E C12E 1_555 1_555
O4E C12E 1_555 1_555
O5E Zn1 1_555 1_555
O6E Zn2E 1_555 1_555
Zn1_2 O3 1_555 1_555
Zn1_3 O3E 1_555 1_555
Zn2_2 O4E 1_555 1_555
Zn2A N1 1_555 1_555
Zn2D N1E 1_555 1_555
Zn2E_2 O4 1_555 1_555
N1C Zn2 1_555 1_555
N1F Zn2E 1_555 1_555
N2C Zn2 1_555 1_555
N2F Zn2E 1_555 1_555
O3_2 Zn1 1_555 1_555
O3E_2 Zn1 1_555 1_555
O4_2 Zn2E 1_555 1_555
O4E_2 Zn2 1_555 1_555
Zn2 O5 1_555 1_555
C6 N1 1_555 1_555
C11 N2 1_555 1_555
C13 O5 1_555 1_555
C13 O6 1_555 1_555
C18 C19 1_555 1_555
N2 Zn2A 1_555 1_555
Zn2E O5E 1_555 1_555
C1E O1E 1_555 1_555
C6E N1E 1_555 1_555
C11E N2E 1_555 1_555
C13E O5E 1_555 1_555
C13E O6E 1_555 1_555
C18E C19E 1_555 1_555
N2E Zn2D 1_555 1_555

#END
