
#######################################################################
#
#                 Cambridge Crystallographic Data Centre
#                                CCDC 
#
#######################################################################
#
# If this CIF has been generated from an entry in the Cambridge 
# Structural Database, then it will include bibliographic, chemical, 
# crystal, experimental, refinement or atomic coordinate data resulting 
# from the CCDC's data processing and validation procedures.
#
#######################################################################

data_LABZIA
_chemical_formula_moiety         '(C28 H18 N4 O12 Zn3)n'
_symmetry_cell_setting           tetragonal
_symmetry_space_group_name_H-M   'P 43 21 2'
_symmetry_Int_Tables_number      96
_space_group_name_Hall           'P 4nw 2abw'
loop_
_symmetry_equiv_pos_site_id
_symmetry_equiv_pos_as_xyz
1 x,y,z
2 1/2-y,1/2+x,3/4+z
3 -x,-y,1/2+z
4 1/2+y,1/2-x,1/4+z
5 1/2+x,1/2-y,1/4-z
6 y,x,-z
7 1/2-x,1/2+y,3/4-z
8 -y,-x,1/2-z
_cell_length_a                   15.300(2)
_cell_length_b                   15.300(2)
_cell_length_c                   23.280(5)
_cell_angle_alpha                90
_cell_angle_beta                 90
_cell_angle_gamma                90
_cell_volume                     5449.62
loop_
_atom_site_label
_atom_site_type_symbol
_atom_site_fract_x
_atom_site_fract_y
_atom_site_fract_z
Zn1 Zn -0.21615(2) 0.21615(2) 0.2500
Zn2 Zn -0.16393(2) 0.26297(2) 0.11049(2)
C1 C -0.0281(2) 0.2124(2) 0.19213(14)
C2 C 0.0662(2) 0.1985(3) 0.21071(16)
C3 C 0.0848(3) 0.1715(5) 0.2660(2)
H1 H 0.0395 0.1595 0.2915
C4 C 0.1695(3) 0.1622(6) 0.2833(2)
H2 H 0.1827 0.1417 0.3199
C5 C 0.2358(2) 0.1841(4) 0.24498(16)
C6 C 0.1359(2) 0.2144(2) 0.17440(14)
H3 H 0.1241 0.2292 0.1364
C7 C 0.3296(2) 0.1851(4) 0.26177(15)
C8 C 0.3564(3) 0.1649(7) 0.3179(2)
H4 H 0.3160 0.1496 0.3460
C9 C 0.4452(3) 0.1686(6) 0.33000(18)
H5 H 0.4647 0.1556 0.3668
C10 C 0.5040(2) 0.1909(3) 0.28853(16)
C11 C 0.4725(2) 0.2106(2) 0.23382(14)
H6 H 0.5123 0.2256 0.2053
C12 C 0.6013(2) 0.1925(2) 0.30098(14)
C13 C -0.2486(4) 0.1162(3) 0.1365(2)
C14 C -0.3166(13) 0.0541(11) 0.1568(8)
H7 H -0.3303 0.0662 0.1962
H8 H -0.2951 -0.0047 0.1534
H9 H -0.3683 0.0606 0.1338
N1 N 0.21907(17) 0.2093(2) 0.19107(11)
N2 N 0.38736(17) 0.2088(2) 0.22053(11)
O1 O -0.08256(15) 0.2101(2) 0.23234(11)
O2 O -0.04266(14) 0.22621(19) 0.14033(10)
O3 O 0.65018(15) 0.2185(2) 0.26212(11)
O4 O 0.62137(16) 0.1684(2) 0.35041(11)
O5 O -0.23716(16) 0.18683(16) 0.16308(10)
O6 O -0.2138(4) 0.1023(3) 0.09026(19)
Zn2G Zn -0.26297(2) 0.16393(2) 0.38951(2)
C1G C -0.2124(2) 0.0281(2) 0.30787(14)
C2G C -0.1985(3) -0.0662(2) 0.28929(16)
C3G C -0.1715(5) -0.0848(3) 0.2340(2)
H1G H -0.1595 -0.0395 0.2085
C4G C -0.1622(6) -0.1695(3) 0.2167(2)
H2G H -0.1417 -0.1827 0.1801
C5G C -0.1841(4) -0.2358(2) 0.25502(16)
C6G C -0.2144(2) -0.1359(2) 0.32560(14)
H3G H -0.2292 -0.1241 0.3636
C7G C -0.1851(4) -0.3296(2) 0.23823(15)
C8G C -0.1649(7) -0.3564(3) 0.1821(2)
H4G H -0.1496 -0.3160 0.1540
C9G C -0.1686(6) -0.4452(3) 0.17000(18)
H5G H -0.1556 -0.4647 0.1332
C10G C -0.1909(3) -0.5040(2) 0.21147(16)
C11G C -0.2106(2) -0.4725(2) 0.26618(14)
H6G H -0.2256 -0.5123 0.2947
C12G C -0.1925(2) -0.6013(2) 0.19902(14)
C13G C -0.1162(3) 0.2486(4) 0.3635(2)
C14G C -0.0541(11) 0.3166(13) 0.3432(8)
H7G H -0.0662 0.3303 0.3038
H8G H 0.0047 0.2951 0.3466
H9G H -0.0606 0.3683 0.3662
N1G N -0.2093(2) -0.21907(17) 0.30893(11)
N2G N -0.2088(2) -0.38736(17) 0.27947(11)
O1G O -0.2101(2) 0.08256(15) 0.26766(11)
O2G O -0.22621(19) 0.04266(14) 0.35967(10)
O3G O -0.2185(2) -0.65018(15) 0.23788(11)
O4G O -0.1684(2) -0.62137(16) 0.14959(11)
O5G O -0.18683(16) 0.23716(16) 0.33692(10)
O6G O -0.1023(3) 0.2138(4) 0.40974(19)
Zn1_2 Zn -0.21615(2) -0.78385(2) 0.2500
Zn1_3 Zn 0.78385(2) 0.21615(2) 0.2500
Zn2_2 Zn -0.16393(2) -0.73703(2) 0.11049(2)
Zn2C Zn -0.23703(2) -0.33607(2) 0.36049(2)
Zn2D Zn 0.33607(2) 0.23703(2) 0.13951(2)
Zn2G_2 Zn 0.73703(2) 0.16393(2) 0.38951(2)
N1C N -0.2907(2) 0.28093(17) 0.44107(11)
N1D N -0.28093(17) 0.2907(2) 0.05893(11)
N2C N -0.2912(2) 0.11264(17) 0.47053(11)
N2D N -0.11264(17) 0.2912(2) 0.02947(11)
O3_2 O -0.34982(15) 0.2185(2) 0.26212(11)
O3G_2 O -0.2185(2) 0.34982(15) 0.23788(11)
O4_2 O -0.37863(16) 0.1684(2) 0.35041(11)
O4G_2 O -0.1684(2) 0.37863(16) 0.14959(11)
loop_
_geom_bond_atom_site_label_1
_geom_bond_atom_site_label_2
_geom_bond_site_symmetry_1
_geom_bond_site_symmetry_2
Zn1 O1 1_555 1_555
Zn2 O2 1_555 1_555
C1 C2 1_555 1_555
C2 C3 1_555 1_555
C3 H1 1_555 1_555
C4 C3 1_555 1_555
H2 C4 1_555 1_555
C5 C4 1_555 1_555
C6 C2 1_555 1_555
H3 C6 1_555 1_555
C7 C5 1_555 1_555
C8 C7 1_555 1_555
H4 C8 1_555 1_555
C9 C8 1_555 1_555
H5 C9 1_555 1_555
C10 C9 1_555 1_555
C11 C10 1_555 1_555
H6 C11 1_555 1_555
C12 C10 1_555 1_555
C13 C14 1_555 1_555
C14 H7 1_555 1_555
H8 C14 1_555 1_555
H9 C14 1_555 1_555
N1 C5 1_555 1_555
N2 C7 1_555 1_555
O1 C1 1_555 1_555
O2 C1 1_555 1_555
O3 C12 1_555 1_555
O4 C12 1_555 1_555
O5 Zn1 1_555 1_555
O6 C13 1_555 1_555
Zn2G O2G 1_555 1_555
C1G C2G 1_555 1_555
C2G C3G 1_555 1_555
C3G H1G 1_555 1_555
C4G C3G 1_555 1_555
H2G C4G 1_555 1_555
C5G C4G 1_555 1_555
C6G C2G 1_555 1_555
H3G C6G 1_555 1_555
C7G C5G 1_555 1_555
C8G C7G 1_555 1_555
H4G C8G 1_555 1_555
C9G C8G 1_555 1_555
H5G C9G 1_555 1_555
C10G C9G 1_555 1_555
C11G C10G 1_555 1_555
H6G C11G 1_555 1_555
C12G C10G 1_555 1_555
C13G C14G 1_555 1_555
C14G H7G 1_555 1_555
H8G C14G 1_555 1_555
H9G C14G 1_555 1_555
N1G C5G 1_555 1_555
N2G C7G 1_555 1_555
O1G Zn1 1_555 1_555
O2G C1G 1_555 1_555
O3G C12G 1_555 1_555
O4G C12G 1_555 1_555
O5G Zn1 1_555 1_555
O6G C13G 1_555 1_555
Zn1_2 O3G 1_555 1_555
Zn1_3 O3 1_555 1_555
Zn2_2 O4G 1_555 1_555
Zn2C N1G 1_555 1_555
Zn2D N1 1_555 1_555
Zn2G_2 O4 1_555 1_555
N1C Zn2G 1_555 1_555
N1D Zn2 1_555 1_555
N2C Zn2G 1_555 1_555
N2D Zn2 1_555 1_555
O3_2 Zn1 1_555 1_555
O3G_2 Zn1 1_555 1_555
O4_2 Zn2G 1_555 1_555
O4G_2 Zn2 1_555 1_555
Zn2 O5 1_555 1_555
C6 N1 1_555 1_555
C11 N2 1_555 1_555
C13 O5 1_555 1_555
N2 Zn2D 1_555 1_555
Zn2G O5G 1_555 1_555
C1G O1G 1_555 1_555
C6G N1G 1_555 1_555
C11G N2G 1_555 1_555
C13G O5G 1_555 1_555
N2G Zn2C 1_555 1_555

#END
