
#######################################################################
#
#                 Cambridge Crystallographic Data Centre
#                                CCDC 
#
#######################################################################
#
# If this CIF has been generated from an entry in the Cambridge 
# Structural Database, then it will include bibliographic, chemical, 
# crystal, experimental, refinement or atomic coordinate data resulting 
# from the CCDC's data processing and validation procedures.
#
#######################################################################

data_LABZUM
_chemical_formula_moiety         '(C42 H26 N4 O12 Zn3)n'
_symmetry_cell_setting           tetragonal
_symmetry_space_group_name_H-M   'P 43 21 2'
_symmetry_Int_Tables_number      96
_space_group_name_Hall           'P 4nw 2abw'
loop_
_symmetry_equiv_pos_site_id
_symmetry_equiv_pos_as_xyz
1 x,y,z
2 1/2-y,1/2+x,3/4+z
3 -x,-y,1/2+z
4 1/2+y,1/2-x,1/4+z
5 1/2+x,1/2-y,1/4-z
6 y,x,-z
7 1/2-x,1/2+y,3/4-z
8 -y,-x,1/2-z
_cell_length_a                   15.270(2)
_cell_length_b                   15.270(2)
_cell_length_c                   23.050(5)
_cell_angle_alpha                90
_cell_angle_beta                 90
_cell_angle_gamma                90
_cell_volume                     5374.64
loop_
_atom_site_label
_atom_site_type_symbol
_atom_site_fract_x
_atom_site_fract_y
_atom_site_fract_z
Zn1 Zn 0.78577(3) 1.21423(3) 0.2500
Zn2 Zn 0.83875(3) 1.25780(3) 0.10834(2)
C1 C 0.9735(3) 1.2121(3) 0.19254(18)
C2 C 1.0681(3) 1.2018(4) 0.2122(2)
C3 C 1.0862(3) 1.1728(7) 0.2676(3)
H1 H 1.0407 1.1585 0.2927
C4 C 1.1711(4) 1.1651(7) 0.2855(3)
H2 H 1.1836 1.1453 0.3228
C5 C 1.2382(3) 1.1867(5) 0.2481(2)
C6 C 1.1389(3) 1.2209(3) 0.17602(18)
H3 H 1.1277 1.2387 0.1381
C7 C 1.3319(3) 1.1862(6) 0.2649(2)
C8 C 1.3596(4) 1.1586(10) 0.3193(3)
H4 H 1.3196 1.1376 0.3463
C9 C 1.4468(4) 1.1630(8) 0.3323(3)
H5 H 1.4658 1.1482 0.3694
C10 C 1.5067(3) 1.1891(4) 0.2914(2)
C11 C 1.4743(3) 1.2114(3) 0.23722(17)
H6 H 1.5140 1.2282 0.2087
C12 C 1.6035(3) 1.1923(3) 0.30428(19)
C13 C 0.7575(5) 1.1123(4) 0.1332(3)
C14 C 0.7017(11) 1.0403(8) 0.1464(6)
H7 H 0.7228 0.9898 0.1286
C15 C 0.6380(12) 1.0243(14) 0.1723(11)
H8 H 0.6108 1.0707 0.1911
C16 C 0.5945(11) 0.9331(13) 0.1783(9)
C17 C 0.5332(13) 0.9558(9) 0.2203(8)
H9 H 0.5345 1.0112 0.2370
C18 C 0.4701(11) 0.8956(13) 0.2375(6)
H10 H 0.4291 0.9107 0.2656
C19 C 0.4681(12) 0.8126(11) 0.2126(9)
H11 H 0.4258 0.7724 0.2241
C20 C 0.5293(16) 0.7899(10) 0.1706(9)
H12 H 0.5280 0.7345 0.1540
C21 C 0.5925(13) 0.8501(15) 0.1535(8)
H13 H 0.6335 0.8350 0.1253
N1 N 1.2214(2) 1.2145(3) 0.19362(15)
N2 N 1.3898(2) 1.2102(3) 0.22379(14)
O1 O 0.9183(2) 1.2085(3) 0.23152(14)
O2 O 0.9602(2) 1.2267(3) 0.13985(14)
O3 O 1.6238(2) 1.1672(3) 0.35393(14)
O4 O 1.6520(2) 1.2183(3) 0.26505(14)
O5 O 0.7600(2) 1.1832(2) 0.16234(12)
O6 O 0.8030(5) 1.1048(5) 0.0895(2)
Zn2G Zn 0.74220(3) 1.16125(3) 0.39166(2)
C1G C 0.7879(3) 1.0265(3) 0.30746(18)
C2G C 0.7982(4) 0.9319(3) 0.2878(2)
C3G C 0.8272(7) 0.9138(3) 0.2324(3)
H1G H 0.8415 0.9593 0.2073
C4G C 0.8349(7) 0.8289(4) 0.2145(3)
H2G H 0.8547 0.8164 0.1772
C5G C 0.8133(5) 0.7618(3) 0.2519(2)
C6G C 0.7791(3) 0.8611(3) 0.32398(18)
H3G H 0.7613 0.8723 0.3619
C7G C 0.8138(6) 0.6681(3) 0.2351(2)
C8G C 0.8414(10) 0.6404(4) 0.1807(3)
H4G H 0.8624 0.6804 0.1537
C9G C 0.8370(8) 0.5532(4) 0.1677(3)
H5G H 0.8518 0.5342 0.1306
C10G C 0.8109(4) 0.4933(3) 0.2086(2)
C11G C 0.7886(3) 0.5257(3) 0.26278(17)
H6G H 0.7718 0.4860 0.2913
C12G C 0.8077(3) 0.3965(3) 0.19572(19)
C13G C 0.8877(4) 1.2425(5) 0.3668(3)
C14G C 0.9597(8) 1.2983(11) 0.3536(6)
H7G H 1.0102 1.2772 0.3714
C15G C 0.9757(14) 1.3620(12) 0.3277(11)
H8G H 0.9293 1.3892 0.3089
C16G C 1.0669(13) 1.4055(11) 0.3217(9)
C17G C 1.0442(9) 1.4668(13) 0.2797(8)
H9G H 0.9888 1.4655 0.2630
C18G C 1.1044(13) 1.5299(11) 0.2625(6)
H10G H 1.0893 1.5709 0.2344
C19G C 1.1874(11) 1.5319(12) 0.2874(9)
H11G H 1.2276 1.5742 0.2759
C20G C 1.2101(10) 1.4707(16) 0.3294(9)
H12G H 1.2655 1.4720 0.3460
C21G C 1.1499(15) 1.4075(13) 0.3465(8)
H13G H 1.1650 1.3665 0.3747
N1G N 0.7855(3) 0.7786(2) 0.30638(15)
N2G N 0.7898(3) 0.6102(2) 0.27621(14)
O1G O 0.7915(3) 1.0817(2) 0.26848(14)
O2G O 0.7733(3) 1.0398(2) 0.36015(14)
O3G O 0.8328(3) 0.3762(2) 0.14607(14)
O4G O 0.7817(3) 0.3480(2) 0.23495(14)
O5G O 0.8168(2) 1.2400(2) 0.33766(12)
O6G O 0.8952(5) 1.1970(5) 0.4105(2)
Zn1_2 Zn 0.78577(3) 0.21423(3) 0.2500
Zn1_3 Zn 1.78577(3) 1.21423(3) 0.2500
Zn2_2 Zn 0.83875(3) 0.25780(3) 0.10834(2)
Zn2C Zn 0.75780(3) 0.66125(3) 0.35834(2)
Zn2D Zn 1.33875(3) 1.24220(3) 0.14166(2)
Zn2G_2 Zn 1.74220(3) 1.16125(3) 0.39166(2)
N1C N 0.7145(3) 1.2786(2) 0.44362(15)
N1D N 0.7214(2) 1.2855(3) 0.05638(15)
N2C N 0.7102(3) 1.1102(2) 0.47379(14)
N2D N 0.8898(2) 1.2898(3) 0.02621(14)
O3_2 O 0.6238(2) 1.1672(3) 0.35393(14)
O3G_2 O 0.8328(3) 1.3762(2) 0.14607(14)
O4_2 O 0.6520(2) 1.2183(3) 0.26505(14)
O4G_2 O 0.7817(3) 1.3480(2) 0.23495(14)
loop_
_geom_bond_atom_site_label_1
_geom_bond_atom_site_label_2
_geom_bond_site_symmetry_1
_geom_bond_site_symmetry_2
Zn1 O1 1_555 1_555
Zn2 O2 1_555 1_555
C1 C2 1_555 1_555
C2 C3 1_555 1_555
C3 H1 1_555 1_555
C4 C3 1_555 1_555
H2 C4 1_555 1_555
C5 C4 1_555 1_555
C6 C2 1_555 1_555
H3 C6 1_555 1_555
C7 C5 1_555 1_555
C8 C7 1_555 1_555
H4 C8 1_555 1_555
C9 C8 1_555 1_555
H5 C9 1_555 1_555
C10 C9 1_555 1_555
C11 C10 1_555 1_555
H6 C11 1_555 1_555
C12 C10 1_555 1_555
C13 C14 1_555 1_555
C14 H7 1_555 1_555
C15 C14 1_555 1_555
H8 C15 1_555 1_555
C16 C15 1_555 1_555
C17 C16 1_555 1_555
H9 C17 1_555 1_555
C18 C17 1_555 1_555
H10 C18 1_555 1_555
C19 C18 1_555 1_555
H11 C19 1_555 1_555
C20 C19 1_555 1_555
H12 C20 1_555 1_555
C21 C16 1_555 1_555
H13 C21 1_555 1_555
N1 C5 1_555 1_555
N2 C7 1_555 1_555
O1 C1 1_555 1_555
O2 C1 1_555 1_555
O3 C12 1_555 1_555
O4 C12 1_555 1_555
O5 Zn1 1_555 1_555
O6 Zn2 1_555 1_555
Zn2G O2G 1_555 1_555
C1G C2G 1_555 1_555
C2G C3G 1_555 1_555
C3G H1G 1_555 1_555
C4G C3G 1_555 1_555
H2G C4G 1_555 1_555
C5G C4G 1_555 1_555
C6G C2G 1_555 1_555
H3G C6G 1_555 1_555
C7G C5G 1_555 1_555
C8G C7G 1_555 1_555
H4G C8G 1_555 1_555
C9G C8G 1_555 1_555
H5G C9G 1_555 1_555
C10G C9G 1_555 1_555
C11G C10G 1_555 1_555
H6G C11G 1_555 1_555
C12G C10G 1_555 1_555
C13G C14G 1_555 1_555
C14G H7G 1_555 1_555
C15G C14G 1_555 1_555
H8G C15G 1_555 1_555
C16G C15G 1_555 1_555
C17G C16G 1_555 1_555
H9G C17G 1_555 1_555
C18G C17G 1_555 1_555
H10G C18G 1_555 1_555
C19G C18G 1_555 1_555
H11G C19G 1_555 1_555
C20G C19G 1_555 1_555
H12G C20G 1_555 1_555
C21G C16G 1_555 1_555
H13G C21G 1_555 1_555
N1G C5G 1_555 1_555
N2G C7G 1_555 1_555
O1G Zn1 1_555 1_555
O2G C1G 1_555 1_555
O3G C12G 1_555 1_555
O4G C12G 1_555 1_555
O5G Zn1 1_555 1_555
O6G Zn2G 1_555 1_555
Zn1_2 O4G 1_555 1_555
Zn1_3 O4 1_555 1_555
Zn2_2 O3G 1_555 1_555
Zn2C N1G 1_555 1_555
Zn2D N1 1_555 1_555
Zn2G_2 O3 1_555 1_555
N1C Zn2G 1_555 1_555
N1D Zn2 1_555 1_555
N2C Zn2G 1_555 1_555
N2D Zn2 1_555 1_555
O3_2 Zn2G 1_555 1_555
O3G_2 Zn2 1_555 1_555
O4_2 Zn1 1_555 1_555
O4G_2 Zn1 1_555 1_555
Zn2 O5 1_555 1_555
C6 N1 1_555 1_555
C11 N2 1_555 1_555
C13 O5 1_555 1_555
C13 O6 1_555 1_555
C20 C21 1_555 1_555
N2 Zn2D 1_555 1_555
Zn2G O5G 1_555 1_555
C1G O1G 1_555 1_555
C6G N1G 1_555 1_555
C11G N2G 1_555 1_555
C13G O5G 1_555 1_555
C13G O6G 1_555 1_555
C20G C21G 1_555 1_555
N2G Zn2C 1_555 1_555

#END
