
#######################################################################
#
#                 Cambridge Crystallographic Data Centre
#                                CCDC 
#
#######################################################################
#
# If this CIF has been generated from an entry in the Cambridge 
# Structural Database, then it will include bibliographic, chemical, 
# crystal, experimental, refinement or atomic coordinate data resulting 
# from the CCDC's data processing and validation procedures.
#
#######################################################################

data_LACJIL
_chemical_formula_moiety         '(C38 H22 N4 O12 Zn3)n'
_symmetry_cell_setting           tetragonal
_symmetry_space_group_name_H-M   'P 43 21 2'
_symmetry_Int_Tables_number      96
_space_group_name_Hall           'P 4nw 2abw'
loop_
_symmetry_equiv_pos_site_id
_symmetry_equiv_pos_as_xyz
1 x,y,z
2 -x,-y,1/2+z
3 1/2-y,1/2+x,3/4+z
4 1/2+y,1/2-x,1/4+z
5 1/2-x,1/2+y,3/4-z
6 1/2+x,1/2-y,1/4-z
7 y,x,-z
8 -y,-x,1/2-z
_cell_length_a                   15.0193
_cell_length_b                   15.0193
_cell_length_c                   21.9053
_cell_angle_alpha                90
_cell_angle_beta                 90
_cell_angle_gamma                90
_cell_volume                     4941.38
loop_
_atom_site_label
_atom_site_type_symbol
_atom_site_fract_x
_atom_site_fract_y
_atom_site_fract_z
_atom_site_U_iso_or_equiv
_atom_site_thermal_displace_type
C1 C 0.29453 0.03064 0.11376 0.0500 Uiso
C2 C 0.28844 -0.04409 0.14897 0.0500 Uiso
H1 H 0.24875 -0.04540 0.17967 0.0500 Uiso
C3 C 0.34180 -0.11670 0.13832 0.0500 Uiso
H2 H 0.33772 -0.16665 0.16190 0.0500 Uiso
C4 C 0.40114 -0.11476 0.09248 0.0500 Uiso
H3 H 0.43685 -0.16331 0.08535 0.0500 Uiso
C5 C 0.40722 -0.04003 0.05728 0.0500 Uiso
H4 H 0.44692 -0.03872 0.02657 0.0500 Uiso
C6 C 0.35386 0.03258 0.06792 0.0500 Uiso
H5 H 0.35785 0.08252 0.04434 0.0500 Uiso
Zn1 Zn 0.15590 0.24036 0.15000 0.0500 Uiso
N1 N 0.21746 0.59879 -0.02220 0.0500 Uiso
N2 N 0.21894 0.77061 -0.05533 0.0500 Uiso
O1 O 0.23261 0.17448 0.08960 0.0500 Uiso
O2 O 0.21481 0.33884 0.01726 0.0500 Uiso
O3 O 0.15869 0.35801 0.10611 0.0500 Uiso
O4 O 0.20134 1.07269 -0.02500 0.0500 Uiso
O5 O 0.20274 1.03463 -0.11757 0.0500 Uiso
O6 O 0.18398 0.10907 0.16809 0.0500 Uiso
C7 C 0.18794 0.38295 0.05751 0.0500 Uiso
C8 C 0.18887 0.48173 0.04421 0.0500 Uiso
C9 C 0.21955 0.51453 -0.00819 0.0500 Uiso
H6 H 0.24284 0.47481 -0.03494 0.0500 Uiso
C10 C 0.18225 0.65683 0.01567 0.0500 Uiso
C11 C 0.15107 0.62944 0.06842 0.0500 Uiso
H7 H 0.12753 0.67004 0.09446 0.0500 Uiso
C12 C 0.15489 0.54240 0.08251 0.0500 Uiso
H8 H 0.13434 0.52371 0.11843 0.0500 Uiso
C13 C 0.17617 0.75184 -0.00724 0.0500 Uiso
C14 C 0.13579 0.81662 0.02593 0.0500 Uiso
H9 H 0.10838 0.80241 0.06050 0.0500 Uiso
C15 C 0.21927 0.85400 -0.07456 0.0500 Uiso
H10 H 0.24715 0.86604 -0.10934 0.0500 Uiso
C16 C 0.18077 0.92296 -0.04556 0.0500 Uiso
C17 C 0.13762 0.90347 0.00576 0.0500 Uiso
H11 H 0.11004 0.94792 0.02646 0.0500 Uiso
C18 C 0.19629 1.01941 -0.06559 0.0500 Uiso
C19 C 0.23353 0.10854 0.12428 0.0500 Uiso
Zn2 Zn 0.20931 0.20931 0.00000 0.0500 Uiso
C1F C 0.03064 0.29453 -0.11376 0.0500 Uiso
C2F C -0.04409 0.28844 -0.14897 0.0500 Uiso
H1F H -0.04540 0.24875 -0.17967 0.0500 Uiso
C3F C -0.11670 0.34180 -0.13832 0.0500 Uiso
H2F H -0.16665 0.33772 -0.16190 0.0500 Uiso
C4F C -0.11476 0.40114 -0.09248 0.0500 Uiso
H3F H -0.16331 0.43685 -0.08535 0.0500 Uiso
C5F C -0.04003 0.40722 -0.05728 0.0500 Uiso
H4F H -0.03872 0.44692 -0.02657 0.0500 Uiso
C6F C 0.03258 0.35386 -0.06792 0.0500 Uiso
H5F H 0.08252 0.35785 -0.04434 0.0500 Uiso
Zn1F Zn 0.24036 0.15590 -0.15000 0.0500 Uiso
N1F N 0.59879 0.21746 0.02220 0.0500 Uiso
N2F N 0.77061 0.21894 0.05533 0.0500 Uiso
O1F O 0.17448 0.23261 -0.08960 0.0500 Uiso
O2F O 0.33884 0.21481 -0.01726 0.0500 Uiso
O3F O 0.35801 0.15869 -0.10611 0.0500 Uiso
O4F O 1.07269 0.20134 0.02500 0.0500 Uiso
O5F O 1.03463 0.20274 0.11757 0.0500 Uiso
O6F O 0.10907 0.18398 -0.16809 0.0500 Uiso
C7F C 0.38295 0.18794 -0.05751 0.0500 Uiso
C8F C 0.48173 0.18887 -0.04421 0.0500 Uiso
C9F C 0.51453 0.21955 0.00819 0.0500 Uiso
H6F H 0.47481 0.24284 0.03494 0.0500 Uiso
C10F C 0.65683 0.18225 -0.01567 0.0500 Uiso
C11F C 0.62944 0.15107 -0.06842 0.0500 Uiso
H7F H 0.67004 0.12753 -0.09446 0.0500 Uiso
C12F C 0.54240 0.15489 -0.08251 0.0500 Uiso
H8F H 0.52371 0.13434 -0.11843 0.0500 Uiso
C13F C 0.75184 0.17617 0.00724 0.0500 Uiso
C14F C 0.81662 0.13579 -0.02593 0.0500 Uiso
H9F H 0.80241 0.10838 -0.06050 0.0500 Uiso
C15F C 0.85400 0.21927 0.07456 0.0500 Uiso
H10F H 0.86604 0.24715 0.10934 0.0500 Uiso
C16F C 0.92296 0.18077 0.04556 0.0500 Uiso
C17F C 0.90347 0.13762 -0.00576 0.0500 Uiso
H11F H 0.94792 0.11004 -0.02646 0.0500 Uiso
C18F C 1.01941 0.19629 0.06559 0.0500 Uiso
C19F C 0.10854 0.23353 -0.12428 0.0500 Uiso
Zn1_2 Zn 1.15590 0.24036 0.15000 0.0500 Uiso
Zn1B Zn 0.25964 0.65590 -0.10000 0.0500 Uiso
Zn1E Zn 0.65590 0.25964 0.10000 0.0500 Uiso
Zn1F_2 Zn 0.24036 1.15590 -0.15000 0.0500 Uiso
N1C N 0.09879 0.28254 0.22780 0.0500 Uiso
N1D N 0.28254 0.09879 -0.22780 0.0500 Uiso
N2C N 0.27061 0.28106 0.19467 0.0500 Uiso
N2D N 0.28106 0.27061 -0.19467 0.0500 Uiso
O4_2 O 0.20134 0.07269 -0.02500 0.0500 Uiso
O4F_2 O 0.07269 0.20134 0.02500 0.0500 Uiso
O5_2 O 0.20274 0.03463 -0.11757 0.0500 Uiso
O5F_2 O 0.03463 0.20274 0.11757 0.0500 Uiso
Zn2_2 Zn 0.20931 1.20931 0.00000 0.0500 Uiso
Zn2_3 Zn 1.20931 0.20931 0.00000 0.0500 Uiso
loop_
_geom_bond_atom_site_label_1
_geom_bond_atom_site_label_2
_geom_bond_site_symmetry_1
_geom_bond_site_symmetry_2
C1 C2 1_555 1_555
C2 H1 1_555 1_555
C3 C2 1_555 1_555
H2 C3 1_555 1_555
C4 C3 1_555 1_555
H3 C4 1_555 1_555
C5 C4 1_555 1_555
H4 C5 1_555 1_555
C6 C1 1_555 1_555
H5 C6 1_555 1_555
Zn1 O1 1_555 1_555
N1 C9 1_555 1_555
N2 C13 1_555 1_555
O1 C19 1_555 1_555
O2 C7 1_555 1_555
O3 Zn1 1_555 1_555
O4 C18 1_555 1_555
O5 C18 1_555 1_555
O6 Zn1 1_555 1_555
C7 O3 1_555 1_555
C8 C7 1_555 1_555
C9 C8 1_555 1_555
H6 C9 1_555 1_555
C10 N1 1_555 1_555
C11 C10 1_555 1_555
H7 C11 1_555 1_555
C12 C8 1_555 1_555
H8 C12 1_555 1_555
C13 C10 1_555 1_555
C14 C13 1_555 1_555
H9 C14 1_555 1_555
C15 N2 1_555 1_555
H10 C15 1_555 1_555
C16 C15 1_555 1_555
C17 C14 1_555 1_555
H11 C17 1_555 1_555
C18 C16 1_555 1_555
C19 C1 1_555 1_555
Zn2 O1 1_555 1_555
C1F C2F 1_555 1_555
C2F H1F 1_555 1_555
C3F C2F 1_555 1_555
H2F C3F 1_555 1_555
C4F C3F 1_555 1_555
H3F C4F 1_555 1_555
C5F C4F 1_555 1_555
H4F C5F 1_555 1_555
C6F C1F 1_555 1_555
H5F C6F 1_555 1_555
Zn1F O1F 1_555 1_555
N1F C9F 1_555 1_555
N2F C13F 1_555 1_555
O1F Zn2 1_555 1_555
O2F Zn2 1_555 1_555
O3F Zn1F 1_555 1_555
O4F C18F 1_555 1_555
O5F C18F 1_555 1_555
O6F Zn1F 1_555 1_555
C7F O2F 1_555 1_555
C8F C7F 1_555 1_555
C9F C8F 1_555 1_555
H6F C9F 1_555 1_555
C10F N1F 1_555 1_555
C11F C10F 1_555 1_555
H7F C11F 1_555 1_555
C12F C8F 1_555 1_555
H8F C12F 1_555 1_555
C13F C10F 1_555 1_555
C14F C13F 1_555 1_555
H9F C14F 1_555 1_555
C15F N2F 1_555 1_555
H10F C15F 1_555 1_555
C16F C15F 1_555 1_555
C17F C14F 1_555 1_555
H11F C17F 1_555 1_555
C18F C16F 1_555 1_555
C19F C1F 1_555 1_555
Zn1_2 O5F 1_555 1_555
Zn1B N1 1_555 1_555
Zn1E N1F 1_555 1_555
Zn1F_2 O5 1_555 1_555
N1C Zn1 1_555 1_555
N1D Zn1F 1_555 1_555
N2C Zn1 1_555 1_555
N2D Zn1F 1_555 1_555
O4_2 Zn2 1_555 1_555
O4F_2 Zn2 1_555 1_555
O5_2 Zn1F 1_555 1_555
O5F_2 Zn1 1_555 1_555
Zn2_2 O4 1_555 1_555
Zn2_3 O4F 1_555 1_555
C5 C6 1_555 1_555
N2 Zn1B 1_555 1_555
O2 Zn2 1_555 1_555
O6 C19 1_555 1_555
C11 C12 1_555 1_555
C16 C17 1_555 1_555
C5F C6F 1_555 1_555
N2F Zn1E 1_555 1_555
O1F C19F 1_555 1_555
O3F C7F 1_555 1_555
O6F C19F 1_555 1_555
C11F C12F 1_555 1_555
C16F C17F 1_555 1_555

#END
