
#######################################################################
#
#                 Cambridge Crystallographic Data Centre
#                                CCDC 
#
#######################################################################
#
# If this CIF has been generated from an entry in the Cambridge 
# Structural Database, then it will include bibliographic, chemical, 
# crystal, experimental, refinement or atomic coordinate data resulting 
# from the CCDC's data processing and validation procedures.
#
#######################################################################

data_LACJOR
_chemical_formula_moiety         '(C84 H52 N8 O24 Zn6)n'
_symmetry_cell_setting           orthorhombic
_symmetry_space_group_name_H-M   'C 2 2 21'
_symmetry_Int_Tables_number      20
_space_group_name_Hall           'C 2c 2'
loop_
_symmetry_equiv_pos_site_id
_symmetry_equiv_pos_as_xyz
1 x,y,z
2 -x,-y,1/2+z
3 -x,y,1/2-z
4 x,-y,-z
5 1/2+x,1/2+y,z
6 1/2-x,1/2-y,1/2+z
7 1/2-x,1/2+y,1/2-z
8 1/2+x,1/2-y,-z
_cell_length_a                   17.3128
_cell_length_b                   24.5942
_cell_length_c                   22.1389
_cell_angle_alpha                90
_cell_angle_beta                 90
_cell_angle_gamma                90
_cell_volume                     9426.62
loop_
_atom_site_label
_atom_site_type_symbol
_atom_site_fract_x
_atom_site_fract_y
_atom_site_fract_z
_atom_site_U_iso_or_equiv
_atom_site_thermal_displace_type
H1 H 0.06127 0.43973 0.72092 0.0500 Uiso
H2 H 0.12274 0.52106 0.68825 0.0500 Uiso
H3 H 0.22944 0.42254 0.86197 0.0500 Uiso
H4 H 0.19666 0.58403 0.65453 0.0500 Uiso
H5 H 0.26153 0.66886 0.63812 0.0500 Uiso
H6 H 0.37845 0.65075 0.80879 0.0500 Uiso
C1 C 0.10960 0.36578 0.80289 0.0500 Uiso
C2 C 0.14557 0.41940 0.78943 0.0500 Uiso
C3 C 0.11428 0.45093 0.74290 0.0500 Uiso
C4 C 0.14892 0.49867 0.72485 0.0500 Uiso
C5 C 0.21272 0.51811 0.75677 0.0500 Uiso
C6 C 0.20733 0.44259 0.82290 0.0500 Uiso
C7 C 0.25162 0.56840 0.74130 0.0500 Uiso
C8 C 0.23598 0.59824 0.68893 0.0500 Uiso
C9 C 0.27313 0.64716 0.67971 0.0500 Uiso
C10 C 0.32558 0.66718 0.72241 0.0500 Uiso
C11 C 0.34016 0.63550 0.77438 0.0500 Uiso
C12 C 0.37097 0.71720 0.70818 0.0500 Uiso
N1 N 0.23763 0.49226 0.80715 0.0500 Uiso
N2 N 0.30519 0.58570 0.78149 0.0500 Uiso
O1 O 0.06799 0.34387 0.76229 0.0500 Uiso
O2 O 0.11620 0.34327 0.85415 0.0500 Uiso
O3 O 0.36103 0.73841 0.65637 0.0500 Uiso
O4 O 0.42213 0.73516 0.74505 0.0500 Uiso
Zn1 Zn 0.30422 0.54135 0.85720 0.0500 Uiso
Zn2 Zn 0.07482 0.28077 0.88471 0.0500 Uiso
Zn3 Zn 0.00000 0.28875 0.75000 0.0500 Uiso
H7 H 0.14253 0.61184 1.05699 0.0500 Uiso
H8 H 0.16954 0.66202 0.87350 0.0500 Uiso
H9 H 0.10138 0.74582 0.89723 0.0500 Uiso
H10 H -0.02547 0.82631 1.13740 0.0500 Uiso
H11 H 0.08514 0.82989 0.93286 0.0500 Uiso
H12 H 0.02381 0.91109 0.97168 0.0500 Uiso
C13 C 0.21963 0.58426 0.95335 0.0500 Uiso
C14 C 0.13793 0.64249 1.02323 0.0500 Uiso
C15 C 0.16751 0.63120 0.96545 0.0500 Uiso
C16 C 0.15160 0.66918 0.91966 0.0500 Uiso
C17 C 0.11508 0.71809 0.93315 0.0500 Uiso
C18 C 0.09714 0.73051 0.99308 0.0500 Uiso
C19 C -0.00255 0.82755 1.09214 0.0500 Uiso
C20 C 0.06218 0.78165 1.01250 0.0500 Uiso
C21 C 0.05991 0.82866 0.97717 0.0500 Uiso
C22 C 0.02403 0.87501 0.99935 0.0500 Uiso
C23 C -0.01538 0.87385 1.05450 0.0500 Uiso
C24 C -0.07461 0.91814 1.06764 0.0500 Uiso
N3 N 0.10473 0.69203 1.03630 0.0500 Uiso
N4 N 0.03849 0.78347 1.07071 0.0500 Uiso
O5 O 0.25032 0.55493 0.99526 0.0500 Uiso
O6 O 0.23774 0.57788 0.89823 0.0500 Uiso
O7 O -0.10379 0.92428 1.11998 0.0500 Uiso
O8 O -0.09913 0.94678 1.02301 0.0500 Uiso
Zn4 Zn 0.32899 0.50000 1.00000 0.0500 Uiso
H13 H 0.45456 0.29965 0.83273 0.0500 Uiso
H14 H 0.48006 0.20130 0.82919 0.0500 Uiso
H15 H 0.42381 0.14017 0.90640 0.0500 Uiso
H16 H 0.34076 0.17787 0.98734 0.0500 Uiso
H17 H 0.31585 0.27639 0.99270 0.0500 Uiso
H18 H 0.31273 0.36776 0.93818 0.0500 Uiso
H19 H 0.46575 0.38266 0.87341 0.0500 Uiso
C25 C 0.43083 0.27391 0.86760 0.0500 Uiso
C26 C 0.44483 0.21797 0.86505 0.0500 Uiso
C27 C 0.41290 0.18345 0.90846 0.0500 Uiso
C28 C 0.36613 0.20470 0.95410 0.0500 Uiso
C29 C 0.35201 0.26058 0.95684 0.0500 Uiso
C30 C 0.38504 0.29584 0.91409 0.0500 Uiso
C31 C 0.36482 0.35583 0.91600 0.0500 Uiso
C32 C 0.40996 0.39397 0.89147 0.0500 Uiso
C33 C 0.39037 0.45260 0.88108 0.0500 Uiso
O9 O 0.42563 0.47425 0.84004 0.0500 Uiso
O10 O 0.33195 0.48204 0.91099 0.0500 Uiso
H20 H -0.16387 0.31676 0.81638 0.0500 Uiso
H21 H -0.16144 0.39471 0.92296 0.0500 Uiso
H22 H -0.29725 0.31416 0.82349 0.0500 Uiso
H23 H -0.41582 0.35071 0.77739 0.0500 Uiso
H24 H -0.45178 0.44715 0.79319 0.0500 Uiso
H25 H -0.36264 0.50951 0.84560 0.0500 Uiso
H26 H -0.24342 0.47530 0.89016 0.0500 Uiso
C34 C -0.06271 0.32483 0.87518 0.0500 Uiso
C35 C -0.14286 0.33609 0.85701 0.0500 Uiso
C36 C -0.18646 0.37231 0.88615 0.0500 Uiso
C37 C -0.26212 0.39094 0.86281 0.0500 Uiso
C38 C -0.31062 0.35688 0.82880 0.0500 Uiso
C39 C -0.37773 0.37746 0.80227 0.0500 Uiso
C40 C -0.39745 0.43202 0.81006 0.0500 Uiso
C41 C -0.34787 0.46696 0.84085 0.0500 Uiso
C42 C -0.28043 0.44677 0.86705 0.0500 Uiso
O11 O -0.01495 0.29099 0.84078 0.0500 Uiso
O12 O -0.03812 0.34361 0.92223 0.0500 Uiso
H1B H -0.06127 0.43973 0.77908 0.0500 Uiso
H2B H -0.12274 0.52106 0.81175 0.0500 Uiso
H3B H -0.22944 0.42254 0.63803 0.0500 Uiso
H4B H -0.19666 0.58403 0.84547 0.0500 Uiso
H5B H -0.26153 0.66886 0.86188 0.0500 Uiso
H6B H -0.37845 0.65075 0.69121 0.0500 Uiso
C1B C -0.10960 0.36578 0.69711 0.0500 Uiso
C2B C -0.14557 0.41940 0.71057 0.0500 Uiso
C3B C -0.11428 0.45093 0.75710 0.0500 Uiso
C4B C -0.14892 0.49867 0.77515 0.0500 Uiso
C5B C -0.21272 0.51811 0.74323 0.0500 Uiso
C6B C -0.20733 0.44259 0.67710 0.0500 Uiso
C7B C -0.25162 0.56840 0.75870 0.0500 Uiso
C8B C -0.23598 0.59824 0.81107 0.0500 Uiso
C9B C -0.27313 0.64716 0.82029 0.0500 Uiso
C10B C -0.32558 0.66718 0.77759 0.0500 Uiso
C11B C -0.34016 0.63550 0.72562 0.0500 Uiso
C12B C -0.37097 0.71720 0.79182 0.0500 Uiso
N1B N -0.23763 0.49226 0.69285 0.0500 Uiso
N2B N -0.30519 0.58570 0.71851 0.0500 Uiso
O1B O -0.06799 0.34387 0.73771 0.0500 Uiso
O2B O -0.11620 0.34327 0.64585 0.0500 Uiso
O3B O -0.36103 0.73841 0.84363 0.0500 Uiso
O4B O -0.42213 0.73516 0.75495 0.0500 Uiso
Zn1B Zn -0.30422 0.54135 0.64280 0.0500 Uiso
Zn2B Zn -0.07482 0.28077 0.61529 0.0500 Uiso
H7B H -0.14253 0.61184 0.44301 0.0500 Uiso
H8B H -0.16954 0.66202 0.62650 0.0500 Uiso
H9B H -0.10138 0.74582 0.60277 0.0500 Uiso
H10B H 0.02547 0.82631 0.36260 0.0500 Uiso
H11B H -0.08514 0.82989 0.56714 0.0500 Uiso
H12B H -0.02381 0.91109 0.52832 0.0500 Uiso
C13B C -0.21963 0.58426 0.54665 0.0500 Uiso
C14B C -0.13793 0.64249 0.47677 0.0500 Uiso
C15B C -0.16751 0.63120 0.53455 0.0500 Uiso
C16B C -0.15160 0.66918 0.58034 0.0500 Uiso
C17B C -0.11508 0.71809 0.56685 0.0500 Uiso
C18B C -0.09714 0.73051 0.50692 0.0500 Uiso
C19B C 0.00255 0.82755 0.40786 0.0500 Uiso
C20B C -0.06218 0.78165 0.48750 0.0500 Uiso
C21B C -0.05991 0.82866 0.52283 0.0500 Uiso
C22B C -0.02403 0.87501 0.50065 0.0500 Uiso
C23B C 0.01538 0.87385 0.44550 0.0500 Uiso
C24B C 0.07461 0.91814 0.43236 0.0500 Uiso
N3B N -0.10473 0.69203 0.46370 0.0500 Uiso
N4B N -0.03849 0.78347 0.42929 0.0500 Uiso
O5B O -0.25032 0.55493 0.50474 0.0500 Uiso
O6B O -0.23774 0.57788 0.60177 0.0500 Uiso
O7B O 0.10379 0.92428 0.38002 0.0500 Uiso
O8B O 0.09913 0.94678 0.47699 0.0500 Uiso
H13B H -0.45456 0.29965 0.66727 0.0500 Uiso
H14B H -0.48006 0.20130 0.67081 0.0500 Uiso
H15B H -0.42381 0.14017 0.59360 0.0500 Uiso
H16B H -0.34076 0.17787 0.51266 0.0500 Uiso
H17B H -0.31585 0.27639 0.50730 0.0500 Uiso
H18B H -0.31273 0.36776 0.56182 0.0500 Uiso
H19B H -0.46575 0.38266 0.62659 0.0500 Uiso
C25B C -0.43083 0.27391 0.63240 0.0500 Uiso
C26B C -0.44483 0.21797 0.63495 0.0500 Uiso
C27B C -0.41290 0.18345 0.59154 0.0500 Uiso
C28B C -0.36613 0.20470 0.54590 0.0500 Uiso
C29B C -0.35201 0.26058 0.54316 0.0500 Uiso
C30B C -0.38504 0.29584 0.58591 0.0500 Uiso
C31B C -0.36482 0.35583 0.58400 0.0500 Uiso
C32B C -0.40996 0.39397 0.60853 0.0500 Uiso
C33B C -0.39037 0.45260 0.61892 0.0500 Uiso
O9B O -0.42563 0.47425 0.65996 0.0500 Uiso
O10B O -0.33195 0.48204 0.58901 0.0500 Uiso
H20B H 0.16387 0.31676 0.68362 0.0500 Uiso
H21B H 0.16144 0.39471 0.57704 0.0500 Uiso
H22B H 0.29725 0.31416 0.67651 0.0500 Uiso
H23B H 0.41582 0.35071 0.72261 0.0500 Uiso
H24B H 0.45178 0.44715 0.70681 0.0500 Uiso
H25B H 0.36264 0.50951 0.65440 0.0500 Uiso
H26B H 0.24342 0.47530 0.60984 0.0500 Uiso
C34B C 0.06271 0.32483 0.62482 0.0500 Uiso
C35B C 0.14286 0.33609 0.64299 0.0500 Uiso
C36B C 0.18646 0.37231 0.61385 0.0500 Uiso
C37B C 0.26212 0.39094 0.63719 0.0500 Uiso
C38B C 0.31062 0.35688 0.67120 0.0500 Uiso
C39B C 0.37773 0.37746 0.69773 0.0500 Uiso
C40B C 0.39745 0.43202 0.68994 0.0500 Uiso
C41B C 0.34787 0.46696 0.65915 0.0500 Uiso
C42B C 0.28043 0.44677 0.63295 0.0500 Uiso
O11B O 0.01495 0.29099 0.65922 0.0500 Uiso
O12B O 0.03812 0.34361 0.57777 0.0500 Uiso
O3D O -0.13897 0.23841 0.65637 0.0500 Uiso
O3F O 0.13897 0.23841 0.84363 0.0500 Uiso
O4D O -0.07787 0.23516 0.74505 0.0500 Uiso
O4F O 0.07787 0.23516 0.75495 0.0500 Uiso
Zn1E Zn 0.19578 0.95865 0.35720 0.0500 Uiso
Zn1G Zn -0.19578 0.95865 1.14280 0.0500 Uiso
Zn2A Zn -0.07482 0.71923 0.38471 0.0500 Uiso
Zn2C Zn 0.07482 0.71923 1.11529 0.0500 Uiso
Zn2D Zn -0.42518 0.78077 0.88471 0.0500 Uiso
Zn2F Zn 0.42518 0.78077 0.61529 0.0500 Uiso
Zn3D Zn -0.50000 0.78875 0.75000 0.0500 Uiso
Zn3D_2 Zn 0.50000 0.78875 0.75000 0.0500 Uiso
N3A N -0.10473 0.30797 0.53630 0.0500 Uiso
N3C N 0.10473 0.30797 0.96370 0.0500 Uiso
N4A N -0.03849 0.21653 0.57071 0.0500 Uiso
N4C N 0.03849 0.21653 0.92929 0.0500 Uiso
O5C O 0.25032 0.44507 1.00474 0.0500 Uiso
O7E O -0.39621 0.57572 0.61998 0.0500 Uiso
O7G O 0.39621 0.57572 0.88002 0.0500 Uiso
O8D O 0.40087 0.44678 1.02301 0.0500 Uiso
O8G O 0.40087 0.55322 0.97699 0.0500 Uiso
Zn4A Zn -0.32899 0.50000 0.50000 0.0500 Uiso
Zn4D Zn -0.17101 1.00000 1.00000 0.0500 Uiso
Zn4E Zn 0.17101 1.00000 0.50000 0.0500 Uiso
O10C O 0.33195 0.51796 1.08901 0.0500 Uiso
loop_
_geom_bond_atom_site_label_1
_geom_bond_atom_site_label_2
_geom_bond_site_symmetry_1
_geom_bond_site_symmetry_2
H1 C3 1_555 1_555
H2 C4 1_555 1_555
H3 C6 1_555 1_555
H4 C8 1_555 1_555
H5 C9 1_555 1_555
H6 C11 1_555 1_555
C1 C2 1_555 1_555
C2 C3 1_555 1_555
C3 C4 1_555 1_555
C4 C5 1_555 1_555
C5 C7 1_555 1_555
C6 C2 1_555 1_555
C7 C8 1_555 1_555
C8 C9 1_555 1_555
C9 C10 1_555 1_555
C10 C11 1_555 1_555
C11 N2 1_555 1_555
C12 C10 1_555 1_555
N1 C5 1_555 1_555
N2 C7 1_555 1_555
O1 C1 1_555 1_555
O2 C1 1_555 1_555
O3 C12 1_555 1_555
O4 C12 1_555 1_555
Zn1 N1 1_555 1_555
Zn2 O2 1_555 1_555
Zn3 O1 1_555 1_555
H7 C14 1_555 1_555
H8 C16 1_555 1_555
H9 C17 1_555 1_555
H10 C19 1_555 1_555
H11 C21 1_555 1_555
H12 C22 1_555 1_555
C13 C15 1_555 1_555
C14 C15 1_555 1_555
C15 C16 1_555 1_555
C16 C17 1_555 1_555
C17 C18 1_555 1_555
C18 C20 1_555 1_555
C19 C23 1_555 1_555
C20 C21 1_555 1_555
C21 C22 1_555 1_555
C22 C23 1_555 1_555
C23 C24 1_555 1_555
C24 O7 1_555 1_555
N3 C14 1_555 1_555
N4 C19 1_555 1_555
O5 C13 1_555 1_555
O6 Zn1 1_555 1_555
O7 Zn1G 1_555 1_555
O8 C24 1_555 1_555
Zn4 O5 1_555 1_555
H13 C25 1_555 1_555
H14 C26 1_555 1_555
H15 C27 1_555 1_555
H16 C28 1_555 1_555
H17 C29 1_555 1_555
H18 C31 1_555 1_555
H19 C32 1_555 1_555
C25 C26 1_555 1_555
C26 C27 1_555 1_555
C27 C28 1_555 1_555
C28 C29 1_555 1_555
C29 C30 1_555 1_555
C30 C25 1_555 1_555
C31 C30 1_555 1_555
C32 C31 1_555 1_555
C33 C32 1_555 1_555
O9 C33 1_555 1_555
O10 Zn1 1_555 1_555
H20 C35 1_555 1_555
H21 C36 1_555 1_555
H22 C38 1_555 1_555
H23 C39 1_555 1_555
H24 C40 1_555 1_555
H25 C41 1_555 1_555
H26 C42 1_555 1_555
C34 C35 1_555 1_555
C35 C36 1_555 1_555
C36 C37 1_555 1_555
C37 C38 1_555 1_555
C38 C39 1_555 1_555
C39 C40 1_555 1_555
C40 C41 1_555 1_555
C41 C42 1_555 1_555
C42 C37 1_555 1_555
O11 Zn2 1_555 1_555
O12 C34 1_555 1_555
H1B C3B 1_555 1_555
H2B C4B 1_555 1_555
H3B C6B 1_555 1_555
H4B C8B 1_555 1_555
H5B C9B 1_555 1_555
H6B C11B 1_555 1_555
C1B C2B 1_555 1_555
C2B C3B 1_555 1_555
C3B C4B 1_555 1_555
C4B C5B 1_555 1_555
C5B C7B 1_555 1_555
C6B C2B 1_555 1_555
C7B C8B 1_555 1_555
C8B C9B 1_555 1_555
C9B C10B 1_555 1_555
C10B C11B 1_555 1_555
C11B N2B 1_555 1_555
C12B C10B 1_555 1_555
N1B C5B 1_555 1_555
N2B C7B 1_555 1_555
O1B Zn3 1_555 1_555
O2B C1B 1_555 1_555
O3B C12B 1_555 1_555
O4B C12B 1_555 1_555
Zn1B N1B 1_555 1_555
Zn2B O2B 1_555 1_555
H7B C14B 1_555 1_555
H8B C16B 1_555 1_555
H9B C17B 1_555 1_555
H10B C19B 1_555 1_555
H11B C21B 1_555 1_555
H12B C22B 1_555 1_555
C13B C15B 1_555 1_555
C14B C15B 1_555 1_555
C15B C16B 1_555 1_555
C16B C17B 1_555 1_555
C17B C18B 1_555 1_555
C18B C20B 1_555 1_555
C19B C23B 1_555 1_555
C20B C21B 1_555 1_555
C21B C22B 1_555 1_555
C22B C23B 1_555 1_555
C23B C24B 1_555 1_555
C24B O7B 1_555 1_555
N3B C14B 1_555 1_555
N4B C19B 1_555 1_555
O5B C13B 1_555 1_555
O6B Zn1B 1_555 1_555
O7B Zn1E 1_555 1_555
O8B C24B 1_555 1_555
H13B C25B 1_555 1_555
H14B C26B 1_555 1_555
H15B C27B 1_555 1_555
H16B C28B 1_555 1_555
H17B C29B 1_555 1_555
H18B C31B 1_555 1_555
H19B C32B 1_555 1_555
C25B C26B 1_555 1_555
C26B C27B 1_555 1_555
C27B C28B 1_555 1_555
C28B C29B 1_555 1_555
C29B C30B 1_555 1_555
C30B C25B 1_555 1_555
C31B C30B 1_555 1_555
C32B C31B 1_555 1_555
C33B C32B 1_555 1_555
O9B C33B 1_555 1_555
O10B Zn1B 1_555 1_555
H20B C35B 1_555 1_555
H21B C36B 1_555 1_555
H22B C38B 1_555 1_555
H23B C39B 1_555 1_555
H24B C40B 1_555 1_555
H25B C41B 1_555 1_555
H26B C42B 1_555 1_555
C34B C35B 1_555 1_555
C35B C36B 1_555 1_555
C36B C37B 1_555 1_555
C37B C38B 1_555 1_555
C38B C39B 1_555 1_555
C39B C40B 1_555 1_555
C40B C41B 1_555 1_555
C41B C42B 1_555 1_555
C42B C37B 1_555 1_555
O11B Zn3 1_555 1_555
O12B C34B 1_555 1_555
O3D Zn2B 1_555 1_555
O3F Zn2 1_555 1_555
O4D Zn3 1_555 1_555
O4F Zn3 1_555 1_555
Zn2A N3B 1_555 1_555
Zn2C N3 1_555 1_555
Zn2D O3B 1_555 1_555
Zn2F O3 1_555 1_555
Zn3D O4B 1_555 1_555
Zn3D_2 O4 1_555 1_555
N3A Zn2B 1_555 1_555
N3C Zn2 1_555 1_555
N4A Zn2B 1_555 1_555
N4C Zn2 1_555 1_555
O5C Zn4 1_555 1_555
O7E Zn1B 1_555 1_555
O7G Zn1 1_555 1_555
O8D Zn4 1_555 1_555
O8G Zn4 1_555 1_555
Zn4A O5B 1_555 1_555
Zn4D O8 1_555 1_555
Zn4E O8B 1_555 1_555
O10C Zn4 1_555 1_555
C6 N1 1_555 1_555
N2 Zn1 1_555 1_555
Zn3 O11 1_555 1_555
C13 O6 1_555 1_555
C18 N3 1_555 1_555
C20 N4 1_555 1_555
N4 Zn2C 1_555 1_555
Zn4 O10 1_555 1_555
C33 O10 1_555 1_555
C34 O11 1_555 1_555
C1B O1B 1_555 1_555
C6B N1B 1_555 1_555
N2B Zn1B 1_555 1_555
Zn2B O11B 1_555 1_555
C13B O6B 1_555 1_555
C18B N3B 1_555 1_555
C20B N4B 1_555 1_555
N4B Zn2A 1_555 1_555
C33B O10B 1_555 1_555
O10B Zn4A 1_555 1_555
C34B O11B 1_555 1_555

#END
