
#######################################################################
#
#                 Cambridge Crystallographic Data Centre
#                                CCDC 
#
#######################################################################
#
# If this CIF has been generated from an entry in the Cambridge 
# Structural Database, then it will include bibliographic, chemical, 
# crystal, experimental, refinement or atomic coordinate data resulting 
# from the CCDC's data processing and validation procedures.
#
#######################################################################

data_MIFNUM
_chemical_formula_moiety         '(C48 H48 Co1 Dy2 N8 O28)n'
_symmetry_cell_setting           tetragonal
_symmetry_space_group_name_H-M   'I 41/a'
_symmetry_Int_Tables_number      88
_space_group_name_Hall           '-I 4ad'
loop_
_symmetry_equiv_pos_site_id
_symmetry_equiv_pos_as_xyz
1 x,y,z
2 3/4-y,1/4+x,1/4+z
3 -x,1/2-y,z
4 1/4+y,1/4-x,1/4+z
5 1/2+x,1/2+y,1/2+z
6 1/4-y,3/4+x,3/4+z
7 1/2-x,-y,1/2+z
8 3/4+y,3/4-x,3/4+z
9 -x,-y,-z
10 1/4+y,3/4-x,3/4-z
11 x,1/2+y,-z
12 3/4-y,3/4+x,3/4-z
13 1/2-x,1/2-y,1/2-z
14 3/4+y,1/4-x,1/4-z
15 1/2+x,y,1/2-z
16 1/4-y,1/4+x,1/4-z
_cell_length_a                   45.870(4)
_cell_length_b                   45.870(4)
_cell_length_c                   10.9980(7)
_cell_angle_alpha                90
_cell_angle_beta                 90
_cell_angle_gamma                90
_cell_volume                     23140.4
loop_
_atom_site_label
_atom_site_type_symbol
_atom_site_fract_x
_atom_site_fract_y
_atom_site_fract_z
H1 H 0.1220(17) 0.955(2) 0.315(5)
H2 H 0.146(2) 0.941(4) 0.260(9)
C1 C 0.0758(3) 0.8453(3) 0.3567(8)
C2 C 0.0874(2) 0.8327(2) 0.2373(8)
C3 C 0.0668(3) 0.8240(3) 0.1496(8)
H3 H 0.0470 0.8262 0.1632
C4 C 0.0772(3) 0.8118(3) 0.0418(9)
H4 H 0.0642 0.8063 -0.0192
C5 C 0.1064(3) 0.8080(3) 0.0265(9)
H5 H 0.1128 0.7994 -0.0451
C6 C 0.1168(3) 0.8286(2) 0.2138(8)
C7 C 0.1406(3) 0.8348(2) 0.3040(9)
C8 C 0.1831(3) 0.8160(3) 0.3834(8)
H6 H 0.1974 0.8016 0.3828
C9 C 0.1853(3) 0.8381(3) 0.4676(9)
H7 H 0.1997 0.8377 0.5272
C10 C 0.1651(3) 0.8613(3) 0.4611(9)
H8 H 0.1666 0.8771 0.5133
C11 C 0.1427(3) 0.8599(3) 0.3746(7)
C12 C 0.1243(2) 0.8869(3) 0.3557(8)
C13 C 0.0946(3) 0.9817(3) -0.5066(10)
C14 C 0.1010(3) 1.0107(3) -0.5692(10)
C15 C 0.1294(3) 1.0217(3) -0.5584(12)
H9 H 0.1444 1.0103 -0.5275
C16 C 0.1345(3) 1.0505(3) -0.5957(10)
H10 H 0.1530 1.0587 -0.5903
C17 C 0.1105(3) 1.0669(3) -0.6419(10)
H11 H 0.1138 1.0861 -0.6647
C18 C 0.0795(3) 1.0279(3) -0.6229(8)
C19 C 0.0494(3) 1.0187(3) -0.6438(8)
C20 C 0.0001(3) 1.0314(3) -0.6183(9)
H12 H -0.0137 1.0451 -0.5955
C21 C -0.0086(3) 1.0045(3) -0.6610(9)
H13 H -0.0283 0.9996 -0.6616
C22 C 0.0119(3) 0.9849(3) -0.7026(8)
H14 H 0.0060 0.9671 -0.7348
C23 C 0.0409(3) 0.9916(3) -0.6964(9)
C24 C 0.0637(3) 0.9719(3) -0.7594(9)
C25 C 0.0531(2) 0.9293(2) -0.1372(8)
C26 C 0.0213(3) 0.9306(3) -0.1227(7)
C27 C 0.0092(3) 0.9506(3) -0.0340(9)
H15 H 0.0216 0.9607 0.0180
C28 C -0.0202(3) 0.9546(3) -0.0262(9)
H16 H -0.0280 0.9663 0.0348
C29 C -0.0382(3) 0.9412(3) -0.1092(9)
H17 H -0.0579 0.9458 -0.1093
C30 C 0.0012(3) 0.9157(3) -0.1926(9)
C31 C 0.0080(3) 0.8912(3) -0.2805(8)
C32 C -0.0031(3) 0.8722(3) -0.4701(9)
H18 H -0.0130 0.8735 -0.5438
C33 C 0.0141(3) 0.8489(3) -0.4522(8)
H19 H 0.0160 0.8348 -0.5123
C34 C 0.0289(3) 0.8462(3) -0.3438(9)
H20 H 0.0405 0.8299 -0.3289
C35 C 0.0264(3) 0.8676(3) -0.2590(8)
C36 C 0.0434(3) 0.8653(3) -0.1422(9)
C37 C 0.1470(4) 0.9508(4) -0.0239(14)
C38 C 0.1690(4) 0.9686(5) -0.1109(13)
C39 C 0.1610(5) 0.9981(5) -0.1378(13)
H21 H 0.1430 1.0044 -0.1084
C40 C 0.1784(4) 1.0195(4) -0.2080(14)
H22 H 0.1728 1.0380 -0.2328
C41 C 0.2054(4) 1.0058(4) -0.2289(14)
H23 H 0.2199 1.0176 -0.2622
C42 C 0.1933(4) 0.9583(4) -0.1610(13)
C43 C 0.2001(4) 0.9271(4) -0.1507(12)
C44 C 0.2305(4) 0.8878(4) -0.1125(12)
H24 H 0.2483 0.8811 -0.0828
C45 C 0.2155(4) 0.8671(4) -0.1600(12)
H25 H 0.2212 0.8477 -0.1640
C46 C 0.1905(4) 0.8779(4) -0.2031(11)
H26 H 0.1772 0.8645 -0.2346
C47 C 0.1820(3) 0.9076(4) -0.2056(11)
C48 C 0.1548(3) 0.9153(3) -0.2694(10)
N1 N 0.0849(2) 1.0567(2) -0.6540(8)
N2 N 0.0289(2) 1.0378(2) -0.6096(7)
N3 N -0.0279(2) 0.9212(2) -0.1924(6)
N4 N -0.0072(2) 0.8940(2) -0.3879(7)
N5 N 0.1264(2) 0.8161(2) 0.1086(6)
N6 N 0.1614(2) 0.8142(2) 0.3020(7)
N7 N 0.2270(3) 0.9176(3) -0.0938(10)
N8 N 0.2132(3) 0.9775(4) -0.2067(11)
O1 O 0.05772(17) 0.86564(19) 0.3478(5)
O2 O 0.08613(18) 0.83522(18) 0.4543(5)
O3 O 0.11619(17) 0.89173(16) 0.2479(5)
O4 O 0.12003(18) 0.90323(17) 0.4455(6)
O5 O 0.11465(18) 0.96299(17) -0.5135(6)
O6 O 0.0717(2) 0.9786(2) -0.4520(8)
O7 O 0.07544(18) 0.98109(18) -0.8541(6)
O8 O 0.06761(18) 0.94683(16) -0.7162(6)
O9 O 0.03010(17) 0.86996(18) -0.0411(5)
O10 O 0.06970(19) 0.85860(18) -0.1503(5)
O11 O 0.06853(17) 0.93547(17) -0.0490(5)
O12 O 0.06246(17) 0.92281(18) -0.2434(6)
O13 O 0.09280(19) 0.87453(19) -0.3637(5)
H27 H 0.0828 0.8706 -0.2978
H28 H 0.0832 0.8676 -0.4261
O14 O 0.05838(17) 0.91567(17) -0.5120(5)
H29 H 0.0436 0.9095 -0.4696
H30 H 0.0534 0.9318 -0.5481
O15 O 0.1092(2) 0.9645(2) -0.2448(8)
H31 H 0.1218 0.9600 -0.1673
H32 H 0.1206 0.9832 -0.2780
O16 O 0.1318(2) 0.9058(2) -0.2257(6)
O17 O 0.1551(2) 0.9295(2) -0.3643(6)
O18 O 0.1228(3) 0.9594(3) -0.0215(8)
O19 O 0.1575(3) 0.9308(3) 0.0400(9)
O20 O 0.11157(18) 0.88707(17) -0.0103(6)
H33 H 0.0961 0.8769 -0.0280
H34 H 0.1194 0.8932 -0.0782
O21 O 0.1309(2) 0.9519(2) 0.2494(6)
O22 O 0.05903(17) 0.89555(17) 0.1402(5)
H35 H 0.0497 0.8987 0.2098
H36 H 0.0462 0.8979 0.0806
Co1 Co -0.04618(4) 0.91764(4) -0.37187(11)
Dy1 Dy 0.099011(13) 0.927554(13) 0.11680(4)
Dy2 Dy 0.099904(13) 0.924540(13) -0.38400(4)
N1H N -0.0849(2) 0.9433(2) -0.3460(8)
N2H N -0.0289(2) 0.9622(2) -0.3904(7)
N5K N -0.0661(2) 0.8764(2) -0.3586(6)
N6K N -0.0642(2) 0.9114(2) -0.5520(7)
O4_2 O 0.12003(18) 0.90323(17) -0.5545(6)
O7_2 O 0.07544(18) 0.98109(18) 0.1459(6)
O8_2 O 0.06761(18) 0.94683(16) 0.2838(6)
Co1H Co 0.04618(4) 1.08236(4) -0.62813(11)
Co1I Co 0.16764(4) 0.79618(4) 0.12187(11)
Dy1_2 Dy 0.099011(13) 0.927554(13) -0.88320(4)
Dy2_2 Dy 0.099904(13) 0.924540(13) 0.61600(4)
O23 O 0.1087(6) 0.7788(6) -0.477(2)
O24 O 0.1919(5) 0.9566(5) 0.2709(17)
O25 O 0.2299(4) 0.9754(4) 0.1029(11)
O26 O -0.0033(6) 0.9155(6) 0.240(2)
O27 O -0.0243(4) 0.8491(4) -0.0034(13)
O28 O 0.0680(2) 1.0027(2) -0.1190(7)
loop_
_geom_bond_atom_site_label_1
_geom_bond_atom_site_label_2
_geom_bond_site_symmetry_1
_geom_bond_site_symmetry_2
H1 O21 1_555 1_555
H2 O21 1_555 1_555
C1 C2 1_555 1_555
C2 C3 1_555 1_555
C3 H3 1_555 1_555
C4 C3 1_555 1_555
H4 C4 1_555 1_555
C5 C4 1_555 1_555
H5 C5 1_555 1_555
C6 C2 1_555 1_555
C7 C6 1_555 1_555
C8 H6 1_555 1_555
C9 C8 1_555 1_555
H7 C9 1_555 1_555
C10 C9 1_555 1_555
H8 C10 1_555 1_555
C11 C7 1_555 1_555
C12 C11 1_555 1_555
C13 C14 1_555 1_555
C14 C15 1_555 1_555
C15 H9 1_555 1_555
C16 C15 1_555 1_555
H10 C16 1_555 1_555
C17 C16 1_555 1_555
H11 C17 1_555 1_555
C18 C14 1_555 1_555
C19 C18 1_555 1_555
C20 H12 1_555 1_555
C21 C20 1_555 1_555
H13 C21 1_555 1_555
C22 C21 1_555 1_555
H14 C22 1_555 1_555
C23 C19 1_555 1_555
C24 C23 1_555 1_555
C25 C26 1_555 1_555
C26 C27 1_555 1_555
C27 H15 1_555 1_555
C28 C27 1_555 1_555
H16 C28 1_555 1_555
C29 C28 1_555 1_555
H17 C29 1_555 1_555
C30 C26 1_555 1_555
C31 C30 1_555 1_555
C32 H18 1_555 1_555
C33 C32 1_555 1_555
H19 C33 1_555 1_555
C34 C33 1_555 1_555
H20 C34 1_555 1_555
C35 C31 1_555 1_555
C36 C35 1_555 1_555
C37 C38 1_555 1_555
C38 C39 1_555 1_555
C39 H21 1_555 1_555
C40 C39 1_555 1_555
H22 C40 1_555 1_555
C41 C40 1_555 1_555
H23 C41 1_555 1_555
C42 C38 1_555 1_555
C43 C42 1_555 1_555
C44 H24 1_555 1_555
C45 C44 1_555 1_555
H25 C45 1_555 1_555
C46 C45 1_555 1_555
H26 C46 1_555 1_555
C47 C43 1_555 1_555
C48 C47 1_555 1_555
N1 C17 1_555 1_555
N2 C19 1_555 1_555
N3 C29 1_555 1_555
N4 C31 1_555 1_555
N5 C5 1_555 1_555
N6 C7 1_555 1_555
N7 C43 1_555 1_555
N8 C41 1_555 1_555
O1 C1 1_555 1_555
O2 C1 1_555 1_555
O3 C12 1_555 1_555
O4 C12 1_555 1_555
O5 C13 1_555 1_555
O6 C13 1_555 1_555
O7 C24 1_555 1_555
O8 C24 1_555 1_555
O9 C36 1_555 1_555
O10 C36 1_555 1_555
O11 C25 1_555 1_555
O12 C25 1_555 1_555
O13 H27 1_555 1_555
H28 O13 1_555 1_555
O14 H29 1_555 1_555
H30 O14 1_555 1_555
O15 H31 1_555 1_555
H32 O15 1_555 1_555
O16 C48 1_555 1_555
O17 C48 1_555 1_555
O18 C37 1_555 1_555
O19 C37 1_555 1_555
O20 H33 1_555 1_555
H34 O20 1_555 1_555
O21 Dy1 1_555 1_555
O22 H35 1_555 1_555
H36 O22 1_555 1_555
Co1 N3 1_555 1_555
Dy1 O3 1_555 1_555
Dy2 O5 1_555 1_555
N1H Co1 1_555 1_555
N2H Co1 1_555 1_555
N5K Co1 1_555 1_555
N6K Co1 1_555 1_555
O4_2 Dy2 1_555 1_555
O7_2 Dy1 1_555 1_555
O8_2 Dy1 1_555 1_555
Co1H N1 1_555 1_555
Co1I N5 1_555 1_555
Dy1_2 O7 1_555 1_555
Dy2_2 O4 1_555 1_555
C6 N5 1_555 1_555
C8 N6 1_555 1_555
C10 C11 1_555 1_555
C18 N1 1_555 1_555
C20 N2 1_555 1_555
C22 C23 1_555 1_555
C30 N3 1_555 1_555
C32 N4 1_555 1_555
C34 C35 1_555 1_555
C42 N8 1_555 1_555
C44 N7 1_555 1_555
C46 C47 1_555 1_555
N2 Co1H 1_555 1_555
N4 Co1 1_555 1_555
N6 Co1I 1_555 1_555
O8 Dy1_2 1_555 1_555
O11 Dy1 1_555 1_555
O12 Dy2 1_555 1_555
O13 Dy2 1_555 1_555
O14 Dy2 1_555 1_555
O15 Dy2 1_555 1_555
O16 Dy2 1_555 1_555
O17 Dy2 1_555 1_555
O18 Dy1 1_555 1_555
O19 Dy1 1_555 1_555
O20 Dy1 1_555 1_555
O22 Dy1 1_555 1_555

#END
