
#######################################################################
#
#                 Cambridge Crystallographic Data Centre
#                                CCDC 
#
#######################################################################
#
# If this CIF has been generated from an entry in the Cambridge 
# Structural Database, then it will include bibliographic, chemical, 
# crystal, experimental, refinement or atomic coordinate data resulting 
# from the CCDC's data processing and validation procedures.
#
#######################################################################

data_MIFROK
_chemical_formula_moiety         '(C48 H50 Co1 La2 N8 O29)n'
_symmetry_cell_setting           tetragonal
_symmetry_space_group_name_H-M   'I 41/a'
_symmetry_Int_Tables_number      88
_space_group_name_Hall           '-I 4ad'
loop_
_symmetry_equiv_pos_site_id
_symmetry_equiv_pos_as_xyz
1 x,y,z
2 3/4-y,1/4+x,1/4+z
3 -x,1/2-y,z
4 1/4+y,1/4-x,1/4+z
5 1/2+x,1/2+y,1/2+z
6 1/4-y,3/4+x,3/4+z
7 1/2-x,-y,1/2+z
8 3/4+y,3/4-x,3/4+z
9 -x,-y,-z
10 1/4+y,3/4-x,3/4-z
11 x,1/2+y,-z
12 3/4-y,3/4+x,3/4-z
13 1/2-x,1/2-y,1/2-z
14 3/4+y,1/4-x,1/4-z
15 1/2+x,y,1/2-z
16 1/4-y,1/4+x,1/4-z
_cell_length_a                   46.038(3)
_cell_length_b                   46.038(3)
_cell_length_c                   11.3254(3)
_cell_angle_alpha                90
_cell_angle_beta                 90
_cell_angle_gamma                90
_cell_volume                     24004.2
loop_
_atom_site_label
_atom_site_type_symbol
_atom_site_fract_x
_atom_site_fract_y
_atom_site_fract_z
H1 H 0.1333(16) 0.544(2) 1.324(3)
H2 H 0.1541(7) 0.5518(19) 1.241(6)
C1 C 0.10559(15) 0.69112(14) 1.0294(5)
H3 H 0.1120 0.6992 0.9589
C2 C 0.07666(15) 0.68731(14) 1.0445(6)
H4 H 0.0637 0.6925 0.9853
C3 C 0.06668(15) 0.67540(15) 1.1505(6)
H5 H 0.0469 0.6729 1.1633
C4 C 0.08678(14) 0.66734(13) 1.2370(5)
C5 C 0.07521(14) 0.65423(15) 1.3509(5)
C6 C 0.11635(14) 0.67169(13) 1.2128(5)
C7 C 0.14052(14) 0.66561(14) 1.2976(5)
C8 C 0.14300(14) 0.64065(15) 1.3682(5)
C9 C 0.12468(13) 0.61404(14) 1.3508(5)
C10 C 0.16535(16) 0.63979(18) 1.4508(6)
H6 H 0.1669 0.6242 1.5029
C11 C 0.18530(18) 0.66222(19) 1.4548(7)
H7 H 0.2001 0.6622 1.5108
C12 C 0.18295(18) 0.68419(18) 1.3756(7)
H8 H 0.1971 0.6986 1.3754
C13 C 0.11101(15) 0.43074(16) 0.3497(7)
H9 H 0.1138 0.4115 0.3278
C14 C 0.13474(17) 0.44700(17) 0.3894(7)
H10 H 0.1533 0.4390 0.3915
C15 C 0.12990(16) 0.47522(15) 0.4253(7)
H11 H 0.1452 0.4863 0.4540
C16 C 0.10207(15) 0.48724(15) 0.4188(7)
C17 C 0.09744(15) 0.51608(15) 0.4763(6)
C18 C 0.08016(15) 0.47017(15) 0.3719(6)
C19 C 0.04960(15) 0.48060(15) 0.3557(6)
C20 C 0.04131(15) 0.50666(14) 0.3051(6)
C21 C 0.06300(14) 0.52694(14) 0.2447(6)
C22 C 0.01188(14) 0.51363(15) 0.3037(6)
H12 H 0.0058 0.5315 0.2739
C23 C -0.00802(16) 0.49435(15) 0.3458(6)
H13 H -0.0276 0.4992 0.3481
C24 C 0.00143(16) 0.46739(16) 0.3854(6)
H14 H -0.0123 0.4538 0.4096
C25 C -0.03911(17) 0.5607(2) 0.8842(7)
H15 H -0.0590 0.5569 0.8843
C26 C -0.02207(17) 0.5469(2) 0.9671(7)
H16 H -0.0303 0.5354 1.0259
C27 C 0.00762(18) 0.55076(18) 0.9595(7)
H17 H 0.0198 0.5409 1.0111
C28 C 0.01942(15) 0.56945(15) 0.8748(5)
C29 C 0.00023(14) 0.58485(15) 0.8038(5)
C30 C 0.05176(14) 0.57005(13) 0.8589(5)
C31 C 0.00789(13) 0.60842(14) 0.7179(5)
C32 C 0.02667(14) 0.63150(14) 0.7410(5)
C33 C 0.04376(16) 0.63457(15) 0.8542(5)
C34 C 0.02946(15) 0.65299(15) 0.6543(6)
H18 H 0.0412 0.6691 0.6680
C35 C 0.01491(14) 0.65042(15) 0.5492(6)
H19 H 0.0175 0.6640 0.4895
C36 C -0.00347(14) 0.62727(14) 0.5342(5)
H20 H -0.0138 0.6258 0.4639
C37 C 0.15510(14) 0.58324(15) 0.7312(5)
C38 C 0.18241(15) 0.59118(17) 0.7938(6)
C39 C 0.19075(18) 0.6204(2) 0.7942(7)
H21 H 0.1787 0.6344 0.7612
C40 C 0.2166(2) 0.6283(2) 0.8430(8)
H22 H 0.2228 0.6475 0.8420
C41 C 0.2328(2) 0.6074(3) 0.8928(8)
H23 H 0.2502 0.6131 0.9271
C42 C 0.20050(16) 0.5706(2) 0.8454(6)
C43 C 0.19424(19) 0.5392(2) 0.8411(7)
C44 C 0.1697(2) 0.5277(2) 0.8874(7)
C45 C 0.1471(2) 0.54426(19) 0.9627(6)
C46 C 0.1633(2) 0.4980(2) 0.8628(8)
H24 H 0.1458 0.4899 0.8878
C47 C 0.1835(2) 0.4809(2) 0.8006(8)
H25 H 0.1796 0.4617 0.7794
C48 C 0.2090(2) 0.4941(2) 0.7734(8)
H26 H 0.2235 0.4826 0.7399
N1 N 0.12563(12) 0.68375(12) 1.1114(4)
N2 N 0.16099(13) 0.68598(12) 1.2970(5)
N3 N 0.08446(12) 0.44218(12) 0.3424(5)
N4 N 0.02939(13) 0.46038(12) 0.3898(5)
N5 N -0.00719(11) 0.60681(12) 0.6156(4)
N6 N -0.02871(13) 0.57922(13) 0.8036(5)
N7 N 0.21523(17) 0.52267(19) 0.7911(6)
N8 N 0.22614(15) 0.5783(2) 0.8979(6)
O1 O 0.05670(10) 0.63464(10) 1.3415(4)
O2 O 0.08540(10) 0.66396(10) 1.4470(4)
O3 O 0.11587(10) 0.60953(10) 1.2464(4)
O4 O 0.12013(10) 0.59765(10) 1.4367(4)
O5 O 0.11882(10) 0.53380(10) 0.4734(4)
O6 O 0.07424(10) 0.52208(10) 0.5259(4)
O7 O 0.07604(11) 0.51749(11) 0.1562(4)
O8 O 0.06561(11) 0.55254(10) 0.2810(4)
O9 O 0.06997(10) 0.64117(11) 0.8438(4)
O10 O 0.03038(10) 0.63040(11) 0.9497(4)
O11 O 0.05685(10) 0.60445(11) 1.1347(4)
H27 H 0.0425 0.5954 1.1686
H28 H 0.0615 0.6194 1.1782
O12 O 0.11222(10) 0.61413(10) 0.9788(4)
H29 H 0.1225 0.6085 0.9195
H30 H 0.0964 0.6219 0.9531
O13 O 0.13625(11) 0.54834(11) 1.2523(4)
O14 O 0.15514(12) 0.56541(12) 1.0242(4)
O15 O 0.12251(11) 0.53423(12) 0.9660(4)
O16 O 0.06706(10) 0.56353(10) 0.9453(4)
O17 O 0.06073(10) 0.57594(10) 0.7570(4)
O18 O 0.09371(11) 0.62733(10) 0.6324(4)
H31 H 0.0872 0.6347 0.5687
H32 H 0.0819 0.6308 0.6887
O19 O 0.05501(9) 0.58482(10) 0.4775(4)
H33 H 0.0550 0.5739 0.4157
H34 H 0.0392 0.5819 0.5166
O20 O 0.10691(12) 0.52775(12) 0.7394(4)
H35 H 0.1154 0.5324 0.8086
H36 H 0.0899 0.5189 0.7567
O21 O 0.15609(11) 0.56990(12) 0.6361(4)
O22 O 0.13120(11) 0.59061(13) 0.7769(4)
Co1 Co -0.04628(2) 0.58347(2) 0.62894(7)
La1 La 0.100201(8) 0.570797(8) 1.11122(3)
La2 La 0.099230(8) 0.573041(8) 0.60706(3)
N1I N -0.06625(12) 0.62437(12) 0.6386(4)
N2I N -0.06402(12) 0.58901(13) 0.4530(5)
N3H N -0.08446(12) 0.55782(12) 0.6576(5)
N4H N -0.02939(13) 0.53962(12) 0.6102(5)
O4_2 O 0.12013(10) 0.59765(10) 0.4367(4)
O7_2 O 0.07604(11) 0.51749(11) 1.1562(4)
O8_2 O 0.06561(11) 0.55254(10) 1.2810(4)
Co1H Co 0.04628(2) 0.41653(2) 0.37106(7)
Co1K Co 0.16653(2) 0.70372(2) 1.12106(7)
La1_2 La 0.100201(8) 0.570797(8) 0.11122(3)
La2_2 La 0.099230(8) 0.573041(8) 1.60706(3)
O23 O 0.19622(18) 0.54612(19) 1.2650(7)
O24 O 0.23267(16) 0.52960(19) 1.0834(6)
O25 O 0.1042(3) 0.7205(3) 0.4987(11)
O26 O -0.0274(3) 0.6457(3) 1.0082(12)
O27 O 0.06583(16) 0.49557(14) 0.8806(6)
O28 O 0.1380(4) 0.6730(4) 0.7285(18)
O29 O -0.0029(3) 0.5856(3) 1.2402(10)
loop_
_geom_bond_atom_site_label_1
_geom_bond_atom_site_label_2
_geom_bond_site_symmetry_1
_geom_bond_site_symmetry_2
H1 O13 1_555 1_555
H2 O13 1_555 1_555
C1 H3 1_555 1_555
C2 C1 1_555 1_555
H4 C2 1_555 1_555
C3 C2 1_555 1_555
H5 C3 1_555 1_555
C4 C3 1_555 1_555
C5 C4 1_555 1_555
C6 C4 1_555 1_555
C7 C6 1_555 1_555
C8 C7 1_555 1_555
C9 C8 1_555 1_555
C10 C8 1_555 1_555
H6 C10 1_555 1_555
C11 C10 1_555 1_555
H7 C11 1_555 1_555
C12 C11 1_555 1_555
H8 C12 1_555 1_555
C13 H9 1_555 1_555
C14 C13 1_555 1_555
H10 C14 1_555 1_555
C15 C14 1_555 1_555
H11 C15 1_555 1_555
C16 C15 1_555 1_555
C17 C16 1_555 1_555
C18 C16 1_555 1_555
C19 C18 1_555 1_555
C20 C19 1_555 1_555
C21 C20 1_555 1_555
C22 C20 1_555 1_555
H12 C22 1_555 1_555
C23 C22 1_555 1_555
H13 C23 1_555 1_555
C24 C23 1_555 1_555
H14 C24 1_555 1_555
C25 H15 1_555 1_555
C26 C25 1_555 1_555
H16 C26 1_555 1_555
C27 C26 1_555 1_555
H17 C27 1_555 1_555
C28 C27 1_555 1_555
C29 C28 1_555 1_555
C30 C28 1_555 1_555
C31 C29 1_555 1_555
C32 C31 1_555 1_555
C33 C32 1_555 1_555
C34 C32 1_555 1_555
H18 C34 1_555 1_555
C35 C34 1_555 1_555
H19 C35 1_555 1_555
C36 C35 1_555 1_555
H20 C36 1_555 1_555
C37 C38 1_555 1_555
C38 C39 1_555 1_555
C39 H21 1_555 1_555
C40 C39 1_555 1_555
H22 C40 1_555 1_555
C41 C40 1_555 1_555
H23 C41 1_555 1_555
C42 C38 1_555 1_555
C43 C42 1_555 1_555
C44 C43 1_555 1_555
C45 C44 1_555 1_555
C46 C44 1_555 1_555
H24 C46 1_555 1_555
C47 C46 1_555 1_555
H25 C47 1_555 1_555
C48 C47 1_555 1_555
H26 C48 1_555 1_555
N1 C1 1_555 1_555
N2 C7 1_555 1_555
N3 C13 1_555 1_555
N4 C19 1_555 1_555
N5 C31 1_555 1_555
N6 C25 1_555 1_555
N7 C43 1_555 1_555
N8 C41 1_555 1_555
O1 C5 1_555 1_555
O2 C5 1_555 1_555
O3 C9 1_555 1_555
O4 C9 1_555 1_555
O5 C17 1_555 1_555
O6 C17 1_555 1_555
O7 C21 1_555 1_555
O8 C21 1_555 1_555
O9 C33 1_555 1_555
O10 C33 1_555 1_555
O11 H27 1_555 1_555
H28 O11 1_555 1_555
O12 H29 1_555 1_555
H30 O12 1_555 1_555
O13 La1 1_555 1_555
O14 C45 1_555 1_555
O15 C45 1_555 1_555
O16 C30 1_555 1_555
O17 C30 1_555 1_555
O18 H31 1_555 1_555
H32 O18 1_555 1_555
O19 H33 1_555 1_555
H34 O19 1_555 1_555
O20 H35 1_555 1_555
H36 O20 1_555 1_555
O21 C37 1_555 1_555
O22 C37 1_555 1_555
Co1 N5 1_555 1_555
La1 O3 1_555 1_555
La2 O5 1_555 1_555
N1I Co1 1_555 1_555
N2I Co1 1_555 1_555
N3H Co1 1_555 1_555
N4H Co1 1_555 1_555
O4_2 La2 1_555 1_555
O7_2 La1 1_555 1_555
O8_2 La1 1_555 1_555
Co1H N3 1_555 1_555
Co1K N1 1_555 1_555
La1_2 O7 1_555 1_555
La2_2 O4 1_555 1_555
C6 N1 1_555 1_555
C12 N2 1_555 1_555
C18 N3 1_555 1_555
C24 N4 1_555 1_555
C29 N6 1_555 1_555
C36 N5 1_555 1_555
C42 N8 1_555 1_555
C48 N7 1_555 1_555
N2 Co1K 1_555 1_555
N4 Co1H 1_555 1_555
N6 Co1 1_555 1_555
O6 La2 1_555 1_555
O8 La1_2 1_555 1_555
O11 La1 1_555 1_555
O12 La1 1_555 1_555
O14 La1 1_555 1_555
O15 La1 1_555 1_555
O16 La1 1_555 1_555
O17 La2 1_555 1_555
O18 La2 1_555 1_555
O19 La2 1_555 1_555
O20 La2 1_555 1_555
O21 La2 1_555 1_555
O22 La2 1_555 1_555

#END
