
#######################################################################
#
#                 Cambridge Crystallographic Data Centre
#                                CCDC 
#
#######################################################################
#
# If this CIF has been generated from an entry in the Cambridge 
# Structural Database, then it will include bibliographic, chemical, 
# crystal, experimental, refinement or atomic coordinate data resulting 
# from the CCDC's data processing and validation procedures.
#
#######################################################################

data_MIFSUR
_chemical_formula_moiety         '(C48 H50 Co1 N8 Nd2 O29)n'
_symmetry_cell_setting           tetragonal
_symmetry_space_group_name_H-M   'I 41/a'
_symmetry_Int_Tables_number      88
_space_group_name_Hall           '-I 4ad'
loop_
_symmetry_equiv_pos_site_id
_symmetry_equiv_pos_as_xyz
1 x,y,z
2 3/4-y,1/4+x,1/4+z
3 -x,1/2-y,z
4 1/4+y,1/4-x,1/4+z
5 1/2+x,1/2+y,1/2+z
6 1/4-y,3/4+x,3/4+z
7 1/2-x,-y,1/2+z
8 3/4+y,3/4-x,3/4+z
9 -x,-y,-z
10 1/4+y,3/4-x,3/4-z
11 x,1/2+y,-z
12 3/4-y,3/4+x,3/4-z
13 1/2-x,1/2-y,1/2-z
14 3/4+y,1/4-x,1/4-z
15 1/2+x,y,1/2-z
16 1/4-y,1/4+x,1/4-z
_cell_length_a                   45.7979(7)
_cell_length_b                   45.7979(7)
_cell_length_c                   11.2276(2)
_cell_angle_alpha                90
_cell_angle_beta                 90
_cell_angle_gamma                90
_cell_volume                     23549.3
loop_
_atom_site_label
_atom_site_type_symbol
_atom_site_fract_x
_atom_site_fract_y
_atom_site_fract_z
Nd1 Nd 0.600179(9) 0.429087(9) -0.38772(4)
O1 O 0.63515(13) 0.45139(12) -0.2470(5)
O2 O 0.55726(12) 0.39629(13) -0.3638(5)
O3 O 0.61242(12) 0.38688(12) -0.5176(5)
O4 O 0.61594(12) 0.39097(12) -0.2545(5)
O5 O 0.56741(13) 0.44684(12) -0.2164(5)
O6 O 0.57549(13) 0.48142(13) -0.3493(5)
O7 O 0.56828(12) 0.43594(12) -0.5528(5)
O8 O 0.62210(15) 0.46556(16) -0.5284(6)
O9 O 0.65523(16) 0.43414(16) -0.4721(6)
H1 H 0.5603 0.3848 -0.3055
H2 H 0.5421 0.4066 -0.3499
H3 H 0.6158 0.3719 -0.4745
H4 H 0.5981 0.3833 -0.5637
C1 C 0.62419(17) 0.38686(17) -0.1493(7)
C2 C 0.56366(18) 0.47231(18) -0.2561(8)
C3 C 0.64300(17) 0.35993(18) -0.1301(7)
O10 O 0.61974(12) 0.40289(12) -0.0618(5)
C4 C 0.54182(18) 0.49241(18) -0.1943(8)
C5 C 0.6652(2) 0.3607(2) -0.0469(8)
C6 C 0.64042(18) 0.33488(18) -0.2010(7)
Nd2 Nd 0.599722(9) 0.426544(9) 0.10896(4)
C7 C 0.51212(18) 0.48553(19) -0.1985(8)
C8 C 0.54956(19) 0.51921(18) -0.1437(8)
H5 H 0.6668 0.3766 0.0045
C9 C 0.6851(2) 0.3379(2) -0.0398(9)
C10 C 0.61617(17) 0.32829(16) -0.2866(7)
N1 N 0.66129(15) 0.31386(15) -0.2002(6)
O11 O 0.56153(12) 0.42423(13) 0.2550(5)
O12 O 0.63069(14) 0.40908(18) 0.2772(6)
O13 O 0.65589(13) 0.42951(14) 0.1343(5)
O14 O 0.59411(13) 0.37330(12) 0.1338(5)
O15 O 0.55611(11) 0.41583(12) -0.0175(5)
O16 O 0.60774(16) 0.47022(16) 0.2425(6)
O17 O 0.57393(14) 0.47729(13) 0.0325(6)
O18 O 0.61876(13) 0.46507(13) -0.0209(5)
H6 H 0.5061 0.4678 -0.2305
C11 C 0.49162(18) 0.50504(19) -0.1552(8)
C12 C 0.57999(17) 0.52920(18) -0.1247(8)
N2 N 0.52940(15) 0.53907(16) -0.1094(7)
H7 H 0.6994 0.3376 0.0191
C13 C 0.6832(2) 0.3159(2) -0.1213(9)
C14 C 0.58649(17) 0.33279(17) -0.2632(7)
N3 N 0.62558(14) 0.31623(14) -0.3893(6)
Co1 Co 0.66697(2) 0.29614(2) -0.37847(10)
C15 C 0.55256(17) 0.42976(17) 0.3583(7)
C16 C 0.65477(18) 0.41647(18) 0.2306(7)
H8 H 0.5814 0.3692 0.1905
H9 H 0.5878 0.3652 0.0673
H10 H 0.5574 0.3982 -0.0466
H11 H 0.5402 0.4170 0.0248
H12 H 0.6235 0.4803 0.2198
H13 H 0.5925 0.4823 0.2398
C17 C 0.5973(2) 0.4829(2) -0.0195(8)
H14 H 0.4719 0.5002 -0.1533
C18 C 0.50113(18) 0.53189(19) -0.1148(7)
C19 C 0.60215(19) 0.51211(19) -0.0764(8)
N4 N 0.58469(15) 0.55737(15) -0.1564(7)
H15 H 0.6977 0.3017 -0.1223
C20 C 0.56709(19) 0.32478(18) -0.3498(7)
C21 C 0.57527(17) 0.34604(17) -0.1475(7)
C22 C 0.60582(18) 0.30869(18) -0.4725(7)
C23 C 0.52002(17) 0.43095(18) 0.3759(7)
C24 C 0.68237(18) 0.40861(18) 0.2948(7)
H16 H 0.4873 0.5455 -0.0904
C25 C 0.63021(18) 0.52434(19) -0.0677(9)
C26 C 0.61134(19) 0.5686(2) -0.1473(8)
N5 N 0.50698(14) 0.60671(14) -0.1150(6)
N6 N 0.52824(15) 0.57885(16) -0.3054(6)
C27 C 0.57646(19) 0.31273(19) -0.4561(8)
H17 H 0.5472 0.3275 -0.3370
O19 O 0.58542(13) 0.33612(13) -0.0510(5)
O20 O 0.55690(12) 0.36595(12) -0.1573(5)
H18 H 0.6123 0.3005 -0.5434
C28 C 0.50073(18) 0.41547(19) 0.3045(7)
C29 C 0.5087(2) 0.4500(2) 0.4594(8)
C30 C 0.7005(2) 0.4294(2) 0.3468(9)
C31 C 0.6905(2) 0.3792(2) 0.2956(9)
C32 C 0.63486(19) 0.55243(19) -0.1054(9)
H19 H 0.6455 0.5134 -0.0364
H20 H 0.6143 0.5880 -0.1696
H21 H 0.5632 0.3075 -0.5150
C33 C 0.50833(16) 0.39155(17) 0.2179(7)
C34 C 0.4789(2) 0.4539(2) 0.4694(9)
H22 H 0.5212 0.4602 0.5094
C35 C 0.6939(2) 0.4609(2) 0.3411(9)
N7 N 0.72618(19) 0.4213(2) 0.4004(8)
C36 C 0.7169(2) 0.3710(3) 0.3438(10)
H23 H 0.6781 0.3652 0.2636
H24 H 0.6535 0.5605 -0.1031
C37 C 0.52689(17) 0.36856(18) 0.2402(7)
C38 C 0.4612(2) 0.4400(2) 0.3865(9)
H25 H 0.4710 0.4655 0.5293
C39 C 0.6468(2) 0.4554(2) 0.4667(9)
C40 C 0.6689(2) 0.4726(2) 0.3875(9)
N8 N 0.7147(2) 0.4779(2) 0.2916(8)
C41 C 0.7322(3) 0.3919(3) 0.3933(10)
H26 H 0.7235 0.3518 0.3414
C42 C 0.54409(19) 0.36574(17) 0.3561(7)
C43 C 0.52995(18) 0.34705(18) 0.1536(7)
C44 C 0.49674(18) 0.37244(18) 0.0326(7)
H27 H 0.4413 0.4438 0.3872
C45 C 0.6629(3) 0.5025(3) 0.3632(10)
C46 C 0.7087(3) 0.5060(3) 0.2737(10)
H28 H 0.7495 0.3860 0.4288
O21 O 0.57049(13) 0.35904(12) 0.3458(5)
O22 O 0.53075(13) 0.36995(13) 0.4519(5)
H29 H 0.5422 0.3312 0.1668
C47 C 0.51458(17) 0.34938(17) 0.0474(7)
H30 H 0.4864 0.3740 -0.0385
H31 H 0.6456 0.5108 0.3901
C48 C 0.6828(3) 0.5193(3) 0.2996(10)
H32 H 0.7234 0.5175 0.2409
H33 H 0.5166 0.3354 -0.0120
H34 H 0.6787 0.5384 0.2762
Co1C Co 0.54614(2) 0.58303(2) -0.12847(10)
O7_2 O 0.56828(12) 0.43594(12) 0.4472(5)
N1C N 0.56386(15) 0.58871(15) 0.0498(6)
N3C N 0.56623(14) 0.62442(14) -0.1393(6)
Nd1_2 Nd 0.600179(9) 0.429087(9) 0.61228(4)
N6H N 0.47176(15) 0.42115(16) 0.3054(6)
O8_2 O 0.62210(15) 0.46556(16) 0.4716(6)
O9_2 O 0.65523(16) 0.43414(16) 0.5279(6)
N5H N 0.49302(14) 0.39329(14) 0.1150(6)
Co1K Co 0.45386(2) 0.41697(2) 0.12847(10)
O23 O 0.56687(18) 0.50411(17) 0.3799(7)
O24 O 0.76684(19) 0.5297(2) 0.0841(7)
O25 O 0.69503(19) 0.4542(2) -0.2352(8)
O26 O 0.4700(3) 0.3537(3) -0.2492(11)
O27 O 0.4977(3) 0.4135(3) -0.2604(11)
O28 O 0.6014(3) 0.2755(3) -0.7487(11)
O29 O 0.6376(5) 0.3279(5) 0.231(2)
loop_
_geom_bond_atom_site_label_1
_geom_bond_atom_site_label_2
_geom_bond_site_symmetry_1
_geom_bond_site_symmetry_2
Nd1 O1 1_555 1_555
O2 Nd1 1_555 1_555
O3 Nd1 1_555 1_555
O4 Nd1 1_555 1_555
O5 Nd1 1_555 1_555
O6 Nd1 1_555 1_555
O7 Nd1 1_555 1_555
O8 Nd1 1_555 1_555
O9 Nd1 1_555 1_555
H1 O2 1_555 1_555
H2 O2 1_555 1_555
H3 O3 1_555 1_555
H4 O3 1_555 1_555
C1 O4 1_555 1_555
C2 O5 1_555 1_555
C3 C1 1_555 1_555
O10 C1 1_555 1_555
C4 C2 1_555 1_555
C5 C3 1_555 1_555
C6 C3 1_555 1_555
Nd2 O10 1_555 1_555
C7 C4 1_555 1_555
C8 C4 1_555 1_555
H5 C5 1_555 1_555
C9 C5 1_555 1_555
C10 C6 1_555 1_555
N1 C6 1_555 1_555
O11 Nd2 1_555 1_555
O12 Nd2 1_555 1_555
O13 Nd2 1_555 1_555
O14 Nd2 1_555 1_555
O15 Nd2 1_555 1_555
O16 Nd2 1_555 1_555
O17 Nd2 1_555 1_555
O18 Nd2 1_555 1_555
H6 C7 1_555 1_555
C11 C7 1_555 1_555
C12 C8 1_555 1_555
N2 C8 1_555 1_555
H7 C9 1_555 1_555
C13 C9 1_555 1_555
C14 C10 1_555 1_555
N3 C10 1_555 1_555
Co1 N1 1_555 1_555
C15 O11 1_555 1_555
C16 O12 1_555 1_555
H8 O14 1_555 1_555
H9 O14 1_555 1_555
H10 O15 1_555 1_555
H11 O15 1_555 1_555
H12 O16 1_555 1_555
H13 O16 1_555 1_555
C17 O17 1_555 1_555
H14 C11 1_555 1_555
C18 C11 1_555 1_555
C19 C12 1_555 1_555
N4 C12 1_555 1_555
H15 C13 1_555 1_555
C20 C14 1_555 1_555
C21 C14 1_555 1_555
C22 N3 1_555 1_555
C23 C15 1_555 1_555
C24 C16 1_555 1_555
H16 C18 1_555 1_555
C25 C19 1_555 1_555
C26 N4 1_555 1_555
N5 Co1C 1_555 1_555
N6 Co1C 1_555 1_555
C27 C20 1_555 1_555
H17 C20 1_555 1_555
O19 C21 1_555 1_555
O20 C21 1_555 1_555
H18 C22 1_555 1_555
C28 C23 1_555 1_555
C29 C23 1_555 1_555
C30 C24 1_555 1_555
C31 C24 1_555 1_555
C32 C25 1_555 1_555
H19 C25 1_555 1_555
H20 C26 1_555 1_555
H21 C27 1_555 1_555
C33 C28 1_555 1_555
C34 C29 1_555 1_555
H22 C29 1_555 1_555
C35 C30 1_555 1_555
N7 C30 1_555 1_555
C36 C31 1_555 1_555
H23 C31 1_555 1_555
H24 C32 1_555 1_555
C37 C33 1_555 1_555
C38 C34 1_555 1_555
H25 C34 1_555 1_555
C39 C40 1_555 1_555
C40 C35 1_555 1_555
N8 C35 1_555 1_555
C41 N7 1_555 1_555
H26 C36 1_555 1_555
C42 C37 1_555 1_555
C43 C37 1_555 1_555
C44 C47 1_555 1_555
H27 C38 1_555 1_555
C45 C40 1_555 1_555
C46 N8 1_555 1_555
H28 C41 1_555 1_555
O21 C42 1_555 1_555
O22 C42 1_555 1_555
H29 C43 1_555 1_555
C47 C43 1_555 1_555
H30 C44 1_555 1_555
H31 C45 1_555 1_555
C48 C45 1_555 1_555
H32 C46 1_555 1_555
H33 C47 1_555 1_555
H34 C48 1_555 1_555
Co1C N2 1_555 1_555
O7_2 C15 1_555 1_555
N1C Co1C 1_555 1_555
N3C Co1C 1_555 1_555
Nd1_2 O7_2 1_555 1_555
N6H C28 1_555 1_555
O8_2 C39 1_555 1_555
O9_2 C39 1_555 1_555
N5H C33 1_555 1_555
Co1K N6H 1_555 1_555
O6 C2 1_555 1_555
N1 C13 1_555 1_555
O13 C16 1_555 1_555
O18 C17 1_555 1_555
N2 C18 1_555 1_555
N3 Co1 1_555 1_555
C17 C19 1_555 1_555
N4 Co1C 1_555 1_555
C22 C27 1_555 1_555
C26 C32 1_555 1_555
C36 C41 1_555 1_555
C38 N6H 1_555 1_555
C44 N5H 1_555 1_555
C46 C48 1_555 1_555
Nd1_2 O8_2 1_555 1_555
Nd1_2 O9_2 1_555 1_555
N5H Co1K 1_555 1_555

#END
