
#######################################################################
#
#                 Cambridge Crystallographic Data Centre
#                                CCDC 
#
#######################################################################
#
# If this CIF has been generated from an entry in the Cambridge 
# Structural Database, then it will include bibliographic, chemical, 
# crystal, experimental, refinement or atomic coordinate data resulting 
# from the CCDC's data processing and validation procedures.
#
#######################################################################

data_MIFTEC
_chemical_formula_moiety         '(C48 H52 Co1 N8 O30 Sm2)n'
_symmetry_cell_setting           tetragonal
_symmetry_space_group_name_H-M   'I 41/a'
_symmetry_Int_Tables_number      88
_space_group_name_Hall           '-I 4ad'
loop_
_symmetry_equiv_pos_site_id
_symmetry_equiv_pos_as_xyz
1 x,y,z
2 3/4-y,1/4+x,1/4+z
3 -x,1/2-y,z
4 1/4+y,1/4-x,1/4+z
5 1/2+x,1/2+y,1/2+z
6 1/4-y,3/4+x,3/4+z
7 1/2-x,-y,1/2+z
8 3/4+y,3/4-x,3/4+z
9 -x,-y,-z
10 1/4+y,3/4-x,3/4-z
11 x,1/2+y,-z
12 3/4-y,3/4+x,3/4-z
13 1/2-x,1/2-y,1/2-z
14 3/4+y,1/4-x,1/4-z
15 1/2+x,y,1/2-z
16 1/4-y,1/4+x,1/4-z
_cell_length_a                   45.9697(10)
_cell_length_b                   45.9697(10)
_cell_length_c                   11.1834(3)
_cell_angle_alpha                90
_cell_angle_beta                 90
_cell_angle_gamma                90
_cell_volume                     23632.9
loop_
_atom_site_label
_atom_site_type_symbol
_atom_site_fract_x
_atom_site_fract_y
_atom_site_fract_z
H1 H 0.6305(13) 0.455(3) -0.177(2)
C1 C 0.54355(16) 0.36536(13) 0.3534(6)
C2 C 0.52627(14) 0.36844(14) 0.2378(5)
C3 C 0.52900(15) 0.34753(15) 0.1508(6)
H2 H 0.5412 0.3317 0.1635
C4 C 0.51385(14) 0.34985(15) 0.0449(6)
H3 H 0.5158 0.3358 -0.0146
C5 C 0.49602(14) 0.37314(15) 0.0295(5)
H4 H 0.4858 0.3748 -0.0419
C6 C 0.50800(12) 0.39189(13) 0.2148(5)
C7 C 0.50070(13) 0.41545(13) 0.3027(5)
C8 C 0.46211(15) 0.43970(17) 0.3877(6)
H5 H 0.4422 0.4435 0.3895
C9 C 0.47943(15) 0.45345(17) 0.4693(7)
H6 H 0.4716 0.4653 0.5286
C10 C 0.50928(15) 0.44909(16) 0.4603(6)
H7 H 0.5218 0.4588 0.5121
C11 C 0.52043(13) 0.43042(13) 0.3745(5)
C12 C 0.55265(13) 0.42943(13) 0.3558(5)
C13 C 0.56274(14) 0.47251(14) -0.2604(6)
C14 C 0.54149(14) 0.49247(14) -0.1970(6)
C15 C 0.51198(14) 0.48577(15) -0.1992(6)
H8 H 0.5058 0.4680 -0.2301
C16 C 0.49207(15) 0.50513(15) -0.1563(6)
H9 H 0.4724 0.5005 -0.1552
C17 C 0.50140(14) 0.53148(15) -0.1150(6)
H10 H 0.4877 0.5450 -0.0896
C18 C 0.54953(14) 0.51871(14) -0.1450(5)
C19 C 0.57973(14) 0.52856(14) -0.1268(6)
C20 C 0.61132(14) 0.56752(15) -0.1477(6)
H11 H 0.6146 0.5867 -0.1707
C21 C 0.63432(15) 0.55123(16) -0.1044(7)
H12 H 0.6529 0.5591 -0.1005
C22 C 0.62915(14) 0.52356(15) -0.0675(7)
H13 H 0.6443 0.5126 -0.0363
C23 C 0.60178(14) 0.51147(14) -0.0757(6)
C24 C 0.59596(16) 0.48248(15) -0.0164(6)
C25 C 0.64648(19) 0.45365(18) 0.4676(7)
C26 C 0.66806(19) 0.47032(19) 0.3870(7)
C27 C 0.6626(2) 0.4998(2) 0.3642(8)
H14 H 0.6457 0.5082 0.3937
C28 C 0.6819(2) 0.5169(2) 0.2987(9)
H15 H 0.6777 0.5360 0.2765
C29 C 0.7078(2) 0.5030(2) 0.2692(9)
H16 H 0.7223 0.5142 0.2340
C30 C 0.69277(17) 0.4591(2) 0.3402(7)
C31 C 0.69937(16) 0.4275(2) 0.3445(7)
C32 C 0.7318(2) 0.3904(2) 0.3897(8)
H17 H 0.7492 0.3845 0.4244
C33 C 0.71585(19) 0.3697(2) 0.3381(8)
H18 H 0.7222 0.3505 0.3348
C34 C 0.68985(17) 0.3779(2) 0.2903(7)
H19 H 0.6776 0.3640 0.2573
C35 C 0.68140(15) 0.40748(18) 0.2907(6)
C36 C 0.65406(15) 0.41554(15) 0.2281(6)
C37 C 0.62420(13) 0.38732(13) -0.1509(5)
C38 C 0.64287(13) 0.36059(13) -0.1318(5)
C39 C 0.66527(14) 0.36161(15) -0.0488(6)
H20 H 0.6669 0.3775 0.0023
C40 C 0.68490(16) 0.33945(17) -0.0417(6)
H21 H 0.6992 0.3395 0.0172
C41 C 0.68327(15) 0.31732(16) -0.1221(6)
H22 H 0.6977 0.3032 -0.1214
C42 C 0.64082(13) 0.33569(13) -0.2033(5)
C43 C 0.61670(13) 0.32877(13) -0.2887(5)
C44 C 0.60636(15) 0.30903(14) -0.4735(6)
H23 H 0.6129 0.3007 -0.5444
C45 C 0.57736(15) 0.31274(15) -0.4585(6)
H24 H 0.5643 0.3073 -0.5180
C46 C 0.56776(15) 0.32467(14) -0.3534(6)
H25 H 0.5479 0.3271 -0.3406
C47 C 0.58742(13) 0.33320(13) -0.2658(5)
C48 C 0.57553(13) 0.34606(14) -0.1499(6)
N1 N 0.62613(12) 0.31665(11) -0.3917(4)
N2 N 0.66169(11) 0.31499(11) -0.2022(5)
N3 N 0.72525(15) 0.4192(2) 0.3969(6)
N4 N 0.71351(16) 0.47501(18) 0.2873(7)
N5 N 0.47205(11) 0.42117(12) 0.3058(5)
N6 N 0.49256(11) 0.39377(11) 0.1128(4)
N7 N 0.52956(11) 0.53850(12) -0.1099(5)
N8 N 0.58464(11) 0.55671(11) -0.1576(5)
O1 O 0.53050(10) 0.36962(10) 0.4495(4)
O2 O 0.56972(10) 0.35885(10) 0.3424(4)
O3 O 0.56832(10) 0.43539(10) 0.4441(4)
O4 O 0.56132(9) 0.42406(10) 0.2522(4)
O5 O 0.55679(9) 0.41629(10) -0.0201(4)
H26 H 0.5579 0.3990 -0.0503
H27 H 0.5410 0.4175 0.0218
O6 O 0.60791(12) 0.46786(12) 0.2428(5)
H28 H 0.6240 0.4774 0.2221
H29 H 0.5932 0.4805 0.2399
O7 O 0.59269(11) 0.37382(10) 0.1298(4)
H30 H 0.5824 0.3700 0.1940
H31 H 0.5835 0.3667 0.0677
O8 O 0.63032(11) 0.40736(13) 0.2726(4)
O9 O 0.65479(11) 0.42910(12) 0.1327(4)
O10 O 0.57286(11) 0.47778(11) 0.0351(5)
O11 O 0.61665(11) 0.46412(10) -0.0215(4)
O12 O 0.61952(10) 0.40303(10) -0.0630(4)
O13 O 0.61595(10) 0.39176(9) -0.2562(4)
O14 O 0.55755(10) 0.39647(11) -0.3648(4)
H32 H 0.5548 0.3862 -0.4301
H33 H 0.5603 0.3843 -0.3052
O15 O 0.61154(10) 0.38677(10) -0.5175(4)
H34 H 0.5959 0.3753 -0.5322
H35 H 0.6185 0.3925 -0.5896
O16 O 0.57470(11) 0.48119(11) -0.3530(4)
O17 O 0.56670(11) 0.44715(10) -0.2219(4)
O18 O 0.63246(11) 0.45245(11) -0.2514(5)
H36 H 0.6508 0.4474 -0.2657
O19 O 0.65455(13) 0.43241(13) 0.5278(5)
O20 O 0.62191(12) 0.46317(13) 0.4726(5)
O21 O 0.58562(10) 0.33608(11) -0.0546(4)
O22 O 0.55726(10) 0.36576(10) -0.1605(4)
Co1 Co 0.546482(18) 0.582575(19) -0.12904(8)
Sm1 Sm 0.599429(7) 0.425799(7) 0.10766(3)
Sm2 Sm 0.599395(7) 0.428601(7) -0.38933(3)
N1C N 0.56665(11) 0.62387(12) -0.1417(4)
N2C N 0.56499(11) 0.58831(11) 0.0478(5)
N5H N 0.52795(11) 0.57883(12) -0.3058(5)
N6H N 0.50744(11) 0.60623(11) -0.1128(4)
O3_2 O 0.56832(10) 0.43539(10) -0.5559(4)
O19_2 O 0.65455(13) 0.43241(13) -0.4722(5)
O20_2 O 0.62191(12) 0.46317(13) -0.5274(5)
Co1E Co 0.667425(19) 0.296482(18) -0.37904(8)
Co1H Co 0.453518(18) 0.417425(19) 0.12904(8)
Sm2_2 Sm 0.599395(7) 0.428601(7) 0.61067(3)
O23 O 0.6376(4) 0.3270(5) 0.2273(19)
O24 O 0.5997(3) 0.2739(3) -0.7551(12)
O25 O 0.4693(3) 0.3528(4) -0.2543(15)
O26 O 0.6919(2) 0.4565(3) -0.2352(10)
O27 O 0.7690(2) 0.5282(3) 0.0908(8)
O28 O 0.6812(4) 0.4781(5) 0.007(2)
O29 O 0.4973(3) 0.4142(3) -0.2576(11)
O30 O 0.56722(18) 0.50409(16) 0.3825(7)
loop_
_geom_bond_atom_site_label_1
_geom_bond_atom_site_label_2
_geom_bond_site_symmetry_1
_geom_bond_site_symmetry_2
H1 O18 1_555 1_555
C1 C2 1_555 1_555
C2 C3 1_555 1_555
C3 H2 1_555 1_555
C4 C3 1_555 1_555
H3 C4 1_555 1_555
C5 C4 1_555 1_555
H4 C5 1_555 1_555
C6 C2 1_555 1_555
C7 C6 1_555 1_555
C8 H5 1_555 1_555
C9 C8 1_555 1_555
H6 C9 1_555 1_555
C10 C9 1_555 1_555
H7 C10 1_555 1_555
C11 C7 1_555 1_555
C12 C11 1_555 1_555
C13 C14 1_555 1_555
C14 C15 1_555 1_555
C15 H8 1_555 1_555
C16 C15 1_555 1_555
H9 C16 1_555 1_555
C17 C16 1_555 1_555
H10 C17 1_555 1_555
C18 C14 1_555 1_555
C19 C18 1_555 1_555
C20 H11 1_555 1_555
C21 C20 1_555 1_555
H12 C21 1_555 1_555
C22 C21 1_555 1_555
H13 C22 1_555 1_555
C23 C19 1_555 1_555
C24 C23 1_555 1_555
C25 C26 1_555 1_555
C26 C27 1_555 1_555
C27 H14 1_555 1_555
C28 C27 1_555 1_555
H15 C28 1_555 1_555
C29 C28 1_555 1_555
H16 C29 1_555 1_555
C30 C26 1_555 1_555
C31 C30 1_555 1_555
C32 H17 1_555 1_555
C33 C32 1_555 1_555
H18 C33 1_555 1_555
C34 C33 1_555 1_555
H19 C34 1_555 1_555
C35 C31 1_555 1_555
C36 C35 1_555 1_555
C37 C38 1_555 1_555
C38 C39 1_555 1_555
C39 H20 1_555 1_555
C40 C39 1_555 1_555
H21 C40 1_555 1_555
C41 C40 1_555 1_555
H22 C41 1_555 1_555
C42 C38 1_555 1_555
C43 C42 1_555 1_555
C44 H23 1_555 1_555
C45 C44 1_555 1_555
H24 C45 1_555 1_555
C46 C45 1_555 1_555
H25 C46 1_555 1_555
C47 C43 1_555 1_555
C48 C47 1_555 1_555
N1 C43 1_555 1_555
N2 C41 1_555 1_555
N3 C31 1_555 1_555
N4 C29 1_555 1_555
N5 C7 1_555 1_555
N6 C5 1_555 1_555
N7 C17 1_555 1_555
N8 C19 1_555 1_555
O1 C1 1_555 1_555
O2 C1 1_555 1_555
O3 C12 1_555 1_555
O4 C12 1_555 1_555
O5 H26 1_555 1_555
H27 O5 1_555 1_555
O6 H28 1_555 1_555
H29 O6 1_555 1_555
O7 H30 1_555 1_555
H31 O7 1_555 1_555
O8 C36 1_555 1_555
O9 C36 1_555 1_555
O10 C24 1_555 1_555
O11 C24 1_555 1_555
O12 C37 1_555 1_555
O13 C37 1_555 1_555
O14 H32 1_555 1_555
H33 O14 1_555 1_555
O15 H34 1_555 1_555
H35 O15 1_555 1_555
O16 C13 1_555 1_555
O17 C13 1_555 1_555
O18 H36 1_555 1_555
O19 C25 1_555 1_555
O20 C25 1_555 1_555
O21 C48 1_555 1_555
O22 C48 1_555 1_555
Co1 N7 1_555 1_555
Sm1 O4 1_555 1_555
Sm2 O13 1_555 1_555
N1C Co1 1_555 1_555
N2C Co1 1_555 1_555
N5H Co1 1_555 1_555
N6H Co1 1_555 1_555
O3_2 Sm2 1_555 1_555
O19_2 Sm2 1_555 1_555
O20_2 Sm2 1_555 1_555
Co1E N1 1_555 1_555
Co1H N5 1_555 1_555
Sm2_2 O3 1_555 1_555
C6 N6 1_555 1_555
C8 N5 1_555 1_555
C10 C11 1_555 1_555
C18 N7 1_555 1_555
C20 N8 1_555 1_555
C22 C23 1_555 1_555
C30 N4 1_555 1_555
C32 N3 1_555 1_555
C34 C35 1_555 1_555
C42 N2 1_555 1_555
C44 N1 1_555 1_555
C46 C47 1_555 1_555
N2 Co1E 1_555 1_555
N6 Co1H 1_555 1_555
N8 Co1 1_555 1_555
O5 Sm1 1_555 1_555
O6 Sm1 1_555 1_555
O7 Sm1 1_555 1_555
O8 Sm1 1_555 1_555
O9 Sm1 1_555 1_555
O10 Sm1 1_555 1_555
O11 Sm1 1_555 1_555
O12 Sm1 1_555 1_555
O14 Sm2 1_555 1_555
O15 Sm2 1_555 1_555
O16 Sm2 1_555 1_555
O17 Sm2 1_555 1_555
O18 Sm2 1_555 1_555
O19 Sm2_2 1_555 1_555
O20 Sm2_2 1_555 1_555

#END
