
#######################################################################
#
#                 Cambridge Crystallographic Data Centre
#                                CCDC 
#
#######################################################################
#
# If this CIF has been generated from an entry in the Cambridge 
# Structural Database, then it will include bibliographic, chemical, 
# crystal, experimental, refinement or atomic coordinate data resulting 
# from the CCDC's data processing and validation procedures.
#
#######################################################################

data_MIFTUS
_chemical_formula_moiety         '(C48 H48 Co1 Gd2 N8 O28)n'
_symmetry_cell_setting           tetragonal
_symmetry_space_group_name_H-M   'I 41/a'
_symmetry_Int_Tables_number      88
_space_group_name_Hall           '-I 4ad'
loop_
_symmetry_equiv_pos_site_id
_symmetry_equiv_pos_as_xyz
1 x,y,z
2 3/4-y,1/4+x,1/4+z
3 -x,1/2-y,z
4 1/4+y,1/4-x,1/4+z
5 1/2+x,1/2+y,1/2+z
6 1/4-y,3/4+x,3/4+z
7 1/2-x,-y,1/2+z
8 3/4+y,3/4-x,3/4+z
9 -x,-y,-z
10 1/4+y,3/4-x,3/4-z
11 x,1/2+y,-z
12 3/4-y,3/4+x,3/4-z
13 1/2-x,1/2-y,1/2-z
14 3/4+y,1/4-x,1/4-z
15 1/2+x,y,1/2-z
16 1/4-y,1/4+x,1/4-z
_cell_length_a                   45.204(2)
_cell_length_b                   45.204(2)
_cell_length_c                   10.7836(5)
_cell_angle_alpha                90
_cell_angle_beta                 90
_cell_angle_gamma                90
_cell_volume                     22035.2
loop_
_atom_site_label
_atom_site_type_symbol
_atom_site_fract_x
_atom_site_fract_y
_atom_site_fract_z
_atom_site_U_iso_or_equiv
_atom_site_thermal_displace_type
C1 C 1.05870(19) 0.8582(2) -0.2736(7) 0.0220 Uani
H1 H 1.0507 0.8651 -0.1997 0.0260 Uiso
C2 C 1.13619(18) 0.87465(18) -0.6094(8) 0.0157 Uani
C3 C 0.8444(2) 0.9145(2) -0.2665(8) 0.0243 Uani
C4 C 1.0624(2) 0.8286(2) -0.2899(8) 0.0240 Uani
H2 H 1.0569 0.8154 -0.2280 0.0290 Uiso
C5 C 1.0742(2) 0.8187(2) -0.3973(8) 0.0213 Uani
H3 H 1.0768 0.7985 -0.4101 0.0260 Uiso
C6 C 1.08229(19) 0.83846(19) -0.4870(7) 0.0190 Uani
C7 C 1.0948(2) 0.82681(19) -0.6080(7) 0.0180 Uani
C8 C 1.07825(17) 0.86798(19) -0.4659(7) 0.0157 Uani
C9 C 1.08480(19) 0.89146(18) -0.5553(8) 0.0190 Uani
C10 C 0.8553(3) 0.9501(3) -0.0271(12) 0.0617 Uani
C11 C 1.1094(2) 0.89346(19) -0.6290(7) 0.0170 Uani
C12 C 1.1105(2) 0.91561(18) -0.7141(8) 0.0220 Uani
H4 H 1.1268 0.9172 -0.7665 0.0270 Uiso
C13 C 1.0882(2) 0.9353(2) -0.7230(9) 0.0313 Uani
H5 H 1.0882 0.9497 -0.7848 0.0380 Uiso
C14 C 1.0657(2) 0.9338(2) -0.6398(8) 0.0237 Uani
H6 H 1.0510 0.9483 -0.6412 0.0290 Uiso
C15 C 1.1117(2) 0.9336(2) -0.3623(8) 0.0253 Uani
H7 H 1.1151 0.9141 -0.3394 0.0300 Uiso
C16 C 1.1348(2) 0.9500(2) -0.4067(10) 0.0363 Uani
H8 H 1.1539 0.9423 -0.4095 0.0430 Uiso
C17 C 1.1289(2) 0.9777(2) -0.4464(10) 0.0363 Uani
H9 H 1.1440 0.9889 -0.4818 0.0430 Uiso
C18 C 1.1013(2) 0.9896(2) -0.4353(8) 0.0267 Uani
C19 C 1.0799(2) 0.9727(2) -0.3802(8) 0.0267 Uani
C20 C 1.0495(2) 0.9823(2) -0.3604(8) 0.0247 Uani
C21 C 1.0417(2) 1.00882(19) -0.3085(9) 0.0247 Uani
C22 C 1.0124(2) 1.01539(19) -0.3012(8) 0.0240 Uani
H10 H 1.0063 1.0334 -0.2684 0.0290 Uiso
C23 C 0.99205(19) 0.99571(19) -0.3417(8) 0.0213 Uani
H11 H 0.9720 1.0005 -0.3400 0.0250 Uiso
C24 C 1.0009(2) 0.9691(2) -0.3844(8) 0.0230 Uani
H12 H 0.9868 0.9552 -0.4080 0.0280 Uiso
C25 C 1.0635(2) 1.02862(19) -0.2471(8) 0.0227 Uani
C26 C 1.0955(2) 1.0189(2) -0.4952(9) 0.0337 Uani
C27 C 1.0386(2) 0.9422(2) -0.1108(8) 0.0290 Uani
H13 H 1.0588 0.9462 -0.1100 0.0350 Uiso
C28 C 1.0213(2) 0.9562(2) -0.0285(8) 0.0287 Uani
H14 H 1.0291 0.9690 0.0305 0.0350 Uiso
C29 C 0.9918(2) 0.9509(2) -0.0350(8) 0.0260 Uani
H15 H 0.9791 0.9606 0.0197 0.0310 Uiso
C30 C 0.98008(19) 0.93162(19) -0.1206(7) 0.0183 Uani
C31 C 1.00000(19) 0.91631(18) -0.1938(7) 0.0183 Uani
C32 C 0.99269(18) 0.89271(19) -0.2818(7) 0.0180 Uani
C33 C 0.97466(19) 0.86922(18) -0.2592(7) 0.0170 Uani
C34 C 0.97198(19) 0.84785(19) -0.3458(8) 0.0217 Uani
H16 H 0.9602 0.8314 -0.3301 0.0260 Uiso
C35 C 0.98656(18) 0.85026(19) -0.4568(7) 0.0177 Uani
H17 H 0.9844 0.8360 -0.5184 0.0210 Uiso
C36 C 1.00412(19) 0.8741(2) -0.4733(8) 0.0210 Uani
H18 H 1.0142 0.8760 -0.5481 0.0250 Uiso
C37 C 0.9580(2) 0.86602(19) -0.1394(8) 0.0207 Uani
C38 C 0.94773(19) 0.92952(19) -0.1344(7) 0.0163 Uani
C39 C 0.7700(4) 0.8863(4) -0.1135(14) 0.0740 Uani
H19 H 0.7536 0.8782 -0.0742 0.0890 Uiso
C40 C 0.7841(4) 0.8675(4) -0.1702(14) 0.0740 Uani
H20 H 0.7777 0.8483 -0.1859 0.0890 Uiso
C41 C 0.8093(4) 0.8787(4) -0.2049(14) 0.0740 Uani
H21 H 0.8233 0.8655 -0.2352 0.0890 Uiso
C42 C 0.8173(2) 0.9081(2) -0.2013(9) 0.0303 Uani
C43 C 0.8006(4) 0.9291(4) -0.1510(14) 0.0741 Uani
C44 C 0.8073(4) 0.9602(4) -0.1537(14) 0.0745 Uani
C45 C 0.8326(4) 0.9682(4) -0.1059(14) 0.0750 Uani
C46 C 0.8397(4) 0.9997(4) -0.1386(13) 0.0760 Uani
H22 H 0.8581 1.0068 -0.1138 0.0910 Uiso
C47 C 0.8209(3) 1.0201(4) -0.2047(14) 0.0757 Uani
H23 H 0.8261 1.0387 -0.2344 0.0910 Uiso
C48 C 0.7941(4) 1.0069(4) -0.2151(14) 0.0753 Uani
H24 H 0.7787 1.0195 -0.2371 0.0900 Uiso
N1 N 1.06629(15) 0.87743(16) -0.3613(6) 0.0180 Uani
N2 N 1.06401(15) 0.91220(16) -0.5562(6) 0.0200 Uani
N3 N 1.08478(17) 0.94429(17) -0.3503(7) 0.0260 Uani
N4 N 1.02902(17) 0.96232(17) -0.3934(7) 0.0243 Uani
N5 N 1.02844(15) 0.92291(17) -0.1931(6) 0.0210 Uani
N6 N 1.00767(15) 0.89489(16) -0.3877(6) 0.0157 Uani
N7 N 0.7865(3) 0.9791(3) -0.1988(12) 0.0750 Uani
N8 N 0.7721(3) 0.9158(3) -0.0929(11) 0.0743 Uani
O1 O 1.11419(14) 0.80785(13) -0.5983(6) 0.0233 Uani
O2 O 1.08474(14) 0.83706(13) -0.7049(5) 0.0230 Uani
O3 O 1.14059(13) 0.86670(13) -0.5000(5) 0.0213 Uani
O4 O 1.15198(13) 0.87000(13) -0.6974(6) 0.0240 Uani
O5 O 1.11593(14) 1.03773(14) -0.4874(6) 0.0297 Uani
O6 O 1.07309(16) 1.02317(17) -0.5549(9) 0.0550 Uani
O7 O 1.06722(14) 1.05422(13) -0.2852(6) 0.0277 Uani
O8 O 1.07622(15) 1.01959(14) -0.1526(6) 0.0270 Uani
O9 O 0.93166(14) 0.85823(15) -0.1479(5) 0.0257 Uani
O10 O 0.97129(14) 0.87166(14) -0.0411(5) 0.0243 Uani
O11 O 0.93831(13) 0.92345(14) -0.2373(5) 0.0237 Uani
O12 O 0.93275(13) 0.93598(13) -0.0426(6) 0.0227 Uani
O13 O 0.94221(13) 0.89543(14) 0.1445(5) 0.0250 Uani
H25 H 0.9398 0.8847 0.2095 0.0370 Uiso
H26 H 0.9439 0.8841 0.0808 0.0370 Uiso
O14 O 0.88981(13) 0.88647(13) -0.0124(5) 0.0230 Uani
H27 H 0.8763 0.8741 0.0221 0.0340 Uiso
H28 H 0.8823 0.8923 -0.0860 0.0340 Uiso
O15 O 0.86764(14) 0.95120(14) 0.2531(6) 0.0283 Uani
H29 H 0.8492 0.9435 0.2484 0.0420 Uiso
H30 H 0.8733 0.9497 0.3332 0.0420 Uiso
O16 O 0.8775(2) 0.9598(2) -0.0197(10) 0.0780 Uani
O17 O 0.8452(2) 0.9302(2) 0.0419(10) 0.0860 Uani
O18 O 0.86824(19) 0.90446(19) -0.2248(7) 0.0517 Uani
O19 O 0.84438(14) 0.92921(15) -0.3634(5) 0.0267 Uani
O20 O 0.8903(2) 0.9642(2) -0.2396(9) 0.0663 Uani
H31 H 0.8806 0.9795 -0.2762 0.1000 Uiso
H32 H 0.8788 0.9582 -0.1753 0.1000 Uiso
O21 O 0.90820(16) 0.87364(14) -0.3615(5) 0.0290 Uani
H33 H 0.9130 0.8685 -0.2835 0.0440 Uiso
H34 H 0.8920 0.8632 -0.3819 0.0440 Uiso
O22 O 0.94242(13) 0.91534(14) -0.5087(5) 0.0223 Uani
H35 H 0.9414 0.8978 -0.5400 0.0340 Uiso
H36 H 0.9430 0.9281 -0.5682 0.0340 Uiso
Co1 Co 1.04635(3) 0.91876(3) -0.37482(10) 0.0189 Uani
Gd1 Gd 0.900975(9) 0.927196(10) 0.11899(4) 0.0157 Uani
Gd2 Gd 0.900125(9) 0.924602(10) -0.38046(4) 0.0194 Uani
O3K O 0.88330(13) 0.89059(13) 0.2500(5) 0.0213 Uani
O4K O 0.88000(13) 0.90198(13) -0.5526(6) 0.0240 Uani
O5H O 0.88407(14) 0.96227(14) -0.5126(6) 0.0297 Uani
O6H O 0.92691(16) 0.97683(17) -0.4451(9) 0.0550 Uani
O7H O 0.93278(14) 0.94578(13) 0.2852(6) 0.0277 Uani
O8H O 0.92378(15) 0.98041(14) 0.1526(6) 0.0270 Uani
Gd1H Gd 1.099025(9) 1.072804(10) -0.11899(4) 0.0157 Uani
Gd1I Gd 1.177196(10) 0.849025(9) -0.36899(4) 0.0157 Uani
Gd2H Gd 1.099875(9) 1.075398(10) -0.61954(4) 0.0194 Uani
Gd2I Gd 1.174602(10) 0.849875(9) -0.86954(4) 0.0194 Uani
O23 O 1.0692(2) 0.9977(2) 0.1175(9) 0.0723 Uani
O24 O 0.9986(2) 1.0829(2) -0.2458(10) 0.0763 Uani
O25 O 0.7257(3) 0.9818(2) -0.1532(10) 0.0873 Uani
O26 O 0.8083(3) 0.9583(3) 0.2646(12) 0.1203 Uani
O27 O 1.0392(5) 0.8695(4) -0.787(2) 0.0800 Uani
O28 O 0.7736(6) 1.0674(5) -0.245(2) 0.1017 Uani
loop_
_atom_site_aniso_label
_atom_site_aniso_U_11
_atom_site_aniso_U_22
_atom_site_aniso_U_33
_atom_site_aniso_U_23
_atom_site_aniso_U_13
_atom_site_aniso_U_12
C1 0.017(4) 0.037(5) 0.012(4) 0.002(4) 0.000(3) 0.007(4)
C2 0.016(4) 0.009(4) 0.022(4) 0.001(3) -0.002(4) -0.005(3)
C3 0.027(5) 0.022(5) 0.024(5) -0.001(4) 0.000(4) 0.003(4)
C4 0.023(5) 0.032(5) 0.017(4) 0.006(4) -0.001(4) -0.005(4)
C5 0.025(5) 0.016(4) 0.023(4) 0.003(4) -0.002(4) -0.002(4)
C6 0.019(4) 0.021(5) 0.017(4) -0.001(4) -0.003(4) 0.000(4)
C7 0.021(5) 0.015(4) 0.018(4) 0.001(4) 0.000(4) -0.004(4)
C8 0.011(4) 0.021(4) 0.015(4) 0.002(3) 0.003(3) -0.003(4)
C9 0.024(5) 0.012(4) 0.021(4) -0.001(3) -0.005(4) 0.004(4)
C10 0.063(4) 0.061(4) 0.061(4) 0.0003(10) -0.0003(10) -0.0013(10)
C11 0.021(5) 0.016(4) 0.014(4) 0.000(3) 0.002(3) -0.002(4)
C12 0.026(5) 0.015(4) 0.025(5) 0.005(4) 0.004(4) -0.002(4)
C13 0.044(6) 0.023(5) 0.027(5) 0.012(4) 0.010(5) 0.004(5)
C14 0.029(5) 0.018(5) 0.024(5) 0.008(4) -0.002(4) 0.004(4)
C15 0.021(5) 0.018(5) 0.037(5) -0.003(4) 0.000(4) 0.002(4)
C16 0.036(3) 0.036(3) 0.037(3) 0.0001(10) 0.0002(10) 0.0001(10)
C17 0.036(3) 0.036(3) 0.037(3) -0.0001(10) 0.0004(10) -0.0001(10)
C18 0.026(2) 0.026(2) 0.028(2) 0.0000(10) 0.0007(10) 0.0001(10)
C19 0.023(5) 0.020(5) 0.037(5) -0.010(4) 0.000(4) 0.001(4)
C20 0.024(5) 0.018(5) 0.032(5) -0.004(4) 0.007(4) -0.002(4)
C21 0.023(5) 0.017(5) 0.034(5) -0.003(4) 0.006(4) 0.002(4)
C22 0.027(5) 0.017(4) 0.028(5) 0.003(4) 0.003(4) 0.008(4)
C23 0.016(4) 0.016(4) 0.032(5) 0.000(4) 0.006(4) 0.005(4)
C24 0.017(5) 0.029(5) 0.023(5) 0.005(4) 0.005(4) 0.003(4)
C25 0.021(5) 0.018(5) 0.029(5) -0.003(4) 0.009(4) 0.006(4)
C26 0.034(3) 0.033(3) 0.034(2) 0.0001(10) 0.0009(10) 0.0005(10)
C27 0.014(4) 0.041(6) 0.032(5) -0.003(5) -0.001(4) -0.010(4)
C28 0.029(5) 0.033(5) 0.024(5) -0.007(4) -0.008(4) 0.004(5)
C29 0.027(5) 0.027(5) 0.024(5) -0.008(4) 0.006(4) -0.012(4)
C30 0.017(4) 0.019(4) 0.019(4) -0.003(3) 0.001(3) -0.004(4)
C31 0.023(5) 0.015(4) 0.017(4) -0.001(3) 0.000(4) -0.003(4)
C32 0.013(4) 0.023(5) 0.018(4) 0.001(4) -0.002(3) 0.005(4)
C33 0.023(5) 0.016(4) 0.012(4) 0.004(3) -0.001(3) -0.003(4)
C34 0.018(4) 0.015(4) 0.032(5) 0.003(4) -0.004(4) -0.001(4)
C35 0.020(4) 0.021(5) 0.012(4) -0.005(3) -0.003(3) 0.003(4)
C36 0.016(4) 0.027(5) 0.020(4) -0.005(4) -0.003(4) 0.004(4)
C37 0.034(5) 0.011(4) 0.017(4) 0.008(3) 0.006(4) 0.003(4)
C38 0.023(5) 0.016(4) 0.010(4) -0.005(3) 0.008(3) -0.001(4)
C39 0.070(2) 0.081(2) 0.071(2) -0.0015(17) -0.0088(17) 0.0036(17)
C40 0.070(2) 0.081(2) 0.071(2) -0.0006(18) -0.0087(18) 0.0023(19)
C41 0.070(2) 0.081(2) 0.071(2) 0.000(2) -0.009(2) 0.002(2)
C42 0.027(4) 0.037(4) 0.027(4) 0.007(3) -0.009(3) -0.010(3)
C43 0.0695(19) 0.0817(19) 0.0711(19) -0.0026(16) -0.0101(15) 0.0066(16)
C44 0.0702(18) 0.0816(19) 0.0718(18) -0.0037(15) -0.0107(15) 0.0078(16)
C45 0.0709(19) 0.081(2) 0.0730(19) -0.0043(16) -0.0116(16) 0.0079(17)
C46 0.072(2) 0.082(2) 0.074(2) -0.0043(17) -0.0119(17) 0.0081(17)
C47 0.072(2) 0.082(2) 0.073(2) -0.0042(17) -0.0114(17) 0.0083(17)
C48 0.071(2) 0.082(2) 0.073(2) -0.0037(17) -0.0107(17) 0.0084(17)
N1 0.014(4) 0.024(4) 0.016(4) 0.005(3) 0.003(3) 0.000(3)
N2 0.018(4) 0.018(4) 0.024(4) 0.000(3) 0.002(3) 0.004(3)
N3 0.020(4) 0.021(4) 0.037(4) -0.001(3) 0.005(3) -0.003(3)
N4 0.025(4) 0.019(4) 0.029(4) -0.003(3) 0.005(3) -0.004(3)
N5 0.014(4) 0.031(4) 0.018(4) -0.002(3) 0.000(3) -0.006(3)
N6 0.012(3) 0.024(4) 0.011(3) 0.000(3) -0.001(3) 0.004(3)
N7 0.0707(19) 0.082(2) 0.0722(19) -0.0034(16) -0.0105(16) 0.0082(16)
N8 0.0696(19) 0.082(2) 0.0712(19) -0.0023(16) -0.0095(16) 0.0055(17)
O1 0.030(4) 0.013(3) 0.027(3) -0.001(3) 0.001(3) 0.004(3)
O2 0.028(3) 0.021(3) 0.020(3) 0.005(3) 0.003(3) 0.001(3)
O3 0.018(3) 0.021(3) 0.025(3) 0.004(3) -0.010(3) 0.003(3)
O4 0.019(3) 0.025(3) 0.028(3) -0.008(3) 0.011(3) 0.001(3)
O5 0.031(4) 0.026(4) 0.032(4) -0.005(3) 0.010(3) -0.008(3)
O6 0.026(4) 0.032(4) 0.107(7) 0.019(5) -0.005(5) 0.000(3)
O7 0.031(4) 0.017(3) 0.035(4) -0.003(3) -0.003(3) -0.003(3)
O8 0.031(4) 0.020(3) 0.030(3) 0.001(3) 0.005(3) 0.001(3)
O9 0.030(4) 0.031(4) 0.016(3) 0.000(3) 0.006(3) -0.010(3)
O10 0.030(4) 0.030(4) 0.013(3) -0.001(3) 0.002(3) 0.000(3)
O11 0.017(3) 0.034(4) 0.020(3) -0.010(3) 0.004(3) 0.000(3)
O12 0.021(3) 0.019(3) 0.028(3) 0.000(3) 0.008(3) 0.002(3)
O13 0.021(3) 0.034(4) 0.020(3) 0.006(3) 0.003(3) 0.008(3)
O14 0.023(3) 0.021(3) 0.025(3) 0.003(3) -0.001(3) -0.007(3)
O15 0.023(3) 0.029(4) 0.033(4) 0.011(3) 0.007(3) 0.009(3)
O16 0.078(3) 0.079(3) 0.077(3) 0.0001(10) 0.0003(10) 0.0015(10)
O17 0.086(3) 0.086(3) 0.086(3) -0.0001(10) -0.0004(10) 0.0000(10)
O18 0.051(2) 0.053(2) 0.051(2) 0.0022(10) 0.0011(10) 0.0017(10)
O19 0.024(3) 0.033(4) 0.023(3) 0.005(3) -0.006(3) -0.008(3)
O20 0.063(3) 0.068(3) 0.068(3) -0.0122(19) -0.0037(19) 0.004(2)
O21 0.043(4) 0.026(4) 0.018(3) 0.000(3) -0.002(3) -0.004(3)
O22 0.020(3) 0.025(3) 0.022(3) 0.000(3) -0.002(3) -0.003(3)
Co1 0.0161(6) 0.0182(6) 0.0225(6) -0.0025(5) 0.0046(5) 0.0003(5)
Gd1 0.0150(2) 0.0174(3) 0.0148(3) 0.00165(16) -0.00015(16) -0.00159(16)
Gd2 0.0141(2) 0.0214(3) 0.0227(3) -0.00918(18) -0.00242(17) 0.00074(17)
O3K 0.021 0.018 0.025 0.01 0.004 -0.003
O4K 0.025 0.019 0.028 -0.011 -0.008 -0.001
O5H 0.031 0.026 0.032 -0.005 0.01 -0.008
O6H 0.026 0.032 0.107 0.019 -0.005 0
O7H 0.031 0.017 0.035 -0.003 -0.003 -0.003
O8H 0.031 0.02 0.03 0.001 0.005 0.001
Gd1H 0.015 0.0174 0.0148 0.00165 -0.00015 -0.00159
Gd1I 0.0174 0.015 0.0148 -0.00015 -0.00165 0.00159
Gd2H 0.0141 0.0214 0.0227 -0.00918 -0.00242 0.00074
Gd2I 0.0214 0.0141 0.0227 -0.00242 0.00918 -0.00074
O23 0.058(6) 0.051(6) 0.108(8) 0.029(5) -0.028(5) -0.015(5)
O24 0.060(6) 0.077(7) 0.092(8) -0.008(6) -0.010(6) 0.001(6)
O25 0.116(7) 0.068(6) 0.078(6) -0.012(5) -0.003(6) -0.012(6)
O26 0.086(7) 0.171(9) 0.104(7) -0.031(7) -0.002(6) 0.024(7)
O27 0.074(9) 0.072(9) 0.094(9) -0.028(8) -0.026(8) 0.039(8)
O28 0.108(11) 0.095(11) 0.102(11) -0.003(8) -0.013(9) 0.000(9)
loop_
_geom_bond_atom_site_label_1
_geom_bond_atom_site_label_2
_geom_bond_site_symmetry_1
_geom_bond_site_symmetry_2
C1 H1 1_555 1_555
C2 C11 1_555 1_555
C3 C42 1_555 1_555
C4 C1 1_555 1_555
H2 C4 1_555 1_555
C5 C4 1_555 1_555
H3 C5 1_555 1_555
C6 C5 1_555 1_555
C7 C6 1_555 1_555
C8 C6 1_555 1_555
C9 C8 1_555 1_555
C10 C45 1_555 1_555
C11 C9 1_555 1_555
C12 C11 1_555 1_555
H4 C12 1_555 1_555
C13 C12 1_555 1_555
H5 C13 1_555 1_555
C14 C13 1_555 1_555
H6 C14 1_555 1_555
C15 H7 1_555 1_555
C16 C15 1_555 1_555
H8 C16 1_555 1_555
C17 C16 1_555 1_555
H9 C17 1_555 1_555
C18 C17 1_555 1_555
C19 C18 1_555 1_555
C20 C19 1_555 1_555
C21 C20 1_555 1_555
C22 C21 1_555 1_555
H10 C22 1_555 1_555
C23 C22 1_555 1_555
H11 C23 1_555 1_555
C24 C23 1_555 1_555
H12 C24 1_555 1_555
C25 C21 1_555 1_555
C26 C18 1_555 1_555
C27 H13 1_555 1_555
C28 C27 1_555 1_555
H14 C28 1_555 1_555
C29 C28 1_555 1_555
H15 C29 1_555 1_555
C30 C29 1_555 1_555
C31 C30 1_555 1_555
C32 C31 1_555 1_555
C33 C32 1_555 1_555
C34 C33 1_555 1_555
H16 C34 1_555 1_555
C35 C34 1_555 1_555
H17 C35 1_555 1_555
C36 C35 1_555 1_555
H18 C36 1_555 1_555
C37 C33 1_555 1_555
C38 C30 1_555 1_555
C39 H19 1_555 1_555
C40 C39 1_555 1_555
H20 C40 1_555 1_555
C41 C40 1_555 1_555
H21 C41 1_555 1_555
C42 C41 1_555 1_555
C43 C42 1_555 1_555
C44 C43 1_555 1_555
C45 C44 1_555 1_555
C46 C45 1_555 1_555
H22 C46 1_555 1_555
C47 C46 1_555 1_555
H23 C47 1_555 1_555
C48 C47 1_555 1_555
H24 C48 1_555 1_555
N1 C1 1_555 1_555
N2 C9 1_555 1_555
N3 C15 1_555 1_555
N4 C20 1_555 1_555
N5 C27 1_555 1_555
N6 C32 1_555 1_555
N7 C44 1_555 1_555
N8 C39 1_555 1_555
O1 C7 1_555 1_555
O2 C7 1_555 1_555
O3 C2 1_555 1_555
O4 C2 1_555 1_555
O5 C26 1_555 1_555
O6 C26 1_555 1_555
O7 C25 1_555 1_555
O8 C25 1_555 1_555
O9 C37 1_555 1_555
O10 C37 1_555 1_555
O11 C38 1_555 1_555
O12 C38 1_555 1_555
O13 H25 1_555 1_555
H26 O13 1_555 1_555
O14 H27 1_555 1_555
H28 O14 1_555 1_555
O15 H29 1_555 1_555
H30 O15 1_555 1_555
O16 C10 1_555 1_555
O17 C10 1_555 1_555
O18 C3 1_555 1_555
O19 C3 1_555 1_555
O20 H31 1_555 1_555
H32 O20 1_555 1_555
O21 H33 1_555 1_555
H34 O21 1_555 1_555
O22 H35 1_555 1_555
H36 O22 1_555 1_555
Co1 N1 1_555 1_555
Gd1 O12 1_555 1_555
Gd2 O11 1_555 1_555
O3K Gd1 1_555 1_555
O4K Gd2 1_555 1_555
O5H Gd2 1_555 1_555
O6H Gd2 1_555 1_555
O7H Gd1 1_555 1_555
O8H Gd1 1_555 1_555
Gd1H O7 1_555 1_555
Gd1I O3 1_555 1_555
Gd2H O5 1_555 1_555
Gd2I O4 1_555 1_555
C8 N1 1_555 1_555
C14 N2 1_555 1_555
C19 N3 1_555 1_555
C24 N4 1_555 1_555
C31 N5 1_555 1_555
C36 N6 1_555 1_555
C43 N8 1_555 1_555
C48 N7 1_555 1_555
N2 Co1 1_555 1_555
N3 Co1 1_555 1_555
N4 Co1 1_555 1_555
N5 Co1 1_555 1_555
N6 Co1 1_555 1_555
O6 Gd2H 1_555 1_555
O8 Gd1H 1_555 1_555
O13 Gd1 1_555 1_555
O14 Gd1 1_555 1_555
O15 Gd1 1_555 1_555
O16 Gd1 1_555 1_555
O17 Gd1 1_555 1_555
O18 Gd2 1_555 1_555
O19 Gd2 1_555 1_555
O20 Gd2 1_555 1_555
O21 Gd2 1_555 1_555
O22 Gd2 1_555 1_555

#END
