
#######################################################################
#
#                 Cambridge Crystallographic Data Centre
#                                CCDC 
#
#######################################################################
#
# If this CIF has been generated from an entry in the Cambridge 
# Structural Database, then it will include bibliographic, chemical, 
# crystal, experimental, refinement or atomic coordinate data resulting 
# from the CCDC's data processing and validation procedures.
#
#######################################################################

data_OWILAJ
_chemical_formula_moiety         '(C92 H69 Cl2 O17 P2 Rh2 Zr3)n'
_symmetry_cell_setting           triclinic
_symmetry_space_group_name_H-M   'P -1'
_symmetry_Int_Tables_number      2
_space_group_name_Hall           '-P 1'
loop_
_symmetry_equiv_pos_site_id
_symmetry_equiv_pos_as_xyz
1 x,y,z
2 -x,-y,-z
_cell_length_a                   18.126(14)
_cell_length_b                   20.015(15)
_cell_length_c                   21.790(16)
_cell_angle_alpha                109.155(9)
_cell_angle_beta                 103.794(9)
_cell_angle_gamma                99.700(10)
_cell_volume                     6984.99
loop_
_atom_site_label
_atom_site_type_symbol
_atom_site_fract_x
_atom_site_fract_y
_atom_site_fract_z
Rh1 Rh 0.9207(2) 0.9071(2) 0.3474(2)
Rh2 Rh 0.5586(2) 0.2701(3) 0.5477(2)
Zr1 Zr -0.07441(14) 0.36712(13) -0.05739(13)
Zr2 Zr -0.00075(14) 0.49645(13) 0.11132(14)
Zr3 Zr 0.12812(14) 0.46769(14) 0.01423(13)
Cl1 Cl 0.5832(11) 0.2291(12) 0.4433(10)
Cl2 Cl 1.0173(6) 1.0216(6) 0.4130(6)
P1 P 0.4259(6) 0.2461(6) 0.5085(5)
P2 P 0.8296(5) 0.9600(5) 0.3077(5)
O1 O 0.0438(10) -0.2680(10) 0.0803(11)
C1 C 0.0269(18) -0.238(2) 0.1356(15)
O2 O -0.0501(17) -0.2522(18) 0.1263(16)
O3 O 0.1475(10) 0.3535(9) -0.0170(9)
O4 O 0.0273(10) 0.4168(10) -0.0775(10)
O5 O -0.0988(10) 0.4472(10) 0.0216(10)
O6 O 0.0277(10) 0.4122(9) 0.0359(9)
O7 O 0.1006(10) 0.5442(9) 0.0908(10)
O8 O 0.2431(9) 0.5543(10) 0.0639(9)
O9 O 0.2040(10) 0.6648(9) 0.0940(9)
O10 O 0.1801(10) 0.4498(10) 0.1074(10)
O11 O 0.0985(10) 0.4675(9) 0.1718(9)
O12 O 0.1825(11) 0.4522(11) 0.9297(13)
O13 O 0.1018(12) 0.4756(10) 0.8488(10)
O14 O 0.8880(11) 1.3146(10) 0.8243(11)
O15 O 0.9427(11) 1.4026(10) 0.7902(9)
O16 O 0.9434(10) 1.3929(10) 0.1222(9)
O17 O 0.8907(10) 1.3100(9) 0.0104(11)
C2 C 0.9107(18) 1.3315(18) 0.070(2)
C3 C 0.161(2) 0.4621(15) 0.882(2)
C4 C 0.8986(17) 1.2688(15) 0.1021(17)
C5 C 0.9402(15) 1.2827(13) 0.1694(16)
H1 H 0.9759 1.3295 0.1977
C6 C 0.9295(17) 1.2282(19) 0.1953(12)
H2 H 0.9579 1.2377 0.2414
C7 C 0.8773(18) 1.1598(16) 0.1539(18)
C8 C 0.8357(15) 1.1458(13) 0.0866(17)
H3 H 0.8000 1.0990 0.0583
C9 C 0.8463(16) 1.2003(18) 0.0607(12)
H4 H 0.8179 1.1908 0.0146
C10 C 0.185(2) -0.0382(15) 0.2942(15)
C11 C 0.2110(13) -0.082(2) 0.244(2)
H5 H 0.2648 -0.0699 0.2463
C12 C 0.158(2) -0.1442(17) 0.1908(16)
H6 H 0.1756 -0.1742 0.1566
C13 C 0.0793(18) -0.1622(13) 0.1875(14)
C14 C 0.0536(15) -0.1182(19) 0.2376(18)
H7 H -0.0002 -0.1306 0.2354
C15 C 0.107(2) -0.0563(18) 0.2909(15)
H8 H 0.0890 -0.0262 0.3251
C16 C 0.686(3) 0.365(3) 0.615(3)
H9 H 0.7179 0.3913 0.5930
C17 C 0.867(3) 1.105(3) 0.181(3)
C18 C 0.924(3) 1.090(2) 0.224(2)
H10 H 0.9779 1.1141 0.2329
C19 C 0.794(3) 1.059(3) 0.176(3)
H11 H 0.7498 1.0609 0.1435
C20 C 0.773(2) 1.012(2) 0.208(2)
H12 H 0.7208 0.9860 0.2005
C21 C 0.909(3) 1.043(2) 0.256(2)
H13 H 0.9525 1.0335 0.2832
C22 C 0.834(2) 1.008(2) 0.249(2)
C23 C 0.3630(15) 0.1510(12) 0.4588(12)
C24 C 0.2861(18) 0.1344(15) 0.4605(13)
H14 H 0.2718 0.1650 0.4969
C25 C 0.2301(12) 0.0729(17) 0.4091(17)
H15 H 0.1775 0.0615 0.4103
C26 C 0.2510(17) 0.0280(13) 0.3560(14)
C27 C 0.328(2) 0.0447(15) 0.3542(13)
H16 H 0.3421 0.0140 0.3179
C28 C 0.3838(13) 0.1062(16) 0.4056(16)
H17 H 0.4364 0.1176 0.4044
C29 C 0.8298(12) 1.0146(10) 0.4411(14)
H18 H 0.8364 0.9676 0.4380
C30 C 0.8271(13) 1.0640(14) 0.5021(11)
H19 H 0.8318 1.0508 0.5407
C31 C 0.8174(13) 1.1327(13) 0.5067(11)
C32 C 0.8105(13) 1.1521(10) 0.4503(15)
H20 H 0.8039 1.1990 0.4534
C33 C 0.8133(13) 1.1027(14) 0.3893(12)
H21 H 0.8085 1.1159 0.3507
C34 C 0.8229(12) 1.0339(12) 0.3847(10)
C35 C 0.8294(12) 1.2191(13) 0.6912(11)
H22 H 0.8133 1.2036 0.7240
C36 C 0.8735(12) 1.2908(11) 0.7107(9)
C37 C 0.8969(12) 1.3134(10) 0.6628(14)
H23 H 0.9271 1.3624 0.6762
C38 C 0.8762(14) 1.2642(15) 0.5954(12)
H24 H 0.8923 1.2796 0.5626
C39 C 0.8321(14) 1.1925(13) 0.5759(9)
C40 C 0.8087(11) 1.1699(9) 0.6238(12)
H25 H 0.7785 1.1209 0.6105
C41 C 0.905(2) 1.340(2) 0.7850(19)
C42 C 0.7228(17) 0.9020(16) 0.2681(17)
C43 C 0.707(2) 0.843(2) 0.202(2)
H26 H 0.7457 0.8381 0.1799
C44 C 0.631(2) 0.7937(19) 0.1728(19)
H27 H 0.6170 0.7538 0.1300
C45 C 0.576(2) 0.8052(19) 0.2089(19)
C46 C 0.589(2) 0.867(2) 0.273(2)
H28 H 0.5482 0.8761 0.2927
C47 C 0.666(3) 0.912(2) 0.302(2)
H29 H 0.6802 0.9500 0.3454
C48 C 0.4314(15) 0.7932(9) 0.1850(12)
H30 H 0.4415 0.8449 0.2069
C49 C 0.3543(12) 0.7489(13) 0.1574(13)
H31 H 0.3117 0.7704 0.1603
C50 C 0.3396(10) 0.6733(12) 0.1254(12)
C51 C 0.4020(13) 0.6419(9) 0.1211(11)
H32 H 0.3919 0.5902 0.0992
C52 C 0.4791(11) 0.6862(12) 0.1488(12)
H33 H 0.5217 0.6647 0.1458
C53 C 0.4938(10) 0.7618(12) 0.1807(12)
C54 C 0.888(3) 0.793(3) 0.400(3)
H34 H 0.8624 0.7859 0.4345
C55 C 0.2510(18) 0.6244(19) 0.0889(16)
C56 C 0.1620(18) 0.4497(15) 0.1608(17)
C57 C 0.2101(14) 0.4314(12) 0.2178(12)
C58 C 0.1868(12) 0.4342(13) 0.2747(15)
H35 H 0.1437 0.4535 0.2816
C59 C 0.2266(16) 0.4087(13) 0.3215(11)
H36 H 0.2107 0.4106 0.3603
C60 C 0.2897(15) 0.3805(13) 0.3113(13)
C61 C 0.3130(13) 0.3778(13) 0.2544(16)
H37 H 0.3561 0.3585 0.2475
C62 C 0.2732(16) 0.4032(14) 0.2076(12)
H38 H 0.2892 0.4014 0.1687
C63 C 0.3879(18) 0.2904(13) 0.4502(12)
C64 C 0.4368(12) 0.3257(13) 0.4235(13)
H39 H 0.4918 0.3297 0.4371
C65 C 0.4054(16) 0.3552(13) 0.3770(13)
H40 H 0.4389 0.3794 0.3587
C66 C 0.3250(17) 0.3493(14) 0.3571(13)
C67 C 0.2761(12) 0.3140(16) 0.3838(16)
H41 H 0.2212 0.3100 0.3703
C68 C 0.3075(16) 0.2845(15) 0.4304(15)
H42 H 0.2740 0.2603 0.4486
C69 C 0.3910(14) 0.2905(16) 0.5787(13)
C70 C 0.3895(15) 0.2610(13) 0.6281(16)
H43 H 0.4077 0.2186 0.6254
C71 C 0.3614(16) 0.2935(17) 0.6814(13)
H44 H 0.3604 0.2734 0.7152
C72 C 0.3347(15) 0.3555(17) 0.6854(13)
C73 C 0.3362(16) 0.3850(13) 0.6360(18)
H45 H 0.3180 0.4274 0.6386
C74 C 0.3643(17) 0.3524(16) 0.5826(14)
H46 H 0.3653 0.3726 0.5488
C75 C 0.292(2) 0.386(2) 0.730(2)
C76 C 0.2986(19) 0.3711(18) 0.7925(19)
H47 H 0.3326 0.3418 0.8017
C77 C 0.2595(17) 0.3957(16) 0.8386(17)
H48 H 0.2676 0.3838 0.8781
C78 C 0.2074(15) 0.4385(15) 0.8275(15)
C79 C 0.198(2) 0.4582(19) 0.772(2)
H49 H 0.1658 0.4886 0.7630
C80 C 0.244(2) 0.4280(19) 0.728(2)
H50 H 0.2368 0.4412 0.6892
C81 C 0.974(3) 0.856(3) 0.424(3)
H51 H 1.0087 0.8850 0.4721
C82 C 1.002(2) 0.845(2) 0.357(2)
H52 H 1.0573 0.8586 0.3575
C83 C 0.836(2) 0.805(2) 0.327(2)
H53 H 0.7789 0.8021 0.3177
C84 C 0.938(2) 0.771(2) 0.308(2)
H54 H 0.9579 0.7400 0.2729
C85 C 0.866(2) 0.7921(19) 0.277(2)
H55 H 0.8362 0.7742 0.2270
C86 C 0.923(3) 0.734(3) 0.360(3)
H56 H 0.8855 0.6850 0.3367
H57 H 0.9730 0.7315 0.3893
C87 C 0.644(4) 0.405(4) 0.664(3)
H58 H 0.6546 0.4597 0.6802
C88 C 0.560(3) 0.360(3) 0.642(3)
H59 H 0.5143 0.3813 0.6464
C89 C 0.569(3) 0.287(3) 0.657(3)
H60 H 0.5309 0.2587 0.6713
C90 C 0.687(4) 0.370(3) 0.715(3)
H61 H 0.6704 0.3816 0.7564
H62 H 0.7448 0.3873 0.7278
C91 C 0.653(4) 0.285(3) 0.666(3)
H63 H 0.6705 0.2500 0.6862
C92 C 0.675(3) 0.282(3) 0.600(3)
H64 H 0.7094 0.2522 0.5815
Zr1_2 Zr 0.92559(14) 1.36712(13) -0.05739(13)
Zr1_3 Zr 0.92559(14) 1.36712(13) 0.94261(13)
Zr1A Zr 0.07441(14) -0.36712(13) 0.05739(13)
Zr1A_2 Zr 0.07441(14) 0.63288(13) 0.05739(13)
Zr2_2 Zr 0.99925(14) 1.49645(13) 0.11132(14)
Zr2A Zr 0.00075(14) 0.50355(13) -0.11132(14)
Zr2A_2 Zr 0.00075(14) 0.50355(13) 0.88868(14)
Zr2A_3 Zr 1.00075(14) 1.50355(13) 0.88868(14)
Zr3_2 Zr 0.12812(14) 0.46769(14) 1.01423(13)
Zr3A Zr -0.12812(14) 0.53231(14) -0.01423(13)
O1A O -0.0438(10) 0.2680(10) -0.0803(11)
O4A O -0.0273(10) 0.5832(10) 0.0775(10)
O5A O 0.0988(10) 0.5528(10) -0.0216(10)
O7A O -0.1006(10) 0.4558(9) -0.0908(10)
O9A O -0.2040(10) 0.3352(9) -0.0940(9)
O12_2 O 0.1825(11) 0.4522(11) -0.0703(13)
O13A O -0.1018(12) 0.5244(10) 0.1512(10)
O14_2 O -0.1120(11) 0.3146(10) -0.1757(11)
O15A O 0.0573(11) 0.5974(10) 0.2098(9)
O16_2 O -0.0566(10) 0.3929(10) 0.1222(9)
O17_2 O -0.1093(10) 0.3100(9) 0.0104(11)
loop_
_geom_bond_atom_site_label_1
_geom_bond_atom_site_label_2
_geom_bond_site_symmetry_1
_geom_bond_site_symmetry_2
Rh1 Cl2 1_555 1_555
Rh2 Cl1 1_555 1_555
Zr1 O4 1_555 1_555
Zr2 O5 1_555 1_555
Zr3 O3 1_555 1_555
P1 Rh2 1_555 1_555
P2 Rh1 1_555 1_555
O1 C1 1_555 1_555
C1 O2 1_555 1_555
O4 Zr3 1_555 1_555
O5 Zr1 1_555 1_555
O6 Zr1 1_555 1_555
O7 Zr2 1_555 1_555
O8 Zr3 1_555 1_555
O9 C55 1_555 1_555
O10 Zr3 1_555 1_555
O11 Zr2 1_555 1_555
O12 C3 1_555 1_555
O13 C3 1_555 1_555
O14 C41 1_555 1_555
O15 C41 1_555 1_555
O16 C2 1_555 1_555
O17 C2 1_555 1_555
C2 C4 1_555 1_555
C3 C78 1_555 1_555
C4 C5 1_555 1_555
C5 H1 1_555 1_555
C6 C5 1_555 1_555
H2 C6 1_555 1_555
C7 C6 1_555 1_555
C8 C7 1_555 1_555
H3 C8 1_555 1_555
C9 C4 1_555 1_555
H4 C9 1_555 1_555
C10 C11 1_555 1_555
C11 H5 1_555 1_555
C12 C11 1_555 1_555
H6 C12 1_555 1_555
C13 C1 1_555 1_555
C14 C13 1_555 1_555
H7 C14 1_555 1_555
C15 C10 1_555 1_555
H8 C15 1_555 1_555
C16 Rh2 1_555 1_555
H9 C16 1_555 1_555
C17 C7 1_555 1_555
C18 C17 1_555 1_555
H10 C18 1_555 1_555
C19 C17 1_555 1_555
H11 C19 1_555 1_555
C20 C19 1_555 1_555
H12 C20 1_555 1_555
C21 C18 1_555 1_555
H13 C21 1_555 1_555
C22 P2 1_555 1_555
C23 P1 1_555 1_555
C24 C23 1_555 1_555
H14 C24 1_555 1_555
C25 C24 1_555 1_555
H15 C25 1_555 1_555
C26 C10 1_555 1_555
C27 C26 1_555 1_555
H16 C27 1_555 1_555
C28 C23 1_555 1_555
H17 C28 1_555 1_555
C29 H18 1_555 1_555
C30 C29 1_555 1_555
H19 C30 1_555 1_555
C31 C30 1_555 1_555
C32 C31 1_555 1_555
H20 C32 1_555 1_555
C33 C32 1_555 1_555
H21 C33 1_555 1_555
C34 P2 1_555 1_555
C35 H22 1_555 1_555
C36 C35 1_555 1_555
C37 C36 1_555 1_555
H23 C37 1_555 1_555
C38 C37 1_555 1_555
H24 C38 1_555 1_555
C39 C31 1_555 1_555
C40 C35 1_555 1_555
H25 C40 1_555 1_555
C41 C36 1_555 1_555
C42 P2 1_555 1_555
C43 C42 1_555 1_555
H26 C43 1_555 1_555
C44 C43 1_555 1_555
H27 C44 1_555 1_555
C45 C44 1_555 1_555
C46 C45 1_555 1_555
H28 C46 1_555 1_555
C47 C42 1_555 1_555
H29 C47 1_555 1_555
C48 H30 1_555 1_555
C49 C48 1_555 1_555
H31 C49 1_555 1_555
C50 C49 1_555 1_555
C51 C50 1_555 1_555
H32 C51 1_555 1_555
C52 C51 1_555 1_555
H33 C52 1_555 1_555
C53 C45 1_555 1_555
C54 H34 1_555 1_555
C55 O8 1_555 1_555
C56 O10 1_555 1_555
C57 C56 1_555 1_555
C58 C57 1_555 1_555
H35 C58 1_555 1_555
C59 C58 1_555 1_555
H36 C59 1_555 1_555
C60 C59 1_555 1_555
C61 C60 1_555 1_555
H37 C61 1_555 1_555
C62 C57 1_555 1_555
H38 C62 1_555 1_555
C63 P1 1_555 1_555
C64 C63 1_555 1_555
H39 C64 1_555 1_555
C65 C64 1_555 1_555
H40 C65 1_555 1_555
C66 C60 1_555 1_555
C67 C66 1_555 1_555
H41 C67 1_555 1_555
C68 C63 1_555 1_555
H42 C68 1_555 1_555
C69 P1 1_555 1_555
C70 C69 1_555 1_555
H43 C70 1_555 1_555
C71 C70 1_555 1_555
H44 C71 1_555 1_555
C72 C71 1_555 1_555
C73 C72 1_555 1_555
H45 C73 1_555 1_555
C74 C69 1_555 1_555
H46 C74 1_555 1_555
C75 C72 1_555 1_555
C76 C75 1_555 1_555
H47 C76 1_555 1_555
C77 C76 1_555 1_555
H48 C77 1_555 1_555
C78 C77 1_555 1_555
C79 C78 1_555 1_555
H49 C79 1_555 1_555
C80 C75 1_555 1_555
H50 C80 1_555 1_555
C81 Rh1 1_555 1_555
H51 C81 1_555 1_555
C82 Rh1 1_555 1_555
H52 C82 1_555 1_555
C83 Rh1 1_555 1_555
H53 C83 1_555 1_555
C84 C82 1_555 1_555
H54 C84 1_555 1_555
C85 Rh1 1_555 1_555
H55 C85 1_555 1_555
C86 C54 1_555 1_555
H56 C86 1_555 1_555
H57 C86 1_555 1_555
C87 C16 1_555 1_555
H58 C87 1_555 1_555
C88 Rh2 1_555 1_555
H59 C88 1_555 1_555
C89 Rh2 1_555 1_555
H60 C89 1_555 1_555
C90 C87 1_555 1_555
H61 C90 1_555 1_555
H62 C90 1_555 1_555
C91 C89 1_555 1_555
H63 C91 1_555 1_555
C92 Rh2 1_555 1_555
H64 C92 1_555 1_555
Zr1_2 O17 1_555 1_555
Zr1_3 O14 1_555 1_555
Zr1A O1 1_555 1_555
Zr1A_2 O7 1_555 1_555
Zr2_2 O16 1_555 1_555
Zr2A O4 1_555 1_555
Zr2A_2 O13 1_555 1_555
Zr2A_3 O15 1_555 1_555
Zr3_2 O12 1_555 1_555
Zr3A O5 1_555 1_555
O1A Zr1 1_555 1_555
O4A Zr2 1_555 1_555
O5A Zr3 1_555 1_555
O7A Zr1 1_555 1_555
O9A Zr1 1_555 1_555
O12_2 Zr3 1_555 1_555
O13A Zr2 1_555 1_555
O14_2 Zr1 1_555 1_555
O15A Zr2 1_555 1_555
O16_2 Zr2 1_555 1_555
O17_2 Zr1 1_555 1_555
Zr2 O6 1_555 1_555
Zr3 O6 1_555 1_555
Zr3 O7 1_555 1_555
O9 Zr1A_2 1_555 1_555
O11 C56 1_555 1_555
C8 C9 1_555 1_555
C12 C13 1_555 1_555
C14 C15 1_555 1_555
C16 C92 1_555 1_555
C20 C22 1_555 1_555
C21 C22 1_555 1_555
C25 C26 1_555 1_555
C27 C28 1_555 1_555
C29 C34 1_555 1_555
C33 C34 1_555 1_555
C38 C39 1_555 1_555
C39 C40 1_555 1_555
C46 C47 1_555 1_555
C48 C53 1_555 1_555
C50 C55 1_555 1_555
C52 C53 1_555 1_555
C54 C81 1_555 1_555
C54 C83 1_555 1_555
C61 C62 1_555 1_555
C65 C66 1_555 1_555
C67 C68 1_555 1_555
C73 C74 1_555 1_555
C79 C80 1_555 1_555
C81 C82 1_555 1_555
C83 C85 1_555 1_555
C84 C85 1_555 1_555
C84 C86 1_555 1_555
C87 C88 1_555 1_555
C88 C89 1_555 1_555
C90 C91 1_555 1_555
C91 C92 1_555 1_555
Zr1A_2 O4A 1_555 1_555
Zr1A_2 O5A 1_555 1_555
Zr2A O5A 1_555 1_555
Zr2A O7A 1_555 1_555
Zr3A O4A 1_555 1_555
Zr3A O7A 1_555 1_555

#END
