
#######################################################################
#
#                 Cambridge Crystallographic Data Centre
#                                CCDC 
#
#######################################################################
#
# If this CIF has been generated from an entry in the Cambridge 
# Structural Database, then it will include bibliographic, chemical, 
# crystal, experimental, refinement or atomic coordinate data resulting 
# from the CCDC's data processing and validation procedures.
#
#######################################################################

data_MAZJAY
_chemical_formula_moiety         '(C12 H26 Eu2 O22)n'
_symmetry_cell_setting           orthorhombic
_symmetry_space_group_name_H-M   'A m a 2'
_symmetry_Int_Tables_number      40
_space_group_name_Hall           'A 2 -2a'
loop_
_symmetry_equiv_pos_site_id
_symmetry_equiv_pos_as_xyz
1 x,y,z
2 -x,-y,z
3 1/2+x,-y,z
4 1/2-x,y,z
5 x,1/2+y,1/2+z
6 -x,1/2-y,1/2+z
7 1/2+x,1/2-y,1/2+z
8 1/2-x,1/2+y,1/2+z
_cell_length_a                   16.986(8)
_cell_length_b                   15.374(8)
_cell_length_c                   9.538(4)
_cell_angle_alpha                90
_cell_angle_beta                 90
_cell_angle_gamma                90
_cell_volume                     2490.78
loop_
_atom_site_label
_atom_site_type_symbol
_atom_site_fract_x
_atom_site_fract_y
_atom_site_fract_z
Eu1 Eu -0.0000 0.0000 0.00001(4)
Eu2 Eu -0.2500 0.148488(17) 0.49587(5)
C1 C -0.1042(4) 0.0709(4) 0.2702(6)
C2 C -0.0498(4) 0.1469(4) 0.2608(7)
H1 H -0.0798 0.2004 0.2535
H2 H -0.0173 0.1500 0.3443
C3 C 0.0605(4) 0.1984(4) 0.1330(7)
H3 H 0.0926 0.1954 0.2170
H4 H 0.0389 0.2567 0.1260
C4 C 0.1103(3) 0.1792(3) 0.0063(12)
C5 C -0.1128(4) 0.0937(4) -0.2474(7)
C6 C -0.0581(4) 0.0436(5) -0.3422(6)
H5 H -0.0880 0.0015 -0.3960
H6 H -0.0328 0.0832 -0.4073
O1 O -0.0990(3) 0.0121(3) 0.1812(4)
O2 O -0.1544(2) 0.0727(3) 0.3689(4)
O3 O -0.0017(2) 0.1365(3) 0.1410(5)
O4 O 0.1641(2) 0.2308(2) -0.0177(7)
O5 O 0.0952(2) 0.1116(3) -0.0635(4)
O6 O -0.0992(2) 0.0885(3) -0.1156(4)
O7 O -0.1661(2) 0.1354(3) -0.3013(4)
O8 O 0.0000 0.0000 -0.2603(6)
O9 O -0.2500 0.2079(5) 0.2536(6)
O10 O -0.2500 -0.0065(4) 0.5646(7)
O1A O 0.0990(3) -0.0121(3) 0.1812(4)
O3A O 0.0017(2) -0.1365(3) 0.1410(5)
O5A O -0.0952(2) -0.1116(3) -0.0635(4)
O6A O 0.0992(2) -0.0885(3) -0.1156(4)
O2C O -0.3456(2) 0.0727(3) 0.3689(4)
O4F O -0.3359(2) 0.2692(2) 0.4823(7)
O7C O -0.3339(2) 0.1354(3) 0.6987(4)
O4E O -0.1641(2) 0.2692(2) 0.4823(7)
O7_2 O -0.1661(2) 0.1354(3) 0.6987(4)
C6A C 0.0581(4) -0.0436(5) -0.3422(6)
C1A C 0.1042(4) -0.0709(4) 0.2702(6)
C2A C 0.0498(4) -0.1469(4) 0.2608(7)
C3A C -0.0605(4) -0.1984(4) 0.1330(7)
C4A C -0.1103(3) -0.1792(3) 0.0063(12)
C5A C 0.1128(4) -0.0937(4) -0.2474(7)
Eu2E Eu 0.2500 0.351512(17) -0.00413(5)
Eu2_2 Eu -0.2500 0.148488(17) -0.50413(5)
H5A H 0.0880 -0.0015 -0.3960
H6A H 0.0328 -0.0832 -0.4073
O2A O 0.1544(2) -0.0727(3) 0.3689(4)
H1A H 0.0798 -0.2004 0.2535
H2A H 0.0173 -0.1500 0.3443
H3A H -0.0926 -0.1954 0.2170
H4A H -0.0389 -0.2567 0.1260
O4A O -0.1641(2) -0.2308(2) -0.0177(7)
O7A O 0.1661(2) -0.1354(3) -0.3013(4)
Eu2A Eu 0.2500 -0.148488(17) 0.49587(5)
Eu2D Eu -0.2500 -0.351512(17) -0.00413(5)
Eu2A_2 Eu 0.2500 -0.148488(17) -0.50413(5)
O11 O 0.2500 0.0826(7) 0.1887(13)
O12 O 0.2500 0.5883(9) 0.3109(11)
O13 O 0.2500 0.3933(13) -0.4732(18)
O14 O -0.0993(8) 0.2880(10) 0.006(3)
O15 O 0.2500 0.1899(12) 0.4036(18)
loop_
_geom_bond_atom_site_label_1
_geom_bond_atom_site_label_2
_geom_bond_site_symmetry_1
_geom_bond_site_symmetry_2
Eu1 O1 1_555 1_555
Eu2 O2 1_555 1_555
C1 C2 1_555 1_555
C2 H1 1_555 1_555
H2 C2 1_555 1_555
C3 H3 1_555 1_555
H4 C3 1_555 1_555
C4 C3 1_555 1_555
C5 C6 1_555 1_555
C6 H5 1_555 1_555
H6 C6 1_555 1_555
O1 C1 1_555 1_555
O2 C1 1_555 1_555
O3 Eu1 1_555 1_555
O4 C4 1_555 1_555
O5 Eu1 1_555 1_555
O6 Eu1 1_555 1_555
O7 C5 1_555 1_555
O8 Eu1 1_555 1_555
O9 Eu2 1_555 1_555
O10 Eu2 1_555 1_555
O1A Eu1 1_555 1_555
O3A Eu1 1_555 1_555
O5A Eu1 1_555 1_555
O6A Eu1 1_555 1_555
O2C Eu2 1_555 1_555
O4F Eu2 1_555 1_555
O7C Eu2 1_555 1_555
O4E Eu2 1_555 1_555
O7_2 Eu2 1_555 1_555
C6A O8 1_555 1_555
C1A O1A 1_555 1_555
C2A O3A 1_555 1_555
C3A O3A 1_555 1_555
C4A O5A 1_555 1_555
C5A O6A 1_555 1_555
Eu2E O4 1_555 1_555
Eu2_2 O7 1_555 1_555
H5A C6A 1_555 1_555
H6A C6A 1_555 1_555
O2A C1A 1_555 1_555
H1A C2A 1_555 1_555
H2A C2A 1_555 1_555
H3A C3A 1_555 1_555
H4A C3A 1_555 1_555
O4A C4A 1_555 1_555
O7A C5A 1_555 1_555
Eu2A O2A 1_555 1_555
Eu2D O4A 1_555 1_555
Eu2A_2 O7A 1_555 1_555
C2 O3 1_555 1_555
C3 O3 1_555 1_555
C4 O5 1_555 1_555
C5 O6 1_555 1_555
C6 O8 1_555 1_555
C6A C5A 1_555 1_555
C1A C2A 1_555 1_555
C3A C4A 1_555 1_555

#END
