
#######################################################################
#
#                 Cambridge Crystallographic Data Centre
#                                CCDC 
#
#######################################################################
#
# If this CIF has been generated from an entry in the Cambridge 
# Structural Database, then it will include bibliographic, chemical, 
# crystal, experimental, refinement or atomic coordinate data resulting 
# from the CCDC's data processing and validation procedures.
#
#######################################################################

data_MAZJEC
_chemical_formula_moiety         '(C12 H22 Gd2 O20)n'
_symmetry_cell_setting           orthorhombic
_symmetry_space_group_name_H-M   'A m a 2'
_symmetry_Int_Tables_number      40
_space_group_name_Hall           'A 2 -2a'
loop_
_symmetry_equiv_pos_site_id
_symmetry_equiv_pos_as_xyz
1 x,y,z
2 -x,-y,z
3 1/2+x,-y,z
4 1/2-x,y,z
5 x,1/2+y,1/2+z
6 -x,1/2-y,1/2+z
7 1/2+x,1/2-y,1/2+z
8 1/2-x,1/2+y,1/2+z
_cell_length_a                   17.078(2)
_cell_length_b                   15.378(3)
_cell_length_c                   9.418(2)
_cell_angle_alpha                90
_cell_angle_beta                 90
_cell_angle_gamma                90
_cell_volume                     2473.41
loop_
_atom_site_label
_atom_site_type_symbol
_atom_site_fract_x
_atom_site_fract_y
_atom_site_fract_z
Gd1 Gd 0.0000 0.0000 0.0000(3)
Gd2 Gd -0.2500 0.15259(6) 0.4975(3)
C1 C -0.1059(10) 0.0745(13) 0.272(2)
C2 C -0.0532(12) 0.1498(14) 0.253(2)
H1 H -0.0843 0.2016 0.2364
H2 H -0.0233 0.1585 0.3392
C3 C 0.0598(13) 0.1996(17) 0.131(3)
H3 H 0.0900 0.1989 0.2177
H4 H 0.0382 0.2574 0.1180
C4 C 0.1106(8) 0.1770(9) 0.008(3)
C5 C -0.1142(14) 0.0925(18) -0.244(2)
C6 C -0.0577(12) 0.0450(16) -0.340(3)
H5 H -0.0865 0.0039 -0.3978
H6 H -0.0325 0.0864 -0.4024
O1 O -0.0962(8) 0.0131(10) 0.1861(18)
O2 O -0.1564(8) 0.0758(10) 0.3684(17)
O3 O -0.0015(6) 0.1376(10) 0.1385(18)
O4 O 0.1649(7) 0.2273(9) -0.021(4)
O5 O 0.0958(8) 0.1099(10) -0.0670(18)
O6 O -0.0979(7) 0.0894(11) -0.1138(16)
O7 O -0.1674(8) 0.1330(12) -0.3040(18)
O8 O -0.0000 -0.0000 -0.262(2)
O9 O -0.2500 0.2116(19) 0.247(3)
O10 O -0.2500 -0.0041(11) 0.569(3)
O1A O 0.0962(8) -0.0131(10) 0.1861(18)
O3A O 0.0015(6) -0.1376(10) 0.1385(18)
O5A O -0.0958(8) -0.1099(10) -0.0670(18)
O6A O 0.0979(7) -0.0894(11) -0.1138(16)
O2C O -0.3436(8) 0.0758(10) 0.3684(17)
O4F O -0.3351(7) 0.2727(9) 0.479(4)
O7C O -0.3326(8) 0.1330(12) 0.6960(18)
O4E O -0.1649(7) 0.2727(9) 0.479(4)
O7_2 O -0.1674(8) 0.1330(12) 0.6960(18)
C6A C 0.0577(12) -0.0450(16) -0.340(3)
C1A C 0.1059(10) -0.0745(13) 0.272(2)
C2A C 0.0532(12) -0.1498(14) 0.253(2)
C3A C -0.0598(13) -0.1996(17) 0.131(3)
C4A C -0.1106(8) -0.1770(9) 0.008(3)
C5A C 0.1142(14) -0.0925(18) -0.244(2)
Gd2E Gd 0.2500 0.34741(6) -0.0025(3)
Gd2_2 Gd -0.2500 0.15259(6) -0.5025(3)
H5A H 0.0865 -0.0039 -0.3978
H6A H 0.0325 -0.0864 -0.4024
O2A O 0.1564(8) -0.0758(10) 0.3684(17)
H1A H 0.0843 -0.2016 0.2364
H2A H 0.0233 -0.1585 0.3392
H3A H -0.0900 -0.1989 0.2177
H4A H -0.0382 -0.2574 0.1180
O4A O -0.1649(7) -0.2273(9) -0.021(4)
O7A O 0.1674(8) -0.1330(12) -0.3040(18)
Gd2A Gd 0.2500 -0.15259(6) 0.4975(3)
Gd2D Gd -0.2500 -0.34741(6) -0.0025(3)
Gd2A_2 Gd 0.2500 -0.15259(6) -0.5025(3)
O11 O 0.2500 0.378(2) -0.472(5)
O12 O 0.2500 0.5827(15) 0.310(3)
O13 O -0.099(2) 0.312(4) 0.042(7)
loop_
_geom_bond_atom_site_label_1
_geom_bond_atom_site_label_2
_geom_bond_site_symmetry_1
_geom_bond_site_symmetry_2
Gd1 O1 1_555 1_555
Gd2 O2 1_555 1_555
C1 C2 1_555 1_555
C2 H1 1_555 1_555
H2 C2 1_555 1_555
C3 H3 1_555 1_555
H4 C3 1_555 1_555
C4 C3 1_555 1_555
C5 C6 1_555 1_555
C6 H5 1_555 1_555
H6 C6 1_555 1_555
O1 C1 1_555 1_555
O2 C1 1_555 1_555
O3 Gd1 1_555 1_555
O4 C4 1_555 1_555
O5 Gd1 1_555 1_555
O6 Gd1 1_555 1_555
O7 C5 1_555 1_555
O8 Gd1 1_555 1_555
O9 Gd2 1_555 1_555
O10 Gd2 1_555 1_555
O1A Gd1 1_555 1_555
O3A Gd1 1_555 1_555
O5A Gd1 1_555 1_555
O6A Gd1 1_555 1_555
O2C Gd2 1_555 1_555
O4F Gd2 1_555 1_555
O7C Gd2 1_555 1_555
O4E Gd2 1_555 1_555
O7_2 Gd2 1_555 1_555
C6A O8 1_555 1_555
C1A O1A 1_555 1_555
C2A O3A 1_555 1_555
C3A O3A 1_555 1_555
C4A O5A 1_555 1_555
C5A O6A 1_555 1_555
Gd2E O4 1_555 1_555
Gd2_2 O7 1_555 1_555
H5A C6A 1_555 1_555
H6A C6A 1_555 1_555
O2A C1A 1_555 1_555
H1A C2A 1_555 1_555
H2A C2A 1_555 1_555
H3A C3A 1_555 1_555
H4A C3A 1_555 1_555
O4A C4A 1_555 1_555
O7A C5A 1_555 1_555
Gd2A O2A 1_555 1_555
Gd2D O4A 1_555 1_555
Gd2A_2 O7A 1_555 1_555
C2 O3 1_555 1_555
C3 O3 1_555 1_555
C4 O5 1_555 1_555
C5 O6 1_555 1_555
C6 O8 1_555 1_555
C6A C5A 1_555 1_555
C1A C2A 1_555 1_555
C3A C4A 1_555 1_555

#END
