
#######################################################################
#
#                 Cambridge Crystallographic Data Centre
#                                CCDC 
#
#######################################################################
#
# If this CIF has been generated from an entry in the Cambridge 
# Structural Database, then it will include bibliographic, chemical, 
# crystal, experimental, refinement or atomic coordinate data resulting 
# from the CCDC's data processing and validation procedures.
#
#######################################################################

data_LIQCUK
_chemical_formula_moiety         '(C20 H34 Ag2 N4 O8 S2)n'
_symmetry_cell_setting           rhombohedral
_symmetry_space_group_name_H-M   'R -3'
_symmetry_Int_Tables_number      148
_space_group_name_Hall           '-R 3'
loop_
_symmetry_equiv_pos_site_id
_symmetry_equiv_pos_as_xyz
1 x,y,z
2 -y,x-y,z
3 -x+y,-x,z
4 2/3+x,1/3+y,1/3+z
5 2/3-y,1/3+x-y,1/3+z
6 2/3-x+y,1/3-x,1/3+z
7 1/3+x,2/3+y,2/3+z
8 1/3-y,2/3+x-y,2/3+z
9 1/3-x+y,2/3-x,2/3+z
10 -x,-y,-z
11 y,-x+y,-z
12 x-y,x,-z
13 1/3-x,2/3-y,2/3-z
14 1/3+y,2/3-x+y,2/3-z
15 1/3+x-y,2/3+x,2/3-z
16 2/3-x,1/3-y,1/3-z
17 2/3+y,1/3-x+y,1/3-z
18 2/3+x-y,1/3+x,1/3-z
_cell_length_a                   30.1781(6)
_cell_length_b                   30.1781(6)
_cell_length_c                   9.8743(4)
_cell_angle_alpha                90
_cell_angle_beta                 90
_cell_angle_gamma                120.00
_cell_volume                     7787.91
loop_
_atom_site_label
_atom_site_type_symbol
_atom_site_fract_x
_atom_site_fract_y
_atom_site_fract_z
_atom_site_U_iso_or_equiv
_atom_site_thermal_displace_type
Ag1 Ag 0.302495(7) 0.030159(7) 0.066882(18) 0.0278 Uani
S1 S 0.38736(2) 0.06810(2) 0.17669(5) 0.0220 Uani
O1 O 0.46926(6) 0.04831(7) 0.26826(15) 0.0278 Uani
O2 O 0.24429(7) -0.00846(8) 0.24670(18) 0.0423 Uani
O3 O 0.24185(9) -0.03222(9) 0.4549(2) 0.0548 Uani
O4 O 0.30156(7) 0.04267(8) 0.3898(2) 0.0436 Uani
N1 N 0.49992(8) 0.04095(8) 0.06724(19) 0.0257 Uani
N2 N 0.26287(9) 0.00095(9) 0.3651(2) 0.0317 Uani
C1 C 0.46433(10) 0.16216(10) 0.2733(3) 0.0324 Uani
H1 H 0.4897 0.1597 0.2148 0.0390 Uiso
H2 H 0.4619 0.1443 0.3595 0.0390 Uiso
C2 C 0.48214(13) 0.21863(11) 0.3019(3) 0.0444 Uani
H3 H 0.4587 0.2209 0.3680 0.0530 Uiso
H4 H 0.5168 0.2353 0.3424 0.0530 Uiso
C3 C 0.48321(15) 0.24641(12) 0.1736(3) 0.0524 Uani
H5 H 0.5090 0.2469 0.1107 0.0630 Uiso
H6 H 0.4933 0.2823 0.1954 0.0630 Uiso
C4 C 0.43102(14) 0.22050(11) 0.1049(3) 0.0469 Uani
H7 H 0.4331 0.2386 0.0194 0.0560 Uiso
H8 H 0.4059 0.2228 0.1645 0.0560 Uiso
C5 C 0.41279(12) 0.16432(10) 0.0744(2) 0.0346 Uani
H9 H 0.3779 0.1478 0.0356 0.0410 Uiso
H10 H 0.4358 0.1619 0.0069 0.0410 Uiso
C6 C 0.41255(9) 0.13668(9) 0.2036(2) 0.0261 Uani
H11 H 0.3884 0.1396 0.2673 0.0310 Uiso
C7 C 0.43380(9) 0.06491(9) 0.0671(2) 0.0242 Uani
H12 H 0.4155 0.0393 -0.0048 0.0290 Uiso
H13 H 0.4549 0.0985 0.0228 0.0290 Uiso
C8 C 0.46879(8) 0.05066(9) 0.1433(2) 0.0215 Uani
C9 C 0.49939(10) 0.03903(10) -0.0813(2) 0.0268 Uani
H14 H 0.5349 0.0579 -0.1160 0.0320 Uiso
H15 H 0.4807 0.0557 -0.1172 0.0320 Uiso
C10 C 0.52639(9) 0.01613(10) 0.1292(2) 0.0271 Uani
H16 H 0.5245 0.0173 0.2291 0.0330 Uiso
H17 H 0.5629 0.0343 0.1022 0.0330 Uiso
Ag1I Ag 0.697505(7) -0.030159(7) -0.066882(18) 0.0278 Uani
Ag1E Ag 0.394331(10) 0.030838(7) 0.400215(18) 0.0278 Uani
Ag1N Ag 0.605669(10) -0.030838(7) -0.400215(18) 0.0278 Uani
S1I S 0.61264(2) -0.06810(2) -0.17669(5) 0.0220 Uani
S1G S 0.26523(2) -0.01407(3) -0.15664(5) 0.0220 Uani
S1P S 0.73477(2) 0.01407(3) 0.15664(5) 0.0220 Uani
O1I O 0.53074(6) -0.04831(7) -0.26826(15) 0.0278 Uani
O1G O 0.28502(7) 0.08762(9) -0.06507(15) 0.0278 Uani
O1P O 0.71498(7) -0.08762(9) 0.06507(15) 0.0278 Uani
O2I O 0.75571(7) 0.00846(8) -0.24670(18) 0.0423 Uani
O3I O 0.75815(9) 0.03222(9) -0.4549(2) 0.0548 Uani
O4I O 0.69844(7) -0.04267(8) -0.3898(2) 0.0436 Uani
N1I N 0.50008(8) -0.04095(8) -0.06724(19) 0.0257 Uani
N2I N 0.73713(9) -0.00095(9) -0.3651(2) 0.0317 Uani
C1I C 0.53567(10) -0.16216(10) -0.2733(3) 0.0324 Uani
H1I H 0.5103 -0.1597 -0.2148 0.0390 Uiso
H2I H 0.5381 -0.1443 -0.3595 0.0390 Uiso
C2I C 0.51786(13) -0.21863(11) -0.3019(3) 0.0444 Uani
H3I H 0.5413 -0.2209 -0.3680 0.0530 Uiso
H4I H 0.4832 -0.2353 -0.3424 0.0530 Uiso
C3I C 0.51679(15) -0.24641(12) -0.1736(3) 0.0524 Uani
H5I H 0.4910 -0.2469 -0.1107 0.0630 Uiso
H6I H 0.5067 -0.2823 -0.1954 0.0630 Uiso
C4I C 0.56898(14) -0.22050(11) -0.1049(3) 0.0469 Uani
H7I H 0.5669 -0.2386 -0.0194 0.0560 Uiso
H8I H 0.5941 -0.2228 -0.1645 0.0560 Uiso
C5I C 0.58721(12) -0.16432(10) -0.0744(2) 0.0346 Uani
H9I H 0.6221 -0.1478 -0.0356 0.0410 Uiso
H10I H 0.5642 -0.1619 -0.0069 0.0410 Uiso
C6I C 0.58745(9) -0.13668(9) -0.2036(2) 0.0261 Uani
H11I H 0.6116 -0.1396 -0.2673 0.0310 Uiso
C7I C 0.56620(9) -0.06491(9) -0.0671(2) 0.0242 Uani
H12I H 0.5845 -0.0393 0.0048 0.0290 Uiso
H13I H 0.5451 -0.0985 -0.0228 0.0290 Uiso
C8I C 0.53121(8) -0.05066(9) -0.1433(2) 0.0215 Uani
C9I C 0.50061(10) -0.03903(10) 0.0813(2) 0.0268 Uani
H14I H 0.4651 -0.0579 0.1160 0.0320 Uiso
H15I H 0.5193 -0.0557 0.1172 0.0320 Uiso
C10I C 0.47361(9) -0.01613(10) -0.1292(2) 0.0271 Uani
H16I H 0.4755 -0.0173 -0.2291 0.0330 Uiso
H17I H 0.4371 -0.0343 -0.1022 0.0330 Uiso
loop_
_atom_site_aniso_label
_atom_site_aniso_U_11
_atom_site_aniso_U_22
_atom_site_aniso_U_33
_atom_site_aniso_U_23
_atom_site_aniso_U_13
_atom_site_aniso_U_12
Ag1 0.02877(12) 0.03138(12) 0.02235(11) 0.00090(7) -0.00372(7) 0.01433(9)
S1 0.0240(3) 0.0264(3) 0.0185(3) -0.0012(2) 0.0002(2) 0.0147(2)
O1 0.0273(9) 0.0400(10) 0.0198(8) -0.0037(7) -0.0022(6) 0.0197(8)
O2 0.0355(11) 0.0491(12) 0.0255(9) -0.0001(8) 0.0022(8) 0.0086(9)
O3 0.0664(16) 0.0505(13) 0.0337(11) 0.0138(10) 0.0105(10) 0.0189(12)
O4 0.0346(11) 0.0423(12) 0.0396(11) -0.0132(9) 0.0036(8) 0.0086(10)
N1 0.0300(11) 0.0367(12) 0.0173(9) -0.0018(8) -0.0003(8) 0.0219(10)
N2 0.0386(13) 0.0342(12) 0.0243(10) -0.0031(9) 0.0047(9) 0.0196(11)
C1 0.0345(14) 0.0286(13) 0.0320(13) -0.0021(10) -0.0060(11) 0.0142(11)
C2 0.0527(19) 0.0307(15) 0.0424(16) -0.0091(12) -0.0075(13) 0.0152(14)
C3 0.081(3) 0.0269(15) 0.0432(16) 0.0012(12) 0.0074(16) 0.0224(16)
C4 0.081(2) 0.0386(16) 0.0347(15) 0.0010(12) -0.0022(15) 0.0400(17)
C5 0.0523(17) 0.0349(14) 0.0242(12) -0.0024(10) -0.0043(11) 0.0276(13)
C6 0.0327(13) 0.0257(12) 0.0232(11) -0.0039(9) 0.0010(9) 0.0171(10)
C7 0.0287(12) 0.0290(12) 0.0196(10) -0.0013(9) 0.0025(9) 0.0179(10)
C8 0.0207(11) 0.0210(11) 0.0201(10) -0.0023(8) -0.0002(8) 0.0084(9)
C9 0.0314(13) 0.0393(14) 0.0176(10) 0.0010(9) 0.0023(9) 0.0237(11)
C10 0.0257(12) 0.0430(15) 0.0207(11) -0.0023(10) -0.0020(9) 0.0232(11)
Ag1I 0.02877 0.03138 0.02235 0.0009 -0.00372 0.01433
Ag1E 0.03149 0.02877 0.02235 0.00372 0.00462 0.01444
Ag1N 0.03149 0.02877 0.02235 0.00372 0.00462 0.01444
S1I 0.024 0.0264 0.0185 -0.0012 0.0002 0.0147
S1G 0.0264 0.021 0.0185 0.0014 0.0012 0.0117
S1P 0.0264 0.021 0.0185 0.0014 0.0012 0.0117
O1I 0.0273 0.04 0.0198 -0.0037 -0.0022 0.0197
O1G 0.04 0.0279 0.0198 0.0015 0.0037 0.0203
O1P 0.04 0.0279 0.0198 0.0015 0.0037 0.0203
O2I 0.0355 0.0491 0.0255 -0.0001 0.0022 0.0086
O3I 0.0664 0.0505 0.0337 0.0138 0.0105 0.0189
O4I 0.0346 0.0423 0.0396 -0.0132 0.0036 0.0086
N1I 0.03 0.0367 0.0173 -0.0018 -0.0003 0.0219
N2I 0.0386 0.0342 0.0243 -0.0031 0.0047 0.0196
C1I 0.0345 0.0286 0.032 -0.0021 -0.006 0.0142
C2I 0.0527 0.0307 0.0424 -0.0091 -0.0075 0.0152
C3I 0.081 0.0269 0.0432 0.0012 0.0074 0.0224
C4I 0.081 0.0386 0.0347 0.001 -0.0022 0.04
C5I 0.0523 0.0349 0.0242 -0.0024 -0.0043 0.0276
C6I 0.0327 0.0257 0.0232 -0.0039 0.001 0.0171
C7I 0.0287 0.029 0.0196 -0.0013 0.0025 0.0179
C8I 0.0207 0.021 0.0201 -0.0023 -0.0002 0.0084
C9I 0.0314 0.0393 0.0176 0.001 0.0023 0.0237
C10I 0.0257 0.043 0.0207 -0.0023 -0.002 0.0232
loop_
_geom_bond_atom_site_label_1
_geom_bond_atom_site_label_2
_geom_bond_site_symmetry_1
_geom_bond_site_symmetry_2
Ag1 S1 1_555 1_555
S1 C6 1_555 1_555
O1 C8 1_555 1_555
O2 Ag1 1_555 1_555
O3 N2 1_555 1_555
O4 N2 1_555 1_555
N1 C8 1_555 1_555
N2 O2 1_555 1_555
C1 H1 1_555 1_555
H2 C1 1_555 1_555
C2 C1 1_555 1_555
H3 C2 1_555 1_555
H4 C2 1_555 1_555
C3 C2 1_555 1_555
H5 C3 1_555 1_555
H6 C3 1_555 1_555
C4 C3 1_555 1_555
H7 C4 1_555 1_555
H8 C4 1_555 1_555
C5 C4 1_555 1_555
H9 C5 1_555 1_555
H10 C5 1_555 1_555
C6 C1 1_555 1_555
H11 C6 1_555 1_555
C7 S1 1_555 1_555
H12 C7 1_555 1_555
H13 C7 1_555 1_555
C8 C7 1_555 1_555
C9 N1 1_555 1_555
H14 C9 1_555 1_555
H15 C9 1_555 1_555
C10 N1 1_555 1_555
H16 C10 1_555 1_555
H17 C10 1_555 1_555
Ag1I S1I 1_555 1_555
Ag1E S1 1_555 1_555
Ag1N S1I 1_555 1_555
S1I C6I 1_555 1_555
S1G Ag1 1_555 1_555
S1P Ag1I 1_555 1_555
O1I Ag1N 1_555 1_555
O1G Ag1 1_555 1_555
O1P Ag1I 1_555 1_555
O2I Ag1I 1_555 1_555
O3I N2I 1_555 1_555
O4I N2I 1_555 1_555
N1I C8I 1_555 1_555
N2I O2I 1_555 1_555
C1I H1I 1_555 1_555
H2I C1I 1_555 1_555
C2I C1I 1_555 1_555
H3I C2I 1_555 1_555
H4I C2I 1_555 1_555
C3I C2I 1_555 1_555
H5I C3I 1_555 1_555
H6I C3I 1_555 1_555
C4I C3I 1_555 1_555
H7I C4I 1_555 1_555
H8I C4I 1_555 1_555
C5I C4I 1_555 1_555
H9I C5I 1_555 1_555
H10I C5I 1_555 1_555
C6I C1I 1_555 1_555
H11I C6I 1_555 1_555
C7I S1I 1_555 1_555
H12I C7I 1_555 1_555
H13I C7I 1_555 1_555
C8I O1I 1_555 1_555
C9I C10 1_555 1_555
H14I C9I 1_555 1_555
H15I C9I 1_555 1_555
C10I C9 1_555 1_555
H16I C10I 1_555 1_555
H17I C10I 1_555 1_555
O1 Ag1E 1_555 1_555
C5 C6 1_555 1_555
N1I C9I 1_555 1_555
N1I C10I 1_555 1_555
C5I C6I 1_555 1_555
C7I C8I 1_555 1_555

#END
