
#######################################################################
#
#                 Cambridge Crystallographic Data Centre
#                                CCDC 
#
#######################################################################
#
# If this CIF has been generated from an entry in the Cambridge 
# Structural Database, then it will include bibliographic, chemical, 
# crystal, experimental, refinement or atomic coordinate data resulting 
# from the CCDC's data processing and validation procedures.
#
#######################################################################

data_KAVROQ
_chemical_formula_moiety         '(C12 H12 O24 Zn6)n'
_symmetry_cell_setting           orthorhombic
_symmetry_space_group_name_H-M   'P b c n'
_symmetry_Int_Tables_number      60
_space_group_name_Hall           '-P 2n 2ab'
loop_
_symmetry_equiv_pos_site_id
_symmetry_equiv_pos_as_xyz
1 x,y,z
2 1/2-x,1/2-y,1/2+z
3 -x,y,1/2-z
4 1/2+x,1/2-y,-z
5 -x,-y,-z
6 1/2+x,1/2+y,1/2-z
7 x,-y,1/2+z
8 1/2-x,1/2+y,z
_cell_length_a                   9.8680(4)
_cell_length_b                   18.2476(8)
_cell_length_c                   18.1400(8)
_cell_angle_alpha                90
_cell_angle_beta                 90
_cell_angle_gamma                90
_cell_volume                     3266.42
loop_
_atom_site_label
_atom_site_type_symbol
_atom_site_fract_x
_atom_site_fract_y
_atom_site_fract_z
Zn1 Zn 0.07747(3) 0.321295(13) 0.062216(13)
Zn2 Zn -0.10991(3) 0.215225(13) -0.035846(14)
Zn3 Zn 0.0000 0.31118(2) 0.2500
Zn4 Zn 0.0000 0.5000 0.0000
O1 O -0.02649(17) 0.41587(8) 0.08097(8)
O2 O -0.10819(19) 0.39092(10) 0.19320(9)
O3 O -0.08387(16) 0.24764(9) 0.07702(9)
O4 O -0.1102(2) 0.23017(10) 0.19796(9)
O5 O -0.00741(17) 0.31468(8) -0.04476(9)
O6 O -0.0022(2) 0.42837(9) -0.08994(10)
O7 O 0.19828(16) 0.23025(8) 0.03144(8)
O8 O 0.05919(18) 0.15222(9) -0.02663(10)
O9 O 0.15457(17) 0.31316(9) 0.16831(8)
O10 O 0.20881(19) 0.49237(9) 0.00873(10)
O11 O 0.37702(17) 0.29592(10) 0.14752(9)
O12 O 0.25487(16) 0.37268(8) 0.02123(9)
C1 C -0.1011(3) 0.42809(13) 0.13714(13)
C2 C -0.1360(3) 0.21677(13) 0.13286(14)
C3 C -0.0172(3) 0.36148(13) -0.09610(13)
C4 C 0.1704(2) 0.17018(12) -0.00047(13)
C5 C 0.2778(3) 0.30618(13) 0.18821(12)
C6 C 0.2876(3) 0.43968(13) 0.01266(14)
H1 H -0.151(3) 0.4662(18) 0.1334(17)
H2 H -0.200(3) 0.1796(16) 0.1224(18)
H3 H 0.240(3) 0.1371(16) -0.0061(15)
H4 H -0.038(3) 0.3440(17) -0.1424(17)
H5 H 0.302(3) 0.3117(13) 0.2391(16)
H6 H 0.381(3) 0.4489(14) 0.0128(15)
Zn1B Zn -0.07747(3) 0.321295(13) 0.437784(13)
Zn1C Zn -0.42253(3) 0.178705(13) -0.062216(13)
Zn1D Zn -0.07747(3) 0.678705(13) -0.062216(13)
Zn2B Zn 0.10991(3) 0.215225(13) 0.535846(14)
Zn2C Zn 0.39009(3) 0.284775(13) 0.035846(14)
Zn2A Zn -0.39009(3) 0.284775(13) 0.464154(14)
Zn2C_2 Zn -0.60991(3) 0.284775(13) 0.035846(14)
Zn2D Zn 0.10991(3) 0.784775(13) 0.035846(14)
Zn4B Zn 0.0000 0.5000 0.5000
Zn4C Zn -0.5000 0.0000 0.0000
O1B O 0.02649(17) 0.41587(8) 0.41903(8)
O1D O 0.02649(17) 0.58413(8) -0.08097(8)
O2B O 0.10819(19) 0.39092(10) 0.30680(9)
O3B O 0.08387(16) 0.24764(9) 0.42298(9)
O4B O 0.1102(2) 0.23017(10) 0.30204(9)
O5D O 0.00741(17) 0.68532(8) 0.04476(9)
O5B O 0.00741(17) 0.31468(8) 0.54476(9)
O6D O 0.0022(2) 0.57163(9) 0.08994(10)
O7C O -0.30172(16) 0.26975(8) -0.03144(8)
O7B O -0.19828(16) 0.23025(8) 0.46856(8)
O7A O 0.30172(16) 0.26975(8) 0.53144(8)
O8C O -0.44081(18) 0.34778(9) 0.02663(10)
O8B O -0.05919(18) 0.15222(9) 0.52663(10)
O9B O -0.15457(17) 0.31316(9) 0.33169(8)
O10C O -0.29119(19) 0.00763(9) -0.00873(10)
O10D O -0.20881(19) 0.50763(9) -0.00873(10)
O11B O -0.37702(17) 0.29592(10) 0.35248(9)
O11C O -0.12298(17) 0.20408(10) -0.14752(9)
O11A O 0.12298(17) 0.20408(10) 0.64752(9)
O12C O -0.24513(16) 0.12732(8) -0.02123(9)
O12B O -0.25487(16) 0.37268(8) 0.47877(9)
O12A O 0.24513(16) 0.12732(8) 0.52123(9)
C1B C 0.1011(3) 0.42809(13) 0.36286(13)
C2B C 0.1360(3) 0.21677(13) 0.36714(14)
C3D C 0.0172(3) 0.63852(13) 0.09610(13)
C4C C -0.3296(2) 0.32982(12) 0.00047(13)
C5B C -0.2778(3) 0.30618(13) 0.31179(12)
C6C C -0.2124(3) 0.06032(13) -0.01266(14)
H1B H 0.151(3) 0.4662(18) 0.3666(17)
H2B H 0.200(3) 0.1796(16) 0.3776(18)
H3C H -0.260(3) 0.3629(16) 0.0061(15)
H4D H 0.038(3) 0.6560(17) 0.1424(17)
H5B H -0.302(3) 0.3117(13) 0.2609(16)
H6C H -0.119(3) 0.0511(14) -0.0128(15)
loop_
_geom_bond_atom_site_label_1
_geom_bond_atom_site_label_2
_geom_bond_site_symmetry_1
_geom_bond_site_symmetry_2
Zn1 O1 1_555 1_555
Zn2 O3 1_555 1_555
Zn3 O2 1_555 1_555
Zn4 O1 1_555 1_555
O1 C1 1_555 1_555
O2 C1 1_555 1_555
O3 Zn1 1_555 1_555
O4 Zn3 1_555 1_555
O5 Zn1 1_555 1_555
O6 Zn4 1_555 1_555
O7 Zn1 1_555 1_555
O8 Zn2 1_555 1_555
O9 Zn1 1_555 1_555
O10 Zn4 1_555 1_555
O11 C5 1_555 1_555
O12 Zn1 1_555 1_555
C1 H1 1_555 1_555
C2 O3 1_555 1_555
C3 O5 1_555 1_555
C4 O7 1_555 1_555
C5 O9 1_555 1_555
C6 O10 1_555 1_555
H2 C2 1_555 1_555
H3 C4 1_555 1_555
H4 C3 1_555 1_555
H5 C5 1_555 1_555
H6 C6 1_555 1_555
Zn1B O1B 1_555 1_555
Zn1C O7C 1_555 1_555
Zn1D O1D 1_555 1_555
Zn2B O3B 1_555 1_555
Zn2C O7 1_555 1_555
Zn2A O7B 1_555 1_555
Zn2C_2 O8C 1_555 1_555
Zn2D O5D 1_555 1_555
Zn4B O1B 1_555 1_555
Zn4C O10C 1_555 1_555
O1B C1B 1_555 1_555
O1D Zn4 1_555 1_555
O2B Zn3 1_555 1_555
O3B Zn1B 1_555 1_555
O4B Zn3 1_555 1_555
O5D Zn1D 1_555 1_555
O5B Zn1B 1_555 1_555
O6D Zn4 1_555 1_555
O7C Zn2 1_555 1_555
O7B Zn1B 1_555 1_555
O7A Zn2B 1_555 1_555
O8C C4C 1_555 1_555
O8B Zn2B 1_555 1_555
O9B Zn3 1_555 1_555
O10C C6C 1_555 1_555
O10D Zn4 1_555 1_555
O11B Zn2A 1_555 1_555
O11C Zn2 1_555 1_555
O11A Zn2B 1_555 1_555
O12C Zn2 1_555 1_555
O12B Zn1B 1_555 1_555
O12A Zn2B 1_555 1_555
C1B O2B 1_555 1_555
C2B O3B 1_555 1_555
C3D O5D 1_555 1_555
C4C O7C 1_555 1_555
C5B O9B 1_555 1_555
C6C O12C 1_555 1_555
H1B C1B 1_555 1_555
H2B C2B 1_555 1_555
H3C C4C 1_555 1_555
H4D C3D 1_555 1_555
H5B C5B 1_555 1_555
H6C C6C 1_555 1_555
Zn2 O5 1_555 1_555
Zn3 O9 1_555 1_555
O4 C2 1_555 1_555
O6 C3 1_555 1_555
O8 C4 1_555 1_555
O11 Zn2C 1_555 1_555
O12 C6 1_555 1_555
O12 Zn2C 1_555 1_555
Zn1B O9B 1_555 1_555
Zn1C O12C 1_555 1_555
Zn2B O5B 1_555 1_555
Zn2A O12B 1_555 1_555
O4B C2B 1_555 1_555
O6D C3D 1_555 1_555
O11B C5B 1_555 1_555

#END
