
#######################################################################
#
#                 Cambridge Crystallographic Data Centre
#                                CCDC 
#
#######################################################################
#
# If this CIF has been generated from an entry in the Cambridge 
# Structural Database, then it will include bibliographic, chemical, 
# crystal, experimental, refinement or atomic coordinate data resulting 
# from the CCDC's data processing and validation procedures.
#
#######################################################################

data_KAVREG
_chemical_formula_moiety         '(C12 H12 Co6 O24)n'
_symmetry_cell_setting           orthorhombic
_symmetry_space_group_name_H-M   'P b c n'
_symmetry_Int_Tables_number      60
_space_group_name_Hall           '-P 2n 2ab'
loop_
_symmetry_equiv_pos_site_id
_symmetry_equiv_pos_as_xyz
1 x,y,z
2 1/2-x,1/2-y,1/2+z
3 -x,y,1/2-z
4 1/2+x,1/2-y,-z
5 -x,-y,-z
6 1/2+x,1/2+y,1/2-z
7 x,-y,1/2+z
8 1/2-x,1/2+y,z
_cell_length_a                   9.8839(4)
_cell_length_b                   18.2370(8)
_cell_length_c                   18.0818(8)
_cell_angle_alpha                90
_cell_angle_beta                 90
_cell_angle_gamma                90
_cell_volume                     3259.29
loop_
_atom_site_label
_atom_site_type_symbol
_atom_site_fract_x
_atom_site_fract_y
_atom_site_fract_z
Co1 Co 0.57822(4) 0.17890(2) 0.06090(2)
Co2 Co 0.38762(4) 0.28329(2) -0.03512(2)
Co3 Co 0.5000 0.18737(4) 0.2500
Co4 Co 0.5000 0.0000 0.0000
O1 O 0.4944(2) 0.18515(13) -0.04526(12)
O2 O 0.5005(3) 0.07185(13) -0.09028(14)
O3 O 0.7076(2) 0.00735(13) 0.00869(15)
O4 O 0.7553(2) 0.12687(13) 0.02214(13)
O5 O 0.4735(2) 0.08382(13) 0.08067(12)
O6 O 0.3897(2) 0.10832(15) 0.19332(14)
O7 O 0.6537(2) 0.18636(13) 0.16832(12)
O8 O 0.6981(2) 0.26963(12) 0.03194(12)
O9 O 0.5575(2) 0.34708(13) -0.02570(14)
O10 O 0.4151(2) 0.25131(13) 0.07636(12)
O11 O 0.3885(2) 0.26846(14) 0.19789(14)
O12 O 0.8755(2) 0.20289(15) 0.14715(13)
C1 C 0.4842(4) 0.1386(2) -0.0964(2)
C2 C 0.7871(3) 0.0600(2) 0.0123(2)
C3 C 0.3968(3) 0.0720(2) 0.1366(2)
C4 C 0.7765(3) 0.1921(2) 0.1883(2)
C5 C 0.6691(3) 0.32934(19) -0.0001(2)
C6 C 0.3630(3) 0.2820(2) 0.1332(2)
H1 H 0.876(5) 0.045(3) 0.015(3)
H2 H 0.333(3) 0.034(2) 0.1322(18)
H3 H 0.795(3) 0.1883(18) 0.2391(19)
H4 H 0.741(3) 0.3665(18) -0.0053(17)
H5 H 0.288(3) 0.322(2) 0.121(2)
H6 H 0.469(3) 0.154(2) -0.142(2)
Co1B Co 0.42178(4) 0.17890(2) 0.43910(2)
Co1C Co 0.07822(4) 0.32110(2) -0.06090(2)
Co1D Co 0.42178(4) -0.17890(2) -0.06090(2)
Co2B Co 0.61238(4) 0.28329(2) 0.53512(2)
Co2C Co 0.88762(4) 0.21671(2) 0.03512(2)
Co2A Co 0.11238(4) 0.21671(2) 0.46488(2)
Co2C_2 Co -0.11238(4) 0.21671(2) 0.03512(2)
Co2D Co 0.61238(4) -0.28329(2) 0.03512(2)
Co4B Co 0.5000 0.0000 0.5000
Co4C Co 0.0000 0.5000 0.0000
O1D O 0.5056(2) -0.18515(13) 0.04526(12)
O1B O 0.5056(2) 0.18515(13) 0.54526(12)
O2D O 0.4995(3) -0.07185(13) 0.09028(14)
O3C O 0.2076(2) 0.49265(13) -0.00869(15)
O3D O 0.2924(2) -0.00735(13) -0.00869(15)
O4C O 0.2553(2) 0.37313(13) -0.02214(13)
O4B O 0.2447(2) 0.12687(13) 0.47786(13)
O4A O 0.7447(2) 0.37313(13) 0.52214(13)
O5B O 0.5265(2) 0.08382(13) 0.41933(12)
O5D O 0.5265(2) -0.08382(13) -0.08067(12)
O6B O 0.6103(2) 0.10832(15) 0.30668(14)
O7B O 0.3463(2) 0.18636(13) 0.33168(12)
O8C O 0.1981(2) 0.23037(12) -0.03194(12)
O8B O 0.3019(2) 0.26963(12) 0.46806(12)
O8A O 0.8019(2) 0.23037(12) 0.53194(12)
O9C O 0.0575(2) 0.15292(13) 0.02570(14)
O9B O 0.4425(2) 0.34708(13) 0.52570(14)
O10B O 0.5849(2) 0.25131(13) 0.42364(12)
O11B O 0.6115(2) 0.26846(14) 0.30211(14)
O12B O 0.1245(2) 0.20289(15) 0.35285(13)
O12C O 0.3755(2) 0.29711(15) -0.14715(13)
O12A O 0.6245(2) 0.29711(15) 0.64715(13)
C1D C 0.5158(4) -0.1386(2) 0.0964(2)
C2C C 0.2871(3) 0.4400(2) -0.0123(2)
C3B C 0.6032(3) 0.0720(2) 0.3634(2)
C4B C 0.2235(3) 0.1921(2) 0.3117(2)
C5C C 0.1691(3) 0.17066(19) 0.0001(2)
C6B C 0.6370(3) 0.2820(2) 0.3668(2)
H1C H 0.376(5) 0.455(3) -0.015(3)
H2B H 0.667(3) 0.034(2) 0.3678(18)
H3B H 0.205(3) 0.1883(18) 0.2609(19)
H4C H 0.241(3) 0.1335(18) 0.0053(17)
H5B H 0.712(3) 0.322(2) 0.379(2)
H6D H 0.531(3) -0.154(2) 0.142(2)
loop_
_geom_bond_atom_site_label_1
_geom_bond_atom_site_label_2
_geom_bond_site_symmetry_1
_geom_bond_site_symmetry_2
Co1 O1 1_555 1_555
Co2 O1 1_555 1_555
Co3 O6 1_555 1_555
Co4 O2 1_555 1_555
O1 C1 1_555 1_555
O2 C1 1_555 1_555
O3 Co4 1_555 1_555
O4 Co1 1_555 1_555
O5 Co1 1_555 1_555
O6 C3 1_555 1_555
O7 Co1 1_555 1_555
O8 Co1 1_555 1_555
O9 Co2 1_555 1_555
O10 Co1 1_555 1_555
O11 Co3 1_555 1_555
O12 C4 1_555 1_555
C1 H6 1_555 1_555
C2 O3 1_555 1_555
C3 O5 1_555 1_555
C4 O7 1_555 1_555
C5 O8 1_555 1_555
C6 O10 1_555 1_555
H1 C2 1_555 1_555
H2 C3 1_555 1_555
H3 C4 1_555 1_555
H4 C5 1_555 1_555
H5 C6 1_555 1_555
Co1B O1B 1_555 1_555
Co1C O4C 1_555 1_555
Co1D O1D 1_555 1_555
Co2B O1B 1_555 1_555
Co2C O4 1_555 1_555
Co2A O4B 1_555 1_555
Co2C_2 O9C 1_555 1_555
Co2D O1D 1_555 1_555
Co4B O5B 1_555 1_555
Co4C O3C 1_555 1_555
O1D C1D 1_555 1_555
O2D Co4 1_555 1_555
O3C C2C 1_555 1_555
O3D Co4 1_555 1_555
O4C Co2 1_555 1_555
O4B Co1B 1_555 1_555
O4A Co2B 1_555 1_555
O5B Co1B 1_555 1_555
O5D Co4 1_555 1_555
O6B Co3 1_555 1_555
O7B Co3 1_555 1_555
O8C Co2 1_555 1_555
O8B Co1B 1_555 1_555
O8A Co2B 1_555 1_555
O9C C5C 1_555 1_555
O9B Co2B 1_555 1_555
O10B Co1B 1_555 1_555
O11B Co3 1_555 1_555
O12B Co2A 1_555 1_555
O12C Co2 1_555 1_555
O12A Co2B 1_555 1_555
C1D O2D 1_555 1_555
C2C O4C 1_555 1_555
C3B O5B 1_555 1_555
C4B O7B 1_555 1_555
C5C O8C 1_555 1_555
C6B O10B 1_555 1_555
H1C C2C 1_555 1_555
H2B C3B 1_555 1_555
H3B C4B 1_555 1_555
H4C C5C 1_555 1_555
H5B C6B 1_555 1_555
H6D C1D 1_555 1_555
Co2 O10 1_555 1_555
Co3 O7 1_555 1_555
Co4 O5 1_555 1_555
O4 C2 1_555 1_555
O8 Co2C 1_555 1_555
O9 C5 1_555 1_555
O11 C6 1_555 1_555
O12 Co2C 1_555 1_555
Co1B O7B 1_555 1_555
Co1C O8C 1_555 1_555
Co1D O5D 1_555 1_555
Co2B O10B 1_555 1_555
Co2A O8B 1_555 1_555
O6B C3B 1_555 1_555
O11B C6B 1_555 1_555
O12B C4B 1_555 1_555

#END
