
#######################################################################
#
#                 Cambridge Crystallographic Data Centre
#                                CCDC 
#
#######################################################################
#
# If this CIF has been generated from an entry in the Cambridge 
# Structural Database, then it will include bibliographic, chemical, 
# crystal, experimental, refinement or atomic coordinate data resulting 
# from the CCDC's data processing and validation procedures.
#
#######################################################################

data_KONFEA
_chemical_formula_moiety         '(C12 H6 La2 N6 O15 S3)n'
_symmetry_cell_setting           monoclinic
_symmetry_space_group_name_H-M   'P 21'
_symmetry_Int_Tables_number      4
_space_group_name_Hall           'P 2yb'
loop_
_symmetry_equiv_pos_site_id
_symmetry_equiv_pos_as_xyz
1 x,y,z
2 -x,1/2+y,-z
_cell_length_a                   7.0404(3)
_cell_length_b                   13.0015(6)
_cell_length_c                   13.7338(6)
_cell_angle_alpha                90
_cell_angle_beta                 100.8810(10)
_cell_angle_gamma                90
_cell_volume                     1234.53
loop_
_atom_site_label
_atom_site_type_symbol
_atom_site_fract_x
_atom_site_fract_y
_atom_site_fract_z
La1 La 0.79235(5) 1.03844(3) -0.04226(2)
La2 La 0.58678(5) 0.96409(3) 0.44074(3)
S1 S 1.2581(3) 1.05736(16) 0.18774(13)
S2 S 0.6321(4) 1.29124(16) -0.20186(14)
S3 S 0.5953(2) 1.30682(14) 0.04923(14)
O1 O 0.6583(7) 0.9954(5) 0.1116(4)
O2 O 0.6411(8) 0.9933(6) 0.2695(4)
O3 O 0.9216(8) 0.9091(5) 0.4269(4)
O4 O 1.2423(8) 0.9124(5) 0.4607(4)
O5 O 0.7335(8) 0.9720(4) -0.2166(3)
O6 O 0.6730(10) 0.9794(5) -0.3803(4)
O7 O 0.4130(9) 1.1127(5) -0.5067(4)
O8 O 0.3825(8) 1.2829(4) -0.5059(4)
O9 O 0.4211(7) 1.0253(4) -0.0972(4)
O10 O 0.1143(7) 1.0590(4) -0.0912(5)
O11 O -0.0729(7) 1.2171(4) -0.0046(4)
O12 O 0.0004(7) 1.3825(4) -0.0076(5)
O13 O 0.8027(14) 1.1237(8) 0.4510(8)
N1 N 1.0258(8) 1.0498(6) 0.1507(4)
N2 N 1.2690(8) 1.0100(5) 0.2987(4)
N3 N 0.6849(10) 1.1691(5) -0.1989(4)
N4 N 0.5365(10) 1.2979(5) -0.3166(5)
N5 N 0.5480(8) 1.1920(5) 0.0033(5)
N6 N 0.3716(8) 1.3401(5) 0.0440(4)
C1 C 0.9480(10) 1.0096(6) 0.2248(5)
C2 C 1.0906(9) 0.9861(6) 0.3110(5)
C3 C 0.7328(10) 0.9971(6) 0.2007(5)
C4 C 1.0790(10) 0.9311(6) 0.4076(5)
C5 C 0.6276(10) 1.1304(5) -0.2886(5)
C6 C 0.5407(11) 1.2051(6) -0.3582(5)
C7 C 0.6786(11) 1.0170(5) -0.2967(5)
C8 C 0.4413(10) 1.1987(6) -0.4658(5)
C9 C 0.3578(9) 1.1791(5) -0.0183(5)
C10 C 0.2558(9) 1.2650(5) 0.0075(5)
C11 C 0.2904(10) 1.0796(6) -0.0722(5)
C12 C 0.0434(8) 1.2879(5) -0.0032(5)
La1_2 La -0.20765(5) 1.03844(3) -0.04226(2)
La1A La 0.20765(5) 1.53844(3) 0.04226(2)
La2_2 La 0.58678(5) 0.96409(3) -0.55926(3)
La2_3 La 1.58678(5) 0.96409(3) 0.44074(3)
La2A La 0.41322(5) 1.46409(3) -0.44074(3)
O4_2 O 0.2423(8) 0.9124(5) 0.4607(4)
O6_2 O 0.6730(10) 0.9794(5) 0.6197(4)
O7_2 O 0.4130(9) 1.1127(5) 0.4933(4)
O8A O 0.6175(8) 0.7829(4) 0.5059(4)
O10_2 O 1.1143(7) 1.0590(4) -0.0912(5)
O11_2 O 0.9271(7) 1.2171(4) -0.0046(4)
O12A O 0.9996(7) 0.8825(4) 0.0076(5)
N2_2 N 0.2690(8) 1.0100(5) 0.2987(4)
N4A N 0.4635(10) 0.7979(5) 0.3166(5)
N6A N 0.6284(8) 0.8401(5) -0.0440(4)
O14 O 0.832(2) 1.2511(15) 0.3470(11)
O15 O 0.617(4) 1.2603(18) 0.3075(13)
loop_
_geom_bond_atom_site_label_1
_geom_bond_atom_site_label_2
_geom_bond_site_symmetry_1
_geom_bond_site_symmetry_2
La1 O1 1_555 1_555
La2 O2 1_555 1_555
S1 N1 1_555 1_555
S2 N3 1_555 1_555
S3 N5 1_555 1_555
O1 C3 1_555 1_555
O2 C3 1_555 1_555
O3 La2 1_555 1_555
O4 C4 1_555 1_555
O5 La1 1_555 1_555
O6 C7 1_555 1_555
O7 C8 1_555 1_555
O8 C8 1_555 1_555
O9 La1 1_555 1_555
O10 C11 1_555 1_555
O11 C12 1_555 1_555
O12 C12 1_555 1_555
O13 La2 1_555 1_555
N1 La1 1_555 1_555
N2 S1 1_555 1_555
N3 La1 1_555 1_555
N4 S2 1_555 1_555
N5 La1 1_555 1_555
N6 S3 1_555 1_555
C1 N1 1_555 1_555
C2 N2 1_555 1_555
C3 C1 1_555 1_555
C4 O3 1_555 1_555
C5 N3 1_555 1_555
C6 N4 1_555 1_555
C7 O5 1_555 1_555
C8 C6 1_555 1_555
C9 N5 1_555 1_555
C10 N6 1_555 1_555
C11 O9 1_555 1_555
C12 C10 1_555 1_555
La1_2 O10 1_555 1_555
La1A O12 1_555 1_555
La2_2 O6 1_555 1_555
La2_3 O4 1_555 1_555
La2A O8 1_555 1_555
O4_2 La2 1_555 1_555
O6_2 La2 1_555 1_555
O7_2 La2 1_555 1_555
O8A La2 1_555 1_555
O10_2 La1 1_555 1_555
O11_2 La1 1_555 1_555
O12A La1 1_555 1_555
N2_2 La2 1_555 1_555
N4A La2 1_555 1_555
N6A La1 1_555 1_555
O7 La2_2 1_555 1_555
O11 La1_2 1_555 1_555
N2 La2_3 1_555 1_555
N4 La2A 1_555 1_555
N6 La1A 1_555 1_555
C1 C2 1_555 1_555
C2 C4 1_555 1_555
C5 C6 1_555 1_555
C5 C7 1_555 1_555
C9 C10 1_555 1_555
C9 C11 1_555 1_555

#END
