
#######################################################################
#
#                 Cambridge Crystallographic Data Centre
#                                CCDC 
#
#######################################################################
#
# If this CIF has been generated from an entry in the Cambridge 
# Structural Database, then it will include bibliographic, chemical, 
# crystal, experimental, refinement or atomic coordinate data resulting 
# from the CCDC's data processing and validation procedures.
#
#######################################################################

data_KONFIE
_chemical_formula_moiety         '(C12 H6 Ce2 N6 O15 S3)n'
_symmetry_cell_setting           monoclinic
_symmetry_space_group_name_H-M   'P 21'
_symmetry_Int_Tables_number      4
_space_group_name_Hall           'P 2yb'
loop_
_symmetry_equiv_pos_site_id
_symmetry_equiv_pos_as_xyz
1 x,y,z
2 -x,1/2+y,-z
_cell_length_a                   6.975(5)
_cell_length_b                   12.901(8)
_cell_length_c                   13.551(9)
_cell_angle_alpha                90
_cell_angle_beta                 100.729(11)
_cell_angle_gamma                90
_cell_volume                     1198.06
loop_
_atom_site_label
_atom_site_type_symbol
_atom_site_fract_x
_atom_site_fract_y
_atom_site_fract_z
Ce1 Ce 0.20663(13) -0.03988(7) 1.04123(6)
Ce2 Ce 0.41472(13) 0.03765(8) 0.55864(7)
S1 S -0.2583(7) -0.0586(5) 0.8117(3)
S2 S 0.3671(9) -0.2918(4) 1.2010(4)
S3 S 0.4031(6) -0.3074(4) 0.9477(4)
O1 O 0.3460(19) 0.0043(11) 0.8904(9)
O2 O 0.3603(19) 0.0055(13) 0.7299(10)
O3 O 0.078(2) 0.0928(12) 0.5730(11)
O4 O -0.243(2) 0.0887(13) 0.5353(10)
O5 O 0.2596(16) 0.0289(11) 1.2148(9)
O6 O 0.329(2) 0.0249(13) 1.3799(11)
O7 O 0.585(2) -0.1120(12) 1.5075(11)
O8 O 0.6150(18) -0.2828(11) 1.5094(10)
O9 O 0.5780(18) -0.0273(12) 1.0970(10)
O10 O 0.8874(18) -0.0589(12) 1.0918(11)
O11 O 1.0730(17) -0.2199(10) 1.0052(10)
O12 O 1.0000(19) -0.3846(11) 1.0089(11)
O13 O 0.195(3) -0.118(2) 0.5424(15)
N1 N -0.025(2) -0.0475(18) 0.8496(13)
N2 N -0.269(2) -0.0107(12) 0.7002(12)
N3 N 0.314(2) -0.1679(14) 1.1988(12)
N4 N 0.463(2) -0.2983(14) 1.3154(13)
N5 N 0.453(2) -0.1937(14) 0.9949(13)
N6 N 0.625(2) -0.3436(13) 0.9538(11)
C1 C 0.045(3) -0.0131(14) 0.7739(14)
C2 C -0.091(2) 0.0137(14) 0.6893(14)
C3 C 0.262(2) 0.0020(15) 0.7973(13)
C4 C -0.072(2) 0.0691(14) 0.5928(14)
C5 C 0.373(2) -0.1285(14) 1.2873(12)
C6 C 0.459(3) -0.2045(15) 1.3578(15)
C7 C 0.323(2) -0.0194(13) 1.2967(13)
C8 C 0.557(3) -0.1996(17) 1.4659(14)
C9 C 0.644(3) -0.1799(15) 1.0156(13)
C10 C 0.746(2) -0.2669(14) 0.9924(12)
C11 C 0.713(3) -0.0799(15) 1.0721(14)
C12 C 0.959(2) -0.2887(14) 1.0058(13)
Ce1_2 Ce 1.20663(13) -0.03988(7) 1.04123(6)
Ce1A Ce 0.79337(13) -0.53988(7) 0.95877(6)
Ce2_2 Ce -0.58528(13) 0.03765(8) 0.55864(7)
Ce2_3 Ce 0.41472(13) 0.03765(8) 1.55864(7)
Ce2A Ce 0.58528(13) -0.46235(8) 1.44136(7)
O4_2 O 0.757(2) 0.0887(13) 0.5353(10)
O6_2 O 0.329(2) 0.0249(13) 0.3799(11)
O7_2 O 0.585(2) -0.1120(12) 0.5075(11)
O8A O 0.3850(18) 0.2172(11) 0.4906(10)
O10_2 O -0.1126(18) -0.0589(12) 1.0918(11)
O11_2 O 0.0730(17) -0.2199(10) 1.0052(10)
O12A O -0.0000(19) 0.1154(11) 0.9911(11)
N2_2 N 0.731(2) -0.0107(12) 0.7002(12)
N4A N 0.537(2) 0.2017(14) 0.6846(13)
N6A N 0.375(2) 0.1564(13) 1.0462(11)
O14 O 0.161(6) -0.242(4) 0.646(3)
O15 O 0.396(7) -0.259(4) 0.703(4)
loop_
_geom_bond_atom_site_label_1
_geom_bond_atom_site_label_2
_geom_bond_site_symmetry_1
_geom_bond_site_symmetry_2
Ce1 O1 1_555 1_555
Ce2 O2 1_555 1_555
S1 N1 1_555 1_555
S2 N3 1_555 1_555
S3 N5 1_555 1_555
O1 C3 1_555 1_555
O2 C3 1_555 1_555
O3 Ce2 1_555 1_555
O4 C4 1_555 1_555
O5 Ce1 1_555 1_555
O6 C7 1_555 1_555
O7 C8 1_555 1_555
O8 C8 1_555 1_555
O9 Ce1 1_555 1_555
O10 C11 1_555 1_555
O11 C12 1_555 1_555
O12 C12 1_555 1_555
O13 Ce2 1_555 1_555
N1 Ce1 1_555 1_555
N2 S1 1_555 1_555
N3 Ce1 1_555 1_555
N4 S2 1_555 1_555
N5 Ce1 1_555 1_555
N6 S3 1_555 1_555
C1 N1 1_555 1_555
C2 N2 1_555 1_555
C3 C1 1_555 1_555
C4 O3 1_555 1_555
C5 N3 1_555 1_555
C6 N4 1_555 1_555
C7 O5 1_555 1_555
C8 C6 1_555 1_555
C9 N5 1_555 1_555
C10 N6 1_555 1_555
C11 O9 1_555 1_555
C12 C10 1_555 1_555
Ce1_2 O10 1_555 1_555
Ce1A O12 1_555 1_555
Ce2_2 O4 1_555 1_555
Ce2_3 O6 1_555 1_555
Ce2A O8 1_555 1_555
O4_2 Ce2 1_555 1_555
O6_2 Ce2 1_555 1_555
O7_2 Ce2 1_555 1_555
O8A Ce2 1_555 1_555
O10_2 Ce1 1_555 1_555
O11_2 Ce1 1_555 1_555
O12A Ce1 1_555 1_555
N2_2 Ce2 1_555 1_555
N4A Ce2 1_555 1_555
N6A Ce1 1_555 1_555
O7 Ce2_3 1_555 1_555
O11 Ce1_2 1_555 1_555
N2 Ce2_2 1_555 1_555
N4 Ce2A 1_555 1_555
N6 Ce1A 1_555 1_555
C1 C2 1_555 1_555
C2 C4 1_555 1_555
C5 C6 1_555 1_555
C5 C7 1_555 1_555
C9 C10 1_555 1_555
C9 C11 1_555 1_555

#END
