
#######################################################################
#
#                 Cambridge Crystallographic Data Centre
#                                CCDC 
#
#######################################################################
#
# If this CIF has been generated from an entry in the Cambridge 
# Structural Database, then it will include bibliographic, chemical, 
# crystal, experimental, refinement or atomic coordinate data resulting 
# from the CCDC's data processing and validation procedures.
#
#######################################################################

data_PAVLOO
_chemical_formula_moiety         '(C10 H6 Ag1 As1 F6 N6 O1)n'
_symmetry_cell_setting           tetragonal
_symmetry_space_group_name_H-M   'P 42/m n m'
_symmetry_Int_Tables_number      136
_space_group_name_Hall           '-P 4n 2n'
loop_
_symmetry_equiv_pos_site_id
_symmetry_equiv_pos_as_xyz
1 x,y,z
2 1/2-y,1/2+x,1/2+z
3 1/2+y,1/2-x,1/2+z
4 y,x,-z
5 -x,-y,z
6 1/2-x,1/2+y,1/2-z
7 1/2+x,1/2-y,1/2-z
8 -y,-x,-z
9 -x,-y,-z
10 1/2+y,1/2-x,1/2-z
11 1/2-y,1/2+x,1/2-z
12 -y,-x,z
13 x,y,-z
14 1/2+x,1/2-y,1/2+z
15 1/2-x,1/2+y,1/2+z
16 y,x,z
_cell_length_a                   10.7675(17)
_cell_length_b                   10.7675(17)
_cell_length_c                   13.994(5)
_cell_angle_alpha                90
_cell_angle_beta                 90
_cell_angle_gamma                90
_cell_volume                     1622.45
loop_
_atom_site_label
_atom_site_type_symbol
_atom_site_fract_x
_atom_site_fract_y
_atom_site_fract_z
_atom_site_U_iso_or_equiv
_atom_site_thermal_displace_type
Ag1 Ag 0.5000 0.5000 0.18206(5) 0.0517 Uani
N1 N 0.6101(4) 0.3899(4) 0.0496(4) 0.0470 Uani
N2 N 0.6696(4) 0.3304(4) 0.2424(4) 0.0643 Uani
N3 N 0.8505(4) 0.1495(4) 0.2760(4) 0.0547 Uani
C1 C 0.6906(4) 0.3094(4) 0.0746(5) 0.0420 Uani
C2 C 0.7283(5) 0.2717(5) 0.1722(5) 0.0443 Uani
C3 C 0.7047(7) 0.2953(7) 0.3294(6) 0.0930 Uani
O1 O 0.7459(4) 0.2541(4) 0.0000 0.0410 Uani
C4 C 0.8158(5) 0.1842(5) 0.1886(4) 0.0513 Uani
C5 C 0.7919(6) 0.2081(6) 0.3459(5) 0.0743 Uani
H1 H 0.6670 0.3330 0.3817 0.1120 Uiso
H2 H 0.8535 0.1465 0.1364 0.0620 Uiso
H3 H 0.8117 0.1883 0.4088 0.0890 Uiso
N1G N 0.6101(4) 0.3899(4) -0.0496(4) 0.0470 Uani
N2G N 0.6696(4) 0.3304(4) -0.2424(4) 0.0643 Uani
C1G C 0.6906(4) 0.3094(4) -0.0746(5) 0.0420 Uani
C2G C 0.7283(5) 0.2717(5) -0.1722(5) 0.0443 Uani
C3G C 0.7047(7) 0.2953(7) -0.3294(6) 0.0930 Uani
C4G C 0.8158(5) 0.1842(5) -0.1886(4) 0.0513 Uani
C5G C 0.7919(6) 0.2081(6) -0.3459(5) 0.0743 Uani
H1G H 0.6670 0.3330 -0.3817 0.1120 Uiso
H2G H 0.8535 0.1465 -0.1364 0.0620 Uiso
H3G H 0.8117 0.1883 -0.4088 0.0890 Uiso
N3G N 0.8505(4) 0.1495(4) -0.2760(4) 0.0547 Uani
Ag1A Ag 1.0000 -0.0000 -0.31794(5) 0.0517 Uani
Ag1C Ag 0.5000 0.5000 -0.18206(5) 0.0517 Uani
Ag1E Ag 1.0000 0.0000 0.31794(5) 0.0517 Uani
N1D N 0.3899(4) 0.6101(4) 0.0496(4) 0.0470 Uani
N2D N 0.3304(4) 0.6696(4) 0.2424(4) 0.0643 Uani
N3E N 0.6495(4) 0.6495(4) 0.2240(4) 0.0547 Uani
N3F N 0.3505(4) 0.3505(4) 0.2240(4) 0.0547 Uani
As1 As 0.5000 0.0000 1.0000 0.1036 Uani
F1 F 0.3399(9) 0.0150(10) 1.0000 0.1160 Uani
F2 F 0.5145(9) 0.1104(10) 0.9159(11) 0.1417 Uani
F1D F 0.6601(9) -0.0150(10) 1.0000 0.1160 Uani
F2D F 0.4855(9) -0.1104(10) 0.9159(11) 0.1417 Uani
F2H F 0.4855(9) -0.1104(10) 1.0841(11) 0.1417 Uani
F2L F 0.5145(9) 0.1104(10) 1.0841(11) 0.1417 Uani
loop_
_atom_site_aniso_label
_atom_site_aniso_U_11
_atom_site_aniso_U_22
_atom_site_aniso_U_33
_atom_site_aniso_U_23
_atom_site_aniso_U_13
_atom_site_aniso_U_12
Ag1 0.0579(4) 0.0579(4) 0.0394(4) 0.000 0.000 0.0019(4)
N1 0.052(2) 0.052(2) 0.037(3) -0.0014(18) 0.0014(18) 0.008(3)
N2 0.076(3) 0.076(3) 0.041(3) -0.003(2) 0.003(2) 0.019(4)
N3 0.065 0.065 0.034 0.003 -0.003 0.009
C1 0.044(2) 0.044(2) 0.038(3) -0.003(2) 0.003(2) 0.001(3)
C2 0.046(2) 0.046(2) 0.041(4) -0.001(2) 0.001(2) 0.000(3)
C3 0.118(6) 0.118(6) 0.043(5) -0.009(3) 0.009(3) 0.054(7)
O1 0.043(2) 0.043(2) 0.037(3) 0.000 0.000 0.007(3)
C4 0.060(3) 0.060(3) 0.034(3) -0.003(2) 0.003(2) 0.010(4)
C5 0.095(4) 0.095(4) 0.033(4) 0.002(3) -0.002(3) 0.021(6)
N1G 0.052 0.052 0.037 0.0014 -0.0014 0.008
N2G 0.076 0.076 0.041 0.003 -0.003 0.019
C1G 0.044 0.044 0.038 0.003 -0.003 0.001
C2G 0.046 0.046 0.041 0.001 -0.001 0
C3G 0.118 0.118 0.043 0.009 -0.009 0.054
C4G 0.06 0.06 0.034 0.003 -0.003 0.01
C5G 0.095 0.095 0.033 -0.002 0.002 0.021
N3G 0.065 0.065 0.034 -0.003 0.003 0.009
Ag1A 0.0579 0.0579 0.0394 0 0 -0.0019
Ag1C 0.0579 0.0579 0.0394 0 0 0.0019
Ag1E 0.0579 0.0579 0.0394 0 0 -0.0019
N1D 0.052 0.052 0.037 0.0014 -0.0014 0.008
N2D 0.076 0.076 0.041 0.003 -0.003 0.019
N3E 0.065 0.065 0.034 -0.003 -0.003 -0.009
N3F 0.065 0.065 0.034 0.003 0.003 -0.009
As1 0.0824(11) 0.0678(10) 0.1606(18) 0.000 0.000 -0.0295(8)
F1 0.046(6) 0.067(8) 0.235(17) 0.000 0.000 -0.018(5)
F2 0.106(8) 0.123(8) 0.196(13) 0.088(9) -0.032(7) -0.057(7)
F1D 0.046 0.067 0.235 0 0 -0.018
F2D 0.106 0.123 0.196 -0.088 0.032 -0.057
F2H 0.106 0.123 0.196 0.088 -0.032 -0.057
F2L 0.106 0.123 0.196 -0.088 0.032 -0.057
loop_
_geom_bond_atom_site_label_1
_geom_bond_atom_site_label_2
_geom_bond_site_symmetry_1
_geom_bond_site_symmetry_2
Ag1 N1 1_555 1_555
N1 C1 1_555 1_555
N2 Ag1 1_555 1_555
N3 C4 1_555 1_555
C1 C2 1_555 1_555
C2 N2 1_555 1_555
C3 N2 1_555 1_555
O1 C1 1_555 1_555
C4 C2 1_555 1_555
C5 N3 1_555 1_555
H1 C3 1_555 1_555
H2 C4 1_555 1_555
H3 C5 1_555 1_555
As1 F1 1_555 1_555
F2 As1 1_555 1_555
N1G N1 1_555 1_555
N2G C2G 1_555 1_555
C1G O1 1_555 1_555
C2G C1G 1_555 1_555
C3G N2G 1_555 1_555
C4G C2G 1_555 1_555
C5G C3G 1_555 1_555
H1G C3G 1_555 1_555
H2G C4G 1_555 1_555
H3G C5G 1_555 1_555
N3G C4G 1_555 1_555
Ag1A N3G 1_555 1_555
Ag1C N1G 1_555 1_555
Ag1E N3 1_555 1_555
N1D Ag1 1_555 1_555
N2D Ag1 1_555 1_555
N3E Ag1 1_555 1_555
N3F Ag1 1_555 1_555
F1D As1 1_555 1_555
F2D As1 1_555 1_555
F2H As1 1_555 1_555
F2L As1 1_555 1_555
C3 C5 1_555 1_555
N1G C1G 1_555 1_555
N2G Ag1C 1_555 1_555
C5G N3G 1_555 1_555

#END
