
#######################################################################
#
#                 Cambridge Crystallographic Data Centre
#                                CCDC 
#
#######################################################################
#
# If this CIF has been generated from an entry in the Cambridge 
# Structural Database, then it will include bibliographic, chemical, 
# crystal, experimental, refinement or atomic coordinate data resulting 
# from the CCDC's data processing and validation procedures.
#
#######################################################################

data_IXIPEK
_chemical_formula_moiety         'C32 Co13 N34 O14 Re28 Se32'
_symmetry_cell_setting           cubic
_symmetry_space_group_name_H-M   'I m -3 m'
_symmetry_Int_Tables_number      229
_space_group_name_Hall           '-I 4 2 3'
loop_
_symmetry_equiv_pos_site_id
_symmetry_equiv_pos_as_xyz
1 x,y,z
2 z,x,y
3 y,z,x
4 y,x,-z
5 y,-x,z
6 -y,x,z
7 x,z,-y
8 -x,z,y
9 x,-z,y
10 z,y,-x
11 z,-y,x
12 -z,y,x
13 1/2+x,1/2+y,1/2+z
14 1/2+z,1/2+x,1/2+y
15 1/2+y,1/2+z,1/2+x
16 1/2+y,1/2+x,1/2-z
17 1/2+y,1/2-x,1/2+z
18 1/2-y,1/2+x,1/2+z
19 1/2+x,1/2+z,1/2-y
20 1/2-x,1/2+z,1/2+y
21 1/2+x,1/2-z,1/2+y
22 1/2+z,1/2+y,1/2-x
23 1/2+z,1/2-y,1/2+x
24 1/2-z,1/2+y,1/2+x
25 -x,-y,z
26 -x,y,-z
27 x,-y,-z
28 z,-x,-y
29 -z,-x,y
30 -z,x,-y
31 -y,z,-x
32 y,-z,-x
33 -y,-z,x
34 -y,-x,-z
35 -x,-z,-y
36 -z,-y,-x
37 1/2-x,1/2-y,1/2+z
38 1/2-x,1/2+y,1/2-z
39 1/2+x,1/2-y,1/2-z
40 1/2+z,1/2-x,1/2-y
41 1/2-z,1/2-x,1/2+y
42 1/2-z,1/2+x,1/2-y
43 1/2-y,1/2+z,1/2-x
44 1/2+y,1/2-z,1/2-x
45 1/2-y,1/2-z,1/2+x
46 1/2-y,1/2-x,1/2-z
47 1/2-x,1/2-z,1/2-y
48 1/2-z,1/2-y,1/2-x
49 -x,-y,-z
50 -z,-x,-y
51 -y,-z,-x
52 -y,-x,z
53 -y,x,-z
54 y,-x,-z
55 -x,-z,y
56 x,-z,-y
57 -x,z,-y
58 -z,-y,x
59 -z,y,-x
60 z,-y,-x
61 1/2-x,1/2-y,1/2-z
62 1/2-z,1/2-x,1/2-y
63 1/2-y,1/2-z,1/2-x
64 1/2-y,1/2-x,1/2+z
65 1/2-y,1/2+x,1/2-z
66 1/2+y,1/2-x,1/2-z
67 1/2-x,1/2-z,1/2+y
68 1/2+x,1/2-z,1/2-y
69 1/2-x,1/2+z,1/2-y
70 1/2-z,1/2-y,1/2+x
71 1/2-z,1/2+y,1/2-x
72 1/2+z,1/2-y,1/2-x
73 x,y,-z
74 x,-y,z
75 -x,y,z
76 -z,x,y
77 z,x,-y
78 z,-x,y
79 y,-z,x
80 -y,z,x
81 y,z,-x
82 y,x,z
83 x,z,y
84 z,y,x
85 1/2+x,1/2+y,1/2-z
86 1/2+x,1/2-y,1/2+z
87 1/2-x,1/2+y,1/2+z
88 1/2-z,1/2+x,1/2+y
89 1/2+z,1/2+x,1/2-y
90 1/2+z,1/2-x,1/2+y
91 1/2+y,1/2-z,1/2+x
92 1/2-y,1/2+z,1/2+x
93 1/2+y,1/2+z,1/2-x
94 1/2+y,1/2+x,1/2+z
95 1/2+x,1/2+z,1/2+y
96 1/2+z,1/2+y,1/2+x
_cell_length_a                   19.6340(10)
_cell_length_b                   19.6340(10)
_cell_length_c                   19.6340(10)
_cell_angle_alpha                90
_cell_angle_beta                 90
_cell_angle_gamma                90
_cell_volume                     7568.79
loop_
_atom_site_label
_atom_site_type_symbol
_atom_site_fract_x
_atom_site_fract_y
_atom_site_fract_z
Re1 Re 0.186795(19) 0.28179(3) 0.186795(19)
Se1 Se 0.28007(6) 0.28007(6) 0.09830(7)
Se2 Se 0.15935(8) 0.15935(8) 0.15935(8)
Co1 Co 0.0000 0.3419(2) 0.0000
C1 C 0.1152(6) 0.3157(10) 0.1152(6)
N1 N 0.0753(5) 0.3342(10) 0.0753(5)
O1 O 0.0000 0.448(2) 0.0000
O2 O 0.0000 0.231(3) 0.0000
C1I C 0.1152(6) 0.3157(10) -0.1152(6)
N1I N 0.0753(5) 0.3342(10) -0.0753(5)
C1K C -0.1152(6) 0.3157(10) 0.1152(6)
N1K N -0.0753(5) 0.3342(10) 0.0753(5)
C1FB C -0.1152(6) 0.3157(10) -0.1152(6)
N1FB N -0.0753(5) 0.3342(10) -0.0753(5)
Re1I Re 0.186795(19) 0.28179(3) -0.186795(19)
Re1K Re -0.186795(19) 0.28179(3) 0.186795(19)
Re1FB Re -0.186795(19) 0.28179(3) -0.186795(19)
Se1A Se 0.09830(7) 0.28007(6) 0.28007(6)
Se1JB Se 0.21993(6) 0.40170(7) 0.21993(6)
Se1I Se 0.09830(7) 0.28007(6) -0.28007(6)
Se1C Se 0.28007(6) 0.28007(6) -0.09830(7)
Se1NB Se 0.21993(6) 0.40170(7) -0.21993(6)
Se2I Se 0.15935(8) 0.15935(8) -0.15935(8)
Se1K Se -0.09830(7) 0.28007(6) 0.28007(6)
Se1E Se -0.28007(6) 0.28007(6) 0.09830(7)
Se1OB Se -0.21993(6) 0.40170(7) 0.21993(6)
Se2K Se -0.15935(8) 0.15935(8) 0.15935(8)
Se1FB Se -0.09830(7) 0.28007(6) -0.28007(6)
Se1ZA Se -0.28007(6) 0.28007(6) -0.09830(7)
Se1T Se -0.21993(6) 0.40170(7) -0.21993(6)
Se2FB Se -0.15935(8) 0.15935(8) -0.15935(8)
Re1A Re 0.186795(19) 0.186795(19) 0.28179(3)
Re1JB Re 0.21821(3) 0.313205(19) 0.313205(19)
Re1C Re 0.28179(3) 0.186795(19) -0.186795(19)
Re1NB Re 0.313205(19) 0.313205(19) -0.21821(3)
Re1E Re -0.28179(3) 0.186795(19) 0.186795(19)
Re1OB Re -0.313205(19) 0.313205(19) 0.21821(3)
Re1ZA Re -0.28179(3) 0.186795(19) -0.186795(19)
Re1T Re -0.313205(19) 0.313205(19) -0.21821(3)
Re1B Re 0.28179(3) 0.186795(19) 0.186795(19)
Re1IB Re 0.313205(19) 0.313205(19) 0.21821(3)
Re1F Re 0.186795(19) 0.186795(19) -0.28179(3)
Re1KB Re 0.21821(3) 0.313205(19) -0.313205(19)
Re1G Re -0.186795(19) 0.186795(19) 0.28179(3)
Re1MB Re -0.21821(3) 0.313205(19) 0.313205(19)
Re1DB Re -0.186795(19) 0.186795(19) -0.28179(3)
Re1P Re -0.21821(3) 0.313205(19) -0.313205(19)
Se1B Se 0.28007(6) 0.09830(7) 0.28007(6)
Se1HB Se 0.21993(6) 0.21993(6) 0.40170(7)
C1A C 0.1152(6) 0.1152(6) 0.3157(10)
N1A N 0.0753(5) 0.0753(5) 0.3342(10)
Se2JB Se 0.34065(8) 0.34065(8) 0.34065(8)
C1JB C 0.1843(10) 0.3848(6) 0.3848(6)
N1JB N 0.1658(10) 0.4247(5) 0.4247(5)
Se1F Se 0.28007(6) 0.09830(7) -0.28007(6)
Se1QB Se 0.40170(7) 0.21993(6) -0.21993(6)
C1C C 0.3157(10) 0.1152(6) -0.1152(6)
N1C N 0.3342(10) 0.0753(5) -0.0753(5)
Se2NB Se 0.34065(8) 0.34065(8) -0.34065(8)
C1NB C 0.3848(6) 0.3848(6) -0.1843(10)
N1NB N 0.4247(5) 0.4247(5) -0.1658(10)
Se1G Se -0.28007(6) 0.09830(7) 0.28007(6)
Se1SB Se -0.40170(7) 0.21993(6) 0.21993(6)
C1E C -0.3157(10) 0.1152(6) 0.1152(6)
N1E N -0.3342(10) 0.0753(5) 0.0753(5)
Se2OB Se -0.34065(8) 0.34065(8) 0.34065(8)
C1OB C -0.3848(6) 0.3848(6) 0.1843(10)
N1OB N -0.4247(5) 0.4247(5) 0.1658(10)
Se1DB Se -0.28007(6) 0.09830(7) -0.28007(6)
Se1V Se -0.40170(7) 0.21993(6) -0.21993(6)
C1ZA C -0.3157(10) 0.1152(6) -0.1152(6)
N1ZA N -0.3342(10) 0.0753(5) -0.0753(5)
Se2T Se -0.34065(8) 0.34065(8) -0.34065(8)
C1T C -0.3848(6) 0.3848(6) -0.1843(10)
N1T N -0.4247(5) 0.4247(5) -0.1658(10)
Se1IB Se 0.40170(7) 0.21993(6) 0.21993(6)
C1B C 0.3157(10) 0.1152(6) 0.1152(6)
N1B N 0.3342(10) 0.0753(5) 0.0753(5)
C1IB C 0.3848(6) 0.3848(6) 0.1843(10)
N1IB N 0.4247(5) 0.4247(5) 0.1658(10)
Se1KB Se 0.21993(6) 0.21993(6) -0.40170(7)
C1F C 0.1152(6) 0.1152(6) -0.3157(10)
N1F N 0.0753(5) 0.0753(5) -0.3342(10)
C1KB C 0.1843(10) 0.3848(6) -0.3848(6)
N1KB N 0.1658(10) 0.4247(5) -0.4247(5)
Se1MB Se -0.21993(6) 0.21993(6) 0.40170(7)
C1G C -0.1152(6) 0.1152(6) 0.3157(10)
N1G N -0.0753(5) 0.0753(5) 0.3342(10)
C1MB C -0.1843(10) 0.3848(6) 0.3848(6)
N1MB N -0.1658(10) 0.4247(5) 0.4247(5)
Se1P Se -0.21993(6) 0.21993(6) -0.40170(7)
C1DB C -0.1152(6) 0.1152(6) -0.3157(10)
N1DB N -0.0753(5) 0.0753(5) -0.3342(10)
C1P C -0.1843(10) 0.3848(6) -0.3848(6)
N1P N -0.1658(10) 0.4247(5) -0.4247(5)
Co1A Co 0.0000 0.0000 0.3419(2)
Co1JB Co 0.1581(2) 0.5000 0.5000
Co1C Co 0.3419(2) 0.0000 0.0000
Co1NB Co 0.5000 0.5000 -0.1581(2)
Co1E Co -0.3419(2) 0.0000 0.0000
Re1HB Re 0.313205(19) 0.21821(3) 0.313205(19)
Re1QB Re 0.313205(19) 0.21821(3) -0.313205(19)
Re1SB Re -0.313205(19) 0.21821(3) 0.313205(19)
Re1V Re -0.313205(19) 0.21821(3) -0.313205(19)
C1H C 0.1152(6) -0.1152(6) 0.3157(10)
N1H N 0.0753(5) -0.0753(5) 0.3342(10)
C1BB C -0.1152(6) -0.1152(6) 0.3157(10)
N1BB N -0.0753(5) -0.0753(5) 0.3342(10)
O1A O 0.0000 0.0000 0.448(2)
O2A O 0.0000 0.0000 0.231(3)
C1LB C 0.1843(10) 0.6152(6) 0.3848(6)
N1LB N 0.1658(10) 0.5753(5) 0.4247(5)
C1KB_2 C 0.1843(10) 0.3848(6) 0.6152(6)
N1KB_2 N 0.1658(10) 0.4247(5) 0.5753(5)
O1JB O 0.052(2) 0.5000 0.5000
O2JB O 0.269(3) 0.5000 0.5000
O1C O 0.448(2) 0.0000 0.0000
O2C O 0.231(3) 0.0000 0.0000
O1NB O 0.5000 0.5000 -0.052(2)
O2NB O 0.5000 0.5000 -0.269(3)
O1E O -0.448(2) 0.0000 0.0000
O2E O -0.231(3) 0.0000 0.0000
Co1R Co -0.5000 0.5000 0.1581(2)
Co1M Co -0.5000 0.5000 -0.1581(2)
Co1R_2 Co 0.5000 0.5000 0.1581(2)
Co1F Co -0.0000 -0.0000 -0.3419(2)
Co1Q Co 0.1581(2) 0.5000 -0.5000
Co1N Co -0.1581(2) 0.5000 0.5000
Co1N_2 Co -0.1581(2) 0.5000 -0.5000
N1Q N 0.1658(10) 0.5753(5) 0.5753(5)
N1D N 0.3342(10) -0.0753(5) 0.0753(5)
N1AB N 0.3342(10) -0.0753(5) -0.0753(5)
N1M N 0.5753(5) 0.5753(5) -0.1658(10)
N1S N 0.4247(5) 0.5753(5) -0.1658(10)
N1T_2 N 0.5753(5) 0.4247(5) -0.1658(10)
N1XA N -0.3342(10) -0.0753(5) -0.0753(5)
N1YA N -0.3342(10) -0.0753(5) 0.0753(5)
C1HB C 0.3848(6) 0.1843(10) 0.3848(6)
C1QB C 0.3848(6) 0.1843(10) -0.3848(6)
C1SB C -0.3848(6) 0.1843(10) 0.3848(6)
C1V C -0.3848(6) 0.1843(10) -0.3848(6)
Re1H Re 0.186795(19) -0.186795(19) 0.28179(3)
Re1BB Re -0.186795(19) -0.186795(19) 0.28179(3)
Re1LB Re 0.21821(3) 0.686795(19) 0.313205(19)
Re1KB_2 Re 0.21821(3) 0.313205(19) 0.686795(19)
O3 O 0.140(14) -0.0000 0.180(7)
O3J O 0.180(7) -0.0000 0.140(14)
N2 N 0.5000 0.234(3) 0.0000
C2 C 0.5000 0.272(4) 0.059(4)
N2V N 0.5000 0.266(3) 0.0000
C2V C 0.559(4) 0.228(4) 0.0000
C2QB C 0.441(4) 0.228(4) 0.0000
C2TB C 0.5000 0.272(4) -0.059(4)
loop_
_geom_bond_atom_site_label_1
_geom_bond_atom_site_label_2
_geom_bond_site_symmetry_1
_geom_bond_site_symmetry_2
Re1 Se1 1_555 1_555
Se1 Re1B 1_555 1_555
Se2 Re1 1_555 1_555
Co1 N1 1_555 1_555
C1 Re1 1_555 1_555
N1 C1 1_555 1_555
O1 Co1 1_555 1_555
O2 Co1 1_555 1_555
O3 O3J 1_555 1_555
N2 C2 1_555 1_555
C2 N2V 1_555 1_555
C1I N1I 1_555 1_555
N1I Co1 1_555 1_555
C1K N1K 1_555 1_555
N1K Co1 1_555 1_555
C1FB N1FB 1_555 1_555
N1FB Co1 1_555 1_555
Re1I C1I 1_555 1_555
Re1K C1K 1_555 1_555
Re1FB C1FB 1_555 1_555
Se1A Re1 1_555 1_555
Se1JB Re1 1_555 1_555
Se1I Re1I 1_555 1_555
Se1C Re1I 1_555 1_555
Se1NB Re1I 1_555 1_555
Se2I Re1I 1_555 1_555
Se1K Re1K 1_555 1_555
Se1E Re1K 1_555 1_555
Se1OB Re1K 1_555 1_555
Se2K Re1K 1_555 1_555
Se1FB Re1FB 1_555 1_555
Se1ZA Re1FB 1_555 1_555
Se1T Re1FB 1_555 1_555
Se2FB Re1FB 1_555 1_555
Re1A Re1 1_555 1_555
Re1JB Re1 1_555 1_555
Re1C Re1I 1_555 1_555
Re1NB Re1I 1_555 1_555
Re1E Re1K 1_555 1_555
Re1OB Re1K 1_555 1_555
Re1ZA Re1FB 1_555 1_555
Re1T Re1FB 1_555 1_555
Re1B Re1 1_555 1_555
Re1IB Re1 1_555 1_555
Re1F Re1I 1_555 1_555
Re1KB Re1I 1_555 1_555
Re1G Re1K 1_555 1_555
Re1MB Re1K 1_555 1_555
Re1DB Re1FB 1_555 1_555
Re1P Re1FB 1_555 1_555
Se1B Re1A 1_555 1_555
Se1HB Re1A 1_555 1_555
C1A Re1A 1_555 1_555
N1A C1A 1_555 1_555
Se2JB Re1JB 1_555 1_555
C1JB Re1JB 1_555 1_555
N1JB C1JB 1_555 1_555
Se1F Re1C 1_555 1_555
Se1QB Re1C 1_555 1_555
C1C Re1C 1_555 1_555
N1C C1C 1_555 1_555
Se2NB Re1NB 1_555 1_555
C1NB Re1NB 1_555 1_555
N1NB C1NB 1_555 1_555
Se1G Re1E 1_555 1_555
Se1SB Re1E 1_555 1_555
C1E Re1E 1_555 1_555
N1E C1E 1_555 1_555
Se2OB Re1OB 1_555 1_555
C1OB Re1OB 1_555 1_555
N1OB C1OB 1_555 1_555
Se1DB Re1ZA 1_555 1_555
Se1V Re1ZA 1_555 1_555
C1ZA Re1ZA 1_555 1_555
N1ZA C1ZA 1_555 1_555
Se2T Re1T 1_555 1_555
C1T Re1T 1_555 1_555
N1T C1T 1_555 1_555
Se1IB Re1B 1_555 1_555
C1B Re1B 1_555 1_555
N1B C1B 1_555 1_555
C1IB Re1IB 1_555 1_555
N1IB C1IB 1_555 1_555
Se1KB Re1F 1_555 1_555
C1F Re1F 1_555 1_555
N1F C1F 1_555 1_555
C1KB Re1KB 1_555 1_555
N1KB C1KB 1_555 1_555
Se1MB Re1G 1_555 1_555
C1G Re1G 1_555 1_555
N1G C1G 1_555 1_555
C1MB Re1MB 1_555 1_555
N1MB C1MB 1_555 1_555
Se1P Re1DB 1_555 1_555
C1DB Re1DB 1_555 1_555
N1DB C1DB 1_555 1_555
C1P Re1P 1_555 1_555
N1P C1P 1_555 1_555
Co1A N1A 1_555 1_555
Co1JB N1JB 1_555 1_555
Co1C N1C 1_555 1_555
Co1NB N1NB 1_555 1_555
Co1E N1E 1_555 1_555
Re1HB Re1A 1_555 1_555
Re1QB Re1C 1_555 1_555
Re1SB Re1E 1_555 1_555
Re1V Re1ZA 1_555 1_555
C1H N1H 1_555 1_555
N1H Co1A 1_555 1_555
C1BB N1BB 1_555 1_555
N1BB Co1A 1_555 1_555
O1A Co1A 1_555 1_555
O2A Co1A 1_555 1_555
C1LB N1LB 1_555 1_555
N1LB Co1JB 1_555 1_555
C1KB_2 N1KB_2 1_555 1_555
N1KB_2 Co1JB 1_555 1_555
O1JB Co1JB 1_555 1_555
O2JB Co1JB 1_555 1_555
O1C Co1C 1_555 1_555
O2C Co1C 1_555 1_555
O1NB Co1NB 1_555 1_555
O2NB Co1NB 1_555 1_555
O1E Co1E 1_555 1_555
O2E Co1E 1_555 1_555
Co1R N1OB 1_555 1_555
Co1M N1T 1_555 1_555
Co1R_2 N1IB 1_555 1_555
Co1F N1F 1_555 1_555
Co1Q N1KB 1_555 1_555
Co1N N1MB 1_555 1_555
Co1N_2 N1P 1_555 1_555
N1Q Co1JB 1_555 1_555
N1D Co1C 1_555 1_555
N1AB Co1C 1_555 1_555
N1M Co1NB 1_555 1_555
N1S Co1NB 1_555 1_555
N1T_2 Co1NB 1_555 1_555
N1XA Co1E 1_555 1_555
N1YA Co1E 1_555 1_555
C1HB Re1HB 1_555 1_555
C1QB Re1QB 1_555 1_555
C1SB Re1SB 1_555 1_555
C1V Re1V 1_555 1_555
Re1H C1H 1_555 1_555
Re1BB C1BB 1_555 1_555
Re1LB C1LB 1_555 1_555
Re1KB_2 C1KB_2 1_555 1_555
N2V N2 1_555 1_555
C2V N2 1_555 1_555
C2QB N2 1_555 1_555
C2TB N2 1_555 1_555
Se1 Re1IB 1_555 1_555
Se2 Re1A 1_555 1_555
Se2 Re1B 1_555 1_555
Se1A Re1A 1_555 1_555
Se1A Re1JB 1_555 1_555
Se1JB Re1JB 1_555 1_555
Se1JB Re1IB 1_555 1_555
Se1I Re1F 1_555 1_555
Se1I Re1KB 1_555 1_555
Se1C Re1C 1_555 1_555
Se1C Re1NB 1_555 1_555
Se1NB Re1NB 1_555 1_555
Se1NB Re1KB 1_555 1_555
Se2I Re1C 1_555 1_555
Se2I Re1F 1_555 1_555
Se1K Re1G 1_555 1_555
Se1K Re1MB 1_555 1_555
Se1E Re1E 1_555 1_555
Se1E Re1OB 1_555 1_555
Se1OB Re1OB 1_555 1_555
Se1OB Re1MB 1_555 1_555
Se2K Re1E 1_555 1_555
Se2K Re1G 1_555 1_555
Se1FB Re1DB 1_555 1_555
Se1FB Re1P 1_555 1_555
Se1ZA Re1ZA 1_555 1_555
Se1ZA Re1T 1_555 1_555
Se1T Re1T 1_555 1_555
Se1T Re1P 1_555 1_555
Se2FB Re1ZA 1_555 1_555
Se2FB Re1DB 1_555 1_555
Re1A Re1JB 1_555 1_555
Re1A Re1B 1_555 1_555
Re1JB Re1IB 1_555 1_555
Re1JB Se1HB 1_555 1_555
Re1JB Re1HB 1_555 1_555
Re1C Re1NB 1_555 1_555
Re1C Re1F 1_555 1_555
Re1NB Re1KB 1_555 1_555
Re1NB Se1QB 1_555 1_555
Re1NB Re1QB 1_555 1_555
Re1E Re1OB 1_555 1_555
Re1E Re1G 1_555 1_555
Re1OB Re1MB 1_555 1_555
Re1OB Se1SB 1_555 1_555
Re1OB Re1SB 1_555 1_555
Re1ZA Re1T 1_555 1_555
Re1ZA Re1DB 1_555 1_555
Re1T Re1P 1_555 1_555
Re1T Se1V 1_555 1_555
Re1T Re1V 1_555 1_555
Re1B Re1IB 1_555 1_555
Re1B Se1B 1_555 1_555
Re1B Re1HB 1_555 1_555
Re1IB Se2JB 1_555 1_555
Re1IB Se1IB 1_555 1_555
Re1IB Re1HB 1_555 1_555
Re1F Re1KB 1_555 1_555
Re1F Se1F 1_555 1_555
Re1F Re1QB 1_555 1_555
Re1KB Se2NB 1_555 1_555
Re1KB Se1KB 1_555 1_555
Re1KB Re1QB 1_555 1_555
Re1G Re1MB 1_555 1_555
Re1G Se1G 1_555 1_555
Re1G Re1SB 1_555 1_555
Re1MB Se2OB 1_555 1_555
Re1MB Se1MB 1_555 1_555
Re1MB Re1SB 1_555 1_555
Re1DB Re1P 1_555 1_555
Re1DB Se1DB 1_555 1_555
Re1DB Re1V 1_555 1_555
Re1P Se2T 1_555 1_555
Re1P Se1P 1_555 1_555
Re1P Re1V 1_555 1_555
Se1B Re1HB 1_555 1_555
Se1HB Re1HB 1_555 1_555
Se2JB Re1HB 1_555 1_555
Se1F Re1QB 1_555 1_555
Se1QB Re1QB 1_555 1_555
Se2NB Re1QB 1_555 1_555
Se1G Re1SB 1_555 1_555
Se1SB Re1SB 1_555 1_555
Se2OB Re1SB 1_555 1_555
Se1DB Re1V 1_555 1_555
Se1V Re1V 1_555 1_555
N1ZA Co1E 1_555 1_555
Se2T Re1V 1_555 1_555
Se1IB Re1HB 1_555 1_555
N1B Co1C 1_555 1_555
Se1KB Re1QB 1_555 1_555
Se1MB Re1SB 1_555 1_555
N1G Co1A 1_555 1_555
Se1P Re1V 1_555 1_555
N1DB Co1F 1_555 1_555
N2V C2V 1_555 1_555
N2V C2QB 1_555 1_555
N2V C2TB 1_555 1_555

#END
