
#######################################################################
#
#                 Cambridge Crystallographic Data Centre
#                                CCDC 
#
#######################################################################
#
# If this CIF has been generated from an entry in the Cambridge 
# Structural Database, then it will include bibliographic, chemical, 
# crystal, experimental, refinement or atomic coordinate data resulting 
# from the CCDC's data processing and validation procedures.
#
#######################################################################

data_IXIPIO
_chemical_formula_moiety         'C44 H4 Mn13 N34 O14 Re28 Se32'
_symmetry_cell_setting           cubic
_symmetry_space_group_name_H-M   'I m -3 m'
_symmetry_Int_Tables_number      229
_space_group_name_Hall           '-I 4 2 3'
loop_
_symmetry_equiv_pos_site_id
_symmetry_equiv_pos_as_xyz
1 x,y,z
2 z,x,y
3 y,z,x
4 y,x,-z
5 y,-x,z
6 -y,x,z
7 x,z,-y
8 -x,z,y
9 x,-z,y
10 z,y,-x
11 z,-y,x
12 -z,y,x
13 1/2+x,1/2+y,1/2+z
14 1/2+z,1/2+x,1/2+y
15 1/2+y,1/2+z,1/2+x
16 1/2+y,1/2+x,1/2-z
17 1/2+y,1/2-x,1/2+z
18 1/2-y,1/2+x,1/2+z
19 1/2+x,1/2+z,1/2-y
20 1/2-x,1/2+z,1/2+y
21 1/2+x,1/2-z,1/2+y
22 1/2+z,1/2+y,1/2-x
23 1/2+z,1/2-y,1/2+x
24 1/2-z,1/2+y,1/2+x
25 -x,-y,z
26 -x,y,-z
27 x,-y,-z
28 z,-x,-y
29 -z,-x,y
30 -z,x,-y
31 -y,z,-x
32 y,-z,-x
33 -y,-z,x
34 -y,-x,-z
35 -x,-z,-y
36 -z,-y,-x
37 1/2-x,1/2-y,1/2+z
38 1/2-x,1/2+y,1/2-z
39 1/2+x,1/2-y,1/2-z
40 1/2+z,1/2-x,1/2-y
41 1/2-z,1/2-x,1/2+y
42 1/2-z,1/2+x,1/2-y
43 1/2-y,1/2+z,1/2-x
44 1/2+y,1/2-z,1/2-x
45 1/2-y,1/2-z,1/2+x
46 1/2-y,1/2-x,1/2-z
47 1/2-x,1/2-z,1/2-y
48 1/2-z,1/2-y,1/2-x
49 -x,-y,-z
50 -z,-x,-y
51 -y,-z,-x
52 -y,-x,z
53 -y,x,-z
54 y,-x,-z
55 -x,-z,y
56 x,-z,-y
57 -x,z,-y
58 -z,-y,x
59 -z,y,-x
60 z,-y,-x
61 1/2-x,1/2-y,1/2-z
62 1/2-z,1/2-x,1/2-y
63 1/2-y,1/2-z,1/2-x
64 1/2-y,1/2-x,1/2+z
65 1/2-y,1/2+x,1/2-z
66 1/2+y,1/2-x,1/2-z
67 1/2-x,1/2-z,1/2+y
68 1/2+x,1/2-z,1/2-y
69 1/2-x,1/2+z,1/2-y
70 1/2-z,1/2-y,1/2+x
71 1/2-z,1/2+y,1/2-x
72 1/2+z,1/2-y,1/2-x
73 x,y,-z
74 x,-y,z
75 -x,y,z
76 -z,x,y
77 z,x,-y
78 z,-x,y
79 y,-z,x
80 -y,z,x
81 y,z,-x
82 y,x,z
83 x,z,y
84 z,y,x
85 1/2+x,1/2+y,1/2-z
86 1/2+x,1/2-y,1/2+z
87 1/2-x,1/2+y,1/2+z
88 1/2-z,1/2+x,1/2+y
89 1/2+z,1/2+x,1/2-y
90 1/2+z,1/2-x,1/2+y
91 1/2+y,1/2-z,1/2+x
92 1/2-y,1/2+z,1/2+x
93 1/2+y,1/2+z,1/2-x
94 1/2+y,1/2+x,1/2+z
95 1/2+x,1/2+z,1/2+y
96 1/2+z,1/2+y,1/2+x
_cell_length_a                   20.060(2)
_cell_length_b                   20.060(2)
_cell_length_c                   20.060(2)
_cell_angle_alpha                90
_cell_angle_beta                 90
_cell_angle_gamma                90
_cell_volume                     8072.22
loop_
_atom_site_label
_atom_site_type_symbol
_atom_site_fract_x
_atom_site_fract_y
_atom_site_fract_z
O2 O 0.0000 0.0000 0.0000
N1 N 0.5000 0.205(4) 0.0000
C1 C 0.417(2) 0.199(3) 0.0000
C2 C 0.458(2) 0.2500 0.042(2)
C3 C 0.448(4) 0.181(5) 0.034(4)
C1VB C 0.583(2) 0.199(3) 0.0000
C2VB C 0.542(2) 0.2500 0.042(2)
C2V C 0.542(2) 0.2500 -0.042(2)
N1V N 0.5000 0.295(4) 0.0000
C1V C 0.5000 0.301(3) -0.083(2)
C3VB C 0.552(4) 0.181(5) 0.034(4)
C2TB C 0.458(2) 0.2500 -0.042(2)
C1SB C 0.5000 0.301(3) 0.083(2)
C3SB C 0.534(4) 0.319(5) 0.052(4)
C3V C 0.534(4) 0.319(5) -0.052(4)
C3TB C 0.448(4) 0.181(5) -0.034(4)
C3QB C 0.466(4) 0.319(5) -0.052(4)
C3UA C 0.466(4) 0.319(5) 0.052(4)
C3Y C 0.552(4) 0.181(5) -0.034(4)
Re1 Re 0.18824(2) 0.28078(4) 0.18824(2)
Se1 Se 0.27985(7) 0.27985(7) 0.10216(9)
Se2 Se 0.16192(10) 0.16192(10) 0.16192(10)
Mn1 Mn 0.0000 0.3187(4) 0.0000
C4 C 0.1159(7) 0.3089(10) 0.1159(7)
N2 N 0.0775(6) 0.3206(11) 0.0775(6)
O3 O -0.0000 0.428(2) 0.0000
O4 O 0.0000 0.2059(16) 0.0000
C4I C 0.1159(7) 0.3089(10) -0.1159(7)
N2I N 0.0775(6) 0.3206(11) -0.0775(6)
C4K C -0.1159(7) 0.3089(10) 0.1159(7)
N2K N -0.0775(6) 0.3206(11) 0.0775(6)
C4FB C -0.1159(7) 0.3089(10) -0.1159(7)
N2FB N -0.0775(6) 0.3206(11) -0.0775(6)
Re1I Re 0.18824(2) 0.28078(4) -0.18824(2)
Re1K Re -0.18824(2) 0.28078(4) 0.18824(2)
Re1FB Re -0.18824(2) 0.28078(4) -0.18824(2)
Se1A Se 0.10216(9) 0.27985(7) 0.27985(7)
Se1JB Se 0.22015(7) 0.39784(9) 0.22015(7)
Se1I Se 0.10216(9) 0.27985(7) -0.27985(7)
Se1C Se 0.27985(7) 0.27985(7) -0.10216(9)
Se1NB Se 0.22015(7) 0.39784(9) -0.22015(7)
Se2I Se 0.16192(10) 0.16192(10) -0.16192(10)
Se1K Se -0.10216(9) 0.27985(7) 0.27985(7)
Se1E Se -0.27985(7) 0.27985(7) 0.10216(9)
Se1OB Se -0.22015(7) 0.39784(9) 0.22015(7)
Se2K Se -0.16192(10) 0.16192(10) 0.16192(10)
Se1FB Se -0.10216(9) 0.27985(7) -0.27985(7)
Se1ZA Se -0.27985(7) 0.27985(7) -0.10216(9)
Se1T Se -0.22015(7) 0.39784(9) -0.22015(7)
Se2FB Se -0.16192(10) 0.16192(10) -0.16192(10)
Re1A Re 0.18824(2) 0.18824(2) 0.28078(4)
Re1JB Re 0.21922(4) 0.31176(2) 0.31176(2)
Re1C Re 0.28078(4) 0.18824(2) -0.18824(2)
Re1NB Re 0.31176(2) 0.31176(2) -0.21922(4)
Re1E Re -0.28078(4) 0.18824(2) 0.18824(2)
Re1OB Re -0.31176(2) 0.31176(2) 0.21922(4)
Re1ZA Re -0.28078(4) 0.18824(2) -0.18824(2)
Re1T Re -0.31176(2) 0.31176(2) -0.21922(4)
Re1B Re 0.28078(4) 0.18824(2) 0.18824(2)
Re1IB Re 0.31176(2) 0.31176(2) 0.21922(4)
Re1F Re 0.18824(2) 0.18824(2) -0.28078(4)
Re1KB Re 0.21922(4) 0.31176(2) -0.31176(2)
Re1G Re -0.18824(2) 0.18824(2) 0.28078(4)
Re1MB Re -0.21922(4) 0.31176(2) 0.31176(2)
Re1DB Re -0.18824(2) 0.18824(2) -0.28078(4)
Re1P Re -0.21922(4) 0.31176(2) -0.31176(2)
Se1B Se 0.27985(7) 0.10216(9) 0.27985(7)
Se1HB Se 0.22015(7) 0.22015(7) 0.39784(9)
C4A C 0.1159(7) 0.1159(7) 0.3089(10)
N2A N 0.0775(6) 0.0775(6) 0.3206(11)
Se2JB Se 0.33808(10) 0.33808(10) 0.33808(10)
C4JB C 0.1911(10) 0.3841(7) 0.3841(7)
N2JB N 0.1794(11) 0.4225(6) 0.4225(6)
Se1F Se 0.27985(7) 0.10216(9) -0.27985(7)
Se1QB Se 0.39784(9) 0.22015(7) -0.22015(7)
C4C C 0.3089(10) 0.1159(7) -0.1159(7)
N2C N 0.3206(11) 0.0775(6) -0.0775(6)
Se2NB Se 0.33808(10) 0.33808(10) -0.33808(10)
C4NB C 0.3841(7) 0.3841(7) -0.1911(10)
N2NB N 0.4225(6) 0.4225(6) -0.1794(11)
Se1G Se -0.27985(7) 0.10216(9) 0.27985(7)
Se1SB Se -0.39784(9) 0.22015(7) 0.22015(7)
C4E C -0.3089(10) 0.1159(7) 0.1159(7)
N2E N -0.3206(11) 0.0775(6) 0.0775(6)
Se2OB Se -0.33808(10) 0.33808(10) 0.33808(10)
C4OB C -0.3841(7) 0.3841(7) 0.1911(10)
N2OB N -0.4225(6) 0.4225(6) 0.1794(11)
Se1DB Se -0.27985(7) 0.10216(9) -0.27985(7)
Se1V Se -0.39784(9) 0.22015(7) -0.22015(7)
C4ZA C -0.3089(10) 0.1159(7) -0.1159(7)
N2ZA N -0.3206(11) 0.0775(6) -0.0775(6)
Se2T Se -0.33808(10) 0.33808(10) -0.33808(10)
C4T C -0.3841(7) 0.3841(7) -0.1911(10)
N2T N -0.4225(6) 0.4225(6) -0.1794(11)
Se1IB Se 0.39784(9) 0.22015(7) 0.22015(7)
C4B C 0.3089(10) 0.1159(7) 0.1159(7)
N2B N 0.3206(11) 0.0775(6) 0.0775(6)
C4IB C 0.3841(7) 0.3841(7) 0.1911(10)
N2IB N 0.4225(6) 0.4225(6) 0.1794(11)
Se1KB Se 0.22015(7) 0.22015(7) -0.39784(9)
C4F C 0.1159(7) 0.1159(7) -0.3089(10)
N2F N 0.0775(6) 0.0775(6) -0.3206(11)
C4KB C 0.1911(10) 0.3841(7) -0.3841(7)
N2KB N 0.1794(11) 0.4225(6) -0.4225(6)
Se1MB Se -0.22015(7) 0.22015(7) 0.39784(9)
C4G C -0.1159(7) 0.1159(7) 0.3089(10)
N2G N -0.0775(6) 0.0775(6) 0.3206(11)
C4MB C -0.1911(10) 0.3841(7) 0.3841(7)
N2MB N -0.1794(11) 0.4225(6) 0.4225(6)
Se1P Se -0.22015(7) 0.22015(7) -0.39784(9)
C4DB C -0.1159(7) 0.1159(7) -0.3089(10)
N2DB N -0.0775(6) 0.0775(6) -0.3206(11)
C4P C -0.1911(10) 0.3841(7) -0.3841(7)
N2P N -0.1794(11) 0.4225(6) -0.4225(6)
Mn1A Mn 0.0000 0.0000 0.3187(4)
Mn1JB Mn 0.1813(4) 0.5000 0.5000
Mn1C Mn 0.3187(4) 0.0000 0.0000
Mn1NB Mn 0.5000 0.5000 -0.1813(4)
Mn1E Mn -0.3187(4) 0.0000 0.0000
Re1HB Re 0.31176(2) 0.21922(4) 0.31176(2)
Re1QB Re 0.31176(2) 0.21922(4) -0.31176(2)
Re1SB Re -0.31176(2) 0.21922(4) 0.31176(2)
Re1V Re -0.31176(2) 0.21922(4) -0.31176(2)
C4H C 0.1159(7) -0.1159(7) 0.3089(10)
N2H N 0.0775(6) -0.0775(6) 0.3206(11)
C4BB C -0.1159(7) -0.1159(7) 0.3089(10)
N2BB N -0.0775(6) -0.0775(6) 0.3206(11)
O3A O -0.0000 -0.0000 0.428(2)
O4A O 0.0000 0.0000 0.2059(16)
C4LB C 0.1911(10) 0.6159(7) 0.3841(7)
N2LB N 0.1794(11) 0.5775(6) 0.4225(6)
C4KB_2 C 0.1911(10) 0.3841(7) 0.6159(7)
N2KB_2 N 0.1794(11) 0.4225(6) 0.5775(6)
O3JB O 0.072(2) 0.5000 0.5000
O4JB O 0.2941(16) 0.5000 0.5000
O3C O 0.428(2) 0.0000 0.0000
O4C O 0.2059(16) 0.0000 0.0000
O3NB O 0.5000 0.5000 -0.072(2)
O4NB O 0.5000 0.5000 -0.2941(16)
O3E O -0.428(2) 0.0000 0.0000
O4E O -0.2059(16) 0.0000 0.0000
Mn1R Mn -0.5000 0.5000 0.1813(4)
Mn1M Mn -0.5000 0.5000 -0.1813(4)
Mn1R_2 Mn 0.5000 0.5000 0.1813(4)
Mn1F Mn 0.0000 0.0000 -0.3187(4)
Mn1Q Mn 0.1813(4) 0.5000 -0.5000
Mn1N Mn -0.1813(4) 0.5000 0.5000
Mn1N_2 Mn -0.1813(4) 0.5000 -0.5000
N2Q N 0.1794(11) 0.5775(6) 0.5775(6)
N2D N 0.3206(11) -0.0775(6) 0.0775(6)
N2AB N 0.3206(11) -0.0775(6) -0.0775(6)
N2M N 0.5775(6) 0.5775(6) -0.1794(11)
N2S N 0.4225(6) 0.5775(6) -0.1794(11)
N2T_2 N 0.5775(6) 0.4225(6) -0.1794(11)
N2XA N -0.3206(11) -0.0775(6) -0.0775(6)
N2YA N -0.3206(11) -0.0775(6) 0.0775(6)
C4HB C 0.3841(7) 0.1911(10) 0.3841(7)
C4QB C 0.3841(7) 0.1911(10) -0.3841(7)
C4SB C -0.3841(7) 0.1911(10) 0.3841(7)
C4V C -0.3841(7) 0.1911(10) -0.3841(7)
Re1H Re 0.18824(2) -0.18824(2) 0.28078(4)
Re1BB Re -0.18824(2) -0.18824(2) 0.28078(4)
Re1LB Re 0.21922(4) 0.68824(2) 0.31176(2)
Re1KB_2 Re 0.21922(4) 0.31176(2) 0.68824(2)
O1 O 0.158(2) 0.158(2) 0.0000
loop_
_geom_bond_atom_site_label_1
_geom_bond_atom_site_label_2
_geom_bond_site_symmetry_1
_geom_bond_site_symmetry_2
N1 C1 1_555 1_555
C1 C2 1_555 1_555
C2 N1 1_555 1_555
C3 N1 1_555 1_555
Re1 Se1 1_555 1_555
Se1 Re1B 1_555 1_555
Se2 Re1 1_555 1_555
Mn1 N2 1_555 1_555
C4 Re1 1_555 1_555
N2 C4 1_555 1_555
O3 Mn1 1_555 1_555
O4 Mn1 1_555 1_555
C1VB N1 1_555 1_555
C2VB N1 1_555 1_555
C2V N1 1_555 1_555
N1V C2 1_555 1_555
C1V C2V 1_555 1_555
C3VB N1 1_555 1_555
C2TB N1 1_555 1_555
C1SB C2 1_555 1_555
C3SB C2VB 1_555 1_555
C3V C2V 1_555 1_555
C3TB N1 1_555 1_555
C3QB N1V 1_555 1_555
C3UA C2 1_555 1_555
C3Y N1 1_555 1_555
C4I N2I 1_555 1_555
N2I Mn1 1_555 1_555
C4K N2K 1_555 1_555
N2K Mn1 1_555 1_555
C4FB N2FB 1_555 1_555
N2FB Mn1 1_555 1_555
Re1I C4I 1_555 1_555
Re1K C4K 1_555 1_555
Re1FB C4FB 1_555 1_555
Se1A Re1 1_555 1_555
Se1JB Re1 1_555 1_555
Se1I Re1I 1_555 1_555
Se1C Re1I 1_555 1_555
Se1NB Re1I 1_555 1_555
Se2I Re1I 1_555 1_555
Se1K Re1K 1_555 1_555
Se1E Re1K 1_555 1_555
Se1OB Re1K 1_555 1_555
Se2K Re1K 1_555 1_555
Se1FB Re1FB 1_555 1_555
Se1ZA Re1FB 1_555 1_555
Se1T Re1FB 1_555 1_555
Se2FB Re1FB 1_555 1_555
Re1A Re1 1_555 1_555
Re1JB Re1 1_555 1_555
Re1C Re1I 1_555 1_555
Re1NB Re1I 1_555 1_555
Re1E Re1K 1_555 1_555
Re1OB Re1K 1_555 1_555
Re1ZA Re1FB 1_555 1_555
Re1T Re1FB 1_555 1_555
Re1B Re1 1_555 1_555
Re1IB Re1 1_555 1_555
Re1F Re1I 1_555 1_555
Re1KB Re1I 1_555 1_555
Re1G Re1K 1_555 1_555
Re1MB Re1K 1_555 1_555
Re1DB Re1FB 1_555 1_555
Re1P Re1FB 1_555 1_555
Se1B Re1A 1_555 1_555
Se1HB Re1A 1_555 1_555
C4A Re1A 1_555 1_555
N2A C4A 1_555 1_555
Se2JB Re1JB 1_555 1_555
C4JB Re1JB 1_555 1_555
N2JB C4JB 1_555 1_555
Se1F Re1C 1_555 1_555
Se1QB Re1C 1_555 1_555
C4C Re1C 1_555 1_555
N2C C4C 1_555 1_555
Se2NB Re1NB 1_555 1_555
C4NB Re1NB 1_555 1_555
N2NB C4NB 1_555 1_555
Se1G Re1E 1_555 1_555
Se1SB Re1E 1_555 1_555
C4E Re1E 1_555 1_555
N2E C4E 1_555 1_555
Se2OB Re1OB 1_555 1_555
C4OB Re1OB 1_555 1_555
N2OB C4OB 1_555 1_555
Se1DB Re1ZA 1_555 1_555
Se1V Re1ZA 1_555 1_555
C4ZA Re1ZA 1_555 1_555
N2ZA C4ZA 1_555 1_555
Se2T Re1T 1_555 1_555
C4T Re1T 1_555 1_555
N2T C4T 1_555 1_555
Se1IB Re1B 1_555 1_555
C4B Re1B 1_555 1_555
N2B C4B 1_555 1_555
C4IB Re1IB 1_555 1_555
N2IB C4IB 1_555 1_555
Se1KB Re1F 1_555 1_555
C4F Re1F 1_555 1_555
N2F C4F 1_555 1_555
C4KB Re1KB 1_555 1_555
N2KB C4KB 1_555 1_555
Se1MB Re1G 1_555 1_555
C4G Re1G 1_555 1_555
N2G C4G 1_555 1_555
C4MB Re1MB 1_555 1_555
N2MB C4MB 1_555 1_555
Se1P Re1DB 1_555 1_555
C4DB Re1DB 1_555 1_555
N2DB C4DB 1_555 1_555
C4P Re1P 1_555 1_555
N2P C4P 1_555 1_555
Mn1A N2A 1_555 1_555
Mn1JB N2JB 1_555 1_555
Mn1C N2C 1_555 1_555
Mn1NB N2NB 1_555 1_555
Mn1E N2E 1_555 1_555
Re1HB Re1A 1_555 1_555
Re1QB Re1C 1_555 1_555
Re1SB Re1E 1_555 1_555
Re1V Re1ZA 1_555 1_555
C4H N2H 1_555 1_555
N2H Mn1A 1_555 1_555
C4BB N2BB 1_555 1_555
N2BB Mn1A 1_555 1_555
O3A Mn1A 1_555 1_555
O4A Mn1A 1_555 1_555
C4LB N2LB 1_555 1_555
N2LB Mn1JB 1_555 1_555
C4KB_2 N2KB_2 1_555 1_555
N2KB_2 Mn1JB 1_555 1_555
O3JB Mn1JB 1_555 1_555
O4JB Mn1JB 1_555 1_555
O3C Mn1C 1_555 1_555
O4C Mn1C 1_555 1_555
O3NB Mn1NB 1_555 1_555
O4NB Mn1NB 1_555 1_555
O3E Mn1E 1_555 1_555
O4E Mn1E 1_555 1_555
Mn1R N2OB 1_555 1_555
Mn1M N2T 1_555 1_555
Mn1R_2 N2IB 1_555 1_555
Mn1F N2F 1_555 1_555
Mn1Q N2KB 1_555 1_555
Mn1N N2MB 1_555 1_555
Mn1N_2 N2P 1_555 1_555
N2Q Mn1JB 1_555 1_555
N2D Mn1C 1_555 1_555
N2AB Mn1C 1_555 1_555
N2M Mn1NB 1_555 1_555
N2S Mn1NB 1_555 1_555
N2T_2 Mn1NB 1_555 1_555
N2XA Mn1E 1_555 1_555
N2YA Mn1E 1_555 1_555
C4HB Re1HB 1_555 1_555
C4QB Re1QB 1_555 1_555
C4SB Re1SB 1_555 1_555
C4V Re1V 1_555 1_555
Re1H C4H 1_555 1_555
Re1BB C4BB 1_555 1_555
Re1LB C4LB 1_555 1_555
Re1KB_2 C4KB_2 1_555 1_555
C1 C3 1_555 1_555
C1 C2TB 1_555 1_555
C1 C3TB 1_555 1_555
C2 C3 1_555 1_555
C2 C2VB 1_555 1_555
C2 C2TB 1_555 1_555
C3 C3TB 1_555 1_555
Se1 Re1IB 1_555 1_555
Se2 Re1A 1_555 1_555
Se2 Re1B 1_555 1_555
C1VB C2VB 1_555 1_555
C1VB C2V 1_555 1_555
C1VB C3VB 1_555 1_555
C1VB C3Y 1_555 1_555
C2VB C2V 1_555 1_555
C2VB N1V 1_555 1_555
C2VB C3VB 1_555 1_555
C2VB C1SB 1_555 1_555
C2V N1V 1_555 1_555
C2V C2TB 1_555 1_555
C2V C3Y 1_555 1_555
N1V C1V 1_555 1_555
N1V C2TB 1_555 1_555
N1V C1SB 1_555 1_555
N1V C3SB 1_555 1_555
N1V C3V 1_555 1_555
N1V C3UA 1_555 1_555
C1V C2TB 1_555 1_555
C1V C3V 1_555 1_555
C1V C3QB 1_555 1_555
C3VB C3Y 1_555 1_555
C2TB C3TB 1_555 1_555
C2TB C3QB 1_555 1_555
C1SB C3SB 1_555 1_555
C1SB C3UA 1_555 1_555
C3SB C3UA 1_555 1_555
C3V C3QB 1_555 1_555
Se1A Re1A 1_555 1_555
Se1A Re1JB 1_555 1_555
Se1JB Re1JB 1_555 1_555
Se1JB Re1IB 1_555 1_555
Se1I Re1F 1_555 1_555
Se1I Re1KB 1_555 1_555
Se1C Re1C 1_555 1_555
Se1C Re1NB 1_555 1_555
Se1NB Re1NB 1_555 1_555
Se1NB Re1KB 1_555 1_555
Se2I Re1C 1_555 1_555
Se2I Re1F 1_555 1_555
Se1K Re1G 1_555 1_555
Se1K Re1MB 1_555 1_555
Se1E Re1E 1_555 1_555
Se1E Re1OB 1_555 1_555
Se1OB Re1OB 1_555 1_555
Se1OB Re1MB 1_555 1_555
Se2K Re1E 1_555 1_555
Se2K Re1G 1_555 1_555
Se1FB Re1DB 1_555 1_555
Se1FB Re1P 1_555 1_555
Se1ZA Re1ZA 1_555 1_555
Se1ZA Re1T 1_555 1_555
Se1T Re1T 1_555 1_555
Se1T Re1P 1_555 1_555
Se2FB Re1ZA 1_555 1_555
Se2FB Re1DB 1_555 1_555
Re1A Re1JB 1_555 1_555
Re1A Re1B 1_555 1_555
Re1JB Re1IB 1_555 1_555
Re1JB Se1HB 1_555 1_555
Re1JB Re1HB 1_555 1_555
Re1C Re1NB 1_555 1_555
Re1C Re1F 1_555 1_555
Re1NB Re1KB 1_555 1_555
Re1NB Se1QB 1_555 1_555
Re1NB Re1QB 1_555 1_555
Re1E Re1OB 1_555 1_555
Re1E Re1G 1_555 1_555
Re1OB Re1MB 1_555 1_555
Re1OB Se1SB 1_555 1_555
Re1OB Re1SB 1_555 1_555
Re1ZA Re1T 1_555 1_555
Re1ZA Re1DB 1_555 1_555
Re1T Re1P 1_555 1_555
Re1T Se1V 1_555 1_555
Re1T Re1V 1_555 1_555
Re1B Re1IB 1_555 1_555
Re1B Se1B 1_555 1_555
Re1B Re1HB 1_555 1_555
Re1IB Se2JB 1_555 1_555
Re1IB Se1IB 1_555 1_555
Re1IB Re1HB 1_555 1_555
Re1F Re1KB 1_555 1_555
Re1F Se1F 1_555 1_555
Re1F Re1QB 1_555 1_555
Re1KB Se2NB 1_555 1_555
Re1KB Se1KB 1_555 1_555
Re1KB Re1QB 1_555 1_555
Re1G Re1MB 1_555 1_555
Re1G Se1G 1_555 1_555
Re1G Re1SB 1_555 1_555
Re1MB Se2OB 1_555 1_555
Re1MB Se1MB 1_555 1_555
Re1MB Re1SB 1_555 1_555
Re1DB Re1P 1_555 1_555
Re1DB Se1DB 1_555 1_555
Re1DB Re1V 1_555 1_555
Re1P Se2T 1_555 1_555
Re1P Se1P 1_555 1_555
Re1P Re1V 1_555 1_555
Se1B Re1HB 1_555 1_555
Se1HB Re1HB 1_555 1_555
Se2JB Re1HB 1_555 1_555
Se1F Re1QB 1_555 1_555
Se1QB Re1QB 1_555 1_555
Se2NB Re1QB 1_555 1_555
Se1G Re1SB 1_555 1_555
Se1SB Re1SB 1_555 1_555
Se2OB Re1SB 1_555 1_555
Se1DB Re1V 1_555 1_555
Se1V Re1V 1_555 1_555
N2ZA Mn1E 1_555 1_555
Se2T Re1V 1_555 1_555
Se1IB Re1HB 1_555 1_555
N2B Mn1C 1_555 1_555
Se1KB Re1QB 1_555 1_555
Se1MB Re1SB 1_555 1_555
N2G Mn1A 1_555 1_555
Se1P Re1V 1_555 1_555
N2DB Mn1F 1_555 1_555

#END
