
#######################################################################
#
#                 Cambridge Crystallographic Data Centre
#                                CCDC 
#
#######################################################################
#
# If this CIF has been generated from an entry in the Cambridge 
# Structural Database, then it will include bibliographic, chemical, 
# crystal, experimental, refinement or atomic coordinate data resulting 
# from the CCDC's data processing and validation procedures.
#
#######################################################################

data_IXIPAG
_chemical_formula_moiety         'C28 H8 Mn13 N32 O15 Re28 Se32 2+'
_symmetry_cell_setting           cubic
_symmetry_space_group_name_H-M   'I m -3 m'
_symmetry_Int_Tables_number      229
_space_group_name_Hall           '-I 4 2 3'
loop_
_symmetry_equiv_pos_site_id
_symmetry_equiv_pos_as_xyz
1 x,y,z
2 z,x,y
3 y,z,x
4 y,x,-z
5 y,-x,z
6 -y,x,z
7 x,z,-y
8 -x,z,y
9 x,-z,y
10 z,y,-x
11 z,-y,x
12 -z,y,x
13 1/2+x,1/2+y,1/2+z
14 1/2+z,1/2+x,1/2+y
15 1/2+y,1/2+z,1/2+x
16 1/2+y,1/2+x,1/2-z
17 1/2+y,1/2-x,1/2+z
18 1/2-y,1/2+x,1/2+z
19 1/2+x,1/2+z,1/2-y
20 1/2-x,1/2+z,1/2+y
21 1/2+x,1/2-z,1/2+y
22 1/2+z,1/2+y,1/2-x
23 1/2+z,1/2-y,1/2+x
24 1/2-z,1/2+y,1/2+x
25 -x,-y,z
26 -x,y,-z
27 x,-y,-z
28 z,-x,-y
29 -z,-x,y
30 -z,x,-y
31 -y,z,-x
32 y,-z,-x
33 -y,-z,x
34 -y,-x,-z
35 -x,-z,-y
36 -z,-y,-x
37 1/2-x,1/2-y,1/2+z
38 1/2-x,1/2+y,1/2-z
39 1/2+x,1/2-y,1/2-z
40 1/2+z,1/2-x,1/2-y
41 1/2-z,1/2-x,1/2+y
42 1/2-z,1/2+x,1/2-y
43 1/2-y,1/2+z,1/2-x
44 1/2+y,1/2-z,1/2-x
45 1/2-y,1/2-z,1/2+x
46 1/2-y,1/2-x,1/2-z
47 1/2-x,1/2-z,1/2-y
48 1/2-z,1/2-y,1/2-x
49 -x,-y,-z
50 -z,-x,-y
51 -y,-z,-x
52 -y,-x,z
53 -y,x,-z
54 y,-x,-z
55 -x,-z,y
56 x,-z,-y
57 -x,z,-y
58 -z,-y,x
59 -z,y,-x
60 z,-y,-x
61 1/2-x,1/2-y,1/2-z
62 1/2-z,1/2-x,1/2-y
63 1/2-y,1/2-z,1/2-x
64 1/2-y,1/2-x,1/2+z
65 1/2-y,1/2+x,1/2-z
66 1/2+y,1/2-x,1/2-z
67 1/2-x,1/2-z,1/2+y
68 1/2+x,1/2-z,1/2-y
69 1/2-x,1/2+z,1/2-y
70 1/2-z,1/2-y,1/2+x
71 1/2-z,1/2+y,1/2-x
72 1/2+z,1/2-y,1/2-x
73 x,y,-z
74 x,-y,z
75 -x,y,z
76 -z,x,y
77 z,x,-y
78 z,-x,y
79 y,-z,x
80 -y,z,x
81 y,z,-x
82 y,x,z
83 x,z,y
84 z,y,x
85 1/2+x,1/2+y,1/2-z
86 1/2+x,1/2-y,1/2+z
87 1/2-x,1/2+y,1/2+z
88 1/2-z,1/2+x,1/2+y
89 1/2+z,1/2+x,1/2-y
90 1/2+z,1/2-x,1/2+y
91 1/2+y,1/2-z,1/2+x
92 1/2-y,1/2+z,1/2+x
93 1/2+y,1/2+z,1/2-x
94 1/2+y,1/2+x,1/2+z
95 1/2+x,1/2+z,1/2+y
96 1/2+z,1/2+y,1/2+x
_cell_length_a                   19.857(2)
_cell_length_b                   19.857(2)
_cell_length_c                   19.857(2)
_cell_angle_alpha                90
_cell_angle_beta                 90
_cell_angle_gamma                90
_cell_volume                     7829.62
loop_
_atom_site_label
_atom_site_type_symbol
_atom_site_fract_x
_atom_site_fract_y
_atom_site_fract_z
O2 O 0.0000 0.5720(11) -0.2045(13)
O3 O 0.160(2) 0.160(2) 0.0000
Re1 Re 0.187704(16) 0.28124(2) 0.187704(16)
Se1 Se 0.27980(5) 0.27980(5) 0.10045(6)
Se2 Se 0.16075(6) 0.16075(6) 0.16075(6)
Mn1 Mn 0.0000 0.3400(2) 0.0000
C1 C 0.1169(4) 0.3159(7) 0.1169(4)
N1 N 0.0775(4) 0.3322(6) 0.0775(4)
O4 O 0.0000 0.4518(18) 0.0000
O5 O 0.0000 0.2244(14) 0.0000
C1I C 0.1169(4) 0.3159(7) -0.1169(4)
N1I N 0.0775(4) 0.3322(6) -0.0775(4)
C1K C -0.1169(4) 0.3159(7) 0.1169(4)
N1K N -0.0775(4) 0.3322(6) 0.0775(4)
C1FB C -0.1169(4) 0.3159(7) -0.1169(4)
N1FB N -0.0775(4) 0.3322(6) -0.0775(4)
Re1I Re 0.187704(16) 0.28124(2) -0.187704(16)
Re1K Re -0.187704(16) 0.28124(2) 0.187704(16)
Re1FB Re -0.187704(16) 0.28124(2) -0.187704(16)
Se1A Se 0.10045(6) 0.27980(5) 0.27980(5)
Se1JB Se 0.22020(5) 0.39955(6) 0.22020(5)
Se1I Se 0.10045(6) 0.27980(5) -0.27980(5)
Se1C Se 0.27980(5) 0.27980(5) -0.10045(6)
Se1NB Se 0.22020(5) 0.39955(6) -0.22020(5)
Se2I Se 0.16075(6) 0.16075(6) -0.16075(6)
Se1K Se -0.10045(6) 0.27980(5) 0.27980(5)
Se1E Se -0.27980(5) 0.27980(5) 0.10045(6)
Se1OB Se -0.22020(5) 0.39955(6) 0.22020(5)
Se2K Se -0.16075(6) 0.16075(6) 0.16075(6)
Se1FB Se -0.10045(6) 0.27980(5) -0.27980(5)
Se1ZA Se -0.27980(5) 0.27980(5) -0.10045(6)
Se1T Se -0.22020(5) 0.39955(6) -0.22020(5)
Se2FB Se -0.16075(6) 0.16075(6) -0.16075(6)
Re1A Re 0.187704(16) 0.187704(16) 0.28124(2)
Re1JB Re 0.21876(2) 0.312296(16) 0.312296(16)
Re1C Re 0.28124(2) 0.187704(16) -0.187704(16)
Re1NB Re 0.312296(16) 0.312296(16) -0.21876(2)
Re1E Re -0.28124(2) 0.187704(16) 0.187704(16)
Re1OB Re -0.312296(16) 0.312296(16) 0.21876(2)
Re1ZA Re -0.28124(2) 0.187704(16) -0.187704(16)
Re1T Re -0.312296(16) 0.312296(16) -0.21876(2)
Re1B Re 0.28124(2) 0.187704(16) 0.187704(16)
Re1IB Re 0.312296(16) 0.312296(16) 0.21876(2)
Re1F Re 0.187704(16) 0.187704(16) -0.28124(2)
Re1KB Re 0.21876(2) 0.312296(16) -0.312296(16)
Re1G Re -0.187704(16) 0.187704(16) 0.28124(2)
Re1MB Re -0.21876(2) 0.312296(16) 0.312296(16)
Re1DB Re -0.187704(16) 0.187704(16) -0.28124(2)
Re1P Re -0.21876(2) 0.312296(16) -0.312296(16)
Se1B Se 0.27980(5) 0.10045(6) 0.27980(5)
Se1HB Se 0.22020(5) 0.22020(5) 0.39955(6)
C1A C 0.1169(4) 0.1169(4) 0.3159(7)
N1A N 0.0775(4) 0.0775(4) 0.3322(6)
Se2JB Se 0.33925(6) 0.33925(6) 0.33925(6)
C1JB C 0.1841(7) 0.3831(4) 0.3831(4)
N1JB N 0.1678(6) 0.4225(4) 0.4225(4)
Se1F Se 0.27980(5) 0.10045(6) -0.27980(5)
Se1QB Se 0.39955(6) 0.22020(5) -0.22020(5)
C1C C 0.3159(7) 0.1169(4) -0.1169(4)
N1C N 0.3322(6) 0.0775(4) -0.0775(4)
Se2NB Se 0.33925(6) 0.33925(6) -0.33925(6)
C1NB C 0.3831(4) 0.3831(4) -0.1841(7)
N1NB N 0.4225(4) 0.4225(4) -0.1678(6)
Se1G Se -0.27980(5) 0.10045(6) 0.27980(5)
Se1SB Se -0.39955(6) 0.22020(5) 0.22020(5)
C1E C -0.3159(7) 0.1169(4) 0.1169(4)
N1E N -0.3322(6) 0.0775(4) 0.0775(4)
Se2OB Se -0.33925(6) 0.33925(6) 0.33925(6)
C1OB C -0.3831(4) 0.3831(4) 0.1841(7)
N1OB N -0.4225(4) 0.4225(4) 0.1678(6)
Se1DB Se -0.27980(5) 0.10045(6) -0.27980(5)
Se1V Se -0.39955(6) 0.22020(5) -0.22020(5)
C1ZA C -0.3159(7) 0.1169(4) -0.1169(4)
N1ZA N -0.3322(6) 0.0775(4) -0.0775(4)
Se2T Se -0.33925(6) 0.33925(6) -0.33925(6)
C1T C -0.3831(4) 0.3831(4) -0.1841(7)
N1T N -0.4225(4) 0.4225(4) -0.1678(6)
Se1IB Se 0.39955(6) 0.22020(5) 0.22020(5)
C1B C 0.3159(7) 0.1169(4) 0.1169(4)
N1B N 0.3322(6) 0.0775(4) 0.0775(4)
C1IB C 0.3831(4) 0.3831(4) 0.1841(7)
N1IB N 0.4225(4) 0.4225(4) 0.1678(6)
Se1KB Se 0.22020(5) 0.22020(5) -0.39955(6)
C1F C 0.1169(4) 0.1169(4) -0.3159(7)
N1F N 0.0775(4) 0.0775(4) -0.3322(6)
C1KB C 0.1841(7) 0.3831(4) -0.3831(4)
N1KB N 0.1678(6) 0.4225(4) -0.4225(4)
Se1MB Se -0.22020(5) 0.22020(5) 0.39955(6)
C1G C -0.1169(4) 0.1169(4) 0.3159(7)
N1G N -0.0775(4) 0.0775(4) 0.3322(6)
C1MB C -0.1841(7) 0.3831(4) 0.3831(4)
N1MB N -0.1678(6) 0.4225(4) 0.4225(4)
Se1P Se -0.22020(5) 0.22020(5) -0.39955(6)
C1DB C -0.1169(4) 0.1169(4) -0.3159(7)
N1DB N -0.0775(4) 0.0775(4) -0.3322(6)
C1P C -0.1841(7) 0.3831(4) -0.3831(4)
N1P N -0.1678(6) 0.4225(4) -0.4225(4)
Mn1A Mn 0.0000 0.0000 0.3400(2)
Mn1JB Mn 0.1600(2) 0.5000 0.5000
Mn1C Mn 0.3400(2) 0.0000 0.0000
Mn1NB Mn 0.5000 0.5000 -0.1600(2)
Mn1E Mn -0.3400(2) 0.0000 0.0000
Re1HB Re 0.312296(16) 0.21876(2) 0.312296(16)
Re1QB Re 0.312296(16) 0.21876(2) -0.312296(16)
Re1SB Re -0.312296(16) 0.21876(2) 0.312296(16)
Re1V Re -0.312296(16) 0.21876(2) -0.312296(16)
C1H C 0.1169(4) -0.1169(4) 0.3159(7)
N1H N 0.0775(4) -0.0775(4) 0.3322(6)
C1BB C -0.1169(4) -0.1169(4) 0.3159(7)
N1BB N -0.0775(4) -0.0775(4) 0.3322(6)
O4A O -0.0000 0.0000 0.4518(18)
O5A O 0.0000 0.0000 0.2244(14)
C1LB C 0.1841(7) 0.6169(4) 0.3831(4)
N1LB N 0.1678(6) 0.5775(4) 0.4225(4)
C1KB_2 C 0.1841(7) 0.3831(4) 0.6169(4)
N1KB_2 N 0.1678(6) 0.4225(4) 0.5775(4)
O4JB O 0.0482(18) 0.5000 0.5000
O5JB O 0.2756(14) 0.5000 0.5000
O4C O 0.4518(18) 0.0000 0.0000
O5C O 0.2244(14) 0.0000 0.0000
O4NB O 0.5000 0.5000 -0.0482(18)
O5NB O 0.5000 0.5000 -0.2756(14)
O4E O -0.4518(18) 0.0000 0.0000
O5E O -0.2244(14) 0.0000 0.0000
Mn1R Mn -0.5000 0.5000 0.1600(2)
Mn1M Mn -0.5000 0.5000 -0.1600(2)
Mn1R_2 Mn 0.5000 0.5000 0.1600(2)
Mn1F Mn 0.0000 0.0000 -0.3400(2)
Mn1Q Mn 0.1600(2) 0.5000 -0.5000
Mn1N Mn -0.1600(2) 0.5000 0.5000
Mn1N_2 Mn -0.1600(2) 0.5000 -0.5000
N1Q N 0.1678(6) 0.5775(4) 0.5775(4)
N1D N 0.3322(6) -0.0775(4) 0.0775(4)
N1AB N 0.3322(6) -0.0775(4) -0.0775(4)
N1M N 0.5775(4) 0.5775(4) -0.1678(6)
N1S N 0.4225(4) 0.5775(4) -0.1678(6)
N1T_2 N 0.5775(4) 0.4225(4) -0.1678(6)
N1XA N -0.3322(6) -0.0775(4) -0.0775(4)
N1YA N -0.3322(6) -0.0775(4) 0.0775(4)
C1HB C 0.3831(4) 0.1841(7) 0.3831(4)
C1QB C 0.3831(4) 0.1841(7) -0.3831(4)
C1SB C -0.3831(4) 0.1841(7) 0.3831(4)
C1V C -0.3831(4) 0.1841(7) -0.3831(4)
Re1H Re 0.187704(16) -0.187704(16) 0.28124(2)
Re1BB Re -0.187704(16) -0.187704(16) 0.28124(2)
Re1LB Re 0.21876(2) 0.687704(16) 0.312296(16)
Re1KB_2 Re 0.21876(2) 0.312296(16) 0.687704(16)
O1 O -0.1051(8) 0.5000 -0.1051(8)
loop_
_geom_bond_atom_site_label_1
_geom_bond_atom_site_label_2
_geom_bond_site_symmetry_1
_geom_bond_site_symmetry_2
Re1 Se1 1_555 1_555
Se1 Re1B 1_555 1_555
Se2 Re1 1_555 1_555
Mn1 N1 1_555 1_555
C1 Re1 1_555 1_555
N1 C1 1_555 1_555
O4 Mn1 1_555 1_555
O5 Mn1 1_555 1_555
C1I N1I 1_555 1_555
N1I Mn1 1_555 1_555
C1K N1K 1_555 1_555
N1K Mn1 1_555 1_555
C1FB N1FB 1_555 1_555
N1FB Mn1 1_555 1_555
Re1I C1I 1_555 1_555
Re1K C1K 1_555 1_555
Re1FB C1FB 1_555 1_555
Se1A Re1 1_555 1_555
Se1JB Re1 1_555 1_555
Se1I Re1I 1_555 1_555
Se1C Re1I 1_555 1_555
Se1NB Re1I 1_555 1_555
Se2I Re1I 1_555 1_555
Se1K Re1K 1_555 1_555
Se1E Re1K 1_555 1_555
Se1OB Re1K 1_555 1_555
Se2K Re1K 1_555 1_555
Se1FB Re1FB 1_555 1_555
Se1ZA Re1FB 1_555 1_555
Se1T Re1FB 1_555 1_555
Se2FB Re1FB 1_555 1_555
Re1A Re1 1_555 1_555
Re1JB Re1 1_555 1_555
Re1C Re1I 1_555 1_555
Re1NB Re1I 1_555 1_555
Re1E Re1K 1_555 1_555
Re1OB Re1K 1_555 1_555
Re1ZA Re1FB 1_555 1_555
Re1T Re1FB 1_555 1_555
Re1B Re1 1_555 1_555
Re1IB Re1 1_555 1_555
Re1F Re1I 1_555 1_555
Re1KB Re1I 1_555 1_555
Re1G Re1K 1_555 1_555
Re1MB Re1K 1_555 1_555
Re1DB Re1FB 1_555 1_555
Re1P Re1FB 1_555 1_555
Se1B Re1A 1_555 1_555
Se1HB Re1A 1_555 1_555
C1A Re1A 1_555 1_555
N1A C1A 1_555 1_555
Se2JB Re1JB 1_555 1_555
C1JB Re1JB 1_555 1_555
N1JB C1JB 1_555 1_555
Se1F Re1C 1_555 1_555
Se1QB Re1C 1_555 1_555
C1C Re1C 1_555 1_555
N1C C1C 1_555 1_555
Se2NB Re1NB 1_555 1_555
C1NB Re1NB 1_555 1_555
N1NB C1NB 1_555 1_555
Se1G Re1E 1_555 1_555
Se1SB Re1E 1_555 1_555
C1E Re1E 1_555 1_555
N1E C1E 1_555 1_555
Se2OB Re1OB 1_555 1_555
C1OB Re1OB 1_555 1_555
N1OB C1OB 1_555 1_555
Se1DB Re1ZA 1_555 1_555
Se1V Re1ZA 1_555 1_555
C1ZA Re1ZA 1_555 1_555
N1ZA C1ZA 1_555 1_555
Se2T Re1T 1_555 1_555
C1T Re1T 1_555 1_555
N1T C1T 1_555 1_555
Se1IB Re1B 1_555 1_555
C1B Re1B 1_555 1_555
N1B C1B 1_555 1_555
C1IB Re1IB 1_555 1_555
N1IB C1IB 1_555 1_555
Se1KB Re1F 1_555 1_555
C1F Re1F 1_555 1_555
N1F C1F 1_555 1_555
C1KB Re1KB 1_555 1_555
N1KB C1KB 1_555 1_555
Se1MB Re1G 1_555 1_555
C1G Re1G 1_555 1_555
N1G C1G 1_555 1_555
C1MB Re1MB 1_555 1_555
N1MB C1MB 1_555 1_555
Se1P Re1DB 1_555 1_555
C1DB Re1DB 1_555 1_555
N1DB C1DB 1_555 1_555
C1P Re1P 1_555 1_555
N1P C1P 1_555 1_555
Mn1A N1A 1_555 1_555
Mn1JB N1JB 1_555 1_555
Mn1C N1C 1_555 1_555
Mn1NB N1NB 1_555 1_555
Mn1E N1E 1_555 1_555
Re1HB Re1A 1_555 1_555
Re1QB Re1C 1_555 1_555
Re1SB Re1E 1_555 1_555
Re1V Re1ZA 1_555 1_555
C1H N1H 1_555 1_555
N1H Mn1A 1_555 1_555
C1BB N1BB 1_555 1_555
N1BB Mn1A 1_555 1_555
O4A Mn1A 1_555 1_555
O5A Mn1A 1_555 1_555
C1LB N1LB 1_555 1_555
N1LB Mn1JB 1_555 1_555
C1KB_2 N1KB_2 1_555 1_555
N1KB_2 Mn1JB 1_555 1_555
O4JB Mn1JB 1_555 1_555
O5JB Mn1JB 1_555 1_555
O4C Mn1C 1_555 1_555
O5C Mn1C 1_555 1_555
O4NB Mn1NB 1_555 1_555
O5NB Mn1NB 1_555 1_555
O4E Mn1E 1_555 1_555
O5E Mn1E 1_555 1_555
Mn1R N1OB 1_555 1_555
Mn1M N1T 1_555 1_555
Mn1R_2 N1IB 1_555 1_555
Mn1F N1F 1_555 1_555
Mn1Q N1KB 1_555 1_555
Mn1N N1MB 1_555 1_555
Mn1N_2 N1P 1_555 1_555
N1Q Mn1JB 1_555 1_555
N1D Mn1C 1_555 1_555
N1AB Mn1C 1_555 1_555
N1M Mn1NB 1_555 1_555
N1S Mn1NB 1_555 1_555
N1T_2 Mn1NB 1_555 1_555
N1XA Mn1E 1_555 1_555
N1YA Mn1E 1_555 1_555
C1HB Re1HB 1_555 1_555
C1QB Re1QB 1_555 1_555
C1SB Re1SB 1_555 1_555
C1V Re1V 1_555 1_555
Re1H C1H 1_555 1_555
Re1BB C1BB 1_555 1_555
Re1LB C1LB 1_555 1_555
Re1KB_2 C1KB_2 1_555 1_555
Se1 Re1IB 1_555 1_555
Se2 Re1A 1_555 1_555
Se2 Re1B 1_555 1_555
Se1A Re1A 1_555 1_555
Se1A Re1JB 1_555 1_555
Se1JB Re1JB 1_555 1_555
Se1JB Re1IB 1_555 1_555
Se1I Re1F 1_555 1_555
Se1I Re1KB 1_555 1_555
Se1C Re1C 1_555 1_555
Se1C Re1NB 1_555 1_555
Se1NB Re1NB 1_555 1_555
Se1NB Re1KB 1_555 1_555
Se2I Re1C 1_555 1_555
Se2I Re1F 1_555 1_555
Se1K Re1G 1_555 1_555
Se1K Re1MB 1_555 1_555
Se1E Re1E 1_555 1_555
Se1E Re1OB 1_555 1_555
Se1OB Re1OB 1_555 1_555
Se1OB Re1MB 1_555 1_555
Se2K Re1E 1_555 1_555
Se2K Re1G 1_555 1_555
Se1FB Re1DB 1_555 1_555
Se1FB Re1P 1_555 1_555
Se1ZA Re1ZA 1_555 1_555
Se1ZA Re1T 1_555 1_555
Se1T Re1T 1_555 1_555
Se1T Re1P 1_555 1_555
Se2FB Re1ZA 1_555 1_555
Se2FB Re1DB 1_555 1_555
Re1A Re1JB 1_555 1_555
Re1A Re1B 1_555 1_555
Re1JB Re1IB 1_555 1_555
Re1JB Se1HB 1_555 1_555
Re1JB Re1HB 1_555 1_555
Re1C Re1NB 1_555 1_555
Re1C Re1F 1_555 1_555
Re1NB Re1KB 1_555 1_555
Re1NB Se1QB 1_555 1_555
Re1NB Re1QB 1_555 1_555
Re1E Re1OB 1_555 1_555
Re1E Re1G 1_555 1_555
Re1OB Re1MB 1_555 1_555
Re1OB Se1SB 1_555 1_555
Re1OB Re1SB 1_555 1_555
Re1ZA Re1T 1_555 1_555
Re1ZA Re1DB 1_555 1_555
Re1T Re1P 1_555 1_555
Re1T Se1V 1_555 1_555
Re1T Re1V 1_555 1_555
Re1B Re1IB 1_555 1_555
Re1B Se1B 1_555 1_555
Re1B Re1HB 1_555 1_555
Re1IB Se2JB 1_555 1_555
Re1IB Se1IB 1_555 1_555
Re1IB Re1HB 1_555 1_555
Re1F Re1KB 1_555 1_555
Re1F Se1F 1_555 1_555
Re1F Re1QB 1_555 1_555
Re1KB Se2NB 1_555 1_555
Re1KB Se1KB 1_555 1_555
Re1KB Re1QB 1_555 1_555
Re1G Re1MB 1_555 1_555
Re1G Se1G 1_555 1_555
Re1G Re1SB 1_555 1_555
Re1MB Se2OB 1_555 1_555
Re1MB Se1MB 1_555 1_555
Re1MB Re1SB 1_555 1_555
Re1DB Re1P 1_555 1_555
Re1DB Se1DB 1_555 1_555
Re1DB Re1V 1_555 1_555
Re1P Se2T 1_555 1_555
Re1P Se1P 1_555 1_555
Re1P Re1V 1_555 1_555
Se1B Re1HB 1_555 1_555
Se1HB Re1HB 1_555 1_555
Se2JB Re1HB 1_555 1_555
Se1F Re1QB 1_555 1_555
Se1QB Re1QB 1_555 1_555
Se2NB Re1QB 1_555 1_555
Se1G Re1SB 1_555 1_555
Se1SB Re1SB 1_555 1_555
Se2OB Re1SB 1_555 1_555
Se1DB Re1V 1_555 1_555
Se1V Re1V 1_555 1_555
N1ZA Mn1E 1_555 1_555
Se2T Re1V 1_555 1_555
Se1IB Re1HB 1_555 1_555
N1B Mn1C 1_555 1_555
Se1KB Re1QB 1_555 1_555
Se1MB Re1SB 1_555 1_555
N1G Mn1A 1_555 1_555
Se1P Re1V 1_555 1_555
N1DB Mn1F 1_555 1_555

#END
