
#######################################################################
#
#                 Cambridge Crystallographic Data Centre
#                                CCDC 
#
#######################################################################
#
# If this CIF has been generated from an entry in the Cambridge 
# Structural Database, then it will include bibliographic, chemical, 
# crystal, experimental, refinement or atomic coordinate data resulting 
# from the CCDC's data processing and validation procedures.
#
#######################################################################

data_IXIKOR
_chemical_formula_moiety         '(C57 H43 N5 O11 Zn2)n'
_symmetry_cell_setting           monoclinic
_symmetry_space_group_name_H-M   'C 2/c'
_symmetry_Int_Tables_number      15
_space_group_name_Hall           '-C 2yc'
loop_
_symmetry_equiv_pos_site_id
_symmetry_equiv_pos_as_xyz
1 x,y,z
2 -x,y,1/2-z
3 1/2+x,1/2+y,z
4 1/2-x,1/2+y,1/2-z
5 -x,-y,-z
6 x,-y,1/2+z
7 1/2-x,1/2-y,-z
8 1/2+x,1/2-y,1/2+z
_cell_length_a                   23.01(2)
_cell_length_b                   9.672(10)
_cell_length_c                   26.09(3)
_cell_angle_alpha                90
_cell_angle_beta                 97.62(2)
_cell_angle_gamma                90
_cell_volume                     5755.13
loop_
_atom_site_label
_atom_site_type_symbol
_atom_site_fract_x
_atom_site_fract_y
_atom_site_fract_z
_atom_site_U_iso_or_equiv
_atom_site_thermal_displace_type
Zn1 Zn 0.21504(3) 1.12173(7) -0.01095(2) 0.0499 Uani
N1 N 0.0157(4) 0.0463(7) 0.0048(4) 0.0653 Uani
C1 C -0.0030(3) 0.1481(6) -0.0305(2) 0.0610 Uani
C2 C -0.0507(3) 0.1465(8) -0.0693(3) 0.0683 Uani
H1 H -0.0747 0.0690 -0.0739 0.0820 Uiso
C3 C -0.0624(4) 0.2609(10) -0.1012(3) 0.0732 Uani
H2 H -0.0943 0.2599 -0.1272 0.0880 Uiso
C4 C -0.0265(4) 0.3769(8) -0.0944(3) 0.0702 Uani
H3 H -0.0344 0.4534 -0.1157 0.0840 Uiso
C5 C 0.0211(3) 0.3784(6) -0.0556(2) 0.0648 Uani
C6 C 0.0329(3) 0.2640(6) -0.0236(2) 0.0609 Uani
H4 H 0.0647 0.2650 0.0023 0.0730 Uiso
C7 C 0.0590(4) 0.4947(8) -0.0472(3) 0.0737 Uani
H5 H 0.0911 0.4836 -0.0219 0.0890 Uiso
C8 C 0.0946(2) 0.7249(5) -0.0530(2) 0.0686 Uani
C9 C 0.1390(3) 0.7098(7) -0.0117(3) 0.0684 Uani
H6 H 0.1437 0.6261 0.0059 0.0820 Uiso
C10 C 0.1763(4) 0.8198(9) 0.0033(3) 0.0704 Uani
H7 H 0.2059 0.8097 0.0309 0.0850 Uiso
N2 N 0.1692(4) 0.9449(8) -0.0230(4) 0.0660 Uani
C11 C 0.1248(4) 0.9600(6) -0.0643(4) 0.0693 Uani
H8 H 0.1201 1.0437 -0.0819 0.0830 Uiso
C12 C 0.0875(4) 0.8500(6) -0.0793(3) 0.0705 Uani
H9 H 0.0578 0.8601 -0.1069 0.0850 Uiso
C13 C 0.0550(4) 0.6110(8) -0.0694(3) 0.0713 Uani
H10 H 0.0258 0.6245 -0.0971 0.0860 Uiso
O1 O 0.2746(2) 1.0714(6) 0.05154(17) 0.0676 Uani
O2 O 0.3272(3) 1.2597(5) 0.06854(16) 0.0732 Uani
O3 O 0.4307(3) 0.8956(8) 0.25805(19) 0.1000 Uani
O4 O 0.2785(3) 0.9015(5) 0.44268(17) 0.0688 Uani
O5 O 0.3324(2) 0.7138(6) 0.46024(16) 0.0720 Uani
C14 C 0.3124(3) 1.1403(8) 0.0773(2) 0.0557 Uani
C15 C 0.3436(3) 1.0739(8) 0.1263(2) 0.0583 Uani
C16 C 0.3247(4) 0.9537(9) 0.1430(3) 0.0762 Uani
H11 H 0.2921 0.9116 0.1244 0.0910 Uiso
C17 C 0.3514(4) 0.8916(10) 0.1862(3) 0.0879 Uani
H12 H 0.3375 0.8078 0.1972 0.1060 Uiso
C18 C 0.4000(4) 0.9548(11) 0.2142(3) 0.0811 Uani
C19 C 0.4203(4) 1.0769(12) 0.1981(3) 0.0828 Uani
H13 H 0.4530 1.1188 0.2165 0.0990 Uiso
C20 C 0.3919(4) 1.1377(9) 0.1543(3) 0.0723 Uani
H14 H 0.4050 1.2222 0.1433 0.0870 Uiso
C21 C 0.4019(3) 0.8824(8) 0.3009(2) 0.0620 Uani
C22 C 0.3556(4) 0.9664(9) 0.3097(3) 0.0731 Uani
H15 H 0.3422 1.0354 0.2863 0.0880 Uiso
C23 C 0.3300(3) 0.9464(8) 0.3533(2) 0.0620 Uani
H16 H 0.2988 1.0024 0.3593 0.0750 Uiso
C24 C 0.3495(3) 0.8446(7) 0.3888(2) 0.0519 Uani
C25 C 0.3949(3) 0.7629(8) 0.3801(2) 0.0603 Uani
H17 H 0.4079 0.6938 0.4037 0.0720 Uiso
C26 C 0.4225(4) 0.7815(8) 0.3359(2) 0.0682 Uani
H18 H 0.4541 0.7265 0.3302 0.0820 Uiso
C27 C 0.3185(3) 0.8201(8) 0.4346(2) 0.0558 Uani
N1D N -0.0157(4) -0.0463(7) -0.0048(4) 0.0653 Uani
C1D C 0.0030(3) -0.1481(6) 0.0305(2) 0.0610 Uani
C2D C 0.0507(3) -0.1465(8) 0.0693(3) 0.0683 Uani
H1D H 0.0747 -0.0690 0.0739 0.0820 Uiso
C3D C 0.0624(4) -0.2609(10) 0.1012(3) 0.0732 Uani
H2D H 0.0943 -0.2599 0.1272 0.0880 Uiso
C4D C 0.0265(4) -0.3769(8) 0.0944(3) 0.0702 Uani
H3D H 0.0344 -0.4534 0.1157 0.0840 Uiso
C5D C -0.0211(3) -0.3784(6) 0.0556(2) 0.0648 Uani
C6D C -0.0329(3) -0.2640(6) 0.0236(2) 0.0609 Uani
H4D H -0.0647 -0.2650 -0.0023 0.0730 Uiso
C7D C -0.0590(4) -0.4947(8) 0.0472(3) 0.0737 Uani
H5D H -0.0911 -0.4836 0.0219 0.0890 Uiso
C8D C -0.0946(2) -0.7249(5) 0.0530(2) 0.0686 Uani
C9D C -0.1390(3) -0.7098(7) 0.0117(3) 0.0684 Uani
H6D H -0.1437 -0.6261 -0.0059 0.0820 Uiso
C10D C -0.1763(4) -0.8198(9) -0.0033(3) 0.0704 Uani
H7D H -0.2059 -0.8097 -0.0309 0.0850 Uiso
N2D N -0.1692(4) -0.9449(8) 0.0230(4) 0.0660 Uani
C11D C -0.1248(4) -0.9600(6) 0.0643(4) 0.0693 Uani
H8D H -0.1201 -1.0437 0.0819 0.0830 Uiso
C12D C -0.0875(4) -0.8500(6) 0.0793(3) 0.0705 Uani
H9D H -0.0578 -0.8601 0.1069 0.0850 Uiso
C13D C -0.0550(4) -0.6110(8) 0.0694(3) 0.0713 Uani
H10D H -0.0258 -0.6245 0.0971 0.0860 Uiso
Zn1D Zn -0.21504(3) -1.12173(7) 0.01095(2) 0.0499 Uani
O1D O -0.2746(2) -1.0714(6) -0.05154(17) 0.0676 Uani
O2D O -0.3272(3) -1.2597(5) -0.06854(16) 0.0732 Uani
O3D O -0.4307(3) -0.8956(8) -0.25805(19) 0.1000 Uani
O4D O -0.2785(3) -0.9015(5) -0.44268(17) 0.0688 Uani
O5D O -0.3324(2) -0.7138(6) -0.46024(16) 0.0720 Uani
C14D C -0.3124(3) -1.1403(8) -0.0773(2) 0.0557 Uani
C15D C -0.3436(3) -1.0739(8) -0.1263(2) 0.0583 Uani
C16D C -0.3247(4) -0.9537(9) -0.1430(3) 0.0762 Uani
H11D H -0.2921 -0.9116 -0.1244 0.0910 Uiso
C17D C -0.3514(4) -0.8916(10) -0.1862(3) 0.0879 Uani
H12D H -0.3375 -0.8078 -0.1972 0.1060 Uiso
C18D C -0.4000(4) -0.9548(11) -0.2142(3) 0.0811 Uani
C19D C -0.4203(4) -1.0769(12) -0.1981(3) 0.0828 Uani
H13D H -0.4530 -1.1188 -0.2165 0.0990 Uiso
C20D C -0.3919(4) -1.1377(9) -0.1543(3) 0.0723 Uani
H14D H -0.4050 -1.2222 -0.1433 0.0870 Uiso
C21D C -0.4019(3) -0.8824(8) -0.3009(2) 0.0620 Uani
C22D C -0.3556(4) -0.9664(9) -0.3097(3) 0.0731 Uani
H15D H -0.3422 -1.0354 -0.2863 0.0880 Uiso
C23D C -0.3300(3) -0.9464(8) -0.3533(2) 0.0620 Uani
H16D H -0.2988 -1.0024 -0.3593 0.0750 Uiso
C24D C -0.3495(3) -0.8446(7) -0.3888(2) 0.0519 Uani
C25D C -0.3949(3) -0.7629(8) -0.3801(2) 0.0603 Uani
H17D H -0.4079 -0.6938 -0.4037 0.0720 Uiso
C26D C -0.4225(4) -0.7815(8) -0.3359(2) 0.0682 Uani
H18D H -0.4541 -0.7265 -0.3302 0.0820 Uiso
C27D C -0.3185(3) -0.8201(8) -0.4346(2) 0.0558 Uani
Zn1A Zn -0.21504(3) -0.87827(7) -0.48905(2) 0.0499 Uani
Zn1B Zn -0.28496(3) -1.37827(7) -0.01095(2) 0.0499 Uani
Zn1C Zn 0.28496(3) 0.62173(7) 0.51095(2) 0.0499 Uani
Zn1E Zn 0.21504(3) 0.87827(7) 0.48905(2) 0.0499 Uani
Zn1F Zn 0.28496(3) 1.37827(7) 0.01095(2) 0.0499 Uani
Zn1G Zn -0.28496(3) -0.62173(7) -0.51095(2) 0.0499 Uani
O2B O -0.1728(3) -1.2403(5) 0.06854(16) 0.0732 Uani
O2F O 0.1728(3) 1.2403(5) -0.06854(16) 0.0732 Uani
O4A O -0.2785(3) -1.0985(5) 0.05732(17) 0.0688 Uani
O4E O 0.2785(3) 1.0985(5) -0.05732(17) 0.0688 Uani
O5C O 0.1676(2) 1.2138(6) 0.03976(16) 0.0720 Uani
O5G O -0.1676(2) -1.2138(6) -0.03976(16) 0.0720 Uani
O6 O 0.2742(6) 0.2325(17) 0.2781(6) 0.1239 Uani
C41 C 0.2895(5) 0.2945(17) 0.2415(7) 0.1196 Uani
H29 H 0.2833 0.2444 0.2109 0.1430 Uiso
C42 C 0.3296(8) 0.482(3) 0.1909(7) 0.1190 Uani
H30 H 0.3207 0.4252 0.1608 0.1790 Uiso
H31 H 0.3709 0.5007 0.1966 0.1790 Uiso
H32 H 0.3086 0.5681 0.1856 0.1790 Uiso
C43 C 0.3196(10) 0.482(3) 0.2862(7) 0.1225 Uani
H33 H 0.3576 0.4577 0.3037 0.1840 Uiso
H34 H 0.2901 0.4542 0.3069 0.1840 Uiso
H35 H 0.3175 0.5797 0.2806 0.1840 Uiso
N5 N 0.3116(4) 0.4105(15) 0.2362(6) 0.1190 Uani
loop_
_atom_site_aniso_label
_atom_site_aniso_U_11
_atom_site_aniso_U_22
_atom_site_aniso_U_33
_atom_site_aniso_U_23
_atom_site_aniso_U_13
_atom_site_aniso_U_12
Zn1 0.0773(6) 0.0342(4) 0.0372(4) -0.0023(3) 0.0034(3) -0.0002(4)
N1 0.066(3) 0.061(4) 0.069(4) 0.000(3) 0.009(3) -0.010(3)
C1 0.062(3) 0.060(2) 0.059(3) 0.003(2) 0.001(2) -0.001(2)
C2 0.068(3) 0.065(3) 0.069(3) 0.005(2) -0.002(2) -0.006(2)
C3 0.072(3) 0.070(3) 0.071(4) 0.007(3) -0.015(3) -0.009(3)
C4 0.069(3) 0.066(3) 0.070(3) 0.006(3) -0.012(3) -0.009(3)
C5 0.061(3) 0.065(2) 0.066(3) -0.004(2) 0.000(2) -0.009(2)
C6 0.058(3) 0.064(3) 0.059(3) -0.002(3) 0.001(3) -0.004(3)
C7 0.073(2) 0.073(2) 0.075(2) -0.0054(13) 0.0096(13) -0.0023(13)
C8 0.079(3) 0.055(3) 0.073(3) -0.006(3) 0.014(3) -0.009(3)
C9 0.078(3) 0.051(3) 0.076(3) -0.001(3) 0.010(3) -0.012(3)
C10 0.079(3) 0.054(2) 0.078(2) 0.000(2) 0.010(2) -0.010(2)
N2 0.079(3) 0.048(2) 0.072(2) -0.005(2) 0.014(2) -0.009(2)
C11 0.082(3) 0.050(3) 0.076(3) -0.007(3) 0.011(3) -0.016(3)
C12 0.084(3) 0.052(3) 0.076(3) -0.007(3) 0.012(3) -0.015(3)
C13 0.077(3) 0.065(3) 0.073(3) -0.007(3) 0.014(3) -0.004(3)
O1 0.084(3) 0.069(3) 0.046(2) 0.003(2) -0.005(2) 0.003(3)
O2 0.113(4) 0.053(3) 0.051(2) 0.013(2) 0.001(2) 0.001(3)
O3 0.088(4) 0.160(7) 0.055(3) 0.053(3) 0.021(3) 0.053(4)
O4 0.102(4) 0.057(3) 0.052(3) 0.001(2) 0.027(3) 0.002(3)
O5 0.100(4) 0.069(4) 0.049(2) 0.017(3) 0.017(2) -0.004(3)
C14 0.074(4) 0.060(4) 0.033(3) 0.005(3) 0.007(3) 0.006(4)
C15 0.076(4) 0.059(4) 0.040(3) 0.007(3) 0.008(3) 0.018(4)
C16 0.102(6) 0.069(5) 0.054(4) 0.010(4) -0.003(4) -0.009(5)
C17 0.115(7) 0.083(7) 0.062(4) 0.027(4) -0.002(5) 0.000(5)
C18 0.081(5) 0.118(8) 0.045(3) 0.027(4) 0.011(4) 0.036(5)
C19 0.077(5) 0.118(8) 0.050(4) 0.019(5) -0.004(3) -0.017(5)
C20 0.082(5) 0.080(6) 0.054(4) 0.019(4) 0.006(3) -0.008(4)
C21 0.070(4) 0.077(5) 0.040(3) 0.014(3) 0.011(3) 0.014(4)
C22 0.085(5) 0.084(6) 0.049(3) 0.023(4) 0.004(3) 0.009(5)
C23 0.075(4) 0.063(5) 0.047(3) 0.010(3) 0.004(3) 0.013(4)
C24 0.071(4) 0.043(3) 0.040(3) 0.005(3) 0.001(3) -0.008(3)
C25 0.085(5) 0.055(4) 0.040(3) 0.011(3) 0.005(3) 0.006(4)
C26 0.089(5) 0.073(5) 0.040(3) 0.005(3) -0.001(3) 0.025(4)
C27 0.079(5) 0.046(4) 0.041(3) -0.002(3) 0.003(3) -0.013(4)
N1D 0.066 0.061 0.069 0 0.009 -0.01
C1D 0.062 0.06 0.059 0.003 0.001 -0.001
C2D 0.068 0.065 0.069 0.005 -0.002 -0.006
C3D 0.072 0.07 0.071 0.007 -0.015 -0.009
C4D 0.069 0.066 0.07 0.006 -0.012 -0.009
C5D 0.061 0.065 0.066 -0.004 0 -0.009
C6D 0.058 0.064 0.059 -0.002 0.001 -0.004
C7D 0.073 0.073 0.075 -0.0054 0.0096 -0.0023
C8D 0.079 0.055 0.073 -0.006 0.014 -0.009
C9D 0.078 0.051 0.076 -0.001 0.01 -0.012
C10D 0.079 0.054 0.078 0 0.01 -0.01
N2D 0.079 0.048 0.072 -0.005 0.014 -0.009
C11D 0.082 0.05 0.076 -0.007 0.011 -0.016
C12D 0.084 0.052 0.076 -0.007 0.012 -0.015
C13D 0.077 0.065 0.073 -0.007 0.014 -0.004
Zn1D 0.0773 0.0342 0.0372 -0.0023 0.0034 -0.0002
O1D 0.084 0.069 0.046 0.003 -0.005 0.003
O2D 0.113 0.053 0.051 0.013 0.001 0.001
O3D 0.088 0.16 0.055 0.053 0.021 0.053
O4D 0.102 0.057 0.052 0.001 0.027 0.002
O5D 0.1 0.069 0.049 0.017 0.017 -0.004
C14D 0.074 0.06 0.033 0.005 0.007 0.006
C15D 0.076 0.059 0.04 0.007 0.008 0.018
C16D 0.102 0.069 0.054 0.01 -0.003 -0.009
C17D 0.115 0.083 0.062 0.027 -0.002 0
C18D 0.081 0.118 0.045 0.027 0.011 0.036
C19D 0.077 0.118 0.05 0.019 -0.004 -0.017
C20D 0.082 0.08 0.054 0.019 0.006 -0.008
C21D 0.07 0.077 0.04 0.014 0.011 0.014
C22D 0.085 0.084 0.049 0.023 0.004 0.009
C23D 0.075 0.063 0.047 0.01 0.004 0.013
C24D 0.071 0.043 0.04 0.005 0.001 -0.008
C25D 0.085 0.055 0.04 0.011 0.005 0.006
C26D 0.089 0.073 0.04 0.005 -0.001 0.025
C27D 0.079 0.046 0.041 -0.002 0.003 -0.013
Zn1A 0.0773 0.0342 0.0372 0.0023 0.0034 0.0002
Zn1B 0.0773 0.0342 0.0372 -0.0023 0.0034 -0.0002
Zn1C 0.0773 0.0342 0.0372 0.0023 0.0034 0.0002
Zn1E 0.0773 0.0342 0.0372 0.0023 0.0034 0.0002
Zn1F 0.0773 0.0342 0.0372 -0.0023 0.0034 -0.0002
Zn1G 0.0773 0.0342 0.0372 0.0023 0.0034 0.0002
O2B 0.113 0.053 0.051 0.013 0.001 0.001
O2F 0.113 0.053 0.051 0.013 0.001 0.001
O4A 0.102 0.057 0.052 -0.001 0.027 -0.002
O4E 0.102 0.057 0.052 -0.001 0.027 -0.002
O5C 0.1 0.069 0.049 -0.017 0.017 0.004
O5G 0.1 0.069 0.049 -0.017 0.017 0.004
O6 0.124(4) 0.121(4) 0.127(4) 0.004(3) 0.018(3) 0.005(3)
C41 0.120(3) 0.119(3) 0.120(3) 0.0003(16) 0.0164(16) 0.0014(16)
C42 0.118(4) 0.119(4) 0.120(4) -0.001(3) 0.016(3) 0.000(3)
C43 0.122(4) 0.122(4) 0.123(4) 0.000(3) 0.014(3) 0.000(3)
N5 0.119(3) 0.119(3) 0.119(3) -0.0002(15) 0.0157(15) 0.0009(15)
loop_
_geom_bond_atom_site_label_1
_geom_bond_atom_site_label_2
_geom_bond_site_symmetry_1
_geom_bond_site_symmetry_2
Zn1 N2 1_555 1_555
N1 C1 1_555 1_555
C1 C2 1_555 1_555
C2 H1 1_555 1_555
C3 C2 1_555 1_555
H2 C3 1_555 1_555
C4 C3 1_555 1_555
H3 C4 1_555 1_555
C5 C4 1_555 1_555
C6 C1 1_555 1_555
H4 C6 1_555 1_555
C7 C5 1_555 1_555
H5 C7 1_555 1_555
C8 C9 1_555 1_555
C9 H6 1_555 1_555
C10 C9 1_555 1_555
H7 C10 1_555 1_555
N2 C10 1_555 1_555
C11 N2 1_555 1_555
H8 C11 1_555 1_555
C12 C8 1_555 1_555
H9 C12 1_555 1_555
C13 C7 1_555 1_555
H10 C13 1_555 1_555
O1 Zn1 1_555 1_555
O2 C14 1_555 1_555
O3 C18 1_555 1_555
O4 C27 1_555 1_555
O5 C27 1_555 1_555
C14 O1 1_555 1_555
C15 C14 1_555 1_555
C16 C15 1_555 1_555
H11 C16 1_555 1_555
C17 C16 1_555 1_555
H12 C17 1_555 1_555
C18 C17 1_555 1_555
C19 C18 1_555 1_555
H13 C19 1_555 1_555
C20 C15 1_555 1_555
H14 C20 1_555 1_555
C21 O3 1_555 1_555
C22 C21 1_555 1_555
H15 C22 1_555 1_555
C23 C22 1_555 1_555
H16 C23 1_555 1_555
C24 C23 1_555 1_555
C25 C24 1_555 1_555
H17 C25 1_555 1_555
C26 C21 1_555 1_555
H18 C26 1_555 1_555
C27 C24 1_555 1_555
O6 C41 1_555 1_555
C41 H29 1_555 1_555
C42 H30 1_555 1_555
H31 C42 1_555 1_555
H32 C42 1_555 1_555
C43 H33 1_555 1_555
H34 C43 1_555 1_555
H35 C43 1_555 1_555
N5 C41 1_555 1_555
N1D N1 1_555 1_555
C1D N1D 1_555 1_555
C2D C1D 1_555 1_555
H1D C2D 1_555 1_555
C3D C2D 1_555 1_555
H2D C3D 1_555 1_555
C4D C3D 1_555 1_555
H3D C4D 1_555 1_555
C5D C4D 1_555 1_555
C6D C1D 1_555 1_555
H4D C6D 1_555 1_555
C7D C5D 1_555 1_555
H5D C7D 1_555 1_555
C8D C9D 1_555 1_555
C9D H6D 1_555 1_555
C10D C9D 1_555 1_555
H7D C10D 1_555 1_555
N2D C10D 1_555 1_555
C11D N2D 1_555 1_555
H8D C11D 1_555 1_555
C12D C8D 1_555 1_555
H9D C12D 1_555 1_555
C13D C7D 1_555 1_555
H10D C13D 1_555 1_555
Zn1D N2D 1_555 1_555
O1D Zn1D 1_555 1_555
O2D C14D 1_555 1_555
O3D C18D 1_555 1_555
O4D C27D 1_555 1_555
O5D C27D 1_555 1_555
C14D O1D 1_555 1_555
C15D C14D 1_555 1_555
C16D C15D 1_555 1_555
H11D C16D 1_555 1_555
C17D C16D 1_555 1_555
H12D C17D 1_555 1_555
C18D C17D 1_555 1_555
C19D C18D 1_555 1_555
H13D C19D 1_555 1_555
C20D C15D 1_555 1_555
H14D C20D 1_555 1_555
C21D O3D 1_555 1_555
C22D C21D 1_555 1_555
H15D C22D 1_555 1_555
C23D C22D 1_555 1_555
H16D C23D 1_555 1_555
C24D C23D 1_555 1_555
C25D C24D 1_555 1_555
H17D C25D 1_555 1_555
C26D C21D 1_555 1_555
H18D C26D 1_555 1_555
C27D C24D 1_555 1_555
Zn1A O4D 1_555 1_555
Zn1B O2D 1_555 1_555
Zn1C O5 1_555 1_555
Zn1E O4 1_555 1_555
Zn1F O2 1_555 1_555
Zn1G O5D 1_555 1_555
O2B Zn1D 1_555 1_555
O2F Zn1 1_555 1_555
O4A Zn1D 1_555 1_555
O4E Zn1 1_555 1_555
O5C Zn1 1_555 1_555
O5G Zn1D 1_555 1_555
C5 C6 1_555 1_555
C8 C13 1_555 1_555
C11 C12 1_555 1_555
C19 C20 1_555 1_555
C25 C26 1_555 1_555
C42 N5 1_555 1_555
C43 N5 1_555 1_555
C5D C6D 1_555 1_555
C8D C13D 1_555 1_555
C11D C12D 1_555 1_555
C19D C20D 1_555 1_555
C25D C26D 1_555 1_555

#END
