
#######################################################################
#
#                 Cambridge Crystallographic Data Centre
#                                CCDC 
#
#######################################################################
#
# If this CIF has been generated from an entry in the Cambridge 
# Structural Database, then it will include bibliographic, chemical, 
# crystal, experimental, refinement or atomic coordinate data resulting 
# from the CCDC's data processing and validation procedures.
#
#######################################################################

data_IXIKOR01
_chemical_formula_moiety         '(C57 H43 N5 O11 Zn2)n'
_symmetry_cell_setting           monoclinic
_symmetry_space_group_name_H-M   'C 2/c'
_symmetry_Int_Tables_number      15
_space_group_name_Hall           '-C 2yc'
loop_
_symmetry_equiv_pos_site_id
_symmetry_equiv_pos_as_xyz
1 x,y,z
2 -x,y,1/2-z
3 1/2+x,1/2+y,z
4 1/2-x,1/2+y,1/2-z
5 -x,-y,-z
6 x,-y,1/2+z
7 1/2-x,1/2-y,-z
8 1/2+x,1/2-y,1/2+z
_cell_length_a                   22.782(5)
_cell_length_b                   9.758(2)
_cell_length_c                   26.413(5)
_cell_angle_alpha                90
_cell_angle_beta                 97.28(3)
_cell_angle_gamma                90
_cell_volume                     5824.45
loop_
_atom_site_label
_atom_site_type_symbol
_atom_site_fract_x
_atom_site_fract_y
_atom_site_fract_z
_atom_site_U_iso_or_equiv
_atom_site_thermal_displace_type
Zn1 Zn 0.21459(5) 0.37839(11) 0.48988(4) 0.0625 Uani
N1 N -0.0140(6) 1.5035(13) 0.4770(5) 0.0944 Uani
C1 C -0.0159(4) 1.3759(9) 0.4498(4) 0.0830 Uani
C2 C -0.0556(5) 1.3613(11) 0.4057(4) 0.0857 Uani
H1 H -0.0804 1.4336 0.3941 0.1030 Uiso
C3 C -0.0583(5) 1.2387(13) 0.3787(4) 0.0869 Uani
H2 H -0.0848 1.2289 0.3491 0.1050 Uiso
C4 C -0.0212(6) 1.1306(11) 0.3959(4) 0.0856 Uani
H3 H -0.0230 1.0486 0.3779 0.1030 Uiso
C5 C 0.0184(6) 1.1453(10) 0.4401(5) 0.0818 Uani
C6 C 0.0211(5) 1.2679(10) 0.4671(4) 0.0818 Uani
H4 H 0.0477 1.2777 0.4966 0.0980 Uiso
C7 C 0.0588(6) 1.0230(13) 0.4602(5) 0.0795 Uani
H5 H 0.0848 1.0354 0.4899 0.0950 Uiso
C8 C 0.0955(5) 0.7861(11) 0.4500(4) 0.0775 Uani
C9 C 0.1390(5) 0.7905(12) 0.4919(4) 0.0772 Uani
H6 H 0.1447 0.8699 0.5113 0.0930 Uiso
C10 C 0.1741(6) 0.6760(15) 0.5047(5) 0.0778 Uani
H7 H 0.2033 0.6789 0.5327 0.0930 Uiso
N2 N 0.1657(8) 0.5573(14) 0.4756(7) 0.0758 Uani
C11 C 0.1221(7) 0.5530(12) 0.4337(6) 0.0788 Uani
H8 H 0.1165 0.4735 0.4143 0.0940 Uiso
C12 C 0.0870(6) 0.6674(11) 0.4209(4) 0.0790 Uani
H9 H 0.0579 0.6645 0.3929 0.0950 Uiso
C13 C 0.0579(5) 0.9039(12) 0.4374(4) 0.0776 Uani
H10 H 0.0292 0.8935 0.4093 0.0930 Uiso
C14 C 0.3179(5) 0.3187(12) 0.4337(4) 0.0656 Uani
C15 C 0.3492(5) 0.3447(10) 0.3878(3) 0.0607 Uani
C16 C 0.3279(5) 0.4458(11) 0.3534(4) 0.0766 Uani
H11 H 0.2960 0.4999 0.3596 0.0920 Uiso
C17 C 0.3548(5) 0.4657(13) 0.3094(4) 0.0937 Uani
H12 H 0.3418 0.5351 0.2865 0.1120 Uiso
C18 C 0.4014(6) 0.3800(14) 0.3000(5) 0.1013 Uani
C19 C 0.4228(5) 0.2854(11) 0.3349(4) 0.0838 Uani
H13 H 0.4555 0.2330 0.3294 0.1000 Uiso
C20 C 0.3961(5) 0.2658(10) 0.3788(3) 0.0692 Uani
H14 H 0.4104 0.1987 0.4021 0.0830 Uiso
C21 C 0.3992(6) 0.4638(14) 0.2123(5) 0.0877 Uani
C22 C 0.3539(6) 0.3921(13) 0.1877(4) 0.1073 Uani
H15 H 0.3421 0.3083 0.1998 0.1290 Uiso
C23 C 0.3255(6) 0.4509(13) 0.1428(4) 0.0983 Uani
H16 H 0.2945 0.4047 0.1238 0.1180 Uiso
C24 C 0.3432(5) 0.5779(11) 0.1263(4) 0.0689 Uani
C25 C 0.3898(5) 0.6425(13) 0.1530(4) 0.0874 Uani
H17 H 0.4027 0.7255 0.1411 0.1050 Uiso
C26 C 0.4194(6) 0.5865(13) 0.1986(5) 0.1008 Uani
H18 H 0.4507 0.6312 0.2179 0.1210 Uiso
C27 C 0.3127(5) 0.6433(13) 0.0779(3) 0.0647 Uani
O1 O 0.2792(4) 0.4052(7) 0.4432(2) 0.0790 Uani
O2 O 0.3331(3) 0.2152(8) 0.4595(2) 0.0806 Uani
O3 O 0.4305(3) 0.3979(8) 0.2567(3) 0.1031 Uani
O4 O 0.2734(3) 0.5715(8) 0.0516(2) 0.0808 Uani
O5 O 0.3273(3) 0.7604(8) 0.0673(2) 0.0856 Uani
N1D N 0.0140(6) 1.4965(13) 0.5230(5) 0.0944 Uani
C1D C 0.0159(4) 1.6241(9) 0.5502(4) 0.0830 Uani
C2D C 0.0556(5) 1.6387(11) 0.5943(4) 0.0857 Uani
H1D H 0.0804 1.5664 0.6059 0.1030 Uiso
C3D C 0.0583(5) 1.7613(13) 0.6213(4) 0.0869 Uani
H2D H 0.0848 1.7711 0.6509 0.1050 Uiso
C4D C 0.0212(6) 1.8694(11) 0.6041(4) 0.0856 Uani
H3D H 0.0230 1.9514 0.6221 0.1030 Uiso
C5D C -0.0184(6) 1.8547(10) 0.5599(5) 0.0818 Uani
C6D C -0.0211(5) 1.7321(10) 0.5329(4) 0.0818 Uani
H4D H -0.0477 1.7223 0.5034 0.0980 Uiso
C7D C -0.0588(6) 1.9770(13) 0.5398(5) 0.0795 Uani
H5D H -0.0848 1.9646 0.5101 0.0950 Uiso
C8D C -0.0955(5) 2.2139(11) 0.5500(4) 0.0775 Uani
C9D C -0.1390(5) 2.2095(12) 0.5081(4) 0.0772 Uani
H6D H -0.1447 2.1301 0.4887 0.0930 Uiso
C10D C -0.1741(6) 2.3240(15) 0.4953(5) 0.0778 Uani
H7D H -0.2033 2.3211 0.4673 0.0930 Uiso
N2D N -0.1657(8) 2.4427(14) 0.5244(7) 0.0758 Uani
C11D C -0.1221(7) 2.4470(12) 0.5663(6) 0.0788 Uani
H8D H -0.1165 2.5265 0.5857 0.0940 Uiso
C12D C -0.0870(6) 2.3326(11) 0.5791(4) 0.0790 Uani
H9D H -0.0579 2.3355 0.6071 0.0950 Uiso
C13D C -0.0579(5) 2.0961(12) 0.5626(4) 0.0776 Uani
H10D H -0.0292 2.1065 0.5907 0.0930 Uiso
Zn1D Zn -0.21459(5) 2.62161(11) 0.51012(4) 0.0625 Uani
C14D C -0.3179(5) 2.6813(12) 0.5663(4) 0.0656 Uani
C15D C -0.3492(5) 2.6553(10) 0.6122(3) 0.0607 Uani
C16D C -0.3279(5) 2.5542(11) 0.6466(4) 0.0766 Uani
H11D H -0.2960 2.5001 0.6404 0.0920 Uiso
C17D C -0.3548(5) 2.5343(13) 0.6906(4) 0.0937 Uani
H12D H -0.3418 2.4649 0.7135 0.1120 Uiso
C18D C -0.4014(6) 2.6200(14) 0.7000(5) 0.1013 Uani
C19D C -0.4228(5) 2.7146(11) 0.6651(4) 0.0838 Uani
H13D H -0.4555 2.7670 0.6706 0.1000 Uiso
C20D C -0.3961(5) 2.7342(10) 0.6212(3) 0.0692 Uani
H14D H -0.4104 2.8013 0.5979 0.0830 Uiso
C21D C -0.3992(6) 2.5362(14) 0.7877(5) 0.0877 Uani
C22D C -0.3539(6) 2.6079(13) 0.8123(4) 0.1073 Uani
H15D H -0.3421 2.6917 0.8002 0.1290 Uiso
C23D C -0.3255(6) 2.5491(13) 0.8572(4) 0.0983 Uani
H16D H -0.2945 2.5953 0.8762 0.1180 Uiso
C24D C -0.3432(5) 2.4221(11) 0.8737(4) 0.0689 Uani
C25D C -0.3898(5) 2.3575(13) 0.8470(4) 0.0874 Uani
H17D H -0.4027 2.2745 0.8589 0.1050 Uiso
C26D C -0.4194(6) 2.4135(13) 0.8014(5) 0.1008 Uani
H18D H -0.4507 2.3688 0.7821 0.1210 Uiso
C27D C -0.3127(5) 2.3567(13) 0.9221(3) 0.0647 Uani
O1D O -0.2792(4) 2.5948(7) 0.5568(2) 0.0790 Uani
O2D O -0.3331(3) 2.7848(8) 0.5405(2) 0.0806 Uani
O3D O -0.4305(3) 2.6021(8) 0.7433(3) 0.1031 Uani
O4D O -0.2734(3) 2.4285(8) 0.9484(2) 0.0808 Uani
O5D O -0.3273(3) 2.2396(8) 0.9327(2) 0.0856 Uani
Zn1A Zn -0.21459(5) 2.37839(11) 1.01012(4) 0.0625 Uani
Zn1B Zn -0.28541(5) 2.87839(11) 0.48988(4) 0.0625 Uani
Zn1C Zn 0.28541(5) 0.87839(11) 0.01012(4) 0.0625 Uani
Zn1E Zn 0.21459(5) 0.62161(11) -0.01012(4) 0.0625 Uani
Zn1F Zn 0.28541(5) 0.12161(11) 0.51012(4) 0.0625 Uani
Zn1G Zn -0.28541(5) 2.12161(11) 0.98988(4) 0.0625 Uani
O2B O -0.1669(3) 2.7152(8) 0.4595(2) 0.0806 Uani
O2F O 0.1669(3) 0.2848(8) 0.5405(2) 0.0806 Uani
O4A O -0.2734(3) 2.5715(8) 0.4484(2) 0.0808 Uani
O4E O 0.2734(3) 0.4285(8) 0.5516(2) 0.0808 Uani
O5C O 0.1727(3) 0.2604(8) 0.4327(2) 0.0856 Uani
O5G O -0.1727(3) 2.7396(8) 0.5673(2) 0.0856 Uani
N5 N 0.1865(15) 0.411(3) 0.2638(13) 0.1950 Uani
O6 O 0.2339(11) 0.237(3) 0.2278(10) 0.1969 Uani
C41 C 0.2127(16) 0.299(4) 0.2618(13) 0.1953 Uani
H29 H 0.2170 0.2521 0.2927 0.2340 Uiso
C42 C 0.1716(16) 0.488(4) 0.3085(13) 0.1947 Uani
H30 H 0.1829 0.5822 0.3047 0.2920 Uiso
H31 H 0.1931 0.4510 0.3390 0.2920 Uiso
H32 H 0.1299 0.4835 0.3108 0.2920 Uiso
C43 C 0.1867(16) 0.486(4) 0.2154(13) 0.1950 Uani
H33 H 0.1817 0.4234 0.1870 0.2930 Uiso
H34 H 0.2237 0.5328 0.2160 0.2930 Uiso
H35 H 0.1549 0.5509 0.2120 0.2930 Uiso
loop_
_atom_site_aniso_label
_atom_site_aniso_U_11
_atom_site_aniso_U_22
_atom_site_aniso_U_33
_atom_site_aniso_U_23
_atom_site_aniso_U_13
_atom_site_aniso_U_12
Zn1 0.0928(10) 0.0485(7) 0.0461(7) 0.0030(5) 0.0085(5) -0.0036(7)
N1 0.094 0.096 0.094 -0.003 0.015 0.001
C1 0.084 0.081 0.084 0 0.011 0.001
C2 0.088 0.083 0.086 -0.001 0.011 0.001
C3 0.089 0.085 0.087 -0.002 0.012 0.002
C4 0.086 0.084 0.087 -0.002 0.012 0.002
C5 0.082 0.081 0.083 -0.001 0.013 0.001
C6 0.083 0.08 0.083 -0.001 0.013 0.001
C7 0.08 0.079 0.08 0 0.012 0
C8 0.079 0.075 0.078 0 0.008 0.001
C9 0.078 0.074 0.079 -0.001 0.008 0.001
C10 0.079 0.075 0.079 -0.002 0.009 0
N2 0.079 0.072 0.077 0 0.012 0
C11 0.081 0.076 0.079 -0.001 0.009 0.002
C12 0.081 0.076 0.079 0 0.006 0.002
C13 0.078 0.077 0.078 0 0.011 0
C14 0.089(9) 0.059(7) 0.046(6) 0.005(5) -0.002(6) -0.013(7)
C15 0.079(7) 0.056(7) 0.044(6) 0.016(5) -0.004(5) 0.012(6)
C16 0.076(7) 0.091(8) 0.065(7) 0.000(6) 0.017(6) -0.004(7)
C17 0.101(9) 0.130(11) 0.050(6) 0.042(7) 0.009(6) 0.026(8)
C18 0.100(3) 0.110(3) 0.095(3) 0.008(3) 0.017(3) 0.009(3)
C19 0.106(9) 0.090(9) 0.054(6) 0.016(6) 0.005(6) 0.029(7)
C20 0.096(8) 0.063(7) 0.046(6) 0.009(5) -0.001(6) -0.002(7)
C21 0.088(4) 0.089(4) 0.086(4) 0.002(2) 0.011(2) 0.002(2)
C22 0.136(11) 0.107(10) 0.084(8) 0.047(8) 0.034(8) 0.000(10)
C23 0.117(10) 0.106(10) 0.070(8) 0.033(7) 0.004(7) 0.005(9)
C24 0.083(8) 0.076(8) 0.048(6) 0.006(5) 0.010(6) 0.025(7)
C25 0.097(9) 0.110(10) 0.051(6) 0.024(6) -0.007(6) -0.008(8)
C26 0.100(4) 0.102(4) 0.100(4) 0.000(2) 0.011(2) -0.001(2)
C27 0.078(8) 0.072(8) 0.044(6) 0.006(6) 0.007(5) 0.020(7)
O1 0.110(6) 0.068(5) 0.064(5) 0.003(4) 0.031(4) -0.005(5)
O2 0.097(5) 0.085(6) 0.060(4) 0.020(4) 0.011(4) -0.007(5)
O3 0.102(3) 0.110(3) 0.098(3) 0.0072(19) 0.0153(18) 0.0074(19)
O4 0.099(6) 0.086(5) 0.055(4) 0.013(4) 0.001(4) 0.005(5)
O5 0.137(7) 0.058(5) 0.060(4) 0.010(4) 0.006(4) 0.008(5)
N1D 0.094 0.096 0.094 -0.003 0.015 0.001
C1D 0.084 0.081 0.084 0 0.011 0.001
C2D 0.088 0.083 0.086 -0.001 0.011 0.001
C3D 0.089 0.085 0.087 -0.002 0.012 0.002
C4D 0.086 0.084 0.087 -0.002 0.012 0.002
C5D 0.082 0.081 0.083 -0.001 0.013 0.001
C6D 0.083 0.08 0.083 -0.001 0.013 0.001
C7D 0.08 0.079 0.08 0 0.012 0
C8D 0.079 0.075 0.078 0 0.008 0.001
C9D 0.078 0.074 0.079 -0.001 0.008 0.001
C10D 0.079 0.075 0.079 -0.002 0.009 0
N2D 0.079 0.072 0.077 0 0.012 0
C11D 0.081 0.076 0.079 -0.001 0.009 0.002
C12D 0.081 0.076 0.079 0 0.006 0.002
C13D 0.078 0.077 0.078 0 0.011 0
Zn1D 0.0928 0.0485 0.0461 0.003 0.0085 -0.0036
C14D 0.089 0.059 0.046 0.005 -0.002 -0.013
C15D 0.079 0.056 0.044 0.016 -0.004 0.012
C16D 0.076 0.091 0.065 0 0.017 -0.004
C17D 0.101 0.13 0.05 0.042 0.009 0.026
C18D 0.1 0.11 0.095 0.008 0.017 0.009
C19D 0.106 0.09 0.054 0.016 0.005 0.029
C20D 0.096 0.063 0.046 0.009 -0.001 -0.002
C21D 0.088 0.089 0.086 0.002 0.011 0.002
C22D 0.136 0.107 0.084 0.047 0.034 0
C23D 0.117 0.106 0.07 0.033 0.004 0.005
C24D 0.083 0.076 0.048 0.006 0.01 0.025
C25D 0.097 0.11 0.051 0.024 -0.007 -0.008
C26D 0.1 0.102 0.1 0 0.011 -0.001
C27D 0.078 0.072 0.044 0.006 0.007 0.02
O1D 0.11 0.068 0.064 0.003 0.031 -0.005
O2D 0.097 0.085 0.06 0.02 0.011 -0.007
O3D 0.102 0.11 0.098 0.0072 0.0153 0.0074
O4D 0.099 0.086 0.055 0.013 0.001 0.005
O5D 0.137 0.058 0.06 0.01 0.006 0.008
Zn1A 0.0928 0.0485 0.0461 -0.003 0.0085 0.0036
Zn1B 0.0928 0.0485 0.0461 0.003 0.0085 -0.0036
Zn1C 0.0928 0.0485 0.0461 -0.003 0.0085 0.0036
Zn1E 0.0928 0.0485 0.0461 -0.003 0.0085 0.0036
Zn1F 0.0928 0.0485 0.0461 0.003 0.0085 -0.0036
Zn1G 0.0928 0.0485 0.0461 -0.003 0.0085 0.0036
O2B 0.097 0.085 0.06 0.02 0.011 -0.007
O2F 0.097 0.085 0.06 0.02 0.011 -0.007
O4A 0.099 0.086 0.055 -0.013 0.001 -0.005
O4E 0.099 0.086 0.055 -0.013 0.001 -0.005
O5C 0.137 0.058 0.06 -0.01 0.006 -0.008
O5G 0.137 0.058 0.06 -0.01 0.006 -0.008
N5 0.195(6) 0.195(6) 0.195(6) -0.0001(15) 0.0248(17) -0.0001(15)
O6 0.197(7) 0.196(7) 0.198(7) -0.002(3) 0.026(3) -0.001(3)
C41 0.195(6) 0.195(6) 0.196(6) -0.0003(16) 0.0251(17) -0.0004(16)
C42 0.194(7) 0.195(7) 0.195(7) 0.000(3) 0.024(3) 0.000(3)
C43 0.194(7) 0.195(7) 0.196(7) 0.000(3) 0.025(3) 0.000(3)
loop_
_geom_bond_atom_site_label_1
_geom_bond_atom_site_label_2
_geom_bond_site_symmetry_1
_geom_bond_site_symmetry_2
Zn1 N2 1_555 1_555
N1 C1 1_555 1_555
C1 C2 1_555 1_555
C2 H1 1_555 1_555
C3 C2 1_555 1_555
H2 C3 1_555 1_555
C4 C3 1_555 1_555
H3 C4 1_555 1_555
C5 C4 1_555 1_555
C6 C1 1_555 1_555
H4 C6 1_555 1_555
C7 C5 1_555 1_555
H5 C7 1_555 1_555
C8 C9 1_555 1_555
C9 H6 1_555 1_555
C10 C9 1_555 1_555
H7 C10 1_555 1_555
N2 C10 1_555 1_555
C11 N2 1_555 1_555
H8 C11 1_555 1_555
C12 C8 1_555 1_555
H9 C12 1_555 1_555
C13 C7 1_555 1_555
H10 C13 1_555 1_555
C14 C15 1_555 1_555
C15 C16 1_555 1_555
C16 H11 1_555 1_555
C17 C16 1_555 1_555
H12 C17 1_555 1_555
C18 C17 1_555 1_555
C19 C18 1_555 1_555
H13 C19 1_555 1_555
C20 C15 1_555 1_555
H14 C20 1_555 1_555
C21 C22 1_555 1_555
C22 H15 1_555 1_555
C23 C22 1_555 1_555
H16 C23 1_555 1_555
C24 C23 1_555 1_555
C25 C24 1_555 1_555
H17 C25 1_555 1_555
C26 C21 1_555 1_555
H18 C26 1_555 1_555
C27 C24 1_555 1_555
O1 Zn1 1_555 1_555
O2 C14 1_555 1_555
O3 C18 1_555 1_555
O4 C27 1_555 1_555
O5 C27 1_555 1_555
N5 C41 1_555 1_555
O6 C41 1_555 1_555
C41 H29 1_555 1_555
C42 N5 1_555 1_555
H30 C42 1_555 1_555
H31 C42 1_555 1_555
H32 C42 1_555 1_555
C43 N5 1_555 1_555
H33 C43 1_555 1_555
H34 C43 1_555 1_555
H35 C43 1_555 1_555
N1D N1 1_555 1_555
C1D N1D 1_555 1_555
C2D C1D 1_555 1_555
H1D C2D 1_555 1_555
C3D C2D 1_555 1_555
H2D C3D 1_555 1_555
C4D C3D 1_555 1_555
H3D C4D 1_555 1_555
C5D C4D 1_555 1_555
C6D C1D 1_555 1_555
H4D C6D 1_555 1_555
C7D C5D 1_555 1_555
H5D C7D 1_555 1_555
C8D C9D 1_555 1_555
C9D H6D 1_555 1_555
C10D C9D 1_555 1_555
H7D C10D 1_555 1_555
N2D C10D 1_555 1_555
C11D N2D 1_555 1_555
H8D C11D 1_555 1_555
C12D C8D 1_555 1_555
H9D C12D 1_555 1_555
C13D C7D 1_555 1_555
H10D C13D 1_555 1_555
Zn1D N2D 1_555 1_555
C14D C15D 1_555 1_555
C15D C16D 1_555 1_555
C16D H11D 1_555 1_555
C17D C16D 1_555 1_555
H12D C17D 1_555 1_555
C18D C17D 1_555 1_555
C19D C18D 1_555 1_555
H13D C19D 1_555 1_555
C20D C15D 1_555 1_555
H14D C20D 1_555 1_555
C21D C22D 1_555 1_555
C22D H15D 1_555 1_555
C23D C22D 1_555 1_555
H16D C23D 1_555 1_555
C24D C23D 1_555 1_555
C25D C24D 1_555 1_555
H17D C25D 1_555 1_555
C26D C21D 1_555 1_555
H18D C26D 1_555 1_555
C27D C24D 1_555 1_555
O1D Zn1D 1_555 1_555
O2D C14D 1_555 1_555
O3D C18D 1_555 1_555
O4D C27D 1_555 1_555
O5D C27D 1_555 1_555
Zn1A O4D 1_555 1_555
Zn1B O2D 1_555 1_555
Zn1C O5 1_555 1_555
Zn1E O4 1_555 1_555
Zn1F O2 1_555 1_555
Zn1G O5D 1_555 1_555
O2B Zn1D 1_555 1_555
O2F Zn1 1_555 1_555
O4A Zn1D 1_555 1_555
O4E Zn1 1_555 1_555
O5C Zn1 1_555 1_555
O5G Zn1D 1_555 1_555
C5 C6 1_555 1_555
C8 C13 1_555 1_555
C11 C12 1_555 1_555
C14 O1 1_555 1_555
C19 C20 1_555 1_555
C21 O3 1_555 1_555
C25 C26 1_555 1_555
C5D C6D 1_555 1_555
C8D C13D 1_555 1_555
C11D C12D 1_555 1_555
C14D O1D 1_555 1_555
C19D C20D 1_555 1_555
C21D O3D 1_555 1_555
C25D C26D 1_555 1_555

#END
