
#######################################################################
#
#                 Cambridge Crystallographic Data Centre
#                                CCDC 
#
#######################################################################
#
# If this CIF has been generated from an entry in the Cambridge 
# Structural Database, then it will include bibliographic, chemical, 
# crystal, experimental, refinement or atomic coordinate data resulting 
# from the CCDC's data processing and validation procedures.
#
#######################################################################

data_IXIMOT
_chemical_formula_moiety         '(C54 H36 N4 O10 Zn2)n'
_symmetry_cell_setting           monoclinic
_symmetry_space_group_name_H-M   'C 2/c'
_symmetry_Int_Tables_number      15
_space_group_name_Hall           '-C 2yc'
loop_
_symmetry_equiv_pos_site_id
_symmetry_equiv_pos_as_xyz
1 x,y,z
2 -x,y,1/2-z
3 1/2+x,1/2+y,z
4 1/2-x,1/2+y,1/2-z
5 -x,-y,-z
6 x,-y,1/2+z
7 1/2-x,1/2-y,-z
8 1/2+x,1/2-y,1/2+z
_cell_length_a                   22.164(2)
_cell_length_b                   9.6360(9)
_cell_length_c                   26.653(2)
_cell_angle_alpha                90
_cell_angle_beta                 97.127(2)
_cell_angle_gamma                90
_cell_volume                     5648.36
loop_
_atom_site_label
_atom_site_type_symbol
_atom_site_fract_x
_atom_site_fract_y
_atom_site_fract_z
_atom_site_U_iso_or_equiv
_atom_site_thermal_displace_type
Zn1 Zn 0.28743(2) 0.62220(3) 0.01086(2) 0.0424 Uani
O1 O 0.22046(12) 0.5929(2) 0.05649(9) 0.0609 Uani
O2 O 0.16355(11) 0.7813(2) 0.03891(8) 0.0630 Uani
O3 O 0.07381(15) 0.6188(4) 0.24515(10) 0.1249 Uani
O4 O 0.17257(12) 0.2450(3) 0.43206(8) 0.0643 Uani
O5 O 0.22891(12) 0.4339(3) 0.44904(8) 0.0618 Uani
N1 N 0.5201(3) -0.5122(9) 0.01765(19) 0.0666 Uani
C1 C 0.5197(3) -0.3788(6) 0.0444(2) 0.0648 Uani
C2 C 0.5619(4) -0.3687(8) 0.0874(3) 0.0958 Uani
H1 H 0.5875 -0.4431 0.0971 0.1150 Uiso
C3 C 0.5659(5) -0.2475(9) 0.1159(4) 0.1082 Uani
H2 H 0.5942 -0.2407 0.1447 0.1300 Uiso
C4 C 0.5277(4) -0.1363(7) 0.1013(3) 0.0720 Uani
H3 H 0.5304 -0.0552 0.1204 0.0860 Uiso
C5 C 0.48556(18) -0.1464(5) 0.05833(17) 0.0528 Uani
C6 C 0.4815(2) -0.2676(6) 0.02985(15) 0.0561 Uani
H4 H 0.4533 -0.2744 0.0011 0.0670 Uiso
C7 C 0.4447(2) -0.0274(5) 0.04273(19) 0.0532 Uani
H5 H 0.4163 -0.0383 0.0142 0.0640 Uiso
C8 C 0.4460(2) 0.0905(4) 0.06632(18) 0.0574 Uani
H6 H 0.4745 0.0997 0.0948 0.0690 Uiso
C9 C 0.40625(14) 0.2128(3) 0.05224(12) 0.0445 Uani
C10 C 0.4128(2) 0.3330(4) 0.08122(17) 0.0591 Uani
H7 H 0.4420 0.3372 0.1094 0.0710 Uiso
C11 C 0.3758(3) 0.4469(4) 0.0680(2) 0.0614 Uani
H8 H 0.3802 0.5274 0.0874 0.0730 Uiso
N2 N 0.3321(3) 0.4406(5) 0.0259(3) 0.0510 Uani
C12 C 0.3255(2) 0.3204(6) -0.0031(2) 0.0655 Uani
H9 H 0.2963 0.3162 -0.0313 0.0780 Uiso
C13 C 0.36261(19) 0.2065(4) 0.01008(14) 0.0553 Uani
H10 H 0.3582 0.1260 -0.0093 0.0660 Uiso
C14 C 0.18072(15) 0.6779(4) 0.06540(11) 0.0461 Uani
C15 C 0.15110(14) 0.6560(3) 0.11255(11) 0.0437 Uani
C16 C 0.10121(16) 0.7344(3) 0.12163(11) 0.0523 Uani
H11 H 0.0844 0.7978 0.0975 0.0630 Uiso
C17 C 0.07633(18) 0.7188(4) 0.16639(12) 0.0641 Uani
H12 H 0.0422 0.7698 0.1720 0.0770 Uiso
C18 C 0.10209(18) 0.6283(5) 0.20243(13) 0.0761 Uani
C19 C 0.15208(19) 0.5495(5) 0.19405(14) 0.0843 Uani
H13 H 0.1694 0.4877 0.2185 0.1010 Uiso
C20 C 0.17575(17) 0.5640(4) 0.14901(13) 0.0638 Uani
H14 H 0.2091 0.5105 0.1430 0.0770 Uiso
C21 C 0.1051(2) 0.5538(7) 0.28776(15) 0.0900 Uani
C22 C 0.1508(3) 0.6195(5) 0.31577(17) 0.0977 Uani
H15 H 0.1638 0.7059 0.3059 0.1170 Uiso
C23 C 0.1787(2) 0.5576(5) 0.35968(15) 0.0784 Uani
H16 H 0.2103 0.6031 0.3793 0.0940 Uiso
C24 C 0.16018(16) 0.4303(4) 0.37418(11) 0.0551 Uani
C25 C 0.1136(2) 0.3640(5) 0.34480(14) 0.0765 Uani
H17 H 0.1011 0.2765 0.3541 0.0920 Uiso
C26 C 0.0850(2) 0.4270(7) 0.30120(16) 0.0986 Uani
H18 H 0.0528 0.3834 0.2816 0.1180 Uiso
C27 C 0.18961(16) 0.3650(4) 0.42257(12) 0.0515 Uani
N1D N 0.4799(3) -0.4878(9) -0.01765(19) 0.0666 Uani
C1D C 0.4803(3) -0.6212(6) -0.0444(2) 0.0648 Uani
C2D C 0.4381(4) -0.6313(8) -0.0874(3) 0.0958 Uani
H1D H 0.4125 -0.5569 -0.0971 0.1150 Uiso
C3D C 0.4341(5) -0.7525(9) -0.1159(4) 0.1082 Uani
H2D H 0.4058 -0.7593 -0.1447 0.1300 Uiso
C4D C 0.4723(4) -0.8637(7) -0.1013(3) 0.0720 Uani
H3D H 0.4696 -0.9448 -0.1204 0.0860 Uiso
C5D C 0.51444(18) -0.8536(5) -0.05833(17) 0.0528 Uani
C6D C 0.5185(2) -0.7324(6) -0.02985(15) 0.0561 Uani
H4D H 0.5467 -0.7256 -0.0011 0.0670 Uiso
C7D C 0.5553(2) -0.9726(5) -0.04273(19) 0.0532 Uani
H5D H 0.5837 -0.9617 -0.0142 0.0640 Uiso
C8D C 0.5540(2) -1.0905(4) -0.06632(18) 0.0574 Uani
H6D H 0.5255 -1.0997 -0.0948 0.0690 Uiso
C9D C 0.59375(14) -1.2128(3) -0.05224(12) 0.0445 Uani
C10D C 0.5872(2) -1.3330(4) -0.08122(17) 0.0591 Uani
H7D H 0.5580 -1.3372 -0.1094 0.0710 Uiso
C11D C 0.6242(3) -1.4469(4) -0.0680(2) 0.0614 Uani
H8D H 0.6198 -1.5274 -0.0874 0.0730 Uiso
N2D N 0.6679(3) -1.4406(5) -0.0259(3) 0.0510 Uani
C12D C 0.6745(2) -1.3204(6) 0.0031(2) 0.0655 Uani
H9D H 0.7037 -1.3162 0.0313 0.0780 Uiso
C13D C 0.63739(19) -1.2065(4) -0.01008(14) 0.0553 Uani
H10D H 0.6418 -1.1260 0.0093 0.0660 Uiso
Zn1D Zn 0.71257(2) -1.62220(3) -0.01086(2) 0.0424 Uani
O1D O 0.77954(12) -1.5929(2) -0.05649(9) 0.0609 Uani
O2D O 0.83645(11) -1.7813(2) -0.03891(8) 0.0630 Uani
O3D O 0.92619(15) -1.6188(4) -0.24515(10) 0.1249 Uani
O4D O 0.82743(12) -1.2450(3) -0.43206(8) 0.0643 Uani
O5D O 0.77109(12) -1.4339(3) -0.44904(8) 0.0618 Uani
C14D C 0.81928(15) -1.6779(4) -0.06540(11) 0.0461 Uani
C15D C 0.84890(14) -1.6560(3) -0.11255(11) 0.0437 Uani
C16D C 0.89879(16) -1.7344(3) -0.12163(11) 0.0523 Uani
H11D H 0.9156 -1.7978 -0.0975 0.0630 Uiso
C17D C 0.92367(18) -1.7188(4) -0.16639(12) 0.0641 Uani
H12D H 0.9578 -1.7698 -0.1720 0.0770 Uiso
C18D C 0.89791(18) -1.6283(5) -0.20243(13) 0.0761 Uani
C19D C 0.84792(19) -1.5495(5) -0.19405(14) 0.0843 Uani
H13D H 0.8306 -1.4877 -0.2185 0.1010 Uiso
C20D C 0.82425(17) -1.5640(4) -0.14901(13) 0.0638 Uani
H14D H 0.7909 -1.5105 -0.1430 0.0770 Uiso
C21D C 0.8949(2) -1.5538(7) -0.28776(15) 0.0900 Uani
C22D C 0.8492(3) -1.6195(5) -0.31577(17) 0.0977 Uani
H15D H 0.8362 -1.7059 -0.3059 0.1170 Uiso
C23D C 0.8213(2) -1.5576(5) -0.35968(15) 0.0784 Uani
H16D H 0.7897 -1.6031 -0.3793 0.0940 Uiso
C24D C 0.83982(16) -1.4303(4) -0.37418(11) 0.0551 Uani
C25D C 0.8864(2) -1.3640(5) -0.34480(14) 0.0765 Uani
H17D H 0.8989 -1.2765 -0.3541 0.0920 Uiso
C26D C 0.9150(2) -1.4270(7) -0.30120(16) 0.0986 Uani
H18D H 0.9472 -1.3834 -0.2816 0.1180 Uiso
C27D C 0.81039(16) -1.3650(4) -0.42257(12) 0.0515 Uani
Zn1A Zn 0.71257(2) -1.37780(3) -0.51086(2) 0.0424 Uani
Zn1B Zn 0.78743(2) -1.87780(3) 0.01086(2) 0.0424 Uani
Zn1C Zn 0.21257(2) 0.12220(3) 0.48914(2) 0.0424 Uani
Zn1E Zn 0.28743(2) 0.37780(3) 0.51086(2) 0.0424 Uani
Zn1F Zn 0.21257(2) 0.87780(3) -0.01086(2) 0.0424 Uani
Zn1G Zn 0.78743(2) -1.12220(3) -0.48914(2) 0.0424 Uani
O2B O 0.66355(11) -1.7187(2) 0.03891(8) 0.0630 Uani
O2F O 0.33645(11) 0.7187(2) -0.03891(8) 0.0630 Uani
O4C O 0.32743(12) 0.7450(3) 0.06794(8) 0.0643 Uani
O4G O 0.67257(12) -1.7450(3) -0.06794(8) 0.0643 Uani
O5A O 0.77109(12) -1.5661(3) 0.05096(8) 0.0618 Uani
O5E O 0.22891(12) 0.5661(3) -0.05096(8) 0.0618 Uani
loop_
_atom_site_aniso_label
_atom_site_aniso_U_11
_atom_site_aniso_U_22
_atom_site_aniso_U_33
_atom_site_aniso_U_23
_atom_site_aniso_U_13
_atom_site_aniso_U_12
Zn1 0.0537(2) 0.0400(2) 0.0331(2) 0.00401(15) 0.00383(15) 0.00628(16)
O1 0.0718(17) 0.0622(15) 0.0528(14) 0.0047(11) 0.0238(13) 0.0043(13)
O2 0.0704(17) 0.0729(16) 0.0477(13) 0.0225(12) 0.0151(12) 0.0052(13)
O3 0.086(2) 0.242(5) 0.0520(16) 0.067(2) 0.0298(16) 0.078(3)
O4 0.0807(19) 0.0650(16) 0.0442(13) 0.0041(12) -0.0038(13) 0.0039(14)
O5 0.0692(17) 0.0716(16) 0.0417(12) 0.0079(12) -0.0051(12) -0.0065(13)
N1 0.034(4) 0.071(3) 0.101(3) 0.029(3) 0.033(2) 0.030(3)
C1 0.070(3) 0.038(2) 0.093(4) 0.003(2) 0.036(3) 0.0119(18)
C2 0.092(4) 0.058(3) 0.133(5) 0.019(3) -0.004(3) 0.026(2)
C3 0.107(6) 0.061(3) 0.143(6) 0.010(4) -0.038(4) 0.036(4)
C4 0.054(6) 0.055(2) 0.094(6) 0.000(3) -0.042(4) 0.022(3)
C5 0.046(4) 0.046(3) 0.064(5) 0.005(3) -0.003(3) 0.004(3)
C6 0.063(3) 0.061(3) 0.048(4) 0.004(3) 0.021(3) 0.006(2)
C7 0.047(4) 0.045(3) 0.067(4) 0.003(3) 0.005(3) 0.006(3)
C8 0.053(3) 0.046(3) 0.072(4) 0.008(2) 0.003(3) 0.004(2)
C9 0.045(3) 0.051(3) 0.036(3) 0.010(3) -0.001(3) 0.002(2)
C10 0.070(3) 0.037(4) 0.068(4) -0.003(3) -0.001(3) 0.019(3)
C11 0.057(3) 0.052(3) 0.075(3) 0.011(3) 0.007(3) 0.030(2)
N2 0.0524(19) 0.0483(16) 0.0550(18) 0.0100(14) 0.0179(15) 0.0057(14)
C12 0.074(3) 0.042(3) 0.081(3) 0.010(2) 0.012(3) 0.029(2)
C13 0.053(4) 0.055(3) 0.052(4) 0.014(3) -0.017(3) 0.026(3)
C14 0.0501(19) 0.0523(18) 0.0355(16) 0.0036(15) 0.0035(14) -0.0057(16)
C15 0.0516(19) 0.0461(17) 0.0327(15) 0.0053(13) 0.0022(14) 0.0022(14)
C16 0.067(2) 0.0528(19) 0.0358(16) 0.0077(14) 0.0012(16) 0.0098(16)
C17 0.068(2) 0.091(3) 0.0337(17) 0.0089(18) 0.0079(17) 0.026(2)
C18 0.065(3) 0.125(4) 0.0402(19) 0.028(2) 0.0137(18) 0.027(2)
C19 0.074(3) 0.129(4) 0.052(2) 0.046(2) 0.016(2) 0.042(3)
C20 0.059(2) 0.086(3) 0.048(2) 0.0164(19) 0.0133(17) 0.020(2)
C21 0.070(3) 0.161(5) 0.042(2) 0.039(3) 0.019(2) 0.042(3)
C22 0.102(4) 0.123(4) 0.069(3) 0.050(3) 0.014(3) 0.013(3)
C23 0.080(3) 0.099(3) 0.055(2) 0.031(2) 0.004(2) 0.006(2)
C24 0.057(2) 0.079(2) 0.0301(16) 0.0089(16) 0.0086(15) 0.0170(18)
C25 0.082(3) 0.101(3) 0.044(2) 0.008(2) -0.002(2) 0.005(2)
C26 0.077(3) 0.169(5) 0.046(2) 0.013(3) -0.008(2) 0.015(3)
C27 0.058(2) 0.065(2) 0.0327(16) 0.0038(16) 0.0103(15) 0.0100(18)
N1D 0.034 0.071 0.101 0.029 0.033 0.03
C1D 0.07 0.038 0.093 0.003 0.036 0.0119
C2D 0.092 0.058 0.133 0.019 -0.004 0.026
C3D 0.107 0.061 0.143 0.01 -0.038 0.036
C4D 0.054 0.055 0.094 0 -0.042 0.022
C5D 0.046 0.046 0.064 0.005 -0.003 0.004
C6D 0.063 0.061 0.048 0.004 0.021 0.006
C7D 0.047 0.045 0.067 0.003 0.005 0.006
C8D 0.053 0.046 0.072 0.008 0.003 0.004
C9D 0.045 0.051 0.036 0.01 -0.001 0.002
C10D 0.07 0.037 0.068 -0.003 -0.001 0.019
C11D 0.057 0.052 0.075 0.011 0.007 0.03
N2D 0.0524 0.0483 0.055 0.01 0.0179 0.0057
C12D 0.074 0.042 0.081 0.01 0.012 0.029
C13D 0.053 0.055 0.052 0.014 -0.017 0.026
Zn1D 0.0537 0.04 0.0331 0.00401 0.00383 0.00628
O1D 0.0718 0.0622 0.0528 0.0047 0.0238 0.0043
O2D 0.0704 0.0729 0.0477 0.0225 0.0151 0.0052
O3D 0.086 0.242 0.052 0.067 0.0298 0.078
O4D 0.0807 0.065 0.0442 0.0041 -0.0038 0.0039
O5D 0.0692 0.0716 0.0417 0.0079 -0.0051 -0.0065
C14D 0.0501 0.0523 0.0355 0.0036 0.0035 -0.0057
C15D 0.0516 0.0461 0.0327 0.0053 0.0022 0.0022
C16D 0.067 0.0528 0.0358 0.0077 0.0012 0.0098
C17D 0.068 0.091 0.0337 0.0089 0.0079 0.026
C18D 0.065 0.125 0.0402 0.028 0.0137 0.027
C19D 0.074 0.129 0.052 0.046 0.016 0.042
C20D 0.059 0.086 0.048 0.0164 0.0133 0.02
C21D 0.07 0.161 0.042 0.039 0.019 0.042
C22D 0.102 0.123 0.069 0.05 0.014 0.013
C23D 0.08 0.099 0.055 0.031 0.004 0.006
C24D 0.057 0.079 0.0301 0.0089 0.0086 0.017
C25D 0.082 0.101 0.044 0.008 -0.002 0.005
C26D 0.077 0.169 0.046 0.013 -0.008 0.015
C27D 0.058 0.065 0.0327 0.0038 0.0103 0.01
Zn1A 0.0537 0.04 0.0331 -0.00401 0.00383 -0.00628
Zn1B 0.0537 0.04 0.0331 0.00401 0.00383 0.00628
Zn1C 0.0537 0.04 0.0331 -0.00401 0.00383 -0.00628
Zn1E 0.0537 0.04 0.0331 -0.00401 0.00383 -0.00628
Zn1F 0.0537 0.04 0.0331 0.00401 0.00383 0.00628
Zn1G 0.0537 0.04 0.0331 -0.00401 0.00383 -0.00628
O2B 0.0704 0.0729 0.0477 0.0225 0.0151 0.0052
O2F 0.0704 0.0729 0.0477 0.0225 0.0151 0.0052
O4C 0.0807 0.065 0.0442 -0.0041 -0.0038 -0.0039
O4G 0.0807 0.065 0.0442 -0.0041 -0.0038 -0.0039
O5A 0.0692 0.0716 0.0417 -0.0079 -0.0051 0.0065
O5E 0.0692 0.0716 0.0417 -0.0079 -0.0051 0.0065
loop_
_geom_bond_atom_site_label_1
_geom_bond_atom_site_label_2
_geom_bond_site_symmetry_1
_geom_bond_site_symmetry_2
Zn1 O1 1_555 1_555
O1 C14 1_555 1_555
O2 C14 1_555 1_555
O3 C18 1_555 1_555
O4 C27 1_555 1_555
O5 C27 1_555 1_555
N1 C1 1_555 1_555
C1 C2 1_555 1_555
C2 H1 1_555 1_555
C3 C2 1_555 1_555
H2 C3 1_555 1_555
C4 C3 1_555 1_555
H3 C4 1_555 1_555
C5 C4 1_555 1_555
C6 C1 1_555 1_555
H4 C6 1_555 1_555
C7 C5 1_555 1_555
H5 C7 1_555 1_555
C8 C7 1_555 1_555
H6 C8 1_555 1_555
C9 C8 1_555 1_555
C10 C9 1_555 1_555
H7 C10 1_555 1_555
C11 C10 1_555 1_555
H8 C11 1_555 1_555
N2 Zn1 1_555 1_555
C12 N2 1_555 1_555
H9 C12 1_555 1_555
C13 C9 1_555 1_555
H10 C13 1_555 1_555
C14 C15 1_555 1_555
C15 C16 1_555 1_555
C16 H11 1_555 1_555
C17 C16 1_555 1_555
H12 C17 1_555 1_555
C18 C17 1_555 1_555
C19 C18 1_555 1_555
H13 C19 1_555 1_555
C20 C15 1_555 1_555
H14 C20 1_555 1_555
C21 O3 1_555 1_555
C22 C21 1_555 1_555
H15 C22 1_555 1_555
C23 C22 1_555 1_555
H16 C23 1_555 1_555
C24 C23 1_555 1_555
C25 C24 1_555 1_555
H17 C25 1_555 1_555
C26 C21 1_555 1_555
H18 C26 1_555 1_555
C27 C24 1_555 1_555
N1D N1 1_555 1_555
C1D N1D 1_555 1_555
C2D C1D 1_555 1_555
H1D C2D 1_555 1_555
C3D C2D 1_555 1_555
H2D C3D 1_555 1_555
C4D C3D 1_555 1_555
H3D C4D 1_555 1_555
C5D C4D 1_555 1_555
C6D C1D 1_555 1_555
H4D C6D 1_555 1_555
C7D C5D 1_555 1_555
H5D C7D 1_555 1_555
C8D C7D 1_555 1_555
H6D C8D 1_555 1_555
C9D C8D 1_555 1_555
C10D C9D 1_555 1_555
H7D C10D 1_555 1_555
C11D C10D 1_555 1_555
H8D C11D 1_555 1_555
N2D C11D 1_555 1_555
C12D N2D 1_555 1_555
H9D C12D 1_555 1_555
C13D C9D 1_555 1_555
H10D C13D 1_555 1_555
Zn1D N2D 1_555 1_555
O1D Zn1D 1_555 1_555
O2D C14D 1_555 1_555
O3D C18D 1_555 1_555
O4D C27D 1_555 1_555
O5D C27D 1_555 1_555
C14D O1D 1_555 1_555
C15D C14D 1_555 1_555
C16D C15D 1_555 1_555
H11D C16D 1_555 1_555
C17D C16D 1_555 1_555
H12D C17D 1_555 1_555
C18D C17D 1_555 1_555
C19D C18D 1_555 1_555
H13D C19D 1_555 1_555
C20D C15D 1_555 1_555
H14D C20D 1_555 1_555
C21D O3D 1_555 1_555
C22D C21D 1_555 1_555
H15D C22D 1_555 1_555
C23D C22D 1_555 1_555
H16D C23D 1_555 1_555
C24D C23D 1_555 1_555
C25D C24D 1_555 1_555
H17D C25D 1_555 1_555
C26D C21D 1_555 1_555
H18D C26D 1_555 1_555
C27D C24D 1_555 1_555
Zn1A O5D 1_555 1_555
Zn1B O2D 1_555 1_555
Zn1C O4 1_555 1_555
Zn1E O5 1_555 1_555
Zn1F O2 1_555 1_555
Zn1G O4D 1_555 1_555
O2B Zn1D 1_555 1_555
O2F Zn1 1_555 1_555
O4C Zn1 1_555 1_555
O4G Zn1D 1_555 1_555
O5A Zn1D 1_555 1_555
O5E Zn1 1_555 1_555
C5 C6 1_555 1_555
C11 N2 1_555 1_555
C12 C13 1_555 1_555
C19 C20 1_555 1_555
C25 C26 1_555 1_555
C5D C6D 1_555 1_555
C12D C13D 1_555 1_555
C19D C20D 1_555 1_555
C25D C26D 1_555 1_555

#END
