
#######################################################################
#
#                 Cambridge Crystallographic Data Centre
#                                CCDC 
#
#######################################################################
#
# If this CIF has been generated from an entry in the Cambridge 
# Structural Database, then it will include bibliographic, chemical, 
# crystal, experimental, refinement or atomic coordinate data resulting 
# from the CCDC's data processing and validation procedures.
#
#######################################################################

data_VAPFOJ
_chemical_formula_moiety         '(C28 H26 Ba2 N8 O15 Pt2)n'
_symmetry_cell_setting           monoclinic
_symmetry_space_group_name_H-M   'P 21/n'
_symmetry_Int_Tables_number      14
_space_group_name_Hall           '-P 2yn'
loop_
_symmetry_equiv_pos_site_id
_symmetry_equiv_pos_as_xyz
1 x,y,z
2 1/2-x,1/2+y,1/2-z
3 -x,-y,-z
4 1/2+x,1/2-y,1/2+z
_cell_length_a                   7.3068(19)
_cell_length_b                   17.634(5)
_cell_length_c                   15.226(4)
_cell_angle_alpha                90
_cell_angle_beta                 94.4477(11)
_cell_angle_gamma                90
_cell_volume                     1955.93
loop_
_atom_site_label
_atom_site_type_symbol
_atom_site_fract_x
_atom_site_fract_y
_atom_site_fract_z
Pt1 Pt 0.21189(4) 1.026412(16) 0.53509(2)
Ba1 Ba 0.24590(6) 0.95529(2) -0.07911(3)
O1 O 0.1270(7) 1.0259(2) 0.0767(3)
O2 O 0.4138(7) 0.9829(2) 0.0951(3)
O3 O 0.5854(8) 0.6916(3) 0.3749(3)
O4 O 0.6053(7) 0.6643(2) 0.5177(3)
O5 O 0.2053(8) 1.1116(3) -0.0939(3)
O6 O 0.5270(8) 0.8467(3) -0.0495(4)
N1 N 0.2343(8) 1.0298(3) 0.4016(4)
N2 N 0.3188(8) 0.9217(3) 0.5163(4)
N3 N 0.0586(9) 1.1890(4) 0.5504(5)
N4 N 0.2097(9) 1.0016(4) 0.7364(4)
C1 C 0.1857(10) 1.0879(4) 0.3479(5)
C2 C 0.1971(11) 1.0841(4) 0.2585(5)
C3 C 0.2641(9) 1.0188(4) 0.2212(5)
C4 C 0.3213(10) 0.9589(4) 0.2774(5)
C5 C 0.3006(9) 0.9660(4) 0.3669(5)
C6 C 0.3517(9) 0.9047(4) 0.4304(5)
C7 C 0.4257(9) 0.8354(4) 0.4081(5)
C8 C 0.4712(10) 0.7821(4) 0.4734(5)
C9 C 0.4331(10) 0.8000(4) 0.5587(5)
C10 C 0.3582(11) 0.8692(4) 0.5777(5)
C11 C 0.2696(10) 1.0090(4) 0.1243(5)
C12 C 0.5592(10) 0.7068(4) 0.4535(6)
C13 C 0.1154(11) 1.1284(4) 0.5462(5)
C14 C 0.2070(9) 1.0142(4) 0.6624(5)
H1 H 0.1418 1.1332 0.3727
H2 H 0.1593 1.1260 0.2223
H3 H 0.3732 0.9143 0.2547
H4 H 0.4450 0.8245 0.3484
H5 H 0.4590 0.7642 0.6046
H6 H 0.3337 0.8799 0.6368
Pt1B Pt -0.21189(4) 0.973588(16) -0.53509(2)
Ba1B Ba -0.24590(6) 1.04471(2) 0.07911(3)
Ba1_2 Ba -0.75410(6) 0.95529(2) -0.07911(3)
Ba1_3 Ba 0.24590(6) 0.95529(2) 0.92089(3)
Ba1A Ba -0.74590(6) 1.45529(2) -0.42089(3)
Ba1B_2 Ba -0.24590(6) 1.04471(2) -0.92089(3)
Ba1B_3 Ba 0.75410(6) 1.04471(2) 0.07911(3)
Ba1C Ba 0.74590(6) 0.54471(2) 0.42089(3)
O1B O -0.1270(7) 0.9741(2) -0.0767(3)
O2B O -0.4138(7) 1.0171(2) -0.0951(3)
O2_2 O -0.5862(7) 0.9829(2) 0.0951(3)
O2B_2 O 0.5862(7) 1.0171(2) -0.0951(3)
O3B O -0.5854(8) 1.3084(3) -0.3749(3)
O3A O -0.0854(8) 1.1916(3) 0.1251(3)
O3C O 0.0854(8) 0.8084(3) -0.1251(3)
O4B O -0.6053(7) 1.3357(2) -0.5177(3)
O4A O -0.1053(7) 1.1643(2) -0.0177(3)
O4C O 0.1053(7) 0.8357(2) 0.0177(3)
O5B O -0.2053(8) 0.8884(3) 0.0939(3)
O6B O -0.5270(8) 1.1533(3) 0.0495(4)
N1B N -0.2343(8) 0.9702(3) -0.4016(4)
N2B N -0.3188(8) 1.0783(3) -0.5163(4)
N3B N -0.0586(9) 0.8110(4) -0.5504(5)
N4B N -0.2097(9) 0.9984(4) -0.7364(4)
N4_2 N 0.2097(9) 1.0016(4) -0.2636(4)
N4B_2 N -0.2097(9) 0.9984(4) 0.2636(4)
C1B C -0.1857(10) 0.9121(4) -0.3479(5)
C2B C -0.1971(11) 0.9159(4) -0.2585(5)
C3B C -0.2641(9) 0.9812(4) -0.2212(5)
C4B C -0.3213(10) 1.0411(4) -0.2774(5)
C5B C -0.3006(9) 1.0340(4) -0.3669(5)
C6B C -0.3517(9) 1.0953(4) -0.4304(5)
C7B C -0.4257(9) 1.1646(4) -0.4081(5)
C8B C -0.4712(10) 1.2179(4) -0.4734(5)
C9B C -0.4331(10) 1.2000(4) -0.5587(5)
C10B C -0.3582(11) 1.1308(4) -0.5777(5)
C11B C -0.2696(10) 0.9910(4) -0.1243(5)
C12B C -0.5592(10) 1.2932(4) -0.4535(6)
C12A C -0.0592(10) 1.2068(4) 0.0465(6)
C12C C 0.0592(10) 0.7932(4) -0.0465(6)
C13B C -0.1154(11) 0.8716(4) -0.5462(5)
C14B C -0.2070(9) 0.9858(4) -0.6624(5)
H1B H -0.1418 0.8668 -0.3727
H2B H -0.1593 0.8740 -0.2223
H3B H -0.3732 1.0857 -0.2547
H4B H -0.4450 1.1755 -0.3484
H5B H -0.4590 1.2358 -0.6046
H6B H -0.3337 1.1201 -0.6368
O7 O 0.6696(10) 1.2135(4) 0.8304(4)
O8 O 0.8153(14) 1.2585(7) 0.2772(6)
O9 O 0.9701(19) 0.2225(12) 0.7376(9)
loop_
_geom_bond_atom_site_label_1
_geom_bond_atom_site_label_2
_geom_bond_site_symmetry_1
_geom_bond_site_symmetry_2
Pt1 N1 1_555 1_555
Ba1 O1 1_555 1_555
O1 C11 1_555 1_555
O2 Ba1 1_555 1_555
O3 C12 1_555 1_555
O4 C12 1_555 1_555
O5 Ba1 1_555 1_555
O6 Ba1 1_555 1_555
N1 C1 1_555 1_555
N2 Pt1 1_555 1_555
N3 C13 1_555 1_555
N4 C14 1_555 1_555
C1 C2 1_555 1_555
C2 C3 1_555 1_555
C3 C4 1_555 1_555
C4 C5 1_555 1_555
C5 N1 1_555 1_555
C6 N2 1_555 1_555
C7 C6 1_555 1_555
C8 C7 1_555 1_555
C9 C8 1_555 1_555
C10 N2 1_555 1_555
C11 O2 1_555 1_555
C12 C8 1_555 1_555
C13 Pt1 1_555 1_555
C14 Pt1 1_555 1_555
H1 C1 1_555 1_555
H2 C2 1_555 1_555
H3 C4 1_555 1_555
H4 C7 1_555 1_555
H5 C9 1_555 1_555
H6 C10 1_555 1_555
Pt1B N1B 1_555 1_555
Ba1B O1 1_555 1_555
Ba1_2 O2B 1_555 1_555
Ba1_3 N4 1_555 1_555
Ba1A O3B 1_555 1_555
Ba1B_2 N4B 1_555 1_555
Ba1B_3 O2 1_555 1_555
Ba1C O3 1_555 1_555
O1B Ba1 1_555 1_555
O2B Ba1B 1_555 1_555
O2_2 Ba1B 1_555 1_555
O2B_2 Ba1 1_555 1_555
O3B C12B 1_555 1_555
O3A Ba1B 1_555 1_555
O3C Ba1 1_555 1_555
O4B Ba1A 1_555 1_555
O4A Ba1B 1_555 1_555
O4C Ba1 1_555 1_555
O5B Ba1B 1_555 1_555
O6B Ba1B 1_555 1_555
N1B C1B 1_555 1_555
N2B Pt1B 1_555 1_555
N3B C13B 1_555 1_555
N4B C14B 1_555 1_555
N4_2 Ba1 1_555 1_555
N4B_2 Ba1B 1_555 1_555
C1B C2B 1_555 1_555
C2B C3B 1_555 1_555
C3B C4B 1_555 1_555
C4B C5B 1_555 1_555
C5B N1B 1_555 1_555
C6B N2B 1_555 1_555
C7B C6B 1_555 1_555
C8B C7B 1_555 1_555
C9B C8B 1_555 1_555
C10B N2B 1_555 1_555
C11B O1B 1_555 1_555
C12B O4B 1_555 1_555
C12A O3A 1_555 1_555
C12C O3C 1_555 1_555
C13B Pt1B 1_555 1_555
C14B Pt1B 1_555 1_555
H1B C1B 1_555 1_555
H2B C2B 1_555 1_555
H3B C4B 1_555 1_555
H4B C7B 1_555 1_555
H5B C9B 1_555 1_555
H6B C10B 1_555 1_555
O4 Ba1C 1_555 1_555
C3 C11 1_555 1_555
C5 C6 1_555 1_555
C9 C10 1_555 1_555
Ba1B O1B 1_555 1_555
Ba1_2 O2_2 1_555 1_555
Ba1B_3 O2B_2 1_555 1_555
O2B C11B 1_555 1_555
O4A C12A 1_555 1_555
O4C C12C 1_555 1_555
C3B C11B 1_555 1_555
C5B C6B 1_555 1_555
C8B C12B 1_555 1_555
C9B C10B 1_555 1_555

#END
