
#######################################################################
#
#                 Cambridge Crystallographic Data Centre
#                                CCDC 
#
#######################################################################
#
# If this CIF has been generated from an entry in the Cambridge 
# Structural Database, then it will include bibliographic, chemical, 
# crystal, experimental, refinement or atomic coordinate data resulting 
# from the CCDC's data processing and validation procedures.
#
#######################################################################

data_IFENOY
_chemical_formula_moiety         '(C18 H12 N2 O3 Zn1)n'
_symmetry_cell_setting           tetragonal
_symmetry_space_group_name_H-M   'I -4'
_symmetry_Int_Tables_number      82
_space_group_name_Hall           'I -4'
loop_
_symmetry_equiv_pos_site_id
_symmetry_equiv_pos_as_xyz
1 x,y,z
2 y,-x,-z
3 -x,-y,z
4 -y,x,-z
5 1/2+x,1/2+y,1/2+z
6 1/2+y,1/2-x,1/2-z
7 1/2-x,1/2-y,1/2+z
8 1/2-y,1/2+x,1/2-z
_cell_length_a                   26.5937(11)
_cell_length_b                   26.5937(11)
_cell_length_c                   5.1462(2)
_cell_angle_alpha                90
_cell_angle_beta                 90
_cell_angle_gamma                90
_cell_volume                     3639.52
loop_
_atom_site_label
_atom_site_type_symbol
_atom_site_fract_x
_atom_site_fract_y
_atom_site_fract_z
_atom_site_U_iso_or_equiv
_atom_site_thermal_displace_type
Zn1 Zn 0.785632(10) 0.273493(10) 0.07508(6) 0.0323 Uani
O1 O 0.74964(8) 0.22082(7) -0.1028(5) 0.0437 Uani
N1 N 0.85829(8) 0.25169(9) 0.1039(6) 0.0422 Uani
C1 C 0.89543(10) 0.26906(12) -0.0320(7) 0.0476 Uani
H1 H 0.8922 0.2963 -0.1500 0.0570 Uiso
H2 H 0.7339 0.2065 0.0257 0.0740 Uiso
O2 O 1.16614(8) 0.27845(9) -0.3567(5) 0.0526 Uani
N2 N 0.93975(8) 0.24417(10) 0.0112(6) 0.0436 Uani
C2 C 0.87768(8) 0.21252(10) 0.2561(6) 0.0346 Uani
C3 C 0.85465(8) 0.18327(9) 0.4411(6) 0.0327 Uani
H3 H 0.8200 0.1875 0.4812 0.0390 Uiso
O3 O 1.13541(18) 0.35266(18) -0.4223(18) 0.0880 Uani
C4 C 0.88397(8) 0.14693(9) 0.5691(6) 0.0295 Uani
C5 C 0.86291(10) 0.11739(10) 0.7736(6) 0.0364 Uani
H4 H 0.8288 0.1221 0.8226 0.0440 Uiso
C6 C 0.89186(11) 0.08225(11) 0.8997(7) 0.0437 Uani
H5 H 0.8776 0.0627 1.0354 0.0520 Uiso
C7 C 0.94258(12) 0.07508(11) 0.8288(7) 0.0459 Uani
H6 H 0.9620 0.0502 0.9158 0.0550 Uiso
C8 C 0.96418(10) 0.10307(10) 0.6382(6) 0.0375 Uani
H7 H 0.9984 0.0976 0.5936 0.0450 Uiso
C9 C 0.93591(9) 0.14074(9) 0.5043(5) 0.0295 Uani
C10 C 0.95895(9) 0.17146(9) 0.3166(6) 0.0304 Uani
H8 H 0.9935 0.1677 0.2740 0.0360 Uiso
C11 C 0.92965(9) 0.20693(10) 0.1979(6) 0.0334 Uani
C12 C 0.98706(9) 0.25839(10) -0.0942(7) 0.0377 Uani
C13 C 0.9948(2) 0.3073(2) -0.1483(15) 0.0503 Uani
H9 H 0.9681 0.3307 -0.1298 0.0600 Uiso
C14 C 1.0419(2) 0.3236(2) -0.2315(17) 0.0567 Uani
H10 H 1.0490 0.3584 -0.2491 0.0680 Uiso
C15 C 1.07963(10) 0.28647(12) -0.2902(8) 0.0500 Uani
C16 C 1.07045(16) 0.23812(18) -0.2422(9) 0.0290 Uani
H11 H 1.0965 0.2140 -0.2635 0.0350 Uiso
C17 C 1.02266(17) 0.22244(17) -0.1606(9) 0.0294 Uani
H12 H 1.0147 0.1877 -0.1508 0.0350 Uiso
C18 C 1.1317(2) 0.3059(2) -0.3533(17) 0.0487 Uani
Zn1F Zn 0.714368(10) 0.226507(10) -0.42492(6) 0.0323 Uani
Zn1G Zn 1.226507(10) 0.285632(10) -0.57508(6) 0.0323 Uani
O1F O 0.75036(8) 0.27918(7) 0.3972(5) 0.0437 Uani
O2E O 0.77845(9) 0.33386(8) -0.1433(5) 0.0526 Uani
loop_
_atom_site_aniso_label
_atom_site_aniso_U_11
_atom_site_aniso_U_22
_atom_site_aniso_U_33
_atom_site_aniso_U_23
_atom_site_aniso_U_13
_atom_site_aniso_U_12
Zn1 0.01971(13) 0.02636(15) 0.05096(18) 0.01059(13) -0.00356(12) 0.00345(10)
O1 0.0423(11) 0.0364(10) 0.0523(12) 0.0056(9) -0.0038(10) -0.0075(8)
N1 0.0210(9) 0.0373(11) 0.0684(18) 0.0264(12) 0.0029(11) 0.0042(8)
C1 0.0244(12) 0.0475(16) 0.071(2) 0.0328(16) 0.0064(12) 0.0086(11)
O2 0.0296(10) 0.0543(13) 0.0739(16) 0.0253(12) 0.0120(10) 0.0067(9)
N2 0.0187(9) 0.0435(13) 0.0685(19) 0.0266(12) 0.0077(10) 0.0043(9)
C2 0.0156(9) 0.0290(11) 0.0592(17) 0.0144(12) 0.0007(10) 0.0049(8)
C3 0.0192(9) 0.0311(11) 0.0479(14) 0.0064(12) 0.0034(10) 0.0027(8)
O3 0.040(2) 0.044(3) 0.180(7) 0.041(4) 0.023(4) 0.0016(19)
C4 0.0245(10) 0.0250(10) 0.0391(12) 0.0048(10) -0.0036(10) -0.0028(8)
C5 0.0312(12) 0.0343(12) 0.0438(15) 0.0079(11) -0.0020(11) -0.0059(10)
C6 0.0433(14) 0.0373(13) 0.0505(17) 0.0185(13) -0.0108(13) -0.0101(11)
C7 0.0419(15) 0.0367(14) 0.0591(18) 0.0164(13) -0.0169(14) -0.0015(12)
C8 0.0288(11) 0.0292(12) 0.0544(17) 0.0058(11) -0.0116(11) 0.0004(9)
C9 0.0219(10) 0.0244(10) 0.0421(14) 0.0024(9) -0.0050(9) 0.0012(8)
C10 0.0172(9) 0.0296(11) 0.0444(13) 0.0037(10) -0.0016(9) 0.0022(8)
C11 0.0187(10) 0.0319(12) 0.0497(15) 0.0118(11) 0.0023(10) 0.0016(9)
C12 0.0220(11) 0.0337(12) 0.0574(17) 0.0133(13) 0.0049(12) 0.0005(9)
C13 0.034(3) 0.032(2) 0.085(5) 0.008(3) 0.013(3) 0.004(2)
C14 0.037(3) 0.036(3) 0.097(5) 0.019(3) 0.015(3) -0.003(2)
C15 0.0243(12) 0.0398(15) 0.086(3) 0.0205(16) 0.0134(14) -0.0010(11)
C16 0.0231(19) 0.032(2) 0.032(2) 0.0070(18) 0.0034(17) -0.0013(16)
C17 0.0234(19) 0.0258(19) 0.039(2) 0.0070(17) 0.0045(16) -0.0024(16)
C18 0.026(2) 0.044(3) 0.076(5) -0.002(3) 0.024(3) -0.014(2)
Zn1F 0.01971 0.02636 0.05096 -0.01059 0.00356 0.00345
Zn1G 0.02636 0.01971 0.05096 0.00356 0.01059 -0.00345
O1F 0.0423 0.0364 0.0523 -0.0056 0.0038 -0.0075
O2E 0.0543 0.0296 0.0739 0.012 -0.0253 -0.0067
loop_
_geom_bond_atom_site_label_1
_geom_bond_atom_site_label_2
_geom_bond_site_symmetry_1
_geom_bond_site_symmetry_2
Zn1 O1 1_555 1_555
O1 H2 1_555 1_555
N1 Zn1 1_555 1_555
C1 N1 1_555 1_555
H1 C1 1_555 1_555
O2 C18 1_555 1_555
N2 C1 1_555 1_555
C2 N1 1_555 1_555
C3 C2 1_555 1_555
H3 C3 1_555 1_555
O3 C18 1_555 1_555
C4 C3 1_555 1_555
C5 C4 1_555 1_555
H4 C5 1_555 1_555
C6 C5 1_555 1_555
H5 C6 1_555 1_555
C7 C6 1_555 1_555
H6 C7 1_555 1_555
C8 C7 1_555 1_555
H7 C8 1_555 1_555
C9 C4 1_555 1_555
C10 C9 1_555 1_555
H8 C10 1_555 1_555
C11 N2 1_555 1_555
C12 N2 1_555 1_555
C13 C12 1_555 1_555
H9 C13 1_555 1_555
C14 C13 1_555 1_555
H10 C14 1_555 1_555
C15 C14 1_555 1_555
C16 C15 1_555 1_555
H11 C16 1_555 1_555
C17 C12 1_555 1_555
H12 C17 1_555 1_555
C18 C15 1_555 1_555
Zn1F O1 1_555 1_555
Zn1G O2 1_555 1_555
O1F Zn1 1_555 1_555
O2E Zn1 1_555 1_555
C2 C11 1_555 1_555
C8 C9 1_555 1_555
C10 C11 1_555 1_555
C16 C17 1_555 1_555

#END
