
#######################################################################
#
#                 Cambridge Crystallographic Data Centre
#                                CCDC 
#
#######################################################################
#
# If this CIF has been generated from an entry in the Cambridge 
# Structural Database, then it will include bibliographic, chemical, 
# crystal, experimental, refinement or atomic coordinate data resulting 
# from the CCDC's data processing and validation procedures.
#
#######################################################################

data_IFEQER
_chemical_formula_moiety         '(C21 H20 N2 O4 Zn1)n'
_symmetry_cell_setting           tetragonal
_symmetry_space_group_name_H-M   'I -4'
_symmetry_Int_Tables_number      82
_space_group_name_Hall           'I -4'
loop_
_symmetry_equiv_pos_site_id
_symmetry_equiv_pos_as_xyz
1 x,y,z
2 y,-x,-z
3 -x,-y,z
4 -y,x,-z
5 1/2+x,1/2+y,1/2+z
6 1/2+y,1/2-x,1/2-z
7 1/2-x,1/2-y,1/2+z
8 1/2-y,1/2+x,1/2-z
_cell_length_a                   26.742(4)
_cell_length_b                   26.742(4)
_cell_length_c                   5.1504(8)
_cell_angle_alpha                90
_cell_angle_beta                 90
_cell_angle_gamma                90
_cell_volume                     3683.23
loop_
_atom_site_label
_atom_site_type_symbol
_atom_site_fract_x
_atom_site_fract_y
_atom_site_fract_z
Zn1 Zn 0.729474(12) 0.286543(12) 0.79226(7)
O1 O 0.78008(8) 0.24716(8) 0.6177(5)
C1 C 0.73597(11) 0.39578(11) 0.6741(8)
H1 H 0.7106 0.3927 0.5460
O2 O 0.72123(10) 0.66856(8) 0.4203(5)
N1 N 0.75236(9) 0.35822(9) 0.8122(6)
C2 C 0.78961(12) 0.37759(11) 0.9777(7)
N2 N 0.75896(10) 0.43994(9) 0.7325(6)
C3 C 0.81692(11) 0.35445(11) 1.1651(7)
H2 H 0.8124 0.3199 1.2021
C4 C 0.85222(11) 0.38336(11) 1.3029(7)
C5 C 0.88182(13) 0.36224(12) 1.5054(7)
H3 H 0.8780 0.3278 1.5470
C6 C 0.91559(13) 0.39048(13) 1.6411(7)
H4 H 0.9346 0.3759 1.7772
C7 C 0.92202(13) 0.44205(14) 1.5764(8)
H5 H 0.9457 0.4616 1.6695
C8 C 0.89505(13) 0.46332(12) 1.3855(7)
H6 H 0.9005 0.4975 1.3440
C9 C 0.85818(10) 0.43561(11) 1.2433(7)
C10 C 0.82871(12) 0.45871(12) 1.0533(7)
H7 H 0.8323 0.4932 1.0143
C11 C 0.79468(12) 0.42969(11) 0.9267(7)
C12 C 0.74518(12) 0.48756(11) 0.6281(7)
C13 C 0.71761(12) 0.58052(12) 0.4350(7)
C14 C 0.70260(14) 0.63023(12) 0.3243(9)
O3 O 0.6874(2) 0.6302(2) 0.0758(12)
C15 C 0.7286(2) 0.4905(2) 0.3812(13)
H8 H 0.7259 0.4610 0.2793
C16 C 0.7151(2) 0.5371(2) 0.2733(15)
H9 H 0.7047 0.5396 0.0975
C17 C 0.7347(2) 0.5777(2) 0.6783(14)
H10 H 0.7382 0.6074 0.7780
C18 C 0.7476(2) 0.5317(2) 0.7882(15)
H11 H 0.7577 0.5295 0.9646
Zn1C Zn 0.713457(12) 0.729474(12) 0.20774(7)
Zn1F Zn 0.770526(12) 0.213457(12) 0.29226(7)
O1F O 0.71992(8) 0.25284(8) 1.1177(5)
O2A O 0.66856(8) 0.27877(10) 0.5797(5)
O5 O 0.60115(14) 0.65968(14) -0.1821(9)
H16 H 0.6209 0.6457 -0.2860
C23 C 0.5654(5) 0.6229(5) -0.083(3)
H17 H 0.5317 0.6328 -0.1447
H18 H 0.5651 0.6255 0.1084
C24 C 0.5732(8) 0.5690(4) -0.153(4)
H19 H 0.5473 0.5491 -0.0623
H20 H 0.6060 0.5586 -0.0835
C25 C 0.5715(18) 0.5551(10) -0.443(5)
H21 H 0.5442 0.5314 -0.4736
H22 H 0.6033 0.5396 -0.4932
H23 H 0.5660 0.5853 -0.5469
loop_
_geom_bond_atom_site_label_1
_geom_bond_atom_site_label_2
_geom_bond_site_symmetry_1
_geom_bond_site_symmetry_2
Zn1 O1 1_555 1_555
O1 Zn1F 1_555 1_555
C1 H1 1_555 1_555
O2 C14 1_555 1_555
N1 Zn1 1_555 1_555
C2 N1 1_555 1_555
N2 C1 1_555 1_555
C3 C2 1_555 1_555
H2 C3 1_555 1_555
C4 C3 1_555 1_555
C5 C4 1_555 1_555
H3 C5 1_555 1_555
C6 C5 1_555 1_555
H4 C6 1_555 1_555
C7 C6 1_555 1_555
H5 C7 1_555 1_555
C8 C7 1_555 1_555
H6 C8 1_555 1_555
C9 C4 1_555 1_555
C10 C9 1_555 1_555
H7 C10 1_555 1_555
C11 C2 1_555 1_555
C12 N2 1_555 1_555
C13 C14 1_555 1_555
C14 O3 1_555 1_555
C15 C12 1_555 1_555
H8 C15 1_555 1_555
C16 C13 1_555 1_555
H9 C16 1_555 1_555
C17 C13 1_555 1_555
H10 C17 1_555 1_555
C18 C12 1_555 1_555
H11 C18 1_555 1_555
O5 H16 1_555 1_555
C23 O5 1_555 1_555
H17 C23 1_555 1_555
H18 C23 1_555 1_555
C24 C23 1_555 1_555
H19 C24 1_555 1_555
H20 C24 1_555 1_555
C25 C24 1_555 1_555
H21 C25 1_555 1_555
H22 C25 1_555 1_555
H23 C25 1_555 1_555
Zn1C O2 1_555 1_555
O1F Zn1 1_555 1_555
O2A Zn1 1_555 1_555
C1 N1 1_555 1_555
N2 C11 1_555 1_555
C8 C9 1_555 1_555
C10 C11 1_555 1_555
C15 C16 1_555 1_555
C17 C18 1_555 1_555

#END
