
#######################################################################
#
#                 Cambridge Crystallographic Data Centre
#                                CCDC 
#
#######################################################################
#
# If this CIF has been generated from an entry in the Cambridge 
# Structural Database, then it will include bibliographic, chemical, 
# crystal, experimental, refinement or atomic coordinate data resulting 
# from the CCDC's data processing and validation procedures.
#
#######################################################################

data_AVEROJ
_chemical_formula_moiety         '(C2 H2 Cd1 Cl1 N3)n'
_symmetry_cell_setting           hexagonal
_symmetry_space_group_name_H-M   'P 65 2 2'
_symmetry_Int_Tables_number      179
_space_group_name_Hall           'P 65 2 (0 0 1)'
loop_
_symmetry_equiv_pos_site_id
_symmetry_equiv_pos_as_xyz
1 x,y,z
2 -y,x-y,2/3+z
3 -x+y,-x,1/3+z
4 -x,-y,1/2+z
5 y,-x+y,1/6+z
6 x-y,x,5/6+z
7 y,x,2/3-z
8 x-y,-y,-z
9 -x,-x+y,1/3-z
10 -y,-x,1/6-z
11 -x+y,y,1/2-z
12 x,x-y,5/6-z
_cell_length_a                   11.4544(3)
_cell_length_b                   11.4544(3)
_cell_length_c                   11.1530(6)
_cell_angle_alpha                90
_cell_angle_beta                 90
_cell_angle_gamma                120
_cell_volume                     1267.26
loop_
_atom_site_label
_atom_site_type_symbol
_atom_site_fract_x
_atom_site_fract_y
_atom_site_fract_z
_atom_site_U_iso_or_equiv
_atom_site_thermal_displace_type
Cd1 Cd 0.614278(9) 0.228556(18) 0.7500 0.0274 Uani
Cl1 Cl 0.44961(7) 0.22480(3) 0.9167 0.0323 Uani
N1 N 1.0047(2) 0.50236(12) 0.9167 0.0457 Uani
N2 N 0.79253(17) 0.3619(2) 0.86663(17) 0.0419 Uani
C1 C 0.9203(2) 0.4070(3) 0.8403(2) 0.0492 Uani
H1 H 0.9487 0.3761 0.7757 0.0590 Uiso
Cd1B Cd 0.614278(20) 0.385722(9) 1.0833 0.0274 Uani
Cd1D Cd 1.228556(18) 0.614278(20) 0.9167 0.0274 Uani
Cl1A Cl 0.77520(3) 0.22481(8) 0.5834 0.0323 Uani
N1E N 0.50234(23) 0.0047(2) 0.7500 0.0457 Uani
N2K N 0.79253(17) 0.43063(26) 0.96670(17) 0.0419 Uani
N2J N 0.56937(26) 0.3619(2) 0.63337(17) 0.0419 Uani
C1K C 0.9203(2) 0.5133(4) 0.9930(2) 0.0492 Uani
H1K H 0.9487 0.5726 1.0576 0.0590 Uiso
loop_
_atom_site_aniso_label
_atom_site_aniso_U_11
_atom_site_aniso_U_22
_atom_site_aniso_U_33
_atom_site_aniso_U_23
_atom_site_aniso_U_13
_atom_site_aniso_U_12
Cd1 0.03164(10) 0.02552(11) 0.02291(11) 0.000 -0.00021(7) 0.01276(5)
Cl1 0.0355(3) 0.0359(2) 0.0255(3) -0.0031(3) 0.000 0.01777(16)
N1 0.0255(11) 0.0614(14) 0.0381(13) -0.0196(14) 0.000 0.0127(6)
N2 0.0301(9) 0.0554(12) 0.0324(10) -0.0164(9) 0.0000(7) 0.0156(8)
C1 0.0322(11) 0.0675(17) 0.0381(12) -0.0251(13) -0.0024(10) 0.0176(11)
Cd1B 0.03164 0.03164 0.02291 0.00021 0.00021 0.01888
Cd1D 0.02552 0.03164 0.02291 0.00021 0 0.01276
Cl1A 0.0359 0.03586 0.0255 0.0031 0.0031 0.01813
N1E 0.0615 0.0255 0.0381 0 0.0196 0.0128
N2K 0.0301 0.0543 0.0324 -0.0164 0 0.0145
N2J 0.0543 0.0554 0.0324 0.0164 0.0164 0.0398
C1K 0.0322 0.0645 0.0381 -0.0227 0.0024 0.0146
loop_
_geom_bond_atom_site_label_1
_geom_bond_atom_site_label_2
_geom_bond_site_symmetry_1
_geom_bond_site_symmetry_2
Cd1 Cl1 1_555 1_555
Cl1 Cd1B 1_555 1_555
N1 C1 1_555 1_555
N2 Cd1 1_555 1_555
C1 N2 1_555 1_555
H1 C1 1_555 1_555
Cd1B N2K 1_555 1_555
Cd1D N1 1_555 1_555
Cl1A Cd1 1_555 1_555
N1E Cd1 1_555 1_555
N2K N2 1_555 1_555
N2J Cd1 1_555 1_555
C1K N1 1_555 1_555
H1K C1K 1_555 1_555
N2K C1K 1_555 1_555

#END
