
#######################################################################
#
#                 Cambridge Crystallographic Data Centre
#                                CCDC 
#
#######################################################################
#
# If this CIF has been generated from an entry in the Cambridge 
# Structural Database, then it will include bibliographic, chemical, 
# crystal, experimental, refinement or atomic coordinate data resulting 
# from the CCDC's data processing and validation procedures.
#
#######################################################################

data_AVERUP
_chemical_formula_moiety         'C20 H28 Cd19 Cl7 N39 O4'
_symmetry_cell_setting           monoclinic
_symmetry_space_group_name_H-M   'C 2/m'
_symmetry_Int_Tables_number      12
_space_group_name_Hall           '-C 2y'
loop_
_symmetry_equiv_pos_site_id
_symmetry_equiv_pos_as_xyz
1 x,y,z
2 -x,y,-z
3 1/2+x,1/2+y,z
4 1/2-x,1/2+y,-z
5 -x,-y,-z
6 x,-y,z
7 1/2-x,1/2-y,-z
8 1/2+x,1/2-y,z
_cell_length_a                   26.8045(7)
_cell_length_b                   11.0726(3)
_cell_length_c                   10.8491(3)
_cell_angle_alpha                90
_cell_angle_beta                 109.5470(4)
_cell_angle_gamma                90
_cell_volume                     3034.39
loop_
_atom_site_label
_atom_site_type_symbol
_atom_site_fract_x
_atom_site_fract_y
_atom_site_fract_z
Cd1 Cd -0.108569(9) 0.5000 0.90919(2)
Cd2 Cd -0.0000 0.75831(2) 1.0000
Cd3 Cd -0.144830(7) 0.818800(17) 0.381040(17)
Cl1 Cl -0.07816(3) 1.0000 0.43451(9)
Cl2 Cl 0.0000 0.5000 1.0000
Cl3 Cl 0.0000 1.0000 1.0000
O1 O -0.2048(9) 0.6509(19) 0.345(2)
H1 H -0.1884 0.5849 0.3706
H2 H -0.2218 0.6515 0.2633
N1 N -0.06468(9) 0.7413(2) 0.7969(2)
N2 N -0.10302(9) 0.6532(2) 0.7679(2)
N3 N -0.11584(9) 0.7649(2) 0.5901(2)
N4 N -0.06475(9) 0.7372(2) 1.0964(2)
N5 N -0.10329(9) 0.6495(2) 1.0630(2)
N6 N -0.11301(9) 0.7561(2) 1.2261(2)
N7 N -0.28340(8) 0.5621(2) 0.7053(2)
N8 N -0.20154(12) 0.5000 0.8143(3)
C1 C -0.07379(11) 0.8051(3) 0.6893(2)
H3 H -0.0534 0.8710 0.6825
C2 C -0.13225(11) 0.6709(3) 0.6450(3)
H4 H -0.1613 0.6233 0.6007
C3 C -0.07227(10) 0.7979(3) 1.1931(3)
H5 H -0.0515 0.8631 1.2343
C4 C -0.13041(11) 0.6643(3) 1.1423(3)
H6 H -0.1590 0.6158 1.1406
C5 C -0.23405(10) 0.5942(3) 0.7707(3)
H7 H -0.2230 0.6742 0.7850
Cd1A Cd 0.108569(9) 0.5000 1.09081(2)
Cd1_2 Cd -0.108569(9) 0.5000 -0.09081(2)
Cd1C Cd -0.391431(9) 1.0000 0.09081(2)
Cd2D Cd -0.0000 0.24169(2) 1.0000
Cd2D_2 Cd 0.0000 1.24169(2) 1.0000
Cd2_2 Cd -0.0000 0.75831(2) 0.0000
Cd3E Cd -0.144830(7) 0.181200(17) 0.381040(17)
Cd3_2 Cd -0.144830(7) 0.818800(17) 1.381040(17)
Cd3E_2 Cd -0.144830(7) 0.181200(17) 1.381040(17)
Cd3E_3 Cd -0.144830(7) 1.181200(17) 0.381040(17)
Cd3F Cd -0.355170(7) 0.681200(17) 0.618960(17)
Cd3C Cd -0.355170(7) 0.318800(17) 0.618960(17)
Cd3A Cd 0.144830(7) 0.818800(17) 1.618960(17)
Cd3A_2 Cd 0.144830(7) 0.818800(17) 0.618960(17)
Cd3D Cd 0.144830(7) 0.181200(17) 1.618960(17)
Cd3_3 Cd -0.144830(7) -0.181200(17) 0.381040(17)
Cl1_2 Cl -0.07816(3) -0.0000 0.43451(9)
Cl1_3 Cl -0.07816(3) 1.0000 1.43451(9)
Cl1_4 Cl -0.07816(3) 0.0000 1.43451(9)
Cl3_2 Cl -0.0000 0.0000 1.0000
O1E O -0.2048(9) 0.3491(19) 0.345(2)
O1_2 O -0.2048(9) 0.6509(19) 1.345(2)
O1E_2 O -0.2048(9) 0.3491(19) 1.345(2)
H1E H -0.1884 0.4151 0.3706
H1_2 H -0.1884 0.5849 1.3706
H1E_2 H -0.1884 0.4151 1.3706
H2E H -0.2218 0.3485 0.2633
H2_2 H -0.2218 0.6515 1.2633
H2E_2 H -0.2218 0.3485 1.2633
N1E N -0.06468(9) 0.2587(2) 0.7969(2)
N1A N 0.06468(9) 0.7413(2) 1.2031(2)
N1D N 0.06468(9) 0.2587(2) 1.2031(2)
N2E N -0.10302(9) 0.3468(2) 0.7679(2)
N2A N 0.10302(9) 0.6532(2) 1.2321(2)
N2D N 0.10302(9) 0.3468(2) 1.2321(2)
N3E N -0.11584(9) 0.2351(2) 0.5901(2)
N3A N 0.11584(9) 0.7649(2) 1.4099(2)
N3D N 0.11584(9) 0.2351(2) 1.4099(2)
N3_2 N -0.11584(9) 0.7649(2) 1.5901(2)
N3E_2 N -0.11584(9) 0.2351(2) 1.5901(2)
N4E N -0.06475(9) 0.2628(2) 1.0964(2)
N4A N 0.06475(9) 0.7372(2) 0.9036(2)
N4_2 N -0.06475(9) 0.7372(2) 0.0964(2)
N4D N 0.06475(9) 0.2628(2) 0.9036(2)
N5E N -0.10329(9) 0.3505(2) 1.0630(2)
N5A N 0.10329(9) 0.6495(2) 0.9370(2)
N5_2 N -0.10329(9) 0.6495(2) 0.0630(2)
N5D N 0.10329(9) 0.3505(2) 0.9370(2)
N6E N -0.11301(9) 0.2439(2) 1.2261(2)
N6A N 0.11301(9) 0.7561(2) 0.7739(2)
N6_2 N -0.11301(9) 0.7561(2) 0.2261(2)
N6E_2 N -0.11301(9) 0.2439(2) 0.2261(2)
N7E N -0.28340(8) 0.4379(2) 0.7053(2)
N7F N -0.21660(8) 0.9379(2) 0.2947(2)
N7C N -0.21660(8) 1.0621(2) 0.2947(2)
N7C_2 N -0.21660(8) 0.0621(2) 0.2947(2)
N7F_2 N -0.21660(8) 0.9379(2) 1.2947(2)
N7C_3 N -0.21660(8) 0.0621(2) 1.2947(2)
N8C N -0.29846(12) 1.0000 0.1857(3)
N8A N 0.20154(12) 0.5000 1.1857(3)
C1E C -0.07379(11) 0.1949(3) 0.6893(2)
C1A C 0.07379(11) 0.8051(3) 1.3107(2)
C1D C 0.07379(11) 0.1949(3) 1.3107(2)
H3E H -0.0534 0.1290 0.6825
H3A H 0.0534 0.8710 1.3175
H3D H 0.0534 0.1290 1.3175
C2E C -0.13225(11) 0.3291(3) 0.6450(3)
C2A C 0.13225(11) 0.6709(3) 1.3550(3)
C2D C 0.13225(11) 0.3291(3) 1.3550(3)
H4E H -0.1613 0.3767 0.6007
H4A H 0.1613 0.6233 1.3993
H4D H 0.1613 0.3767 1.3993
C3E C -0.07227(10) 0.2021(3) 1.1931(3)
C3A C 0.07227(10) 0.7979(3) 0.8069(3)
C3_2 C -0.07227(10) 0.7979(3) 0.1931(3)
H5E H -0.0515 0.1369 1.2343
H5A H 0.0515 0.8631 0.7657
H5_2 H -0.0515 0.8631 0.2343
C4E C -0.13041(11) 0.3357(3) 1.1423(3)
C4A C 0.13041(11) 0.6643(3) 0.8577(3)
C4_2 C -0.13041(11) 0.6643(3) 0.1423(3)
H6E H -0.1590 0.3842 1.1406
H6A H 0.1590 0.6158 0.8594
H6_2 H -0.1590 0.6158 0.1406
C5E C -0.23405(10) 0.4058(3) 0.7707(3)
C5F C -0.26595(10) 0.9058(3) 0.2293(3)
C5C C -0.26595(10) 1.0942(3) 0.2293(3)
H7E H -0.2230 0.3258 0.7850
H7F H -0.2770 0.8258 0.2150
H7C H -0.2770 1.1742 0.2150
loop_
_geom_bond_atom_site_label_1
_geom_bond_atom_site_label_2
_geom_bond_site_symmetry_1
_geom_bond_site_symmetry_2
Cd1 Cl2 1_555 1_555
Cd2 Cl2 1_555 1_555
Cd3 Cl1 1_555 1_555
Cl1 Cd3E_3 1_555 1_555
Cl2 Cd1A 1_555 1_555
Cl3 Cd2 1_555 1_555
O1 Cd3 1_555 1_555
H1 O1 1_555 1_555
H2 O1 1_555 1_555
N1 Cd2 1_555 1_555
N2 Cd1 1_555 1_555
N3 Cd3 1_555 1_555
N4 Cd2 1_555 1_555
N5 Cd1 1_555 1_555
N6 C3 1_555 1_555
N7 C5 1_555 1_555
N8 Cd1 1_555 1_555
C1 N1 1_555 1_555
H3 C1 1_555 1_555
C2 N2 1_555 1_555
H4 C2 1_555 1_555
C3 N4 1_555 1_555
H5 C3 1_555 1_555
C4 N5 1_555 1_555
H6 C4 1_555 1_555
C5 N8 1_555 1_555
H7 C5 1_555 1_555
Cd1A N2A 1_555 1_555
Cd1_2 N5_2 1_555 1_555
Cd1C N8C 1_555 1_555
Cd2D Cl2 1_555 1_555
Cd2D_2 Cl3 1_555 1_555
Cd2_2 N4_2 1_555 1_555
Cd3E Cl1_2 1_555 1_555
Cd3_2 N6 1_555 1_555
Cd3E_2 Cl1_4 1_555 1_555
Cd3E_3 N7C 1_555 1_555
Cd3F N7 1_555 1_555
Cd3C N7E 1_555 1_555
Cd3A N3A 1_555 1_555
Cd3A_2 N6A 1_555 1_555
Cd3D N3D 1_555 1_555
Cd3_3 Cl1_2 1_555 1_555
Cl1_3 Cd3_2 1_555 1_555
Cl3_2 Cd2D 1_555 1_555
O1E Cd3E 1_555 1_555
O1_2 Cd3_2 1_555 1_555
O1E_2 Cd3E_2 1_555 1_555
H1E O1E 1_555 1_555
H1_2 O1_2 1_555 1_555
H1E_2 O1E_2 1_555 1_555
H2E O1E 1_555 1_555
H2_2 O1_2 1_555 1_555
H2E_2 O1E_2 1_555 1_555
N1E Cd2D 1_555 1_555
N1A Cd2 1_555 1_555
N1D Cd2D 1_555 1_555
N2E Cd1 1_555 1_555
N2A N1A 1_555 1_555
N2D Cd1A 1_555 1_555
N3E Cd3E 1_555 1_555
N3A C1A 1_555 1_555
N3D C1D 1_555 1_555
N3_2 Cd3_2 1_555 1_555
N3E_2 Cd3E_2 1_555 1_555
N4E Cd2D 1_555 1_555
N4A Cd2 1_555 1_555
N4_2 N5_2 1_555 1_555
N4D Cd2D 1_555 1_555
N5E Cd1 1_555 1_555
N5A Cd1A 1_555 1_555
N5_2 C4_2 1_555 1_555
N5D Cd1A 1_555 1_555
N6E Cd3E_2 1_555 1_555
N6A C3A 1_555 1_555
N6_2 Cd3 1_555 1_555
N6E_2 Cd3E 1_555 1_555
N7E N7 1_555 1_555
N7F Cd3 1_555 1_555
N7C N7F 1_555 1_555
N7C_2 Cd3E 1_555 1_555
N7F_2 Cd3_2 1_555 1_555
N7C_3 Cd3E_2 1_555 1_555
N8C C5F 1_555 1_555
N8A Cd1A 1_555 1_555
C1E N1E 1_555 1_555
C1A N1A 1_555 1_555
C1D N1D 1_555 1_555
H3E C1E 1_555 1_555
H3A C1A 1_555 1_555
H3D C1D 1_555 1_555
C2E N2E 1_555 1_555
C2A N2A 1_555 1_555
C2D N2D 1_555 1_555
H4E C2E 1_555 1_555
H4A C2A 1_555 1_555
H4D C2D 1_555 1_555
C3E N4E 1_555 1_555
C3A N4A 1_555 1_555
C3_2 N4_2 1_555 1_555
H5E C3E 1_555 1_555
H5A C3A 1_555 1_555
H5_2 C3_2 1_555 1_555
C4E N5E 1_555 1_555
C4A N5A 1_555 1_555
C4_2 N6_2 1_555 1_555
H6E C4E 1_555 1_555
H6A C4A 1_555 1_555
H6_2 C4_2 1_555 1_555
C5E N8 1_555 1_555
C5F N7F 1_555 1_555
C5C N7C 1_555 1_555
H7E C5E 1_555 1_555
H7F C5F 1_555 1_555
H7C C5C 1_555 1_555
N1 N2 1_555 1_555
N3 C1 1_555 1_555
N3 C2 1_555 1_555
N4 N5 1_555 1_555
N6 C4 1_555 1_555
N1E N2E 1_555 1_555
N1D N2D 1_555 1_555
N3E C1E 1_555 1_555
N3E C2E 1_555 1_555
N3A C2A 1_555 1_555
N3D C2D 1_555 1_555
N4E N5E 1_555 1_555
N4A N5A 1_555 1_555
N4D N5D 1_555 1_555
N6E C3E 1_555 1_555
N6E C4E 1_555 1_555
N6A C4A 1_555 1_555
N6_2 C3_2 1_555 1_555
N7E C5E 1_555 1_555
N8C C5C 1_555 1_555

#END
