
#######################################################################
#
#                 Cambridge Crystallographic Data Centre
#                                CCDC 
#
#######################################################################
#
# If this CIF has been generated from an entry in the Cambridge 
# Structural Database, then it will include bibliographic, chemical, 
# crystal, experimental, refinement or atomic coordinate data resulting 
# from the CCDC's data processing and validation procedures.
#
#######################################################################

data_AVESAW
_chemical_formula_moiety         '(C24 H26 Cd6 Cl2 N32)n'
_symmetry_cell_setting           orthorhombic
_symmetry_space_group_name_H-M   'C m c 21'
_symmetry_Int_Tables_number      36
_space_group_name_Hall           'C 2c -2'
loop_
_symmetry_equiv_pos_site_id
_symmetry_equiv_pos_as_xyz
1 x,y,z
2 -x,-y,1/2+z
3 x,-y,1/2+z
4 -x,y,z
5 1/2+x,1/2+y,z
6 1/2-x,1/2-y,1/2+z
7 1/2+x,1/2-y,1/2+z
8 1/2-x,1/2+y,z
_cell_length_a                   10.3417(12)
_cell_length_b                   33.579(4)
_cell_length_c                   13.4148(15)
_cell_angle_alpha                90
_cell_angle_beta                 90
_cell_angle_gamma                90
_cell_volume                     4658.48
loop_
_atom_site_label
_atom_site_type_symbol
_atom_site_fract_x
_atom_site_fract_y
_atom_site_fract_z
Cd1 Cd 0.5000 0.065317(11) -0.52753(3)
Cd2 Cd 0.5000 0.143416(10) -0.75208(3)
Cd3 Cd 0.5000 0.186390(13) -1.01246(3)
Cd4 Cd 0.5000 0.231635(10) -0.27614(3)
Cd5 Cd 0.0000 0.105625(10) -0.24716(3)
Cd6 Cd 1.0000 0.015080(10) -0.78934(3)
Cl1 Cl 0.5000 0.11358(4) -0.93834(12)
Cl2 Cl 0.5000 0.26021(4) -0.09007(11)
N1 N 0.6574(3) 0.06927(10) -0.6484(3)
N2 N 0.6652(3) 0.09769(9) -0.7205(3)
N3 N 0.8331(3) 0.05636(9) -0.7390(3)
N4 N 0.5000 0.13460(12) -0.5051(4)
N5 N 0.5000 0.16287(14) -0.5804(4)
N6 N 0.5000 0.19451(15) -0.4330(4)
N7 N 0.3428(3) 0.18915(9) -0.8022(2)
N8 N 0.3413(3) 0.20238(10) -0.8990(3)
N9 N 0.1704(3) 0.22776(9) -0.8219(3)
N10 N 0.6628(3) 0.18742(9) -0.2194(3)
N11 N 0.6545(4) 0.16908(10) -0.1300(3)
N12 N 0.8367(3) 0.14846(10) -0.2019(3)
N13 N 0.1540(3) 0.06970(9) -0.3354(3)
N14 N 0.1662(3) 0.02918(9) -0.3344(3)
N15 N 0.3344(3) 0.05402(10) -0.4160(3)
N16 N -0.0000 0.06181(14) -0.1143(4)
N17 N -0.0000 0.02073(14) -0.1254(3)
N18 N 0.0000 0.03479(14) 0.0374(3)
N19 N 0.0000 0.1474(2) -0.4154(5)
N20 N 0.5000 -0.00884(15) -0.5625(6)
C1 C 0.7565(5) 0.04523(11) -0.6618(3)
H1 H 0.7722 0.0229 -0.6224
C2 C 0.7703(4) 0.08872(11) -0.7723(3)
H2 H 0.7980 0.1035 -0.8269
C3 C 0.5000 0.15513(17) -0.4213(4)
H3 H 0.5000 0.1431 -0.3589
C4 C 0.5000 0.19753(17) -0.5333(5)
H4 H 0.5000 0.2219 -0.5665
C5 C 0.2398(4) 0.20519(11) -0.7597(3)
H5 H 0.2178 0.2012 -0.6933
C6 C 0.2378(4) 0.22516(12) -0.9068(3)
H6 H 0.2142 0.2381 -0.9654
C7 C 0.7723(4) 0.17469(12) -0.2599(3)
H7 H 0.8017 0.1830 -0.3221
C8 C 0.7594(5) 0.14644(12) -0.1224(3)
H8 H 0.7773 0.1307 -0.0671
C9 C 0.2548(4) 0.08257(12) -0.3851(4)
H9 H 0.2694 0.1094 -0.3977
C10 C 0.2744(4) 0.02135(12) -0.3833(3)
H10 H 0.3054 -0.0043 -0.3938
C11 C -0.0000 0.00691(16) -0.0349(4)
H11 H -0.0000 -0.0202 -0.0210
C12 C 0.0000 0.06752(16) -0.0147(5)
H12 H 0.0000 0.0927 0.0142
C13 C 0.5000 -0.0350(2) -0.6094(6)
C14 C 0.5000 -0.0693(3) -0.6757(9)
C15 C -0.0000 0.1427(2) -0.4987(6)
C16 C 0.0000 0.1365(3) -0.6051(9)
Cd3_2 Cd 0.5000 0.186390(13) -0.01246(3)
Cd4E Cd -0.0000 0.268365(10) -0.77614(3)
Cd4E_2 Cd 1.0000 0.268365(10) -0.77614(3)
Cd5_2 Cd 1.0000 0.105625(10) -0.24716(3)
Cd6A Cd -0.0000 -0.015080(10) -0.28934(3)
Cd6_2 Cd 0.0000 0.015080(10) 0.21066(3)
Cd6_3 Cd 0.0000 0.015080(10) -0.78934(3)
Cd6A_2 Cd 1.0000 -0.015080(10) -0.28934(3)
Cl2_2 Cl 0.5000 0.26021(4) -1.09007(11)
N1C N 0.3426(3) 0.06927(10) -0.6484(3)
N2C N 0.3348(3) 0.09769(9) -0.7205(3)
N3C N 0.1669(3) 0.05636(9) -0.7390(3)
N3C_2 N 1.1669(3) 0.05636(9) -0.7390(3)
N7C N 0.6572(3) 0.18915(9) -0.8022(2)
N8C N 0.6587(3) 0.20238(10) -0.8990(3)
N9C N 0.8296(3) 0.22776(9) -0.8219(3)
N9E N 0.3296(3) 0.27224(9) -0.3219(3)
N9F N 0.6704(3) 0.27224(9) -0.3219(3)
N10C N 0.3372(3) 0.18742(9) -0.2194(3)
N11C N 0.3455(4) 0.16908(10) -0.1300(3)
N11_2 N 0.6545(4) 0.16908(10) -1.1300(3)
N11C_2 N 0.3455(4) 0.16908(10) -1.1300(3)
N12C N 0.1633(3) 0.14846(10) -0.2019(3)
N12_2 N -0.1633(3) 0.14846(10) -0.2019(3)
N13C N 0.8460(3) 0.06970(9) -0.3354(3)
N13C_2 N -0.1540(3) 0.06970(9) -0.3354(3)
N14C N 0.8338(3) 0.02918(9) -0.3344(3)
N14A N 0.8338(3) -0.02918(9) -0.8344(3)
N14B N 1.1662(3) -0.02918(9) -0.8344(3)
N15C N 0.6656(3) 0.05402(10) -0.4160(3)
N17A N 1.0000 -0.02073(14) -0.6254(3)
N18_2 N 1.0000 0.03479(14) -0.9626(3)
C1C C 0.2435(5) 0.04523(11) -0.6618(3)
H1C H 0.2278 0.0229 -0.6224
C2C C 0.2297(4) 0.08872(11) -0.7723(3)
H2C H 0.2020 0.1035 -0.8269
C5C C 0.7602(4) 0.20519(11) -0.7597(3)
H5C H 0.7822 0.2012 -0.6933
C6C C 0.7622(4) 0.22516(12) -0.9068(3)
H6C H 0.7858 0.2381 -0.9654
C7C C 0.2277(4) 0.17469(12) -0.2599(3)
H7C H 0.1983 0.1830 -0.3221
C8C C 0.2406(5) 0.14644(12) -0.1224(3)
H8C H 0.2227 0.1307 -0.0671
C9C C 0.7452(4) 0.08257(12) -0.3851(4)
H9C H 0.7306 0.1094 -0.3977
C10C C 0.7256(4) 0.02135(12) -0.3833(3)
H10C H 0.6946 -0.0043 -0.3938
loop_
_geom_bond_atom_site_label_1
_geom_bond_atom_site_label_2
_geom_bond_site_symmetry_1
_geom_bond_site_symmetry_2
Cd1 N1 1_555 1_555
Cd2 Cl1 1_555 1_555
Cd3 Cl1 1_555 1_555
Cd4 Cl2 1_555 1_555
Cd5 N13 1_555 1_555
Cd6 N3 1_555 1_555
Cl2 Cd3_2 1_555 1_555
N1 N2 1_555 1_555
N2 Cd2 1_555 1_555
N3 C1 1_555 1_555
N4 Cd1 1_555 1_555
N5 Cd2 1_555 1_555
N6 Cd4 1_555 1_555
N7 Cd2 1_555 1_555
N8 Cd3 1_555 1_555
N9 C5 1_555 1_555
N10 Cd4 1_555 1_555
N11 N10 1_555 1_555
N12 C7 1_555 1_555
N13 N14 1_555 1_555
N14 C10 1_555 1_555
N15 Cd1 1_555 1_555
N16 Cd5 1_555 1_555
N17 N16 1_555 1_555
N18 C11 1_555 1_555
N19 Cd5 1_555 1_555
N20 Cd1 1_555 1_555
C1 N1 1_555 1_555
H1 C1 1_555 1_555
C2 N2 1_555 1_555
H2 C2 1_555 1_555
C3 N4 1_555 1_555
H3 C3 1_555 1_555
C4 N5 1_555 1_555
H4 C4 1_555 1_555
C5 N7 1_555 1_555
H5 C5 1_555 1_555
C6 N8 1_555 1_555
H6 C6 1_555 1_555
C7 N10 1_555 1_555
H7 C7 1_555 1_555
C8 N11 1_555 1_555
H8 C8 1_555 1_555
C9 N13 1_555 1_555
H9 C9 1_555 1_555
C10 N15 1_555 1_555
H10 C10 1_555 1_555
C11 N17 1_555 1_555
H11 C11 1_555 1_555
C12 N16 1_555 1_555
H12 C12 1_555 1_555
C13 N20 1_555 1_555
C14 C13 1_555 1_555
C15 N19 1_555 1_555
C16 C15 1_555 1_555
Cd3_2 N11 1_555 1_555
Cd4E N9 1_555 1_555
Cd4E_2 N9C 1_555 1_555
Cd5_2 N12 1_555 1_555
Cd6A N14 1_555 1_555
Cd6_2 N18 1_555 1_555
Cd6_3 N3C 1_555 1_555
Cd6A_2 N14C 1_555 1_555
Cl2_2 Cd3 1_555 1_555
N1C Cd1 1_555 1_555
N2C Cd2 1_555 1_555
N3C C1C 1_555 1_555
N3C_2 Cd6 1_555 1_555
N7C Cd2 1_555 1_555
N8C Cd3 1_555 1_555
N9C C5C 1_555 1_555
N9E Cd4 1_555 1_555
N9F Cd4 1_555 1_555
N10C Cd4 1_555 1_555
N11C Cd3_2 1_555 1_555
N11_2 Cd3 1_555 1_555
N11C_2 Cd3 1_555 1_555
N12C Cd5 1_555 1_555
N12_2 Cd5 1_555 1_555
N13C Cd5_2 1_555 1_555
N13C_2 Cd5 1_555 1_555
N14C N13C 1_555 1_555
N14A Cd6 1_555 1_555
N14B Cd6 1_555 1_555
N15C Cd1 1_555 1_555
N17A Cd6 1_555 1_555
N18_2 Cd6 1_555 1_555
C1C N1C 1_555 1_555
H1C C1C 1_555 1_555
C2C N2C 1_555 1_555
H2C C2C 1_555 1_555
C5C N7C 1_555 1_555
H5C C5C 1_555 1_555
C6C N8C 1_555 1_555
H6C C6C 1_555 1_555
C7C N10C 1_555 1_555
H7C C7C 1_555 1_555
C8C N11C 1_555 1_555
H8C C8C 1_555 1_555
C9C N13C 1_555 1_555
H9C C9C 1_555 1_555
C10C N14C 1_555 1_555
H10C C10C 1_555 1_555
N3 C2 1_555 1_555
N4 N5 1_555 1_555
N6 C3 1_555 1_555
N6 C4 1_555 1_555
N7 N8 1_555 1_555
N9 C6 1_555 1_555
N12 C8 1_555 1_555
N15 C9 1_555 1_555
N17 Cd6A 1_555 1_555
N18 C12 1_555 1_555
N1C N2C 1_555 1_555
N3C C2C 1_555 1_555
N7C N8C 1_555 1_555
N9C C6C 1_555 1_555
N10C N11C 1_555 1_555
N12C C7C 1_555 1_555
N12C C8C 1_555 1_555
N15C C9C 1_555 1_555
N15C C10C 1_555 1_555

#END
