
#######################################################################
#
#                 Cambridge Crystallographic Data Centre
#                                CCDC 
#
#######################################################################
#
# If this CIF has been generated from an entry in the Cambridge 
# Structural Database, then it will include bibliographic, chemical, 
# crystal, experimental, refinement or atomic coordinate data resulting 
# from the CCDC's data processing and validation procedures.
#
#######################################################################

data_CAZNEY
_chemical_formula_moiety         '(C60 H58 Co3 N2 O21)n'
_symmetry_cell_setting           monoclinic
_symmetry_space_group_name_H-M   'C 2/c'
_symmetry_Int_Tables_number      15
_space_group_name_Hall           '-C 2yc'
loop_
_symmetry_equiv_pos_site_id
_symmetry_equiv_pos_as_xyz
1 x,y,z
2 -x,y,1/2-z
3 1/2+x,1/2+y,z
4 1/2-x,1/2+y,1/2-z
5 -x,-y,-z
6 x,-y,1/2+z
7 1/2-x,1/2-y,-z
8 1/2+x,1/2-y,1/2+z
_cell_length_a                   24.728(3)
_cell_length_b                   10.9381(13)
_cell_length_c                   34.326(4)
_cell_angle_alpha                90
_cell_angle_beta                 99.917(2)
_cell_angle_gamma                90
_cell_volume                     9145.68
loop_
_atom_site_label
_atom_site_type_symbol
_atom_site_fract_x
_atom_site_fract_y
_atom_site_fract_z
_atom_site_U_iso_or_equiv
_atom_site_thermal_displace_type
Co1 Co 0.2500 0.2500 0.5000 0.0376 Uani
Co2 Co 0.18321(2) -0.04099(5) 0.502821(14) 0.0433 Uani
N1 N 0.09492(18) -0.3513(4) 0.52635(14) 0.0867 Uani
C1 C 0.42619(15) 0.0514(4) 0.78453(10) 0.0449 Uani
C2 C 0.46476(17) -0.0400(4) 0.76991(11) 0.0512 Uani
H1 H 0.4858 -0.0839 0.7920 0.0610 Uiso
H2 H 0.4441 -0.0986 0.7521 0.0610 Uiso
C3 C 0.39019(16) 0.1137(4) 0.74957(10) 0.0508 Uani
H3 H 0.3674 0.1758 0.7588 0.0610 Uiso
H4 H 0.4127 0.1522 0.7326 0.0610 Uiso
C4 C 0.39051(18) -0.0163(4) 0.81011(12) 0.0557 Uani
H5 H 0.3702 -0.0817 0.7951 0.0670 Uiso
H6 H 0.4132 -0.0510 0.8333 0.0670 Uiso
C5 C 0.45859(17) 0.1517(4) 0.80951(11) 0.0518 Uani
H7 H 0.4790 0.2006 0.7935 0.0620 Uiso
H8 H 0.4340 0.2049 0.8209 0.0620 Uiso
C6 C 0.33051(19) 0.0444(4) 0.69129(11) 0.0584 Uani
C7 C 0.32816(19) 0.1538(4) 0.67316(12) 0.0598 Uani
H9 H 0.3446 0.2217 0.6866 0.0720 Uiso
C8 C 0.30098(18) 0.1652(4) 0.63414(11) 0.0555 Uani
H10 H 0.3004 0.2406 0.6216 0.0670 Uiso
C9 C 0.27519(17) 0.0672(4) 0.61399(11) 0.0487 Uani
C10 C 0.2771(3) -0.0424(5) 0.63335(14) 0.0913 Uani
H11 H 0.2598 -0.1102 0.6204 0.1100 Uiso
C11 C 0.3038(3) -0.0539(5) 0.67133(15) 0.1082 Uani
H12 H 0.3040 -0.1291 0.6840 0.1300 Uiso
C12 C 0.24799(16) 0.0790(4) 0.57180(10) 0.0445 Uani
C13 C 0.33002(18) 0.0503(4) 0.85399(12) 0.0597 Uani
C14 C 0.3279(2) -0.0613(4) 0.87128(13) 0.0649 Uani
H13 H 0.3429 -0.1295 0.8610 0.0780 Uiso
C15 C 0.30304(18) -0.0722(4) 0.90436(12) 0.0576 Uani
H14 H 0.3020 -0.1479 0.9165 0.0690 Uiso
C16 C 0.27972(17) 0.0290(4) 0.91946(11) 0.0506 Uani
C17 C 0.28299(19) 0.1400(4) 0.90139(14) 0.0647 Uani
H15 H 0.2689 0.2091 0.9118 0.0780 Uiso
C18 C 0.3068(2) 0.1513(5) 0.86812(15) 0.0737 Uani
H16 H 0.3071 0.2263 0.8554 0.0890 Uiso
C19 C 0.25179(17) 0.0181(4) 0.95442(11) 0.0494 Uani
C20 C 0.52676(17) 0.1563(4) 0.86924(11) 0.0514 Uani
C21 C 0.5647(2) 0.0897(5) 0.89412(14) 0.0717 Uani
H17 H 0.5679 0.0061 0.8902 0.0860 Uiso
C22 C 0.59853(19) 0.1465(5) 0.92521(13) 0.0662 Uani
H18 H 0.6250 0.1010 0.9416 0.0790 Uiso
C23 C 0.59339(16) 0.2684(4) 0.93212(11) 0.0491 Uani
C24 C 0.55509(19) 0.3342(4) 0.90724(13) 0.0642 Uani
H19 H 0.5512 0.4173 0.9118 0.0770 Uiso
C25 C 0.5218(2) 0.2793(4) 0.87528(13) 0.0685 Uani
H20 H 0.4965 0.3255 0.8582 0.0820 Uiso
C26 C 0.63143(17) 0.3269(5) 0.96580(12) 0.0548 Uani
C27 C 0.12609(19) -0.2845(5) 0.50746(13) 0.0630 Uani
C28 C 0.1493(2) -0.3392(5) 0.47370(17) 0.0825 Uani
H21 H 0.1714 -0.2793 0.4633 0.1240 Uiso
H22 H 0.1198 -0.3645 0.4533 0.1240 Uiso
H23 H 0.1716 -0.4087 0.4830 0.1240 Uiso
C29 C 0.0817(3) -0.4795(6) 0.5155(2) 0.1299 Uani
H24 H 0.1005 -0.5033 0.4944 0.1950 Uiso
H25 H 0.0428 -0.4877 0.5070 0.1950 Uiso
H26 H 0.0932 -0.5310 0.5381 0.1950 Uiso
C30 C 0.0710(3) -0.3004(7) 0.5576(2) 0.1140 Uani
H27 H 0.0822 -0.2166 0.5615 0.1710 Uiso
H28 H 0.0830 -0.3458 0.5814 0.1710 Uiso
H29 H 0.0317 -0.3045 0.5508 0.1710 Uiso
O1 O 0.5000 0.0288(4) 0.7500 0.0634 Uani
O2 O 0.35687(14) 0.0200(3) 0.72863(8) 0.0740 Uani
O3 O 0.35405(14) 0.0718(3) 0.82132(9) 0.0756 Uani
O4 O 0.49545(13) 0.0892(3) 0.84026(9) 0.0693 Uani
O5 O 0.25248(12) 0.1784(3) 0.55529(7) 0.0556 Uani
O6 O 0.22212(13) -0.0141(3) 0.55613(8) 0.0586 Uani
O7 O 0.22474(13) 0.1095(3) 0.96315(9) 0.0653 Uani
O8 O 0.25448(13) -0.0765(3) 0.97406(8) 0.0627 Uani
O9 O 0.66505(12) 0.2594(3) 0.98750(9) 0.0632 Uani
O10 O 0.62672(13) 0.4403(3) 0.97055(9) 0.0653 Uani
O11 O 0.13540(13) -0.1743(3) 0.51755(9) 0.0652 Uani
Co1C Co 0.2500 -0.2500 1.0000 0.0376 Uani
Co1A Co 0.7500 0.2500 1.0000 0.0376 Uani
Co1B Co 0.7500 -0.2500 0.5000 0.0376 Uani
Co2A Co 0.81679(2) -0.04099(5) 0.997179(14) 0.0433 Uani
Co2E Co 0.18321(2) 0.04099(5) 1.002821(14) 0.0433 Uani
Co2G Co 0.68321(2) 0.54099(5) 1.002821(14) 0.0433 Uani
Co2D Co 0.81679(2) 0.04099(5) 0.497179(14) 0.0433 Uani
Co2F Co 0.31679(2) 0.54099(5) 0.497179(14) 0.0433 Uani
N1A N 0.90508(18) -0.3513(4) 0.97365(14) 0.0867 Uani
C1A C 0.57381(15) 0.0514(4) 0.71547(10) 0.0449 Uani
C2A C 0.53524(17) -0.0400(4) 0.73009(11) 0.0512 Uani
H1A H 0.5142 -0.0839 0.7080 0.0610 Uiso
H2A H 0.5559 -0.0986 0.7479 0.0610 Uiso
C3A C 0.60981(16) 0.1137(4) 0.75043(10) 0.0508 Uani
H3A H 0.6326 0.1758 0.7412 0.0610 Uiso
H4A H 0.5873 0.1522 0.7674 0.0610 Uiso
C4A C 0.60949(18) -0.0163(4) 0.68989(12) 0.0557 Uani
H5A H 0.6298 -0.0817 0.7049 0.0670 Uiso
H6A H 0.5868 -0.0510 0.6667 0.0670 Uiso
C5A C 0.54141(17) 0.1517(4) 0.69049(11) 0.0518 Uani
H7A H 0.5210 0.2006 0.7065 0.0620 Uiso
H8A H 0.5660 0.2049 0.6791 0.0620 Uiso
C6A C 0.66949(19) 0.0444(4) 0.80871(11) 0.0584 Uani
C7A C 0.67184(19) 0.1538(4) 0.82684(12) 0.0598 Uani
H9A H 0.6554 0.2217 0.8134 0.0720 Uiso
C8A C 0.69902(18) 0.1652(4) 0.86586(11) 0.0555 Uani
H10A H 0.6996 0.2406 0.8784 0.0670 Uiso
C9A C 0.72481(17) 0.0672(4) 0.88601(11) 0.0487 Uani
C10A C 0.7229(3) -0.0424(5) 0.86665(14) 0.0913 Uani
H11A H 0.7402 -0.1102 0.8796 0.1100 Uiso
C11A C 0.6962(3) -0.0539(5) 0.82867(15) 0.1082 Uani
H12A H 0.6960 -0.1291 0.8160 0.1300 Uiso
C12A C 0.75201(16) 0.0790(4) 0.92820(10) 0.0445 Uani
C13A C 0.66998(18) 0.0503(4) 0.64601(12) 0.0597 Uani
C14A C 0.6721(2) -0.0613(4) 0.62872(13) 0.0649 Uani
H13A H 0.6571 -0.1295 0.6390 0.0780 Uiso
C15A C 0.69696(18) -0.0722(4) 0.59564(12) 0.0576 Uani
H14A H 0.6980 -0.1479 0.5835 0.0690 Uiso
C16A C 0.72028(17) 0.0290(4) 0.58054(11) 0.0506 Uani
C17A C 0.71701(19) 0.1400(4) 0.59861(14) 0.0647 Uani
H15A H 0.7311 0.2091 0.5882 0.0780 Uiso
C18A C 0.6932(2) 0.1513(5) 0.63188(15) 0.0737 Uani
H16A H 0.6929 0.2263 0.6446 0.0890 Uiso
C19A C 0.74821(17) 0.0181(4) 0.54558(11) 0.0494 Uani
C20A C 0.47324(17) 0.1563(4) 0.63076(11) 0.0514 Uani
C21A C 0.4353(2) 0.0897(5) 0.60588(14) 0.0717 Uani
H17A H 0.4321 0.0061 0.6098 0.0860 Uiso
C22A C 0.40147(19) 0.1465(5) 0.57479(13) 0.0662 Uani
H18A H 0.3750 0.1010 0.5584 0.0790 Uiso
C23A C 0.40661(16) 0.2684(4) 0.56788(11) 0.0491 Uani
C24A C 0.44491(19) 0.3342(4) 0.59276(13) 0.0642 Uani
H19A H 0.4488 0.4173 0.5882 0.0770 Uiso
C25A C 0.4782(2) 0.2793(4) 0.62472(13) 0.0685 Uani
H20A H 0.5035 0.3255 0.6418 0.0820 Uiso
C26A C 0.36857(17) 0.3269(5) 0.53420(12) 0.0548 Uani
C27A C 0.87391(19) -0.2845(5) 0.99254(13) 0.0630 Uani
C28A C 0.8507(2) -0.3392(5) 1.02630(17) 0.0825 Uani
H21A H 0.8286 -0.2793 1.0367 0.1240 Uiso
H22A H 0.8802 -0.3645 1.0467 0.1240 Uiso
H23A H 0.8284 -0.4087 1.0170 0.1240 Uiso
C29A C 0.9183(3) -0.4795(6) 0.9845(2) 0.1299 Uani
H24A H 0.8995 -0.5033 1.0056 0.1950 Uiso
H25A H 0.9572 -0.4877 0.9930 0.1950 Uiso
H26A H 0.9068 -0.5310 0.9619 0.1950 Uiso
C30A C 0.9290(3) -0.3004(7) 0.9424(2) 0.1140 Uani
H27A H 0.9178 -0.2166 0.9385 0.1710 Uiso
H28A H 0.9170 -0.3458 0.9186 0.1710 Uiso
H29A H 0.9683 -0.3045 0.9492 0.1710 Uiso
O2A O 0.64313(14) 0.0200(3) 0.77137(8) 0.0740 Uani
O3A O 0.64595(14) 0.0718(3) 0.67868(9) 0.0756 Uani
O4A O 0.50455(13) 0.0892(3) 0.65974(9) 0.0693 Uani
O5A O 0.74752(12) 0.1784(3) 0.94471(7) 0.0556 Uani
O5F O 0.24752(12) 0.3216(3) 0.44471(7) 0.0556 Uani
O6A O 0.77788(13) -0.0141(3) 0.94387(8) 0.0586 Uani
O7A O 0.77526(13) 0.1095(3) 0.53685(9) 0.0653 Uani
O7E O 0.22474(13) -0.1095(3) 0.46315(9) 0.0653 Uani
O7D O 0.77526(13) -0.1095(3) 1.03685(9) 0.0653 Uani
O8A O 0.74552(13) -0.0765(3) 0.52594(8) 0.0627 Uani
O8C O 0.24552(13) 0.4235(3) 0.52594(8) 0.0627 Uani
O8E O 0.25448(13) 0.0765(3) 0.47406(8) 0.0627 Uani
O9A O 0.33495(12) 0.2594(3) 0.51250(9) 0.0632 Uani
O9G O 0.16505(12) 0.2406(3) 0.48750(9) 0.0632 Uani
O10A O 0.37328(13) 0.4403(3) 0.52945(9) 0.0653 Uani
O10G O 0.12672(13) 0.0597(3) 0.47055(9) 0.0653 Uani
O10F O 0.87328(13) 0.0597(3) 1.02945(9) 0.0653 Uani
O11A O 0.86460(13) -0.1743(3) 0.98245(9) 0.0652 Uani
loop_
_atom_site_aniso_label
_atom_site_aniso_U_11
_atom_site_aniso_U_22
_atom_site_aniso_U_33
_atom_site_aniso_U_23
_atom_site_aniso_U_13
_atom_site_aniso_U_12
Co1 0.0479(4) 0.0389(4) 0.0250(3) -0.0023(3) 0.0031(3) -0.0040(3)
Co2 0.0529(3) 0.0457(3) 0.0306(3) -0.0023(2) 0.0055(2) -0.0066(2)
N1 0.077(3) 0.093(3) 0.089(3) 0.024(3) 0.011(2) -0.032(3)
C1 0.049(2) 0.059(2) 0.0277(17) -0.0029(16) 0.0091(16) -0.0050(18)
C2 0.060(2) 0.059(3) 0.037(2) -0.0004(18) 0.0153(18) -0.008(2)
C3 0.057(2) 0.064(3) 0.0302(18) 0.0036(18) 0.0040(17) -0.013(2)
C4 0.067(3) 0.065(3) 0.037(2) 0.0069(19) 0.0147(19) 0.002(2)
C5 0.058(2) 0.061(3) 0.0340(19) -0.0020(18) 0.0012(17) 0.001(2)
C6 0.073(3) 0.066(3) 0.0313(19) 0.0073(19) -0.0052(19) -0.022(2)
C7 0.080(3) 0.054(3) 0.040(2) -0.0072(19) -0.005(2) -0.011(2)
C8 0.077(3) 0.049(2) 0.036(2) 0.0040(18) -0.0031(19) -0.009(2)
C9 0.060(3) 0.053(2) 0.0328(19) 0.0023(17) 0.0070(17) -0.0116(19)
C10 0.140(5) 0.070(3) 0.048(3) 0.012(2) -0.029(3) -0.046(3)
C11 0.170(6) 0.076(4) 0.058(3) 0.029(3) -0.038(4) -0.064(4)
C12 0.050(2) 0.053(2) 0.0308(18) 0.0003(17) 0.0076(16) -0.0019(18)
C13 0.065(3) 0.072(3) 0.048(2) 0.019(2) 0.026(2) 0.010(2)
C14 0.089(3) 0.054(3) 0.060(3) 0.002(2) 0.036(3) 0.002(2)
C15 0.080(3) 0.050(2) 0.048(2) 0.0056(19) 0.026(2) 0.001(2)
C16 0.063(3) 0.051(2) 0.041(2) 0.0061(18) 0.0177(19) 0.0060(19)
C17 0.079(3) 0.056(3) 0.068(3) 0.016(2) 0.038(2) 0.016(2)
C18 0.092(4) 0.064(3) 0.075(3) 0.031(3) 0.042(3) 0.022(3)
C19 0.058(2) 0.051(3) 0.041(2) 0.0035(19) 0.0138(19) -0.003(2)
C20 0.058(2) 0.057(3) 0.036(2) -0.0044(18) -0.0006(18) 0.002(2)
C21 0.078(3) 0.057(3) 0.071(3) -0.004(2) -0.013(3) 0.013(2)
C22 0.067(3) 0.069(3) 0.053(3) 0.002(2) -0.017(2) 0.011(2)
C23 0.048(2) 0.059(3) 0.038(2) 0.0000(18) 0.0013(17) -0.0018(19)
C24 0.073(3) 0.053(3) 0.059(3) -0.006(2) -0.010(2) 0.006(2)
C25 0.076(3) 0.063(3) 0.055(3) 0.001(2) -0.021(2) 0.007(2)
C26 0.053(2) 0.072(3) 0.039(2) -0.005(2) 0.0065(19) -0.001(2)
C27 0.062(3) 0.073(3) 0.052(3) 0.011(2) 0.004(2) -0.013(2)
C28 0.089(4) 0.069(3) 0.091(4) -0.009(3) 0.020(3) -0.021(3)
C29 0.143(6) 0.086(5) 0.159(7) 0.022(5) 0.021(5) -0.060(4)
C30 0.099(5) 0.156(7) 0.096(5) 0.022(5) 0.042(4) -0.021(4)
O1 0.075(3) 0.059(3) 0.066(3) 0.000 0.040(2) 0.000
O2 0.099(2) 0.078(2) 0.0356(15) 0.0167(15) -0.0152(15) -0.0345(19)
O3 0.084(2) 0.089(2) 0.066(2) 0.0296(18) 0.0475(18) 0.0219(18)
O4 0.084(2) 0.0610(19) 0.0517(17) -0.0101(15) -0.0196(16) 0.0006(16)
O5 0.082(2) 0.0515(17) 0.0307(13) 0.0037(12) 0.0025(13) -0.0031(15)
O6 0.080(2) 0.0580(18) 0.0347(14) -0.0002(13) 0.0014(13) -0.0182(15)
O7 0.084(2) 0.061(2) 0.0590(18) 0.0069(15) 0.0350(16) 0.0169(17)
O8 0.095(2) 0.0493(17) 0.0474(16) 0.0122(14) 0.0224(16) -0.0026(15)
O9 0.0554(18) 0.080(2) 0.0482(16) 0.0032(15) -0.0077(14) 0.0013(16)
O10 0.068(2) 0.064(2) 0.0579(18) -0.0102(15) -0.0063(15) 0.0024(16)
O11 0.074(2) 0.063(2) 0.0620(18) -0.0026(16) 0.0217(15) -0.0205(16)
Co1C 0.0479 0.0389 0.025 0.0023 0.0031 0.004
Co1A 0.0479 0.0389 0.025 0.0023 0.0031 0.004
Co1B 0.0479 0.0389 0.025 -0.0023 0.0031 -0.004
Co2A 0.0529 0.0457 0.0306 0.0023 0.0055 0.0066
Co2E 0.0529 0.0457 0.0306 0.0023 0.0055 0.0066
Co2G 0.0529 0.0457 0.0306 0.0023 0.0055 0.0066
Co2D 0.0529 0.0457 0.0306 -0.0023 0.0055 -0.0066
Co2F 0.0529 0.0457 0.0306 -0.0023 0.0055 -0.0066
N1A 0.077 0.093 0.089 -0.024 0.011 0.032
C1A 0.049 0.059 0.0277 0.0029 0.0091 0.005
C2A 0.06 0.059 0.037 0.0004 0.0153 0.008
C3A 0.057 0.064 0.0302 -0.0036 0.004 0.013
C4A 0.067 0.065 0.037 -0.0069 0.0147 -0.002
C5A 0.058 0.061 0.034 0.002 0.0012 -0.001
C6A 0.073 0.066 0.0313 -0.0073 -0.0052 0.022
C7A 0.08 0.054 0.04 0.0072 -0.005 0.011
C8A 0.077 0.049 0.036 -0.004 -0.0031 0.009
C9A 0.06 0.053 0.0328 -0.0023 0.007 0.0116
C10A 0.14 0.07 0.048 -0.012 -0.029 0.046
C11A 0.17 0.076 0.058 -0.029 -0.038 0.064
C12A 0.05 0.053 0.0308 -0.0003 0.0076 0.0019
C13A 0.065 0.072 0.048 -0.019 0.026 -0.01
C14A 0.089 0.054 0.06 -0.002 0.036 -0.002
C15A 0.08 0.05 0.048 -0.0056 0.026 -0.001
C16A 0.063 0.051 0.041 -0.0061 0.0177 -0.006
C17A 0.079 0.056 0.068 -0.016 0.038 -0.016
C18A 0.092 0.064 0.075 -0.031 0.042 -0.022
C19A 0.058 0.051 0.041 -0.0035 0.0138 0.003
C20A 0.058 0.057 0.036 0.0044 -0.0006 -0.002
C21A 0.078 0.057 0.071 0.004 -0.013 -0.013
C22A 0.067 0.069 0.053 -0.002 -0.017 -0.011
C23A 0.048 0.059 0.038 0 0.0013 0.0018
C24A 0.073 0.053 0.059 0.006 -0.01 -0.006
C25A 0.076 0.063 0.055 -0.001 -0.021 -0.007
C26A 0.053 0.072 0.039 0.005 0.0065 0.001
C27A 0.062 0.073 0.052 -0.011 0.004 0.013
C28A 0.089 0.069 0.091 0.009 0.02 0.021
C29A 0.143 0.086 0.159 -0.022 0.021 0.06
C30A 0.099 0.156 0.096 -0.022 0.042 0.021
O2A 0.099 0.078 0.0356 -0.0167 -0.0152 0.0345
O3A 0.084 0.089 0.066 -0.0296 0.0475 -0.0219
O4A 0.084 0.061 0.0517 0.0101 -0.0196 -0.0006
O5A 0.082 0.0515 0.0307 -0.0037 0.0025 0.0031
O5F 0.082 0.0515 0.0307 0.0037 0.0025 -0.0031
O6A 0.08 0.058 0.0347 0.0002 0.0014 0.0182
O7A 0.084 0.061 0.059 -0.0069 0.035 -0.0169
O7E 0.084 0.061 0.059 -0.0069 0.035 -0.0169
O7D 0.084 0.061 0.059 0.0069 0.035 0.0169
O8A 0.095 0.0493 0.0474 -0.0122 0.0224 0.0026
O8C 0.095 0.0493 0.0474 -0.0122 0.0224 0.0026
O8E 0.095 0.0493 0.0474 -0.0122 0.0224 0.0026
O9A 0.0554 0.08 0.0482 -0.0032 -0.0077 -0.0013
O9G 0.0554 0.08 0.0482 -0.0032 -0.0077 -0.0013
O10A 0.068 0.064 0.0579 0.0102 -0.0063 -0.0024
O10G 0.068 0.064 0.0579 0.0102 -0.0063 -0.0024
O10F 0.068 0.064 0.0579 -0.0102 -0.0063 0.0024
O11A 0.074 0.063 0.062 0.0026 0.0217 0.0205
loop_
_geom_bond_atom_site_label_1
_geom_bond_atom_site_label_2
_geom_bond_site_symmetry_1
_geom_bond_site_symmetry_2
Co1 O5 1_555 1_555
Co2 O6 1_555 1_555
N1 C27 1_555 1_555
C1 C2 1_555 1_555
C2 H1 1_555 1_555
H2 C2 1_555 1_555
C3 C1 1_555 1_555
H3 C3 1_555 1_555
H4 C3 1_555 1_555
C4 C1 1_555 1_555
H5 C4 1_555 1_555
H6 C4 1_555 1_555
C5 C1 1_555 1_555
H7 C5 1_555 1_555
H8 C5 1_555 1_555
C6 C7 1_555 1_555
C7 H9 1_555 1_555
C8 C7 1_555 1_555
H10 C8 1_555 1_555
C9 C8 1_555 1_555
C10 C9 1_555 1_555
H11 C10 1_555 1_555
C11 C6 1_555 1_555
H12 C11 1_555 1_555
C12 C9 1_555 1_555
C13 C14 1_555 1_555
C14 H13 1_555 1_555
C15 C14 1_555 1_555
H14 C15 1_555 1_555
C16 C15 1_555 1_555
C17 C16 1_555 1_555
H15 C17 1_555 1_555
C18 C13 1_555 1_555
H16 C18 1_555 1_555
C19 C16 1_555 1_555
C20 C21 1_555 1_555
C21 H17 1_555 1_555
C22 C21 1_555 1_555
H18 C22 1_555 1_555
C23 C22 1_555 1_555
C24 C23 1_555 1_555
H19 C24 1_555 1_555
C25 C20 1_555 1_555
H20 C25 1_555 1_555
C26 C23 1_555 1_555
C27 C28 1_555 1_555
C28 H21 1_555 1_555
H22 C28 1_555 1_555
H23 C28 1_555 1_555
C29 N1 1_555 1_555
H24 C29 1_555 1_555
H25 C29 1_555 1_555
H26 C29 1_555 1_555
C30 N1 1_555 1_555
H27 C30 1_555 1_555
H28 C30 1_555 1_555
H29 C30 1_555 1_555
O1 C2 1_555 1_555
O2 C3 1_555 1_555
O3 C4 1_555 1_555
O4 C5 1_555 1_555
O5 C12 1_555 1_555
O6 C12 1_555 1_555
O7 C19 1_555 1_555
O8 C19 1_555 1_555
O9 C26 1_555 1_555
O10 C26 1_555 1_555
O11 Co2 1_555 1_555
Co1C O8 1_555 1_555
Co1A O9 1_555 1_555
Co1B O8A 1_555 1_555
Co2A O6A 1_555 1_555
Co2E O7 1_555 1_555
Co2G O10 1_555 1_555
Co2D O7A 1_555 1_555
Co2F O10A 1_555 1_555
N1A C27A 1_555 1_555
C1A C2A 1_555 1_555
C2A O1 1_555 1_555
H1A C2A 1_555 1_555
H2A C2A 1_555 1_555
C3A C1A 1_555 1_555
H3A C3A 1_555 1_555
H4A C3A 1_555 1_555
C4A C1A 1_555 1_555
H5A C4A 1_555 1_555
H6A C4A 1_555 1_555
C5A C1A 1_555 1_555
H7A C5A 1_555 1_555
H8A C5A 1_555 1_555
C6A C7A 1_555 1_555
C7A H9A 1_555 1_555
C8A C7A 1_555 1_555
H10A C8A 1_555 1_555
C9A C8A 1_555 1_555
C10A C9A 1_555 1_555
H11A C10A 1_555 1_555
C11A C6A 1_555 1_555
H12A C11A 1_555 1_555
C12A C9A 1_555 1_555
C13A C14A 1_555 1_555
C14A H13A 1_555 1_555
C15A C14A 1_555 1_555
H14A C15A 1_555 1_555
C16A C15A 1_555 1_555
C17A C16A 1_555 1_555
H15A C17A 1_555 1_555
C18A C13A 1_555 1_555
H16A C18A 1_555 1_555
C19A C16A 1_555 1_555
C20A C21A 1_555 1_555
C21A H17A 1_555 1_555
C22A C21A 1_555 1_555
H18A C22A 1_555 1_555
C23A C22A 1_555 1_555
C24A C23A 1_555 1_555
H19A C24A 1_555 1_555
C25A C20A 1_555 1_555
H20A C25A 1_555 1_555
C26A C23A 1_555 1_555
C27A C28A 1_555 1_555
C28A H21A 1_555 1_555
H22A C28A 1_555 1_555
H23A C28A 1_555 1_555
C29A N1A 1_555 1_555
H24A C29A 1_555 1_555
H25A C29A 1_555 1_555
H26A C29A 1_555 1_555
C30A N1A 1_555 1_555
H27A C30A 1_555 1_555
H28A C30A 1_555 1_555
H29A C30A 1_555 1_555
O2A C3A 1_555 1_555
O3A C4A 1_555 1_555
O4A C5A 1_555 1_555
O5A Co1A 1_555 1_555
O5F Co1 1_555 1_555
O6A C12A 1_555 1_555
O7A C19A 1_555 1_555
O7E Co2 1_555 1_555
O7D Co2A 1_555 1_555
O8A C19A 1_555 1_555
O8C Co1 1_555 1_555
O8E Co1 1_555 1_555
O9A Co1 1_555 1_555
O9G Co1 1_555 1_555
O10A C26A 1_555 1_555
O10G Co2 1_555 1_555
O10F Co2A 1_555 1_555
O11A Co2A 1_555 1_555
C6 O2 1_555 1_555
C10 C11 1_555 1_555
C13 O3 1_555 1_555
C17 C18 1_555 1_555
C20 O4 1_555 1_555
C24 C25 1_555 1_555
C27 O11 1_555 1_555
C6A O2A 1_555 1_555
C10A C11A 1_555 1_555
C12A O5A 1_555 1_555
C13A O3A 1_555 1_555
C17A C18A 1_555 1_555
C20A O4A 1_555 1_555
C24A C25A 1_555 1_555
C26A O9A 1_555 1_555
C27A O11A 1_555 1_555

#END
