
#######################################################################
#
#                 Cambridge Crystallographic Data Centre
#                                CCDC 
#
#######################################################################
#
# If this CIF has been generated from an entry in the Cambridge 
# Structural Database, then it will include bibliographic, chemical, 
# crystal, experimental, refinement or atomic coordinate data resulting 
# from the CCDC's data processing and validation procedures.
#
#######################################################################

data_EFATIP
_chemical_formula_moiety         '(C6 H24 Ag2 I4 N6 Zn1)n'
_symmetry_cell_setting           hexagonal
_symmetry_space_group_name_H-M   'P 63'
_symmetry_Int_Tables_number      173
_space_group_name_Hall           'P 6c'
loop_
_symmetry_equiv_pos_site_id
_symmetry_equiv_pos_as_xyz
1 x,y,z
2 -y,x-y,z
3 -x+y,-x,z
4 -x,-y,1/2+z
5 y,-x+y,1/2+z
6 x-y,x,1/2+z
_cell_length_a                   9.0550(6)
_cell_length_b                   9.0550(6)
_cell_length_c                   14.4468(19)
_cell_angle_alpha                90
_cell_angle_beta                 90
_cell_angle_gamma                120
_cell_volume                     1025.84
loop_
_atom_site_label
_atom_site_type_symbol
_atom_site_fract_x
_atom_site_fract_y
_atom_site_fract_z
Ag1 Ag 0.6667 0.3333 0.29588(9)
I1 I 0.6667 0.3333 0.09630(8)
I2 I 0.59825(6) 0.00001(6) 0.34634(12)
Ag2 Ag 0.6667 0.3333 -0.10310(10)
I2A I 0.99999(6) 0.59824(8) 0.34634(12)
I2B I 0.40176(8) 0.40175(6) 0.34634(12)
I2C I 0.40175(6) -0.00001(6) -0.15366(12)
I2D I 1.00001(6) 0.40176(8) -0.15366(12)
I2E I 0.59824(8) 0.59825(6) -0.15366(12)
Ag2C Ag 0.3333 -0.3333 0.39690(10)
Ag2C_2 Ag 1.3333 0.6667 0.39690(10)
Ag2C_3 Ag 0.3333 0.6667 0.39690(10)
Zn1 Zn 1.0000 1.0000 0.5966(2)
N1 N 0.9756(11) 1.1908(10) 0.5129(6)
H1 H 1.0795 1.2766 0.4971
H2 H 0.9170 1.1424 0.4607
C1 C 0.8847(10) 1.2567(9) 0.5689(5)
H3 H 0.8378 1.3087 0.5285
H4 H 0.9641 1.3437 0.6110
C2 C 0.7438(9) 1.1159(11) 0.6231(5)
H5 H 0.6930 1.1630 0.6641
H6 H 0.6560 1.0374 0.5810
N2 N 0.8086(9) 1.0231(10) 0.6780(6)
H7 H 0.7223 0.9187 0.6926
H8 H 0.8556 1.0798 0.7309
N1A N 0.8092(10) 0.7848(15) 0.5129(6)
N1B N 1.2152(15) 1.0244(11) 0.5129(6)
H1A H 0.7234 0.8029 0.4971
H1B H 1.1971 0.9205 0.4971
H2A H 0.8576 0.7746 0.4607
H2B H 1.2254 1.0830 0.4607
C1A C 0.7433(9) 0.6280(13) 0.5689(5)
C1B C 1.3720(13) 1.1153(10) 0.5689(5)
H3A H 0.6913 0.5291 0.5285
H3B H 1.4709 1.1622 0.5285
H4A H 0.6563 0.6204 0.6110
H4B H 1.3796 1.0359 0.6110
C2A C 0.8841(11) 0.6279(14) 0.6231(5)
C2B C 1.3721(14) 1.2562(9) 0.6231(5)
H5A H 0.8370 0.5300 0.6641
H5B H 1.4700 1.3070 0.6641
H6A H 0.9626 0.6186 0.5810
H6B H 1.3814 1.3440 0.5810
N2A N 0.9769(10) 0.7855(13) 0.6780(6)
N2B N 1.2145(13) 1.1914(9) 0.6780(6)
H7A H 1.0813 0.8036 0.6926
H7B H 1.1964 1.2777 0.6926
H8A H 0.9202 0.7758 0.7309
H8B H 1.2242 1.1444 0.7309
loop_
_geom_bond_atom_site_label_1
_geom_bond_atom_site_label_2
_geom_bond_site_symmetry_1
_geom_bond_site_symmetry_2
Ag1 I1 1_555 1_555
I1 Ag2 1_555 1_555
I2 Ag1 1_555 1_555
Ag2 I2C 1_555 1_555
Zn1 N1 1_555 1_555
N1 H1 1_555 1_555
H2 N1 1_555 1_555
C1 N1 1_555 1_555
H3 C1 1_555 1_555
H4 C1 1_555 1_555
C2 C1 1_555 1_555
H5 C2 1_555 1_555
H6 C2 1_555 1_555
N2 Zn1 1_555 1_555
H7 N2 1_555 1_555
H8 N2 1_555 1_555
I2A Ag1 1_555 1_555
I2B Ag1 1_555 1_555
I2D Ag2 1_555 1_555
I2E Ag2 1_555 1_555
Ag2C I2 1_555 1_555
Ag2C_2 I2A 1_555 1_555
Ag2C_3 I2B 1_555 1_555
N1A Zn1 1_555 1_555
N1B Zn1 1_555 1_555
H1A N1A 1_555 1_555
H1B N1B 1_555 1_555
H2A N1A 1_555 1_555
H2B N1B 1_555 1_555
C1A N1A 1_555 1_555
C1B N1B 1_555 1_555
H3A C1A 1_555 1_555
H3B C1B 1_555 1_555
H4A C1A 1_555 1_555
H4B C1B 1_555 1_555
C2A C1A 1_555 1_555
C2B C1B 1_555 1_555
H5A C2A 1_555 1_555
H5B C2B 1_555 1_555
H6A C2A 1_555 1_555
H6B C2B 1_555 1_555
N2A Zn1 1_555 1_555
N2B Zn1 1_555 1_555
H7A N2A 1_555 1_555
H7B N2B 1_555 1_555
H8A N2A 1_555 1_555
H8B N2B 1_555 1_555
C2 N2 1_555 1_555
C2A N2A 1_555 1_555
C2B N2B 1_555 1_555

#END
