
#######################################################################
#
#                 Cambridge Crystallographic Data Centre
#                                CCDC 
#
#######################################################################
#
# If this CIF has been generated from an entry in the Cambridge 
# Structural Database, then it will include bibliographic, chemical, 
# crystal, experimental, refinement or atomic coordinate data resulting 
# from the CCDC's data processing and validation procedures.
#
#######################################################################

data_NEGZUW
_chemical_formula_moiety         '(C18 H46 N20 O40 V10 Zn6)n'
_symmetry_cell_setting           orthorhombic
_symmetry_space_group_name_H-M   'P b c n'
_symmetry_Int_Tables_number      60
_space_group_name_Hall           '-P 2n 2ab'
loop_
_symmetry_equiv_pos_site_id
_symmetry_equiv_pos_as_xyz
1 x,y,z
2 1/2-x,1/2-y,1/2+z
3 1/2+x,1/2-y,-z
4 -x,y,1/2-z
5 -x,-y,-z
6 1/2+x,1/2+y,1/2-z
7 1/2-x,1/2+y,z
8 x,-y,1/2+z
_cell_length_a                   24.677(3)
_cell_length_b                   18.0396(19)
_cell_length_c                   17.2999(18)
_cell_angle_alpha                90
_cell_angle_beta                 90
_cell_angle_gamma                90
_cell_volume                     7701.28
loop_
_atom_site_label
_atom_site_type_symbol
_atom_site_fract_x
_atom_site_fract_y
_atom_site_fract_z
_atom_site_U_iso_or_equiv
_atom_site_thermal_displace_type
Zn1 Zn 0.332710(19) -0.34922(2) 0.30139(3) 0.0398 Uani
Zn2 Zn 0.167750(17) -0.15052(2) 0.14919(2) 0.0357 Uani
Zn3 Zn 0.296286(18) -0.07078(2) 0.09564(2) 0.0374 Uani
V1 V 0.09232(2) -0.30552(3) 0.16317(3) 0.0288 Uani
V2 V -0.02313(2) -0.30175(4) 0.09580(3) 0.0331 Uani
V3 V 0.0000 -0.39299(4) 0.2500 0.0273 Uani
V4 V 0.11506(2) -0.38637(3) 0.31821(4) 0.0339 Uani
V5 V -0.0000 -0.21193(4) 0.2500 0.0286 Uani
V6 V 0.11444(2) -0.21670(4) 0.31794(3) 0.0343 Uani
O1 O 0.05039(11) -0.15513(14) 0.27948(15) 0.0365 Uani
O2 O 0.02880(9) -0.23420(13) 0.14883(13) 0.0305 Uani
O3 O 0.05087(10) -0.44884(14) 0.27966(15) 0.0342 Uani
O4 O 0.15240(10) -0.30154(15) 0.33874(15) 0.0374 Uani
O5 O 0.02876(9) -0.37103(13) 0.14835(13) 0.0304 Uani
O6 O -0.07348(10) -0.37597(15) 0.09221(14) 0.0377 Uani
O7 O 0.05043(9) -0.30227(12) 0.27869(13) 0.0284 Uani
O8 O -0.07320(11) -0.22719(16) 0.09249(14) 0.0385 Uani
O9 O 0.13006(9) -0.37736(14) 0.21017(15) 0.0342 Uani
O10 O 0.11641(11) -0.30260(16) 0.07687(16) 0.0418 Uani
O11 O 0.12860(9) -0.22664(14) 0.20939(14) 0.0331 Uani
N1 N 0.30449(13) -0.26265(18) 0.24380(19) 0.0396 Uani
N2 N 0.19228(15) 0.06100(19) 0.2443(2) 0.0434 Uani
N3 N 0.18762(15) -0.04732(18) 0.1860(2) 0.0432 Uani
O12 O 0.15697(12) -0.45030(17) 0.34097(19) 0.0479 Uani
O13 O 0.36155(15) -0.1284(2) 0.0371(2) 0.0617 Uani
N4 N 0.19096(15) -0.1490(2) 0.03709(19) 0.0455 Uani
O14 O 0.00108(13) -0.30125(18) 0.00934(16) 0.0478 Uani
N5 N 0.23664(14) -0.01520(18) 0.1665(2) 0.0414 Uani
C1 C 0.16314(18) -0.0005(2) 0.2311(3) 0.0465 Uani
H1 H 0.1282 -0.0089 0.2525 0.0560 Uiso
N6 N 0.29203(13) -0.16556(18) 0.16775(19) 0.0380 Uani
N7 N 0.24209(13) -0.19480(17) 0.1869(2) 0.0401 Uani
C2 C 0.25166(16) -0.2519(2) 0.2313(2) 0.0416 Uani
H2 H 0.2240 -0.2825 0.2525 0.0500 Uiso
O15 O 0.29987(17) 0.0211(2) 0.0189(2) 0.0650 Uani
N8 N 0.23863(14) -0.11584(19) 0.01585(18) 0.0415 Uani
N9 N 0.19347(16) -0.1465(2) -0.0901(2) 0.0464 Uani
O16 O 0.35999(15) -0.0243(2) 0.1618(2) 0.0634 Uani
C3 C 0.23761(18) 0.0483(2) 0.2027(3) 0.0456 Uani
H3 H 0.2671 0.0820 0.2001 0.0550 Uiso
C4 C 0.23871(17) -0.1153(2) -0.0601(2) 0.0444 Uani
H4 H 0.2673 -0.0954 -0.0905 0.0530 Uiso
O17 O 0.08647(14) -0.1126(2) 0.1105(2) 0.0661 Uani
O18 O 0.15553(13) -0.15108(17) 0.33963(19) 0.0496 Uani
C5 C 0.32800(16) -0.2077(2) 0.2029(2) 0.0404 Uani
H5 H 0.3661 -0.2003 0.1998 0.0480 Uiso
C6 C 0.16555(19) -0.1661(3) -0.0269(2) 0.0517 Uani
H6 H 0.1312 -0.1898 -0.0284 0.0620 Uiso
N10 N 0.3390(3) 0.0939(3) -0.0719(3) 0.0807 Uani
O19 O 0.4134(2) -0.3467(4) 0.3057(4) 0.1160 Uani
C7 C 0.3396(3) 0.0499(4) -0.0112(4) 0.0720 Uani
H7 H 0.3739 0.0395 0.0114 0.0870 Uiso
C8 C 0.2875(4) 0.1062(5) -0.1185(6) 0.1223 Uani
H8 H 0.2571 0.0812 -0.0930 0.1830 Uiso
H9 H 0.2922 0.0860 -0.1706 0.1830 Uiso
H10 H 0.2800 0.1595 -0.1218 0.1830 Uiso
C9 C 0.3872(5) 0.1237(6) -0.1036(6) 0.1333 Uani
H11 H 0.4186 0.1040 -0.0755 0.2000 Uiso
H12 H 0.3866 0.1778 -0.0991 0.2000 Uiso
H13 H 0.3899 0.1097 -0.1583 0.2000 Uiso
Zn1C Zn -0.332710(19) -0.34922(2) 0.19861(3) 0.0398 Uani
Zn1F Zn 0.167290(19) 0.15078(2) 0.30139(3) 0.0398 Uani
Zn1A Zn 0.167290(19) -0.15078(2) -0.19861(3) 0.0398 Uani
Zn1E Zn -0.167290(19) 0.15078(2) 0.19861(3) 0.0398 Uani
Zn1B Zn -0.167290(19) -0.15078(2) 0.69861(3) 0.0398 Uani
Zn2C Zn -0.167750(17) -0.15052(2) 0.35081(2) 0.0357 Uani
Zn3C Zn -0.296286(18) -0.07078(2) 0.40436(2) 0.0374 Uani
V1C V -0.09232(2) -0.30552(3) 0.33683(3) 0.0288 Uani
V2C V 0.02313(2) -0.30175(4) 0.40420(3) 0.0331 Uani
V4C V -0.11506(2) -0.38637(3) 0.18179(4) 0.0339 Uani
V6C V -0.11444(2) -0.21670(4) 0.18206(3) 0.0343 Uani
O1C O -0.05039(11) -0.15513(14) 0.22052(15) 0.0365 Uani
O2C O -0.02880(9) -0.23420(13) 0.35117(13) 0.0305 Uani
O3C O -0.05087(10) -0.44884(14) 0.22034(15) 0.0342 Uani
O4C O -0.15240(10) -0.30154(15) 0.16126(15) 0.0374 Uani
O5C O -0.02876(9) -0.37103(13) 0.35165(13) 0.0304 Uani
O6C O 0.07348(10) -0.37597(15) 0.40779(14) 0.0377 Uani
O7C O -0.05043(9) -0.30227(12) 0.22131(13) 0.0284 Uani
O8C O 0.07320(11) -0.22719(16) 0.40751(14) 0.0385 Uani
O9C O -0.13006(9) -0.37736(14) 0.28983(15) 0.0342 Uani
O10C O -0.11641(11) -0.30260(16) 0.42313(16) 0.0418 Uani
O11C O -0.12860(9) -0.22664(14) 0.29061(14) 0.0331 Uani
N1C N -0.30449(13) -0.26265(18) 0.25620(19) 0.0396 Uani
N2C N -0.19228(15) 0.06100(19) 0.2557(2) 0.0434 Uani
N2F N 0.30772(15) -0.43900(19) 0.2443(2) 0.0434 Uani
N2E N -0.30772(15) -0.43900(19) 0.2557(2) 0.0434 Uani
N3C N -0.18762(15) -0.04732(18) 0.3140(2) 0.0432 Uani
O12C O -0.15697(12) -0.45030(17) 0.15903(19) 0.0479 Uani
O13C O -0.36155(15) -0.1284(2) 0.4629(2) 0.0617 Uani
N4C N -0.19096(15) -0.1490(2) 0.46291(19) 0.0455 Uani
O14C O -0.00108(13) -0.30125(18) 0.49066(16) 0.0478 Uani
N5C N -0.23664(14) -0.01520(18) 0.3335(2) 0.0414 Uani
C1C C -0.16314(18) -0.0005(2) 0.2689(3) 0.0465 Uani
H1C H -0.1282 -0.0089 0.2475 0.0560 Uiso
N6C N -0.29203(13) -0.16556(18) 0.33225(19) 0.0380 Uani
N7C N -0.24209(13) -0.19480(17) 0.3131(2) 0.0401 Uani
C2C C -0.25166(16) -0.2519(2) 0.2687(2) 0.0416 Uani
H2C H -0.2240 -0.2825 0.2475 0.0500 Uiso
O15C O -0.29987(17) 0.0211(2) 0.4811(2) 0.0650 Uani
N8C N -0.23863(14) -0.11584(19) 0.48415(18) 0.0415 Uani
N9C N -0.19347(16) -0.1465(2) 0.5901(2) 0.0464 Uani
N9A N 0.30653(16) -0.3535(2) 0.4099(2) 0.0464 Uani
N9B N -0.30653(16) -0.3535(2) 0.0901(2) 0.0464 Uani
O16C O -0.35999(15) -0.0243(2) 0.3382(2) 0.0634 Uani
C3C C -0.23761(18) 0.0483(2) 0.2973(3) 0.0456 Uani
H3C H -0.2671 0.0820 0.2999 0.0550 Uiso
C4C C -0.23871(17) -0.1153(2) 0.5601(2) 0.0444 Uani
H4C H -0.2673 -0.0954 0.5905 0.0530 Uiso
O17C O -0.08647(14) -0.1126(2) 0.3895(2) 0.0661 Uani
O18C O -0.15553(13) -0.15108(17) 0.16037(19) 0.0496 Uani
C5C C -0.32800(16) -0.2077(2) 0.2971(2) 0.0404 Uani
H5C H -0.3661 -0.2003 0.3002 0.0480 Uiso
C6C C -0.16555(19) -0.1661(3) 0.5269(2) 0.0517 Uani
H6C H -0.1312 -0.1898 0.5284 0.0620 Uiso
N10C N -0.3390(3) 0.0939(3) 0.5719(3) 0.0807 Uani
O19C O -0.4134(2) -0.3467(4) 0.1943(4) 0.1160 Uani
C7C C -0.3396(3) 0.0499(4) 0.5112(4) 0.0720 Uani
H7C H -0.3739 0.0395 0.4886 0.0870 Uiso
C8C C -0.2875(4) 0.1062(5) 0.6185(6) 0.1223 Uani
H8C H -0.2571 0.0812 0.5930 0.1830 Uiso
H9C H -0.2922 0.0860 0.6706 0.1830 Uiso
H10C H -0.2800 0.1595 0.6218 0.1830 Uiso
C9C C -0.3872(5) 0.1237(6) 0.6036(6) 0.1333 Uani
H11C H -0.4186 0.1040 0.5755 0.2000 Uiso
H12C H -0.3866 0.1778 0.5991 0.2000 Uiso
H13C H -0.3899 0.1097 0.6583 0.2000 Uiso
O20 O -0.0325(4) -0.5072(5) 0.4288(6) 0.1673 Uani
O21 O 0.1370(10) -0.2188(8) 0.5389(8) 0.3337 Uani
loop_
_atom_site_aniso_label
_atom_site_aniso_U_11
_atom_site_aniso_U_22
_atom_site_aniso_U_33
_atom_site_aniso_U_23
_atom_site_aniso_U_13
_atom_site_aniso_U_12
Zn1 0.047 0.0388 0.0335 -0.00171 -0.00208 -0.00365
Zn2 0.0404(2) 0.0344(2) 0.0323(2) 0.00075(15) 0.00825(16) -0.00975(15)
Zn3 0.0405(2) 0.0370(2) 0.0347(2) -0.00059(16) 0.00746(16) -0.01017(16)
V1 0.0258(3) 0.0342(3) 0.0263(3) -0.0014(2) 0.0038(2) -0.00129(19)
V2 0.031 0.0458 0.0225 -0.0014 0.0001 0.0015
V3 0.0247(3) 0.0284(4) 0.0287(4) 0.000 -0.0017(3) 0.000
V4 0.0276(3) 0.0390(3) 0.0350(3) 0.0026(2) -0.0046(2) 0.0018(2)
V5 0.0298(4) 0.0291(4) 0.0270(4) 0.000 0.0034(3) 0.000
V6 0.0327(3) 0.0399(3) 0.0303(3) -0.0028(2) -0.0001(2) -0.0086(2)
O1 0.0391(13) 0.0334(12) 0.0371(13) -0.0032(10) 0.0027(10) -0.0043(9)
O2 0.0312(11) 0.0355(12) 0.0248(11) 0.0032(9) 0.0042(8) -0.0010(9)
O3 0.0292(11) 0.0339(12) 0.0394(13) 0.0022(10) -0.0032(10) 0.0031(9)
O4 0.0268(11) 0.0498(15) 0.0357(13) 0.0015(10) -0.0040(10) -0.0030(10)
O5 0.0279(11) 0.0353(12) 0.0280(11) -0.0046(9) 0.0016(8) 0.0007(9)
O6 0.0319 0.049 0.0321 -0.0074 -0.0046 -0.0001
O7 0.0267(10) 0.0330(11) 0.0255(11) 0.0013(8) 0.0010(8) -0.0011(8)
O8 0.0359 0.0516 0.0279 0.0071 -0.0029 0.004
O9 0.0270(11) 0.0383(12) 0.0373(13) -0.0029(10) 0.0027(9) 0.0019(9)
O10 0.0390(14) 0.0540(16) 0.0325(13) -0.0005(11) 0.0114(11) -0.0007(11)
O11 0.0288(11) 0.0377(12) 0.0327(12) 0.0017(10) 0.0037(9) -0.0068(9)
N1 0.0415(16) 0.0381(15) 0.0393(16) 0.0026(13) 0.0068(13) -0.0029(13)
N2 0.0519(19) 0.0372(16) 0.0412(17) -0.0065(13) 0.0070(14) -0.0012(14)
N3 0.0453(17) 0.0365(16) 0.0477(18) -0.0019(14) 0.0093(15) -0.0072(13)
O12 0.0355(13) 0.0503(16) 0.0579(18) 0.0065(13) -0.0112(12) 0.0049(12)
O13 0.062(2) 0.070(2) 0.0532(19) -0.0029(16) 0.0252(16) 0.0030(17)
N4 0.0470(19) 0.059(2) 0.0304(15) -0.0014(14) 0.0078(14) -0.0196(15)
O14 0.0498 0.0672 0.0263 -0.0015 0.0028 0.002
N5 0.0450(17) 0.0361(16) 0.0430(17) -0.0064(13) 0.0082(14) -0.0075(13)
C1 0.048(2) 0.0374(19) 0.054(2) -0.0036(17) 0.0123(18) -0.0018(15)
N6 0.0386(16) 0.0380(15) 0.0374(15) 0.0017(13) 0.0113(12) -0.0072(12)
N7 0.0351(16) 0.0377(16) 0.0474(18) 0.0036(13) 0.0116(13) -0.0077(12)
C2 0.0385(18) 0.0373(18) 0.049(2) 0.0075(16) 0.0124(16) -0.0048(14)
O15 0.075(2) 0.056(2) 0.064(2) 0.0158(16) 0.0069(17) -0.0169(17)
N8 0.0429(17) 0.0468(17) 0.0348(16) 0.0004(13) 0.0069(13) -0.0107(14)
N9 0.053(2) 0.053(2) 0.0333(16) -0.0022(14) 0.0060(14) -0.0122(16)
O16 0.0556(19) 0.0577(19) 0.077(2) -0.0173(17) -0.0061(17) -0.0155(15)
C3 0.052(2) 0.0357(18) 0.049(2) -0.0035(16) 0.0080(18) -0.0069(16)
C4 0.049(2) 0.051(2) 0.0332(18) -0.0008(16) 0.0086(15) -0.0104(17)
O17 0.0522(19) 0.063(2) 0.083(3) 0.0232(18) 0.0065(17) -0.0072(15)
O18 0.0464(16) 0.0507(17) 0.0516(17) -0.0066(13) -0.0035(13) -0.0164(13)
C5 0.0401(19) 0.0417(19) 0.0395(19) 0.0019(15) 0.0060(15) -0.0052(15)
C6 0.056(3) 0.066(3) 0.033(2) -0.0035(18) 0.0069(17) -0.023(2)
N10 0.098(4) 0.070(3) 0.074(3) 0.011(3) 0.010(3) -0.017(3)
O19 0.075 0.155 0.118 0.006 0 0.003
C7 0.077(4) 0.075(4) 0.064(3) 0.010(3) -0.002(3) -0.017(3)
C8 0.150(8) 0.115(7) 0.102(6) 0.042(5) 0.020(6) 0.042(6)
C9 0.164(10) 0.146(8) 0.090(6) 0.022(6) 0.018(6) -0.079(8)
Zn1C 0.047 0.0388 0.0335 0.00171 -0.00208 0.00365
Zn1F 0.0470(3) 0.0388(3) 0.0335(2) -0.00171(16) 0.00208(17) 0.00365(17)
Zn1A 0.047 0.0388 0.0335 0.00171 0.00208 -0.00365
Zn1E 0.047 0.0388 0.0335 0.00171 0.00208 -0.00365
Zn1B 0.047 0.0388 0.0335 -0.00171 0.00208 0.00365
Zn2C 0.0404 0.0344 0.0323 -0.00075 0.00825 0.00975
Zn3C 0.0405 0.037 0.0347 0.00059 0.00746 0.01017
V1C 0.0258 0.0342 0.0263 0.0014 0.0038 0.00129
V2C 0.0310(3) 0.0458(3) 0.0225(3) 0.0014(2) 0.0001(2) -0.0015(2)
V4C 0.0276 0.039 0.035 -0.0026 -0.0046 -0.0018
V6C 0.0327 0.0399 0.0303 0.0028 -0.0001 0.0086
O1C 0.0391 0.0334 0.0371 0.0032 0.0027 0.0043
O2C 0.0312 0.0355 0.0248 -0.0032 0.0042 0.001
O3C 0.0292 0.0339 0.0394 -0.0022 -0.0032 -0.0031
O4C 0.0268 0.0498 0.0357 -0.0015 -0.004 0.003
O5C 0.0279 0.0353 0.028 0.0046 0.0016 -0.0007
O6C 0.0319(12) 0.0490(14) 0.0321(12) 0.0074(10) -0.0046(9) 0.0001(11)
O7C 0.0267 0.033 0.0255 -0.0013 0.001 0.0011
O8C 0.0359(13) 0.0516(15) 0.0279(12) -0.0071(10) -0.0029(9) -0.0040(11)
O9C 0.027 0.0383 0.0373 0.0029 0.0027 -0.0019
O10C 0.039 0.054 0.0325 0.0005 0.0114 0.0007
O11C 0.0288 0.0377 0.0327 -0.0017 0.0037 0.0068
N1C 0.0415 0.0381 0.0393 -0.0026 0.0068 0.0029
N2C 0.0519 0.0372 0.0412 0.0065 0.007 0.0012
N2F 0.0519 0.0372 0.0412 -0.0065 -0.007 0.0012
N2E 0.0519 0.0372 0.0412 0.0065 -0.007 -0.0012
N3C 0.0453 0.0365 0.0477 0.0019 0.0093 0.0072
O12C 0.0355 0.0503 0.0579 -0.0065 -0.0112 -0.0049
O13C 0.062 0.07 0.0532 0.0029 0.0252 -0.003
N4C 0.047 0.059 0.0304 0.0014 0.0078 0.0196
O14C 0.0498(16) 0.0672(19) 0.0263(13) 0.0015(12) 0.0028(11) -0.0020(13)
N5C 0.045 0.0361 0.043 0.0064 0.0082 0.0075
C1C 0.048 0.0374 0.054 0.0036 0.0123 0.0018
N6C 0.0386 0.038 0.0374 -0.0017 0.0113 0.0072
N7C 0.0351 0.0377 0.0474 -0.0036 0.0116 0.0077
C2C 0.0385 0.0373 0.049 -0.0075 0.0124 0.0048
O15C 0.075 0.056 0.064 -0.0158 0.0069 0.0169
N8C 0.0429 0.0468 0.0348 -0.0004 0.0069 0.0107
N9C 0.053 0.053 0.0333 0.0022 0.006 0.0122
N9A 0.053 0.053 0.0333 0.0022 -0.006 -0.0122
N9B 0.053 0.053 0.0333 -0.0022 -0.006 0.0122
O16C 0.0556 0.0577 0.077 0.0173 -0.0061 0.0155
C3C 0.052 0.0357 0.049 0.0035 0.008 0.0069
C4C 0.049 0.051 0.0332 0.0008 0.0086 0.0104
O17C 0.0522 0.063 0.083 -0.0232 0.0065 0.0072
O18C 0.0464 0.0507 0.0516 0.0066 -0.0035 0.0164
C5C 0.0401 0.0417 0.0395 -0.0019 0.006 0.0052
C6C 0.056 0.066 0.033 0.0035 0.0069 0.023
N10C 0.098 0.07 0.074 -0.011 0.01 0.017
O19C 0.075 0.155 0.118 -0.006 0 -0.003
C7C 0.077 0.075 0.064 -0.01 -0.002 0.017
C8C 0.15 0.115 0.102 -0.042 0.02 -0.042
C9C 0.164 0.146 0.09 -0.022 0.018 0.079
O20 0.162(7) 0.139(6) 0.201(8) 0.108(6) 0.030(6) -0.008(5)
O21 0.59(3) 0.209(13) 0.202(12) 0.047(10) -0.236(17) -0.035(16)
loop_
_geom_bond_atom_site_label_1
_geom_bond_atom_site_label_2
_geom_bond_site_symmetry_1
_geom_bond_site_symmetry_2
Zn1 N1 1_555 1_555
Zn2 O11 1_555 1_555
Zn3 O13 1_555 1_555
V1 O2 1_555 1_555
V2 O2 1_555 1_555
V3 O3 1_555 1_555
V4 O3 1_555 1_555
V5 O1 1_555 1_555
V6 O1 1_555 1_555
O2 V5 1_555 1_555
O4 V4 1_555 1_555
O5 V1 1_555 1_555
O6 V2 1_555 1_555
O7 V1 1_555 1_555
O8 V2 1_555 1_555
O9 V1 1_555 1_555
O10 V1 1_555 1_555
O11 V1 1_555 1_555
N1 C2 1_555 1_555
N2 C1 1_555 1_555
N3 Zn2 1_555 1_555
O12 V4 1_555 1_555
N4 Zn2 1_555 1_555
O14 V2 1_555 1_555
N5 Zn3 1_555 1_555
C1 N3 1_555 1_555
H1 C1 1_555 1_555
N6 Zn3 1_555 1_555
N7 Zn2 1_555 1_555
C2 N7 1_555 1_555
H2 C2 1_555 1_555
O15 Zn3 1_555 1_555
N8 Zn3 1_555 1_555
N9 C4 1_555 1_555
O16 Zn3 1_555 1_555
C3 N2 1_555 1_555
H3 C3 1_555 1_555
C4 N8 1_555 1_555
H4 C4 1_555 1_555
O17 Zn2 1_555 1_555
O18 V6 1_555 1_555
C5 N1 1_555 1_555
H5 C5 1_555 1_555
C6 N4 1_555 1_555
H6 C6 1_555 1_555
N10 C7 1_555 1_555
O19 Zn1 1_555 1_555
C7 O15 1_555 1_555
H7 C7 1_555 1_555
C8 N10 1_555 1_555
H8 C8 1_555 1_555
H9 C8 1_555 1_555
H10 C8 1_555 1_555
C9 N10 1_555 1_555
H11 C9 1_555 1_555
H12 C9 1_555 1_555
H13 C9 1_555 1_555
Zn1C N1C 1_555 1_555
Zn1F N2 1_555 1_555
Zn1A N9 1_555 1_555
Zn1E N2C 1_555 1_555
Zn1B N9C 1_555 1_555
Zn2C O11C 1_555 1_555
Zn3C O13C 1_555 1_555
V1C O2C 1_555 1_555
V2C O7 1_555 1_555
V4C O6 1_555 1_555
V6C O8 1_555 1_555
O1C V5 1_555 1_555
O2C V5 1_555 1_555
O3C V3 1_555 1_555
O4C V4C 1_555 1_555
O5C V3 1_555 1_555
O6C V4 1_555 1_555
O7C V2 1_555 1_555
O8C V6 1_555 1_555
O9C V1C 1_555 1_555
O10C V1C 1_555 1_555
O11C V1C 1_555 1_555
N1C C2C 1_555 1_555
N2C C1C 1_555 1_555
N2F Zn1 1_555 1_555
N2E Zn1C 1_555 1_555
N3C Zn2C 1_555 1_555
O12C V4C 1_555 1_555
N4C Zn2C 1_555 1_555
O14C V2C 1_555 1_555
N5C Zn3C 1_555 1_555
C1C N3C 1_555 1_555
H1C C1C 1_555 1_555
N6C Zn3C 1_555 1_555
N7C Zn2C 1_555 1_555
C2C N7C 1_555 1_555
H2C C2C 1_555 1_555
O15C Zn3C 1_555 1_555
N8C Zn3C 1_555 1_555
N9C C4C 1_555 1_555
N9A Zn1 1_555 1_555
N9B Zn1C 1_555 1_555
O16C Zn3C 1_555 1_555
C3C N2C 1_555 1_555
H3C C3C 1_555 1_555
C4C N8C 1_555 1_555
H4C C4C 1_555 1_555
O17C Zn2C 1_555 1_555
O18C V6C 1_555 1_555
C5C N1C 1_555 1_555
H5C C5C 1_555 1_555
C6C N4C 1_555 1_555
H6C C6C 1_555 1_555
N10C C7C 1_555 1_555
O19C Zn1C 1_555 1_555
C7C O15C 1_555 1_555
H7C C7C 1_555 1_555
C8C N10C 1_555 1_555
H8C C8C 1_555 1_555
H9C C8C 1_555 1_555
H10C C8C 1_555 1_555
C9C N10C 1_555 1_555
H11C C9C 1_555 1_555
H12C C9C 1_555 1_555
H13C C9C 1_555 1_555
V2 O5 1_555 1_555
V3 O5 1_555 1_555
V3 O7 1_555 1_555
V3 O7C 1_555 1_555
V4 O7 1_555 1_555
V4 O9 1_555 1_555
V5 O7 1_555 1_555
V5 O7C 1_555 1_555
V6 O4 1_555 1_555
V6 O7 1_555 1_555
V6 O11 1_555 1_555
N3 N5 1_555 1_555
N4 N8 1_555 1_555
N5 C3 1_555 1_555
N6 N7 1_555 1_555
N6 C5 1_555 1_555
N9 C6 1_555 1_555
V1C O5C 1_555 1_555
V1C O7C 1_555 1_555
V2C O2C 1_555 1_555
V2C O5C 1_555 1_555
V2C O6C 1_555 1_555
V2C O8C 1_555 1_555
V4C O3C 1_555 1_555
V4C O7C 1_555 1_555
V4C O9C 1_555 1_555
V6C O1C 1_555 1_555
V6C O4C 1_555 1_555
V6C O7C 1_555 1_555
V6C O11C 1_555 1_555
N3C N5C 1_555 1_555
N4C N8C 1_555 1_555
N5C C3C 1_555 1_555
N6C N7C 1_555 1_555
N6C C5C 1_555 1_555
N9C C6C 1_555 1_555

#END
