
#######################################################################
#
#                 Cambridge Crystallographic Data Centre
#                                CCDC 
#
#######################################################################
#
# If this CIF has been generated from an entry in the Cambridge 
# Structural Database, then it will include bibliographic, chemical, 
# crystal, experimental, refinement or atomic coordinate data resulting 
# from the CCDC's data processing and validation procedures.
#
#######################################################################

data_HACNIL
_chemical_formula_moiety         '(C76 H44 N4 O10 Zn2)n'
_symmetry_cell_setting           tetragonal
_symmetry_space_group_name_H-M   'I 41/a'
_symmetry_Int_Tables_number      88
_space_group_name_Hall           '-I 4ad'
loop_
_symmetry_equiv_pos_site_id
_symmetry_equiv_pos_as_xyz
1 x,y,z
2 1/2-x,-y,1/2+z
3 3/4-y,1/4+x,1/4+z
4 3/4+y,3/4-x,3/4+z
5 1/2+x,1/2+y,1/2+z
6 -x,1/2-y,z
7 1/4-y,3/4+x,3/4+z
8 1/4+y,1/4-x,1/4+z
9 -x,-y,-z
10 1/2+x,y,1/2-z
11 1/4+y,3/4-x,3/4-z
12 1/4-y,1/4+x,1/4-z
13 1/2-x,1/2-y,1/2-z
14 x,1/2+y,-z
15 3/4+y,1/4-x,1/4-z
16 3/4-y,3/4+x,3/4-z
_cell_length_a                   33.9529(14)
_cell_length_b                   33.9529(14)
_cell_length_c                   17.1833(8)
_cell_angle_alpha                90
_cell_angle_beta                 90
_cell_angle_gamma                90
_cell_volume                     19808.9
loop_
_atom_site_label
_atom_site_type_symbol
_atom_site_fract_x
_atom_site_fract_y
_atom_site_fract_z
Zn1 Zn 0.50450(2) 0.54841(2) -0.10838(3)
C1 C 0.49994(14) 0.73059(13) 0.3901(3)
C2 C 0.50151(14) 0.70664(12) 0.3171(3)
C3 C 0.53257(19) 0.70891(16) 0.2646(3)
H1 H 0.5526 0.7280 0.2727
C4 C 0.53512(18) 0.68429(16) 0.2010(3)
H2 H 0.5572 0.6856 0.1672
C5 C 0.50472(13) 0.65729(11) 0.1866(2)
C6 C 0.47456(12) 0.65436(12) 0.2395(3)
H3 H 0.4543 0.6354 0.2317
C7 C 0.47333(12) 0.67844(12) 0.3035(3)
H4 H 0.4523 0.6755 0.3396
N1 N 0.50879(10) 0.58154(9) -0.0124(2)
C8 C 0.48954(17) 0.57124(14) 0.0515(3)
H5 H 0.4760 0.5467 0.0524
C9 C 0.48844(18) 0.59439(15) 0.1157(3)
H6 H 0.4747 0.5855 0.1605
C10 C 0.50697(13) 0.63084(12) 0.1177(2)
C11 C 0.52992(12) 0.63867(12) 0.0545(3)
H7 H 0.5459 0.6616 0.0541
C12 C 0.53031(13) 0.61404(13) -0.0083(3)
H8 H 0.5468 0.6205 -0.0511
C13 C 0.49881(13) 0.70516(12) 0.4616(3)
C14 C 0.47132(14) 0.71022(13) 0.5199(3)
H9 H 0.4532 0.7315 0.5168
C15 C 0.46969(14) 0.68517(13) 0.5822(3)
H10 H 0.4504 0.6892 0.6214
C16 C 0.49611(13) 0.65374(12) 0.5890(2)
C17 C 0.52292(14) 0.64847(13) 0.5301(3)
H11 H 0.5409 0.6271 0.5328
C18 C 0.52423(14) 0.67349(14) 0.4670(3)
H12 H 0.5428 0.6689 0.4267
N2 N 0.49980(11) 0.58221(10) 0.7942(2)
C19 C 0.5284(2) 0.5829(3) 0.7430(4)
H13 H 0.5508 0.5669 0.7525
C20 C 0.5279(2) 0.6054(2) 0.6759(4)
H14 H 0.5499 0.6047 0.6417
C21 C 0.49673(13) 0.62821(12) 0.6586(3)
C22 C 0.46755(16) 0.62814(16) 0.7131(3)
H15 H 0.4449 0.6442 0.7052
C23 C 0.47009(16) 0.60543(15) 0.7791(3)
H16 H 0.4491 0.6067 0.8156
O1 O 0.54911(9) 0.51336(9) -0.12466(19)
O2 O 0.58625(10) 0.56720(9) -0.1160(2)
C24 C 0.58216(15) 0.53094(14) -0.1228(3)
C25 C 0.61748(14) 0.50511(14) -0.1309(3)
C26 C 0.65492(17) 0.52159(17) -0.1308(5)
H17 H 0.6576 0.5493 -0.1249
C27 C 0.68843(18) 0.49888(18) -0.1390(6)
H18 H 0.7139 0.5105 -0.1383
C28 C 0.68364(16) 0.45854(15) -0.1482(4)
C29 C 0.71291(15) 0.42668(16) -0.1568(4)
C30 C 0.75357(18) 0.42849(19) -0.1607(6)
H19 H 0.7671 0.4530 -0.1608
C31 C 0.77385(17) 0.39296(18) -0.1644(5)
H20 H 0.8018 0.3934 -0.1679
C32 C 0.75461(15) 0.35686(15) -0.1631(3)
C33 C 0.71392(14) 0.35596(14) -0.1631(3)
H21 H 0.7004 0.3315 -0.1652
C34 C 0.69315(14) 0.39077(13) -0.1599(3)
C35 C 0.65055(14) 0.39851(14) -0.1566(4)
O3 O 0.62446(11) 0.37489(11) -0.1587(3)
C36 C 0.64627(13) 0.44184(13) -0.1483(3)
C37 C 0.61327(14) 0.46495(13) -0.1407(3)
H22 H 0.5878 0.4534 -0.1422
C38 C 0.77816(15) 0.32016(16) -0.1601(3)
O4 O 0.75987(9) 0.28825(10) -0.15460(19)
O5 O 0.81519(10) 0.32293(10) -0.1629(2)
C1E C 0.50006(14) 0.76941(13) 0.3901(3)
C2E C 0.49849(14) 0.79336(12) 0.3171(3)
C3E C 0.46743(19) 0.79109(16) 0.2646(3)
H1E H 0.4474 0.7720 0.2727
C4E C 0.46488(18) 0.81571(16) 0.2010(3)
H2E H 0.4428 0.8144 0.1672
C5E C 0.49528(13) 0.84271(11) 0.1866(2)
C6E C 0.52544(12) 0.84564(12) 0.2395(3)
H3E H 0.5457 0.8646 0.2317
C7E C 0.52667(12) 0.82156(12) 0.3035(3)
H4E H 0.5477 0.8245 0.3396
N1E N 0.49121(10) 0.91846(9) -0.0124(2)
C8E C 0.51046(17) 0.92876(14) 0.0515(3)
H5E H 0.5240 0.9533 0.0524
C9E C 0.51156(18) 0.90561(15) 0.1157(3)
H6E H 0.5253 0.9145 0.1605
C10E C 0.49303(13) 0.86916(12) 0.1177(2)
C11E C 0.47008(12) 0.86133(12) 0.0545(3)
H7E H 0.4541 0.8384 0.0541
C12E C 0.46969(13) 0.88596(13) -0.0083(3)
H8E H 0.4532 0.8795 -0.0511
C13E C 0.50119(13) 0.79484(12) 0.4616(3)
C14E C 0.52868(14) 0.78978(13) 0.5199(3)
H9E H 0.5468 0.7685 0.5168
C15E C 0.53031(14) 0.81483(13) 0.5822(3)
H10E H 0.5496 0.8108 0.6214
C16E C 0.50389(13) 0.84626(12) 0.5890(2)
C17E C 0.47708(14) 0.85153(13) 0.5301(3)
H11E H 0.4591 0.8729 0.5328
C18E C 0.47577(14) 0.82651(14) 0.4670(3)
H12E H 0.4572 0.8311 0.4267
N2E N 0.50020(11) 0.91779(10) 0.7942(2)
C19E C 0.4716(2) 0.9171(3) 0.7430(4)
H13E H 0.4492 0.9331 0.7525
C20E C 0.4721(2) 0.8946(2) 0.6759(4)
H14E H 0.4501 0.8953 0.6417
C21E C 0.50327(13) 0.87179(12) 0.6586(3)
C22E C 0.53245(16) 0.87186(16) 0.7131(3)
H15E H 0.5551 0.8558 0.7052
C23E C 0.52991(16) 0.89457(15) 0.7791(3)
H16E H 0.5509 0.8933 0.8156
Zn1E Zn 0.49550(2) 0.95159(2) -0.10838(3)
O1E O 0.45089(9) 0.98664(9) -0.12466(19)
O2E O 0.41375(10) 0.93280(9) -0.1160(2)
C24E C 0.41784(15) 0.96906(14) -0.1228(3)
C25E C 0.38252(14) 0.99489(14) -0.1309(3)
C26E C 0.34508(17) 0.97841(17) -0.1308(5)
H17E H 0.3424 0.9507 -0.1249
C27E C 0.31157(18) 1.00112(18) -0.1390(6)
H18E H 0.2861 0.9895 -0.1383
C28E C 0.31636(16) 1.04146(15) -0.1482(4)
C29E C 0.28709(15) 1.07332(16) -0.1568(4)
C30E C 0.24643(18) 1.07151(19) -0.1607(6)
H19E H 0.2329 1.0470 -0.1608
C31E C 0.22615(17) 1.10704(18) -0.1644(5)
H20E H 0.1982 1.1066 -0.1679
C32E C 0.24539(15) 1.14314(15) -0.1631(3)
C33E C 0.28608(14) 1.14404(14) -0.1631(3)
H21E H 0.2996 1.1685 -0.1652
C34E C 0.30685(14) 1.10923(13) -0.1599(3)
C35E C 0.34945(14) 1.10149(14) -0.1566(4)
O3E O 0.37554(11) 1.12511(11) -0.1587(3)
C36E C 0.35373(13) 1.05816(13) -0.1483(3)
C37E C 0.38673(14) 1.03505(13) -0.1407(3)
H22E H 0.4122 1.0466 -0.1422
C38E C 0.22184(15) 1.17984(16) -0.1601(3)
O4E O 0.24013(9) 1.21175(10) -0.15460(19)
O5E O 0.18481(10) 1.17707(10) -0.1629(2)
Zn1_2 Zn 0.50450(2) 0.54841(2) 0.89162(3)
Zn1E_2 Zn 0.49550(2) 0.95159(2) 0.89162(3)
Zn1J Zn 0.79841(2) 0.24550(2) -0.14162(3)
Zn1O Zn 0.20159(2) 1.25450(2) -0.14162(3)
N2_2 N 0.49980(11) 0.58221(10) -0.2058(2)
N2E_2 N 0.50020(11) 0.91779(10) -0.2058(2)
O4J O 0.53825(10) 0.99013(9) -0.09540(19)
O4O O 0.46175(10) 0.50987(9) -0.09540(19)
loop_
_geom_bond_atom_site_label_1
_geom_bond_atom_site_label_2
_geom_bond_site_symmetry_1
_geom_bond_site_symmetry_2
Zn1 N1 1_555 1_555
C1 C2 1_555 1_555
C2 C3 1_555 1_555
C3 H1 1_555 1_555
C4 C3 1_555 1_555
H2 C4 1_555 1_555
C5 C4 1_555 1_555
C6 C5 1_555 1_555
H3 C6 1_555 1_555
C7 C2 1_555 1_555
H4 C7 1_555 1_555
N1 C8 1_555 1_555
C8 H5 1_555 1_555
C9 C8 1_555 1_555
H6 C9 1_555 1_555
C10 C5 1_555 1_555
C11 C10 1_555 1_555
H7 C11 1_555 1_555
C12 N1 1_555 1_555
H8 C12 1_555 1_555
C13 C1 1_555 1_555
C14 C13 1_555 1_555
H9 C14 1_555 1_555
C15 C14 1_555 1_555
H10 C15 1_555 1_555
C16 C15 1_555 1_555
C17 C16 1_555 1_555
H11 C17 1_555 1_555
C18 C13 1_555 1_555
H12 C18 1_555 1_555
N2 C19 1_555 1_555
C19 H13 1_555 1_555
C20 C19 1_555 1_555
H14 C20 1_555 1_555
C21 C16 1_555 1_555
C22 C21 1_555 1_555
H15 C22 1_555 1_555
C23 N2 1_555 1_555
H16 C23 1_555 1_555
O1 Zn1 1_555 1_555
O2 C24 1_555 1_555
C24 O1 1_555 1_555
C25 C24 1_555 1_555
C26 C25 1_555 1_555
H17 C26 1_555 1_555
C27 C26 1_555 1_555
H18 C27 1_555 1_555
C28 C27 1_555 1_555
C29 C28 1_555 1_555
C30 C29 1_555 1_555
H19 C30 1_555 1_555
C31 C30 1_555 1_555
H20 C31 1_555 1_555
C32 C31 1_555 1_555
C33 C32 1_555 1_555
H21 C33 1_555 1_555
C34 C29 1_555 1_555
C35 C34 1_555 1_555
O3 C35 1_555 1_555
C36 C28 1_555 1_555
C37 C25 1_555 1_555
H22 C37 1_555 1_555
C38 C32 1_555 1_555
O4 C38 1_555 1_555
O5 C38 1_555 1_555
C1E C1 1_555 1_555
C2E C1E 1_555 1_555
C3E C2E 1_555 1_555
H1E C3E 1_555 1_555
C4E C3E 1_555 1_555
H2E C4E 1_555 1_555
C5E C4E 1_555 1_555
C6E C5E 1_555 1_555
H3E C6E 1_555 1_555
C7E C2E 1_555 1_555
H4E C7E 1_555 1_555
N1E C8E 1_555 1_555
C8E H5E 1_555 1_555
C9E C8E 1_555 1_555
H6E C9E 1_555 1_555
C10E C5E 1_555 1_555
C11E C10E 1_555 1_555
H7E C11E 1_555 1_555
C12E N1E 1_555 1_555
H8E C12E 1_555 1_555
C13E C1E 1_555 1_555
C14E C13E 1_555 1_555
H9E C14E 1_555 1_555
C15E C14E 1_555 1_555
H10E C15E 1_555 1_555
C16E C15E 1_555 1_555
C17E C16E 1_555 1_555
H11E C17E 1_555 1_555
C18E C13E 1_555 1_555
H12E C18E 1_555 1_555
N2E C19E 1_555 1_555
C19E H13E 1_555 1_555
C20E C19E 1_555 1_555
H14E C20E 1_555 1_555
C21E C16E 1_555 1_555
C22E C21E 1_555 1_555
H15E C22E 1_555 1_555
C23E N2E 1_555 1_555
H16E C23E 1_555 1_555
Zn1E N1E 1_555 1_555
O1E Zn1E 1_555 1_555
O2E C24E 1_555 1_555
C24E O1E 1_555 1_555
C25E C24E 1_555 1_555
C26E C25E 1_555 1_555
H17E C26E 1_555 1_555
C27E C26E 1_555 1_555
H18E C27E 1_555 1_555
C28E C27E 1_555 1_555
C29E C28E 1_555 1_555
C30E C29E 1_555 1_555
H19E C30E 1_555 1_555
C31E C30E 1_555 1_555
H20E C31E 1_555 1_555
C32E C31E 1_555 1_555
C33E C32E 1_555 1_555
H21E C33E 1_555 1_555
C34E C29E 1_555 1_555
C35E C34E 1_555 1_555
O3E C35E 1_555 1_555
C36E C28E 1_555 1_555
C37E C25E 1_555 1_555
H22E C37E 1_555 1_555
C38E C32E 1_555 1_555
O4E C38E 1_555 1_555
O5E C38E 1_555 1_555
Zn1_2 N2 1_555 1_555
Zn1E_2 N2E 1_555 1_555
Zn1J O4 1_555 1_555
Zn1O O4E 1_555 1_555
N2_2 Zn1 1_555 1_555
N2E_2 Zn1E 1_555 1_555
O4J Zn1E 1_555 1_555
O4O Zn1 1_555 1_555
C6 C7 1_555 1_555
C9 C10 1_555 1_555
C11 C12 1_555 1_555
C17 C18 1_555 1_555
C20 C21 1_555 1_555
C22 C23 1_555 1_555
C33 C34 1_555 1_555
C35 C36 1_555 1_555
C36 C37 1_555 1_555
C6E C7E 1_555 1_555
C9E C10E 1_555 1_555
C11E C12E 1_555 1_555
C17E C18E 1_555 1_555
C20E C21E 1_555 1_555
C22E C23E 1_555 1_555
C33E C34E 1_555 1_555
C35E C36E 1_555 1_555
C36E C37E 1_555 1_555

#END
