
#######################################################################
#
#                 Cambridge Crystallographic Data Centre
#                                CCDC 
#
#######################################################################
#
# If this CIF has been generated from an entry in the Cambridge 
# Structural Database, then it will include bibliographic, chemical, 
# crystal, experimental, refinement or atomic coordinate data resulting 
# from the CCDC's data processing and validation procedures.
#
#######################################################################

data_FAVDAK
_chemical_formula_moiety         '(C120 H88 I14 N32 O16 Zn6)n'
_symmetry_cell_setting           monoclinic
_symmetry_space_group_name_H-M   'P 21/c'
_symmetry_Int_Tables_number      14
_space_group_name_Hall           '-P 2ybc'
loop_
_symmetry_equiv_pos_site_id
_symmetry_equiv_pos_as_xyz
1 x,y,z
2 -x,1/2+y,1/2-z
3 -x,-y,-z
4 x,1/2-y,1/2+z
_cell_length_a                   35.143(5)
_cell_length_b                   15.039(2)
_cell_length_c                   30.680(4)
_cell_angle_alpha                90
_cell_angle_beta                 101.549(4)
_cell_angle_gamma                90
_cell_volume                     15886.6
loop_
_atom_site_label
_atom_site_type_symbol
_atom_site_fract_x
_atom_site_fract_y
_atom_site_fract_z
Zn1 Zn 0.86870(7) 0.16047(16) 1.06403(8)
I1 I 0.88296(5) 0.16684(13) 0.98658(5)
I2 I 0.85130(5) 0.01742(11) 1.10034(6)
Zn2 Zn 0.5586(4) 0.3877(12) 1.2239(5)
I3 I 0.4964(2) 0.4602(5) 1.1824(3)
Zn3 Zn 0.66335(10) 0.86518(19) 0.90814(10)
I4 I 0.63253(7) 0.99123(13) 0.94378(8)
Zn4 Zn 0.38309(9) 0.8403(2) 0.54490(11)
I5 I 0.36700(7) 0.98465(14) 0.58114(9)
Zn5 Zn 0.16037(8) 0.12657(16) 0.41782(8)
I6 I 0.12957(6) 0.01110(11) 0.46016(6)
I7 I 0.21269(5) 0.10088(13) 0.37222(6)
Zn6 Zn 0.08618(8) 0.87078(16) 0.23244(8)
I8 I 0.13165(6) 0.89321(12) 0.30757(6)
I9 I 0.02622(5) 0.96916(11) 0.20957(6)
N1 N 0.6014(7) 0.4130(14) 1.1877(8)
C1 C 0.6018(9) 0.488(2) 1.1665(13)
H1 H 0.5844 0.5335 1.1717
C2 C 0.6252(10) 0.506(2) 1.1376(11)
H2 H 0.6218 0.5596 1.1212
C3 C 0.6538(7) 0.4476(18) 1.1313(8)
C4 C 0.6552(6) 0.3711(16) 1.1555(8)
H3 H 0.6748 0.3284 1.1538
C5 C 0.6289(9) 0.3539(19) 1.1823(10)
H4 H 0.6302 0.2985 1.1974
C6 C 0.6781(7) 0.4661(18) 1.1009(8)
N2 N 0.6718(5) 0.5360(12) 1.0743(6)
C7 C 0.6929(6) 0.5403(15) 1.0454(6)
N3 N 0.7219(5) 0.4839(13) 1.0387(6)
C8 C 0.7275(6) 0.4168(14) 1.0698(7)
N4 N 0.7067(5) 0.4033(12) 1.0990(6)
C9 C 0.7611(6) 0.3565(16) 1.0651(8)
C10 C 0.7783(7) 0.3580(17) 1.0321(8)
H5 H 0.7693 0.3970 1.0079
C11 C 0.8109(7) 0.3018(17) 1.0313(8)
H6 H 0.8236 0.3042 1.0067
N5 N 0.8237(5) 0.2463(11) 1.0647(6)
C12 C 0.8048(9) 0.2460(18) 1.0994(9)
H7 H 0.8137 0.2082 1.1241
C13 C 0.7733(7) 0.2992(14) 1.0993(6)
H8 H 0.7598 0.2961 1.1232
C14 C 0.6890(7) 0.6205(15) 1.0131(6)
C15 C 0.6550(7) 0.6714(17) 1.0088(8)
H9 H 0.6359 0.6585 1.0259
C16 C 0.6504(7) 0.7393(18) 0.9796(8)
H10 H 0.6273 0.7735 0.9769
N6 N 0.6750(6) 0.7622(13) 0.9546(6)
C17 C 0.7076(8) 0.7161(15) 0.9587(7)
H11 H 0.7259 0.7306 0.9408
C18 C 0.7154(6) 0.6451(16) 0.9898(9)
H12 H 0.7397 0.6150 0.9940
N7 N 0.6245(6) 0.7974(16) 0.8600(7)
C19 C 0.6016(10) 0.843(2) 0.8297(11)
H13 H 0.5995 0.9052 0.8333
C20 C 0.5791(10) 0.7999(16) 0.7903(10)
H14 H 0.5623 0.8337 0.7683
C21 C 0.5826(7) 0.7104(15) 0.7856(8)
C22 C 0.6038(8) 0.6691(18) 0.8215(9)
H15 H 0.6045 0.6060 0.8214
C23 C 0.6246(12) 0.7131(18) 0.8587(13)
H16 H 0.6387 0.6801 0.8830
C24 C 0.5618(11) 0.660(2) 0.7465(9)
N8 N 0.5362(6) 0.7069(13) 0.7164(7)
C25 C 0.5165(8) 0.6537(17) 0.6825(9)
N9 N 0.5214(6) 0.5681(12) 0.6784(7)
C26 C 0.5473(10) 0.5324(17) 0.7114(11)
N10 N 0.5691(6) 0.5760(12) 0.7446(7)
C27 C 0.4889(7) 0.6989(17) 0.6499(8)
C28 C 0.4772(9) 0.786(2) 0.6538(10)
H17 H 0.4903 0.8182 0.6789
C29 C 0.4483(8) 0.8295(17) 0.6247(8)
H18 H 0.4421 0.8899 0.6292
N11 N 0.4283(6) 0.7802(15) 0.5881(8)
C30 C 0.4388(8) 0.7005(18) 0.5832(9)
H19 H 0.4241 0.6682 0.5589
C31 C 0.4690(10) 0.657(2) 0.6094(11)
H20 H 0.4768 0.5997 0.6011
C32 C 0.5521(8) 0.435(2) 0.7111(10)
C33 C 0.5285(10) 0.376(2) 0.6829(11)
H21 H 0.5096 0.3999 0.6593
C34 C 0.5307(11) 0.285(2) 0.6867(15)
H22 H 0.5138 0.2489 0.6662
N12 N 0.5570(9) 0.2483(15) 0.7198(9)
C35 C 0.5790(9) 0.300(2) 0.7504(10)
H23 H 0.5964 0.2730 0.7743
C36 C 0.5772(12) 0.393(2) 0.7483(10)
H24 H 0.5924 0.4285 0.7710
N13 N 0.3362(6) 0.7552(13) 0.5453(7)
C37 C 0.3269(8) 0.750(2) 0.5852(9)
H25 H 0.3423 0.7793 0.6100
C38 C 0.2922(9) 0.697(2) 0.5906(10)
H26 H 0.2836 0.6944 0.6180
C39 C 0.2732(6) 0.6522(13) 0.5525(7)
C40 C 0.2853(6) 0.6576(15) 0.5138(7)
H27 H 0.2733 0.6230 0.4889
C41 C 0.3160(7) 0.7156(16) 0.5109(8)
H28 H 0.3223 0.7261 0.4826
C42 C 0.2394(6) 0.5921(14) 0.5569(7)
N14 N 0.2206(5) 0.6088(12) 0.5899(7)
C43 C 0.1926(6) 0.5564(14) 0.5932(6)
N15 N 0.1829(5) 0.4836(11) 0.5680(6)
C44 C 0.2044(6) 0.4692(15) 0.5371(6)
N16 N 0.2318(6) 0.5237(12) 0.5277(6)
C45 C 0.1682(6) 0.5754(14) 0.6243(8)
C46 C 0.1782(8) 0.6335(15) 0.6615(7)
H29 H 0.2025 0.6632 0.6658
C47 C 0.1558(6) 0.6485(15) 0.6900(7)
H30 H 0.1649 0.6867 0.7145
N17 N 0.1187(5) 0.6103(12) 0.6858(7)
C48 C 0.1092(6) 0.5549(15) 0.6501(7)
H31 H 0.0846 0.5265 0.6455
C49 C 0.1318(6) 0.5378(15) 0.6211(7)
H32 H 0.1227 0.4981 0.5972
C50 C 0.1963(6) 0.3870(15) 0.5090(8)
C51 C 0.1687(7) 0.3250(15) 0.5177(7)
H33 H 0.1558 0.3351 0.5416
C52 C 0.1606(7) 0.2522(19) 0.4925(7)
H34 H 0.1409 0.2129 0.4980
N18 N 0.1789(5) 0.2336(12) 0.4609(6)
C53 C 0.2066(7) 0.2869(14) 0.4527(6)
H35 H 0.2202 0.2713 0.4299
C54 C 0.2167(7) 0.3682(14) 0.4774(7)
H36 H 0.2366 0.4064 0.4717
N19 N 0.1164(6) 0.1872(11) 0.3716(6)
C55 C 0.0951(7) 0.1453(15) 0.3381(7)
H37 H 0.0944 0.0821 0.3391
C56 C 0.0738(6) 0.1868(13) 0.3019(7)
H38 H 0.0592 0.1527 0.2782
C57 C 0.0734(6) 0.2787(15) 0.2995(7)
C58 C 0.0932(8) 0.3222(15) 0.3367(8)
H39 H 0.0910 0.3850 0.3384
C59 C 0.1160(8) 0.2777(17) 0.3712(7)
H40 H 0.1316 0.3099 0.3949
C60 C 0.0523(7) 0.3280(13) 0.2591(7)
N20 N 0.0271(5) 0.2889(12) 0.2306(6)
C61 C 0.0099(6) 0.3379(13) 0.1960(7)
N21 N 0.0172(5) 0.4245(12) 0.1906(6)
C62 C 0.0454(6) 0.4573(16) 0.2217(8)
N22 N 0.0650(5) 0.4145(11) 0.2569(6)
C63 C 0.0548(6) 0.5582(14) 0.2223(6)
C64 C 0.0320(8) 0.6151(17) 0.1948(8)
H41 H 0.0109 0.5930 0.1733
C65 C 0.0394(6) 0.7072(14) 0.1979(8)
H42 H 0.0225 0.7476 0.1797
N23 N 0.0695(5) 0.7366(12) 0.2258(7)
C66 C 0.0921(8) 0.6790(16) 0.2530(9)
H43 H 0.1125 0.7026 0.2749
C67 C 0.0876(7) 0.5876(15) 0.2512(10)
H44 H 0.1057 0.5482 0.2684
C68 C -0.0242(6) 0.2949(13) 0.1644(6)
C69 C -0.0293(6) 0.2090(15) 0.1663(7)
H45 H -0.0113 0.1738 0.1863
C70 C -0.0617(6) 0.1684(15) 0.1388(7)
H46 H -0.0675 0.1076 0.1427
N24 N -0.0844(5) 0.2179(11) 0.1068(5)
C71 C -0.0785(6) 0.3022(13) 0.1043(7)
H47 H -0.0958 0.3363 0.0828
C72 C -0.0468(6) 0.3457(14) 0.1328(7)
H48 H -0.0418 0.4073 0.1298
I10 I 0.39787(7) 0.8320(2) 0.46670(8)
I11 I 0.72176(8) 0.88893(16) 0.87236(7)
I12 I 0.5877(3) 0.4150(6) 1.3048(3)
Zn1_2 Zn -0.13130(7) 0.16047(16) 0.06403(8)
Zn2C Zn 0.5586(4) 0.1123(12) 0.7239(5)
Zn6C Zn 0.08618(8) 0.62922(16) 0.73244(8)
N12C N 0.5570(9) 0.2517(15) 1.2198(9)
N17C N 0.1187(5) 0.8897(12) 0.1858(7)
N24_2 N 0.9156(5) 0.2179(11) 1.1068(5)
C73 C 0.2059(10) 0.4726(18) 0.2163(8)
H49 H 0.2156 0.4948 0.1917
C74 C 0.2001(11) 0.3817(17) 0.2204(11)
H50 H 0.2059 0.3419 0.1986
C75 C 0.1859(11) 0.3491(13) 0.2564(13)
H51 H 0.1819 0.2871 0.2592
C76 C 0.1774(11) 0.4074(19) 0.2883(12)
H52 H 0.1677 0.3851 0.3129
C77 C 0.1831(8) 0.4982(17) 0.2843(9)
H53 H 0.1773 0.5380 0.3061
C78 C 0.1974(8) 0.5308(13) 0.2483(8)
N25 N 0.2031(9) 0.6249(15) 0.2437(11)
O1 O 0.1907(12) 0.6722(16) 0.2697(13)
O2 O 0.2224(12) 0.649(2) 0.2174(12)
I13 I 0.48048(10) 0.7135(3) 0.45719(12)
I14 I 0.54498(9) 0.6187(2) 0.44571(11)
C79 C 0.7366(7) 0.5069(17) 1.2190(8)
H54 H 0.7467 0.5499 1.2016
C80 C 0.7506(7) 0.4202(19) 1.2214(9)
H55 H 0.7702 0.4039 1.2057
C81 C 0.7358(8) 0.3574(15) 1.2468(10)
H56 H 0.7454 0.2982 1.2485
C82 C 0.7071(9) 0.3813(16) 1.2698(8)
H57 H 0.6970 0.3383 1.2872
C83 C 0.6931(7) 0.4680(17) 1.2674(7)
H58 H 0.6735 0.4843 1.2831
C84 C 0.7079(7) 0.5308(14) 1.2420(7)
N26 N 0.6922(9) 0.6197(17) 1.2375(11)
O3 O 0.7065(15) 0.6693(19) 1.2139(18)
O4 O 0.6602(9) 0.630(2) 1.2461(13)
C85 C 0.6865(8) 0.5217(17) 0.7580(7)
H59 H 0.6784 0.4932 0.7301
C86 C 0.6917(10) 0.6133(17) 0.7600(9)
H60 H 0.6870 0.6475 0.7334
C87 C 0.7036(12) 0.6550(17) 0.8009(11)
H61 H 0.7072 0.7177 0.8023
C88 C 0.7105(11) 0.605(2) 0.8398(8)
H62 H 0.7186 0.6336 0.8678
C89 C 0.7053(11) 0.513(2) 0.8378(7)
H63 H 0.7100 0.4793 0.8644
C90 C 0.6934(10) 0.4717(16) 0.7969(9)
N27 N 0.6884(17) 0.3767(18) 0.7942(12)
O5 O 0.6975(16) 0.336(2) 0.8287(14)
O6 O 0.681(2) 0.344(2) 0.7572(14)
C91 C -0.0073(4) 0.1293(15) -0.0106(6)
H64 H -0.0282 0.1519 0.0016
C92 C -0.0122(7) 0.1149(17) -0.0561(5)
H65 H -0.0365 0.1276 -0.0751
C93 C 0.0183(10) 0.0818(17) -0.0739(5)
H66 H 0.0149 0.0719 -0.1050
C94 C 0.0538(8) 0.0631(15) -0.0462(8)
H67 H 0.0746 0.0404 -0.0583
C95 C 0.0587(5) 0.0775(14) -0.0006(7)
H68 H 0.0829 0.0647 0.0183
C96 C 0.0281(4) 0.1106(13) 0.0171(4)
N28 N 0.0331(6) 0.1247(18) 0.0643(6)
O7 O 0.0640(7) 0.102(2) 0.0866(7)
O8 O 0.0053(7) 0.150(2) 0.0788(8)
C97 C 0.1422(9) 1.0240(18) 0.6083(12)
H69 H 0.1379 1.0863 0.6082
C98 C 0.1177(9) 0.967(3) 0.6253(12)
H70 H 0.0966 0.9901 0.6367
C99 C 0.1241(11) 0.876(2) 0.6254(10)
H71 H 0.1073 0.8365 0.6370
C100 C 0.1550(13) 0.8415(16) 0.6087(11)
H72 H 0.1593 0.7791 0.6088
C101 C 0.1795(10) 0.8986(19) 0.5917(11)
H73 H 0.2006 0.8753 0.5803
C102 C 0.1732(8) 0.9899(18) 0.5916(11)
N29 N 0.2001(8) 1.050(2) 0.5771(10)
O9 O 0.2264(10) 1.015(3) 0.5631(14)
O10 O 0.1999(14) 1.126(2) 0.589(3)
C103 C -0.0196(5) 0.3658(16) 0.9504(5)
H74 H -0.0307 0.3605 0.9196
C104 C -0.0414(5) 0.4010(19) 0.9794(8)
H75 H -0.0673 0.4197 0.9685
C105 C -0.0251(7) 0.4088(19) 1.0245(7)
H76 H -0.0400 0.4329 1.0443
C106 C 0.0129(7) 0.3815(16) 1.0404(5)
H77 H 0.0240 0.3868 1.0712
C107 C 0.0347(5) 0.3463(14) 1.0114(5)
H78 H 0.0607 0.3276 1.0223
C108 C 0.0184(5) 0.3385(14) 0.9664(5)
N30 N 0.0414(5) 0.3080(15) 0.9355(5)
O11 O 0.0268(6) 0.3120(18) 0.8962(5)
O12 O 0.0720(5) 0.2717(16) 0.9507(7)
C109 C 0.2756(8) 0.4389(16) 0.3467(7)
H79 H 0.2634 0.4585 0.3178
C110 C 0.2804(8) 0.3486(15) 0.3556(9)
H80 H 0.2716 0.3063 0.3328
C111 C 0.2981(10) 0.3199(13) 0.3979(10)
H81 H 0.3014 0.2582 0.4039
C112 C 0.3110(10) 0.3817(17) 0.4313(8)
H82 H 0.3232 0.3621 0.4601
C113 C 0.3062(9) 0.4721(15) 0.4224(7)
H83 H 0.3150 0.5143 0.4452
C114 C 0.2885(9) 0.5007(12) 0.3801(8)
N31 N 0.2799(12) 0.5937(15) 0.3721(9)
O13 O 0.2677(19) 0.6137(19) 0.3335(10)
O14 O 0.2952(11) 0.6453(17) 0.4009(11)
C115 C 0.1663(5) 0.1791(13) 0.1597(6)
H84 H 0.1771 0.2014 0.1359
C116 C 0.1884(4) 0.1249(13) 0.1918(7)
H85 H 0.2143 0.1102 0.1899
C117 C 0.1726(5) 0.0922(12) 0.2266(6)
H86 H 0.1877 0.0551 0.2486
C118 C 0.1347(6) 0.1137(13) 0.2294(5)
H87 H 0.1239 0.0913 0.2532
C119 C 0.1126(4) 0.1679(12) 0.1973(6)
H88 H 0.0867 0.1826 0.1992
C120 C 0.1284(5) 0.2006(12) 0.1624(5)
N32 N 0.1060(8) 0.258(2) 0.1295(8)
O15 O 0.0787(6) 0.2950(17) 0.1403(8)
O16 O 0.1151(9) 0.2639(17) 0.0934(6)
loop_
_geom_bond_atom_site_label_1
_geom_bond_atom_site_label_2
_geom_bond_site_symmetry_1
_geom_bond_site_symmetry_2
Zn1 I1 1_555 1_555
I2 Zn1 1_555 1_555
Zn2 I3 1_555 1_555
Zn3 I4 1_555 1_555
Zn4 I5 1_555 1_555
Zn5 I6 1_555 1_555
I7 Zn5 1_555 1_555
Zn6 I8 1_555 1_555
I9 Zn6 1_555 1_555
N1 Zn2 1_555 1_555
C1 N1 1_555 1_555
H1 C1 1_555 1_555
C2 C1 1_555 1_555
H2 C2 1_555 1_555
C3 C2 1_555 1_555
C4 C3 1_555 1_555
H3 C4 1_555 1_555
C5 N1 1_555 1_555
H4 C5 1_555 1_555
C6 C3 1_555 1_555
N2 C6 1_555 1_555
C7 N2 1_555 1_555
N3 C7 1_555 1_555
C8 N3 1_555 1_555
N4 C6 1_555 1_555
C9 C8 1_555 1_555
C10 C9 1_555 1_555
H5 C10 1_555 1_555
C11 C10 1_555 1_555
H6 C11 1_555 1_555
N5 Zn1 1_555 1_555
C12 N5 1_555 1_555
H7 C12 1_555 1_555
C13 C9 1_555 1_555
H8 C13 1_555 1_555
C14 C7 1_555 1_555
C15 C14 1_555 1_555
H9 C15 1_555 1_555
C16 C15 1_555 1_555
H10 C16 1_555 1_555
N6 Zn3 1_555 1_555
C17 N6 1_555 1_555
H11 C17 1_555 1_555
C18 C14 1_555 1_555
H12 C18 1_555 1_555
N7 Zn3 1_555 1_555
C19 N7 1_555 1_555
H13 C19 1_555 1_555
C20 C19 1_555 1_555
H14 C20 1_555 1_555
C21 C20 1_555 1_555
C22 C21 1_555 1_555
H15 C22 1_555 1_555
C23 N7 1_555 1_555
H16 C23 1_555 1_555
C24 C21 1_555 1_555
N8 C24 1_555 1_555
C25 N8 1_555 1_555
N9 C25 1_555 1_555
C26 N9 1_555 1_555
N10 C24 1_555 1_555
C27 C25 1_555 1_555
C28 C27 1_555 1_555
H17 C28 1_555 1_555
C29 C28 1_555 1_555
H18 C29 1_555 1_555
N11 Zn4 1_555 1_555
C30 N11 1_555 1_555
H19 C30 1_555 1_555
C31 C27 1_555 1_555
H20 C31 1_555 1_555
C32 C26 1_555 1_555
C33 C32 1_555 1_555
H21 C33 1_555 1_555
C34 C33 1_555 1_555
H22 C34 1_555 1_555
N12 C34 1_555 1_555
C35 N12 1_555 1_555
H23 C35 1_555 1_555
C36 C32 1_555 1_555
H24 C36 1_555 1_555
N13 Zn4 1_555 1_555
C37 N13 1_555 1_555
H25 C37 1_555 1_555
C38 C37 1_555 1_555
H26 C38 1_555 1_555
C39 C38 1_555 1_555
C40 C39 1_555 1_555
H27 C40 1_555 1_555
C41 N13 1_555 1_555
H28 C41 1_555 1_555
C42 C39 1_555 1_555
N14 C42 1_555 1_555
C43 N14 1_555 1_555
N15 C43 1_555 1_555
C44 N15 1_555 1_555
N16 C42 1_555 1_555
C45 C43 1_555 1_555
C46 C45 1_555 1_555
H29 C46 1_555 1_555
C47 C46 1_555 1_555
H30 C47 1_555 1_555
N17 C47 1_555 1_555
C48 N17 1_555 1_555
H31 C48 1_555 1_555
C49 C45 1_555 1_555
H32 C49 1_555 1_555
C50 C44 1_555 1_555
C51 C50 1_555 1_555
H33 C51 1_555 1_555
C52 C51 1_555 1_555
H34 C52 1_555 1_555
N18 Zn5 1_555 1_555
C53 N18 1_555 1_555
H35 C53 1_555 1_555
C54 C50 1_555 1_555
H36 C54 1_555 1_555
N19 Zn5 1_555 1_555
C55 N19 1_555 1_555
H37 C55 1_555 1_555
C56 C55 1_555 1_555
H38 C56 1_555 1_555
C57 C56 1_555 1_555
C58 C57 1_555 1_555
H39 C58 1_555 1_555
C59 N19 1_555 1_555
H40 C59 1_555 1_555
C60 C57 1_555 1_555
N20 C60 1_555 1_555
C61 N20 1_555 1_555
N21 C61 1_555 1_555
C62 N21 1_555 1_555
N22 C60 1_555 1_555
C63 C62 1_555 1_555
C64 C63 1_555 1_555
H41 C64 1_555 1_555
C65 C64 1_555 1_555
H42 C65 1_555 1_555
N23 Zn6 1_555 1_555
C66 N23 1_555 1_555
H43 C66 1_555 1_555
C67 C63 1_555 1_555
H44 C67 1_555 1_555
C68 C61 1_555 1_555
C69 C68 1_555 1_555
H45 C69 1_555 1_555
C70 C69 1_555 1_555
H46 C70 1_555 1_555
N24 C70 1_555 1_555
C71 N24 1_555 1_555
H47 C71 1_555 1_555
C72 C68 1_555 1_555
H48 C72 1_555 1_555
I10 Zn4 1_555 1_555
I11 Zn3 1_555 1_555
I12 Zn2 1_555 1_555
C73 H49 1_555 1_555
C74 C73 1_555 1_555
H50 C74 1_555 1_555
C75 C74 1_555 1_555
H51 C75 1_555 1_555
C76 C75 1_555 1_555
H52 C76 1_555 1_555
C77 C76 1_555 1_555
H53 C77 1_555 1_555
C78 C73 1_555 1_555
N25 C78 1_555 1_555
O1 N25 1_555 1_555
O2 N25 1_555 1_555
I13 I14 1_555 1_555
C79 H54 1_555 1_555
C80 C79 1_555 1_555
H55 C80 1_555 1_555
C81 C80 1_555 1_555
H56 C81 1_555 1_555
C82 C81 1_555 1_555
H57 C82 1_555 1_555
C83 C82 1_555 1_555
H58 C83 1_555 1_555
C84 C79 1_555 1_555
N26 C84 1_555 1_555
O3 N26 1_555 1_555
O4 N26 1_555 1_555
C85 H59 1_555 1_555
C86 C85 1_555 1_555
H60 C86 1_555 1_555
C87 C86 1_555 1_555
H61 C87 1_555 1_555
C88 C87 1_555 1_555
H62 C88 1_555 1_555
C89 C88 1_555 1_555
H63 C89 1_555 1_555
C90 C85 1_555 1_555
N27 C90 1_555 1_555
O5 N27 1_555 1_555
O6 N27 1_555 1_555
C91 H64 1_555 1_555
C92 C91 1_555 1_555
H65 C92 1_555 1_555
C93 C92 1_555 1_555
H66 C93 1_555 1_555
C94 C93 1_555 1_555
H67 C94 1_555 1_555
C95 C94 1_555 1_555
H68 C95 1_555 1_555
C96 C91 1_555 1_555
N28 C96 1_555 1_555
O7 N28 1_555 1_555
O8 N28 1_555 1_555
C97 H69 1_555 1_555
C98 C97 1_555 1_555
H70 C98 1_555 1_555
C99 C98 1_555 1_555
H71 C99 1_555 1_555
C100 C99 1_555 1_555
H72 C100 1_555 1_555
C101 C100 1_555 1_555
H73 C101 1_555 1_555
C102 C97 1_555 1_555
N29 C102 1_555 1_555
O9 N29 1_555 1_555
O10 N29 1_555 1_555
C103 H74 1_555 1_555
C104 C103 1_555 1_555
H75 C104 1_555 1_555
C105 C104 1_555 1_555
H76 C105 1_555 1_555
C106 C105 1_555 1_555
H77 C106 1_555 1_555
C107 C106 1_555 1_555
H78 C107 1_555 1_555
C108 C103 1_555 1_555
N30 C108 1_555 1_555
O11 N30 1_555 1_555
O12 N30 1_555 1_555
C109 H79 1_555 1_555
C110 C109 1_555 1_555
H80 C110 1_555 1_555
C111 C110 1_555 1_555
H81 C111 1_555 1_555
C112 C111 1_555 1_555
H82 C112 1_555 1_555
C113 C112 1_555 1_555
H83 C113 1_555 1_555
C114 C109 1_555 1_555
N31 C114 1_555 1_555
O13 N31 1_555 1_555
O14 N31 1_555 1_555
C115 H84 1_555 1_555
C116 C115 1_555 1_555
H85 C116 1_555 1_555
C117 C116 1_555 1_555
H86 C117 1_555 1_555
C118 C117 1_555 1_555
H87 C118 1_555 1_555
C119 C118 1_555 1_555
H88 C119 1_555 1_555
C120 C115 1_555 1_555
N32 C120 1_555 1_555
O15 N32 1_555 1_555
O16 N32 1_555 1_555
Zn1_2 N24 1_555 1_555
Zn2C N12 1_555 1_555
Zn6C N17 1_555 1_555
N12C Zn2 1_555 1_555
N17C Zn6 1_555 1_555
N24_2 Zn1 1_555 1_555
C4 C5 1_555 1_555
C8 N4 1_555 1_555
C11 N5 1_555 1_555
C12 C13 1_555 1_555
C16 N6 1_555 1_555
C17 C18 1_555 1_555
C22 C23 1_555 1_555
C26 N10 1_555 1_555
C29 N11 1_555 1_555
C30 C31 1_555 1_555
C35 C36 1_555 1_555
C40 C41 1_555 1_555
C44 N16 1_555 1_555
C48 C49 1_555 1_555
C52 N18 1_555 1_555
C53 C54 1_555 1_555
C58 C59 1_555 1_555
C62 N22 1_555 1_555
C65 N23 1_555 1_555
C66 C67 1_555 1_555
C71 C72 1_555 1_555
C77 C78 1_555 1_555
C83 C84 1_555 1_555
C89 C90 1_555 1_555
C95 C96 1_555 1_555
C101 C102 1_555 1_555
C107 C108 1_555 1_555
C113 C114 1_555 1_555
C119 C120 1_555 1_555

#END
