
#######################################################################
#
#                 Cambridge Crystallographic Data Centre
#                                CCDC 
#
#######################################################################
#
# If this CIF has been generated from an entry in the Cambridge 
# Structural Database, then it will include bibliographic, chemical, 
# crystal, experimental, refinement or atomic coordinate data resulting 
# from the CCDC's data processing and validation procedures.
#
#######################################################################

data_FAVDIS
_chemical_formula_moiety         '(C72 H48 I20 N24 Zn6)n'
_symmetry_cell_setting           monoclinic
_symmetry_space_group_name_H-M   'P 2/n'
_symmetry_Int_Tables_number      13
_space_group_name_Hall           '-P 2yac'
loop_
_symmetry_equiv_pos_site_id
_symmetry_equiv_pos_as_xyz
1 x,y,z
2 1/2-x,y,1/2-z
3 -x,-y,-z
4 1/2+x,-y,1/2+z
_cell_length_a                   30.839(4)
_cell_length_b                   14.9128(18)
_cell_length_c                   34.344(4)
_cell_angle_alpha                90
_cell_angle_beta                 99.929(7)
_cell_angle_gamma                90
_cell_volume                     15558.1
loop_
_atom_site_label
_atom_site_type_symbol
_atom_site_fract_x
_atom_site_fract_y
_atom_site_fract_z
Zn1 Zn 1.24031(17) 0.8832(3) 0.58481(15)
I1 I 1.31496(13) 0.9031(2) 0.63004(11)
I2 I 1.22117(14) 0.9810(2) 0.52407(10)
Zn2 Zn 0.90133(14) 1.3553(3) 0.66051(15)
I3 I 0.86686(10) 1.3910(2) 0.72088(10)
N1 N 1.0844(9) 0.8853(19) 0.7126(9)
N2 N 1.0617(10) 1.014(2) 0.6736(9)
N3 N 1.0216(9) 0.967(2) 0.7252(9)
N4 N 1.1895(11) 0.899(2) 0.6168(10)
N5 N 0.9473(10) 1.251(2) 0.6749(10)
N6 N 1.0450(10) 0.738(2) 0.8315(9)
C1 C 1.0868(13) 0.942(3) 0.6823(11)
C2 C 1.0288(13) 1.022(3) 0.6968(12)
C3 C 1.0523(11) 0.901(2) 0.7324(10)
C4 C 1.1229(14) 0.926(3) 0.6591(12)
C5 C 1.1463(13) 0.852(3) 0.6613(12)
H1 H 1.1391 0.8044 0.6775
C6 C 1.1801(14) 0.841(3) 0.6416(12)
H2 H 1.1977 0.7885 0.6462
C7 C 1.1650(14) 0.972(3) 0.6105(13)
H3 H 1.1698 1.0121 0.5902
C8 C 1.1311(14) 0.992(3) 0.6335(12)
H4 H 1.1156 1.0477 0.6310
C9 C 1.0009(13) 1.102(3) 0.6882(11)
C10 C 0.9991(13) 1.152(3) 0.6537(11)
H5 H 1.0172 1.1361 0.6350
C11 C 0.9724(14) 1.222(3) 0.6468(13)
H6 H 0.9702 1.2537 0.6224
C12 C 0.9469(13) 1.205(3) 0.7081(12)
H7 H 0.9299 1.2239 0.7272
C13 C 0.9733(13) 1.126(3) 0.7137(12)
H8 H 0.9717 1.0888 0.7359
C14 C 1.0486(13) 0.843(3) 0.7679(11)
C15 C 1.0076(13) 0.824(3) 0.7788(11)
H9 H 0.9811 0.8466 0.7637
C16 C 1.0069(13) 0.772(2) 0.8122(10)
H10 H 0.9800 0.7612 0.8213
C17 C 1.0811(14) 0.757(3) 0.8211(12)
H11 H 1.1072 0.7361 0.8375
C18 C 1.0859(14) 0.805(3) 0.7874(12)
H12 H 1.1134 0.8110 0.7788
N7 N 0.7373(10) 1.064(2) 0.5663(9)
N8 N 0.7150(10) 1.195(2) 0.5304(9)
N9 N 0.6727(10) 1.056(2) 0.5151(9)
N10 N 0.8529(10) 1.291(2) 0.6230(9)
N11 N 0.5881(11) 1.275(2) 0.4247(9)
N12 N 0.7140(12) 0.737(2) 0.5618(11)
C19 C 0.7436(13) 1.151(3) 0.5603(11)
C20 C 0.6821(12) 1.146(3) 0.5127(11)
C21 C 0.7048(14) 1.022(3) 0.5448(12)
C22 C 0.7813(13) 1.200(3) 0.5835(12)
C23 C 0.8046(13) 1.165(3) 0.6158(12)
H13 H 0.7976 1.1065 0.6235
C24 C 0.8388(14) 1.211(3) 0.6389(13)
H14 H 0.8521 1.1893 0.6642
C25 C 0.8274(13) 1.321(3) 0.5897(11)
H15 H 0.8346 1.3766 0.5791
C26 C 0.7940(13) 1.278(3) 0.5716(12)
H16 H 0.7776 1.3038 0.5484
C27 C 0.6506(14) 1.191(3) 0.4815(12)
C28 C 0.6547(13) 1.279(3) 0.4712(11)
H17 H 0.6786 1.3128 0.4848
C29 C 0.6244(13) 1.320(3) 0.4409(12)
H18 H 0.6296 1.3787 0.4322
C30 C 0.5814(14) 1.190(3) 0.4327(12)
H19 H 0.5564 1.1599 0.4188
C31 C 0.6117(13) 1.143(3) 0.4626(12)
H20 H 0.6064 1.0824 0.4695
C32 C 0.7058(15) 0.922(3) 0.5505(13)
C33 C 0.6732(15) 0.867(3) 0.5316(13)
H21 H 0.6472 0.8886 0.5152
C34 C 0.6825(15) 0.777(3) 0.5389(13)
H22 H 0.6616 0.7370 0.5244
C35 C 0.7389(15) 0.791(3) 0.5806(13)
H23 H 0.7610 0.7659 0.6002
C36 C 0.7401(15) 0.879(3) 0.5781(13)
H24 H 0.7626 0.9131 0.5939
I4 I 0.93363(13) 1.4780(2) 0.62302(13)
Zn3 Zn 1.40916(18) 0.1167(3) 0.67295(17)
I5 I 1.45063(15) -0.0024(2) 0.64109(12)
I6 I 1.37005(13) 0.0842(3) 0.73023(12)
N13 N 1.5857(9) 0.5942(19) 0.7190(9)
N14 N 1.5628(10) 0.465(2) 0.6841(9)
N15 N 1.5290(10) 0.505(2) 0.7384(9)
N16 N 1.6753(13) 0.583(3) 0.6085(12)
N17 N 1.4561(11) 0.218(2) 0.6886(10)
N18 N 1.5599(12) 0.750(2) 0.8400(10)
C37 C 1.5875(13) 0.533(3) 0.6897(11)
C38 C 1.5320(13) 0.455(3) 0.7081(12)
C39 C 1.5601(12) 0.576(3) 0.7424(11)
C40 C 1.6196(14) 0.555(3) 0.6611(13)
C41 C 1.6487(15) 0.625(3) 0.6647(13)
H25 H 1.6495 0.6672 0.6854
C42 C 1.6757(16) 0.632(3) 0.6390(14)
H26 H 1.6975 0.6775 0.6437
C43 C 1.6386(16) 0.521(3) 0.6005(15)
H27 H 1.6311 0.4952 0.5750
C44 C 1.6146(15) 0.500(3) 0.6295(13)
H28 H 1.5956 0.4492 0.6273
C45 C 1.5054(13) 0.370(3) 0.7028(11)
C46 C 1.5068(15) 0.316(3) 0.6683(13)
H29 H 1.5244 0.3316 0.6492
C47 C 1.4806(15) 0.240(3) 0.6650(13)
H30 H 1.4815 0.2018 0.6431
C48 C 1.4505(13) 0.269(3) 0.7205(11)
H31 H 1.4303 0.2519 0.7372
C49 C 1.4769(13) 0.348(3) 0.7276(12)
H32 H 1.4745 0.3862 0.7494
C50 C 1.5564(13) 0.637(3) 0.7751(11)
C51 C 1.5179(13) 0.647(3) 0.7937(11)
H33 H 1.4921 0.6124 0.7853
C52 C 1.5205(14) 0.708(3) 0.8240(11)
H34 H 1.4946 0.7215 0.8344
C53 C 1.5939(15) 0.733(3) 0.8243(13)
H35 H 1.6209 0.7583 0.8371
C54 C 1.5954(15) 0.682(3) 0.7907(13)
H36 H 1.6212 0.6784 0.7790
N19 N 1.2611(10) 0.422(2) 0.5735(9)
N20 N 1.2359(10) 0.295(2) 0.5351(8)
N21 N 1.1991(10) 0.435(2) 0.5227(9)
N22 N 1.3669(11) 0.184(2) 0.6306(10)
N23 N 1.1096(10) 0.220(2) 0.4281(9)
N24 N 1.2364(10) 0.748(2) 0.5720(9)
C55 C 1.2603(12) 0.338(2) 0.5622(11)
C56 C 1.2025(13) 0.348(3) 0.5146(11)
C57 C 1.2290(13) 0.466(3) 0.5498(11)
C58 C 1.2993(12) 0.283(2) 0.5856(11)
C59 C 1.3228(14) 0.318(3) 0.6152(12)
H37 H 1.3158 0.3775 0.6221
C60 C 1.3601(14) 0.274(3) 0.6396(13)
H38 H 1.3787 0.3041 0.6603
C61 C 1.3372(13) 0.154(3) 0.6004(11)
H39 H 1.3407 0.0931 0.5940
C62 C 1.3051(12) 0.193(2) 0.5787(11)
H40 H 1.2860 0.1616 0.5587
C63 C 1.1699(12) 0.302(2) 0.4862(10)
C64 C 1.1739(13) 0.209(3) 0.4744(11)
H41 H 1.1989 0.1750 0.4857
C65 C 1.1435(13) 0.174(3) 0.4484(11)
H42 H 1.1452 0.1111 0.4433
C66 C 1.1040(14) 0.305(3) 0.4377(12)
H43 H 1.0781 0.3354 0.4258
C67 C 1.1336(13) 0.348(3) 0.4636(12)
H44 H 1.1306 0.4111 0.4670
C68 C 1.2312(12) 0.568(2) 0.5568(10)
C69 C 1.1992(13) 0.627(3) 0.5350(11)
H45 H 1.1752 0.6050 0.5163
C70 C 1.2048(13) 0.718(3) 0.5424(11)
H46 H 1.1863 0.7604 0.5266
C71 C 1.2627(13) 0.689(3) 0.5952(12)
H47 H 1.2833 0.7098 0.6171
C72 C 1.2591(13) 0.604(3) 0.5870(11)
H48 H 1.2778 0.5635 0.6037
Zn4 Zn 0.5392(4) 1.3317(8) 0.3842(5)
Zn5 Zn 0.7266(4) 0.6047(7) 0.5801(4)
I7 I 0.5668(5) 1.4903(4) 0.3738(4)
I8 I 0.4653(3) 1.3121(7) 0.4052(2)
I9 I 0.7007(3) 0.5131(5) 0.5191(3)
I10 I 0.8030(2) 0.5848(5) 0.6222(3)
I11 I 1.49421(17) 0.8684(3) 0.90943(12)
Zn6 Zn 1.5655(2) 0.8422(4) 0.88415(18)
I12 I 1.60644(19) 0.9755(2) 0.85930(12)
N6C N 0.5450(10) 1.262(2) 0.3315(9)
N16_2 N 0.6753(13) 0.583(3) 0.6085(12)
N23C N 1.6096(10) 0.780(2) 0.9281(9)
Zn4C Zn 1.0392(4) 0.6683(8) 0.8842(5)
Zn5_2 Zn 1.7266(4) 0.6047(7) 0.5801(4)
Zn6C Zn 1.0655(2) 0.1578(4) 0.38415(18)
I13 I 0.59029(17) 1.1848(6) 1.00790(19)
I14 I 0.59841(12) 1.0913(3) 0.94159(11)
I15 I 0.7709(7) 0.6166(19) 0.7207(7)
I15A I 0.7291(7) 0.6166(19) 0.7793(7)
I16 I 0.27251(18) 0.8761(4) 0.7185(2)
I16A I 0.22749(18) 0.8761(4) 0.7815(2)
I17 I 0.5460(2) -0.1001(4) 0.44304(18)
I18 I 0.5376(2) -0.1928(5) 0.50968(19)
loop_
_geom_bond_atom_site_label_1
_geom_bond_atom_site_label_2
_geom_bond_site_symmetry_1
_geom_bond_site_symmetry_2
Zn1 I1 1_555 1_555
I2 Zn1 1_555 1_555
Zn2 I3 1_555 1_555
N1 C1 1_555 1_555
N2 C1 1_555 1_555
N3 C2 1_555 1_555
N4 Zn1 1_555 1_555
N5 Zn2 1_555 1_555
N6 C16 1_555 1_555
C1 C4 1_555 1_555
C2 N2 1_555 1_555
C3 N1 1_555 1_555
C4 C5 1_555 1_555
C5 H1 1_555 1_555
C6 N4 1_555 1_555
H2 C6 1_555 1_555
C7 N4 1_555 1_555
H3 C7 1_555 1_555
C8 C4 1_555 1_555
H4 C8 1_555 1_555
C9 C2 1_555 1_555
C10 C9 1_555 1_555
H5 C10 1_555 1_555
C11 N5 1_555 1_555
H6 C11 1_555 1_555
C12 N5 1_555 1_555
H7 C12 1_555 1_555
C13 C9 1_555 1_555
H8 C13 1_555 1_555
C14 C3 1_555 1_555
C15 C14 1_555 1_555
H9 C15 1_555 1_555
C16 C15 1_555 1_555
H10 C16 1_555 1_555
C17 N6 1_555 1_555
H11 C17 1_555 1_555
C18 C14 1_555 1_555
H12 C18 1_555 1_555
N7 C19 1_555 1_555
N8 C19 1_555 1_555
N9 C20 1_555 1_555
N10 Zn2 1_555 1_555
N11 C29 1_555 1_555
N12 C34 1_555 1_555
C19 C22 1_555 1_555
C20 N8 1_555 1_555
C21 N7 1_555 1_555
C22 C23 1_555 1_555
C23 H13 1_555 1_555
C24 N10 1_555 1_555
H14 C24 1_555 1_555
C25 N10 1_555 1_555
H15 C25 1_555 1_555
C26 C22 1_555 1_555
H16 C26 1_555 1_555
C27 C20 1_555 1_555
C28 C27 1_555 1_555
H17 C28 1_555 1_555
C29 C28 1_555 1_555
H18 C29 1_555 1_555
C30 N11 1_555 1_555
H19 C30 1_555 1_555
C31 C27 1_555 1_555
H20 C31 1_555 1_555
C32 C21 1_555 1_555
C33 C32 1_555 1_555
H21 C33 1_555 1_555
C34 C33 1_555 1_555
H22 C34 1_555 1_555
C35 N12 1_555 1_555
H23 C35 1_555 1_555
C36 C32 1_555 1_555
H24 C36 1_555 1_555
I4 Zn2 1_555 1_555
Zn3 I5 1_555 1_555
I6 Zn3 1_555 1_555
N13 C37 1_555 1_555
N14 C37 1_555 1_555
N15 C38 1_555 1_555
N16 C42 1_555 1_555
N17 Zn3 1_555 1_555
N18 C52 1_555 1_555
C37 C40 1_555 1_555
C38 N14 1_555 1_555
C39 N13 1_555 1_555
C40 C41 1_555 1_555
C41 H25 1_555 1_555
C42 C41 1_555 1_555
H26 C42 1_555 1_555
C43 N16 1_555 1_555
H27 C43 1_555 1_555
C44 C40 1_555 1_555
H28 C44 1_555 1_555
C45 C38 1_555 1_555
C46 C45 1_555 1_555
H29 C46 1_555 1_555
C47 N17 1_555 1_555
H30 C47 1_555 1_555
C48 N17 1_555 1_555
H31 C48 1_555 1_555
C49 C45 1_555 1_555
H32 C49 1_555 1_555
C50 C39 1_555 1_555
C51 C50 1_555 1_555
H33 C51 1_555 1_555
C52 C51 1_555 1_555
H34 C52 1_555 1_555
C53 N18 1_555 1_555
H35 C53 1_555 1_555
C54 C50 1_555 1_555
H36 C54 1_555 1_555
N19 C55 1_555 1_555
N20 C55 1_555 1_555
N21 C56 1_555 1_555
N22 Zn3 1_555 1_555
N23 C65 1_555 1_555
N24 Zn1 1_555 1_555
C55 C58 1_555 1_555
C56 N20 1_555 1_555
C57 N19 1_555 1_555
C58 C59 1_555 1_555
C59 H37 1_555 1_555
C60 N22 1_555 1_555
H38 C60 1_555 1_555
C61 N22 1_555 1_555
H39 C61 1_555 1_555
C62 C58 1_555 1_555
H40 C62 1_555 1_555
C63 C56 1_555 1_555
C64 C63 1_555 1_555
H41 C64 1_555 1_555
C65 C64 1_555 1_555
H42 C65 1_555 1_555
C66 N23 1_555 1_555
H43 C66 1_555 1_555
C67 C63 1_555 1_555
H44 C67 1_555 1_555
C68 C57 1_555 1_555
C69 C68 1_555 1_555
H45 C69 1_555 1_555
C70 N24 1_555 1_555
H46 C70 1_555 1_555
C71 N24 1_555 1_555
H47 C71 1_555 1_555
C72 C68 1_555 1_555
H48 C72 1_555 1_555
Zn4 N11 1_555 1_555
Zn5 N12 1_555 1_555
I7 Zn4 1_555 1_555
I8 Zn4 1_555 1_555
I9 Zn5 1_555 1_555
I10 Zn5 1_555 1_555
I11 Zn6 1_555 1_555
Zn6 N18 1_555 1_555
I12 Zn6 1_555 1_555
I13 I14 1_555 1_555
I15 I15A 1_555 1_555
I16 I16A 1_555 1_555
I17 I18 1_555 1_555
N6C Zn4 1_555 1_555
N16_2 Zn5 1_555 1_555
N23C Zn6 1_555 1_555
Zn4C N6 1_555 1_555
Zn5_2 N16 1_555 1_555
Zn6C N23 1_555 1_555
N3 C3 1_555 1_555
C5 C6 1_555 1_555
C7 C8 1_555 1_555
C10 C11 1_555 1_555
C12 C13 1_555 1_555
C17 C18 1_555 1_555
N9 C21 1_555 1_555
C23 C24 1_555 1_555
C25 C26 1_555 1_555
C30 C31 1_555 1_555
C35 C36 1_555 1_555
N15 C39 1_555 1_555
C43 C44 1_555 1_555
C46 C47 1_555 1_555
C48 C49 1_555 1_555
C53 C54 1_555 1_555
N21 C57 1_555 1_555
C59 C60 1_555 1_555
C61 C62 1_555 1_555
C66 C67 1_555 1_555
C69 C70 1_555 1_555
C71 C72 1_555 1_555

#END
