
#######################################################################
#
#                 Cambridge Crystallographic Data Centre
#                                CCDC 
#
#######################################################################
#
# If this CIF has been generated from an entry in the Cambridge 
# Structural Database, then it will include bibliographic, chemical, 
# crystal, experimental, refinement or atomic coordinate data resulting 
# from the CCDC's data processing and validation procedures.
#
#######################################################################

data_NORJEL
_chemical_formula_moiety         '(C152 H114 Cd4 N10 O28)n'
_symmetry_cell_setting           triclinic
_symmetry_space_group_name_H-M   'P -1'
_symmetry_Int_Tables_number      2
_space_group_name_Hall           '-P 1'
loop_
_symmetry_equiv_pos_site_id
_symmetry_equiv_pos_as_xyz
1 x,y,z
2 -x,-y,-z
_cell_length_a                   14.605(3)
_cell_length_b                   14.931(4)
_cell_length_c                   16.946(4)
_cell_angle_alpha                112.160(3)
_cell_angle_beta                 103.198(4)
_cell_angle_gamma                100.390(4)
_cell_volume                     3183.18
loop_
_atom_site_label
_atom_site_type_symbol
_atom_site_fract_x
_atom_site_fract_y
_atom_site_fract_z
Cd1 Cd 0.639761(13) 0.558778(11) 0.405369(11)
Cd2 Cd 0.072681(14) 0.126228(12) 0.134008(11)
O1 O 0.7042(2) 0.44936(15) 0.28898(14)
O2 O 0.58240(17) 0.50577(15) 0.24774(14)
O3 O 0.18515(16) 0.12673(14) 0.05724(13)
O4 O 0.08885(16) -0.02421(15) -0.04639(14)
O5 O 0.47834(16) 0.43369(14) 0.08149(14)
H1 H 0.5093 0.4739 0.1492
O6 O 0.30524(15) 0.24065(13) 0.02008(12)
H2 H 0.2760 0.2236 0.0505
O7 O 0.72973(14) 0.48938(13) 0.48819(12)
O8 O 0.67423(14) 0.59889(12) 0.57952(12)
O9 O 0.78162(17) -0.05563(14) 0.71449(15)
O10 O 0.92697(16) -0.00651(14) 0.82084(14)
O11 O 0.77678(18) 0.34725(15) 0.52154(13)
H3 H 0.7682 0.3824 0.4948
O12 O 0.74057(17) 0.06069(15) 0.64251(15)
H4 H 0.7333 0.0113 0.6534
O13 O 0.51600(15) 0.43414(12) 0.39466(14)
H5 H 0.5169 0.3802 0.3645
H6 H 0.4644 0.4318 0.4007
O14 O 0.23547(15) 0.22351(13) 0.25147(13)
H7 H 0.2460 0.1777 0.2670
H8 H 0.2588 0.2768 0.3022
N1 N 0.55016(16) 0.68003(14) 0.43281(16)
N2 N 0.76490(16) 0.69954(14) 0.43549(15)
N3 N 0.01494(18) 0.23155(16) 0.25103(15)
N4 N 0.03279(17) 0.23290(15) 0.07286(16)
C1 C 0.6363(3) 0.4474(2) 0.2285(2)
C2 C 0.6116(2) 0.37324(18) 0.13181(18)
C3 C 0.5284(2) 0.36430(18) 0.06320(18)
C4 C 0.4966(2) 0.28668(17) -0.02395(17)
C5 C 0.5560(2) 0.22098(18) -0.04581(17)
C6 C 0.5355(2) 0.14461(19) -0.13518(18)
H9 H 0.4797 0.1348 -0.1806
C7 C 0.5964(2) 0.0858(2) -0.1551(2)
H10 H 0.5819 0.0377 -0.2140
C8 C 0.6798(2) 0.0964(2) -0.0886(2)
H11 H 0.7203 0.0556 -0.1031
C9 C 0.7015(2) 0.1672(2) -0.0021(2)
H12 H 0.7563 0.1731 0.0424
C10 C 0.6420(2) 0.23195(19) 0.02107(19)
C11 C 0.6659(2) 0.3074(2) 0.11003(19)
H13 H 0.7198 0.3125 0.1548
C12 C 0.4014(2) 0.27577(19) -0.09231(18)
H14 H 0.3781 0.3332 -0.0654
H15 H 0.4166 0.2790 -0.1442
C13 C 0.31860(19) 0.17937(18) -0.12491(16)
C14 C 0.27509(19) 0.16450(17) -0.06428(16)
C15 C 0.20104(18) 0.07304(17) -0.08818(16)
C16 C 0.1699(2) -0.0010(2) -0.17508(18)
H16 H 0.1229 -0.0613 -0.1909
C17 C 0.2069(2) 0.0117(2) -0.24071(18)
C18 C 0.1730(3) -0.0649(3) -0.3307(2)
H17 H 0.1256 -0.1248 -0.3459
C19 C 0.2074(3) -0.0534(3) -0.3943(2)
H18 H 0.1847 -0.1054 -0.4525
C20 C 0.2773(3) 0.0367(3) -0.3733(2)
H19 H 0.3002 0.0446 -0.4179
C21 C 0.3125(2) 0.1134(3) -0.2876(2)
H20 H 0.3577 0.1734 -0.2754
C22 C 0.2810(2) 0.1032(2) -0.21661(17)
C23 C 0.1539(2) 0.05615(19) -0.02236(18)
C24 C 0.70796(19) 0.52423(17) 0.55994(17)
C25 C 0.71942(18) 0.47215(16) 0.62045(16)
C26 C 0.7510(2) 0.38310(17) 0.59722(16)
C27 C 0.7556(2) 0.33109(17) 0.64992(16)
C28 C 0.72589(19) 0.36573(17) 0.72771(16)
C29 C 0.7209(2) 0.3130(2) 0.78221(19)
H21 H 0.7364 0.2523 0.7663
C30 C 0.6936(2) 0.3504(2) 0.8577(2)
H22 H 0.6912 0.3148 0.8922
C31 C 0.6691(2) 0.4416(2) 0.8836(2)
H23 H 0.6519 0.4668 0.9356
C32 C 0.6706(2) 0.4929(2) 0.83184(18)
H24 H 0.6536 0.5528 0.8486
C33 C 0.69764(18) 0.45636(17) 0.75332(16)
C34 C 0.69510(18) 0.50741(16) 0.69769(16)
H25 H 0.6764 0.5664 0.7140
C35 C 0.7877(3) 0.2354(2) 0.61824(19)
H26 H 0.7288 0.1779 0.5892
H27 H 0.8169 0.2354 0.5722
C36 C 0.8597(2) 0.21637(19) 0.68665(18)
C37 C 0.8321(2) 0.12584(19) 0.69336(19)
C38 C 0.8981(2) 0.10072(18) 0.75215(17)
C39 C 0.9902(2) 0.16662(19) 0.80199(19)
H28 H 1.0335 0.1494 0.8394
C40 C 1.0221(2) 0.2604(2) 0.7987(2)
C41 C 1.1174(3) 0.3284(2) 0.8516(2)
H29 H 1.1603 0.3114 0.8895
C42 C 1.1473(3) 0.4188(2) 0.8480(3)
H30 H 1.2099 0.4632 0.8831
C43 C 1.0819(3) 0.4432(2) 0.7902(3)
H31 H 1.1020 0.5042 0.7872
C44 C 0.9901(3) 0.3800(2) 0.7389(2)
H32 H 0.9490 0.3990 0.7015
C45 C 0.9547(2) 0.28521(19) 0.7402(2)
C46 C 0.8663(2) 0.00528(18) 0.76297(18)
C47 C 0.5296(2) 0.71795(19) 0.3733(2)
H33 H 0.5282 0.6810 0.3147
C48 C 0.5103(2) 0.8109(2) 0.3959(2)
H34 H 0.4963 0.8349 0.3526
C49 C 0.5117(2) 0.8677(2) 0.4828(2)
C50 C 0.5291(3) 0.8261(2) 0.5421(3)
H35 H 0.5284 0.8600 0.6006
C51 C 0.5474(3) 0.7340(2) 0.5146(2)
H36 H 0.5588 0.7074 0.5563
C52 C 0.4996(3) 0.9709(2) 0.5158(3)
H37 H 0.4894 0.9937 0.5714
C53 C 0.8138(3) 0.6941(2) 0.3774(2)
H38 H 0.8002 0.6320 0.3286
C54 C 0.8837(3) 0.7758(2) 0.3858(2)
H39 H 0.9142 0.7680 0.3422
C55 C 0.9085(2) 0.86850(19) 0.4583(2)
C56 C 0.8581(2) 0.87460(19) 0.51973(19)
H40 H 0.8718 0.9355 0.5700
C57 C 0.7879(2) 0.79017(18) 0.50574(18)
H41 H 0.7546 0.7963 0.5473
C58 C 0.9832(3) 0.9541(2) 0.4667(2)
H42 H 1.0098 0.9426 0.4201
C59 C 0.0936(3) 0.3267(2) 0.1119(3)
H43 H 0.1512 0.3425 0.1580
C60 C 0.0754(3) 0.4014(2) 0.0873(3)
H44 H 0.1196 0.4662 0.1174
C61 C -0.0086(2) 0.37973(18) 0.01798(19)
C62 C -0.0715(2) 0.28230(18) -0.02187(18)
H45 H -0.1298 0.2645 -0.0681
C63 C -0.0486(2) 0.21138(18) 0.00627(18)
H46 H -0.0917 0.1460 -0.0224
C64 C -0.0295(2) 0.45446(18) -0.01386(19)
H47 H -0.0899 0.4359 -0.0577
C65 C 0.0659(2) 0.2629(2) 0.33669(19)
H48 H 0.1137 0.2326 0.3503
C66 C 0.0520(2) 0.3383(2) 0.40713(19)
H49 H 0.0898 0.3573 0.4663
C67 C -0.0183(2) 0.38516(19) 0.38925(18)
C68 C -0.0765(3) 0.3475(2) 0.3008(2)
H50 H -0.1287 0.3721 0.2858
C69 C -0.0566(3) 0.2726(2) 0.2344(2)
H51 H -0.0954 0.2497 0.1749
C70 C -0.0323(2) 0.4719(2) 0.45950(18)
H52 H -0.0908 0.4878 0.4456
N1A N 0.44984(16) 1.31997(14) 0.56719(16)
C47A C 0.4704(2) 1.28205(19) 0.6267(2)
H33A H 0.4718 1.3190 0.6853
C48A C 0.4897(2) 1.1891(2) 0.6041(2)
H34A H 0.5037 1.1651 0.6474
C49A C 0.4883(2) 1.1323(2) 0.5172(2)
C50A C 0.4709(3) 1.1739(2) 0.4579(3)
H35A H 0.4716 1.1400 0.3994
C51A C 0.4526(3) 1.2660(2) 0.4854(2)
H36A H 0.4412 1.2926 0.4437
C52A C 0.5004(3) 1.0291(2) 0.4842(3)
H37A H 0.5106 1.0063 0.4286
N2A N 1.23510(16) 1.30046(14) 0.56451(15)
C53A C 1.1862(3) 1.3059(2) 0.6226(2)
H38A H 1.1998 1.3680 0.6714
C54A C 1.1163(3) 1.2242(2) 0.6142(2)
H39A H 1.0858 1.2320 0.6578
C55A C 1.0915(2) 1.13150(19) 0.5417(2)
C56A C 1.1419(2) 1.12540(19) 0.48027(19)
H40A H 1.1282 1.0645 0.4300
C57A C 1.2121(2) 1.20983(18) 0.49426(18)
H41A H 1.2454 1.2037 0.4527
C58A C 1.0168(3) 1.0459(2) 0.5333(2)
H42A H 0.9902 1.0574 0.5799
N3A N -0.01494(18) 0.76845(16) 0.74897(15)
C65A C -0.0659(2) 0.7371(2) 0.66331(19)
H48A H -0.1137 0.7674 0.6497
C66A C -0.0520(2) 0.6617(2) 0.59287(19)
H49A H -0.0898 0.6427 0.5337
C67A C 0.0183(2) 0.61484(19) 0.61075(18)
C68A C 0.0765(3) 0.6525(2) 0.6992(2)
H50A H 0.1287 0.6279 0.7142
C69A C 0.0566(3) 0.7274(2) 0.7656(2)
H51A H 0.0954 0.7503 0.8251
C70A C 0.0323(2) 0.5281(2) 0.54050(18)
H52A H 0.0908 0.5122 0.5544
N4A N -0.03279(17) 0.76710(15) -0.07286(16)
C59A C -0.0936(3) 0.6733(2) -0.1119(3)
H43A H -0.1512 0.6575 -0.1580
C60A C -0.0754(3) 0.5986(2) -0.0873(3)
H44A H -0.1196 0.5338 -0.1174
C61A C 0.0086(2) 0.62027(18) -0.01798(19)
C62A C 0.0715(2) 0.71770(18) 0.02187(18)
H45A H 0.1298 0.7355 0.0681
C63A C 0.0486(2) 0.78862(18) -0.00627(18)
H46A H 0.0917 0.8540 0.0224
C64A C 0.0295(2) 0.54554(18) 0.01386(19)
H47A H 0.0899 0.5641 0.0577
Cd1A Cd -0.639761(13) -0.558778(11) -0.405369(11)
Cd2A Cd -0.072681(14) -0.126228(12) -0.134008(11)
O1A O -0.7042(2) -0.44936(15) -0.28898(14)
O2A O -0.58240(17) -0.50577(15) -0.24774(14)
O3A O -0.18515(16) -0.12673(14) -0.05724(13)
O4A O -0.08885(16) 0.02421(15) 0.04639(14)
O5A O -0.47834(16) -0.43369(14) -0.08149(14)
H1A H -0.5093 -0.4739 -0.1492
O6A O -0.30524(15) -0.24065(13) -0.02008(12)
H2A H -0.2760 -0.2236 -0.0505
O7A O -0.72973(14) -0.48938(13) -0.48819(12)
O8A O -0.67423(14) -0.59889(12) -0.57952(12)
O9A O -0.78162(17) 0.05563(14) -0.71449(15)
O10A O -0.92697(16) 0.00651(14) -0.82084(14)
O11A O -0.77678(18) -0.34725(15) -0.52154(13)
H3A H -0.7682 -0.3824 -0.4948
O12A O -0.74057(17) -0.06069(15) -0.64251(15)
H4A H -0.7333 -0.0113 -0.6534
O13A O -0.51600(15) -0.43414(12) -0.39466(14)
H5A H -0.5169 -0.3802 -0.3645
H6A H -0.4644 -0.4318 -0.4007
O14A O -0.23547(15) -0.22351(13) -0.25147(13)
H7A H -0.2460 -0.1777 -0.2670
H8A H -0.2588 -0.2768 -0.3022
C1A C -0.6363(3) -0.4474(2) -0.2285(2)
C2A C -0.6116(2) -0.37324(18) -0.13181(18)
C3A C -0.5284(2) -0.36430(18) -0.06320(18)
C4A C -0.4966(2) -0.28668(17) 0.02395(17)
C5A C -0.5560(2) -0.22098(18) 0.04581(17)
C6A C -0.5355(2) -0.14461(19) 0.13518(18)
H9A H -0.4797 -0.1348 0.1806
C7A C -0.5964(2) -0.0858(2) 0.1551(2)
H10A H -0.5819 -0.0377 0.2140
C8A C -0.6798(2) -0.0964(2) 0.0886(2)
H11A H -0.7203 -0.0556 0.1031
C9A C -0.7015(2) -0.1672(2) 0.0021(2)
H12A H -0.7563 -0.1731 -0.0424
C10A C -0.6420(2) -0.23195(19) -0.02107(19)
C11A C -0.6659(2) -0.3074(2) -0.11003(19)
H13A H -0.7198 -0.3125 -0.1548
C12A C -0.4014(2) -0.27577(19) 0.09231(18)
H14A H -0.3781 -0.3332 0.0654
H15A H -0.4166 -0.2790 0.1442
C13A C -0.31860(19) -0.17937(18) 0.12491(16)
C14A C -0.27509(19) -0.16450(17) 0.06428(16)
C15A C -0.20104(18) -0.07304(17) 0.08818(16)
C16A C -0.1699(2) 0.0010(2) 0.17508(18)
H16A H -0.1229 0.0613 0.1909
C17A C -0.2069(2) -0.0117(2) 0.24071(18)
C18A C -0.1730(3) 0.0649(3) 0.3307(2)
H17A H -0.1256 0.1248 0.3459
C19A C -0.2074(3) 0.0534(3) 0.3943(2)
H18A H -0.1847 0.1054 0.4525
C20A C -0.2773(3) -0.0367(3) 0.3733(2)
H19A H -0.3002 -0.0446 0.4179
C21A C -0.3125(2) -0.1134(3) 0.2876(2)
H20A H -0.3577 -0.1734 0.2754
C22A C -0.2810(2) -0.1032(2) 0.21661(17)
C23A C -0.1539(2) -0.05615(19) 0.02236(18)
C24A C -0.70796(19) -0.52423(17) -0.55994(17)
C25A C -0.71942(18) -0.47215(16) -0.62045(16)
C26A C -0.7510(2) -0.38310(17) -0.59722(16)
C27A C -0.7556(2) -0.33109(17) -0.64992(16)
C28A C -0.72589(19) -0.36573(17) -0.72771(16)
C29A C -0.7209(2) -0.3130(2) -0.78221(19)
H21A H -0.7364 -0.2523 -0.7663
C30A C -0.6936(2) -0.3504(2) -0.8577(2)
H22A H -0.6912 -0.3148 -0.8922
C31A C -0.6691(2) -0.4416(2) -0.8836(2)
H23A H -0.6519 -0.4668 -0.9356
C32A C -0.6706(2) -0.4929(2) -0.83184(18)
H24A H -0.6536 -0.5528 -0.8486
C33A C -0.69764(18) -0.45636(17) -0.75332(16)
C34A C -0.69510(18) -0.50741(16) -0.69769(16)
H25A H -0.6764 -0.5664 -0.7140
C35A C -0.7877(3) -0.2354(2) -0.61824(19)
H26A H -0.7288 -0.1779 -0.5892
H27A H -0.8169 -0.2354 -0.5722
C36A C -0.8597(2) -0.21637(19) -0.68665(18)
C37A C -0.8321(2) -0.12584(19) -0.69336(19)
C38A C -0.8981(2) -0.10072(18) -0.75215(17)
C39A C -0.9902(2) -0.16662(19) -0.80199(19)
H28A H -1.0335 -0.1494 -0.8394
C40A C -1.0221(2) -0.2604(2) -0.7987(2)
C41A C -1.1174(3) -0.3284(2) -0.8516(2)
H29A H -1.1603 -0.3114 -0.8895
C42A C -1.1473(3) -0.4188(2) -0.8480(3)
H30A H -1.2099 -0.4632 -0.8831
C43A C -1.0819(3) -0.4432(2) -0.7902(3)
H31A H -1.1020 -0.5042 -0.7872
C44A C -0.9901(3) -0.3800(2) -0.7389(2)
H32A H -0.9490 -0.3990 -0.7015
C45A C -0.9547(2) -0.28521(19) -0.7402(2)
C46A C -0.8663(2) -0.00528(18) -0.76297(18)
Cd1A_2 Cd 0.360239(13) 1.441222(11) 0.594631(11)
Cd1A_3 Cd 1.360239(13) 1.441222(11) 0.594631(11)
Cd2_2 Cd -0.927319(14) 0.126228(12) -0.865992(11)
Cd2A_2 Cd -0.072681(14) 0.873772(12) -0.134008(11)
Cd2A_3 Cd -0.072681(14) 0.873772(12) 0.865992(11)
Cd2A_4 Cd 0.927319(14) -0.126228(12) 0.865992(11)
O10_2 O -0.07303(16) -0.00651(14) -0.17916(14)
O10A_2 O 0.07303(16) 0.00651(14) 0.17916(14)
N1A_2 N -0.55016(16) -0.68003(14) -0.43281(16)
N2A_2 N -0.76490(16) -0.69954(14) -0.43549(15)
N3A_2 N -0.01494(18) -0.23155(16) -0.25103(15)
N4A_2 N -0.03279(17) -0.23290(15) -0.07286(16)
N5 N 0.5226(2) 0.25354(18) 0.27900(18)
C71 C 0.5963(3) 0.2108(2) 0.2803(2)
H53 H 0.6467 0.2338 0.3345
C72 C 0.6002(3) 0.1344(2) 0.2048(2)
H54 H 0.6518 0.1061 0.2094
C73 C 0.5280(2) 0.09922(19) 0.1222(2)
C74 C 0.4528(3) 0.1444(2) 0.1208(2)
H55 H 0.4027 0.1244 0.0672
C75 C 0.4532(3) 0.2195(2) 0.1999(2)
H56 H 0.4015 0.2478 0.1976
C76 C 0.5319(2) 0.01844(19) 0.04125(19)
H57 H 0.5835 -0.0094 0.0483
N5A N 0.4774(2) -0.25354(18) -0.27900(18)
C71A C 0.4037(3) -0.2108(2) -0.2803(2)
H53A H 0.3533 -0.2338 -0.3345
C72A C 0.3998(3) -0.1344(2) -0.2048(2)
H54A H 0.3482 -0.1061 -0.2094
C73A C 0.4720(2) -0.09922(19) -0.1222(2)
C74A C 0.5472(3) -0.1444(2) -0.1208(2)
H55A H 0.5973 -0.1244 -0.0672
C75A C 0.5468(3) -0.2195(2) -0.1999(2)
H56A H 0.5985 -0.2478 -0.1976
C76A C 0.4681(2) -0.01844(19) -0.04125(19)
H57A H 0.4165 0.0094 -0.0483
loop_
_geom_bond_atom_site_label_1
_geom_bond_atom_site_label_2
_geom_bond_site_symmetry_1
_geom_bond_site_symmetry_2
Cd1 O1 1_555 1_555
Cd2 O3 1_555 1_555
O1 C1 1_555 1_555
O2 Cd1 1_555 1_555
O3 C23 1_555 1_555
O4 C23 1_555 1_555
O5 H1 1_555 1_555
O6 H2 1_555 1_555
O7 Cd1 1_555 1_555
O8 Cd1 1_555 1_555
O9 C46 1_555 1_555
O10 C46 1_555 1_555
O11 H3 1_555 1_555
O12 H4 1_555 1_555
O13 Cd1 1_555 1_555
H5 O13 1_555 1_555
H6 O13 1_555 1_555
O14 Cd2 1_555 1_555
H7 O14 1_555 1_555
H8 O14 1_555 1_555
N1 Cd1 1_555 1_555
N2 Cd1 1_555 1_555
N3 Cd2 1_555 1_555
N4 Cd2 1_555 1_555
C1 O2 1_555 1_555
C2 C1 1_555 1_555
C3 O5 1_555 1_555
C4 C3 1_555 1_555
C5 C4 1_555 1_555
C6 C5 1_555 1_555
H9 C6 1_555 1_555
C7 C6 1_555 1_555
H10 C7 1_555 1_555
C8 C7 1_555 1_555
H11 C8 1_555 1_555
C9 C8 1_555 1_555
H12 C9 1_555 1_555
C10 C5 1_555 1_555
C11 C2 1_555 1_555
H13 C11 1_555 1_555
C12 C4 1_555 1_555
H14 C12 1_555 1_555
H15 C12 1_555 1_555
C13 C12 1_555 1_555
C14 O6 1_555 1_555
C15 C14 1_555 1_555
C16 C15 1_555 1_555
H16 C16 1_555 1_555
C17 C16 1_555 1_555
C18 C17 1_555 1_555
H17 C18 1_555 1_555
C19 C18 1_555 1_555
H18 C19 1_555 1_555
C20 C19 1_555 1_555
H19 C20 1_555 1_555
C21 C20 1_555 1_555
H20 C21 1_555 1_555
C22 C13 1_555 1_555
C23 C15 1_555 1_555
C24 O7 1_555 1_555
C25 C24 1_555 1_555
C26 O11 1_555 1_555
C27 C26 1_555 1_555
C28 C27 1_555 1_555
C29 C28 1_555 1_555
H21 C29 1_555 1_555
C30 C29 1_555 1_555
H22 C30 1_555 1_555
C31 C30 1_555 1_555
H23 C31 1_555 1_555
C32 C31 1_555 1_555
H24 C32 1_555 1_555
C33 C28 1_555 1_555
C34 C25 1_555 1_555
H25 C34 1_555 1_555
C35 C27 1_555 1_555
H26 C35 1_555 1_555
H27 C35 1_555 1_555
C36 C35 1_555 1_555
C37 O12 1_555 1_555
C38 C37 1_555 1_555
C39 C38 1_555 1_555
H28 C39 1_555 1_555
C40 C39 1_555 1_555
C41 C40 1_555 1_555
H29 C41 1_555 1_555
C42 C41 1_555 1_555
H30 C42 1_555 1_555
C43 C42 1_555 1_555
H31 C43 1_555 1_555
C44 C43 1_555 1_555
H32 C44 1_555 1_555
C45 C36 1_555 1_555
C46 C38 1_555 1_555
C47 N1 1_555 1_555
H33 C47 1_555 1_555
C48 C47 1_555 1_555
H34 C48 1_555 1_555
C49 C48 1_555 1_555
C50 C49 1_555 1_555
H35 C50 1_555 1_555
C51 N1 1_555 1_555
H36 C51 1_555 1_555
C52 C49 1_555 1_555
H37 C52 1_555 1_555
C53 N2 1_555 1_555
H38 C53 1_555 1_555
C54 C53 1_555 1_555
H39 C54 1_555 1_555
C55 C54 1_555 1_555
C56 C55 1_555 1_555
H40 C56 1_555 1_555
C57 N2 1_555 1_555
H41 C57 1_555 1_555
C58 C55 1_555 1_555
H42 C58 1_555 1_555
C59 N4 1_555 1_555
H43 C59 1_555 1_555
C60 C59 1_555 1_555
H44 C60 1_555 1_555
C61 C60 1_555 1_555
C62 C61 1_555 1_555
H45 C62 1_555 1_555
C63 N4 1_555 1_555
H46 C63 1_555 1_555
C64 C61 1_555 1_555
H47 C64 1_555 1_555
C65 N3 1_555 1_555
H48 C65 1_555 1_555
C66 C65 1_555 1_555
H49 C66 1_555 1_555
C67 C66 1_555 1_555
C68 C67 1_555 1_555
H50 C68 1_555 1_555
C69 N3 1_555 1_555
H51 C69 1_555 1_555
C70 C67 1_555 1_555
H52 C70 1_555 1_555
N5 C71 1_555 1_555
C71 H53 1_555 1_555
C72 C71 1_555 1_555
H54 C72 1_555 1_555
C73 C72 1_555 1_555
C74 C73 1_555 1_555
H55 C74 1_555 1_555
C75 N5 1_555 1_555
H56 C75 1_555 1_555
C76 C73 1_555 1_555
H57 C76 1_555 1_555
N1A C47A 1_555 1_555
C47A H33A 1_555 1_555
C48A C47A 1_555 1_555
H34A C48A 1_555 1_555
C49A C48A 1_555 1_555
C50A C49A 1_555 1_555
H35A C50A 1_555 1_555
C51A N1A 1_555 1_555
H36A C51A 1_555 1_555
C52A C52 1_555 1_555
H37A C52A 1_555 1_555
N2A C53A 1_555 1_555
C53A H38A 1_555 1_555
C54A C53A 1_555 1_555
H39A C54A 1_555 1_555
C55A C54A 1_555 1_555
C56A C55A 1_555 1_555
H40A C56A 1_555 1_555
C57A N2A 1_555 1_555
H41A C57A 1_555 1_555
C58A C58 1_555 1_555
H42A C58A 1_555 1_555
N3A C65A 1_555 1_555
C65A H48A 1_555 1_555
C66A C65A 1_555 1_555
H49A C66A 1_555 1_555
C67A C66A 1_555 1_555
C68A C67A 1_555 1_555
H50A C68A 1_555 1_555
C69A N3A 1_555 1_555
H51A C69A 1_555 1_555
C70A C70 1_555 1_555
H52A C70A 1_555 1_555
N4A C59A 1_555 1_555
C59A H43A 1_555 1_555
C60A C59A 1_555 1_555
H44A C60A 1_555 1_555
C61A C60A 1_555 1_555
C62A C61A 1_555 1_555
H45A C62A 1_555 1_555
C63A N4A 1_555 1_555
H46A C63A 1_555 1_555
C64A C64 1_555 1_555
H47A C64A 1_555 1_555
Cd1A O1A 1_555 1_555
Cd2A O4 1_555 1_555
O1A C1A 1_555 1_555
O2A Cd1A 1_555 1_555
O3A Cd2A 1_555 1_555
O4A Cd2 1_555 1_555
O5A H1A 1_555 1_555
O6A H2A 1_555 1_555
O7A Cd1A 1_555 1_555
O8A Cd1A 1_555 1_555
O9A C46A 1_555 1_555
O10A C46A 1_555 1_555
O11A H3A 1_555 1_555
O12A H4A 1_555 1_555
O13A Cd1A 1_555 1_555
H5A O13A 1_555 1_555
H6A O13A 1_555 1_555
O14A Cd2A 1_555 1_555
H7A O14A 1_555 1_555
H8A O14A 1_555 1_555
C1A O2A 1_555 1_555
C2A C1A 1_555 1_555
C3A O5A 1_555 1_555
C4A C3A 1_555 1_555
C5A C4A 1_555 1_555
C6A C5A 1_555 1_555
H9A C6A 1_555 1_555
C7A C6A 1_555 1_555
H10A C7A 1_555 1_555
C8A C7A 1_555 1_555
H11A C8A 1_555 1_555
C9A C8A 1_555 1_555
H12A C9A 1_555 1_555
C10A C5A 1_555 1_555
C11A C2A 1_555 1_555
H13A C11A 1_555 1_555
C12A C4A 1_555 1_555
H14A C12A 1_555 1_555
H15A C12A 1_555 1_555
C13A C12A 1_555 1_555
C14A O6A 1_555 1_555
C15A C14A 1_555 1_555
C16A C15A 1_555 1_555
H16A C16A 1_555 1_555
C17A C16A 1_555 1_555
C18A C17A 1_555 1_555
H17A C18A 1_555 1_555
C19A C18A 1_555 1_555
H18A C19A 1_555 1_555
C20A C19A 1_555 1_555
H19A C20A 1_555 1_555
C21A C20A 1_555 1_555
H20A C21A 1_555 1_555
C22A C13A 1_555 1_555
C23A O3A 1_555 1_555
C24A O7A 1_555 1_555
C25A C24A 1_555 1_555
C26A O11A 1_555 1_555
C27A C26A 1_555 1_555
C28A C27A 1_555 1_555
C29A C28A 1_555 1_555
H21A C29A 1_555 1_555
C30A C29A 1_555 1_555
H22A C30A 1_555 1_555
C31A C30A 1_555 1_555
H23A C31A 1_555 1_555
C32A C31A 1_555 1_555
H24A C32A 1_555 1_555
C33A C28A 1_555 1_555
C34A C25A 1_555 1_555
H25A C34A 1_555 1_555
C35A C27A 1_555 1_555
H26A C35A 1_555 1_555
H27A C35A 1_555 1_555
C36A C35A 1_555 1_555
C37A O12A 1_555 1_555
C38A C37A 1_555 1_555
C39A C38A 1_555 1_555
H28A C39A 1_555 1_555
C40A C39A 1_555 1_555
C41A C40A 1_555 1_555
H29A C41A 1_555 1_555
C42A C41A 1_555 1_555
H30A C42A 1_555 1_555
C43A C42A 1_555 1_555
H31A C43A 1_555 1_555
C44A C43A 1_555 1_555
H32A C44A 1_555 1_555
C45A C36A 1_555 1_555
C46A C38A 1_555 1_555
Cd1A_2 N1A 1_555 1_555
Cd1A_3 N2A 1_555 1_555
Cd2_2 O10A 1_555 1_555
Cd2A_2 N4A 1_555 1_555
Cd2A_3 N3A 1_555 1_555
Cd2A_4 O10 1_555 1_555
O10_2 Cd2A 1_555 1_555
O10A_2 Cd2 1_555 1_555
N1A_2 Cd1A 1_555 1_555
N2A_2 Cd1A 1_555 1_555
N3A_2 Cd2A 1_555 1_555
N4A_2 Cd2A 1_555 1_555
N5A C71A 1_555 1_555
C71A H53A 1_555 1_555
C72A C71A 1_555 1_555
H54A C72A 1_555 1_555
C73A C72A 1_555 1_555
C74A C73A 1_555 1_555
H55A C74A 1_555 1_555
C75A N5A 1_555 1_555
H56A C75A 1_555 1_555
C76A C76 1_555 1_555
H57A C76A 1_555 1_555
O8 C24 1_555 1_555
C2 C3 1_555 1_555
C9 C10 1_555 1_555
C10 C11 1_555 1_555
C13 C14 1_555 1_555
C17 C22 1_555 1_555
C21 C22 1_555 1_555
C25 C26 1_555 1_555
C32 C33 1_555 1_555
C33 C34 1_555 1_555
C36 C37 1_555 1_555
C40 C45 1_555 1_555
C44 C45 1_555 1_555
C50 C51 1_555 1_555
C56 C57 1_555 1_555
C62 C63 1_555 1_555
C68 C69 1_555 1_555
C74 C75 1_555 1_555
C49A C52A 1_555 1_555
C50A C51A 1_555 1_555
C55A C58A 1_555 1_555
C56A C57A 1_555 1_555
C67A C70A 1_555 1_555
C68A C69A 1_555 1_555
C61A C64A 1_555 1_555
C62A C63A 1_555 1_555
O4A C23A 1_555 1_555
O8A C24A 1_555 1_555
C2A C3A 1_555 1_555
C9A C10A 1_555 1_555
C10A C11A 1_555 1_555
C13A C14A 1_555 1_555
C15A C23A 1_555 1_555
C17A C22A 1_555 1_555
C21A C22A 1_555 1_555
C25A C26A 1_555 1_555
C32A C33A 1_555 1_555
C33A C34A 1_555 1_555
C36A C37A 1_555 1_555
C40A C45A 1_555 1_555
C44A C45A 1_555 1_555
C73A C76A 1_555 1_555
C74A C75A 1_555 1_555

#END
