
#######################################################################
#
#                 Cambridge Crystallographic Data Centre
#                                CCDC 
#
#######################################################################
#
# If this CIF has been generated from an entry in the Cambridge 
# Structural Database, then it will include bibliographic, chemical, 
# crystal, experimental, refinement or atomic coordinate data resulting 
# from the CCDC's data processing and validation procedures.
#
#######################################################################

data_GOQTIR
_chemical_formula_moiety         '(C26 H27 Cd2 N1 O13)n'
_symmetry_cell_setting           monoclinic
_symmetry_space_group_name_H-M   'P 21/c'
_symmetry_Int_Tables_number      14
_space_group_name_Hall           '-P 2ybc'
loop_
_symmetry_equiv_pos_site_id
_symmetry_equiv_pos_as_xyz
1 x,y,z
2 -x,1/2+y,1/2-z
3 -x,-y,-z
4 x,1/2-y,1/2+z
_cell_length_a                   8.7173(6)
_cell_length_b                   19.4288(17)
_cell_length_c                   9.6558(8)
_cell_angle_alpha                90
_cell_angle_beta                 97.170(3)
_cell_angle_gamma                90
_cell_volume                     1622.58
loop_
_atom_site_label
_atom_site_type_symbol
_atom_site_fract_x
_atom_site_fract_y
_atom_site_fract_z
O1 O 0.0594(11) 0.4206(7) 0.4069(14)
C1 C 0.1927(16) 0.3339(7) 0.3027(17)
H1 H 0.2833 0.3298 0.2525
H2 H 0.1005 0.3181 0.2425
H3 H 0.2078 0.3055 0.3872
C2 C 0.1720(13) 0.4069(5) 0.3420(13)
N1 N 0.2709(10) 0.4561(4) 0.3177(10)
C3 C 0.2488(16) 0.5268(5) 0.3598(16)
H4 H 0.3332 0.5554 0.3335
H5 H 0.2483 0.5288 0.4611
H6 H 0.1500 0.5440 0.3130
C4 C 0.4127(15) 0.4440(9) 0.256(2)
H7 H 0.4674 0.4876 0.2495
H8 H 0.3874 0.4242 0.1629
H9 H 0.4787 0.4119 0.3152
C9 C 1.0413(7) 0.9303(3) 0.5228(7)
C10 C 0.9062(7) 0.9556(3) 0.5714(7)
C11 C 0.8689(7) 1.0251(3) 0.5473(6)
H19 H 0.7785 1.0427 0.5802
C12 C 1.1029(7) 0.8580(3) 0.5497(7)
C13 C 0.5702(7) 0.8438(3) 0.7703(7)
C14 C 0.6127(7) 0.8209(3) 0.6430(7)
H20 H 0.5639 0.7816 0.5988
C15 C 0.7246(7) 0.8552(3) 0.5813(7)
H21 H 0.7534 0.8386 0.4956
C16 C 0.7971(7) 0.9143(3) 0.6430(6)
C17 C 0.7540(8) 0.9366(3) 0.7691(6)
H22 H 0.8005 0.9767 0.8124
C18 C 0.6427(8) 0.9008(3) 0.8333(7)
H23 H 0.6169 0.9159 0.9211
C19 C 0.4514(7) 0.8045(3) 0.8405(7)
Cd1 Cd 1.24810(6) 0.73026(2) 0.55894(6)
O3 O 1.1990(5) 0.8366(2) 0.4710(5)
O4 O 1.0619(5) 0.8217(2) 0.6449(5)
O5 O 0.4355(5) 0.8221(2) 0.9639(5)
O6 O 0.3757(5) 0.7577(2) 0.7753(5)
O7 O 1.2141(5) 0.6373(2) 0.6930(5)
H24 H 1.127(4) 0.622(3) 0.668(7)
H25 H 1.217(7) 0.650(3) 0.774(3)
O8 O 1.0307(6) 0.6876(3) 0.4220(5)
H26 H 0.989(8) 0.657(3) 0.459(7)
H27 H 1.049(9) 0.675(4) 0.346(4)
C9B C 0.9587(7) 1.0697(3) 0.4772(7)
C10B C 1.0938(7) 1.0444(3) 0.4286(7)
C11B C 1.1311(7) 0.9749(3) 0.4527(6)
H19B H 1.2215 0.9573 0.4198
C12B C 0.8971(7) 1.1420(3) 0.4503(7)
C13B C 1.4298(7) 1.1562(3) 0.2297(7)
C14B C 1.3873(7) 1.1791(3) 0.3570(7)
H20B H 1.4361 1.2184 0.4012
C15B C 1.2754(7) 1.1448(3) 0.4187(7)
H21B H 1.2466 1.1614 0.5044
C16B C 1.2029(7) 1.0857(3) 0.3570(6)
C17B C 1.2460(8) 1.0634(3) 0.2309(6)
H22B H 1.1995 1.0233 0.1876
C18B C 1.3573(8) 1.0992(3) 0.1667(7)
H23B H 1.3831 1.0841 0.0789
C19B C 1.5486(7) 1.1955(3) 0.1595(7)
O3B O 0.8010(5) 1.1634(2) 0.5290(5)
O4B O 0.9381(5) 1.1783(2) 0.3551(5)
O5B O 1.5645(5) 1.1779(2) 0.0361(5)
O6B O 1.6243(5) 1.2423(2) 0.2247(5)
Cd1B Cd 0.75190(6) 1.26974(2) 0.44106(6)
O7B O 0.7859(5) 1.3627(2) 0.3070(5)
H24B H 0.873(4) 1.378(3) 0.332(7)
H25B H 0.783(7) 1.350(3) 0.226(3)
O8B O 0.9693(6) 1.3124(3) 0.5780(5)
H26B H 1.011(8) 1.343(3) 0.541(7)
H27B H 0.951(9) 1.325(4) 0.654(4)
Cd1_2 Cd 0.24810(6) 0.73026(2) 0.55894(6)
Cd1A Cd 1.75190(6) 1.23026(2) -0.05894(6)
Cd1B_2 Cd 1.75190(6) 1.26974(2) 0.44106(6)
Cd1C Cd 0.24810(6) 0.76974(2) 1.05894(6)
O5A O 0.5645(5) 1.3221(2) 0.5361(5)
O5C O 1.4355(5) 0.6779(2) 0.4639(5)
O6_2 O 1.3757(5) 0.7577(2) 0.7753(5)
O6B_2 O 0.6243(5) 1.2423(2) 0.2247(5)
loop_
_geom_bond_atom_site_label_1
_geom_bond_atom_site_label_2
_geom_bond_site_symmetry_1
_geom_bond_site_symmetry_2
O1 C2 1_555 1_555
C1 H1 1_555 1_555
H2 C1 1_555 1_555
H3 C1 1_555 1_555
C2 C1 1_555 1_555
N1 C2 1_555 1_555
C3 N1 1_555 1_555
H4 C3 1_555 1_555
H5 C3 1_555 1_555
H6 C3 1_555 1_555
C4 N1 1_555 1_555
H7 C4 1_555 1_555
H8 C4 1_555 1_555
H9 C4 1_555 1_555
C9 C10 1_555 1_555
C10 C11 1_555 1_555
C11 H19 1_555 1_555
C12 C9 1_555 1_555
C13 C14 1_555 1_555
C14 H20 1_555 1_555
C15 C14 1_555 1_555
H21 C15 1_555 1_555
C16 C10 1_555 1_555
C17 C16 1_555 1_555
H22 C17 1_555 1_555
C18 C13 1_555 1_555
H23 C18 1_555 1_555
C19 C13 1_555 1_555
Cd1 O3 1_555 1_555
O3 C12 1_555 1_555
O4 C12 1_555 1_555
O5 C19 1_555 1_555
O6 C19 1_555 1_555
O7 Cd1 1_555 1_555
H24 O7 1_555 1_555
H25 O7 1_555 1_555
O8 Cd1 1_555 1_555
H26 O8 1_555 1_555
H27 O8 1_555 1_555
C9B C11 1_555 1_555
C10B C9B 1_555 1_555
C11B C9 1_555 1_555
H19B C11B 1_555 1_555
C12B C9B 1_555 1_555
C13B C14B 1_555 1_555
C14B H20B 1_555 1_555
C15B C14B 1_555 1_555
H21B C15B 1_555 1_555
C16B C10B 1_555 1_555
C17B C16B 1_555 1_555
H22B C17B 1_555 1_555
C18B C13B 1_555 1_555
H23B C18B 1_555 1_555
C19B C13B 1_555 1_555
O3B C12B 1_555 1_555
O4B C12B 1_555 1_555
O5B C19B 1_555 1_555
O6B C19B 1_555 1_555
Cd1B O3B 1_555 1_555
O7B Cd1B 1_555 1_555
H24B O7B 1_555 1_555
H25B O7B 1_555 1_555
O8B Cd1B 1_555 1_555
H26B O8B 1_555 1_555
H27B O8B 1_555 1_555
Cd1_2 O6 1_555 1_555
Cd1A O5B 1_555 1_555
Cd1B_2 O6B 1_555 1_555
Cd1C O5 1_555 1_555
O5A Cd1B 1_555 1_555
O5C Cd1 1_555 1_555
O6_2 Cd1 1_555 1_555
O6B_2 Cd1B 1_555 1_555
C15 C16 1_555 1_555
C17 C18 1_555 1_555
Cd1 O4 1_555 1_555
C10B C11B 1_555 1_555
C15B C16B 1_555 1_555
C17B C18B 1_555 1_555
O4B Cd1B 1_555 1_555

#END
