
#######################################################################
#
#                 Cambridge Crystallographic Data Centre
#                                CCDC 
#
#######################################################################
#
# If this CIF has been generated from an entry in the Cambridge 
# Structural Database, then it will include bibliographic, chemical, 
# crystal, experimental, refinement or atomic coordinate data resulting 
# from the CCDC's data processing and validation procedures.
#
#######################################################################

data_MIBQAR06
_chemical_formula_moiety         '(C24 H12 O13 Zn4)n'
_symmetry_cell_setting           cubic
_symmetry_space_group_name_H-M   'F m -3 m'
_symmetry_Int_Tables_number      225
_space_group_name_Hall           '-F 4 2 3'
loop_
_symmetry_equiv_pos_site_id
_symmetry_equiv_pos_as_xyz
1 x,y,z
2 -x,-y,z
3 -x,y,-z
4 x,-y,-z
5 z,x,y
6 z,-x,-y
7 -z,-x,y
8 -z,x,-y
9 y,z,x
10 -y,z,-x
11 y,-z,-x
12 -y,-z,x
13 y,x,-z
14 -y,-x,-z
15 y,-x,z
16 -y,x,z
17 x,z,-y
18 -x,z,y
19 -x,-z,-y
20 x,-z,y
21 z,y,-x
22 z,-y,x
23 -z,y,x
24 -z,-y,-x
25 x,1/2+y,1/2+z
26 -x,1/2-y,1/2+z
27 -x,1/2+y,1/2-z
28 x,1/2-y,1/2-z
29 z,1/2+x,1/2+y
30 z,1/2-x,1/2-y
31 -z,1/2-x,1/2+y
32 -z,1/2+x,1/2-y
33 y,1/2+z,1/2+x
34 -y,1/2+z,1/2-x
35 y,1/2-z,1/2-x
36 -y,1/2-z,1/2+x
37 y,1/2+x,1/2-z
38 -y,1/2-x,1/2-z
39 y,1/2-x,1/2+z
40 -y,1/2+x,1/2+z
41 x,1/2+z,1/2-y
42 -x,1/2+z,1/2+y
43 -x,1/2-z,1/2-y
44 x,1/2-z,1/2+y
45 z,1/2+y,1/2-x
46 z,1/2-y,1/2+x
47 -z,1/2+y,1/2+x
48 -z,1/2-y,1/2-x
49 1/2+x,y,1/2+z
50 1/2-x,-y,1/2+z
51 1/2-x,y,1/2-z
52 1/2+x,-y,1/2-z
53 1/2+z,x,1/2+y
54 1/2+z,-x,1/2-y
55 1/2-z,-x,1/2+y
56 1/2-z,x,1/2-y
57 1/2+y,z,1/2+x
58 1/2-y,z,1/2-x
59 1/2+y,-z,1/2-x
60 1/2-y,-z,1/2+x
61 1/2+y,x,1/2-z
62 1/2-y,-x,1/2-z
63 1/2+y,-x,1/2+z
64 1/2-y,x,1/2+z
65 1/2+x,z,1/2-y
66 1/2-x,z,1/2+y
67 1/2-x,-z,1/2-y
68 1/2+x,-z,1/2+y
69 1/2+z,y,1/2-x
70 1/2+z,-y,1/2+x
71 1/2-z,y,1/2+x
72 1/2-z,-y,1/2-x
73 1/2+x,1/2+y,z
74 1/2-x,1/2-y,z
75 1/2-x,1/2+y,-z
76 1/2+x,1/2-y,-z
77 1/2+z,1/2+x,y
78 1/2+z,1/2-x,-y
79 1/2-z,1/2-x,y
80 1/2-z,1/2+x,-y
81 1/2+y,1/2+z,x
82 1/2-y,1/2+z,-x
83 1/2+y,1/2-z,-x
84 1/2-y,1/2-z,x
85 1/2+y,1/2+x,-z
86 1/2-y,1/2-x,-z
87 1/2+y,1/2-x,z
88 1/2-y,1/2+x,z
89 1/2+x,1/2+z,-y
90 1/2-x,1/2+z,y
91 1/2-x,1/2-z,-y
92 1/2+x,1/2-z,y
93 1/2+z,1/2+y,-x
94 1/2+z,1/2-y,x
95 1/2-z,1/2+y,x
96 1/2-z,1/2-y,-x
97 -x,-y,-z
98 x,y,-z
99 x,-y,z
100 -x,y,z
101 -z,-x,-y
102 -z,x,y
103 z,x,-y
104 z,-x,y
105 -y,-z,-x
106 y,-z,x
107 -y,z,x
108 y,z,-x
109 -y,-x,z
110 y,x,z
111 -y,x,-z
112 y,-x,-z
113 -x,-z,y
114 x,-z,-y
115 x,z,y
116 -x,z,-y
117 -z,-y,x
118 -z,y,-x
119 z,-y,-x
120 z,y,x
121 -x,1/2-y,1/2-z
122 x,1/2+y,1/2-z
123 x,1/2-y,1/2+z
124 -x,1/2+y,1/2+z
125 -z,1/2-x,1/2-y
126 -z,1/2+x,1/2+y
127 z,1/2+x,1/2-y
128 z,1/2-x,1/2+y
129 -y,1/2-z,1/2-x
130 y,1/2-z,1/2+x
131 -y,1/2+z,1/2+x
132 y,1/2+z,1/2-x
133 -y,1/2-x,1/2+z
134 y,1/2+x,1/2+z
135 -y,1/2+x,1/2-z
136 y,1/2-x,1/2-z
137 -x,1/2-z,1/2+y
138 x,1/2-z,1/2-y
139 x,1/2+z,1/2+y
140 -x,1/2+z,1/2-y
141 -z,1/2-y,1/2+x
142 -z,1/2+y,1/2-x
143 z,1/2-y,1/2-x
144 z,1/2+y,1/2+x
145 1/2-x,-y,1/2-z
146 1/2+x,y,1/2-z
147 1/2+x,-y,1/2+z
148 1/2-x,y,1/2+z
149 1/2-z,-x,1/2-y
150 1/2-z,x,1/2+y
151 1/2+z,x,1/2-y
152 1/2+z,-x,1/2+y
153 1/2-y,-z,1/2-x
154 1/2+y,-z,1/2+x
155 1/2-y,z,1/2+x
156 1/2+y,z,1/2-x
157 1/2-y,-x,1/2+z
158 1/2+y,x,1/2+z
159 1/2-y,x,1/2-z
160 1/2+y,-x,1/2-z
161 1/2-x,-z,1/2+y
162 1/2+x,-z,1/2-y
163 1/2+x,z,1/2+y
164 1/2-x,z,1/2-y
165 1/2-z,-y,1/2+x
166 1/2-z,y,1/2-x
167 1/2+z,-y,1/2-x
168 1/2+z,y,1/2+x
169 1/2-x,1/2-y,-z
170 1/2+x,1/2+y,-z
171 1/2+x,1/2-y,z
172 1/2-x,1/2+y,z
173 1/2-z,1/2-x,-y
174 1/2-z,1/2+x,y
175 1/2+z,1/2+x,-y
176 1/2+z,1/2-x,y
177 1/2-y,1/2-z,-x
178 1/2+y,1/2-z,x
179 1/2-y,1/2+z,x
180 1/2+y,1/2+z,-x
181 1/2-y,1/2-x,z
182 1/2+y,1/2+x,z
183 1/2-y,1/2+x,-z
184 1/2+y,1/2-x,-z
185 1/2-x,1/2-z,y
186 1/2+x,1/2-z,-y
187 1/2+x,1/2+z,y
188 1/2-x,1/2+z,-y
189 1/2-z,1/2-y,x
190 1/2-z,1/2+y,-x
191 1/2+z,1/2-y,-x
192 1/2+z,1/2+y,x
_cell_length_a                   25.8449(4)
_cell_length_b                   25.8449(4)
_cell_length_c                   25.8449(4)
_cell_angle_alpha                90
_cell_angle_beta                 90
_cell_angle_gamma                90
_cell_volume                     17263.3
loop_
_atom_site_label
_atom_site_type_symbol
_atom_site_fract_x
_atom_site_fract_y
_atom_site_fract_z
_atom_site_U_iso_or_equiv
_atom_site_thermal_displace_type
Zn1 Zn 0.206508(11) 0.293492(11) 0.206508(11) 0.0201 Uani
O1 O 0.250 0.250 0.250 0.0203 Uani
O2 O 0.21954(6) 0.28046(6) 0.13391(8) 0.0426 Uani
C1 C 0.250 0.250 0.11147(14) 0.0330 Uani
C2 C 0.250 0.250 0.05375(14) 0.0372 Uani
C3 C 0.21781(10) 0.28219(10) 0.02669(12) 0.0590 Uani
H1 H 0.1955 0.3045 0.0447 0.0770 Uiso
O2UB O 0.28046(6) 0.21954(6) 0.13391(8) 0.0426 Uani
C3UB C 0.28219(10) 0.21781(10) 0.02669(12) 0.0590 Uani
H1UB H 0.3045 0.1955 0.0447 0.0770 Uiso
O2GC O 0.21954(6) 0.28046(6) -0.13391(8) 0.0426 Uani
C1L C 0.250 0.250 -0.11147(14) 0.0330 Uani
C2L C 0.250 0.250 -0.05375(14) 0.0372 Uani
C3GC C 0.21781(10) 0.28219(10) -0.02669(12) 0.0590 Uani
H1GC H 0.1955 0.3045 -0.0447 0.0770 Uiso
O2L O 0.28046(6) 0.21954(6) -0.13391(8) 0.0426 Uani
C3L C 0.28219(10) 0.21781(10) -0.02669(12) 0.0590 Uani
H1L H 0.3045 0.1955 -0.0447 0.0770 Uiso
Zn1D Zn 0.206508(11) 0.206508(11) 0.293492(11) 0.0201 Uani
O2D O 0.13391(8) 0.21954(6) 0.28046(6) 0.0426 Uani
C1D C 0.11147(14) 0.250 0.250 0.0330 Uani
C2D C 0.05375(14) 0.250 0.250 0.0372 Uani
C3D C 0.02669(12) 0.21781(10) 0.28219(10) 0.0590 Uani
H1D H 0.0447 0.1955 0.3045 0.0770 Uiso
O2CA O 0.13391(8) 0.28046(6) 0.21954(6) 0.0426 Uani
C3CA C 0.02669(12) 0.28219(10) 0.21781(10) 0.0590 Uani
H1CA H 0.0447 0.3045 0.1955 0.0770 Uiso
O2UA O -0.13391(8) 0.21954(6) 0.28046(6) 0.0426 Uani
C1V C -0.11147(14) 0.250 0.250 0.0330 Uani
C2V C -0.05375(14) 0.250 0.250 0.0372 Uani
C3UA C -0.02669(12) 0.21781(10) 0.28219(10) 0.0590 Uani
H1UA H -0.0447 0.1955 0.3045 0.0770 Uiso
O2V O -0.13391(8) 0.28046(6) 0.21954(6) 0.0426 Uani
C3V C -0.02669(12) 0.28219(10) 0.21781(10) 0.0590 Uani
H1V H -0.0447 0.3045 0.1955 0.0770 Uiso
Zn1H Zn 0.293492(11) 0.206508(11) 0.206508(11) 0.0201 Uani
O2H O 0.28046(6) 0.13391(8) 0.21954(6) 0.0426 Uani
C1H C 0.250 0.11147(14) 0.250 0.0330 Uani
C2H C 0.250 0.05375(14) 0.250 0.0372 Uani
C3H C 0.28219(10) 0.02669(12) 0.21781(10) 0.0590 Uani
H1H H 0.3045 0.0447 0.1955 0.0770 Uiso
O2EB O 0.21954(6) 0.13391(8) 0.28046(6) 0.0426 Uani
C3EB C 0.21781(10) 0.02669(12) 0.28219(10) 0.0590 Uani
H1EB H 0.1955 0.0447 0.3045 0.0770 Uiso
O2NB O 0.28046(6) -0.13391(8) 0.21954(6) 0.0426 Uani
C1S C 0.250 -0.11147(14) 0.250 0.0330 Uani
C2S C 0.250 -0.05375(14) 0.250 0.0372 Uani
C3NB C 0.28219(10) -0.02669(12) 0.21781(10) 0.0590 Uani
H1NB H 0.3045 -0.0447 0.1955 0.0770 Uiso
O2S O 0.21954(6) -0.13391(8) 0.28046(6) 0.0426 Uani
C3S C 0.21781(10) -0.02669(12) 0.28219(10) 0.0590 Uani
H1S H 0.1955 -0.0447 0.3045 0.0770 Uiso
Zn1T Zn 0.206508(11) 0.293492(11) -0.206508(11) 0.0201 Uani
Zn1L Zn 0.293492(11) 0.206508(11) -0.206508(11) 0.0201 Uani
Zn1N Zn 0.293492(11) -0.206508(11) 0.206508(11) 0.0201 Uani
Zn1Q Zn -0.206508(11) 0.206508(11) 0.293492(11) 0.0201 Uani
Zn1S Zn 0.206508(11) -0.206508(11) 0.293492(11) 0.0201 Uani
Zn1V Zn -0.206508(11) 0.293492(11) 0.206508(11) 0.0201 Uani
Zn1HA Zn 0.293492(11) 0.293492(11) 0.293492(11) 0.0201 Uani
O1L O 0.250 0.250 -0.250 0.0203 Uani
O2T O 0.13391(8) 0.28046(6) -0.21954(6) 0.0426 Uani
O2AA O 0.21954(6) 0.21954(6) 0.36609(8) 0.0426 Uani
O2QA O 0.21954(6) 0.36609(8) -0.21954(6) 0.0426 Uani
O2CB O 0.36609(8) 0.21954(6) 0.21954(6) 0.0426 Uani
O2EC O 0.21954(6) 0.36609(8) 0.21954(6) 0.0426 Uani
loop_
_atom_site_aniso_label
_atom_site_aniso_U_11
_atom_site_aniso_U_22
_atom_site_aniso_U_33
_atom_site_aniso_U_23
_atom_site_aniso_U_13
_atom_site_aniso_U_12
Zn1 0.02012(18) 0.02012(18) 0.02012(18) 0.00038(10) -0.00038(10) 0.00038(10)
O1 0.0203(11) 0.0203(11) 0.0203(11) 0 0 0
O2 0.0535(9) 0.0535(9) 0.0209(10) -0.0011(6) 0.0011(6) 0.0188(11)
C1 0.0391(13) 0.0391(13) 0.0207(18) 0 0 0.0004(18)
C2 0.0471(15) 0.0471(15) 0.0174(17) 0 0 0.0103(19)
C3 0.0781(19) 0.0781(19) 0.0208(15) -0.0029(9) 0.0029(9) 0.046(2)
O2UB 0.0535 0.0535 0.0209 0.0011 -0.0011 0.0188
C3UB 0.0781 0.0781 0.0208 0.0029 -0.0029 0.046
O2GC 0.0535 0.0535 0.0209 0.0011 -0.0011 0.0188
C1L 0.0391 0.0391 0.0207 0 0 0.0004
C2L 0.0471 0.0471 0.0174 0 0 0.0103
C3GC 0.0781 0.0781 0.0208 0.0029 -0.0029 0.046
O2L 0.0535 0.0535 0.0209 -0.0011 0.0011 0.0188
C3L 0.0781 0.0781 0.0208 -0.0029 0.0029 0.046
Zn1D 0.02012 0.02012 0.02012 0.00038 0.00038 -0.00038
O2D 0.0209 0.0535 0.0535 0.0188 -0.0011 0.0011
C1D 0.0207 0.0391 0.0391 0.0004 0 0
C2D 0.0174 0.0471 0.0471 0.0103 0 0
C3D 0.0208 0.0781 0.0781 0.046 -0.0029 0.0029
O2CA 0.0209 0.0535 0.0535 0.0188 0.0011 -0.0011
C3CA 0.0208 0.0781 0.0781 0.046 0.0029 -0.0029
O2UA 0.0209 0.0535 0.0535 0.0188 0.0011 -0.0011
C1V 0.0207 0.0391 0.0391 0.0004 0 0
C2V 0.0174 0.0471 0.0471 0.0103 0 0
C3UA 0.0208 0.0781 0.0781 0.046 0.0029 -0.0029
O2V 0.0209 0.0535 0.0535 0.0188 -0.0011 0.0011
C3V 0.0208 0.0781 0.0781 0.046 -0.0029 0.0029
Zn1H 0.02012 0.02012 0.02012 -0.00038 0.00038 0.00038
O2H 0.0535 0.0209 0.0535 0.0011 0.0188 -0.0011
C1H 0.0391 0.0207 0.0391 0 0.0004 0
C2H 0.0471 0.0174 0.0471 0 0.0103 0
C3H 0.0781 0.0208 0.0781 0.0029 0.046 -0.0029
O2EB 0.0535 0.0209 0.0535 -0.0011 0.0188 0.0011
C3EB 0.0781 0.0208 0.0781 -0.0029 0.046 0.0029
O2NB 0.0535 0.0209 0.0535 -0.0011 0.0188 0.0011
C1S 0.0391 0.0207 0.0391 0 0.0004 0
C2S 0.0471 0.0174 0.0471 0 0.0103 0
C3NB 0.0781 0.0208 0.0781 -0.0029 0.046 0.0029
O2S 0.0535 0.0209 0.0535 0.0011 0.0188 -0.0011
C3S 0.0781 0.0208 0.0781 0.0029 0.046 -0.0029
Zn1T 0.02012 0.02012 0.02012 -0.00038 0.00038 0.00038
Zn1L 0.02012 0.02012 0.02012 0.00038 -0.00038 0.00038
Zn1N 0.02012 0.02012 0.02012 0.00038 0.00038 -0.00038
Zn1Q 0.02012 0.02012 0.02012 0.00038 -0.00038 0.00038
Zn1S 0.02012 0.02012 0.02012 -0.00038 0.00038 0.00038
Zn1V 0.02012 0.02012 0.02012 0.00038 0.00038 -0.00038
Zn1HA 0.02012 0.02012 0.02012 -0.00038 -0.00038 -0.00038
O1L 0.0203 0.0203 0.0203 0 0 0
O2T 0.0209 0.0535 0.0535 -0.0188 -0.0011 -0.0011
O2AA 0.0535 0.0535 0.0209 -0.0011 -0.0011 -0.0188
O2QA 0.0535 0.0209 0.0535 0.0011 0.0188 -0.0011
O2CB 0.0209 0.0535 0.0535 -0.0188 -0.0011 -0.0011
O2EC 0.0535 0.0209 0.0535 -0.0011 -0.0188 -0.0011
loop_
_geom_bond_atom_site_label_1
_geom_bond_atom_site_label_2
_geom_bond_site_symmetry_1
_geom_bond_site_symmetry_2
Zn1 O1 1_555 1_555
O1 Zn1D 1_555 1_555
O2 Zn1 1_555 1_555
C1 O2 1_555 1_555
C2 C1 1_555 1_555
C3 C2 1_555 1_555
H1 C3 1_555 1_555
O2UB C1 1_555 1_555
C3UB C2 1_555 1_555
H1UB C3UB 1_555 1_555
O2GC C1L 1_555 1_555
C1L C2L 1_555 1_555
C2L C3GC 1_555 1_555
C3GC C3 1_555 1_555
H1GC C3GC 1_555 1_555
O2L C1L 1_555 1_555
C3L C3UB 1_555 1_555
H1L C3L 1_555 1_555
Zn1D O2D 1_555 1_555
O2D C1D 1_555 1_555
C1D C2D 1_555 1_555
C2D C3D 1_555 1_555
C3D H1D 1_555 1_555
O2CA Zn1 1_555 1_555
C3CA C2D 1_555 1_555
H1CA C3CA 1_555 1_555
O2UA C1V 1_555 1_555
C1V C2V 1_555 1_555
C2V C3UA 1_555 1_555
C3UA C3D 1_555 1_555
H1UA C3UA 1_555 1_555
O2V C1V 1_555 1_555
C3V C3CA 1_555 1_555
H1V C3V 1_555 1_555
Zn1H O1 1_555 1_555
O2H Zn1H 1_555 1_555
C1H O2H 1_555 1_555
C2H C1H 1_555 1_555
C3H C2H 1_555 1_555
H1H C3H 1_555 1_555
O2EB Zn1D 1_555 1_555
C3EB C2H 1_555 1_555
H1EB C3EB 1_555 1_555
O2NB C1S 1_555 1_555
C1S C2S 1_555 1_555
C2S C3NB 1_555 1_555
C3NB C3H 1_555 1_555
H1NB C3NB 1_555 1_555
O2S C1S 1_555 1_555
C3S C3EB 1_555 1_555
H1S C3S 1_555 1_555
Zn1T O2GC 1_555 1_555
Zn1L O2L 1_555 1_555
Zn1N O2NB 1_555 1_555
Zn1Q O2UA 1_555 1_555
Zn1S O2S 1_555 1_555
Zn1V O2V 1_555 1_555
Zn1HA O1 1_555 1_555
O1L Zn1T 1_555 1_555
O2T Zn1T 1_555 1_555
O2AA Zn1D 1_555 1_555
O2QA Zn1T 1_555 1_555
O2CB Zn1H 1_555 1_555
O2EC Zn1 1_555 1_555
O2UB Zn1H 1_555 1_555
C2L C3L 1_555 1_555
C1D O2CA 1_555 1_555
C2V C3V 1_555 1_555
C1H O2EB 1_555 1_555
C2S C3S 1_555 1_555
Zn1L O1L 1_555 1_555

#END
