
#######################################################################
#
#                 Cambridge Crystallographic Data Centre
#                                CCDC 
#
#######################################################################
#
# If this CIF has been generated from an entry in the Cambridge 
# Structural Database, then it will include bibliographic, chemical, 
# crystal, experimental, refinement or atomic coordinate data resulting 
# from the CCDC's data processing and validation procedures.
#
#######################################################################

data_VEDFOB
_chemical_formula_moiety         '(C36 H42 Co2 N4 O9)n'
_symmetry_cell_setting           orthorhombic
_symmetry_space_group_name_H-M   'P 21 21 21'
_symmetry_Int_Tables_number      19
_space_group_name_Hall           'P 2ac 2ab'
loop_
_symmetry_equiv_pos_site_id
_symmetry_equiv_pos_as_xyz
1 x,y,z
2 1/2-x,-y,1/2+z
3 1/2+x,1/2-y,-z
4 -x,1/2+y,1/2-z
_cell_length_a                   11.3749(4)
_cell_length_b                   13.3596(5)
_cell_length_c                   25.9691(11)
_cell_angle_alpha                90
_cell_angle_beta                 90
_cell_angle_gamma                90
_cell_volume                     3946.37
loop_
_atom_site_label
_atom_site_type_symbol
_atom_site_fract_x
_atom_site_fract_y
_atom_site_fract_z
Co1 Co 0.16192(5) 0.94110(5) 0.92105(2)
Co2 Co -0.09411(5) 1.05630(5) 0.86162(2)
O1 O 0.0876(3) 1.0727(2) 0.88584(12)
H1 H 0.1357 1.0907 0.8554
H2 H 0.0927 1.1288 0.9106
O2 O 0.2849(3) 1.1010(3) 0.83558(19)
O3 O 0.5300(3) 1.2755(3) 1.05992(17)
O4 O 0.3592(3) 1.3202(3) 1.09486(15)
O5 O 0.3067(3) 0.9510(3) 0.87258(13)
O6 O -0.0501(3) 0.9351(3) 0.81775(13)
O7 O 0.0797(3) 0.8503(2) 0.86648(13)
O8 O -0.1385(3) 0.9596(3) 0.92237(14)
O9 O 0.0216(3) 0.9337(3) 0.97104(12)
N1 N 0.7216(3) 1.0450(3) 0.84100(16)
N2 N 0.2509(4) 1.0376(3) 0.97729(17)
N3 N 0.0616(4) 0.6530(3) 0.70354(17)
N4 N -0.2610(4) 0.6878(3) 1.04268(17)
C1 C 0.6543(5) 1.1258(4) 0.8375(3)
H3 H 0.6914 1.1894 0.8351
C2 C 0.6671(5) 0.9568(4) 0.8431(2)
H4 H 0.7132 0.8976 0.8443
C3 C -0.2973(8) 0.7192(8) 0.9976(4)
H5 H -0.3647 0.6882 0.9829
C4 C -0.2433(8) 0.7947(7) 0.9702(3)
H6 H -0.2734 0.8139 0.9375
C5 C -0.0049(5) 0.7353(4) 0.6981(2)
H7 H -0.0411 0.7476 0.6657
C6 C -0.1134(6) 0.8125(5) 1.0369(3)
H8 H -0.0479 0.8444 1.0526
C7 C 0.4221(5) 1.2668(4) 1.0662(2)
C8 C 0.3690(4) 1.0483(4) 0.9760(2)
H9 H 0.4143 1.0052 0.9547
C9 C 0.1109(5) 0.6389(4) 0.7488(2)
H10 H 0.1563 0.5799 0.7536
C10 C 0.5333(5) 1.1221(4) 0.8372(3)
H11 H 0.4891 1.1820 0.8338
C11 C 0.4255(5) 1.1207(4) 1.0052(2)
H12 H 0.5087 1.1261 1.0040
C12 C 0.0195(4) 0.8647(3) 0.82708(19)
C13 C -0.1496(4) 0.8409(3) 0.9892(2)
C14 C -0.1727(6) 0.7368(5) 1.0623(3)
H13 H -0.1476 0.7195 1.0960
C15 C -0.0231(5) 0.8034(4) 0.7380(2)
H14 H -0.0735 0.8594 0.7333
C16 C -0.0847(4) 0.9191(3) 0.95810(18)
C17 C 0.0327(4) 0.7883(3) 0.78400(19)
C18 C 0.2412(5) 1.1710(4) 1.0377(2)
H15 H 0.1938 1.2121 1.0591
C19 C 0.5463(4) 0.9482(4) 0.8436(2)
H16 H 0.5109 0.8839 0.8452
C20 C 0.1008(5) 0.7039(4) 0.7894(2)
H17 H 0.1403 0.6907 0.8209
C21 C 0.1906(5) 1.0979(4) 1.0084(2)
H18 H 0.1078 1.0895 1.0104
C22 C 0.3612(5) 1.1850(4) 1.0360(2)
C23 C 0.4770(4) 1.0326(4) 0.8419(2)
C24 C 0.3443(5) 1.0281(4) 0.8498(2)
Co1B Co -0.33808(5) 0.55890(5) 1.07895(2)
Co2B Co 0.40589(5) 1.44370(5) 1.13838(2)
Co2_2 Co 0.90589(5) 1.05630(5) 0.86162(2)
Co2C Co 0.09411(5) 0.55630(5) 0.63838(2)
O4B O -0.1408(3) 1.1798(3) 0.90514(15)
N1_2 N -0.2784(3) 1.0450(3) 0.84100(16)
N3C N -0.0616(4) 1.1530(3) 0.79646(17)
N4B N 0.2390(4) 0.8122(3) 0.95732(17)
C25 C 0.687(4) 0.481(3) 0.7972(16)
H19 H 0.6193 0.4351 0.8000
H20 H 0.7128 0.4788 0.7608
C26 C 0.701(3) 0.643(3) 0.8370(13)
H21 H 0.6532 0.6578 0.8679
H22 H 0.7162 0.7075 0.8190
C30 C 0.640(3) 0.580(2) 0.8050(13)
H29 H 0.6341 0.6131 0.7710
H30 H 0.5597 0.5734 0.8188
C31 C 0.765(3) 0.444(2) 0.8219(12)
C32 C 0.840(3) 0.504(2) 0.8390(12)
C33 C 0.808(3) 0.602(2) 0.8522(13)
H31 H 0.8056 0.3944 0.8001
H32 H 0.7297 0.4080 0.8513
H33 H 0.9033 0.5086 0.8130
H34 H 0.8748 0.4728 0.8701
H35 H 0.8108 0.6062 0.8903
H36 H 0.8706 0.6464 0.8390
C27 C 0.1936(19) 1.4710(16) 0.9172(9)
H23 H 0.2222 1.5404 0.9216
H24 H 0.1120 1.4685 0.9304
C28 C 0.191(2) 1.4501(19) 0.8662(9)
H25 H 0.1411 1.3899 0.8624
H26 H 0.1475 1.5058 0.8498
C29 C 0.281(2) 1.4351(19) 0.8383(9)
H27 H 0.3178 1.4998 0.8290
H28 H 0.2577 1.4006 0.8061
C34 C 0.368(2) 1.371(2) 0.8683(11)
C35 C 0.372(2) 1.3746(19) 0.9224(10)
C36 C 0.2605(18) 1.4102(15) 0.9463(8)
H37 H 0.3529 1.3001 0.8587
H38 H 0.4476 1.3874 0.8557
H39 H 0.4365 1.4197 0.9329
H40 H 0.3899 1.3069 0.9358
H41 H 0.2129 1.3509 0.9558
H42 H 0.2803 1.4459 0.9785
loop_
_geom_bond_atom_site_label_1
_geom_bond_atom_site_label_2
_geom_bond_site_symmetry_1
_geom_bond_site_symmetry_2
Co1 O1 1_555 1_555
Co2 O1 1_555 1_555
O1 H1 1_555 1_555
H2 O1 1_555 1_555
O2 C24 1_555 1_555
O3 C7 1_555 1_555
O4 C7 1_555 1_555
O5 Co1 1_555 1_555
O6 Co2 1_555 1_555
O7 Co1 1_555 1_555
O8 Co2 1_555 1_555
O9 Co1 1_555 1_555
N1 C1 1_555 1_555
N2 Co1 1_555 1_555
N3 C5 1_555 1_555
N4 C3 1_555 1_555
C1 H3 1_555 1_555
C2 N1 1_555 1_555
H4 C2 1_555 1_555
C3 H5 1_555 1_555
C4 C3 1_555 1_555
H6 C4 1_555 1_555
C5 H7 1_555 1_555
C6 H8 1_555 1_555
C7 C22 1_555 1_555
C8 N2 1_555 1_555
H9 C8 1_555 1_555
C9 N3 1_555 1_555
H10 C9 1_555 1_555
C10 C1 1_555 1_555
H11 C10 1_555 1_555
C11 C8 1_555 1_555
H12 C11 1_555 1_555
C12 O6 1_555 1_555
C13 C4 1_555 1_555
C14 N4 1_555 1_555
H13 C14 1_555 1_555
C15 C5 1_555 1_555
H14 C15 1_555 1_555
C16 O8 1_555 1_555
C17 C12 1_555 1_555
C18 H15 1_555 1_555
C19 C2 1_555 1_555
H16 C19 1_555 1_555
C20 C9 1_555 1_555
H17 C20 1_555 1_555
C21 N2 1_555 1_555
H18 C21 1_555 1_555
C22 C11 1_555 1_555
C23 C10 1_555 1_555
C24 O5 1_555 1_555
C25 H19 1_555 1_555
H20 C25 1_555 1_555
C26 H21 1_555 1_555
H22 C26 1_555 1_555
C27 H23 1_555 1_555
H24 C27 1_555 1_555
C28 C27 1_555 1_555
H25 C28 1_555 1_555
H26 C28 1_555 1_555
C29 C28 1_555 1_555
H27 C29 1_555 1_555
H28 C29 1_555 1_555
C30 C25 1_555 1_555
H29 C30 1_555 1_555
H30 C30 1_555 1_555
C31 C25 1_555 1_555
C32 C31 1_555 1_555
C33 C26 1_555 1_555
C34 C29 1_555 1_555
C35 C34 1_555 1_555
C36 C27 1_555 1_555
H31 C31 1_555 1_555
H32 C31 1_555 1_555
H33 C32 1_555 1_555
H34 C32 1_555 1_555
H35 C33 1_555 1_555
H36 C33 1_555 1_555
H37 C34 1_555 1_555
H38 C34 1_555 1_555
H39 C35 1_555 1_555
H40 C35 1_555 1_555
H41 C36 1_555 1_555
H42 C36 1_555 1_555
Co1B N4 1_555 1_555
Co2B O4 1_555 1_555
Co2_2 N1 1_555 1_555
Co2C N3 1_555 1_555
O4B Co2 1_555 1_555
N1_2 Co2 1_555 1_555
N3C Co2 1_555 1_555
N4B Co1 1_555 1_555
O7 C12 1_555 1_555
O9 C16 1_555 1_555
C6 C13 1_555 1_555
C6 C14 1_555 1_555
C13 C16 1_555 1_555
C15 C17 1_555 1_555
C17 C20 1_555 1_555
C18 C21 1_555 1_555
C18 C22 1_555 1_555
C19 C23 1_555 1_555
C23 C24 1_555 1_555
C26 C30 1_555 1_555
C32 C33 1_555 1_555
C35 C36 1_555 1_555

#END
