
#######################################################################
#
#                 Cambridge Crystallographic Data Centre
#                                CCDC 
#
#######################################################################
#
# If this CIF has been generated from an entry in the Cambridge 
# Structural Database, then it will include bibliographic, chemical, 
# crystal, experimental, refinement or atomic coordinate data resulting 
# from the CCDC's data processing and validation procedures.
#
#######################################################################

data_VEDFIV
_chemical_formula_moiety         '(C30 H27 Co2 N7 O9)n'
_symmetry_cell_setting           orthorhombic
_symmetry_space_group_name_H-M   'P 21 21 21'
_symmetry_Int_Tables_number      19
_space_group_name_Hall           'P 2ac 2ab'
loop_
_symmetry_equiv_pos_site_id
_symmetry_equiv_pos_as_xyz
1 x,y,z
2 1/2-x,-y,1/2+z
3 1/2+x,1/2-y,-z
4 -x,1/2+y,1/2-z
_cell_length_a                   11.249(4)
_cell_length_b                   13.238(4)
_cell_length_c                   26.050(9)
_cell_angle_alpha                90
_cell_angle_beta                 90
_cell_angle_gamma                90
_cell_volume                     3879.22
loop_
_atom_site_label
_atom_site_type_symbol
_atom_site_fract_x
_atom_site_fract_y
_atom_site_fract_z
Co1 Co 0.33853(7) 0.43908(7) 0.07952(3)
Co2 Co 0.59198(7) 0.56151(7) 0.13693(3)
O1 O 0.4784(4) 0.4382(4) 0.02784(17)
O2 O 0.4276(4) 0.3470(4) 0.13232(17)
O3 O 0.5504(4) 0.4410(4) 0.18207(17)
O4 O 0.6405(4) 0.4677(4) 0.07625(19)
O5 O 0.1949(4) 0.4470(4) 0.12940(18)
O6 O 0.1310(4) 0.8130(4) -0.09271(19)
C1 C 0.1587(6) 0.5240(5) 0.1538(3)
N1 N -0.2235(5) 0.5494(4) 0.1570(2)
N2 N 0.4419(4) 0.1581(4) 0.2989(2)
C2 C 0.0232(6) 0.5328(5) 0.1586(3)
O7 O 0.2197(5) 0.5948(5) 0.1706(2)
N3 N 0.2419(5) 0.5313(4) 0.0243(2)
O8 O -0.0459(4) 0.7694(4) -0.0590(2)
C3 C 0.4705(6) 0.2912(5) 0.2163(3)
C4 C 0.4096(7) 0.2026(5) 0.2106(3)
H1 H 0.3757 0.1851 0.1784
C5 C 0.5201(7) 0.3103(6) 0.2638(3)
H2 H 0.5656 0.3700 0.2687
C6 C 0.0640(5) 0.7603(5) -0.0647(3)
C7 C 0.2495(7) 0.6594(6) -0.0405(3)
H3 H 0.2945 0.6961 -0.0651
C8 C 0.3019(6) 0.5891(5) -0.0097(3)
H4 H 0.3855 0.5802 -0.0124
C9 C -0.0498(6) 0.4483(6) 0.1569(3)
H5 H -0.0155 0.3828 0.1555
C10 C -0.0300(6) 0.6248(6) 0.1610(3)
H6 H 0.0168 0.6844 0.1632
N4 N 0.7657(5) 0.1927(5) -0.0446(2)
C11 C 0.1233(6) 0.5459(5) 0.0291(3)
H7 H 0.0804 0.5052 0.0528
C12 C 0.6810(6) 0.2495(6) -0.0668(3)
H8 H 0.6600 0.2357 -0.1015
C13 C 0.3978(7) 0.1377(5) 0.2529(3)
H9 H 0.3561 0.0760 0.2483
C14 C -0.1715(6) 0.4588(5) 0.1572(3)
H10 H -0.2199 0.4000 0.1575
C15 C 0.1251(6) 0.6763(5) -0.0345(3)
C16 C 0.5858(6) 0.4260(5) 0.0403(2)
C17 C 0.6536(6) 0.3498(5) 0.0083(3)
C18 C 0.7458(7) 0.2967(7) 0.0301(3)
H11 H 0.7748 0.3146 0.0632
C19 C 0.0612(6) 0.6182(6) 0.0006(3)
H12 H -0.0219 0.6276 0.0051
C20 C 0.7963(7) 0.2159(7) 0.0030(3)
H13 H 0.8551 0.1761 0.0196
C21 C 0.4832(6) 0.3659(5) 0.1730(3)
C22 C -0.1550(7) 0.6313(6) 0.1602(3)
H14 H -0.1915 0.6959 0.1621
C23 C 0.6237(6) 0.3264(5) -0.0416(3)
H15 H 0.5632 0.3637 -0.0587
C24 C 0.5050(8) 0.2447(6) 0.3039(3)
H16 H 0.5397 0.2604 0.3362
O9 O 0.4073(4) 0.5742(3) 0.11338(17)
H17 H 0.3584 0.5917 0.1437
H18 H 0.3999 0.6301 0.0884
Co1B Co 0.83853(7) 0.06092(7) -0.07952(3)
Co2B Co 0.09198(7) 0.93849(7) -0.13693(3)
Co2_2 Co -0.40802(7) 0.56151(7) 0.13693(3)
Co2C Co 0.40802(7) 0.06151(7) 0.36307(3)
O6B O 0.6310(4) 0.6870(4) 0.09271(19)
N1_2 N 0.7765(5) 0.5494(4) 0.1570(2)
N2C N 0.5581(4) 0.6581(4) 0.2011(2)
N4B N 0.2657(5) 0.3073(5) 0.0446(2)
C25 C 0.1104(17) 0.8667(13) 0.0753(9)
N5 N 0.0206(18) 0.8588(17) 0.0951(8)
C26 C 0.2202(14) 0.8836(14) 0.0499(8)
H19 H 0.2638 0.8198 0.0472
H20 H 0.2675 0.9323 0.0696
H21 H 0.2052 0.9105 0.0155
C27 C 0.5232(17) 0.1274(14) 0.0766(7)
H22 H 0.6040 0.1188 0.0632
H23 H 0.5204 0.1871 0.0989
H24 H 0.4677 0.1362 0.0480
C28 C 0.490(2) 0.0399(12) 0.1055(7)
N6 N 0.447(2) -0.0236(14) 0.1319(7)
N7 N -0.145(3) 0.848(2) 0.2400(12)
C29 C -0.216(3) 0.914(4) 0.2220(14)
C30 C -0.302(2) 0.992(3) 0.2098(13)
H25 H -0.2988 1.0064 0.1729
H26 H -0.2820 1.0536 0.2289
H27 H -0.3815 0.9694 0.2192
loop_
_geom_bond_atom_site_label_1
_geom_bond_atom_site_label_2
_geom_bond_site_symmetry_1
_geom_bond_site_symmetry_2
Co1 O1 1_555 1_555
Co2 O3 1_555 1_555
O1 C16 1_555 1_555
O2 Co1 1_555 1_555
O3 C21 1_555 1_555
O4 Co2 1_555 1_555
O5 Co1 1_555 1_555
O6 C6 1_555 1_555
C1 O5 1_555 1_555
N1 C14 1_555 1_555
N2 C13 1_555 1_555
C2 C1 1_555 1_555
O7 C1 1_555 1_555
N3 Co1 1_555 1_555
O8 C6 1_555 1_555
C3 C4 1_555 1_555
C4 H1 1_555 1_555
C5 C3 1_555 1_555
H2 C5 1_555 1_555
C6 C15 1_555 1_555
C7 H3 1_555 1_555
C8 N3 1_555 1_555
H4 C8 1_555 1_555
C9 C2 1_555 1_555
H5 C9 1_555 1_555
C10 C2 1_555 1_555
H6 C10 1_555 1_555
N4 C12 1_555 1_555
C11 N3 1_555 1_555
H7 C11 1_555 1_555
C12 H8 1_555 1_555
C13 C4 1_555 1_555
H9 C13 1_555 1_555
C14 C9 1_555 1_555
H10 C14 1_555 1_555
C15 C7 1_555 1_555
C16 O4 1_555 1_555
C17 C16 1_555 1_555
C18 C17 1_555 1_555
H11 C18 1_555 1_555
C19 C11 1_555 1_555
H12 C19 1_555 1_555
C20 N4 1_555 1_555
H13 C20 1_555 1_555
C21 O2 1_555 1_555
C22 N1 1_555 1_555
H14 C22 1_555 1_555
C23 C12 1_555 1_555
H15 C23 1_555 1_555
C24 N2 1_555 1_555
H16 C24 1_555 1_555
O9 Co1 1_555 1_555
H17 O9 1_555 1_555
H18 O9 1_555 1_555
C25 N5 1_555 1_555
C26 C25 1_555 1_555
H19 C26 1_555 1_555
H20 C26 1_555 1_555
H21 C26 1_555 1_555
C27 H22 1_555 1_555
H23 C27 1_555 1_555
H24 C27 1_555 1_555
C28 C27 1_555 1_555
N6 C28 1_555 1_555
N7 C29 1_555 1_555
C29 C30 1_555 1_555
C30 H25 1_555 1_555
H26 C30 1_555 1_555
H27 C30 1_555 1_555
Co1B N4 1_555 1_555
Co2B O6 1_555 1_555
Co2_2 N1 1_555 1_555
Co2C N2 1_555 1_555
O6B Co2 1_555 1_555
N1_2 Co2 1_555 1_555
N2C Co2 1_555 1_555
N4B Co1 1_555 1_555
Co2 O9 1_555 1_555
C3 C21 1_555 1_555
C5 C24 1_555 1_555
C7 C8 1_555 1_555
C10 C22 1_555 1_555
C15 C19 1_555 1_555
C17 C23 1_555 1_555
C18 C20 1_555 1_555

#END
