
#######################################################################
#
#                 Cambridge Crystallographic Data Centre
#                                CCDC 
#
#######################################################################
#
# If this CIF has been generated from an entry in the Cambridge 
# Structural Database, then it will include bibliographic, chemical, 
# crystal, experimental, refinement or atomic coordinate data resulting 
# from the CCDC's data processing and validation procedures.
#
#######################################################################

data_CUTKOS
_chemical_formula_moiety         '(C60 H40 N4 O12 Zn3)n'
_symmetry_cell_setting           monoclinic
_symmetry_space_group_name_H-M   'P 2/n'
_symmetry_Int_Tables_number      13
_space_group_name_Hall           '-P 2yac'
loop_
_symmetry_equiv_pos_site_id
_symmetry_equiv_pos_as_xyz
1 x,y,z
2 1/2-x,y,1/2-z
3 -x,-y,-z
4 1/2+x,-y,1/2+z
_cell_length_a                   12.321(3)
_cell_length_b                   10.609(3)
_cell_length_c                   25.816(7)
_cell_angle_alpha                90
_cell_angle_beta                 91.739(4)
_cell_angle_gamma                90
_cell_volume                     3372.95
loop_
_atom_site_label
_atom_site_type_symbol
_atom_site_fract_x
_atom_site_fract_y
_atom_site_fract_z
Zn1 Zn 0.5000 0.5000 0.5000
Zn2 Zn 0.41965(5) 0.23504(6) 0.44174(2)
N1 N 0.2474(4) 0.2538(6) 0.4180(2)
N2 N 0.3777(4) 0.0530(5) 0.41943(17)
O1 O 0.6262(3) 0.3814(4) 0.48490(15)
O2 O 0.5727(3) 0.1871(4) 0.46253(15)
O3 O 0.3914(3) 0.3508(3) 0.50153(14)
O4 O 0.3341(3) 0.1731(4) 0.53622(16)
O5 O -0.0371(3) 0.4793(4) 0.91978(15)
O6 O -0.0360(4) 0.6657(4) 0.87945(15)
C1 C -0.0238(5) 0.5470(7) 0.8814(2)
C2 C 0.0109(5) 0.4823(7) 0.8331(2)
H1 H 0.0098 0.3947 0.8329
C3 C 0.0424(5) 0.5386(7) 0.7914(2)
H2 H 0.0372 0.6260 0.7912
C4 C 0.0850(6) 0.4811(7) 0.7447(2)
C5 C 0.1323(6) 0.5551(7) 0.7076(2)
H3 H 0.1322 0.6422 0.7115
C6 C 0.1794(5) 0.5031(7) 0.6652(2)
H4 H 0.2119 0.5551 0.6411
C7 C 0.1790(6) 0.3738(7) 0.6578(2)
C8 C 0.1287(7) 0.2988(8) 0.6940(3)
H5 H 0.1256 0.2119 0.6893
C9 C 0.0829(7) 0.3528(8) 0.7371(3)
H6 H 0.0502 0.3014 0.7613
C10 C 0.3434(5) 0.2880(6) 0.5371(2)
C11 C 0.2908(5) 0.3641(6) 0.5780(2)
H7 H 0.2987 0.4512 0.5775
C12 C 0.2332(5) 0.3119(7) 0.6148(2)
H8 H 0.2263 0.2247 0.6132
C13 C 0.6438(5) 0.2673(6) 0.4765(2)
C14 C 0.7569(5) 0.2242(6) 0.4845(2)
H9 H 0.8099 0.2846 0.4918
C15 C 0.7879(5) 0.1038(6) 0.4819(2)
H10 H 0.7343 0.0455 0.4728
C16 C 0.8974(5) 0.0538(6) 0.4917(2)
C17 C 0.9143(5) -0.0734(6) 0.4826(3)
H11 H 0.8566 -0.1238 0.4712
C18 C 0.9843(5) 0.1259(6) 0.5095(3)
H12 H 0.9741 0.2110 0.5164
C19 C 0.1831(7) 0.3554(8) 0.4196(3)
H13 H 0.2108 0.4301 0.4335
C20 C 0.0756(7) 0.3522(10) 0.4009(4)
H14 H 0.0329 0.4244 0.4015
C21 C 0.0334(7) 0.2406(12) 0.3817(4)
H15 H -0.0388 0.2369 0.3701
C22 C 0.0980(7) 0.1343(9) 0.3795(3)
C23 C 0.2057(5) 0.1463(7) 0.3992(3)
C24 C 0.2756(6) 0.0363(6) 0.3996(2)
C25 C 0.2345(7) -0.0811(7) 0.3816(3)
C26 C 0.3061(7) -0.1824(7) 0.3847(3)
H16 H 0.2842 -0.2611 0.3725
C27 C 0.4083(7) -0.1669(7) 0.4055(3)
H17 H 0.4554 -0.2352 0.4084
C28 C 0.4416(6) -0.0476(6) 0.4224(2)
H18 H 0.5117 -0.0382 0.4362
C29 C 0.0601(8) 0.0136(11) 0.3610(4)
H19 H -0.0111 0.0048 0.3486
C30 C 0.1264(8) -0.0855(10) 0.3617(4)
H20 H 0.1002 -0.1615 0.3484
Zn1A Zn 0.0000 0.5000 1.0000
Zn1_2 Zn 1.5000 -0.5000 0.5000
Zn1A_2 Zn 1.0000 0.5000 0.0000
Zn2B Zn 1.58035(5) -0.23504(6) 0.55826(2)
Zn2C Zn -0.08035(5) 0.76496(6) 0.94174(2)
Zn2B_2 Zn 0.58035(5) 0.76496(6) 0.55826(2)
Zn2A Zn 1.08035(5) 0.23504(6) 0.05826(2)
N1B N 1.7526(4) -0.2538(6) 0.5820(2)
N2B N 1.6223(4) -0.0530(5) 0.58057(17)
O1B O 1.3738(3) -0.3814(4) 0.51510(15)
O1B_2 O 0.3738(3) 0.6186(4) 0.51510(15)
O2B O 1.4273(3) -0.1871(4) 0.53747(15)
O3B O 0.6086(3) 0.6492(3) 0.49847(14)
O3B_2 O 1.6086(3) -0.3508(3) 0.49847(14)
O4B O 0.6659(3) 0.8269(4) 0.46378(16)
O5B O 1.0371(3) 0.5207(4) 0.08022(15)
O5A O 0.5371(3) 0.4793(4) 0.58022(15)
O5C O 0.4629(3) 0.5207(4) 0.41978(15)
O6B O 1.0360(4) 0.3343(4) 0.12055(15)
O6C O 0.4640(4) 0.3343(4) 0.37945(15)
O6A O 1.5360(4) -0.3343(4) 0.62055(15)
C1B C 1.0238(5) 0.4530(7) 0.1186(2)
C2B C 0.9891(5) 0.5177(7) 0.1669(2)
H1B H 0.9902 0.6053 0.1671
C3B C 0.9576(5) 0.4614(7) 0.2086(2)
H2B H 0.9628 0.3740 0.2088
C4B C 0.9150(6) 0.5189(7) 0.2553(2)
C5B C 0.8677(6) 0.4449(7) 0.2924(2)
H3B H 0.8678 0.3578 0.2885
C6B C 0.8206(5) 0.4969(7) 0.3348(2)
H4B H 0.7881 0.4449 0.3589
C7B C 0.8210(6) 0.6262(7) 0.3422(2)
C8B C 0.8713(7) 0.7012(8) 0.3060(3)
H5B H 0.8744 0.7881 0.3107
C9B C 0.9171(7) 0.6472(8) 0.2629(3)
H6B H 0.9498 0.6986 0.2387
C10B C 0.6566(5) 0.7120(6) 0.4629(2)
C11B C 0.7092(5) 0.6359(6) 0.4220(2)
H7B H 0.7013 0.5488 0.4225
C12B C 0.7668(5) 0.6881(7) 0.3852(2)
H8B H 0.7737 0.7753 0.3868
C13B C 1.3562(5) -0.2673(6) 0.5235(2)
C14B C 1.2431(5) -0.2242(6) 0.5155(2)
H9B H 1.1901 -0.2846 0.5082
C15B C 1.2121(5) -0.1038(6) 0.5181(2)
H10B H 1.2657 -0.0455 0.5272
C16B C 1.1026(5) -0.0538(6) 0.5083(2)
C17B C 1.0857(5) 0.0734(6) 0.5174(3)
H11B H 1.1434 0.1238 0.5288
C18B C 1.0157(5) -0.1259(6) 0.4905(3)
H12B H 1.0259 -0.2110 0.4836
C19B C 1.8169(7) -0.3554(8) 0.5804(3)
H13B H 1.7892 -0.4301 0.5665
C20B C 1.9244(7) -0.3522(10) 0.5991(4)
H14B H 1.9671 -0.4244 0.5985
C21B C 1.9666(7) -0.2406(12) 0.6183(4)
H15B H 2.0388 -0.2369 0.6299
C22B C 1.9020(7) -0.1343(9) 0.6205(3)
C23B C 1.7943(5) -0.1463(7) 0.6008(3)
C24B C 1.7244(6) -0.0363(6) 0.6004(2)
C25B C 1.7655(7) 0.0811(7) 0.6184(3)
C26B C 1.6939(7) 0.1824(7) 0.6153(3)
H16B H 1.7158 0.2611 0.6275
C27B C 1.5917(7) 0.1669(7) 0.5945(3)
H17B H 1.5446 0.2352 0.5916
C28B C 1.5584(6) 0.0476(6) 0.5776(2)
H18B H 1.4883 0.0382 0.5638
C29B C 1.9399(8) -0.0136(11) 0.6390(4)
H19B H 2.0111 -0.0048 0.6514
C30B C 1.8736(8) 0.0855(10) 0.6383(4)
H20B H 1.8998 0.1615 0.6516
loop_
_geom_bond_atom_site_label_1
_geom_bond_atom_site_label_2
_geom_bond_site_symmetry_1
_geom_bond_site_symmetry_2
Zn1 O1 1_555 1_555
Zn2 N1 1_555 1_555
N1 C19 1_555 1_555
N2 Zn2 1_555 1_555
O1 C13 1_555 1_555
O2 Zn2 1_555 1_555
O3 Zn1 1_555 1_555
O4 C10 1_555 1_555
O5 C1 1_555 1_555
O6 C1 1_555 1_555
C1 C2 1_555 1_555
C2 H1 1_555 1_555
C3 C2 1_555 1_555
H2 C3 1_555 1_555
C4 C3 1_555 1_555
C5 C4 1_555 1_555
H3 C5 1_555 1_555
C6 C5 1_555 1_555
H4 C6 1_555 1_555
C7 C6 1_555 1_555
C8 C7 1_555 1_555
H5 C8 1_555 1_555
C9 C4 1_555 1_555
H6 C9 1_555 1_555
C10 O3 1_555 1_555
C11 C10 1_555 1_555
H7 C11 1_555 1_555
C12 C7 1_555 1_555
H8 C12 1_555 1_555
C13 O2 1_555 1_555
C14 C13 1_555 1_555
H9 C14 1_555 1_555
C15 C14 1_555 1_555
H10 C15 1_555 1_555
C16 C15 1_555 1_555
C17 C16 1_555 1_555
H11 C17 1_555 1_555
C18 C16 1_555 1_555
H12 C18 1_555 1_555
C19 H13 1_555 1_555
C20 C19 1_555 1_555
H14 C20 1_555 1_555
C21 C20 1_555 1_555
H15 C21 1_555 1_555
C22 C21 1_555 1_555
C23 N1 1_555 1_555
C24 N2 1_555 1_555
C25 C24 1_555 1_555
C26 C25 1_555 1_555
H16 C26 1_555 1_555
C27 C26 1_555 1_555
H17 C27 1_555 1_555
C28 N2 1_555 1_555
H18 C28 1_555 1_555
C29 C22 1_555 1_555
H19 C29 1_555 1_555
C30 C25 1_555 1_555
H20 C30 1_555 1_555
Zn1A O5 1_555 1_555
Zn1_2 O1B 1_555 1_555
Zn1A_2 O5B 1_555 1_555
Zn2B N1B 1_555 1_555
Zn2C O6 1_555 1_555
Zn2B_2 O3B 1_555 1_555
Zn2A O6B 1_555 1_555
N1B C19B 1_555 1_555
N2B Zn2B 1_555 1_555
O1B C13B 1_555 1_555
O1B_2 Zn1 1_555 1_555
O2B Zn2B 1_555 1_555
O3B Zn1 1_555 1_555
O3B_2 Zn1_2 1_555 1_555
O4B C10B 1_555 1_555
O5B C1B 1_555 1_555
O5A Zn1 1_555 1_555
O5C Zn1 1_555 1_555
O6B C1B 1_555 1_555
O6C Zn2 1_555 1_555
O6A Zn2B 1_555 1_555
C1B C2B 1_555 1_555
C2B H1B 1_555 1_555
C3B C2B 1_555 1_555
H2B C3B 1_555 1_555
C4B C3B 1_555 1_555
C5B C4B 1_555 1_555
H3B C5B 1_555 1_555
C6B C5B 1_555 1_555
H4B C6B 1_555 1_555
C7B C6B 1_555 1_555
C8B C7B 1_555 1_555
H5B C8B 1_555 1_555
C9B C4B 1_555 1_555
H6B C9B 1_555 1_555
C10B O3B 1_555 1_555
C11B C10B 1_555 1_555
H7B C11B 1_555 1_555
C12B C7B 1_555 1_555
H8B C12B 1_555 1_555
C13B O2B 1_555 1_555
C14B C13B 1_555 1_555
H9B C14B 1_555 1_555
C15B C14B 1_555 1_555
H10B C15B 1_555 1_555
C16B C15B 1_555 1_555
C17B C18 1_555 1_555
H11B C17B 1_555 1_555
C18B C17 1_555 1_555
H12B C18B 1_555 1_555
C19B H13B 1_555 1_555
C20B C19B 1_555 1_555
H14B C20B 1_555 1_555
C21B C20B 1_555 1_555
H15B C21B 1_555 1_555
C22B C21B 1_555 1_555
C23B N1B 1_555 1_555
C24B N2B 1_555 1_555
C25B C24B 1_555 1_555
C26B C25B 1_555 1_555
H16B C26B 1_555 1_555
C27B C26B 1_555 1_555
H17B C27B 1_555 1_555
C28B N2B 1_555 1_555
H18B C28B 1_555 1_555
C29B C22B 1_555 1_555
H19B C29B 1_555 1_555
C30B C25B 1_555 1_555
H20B C30B 1_555 1_555
Zn2 O3 1_555 1_555
C8 C9 1_555 1_555
C11 C12 1_555 1_555
C22 C23 1_555 1_555
C23 C24 1_555 1_555
C27 C28 1_555 1_555
C29 C30 1_555 1_555
Zn2B O3B_2 1_555 1_555
C8B C9B 1_555 1_555
C11B C12B 1_555 1_555
C16B C17B 1_555 1_555
C16B C18B 1_555 1_555
C22B C23B 1_555 1_555
C23B C24B 1_555 1_555
C27B C28B 1_555 1_555
C29B C30B 1_555 1_555

#END
