
#######################################################################
#
#                 Cambridge Crystallographic Data Centre
#                                CCDC 
#
#######################################################################
#
# If this CIF has been generated from an entry in the Cambridge 
# Structural Database, then it will include bibliographic, chemical, 
# crystal, experimental, refinement or atomic coordinate data resulting 
# from the CCDC's data processing and validation procedures.
#
#######################################################################

data_LIZSIY
_chemical_formula_moiety         '(C46 H44 Cd3 N8 O12)n'
_symmetry_cell_setting           monoclinic
_symmetry_space_group_name_H-M   'C 2/c'
_symmetry_Int_Tables_number      15
_space_group_name_Hall           '-C 2yc'
loop_
_symmetry_equiv_pos_site_id
_symmetry_equiv_pos_as_xyz
1 x,y,z
2 -x,y,1/2-z
3 1/2+x,1/2+y,z
4 1/2-x,1/2+y,1/2-z
5 -x,-y,-z
6 x,-y,1/2+z
7 1/2-x,1/2-y,-z
8 1/2+x,1/2-y,1/2+z
_cell_length_a                   29.401(3)
_cell_length_b                   13.3519(11)
_cell_length_c                   15.8465(13)
_cell_angle_alpha                90
_cell_angle_beta                 90.878(2)
_cell_angle_gamma                90
_cell_volume                     6219.96
loop_
_atom_site_label
_atom_site_type_symbol
_atom_site_fract_x
_atom_site_fract_y
_atom_site_fract_z
Cd1 Cd 0.117245(16) 0.30779(3) 0.23425(3)
Cd2 Cd 0.0000 0.22595(6) 0.2500
N1 N 0.1348(2) 0.4187(5) 0.3428(4)
N2 N 0.1465(2) 0.5480(5) 0.4267(4)
N3 N 0.3082(2) 0.8144(4) 0.3127(4)
N4 N 0.2378(2) 0.7826(5) 0.3436(5)
O1 O 0.06324(17) 0.2277(3) 0.3396(3)
O2 O 0.1334(2) 0.1721(4) 0.3267(3)
O3 O 0.03745(19) 0.3547(4) 0.1861(3)
O4 O 0.09736(18) 0.4324(4) 0.1357(3)
O5 O 0.1027(2) -0.1896(4) 0.6326(4)
O6 O 0.0364(2) -0.1162(4) 0.6704(3)
C1 C 0.0947(3) 0.1690(5) 0.3602(4)
C2 C 0.0879(3) 0.0929(5) 0.4262(4)
C3 C 0.0531(3) 0.0997(6) 0.4813(5)
H1 H 0.0321 0.1514 0.4755
C4 C 0.0484(3) 0.0316(6) 0.5456(5)
H2 H 0.0249 0.0395 0.5835
C5 C 0.0777(3) -0.0479(5) 0.5552(4)
C6 C 0.1119(3) -0.0586(6) 0.4980(5)
H3 H 0.1320 -0.1122 0.5023
C7 C 0.1162(3) 0.0105(7) 0.4347(6)
H4 H 0.1392 0.0016 0.3957
C8 C 0.0722(3) -0.1238(5) 0.6247(5)
C9 C 0.0560(3) 0.4124(5) 0.1323(4)
C10 C 0.0263(2) 0.4576(5) 0.0646(4)
C11 C -0.0178(2) 0.4250(5) 0.0497(4)
H5 H -0.0298 0.3748 0.0834
C12 C 0.0441(3) 0.5347(5) 0.0139(4)
H6 H 0.0735 0.5581 0.0236
C13 C 0.1657(3) 0.3929(7) 0.4047(5)
H7 H 0.1790 0.3301 0.4104
C14 C 0.1236(3) 0.5131(6) 0.3585(4)
C15 C 0.0886(4) 0.5701(7) 0.3120(7)
H8 H 0.1010 0.5948 0.2603
H9 H 0.0788 0.6254 0.3459
H10 H 0.0632 0.5272 0.2995
C16 C 0.1740(4) 0.4715(7) 0.4564(6)
H11 H 0.1940 0.4736 0.5023
C17 C 0.1452(3) 0.6470(6) 0.4660(5)
H12 H 0.1412 0.6397 0.5264
H13 H 0.1195 0.6844 0.4435
C18 C 0.1898(3) 0.7059(6) 0.4494(6)
H14 H 0.1897 0.7671 0.4823
H15 H 0.2156 0.6659 0.4682
C19 C 0.1953(3) 0.7315(7) 0.3582(6)
H16 H 0.1942 0.6706 0.3249
H17 H 0.1702 0.7740 0.3399
C20 C 0.2436(3) 0.8864(7) 0.3450(6)
H18 H 0.2216 0.9341 0.3568
C21 C 0.2873(3) 0.9038(6) 0.3260(5)
H19 H 0.3009 0.9665 0.3225
C22 C 0.2775(3) 0.7423(5) 0.3230(5)
C23 C 0.2875(3) 0.6339(6) 0.3197(6)
H20 H 0.2792 0.6032 0.3721
H21 H 0.3194 0.6241 0.3107
H22 H 0.2704 0.6038 0.2743
O3D O -0.03745(19) 0.6453(4) -0.1861(3)
O4D O -0.09736(18) 0.5676(4) -0.1357(3)
C9D C -0.0560(3) 0.5876(5) -0.1323(4)
C10D C -0.0263(2) 0.5424(5) -0.0646(4)
C11D C 0.0178(2) 0.5750(5) -0.0497(4)
H5D H 0.0298 0.6252 -0.0834
C12D C -0.0441(3) 0.4653(5) -0.0139(4)
H6D H -0.0735 0.4419 -0.0236
Cd1A Cd -0.117245(16) 0.30779(3) 0.26575(3)
N1A N -0.1348(2) 0.4187(5) 0.1572(4)
N2A N -0.1465(2) 0.5480(5) 0.0733(4)
N3A N -0.3082(2) 0.8144(4) 0.1873(4)
N4A N -0.2378(2) 0.7826(5) 0.1564(5)
O1A O -0.06324(17) 0.2277(3) 0.1604(3)
O2A O -0.1334(2) 0.1721(4) 0.1733(3)
O5A O -0.1027(2) -0.1896(4) -0.1326(4)
O6A O -0.0364(2) -0.1162(4) -0.1704(3)
C1A C -0.0947(3) 0.1690(5) 0.1398(4)
C2A C -0.0879(3) 0.0929(5) 0.0738(4)
C3A C -0.0531(3) 0.0997(6) 0.0187(5)
H1A H -0.0321 0.1514 0.0245
C4A C -0.0484(3) 0.0316(6) -0.0456(5)
H2A H -0.0249 0.0395 -0.0835
C5A C -0.0777(3) -0.0479(5) -0.0552(4)
C6A C -0.1119(3) -0.0586(6) 0.0020(5)
H3A H -0.1320 -0.1122 -0.0023
C7A C -0.1162(3) 0.0105(7) 0.0653(6)
H4A H -0.1392 0.0016 0.1043
C8A C -0.0722(3) -0.1238(5) -0.1247(5)
C13A C -0.1657(3) 0.3929(7) 0.0953(5)
H7A H -0.1790 0.3301 0.0896
C14A C -0.1236(3) 0.5131(6) 0.1415(4)
C15A C -0.0886(4) 0.5701(7) 0.1880(7)
H8A H -0.1010 0.5948 0.2397
H9A H -0.0788 0.6254 0.1541
H10A H -0.0632 0.5272 0.2005
C16A C -0.1740(4) 0.4715(7) 0.0436(6)
H11A H -0.1940 0.4736 -0.0023
C17A C -0.1452(3) 0.6470(6) 0.0340(5)
H12A H -0.1412 0.6397 -0.0264
H13A H -0.1195 0.6844 0.0565
C18A C -0.1898(3) 0.7059(6) 0.0506(6)
H14A H -0.1897 0.7671 0.0177
H15A H -0.2156 0.6659 0.0318
C19A C -0.1953(3) 0.7315(7) 0.1418(6)
H16A H -0.1942 0.6706 0.1751
H17A H -0.1702 0.7740 0.1601
C20A C -0.2436(3) 0.8864(7) 0.1550(6)
H18A H -0.2216 0.9341 0.1432
C21A C -0.2873(3) 0.9038(6) 0.1740(5)
H19A H -0.3009 0.9665 0.1775
C22A C -0.2775(3) 0.7423(5) 0.1770(5)
C23A C -0.2875(3) 0.6339(6) 0.1803(6)
H20A H -0.2792 0.6032 0.1279
H21A H -0.3194 0.6241 0.1893
H22A H -0.2704 0.6038 0.2257
Cd1B Cd -0.382755(16) 0.80779(3) 0.23425(3)
Cd1C Cd 0.382755(16) 0.80779(3) 0.26575(3)
Cd1D Cd -0.117245(16) -0.30779(3) -0.23425(3)
Cd1D_2 Cd -0.117245(16) 0.69221(3) -0.23425(3)
Cd1E Cd 0.117245(16) -0.30779(3) 0.73425(3)
Cd2D Cd 0.0000 -0.22595(6) -0.2500
Cd2D_2 Cd -0.0000 -0.22595(6) 0.7500
Cd2D_3 Cd 0.0000 0.77405(6) -0.2500
N3B N -0.1918(2) 0.3144(4) 0.3127(4)
N3C N 0.1918(2) 0.3144(4) 0.1873(4)
O3A O -0.03745(19) 0.3547(4) 0.3139(3)
O4A O -0.09736(18) 0.4324(4) 0.3643(3)
O5D O -0.1027(2) 0.1896(4) 0.3674(4)
O5E O 0.1027(2) 0.1896(4) 0.1326(4)
O6D O -0.0364(2) 0.1162(4) 0.3296(3)
O6E O 0.0364(2) 0.1162(4) 0.1704(3)
loop_
_geom_bond_atom_site_label_1
_geom_bond_atom_site_label_2
_geom_bond_site_symmetry_1
_geom_bond_site_symmetry_2
Cd1 N1 1_555 1_555
Cd2 O1 1_555 1_555
N1 C13 1_555 1_555
N2 C14 1_555 1_555
N3 C21 1_555 1_555
N4 C19 1_555 1_555
O1 C1 1_555 1_555
O2 Cd1 1_555 1_555
O3 Cd2 1_555 1_555
O4 Cd1 1_555 1_555
O5 C8 1_555 1_555
O6 C8 1_555 1_555
C1 O2 1_555 1_555
C2 C1 1_555 1_555
C3 C2 1_555 1_555
H1 C3 1_555 1_555
C4 C3 1_555 1_555
H2 C4 1_555 1_555
C5 C4 1_555 1_555
C6 C5 1_555 1_555
H3 C6 1_555 1_555
C7 C2 1_555 1_555
H4 C7 1_555 1_555
C8 C5 1_555 1_555
C9 O3 1_555 1_555
C10 C9 1_555 1_555
C11 C10 1_555 1_555
H5 C11 1_555 1_555
C12 C10 1_555 1_555
H6 C12 1_555 1_555
C13 H7 1_555 1_555
C14 N1 1_555 1_555
C15 C14 1_555 1_555
H8 C15 1_555 1_555
H9 C15 1_555 1_555
H10 C15 1_555 1_555
C16 N2 1_555 1_555
H11 C16 1_555 1_555
C17 N2 1_555 1_555
H12 C17 1_555 1_555
H13 C17 1_555 1_555
C18 C17 1_555 1_555
H14 C18 1_555 1_555
H15 C18 1_555 1_555
C19 C18 1_555 1_555
H16 C19 1_555 1_555
H17 C19 1_555 1_555
C20 N4 1_555 1_555
H18 C20 1_555 1_555
C21 C20 1_555 1_555
H19 C21 1_555 1_555
C22 N3 1_555 1_555
C23 C22 1_555 1_555
H20 C23 1_555 1_555
H21 C23 1_555 1_555
H22 C23 1_555 1_555
O3D C9D 1_555 1_555
O4D C9D 1_555 1_555
C9D C10D 1_555 1_555
C10D C11D 1_555 1_555
C11D C12 1_555 1_555
H5D C11D 1_555 1_555
C12D C11 1_555 1_555
H6D C12D 1_555 1_555
Cd1A N1A 1_555 1_555
N1A C13A 1_555 1_555
N2A C14A 1_555 1_555
N3A C21A 1_555 1_555
N4A C19A 1_555 1_555
O1A Cd2 1_555 1_555
O2A Cd1A 1_555 1_555
O5A C8A 1_555 1_555
O6A C8A 1_555 1_555
C1A O1A 1_555 1_555
C2A C1A 1_555 1_555
C3A C2A 1_555 1_555
H1A C3A 1_555 1_555
C4A C3A 1_555 1_555
H2A C4A 1_555 1_555
C5A C4A 1_555 1_555
C6A C5A 1_555 1_555
H3A C6A 1_555 1_555
C7A C2A 1_555 1_555
H4A C7A 1_555 1_555
C8A C5A 1_555 1_555
C13A H7A 1_555 1_555
C14A N1A 1_555 1_555
C15A C14A 1_555 1_555
H8A C15A 1_555 1_555
H9A C15A 1_555 1_555
H10A C15A 1_555 1_555
C16A N2A 1_555 1_555
H11A C16A 1_555 1_555
C17A N2A 1_555 1_555
H12A C17A 1_555 1_555
H13A C17A 1_555 1_555
C18A C17A 1_555 1_555
H14A C18A 1_555 1_555
H15A C18A 1_555 1_555
C19A C18A 1_555 1_555
H16A C19A 1_555 1_555
H17A C19A 1_555 1_555
C20A N4A 1_555 1_555
H18A C20A 1_555 1_555
C21A C20A 1_555 1_555
H19A C21A 1_555 1_555
C22A N3A 1_555 1_555
C23A C22A 1_555 1_555
H20A C23A 1_555 1_555
H21A C23A 1_555 1_555
H22A C23A 1_555 1_555
Cd1B N3A 1_555 1_555
Cd1C N3 1_555 1_555
Cd1D O5A 1_555 1_555
Cd1D_2 O4D 1_555 1_555
Cd1E O5 1_555 1_555
Cd2D O6A 1_555 1_555
Cd2D_2 O6 1_555 1_555
Cd2D_3 O3D 1_555 1_555
N3B Cd1A 1_555 1_555
N3C Cd1 1_555 1_555
O3A Cd2 1_555 1_555
O4A Cd1A 1_555 1_555
O5D Cd1A 1_555 1_555
O5E Cd1 1_555 1_555
O6D Cd2 1_555 1_555
O6E Cd2 1_555 1_555
N4 C22 1_555 1_555
O4 C9 1_555 1_555
C6 C7 1_555 1_555
C13 C16 1_555 1_555
C10D C12D 1_555 1_555
N4A C22A 1_555 1_555
O2A C1A 1_555 1_555
C6A C7A 1_555 1_555
C13A C16A 1_555 1_555

#END
