
#######################################################################
#
#                 Cambridge Crystallographic Data Centre
#                                CCDC 
#
#######################################################################
#
# If this CIF has been generated from an entry in the Cambridge 
# Structural Database, then it will include bibliographic, chemical, 
# crystal, experimental, refinement or atomic coordinate data resulting 
# from the CCDC's data processing and validation procedures.
#
#######################################################################

data_LIZSOE
_chemical_formula_moiety         '(C53 H40 Co3 N4 O12)n'
_symmetry_cell_setting           orthorhombic
_symmetry_space_group_name_H-M   'P b c n'
_symmetry_Int_Tables_number      60
_space_group_name_Hall           '-P 2n 2ab'
loop_
_symmetry_equiv_pos_site_id
_symmetry_equiv_pos_as_xyz
1 x,y,z
2 1/2-x,1/2-y,1/2+z
3 -x,y,1/2-z
4 1/2+x,1/2-y,-z
5 -x,-y,-z
6 1/2+x,1/2+y,1/2-z
7 x,-y,1/2+z
8 1/2-x,1/2+y,z
_cell_length_a                   13.9345(14)
_cell_length_b                   26.096(3)
_cell_length_c                   19.2265(19)
_cell_angle_alpha                90
_cell_angle_beta                 90
_cell_angle_gamma                90
_cell_volume                     6991.42
loop_
_atom_site_label
_atom_site_type_symbol
_atom_site_fract_x
_atom_site_fract_y
_atom_site_fract_z
Co1 Co 1.02263(5) 0.14303(3) 0.06568(4)
Co2 Co 1.0000 0.14389(3) 0.2500
O1 O 1.1006(3) 0.14350(15) 0.16889(19)
O2 O 0.5423(3) -0.29263(14) 0.0869(2)
O3 O 0.9541(3) 0.07934(15) 0.0864(2)
O4 O 0.9230(3) 0.08850(15) 0.1999(2)
O5 O 0.5735(3) -0.29785(16) 0.2005(2)
O6 O 1.1697(3) 0.14943(17) 0.0688(2)
C1 C 1.1763(4) 0.1481(2) 0.1343(3)
C2 C 0.5760(4) -0.2760(2) 0.1444(3)
C3 C 1.2709(4) 0.1511(2) 0.1686(3)
C4 C 0.6211(5) -0.2242(2) 0.1429(3)
C5 C 1.4514(4) 0.1540(3) 0.2327(3)
C6 C 0.7064(6) -0.1263(3) 0.1416(3)
C7 C 0.6435(6) -0.1998(2) 0.0823(3)
H1 H 0.6297 -0.2157 0.0402
C8 C 0.6867(6) -0.1517(2) 0.0822(3)
H2 H 0.7024 -0.1366 0.0399
C9 C 0.6816(7) -0.1508(3) 0.2027(4)
H3 H 0.6939 -0.1344 0.2447
C10 C 1.3684(5) 0.1484(3) 0.2724(4)
H4 H 1.3720 0.1461 0.3206
C11 C 1.4419(5) 0.1590(3) 0.1619(3)
H5 H 1.4968 0.1630 0.1350
C12 C 0.6397(7) -0.1983(3) 0.2036(4)
H6 H 0.6237 -0.2132 0.2460
C13 C 1.3534(5) 0.1582(3) 0.1293(3)
H7 H 1.3492 0.1625 0.0813
C14 C 0.9167(4) 0.0653(2) 0.1440(3)
C15 C 0.8586(6) 0.0169(2) 0.1426(3)
C16 C 0.8496(8) -0.0112(3) 0.0829(4)
H8 H 0.8789 0.0002 0.0423
C17 C 0.7974(8) -0.0564(3) 0.0822(4)
H9 H 0.7906 -0.0742 0.0406
C18 C 0.8164(6) -0.0009(3) 0.2007(4)
H10 H 0.8214 0.0177 0.2418
C19 C 1.2798(4) 0.1462(3) 0.2386(3)
H11 H 1.2247 0.1411 0.2651
C20 C 0.7556(6) -0.0754(3) 0.1414(3)
C21 C 0.7657(6) -0.0463(3) 0.2001(3)
H12 H 0.7373 -0.0576 0.2412
N1 N 0.9999(5) 0.1410(3) -0.0388(3)
C22 C 0.9620(8) 0.1017(4) -0.0769(4)
H13 H 0.9309 0.0727 -0.0600
C23 C 1.0370(8) 0.1742(4) -0.0840(5)
C24 C 1.0724(10) 0.2214(4) -0.0683(5)
H14 H 1.0746 0.2256 -0.0187
H15 H 1.0317 0.2473 -0.0881
H16 H 1.1360 0.2248 -0.0871
C25 C 1.0000 0.2041(9) -0.2500
H17 H 1.0283 0.2255 -0.2850
C26 C 0.9793(9) 0.1138(5) -0.1455(5)
H18 H 0.9615 0.0936 -0.1832
C27 C 1.0770(11) 0.1722(6) -0.2175(6)
H19 H 1.1351 0.1918 -0.2091
H20 H 1.0919 0.1421 -0.2450
N2 N 1.0254(8) 0.1586(5) -0.1502(4)
O1B O 1.8994(3) 0.14350(15) 0.33111(19)
O6B O 1.8303(3) 0.14943(17) 0.4312(2)
C1B C 1.8237(4) 0.1481(2) 0.3657(3)
C3B C 1.7291(4) 0.1511(2) 0.3314(3)
C5B C 1.5486(4) 0.1540(3) 0.2673(3)
C10B C 1.6316(5) 0.1484(3) 0.2276(4)
H4B H 1.6280 0.1461 0.1794
C11B C 1.5581(5) 0.1590(3) 0.3381(3)
H5B H 1.5032 0.1630 0.3650
C13B C 1.6466(5) 0.1582(3) 0.3707(3)
H7B H 1.6508 0.1625 0.4187
C19B C 1.7202(4) 0.1462(3) 0.2614(3)
H11B H 1.7753 0.1411 0.2349
N1B N 1.0001(5) 0.1410(3) -0.4612(3)
C22B C 1.0380(8) 0.1017(4) -0.4231(4)
H13B H 1.0691 0.0727 -0.4400
C23B C 0.9630(8) 0.1742(4) -0.4160(5)
C24B C 0.9276(10) 0.2214(4) -0.4317(5)
H14B H 0.9254 0.2256 -0.4813
H15B H 0.9683 0.2473 -0.4119
H16B H 0.8640 0.2248 -0.4129
H17B H 0.9717 0.2255 -0.2150
C26B C 1.0207(9) 0.1138(5) -0.3545(5)
H18B H 1.0385 0.0936 -0.3168
C27B C 0.9230(11) 0.1722(6) -0.2825(6)
H19B H 0.8649 0.1918 -0.2909
H20B H 0.9081 0.1421 -0.2550
N2B N 0.9746(8) 0.1586(5) -0.3498(4)
Co1B Co 0.97737(5) 0.14303(3) -0.56568(4)
O2B O 1.4577(3) -0.29263(14) -0.5869(2)
O3B O 1.0459(3) 0.07934(15) -0.5864(2)
O4B O 1.0770(3) 0.08850(15) -0.6999(2)
O5B O 1.4265(3) -0.29785(16) -0.7005(2)
C2B C 1.4240(4) -0.2760(2) -0.6444(3)
C4B C 1.3789(5) -0.2242(2) -0.6429(3)
C6B C 1.2936(6) -0.1263(3) -0.6416(3)
C7B C 1.3565(6) -0.1998(2) -0.5823(3)
H1B H 1.3703 -0.2157 -0.5402
C8B C 1.3133(6) -0.1517(2) -0.5822(3)
H2B H 1.2976 -0.1366 -0.5399
C9B C 1.3184(7) -0.1508(3) -0.7027(4)
H3B H 1.3061 -0.1344 -0.7447
C12B C 1.3603(7) -0.1983(3) -0.7036(4)
H6B H 1.3763 -0.2132 -0.7460
C14B C 1.0833(4) 0.0653(2) -0.6440(3)
C15B C 1.1414(6) 0.0169(2) -0.6426(3)
C16B C 1.1504(8) -0.0112(3) -0.5829(4)
H8B H 1.1211 0.0002 -0.5423
C17B C 1.2026(8) -0.0564(3) -0.5822(4)
H9B H 1.2094 -0.0742 -0.5406
C18B C 1.1836(6) -0.0009(3) -0.7007(4)
H10B H 1.1786 0.0177 -0.7418
C20B C 1.2444(6) -0.0754(3) -0.6414(3)
C21B C 1.2343(6) -0.0463(3) -0.7001(3)
H12B H 1.2627 -0.0576 -0.7412
Co1B_2 Co 1.97737(5) 0.14303(3) 0.43432(4)
Co1E Co 1.52263(5) -0.35697(3) -0.56568(4)
Co1G Co 0.47737(5) -0.35697(3) 0.06568(4)
Co2_2 Co 1.0000 0.14389(3) -0.7500
Co2_3 Co 2.0000 0.14389(3) 0.2500
Co2E Co 0.5000 -0.35611(3) 0.2500
Co2E_2 Co 1.5000 -0.35611(3) -0.7500
O1B_2 O 0.8994(3) 0.14350(15) -0.66889(19)
O1B_3 O 0.8994(3) 0.14350(15) 0.33111(19)
O2E O 1.0423(3) 0.20737(14) -0.5869(2)
O2G O 0.9577(3) 0.20737(14) 0.0869(2)
O4B_2 O 1.0770(3) 0.08850(15) 0.3001(2)
O5E O 1.0735(3) 0.20215(16) 0.2995(2)
O5G O 0.9265(3) 0.20215(16) 0.2005(2)
O6B_2 O 0.8303(3) 0.14943(17) -0.5688(2)
loop_
_geom_bond_atom_site_label_1
_geom_bond_atom_site_label_2
_geom_bond_site_symmetry_1
_geom_bond_site_symmetry_2
Co1 O1 1_555 1_555
Co2 O1 1_555 1_555
O1 C1 1_555 1_555
O2 C2 1_555 1_555
O3 Co1 1_555 1_555
O4 Co2 1_555 1_555
O5 C2 1_555 1_555
O6 Co1 1_555 1_555
C1 O6 1_555 1_555
C2 C4 1_555 1_555
C3 C1 1_555 1_555
C4 C7 1_555 1_555
C5 C10 1_555 1_555
C6 C8 1_555 1_555
C7 H1 1_555 1_555
C8 C7 1_555 1_555
H2 C8 1_555 1_555
C9 C6 1_555 1_555
H3 C9 1_555 1_555
C10 H4 1_555 1_555
C11 C5 1_555 1_555
H5 C11 1_555 1_555
C12 C4 1_555 1_555
H6 C12 1_555 1_555
C13 C3 1_555 1_555
H7 C13 1_555 1_555
C14 O3 1_555 1_555
C15 C14 1_555 1_555
C16 C15 1_555 1_555
H8 C16 1_555 1_555
C17 C16 1_555 1_555
H9 C17 1_555 1_555
C18 C15 1_555 1_555
H10 C18 1_555 1_555
C19 C3 1_555 1_555
H11 C19 1_555 1_555
C20 C6 1_555 1_555
C21 C18 1_555 1_555
H12 C21 1_555 1_555
N1 Co1 1_555 1_555
C22 N1 1_555 1_555
H13 C22 1_555 1_555
C23 N1 1_555 1_555
C24 C23 1_555 1_555
H14 C24 1_555 1_555
H15 C24 1_555 1_555
H16 C24 1_555 1_555
C25 H17 1_555 1_555
C26 C22 1_555 1_555
H18 C26 1_555 1_555
C27 C25 1_555 1_555
H19 C27 1_555 1_555
H20 C27 1_555 1_555
N2 C23 1_555 1_555
O1B C1B 1_555 1_555
O6B C1B 1_555 1_555
C1B C3B 1_555 1_555
C3B C13B 1_555 1_555
C5B C5 1_555 1_555
C10B C5B 1_555 1_555
H4B C10B 1_555 1_555
C11B C5B 1_555 1_555
H5B C11B 1_555 1_555
C13B C11B 1_555 1_555
H7B C13B 1_555 1_555
C19B C3B 1_555 1_555
H11B C19B 1_555 1_555
N1B C22B 1_555 1_555
C22B H13B 1_555 1_555
C23B N1B 1_555 1_555
C24B C23B 1_555 1_555
H14B C24B 1_555 1_555
H15B C24B 1_555 1_555
H16B C24B 1_555 1_555
H17B C25 1_555 1_555
C26B C22B 1_555 1_555
H18B C26B 1_555 1_555
C27B C25 1_555 1_555
H19B C27B 1_555 1_555
H20B C27B 1_555 1_555
N2B C23B 1_555 1_555
Co1B N1B 1_555 1_555
O2B C2B 1_555 1_555
O3B Co1B 1_555 1_555
O4B C14B 1_555 1_555
O5B C2B 1_555 1_555
C2B C4B 1_555 1_555
C4B C7B 1_555 1_555
C6B C8B 1_555 1_555
C7B H1B 1_555 1_555
C8B C7B 1_555 1_555
H2B C8B 1_555 1_555
C9B C6B 1_555 1_555
H3B C9B 1_555 1_555
C12B C4B 1_555 1_555
H6B C12B 1_555 1_555
C14B O3B 1_555 1_555
C15B C14B 1_555 1_555
C16B C15B 1_555 1_555
H8B C16B 1_555 1_555
C17B C16B 1_555 1_555
H9B C17B 1_555 1_555
C18B C15B 1_555 1_555
H10B C18B 1_555 1_555
C20B C6B 1_555 1_555
C21B C18B 1_555 1_555
H12B C21B 1_555 1_555
Co1B_2 O1B 1_555 1_555
Co1E O2B 1_555 1_555
Co1G O2 1_555 1_555
Co2_2 O4B 1_555 1_555
Co2_3 O1B 1_555 1_555
Co2E O5 1_555 1_555
Co2E_2 O5B 1_555 1_555
O1B_2 Co1B 1_555 1_555
O1B_3 Co2 1_555 1_555
O2E Co1B 1_555 1_555
O2G Co1 1_555 1_555
O4B_2 Co2 1_555 1_555
O5E Co2 1_555 1_555
O5G Co2 1_555 1_555
O6B_2 Co1B 1_555 1_555
O4 C14 1_555 1_555
C9 C12 1_555 1_555
C10 C19 1_555 1_555
C11 C13 1_555 1_555
C17 C20 1_555 1_555
C20 C21 1_555 1_555
C26 N2 1_555 1_555
C27 N2 1_555 1_555
O6B Co1B_2 1_555 1_555
C10B C19B 1_555 1_555
C26B N2B 1_555 1_555
C27B N2B 1_555 1_555
C9B C12B 1_555 1_555
C17B C20B 1_555 1_555
C20B C21B 1_555 1_555
Co2_2 O1B_2 1_555 1_555

#END
