
#######################################################################
#
#                 Cambridge Crystallographic Data Centre
#                                CCDC 
#
#######################################################################
#
# If this CIF has been generated from an entry in the Cambridge 
# Structural Database, then it will include bibliographic, chemical, 
# crystal, experimental, refinement or atomic coordinate data resulting 
# from the CCDC's data processing and validation procedures.
#
#######################################################################

data_YOZHIG
_chemical_formula_moiety         '(C48 H42 Cu1 N8 Nd2 O25)n'
_symmetry_cell_setting           tetragonal
_symmetry_space_group_name_H-M   'I 41/a'
_symmetry_Int_Tables_number      88
_space_group_name_Hall           '-I 4ad'
loop_
_symmetry_equiv_pos_site_id
_symmetry_equiv_pos_as_xyz
1 x,y,z
2 3/4-y,1/4+x,1/4+z
3 -x,1/2-y,z
4 1/4+y,1/4-x,1/4+z
5 1/2+x,1/2+y,1/2+z
6 1/4-y,3/4+x,3/4+z
7 1/2-x,-y,1/2+z
8 3/4+y,3/4-x,3/4+z
9 -x,-y,-z
10 1/4+y,3/4-x,3/4-z
11 x,1/2+y,-z
12 3/4-y,3/4+x,3/4-z
13 1/2-x,1/2-y,1/2-z
14 3/4+y,1/4-x,1/4-z
15 1/2+x,y,1/2-z
16 1/4-y,1/4+x,1/4-z
_cell_length_a                   45.3447(7)
_cell_length_b                   45.3447(7)
_cell_length_c                   11.2994(3)
_cell_angle_alpha                90
_cell_angle_beta                 90
_cell_angle_gamma                90
_cell_volume                     23233.2
loop_
_atom_site_label
_atom_site_type_symbol
_atom_site_fract_x
_atom_site_fract_y
_atom_site_fract_z
Nd1 Nd 0.818771(6) 0.850518(6) 0.14084(2)
O1 O 0.78097(7) 0.87147(7) 0.2810(3)
O2 O 0.81338(8) 0.90494(7) 0.2265(3)
O3 O 0.85786(7) 0.86700(7) 0.0111(3)
O4 O 0.79676(7) 0.88575(7) -0.0019(3)
O5 O 0.85117(7) 0.80727(7) 0.1164(3)
O6 O 0.86186(7) 0.86308(7) 0.2664(3)
O7 O 0.81254(7) 0.81987(7) 0.3127(3)
O8 O 0.76689(8) 0.82530(8) 0.0975(3)
O9 O 0.80157(7) 0.81735(8) -0.0337(3)
C1 C 0.79159(11) 0.89738(11) 0.2861(4)
C2 C 0.86140(11) 0.87411(10) -0.0961(4)
H1 H 0.8010 0.8807 -0.0743
H2 H 0.8036 0.9034 0.0107
H3 H 0.8600 0.8030 0.1831
H4 H 0.8647 0.8108 0.0630
H5 H 0.8732 0.8469 0.2863
H6 H 0.8565 0.8717 0.3371
C3 C 0.77542(11) 0.91910(11) 0.3636(4)
C4 C 0.88836(11) 0.89242(11) -0.1223(4)
O10 O 0.84417(7) 0.86837(7) -0.1792(3)
C5 C 0.74551(11) 0.91442(11) 0.3867(4)
C6 C 0.78836(11) 0.94480(11) 0.4089(4)
C7 C 0.88655(11) 0.91463(11) -0.2076(4)
C8 C 0.91485(10) 0.88987(10) -0.0585(4)
Nd2 Nd 0.821292(6) 0.848920(6) -0.35280(2)
H7 H 0.7364 0.8972 0.3614
C9 C 0.72956(11) 0.93557(11) 0.4475(4)
C10 C 0.82060(11) 0.95015(11) 0.4046(4)
N1 N 0.77227(9) 0.96607(9) 0.4625(3)
H8 H 0.8698 0.9164 -0.2544
C11 C 0.90970(12) 0.93382(12) -0.2218(4)
C12 C 0.92121(10) 0.86603(10) 0.0289(4)
N2 N 0.93691(9) 0.90933(9) -0.0697(3)
O11 O 0.83332(7) 0.80454(7) -0.2308(3)
O12 O 0.87477(7) 0.84520(8) -0.3801(3)
O13 O 0.77625(8) 0.85774(8) -0.4849(3)
O14 O 0.83737(8) 0.87898(7) -0.5290(3)
O15 O 0.81977(8) 0.90524(8) -0.3813(3)
O16 O 0.82226(7) 0.81000(7) -0.4973(3)
O17 O 0.77168(7) 0.82428(7) -0.2715(3)
O18 O 0.78153(7) 0.87090(7) -0.2315(3)
H9 H 0.7098 0.9325 0.4665
C13 C 0.74364(11) 0.96131(11) 0.4790(4)
C14 C 0.84089(11) 0.93111(11) 0.4567(4)
N3 N 0.82887(10) 0.97540(9) 0.3501(3)
H10 H 0.9090 0.9484 -0.2795
C15 C 0.93384(11) 0.93104(12) -0.1495(4)
C16 C 0.91619(10) 0.83626(11) 0.0115(4)
N4 N 0.93390(9) 0.87581(9) 0.1308(3)
Cu1 Cu 0.953437(13) 0.916167(13) 0.13078(5)
H11 H 0.8295 0.7888 -0.2702
H12 H 0.8230 0.8046 -0.1671
H13 H 0.8788 0.8343 -0.4410
H14 H 0.8829 0.8374 -0.3181
H15 H 0.7668 0.8412 -0.4965
H16 H 0.7816 0.8647 -0.5533
C17 C 0.83173(11) 0.90345(11) 0.5191(4)
H17 H 0.7325 0.9762 0.5138
C18 C 0.87069(11) 0.93817(11) 0.4526(4)
C19 C 0.85758(11) 0.98191(11) 0.3510(4)
H18 H 0.9489 0.9449 -0.1561
C20 C 0.92379(10) 0.81641(11) 0.0994(4)
C21 C 0.90268(11) 0.82424(11) -0.1027(4)
C22 C 0.94084(11) 0.85632(11) 0.2173(4)
N5 N 0.99174(9) 0.89406(9) 0.1245(3)
N6 N 0.97076(9) 0.91754(9) 0.3297(3)
N7 N 0.97094(9) 0.95798(9) 0.1167(3)
N8 N 0.91588(9) 0.93933(9) 0.1537(3)
C23 C 0.87935(12) 0.96434(11) 0.4017(4)
H19 H 0.8846 0.9253 0.4839
H20 H 0.8635 0.9994 0.3152
C24 C 0.93616(11) 0.82676(11) 0.2031(4)
H21 H 0.9206 0.7963 0.0887
O19 O 0.88196(7) 0.80608(7) -0.0902(3)
O20 O 0.91277(7) 0.83376(7) -0.1987(3)
H22 H 0.9489 0.8632 0.2877
C25 C 0.99619(11) 0.87412(11) 0.0373(4)
C26 C 1.00765(10) 0.89190(10) 0.2258(4)
C27 C 0.99975(10) 0.91436(10) 0.3167(4)
C28 C 0.96096(12) 0.93651(12) 0.4117(4)
C29 C 0.99958(11) 0.96506(11) 0.1176(4)
C30 C 0.95022(10) 0.97850(10) 0.1467(4)
C31 C 0.91968(10) 0.96827(11) 0.1268(4)
C32 C 0.88867(11) 0.92754(11) 0.1460(4)
H23 H 0.8990 0.9701 0.4012
H24 H 0.9413 0.8137 0.2630
C33 C 1.01538(10) 0.85118(11) 0.0492(4)
H25 H 0.9858 0.8761 -0.0333
C34 C 1.02757(11) 0.86879(10) 0.2425(4)
C35 C 1.02010(11) 0.93151(11) 0.3801(4)
H26 H 0.9407 0.9389 0.4204
C36 C 0.97926(12) 0.95261(12) 0.4834(4)
C37 C 1.00892(12) 0.99277(11) 0.1520(4)
H27 H 1.0134 0.9511 0.0946
C38 C 0.95837(10) 1.00591(10) 0.1936(4)
C39 C 0.89701(10) 0.98517(10) 0.0801(4)
H28 H 0.8860 0.9079 0.1672
C40 C 0.86443(11) 0.94372(11) 0.1076(4)
C41 C 1.03110(11) 0.84837(11) 0.1528(4)
H29 H 1.0178 0.8376 -0.0118
C42 C 1.04551(11) 0.86606(11) 0.3554(4)
C43 C 1.00916(12) 0.95031(11) 0.4663(4)
C44 C 1.05284(11) 0.93176(11) 0.3529(4)
H30 H 0.9716 0.9648 0.5422
C45 C 0.98830(10) 1.01291(11) 0.1933(4)
H31 H 1.0288 0.9979 0.1475
C46 C 0.93659(11) 1.02608(11) 0.2552(4)
C47 C 0.86912(11) 0.97269(11) 0.0716(4)
C48 C 0.90185(11) 1.01480(11) 0.0232(4)
H32 H 0.8457 0.9354 0.1061
H33 H 1.0441 0.8327 0.1625
O21 O 1.03197(7) 0.86913(8) 0.4515(3)
O22 O 1.07227(7) 0.86018(7) 0.3431(3)
H34 H 1.0221 0.9614 0.5125
H35 H 0.9945 1.0312 0.2210
H36 H 0.8535 0.9837 0.0418
Nd2_2 Nd 0.821292(6) 0.848920(6) 0.64720(2)
O14_2 O 0.83737(8) 0.87898(7) 0.4710(3)
O15_2 O 0.81977(8) 0.90524(8) 0.6187(3)
O16I O 1.06000(7) 0.92774(7) 0.2473(3)
O7I O 1.06987(7) 0.93746(7) 0.4373(3)
O8A O 0.92470(8) 1.01689(8) 0.3475(3)
O9A O 0.93265(8) 1.05157(7) 0.2163(3)
O17A O 0.92572(7) 1.02168(7) -0.0215(3)
O18A O 0.87910(7) 1.03153(7) 0.0185(3)
Nd2I Nd 1.098920(6) 0.928708(6) 0.10280(2)
Nd1I Nd 1.100518(6) 0.931229(6) 0.60916(2)
Nd1A Nd 0.899482(6) 1.068771(6) 0.39084(2)
Nd2A Nd 0.901080(6) 1.071292(6) -0.10280(2)
O23 O 0.79643(8) 0.94642(8) -0.0116(3)
O24 O 0.78404(9) 0.98568(9) 0.1747(3)
H37 H 0.7945 0.9874 0.2366
H38 H 0.7688 0.9754 0.1903
O25 O 0.74354(15) 0.81636(16) -0.6338(6)
loop_
_geom_bond_atom_site_label_1
_geom_bond_atom_site_label_2
_geom_bond_site_symmetry_1
_geom_bond_site_symmetry_2
Nd1 O1 1_555 1_555
O1 C1 1_555 1_555
O2 Nd1 1_555 1_555
O3 Nd1 1_555 1_555
O4 Nd1 1_555 1_555
O5 Nd1 1_555 1_555
O6 Nd1 1_555 1_555
O7 Nd1 1_555 1_555
O8 Nd1 1_555 1_555
O9 Nd1 1_555 1_555
C1 O2 1_555 1_555
C2 O3 1_555 1_555
H1 O4 1_555 1_555
H2 O4 1_555 1_555
H3 O5 1_555 1_555
H4 O5 1_555 1_555
H5 O6 1_555 1_555
H6 O6 1_555 1_555
C3 C1 1_555 1_555
C4 C2 1_555 1_555
O10 C2 1_555 1_555
C5 C3 1_555 1_555
C6 C3 1_555 1_555
C7 C4 1_555 1_555
C8 C4 1_555 1_555
Nd2 O10 1_555 1_555
H7 C5 1_555 1_555
C9 C5 1_555 1_555
C10 C6 1_555 1_555
N1 C6 1_555 1_555
H8 C7 1_555 1_555
C11 C7 1_555 1_555
C12 C8 1_555 1_555
N2 C8 1_555 1_555
O11 Nd2 1_555 1_555
O12 Nd2 1_555 1_555
O13 Nd2 1_555 1_555
O14 Nd2 1_555 1_555
O15 Nd2 1_555 1_555
O16 Nd2 1_555 1_555
O17 Nd2 1_555 1_555
O18 Nd2 1_555 1_555
H9 C9 1_555 1_555
C13 C9 1_555 1_555
C14 C10 1_555 1_555
N3 C10 1_555 1_555
H10 C11 1_555 1_555
C15 C11 1_555 1_555
C16 C12 1_555 1_555
N4 C12 1_555 1_555
Cu1 N2 1_555 1_555
H11 O11 1_555 1_555
H12 O11 1_555 1_555
H13 O12 1_555 1_555
H14 O12 1_555 1_555
H15 O13 1_555 1_555
H16 O13 1_555 1_555
C17 C14 1_555 1_555
H17 C13 1_555 1_555
C18 C14 1_555 1_555
C19 N3 1_555 1_555
H18 C15 1_555 1_555
C20 C16 1_555 1_555
C21 C16 1_555 1_555
C22 N4 1_555 1_555
N5 Cu1 1_555 1_555
N6 Cu1 1_555 1_555
N7 Cu1 1_555 1_555
N8 Cu1 1_555 1_555
C23 C18 1_555 1_555
H19 C18 1_555 1_555
H20 C19 1_555 1_555
C24 C20 1_555 1_555
H21 C20 1_555 1_555
O19 C21 1_555 1_555
O20 C21 1_555 1_555
H22 C22 1_555 1_555
C25 N5 1_555 1_555
C26 N5 1_555 1_555
C27 N6 1_555 1_555
C28 N6 1_555 1_555
C29 N7 1_555 1_555
C30 N7 1_555 1_555
C31 N8 1_555 1_555
C32 N8 1_555 1_555
H23 C23 1_555 1_555
H24 C24 1_555 1_555
C33 C25 1_555 1_555
H25 C25 1_555 1_555
C34 C26 1_555 1_555
C35 C27 1_555 1_555
H26 C28 1_555 1_555
C36 C28 1_555 1_555
C37 C29 1_555 1_555
H27 C29 1_555 1_555
C38 C30 1_555 1_555
C39 C31 1_555 1_555
H28 C32 1_555 1_555
C40 C32 1_555 1_555
C41 C33 1_555 1_555
H29 C33 1_555 1_555
C42 C34 1_555 1_555
C43 C35 1_555 1_555
C44 C35 1_555 1_555
H30 C36 1_555 1_555
C45 C37 1_555 1_555
H31 C37 1_555 1_555
C46 C38 1_555 1_555
C47 C39 1_555 1_555
C48 C39 1_555 1_555
H32 C40 1_555 1_555
H33 C41 1_555 1_555
O21 C42 1_555 1_555
O22 C42 1_555 1_555
H34 C43 1_555 1_555
H35 C45 1_555 1_555
H36 C47 1_555 1_555
O24 H37 1_555 1_555
H38 O24 1_555 1_555
Nd2_2 O14_2 1_555 1_555
O14_2 C17 1_555 1_555
O15_2 C17 1_555 1_555
O16I C44 1_555 1_555
O7I C44 1_555 1_555
O8A C46 1_555 1_555
O9A C46 1_555 1_555
O17A C48 1_555 1_555
O18A C48 1_555 1_555
Nd2I O16I 1_555 1_555
Nd1I O7I 1_555 1_555
Nd1A O8A 1_555 1_555
Nd2A O17A 1_555 1_555
N1 C13 1_555 1_555
N2 C15 1_555 1_555
N4 Cu1 1_555 1_555
C19 C23 1_555 1_555
C22 C24 1_555 1_555
C26 C27 1_555 1_555
C30 C31 1_555 1_555
C34 C41 1_555 1_555
C36 C43 1_555 1_555
C38 C45 1_555 1_555
C40 C47 1_555 1_555
Nd2_2 O15_2 1_555 1_555
O9A Nd1A 1_555 1_555
O18A Nd2A 1_555 1_555

#END
