
#######################################################################
#
#                 Cambridge Crystallographic Data Centre
#                                CCDC 
#
#######################################################################
#
# If this CIF has been generated from an entry in the Cambridge 
# Structural Database, then it will include bibliographic, chemical, 
# crystal, experimental, refinement or atomic coordinate data resulting 
# from the CCDC's data processing and validation procedures.
#
#######################################################################

data_OHATEY
_chemical_formula_moiety         '(C26 H32 Cu2 Hg2 N6 O2 2+)n'
_symmetry_cell_setting           monoclinic
_symmetry_space_group_name_H-M   'P 21/c'
_symmetry_Int_Tables_number      14
_space_group_name_Hall           '-P 2ybc'
loop_
_symmetry_equiv_pos_site_id
_symmetry_equiv_pos_as_xyz
1 x,y,z
2 -x,1/2+y,1/2-z
3 -x,-y,-z
4 x,1/2-y,1/2+z
_cell_length_a                   10.5149(11)
_cell_length_b                   12.0894(12)
_cell_length_c                   29.347(3)
_cell_angle_alpha                90
_cell_angle_beta                 92.740(8)
_cell_angle_gamma                90
_cell_volume                     3726.29
loop_
_atom_site_label
_atom_site_type_symbol
_atom_site_fract_x
_atom_site_fract_y
_atom_site_fract_z
C1 C 0.809(2) 0.8858(13) 0.6502(8)
H1 H 0.8045 0.8896 0.6831
H2 H 0.8889 0.9198 0.6424
C2 C 0.4495 0.5100 0.6022
H3 H 0.5080 0.4561 0.6158
H4 H 0.4607 0.5102 0.5696
C3 C 0.7461(15) 0.4703(11) 0.6740(5)
H5 H 0.6993 0.4872 0.6992
C4 C 0.1475(17) 0.9970(14) 0.6673(6)
H6 H 0.1086 1.0042 0.6949
C5 C 0.2667(17) 0.9626(13) 0.5888(6)
H7 H 0.3111 0.9547 0.5623
C6 C 0.8207(18) 0.3711(13) 0.6742(5)
H8 H 0.8223 0.3254 0.6997
C7 C 0.3264(16) 0.7855(14) 0.4572(5)
H9 H 0.2581 0.7994 0.4367
C8 C 0.5158(14) 0.7546(14) 0.5196(4)
H10 H 0.5822 0.7467 0.5415
C9 C 0.3067(14) 0.7744(13) 0.5024(4)
H11 H 0.2234 0.7784 0.5116
C10 C 0.5463(15) 0.7613(13) 0.4755(4)
H12 H 0.6307 0.7563 0.4675
C11 C 0.4555(14) 0.8310(12) 0.2722(5)
H13 H 0.3709 0.8436 0.2784
C12 C 0.4910(14) 0.8461(13) 0.2298(4)
H14 H 0.4326 0.8766 0.2086
C13 C 0.6573(18) 0.7648(13) 0.2937(4)
H15 H 0.7149 0.7328 0.3148
C14 C 0.6909(15) 0.7807(15) 0.2473(5)
H16 H 0.7729 0.7636 0.2390
C15 C 0.1879(18) 1.0564(12) 0.5927(6)
H17 H 0.1746 1.1047 0.5683
C16 C 0.1302(15) 1.0753(16) 0.6339(7)
C17 C 0.2257(15) 0.9050(12) 0.6590(5)
H18 H 0.2392 0.8541 0.6825
C18 C 0.3140(16) 0.4744(14) 0.6107(7)
H19 H 0.3017 0.3990 0.6002
H20 H 0.3022 0.4754 0.6433
C19 C 0.2190(17) 0.5443(15) 0.5883(7)
H21 H 0.1364 0.5089 0.5894
H22 H 0.2382 0.5525 0.5565
C20 C 0.8824(14) 0.4113(13) 0.6010(6)
H23 H 0.9288 0.3978 0.5754
C21 C 0.8014(15) 0.5077(13) 0.6021(5)
H24 H 0.7900 0.5505 0.5759
C22 C 0.707(2) 0.9485(15) 0.6298(8)
H25 H 0.7137 0.9461 0.5970
H26 H 0.7179 1.0249 0.6392
C23 C 0.5798(18) 0.9139(13) 0.6403(6)
H27 H 0.5717 0.9210 0.6729
H28 H 0.5199 0.9651 0.6256
C24 C 0.4480(15) 0.7759(11) 0.4418(4)
C25 C 0.5365(17) 0.7981(12) 0.3067(4)
C26 C 0.8918(16) 0.3411(12) 0.6364(5)
N1 N 0.3982(12) 0.7583(10) 0.5342(3)
N2 N 0.8119 0.7653 0.6362
H29 H 0.8765 0.7280 0.6553
H30 H 0.8383 0.7614 0.6050
N3 N 0.2128(11) 0.6601(9) 0.6106(4)
H31 H 0.1881 0.6513 0.6418
H32 H 0.1468 0.7027 0.5944
N4 N 0.6070(12) 0.8195(9) 0.2160(3)
N5 N 0.2812(11) 0.8857(9) 0.6204(4)
N6 N 0.7426(11) 0.5372(10) 0.6393(4)
O1 O 0.5438(8) 0.8087(7) 0.6278(2)
O2 O 0.4814(7) 0.6173(7) 0.6202(2)
Cu1 Cu 0.6476 0.6811 0.6400
Cu2 Cu 0.37677(15) 0.74654(12) 0.61093(5)
Hg1 Hg 0.49018(7) 0.78369(5) 0.37360(2)
Hg2 Hg 0.00470(6) 1.20697(5) 0.63593(2)
C26_2 C -0.1082(16) 1.3411(12) 0.6364(5)
N4C N 0.6070(12) 0.6805(9) 0.7160(3)
Cu1C Cu 0.6476 0.8189 0.1400
Hg2_2 Hg 1.00470(6) 0.20697(5) 0.63593(2)
loop_
_geom_bond_atom_site_label_1
_geom_bond_atom_site_label_2
_geom_bond_site_symmetry_1
_geom_bond_site_symmetry_2
C1 H1 1_555 1_555
H2 C1 1_555 1_555
C2 H3 1_555 1_555
H4 C2 1_555 1_555
C3 H5 1_555 1_555
C4 H6 1_555 1_555
C5 H7 1_555 1_555
C6 C3 1_555 1_555
H8 C6 1_555 1_555
C7 H9 1_555 1_555
C8 H10 1_555 1_555
C9 C7 1_555 1_555
H11 C9 1_555 1_555
C10 C8 1_555 1_555
H12 C10 1_555 1_555
C11 H13 1_555 1_555
C12 C11 1_555 1_555
H14 C12 1_555 1_555
C13 H15 1_555 1_555
C14 C13 1_555 1_555
H16 C14 1_555 1_555
C15 C5 1_555 1_555
H17 C15 1_555 1_555
C16 C4 1_555 1_555
C17 C4 1_555 1_555
H18 C17 1_555 1_555
C18 C2 1_555 1_555
H19 C18 1_555 1_555
H20 C18 1_555 1_555
C19 C18 1_555 1_555
H21 C19 1_555 1_555
H22 C19 1_555 1_555
C20 H23 1_555 1_555
C21 C20 1_555 1_555
H24 C21 1_555 1_555
C22 C1 1_555 1_555
H25 C22 1_555 1_555
H26 C22 1_555 1_555
C23 C22 1_555 1_555
H27 C23 1_555 1_555
H28 C23 1_555 1_555
C24 C7 1_555 1_555
C25 C11 1_555 1_555
C26 C6 1_555 1_555
N1 C8 1_555 1_555
N2 C1 1_555 1_555
H29 N2 1_555 1_555
H30 N2 1_555 1_555
N3 C19 1_555 1_555
H31 N3 1_555 1_555
H32 N3 1_555 1_555
N4 C12 1_555 1_555
N5 C5 1_555 1_555
N6 C3 1_555 1_555
O1 C23 1_555 1_555
O2 C2 1_555 1_555
Cu1 N2 1_555 1_555
Cu2 N1 1_555 1_555
Hg1 C24 1_555 1_555
Hg2 C16 1_555 1_555
C26_2 Hg2 1_555 1_555
N4C Cu1 1_555 1_555
Cu1C N4 1_555 1_555
Hg2_2 C26 1_555 1_555
C9 N1 1_555 1_555
C10 C24 1_555 1_555
C13 C25 1_555 1_555
C14 N4 1_555 1_555
C15 C16 1_555 1_555
C17 N5 1_555 1_555
C20 C26 1_555 1_555
C21 N6 1_555 1_555
C25 Hg1 1_555 1_555
N3 Cu2 1_555 1_555
N5 Cu2 1_555 1_555
N6 Cu1 1_555 1_555
O1 Cu1 1_555 1_555
O1 Cu2 1_555 1_555
O2 Cu1 1_555 1_555
O2 Cu2 1_555 1_555

#END
