
#######################################################################
#
#                 Cambridge Crystallographic Data Centre
#                                CCDC 
#
#######################################################################
#
# If this CIF has been generated from an entry in the Cambridge 
# Structural Database, then it will include bibliographic, chemical, 
# crystal, experimental, refinement or atomic coordinate data resulting 
# from the CCDC's data processing and validation procedures.
#
#######################################################################

data_DUTJUZ
_chemical_formula_moiety         '(C30 H24 N14 O6 Zn3)n'
_symmetry_cell_setting           rhombohedral
_symmetry_space_group_name_H-M   'R 3 m'
_symmetry_Int_Tables_number      160
_space_group_name_Hall           'R 3 -2"'
loop_
_symmetry_equiv_pos_site_id
_symmetry_equiv_pos_as_xyz
1 x,y,z
2 -y,x-y,z
3 -x+y,-x,z
4 -y,-x,z
5 -x+y,y,z
6 x,x-y,z
7 2/3+x,1/3+y,1/3+z
8 2/3-y,1/3+x-y,1/3+z
9 2/3-x+y,1/3-x,1/3+z
10 2/3-y,1/3-x,1/3+z
11 2/3-x+y,1/3+y,1/3+z
12 2/3+x,1/3+x-y,1/3+z
13 1/3+x,2/3+y,2/3+z
14 1/3-y,2/3+x-y,2/3+z
15 1/3-x+y,2/3-x,2/3+z
16 1/3-y,2/3-x,2/3+z
17 1/3-x+y,2/3+y,2/3+z
18 1/3+x,2/3+x-y,2/3+z
_cell_length_a                   20.443(16)
_cell_length_b                   20.443(16)
_cell_length_c                   13.61(3)
_cell_angle_alpha                90
_cell_angle_beta                 90
_cell_angle_gamma                120
_cell_volume                     4925.81
loop_
_atom_site_label
_atom_site_type_symbol
_atom_site_fract_x
_atom_site_fract_y
_atom_site_fract_z
Zn1 Zn 0.0000 1.0000 1.2107(3)
Zn2 Zn -0.0000 1.0000 0.95075(13)
Zn3 Zn 0.0000 1.0000 0.47023(12)
N1 N -0.0000 1.0000 0.7995(15)
N2 N 0.0480(3) 0.9520(3) 1.1254(9)
C1 C 0.1042(3) 0.8958(3) 1.0608(8)
N3 N 0.0847(3) 0.9153(3) 1.1463(7)
N4 N 0.0000 1.0000 0.6126(14)
C2 C 0.1638(3) 0.8362(3) 0.9601(13)
H1 H 0.1498 0.8502 0.9022
C3 C 0.1677(4) 0.8323(4) 1.1323(13)
H2 H 0.1557 0.8443 1.1930
C4 C 0.1456(3) 0.8544(3) 1.0490(11)
C5 C 0.2025(3) 0.7975(3) 0.9563(11)
H3 H 0.2143 0.7857 0.8953
C6 C 0.2068(4) 0.7932(4) 1.1310(11)
H4 H 0.2208 0.7792 1.1888
C7 C 0.2242(3) 0.7758(3) 1.0391(9)
N5 N 0.0465(4) 0.9535(4) 1.0249(8)
N6 N 0.0807(3) 0.9193(3) 0.9828(9)
C8 C 0.2658(3) 0.7342(3) 1.0291(13)
O1 O 0.2808(2) 0.7192(2) 0.9615(8)
O2 O 0.2810(3) 0.7190(3) 1.1054(9)
C9 C -0.0766(6) 0.9617(3) 0.7644(8)
H5 H -0.1029 0.9870 0.7884
C10 C -0.0760(6) 0.9620(3) 0.6524(8)
H6 H -0.1027 0.9870 0.6288
C9A C 0.0383(3) 0.9617(7) 0.7644(8)
H5A H 0.0130 0.9101 0.7884
C10A C 0.0380(3) 0.9620(7) 0.6524(8)
H6A H 0.0130 0.9103 0.6288
C9B C 0.0383(7) 1.0766(6) 0.7644(8)
H5B H 0.0899 1.1029 0.7884
C10B C 0.0380(7) 1.0760(6) 0.6524(8)
H6B H 0.0897 1.1027 0.6288
H5C H 0.0130 1.1029 0.7884
H6C H 0.0130 1.1027 0.6288
H5D H 0.0899 0.9870 0.7884
H6D H 0.0897 0.9870 0.6288
H5E H -0.1029 0.9101 0.7884
H6E H -0.1027 0.9103 0.6288
N2A N 0.0480(3) 1.0960(4) 1.1254(9)
C1A C 0.1042(3) 1.2084(4) 1.0608(8)
N3A N 0.0847(3) 1.1694(4) 1.1463(7)
C2A C 0.1638(3) 1.3276(4) 0.9601(13)
H1A H 0.1498 1.2996 0.9022
C3A C 0.1677(4) 1.3354(6) 1.1323(13)
H2A H 0.1557 1.3114 1.1930
C4A C 0.1456(3) 1.2912(4) 1.0490(11)
C5A C 0.2025(3) 1.4050(4) 0.9563(11)
H3A H 0.2143 1.4286 0.8953
C6A C 0.2068(4) 1.4136(6) 1.1310(11)
H4A H 0.2208 1.4416 1.1888
C7A C 0.2242(3) 1.4484(4) 1.0391(9)
N5A N 0.0465(4) 1.0930(6) 1.0249(8)
N6A N 0.0807(3) 1.1614(4) 0.9828(9)
C8A C 0.2658(3) 1.5316(4) 1.0291(13)
O1A O 0.2808(2) 1.5616(3) 0.9615(8)
O2A O 0.2810(3) 1.5620(4) 1.1054(9)
N2B N -0.0960(4) 0.9520(3) 1.1254(9)
C1B C -0.2084(4) 0.8958(3) 1.0608(8)
N3B N -0.1694(4) 0.9153(3) 1.1463(7)
C2B C -0.3276(4) 0.8362(3) 0.9601(13)
H1B H -0.2996 0.8502 0.9022
C3B C -0.3354(6) 0.8323(4) 1.1323(13)
H2B H -0.3114 0.8443 1.1930
C4B C -0.2912(4) 0.8544(3) 1.0490(11)
C5B C -0.4050(4) 0.7975(3) 0.9563(11)
H3B H -0.4286 0.7857 0.8953
C6B C -0.4136(6) 0.7932(4) 1.1310(11)
H4B H -0.4416 0.7792 1.1888
C7B C -0.4484(4) 0.7758(3) 1.0391(9)
N5B N -0.0930(6) 0.9535(4) 1.0249(8)
N6B N -0.1614(4) 0.9193(3) 0.9828(9)
C8B C -0.5316(4) 0.7342(3) 1.0291(13)
O1B O -0.5616(3) 0.7192(2) 0.9615(8)
O2B O -0.5620(4) 0.7190(3) 1.1054(9)
Zn1L Zn -0.6667 0.6667 0.8774(3)
Zn1L_2 Zn 0.3333 0.6667 0.8774(3)
Zn1L_3 Zn 0.3333 1.6667 0.8774(3)
Zn3L Zn -0.6667 0.6667 1.13690(12)
Zn3L_2 Zn 0.3333 0.6667 1.13690(12)
Zn3L_3 Zn 0.3333 1.6667 1.13690(12)
O1F O -0.0525(2) 1.0525(2) 1.2948(8)
O1G O -0.0525(2) 0.8949(3) 1.2948(8)
O1H O 0.1051(3) 1.0525(2) 1.2948(8)
O2F O -0.0523(3) 1.0523(3) 0.4387(9)
O2G O -0.0523(3) 0.8953(4) 0.4387(9)
O2H O 0.1047(4) 1.0523(3) 0.4387(9)
loop_
_geom_bond_atom_site_label_1
_geom_bond_atom_site_label_2
_geom_bond_site_symmetry_1
_geom_bond_site_symmetry_2
Zn1 N2 1_555 1_555
Zn2 N1 1_555 1_555
Zn3 N4 1_555 1_555
N1 C9 1_555 1_555
N2 N3 1_555 1_555
C1 N3 1_555 1_555
N4 C10 1_555 1_555
C2 H1 1_555 1_555
C3 H2 1_555 1_555
C4 C1 1_555 1_555
C5 C2 1_555 1_555
H3 C5 1_555 1_555
C6 C3 1_555 1_555
H4 C6 1_555 1_555
C7 C5 1_555 1_555
N5 Zn2 1_555 1_555
N6 C1 1_555 1_555
C8 C7 1_555 1_555
O1 C8 1_555 1_555
O2 C8 1_555 1_555
C9 H5 1_555 1_555
C10 C9 1_555 1_555
H6 C10 1_555 1_555
C9A N1 1_555 1_555
H5A C9A 1_555 1_555
C10A N4 1_555 1_555
H6A C10A 1_555 1_555
C9B N1 1_555 1_555
H5B C9B 1_555 1_555
C10B N4 1_555 1_555
H6B C10B 1_555 1_555
H5C C9B 1_555 1_555
H6C C10B 1_555 1_555
H5D C9A 1_555 1_555
H6D C10A 1_555 1_555
H5E C9 1_555 1_555
H6E C10 1_555 1_555
N2A Zn1 1_555 1_555
C1A N3A 1_555 1_555
N3A N2A 1_555 1_555
C2A H1A 1_555 1_555
C3A H2A 1_555 1_555
C4A C1A 1_555 1_555
C5A C2A 1_555 1_555
H3A C5A 1_555 1_555
C6A C3A 1_555 1_555
H4A C6A 1_555 1_555
C7A C5A 1_555 1_555
N5A Zn2 1_555 1_555
N6A C1A 1_555 1_555
C8A C7A 1_555 1_555
O1A C8A 1_555 1_555
O2A C8A 1_555 1_555
N2B Zn1 1_555 1_555
C1B N3B 1_555 1_555
N3B N2B 1_555 1_555
C2B H1B 1_555 1_555
C3B H2B 1_555 1_555
C4B C1B 1_555 1_555
C5B C2B 1_555 1_555
H3B C5B 1_555 1_555
C6B C3B 1_555 1_555
H4B C6B 1_555 1_555
C7B C5B 1_555 1_555
N5B Zn2 1_555 1_555
N6B C1B 1_555 1_555
C8B C7B 1_555 1_555
O1B C8B 1_555 1_555
O2B C8B 1_555 1_555
Zn1L O1B 1_555 1_555
Zn1L_2 O1 1_555 1_555
Zn1L_3 O1A 1_555 1_555
Zn3L O2B 1_555 1_555
Zn3L_2 O2 1_555 1_555
Zn3L_3 O2A 1_555 1_555
O1F Zn1 1_555 1_555
O1G Zn1 1_555 1_555
O1H Zn1 1_555 1_555
O2F Zn3 1_555 1_555
O2G Zn3 1_555 1_555
O2H Zn3 1_555 1_555
N2 N5 1_555 1_555
C2 C4 1_555 1_555
C3 C4 1_555 1_555
C6 C7 1_555 1_555
N5 N6 1_555 1_555
C9A C10A 1_555 1_555
C9B C10B 1_555 1_555
N2A N5A 1_555 1_555
C2A C4A 1_555 1_555
C3A C4A 1_555 1_555
C6A C7A 1_555 1_555
N5A N6A 1_555 1_555
N2B N5B 1_555 1_555
C2B C4B 1_555 1_555
C3B C4B 1_555 1_555
C6B C7B 1_555 1_555
N5B N6B 1_555 1_555

#END
