
#######################################################################
#
#                 Cambridge Crystallographic Data Centre
#                                CCDC 
#
#######################################################################
#
# If this CIF has been generated from an entry in the Cambridge 
# Structural Database, then it will include bibliographic, chemical, 
# crystal, experimental, refinement or atomic coordinate data resulting 
# from the CCDC's data processing and validation procedures.
#
#######################################################################

data_QIVLUE
_chemical_formula_moiety         '(C20 H4 Li2 O16 Zn2)n'
_symmetry_cell_setting           orthorhombic
_symmetry_space_group_name_H-M   'F d d d'
_symmetry_Int_Tables_number      70
_space_group_name_Hall           '-F 2uv 2vw'
loop_
_symmetry_equiv_pos_site_id
_symmetry_equiv_pos_as_xyz
1 x,y,z
2 3/4-x,3/4-y,z
3 3/4-x,y,3/4-z
4 x,3/4-y,3/4-z
5 x,1/2+y,1/2+z
6 3/4-x,1/4-y,1/2+z
7 3/4-x,1/2+y,1/4-z
8 x,1/4-y,1/4-z
9 1/2+x,y,1/2+z
10 1/4-x,3/4-y,1/2+z
11 1/4-x,y,1/4-z
12 1/2+x,3/4-y,1/4-z
13 1/2+x,1/2+y,z
14 1/4-x,1/4-y,z
15 1/4-x,1/2+y,3/4-z
16 1/2+x,1/4-y,3/4-z
17 -x,-y,-z
18 1/4+x,1/4+y,-z
19 1/4+x,-y,1/4+z
20 -x,1/4+y,1/4+z
21 -x,1/2-y,1/2-z
22 1/4+x,3/4+y,1/2-z
23 1/4+x,1/2-y,3/4+z
24 -x,3/4+y,3/4+z
25 1/2-x,-y,1/2-z
26 3/4+x,1/4+y,1/2-z
27 3/4+x,-y,3/4+z
28 1/2-x,1/4+y,3/4+z
29 1/2-x,1/2-y,-z
30 3/4+x,3/4+y,-z
31 3/4+x,1/2-y,1/4+z
32 1/2-x,3/4+y,1/4+z
_cell_length_a                   19.9292(5)
_cell_length_b                   25.9815(8)
_cell_length_c                   29.2054(10)
_cell_angle_alpha                90
_cell_angle_beta                 90
_cell_angle_gamma                90
_cell_volume                     15122.3
loop_
_atom_site_label
_atom_site_type_symbol
_atom_site_fract_x
_atom_site_fract_y
_atom_site_fract_z
_atom_site_U_iso_or_equiv
_atom_site_thermal_displace_type
Zn1 Zn -0.000076(12) 0.303058(11) 0.067424(9) 0.0176 Uani
O1 O 0.17210(7) 0.26923(7) 0.21158(6) 0.0268 Uani
O2 O -0.07809(7) 0.27226(7) 0.03645(6) 0.0271 Uani
O3 O 0.00208(7) 0.27989(7) 0.13012(6) 0.0263 Uani
O4 O -0.05669(8) 0.34377(6) 0.16305(5) 0.0264 Uani
O5 O -0.14406(8) 0.31375(7) 0.08597(6) 0.0305 Uani
O6 O 0.10915(8) 0.32991(7) 0.17827(5) 0.0275 Uani
O7 O -0.24552(7) 0.37759(7) 0.04448(6) 0.0294 Uani
O8 O -0.30625(8) 0.33320(6) 0.09608(5) 0.0270 Uani
C1 C -0.13516(11) 0.28676(9) 0.05157(8) 0.0250 Uani
C2 C 0.05581(11) 0.26874(9) 0.22607(7) 0.0224 Uani
C3 C 0.11634(10) 0.29140(9) 0.20298(7) 0.0230 Uani
C4 C -0.19519(11) 0.26849(9) 0.02486(8) 0.0251 Uani
C5 C -0.00883(11) 0.27810(9) 0.20959(8) 0.0224 Uani
C6 C -0.27073(11) 0.33687(10) 0.06109(8) 0.0244 Uani
C7 C -0.02203(11) 0.30398(9) 0.16426(8) 0.0236 Uani
C8 C -0.25842(11) 0.29024(10) 0.03160(8) 0.0248 Uani
C9 C -0.18778(11) 0.22844(10) -0.00657(8) 0.0265 Uani
H1 H -0.1456 0.2139 -0.0108 0.0320 Uiso
C10 C 0.06335(11) 0.24081(10) 0.26624(8) 0.0258 Uani
H2 H 0.1064 0.2346 0.2773 0.0310 Uiso
Li1 Li 0.1250 0.3718(2) 0.1250 0.0223 Uiso
Li2 Li -0.1250 0.3750 0.12125(18) 0.0214 Uiso
O1T O -0.17210(7) 0.23077(7) 0.28842(6) 0.0268 Uani
O3T O -0.00208(7) 0.22011(7) 0.36988(6) 0.0263 Uani
O4T O 0.05669(8) 0.15623(6) 0.33695(5) 0.0264 Uani
O6T O -0.10915(8) 0.17009(7) 0.32173(5) 0.0275 Uani
C2T C -0.05581(11) 0.23126(9) 0.27393(7) 0.0224 Uani
C3T C -0.11634(10) 0.20860(9) 0.29702(7) 0.0230 Uani
C5T C 0.00883(11) 0.22190(9) 0.29041(8) 0.0224 Uani
C7T C 0.02203(11) 0.19602(9) 0.33574(8) 0.0236 Uani
C10T C -0.06335(11) 0.25919(10) 0.23376(8) 0.0258 Uani
H2T H -0.1064 0.2654 0.2227 0.0310 Uiso
O2BA O -0.42191(7) 0.22774(7) -0.03645(6) 0.0271 Uani
O5BA O -0.35594(8) 0.18625(7) -0.08597(6) 0.0305 Uani
O7BA O -0.25448(7) 0.12241(7) -0.04448(6) 0.0294 Uani
O8BA O -0.19375(8) 0.16680(6) -0.09608(5) 0.0270 Uani
C1BA C -0.36484(11) 0.21324(9) -0.05157(8) 0.0250 Uani
C4BA C -0.30481(11) 0.23151(9) -0.02486(8) 0.0251 Uani
C6BA C -0.22927(11) 0.16313(10) -0.06109(8) 0.0244 Uani
C8BA C -0.24158(11) 0.20976(10) -0.03160(8) 0.0248 Uani
C9BA C -0.31222(11) 0.27156(10) 0.00657(8) 0.0265 Uani
H1BA H -0.3544 0.2861 0.0108 0.0320 Uiso
Zn1A Zn -0.249924(12) 0.446942(11) 0.067424(9) 0.0176 Uani
Zn1J Zn 0.250076(12) 0.303058(11) 0.182576(9) 0.0176 Uani
Zn1T Zn 0.000076(12) 0.196942(11) 0.432576(9) 0.0176 Uani
Zn1BA Zn -0.499924(12) 0.196942(11) -0.067424(9) 0.0176 Uani
Zn1CA Zn -0.250076(12) 0.053058(11) -0.067424(9) 0.0176 Uani
Zn1DA Zn -0.250076(12) 0.196942(11) 0.317424(9) 0.0176 Uani
O1J O 0.07790(7) 0.26923(7) 0.03842(6) 0.0268 Uani
O1K O -0.32790(7) 0.48077(7) 0.03842(6) 0.0268 Uani
O2A O -0.17191(7) 0.47774(7) 0.03645(6) 0.0271 Uani
O3A O -0.25208(7) 0.47011(7) 0.13012(6) 0.0263 Uani
O4A O -0.19331(8) 0.40623(6) 0.16305(5) 0.0264 Uani
O5A O -0.10594(8) 0.43625(7) 0.08597(6) 0.0305 Uani
O6J O 0.14085(8) 0.32991(7) 0.07173(5) 0.0275 Uani
O7A O -0.00448(7) 0.37241(7) 0.04448(6) 0.0294 Uani
O8A O 0.05625(8) 0.41680(6) 0.09608(5) 0.0270 Uani
O8K O 0.19375(8) 0.41680(6) 0.15392(5) 0.0270 Uani
Li1A Li -0.3750 0.3782(2) 0.1250 0.0223 Uiso
Li1T Li -0.1250 0.1282(2) 0.3750 0.0223 Uiso
Li1W Li -0.1250 0.1218(2) -0.1250 0.0223 Uiso
Li2T Li 0.1250 0.1250 0.37875(18) 0.0214 Uiso
Li2BA Li -0.3750 0.1250 -0.12125(18) 0.0214 Uiso
loop_
_atom_site_aniso_label
_atom_site_aniso_U_11
_atom_site_aniso_U_22
_atom_site_aniso_U_33
_atom_site_aniso_U_23
_atom_site_aniso_U_13
_atom_site_aniso_U_12
Zn1 0.01087(17) 0.02564(19) 0.01638(18) -0.00055(11) 0.00017(10) 0.00027(10)
O1 0.0131(7) 0.0402(9) 0.0270(8) 0.0081(7) 0.0008(6) -0.0015(7)
O2 0.0132(7) 0.0355(9) 0.0327(9) -0.0121(7) -0.0023(6) 0.0008(6)
O3 0.0213(8) 0.0367(9) 0.0209(8) 0.0087(7) 0.0004(6) 0.0025(7)
O4 0.0232(8) 0.0329(8) 0.0230(8) 0.0059(7) -0.0060(6) 0.0014(7)
O5 0.0208(8) 0.0394(10) 0.0314(9) -0.0151(8) -0.0049(7) 0.0013(7)
O6 0.0206(8) 0.0369(9) 0.0251(8) 0.0119(7) -0.0015(6) -0.0061(7)
O7 0.0226(8) 0.0304(9) 0.0353(10) -0.0108(8) 0.0070(7) -0.0014(7)
O8 0.0244(8) 0.0325(9) 0.0242(8) -0.0051(7) 0.0022(7) 0.0065(7)
C1 0.0171(10) 0.0288(12) 0.0290(12) -0.0069(10) -0.0037(9) -0.0008(9)
C2 0.0142(9) 0.0347(12) 0.0183(10) 0.0079(9) 0.0010(8) -0.0021(9)
C3 0.0145(10) 0.0384(13) 0.0161(10) 0.0011(9) 0.0015(8) -0.0035(9)
C4 0.0142(10) 0.0319(12) 0.0291(12) -0.0105(10) -0.0021(8) 0.0013(9)
C5 0.0163(10) 0.0311(12) 0.0198(10) 0.0064(9) -0.0008(8) -0.0011(9)
C6 0.0147(10) 0.0310(12) 0.0276(12) -0.0078(10) -0.0034(9) 0.0021(9)
C7 0.0143(10) 0.0345(13) 0.0221(11) 0.0059(10) -0.0013(8) -0.0042(9)
C8 0.0177(10) 0.0309(12) 0.0257(12) -0.0079(10) -0.0006(9) 0.0010(9)
C9 0.0142(9) 0.0336(12) 0.0316(12) -0.0096(10) -0.0013(9) 0.0027(9)
C10 0.0129(9) 0.0399(13) 0.0245(11) 0.0094(10) -0.0018(8) 0.0005(9)
O1T 0.0131 0.0402 0.027 0.0081 0.0008 -0.0015
O3T 0.0213 0.0367 0.0209 0.0087 0.0004 0.0025
O4T 0.0232 0.0329 0.023 0.0059 -0.006 0.0014
O6T 0.0206 0.0369 0.0251 0.0119 -0.0015 -0.0061
C2T 0.0142 0.0347 0.0183 0.0079 0.001 -0.0021
C3T 0.0145 0.0384 0.0161 0.0011 0.0015 -0.0035
C5T 0.0163 0.0311 0.0198 0.0064 -0.0008 -0.0011
C7T 0.0143 0.0345 0.0221 0.0059 -0.0013 -0.0042
C10T 0.0129 0.0399 0.0245 0.0094 -0.0018 0.0005
O2BA 0.0132 0.0355 0.0327 -0.0121 -0.0023 0.0008
O5BA 0.0208 0.0394 0.0314 -0.0151 -0.0049 0.0013
O7BA 0.0226 0.0304 0.0353 -0.0108 0.007 -0.0014
O8BA 0.0244 0.0325 0.0242 -0.0051 0.0022 0.0065
C1BA 0.0171 0.0288 0.029 -0.0069 -0.0037 -0.0008
C4BA 0.0142 0.0319 0.0291 -0.0105 -0.0021 0.0013
C6BA 0.0147 0.031 0.0276 -0.0078 -0.0034 0.0021
C8BA 0.0177 0.0309 0.0257 -0.0079 -0.0006 0.001
C9BA 0.0142 0.0336 0.0316 -0.0096 -0.0013 0.0027
Zn1A 0.01087 0.02564 0.01638 0.00055 -0.00017 0.00027
Zn1J 0.01087 0.02564 0.01638 0.00055 0.00017 -0.00027
Zn1T 0.01087 0.02564 0.01638 -0.00055 0.00017 0.00027
Zn1BA 0.01087 0.02564 0.01638 -0.00055 0.00017 0.00027
Zn1CA 0.01087 0.02564 0.01638 0.00055 -0.00017 0.00027
Zn1DA 0.01087 0.02564 0.01638 0.00055 0.00017 -0.00027
O1J 0.0131 0.0402 0.027 -0.0081 0.0008 0.0015
O1K 0.0131 0.0402 0.027 0.0081 -0.0008 0.0015
O2A 0.0132 0.0355 0.0327 0.0121 0.0023 0.0008
O3A 0.0213 0.0367 0.0209 -0.0087 -0.0004 0.0025
O4A 0.0232 0.0329 0.023 -0.0059 0.006 0.0014
O5A 0.0208 0.0394 0.0314 0.0151 0.0049 0.0013
O6J 0.0206 0.0369 0.0251 -0.0119 -0.0015 0.0061
O7A 0.0226 0.0304 0.0353 0.0108 -0.007 -0.0014
O8A 0.0244 0.0325 0.0242 0.0051 -0.0022 0.0065
O8K 0.0244 0.0325 0.0242 -0.0051 -0.0022 -0.0065
loop_
_geom_bond_atom_site_label_1
_geom_bond_atom_site_label_2
_geom_bond_site_symmetry_1
_geom_bond_site_symmetry_2
Zn1 O2 1_555 1_555
O1 C3 1_555 1_555
O2 C1 1_555 1_555
O3 Zn1 1_555 1_555
O4 C7 1_555 1_555
O5 C1 1_555 1_555
O6 C3 1_555 1_555
O7 C6 1_555 1_555
O8 C6 1_555 1_555
C1 C4 1_555 1_555
C2 C3 1_555 1_555
C4 C8 1_555 1_555
C5 C2 1_555 1_555
C6 C8 1_555 1_555
C7 O3 1_555 1_555
C8 C9BA 1_555 1_555
C9 C4 1_555 1_555
H1 C9 1_555 1_555
C10 C2 1_555 1_555
H2 C10 1_555 1_555
Li1 O6 1_555 1_555
Li2 O4 1_555 1_555
O1T C3T 1_555 1_555
O3T C7T 1_555 1_555
O4T C7T 1_555 1_555
O6T C3T 1_555 1_555
C2T C3T 1_555 1_555
C5T C10 1_555 1_555
C7T C5T 1_555 1_555
C10T C5 1_555 1_555
H2T C10T 1_555 1_555
O2BA C1BA 1_555 1_555
O5BA C1BA 1_555 1_555
O7BA C6BA 1_555 1_555
O8BA C6BA 1_555 1_555
C1BA C4BA 1_555 1_555
C4BA C8BA 1_555 1_555
C6BA C8BA 1_555 1_555
C8BA C9 1_555 1_555
C9BA C4BA 1_555 1_555
H1BA C9BA 1_555 1_555
Zn1A O7 1_555 1_555
Zn1J O1 1_555 1_555
Zn1T O3T 1_555 1_555
Zn1BA O2BA 1_555 1_555
Zn1CA O7BA 1_555 1_555
Zn1DA O1T 1_555 1_555
O1J Zn1 1_555 1_555
O1K Zn1A 1_555 1_555
O2A Zn1A 1_555 1_555
O3A Zn1A 1_555 1_555
O4A Li2 1_555 1_555
O5A Li2 1_555 1_555
O6J Li1 1_555 1_555
O7A Zn1 1_555 1_555
O8A Li1 1_555 1_555
O8K Li1 1_555 1_555
Li1A O8 1_555 1_555
Li1T O6T 1_555 1_555
Li1W O8BA 1_555 1_555
Li2T O4T 1_555 1_555
Li2BA O5BA 1_555 1_555
O5 Li2 1_555 1_555
C5 C7 1_555 1_555
C2T C5T 1_555 1_555
C2T C10T 1_555 1_555

#END
