
#######################################################################
#
#                 Cambridge Crystallographic Data Centre
#                                CCDC 
#
#######################################################################
#
# If this CIF has been generated from an entry in the Cambridge 
# Structural Database, then it will include bibliographic, chemical, 
# crystal, experimental, refinement or atomic coordinate data resulting 
# from the CCDC's data processing and validation procedures.
#
#######################################################################

data_OGUJIL
_chemical_formula_moiety         '(C12 H14 B1 Cu1 F4 N24 O1 1+)n'
_symmetry_cell_setting           monoclinic
_symmetry_space_group_name_H-M   'P 21/n'
_symmetry_Int_Tables_number      14
_space_group_name_Hall           '-P 2yn'
loop_
_symmetry_equiv_pos_site_id
_symmetry_equiv_pos_as_xyz
1 x,y,z
2 1/2-x,1/2+y,1/2-z
3 -x,-y,-z
4 1/2+x,1/2-y,1/2+z
_cell_length_a                   8.2723(12)
_cell_length_b                   20.345(3)
_cell_length_c                   8.6343(11)
_cell_angle_alpha                90
_cell_angle_beta                 92.360(2)
_cell_angle_gamma                90
_cell_volume                     1451.92
loop_
_atom_site_label
_atom_site_type_symbol
_atom_site_fract_x
_atom_site_fract_y
_atom_site_fract_z
Cu1 Cu 1.0000 0.0000 0.0000
N1 N 0.8244(2) 0.17370(8) 0.17497(19)
N2 N 0.88513(19) 0.07828(8) 0.08636(18)
N3 N 0.71693(19) 0.08132(8) 0.09159(19)
N4 N 0.8513(2) 0.23687(8) 0.2320(2)
N5 N 0.7233(2) 0.26875(9) 0.2216(2)
N6 N 0.7468(2) 0.33094(8) 0.28326(19)
N7 N 0.8400(2) 0.41647(9) 0.4115(2)
N8 N 0.67476(19) 0.42627(8) 0.37118(19)
N9 N 1.34348(19) 0.00047(8) 0.36659(19)
N10 N 1.1507(2) 0.00079(8) 0.19038(18)
N11 N 1.0804(2) 0.00360(8) 0.33536(19)
N12 N 1.5005(2) -0.00060(8) 0.4279(2)
C1 C 0.9466(2) 0.13332(10) 0.1379(2)
H1 H 1.0586 0.1434 0.1479
C2 C 0.6833(2) 0.13911(10) 0.1454(2)
H2 H 0.5775 0.1551 0.1619
C3 C 0.8791(2) 0.35924(10) 0.3586(2)
H3 H 0.9833 0.3398 0.3701
C4 C 0.6236(2) 0.37465(10) 0.2952(2)
H4 H 0.5164 0.3684 0.2543
C5 C 1.3077(2) -0.00071(9) 0.2117(2)
H5 H 1.3840 -0.0023 0.1324
C6 C 1.1982(2) 0.00305(10) 0.4389(2)
H6 H 1.1862 0.0042 0.5478
N9B N 1.65652(19) -0.00047(8) 0.63341(19)
N10B N 1.8493(2) -0.00079(8) 0.80962(18)
N11B N 1.9196(2) -0.00360(8) 0.66464(19)
N12B N 1.4995(2) 0.00060(8) 0.5721(2)
C5B C 1.6923(2) 0.00071(9) 0.7883(2)
H5B H 1.6160 0.0023 0.8676
C6B C 1.8018(2) -0.00305(10) 0.5611(2)
H6B H 1.8138 -0.0042 0.4522
N1B N 1.1756(2) -0.17370(8) -0.17497(19)
N2B N 1.11487(19) -0.07828(8) -0.08636(18)
N3B N 1.28307(19) -0.08132(8) -0.09159(19)
N4B N 1.1487(2) -0.23687(8) -0.2320(2)
N5B N 1.2767(2) -0.26875(9) -0.2216(2)
N6B N 1.2532(2) -0.33094(8) -0.28326(19)
N7B N 1.1600(2) -0.41647(9) -0.4115(2)
N8B N 1.32524(19) -0.42627(8) -0.37118(19)
C1B C 1.0534(2) -0.13332(10) -0.1379(2)
H1B H 0.9414 -0.1434 -0.1479
C2B C 1.3167(2) -0.13911(10) -0.1454(2)
H2B H 1.4225 -0.1551 -0.1619
C3B C 1.1209(2) -0.35924(10) -0.3586(2)
H3B H 1.0167 -0.3398 -0.3701
C4B C 1.3764(2) -0.37465(10) -0.2952(2)
H4B H 1.4836 -0.3684 -0.2543
Cu1_2 Cu 2.0000 -0.0000 1.0000
Cu1A Cu 0.5000 0.5000 0.5000
Cu1A_2 Cu 1.5000 -0.5000 -0.5000
N8A N 0.82524(19) -0.07373(8) 0.12882(19)
N8C N 1.17476(19) 0.07373(8) -0.12882(19)
N10B_2 N 0.8493(2) -0.00079(8) -0.19038(18)
F1 F 0.23760(16) 0.31643(8) 0.26078(15)
F2 F 0.18154(19) 0.25129(7) 0.05190(17)
F3 F 0.32541(19) 0.34565(8) 0.02468(18)
F4 F 0.05672(18) 0.35004(8) 0.07064(17)
B1 B 0.2011(3) 0.31588(13) 0.1011(3)
O1 O 0.3346(2) 0.16594(9) 0.3056(2)
H7 H 0.3896 0.1660 0.3909
H8 H 0.2936 0.2040 0.2939
loop_
_geom_bond_atom_site_label_1
_geom_bond_atom_site_label_2
_geom_bond_site_symmetry_1
_geom_bond_site_symmetry_2
Cu1 N2 1_555 1_555
N1 N4 1_555 1_555
N2 N3 1_555 1_555
N3 C2 1_555 1_555
N4 N5 1_555 1_555
N5 N6 1_555 1_555
N6 C3 1_555 1_555
N7 N8 1_555 1_555
N8 C4 1_555 1_555
N9 N12 1_555 1_555
N10 Cu1 1_555 1_555
N11 N10 1_555 1_555
N12 N12B 1_555 1_555
C1 N1 1_555 1_555
H1 C1 1_555 1_555
C2 N1 1_555 1_555
H2 C2 1_555 1_555
C3 N7 1_555 1_555
H3 C3 1_555 1_555
C4 N6 1_555 1_555
H4 C4 1_555 1_555
C5 N9 1_555 1_555
H5 C5 1_555 1_555
C6 N9 1_555 1_555
H6 C6 1_555 1_555
F1 B1 1_555 1_555
F2 B1 1_555 1_555
F3 B1 1_555 1_555
F4 B1 1_555 1_555
O1 H7 1_555 1_555
H8 O1 1_555 1_555
N9B N12B 1_555 1_555
N10B N11B 1_555 1_555
N11B C6B 1_555 1_555
C5B N9B 1_555 1_555
H5B C5B 1_555 1_555
C6B N9B 1_555 1_555
H6B C6B 1_555 1_555
N1B N4B 1_555 1_555
N2B Cu1 1_555 1_555
N3B N2B 1_555 1_555
N4B N5B 1_555 1_555
N5B N6B 1_555 1_555
N6B C3B 1_555 1_555
N7B N8B 1_555 1_555
N8B C4B 1_555 1_555
C1B N1B 1_555 1_555
H1B C1B 1_555 1_555
C2B N1B 1_555 1_555
H2B C2B 1_555 1_555
C3B N7B 1_555 1_555
H3B C3B 1_555 1_555
C4B N6B 1_555 1_555
H4B C4B 1_555 1_555
Cu1_2 N10B 1_555 1_555
Cu1A N8 1_555 1_555
Cu1A_2 N8B 1_555 1_555
N8A Cu1 1_555 1_555
N8C Cu1 1_555 1_555
N10B_2 Cu1 1_555 1_555
N2 C1 1_555 1_555
N10 C5 1_555 1_555
N11 C6 1_555 1_555
N10B C5B 1_555 1_555
N2B C1B 1_555 1_555
N3B C2B 1_555 1_555

#END
