
#######################################################################
#
#                 Cambridge Crystallographic Data Centre
#                                CCDC 
#
#######################################################################
#
# If this CIF has been generated from an entry in the Cambridge 
# Structural Database, then it will include bibliographic, chemical, 
# crystal, experimental, refinement or atomic coordinate data resulting 
# from the CCDC's data processing and validation procedures.
#
#######################################################################

data_FERHAN
_chemical_formula_moiety         '(C48 H38 O20 Zn4)n'
_symmetry_cell_setting           rhombohedral
_symmetry_space_group_name_H-M   'R -3'
_symmetry_Int_Tables_number      148
_space_group_name_Hall           '-R 3'
loop_
_symmetry_equiv_pos_site_id
_symmetry_equiv_pos_as_xyz
1 x,y,z
2 -y,x-y,z
3 -x+y,-x,z
4 2/3+x,1/3+y,1/3+z
5 2/3-y,1/3+x-y,1/3+z
6 2/3-x+y,1/3-x,1/3+z
7 1/3+x,2/3+y,2/3+z
8 1/3-y,2/3+x-y,2/3+z
9 1/3-x+y,2/3-x,2/3+z
10 -x,-y,-z
11 y,-x+y,-z
12 x-y,x,-z
13 1/3-x,2/3-y,2/3-z
14 1/3+y,2/3-x+y,2/3-z
15 1/3+x-y,2/3+x,2/3-z
16 2/3-x,1/3-y,1/3-z
17 2/3+y,1/3-x+y,1/3-z
18 2/3+x-y,1/3+x,1/3-z
_cell_length_a                   23.6899(4)
_cell_length_b                   23.6899(4)
_cell_length_c                   30.8058(7)
_cell_angle_alpha                90
_cell_angle_beta                 90
_cell_angle_gamma                120
_cell_volume                     14972.3
loop_
_atom_site_label
_atom_site_type_symbol
_atom_site_fract_x
_atom_site_fract_y
_atom_site_fract_z
Zn1 Zn 0.00000 -0.00000 0.246531(16)
Zn2 Zn -0.043495(13) -0.087015(13) 0.159241(8)
O1 O 0.00000 0.00000 0.18190(8)
O2 O 0.00000 -0.00000 0.3171(2)
O3 O -0.0666(6) -0.0919(4) 0.2560(3)
O4 O -0.0830(17) -0.1569(7) 0.2020(4)
O5 O -0.1830(10) -0.3820(7) 0.2700(8)
O6 O -0.2223(7) -0.5481(4) 0.4572(3)
O7 O -0.3130(4) -0.5417(6) 0.4619(4)
O8 O -0.0797(3) -0.3484(3) 0.3694(2)
C1 C -0.0843(5) -0.1462(5) 0.2414(4)
C2 C -0.1107(6) -0.2036(5) 0.2715(4)
C3 C -0.1340(7) -0.2657(6) 0.2551(4)
H1 H -0.1333 -0.272 0.2247
C4 C -0.1584(6) -0.3184(5) 0.2828(4)
C5 C -0.1595(6) -0.3090(5) 0.3273(3)
C6 C -0.1357(7) -0.2472(6) 0.3429(4)
H2 H -0.1354 -0.2404 0.3733
C7 C -0.1120(8) -0.1946(6) 0.3151(4)
H3 H -0.0966 -0.152 0.3264
C8 C -0.196(5) -0.394(2) 0.2240(10)
H4 H -0.2077 -0.4396 0.2176
H5 H -0.1566 -0.3648 0.2075
H6 H -0.2317 -0.3874 0.2156
C9 C -0.2579(6) -0.5245(5) 0.4471(4)
C10 C -0.2332(6) -0.4685(5) 0.4163(4)
C11 C -0.1681(6) -0.4334(5) 0.4075(4)
H7 H -0.1391 -0.4445 0.4213
C12 C -0.1438(6) -0.3817(4) 0.3784(3)
C13 C -0.1855(5) -0.3654(5) 0.3581(3)
C14 C -0.2507(6) -0.3989(5) 0.3683(4)
H8 H -0.2793 -0.3864 0.3555
C15 C -0.2749(6) -0.4504(6) 0.3971(4)
H9 H -0.3201 -0.4735 0.4039
C16 C -0.0355(5) -0.3637(7) 0.3930(5)
H10 H 0.009 -0.3363 0.3823
H11 H -0.0489 -0.4097 0.3886
H12 H -0.0371 -0.3555 0.4241
Zn2A Zn 0.087015(13) 0.043520(18) 0.159241(8)
O3A O 0.0919(4) 0.0253(7) 0.2560(3)
O4A O 0.1569(7) 0.0739(18) 0.2020(4)
O5A O 0.3820(7) 0.1990(12) 0.2700(8)
O6A O 0.5481(4) 0.3258(8) 0.4572(3)
O7A O 0.5417(6) 0.2287(7) 0.4619(4)
O8A O 0.3484(3) 0.2687(4) 0.3694(2)
C1A C 0.1462(5) 0.0619(7) 0.2414(4)
C2A C 0.2036(5) 0.0929(8) 0.2715(4)
C3A C 0.2657(6) 0.1317(9) 0.2551(4)
H1A H 0.272 0.1387 0.2247
C4A C 0.3184(5) 0.1600(8) 0.2828(4)
C5A C 0.3090(5) 0.1495(8) 0.3273(3)
C6A C 0.2472(6) 0.1115(9) 0.3429(4)
H2A H 0.2404 0.1050 0.3733
C7A C 0.1946(6) 0.0826(10) 0.3151(4)
H3A H 0.152 0.0554 0.3264
C8A C 0.394(2) 0.198(5) 0.2240(10)
H4A H 0.4396 0.2319 0.2176
H5A H 0.3648 0.2082 0.2075
H6A H 0.3874 0.1557 0.2156
C9A C 0.5245(5) 0.2666(8) 0.4471(4)
C10A C 0.4685(5) 0.2353(8) 0.4163(4)
C11A C 0.4334(5) 0.2653(8) 0.4075(4)
H7A H 0.4445 0.3054 0.4213
C12A C 0.3817(4) 0.2379(7) 0.3784(3)
C13A C 0.3654(5) 0.1799(7) 0.3581(3)
C14A C 0.3989(5) 0.1482(8) 0.3683(4)
H8A H 0.3864 0.1071 0.3555
C15A C 0.4504(6) 0.1755(8) 0.3971(4)
H9A H 0.4735 0.1534 0.4039
C16A C 0.3637(7) 0.3282(9) 0.3930(5)
H10A H 0.3363 0.3453 0.3823
H11A H 0.4097 0.3608 0.3886
H12A H 0.3555 0.3184 0.4241
Zn2B Zn -0.043520(18) 0.043495(13) 0.159241(8)
O3B O -0.0253(7) 0.0666(6) 0.2560(3)
O4B O -0.0739(18) 0.0830(17) 0.2020(4)
O5B O -0.1990(12) 0.1830(10) 0.2700(8)
O6B O -0.3258(8) 0.2223(7) 0.4572(3)
O7B O -0.2287(7) 0.3130(4) 0.4619(4)
O8B O -0.2687(4) 0.0797(3) 0.3694(2)
C1B C -0.0619(7) 0.0843(5) 0.2414(4)
C2B C -0.0929(8) 0.1107(6) 0.2715(4)
C3B C -0.1317(9) 0.1340(7) 0.2551(4)
H1B H -0.1387 0.1333 0.2247
C4B C -0.1600(8) 0.1584(6) 0.2828(4)
C5B C -0.1495(8) 0.1595(6) 0.3273(3)
C6B C -0.1115(9) 0.1357(7) 0.3429(4)
H2B H -0.1050 0.1354 0.3733
C7B C -0.0826(10) 0.1120(8) 0.3151(4)
H3B H -0.0554 0.0966 0.3264
C8B C -0.198(5) 0.196(5) 0.2240(10)
H4B H -0.2319 0.2077 0.2176
H5B H -0.2082 0.1566 0.2075
H6B H -0.1557 0.2317 0.2156
C9B C -0.2666(8) 0.2579(6) 0.4471(4)
C10B C -0.2353(8) 0.2332(6) 0.4163(4)
C11B C -0.2653(8) 0.1681(6) 0.4075(4)
H7B H -0.3054 0.1391 0.4213
C12B C -0.2379(7) 0.1438(6) 0.3784(3)
C13B C -0.1799(7) 0.1855(5) 0.3581(3)
C14B C -0.1482(8) 0.2507(6) 0.3683(4)
H8B H -0.1071 0.2793 0.3555
C15B C -0.1755(8) 0.2749(6) 0.3971(4)
H9B H -0.1534 0.3201 0.4039
C16B C -0.3282(9) 0.0355(5) 0.3930(5)
H10B H -0.3453 -0.009 0.3823
H11B H -0.3608 0.0489 0.3886
H12B H -0.3184 0.0371 0.4241
Zn2C Zn -0.376828(13) 0.246318(13) 0.492574(8)
Zn2C_2 Zn 0.623172(13) 0.246318(13) 0.492574(8)
Zn2D Zn -0.246318(13) -0.623147(18) 0.492574(8)
Zn2D_2 Zn -0.246318(13) 0.376853(18) 0.492574(8)
Zn2E Zn -0.376853(18) -0.623172(13) 0.492574(8)
Zn2E_2 Zn 0.623147(18) 0.376828(13) 0.492574(8)
O6F O 0.1110(7) 0.1186(4) 0.1239(3)
O6G O -0.1186(4) -0.0075(8) 0.1239(3)
O6H O 0.0075(8) -0.1110(7) 0.1239(3)
O7F O 0.0203(4) 0.1250(6) 0.1286(4)
O7G O -0.1250(6) -0.1046(7) 0.1286(4)
O7H O 0.1046(7) -0.0203(4) 0.1286(4)
loop_
_geom_bond_atom_site_label_1
_geom_bond_atom_site_label_2
_geom_bond_site_symmetry_1
_geom_bond_site_symmetry_2
Zn1 O1 1_555 1_555
Zn2 O1 1_555 1_555
O1 Zn2A 1_555 1_555
O2 Zn1 1_555 1_555
O3 Zn1 1_555 1_555
O4 Zn2 1_555 1_555
O5 C4 1_555 1_555
O6 C9 1_555 1_555
O7 C9 1_555 1_555
O8 C12 1_555 1_555
C1 O3 1_555 1_555
C2 C1 1_555 1_555
C3 C2 1_555 1_555
H1 C3 1_555 1_555
C4 C3 1_555 1_555
C5 C4 1_555 1_555
C6 C5 1_555 1_555
H2 C6 1_555 1_555
C7 C2 1_555 1_555
H3 C7 1_555 1_555
C8 O5 1_555 1_555
H4 C8 1_555 1_555
H5 C8 1_555 1_555
H6 C8 1_555 1_555
C9 C10 1_555 1_555
C10 C11 1_555 1_555
C11 H7 1_555 1_555
C12 C11 1_555 1_555
C13 C5 1_555 1_555
C14 C13 1_555 1_555
H8 C14 1_555 1_555
C15 C10 1_555 1_555
H9 C15 1_555 1_555
C16 O8 1_555 1_555
H10 C16 1_555 1_555
H11 C16 1_555 1_555
H12 C16 1_555 1_555
Zn2A O4A 1_555 1_555
O3A Zn1 1_555 1_555
O4A C1A 1_555 1_555
O5A C4A 1_555 1_555
O6A C9A 1_555 1_555
O7A C9A 1_555 1_555
O8A C12A 1_555 1_555
C1A O3A 1_555 1_555
C2A C1A 1_555 1_555
C3A C2A 1_555 1_555
H1A C3A 1_555 1_555
C4A C3A 1_555 1_555
C5A C4A 1_555 1_555
C6A C5A 1_555 1_555
H2A C6A 1_555 1_555
C7A C2A 1_555 1_555
H3A C7A 1_555 1_555
C8A O5A 1_555 1_555
H4A C8A 1_555 1_555
H5A C8A 1_555 1_555
H6A C8A 1_555 1_555
C9A C10A 1_555 1_555
C10A C11A 1_555 1_555
C11A H7A 1_555 1_555
C12A C11A 1_555 1_555
C13A C5A 1_555 1_555
C14A C13A 1_555 1_555
H8A C14A 1_555 1_555
C15A C10A 1_555 1_555
H9A C15A 1_555 1_555
C16A O8A 1_555 1_555
H10A C16A 1_555 1_555
H11A C16A 1_555 1_555
H12A C16A 1_555 1_555
Zn2B O1 1_555 1_555
O3B Zn1 1_555 1_555
O4B Zn2B 1_555 1_555
O5B C4B 1_555 1_555
O6B C9B 1_555 1_555
O7B C9B 1_555 1_555
O8B C12B 1_555 1_555
C1B O3B 1_555 1_555
C2B C1B 1_555 1_555
C3B C2B 1_555 1_555
H1B C3B 1_555 1_555
C4B C3B 1_555 1_555
C5B C4B 1_555 1_555
C6B C5B 1_555 1_555
H2B C6B 1_555 1_555
C7B C2B 1_555 1_555
H3B C7B 1_555 1_555
C8B O5B 1_555 1_555
H4B C8B 1_555 1_555
H5B C8B 1_555 1_555
H6B C8B 1_555 1_555
C9B C10B 1_555 1_555
C10B C11B 1_555 1_555
C11B H7B 1_555 1_555
C12B C11B 1_555 1_555
C13B C5B 1_555 1_555
C14B C13B 1_555 1_555
H8B C14B 1_555 1_555
C15B C10B 1_555 1_555
H9B C15B 1_555 1_555
C16B O8B 1_555 1_555
H10B C16B 1_555 1_555
H11B C16B 1_555 1_555
H12B C16B 1_555 1_555
Zn2C O6B 1_555 1_555
Zn2C_2 O7A 1_555 1_555
Zn2D O6 1_555 1_555
Zn2D_2 O7B 1_555 1_555
Zn2E O7 1_555 1_555
Zn2E_2 O6A 1_555 1_555
O6F Zn2A 1_555 1_555
O6G Zn2B 1_555 1_555
O6H Zn2 1_555 1_555
O7F Zn2B 1_555 1_555
O7G Zn2 1_555 1_555
O7H Zn2A 1_555 1_555
O4 C1 1_555 1_555
C6 C7 1_555 1_555
C12 C13 1_555 1_555
C14 C15 1_555 1_555
C6A C7A 1_555 1_555
C12A C13A 1_555 1_555
C14A C15A 1_555 1_555
O4B C1B 1_555 1_555
C6B C7B 1_555 1_555
C12B C13B 1_555 1_555
C14B C15B 1_555 1_555

#END
