
#######################################################################
#
#                 Cambridge Crystallographic Data Centre
#                                CCDC 
#
#######################################################################
#
# If this CIF has been generated from an entry in the Cambridge 
# Structural Database, then it will include bibliographic, chemical, 
# crystal, experimental, refinement or atomic coordinate data resulting 
# from the CCDC's data processing and validation procedures.
#
#######################################################################

data_FIJCUX
_chemical_formula_moiety         '(C63 H63 N3 O33 Zn9)n'
_symmetry_cell_setting           monoclinic
_symmetry_space_group_name_H-M   'P 21/n'
_symmetry_Int_Tables_number      14
_space_group_name_Hall           '-P 2yn'
loop_
_symmetry_equiv_pos_site_id
_symmetry_equiv_pos_as_xyz
1 x,y,z
2 1/2-x,1/2+y,1/2-z
3 -x,-y,-z
4 1/2+x,1/2-y,1/2+z
_cell_length_a                   17.664(3)
_cell_length_b                   14.848(2)
_cell_length_c                   18.129(3)
_cell_angle_alpha                90
_cell_angle_beta                 112.140(2)
_cell_angle_gamma                90
_cell_volume                     4404.19
loop_
_atom_site_label
_atom_site_type_symbol
_atom_site_fract_x
_atom_site_fract_y
_atom_site_fract_z
Zn1 Zn 1.0000 0.0000 1.0000
Zn2 Zn 0.997367(10) -0.098201(12) 0.833616(10)
Zn3 Zn 1.002143(10) 0.095496(12) 0.833159(10)
Zn4 Zn 0.500380(10) 0.496190(11) 0.834380(10)
Zn5 Zn 0.496460(10) 0.598470(12) 0.995050(10)
O1 O 0.95202(8) 0.00191(7) 0.87848(7)
H1 H 0.9099(12) 0.0007(10) 0.8641(11)
O2 O 1.04748(8) -0.00315(7) 0.78796(7)
H2 H 1.0933(13) -0.0060(11) 0.8045(12)
O3 O 0.54825(8) 0.49907(7) 0.95661(7)
H3 H 0.5920(13) 0.5004(11) 0.9720(12)
O4 O 0.89543(6) 0.06654(7) 1.00127(6)
O5 O 0.92482(7) 0.17686(8) 1.09137(6)
O6 O 0.60960(6) 0.43789(7) 0.83294(6)
O7 O 0.58475(7) 0.32840(8) 0.74207(6)
O8 O 1.06048(7) 0.12643(7) 1.00981(6)
O9 O 1.09091(7) 0.16496(8) 0.90517(6)
O10 O 1.44871(6) 0.37217(7) 1.15500(6)
O11 O 1.41533(7) 0.33535(8) 1.25821(6)
O12 O 0.38694(6) 0.54873(7) 0.82885(6)
O13 O 0.40609(7) 0.66112(8) 0.91612(6)
O14 O 0.04584(7) 0.86501(7) 0.67133(6)
O15 O 0.07438(7) 0.81862(7) 0.56740(6)
C1 C 0.88374(9) 0.14311(11) 1.02398(9)
C2 C 0.81558(9) 0.19957(11) 0.96909(9)
C3 C 0.77028(10) 0.16888(11) 0.89256(9)
H4 H 0.7822 0.1120 0.8755
C4 C 0.79724(10) 0.28225(11) 0.99399(9)
H5 H 0.8278 0.3028 1.0465
C5 C 0.70785(10) 0.22143(11) 0.84133(9)
H6 H 0.6769 0.2005 0.7891
C6 C 0.73474(10) 0.33508(11) 0.94288(9)
H7 H 0.7224 0.3916 0.9602
C7 C 0.69034(9) 0.30492(11) 0.86613(9)
C8 C 0.62312(9) 0.36179(11) 0.81051(9)
C9 C 1.10467(9) 0.16355(10) 0.97939(9)
C10 C 1.18144(9) 0.20976(11) 1.03238(9)
C11 C 1.20305(10) 0.20894(11) 1.11436(9)
H8 H 1.1683 0.1809 1.1367
C12 C 1.23260(10) 0.25119(11) 1.00006(9)
H9 H 1.2177 0.2521 0.9440
C13 C 1.27502(10) 0.24878(11) 1.16349(9)
H10 H 1.2895 0.2482 1.2196
C14 C 1.30500(10) 0.29107(11) 1.04905(9)
H11 H 1.3398 0.3191 1.0267
C15 C 1.32655(9) 0.28996(10) 1.13112(9)
C16 C 1.40303(9) 0.33599(10) 1.18438(9)
C17 C 0.36630(9) 0.62137(11) 0.85103(9)
C18 C 0.28920(9) 0.66718(11) 0.79761(9)
C19 C 0.25476(10) 0.73566(11) 0.82668(9)
H12 H 0.2781 0.7512 0.8815
C20 C 0.25402(10) 0.64382(12) 0.71747(9)
H13 H 0.2756 0.5950 0.6977
C21 C 0.18659(9) 0.78152(11) 0.77643(9)
H14 H 0.1622 0.8268 0.7972
C22 C 0.18738(10) 0.69190(11) 0.66642(9)
H15 H 0.1647 0.6772 0.6114
C23 C 0.15372(9) 0.76136(10) 0.69550(9)
C24 C 0.08547(9) 0.81919(10) 0.64124(9)
Zn2B Zn 1.002633(10) 0.098201(12) 1.166384(10)
Zn2A Zn 0.502633(10) 0.401799(12) 0.666384(10)
Zn2C Zn 1.497367(10) -0.401799(12) 1.333616(10)
Zn3B Zn 0.997857(10) -0.095496(12) 1.166841(10)
Zn3C Zn 1.502143(10) 0.404504(12) 1.333159(10)
Zn3A Zn 0.497857(10) -0.404504(12) 0.666841(10)
Zn3A_2 Zn 0.497857(10) 0.595496(12) 0.666841(10)
Zn4B Zn 1.499620(10) -0.496190(11) 1.165620(10)
Zn4A Zn 0.999620(10) -0.003810(11) 0.665620(10)
Zn4B_2 Zn 1.499620(10) 0.503810(11) 1.165620(10)
Zn4A_2 Zn -0.000380(10) 0.996190(11) 0.665620(10)
Zn4_2 Zn 0.500380(10) -0.503810(11) 0.834380(10)
Zn4A_3 Zn -0.000380(10) -0.003810(11) 0.665620(10)
Zn5B Zn 1.503540(10) -0.598470(12) 1.004950(10)
Zn5B_2 Zn 0.503540(10) 0.401530(12) 1.004950(10)
Zn5C Zn -0.003540(10) 0.901530(12) 0.495050(10)
Zn5A Zn 0.003540(10) 0.098470(12) 0.504950(10)
Zn5_2 Zn 1.496460(10) -0.401530(12) 0.995050(10)
O1B O 1.04798(8) -0.00191(7) 1.12152(7)
H1B H 1.0901(12) -0.0007(10) 1.1359(11)
O2A O 0.45252(8) 0.49685(7) 0.71204(7)
O2B O 0.95252(8) 0.00315(7) 1.21204(7)
O2C O 1.54748(8) -0.49685(7) 1.28796(7)
H2A H 0.4067(13) 0.4940(11) 0.6955(12)
H2B H 0.9067(13) 0.0060(11) 1.1955(12)
H2C H 1.5933(13) -0.4940(11) 1.3045(12)
O3B O 1.45175(8) -0.49907(7) 1.04339(7)
O3B_2 O 0.45175(8) 0.50093(7) 1.04339(7)
O3_2 O 1.54825(8) -0.50093(7) 0.95661(7)
H3B H 1.4080(13) -0.5004(11) 1.0280(12)
H3B_2 H 0.4080(13) 0.4996(11) 1.0280(12)
H3_2 H 1.5920(13) -0.4996(11) 0.9720(12)
O4B O 1.10457(6) -0.06654(7) 0.99873(6)
O5B O 1.07518(7) -0.17686(8) 0.90863(6)
O6B O 1.39040(6) -0.43789(7) 1.16706(6)
O7B O 1.41525(7) -0.32840(8) 1.25793(6)
O7A O 0.91525(7) -0.17160(8) 0.75793(6)
O7C O 1.08475(7) 0.17160(8) 1.24207(6)
O8B O 0.93952(7) -0.12643(7) 0.99019(6)
O9B O 0.90909(7) -0.16496(8) 1.09483(6)
O10B O 0.55129(6) -0.37217(7) 0.84500(6)
O10B_2 O 0.55129(6) 0.62783(7) 0.84500(6)
O10_2 O 1.44871(6) -0.62783(7) 1.15500(6)
O11B O 0.58467(7) -0.33535(8) 0.74179(6)
O11C O 0.91533(7) 0.16465(8) 0.75821(6)
O11A O 1.08467(7) -0.16465(8) 1.24179(6)
O12A O 0.11306(6) 0.04873(7) 0.67115(6)
O12B O 1.61306(6) -0.54873(7) 1.17115(6)
O13A O 0.09391(7) 0.16112(8) 0.58388(6)
O13B O 1.59391(7) -0.66112(8) 1.08388(6)
O14A O 0.45416(7) 0.36501(7) 0.82867(6)
O14C O 1.54584(7) -0.36501(7) 1.17133(6)
O15A O 0.42562(7) 0.31862(7) 0.93260(6)
O15C O 0.57438(7) 0.68138(7) 1.06740(6)
O15A_2 O 1.42562(7) -0.68138(7) 0.93260(6)
C1B C 1.11626(9) -0.14311(11) 0.97602(9)
C2B C 1.18442(9) -0.19957(11) 1.03091(9)
C3B C 1.22972(10) -0.16888(11) 1.10744(9)
H4B H 1.2178 -0.1120 1.1245
C4B C 1.20276(10) -0.28225(11) 1.00601(9)
H5B H 1.1722 -0.3028 0.9535
C5B C 1.29215(10) -0.22143(11) 1.15867(9)
H6B H 1.3231 -0.2005 1.2109
C6B C 1.26526(10) -0.33508(11) 1.05712(9)
H7B H 1.2776 -0.3916 1.0398
C7B C 1.30966(9) -0.30492(11) 1.13387(9)
C8B C 1.37688(9) -0.36179(11) 1.18949(9)
C9B C 0.89533(9) -0.16355(10) 1.02061(9)
C10B C 0.81856(9) -0.20976(11) 0.96762(9)
C11B C 0.79695(10) -0.20894(11) 0.88564(9)
H8B H 0.8317 -0.1809 0.8633
C12B C 0.76740(10) -0.25119(11) 0.99994(9)
H9B H 0.7823 -0.2521 1.0560
C13B C 0.72498(10) -0.24878(11) 0.83651(9)
H10B H 0.7105 -0.2482 0.7804
C14B C 0.69500(10) -0.29107(11) 0.95095(9)
H11B H 0.6602 -0.3191 0.9733
C15B C 0.67345(9) -0.28996(10) 0.86888(9)
C16B C 0.59697(9) -0.33599(10) 0.81562(9)
C17A C 0.13370(9) 0.12137(11) 0.64897(9)
C18A C 0.21080(9) 0.16718(11) 0.70239(9)
C19A C 0.24524(10) 0.23566(11) 0.67332(9)
H12A H 0.2219 0.2512 0.6185
C20A C 0.24598(10) 0.14382(12) 0.78253(9)
H13A H 0.2244 0.0950 0.8023
C21A C 0.31341(9) 0.28152(11) 0.72357(9)
H14A H 0.3378 0.3268 0.7028
C22A C 0.31262(10) 0.19190(11) 0.83358(9)
H15A H 0.3353 0.1772 0.8886
C23A C 0.34628(9) 0.26136(10) 0.80450(9)
C24A C 0.41453(9) 0.31919(10) 0.85876(9)
O16 O 0.78498(7) 0.98297(8) 0.79501(8)
N1 N 0.67968(10) 0.99742(10) 0.67551(9)
C25 C 0.75542(11) 1.01216(11) 0.72658(11)
H16 H 0.7896 1.0482 0.7088
C26 C 0.62395(10) 0.94030(12) 0.69735(11)
H17 H 0.5769 0.9769 0.6967
H18 H 0.6526 0.9179 0.7523
C27 C 0.59277(12) 0.86096(13) 0.64221(11)
H19 H 0.5593 0.8826 0.5887
H20 H 0.5596 0.8223 0.6620
H21 H 0.6392 0.8264 0.6400
C28 C 0.65098(13) 1.03639(16) 0.59556(12)
H22 H 0.6367 0.9871 0.5559
H23 H 0.6959 1.0715 0.5895
C29 C 0.57753(13) 1.09688(17) 0.57827(15)
H24 H 0.5304 1.0607 0.5764
H25 H 0.5652 1.1269 0.5269
H26 H 0.5894 1.1423 0.6203
O17 O 0.21408(7) 0.96910(9) -0.12112(7)
N2 N 0.32168(9) 0.98377(11) -0.00317(9)
C30 C 0.24473(11) 0.99653(11) -0.05239(11)
H27 H 0.2105 1.0298 -0.0326
C31 C 0.37853(11) 0.93320(13) -0.02864(11)
H28 H 0.4215 0.9746 -0.0310
H29 H 0.3487 0.9097 -0.0830
C32 C 0.35119(12) 1.02079(15) 0.07757(12)
H30 H 0.3685 0.9706 0.1163
H31 H 0.3058 1.0528 0.0857
C33 C 0.41867(14) 0.85551(15) 0.02575(13)
H32 H 0.4547 0.8788 0.0777
H33 H 0.4508 0.8201 0.0023
H34 H 0.3766 0.8172 0.0325
C34 C 0.42174(13) 1.08484(16) 0.09378(14)
H35 H 0.4693 1.0518 0.0926
H36 H 0.4352 1.1123 0.1463
H37 H 0.4066 1.1320 0.0530
O18 O 0.28344(8) 0.49275(8) 0.95376(8)
N3 N 0.17621(9) 0.45796(11) 0.83955(9)
C35 C 0.25443(10) 0.45629(12) 0.88865(11)
H38 H 0.2911 0.4237 0.8714
C36 C 0.11611(11) 0.50813(13) 0.86054(12)
H39 H 0.1441 0.5373 0.9129
H40 H 0.0755 0.4654 0.8660
C37 C 0.14831(12) 0.40849(15) 0.76406(11)
H41 H 0.1966 0.3862 0.7544
H42 H 0.1183 0.4504 0.7203
C38 C 0.07202(13) 0.57896(15) 0.80052(14)
H43 H 0.1120 0.6172 0.7899
H44 H 0.0388 0.6159 0.8216
H45 H 0.0366 0.5499 0.7510
C39 C 0.09376(14) 0.32994(15) 0.76217(13)
H46 H 0.1233 0.2876 0.8048
H47 H 0.0776 0.2994 0.7106
H48 H 0.0449 0.3516 0.7699
loop_
_geom_bond_atom_site_label_1
_geom_bond_atom_site_label_2
_geom_bond_site_symmetry_1
_geom_bond_site_symmetry_2
Zn1 O1 1_555 1_555
Zn2 O1 1_555 1_555
Zn3 O1 1_555 1_555
Zn4 O3 1_555 1_555
Zn5 O3 1_555 1_555
O1 H1 1_555 1_555
O2 Zn2 1_555 1_555
H2 O2 1_555 1_555
O3 H3 1_555 1_555
O4 Zn1 1_555 1_555
O5 C1 1_555 1_555
O6 Zn4 1_555 1_555
O7 C8 1_555 1_555
O8 Zn1 1_555 1_555
O9 Zn3 1_555 1_555
O10 C16 1_555 1_555
O11 C16 1_555 1_555
O12 Zn4 1_555 1_555
O13 Zn5 1_555 1_555
O14 C24 1_555 1_555
O15 C24 1_555 1_555
O16 C25 1_555 1_555
O17 C30 1_555 1_555
O18 C35 1_555 1_555
N1 C25 1_555 1_555
N2 C30 1_555 1_555
N3 C35 1_555 1_555
C1 O4 1_555 1_555
C2 C1 1_555 1_555
C3 C2 1_555 1_555
H4 C3 1_555 1_555
C4 C2 1_555 1_555
H5 C4 1_555 1_555
C5 C3 1_555 1_555
H6 C5 1_555 1_555
C6 C4 1_555 1_555
H7 C6 1_555 1_555
C7 C5 1_555 1_555
C8 O6 1_555 1_555
C9 O8 1_555 1_555
C10 C9 1_555 1_555
C11 C10 1_555 1_555
H8 C11 1_555 1_555
C12 C10 1_555 1_555
H9 C12 1_555 1_555
C13 C11 1_555 1_555
H10 C13 1_555 1_555
C14 C12 1_555 1_555
H11 C14 1_555 1_555
C15 C13 1_555 1_555
C16 C15 1_555 1_555
C17 O12 1_555 1_555
C18 C17 1_555 1_555
C19 C18 1_555 1_555
H12 C19 1_555 1_555
C20 C18 1_555 1_555
H13 C20 1_555 1_555
C21 C19 1_555 1_555
H14 C21 1_555 1_555
C22 C20 1_555 1_555
H15 C22 1_555 1_555
C23 C21 1_555 1_555
C24 C23 1_555 1_555
C25 H16 1_555 1_555
C26 N1 1_555 1_555
H17 C26 1_555 1_555
H18 C26 1_555 1_555
C27 C26 1_555 1_555
H19 C27 1_555 1_555
H20 C27 1_555 1_555
H21 C27 1_555 1_555
C28 N1 1_555 1_555
H22 C28 1_555 1_555
H23 C28 1_555 1_555
C29 C28 1_555 1_555
H24 C29 1_555 1_555
H25 C29 1_555 1_555
H26 C29 1_555 1_555
C30 H27 1_555 1_555
C31 N2 1_555 1_555
H28 C31 1_555 1_555
H29 C31 1_555 1_555
C32 N2 1_555 1_555
H30 C32 1_555 1_555
H31 C32 1_555 1_555
C33 C31 1_555 1_555
H32 C33 1_555 1_555
H33 C33 1_555 1_555
H34 C33 1_555 1_555
C34 C32 1_555 1_555
H35 C34 1_555 1_555
H36 C34 1_555 1_555
H37 C34 1_555 1_555
C35 H38 1_555 1_555
C36 N3 1_555 1_555
H39 C36 1_555 1_555
H40 C36 1_555 1_555
C37 N3 1_555 1_555
H41 C37 1_555 1_555
H42 C37 1_555 1_555
C38 C36 1_555 1_555
H43 C38 1_555 1_555
H44 C38 1_555 1_555
H45 C38 1_555 1_555
C39 C37 1_555 1_555
H46 C39 1_555 1_555
H47 C39 1_555 1_555
H48 C39 1_555 1_555
Zn2B O5 1_555 1_555
Zn2A O7 1_555 1_555
Zn2C O2C 1_555 1_555
Zn3B O1B 1_555 1_555
Zn3C O11 1_555 1_555
Zn3A O11B 1_555 1_555
Zn3A_2 O2A 1_555 1_555
Zn4B O2C 1_555 1_555
Zn4A O2 1_555 1_555
Zn4B_2 O10 1_555 1_555
Zn4A_2 O14 1_555 1_555
Zn4_2 O10B 1_555 1_555
Zn4A_3 O12A 1_555 1_555
Zn5B O3B 1_555 1_555
Zn5B_2 O3 1_555 1_555
Zn5C O15 1_555 1_555
Zn5A O13A 1_555 1_555
Zn5_2 O3B 1_555 1_555
O1B Zn1 1_555 1_555
H1B O1B 1_555 1_555
O2A Zn4 1_555 1_555
O2B Zn2B 1_555 1_555
O2C H2C 1_555 1_555
H2A O2A 1_555 1_555
H2B O2B 1_555 1_555
O3B Zn4B 1_555 1_555
O3B_2 Zn5 1_555 1_555
O3_2 Zn5B 1_555 1_555
H3B O3B 1_555 1_555
H3B_2 O3B_2 1_555 1_555
H3_2 O3_2 1_555 1_555
O4B Zn1 1_555 1_555
O5B Zn2 1_555 1_555
O6B Zn4B 1_555 1_555
O7B Zn2C 1_555 1_555
O7A Zn2 1_555 1_555
O7C Zn2B 1_555 1_555
O8B Zn1 1_555 1_555
O9B Zn3B 1_555 1_555
O10B C16B 1_555 1_555
O10B_2 Zn4 1_555 1_555
O10_2 Zn4B 1_555 1_555
O11B C16B 1_555 1_555
O11C Zn3 1_555 1_555
O11A Zn3B 1_555 1_555
O12A C17A 1_555 1_555
O12B Zn4B 1_555 1_555
O13A C17A 1_555 1_555
O13B Zn5B 1_555 1_555
O14A Zn4 1_555 1_555
O14C Zn4B 1_555 1_555
O15A Zn5B_2 1_555 1_555
O15C Zn5 1_555 1_555
O15A_2 Zn5B 1_555 1_555
C1B O4B 1_555 1_555
C2B C1B 1_555 1_555
C3B C2B 1_555 1_555
H4B C3B 1_555 1_555
C4B C2B 1_555 1_555
H5B C4B 1_555 1_555
C5B C3B 1_555 1_555
H6B C5B 1_555 1_555
C6B C4B 1_555 1_555
H7B C6B 1_555 1_555
C7B C5B 1_555 1_555
C8B O6B 1_555 1_555
C9B O8B 1_555 1_555
C10B C9B 1_555 1_555
C11B C10B 1_555 1_555
H8B C11B 1_555 1_555
C12B C10B 1_555 1_555
H9B C12B 1_555 1_555
C13B C11B 1_555 1_555
H10B C13B 1_555 1_555
C14B C12B 1_555 1_555
H11B C14B 1_555 1_555
C15B C13B 1_555 1_555
C16B C15B 1_555 1_555
C17A C18A 1_555 1_555
C18A C19A 1_555 1_555
C19A H12A 1_555 1_555
C20A C18A 1_555 1_555
H13A C20A 1_555 1_555
C21A C19A 1_555 1_555
H14A C21A 1_555 1_555
C22A C20A 1_555 1_555
H15A C22A 1_555 1_555
C23A C21A 1_555 1_555
C24A O14A 1_555 1_555
Zn3 O2 1_555 1_555
O9 C9 1_555 1_555
O13 C17 1_555 1_555
C6 C7 1_555 1_555
C7 C8 1_555 1_555
C14 C15 1_555 1_555
C22 C23 1_555 1_555
Zn2B O1B 1_555 1_555
Zn2A O2A 1_555 1_555
Zn3B O2B 1_555 1_555
Zn5B_2 O3B_2 1_555 1_555
Zn5_2 O3_2 1_555 1_555
O5B C1B 1_555 1_555
O7B C8B 1_555 1_555
O9B C9B 1_555 1_555
O15A C24A 1_555 1_555
C6B C7B 1_555 1_555
C7B C8B 1_555 1_555
C14B C15B 1_555 1_555
C22A C23A 1_555 1_555
C23A C24A 1_555 1_555

#END
