
#######################################################################
#
#                 Cambridge Crystallographic Data Centre
#                                CCDC 
#
#######################################################################
#
# If this CIF has been generated from an entry in the Cambridge 
# Structural Database, then it will include bibliographic, chemical, 
# crystal, experimental, refinement or atomic coordinate data resulting 
# from the CCDC's data processing and validation procedures.
#
#######################################################################

data_FIJDOS
_chemical_formula_moiety         '(C14 H20 N2 O10 Zn2)n'
_symmetry_cell_setting           rhombohedral
_symmetry_space_group_name_H-M   'R -3'
_symmetry_Int_Tables_number      148
_space_group_name_Hall           '-R 3'
loop_
_symmetry_equiv_pos_site_id
_symmetry_equiv_pos_as_xyz
1 x,y,z
2 -y,x-y,z
3 -x+y,-x,z
4 2/3+x,1/3+y,1/3+z
5 2/3-y,1/3+x-y,1/3+z
6 2/3-x+y,1/3-x,1/3+z
7 1/3+x,2/3+y,2/3+z
8 1/3-y,2/3+x-y,2/3+z
9 1/3-x+y,2/3-x,2/3+z
10 -x,-y,-z
11 y,-x+y,-z
12 x-y,x,-z
13 1/3-x,2/3-y,2/3-z
14 1/3+y,2/3-x+y,2/3-z
15 1/3+x-y,2/3+x,2/3-z
16 2/3-x,1/3-y,1/3-z
17 2/3+y,1/3-x+y,1/3-z
18 2/3+x-y,1/3+x,1/3-z
_cell_length_a                   25.9322(15)
_cell_length_b                   25.9322(15)
_cell_length_c                   6.8365(4)
_cell_angle_alpha                90
_cell_angle_beta                 90
_cell_angle_gamma                120
_cell_volume                     3981.47
loop_
_atom_site_label
_atom_site_type_symbol
_atom_site_fract_x
_atom_site_fract_y
_atom_site_fract_z
Zn1 Zn 0.386586(18) 0.351097(17) 0.14623(6)
O1 O 0.32120(12) 0.29406(11) 0.3566(4)
O2 O 0.30167(13) 0.22886(11) 0.5956(4)
O3 O 0.35522(11) 0.27349(11) -0.0007(3)
C1 C 0.31600(15) 0.24606(15) 0.4216(5)
C2 C 0.32706(16) 0.20744(16) 0.2846(5)
C3 C 0.34369(16) 0.22211(16) 0.0857(5)
C4 C 0.31783(16) 0.15329(16) 0.3592(5)
H1 H 0.3075 0.1447 0.4933
O4 O 0.45785(14) 0.34629(16) 0.2783(5)
N1 N 0.5092(2) 0.3533(2) 0.5524(7)
C5 C 0.4609(3) 0.3330(3) 0.4466(9)
C6 C 0.5664(3) 0.4013(5) 0.4692(15)
C7 C 0.5081(5) 0.3362(5) 0.7586(12)
Zn1O Zn 0.280081(18) -0.017764(17) 0.18710(6)
Zn1D Zn 0.315570(17) 0.368822(25) 0.47956(6)
Zn1H Zn 0.297844(25) 0.280081(18) 0.81290(6)
Zn1H_2 Zn 0.297844(25) 0.280081(18) -0.18710(6)
Zn1J Zn 0.351097(17) -0.035489(25) -0.14623(6)
Zn1N Zn 0.368822(25) 0.053253(18) -0.47956(6)
Zn1N_2 Zn 0.368822(25) 0.053253(18) 0.52044(6)
O1O O 0.34547(12) 0.03927(11) -0.0233(4)
O1H O 0.30619(16) 0.34547(12) 0.0233(4)
O1N O 0.36047(16) -0.01213(12) 0.3101(4)
O2O O 0.36500(13) 0.10447(11) -0.2623(4)
O2D O 0.43781(11) 0.40614(17) -0.0711(4)
O2J O 0.22886(11) -0.07281(17) 0.4044(4)
O3O O 0.31145(11) 0.05984(11) 0.3340(3)
O3D O 0.39318(11) 0.41506(16) 0.3326(3)
O3J O 0.27349(11) -0.08173(16) 0.0007(3)
C1O C 0.35067(15) 0.08727(15) -0.0883(5)
C2O C 0.33961(16) 0.12589(16) 0.0487(5)
C3O C 0.32298(16) 0.11122(16) 0.2476(5)
C4O C 0.34884(16) 0.18004(16) -0.0259(5)
H1O H 0.3592 0.1886 -0.1600
O4O O 0.20882(14) -0.01296(16) 0.0550(5)
N1O N 0.1575(2) -0.0200(2) -0.2191(7)
C5O C 0.2058(3) 0.0003(3) -0.1133(9)
C6O C 0.1003(3) -0.0680(5) -0.1359(15)
C7O C 0.1586(5) -0.0029(5) -0.4253(12)
O5 O 0.6313(7) 0.4024(12) 0.325(3)
O6 O 0.6667 0.3333 0.61(6)
loop_
_geom_bond_atom_site_label_1
_geom_bond_atom_site_label_2
_geom_bond_site_symmetry_1
_geom_bond_site_symmetry_2
Zn1 O1 1_555 1_555
O1 C1 1_555 1_555
O2 C1 1_555 1_555
O3 Zn1 1_555 1_555
C1 C2 1_555 1_555
C2 C3 1_555 1_555
C3 O3 1_555 1_555
C4 C2 1_555 1_555
H1 C4 1_555 1_555
O4 Zn1 1_555 1_555
N1 C5 1_555 1_555
C5 O4 1_555 1_555
C6 N1 1_555 1_555
C7 N1 1_555 1_555
Zn1O O1O 1_555 1_555
Zn1D O1 1_555 1_555
Zn1H O2 1_555 1_555
Zn1H_2 O3 1_555 1_555
Zn1J O1O 1_555 1_555
Zn1N O2O 1_555 1_555
Zn1N_2 O1N 1_555 1_555
O1O C1O 1_555 1_555
O1H Zn1 1_555 1_555
O1N Zn1O 1_555 1_555
O2O C1O 1_555 1_555
O2D Zn1 1_555 1_555
O2J Zn1O 1_555 1_555
O3O Zn1O 1_555 1_555
O3D Zn1 1_555 1_555
O3J Zn1O 1_555 1_555
C1O C2O 1_555 1_555
C2O C3O 1_555 1_555
C3O C4 1_555 1_555
C4O C3 1_555 1_555
H1O C4O 1_555 1_555
O4O Zn1O 1_555 1_555
N1O C5O 1_555 1_555
C5O O4O 1_555 1_555
C6O N1O 1_555 1_555
C7O N1O 1_555 1_555
Zn1D O3D 1_555 1_555
Zn1H_2 O1H 1_555 1_555
Zn1J O3J 1_555 1_555
Zn1N_2 O3O 1_555 1_555
O3O C3O 1_555 1_555
C2O C4O 1_555 1_555

#END
