
#######################################################################
#
#                 Cambridge Crystallographic Data Centre
#                                CCDC 
#
#######################################################################
#
# If this CIF has been generated from an entry in the Cambridge 
# Structural Database, then it will include bibliographic, chemical, 
# crystal, experimental, refinement or atomic coordinate data resulting 
# from the CCDC's data processing and validation procedures.
#
#######################################################################

data_RAZXIA
_chemical_formula_moiety         '(C12 H21 Co3 K1 O20)n'
_symmetry_cell_setting           tetragonal
_symmetry_space_group_name_H-M   'I -4 2 d'
_symmetry_Int_Tables_number      122
_space_group_name_Hall           'I -4 2bw'
loop_
_symmetry_equiv_pos_site_id
_symmetry_equiv_pos_as_xyz
1 x,y,z
2 -x,-y,z
3 y,-x,-z
4 -y,x,-z
5 1/2-x,y,3/4-z
6 1/2+x,-y,3/4-z
7 1/2-y,-x,3/4+z
8 1/2+y,x,3/4+z
9 1/2+x,1/2+y,1/2+z
10 1/2-x,1/2-y,1/2+z
11 1/2+y,1/2-x,1/2-z
12 1/2-y,1/2+x,1/2-z
13 -x,1/2+y,1/4-z
14 x,1/2-y,1/4-z
15 -y,1/2-x,1/4+z
16 y,1/2+x,1/4+z
_cell_length_a                   12.9064(4)
_cell_length_b                   12.9064(4)
_cell_length_c                   30.2416(15)
_cell_angle_alpha                90
_cell_angle_beta                 90
_cell_angle_gamma                90
_cell_volume                     5037.5
loop_
_atom_site_label
_atom_site_type_symbol
_atom_site_fract_x
_atom_site_fract_y
_atom_site_fract_z
Co1 Co 0.0000 0.5000 0.057871(6)
Co2 Co 0.049480(11) 0.104660(11) 0.040330(4)
K1 K 0.16459(3) 0.2500 0.1250
C1 C 0.08289(8) 0.31751(9) 0.01335(3)
C2 C 0.14386(9) 0.26873(9) -0.02324(4)
H1 H 0.1712 0.3230 -0.0421
H2 H 0.2023 0.2320 -0.0105
C3 C 0.08032(8) 0.19231(8) -0.05201(3)
C4 C 0.14990(9) 0.16647(9) -0.09210(3)
H3 H 0.2172 0.1445 -0.0813
H4 H 0.1601 0.2291 -0.1093
C5 C 0.10759(8) 0.08368(8) -0.12192(3)
C6 C -0.01904(9) 0.24479(9) -0.06797(3)
O1 O 0.03907(6) 0.26331(6) 0.04238(2)
O2 O 0.08053(6) 0.41680(7) 0.01460(3)
O3 O 0.31153(15) 0.36882(15) 0.08322(6)
O4 O 0.10963(6) -0.00928(6) -0.10902(2)
O5 O 0.07104(6) 0.11053(6) -0.15889(2)
O6 O -0.10537(6) 0.19942(6) -0.06166(3)
O7 O -0.01122(7) 0.33358(7) -0.08511(3)
O8 O 0.05480(5) 0.09973(6) -0.02867(2)
Co1F Co 0.0000 0.0000 -0.192129(6)
Co1F_2 Co 0.0000 1.0000 -0.192129(6)
Co2A Co -0.049480(11) 0.895340(11) 0.040330(4)
Co2B Co 0.104660(11) -0.049480(11) -0.040330(4)
Co2C Co -0.104660(11) 0.049480(11) -0.040330(4)
Co2C_2 Co -0.104660(11) 1.049480(11) -0.040330(4)
Co2B_2 Co 0.104660(11) 0.950520(11) -0.040330(4)
K1B K 0.2500 -0.16459(3) -0.1250
K1C K -0.2500 0.16459(3) -0.1250
K1A K -0.16459(3) 0.7500 0.1250
K1C_2 K -0.2500 1.16459(3) -0.1250
K1B_2 K 0.2500 0.83541(3) -0.1250
C1A C -0.08289(8) 0.68249(9) 0.01335(3)
C2A C -0.14386(9) 0.73127(9) -0.02324(4)
H1A H -0.1712 0.6770 -0.0421
H2A H -0.2023 0.7680 -0.0105
C3A C -0.08032(8) 0.80769(8) -0.05201(3)
C4A C -0.14990(9) 0.83353(9) -0.09210(3)
H3A H -0.2172 0.8555 -0.0813
H4A H -0.1601 0.7709 -0.1093
C5A C -0.10759(8) 0.91632(8) -0.12192(3)
C6A C 0.01904(9) 0.75521(9) -0.06797(3)
O1A O -0.03907(6) 0.73669(6) 0.04238(2)
O1M O 0.03907(6) 0.23669(6) 0.20762(2)
O2A O -0.08053(6) 0.58320(7) 0.01460(3)
O3M O 0.31153(15) 0.13118(15) 0.16678(6)
O4A O -0.10963(6) 1.00928(6) -0.10902(2)
O4C O 0.00928(6) 0.10963(6) 0.10902(2)
O4N O 0.00928(6) 0.39037(6) 0.14098(2)
O4B O -0.00928(6) 0.89037(6) 0.10902(2)
O5A O -0.07104(6) 0.88947(6) -0.15889(2)
O5N O -0.11053(6) 0.42896(6) 0.09111(2)
O5O O 0.11053(6) 0.57104(6) 0.09111(2)
O6A O 0.10537(6) 0.80058(6) -0.06166(3)
O6B O 0.19942(6) 0.10537(6) 0.06166(3)
O6O O 0.19942(6) 0.39463(6) 0.18834(3)
O6C O -0.19942(6) 0.89463(6) 0.06166(3)
O7A O 0.01122(7) 0.66642(7) -0.08511(3)
O8A O -0.05480(5) 0.90027(6) -0.02867(2)
O8B O 0.09973(6) -0.05480(5) 0.02867(2)
O8C O -0.09973(6) 0.05480(5) 0.02867(2)
O8B_2 O 0.09973(6) 0.94520(5) 0.02867(2)
O8C_2 O -0.09973(6) 1.05480(5) 0.02867(2)
O9 O -0.69327(15) 0.94722(15) 0.20386(7)
O10 O -0.47341(17) 0.88117(17) 0.21159(6)
O11 O -0.4425(2) 0.68829(19) 0.20258(8)
O12 O -0.5685(3) 0.8283(3) 0.14401(11)
loop_
_geom_bond_atom_site_label_1
_geom_bond_atom_site_label_2
_geom_bond_site_symmetry_1
_geom_bond_site_symmetry_2
Co1 O2 1_555 1_555
Co2 O1 1_555 1_555
K1 O1 1_555 1_555
C1 C2 1_555 1_555
C2 H1 1_555 1_555
H2 C2 1_555 1_555
C3 C2 1_555 1_555
C4 C3 1_555 1_555
H3 C4 1_555 1_555
H4 C4 1_555 1_555
C5 C4 1_555 1_555
C6 C3 1_555 1_555
O1 C1 1_555 1_555
O2 C1 1_555 1_555
O3 K1 1_555 1_555
O4 C5 1_555 1_555
O5 C5 1_555 1_555
O6 C6 1_555 1_555
O7 C6 1_555 1_555
O8 Co2 1_555 1_555
Co1F O5 1_555 1_555
Co1F_2 O5A 1_555 1_555
Co2A O1A 1_555 1_555
Co2B O4 1_555 1_555
Co2C O6 1_555 1_555
Co2C_2 O4A 1_555 1_555
Co2B_2 O6A 1_555 1_555
K1B O4 1_555 1_555
K1C O6 1_555 1_555
K1A O1A 1_555 1_555
K1C_2 O4A 1_555 1_555
K1B_2 O6A 1_555 1_555
C1A C2A 1_555 1_555
C2A H1A 1_555 1_555
H2A C2A 1_555 1_555
C3A C2A 1_555 1_555
C4A C3A 1_555 1_555
H3A C4A 1_555 1_555
H4A C4A 1_555 1_555
C5A C4A 1_555 1_555
C6A C3A 1_555 1_555
O1A C1A 1_555 1_555
O1M K1 1_555 1_555
O2A Co1 1_555 1_555
O3M K1 1_555 1_555
O4A C5A 1_555 1_555
O4C Co2 1_555 1_555
O4N K1 1_555 1_555
O4B Co2A 1_555 1_555
O5A C5A 1_555 1_555
O5N Co1 1_555 1_555
O5O Co1 1_555 1_555
O6A C6A 1_555 1_555
O6B Co2 1_555 1_555
O6O K1 1_555 1_555
O6C Co2A 1_555 1_555
O7A C6A 1_555 1_555
O8A Co2A 1_555 1_555
O8B Co2 1_555 1_555
O8C Co2 1_555 1_555
O8B_2 Co2A 1_555 1_555
O8C_2 Co2A 1_555 1_555
K1 O4C 1_555 1_555
K1 O6B 1_555 1_555
C3 O8 1_555 1_555
O8 Co2B 1_555 1_555
O8 Co2C 1_555 1_555
Co2B O8B 1_555 1_555
Co2C O8C 1_555 1_555
Co2C_2 O8A 1_555 1_555
Co2C_2 O8C_2 1_555 1_555
Co2B_2 O8A 1_555 1_555
Co2B_2 O8B_2 1_555 1_555
K1A O4B 1_555 1_555
K1A O6C 1_555 1_555
C1A O2A 1_555 1_555
C3A O8A 1_555 1_555

#END
