
#######################################################################
#
#                 Cambridge Crystallographic Data Centre
#                                CCDC 
#
#######################################################################
#
# If this CIF has been generated from an entry in the Cambridge 
# Structural Database, then it will include bibliographic, chemical, 
# crystal, experimental, refinement or atomic coordinate data resulting 
# from the CCDC's data processing and validation procedures.
#
#######################################################################

data_GIVNIK
_chemical_formula_moiety         '(C64 H36 Ag2 B1 F4 N12 Zn2 1+)n'
_symmetry_cell_setting           monoclinic
_symmetry_space_group_name_H-M   'C 2/c'
_symmetry_Int_Tables_number      15
_space_group_name_Hall           '-C 2yc'
loop_
_symmetry_equiv_pos_site_id
_symmetry_equiv_pos_as_xyz
1 x,y,z
2 -x,y,1/2-z
3 1/2+x,1/2+y,z
4 1/2-x,1/2+y,1/2-z
5 -x,-y,-z
6 x,-y,1/2+z
7 1/2-x,1/2-y,-z
8 1/2+x,1/2-y,1/2+z
_cell_length_a                   33.6474(7)
_cell_length_b                   13.9237(3)
_cell_length_c                   23.3437(5)
_cell_angle_alpha                90
_cell_angle_beta                 112.4950(10)
_cell_angle_gamma                90
_cell_volume                     10104.3
loop_
_atom_site_label
_atom_site_type_symbol
_atom_site_fract_x
_atom_site_fract_y
_atom_site_fract_z
_atom_site_U_iso_or_equiv
_atom_site_thermal_displace_type
B1 B 0.1390(3) 0.3316(5) 0.0595(3) 0.0799 Uani
F1 F 0.13916(11) 0.2747(2) 0.10573(14) 0.0827 Uani
F2 F 0.1004(3) 0.3844(5) 0.0431(3) 0.2149 Uani
F3 F 0.1396(3) 0.2848(5) 0.0122(2) 0.2276 Uani
F4 F 0.1685(3) 0.3981(5) 0.0818(3) 0.2045 Uani
Ag1 Ag 0.153997(8) 0.13611(2) 0.291291(11) 0.0423 Uani
N1 N 0.21781(11) 0.1516(3) 0.37218(14) 0.0533 Uani
C1 C 0.24861(12) 0.1502(3) 0.41503(17) 0.0479 Uani
C2 C 0.28719(11) 0.1448(3) 0.46933(16) 0.0409 Uani
C3 C 0.30777(11) 0.0585(3) 0.48719(17) 0.0456 Uani
C4 C 0.30454(10) 0.2288(3) 0.50359(14) 0.0368 Uani
C5 C 0.34603(11) 0.0514(3) 0.53993(17) 0.0444 Uani
H1 H 0.2962 0.0038 0.4640 0.0550 Uiso
H2 H 0.2910 0.2877 0.4909 0.0440 Uiso
C6 C 0.34188(10) 0.2229(2) 0.55611(14) 0.0347 Uani
C7 C 0.36346(10) 0.1351(2) 0.57456(15) 0.0352 Uani
H3 H 0.3597 -0.0075 0.5519 0.0530 Uiso
H4 H 0.3528 0.2778 0.5795 0.0420 Uiso
C8 C 0.40529(10) 0.1326(2) 0.62837(15) 0.0339 Uani
C9 C 0.44030(10) 0.0930(3) 0.61987(14) 0.0380 Uani
C10 C 0.40549(10) 0.1715(2) 0.68477(14) 0.0315 Uani
C11 C 0.44235(12) 0.0546(3) 0.56390(17) 0.0492 Uani
N2 N 0.48120(9) 0.0795(2) 0.66832(12) 0.0370 Uani
C12 C 0.36966(10) 0.1825(2) 0.70276(15) 0.0345 Uani
N3 N 0.44217(8) 0.20134(19) 0.73319(11) 0.0302 Uani
C13 C 0.48350(14) 0.0226(4) 0.57783(19) 0.0625 Uani
H5 H 0.4199 0.0521 0.5253 0.0590 Uiso
C14 C 0.50572(11) 0.0384(3) 0.64226(18) 0.0484 Uani
Zn1 Zn 0.5000 0.14412(4) 0.7500 0.0313 Uani
H6 H 0.3411 0.1683 0.6788 0.0410 Uiso
C15 C 0.38558(9) 0.2182(2) 0.76258(14) 0.0328 Uani
C16 C 0.43029(10) 0.2309(2) 0.77969(14) 0.0321 Uani
H7 H 0.4946 -0.0042 0.5506 0.0750 Uiso
H8 H 0.5344 0.0218 0.6639 0.0580 Uiso
H9 H 0.3699 0.2314 0.7869 0.0390 Uiso
C17 C 0.37893(11) 0.5064(2) 0.68207(15) 0.0393 Uani
N4 N 0.34535(11) 0.4403(3) 0.79748(14) 0.0548 Uani
C18 C 0.46224(10) 0.2763(2) 0.83370(13) 0.0318 Uani
C19 C 0.38125(10) 0.4805(2) 0.62582(15) 0.0355 Uani
H10 H 0.3560 0.5365 0.6876 0.0470 Uiso
C20 C 0.41825(10) 0.4779(3) 0.72912(15) 0.0379 Uani
C21 C 0.46370(11) 0.2825(3) 0.89528(14) 0.0380 Uani
N5 N 0.49673(8) 0.31864(19) 0.82857(10) 0.0297 Uani
C22 C 0.42235(10) 0.4370(2) 0.64047(14) 0.0322 Uani
H11 H 0.3602 0.4897 0.5865 0.0430 Uiso
H12 H 0.4252 0.4867 0.7714 0.0450 Uiso
N6 N 0.44408(8) 0.4367(2) 0.70462(11) 0.0326 Uani
H13 H 0.4431 0.2601 0.9095 0.0460 Uiso
C23 C 0.50121(11) 0.3277(3) 0.92934(14) 0.0384 Uani
C24 C 0.52185(11) 0.3536(2) 0.88826(13) 0.0337 Uani
Zn2 Zn 0.5000 0.37086(4) 0.7500 0.0278 Uani
C25 C 0.43965(10) 0.4046(2) 0.59746(13) 0.0294 Uani
H14 H 0.5116 0.3396 0.9717 0.0460 Uiso
C26 C 0.41617(10) 0.4329(2) 0.53187(13) 0.0320 Uani
C27 C 0.41085(11) 0.5302(2) 0.51731(15) 0.0378 Uani
C28 C 0.40022(12) 0.3660(2) 0.48446(15) 0.0356 Uani
H15 H 0.4206 0.5748 0.5494 0.0450 Uiso
C29 C 0.39173(12) 0.5633(3) 0.45716(16) 0.0424 Uani
C30 C 0.37966(12) 0.3974(3) 0.42337(14) 0.0396 Uani
H16 H 0.4032 0.3007 0.4933 0.0430 Uiso
H17 H 0.3893 0.6287 0.4484 0.0510 Uiso
C31 C 0.37619(10) 0.4953(3) 0.41005(14) 0.0386 Uani
H18 H 0.3683 0.3529 0.3915 0.0480 Uiso
C32 C 0.35823(12) 0.5284(3) 0.34729(16) 0.0451 Uani
N1F N 0.28219(11) 0.3484(3) 0.62782(14) 0.0533 Uani
Ag1F Ag 0.346003(8) 0.36389(2) 0.708709(11) 0.0423 Uani
N2A N 0.51880(9) 0.0795(2) 0.83168(12) 0.0370 Uani
N3A N 0.55783(8) 0.20134(19) 0.76681(11) 0.0302 Uani
C14A C 0.49428(11) 0.0384(3) 0.85774(18) 0.0484 Uani
C9A C 0.55970(10) 0.0930(3) 0.88013(14) 0.0380 Uani
C10A C 0.59451(10) 0.1715(2) 0.81523(14) 0.0315 Uani
C16A C 0.56971(10) 0.2309(2) 0.72031(14) 0.0321 Uani
H8A H 0.4656 0.0218 0.8361 0.0580 Uiso
C13A C 0.51650(14) 0.0226(4) 0.92217(19) 0.0625 Uani
C11A C 0.55765(12) 0.0546(3) 0.93610(17) 0.0492 Uani
C8A C 0.59471(10) 0.1326(2) 0.87163(15) 0.0339 Uani
C12A C 0.63034(10) 0.1825(2) 0.79724(15) 0.0345 Uani
C15A C 0.61442(9) 0.2182(2) 0.73742(14) 0.0328 Uani
C18A C 0.53776(10) 0.2763(2) 0.66630(13) 0.0318 Uani
H7A H 0.5054 -0.0042 0.9494 0.0750 Uiso
H5A H 0.5801 0.0521 0.9747 0.0590 Uiso
C7A C 0.63654(10) 0.1351(2) 0.92544(15) 0.0352 Uani
H6A H 0.6589 0.1683 0.8212 0.0410 Uiso
Ag1G Ag 0.653997(8) 0.36389(2) 0.791291(11) 0.0423 Uani
H9A H 0.6301 0.2314 0.7131 0.0390 Uiso
C21A C 0.53630(11) 0.2825(3) 0.60472(14) 0.0380 Uani
N5A N 0.50327(8) 0.31864(19) 0.67143(10) 0.0297 Uani
C25A C 0.56035(10) 0.4046(2) 0.90254(13) 0.0294 Uani
N6A N 0.55592(8) 0.4367(2) 0.79538(11) 0.0326 Uani
C5A C 0.65397(11) 0.0514(3) 0.96007(17) 0.0444 Uani
C6A C 0.65812(10) 0.2229(2) 0.94389(14) 0.0347 Uani
C17A C 0.62107(11) 0.5064(2) 0.81793(15) 0.0393 Uani
N1G N 0.71781(11) 0.3484(3) 0.87218(14) 0.0533 Uani
N4A N 0.65465(11) 0.4403(3) 0.70252(14) 0.0548 Uani
H13A H 0.5569 0.2601 0.5905 0.0460 Uiso
C23A C 0.49879(11) 0.3277(3) 0.57066(14) 0.0384 Uani
C24A C 0.47815(11) 0.3536(2) 0.61174(13) 0.0337 Uani
C22A C 0.57765(10) 0.4370(2) 0.85953(14) 0.0322 Uani
C26A C 0.58383(10) 0.4329(2) 0.96813(13) 0.0320 Uani
C20A C 0.58175(10) 0.4779(3) 0.77088(15) 0.0379 Uani
H3A H 0.6403 -0.0075 0.9481 0.0530 Uiso
C3A C 0.69223(11) 0.0585(3) 1.01281(17) 0.0456 Uani
C4A C 0.69546(10) 0.2288(3) 0.99641(14) 0.0368 Uani
H4A H 0.6472 0.2778 0.9205 0.0420 Uiso
C19A C 0.61875(10) 0.4805(2) 0.87418(15) 0.0355 Uani
H10A H 0.6440 0.5365 0.8124 0.0470 Uiso
H14A H 0.4884 0.3396 0.5283 0.0460 Uiso
C27A C 0.58915(11) 0.5302(2) 0.98269(15) 0.0378 Uani
C28A C 0.59978(12) 0.3660(2) 1.01554(15) 0.0356 Uani
H12A H 0.5748 0.4867 0.7286 0.0450 Uiso
H1A H 0.7038 0.0038 1.0360 0.0550 Uiso
C2A C 0.71281(11) 0.1448(3) 1.03067(16) 0.0409 Uani
H2A H 0.7090 0.2877 1.0091 0.0440 Uiso
H11A H 0.6398 0.4897 0.9135 0.0430 Uiso
H15A H 0.5794 0.5748 0.9506 0.0450 Uiso
C29A C 0.60827(12) 0.5633(3) 1.04284(16) 0.0424 Uani
C30A C 0.62034(12) 0.3974(3) 1.07663(14) 0.0396 Uani
H16A H 0.5968 0.3007 1.0067 0.0430 Uiso
C1A C 0.75139(12) 0.1502(3) 1.08497(17) 0.0479 Uani
H17A H 0.6107 0.6287 1.0516 0.0510 Uiso
C31A C 0.62381(10) 0.4953(3) 1.08995(14) 0.0386 Uani
H18A H 0.6317 0.3529 1.1085 0.0480 Uiso
N1A N 0.78219(11) 0.1516(3) 1.12782(14) 0.0533 Uani
C32A C 0.64177(12) 0.5284(3) 1.15271(16) 0.0451 Uani
Ag1A Ag 0.846003(8) 0.13611(2) 1.208709(11) 0.0423 Uani
N4E N 0.34535(11) 0.5597(3) 0.29748(14) 0.0548 Uani
N4D N 0.65465(11) 0.5597(3) 1.20252(14) 0.0548 Uani
Ag1C Ag 0.346003(8) 0.63611(2) 0.208709(11) 0.0423 Uani
Ag1B Ag 0.653997(8) 0.63611(2) 1.291291(11) 0.0423 Uani
loop_
_atom_site_aniso_label
_atom_site_aniso_U_11
_atom_site_aniso_U_22
_atom_site_aniso_U_33
_atom_site_aniso_U_23
_atom_site_aniso_U_13
_atom_site_aniso_U_12
B1 0.114(6) 0.064(3) 0.062(3) 0.002(3) 0.034(4) -0.021(4)
F1 0.108(2) 0.0697(17) 0.0694(18) 0.0025(14) 0.0329(18) -0.0300(17)
F2 0.284(10) 0.184(6) 0.113(4) 0.027(4) 0.005(5) 0.104(6)
F3 0.445(12) 0.167(5) 0.101(3) 0.013(3) 0.138(6) 0.071(6)
F4 0.247(8) 0.175(5) 0.197(6) 0.007(4) 0.091(6) -0.144(5)
Ag1 0.02408(16) 0.0683(2) 0.02565(14) -0.01254(10) -0.00024(12) 0.00027(11)
N1 0.0246(17) 0.091(3) 0.0279(15) -0.0177(15) -0.0082(15) 0.0075(15)
C1 0.0250(19) 0.081(3) 0.0328(19) -0.0173(16) 0.0056(17) 0.0083(16)
C2 0.0181(16) 0.071(2) 0.0252(15) -0.0122(14) -0.0010(14) 0.0032(14)
C3 0.0257(18) 0.059(2) 0.0358(18) -0.0224(15) -0.0063(15) 0.0012(15)
C4 0.0246(17) 0.0524(18) 0.0252(15) -0.0043(13) 0.0004(14) 0.0064(14)
C5 0.0284(18) 0.051(2) 0.0382(18) -0.0151(15) -0.0047(16) 0.0060(14)
C6 0.0258(16) 0.0450(17) 0.0283(15) -0.0055(12) 0.0048(13) 0.0024(13)
C7 0.0168(15) 0.0547(19) 0.0236(14) -0.0098(12) -0.0041(13) 0.0009(12)
C8 0.0202(16) 0.0500(18) 0.0241(14) -0.0089(12) 0.0001(13) 0.0018(12)
C9 0.0181(15) 0.064(2) 0.0211(14) -0.0075(13) -0.0044(13) 0.0031(14)
C10 0.0183(15) 0.0448(16) 0.0258(14) -0.0049(12) 0.0021(13) -0.0005(12)
C11 0.035(2) 0.072(3) 0.0367(18) -0.0100(17) 0.0095(17) 0.0044(17)
N2 0.0194(13) 0.0560(17) 0.0289(13) -0.0045(11) 0.0019(11) 0.0050(11)
C12 0.0143(14) 0.0491(18) 0.0359(16) -0.0044(13) 0.0050(13) -0.0014(12)
N3 0.0151(12) 0.0499(15) 0.0222(12) -0.0031(10) 0.0032(10) -0.0014(10)
C13 0.041(2) 0.104(4) 0.039(2) -0.012(2) 0.0113(19) 0.014(2)
C14 0.0246(18) 0.066(2) 0.049(2) -0.0091(18) 0.0078(17) 0.0081(16)
Zn1 0.0143(2) 0.0498(3) 0.0232(2) 0.000 -0.0003(2) 0.000
C15 0.0166(14) 0.0489(18) 0.0321(15) -0.0058(13) 0.0083(13) -0.0034(12)
C16 0.0199(15) 0.0455(16) 0.0281(15) -0.0010(12) 0.0061(13) -0.0031(12)
C17 0.0338 0.0454 0.0393 -0.0051 0.0147 0.0086
N4 0.0421 0.089 0.0273 0.0189 0.0065 0.0031
C18 0.0217(15) 0.0502(17) 0.0211(13) -0.0069(12) 0.0055(12) -0.0065(12)
C19 0.0239 0.0478 0.0306 0.001 0.0058 0.0073
C20 0.0329 0.0483 0.0309 -0.0033 0.0105 0.0031
C21 0.0270(17) 0.061(2) 0.0252(14) -0.0098(14) 0.0092(14) -0.0116(14)
N5 0.0200(12) 0.0497(14) 0.0151(10) -0.0059(10) 0.0019(10) -0.0058(10)
C22 0.0232 0.0467 0.0242 0.0031 0.0063 0.0056
N6 0.0258 0.0486 0.0219 -0.0016 0.0073 0.004
C23 0.0322(18) 0.061(2) 0.0206(14) -0.0069(13) 0.0085(14) -0.0137(15)
C24 0.0241(16) 0.0555(19) 0.0158(12) -0.0028(11) 0.0014(12) -0.0053(13)
Zn2 0.0193(3) 0.0462(3) 0.0137(2) 0.000 0.00150(19) 0.000
C25 0.0248 0.0392 0.0197 0.005 0.0036 0.0044
C26 0.0235 0.0473 0.0183 0.0068 0.0004 0.0093
C27 0.039 0.0406 0.0276 -0.0006 0.0059 0.0018
C28 0.04 0.0402 0.0253 0.0067 0.0112 0.0071
C29 0.037 0.053 0.0335 0.0121 0.0095 0.0048
C30 0.0347 0.059 0.0176 0.0006 0.0017 0.0001
C31 0.024 0.065 0.0215 0.0087 0.0027 0.0039
C32 0.0337 0.066 0.0325 0.0133 0.0092 0.0083
N1F 0.0246 0.091 0.0279 0.0177 -0.0082 -0.0075
Ag1F 0.02408 0.0683 0.02565 -0.01254 -0.00024 0.00027
N2A 0.0194 0.056 0.0289 0.0045 0.0019 -0.005
N3A 0.0151 0.0499 0.0222 0.0031 0.0032 0.0014
C14A 0.0246 0.066 0.049 0.0091 0.0078 -0.0081
C9A 0.0181 0.064 0.0211 0.0075 -0.0044 -0.0031
C10A 0.0183 0.0448 0.0258 0.0049 0.0021 0.0005
C16A 0.0199 0.0455 0.0281 0.001 0.0061 0.0031
C13A 0.041 0.104 0.039 0.012 0.0113 -0.014
C11A 0.035 0.072 0.0367 0.01 0.0095 -0.0044
C8A 0.0202 0.05 0.0241 0.0089 0.0001 -0.0018
C12A 0.0143 0.0491 0.0359 0.0044 0.005 0.0014
C15A 0.0166 0.0489 0.0321 0.0058 0.0083 0.0034
C18A 0.0217 0.0502 0.0211 0.0069 0.0055 0.0065
C7A 0.0168 0.0547 0.0236 0.0098 -0.0041 -0.0009
Ag1G 0.02408 0.0683 0.02565 0.01254 -0.00024 -0.00027
C21A 0.027 0.061 0.0252 0.0098 0.0092 0.0116
N5A 0.02 0.0497 0.0151 0.0059 0.0019 0.0058
C25A 0.0248(15) 0.0392(15) 0.0197(13) -0.0050(11) 0.0036(12) -0.0044(12)
N6A 0.0258(14) 0.0486(15) 0.0219(11) 0.0016(10) 0.0073(11) -0.0040(11)
C5A 0.0284 0.051 0.0382 0.0151 -0.0047 -0.006
C6A 0.0258 0.045 0.0283 0.0055 0.0048 -0.0024
C17A 0.0338(18) 0.0454(17) 0.0393(17) 0.0051(14) 0.0147(15) -0.0086(14)
N1G 0.0246(17) 0.091(3) 0.0279(15) -0.0177(15) -0.0082(15) 0.0075(15)
N4A 0.0421 0.089 0.0273 -0.0189 0.0065 -0.0031
C23A 0.0322 0.061 0.0206 0.0069 0.0085 0.0137
C24A 0.0241 0.0555 0.0158 0.0028 0.0014 0.0053
C22A 0.0232(15) 0.0467(17) 0.0242(14) -0.0031(12) 0.0063(13) -0.0056(12)
C26A 0.0235(16) 0.0473(17) 0.0183(12) -0.0068(11) 0.0004(12) -0.0093(12)
C20A 0.0329(18) 0.0483(19) 0.0309(16) 0.0033(13) 0.0105(15) -0.0031(13)
C3A 0.0257 0.059 0.0358 0.0224 -0.0063 -0.0012
C4A 0.0246 0.0524 0.0252 0.0043 0.0004 -0.0064
C19A 0.0239(16) 0.0478(18) 0.0306(15) -0.0010(13) 0.0058(14) -0.0073(13)
C27A 0.0390(19) 0.0406(16) 0.0276(15) 0.0006(12) 0.0059(14) -0.0018(14)
C28A 0.0400(19) 0.0402(16) 0.0253(15) -0.0067(12) 0.0112(15) -0.0071(13)
C2A 0.0181 0.071 0.0252 0.0122 -0.001 -0.0032
C29A 0.037 0.053 0.0335 -0.0121 0.0095 -0.0048
C30A 0.0347 0.059 0.0176 -0.0006 0.0017 -0.0001
C1A 0.025 0.081 0.0328 0.0173 0.0056 -0.0083
C31A 0.024 0.065 0.0215 -0.0087 0.0027 -0.0039
N1A 0.0246 0.091 0.0279 0.0177 -0.0082 -0.0075
C32A 0.0337 0.066 0.0325 -0.0133 0.0092 -0.0083
Ag1A 0.02408 0.0683 0.02565 0.01254 -0.00024 -0.00027
N4E 0.0421 0.089 0.0273 0.0189 0.0065 0.0031
N4D 0.0421 0.089 0.0273 -0.0189 0.0065 -0.0031
Ag1C 0.02408 0.0683 0.02565 0.01254 -0.00024 -0.00027
Ag1B 0.02408 0.0683 0.02565 -0.01254 -0.00024 0.00027
loop_
_geom_bond_atom_site_label_1
_geom_bond_atom_site_label_2
_geom_bond_site_symmetry_1
_geom_bond_site_symmetry_2
Ag1 N1 1_555 1_555
N1 C1 1_555 1_555
C1 C2 1_555 1_555
C2 C3 1_555 1_555
C3 C5 1_555 1_555
C4 C2 1_555 1_555
C5 C7 1_555 1_555
H1 C3 1_555 1_555
H2 C4 1_555 1_555
C6 C4 1_555 1_555
C7 C6 1_555 1_555
H3 C5 1_555 1_555
H4 C6 1_555 1_555
C8 C7 1_555 1_555
C9 C8 1_555 1_555
C10 C8 1_555 1_555
C11 C9 1_555 1_555
N2 C9 1_555 1_555
C12 C10 1_555 1_555
N3 C10 1_555 1_555
C13 C11 1_555 1_555
H5 C11 1_555 1_555
C14 N2 1_555 1_555
Zn1 N2 1_555 1_555
H6 C12 1_555 1_555
C15 C12 1_555 1_555
C16 N3 1_555 1_555
H7 C13 1_555 1_555
H8 C14 1_555 1_555
H9 C15 1_555 1_555
C17 C19 1_555 1_555
N4 Ag1F 1_555 1_555
C18 C16 1_555 1_555
C19 C22 1_555 1_555
H10 C17 1_555 1_555
C20 C17 1_555 1_555
C21 C18 1_555 1_555
N5 C18 1_555 1_555
C22 N6 1_555 1_555
H11 C19 1_555 1_555
H12 C20 1_555 1_555
N6 C20 1_555 1_555
H13 C21 1_555 1_555
C23 C21 1_555 1_555
C24 N5 1_555 1_555
Zn2 N5 1_555 1_555
C25 C22 1_555 1_555
H14 C23 1_555 1_555
C26 C25 1_555 1_555
C27 C26 1_555 1_555
C28 C26 1_555 1_555
H15 C27 1_555 1_555
C29 C27 1_555 1_555
C30 C28 1_555 1_555
H16 C28 1_555 1_555
H17 C29 1_555 1_555
C31 C29 1_555 1_555
H18 C30 1_555 1_555
C32 C31 1_555 1_555
B1 F1 1_555 1_555
F2 B1 1_555 1_555
F3 B1 1_555 1_555
F4 B1 1_555 1_555
N1F Ag1F 1_555 1_555
Ag1F C12 1_555 1_555
N2A Zn1 1_555 1_555
N3A Zn1 1_555 1_555
C14A N2A 1_555 1_555
C9A N2A 1_555 1_555
C10A N3A 1_555 1_555
C16A N3A 1_555 1_555
H8A C14A 1_555 1_555
C13A C14A 1_555 1_555
C11A C9A 1_555 1_555
C8A C9A 1_555 1_555
C12A C10A 1_555 1_555
C15A C16A 1_555 1_555
C18A C16A 1_555 1_555
H7A C13A 1_555 1_555
H5A C11A 1_555 1_555
C7A C8A 1_555 1_555
H6A C12A 1_555 1_555
Ag1G C12A 1_555 1_555
H9A C15A 1_555 1_555
C21A C18A 1_555 1_555
N5A Zn2 1_555 1_555
C25A C24 1_555 1_555
N6A Zn2 1_555 1_555
C5A C7A 1_555 1_555
C6A C7A 1_555 1_555
C17A Ag1G 1_555 1_555
N1G Ag1G 1_555 1_555
N4A Ag1G 1_555 1_555
H13A C21A 1_555 1_555
C23A C21A 1_555 1_555
C24A C25 1_555 1_555
C22A C25A 1_555 1_555
C26A C25A 1_555 1_555
C20A N6A 1_555 1_555
H3A C5A 1_555 1_555
C3A C5A 1_555 1_555
C4A C6A 1_555 1_555
H4A C6A 1_555 1_555
C19A C17A 1_555 1_555
H10A C17A 1_555 1_555
H14A C23A 1_555 1_555
C27A C26A 1_555 1_555
C28A C26A 1_555 1_555
H12A C20A 1_555 1_555
H1A C3A 1_555 1_555
C2A C3A 1_555 1_555
H2A C4A 1_555 1_555
H11A C19A 1_555 1_555
H15A C27A 1_555 1_555
C29A C27A 1_555 1_555
C30A C28A 1_555 1_555
H16A C28A 1_555 1_555
C1A C2A 1_555 1_555
H17A C29A 1_555 1_555
C31A C29A 1_555 1_555
H18A C30A 1_555 1_555
N1A C1A 1_555 1_555
C32A C31A 1_555 1_555
Ag1A N1A 1_555 1_555
N4E C32 1_555 1_555
N4D C32A 1_555 1_555
Ag1C N4E 1_555 1_555
Ag1B N4D 1_555 1_555
N3 Zn1 1_555 1_555
C13 C14 1_555 1_555
C15 C16 1_555 1_555
C15 Ag1F 1_555 1_555
C17 Ag1F 1_555 1_555
N6 Zn2 1_555 1_555
C23 C24 1_555 1_555
C30 C31 1_555 1_555
C10A C8A 1_555 1_555
C13A C11A 1_555 1_555
C12A C15A 1_555 1_555
C15A Ag1G 1_555 1_555
C18A N5A 1_555 1_555
N5A C24A 1_555 1_555
N6A C22A 1_555 1_555
C17A C20A 1_555 1_555
C23A C24A 1_555 1_555
C22A C19A 1_555 1_555
C4A C2A 1_555 1_555
C30A C31A 1_555 1_555

#END
