
#######################################################################
#
#                 Cambridge Crystallographic Data Centre
#                                CCDC 
#
#######################################################################
#
# If this CIF has been generated from an entry in the Cambridge 
# Structural Database, then it will include bibliographic, chemical, 
# crystal, experimental, refinement or atomic coordinate data resulting 
# from the CCDC's data processing and validation procedures.
#
#######################################################################

data_FOHSAW01
_chemical_formula_moiety         '(C6 H18 Ni1 O15 Sr1)n'
_symmetry_cell_setting           monoclinic
_symmetry_space_group_name_H-M   'P 21/c'
_symmetry_Int_Tables_number      14
_space_group_name_Hall           '-P 2ybc'
loop_
_symmetry_equiv_pos_site_id
_symmetry_equiv_pos_as_xyz
1 x,y,z
2 -x,1/2+y,1/2-z
3 -x,-y,-z
4 x,1/2-y,1/2+z
_cell_length_a                   6.7745(14)
_cell_length_b                   14.220(3)
_cell_length_c                   15.629(3)
_cell_angle_alpha                90
_cell_angle_beta                 101.10(3)
_cell_angle_gamma                90
_cell_volume                     1477.43
loop_
_atom_site_label
_atom_site_type_symbol
_atom_site_fract_x
_atom_site_fract_y
_atom_site_fract_z
Sr1 Sr 0.76917(4) 0.41527(3) 0.54827(2)
Ni1 Ni 0.77798(6) 0.26471(3) 0.29429(3)
O1 O 0.6901(3) 0.35987(19) 0.37645(16)
O2 O 0.4937(4) 0.46958(19) 0.41211(16)
O3 O 0.2090(5) 0.3344(3) 0.1625(3)
O4 O 0.4994(4) 0.2690(2) 0.21955(17)
O5 O 0.8646(4) 0.33365(19) 0.71529(16)
O6 O 1.0210(4) 0.46174(19) 0.68917(16)
O7 O 1.0539(4) 0.2394(2) 0.87197(18)
O8 O 1.3529(4) 0.2935(2) 0.9271(2)
C1 C 0.5431(5) 0.4164(3) 0.3563(2)
C2 C 0.4297(6) 0.4246(3) 0.2641(3)
H1 H 0.5089 0.4630 0.2320
H2 H 0.3057 0.4584 0.2650
C3 C 0.3765(5) 0.3345(3) 0.2136(3)
C4 C 1.0035(5) 0.3927(3) 0.7363(2)
C5 C 1.1565(7) 0.3855(4) 0.8191(3)
H3 H 1.2856 0.4000 0.8042
H4 H 1.1275 0.4361 0.8565
C6 C 1.1875(5) 0.2988(3) 0.8748(2)
O9 O 0.6818(5) 0.1619(2) 0.3674(2)
H5 H 0.5832 0.1782 0.3899
H6 H 0.7235 0.1063 0.3805
O10 O 0.8706(3) 0.37394(19) 0.22446(16)
H7 H 0.9763 0.3629 0.2042
H8 H 0.8794 0.4243 0.2542
O11 O 0.4547(3) 0.32253(19) 0.56368(16)
H9 H 0.4583 0.2973 0.6130
H10 H 0.4168 0.2852 0.5212
O12 O 0.8968(4) 0.24515(19) 0.54373(17)
H11 H 1.0020 0.2298 0.5801
H12 H 0.8940 0.2226 0.4933
O13 O 0.8855(4) 0.58384(18) 0.51241(16)
H13 H 0.9186 0.6223 0.5544
H14 H 0.7751 0.5986 0.4787
Sr1B Sr 0.23083(4) 0.58473(3) 0.45173(2)
Sr1B_2 Sr 1.23083(4) 0.58473(3) 0.45173(2)
Ni1C Ni 0.77798(6) 0.23529(3) 0.79429(3)
O2B O 0.5063(4) 0.53042(19) 0.58789(16)
O5C O 0.8646(4) 0.16635(19) 0.21529(16)
O7C O 1.0539(4) 0.2606(2) 0.37197(18)
O13B O 1.1145(4) 0.41616(18) 0.48759(16)
H13B H 1.0814 0.3777 0.4456
H14B H 1.2249 0.4014 0.5213
O14 O 0.5916(6) 0.0732(3) 0.5637(2)
H15 H 0.6736 0.1063 0.6009
H16 H 0.5234 0.1080 0.5238
O15 O 0.8248(5) 0.0017(3) 0.4433(2)
H17 H 0.7252 -0.0157 0.4633
H18 H 0.8963 -0.0419 0.4283
loop_
_geom_bond_atom_site_label_1
_geom_bond_atom_site_label_2
_geom_bond_site_symmetry_1
_geom_bond_site_symmetry_2
Sr1 O1 1_555 1_555
Ni1 O1 1_555 1_555
O1 C1 1_555 1_555
O2 Sr1 1_555 1_555
O3 C3 1_555 1_555
O4 Ni1 1_555 1_555
O5 Sr1 1_555 1_555
O6 Sr1 1_555 1_555
O7 C6 1_555 1_555
O8 C6 1_555 1_555
C1 O2 1_555 1_555
C2 C1 1_555 1_555
H1 C2 1_555 1_555
H2 C2 1_555 1_555
C3 O4 1_555 1_555
C4 O5 1_555 1_555
C5 C4 1_555 1_555
H3 C5 1_555 1_555
H4 C5 1_555 1_555
C6 C5 1_555 1_555
O9 Ni1 1_555 1_555
H5 O9 1_555 1_555
H6 O9 1_555 1_555
O10 Ni1 1_555 1_555
H7 O10 1_555 1_555
H8 O10 1_555 1_555
O11 Sr1 1_555 1_555
H9 O11 1_555 1_555
H10 O11 1_555 1_555
O12 Sr1 1_555 1_555
H11 O12 1_555 1_555
H12 O12 1_555 1_555
O13 Sr1 1_555 1_555
H13 O13 1_555 1_555
H14 O13 1_555 1_555
O14 H15 1_555 1_555
H16 O14 1_555 1_555
O15 H17 1_555 1_555
H18 O15 1_555 1_555
Sr1B O2 1_555 1_555
Sr1B_2 O13 1_555 1_555
Ni1C O5 1_555 1_555
O2B Sr1 1_555 1_555
O5C Ni1 1_555 1_555
O7C Ni1 1_555 1_555
O13B Sr1 1_555 1_555
H13B O13B 1_555 1_555
H14B O13B 1_555 1_555
O6 C4 1_555 1_555
O7 Ni1C 1_555 1_555
C2 C3 1_555 1_555
Sr1B O2B 1_555 1_555
Sr1B_2 O13B 1_555 1_555

#END
