
#######################################################################
#
#                 Cambridge Crystallographic Data Centre
#                                CCDC 
#
#######################################################################
#
# If this CIF has been generated from an entry in the Cambridge 
# Structural Database, then it will include bibliographic, chemical, 
# crystal, experimental, refinement or atomic coordinate data resulting 
# from the CCDC's data processing and validation procedures.
#
#######################################################################

data_AJOVEB
_chemical_formula_moiety         '(C19 H10 Cd2 F6 O10)n'
_symmetry_cell_setting           rhombohedral
_symmetry_space_group_name_H-M   'R -3'
_symmetry_Int_Tables_number      148
_space_group_name_Hall           '-R 3'
loop_
_symmetry_equiv_pos_site_id
_symmetry_equiv_pos_as_xyz
1 x,y,z
2 -y,x-y,z
3 -x+y,-x,z
4 2/3+x,1/3+y,1/3+z
5 2/3-y,1/3+x-y,1/3+z
6 2/3-x+y,1/3-x,1/3+z
7 1/3+x,2/3+y,2/3+z
8 1/3-y,2/3+x-y,2/3+z
9 1/3-x+y,2/3-x,2/3+z
10 -x,-y,-z
11 y,-x+y,-z
12 x-y,x,-z
13 1/3-x,2/3-y,2/3-z
14 1/3+y,2/3-x+y,2/3-z
15 1/3+x-y,2/3+x,2/3-z
16 2/3-x,1/3-y,1/3-z
17 2/3+y,1/3-x+y,1/3-z
18 2/3+x-y,1/3+x,1/3-z
_cell_length_a                   40.024(6)
_cell_length_b                   40.024(6)
_cell_length_c                   7.7200(15)
_cell_angle_alpha                90
_cell_angle_beta                 90
_cell_angle_gamma                120
_cell_volume                     10710
loop_
_atom_site_label
_atom_site_type_symbol
_atom_site_fract_x
_atom_site_fract_y
_atom_site_fract_z
Cd1 Cd 0.533821(8) 0.504796(8) -0.71661(4)
Cd2 Cd 0.573322(8) 0.547521(8) -0.15717(4)
O1 O 0.52836(10) 0.45893(9) -0.5394(4)
O2 O 0.52223(8) 0.49358(8) -0.3301(4)
O3 O 0.45739(8) 0.43837(8) -0.1456(4)
O4 O 0.48604(8) 0.45780(9) 0.1083(4)
O5 O 0.37394(8) 0.25525(8) 0.2467(4)
O6 O 0.40636(9) 0.27677(9) -0.0005(4)
O7 O 0.39749(9) 0.29679(8) 0.6366(4)
O8 O 0.39987(8) 0.24368(8) 0.5933(4)
F1 F 0.54693(9) 0.30622(8) 0.1179(4)
F2 F 0.58549(8) 0.34757(8) -0.0637(4)
F3 F 0.52451(8) 0.31724(7) -0.1136(4)
F4 F 0.59402(8) 0.37186(9) 0.3108(4)
F5 F 0.61341(7) 0.41235(8) 0.1004(4)
F6 F 0.57972(7) 0.41725(7) 0.3037(3)
C1 C 0.52975(11) 0.43942(10) -0.2541(5)
C2 C 0.55358(11) 0.42478(11) -0.2955(5)
H1 H 0.5664 0.4311 -0.4014
C3 C 0.55873(11) 0.40102(11) -0.1830(5)
H2 H 0.5747 0.3913 -0.2143
C4 C 0.51160(10) 0.43082(10) -0.0914(5)
C5 C 0.51756(10) 0.40768(10) 0.0242(5)
H3 H 0.5064 0.4030 0.1337
C6 C 0.54015(10) 0.39135(10) -0.0220(5)
C7 C 0.52594(11) 0.46523(11) -0.3841(5)
C8 C 0.48341(10) 0.44341(10) -0.0418(5)
C9 C 0.54600(10) 0.36549(10) 0.1069(5)
C10 C 0.55127(12) 0.33415(11) 0.0112(6)
C11 C 0.58368(11) 0.39168(12) 0.2059(6)
C12 C 0.51116(10) 0.34384(10) 0.2313(5)
C13 C 0.47499(11) 0.32157(10) 0.1563(5)
H4 H 0.4727 0.3213 0.0364
C14 C 0.44192(10) 0.29954(10) 0.2563(5)
C15 C 0.44440(10) 0.30059(10) 0.4366(5)
C16 C 0.48080(12) 0.32378(12) 0.5116(5)
H5 H 0.4830 0.3254 0.6317
C17 C 0.51341(11) 0.34435(11) 0.4110(5)
H6 H 0.5373 0.3588 0.4644
C18 C 0.40443(11) 0.27515(10) 0.1617(5)
C19 C 0.41112(11) 0.27906(11) 0.5600(5)
O9 O 0.59215(14) 0.60723(12) -0.2413(7)
H7 H 0.5884 0.6123 -0.3439
H8 H 0.5763 0.6091 -0.1744
Cd1I Cd 0.466179(8) 0.495204(8) -0.28339(4)
Cd1_2 Cd 0.533821(8) 0.504796(8) 0.28339(4)
Cd1N Cd 0.362358(11) 0.200488(8) 0.38328(4)
Cd2I Cd 0.426678(8) 0.452479(8) 0.15717(4)
Cd2N Cd 0.359134(11) 0.239989(8) -0.17616(4)
Cd2N_2 Cd 0.359134(11) 0.239989(8) 0.82384(4)
O2I O 0.47777(8) 0.50642(8) -0.6699(4)
O3I O 0.54261(8) 0.56163(8) -0.8544(4)
O4_2 O 0.48604(8) 0.45780(9) -0.8917(4)
O4I O 0.51396(8) 0.54220(9) -0.1083(4)
O5M O 0.58858(8) 0.54798(11) -0.5800(4)
O6M O 0.61010(9) 0.53708(13) -0.3328(4)
O7M O 0.63012(8) 0.56597(12) 0.0301(4)
O8M O 0.57701(8) 0.51048(11) -0.9266(4)
O8M_2 O 0.57701(8) 0.51048(11) 0.0734(4)
O10 O 0.4201(4) 0.37656(19) -0.4310(11)
H9 H 0.4129 0.3538 -0.3931
H10 H 0.4257 0.3912 -0.3424
loop_
_geom_bond_atom_site_label_1
_geom_bond_atom_site_label_2
_geom_bond_site_symmetry_1
_geom_bond_site_symmetry_2
Cd1 O1 1_555 1_555
Cd2 O2 1_555 1_555
O1 C7 1_555 1_555
O2 C7 1_555 1_555
O3 C8 1_555 1_555
O4 C8 1_555 1_555
O5 C18 1_555 1_555
O6 C18 1_555 1_555
O7 C19 1_555 1_555
O8 C19 1_555 1_555
F1 C10 1_555 1_555
F2 C10 1_555 1_555
F3 C10 1_555 1_555
F4 C11 1_555 1_555
F5 C11 1_555 1_555
F6 C11 1_555 1_555
C1 C2 1_555 1_555
C2 H1 1_555 1_555
C3 C2 1_555 1_555
H2 C3 1_555 1_555
C4 C1 1_555 1_555
C5 C4 1_555 1_555
H3 C5 1_555 1_555
C6 C3 1_555 1_555
C7 C1 1_555 1_555
C8 C4 1_555 1_555
C9 C6 1_555 1_555
C10 C9 1_555 1_555
C11 C9 1_555 1_555
C12 C9 1_555 1_555
C13 C12 1_555 1_555
H4 C13 1_555 1_555
C14 C13 1_555 1_555
C15 C14 1_555 1_555
C16 C15 1_555 1_555
H5 C16 1_555 1_555
C17 C12 1_555 1_555
H6 C17 1_555 1_555
C18 C14 1_555 1_555
C19 C15 1_555 1_555
O9 Cd2 1_555 1_555
H7 O9 1_555 1_555
H8 O9 1_555 1_555
O10 H9 1_555 1_555
H10 O10 1_555 1_555
Cd1I O2 1_555 1_555
Cd1_2 O4 1_555 1_555
Cd1N O5 1_555 1_555
Cd2I O4 1_555 1_555
Cd2N O6 1_555 1_555
Cd2N_2 O7 1_555 1_555
O2I Cd1 1_555 1_555
O3I Cd1 1_555 1_555
O4_2 Cd1 1_555 1_555
O4I Cd2 1_555 1_555
O5M Cd1 1_555 1_555
O6M Cd2 1_555 1_555
O7M Cd2 1_555 1_555
O8M Cd1 1_555 1_555
O8M_2 Cd2 1_555 1_555
O3 Cd1I 1_555 1_555
O8 Cd1N 1_555 1_555
O8 Cd2N_2 1_555 1_555
C5 C6 1_555 1_555
C16 C17 1_555 1_555
Cd1I O4I 1_555 1_555
Cd1_2 O8M_2 1_555 1_555

#END
