
#######################################################################
#
#                 Cambridge Crystallographic Data Centre
#                                CCDC 
#
#######################################################################
#
# If this CIF has been generated from an entry in the Cambridge 
# Structural Database, then it will include bibliographic, chemical, 
# crystal, experimental, refinement or atomic coordinate data resulting 
# from the CCDC's data processing and validation procedures.
#
#######################################################################

data_OHEGAJ
_chemical_formula_moiety         '(C10 H24 As6 N3 O32 Zn6 3-)n'
_symmetry_cell_setting           monoclinic
_symmetry_space_group_name_H-M   'P 21/c'
_symmetry_Int_Tables_number      14
_space_group_name_Hall           '-P 2ybc'
loop_
_symmetry_equiv_pos_site_id
_symmetry_equiv_pos_as_xyz
1 x,y,z
2 x,1/2-y,1/2+z
3 -x,-y,-z
4 -x,1/2+y,1/2-z
_cell_length_a                   16.0857(2)
_cell_length_b                   9.1973(2)
_cell_length_c                   15.4216(3)
_cell_angle_alpha                90
_cell_angle_beta                 112.0330(10)
_cell_angle_gamma                90
_cell_volume                     2114.92
loop_
_atom_site_label
_atom_site_type_symbol
_atom_site_fract_x
_atom_site_fract_y
_atom_site_fract_z
As1 As 0.71917(4) -0.55043(6) -0.15945(4)
As2 As 0.77730(4) -0.79664(7) 0.11857(4)
As3 As 0.52912(4) -0.27033(6) 0.04077(4)
Zn1 Zn 0.89358(4) -0.74915(7) -0.02535(4)
Zn2 Zn 0.64665(4) -0.53096(7) 0.01269(4)
Zn3 Zn 0.59249(4) -0.56654(7) -0.37066(4)
O1 O 0.7155(3) -0.4761(4) -0.0628(3)
O2 O 0.7921(3) -0.6853(4) -0.1453(3)
O3 O 0.6170(2) -0.5957(4) -0.2361(2)
O4 O 0.7561(3) -0.4060(4) -0.2086(3)
H1 H 0.7602 -0.4324 -0.2576
O5 O 0.7279(3) -0.6380(4) 0.1195(3)
O6 O 0.8093(3) -0.8311(4) 0.0308(3)
O7 O 0.7121(2) -0.9404(4) 0.1224(3)
O8 O 0.8717(2) -0.8037(5) 0.2200(3)
H2 H 0.8579 -0.7869 0.2650
O9 O 0.5348(3) -0.1218(4) 0.1052(3)
O10 O 0.6326(2) -0.3373(4) 0.0616(3)
O11 O 0.4819(2) -0.2323(4) -0.0743(3)
O12 O 0.4667(3) -0.3922(4) 0.0703(3)
O13 O 0.9313(3) -0.5597(4) 0.0582(3)
O14 O 1.0022(3) -0.8635(4) 0.0797(3)
O15 O 1.0868(3) -1.0653(4) 0.1006(3)
O16 O 1.0153(3) -0.3600(4) 0.0806(3)
C1 C 0.9853(4) -0.4766(7) 0.0398(4)
C2 C 1.0255(4) -0.9788(7) 0.0522(4)
C1B C 1.0147(4) -0.5234(7) -0.0398(4)
O13B O 1.0687(3) -0.4403(4) -0.0582(3)
O16B O 0.9847(3) -0.6400(4) -0.0806(3)
C2B C 0.9745(4) -1.0212(7) -0.0522(4)
O14B O 0.9978(3) -1.1365(4) -0.0797(3)
O15B O 0.9132(3) -0.9347(4) -0.1006(3)
Zn1B Zn 1.10642(4) -0.25085(7) 0.02535(4)
Zn3A Zn 0.59249(4) -0.93346(7) 0.12934(4)
As3B As 0.47088(4) -0.72967(6) -0.04077(4)
O9B O 0.4652(3) -0.8782(4) -0.1052(3)
O10B O 0.3674(2) -0.6627(4) -0.0616(3)
O11B O 0.5181(2) -0.7677(4) 0.0743(3)
O12B O 0.5333(3) -0.6078(4) -0.0703(3)
As2A As 0.77730(4) -0.70336(7) -0.38143(4)
O5A O 0.7279(3) -0.8620(4) -0.3805(3)
O6A O 0.8093(3) -0.6689(4) -0.4692(3)
O7A O 0.7121(2) -0.5596(4) -0.3776(3)
O8A O 0.8717(2) -0.6963(5) -0.2800(3)
H2A H 0.8579 -0.7131 -0.2350
As1B As 1.28083(4) -0.44957(6) 0.15945(4)
O1B O 1.2845(3) -0.5239(4) 0.0628(3)
O2B O 1.2079(3) -0.3147(4) 0.1453(3)
O3B O 1.3830(2) -0.4043(4) 0.2361(2)
O4B O 1.2439(3) -0.5940(4) 0.2086(3)
H1B H 1.2398 -0.5676 0.2576
Zn2B Zn 1.35335(4) -0.46904(7) -0.01269(4)
O9A O 0.5348(3) -0.3782(4) -0.3948(3)
O11C O 0.5181(2) -0.7323(4) -0.4257(3)
Zn3A_2 Zn 0.59249(4) 0.06654(7) 0.12934(4)
Zn3C Zn 0.40751(4) -0.06654(7) -0.12934(4)
Zn2B_2 Zn 0.35335(4) -0.46904(7) -0.01269(4)
Zn1B_2 Zn 1.10642(4) -1.25085(7) 0.02535(4)
O6B O 1.1907(3) -0.1689(4) -0.0308(3)
O14B_2 O 0.9978(3) -0.1365(4) -0.0797(3)
O15_2 O 1.0868(3) -0.0653(4) 0.1006(3)
O3A O 0.6170(2) -0.9043(4) 0.2639(2)
O9_2 O 0.5348(3) -1.1218(4) 0.1052(3)
Zn3C_2 Zn 0.40751(4) -1.06654(7) -0.12934(4)
Zn2A Zn 0.64665(4) -0.96904(7) -0.48731(4)
Zn1A Zn 0.89358(4) -0.75085(7) -0.52535(4)
Zn3B Zn 1.40751(4) -0.43346(7) 0.37066(4)
O5B O 1.2721(3) -0.3620(4) -0.1195(3)
O10B_2 O 1.3674(2) -0.6627(4) -0.0616(3)
O12_2 O 1.4667(3) -0.3922(4) 0.0703(3)
N1 N 0.9147(4) -0.4502(5) 0.2224(3)
H3 H 0.8983 -0.5195 0.2531
H4 H 0.9712 -0.4244 0.2549
H5 H 0.9102 -0.4837 0.1666
C3 C 0.8545(4) -0.3206(7) 0.2097(4)
H6 H 0.8587 -0.2851 0.2704
H7 H 0.7928 -0.3491 0.1750
C4 C 0.8804(4) -0.2010(7) 0.1578(4)
H8 H 0.9453 -0.1984 0.1795
H9 H 0.8611 -0.1092 0.1749
C5 C 0.8433(4) -0.2114(7) 0.0520(4)
H10 H 0.8820 -0.1569 0.0284
H11 H 0.8446 -0.3123 0.0342
N2 N 0.7491(3) -0.1548(5) 0.0066(3)
H12 H 0.7104 -0.2236 0.0096
H13 H 0.7424 -0.0766 0.0385
C6 C 0.7269(4) -0.1138(7) -0.0928(4)
H14 H 0.7276 -0.2000 -0.1287
H15 H 0.7722 -0.0474 -0.0969
C7 C 0.6364(4) -0.0427(7) -0.1339(4)
H16 H 0.6319 0.0323 -0.0917
H17 H 0.5902 -0.1145 -0.1407
C8 C 0.6214(4) 0.0237(7) -0.2278(4)
H18 H 0.6679 0.0949 -0.2211
H19 H 0.6255 -0.0515 -0.2702
N3 N 0.5314(3) 0.0955(5) -0.2684(3)
H20 H 0.5242 0.1337 -0.3238
H21 H 0.5279 0.1655 -0.2301
H22 H 0.4887 0.0299 -0.2755
loop_
_geom_bond_atom_site_label_1
_geom_bond_atom_site_label_2
_geom_bond_site_symmetry_1
_geom_bond_site_symmetry_2
As1 O1 1_555 1_555
As2 O5 1_555 1_555
As3 O9 1_555 1_555
Zn1 O2 1_555 1_555
Zn2 O1 1_555 1_555
Zn3 O3 1_555 1_555
O2 As1 1_555 1_555
O3 As1 1_555 1_555
O4 As1 1_555 1_555
H1 O4 1_555 1_555
O5 Zn2 1_555 1_555
O6 As2 1_555 1_555
O7 As2 1_555 1_555
O8 As2 1_555 1_555
H2 O8 1_555 1_555
O9 Zn3A_2 1_555 1_555
O10 As3 1_555 1_555
O11 As3 1_555 1_555
O12 As3 1_555 1_555
O13 Zn1 1_555 1_555
O14 Zn1 1_555 1_555
O15 C2 1_555 1_555
O16 C1 1_555 1_555
C1 O13 1_555 1_555
C2 O14 1_555 1_555
N1 H3 1_555 1_555
H4 N1 1_555 1_555
H5 N1 1_555 1_555
C3 N1 1_555 1_555
H6 C3 1_555 1_555
H7 C3 1_555 1_555
C4 C3 1_555 1_555
H8 C4 1_555 1_555
H9 C4 1_555 1_555
C5 C4 1_555 1_555
H10 C5 1_555 1_555
H11 C5 1_555 1_555
N2 C5 1_555 1_555
H12 N2 1_555 1_555
H13 N2 1_555 1_555
C6 N2 1_555 1_555
H14 C6 1_555 1_555
H15 C6 1_555 1_555
C7 C6 1_555 1_555
H16 C7 1_555 1_555
H17 C7 1_555 1_555
C8 C7 1_555 1_555
H18 C8 1_555 1_555
H19 C8 1_555 1_555
N3 C8 1_555 1_555
H20 N3 1_555 1_555
H21 N3 1_555 1_555
H22 N3 1_555 1_555
C1B C1 1_555 1_555
O13B C1B 1_555 1_555
O16B Zn1 1_555 1_555
C2B C2 1_555 1_555
O14B C2B 1_555 1_555
O15B Zn1 1_555 1_555
Zn1B O16 1_555 1_555
Zn3A O7 1_555 1_555
As3B O9B 1_555 1_555
O9B Zn3C_2 1_555 1_555
O10B As3B 1_555 1_555
O11B Zn3A 1_555 1_555
O12B Zn2 1_555 1_555
As2A O5A 1_555 1_555
O5A Zn2A 1_555 1_555
O6A As2A 1_555 1_555
O7A Zn3 1_555 1_555
O8A As2A 1_555 1_555
H2A O8A 1_555 1_555
As1B O1B 1_555 1_555
O1B Zn2B 1_555 1_555
O2B Zn1B 1_555 1_555
O3B As1B 1_555 1_555
O4B As1B 1_555 1_555
H1B O4B 1_555 1_555
Zn2B O5B 1_555 1_555
O9A Zn3 1_555 1_555
O11C Zn3 1_555 1_555
Zn3C O11 1_555 1_555
Zn2B_2 O12 1_555 1_555
Zn1B_2 O15 1_555 1_555
O6B Zn1B 1_555 1_555
O14B_2 Zn1B 1_555 1_555
O15_2 Zn1B 1_555 1_555
O3A Zn3A 1_555 1_555
O9_2 Zn3A 1_555 1_555
Zn1A O6A 1_555 1_555
Zn3B O3B 1_555 1_555
O10B_2 Zn2B 1_555 1_555
O12_2 Zn2B 1_555 1_555
Zn1 O6 1_555 1_555
Zn2 O10 1_555 1_555
C1B O16B 1_555 1_555
O13B Zn1B 1_555 1_555
C2B O15B 1_555 1_555
O14B Zn1B_2 1_555 1_555
As3B O11B 1_555 1_555
As3B O12B 1_555 1_555
O10B Zn2B_2 1_555 1_555
As2A O7A 1_555 1_555
As1B O2B 1_555 1_555

#END
