
#######################################################################
#
#                 Cambridge Crystallographic Data Centre
#                                CCDC 
#
#######################################################################
#
# If this CIF has been generated from an entry in the Cambridge 
# Structural Database, then it will include bibliographic, chemical, 
# crystal, experimental, refinement or atomic coordinate data resulting 
# from the CCDC's data processing and validation procedures.
#
#######################################################################

data_LIRNOR
_chemical_formula_moiety         '(C32 H44 N6 O13 Zn2)n'
_symmetry_cell_setting           tetragonal
_symmetry_space_group_name_H-M   'I 41/a c d'
_symmetry_Int_Tables_number      142
_space_group_name_Hall           '-I 4bd 2c'
loop_
_symmetry_equiv_pos_site_id
_symmetry_equiv_pos_as_xyz
1 x,y,z
2 -x,1/2-y,z
3 x,-y,1/2-z
4 1/2-x,y,-z
5 1/4-y,1/4-x,1/4-z
6 3/4+y,1/4+x,1/4-z
7 1/4+y,1/4-x,3/4+z
8 1/4-y,3/4+x,1/4+z
9 1/2+x,1/2+y,1/2+z
10 1/2-x,-y,1/2+z
11 1/2+x,1/2-y,-z
12 -x,1/2+y,1/2-z
13 3/4-y,3/4-x,3/4-z
14 1/4+y,3/4+x,3/4-z
15 3/4+y,3/4-x,1/4+z
16 3/4-y,1/4+x,3/4+z
17 -x,-y,-z
18 x,1/2+y,-z
19 -x,y,1/2+z
20 1/2+x,-y,z
21 3/4+y,3/4+x,3/4+z
22 1/4-y,3/4-x,3/4+z
23 3/4-y,3/4+x,1/4-z
24 3/4+y,1/4-x,3/4-z
25 1/2-x,1/2-y,1/2-z
26 1/2+x,y,1/2-z
27 1/2-x,1/2+y,z
28 x,1/2-y,1/2+z
29 1/4+y,1/4+x,1/4+z
30 3/4-y,1/4-x,1/4+z
31 1/4-y,1/4+x,3/4-z
32 1/4+y,3/4-x,1/4-z
_cell_length_a                   24.0595(5)
_cell_length_b                   24.0595(5)
_cell_length_c                   30.9860(13)
_cell_angle_alpha                90
_cell_angle_beta                 90
_cell_angle_gamma                90
_cell_volume                     17936.5
loop_
_atom_site_label
_atom_site_type_symbol
_atom_site_fract_x
_atom_site_fract_y
_atom_site_fract_z
Zn1 Zn 0.57245(2) 0.12589(2) 0.122165(13)
C1 C 0.29816(19) 0.23813(17) 0.07780(14)
C2 C 0.34830(18) 0.23610(18) 0.04859(13)
H1 H 0.3362 0.2344 0.0188
H2 H 0.3700 0.2697 0.0523
C3 C 0.47837(19) 0.16468(18) 0.08112(13)
C4 C 0.44225(17) 0.1945(2) 0.04897(13)
H3 H 0.4511 0.2339 0.0494
H4 H 0.4501 0.1806 0.0202
C5 C 0.36078(18) 0.13556(18) 0.03870(12)
H5 H 0.3221 0.1321 0.0471
H6 H 0.3805 0.1041 0.0509
C6 C 0.36394(18) 0.13126(18) -0.01025(12)
C7 C 0.4079(2) 0.1040(2) -0.03025(13)
H7 H 0.4353 0.0875 -0.0134
C8 C 0.4114(2) 0.1009(2) -0.07471(13)
H8 H 0.4416 0.0830 -0.0873
C9 C 0.37077(19) 0.1239(2) -0.10080(13)
C10 C 0.3265(2) 0.15146(19) -0.08092(12)
H9 H 0.2989 0.1677 -0.0977
C11 C 0.32349(19) 0.1548(2) -0.03650(13)
H10 H 0.2937 0.1733 -0.0239
C12 C 0.6974(2) 0.1187(2) 0.1082(2)
H11 H 0.7037 0.1540 0.1194
C13 C 0.7374(2) 0.0843(3) 0.09427(19)
H12 H 0.7755 0.0905 0.0944
C14 C 0.6556(2) 0.0465(2) 0.08698(15)
H13 H 0.6282 0.0206 0.0807
C15 C 0.7358(3) -0.0114(3) 0.0605(2)
C16 C 0.7301(5) -0.0270(5) 0.0163(4)
N1 N 0.38335(13) 0.18705(14) 0.05841(10)
N2 N 0.64627(16) 0.09506(17) 0.10368(12)
N3 N 0.71031(18) 0.0387(2) 0.07995(12)
O1 O 0.25668(15) 0.26456(14) 0.06574(11)
O2 O 0.30090(12) 0.21343(13) 0.11411(9)
O3 O 0.45882(14) 0.15317(15) 0.11733(9)
O4 O 0.52810(13) 0.15387(14) 0.07105(9)
C1M C 0.48813(17) 0.04816(19) -0.32780(14)
C2M C 0.48610(18) 0.09830(18) -0.29859(13)
H1M H 0.4844 0.0862 -0.2688
H2M H 0.5197 0.1200 -0.3023
C3M C 0.41468(18) 0.22837(19) -0.33112(13)
C4M C 0.4445(2) 0.19225(17) -0.29897(13)
H3M H 0.4839 0.2011 -0.2994
H4M H 0.4306 0.2001 -0.2702
C5M C 0.38556(18) 0.11078(18) -0.28870(12)
H5M H 0.3821 0.0721 -0.2971
H6M H 0.3541 0.1305 -0.3009
C6M C 0.38126(18) 0.11394(18) -0.23975(12)
C7M C 0.3540(2) 0.1579(2) -0.21975(13)
H7M H 0.3375 0.1853 -0.2366
C8M C 0.3509(2) 0.1614(2) -0.17529(13)
H8M H 0.3330 0.1916 -0.1627
C9M C 0.3739(2) 0.12077(19) -0.14920(13)
C10M C 0.40146(19) 0.0765(2) -0.16908(12)
H9M H 0.4177 0.0489 -0.1523
C11M C 0.4048(2) 0.07349(19) -0.21350(13)
H10M H 0.4233 0.0437 -0.2261
N1M N 0.43705(14) 0.13335(13) -0.30841(10)
O1M O 0.51456(14) 0.00668(15) -0.31574(11)
O2M O 0.46343(13) 0.05090(12) -0.36411(9)
O3M O 0.40317(15) 0.20882(14) -0.36733(9)
O4M O 0.40387(14) 0.27810(13) -0.32105(9)
C12C C 0.8026(2) 0.1187(2) -0.1082(2)
H11C H 0.7963 0.1540 -0.1194
C13C C 0.7626(2) 0.0843(3) -0.09427(19)
H12C H 0.7245 0.0905 -0.0944
C14C C 0.8444(2) 0.0465(2) -0.08698(15)
H13C H 0.8718 0.0206 -0.0807
C15C C 0.7642(3) -0.0114(3) -0.0605(2)
C16C C 0.7699(5) -0.0270(5) -0.0163(4)
N2C N 0.85373(16) 0.09506(17) -0.10368(12)
N3C N 0.78969(18) 0.0387(2) -0.07995(12)
Zn1C Zn 0.92755(2) 0.12589(2) -0.122165(13)
Zn1M Zn 0.37589(2) 0.32245(2) -0.372165(13)
Zn1R Zn 0.42755(2) 0.12589(2) -0.377835(13)
Zn1EA Zn 0.37589(2) 0.17755(2) 0.127835(13)
N1T N 0.93705(14) 0.13335(13) -0.19159(10)
N1V N 0.56295(14) 0.13335(13) 0.19159(10)
O2T O 0.96343(13) 0.05090(12) -0.13589(9)
O2V O 0.53657(13) 0.05090(12) 0.13589(9)
O3T O 0.90317(15) 0.20882(14) -0.13267(9)
O3V O 0.59683(15) 0.20882(14) 0.13267(9)
O4C O 0.97190(13) 0.15387(14) -0.07105(9)
O5 O 0.2500 0.3396(11) 0.0000
O6 O 0.3748(12) 0.3701(11) -0.0086(9)
O7 O 0.1746(7) 0.2958(7) 0.1233(5)
O8 O 0.4362(10) 0.4552(10) 0.0043(8)
O9 O 0.4769(7) 0.0266(5) 0.0564(4)
loop_
_geom_bond_atom_site_label_1
_geom_bond_atom_site_label_2
_geom_bond_site_symmetry_1
_geom_bond_site_symmetry_2
Zn1 N2 1_555 1_555
C1 C2 1_555 1_555
C2 H1 1_555 1_555
H2 C2 1_555 1_555
C3 C4 1_555 1_555
C4 H3 1_555 1_555
H4 C4 1_555 1_555
C5 H5 1_555 1_555
H6 C5 1_555 1_555
C6 C5 1_555 1_555
C7 C6 1_555 1_555
H7 C7 1_555 1_555
C8 C7 1_555 1_555
H8 C8 1_555 1_555
C9 C8 1_555 1_555
C10 C9 1_555 1_555
H9 C10 1_555 1_555
C11 C6 1_555 1_555
H10 C11 1_555 1_555
C12 H11 1_555 1_555
C13 C12 1_555 1_555
H12 C13 1_555 1_555
C14 H13 1_555 1_555
C15 C16 1_555 1_555
C16 C16C 1_555 1_555
N1 C2 1_555 1_555
N2 C12 1_555 1_555
N3 C13 1_555 1_555
O1 C1 1_555 1_555
O2 C1 1_555 1_555
O3 C3 1_555 1_555
O4 Zn1 1_555 1_555
C1M C2M 1_555 1_555
C2M H1M 1_555 1_555
H2M C2M 1_555 1_555
C3M C4M 1_555 1_555
C4M H3M 1_555 1_555
H4M C4M 1_555 1_555
C5M H5M 1_555 1_555
H6M C5M 1_555 1_555
C6M C5M 1_555 1_555
C7M C6M 1_555 1_555
H7M C7M 1_555 1_555
C8M C7M 1_555 1_555
H8M C8M 1_555 1_555
C9M C9 1_555 1_555
C10M C9M 1_555 1_555
H9M C10M 1_555 1_555
C11M C6M 1_555 1_555
H10M C11M 1_555 1_555
N1M C2M 1_555 1_555
O1M C1M 1_555 1_555
O2M C1M 1_555 1_555
O3M C3M 1_555 1_555
O4M C3M 1_555 1_555
C12C H11C 1_555 1_555
C13C C12C 1_555 1_555
H12C C13C 1_555 1_555
C14C H13C 1_555 1_555
C15C C16C 1_555 1_555
N2C C12C 1_555 1_555
N3C C13C 1_555 1_555
Zn1C N2C 1_555 1_555
Zn1M O4M 1_555 1_555
Zn1R N1M 1_555 1_555
Zn1EA N1 1_555 1_555
N1T Zn1C 1_555 1_555
N1V Zn1 1_555 1_555
O2T Zn1C 1_555 1_555
O2V Zn1 1_555 1_555
O3T Zn1C 1_555 1_555
O3V Zn1 1_555 1_555
O4C Zn1C 1_555 1_555
C3 O4 1_555 1_555
C4 N1 1_555 1_555
C5 N1 1_555 1_555
C10 C11 1_555 1_555
C14 N2 1_555 1_555
C14 N3 1_555 1_555
C15 N3 1_555 1_555
O2 Zn1EA 1_555 1_555
O3 Zn1EA 1_555 1_555
C4M N1M 1_555 1_555
C5M N1M 1_555 1_555
C8M C9M 1_555 1_555
C10M C11M 1_555 1_555
O2M Zn1R 1_555 1_555
O3M Zn1R 1_555 1_555
C14C N2C 1_555 1_555
C14C N3C 1_555 1_555
C15C N3C 1_555 1_555

#END
