
#######################################################################
#
#                 Cambridge Crystallographic Data Centre
#                                CCDC 
#
#######################################################################
#
# If this CIF has been generated from an entry in the Cambridge 
# Structural Database, then it will include bibliographic, chemical, 
# crystal, experimental, refinement or atomic coordinate data resulting 
# from the CCDC's data processing and validation procedures.
#
#######################################################################

data_PEFJUF
_chemical_formula_moiety         '(C6 H19 Al5 N1 O25 P6 1-)n'
_symmetry_cell_setting           monoclinic
_symmetry_space_group_name_H-M   'C 2/c'
_symmetry_Int_Tables_number      15
_space_group_name_Hall           '-C 2yc'
loop_
_symmetry_equiv_pos_site_id
_symmetry_equiv_pos_as_xyz
1 x,y,z
2 -x,y,1/2-z
3 1/2+x,1/2+y,z
4 1/2-x,1/2+y,1/2-z
5 -x,-y,-z
6 x,-y,1/2+z
7 1/2-x,1/2-y,-z
8 1/2+x,1/2-y,1/2+z
_cell_length_a                   32.035(12)
_cell_length_b                   14.308(3)
_cell_length_c                   8.852(2)
_cell_angle_alpha                90
_cell_angle_beta                 104.65(2)
_cell_angle_gamma                90
_cell_volume                     3925.46
loop_
_atom_site_label
_atom_site_type_symbol
_atom_site_fract_x
_atom_site_fract_y
_atom_site_fract_z
P1 P -0.0430(1) 0.6194(3) -0.0927(5)
P2 P -0.1887(1) 0.4649(3) -0.0169(6)
P3 P -0.1808(1) 0.7831(3) -0.0051(6)
Al1 Al -0.0000 0.4603(5) -0.2500
Al2 Al -0.2286(2) 0.6278(4) 0.1454(6)
Al3 Al -0.1455(2) 0.6189(4) -0.1767(6)
O1 O -0.0357(4) 0.5292(9) -0.179(2)
O2 O -0.0199(4) 0.7014(8) -0.147(1)
O3 O -0.0904(5) 0.640(1) -0.132(2)
O4 O -0.0287(4) 0.609(1) 0.087(2)
O5 O -0.2204(4) 0.5290(9) 0.034(1)
O6 O -0.2136(4) 0.4032(9) -0.151(2)
O7 O -0.1550(4) 0.522(1) -0.070(2)
O8 O -0.1659(4) 0.4024(9) 0.118(2)
O9 O -0.2183(4) 0.8462(9) -0.091(1)
O10 O -0.1969(4) 0.7200(9) 0.114(2)
O11 O -0.1711(4) 0.720(1) -0.136(2)
O12 O -0.1418(4) 0.835(1) 0.079(2)
P1A P 0.0430(1) 0.6194(3) -0.4073(5)
O1A O 0.0357(4) 0.5292(9) -0.321(2)
O2A O 0.0199(4) 0.7014(8) -0.353(1)
O3A O 0.0904(5) 0.640(1) -0.368(2)
O4A O 0.0287(4) 0.609(1) -0.587(2)
Al3A Al 0.1455(2) 0.6189(4) -0.3233(6)
P2E P -0.1887(1) 0.5351(3) -0.5169(6)
O5E O -0.2204(4) 0.4710(9) -0.466(1)
O6E O -0.2136(4) 0.5968(9) -0.651(2)
O7E O -0.1550(4) 0.478(1) -0.570(2)
O8E O -0.1659(4) 0.5976(9) -0.382(2)
P3A P 0.1808(1) 0.7831(3) -0.4949(6)
O9A O 0.2183(4) 0.8462(9) -0.409(1)
O10A O 0.1969(4) 0.7200(9) -0.614(2)
O11A O 0.1711(4) 0.720(1) -0.364(2)
O12A O 0.1418(4) 0.835(1) -0.579(2)
Al2E Al -0.2286(2) 0.3722(4) -0.3546(6)
O4D O 0.0287(4) 0.391(1) -0.087(2)
O4E O -0.0287(4) 0.391(1) -0.413(2)
O6E_2 O -0.2136(4) 0.5968(9) 0.349(2)
O9F O -0.2817(4) 0.6538(9) 0.091(1)
Al1D Al 0.0000 0.5397(5) 0.2500
Al3E Al -0.1455(2) 0.3811(4) 0.3233(6)
Al2F Al -0.2714(2) 0.8722(4) -0.1454(6)
Al1D_2 Al -0.0000 0.5397(5) -0.7500
O7A O 0.1550(4) 0.522(1) -0.430(2)
O8D O 0.1659(4) 0.5976(9) -0.118(2)
Al2_2 Al -0.2286(2) 0.6278(4) -0.8546(6)
Al3E_2 Al -0.1455(2) 0.3811(4) -0.6767(6)
Al2G Al 0.2714(2) 0.8722(4) -0.3546(6)
Al2A Al 0.2286(2) 0.6278(4) -0.6454(6)
O9C O -0.2817(4) 0.3462(9) -0.409(1)
O10E O -0.1969(4) 0.2800(9) -0.386(2)
O13 O 0.0754(7) 0.130(2) 0.079(3)
N1 N 0.6116(6) 0.355(1) 0.099(2)
C1 C 0.6107(9) 0.259(2) 0.028(3)
C2 C 0.5881(9) 0.186(2) 0.104(3)
C3 C 0.635(1) 0.423(2) 0.020(4)
C4 C 0.681(1) 0.403(3) 0.059(5)
C5 C 0.5671(8) 0.391(2) 0.095(3)
C6 C 0.538(1) 0.401(3) -0.071(4)
loop_
_geom_bond_atom_site_label_1
_geom_bond_atom_site_label_2
_geom_bond_site_symmetry_1
_geom_bond_site_symmetry_2
P1 O1 1_555 1_555
P2 O5 1_555 1_555
P3 O9 1_555 1_555
Al1 O1 1_555 1_555
Al2 O5 1_555 1_555
Al3 O3 1_555 1_555
O2 P1 1_555 1_555
O3 P1 1_555 1_555
O4 P1 1_555 1_555
O6 P2 1_555 1_555
O7 P2 1_555 1_555
O8 P2 1_555 1_555
O9 Al2F 1_555 1_555
O10 P3 1_555 1_555
O11 P3 1_555 1_555
O12 P3 1_555 1_555
N1 C1 1_555 1_555
C1 C2 1_555 1_555
C3 N1 1_555 1_555
C4 C3 1_555 1_555
C5 N1 1_555 1_555
C6 C5 1_555 1_555
P1A O1A 1_555 1_555
O1A Al1 1_555 1_555
O2A P1A 1_555 1_555
O3A P1A 1_555 1_555
O4A P1A 1_555 1_555
Al3A O3A 1_555 1_555
P2E O5E 1_555 1_555
O5E Al2E 1_555 1_555
O6E P2E 1_555 1_555
O7E P2E 1_555 1_555
O8E Al3 1_555 1_555
P3A O9A 1_555 1_555
O9A Al2G 1_555 1_555
O10A P3A 1_555 1_555
O11A Al3A 1_555 1_555
O12A P3A 1_555 1_555
Al2E O6 1_555 1_555
O4D Al1 1_555 1_555
O4E Al1 1_555 1_555
O6E_2 Al2 1_555 1_555
O9F Al2 1_555 1_555
Al1D O4 1_555 1_555
Al3E O8 1_555 1_555
Al1D_2 O4A 1_555 1_555
O7A Al3A 1_555 1_555
O8D Al3A 1_555 1_555
Al2_2 O6E 1_555 1_555
Al3E_2 O7E 1_555 1_555
Al2A O10A 1_555 1_555
O9C Al2E 1_555 1_555
O10E Al2E 1_555 1_555
Al2 O10 1_555 1_555
Al3 O7 1_555 1_555
Al3 O11 1_555 1_555
P2E O8E 1_555 1_555
P3A O11A 1_555 1_555

#END
