
#######################################################################
#
#                 Cambridge Crystallographic Data Centre
#                                CCDC 
#
#######################################################################
#
# If this CIF has been generated from an entry in the Cambridge 
# Structural Database, then it will include bibliographic, chemical, 
# crystal, experimental, refinement or atomic coordinate data resulting 
# from the CCDC's data processing and validation procedures.
#
#######################################################################

data_NEHZIK
_chemical_formula_moiety         '(C48 H50 N16 O21 Zn4)n'
_symmetry_cell_setting           tetragonal
_symmetry_space_group_name_H-M   'I 41/a'
_symmetry_Int_Tables_number      88
_space_group_name_Hall           '-I 4ad'
loop_
_symmetry_equiv_pos_site_id
_symmetry_equiv_pos_as_xyz
1 x,y,z
2 3/4-y,1/4+x,1/4+z
3 1/2+x,1/2+y,1/2+z
4 1/4-y,3/4+x,3/4+z
5 1/4+y,1/4-x,1/4+z
6 1/2-x,-y,1/2+z
7 3/4+y,3/4-x,3/4+z
8 -x,1/2-y,z
9 -x,-y,-z
10 1/4+y,3/4-x,3/4-z
11 1/2-x,1/2-y,1/2-z
12 3/4+y,1/4-x,1/4-z
13 3/4-y,3/4+x,3/4-z
14 1/2+x,y,1/2-z
15 1/4-y,1/4+x,1/4-z
16 x,1/2+y,-z
_cell_length_a                   18.3113(9)
_cell_length_b                   18.3113(9)
_cell_length_c                   22.398(2)
_cell_angle_alpha                90
_cell_angle_beta                 90
_cell_angle_gamma                90
_cell_volume                     7510.13
loop_
_atom_site_label
_atom_site_type_symbol
_atom_site_fract_x
_atom_site_fract_y
_atom_site_fract_z
Zn1 Zn 0.27719(2) 0.33832(2) 0.12519(2)
C1 C 0.3453(2) 0.3650(2) 0.24373(17)
H1 H 0.3006 0.3754 0.2615
C2 C 0.4277(2) 0.3386(2) 0.17912(19)
H2 H 0.4503 0.3273 0.1431
C3 C 0.4631(2) 0.3476(2) 0.23204(18)
C4 C 0.5389(2) 0.3409(2) 0.24722(19)
H3 H 0.5709 0.3327 0.2157
C5 C 0.5682(2) 0.3451(2) 0.30087(18)
H4 H 0.5381 0.3521 0.3338
C6 C 0.6477(2) 0.3390(2) 0.30968(17)
C7 C 0.2895(2) 0.1768(2) 0.12542(19)
H5 H 0.2914 0.1767 0.1669
C8 C 0.2867(2) 0.2123(2) 0.03436(18)
H6 H 0.2860 0.2422 0.0008
C9 C 0.2849(2) 0.1382(2) 0.03325(18)
C10 C 0.2821(2) 0.0883(2) -0.01663(19)
H7 H 0.2769 0.1082 -0.0546
C11 C 0.2865(3) 0.0162(2) -0.01236(19)
H8 H 0.2919 -0.0043 0.0254
C12 C 0.2833(2) -0.0333(2) -0.06477(18)
N1 N 0.35394(18) 0.34856(18) 0.18656(15)
N2 N 0.40893(18) 0.36454(18) 0.27248(15)
H9 H 0.4152 0.3733 0.3099
N3 N 0.28960(18) 0.23652(18) 0.09255(15)
N4 N 0.2864(2) 0.11715(19) 0.09235(15)
H10 H 0.2854 0.0730 0.1054
O1 O 0.67066(15) 0.34443(17) 0.36414(12)
O2 O 0.68972(17) 0.3278(2) 0.26852(14)
O3 O 0.29282(17) -0.10080(16) -0.05332(13)
O4 O 0.27187(16) -0.00911(17) -0.11575(12)
Zn1M Zn -0.22281(2) 0.33832(2) 0.37481(2)
Zn1O Zn 0.27719(2) 0.83832(2) -0.12519(2)
Zn1M_2 Zn 0.77719(2) 0.33832(2) 0.37481(2)
Zn1O_2 Zn 0.27719(2) -0.16168(2) -0.12519(2)
Zn1B Zn -0.22281(2) -0.16168(2) 0.62519(2)
Zn1_2 Zn -0.72281(2) 0.33832(2) 0.12519(2)
Zn1B_2 Zn -0.22281(2) 0.83832(2) 0.62519(2)
Zn1B_3 Zn 0.77719(2) 0.83832(2) -0.37481(2)
C1M C -0.1547(2) 0.3650(2) 0.25627(17)
C1_2 C -0.6547(2) 0.3650(2) 0.24373(17)
C1O C 0.3453(2) 0.8650(2) -0.24373(17)
H1M H -0.1994 0.3754 0.2385
H1_2 H -0.6994 0.3754 0.2615
H1O H 0.3006 0.8754 -0.2615
C2M C -0.0723(2) 0.3386(2) 0.32088(19)
C2_2 C -0.5723(2) 0.3386(2) 0.17912(19)
C2O C 0.4277(2) 0.8386(2) -0.17912(19)
H2M H -0.0497 0.3273 0.3569
H2_2 H -0.5497 0.3273 0.1431
H2O H 0.4503 0.8273 -0.1431
C3M C -0.0369(2) 0.3476(2) 0.26796(18)
C3_2 C -0.5369(2) 0.3476(2) 0.23204(18)
C3O C 0.4631(2) 0.8476(2) -0.23204(18)
C4M C 0.0389(2) 0.3409(2) 0.25278(19)
C4_2 C -0.4611(2) 0.3409(2) 0.24722(19)
C4O C 0.5389(2) 0.8409(2) -0.24722(19)
H3M H 0.0709 0.3327 0.2843
H3_2 H -0.4291 0.3327 0.2157
H3O H 0.5709 0.8327 -0.2157
C5M C 0.0682(2) 0.3451(2) 0.19913(18)
C5_2 C -0.4318(2) 0.3451(2) 0.30087(18)
C5O C 0.5682(2) 0.8451(2) -0.30087(18)
H4M H 0.0381 0.3521 0.1662
H4_2 H -0.4619 0.3521 0.3338
H4O H 0.5381 0.8521 -0.3338
C6M C 0.1477(2) 0.3390(2) 0.19032(17)
C6_2 C -0.3523(2) 0.3390(2) 0.30968(17)
C6O C 0.6477(2) 0.8390(2) -0.30968(17)
C7O C 0.2895(2) 0.6768(2) -0.12542(19)
C7M C -0.2105(2) 0.1768(2) 0.37458(19)
C7B C -0.2105(2) 0.6768(2) 0.62542(19)
H5O H 0.2914 0.6767 -0.1669
H5M H -0.2086 0.1767 0.3331
H5B H -0.2086 0.6767 0.6669
C8O C 0.2867(2) 0.7123(2) -0.03436(18)
C8M C -0.2133(2) 0.2123(2) 0.46564(18)
C8B C -0.2133(2) 0.7123(2) 0.53436(18)
H6O H 0.2860 0.7422 -0.0008
H6M H -0.2140 0.2422 0.4992
H6B H -0.2140 0.7422 0.5008
C9O C 0.2849(2) 0.6382(2) -0.03325(18)
C9M C -0.2151(2) 0.1382(2) 0.46675(18)
C9B C -0.2151(2) 0.6382(2) 0.53325(18)
C10O C 0.2821(2) 0.5883(2) 0.01663(19)
C10M C -0.2179(2) 0.0883(2) 0.51663(19)
C10B C -0.2179(2) 0.5883(2) 0.48337(19)
H7O H 0.2769 0.6082 0.0546
H7M H -0.2231 0.1082 0.5546
H7B H -0.2231 0.6082 0.4454
C11O C 0.2865(3) 0.5162(2) 0.01236(19)
C11M C -0.2135(3) 0.0162(2) 0.51236(19)
C11B C -0.2135(3) 0.5162(2) 0.48764(19)
H8O H 0.2919 0.4957 -0.0254
H8M H -0.2081 -0.0043 0.4746
H8B H -0.2081 0.4957 0.5254
C12O C 0.2833(2) 0.4667(2) 0.06477(18)
C12M C -0.2167(2) -0.0333(2) 0.56477(18)
C12B C -0.2167(2) 0.4667(2) 0.43523(18)
N1M N -0.14606(18) 0.34856(18) 0.31344(15)
N1_2 N -0.64606(18) 0.34856(18) 0.18656(15)
N1O N 0.35394(18) 0.84856(18) -0.18656(15)
N1M_2 N 0.85394(18) 0.34856(18) 0.31344(15)
N2M N -0.09107(18) 0.36454(18) 0.22752(15)
N2_2 N -0.59107(18) 0.36454(18) 0.27248(15)
N2O N 0.40893(18) 0.86454(18) -0.27248(15)
H9M H -0.0848 0.3733 0.1901
H9_2 H -0.5848 0.3733 0.3099
H9O H 0.4152 0.8733 -0.3099
N3O N 0.28960(18) 0.73652(18) -0.09255(15)
N3M N -0.21040(18) 0.23652(18) 0.40745(15)
N3B N -0.21040(18) 0.73652(18) 0.59255(15)
N3M_2 N 0.78960(18) 0.23652(18) 0.40745(15)
N4O N 0.2864(2) 0.61715(19) -0.09235(15)
N4M N -0.2136(2) 0.11715(19) 0.40765(15)
N4B N -0.2136(2) 0.61715(19) 0.59235(15)
H10O H 0.2854 0.5730 -0.1054
H10M H -0.2146 0.0730 0.3946
H10B H -0.2146 0.5730 0.6054
O1M O 0.17066(15) 0.34443(17) 0.13586(12)
O1_2 O -0.32934(15) 0.34443(17) 0.36414(12)
O1O O 0.67066(15) 0.84443(17) -0.36414(12)
O1B O 0.17066(15) 0.84443(17) -0.13586(12)
O2M O 0.18972(17) 0.3278(2) 0.23148(14)
O2_2 O -0.31028(17) 0.3278(2) 0.26852(14)
O2O O 0.68972(17) 0.8278(2) -0.26852(14)
O3O O 0.29282(17) 0.39920(16) 0.05332(13)
O3M O -0.20718(17) -0.10080(16) 0.55332(13)
O3B O -0.20718(17) 0.39920(16) 0.44668(13)
O3_2 O 0.29282(17) 0.89920(16) -0.05332(13)
O3B_2 O 0.79282(17) 0.39920(16) 0.44668(13)
O4O O 0.27187(16) 0.49089(17) 0.11575(12)
O4M O -0.22813(16) -0.00911(17) 0.61575(12)
O4B O -0.22813(16) 0.49089(17) 0.38425(12)
O5 O 0.2426(7) 0.2183(6) 0.8613(5)
O6 O 0.4335(7) 0.3649(8) 0.9340(8)
O7 O 0.5127(9) 0.8549(16) 0.9560(6)
O8 O 0.2866(3) 0.3483(3) 0.9278(3)
O9 O 0.5000 0.2500 0.8750
loop_
_geom_bond_atom_site_label_1
_geom_bond_atom_site_label_2
_geom_bond_site_symmetry_1
_geom_bond_site_symmetry_2
Zn1 N1 1_555 1_555
C1 H1 1_555 1_555
C2 H2 1_555 1_555
C3 C2 1_555 1_555
C4 C3 1_555 1_555
H3 C4 1_555 1_555
C5 C4 1_555 1_555
H4 C5 1_555 1_555
C6 C5 1_555 1_555
C7 H5 1_555 1_555
C8 H6 1_555 1_555
C9 C8 1_555 1_555
C10 C9 1_555 1_555
H7 C10 1_555 1_555
C11 C10 1_555 1_555
H8 C11 1_555 1_555
C12 C11 1_555 1_555
N1 C1 1_555 1_555
N2 C1 1_555 1_555
H9 N2 1_555 1_555
N3 Zn1 1_555 1_555
N4 C7 1_555 1_555
H10 N4 1_555 1_555
O1 C6 1_555 1_555
O2 C6 1_555 1_555
O3 C12 1_555 1_555
O4 C12 1_555 1_555
Zn1M N1M 1_555 1_555
Zn1O N1O 1_555 1_555
Zn1M_2 O1 1_555 1_555
Zn1O_2 O3 1_555 1_555
Zn1B O3M 1_555 1_555
Zn1_2 N1_2 1_555 1_555
Zn1B_2 N3B 1_555 1_555
Zn1B_3 O1O 1_555 1_555
C1M H1M 1_555 1_555
C1_2 H1_2 1_555 1_555
C1O H1O 1_555 1_555
C2M H2M 1_555 1_555
C2_2 H2_2 1_555 1_555
C2O H2O 1_555 1_555
C3M C2M 1_555 1_555
C3_2 C2_2 1_555 1_555
C3O C2O 1_555 1_555
C4M C3M 1_555 1_555
C4_2 C3_2 1_555 1_555
C4O C3O 1_555 1_555
H3M C4M 1_555 1_555
H3_2 C4_2 1_555 1_555
H3O C4O 1_555 1_555
C5M C4M 1_555 1_555
C5_2 C4_2 1_555 1_555
C5O C4O 1_555 1_555
H4M C5M 1_555 1_555
H4_2 C5_2 1_555 1_555
H4O C5O 1_555 1_555
C6M C5M 1_555 1_555
C6_2 C5_2 1_555 1_555
C6O C5O 1_555 1_555
C7O H5O 1_555 1_555
C7M H5M 1_555 1_555
C7B H5B 1_555 1_555
C8O H6O 1_555 1_555
C8M H6M 1_555 1_555
C8B H6B 1_555 1_555
C9O C8O 1_555 1_555
C9M C8M 1_555 1_555
C9B C8B 1_555 1_555
C10O C9O 1_555 1_555
C10M C9M 1_555 1_555
C10B C9B 1_555 1_555
H7O C10O 1_555 1_555
H7M C10M 1_555 1_555
H7B C10B 1_555 1_555
C11O C10O 1_555 1_555
C11M C10M 1_555 1_555
C11B C10B 1_555 1_555
H8O C11O 1_555 1_555
H8M C11M 1_555 1_555
H8B C11B 1_555 1_555
C12O C11O 1_555 1_555
C12M C11M 1_555 1_555
C12B C11B 1_555 1_555
N1M C1M 1_555 1_555
N1_2 C1_2 1_555 1_555
N1O C1O 1_555 1_555
N1M_2 Zn1M_2 1_555 1_555
N2M C1M 1_555 1_555
N2_2 C1_2 1_555 1_555
N2O C1O 1_555 1_555
H9M N2M 1_555 1_555
H9_2 N2_2 1_555 1_555
H9O N2O 1_555 1_555
N3O Zn1O 1_555 1_555
N3M Zn1M 1_555 1_555
N3B C7B 1_555 1_555
N3M_2 Zn1M_2 1_555 1_555
N4O C7O 1_555 1_555
N4M C7M 1_555 1_555
N4B C7B 1_555 1_555
H10O N4O 1_555 1_555
H10M N4M 1_555 1_555
H10B N4B 1_555 1_555
O1M Zn1 1_555 1_555
O1_2 Zn1M 1_555 1_555
O1O C6O 1_555 1_555
O1B Zn1O 1_555 1_555
O2M C6M 1_555 1_555
O2_2 C6_2 1_555 1_555
O2O C6O 1_555 1_555
O3O Zn1 1_555 1_555
O3M C12M 1_555 1_555
O3B Zn1M 1_555 1_555
O3_2 Zn1O 1_555 1_555
O3B_2 Zn1M_2 1_555 1_555
O4O C12O 1_555 1_555
O4M C12M 1_555 1_555
O4B C12B 1_555 1_555
C2 N1 1_555 1_555
C3 N2 1_555 1_555
C7 N3 1_555 1_555
C8 N3 1_555 1_555
C9 N4 1_555 1_555
C2M N1M 1_555 1_555
C2_2 N1_2 1_555 1_555
C2O N1O 1_555 1_555
C3M N2M 1_555 1_555
C3_2 N2_2 1_555 1_555
C3O N2O 1_555 1_555
C6M O1M 1_555 1_555
C6_2 O1_2 1_555 1_555
C7O N3O 1_555 1_555
C7M N3M 1_555 1_555
C8O N3O 1_555 1_555
C8M N3M 1_555 1_555
C8B N3B 1_555 1_555
C9O N4O 1_555 1_555
C9M N4M 1_555 1_555
C9B N4B 1_555 1_555
C12O O3O 1_555 1_555
C12B O3B 1_555 1_555

#END
