
#######################################################################
#
#                 Cambridge Crystallographic Data Centre
#                                CCDC 
#
#######################################################################
#
# If this CIF has been generated from an entry in the Cambridge 
# Structural Database, then it will include bibliographic, chemical, 
# crystal, experimental, refinement or atomic coordinate data resulting 
# from the CCDC's data processing and validation procedures.
#
#######################################################################

data_FUBDEM
_chemical_formula_moiety         '(C68 H65 I6 N13 O7 Zn3)n'
_symmetry_cell_setting           orthorhombic
_symmetry_space_group_name_H-M   'P b c a'
_symmetry_Int_Tables_number      61
_space_group_name_Hall           '-P 2ac 2ab'
loop_
_symmetry_equiv_pos_site_id
_symmetry_equiv_pos_as_xyz
1 x,y,z
2 1/2-x,-y,1/2+z
3 -x,1/2+y,1/2-z
4 1/2+x,1/2-y,-z
5 -x,-y,-z
6 1/2+x,y,1/2-z
7 x,1/2-y,1/2+z
8 1/2-x,1/2+y,z
_cell_length_a                   28.3579(4)
_cell_length_b                   13.8844(2)
_cell_length_c                   44.8125(7)
_cell_angle_alpha                90
_cell_angle_beta                 90
_cell_angle_gamma                90
_cell_volume                     17644.1
loop_
_atom_site_label
_atom_site_type_symbol
_atom_site_fract_x
_atom_site_fract_y
_atom_site_fract_z
C59 C 0.1530(9) 0.698(3) 0.1508(6)
C60 C 0.1032(10) 0.684(2) 0.1499(7)
C61 C 0.0805(11) 0.667(3) 0.1230(7)
H36 H 0.0473 0.6582 0.1230
C62 C 0.1052(11) 0.664(4) 0.0958(7)
H37 H 0.0896 0.6545 0.0772
C63 C 0.1554(10) 0.674(3) 0.0980(6)
H38 H 0.1733 0.6697 0.0802
C64 C 0.1789(9) 0.690(3) 0.1240(6)
C65 C 0.2292(9) 0.680(5) 0.1253(6)
C66 C 0.2559(10) 0.660(3) 0.0989(5)
H39 H 0.2402 0.6475 0.0806
C67 C 0.3044(10) 0.660(4) 0.1001(7)
H40 H 0.3219 0.6468 0.0825
C68 C 0.3287(9) 0.679(2) 0.1271(6)
H41 H 0.3621 0.6797 0.1281
C69 C 0.3013(9) 0.697(2) 0.1522(6)
H42 H 0.3165 0.7073 0.1709
C70 C 0.2532(8) 0.700(4) 0.1509(5)
C71 C 0.2278(8) 0.723(3) 0.1770(6)
C72 C 0.2540(10) 0.7534(18) 0.2017(5)
H43 H 0.2873 0.7608 0.2004
C73 C 0.2300(11) 0.773(4) 0.2288(6)
H44 H 0.2476 0.7885 0.2462
C74 C 0.1801(11) 0.769(3) 0.2303(6)
H45 H 0.1642 0.7821 0.2485
C75 C 0.1545(10) 0.744(2) 0.2045(5)
H46 H 0.1210 0.7428 0.2053
C76 C 0.1778(9) 0.721(3) 0.1776(6)
N14 N 0.0779(11) 0.685(3) 0.1765(8)
C95 C 0.7175(5) 0.8171(8) 0.5746(3)
H58 H 0.6946 0.8369 0.5595
H59 H 0.7437 0.8630 0.5750
H60 H 0.7022 0.8158 0.5943
C96 C 0.7339(6) 0.7289(11) 0.5681(3)
C97 C 0.7957(9) 0.5940(18) 0.5748(5)
H61 H 0.7731 0.5482 0.5658
H62 H 0.8217 0.6068 0.5606
C98 C 0.8122(7) 0.5617(13) 0.6020(4)
H63 H 0.8274 0.4989 0.5993
H64 H 0.7858 0.5554 0.6159
H65 H 0.8351 0.6079 0.6099
O3 O 0.7177(5) 0.6591(10) 0.5515(3)
O4 O 0.7707(5) 0.6899(9) 0.5852(3)
C103 C 0.4045(19) 0.559(5) 0.0115(13)
C104 C 0.3657(14) 0.596(3) -0.0019(9)
C105 C 0.2952(15) 0.727(3) 0.0169(17)
C106 C 0.305(2) 0.825(3) 0.0193(13)
O7 O 0.365(3) 0.609(5) -0.0312(9)
O8 O 0.3417(15) 0.672(3) 0.0119(9)
C109 C 0.2115(12) 1.499(2) 0.0013(6)
C110 C 0.1950(13) 1.529(2) 0.0290(6)
O10 O 0.2166(11) 1.425(2) -0.0089(6)
C111 C 0.5521(9) 0.9204(17) 0.2724(5)
H82 H 0.5298 0.8847 0.2849
H83 H 0.5408 0.9865 0.2697
H84 H 0.5831 0.9214 0.2819
C112 C 0.5555(15) 0.876(2) 0.2451(7)
C113 C 0.5897(12) 0.9350(19) 0.1886(5)
H85 H 0.6215 0.9133 0.1823
H86 H 0.5655 0.8990 0.1773
C114 C 0.5841(11) 1.0392(19) 0.1852(6)
H87 H 0.5898 1.0571 0.1643
H88 H 0.6069 1.0725 0.1980
H89 H 0.5520 1.0577 0.1909
O11 O 0.565(3) 0.783(2) 0.2440(12)
O12 O 0.5827(12) 0.924(2) 0.2235(6)
Zn1 Zn 0.94916(3) -0.14332(6) 0.418238(19)
Zn2 Zn 0.48022(3) -0.12392(6) 0.41558(2)
Zn3 Zn 0.75992(4) -0.16759(6) 0.683490(18)
I1 I 1.01281(2) -0.05581(4) 0.388825(13)
I2 I 0.94316(2) -0.32531(4) 0.423456(16)
I3 I 0.49733(2) -0.19454(4) 0.467339(15)
I4 I 0.43337(3) -0.21712(5) 0.37701(2)
I5 I 0.67325(2) -0.16970(5) 0.668410(14)
I6 I 0.80299(2) -0.32777(3) 0.690560(12)
C1 C 0.9497(3) 0.4483(5) 0.55102(17)
H1 H 0.9628 0.4821 0.5345
C2 C 0.9331(3) 0.3573(5) 0.54681(17)
H2 H 0.9339 0.3293 0.5275
C3 C 0.9288(3) 0.4414(5) 0.60019(18)
H3 H 0.9270 0.4720 0.6191
C4 C 0.9118(3) 0.3498(5) 0.59784(18)
H4 H 0.8981 0.3175 0.6144
C5 C 0.9154(3) 0.3062(5) 0.57015(16)
C6 C 0.9012(3) 0.2031(5) 0.56672(16)
C7 C 0.7960(3) 0.0070(5) 0.65218(18)
H5 H 0.7794 0.0398 0.6675
C8 C 0.8189(3) 0.0611(5) 0.63071(18)
H6 H 0.8183 0.1295 0.6315
C9 C 0.8187(3) -0.1334(6) 0.63057(19)
H7 H 0.8187 -0.2019 0.6304
C10 C 0.8421(3) -0.0850(5) 0.60803(17)
H8 H 0.8578 -0.1197 0.5927
C11 C 0.8424(3) 0.0144(5) 0.60819(15)
C12 C 0.8680(3) 0.0673(5) 0.58429(16)
C13 C 0.9266(3) -0.1291(5) 0.48331(17)
H9 H 0.9222 -0.1967 0.4816
C14 C 0.9148(3) -0.0852(5) 0.50970(16)
H10 H 0.9028 -0.1219 0.5259
C15 C 0.9525(3) 0.0141(5) 0.46330(16)
H11 H 0.9668 0.0487 0.4474
C16 C 0.9408(3) 0.0624(5) 0.48916(17)
H12 H 0.9469 0.1295 0.4908
C17 C 0.9207(3) 0.0143(5) 0.51242(16)
C18 C 0.9054(3) 0.0653(5) 0.53953(16)
C19 C 0.8839(3) -0.0744(5) 0.37068(16)
H13 H 0.9127 -0.0666 0.3602
C20 C 0.8426(3) -0.0578(5) 0.35592(16)
H14 H 0.8433 -0.0391 0.3355
C21 C 0.8441(3) -0.1106(5) 0.41418(16)
H15 H 0.8444 -0.1293 0.4346
C22 C 0.8009(3) -0.0938(5) 0.40061(16)
H16 H 0.7724 -0.0997 0.4116
C23 C 0.8000(3) -0.0680(4) 0.37038(15)
C24 C 0.7555(3) -0.0534(4) 0.35429(15)
C25 C 0.5846(3) -0.0944(6) 0.41074(18)
H17 H 0.5837 -0.1060 0.4316
C26 C 0.6283(3) -0.0821(5) 0.39754(17)
H18 H 0.6563 -0.0869 0.4091
C27 C 0.5469(3) -0.0689(7) 0.36650(18)
H19 H 0.5185 -0.0627 0.3555
C28 C 0.5891(3) -0.0551(7) 0.35197(18)
H20 H 0.5895 -0.0402 0.3313
C29 C 0.6306(3) -0.0629(5) 0.36735(15)
C30 C 0.6765(3) -0.0499(4) 0.35247(15)
C31 C 0.6898(3) 0.0868(5) 0.23594(17)
H21 H 0.6630 0.1097 0.2254
C32 C 0.6836(3) 0.0511(5) 0.26383(16)
H22 H 0.6531 0.0487 0.2725
C33 C 0.7692(3) 0.0568(5) 0.23711(15)
H23 H 0.7991 0.0570 0.2275
C34 C 0.7660(3) 0.0201(4) 0.26604(15)
H24 H 0.7933 -0.0029 0.2761
C35 C 0.7231(3) 0.0178(5) 0.27957(15)
C36 C 0.7190(3) -0.0143(5) 0.31197(15)
N1 N 0.9480(2) 0.4914(4) 0.57756(14)
N2 N 0.7962(2) -0.0877(4) 0.65244(13)
N3 N 0.9441(2) -0.0808(4) 0.45984(13)
N4 N 0.8757(2) 0.1614(4) 0.58852(13)
N5 N 0.8812(2) 0.0161(4) 0.56020(13)
N6 N 0.9165(2) 0.1587(4) 0.54176(13)
N7 N 0.8854(2) -0.1017(4) 0.39990(13)
N8 N 0.5443(2) -0.0911(4) 0.39633(15)
N9 N 0.7321(2) 0.0914(4) 0.22238(12)
N10 N 0.7150(2) -0.0658(4) 0.36886(12)
N11 N 0.6759(2) -0.0247(4) 0.32327(13)
N12 N 0.7600(2) -0.0275(4) 0.32563(12)
Zn2C Zn 0.98022(3) 0.62392(6) 0.58442(2)
Zn3A Zn 0.74008(4) 0.16759(6) 0.183490(18)
N1C N 0.4480(2) 0.0086(4) 0.42244(14)
N9A N 0.7679(2) -0.0914(4) 0.72238(12)
loop_
_geom_bond_atom_site_label_1
_geom_bond_atom_site_label_2
_geom_bond_site_symmetry_1
_geom_bond_site_symmetry_2
Zn1 I1 1_555 1_555
Zn2 I3 1_555 1_555
Zn3 I5 1_555 1_555
I2 Zn1 1_555 1_555
I4 Zn2 1_555 1_555
I6 Zn3 1_555 1_555
C1 H1 1_555 1_555
C2 C1 1_555 1_555
H2 C2 1_555 1_555
C3 H3 1_555 1_555
C4 C3 1_555 1_555
H4 C4 1_555 1_555
C5 C2 1_555 1_555
C6 C5 1_555 1_555
C7 H5 1_555 1_555
C8 C7 1_555 1_555
H6 C8 1_555 1_555
C9 H7 1_555 1_555
C10 C9 1_555 1_555
H8 C10 1_555 1_555
C11 C8 1_555 1_555
C12 C11 1_555 1_555
C13 H9 1_555 1_555
C14 C13 1_555 1_555
H10 C14 1_555 1_555
C15 H11 1_555 1_555
C16 C15 1_555 1_555
H12 C16 1_555 1_555
C17 C14 1_555 1_555
C18 C17 1_555 1_555
C19 H13 1_555 1_555
C20 C19 1_555 1_555
H14 C20 1_555 1_555
C21 H15 1_555 1_555
C22 C21 1_555 1_555
H16 C22 1_555 1_555
C23 C20 1_555 1_555
C24 C23 1_555 1_555
C25 H17 1_555 1_555
C26 C25 1_555 1_555
H18 C26 1_555 1_555
C27 H19 1_555 1_555
C28 C27 1_555 1_555
H20 C28 1_555 1_555
C29 C26 1_555 1_555
C30 C29 1_555 1_555
C31 H21 1_555 1_555
C32 C31 1_555 1_555
H22 C32 1_555 1_555
C33 H23 1_555 1_555
C34 C33 1_555 1_555
H24 C34 1_555 1_555
C35 C32 1_555 1_555
C36 C35 1_555 1_555
N1 C1 1_555 1_555
N2 Zn3 1_555 1_555
N3 Zn1 1_555 1_555
N4 C6 1_555 1_555
N5 C12 1_555 1_555
N6 C6 1_555 1_555
N7 Zn1 1_555 1_555
N8 Zn2 1_555 1_555
N9 C31 1_555 1_555
N10 C24 1_555 1_555
N11 C30 1_555 1_555
N12 C24 1_555 1_555
C59 C60 1_555 1_555
C60 C61 1_555 1_555
C61 H36 1_555 1_555
C62 C61 1_555 1_555
H37 C62 1_555 1_555
C63 C62 1_555 1_555
H38 C63 1_555 1_555
C64 C59 1_555 1_555
C65 C64 1_555 1_555
C66 C65 1_555 1_555
H39 C66 1_555 1_555
C67 C66 1_555 1_555
H40 C67 1_555 1_555
C68 C67 1_555 1_555
H41 C68 1_555 1_555
C69 C68 1_555 1_555
H42 C69 1_555 1_555
C70 C65 1_555 1_555
C71 C70 1_555 1_555
C72 C71 1_555 1_555
H43 C72 1_555 1_555
C73 C72 1_555 1_555
H44 C73 1_555 1_555
C74 C73 1_555 1_555
H45 C74 1_555 1_555
C75 C74 1_555 1_555
H46 C75 1_555 1_555
C76 C59 1_555 1_555
N14 C60 1_555 1_555
C95 H58 1_555 1_555
H59 C95 1_555 1_555
H60 C95 1_555 1_555
C96 C95 1_555 1_555
C97 H61 1_555 1_555
H62 C97 1_555 1_555
C98 C97 1_555 1_555
H63 C98 1_555 1_555
H64 C98 1_555 1_555
H65 C98 1_555 1_555
O3 C96 1_555 1_555
O4 C96 1_555 1_555
C103 C104 1_555 1_555
C104 O7 1_555 1_555
C105 C106 1_555 1_555
O8 C104 1_555 1_555
C109 C110 1_555 1_555
O10 C109 1_555 1_555
C111 H82 1_555 1_555
H83 C111 1_555 1_555
H84 C111 1_555 1_555
C112 C111 1_555 1_555
C113 H85 1_555 1_555
H86 C113 1_555 1_555
C114 C113 1_555 1_555
H87 C114 1_555 1_555
H88 C114 1_555 1_555
H89 C114 1_555 1_555
O11 C112 1_555 1_555
O12 C112 1_555 1_555
Zn2C N1 1_555 1_555
Zn3A N9 1_555 1_555
N1C Zn2 1_555 1_555
N9A Zn3 1_555 1_555
C3 N1 1_555 1_555
C4 C5 1_555 1_555
C7 N2 1_555 1_555
C9 N2 1_555 1_555
C10 C11 1_555 1_555
C12 N4 1_555 1_555
C13 N3 1_555 1_555
C15 N3 1_555 1_555
C16 C17 1_555 1_555
C18 N5 1_555 1_555
C18 N6 1_555 1_555
C19 N7 1_555 1_555
C21 N7 1_555 1_555
C22 C23 1_555 1_555
C25 N8 1_555 1_555
C27 N8 1_555 1_555
C28 C29 1_555 1_555
C30 N10 1_555 1_555
C33 N9 1_555 1_555
C34 C35 1_555 1_555
C36 N11 1_555 1_555
C36 N12 1_555 1_555
C63 C64 1_555 1_555
C69 C70 1_555 1_555
C71 C76 1_555 1_555
C75 C76 1_555 1_555
C97 O4 1_555 1_555
C105 O8 1_555 1_555
C113 O12 1_555 1_555

#END
