
#######################################################################
#
#                 Cambridge Crystallographic Data Centre
#                                CCDC 
#
#######################################################################
#
# If this CIF has been generated from an entry in the Cambridge 
# Structural Database, then it will include bibliographic, chemical, 
# crystal, experimental, refinement or atomic coordinate data resulting 
# from the CCDC's data processing and validation procedures.
#
#######################################################################

data_FUBDIQ
_chemical_formula_moiety         '(C66 H63 I6 N13 O7 Zn3)n'
_symmetry_cell_setting           orthorhombic
_symmetry_space_group_name_H-M   'P b c a'
_symmetry_Int_Tables_number      61
_space_group_name_Hall           '-P 2ac 2ab'
loop_
_symmetry_equiv_pos_site_id
_symmetry_equiv_pos_as_xyz
1 x,y,z
2 1/2-x,-y,1/2+z
3 -x,1/2+y,1/2-z
4 1/2+x,1/2-y,-z
5 -x,-y,-z
6 1/2+x,y,1/2-z
7 x,1/2-y,1/2+z
8 1/2-x,1/2+y,z
_cell_length_a                   27.5814(13)
_cell_length_b                   13.8163(5)
_cell_length_c                   44.236(2)
_cell_angle_alpha                90
_cell_angle_beta                 90
_cell_angle_gamma                90
_cell_volume                     16857.1
loop_
_atom_site_label
_atom_site_type_symbol
_atom_site_fract_x
_atom_site_fract_y
_atom_site_fract_z
_atom_site_U_iso_or_equiv
_atom_site_thermal_displace_type
C57 C 0.8096(12) 0.309(6) 0.8725(8) 0.0650 Uiso
C58 C 0.8346(15) 0.332(6) 0.8988(9) 0.0820 Uiso
C59 C 0.8843(16) 0.336(8) 0.9001(12) 0.0930 Uiso
H40 H 0.9000 0.3497 0.9188 0.1110 Uiso
C60 C 0.9118(15) 0.321(8) 0.8742(13) 0.0990 Uiso
H41 H 0.9461 0.3154 0.8753 0.1180 Uiso
C61 C 0.8879(14) 0.316(6) 0.8466(11) 0.0970 Uiso
H42 H 0.9052 0.3249 0.8282 0.1170 Uiso
C62 C 0.8380(12) 0.296(5) 0.8460(8) 0.0730 Uiso
C63 C 0.8157(13) 0.270(6) 0.8185(9) 0.0700 Uiso
C64 C 0.8406(16) 0.262(6) 0.7909(9) 0.0820 Uiso
H43 H 0.8737 0.2798 0.7892 0.0990 Uiso
C65 C 0.8148(17) 0.225(6) 0.7656(10) 0.0750 Uiso
H44 H 0.8318 0.2063 0.7479 0.0900 Uiso
C66 C 0.7647(17) 0.215(5) 0.7668(10) 0.0650 Uiso
H45 H 0.7476 0.1952 0.7493 0.0780 Uiso
C67 C 0.7394(15) 0.234(5) 0.7929(10) 0.0710 Uiso
H46 H 0.7052 0.2271 0.7937 0.0850 Uiso
C68 C 0.7656(12) 0.264(5) 0.8181(8) 0.0560 Uiso
C69 C 0.7365(12) 0.294(5) 0.8427(8) 0.0550 Uiso
C70 C 0.6865(13) 0.282(5) 0.8386(10) 0.0640 Uiso
H47 H 0.6738 0.2518 0.8210 0.0770 Uiso
C71 C 0.6567(15) 0.316(7) 0.8613(12) 0.1020 Uiso
H48 H 0.6231 0.3261 0.8578 0.1230 Uiso
C72 C 0.6773(15) 0.334(6) 0.8896(11) 0.0850 Uiso
H49 H 0.6562 0.3471 0.9060 0.1020 Uiso
C73 C 0.7275(15) 0.334(6) 0.8950(10) 0.0750 Uiso
H50 H 0.7403 0.3515 0.9142 0.0900 Uiso
C74 C 0.7581(12) 0.307(6) 0.8709(8) 0.0680 Uiso
N14 N 0.812(2) 0.319(7) 0.9259(11) 0.1600 Uiso
O1 O 0.9199(18) 0.462(4) 0.7269(14) 0.2800 Uiso
C93 C 0.2157(16) 0.452(3) -0.0025(13) 0.1000 Uiso
H62 H 0.1806 0.4503 -0.0060 0.1560 Uiso
H63 H 0.2327 0.4464 -0.0219 0.1560 Uiso
H64 H 0.2243 0.5142 0.0070 0.1560 Uiso
C94 C 0.2295(13) 0.374(4) 0.0169(15) 0.2500 Uiso
O2 O 0.1995(12) 0.304(3) 0.0239(13) 0.1800 Uiso
O3 O 0.2776(12) 0.346(4) 0.0181(19) 0.2800 Uiso
C95 C 0.2881(15) 0.253(5) 0.029(2) 0.2300 Uiso
H65 H 0.2665 0.2044 0.0197 0.2820 Uiso
H66 H 0.2848 0.2504 0.0512 0.2820 Uiso
C96 C 0.3399(13) 0.238(4) 0.0193(12) 0.0930 Uiso
H67 H 0.3513 0.1755 0.0267 0.1400 Uiso
H68 H 0.3602 0.2900 0.0278 0.1400 Uiso
H69 H 0.3420 0.2400 -0.0028 0.1400 Uiso
C101 C 0.2207(11) 0.801(2) 0.9326(8) 0.1480 Uiso
H78 H 0.1937 0.8112 0.9466 0.2230 Uiso
H79 H 0.2083 0.7981 0.9119 0.2230 Uiso
H80 H 0.2437 0.8546 0.9344 0.2230 Uiso
C102 C 0.2445(16) 0.712(3) 0.9398(10) 0.2600 Uiso
O6 O 0.2195(9) 0.650(2) 0.9567(7) 0.2010 Uiso
O7 O 0.2758(14) 0.663(3) 0.9198(9) 0.3400 Uiso
C103 C 0.3059(17) 0.580(3) 0.9209(11) 0.2500 Uiso
H81 H 0.3294 0.5780 0.9041 0.2980 Uiso
H82 H 0.2866 0.5191 0.9211 0.2980 Uiso
C104 C 0.330(2) 0.598(5) 0.9511(13) 0.3700 Uiso
H83 H 0.3497 0.5413 0.9568 0.5490 Uiso
H84 H 0.3057 0.6101 0.9666 0.5490 Uiso
H85 H 0.3516 0.6547 0.9494 0.5490 Uiso
C105 C -0.093(2) 0.666(4) 0.7731(16) 0.2600 Uiso
H86 H -0.1286 0.6678 0.7715 0.3900 Uiso
H87 H -0.0829 0.6015 0.7798 0.3900 Uiso
H88 H -0.0789 0.6800 0.7533 0.3900 Uiso
C106 C -0.0775(19) 0.736(4) 0.7944(14) 0.3100 Uiso
O8 O -0.0894(19) 0.827(4) 0.7885(15) 0.3100 Uiso
O9 O -0.0308(19) 0.737(4) 0.8068(15) 0.3300 Uiso
C107 C -0.020(3) 0.836(4) 0.807(2) 0.2900 Uiso
H89 H -0.0469 0.8739 0.8164 0.3430 Uiso
H90 H -0.0134 0.8610 0.7867 0.3430 Uiso
C108 C 0.025(2) 0.839(4) 0.8267(14) 0.1900 Uiso
H91 H 0.0158 0.8575 0.8474 0.2910 Uiso
H92 H 0.0478 0.8854 0.8184 0.2910 Uiso
H93 H 0.0396 0.7742 0.8271 0.2910 Uiso
Zn1 Zn 0.95604(8) 0.64096(16) 0.91169(5) 0.0662 Uani
Zn2 Zn 0.47485(8) 0.61840(15) 0.91432(5) 0.0648 Uani
Zn3 Zn 0.76026(8) 0.68642(15) 1.17974(4) 0.0661 Uani
I1 I 1.02151(5) 0.55377(11) 0.88219(3) 0.0818 Uani
I2 I 0.94718(5) 0.82331(10) 0.91534(3) 0.0844 Uani
I3 I 0.49314(5) 0.69447(9) 0.96585(3) 0.0767 Uani
I4 I 0.42643(5) 0.70458(11) 0.87413(4) 0.0949 Uani
I5 I 0.66960(5) 0.69434(11) 1.16866(3) 0.0874 Uani
I6 I 0.80687(5) 0.84339(9) 1.18713(3) 0.0803 Uani
C1 C 0.9486(6) 0.0534(12) 1.0495(5) 0.0697 Uani
H1 H 0.9629 0.0173 1.0335 0.0830 Uiso
C2 C 0.9315(7) 0.1500(15) 1.0441(5) 0.0827 Uani
H2 H 0.9343 0.1778 1.0245 0.0990 Uiso
C3 C 0.9229(6) 0.0678(14) 1.0990(4) 0.0667 Uani
H3 H 0.9191 0.0387 1.1183 0.0800 Uiso
C4 C 0.9069(7) 0.1592(13) 1.0950(4) 0.0750 Uani
H4 H 0.8928 0.1937 1.1114 0.0900 Uiso
C5 C 0.9111(6) 0.2017(14) 1.0670(4) 0.0667 Uani
C6 C 0.8982(7) 0.3055(12) 1.0622(4) 0.0640 Uani
C7 C 0.7967(8) 0.5058(14) 1.1481(4) 0.0890 Uani
H5 H 0.7817 0.4714 1.1642 0.1050 Uiso
C8 C 0.8197(8) 0.4547(14) 1.1264(4) 0.0800 Uani
H6 H 0.8209 0.3861 1.1278 0.0980 Uiso
C9 C 0.8138(7) 0.6496(14) 1.1247(4) 0.0717 Uani
H7 H 0.8119 0.7181 1.1237 0.0860 Uiso
C10 C 0.8381(7) 0.6001(15) 1.1007(4) 0.0773 Uani
H8 H 0.8519 0.6332 1.0839 0.0930 Uiso
C11 C 0.8402(7) 0.4966(13) 1.1037(4) 0.0640 Uani
C12 C 0.8635(6) 0.4435(13) 1.0791(4) 0.0560 Uani
C13 C 0.9308(7) 0.6320(15) 0.9767(4) 0.0720 Uani
H9 H 0.9268 0.6998 0.9741 0.0870 Uiso
C14 C 0.9160(7) 0.5923(12) 1.0035(4) 0.0693 Uani
H10 H 0.9017 0.6308 1.0189 0.0830 Uiso
C15 C 0.9606(6) 0.4883(13) 0.9576(4) 0.0677 Uani
H11 H 0.9778 0.4549 0.9422 0.0810 Uiso
C16 C 0.9459(6) 0.4395(15) 0.9841(4) 0.0707 Uani
H12 H 0.9516 0.3719 0.9861 0.0850 Uiso
C17 C 0.9231(6) 0.4904(13) 1.0075(4) 0.0633 Uani
C18 C 0.9054(6) 0.4421(14) 1.0346(4) 0.0633 Uani
C19 C 0.8887(7) 0.5653(12) 0.8639(5) 0.0587 Uani
H13 H 0.9174 0.5576 0.8523 0.0710 Uiso
C20 C 0.8453(9) 0.5478(13) 0.8512(4) 0.0727 Uani
H14 H 0.8452 0.5251 0.8310 0.0870 Uiso
C21 C 0.8496(7) 0.6034(12) 0.9093(4) 0.0577 Uani
H15 H 0.8514 0.6225 0.9299 0.0690 Uiso
C22 C 0.8054(8) 0.5864(12) 0.8967(4) 0.0640 Uani
H16 H 0.7773 0.5920 0.9090 0.0770 Uiso
C23 C 0.7999(8) 0.5601(11) 0.8654(4) 0.0550 Uani
C24 C 0.7558(8) 0.5479(11) 0.8500(4) 0.0513 Uani
C25 C 0.5827(7) 0.5888(12) 0.9096(4) 0.0597 Uani
H17 H 0.5825 0.6029 0.9306 0.0710 Uiso
C26 C 0.6265(7) 0.5740(13) 0.8954(4) 0.0650 Uani
H18 H 0.6555 0.5754 0.9069 0.0780 Uiso
C27 C 0.5414(7) 0.5626(14) 0.8645(4) 0.0633 Uani
H19 H 0.5119 0.5592 0.8535 0.0760 Uiso
C28 C 0.5834(8) 0.5457(15) 0.8497(4) 0.0797 Uani
H20 H 0.5825 0.5262 0.8292 0.0950 Uiso
C29 C 0.6289(7) 0.5569(12) 0.8645(4) 0.0523 Uani
C30 C 0.6744(8) 0.5445(12) 0.8489(4) 0.0577 Uani
C31 C 0.6891(9) 0.3970(15) 0.7306(4) 0.0823 Uani
H21 H 0.6618 0.3736 0.7197 0.0990 Uiso
C32 C 0.6814(7) 0.4348(12) 0.7605(4) 0.0623 Uani
H22 H 0.6502 0.4358 0.7696 0.0750 Uiso
C33 C 0.7680(6) 0.4328(12) 0.7325(4) 0.0520 Uani
H23 H 0.7986 0.4367 0.7226 0.0620 Uiso
C34 C 0.7638(7) 0.4692(12) 0.7621(4) 0.0593 Uani
H24 H 0.7916 0.4936 0.7723 0.0720 Uiso
C35 C 0.7218(8) 0.4695(12) 0.7755(4) 0.0543 Uani
C36 C 0.7161(8) 0.5064(12) 0.8074(4) 0.0523 Uani
N1 N 0.9444(5) 0.0150(11) 1.0766(3) 0.0633 Uani
N2 N 0.7937(5) 0.6064(10) 1.1481(3) 0.0637 Uani
N3 N 0.9500(5) 0.5826(10) 0.9545(3) 0.0577 Uani
N4 N 0.8713(5) 0.3468(10) 1.0834(3) 0.0690 Uani
N5 N 0.8808(5) 0.4942(10) 1.0551(3) 0.0573 Uani
N6 N 0.9170(5) 0.3489(10) 1.0375(3) 0.0650 Uani
N7 N 0.8918(6) 0.5936(10) 0.8930(4) 0.0653 Uani
N8 N 0.5396(6) 0.5841(10) 0.8946(3) 0.0660 Uani
N9 N 0.7310(6) 0.3932(11) 0.7179(3) 0.0590 Uani
N10 N 0.7145(6) 0.5581(9) 0.8654(3) 0.0507 Uani
N11 N 0.6741(6) 0.5160(10) 0.8196(3) 0.0630 Uani
N12 N 0.7585(6) 0.5199(10) 0.8210(3) 0.0580 Uani
Zn2C Zn 0.97485(8) -0.11840(15) 1.08568(5) 0.0648 Uani
Zn3A Zn 0.73974(8) 0.31358(15) 0.67974(4) 0.0661 Uani
N1C N 0.4444(5) 0.4850(11) 0.9234(3) 0.0633 Uani
N9A N 0.7690(6) 0.6068(11) 1.2179(3) 0.0590 Uani
loop_
_atom_site_aniso_label
_atom_site_aniso_U_11
_atom_site_aniso_U_22
_atom_site_aniso_U_33
_atom_site_aniso_U_23
_atom_site_aniso_U_13
_atom_site_aniso_U_12
Zn1 0.0924(17) 0.0586(14) 0.0475(12) 0.0033(11) 0.0015(12) -0.0040(12)
Zn2 0.0843(16) 0.0523(13) 0.0577(14) -0.0017(11) -0.0016(12) -0.0024(11)
Zn3 0.1097 0.052 0.0367 0.0016 0.0028 0.004
I1 0.0928(10) 0.0899(11) 0.0627(9) -0.0094(7) 0.0047(8) -0.0025(8)
I2 0.1120(12) 0.0591(9) 0.0821(10) 0.0078(7) -0.0008(8) -0.0087(8)
I3 0.1002(10) 0.0629(8) 0.0669(8) -0.0190(7) 0.0072(8) -0.0077(7)
I4 0.1079(12) 0.0769(10) 0.0999(12) 0.0190(8) -0.0196(9) 0.0056(9)
I5 0.1111 0.0893 0.0617 0.0192 -0.0109 0.0051
I6 0.1314 0.0553 0.0543 -0.006 0.0092 -0.0033
C1 0.090(14) 0.039(11) 0.080(15) 0.004(10) 0.007(12) 0.006(10)
C2 0.115(17) 0.067(14) 0.066(14) -0.004(11) 0.009(13) 0.019(13)
C3 0.086(14) 0.069(14) 0.045(11) -0.008(10) 0.000(10) 0.005(11)
C4 0.136(18) 0.045(12) 0.044(11) 0.020(9) -0.003(11) 0.029(11)
C5 0.070(13) 0.067(14) 0.063(13) 0.000(11) 0.006(11) 0.017(11)
C6 0.111(16) 0.037(10) 0.044(11) -0.017(9) 0.010(11) 0.006(11)
C7 0.17(2) 0.053(13) 0.044(12) 0.007(10) 0.024(13) -0.017(13)
C8 0.16(2) 0.047(11) 0.033(10) -0.006(9) 0.023(12) 0.007(13)
C9 0.111(16) 0.054(12) 0.050(12) 0.008(10) 0.004(11) -0.012(11)
C10 0.107(16) 0.078(15) 0.047(12) -0.024(10) 0.036(11) -0.005(12)
C11 0.096(15) 0.038(11) 0.058(13) 0.002(10) 0.011(11) -0.011(10)
C12 0.076(13) 0.056(12) 0.036(10) -0.001(9) 0.000(9) 0.007(10)
C13 0.113(16) 0.060(13) 0.043(11) 0.008(10) 0.016(11) -0.006(12)
C14 0.105(15) 0.035(11) 0.068(14) -0.016(10) -0.001(12) 0.008(10)
C15 0.091(14) 0.049(12) 0.063(13) 0.013(10) -0.002(11) -0.007(11)
C16 0.083(14) 0.078(14) 0.051(12) -0.017(11) -0.012(11) 0.011(11)
C17 0.091(14) 0.053(12) 0.046(11) -0.007(10) 0.000(10) -0.003(11)
C18 0.089(14) 0.065(14) 0.036(10) 0.000(10) -0.007(10) 0.021(11)
C19 0.065(14) 0.050(12) 0.061(13) 0.013(10) 0.012(12) 0.007(10)
C20 0.108(18) 0.063(13) 0.047(12) -0.001(10) -0.033(14) 0.004(13)
C21 0.068(13) 0.063(12) 0.042(11) -0.002(9) -0.020(12) -0.021(11)
C22 0.107(17) 0.041(10) 0.044(11) 0.002(8) 0.028(12) 0.004(11)
C23 0.071(15) 0.037(10) 0.057(12) -0.001(8) 0.015(12) 0.003(10)
C24 0.068(15) 0.038(10) 0.048(11) 0.006(8) -0.008(12) -0.003(10)
C25 0.073(14) 0.059(12) 0.047(11) -0.011(9) 0.001(12) 0.006(10)
C26 0.079(15) 0.080(14) 0.036(11) 0.002(9) -0.004(11) -0.005(11)
C27 0.045(12) 0.091(15) 0.054(12) -0.003(11) 0.007(10) 0.003(10)
C28 0.090(17) 0.103(17) 0.046(12) 0.016(11) 0.005(13) 0.000(13)
C29 0.058(13) 0.058(12) 0.041(11) 0.013(9) 0.000(11) -0.005(10)
C30 0.070(15) 0.045(11) 0.058(13) 0.010(9) -0.010(13) -0.005(10)
C31 0.113(19) 0.091(16) 0.043(12) -0.016(11) -0.032(13) 0.014(14)
C32 0.095(15) 0.053(11) 0.039(10) 0.012(9) -0.001(11) 0.012(11)
C33 0.046(12) 0.059(12) 0.051(12) 0.007(9) 0.002(10) -0.001(10)
C34 0.076(15) 0.050(11) 0.052(12) -0.005(9) 0.004(11) 0.000(10)
C35 0.070(14) 0.052(11) 0.041(11) -0.003(9) -0.004(11) 0.005(10)
C36 0.075(14) 0.055(11) 0.027(10) 0.003(8) -0.007(11) -0.011(11)
N1 0.093(12) 0.057(10) 0.040(9) 0.005(8) 0.008(8) 0.000(8)
N2 0.095(12) 0.046(9) 0.050(9) 0.009(8) 0.015(8) 0.007(8)
N3 0.070(10) 0.045(9) 0.058(10) -0.001(8) 0.001(8) 0.003(8)
N4 0.098(12) 0.046(10) 0.063(11) 0.000(8) -0.011(9) 0.001(8)
N5 0.082(10) 0.055(9) 0.035(8) -0.007(8) 0.000(8) 0.008(8)
N6 0.102(12) 0.045(9) 0.048(9) -0.015(8) 0.005(8) 0.014(9)
N7 0.091(13) 0.040(9) 0.065(11) 0.003(8) 0.018(10) 0.006(8)
N8 0.101(13) 0.049(9) 0.048(10) 0.004(7) -0.002(10) -0.014(9)
N9 0.058(11) 0.070(11) 0.049(10) 0.016(8) 0.014(9) 0.009(9)
N10 0.071(11) 0.035(8) 0.046(9) 0.006(6) 0.007(9) -0.005(8)
N11 0.115(14) 0.050(9) 0.024(8) -0.007(7) 0.003(9) -0.009(9)
N12 0.104(13) 0.045(8) 0.025(8) 0.009(6) 0.002(9) 0.005(8)
Zn2C 0.0843 0.0523 0.0577 -0.0017 0.0016 0.0024
Zn3A 0.1097(18) 0.0520(13) 0.0367(11) -0.0016(10) -0.0028(11) 0.0040(12)
N1C 0.093 0.057 0.04 0.005 -0.008 0
N9A 0.058 0.07 0.049 -0.016 -0.014 0.009
loop_
_geom_bond_atom_site_label_1
_geom_bond_atom_site_label_2
_geom_bond_site_symmetry_1
_geom_bond_site_symmetry_2
Zn1 I1 1_555 1_555
Zn2 I3 1_555 1_555
Zn3 I5 1_555 1_555
I2 Zn1 1_555 1_555
I4 Zn2 1_555 1_555
I6 Zn3 1_555 1_555
C1 H1 1_555 1_555
C2 C1 1_555 1_555
H2 C2 1_555 1_555
C3 H3 1_555 1_555
C4 C3 1_555 1_555
H4 C4 1_555 1_555
C5 C2 1_555 1_555
C6 C5 1_555 1_555
C7 H5 1_555 1_555
C8 C7 1_555 1_555
H6 C8 1_555 1_555
C9 H7 1_555 1_555
C10 C9 1_555 1_555
H8 C10 1_555 1_555
C11 C8 1_555 1_555
C12 C11 1_555 1_555
C13 H9 1_555 1_555
C14 C13 1_555 1_555
H10 C14 1_555 1_555
C15 H11 1_555 1_555
C16 C15 1_555 1_555
H12 C16 1_555 1_555
C17 C14 1_555 1_555
C18 C17 1_555 1_555
C19 H13 1_555 1_555
C20 C19 1_555 1_555
H14 C20 1_555 1_555
C21 H15 1_555 1_555
C22 C21 1_555 1_555
H16 C22 1_555 1_555
C23 C20 1_555 1_555
C24 C23 1_555 1_555
C25 H17 1_555 1_555
C26 C25 1_555 1_555
H18 C26 1_555 1_555
C27 H19 1_555 1_555
C28 C27 1_555 1_555
H20 C28 1_555 1_555
C29 C26 1_555 1_555
C30 C29 1_555 1_555
C31 H21 1_555 1_555
C32 C31 1_555 1_555
H22 C32 1_555 1_555
C33 H23 1_555 1_555
C34 C33 1_555 1_555
H24 C34 1_555 1_555
C35 C32 1_555 1_555
C36 C35 1_555 1_555
N1 C1 1_555 1_555
N2 Zn3 1_555 1_555
N3 Zn1 1_555 1_555
N4 C6 1_555 1_555
N5 C12 1_555 1_555
N6 C6 1_555 1_555
N7 Zn1 1_555 1_555
N8 Zn2 1_555 1_555
N9 C31 1_555 1_555
N10 C24 1_555 1_555
N11 C30 1_555 1_555
N12 C24 1_555 1_555
C57 C58 1_555 1_555
C58 C59 1_555 1_555
C59 H40 1_555 1_555
C60 C59 1_555 1_555
H41 C60 1_555 1_555
C61 C60 1_555 1_555
H42 C61 1_555 1_555
C62 C57 1_555 1_555
C63 C62 1_555 1_555
C64 C63 1_555 1_555
H43 C64 1_555 1_555
C65 C64 1_555 1_555
H44 C65 1_555 1_555
C66 C65 1_555 1_555
H45 C66 1_555 1_555
C67 C66 1_555 1_555
H46 C67 1_555 1_555
C68 C63 1_555 1_555
C69 C68 1_555 1_555
C70 C69 1_555 1_555
H47 C70 1_555 1_555
C71 C70 1_555 1_555
H48 C71 1_555 1_555
C72 C71 1_555 1_555
H49 C72 1_555 1_555
C73 C72 1_555 1_555
H50 C73 1_555 1_555
C74 C57 1_555 1_555
N14 C58 1_555 1_555
C93 H62 1_555 1_555
H63 C93 1_555 1_555
H64 C93 1_555 1_555
C94 C93 1_555 1_555
O2 C94 1_555 1_555
O3 C94 1_555 1_555
C95 O3 1_555 1_555
H65 C95 1_555 1_555
H66 C95 1_555 1_555
C96 C95 1_555 1_555
H67 C96 1_555 1_555
H68 C96 1_555 1_555
H69 C96 1_555 1_555
C101 H78 1_555 1_555
H79 C101 1_555 1_555
H80 C101 1_555 1_555
C102 C101 1_555 1_555
O6 C102 1_555 1_555
O7 C102 1_555 1_555
C103 O7 1_555 1_555
H81 C103 1_555 1_555
H82 C103 1_555 1_555
C104 C103 1_555 1_555
H83 C104 1_555 1_555
H84 C104 1_555 1_555
H85 C104 1_555 1_555
C105 H86 1_555 1_555
H87 C105 1_555 1_555
H88 C105 1_555 1_555
C106 C105 1_555 1_555
O8 C106 1_555 1_555
O9 C106 1_555 1_555
C107 O9 1_555 1_555
H89 C107 1_555 1_555
H90 C107 1_555 1_555
C108 C107 1_555 1_555
H91 C108 1_555 1_555
H92 C108 1_555 1_555
H93 C108 1_555 1_555
Zn2C N1 1_555 1_555
Zn3A N9 1_555 1_555
N1C Zn2 1_555 1_555
N9A Zn3 1_555 1_555
C3 N1 1_555 1_555
C4 C5 1_555 1_555
C7 N2 1_555 1_555
C9 N2 1_555 1_555
C10 C11 1_555 1_555
C12 N4 1_555 1_555
C13 N3 1_555 1_555
C15 N3 1_555 1_555
C16 C17 1_555 1_555
C18 N5 1_555 1_555
C18 N6 1_555 1_555
C19 N7 1_555 1_555
C21 N7 1_555 1_555
C22 C23 1_555 1_555
C25 N8 1_555 1_555
C27 N8 1_555 1_555
C28 C29 1_555 1_555
C30 N10 1_555 1_555
C33 N9 1_555 1_555
C34 C35 1_555 1_555
C36 N11 1_555 1_555
C36 N12 1_555 1_555
C61 C62 1_555 1_555
C67 C68 1_555 1_555
C69 C74 1_555 1_555
C73 C74 1_555 1_555

#END
