
#######################################################################
#
#                 Cambridge Crystallographic Data Centre
#                                CCDC 
#
#######################################################################
#
# If this CIF has been generated from an entry in the Cambridge 
# Structural Database, then it will include bibliographic, chemical, 
# crystal, experimental, refinement or atomic coordinate data resulting 
# from the CCDC's data processing and validation procedures.
#
#######################################################################

data_TUVDOD
_chemical_formula_moiety         '(C42 H34 Gd2 Mn3 N6 O32)n'
_symmetry_cell_setting           hexagonal
_symmetry_space_group_name_H-M   'P 6/m c c'
_symmetry_Int_Tables_number      192
_space_group_name_Hall           '-P 6 2c'
loop_
_symmetry_equiv_pos_site_id
_symmetry_equiv_pos_as_xyz
1 x,y,z
2 -y,x-y,z
3 -x+y,-x,z
4 y,-x+y,z
5 x-y,x,z
6 y,x,1/2-z
7 -x+y,y,1/2-z
8 x,x-y,1/2-z
9 x,y,-z
10 -x+y,y,1/2+z
11 x,x-y,1/2+z
12 y,x,1/2+z
13 -x,-y,-z
14 y,-x+y,-z
15 x-y,x,-z
16 -y,x-y,-z
17 -x+y,-x,-z
18 -y,-x,1/2+z
19 x-y,-y,1/2+z
20 -x,-x+y,1/2+z
21 -x,-y,z
22 x-y,-y,1/2-z
23 -x,-x+y,1/2-z
24 -y,-x,1/2-z
_cell_length_a                   15.307(3)
_cell_length_b                   15.307(3)
_cell_length_c                   15.695(4)
_cell_angle_alpha                90
_cell_angle_beta                 90
_cell_angle_gamma                120
_cell_volume                     3184.73
loop_
_atom_site_label
_atom_site_type_symbol
_atom_site_fract_x
_atom_site_fract_y
_atom_site_fract_z
Gd1 Gd 0.6667 0.3333 0.2500
Mn1 Mn 0.5000 0.0000 0.0000
O1 O 0.61325(17) 0.19918(17) 0.14419(12)
O2 O 0.6159(2) 0.06456(19) 0.09343(17)
O3 O 0.4909(3) 0.1424(3) 0.0000
N1 N 0.76063(12) 0.23937(12) 0.2500
C1 C 0.6475(3) 0.1400(3) 0.1404(2)
C2 C 0.7348(2) 0.1617(3) 0.1966(2)
C3 C 0.7849(3) 0.1084(3) 0.1949(2)
H1 H 0.7655 0.0549 0.1572
C4 C 0.86445(18) 0.13555(18) 0.2500
H2 H 0.8995 0.1005 0.2500
C2W C 0.8383(3) 0.2652(2) 0.3034(2)
C1W C 0.8600(3) 0.3525(3) 0.3596(2)
O1W O 0.80082(17) 0.38675(17) 0.35581(12)
O2W O 0.93544(19) 0.3841(2) 0.40657(17)
C3W C 0.8916(3) 0.2151(3) 0.3051(2)
H1W H 0.9451 0.2345 0.3428
O1A O 0.80082(17) 0.41407(24) 0.14419(12)
O2A O 0.93544(19) 0.55134(28) 0.09343(17)
N1A N 0.76063(12) 0.52126(17) 0.2500
C1A C 0.8600(3) 0.5075(4) 0.1404(2)
C2A C 0.8383(3) 0.5731(4) 0.1966(2)
C3A C 0.8916(3) 0.6765(4) 0.1949(2)
H1A H 0.9451 0.7106 0.1572
C4A C 0.86445(18) 0.72890(25) 0.2500
H2A H 0.8995 0.7990 0.2500
C2G C 0.7348(2) 0.5731(4) 0.3034(2)
C1G C 0.6475(3) 0.5075(4) 0.3596(2)
O1G O 0.61325(17) 0.41407(24) 0.35581(12)
O2G O 0.6159(2) 0.55134(28) 0.40657(17)
C3G C 0.7849(3) 0.6765(4) 0.3051(2)
H1G H 0.7655 0.7106 0.3428
O1B O 0.58593(24) 0.38675(17) 0.14419(12)
O2B O 0.44866(28) 0.3841(2) 0.09343(17)
N1B N 0.47874(17) 0.23937(12) 0.2500
C1B C 0.4925(4) 0.3525(3) 0.1404(2)
C2B C 0.4269(4) 0.2652(2) 0.1966(2)
C3B C 0.3235(4) 0.2151(3) 0.1949(2)
H1B H 0.2894 0.2345 0.1572
C4B C 0.27110(25) 0.13555(18) 0.2500
H2B H 0.2010 0.1005 0.2500
C2F C 0.4269(4) 0.1617(3) 0.3034(2)
C1F C 0.4925(4) 0.1400(3) 0.3596(2)
O1F O 0.58593(24) 0.19918(17) 0.35581(12)
O2F O 0.44866(28) 0.06456(19) 0.40657(17)
C3F C 0.3235(4) 0.1084(3) 0.3051(2)
H1F H 0.2894 0.0549 0.3428
Mn1W Mn 1.0000 0.5000 0.5000
Mn1A Mn 1.0000 0.5000 0.0000
Mn1G Mn 0.5000 0.5000 0.5000
Mn1B Mn 0.5000 0.5000 0.0000
Mn1F Mn 0.5000 -0.0000 0.5000
O1H O 0.61325(17) 0.19918(17) -0.14419(12)
O2H O 0.6159(2) 0.06456(19) -0.09343(17)
N1H N 0.76063(12) 0.23937(12) -0.2500
C1H C 0.6475(3) 0.1400(3) -0.1404(2)
C2H C 0.7348(2) 0.1617(3) -0.1966(2)
C3H C 0.7849(3) 0.1084(3) -0.1949(2)
H1H H 0.7655 0.0549 -0.1572
C4H C 0.86445(18) 0.13555(18) -0.2500
H2H H 0.8995 0.1005 -0.2500
C2Q C 0.8383(3) 0.2652(2) -0.3034(2)
C1Q C 0.8600(3) 0.3525(3) -0.3596(2)
O1Q O 0.80082(17) 0.38675(17) -0.35581(12)
O2Q O 0.93544(19) 0.3841(2) -0.40657(17)
C3Q C 0.8916(3) 0.2151(3) -0.3051(2)
H1Q H 0.9451 0.2345 -0.3428
O2L O 0.3841(2) -0.06456(19) -0.09343(17)
O2T O 0.3841(2) -0.06456(19) 0.09343(17)
O3L O 0.5091(3) -0.1424(3) 0.0000
O2Q_2 O 0.93544(19) 0.3841(2) 0.59343(17)
O2K O 1.06456(19) 0.6159(2) 0.59343(17)
O2E O 1.06456(19) 0.6159(2) 0.40657(17)
O3W O 0.8576(3) 0.5091(3) 0.5000
O3K O 1.1424(3) 0.4909(3) 0.5000
O1O O 0.80082(17) 0.41407(24) -0.14419(12)
O2O O 0.93544(19) 0.55134(28) -0.09343(17)
N1O N 0.76063(12) 0.52126(17) -0.2500
C1O C 0.8600(3) 0.5075(4) -0.1404(2)
C2O C 0.8383(3) 0.5731(4) -0.1966(2)
C3O C 0.8916(3) 0.6765(4) -0.1949(2)
H1O H 0.9451 0.7106 -0.1572
C4O C 0.86445(18) 0.72890(25) -0.2500
H2O H 0.8995 0.7990 -0.2500
C2J C 0.7348(2) 0.5731(4) -0.3034(2)
C1J C 0.6475(3) 0.5075(4) -0.3596(2)
O1J O 0.61325(17) 0.41407(24) -0.35581(12)
O2J O 0.6159(2) 0.55134(28) -0.40657(17)
C3J C 0.7849(3) 0.6765(4) -0.3051(2)
H1J H 0.7655 0.7106 -0.3428
O1M O 1.19918(17) 0.58593(24) -0.14419(12)
O2M O 1.06456(19) 0.44866(28) -0.09343(17)
N1M N 1.23937(12) 0.47874(17) -0.2500
C1M C 1.1400(3) 0.4925(4) -0.1404(2)
C2M C 1.1617(3) 0.4269(4) -0.1966(2)
C3M C 1.1084(3) 0.3235(4) -0.1949(2)
H1M H 1.0549 0.2894 -0.1572
C4M C 1.13555(18) 0.27110(25) -0.2500
H2M H 1.1005 0.2010 -0.2500
C2S C 1.2652(2) 0.4269(4) -0.3034(2)
C1S C 1.3525(3) 0.4925(4) -0.3596(2)
O1S O 1.38675(17) 0.58593(24) -0.35581(12)
O2S O 1.3841(2) 0.44866(28) -0.40657(17)
C3S C 1.2151(3) 0.3235(4) -0.3051(2)
H1S H 1.2345 0.2894 -0.3428
O2C O 1.06456(19) 0.44866(28) 0.09343(17)
O3A O 0.8576(3) 0.3485(4) 0.0000
O3M O 1.1424(3) 0.6515(4) 0.0000
Gd1H Gd 0.6667 0.3333 -0.2500
Mn1E Mn 1.0000 0.5000 -0.5000
Mn1G_2 Mn 0.5000 0.5000 -0.5000
Gd1K Gd 1.3333 0.6667 -0.2500
Mn1G_3 Mn 1.5000 0.5000 -0.5000
O1I O 0.58593(24) 0.19918(17) -0.35581(12)
O1P O 0.58593(24) 0.38675(17) -0.14419(12)
N1I N 0.47874(17) 0.23937(12) -0.2500
O4 O 0.2726(9) 0.0623(12) 0.0000
O5 O 1.0000 -0.0000 0.2500
loop_
_geom_bond_atom_site_label_1
_geom_bond_atom_site_label_2
_geom_bond_site_symmetry_1
_geom_bond_site_symmetry_2
Gd1 O1 1_555 1_555
Mn1 O2 1_555 1_555
O1 C1 1_555 1_555
O2 C1 1_555 1_555
O3 Mn1 1_555 1_555
N1 Gd1 1_555 1_555
C1 C2 1_555 1_555
C2 N1 1_555 1_555
C3 C2 1_555 1_555
H1 C3 1_555 1_555
C4 C3 1_555 1_555
H2 C4 1_555 1_555
C2W N1 1_555 1_555
C1W C2W 1_555 1_555
O1W Gd1 1_555 1_555
O2W C1W 1_555 1_555
C3W C4 1_555 1_555
H1W C3W 1_555 1_555
O1A Gd1 1_555 1_555
O2A C1A 1_555 1_555
N1A Gd1 1_555 1_555
C1A O1A 1_555 1_555
C2A N1A 1_555 1_555
C3A C2A 1_555 1_555
H1A C3A 1_555 1_555
C4A C3A 1_555 1_555
H2A C4A 1_555 1_555
C2G N1A 1_555 1_555
C1G C2G 1_555 1_555
O1G Gd1 1_555 1_555
O2G C1G 1_555 1_555
C3G C4A 1_555 1_555
H1G C3G 1_555 1_555
O1B Gd1 1_555 1_555
O2B C1B 1_555 1_555
N1B Gd1 1_555 1_555
C1B O1B 1_555 1_555
C2B N1B 1_555 1_555
C3B C2B 1_555 1_555
H1B C3B 1_555 1_555
C4B C3B 1_555 1_555
H2B C4B 1_555 1_555
C2F N1B 1_555 1_555
C1F C2F 1_555 1_555
O1F Gd1 1_555 1_555
O2F C1F 1_555 1_555
C3F C4B 1_555 1_555
H1F C3F 1_555 1_555
Mn1W O2W 1_555 1_555
Mn1A O2A 1_555 1_555
Mn1G O2G 1_555 1_555
Mn1B O2B 1_555 1_555
Mn1F O2F 1_555 1_555
O1H C1H 1_555 1_555
O2H Mn1 1_555 1_555
N1H C2H 1_555 1_555
C1H O2H 1_555 1_555
C2H C1H 1_555 1_555
C3H C2H 1_555 1_555
H1H C3H 1_555 1_555
C4H C3H 1_555 1_555
H2H C4H 1_555 1_555
C2Q N1H 1_555 1_555
C1Q C2Q 1_555 1_555
O1Q C1Q 1_555 1_555
O2Q C1Q 1_555 1_555
C3Q C4H 1_555 1_555
H1Q C3Q 1_555 1_555
O2L Mn1 1_555 1_555
O2T Mn1 1_555 1_555
O3L Mn1 1_555 1_555
O2Q_2 Mn1W 1_555 1_555
O2K Mn1W 1_555 1_555
O2E Mn1W 1_555 1_555
O3W Mn1W 1_555 1_555
O3K Mn1W 1_555 1_555
O1O C1O 1_555 1_555
O2O Mn1A 1_555 1_555
N1O C2O 1_555 1_555
C1O O2O 1_555 1_555
C2O C1O 1_555 1_555
C3O C2O 1_555 1_555
H1O C3O 1_555 1_555
C4O C3O 1_555 1_555
H2O C4O 1_555 1_555
C2J N1O 1_555 1_555
C1J C2J 1_555 1_555
O1J C1J 1_555 1_555
O2J C1J 1_555 1_555
C3J C4O 1_555 1_555
H1J C3J 1_555 1_555
O1M C1M 1_555 1_555
O2M Mn1A 1_555 1_555
N1M C2M 1_555 1_555
C1M O2M 1_555 1_555
C2M C1M 1_555 1_555
C3M C2M 1_555 1_555
H1M C3M 1_555 1_555
C4M C3M 1_555 1_555
H2M C4M 1_555 1_555
C2S N1M 1_555 1_555
C1S C2S 1_555 1_555
O1S C1S 1_555 1_555
O2S C1S 1_555 1_555
C3S C4M 1_555 1_555
H1S C3S 1_555 1_555
O2C Mn1A 1_555 1_555
O3A Mn1A 1_555 1_555
O3M Mn1A 1_555 1_555
Gd1H O1H 1_555 1_555
Mn1E O2Q 1_555 1_555
Mn1G_2 O2J 1_555 1_555
Gd1K O1M 1_555 1_555
Mn1G_3 O2S 1_555 1_555
O1I Gd1H 1_555 1_555
O1P Gd1H 1_555 1_555
N1I Gd1H 1_555 1_555
C2W C3W 1_555 1_555
C1W O1W 1_555 1_555
C1A C2A 1_555 1_555
C2G C3G 1_555 1_555
C1G O1G 1_555 1_555
C1B C2B 1_555 1_555
C2F C3F 1_555 1_555
C1F O1F 1_555 1_555
N1H Gd1H 1_555 1_555
C2Q C3Q 1_555 1_555
O1Q Gd1H 1_555 1_555
O1O Gd1H 1_555 1_555
N1O Gd1H 1_555 1_555
C2J C3J 1_555 1_555
O1J Gd1H 1_555 1_555
N1M Gd1K 1_555 1_555
C2S C3S 1_555 1_555
O1S Gd1K 1_555 1_555

#END
